
#######################################################################
#
#                 Cambridge Crystallographic Data Centre
#                                CCDC 
#
#######################################################################
#
# If this CIF has been generated from an entry in the Cambridge 
# Structural Database, then it will include bibliographic, chemical, 
# crystal, experimental, refinement or atomic coordinate data resulting 
# from the CCDC's data processing and validation procedures.
#
#######################################################################

data_NIXQOB
_symmetry_cell_setting           monoclinic
_symmetry_space_group_name_H-M   'P 21/c'
_symmetry_Int_Tables_number      14
_space_group_name_Hall           '-P 2ybc'
loop_
_symmetry_equiv_pos_site_id
_symmetry_equiv_pos_as_xyz
1 x,y,z
2 -x,1/2+y,1/2-z
3 -x,-y,-z
4 x,1/2-y,1/2+z
_cell_length_a                   11.635(2)
_cell_length_b                   10.743(2)
_cell_length_c                   11.999(2)
_cell_angle_alpha                90
_cell_angle_beta                 104.40(3)
_cell_angle_gamma                90
_cell_volume                     1452.69
loop_
_atom_site_label
_atom_site_type_symbol
_atom_site_fract_x
_atom_site_fract_y
_atom_site_fract_z
Zn1 Zn 0.50474(6) 0.11974(6) 0.82965(6)
Zn2 Zn 0.51015(6) -0.17478(6) 0.87563(6)
N1 N 0.4020(5) -0.0316(5) 0.8071(4)
N2 N 0.3009(6) -0.0434(5) 0.7413(5)
N3 N 0.2080(6) -0.0578(6) 0.6815(6)
N4 N 0.5040(5) 0.2333(4) 0.9672(4)
N5 N 0.5523(6) 0.3367(5) 0.9645(5)
N6 N 0.5966(7) 0.4318(6) 0.9610(6)
N7 N 0.6086(5) 0.1847(5) 0.7292(5)
N8 N 0.7087(5) 0.1617(5) 0.7278(4)
N9 N 0.8045(6) 0.1415(6) 0.7255(6)
N10 N 0.3761(5) 0.2367(5) 0.7032(4)
N11 N 0.2921(5) 0.2878(5) 0.7268(5)
N12 N 0.2112(6) 0.3339(6) 0.7472(6)
O1 O 0.6190(4) -0.0171(4) 0.9228(3)
C1 C 0.7295(6) -0.0075(6) 0.9892(5)
C2 C 0.7902(5) 0.1055(5) 1.0055(5)
H1 H 0.7535 0.1767 0.9692
N13 N 0.9010(5) 0.1130(5) 1.0728(4)
H2 H 0.9359 0.1842 1.0806
C3 C 0.9598(6) 0.0153(6) 1.1283(6)
H3 H 1.0365 0.0240 1.1743
C4 C 0.9035(6) -0.0995(6) 1.1156(6)
H4 H 0.9421 -0.1688 1.1541
C5 C 0.7905(6) -0.1108(6) 1.0460(5)
H5 H 0.7540 -0.1885 1.0365
Zn2B Zn 0.48985(6) 0.17478(6) 1.12437(6)
Zn2A Zn 0.48985(6) 0.32522(6) 0.62437(6)
N4B N 0.4960(5) -0.2333(4) 1.0328(4)
N7A N 0.3914(5) -0.3153(5) 0.7708(5)
N10A N 0.6239(5) -0.2633(5) 0.7968(4)
O2 O 0.9952(5) 0.1581(5) 0.5769(5)
H6 H 0.9483 0.1037 0.5857
H7 H 1.0377 0.1286 0.5381
O3 O 0.1501(6) 0.0645(5) 0.4523(5)
H8 H 0.1777 0.0557 0.3963
H9 H 0.1823 0.0169 0.5048
loop_
_geom_bond_atom_site_label_1
_geom_bond_atom_site_label_2
_geom_bond_site_symmetry_1
_geom_bond_site_symmetry_2
Zn1 N1 1_555 1_555
Zn2 N1 1_555 1_555
N1 N2 1_555 1_555
N2 N3 1_555 1_555
N4 Zn1 1_555 1_555
N5 N4 1_555 1_555
N6 N5 1_555 1_555
N7 Zn1 1_555 1_555
N8 N7 1_555 1_555
N9 N8 1_555 1_555
N10 Zn1 1_555 1_555
N11 N10 1_555 1_555
N12 N11 1_555 1_555
O1 Zn1 1_555 1_555
C1 O1 1_555 1_555
C2 C1 1_555 1_555
H1 C2 1_555 1_555
N13 C2 1_555 1_555
H2 N13 1_555 1_555
C3 N13 1_555 1_555
H3 C3 1_555 1_555
C4 C3 1_555 1_555
H4 C4 1_555 1_555
C5 C1 1_555 1_555
H5 C5 1_555 1_555
O2 H6 1_555 1_555
H7 O2 1_555 1_555
O3 H8 1_555 1_555
H9 O3 1_555 1_555
Zn2B N4 1_555 1_555
Zn2A N7 1_555 1_555
N4B Zn2 1_555 1_555
N7A Zn2 1_555 1_555
N10A Zn2 1_555 1_555
Zn2 O1 1_555 1_555
N10 Zn2A 1_555 1_555
C4 C5 1_555 1_555

#END
