
#######################################################################
#
#                 Cambridge Crystallographic Data Centre
#                                CCDC 
#
#######################################################################
#
# If this CIF has been generated from an entry in the Cambridge 
# Structural Database, then it will include bibliographic, chemical, 
# crystal, experimental, refinement or atomic coordinate data resulting 
# from the CCDC's data processing and validation procedures.
#
#######################################################################

data_NIXSAQ
_symmetry_cell_setting           triclinic
_symmetry_space_group_name_H-M   'P -1'
_symmetry_Int_Tables_number      2
_space_group_name_Hall           '-P 1'
loop_
_symmetry_equiv_pos_site_id
_symmetry_equiv_pos_as_xyz
1 x,y,z
2 -x,-y,-z
_cell_length_a                   5.0784(5)
_cell_length_b                   8.1255(8)
_cell_length_c                   8.9003(9)
_cell_angle_alpha                102.718(4)
_cell_angle_beta                 105.175(5)
_cell_angle_gamma                101.092(3)
_cell_volume                     333.349
loop_
_atom_site_label
_atom_site_type_symbol
_atom_site_fract_x
_atom_site_fract_y
_atom_site_fract_z
Mn1 Mn 1.0000 1.0000 0.0000
Cl1 Cl 0.38362(8) 0.36866(5) -0.26023(5)
O1 O 1.2640(3) 0.84608(14) 0.10826(15)
O2 O 0.7400(3) 0.73489(15) -0.09699(15)
O3 O 0.8359(3) 1.03778(16) 0.20763(16)
C1 C 1.1523(3) 0.68293(19) 0.06530(18)
C2 C 0.8514(3) 0.6189(2) -0.05794(18)
C3 C 0.7193(4) 0.43901(19) -0.11994(19)
C4 C 0.8660(5) 1.2048(3) 0.3176(3)
C5 C 0.7319(5) 1.1860(4) 0.4470(3)
H1 H 0.691(7) 0.975(4) 0.187(4)
H2 H 0.7772 1.2778 0.2552
H3 H 1.0697 1.2656 0.3696
H4 H 0.5295 1.1279 0.3960
H5 H 0.7570 1.3021 0.5189
H6 H 0.8219 1.1158 0.5104
Cl1A Cl 1.61638(8) 0.63134(5) 0.26023(5)
O1A O 0.7360(3) 0.15392(14) -0.10826(15)
O2A O 1.2600(3) 0.26511(15) 0.09699(15)
C1A C 0.8477(3) 0.31707(19) -0.06530(18)
C2A C 1.1486(3) 0.3811(2) 0.05794(18)
C3A C 1.2807(4) 0.56099(19) 0.11994(19)
O3A O 1.1641(3) 0.96222(16) -0.20763(16)
C4A C 1.1340(5) 0.7952(3) -0.3176(3)
C5A C 1.2681(5) 0.8140(4) -0.4470(3)
H1A H 1.309(7) 1.025(4) -0.187(4)
H2A H 1.2228 0.7222 -0.2552
H3A H 0.9303 0.7344 -0.3696
H4A H 1.4705 0.8721 -0.3960
H5A H 1.2430 0.6979 -0.5189
H6A H 1.1781 0.8842 -0.5104
Mn1_2 Mn 1.0000 0.0000 0.0000
O1A_2 O 0.7360(3) 1.15392(14) -0.10826(15)
O2A_2 O 1.2600(3) 1.26511(15) 0.09699(15)
loop_
_geom_bond_atom_site_label_1
_geom_bond_atom_site_label_2
_geom_bond_site_symmetry_1
_geom_bond_site_symmetry_2
Mn1 O1 1_555 1_555
Cl1 C3 1_555 1_555
O1 C1 1_555 1_555
O2 Mn1 1_555 1_555
O3 Mn1 1_555 1_555
C1 C2 1_555 1_555
C2 O2 1_555 1_555
C3 C2 1_555 1_555
C4 O3 1_555 1_555
C5 C4 1_555 1_555
H1 O3 1_555 1_555
H2 C4 1_555 1_555
H3 C4 1_555 1_555
H4 C5 1_555 1_555
H5 C5 1_555 1_555
H6 C5 1_555 1_555
Cl1A C3A 1_555 1_555
O1A C1A 1_555 1_555
O2A C2A 1_555 1_555
C1A C3 1_555 1_555
C2A C1A 1_555 1_555
C3A C1 1_555 1_555
O3A Mn1 1_555 1_555
C4A O3A 1_555 1_555
C5A C4A 1_555 1_555
H1A O3A 1_555 1_555
H2A C4A 1_555 1_555
H3A C4A 1_555 1_555
H4A C5A 1_555 1_555
H5A C5A 1_555 1_555
H6A C5A 1_555 1_555
Mn1_2 O1A 1_555 1_555
O1A_2 Mn1 1_555 1_555
O2A_2 Mn1 1_555 1_555
O2A Mn1_2 1_555 1_555
C2A C3A 1_555 1_555

#END
