
#######################################################################
#
#                 Cambridge Crystallographic Data Centre
#                                CCDC 
#
#######################################################################
#
# If this CIF has been generated from an entry in the Cambridge 
# Structural Database, then it will include bibliographic, chemical, 
# crystal, experimental, refinement or atomic coordinate data resulting 
# from the CCDC's data processing and validation procedures.
#
#######################################################################

data_NIXSOE
_symmetry_cell_setting           triclinic
_symmetry_space_group_name_H-M   'P -1'
_symmetry_Int_Tables_number      2
_space_group_name_Hall           '-P 1'
loop_
_symmetry_equiv_pos_site_id
_symmetry_equiv_pos_as_xyz
1 x,y,z
2 -x,-y,-z
_cell_length_a                   10.905(2)
_cell_length_b                   12.399(3)
_cell_length_c                   11.809(2)
_cell_angle_alpha                79.53(3)
_cell_angle_beta                 74.15(3)
_cell_angle_gamma                89.19(3)
_cell_volume                     1509.36
loop_
_atom_site_label
_atom_site_type_symbol
_atom_site_fract_x
_atom_site_fract_y
_atom_site_fract_z
Zn1 Zn 0.50364(3) 0.98414(3) 0.75118(3)
Zn2 Zn 0.44937(3) 0.87412(2) 0.54953(3)
N1 N 0.5240(2) 0.1046(2) -0.1625(2)
N2 N 0.4642(2) 0.7264(2) 0.4820(2)
N3 N -0.0955(6) 0.5983(6) 0.9084(7)
N4 N 0.9947(3) 0.6414(3) 0.3995(3)
O1 O 0.35397(19) 0.89778(18) 0.85759(18)
O2 O 0.3348(2) 0.79667(17) 0.72418(18)
O3 O -0.0389(5) 0.5468(5) 0.8360(6)
O4 O -0.2060(4) 0.5800(5) 0.9615(6)
O5 O -0.2000(3) 0.8512(3) 1.2081(3)
O6 O -0.0142(2) 0.9302(2) 1.1943(2)
H1 H -0.0624 0.9501 1.2562
O7 O 0.67434(19) 0.92266(19) 0.72267(19)
O8 O 0.61763(19) 0.83315(19) 0.5980(2)
O9 O 1.1027(3) 0.6180(4) 0.3539(4)
O10 O 0.9028(3) 0.5979(3) 0.3854(4)
O11 O 1.16276(19) 0.97747(19) 0.6433(2)
O12 O 1.28007(18) 0.89300(18) 0.50308(18)
O13 O 0.44425(17) 1.02614(15) 0.60911(17)
H2 H 0.3685 1.0467 0.6342
C1 C 0.6315(3) 0.1671(3) -0.1965(3)
H3 H 0.6979 0.1526 -0.2612
C2 C 0.6487(3) 0.2512(3) -0.1410(3)
H4 H 0.7252 0.2939 -0.1683
C3 C 0.5530(3) 0.2730(3) -0.0445(3)
C4 C 0.4411(3) 0.2088(3) -0.0106(3)
H5 H 0.3729 0.2220 0.0533
C5 C 0.4301(3) 0.1263(3) -0.0706(3)
H6 H 0.3538 0.0834 -0.0464
C6 C 0.5734(4) 0.3591(3) 0.0184(3)
H7 H 0.6436 0.4083 -0.0190
C7 C 0.5009(4) 0.3733(3) 0.1242(3)
H8 H 0.4297 0.3250 0.1609
C8 C 0.5225(4) 0.4568(3) 0.1870(3)
H9 H 0.5952 0.5038 0.1528
C9 C 0.4456(4) 0.4710(3) 0.2904(3)
H10 H 0.3762 0.4204 0.3247
C10 C 0.4565(3) 0.5568(2) 0.3576(3)
C11 C 0.5606(3) 0.6306(3) 0.3244(3)
H11 H 0.6304 0.6243 0.2589
C12 C 0.5606(3) 0.7128(2) 0.3882(3)
H12 H 0.6318 0.7619 0.3648
C13 C 0.3666(3) 0.6526(2) 0.5166(3)
H13 H 0.2998 0.6588 0.5846
C14 C 0.3595(3) 0.5687(3) 0.4580(3)
H14 H 0.2888 0.5190 0.4857
C15 C 0.1642(3) 0.7929(3) 0.8974(3)
C16 C 0.1070(3) 0.8412(3) 0.9947(3)
H15 H 0.1532 0.8941 1.0158
C17 C -0.0186(3) 0.8122(3) 1.0619(3)
C18 C -0.0849(4) 0.7323(4) 1.0330(4)
H16 H -0.1695 0.7118 1.0772
C19 C -0.0243(4) 0.6830(4) 0.9377(5)
C20 C 0.0982(4) 0.7127(3) 0.8693(4)
H17 H 0.1364 0.6786 0.8041
C21 C 0.2953(3) 0.8311(2) 0.8190(3)
C22 C -0.0865(3) 0.8657(3) 1.1631(3)
C23 C 0.8318(3) 0.8309(2) 0.5966(3)
C24 C 0.8509(3) 0.7523(3) 0.5256(3)
H18 H 0.7814 0.7180 0.5118
C25 C 0.9743(3) 0.7249(3) 0.4749(3)
C26 C 1.0782(3) 0.7761(3) 0.4894(3)
H19 H 1.1612 0.7573 0.4517
C27 C 1.0597(3) 0.8557(2) 0.5599(3)
C28 C 0.9353(3) 0.8815(2) 0.6161(3)
H20 H 0.9216 0.9331 0.6671
C29 C 0.6976(3) 0.8649(2) 0.6429(3)
C30 C 1.1750(3) 0.9144(2) 0.5713(3)
Zn1_2 Zn 0.50364(3) -0.01586(3) -0.24882(3)
Zn2_2 Zn 1.44937(3) 0.87412(2) 0.54953(3)
Zn2A Zn 0.55063(3) 1.12588(2) 0.45047(3)
N1_2 N 0.5240(2) 1.1046(2) 0.8375(2)
O12_2 O 0.28007(18) 0.89300(18) 0.50308(18)
O13A O 0.55575(17) 0.97386(15) 0.39089(17)
loop_
_geom_bond_atom_site_label_1
_geom_bond_atom_site_label_2
_geom_bond_site_symmetry_1
_geom_bond_site_symmetry_2
Zn1 O1 1_555 1_555
Zn2 N2 1_555 1_555
N1 C1 1_555 1_555
N2 C12 1_555 1_555
N3 O3 1_555 1_555
N4 O9 1_555 1_555
O1 C21 1_555 1_555
O2 Zn2 1_555 1_555
O4 N3 1_555 1_555
O5 C22 1_555 1_555
O6 H1 1_555 1_555
O7 Zn1 1_555 1_555
O8 Zn2 1_555 1_555
O10 N4 1_555 1_555
O11 C30 1_555 1_555
O12 C30 1_555 1_555
O13 Zn1 1_555 1_555
H2 O13 1_555 1_555
C1 H3 1_555 1_555
C2 C1 1_555 1_555
H4 C2 1_555 1_555
C3 C2 1_555 1_555
C4 C3 1_555 1_555
H5 C4 1_555 1_555
C5 N1 1_555 1_555
H6 C5 1_555 1_555
C6 C3 1_555 1_555
H7 C6 1_555 1_555
C7 C6 1_555 1_555
H8 C7 1_555 1_555
C8 C7 1_555 1_555
H9 C8 1_555 1_555
C9 C8 1_555 1_555
H10 C9 1_555 1_555
C10 C9 1_555 1_555
C11 C10 1_555 1_555
H11 C11 1_555 1_555
C12 C11 1_555 1_555
H12 C12 1_555 1_555
C13 N2 1_555 1_555
H13 C13 1_555 1_555
C14 C10 1_555 1_555
H14 C14 1_555 1_555
C15 C16 1_555 1_555
C16 H15 1_555 1_555
C17 C16 1_555 1_555
C18 C17 1_555 1_555
H16 C18 1_555 1_555
C19 N3 1_555 1_555
C20 C15 1_555 1_555
H17 C20 1_555 1_555
C21 O2 1_555 1_555
C22 O6 1_555 1_555
C23 C24 1_555 1_555
C24 H18 1_555 1_555
C25 N4 1_555 1_555
C26 C25 1_555 1_555
H19 C26 1_555 1_555
C27 C26 1_555 1_555
C28 C23 1_555 1_555
H20 C28 1_555 1_555
C29 O7 1_555 1_555
C30 C27 1_555 1_555
Zn1_2 N1 1_555 1_555
Zn2_2 O12 1_555 1_555
Zn2A O13 1_555 1_555
N1_2 Zn1 1_555 1_555
O12_2 Zn2 1_555 1_555
O13A Zn2 1_555 1_555
Zn2 O13 1_555 1_555
O8 C29 1_555 1_555
C4 C5 1_555 1_555
C13 C14 1_555 1_555
C15 C21 1_555 1_555
C17 C22 1_555 1_555
C18 C19 1_555 1_555
C19 C20 1_555 1_555
C23 C29 1_555 1_555
C24 C25 1_555 1_555
C27 C28 1_555 1_555
Zn2A O13A 1_555 1_555

#END
