
#######################################################################
#
#                 Cambridge Crystallographic Data Centre
#                                CCDC 
#
#######################################################################
#
# If this CIF has been generated from an entry in the Cambridge 
# Structural Database, then it will include bibliographic, chemical, 
# crystal, experimental, refinement or atomic coordinate data resulting 
# from the CCDC's data processing and validation procedures.
#
#######################################################################

data_NIXVOG02
_symmetry_cell_setting           triclinic
_symmetry_space_group_name_H-M   'P -1'
_symmetry_Int_Tables_number      2
_space_group_name_Hall           '-P 1'
loop_
_symmetry_equiv_pos_site_id
_symmetry_equiv_pos_as_xyz
1 x,y,z
2 -x,-y,-z
_cell_length_a                   8.9010(4)
_cell_length_b                   13.5400(6)
_cell_length_c                   15.2400(8)
_cell_angle_alpha                89.787(2)
_cell_angle_beta                 96.469(2)
_cell_angle_gamma                91.835(2)
_cell_volume                     1824.09
loop_
_atom_site_label
_atom_site_type_symbol
_atom_site_fract_x
_atom_site_fract_y
_atom_site_fract_z
Fe1 Fe 0.8289(9) 0.9990(5) 0.2595(4)
Fe2 Fe 0.8436(9) 1.5019(5) -0.2402(4)
Au1 Au 0.8965(2) 1.23424(15) -0.00535(12)
Au2 Au 0.8999(2) 1.27229(14) 0.50410(12)
Au3 Au 0.7653(2) 0.76701(14) 0.52498(12)
Au4 Au 0.7627(2) 0.72711(14) 0.01497(12)
F1 F 1.355(8) 0.935(5) 0.473(5)
F2 F 0.299(5) 1.031(3) 0.041(3)
F3 F 1.351(7) 1.576(5) -0.026(4)
F4 F 0.333(4) 1.451(3) -0.452(2)
N1 N 1.065(5) 0.949(3) 0.297(3)
N2 N 0.596(5) 1.046(3) 0.227(3)
N3 N 0.896(5) 1.089(3) 0.152(3)
N4 N 0.873(5) 1.118(3) 0.350(3)
N5 N 0.760(5) 0.912(3) 0.367(3)
N6 N 0.779(5) 0.879(3) 0.171(3)
N7 N 1.058(5) 1.554(3) -0.214(3)
N8 N 0.626(5) 1.450(3) -0.266(3)
N9 N 0.878(5) 1.391(3) -0.158(3)
N10 N 0.891(5) 1.418(3) 0.661(3)
N11 N 0.802(5) 0.608(3) 0.680(3)
N12 N 0.791(5) 0.584(3) -0.142(3)
C1 C 1.128(5) 0.899(3) 0.238(3)
C2 C 1.272(7) 0.861(5) 0.253(4)
C3 C 1.350(7) 0.874(5) 0.336(4)
C4 C 1.274(7) 0.925(5) 0.394(4)
C5 C 1.141(6) 0.964(4) 0.376(3)
C6 C 0.516(6) 1.098(4) 0.288(4)
C7 C 0.372(7) 1.133(4) 0.262(4)
C8 C 0.293(8) 1.110(5) 0.179(4)
C9 C 0.380(7) 1.056(4) 0.124(4)
C10 C 0.524(5) 1.030(3) 0.143(3)
C11 C 0.900(5) 1.140(3) 0.095(3)
C12 C 0.881(6) 1.179(4) 0.401(3)
C13 C 0.756(6) 0.862(4) 0.423(3)
C14 C 0.766(6) 0.820(4) 0.116(3)
C15 C 1.140(6) 1.592(4) -0.278(3)
C16 C 1.282(7) 1.633(4) -0.258(4)
C17 C 1.356(8) 1.634(5) -0.172(5)
C18 C 1.285(7) 1.587(4) -0.112(4)
C19 C 1.140(6) 1.549(4) -0.131(3)
C20 C 0.540(7) 1.416(5) -0.203(4)
C21 C 0.401(6) 1.380(4) -0.222(4)
C22 C 0.319(7) 1.389(5) -0.307(4)
C23 C 0.410(7) 1.435(5) -0.366(4)
C24 C 0.559(6) 1.465(4) -0.346(3)
C25 C 0.876(6) 1.330(4) -0.102(3)
C26 C 0.898(6) 1.365(4) 0.603(3)
C27 C 0.785(6) 0.668(4) 0.623(4)
C28 C 0.768(7) 0.630(4) -0.083(4)
Fe2_2 Fe 0.8436(9) 1.5019(5) 0.7598(4)
Fe2_3 Fe 0.8436(9) 0.5019(5) 0.7598(4)
Fe2_4 Fe 0.8436(9) 0.5019(5) -0.2402(4)
N10_2 N 0.891(5) 1.418(3) -0.339(3)
N11_2 N 0.802(5) 1.608(3) -0.320(3)
N12_2 N 0.791(5) 1.584(3) -0.142(3)
loop_
_geom_bond_atom_site_label_1
_geom_bond_atom_site_label_2
_geom_bond_site_symmetry_1
_geom_bond_site_symmetry_2
Fe1 N1 1_555 1_555
Fe2 N7 1_555 1_555
Au1 C11 1_555 1_555
Au2 C12 1_555 1_555
Au3 C13 1_555 1_555
Au4 C14 1_555 1_555
F1 C4 1_555 1_555
F2 C9 1_555 1_555
F3 C18 1_555 1_555
F4 C23 1_555 1_555
N1 C1 1_555 1_555
N2 Fe1 1_555 1_555
N3 Fe1 1_555 1_555
N4 Fe1 1_555 1_555
N5 Fe1 1_555 1_555
N6 Fe1 1_555 1_555
N7 C15 1_555 1_555
N8 Fe2 1_555 1_555
N9 Fe2 1_555 1_555
N10 C26 1_555 1_555
N11 C27 1_555 1_555
N12 C28 1_555 1_555
C1 C2 1_555 1_555
C2 C3 1_555 1_555
C3 C4 1_555 1_555
C4 C5 1_555 1_555
C5 N1 1_555 1_555
C6 N2 1_555 1_555
C7 C6 1_555 1_555
C8 C7 1_555 1_555
C9 C8 1_555 1_555
C10 N2 1_555 1_555
C11 N3 1_555 1_555
C12 N4 1_555 1_555
C13 N5 1_555 1_555
C14 N6 1_555 1_555
C15 C16 1_555 1_555
C16 C17 1_555 1_555
C17 C18 1_555 1_555
C18 C19 1_555 1_555
C19 N7 1_555 1_555
C20 N8 1_555 1_555
C21 C20 1_555 1_555
C22 C21 1_555 1_555
C23 C22 1_555 1_555
C24 N8 1_555 1_555
C25 Au1 1_555 1_555
C26 Au2 1_555 1_555
C27 Au3 1_555 1_555
C28 Au4 1_555 1_555
Fe2_2 N10 1_555 1_555
Fe2_3 N11 1_555 1_555
Fe2_4 N12 1_555 1_555
N10_2 Fe2 1_555 1_555
N11_2 Fe2 1_555 1_555
N12_2 Fe2 1_555 1_555
N9 C25 1_555 1_555
C9 C10 1_555 1_555
C23 C24 1_555 1_555

#END
