
#######################################################################
#
#                 Cambridge Crystallographic Data Centre
#                                CCDC 
#
#######################################################################
#
# If this CIF has been generated from an entry in the Cambridge 
# Structural Database, then it will include bibliographic, chemical, 
# crystal, experimental, refinement or atomic coordinate data resulting 
# from the CCDC's data processing and validation procedures.
#
#######################################################################

data_NIXYOK
_symmetry_cell_setting           monoclinic
_symmetry_space_group_name_H-M   'C 2'
_symmetry_Int_Tables_number      5
_space_group_name_Hall           'C 2y'
loop_
_symmetry_equiv_pos_site_id
_symmetry_equiv_pos_as_xyz
1 x,y,z
2 -x,y,-z
3 1/2+x,1/2+y,z
4 1/2-x,1/2+y,-z
_cell_length_a                   28.1970(8)
_cell_length_b                   15.6401(4)
_cell_length_c                   15.4989(4)
_cell_angle_alpha                90
_cell_angle_beta                 100.242(2)
_cell_angle_gamma                90
_cell_volume                     6726.16
loop_
_atom_site_label
_atom_site_type_symbol
_atom_site_fract_x
_atom_site_fract_y
_atom_site_fract_z
Co1 Co 1.0000 0.71548(5) 1.0000
Br1 Br 0.982220(17) 0.72907(3) 0.82568(3)
S1 S 0.79011(4) 0.86866(7) 0.60762(8)
C1 C 0.73908(14) 0.8552(3) 0.6601(3)
C2 C 0.73987(14) 0.8694(2) 0.7492(3)
C3 C 0.69827(14) 0.8469(3) 0.7825(3)
C4 C 0.65949(15) 0.8083(3) 0.7306(3)
H1 H 0.6324 0.7922 0.7556
C5 C 0.65930(16) 0.7924(3) 0.6417(3)
C6 C 0.69950(16) 0.8178(3) 0.6079(3)
H2 H 0.6999 0.8094 0.5473
S2 S 0.79121(4) 0.91603(7) 0.81627(7)
C7 C 0.81478(18) 0.8239(3) 0.8818(4)
H3 H 0.7912 0.8048 0.9181
H4 H 0.8205 0.7761 0.8430
C8 C 0.86159(15) 0.8492(3) 0.9401(3)
C9 C 0.90055(15) 0.7939(3) 0.9442(3)
H5 H 0.8971 0.7450 0.9072
N1 N 0.94317(13) 0.8068(2) 0.9985(3)
C10 C 0.94772(17) 0.8782(3) 1.0463(3)
H6 H 0.9774 0.8886 1.0845
C11 C 0.9117(2) 0.9370(4) 1.0428(4)
H7 H 0.9168 0.9876 1.0771
C12 C 0.86755(18) 0.9225(3) 0.9891(4)
H8 H 0.8420 0.9625 0.9864
C13 C 0.61597(17) 0.7491(3) 0.5820(3)
C14 C 0.5721(3) 0.7450(8) 0.6241(5)
H9 H 0.5653 0.8020 0.6452
H10 H 0.5779 0.7051 0.6736
H11 H 0.5445 0.7253 0.5810
C15 C 0.6310(3) 0.6566(4) 0.5637(5)
H12 H 0.6455 0.6292 0.6190
H13 H 0.6544 0.6578 0.5240
H14 H 0.6025 0.6241 0.5365
C16 C 0.6042(2) 0.7923(5) 0.4934(4)
H15 H 0.5740 0.7690 0.4608
H16 H 0.6302 0.7818 0.4605
H17 H 0.6007 0.8539 0.5016
S3 S 0.69439(4) 0.85070(7) 0.89587(7)
C17 C 0.70822(15) 0.9544(3) 0.9377(3)
C18 C 0.68940(14) 1.0316(3) 0.8979(2)
C19 C 0.70180(15) 1.1075(3) 0.9431(3)
C20 C 0.72715(16) 1.1067(3) 1.0300(3)
H18 H 0.7342 1.1593 1.0602
C21 C 0.74199(16) 1.0310(3) 1.0725(3)
C22 C 0.73464(16) 0.9552(3) 1.0231(3)
H19 H 0.7480 0.9032 1.0483
S4 S 0.65012(4) 1.03419(8) 0.79508(6)
C23 C 0.59754(17) 0.9795(3) 0.8226(3)
H20 H 0.5694 0.9912 0.7759
H21 H 0.6035 0.9171 0.8233
C24 C 0.58500(16) 1.0055(3) 0.9101(3)
C25 C 0.56488(16) 1.0840(3) 0.9211(3)
H22 H 0.5604 1.1225 0.8729
N2 N 0.55124(13) 1.1095(2) 0.9954(2)
C26 C 0.5604(2) 1.0552(4) 1.0637(3)
H23 H 0.5513 1.0713 1.1176
C27 C 0.5823(3) 0.9774(4) 1.0586(4)
H24 H 0.5889 0.9416 1.1088
C28 C 0.5942(2) 0.9522(4) 0.9829(4)
H25 H 0.6090 0.8981 0.9789
C29 C 0.76686(18) 1.0277(3) 1.1693(3)
C30 C 0.8187(3) 0.9977(6) 1.1753(4)
H26 H 0.8320 0.9825 1.2362
H27 H 0.8380 1.0438 1.1561
H28 H 0.8195 0.9476 1.1376
C31 C 0.7427(3) 0.9609(4) 1.2197(4)
H29 H 0.7083 0.9742 1.2141
H30 H 0.7578 0.9620 1.2817
H31 H 0.7465 0.9040 1.1954
C32 C 0.7660(3) 1.1124(4) 1.2146(4)
H32 H 0.7325 1.1303 1.2124
H33 H 0.7828 1.1551 1.1850
H34 H 0.7820 1.1069 1.2758
S5 S 0.68090(4) 1.21024(7) 0.90501(7)
C33 C 0.68980(15) 1.2224(3) 0.7948(2)
C34 C 0.73300(15) 1.2068(3) 0.7647(3)
C35 C 0.73534(14) 1.2307(3) 0.6783(3)
C36 C 0.69605(16) 1.2694(3) 0.6248(3)
H35 H 0.6985 1.2848 0.5664
C37 C 0.65330(16) 1.2860(3) 0.6556(3)
C38 C 0.65061(16) 1.2614(3) 0.7401(3)
H36 H 0.6216 1.2711 0.7618
S6 S 0.78267(4) 1.15692(7) 0.83286(7)
C39 C 0.8153(2) 1.2485(4) 0.8788(4)
H37 H 0.8253 1.2826 0.8313
H38 H 0.7942 1.2847 0.9082
C40 C 0.8584(2) 1.2237(4) 0.9428(4)
C41 C 0.8562(2) 1.1806(4) 1.0209(4)
H39 H 0.8260 1.1625 1.0333
C42 C 0.8980(3) 1.1641(4) 1.0805(4)
H40 H 0.8978 1.1354 1.1345
C43 C 0.9389(3) 1.1915(5) 1.0565(7)
H41 H 0.9680 1.1832 1.0972
N3 N 0.9426(3) 1.2297(6) 0.9796(7)
C44 C 0.9023(3) 1.2454(5) 0.9265(6)
H42 H 0.9039 1.2739 0.8730
C45 C 0.61108(19) 1.3293(4) 0.5953(3)
C46 C 0.5992(2) 1.2798(4) 0.5077(4)
H43 H 0.6288 1.2708 0.4842
H44 H 0.5763 1.3129 0.4657
H45 H 0.5850 1.2244 0.5179
C47 C 0.5664(3) 1.3352(7) 0.6347(5)
H46 H 0.5545 1.2775 0.6434
H47 H 0.5416 1.3672 0.5953
H48 H 0.5738 1.3646 0.6914
C48 C 0.6274(3) 1.4211(4) 0.5721(4)
H49 H 0.6349 1.4554 0.6257
H50 H 0.6014 1.4486 0.5311
H51 H 0.6562 1.4167 0.5449
S7 S 0.78900(4) 1.22728(7) 0.63302(7)
C49 C 0.81477(15) 1.1239(3) 0.6491(3)
C50 C 0.79000(13) 1.0478(3) 0.6236(2)
C51 C 0.81590(15) 0.9702(3) 0.6369(3)
C52 C 0.86557(15) 0.9709(3) 0.6689(3)
H52 H 0.8825 0.9182 0.6765
C53 C 0.89059(14) 1.0465(3) 0.6897(3)
C54 C 0.86450(15) 1.1226(3) 0.6816(3)
H53 H 0.8808 1.1749 0.6983
S8 S 0.72843(4) 1.04939(8) 0.57368(7)
C55 C 0.73624(18) 1.0388(5) 0.4595(3)
H54 H 0.7587 1.0832 0.4452
H55 H 0.7498 0.9819 0.4497
C56 C 0.68812(17) 1.0492(4) 0.4031(3)
C57 C 0.6608(2) 0.9787(4) 0.3756(4)
H56 H 0.6739 0.9240 0.3926
N4 N 0.61654(18) 0.9822(4) 0.3261(3)
C58 C 0.5988(2) 1.0602(5) 0.3047(4)
H57 H 0.5668 1.0643 0.2731
C59 C 0.6230(3) 1.1320(5) 0.3248(4)
H58 H 0.6098 1.1854 0.3035
C60 C 0.6683(3) 1.1278(4) 0.3777(4)
H59 H 0.6854 1.1788 0.3962
C61 C 0.94511(15) 1.0454(3) 0.7280(3)
C62 C 0.9492(3) 1.0305(7) 0.8266(5)
H60 H 0.9395 0.9718 0.8370
H61 H 0.9281 1.0707 0.8503
H62 H 0.9826 1.0396 0.8557
C63 C 0.9696(2) 0.9738(7) 0.6897(9)
H63 H 1.0046 0.9814 0.7044
H64 H 0.9596 0.9735 0.6258
H65 H 0.9607 0.9193 0.7137
C64 C 0.9683(2) 1.1295(5) 0.7174(6)
H66 H 1.0031 1.1252 0.7392
H67 H 0.9545 1.1732 0.7509
H68 H 0.9627 1.1454 0.6553
Br1A Br 1.017780(17) 0.72907(3) 1.17432(3)
S1A S 1.20989(4) 0.86866(7) 1.39238(8)
C1A C 1.26092(14) 0.8552(3) 1.3399(3)
C2A C 1.26013(14) 0.8694(2) 1.2508(3)
C3A C 1.30173(14) 0.8469(3) 1.2175(3)
C4A C 1.34051(15) 0.8083(3) 1.2694(3)
H1A H 1.3676 0.7922 1.2444
C5A C 1.34070(16) 0.7924(3) 1.3583(3)
C6A C 1.30050(16) 0.8178(3) 1.3921(3)
H2A H 1.3001 0.8094 1.4527
S2A S 1.20879(4) 0.91603(7) 1.18373(7)
C7A C 1.18522(18) 0.8239(3) 1.1182(4)
H3A H 1.2088 0.8048 1.0819
H4A H 1.1795 0.7761 1.1570
C8A C 1.13841(15) 0.8492(3) 1.0599(3)
C9A C 1.09945(15) 0.7939(3) 1.0558(3)
H5A H 1.1029 0.7450 1.0928
N1A N 1.05683(13) 0.8068(2) 1.0015(3)
C10A C 1.05228(17) 0.8782(3) 0.9537(3)
H6A H 1.0226 0.8886 0.9155
C11A C 1.0883(2) 0.9370(4) 0.9572(4)
H7A H 1.0832 0.9876 0.9229
C12A C 1.13245(18) 0.9225(3) 1.0109(4)
H8A H 1.1580 0.9625 1.0136
C13A C 1.38403(17) 0.7491(3) 1.4180(3)
C14A C 1.4279(3) 0.7450(8) 1.3759(5)
H9A H 1.4347 0.8020 1.3548
H10A H 1.4221 0.7051 1.3264
H11A H 1.4555 0.7253 1.4190
C15A C 1.3690(3) 0.6566(4) 1.4363(5)
H12A H 1.3545 0.6292 1.3810
H13A H 1.3456 0.6578 1.4760
H14A H 1.3975 0.6241 1.4635
C16A C 1.3958(2) 0.7923(5) 1.5066(4)
H15A H 1.4260 0.7690 1.5392
H16A H 1.3698 0.7818 1.5395
H17A H 1.3993 0.8539 1.4984
S3A S 1.30561(4) 0.85070(7) 1.10413(7)
C17A C 1.29178(15) 0.9544(3) 1.0623(3)
C18A C 1.31060(14) 1.0316(3) 1.1021(2)
C19A C 1.29820(15) 1.1075(3) 1.0569(3)
C20A C 1.27285(16) 1.1067(3) 0.9700(3)
H18A H 1.2658 1.1593 0.9398
C21A C 1.25801(16) 1.0310(3) 0.9275(3)
C22A C 1.26536(16) 0.9552(3) 0.9769(3)
H19A H 1.2520 0.9032 0.9517
S4A S 1.34988(4) 1.03419(8) 1.20492(6)
C23A C 1.40246(17) 0.9795(3) 1.1774(3)
H20A H 1.4306 0.9912 1.2241
H21A H 1.3965 0.9171 1.1767
C24A C 1.41500(16) 1.0055(3) 1.0899(3)
C25A C 1.43512(16) 1.0840(3) 1.0789(3)
H22A H 1.4396 1.1225 1.1271
N2A N 1.44876(13) 1.1095(2) 1.0046(2)
C26A C 1.4396(2) 1.0552(4) 0.9363(3)
H23A H 1.4487 1.0713 0.8824
C27A C 1.4177(3) 0.9774(4) 0.9414(4)
H24A H 1.4111 0.9416 0.8912
C28A C 1.4058(2) 0.9522(4) 1.0171(4)
H25A H 1.3910 0.8981 1.0211
C29A C 1.23314(18) 1.0277(3) 0.8307(3)
C30A C 1.1813(3) 0.9977(6) 0.8247(4)
H26A H 1.1680 0.9825 0.7638
H27A H 1.1620 1.0438 0.8439
H28A H 1.1805 0.9476 0.8624
C31A C 1.2573(3) 0.9609(4) 0.7803(4)
H29A H 1.2917 0.9742 0.7859
H30A H 1.2422 0.9620 0.7183
H31A H 1.2535 0.9040 0.8046
C32A C 1.2340(3) 1.1124(4) 0.7854(4)
H32A H 1.2675 1.1303 0.7876
H33A H 1.2172 1.1551 0.8150
H34A H 1.2180 1.1069 0.7242
S5A S 1.31910(4) 1.21024(7) 1.09499(7)
C33A C 1.31020(15) 1.2224(3) 1.2052(2)
C34A C 1.26700(15) 1.2068(3) 1.2353(3)
C35A C 1.26466(14) 1.2307(3) 1.3217(3)
C36A C 1.30395(16) 1.2694(3) 1.3752(3)
H35A H 1.3015 1.2848 1.4336
C37A C 1.34670(16) 1.2860(3) 1.3444(3)
C38A C 1.34939(16) 1.2614(3) 1.2599(3)
H36A H 1.3784 1.2711 1.2382
S6A S 1.21733(4) 1.15692(7) 1.16714(7)
C39A C 1.1847(2) 1.2485(4) 1.1212(4)
H37A H 1.1747 1.2826 1.1687
H38A H 1.2058 1.2847 1.0918
C40A C 1.1416(2) 1.2237(4) 1.0572(4)
C41A C 1.1438(2) 1.1806(4) 0.9791(4)
H39A H 1.1740 1.1625 0.9667
C42A C 1.1020(3) 1.1641(4) 0.9195(4)
H40A H 1.1022 1.1354 0.8655
C43A C 1.0611(3) 1.1915(5) 0.9435(7)
H41A H 1.0320 1.1832 0.9028
N3A N 1.0574(3) 1.2297(6) 1.0204(7)
C44A C 1.0977(3) 1.2454(5) 1.0735(6)
H42A H 1.0961 1.2739 1.1270
C45A C 1.38892(19) 1.3293(4) 1.4047(3)
C46A C 1.4008(2) 1.2798(4) 1.4923(4)
H43A H 1.3712 1.2708 1.5158
H44A H 1.4237 1.3129 1.5343
H45A H 1.4150 1.2244 1.4821
C47A C 1.4336(3) 1.3352(7) 1.3653(5)
H46A H 1.4455 1.2775 1.3566
H47A H 1.4584 1.3672 1.4047
H48A H 1.4262 1.3646 1.3086
C48A C 1.3726(3) 1.4211(4) 1.4279(4)
H49A H 1.3651 1.4554 1.3743
H50A H 1.3986 1.4486 1.4689
H51A H 1.3438 1.4167 1.4551
S7A S 1.21100(4) 1.22728(7) 1.36698(7)
C49A C 1.18523(15) 1.1239(3) 1.3509(3)
C50A C 1.21000(13) 1.0478(3) 1.3764(2)
C51A C 1.18410(15) 0.9702(3) 1.3631(3)
C52A C 1.13443(15) 0.9709(3) 1.3311(3)
H52A H 1.1175 0.9182 1.3235
C53A C 1.10941(14) 1.0465(3) 1.3103(3)
C54A C 1.13550(15) 1.1226(3) 1.3184(3)
H53A H 1.1192 1.1749 1.3017
S8A S 1.27157(4) 1.04939(8) 1.42632(7)
C55A C 1.26376(18) 1.0388(5) 1.5405(3)
H54A H 1.2413 1.0832 1.5548
H55A H 1.2502 0.9819 1.5503
C56A C 1.31188(17) 1.0492(4) 1.5969(3)
C57A C 1.3392(2) 0.9787(4) 1.6244(4)
H56A H 1.3261 0.9240 1.6074
N4A N 1.38346(18) 0.9822(4) 1.6739(3)
C58A C 1.4012(2) 1.0602(5) 1.6953(4)
H57A H 1.4332 1.0643 1.7269
C59A C 1.3770(3) 1.1320(5) 1.6752(4)
H58A H 1.3902 1.1854 1.6965
C60A C 1.3317(3) 1.1278(4) 1.6223(4)
H59A H 1.3146 1.1788 1.6038
C61A C 1.05489(15) 1.0454(3) 1.2720(3)
C62A C 1.0508(3) 1.0305(7) 1.1734(5)
H60A H 1.0605 0.9718 1.1630
H61A H 1.0719 1.0707 1.1497
H62A H 1.0174 1.0396 1.1443
C63A C 1.0304(2) 0.9738(7) 1.3103(9)
H63A H 0.9954 0.9814 1.2956
H64A H 1.0404 0.9735 1.3742
H65A H 1.0393 0.9193 1.2863
C64A C 1.0317(2) 1.1295(5) 1.2826(6)
H66A H 0.9969 1.1252 1.2608
H67A H 1.0455 1.1732 1.2491
H68A H 1.0373 1.1454 1.3447
Co1B Co 0.5000 1.21548(5) 1.0000
Co1B_2 Co 1.5000 1.21548(5) 1.0000
N2B N 1.05124(13) 0.6095(2) 0.9954(2)
N2C N 0.94876(13) 0.6095(2) 1.0046(2)
O1 O 0.93290(16) 0.3394(3) 0.7530(3)
H69 H 0.9181 0.3650 0.7087
C65 C 0.9819(2) 0.3629(5) 0.7672(8)
H70 H 0.9846 0.4243 0.7567
H71 H 0.9984 0.3310 0.7269
H72 H 0.9967 0.3497 0.8278
O2 O 0.5923(4) 0.0335(7) 0.5666(6)
loop_
_geom_bond_atom_site_label_1
_geom_bond_atom_site_label_2
_geom_bond_site_symmetry_1
_geom_bond_site_symmetry_2
Co1 Br1 1_555 1_555
S1 C1 1_555 1_555
C1 C2 1_555 1_555
C2 C3 1_555 1_555
C3 C4 1_555 1_555
C4 H1 1_555 1_555
C5 C4 1_555 1_555
C6 C1 1_555 1_555
H2 C6 1_555 1_555
S2 C2 1_555 1_555
C7 S2 1_555 1_555
H3 C7 1_555 1_555
H4 C7 1_555 1_555
C8 C7 1_555 1_555
C9 C8 1_555 1_555
H5 C9 1_555 1_555
N1 Co1 1_555 1_555
C10 N1 1_555 1_555
H6 C10 1_555 1_555
C11 C10 1_555 1_555
H7 C11 1_555 1_555
C12 C8 1_555 1_555
H8 C12 1_555 1_555
C13 C5 1_555 1_555
C14 C13 1_555 1_555
H9 C14 1_555 1_555
H10 C14 1_555 1_555
H11 C14 1_555 1_555
C15 C13 1_555 1_555
H12 C15 1_555 1_555
H13 C15 1_555 1_555
H14 C15 1_555 1_555
C16 C13 1_555 1_555
H15 C16 1_555 1_555
H16 C16 1_555 1_555
H17 C16 1_555 1_555
S3 C3 1_555 1_555
C17 S3 1_555 1_555
C18 C17 1_555 1_555
C19 C18 1_555 1_555
C20 C19 1_555 1_555
H18 C20 1_555 1_555
C21 C20 1_555 1_555
C22 C17 1_555 1_555
H19 C22 1_555 1_555
S4 C18 1_555 1_555
C23 S4 1_555 1_555
H20 C23 1_555 1_555
H21 C23 1_555 1_555
C24 C23 1_555 1_555
C25 C24 1_555 1_555
H22 C25 1_555 1_555
N2 C25 1_555 1_555
C26 N2 1_555 1_555
H23 C26 1_555 1_555
C27 C26 1_555 1_555
H24 C27 1_555 1_555
C28 C24 1_555 1_555
H25 C28 1_555 1_555
C29 C21 1_555 1_555
C30 C29 1_555 1_555
H26 C30 1_555 1_555
H27 C30 1_555 1_555
H28 C30 1_555 1_555
C31 C29 1_555 1_555
H29 C31 1_555 1_555
H30 C31 1_555 1_555
H31 C31 1_555 1_555
C32 C29 1_555 1_555
H32 C32 1_555 1_555
H33 C32 1_555 1_555
H34 C32 1_555 1_555
S5 C19 1_555 1_555
C33 S5 1_555 1_555
C34 C33 1_555 1_555
C35 C34 1_555 1_555
C36 C35 1_555 1_555
H35 C36 1_555 1_555
C37 C36 1_555 1_555
C38 C33 1_555 1_555
H36 C38 1_555 1_555
S6 C34 1_555 1_555
C39 S6 1_555 1_555
H37 C39 1_555 1_555
H38 C39 1_555 1_555
C40 C39 1_555 1_555
C41 C40 1_555 1_555
H39 C41 1_555 1_555
C42 C41 1_555 1_555
H40 C42 1_555 1_555
C43 C42 1_555 1_555
H41 C43 1_555 1_555
N3 C43 1_555 1_555
C44 C40 1_555 1_555
H42 C44 1_555 1_555
C45 C37 1_555 1_555
C46 C45 1_555 1_555
H43 C46 1_555 1_555
H44 C46 1_555 1_555
H45 C46 1_555 1_555
C47 C45 1_555 1_555
H46 C47 1_555 1_555
H47 C47 1_555 1_555
H48 C47 1_555 1_555
C48 C45 1_555 1_555
H49 C48 1_555 1_555
H50 C48 1_555 1_555
H51 C48 1_555 1_555
S7 C35 1_555 1_555
C49 S7 1_555 1_555
C50 C49 1_555 1_555
C51 S1 1_555 1_555
C52 C51 1_555 1_555
H52 C52 1_555 1_555
C53 C52 1_555 1_555
C54 C49 1_555 1_555
H53 C54 1_555 1_555
S8 C50 1_555 1_555
C55 S8 1_555 1_555
H54 C55 1_555 1_555
H55 C55 1_555 1_555
C56 C55 1_555 1_555
C57 C56 1_555 1_555
H56 C57 1_555 1_555
N4 C57 1_555 1_555
C58 N4 1_555 1_555
H57 C58 1_555 1_555
C59 C58 1_555 1_555
H58 C59 1_555 1_555
C60 C56 1_555 1_555
H59 C60 1_555 1_555
C61 C53 1_555 1_555
C62 C61 1_555 1_555
H60 C62 1_555 1_555
H61 C62 1_555 1_555
H62 C62 1_555 1_555
C63 C61 1_555 1_555
H63 C63 1_555 1_555
H64 C63 1_555 1_555
H65 C63 1_555 1_555
C64 C61 1_555 1_555
H66 C64 1_555 1_555
H67 C64 1_555 1_555
H68 C64 1_555 1_555
O1 H69 1_555 1_555
C65 O1 1_555 1_555
H70 C65 1_555 1_555
H71 C65 1_555 1_555
H72 C65 1_555 1_555
Br1A Co1 1_555 1_555
S1A C1A 1_555 1_555
C1A C2A 1_555 1_555
C2A C3A 1_555 1_555
C3A C4A 1_555 1_555
C4A H1A 1_555 1_555
C5A C4A 1_555 1_555
C6A C1A 1_555 1_555
H2A C6A 1_555 1_555
S2A C2A 1_555 1_555
C7A S2A 1_555 1_555
H3A C7A 1_555 1_555
H4A C7A 1_555 1_555
C8A C7A 1_555 1_555
C9A C8A 1_555 1_555
H5A C9A 1_555 1_555
N1A Co1 1_555 1_555
C10A N1A 1_555 1_555
H6A C10A 1_555 1_555
C11A C10A 1_555 1_555
H7A C11A 1_555 1_555
C12A C8A 1_555 1_555
H8A C12A 1_555 1_555
C13A C5A 1_555 1_555
C14A C13A 1_555 1_555
H9A C14A 1_555 1_555
H10A C14A 1_555 1_555
H11A C14A 1_555 1_555
C15A C13A 1_555 1_555
H12A C15A 1_555 1_555
H13A C15A 1_555 1_555
H14A C15A 1_555 1_555
C16A C13A 1_555 1_555
H15A C16A 1_555 1_555
H16A C16A 1_555 1_555
H17A C16A 1_555 1_555
S3A C3A 1_555 1_555
C17A S3A 1_555 1_555
C18A C17A 1_555 1_555
C19A C18A 1_555 1_555
C20A C19A 1_555 1_555
H18A C20A 1_555 1_555
C21A C20A 1_555 1_555
C22A C17A 1_555 1_555
H19A C22A 1_555 1_555
S4A C18A 1_555 1_555
C23A S4A 1_555 1_555
H20A C23A 1_555 1_555
H21A C23A 1_555 1_555
C24A C23A 1_555 1_555
C25A C24A 1_555 1_555
H22A C25A 1_555 1_555
N2A C25A 1_555 1_555
C26A N2A 1_555 1_555
H23A C26A 1_555 1_555
C27A C26A 1_555 1_555
H24A C27A 1_555 1_555
C28A C24A 1_555 1_555
H25A C28A 1_555 1_555
C29A C21A 1_555 1_555
C30A C29A 1_555 1_555
H26A C30A 1_555 1_555
H27A C30A 1_555 1_555
H28A C30A 1_555 1_555
C31A C29A 1_555 1_555
H29A C31A 1_555 1_555
H30A C31A 1_555 1_555
H31A C31A 1_555 1_555
C32A C29A 1_555 1_555
H32A C32A 1_555 1_555
H33A C32A 1_555 1_555
H34A C32A 1_555 1_555
S5A C19A 1_555 1_555
C33A S5A 1_555 1_555
C34A C33A 1_555 1_555
C35A C34A 1_555 1_555
C36A C35A 1_555 1_555
H35A C36A 1_555 1_555
C37A C36A 1_555 1_555
C38A C33A 1_555 1_555
H36A C38A 1_555 1_555
S6A C34A 1_555 1_555
C39A S6A 1_555 1_555
H37A C39A 1_555 1_555
H38A C39A 1_555 1_555
C40A C39A 1_555 1_555
C41A C40A 1_555 1_555
H39A C41A 1_555 1_555
C42A C41A 1_555 1_555
H40A C42A 1_555 1_555
C43A C42A 1_555 1_555
H41A C43A 1_555 1_555
N3A C43A 1_555 1_555
C44A C40A 1_555 1_555
H42A C44A 1_555 1_555
C45A C37A 1_555 1_555
C46A C45A 1_555 1_555
H43A C46A 1_555 1_555
H44A C46A 1_555 1_555
H45A C46A 1_555 1_555
C47A C45A 1_555 1_555
H46A C47A 1_555 1_555
H47A C47A 1_555 1_555
H48A C47A 1_555 1_555
C48A C45A 1_555 1_555
H49A C48A 1_555 1_555
H50A C48A 1_555 1_555
H51A C48A 1_555 1_555
S7A C35A 1_555 1_555
C49A S7A 1_555 1_555
C50A C49A 1_555 1_555
C51A S1A 1_555 1_555
C52A C51A 1_555 1_555
H52A C52A 1_555 1_555
C53A C52A 1_555 1_555
C54A C49A 1_555 1_555
H53A C54A 1_555 1_555
S8A C50A 1_555 1_555
C55A S8A 1_555 1_555
H54A C55A 1_555 1_555
H55A C55A 1_555 1_555
C56A C55A 1_555 1_555
C57A C56A 1_555 1_555
H56A C57A 1_555 1_555
N4A C57A 1_555 1_555
C58A N4A 1_555 1_555
H57A C58A 1_555 1_555
C59A C58A 1_555 1_555
H58A C59A 1_555 1_555
C60A C56A 1_555 1_555
H59A C60A 1_555 1_555
C61A C53A 1_555 1_555
C62A C61A 1_555 1_555
H60A C62A 1_555 1_555
H61A C62A 1_555 1_555
H62A C62A 1_555 1_555
C63A C61A 1_555 1_555
H63A C63A 1_555 1_555
H64A C63A 1_555 1_555
H65A C63A 1_555 1_555
C64A C61A 1_555 1_555
H66A C64A 1_555 1_555
H67A C64A 1_555 1_555
H68A C64A 1_555 1_555
Co1B N2 1_555 1_555
Co1B_2 N2A 1_555 1_555
N2B Co1 1_555 1_555
N2C Co1 1_555 1_555
C5 C6 1_555 1_555
C9 N1 1_555 1_555
C11 C12 1_555 1_555
C21 C22 1_555 1_555
C27 C28 1_555 1_555
C37 C38 1_555 1_555
N3 C44 1_555 1_555
C50 C51 1_555 1_555
C53 C54 1_555 1_555
C59 C60 1_555 1_555
C5A C6A 1_555 1_555
C9A N1A 1_555 1_555
C11A C12A 1_555 1_555
C21A C22A 1_555 1_555
C27A C28A 1_555 1_555
C37A C38A 1_555 1_555
N3A C44A 1_555 1_555
C50A C51A 1_555 1_555
C53A C54A 1_555 1_555
C59A C60A 1_555 1_555

#END
