
#######################################################################
#
#                 Cambridge Crystallographic Data Centre
#                                CCDC 
#
#######################################################################
#
# If this CIF has been generated from an entry in the Cambridge 
# Structural Database, then it will include bibliographic, chemical, 
# crystal, experimental, refinement or atomic coordinate data resulting 
# from the CCDC's data processing and validation procedures.
#
#######################################################################

data_NIXZEZ
_symmetry_cell_setting           monoclinic
_symmetry_space_group_name_H-M   'C 2/c'
_symmetry_Int_Tables_number      15
_space_group_name_Hall           '-C 2yn'
loop_
_symmetry_equiv_pos_site_id
_symmetry_equiv_pos_as_xyz
1 x,y,z
2 1/2+x,1/2+y,z
3 x,-y,1/2+z
4 1/2+x,1/2-y,1/2+z
5 -x,-y,-z
6 1/2-x,1/2-y,-z
7 -x,y,1/2-z
8 1/2-x,1/2+y,1/2-z
_cell_length_a                   19.362(3)
_cell_length_b                   11.0877(13)
_cell_length_c                   14.757(2)
_cell_angle_alpha                90
_cell_angle_beta                 113.693(9)
_cell_angle_gamma                90
_cell_volume                     2901.01
loop_
_atom_site_label
_atom_site_type_symbol
_atom_site_fract_x
_atom_site_fract_y
_atom_site_fract_z
Ni1 Ni 0.2500 0.2500 0.0000
O1 O 0.30623(7) 0.40358(11) 0.00502(10)
N1 N 0.30699(8) 0.17251(14) -0.08210(11)
C1 C 0.35354(10) 0.4252(2) -0.03273(13)
C2 C 0.38422(12) 0.5536(2) -0.0118(2)
F1 F 0.42913(8) 0.58441(12) -0.05677(10)
F2 F 0.42486(9) 0.57036(13) 0.08532(10)
F3 F 0.32880(9) 0.63443(12) -0.03920(14)
C3 C 0.37918(10) 0.3513(2) -0.08602(14)
H1 H 0.4147(12) 0.3827(20) -0.1069(16)
C4 C 0.35515(10) 0.2294(2) -0.10823(13)
C5 C 0.38928(11) 0.1530(2) -0.16540(15)
C6 C 0.47460(12) 0.1376(2) -0.1103(2)
H2 H 0.4931(15) 0.0727(24) -0.1413(19)
H3 H 0.5028(17) 0.2053(30) -0.1097(22)
H4 H 0.4876(14) 0.1167(23) -0.0414(20)
C7 C 0.3683(2) 0.1968(3) -0.2714(2)
H5 H 0.3142(18) 0.2071(27) -0.3044(21)
H6 H 0.3960(17) 0.2693(28) -0.2681(22)
H7 H 0.3886(16) 0.1358(27) -0.3016(21)
N2 N 0.35131(10) 0.0396(2) -0.16581(13)
O2 O 0.36447(9) -0.05767(15) -0.20195(13)
C8 C 0.29839(11) 0.0461(2) -0.11652(14)
C9 C 0.21900(12) 0.0203(2) -0.1926(2)
H8 H 0.1828(14) 0.0174(22) -0.1599(18)
H9 H 0.2036(13) 0.0828(23) -0.2412(18)
H10 H 0.2187(14) -0.0548(24) -0.2246(19)
C10 C 0.32354(13) -0.0430(2) -0.0307(2)
H11 H 0.3717(16) -0.0236(24) 0.0116(20)
H12 H 0.3263(15) -0.1211(26) -0.0585(20)
H13 H 0.2907(14) -0.0375(22) 0.0011(18)
O3 O 0.33824(7) 0.19418(14) 0.13305(10)
H14 H 0.3307(13) 0.1564(23) 0.1715(18)
C11 C 0.41828(10) 0.1987(2) 0.15807(14)
H15 H 0.4241(13) 0.2165(22) 0.0991(19)
H16 H 0.4409(13) 0.1198(22) 0.1793(16)
C12 C 0.45717(11) 0.2926(2) 0.2353(2)
H17 H 0.4366(14) 0.3715(23) 0.2077(18)
H18 H 0.4463(13) 0.2776(22) 0.2918(18)
O1E O 0.19377(7) 0.09642(11) -0.00502(10)
C1E C 0.14646(10) 0.0748(2) 0.03273(13)
C2E C 0.11578(12) -0.0536(2) 0.0118(2)
F1E F 0.07087(8) -0.08441(12) 0.05677(10)
F2E F 0.07514(9) -0.07036(13) -0.08532(10)
F3E F 0.17120(9) -0.13443(12) 0.03920(14)
C3E C 0.12082(10) 0.1487(2) 0.08602(14)
H1E H 0.0853(12) 0.1173(20) 0.1069(16)
C4E C 0.14485(10) 0.2706(2) 0.10823(13)
N1E N 0.19301(8) 0.32749(14) 0.08210(11)
C12F C 0.54283(11) 0.2926(2) 0.2647(2)
C11F C 0.58172(10) 0.1987(2) 0.34193(14)
O3F O 0.66176(7) 0.19418(14) 0.36695(10)
Ni1F Ni 0.7500 0.2500 0.5000
H14F H 0.6693(13) 0.1564(23) 0.3285(18)
H15F H 0.5759(13) 0.2165(22) 0.4009(19)
H16F H 0.5591(13) 0.1198(22) 0.3207(16)
H17F H 0.5634(14) 0.3715(23) 0.2923(18)
H18F H 0.5537(13) 0.2776(22) 0.2082(18)
O3E O 0.16176(7) 0.30582(14) -0.13305(10)
H14E H 0.1693(13) 0.3436(23) -0.1715(18)
C8E C 0.20161(11) 0.4539(2) 0.11652(14)
N2E N 0.14869(10) 0.4604(2) 0.16581(13)
C5E C 0.11072(11) 0.3470(2) 0.16540(15)
C6E C 0.02540(12) 0.3624(2) 0.1103(2)
H2E H 0.0069(15) 0.4273(24) 0.1413(19)
H3E H -0.0028(17) 0.2947(30) 0.1097(22)
H4E H 0.0124(14) 0.3833(23) 0.0414(20)
C7E C 0.1317(2) 0.3032(3) 0.2714(2)
H5E H 0.1858(18) 0.2929(27) 0.3044(21)
H6E H 0.1040(17) 0.2307(28) 0.2681(22)
H7E H 0.1114(16) 0.3642(27) 0.3016(21)
O2E O 0.13553(9) 0.55767(15) 0.20195(13)
C9E C 0.28100(12) 0.4797(2) 0.1926(2)
H8E H 0.3172(14) 0.4826(22) 0.1599(18)
H9E H 0.2964(13) 0.4172(23) 0.2412(18)
H10E H 0.2813(14) 0.5548(24) 0.2246(19)
C10E C 0.17646(13) 0.5430(2) 0.0307(2)
H11E H 0.1283(16) 0.5236(24) -0.0116(20)
H12E H 0.1737(15) 0.6211(26) 0.0585(20)
H13E H 0.2093(14) 0.5375(22) -0.0011(18)
loop_
_geom_bond_atom_site_label_1
_geom_bond_atom_site_label_2
_geom_bond_site_symmetry_1
_geom_bond_site_symmetry_2
Ni1 O1 1_555 1_555
O1 C1 1_555 1_555
N1 Ni1 1_555 1_555
C1 C2 1_555 1_555
C2 F1 1_555 1_555
F2 C2 1_555 1_555
F3 C2 1_555 1_555
C3 C1 1_555 1_555
H1 C3 1_555 1_555
C4 N1 1_555 1_555
C5 C4 1_555 1_555
C6 C5 1_555 1_555
H2 C6 1_555 1_555
H3 C6 1_555 1_555
H4 C6 1_555 1_555
C7 C5 1_555 1_555
H5 C7 1_555 1_555
H6 C7 1_555 1_555
H7 C7 1_555 1_555
N2 C5 1_555 1_555
O2 N2 1_555 1_555
C8 N1 1_555 1_555
C9 C8 1_555 1_555
H8 C9 1_555 1_555
H9 C9 1_555 1_555
H10 C9 1_555 1_555
C10 C8 1_555 1_555
H11 C10 1_555 1_555
H12 C10 1_555 1_555
H13 C10 1_555 1_555
O3 Ni1 1_555 1_555
H14 O3 1_555 1_555
C11 O3 1_555 1_555
H15 C11 1_555 1_555
H16 C11 1_555 1_555
C12 C11 1_555 1_555
H17 C12 1_555 1_555
H18 C12 1_555 1_555
O1E Ni1 1_555 1_555
C1E O1E 1_555 1_555
C2E C1E 1_555 1_555
F1E C2E 1_555 1_555
F2E C2E 1_555 1_555
F3E C2E 1_555 1_555
C3E C1E 1_555 1_555
H1E C3E 1_555 1_555
C4E C3E 1_555 1_555
N1E Ni1 1_555 1_555
C12F C12 1_555 1_555
C11F C12F 1_555 1_555
O3F C11F 1_555 1_555
Ni1F O3F 1_555 1_555
H14F O3F 1_555 1_555
H15F C11F 1_555 1_555
H16F C11F 1_555 1_555
H17F C12F 1_555 1_555
H18F C12F 1_555 1_555
O3E Ni1 1_555 1_555
H14E O3E 1_555 1_555
C8E N1E 1_555 1_555
N2E C8E 1_555 1_555
C5E C4E 1_555 1_555
C6E C5E 1_555 1_555
H2E C6E 1_555 1_555
H3E C6E 1_555 1_555
H4E C6E 1_555 1_555
C7E C5E 1_555 1_555
H5E C7E 1_555 1_555
H6E C7E 1_555 1_555
H7E C7E 1_555 1_555
O2E N2E 1_555 1_555
C9E C8E 1_555 1_555
H8E C9E 1_555 1_555
H9E C9E 1_555 1_555
H10E C9E 1_555 1_555
C10E C8E 1_555 1_555
H11E C10E 1_555 1_555
H12E C10E 1_555 1_555
H13E C10E 1_555 1_555
C3 C4 1_555 1_555
N2 C8 1_555 1_555
C4E N1E 1_555 1_555
N2E C5E 1_555 1_555

#END
