
#######################################################################
#
#                 Cambridge Crystallographic Data Centre
#                                CCDC 
#
#######################################################################
#
# If this CIF has been generated from an entry in the Cambridge 
# Structural Database, then it will include bibliographic, chemical, 
# crystal, experimental, refinement or atomic coordinate data resulting 
# from the CCDC's data processing and validation procedures.
#
#######################################################################

data_NIYBII
_symmetry_cell_setting           triclinic
_symmetry_space_group_name_H-M   'P -1'
_symmetry_Int_Tables_number      2
_space_group_name_Hall           '-P 1'
loop_
_symmetry_equiv_pos_site_id
_symmetry_equiv_pos_as_xyz
1 x,y,z
2 -x,-y,-z
_cell_length_a                   11.9454(11)
_cell_length_b                   12.4652(11)
_cell_length_c                   24.378(2)
_cell_angle_alpha                90.54(2)
_cell_angle_beta                 101.50(2)
_cell_angle_gamma                118.10(3)
_cell_volume                     3115.28
loop_
_atom_site_label
_atom_site_type_symbol
_atom_site_fract_x
_atom_site_fract_y
_atom_site_fract_z
C1 C 0.1468(9) 0.8633(10) -0.1486(4)
C2 C 0.1128(11) 0.9418(10) -0.1774(4)
H1 H 0.0242 0.9238 -0.1871
C3 C 0.2071(11) 1.0461(11) -0.1922(4)
H2 H 0.1838 1.1008 -0.2118
C4 C 0.3394(11) 1.0726(10) -0.1782(4)
C5 C 0.4386(12) 1.1833(11) -0.1926(5)
H3 H 0.4164 1.2401 -0.2106
C6 C 0.5649(12) 1.2060(11) -0.1800(5)
H4 H 0.6307 1.2786 -0.1898
C7 C 0.5973(11) 1.1243(10) -0.1533(4)
H5 H 0.6862 1.1431 -0.1448
C8 C 0.5091(9) 1.0188(9) -0.1384(4)
H6 H 0.5354 0.9643 -0.1205
C9 C 0.3739(10) 0.9903(9) -0.1504(4)
C10 C 0.2745(9) 0.8836(9) -0.1367(4)
C11 C 0.2790(8) 0.7744(9) -0.1102(4)
C12 C 0.3637(9) 0.8066(9) -0.0515(4)
H7 H 0.4553 0.8566 -0.0530
H8 H 0.3518 0.7313 -0.0353
H9 H 0.3394 0.8527 -0.0281
C13 C 0.3105(9) 0.7065(9) -0.1532(4)
H10 H 0.3996 0.7587 -0.1575
H11 H 0.2489 0.6878 -0.1897
H12 H 0.3030 0.6302 -0.1396
C14 C 0.1318(8) 0.6925(9) -0.1092(4)
C15 C 0.0736(8) 0.5832(9) -0.0913(4)
H13 H -0.0170 0.5537 -0.0948
C16 C 0.1156(7) 0.5001(9) -0.0680(3)
C17 C 0.2343(8) 0.4859(9) -0.0549(4)
C18 C 0.1581(8) 0.3717(9) -0.0322(4)
C19 C 0.0435(7) 0.3867(8) -0.0485(4)
C20 C -0.0880(8) 0.3148(9) -0.0462(4)
C21 C -0.1791(8) 0.3593(9) -0.0584(4)
C22 C -0.1324(8) 0.1972(10) -0.0266(4)
C23 C -0.0758(9) 0.7032(10) -0.1382(4)
H14 H -0.0951 0.7723 -0.1390
H15 H -0.1036 0.6596 -0.1056
C24 C -0.1524(12) 0.6150(12) -0.1930(6)
H16 H -0.1057 0.6525 -0.2229
H17 H -0.1470 0.5390 -0.1873
C25 C -0.2825(15) 0.5812(16) -0.2141(7)
H18 H -0.2907 0.6565 -0.2163
H19 H -0.3324 0.5340 -0.1868
C26 C -0.3468(19) 0.5035(15) -0.2731(7)
H20 H -0.2960 0.5506 -0.3001
H21 H -0.3386 0.4282 -0.2706
C27 C -0.479(2) 0.4686(18) -0.2955(7)
H22 H -0.4878 0.5435 -0.2996
H23 H -0.5305 0.4230 -0.2683
C28 C -0.536(2) 0.3920(18) -0.3506(8)
H24 H -0.4816 0.4367 -0.3769
H25 H -0.5293 0.3165 -0.3458
C29 C -0.671(2) 0.356(2) -0.3774(8)
H26 H -0.7264 0.3037 -0.3529
H27 H -0.6799 0.4310 -0.3785
C30 C -0.720(2) 0.293(2) -0.4323(9)
H28 H -0.7207 0.2138 -0.4310
H29 H -0.6612 0.3415 -0.4564
C31 C -0.870(3) 0.267(3) -0.4619(12)
H30 H -0.8746 0.3423 -0.4526
H31 H -0.8807 0.2568 -0.5033
C32 C -0.975(3) 0.171(3) -0.4492(10)
H32 H -0.9675 0.1825 -0.4082
H33 H -0.9702 0.0956 -0.4574
C33 C -1.103(2) 0.153(3) -0.4788(11)
H34 H -1.1090 0.2266 -0.4689
H35 H -1.1079 0.1461 -0.5198
C34 C -1.199(3) 0.062(3) -0.4694(17)
H36 H -1.2757 0.0423 -0.4999
H37 H -1.2154 0.0804 -0.4335
H38 H -1.1828 -0.0078 -0.4675
C35 C -0.1739(10) 0.3065(13) -0.3484(5)
C36 C -0.2351(11) 0.3401(15) -0.3970(5)
H39 H -0.3271 0.2995 -0.4110
C37 C -0.1540(12) 0.4330(13) -0.4218(5)
H40 H -0.1907 0.4566 -0.4545
C38 C -0.0195(11) 0.4955(11) -0.4014(5)
C39 C 0.0602(12) 0.5867(11) -0.4308(5)
H41 H 0.0226 0.6062 -0.4647
C40 C 0.1910(13) 0.6463(13) -0.4104(5)
H42 H 0.2451 0.7058 -0.4309
C41 C 0.2482(13) 0.6217(14) -0.3595(6)
H43 H 0.3399 0.6677 -0.3450
C42 C 0.1741(11) 0.5333(11) -0.3308(5)
H44 H 0.2146 0.5175 -0.2965
C43 C 0.0387(10) 0.4647(10) -0.3507(4)
C44 C -0.0466(10) 0.3638(10) -0.3248(4)
C45 C -0.0166(9) 0.3093(10) -0.2732(4)
C46 C 0.0800(9) 0.2616(10) -0.2765(4)
H45 H 0.0524 0.2113 -0.3128
H46 H 0.0817 0.2120 -0.2457
H47 H 0.1674 0.3311 -0.2732
C47 C 0.0280(12) 0.3966(11) -0.2197(4)
H48 H 0.1132 0.4671 -0.2191
H49 H 0.0350 0.3540 -0.1867
H50 H -0.0356 0.4250 -0.2189
C48 C -0.1501(9) 0.2030(11) -0.2743(4)
C49 C -0.1885(9) 0.1103(11) -0.2403(4)
H51 H -0.2772 0.0489 -0.2526
C50 C -0.1196(8) 0.0890(9) -0.1898(4)
C51 C 0.0037(9) 0.1373(9) -0.1486(4)
C52 C -0.0614(8) 0.0341(8) -0.1148(4)
C53 C -0.1778(8) -0.0120(9) -0.1593(4)
C54 C -0.2978(9) -0.1172(9) -0.1680(4)
C55 C -0.3922(9) -0.1570(10) -0.2201(5)
C56 C -0.3309(8) -0.1885(10) -0.1229(4)
C57 C -0.3780(11) 0.1659(16) -0.3174(7)
H52 H -0.4035 0.2288 -0.3289
H53 H -0.3967 0.1438 -0.2801
C58 C -0.4467(15) 0.0531(17) -0.3617(8)
H54 H -0.4338 -0.0142 -0.3459
H55 H -0.4080 0.0731 -0.3950
C59 C -0.5933(15) 0.011(3) -0.3797(10)
H56 H -0.6060 0.0807 -0.3924
H57 H -0.6342 -0.0546 -0.4118
C60 C -0.6595(18) -0.036(4) -0.3308(11)
H58 H -0.6179 0.0277 -0.2980
H59 H -0.6521 -0.1091 -0.3192
C61 C -0.8052(19) -0.071(4) -0.3522(16)
H60 H -0.8155 0.0030 -0.3486
H61 H -0.8360 -0.1053 -0.3924
C62 C -0.885(2) -0.166(4) -0.3167(15)
H62 H -0.8667 -0.1253 -0.2784
H63 H -0.8588 -0.2299 -0.3133
C63 C -1.0322(19) -0.225(3) -0.3431(18)
H64 H -1.0541 -0.2803 -0.3774
H65 H -1.0815 -0.2742 -0.3161
C64 C -1.073(2) -0.127(3) -0.3584(19)
H66 H -1.0598 -0.1048 -0.3965
H67 H -1.0179 -0.0521 -0.3311
C65 C -1.217(2) -0.177(4) -0.3574(14)
H68 H -1.2367 -0.2265 -0.3256
H69 H -1.2349 -0.1084 -0.3518
C66 C -1.305(2) -0.257(4) -0.4130(13)
H70 H -1.2952 -0.3313 -0.4166
H71 H -1.2795 -0.2111 -0.4452
C67 C -1.449(2) -0.295(4) -0.4142(13)
H72 H -1.4591 -0.2217 -0.4100
H73 H -1.4757 -0.3436 -0.3827
C68 C -1.534(3) -0.373(4) -0.4710(14)
H74 H -1.6248 -0.3944 -0.4734
H75 H -1.5270 -0.4483 -0.4738
H76 H -1.5035 -0.3262 -0.5020
N1 N 0.0654(7) 0.7508(8) -0.1314(3)
N2 N -0.2529(7) 0.3945(7) -0.0686(3)
N3 N -0.1692(7) 0.1005(8) -0.0133(3)
N4 N -0.2370(7) 0.2086(11) -0.3170(4)
N5 N -0.4694(9) -0.1930(10) -0.2622(4)
N6 N -0.3573(6) -0.2410(7) -0.0847(4)
O1 O 0.3489(5) 0.5422(6) -0.0572(3)
O2 O 0.1823(5) 0.2942(6) -0.0083(2)
O3 O 0.1164(5) 0.2243(6) -0.1412(2)
O4 O -0.0286(5) -0.0009(5) -0.0701(2)
O5 O 0.3013(5) 0.1813(6) -0.0592(2)
O6 O -0.4594(5) -0.5477(5) -0.0634(2)
Na1 Na 0.1593(3) 0.0940(3) 0.00244(14)
Na2 Na -0.4245(3) -0.3661(3) -0.01033(15)
N3A N 0.1692(7) -0.1005(8) 0.0133(3)
N6A N 0.3573(6) 0.2410(7) 0.0847(4)
O1_2 O -0.6511(5) -0.4578(6) -0.0572(3)
O2A O -0.1823(5) -0.2942(6) 0.0083(2)
O4A O 0.0286(5) 0.0009(5) 0.0701(2)
O5A O -0.3013(5) -0.1813(6) 0.0592(2)
O6A O -0.5406(5) -0.4523(5) 0.0634(2)
Na1A Na -0.1593(3) -0.0940(3) -0.00244(14)
Na2_2 Na 0.5755(3) 0.6339(3) -0.01033(15)
Na2A Na -0.5755(3) -0.6339(3) 0.01033(15)
Na2A_2 Na 0.4245(3) 0.3661(3) 0.01033(15)
O7 O 0.3524(7) 0.4160(9) -0.1640(3)
C69? C -0.3582(13) 0.0910(17) -0.3459(8)
H77? H -0.3459 0.0190 -0.3381
H78? H -0.3774 0.0928 -0.3872
C70? C -0.4684(15) 0.086(3) -0.3215(12)
H79? H -0.4674 0.1653 -0.3231
H80? H -0.4532 0.0719 -0.2814
C71? C -0.6035(14) -0.017(3) -0.3532(12)
H81? H -0.6263 0.0010 -0.3921
H82? H -0.6048 -0.0967 -0.3549
C72? C -0.6997(17) -0.018(4) -0.3191(14)
H83? H -0.6851 -0.0494 -0.2826
H84? H -0.6856 0.0657 -0.3114
C73? C -0.8397(17) -0.102(4) -0.3532(18)
H85? H -0.8674 -0.1878 -0.3465
H86? H -0.8438 -0.0962 -0.3939
C74? C -0.931(2) -0.061(3) -0.3348(19)
H87? H -0.9115 0.0212 -0.3461
H88? H -0.9193 -0.0560 -0.2933
C75? C -1.0723(19) -0.156(4) -0.3638(18)
H89? H -1.0945 -0.1376 -0.4026
H90? H -1.0803 -0.2387 -0.3661
C76? C -1.168(2) -0.153(5) -0.3303(13)
H91? H -1.1501 -0.0683 -0.3222
H92? H -1.1573 -0.1867 -0.2941
C77? C -1.307(2) -0.233(4) -0.3666(17)
H93? H -1.3178 -0.3113 -0.3821
H94? H -1.3716 -0.2505 -0.3432
C78? C -1.331(2) -0.162(4) -0.4149(15)
H95? H -1.2770 -0.1563 -0.4418
H96? H -1.3060 -0.0779 -0.3996
C79? C -1.477(2) -0.230(4) -0.4452(17)
H97? H -1.5008 -0.3122 -0.4623
H98? H -1.5311 -0.2390 -0.4180
C80? C -1.498(4) -0.153(4) -0.4911(16)
H99? H -1.5906 -0.1932 -0.5105
H100? H -1.4456 -0.1468 -0.5184
H101? H -1.4718 -0.0712 -0.4738
loop_
_geom_bond_atom_site_label_1
_geom_bond_atom_site_label_2
_geom_bond_site_symmetry_1
_geom_bond_site_symmetry_2
C1 C2 1_555 1_555
C2 H1 1_555 1_555
C3 C2 1_555 1_555
H2 C3 1_555 1_555
C4 C3 1_555 1_555
C5 C4 1_555 1_555
H3 C5 1_555 1_555
C6 C5 1_555 1_555
H4 C6 1_555 1_555
C7 C6 1_555 1_555
H5 C7 1_555 1_555
C8 C7 1_555 1_555
H6 C8 1_555 1_555
C9 C4 1_555 1_555
C10 C1 1_555 1_555
C11 C10 1_555 1_555
C12 C11 1_555 1_555
H7 C12 1_555 1_555
H8 C12 1_555 1_555
H9 C12 1_555 1_555
C13 C11 1_555 1_555
H10 C13 1_555 1_555
H11 C13 1_555 1_555
H12 C13 1_555 1_555
C14 C11 1_555 1_555
C15 C14 1_555 1_555
H13 C15 1_555 1_555
C16 C15 1_555 1_555
C17 C16 1_555 1_555
C18 C17 1_555 1_555
C19 C16 1_555 1_555
C20 C19 1_555 1_555
C21 C20 1_555 1_555
C22 C20 1_555 1_555
C23 H14 1_555 1_555
H15 C23 1_555 1_555
C24 C23 1_555 1_555
H16 C24 1_555 1_555
H17 C24 1_555 1_555
C25 C24 1_555 1_555
H18 C25 1_555 1_555
H19 C25 1_555 1_555
C26 C25 1_555 1_555
H20 C26 1_555 1_555
H21 C26 1_555 1_555
C27 C26 1_555 1_555
H22 C27 1_555 1_555
H23 C27 1_555 1_555
C28 C27 1_555 1_555
H24 C28 1_555 1_555
H25 C28 1_555 1_555
C29 C28 1_555 1_555
H26 C29 1_555 1_555
H27 C29 1_555 1_555
C30 C29 1_555 1_555
H28 C30 1_555 1_555
H29 C30 1_555 1_555
C31 C30 1_555 1_555
H30 C31 1_555 1_555
H31 C31 1_555 1_555
C32 C31 1_555 1_555
H32 C32 1_555 1_555
H33 C32 1_555 1_555
C33 C32 1_555 1_555
H34 C33 1_555 1_555
H35 C33 1_555 1_555
C34 C33 1_555 1_555
H36 C34 1_555 1_555
H37 C34 1_555 1_555
H38 C34 1_555 1_555
C35 C36 1_555 1_555
C36 H39 1_555 1_555
C37 C36 1_555 1_555
H40 C37 1_555 1_555
C38 C37 1_555 1_555
C39 C38 1_555 1_555
H41 C39 1_555 1_555
C40 C39 1_555 1_555
H42 C40 1_555 1_555
C41 C40 1_555 1_555
H43 C41 1_555 1_555
C42 C41 1_555 1_555
H44 C42 1_555 1_555
C43 C38 1_555 1_555
C44 C35 1_555 1_555
C45 C44 1_555 1_555
C46 C45 1_555 1_555
H45 C46 1_555 1_555
H46 C46 1_555 1_555
H47 C46 1_555 1_555
C47 C45 1_555 1_555
H48 C47 1_555 1_555
H49 C47 1_555 1_555
H50 C47 1_555 1_555
C48 C45 1_555 1_555
C49 C48 1_555 1_555
H51 C49 1_555 1_555
C50 C49 1_555 1_555
C51 C50 1_555 1_555
C52 C51 1_555 1_555
C53 C50 1_555 1_555
C54 C53 1_555 1_555
C55 C54 1_555 1_555
C56 C54 1_555 1_555
C57 H52 1_555 1_555
H53 C57 1_555 1_555
C58 C57 1_555 1_555
H54 C58 1_555 1_555
H55 C58 1_555 1_555
C59 C58 1_555 1_555
H56 C59 1_555 1_555
H57 C59 1_555 1_555
C60 C59 1_555 1_555
H58 C60 1_555 1_555
H59 C60 1_555 1_555
C61 C60 1_555 1_555
H60 C61 1_555 1_555
H61 C61 1_555 1_555
C62 C61 1_555 1_555
H62 C62 1_555 1_555
H63 C62 1_555 1_555
C63 C62 1_555 1_555
H64 C63 1_555 1_555
H65 C63 1_555 1_555
C64 C63 1_555 1_555
H66 C64 1_555 1_555
H67 C64 1_555 1_555
C65 C64 1_555 1_555
H68 C65 1_555 1_555
H69 C65 1_555 1_555
C66 C65 1_555 1_555
H70 C66 1_555 1_555
H71 C66 1_555 1_555
C67 C66 1_555 1_555
H72 C67 1_555 1_555
H73 C67 1_555 1_555
C68 C67 1_555 1_555
H74 C68 1_555 1_555
H75 C68 1_555 1_555
H76 C68 1_555 1_555
N1 C1 1_555 1_555
N2 C21 1_555 1_555
N3 C22 1_555 1_555
N4 C35 1_555 1_555
N5 C55 1_555 1_555
N6 C56 1_555 1_555
O1 C17 1_555 1_555
O2 C18 1_555 1_555
O3 C51 1_555 1_555
O4 C52 1_555 1_555
O5 Na1 1_555 1_555
O6 Na2 1_555 1_555
Na1 O2 1_555 1_555
Na2 N6 1_555 1_555
N3A Na1 1_555 1_555
N6A Na1 1_555 1_555
O1_2 Na2 1_555 1_555
O2A Na2 1_555 1_555
O4A Na1 1_555 1_555
O5A Na2 1_555 1_555
O6A Na2 1_555 1_555
Na1A N3 1_555 1_555
Na2_2 O1 1_555 1_555
Na2A O6 1_555 1_555
Na2A_2 O2 1_555 1_555
C8 C9 1_555 1_555
C9 C10 1_555 1_555
C14 N1 1_555 1_555
C18 C19 1_555 1_555
C23 N1 1_555 1_555
C42 C43 1_555 1_555
C43 C44 1_555 1_555
C48 N4 1_555 1_555
C52 C53 1_555 1_555
C57 N4 1_555 1_555
N6 Na1A 1_555 1_555
O4 Na1 1_555 1_555
O4 Na1A 1_555 1_555
O5 Na2A_2 1_555 1_555
N6A Na2A_2 1_555 1_555
O2A Na1A 1_555 1_555
O4A Na1A 1_555 1_555
O5A Na1A 1_555 1_555
O6A Na2A 1_555 1_555

#END
