
#######################################################################
#
#                 Cambridge Crystallographic Data Centre
#                                CCDC 
#
#######################################################################
#
# If this CIF has been generated from an entry in the Cambridge 
# Structural Database, then it will include bibliographic, chemical, 
# crystal, experimental, refinement or atomic coordinate data resulting 
# from the CCDC's data processing and validation procedures.
#
#######################################################################

data_NIYCOP
_symmetry_cell_setting           orthorhombic
_symmetry_space_group_name_H-M   'C 2 2 21'
_symmetry_Int_Tables_number      20
_space_group_name_Hall           'C 2n 2'
loop_
_symmetry_equiv_pos_site_id
_symmetry_equiv_pos_as_xyz
1 x,y,z
2 -x,-y,1/2+z
3 -x,y,1/2-z
4 x,-y,-z
5 1/2+x,1/2+y,z
6 1/2-x,1/2-y,1/2+z
7 1/2-x,1/2+y,1/2-z
8 1/2+x,1/2-y,-z
_cell_length_a                   8.3339(3)
_cell_length_b                   18.0840(7)
_cell_length_c                   22.1394(9)
_cell_angle_alpha                90
_cell_angle_beta                 90
_cell_angle_gamma                90
_cell_volume                     3336.63
loop_
_atom_site_label
_atom_site_type_symbol
_atom_site_fract_x
_atom_site_fract_y
_atom_site_fract_z
U1 U 0.028911(19) 0.099544(8) 0.628933(7)
O1 O 0.1252(5) 0.0819(2) 0.69842(17)
O2 O -0.0635(4) 0.11611(19) 0.55826(16)
O3 O -0.0779(4) -0.02742(16) 0.62714(19)
O4 O -0.2507(4) 0.0941(2) 0.67336(15)
O5 O -0.3373(4) -0.27821(17) 0.61890(19)
O6 O -0.1173(4) 0.1985(2) 0.67698(17)
O7 O -0.1989(5) -0.37297(18) 0.58812(17)
O8 O 0.1631(4) -0.01294(19) 0.58853(18)
C1 C 0.0443(6) -0.0549(2) 0.6019(2)
C2 C -0.2423(6) 0.1622(3) 0.6900(2)
C3 C -0.2082(6) -0.3040(3) 0.5982(2)
C4 C -0.3752(6) 0.1992(3) 0.7225(2)
C5 C 0.0512(6) -0.1351(2) 0.5864(2)
C6 C -0.0704(5) -0.2555(2) 0.5842(2)
C7 C -0.5000 0.1606(3) 0.7500
H1 H -0.5000 0.1091 0.7500
C8 C -0.0798(6) -0.1802(2) 0.5975(2)
H2 H -0.1733 -0.1605 0.6138
C9 C 0.1889(6) -0.1648(3) 0.5605(2)
H3 H 0.2747 -0.1339 0.5512
C10 C -0.3751(7) 0.2758(3) 0.7233(2)
H4 H -0.2906 0.3017 0.7058
C11 C 0.0693(6) -0.2836(2) 0.5598(2)
H5 H 0.0758 -0.3338 0.5508
C12 C 0.1998(7) -0.2384(3) 0.5486(2)
H6 H 0.2942 -0.2582 0.5330
C13 C -0.5000 0.3140(4) 0.7500
H7 H -0.5000 0.3654 0.7500
O4B O -0.7493(4) 0.0941(2) 0.82664(15)
O6B O -0.8827(4) 0.1985(2) 0.82302(17)
C2B C -0.7577(6) 0.1622(3) 0.8100(2)
C4B C -0.6248(6) 0.1992(3) 0.7775(2)
C10B C -0.6249(7) 0.2758(3) 0.7767(2)
H4B H -0.7094 0.3017 0.7942
U1B U -1.028911(19) 0.099544(8) 0.871067(7)
O1B O -1.1252(5) 0.0819(2) 0.80158(17)
O2B O -0.9365(4) 0.11611(19) 0.94174(16)
O3B O -0.9221(4) -0.02742(16) 0.87286(19)
O5B O -0.6627(4) -0.27821(17) 0.88110(19)
O7B O -0.8011(5) -0.37297(18) 0.91188(17)
O8B O -1.1631(4) -0.01294(19) 0.91147(18)
C1B C -1.0443(6) -0.0549(2) 0.8981(2)
C3B C -0.7918(6) -0.3040(3) 0.9018(2)
C5B C -1.0512(6) -0.1351(2) 0.9136(2)
C6B C -0.9296(5) -0.2555(2) 0.9158(2)
C8B C -0.9202(6) -0.1802(2) 0.9025(2)
H2B H -0.8267 -0.1605 0.8862
C9B C -1.1889(6) -0.1648(3) 0.9395(2)
H3B H -1.2747 -0.1339 0.9488
C11B C -1.0693(6) -0.2836(2) 0.9402(2)
H5B H -1.0758 -0.3338 0.9492
C12B C -1.1998(7) -0.2384(3) 0.9514(2)
H6B H -1.2942 -0.2582 0.9670
U1D U -0.471089(19) -0.400456(8) 0.628933(7)
U1F U -0.528911(19) -0.400456(8) 0.871067(7)
O5D O 0.1627(4) 0.22179(17) 0.61890(19)
O5F O -1.1627(4) 0.22179(17) 0.88110(19)
O7D O 0.3011(5) 0.12703(18) 0.58812(17)
O7F O -1.3011(5) 0.12703(18) 0.91188(17)
N1 N 0.5182(7) 1.0017(3) 0.6112(2)
H8 H 0.4368 1.0331 0.6068
H9 H 0.5841 1.0182 0.6398
H10 H 0.4807 0.9575 0.6216
C14 C 0.6051(8) 0.9957(4) 0.5544(4)
H11 H 0.6624 0.9490 0.5538
H12 H 0.6840 1.0350 0.5524
C15 C 0.4998(9) 1.0000 0.5000
H13 H 0.4317 1.0434 0.5023
H13C H 0.4317 0.9566 0.4977
N1C N 0.5182(7) 0.9983(3) 0.3888(2)
H8C H 0.4368 0.9669 0.3932
H9C H 0.5841 0.9818 0.3602
H10C H 0.4807 1.0425 0.3784
C14C C 0.6051(8) 1.0043(4) 0.4456(4)
H11C H 0.6624 1.0510 0.4462
H12C H 0.6840 0.9650 0.4476
O9 O 0.5255(10) 0.8567(3) 0.6638(3)
O10 O 0.8068(13) 0.4525(5) 0.7415(5)
H14? H 0.4317 1.0434 0.5023
loop_
_geom_bond_atom_site_label_1
_geom_bond_atom_site_label_2
_geom_bond_site_symmetry_1
_geom_bond_site_symmetry_2
U1 O1 1_555 1_555
O2 U1 1_555 1_555
O3 U1 1_555 1_555
O4 U1 1_555 1_555
O5 C3 1_555 1_555
O6 U1 1_555 1_555
O7 C3 1_555 1_555
O8 U1 1_555 1_555
C1 O3 1_555 1_555
C2 O4 1_555 1_555
C3 C6 1_555 1_555
C4 C2 1_555 1_555
C5 C1 1_555 1_555
C6 C8 1_555 1_555
C7 C4 1_555 1_555
H1 C7 1_555 1_555
C8 C5 1_555 1_555
H2 C8 1_555 1_555
C9 C5 1_555 1_555
H3 C9 1_555 1_555
C10 C4 1_555 1_555
H4 C10 1_555 1_555
C11 C6 1_555 1_555
H5 C11 1_555 1_555
C12 C9 1_555 1_555
H6 C12 1_555 1_555
C13 C10 1_555 1_555
H7 C13 1_555 1_555
N1 H8 1_555 1_555
H9 N1 1_555 1_555
H10 N1 1_555 1_555
C14 N1 1_555 1_555
H11 C14 1_555 1_555
H12 C14 1_555 1_555
C15 C14 1_555 1_555
H13 C15 1_555 1_555
O4B C2B 1_555 1_555
O6B C2B 1_555 1_555
C2B C4B 1_555 1_555
C4B C7 1_555 1_555
C10B C13 1_555 1_555
H4B C10B 1_555 1_555
U1B O4B 1_555 1_555
O1B U1B 1_555 1_555
O2B U1B 1_555 1_555
O3B U1B 1_555 1_555
O5B C3B 1_555 1_555
O7B C3B 1_555 1_555
O8B U1B 1_555 1_555
C1B O3B 1_555 1_555
C3B C6B 1_555 1_555
C5B C1B 1_555 1_555
C6B C8B 1_555 1_555
C8B C5B 1_555 1_555
H2B C8B 1_555 1_555
C9B C5B 1_555 1_555
H3B C9B 1_555 1_555
C11B C6B 1_555 1_555
H5B C11B 1_555 1_555
C12B C9B 1_555 1_555
H6B C12B 1_555 1_555
U1D O5 1_555 1_555
U1F O5B 1_555 1_555
O5D U1 1_555 1_555
O5F U1B 1_555 1_555
O7D U1 1_555 1_555
O7F U1B 1_555 1_555
H13C C15 1_555 1_555
N1C H8C 1_555 1_555
H9C N1C 1_555 1_555
H10C N1C 1_555 1_555
C14C C15 1_555 1_555
H11C C14C 1_555 1_555
H12C C14C 1_555 1_555
O6 C2 1_555 1_555
O7 U1D 1_555 1_555
O8 C1 1_555 1_555
C11 C12 1_555 1_555
O6B U1B 1_555 1_555
C4B C10B 1_555 1_555
O7B U1F 1_555 1_555
O8B C1B 1_555 1_555
C11B C12B 1_555 1_555
N1C C14C 1_555 1_555

#END
