
#######################################################################
#
#                 Cambridge Crystallographic Data Centre
#                                CCDC 
#
#######################################################################
#
# If this CIF has been generated from an entry in the Cambridge 
# Structural Database, then it will include bibliographic, chemical, 
# crystal, experimental, refinement or atomic coordinate data resulting 
# from the CCDC's data processing and validation procedures.
#
#######################################################################

data_NIYCEF
_symmetry_cell_setting           monoclinic
_symmetry_space_group_name_H-M   'P 2/c'
_symmetry_Int_Tables_number      13
_space_group_name_Hall           '-P 2yc'
loop_
_symmetry_equiv_pos_site_id
_symmetry_equiv_pos_as_xyz
1 x,y,z
2 -x,y,1/2-z
3 -x,-y,-z
4 x,-y,1/2+z
_cell_length_a                   14.7096(3)
_cell_length_b                   7.06790(10)
_cell_length_c                   15.0958(3)
_cell_angle_alpha                90
_cell_angle_beta                 100.7760(10)
_cell_angle_gamma                90
_cell_volume                     1541.77
loop_
_atom_site_label
_atom_site_type_symbol
_atom_site_fract_x
_atom_site_fract_y
_atom_site_fract_z
U1 U 1.051172(17) 0.72503(4) 0.880275(17)
U2 U 0.777342(18) 0.70363(4) 0.835122(19)
O1 O 0.9123(3) 0.7827(7) 0.9389(4)
O2 O 0.9135(3) 0.6440(7) 0.7674(3)
O3 O 1.0549(3) 0.4855(7) 0.9151(3)
O4 O 1.0956(4) 0.8363(8) 1.0351(3)
O5 O 1.0460(4) 0.9632(7) 0.8471(4)
O6 O 1.2129(4) 0.7279(9) 0.9142(4)
O7 O 1.7055(4) 0.7698(9) 0.9658(4)
O8 O 1.6154(4) 0.7002(9) 0.8367(4)
O9 O 0.7868(4) 0.4640(8) 0.8711(4)
O10 O 1.2843(4) 0.6104(9) 0.8104(4)
O11 O 0.7745(4) 0.9407(8) 0.8000(4)
C1 C 1.6236(5) 0.7385(12) 0.9204(5)
C2 C 1.2854(5) 0.6828(11) 0.8867(6)
C3 C 1.3770(5) 0.7172(10) 0.9471(6)
C4 C 1.5412(5) 0.7409(11) 0.9629(6)
C5 C 1.4567(5) 0.7068(10) 0.9092(6)
H1 H 1.4525 0.6774 0.8485
C6 C 1.3842(6) 0.7581(11) 1.0368(6)
H2 H 1.3311 0.7667 1.0617
C7 C 1.5475(5) 0.7793(11) 1.0530(6)
H3 H 1.6050 0.8006 1.0894
C8 C 1.4685(6) 0.7860(13) 1.0893(7)
H4 H 1.4729 0.8100 1.1505
U1A U 0.948828(17) 0.72503(4) 0.619725(17)
U2_2 U 1.777342(18) 0.70363(4) 0.835122(19)
U2A U 1.222658(18) 0.70363(4) 0.664878(19)
O2A O 1.0865(3) 0.6440(7) 0.7326(3)
O7_2 O 0.7055(4) 0.7698(9) 0.9658(4)
O8_2 O 0.6154(4) 0.7002(9) 0.8367(4)
O10A O 0.7157(4) 0.6104(9) 0.6896(4)
O12 O 0.8965(7) 0.2748(12) 0.7580(7)
loop_
_geom_bond_atom_site_label_1
_geom_bond_atom_site_label_2
_geom_bond_site_symmetry_1
_geom_bond_site_symmetry_2
U1 O1 1_555 1_555
U2 O1 1_555 1_555
O2 U1 1_555 1_555
O3 U1 1_555 1_555
O4 U1 1_555 1_555
O5 U1 1_555 1_555
O6 U1 1_555 1_555
O7 C1 1_555 1_555
O8 C1 1_555 1_555
O9 U2 1_555 1_555
O10 C2 1_555 1_555
O11 U2 1_555 1_555
C1 C4 1_555 1_555
C2 O6 1_555 1_555
C3 C2 1_555 1_555
C4 C5 1_555 1_555
C5 C3 1_555 1_555
H1 C5 1_555 1_555
C6 C3 1_555 1_555
H2 C6 1_555 1_555
C7 C4 1_555 1_555
H3 C7 1_555 1_555
C8 C6 1_555 1_555
H4 C8 1_555 1_555
U1A O2 1_555 1_555
U2_2 O7 1_555 1_555
U2A O10 1_555 1_555
O2A U1 1_555 1_555
O7_2 U2 1_555 1_555
O8_2 U2 1_555 1_555
O10A U2 1_555 1_555
U2 O2 1_555 1_555
O8 U2_2 1_555 1_555
C7 C8 1_555 1_555
U1A O2A 1_555 1_555
U2A O2A 1_555 1_555

#END
