
#######################################################################
#
#                 Cambridge Crystallographic Data Centre
#                                CCDC 
#
#######################################################################
#
# If this CIF has been generated from an entry in the Cambridge 
# Structural Database, then it will include bibliographic, chemical, 
# crystal, experimental, refinement or atomic coordinate data resulting 
# from the CCDC's data processing and validation procedures.
#
#######################################################################

data_NIYDAC
_symmetry_cell_setting           monoclinic
_symmetry_space_group_name_H-M   'P 21/n'
_symmetry_Int_Tables_number      14
_space_group_name_Hall           '-P 2yn'
loop_
_symmetry_equiv_pos_site_id
_symmetry_equiv_pos_as_xyz
1 x,y,z
2 1/2-x,1/2+y,1/2-z
3 -x,-y,-z
4 1/2+x,1/2-y,1/2+z
_cell_length_a                   7.2181(6)
_cell_length_b                   13.6858(11)
_cell_length_c                   9.2779(7)
_cell_angle_alpha                90
_cell_angle_beta                 92.580(2)
_cell_angle_gamma                90
_cell_volume                     915.593
loop_
_atom_site_label
_atom_site_type_symbol
_atom_site_fract_x
_atom_site_fract_y
_atom_site_fract_z
U1 U 0.000 0.000 0.000
O1 O 0.0820(6) -0.0275(3) 0.2647(4)
O2 O 0.3155(6) -0.0174(3) 0.1238(4)
C1 C 0.3837(8) -0.0142(5) 0.3785(5)
C2 C 0.2515(8) -0.0198(4) 0.2504(6)
C3 C 0.5747(8) -0.0177(4) 0.3644(5)
C4 C 0.3096(8) 0.0080(7) 0.5122(5)
O3 O 0.0219(7) 0.1243(3) 0.0184(5)
O4 O 0.7463(6) 0.0258(3) 0.1617(4)
O5 O 0.6665(7) -0.1309(4) 0.1944(5)
C5 C 0.6666(10) -0.0454(5) 0.2249(7)
H1 H 0.178198 0.016495 0.518508
O1B O 0.9180(6) 0.0275(3) 0.7353(4)
O2B O 0.6845(6) 0.0174(3) 0.8762(4)
C1B C 0.6163(8) 0.0142(5) 0.6215(5)
C2B C 0.7485(8) 0.0198(4) 0.7496(6)
C3B C 0.4253(8) 0.0177(4) 0.6356(5)
C4B C 0.6904(8) -0.0080(7) 0.4878(5)
O4B O 0.2537(6) -0.0258(3) 0.8383(4)
O5B O 0.3335(7) 0.1309(4) 0.8056(5)
C5B C 0.3334(10) 0.0454(5) 0.7751(7)
H1B H 0.821802 -0.016495 0.481492
O3B O -0.0219(7) -0.1243(3) -0.0184(5)
U1_2 U 0.000 0.000 1.000
U1_3 U 1.000 0.000 0.000
U1_4 U 1.000 0.000 1.000
O1B_2 O -0.0820(6) 0.0275(3) -0.2647(4)
O2B_2 O -0.3155(6) 0.0174(3) -0.1238(4)
O4_2 O -0.2537(6) 0.0258(3) 0.1617(4)
O4B_2 O 0.2537(6) -0.0258(3) -0.1617(4)
N1 N 0.4832(9) -0.1842(5) -0.0604(6)
C6 C 0.3710(14) -0.2551(6) 0.0111(10)
C7 C 0.5762(14) -0.2267(6) -0.1855(9)
H2 H 0.357954 -0.235745 0.109534
H3 H 0.250832 -0.258672 -0.037309
H4 H 0.42977 -0.317959 0.008474
H5 H 0.632946 -0.175362 -0.238615
H6 H 0.66952 -0.272198 -0.15167
H7 H 0.486268 -0.25988 -0.24717
H8 H 0.566281 -0.160647 0.00088
H9 H 0.41411 -0.135294 -0.0893
loop_
_geom_bond_atom_site_label_1
_geom_bond_atom_site_label_2
_geom_bond_site_symmetry_1
_geom_bond_site_symmetry_2
U1 O1 1_555 1_555
O1 C2 1_555 1_555
O2 U1 1_555 1_555
C1 C2 1_555 1_555
C2 O2 1_555 1_555
C3 C1 1_555 1_555
C4 C1 1_555 1_555
O3 U1 1_555 1_555
O4 C5 1_555 1_555
O5 C5 1_555 1_555
C5 C3 1_555 1_555
H1 C4 1_555 1_555
N1 C6 1_555 1_555
C6 H2 1_555 1_555
C7 N1 1_555 1_555
H3 C6 1_555 1_555
H4 C6 1_555 1_555
H5 C7 1_555 1_555
H6 C7 1_555 1_555
H7 C7 1_555 1_555
H8 N1 1_555 1_555
H9 N1 1_555 1_555
O1B C2B 1_555 1_555
O2B C2B 1_555 1_555
C1B C2B 1_555 1_555
C3B C4 1_555 1_555
C4B C3 1_555 1_555
O4B C5B 1_555 1_555
O5B C5B 1_555 1_555
C5B C3B 1_555 1_555
H1B C4B 1_555 1_555
O3B U1 1_555 1_555
U1_2 O4B 1_555 1_555
U1_3 O4 1_555 1_555
U1_4 O1B 1_555 1_555
O1B_2 U1 1_555 1_555
O2B_2 U1 1_555 1_555
O4_2 U1 1_555 1_555
O4B_2 U1 1_555 1_555
O2B U1_4 1_555 1_555
C1B C3B 1_555 1_555
C1B C4B 1_555 1_555

#END
