
#######################################################################
#
#                 Cambridge Crystallographic Data Centre
#                                CCDC 
#
#######################################################################
#
# If this CIF has been generated from an entry in the Cambridge 
# Structural Database, then it will include bibliographic, chemical, 
# crystal, experimental, refinement or atomic coordinate data resulting 
# from the CCDC's data processing and validation procedures.
#
#######################################################################

data_NIYDUV
_symmetry_cell_setting           monoclinic
_symmetry_space_group_name_H-M   'P 21/n'
_symmetry_Int_Tables_number      14
_space_group_name_Hall           '-P 2yn'
loop_
_symmetry_equiv_pos_site_id
_symmetry_equiv_pos_as_xyz
1 x,y,z
2 1/2-x,1/2+y,1/2-z
3 -x,-y,-z
4 1/2+x,1/2-y,1/2+z
_cell_length_a                   15.0268(12)
_cell_length_b                   12.1483(8)
_cell_length_c                   17.6156(9)
_cell_angle_alpha                90
_cell_angle_beta                 108.786(6)
_cell_angle_gamma                90
_cell_volume                     3044.42
loop_
_atom_site_label
_atom_site_type_symbol
_atom_site_fract_x
_atom_site_fract_y
_atom_site_fract_z
C1 C 0.00324(14) 0.36414(18) 0.85738(13)
H1 H -0.0175 0.4262 0.8224
H2 H -0.0253 0.3664 0.8989
H3 H -0.0146 0.2973 0.8272
C2 C 0.14591(13) 0.28949(15) 0.94287(11)
C3 C 0.15397(14) 0.12956(16) 1.01896(12)
H4 H 0.1201 0.0733 1.0329
C4 C 0.29048(13) 0.20816(15) 1.02977(10)
C5 C 0.46176(15) 0.17235(18) 1.10751(13)
H5 H 0.5203 0.2066 1.1103
H6 H 0.4618 0.0974 1.0904
H7 H 0.4540 0.1740 1.1595
C6 C 0.39198(14) 0.32375(16) 1.00826(12)
H8 H 0.4490 0.3563 1.0113
C7 C 0.24594(13) 0.28878(15) 0.97682(11)
C8 C 0.50247(14) 0.88715(18) 1.09765(13)
H9 H 0.5284 0.9495 1.1309
H10 H 0.5142 0.8942 1.0474
H11 H 0.5314 0.8210 1.1241
C9 C 0.35592(13) 0.80114(15) 1.03874(11)
C10 C 0.34092(14) 0.64146(16) 0.96084(12)
H12 H 0.3717 0.5903 0.9389
C11 C 0.21059(13) 0.70097(15) 0.98006(11)
C12 C 0.04193(14) 0.63627(17) 0.94031(13)
H13 H 0.0640 0.5786 0.9137
H14 H -0.0065 0.6772 0.9016
H15 H 0.0171 0.6047 0.9793
C13 C 0.11611(14) 0.80109(16) 1.02438(12)
H16 H 0.0618 0.8251 1.0338
C14 C 0.25762(13) 0.78808(15) 1.02429(11)
C15 C 0.30818(15) -0.10640(17) 1.27036(12)
H17 H 0.3270 -0.1702 1.2507
C16 C 0.29372(16) -0.11063(18) 1.34411(12)
H18 H 0.3027 -0.1760 1.3731
C17 C 0.26586(16) -0.01651(19) 1.37395(12)
H19 H 0.2549 -0.0175 1.4230
C18 C 0.25454(16) 0.07899(18) 1.32959(12)
H20 H 0.2369 0.1441 1.3485
C19 C 0.27000(15) 0.07593(17) 1.25605(12)
H21 H 0.2616 0.1404 1.2261
Li1 Li 0.2104(2) 0.4743(3) 0.88982(19)
Li2 Li 0.2968(2) -0.0258(3) 1.11011(19)
N1 N 0.31006(11) 0.36178(13) 0.96285(10)
N2 N 0.10523(11) 0.36788(13) 0.89327(10)
N3 N 0.10128(11) 0.20268(13) 0.96768(10)
N4 N 0.24762(11) 0.12272(13) 1.05421(9)
N5 N 0.38483(11) 0.23154(13) 1.05059(9)
N6 N 0.40135(12) 0.88224(13) 1.08330(10)
N7 N 0.19778(11) 0.85178(13) 1.05228(10)
N8 N 0.11933(11) 0.70933(13) 0.98015(10)
N9 N 0.24861(12) 0.62248(13) 0.94490(10)
N10 N 0.39574(11) 0.72122(14) 1.00275(10)
N11 N 0.29626(12) -0.01450(14) 1.22598(10)
N12 N 0.22526(13) 0.48815(14) 0.77909(10)
C20 C 0.23394(19) 0.58080(19) 0.74305(13)
H22 H 0.2319 0.6468 0.7691
C21 C 0.25012(18) 0.4887(2) 0.62950(13)
H23 H 0.2597 0.4892 0.5799
C22 C 0.2266(2) 0.3962(2) 0.73940(15)
H24 H 0.2181 0.3300 0.7627
C23 C 0.2460(2) 0.5847(2) 0.66856(15)
H25 H 0.2512 0.6521 0.6452
C24 C 0.2399(2) 0.3926(2) 0.66512(15)
H26 H 0.2417 0.3256 0.6402
Li2_2 Li 0.2968(2) 0.9742(3) 1.11011(19)
N6_2 N 0.40135(12) -0.11776(13) 1.08330(10)
N7_2 N 0.19778(11) -0.14822(13) 1.05228(10)
C25 C 0.5022(2) 0.5842(3) 0.18635(17)
H27 H 0.5068 0.6037 0.1367
N13 N 0.4816(2) 0.6433(3) 0.3087(2)
C26 C 0.4888(2) 0.6629(3) 0.2369(2)
H28 H 0.4844 0.7356 0.2196
C27 C 0.4894(3) 0.5413(5) 0.3309(2)
H29 H 0.4860 0.5249 0.3815
C28 C 0.5022(3) 0.4571(3) 0.2856(3)
H30 H 0.5067 0.3853 0.3049
C29 C 0.5088(3) 0.4782(3) 0.2093(2)
H31 H 0.5172 0.4220 0.1764
loop_
_geom_bond_atom_site_label_1
_geom_bond_atom_site_label_2
_geom_bond_site_symmetry_1
_geom_bond_site_symmetry_2
C1 H1 1_555 1_555
H2 C1 1_555 1_555
H3 C1 1_555 1_555
C2 C7 1_555 1_555
C3 H4 1_555 1_555
C4 C7 1_555 1_555
C5 H5 1_555 1_555
H6 C5 1_555 1_555
H7 C5 1_555 1_555
C6 H8 1_555 1_555
C7 N1 1_555 1_555
C8 H9 1_555 1_555
H10 C8 1_555 1_555
H11 C8 1_555 1_555
C9 C14 1_555 1_555
C10 H12 1_555 1_555
C11 C14 1_555 1_555
C12 H13 1_555 1_555
H14 C12 1_555 1_555
H15 C12 1_555 1_555
C13 H16 1_555 1_555
C14 N7 1_555 1_555
C15 H17 1_555 1_555
C16 C15 1_555 1_555
H18 C16 1_555 1_555
C17 C16 1_555 1_555
H19 C17 1_555 1_555
C18 C17 1_555 1_555
H20 C18 1_555 1_555
C19 C18 1_555 1_555
H21 C19 1_555 1_555
Li1 N1 1_555 1_555
Li2 N4 1_555 1_555
N1 C6 1_555 1_555
N2 C1 1_555 1_555
N3 C2 1_555 1_555
N4 C3 1_555 1_555
N5 C4 1_555 1_555
N6 C8 1_555 1_555
N7 C13 1_555 1_555
N8 C11 1_555 1_555
N9 C10 1_555 1_555
N10 C9 1_555 1_555
N11 C15 1_555 1_555
N12 Li1 1_555 1_555
C20 N12 1_555 1_555
H22 C20 1_555 1_555
C21 H23 1_555 1_555
C22 N12 1_555 1_555
H24 C22 1_555 1_555
C23 C20 1_555 1_555
H25 C23 1_555 1_555
C24 C21 1_555 1_555
H26 C24 1_555 1_555
C25 H27 1_555 1_555
N13 C26 1_555 1_555
C26 C25 1_555 1_555
H28 C26 1_555 1_555
C27 N13 1_555 1_555
H29 C27 1_555 1_555
C28 C27 1_555 1_555
H30 C28 1_555 1_555
C29 C25 1_555 1_555
H31 C29 1_555 1_555
Li2_2 N6 1_555 1_555
N6_2 Li2 1_555 1_555
N7_2 Li2 1_555 1_555
C2 N2 1_555 1_555
C3 N3 1_555 1_555
C4 N4 1_555 1_555
C5 N5 1_555 1_555
C6 N5 1_555 1_555
C9 N6 1_555 1_555
C10 N10 1_555 1_555
C11 N9 1_555 1_555
C12 N8 1_555 1_555
C13 N8 1_555 1_555
C19 N11 1_555 1_555
Li1 N2 1_555 1_555
Li1 N9 1_555 1_555
Li2 N11 1_555 1_555
N7 Li2_2 1_555 1_555
C21 C23 1_555 1_555
C22 C24 1_555 1_555
C28 C29 1_555 1_555

#END
