
#######################################################################
#
#                 Cambridge Crystallographic Data Centre
#                                CCDC 
#
#######################################################################
#
# If this CIF has been generated from an entry in the Cambridge 
# Structural Database, then it will include bibliographic, chemical, 
# crystal, experimental, refinement or atomic coordinate data resulting 
# from the CCDC's data processing and validation procedures.
#
#######################################################################

data_NIYJAI
_symmetry_cell_setting           monoclinic
_symmetry_space_group_name_H-M   'C 2/c'
_symmetry_Int_Tables_number      15
_space_group_name_Hall           '-C 2yn'
loop_
_symmetry_equiv_pos_site_id
_symmetry_equiv_pos_as_xyz
1 x,y,z
2 -x,y,1/2-z
3 1/2+x,1/2+y,z
4 1/2-x,1/2+y,1/2-z
5 -x,-y,-z
6 x,-y,1/2+z
7 1/2-x,1/2-y,-z
8 1/2+x,1/2-y,1/2+z
_cell_length_a                   27.1683(11)
_cell_length_b                   15.3846(5)
_cell_length_c                   19.2713(9)
_cell_angle_alpha                90
_cell_angle_beta                 98.162(2)
_cell_angle_gamma                90
_cell_volume                     7973.3
loop_
_atom_site_label
_atom_site_type_symbol
_atom_site_fract_x
_atom_site_fract_y
_atom_site_fract_z
Cd1 Cd 0.2500 0.7500 0.5000
Br1 Br 0.18388(2) 0.64376(4) 0.42336(3)
S1 S 0.5000 0.88248(11) 0.2500
C1 C 0.53018(16) 0.8135(3) 0.3163(3)
C2 C 0.50538(16) 0.7491(3) 0.3487(3)
C3 C 0.53214(17) 0.7008(3) 0.4027(3)
C4 C 0.58149(17) 0.7226(3) 0.4275(3)
H1 H 0.5993 0.6895 0.4645
C5 C 0.60506(17) 0.7921(3) 0.3991(3)
C6 C 0.57943(17) 0.8344(3) 0.3425(3)
H2 H 0.5956 0.8792 0.3204
O1 O 0.45509(12) 0.7359(2) 0.3299(2)
C7 C 0.42888(19) 0.7922(4) 0.3731(3)
H3 H 0.4360 0.8538 0.3635
H4 H 0.4404 0.7807 0.4233
C8 C 0.37373(18) 0.7756(4) 0.3570(3)
C9 C 0.34609(18) 0.7747(4) 0.4116(3)
H5 H 0.3630 0.7806 0.4580
N1 N 0.29627(16) 0.7657(3) 0.4027(3)
C10 C 0.2733(2) 0.7568(4) 0.3376(4)
H6 H 0.2382 0.7503 0.3303
C11 C 0.2982(2) 0.7566(6) 0.2802(4)
H7 H 0.2805 0.7508 0.2343
C12 C 0.3497(2) 0.7648(5) 0.2904(4)
H8 H 0.3678 0.7629 0.2517
C13 C 0.65810(19) 0.8188(4) 0.4305(3)
C14 C 0.6933(2) 0.7430(4) 0.4247(4)
H9 H 0.7275 0.7613 0.4413
H10 H 0.6908 0.7245 0.3756
H11 H 0.6844 0.6945 0.4534
C15 C 0.6768(2) 0.8973(4) 0.3919(4)
H12 H 0.6540 0.9463 0.3937
H13 H 0.6782 0.8817 0.3430
H14 H 0.7100 0.9137 0.4147
C16 C 0.6586(3) 0.8439(5) 0.5078(4)
H15 H 0.6437 0.7970 0.5322
H16 H 0.6395 0.8975 0.5106
H17 H 0.6930 0.8531 0.5298
S2 S 0.50367(5) 0.62185(9) 0.45109(7)
C17 C 0.47130(17) 0.5506(3) 0.3877(3)
C18 C 0.49685(17) 0.4967(3) 0.3474(3)
C19 C 0.46976(18) 0.4367(3) 0.3021(3)
C20 C 0.41910(18) 0.4283(3) 0.3012(3)
H18 H 0.4013 0.3875 0.2702
C21 C 0.39324(17) 0.4782(3) 0.3446(3)
C22 C 0.42005(17) 0.5412(3) 0.3857(3)
H19 H 0.4030 0.5790 0.4132
O2 O 0.54803(12) 0.5009(2) 0.3523(2)
C23 C 0.57046(19) 0.4376(4) 0.4017(3)
H20 H 0.5594 0.3787 0.3859
H21 H 0.5598 0.4481 0.4480
C24 C 0.62610(18) 0.4431(4) 0.4082(3)
C25 C 0.65373(19) 0.3726(4) 0.4343(3)
H22 H 0.6365 0.3207 0.4425
N2 N 0.70376(16) 0.3724(3) 0.4491(3)
C26 C 0.72732(19) 0.4449(4) 0.4340(3)
H23 H 0.7626 0.4466 0.4442
C27 C 0.7029(2) 0.5168(4) 0.4045(4)
H24 H 0.7211 0.5660 0.3926
C28 C 0.6513(2) 0.5168(4) 0.3922(4)
H25 H 0.6336 0.5666 0.3732
C29 C 0.3379(3) 0.4624(8) 0.3481(6)
C30 C 0.3350(3) 0.3907(8) 0.4025(6)
H26 H 0.3534 0.4087 0.4476
H27 H 0.3495 0.3371 0.3868
H28 H 0.3001 0.3804 0.4078
C31 C 0.3115(3) 0.4254(8) 0.2832(6)
H29 H 0.3255 0.3682 0.2750
H30 H 0.3152 0.4640 0.2439
H31 H 0.2761 0.4192 0.2875
C32 C 0.3121(3) 0.5377(8) 0.3760(6)
H32 H 0.3201 0.5911 0.3521
H33 H 0.3231 0.5435 0.4264
H34 H 0.2761 0.5281 0.3677
S3 S 0.5000 0.36429(12) 0.2500
C1A C 0.46982(16) 0.8135(3) 0.1837(3)
C2A C 0.49462(16) 0.7491(3) 0.1513(3)
C3A C 0.46786(17) 0.7008(3) 0.0973(3)
C4A C 0.41851(17) 0.7226(3) 0.0725(3)
H1A H 0.4007 0.6895 0.0355
C5A C 0.39494(17) 0.7921(3) 0.1009(3)
C6A C 0.42057(17) 0.8344(3) 0.1575(3)
H2A H 0.4044 0.8792 0.1796
O1A O 0.54491(12) 0.7359(2) 0.1701(2)
C7A C 0.57112(19) 0.7922(4) 0.1269(3)
H3A H 0.5640 0.8538 0.1365
H4A H 0.5596 0.7807 0.0767
C8A C 0.62627(18) 0.7756(4) 0.1430(3)
C9A C 0.65391(18) 0.7747(4) 0.0884(3)
H5A H 0.6370 0.7806 0.0420
N1A N 0.70373(16) 0.7657(3) 0.0973(3)
C10A C 0.7267(2) 0.7568(4) 0.1624(4)
H6A H 0.7618 0.7503 0.1697
C11A C 0.7018(2) 0.7566(6) 0.2198(4)
H7A H 0.7195 0.7508 0.2657
C12A C 0.6503(2) 0.7648(5) 0.2096(4)
H8A H 0.6322 0.7629 0.2483
C13A C 0.34190(19) 0.8188(4) 0.0695(3)
C14A C 0.3067(2) 0.7430(4) 0.0753(4)
H9A H 0.2725 0.7613 0.0587
H10A H 0.3092 0.7245 0.1244
H11A H 0.3156 0.6945 0.0466
C15A C 0.3232(2) 0.8973(4) 0.1081(4)
H12A H 0.3460 0.9463 0.1063
H13A H 0.3218 0.8817 0.1570
H14A H 0.2900 0.9137 0.0853
C16A C 0.3414(3) 0.8439(5) -0.0078(4)
H15A H 0.3563 0.7970 -0.0322
H16A H 0.3605 0.8975 -0.0106
H17A H 0.3070 0.8531 -0.0298
S2A S 0.49633(5) 0.62185(9) 0.04891(7)
C17A C 0.52870(17) 0.5506(3) 0.1123(3)
C18A C 0.50315(17) 0.4967(3) 0.1526(3)
C19A C 0.53024(18) 0.4367(3) 0.1979(3)
C20A C 0.58090(18) 0.4283(3) 0.1988(3)
H18A H 0.5987 0.3875 0.2298
C21A C 0.60676(17) 0.4782(3) 0.1554(3)
C22A C 0.57995(17) 0.5412(3) 0.1143(3)
H19A H 0.5970 0.5790 0.0868
O2A O 0.45197(12) 0.5009(2) 0.1477(2)
C23A C 0.42954(19) 0.4376(4) 0.0983(3)
H20A H 0.4406 0.3787 0.1141
H21A H 0.4402 0.4481 0.0520
C24A C 0.37390(18) 0.4431(4) 0.0918(3)
C25A C 0.34627(19) 0.3726(4) 0.0657(3)
H22A H 0.3635 0.3207 0.0575
N2A N 0.29624(16) 0.3724(3) 0.0509(3)
C26A C 0.27268(19) 0.4449(4) 0.0660(3)
H23A H 0.2374 0.4466 0.0558
C27A C 0.2971(2) 0.5168(4) 0.0955(4)
H24A H 0.2789 0.5660 0.1074
C28A C 0.3487(2) 0.5168(4) 0.1078(4)
H25A H 0.3664 0.5666 0.1268
C29A C 0.6621(3) 0.4624(8) 0.1519(6)
C30A C 0.6650(3) 0.3907(8) 0.0975(6)
H26A H 0.6466 0.4087 0.0524
H27A H 0.6505 0.3371 0.1132
H28A H 0.6999 0.3804 0.0922
C31A C 0.6885(3) 0.4254(8) 0.2168(6)
H29A H 0.6745 0.3682 0.2250
H30A H 0.6848 0.4640 0.2561
H31A H 0.7239 0.4192 0.2125
C32A C 0.6879(3) 0.5377(8) 0.1240(6)
H32A H 0.6799 0.5911 0.1479
H33A H 0.6769 0.5435 0.0736
H34A H 0.7239 0.5281 0.1323
Br1F Br 0.31612(2) 0.85624(4) 0.57664(3)
Cd1A Cd 0.7500 0.7500 0.0000
Cd1B Cd 0.7500 0.2500 0.5000
Cd1C Cd 0.2500 0.2500 0.0000
N1F N 0.20373(16) 0.7343(3) 0.5973(3)
N2B N 0.20376(16) 0.8724(3) 0.4491(3)
N2D N 0.29624(16) 0.6276(3) 0.5509(3)
C33 C 0.4464(4) 0.8874(7) 0.5842(5)
H35 H 0.4133 0.8729 0.5983
Cl1 Cl 0.4761(3) 0.7945(3) 0.5682(2)
Cl2 Cl 0.4793(3) 0.9486(5) 0.6474(5)
Cl3 Cl 0.4372(2) 0.9551(3) 0.5058(4)
C34 C 0.1515(4) 0.5946(6) 0.2403(5)
Cl4 Cl 0.1946(3) 0.6380(5) 0.1965(4)
Cl5 Cl 0.1328(8) 0.5003(6) 0.2057(7)
Cl6 Cl 0.1025(3) 0.6705(9) 0.2116(13)
Cl7? Cl 0.1977(5) 0.557(2) 0.1987(8)
Cl8? Cl 0.1376(12) 0.6852(6) 0.2089(9)
Cl9? Cl 0.1081(4) 0.5189(8) 0.2228(8)
loop_
_geom_bond_atom_site_label_1
_geom_bond_atom_site_label_2
_geom_bond_site_symmetry_1
_geom_bond_site_symmetry_2
Cd1 Br1 1_555 1_555
S1 C1 1_555 1_555
C1 C2 1_555 1_555
C2 C3 1_555 1_555
C3 C4 1_555 1_555
C4 H1 1_555 1_555
C5 C4 1_555 1_555
C6 C1 1_555 1_555
H2 C6 1_555 1_555
O1 C2 1_555 1_555
C7 O1 1_555 1_555
H3 C7 1_555 1_555
H4 C7 1_555 1_555
C8 C7 1_555 1_555
C9 C8 1_555 1_555
H5 C9 1_555 1_555
N1 Cd1 1_555 1_555
C10 N1 1_555 1_555
H6 C10 1_555 1_555
C11 C10 1_555 1_555
H7 C11 1_555 1_555
C12 C8 1_555 1_555
H8 C12 1_555 1_555
C13 C5 1_555 1_555
C14 C13 1_555 1_555
H9 C14 1_555 1_555
H10 C14 1_555 1_555
H11 C14 1_555 1_555
C15 C13 1_555 1_555
H12 C15 1_555 1_555
H13 C15 1_555 1_555
H14 C15 1_555 1_555
C16 C13 1_555 1_555
H15 C16 1_555 1_555
H16 C16 1_555 1_555
H17 C16 1_555 1_555
S2 C3 1_555 1_555
C17 S2 1_555 1_555
C18 C17 1_555 1_555
C19 C18 1_555 1_555
C20 C19 1_555 1_555
H18 C20 1_555 1_555
C21 C20 1_555 1_555
C22 C17 1_555 1_555
H19 C22 1_555 1_555
O2 C18 1_555 1_555
C23 O2 1_555 1_555
H20 C23 1_555 1_555
H21 C23 1_555 1_555
C24 C23 1_555 1_555
C25 C24 1_555 1_555
H22 C25 1_555 1_555
N2 C25 1_555 1_555
C26 N2 1_555 1_555
H23 C26 1_555 1_555
C27 C26 1_555 1_555
H24 C27 1_555 1_555
C28 C24 1_555 1_555
H25 C28 1_555 1_555
C29 C21 1_555 1_555
C30 C29 1_555 1_555
H26 C30 1_555 1_555
H27 C30 1_555 1_555
H28 C30 1_555 1_555
C31 C29 1_555 1_555
H29 C31 1_555 1_555
H30 C31 1_555 1_555
H31 C31 1_555 1_555
C32 C29 1_555 1_555
H32 C32 1_555 1_555
H33 C32 1_555 1_555
H34 C32 1_555 1_555
S3 C19 1_555 1_555
C33 H35 1_555 1_555
Cl1 C33 1_555 1_555
Cl2 C33 1_555 1_555
Cl3 C33 1_555 1_555
C34 Cl4 1_555 1_555
Cl5 C34 1_555 1_555
Cl6 C34 1_555 1_555
C1A S1 1_555 1_555
C2A C1A 1_555 1_555
C3A C2A 1_555 1_555
C4A C3A 1_555 1_555
H1A C4A 1_555 1_555
C5A C4A 1_555 1_555
C6A C1A 1_555 1_555
H2A C6A 1_555 1_555
O1A C2A 1_555 1_555
C7A O1A 1_555 1_555
H3A C7A 1_555 1_555
H4A C7A 1_555 1_555
C8A C7A 1_555 1_555
C9A C8A 1_555 1_555
H5A C9A 1_555 1_555
N1A C9A 1_555 1_555
C10A N1A 1_555 1_555
H6A C10A 1_555 1_555
C11A C10A 1_555 1_555
H7A C11A 1_555 1_555
C12A C8A 1_555 1_555
H8A C12A 1_555 1_555
C13A C5A 1_555 1_555
C14A C13A 1_555 1_555
H9A C14A 1_555 1_555
H10A C14A 1_555 1_555
H11A C14A 1_555 1_555
C15A C13A 1_555 1_555
H12A C15A 1_555 1_555
H13A C15A 1_555 1_555
H14A C15A 1_555 1_555
C16A C13A 1_555 1_555
H15A C16A 1_555 1_555
H16A C16A 1_555 1_555
H17A C16A 1_555 1_555
S2A C3A 1_555 1_555
C17A S2A 1_555 1_555
C18A C17A 1_555 1_555
C19A S3 1_555 1_555
C20A C19A 1_555 1_555
H18A C20A 1_555 1_555
C21A C20A 1_555 1_555
C22A C17A 1_555 1_555
H19A C22A 1_555 1_555
O2A C18A 1_555 1_555
C23A O2A 1_555 1_555
H20A C23A 1_555 1_555
H21A C23A 1_555 1_555
C24A C23A 1_555 1_555
C25A C24A 1_555 1_555
H22A C25A 1_555 1_555
N2A C25A 1_555 1_555
C26A N2A 1_555 1_555
H23A C26A 1_555 1_555
C27A C26A 1_555 1_555
H24A C27A 1_555 1_555
C28A C24A 1_555 1_555
H25A C28A 1_555 1_555
C29A C21A 1_555 1_555
C30A C29A 1_555 1_555
H26A C30A 1_555 1_555
H27A C30A 1_555 1_555
H28A C30A 1_555 1_555
C31A C29A 1_555 1_555
H29A C31A 1_555 1_555
H30A C31A 1_555 1_555
H31A C31A 1_555 1_555
C32A C29A 1_555 1_555
H32A C32A 1_555 1_555
H33A C32A 1_555 1_555
H34A C32A 1_555 1_555
Br1F Cd1 1_555 1_555
Cd1A N1A 1_555 1_555
Cd1B N2 1_555 1_555
Cd1C N2A 1_555 1_555
N1F Cd1 1_555 1_555
N2B Cd1 1_555 1_555
N2D Cd1 1_555 1_555
C5 C6 1_555 1_555
C9 N1 1_555 1_555
C11 C12 1_555 1_555
C21 C22 1_555 1_555
C27 C28 1_555 1_555
C5A C6A 1_555 1_555
C11A C12A 1_555 1_555
C18A C19A 1_555 1_555
C21A C22A 1_555 1_555
C27A C28A 1_555 1_555

#END
