
#######################################################################
#
#                 Cambridge Crystallographic Data Centre
#                                CCDC 
#
#######################################################################
#
# If this CIF has been generated from an entry in the Cambridge 
# Structural Database, then it will include bibliographic, chemical, 
# crystal, experimental, refinement or atomic coordinate data resulting 
# from the CCDC's data processing and validation procedures.
#
#######################################################################

data_NIYLAK
_symmetry_cell_setting           monoclinic
_symmetry_space_group_name_H-M   'P 2/c'
_symmetry_Int_Tables_number      13
_space_group_name_Hall           '-P 2yc'
loop_
_symmetry_equiv_pos_site_id
_symmetry_equiv_pos_as_xyz
1 x,y,z
2 -x,y,1/2-z
3 -x,-y,-z
4 x,-y,1/2+z
_cell_length_a                   19.9611(9)
_cell_length_b                   17.2003(9)
_cell_length_c                   21.6034(12)
_cell_angle_alpha                90
_cell_angle_beta                 102.324(3)
_cell_angle_gamma                90
_cell_volume                     7246.32
loop_
_atom_site_label
_atom_site_type_symbol
_atom_site_fract_x
_atom_site_fract_y
_atom_site_fract_z
P1 P 0.02248(11) 0.34916(13) 0.08827(11)
F1 F 0.1030(3) 0.3587(3) 0.1171(3)
F2 F -0.0576(3) 0.3402(4) 0.0601(3)
F3 F 0.0074(3) 0.3992(4) 0.1473(3)
F4 F 0.0390(3) 0.3046(4) 0.0284(3)
F5 F 0.0229(3) 0.4278(4) 0.0500(3)
F6 F 0.0236(4) 0.2737(3) 0.1285(4)
P2 P 0.49413(11) 0.37908(13) 0.42538(12)
F7 F 0.5638(3) 0.3941(4) 0.4755(3)
F8 F 0.4223(3) 0.3626(4) 0.3777(3)
F9 F 0.4564(3) 0.4410(3) 0.4594(3)
F10 F 0.5317(4) 0.3170(4) 0.3922(3)
F11 F 0.5122(4) 0.4449(4) 0.3815(4)
F12 F 0.4734(4) 0.3140(4) 0.4717(4)
P3 P 0.5000 0.0000 0.5000
F13 F 0.5047(3) -0.0264(3) 0.4295(2)
F14 F 0.4824(3) 0.0861(3) 0.4753(3)
F15 F 0.4191(3) -0.0190(3) 0.4847(2)
F13B F 0.4953(3) 0.0264(3) 0.5705(2)
F14B F 0.5176(3) -0.0861(3) 0.5247(3)
F15B F 0.5809(3) 0.0190(3) 0.5153(2)
P4 P 0.0000 -0.0069(4) 0.7500
F16 F -0.0341(7) 0.0546(6) 0.7897(7)
F17 F 0.0357(8) -0.0729(9) 0.7159(9)
F18 F 0.0620(7) -0.0105(15) 0.8106(6)
F16A F 0.0341(7) 0.0546(6) 0.7103(7)
F17A F -0.0357(8) -0.0729(9) 0.7841(9)
F18A F -0.0620(7) -0.0105(15) 0.6894(6)
Ag1 Ag 0.28496(2) 0.27248(3) 0.60824(2)
Ag2 Ag 0.21104(2) 0.32104(3) 0.88067(2)
Ag3 Ag 0.33042(4) -0.08843(4) 0.68235(3)
S1 S 0.35909(9) 0.15044(10) 0.63826(8)
S2 S 0.36017(8) 0.39038(10) 0.63415(10)
S3 S 0.16640(8) 0.24394(12) 0.62569(8)
S4 S 0.33213(8) 0.32198(10) 0.86287(8)
S5 S 0.41138(13) -0.02245(12) 0.77473(10)
S6 S 0.20592(15) -0.06111(15) 0.67750(12)
S7 S 0.13381(7) 0.44075(10) 0.86752(8)
S8 S 0.13820(8) 0.19937(10) 0.85988(8)
O1 O 0.2850(3) 0.1969(4) 0.4990(3)
O2 O 0.2616(3) 0.3563(4) 0.4978(3)
O3 O 0.1896(3) 0.4264(3) 0.6372(3)
O4 O 0.2612(3) 0.4468(3) 0.7681(3)
O5 O 0.4117(5) -0.1980(3) 0.7463(3)
O6 O 0.2727(6) -0.2258(4) 0.7065(3)
O7 O 0.2417(2) 0.4004(3) 0.9940(2)
O8 O 0.2251(3) 0.2386(3) 0.9947(2)
N1 N 0.3621(4) -0.1289(4) 0.5943(3)
C1 C 0.5000 0.1915(5) 0.7500
H1 H 0.5000 0.1363 0.7500
C2 C 0.4747(3) 0.2293(4) 0.6925(3)
C3 C 0.4457(4) 0.1818(5) 0.6337(4)
H2 H 0.4751 0.1359 0.6316
H3 H 0.4439 0.2136 0.5952
C4 C 0.3327(5) 0.0916(5) 0.5660(4)
H4 H 0.3646 0.0472 0.5684
H5 H 0.2865 0.0702 0.5653
C5 C 0.3305(5) 0.1331(6) 0.5052(4)
H6 H 0.3771 0.1518 0.5037
H7 H 0.3155 0.0968 0.4694
C6 C 0.2808(6) 0.2383(6) 0.4404(4)
H8 H 0.2598 0.2049 0.4040
H9 H 0.3271 0.2536 0.4355
C7 C 0.2381(6) 0.3077(7) 0.4425(4)
H10 H 0.2374 0.3392 0.4040
H11 H 0.1905 0.2909 0.4418
C8 C 0.3229(4) 0.3974(6) 0.4989(4)
H12 H 0.3174 0.4318 0.4614
H13 H 0.3608 0.3606 0.4979
C9 C 0.3389(4) 0.4447(5) 0.5581(5)
H14 H 0.2990 0.4785 0.5590
H15 H 0.3781 0.4791 0.5558
C10 C 0.4483(3) 0.3592(4) 0.6329(4)
H16 H 0.4485 0.3280 0.5944
H17 H 0.4780 0.4052 0.6326
C11 C 0.4745(3) 0.3109(4) 0.6917(3)
C12 C 0.5000 0.3493(5) 0.7500
H18 H 0.5000 0.4046 0.7500
C13 C 0.2272(3) 0.1918(4) 0.7442(3)
C14 C 0.1806(3) 0.2563(4) 0.7126(3)
H19 H 0.2020 0.3075 0.7250
H20 H 0.1363 0.2542 0.7261
C15 C 0.1077(3) 0.3217(5) 0.5973(4)
H21 H 0.0774 0.3048 0.5571
H22 H 0.0785 0.3301 0.6284
C16 C 0.1391(4) 0.3971(5) 0.5862(4)
H23 H 0.1602 0.3914 0.5489
H24 H 0.1021 0.4362 0.5753
C17 C 0.1603(4) 0.4641(5) 0.6831(4)
H25 H 0.1354 0.4257 0.7040
H26 H 0.1270 0.5037 0.6624
C18 C 0.2159(5) 0.5027(5) 0.7324(5)
H27 H 0.2426 0.5385 0.7110
H28 H 0.1944 0.5338 0.7615
C19 C 0.3035(4) 0.4754(4) 0.8238(4)
H29 H 0.2751 0.4858 0.8553
H30 H 0.3238 0.5253 0.8143
C20 C 0.3603(4) 0.4204(4) 0.8522(4)
H31 H 0.3840 0.4410 0.8939
H32 H 0.3939 0.4189 0.8246
C21 C 0.3277(3) 0.2823(4) 0.7830(3)
H33 H 0.3012 0.3181 0.7510
H34 H 0.3746 0.2778 0.7750
C22 C 0.2942(3) 0.2039(4) 0.7767(3)
C23 C 0.3338(3) 0.1393(4) 0.8044(3)
H35 H 0.3797 0.1474 0.8266
C24 C 0.3070(4) 0.0654(4) 0.7996(3)
C25 C 0.3541(5) -0.0003(5) 0.8286(4)
H36 H 0.3268 -0.0468 0.8343
H37 H 0.3812 0.0156 0.8706
C26 C 0.4621(8) -0.1017(6) 0.8189(5)
H38 H 0.5053 -0.1079 0.8039
H39 H 0.4741 -0.0881 0.8645
C27 C 0.4222(8) -0.1792(5) 0.8105(5)
H40 H 0.4491 -0.2204 0.8366
H41 H 0.3778 -0.1733 0.8234
C28 C 0.3838(8) -0.2738(6) 0.7295(7)
H42 H 0.4151 -0.3140 0.7523
H43 H 0.3789 -0.2823 0.6834
C29 C 0.3176(9) -0.2798(5) 0.7461(6)
H44 H 0.2996 -0.3335 0.7388
H45 H 0.3214 -0.2667 0.7913
C30 C 0.2082(10) -0.2177(10) 0.7217(8)
H46 H 0.2145 -0.2025 0.7668
H47 H 0.1844 -0.2686 0.7163
C31 C 0.1620(8) -0.1555(7) 0.6794(7)
H48 H 0.1199 -0.1472 0.6959
H49 H 0.1480 -0.1757 0.6357
C32 C 0.2050(5) -0.0259(5) 0.7585(4)
H50 H 0.1572 -0.0218 0.7642
H51 H 0.2301 -0.0625 0.7905
C33 C 0.2388(4) 0.0524(4) 0.7662(3)
C34 C 0.2003(4) 0.1150(4) 0.7396(3)
H52 H 0.1543 0.1067 0.7176
C35 C 0.0000 0.3959(6) 0.7500
H53 H 0.0000 0.4511 0.7500
C36 C 0.0230(3) 0.3576(4) 0.8082(3)
C37 C 0.0478(3) 0.4054(4) 0.8675(3)
H54 H 0.0486 0.3730 0.9056
H55 H 0.0165 0.4498 0.8684
C38 C 0.1535(4) 0.4875(4) 0.9461(3)
H56 H 0.1897 0.5270 0.9465
H57 H 0.1120 0.5151 0.9526
C39 C 0.1769(3) 0.4334(4) 1.0003(3)
H58 H 0.1824 0.4619 1.0409
H59 H 0.1426 0.3917 0.9997
C40 C 0.2731(4) 0.3530(5) 1.0465(4)
H60 H 0.2775 0.3836 1.0860
H61 H 0.3198 0.3387 1.0420
C41 C 0.2334(5) 0.2800(5) 1.0522(4)
H62 H 0.2585 0.2477 1.0876
H63 H 0.1880 0.2932 1.0609
C42 C 0.1782(5) 0.1752(5) 0.9913(4)
H64 H 0.1338 0.1945 0.9987
H65 H 0.1966 0.1369 1.0249
C43 C 0.1672(5) 0.1371(4) 0.9292(4)
H66 H 0.1329 0.0952 0.9282
H67 H 0.2107 0.1121 0.9251
C44 C 0.0513(3) 0.2277(4) 0.8668(3)
H68 H 0.0223 0.1813 0.8680
H69 H 0.0528 0.2586 0.9058
C45 C 0.0235(3) 0.2764(4) 0.8080(3)
C46 C 0.0000 0.2380(5) 0.7500
H70 H 0.0000 0.1828 0.7500
C47 C 0.3729(4) -0.1556(5) 0.5503(5)
C48 C 0.3868(6) -0.1930(6) 0.4925(5)
H71 H 0.3536 -0.1744 0.4553
H72 H 0.3828 -0.2495 0.4960
H73 H 0.4333 -0.1797 0.4881
S1A S 0.64091(9) 0.15044(10) 0.86174(8)
S2A S 0.63983(8) 0.39038(10) 0.86585(10)
O1A O 0.7150(3) 0.1969(4) 1.0010(3)
O2A O 0.7384(3) 0.3563(4) 1.0022(3)
C2A C 0.5253(3) 0.2293(4) 0.8075(3)
C3A C 0.5543(4) 0.1818(5) 0.8663(4)
H2A H 0.5249 0.1359 0.8684
H3A H 0.5561 0.2136 0.9048
C4A C 0.6673(5) 0.0916(5) 0.9340(4)
H4A H 0.6354 0.0472 0.9316
H5A H 0.7135 0.0702 0.9347
C5A C 0.6695(5) 0.1331(6) 0.9948(4)
H6A H 0.6229 0.1518 0.9963
H7A H 0.6845 0.0968 1.0306
C6A C 0.7192(6) 0.2383(6) 1.0596(4)
H8A H 0.7402 0.2049 1.0960
H9A H 0.6729 0.2536 1.0645
C7A C 0.7619(6) 0.3077(7) 1.0575(4)
H10A H 0.7626 0.3392 1.0960
H11A H 0.8095 0.2909 1.0582
C8A C 0.6771(4) 0.3974(6) 1.0011(4)
H12A H 0.6826 0.4318 1.0386
H13A H 0.6392 0.3606 1.0021
C9A C 0.6611(4) 0.4447(5) 0.9419(5)
H14A H 0.7010 0.4785 0.9410
H15A H 0.6219 0.4791 0.9442
C10A C 0.5517(3) 0.3592(4) 0.8671(4)
H16A H 0.5515 0.3280 0.9056
H17A H 0.5220 0.4052 0.8674
C11A C 0.5255(3) 0.3109(4) 0.8083(3)
S7A S -0.13381(7) 0.44075(10) 0.63248(8)
S8A S -0.13820(8) 0.19937(10) 0.64012(8)
O7A O -0.2417(2) 0.4004(3) 0.5060(2)
O8A O -0.2251(3) 0.2386(3) 0.5053(2)
C36A C -0.0230(3) 0.3576(4) 0.6918(3)
C37A C -0.0478(3) 0.4054(4) 0.6325(3)
H54A H -0.0486 0.3730 0.5944
H55A H -0.0165 0.4498 0.6316
C38A C -0.1535(4) 0.4875(4) 0.5539(3)
H56A H -0.1897 0.5270 0.5535
H57A H -0.1120 0.5151 0.5474
C39A C -0.1769(3) 0.4334(4) 0.4997(3)
H58A H -0.1824 0.4619 0.4591
H59A H -0.1426 0.3917 0.5003
C40A C -0.2731(4) 0.3530(5) 0.4535(4)
H60A H -0.2775 0.3836 0.4140
H61A H -0.3198 0.3387 0.4580
C41A C -0.2334(5) 0.2800(5) 0.4478(4)
H62A H -0.2585 0.2477 0.4124
H63A H -0.1880 0.2932 0.4391
C42A C -0.1782(5) 0.1752(5) 0.5087(4)
H64A H -0.1338 0.1945 0.5013
H65A H -0.1966 0.1369 0.4751
C43A C -0.1672(5) 0.1371(4) 0.5708(4)
H66A H -0.1329 0.0952 0.5718
H67A H -0.2107 0.1121 0.5749
C44A C -0.0513(3) 0.2277(4) 0.6332(3)
H68A H -0.0223 0.1813 0.6320
H69A H -0.0528 0.2586 0.5942
C45A C -0.0235(3) 0.2764(4) 0.6920(3)
Ag1A Ag -0.28496(2) 0.27248(3) 0.89176(2)
Ag2A Ag -0.21104(2) 0.32104(3) 0.61933(2)
Ag3A Ag -0.33042(4) -0.08843(4) 0.81765(3)
S3A S -0.16640(8) 0.24394(12) 0.87431(8)
S4A S -0.33213(8) 0.32198(10) 0.63713(8)
S5A S -0.41138(13) -0.02245(12) 0.72527(10)
S6A S -0.20592(15) -0.06111(15) 0.82250(12)
O3A O -0.1896(3) 0.4264(3) 0.8628(3)
O4A O -0.2612(3) 0.4468(3) 0.7319(3)
O5A O -0.4117(5) -0.1980(3) 0.7537(3)
O6A O -0.2727(6) -0.2258(4) 0.7935(3)
N1A N -0.3621(4) -0.1289(4) 0.9057(3)
C13A C -0.2272(3) 0.1918(4) 0.7558(3)
C14A C -0.1806(3) 0.2563(4) 0.7874(3)
H19A H -0.2020 0.3075 0.7750
H20A H -0.1363 0.2542 0.7739
C15A C -0.1077(3) 0.3217(5) 0.9027(4)
H21A H -0.0774 0.3048 0.9429
H22A H -0.0785 0.3301 0.8716
C16A C -0.1391(4) 0.3971(5) 0.9138(4)
H23A H -0.1602 0.3914 0.9511
H24A H -0.1021 0.4362 0.9247
C17A C -0.1603(4) 0.4641(5) 0.8169(4)
H25A H -0.1354 0.4257 0.7960
H26A H -0.1270 0.5037 0.8376
C18A C -0.2159(5) 0.5027(5) 0.7676(5)
H27A H -0.2426 0.5385 0.7890
H28A H -0.1944 0.5338 0.7385
C19A C -0.3035(4) 0.4754(4) 0.6762(4)
H29A H -0.2751 0.4858 0.6447
H30A H -0.3238 0.5253 0.6857
C20A C -0.3603(4) 0.4204(4) 0.6478(4)
H31A H -0.3840 0.4410 0.6061
H32A H -0.3939 0.4189 0.6754
C21A C -0.3277(3) 0.2823(4) 0.7170(3)
H33A H -0.3012 0.3181 0.7490
H34A H -0.3746 0.2778 0.7250
C22A C -0.2942(3) 0.2039(4) 0.7233(3)
C23A C -0.3338(3) 0.1393(4) 0.6956(3)
H35A H -0.3797 0.1474 0.6734
C24A C -0.3070(4) 0.0654(4) 0.7004(3)
C25A C -0.3541(5) -0.0003(5) 0.6714(4)
H36A H -0.3268 -0.0468 0.6657
H37A H -0.3812 0.0156 0.6294
C26A C -0.4621(8) -0.1017(6) 0.6811(5)
H38A H -0.5053 -0.1079 0.6961
H39A H -0.4741 -0.0881 0.6355
C27A C -0.4222(8) -0.1792(5) 0.6895(5)
H40A H -0.4491 -0.2204 0.6634
H41A H -0.3778 -0.1733 0.6766
C28A C -0.3838(8) -0.2738(6) 0.7705(7)
H42A H -0.4151 -0.3140 0.7477
H43A H -0.3789 -0.2823 0.8166
C29A C -0.3176(9) -0.2798(5) 0.7539(6)
H44A H -0.2996 -0.3335 0.7612
H45A H -0.3214 -0.2667 0.7087
C30A C -0.2082(10) -0.2177(10) 0.7783(8)
H46A H -0.2145 -0.2025 0.7332
H47A H -0.1844 -0.2686 0.7837
C31A C -0.1620(8) -0.1555(7) 0.8206(7)
H48A H -0.1199 -0.1472 0.8041
H49A H -0.1480 -0.1757 0.8643
C32A C -0.2050(5) -0.0259(5) 0.7415(4)
H50A H -0.1572 -0.0218 0.7358
H51A H -0.2301 -0.0625 0.7095
C33A C -0.2388(4) 0.0524(4) 0.7338(3)
C34A C -0.2003(4) 0.1150(4) 0.7604(3)
H52A H -0.1543 0.1067 0.7824
C47A C -0.3729(4) -0.1556(5) 0.9497(5)
C48A C -0.3868(6) -0.1930(6) 1.0075(5)
H71A H -0.3536 -0.1744 1.0447
H72A H -0.3828 -0.2495 1.0040
H73A H -0.4333 -0.1797 1.0119
Ag1A_2 Ag 0.71504(2) 0.27248(3) 0.89176(2)
S1A_2 S -0.35909(9) 0.15044(10) 0.86174(8)
S2A_2 S -0.36017(8) 0.39038(10) 0.86585(10)
O1A_2 O -0.2850(3) 0.1969(4) 1.0010(3)
loop_
_geom_bond_atom_site_label_1
_geom_bond_atom_site_label_2
_geom_bond_site_symmetry_1
_geom_bond_site_symmetry_2
Ag1 S1 1_555 1_555
Ag2 S4 1_555 1_555
Ag3 S5 1_555 1_555
S1 C3 1_555 1_555
S2 Ag1 1_555 1_555
S3 Ag1 1_555 1_555
S4 C20 1_555 1_555
S5 C25 1_555 1_555
S6 Ag3 1_555 1_555
S7 Ag2 1_555 1_555
S8 Ag2 1_555 1_555
O1 Ag1 1_555 1_555
O2 C7 1_555 1_555
O3 C16 1_555 1_555
O4 C18 1_555 1_555
O5 Ag3 1_555 1_555
O6 C29 1_555 1_555
O7 C39 1_555 1_555
O8 C41 1_555 1_555
N1 Ag3 1_555 1_555
C1 H1 1_555 1_555
C2 C1 1_555 1_555
C3 C2 1_555 1_555
H2 C3 1_555 1_555
H3 C3 1_555 1_555
C4 S1 1_555 1_555
H4 C4 1_555 1_555
H5 C4 1_555 1_555
C5 O1 1_555 1_555
H6 C5 1_555 1_555
H7 C5 1_555 1_555
C6 O1 1_555 1_555
H8 C6 1_555 1_555
H9 C6 1_555 1_555
C7 C6 1_555 1_555
H10 C7 1_555 1_555
H11 C7 1_555 1_555
C8 O2 1_555 1_555
H12 C8 1_555 1_555
H13 C8 1_555 1_555
C9 S2 1_555 1_555
H14 C9 1_555 1_555
H15 C9 1_555 1_555
C10 S2 1_555 1_555
H16 C10 1_555 1_555
H17 C10 1_555 1_555
C11 C2 1_555 1_555
C12 C11 1_555 1_555
H18 C12 1_555 1_555
C13 C14 1_555 1_555
C14 S3 1_555 1_555
H19 C14 1_555 1_555
H20 C14 1_555 1_555
C15 S3 1_555 1_555
H21 C15 1_555 1_555
H22 C15 1_555 1_555
C16 C15 1_555 1_555
H23 C16 1_555 1_555
H24 C16 1_555 1_555
C17 O3 1_555 1_555
H25 C17 1_555 1_555
H26 C17 1_555 1_555
C18 C17 1_555 1_555
H27 C18 1_555 1_555
H28 C18 1_555 1_555
C19 O4 1_555 1_555
H29 C19 1_555 1_555
H30 C19 1_555 1_555
C20 C19 1_555 1_555
H31 C20 1_555 1_555
H32 C20 1_555 1_555
C21 S4 1_555 1_555
H33 C21 1_555 1_555
H34 C21 1_555 1_555
C22 C13 1_555 1_555
C23 C22 1_555 1_555
H35 C23 1_555 1_555
C24 C23 1_555 1_555
C25 C24 1_555 1_555
H36 C25 1_555 1_555
H37 C25 1_555 1_555
C26 S5 1_555 1_555
H38 C26 1_555 1_555
H39 C26 1_555 1_555
C27 O5 1_555 1_555
H40 C27 1_555 1_555
H41 C27 1_555 1_555
C28 O5 1_555 1_555
H42 C28 1_555 1_555
H43 C28 1_555 1_555
C29 C28 1_555 1_555
H44 C29 1_555 1_555
H45 C29 1_555 1_555
C30 O6 1_555 1_555
H46 C30 1_555 1_555
H47 C30 1_555 1_555
C31 S6 1_555 1_555
H48 C31 1_555 1_555
H49 C31 1_555 1_555
C32 S6 1_555 1_555
H50 C32 1_555 1_555
H51 C32 1_555 1_555
C33 C24 1_555 1_555
C34 C13 1_555 1_555
H52 C34 1_555 1_555
C35 H53 1_555 1_555
C36 C35 1_555 1_555
C37 S7 1_555 1_555
H54 C37 1_555 1_555
H55 C37 1_555 1_555
C38 S7 1_555 1_555
H56 C38 1_555 1_555
H57 C38 1_555 1_555
C39 C38 1_555 1_555
H58 C39 1_555 1_555
H59 C39 1_555 1_555
C40 O7 1_555 1_555
H60 C40 1_555 1_555
H61 C40 1_555 1_555
C41 C40 1_555 1_555
H62 C41 1_555 1_555
H63 C41 1_555 1_555
C42 O8 1_555 1_555
H64 C42 1_555 1_555
H65 C42 1_555 1_555
C43 S8 1_555 1_555
H66 C43 1_555 1_555
H67 C43 1_555 1_555
C44 S8 1_555 1_555
H68 C44 1_555 1_555
H69 C44 1_555 1_555
C45 C36 1_555 1_555
C46 C45 1_555 1_555
H70 C46 1_555 1_555
C47 N1 1_555 1_555
C48 C47 1_555 1_555
H71 C48 1_555 1_555
H72 C48 1_555 1_555
H73 C48 1_555 1_555
P1 F1 1_555 1_555
F2 P1 1_555 1_555
F3 P1 1_555 1_555
F4 P1 1_555 1_555
F5 P1 1_555 1_555
F6 P1 1_555 1_555
P2 F7 1_555 1_555
F8 P2 1_555 1_555
F9 P2 1_555 1_555
F10 P2 1_555 1_555
F11 P2 1_555 1_555
F12 P2 1_555 1_555
P3 F13 1_555 1_555
F14 P3 1_555 1_555
F15 P3 1_555 1_555
P4 F16 1_555 1_555
F17 P4 1_555 1_555
F18 P4 1_555 1_555
S1A C3A 1_555 1_555
S2A C9A 1_555 1_555
O1A C5A 1_555 1_555
O2A C7A 1_555 1_555
C2A C1 1_555 1_555
C3A C2A 1_555 1_555
H2A C3A 1_555 1_555
H3A C3A 1_555 1_555
C4A S1A 1_555 1_555
H4A C4A 1_555 1_555
H5A C4A 1_555 1_555
C5A C4A 1_555 1_555
H6A C5A 1_555 1_555
H7A C5A 1_555 1_555
C6A O1A 1_555 1_555
H8A C6A 1_555 1_555
H9A C6A 1_555 1_555
C7A C6A 1_555 1_555
H10A C7A 1_555 1_555
H11A C7A 1_555 1_555
C8A O2A 1_555 1_555
H12A C8A 1_555 1_555
H13A C8A 1_555 1_555
C9A C8A 1_555 1_555
H14A C9A 1_555 1_555
H15A C9A 1_555 1_555
C10A S2A 1_555 1_555
H16A C10A 1_555 1_555
H17A C10A 1_555 1_555
C11A C12 1_555 1_555
S7A C37A 1_555 1_555
S8A C43A 1_555 1_555
O7A C39A 1_555 1_555
O8A C41A 1_555 1_555
C36A C35 1_555 1_555
C37A C36A 1_555 1_555
H54A C37A 1_555 1_555
H55A C37A 1_555 1_555
C38A S7A 1_555 1_555
H56A C38A 1_555 1_555
H57A C38A 1_555 1_555
C39A C38A 1_555 1_555
H58A C39A 1_555 1_555
H59A C39A 1_555 1_555
C40A O7A 1_555 1_555
H60A C40A 1_555 1_555
H61A C40A 1_555 1_555
C41A C40A 1_555 1_555
H62A C41A 1_555 1_555
H63A C41A 1_555 1_555
C42A O8A 1_555 1_555
H64A C42A 1_555 1_555
H65A C42A 1_555 1_555
C43A C42A 1_555 1_555
H66A C43A 1_555 1_555
H67A C43A 1_555 1_555
C44A S8A 1_555 1_555
H68A C44A 1_555 1_555
H69A C44A 1_555 1_555
C45A C46 1_555 1_555
Ag1A S3A 1_555 1_555
Ag2A S7A 1_555 1_555
Ag3A S5A 1_555 1_555
S3A C14A 1_555 1_555
S4A Ag2A 1_555 1_555
S5A C25A 1_555 1_555
S6A Ag3A 1_555 1_555
O3A C16A 1_555 1_555
O4A C18A 1_555 1_555
O5A Ag3A 1_555 1_555
O6A C29A 1_555 1_555
N1A Ag3A 1_555 1_555
C13A C14A 1_555 1_555
C14A H19A 1_555 1_555
H20A C14A 1_555 1_555
C15A S3A 1_555 1_555
H21A C15A 1_555 1_555
H22A C15A 1_555 1_555
C16A C15A 1_555 1_555
H23A C16A 1_555 1_555
H24A C16A 1_555 1_555
C17A O3A 1_555 1_555
H25A C17A 1_555 1_555
H26A C17A 1_555 1_555
C18A C17A 1_555 1_555
H27A C18A 1_555 1_555
H28A C18A 1_555 1_555
C19A O4A 1_555 1_555
H29A C19A 1_555 1_555
H30A C19A 1_555 1_555
C20A S4A 1_555 1_555
H31A C20A 1_555 1_555
H32A C20A 1_555 1_555
C21A S4A 1_555 1_555
H33A C21A 1_555 1_555
H34A C21A 1_555 1_555
C22A C13A 1_555 1_555
C23A C22A 1_555 1_555
H35A C23A 1_555 1_555
C24A C23A 1_555 1_555
C25A C24A 1_555 1_555
H36A C25A 1_555 1_555
H37A C25A 1_555 1_555
C26A S5A 1_555 1_555
H38A C26A 1_555 1_555
H39A C26A 1_555 1_555
C27A O5A 1_555 1_555
H40A C27A 1_555 1_555
H41A C27A 1_555 1_555
C28A O5A 1_555 1_555
H42A C28A 1_555 1_555
H43A C28A 1_555 1_555
C29A C28A 1_555 1_555
H44A C29A 1_555 1_555
H45A C29A 1_555 1_555
C30A O6A 1_555 1_555
H46A C30A 1_555 1_555
H47A C30A 1_555 1_555
C31A S6A 1_555 1_555
H48A C31A 1_555 1_555
H49A C31A 1_555 1_555
C32A S6A 1_555 1_555
H50A C32A 1_555 1_555
H51A C32A 1_555 1_555
C33A C24A 1_555 1_555
C34A C13A 1_555 1_555
H52A C34A 1_555 1_555
C47A N1A 1_555 1_555
C48A C47A 1_555 1_555
H71A C48A 1_555 1_555
H72A C48A 1_555 1_555
H73A C48A 1_555 1_555
Ag1A_2 S1A 1_555 1_555
S1A_2 Ag1A 1_555 1_555
S2A_2 Ag1A 1_555 1_555
O1A_2 Ag1A 1_555 1_555
F13B P3 1_555 1_555
F14B P3 1_555 1_555
F15B P3 1_555 1_555
F16A P4 1_555 1_555
F17A P4 1_555 1_555
F18A P4 1_555 1_555
C4 C5 1_555 1_555
C8 C9 1_555 1_555
C10 C11 1_555 1_555
C21 C22 1_555 1_555
C26 C27 1_555 1_555
C30 C31 1_555 1_555
C32 C33 1_555 1_555
C33 C34 1_555 1_555
C36 C37 1_555 1_555
C42 C43 1_555 1_555
C44 C45 1_555 1_555
S2A Ag1A_2 1_555 1_555
O1A Ag1A_2 1_555 1_555
C2A C11A 1_555 1_555
C10A C11A 1_555 1_555
S8A Ag2A 1_555 1_555
C36A C45A 1_555 1_555
C44A C45A 1_555 1_555
C19A C20A 1_555 1_555
C21A C22A 1_555 1_555
C26A C27A 1_555 1_555
C30A C31A 1_555 1_555
C32A C33A 1_555 1_555
C33A C34A 1_555 1_555

#END
