
#######################################################################
#
#                 Cambridge Crystallographic Data Centre
#                                CCDC 
#
#######################################################################
#
# If this CIF has been generated from an entry in the Cambridge 
# Structural Database, then it will include bibliographic, chemical, 
# crystal, experimental, refinement or atomic coordinate data resulting 
# from the CCDC's data processing and validation procedures.
#
#######################################################################

data_NIYMUD
_symmetry_cell_setting           monoclinic
_symmetry_space_group_name_H-M   'P 21/c'
_symmetry_Int_Tables_number      14
_space_group_name_Hall           '-P 2ybc'
loop_
_symmetry_equiv_pos_site_id
_symmetry_equiv_pos_as_xyz
1 x,y,z
2 x,1/2-y,1/2+z
3 -x,-y,-z
4 -x,1/2+y,1/2-z
_cell_length_a                   11.9079(2)
_cell_length_b                   14.7672(2)
_cell_length_c                   24.04480(10)
_cell_angle_alpha                90
_cell_angle_beta                 98.2200(10)
_cell_angle_gamma                90
_cell_volume                     4184.75
loop_
_atom_site_label
_atom_site_type_symbol
_atom_site_fract_x
_atom_site_fract_y
_atom_site_fract_z
K1 K 0.62449(7) 0.09725(6) 0.03539(4)
K2 K 0.89313(7) -0.10648(6) 0.02903(4)
S1 S 0.86236(7) 0.10792(6) -0.00008(4)
C1 C 0.9183(3) 0.1978(2) 0.04524(13)
C2 C 0.9968(3) 0.1815(2) 0.09462(14)
C3 C 1.0373(3) 0.2537(2) 0.12916(14)
H1 H 1.0889(3) 0.2418(2) 0.16112(14)
C4 C 1.0035(3) 0.3432(2) 0.11773(14)
C5 C 0.9281(3) 0.3585(2) 0.06923(14)
H2 H 0.9053(3) 0.4176(2) 0.06048(14)
C6 C 0.8849(3) 0.2891(2) 0.03284(14)
C7 C 1.0318(3) 0.0846(2) 0.1121(2)
H3 H 1.0260(3) 0.0480(2) 0.0778(2)
C8 C 0.9462(4) 0.0463(3) 0.1482(2)
H4 H 0.9673(4) -0.0145(3) 0.1594(2)
H5 H 0.8717(4) 0.0461(3) 0.1268(2)
H6 H 0.9461(4) 0.0833(3) 0.1810(2)
C9 C 1.1540(4) 0.0758(3) 0.1423(2)
H7 H 1.1698(4) 0.0135(3) 0.1519(2)
H8 H 1.1627(4) 0.1117(3) 0.1760(2)
H9 H 1.2059(4) 0.0967(3) 0.1180(2)
C10 C 1.0425(4) 0.4217(3) 0.1570(2)
H10 H 1.0353(4) 0.4770(3) 0.1341(2)
C11 C 1.1664(4) 0.4150(4) 0.1836(2)
H11 H 1.2136(4) 0.4083(4) 0.1547(2)
H12 H 1.1760(4) 0.3635(4) 0.2082(2)
H13 H 1.1876(4) 0.4690(4) 0.2048(2)
C12 C 0.9643(5) 0.4325(3) 0.2012(2)
H14 H 0.9899(5) 0.4821(3) 0.2255(2)
H15 H 0.9650(5) 0.3779(3) 0.2228(2)
H16 H 0.8885(5) 0.4443(3) 0.1831(2)
C13 C 0.8020(3) 0.3150(2) -0.01889(15)
H17 H 0.7879(3) 0.2606(2) -0.04224(15)
C14 C 0.6878(3) 0.3451(3) -0.0022(2)
H18 H 0.6367(3) 0.3611(3) -0.0353(2)
H19 H 0.6995(3) 0.3966(3) 0.0223(2)
H20 H 0.6558(3) 0.2964(3) 0.0169(2)
C15 C 0.8503(4) 0.3875(3) -0.0543(2)
H21 H 0.7954(4) 0.4017(3) -0.0864(2)
H22 H 0.9183(4) 0.3651(3) -0.0667(2)
H23 H 0.8675(4) 0.4410(3) -0.0321(2)
S2 S 0.63194(8) -0.11582(6) 0.00723(4)
C16 C 0.6033(3) -0.2066(2) 0.05243(13)
C17 C 0.5522(3) -0.1904(2) 0.10143(14)
C18 C 0.5354(3) -0.2621(2) 0.13685(14)
H24 H 0.5022(3) -0.2502(2) 0.16880(14)
C19 C 0.5661(3) -0.3510(2) 0.12670(14)
C20 C 0.6141(3) -0.3665(2) 0.07811(14)
H25 H 0.6346(3) -0.4253(2) 0.07011(14)
C21 C 0.6329(3) -0.2973(2) 0.04079(14)
C22 C 0.5209(3) -0.0949(2) 0.1181(2)
H26 H 0.5131(3) -0.0576(2) 0.0841(2)
C23 C 0.6175(4) -0.0549(3) 0.1593(2)
H27 H 0.5974(4) 0.0051(3) 0.1697(2)
H28 H 0.6851(4) -0.0524(3) 0.1419(2)
H29 H 0.6308(4) -0.0922(3) 0.1923(2)
C24 C 0.4078(4) -0.0890(3) 0.1420(2)
H30 H 0.3481(4) -0.1145(3) 0.1156(2)
H31 H 0.3908(4) -0.0267(3) 0.1488(2)
H32 H 0.4139(4) -0.1221(3) 0.1767(2)
C25 C 0.5515(4) -0.4290(3) 0.1672(2)
H33 H 0.5627(4) -0.4857(3) 0.1475(2)
C26 C 0.4331(4) -0.4321(3) 0.1842(2)
H34 H 0.3775(4) -0.4346(3) 0.1511(2)
H35 H 0.4210(4) -0.3788(3) 0.2054(2)
H36 H 0.4263(4) -0.4849(3) 0.2068(2)
C27 C 0.6410(4) -0.4250(3) 0.2189(2)
H37 H 0.7151(4) -0.4231(3) 0.2076(2)
H38 H 0.6349(4) -0.4777(3) 0.2417(2)
H39 H 0.6297(4) -0.3717(3) 0.2403(2)
C28 C 0.6866(3) -0.3225(2) -0.01110(15)
H40 H 0.6888(3) -0.2676(2) -0.03380(15)
C29 C 0.8095(3) -0.3553(3) 0.0052(2)
H41 H 0.8410(3) -0.3706(3) -0.0282(2)
H42 H 0.8103(3) -0.4077(3) 0.0289(2)
H43 H 0.8538(3) -0.3080(3) 0.0250(2)
C30 C 0.6160(4) -0.3930(3) -0.0474(2)
H44 H 0.6523(4) -0.4071(3) -0.0795(2)
H45 H 0.5416(4) -0.3691(3) -0.0597(2)
H46 H 0.6099(4) -0.4469(3) -0.0258(2)
O1 O 0.6189(3) 0.1954(2) 0.12856(12)
C31 C 0.7088(5) 0.2388(5) 0.1627(2)
H47 H 0.7562(5) 0.2706(5) 0.1394(2)
H48 H 0.7553(5) 0.1943(5) 0.1850(2)
C32 C 0.6623(5) 0.3018(5) 0.1988(3)
H49 H 0.6834(5) 0.3631(5) 0.1902(3)
H50 H 0.6918(5) 0.2892(5) 0.2377(3)
C33 C 0.5375(4) 0.2925(3) 0.1898(2)
H51 H 0.5016(4) 0.3459(3) 0.1716(2)
H52 H 0.5087(4) 0.2830(3) 0.2251(2)
C34 C 0.5168(4) 0.2098(3) 0.1519(2)
H53 H 0.4995(4) 0.1573(3) 0.1735(2)
H54 H 0.4537(4) 0.2204(3) 0.1224(2)
O2 O 0.9530(3) -0.1960(2) 0.12605(12)
C35 C 0.8745(4) -0.2329(3) 0.1597(2)
H55 H 0.8028(4) -0.2473(3) 0.1369(2)
H56 H 0.8606(4) -0.1907(3) 0.1889(2)
C36 C 0.9308(4) -0.3164(4) 0.1847(2)
H57 H 0.9139(4) -0.3677(4) 0.1596(2)
H58 H 0.9061(4) -0.3303(4) 0.2204(2)
C37 C 1.0558(4) -0.2947(3) 0.1924(2)
H59 H 1.0990(4) -0.3450(3) 0.1804(2)
H60 H 1.0835(4) -0.2810(3) 0.2314(2)
C38 C 1.0645(4) -0.2119(3) 0.1552(2)
H61 H 1.0908(4) -0.1597(3) 0.1780(2)
H62 H 1.1172(4) -0.2232(3) 0.1288(2)
S1B S 1.13764(7) -0.10792(6) 0.00008(4)
K2B K 1.10687(7) 0.10648(6) -0.02903(4)
S2B S 0.36806(8) 0.11582(6) -0.00723(4)
K1B K 0.37551(7) -0.09725(6) -0.03539(4)
loop_
_geom_bond_atom_site_label_1
_geom_bond_atom_site_label_2
_geom_bond_site_symmetry_1
_geom_bond_site_symmetry_2
K1 S1 1_555 1_555
K2 S1 1_555 1_555
S1 C1 1_555 1_555
C1 C2 1_555 1_555
C2 C3 1_555 1_555
C3 H1 1_555 1_555
C4 C3 1_555 1_555
C5 C4 1_555 1_555
H2 C5 1_555 1_555
C6 C1 1_555 1_555
C7 C2 1_555 1_555
H3 C7 1_555 1_555
C8 C7 1_555 1_555
H4 C8 1_555 1_555
H5 C8 1_555 1_555
H6 C8 1_555 1_555
C9 C7 1_555 1_555
H7 C9 1_555 1_555
H8 C9 1_555 1_555
H9 C9 1_555 1_555
C10 C4 1_555 1_555
H10 C10 1_555 1_555
C11 C10 1_555 1_555
H11 C11 1_555 1_555
H12 C11 1_555 1_555
H13 C11 1_555 1_555
C12 C10 1_555 1_555
H14 C12 1_555 1_555
H15 C12 1_555 1_555
H16 C12 1_555 1_555
C13 C6 1_555 1_555
H17 C13 1_555 1_555
C14 C13 1_555 1_555
H18 C14 1_555 1_555
H19 C14 1_555 1_555
H20 C14 1_555 1_555
C15 C13 1_555 1_555
H21 C15 1_555 1_555
H22 C15 1_555 1_555
H23 C15 1_555 1_555
S2 K1 1_555 1_555
C16 S2 1_555 1_555
C17 C16 1_555 1_555
C18 C17 1_555 1_555
H24 C18 1_555 1_555
C19 C18 1_555 1_555
C20 C19 1_555 1_555
H25 C20 1_555 1_555
C21 C16 1_555 1_555
C22 C17 1_555 1_555
H26 C22 1_555 1_555
C23 C22 1_555 1_555
H27 C23 1_555 1_555
H28 C23 1_555 1_555
H29 C23 1_555 1_555
C24 C22 1_555 1_555
H30 C24 1_555 1_555
H31 C24 1_555 1_555
H32 C24 1_555 1_555
C25 C19 1_555 1_555
H33 C25 1_555 1_555
C26 C25 1_555 1_555
H34 C26 1_555 1_555
H35 C26 1_555 1_555
H36 C26 1_555 1_555
C27 C25 1_555 1_555
H37 C27 1_555 1_555
H38 C27 1_555 1_555
H39 C27 1_555 1_555
C28 C21 1_555 1_555
H40 C28 1_555 1_555
C29 C28 1_555 1_555
H41 C29 1_555 1_555
H42 C29 1_555 1_555
H43 C29 1_555 1_555
C30 C28 1_555 1_555
H44 C30 1_555 1_555
H45 C30 1_555 1_555
H46 C30 1_555 1_555
O1 K1 1_555 1_555
C31 O1 1_555 1_555
H47 C31 1_555 1_555
H48 C31 1_555 1_555
C32 C31 1_555 1_555
H49 C32 1_555 1_555
H50 C32 1_555 1_555
C33 C32 1_555 1_555
H51 C33 1_555 1_555
H52 C33 1_555 1_555
C34 O1 1_555 1_555
H53 C34 1_555 1_555
H54 C34 1_555 1_555
O2 K2 1_555 1_555
C35 O2 1_555 1_555
H55 C35 1_555 1_555
H56 C35 1_555 1_555
C36 C35 1_555 1_555
H57 C36 1_555 1_555
H58 C36 1_555 1_555
C37 C36 1_555 1_555
H59 C37 1_555 1_555
H60 C37 1_555 1_555
C38 O2 1_555 1_555
H61 C38 1_555 1_555
H62 C38 1_555 1_555
S1B K2 1_555 1_555
K2B S1 1_555 1_555
S2B K1 1_555 1_555
K1B S2 1_555 1_555
K2 S2 1_555 1_555
C5 C6 1_555 1_555
C20 C21 1_555 1_555
C33 C34 1_555 1_555
C37 C38 1_555 1_555
S1B K2B 1_555 1_555
S2B K1B 1_555 1_555

#END
