
#######################################################################
#
#                 Cambridge Crystallographic Data Centre
#                                CCDC 
#
#######################################################################
#
# If this CIF has been generated from an entry in the Cambridge 
# Structural Database, then it will include bibliographic, chemical, 
# crystal, experimental, refinement or atomic coordinate data resulting 
# from the CCDC's data processing and validation procedures.
#
#######################################################################

data_NIYMOX
_symmetry_cell_setting           orthorhombic
_symmetry_space_group_name_H-M   'P b c a'
_symmetry_Int_Tables_number      61
_space_group_name_Hall           '-P 2ac 2ab'
loop_
_symmetry_equiv_pos_site_id
_symmetry_equiv_pos_as_xyz
1 x,y,z
2 1/2+x,y,1/2-z
3 x,1/2-y,1/2+z
4 1/2-x,1/2+y,z
5 -x,-y,-z
6 1/2-x,-y,1/2+z
7 -x,1/2+y,1/2-z
8 1/2+x,1/2-y,-z
_cell_length_a                   9.27020(10)
_cell_length_b                   20.1017(2)
_cell_length_c                   25.9256(4)
_cell_angle_alpha                90
_cell_angle_beta                 90
_cell_angle_gamma                90
_cell_volume                     4831.15
loop_
_atom_site_label
_atom_site_type_symbol
_atom_site_fract_x
_atom_site_fract_y
_atom_site_fract_z
Na1 Na -0.11027(11) 0.06662(5) 0.28355(3)
S1 S 0.18661(8) 0.07218(4) 0.29484(2)
C1 C 0.2270(3) 0.10980(12) 0.35596(8)
C2 C 0.2525(3) 0.17887(12) 0.36029(7)
C3 C 0.2807(3) 0.20632(12) 0.40904(8)
H1 H 0.2966(3) 0.25288(12) 0.41169(8)
C4 C 0.2862(3) 0.16789(12) 0.45364(8)
C5 C 0.2620(3) 0.09986(12) 0.44876(8)
H2 H 0.2668(3) 0.07287(12) 0.47879(8)
C6 C 0.2307(3) 0.06944(11) 0.40127(8)
C7 C 0.2452(3) 0.22482(13) 0.31332(8)
H3 H 0.2697(3) 0.19753(13) 0.28228(8)
C8 C 0.0906(4) 0.2506(2) 0.30612(12)
H4 H 0.0868(4) 0.2800(2) 0.27598(12)
H5 H 0.0611(4) 0.2754(2) 0.33691(12)
H6 H 0.0251(4) 0.2130(2) 0.30088(12)
C9 C 0.3510(4) 0.28322(13) 0.31503(10)
H7 H 0.3399(4) 0.31020(13) 0.28380(10)
H8 H 0.4499(4) 0.26621(13) 0.31696(10)
H9 H 0.3309(4) 0.31066(13) 0.34544(10)
C10 C 0.3167(4) 0.19948(14) 0.50608(9)
H10 H 0.3276(4) 0.24849(14) 0.50076(9)
C11 C 0.1900(5) 0.1884(2) 0.54365(10)
H11 H 0.2124(5) 0.2091(2) 0.57692(10)
H12 H 0.1747(5) 0.1406(2) 0.54855(10)
H13 H 0.1024(5) 0.2085(2) 0.52937(10)
C12 C 0.4591(5) 0.1731(2) 0.52903(12)
H14 H 0.4762(5) 0.1941(2) 0.56260(12)
H15 H 0.5389(5) 0.1837(2) 0.50566(12)
H16 H 0.4527(5) 0.1248(2) 0.53341(12)
C13 C 0.2011(3) -0.00527(12) 0.39895(10)
H17 H 0.1278(3) -0.01236(12) 0.37122(10)
C14 C 0.3372(4) -0.04304(15) 0.3826(2)
H18 H 0.3759(4) -0.02334(15) 0.3509(2)
H19 H 0.3130(4) -0.08982(15) 0.3764(2)
H20 H 0.4096(4) -0.04013(15) 0.4100(2)
C15 C 0.1390(4) -0.03531(14) 0.44836(11)
H21 H 0.1235(4) -0.08311(14) 0.44344(11)
H22 H 0.0469(4) -0.01377(14) 0.45647(11)
H23 H 0.2068(4) -0.02829(14) 0.47686(11)
N1 N -0.2390(2) 0.10736(10) 0.36129(7)
N2 N -0.2216(2) -0.03711(10) 0.31973(7)
C16 C -0.3290(3) 0.16559(13) 0.34763(10)
H24 H -0.2665(3) 0.20295(13) 0.33809(10)
H25 H -0.3885(3) 0.17817(13) 0.37730(10)
H26 H -0.3915(3) 0.15423(13) 0.31844(10)
C17 C -0.1430(3) 0.12568(14) 0.40453(9)
H27 H -0.0815(3) 0.16301(14) 0.39417(9)
H28 H -0.0825(3) 0.08749(14) 0.41370(9)
H29 H -0.2013(3) 0.13869(14) 0.43440(9)
C18 C -0.3330(3) 0.05141(12) 0.37558(9)
H30 H -0.4176(3) 0.05088(12) 0.35228(9)
H31 H -0.3687(3) 0.05846(12) 0.41114(9)
C19 C -0.2578(3) -0.01614(12) 0.37283(8)
H32 H -0.1679(3) -0.01417(12) 0.39343(8)
H33 H -0.3212(3) -0.05013(12) 0.38863(8)
C20 C -0.1220(4) -0.09410(13) 0.32061(11)
H34 H -0.0991(4) -0.10740(13) 0.28518(11)
H35 H -0.1674(4) -0.13141(13) 0.33872(11)
H36 H -0.0330(4) -0.08144(13) 0.33853(11)
C21 C -0.3529(3) -0.05804(13) 0.29152(9)
H37 H -0.4215(3) -0.02098(13) 0.29029(9)
H38 H -0.3972(3) -0.09590(13) 0.30929(9)
H39 H -0.3268(3) -0.07110(13) 0.25632(9)
Na1A Na 0.38973(11) 0.06662(5) 0.21645(3)
S1A S -0.31339(8) 0.07218(4) 0.20516(2)
loop_
_geom_bond_atom_site_label_1
_geom_bond_atom_site_label_2
_geom_bond_site_symmetry_1
_geom_bond_site_symmetry_2
Na1 S1 1_555 1_555
S1 C1 1_555 1_555
C1 C2 1_555 1_555
C2 C3 1_555 1_555
C3 H1 1_555 1_555
C4 C3 1_555 1_555
C5 C4 1_555 1_555
H2 C5 1_555 1_555
C6 C1 1_555 1_555
C7 C2 1_555 1_555
H3 C7 1_555 1_555
C8 C7 1_555 1_555
H4 C8 1_555 1_555
H5 C8 1_555 1_555
H6 C8 1_555 1_555
C9 C7 1_555 1_555
H7 C9 1_555 1_555
H8 C9 1_555 1_555
H9 C9 1_555 1_555
C10 C4 1_555 1_555
H10 C10 1_555 1_555
C11 C10 1_555 1_555
H11 C11 1_555 1_555
H12 C11 1_555 1_555
H13 C11 1_555 1_555
C12 C10 1_555 1_555
H14 C12 1_555 1_555
H15 C12 1_555 1_555
H16 C12 1_555 1_555
C13 C6 1_555 1_555
H17 C13 1_555 1_555
C14 C13 1_555 1_555
H18 C14 1_555 1_555
H19 C14 1_555 1_555
H20 C14 1_555 1_555
C15 C13 1_555 1_555
H21 C15 1_555 1_555
H22 C15 1_555 1_555
H23 C15 1_555 1_555
N1 Na1 1_555 1_555
N2 Na1 1_555 1_555
C16 N1 1_555 1_555
H24 C16 1_555 1_555
H25 C16 1_555 1_555
H26 C16 1_555 1_555
C17 N1 1_555 1_555
H27 C17 1_555 1_555
H28 C17 1_555 1_555
H29 C17 1_555 1_555
C18 N1 1_555 1_555
H30 C18 1_555 1_555
H31 C18 1_555 1_555
C19 N2 1_555 1_555
H32 C19 1_555 1_555
H33 C19 1_555 1_555
C20 N2 1_555 1_555
H34 C20 1_555 1_555
H35 C20 1_555 1_555
H36 C20 1_555 1_555
C21 N2 1_555 1_555
H37 C21 1_555 1_555
H38 C21 1_555 1_555
H39 C21 1_555 1_555
Na1A S1 1_555 1_555
S1A Na1 1_555 1_555
C5 C6 1_555 1_555
C18 C19 1_555 1_555

#END
