
#######################################################################
#
#                 Cambridge Crystallographic Data Centre
#                                CCDC 
#
#######################################################################
#
# If this CIF has been generated from an entry in the Cambridge 
# Structural Database, then it will include bibliographic, chemical, 
# crystal, experimental, refinement or atomic coordinate data resulting 
# from the CCDC's data processing and validation procedures.
#
#######################################################################

data_NIYNAK
_symmetry_cell_setting           orthorhombic
_symmetry_space_group_name_H-M   'P b c a'
_symmetry_Int_Tables_number      61
_space_group_name_Hall           '-P 2ac 2ab'
loop_
_symmetry_equiv_pos_site_id
_symmetry_equiv_pos_as_xyz
1 x,y,z
2 1/2+x,y,1/2-z
3 x,1/2-y,1/2+z
4 1/2-x,1/2+y,z
5 -x,-y,-z
6 1/2-x,-y,1/2+z
7 -x,1/2+y,1/2-z
8 1/2+x,1/2-y,-z
_cell_length_a                   10.4903(2)
_cell_length_b                   20.1551(5)
_cell_length_c                   26.4295(4)
_cell_angle_alpha                90
_cell_angle_beta                 90
_cell_angle_gamma                90
_cell_volume                     5588.07
loop_
_atom_site_label
_atom_site_type_symbol
_atom_site_fract_x
_atom_site_fract_y
_atom_site_fract_z
K1 K 0.89835(7) 0.08596(3) 0.70800(2)
S1 S 1.20123(8) 0.07473(4) 0.70179(3)
C1 C 1.2609(3) 0.10852(15) 0.64477(10)
C2 C 1.3078(3) 0.06624(14) 0.60599(10)
C3 C 1.3601(3) 0.0934(2) 0.56245(11)
H1 H 1.3917(3) 0.0649(2) 0.53781(11)
C4 C 1.3674(4) 0.1615(2) 0.55400(11)
C5 C 1.3158(3) 0.2023(2) 0.59120(11)
H2 H 1.3153(3) 0.2479(2) 0.58582(11)
C6 C 1.2646(3) 0.1778(2) 0.63627(11)
C7 C 1.3043(3) -0.00855(15) 0.61177(11)
H3 H 1.2343(3) -0.01886(15) 0.63502(11)
C8 C 1.4264(3) -0.0337(2) 0.63635(14)
H4 H 1.4224(3) -0.0811(2) 0.63969(14)
H5 H 1.4357(3) -0.0140(2) 0.66921(14)
H6 H 1.4981(3) -0.0219(2) 0.61566(14)
C9 C 1.2782(4) -0.0463(2) 0.56266(12)
H7 H 1.2774(4) -0.0931(2) 0.56939(12)
H8 H 1.3438(4) -0.0364(2) 0.53848(12)
H9 H 1.1970(4) -0.0331(2) 0.54929(12)
C10 C 1.4303(4) 0.1870(2) 0.50550(12)
H10 H 1.5108(4) 0.1626(2) 0.50261(12)
C11 C 1.3521(4) 0.1669(2) 0.45941(12)
H11 H 1.3323(4) 0.1204(2) 0.46138(12)
H12 H 1.4003(4) 0.1754(2) 0.42922(12)
H13 H 1.2745(4) 0.1921(2) 0.45860(12)
C12 C 1.4659(4) 0.2577(2) 0.50613(13)
H14 H 1.5148(4) 0.2670(2) 0.53602(13)
H15 H 1.3902(4) 0.2845(2) 0.50608(13)
H16 H 1.5160(4) 0.2677(2) 0.47671(13)
C13 C 1.2140(3) 0.2266(2) 0.67551(12)
H17 H 1.2025(3) 0.2018(2) 0.70710(12)
C14 C 1.3043(4) 0.2830(2) 0.6867(2)
H18 H 1.3859(4) 0.2654(2) 0.6963(2)
H19 H 1.2708(4) 0.3093(2) 0.7139(2)
H20 H 1.3137(4) 0.3101(2) 0.6571(2)
C15 C 1.0848(4) 0.2527(2) 0.6603(2)
H21 H 1.0288(4) 0.2161(2) 0.6534(2)
H22 H 1.0932(4) 0.2796(2) 0.6306(2)
H23 H 1.0502(4) 0.2789(2) 0.6874(2)
N1 N 0.7209(2) 0.16863(12) 0.65312(9)
N2 N 0.8476(3) 0.05427(12) 0.60213(9)
N3 N 0.8762(3) -0.04928(12) 0.68201(9)
C16 C 0.7131(4) 0.2385(2) 0.66731(13)
H24 H 0.7894(4) 0.2609(2) 0.65678(13)
H25 H 0.7042(4) 0.2421(2) 0.70336(13)
H26 H 0.6407(4) 0.2584(2) 0.65113(13)
C17 C 0.6050(3) 0.1343(2) 0.66910(12)
H27 H 0.6103(3) 0.0884(2) 0.65973(12)
H28 H 0.5325(3) 0.1542(2) 0.65292(12)
H29 H 0.5960(3) 0.1378(2) 0.70514(12)
C18 C 0.7387(3) 0.1642(2) 0.59795(10)
H30 H 0.8159(3) 0.1878(2) 0.58885(10)
H31 H 0.6678(3) 0.1862(2) 0.58142(10)
C19 C 0.7477(3) 0.0938(2) 0.57810(11)
H32 H 0.6664(3) 0.0719(2) 0.58325(11)
H33 H 0.7636(3) 0.0953(2) 0.54196(11)
C20 C 0.9736(3) 0.0752(2) 0.58489(12)
H34 H 0.9842(3) 0.1218(2) 0.59117(12)
H35 H 0.9815(3) 0.0667(2) 0.54928(12)
H36 H 1.0378(3) 0.0508(2) 0.60287(12)
C21 C 0.8284(4) -0.01645(15) 0.59311(11)
H37 H 0.8523(4) -0.02649(15) 0.55849(11)
H38 H 0.7384(4) -0.02650(15) 0.59683(11)
C22 C 0.9037(4) -0.0608(2) 0.62835(12)
H39 H 0.8850(4) -0.1068(2) 0.62032(12)
H40 H 0.9940(4) -0.0537(2) 0.62249(12)
C23 C 0.9667(4) -0.0864(2) 0.71348(13)
H41 H 1.0522(4) -0.0744(2) 0.70431(13)
H42 H 0.9547(4) -0.1331(2) 0.70825(13)
H43 H 0.9525(4) -0.0760(2) 0.74847(13)
C24 C 0.7472(4) -0.0673(2) 0.69577(13)
H44 H 0.7341(4) -0.0588(2) 0.73113(13)
H45 H 0.7338(4) -0.1136(2) 0.68902(13)
H46 H 0.6880(4) -0.0414(2) 0.67628(13)
K1A K 1.39835(7) 0.08596(3) 0.79200(2)
S1A S 0.70123(8) 0.07473(4) 0.79821(3)
loop_
_geom_bond_atom_site_label_1
_geom_bond_atom_site_label_2
_geom_bond_site_symmetry_1
_geom_bond_site_symmetry_2
K1 S1 1_555 1_555
S1 C1 1_555 1_555
C1 C2 1_555 1_555
C2 C3 1_555 1_555
C3 H1 1_555 1_555
C4 C3 1_555 1_555
C5 C4 1_555 1_555
H2 C5 1_555 1_555
C6 C1 1_555 1_555
C7 C2 1_555 1_555
H3 C7 1_555 1_555
C8 C7 1_555 1_555
H4 C8 1_555 1_555
H5 C8 1_555 1_555
H6 C8 1_555 1_555
C9 C7 1_555 1_555
H7 C9 1_555 1_555
H8 C9 1_555 1_555
H9 C9 1_555 1_555
C10 C4 1_555 1_555
H10 C10 1_555 1_555
C11 C10 1_555 1_555
H11 C11 1_555 1_555
H12 C11 1_555 1_555
H13 C11 1_555 1_555
C12 C10 1_555 1_555
H14 C12 1_555 1_555
H15 C12 1_555 1_555
H16 C12 1_555 1_555
C13 C6 1_555 1_555
H17 C13 1_555 1_555
C14 C13 1_555 1_555
H18 C14 1_555 1_555
H19 C14 1_555 1_555
H20 C14 1_555 1_555
C15 C13 1_555 1_555
H21 C15 1_555 1_555
H22 C15 1_555 1_555
H23 C15 1_555 1_555
N1 K1 1_555 1_555
N2 K1 1_555 1_555
N3 K1 1_555 1_555
C16 N1 1_555 1_555
H24 C16 1_555 1_555
H25 C16 1_555 1_555
H26 C16 1_555 1_555
C17 N1 1_555 1_555
H27 C17 1_555 1_555
H28 C17 1_555 1_555
H29 C17 1_555 1_555
C18 N1 1_555 1_555
H30 C18 1_555 1_555
H31 C18 1_555 1_555
C19 N2 1_555 1_555
H32 C19 1_555 1_555
H33 C19 1_555 1_555
C20 N2 1_555 1_555
H34 C20 1_555 1_555
H35 C20 1_555 1_555
H36 C20 1_555 1_555
C21 N2 1_555 1_555
H37 C21 1_555 1_555
H38 C21 1_555 1_555
C22 N3 1_555 1_555
H39 C22 1_555 1_555
H40 C22 1_555 1_555
C23 N3 1_555 1_555
H41 C23 1_555 1_555
H42 C23 1_555 1_555
H43 C23 1_555 1_555
C24 N3 1_555 1_555
H44 C24 1_555 1_555
H45 C24 1_555 1_555
H46 C24 1_555 1_555
K1A S1 1_555 1_555
S1A K1 1_555 1_555
C5 C6 1_555 1_555
C18 C19 1_555 1_555
C21 C22 1_555 1_555

#END
