
#######################################################################
#
#                 Cambridge Crystallographic Data Centre
#                                CCDC 
#
#######################################################################
#
# If this CIF has been generated from an entry in the Cambridge 
# Structural Database, then it will include bibliographic, chemical, 
# crystal, experimental, refinement or atomic coordinate data resulting 
# from the CCDC's data processing and validation procedures.
#
#######################################################################

data_NIYPIW
_symmetry_cell_setting           monoclinic
_symmetry_space_group_name_H-M   'P 21/c'
_symmetry_Int_Tables_number      14
_space_group_name_Hall           '-P 2ybc'
loop_
_symmetry_equiv_pos_site_id
_symmetry_equiv_pos_as_xyz
1 x,y,z
2 -x,1/2+y,1/2-z
3 -x,-y,-z
4 x,1/2-y,1/2+z
_cell_length_a                   10.303(5)
_cell_length_b                   9.432(5)
_cell_length_c                   14.215(5)
_cell_angle_alpha                90
_cell_angle_beta                 98.407(5)
_cell_angle_gamma                90
_cell_volume                     1366.54
loop_
_atom_site_label
_atom_site_type_symbol
_atom_site_fract_x
_atom_site_fract_y
_atom_site_fract_z
Zn1 Zn 0.06718(2) 0.15111(3) 0.084291(19)
O1 O 0.16842(17) 0.4321(2) 0.49205(13)
O2 O 0.12404(19) 0.2366(2) 0.28994(14)
O3 O 0.21121(18) 0.2497(2) 0.15687(14)
C1 C 0.2044(2) 0.2849(3) 0.24263(17)
N1 N -0.2543(2) 0.3879(2) -0.02097(16)
O4 O 0.05623(16) 0.52469(19) 0.35978(12)
C2 C -0.1008(3) 0.2819(4) -0.0847(2)
H1 H -0.0519 0.2434 -0.1285
C3 C 0.5014(2) 0.5709(3) 0.3732(2)
H2 H 0.5669 0.6304 0.4029
C4 C -0.4907(3) 0.3737(3) -0.0480(2)
H3 H -0.4834 0.2892 -0.0805
C5 C 0.1571(2) 0.4727(2) 0.40743(16)
C6 C 0.3051(2) 0.3899(2) 0.28659(16)
C7 C 0.2835(2) 0.4720(2) 0.36435(16)
C8 C 0.4247(2) 0.4025(3) 0.25207(19)
H4 H 0.4391 0.3500 0.1992
C9 C 0.3820(2) 0.5613(3) 0.40721(18)
H5 H 0.3677 0.6155 0.4594
N2 N -0.06450(19) 0.2827(2) 0.01281(16)
C10 C -0.1588(2) 0.3483(2) 0.0498(2)
C11 C -0.3794(2) 0.4469(3) -0.01043(17)
C12 C 0.5223(2) 0.4919(3) 0.29537(19)
H6 H 0.6017 0.4985 0.2719
C13 C -0.1614(3) 0.3723(3) 0.1525(2)
H7 H -0.1384 0.4689 0.1681
H8 H -0.0997 0.3101 0.1889
H9 H -0.2479 0.3533 0.1669
C14 C -0.2180(3) 0.3456(3) -0.1062(2)
H10 H -0.2652 0.3585 -0.1665
C15 C -0.6136(2) 0.4260(3) -0.0375(2)
H11 H -0.6893 0.3770 -0.0620
N1B N -0.7457(2) 0.6121(2) 0.02097(16)
C2B C -0.8992(3) 0.7181(4) 0.0847(2)
H1B H -0.9481 0.7566 0.1285
C4B C -0.5093(3) 0.6263(3) 0.0480(2)
H3B H -0.5166 0.7108 0.0805
N2B N -0.93550(19) 0.7173(2) -0.01281(16)
C10B C -0.8412(2) 0.6517(2) -0.0498(2)
C11B C -0.6206(2) 0.5531(3) 0.01043(17)
C13B C -0.8386(3) 0.6277(3) -0.1525(2)
H7B H -0.8616 0.5311 -0.1681
H8B H -0.9003 0.6899 -0.1889
H9B H -0.7521 0.6467 -0.1669
C14B C -0.7820(3) 0.6544(3) 0.1062(2)
H10B H -0.7348 0.6415 0.1665
C15B C -0.3864(2) 0.5740(3) 0.0375(2)
H11B H -0.3107 0.6230 0.0620
Zn1B Zn -1.06718(2) 0.84889(3) -0.084291(19)
O1B O -1.16842(17) 0.5679(2) -0.49205(13)
O2B O -1.12404(19) 0.7634(2) -0.28994(14)
O3B O -1.21121(18) 0.7503(2) -0.15687(14)
C1B C -1.2044(2) 0.7151(3) -0.24263(17)
O4B O -1.05623(16) 0.47531(19) -0.35978(12)
C3B C -1.5014(2) 0.4291(3) -0.3732(2)
H2B H -1.5669 0.3696 -0.4029
C5B C -1.1571(2) 0.5273(2) -0.40743(16)
C6B C -1.3051(2) 0.6101(2) -0.28659(16)
C7B C -1.2835(2) 0.5280(2) -0.36435(16)
C8B C -1.4247(2) 0.5975(3) -0.25207(19)
H4B H -1.4391 0.6500 -0.1992
C9B C -1.3820(2) 0.4387(3) -0.40721(18)
H5B H -1.3677 0.3845 -0.4594
C12B C -1.5223(2) 0.5081(3) -0.29537(19)
H6B H -1.6017 0.5015 -0.2719
Zn1A Zn -1.06718(2) 0.65111(3) -0.584291(19)
Zn1A_2 Zn -0.06718(2) 0.65111(3) 0.415709(19)
Zn1C Zn -0.93282(2) 0.34889(3) -0.415709(19)
Zn1C_2 Zn 0.06718(2) 0.34889(3) 0.584291(19)
O1A O -1.16842(17) 0.9321(2) 0.00795(13)
O1C O 0.16842(17) 0.0679(2) -0.00795(13)
O4A O -0.05623(16) 0.02469(19) 0.14022(12)
O4C O -0.94377(16) 0.97531(19) -0.14022(12)
loop_
_geom_bond_atom_site_label_1
_geom_bond_atom_site_label_2
_geom_bond_site_symmetry_1
_geom_bond_site_symmetry_2
Zn1 O3 1_555 1_555
O1 C5 1_555 1_555
O2 C1 1_555 1_555
O3 C1 1_555 1_555
C1 C6 1_555 1_555
N1 C10 1_555 1_555
O4 C5 1_555 1_555
C2 H1 1_555 1_555
C3 H2 1_555 1_555
C4 H3 1_555 1_555
C5 C7 1_555 1_555
C6 C7 1_555 1_555
C7 C9 1_555 1_555
C8 C6 1_555 1_555
H4 C8 1_555 1_555
C9 C3 1_555 1_555
H5 C9 1_555 1_555
N2 Zn1 1_555 1_555
C10 N2 1_555 1_555
C11 N1 1_555 1_555
C12 C3 1_555 1_555
H6 C12 1_555 1_555
C13 C10 1_555 1_555
H7 C13 1_555 1_555
H8 C13 1_555 1_555
H9 C13 1_555 1_555
C14 N1 1_555 1_555
H10 C14 1_555 1_555
C15 C4 1_555 1_555
H11 C15 1_555 1_555
N1B C10B 1_555 1_555
C2B H1B 1_555 1_555
C4B H3B 1_555 1_555
N2B C2B 1_555 1_555
C10B N2B 1_555 1_555
C11B C15 1_555 1_555
C13B C10B 1_555 1_555
H7B C13B 1_555 1_555
H8B C13B 1_555 1_555
H9B C13B 1_555 1_555
C14B N1B 1_555 1_555
H10B C14B 1_555 1_555
C15B C11 1_555 1_555
H11B C15B 1_555 1_555
Zn1B N2B 1_555 1_555
O1B C5B 1_555 1_555
O2B C1B 1_555 1_555
O3B Zn1B 1_555 1_555
C1B O3B 1_555 1_555
O4B C5B 1_555 1_555
C3B H2B 1_555 1_555
C5B C7B 1_555 1_555
C6B C1B 1_555 1_555
C7B C6B 1_555 1_555
C8B C6B 1_555 1_555
H4B C8B 1_555 1_555
C9B C3B 1_555 1_555
H5B C9B 1_555 1_555
C12B C3B 1_555 1_555
H6B C12B 1_555 1_555
Zn1A O1B 1_555 1_555
Zn1A_2 O4 1_555 1_555
Zn1C O4B 1_555 1_555
Zn1C_2 O1 1_555 1_555
O1A Zn1B 1_555 1_555
O1C Zn1 1_555 1_555
O4A Zn1 1_555 1_555
O4C Zn1B 1_555 1_555
C2 N2 1_555 1_555
C2 C14 1_555 1_555
C4 C11 1_555 1_555
C8 C12 1_555 1_555
N1B C11B 1_555 1_555
C2B C14B 1_555 1_555
C4B C11B 1_555 1_555
C4B C15B 1_555 1_555
C7B C9B 1_555 1_555
C8B C12B 1_555 1_555

#END
