
#######################################################################
#
#                 Cambridge Crystallographic Data Centre
#                                CCDC 
#
#######################################################################
#
# If this CIF has been generated from an entry in the Cambridge 
# Structural Database, then it will include bibliographic, chemical, 
# crystal, experimental, refinement or atomic coordinate data resulting 
# from the CCDC's data processing and validation procedures.
#
#######################################################################

data_NIYPOC
_symmetry_cell_setting           monoclinic
_symmetry_space_group_name_H-M   'P 21/c'
_symmetry_Int_Tables_number      14
_space_group_name_Hall           '-P 2ybc'
loop_
_symmetry_equiv_pos_site_id
_symmetry_equiv_pos_as_xyz
1 x,y,z
2 -x,1/2+y,1/2-z
3 -x,-y,-z
4 x,1/2-y,1/2+z
_cell_length_a                   10.525(5)
_cell_length_b                   17.773(5)
_cell_length_c                   12.684(5)
_cell_angle_alpha                90
_cell_angle_beta                 95.927(5)
_cell_angle_gamma                90
_cell_volume                     2360
loop_
_atom_site_label
_atom_site_type_symbol
_atom_site_fract_x
_atom_site_fract_y
_atom_site_fract_z
Zn1 Zn 0.94954(2) 0.203301(15) 0.72851(2)
N1 N 0.3701(2) -0.17520(13) 0.89917(17)
O1 O 1.03495(19) 0.15040(11) 0.61941(16)
O2 O 1.0953(2) 0.26546(11) 0.57649(17)
O3 O 1.2105(2) 0.30518(12) 0.3278(2)
O4 O 1.04435(17) 0.22812(11) 0.33012(15)
N2 N 0.7667(2) 0.03502(12) 0.88290(18)
C1 C 1.1043(2) 0.19649(14) 0.57287(19)
C2 C 0.4719(2) -0.12154(14) 0.8959(2)
N3 N 0.2014(2) -0.24396(12) 0.85074(17)
N4 N 0.8842(2) 0.12388(12) 0.82269(17)
C3 C 1.2093(2) 0.16173(14) 0.51636(19)
C4 C 1.2836(3) 0.10577(16) 0.5685(2)
H1 H 1.2604 0.0861 0.6317
C5 C 0.6666(2) -0.01929(14) 0.8881(2)
C6 C 0.7914(2) 0.07490(15) 0.7965(2)
C7 C 0.8497(3) 0.05922(16) 0.9676(2)
H2 H 0.8554 0.0413 1.0369
C8 C 1.2416(2) 0.18920(14) 0.4196(2)
C9 C 0.6949(3) -0.09156(16) 0.9241(3)
H3 H 0.7789 -0.1054 0.9453
C10 C 0.2792(2) -0.19231(15) 0.8191(2)
C11 C 0.5969(3) -0.14301(15) 0.9281(2)
H4 H 0.6145 -0.1917 0.9522
C12 C 1.3489(3) 0.16080(16) 0.3776(2)
H5 H 1.3702 0.1785 0.3127
C13 C 0.2440(3) -0.26030(18) 0.9546(2)
H6 H 0.2065 -0.2949 0.9968
C14 C 0.5424(3) 0.00253(15) 0.8588(2)
H7 H 0.5247 0.0516 0.8363
C15 C 0.4439(2) -0.04866(15) 0.8630(2)
H8 H 0.3598 -0.0342 0.8440
C16 C 1.1615(2) 0.24669(14) 0.35550(19)
C17 C 0.3481(3) -0.21863(18) 0.9861(2)
H9 H 0.3952 -0.2190 1.0523
C18 C 0.2704(3) -0.1603(2) 0.7111(2)
H10 H 0.1961 -0.1799 0.6700
H11 H 0.3453 -0.1737 0.6781
H12 H 0.2642 -0.1065 0.7150
C19 C 1.3920(3) 0.07896(17) 0.5273(3)
H13 H 1.4429 0.0426 0.5637
C20 C 1.4240(3) 0.10683(17) 0.4313(3)
H14 H 1.4963 0.0890 0.4031
C21 C 0.9209(3) 0.11411(16) 0.9295(2)
H15 H 0.9848 0.1412 0.9691
C22 C 0.7282(4) 0.0629(2) 0.6874(2)
H16 H 0.6601 0.0986 0.6732
H17 H 0.6942 0.0128 0.6815
H18 H 0.7894 0.0695 0.6371
Zn1A Zn 0.05046(2) -0.296699(15) 0.77149(2)
Zn1C Zn 0.94954(2) 0.296699(15) 0.22851(2)
O4C O 1.04435(17) 0.27188(11) 0.83012(15)
N3A N 0.7986(2) 0.25604(12) 0.64926(17)
O5 O 0.1710(2) 0.47108(14) 0.2997(2)
H19 H 0.1164 0.4908 0.2537
H20 H 0.1397 0.4316 0.3247
O6 O 0.4668(2) 0.31448(13) 0.2760(3)
H21 H 0.4644 0.2924 0.2163
H22 H 0.3913 0.3190 0.2935
O7 O 0.9655(2) 0.5839(3) 0.2688(8)
H23 H 1.0439 0.5724 0.2823
H24 H 0.9315 0.5561 0.2192
loop_
_geom_bond_atom_site_label_1
_geom_bond_atom_site_label_2
_geom_bond_site_symmetry_1
_geom_bond_site_symmetry_2
Zn1 O1 1_555 1_555
N1 C2 1_555 1_555
O1 C1 1_555 1_555
O2 C1 1_555 1_555
O3 C16 1_555 1_555
O4 C16 1_555 1_555
N2 C5 1_555 1_555
C1 C3 1_555 1_555
C2 C11 1_555 1_555
N3 C10 1_555 1_555
N4 Zn1 1_555 1_555
C3 C4 1_555 1_555
C4 H1 1_555 1_555
C5 C9 1_555 1_555
C6 N2 1_555 1_555
C7 N2 1_555 1_555
H2 C7 1_555 1_555
C8 C3 1_555 1_555
C9 H3 1_555 1_555
C10 N1 1_555 1_555
C11 C9 1_555 1_555
H4 C11 1_555 1_555
C12 C8 1_555 1_555
H5 C12 1_555 1_555
C13 N3 1_555 1_555
H6 C13 1_555 1_555
C14 C5 1_555 1_555
H7 C14 1_555 1_555
C15 C2 1_555 1_555
H8 C15 1_555 1_555
C16 C8 1_555 1_555
C17 N1 1_555 1_555
H9 C17 1_555 1_555
C18 C10 1_555 1_555
H10 C18 1_555 1_555
H11 C18 1_555 1_555
H12 C18 1_555 1_555
C19 C4 1_555 1_555
H13 C19 1_555 1_555
C20 C12 1_555 1_555
H14 C20 1_555 1_555
C21 N4 1_555 1_555
H15 C21 1_555 1_555
C22 C6 1_555 1_555
H16 C22 1_555 1_555
H17 C22 1_555 1_555
H18 C22 1_555 1_555
O5 H19 1_555 1_555
H20 O5 1_555 1_555
O6 H21 1_555 1_555
H22 O6 1_555 1_555
O7 H23 1_555 1_555
H24 O7 1_555 1_555
Zn1A N3 1_555 1_555
Zn1C O4 1_555 1_555
O4C Zn1 1_555 1_555
N3A Zn1 1_555 1_555
N4 C6 1_555 1_555
C7 C21 1_555 1_555
C13 C17 1_555 1_555
C14 C15 1_555 1_555
C19 C20 1_555 1_555

#END
