
#######################################################################
#
#                 Cambridge Crystallographic Data Centre
#                                CCDC 
#
#######################################################################
#
# If this CIF has been generated from an entry in the Cambridge 
# Structural Database, then it will include bibliographic, chemical, 
# crystal, experimental, refinement or atomic coordinate data resulting 
# from the CCDC's data processing and validation procedures.
#
#######################################################################

data_NIYVAT
_symmetry_cell_setting           monoclinic
_symmetry_space_group_name_H-M   'P 21/n'
_symmetry_Int_Tables_number      14
_space_group_name_Hall           '-P 2yn'
loop_
_symmetry_equiv_pos_site_id
_symmetry_equiv_pos_as_xyz
1 x,y,z
2 1/2-x,1/2+y,1/2-z
3 -x,-y,-z
4 1/2+x,1/2-y,1/2+z
_cell_length_a                   13.179(2)
_cell_length_b                   10.5389(16)
_cell_length_c                   22.155(3)
_cell_angle_alpha                90
_cell_angle_beta                 97.296(2)
_cell_angle_gamma                90
_cell_volume                     3052.24
loop_
_atom_site_label
_atom_site_type_symbol
_atom_site_fract_x
_atom_site_fract_y
_atom_site_fract_z
Ag1 Ag 0.75334(2) 0.08258(3) 0.727091(16)
Ag2 Ag 0.81840(3) 0.34492(3) 0.729006(15)
N1 N 0.7398(2) 0.2287(3) 0.82940(15)
N2 N 0.9306(2) 0.2999(3) 0.80445(14)
N3 N 1.0328(3) 0.3024(3) 0.80438(16)
H1 H 1.0622 0.3182 0.7727
N4 N 0.6013(2) 0.1399(3) 0.73570(17)
N5 N 0.5150(3) 0.1219(4) 0.69646(19)
H2 H 0.5144 0.0987 0.6592
N6 N 0.8901(2) -0.0488(3) 0.82231(13)
N7 N 0.7054(2) -0.1114(3) 0.86535(14)
N8 N 0.6304(2) -0.1274(3) 0.90055(15)
H3 H 0.5675 -0.1406 0.8864
N9 N 0.8967(2) 0.0273(3) 0.70193(14)
N10 N 0.9249(2) 0.0477(3) 0.64623(15)
H4 H 0.8831 0.0694 0.6150
C1 C 0.6438(3) 0.2069(4) 0.8405(2)
C2 C 0.6165(4) 0.2125(5) 0.8990(2)
H5 H 0.5493 0.1976 0.9058
C3 C 0.6899(5) 0.2401(6) 0.9465(2)
H6 H 0.6733 0.2440 0.9860
C4 C 0.7884(4) 0.2619(5) 0.9352(2)
H7 H 0.8391 0.2814 0.9670
C5 C 0.8115(3) 0.2547(4) 0.87629(18)
C6 C 0.9156(3) 0.2721(4) 0.86131(17)
C7 C 1.0092(3) 0.2587(4) 0.89729(19)
H8 H 1.0200 0.2406 0.9387
C8 C 1.0831(3) 0.2776(4) 0.8593(2)
C9 C 1.1973(4) 0.2701(6) 0.8696(3)
H9 H 1.2242 0.2884 0.8323
H10 H 1.2178 0.1862 0.8831
H11 H 1.2233 0.3307 0.9000
C10 C 0.5689(3) 0.1747(4) 0.7882(2)
C11 C 0.4625(3) 0.1773(5) 0.7809(3)
H12 H 0.4211 0.1976 0.8105
C12 C 0.4309(3) 0.1447(4) 0.7227(3)
C13 C 0.3262(4) 0.1333(6) 0.6870(3)
H13 H 0.3326 0.1066 0.6463
H14 H 0.2925 0.2142 0.6860
H15 H 0.2868 0.0720 0.7061
C14 C 0.9816(3) -0.0362(3) 0.80166(17)
C15 C 1.0738(3) -0.0527(4) 0.83876(18)
H16 H 1.1357 -0.0430 0.8233
C16 C 1.0718(3) -0.0836(4) 0.89888(19)
H17 H 1.1325 -0.0962 0.9245
C17 C 0.9797(3) -0.0955(4) 0.92069(18)
H18 H 0.9773 -0.1154 0.9614
C18 C 0.8898(3) -0.0777(3) 0.88133(17)
C19 C 0.7904(3) -0.0941(4) 0.90373(17)
C20 C 0.7671(3) -0.0989(4) 0.96367(18)
H19 H 0.8125 -0.0894 0.9991
C21 C 0.6641(3) -0.1205(4) 0.95973(19)
C22 C 0.5940(4) -0.1401(5) 1.0072(2)
H20 H 0.5255 -0.1531 0.9877
H21 H 0.5958 -0.0666 1.0329
H22 H 0.6158 -0.2131 1.0313
C23 C 0.9815(3) -0.0036(4) 0.73712(17)
C24 C 1.0642(3) -0.0034(4) 0.70291(19)
H23 H 1.1321 -0.0223 0.7168
C25 C 1.0247(3) 0.0304(4) 0.64512(19)
C26 C 1.0727(4) 0.0502(6) 0.5880(2)
H24 H 1.0210 0.0740 0.5555
H25 H 1.1049 -0.0270 0.5775
H26 H 1.1231 0.1163 0.5944
Ag1A Ag 0.74666(2) 0.58258(3) 0.772909(16)
Ag2A Ag 0.68160(3) -0.15508(3) 0.770994(15)
N7A N 0.7946(2) 0.3886(3) 0.63465(14)
N11 N 0.7174(4) 0.0820(4) 0.5405(3)
O1 O 0.7070(3) 0.0889(4) 0.5939(2)
O2 O 0.6420(4) 0.0897(5) 0.5018(2)
O3 O 0.8054(4) 0.0724(4) 0.5260(2)
N12 N 0.1315(3) 0.3889(4) 0.6702(2)
O4 O 0.1962(3) 0.4046(4) 0.71456(19)
O5 O 0.0487(2) 0.3403(4) 0.67866(15)
O6 O 0.1471(4) 0.4172(6) 0.6193(2)
O7 O 0.5296(4) 0.9047(5) 0.4298(2)
H27 H 0.4697(19) 0.913(5) 0.441(2)
H28 H 0.565(3) 0.963(4) 0.449(2)
loop_
_geom_bond_atom_site_label_1
_geom_bond_atom_site_label_2
_geom_bond_site_symmetry_1
_geom_bond_site_symmetry_2
Ag1 Ag2 1_555 1_555
Ag2 N2 1_555 1_555
N1 C1 1_555 1_555
N2 N3 1_555 1_555
N3 H1 1_555 1_555
N4 Ag1 1_555 1_555
N5 N4 1_555 1_555
H2 N5 1_555 1_555
N6 C14 1_555 1_555
N7 N8 1_555 1_555
N8 H3 1_555 1_555
N9 Ag1 1_555 1_555
N10 N9 1_555 1_555
H4 N10 1_555 1_555
N11 O1 1_555 1_555
N12 O4 1_555 1_555
O2 N11 1_555 1_555
O3 N11 1_555 1_555
O5 N12 1_555 1_555
O6 N12 1_555 1_555
O7 H27 1_555 1_555
C1 C2 1_555 1_555
C2 H5 1_555 1_555
C3 C2 1_555 1_555
H6 C3 1_555 1_555
C4 C3 1_555 1_555
H7 C4 1_555 1_555
C5 N1 1_555 1_555
C6 N2 1_555 1_555
C7 C6 1_555 1_555
H8 C7 1_555 1_555
C8 N3 1_555 1_555
C9 C8 1_555 1_555
H9 C9 1_555 1_555
H10 C9 1_555 1_555
H11 C9 1_555 1_555
C10 N4 1_555 1_555
C11 C10 1_555 1_555
H12 C11 1_555 1_555
C12 N5 1_555 1_555
C13 C12 1_555 1_555
H13 C13 1_555 1_555
H14 C13 1_555 1_555
H15 C13 1_555 1_555
C14 C15 1_555 1_555
C15 H16 1_555 1_555
C16 C15 1_555 1_555
H17 C16 1_555 1_555
C17 C16 1_555 1_555
H18 C17 1_555 1_555
C18 N6 1_555 1_555
C19 N7 1_555 1_555
C20 C19 1_555 1_555
H19 C20 1_555 1_555
C21 N8 1_555 1_555
C22 C21 1_555 1_555
H20 C22 1_555 1_555
H21 C22 1_555 1_555
H22 C22 1_555 1_555
C23 N9 1_555 1_555
C24 C23 1_555 1_555
H23 C24 1_555 1_555
C25 N10 1_555 1_555
C26 C25 1_555 1_555
H24 C26 1_555 1_555
H25 C26 1_555 1_555
H26 C26 1_555 1_555
H28 O7 1_555 1_555
Ag1A Ag2 1_555 1_555
Ag2A Ag1 1_555 1_555
N7A Ag2 1_555 1_555
N7 Ag2A 1_555 1_555
C1 C10 1_555 1_555
C4 C5 1_555 1_555
C5 C6 1_555 1_555
C7 C8 1_555 1_555
C11 C12 1_555 1_555
C14 C23 1_555 1_555
C17 C18 1_555 1_555
C18 C19 1_555 1_555
C20 C21 1_555 1_555
C24 C25 1_555 1_555

#END
