
#######################################################################
#
#                 Cambridge Crystallographic Data Centre
#                                CCDC 
#
#######################################################################
#
# If this CIF has been generated from an entry in the Cambridge 
# Structural Database, then it will include bibliographic, chemical, 
# crystal, experimental, refinement or atomic coordinate data resulting 
# from the CCDC's data processing and validation procedures.
#
#######################################################################

data_NIYVAU
_symmetry_cell_setting           monoclinic
_symmetry_space_group_name_H-M   'P 21/n'
_symmetry_Int_Tables_number      14
_space_group_name_Hall           '-P 2yn'
loop_
_symmetry_equiv_pos_site_id
_symmetry_equiv_pos_as_xyz
1 x,y,z
2 1/2-x,1/2+y,1/2-z
3 -x,-y,-z
4 1/2+x,1/2-y,1/2+z
_cell_length_a                   8.8762(8)
_cell_length_b                   14.2372(14)
_cell_length_c                   9.5878(9)
_cell_angle_alpha                90
_cell_angle_beta                 104.964(2)
_cell_angle_gamma                90
_cell_volume                     1170.54
loop_
_atom_site_label
_atom_site_type_symbol
_atom_site_fract_x
_atom_site_fract_y
_atom_site_fract_z
Co1 Co 0.25365(4) 0.21493(2) 0.11357(3)
Cl1 Cl 0.03672(8) 0.22325(5) 0.19158(8)
Cl2 Cl 0.22386(8) 0.15352(6) -0.10586(7)
N1 N 0.3503(2) 0.34291(13) 0.1133(2)
N2 N 0.3658(2) 0.41178(14) 0.2134(2)
N3 N 0.4134(2) 0.13497(14) 0.2583(2)
N4 N 0.5304(3) 0.08313(15) 0.2309(2)
C1 C 0.3155(3) 0.3991(2) 0.3455(3)
H1 H 0.3788 0.3510 0.4045
H2 H 0.2069 0.3801 0.3211
H3 H 0.3274 0.4577 0.3987
C2 C 0.4355(3) 0.48681(16) 0.1747(3)
H4 H 0.4604 0.5426 0.2282
C3 C 0.4646(3) 0.46860(16) 0.0428(2)
C4 C 0.4096(3) 0.37736(16) 0.0101(3)
H5 H 0.4138 0.3446 -0.0739
C5 C 0.6047(4) 0.1093(2) 0.1180(3)
H6 H 0.6626 0.1672 0.1446
H7 H 0.5256 0.1184 0.0280
H8 H 0.6754 0.0598 0.1060
C6 C 0.5804(3) 0.01861(18) 0.3343(3)
H9 H 0.6604 -0.0253 0.3379
C7 C 0.4942(3) 0.02779(16) 0.4347(2)
C8 C 0.3922(3) 0.10152(17) 0.3821(3)
H10 H 0.3180 0.1248 0.4278
N1B N 0.6497(2) 0.65709(13) -0.1133(2)
N2B N 0.6342(2) 0.58822(14) -0.2134(2)
C1B C 0.6845(3) 0.6009(2) -0.3455(3)
H1B H 0.6212 0.6490 -0.4045
H2B H 0.7931 0.6199 -0.3211
H3B H 0.6726 0.5423 -0.3987
C2B C 0.5645(3) 0.51319(16) -0.1747(3)
H4B H 0.5396 0.4574 -0.2282
C3B C 0.5354(3) 0.53140(16) -0.0428(2)
C4B C 0.5904(3) 0.62264(16) -0.0101(3)
H5B H 0.5862 0.6554 0.0739
N3B N 0.5866(2) -0.13497(14) 0.7417(2)
N4B N 0.4696(3) -0.08313(15) 0.7691(2)
C5B C 0.3953(4) -0.1093(2) 0.8820(3)
H6B H 0.3374 -0.1672 0.8554
H7B H 0.4744 -0.1184 0.9720
H8B H 0.3246 -0.0598 0.8940
C6B C 0.4196(3) -0.01861(18) 0.6657(3)
H9B H 0.3396 0.0253 0.6621
C7B C 0.5058(3) -0.02779(16) 0.5653(2)
C8B C 0.6078(3) -0.10152(17) 0.6179(3)
H10B H 0.6820 -0.1248 0.5722
Co1B Co 0.74635(4) -0.21493(2) 0.88643(3)
Cl1B Cl 0.96328(8) -0.22325(5) 0.80842(8)
Cl2B Cl 0.77614(8) -0.15352(6) 1.10586(7)
Co1B_2 Co 0.74635(4) 0.78507(2) -0.11357(3)
N1B_2 N 0.6497(2) -0.34291(13) 0.8867(2)
loop_
_geom_bond_atom_site_label_1
_geom_bond_atom_site_label_2
_geom_bond_site_symmetry_1
_geom_bond_site_symmetry_2
Co1 Cl1 1_555 1_555
Cl2 Co1 1_555 1_555
N1 Co1 1_555 1_555
N2 N1 1_555 1_555
N3 Co1 1_555 1_555
N4 N3 1_555 1_555
C1 N2 1_555 1_555
H1 C1 1_555 1_555
H2 C1 1_555 1_555
H3 C1 1_555 1_555
C2 N2 1_555 1_555
H4 C2 1_555 1_555
C3 C2 1_555 1_555
C4 N1 1_555 1_555
H5 C4 1_555 1_555
C5 N4 1_555 1_555
H6 C5 1_555 1_555
H7 C5 1_555 1_555
H8 C5 1_555 1_555
C6 N4 1_555 1_555
H9 C6 1_555 1_555
C7 C6 1_555 1_555
C8 N3 1_555 1_555
H10 C8 1_555 1_555
N1B N2B 1_555 1_555
N2B C1B 1_555 1_555
C1B H1B 1_555 1_555
H2B C1B 1_555 1_555
H3B C1B 1_555 1_555
C2B N2B 1_555 1_555
H4B C2B 1_555 1_555
C3B C3 1_555 1_555
C4B N1B 1_555 1_555
H5B C4B 1_555 1_555
N3B N4B 1_555 1_555
N4B C5B 1_555 1_555
C5B H6B 1_555 1_555
H7B C5B 1_555 1_555
H8B C5B 1_555 1_555
C6B N4B 1_555 1_555
H9B C6B 1_555 1_555
C7B C7 1_555 1_555
C8B N3B 1_555 1_555
H10B C8B 1_555 1_555
Co1B N3B 1_555 1_555
Cl1B Co1B 1_555 1_555
Cl2B Co1B 1_555 1_555
Co1B_2 N1B 1_555 1_555
N1B_2 Co1B 1_555 1_555
C3 C4 1_555 1_555
C7 C8 1_555 1_555
C2B C3B 1_555 1_555
C3B C4B 1_555 1_555
C6B C7B 1_555 1_555
C7B C8B 1_555 1_555

#END
