
#######################################################################
#
#                 Cambridge Crystallographic Data Centre
#                                CCDC 
#
#######################################################################
#
# If this CIF has been generated from an entry in the Cambridge 
# Structural Database, then it will include bibliographic, chemical, 
# crystal, experimental, refinement or atomic coordinate data resulting 
# from the CCDC's data processing and validation procedures.
#
#######################################################################

data_NIYVIC
_symmetry_cell_setting           triclinic
_symmetry_space_group_name_H-M   'P -1'
_symmetry_Int_Tables_number      2
_space_group_name_Hall           '-P 1'
loop_
_symmetry_equiv_pos_site_id
_symmetry_equiv_pos_as_xyz
1 x,y,z
2 -x,-y,-z
_cell_length_a                   12.6931(11)
_cell_length_b                   13.0160(12)
_cell_length_c                   14.3559(14)
_cell_angle_alpha                103.0650(10)
_cell_angle_beta                 112.942(2)
_cell_angle_gamma                96.4710(10)
_cell_volume                     2073.64
loop_
_atom_site_label
_atom_site_type_symbol
_atom_site_fract_x
_atom_site_fract_y
_atom_site_fract_z
Ni1 Ni 1.0000 0.0000 0.0000
Ni2 Ni 0.5000 0.5000 -0.5000
N1 N 1.0035(3) 0.4626(3) 0.7871(3)
N2 N 0.9822(3) 0.5515(3) 0.8418(3)
N3 N 0.9048(3) 0.5845(3) 0.7734(3)
N4 N 0.8707(3) 0.5189(3) 0.6732(3)
N5 N 0.5812(3) 0.9532(3) 0.3546(3)
N6 N 0.5468(4) 1.0343(3) 0.4051(3)
N7 N 0.4586(3) 1.0527(3) 0.3331(3)
N8 N 0.4318(3) 0.9858(3) 0.2353(3)
N9 N 0.9118(3) 0.1025(2) -0.0867(2)
N10 N 0.5783(3) 0.4056(2) -0.4004(2)
O1 O 0.9540(2) 0.06388(19) 0.11728(18)
O2 O 0.7651(3) -0.0167(2) 0.0539(2)
O3 O 0.4732(2) 0.59216(19) -0.38011(18)
O4 O 0.3494(3) 0.4673(2) -0.3669(2)
O5 O 0.8487(2) -0.12178(19) -0.07653(19)
H1 H 0.8035 -0.0992 -0.0497
H2 H 0.8133 -0.1431 -0.1437
O6 O 0.3335(2) 0.39434(18) -0.55708(18)
H3 H 0.3389 0.4027 -0.4946
H4 H 0.2881 0.4310 -0.5887
S1 S 0.93028(11) 0.33692(10) 0.58547(9)
S2 S 0.52089(11) 0.82483(9) 0.15464(9)
C1 C 0.8560(4) 0.0525(3) 0.1206(3)
C2 C 0.8477(3) 0.1306(3) 0.2111(3)
C3 C 0.9319(3) 0.2257(3) 0.2680(3)
H5 H 0.9948 0.2400 0.2515
C4 C 0.9238(4) 0.2996(3) 0.3490(3)
H6 H 0.9809 0.3636 0.3860
C5 C 0.8316(4) 0.2797(3) 0.3760(3)
C6 C 0.7483(4) 0.1847(3) 0.3197(3)
H7 H 0.6862 0.1697 0.3372
C7 C 0.7552(4) 0.1113(3) 0.2377(3)
H8 H 0.6971 0.0481 0.1998
C8 C 0.8266(4) 0.3598(3) 0.4671(3)
H9 H 0.7481 0.3478 0.4635
H10 H 0.8485 0.4332 0.4661
C9 C 0.9328(4) 0.4439(3) 0.6837(3)
C10 C 1.0840(4) 0.4056(4) 0.8408(3)
C11 C 1.1563(5) 0.3654(4) 0.7993(4)
H11 H 1.1567 0.3785 0.7384
C12 C 1.2290(5) 0.3043(5) 0.8507(5)
H12 H 1.2762 0.2734 0.8218
C13 C 1.2327(5) 0.2886(5) 0.9418(5)
H13 H 1.2829 0.2485 0.9757
C14 C 1.1624(5) 0.3322(4) 0.9834(4)
H14 H 1.1649 0.3221 1.0462
C15 C 1.0880(4) 0.3908(4) 0.9333(4)
H15 H 1.0402 0.4204 0.9621
C16 C 0.4153(4) 0.5591(3) -0.3344(3)
C17 C 0.4270(4) 0.6364(3) -0.2346(3)
C18 C 0.5070(3) 0.7346(3) -0.1885(3)
H16 H 0.5577 0.7519 -0.2179
C19 C 0.5126(4) 0.8077(3) -0.0989(3)
H17 H 0.5682 0.8728 -0.0678
C20 C 0.4360(4) 0.7841(3) -0.0555(3)
C21 C 0.3566(4) 0.6861(4) -0.1017(3)
H18 H 0.3053 0.6689 -0.0729
C22 C 0.3519(4) 0.6128(4) -0.1899(3)
H19 H 0.2976 0.5468 -0.2198
C23 C 0.4392(4) 0.8648(3) 0.0392(3)
H20 H 0.3601 0.8657 0.0319
H21 H 0.4770 0.9368 0.0456
C24 C 0.5098(4) 0.9254(3) 0.2503(3)
C25 C 0.6863(4) 0.9209(4) 0.4107(3)
C26 C 0.6913(5) 0.8143(4) 0.3957(4)
H22 H 0.6248 0.7604 0.3494
C27 C 0.7952(5) 0.7872(4) 0.4494(4)
H23 H 0.7994 0.7148 0.4380
C28 C 0.8914(5) 0.8657(5) 0.5190(4)
H24 H 0.9615 0.8469 0.5549
C29 C 0.8858(5) 0.9723(5) 0.5365(4)
H25 H 0.9514 1.0255 0.5861
C30 C 0.7829(4) 1.0014(4) 0.4807(3)
H26 H 0.7795 1.0738 0.4904
C31 C 0.8729(4) 0.0762(3) -0.1916(3)
H27 H 0.8913 0.0157 -0.2253
C32 C 0.8076(4) 0.1331(3) -0.2523(3)
H28 H 0.7831 0.1105 -0.3252
C33 C 0.7773(3) 0.2236(3) -0.2073(3)
C34 C 0.8193(3) 0.2523(3) -0.0987(3)
H29 H 0.8031 0.3131 -0.0633
C35 C 0.8848(3) 0.1917(3) -0.0425(3)
H30 H 0.9122 0.2138 0.0308
C36 C 0.7050(3) 0.2856(3) -0.2727(3)
C37 C 0.6358(3) 0.2410(3) -0.3803(3)
H31 H 0.6298 0.1686 -0.4124
C38 C 0.5763(3) 0.3015(3) -0.4399(3)
H32 H 0.5317 0.2686 -0.5121
C39 C 0.6405(3) 0.4470(3) -0.2962(3)
H33 H 0.6419 0.5185 -0.2654
C40 C 0.7024(3) 0.3917(3) -0.2318(3)
H34 H 0.7433 0.4256 -0.1594
N5A N 0.4188(3) 0.0468(3) -1.3546(3)
N6A N 0.4532(4) -0.0343(3) -1.4051(3)
N7A N 0.5414(3) -0.0527(3) -1.3331(3)
N8A N 0.5682(3) 0.0142(3) -1.2353(3)
N9A N 0.0882(3) 0.8975(2) -0.9133(2)
N10A N 0.4217(3) 0.5944(2) -0.5996(2)
O3A O 0.5268(2) 0.40784(19) -0.61989(18)
O4A O 0.6506(3) 0.5327(2) -0.6331(2)
O6A O 0.6665(2) 0.60566(18) -0.44292(18)
H3A H 0.6611 0.5973 -0.5054
H4A H 0.7119 0.5690 -0.4113
S2A S 0.47911(11) 0.17517(9) -1.15464(9)
C16A C 0.5847(4) 0.4409(3) -0.6656(3)
C17A C 0.5730(4) 0.3636(3) -0.7654(3)
C18A C 0.4930(3) 0.2654(3) -0.8115(3)
H16A H 0.4423 0.2481 -0.7821
C19A C 0.4874(4) 0.1923(3) -0.9011(3)
H17A H 0.4318 0.1272 -0.9322
C20A C 0.5640(4) 0.2159(3) -0.9445(3)
C21A C 0.6434(4) 0.3139(4) -0.8983(3)
H18A H 0.6947 0.3311 -0.9271
C22A C 0.6481(4) 0.3872(4) -0.8101(3)
H19A H 0.7024 0.4532 -0.7802
C23A C 0.5608(4) 0.1352(3) -1.0392(3)
H20A H 0.6399 0.1343 -1.0319
H21A H 0.5230 0.0632 -1.0456
C24A C 0.4902(4) 0.0746(3) -1.2503(3)
C25A C 0.3137(4) 0.0791(4) -1.4107(3)
C26A C 0.3087(5) 0.1857(4) -1.3957(4)
H22A H 0.3752 0.2396 -1.3494
C27A C 0.2048(5) 0.2128(4) -1.4494(4)
H23A H 0.2006 0.2852 -1.4380
C28A C 0.1086(5) 0.1343(5) -1.5190(4)
H24A H 0.0385 0.1531 -1.5549
C29A C 0.1142(5) 0.0277(5) -1.5365(4)
H25A H 0.0486 -0.0255 -1.5861
C30A C 0.2171(4) -0.0014(4) -1.4807(3)
H26A H 0.2205 -0.0738 -1.4904
C31A C 0.1271(4) 0.9238(3) -0.8084(3)
H27A H 0.1087 0.9843 -0.7747
C32A C 0.1924(4) 0.8669(3) -0.7477(3)
H28A H 0.2169 0.8895 -0.6748
C33A C 0.2227(3) 0.7764(3) -0.7927(3)
C34A C 0.1807(3) 0.7477(3) -0.9013(3)
H29A H 0.1969 0.6869 -0.9367
C35A C 0.1152(3) 0.8083(3) -0.9575(3)
H30A H 0.0878 0.7862 -1.0308
C36A C 0.2950(3) 0.7144(3) -0.7273(3)
C37A C 0.3642(3) 0.7590(3) -0.6197(3)
H31A H 0.3702 0.8314 -0.5876
C38A C 0.4237(3) 0.6985(3) -0.5601(3)
H32A H 0.4683 0.7314 -0.4879
C39A C 0.3595(3) 0.5530(3) -0.7038(3)
H33A H 0.3581 0.4815 -0.7346
C40A C 0.2976(3) 0.6083(3) -0.7682(3)
H34A H 0.2567 0.5744 -0.8406
N1A N 0.9965(3) -0.4626(3) -0.7871(3)
N2A N 1.0178(3) -0.5515(3) -0.8418(3)
N3A N 1.0952(3) -0.5845(3) -0.7734(3)
N4A N 1.1293(3) -0.5189(3) -0.6732(3)
O1A O 1.0460(2) -0.06388(19) -0.11728(18)
O2A O 1.2349(3) 0.0167(2) -0.0539(2)
S1A S 1.06972(11) -0.33692(10) -0.58547(9)
C1A C 1.1440(4) -0.0525(3) -0.1206(3)
C2A C 1.1523(3) -0.1306(3) -0.2111(3)
C3A C 1.0681(3) -0.2257(3) -0.2680(3)
H5A H 1.0052 -0.2400 -0.2515
C4A C 1.0762(4) -0.2996(3) -0.3490(3)
H6A H 1.0191 -0.3636 -0.3860
C5A C 1.1684(4) -0.2797(3) -0.3760(3)
C6A C 1.2517(4) -0.1847(3) -0.3197(3)
H7A H 1.3138 -0.1697 -0.3372
C7A C 1.2448(4) -0.1113(3) -0.2377(3)
H8A H 1.3029 -0.0481 -0.1998
C8A C 1.1734(4) -0.3598(3) -0.4671(3)
H9A H 1.2519 -0.3478 -0.4635
H10A H 1.1515 -0.4332 -0.4661
C9A C 1.0672(4) -0.4439(3) -0.6837(3)
C10A C 0.9160(4) -0.4056(4) -0.8408(3)
C11A C 0.8437(5) -0.3654(4) -0.7993(4)
H11A H 0.8433 -0.3785 -0.7384
C12A C 0.7710(5) -0.3043(5) -0.8507(5)
H12A H 0.7238 -0.2734 -0.8218
C13A C 0.7673(5) -0.2886(5) -0.9418(5)
H13A H 0.7171 -0.2485 -0.9757
C14A C 0.8376(5) -0.3322(4) -0.9834(4)
H14A H 0.8351 -0.3221 -1.0462
C15A C 0.9120(4) -0.3908(4) -0.9333(4)
H15A H 0.9598 -0.4204 -0.9621
O5A O 1.1513(2) 0.12178(19) 0.07653(19)
H1A H 1.1965 0.0992 0.0497
H2A H 1.1867 0.1431 0.1437
Ni1_2 Ni 0.0000 1.0000 -1.0000
N9A_2 N 1.0882(3) -0.1025(2) 0.0867(2)
O7 O 0.7261(3) 0.8207(2) 0.7035(2)
H35 H 0.7165 0.7626 0.6573
H36 H 0.6712 0.8543 0.6816
loop_
_geom_bond_atom_site_label_1
_geom_bond_atom_site_label_2
_geom_bond_site_symmetry_1
_geom_bond_site_symmetry_2
Ni1 N9 1_555 1_555
Ni2 N10 1_555 1_555
N1 N2 1_555 1_555
N2 N3 1_555 1_555
N3 N4 1_555 1_555
N4 C9 1_555 1_555
N5 N6 1_555 1_555
N6 N7 1_555 1_555
N7 N8 1_555 1_555
N8 C24 1_555 1_555
N9 C31 1_555 1_555
N10 C38 1_555 1_555
O1 Ni1 1_555 1_555
O2 C1 1_555 1_555
O3 Ni2 1_555 1_555
O4 C16 1_555 1_555
O5 Ni1 1_555 1_555
H1 O5 1_555 1_555
H2 O5 1_555 1_555
O6 Ni2 1_555 1_555
H3 O6 1_555 1_555
H4 O6 1_555 1_555
S1 C8 1_555 1_555
S2 C23 1_555 1_555
C1 O1 1_555 1_555
C2 C1 1_555 1_555
C3 C2 1_555 1_555
H5 C3 1_555 1_555
C4 C3 1_555 1_555
H6 C4 1_555 1_555
C5 C4 1_555 1_555
C6 C5 1_555 1_555
H7 C6 1_555 1_555
C7 C2 1_555 1_555
H8 C7 1_555 1_555
C8 C5 1_555 1_555
H9 C8 1_555 1_555
H10 C8 1_555 1_555
C9 N1 1_555 1_555
C10 N1 1_555 1_555
C11 C10 1_555 1_555
H11 C11 1_555 1_555
C12 C11 1_555 1_555
H12 C12 1_555 1_555
C13 C12 1_555 1_555
H13 C13 1_555 1_555
C14 C13 1_555 1_555
H14 C14 1_555 1_555
C15 C10 1_555 1_555
H15 C15 1_555 1_555
C16 O3 1_555 1_555
C17 C16 1_555 1_555
C18 C17 1_555 1_555
H16 C18 1_555 1_555
C19 C18 1_555 1_555
H17 C19 1_555 1_555
C20 C19 1_555 1_555
C21 C20 1_555 1_555
H18 C21 1_555 1_555
C22 C17 1_555 1_555
H19 C22 1_555 1_555
C23 C20 1_555 1_555
H20 C23 1_555 1_555
H21 C23 1_555 1_555
C24 N5 1_555 1_555
C25 N5 1_555 1_555
C26 C25 1_555 1_555
H22 C26 1_555 1_555
C27 C26 1_555 1_555
H23 C27 1_555 1_555
C28 C27 1_555 1_555
H24 C28 1_555 1_555
C29 C28 1_555 1_555
H25 C29 1_555 1_555
C30 C25 1_555 1_555
H26 C30 1_555 1_555
C31 H27 1_555 1_555
C32 C31 1_555 1_555
H28 C32 1_555 1_555
C33 C32 1_555 1_555
C34 C33 1_555 1_555
H29 C34 1_555 1_555
C35 N9 1_555 1_555
H30 C35 1_555 1_555
C36 C33 1_555 1_555
C37 C36 1_555 1_555
H31 C37 1_555 1_555
C38 C37 1_555 1_555
H32 C38 1_555 1_555
C39 N10 1_555 1_555
H33 C39 1_555 1_555
C40 C36 1_555 1_555
H34 C40 1_555 1_555
O7 H35 1_555 1_555
H36 O7 1_555 1_555
N5A N6A 1_555 1_555
N6A N7A 1_555 1_555
N7A N8A 1_555 1_555
N8A C24A 1_555 1_555
N9A C31A 1_555 1_555
N10A Ni2 1_555 1_555
O3A Ni2 1_555 1_555
O4A C16A 1_555 1_555
O6A Ni2 1_555 1_555
H3A O6A 1_555 1_555
H4A O6A 1_555 1_555
S2A C23A 1_555 1_555
C16A O3A 1_555 1_555
C17A C16A 1_555 1_555
C18A C17A 1_555 1_555
H16A C18A 1_555 1_555
C19A C18A 1_555 1_555
H17A C19A 1_555 1_555
C20A C19A 1_555 1_555
C21A C20A 1_555 1_555
H18A C21A 1_555 1_555
C22A C17A 1_555 1_555
H19A C22A 1_555 1_555
C23A C20A 1_555 1_555
H20A C23A 1_555 1_555
H21A C23A 1_555 1_555
C24A N5A 1_555 1_555
C25A N5A 1_555 1_555
C26A C25A 1_555 1_555
H22A C26A 1_555 1_555
C27A C26A 1_555 1_555
H23A C27A 1_555 1_555
C28A C27A 1_555 1_555
H24A C28A 1_555 1_555
C29A C28A 1_555 1_555
H25A C29A 1_555 1_555
C30A C25A 1_555 1_555
H26A C30A 1_555 1_555
C31A H27A 1_555 1_555
C32A C31A 1_555 1_555
H28A C32A 1_555 1_555
C33A C32A 1_555 1_555
C34A C33A 1_555 1_555
H29A C34A 1_555 1_555
C35A N9A 1_555 1_555
H30A C35A 1_555 1_555
C36A C33A 1_555 1_555
C37A C36A 1_555 1_555
H31A C37A 1_555 1_555
C38A N10A 1_555 1_555
H32A C38A 1_555 1_555
C39A N10A 1_555 1_555
H33A C39A 1_555 1_555
C40A C36A 1_555 1_555
H34A C40A 1_555 1_555
N1A N2A 1_555 1_555
N2A N3A 1_555 1_555
N3A N4A 1_555 1_555
N4A C9A 1_555 1_555
O1A Ni1 1_555 1_555
O2A C1A 1_555 1_555
S1A C8A 1_555 1_555
C1A O1A 1_555 1_555
C2A C1A 1_555 1_555
C3A C2A 1_555 1_555
H5A C3A 1_555 1_555
C4A C3A 1_555 1_555
H6A C4A 1_555 1_555
C5A C4A 1_555 1_555
C6A C5A 1_555 1_555
H7A C6A 1_555 1_555
C7A C2A 1_555 1_555
H8A C7A 1_555 1_555
C8A C5A 1_555 1_555
H9A C8A 1_555 1_555
H10A C8A 1_555 1_555
C9A N1A 1_555 1_555
C10A N1A 1_555 1_555
C11A C10A 1_555 1_555
H11A C11A 1_555 1_555
C12A C11A 1_555 1_555
H12A C12A 1_555 1_555
C13A C12A 1_555 1_555
H13A C13A 1_555 1_555
C14A C13A 1_555 1_555
H14A C14A 1_555 1_555
C15A C10A 1_555 1_555
H15A C15A 1_555 1_555
O5A Ni1 1_555 1_555
H1A O5A 1_555 1_555
H2A O5A 1_555 1_555
Ni1_2 N9A 1_555 1_555
N9A_2 Ni1 1_555 1_555
S1 C9 1_555 1_555
S2 C24 1_555 1_555
C6 C7 1_555 1_555
C14 C15 1_555 1_555
C21 C22 1_555 1_555
C29 C30 1_555 1_555
C34 C35 1_555 1_555
C39 C40 1_555 1_555
S2A C24A 1_555 1_555
C21A C22A 1_555 1_555
C29A C30A 1_555 1_555
C34A C35A 1_555 1_555
C37A C38A 1_555 1_555
C39A C40A 1_555 1_555
S1A C9A 1_555 1_555
C6A C7A 1_555 1_555
C14A C15A 1_555 1_555

#END
