
#######################################################################
#
#                 Cambridge Crystallographic Data Centre
#                                CCDC 
#
#######################################################################
#
# If this CIF has been generated from an entry in the Cambridge 
# Structural Database, then it will include bibliographic, chemical, 
# crystal, experimental, refinement or atomic coordinate data resulting 
# from the CCDC's data processing and validation procedures.
#
#######################################################################

data_NIYZAY
_symmetry_cell_setting           triclinic
_symmetry_space_group_name_H-M   'P -1'
_symmetry_Int_Tables_number      2
_space_group_name_Hall           '-P 1'
loop_
_symmetry_equiv_pos_site_id
_symmetry_equiv_pos_as_xyz
1 x,y,z
2 -x,-y,-z
_cell_length_a                   11.092(2)
_cell_length_b                   11.997(2)
_cell_length_c                   12.063(2)
_cell_angle_alpha                78.43(3)
_cell_angle_beta                 73.91(3)
_cell_angle_gamma                89.64(3)
_cell_volume                     1508.94
loop_
_atom_site_label
_atom_site_type_symbol
_atom_site_fract_x
_atom_site_fract_y
_atom_site_fract_z
Zn1 Zn 0.54187(6) 0.62728(6) 0.93480(6)
Zn2 Zn 0.48684(6) 0.49520(7) 0.74697(6)
N1 N 0.4692(5) 0.3699(5) 0.6578(5)
N2 N 0.5295(5) -0.2170(4) -0.0092(5)
N3 N 1.0645(9) 0.9127(9) 0.6068(9)
N4 N 0.0024(6) 0.8522(6) 1.0896(6)
O1 O 0.6384(4) 0.7061(4) 0.7545(4)
O2 O 0.6357(4) 0.5855(4) 0.6336(4)
O3 O 1.0186(4) 0.5757(5) 0.3053(5)
H1 H 1.0647 0.5506 0.2498
O4 O 1.1957(5) 0.6668(6) 0.2968(5)
O5 O 1.0072(9) 0.9487(10) 0.6890(10)
O6 O 1.1699(8) 0.9443(9) 0.5501(9)
O7 O 0.3171(4) 0.5558(4) 0.7775(4)
O8 O 0.3689(4) 0.6532(4) 0.8992(4)
O9 O 0.0927(5) 0.8980(6) 1.1014(7)
O10 O -0.1041(5) 0.8697(6) 1.1424(6)
O11 O -0.2855(4) 0.6165(4) 0.9707(4)
O12 O -0.1752(4) 0.5173(4) 0.8438(4)
O13 O 0.5464(4) 0.4666(4) 0.8892(4)
C1 C 0.5686(6) 0.3424(6) 0.5755(6)
H2 H 0.6445 0.3862 0.5546
C2 C 0.5630(7) 0.2517(6) 0.5201(6)
H3 H 0.6346 0.2347 0.4641
C3 C 0.4510(7) 0.1861(6) 0.5481(6)
C4 C 0.3500(7) 0.2175(6) 0.6296(6)
H4 H 0.2725 0.1761 0.6510
C5 C 0.3613(6) 0.3088(6) 0.6800(6)
H5 H 0.2893 0.3293 0.7330
C6 C 0.4409(8) 0.0782(7) 0.5030(7)
H6 H 0.3608 0.0751 0.4824
C7 C 0.5466(9) 0.0409(7) 0.4078(7)
H7 H 0.6233 0.0920 0.3824
C8 C 0.5025(10) 0.0176(7) 0.3029(7)
H8 H 0.4158 0.0096 0.3123
C9 C 0.5750(10) 0.0091(7) 0.2092(8)
H9 H 0.6532 0.0497 0.1863
C10 C 0.5501(8) -0.0600(6) 0.1282(7)
C11 C 0.6459(7) -0.0708(6) 0.0287(7)
H10 H 0.7199 -0.0239 0.0054
C12 C 0.6319(6) -0.1491(6) -0.0345(6)
H11 H 0.6988 -0.1557 -0.1003
C13 C 0.4316(6) -0.2051(6) 0.0829(6)
H12 H 0.3576 -0.2509 0.1005
C14 C 0.4376(8) -0.1266(6) 0.1527(6)
H13 H 0.3677 -0.1181 0.2151
C15 C 0.8178(6) 0.7053(6) 0.5944(6)
C16 C 0.8769(7) 0.7902(7) 0.6295(7)
H14 H 0.8339 0.8237 0.6924
C17 C 1.0009(8) 0.8225(8) 0.5678(8)
C18 C 1.0682(7) 0.7791(8) 0.4745(7)
H15 H 1.1520 0.8044 0.4346
C19 C 1.0079(6) 0.6965(7) 0.4411(6)
C20 C 0.8842(6) 0.6599(6) 0.5001(5)
H16 H 0.8451 0.6036 0.4758
C21 C 0.6857(6) 0.6632(6) 0.6666(6)
C22 C 1.0856(7) 0.6464(7) 0.3393(7)
C23 C 0.1591(5) 0.6583(6) 0.8934(5)
C24 C 0.1422(6) 0.7392(6) 0.9635(6)
H17 H 0.2114 0.7734 0.9770
C25 C 0.0216(6) 0.7681(6) 1.0128(6)
C26 C -0.0830(6) 0.7186(6) 0.9966(6)
H18 H -0.1642 0.7383 1.0336
C27 C -0.0653(5) 0.6391(6) 0.9245(5)
C28 C 0.0562(5) 0.6093(6) 0.8726(5)
H19 H 0.0684 0.5560 0.8236
C29 C 0.2922(6) 0.6195(6) 0.8520(6)
C30 C -0.1826(6) 0.5870(6) 0.9097(6)
H20 H 0.614(6) 0.464(6) 0.873(6)
N1A N 0.5308(5) -0.3699(5) 0.3422(5)
N2A N 0.4705(5) 0.2170(4) 1.0092(5)
C1A C 0.4314(6) -0.3424(6) 0.4245(6)
H2A H 0.3555 -0.3862 0.4454
C2A C 0.4370(7) -0.2517(6) 0.4799(6)
H3A H 0.3654 -0.2347 0.5359
C3A C 0.5490(7) -0.1861(6) 0.4519(6)
C4A C 0.6500(7) -0.2175(6) 0.3704(6)
H4A H 0.7275 -0.1761 0.3490
C5A C 0.6387(6) -0.3088(6) 0.3200(6)
H5A H 0.7107 -0.3293 0.2670
C6A C 0.5591(8) -0.0782(7) 0.4970(7)
H6A H 0.6392 -0.0751 0.5176
C7A C 0.4534(9) -0.0409(7) 0.5922(7)
H7A H 0.3767 -0.0920 0.6176
C8A C 0.4975(10) -0.0176(7) 0.6971(7)
H8A H 0.5842 -0.0096 0.6877
C9A C 0.4250(10) -0.0091(7) 0.7908(8)
H9A H 0.3468 -0.0497 0.8137
C10A C 0.4499(8) 0.0600(6) 0.8718(7)
C11A C 0.3541(7) 0.0708(6) 0.9713(7)
H10A H 0.2801 0.0239 0.9946
C12A C 0.3681(6) 0.1491(6) 1.0345(6)
H11A H 0.3012 0.1557 1.1003
C13A C 0.5684(6) 0.2051(6) 0.9171(6)
H12A H 0.6424 0.2509 0.8995
C14A C 0.5624(8) 0.1266(6) 0.8473(6)
H13A H 0.6323 0.1181 0.7849
Zn1A Zn 0.45813(6) -0.62728(6) 0.06520(6)
Zn2A Zn 0.51316(6) -0.49520(7) 0.25303(6)
N3A N -0.0645(9) -0.9127(9) 0.3932(9)
N4A N 0.9976(6) -0.8522(6) -0.0896(6)
O1A O 0.3616(4) -0.7061(4) 0.2455(4)
O2A O 0.3643(4) -0.5855(4) 0.3664(4)
O3A O -0.0186(4) -0.5757(5) 0.6947(5)
H1A H -0.0647 -0.5506 0.7502
O4A O -0.1957(5) -0.6668(6) 0.7032(5)
O5A O -0.0072(9) -0.9487(10) 0.3110(10)
O6A O -0.1699(8) -0.9443(9) 0.4499(9)
O7A O 0.6829(4) -0.5558(4) 0.2225(4)
O8A O 0.6311(4) -0.6532(4) 0.1008(4)
O9A O 0.9073(5) -0.8980(6) -0.1014(7)
O10A O 1.1041(5) -0.8697(6) -0.1424(6)
O11A O 1.2855(4) -0.6165(4) 0.0293(4)
O12A O 1.1752(4) -0.5173(4) 0.1562(4)
O13A O 0.4536(4) -0.4666(4) 0.1108(4)
C15A C 0.1822(6) -0.7053(6) 0.4056(6)
C16A C 0.1231(7) -0.7902(7) 0.3705(7)
H14A H 0.1661 -0.8237 0.3076
C17A C -0.0009(8) -0.8225(8) 0.4322(8)
C18A C -0.0682(7) -0.7791(8) 0.5255(7)
H15A H -0.1520 -0.8044 0.5654
C19A C -0.0079(6) -0.6965(7) 0.5589(6)
C20A C 0.1158(6) -0.6599(6) 0.4999(5)
H16A H 0.1549 -0.6036 0.5242
C21A C 0.3143(6) -0.6632(6) 0.3334(6)
C22A C -0.0856(7) -0.6464(7) 0.6607(7)
C23A C 0.8409(5) -0.6583(6) 0.1066(5)
C24A C 0.8578(6) -0.7392(6) 0.0365(6)
H17A H 0.7886 -0.7734 0.0230
C25A C 0.9784(6) -0.7681(6) -0.0128(6)
C26A C 1.0830(6) -0.7186(6) 0.0034(6)
H18A H 1.1642 -0.7383 -0.0336
C27A C 1.0653(5) -0.6391(6) 0.0755(5)
C28A C 0.9438(5) -0.6093(6) 0.1274(5)
H19A H 0.9316 -0.5560 0.1764
C29A C 0.7078(6) -0.6195(6) 0.1480(6)
C30A C 1.1826(6) -0.5870(6) 0.0903(6)
H20A H 0.386(6) -0.464(6) 0.127(6)
Zn1_2 Zn -0.45813(6) 0.62728(6) 0.93480(6)
Zn1_3 Zn 0.54187(6) -0.37272(6) -0.06520(6)
Zn1A_2 Zn 0.45813(6) 0.37272(6) 1.06520(6)
Zn1A_3 Zn 1.45813(6) -0.62728(6) 0.06520(6)
N2_2 N 0.5295(5) 0.7830(4) 0.9908(5)
N2A_2 N 0.4705(5) -0.7830(4) 0.0092(5)
O11_2 O 0.7145(4) 0.6165(4) 0.9707(4)
O11A_2 O 0.2855(4) -0.6165(4) 0.0293(4)
O13_2 O 0.5464(4) -0.5334(4) -0.1108(4)
O13A_2 O 0.4536(4) 0.5334(4) 1.1108(4)
loop_
_geom_bond_atom_site_label_1
_geom_bond_atom_site_label_2
_geom_bond_site_symmetry_1
_geom_bond_site_symmetry_2
Zn1 O1 1_555 1_555
Zn2 N1 1_555 1_555
N1 C1 1_555 1_555
N2 C12 1_555 1_555
N3 O5 1_555 1_555
N4 O9 1_555 1_555
O1 C21 1_555 1_555
O2 Zn2 1_555 1_555
O3 H1 1_555 1_555
O4 C22 1_555 1_555
O6 N3 1_555 1_555
O7 Zn2 1_555 1_555
O8 Zn1 1_555 1_555
O10 N4 1_555 1_555
O11 C30 1_555 1_555
O12 C30 1_555 1_555
O13 Zn1 1_555 1_555
C1 H2 1_555 1_555
C2 C1 1_555 1_555
H3 C2 1_555 1_555
C3 C2 1_555 1_555
C4 C3 1_555 1_555
H4 C4 1_555 1_555
C5 N1 1_555 1_555
H5 C5 1_555 1_555
C6 C3 1_555 1_555
H6 C6 1_555 1_555
C7 C6 1_555 1_555
H7 C7 1_555 1_555
C8 C7 1_555 1_555
H8 C8 1_555 1_555
C9 C8 1_555 1_555
H9 C9 1_555 1_555
C10 C9 1_555 1_555
C11 C10 1_555 1_555
H10 C11 1_555 1_555
C12 C11 1_555 1_555
H11 C12 1_555 1_555
C13 N2 1_555 1_555
H12 C13 1_555 1_555
C14 C10 1_555 1_555
H13 C14 1_555 1_555
C15 C16 1_555 1_555
C16 H14 1_555 1_555
C17 N3 1_555 1_555
C18 C17 1_555 1_555
H15 C18 1_555 1_555
C19 C18 1_555 1_555
C20 C15 1_555 1_555
H16 C20 1_555 1_555
C21 O2 1_555 1_555
C22 O3 1_555 1_555
C23 C24 1_555 1_555
C24 H17 1_555 1_555
C25 N4 1_555 1_555
C26 C25 1_555 1_555
H18 C26 1_555 1_555
C27 C26 1_555 1_555
C28 C23 1_555 1_555
H19 C28 1_555 1_555
C29 O7 1_555 1_555
C30 C27 1_555 1_555
H20 O13 1_555 1_555
N1A C1A 1_555 1_555
N2A C12A 1_555 1_555
C1A H2A 1_555 1_555
C2A C1A 1_555 1_555
H3A C2A 1_555 1_555
C3A C2A 1_555 1_555
C4A C3A 1_555 1_555
H4A C4A 1_555 1_555
C5A N1A 1_555 1_555
H5A C5A 1_555 1_555
C6A C7 1_555 1_555
H6A C6A 1_555 1_555
C7A C6 1_555 1_555
H7A C7A 1_555 1_555
C8A C7A 1_555 1_555
H8A C8A 1_555 1_555
C9A C8A 1_555 1_555
H9A C9A 1_555 1_555
C10A C9A 1_555 1_555
C11A C10A 1_555 1_555
H10A C11A 1_555 1_555
C12A C11A 1_555 1_555
H11A C12A 1_555 1_555
C13A N2A 1_555 1_555
H12A C13A 1_555 1_555
C14A C10A 1_555 1_555
H13A C14A 1_555 1_555
Zn1A O1A 1_555 1_555
Zn2A N1A 1_555 1_555
N3A O5A 1_555 1_555
N4A O9A 1_555 1_555
O1A C21A 1_555 1_555
O2A Zn2A 1_555 1_555
O3A H1A 1_555 1_555
O4A C22A 1_555 1_555
O6A N3A 1_555 1_555
O7A Zn2A 1_555 1_555
O8A Zn1A 1_555 1_555
O10A N4A 1_555 1_555
O11A C30A 1_555 1_555
O12A C30A 1_555 1_555
O13A Zn1A 1_555 1_555
C15A C16A 1_555 1_555
C16A H14A 1_555 1_555
C17A N3A 1_555 1_555
C18A C17A 1_555 1_555
H15A C18A 1_555 1_555
C19A C18A 1_555 1_555
C20A C15A 1_555 1_555
H16A C20A 1_555 1_555
C21A O2A 1_555 1_555
C22A O3A 1_555 1_555
C23A C24A 1_555 1_555
C24A H17A 1_555 1_555
C25A N4A 1_555 1_555
C26A C25A 1_555 1_555
H18A C26A 1_555 1_555
C27A C26A 1_555 1_555
C28A C23A 1_555 1_555
H19A C28A 1_555 1_555
C29A O7A 1_555 1_555
C30A C27A 1_555 1_555
H20A O13A 1_555 1_555
Zn1_2 O11 1_555 1_555
Zn1_3 N2 1_555 1_555
Zn1A_2 O13 1_555 1_555
Zn1A_3 O11A 1_555 1_555
N2_2 Zn1 1_555 1_555
N2A_2 Zn1A 1_555 1_555
O11_2 Zn1 1_555 1_555
O11A_2 Zn1A 1_555 1_555
O13_2 Zn1A 1_555 1_555
O13A_2 Zn1 1_555 1_555
Zn2 O13 1_555 1_555
O8 C29 1_555 1_555
C4 C5 1_555 1_555
C13 C14 1_555 1_555
C15 C21 1_555 1_555
C16 C17 1_555 1_555
C19 C20 1_555 1_555
C19 C22 1_555 1_555
C23 C29 1_555 1_555
C24 C25 1_555 1_555
C27 C28 1_555 1_555
N2A Zn1A_2 1_555 1_555
C3A C6A 1_555 1_555
C4A C5A 1_555 1_555
C6A C7A 1_555 1_555
C13A C14A 1_555 1_555
Zn2A O13A 1_555 1_555
O8A C29A 1_555 1_555
O13A Zn1_3 1_555 1_555
C15A C21A 1_555 1_555
C16A C17A 1_555 1_555
C19A C20A 1_555 1_555
C19A C22A 1_555 1_555
C23A C29A 1_555 1_555
C24A C25A 1_555 1_555
C27A C28A 1_555 1_555
Zn1_3 O13_2 1_555 1_555
Zn1A_2 O13A_2 1_555 1_555

#END
