
#######################################################################
#
#                 Cambridge Crystallographic Data Centre
#                                CCDC 
#
#######################################################################
#
# If this CIF has been generated from an entry in the Cambridge 
# Structural Database, then it will include bibliographic, chemical, 
# crystal, experimental, refinement or atomic coordinate data resulting 
# from the CCDC's data processing and validation procedures.
#
#######################################################################

data_NIZCIK
_symmetry_cell_setting           monoclinic
_symmetry_space_group_name_H-M   'P 21/c'
_symmetry_Int_Tables_number      14
_space_group_name_Hall           '-P 2ybc'
loop_
_symmetry_equiv_pos_site_id
_symmetry_equiv_pos_as_xyz
1 x,y,z
2 -x,1/2+y,1/2-z
3 -x,-y,-z
4 x,1/2-y,1/2+z
_cell_length_a                   14.9099(5)
_cell_length_b                   21.0323(7)
_cell_length_c                   8.5659(3)
_cell_angle_alpha                90
_cell_angle_beta                 94.401(2)
_cell_angle_gamma                90
_cell_volume                     2678.26
loop_
_atom_site_label
_atom_site_type_symbol
_atom_site_fract_x
_atom_site_fract_y
_atom_site_fract_z
Co1 Co 0.54936(4) 0.81888(3) 0.02263(7)
N1 N 0.4077(3) 0.82113(17) -0.0468(4)
C1 C 0.3715(4) 0.8611(3) -0.1556(7)
H1 H 0.4085 0.8921 -0.1939
C2 C 0.3511(4) 0.7784(2) 0.0097(6)
H2 H 0.3737 0.7513 0.0889
C3 C 0.2257(4) 0.8133(3) -0.1606(7)
O1 O 0.5238(2) 0.79683(16) 0.2487(4)
N2 N 0.0911(3) 0.7571(3) -0.1740(7)
N3 N -0.0001(3) 0.7511(3) -0.2212(7)
C4 C 0.2635(4) 0.7726(3) -0.0417(7)
H3 H 0.2281 0.7417 0.0011
C5 C 0.1304(4) 0.8053(3) -0.2235(7)
C6 C 0.2828(4) 0.8591(3) -0.2146(7)
H4 H 0.2614 0.8883 -0.2901
C7 C 0.5210(3) 0.8159(2) 0.3869(5)
C8 C 0.4862(4) 0.8827(2) 0.4149(6)
H5 H 0.4917 0.8919 0.5261
H6 H 0.5222 0.9134 0.3628
C9 C -0.0241(4) 0.7005(3) -0.2930(7)
C10 C -0.1819(4) 0.7325(4) -0.2679(10)
H7 H -0.1615 0.7631 -0.1953
C11 C 0.3893(4) 0.8889(2) 0.3536(8)
H8 H 0.3544 0.8567 0.4029
H9 H 0.3848 0.8805 0.2419
C12 C -0.1222(4) 0.6936(3) -0.3342(7)
C13 C -0.1580(4) 0.6484(3) -0.4365(7)
H10 H -0.1202 0.6198 -0.4820
C14 C 0.0393(4) 0.6504(3) -0.3390(10)
H11 H 0.0367 0.6474 -0.4511
H12 H 0.0228 0.6103 -0.2960
H13 H 0.0994 0.6613 -0.2995
C15 C 0.0899(4) 0.8522(4) -0.3386(10)
H14 H 0.1138 0.8937 -0.3141
H15 H 0.0258 0.8528 -0.3337
H16 H 0.1041 0.8404 -0.4421
O2 O 0.5425(2) 0.78143(15) 0.5031(3)
C16 C -0.2487(4) 0.6451(3) -0.4717(7)
H17 H -0.2706 0.6139 -0.5414
C17 C 0.3480(5) 0.9540(3) 0.3816(8)
H18 H 0.2831 0.9498 0.3674
H19 H 0.3630 0.9656 0.4900
C18 C -0.2731(4) 0.7261(3) -0.3092(9)
H20 H -0.3125 0.7530 -0.2621
C19 C 0.3755(4) 1.0077(2) 0.2804(7)
N4 N -0.3074(3) 0.68379(19) -0.4125(5)
O3 O 0.3412(3) 1.06053(18) 0.3019(5)
O4 O 0.4303(4) 0.9983(2) 0.1798(6)
O5 O 0.5752(2) 0.83807(16) -0.2050(4)
H21 H 0.5536 0.8744 -0.2320
H22 H 0.5506 0.8096 -0.2652
O6 O 0.5518(2) 0.92058(15) 0.0560(4)
H23 H 0.5431 0.9393 -0.0333
H24 H 0.6032 0.9324 0.0995
Co1C Co -0.45064(4) 0.68112(3) -0.47737(7)
Co1C_2 Co 0.54936(4) 0.68112(3) 0.52263(7)
O2C O 0.5425(2) 0.71857(15) 0.0031(3)
N4C N 0.6926(3) 0.81621(19) 0.0875(5)
O7 O 0.2840(8) 1.0181(4) 0.7718(12)
H25 H 0.3269 1.0146 0.7123
H26 H 0.2450 0.9895 0.7489
O8 O -0.1430(14) 0.4771(7) -0.470(2)
H27 H -0.1700 0.5104 -0.4429
H28 H -0.1705 0.4444 -0.4405
O9 O 0.2252(8) 1.0903(4) 0.5122(11)
H29 H 0.1859 1.1197 0.5073
H30 H 0.2580 1.0939 0.4358
loop_
_geom_bond_atom_site_label_1
_geom_bond_atom_site_label_2
_geom_bond_site_symmetry_1
_geom_bond_site_symmetry_2
Co1 N1 1_555 1_555
N1 C1 1_555 1_555
C1 H1 1_555 1_555
C2 N1 1_555 1_555
H2 C2 1_555 1_555
C3 C4 1_555 1_555
O1 Co1 1_555 1_555
N2 N3 1_555 1_555
N3 C9 1_555 1_555
C4 C2 1_555 1_555
H3 C4 1_555 1_555
C5 C3 1_555 1_555
C6 C1 1_555 1_555
H4 C6 1_555 1_555
C7 O1 1_555 1_555
C8 C7 1_555 1_555
H5 C8 1_555 1_555
H6 C8 1_555 1_555
C9 C12 1_555 1_555
C10 H7 1_555 1_555
C11 C8 1_555 1_555
H8 C11 1_555 1_555
H9 C11 1_555 1_555
C12 C10 1_555 1_555
C13 C12 1_555 1_555
H10 C13 1_555 1_555
C14 C9 1_555 1_555
H11 C14 1_555 1_555
H12 C14 1_555 1_555
H13 C14 1_555 1_555
C15 C5 1_555 1_555
H14 C15 1_555 1_555
H15 C15 1_555 1_555
H16 C15 1_555 1_555
O2 C7 1_555 1_555
C16 C13 1_555 1_555
H17 C16 1_555 1_555
C17 C11 1_555 1_555
H18 C17 1_555 1_555
H19 C17 1_555 1_555
C18 C10 1_555 1_555
H20 C18 1_555 1_555
C19 C17 1_555 1_555
N4 C16 1_555 1_555
O3 C19 1_555 1_555
O4 C19 1_555 1_555
O5 Co1 1_555 1_555
H21 O5 1_555 1_555
H22 O5 1_555 1_555
O6 Co1 1_555 1_555
H23 O6 1_555 1_555
H24 O6 1_555 1_555
O7 H25 1_555 1_555
H26 O7 1_555 1_555
O8 H27 1_555 1_555
H28 O8 1_555 1_555
O9 H29 1_555 1_555
H30 O9 1_555 1_555
Co1C N4 1_555 1_555
Co1C_2 O2 1_555 1_555
O2C Co1 1_555 1_555
N4C Co1 1_555 1_555
C3 C6 1_555 1_555
N2 C5 1_555 1_555
C18 N4 1_555 1_555

#END
