
#######################################################################
#
#                 Cambridge Crystallographic Data Centre
#                                CCDC 
#
#######################################################################
#
# If this CIF has been generated from an entry in the Cambridge 
# Structural Database, then it will include bibliographic, chemical, 
# crystal, experimental, refinement or atomic coordinate data resulting 
# from the CCDC's data processing and validation procedures.
#
#######################################################################

data_NIZCEG
_symmetry_cell_setting           triclinic
_symmetry_space_group_name_H-M   'P -1'
_symmetry_Int_Tables_number      2
_space_group_name_Hall           '-P 1'
loop_
_symmetry_equiv_pos_site_id
_symmetry_equiv_pos_as_xyz
1 x,y,z
2 -x,-y,-z
_cell_length_a                   9.8733(3)
_cell_length_b                   13.7275(5)
_cell_length_c                   16.1107(5)
_cell_angle_alpha                102.6030(10)
_cell_angle_beta                 105.2750(10)
_cell_angle_gamma                106.803(2)
_cell_volume                     1911.32
loop_
_atom_site_label
_atom_site_type_symbol
_atom_site_fract_x
_atom_site_fract_y
_atom_site_fract_z
C1 C 0.3959(3) 0.8984(2) 0.56734(17)
H1 H 0.4486 0.9220 0.5310
C2 C 0.2596(3) 0.8139(2) 0.52624(17)
H2 H 0.2224 0.7816 0.4636
C3 C 0.1784(3) 0.7774(2) 0.57803(18)
C4 C 0.2410(3) 0.8295(2) 0.67089(18)
H3 H 0.1899 0.8080 0.7086
C5 C 0.3778(3) 0.9126(2) 0.70700(18)
H4 H 0.4179 0.9455 0.7696
C6 C 0.0314(3) 0.6893(2) 0.5407(2)
H5 H -0.0182 0.6701 0.5797
C7 C -0.2219(3) 0.4930(2) 0.3590(2)
H6 H -0.1653 0.4994 0.3212
C8 C -0.3687(3) 0.4056(2) 0.32700(19)
C9 C -0.4242(3) 0.3310(2) 0.24187(19)
H7 H -0.3689 0.3363 0.2033
C10 C 0.8961(3) 1.3092(2) 0.84240(19)
H8 H 0.8176 1.3044 0.8648
C11 C 1.0260(3) 1.3985(2) 0.88453(19)
H9 H 1.0339 1.4526 0.9338
C12 C 1.1455(3) 1.4076(2) 0.85296(17)
C13 C 1.1237(3) 1.3259(2) 0.77822(17)
H10 H 1.1997 1.3294 0.7537
C14 C 0.9891(3) 1.2386(2) 0.73954(17)
H11 H 0.9774 1.1843 0.6891
C15 C 1.2887(3) 1.4981(2) 0.89432(18)
H12 H 1.3648 1.4984 0.8704
C16 C 0.9957(3) 0.8121(2) 0.86986(17)
C17 C 1.1039(3) 0.7774(2) 0.93103(19)
H13 H 1.1056 0.7103 0.8971
H14 H 1.0707 0.7660 0.9809
C18 C 1.2633(3) 0.8645(3) 0.96845(19)
H15 H 1.3360 0.8337 0.9920
H16 H 1.2855 0.8872 0.9190
C19 C 0.7837(2) 0.9393(2) 0.59463(16)
C20 C 0.7889(3) 0.9082(2) 0.49964(17)
H17 H 0.8928 0.9380 0.5030
H18 H 0.7315 0.9406 0.4635
C21 C 0.7275(3) 0.7883(2) 0.45137(18)
H19 H 0.7744 0.7545 0.4913
H20 H 0.7561 0.7755 0.3980
C22 C 0.5564(3) 0.7350(2) 0.42231(17)
H21 H 0.5276 0.6577 0.4008
H22 H 0.5258 0.7529 0.4743
C23 C 0.4754(3) 0.7706(2) 0.34816(18)
C24 C 1.8899(3) 1.89787(19) 1.09624(16)
H23 H 1.9524 1.9063 1.0620
C25 C 1.7525(3) 1.8145(2) 1.05841(16)
H24 H 1.7242 1.7676 1.0002
C26 C 1.6559(3) 1.80063(19) 1.10774(16)
C27 C 1.7072(3) 1.8724(2) 1.19448(17)
H25 H 1.6470 1.8660 1.2302
C28 C 1.8468(3) 1.9529(2) 1.22771(17)
H26 H 1.8791 1.9995 1.2864
C29 C 1.5066(3) 1.71534(19) 1.07027(17)
H27 H 1.4466 1.7060 1.1059
C30 C 1.2925(3) 0.9442(2) 1.13228(16)
C31 C 1.2829(3) 0.9620(2) 1.04260(17)
H28 H 1.1986 0.9845 1.0230
H29 H 1.3742 1.0201 1.0508
C32 C -0.4572(3) 0.3944(2) 0.38021(19)
H30 H -0.4250 0.4437 0.4377
C33 C -0.5935(3) 0.3099(2) 0.34771(19)
H31 H -0.6520 0.3040 0.3845
C34 C -0.5619(3) 0.2486(2) 0.21415(18)
H32 H -0.5977 0.1993 0.1563
N1 N 0.4569(2) 0.94883(16) 0.65732(13)
N2 N -0.0298(2) 0.63872(18) 0.45657(16)
N3 N -0.1718(2) 0.55987(18) 0.43750(17)
N4 N 0.8758(2) 1.22828(16) 0.77078(14)
N5 N 1.9388(2) 1.96788(15) 1.17990(13)
N6 N -0.6461(2) 0.23602(16) 0.26613(14)
N7 N 1.3132(2) 1.57678(18) 0.96218(15)
N8 N 1.4591(2) 1.65437(18) 0.98956(15)
Co1 Co 0.85235(3) 0.89772(3) 0.77558(2)
Co2 Co 0.66817(3) 1.08706(3) 0.71117(2)
O1 O 1.24734(17) 0.99584(14) 1.18749(12)
O2 O 1.35204(18) 0.88131(13) 1.15600(11)
O3 O 0.93095(12) 0.86871(9) 0.90196(5)
O4 O 0.98046(11) 0.79049(8) 0.78651(5)
O5 O 0.81993(8) 0.88520(6) 0.64395(5)
O6 O 0.74715(12) 1.01811(6) 0.61816(6)
O7 O 0.45958(13) 0.72713(9) 0.26859(5)
O8 O 0.43244(11) 0.84613(9) 0.37236(6)
N5A N 1.0612(2) 1.03212(15) 0.82010(13)
N6A N 0.6461(2) 0.76398(16) 0.73387(14)
Co1A Co -0.85235(3) 0.10228(3) 0.22442(2)
Co1A_2 Co 1.14765(3) 1.10228(3) 1.22442(2)
Co1A_3 Co 2.14765(3) 2.10228(3) 1.22442(2)
Co2A Co 0.33183(3) 0.91294(3) 0.28883(2)
Co2A_2 Co 1.33183(3) 0.91294(3) 1.28883(2)
O1A O 0.75266(17) 1.00416(14) 0.81251(12)
O2A O 0.64796(18) 1.11869(13) 0.84400(11)
O8A O 0.56756(11) 1.15387(9) 0.62764(6)
C35 C 0.3223(4) 0.4641(3) 0.1468(3)
H33 H 0.3250 0.4295 0.0890
H34 H 0.2573 0.5041 0.1387
H35 H 0.2847 0.4110 0.1736
O9 O 0.4675(2) 0.53359(11) 0.20371(6)
H36 H 0.4637 0.5887 0.2336
C36 C 0.8420(5) 0.4973(3) 0.6671(3)
H37 H 0.8387 0.4662 0.6068
H38 H 0.7626 0.5249 0.6640
H39 H 0.8291 0.4435 0.6967
O10 O 0.98400(19) 0.58232(10) 0.71715(8)
H40 H 0.9731 0.6401 0.7223
loop_
_geom_bond_atom_site_label_1
_geom_bond_atom_site_label_2
_geom_bond_site_symmetry_1
_geom_bond_site_symmetry_2
C1 H1 1_555 1_555
C2 C1 1_555 1_555
H2 C2 1_555 1_555
C3 C2 1_555 1_555
C4 C3 1_555 1_555
H3 C4 1_555 1_555
C5 C4 1_555 1_555
H4 C5 1_555 1_555
C6 C3 1_555 1_555
H5 C6 1_555 1_555
C7 H6 1_555 1_555
C8 C7 1_555 1_555
C9 C8 1_555 1_555
H7 C9 1_555 1_555
C10 H8 1_555 1_555
C11 C10 1_555 1_555
H9 C11 1_555 1_555
C12 C11 1_555 1_555
C13 C12 1_555 1_555
H10 C13 1_555 1_555
C14 C13 1_555 1_555
H11 C14 1_555 1_555
C15 C12 1_555 1_555
H12 C15 1_555 1_555
C16 C17 1_555 1_555
C17 H13 1_555 1_555
H14 C17 1_555 1_555
C18 C17 1_555 1_555
H15 C18 1_555 1_555
H16 C18 1_555 1_555
C19 C20 1_555 1_555
C20 H17 1_555 1_555
H18 C20 1_555 1_555
C21 C20 1_555 1_555
H19 C21 1_555 1_555
H20 C21 1_555 1_555
C22 C21 1_555 1_555
H21 C22 1_555 1_555
H22 C22 1_555 1_555
C23 C22 1_555 1_555
C24 H23 1_555 1_555
C25 C24 1_555 1_555
H24 C25 1_555 1_555
C26 C25 1_555 1_555
C27 C26 1_555 1_555
H25 C27 1_555 1_555
C28 C27 1_555 1_555
H26 C28 1_555 1_555
C29 C26 1_555 1_555
H27 C29 1_555 1_555
C30 C31 1_555 1_555
C31 C18 1_555 1_555
H28 C31 1_555 1_555
H29 C31 1_555 1_555
C32 C8 1_555 1_555
H30 C32 1_555 1_555
C33 C32 1_555 1_555
H31 C33 1_555 1_555
C34 C9 1_555 1_555
H32 C34 1_555 1_555
N1 C1 1_555 1_555
N2 C6 1_555 1_555
N3 C7 1_555 1_555
N4 C10 1_555 1_555
N5 C24 1_555 1_555
N6 C33 1_555 1_555
N7 C15 1_555 1_555
N8 C29 1_555 1_555
Co1 O3 1_555 1_555
Co2 N1 1_555 1_555
O1 C30 1_555 1_555
O2 C30 1_555 1_555
O3 C16 1_555 1_555
O4 C16 1_555 1_555
O5 C19 1_555 1_555
O6 C19 1_555 1_555
O7 C23 1_555 1_555
O8 C23 1_555 1_555
C35 H33 1_555 1_555
H34 C35 1_555 1_555
H35 C35 1_555 1_555
O9 C35 1_555 1_555
H36 O9 1_555 1_555
C36 H37 1_555 1_555
H38 C36 1_555 1_555
H39 C36 1_555 1_555
O10 C36 1_555 1_555
H40 O10 1_555 1_555
N5A Co1 1_555 1_555
N6A Co1 1_555 1_555
Co1A N6 1_555 1_555
Co1A_2 O1 1_555 1_555
Co1A_3 N5 1_555 1_555
Co2A O8 1_555 1_555
Co2A_2 O1 1_555 1_555
O1A Co1 1_555 1_555
O2A Co2 1_555 1_555
O8A Co2 1_555 1_555
C5 N1 1_555 1_555
C14 N4 1_555 1_555
C28 N5 1_555 1_555
C34 N6 1_555 1_555
N2 N3 1_555 1_555
N4 Co2 1_555 1_555
N7 N8 1_555 1_555
Co1 O4 1_555 1_555
Co1 O5 1_555 1_555
Co2 O6 1_555 1_555
Co2 O1A 1_555 1_555
O2 Co2A_2 1_555 1_555

#END
