
#######################################################################
#
#                 Cambridge Crystallographic Data Centre
#                                CCDC 
#
#######################################################################
#
# If this CIF has been generated from an entry in the Cambridge 
# Structural Database, then it will include bibliographic, chemical, 
# crystal, experimental, refinement or atomic coordinate data resulting 
# from the CCDC's data processing and validation procedures.
#
#######################################################################

data_NIZDAC
_symmetry_cell_setting           triclinic
_symmetry_space_group_name_H-M   'P -1'
_symmetry_Int_Tables_number      2
_space_group_name_Hall           '-P 1'
loop_
_symmetry_equiv_pos_site_id
_symmetry_equiv_pos_as_xyz
1 x,y,z
2 -x,-y,-z
_cell_length_a                   9.6521(6)
_cell_length_b                   9.7770(6)
_cell_length_c                   10.0407(6)
_cell_angle_alpha                89.927(1)
_cell_angle_beta                 70.098(1)
_cell_angle_gamma                62.951(1)
_cell_volume                     780.035
loop_
_atom_site_label
_atom_site_type_symbol
_atom_site_fract_x
_atom_site_fract_y
_atom_site_fract_z
C1 C 0.464(2) 0.751(2) 0.243(2)
H1 H 0.4866 0.7967 0.1575
H2 H 0.5722 0.6723 0.2422
C2 C 0.3643(18) 0.6704(18) 0.2325(16)
H3 H 0.4283 0.5951 0.1416
C3 C 0.1933(19) 0.783(2) 0.2321(16)
C4 C 0.329(2) 0.4490(18) 0.3134(17)
H4 H 0.2621 0.4812 0.2534
C5 C 0.500(3) 0.306(2) 0.222(2)
H5 H 0.4793 0.2237 0.1961
H6 H 0.5505 0.3354 0.1334
C6 C 0.625(2) 0.241(2) 0.2938(18)
C7 C 0.380(2) 0.878(2) 0.3750(19)
N1 N 0.3477(17) 0.5822(15) 0.3520(14)
O1 O 0.2241(13) 0.9398(14) 0.4479(12)
O2 O 0.198(2) 0.860(2) 0.1316(18)
O3 O 0.0671(13) 0.7908(15) 0.3281(13)
O4 O 0.170(2) 0.4887(18) 0.5687(15)
O5 O 0.4674(17) 0.923(2) 0.4112(19)
Pb1 Pb 0.0000 1.0000 0.0000
Pb2 Pb 0.10603(9) 0.75798(7) 0.57913(7)
Pb3 Pb 0.22908(7) 1.13204(7) 0.63296(6)
O6 O 0.7404(19) 0.1032(16) 0.2484(14)
O7 O 0.6201(19) 0.3294(16) 0.3904(15)
C8 C 0.233(3) 0.401(2) 0.446(2)
O8 O 0.223(2) 0.2791(17) 0.4276(16)
O9 O 0.044(5) 0.731(3) -0.130(3)
O10 O 0.073(4) 1.226(3) -0.077(2)
C1A C -0.464(2) 1.249(2) -0.243(2)
H1A H -0.4866 1.2033 -0.1575
H2A H -0.5722 1.3277 -0.2422
C2A C -0.3643(18) 1.3296(18) -0.2325(16)
H3A H -0.4283 1.4049 -0.1416
C3A C -0.1933(19) 1.217(2) -0.2321(16)
C4A C -0.329(2) 1.5510(18) -0.3134(17)
H4A H -0.2621 1.5188 -0.2534
C5A C -0.500(3) 1.694(2) -0.222(2)
H5A H -0.4793 1.7763 -0.1961
H6A H -0.5505 1.6646 -0.1334
C6A C -0.625(2) 1.759(2) -0.2938(18)
C7A C -0.380(2) 1.122(2) -0.3750(19)
N1A N -0.3477(17) 1.4178(15) -0.3520(14)
O1A O -0.2241(13) 1.0602(14) -0.4479(12)
O2A O -0.198(2) 1.140(2) -0.1316(18)
O3A O -0.0671(13) 1.2092(15) -0.3281(13)
O3A_2 O -0.0671(13) 1.2092(15) 0.6719(13)
O3_2 O 0.0671(13) 0.7908(15) -0.6719(13)
O4A O -0.170(2) 1.5113(18) -0.5687(15)
O5A O -0.4674(17) 1.077(2) -0.4112(19)
O5A_2 O 0.5326(17) 1.077(2) 0.5888(19)
O5_2 O -0.5326(17) 0.923(2) -0.5888(19)
Pb1_2 Pb 1.0000 0.0000 0.0000
Pb1_3 Pb -1.0000 2.0000 0.0000
Pb2A Pb -0.10603(9) 1.24202(7) -0.57913(7)
Pb2A_2 Pb 0.89397(9) 0.24202(7) 0.42087(7)
Pb2_2 Pb 0.10603(9) 0.75798(7) -0.42087(7)
Pb2_3 Pb -0.89397(9) 1.75798(7) -0.42087(7)
Pb2A_3 Pb -0.10603(9) 1.24202(7) 0.42087(7)
Pb3A Pb -0.22908(7) 0.86796(7) -0.63296(6)
Pb3A_2 Pb -0.22908(7) 0.86796(7) 0.36704(6)
Pb3A_3 Pb 0.77092(7) 0.86796(7) 0.36704(6)
Pb3A_4 Pb 0.77092(7) -0.13204(7) 0.36704(6)
Pb3_2 Pb 0.22908(7) 0.13204(7) 0.63296(6)
Pb3_3 Pb 0.22908(7) 1.13204(7) -0.36704(6)
Pb3_4 Pb -0.77092(7) 1.13204(7) -0.36704(6)
Pb3_5 Pb -0.77092(7) 2.13204(7) -0.36704(6)
Pb3A_5 Pb -0.22908(7) 1.86796(7) -0.63296(6)
O6A O -0.7404(19) 1.8968(16) -0.2484(14)
O6_2 O -0.2596(19) 1.1032(16) 0.2484(14)
O6A_2 O 0.2596(19) 0.8968(16) -0.2484(14)
O6A_3 O 0.2596(19) 0.8968(16) 0.7516(14)
O6_3 O -0.2596(19) 1.1032(16) -0.7516(14)
O7A O -0.6201(19) 1.6706(16) -0.3904(15)
O7A_2 O 0.3799(19) 0.6706(16) 0.6096(15)
O7_2 O -0.3799(19) 1.3294(16) -0.6096(15)
C8A C -0.233(3) 1.599(2) -0.446(2)
O8A O -0.223(2) 1.7209(17) -0.4276(16)
O8_2 O 0.223(2) 1.2791(17) 0.4276(16)
O8A_2 O -0.223(2) 0.7209(17) -0.4276(16)
O9A O -0.044(5) 1.269(3) 0.130(3)
O9_2 O 0.044(5) 0.731(3) 0.870(3)
O9A_2 O -0.044(5) 1.269(3) -0.870(3)
O10A O -0.073(4) 0.774(3) 0.077(2)
O10_2 O 0.073(4) 1.226(3) 0.923(2)
O10A_2 O -0.073(4) 0.774(3) -0.923(2)
loop_
_geom_bond_atom_site_label_1
_geom_bond_atom_site_label_2
_geom_bond_site_symmetry_1
_geom_bond_site_symmetry_2
C1 H1 1_555 1_555
H2 C1 1_555 1_555
C2 C1 1_555 1_555
H3 C2 1_555 1_555
C3 C2 1_555 1_555
C4 H4 1_555 1_555
C5 C4 1_555 1_555
H5 C5 1_555 1_555
H6 C5 1_555 1_555
C6 C5 1_555 1_555
C7 C1 1_555 1_555
N1 C2 1_555 1_555
O1 C7 1_555 1_555
O2 C3 1_555 1_555
O3 C3 1_555 1_555
O4 Pb2 1_555 1_555
O5 C7 1_555 1_555
Pb1 O2 1_555 1_555
Pb2 N1 1_555 1_555
Pb3 O1 1_555 1_555
O6 C6 1_555 1_555
O7 C6 1_555 1_555
C8 C4 1_555 1_555
O8 C8 1_555 1_555
O9 Pb1 1_555 1_555
O10 Pb1 1_555 1_555
C1A H1A 1_555 1_555
H2A C1A 1_555 1_555
C2A C1A 1_555 1_555
H3A C2A 1_555 1_555
C3A C2A 1_555 1_555
C4A H4A 1_555 1_555
C5A C4A 1_555 1_555
H5A C5A 1_555 1_555
H6A C5A 1_555 1_555
C6A C5A 1_555 1_555
C7A C1A 1_555 1_555
N1A C2A 1_555 1_555
O1A C7A 1_555 1_555
O2A Pb1 1_555 1_555
O3A C3A 1_555 1_555
O3A_2 Pb3 1_555 1_555
O3_2 Pb2_2 1_555 1_555
O4A Pb2A 1_555 1_555
O5A C7A 1_555 1_555
O5A_2 Pb3 1_555 1_555
O5_2 Pb3A 1_555 1_555
Pb1_2 O6 1_555 1_555
Pb1_3 O6A 1_555 1_555
Pb2A N1A 1_555 1_555
Pb2A_2 O7 1_555 1_555
Pb2_2 O9 1_555 1_555
Pb2_3 O7A 1_555 1_555
Pb2A_3 O3A_2 1_555 1_555
Pb3A O1A 1_555 1_555
Pb3A_2 O3 1_555 1_555
Pb3A_3 O5 1_555 1_555
Pb3A_4 O6 1_555 1_555
Pb3_2 O8 1_555 1_555
Pb3_3 O10 1_555 1_555
Pb3_4 O5A 1_555 1_555
Pb3_5 O6A 1_555 1_555
Pb3A_5 O8A 1_555 1_555
O6A C6A 1_555 1_555
O6_2 Pb1 1_555 1_555
O6A_2 Pb1 1_555 1_555
O6A_3 Pb3 1_555 1_555
O6_3 Pb3A 1_555 1_555
O7A C6A 1_555 1_555
O7A_2 Pb2 1_555 1_555
O7_2 Pb2A 1_555 1_555
C8A C4A 1_555 1_555
O8A C8A 1_555 1_555
O8_2 Pb3 1_555 1_555
O8A_2 Pb3A 1_555 1_555
O9A Pb1 1_555 1_555
O9_2 Pb2 1_555 1_555
O9A_2 Pb2A 1_555 1_555
O10A Pb1 1_555 1_555
O10_2 Pb3 1_555 1_555
O10A_2 Pb3A 1_555 1_555
C4 N1 1_555 1_555
O1 Pb2 1_555 1_555
O3 Pb2 1_555 1_555
O4 C8 1_555 1_555
O5 Pb3 1_555 1_555
C3A O2A 1_555 1_555
C4A N1A 1_555 1_555
O1A Pb2A 1_555 1_555
O3A Pb2A 1_555 1_555
O3A Pb3_3 1_555 1_555
O3_2 Pb3A 1_555 1_555
O4A C8A 1_555 1_555
O5A Pb3A 1_555 1_555
O5A_2 Pb3A_3 1_555 1_555
O5_2 Pb3_4 1_555 1_555
Pb2A_3 O9A 1_555 1_555
Pb3A_2 O6_2 1_555 1_555
Pb3A_2 O10A 1_555 1_555
Pb3_3 O6A_2 1_555 1_555

#END
