
#######################################################################
#
#                 Cambridge Crystallographic Data Centre
#                                CCDC 
#
#######################################################################
#
# If this CIF has been generated from an entry in the Cambridge 
# Structural Database, then it will include bibliographic, chemical, 
# crystal, experimental, refinement or atomic coordinate data resulting 
# from the CCDC's data processing and validation procedures.
#
#######################################################################

data_NIZFEJ
_symmetry_cell_setting           monoclinic
_symmetry_space_group_name_H-M   'P 21'
_symmetry_Int_Tables_number      4
_space_group_name_Hall           'P 2yb'
loop_
_symmetry_equiv_pos_site_id
_symmetry_equiv_pos_as_xyz
1 x,y,z
2 -x,1/2+y,-z
_cell_length_a                   8.7861(13)
_cell_length_b                   8.3975(7)
_cell_length_c                   10.4736(15)
_cell_angle_alpha                90
_cell_angle_beta                 103.819(5)
_cell_angle_gamma                90
_cell_volume                     750.388
loop_
_atom_site_label
_atom_site_type_symbol
_atom_site_fract_x
_atom_site_fract_y
_atom_site_fract_z
P1 P 0.80329(10) 0.47063(9) 0.84395(8)
Na1 Na 0.85673(14) 0.10358(13) 1.02612(12)
O1 O 0.8625(3) 0.3558(2) 0.9506(2)
O2 O 0.8856(2) 0.6259(2) 0.8442(2)
O3 O 0.6210(2) 0.5044(2) 0.8410(2)
O4 O 0.3518(3) 0.6662(2) 0.8646(2)
O5 O 0.2778(3) 0.6765(2) 0.6350(2)
O6 O 0.4590(3) 0.3305(2) 0.6019(2)
O7 O 0.7887(3) 0.3807(2) 0.7062(2)
O8 O 0.8200(3) -0.0539(3) 0.8421(2)
H1 H 0.8680 -0.1453 0.8491
N1 N 0.2033(3) 0.3875(3) 0.8248(3)
N2 N 0.3054(3) 0.1543(3) 0.6747(3)
C1 C 0.5287(4) 0.5807(4) 0.7264(3)
H2 H 0.5698 0.6905 0.7192
C2 C 0.3616(4) 0.5906(3) 0.7465(3)
C3 C 0.4436(4) 0.8109(4) 0.8951(4)
H3 H 0.5549 0.7835 0.9250
H4 H 0.4102 0.8693 0.9647
H5 H 0.4278 0.8776 0.8163
C4 C 0.1111(4) 0.6788(4) 0.6165(4)
H6 H 0.0696 0.5709 0.5972
H7 H 0.0648 0.7494 0.5429
H8 H 0.0846 0.7178 0.6967
C5 C 0.3023(4) 0.4232(3) 0.7506(3)
C6 C 0.1533(4) 0.2369(4) 0.8226(3)
H9 H 0.0813 0.2083 0.8734
C7 C 0.2036(4) 0.1230(4) 0.7483(3)
H10 H 0.1647 0.0175 0.7492
C8 C 0.3542(4) 0.3055(4) 0.6763(3)
C9 C 0.5310(4) 0.4877(4) 0.6037(3)
H11 H 0.4731 0.5494 0.5253
C10 C 0.6973(4) 0.4596(4) 0.5916(3)
H12 H 0.6955 0.3937 0.5129
H13 H 0.7466 0.5630 0.5802
C11 C 0.7611(4) -0.0199(5) 0.7076(3)
H14 H 0.6513 -0.0536 0.6803
H15 H 0.8228 -0.0773 0.6559
H16 H 0.7682 0.0949 0.6929
Na1A Na 0.14327(14) 0.60358(13) 0.97388(12)
Na1A_2 Na 1.14327(14) 0.60358(13) 0.97388(12)
O2A O 1.1144(2) 0.1259(2) 1.1558(2)
O4A O 0.6482(3) 0.1662(2) 1.1354(2)
N1A N 0.7967(3) -0.1125(3) 1.1752(3)
loop_
_geom_bond_atom_site_label_1
_geom_bond_atom_site_label_2
_geom_bond_site_symmetry_1
_geom_bond_site_symmetry_2
P1 O1 1_555 1_555
Na1 O1 1_555 1_555
O2 P1 1_555 1_555
O3 P1 1_555 1_555
O4 C2 1_555 1_555
O5 C2 1_555 1_555
O6 C8 1_555 1_555
O7 P1 1_555 1_555
O8 Na1 1_555 1_555
H1 O8 1_555 1_555
N1 C5 1_555 1_555
N2 C7 1_555 1_555
C1 O3 1_555 1_555
H2 C1 1_555 1_555
C2 C1 1_555 1_555
C3 O4 1_555 1_555
H3 C3 1_555 1_555
H4 C3 1_555 1_555
H5 C3 1_555 1_555
C4 O5 1_555 1_555
H6 C4 1_555 1_555
H7 C4 1_555 1_555
H8 C4 1_555 1_555
C5 C2 1_555 1_555
C6 N1 1_555 1_555
H9 C6 1_555 1_555
C7 C6 1_555 1_555
H10 C7 1_555 1_555
C8 N2 1_555 1_555
C9 O6 1_555 1_555
H11 C9 1_555 1_555
C10 O7 1_555 1_555
H12 C10 1_555 1_555
H13 C10 1_555 1_555
C11 O8 1_555 1_555
H14 C11 1_555 1_555
H15 C11 1_555 1_555
H16 C11 1_555 1_555
Na1A O4 1_555 1_555
Na1A_2 O2 1_555 1_555
O2A Na1 1_555 1_555
O4A Na1 1_555 1_555
N1A Na1 1_555 1_555
N1 Na1A 1_555 1_555
C1 C9 1_555 1_555
C5 C8 1_555 1_555
C9 C10 1_555 1_555

#END
