
#######################################################################
#
#                 Cambridge Crystallographic Data Centre
#                                CCDC 
#
#######################################################################
#
# If this CIF has been generated from an entry in the Cambridge 
# Structural Database, then it will include bibliographic, chemical, 
# crystal, experimental, refinement or atomic coordinate data resulting 
# from the CCDC's data processing and validation procedures.
#
#######################################################################

data_NIZNUH
_symmetry_cell_setting           monoclinic
_symmetry_space_group_name_H-M   'P 21/c'
_symmetry_Int_Tables_number      14
_space_group_name_Hall           '-P 2ybc'
loop_
_symmetry_equiv_pos_site_id
_symmetry_equiv_pos_as_xyz
1 x,y,z
2 -x,1/2+y,1/2-z
3 -x,-y,-z
4 x,1/2-y,1/2+z
_cell_length_a                   7.4565(8)
_cell_length_b                   17.0215(17)
_cell_length_c                   17.1578(17)
_cell_angle_alpha                90
_cell_angle_beta                 97.280(2)
_cell_angle_gamma                90
_cell_volume                     2160.13
loop_
_atom_site_label
_atom_site_type_symbol
_atom_site_fract_x
_atom_site_fract_y
_atom_site_fract_z
Cu1 Cu 1.0000 1.0000 1.0000
Cu2 Cu 0.79039(7) 0.83013(3) 0.96073(3)
Cu3 Cu 0.98439(8) 1.12960(3) 0.85580(3)
Cu4 Cu 0.70722(8) 0.63800(3) 0.92729(4)
S1 S 0.3471(2) 0.83920(7) 1.01682(8)
O1 O 0.4113(8) 0.5418(2) 1.1303(2)
O2 O 0.2791(6) 0.46749(19) 1.0307(2)
O3 O -0.0836(7) 0.5972(3) 0.8010(3)
O4 O 0.1186(5) 0.66842(18) 0.7480(2)
O5 O 0.5151(7) 0.8572(7) 1.0000(4)
O6 O 0.2035(8) 0.8895(4) 0.9662(4)
O7 O 0.3092(10) 0.8422(4) 1.0948(3)
O8 O 0.7215(5) 0.74340(17) 0.89231(19)
H1 H 0.6567 0.7486 0.8481
O9 O 1.1257(4) 1.08917(16) 0.95592(17)
H2 H 1.2366 1.0668 0.9401
O10 O 0.5488(6) 0.6056(2) 0.8342(2)
H3 H 0.5316 0.5564 0.8295
H4 H 0.5770 0.6223 0.7906
N1 N 0.8741(5) 1.0238(2) 0.8353(2)
N2 N 0.8810(5) 0.97578(19) 0.8963(2)
N3 N 0.7927(5) 0.9098(2) 0.8762(2)
N4 N 0.9295(5) 0.7642(2) 1.1149(2)
N5 N 0.8554(5) 0.7507(2) 1.0420(2)
N6 N 0.8177(6) 0.6751(2) 1.0319(3)
C1 C 0.7256(7) 0.9157(3) 0.8005(3)
H5 H 0.6571 0.8782 0.7708
C2 C 0.7768(7) 0.9878(3) 0.7748(3)
H6 H 0.7489 1.0080 0.7243
C3 C 0.8695(10) 0.6400(3) 1.1014(4)
H7 H 0.8589 0.5868 1.1120
C4 C 0.9395(9) 0.6952(3) 1.1532(3)
H8 H 0.9858 0.6869 1.2055
C5 C 0.2821(8) 0.6032(3) 1.0110(3)
C6 C 0.3351(8) 0.6782(3) 1.0353(3)
H9 H 0.3987 0.6860 1.0849
C7 C 0.2933(8) 0.7418(3) 0.9856(3)
C8 C 0.2044(8) 0.7316(3) 0.9104(3)
H10 H 0.1834 0.7741 0.8765
C9 C 0.1469(8) 0.6563(3) 0.8861(3)
C10 C 0.1838(8) 0.5937(3) 0.9378(3)
H11 H 0.1410 0.5440 0.9226
C11 C 0.3279(9) 0.5328(3) 1.0630(3)
C12 C 0.0487(8) 0.6400(3) 0.8064(3)
Cu2B Cu 0.20961(7) 0.16987(3) 1.03927(3)
Cu3B Cu 0.01561(8) -0.12960(3) 1.14420(3)
Cu4B Cu 0.29278(8) 0.36200(3) 1.07271(4)
S1B S 0.6529(2) 0.16080(7) 0.98318(8)
O1B O 0.5887(8) 0.4582(2) 0.8697(2)
O2B O 0.7209(6) 0.53251(19) 0.9693(2)
O3B O 1.0836(7) 0.4028(3) 1.1990(3)
O4B O 0.8814(5) 0.33158(18) 1.2520(2)
O5B O 0.4849(7) 0.1428(7) 1.0000(4)
O6B O 0.7965(8) 0.1105(4) 1.0338(4)
O7B O 0.6908(10) 0.1578(4) 0.9052(3)
O8B O 0.2785(5) 0.25660(17) 1.10769(19)
H1B H 0.3433 0.2514 1.1519
O9B O -0.1257(4) -0.08917(16) 1.04408(17)
H2B H -0.2366 -0.0668 1.0599
O10B O 0.4512(6) 0.3944(2) 1.1658(2)
H3B H 0.4684 0.4436 1.1705
H4B H 0.4230 0.3777 1.2094
N1B N 0.1259(5) -0.0238(2) 1.1647(2)
N2B N 0.1190(5) 0.02422(19) 1.1037(2)
N3B N 0.2073(5) 0.0902(2) 1.1238(2)
N4B N 0.0705(5) 0.2358(2) 0.8851(2)
N5B N 0.1446(5) 0.2493(2) 0.9580(2)
N6B N 0.1823(6) 0.3249(2) 0.9681(3)
C1B C 0.2744(7) 0.0843(3) 1.1995(3)
H5B H 0.3429 0.1218 1.2292
C2B C 0.2232(7) 0.0122(3) 1.2252(3)
H6B H 0.2511 -0.0080 1.2757
C3B C 0.1305(10) 0.3600(3) 0.8986(4)
H7B H 0.1411 0.4132 0.8880
C4B C 0.0605(9) 0.3048(3) 0.8468(3)
H8B H 0.0142 0.3131 0.7945
C5B C 0.7179(8) 0.3968(3) 0.9890(3)
C6B C 0.6649(8) 0.3218(3) 0.9647(3)
H9B H 0.6013 0.3140 0.9151
C7B C 0.7067(8) 0.2582(3) 1.0144(3)
C8B C 0.7956(8) 0.2684(3) 1.0896(3)
H10B H 0.8166 0.2259 1.1235
C9B C 0.8531(8) 0.3437(3) 1.1139(3)
C10B C 0.8162(8) 0.4063(3) 1.0622(3)
H11B H 0.8590 0.4560 1.0774
C11B C 0.6721(9) 0.4672(3) 0.9370(3)
C12B C 0.9513(8) 0.3600(3) 1.1936(3)
Cu1_2 Cu 0.0000 0.0000 1.0000
Cu1_3 Cu 0.0000 1.0000 1.0000
Cu1_4 Cu 1.0000 0.0000 1.0000
Cu2_2 Cu -0.20961(7) -0.16987(3) 0.96073(3)
Cu2B_2 Cu 1.20961(7) 1.16987(3) 1.03927(3)
Cu3_2 Cu -0.01561(8) 0.12960(3) 0.85580(3)
Cu3_3 Cu 0.98439(8) 0.12960(3) 0.85580(3)
Cu3A Cu 0.01561(8) 0.62960(3) 0.64420(3)
Cu3B_2 Cu 0.01561(8) 0.87040(3) 1.14420(3)
Cu3B_3 Cu 1.01561(8) 0.87040(3) 1.14420(3)
Cu3C Cu 0.98439(8) 0.37040(3) 1.35580(3)
O4A O 0.8814(5) 1.16842(18) 0.7520(2)
O4C O 0.1186(5) -0.16842(18) 1.2480(2)
O6_2 O 1.2035(8) 0.8895(4) 0.9662(4)
O6B_2 O 0.7965(8) 1.1105(4) 1.0338(4)
O7_2 O 0.3092(10) -0.1578(4) 1.0948(3)
O7B_2 O 0.6908(10) 1.1578(4) 0.9052(3)
O9_2 O 0.1257(4) 0.08917(16) 0.95592(17)
O9B_2 O 0.8743(4) 0.91083(16) 1.04408(17)
N2B_2 N 1.1190(5) 1.02422(19) 1.1037(2)
N4_2 N -0.0705(5) -0.2358(2) 1.1149(2)
N4B_2 N 1.0705(5) 1.2358(2) 0.8851(2)
O11 O 0.7708(8) 0.0934(5) 0.2328(4)
H12 H 0.7291 0.0701 0.2705
H13 H 0.7328 0.0689 0.1908
O12 O 0.5387(7) 0.2400(3) 0.2488(3)
H14 H 0.6286 0.2667 0.2378
H15 H 0.5052 0.2596 0.2901
O13 O 0.6396(18) 0.8494(9) 0.1843(7)
O14 O 0.6795(16) 0.9409(7) 0.1713(7)
O15? O 0.4865(9) 0.8660(8) 0.9701(5)
O16? O 0.1956(9) 0.8814(5) 1.0119(5)
O17? O 0.4418(12) 0.8331(5) 1.1013(4)
O18? O 0.6113(8) 0.9927(3) 0.1112(4)
loop_
_geom_bond_atom_site_label_1
_geom_bond_atom_site_label_2
_geom_bond_site_symmetry_1
_geom_bond_site_symmetry_2
Cu1 O9 1_555 1_555
Cu2 O5 1_555 1_555
Cu3 O9 1_555 1_555
Cu4 O8 1_555 1_555
S1 O5 1_555 1_555
O1 C11 1_555 1_555
O2 C11 1_555 1_555
O3 C12 1_555 1_555
O4 C12 1_555 1_555
O6 S1 1_555 1_555
O7 S1 1_555 1_555
O8 Cu2 1_555 1_555
H1 O8 1_555 1_555
O9 H2 1_555 1_555
O10 Cu4 1_555 1_555
H3 O10 1_555 1_555
H4 O10 1_555 1_555
N1 Cu3 1_555 1_555
N2 Cu1 1_555 1_555
N3 Cu2 1_555 1_555
N4 N5 1_555 1_555
N5 Cu2 1_555 1_555
N6 Cu4 1_555 1_555
C1 N3 1_555 1_555
H5 C1 1_555 1_555
C2 N1 1_555 1_555
H6 C2 1_555 1_555
C3 N6 1_555 1_555
H7 C3 1_555 1_555
C4 N4 1_555 1_555
H8 C4 1_555 1_555
C5 C6 1_555 1_555
C6 H9 1_555 1_555
C7 S1 1_555 1_555
C8 C7 1_555 1_555
H10 C8 1_555 1_555
C9 C8 1_555 1_555
C10 C5 1_555 1_555
H11 C10 1_555 1_555
C11 C5 1_555 1_555
C12 C9 1_555 1_555
O11 H12 1_555 1_555
H13 O11 1_555 1_555
O12 H14 1_555 1_555
H15 O12 1_555 1_555
Cu2B O5B 1_555 1_555
Cu3B O9B 1_555 1_555
Cu4B O2 1_555 1_555
S1B O5B 1_555 1_555
O1B C11B 1_555 1_555
O2B Cu4 1_555 1_555
O3B C12B 1_555 1_555
O4B C12B 1_555 1_555
O6B S1B 1_555 1_555
O7B S1B 1_555 1_555
O8B Cu2B 1_555 1_555
H1B O8B 1_555 1_555
O9B H2B 1_555 1_555
O10B Cu4B 1_555 1_555
H3B O10B 1_555 1_555
H4B O10B 1_555 1_555
N1B Cu3B 1_555 1_555
N2B N1B 1_555 1_555
N3B Cu2B 1_555 1_555
N4B N5B 1_555 1_555
N5B Cu2B 1_555 1_555
N6B Cu4B 1_555 1_555
C1B N3B 1_555 1_555
H5B C1B 1_555 1_555
C2B N1B 1_555 1_555
H6B C2B 1_555 1_555
C3B N6B 1_555 1_555
H7B C3B 1_555 1_555
C4B N4B 1_555 1_555
H8B C4B 1_555 1_555
C5B C6B 1_555 1_555
C6B H9B 1_555 1_555
C7B S1B 1_555 1_555
C8B C7B 1_555 1_555
H10B C8B 1_555 1_555
C9B C8B 1_555 1_555
C10B C5B 1_555 1_555
H11B C10B 1_555 1_555
C11B O2B 1_555 1_555
C12B C9B 1_555 1_555
Cu1_2 O9B 1_555 1_555
Cu1_3 O6 1_555 1_555
Cu1_4 O6B 1_555 1_555
Cu2_2 O9B 1_555 1_555
Cu2B_2 O9 1_555 1_555
Cu3_2 N4B 1_555 1_555
Cu3_3 O7B 1_555 1_555
Cu3A O4 1_555 1_555
Cu3B_2 O7 1_555 1_555
Cu3B_3 N4 1_555 1_555
Cu3C O4B 1_555 1_555
O4A Cu3 1_555 1_555
O4C Cu3B 1_555 1_555
O6_2 Cu1 1_555 1_555
O6B_2 Cu1 1_555 1_555
O7_2 Cu3B 1_555 1_555
O7B_2 Cu3 1_555 1_555
O9_2 Cu2B 1_555 1_555
O9B_2 Cu1 1_555 1_555
N2B_2 Cu1 1_555 1_555
N4_2 Cu3B 1_555 1_555
N4B_2 Cu3 1_555 1_555
Cu2 O9B_2 1_555 1_555
N1 N2 1_555 1_555
N2 N3 1_555 1_555
N5 N6 1_555 1_555
C1 C2 1_555 1_555
C3 C4 1_555 1_555
C6 C7 1_555 1_555
C9 C10 1_555 1_555
Cu4B O8B 1_555 1_555
N2B N3B 1_555 1_555
N2B Cu1_2 1_555 1_555
N5B N6B 1_555 1_555
C1B C2B 1_555 1_555
C3B C4B 1_555 1_555
C5B C11B 1_555 1_555
C6B C7B 1_555 1_555
C9B C10B 1_555 1_555
Cu1_2 O9_2 1_555 1_555
Cu3_2 O9_2 1_555 1_555
Cu3B_3 O9B_2 1_555 1_555

#END
