
#######################################################################
#
#                 Cambridge Crystallographic Data Centre
#                                CCDC 
#
#######################################################################
#
# If this CIF has been generated from an entry in the Cambridge 
# Structural Database, then it will include bibliographic, chemical, 
# crystal, experimental, refinement or atomic coordinate data resulting 
# from the CCDC's data processing and validation procedures.
#
#######################################################################

data_NIZNIV
_symmetry_cell_setting           monoclinic
_symmetry_space_group_name_H-M   'P 21/n'
_symmetry_Int_Tables_number      14
_space_group_name_Hall           '-P 2yn'
loop_
_symmetry_equiv_pos_site_id
_symmetry_equiv_pos_as_xyz
1 x,y,z
2 1/2-x,1/2+y,1/2-z
3 -x,-y,-z
4 1/2+x,1/2-y,1/2+z
_cell_length_a                   10.4774(6)
_cell_length_b                   21.9744(12)
_cell_length_c                   19.6644(10)
_cell_angle_alpha                90
_cell_angle_beta                 103.2840(10)
_cell_angle_gamma                90
_cell_volume                     4406.28
loop_
_atom_site_label
_atom_site_type_symbol
_atom_site_fract_x
_atom_site_fract_y
_atom_site_fract_z
Cu1 Cu 1.08153(6) 0.19474(3) 0.41524(4)
Cu2 Cu 0.75705(6) 0.24104(3) 0.37262(4)
Cu3 Cu 1.12401(6) 0.28448(3) 0.68677(4)
Cu4 Cu 0.94156(6) 0.25775(3) 0.53126(4)
Cu5 Cu 0.80764(6) 0.32331(3) 0.65168(4)
Cu6 Cu 0.30492(7) 0.53896(4) 0.82537(4)
S1 S -0.22150(13) 0.64529(6) 0.97909(8)
S2 S 0.89845(14) 0.67492(7) 0.67305(8)
O1 O 0.8815(4) 0.43694(19) 0.6322(3)
O2 O 0.7236(4) 0.39798(17) 0.6773(2)
O3 O 0.4613(4) 0.5383(2) 0.7887(3)
O4 O 0.4871(4) 0.6388(2) 0.7831(3)
O5 O 0.8119(5) 0.7200(2) 0.6348(3)
O6 O 0.9678(6) 0.6962(3) 0.7397(3)
O7 O 0.9841(6) 0.6515(2) 0.6312(4)
O8 O 0.1413(4) 0.5482(2) 0.8558(3)
O9 O 0.0432(5) 0.4647(2) 0.8034(3)
O10 O -0.2905(4) 0.36604(17) 0.9031(2)
O11 O -0.4080(4) 0.42004(18) 0.9615(2)
O12 O -0.3543(4) 0.65987(19) 0.9416(3)
O13 O -0.1252(4) 0.68795(18) 0.9653(2)
O14 O -0.2164(5) 0.6376(2) 1.0527(2)
O15 O 0.9388(3) 0.25053(17) 0.43104(19)
H1 H 0.9660 0.2909 0.4184
O16 O 0.9440(3) 0.26454(17) 0.6304(2)
H2 H 0.9221 0.2242 0.6456
O17 O 1.0907(5) 0.3687(3) 0.6184(3)
H3 H 1.0918 0.3758 0.5761
H4 H 1.0386 0.3941 0.6301
O18 O 0.7426(5) 0.3168(3) 0.2893(3)
H5 H 0.6727 0.3321 0.2644
H6 H 0.8067 0.3367 0.2807
O19 O 0.6661(5) 0.2498(2) 0.6618(3)
H7 H 0.6446 0.2300 0.6945
H8 H 0.6571 0.2262 0.6268
O20 O 0.2175(6) 0.4935(3) 0.7392(3)
H9 H 0.1728 0.5218 0.7046
H10 H 0.1553 0.4653 0.7503
O21 O 0.3476(5) 0.4517(2) 0.8815(3)
H11 H 0.2880 0.4462 0.9115
H12 H 0.4360 0.4523 0.9091
O22 O 0.3868(4) 0.5957(2) 0.9001(3)
H13 H 0.4781 0.6002 0.9003
H14 H 0.3784 0.5798 0.9443
N1 N 1.1882(4) 0.2140(2) 0.5090(2)
N2 N 1.1243(4) 0.2372(2) 0.5540(2)
N3 N 1.2029(5) 0.2439(2) 0.6157(3)
N4 N 0.9102(4) 0.3138(2) 0.7486(3)
N5 N 1.0346(4) 0.2968(2) 0.7622(2)
N6 N 1.0773(4) 0.2877(2) 0.8303(2)
N7 N 0.7185(4) 0.3264(2) 0.5502(2)
N8 N 0.7736(4) 0.2964(2) 0.5059(2)
N9 N 0.6959(4) 0.2948(2) 0.4425(2)
N10 N 0.9638(4) 0.1722(2) 0.3258(3)
N11 N 0.8432(4) 0.1950(2) 0.3070(2)
N12 N 0.7935(4) 0.1825(2) 0.2404(3)
C1 C 1.3224(6) 0.2240(3) 0.6108(3)
H15 H 1.3978 0.2233 0.6466
C2 C 1.3123(5) 0.2053(3) 0.5438(3)
H16 H 1.3796 0.1894 0.5256
C3 C 0.9778(6) 0.2993(3) 0.8603(3)
H17 H 0.9805 0.2969 0.9078
C4 C 0.8726(5) 0.3152(3) 0.8096(3)
H18 H 0.7897 0.3253 0.8156
C5 C 0.5859(6) 0.3256(3) 0.4465(3)
H19 H 0.5140 0.3326 0.4097
C6 C 0.5991(6) 0.3442(3) 0.5128(3)
H20 H 0.5369 0.3657 0.5300
C7 C 0.8832(6) 0.1519(3) 0.2161(3)
H21 H 0.8738 0.1376 0.1706
C8 C 0.9920(6) 0.1450(3) 0.2699(3)
H22 H 1.0697 0.1254 0.2680
C9 C 0.7575(5) 0.5053(3) 0.6855(3)
C10 C 0.6576(5) 0.5154(3) 0.7193(3)
H23 H 0.6095 0.4827 0.7301
C11 C 0.6285(5) 0.5740(3) 0.7372(3)
C12 C 0.7006(6) 0.6230(3) 0.7220(3)
H24 H 0.6812 0.6624 0.7338
C13 C 0.8019(5) 0.6125(3) 0.6888(3)
C14 C 0.8321(5) 0.5545(3) 0.6713(3)
H25 H 0.9017 0.5481 0.6502
C15 C 0.7920(5) 0.4428(3) 0.6637(3)
C16 C 0.5175(5) 0.5856(3) 0.7726(3)
C17 C -0.0557(6) 0.5149(3) 0.8837(3)
C18 C -0.1323(5) 0.4649(3) 0.8894(3)
H26 H -0.1161 0.4280 0.8697
C19 C -0.2336(5) 0.4689(3) 0.9245(3)
C20 C -0.2589(6) 0.5247(3) 0.9531(3)
H27 H -0.3259 0.5281 0.9766
C21 C -0.1836(5) 0.5746(3) 0.9459(3)
C22 C -0.0812(5) 0.5705(3) 0.9122(3)
H28 H -0.0301 0.6044 0.9086
C23 C 0.0513(6) 0.5082(3) 0.8441(4)
C24 C -0.3163(5) 0.4153(3) 0.9308(3)
Cu1B Cu 0.91847(6) 0.80526(3) 0.58476(4)
Cu1C Cu -0.41847(6) 0.30526(3) 0.91524(4)
Cu2A Cu -0.25705(6) 0.74104(3) 1.12738(4)
Cu2C Cu 1.25705(6) 0.25896(3) 0.87262(4)
Cu3C Cu 0.62401(6) 0.21552(3) 0.18677(4)
Cu4A Cu -0.44156(6) 0.75775(3) 0.96874(4)
O5B O 1.1881(5) 0.2800(2) 0.3652(3)
O10C O 1.2095(4) 0.13396(17) 0.4031(2)
O11C O 1.0920(4) 0.07996(18) 0.4615(2)
O12A O 0.8543(4) 0.15987(19) 0.5584(3)
O14A O 0.7164(5) 0.1376(2) 0.4473(2)
N6C N 0.5773(4) 0.2123(2) 0.3303(2)
N12C N 1.2935(4) 0.3175(2) 0.7404(3)
O23 O 0.2349(11) 0.3846(5) 0.5178(5)
O24 O 0.1324(13) 0.5059(5) 0.4963(5)
O25 O 0.1981(18) 0.5611(6) 0.6195(7)
loop_
_geom_bond_atom_site_label_1
_geom_bond_atom_site_label_2
_geom_bond_site_symmetry_1
_geom_bond_site_symmetry_2
Cu1 O15 1_555 1_555
Cu2 O15 1_555 1_555
Cu3 O16 1_555 1_555
Cu4 O15 1_555 1_555
Cu5 O1 1_555 1_555
Cu6 O3 1_555 1_555
S1 O12 1_555 1_555
S2 O5 1_555 1_555
O1 C15 1_555 1_555
O2 Cu5 1_555 1_555
O3 C16 1_555 1_555
O4 C16 1_555 1_555
O5 Cu1B 1_555 1_555
O6 S2 1_555 1_555
O7 S2 1_555 1_555
O8 Cu6 1_555 1_555
O9 C23 1_555 1_555
O10 C24 1_555 1_555
O11 C24 1_555 1_555
O12 Cu4A 1_555 1_555
O13 S1 1_555 1_555
O14 S1 1_555 1_555
O15 H1 1_555 1_555
O16 Cu4 1_555 1_555
H2 O16 1_555 1_555
O17 Cu3 1_555 1_555
H3 O17 1_555 1_555
H4 O17 1_555 1_555
O18 Cu2 1_555 1_555
H5 O18 1_555 1_555
H6 O18 1_555 1_555
O19 Cu5 1_555 1_555
H7 O19 1_555 1_555
H8 O19 1_555 1_555
O20 Cu6 1_555 1_555
H9 O20 1_555 1_555
H10 O20 1_555 1_555
O21 Cu6 1_555 1_555
H11 O21 1_555 1_555
H12 O21 1_555 1_555
O22 Cu6 1_555 1_555
H13 O22 1_555 1_555
H14 O22 1_555 1_555
N1 Cu1 1_555 1_555
N2 Cu4 1_555 1_555
N3 Cu3 1_555 1_555
N4 Cu5 1_555 1_555
N5 Cu3 1_555 1_555
N6 N5 1_555 1_555
N7 Cu5 1_555 1_555
N8 Cu4 1_555 1_555
N9 Cu2 1_555 1_555
N10 Cu1 1_555 1_555
N11 Cu2 1_555 1_555
N12 N11 1_555 1_555
C1 N3 1_555 1_555
H15 C1 1_555 1_555
C2 N1 1_555 1_555
H16 C2 1_555 1_555
C3 N6 1_555 1_555
H17 C3 1_555 1_555
C4 N4 1_555 1_555
H18 C4 1_555 1_555
C5 N9 1_555 1_555
H19 C5 1_555 1_555
C6 N7 1_555 1_555
H20 C6 1_555 1_555
C7 N12 1_555 1_555
H21 C7 1_555 1_555
C8 N10 1_555 1_555
H22 C8 1_555 1_555
C9 C10 1_555 1_555
C10 H23 1_555 1_555
C11 C10 1_555 1_555
C12 C11 1_555 1_555
H24 C12 1_555 1_555
C13 S2 1_555 1_555
C14 C9 1_555 1_555
H25 C14 1_555 1_555
C15 O2 1_555 1_555
C16 C11 1_555 1_555
C17 C18 1_555 1_555
C18 H26 1_555 1_555
C19 C18 1_555 1_555
C20 C19 1_555 1_555
H27 C20 1_555 1_555
C21 S1 1_555 1_555
C22 C17 1_555 1_555
H28 C22 1_555 1_555
C23 O8 1_555 1_555
C24 C19 1_555 1_555
Cu1C O10 1_555 1_555
Cu2A O14 1_555 1_555
Cu2C N6 1_555 1_555
Cu3C N12 1_555 1_555
O5B Cu1 1_555 1_555
O10C Cu1 1_555 1_555
O11C Cu1 1_555 1_555
O12A Cu4 1_555 1_555
O14A Cu2 1_555 1_555
N6C Cu2 1_555 1_555
N12C Cu3 1_555 1_555
Cu5 O16 1_555 1_555
O11 Cu1C 1_555 1_555
N1 N2 1_555 1_555
N2 N3 1_555 1_555
N4 N5 1_555 1_555
N7 N8 1_555 1_555
N8 N9 1_555 1_555
N10 N11 1_555 1_555
C1 C2 1_555 1_555
C3 C4 1_555 1_555
C5 C6 1_555 1_555
C7 C8 1_555 1_555
C9 C15 1_555 1_555
C12 C13 1_555 1_555
C13 C14 1_555 1_555
C17 C23 1_555 1_555
C20 C21 1_555 1_555
C21 C22 1_555 1_555

#END
