
#######################################################################
#
#                 Cambridge Crystallographic Data Centre
#                                CCDC 
#
#######################################################################
#
# If this CIF has been generated from an entry in the Cambridge 
# Structural Database, then it will include bibliographic, chemical, 
# crystal, experimental, refinement or atomic coordinate data resulting 
# from the CCDC's data processing and validation procedures.
#
#######################################################################

data_NIZPOB
_symmetry_cell_setting           monoclinic
_symmetry_space_group_name_H-M   'P 21/n'
_symmetry_Int_Tables_number      14
_space_group_name_Hall           '-P 2yn'
loop_
_symmetry_equiv_pos_site_id
_symmetry_equiv_pos_as_xyz
1 x,y,z
2 1/2-x,1/2+y,1/2-z
3 -x,-y,-z
4 1/2+x,1/2-y,1/2+z
_cell_length_a                   14.451(2)
_cell_length_b                   9.744(3)
_cell_length_c                   14.730(2)
_cell_angle_alpha                90
_cell_angle_beta                 109.58(1)
_cell_angle_gamma                90
_cell_volume                     1954.2
loop_
_atom_site_label
_atom_site_type_symbol
_atom_site_fract_x
_atom_site_fract_y
_atom_site_fract_z
Cu1 Cu 0.68987(4) 0.42610(5) 0.79554(4)
O1 O 0.7476(2) 0.1934(3) 0.7998(2)
O2 O 0.7995(2) 0.4823(3) 0.7566(2)
N1 N 0.7541(3) 0.4777(3) 0.9328(2)
N2 N 0.5800(2) 0.3610(3) 0.8429(2)
N3 N 0.5939(2) 0.3834(3) 0.6662(2)
C1 C 0.6136(3) 0.3689(4) 0.5840(3)
C2 C 0.5424(4) 0.3354(5) 0.4990(3)
C3 C 0.4474(4) 0.3156(5) 0.4974(3)
C4 C 0.4272(3) 0.3282(5) 0.5836(4)
C5 C 0.5019(3) 0.3625(4) 0.6665(3)
C6 C 0.4862(3) 0.3827(4) 0.7610(3)
C7 C 0.5876(3) 0.4480(4) 0.9287(3)
C8 C 0.6942(3) 0.4689(4) 0.9859(3)
C9 C 0.7298(4) 0.4850(5) 1.0851(3)
C10 C 0.8279(5) 0.5163(6) 1.1305(4)
C11 C 0.8872(4) 0.5304(5) 1.0753(4)
C12 C 0.8497(3) 0.5095(5) 0.9773(3)
C13 C 0.5926(3) 0.2146(4) 0.8772(3)
C14 C 0.5943(3) 0.1062(4) 0.8042(3)
C15 C 0.6893(3) 0.0963(4) 0.7816(3)
H1 H 0.67968 0.38353 0.58515
H2 H 0.55830 0.32460 0.44107
H3 H 0.39581 0.29416 0.43831
H4 H 0.36219 0.31267 0.58534
H5 H 0.46320 0.47449 0.76393
H6 H 0.43760 0.31899 0.76643
H7 H 0.55480 0.40379 0.96765
H8 H 0.55710 0.53519 0.90755
H9 H 0.68612 0.47425 1.12142
H10 H 0.85364 0.52735 1.19923
H11 H 0.95483 0.55606 1.10511
H12 H 0.89185 0.51587 0.93913
H13 H 0.54084 0.19341 0.90210
H14 H 0.65454 0.20871 0.92860
H15 H 0.54232 0.12766 0.74548
H16 H 0.58142 0.01856 0.82728
O2A O 0.7005(2) -0.0177(3) 0.7434(2)
Cu1A Cu 0.81013(4) -0.07390(5) 0.70446(4)
P1 P 0.6992(1) -0.0931(2) 1.1000(1)
F1 F 0.7417(4) 0.0329(5) 1.1694(4)
F2 F 0.6637(5) -0.2148(5) 1.0391(4)
F3 F 0.7230(4) -0.0063(5) 1.0211(3)
F4 F 0.6840(5) -0.1740(7) 1.1811(4)
F5 F 0.8034(3) -0.1469(6) 1.1314(5)
F6 F 0.5994(3) -0.0326(5) 1.0683(7)
O3 O 0.5870(3) 0.6750(4) 0.7599(3)
O4 O 0.5480(4) 0.2398(5) 1.1393(4)
loop_
_geom_bond_atom_site_label_1
_geom_bond_atom_site_label_2
_geom_bond_site_symmetry_1
_geom_bond_site_symmetry_2
Cu1 O1 1_555 1_555
P1 F1 1_555 1_555
F2 P1 1_555 1_555
F3 P1 1_555 1_555
F4 P1 1_555 1_555
F5 P1 1_555 1_555
F6 P1 1_555 1_555
O1 C15 1_555 1_555
O2 Cu1 1_555 1_555
N1 Cu1 1_555 1_555
N2 Cu1 1_555 1_555
N3 Cu1 1_555 1_555
C1 N3 1_555 1_555
C2 C1 1_555 1_555
C3 C2 1_555 1_555
C4 C3 1_555 1_555
C5 N3 1_555 1_555
C6 N2 1_555 1_555
C7 N2 1_555 1_555
C8 N1 1_555 1_555
C9 C8 1_555 1_555
C10 C9 1_555 1_555
C11 C10 1_555 1_555
C12 N1 1_555 1_555
C13 N2 1_555 1_555
C14 C13 1_555 1_555
C15 C14 1_555 1_555
H1 C1 1_555 1_555
H2 C2 1_555 1_555
H3 C3 1_555 1_555
H4 C4 1_555 1_555
H5 C6 1_555 1_555
H6 C6 1_555 1_555
H7 C7 1_555 1_555
H8 C7 1_555 1_555
H9 C9 1_555 1_555
H10 C10 1_555 1_555
H11 C11 1_555 1_555
H12 C12 1_555 1_555
H13 C13 1_555 1_555
H14 C13 1_555 1_555
H15 C14 1_555 1_555
H16 C14 1_555 1_555
O2A C15 1_555 1_555
Cu1A O2A 1_555 1_555
C4 C5 1_555 1_555
C5 C6 1_555 1_555
C7 C8 1_555 1_555
C11 C12 1_555 1_555

#END
