
#######################################################################
#
#                 Cambridge Crystallographic Data Centre
#                                CCDC 
#
#######################################################################
#
# If this CIF has been generated from an entry in the Cambridge 
# Structural Database, then it will include bibliographic, chemical, 
# crystal, experimental, refinement or atomic coordinate data resulting 
# from the CCDC's data processing and validation procedures.
#
#######################################################################

data_NIZPUI
_symmetry_cell_setting           monoclinic
_symmetry_space_group_name_H-M   'C 2/c'
_symmetry_Int_Tables_number      15
_space_group_name_Hall           '-C 2yn'
loop_
_symmetry_equiv_pos_site_id
_symmetry_equiv_pos_as_xyz
1 x,y,z
2 1/2+x,1/2+y,z
3 -x,y,1/2-z
4 1/2-x,1/2+y,1/2-z
5 -x,-y,-z
6 1/2-x,1/2-y,-z
7 x,-y,1/2+z
8 1/2+x,1/2-y,1/2+z
_cell_length_a                   10.6165(3)
_cell_length_b                   11.1249(3)
_cell_length_c                   22.9818(5)
_cell_angle_alpha                90
_cell_angle_beta                 93.712(2)
_cell_angle_gamma                90
_cell_volume                     2708.63
loop_
_atom_site_label
_atom_site_type_symbol
_atom_site_fract_x
_atom_site_fract_y
_atom_site_fract_z
Cu1 Cu 0.5000 0.22979(3) 0.2500
O1 O 0.53412(14) 0.22756(12) 0.16688(6)
O2 O 0.32854(16) 0.19613(16) 0.16577(7)
O3 O 0.18288(17) -0.00059(15) 0.08248(8)
O4 O 0.38024(18) -0.06096(17) 0.10655(8)
H1 H 0.348(3) -0.122(3) 0.1181(12)
O5 O 0.2787(2) -0.0860(2) -0.02554(10)
O6 O 0.2438(2) 0.0333(2) -0.09849(9)
N1 N 0.2855(2) 0.0127(2) -0.04870(11)
N2 N 0.5000 0.4112(2) 0.2500
N3 N 0.5000 1.0487(2) 0.2500
C1 C 0.4260(2) 0.20689(17) 0.13996(10)
C2 C 0.4234(2) 0.1980(2) 0.07493(10)
C3 C 0.4818(2) 0.2875(2) 0.04365(11)
H2 H 0.5297 0.3463 0.0635
C4 C 0.4690(2) 0.2892(2) -0.01627(12)
H3 H 0.5063 0.3504 -0.0367
C5 C 0.4014(2) 0.2011(3) -0.04603(11)
H4 H 0.3907 0.2030 -0.0865
C6 C 0.3497(2) 0.1101(2) -0.01492(11)
C7 C 0.3567(2) 0.1060(2) 0.04584(10)
C8 C 0.2948(2) 0.0092(2) 0.07960(11)
C9 C 0.5605(2) 0.47461(19) 0.21062(10)
H5 H 0.6029 0.4330 0.1827
C10 C 0.5628(2) 0.59839(19) 0.20957(10)
H6 H 0.6067 0.6381 0.1816
C11 C 0.5000 0.6640(2) 0.2500
C12 C 0.5000 0.7970(2) 0.2500
C13 C 0.4011(2) 0.86257(18) 0.27084(10)
H7 H 0.3324 0.8229 0.2852
C14 C 0.4047(2) 0.98615(19) 0.27025(10)
H8 H 0.6624 1.0282 0.2154
Cu1_2 Cu 0.5000 1.22979(3) 0.2500
O1B O 0.46588(14) 0.22756(12) 0.33312(6)
O2B O 0.67146(16) 0.19613(16) 0.33423(7)
O3B O 0.81712(17) -0.00059(15) 0.41752(8)
O4B O 0.61976(18) -0.06096(17) 0.39345(8)
H1B H 0.652(3) -0.122(3) 0.3819(12)
O5B O 0.7213(2) -0.0860(2) 0.52554(10)
O6B O 0.7562(2) 0.0333(2) 0.59849(9)
N1B N 0.7145(2) 0.0127(2) 0.54870(11)
N3_2 N 0.5000 0.0487(2) 0.2500
C1B C 0.5740(2) 0.20689(17) 0.36004(10)
C2B C 0.5766(2) 0.1980(2) 0.42507(10)
C3B C 0.5182(2) 0.2875(2) 0.45635(11)
H2B H 0.4703 0.3463 0.4365
C4B C 0.5310(2) 0.2892(2) 0.51627(12)
H3B H 0.4937 0.3504 0.5367
C5B C 0.5986(2) 0.2011(3) 0.54603(11)
H4B H 0.6093 0.2030 0.5865
C6B C 0.6503(2) 0.1101(2) 0.51492(11)
C7B C 0.6433(2) 0.1060(2) 0.45416(10)
C8B C 0.7052(2) 0.0092(2) 0.42040(11)
C9B C 0.4395(2) 0.47461(19) 0.28938(10)
H5B H 0.3971 0.4330 0.3173
C10B C 0.4372(2) 0.59839(19) 0.29043(10)
H6B H 0.3933 0.6381 0.3184
C13B C 0.5989(2) 0.86257(18) 0.22916(10)
H7B H 0.6676 0.8229 0.2148
C14B C 0.5953(2) 0.98615(19) 0.22975(10)
H8B H 0.3376 1.0282 0.2846
O7 O 0.2159(2) 0.23475(19) 0.35906(11)
H9 H 0.284(3) 0.235(3) 0.3573(14)
H10 H 0.198(3) 0.185(4) 0.3835(17)
loop_
_geom_bond_atom_site_label_1
_geom_bond_atom_site_label_2
_geom_bond_site_symmetry_1
_geom_bond_site_symmetry_2
Cu1 O1 1_555 1_555
O1 C1 1_555 1_555
O2 Cu1 1_555 1_555
O3 C8 1_555 1_555
O4 H1 1_555 1_555
O5 N1 1_555 1_555
O6 N1 1_555 1_555
N1 C6 1_555 1_555
N2 Cu1 1_555 1_555
N3 C14 1_555 1_555
C1 O2 1_555 1_555
C2 C1 1_555 1_555
C3 C2 1_555 1_555
H2 C3 1_555 1_555
C4 C3 1_555 1_555
H3 C4 1_555 1_555
C5 C4 1_555 1_555
H4 C5 1_555 1_555
C6 C5 1_555 1_555
C7 C2 1_555 1_555
C8 O4 1_555 1_555
C9 N2 1_555 1_555
H5 C9 1_555 1_555
C10 C9 1_555 1_555
H6 C10 1_555 1_555
C11 C10 1_555 1_555
C12 C11 1_555 1_555
C13 C12 1_555 1_555
H7 C13 1_555 1_555
C14 C13 1_555 1_555
H8 C14B 1_555 1_555
O7 H9 1_555 1_555
H10 O7 1_555 1_555
Cu1_2 N3 1_555 1_555
O1B Cu1 1_555 1_555
O2B Cu1 1_555 1_555
O3B C8B 1_555 1_555
O4B H1B 1_555 1_555
O5B N1B 1_555 1_555
O6B N1B 1_555 1_555
N1B C6B 1_555 1_555
N3_2 Cu1 1_555 1_555
C1B O1B 1_555 1_555
C2B C1B 1_555 1_555
C3B C2B 1_555 1_555
H2B C3B 1_555 1_555
C4B C3B 1_555 1_555
H3B C4B 1_555 1_555
C5B C4B 1_555 1_555
H4B C5B 1_555 1_555
C6B C5B 1_555 1_555
C7B C2B 1_555 1_555
C8B O4B 1_555 1_555
C9B N2 1_555 1_555
H5B C9B 1_555 1_555
C10B C11 1_555 1_555
H6B C10B 1_555 1_555
C13B C12 1_555 1_555
H7B C13B 1_555 1_555
C14B N3 1_555 1_555
H8B C14 1_555 1_555
C6 C7 1_555 1_555
C7 C8 1_555 1_555
O2B C1B 1_555 1_555
C6B C7B 1_555 1_555
C7B C8B 1_555 1_555
C9B C10B 1_555 1_555
C13B C14B 1_555 1_555

#END
