
#######################################################################
#
#                 Cambridge Crystallographic Data Centre
#                                CCDC 
#
#######################################################################
#
# If this CIF has been generated from an entry in the Cambridge 
# Structural Database, then it will include bibliographic, chemical, 
# crystal, experimental, refinement or atomic coordinate data resulting 
# from the CCDC's data processing and validation procedures.
#
#######################################################################

data_NIZQEU
_symmetry_cell_setting           monoclinic
_symmetry_space_group_name_H-M   'P 21/c'
_symmetry_Int_Tables_number      14
_space_group_name_Hall           '-P 2ybc'
loop_
_symmetry_equiv_pos_site_id
_symmetry_equiv_pos_as_xyz
1 x,y,z
2 -x,1/2+y,1/2-z
3 -x,-y,-z
4 x,1/2-y,1/2+z
_cell_length_a                   17.6439(15)
_cell_length_b                   23.7322(17)
_cell_length_c                   20.535(2)
_cell_angle_alpha                90
_cell_angle_beta                 105.385(3)
_cell_angle_gamma                90
_cell_volume                     8290.46
loop_
_atom_site_label
_atom_site_type_symbol
_atom_site_fract_x
_atom_site_fract_y
_atom_site_fract_z
C1 C 0.19790(18) 0.65996(14) 0.13213(16)
C2 C 0.19305(16) 0.63384(14) 0.31944(16)
C3 C 0.19676(18) 0.57303(15) 0.21152(17)
C4 C 0.2832(2) 0.29515(16) 0.23258(17)
C5 C 0.3441(2) 0.20405(16) 0.17440(16)
C6 C 0.2595(2) 0.24544(15) 0.33575(16)
C7 C 0.36369(19) 0.60299(15) 0.26266(17)
H1 H 0.3417 0.5668 0.2501
C8 C 0.44443(18) 0.60900(14) 0.28666(17)
H2 H 0.4773 0.5768 0.2908
C9 C 0.47753(19) 0.66097(15) 0.30451(15)
H3 H 0.5329 0.6647 0.3210
C10 C 0.42897(19) 0.70842(14) 0.29829(15)
C11 C 0.34790(19) 0.70073(13) 0.27441(14)
C12 C 0.29699(19) 0.74916(15) 0.26790(16)
C13 C 0.32968(19) 0.80093(14) 0.28493(16)
H4 H 0.2967 0.8332 0.2795
C14 C 0.4099(2) 0.80731(15) 0.31001(17)
H5 H 0.4310 0.8436 0.3237
C15 C 0.4597(2) 0.76208(15) 0.31546(17)
H6 H 0.5149 0.7674 0.3309
C16 C 0.1571(2) 0.76615(16) 0.22996(18)
C17 C 0.08064(19) 0.73634(14) 0.20394(16)
C18 C 0.00875(18) 0.76368(14) 0.18422(15)
H7 H 0.0064 0.8037 0.1847
C19 C -0.06022(19) 0.73209(14) 0.16367(16)
H8 H -0.1098 0.7504 0.1500
C20 C -0.05577(18) 0.67420(15) 0.16335(16)
C21 C 0.01572(18) 0.64606(14) 0.18418(16)
C22 C 0.0192(2) 0.58849(16) 0.1847(2)
H9 H 0.0686 0.5700 0.1996
C23 C -0.04889(19) 0.55712(16) 0.16375(18)
H10 H -0.0462 0.5171 0.1634
C24 C -0.12138(19) 0.58401(15) 0.14319(18)
H11 H -0.1682 0.5624 0.1298
C25 C -0.12534(19) 0.64291(15) 0.14225(16)
H12 H -0.1746 0.6615 0.1275
C26 C 0.0925(2) 0.42473(14) 0.10032(19)
C27 C 0.0587(2) 0.42950(13) 0.03112(18)
H13 H 0.0913 0.4362 0.0018
C28 C -0.0210(2) 0.42467(15) 0.00453(17)
H14 H -0.0435 0.4285 -0.0427
C29 C -0.0688(2) 0.41410(15) 0.0477(2)
H15 H -0.1239 0.4097 0.0295
C30 C -0.0367(2) 0.40997(14) 0.11654(19)
H16 H -0.0700 0.4047 0.1456
C31 C 0.0445(2) 0.41356(15) 0.14367(18)
C32 C 0.0691(2) 0.41144(16) 0.2146(2)
H17 H 0.0309 0.4077 0.2394
C33 C 0.1634(2) 0.40314(17) 0.3222(2)
H18 H 0.1759 0.3628 0.3316
H19 H 0.1182 0.4132 0.3399
C34 C 0.2337(2) 0.43935(17) 0.35431(19)
H20 H 0.2155 0.4784 0.3603
C35 C 0.3613(2) 0.44631(14) 0.33682(19)
H21 H 0.3791 0.4463 0.3847
C36 C 0.4223(2) 0.45213(15) 0.29918(19)
C37 C 0.4992(2) 0.45304(15) 0.3354(2)
H22 H 0.5125 0.4514 0.3833
C38 C 0.5579(2) 0.45643(15) 0.3020(2)
H23 H 0.6114 0.4567 0.3274
C39 C 0.5396(2) 0.45947(15) 0.2322(2)
H24 H 0.5801 0.4624 0.2098
C40 C 0.4614(2) 0.45825(15) 0.1954(2)
H25 H 0.4486 0.4594 0.1475
C41 C 0.4009(2) 0.45529(12) 0.22794(17)
C42 C 0.4589(2) 0.29629(15) 0.31052(18)
H26 H 0.4309 0.3289 0.2905
C43 C 0.5367(2) 0.30172(15) 0.34595(17)
H27 H 0.5612 0.3377 0.3520
C44 C 0.5792(2) 0.25304(16) 0.37305(16)
H28 H 0.6336 0.2556 0.3958
C45 C 0.5418(2) 0.20195(15) 0.36648(17)
C46 C 0.4625(2) 0.19661(16) 0.33088(18)
C47 C 0.42599(19) 0.14480(14) 0.32450(16)
C48 C 0.4669(2) 0.09699(16) 0.35268(18)
H29 H 0.4412 0.0615 0.3480
C49 C 0.5458(2) 0.10131(15) 0.38796(18)
H30 H 0.5738 0.0685 0.4071
C50 C 0.5839(2) 0.15264(16) 0.39541(16)
H31 H 0.6378 0.1551 0.4196
C51 C 0.3100(2) 0.10183(15) 0.27506(18)
C52 C 0.2278(2) 0.11556(16) 0.23348(19)
C53 C 0.1678(2) 0.07516(14) 0.21052(18)
H32 H 0.1796 0.0361 0.2153
C54 C 0.0925(2) 0.09270(16) 0.18125(19)
H33 H 0.0520 0.0655 0.1668
C55 C 0.0742(2) 0.14981(16) 0.17238(17)
C56 C 0.1343(2) 0.18974(15) 0.19596(17)
C57 C 0.1155(2) 0.24704(15) 0.18717(18)
H34 H 0.1552 0.2748 0.2020
C58 C 0.03933(19) 0.26298(15) 0.15701(16)
H35 H 0.0269 0.3019 0.1503
C59 C -0.0191(2) 0.22355(17) 0.13647(18)
H36 H -0.0716 0.2354 0.1169
C60 C -0.0022(2) 0.16771(15) 0.14401(17)
H37 H -0.0430 0.1407 0.1297
C61 C 0.44039(19) 0.15135(14) 0.00948(16)
C62 C 0.4694(2) 0.09662(16) 0.01441(19)
H38 H 0.4339 0.0657 0.0065
C63 C 0.5498(2) 0.08672(15) 0.03086(18)
H39 H 0.5695 0.0492 0.0355
C64 C 0.6008(2) 0.13173(16) 0.04036(18)
H40 H 0.6558 0.1251 0.0499
C65 C 0.5730(2) 0.18655(15) 0.03623(15)
H41 H 0.6088 0.2172 0.0444
C66 C 0.4918(2) 0.19664(16) 0.01993(17)
C67 C 0.4660(2) 0.25636(15) 0.01737(15)
H42 H 0.5043 0.2849 0.0190
C68 C 0.3701(2) 0.33349(15) 0.0112(2)
H43 H 0.3483 0.3455 -0.0368
C69 C 0.3076(2) 0.33880(14) 0.04808(19)
H44 H 0.3306 0.3358 0.0975
H45 H 0.2800 0.3754 0.0380
C70 C 0.1785(2) 0.29950(14) 0.02083(15)
H46 H 0.1624 0.3355 0.0323
C71 C 0.11832(18) 0.25439(13) 0.00109(14)
C72 C 0.0428(2) 0.27103(15) -0.00587(17)
H47 H 0.0322 0.3097 0.0001
C73 C -0.0195(2) 0.23298(15) -0.02147(18)
H48 H -0.0718 0.2450 -0.0250
C74 C -0.0029(2) 0.17687(16) -0.03174(19)
H49 H -0.0445 0.1503 -0.0434
C75 C 0.0742(2) 0.15922(16) -0.02506(17)
H50 H 0.0848 0.1207 -0.0315
C76 C 0.13643(19) 0.19843(13) -0.00874(16)
C77 C 0.2764(2) 0.41559(17) 0.4227(2)
H51 H 0.3134 0.4437 0.4479
H52 H 0.3051 0.3816 0.4165
H53 H 0.2381 0.4062 0.4480
C78 C 0.4400(2) 0.36977(16) 0.04391(18)
H54 H 0.4751 0.3723 0.0141
H55 H 0.4685 0.3530 0.0871
H56 H 0.4220 0.4076 0.0518
Fe1 Fe 0.19932(3) 0.65319(2) 0.22721(2)
Fe2 Fe 0.30264(3) 0.21869(2) 0.25807(2)
Mn1 Mn 0.23527(3) 0.43381(2) 0.21131(3)
Mn2 Mn 0.30186(3) 0.22119(2) 0.00380(2)
N1 N 0.20182(17) 0.66644(13) 0.07787(14)
N2 N 0.19190(16) 0.62551(13) 0.37439(14)
N3 N 0.20128(17) 0.52502(13) 0.20803(15)
N4 N 0.27410(17) 0.34307(13) 0.22071(14)
N5 N 0.33557(17) 0.20838(11) 0.11744(13)
N6 N 0.26859(14) 0.25829(11) 0.39239(12)
N7 N 0.31590(14) 0.64842(12) 0.25703(12)
N8 N 0.21771(16) 0.73066(12) 0.24307(14)
N9 N 0.08541(15) 0.67827(11) 0.20426(12)
N10 N 0.14474(18) 0.41459(12) 0.24769(16)
N11 N 0.28839(18) 0.44140(15) 0.31134(16)
N12 N 0.42029(17) 0.24497(13) 0.30307(15)
N13 N 0.35546(16) 0.15011(12) 0.29055(15)
N14 N 0.21166(17) 0.17216(13) 0.22487(15)
N15 N 0.39399(17) 0.27200(12) 0.01302(13)
N16 N 0.25339(16) 0.29175(11) 0.02318(12)
O1 O 0.16362(14) 0.81783(11) 0.23416(12)
O2 O 0.32780(14) 0.45332(10) 0.18728(12)
O3 O 0.17284(14) 0.42424(10) 0.12189(12)
O4 O 0.33349(14) 0.05337(10) 0.28920(13)
O5 O 0.35964(13) 0.15693(10) -0.00774(11)
O6 O 0.20902(12) 0.17898(9) -0.00408(10)
Mn2C Mn 0.30186(3) 0.27881(2) 0.50380(2)
N6C N 0.26859(14) 0.24171(11) -0.10761(12)
O7 O 0.2594(3) 0.6840(2) 0.9629(3)
H57 H 0.2460 0.6820 0.9200
H58 H 0.2606 0.7183 0.9749
O8 O 0.0803(4) 0.9201(2) 0.2164(3)
H59 H 0.0877 0.9555 0.2177
H60 H 0.1107 0.9045 0.1960
O9 O 0.3110(3) 0.4873(3) 0.0513(3)
H61 H 0.2946 0.5183 0.0633
H62 H 0.3078 0.4883 0.0093
O10 O 0.2873(4) 0.0585(3) 0.0842(3)
H63 H 0.3036 0.0486 0.1254
H64 H 0.2401 0.0474 0.0685
O11 O 0.0154(3) 0.9735(3) 0.0949(3)
H65 H 0.0257 0.9385 0.0945
H66 H -0.0275 0.9780 0.1056
O12 O 0.1090(3) -0.0011(2) 0.0199(3)
H67 H 0.1081 0.0343 0.0131
H68 H 0.0937 -0.0181 -0.0177
O13 O 0.2301(3) 0.6354(3) 0.5594(3)
H69 H 0.2227 0.6579 0.5261
H70 H 0.1951 0.6098 0.5508
O14 O 0.2350(3) 0.9571(3) 0.3189(3)
H71 H 0.2576 0.9831 0.3455
H72 H 0.2599 0.9512 0.2894
O15 O 0.3349(4) 0.9007(2) 0.4079(3)
H73 H 0.3194 0.8989 0.4437
H74 H 0.3381 0.8677 0.3929
O16 O 0.5698(3) 0.0149(3) 0.5296(3)
H75 H 0.6067 0.0093 0.5652
H76 H 0.5834 0.0023 0.4956
loop_
_geom_bond_atom_site_label_1
_geom_bond_atom_site_label_2
_geom_bond_site_symmetry_1
_geom_bond_site_symmetry_2
C1 Fe1 1_555 1_555
C2 Fe1 1_555 1_555
C3 Fe1 1_555 1_555
C4 Fe2 1_555 1_555
C5 Fe2 1_555 1_555
C6 Fe2 1_555 1_555
C7 H1 1_555 1_555
C8 C7 1_555 1_555
H2 C8 1_555 1_555
C9 C8 1_555 1_555
H3 C9 1_555 1_555
C10 C9 1_555 1_555
C11 C10 1_555 1_555
C12 C11 1_555 1_555
C13 C12 1_555 1_555
H4 C13 1_555 1_555
C14 C13 1_555 1_555
H5 C14 1_555 1_555
C15 C10 1_555 1_555
H6 C15 1_555 1_555
C16 C17 1_555 1_555
C17 C18 1_555 1_555
C18 H7 1_555 1_555
C19 C18 1_555 1_555
H8 C19 1_555 1_555
C20 C19 1_555 1_555
C21 C20 1_555 1_555
C22 C21 1_555 1_555
H9 C22 1_555 1_555
C23 C22 1_555 1_555
H10 C23 1_555 1_555
C24 C23 1_555 1_555
H11 C24 1_555 1_555
C25 C20 1_555 1_555
H12 C25 1_555 1_555
C26 C27 1_555 1_555
C27 H13 1_555 1_555
C28 C27 1_555 1_555
H14 C28 1_555 1_555
C29 C28 1_555 1_555
H15 C29 1_555 1_555
C30 C29 1_555 1_555
H16 C30 1_555 1_555
C31 C26 1_555 1_555
C32 C31 1_555 1_555
H17 C32 1_555 1_555
C33 H18 1_555 1_555
H19 C33 1_555 1_555
C34 C33 1_555 1_555
H20 C34 1_555 1_555
C35 H21 1_555 1_555
C36 C35 1_555 1_555
C37 C36 1_555 1_555
H22 C37 1_555 1_555
C38 C37 1_555 1_555
H23 C38 1_555 1_555
C39 C38 1_555 1_555
H24 C39 1_555 1_555
C40 C39 1_555 1_555
H25 C40 1_555 1_555
C41 C36 1_555 1_555
C42 H26 1_555 1_555
C43 C42 1_555 1_555
H27 C43 1_555 1_555
C44 C43 1_555 1_555
H28 C44 1_555 1_555
C45 C44 1_555 1_555
C46 C45 1_555 1_555
C47 C46 1_555 1_555
C48 C47 1_555 1_555
H29 C48 1_555 1_555
C49 C48 1_555 1_555
H30 C49 1_555 1_555
C50 C45 1_555 1_555
H31 C50 1_555 1_555
C51 C52 1_555 1_555
C52 C53 1_555 1_555
C53 H32 1_555 1_555
C54 C53 1_555 1_555
H33 C54 1_555 1_555
C55 C54 1_555 1_555
C56 C55 1_555 1_555
C57 C56 1_555 1_555
H34 C57 1_555 1_555
C58 C57 1_555 1_555
H35 C58 1_555 1_555
C59 C58 1_555 1_555
H36 C59 1_555 1_555
C60 C55 1_555 1_555
H37 C60 1_555 1_555
C61 C62 1_555 1_555
C62 H38 1_555 1_555
C63 C62 1_555 1_555
H39 C63 1_555 1_555
C64 C63 1_555 1_555
H40 C64 1_555 1_555
C65 C64 1_555 1_555
H41 C65 1_555 1_555
C66 C61 1_555 1_555
C67 C66 1_555 1_555
H42 C67 1_555 1_555
C68 H43 1_555 1_555
C69 C68 1_555 1_555
H44 C69 1_555 1_555
H45 C69 1_555 1_555
C70 H46 1_555 1_555
C71 C70 1_555 1_555
C72 C71 1_555 1_555
H47 C72 1_555 1_555
C73 C72 1_555 1_555
H48 C73 1_555 1_555
C74 C73 1_555 1_555
H49 C74 1_555 1_555
C75 C74 1_555 1_555
H50 C75 1_555 1_555
C76 C71 1_555 1_555
C77 C34 1_555 1_555
H51 C77 1_555 1_555
H52 C77 1_555 1_555
H53 C77 1_555 1_555
C78 C68 1_555 1_555
H54 C78 1_555 1_555
H55 C78 1_555 1_555
H56 C78 1_555 1_555
Fe1 N7 1_555 1_555
Fe2 N12 1_555 1_555
Mn1 N3 1_555 1_555
Mn2 N5 1_555 1_555
N1 C1 1_555 1_555
N2 C2 1_555 1_555
N3 C3 1_555 1_555
N4 C4 1_555 1_555
N5 C5 1_555 1_555
N6 C6 1_555 1_555
N7 C7 1_555 1_555
N8 C12 1_555 1_555
N9 C17 1_555 1_555
N10 C32 1_555 1_555
N11 C34 1_555 1_555
N12 C42 1_555 1_555
N13 C47 1_555 1_555
N14 C52 1_555 1_555
N15 C67 1_555 1_555
N16 C69 1_555 1_555
O1 C16 1_555 1_555
O2 C41 1_555 1_555
O3 C26 1_555 1_555
O4 C51 1_555 1_555
O5 C61 1_555 1_555
O6 C76 1_555 1_555
O7 H57 1_555 1_555
H58 O7 1_555 1_555
O8 H59 1_555 1_555
H60 O8 1_555 1_555
O9 H61 1_555 1_555
H62 O9 1_555 1_555
O10 H63 1_555 1_555
H64 O10 1_555 1_555
O11 H65 1_555 1_555
H66 O11 1_555 1_555
O12 H67 1_555 1_555
H68 O12 1_555 1_555
O13 H69 1_555 1_555
H70 O13 1_555 1_555
O14 H71 1_555 1_555
H72 O14 1_555 1_555
O15 H73 1_555 1_555
H74 O15 1_555 1_555
O16 H75 1_555 1_555
H76 O16 1_555 1_555
Mn2C N6 1_555 1_555
N6C Mn2 1_555 1_555
C11 N7 1_555 1_555
C14 C15 1_555 1_555
C16 N8 1_555 1_555
C21 N9 1_555 1_555
C24 C25 1_555 1_555
C30 C31 1_555 1_555
C33 N10 1_555 1_555
C35 N11 1_555 1_555
C40 C41 1_555 1_555
C46 N12 1_555 1_555
C49 C50 1_555 1_555
C51 N13 1_555 1_555
C56 N14 1_555 1_555
C59 C60 1_555 1_555
C65 C66 1_555 1_555
C68 N15 1_555 1_555
C70 N16 1_555 1_555
C75 C76 1_555 1_555
Fe1 N8 1_555 1_555
Fe1 N9 1_555 1_555
Fe2 N13 1_555 1_555
Fe2 N14 1_555 1_555
Mn1 N4 1_555 1_555
Mn1 N10 1_555 1_555
Mn1 N11 1_555 1_555
Mn1 O2 1_555 1_555
Mn1 O3 1_555 1_555
Mn2 N15 1_555 1_555
Mn2 N16 1_555 1_555
Mn2 O5 1_555 1_555
Mn2 O6 1_555 1_555

#END
