
#######################################################################
#
#                 Cambridge Crystallographic Data Centre
#                                CCDC 
#
#######################################################################
#
# If this CIF has been generated from an entry in the Cambridge 
# Structural Database, then it will include bibliographic, chemical, 
# crystal, experimental, refinement or atomic coordinate data resulting 
# from the CCDC's data processing and validation procedures.
#
#######################################################################

data_NIZQAQ
_symmetry_cell_setting           triclinic
_symmetry_space_group_name_H-M   'P -1'
_symmetry_Int_Tables_number      2
_space_group_name_Hall           '-P 1'
loop_
_symmetry_equiv_pos_site_id
_symmetry_equiv_pos_as_xyz
1 x,y,z
2 -x,-y,-z
_cell_length_a                   9.1522(13)
_cell_length_b                   10.9649(16)
_cell_length_c                   38.500(5)
_cell_angle_alpha                90.0170(10)
_cell_angle_beta                 90.0110(10)
_cell_angle_gamma                90.0440(10)
_cell_volume                     3863.59
loop_
_atom_site_label
_atom_site_type_symbol
_atom_site_fract_x
_atom_site_fract_y
_atom_site_fract_z
Pt3 Pt 0.62586(4) 0.50086(3) 0.144714(9)
Cl5 Cl 0.6210(5) 0.7175(6) 0.14458(12)
N11 N 0.7579(8) 0.5009(7) 0.10163(19)
N12 N 0.7896(8) 0.5176(8) 0.1809(2)
H35 H 0.8596 0.4587 0.1772
H36 H 0.8332 0.5929 0.1790
N13 N 0.4944(8) 0.4903(7) 0.18680(18)
H37 H 0.4882 0.4080 0.1924
N14 N 0.4341(9) 0.5008(8) 0.1174(2)
H38 H 0.4177 0.5766 0.1079
H39 H 0.4385 0.4448 0.0996
N15 N 1.0200(10) 0.4686(8) 0.0129(2)
C19 C 0.7265(11) 0.5697(8) 0.0741(3)
H40 H 0.6462 0.6243 0.0754
C20 C 0.8070(12) 0.5641(9) 0.0439(3)
H41 H 0.7812 0.6118 0.0242
C21 C 0.9265(11) 0.4867(9) 0.0430(3)
C22 C 0.9625(11) 0.4178(10) 0.0719(3)
H42 H 1.0461 0.3665 0.0719
C23 C 0.8746(10) 0.4256(9) 0.1004(3)
H43 H 0.8961 0.3765 0.1201
C24 C 0.7228(11) 0.5027(10) 0.2166(3)
H44 H 0.7234 0.4155 0.2233
H45 H 0.7811 0.5486 0.2339
C25 C 0.5689(11) 0.5494(10) 0.2162(3)
H46 H 0.5191 0.5291 0.2383
H47 H 0.5683 0.6392 0.2133
C26 C 0.3442(11) 0.5284(11) 0.1768(3)
H48 H 0.3387 0.6182 0.1746
H49 H 0.2727 0.5016 0.1945
C27 C 0.3124(11) 0.4681(11) 0.1422(3)
H50 H 0.3069 0.3785 0.1451
H51 H 0.2176 0.4971 0.1330
Pt4 Pt 0.62591(4) -0.00079(3) 0.144718(9)
N16 N 0.7585(8) -0.0007(6) 0.10149(19)
N17 N 0.7894(8) -0.0175(8) 0.1809(2)
H52 H 0.8327 -0.0929 0.1791
H53 H 0.8597 0.0412 0.1772
N18 N 0.4935(8) 0.0097(7) 0.18668(19)
H54 H 0.4870 0.0921 0.1922
N19 N 0.4340(8) -0.0014(8) 0.1173(2)
H55 H 0.4384 0.0544 0.0995
H56 H 0.4176 -0.0774 0.1079
N20 N 1.0195(10) 0.0310(8) 0.0129(2)
C28 C 0.7268(11) -0.0700(8) 0.0741(3)
H57 H 0.6466 -0.1249 0.0755
C29 C 0.8070(12) -0.0642(9) 0.0438(3)
H58 H 0.7810 -0.1118 0.0242
C30 C 0.9264(11) 0.0130(9) 0.0430(3)
C31 C 0.9626(11) 0.0830(10) 0.0718(3)
H59 H 1.0450 0.1358 0.0715
C32 C 0.8744(10) 0.0734(9) 0.1008(3)
H60 H 0.8969 0.1207 0.1207
C33 C 0.7227(11) -0.0021(10) 0.2165(3)
H61 H 0.7808 -0.0479 0.2339
H62 H 0.7236 0.0852 0.2232
C34 C 0.5684(11) -0.0488(10) 0.2162(2)
H63 H 0.5676 -0.1385 0.2134
H64 H 0.5187 -0.0279 0.2382
C35 C 0.3442(10) -0.0287(11) 0.1766(3)
H65 H 0.2725 -0.0025 0.1943
H66 H 0.3391 -0.1185 0.1743
C36 C 0.3117(11) 0.0316(11) 0.1422(3)
H67 H 0.3063 0.1212 0.1451
H68 H 0.2168 0.0024 0.1330
Cl6 Cl 0.6224(5) 0.2070(5) 0.14343(12)
Cl7 Cl 0.6212(5) 0.7832(6) 0.14458(13)
Cl8 Cl 0.6222(5) 0.2931(5) 0.14346(12)
N11A N 1.2421(8) 0.4991(7) -0.10163(19)
N15A N 0.9800(10) 0.5314(8) -0.0129(2)
C19A C 1.2735(11) 0.4303(8) -0.0741(3)
H40A H 1.3538 0.3757 -0.0754
C20A C 1.1930(12) 0.4359(9) -0.0439(3)
H41A H 1.2188 0.3882 -0.0242
C21A C 1.0735(11) 0.5133(9) -0.0430(3)
C22A C 1.0375(11) 0.5822(10) -0.0719(3)
H42A H 0.9539 0.6335 -0.0719
C23A C 1.1254(10) 0.5744(9) -0.1004(3)
H43A H 1.1039 0.6235 -0.1201
N16A N 1.2415(8) 0.0007(6) -0.10149(19)
N20A N 0.9805(10) -0.0310(8) -0.0129(2)
C28A C 1.2732(11) 0.0700(8) -0.0741(3)
H57A H 1.3534 0.1249 -0.0755
C29A C 1.1930(12) 0.0642(9) -0.0438(3)
H58A H 1.2190 0.1118 -0.0242
C30A C 1.0736(11) -0.0130(9) -0.0430(3)
C31A C 1.0374(11) -0.0830(10) -0.0718(3)
H59A H 0.9550 -0.1358 -0.0715
C32A C 1.1256(10) -0.0734(9) -0.1008(3)
H60A H 1.1031 -0.1207 -0.1207
Pt3A Pt 1.37414(4) -0.50086(3) -0.144714(9)
Cl5A Cl 1.3790(5) -0.7175(6) -0.14458(12)
N12A N 1.2104(8) -0.5176(8) -0.1809(2)
H35A H 1.1404 -0.4587 -0.1772
H36A H 1.1668 -0.5929 -0.1790
N13A N 1.5056(8) -0.4903(7) -0.18680(18)
H37A H 1.5118 -0.4080 -0.1924
N14A N 1.5659(9) -0.5008(8) -0.1174(2)
H38A H 1.5823 -0.5766 -0.1079
H39A H 1.5615 -0.4448 -0.0996
C24A C 1.2772(11) -0.5027(10) -0.2166(3)
H44A H 1.2766 -0.4155 -0.2233
H45A H 1.2189 -0.5486 -0.2339
C25A C 1.4311(11) -0.5494(10) -0.2162(3)
H46A H 1.4809 -0.5291 -0.2383
H47A H 1.4317 -0.6392 -0.2133
C26A C 1.6558(11) -0.5284(11) -0.1768(3)
H48A H 1.6613 -0.6182 -0.1746
H49A H 1.7273 -0.5016 -0.1945
C27A C 1.6876(11) -0.4681(11) -0.1422(3)
H50A H 1.6931 -0.3785 -0.1451
H51A H 1.7824 -0.4971 -0.1330
Pt4A Pt 1.37409(4) 0.00079(3) -0.144718(9)
N17A N 1.2106(8) 0.0175(8) -0.1809(2)
H52A H 1.1673 0.0929 -0.1791
H53A H 1.1403 -0.0412 -0.1772
N18A N 1.5065(8) -0.0097(7) -0.18668(19)
H54A H 1.5130 -0.0921 -0.1922
N19A N 1.5660(8) 0.0014(8) -0.1173(2)
H55A H 1.5616 -0.0544 -0.0995
H56A H 1.5824 0.0774 -0.1079
C33A C 1.2773(11) 0.0021(10) -0.2165(3)
H61A H 1.2192 0.0479 -0.2339
H62A H 1.2764 -0.0852 -0.2232
C34A C 1.4316(11) 0.0488(10) -0.2162(2)
H63A H 1.4324 0.1385 -0.2134
H64A H 1.4813 0.0279 -0.2382
C35A C 1.6558(10) 0.0287(11) -0.1766(3)
H65A H 1.7275 0.0025 -0.1943
H66A H 1.6609 0.1185 -0.1743
C36A C 1.6883(11) -0.0316(11) -0.1422(3)
H67A H 1.6937 -0.1212 -0.1451
H68A H 1.7832 -0.0024 -0.1330
Cl6A Cl 1.3776(5) -0.2070(5) -0.14343(12)
Cl7A Cl 1.3788(5) -0.7832(6) -0.14458(13)
Cl8A Cl 1.3778(5) -0.2931(5) -0.14346(12)
Pt3A_2 Pt 1.37414(4) 0.49914(3) -0.144714(9)
N11A_2 N 1.2421(8) -0.5009(7) -0.10163(19)
Pt4_2 Pt 0.62591(4) 0.99921(3) 0.144718(9)
Pt4A_2 Pt 1.37409(4) -0.99921(3) -0.144718(9)
Cl7_2 Cl 0.6212(5) -0.2168(6) 0.14458(13)
Cl7A_2 Cl 1.3788(5) 0.2168(6) -0.14458(13)
Cl9 Cl -0.4270(3) 0.2501(3) 0.37972(7)
O1 O -0.4557(13) 0.2503(14) 0.4158(3)
O2 O -0.4898(8) 0.1424(8) 0.3638(2)
O3 O -0.4898(8) 0.3571(8) 0.3638(2)
O4 O -0.2705(7) 0.2501(7) 0.3740(2)
Cl10 Cl -0.4822(3) 0.2498(2) 0.26903(6)
O5 O -0.6270(10) 0.2501(9) 0.2843(2)
O6 O -0.4942(8) 0.2502(6) 0.23108(17)
O7 O -0.4135(13) 0.3588(12) 0.2797(2)
O8 O -0.4127(14) 0.1415(12) 0.2798(3)
Cl11 Cl -0.0926(2) 0.7500(2) 0.45067(6)
O9 O -0.1442(9) 0.7500(9) 0.4852(2)
O10 O -0.2083(9) 0.7508(10) 0.4250(2)
O11 O -0.0469(17) 0.8812(14) 0.4483(4)
O12 O 0.0292(17) 0.6764(14) 0.4429(4)
Cl12 Cl -0.4471(3) 0.7499(2) 0.30390(7)
O13 O -0.4629(11) 0.6478(13) 0.3244(4)
O14 O -0.5633(14) 0.7504(11) 0.2783(3)
O15 O -0.4633(11) 0.8522(13) 0.3243(4)
O16 O -0.3070(15) 0.7504(14) 0.2892(4)
Cl13 Cl -0.9472(3) 0.2503(2) 0.19602(7)
O17 O -0.9624(11) 0.1488(14) 0.1754(4)
O18 O -0.9625(11) 0.3514(14) 0.1755(5)
O19 O -1.0617(13) 0.2502(11) 0.2219(2)
O20 O -0.8067(15) 0.2510(14) 0.2110(4)
Cl14 Cl -0.9826(3) 0.7500(2) 0.23089(6)
O21 O -0.9133(13) 0.6423(12) 0.2202(2)
O22 O -1.1264(10) 0.7501(10) 0.2157(2)
O23 O -0.9130(14) 0.8576(12) 0.2201(2)
O24 O -0.9939(8) 0.7502(6) 0.26882(17)
Cl15 Cl 0.0730(3) 0.7500(3) 0.12025(7)
O25 O 0.0106(8) 0.6426(8) 0.1362(2)
O26 O 0.0436(13) 0.7495(15) 0.0841(3)
O27 O 0.0104(8) 0.8572(8) 0.1362(2)
O28 O 0.2298(7) 0.7506(7) 0.1260(2)
Cl16 Cl 0.4074(2) 1.2500(2) 0.04937(6)
O29 O 0.2923(9) 1.2496(10) 0.0748(2)
O30 O 0.3563(9) 1.2498(9) 0.0146(2)
O31 O 0.4540(18) 1.3812(14) 0.0518(4)
O32 O 0.5287(18) 1.1764(14) 0.0572(4)
O33 O -0.5563(7) 0.7501(7) 0.06826(18)
C37 C -0.630(3) 0.721(2) 0.0418(6)
C38 C -0.645(2) 0.597(2) 0.0280(6)
H69 H -0.5705 0.5444 0.0383
H70 H -0.6333 0.5984 0.0027
H71 H -0.7425 0.5654 0.0338
C39 C -0.710(2) 0.823(2) 0.0242(6)
H72 H -0.6810 0.9006 0.0346
H73 H -0.8154 0.8109 0.0271
H74 H -0.6859 0.8230 -0.0006
O34 O -0.0562(7) 0.2502(6) 0.43158(17)
C40 C -0.146(2) 0.0990(19) 0.4720(6)
H75 H -0.2378 0.0648 0.4634
H76 H -0.1484 0.1027 0.4975
H77 H -0.0643 0.0471 0.4646
C41 C -0.210(2) 0.322(2) 0.4760(6)
H78 H -0.1779 0.3280 0.5002
H79 H -0.3146 0.3028 0.4753
H80 H -0.1928 0.4002 0.4643
C42 C -0.126(4) 0.223(2) 0.4579(8)
Pt1 Pt 0.12588(4) 0.49920(3) 0.355284(9)
Cl1 Cl 0.1213(5) 0.2838(5) 0.35539(12)
N1 N 0.2577(8) 0.4996(7) 0.39854(19)
N2 N -0.0659(9) 0.4984(8) 0.3828(2)
N3 N -0.0064(8) 0.5097(7) 0.3132(2)
N4 N 0.2894(8) 0.4821(8) 0.3195(2)
Cl2 Cl 0.1223(5) 0.7066(4) 0.35649(12)
Cl3 Cl 0.1212(5) 0.2167(5) 0.35537(12)
C1 C 0.3750(11) 0.5730(9) 0.3992(3)
C2 C 0.2262(11) 0.4292(9) 0.4261(3)
H1 H -0.0820 0.4225 0.3922
H2 H -0.0617 0.5545 0.4005
C3 C -0.1883(11) 0.5308(11) 0.3577(3)
H3 H -0.0135 0.5920 0.3076
C4 C -0.1560(11) 0.4698(11) 0.3236(3)
C5 C 0.0684(11) 0.4504(10) 0.2837(3)
H4 H 0.3599 0.5405 0.3232
H5 H 0.3322 0.4065 0.3213
C6 C 0.2228(11) 0.4980(11) 0.2835(3)
Pt2 Pt 0.12588(4) 0.00082(3) 0.355291(9)
H6 H 0.3988 0.6190 0.3791
C7 C 0.4623(11) 0.5835(10) 0.4283(3)
C8 C 0.3076(12) 0.4355(9) 0.4564(3)
H7 H 0.1463 0.3741 0.4249
H8 H -0.2832 0.5020 0.3670
H9 H -0.1935 0.6203 0.3546
H10 H -0.1596 0.3800 0.3262
H11 H -0.2285 0.4945 0.3059
H12 H 0.0186 0.4706 0.2616
H13 H 0.0679 0.3607 0.2866
H14 H 0.2231 0.5854 0.2770
H15 H 0.2814 0.4528 0.2661
Cl4 Cl 0.1224(5) -0.2063(4) 0.35644(12)
N5 N 0.2579(8) 0.0012(6) 0.39841(19)
N6 N -0.0658(9) 0.0011(8) 0.38278(19)
N7 N -0.0059(8) -0.0102(7) 0.31315(19)
N8 N 0.2897(8) 0.0182(8) 0.3194(2)
H16 H 0.5438 0.6372 0.4288
C9 C 0.4264(11) 0.5126(9) 0.4569(3)
H17 H 0.2824 0.3881 0.4761
C10 C 0.3740(10) -0.0736(9) 0.3993(3)
C11 C 0.2276(11) 0.0697(8) 0.4262(3)
H18 H -0.0619 -0.0557 0.4004
H19 H -0.0815 0.0766 0.3925
C12 C -0.1880(11) -0.0302(11) 0.3576(3)
H20 H -0.0123 -0.0925 0.3075
C13 C -0.1563(11) 0.0286(10) 0.3235(3)
C14 C 0.0683(11) 0.0498(9) 0.2838(3)
H21 H 0.3324 0.0939 0.3212
H22 H 0.3603 -0.0400 0.3231
C15 C 0.2229(11) 0.0022(10) 0.2836(3)
N9 N 0.5200(10) 0.5299(8) 0.4870(2)
H23 H 0.3960 -0.1216 0.3795
C16 C 0.4618(11) -0.0828(10) 0.4281(3)
C17 C 0.3077(12) 0.0646(9) 0.4561(3)
H24 H 0.1471 0.1242 0.4250
H25 H -0.1947 -0.1197 0.3546
H26 H -0.2825 -0.0004 0.3667
H27 H -0.1610 0.1185 0.3257
H28 H -0.2284 0.0023 0.3059
H29 H 0.0677 0.1394 0.2868
H30 H 0.0186 0.0297 0.2617
H31 H 0.2815 0.0472 0.2662
H32 H 0.2231 -0.0853 0.2771
H33 H 0.5442 -0.1355 0.4284
C18 C 0.4258(12) -0.0123(9) 0.4569(3)
H34 H 0.2824 0.1128 0.4757
N10 N 0.5196(10) -0.0306(8) 0.4870(2)
Cl2_2 Cl 0.1223(5) -0.2934(4) 0.35649(12)
Pt1_2 Pt 0.12588(4) -0.50080(3) 0.355284(9)
N9A N 0.4800(10) 0.4701(8) 0.5130(2)
C9A C 0.5736(11) 0.4874(9) 0.5431(3)
C7A C 0.5377(11) 0.4165(10) 0.5717(3)
C8A C 0.6924(12) 0.5645(9) 0.5436(3)
N10A N 0.4804(10) 0.0306(8) 0.5130(2)
C1A C 0.6250(11) 0.4270(9) 0.6008(3)
H16A H 0.4562 0.3628 0.5712
H17A H 0.7176 0.6119 0.5239
C2A C 0.7738(11) 0.5708(9) 0.5739(3)
C18A C 0.5742(12) 0.0123(9) 0.5431(3)
N1A N 0.7423(8) 0.5004(7) 0.60146(19)
H6A H 0.6012 0.3810 0.6209
H7A H 0.8537 0.6259 0.5751
C16A C 0.5382(11) 0.0828(10) 0.5719(3)
C17A C 0.6923(12) -0.0646(9) 0.5439(3)
Pt1A Pt 0.87412(4) 0.50080(3) 0.644716(9)
C10A C 0.6260(10) 0.0736(9) 0.6007(3)
H33A H 0.4558 0.1355 0.5716
H34A H 0.7176 -0.1128 0.5243
C11A C 0.7724(11) -0.0697(8) 0.5738(3)
Cl2A Cl 0.8777(5) 0.2934(4) 0.64351(12)
N5A N 0.7421(8) -0.0012(6) 0.60159(19)
H23A H 0.6040 0.1216 0.6205
H24A H 0.8529 -0.1242 0.5750
Cl4A Cl 0.8776(5) 0.2063(4) 0.64356(12)
Pt2A Pt 0.87412(4) -0.00082(3) 0.644709(9)
N6A N 1.0658(9) -0.0011(8) 0.61722(19)
N7A N 1.0059(8) 0.0102(7) 0.68685(19)
N8A N 0.7103(8) -0.0182(8) 0.6806(2)
Cl3A Cl 0.8788(5) -0.2167(5) 0.64463(12)
H18A H 1.0619 0.0557 0.5996
H19A H 1.0815 -0.0766 0.6075
C12A C 1.1880(11) 0.0302(11) 0.6424(3)
H20A H 1.0123 0.0925 0.6925
C13A C 1.1563(11) -0.0286(10) 0.6765(3)
C14A C 0.9317(11) -0.0498(9) 0.7162(3)
H21A H 0.6676 -0.0939 0.6788
H22A H 0.6397 0.0400 0.6769
C15A C 0.7771(11) -0.0022(10) 0.7164(3)
Cl1A Cl 0.8787(5) -0.2838(5) 0.64461(12)
H25A H 1.1947 0.1197 0.6454
H26A H 1.2825 0.0004 0.6333
H27A H 1.1610 -0.1185 0.6743
H28A H 1.2284 -0.0023 0.6941
H29A H 0.9323 -0.1394 0.7132
H30A H 0.9814 -0.0297 0.7383
H31A H 0.7185 -0.0472 0.7338
H32A H 0.7769 0.0853 0.7229
Pt1A_2 Pt 0.87412(4) -0.49920(3) 0.644716(9)
N1A_2 N 0.7423(8) -0.4996(7) 0.60146(19)
N2A N 1.0659(9) -0.4984(8) 0.6172(2)
N3A N 1.0064(8) -0.5097(7) 0.6868(2)
N4A N 0.7106(8) -0.4821(8) 0.6805(2)
Cl2A_2 Cl 0.8777(5) -0.7066(4) 0.64351(12)
H1A H 1.0820 -0.4225 0.6078
H2A H 1.0617 -0.5545 0.5995
C3A C 1.1883(11) -0.5308(11) 0.6423(3)
H3A H 1.0135 -0.5920 0.6924
C4A C 1.1560(11) -0.4698(11) 0.6764(3)
C5A C 0.9316(11) -0.4504(10) 0.7163(3)
H4A H 0.6401 -0.5405 0.6768
H5A H 0.6678 -0.4065 0.6787
C6A C 0.7772(11) -0.4980(11) 0.7165(3)
H8A H 1.2832 -0.5020 0.6330
H9A H 1.1935 -0.6203 0.6454
H10A H 1.1596 -0.3800 0.6738
H11A H 1.2285 -0.4945 0.6941
H12A H 0.9814 -0.4706 0.7384
H13A H 0.9321 -0.3607 0.7134
H14A H 0.7769 -0.5854 0.7230
H15A H 0.7186 -0.4528 0.7339
O35? O 0.0286(17) 0.8234(14) 0.4426(4)
O36? O -0.0474(17) 0.6192(14) 0.4482(4)
O37? O 0.5289(18) 1.3233(14) 0.0572(4)
O38? O 0.4542(18) 1.1194(14) 0.0519(4)
C43? C -0.621(3) 0.775(2) 0.0437(6)
C44? C -0.709(2) 0.6755(19) 0.0245(6)
H81? H -0.6702 0.6659 0.0009
H82? H -0.8118 0.6990 0.0234
H83? H -0.6995 0.5982 0.0371
C45? C -0.646(2) 0.9020(18) 0.0278(6)
H84? H -0.7405 0.9341 0.0356
H85? H -0.6459 0.8956 0.0024
H86? H -0.5679 0.9571 0.0352
C46? C -0.127(4) 0.275(2) 0.4574(8)
C47? C -0.210(2) 0.178(2) 0.4755(6)
H87? H -0.1895 0.0993 0.4644
H88? H -0.3145 0.1954 0.4741
H89? H -0.1796 0.1747 0.4999
C48? C -0.146(2) 0.4017(19) 0.4723(6)
H90? H -0.0661 0.4542 0.4644
H91? H -0.1452 0.3974 0.4977
H92? H -0.2395 0.4356 0.4645
loop_
_geom_bond_atom_site_label_1
_geom_bond_atom_site_label_2
_geom_bond_site_symmetry_1
_geom_bond_site_symmetry_2
Pt1 Cl1 1_555 1_555
Cl1 Cl3 1_555 1_555
N1 Pt1 1_555 1_555
N2 Pt1 1_555 1_555
N3 Pt1 1_555 1_555
N4 Pt1 1_555 1_555
Cl2 Pt1 1_555 1_555
Cl3 Pt2 1_555 1_555
C1 N1 1_555 1_555
C2 N1 1_555 1_555
H1 N2 1_555 1_555
H2 N2 1_555 1_555
C3 N2 1_555 1_555
H3 N3 1_555 1_555
C4 N3 1_555 1_555
C5 N3 1_555 1_555
H4 N4 1_555 1_555
H5 N4 1_555 1_555
C6 N4 1_555 1_555
Pt2 Cl4 1_555 1_555
H6 C1 1_555 1_555
C7 C1 1_555 1_555
C8 C2 1_555 1_555
H7 C2 1_555 1_555
H8 C3 1_555 1_555
H9 C3 1_555 1_555
H10 C4 1_555 1_555
H11 C4 1_555 1_555
H12 C5 1_555 1_555
H13 C5 1_555 1_555
H14 C6 1_555 1_555
H15 C6 1_555 1_555
Cl4 Cl2_2 1_555 1_555
N5 Pt2 1_555 1_555
N6 Pt2 1_555 1_555
N7 Pt2 1_555 1_555
N8 Pt2 1_555 1_555
H16 C7 1_555 1_555
C9 C7 1_555 1_555
H17 C8 1_555 1_555
C10 N5 1_555 1_555
C11 N5 1_555 1_555
H18 N6 1_555 1_555
H19 N6 1_555 1_555
C12 N6 1_555 1_555
H20 N7 1_555 1_555
C13 N7 1_555 1_555
C14 N7 1_555 1_555
H21 N8 1_555 1_555
H22 N8 1_555 1_555
C15 N8 1_555 1_555
N9 C9 1_555 1_555
H23 C10 1_555 1_555
C16 C10 1_555 1_555
C17 C11 1_555 1_555
H24 C11 1_555 1_555
H25 C12 1_555 1_555
H26 C12 1_555 1_555
H27 C13 1_555 1_555
H28 C13 1_555 1_555
H29 C14 1_555 1_555
H30 C14 1_555 1_555
H31 C15 1_555 1_555
H32 C15 1_555 1_555
H33 C16 1_555 1_555
C18 C16 1_555 1_555
H34 C17 1_555 1_555
N10 C18 1_555 1_555
Pt3 Cl5 1_555 1_555
Cl5 Cl7 1_555 1_555
N11 Pt3 1_555 1_555
N12 Pt3 1_555 1_555
H35 N12 1_555 1_555
H36 N12 1_555 1_555
N13 Pt3 1_555 1_555
H37 N13 1_555 1_555
N14 Pt3 1_555 1_555
H38 N14 1_555 1_555
H39 N14 1_555 1_555
N15 C21 1_555 1_555
C19 N11 1_555 1_555
H40 C19 1_555 1_555
C20 C19 1_555 1_555
H41 C20 1_555 1_555
C21 C20 1_555 1_555
C22 C21 1_555 1_555
H42 C22 1_555 1_555
C23 N11 1_555 1_555
H43 C23 1_555 1_555
C24 N12 1_555 1_555
H44 C24 1_555 1_555
H45 C24 1_555 1_555
C25 N13 1_555 1_555
H46 C25 1_555 1_555
H47 C25 1_555 1_555
C26 N13 1_555 1_555
H48 C26 1_555 1_555
H49 C26 1_555 1_555
C27 N14 1_555 1_555
H50 C27 1_555 1_555
H51 C27 1_555 1_555
Pt4 N16 1_555 1_555
N16 C28 1_555 1_555
N17 Pt4 1_555 1_555
H52 N17 1_555 1_555
H53 N17 1_555 1_555
N18 Pt4 1_555 1_555
H54 N18 1_555 1_555
N19 Pt4 1_555 1_555
H55 N19 1_555 1_555
H56 N19 1_555 1_555
N20 C30 1_555 1_555
C28 H57 1_555 1_555
C29 C28 1_555 1_555
H58 C29 1_555 1_555
C30 C29 1_555 1_555
C31 C30 1_555 1_555
H59 C31 1_555 1_555
C32 N16 1_555 1_555
H60 C32 1_555 1_555
C33 N17 1_555 1_555
H61 C33 1_555 1_555
H62 C33 1_555 1_555
C34 N18 1_555 1_555
H63 C34 1_555 1_555
H64 C34 1_555 1_555
C35 N18 1_555 1_555
H65 C35 1_555 1_555
H66 C35 1_555 1_555
C36 N19 1_555 1_555
H67 C36 1_555 1_555
H68 C36 1_555 1_555
Cl6 Pt4 1_555 1_555
Cl7 Pt4_2 1_555 1_555
Cl8 Pt3 1_555 1_555
Cl9 O1 1_555 1_555
O2 Cl9 1_555 1_555
O3 Cl9 1_555 1_555
O4 Cl9 1_555 1_555
Cl10 O5 1_555 1_555
O6 Cl10 1_555 1_555
O7 Cl10 1_555 1_555
O8 Cl10 1_555 1_555
Cl11 O9 1_555 1_555
O10 Cl11 1_555 1_555
O11 Cl11 1_555 1_555
O12 Cl11 1_555 1_555
Cl12 O13 1_555 1_555
O14 Cl12 1_555 1_555
O15 Cl12 1_555 1_555
O16 Cl12 1_555 1_555
Cl13 O17 1_555 1_555
O18 Cl13 1_555 1_555
O19 Cl13 1_555 1_555
O20 Cl13 1_555 1_555
Cl14 O21 1_555 1_555
O22 Cl14 1_555 1_555
O23 Cl14 1_555 1_555
O24 Cl14 1_555 1_555
Cl15 O25 1_555 1_555
O26 Cl15 1_555 1_555
O27 Cl15 1_555 1_555
O28 Cl15 1_555 1_555
Cl16 O29 1_555 1_555
O30 Cl16 1_555 1_555
O31 Cl16 1_555 1_555
O32 Cl16 1_555 1_555
O33 C37 1_555 1_555
C37 C38 1_555 1_555
C38 H69 1_555 1_555
H70 C38 1_555 1_555
H71 C38 1_555 1_555
C39 C37 1_555 1_555
H72 C39 1_555 1_555
H73 C39 1_555 1_555
H74 C39 1_555 1_555
O34 C42 1_555 1_555
C40 H75 1_555 1_555
H76 C40 1_555 1_555
H77 C40 1_555 1_555
C41 H78 1_555 1_555
H79 C41 1_555 1_555
H80 C41 1_555 1_555
C42 C40 1_555 1_555
Cl2_2 Pt1_2 1_555 1_555
N9A N9 1_555 1_555
C9A N9A 1_555 1_555
C7A C9A 1_555 1_555
C8A C9A 1_555 1_555
N10A N10 1_555 1_555
C1A C7A 1_555 1_555
H16A C7A 1_555 1_555
H17A C8A 1_555 1_555
C2A C8A 1_555 1_555
C18A N10A 1_555 1_555
N1A C1A 1_555 1_555
H6A C1A 1_555 1_555
H7A C2A 1_555 1_555
C16A C18A 1_555 1_555
C17A C18A 1_555 1_555
Pt1A N1A 1_555 1_555
C10A C16A 1_555 1_555
H33A C16A 1_555 1_555
H34A C17A 1_555 1_555
C11A C17A 1_555 1_555
Cl2A Pt1A 1_555 1_555
N5A C10A 1_555 1_555
H23A C10A 1_555 1_555
H24A C11A 1_555 1_555
Cl4A Cl2A 1_555 1_555
Pt2A N5A 1_555 1_555
N6A Pt2A 1_555 1_555
N7A Pt2A 1_555 1_555
N8A Pt2A 1_555 1_555
Cl3A Pt2A 1_555 1_555
H18A N6A 1_555 1_555
H19A N6A 1_555 1_555
C12A N6A 1_555 1_555
H20A N7A 1_555 1_555
C13A N7A 1_555 1_555
C14A N7A 1_555 1_555
H21A N8A 1_555 1_555
H22A N8A 1_555 1_555
C15A N8A 1_555 1_555
Cl1A Cl3A 1_555 1_555
H25A C12A 1_555 1_555
H26A C12A 1_555 1_555
H27A C13A 1_555 1_555
H28A C13A 1_555 1_555
H29A C14A 1_555 1_555
H30A C14A 1_555 1_555
H31A C15A 1_555 1_555
H32A C15A 1_555 1_555
Pt1A_2 Cl1A 1_555 1_555
N1A_2 Pt1A_2 1_555 1_555
N2A Pt1A_2 1_555 1_555
N3A Pt1A_2 1_555 1_555
N4A Pt1A_2 1_555 1_555
Cl2A_2 Pt1A_2 1_555 1_555
H1A N2A 1_555 1_555
H2A N2A 1_555 1_555
C3A N2A 1_555 1_555
H3A N3A 1_555 1_555
C4A N3A 1_555 1_555
C5A N3A 1_555 1_555
H4A N4A 1_555 1_555
H5A N4A 1_555 1_555
C6A N4A 1_555 1_555
H8A C3A 1_555 1_555
H9A C3A 1_555 1_555
H10A C4A 1_555 1_555
H11A C4A 1_555 1_555
H12A C5A 1_555 1_555
H13A C5A 1_555 1_555
H14A C6A 1_555 1_555
H15A C6A 1_555 1_555
N11A C19A 1_555 1_555
N15A N15 1_555 1_555
C19A H40A 1_555 1_555
C20A C19A 1_555 1_555
H41A C20A 1_555 1_555
C21A N15A 1_555 1_555
C22A C21A 1_555 1_555
H42A C22A 1_555 1_555
C23A N11A 1_555 1_555
H43A C23A 1_555 1_555
N16A C28A 1_555 1_555
N20A N20 1_555 1_555
C28A H57A 1_555 1_555
C29A C28A 1_555 1_555
H58A C29A 1_555 1_555
C30A N20A 1_555 1_555
C31A C30A 1_555 1_555
H59A C31A 1_555 1_555
C32A N16A 1_555 1_555
H60A C32A 1_555 1_555
Pt3A Cl5A 1_555 1_555
Cl5A Cl7A 1_555 1_555
N12A Pt3A 1_555 1_555
H35A N12A 1_555 1_555
H36A N12A 1_555 1_555
N13A Pt3A 1_555 1_555
H37A N13A 1_555 1_555
N14A Pt3A 1_555 1_555
H38A N14A 1_555 1_555
H39A N14A 1_555 1_555
C24A N12A 1_555 1_555
H44A C24A 1_555 1_555
H45A C24A 1_555 1_555
C25A N13A 1_555 1_555
H46A C25A 1_555 1_555
H47A C25A 1_555 1_555
C26A N13A 1_555 1_555
H48A C26A 1_555 1_555
H49A C26A 1_555 1_555
C27A N14A 1_555 1_555
H50A C27A 1_555 1_555
H51A C27A 1_555 1_555
Pt4A N16A 1_555 1_555
N17A Pt4A 1_555 1_555
H52A N17A 1_555 1_555
H53A N17A 1_555 1_555
N18A Pt4A 1_555 1_555
H54A N18A 1_555 1_555
N19A Pt4A 1_555 1_555
H55A N19A 1_555 1_555
H56A N19A 1_555 1_555
C33A N17A 1_555 1_555
H61A C33A 1_555 1_555
H62A C33A 1_555 1_555
C34A N18A 1_555 1_555
H63A C34A 1_555 1_555
H64A C34A 1_555 1_555
C35A N18A 1_555 1_555
H65A C35A 1_555 1_555
H66A C35A 1_555 1_555
C36A N19A 1_555 1_555
H67A C36A 1_555 1_555
H68A C36A 1_555 1_555
Cl6A Pt4A 1_555 1_555
Cl7A Pt4A_2 1_555 1_555
Cl8A Pt3A 1_555 1_555
Pt3A_2 N11A 1_555 1_555
N11A_2 Pt3A 1_555 1_555
Cl7_2 Pt4 1_555 1_555
Cl7A_2 Pt4A 1_555 1_555
C3 C4 1_555 1_555
C5 C6 1_555 1_555
C8 C9 1_555 1_555
C12 C13 1_555 1_555
C14 C15 1_555 1_555
C17 C18 1_555 1_555
C22 C23 1_555 1_555
C24 C25 1_555 1_555
C26 C27 1_555 1_555
C31 C32 1_555 1_555
C33 C34 1_555 1_555
C35 C36 1_555 1_555
Cl6 Cl8 1_555 1_555
C41 C42 1_555 1_555
C2A N1A 1_555 1_555
C11A N5A 1_555 1_555
Cl4A Pt2A 1_555 1_555
C12A C13A 1_555 1_555
C14A C15A 1_555 1_555
C3A C4A 1_555 1_555
C5A C6A 1_555 1_555
C20A C21A 1_555 1_555
C22A C23A 1_555 1_555
C29A C30A 1_555 1_555
C31A C32A 1_555 1_555
C24A C25A 1_555 1_555
C26A C27A 1_555 1_555
C33A C34A 1_555 1_555
C35A C36A 1_555 1_555
Cl6A Cl8A 1_555 1_555

#END
