
#######################################################################
#
#                 Cambridge Crystallographic Data Centre
#                                CCDC 
#
#######################################################################
#
# If this CIF has been generated from an entry in the Cambridge 
# Structural Database, then it will include bibliographic, chemical, 
# crystal, experimental, refinement or atomic coordinate data resulting 
# from the CCDC's data processing and validation procedures.
#
#######################################################################

data_NOBJEU
_symmetry_cell_setting           monoclinic
_symmetry_space_group_name_H-M   'P 21/n'
_symmetry_Int_Tables_number      14
_space_group_name_Hall           '-P 2yn'
loop_
_symmetry_equiv_pos_site_id
_symmetry_equiv_pos_as_xyz
1 x,y,z
2 1/2-x,1/2+y,1/2-z
3 -x,-y,-z
4 1/2+x,1/2-y,1/2+z
_cell_length_a                   10.332(3)
_cell_length_b                   6.990(1)
_cell_length_c                   25.760(5)
_cell_angle_alpha                90
_cell_angle_beta                 98.61(3)
_cell_angle_gamma                90
_cell_volume                     1839.44
loop_
_atom_site_label
_atom_site_type_symbol
_atom_site_fract_x
_atom_site_fract_y
_atom_site_fract_z
Ag1 Ag 0.67683(10) 0.55755(19) 0.25413(4)
Ag2 Ag 0.37159(9) 0.25215(19) 0.24665(4)
S1 S 0.6079(2) 0.1995(5) 0.26919(10)
N1 N 0.7785(8) 0.1870(14) 0.3609(3)
N2 N 0.8873(8) 0.1604(16) 0.3356(3)
H1 H 0.9324 0.2706 0.3360
H2 H 0.9400 0.0716 0.3531
N3 N 0.6563(9) 0.2240(16) 0.4229(3)
N4 N 0.5813(8) 0.2209(14) 0.3736(3)
H3 H 0.4954 0.2304 0.3681
C1 C 0.6543(9) 0.2020(16) 0.3356(4)
C2 C 0.7763(11) 0.2037(18) 0.4153(4)
C3 C 0.8960(12) 0.202(2) 0.4539(5)
H4 H 0.9323 0.0706 0.4563
H5 H 0.9615 0.2868 0.4414
C4 C 0.8764(17) 0.262(4) 0.5051(7)
H6 H 0.8501 0.3973 0.5039
H7 H 0.9581 0.2472 0.5295
H8 H 0.8077 0.1845 0.5170
S2 S 0.3511(3) 0.6648(6) 0.23736(11)
N5 N 0.3733(8) 0.7318(14) 0.3436(3)
N6 N 0.2392(7) 0.7397(15) 0.3439(3)
H9 H 0.2192 0.8443 0.3615
H10 H 0.2130 0.6357 0.3601
N7 N 0.5792(8) 0.7158(13) 0.3669(3)
H11 H 0.6575 0.7153 0.3859
N8 N 0.5563(8) 0.6936(14) 0.3136(3)
C5 C 0.4296(9) 0.7015(16) 0.2991(4)
C6 C 0.4688(10) 0.7381(17) 0.3864(4)
C7 C 0.4502(11) 0.7625(19) 0.4411(4)
H12 H 0.3862 0.6668 0.4498
H13 H 0.4138 0.8913 0.4457
C8 C 0.5788(12) 0.739(2) 0.4787(5)
H14 H 0.6155 0.6120 0.4741
H15 H 0.5622 0.7531 0.5150
H16 H 0.6412 0.8373 0.4712
Ag1A Ag 0.82317(10) 0.05755(19) 0.24587(4)
Ag2A Ag 0.12841(9) 0.75215(19) 0.25335(4)
S1A S 0.8921(2) 0.6995(5) 0.23081(10)
N2A N 0.6127(8) 0.6604(16) 0.1644(3)
H1A H 0.5676 0.7706 0.1640
H2A H 0.5600 0.5716 0.1469
S2A S 0.1489(3) 0.1648(6) 0.26264(11)
N6A N 0.2608(7) 0.2397(15) 0.1561(3)
H9A H 0.2808 0.3443 0.1385
H10A H 0.2870 0.1357 0.1399
N9 N 0.8939(9) 0.7047(16) 0.3721(4)
O1 O 0.8515(10) 0.5561(17) 0.3513(4)
O2 O 0.8264(8) 0.7826(16) 0.4043(4)
O3 O 0.9882(9) 0.7816(15) 0.3621(5)
N10 N 0.2416(10) 1.274(2) 0.3896(4)
O4 O 0.2314(15) 1.1083(18) 0.3974(5)
O5 O 0.1486(10) 1.3806(17) 0.3925(4)
O6 O 0.3406(9) 1.3495(16) 0.3776(4)
loop_
_geom_bond_atom_site_label_1
_geom_bond_atom_site_label_2
_geom_bond_site_symmetry_1
_geom_bond_site_symmetry_2
Ag1 S1 1_555 1_555
Ag2 S1 1_555 1_555
S1 C1 1_555 1_555
N1 N2 1_555 1_555
N2 H1 1_555 1_555
H2 N2 1_555 1_555
N3 N4 1_555 1_555
N4 H3 1_555 1_555
C1 N1 1_555 1_555
C2 N1 1_555 1_555
C3 C2 1_555 1_555
H4 C3 1_555 1_555
H5 C3 1_555 1_555
C4 C3 1_555 1_555
H6 C4 1_555 1_555
H7 C4 1_555 1_555
H8 C4 1_555 1_555
S2 Ag2 1_555 1_555
N5 N6 1_555 1_555
N6 H9 1_555 1_555
H10 N6 1_555 1_555
N7 H11 1_555 1_555
N8 Ag1 1_555 1_555
C5 S2 1_555 1_555
C6 N5 1_555 1_555
C7 C6 1_555 1_555
H12 C7 1_555 1_555
H13 C7 1_555 1_555
C8 C7 1_555 1_555
H14 C8 1_555 1_555
H15 C8 1_555 1_555
H16 C8 1_555 1_555
N9 O1 1_555 1_555
O2 N9 1_555 1_555
O3 N9 1_555 1_555
N10 O4 1_555 1_555
O5 N10 1_555 1_555
O6 N10 1_555 1_555
Ag1A S1 1_555 1_555
Ag2A S2 1_555 1_555
S1A Ag1 1_555 1_555
N2A Ag1 1_555 1_555
H1A N2A 1_555 1_555
H2A N2A 1_555 1_555
S2A Ag2 1_555 1_555
N6A Ag2 1_555 1_555
H9A N6A 1_555 1_555
H10A N6A 1_555 1_555
N2 Ag1A 1_555 1_555
N3 C2 1_555 1_555
N4 C1 1_555 1_555
N5 C5 1_555 1_555
N6 Ag2A 1_555 1_555
N7 N8 1_555 1_555
N7 C6 1_555 1_555
N8 C5 1_555 1_555

#END
