
#######################################################################
#
#                 Cambridge Crystallographic Data Centre
#                                CCDC 
#
#######################################################################
#
# If this CIF has been generated from an entry in the Cambridge 
# Structural Database, then it will include bibliographic, chemical, 
# crystal, experimental, refinement or atomic coordinate data resulting 
# from the CCDC's data processing and validation procedures.
#
#######################################################################

data_NOBKUK
_symmetry_cell_setting           monoclinic
_symmetry_space_group_name_H-M   'C 2/c'
_symmetry_Int_Tables_number      15
_space_group_name_Hall           '-C 2yn'
loop_
_symmetry_equiv_pos_site_id
_symmetry_equiv_pos_as_xyz
1 x,y,z
2 x,-y,1/2+z
3 1/2+x,1/2+y,z
4 1/2+x,1/2-y,1/2+z
5 -x,-y,-z
6 -x,y,1/2-z
7 1/2-x,1/2-y,-z
8 1/2-x,1/2+y,1/2-z
_cell_length_a                   17.7806(9)
_cell_length_b                   34.5293(17)
_cell_length_c                   38.715(2)
_cell_angle_alpha                90
_cell_angle_beta                 91.915(5)
_cell_angle_gamma                90
_cell_volume                     23755.9
loop_
_atom_site_label
_atom_site_type_symbol
_atom_site_fract_x
_atom_site_fract_y
_atom_site_fract_z
Ag1 Ag 0.84045(13) 0.27353(5) 0.41177(5)
Ag2 Ag 1.00000 0.42978(7) 0.25000
Ag3 Ag 0.50000 0.13528(7) 0.25000
C1 C 0.691(3) 0.3003(7) 0.3555(4)
C2 C 0.7353(8) 0.2716(14) 0.3409(5)
C3 C 0.702(2) 0.2372(9) 0.3289(4)
C4 C 0.625(3) 0.2315(7) 0.3314(4)
C5 C 0.5801(8) 0.2602(14) 0.3460(5)
C6 C 0.613(2) 0.2946(9) 0.3580(4)
N1 N 0.7932(13) 0.3323(4) 0.3880(4)
C7 C 0.8249(6) 0.3648(8) 0.4044(3)
C8 C 0.7895(13) 0.4009(5) 0.4008(3)
C9 C 0.7226(13) 0.4044(4) 0.3809(4)
C10 C 0.6909(6) 0.3719(8) 0.3647(3)
C11 C 0.7262(13) 0.3358(5) 0.3681(3)
N2 N 0.925(2) 0.3236(10) 0.4316(4)
C12 C 0.9070(10) 0.3618(14) 0.4222(4)
C13 C 0.961(3) 0.3910(5) 0.4270(4)
C14 C 1.032(2) 0.3821(10) 0.4412(4)
C15 C 1.0498(10) 0.3439(14) 0.4506(4)
C16 C 0.996(3) 0.3147(5) 0.4458(4)
C17 C 1.013(5) 0.2777(8) 0.4570(6)
C18 C 0.9593(17) 0.251(2) 0.4679(6)
C19 C 0.980(4) 0.2130(19) 0.4755(6)
C20 C 1.055(5) 0.2011(8) 0.4722(6)
C21 C 1.1086(17) 0.228(2) 0.4613(6)
C22 C 1.088(4) 0.2658(19) 0.4536(6)
C23 C 0.8162(18) 0.4795(5) 0.2419(3)
C24 C 0.8705(9) 0.4943(5) 0.2201(8)
C25 C 0.8514(14) 0.5027(4) 0.1855(7)
C26 C 0.7779(18) 0.4962(5) 0.1728(3)
C27 C 0.7235(9) 0.4814(5) 0.1945(8)
C28 C 0.7428(14) 0.4730(4) 0.2291(7)
N3 N 0.9109(9) 0.4562(4) 0.2878(4)
C29 C 0.9308(7) 0.4488(3) 0.3225(5)
C30 C 0.8793(12) 0.4558(4) 0.3482(3)
C31 C 0.8076(10) 0.4702(4) 0.3394(4)
C32 C 0.7876(7) 0.4776(3) 0.3047(5)
C33 C 0.8392(11) 0.4706(4) 0.2790(3)
N4 N 1.0417(10) 0.4122(5) 0.3052(3)
C34 C 1.0067(7) 0.4326(4) 0.3315(5)
C35 C 1.0402(11) 0.4340(4) 0.3648(4)
C36 C 1.1086(11) 0.4149(5) 0.3717(3)
C37 C 1.1436(7) 0.3946(4) 0.3454(5)
C38 C 1.1101(11) 0.3933(3) 0.3122(4)
C39 C 1.1542(17) 0.3757(6) 0.2854(5)
C40 C 1.1131(8) 0.3560(7) 0.2594(7)
C41 C 1.1505(17) 0.3383(5) 0.2324(5)
C42 C 1.2291(17) 0.3403(6) 0.2313(5)
C43 C 1.2701(8) 0.3600(7) 0.2574(7)
C44 C 1.2327(17) 0.3776(5) 0.2844(5)
C45 C 0.6858(12) 0.4444(6) 0.3720(5)
C46 C 0.7445(13) 0.4778(6) 0.3672(5)
C47 C 1.0866(11) 0.4166(6) 0.4410(5)
C48 C 1.1410(12) 0.4155(5) 0.4112(5)
C49 C 0.681(3) 0.2949(5) 0.4590(7)
C50 C 0.744(2) 0.3056(13) 0.4793(8)
C51 C 0.7515(15) 0.3440(16) 0.4908(4)
C52 C 0.696(3) 0.3715(5) 0.4819(7)
C53 C 0.633(2) 0.3606(13) 0.4615(7)
C54 C 0.6256(15) 0.3224(16) 0.4500(4)
N5 N 0.7349(12) 0.2378(11) 0.4312(4)
C55 C 0.7275(15) 0.1997(10) 0.4194(4)
C56 C 0.659(2) 0.1801(4) 0.4223(4)
C57 C 0.5979(13) 0.1988(11) 0.4370(5)
C58 C 0.6052(14) 0.2369(11) 0.4489(4)
C59 C 0.674(2) 0.2564(4) 0.4460(4)
N6 N 0.8514(18) 0.2117(4) 0.3903(5)
C60 C 0.7958(11) 0.1866(10) 0.4019(4)
C61 C 0.7960(12) 0.1477(8) 0.3921(5)
C62 C 0.852(2) 0.1337(4) 0.3705(5)
C63 C 0.9074(11) 0.1589(10) 0.3590(4)
C64 C 0.9072(12) 0.1979(9) 0.3689(5)
C65 C 0.974(6) 0.228(3) 0.3646(8)
C66 C 0.958(3) 0.266(4) 0.3559(8)
C67 C 1.016(8) 0.2923(12) 0.3498(7)
C68 C 1.091(5) 0.280(3) 0.3522(8)
C69 C 1.108(3) 0.242(4) 0.3609(8)
C70 C 1.049(8) 0.2154(11) 0.3670(7)
H1 H 0.907(4) 0.274(7) 0.3541(12)
H2 H 1.004(13) 0.3185(17) 0.3441(11)
H3 H 1.130(9) 0.298(5) 0.3480(12)
H4 H 1.158(4) 0.233(7) 0.3627(11)
H5 H 1.061(13) 0.1892(16) 0.3727(11)
C77 C 0.395(2) 0.1907(8) 0.3064(7)
C78 C 0.319(3) 0.1890(7) 0.3141(5)
C79 C 0.2666(11) 0.2123(12) 0.2959(8)
C80 C 0.291(2) 0.2374(8) 0.2702(7)
C81 C 0.367(3) 0.2391(7) 0.2624(5)
C82 C 0.4191(11) 0.2157(12) 0.2806(8)
N7 N 0.5089(13) 0.1505(5) 0.3088(3)
C83 C 0.5657(9) 0.1294(4) 0.3261(6)
C84 C 0.5648(9) 0.1250(4) 0.3620(6)
C85 C 0.5071(13) 0.1419(5) 0.3806(3)
C86 C 0.4504(9) 0.1631(5) 0.3634(6)
C87 C 0.4513(9) 0.1675(4) 0.3274(6)
N8 N 0.6170(8) 0.1048(5) 0.2729(7)
C88 C 0.6331(12) 0.1132(4) 0.3078(6)
C89 C 0.7057(16) 0.1070(5) 0.3219(3)
C90 C 0.7622(8) 0.0926(5) 0.3011(7)
C91 C 0.7461(12) 0.0842(4) 0.2663(6)
C92 C 0.6735(16) 0.0902(5) 0.2522(3)
C93 C 0.6544(18) 0.0795(5) 0.2150(4)
C94 C 0.5844(14) 0.0642(6) 0.2047(7)
C95 C 0.5691(10) 0.0555(5) 0.1698(8)
C96 C 0.6237(18) 0.0622(5) 0.1453(4)
C97 C 0.6937(14) 0.0777(6) 0.1557(7)
C98 C 0.7090(10) 0.0863(5) 0.1906(8)
C99 C 0.5174(15) 0.1765(7) 0.4388(5)
C100 C 0.5079(15) 0.1375(6) 0.4200(6)
C101 C 0.8562(12) 0.0916(5) 0.3568(6)
C102 C 0.8408(13) 0.0867(6) 0.3166(6)
H11 H 0.78712 0.27630 0.33974
H12 H 0.73359 0.21778 0.32013
H13 H 0.60353 0.20730 0.32398
H14 H 0.52710 0.25523 0.34784
H15 H 0.58064 0.31376 0.36745
H16 H 0.81254 0.42361 0.41110
H17 H 0.64718 0.37284 0.35177
H18 H 0.93805 0.41621 0.41887
H19 H 1.09751 0.34255 0.45842
H20 H 0.90995 0.26106 0.47023
H21 H 0.94289 0.19631 0.48202
H22 H 1.06759 0.17555 0.47558
H23 H 1.15923 0.21956 0.45766
H24 H 1.12602 0.28409 0.44548
H25 H 0.92381 0.49885 0.22908
H26 H 0.89045 0.51270 0.17116
H27 H 0.76654 0.50200 0.15038
H28 H 0.67603 0.47761 0.18740
H29 H 0.70944 0.46386 0.24541
H30 H 0.89344 0.45136 0.37213
H31 H 0.73971 0.48731 0.29878
H32 H 1.01204 0.44817 0.38205
H33 H 1.18727 0.38201 0.35149
H34 H 1.05594 0.35465 0.26059
H35 H 1.11646 0.32558 0.21425
H36 H 1.24821 0.32886 0.21117
H37 H 1.31921 0.36110 0.25477
H38 H 1.25861 0.38991 0.30118
H39 H 0.66007 0.44174 0.35036
H40 H 0.65566 0.45132 0.38939
H41 H 0.72584 0.50085 0.36248
H42 H 0.77813 0.47942 0.38905
H43 H 1.05771 0.44037 0.43904
H44 H 1.11248 0.41446 0.46084
H45 H 1.16983 0.43854 0.41173
H46 H 1.17026 0.39362 0.41233
H47 H 0.78310 0.28626 0.48615
H48 H 0.79376 0.35103 0.50440
H49 H 0.69974 0.39610 0.48834
H50 H 0.59501 0.37620 0.45421
H51 H 0.58455 0.31161 0.43584
H52 H 0.65487 0.15369 0.41370
H53 H 0.56365 0.24896 0.45815
H54 H 0.75947 0.13044 0.40093
H55 H 0.94476 0.15007 0.34451
H56 H 0.30253 0.17156 0.33348
H57 H 0.21385 0.20960 0.30254
H58 H 0.25300 0.25088 0.25836
H59 H 0.38065 0.25367 0.24474
H60 H 0.46935 0.21535 0.27557
H61 H 0.60400 0.11062 0.37496
H62 H 0.41211 0.17487 0.37522
H63 H 0.71642 0.11208 0.34457
H64 H 0.78258 0.07445 0.25070
H65 H 0.54798 0.05958 0.22169
H66 H 0.52068 0.04527 0.16323
H67 H 0.61128 0.05654 0.12167
H68 H 0.72918 0.08247 0.13844
H69 H 0.75646 0.09676 0.19690
H70 H 0.51066 0.17071 0.46259
H71 H 0.47993 0.19358 0.43064
H72 H 0.54893 0.12138 0.42529
H73 H 0.46223 0.12656 0.42473
H74 H 0.90290 0.08212 0.36410
H75 H 0.81733 0.07810 0.36985
H76 H 0.87146 0.10501 0.30608
H77 H 0.85459 0.06141 0.31164
C1E C 1.309(3) 0.3003(7) 0.1445(4)
C2E C 1.2647(8) 0.2716(14) 0.1591(5)
C3E C 1.298(2) 0.2372(9) 0.1711(4)
C4E C 1.375(3) 0.2315(7) 0.1686(4)
C5E C 1.4199(8) 0.2602(14) 0.1540(5)
C6E C 1.387(2) 0.2946(9) 0.1420(4)
N1E N 1.2068(13) 0.3323(4) 0.1120(4)
C7E C 1.1751(6) 0.3648(8) 0.0956(3)
C8E C 1.2105(13) 0.4009(5) 0.0992(3)
C9E C 1.2774(13) 0.4044(4) 0.1191(4)
C10E C 1.3091(6) 0.3719(8) 0.1353(3)
C11E C 1.2738(13) 0.3358(5) 0.1319(3)
N2E N 1.075(2) 0.3236(10) 0.0684(4)
C12E C 1.0930(10) 0.3618(14) 0.0778(4)
C13E C 1.039(3) 0.3910(5) 0.0730(4)
C14E C 0.968(2) 0.3821(10) 0.0588(4)
C15E C 0.9502(10) 0.3439(14) 0.0494(4)
C16E C 1.004(3) 0.3147(5) 0.0542(4)
C17E C 0.987(5) 0.2777(8) 0.0430(6)
C18E C 1.0407(17) 0.251(2) 0.0321(6)
C19E C 1.020(4) 0.2130(19) 0.0245(6)
C20E C 0.945(5) 0.2011(8) 0.0278(6)
C21E C 0.8914(17) 0.228(2) 0.0387(6)
C22E C 0.912(4) 0.2658(19) 0.0464(6)
C23E C 1.1838(18) 0.4795(5) 0.2581(3)
C24E C 1.1295(9) 0.4943(5) 0.2799(8)
C25E C 1.1486(14) 0.5027(4) 0.3145(7)
C26E C 1.2221(18) 0.4962(5) 0.3272(3)
C27E C 1.2765(9) 0.4814(5) 0.3055(8)
C28E C 1.2572(14) 0.4730(4) 0.2709(7)
N3E N 1.0891(9) 0.4562(4) 0.2122(4)
C29E C 1.0692(7) 0.4488(3) 0.1775(5)
C30E C 1.1207(12) 0.4558(4) 0.1518(3)
C31E C 1.1924(10) 0.4702(4) 0.1606(4)
C32E C 1.2124(7) 0.4776(3) 0.1953(5)
C33E C 1.1608(11) 0.4706(4) 0.2210(3)
N4E N 0.9583(10) 0.4122(5) 0.1948(3)
C34E C 0.9933(7) 0.4326(4) 0.1685(5)
C35E C 0.9598(11) 0.4340(4) 0.1352(4)
C36E C 0.8914(11) 0.4149(5) 0.1283(3)
C37E C 0.8564(7) 0.3946(4) 0.1546(5)
C38E C 0.8899(11) 0.3933(3) 0.1878(4)
C39E C 0.8458(17) 0.3757(6) 0.2146(5)
C40E C 0.8869(8) 0.3560(7) 0.2406(7)
C41E C 0.8495(17) 0.3383(5) 0.2676(5)
C42E C 0.7709(17) 0.3403(6) 0.2687(5)
C43E C 0.7299(8) 0.3600(7) 0.2426(7)
C44E C 0.7673(17) 0.3776(5) 0.2156(5)
C45E C 1.3142(12) 0.4444(6) 0.1280(5)
C46E C 1.2555(13) 0.4778(6) 0.1328(5)
C47E C 0.9134(11) 0.4166(6) 0.0590(5)
C48E C 0.8590(12) 0.4155(5) 0.0888(5)
H11E H 1.21288 0.27630 0.16026
H12E H 1.26641 0.21778 0.17987
H13E H 1.39647 0.20730 0.17602
H14E H 1.47290 0.25523 0.15216
H15E H 1.41936 0.31376 0.13255
H16E H 1.18746 0.42361 0.08890
H17E H 1.35282 0.37284 0.14823
H18E H 1.06195 0.41621 0.08113
H19E H 0.90249 0.34255 0.04158
H20E H 1.09005 0.26106 0.02977
H21E H 1.05711 0.19631 0.01798
H22E H 0.93241 0.17555 0.02442
H23E H 0.84077 0.21956 0.04234
H24E H 0.87398 0.28409 0.05452
H25E H 1.07619 0.49885 0.27092
H26E H 1.10955 0.51270 0.32884
H27E H 1.23346 0.50200 0.34962
H28E H 1.32397 0.47761 0.31260
H29E H 1.29056 0.46386 0.25459
H30E H 1.10656 0.45136 0.12787
H31E H 1.26029 0.48731 0.20122
H32E H 0.98796 0.44817 0.11795
H33E H 0.81273 0.38201 0.14851
H34E H 0.94406 0.35465 0.23941
H35E H 0.88354 0.32558 0.28575
H36E H 0.75179 0.32886 0.28883
H37E H 0.68079 0.36110 0.24523
H38E H 0.74139 0.38991 0.19882
H39E H 1.33993 0.44174 0.14964
H40E H 1.34434 0.45132 0.11061
H41E H 1.27416 0.50085 0.13752
H42E H 1.22187 0.47942 0.11095
H43E H 0.94229 0.44037 0.06096
H44E H 0.88752 0.41446 0.03916
H45E H 0.83017 0.43854 0.08827
H46E H 0.82974 0.39362 0.08767
Ag1E Ag 1.15955(13) 0.27353(5) 0.08823(5)
C49E C 1.319(3) 0.2949(5) 0.0410(7)
C50E C 1.256(2) 0.3056(13) 0.0207(8)
C51E C 1.2485(15) 0.3440(16) 0.0092(4)
C52E C 1.304(3) 0.3715(5) 0.0181(7)
C53E C 1.367(2) 0.3606(13) 0.0385(7)
C54E C 1.3744(15) 0.3224(16) 0.0500(4)
N5E N 1.2651(12) 0.2378(11) 0.0688(4)
C55E C 1.2725(15) 0.1997(10) 0.0806(4)
C56E C 1.341(2) 0.1801(4) 0.0777(4)
C57E C 1.4021(13) 0.1988(11) 0.0630(5)
C58E C 1.3948(14) 0.2369(11) 0.0511(4)
C59E C 1.326(2) 0.2564(4) 0.0540(4)
N6E N 1.1486(18) 0.2117(4) 0.1097(5)
C60E C 1.2042(11) 0.1866(10) 0.0981(4)
C61E C 1.2040(12) 0.1477(8) 0.1079(5)
C62E C 1.148(2) 0.1337(4) 0.1295(5)
C63E C 1.0926(11) 0.1589(10) 0.1410(4)
C64E C 1.0928(12) 0.1979(9) 0.1311(5)
C65E C 1.026(6) 0.228(3) 0.1354(8)
C66E C 1.042(3) 0.266(4) 0.1441(8)
C67E C 0.984(8) 0.2923(12) 0.1502(7)
C68E C 0.909(5) 0.280(3) 0.1478(8)
C69E C 0.892(3) 0.242(4) 0.1391(8)
C70E C 0.951(8) 0.2154(11) 0.1330(7)
H1E H 1.093(4) 0.274(7) 0.1459(12)
H2E H 0.996(13) 0.3185(17) 0.1559(11)
H3E H 0.870(9) 0.298(5) 0.1520(12)
H4E H 0.842(4) 0.233(7) 0.1373(11)
H5E H 0.939(13) 0.1892(16) 0.1273(11)
C77E C 1.605(2) 0.1907(8) 0.1936(7)
C78E C 1.681(3) 0.1890(7) 0.1859(5)
C79E C 1.7334(11) 0.2123(12) 0.2041(8)
C80E C 1.709(2) 0.2374(8) 0.2298(7)
C81E C 1.633(3) 0.2391(7) 0.2376(5)
C82E C 1.5809(11) 0.2157(12) 0.2194(8)
N7E N 1.4911(13) 0.1505(5) 0.1912(3)
C83E C 1.4343(9) 0.1294(4) 0.1739(6)
C84E C 1.4352(9) 0.1250(4) 0.1380(6)
C85E C 1.4929(13) 0.1419(5) 0.1194(3)
C86E C 1.5496(9) 0.1631(5) 0.1366(6)
C87E C 1.5487(9) 0.1675(4) 0.1726(6)
N8E N 1.3830(8) 0.1048(5) 0.2271(7)
C88E C 1.3669(12) 0.1132(4) 0.1922(6)
C89E C 1.2943(16) 0.1070(5) 0.1781(3)
C90E C 1.2378(8) 0.0926(5) 0.1989(7)
C91E C 1.2539(12) 0.0842(4) 0.2337(6)
C92E C 1.3265(16) 0.0902(5) 0.2478(3)
C93E C 1.3456(18) 0.0795(5) 0.2850(4)
C94E C 1.4156(14) 0.0642(6) 0.2953(7)
C95E C 1.4309(10) 0.0555(5) 0.3302(8)
C96E C 1.3763(18) 0.0622(5) 0.3547(4)
C97E C 1.3063(14) 0.0777(6) 0.3443(7)
C98E C 1.2910(10) 0.0863(5) 0.3094(8)
C99E C 1.4826(15) 0.1765(7) 0.0612(5)
C100E C 1.4921(15) 0.1375(6) 0.0800(6)
C101E C 1.1438(12) 0.0916(5) 0.1432(6)
C102E C 1.1592(13) 0.0867(6) 0.1834(6)
H47E H 1.21690 0.28626 0.01385
H48E H 1.20624 0.35103 -0.00440
H49E H 1.30026 0.39610 0.01166
H50E H 1.40499 0.37620 0.04579
H51E H 1.41545 0.31161 0.06416
H52E H 1.34513 0.15369 0.08630
H53E H 1.43635 0.24896 0.04185
H54E H 1.24053 0.13044 0.09907
H55E H 1.05524 0.15007 0.15549
H56E H 1.69747 0.17156 0.16652
H57E H 1.78615 0.20960 0.19746
H58E H 1.74700 0.25088 0.24164
H59E H 1.61935 0.25367 0.25526
H60E H 1.53065 0.21535 0.22443
H61E H 1.39600 0.11062 0.12504
H62E H 1.58789 0.17487 0.12478
H63E H 1.28358 0.11208 0.15543
H64E H 1.21742 0.07445 0.24930
H65E H 1.45202 0.05958 0.27831
H66E H 1.47932 0.04527 0.33677
H67E H 1.38872 0.05654 0.37833
H68E H 1.27082 0.08247 0.36156
H69E H 1.24354 0.09676 0.30310
H70E H 1.48934 0.17071 0.03741
H71E H 1.52007 0.19358 0.06936
H72E H 1.45107 0.12138 0.07471
H73E H 1.53777 0.12656 0.07527
H74E H 1.09710 0.08212 0.13590
H75E H 1.18267 0.07810 0.13015
H76E H 1.12854 0.10501 0.19392
H77E H 1.14541 0.06141 0.18836
N7E_2 N 0.4911(13) 0.1505(5) 0.1912(3)
N8E_2 N 0.3830(8) 0.1048(5) 0.2271(7)
Ag3_2 Ag 1.50000 0.13528(7) 0.25000
P1 P 0.6851(6) 0.0403(2) 0.4394(2)
F1 F 0.6917(13) 0.0693(6) 0.4136(7)
F2 F 0.6728(18) 0.0089(6) 0.4621(6)
F3 F 0.7287(15) 0.0149(7) 0.4182(6)
F4 F 0.6492(16) 0.0661(8) 0.4621(8)
F5 F 0.7624(14) 0.0503(7) 0.4583(8)
F6 F 0.6105(15) 0.0286(8) 0.4232(7)
P2 P 0.2875(13) 0.1365(7) 0.4618(6)
F7 F 0.305(3) 0.0966(15) 0.4359(13)
F8 F 0.384(3) 0.1387(15) 0.4768(13)
F9 F 0.275(3) 0.1740(14) 0.4892(13)
F10 F 0.218(3) 0.1335(14) 0.4487(12)
F11 F 0.263(3) 0.1049(15) 0.4951(13)
F12 F 0.306(3) 0.1669(14) 0.4307(14)
N9 N 0.9126(14) 0.4878(6) 0.4317(6)
C103 C 0.9232(14) 0.5115(7) 0.4520(6)
C104 C 0.938(2) 0.5405(8) 0.4773(7)
N11 N 0.348(5) 0.2714(18) 0.4318(15)
C107 C 0.344(10) 0.2872(18) 0.3971(15)
C108 C 0.338(3) 0.3039(15) 0.3568(13)
N12 N 0.960(3) 0.0287(13) 0.1657(15)
C109 C 0.934(2) 0.0627(13) 0.168(2)
C110 C 0.906(3) 0.1082(15) 0.1711(18)
N13 N 0.936(3) 0.1561(15) 0.2435(17)
C111 C 0.943(3) 0.1910(17) 0.254(3)
C112 C 0.953(4) 0.232(2) 0.267(2)
N14 N 0.546(3) 0.405(2) 0.5509(14)
C113 C 0.516(3) 0.412(3) 0.5285(12)
C114 C 0.477(4) 0.421(3) 0.5005(17)
N15 N 0.886(4) 0.1272(17) 0.129(2)
C115 C 0.907(3) 0.0892(13) 0.1234(18)
C116 C 0.928(4) 0.0486(16) 0.118(2)
N17 N 1.012(3) 0.015(2) 0.2162(14)
C119 C 0.944(3) 0.026(3) 0.2112(12)
C120 C 0.866(4) 0.038(3) 0.204(2)
N18 N 0.723(4) 0.524(2) 0.479(2)
C121 C 0.672(3) 0.5041(16) 0.4690(15)
C122 C 0.608(3) 0.480(2) 0.4581(19)
C71? C 0.9652(17) 0.2264(9) 0.3526(12)
C72? C 1.008(2) 0.2494(11) 0.3758(7)
C73? C 1.0605(19) 0.2756(9) 0.3635(10)
C74? C 1.0706(16) 0.2789(8) 0.3280(11)
C75? C 1.028(2) 0.2560(11) 0.3047(7)
C76? C 0.9754(19) 0.2298(9) 0.3171(10)
H6? H 1.001(3) 0.2471(17) 0.4000(7)
H7? H 1.089(3) 0.2911(13) 0.3793(14)
H8? H 1.106(2) 0.2967(12) 0.3196(17)
H9? H 1.035(3) 0.2584(17) 0.2805(7)
H10? H 0.946(3) 0.2142(13) 0.3013(15)
N10? N 0.512(3) 0.3357(12) 0.2702(14)
C105? C 0.508(3) 0.3702(13) 0.2722(10)
C106? C 0.502(3) 0.4086(15) 0.2722(13)
N16? N 0.930(4) -0.0083(17) 0.197(2)
C117? C 0.9432(18) 0.0322(10) 0.1976(10)
C118? C 0.948(3) 0.0743(14) 0.1983(16)
loop_
_geom_bond_atom_site_label_1
_geom_bond_atom_site_label_2
_geom_bond_site_symmetry_1
_geom_bond_site_symmetry_2
Ag1 N1 1_555 1_555
Ag2 N3 1_555 1_555
Ag3 N7 1_555 1_555
C1 C2 1_555 1_555
C2 C3 1_555 1_555
C3 C4 1_555 1_555
C4 C5 1_555 1_555
C5 C6 1_555 1_555
C6 C1 1_555 1_555
N1 C7 1_555 1_555
C7 C8 1_555 1_555
C8 C9 1_555 1_555
C9 C10 1_555 1_555
C10 C11 1_555 1_555
C11 C1 1_555 1_555
N2 Ag1 1_555 1_555
C12 C7 1_555 1_555
C13 C12 1_555 1_555
C14 C13 1_555 1_555
C15 C14 1_555 1_555
C16 N2 1_555 1_555
C17 C16 1_555 1_555
C18 C17 1_555 1_555
C19 C18 1_555 1_555
C20 C19 1_555 1_555
C21 C20 1_555 1_555
C22 C17 1_555 1_555
C23 C24 1_555 1_555
C24 C25 1_555 1_555
C25 C26 1_555 1_555
C26 C27 1_555 1_555
C27 C28 1_555 1_555
C28 C23 1_555 1_555
N3 C29 1_555 1_555
C29 C30 1_555 1_555
C30 C31 1_555 1_555
C31 C32 1_555 1_555
C32 C33 1_555 1_555
C33 C23 1_555 1_555
N4 Ag2 1_555 1_555
C34 C29 1_555 1_555
C35 C34 1_555 1_555
C36 C35 1_555 1_555
C37 C36 1_555 1_555
C38 N4 1_555 1_555
C39 C38 1_555 1_555
C40 C39 1_555 1_555
C41 C40 1_555 1_555
C42 C41 1_555 1_555
C43 C42 1_555 1_555
C44 C39 1_555 1_555
C45 C9 1_555 1_555
C46 C31 1_555 1_555
C47 C14 1_555 1_555
C48 C36 1_555 1_555
C49 C50 1_555 1_555
C50 C51 1_555 1_555
C51 C52 1_555 1_555
C52 C53 1_555 1_555
C53 C54 1_555 1_555
C54 C49 1_555 1_555
N5 Ag1 1_555 1_555
C55 N5 1_555 1_555
C56 C55 1_555 1_555
C57 C56 1_555 1_555
C58 C57 1_555 1_555
C59 C49 1_555 1_555
N6 Ag1 1_555 1_555
C60 C55 1_555 1_555
C61 C60 1_555 1_555
C62 C61 1_555 1_555
C63 C62 1_555 1_555
C64 N6 1_555 1_555
C65 C64 1_555 1_555
C66 C65 1_555 1_555
C67 C66 1_555 1_555
C68 C67 1_555 1_555
C69 C68 1_555 1_555
C70 C65 1_555 1_555
H1 C66 1_555 1_555
H2 C67 1_555 1_555
H3 C68 1_555 1_555
H4 C69 1_555 1_555
H5 C70 1_555 1_555
C77 C78 1_555 1_555
C78 C79 1_555 1_555
C79 C80 1_555 1_555
C80 C81 1_555 1_555
C81 C82 1_555 1_555
C82 C77 1_555 1_555
N7 C83 1_555 1_555
C83 C84 1_555 1_555
C84 C85 1_555 1_555
C85 C86 1_555 1_555
C86 C87 1_555 1_555
C87 C77 1_555 1_555
N8 Ag3 1_555 1_555
C88 C83 1_555 1_555
C89 C88 1_555 1_555
C90 C89 1_555 1_555
C91 C90 1_555 1_555
C92 N8 1_555 1_555
C93 C92 1_555 1_555
C94 C93 1_555 1_555
C95 C94 1_555 1_555
C96 C95 1_555 1_555
C97 C96 1_555 1_555
C98 C93 1_555 1_555
C99 C57 1_555 1_555
C100 C85 1_555 1_555
C101 C62 1_555 1_555
C102 C90 1_555 1_555
P1 F1 1_555 1_555
F2 P1 1_555 1_555
F3 P1 1_555 1_555
F4 P1 1_555 1_555
F5 P1 1_555 1_555
F6 P1 1_555 1_555
P2 F7 1_555 1_555
F8 P2 1_555 1_555
F9 P2 1_555 1_555
F10 P2 1_555 1_555
F11 P2 1_555 1_555
F12 P2 1_555 1_555
N9 C103 1_555 1_555
C103 C104 1_555 1_555
N11 C107 1_555 1_555
C107 C108 1_555 1_555
N12 C109 1_555 1_555
C109 C110 1_555 1_555
N13 C111 1_555 1_555
C111 C112 1_555 1_555
N14 C113 1_555 1_555
C113 C114 1_555 1_555
N15 C115 1_555 1_555
C115 C116 1_555 1_555
N17 C119 1_555 1_555
C119 C120 1_555 1_555
N18 C121 1_555 1_555
C121 C122 1_555 1_555
H11 C2 1_555 1_555
H12 C3 1_555 1_555
H13 C4 1_555 1_555
H14 C5 1_555 1_555
H15 C6 1_555 1_555
H16 C8 1_555 1_555
H17 C10 1_555 1_555
H18 C13 1_555 1_555
H19 C15 1_555 1_555
H20 C18 1_555 1_555
H21 C19 1_555 1_555
H22 C20 1_555 1_555
H23 C21 1_555 1_555
H24 C22 1_555 1_555
H25 C24 1_555 1_555
H26 C25 1_555 1_555
H27 C26 1_555 1_555
H28 C27 1_555 1_555
H29 C28 1_555 1_555
H30 C30 1_555 1_555
H31 C32 1_555 1_555
H32 C35 1_555 1_555
H33 C37 1_555 1_555
H34 C40 1_555 1_555
H35 C41 1_555 1_555
H36 C42 1_555 1_555
H37 C43 1_555 1_555
H38 C44 1_555 1_555
H39 C45 1_555 1_555
H40 C45 1_555 1_555
H41 C46 1_555 1_555
H42 C46 1_555 1_555
H43 C47 1_555 1_555
H44 C47 1_555 1_555
H45 C48 1_555 1_555
H46 C48 1_555 1_555
H47 C50 1_555 1_555
H48 C51 1_555 1_555
H49 C52 1_555 1_555
H50 C53 1_555 1_555
H51 C54 1_555 1_555
H52 C56 1_555 1_555
H53 C58 1_555 1_555
H54 C61 1_555 1_555
H55 C63 1_555 1_555
H56 C78 1_555 1_555
H57 C79 1_555 1_555
H58 C80 1_555 1_555
H59 C81 1_555 1_555
H60 C82 1_555 1_555
H61 C84 1_555 1_555
H62 C86 1_555 1_555
H63 C89 1_555 1_555
H64 C91 1_555 1_555
H65 C94 1_555 1_555
H66 C95 1_555 1_555
H67 C96 1_555 1_555
H68 C97 1_555 1_555
H69 C98 1_555 1_555
H70 C99 1_555 1_555
H71 C99 1_555 1_555
H72 C100 1_555 1_555
H73 C100 1_555 1_555
H74 C101 1_555 1_555
H75 C101 1_555 1_555
H76 C102 1_555 1_555
H77 C102 1_555 1_555
C1E C2E 1_555 1_555
C2E C3E 1_555 1_555
C3E C4E 1_555 1_555
C4E C5E 1_555 1_555
C5E C6E 1_555 1_555
C6E C1E 1_555 1_555
N1E C7E 1_555 1_555
C7E C8E 1_555 1_555
C8E C9E 1_555 1_555
C9E C10E 1_555 1_555
C10E C11E 1_555 1_555
C11E C1E 1_555 1_555
N2E C12E 1_555 1_555
C12E C7E 1_555 1_555
C13E C12E 1_555 1_555
C14E C13E 1_555 1_555
C15E C14E 1_555 1_555
C16E N2E 1_555 1_555
C17E C16E 1_555 1_555
C18E C17E 1_555 1_555
C19E C18E 1_555 1_555
C20E C19E 1_555 1_555
C21E C20E 1_555 1_555
C22E C17E 1_555 1_555
C23E C24E 1_555 1_555
C24E C25E 1_555 1_555
C25E C26E 1_555 1_555
C26E C27E 1_555 1_555
C27E C28E 1_555 1_555
C28E C23E 1_555 1_555
N3E Ag2 1_555 1_555
C29E N3E 1_555 1_555
C30E C29E 1_555 1_555
C31E C30E 1_555 1_555
C32E C31E 1_555 1_555
C33E C23E 1_555 1_555
N4E Ag2 1_555 1_555
C34E C29E 1_555 1_555
C35E C34E 1_555 1_555
C36E C35E 1_555 1_555
C37E C36E 1_555 1_555
C38E N4E 1_555 1_555
C39E C38E 1_555 1_555
C40E C39E 1_555 1_555
C41E C40E 1_555 1_555
C42E C41E 1_555 1_555
C43E C42E 1_555 1_555
C44E C39E 1_555 1_555
C45E C9E 1_555 1_555
C46E C31E 1_555 1_555
C47E C14E 1_555 1_555
C48E C36E 1_555 1_555
H11E C2E 1_555 1_555
H12E C3E 1_555 1_555
H13E C4E 1_555 1_555
H14E C5E 1_555 1_555
H15E C6E 1_555 1_555
H16E C8E 1_555 1_555
H17E C10E 1_555 1_555
H18E C13E 1_555 1_555
H19E C15E 1_555 1_555
H20E C18E 1_555 1_555
H21E C19E 1_555 1_555
H22E C20E 1_555 1_555
H23E C21E 1_555 1_555
H24E C22E 1_555 1_555
H25E C24E 1_555 1_555
H26E C25E 1_555 1_555
H27E C26E 1_555 1_555
H28E C27E 1_555 1_555
H29E C28E 1_555 1_555
H30E C30E 1_555 1_555
H31E C32E 1_555 1_555
H32E C35E 1_555 1_555
H33E C37E 1_555 1_555
H34E C40E 1_555 1_555
H35E C41E 1_555 1_555
H36E C42E 1_555 1_555
H37E C43E 1_555 1_555
H38E C44E 1_555 1_555
H39E C45E 1_555 1_555
H40E C45E 1_555 1_555
H41E C46E 1_555 1_555
H42E C46E 1_555 1_555
H43E C47E 1_555 1_555
H44E C47E 1_555 1_555
H45E C48E 1_555 1_555
H46E C48E 1_555 1_555
Ag1E N1E 1_555 1_555
C49E C50E 1_555 1_555
C50E C51E 1_555 1_555
C51E C52E 1_555 1_555
C52E C53E 1_555 1_555
C53E C54E 1_555 1_555
C54E C49E 1_555 1_555
N5E Ag1E 1_555 1_555
C55E N5E 1_555 1_555
C56E C55E 1_555 1_555
C57E C56E 1_555 1_555
C58E C57E 1_555 1_555
C59E C49E 1_555 1_555
N6E Ag1E 1_555 1_555
C60E C55E 1_555 1_555
C61E C60E 1_555 1_555
C62E C61E 1_555 1_555
C63E C62E 1_555 1_555
C64E N6E 1_555 1_555
C65E C64E 1_555 1_555
C66E C65E 1_555 1_555
C67E C66E 1_555 1_555
C68E C67E 1_555 1_555
C69E C68E 1_555 1_555
C70E C65E 1_555 1_555
H1E C66E 1_555 1_555
H2E C67E 1_555 1_555
H3E C68E 1_555 1_555
H4E C69E 1_555 1_555
H5E C70E 1_555 1_555
C77E C78E 1_555 1_555
C78E C79E 1_555 1_555
C79E C80E 1_555 1_555
C80E C81E 1_555 1_555
C81E C82E 1_555 1_555
C82E C77E 1_555 1_555
N7E C83E 1_555 1_555
C83E C84E 1_555 1_555
C84E C85E 1_555 1_555
C85E C86E 1_555 1_555
C86E C87E 1_555 1_555
C87E C77E 1_555 1_555
N8E C88E 1_555 1_555
C88E C83E 1_555 1_555
C89E C88E 1_555 1_555
C90E C89E 1_555 1_555
C91E C90E 1_555 1_555
C92E N8E 1_555 1_555
C93E C92E 1_555 1_555
C94E C93E 1_555 1_555
C95E C94E 1_555 1_555
C96E C95E 1_555 1_555
C97E C96E 1_555 1_555
C98E C93E 1_555 1_555
C99E C57E 1_555 1_555
C100E C85E 1_555 1_555
C101E C62E 1_555 1_555
C102E C90E 1_555 1_555
H47E C50E 1_555 1_555
H48E C51E 1_555 1_555
H49E C52E 1_555 1_555
H50E C53E 1_555 1_555
H51E C54E 1_555 1_555
H52E C56E 1_555 1_555
H53E C58E 1_555 1_555
H54E C61E 1_555 1_555
H55E C63E 1_555 1_555
H56E C78E 1_555 1_555
H57E C79E 1_555 1_555
H58E C80E 1_555 1_555
H59E C81E 1_555 1_555
H60E C82E 1_555 1_555
H61E C84E 1_555 1_555
H62E C86E 1_555 1_555
H63E C89E 1_555 1_555
H64E C91E 1_555 1_555
H65E C94E 1_555 1_555
H66E C95E 1_555 1_555
H67E C96E 1_555 1_555
H68E C97E 1_555 1_555
H69E C98E 1_555 1_555
H70E C99E 1_555 1_555
H71E C99E 1_555 1_555
H72E C100E 1_555 1_555
H73E C100E 1_555 1_555
H74E C101E 1_555 1_555
H75E C101E 1_555 1_555
H76E C102E 1_555 1_555
H77E C102E 1_555 1_555
N7E_2 Ag3 1_555 1_555
N8E_2 Ag3 1_555 1_555
Ag3_2 N7E 1_555 1_555
N1 C11 1_555 1_555
N2 C12 1_555 1_555
C15 C16 1_555 1_555
C21 C22 1_555 1_555
N3 C33 1_555 1_555
N4 C34 1_555 1_555
C37 C38 1_555 1_555
C43 C44 1_555 1_555
C45 C46 1_555 1_555
C47 C48 1_555 1_555
N5 C59 1_555 1_555
C58 C59 1_555 1_555
N6 C60 1_555 1_555
C63 C64 1_555 1_555
C69 C70 1_555 1_555
N7 C87 1_555 1_555
N8 C88 1_555 1_555
C91 C92 1_555 1_555
C97 C98 1_555 1_555
C99 C100 1_555 1_555
C101 C102 1_555 1_555
N1E C11E 1_555 1_555
N2E Ag1E 1_555 1_555
C15E C16E 1_555 1_555
C21E C22E 1_555 1_555
N3E C33E 1_555 1_555
C32E C33E 1_555 1_555
N4E C34E 1_555 1_555
C37E C38E 1_555 1_555
C43E C44E 1_555 1_555
C45E C46E 1_555 1_555
C47E C48E 1_555 1_555
N5E C59E 1_555 1_555
C58E C59E 1_555 1_555
N6E C60E 1_555 1_555
C63E C64E 1_555 1_555
C69E C70E 1_555 1_555
N7E C87E 1_555 1_555
N8E Ag3_2 1_555 1_555
C91E C92E 1_555 1_555
C97E C98E 1_555 1_555
C99E C100E 1_555 1_555
C101E C102E 1_555 1_555

#END
