
#######################################################################
#
#                 Cambridge Crystallographic Data Centre
#                                CCDC 
#
#######################################################################
#
# If this CIF has been generated from an entry in the Cambridge 
# Structural Database, then it will include bibliographic, chemical, 
# crystal, experimental, refinement or atomic coordinate data resulting 
# from the CCDC's data processing and validation procedures.
#
#######################################################################

data_NOBLUM01
_symmetry_cell_setting           orthorhombic
_symmetry_space_group_name_H-M   'P 21 21 21'
_symmetry_Int_Tables_number      19
_space_group_name_Hall           'P 2ac 2ab'
loop_
_symmetry_equiv_pos_site_id
_symmetry_equiv_pos_as_xyz
1 x,y,z
2 1/2-x,-y,1/2+z
3 1/2+x,1/2-y,-z
4 -x,1/2+y,1/2-z
_cell_length_a                   5.1539(3)
_cell_length_b                   10.2134(6)
_cell_length_c                   20.9765(14)
_cell_angle_alpha                90
_cell_angle_beta                 90
_cell_angle_gamma                90
_cell_volume                     1104.18
loop_
_atom_site_label
_atom_site_type_symbol
_atom_site_fract_x
_atom_site_fract_y
_atom_site_fract_z
Cd1 Cd -0.19784(5) 0.09849(2) 0.962519(12)
S1 S -0.4342(2) 0.51271(10) 0.76140(5)
O1 O -0.4023(5) 0.2321(3) 0.89189(13)
N1 N -0.0996(7) 0.5377(3) 0.66685(16)
C1 C -0.3202(8) 0.3253(3) 0.85759(15)
O2 O 0.1339(5) 0.2629(3) 0.95519(13)
H1 H 0.263(13) 0.236(6) 0.941(3)
H2 H 0.072(11) 0.300(5) 0.923(3)
S2 S -0.0797(2) 0.29853(9) 0.70375(5)
N2 N 0.0710(7) 0.4752(3) 0.62687(15)
O3 O -0.1056(5) 0.3795(3) 0.86163(13)
C2 C -0.5142(8) 0.3688(4) 0.80697(19)
H3 H -0.6795 0.3841 0.8278
H4 H -0.5386 0.2968 0.7774
S3 S 0.3222(2) 0.25066(9) 0.59858(4)
O4 O 0.1113(5) -0.0200(2) 0.47903(12)
C3 C -0.1982(8) 0.4572(3) 0.70872(16)
C4 C 0.1032(8) 0.3511(4) 0.63958(17)
O5 O 0.4806(5) 0.0379(3) 0.52607(13)
C5 C 0.2379(7) 0.0456(3) 0.51825(17)
C6 C 0.0924(8) 0.1425(4) 0.5601(2)
H5 H -0.0071 0.0957 0.5921
H6 H -0.0272 0.1932 0.5343
Cd1A Cd -0.30216(5) -0.09849(2) 0.462519(12)
Cd1A_2 Cd 0.69784(5) -0.09849(2) 0.462519(12)
Cd1B Cd 0.30216(5) 0.40151(2) 1.037481(12)
Cd1C Cd 0.19784(5) 0.59849(2) 0.537481(12)
O2B O -0.3661(5) 0.2371(3) 1.04481(13)
N2C N -0.0710(7) -0.0248(3) 0.87313(15)
O4A O -0.6113(5) 0.0200(2) 0.97903(12)
O5A O 0.0194(5) -0.0379(3) 1.02607(13)
loop_
_geom_bond_atom_site_label_1
_geom_bond_atom_site_label_2
_geom_bond_site_symmetry_1
_geom_bond_site_symmetry_2
Cd1 O1 1_555 1_555
S1 C2 1_555 1_555
O1 C1 1_555 1_555
N1 N2 1_555 1_555
C1 O3 1_555 1_555
O2 Cd1 1_555 1_555
H1 O2 1_555 1_555
H2 O2 1_555 1_555
S2 C3 1_555 1_555
N2 C4 1_555 1_555
C2 C1 1_555 1_555
H3 C2 1_555 1_555
H4 C2 1_555 1_555
S3 C4 1_555 1_555
O4 C5 1_555 1_555
C3 S1 1_555 1_555
C4 S2 1_555 1_555
O5 C5 1_555 1_555
C5 C6 1_555 1_555
C6 S3 1_555 1_555
H5 C6 1_555 1_555
H6 C6 1_555 1_555
Cd1A O4 1_555 1_555
Cd1A_2 O5 1_555 1_555
Cd1B O2 1_555 1_555
Cd1C N2 1_555 1_555
O2B Cd1 1_555 1_555
N2C Cd1 1_555 1_555
O4A Cd1 1_555 1_555
O5A Cd1 1_555 1_555
N1 C3 1_555 1_555

#END
