
#######################################################################
#
#                 Cambridge Crystallographic Data Centre
#                                CCDC 
#
#######################################################################
#
# If this CIF has been generated from an entry in the Cambridge 
# Structural Database, then it will include bibliographic, chemical, 
# crystal, experimental, refinement or atomic coordinate data resulting 
# from the CCDC's data processing and validation procedures.
#
#######################################################################

data_NOBLUM
_symmetry_cell_setting           orthorhombic
_symmetry_space_group_name_H-M   'P 21 21 21'
_symmetry_Int_Tables_number      19
_space_group_name_Hall           'P 2ac 2ab'
loop_
_symmetry_equiv_pos_site_id
_symmetry_equiv_pos_as_xyz
1 x,y,z
2 1/2-x,-y,1/2+z
3 -x,1/2+y,1/2-z
4 1/2+x,1/2-y,-z
_cell_length_a                   5.1461(6)
_cell_length_b                   10.1964(12)
_cell_length_c                   20.941(2)
_cell_angle_alpha                90
_cell_angle_beta                 90
_cell_angle_gamma                90
_cell_volume                     1098.81
loop_
_atom_site_label
_atom_site_type_symbol
_atom_site_fract_x
_atom_site_fract_y
_atom_site_fract_z
Cd1 Cd -0.19695(3) 0.598736(16) 0.037363(8)
S1 S -0.43390(15) 1.01266(7) 0.23864(3)
S2 S -0.08034(14) 0.79862(6) 0.29633(3)
S3 S 0.32169(14) 0.75032(6) 0.40140(3)
O1 O -0.4014(4) 0.73204(17) 0.10798(8)
O2 O 0.1353(3) 0.76286(16) 0.04488(8)
H1 H 0.0691 0.8018 0.0769
H2 H 0.2685 0.7293 0.0624
O3 O -0.1052(4) 0.8797(2) 0.13847(8)
O4 O 0.4798(3) 0.53801(17) 0.47390(9)
O5 O 0.1098(3) 0.48031(16) 0.52095(8)
N1 N -0.1000(5) 1.0371(2) 0.33313(10)
N2 N 0.0714(5) 0.9751(2) 0.37318(9)
C1 C -0.3189(5) 0.8253(2) 0.14245(10)
C2 C -0.5137(5) 0.8689(3) 0.19299(12)
H3 H -0.5387 0.7968 0.2226
H4 H -0.6789 0.8844 0.1720
C3 C -0.1988(5) 0.9570(2) 0.29139(10)
C4 C 0.1024(5) 0.8509(2) 0.36066(11)
C5 C 0.0911(5) 0.6422(3) 0.44012(13)
H5 H -0.0283 0.6931 0.4660
H6 H -0.0089 0.5952 0.4082
C6 C 0.2370(5) 0.5454(2) 0.48193(11)
Cd1C Cd 0.30305(3) 0.901264(16) -0.037363(8)
Cd1A Cd 0.69695(3) 0.401264(16) 0.537363(8)
Cd1A_2 Cd -0.30305(3) 0.401264(16) 0.537363(8)
Cd1B Cd 0.19695(3) 1.098736(16) 0.462637(8)
O2C O -0.3647(3) 0.73714(16) -0.04488(8)
H1C H -0.4309 0.6982 -0.0769
H2C H -0.2315 0.7707 -0.0624
O4A O 0.0202(3) 0.46199(17) -0.02610(9)
O5A O -0.6098(3) 0.51969(16) 0.02095(8)
N2B N -0.0714(5) 0.4751(2) 0.12682(9)
loop_
_geom_bond_atom_site_label_1
_geom_bond_atom_site_label_2
_geom_bond_site_symmetry_1
_geom_bond_site_symmetry_2
Cd1 O1 1_555 1_555
S1 C2 1_555 1_555
S2 C3 1_555 1_555
S3 C4 1_555 1_555
O1 C1 1_555 1_555
O2 Cd1 1_555 1_555
H1 O2 1_555 1_555
H2 O2 1_555 1_555
O3 C1 1_555 1_555
O4 C6 1_555 1_555
O5 C6 1_555 1_555
N1 N2 1_555 1_555
N2 C4 1_555 1_555
C1 C2 1_555 1_555
C2 H3 1_555 1_555
H4 C2 1_555 1_555
C3 S1 1_555 1_555
C4 S2 1_555 1_555
C5 S3 1_555 1_555
H5 C5 1_555 1_555
H6 C5 1_555 1_555
C6 C5 1_555 1_555
Cd1C O2 1_555 1_555
Cd1A O4 1_555 1_555
Cd1A_2 O5 1_555 1_555
Cd1B N2 1_555 1_555
O2C Cd1 1_555 1_555
H1C O2C 1_555 1_555
H2C O2C 1_555 1_555
O4A Cd1 1_555 1_555
O5A Cd1 1_555 1_555
N2B Cd1 1_555 1_555
N1 C3 1_555 1_555

#END
