
#######################################################################
#
#                 Cambridge Crystallographic Data Centre
#                                CCDC 
#
#######################################################################
#
# If this CIF has been generated from an entry in the Cambridge 
# Structural Database, then it will include bibliographic, chemical, 
# crystal, experimental, refinement or atomic coordinate data resulting 
# from the CCDC's data processing and validation procedures.
#
#######################################################################

data_NOBQAY01
_symmetry_cell_setting           monoclinic
_symmetry_space_group_name_H-M   'C 2/c'
_symmetry_Int_Tables_number      15
_space_group_name_Hall           '-C 2yn'
loop_
_symmetry_equiv_pos_site_id
_symmetry_equiv_pos_as_xyz
1 x,y,z
2 -x,y,1/2-z
3 1/2+x,1/2+y,z
4 1/2-x,1/2+y,1/2-z
5 -x,-y,-z
6 x,-y,1/2+z
7 1/2-x,1/2-y,-z
8 1/2+x,1/2-y,1/2+z
_cell_length_a                   14.5730(18)
_cell_length_b                   11.0366(12)
_cell_length_c                   21.694(3)
_cell_angle_alpha                90
_cell_angle_beta                 101.854(3)
_cell_angle_gamma                90
_cell_volume                     3414.77
loop_
_atom_site_label
_atom_site_type_symbol
_atom_site_fract_x
_atom_site_fract_y
_atom_site_fract_z
Au1 Au 0.01514(4) 1.43544(6) 0.07990(3)
Fe1 Fe 0.0000 1.0000 0.0000
Fe2 Fe 0.0000 0.7775(2) 0.2500
N1 N -0.1138(7) 1.0217(10) 0.0455(5)
N2 N 0.0638(8) 0.9612(10) 0.0905(5)
N3 N 0.1475(8) 0.9129(11) 0.1221(5)
N4 N 0.0432(7) 0.9081(9) 0.1870(5)
N5 N 0.1552(8) 0.7752(10) 0.2737(6)
N6 N 0.0191(9) 1.1832(14) 0.0146(6)
N7 N 0.0051(8) 1.6427(11) 0.1764(6)
C1 C -0.2006(11) 1.0654(15) 0.0198(9)
H1 H -0.2173 1.0769 -0.0235
C2 C -0.2644(11) 1.0930(16) 0.0571(10)
H2 H -0.3229 1.1244 0.0389
C3 C -0.2414(11) 1.0740(15) 0.1204(9)
H3 H -0.2849 1.0899 0.1453
C4 C -0.1535(11) 1.0314(13) 0.1475(8)
H4 H -0.1352 1.0212 0.1909
C5 C -0.0926(9) 1.0039(11) 0.1070(6)
C6 C 0.0042(9) 0.9552(10) 0.1310(6)
C7 C 0.1330(8) 0.8852(11) 0.1778(6)
C8 C 0.1982(9) 0.8247(12) 0.2304(7)
C9 C 0.2986(11) 0.8181(15) 0.2359(8)
C10 C 0.3474(11) 0.7591(15) 0.2897(9)
H5 H 0.4123 0.7531 0.2957
C11 C 0.3037(13) 0.7098(15) 0.3336(9)
H6 H 0.3370 0.6687 0.3686
C12 C 0.2074(11) 0.7238(13) 0.3238(8)
H7 H 0.1773 0.6950 0.3548
C13 C 0.3469(10) 0.8747(18) 0.1890(9)
H8 H 0.4129 0.8583 0.2004
H9 H 0.3368 0.9607 0.1883
H10 H 0.3221 0.8417 0.1480
C14 C 0.0187(12) 1.2792(16) 0.0335(8)
C15 C 0.0089(10) 1.5724(12) 0.1379(8)
N1A N 0.1138(7) 1.0217(10) 0.4545(5)
N2A N -0.0638(8) 0.9612(10) 0.4095(5)
N3A N -0.1475(8) 0.9129(11) 0.3779(5)
N4A N -0.0432(7) 0.9081(9) 0.3130(5)
N5A N -0.1552(8) 0.7752(10) 0.2263(6)
C1A C 0.2006(11) 1.0654(15) 0.4802(9)
H1A H 0.2173 1.0769 0.5235
C2A C 0.2644(11) 1.0930(16) 0.4429(10)
H2A H 0.3229 1.1244 0.4611
C3A C 0.2414(11) 1.0740(15) 0.3796(9)
H3A H 0.2849 1.0899 0.3547
C4A C 0.1535(11) 1.0314(13) 0.3525(8)
H4A H 0.1352 1.0212 0.3091
C5A C 0.0926(9) 1.0039(11) 0.3930(6)
C6A C -0.0042(9) 0.9552(10) 0.3690(6)
C7A C -0.1330(8) 0.8852(11) 0.3222(6)
C8A C -0.1982(9) 0.8247(12) 0.2696(7)
C9A C -0.2986(11) 0.8181(15) 0.2641(8)
C10A C -0.3474(11) 0.7591(15) 0.2103(9)
H5A H -0.4123 0.7531 0.2043
C11A C -0.3037(13) 0.7098(15) 0.1664(9)
H6A H -0.3370 0.6687 0.1314
C12A C -0.2074(11) 0.7238(13) 0.1762(8)
H7A H -0.1773 0.6950 0.1452
C13A C -0.3469(10) 0.8747(18) 0.3110(9)
H8A H -0.4129 0.8583 0.2996
H9A H -0.3368 0.9607 0.3117
H10A H -0.3221 0.8417 0.3520
Au1D Au -0.01514(4) 0.56456(6) -0.07990(3)
N6D N -0.0191(9) 0.8168(14) -0.0146(6)
N7D N -0.0051(8) 0.3573(11) -0.1764(6)
C14D C -0.0187(12) 0.7208(16) -0.0335(8)
C15D C -0.0089(10) 0.4276(12) -0.1379(8)
Fe1A Fe 0.0000 1.0000 0.5000
Fe2_2 Fe 0.0000 1.7775(2) 0.2500
Fe2D Fe 0.0000 0.2225(2) -0.2500
N1D N 0.1138(7) 0.9783(10) -0.0455(5)
N2D N -0.0638(8) 1.0388(10) -0.0905(5)
N7_2 N 0.0051(8) 0.6427(11) 0.1764(6)
N7A N -0.0051(8) 0.6427(11) 0.3236(6)
loop_
_geom_bond_atom_site_label_1
_geom_bond_atom_site_label_2
_geom_bond_site_symmetry_1
_geom_bond_site_symmetry_2
Au1 C14 1_555 1_555
Fe1 N1 1_555 1_555
Fe2 N4 1_555 1_555
N1 C1 1_555 1_555
N2 Fe1 1_555 1_555
N3 N2 1_555 1_555
N4 C6 1_555 1_555
N5 Fe2 1_555 1_555
N6 Fe1 1_555 1_555
N7 C15 1_555 1_555
C1 H1 1_555 1_555
C2 C1 1_555 1_555
H2 C2 1_555 1_555
C3 C2 1_555 1_555
H3 C3 1_555 1_555
C4 C3 1_555 1_555
H4 C4 1_555 1_555
C5 N1 1_555 1_555
C6 N2 1_555 1_555
C7 N3 1_555 1_555
C8 N5 1_555 1_555
C9 C8 1_555 1_555
C10 C9 1_555 1_555
H5 C10 1_555 1_555
C11 C10 1_555 1_555
H6 C11 1_555 1_555
C12 N5 1_555 1_555
H7 C12 1_555 1_555
C13 C9 1_555 1_555
H8 C13 1_555 1_555
H9 C13 1_555 1_555
H10 C13 1_555 1_555
C14 N6 1_555 1_555
C15 Au1 1_555 1_555
N1A C1A 1_555 1_555
N2A N3A 1_555 1_555
N3A C7A 1_555 1_555
N4A Fe2 1_555 1_555
N5A Fe2 1_555 1_555
C1A H1A 1_555 1_555
C2A C1A 1_555 1_555
H2A C2A 1_555 1_555
C3A C2A 1_555 1_555
H3A C3A 1_555 1_555
C4A C3A 1_555 1_555
H4A C4A 1_555 1_555
C5A N1A 1_555 1_555
C6A N2A 1_555 1_555
C7A N4A 1_555 1_555
C8A N5A 1_555 1_555
C9A C8A 1_555 1_555
C10A C9A 1_555 1_555
H5A C10A 1_555 1_555
C11A C10A 1_555 1_555
H6A C11A 1_555 1_555
C12A N5A 1_555 1_555
H7A C12A 1_555 1_555
C13A C9A 1_555 1_555
H8A C13A 1_555 1_555
H9A C13A 1_555 1_555
H10A C13A 1_555 1_555
Au1D C14D 1_555 1_555
N6D Fe1 1_555 1_555
N7D C15D 1_555 1_555
C14D N6D 1_555 1_555
C15D Au1D 1_555 1_555
Fe1A N1A 1_555 1_555
Fe2_2 N7 1_555 1_555
Fe2D N7D 1_555 1_555
N1D Fe1 1_555 1_555
N2D Fe1 1_555 1_555
N7_2 Fe2 1_555 1_555
N7A Fe2 1_555 1_555
N4 C7 1_555 1_555
C4 C5 1_555 1_555
C5 C6 1_555 1_555
C7 C8 1_555 1_555
C11 C12 1_555 1_555
N2A Fe1A 1_555 1_555
N4A C6A 1_555 1_555
C4A C5A 1_555 1_555
C5A C6A 1_555 1_555
C7A C8A 1_555 1_555
C11A C12A 1_555 1_555

#END
