
#######################################################################
#
#                 Cambridge Crystallographic Data Centre
#                                CCDC 
#
#######################################################################
#
# If this CIF has been generated from an entry in the Cambridge 
# Structural Database, then it will include bibliographic, chemical, 
# crystal, experimental, refinement or atomic coordinate data resulting 
# from the CCDC's data processing and validation procedures.
#
#######################################################################

data_NOBQEB
_symmetry_cell_setting           monoclinic
_symmetry_space_group_name_H-M   'P 21/n'
_symmetry_Int_Tables_number      14
_space_group_name_Hall           '-P 2yn'
loop_
_symmetry_equiv_pos_site_id
_symmetry_equiv_pos_as_xyz
1 x,y,z
2 1/2-x,1/2+y,1/2-z
3 -x,-y,-z
4 1/2+x,1/2-y,1/2+z
_cell_length_a                   10.8620(3)
_cell_length_b                   12.3064(5)
_cell_length_c                   12.4436(4)
_cell_angle_alpha                90
_cell_angle_beta                 96.024(2)
_cell_angle_gamma                90
_cell_volume                     1654.18
loop_
_atom_site_label
_atom_site_type_symbol
_atom_site_fract_x
_atom_site_fract_y
_atom_site_fract_z
K1 K 0.62706(4) 0.00429(4) 0.41550(4)
F1 F 0.54346(19) 0.20091(17) 0.50223(15)
F2 F 0.21724(18) 0.1841(2) 0.22495(18)
O1 O 0.72588(16) 0.12294(14) 0.24964(15)
O2 O 0.82395(16) 0.32509(13) 0.19364(15)
O3 O 0.87099(15) 0.01106(15) 0.48324(15)
N1 N 0.3813(2) 0.07419(19) 0.37461(19)
C1 C 0.3782(2) 0.1834(2) 0.3637(2)
C2 C 0.4590(3) 0.2516(2) 0.4271(2)
C3 C 0.4678(4) 0.3662(3) 0.4198(4)
H1 H 0.5255 0.4081 0.4651
C4 C 0.3817(5) 0.4129(3) 0.3378(4)
H2 H 0.3815 0.4894 0.3279
C5 C 0.2987(4) 0.3501(3) 0.2725(4)
H3 H 0.2430 0.3828 0.2179
C6 C 0.2985(3) 0.2430(3) 0.2877(3)
C7 C 0.8369(2) 0.1303(2) 0.1978(2)
H4 H 0.8164 0.1250 0.1186
H5 H 0.8921 0.0688 0.2213
C8 C 0.9029(2) 0.2349(2) 0.2246(2)
H6 H 0.9287 0.2382 0.3032
H7 H 0.9782 0.2388 0.1863
C9 C 0.7135(2) 0.3176(2) 0.2452(2)
H8 H 0.6585 0.3795 0.2225
H9 H 0.7340 0.3218 0.3245
C10 C 0.6477(2) 0.2132(2) 0.2165(2)
H10 H 0.5709 0.2094 0.2527
H11 H 0.6245 0.2100 0.1375
C11 C 0.9485(2) 0.1024(2) 0.5094(2)
H12 H 0.9587 0.1130 0.5887
H13 H 0.9094 0.1685 0.4758
C12 C 0.9268(2) -0.0854(2) 0.5304(2)
H14 H 0.9363 -0.0787 0.6101
H15 H 0.8729 -0.1487 0.5105
H20 H 0.340(4) 0.057(4) 0.338(4)
K1B K 0.37294(4) -0.00429(4) 0.58450(4)
K1A K 0.87294(4) 0.50429(4) 0.08450(4)
K1B_2 K 1.37294(4) -0.00429(4) 0.58450(4)
K1A_2 K 0.87294(4) -0.49571(4) 0.08450(4)
F1B F 0.45654(19) -0.20091(17) 0.49777(15)
F2B F 0.78276(18) -0.1841(2) 0.77505(18)
O1A O 0.77412(16) -0.37706(14) 0.25036(15)
O1B O 0.27412(16) -0.12294(14) 0.75036(15)
O2A O 0.67605(16) -0.17491(13) 0.30636(15)
O2C O 0.32395(16) 0.17491(13) 0.69364(15)
O3B O 1.12901(15) -0.01106(15) 0.51676(15)
O3B_2 O 0.12901(15) -0.01106(15) 0.51676(15)
N1B N 0.6187(2) -0.07419(19) 0.62539(19)
C1B C 0.6218(2) -0.1834(2) 0.6363(2)
C2B C 0.5410(3) -0.2516(2) 0.5729(2)
C3B C 0.5322(4) -0.3662(3) 0.5802(4)
H1B H 0.4745 -0.4081 0.5349
C4B C 0.6183(5) -0.4129(3) 0.6622(4)
H2B H 0.6185 -0.4894 0.6721
C5B C 0.7013(4) -0.3501(3) 0.7275(4)
H3B H 0.7570 -0.3828 0.7821
C6B C 0.7015(3) -0.2430(3) 0.7123(3)
C7A C 0.6631(2) -0.3697(2) 0.3022(2)
H4A H 0.6836 -0.3750 0.3814
H5A H 0.6079 -0.4312 0.2787
C8A C 0.5971(2) -0.2651(2) 0.2754(2)
H6A H 0.5713 -0.2618 0.1968
H7A H 0.5218 -0.2612 0.3137
C9A C 0.7865(2) -0.1824(2) 0.2548(2)
H8A H 0.8415 -0.1205 0.2775
H9A H 0.7660 -0.1782 0.1755
C10A C 0.8523(2) -0.2868(2) 0.2835(2)
H10A H 0.9291 -0.2906 0.2473
H11A H 0.8755 -0.2900 0.3625
C11B C 1.0515(2) -0.1024(2) 0.4906(2)
H12B H 1.0413 -0.1130 0.4113
H13B H 1.0906 -0.1685 0.5242
C12B C 1.0732(2) 0.0854(2) 0.4696(2)
H14B H 1.0637 0.0787 0.3899
H15B H 1.1271 0.1487 0.4895
H20B H 0.660(4) -0.057(4) 0.662(4)
O4 O 0.47932(18) 0.11198(16) -0.02157(16)
C13 C 0.4004(3) 0.0506(3) 0.0385(3)
H16 H 0.3301 0.0223 -0.0108
H17 H 0.3664 0.0982 0.0923
C14 C 0.5319(3) 0.0425(3) -0.0954(3)
H18 H 0.4655 0.0139 -0.1484
H19 H 0.5900 0.0846 -0.1354
O4B O 0.52068(18) -0.11198(16) 0.02157(16)
C13B C 0.5996(3) -0.0506(3) -0.0385(3)
H16B H 0.6699 -0.0223 0.0108
H17B H 0.6336 -0.0982 -0.0923
C14B C 0.4681(3) -0.0425(3) 0.0954(3)
H18B H 0.5345 -0.0139 0.1484
H19B H 0.4100 -0.0846 0.1354
loop_
_geom_bond_atom_site_label_1
_geom_bond_atom_site_label_2
_geom_bond_site_symmetry_1
_geom_bond_site_symmetry_2
K1 F1 1_555 1_555
F1 C2 1_555 1_555
F2 C6 1_555 1_555
O1 K1 1_555 1_555
O2 C8 1_555 1_555
O3 K1 1_555 1_555
N1 K1 1_555 1_555
C1 N1 1_555 1_555
C2 C1 1_555 1_555
C3 C2 1_555 1_555
H1 C3 1_555 1_555
C4 C3 1_555 1_555
H2 C4 1_555 1_555
C5 C4 1_555 1_555
H3 C5 1_555 1_555
C6 C1 1_555 1_555
C7 O1 1_555 1_555
H4 C7 1_555 1_555
H5 C7 1_555 1_555
C8 C7 1_555 1_555
H6 C8 1_555 1_555
H7 C8 1_555 1_555
C9 O2 1_555 1_555
H8 C9 1_555 1_555
H9 C9 1_555 1_555
C10 O1 1_555 1_555
H10 C10 1_555 1_555
H11 C10 1_555 1_555
C11 O3 1_555 1_555
H12 C11 1_555 1_555
H13 C11 1_555 1_555
C12 O3 1_555 1_555
H14 C12 1_555 1_555
H15 C12 1_555 1_555
O4 C13 1_555 1_555
C13 H16 1_555 1_555
H17 C13 1_555 1_555
C14 O4 1_555 1_555
H18 C14 1_555 1_555
H19 C14 1_555 1_555
H20 N1 1_555 1_555
K1B F1 1_555 1_555
K1A O2 1_555 1_555
K1B_2 O3B 1_555 1_555
K1A_2 O1A 1_555 1_555
F1B K1 1_555 1_555
F2B C6B 1_555 1_555
O1A C7A 1_555 1_555
O1B K1B 1_555 1_555
O2A K1 1_555 1_555
O2C K1B 1_555 1_555
O3B C11B 1_555 1_555
O3B_2 K1B 1_555 1_555
N1B K1 1_555 1_555
C1B N1B 1_555 1_555
C2B F1B 1_555 1_555
C3B C2B 1_555 1_555
H1B C3B 1_555 1_555
C4B C3B 1_555 1_555
H2B C4B 1_555 1_555
C5B C4B 1_555 1_555
H3B C5B 1_555 1_555
C6B C1B 1_555 1_555
C7A H4A 1_555 1_555
H5A C7A 1_555 1_555
C8A O2A 1_555 1_555
H6A C8A 1_555 1_555
H7A C8A 1_555 1_555
C9A O2A 1_555 1_555
H8A C9A 1_555 1_555
H9A C9A 1_555 1_555
C10A O1A 1_555 1_555
H10A C10A 1_555 1_555
H11A C10A 1_555 1_555
C11B C12 1_555 1_555
H12B C11B 1_555 1_555
H13B C11B 1_555 1_555
C12B C11 1_555 1_555
H14B C12B 1_555 1_555
H15B C12B 1_555 1_555
O4B C13B 1_555 1_555
C13B C14 1_555 1_555
H16B C13B 1_555 1_555
H17B C13B 1_555 1_555
C14B C13 1_555 1_555
H18B C14B 1_555 1_555
H19B C14B 1_555 1_555
H20B N1B 1_555 1_555
N1 K1B 1_555 1_555
C5 C6 1_555 1_555
C9 C10 1_555 1_555
K1B F1B 1_555 1_555
K1B N1B 1_555 1_555
O3B C12B 1_555 1_555
C1B C2B 1_555 1_555
C5B C6B 1_555 1_555
C7A C8A 1_555 1_555
C9A C10A 1_555 1_555
O4B C14B 1_555 1_555

#END
