
#######################################################################
#
#                 Cambridge Crystallographic Data Centre
#                                CCDC 
#
#######################################################################
#
# If this CIF has been generated from an entry in the Cambridge 
# Structural Database, then it will include bibliographic, chemical, 
# crystal, experimental, refinement or atomic coordinate data resulting 
# from the CCDC's data processing and validation procedures.
#
#######################################################################

data_NOBRUT
_symmetry_cell_setting           monoclinic
_symmetry_space_group_name_H-M   'P 21/c'
_symmetry_Int_Tables_number      14
_space_group_name_Hall           '-P 2ybc'
loop_
_symmetry_equiv_pos_site_id
_symmetry_equiv_pos_as_xyz
1 x,y,z
2 -x,1/2+y,1/2-z
3 -x,-y,-z
4 x,1/2-y,1/2+z
_cell_length_a                   9.1819(6)
_cell_length_b                   12.0719(7)
_cell_length_c                   9.7282(5)
_cell_angle_alpha                90
_cell_angle_beta                 100.258(6)
_cell_angle_gamma                90
_cell_volume                     1061.07
loop_
_atom_site_label
_atom_site_type_symbol
_atom_site_fract_x
_atom_site_fract_y
_atom_site_fract_z
Ni1 Ni 0.0000 0.0000 0.0000
Fe1 Fe 0.0000 0.0000 0.5000
C1 C 0.1193(4) -0.1167(3) -0.0383(3)
N1 N 0.1909(3) -0.1879(3) -0.0665(3)
N2 N 0.1797(3) 0.1076(2) 0.4821(3)
C2 C 0.3100(3) 0.0772(2) 0.5640(3)
C3 C 0.4385(3) 0.1444(3) 0.5788(3)
C4 C 0.4309(4) 0.2405(3) 0.4958(3)
H1 H 0.5142 0.2848 0.4981
C5 C 0.1769(4) 0.1995(3) 0.4096(4)
H2 H 0.0882 0.2203 0.3536
C6 C 0.3010(4) 0.2681(3) 0.4124(4)
H3 H 0.2943 0.3317 0.3577
C7 C 0.3154(3) -0.0251(2) 0.6369(3)
C8 C 0.5644(4) 0.0153(3) 0.7473(4)
H4 H 0.6479 -0.0048 0.8113
C9 C 0.4397(4) -0.0527(3) 0.7283(3)
H5 H 0.4418 -0.1182 0.779
C10 C 0.5652(4) 0.1110(3) 0.6729(4)
H6 H 0.6502 0.1545 0.6844
N3 N 0.1855(3) -0.0949(2) 0.6071(2)
H7 H 0.1642 -0.1221 0.6873
H8 H 0.2033 -0.1523 0.5534
N4 N 0.0204(3) -0.0649(2) 0.3003(3)
C11 C 0.0148(3) -0.0453(3) 0.1849(3)
C1B C -0.1193(4) 0.1167(3) 0.0383(3)
N1B N -0.1909(3) 0.1879(3) 0.0665(3)
N4B N -0.0204(3) 0.0649(2) -0.3003(3)
C11B C -0.0148(3) 0.0453(3) -0.1849(3)
N2B N -0.1797(3) -0.1076(2) 0.5179(3)
C2B C -0.3100(3) -0.0772(2) 0.4360(3)
C3B C -0.4385(3) -0.1444(3) 0.4212(3)
C4B C -0.4309(4) -0.2405(3) 0.5042(3)
H1B H -0.5142 -0.2848 0.5019
C5B C -0.1769(4) -0.1995(3) 0.5904(4)
H2B H -0.0882 -0.2203 0.6464
C6B C -0.3010(4) -0.2681(3) 0.5876(4)
H3B H -0.2943 -0.3317 0.6423
C7B C -0.3154(3) 0.0251(2) 0.3631(3)
C8B C -0.5644(4) -0.0153(3) 0.2527(4)
H4B H -0.6479 0.0048 0.1887
C9B C -0.4397(4) 0.0527(3) 0.2717(3)
H5B H -0.4418 0.1182 0.221
C10B C -0.5652(4) -0.1110(3) 0.3271(4)
H6B H -0.6502 -0.1545 0.3156
N3B N -0.1855(3) 0.0949(2) 0.3929(2)
H7B H -0.1642 0.1221 0.3127
H8B H -0.2033 0.1523 0.4466
Fe1_2 Fe 0.0000 0.0000 -0.5000
N4B_2 N -0.0204(3) 0.0649(2) 0.6997(3)
loop_
_geom_bond_atom_site_label_1
_geom_bond_atom_site_label_2
_geom_bond_site_symmetry_1
_geom_bond_site_symmetry_2
Ni1 C1 1_555 1_555
Fe1 N2 1_555 1_555
C1 N1 1_555 1_555
N2 C2 1_555 1_555
C2 C3 1_555 1_555
C3 C4 1_555 1_555
C4 H1 1_555 1_555
C5 N2 1_555 1_555
H2 C5 1_555 1_555
C6 C4 1_555 1_555
H3 C6 1_555 1_555
C7 C2 1_555 1_555
C8 H4 1_555 1_555
C9 C7 1_555 1_555
H5 C9 1_555 1_555
C10 C3 1_555 1_555
H6 C10 1_555 1_555
N3 Fe1 1_555 1_555
H7 N3 1_555 1_555
H8 N3 1_555 1_555
N4 Fe1 1_555 1_555
C11 Ni1 1_555 1_555
C1B Ni1 1_555 1_555
N1B C1B 1_555 1_555
N4B C11B 1_555 1_555
C11B Ni1 1_555 1_555
N2B Fe1 1_555 1_555
C2B N2B 1_555 1_555
C3B C2B 1_555 1_555
C4B C3B 1_555 1_555
H1B C4B 1_555 1_555
C5B N2B 1_555 1_555
H2B C5B 1_555 1_555
C6B C4B 1_555 1_555
H3B C6B 1_555 1_555
C7B C2B 1_555 1_555
C8B H4B 1_555 1_555
C9B C7B 1_555 1_555
H5B C9B 1_555 1_555
C10B C3B 1_555 1_555
H6B C10B 1_555 1_555
N3B Fe1 1_555 1_555
H7B N3B 1_555 1_555
H8B N3B 1_555 1_555
Fe1_2 N4B 1_555 1_555
N4B_2 Fe1 1_555 1_555
C5 C6 1_555 1_555
C7 N3 1_555 1_555
C8 C9 1_555 1_555
C8 C10 1_555 1_555
N4 C11 1_555 1_555
C5B C6B 1_555 1_555
C7B N3B 1_555 1_555
C8B C9B 1_555 1_555
C8B C10B 1_555 1_555

#END
