
#######################################################################
#
#                 Cambridge Crystallographic Data Centre
#                                CCDC 
#
#######################################################################
#
# If this CIF has been generated from an entry in the Cambridge 
# Structural Database, then it will include bibliographic, chemical, 
# crystal, experimental, refinement or atomic coordinate data resulting 
# from the CCDC's data processing and validation procedures.
#
#######################################################################

data_NOBREC
_symmetry_cell_setting           triclinic
_symmetry_space_group_name_H-M   'P -1'
_symmetry_Int_Tables_number      2
_space_group_name_Hall           '-P 1'
loop_
_symmetry_equiv_pos_site_id
_symmetry_equiv_pos_as_xyz
1 x,y,z
2 -x,-y,-z
_cell_length_a                   8.3978(3)
_cell_length_b                   11.0772(4)
_cell_length_c                   11.9910(4)
_cell_angle_alpha                103.658(2)
_cell_angle_beta                 93.466(2)
_cell_angle_gamma                95.221(2)
_cell_volume                     1075.54
loop_
_atom_site_label
_atom_site_type_symbol
_atom_site_fract_x
_atom_site_fract_y
_atom_site_fract_z
Ba1 Ba 0.25712(2) 0.56580(2) 0.511940(18)
F1 F 0.1185(4) 0.4926(3) 0.7051(2)
F2 F -0.1859(4) 0.8320(3) 0.7406(3)
F3 F 0.7903(3) 0.8313(3) 0.4195(3)
F4 F 0.3799(3) 0.5005(3) 0.2897(2)
O1 O 0.2182(4) 0.7492(3) 0.3915(3)
O2 O 0.3466(4) 0.7558(4) 0.7103(3)
N1 N -0.0316(4) 0.6445(3) 0.5973(3)
N2 N 0.5729(4) 0.6448(3) 0.4706(3)
C1 C -0.0361(4) 0.6593(4) 0.7137(3)
C2 C 0.0370(5) 0.5821(4) 0.7716(4)
C3 C 0.0377(7) 0.5877(5) 0.8878(4)
H1 H 0.0896 0.5297 0.9202
C4 C -0.0386(7) 0.6794(6) 0.9556(4)
H2 H -0.0405 0.6851 1.0358
C5 C -0.1129(6) 0.7637(5) 0.9065(4)
H3 H -0.1637 0.8289 0.9523
C6 C -0.1107(5) 0.7500(4) 0.7893(4)
C7 C 0.5883(4) 0.6638(4) 0.3654(4)
C8 C 0.6936(5) 0.7526(4) 0.3316(4)
C9 C 0.7052(6) 0.7658(5) 0.2213(5)
H4 H 0.7795 0.8292 0.2069
C10 C 0.6089(7) 0.6870(6) 0.1314(5)
H5 H 0.6178 0.6943 0.0546
C11 C 0.4985(6) 0.5966(5) 0.1545(4)
H6 H 0.4297 0.5415 0.0945
C12 C 0.4922(5) 0.5895(4) 0.2673(4)
C13 C 0.2985(9) 0.8719(5) 0.4357(5)
H7 H 0.4038 0.8684 0.4758
H8 H 0.2334 0.9232 0.4908
C14 C 0.3201(7) 0.9268(6) 0.3340(6)
H9 H 0.3208 1.0188 0.3557
H10 H 0.4207 0.9054 0.2988
C15 C 0.1818(11) 0.8685(7) 0.2577(7)
H11 H 0.2051 0.8617 0.1766
H12 H 0.0903 0.9185 0.2738
C16 C 0.1426(6) 0.7419(5) 0.2779(5)
H13 H 0.0250 0.7213 0.2754
H14 H 0.1859 0.6775 0.2191
C17 C 0.4327(8) 0.7375(7) 0.8104(6)
H15 H 0.5435 0.7196 0.7942
H16 H 0.3785 0.6668 0.8361
C18 C 0.4341(12) 0.8557(8) 0.8993(6)
H17 H 0.4229 0.8384 0.9760
H18 H 0.5361 0.9092 0.9026
C19 C 0.3021(8) 0.9166(6) 0.8679(5)
H19 H 0.3245 1.0085 0.8957
H20 H 0.2029 0.8884 0.8993
C20 C 0.2876(8) 0.8771(5) 0.7378(5)
H21 H 0.1745 0.8715 0.7068
H22 H 0.3532 0.9373 0.7054
H23 H 0.630(8) 0.704(7) 0.520(6)
H24 H -0.049(8) 0.723(7) 0.582(6)
Ba1A Ba -0.25712(2) 0.43420(2) 0.488060(18)
Ba1A_2 Ba 0.74288(2) 0.43420(2) 0.488060(18)
N1A N 0.0316(4) 0.3555(3) 0.4027(3)
N2A N 0.4271(4) 0.3552(3) 0.5294(3)
H23A H 0.370(8) 0.296(7) 0.480(6)
H24A H 0.049(8) 0.277(7) 0.418(6)
loop_
_geom_bond_atom_site_label_1
_geom_bond_atom_site_label_2
_geom_bond_site_symmetry_1
_geom_bond_site_symmetry_2
Ba1 F1 1_555 1_555
F1 C2 1_555 1_555
F2 C6 1_555 1_555
F3 C8 1_555 1_555
F4 Ba1 1_555 1_555
O1 Ba1 1_555 1_555
O2 Ba1 1_555 1_555
N1 Ba1 1_555 1_555
N2 Ba1 1_555 1_555
C1 N1 1_555 1_555
C2 C1 1_555 1_555
C3 C2 1_555 1_555
H1 C3 1_555 1_555
C4 C3 1_555 1_555
H2 C4 1_555 1_555
C5 C4 1_555 1_555
H3 C5 1_555 1_555
C6 C1 1_555 1_555
C7 N2 1_555 1_555
C8 C7 1_555 1_555
C9 C8 1_555 1_555
H4 C9 1_555 1_555
C10 C9 1_555 1_555
H5 C10 1_555 1_555
C11 C10 1_555 1_555
H6 C11 1_555 1_555
C12 F4 1_555 1_555
C13 O1 1_555 1_555
H7 C13 1_555 1_555
H8 C13 1_555 1_555
C14 C13 1_555 1_555
H9 C14 1_555 1_555
H10 C14 1_555 1_555
C15 C14 1_555 1_555
H11 C15 1_555 1_555
H12 C15 1_555 1_555
C16 O1 1_555 1_555
H13 C16 1_555 1_555
H14 C16 1_555 1_555
C17 O2 1_555 1_555
H15 C17 1_555 1_555
H16 C17 1_555 1_555
C18 C17 1_555 1_555
H17 C18 1_555 1_555
H18 C18 1_555 1_555
C19 C18 1_555 1_555
H19 C19 1_555 1_555
H20 C19 1_555 1_555
C20 O2 1_555 1_555
H21 C20 1_555 1_555
H22 C20 1_555 1_555
H23 N2 1_555 1_555
H24 N1 1_555 1_555
Ba1A N1 1_555 1_555
Ba1A_2 N2 1_555 1_555
N1A Ba1 1_555 1_555
N2A Ba1 1_555 1_555
H23A N2A 1_555 1_555
H24A N1A 1_555 1_555
C5 C6 1_555 1_555
C7 C12 1_555 1_555
C11 C12 1_555 1_555
C15 C16 1_555 1_555
C19 C20 1_555 1_555
Ba1A N1A 1_555 1_555
Ba1A_2 N2A 1_555 1_555

#END
