
#######################################################################
#
#                 Cambridge Crystallographic Data Centre
#                                CCDC 
#
#######################################################################
#
# If this CIF has been generated from an entry in the Cambridge 
# Structural Database, then it will include bibliographic, chemical, 
# crystal, experimental, refinement or atomic coordinate data resulting 
# from the CCDC's data processing and validation procedures.
#
#######################################################################

data_NOBTEF
_symmetry_cell_setting           monoclinic
_symmetry_space_group_name_H-M   'P 21'
_symmetry_Int_Tables_number      4
_space_group_name_Hall           'P 2yb'
loop_
_symmetry_equiv_pos_site_id
_symmetry_equiv_pos_as_xyz
1 x,y,z
2 -x,1/2+y,-z
_cell_length_a                   9.6920(4)
_cell_length_b                   7.0490(3)
_cell_length_c                   13.2777(6)
_cell_angle_alpha                90
_cell_angle_beta                 106.199(5)
_cell_angle_gamma                90
_cell_volume                     871.104
loop_
_atom_site_label
_atom_site_type_symbol
_atom_site_fract_x
_atom_site_fract_y
_atom_site_fract_z
Cu1 Cu 0.02721(4) 0.44317(8) 0.39861(3)
Cl1 Cl 0.07525(10) 0.4451(3) 0.24006(7)
Cl2 Cl -0.01943(9) 0.54862(17) 0.55067(7)
Cl3 Cl -0.80893(11) 0.4729(2) -0.19006(8)
Cl4 Cl 0.87363(11) 0.3397(2) 0.97938(9)
N1 N 0.2386(3) 0.4465(7) 0.46982(19)
N2 N 0.4467(3) 0.4413(7) 0.58589(19)
N3 N -0.1819(3) 0.4311(6) 0.32654(19)
N4 N -0.3878(3) 0.4134(5) 0.2095(2)
N5 N -0.4154(3) 0.3580(5) 0.3001(2)
C1 C 0.5604(3) 0.4172(6) 0.6791(3)
C2 C 0.6949(4) 0.4960(6) 0.6873(3)
H1 H 0.7141 0.5622 0.6322
N6 N -0.4622(3) 0.5032(4) 0.0370(2)
C3 C -0.4994(3) 0.4232(7) 0.1141(3)
C4 C -0.6890(3) 0.4477(8) -0.0666(2)
N7 N 0.5277(3) 0.3159(5) 0.7512(2)
C5 C -0.2498(3) 0.4542(8) 0.2261(2)
H2 H -0.2072 0.4930 0.1748
N8 N 0.6284(3) 0.2920(5) 0.8442(3)
C6 C 0.3463(4) 0.5076(6) 0.4300(3)
H3 H 0.3301 0.5463 0.3607
N9 N -0.5613(3) 0.5199(5) -0.0572(2)
C7 C -0.2892(4) 0.3732(6) 0.3684(3)
H4 H -0.2736 0.3471 0.4394
C8 C 0.7552(4) 0.3680(6) 0.8559(3)
C9 C 0.3071(4) 0.4028(6) 0.5680(3)
H5 H 0.2645 0.3530 0.6169
N10 N 0.4734(3) 0.5073(5) 0.4967(2)
C10 C -0.7332(4) 0.3632(6) 0.0137(3)
H6 H -0.8261 0.3170 0.0027
C11 C 0.7960(4) 0.4708(7) 0.7798(3)
H7 H 0.8882 0.5200 0.7919
C12 C -0.6348(4) 0.3509(6) 0.1090(3)
H8 H -0.6564 0.2977 0.1669
Cu1A Cu -0.02721(4) 0.94317(8) 0.60139(3)
Cl2A Cl 0.01943(9) 0.04862(17) 0.44933(7)
loop_
_geom_bond_atom_site_label_1
_geom_bond_atom_site_label_2
_geom_bond_site_symmetry_1
_geom_bond_site_symmetry_2
Cu1 Cl1 1_555 1_555
Cl2 Cu1 1_555 1_555
Cl3 C4 1_555 1_555
Cl4 C8 1_555 1_555
N1 Cu1 1_555 1_555
N2 C1 1_555 1_555
N3 Cu1 1_555 1_555
N4 N5 1_555 1_555
N5 C7 1_555 1_555
C1 C2 1_555 1_555
C2 H1 1_555 1_555
N6 C3 1_555 1_555
C3 N4 1_555 1_555
C4 N9 1_555 1_555
N7 C1 1_555 1_555
C5 N3 1_555 1_555
H2 C5 1_555 1_555
N8 N7 1_555 1_555
C6 N1 1_555 1_555
H3 C6 1_555 1_555
N9 N6 1_555 1_555
C7 N3 1_555 1_555
H4 C7 1_555 1_555
C8 N8 1_555 1_555
C9 N1 1_555 1_555
H5 C9 1_555 1_555
N10 N2 1_555 1_555
C10 C4 1_555 1_555
H6 C10 1_555 1_555
C11 C2 1_555 1_555
H7 C11 1_555 1_555
C12 C3 1_555 1_555
H8 C12 1_555 1_555
Cu1A Cl2 1_555 1_555
Cl2A Cu1 1_555 1_555
N2 C9 1_555 1_555
N4 C5 1_555 1_555
C6 N10 1_555 1_555
C8 C11 1_555 1_555
C10 C12 1_555 1_555

#END
