
#######################################################################
#
#                 Cambridge Crystallographic Data Centre
#                                CCDC 
#
#######################################################################
#
# If this CIF has been generated from an entry in the Cambridge 
# Structural Database, then it will include bibliographic, chemical, 
# crystal, experimental, refinement or atomic coordinate data resulting 
# from the CCDC's data processing and validation procedures.
#
#######################################################################

data_NOBVEG
_symmetry_cell_setting           monoclinic
_symmetry_space_group_name_H-M   'P 21/n'
_symmetry_Int_Tables_number      14
_space_group_name_Hall           '-P 2yn'
loop_
_symmetry_equiv_pos_site_id
_symmetry_equiv_pos_as_xyz
1 x,y,z
2 1/2-x,1/2+y,1/2-z
3 -x,-y,-z
4 1/2+x,1/2-y,1/2+z
_cell_length_a                   6.381(4)
_cell_length_b                   20.120(10)
_cell_length_c                   10.386(5)
_cell_angle_alpha                90
_cell_angle_beta                 99.23(2)
_cell_angle_gamma                90
_cell_volume                     1316.15
loop_
_atom_site_label
_atom_site_type_symbol
_atom_site_fract_x
_atom_site_fract_y
_atom_site_fract_z
Cu1 Cu 0.5000 0.0000 1.0000
Cu2 Cu 1.0000 0.0000 1.0000
O1 O 0.5774(5) 0.09496(14) 1.0092(3)
O2 O 0.9263(5) 0.09405(15) 1.0091(4)
O3 O 0.7973(6) -0.0126(2) 1.1814(4)
N1 N 0.7190(6) -0.0165(2) 0.8885(4)
C1 C 0.7522(6) 0.1219(2) 1.0110(4)
C2 C 0.7704(8) 0.1975(3) 1.0211(7)
H1 H 0.8325 0.2083 1.1101
H2 H 0.8704 0.2117 0.9655
C3 C 0.5743(8) 0.2383(2) 0.9868(6)
C4 C 0.5517(11) 0.2895(2) 0.8941(6)
H3 H 0.6524 0.2997 0.8416
C5 C 0.3630(15) 0.3227(4) 0.8903(10)
H4 H 0.3213 0.3580 0.8342
C6 C 0.2455(11) 0.2992(4) 0.9752(11)
H5 H 0.1154 0.3171 0.9866
S1 S 0.3594(3) 0.23297(10) 1.0600(3)
N2 N 0.6921(6) -0.0563(2) 0.8019(4)
N3 N 0.6604(9) -0.0929(3) 0.7162(6)
S2 S 0.8670(3) -0.05763(9) 1.29476(16)
C7 C 0.696(3) -0.0440(9) 1.4012(13)
H6 H 0.7100 0.0011 1.4318
H7 H 0.7279 -0.0738 1.4738
H8 H 0.5532 -0.0515 1.3582
C8 C 0.792(2) -0.1350(4) 1.2479(10)
H9 H 0.8230 -0.1429 1.1617
H10 H 0.6424 -0.1399 1.2476
H11 H 0.8681 -0.1664 1.3074
Cu2_2 Cu 0.0000 0.0000 1.0000
O1B O 0.4226(5) -0.09496(14) 0.9908(3)
O2B O 0.0737(5) -0.09405(15) 0.9909(4)
O2B_2 O 1.0737(5) -0.09405(15) 0.9909(4)
O3B O 0.2027(6) 0.0126(2) 0.8186(4)
O3B_2 O 1.2027(6) 0.0126(2) 0.8186(4)
N1B N 0.2810(6) 0.0165(2) 1.1115(4)
N1B_2 N 1.2810(6) 0.0165(2) 1.1115(4)
C1B C 0.2478(6) -0.1219(2) 0.9890(4)
C2B C 0.2296(8) -0.1975(3) 0.9789(7)
H1B H 0.1675 -0.2083 0.8899
H2B H 0.1296 -0.2117 1.0345
C3B C 0.4257(8) -0.2383(2) 1.0132(6)
C4B C 0.4483(11) -0.2895(2) 1.1059(6)
H3B H 0.3476 -0.2997 1.1584
C5B C 0.6370(15) -0.3227(4) 1.1097(10)
H4B H 0.6787 -0.3580 1.1658
C6B C 0.7545(11) -0.2992(4) 1.0248(11)
H5B H 0.8846 -0.3171 1.0134
S1B S 0.6406(3) -0.23297(10) 0.9400(3)
N2B N 0.3079(6) 0.0563(2) 1.1981(4)
N3B N 0.3396(9) 0.0929(3) 1.2838(6)
S2B S 0.1330(3) 0.05763(9) 0.70524(16)
C7B C 0.304(3) 0.0440(9) 0.5988(13)
H6B H 0.2900 -0.0011 0.5682
H7B H 0.2721 0.0738 0.5262
H8B H 0.4468 0.0515 0.6418
C8B C 0.208(2) 0.1350(4) 0.7521(10)
H9B H 0.1770 0.1429 0.8383
H10B H 0.3576 0.1399 0.7524
H11B H 0.1319 0.1664 0.6926
loop_
_geom_bond_atom_site_label_1
_geom_bond_atom_site_label_2
_geom_bond_site_symmetry_1
_geom_bond_site_symmetry_2
Cu1 O1 1_555 1_555
Cu2 O2 1_555 1_555
O1 C1 1_555 1_555
O2 C1 1_555 1_555
O3 Cu1 1_555 1_555
N1 Cu1 1_555 1_555
C1 C2 1_555 1_555
C2 H1 1_555 1_555
H2 C2 1_555 1_555
C3 C2 1_555 1_555
C4 C3 1_555 1_555
H3 C4 1_555 1_555
C5 C4 1_555 1_555
H4 C5 1_555 1_555
C6 C5 1_555 1_555
H5 C6 1_555 1_555
S1 C3 1_555 1_555
N2 N1 1_555 1_555
N3 N2 1_555 1_555
S2 O3 1_555 1_555
C7 S2 1_555 1_555
H6 C7 1_555 1_555
H7 C7 1_555 1_555
H8 C7 1_555 1_555
C8 S2 1_555 1_555
H9 C8 1_555 1_555
H10 C8 1_555 1_555
H11 C8 1_555 1_555
Cu2_2 O2B 1_555 1_555
O1B Cu1 1_555 1_555
O2B C1B 1_555 1_555
O2B_2 Cu2 1_555 1_555
O3B Cu1 1_555 1_555
O3B_2 Cu2 1_555 1_555
N1B Cu1 1_555 1_555
N1B_2 Cu2 1_555 1_555
C1B O1B 1_555 1_555
C2B C1B 1_555 1_555
H1B C2B 1_555 1_555
H2B C2B 1_555 1_555
C3B C2B 1_555 1_555
C4B C3B 1_555 1_555
H3B C4B 1_555 1_555
C5B C4B 1_555 1_555
H4B C5B 1_555 1_555
C6B C5B 1_555 1_555
H5B C6B 1_555 1_555
S1B C3B 1_555 1_555
N2B N1B 1_555 1_555
N3B N2B 1_555 1_555
S2B O3B 1_555 1_555
C7B S2B 1_555 1_555
H6B C7B 1_555 1_555
H7B C7B 1_555 1_555
H8B C7B 1_555 1_555
C8B S2B 1_555 1_555
H9B C8B 1_555 1_555
H10B C8B 1_555 1_555
H11B C8B 1_555 1_555
Cu2 O3 1_555 1_555
Cu2 N1 1_555 1_555
C6 S1 1_555 1_555
Cu2_2 O3B 1_555 1_555
Cu2_2 N1B 1_555 1_555
C6B S1B 1_555 1_555

#END
