
#######################################################################
#
#                 Cambridge Crystallographic Data Centre
#                                CCDC 
#
#######################################################################
#
# If this CIF has been generated from an entry in the Cambridge 
# Structural Database, then it will include bibliographic, chemical, 
# crystal, experimental, refinement or atomic coordinate data resulting 
# from the CCDC's data processing and validation procedures.
#
#######################################################################

data_NOBVOQ01
_symmetry_cell_setting           triclinic
_symmetry_space_group_name_H-M   'P -1'
_symmetry_Int_Tables_number      2
_space_group_name_Hall           '-P 1'
loop_
_symmetry_equiv_pos_site_id
_symmetry_equiv_pos_as_xyz
1 x,y,z
2 -x,-y,-z
_cell_length_a                   8.9396(12)
_cell_length_b                   14.0865(19)
_cell_length_c                   14.727(2)
_cell_angle_alpha                92.344(2)
_cell_angle_beta                 97.653(2)
_cell_angle_gamma                90.604(2)
_cell_volume                     1836.24
loop_
_atom_site_label
_atom_site_type_symbol
_atom_site_fract_x
_atom_site_fract_y
_atom_site_fract_z
Cu1 Cu 0.39961(8) 0.81401(5) 0.18539(5)
Cu2 Cu 0.41667(9) 0.69732(6) 0.32737(5)
Cu3 Cu 0.16985(8) 0.69502(5) 0.20490(5)
Cu4 Cu 0.24020(9) 0.84748(5) 0.32269(5)
I1 I 0.11288(4) 0.86572(3) 0.13688(2)
I2 I 0.43188(4) 0.62210(3) 0.15939(2)
I3 I 0.53693(4) 0.88137(3) 0.34552(3)
I4 I 0.14522(4) 0.68726(3) 0.38838(2)
C1 C 0.6710(6) 0.8765(4) 0.0959(4)
H1 H 0.7391 0.8711 0.1489
C2 C 0.4661(6) 0.8755(4) 0.0045(4)
H2 H 0.3647 0.8697 -0.0196
C3 C 0.7079(6) 0.8989(5) 0.0142(4)
H3 H 0.8041 0.9123 0.0003
C4 C 0.5601(8) 0.9094(4) -0.1439(4)
H4 H 0.6243 0.9618 -0.1567
H5 H 0.4565 0.9253 -0.1657
C5 C 0.6015(6) 0.8212(4) -0.1954(4)
C6 C 0.5556(11) 0.7339(5) -0.1769(7)
H6 H 0.4986 0.7271 -0.1291
C7 C 0.5909(11) 0.6536(5) -0.2271(6)
H7 H 0.5572 0.5943 -0.2121
C8 C 0.6715(7) 0.6597(4) -0.2960(4)
C9 C 0.7201(12) 0.7459(5) -0.3125(6)
H8 H 0.7789 0.7520 -0.3595
C10 C 0.6874(11) 0.8269(5) -0.2631(5)
H9 H 0.7252 0.8856 -0.2768
C11 C 0.7070(8) 0.5733(4) -0.3521(4)
H10 H 0.8121 0.5575 -0.3353
H11 H 0.6457 0.5201 -0.3379
C12 C 0.7787(8) 0.5804(6) -0.5109(5)
H12 H 0.8783 0.5613 -0.4988
C13 C 0.7076(9) 0.6062(6) -0.5917(5)
H13 H 0.7509 0.6077 -0.6457
C14 C 0.5520(7) 0.6170(4) -0.4975(4)
H14 H 0.4641 0.6275 -0.4714
C15 C -0.1375(7) 0.6091(5) 0.1217(5)
H15 H -0.1902 0.6653 0.1269
C16 C 0.0406(6) 0.5094(4) 0.1298(4)
H16 H 0.1349 0.4818 0.1410
C17 C -0.1985(7) 0.5248(5) 0.0892(5)
H17 H -0.2994 0.5124 0.0671
C18 C -0.0981(9) 0.3589(4) 0.0724(4)
H18 H -0.0077 0.3385 0.0478
H19 H -0.1833 0.3465 0.0251
C19 C -0.1179(7) 0.3013(4) 0.1536(4)
C20 C -0.1482(9) 0.3396(4) 0.2373(4)
H20 H -0.1557 0.4051 0.2457
C21 C -0.1674(9) 0.2806(4) 0.3094(4)
H21 H -0.1906 0.3074 0.3645
C22 C -0.1527(7) 0.1840(4) 0.2999(4)
C23 C -0.1247(8) 0.1463(4) 0.2158(4)
H22 H -0.1182 0.0808 0.2071
C24 C -0.1063(8) 0.2038(4) 0.1450(4)
H23 H -0.0853 0.1764 0.0897
C25 C -0.1655(7) 0.1200(4) 0.3779(4)
H24 H -0.1827 0.1580 0.4319
H25 H -0.2511 0.0769 0.3618
C26 C 0.0013(7) -0.0188(4) 0.3588(4)
H26 H -0.0699 -0.0558 0.3207
C27 C 0.2077(7) 0.0291(4) 0.4374(4)
H27 H 0.3081 0.0315 0.4642
C28 C 0.1030(7) 0.0958(4) 0.4488(3)
H28 H 0.1183 0.1519 0.4845
N1 N 0.1408(5) -0.0423(3) 0.3799(3)
N2 N 0.5174(5) 0.8626(3) 0.0899(3)
N3 N 0.5632(5) 0.6296(3) -0.5834(3)
N4 N -0.0861(5) 0.4619(3) 0.0944(3)
N5 N 0.5758(5) 0.8981(3) -0.0447(3)
N6 N -0.0285(6) 0.0657(3) 0.3984(3)
N7 N 0.6794(6) 0.5875(3) -0.4511(3)
N8 N 0.0157(5) 0.5990(3) 0.1464(3)
Cu2_2 Cu 0.41667(9) 0.69732(6) -0.67263(5)
Cu4_2 Cu 0.24020(9) -0.15252(5) 0.32269(5)
N1_2 N 0.1408(5) 0.9577(3) 0.3799(3)
N3_2 N 0.5632(5) 0.6296(3) 0.4166(3)
loop_
_geom_bond_atom_site_label_1
_geom_bond_atom_site_label_2
_geom_bond_site_symmetry_1
_geom_bond_site_symmetry_2
Cu1 Cu2 1_555 1_555
Cu2 Cu3 1_555 1_555
Cu3 Cu1 1_555 1_555
Cu4 Cu1 1_555 1_555
I1 Cu1 1_555 1_555
I2 Cu1 1_555 1_555
I3 Cu1 1_555 1_555
I4 Cu2 1_555 1_555
C1 H1 1_555 1_555
C2 H2 1_555 1_555
C3 C1 1_555 1_555
H3 C3 1_555 1_555
C4 H4 1_555 1_555
H5 C4 1_555 1_555
C5 C4 1_555 1_555
C6 C5 1_555 1_555
H6 C6 1_555 1_555
C7 C6 1_555 1_555
H7 C7 1_555 1_555
C8 C7 1_555 1_555
C9 C8 1_555 1_555
H8 C9 1_555 1_555
C10 C5 1_555 1_555
H9 C10 1_555 1_555
C11 C8 1_555 1_555
H10 C11 1_555 1_555
H11 C11 1_555 1_555
C12 H12 1_555 1_555
C13 C12 1_555 1_555
H13 C13 1_555 1_555
C14 H14 1_555 1_555
C15 H15 1_555 1_555
C16 H16 1_555 1_555
C17 C15 1_555 1_555
H17 C17 1_555 1_555
C18 H18 1_555 1_555
H19 C18 1_555 1_555
C19 C18 1_555 1_555
C20 C19 1_555 1_555
H20 C20 1_555 1_555
C21 C20 1_555 1_555
H21 C21 1_555 1_555
C22 C21 1_555 1_555
C23 C22 1_555 1_555
H22 C23 1_555 1_555
C24 C19 1_555 1_555
H23 C24 1_555 1_555
C25 C22 1_555 1_555
H24 C25 1_555 1_555
H25 C25 1_555 1_555
C26 H26 1_555 1_555
C27 H27 1_555 1_555
C28 C27 1_555 1_555
H28 C28 1_555 1_555
N1 C26 1_555 1_555
N2 Cu1 1_555 1_555
N3 C13 1_555 1_555
N4 C16 1_555 1_555
N5 C2 1_555 1_555
N6 C25 1_555 1_555
N7 C11 1_555 1_555
N8 Cu3 1_555 1_555
Cu2_2 N3 1_555 1_555
Cu4_2 N1 1_555 1_555
N1_2 Cu4 1_555 1_555
N3_2 Cu2 1_555 1_555
Cu2 Cu4 1_555 1_555
Cu2 I2 1_555 1_555
Cu2 I3 1_555 1_555
Cu3 Cu4 1_555 1_555
Cu3 I1 1_555 1_555
Cu3 I2 1_555 1_555
Cu3 I4 1_555 1_555
Cu4 I1 1_555 1_555
Cu4 I3 1_555 1_555
Cu4 I4 1_555 1_555
C1 N2 1_555 1_555
C2 N2 1_555 1_555
C3 N5 1_555 1_555
C4 N5 1_555 1_555
C9 C10 1_555 1_555
C12 N7 1_555 1_555
C14 N3 1_555 1_555
C14 N7 1_555 1_555
C15 N8 1_555 1_555
C16 N8 1_555 1_555
C17 N4 1_555 1_555
C18 N4 1_555 1_555
C23 C24 1_555 1_555
C26 N6 1_555 1_555
C27 N1 1_555 1_555
C28 N6 1_555 1_555

#END
