
#######################################################################
#
#                 Cambridge Crystallographic Data Centre
#                                CCDC 
#
#######################################################################
#
# If this CIF has been generated from an entry in the Cambridge 
# Structural Database, then it will include bibliographic, chemical, 
# crystal, experimental, refinement or atomic coordinate data resulting 
# from the CCDC's data processing and validation procedures.
#
#######################################################################

data_NOBVOQ
_symmetry_cell_setting           triclinic
_symmetry_space_group_name_H-M   'P -1'
_symmetry_Int_Tables_number      2
_space_group_name_Hall           '-P 1'
loop_
_symmetry_equiv_pos_site_id
_symmetry_equiv_pos_as_xyz
1 x,y,z
2 -x,-y,-z
_cell_length_a                   8.9527(9)
_cell_length_b                   14.0753(14)
_cell_length_c                   14.7257(15)
_cell_angle_alpha                92.329(7)
_cell_angle_beta                 97.681(7)
_cell_angle_gamma                90.567(5)
_cell_volume                     1837.23
loop_
_atom_site_label
_atom_site_type_symbol
_atom_site_fract_x
_atom_site_fract_y
_atom_site_fract_z
I1 I 0.61311(5) 0.86549(4) 0.13684(3)
I2 I 0.93199(6) 0.62178(4) 0.15922(3)
I3 I 0.64614(6) 0.68716(4) 0.38849(3)
I4 I 1.03724(6) 0.88105(4) 0.34536(4)
Cu1 Cu 0.89982(11) 0.81371(7) 0.18518(6)
Cu2 Cu 0.67038(11) 0.69478(7) 0.20490(7)
Cu3 Cu 0.91751(12) 0.69744(8) 0.32724(7)
Cu4 Cu 0.74071(12) 0.84744(7) 0.32250(7)
C1 C 1.0513(10) 0.6171(6) -0.4972(6)
H1 H 0.9634 0.6272 -0.4713
C2 C 1.2084(12) 0.6074(9) -0.5914(7)
H2 H 1.2522 0.6099 -0.6452
C3 C 1.2792(11) 0.5814(9) -0.5109(7)
H3 H 1.3788 0.5622 -0.4990
C4 C 1.2075(12) 0.5725(6) -0.3513(5)
H4 H 1.3125 0.5569 -0.3341
H5 H 1.1462 0.5192 -0.3375
C5 C 1.1704(9) 0.6595(5) -0.2959(5)
C6 C 1.2206(16) 0.7463(7) -0.3123(8)
H6 H 1.2806 0.7522 -0.3587
C7 C 1.0916(15) 0.6544(7) -0.2264(8)
H7 H 1.0591 0.5950 -0.2107
C8 C 0.9666(9) 0.8764(5) 0.0038(5)
H8 H 0.8654 0.8703 -0.0205
C9 C 1.1708(8) 0.8766(6) 0.0961(6)
H9 H 1.2385 0.8710 0.1492
C10 C 1.2078(9) 0.8988(7) 0.0130(6)
H10 H 1.3037 0.9114 -0.0016
C11 C 1.0592(10) 0.9107(6) -0.1437(5)
H11 H 1.1230 0.9634 -0.1563
H12 H 0.9556 0.9263 -0.1656
C12 C 1.1019(9) 0.8219(5) -0.1951(5)
C13 C 1.1872(15) 0.8280(7) -0.2632(7)
H13 H 1.2239 0.8868 -0.2775
C14 C 1.0560(15) 0.7335(8) -0.1764(9)
H14 H 0.9992 0.7263 -0.1286
C15 C 0.5421(9) 0.5088(6) 0.1292(5)
H15 H 0.6362 0.4809 0.1403
C16 C 0.3650(10) 0.6095(7) 0.1215(7)
H16 H 0.3131 0.6659 0.1267
C17 C 0.3024(9) 0.5253(7) 0.0891(6)
H17 H 0.2013 0.5135 0.0673
C18 C 0.4010(12) 0.3598(6) 0.0735(5)
H18 H 0.4906 0.3392 0.0483
H19 H 0.3153 0.3474 0.0267
C19 C 0.3825(9) 0.3010(6) 0.1547(5)
C20 C 0.3959(10) 0.2046(6) 0.1450(5)
H20 H 0.4174 0.1776 0.0896
C21 C 0.3496(12) 0.3385(6) 0.2376(6)
H21 H 0.3393 0.4039 0.2458
C22 C 0.5029(11) -0.0188(5) 0.3585(5)
H22 H 0.4322 -0.0552 0.3195
C23 C 0.7067(11) 0.0296(6) 0.4372(5)
H23 H 0.8066 0.0328 0.4644
C24 C 0.6026(11) 0.0964(6) 0.4482(5)
H24 H 0.6178 0.1532 0.4829
C25 C 0.3357(10) 0.1188(6) 0.3786(5)
H25 H 0.3183 0.1565 0.4327
H26 H 0.2506 0.0754 0.3625
C26 C 0.3472(9) 0.1841(6) 0.2998(5)
C27 C 0.3779(11) 0.1466(6) 0.2168(6)
H27 H 0.3867 0.0812 0.2086
C28 C 0.3316(12) 0.2799(6) 0.3087(6)
H28 H 0.3084 0.3066 0.3637
N1 N 1.0629(8) 0.6296(5) -0.5836(4)
N2 N 1.1803(8) 0.5880(4) -0.4504(4)
N3 N 1.0166(7) 0.8637(4) 0.0893(4)
N4 N 1.0747(7) 0.8989(4) -0.0449(4)
N5 N 0.5163(7) 0.5989(5) 0.1455(4)
N6 N 0.4136(8) 0.4618(4) 0.0942(4)
N7 N 0.6433(8) -0.0433(4) 0.3803(4)
N8 N 0.4722(8) 0.0649(4) 0.3991(4)
Cu3_2 Cu 0.91751(12) 0.69744(8) -0.67276(7)
Cu4_2 Cu 0.74071(12) -0.15256(7) 0.32250(7)
N1_2 N 1.0629(8) 0.6296(5) 0.4164(4)
N7_2 N 0.6433(8) 0.9567(4) 0.3803(4)
loop_
_geom_bond_atom_site_label_1
_geom_bond_atom_site_label_2
_geom_bond_site_symmetry_1
_geom_bond_site_symmetry_2
I1 Cu1 1_555 1_555
I2 Cu1 1_555 1_555
I3 Cu2 1_555 1_555
I4 Cu1 1_555 1_555
Cu1 Cu2 1_555 1_555
Cu2 I1 1_555 1_555
Cu3 I2 1_555 1_555
Cu4 I1 1_555 1_555
C1 H1 1_555 1_555
C2 H2 1_555 1_555
C3 C2 1_555 1_555
H3 C3 1_555 1_555
C4 H4 1_555 1_555
H5 C4 1_555 1_555
C5 C4 1_555 1_555
C6 C5 1_555 1_555
H6 C6 1_555 1_555
C7 C5 1_555 1_555
H7 C7 1_555 1_555
C8 H8 1_555 1_555
C9 H9 1_555 1_555
C10 C9 1_555 1_555
H10 C10 1_555 1_555
C11 H11 1_555 1_555
H12 C11 1_555 1_555
C12 C11 1_555 1_555
C13 C6 1_555 1_555
H13 C13 1_555 1_555
C14 C7 1_555 1_555
H14 C14 1_555 1_555
C15 H15 1_555 1_555
C16 H16 1_555 1_555
C17 C16 1_555 1_555
H17 C17 1_555 1_555
C18 H18 1_555 1_555
H19 C18 1_555 1_555
C19 C18 1_555 1_555
C20 C19 1_555 1_555
H20 C20 1_555 1_555
C21 C19 1_555 1_555
H21 C21 1_555 1_555
C22 H22 1_555 1_555
C23 H23 1_555 1_555
C24 C23 1_555 1_555
H24 C24 1_555 1_555
C25 H25 1_555 1_555
H26 C25 1_555 1_555
C26 C25 1_555 1_555
C27 C20 1_555 1_555
H27 C27 1_555 1_555
C28 C21 1_555 1_555
H28 C28 1_555 1_555
N1 C1 1_555 1_555
N2 C1 1_555 1_555
N3 Cu1 1_555 1_555
N4 C8 1_555 1_555
N5 Cu2 1_555 1_555
N6 C15 1_555 1_555
N7 C22 1_555 1_555
N8 C22 1_555 1_555
Cu3_2 N1 1_555 1_555
Cu4_2 N7 1_555 1_555
N1_2 Cu3 1_555 1_555
N7_2 Cu4 1_555 1_555
I2 Cu2 1_555 1_555
I3 Cu3 1_555 1_555
I3 Cu4 1_555 1_555
I4 Cu3 1_555 1_555
I4 Cu4 1_555 1_555
Cu1 Cu3 1_555 1_555
Cu1 Cu4 1_555 1_555
Cu2 Cu3 1_555 1_555
Cu2 Cu4 1_555 1_555
Cu3 Cu4 1_555 1_555
C2 N1 1_555 1_555
C3 N2 1_555 1_555
C4 N2 1_555 1_555
C8 N3 1_555 1_555
C9 N3 1_555 1_555
C10 N4 1_555 1_555
C11 N4 1_555 1_555
C12 C13 1_555 1_555
C12 C14 1_555 1_555
C15 N5 1_555 1_555
C16 N5 1_555 1_555
C17 N6 1_555 1_555
C18 N6 1_555 1_555
C23 N7 1_555 1_555
C24 N8 1_555 1_555
C25 N8 1_555 1_555
C26 C27 1_555 1_555
C26 C28 1_555 1_555

#END
