
#######################################################################
#
#                 Cambridge Crystallographic Data Centre
#                                CCDC 
#
#######################################################################
#
# If this CIF has been generated from an entry in the Cambridge 
# Structural Database, then it will include bibliographic, chemical, 
# crystal, experimental, refinement or atomic coordinate data resulting 
# from the CCDC's data processing and validation procedures.
#
#######################################################################

data_NOBWIM
_symmetry_cell_setting           monoclinic
_symmetry_space_group_name_H-M   'P 21/c'
_symmetry_Int_Tables_number      14
_space_group_name_Hall           '-P 2ybc'
loop_
_symmetry_equiv_pos_site_id
_symmetry_equiv_pos_as_xyz
1 x,y,z
2 -x,1/2+y,1/2-z
3 -x,-y,-z
4 x,1/2-y,1/2+z
_cell_length_a                   9.0290(2)
_cell_length_b                   12.0904(3)
_cell_length_c                   9.8107(3)
_cell_angle_alpha                90
_cell_angle_beta                 101.124(3)
_cell_angle_gamma                90
_cell_volume                     1050.86
loop_
_atom_site_label
_atom_site_type_symbol
_atom_site_fract_x
_atom_site_fract_y
_atom_site_fract_z
Pt1 Pt 0.0000 0.0000 0.0000
Fe1 Fe 0.0000 0.0000 0.5000
C1 C 0.1248(3) -0.1265(2) -0.0428(3)
N1 N 0.1949(3) -0.1970(2) -0.0748(3)
N2 N 0.1656(3) 0.1067(2) 0.4910(3)
C2 C 0.3023(3) 0.0753(2) 0.5687(3)
C3 C 0.4325(3) 0.1410(3) 0.5840(3)
C4 C 0.4216(4) 0.2407(2) 0.5052(4)
H1 H 0.5055 0.2861 0.509
C5 C 0.1602(4) 0.2009(3) 0.4216(3)
H2 H 0.0686 0.2235 0.3684
C6 C 0.2887(4) 0.2683(3) 0.4256(4)
H3 H 0.281 0.3325 0.3724
C7 C 0.3082(3) -0.0291(2) 0.6340(3)
C8 C 0.5672(3) 0.0060(3) 0.7417(3)
H4 H 0.6537 -0.0161 0.8033
C9 C 0.4371(4) -0.0631(3) 0.7194(3)
H5 H 0.4402 -0.1315 0.7631
C10 C 0.5660(4) 0.1040(3) 0.6739(3)
H6 H 0.653 0.1471 0.6863
N3 N 0.1723(3) -0.0959(2) 0.5991(3)
H7 H 0.1487 -0.1243 0.677
H8 H 0.188 -0.1523 0.5438
N4 N 0.0196(3) -0.0499(2) 0.3154(2)
C11 C 0.0185(3) -0.0422(3) 0.1988(3)
C1B C -0.1248(3) 0.1265(2) 0.0428(3)
N1B N -0.1949(3) 0.1970(2) 0.0748(3)
N4B N -0.0196(3) 0.0499(2) -0.3154(2)
C11B C -0.0185(3) 0.0422(3) -0.1988(3)
N2B N -0.1656(3) -0.1067(2) 0.5090(3)
C2B C -0.3023(3) -0.0753(2) 0.4313(3)
C3B C -0.4325(3) -0.1410(3) 0.4160(3)
C4B C -0.4216(4) -0.2407(2) 0.4948(4)
H1B H -0.5055 -0.2861 0.491
C5B C -0.1602(4) -0.2009(3) 0.5784(3)
H2B H -0.0686 -0.2235 0.6316
C6B C -0.2887(4) -0.2683(3) 0.5744(4)
H3B H -0.281 -0.3325 0.6276
C7B C -0.3082(3) 0.0291(2) 0.3660(3)
C8B C -0.5672(3) -0.0060(3) 0.2583(3)
H4B H -0.6537 0.0161 0.1967
C9B C -0.4371(4) 0.0631(3) 0.2806(3)
H5B H -0.4402 0.1315 0.2369
C10B C -0.5660(4) -0.1040(3) 0.3261(3)
H6B H -0.653 -0.1471 0.3137
N3B N -0.1723(3) 0.0959(2) 0.4009(3)
H7B H -0.1487 0.1243 0.323
H8B H -0.188 0.1523 0.4562
Fe1_2 Fe 0.0000 0.0000 -0.5000
N4B_2 N -0.0196(3) 0.0499(2) 0.6846(2)
loop_
_geom_bond_atom_site_label_1
_geom_bond_atom_site_label_2
_geom_bond_site_symmetry_1
_geom_bond_site_symmetry_2
Pt1 C1 1_555 1_555
Fe1 N2 1_555 1_555
C1 N1 1_555 1_555
N2 C2 1_555 1_555
C2 C3 1_555 1_555
C3 C4 1_555 1_555
C4 H1 1_555 1_555
C5 N2 1_555 1_555
H2 C5 1_555 1_555
C6 C4 1_555 1_555
H3 C6 1_555 1_555
C7 C2 1_555 1_555
C8 H4 1_555 1_555
C9 C7 1_555 1_555
H5 C9 1_555 1_555
C10 C3 1_555 1_555
H6 C10 1_555 1_555
N3 Fe1 1_555 1_555
H7 N3 1_555 1_555
H8 N3 1_555 1_555
N4 Fe1 1_555 1_555
C11 Pt1 1_555 1_555
C1B Pt1 1_555 1_555
N1B C1B 1_555 1_555
N4B C11B 1_555 1_555
C11B Pt1 1_555 1_555
N2B Fe1 1_555 1_555
C2B N2B 1_555 1_555
C3B C2B 1_555 1_555
C4B C3B 1_555 1_555
H1B C4B 1_555 1_555
C5B N2B 1_555 1_555
H2B C5B 1_555 1_555
C6B C4B 1_555 1_555
H3B C6B 1_555 1_555
C7B C2B 1_555 1_555
C8B H4B 1_555 1_555
C9B C7B 1_555 1_555
H5B C9B 1_555 1_555
C10B C3B 1_555 1_555
H6B C10B 1_555 1_555
N3B Fe1 1_555 1_555
H7B N3B 1_555 1_555
H8B N3B 1_555 1_555
Fe1_2 N4B 1_555 1_555
N4B_2 Fe1 1_555 1_555
C5 C6 1_555 1_555
C7 N3 1_555 1_555
C8 C9 1_555 1_555
C8 C10 1_555 1_555
N4 C11 1_555 1_555
C5B C6B 1_555 1_555
C7B N3B 1_555 1_555
C8B C9B 1_555 1_555
C8B C10B 1_555 1_555

#END
