
#######################################################################
#
#                 Cambridge Crystallographic Data Centre
#                                CCDC 
#
#######################################################################
#
# If this CIF has been generated from an entry in the Cambridge 
# Structural Database, then it will include bibliographic, chemical, 
# crystal, experimental, refinement or atomic coordinate data resulting 
# from the CCDC's data processing and validation procedures.
#
#######################################################################

data_NOBXIN
_symmetry_cell_setting           monoclinic
_symmetry_space_group_name_H-M   'P 21/n'
_symmetry_Int_Tables_number      14
_space_group_name_Hall           '-P 2yn'
loop_
_symmetry_equiv_pos_site_id
_symmetry_equiv_pos_as_xyz
1 x,y,z
2 1/2-x,1/2+y,1/2-z
3 -x,-y,-z
4 1/2+x,1/2-y,1/2+z
_cell_length_a                   12.4580(7)
_cell_length_b                   14.7450(9)
_cell_length_c                   13.6544(8)
_cell_angle_alpha                90
_cell_angle_beta                 97.6440(10)
_cell_angle_gamma                90
_cell_volume                     2485.93
loop_
_atom_site_label
_atom_site_type_symbol
_atom_site_fract_x
_atom_site_fract_y
_atom_site_fract_z
Mn1 Mn 0.03039(4) 0.15910(3) 0.44116(4)
O1 O -0.51752(18) 0.42206(15) 0.05720(16)
O2 O -0.4967(2) 0.54019(15) 0.15899(17)
O3 O -0.0250(2) 0.24481(17) 0.31108(18)
C1 C 0.2833(3) 0.3440(2) 0.6011(2)
N1 N 0.5425(2) 0.3358(2) 0.5074(2)
N2 N 0.4733(2) 0.41129(19) 0.6266(2)
H1 H 0.4689 0.4486 0.6743
O4 O -0.1274(2) 0.23097(19) 0.42802(19)
C2 C -0.1980(3) 0.3200(2) 0.2887(2)
N3 N 0.2039(2) 0.16530(18) 0.4156(2)
C3 C -0.2687(3) 0.4308(2) 0.1612(2)
O5 O 0.7892(3) 0.6456(2) 0.7393(3)
N4 N 0.1140(2) 0.26737(18) 0.5449(2)
C4 C -0.2506(3) 0.4962(2) 0.0889(2)
H2 H -0.3087 0.5292 0.0573
C5 C -0.1109(3) 0.2624(2) 0.3454(2)
C6 C -0.1789(3) 0.3807(2) 0.2108(2)
C7 C 0.4384(3) 0.3068(2) 0.5131(2)
C8 C -0.2998(3) 0.3128(2) 0.3155(3)
H3 H -0.3107 0.2759 0.3684
C9 C 0.2201(3) 0.2802(2) 0.5404(2)
C10 C 0.5607(3) 0.3985(2) 0.5775(2)
C11 C -0.0756(3) 0.3963(2) 0.1805(2)
H4 H -0.0165 0.3624 0.2087
C12 C 0.3936(3) 0.3530(2) 0.5852(2)
C13 C -0.3881(3) 0.3602(2) 0.2646(3)
H5 H -0.4568 0.3528 0.2831
C14 C 0.2303(3) 0.3949(3) 0.6665(3)
H6 H 0.2688 0.4372 0.7079
C15 C 0.6609(3) 0.4524(2) 0.5960(3)
C16 C 0.3772(3) 0.2402(2) 0.4528(2)
C17 C 0.2685(3) 0.2270(2) 0.4685(2)
C18 C -0.0614(3) 0.4600(3) 0.1106(3)
H7 H 0.0072 0.4697 0.0930
C19 C 0.8521(4) 0.5532(3) 0.6230(3)
H8 H 0.9155 0.5873 0.6310
C20 C -0.1497(3) 0.5112(3) 0.0651(3)
H9 H -0.1388 0.5554 0.0188
C21 C 0.2444(3) 0.1176(3) 0.3475(3)
H10 H 0.1997 0.0755 0.3113
C22 C 0.4179(3) 0.1879(3) 0.3798(3)
H11 H 0.4891 0.1948 0.3678
C23 C 0.3508(3) 0.1268(3) 0.3268(3)
H12 H 0.3757 0.0919 0.2777
C24 C 0.6704(3) 0.5262(2) 0.6599(3)
H13 H 0.6127 0.5432 0.6925
C25 C 0.7688(4) 0.5753(3) 0.6747(3)
C26 C 0.8420(4) 0.4808(3) 0.5596(3)
H14 H 0.8986 0.4663 0.5245
C27 C 0.0666(3) 0.3177(2) 0.6078(3)
H15 H -0.0069 0.3093 0.6108
C28 C 0.7489(3) 0.4294(3) 0.5471(3)
H16 H 0.7445 0.3789 0.5059
C29 C 0.1224(3) 0.3828(3) 0.6697(3)
H17 H 0.0865 0.4172 0.7123
C30 C -0.3740(3) 0.4170(2) 0.1883(2)
C31 C 0.7190(4) 0.6585(3) 0.8081(4)
H18 H 0.7423 0.7097 0.8489
H19 H 0.7185 0.6053 0.8486
H20 H 0.6474 0.6694 0.7748
C32 C -0.4700(3) 0.4630(2) 0.1300(2)
Mn1A Mn -0.53039(4) 0.65910(3) 0.05884(4)
Mn1C Mn -0.46961(4) 0.34090(3) -0.05884(4)
O1C O -0.01752(18) 0.07794(15) 0.55720(16)
O2A O -0.0033(2) 0.04019(15) 0.34101(17)
loop_
_geom_bond_atom_site_label_1
_geom_bond_atom_site_label_2
_geom_bond_site_symmetry_1
_geom_bond_site_symmetry_2
Mn1 O3 1_555 1_555
O1 C32 1_555 1_555
O2 C32 1_555 1_555
O3 C5 1_555 1_555
C1 C9 1_555 1_555
N1 C7 1_555 1_555
N2 H1 1_555 1_555
O4 Mn1 1_555 1_555
C2 C5 1_555 1_555
N3 Mn1 1_555 1_555
C3 C4 1_555 1_555
O5 C25 1_555 1_555
N4 Mn1 1_555 1_555
C4 H2 1_555 1_555
C5 O4 1_555 1_555
C6 C2 1_555 1_555
C7 C12 1_555 1_555
C8 C2 1_555 1_555
H3 C8 1_555 1_555
C9 N4 1_555 1_555
C10 N1 1_555 1_555
C11 C6 1_555 1_555
H4 C11 1_555 1_555
C12 C1 1_555 1_555
C13 C8 1_555 1_555
H5 C13 1_555 1_555
C14 C1 1_555 1_555
H6 C14 1_555 1_555
C15 C10 1_555 1_555
C16 C7 1_555 1_555
C17 N3 1_555 1_555
C18 C11 1_555 1_555
H7 C18 1_555 1_555
C19 H8 1_555 1_555
C20 C4 1_555 1_555
H9 C20 1_555 1_555
C21 N3 1_555 1_555
H10 C21 1_555 1_555
C22 C16 1_555 1_555
H11 C22 1_555 1_555
C23 C21 1_555 1_555
H12 C23 1_555 1_555
C24 C15 1_555 1_555
H13 C24 1_555 1_555
C25 C19 1_555 1_555
C26 C19 1_555 1_555
H14 C26 1_555 1_555
C27 N4 1_555 1_555
H15 C27 1_555 1_555
C28 C15 1_555 1_555
H16 C28 1_555 1_555
C29 C14 1_555 1_555
H17 C29 1_555 1_555
C30 C3 1_555 1_555
C31 O5 1_555 1_555
H18 C31 1_555 1_555
H19 C31 1_555 1_555
H20 C31 1_555 1_555
C32 C30 1_555 1_555
Mn1A O2 1_555 1_555
Mn1C O1 1_555 1_555
O1C Mn1 1_555 1_555
O2A Mn1 1_555 1_555
N2 C10 1_555 1_555
N2 C12 1_555 1_555
C3 C6 1_555 1_555
C9 C17 1_555 1_555
C13 C30 1_555 1_555
C16 C17 1_555 1_555
C18 C20 1_555 1_555
C22 C23 1_555 1_555
C24 C25 1_555 1_555
C26 C28 1_555 1_555
C27 C29 1_555 1_555

#END
