
#######################################################################
#
#                 Cambridge Crystallographic Data Centre
#                                CCDC 
#
#######################################################################
#
# If this CIF has been generated from an entry in the Cambridge 
# Structural Database, then it will include bibliographic, chemical, 
# crystal, experimental, refinement or atomic coordinate data resulting 
# from the CCDC's data processing and validation procedures.
#
#######################################################################

data_NOBZIP
_symmetry_cell_setting           triclinic
_symmetry_space_group_name_H-M   'P -1'
_symmetry_Int_Tables_number      2
_space_group_name_Hall           '-P 1'
loop_
_symmetry_equiv_pos_site_id
_symmetry_equiv_pos_as_xyz
1 x,y,z
2 -x,-y,-z
_cell_length_a                   7.0360(4)
_cell_length_b                   9.6569(5)
_cell_length_c                   10.5218(5)
_cell_angle_alpha                98.100(4)
_cell_angle_beta                 104.740(4)
_cell_angle_gamma                94.793(4)
_cell_volume                     679.145
loop_
_atom_site_label
_atom_site_type_symbol
_atom_site_fract_x
_atom_site_fract_y
_atom_site_fract_z
Cd1 Cd 0.76916(2) 0.582973(17) 0.531792(14)
Cl1 Cl 0.49539(8) 0.44642(6) 0.33044(5)
Cl2 Cl 0.96950(9) 0.39365(6) 0.61391(5)
N1 N 0.7086(3) 0.8019(2) 0.46684(17)
N2 N 0.9127(3) 0.7722(2) 0.71844(17)
C1 C 0.6292(4) 0.8197(3) 0.3414(2)
H1 H 0.5808 0.7387 0.2745
C2 C 0.6148(4) 0.9520(3) 0.3053(2)
H2 H 0.5582 0.9610 0.2151
C3 C 0.6840(4) 1.0710(3) 0.4022(2)
H3 H 0.6743 1.1627 0.3801
C4 C 0.7679(4) 1.0528(3) 0.5323(2)
H4 H 0.8168 1.1322 0.6010
C5 C 0.7793(3) 0.9179(3) 0.5605(2)
C6 C 0.8753(4) 0.8939(3) 0.6970(2)
H5 H 0.9091 0.9708 0.7690
C7 C 0.9995(4) 0.7479(2) 0.8510(2)
C8 C 1.1679(4) 0.6795(3) 0.8699(2)
H6 H 1.2257 0.6583 0.7983
C9 C 1.2528(4) 0.6420(3) 0.9922(2)
H7 H 1.3706 0.5981 1.0057
C10 C 1.1627(4) 0.6698(3) 1.0950(2)
H8 H 1.2168 0.6422 1.1787
C11 C 0.9957(4) 0.7371(3) 1.0756(2)
H9 H 0.9363 0.7547 1.1470
C12 C 0.9096(4) 0.7807(3) 0.9554(2)
C13 C 0.7243(4) 0.8524(3) 0.9403(2)
H10 H 0.6539 0.8258 1.0042
H11 H 0.6383 0.8230 0.8494
H12 H 0.7603 0.9548 0.9573
Cd1A Cd 0.23084(2) 0.417027(17) 0.468208(14)
Cd1A_2 Cd 1.23084(2) 0.417027(17) 0.468208(14)
Cl1A Cl 0.50461(8) 0.55358(6) 0.66956(5)
Cl2A Cl 1.03050(9) 0.60635(6) 0.38609(5)
loop_
_geom_bond_atom_site_label_1
_geom_bond_atom_site_label_2
_geom_bond_site_symmetry_1
_geom_bond_site_symmetry_2
Cd1 Cl1 1_555 1_555
Cl1 Cd1A 1_555 1_555
Cl2 Cd1 1_555 1_555
N1 Cd1 1_555 1_555
N2 Cd1 1_555 1_555
C1 N1 1_555 1_555
H1 C1 1_555 1_555
C2 C1 1_555 1_555
H2 C2 1_555 1_555
C3 C2 1_555 1_555
H3 C3 1_555 1_555
C4 C3 1_555 1_555
H4 C4 1_555 1_555
C5 N1 1_555 1_555
C6 N2 1_555 1_555
H5 C6 1_555 1_555
C7 N2 1_555 1_555
C8 C7 1_555 1_555
H6 C8 1_555 1_555
C9 C8 1_555 1_555
H7 C9 1_555 1_555
C10 C9 1_555 1_555
H8 C10 1_555 1_555
C11 C10 1_555 1_555
H9 C11 1_555 1_555
C12 C7 1_555 1_555
C13 C12 1_555 1_555
H10 C13 1_555 1_555
H11 C13 1_555 1_555
H12 C13 1_555 1_555
Cd1A Cl1A 1_555 1_555
Cd1A_2 Cl2 1_555 1_555
Cl1A Cd1 1_555 1_555
Cl2A Cd1 1_555 1_555
C4 C5 1_555 1_555
C5 C6 1_555 1_555
C11 C12 1_555 1_555
Cd1A_2 Cl2A 1_555 1_555

#END
