
#######################################################################
#
#                 Cambridge Crystallographic Data Centre
#                                CCDC 
#
#######################################################################
#
# If this CIF has been generated from an entry in the Cambridge 
# Structural Database, then it will include bibliographic, chemical, 
# crystal, experimental, refinement or atomic coordinate data resulting 
# from the CCDC's data processing and validation procedures.
#
#######################################################################

data_NOCBEM
_symmetry_cell_setting           orthorhombic
_symmetry_space_group_name_H-M   'P n n a'
_symmetry_Int_Tables_number      52
_space_group_name_Hall           '-P 2a 2bc'
loop_
_symmetry_equiv_pos_site_id
_symmetry_equiv_pos_as_xyz
1 x,y,z
2 1/2+x,y,-z
3 -x,1/2+y,1/2+z
4 1/2+x,1/2-y,1/2+z
5 -x,-y,-z
6 1/2-x,-y,z
7 x,1/2-y,1/2-z
8 1/2-x,1/2+y,1/2-z
_cell_length_a                   12.038(4)
_cell_length_b                   22.323(5)
_cell_length_c                   7.665(4)
_cell_angle_alpha                90
_cell_angle_beta                 90
_cell_angle_gamma                90
_cell_volume                     2059.77
loop_
_atom_site_label
_atom_site_type_symbol
_atom_site_fract_x
_atom_site_fract_y
_atom_site_fract_z
S1 S 0.8671(3) -0.1386(2) 0.4893(5)
S2 S 0.8813(3) -0.1076(2) 0.8591(4)
N1 N 1.131(1) -0.0425(5) 0.360(2)
N2 N 1.145(1) -0.0463(8) 0.916(2)
C1 C 0.9419(9) -0.1065(5) 0.654(1)
C2 C 1.0441(9) -0.0790(5) 0.643(1)
C3 C 1.090(1) -0.0599(5) 0.483(2)
C4 C 1.101(1) -0.0611(6) 0.792(2)
C5 C 0.966(2) -0.1614(7) 0.324(2)
C6 C 0.787(2) -0.1703(8) 0.863(2)
H1 H 1.0179 -0.1894 0.3714
H2 H 0.9288 -0.1795 0.2279
H3 H 1.0065 -0.1273 0.2822
H4 H 0.7512 -0.1722 0.9756
H5 H 0.7305 -0.1649 0.7770
H6 H 0.8250 -0.2064 0.8428
Ag1 Ag 0.7500 0.0000 0.8575(2)
Ag1A Ag 1.2500 0.0000 0.1425(2)
Ag1A_2 Ag 1.2500 0.0000 1.1425(2)
S2E S 0.6187(3) 0.1076(2) 0.8591(4)
N1A N 0.631(1) -0.0425(5) 0.640(2)
N1D N 0.869(1) 0.0425(5) 0.640(2)
N2A N 0.645(1) -0.0463(8) 1.084(2)
N2D N 0.855(1) 0.0463(8) 1.084(2)
Cl1 Cl 0.6279(4) -0.2500 0.2500
O1 O 0.685(1) -0.1984(7) 0.276(2)
O2 O 0.560(2) -0.2621(8) 0.384(2)
O1F O 0.685(1) -0.3016(7) 0.224(2)
O2F O 0.560(2) -0.2379(8) 0.116(2)
loop_
_geom_bond_atom_site_label_1
_geom_bond_atom_site_label_2
_geom_bond_site_symmetry_1
_geom_bond_site_symmetry_2
Cl1 O1 1_555 1_555
S1 C1 1_555 1_555
S2 C1 1_555 1_555
O2 Cl1 1_555 1_555
N1 C3 1_555 1_555
N2 C4 1_555 1_555
C1 C2 1_555 1_555
C2 C3 1_555 1_555
C4 C2 1_555 1_555
C5 S1 1_555 1_555
C6 S2 1_555 1_555
H1 C5 1_555 1_555
H2 C5 1_555 1_555
H3 C5 1_555 1_555
H4 C6 1_555 1_555
H5 C6 1_555 1_555
H6 C6 1_555 1_555
Ag1 S2 1_555 1_555
O1F Cl1 1_555 1_555
O2F Cl1 1_555 1_555
Ag1A N1 1_555 1_555
Ag1A_2 N2 1_555 1_555
S2E Ag1 1_555 1_555
N1A Ag1 1_555 1_555
N1D Ag1 1_555 1_555
N2A Ag1 1_555 1_555
N2D Ag1 1_555 1_555

#END
