
#######################################################################
#
#                 Cambridge Crystallographic Data Centre
#                                CCDC 
#
#######################################################################
#
# If this CIF has been generated from an entry in the Cambridge 
# Structural Database, then it will include bibliographic, chemical, 
# crystal, experimental, refinement or atomic coordinate data resulting 
# from the CCDC's data processing and validation procedures.
#
#######################################################################

data_NOCBUC
_symmetry_cell_setting           rhombohedral
_symmetry_space_group_name_H-M   'R -3 c'
_symmetry_Int_Tables_number      167
_space_group_name_Hall           '-R 3 2"c'
loop_
_symmetry_equiv_pos_site_id
_symmetry_equiv_pos_as_xyz
1 x,y,z
2 -y,x-y,z
3 -x+y,-x,z
4 y,x,1/2-z
5 2/3+x,1/3+y,1/3+z
6 2/3-y,1/3+x-y,1/3+z
7 2/3-x+y,1/3-x,1/3+z
8 2/3+y,1/3+x,5/6-z
9 1/3+x,2/3+y,2/3+z
10 1/3+y,2/3+x,1/6-z
11 -x+y,y,1/2+z
12 x,x-y,1/2+z
13 2/3+y,1/3-x+y,1/3-z
14 2/3+x-y,1/3+x,1/3-z
15 2/3-x+y,1/3+y,5/6+z
16 2/3+x,1/3+x-y,5/6+z
17 1/3-x+y,2/3+y,1/6+z
18 1/3+x,2/3+x-y,1/6+z
19 -x,-y,-z
20 y,-x+y,-z
21 x-y,x,-z
22 -y,-x,1/2+z
23 1/3-x,2/3-y,2/3-z
24 1/3+y,2/3-x+y,2/3-z
25 1/3+x-y,2/3+x,2/3-z
26 1/3-y,2/3-x,1/6+z
27 2/3-x,1/3-y,1/3-z
28 2/3-y,1/3-x,5/6+z
29 x-y,-y,1/2-z
30 -x,-x+y,1/2-z
31 1/3-y,2/3+x-y,2/3+z
32 1/3-x+y,2/3-x,2/3+z
33 1/3+x-y,2/3-y,1/6-z
34 1/3-x,2/3-x+y,1/6-z
35 2/3+x-y,1/3-y,5/6-z
36 2/3-x,1/3-x+y,5/6-z
_cell_length_a                   14.873(2)
_cell_length_b                   14.873(2)
_cell_length_c                   34.872(7)
_cell_angle_alpha                90
_cell_angle_beta                 90
_cell_angle_gamma                120.00
_cell_volume                     6680.43
loop_
_atom_site_label
_atom_site_type_symbol
_atom_site_fract_x
_atom_site_fract_y
_atom_site_fract_z
Cu1 Cu 0.51821(4) -0.16253(4) 0.87224(2)
O1 O 0.4317(2) -0.0638(2) 0.95779(9)
O2 O 0.4390(3) -0.2277(3) 0.9167
O4 O 0.6543(4) -0.0124(4) 0.9167
N1 N 0.4361(3) 0.0689(3) 0.99371(11)
N2 N 0.6012(3) -0.2026(3) 0.97228(13)
H1 H 0.5659(3) -0.2725(3) 0.97160(13)
H2 H 0.6512(3) -0.1798(3) 0.95427(13)
C1 C 0.4623(3) 0.0006(3) 0.98550(12)
C2 C 0.6333(4) -0.0904(4) 1.02785(15)
H3 H 0.6054(4) -0.1144(4) 1.05333(15)
H4 H 0.7002(4) -0.0275(4) 1.03045(15)
C3 C 0.6460(7) -0.1689(7) 1.0083(2)
H5 H 0.7199(7) -0.1429(7) 1.0057(2)
H6 H 0.6187(7) -0.2292(7) 1.0249(2)
H7 H 0.7202(30) 0.0046(51) 0.9201(23)
Cu1G Cu 0.50414(4) -0.14846(4) 0.96109(2)
Cu1Y Cu 0.49586(4) 0.14846(4) 1.03891(2)
O1R O 0.5683(2) 0.0638(2) 1.04221(9)
C1R C 0.5377(3) -0.0006(3) 1.01450(12)
N1R N 0.5639(3) -0.0689(3) 1.00629(11)
H7G H 0.6713(51) 0.0535(30) 0.9132(23)
O2Y O 0.5610(3) 0.2277(3) 1.0834
Cu1R Cu 0.48179(4) 0.16253(4) 1.12776(2)
O4R O 0.3457(4) 0.0124(4) 1.0833
N2R N 0.3988(3) 0.2026(3) 1.02772(13)
H1R H 0.4341(3) 0.2725(3) 1.02840(13)
H2R H 0.3488(3) 0.1798(3) 1.04573(13)
C3R C 0.3540(7) 0.1689(7) 0.9917(2)
C2R C 0.3667(4) 0.0904(4) 0.97215(15)
H3R H 0.3946(4) 0.1144(4) 0.94667(15)
H4R H 0.2998(4) 0.0275(4) 0.96955(15)
H5R H 0.2801(7) 0.1429(7) 0.9943(2)
H6R H 0.3813(7) 0.2292(7) 0.9751(2)
H7R H 0.2798(30) -0.0046(51) 1.0799(23)
H7Y H 0.3287(51) -0.0535(30) 1.0868(23)
O3 O 0.6335(5) 0.1678(4) 0.90834(14)
Br1 Br 0.6667 0.3333 0.98338(3)
Br2 Br 0.6667 0.3333 0.8333
loop_
_geom_bond_atom_site_label_1
_geom_bond_atom_site_label_2
_geom_bond_site_symmetry_1
_geom_bond_site_symmetry_2
Cu1 O2 1_555 1_555
O1 C1 1_555 1_555
O2 Cu1G 1_555 1_555
O4 Cu1 1_555 1_555
N1 C1 1_555 1_555
N2 H1 1_555 1_555
H2 N2 1_555 1_555
C1 C1R 1_555 1_555
C2 H3 1_555 1_555
H4 C2 1_555 1_555
C3 N2 1_555 1_555
H5 C3 1_555 1_555
H6 C3 1_555 1_555
H7 O4 1_555 1_555
Cu1G O1 1_555 1_555
Cu1Y N1 1_555 1_555
O1R Cu1Y 1_555 1_555
C1R O1R 1_555 1_555
N1R C2 1_555 1_555
H7G O4 1_555 1_555
O2Y Cu1Y 1_555 1_555
Cu1R O2Y 1_555 1_555
O4R Cu1Y 1_555 1_555
N2R Cu1Y 1_555 1_555
H1R N2R 1_555 1_555
H2R N2R 1_555 1_555
C3R N2R 1_555 1_555
C2R N1 1_555 1_555
H3R C2R 1_555 1_555
H4R C2R 1_555 1_555
H5R C3R 1_555 1_555
H6R C3R 1_555 1_555
H7R O4R 1_555 1_555
H7Y O4R 1_555 1_555
O4 Cu1G 1_555 1_555
N2 Cu1G 1_555 1_555
C2 C3 1_555 1_555
Cu1G N1R 1_555 1_555
C1R N1R 1_555 1_555
Cu1R O4R 1_555 1_555
C3R C2R 1_555 1_555

#END
