
#######################################################################
#
#                 Cambridge Crystallographic Data Centre
#                                CCDC 
#
#######################################################################
#
# If this CIF has been generated from an entry in the Cambridge 
# Structural Database, then it will include bibliographic, chemical, 
# crystal, experimental, refinement or atomic coordinate data resulting 
# from the CCDC's data processing and validation procedures.
#
#######################################################################

data_NOCBIQ
_symmetry_cell_setting           triclinic
_symmetry_space_group_name_H-M   'P -1'
_symmetry_Int_Tables_number      2
_space_group_name_Hall           '-P 1'
loop_
_symmetry_equiv_pos_site_id
_symmetry_equiv_pos_as_xyz
1 x,y,z
2 -x,-y,-z
_cell_length_a                   7.704(1)
_cell_length_b                   16.410(2)
_cell_length_c                   7.6300(9)
_cell_angle_alpha                91.28(1)
_cell_angle_beta                 90.60(1)
_cell_angle_gamma                96.25(1)
_cell_volume                     958.551
loop_
_atom_site_label
_atom_site_type_symbol
_atom_site_fract_x
_atom_site_fract_y
_atom_site_fract_z
Cu1 Cu 0.25299(9) 0.25259(4) 0.70807(9)
S1 S 0.9962(2) 0.5532(1) 0.7330(3)
S2 S 0.6185(2) 0.5341(1) 0.7159(3)
S3 S 1.1991(4) -0.0354(1) 0.3859(2)
S4 S 1.2202(3) -0.0467(1) 0.0074(2)
N1 N 0.4803(6) 0.3229(3) 0.7143(7)
N2 N 0.2503(6) 0.1768(3) 0.4983(6)
N3 N 0.2268(7) 0.1919(3) 0.9318(6)
N4 N 0.0460(6) 0.3157(3) 0.6883(7)
C1 C 0.8081(7) 0.4860(4) 0.7249(8)
C2 C 0.7880(7) 0.4014(3) 0.7165(7)
C3 C 0.6176(7) 0.3574(3) 0.7162(7)
C4 C 0.9311(7) 0.3526(3) 0.6995(8)
C5 C 1.1721(8) 0.4981(5) 0.797(1)
C6 C 0.6808(10) 0.6392(4) 0.769(1)
C7 C 1.2323(7) 0.1013(3) 0.2000(7)
C8 C 1.2223(8) 0.0166(3) 0.1892(7)
C9 C 1.2427(7) 0.1432(3) 0.3668(7)
C10 C 1.2293(7) 0.1515(4) 0.0506(7)
C11 C 1.238(1) -0.1376(4) 0.340(1)
C12 C 1.304(1) 0.0111(6) -0.1699(9)
H1 H 1.1488 0.4736 0.9105
H2 H 1.1848 0.4537 0.7154
H3 H 1.2785 0.5323 0.8056
H4 H 0.7319 0.6450 0.8839
H5 H 0.7635 0.6625 0.6871
H6 H 0.5808 0.6690 0.7665
H7 H 1.4253 0.0345 -0.1443
H8 H 1.3083 -0.0218 -0.2742
H9 H 1.2398 0.0559 -0.1928
H10 H 1.2274 -0.1692 0.4445
H11 H 1.1565 -0.1627 0.2549
H12 H 1.3536 -0.1396 0.2962
N4_2 N 1.0460(6) 0.3157(3) 0.6883(7)
Cu1_2 Cu 1.25299(9) 0.25259(4) 0.70807(9)
N1_2 N 1.4803(6) 0.3229(3) 0.7143(7)
N2_2 N 1.2503(6) 0.1768(3) 0.4983(6)
N3_2 N 1.2268(7) 0.1919(3) -0.0682(6)
Cu1_3 Cu 1.25299(9) 0.25259(4) -0.29193(9)
N1_3 N 1.4803(6) 0.3229(3) -0.2857(7)
N2_3 N 1.2503(6) 0.1768(3) -0.5017(6)
N4_3 N 1.0460(6) 0.3157(3) -0.3117(7)
N3_3 N 1.2268(7) 0.1919(3) 0.9318(6)
Cl1 Cl 0.7481(2) 0.24696(10) 0.2092(2)
O1 O 0.9031(7) 0.2132(4) 0.2491(9)
O2 O 0.7197(7) 0.3076(3) 0.3417(7)
O3 O 0.764(1) 0.2842(5) 0.0463(8)
O4 O 0.6066(7) 0.1854(4) 0.2057(10)
loop_
_geom_bond_atom_site_label_1
_geom_bond_atom_site_label_2
_geom_bond_site_symmetry_1
_geom_bond_site_symmetry_2
Cu1 N1 1_555 1_555
Cl1 O1 1_555 1_555
S1 C1 1_555 1_555
S2 C1 1_555 1_555
S3 C8 1_555 1_555
S4 C8 1_555 1_555
O2 Cl1 1_555 1_555
O3 Cl1 1_555 1_555
O4 Cl1 1_555 1_555
N1 C3 1_555 1_555
N2 Cu1 1_555 1_555
N3 Cu1 1_555 1_555
N4 Cu1 1_555 1_555
C1 C2 1_555 1_555
C2 C3 1_555 1_555
C4 C2 1_555 1_555
C5 S1 1_555 1_555
C6 S2 1_555 1_555
C7 C8 1_555 1_555
C9 C7 1_555 1_555
C10 C7 1_555 1_555
C11 S3 1_555 1_555
C12 S4 1_555 1_555
H1 C5 1_555 1_555
H2 C5 1_555 1_555
H3 C5 1_555 1_555
H4 C6 1_555 1_555
H5 C6 1_555 1_555
H6 C6 1_555 1_555
H7 C12 1_555 1_555
H8 C12 1_555 1_555
H9 C12 1_555 1_555
H10 C11 1_555 1_555
H11 C11 1_555 1_555
H12 C11 1_555 1_555
N4_2 C4 1_555 1_555
Cu1_2 N4_2 1_555 1_555
N1_2 Cu1_2 1_555 1_555
N2_2 C9 1_555 1_555
N3_2 C10 1_555 1_555
Cu1_3 N3_2 1_555 1_555
N1_3 Cu1_3 1_555 1_555
N2_3 Cu1_3 1_555 1_555
N4_3 Cu1_3 1_555 1_555
N3_3 Cu1_2 1_555 1_555
Cu1_2 N2_2 1_555 1_555

#END
