
#######################################################################
#
#                 Cambridge Crystallographic Data Centre
#                                CCDC 
#
#######################################################################
#
# If this CIF has been generated from an entry in the Cambridge 
# Structural Database, then it will include bibliographic, chemical, 
# crystal, experimental, refinement or atomic coordinate data resulting 
# from the CCDC's data processing and validation procedures.
#
#######################################################################

data_NOCDOY
_symmetry_cell_setting           monoclinic
_symmetry_space_group_name_H-M   'C 2/c'
_symmetry_Int_Tables_number      15
_space_group_name_Hall           '-C 2yn'
loop_
_symmetry_equiv_pos_site_id
_symmetry_equiv_pos_as_xyz
1 x,y,z
2 1/2+x,1/2+y,z
3 x,-y,1/2+z
4 1/2+x,1/2-y,1/2+z
5 -x,-y,-z
6 1/2-x,1/2-y,-z
7 -x,y,1/2-z
8 1/2-x,1/2+y,1/2-z
_cell_length_a                   17.950(3)
_cell_length_b                   13.374(2)
_cell_length_c                   13.277(2)
_cell_angle_alpha                90
_cell_angle_beta                 130.700(10)
_cell_angle_gamma                90
_cell_volume                     2416.42
loop_
_atom_site_label
_atom_site_type_symbol
_atom_site_fract_x
_atom_site_fract_y
_atom_site_fract_z
Cl3 Cl 0.40002(14) 0.3533(2) 0.2009(2)
C9 C 0.5000 0.4268(6) 0.2500
H17 H 0.5333 0.4698 0.3325
Cl3F Cl 0.59998(14) 0.3533(2) 0.2991(2)
H17F H 0.4667 0.4698 0.1675
Ni1 Ni 0.35951(4) 0.80032(4) 0.17364(6)
Cl1 Cl 0.5000 0.68632(11) 0.2500
Cl2 Cl 0.23238(8) 0.67781(8) 0.07699(11)
N1 N 0.4503(3) 0.9102(3) 0.2175(4)
N2 N 0.2812(3) 0.9323(3) 0.1617(4)
N3 N 0.4024(3) 0.7852(3) 0.3673(4)
C1 C 0.4226(3) 1.0052(3) 0.2016(4)
C2 C 0.3138(3) 1.0185(3) 0.1283(5)
H1 H 0.3031(3) 1.0806(3) 0.1550(5)
H2 H 0.2766(3) 1.0209(3) 0.0332(5)
C3 C 0.3141(4) 0.9446(4) 0.2964(5)
H3 H 0.2655(4) 0.9825(4) 0.2910(5)
H4 H 0.3755(4) 0.9813(4) 0.3521(5)
C4 C 0.3281(3) 0.8441(4) 0.3570(5)
H5 H 0.3490(3) 0.8528(4) 0.4447(5)
H6 H 0.2661(3) 0.8082(4) 0.3027(5)
C5 C 0.5000 1.0684(5) 0.2500
C6 C 0.1723(3) 0.9258(4) 0.0624(5)
H7 H 0.1505(3) 0.8738(16) 0.0876(17)
H8 H 0.1516(3) 0.9109(23) -0.0234(7)
H9 H 0.1445(3) 0.9884(8) 0.0586(22)
C7 C 0.5012(3) 0.8246(4) 0.4733(5)
H10 H 0.5486(4) 0.7848(14) 0.4798(21)
H11 H 0.5147(9) 0.8224(22) 0.5562(7)
H12 H 0.5048(7) 0.8925(8) 0.4534(16)
C8 C 0.3992(4) 0.6810(4) 0.4008(5)
H13 H 0.3348(8) 0.6539(8) 0.3328(16)
H14 H 0.4138(23) 0.6795(4) 0.4844(16)
H15 H 0.4469(16) 0.6419(6) 0.4070(31)
H16 H 0.5000 1.1445(70) 0.2500
Ni1F Ni 0.64049(4) 0.80032(4) 0.32636(6)
Cl2F Cl 0.76762(8) 0.67781(8) 0.42301(11)
Ni1C Ni 0.85951(4) 0.69968(4) 0.67364(6)
Cl1C Cl 1.0000 0.81368(11) 0.7500
Cl2C Cl 0.73238(8) 0.82219(8) 0.57699(11)
N1F N 0.5497(3) 0.9102(3) 0.2825(4)
C1F C 0.5774(3) 1.0052(3) 0.2984(4)
C2F C 0.6862(3) 1.0185(3) 0.3717(5)
N2F N 0.7188(3) 0.9323(3) 0.3383(4)
N3F N 0.5976(3) 0.7852(3) 0.1327(4)
C4F C 0.6719(3) 0.8441(4) 0.1430(5)
C3F C 0.6859(4) 0.9446(4) 0.2036(5)
C6F C 0.8277(3) 0.9258(4) 0.4376(5)
H7F H 0.8495(3) 0.8738(16) 0.4124(17)
H8F H 0.8484(3) 0.9109(23) 0.5234(7)
H9F H 0.8555(3) 0.9884(8) 0.4414(22)
H3F H 0.7345(4) 0.9825(4) 0.2090(5)
H4F H 0.6245(4) 0.9813(4) 0.1479(5)
H5F H 0.6510(3) 0.8528(4) 0.0553(5)
H6F H 0.7339(3) 0.8082(4) 0.1973(5)
C7F C 0.4988(3) 0.8246(4) 0.0267(5)
H10F H 0.4514(4) 0.7848(14) 0.0202(21)
H11F H 0.4853(9) 0.8224(22) -0.0562(7)
H12F H 0.4952(7) 0.8925(8) 0.0466(16)
C8F C 0.6008(4) 0.6810(4) 0.0992(5)
H13F H 0.6652(8) 0.6539(8) 0.1672(16)
H14F H 0.5862(23) 0.6795(4) 0.0156(16)
H15F H 0.5531(16) 0.6419(6) 0.0930(31)
H1F H 0.6969(3) 1.0806(3) 0.3450(5)
H2F H 0.7234(3) 1.0209(3) 0.4668(5)
Ni1E Ni 0.14049(4) 0.69968(4) -0.17364(6)
loop_
_geom_bond_atom_site_label_1
_geom_bond_atom_site_label_2
_geom_bond_site_symmetry_1
_geom_bond_site_symmetry_2
Ni1 Cl1 1_555 1_555
Cl1 Ni1F 1_555 1_555
Cl2 Ni1 1_555 1_555
Cl3 C9 1_555 1_555
N1 Ni1 1_555 1_555
N2 Ni1 1_555 1_555
N3 Ni1 1_555 1_555
C1 N1 1_555 1_555
C2 N2 1_555 1_555
H1 C2 1_555 1_555
H2 C2 1_555 1_555
C3 N2 1_555 1_555
H3 C3 1_555 1_555
H4 C3 1_555 1_555
C4 N3 1_555 1_555
H5 C4 1_555 1_555
H6 C4 1_555 1_555
C5 C1 1_555 1_555
C6 N2 1_555 1_555
H7 C6 1_555 1_555
H8 C6 1_555 1_555
H9 C6 1_555 1_555
C7 N3 1_555 1_555
H10 C7 1_555 1_555
H11 C7 1_555 1_555
H12 C7 1_555 1_555
C8 N3 1_555 1_555
H13 C8 1_555 1_555
H14 C8 1_555 1_555
H15 C8 1_555 1_555
C9 H17 1_555 1_555
H16 C5 1_555 1_555
Ni1F Cl2F 1_555 1_555
Cl2F Ni1C 1_555 1_555
Ni1C Cl1C 1_555 1_555
Cl2C Ni1F 1_555 1_555
N1F N1 1_555 1_555
C1F C5 1_555 1_555
C2F C1F 1_555 1_555
N2F Ni1F 1_555 1_555
N3F Ni1F 1_555 1_555
C4F N3F 1_555 1_555
C3F N2F 1_555 1_555
C6F N2F 1_555 1_555
H7F C6F 1_555 1_555
H8F C6F 1_555 1_555
H9F C6F 1_555 1_555
H3F C3F 1_555 1_555
H4F C3F 1_555 1_555
H5F C4F 1_555 1_555
H6F C4F 1_555 1_555
C7F N3F 1_555 1_555
H10F C7F 1_555 1_555
H11F C7F 1_555 1_555
H12F C7F 1_555 1_555
C8F N3F 1_555 1_555
H13F C8F 1_555 1_555
H14F C8F 1_555 1_555
H15F C8F 1_555 1_555
H1F C2F 1_555 1_555
H2F C2F 1_555 1_555
Ni1E Cl2 1_555 1_555
Cl3F C9 1_555 1_555
H17F C9 1_555 1_555
C1 C2 1_555 1_555
C3 C4 1_555 1_555
Ni1F N1F 1_555 1_555
Ni1C Cl2C 1_555 1_555
N1F C1F 1_555 1_555
C2F N2F 1_555 1_555
C4F C3F 1_555 1_555

#END
