
#######################################################################
#
#                 Cambridge Crystallographic Data Centre
#                                CCDC 
#
#######################################################################
#
# If this CIF has been generated from an entry in the Cambridge 
# Structural Database, then it will include bibliographic, chemical, 
# crystal, experimental, refinement or atomic coordinate data resulting 
# from the CCDC's data processing and validation procedures.
#
#######################################################################

data_NOCFAO
_symmetry_cell_setting           monoclinic
_symmetry_space_group_name_H-M   'P 21/n'
_symmetry_Int_Tables_number      14
_space_group_name_Hall           '-P 2yn'
loop_
_symmetry_equiv_pos_site_id
_symmetry_equiv_pos_as_xyz
1 x,y,z
2 1/2-x,1/2+y,1/2-z
3 -x,-y,-z
4 1/2+x,1/2-y,1/2+z
_cell_length_a                   8.9980(9)
_cell_length_b                   7.7962(9)
_cell_length_c                   18.1677(18)
_cell_angle_alpha                90
_cell_angle_beta                 101.649(10)
_cell_angle_gamma                90
_cell_volume                     1248.22
loop_
_atom_site_label
_atom_site_type_symbol
_atom_site_fract_x
_atom_site_fract_y
_atom_site_fract_z
C1 C -0.3795(10) 1.2182(12) 0.4074(5)
C2 C -0.2443(10) 1.1435(11) 0.3832(5)
C3 C -0.2053(9) 1.1096(11) 0.3151(5)
C4 C -0.2828(9) 1.1166(11) 0.2347(5)
C5 C 0.2808(10) 0.7113(12) 0.2521(5)
H1 H 0.2565 0.6911 0.2006
C6 C 0.3878(10) 0.7043(13) 0.3649(5)
H2 H 0.4551 0.6784 0.4094
Co1 Co -0.00398(12) 0.92068(15) 0.23733(6)
Co2 Co 0.18504(13) 0.90150(16) 0.45365(6)
N1 N -0.1276(8) 1.0889(10) 0.4369(4)
N2 N -0.0213(8) 1.0253(10) 0.4042(4)
N3 N -0.0661(8) 1.0376(9) 0.3296(4)
N4 N 0.2737(8) 0.8114(10) 0.3612(4)
N5 N 0.2040(8) 0.8168(10) 0.2872(4)
N6 N 0.3978(8) 0.6361(10) 0.2984(4)
O1 O -0.3774(7) 1.2068(9) 0.4763(3)
O2 O -0.4832(7) 1.2857(8) 0.3622(3)
O3 O -0.4031(7) 1.1959(8) 0.2159(3)
O4 O -0.2209(7) 1.0296(9) 0.1898(3)
O5 O 0.2974(8) 1.1354(9) 0.4609(4)
H3 H 0.3944 1.1230 0.4801
H4 H 0.2600 1.2077 0.4894
O6 O 0.0636(8) 0.6619(9) 0.4344(4)
H5 H -0.016(6) 0.650(12) 0.452(4)
H6 H 0.055(15) 0.621(16) 0.390(3)
Co1A Co -0.49602(12) 1.42068(15) 0.26267(6)
Co1A_2 Co 0.50398(12) 0.42068(15) 0.26267(6)
Co2B Co -0.18504(13) 1.09850(16) 0.54635(6)
N1B N 0.1276(8) 0.9111(10) 0.5631(4)
N6A N 0.1022(8) 1.1361(10) 0.2016(4)
O1B O 0.3774(7) 0.7932(9) 0.5237(3)
O2A O -0.0168(7) 0.7857(8) 0.1378(3)
O3A O -0.0969(7) 0.6959(8) 0.2841(3)
O7 O 0.7809(8) 0.5936(9) 0.4632(4)
loop_
_geom_bond_atom_site_label_1
_geom_bond_atom_site_label_2
_geom_bond_site_symmetry_1
_geom_bond_site_symmetry_2
C1 C2 1_555 1_555
C2 C3 1_555 1_555
C3 C4 1_555 1_555
C4 O3 1_555 1_555
C5 H1 1_555 1_555
C6 H2 1_555 1_555
Co1 N3 1_555 1_555
Co2 N2 1_555 1_555
N1 C2 1_555 1_555
N2 N1 1_555 1_555
N3 C3 1_555 1_555
N4 C6 1_555 1_555
N5 C5 1_555 1_555
N6 C5 1_555 1_555
O1 C1 1_555 1_555
O2 C1 1_555 1_555
O3 Co1A 1_555 1_555
O4 C4 1_555 1_555
O5 Co2 1_555 1_555
H3 O5 1_555 1_555
H4 O5 1_555 1_555
O6 Co2 1_555 1_555
H5 O6 1_555 1_555
H6 O6 1_555 1_555
Co1A O2 1_555 1_555
Co1A_2 N6 1_555 1_555
Co2B N1 1_555 1_555
N1B Co2 1_555 1_555
N6A Co1 1_555 1_555
O1B Co2 1_555 1_555
O2A Co1 1_555 1_555
O3A Co1 1_555 1_555
C6 N6 1_555 1_555
Co1 N5 1_555 1_555
Co1 O4 1_555 1_555
Co2 N4 1_555 1_555
N2 N3 1_555 1_555
N4 N5 1_555 1_555
O1 Co2B 1_555 1_555

#END
