
#######################################################################
#
#                 Cambridge Crystallographic Data Centre
#                                CCDC 
#
#######################################################################
#
# If this CIF has been generated from an entry in the Cambridge 
# Structural Database, then it will include bibliographic, chemical, 
# crystal, experimental, refinement or atomic coordinate data resulting 
# from the CCDC's data processing and validation procedures.
#
#######################################################################

data_NOCHUJ
_symmetry_cell_setting           monoclinic
_symmetry_space_group_name_H-M   'P 21/c'
_symmetry_Int_Tables_number      14
_space_group_name_Hall           '-P 2ybc'
loop_
_symmetry_equiv_pos_site_id
_symmetry_equiv_pos_as_xyz
1 x,y,z
2 -x,1/2+y,1/2-z
3 -x,-y,-z
4 x,1/2-y,1/2+z
_cell_length_a                   18.2394(12)
_cell_length_b                   15.8743(11)
_cell_length_c                   19.9582(13)
_cell_angle_alpha                90
_cell_angle_beta                 110.019(1)
_cell_angle_gamma                90
_cell_volume                     5429.5
loop_
_atom_site_label
_atom_site_type_symbol
_atom_site_fract_x
_atom_site_fract_y
_atom_site_fract_z
Cu1 Cu 0.823597(13) 0.234578(15) -0.002221(13)
Cu2 Cu 0.668990(13) 0.259342(15) 0.012266(12)
O1 O 0.71584(8) 0.24979(9) -0.06312(7)
O2 O 0.77736(8) 0.24559(9) 0.07330(7)
N1 N 0.84903(10) 0.28406(12) -0.08559(9)
H1 H 0.8688 0.3377 -0.0748
H2 H 0.8856 0.2514 -0.0957
N2 N 0.81892(10) 0.09496(11) -0.01385(9)
N3 N 0.93370(10) 0.24175(11) 0.06461(9)
N4 N 0.64377(10) 0.21743(12) 0.09755(9)
H3 H 0.6096 0.2536 0.1077
H4 H 0.6212 0.1649 0.0884
N5 N 0.67164(10) -0.59904(11) 0.01706(9)
N6 N 1.55958(9) 0.24977(11) 0.44561(9)
C1 C 0.86120(12) 0.04425(14) 0.03903(12)
H5 H 0.9038 0.0680 0.0762
C2 C 0.95209(11) 0.28692(13) 0.12504(11)
H6 H 0.9114 0.3142 0.1363
C3 C 0.84615(12) -0.04069(14) 0.04233(11)
H7 H 0.8780 -0.0739 0.0809
C4 C 1.02779(11) 0.29525(14) 0.17147(11)
H8 H 1.0385 0.3283 0.2134
C5 C 0.78363(12) -0.07742(13) -0.01169(11)
C6 C 1.08848(11) 0.25514(13) 0.15672(11)
C7 C 0.74032(13) -0.02472(13) -0.06739(11)
H9 H 0.6980 -0.0468 -0.1059
C8 C 1.06887(12) 0.20838(14) 0.09361(11)
H10 H 1.1083 0.1801 0.0812
C9 C 0.75945(12) 0.05979(13) -0.06612(11)
H11 H 0.7290 0.0946 -0.1042
C10 C 0.99211(12) 0.20350(14) 0.04949(11)
H12 H 0.9799 0.1719 0.0066
C11 C 0.76396(12) -0.16738(13) -0.00912(10)
C12 C 1.17010(11) 0.25974(13) 0.20598(11)
C13 C 0.82193(12) -0.22621(13) 0.02575(11)
H13 H 0.8745 -0.2083 0.0470
C14 C 1.18665(12) 0.26442(15) 0.27974(12)
H14 H 1.1450 0.2679 0.2980
C15 C 0.80305(12) -0.30996(13) 0.02931(11)
H15 H 0.8431 -0.3490 0.0530
C16 C 1.26274(12) 0.26407(15) 0.32616(11)
H16 H 1.2729 0.2661 0.3761
C17 C 0.72595(12) -0.33856(13) -0.00131(11)
C18 C 1.32502(11) 0.26069(13) 0.30042(11)
C19 C 0.66850(12) -0.27970(13) -0.03732(11)
H17 H 0.6161 -0.2979 -0.0595
C20 C 1.30864(12) 0.25891(15) 0.22662(11)
H18 H 1.3503 0.2585 0.2082
C21 C 0.68694(12) -0.19570(13) -0.04097(11)
H19 H 0.6471 -0.1568 -0.0653
C22 C 1.23223(12) 0.25775(14) 0.18027(11)
H20 H 1.2220 0.2556 0.1303
C23 C 0.70618(11) -0.42763(13) 0.00598(11)
C24 C 1.40625(11) 0.25809(13) 0.35041(11)
C25 C 0.75235(12) -0.47790(13) 0.06233(11)
H21 H 0.7963 -0.4544 0.0983
C26 C 1.42536(11) 0.21199(14) 0.41384(11)
H22 H 1.3860 0.1822 0.4253
C27 C 0.73364(12) -0.56191(13) 0.06541(11)
H23 H 0.7662 -0.5951 0.1036
C28 C 1.50140(11) 0.20996(14) 0.45958(11)
H24 H 1.5133 0.1792 0.5028
C29 C 0.62632(12) -0.55001(14) -0.03597(12)
H25 H 0.5816 -0.5747 -0.0701
C30 C 1.54182(12) 0.29418(14) 0.38466(11)
H26 H 1.5825 0.3226 0.3743
C31 C 0.64097(12) -0.46597(14) -0.04363(12)
H27 H 0.6071 -0.4344 -0.0823
C32 C 1.46642(12) 0.29999(15) 0.33649(11)
H28 H 1.4559 0.3324 0.2942
C33 C 0.77507(12) 0.28592(15) -0.14769(11)
H29 H 0.7659 0.2306 -0.1720
H30 H 0.7780 0.3294 -0.1823
C34 C 0.70921(12) 0.30622(14) -0.11992(11)
H31 H 0.7135 0.3652 -0.1028
H32 H 0.6581 0.2991 -0.1583
C35 C 0.71834(13) 0.21336(16) 0.15868(11)
H33 H 0.7146 0.1710 0.1938
H34 H 0.7302 0.2688 0.1827
C36 C 0.78179(12) 0.18899(15) 0.12942(11)
H35 H 0.8336 0.1928 0.1673
H36 H 0.7739 0.1304 0.1114
Cu1_2 Cu 0.823597(13) -0.765422(15) -0.002221(13)
Cu1_3 Cu 0.823597(13) 1.234578(15) -0.002221(13)
Cu1C Cu -0.176403(13) 0.265422(15) -0.502221(13)
Cu2_2 Cu 0.668990(13) -0.740658(15) 0.012266(12)
Cu2C Cu 1.668990(13) 0.240658(15) 0.512266(12)
O1_2 O 0.71584(8) -0.75021(9) -0.06312(7)
O2_2 O 0.77736(8) -0.75441(9) 0.07330(7)
N1_2 N 0.84903(10) -0.71594(12) -0.08559(9)
H1_2 H 0.8688 -0.6623 -0.0748
H2_2 H 0.8856 -0.7486 -0.0957
N2_2 N 0.81892(10) 1.09496(11) -0.01385(9)
N2_3 N 0.81892(10) -0.90504(11) -0.01385(9)
N3C N -0.06630(10) 0.25825(11) -0.43539(9)
N3_2 N 0.93370(10) -0.75825(11) 0.06461(9)
N4_2 N 0.64377(10) -0.78257(12) 0.09755(9)
H3_2 H 0.6096 -0.7464 0.1077
H4_2 H 0.6212 -0.8351 0.0884
N5_2 N 0.67164(10) 0.40096(11) 0.01706(9)
N6C N 0.55958(9) 0.25023(11) -0.05439(9)
N6C_2 N 0.55958(9) -0.74977(11) -0.05439(9)
C1_2 C 0.86120(12) 1.04425(14) 0.03903(12)
H5_2 H 0.9038 1.0680 0.0762
C2C C -0.04791(11) 0.21308(13) -0.37496(11)
H6C H -0.0886 0.1858 -0.3637
C3_2 C 0.84615(12) 0.95931(14) 0.04233(11)
H7_2 H 0.8780 0.9261 0.0809
C4C C 0.02779(11) 0.20475(14) -0.32853(11)
H8C H 0.0385 0.1717 -0.2866
C5_2 C 0.78363(12) 0.92258(13) -0.01169(11)
C6C C 0.08848(11) 0.24486(13) -0.34328(11)
C7_2 C 0.74032(13) 0.97528(13) -0.06739(11)
H9_2 H 0.6980 0.9532 -0.1059
C8C C 0.06887(12) 0.29162(14) -0.40639(11)
H10C H 0.1083 0.3199 -0.4188
C9_2 C 0.75945(12) 1.05979(13) -0.06612(11)
H11_2 H 0.7290 1.0946 -0.1042
C10C C -0.00789(12) 0.29650(14) -0.45051(11)
H12C H -0.0201 0.3281 -0.4934
C11_2 C 0.76396(12) 0.83262(13) -0.00912(10)
C12C C 0.17010(11) 0.24026(13) -0.29402(11)
C13_2 C 0.82193(12) 0.77379(13) 0.02575(11)
H13_2 H 0.8745 0.7917 0.0470
C14C C 0.18665(12) 0.23558(15) -0.22026(12)
H14C H 0.1450 0.2321 -0.2020
C15_2 C 0.80305(12) 0.69004(13) 0.02931(11)
H15_2 H 0.8431 0.6510 0.0530
C16C C 0.26274(12) 0.23593(15) -0.17384(11)
H16C H 0.2729 0.2339 -0.1239
C17_2 C 0.72595(12) 0.66144(13) -0.00131(11)
C18C C 0.32502(11) 0.23931(13) -0.19958(11)
C19_2 C 0.66850(12) 0.72030(13) -0.03732(11)
H17_2 H 0.6161 0.7021 -0.0595
C20C C 0.30864(12) 0.24109(15) -0.27338(11)
H18C H 0.3503 0.2415 -0.2918
C21_2 C 0.68694(12) 0.80430(13) -0.04097(11)
H19_2 H 0.6471 0.8432 -0.0653
C22C C 0.23223(12) 0.24225(14) -0.31973(11)
H20C H 0.2220 0.2444 -0.3697
C23_2 C 0.70618(11) 0.57237(13) 0.00598(11)
C24C C 0.40625(11) 0.24191(13) -0.14959(11)
C25_2 C 0.75235(12) 0.52210(13) 0.06233(11)
H21_2 H 0.7963 0.5456 0.0983
C26C C 0.42536(11) 0.28801(14) -0.08616(11)
H22C H 0.3860 0.3178 -0.0747
C27_2 C 0.73364(12) 0.43809(13) 0.06541(11)
H23_2 H 0.7662 0.4049 0.1036
C28C C 0.50140(11) 0.29004(14) -0.04042(11)
H24C H 0.5133 0.3208 0.0028
C29_2 C 0.62632(12) 0.44999(14) -0.03597(12)
H25_2 H 0.5816 0.4253 -0.0701
C30C C 0.54182(12) 0.20582(14) -0.11534(11)
H26C H 0.5825 0.1774 -0.1257
C31_2 C 0.64097(12) 0.53403(14) -0.04363(12)
H27_2 H 0.6071 0.5656 -0.0823
C32C C 0.46642(12) 0.20001(15) -0.16351(11)
H28C H 0.4559 0.1676 -0.2058
C33_2 C 0.77507(12) -0.71408(15) -0.14769(11)
H29_2 H 0.7659 -0.7694 -0.1720
H30_2 H 0.7780 -0.6706 -0.1823
C34_2 C 0.70921(12) -0.69378(14) -0.11992(11)
H31_2 H 0.7135 -0.6348 -0.1028
H32_2 H 0.6581 -0.7009 -0.1583
C35_2 C 0.71834(13) -0.78664(16) 0.15868(11)
H33_2 H 0.7146 -0.8290 0.1938
H34_2 H 0.7302 -0.7312 0.1827
C36_2 C 0.78179(12) -0.81101(15) 0.12942(11)
H35_2 H 0.8336 -0.8072 0.1673
H36_2 H 0.7739 -0.8696 0.1114
N7 N 1.26250(13) 0.48673(14) 0.26095(12)
C37 C 1.18906(16) 0.49832(16) 0.25988(14)
H37 H 1.1812 0.5049 0.3042
C38 C 1.12458(15) 0.50122(15) 0.19866(13)
H38 H 1.0744 0.5108 0.2016
C39 C 1.13287(14) 0.49010(14) 0.13205(13)
C40 C 1.20847(15) 0.47591(16) 0.13295(14)
H39 H 1.2177 0.4668 0.0895
C41 C 1.27042(16) 0.47502(16) 0.19710(15)
H40 H 1.3214 0.4656 0.1958
C42 C 1.06480(14) 0.49448(14) 0.06459(12)
C43 C 0.98820(14) 0.48426(15) 0.06373(13)
H41 H 0.9793 0.4735 0.1072
C44 C 1.07474(14) 0.51053(15) -0.00093(13)
H42 H 1.1260 0.5180 -0.0021
N7B N 0.73750(13) 0.51327(14) -0.26095(12)
C37B C 0.81094(16) 0.50168(16) -0.25988(14)
H37B H 0.8188 0.4951 -0.3042
C38B C 0.87542(15) 0.49878(15) -0.19866(13)
H38B H 0.9256 0.4892 -0.2016
C39B C 0.86713(14) 0.50990(14) -0.13205(13)
C40B C 0.79153(15) 0.52409(16) -0.13295(14)
H39B H 0.7823 0.5332 -0.0895
C41B C 0.72958(16) 0.52498(16) -0.19710(15)
H40B H 0.6786 0.5344 -0.1958
C42B C 0.93520(14) 0.50552(14) -0.06459(12)
C43B C 1.01180(14) 0.51574(15) -0.06373(13)
H41B H 1.0207 0.5265 -0.1072
C44B C 0.92526(14) 0.48947(15) 0.00093(13)
H42B H 0.8740 0.4820 0.0021
S1 S 0.44564(4) -0.11648(4) 0.30306(3)
F1 F 0.42857(15) 0.02721(15) 0.35779(15)
F2 F 0.32239(11) -0.04120(16) 0.31140(11)
F3 F 0.37441(14) 0.02095(16) 0.24427(14)
O3 O 0.39430(12) -0.16309(15) 0.24443(11)
O4 O 0.51583(11) -0.08548(14) 0.29433(10)
O5 O 0.45873(12) -0.15284(13) 0.37221(10)
C45 C 0.39015(18) -0.0221(2) 0.30468(17)
S2 S 1.04253(3) -0.01352(4) 0.22719(3)
F4 F 1.08405(12) -0.00671(13) 0.11440(10)
F5 F 1.15785(10) -0.08489(11) 0.19887(12)
F6 F 1.16654(10) 0.04964(12) 0.20770(11)
O6 O 0.99498(10) -0.08583(11) 0.19498(9)
O7 O 1.00332(12) 0.06544(12) 0.20614(11)
O8 O 1.08556(12) -0.02357(15) 0.30163(10)
C46 C 1.11696(16) -0.01363(17) 0.18492(16)
O9 O 1.01839(11) -0.22974(12) 0.12664(10)
H43 H 1.0169 -0.1846 0.1481
C47 C 1.01244(17) -0.29899(18) 0.16934(15)
H44 H 1.0567 -0.2983 0.2143
H45 H 1.0130 -0.3516 0.1439
H46 H 0.9636 -0.2949 0.1794
O10 O 0.48252(16) 0.0979(2) 0.12645(15)
H47 H 0.5120 0.0602 0.1205
C48 C 0.5109(2) 0.1257(3) 0.1973(2)
H48 H 0.5559 0.1627 0.2042
H49 H 0.5268 0.0771 0.2293
H50 H 0.4699 0.1568 0.2080
O11 O 0.61678(12) 0.02604(13) 0.10964(11)
H51 H 0.6506 0.0117 0.1484
C49 C 0.6150(2) -0.0329(2) 0.05663(17)
H52 H 0.5974 -0.0052 0.0099
H53 H 0.5790 -0.0786 0.0568
H54 H 0.6675 -0.0560 0.0662
loop_
_geom_bond_atom_site_label_1
_geom_bond_atom_site_label_2
_geom_bond_site_symmetry_1
_geom_bond_site_symmetry_2
Cu1 O1 1_555 1_555
Cu2 O1 1_555 1_555
O1 C34 1_555 1_555
O2 Cu1 1_555 1_555
N1 Cu1 1_555 1_555
H1 N1 1_555 1_555
H2 N1 1_555 1_555
N2 Cu1 1_555 1_555
N3 Cu1 1_555 1_555
N4 Cu2 1_555 1_555
H3 N4 1_555 1_555
H4 N4 1_555 1_555
N5 C27 1_555 1_555
N6 C28 1_555 1_555
C1 N2 1_555 1_555
H5 C1 1_555 1_555
C2 N3 1_555 1_555
H6 C2 1_555 1_555
C3 C1 1_555 1_555
H7 C3 1_555 1_555
C4 C2 1_555 1_555
H8 C4 1_555 1_555
C5 C3 1_555 1_555
C6 C4 1_555 1_555
C7 C5 1_555 1_555
H9 C7 1_555 1_555
C8 C6 1_555 1_555
H10 C8 1_555 1_555
C9 N2 1_555 1_555
H11 C9 1_555 1_555
C10 N3 1_555 1_555
H12 C10 1_555 1_555
C11 C5 1_555 1_555
C12 C6 1_555 1_555
C13 C11 1_555 1_555
H13 C13 1_555 1_555
C14 C12 1_555 1_555
H14 C14 1_555 1_555
C15 C13 1_555 1_555
H15 C15 1_555 1_555
C16 C14 1_555 1_555
H16 C16 1_555 1_555
C17 C15 1_555 1_555
C18 C16 1_555 1_555
C19 C17 1_555 1_555
H17 C19 1_555 1_555
C20 C18 1_555 1_555
H18 C20 1_555 1_555
C21 C11 1_555 1_555
H19 C21 1_555 1_555
C22 C12 1_555 1_555
H20 C22 1_555 1_555
C23 C17 1_555 1_555
C24 C18 1_555 1_555
C25 C23 1_555 1_555
H21 C25 1_555 1_555
C26 C24 1_555 1_555
H22 C26 1_555 1_555
C27 C25 1_555 1_555
H23 C27 1_555 1_555
C28 C26 1_555 1_555
H24 C28 1_555 1_555
C29 N5 1_555 1_555
H25 C29 1_555 1_555
C30 N6 1_555 1_555
H26 C30 1_555 1_555
C31 C23 1_555 1_555
H27 C31 1_555 1_555
C32 C24 1_555 1_555
H28 C32 1_555 1_555
C33 N1 1_555 1_555
H29 C33 1_555 1_555
H30 C33 1_555 1_555
C34 C33 1_555 1_555
H31 C34 1_555 1_555
H32 C34 1_555 1_555
C35 N4 1_555 1_555
H33 C35 1_555 1_555
H34 C35 1_555 1_555
C36 O2 1_555 1_555
H35 C36 1_555 1_555
H36 C36 1_555 1_555
N7 C37 1_555 1_555
C37 H37 1_555 1_555
C38 C37 1_555 1_555
H38 C38 1_555 1_555
C39 C38 1_555 1_555
C40 C39 1_555 1_555
H39 C40 1_555 1_555
C41 N7 1_555 1_555
H40 C41 1_555 1_555
C42 C39 1_555 1_555
C43 C42 1_555 1_555
H41 C43 1_555 1_555
C44 C42 1_555 1_555
H42 C44 1_555 1_555
S1 O3 1_555 1_555
F1 C45 1_555 1_555
F2 C45 1_555 1_555
F3 C45 1_555 1_555
O4 S1 1_555 1_555
O5 S1 1_555 1_555
C45 S1 1_555 1_555
S2 O6 1_555 1_555
F4 C46 1_555 1_555
F5 C46 1_555 1_555
F6 C46 1_555 1_555
O7 S2 1_555 1_555
O8 S2 1_555 1_555
C46 S2 1_555 1_555
O9 H43 1_555 1_555
C47 O9 1_555 1_555
H44 C47 1_555 1_555
H45 C47 1_555 1_555
H46 C47 1_555 1_555
O10 H47 1_555 1_555
C48 O10 1_555 1_555
H48 C48 1_555 1_555
H49 C48 1_555 1_555
H50 C48 1_555 1_555
O11 H51 1_555 1_555
C49 O11 1_555 1_555
H52 C49 1_555 1_555
H53 C49 1_555 1_555
H54 C49 1_555 1_555
Cu1_2 O1_2 1_555 1_555
Cu1_3 N2_2 1_555 1_555
Cu1C N3C 1_555 1_555
Cu2_2 N5 1_555 1_555
Cu2C N6 1_555 1_555
O1_2 Cu2_2 1_555 1_555
O2_2 Cu1_2 1_555 1_555
N1_2 Cu1_2 1_555 1_555
H1_2 N1_2 1_555 1_555
H2_2 N1_2 1_555 1_555
N2_2 C1_2 1_555 1_555
N2_3 Cu1_2 1_555 1_555
N3C C2C 1_555 1_555
N3_2 Cu1_2 1_555 1_555
N4_2 Cu2_2 1_555 1_555
H3_2 N4_2 1_555 1_555
H4_2 N4_2 1_555 1_555
N5_2 Cu2 1_555 1_555
N6C Cu2 1_555 1_555
N6C_2 Cu2_2 1_555 1_555
C1_2 H5_2 1_555 1_555
C2C H6C 1_555 1_555
C3_2 C1_2 1_555 1_555
H7_2 C3_2 1_555 1_555
C4C C2C 1_555 1_555
H8C C4C 1_555 1_555
C5_2 C3_2 1_555 1_555
C6C C4C 1_555 1_555
C7_2 C5_2 1_555 1_555
H9_2 C7_2 1_555 1_555
C8C C6C 1_555 1_555
H10C C8C 1_555 1_555
C9_2 N2_2 1_555 1_555
H11_2 C9_2 1_555 1_555
C10C N3C 1_555 1_555
H12C C10C 1_555 1_555
C11_2 C5_2 1_555 1_555
C12C C6C 1_555 1_555
C13_2 C11_2 1_555 1_555
H13_2 C13_2 1_555 1_555
C14C C12C 1_555 1_555
H14C C14C 1_555 1_555
C15_2 C13_2 1_555 1_555
H15_2 C15_2 1_555 1_555
C16C C14C 1_555 1_555
H16C C16C 1_555 1_555
C17_2 C15_2 1_555 1_555
C18C C16C 1_555 1_555
C19_2 C17_2 1_555 1_555
H17_2 C19_2 1_555 1_555
C20C C18C 1_555 1_555
H18C C20C 1_555 1_555
C21_2 C11_2 1_555 1_555
H19_2 C21_2 1_555 1_555
C22C C12C 1_555 1_555
H20C C22C 1_555 1_555
C23_2 C17_2 1_555 1_555
C24C C18C 1_555 1_555
C25_2 C23_2 1_555 1_555
H21_2 C25_2 1_555 1_555
C26C C24C 1_555 1_555
H22C C26C 1_555 1_555
C27_2 N5_2 1_555 1_555
H23_2 C27_2 1_555 1_555
C28C N6C 1_555 1_555
H24C C28C 1_555 1_555
C29_2 N5_2 1_555 1_555
H25_2 C29_2 1_555 1_555
C30C N6C 1_555 1_555
H26C C30C 1_555 1_555
C31_2 C23_2 1_555 1_555
H27_2 C31_2 1_555 1_555
C32C C24C 1_555 1_555
H28C C32C 1_555 1_555
C33_2 N1_2 1_555 1_555
H29_2 C33_2 1_555 1_555
H30_2 C33_2 1_555 1_555
C34_2 O1_2 1_555 1_555
H31_2 C34_2 1_555 1_555
H32_2 C34_2 1_555 1_555
C35_2 N4_2 1_555 1_555
H33_2 C35_2 1_555 1_555
H34_2 C35_2 1_555 1_555
C36_2 O2_2 1_555 1_555
H35_2 C36_2 1_555 1_555
H36_2 C36_2 1_555 1_555
N7B C37B 1_555 1_555
C37B H37B 1_555 1_555
C38B C37B 1_555 1_555
H38B C38B 1_555 1_555
C39B C38B 1_555 1_555
C40B C39B 1_555 1_555
H39B C40B 1_555 1_555
C41B N7B 1_555 1_555
H40B C41B 1_555 1_555
C42B C39B 1_555 1_555
C43B C44 1_555 1_555
H41B C43B 1_555 1_555
C44B C43 1_555 1_555
H42B C44B 1_555 1_555
Cu2 O2 1_555 1_555
C7 C9 1_555 1_555
C8 C10 1_555 1_555
C19 C21 1_555 1_555
C20 C22 1_555 1_555
C29 C31 1_555 1_555
C30 C32 1_555 1_555
C35 C36 1_555 1_555
C40 C41 1_555 1_555
Cu2_2 O2_2 1_555 1_555
C7_2 C9_2 1_555 1_555
C8C C10C 1_555 1_555
C19_2 C21_2 1_555 1_555
C20C C22C 1_555 1_555
C25_2 C27_2 1_555 1_555
C26C C28C 1_555 1_555
C29_2 C31_2 1_555 1_555
C30C C32C 1_555 1_555
C33_2 C34_2 1_555 1_555
C35_2 C36_2 1_555 1_555
C40B C41B 1_555 1_555
C42B C43B 1_555 1_555
C42B C44B 1_555 1_555

#END
