
#######################################################################
#
#                 Cambridge Crystallographic Data Centre
#                                CCDC 
#
#######################################################################
#
# If this CIF has been generated from an entry in the Cambridge 
# Structural Database, then it will include bibliographic, chemical, 
# crystal, experimental, refinement or atomic coordinate data resulting 
# from the CCDC's data processing and validation procedures.
#
#######################################################################

data_NOCJEV
_symmetry_cell_setting           triclinic
_symmetry_space_group_name_H-M   'P -1'
_symmetry_Int_Tables_number      2
_space_group_name_Hall           '-P 1'
loop_
_symmetry_equiv_pos_site_id
_symmetry_equiv_pos_as_xyz
1 x,y,z
2 -x,-y,-z
_cell_length_a                   7.943(2)
_cell_length_b                   9.083(2)
_cell_length_c                   11.287(3)
_cell_angle_alpha                88.694(4)
_cell_angle_beta                 83.983(4)
_cell_angle_gamma                84.686(5)
_cell_volume                     806.278
loop_
_atom_site_label
_atom_site_type_symbol
_atom_site_fract_x
_atom_site_fract_y
_atom_site_fract_z
Cu1 Cu 0.61283(8) 0.48469(7) 0.09352(6)
S1 S 0.22407(18) 0.34953(15) 0.21153(13)
F1 F 0.1155(4) 0.0903(4) 0.1804(3)
F2 F 0.3755(5) 0.1051(4) 0.1109(3)
F3 F 0.3107(5) 0.0862(4) 0.3000(3)
O1 O 0.5443(5) 0.3672(4) -0.0285(3)
O2 O 0.3874(5) 0.3927(4) 0.2358(3)
O3 O 0.0921(5) 0.3691(5) 0.3087(4)
O4 O 0.1729(5) 0.3939(4) 0.0961(3)
N1 N 0.8014(6) 0.3204(5) 0.1043(4)
H1 H 0.9052 0.3555 0.0821
H2 H 0.8007 0.2851 0.1814
N2 N 0.7002(6) 0.6179(5) 0.2047(4)
C1 C 0.7343(7) 0.7543(6) 0.1676(5)
H3 H 0.7064 0.7868 0.0909
C2 C 0.2593(7) 0.1493(6) 0.2013(5)
C3 C 0.8072(7) 0.8484(6) 0.2351(5)
H4 H 0.8317 0.9429 0.2037
C4 C 0.8460(6) 0.8075(6) 0.3494(5)
C5 C 0.8088(6) 0.6657(6) 0.3885(5)
H5 H 0.8316 0.6318 0.4659
C6 C 0.7389(7) 0.5756(6) 0.3141(5)
H6 H 0.7170 0.4789 0.3415
C7 C 0.9257(7) 0.9074(6) 0.4254(5)
C8 C 1.0855(7) 0.8628(6) 0.4632(4)
C9 C 1.1809(7) 0.7277(6) 0.4225(5)
H7 H 1.1330 0.6654 0.3711
C10 C 1.3377(7) 0.6875(6) 0.4562(5)
H8 H 1.3989 0.5987 0.4268
C11 C 1.4116(7) 0.7768(6) 0.5350(5)
H9 H 1.5194 0.7456 0.5607
C12 C 1.3270(7) 0.9072(6) 0.5733(5)
H10 H 1.3786 0.9675 0.6241
C13 C 0.8362(7) 1.0447(6) 0.4609(5)
C14 C 0.7733(7) 0.2002(6) 0.0239(5)
H11 H 0.7026 0.1282 0.0674
H12 H 0.8834 0.1475 -0.0068
C15 C 0.6829(7) 0.2712(6) -0.0790(5)
H13 H 0.7619 0.3275 -0.1321
H14 H 0.6415 0.1941 -0.1264
Cu1A Cu 0.38717(8) 0.51531(7) -0.09352(6)
Cu1A_2 Cu 1.38717(8) 1.51531(7) 0.90648(6)
S1A S 0.77593(18) 0.65047(15) -0.21153(13)
F1A F 0.8845(4) 0.9097(4) -0.1804(3)
F2A F 0.6245(5) 0.8949(4) -0.1109(3)
F3A F 0.6893(5) 0.9138(4) -0.3000(3)
O1A O 0.4557(5) 0.6328(4) 0.0285(3)
O2A O 0.6126(5) 0.6073(4) -0.2358(3)
O3A O 0.9079(5) 0.6309(5) -0.3087(4)
O4A O 0.8271(5) 0.6061(4) -0.0961(3)
N1A N 0.1986(6) 0.6796(5) -0.1043(4)
H1A H 0.0948 0.6445 -0.0821
H2A H 0.1993 0.7149 -0.1814
N2A N 1.2998(6) 1.3821(5) 0.7953(4)
N2A_2 N 0.2998(6) 0.3821(5) -0.2047(4)
C1A C 1.2657(7) 1.2457(6) 0.8324(5)
H3A H 1.2936 1.2132 0.9091
C2A C 0.7407(7) 0.8507(6) -0.2013(5)
C3A C 1.1928(7) 1.1516(6) 0.7649(5)
H4A H 1.1683 1.0571 0.7963
C4A C 1.1540(6) 1.1925(6) 0.6506(5)
C5A C 1.1912(6) 1.3343(6) 0.6115(5)
H5A H 1.1684 1.3682 0.5341
C6A C 1.2611(7) 1.4244(6) 0.6859(5)
H6A H 1.2830 1.5211 0.6585
C7A C 1.0743(7) 1.0926(6) 0.5746(5)
C8A C 0.9145(7) 1.1372(6) 0.5368(4)
C9A C 0.8191(7) 1.2723(6) 0.5775(5)
H7A H 0.8670 1.3346 0.6289
C10A C 0.6623(7) 1.3125(6) 0.5438(5)
H8A H 0.6011 1.4013 0.5732
C11A C 0.5884(7) 1.2232(6) 0.4650(5)
H9A H 0.4806 1.2544 0.4393
C12A C 0.6730(7) 1.0928(6) 0.4267(5)
H10A H 0.6214 1.0325 0.3759
C13A C 1.1638(7) 0.9553(6) 0.5391(5)
C14A C 0.2267(7) 0.7998(6) -0.0239(5)
H11A H 0.2974 0.8718 -0.0674
H12A H 0.1166 0.8525 0.0068
C15A C 0.3171(7) 0.7288(6) 0.0790(5)
H13A H 0.2381 0.6725 0.1321
H14A H 0.3585 0.8059 0.1264
loop_
_geom_bond_atom_site_label_1
_geom_bond_atom_site_label_2
_geom_bond_site_symmetry_1
_geom_bond_site_symmetry_2
Cu1 O1 1_555 1_555
S1 O2 1_555 1_555
F1 C2 1_555 1_555
F2 C2 1_555 1_555
F3 C2 1_555 1_555
O1 C15 1_555 1_555
O2 Cu1 1_555 1_555
O3 S1 1_555 1_555
O4 S1 1_555 1_555
N1 Cu1 1_555 1_555
H1 N1 1_555 1_555
H2 N1 1_555 1_555
N2 Cu1 1_555 1_555
C1 N2 1_555 1_555
H3 C1 1_555 1_555
C2 S1 1_555 1_555
C3 C1 1_555 1_555
H4 C3 1_555 1_555
C4 C3 1_555 1_555
C5 C4 1_555 1_555
H5 C5 1_555 1_555
C6 N2 1_555 1_555
H6 C6 1_555 1_555
C7 C4 1_555 1_555
C8 C7 1_555 1_555
C9 C8 1_555 1_555
H7 C9 1_555 1_555
C10 C9 1_555 1_555
H8 C10 1_555 1_555
C11 C10 1_555 1_555
H9 C11 1_555 1_555
C12 C11 1_555 1_555
H10 C12 1_555 1_555
C13 C7 1_555 1_555
C14 N1 1_555 1_555
H11 C14 1_555 1_555
H12 C14 1_555 1_555
C15 C14 1_555 1_555
H13 C15 1_555 1_555
H14 C15 1_555 1_555
Cu1A O1 1_555 1_555
Cu1A_2 N2A 1_555 1_555
S1A O2A 1_555 1_555
F1A C2A 1_555 1_555
F2A C2A 1_555 1_555
F3A C2A 1_555 1_555
O1A Cu1 1_555 1_555
O2A Cu1A 1_555 1_555
O3A S1A 1_555 1_555
O4A Cu1 1_555 1_555
N1A Cu1A 1_555 1_555
H1A N1A 1_555 1_555
H2A N1A 1_555 1_555
N2A C1A 1_555 1_555
N2A_2 Cu1A 1_555 1_555
C1A H3A 1_555 1_555
C2A S1A 1_555 1_555
C3A C1A 1_555 1_555
H4A C3A 1_555 1_555
C4A C3A 1_555 1_555
C5A C4A 1_555 1_555
H5A C5A 1_555 1_555
C6A N2A 1_555 1_555
H6A C6A 1_555 1_555
C7A C4A 1_555 1_555
C8A C13 1_555 1_555
C9A C8A 1_555 1_555
H7A C9A 1_555 1_555
C10A C9A 1_555 1_555
H8A C10A 1_555 1_555
C11A C10A 1_555 1_555
H9A C11A 1_555 1_555
C12A C13 1_555 1_555
H10A C12A 1_555 1_555
C13A C8 1_555 1_555
C14A N1A 1_555 1_555
H11A C14A 1_555 1_555
H12A C14A 1_555 1_555
C15A O1A 1_555 1_555
H13A C15A 1_555 1_555
H14A C15A 1_555 1_555
O4 Cu1A 1_555 1_555
C5 C6 1_555 1_555
C12 C13A 1_555 1_555
Cu1A O1A 1_555 1_555
S1A O4A 1_555 1_555
C5A C6A 1_555 1_555
C7A C8A 1_555 1_555
C7A C13A 1_555 1_555
C11A C12A 1_555 1_555
C14A C15A 1_555 1_555

#END
