
#######################################################################
#
#                 Cambridge Crystallographic Data Centre
#                                CCDC 
#
#######################################################################
#
# If this CIF has been generated from an entry in the Cambridge 
# Structural Database, then it will include bibliographic, chemical, 
# crystal, experimental, refinement or atomic coordinate data resulting 
# from the CCDC's data processing and validation procedures.
#
#######################################################################

data_NOCJIZ
_symmetry_cell_setting           monoclinic
_symmetry_space_group_name_H-M   'C c'
_symmetry_Int_Tables_number      9
_space_group_name_Hall           'C -2yc'
loop_
_symmetry_equiv_pos_site_id
_symmetry_equiv_pos_as_xyz
1 x,y,z
2 x,-y,1/2+z
3 1/2+x,1/2+y,z
4 1/2+x,1/2-y,1/2+z
_cell_length_a                   28.583(3)
_cell_length_b                   12.9499(13)
_cell_length_c                   9.4865(9)
_cell_angle_alpha                90
_cell_angle_beta                 96.586(2)
_cell_angle_gamma                90
_cell_volume                     3488.23
loop_
_atom_site_label
_atom_site_type_symbol
_atom_site_fract_x
_atom_site_fract_y
_atom_site_fract_z
Cu1 Cu 0.76389(2) 0.26146(5) 0.48375(5)
Cu2 Cu 0.82024(2) 0.22664(5) 0.76443(5)
O1 O 0.82188(15) 0.3020(3) 0.5900(5)
O2 O 0.80740(18) 0.1317(4) 0.3272(8)
O3 O 0.70238(19) 0.3491(5) 0.9203(7)
O4 O 0.76173(16) 0.1827(3) 0.6587(5)
O5 O 0.8631(2) 0.1704(4) 0.2004(5)
O6 O 0.76554(16) 0.3094(3) 1.0500(4)
O7 O 0.87753(16) 0.0763(4) 0.3853(5)
O8 O 0.76960(16) 0.3886(3) 0.8523(5)
N1 N 0.77843(18) 0.3737(4) 0.3495(5)
H1 H 0.7736 0.3505 0.2573
H2 H 0.7594 0.4300 0.3584
N2 N 0.70360(18) 0.2072(4) 0.3820(6)
N3 N 0.84802(19) 0.1275(4) 0.3041(6)
N4 N 0.74537(19) 0.3522(4) 0.9452(5)
N5 N 0.80409(17) 0.1222(4) 0.9089(5)
H3 H 0.8247 0.0673 0.9126
H4 H 0.8059 0.1518 0.9975
N6 N 0.37715(17) -0.2108(4) -0.1317(6)
C1 C 0.7002(2) 0.1761(5) 0.2475(6)
H5 H 0.7265 0.1848 0.1957
C2 C 0.6595(2) 0.1314(5) 0.1810(7)
H6 H 0.6582 0.1103 0.0847
C3 C 0.62113(19) 0.1176(4) 0.2540(6)
C4 C 0.6244(2) 0.1523(5) 0.3927(7)
H7 H 0.5985 0.1453 0.4463
C5 C 0.6658(2) 0.1974(5) 0.4523(7)
H8 H 0.6676 0.2225 0.5468
C6 C 0.57806(19) 0.0611(4) 0.1877(6)
C7 C 0.54132(19) 0.1161(4) 0.1096(6)
C8 C 0.5421(3) 0.2258(4) 0.0926(8)
H9 H 0.5688 0.2637 0.1331
C9 C 0.5055(3) 0.2767(5) 0.0194(9)
H10 H 0.5060 0.3499 0.0141
C10 C 0.4665(2) 0.2211(5) -0.0495(8)
H11 H 0.4421 0.2564 -0.1069
C11 C 0.4642(2) 0.1166(5) -0.0324(6)
H12 H 0.4372 0.0805 -0.0748
C12 C 0.50049(19) 0.0605(4) 0.0462(6)
C13 C 0.4986(2) -0.0485(4) 0.0631(6)
C14 C 0.5358(2) -0.1017(4) 0.1406(6)
C15 C 0.5349(2) -0.2105(5) 0.1578(8)
H13 H 0.5082 -0.2483 0.1171
C16 C 0.5713(3) -0.2613(5) 0.2312(9)
H14 H 0.5694 -0.3339 0.2435
C17 C 0.6124(3) -0.2072(6) 0.2901(8)
H15 H 0.6387 -0.2441 0.3347
C18 C 0.6136(2) -0.1037(5) 0.2823(7)
H16 H 0.6399 -0.0677 0.3291
C19 C 0.5762(2) -0.0461(4) 0.2051(6)
C20 C 0.45675(19) -0.1052(4) -0.0038(6)
C21 C 0.4572(2) -0.1564(5) -0.1332(7)
H17 H 0.4849 -0.1560 -0.1800
C22 C 0.4172(2) -0.2078(5) -0.1934(7)
H18 H 0.4182 -0.2422 -0.2814
C23 C 0.3768(2) -0.1635(4) -0.0048(6)
H19 H 0.3488 -0.1661 0.0404
C24 C 0.41537(19) -0.1116(4) 0.0620(6)
H20 H 0.4139 -0.0804 0.1519
C25 C 0.8288(2) 0.4020(5) 0.3876(7)
H21 H 0.8349 0.4718 0.3515
H22 H 0.8495 0.3521 0.3456
C26 C 0.7549(2) 0.0864(5) 0.8629(7)
H23 H 0.7320 0.1330 0.9014
H24 H 0.7503 0.0158 0.8989
C27 C 0.8381(2) 0.3998(4) 0.5462(7)
H25 H 0.8721 0.4079 0.5770
H26 H 0.8209 0.4564 0.5880
C28 C 0.7472(2) 0.0870(5) 0.7019(6)
H27 H 0.7657 0.0314 0.6632
H28 H 0.7135 0.0760 0.6682
O9 O 0.71618(19) 0.4134(5) 0.5860(6)
H29 H 0.7273 0.3937 0.6673
C29 C 0.6723(3) 0.4544(7) 0.5918(10)
H30 H 0.6753 0.5235 0.6340
H31 H 0.6545 0.4099 0.6499
H32 H 0.6558 0.4591 0.4957
O11 O 0.8672(2) 0.0915(4) 0.6709(6)
Cu2B Cu 0.32024(2) -0.27336(5) -0.23557(5)
N6B N 0.87715(17) 0.2892(4) 0.8683(6)
O10 O 0.9834(2) -0.0398(6) 0.4076(7)
H33 H 0.9696 -0.0132 0.3333
C30 C 1.0309(5) -0.0595(9) 0.3890(14)
H34 H 1.0514 -0.0122 0.4486
H35 H 1.0356 -0.0492 0.2892
H36 H 1.0388 -0.1309 0.4165
O12 O 0.9515(2) -0.0724(7) 0.6650(7)
loop_
_geom_bond_atom_site_label_1
_geom_bond_atom_site_label_2
_geom_bond_site_symmetry_1
_geom_bond_site_symmetry_2
Cu1 O1 1_555 1_555
Cu2 O1 1_555 1_555
O1 C27 1_555 1_555
O2 Cu1 1_555 1_555
O3 N4 1_555 1_555
O4 Cu1 1_555 1_555
O5 N3 1_555 1_555
O6 N4 1_555 1_555
O7 N3 1_555 1_555
O8 Cu2 1_555 1_555
N1 Cu1 1_555 1_555
H1 N1 1_555 1_555
H2 N1 1_555 1_555
N2 Cu1 1_555 1_555
N3 O2 1_555 1_555
N4 O8 1_555 1_555
N5 Cu2 1_555 1_555
H3 N5 1_555 1_555
H4 N5 1_555 1_555
N6 C22 1_555 1_555
C1 N2 1_555 1_555
H5 C1 1_555 1_555
C2 C1 1_555 1_555
H6 C2 1_555 1_555
C3 C2 1_555 1_555
C4 C3 1_555 1_555
H7 C4 1_555 1_555
C5 N2 1_555 1_555
H8 C5 1_555 1_555
C6 C3 1_555 1_555
C7 C6 1_555 1_555
C8 C7 1_555 1_555
H9 C8 1_555 1_555
C9 C8 1_555 1_555
H10 C9 1_555 1_555
C10 C9 1_555 1_555
H11 C10 1_555 1_555
C11 C10 1_555 1_555
H12 C11 1_555 1_555
C12 C7 1_555 1_555
C13 C12 1_555 1_555
C14 C13 1_555 1_555
C15 C14 1_555 1_555
H13 C15 1_555 1_555
C16 C15 1_555 1_555
H14 C16 1_555 1_555
C17 C16 1_555 1_555
H15 C17 1_555 1_555
C18 C17 1_555 1_555
H16 C18 1_555 1_555
C19 C6 1_555 1_555
C20 C13 1_555 1_555
C21 C20 1_555 1_555
H17 C21 1_555 1_555
C22 C21 1_555 1_555
H18 C22 1_555 1_555
C23 N6 1_555 1_555
H19 C23 1_555 1_555
C24 C20 1_555 1_555
H20 C24 1_555 1_555
C25 N1 1_555 1_555
H21 C25 1_555 1_555
H22 C25 1_555 1_555
C26 N5 1_555 1_555
H23 C26 1_555 1_555
H24 C26 1_555 1_555
C27 C25 1_555 1_555
H25 C27 1_555 1_555
H26 C27 1_555 1_555
C28 O4 1_555 1_555
H27 C28 1_555 1_555
H28 C28 1_555 1_555
O9 Cu1 1_555 1_555
H29 O9 1_555 1_555
C29 O9 1_555 1_555
H30 C29 1_555 1_555
H31 C29 1_555 1_555
H32 C29 1_555 1_555
O10 H33 1_555 1_555
C30 O10 1_555 1_555
H34 C30 1_555 1_555
H35 C30 1_555 1_555
H36 C30 1_555 1_555
O11 Cu2 1_555 1_555
Cu2B N6 1_555 1_555
N6B Cu2 1_555 1_555
Cu2 O4 1_555 1_555
C4 C5 1_555 1_555
C11 C12 1_555 1_555
C14 C19 1_555 1_555
C18 C19 1_555 1_555
C23 C24 1_555 1_555
C26 C28 1_555 1_555

#END
