
#######################################################################
#
#                 Cambridge Crystallographic Data Centre
#                                CCDC 
#
#######################################################################
#
# If this CIF has been generated from an entry in the Cambridge 
# Structural Database, then it will include bibliographic, chemical, 
# crystal, experimental, refinement or atomic coordinate data resulting 
# from the CCDC's data processing and validation procedures.
#
#######################################################################

data_NOCJUL
_symmetry_cell_setting           monoclinic
_symmetry_space_group_name_H-M   'P 21/n'
_symmetry_Int_Tables_number      14
_space_group_name_Hall           '-P 2yn'
loop_
_symmetry_equiv_pos_site_id
_symmetry_equiv_pos_as_xyz
1 x,y,z
2 1/2-x,1/2+y,1/2-z
3 -x,-y,-z
4 1/2+x,1/2-y,1/2+z
_cell_length_a                   12.3642(13)
_cell_length_b                   10.5636(11)
_cell_length_c                   16.322(2)
_cell_angle_alpha                90
_cell_angle_beta                 90.054(2)
_cell_angle_gamma                90
_cell_volume                     2131.82
loop_
_atom_site_label
_atom_site_type_symbol
_atom_site_fract_x
_atom_site_fract_y
_atom_site_fract_z
Cu1 Cu 0.450518(18) 0.13070(2) 0.990150(14)
S1 S 0.36348(4) 0.43622(6) 0.65026(3)
S2 S 0.46986(4) 0.58108(5) 0.63871(3)
O1 O 0.51015(12) 0.02048(13) 1.07288(8)
N1 N 0.42552(13) 0.23598(15) 0.89158(10)
N2 N 0.77558(14) 0.42303(16) 0.52123(10)
N3 N 0.46663(14) 0.26519(16) 1.07692(10)
H1 H 0.5298 0.3098 1.0695
H2 H 0.4094 0.3208 1.0751
C1 C 0.49261(17) 0.3282(2) 0.86803(13)
H3 H 0.5518 0.3489 0.9027
C2 C 0.48035(17) 0.3953(2) 0.79550(13)
H4 H 0.5299 0.4601 0.7806
C3 C 0.39374(16) 0.36482(19) 0.74563(12)
C4 C 0.32332(17) 0.2685(2) 0.76911(13)
H5 H 0.2638 0.2454 0.7354
C5 C 0.34197(16) 0.2076(2) 0.84240(13)
H6 H 0.2935 0.1426 0.8588
C6 C 0.58578(16) 0.51194(19) 0.59269(11)
C7 C 0.66399(17) 0.59622(19) 0.56531(12)
H7 H 0.6536 0.6850 0.5701
C8 C 0.75713(17) 0.54790(19) 0.53091(12)
H8 H 0.8111 0.6057 0.5131
C9 C 0.69874(16) 0.3431(2) 0.54733(13)
H9 H 0.7104 0.2548 0.5407
C10 C 0.60325(17) 0.3828(2) 0.58341(13)
H10 H 0.5509 0.3231 0.6014
C11 C 0.46853(18) 0.1967(2) 1.15630(13)
H11 H 0.3944 0.1707 1.1718
H12 H 0.4975 0.2523 1.1999
C12 C 0.54033(17) 0.0806(2) 1.14641(12)
H13 H 0.6173 0.1060 1.1442
H14 H 0.5304 0.0223 1.1933
Cu1B Cu 0.549482(18) -0.13070(2) 1.009850(14)
Cu1C Cu 0.950518(18) 0.36930(2) 0.490150(14)
O1B O 0.48985(12) -0.02048(13) 0.92712(8)
N2C N 0.27558(14) 0.07697(16) 1.02123(10)
S3 S 0.74725(5) 0.43525(5) 1.02236(4)
F1 F 0.93359(14) 0.39103(18) 1.09196(13)
F2 F 0.82781(18) 0.5097(2) 1.16202(12)
F3 F 0.90907(16) 0.58432(18) 1.05560(15)
O2 O 0.70438(16) 0.32745(19) 1.06541(16)
O3 O 0.79703(18) 0.4055(2) 0.94470(13)
O4 O 0.67913(15) 0.54625(18) 1.02017(12)
C13 C 0.8606(2) 0.4832(2) 1.08634(19)
O5 O 0.28711(18) 0.4258(2) 1.17586(15)
H15 H 0.2655 0.4868 1.1494
C14 C 0.2062(3) 0.3879(4) 1.2314(2)
H16 H 0.2293 0.3109 1.2599
H17 H 0.1390 0.3710 1.2014
H18 H 0.1938 0.4555 1.2714
loop_
_geom_bond_atom_site_label_1
_geom_bond_atom_site_label_2
_geom_bond_site_symmetry_1
_geom_bond_site_symmetry_2
Cu1 O1 1_555 1_555
S1 S2 1_555 1_555
S2 C6 1_555 1_555
O1 C12 1_555 1_555
N1 Cu1 1_555 1_555
N2 C8 1_555 1_555
N3 Cu1 1_555 1_555
H1 N3 1_555 1_555
H2 N3 1_555 1_555
C1 N1 1_555 1_555
H3 C1 1_555 1_555
C2 C1 1_555 1_555
H4 C2 1_555 1_555
C3 S1 1_555 1_555
C4 C3 1_555 1_555
H5 C4 1_555 1_555
C5 N1 1_555 1_555
H6 C5 1_555 1_555
C6 C7 1_555 1_555
C7 H7 1_555 1_555
C8 C7 1_555 1_555
H8 C8 1_555 1_555
C9 N2 1_555 1_555
H9 C9 1_555 1_555
C10 C6 1_555 1_555
H10 C10 1_555 1_555
C11 N3 1_555 1_555
H11 C11 1_555 1_555
H12 C11 1_555 1_555
C12 C11 1_555 1_555
H13 C12 1_555 1_555
H14 C12 1_555 1_555
S3 O2 1_555 1_555
F1 C13 1_555 1_555
F2 C13 1_555 1_555
F3 C13 1_555 1_555
O3 S3 1_555 1_555
O4 S3 1_555 1_555
C13 S3 1_555 1_555
O5 H15 1_555 1_555
C14 O5 1_555 1_555
H16 C14 1_555 1_555
H17 C14 1_555 1_555
H18 C14 1_555 1_555
Cu1B O1 1_555 1_555
Cu1C N2 1_555 1_555
O1B Cu1 1_555 1_555
N2C Cu1 1_555 1_555
C2 C3 1_555 1_555
C4 C5 1_555 1_555
C9 C10 1_555 1_555
Cu1B O1B 1_555 1_555

#END
