
#######################################################################
#
#                 Cambridge Crystallographic Data Centre
#                                CCDC 
#
#######################################################################
#
# If this CIF has been generated from an entry in the Cambridge 
# Structural Database, then it will include bibliographic, chemical, 
# crystal, experimental, refinement or atomic coordinate data resulting 
# from the CCDC's data processing and validation procedures.
#
#######################################################################

data_NOCJOF
_symmetry_cell_setting           triclinic
_symmetry_space_group_name_H-M   'P -1'
_symmetry_Int_Tables_number      2
_space_group_name_Hall           '-P 1'
loop_
_symmetry_equiv_pos_site_id
_symmetry_equiv_pos_as_xyz
1 x,y,z
2 -x,-y,-z
_cell_length_a                   16.775(2)
_cell_length_b                   17.697(2)
_cell_length_c                   19.447(2)
_cell_angle_alpha                105.702(2)
_cell_angle_beta                 106.851(2)
_cell_angle_gamma                92.785(2)
_cell_volume                     5268.29
loop_
_atom_site_label
_atom_site_type_symbol
_atom_site_fract_x
_atom_site_fract_y
_atom_site_fract_z
Cu1 Cu 0.57655(5) 1.16860(4) 0.83061(5)
Cu2 Cu 0.60751(5) 1.01137(4) 0.74975(5)
O1 O 0.5964(3) 1.0665(2) 0.8469(3)
O2 O 0.5775(3) 1.1102(2) 0.7300(3)
N1 N 0.6425(4) 1.2113(4) 0.9418(4)
H1 H 0.6727 1.2602 0.9528
H2 H 0.6074 1.2153 0.9709
N2 N 0.4399(4) 1.1530(3) 0.8226(4)
N3 N -0.2544(4) 1.0411(3) 0.7743(4)
N4 N 0.6110(4) 1.9036(3) 0.7669(4)
N5 N 0.5654(5) 0.9663(4) 0.6366(4)
H3 H 0.6071 0.9441 0.6194
H4 H 0.5201 0.9276 0.6221
N6 N 0.5736(3) 1.2737(3) 0.8108(3)
C1 C 0.7016(7) 1.1480(6) 0.9541(6)
H5 H 0.7466 1.1521 0.9312
H6 H 0.7280 1.1557 1.0086
C2 C 0.4131(5) 1.1011(5) 0.8526(6)
H7 H 0.4537 1.0749 0.8792
C3 C -0.2278(4) 1.0858(4) 0.7384(5)
H8 H -0.2684 1.1088 0.7080
C4 C 0.6466(5) 1.8473(4) 0.7297(5)
H9 H 0.6774 1.8605 0.6996
C5 C 0.5400(7) 1.0321(6) 0.6044(5)
H10 H 0.4928 1.0116 0.5568
H11 H 0.5878 1.0559 0.5934
C6 C 0.3300(5) 1.0831(6) 0.8472(6)
H12 H 0.3147 1.0452 0.8693
C7 C -0.1444(5) 1.1010(5) 0.7426(5)
H13 H -0.1288 1.1320 0.7144
C8 C 0.6400(5) 1.7706(4) 0.7338(5)
H14 H 0.6656 1.7320 0.7063
C9 C 0.2693(5) 1.1204(4) 0.8096(5)
C10 C -0.0834(4) 1.0694(4) 0.7893(4)
C11 C 0.5964(4) 1.7498(4) 0.7776(4)
C12 C 0.2953(4) 1.1741(4) 0.7778(4)
H15 H 0.2558 1.2011 0.7511
C13 C -0.1112(4) 1.0266(4) 0.8296(5)
H16 H -0.0720 1.0060 0.8635
C14 C 0.5615(4) 1.8089(4) 0.8172(4)
H17 H 0.5308 1.7975 0.8481
C15 C 0.6505(5) 1.0722(5) 0.9189(4)
H18 H 0.6873 1.0303 0.9147
H19 H 0.6167 1.0633 0.9508
C16 C 0.3796(4) 1.1878(4) 0.7854(4)
H20 H 0.3961 1.2245 0.7626
C17 C -0.1947(4) 1.0137(4) 0.8207(4)
H21 H -0.2118 0.9835 0.8488
C18 C 0.5715(4) 1.8844(4) 0.8114(4)
H22 H 0.5492 1.9248 0.8406
C19 C 0.5132(5) 1.0943(5) 0.6613(4)
H23 H 0.5058 1.1430 0.6458
H24 H 0.4594 1.0740 0.6657
C20 C 0.1785(4) 1.1062(4) 0.8060(4)
C21 C 0.5875(4) 1.6665(4) 0.7813(4)
C22 C 0.1308(5) 1.0315(4) 0.7639(5)
C23 C 0.6576(4) 1.6403(4) 0.8232(4)
C24 C 0.1629(6) 0.9675(5) 0.7234(6)
H25 H 0.2206 0.9733 0.7267
C25 C 0.7358(4) 1.6902(4) 0.8631(4)
H26 H 0.7413 1.7432 0.8611
C26 C 0.1129(7) 0.8979(5) 0.6799(7)
H27 H 0.1366 0.8561 0.6540
C27 C 0.8028(5) 1.6638(4) 0.9038(5)
H28 H 0.8543 1.6981 0.9297
C28 C 0.0281(6) 0.8867(5) 0.6729(7)
H29 H -0.0058 0.8380 0.6419
C29 C 0.7959(5) 1.5844(4) 0.9077(4)
H30 H 0.8428 1.5663 0.9366
C30 C -0.0067(5) 0.9461(5) 0.7107(5)
H31 H -0.0647 0.9379 0.7059
C31 C 0.7235(4) 1.5352(4) 0.8711(4)
H32 H 0.7198 1.4828 0.8749
C32 C 0.0424(5) 1.0199(4) 0.7572(5)
C33 C 0.6520(4) 1.5600(4) 0.8264(4)
C34 C 0.0069(4) 1.0820(4) 0.7958(4)
C35 C 0.5772(4) 1.5079(4) 0.7863(4)
C36 C 0.0561(4) 1.1551(4) 0.8377(4)
C37 C 0.5054(4) 1.5349(4) 0.7457(4)
C38 C 0.0214(4) 1.2191(4) 0.8769(4)
H33 H -0.0352 1.2111 0.8763
C39 C 0.4275(5) 1.4849(4) 0.7071(5)
H34 H 0.4227 1.4320 0.7094
C40 C 0.0689(5) 1.2914(5) 0.9149(5)
H35 H 0.0448 1.3338 0.9396
C41 C 0.3600(6) 1.5107(5) 0.6672(6)
H36 H 0.3093 1.4755 0.6399
C42 C 0.1534(5) 1.3032(5) 0.9175(5)
H37 H 0.1857 1.3539 0.9432
C43 C 0.3652(6) 1.5908(5) 0.6661(6)
H38 H 0.3169 1.6094 0.6400
C44 C 0.1893(5) 1.2437(5) 0.8840(5)
H39 H 0.2472 1.2527 0.8889
C45 C 0.4376(5) 1.6405(4) 0.7016(5)
H40 H 0.4399 1.6931 0.6985
C46 C 0.1427(4) 1.1677(4) 0.8415(4)
C47 C 0.5113(5) 1.6162(4) 0.7438(4)
C48 C 0.5728(4) 1.4253(4) 0.7918(4)
C49 C 0.6050(4) 1.3660(4) 0.7489(4)
H41 H 0.6270 1.3759 0.7118
C50 C 0.6047(4) 1.2923(4) 0.7609(4)
H42 H 0.6281 1.2527 0.7318
C51 C 0.5417(4) 1.3312(4) 0.8519(4)
H43 H 0.5196 1.3197 0.8883
C52 C 0.5399(4) 1.4059(4) 0.8432(4)
H44 H 0.5159 1.4443 0.8727
Cu1_2 Cu -0.42345(5) 1.16860(4) 0.83061(5)
Cu1_3 Cu 1.57655(5) 1.16860(4) 0.83061(5)
Cu1_4 Cu 0.57655(5) 0.16860(4) 0.83061(5)
Cu2_2 Cu -0.39249(5) 1.01137(4) 0.74975(5)
Cu2_3 Cu 0.60751(5) 2.01137(4) 0.74975(5)
O1_2 O -0.4036(3) 1.0665(2) 0.8469(3)
O2_2 O -0.4225(3) 1.1102(2) 0.7300(3)
N1_2 N -0.3575(4) 1.2113(4) 0.9418(4)
H1_2 H -0.3273 1.2602 0.9528
H2_2 H -0.3926 1.2153 0.9709
N2_2 N 1.4399(4) 1.1530(3) 0.8226(4)
N2_3 N -0.5601(4) 1.1530(3) 0.8226(4)
N3_2 N 0.7456(4) 1.0411(3) 0.7743(4)
N4_2 N 0.6110(4) 0.9036(3) 0.7669(4)
N4_3 N -0.3890(4) 0.9036(3) 0.7669(4)
N5_2 N -0.4346(5) 0.9663(4) 0.6366(4)
H3_2 H -0.3929 0.9441 0.6194
H4_2 H -0.4799 0.9276 0.6221
N6_2 N 0.5736(3) 0.2737(3) 0.8108(3)
N6_3 N -0.4264(3) 1.2737(3) 0.8108(3)
C1_2 C -0.2984(7) 1.1480(6) 0.9541(6)
H5_2 H -0.2534 1.1521 0.9312
H6_2 H -0.2720 1.1557 1.0086
C2_2 C 1.4131(5) 1.1011(5) 0.8526(6)
H7_2 H 1.4537 1.0749 0.8792
C3_2 C 0.7722(4) 1.0858(4) 0.7384(5)
H8_2 H 0.7316 1.1088 0.7080
C4_2 C 0.6466(5) 0.8473(4) 0.7297(5)
H9_2 H 0.6774 0.8605 0.6996
C5_2 C -0.4600(7) 1.0321(6) 0.6044(5)
H10_2 H -0.5072 1.0116 0.5568
H11_2 H -0.4122 1.0559 0.5934
C6_2 C 1.3300(5) 1.0831(6) 0.8472(6)
H12_2 H 1.3147 1.0452 0.8693
C7_2 C 0.8556(5) 1.1010(5) 0.7426(5)
H13_2 H 0.8712 1.1320 0.7144
C8_2 C 0.6400(5) 0.7706(4) 0.7338(5)
H14_2 H 0.6656 0.7320 0.7063
C9_2 C 1.2693(5) 1.1204(4) 0.8096(5)
C10_2 C 0.9166(4) 1.0694(4) 0.7893(4)
C11_2 C 0.5964(4) 0.7498(4) 0.7776(4)
C12_2 C 1.2953(4) 1.1741(4) 0.7778(4)
H15_2 H 1.2558 1.2011 0.7511
C13_2 C 0.8888(4) 1.0266(4) 0.8296(5)
H16_2 H 0.9280 1.0060 0.8635
C14_2 C 0.5615(4) 0.8089(4) 0.8172(4)
H17_2 H 0.5308 0.7975 0.8481
C15_2 C -0.3495(5) 1.0722(5) 0.9189(4)
H18_2 H -0.3127 1.0303 0.9147
H19_2 H -0.3833 1.0633 0.9508
C16_2 C 1.3796(4) 1.1878(4) 0.7854(4)
H20_2 H 1.3961 1.2245 0.7626
C17_2 C 0.8053(4) 1.0137(4) 0.8207(4)
H21_2 H 0.7882 0.9835 0.8488
C18_2 C 0.5715(4) 0.8844(4) 0.8114(4)
H22_2 H 0.5492 0.9248 0.8406
C19_2 C -0.4868(5) 1.0943(5) 0.6613(4)
H23_2 H -0.4942 1.1430 0.6458
H24_2 H -0.5406 1.0740 0.6657
C20_2 C 1.1785(4) 1.1062(4) 0.8060(4)
C21_2 C 0.5875(4) 0.6665(4) 0.7813(4)
C22_2 C 1.1308(5) 1.0315(4) 0.7639(5)
C23_2 C 0.6576(4) 0.6403(4) 0.8232(4)
C24_2 C 1.1629(6) 0.9675(5) 0.7234(6)
H25_2 H 1.2206 0.9733 0.7267
C25_2 C 0.7358(4) 0.6902(4) 0.8631(4)
H26_2 H 0.7413 0.7432 0.8611
C26_2 C 1.1129(7) 0.8979(5) 0.6799(7)
H27_2 H 1.1366 0.8561 0.6540
C27_2 C 0.8028(5) 0.6638(4) 0.9038(5)
H28_2 H 0.8543 0.6981 0.9297
C28_2 C 1.0281(6) 0.8867(5) 0.6729(7)
H29_2 H 0.9942 0.8380 0.6419
C29_2 C 0.7959(5) 0.5844(4) 0.9077(4)
H30_2 H 0.8428 0.5663 0.9366
C30_2 C 0.9933(5) 0.9461(5) 0.7107(5)
H31_2 H 0.9353 0.9379 0.7059
C31_2 C 0.7235(4) 0.5352(4) 0.8711(4)
H32_2 H 0.7198 0.4828 0.8749
C32_2 C 1.0424(5) 1.0199(4) 0.7572(5)
C33_2 C 0.6520(4) 0.5600(4) 0.8264(4)
C34_2 C 1.0069(4) 1.0820(4) 0.7958(4)
C35_2 C 0.5772(4) 0.5079(4) 0.7863(4)
C36_2 C 1.0561(4) 1.1551(4) 0.8377(4)
C37_2 C 0.5054(4) 0.5349(4) 0.7457(4)
C38_2 C 1.0214(4) 1.2191(4) 0.8769(4)
H33_2 H 0.9648 1.2111 0.8763
C39_2 C 0.4275(5) 0.4849(4) 0.7071(5)
H34_2 H 0.4227 0.4320 0.7094
C40_2 C 1.0689(5) 1.2914(5) 0.9149(5)
H35_2 H 1.0448 1.3338 0.9396
C41_2 C 0.3600(6) 0.5107(5) 0.6672(6)
H36_2 H 0.3093 0.4755 0.6399
C42_2 C 1.1534(5) 1.3032(5) 0.9175(5)
H37_2 H 1.1857 1.3539 0.9432
C43_2 C 0.3652(6) 0.5908(5) 0.6661(6)
H38_2 H 0.3169 0.6094 0.6400
C44_2 C 1.1893(5) 1.2437(5) 0.8840(5)
H39_2 H 1.2472 1.2527 0.8889
C45_2 C 0.4376(5) 0.6405(4) 0.7016(5)
H40_2 H 0.4399 0.6931 0.6985
C46_2 C 1.1427(4) 1.1677(4) 0.8415(4)
C47_2 C 0.5113(5) 0.6162(4) 0.7438(4)
C48_2 C 0.5728(4) 0.4253(4) 0.7918(4)
C49_2 C 0.6050(4) 0.3660(4) 0.7489(4)
H41_2 H 0.6270 0.3759 0.7118
C50_2 C 0.6047(4) 0.2923(4) 0.7609(4)
H42_2 H 0.6281 0.2527 0.7318
C51_2 C 0.5417(4) 0.3312(4) 0.8519(4)
H43_2 H 0.5196 0.3197 0.8883
C52_2 C 0.5399(4) 0.4059(4) 0.8432(4)
H44_2 H 0.5159 0.4443 0.8727
Cu3 Cu -0.00993(5) 0.58481(5) 0.72736(5)
Cu4 Cu 0.02074(5) 0.42610(5) 0.74214(5)
O3 O 0.0212(3) 0.4872(3) 0.6712(3)
O4 O 0.0036(3) 0.5275(3) 0.8013(3)
N7 N -0.1482(4) 0.5572(3) 0.6657(3)
N8 N -0.0165(4) 0.6904(3) 0.8002(4)
N9 N 0.0260(3) 0.3200(3) 0.6753(3)
N10 N 0.1557(4) 0.4417(3) 0.8132(3)
N11 N 0.0380(4) 0.6355(4) 0.6642(4)
H45 H -0.0008 0.6626 0.6401
H46 H 0.0853 0.6708 0.6941
N12 N -0.0641(4) 0.3792(4) 0.7826(4)
H47 H -0.0972 0.3348 0.7469
H48 H -0.0365 0.3655 0.8249
C53 C -0.1755(5) 0.5156(5) 0.5935(5)
H49 H -0.1350 0.4961 0.5703
C54 C -0.0592(5) 0.7459(4) 0.7765(5)
H50 H -0.0921 0.7337 0.7251
C55 C 0.0449(4) 0.2620(4) 0.7061(4)
H51 H 0.0622 0.2745 0.7594
C56 C 0.1808(4) 0.4916(4) 0.8833(4)
H52 H 0.1396 0.5178 0.9014
C57 C -0.2608(5) 0.4984(5) 0.5490(5)
H53 H -0.2766 0.4697 0.4970
C58 C -0.0568(5) 0.8206(4) 0.8249(4)
H54 H -0.0875 0.8584 0.8061
C59 C 0.0405(4) 0.1846(4) 0.6643(4)
H55 H 0.0551 0.1451 0.6887
C60 C 0.2628(4) 0.5075(4) 0.9311(4)
H56 H 0.2770 0.5439 0.9801
C61 C 0.0603(6) 0.5712(5) 0.6083(5)
H57 H 0.1078 0.5920 0.5949
H58 H 0.0116 0.5506 0.5618
C62 C -0.3208(5) 0.5239(4) 0.5819(4)
C63 C -0.0099(4) 0.8403(4) 0.9000(4)
C64 C 0.0150(4) 0.1648(4) 0.5871(4)
C65 C 0.3242(4) 0.4690(4) 0.9060(4)
C66 C -0.1160(5) 0.4430(5) 0.8005(6)
H59 H -0.1478 0.4317 0.8331
H60 H -0.1564 0.4478 0.7538
C67 C -0.2933(5) 0.5642(5) 0.6580(5)
H61 H -0.3329 0.5807 0.6835
C68 C 0.0333(4) 0.7820(4) 0.9242(4)
H62 H 0.0662 0.7924 0.9754
C69 C -0.0036(5) 0.2258(4) 0.5552(4)
H63 H -0.0193 0.2153 0.5021
C70 C 0.2998(4) 0.4182(4) 0.8330(4)
H64 H 0.3401 0.3922 0.8132
C71 C -0.2083(5) 0.5804(5) 0.6970(5)
H65 H -0.1912 0.6097 0.7488
C72 C 0.0277(5) 0.7102(4) 0.8735(4)
H66 H 0.0572 0.6713 0.8914
C73 C 0.0009(5) 0.3011(4) 0.6004(5)
H67 H -0.0146 0.3416 0.5776
C74 C 0.2160(5) 0.4056(4) 0.7893(4)
H68 H 0.2002 0.3698 0.7398
C75 C -0.4122(5) 0.5104(5) 0.5380(4)
C76 C -0.0038(4) 0.9221(4) 0.9533(4)
C77 C 0.0075(5) 0.0810(4) 0.5411(4)
C78 C 0.4143(4) 0.4860(4) 0.9553(4)
C79 C 0.0846(5) 0.5062(5) 0.6432(5)
H69 H 0.0911 0.4590 0.6050
H70 H 0.1387 0.5241 0.6844
C80 C -0.0697(4) 0.9425(4) 0.9813(4)
C81 C -0.0536(5) 0.5193(5) 0.8416(5)
H71 H -0.0848 0.5656 0.8466
H72 H -0.0218 0.5182 0.8928
C82 C -0.1417(4) 0.8866(4) 0.9656(4)
H73 H -0.1444 0.8338 0.9354
C83 C -0.2063(5) 0.9068(5) 0.9926(5)
H74 H -0.2542 0.8688 0.9801
C84 C -0.2020(5) 0.9844(5) 1.0394(4)
H75 H -0.2473 0.9979 1.0584
C85 C -0.1353(4) 1.0394(4) 1.0576(4)
H76 H -0.1338 1.0910 1.0895
C86 C 0.0663(4) 0.9789(4) 0.9705(4)
C87 C -0.4603(5) 0.4358(5) 0.5198(4)
C88 C 0.0802(5) 0.0429(4) 0.5450(4)
C89 C 0.4650(4) 0.5555(4) 0.9635(4)
C90 C -0.4236(5) 0.3708(5) 0.5400(5)
H77 H -0.3653 0.3775 0.5670
C91 C 0.1629(5) 0.0843(5) 0.5880(5)
H78 H 0.1693 0.1389 0.6150
C92 C 0.4335(5) 0.6119(5) 0.9255(4)
H79 H 0.3764 0.6029 0.8946
C93 C -0.4709(5) 0.2993(5) 0.5213(5)
H80 H -0.4453 0.2561 0.5342
C94 C 0.2325(5) 0.0473(5) 0.5909(6)
H81 H 0.2865 0.0753 0.6215
C95 C 0.4835(5) 0.6781(5) 0.9328(5)
H82 H 0.4613 0.7149 0.9071
C96 C -0.5575(5) 0.2891(5) 0.4827(5)
H83 H -0.5898 0.2388 0.4697
C97 C 0.2243(5) -0.0335(5) 0.5481(5)
H84 H 0.2732 -0.0588 0.5498
C98 C 0.5677(5) 0.6924(5) 0.9778(5)
H85 H 0.6016 0.7397 0.9838
C99 C -0.5963(5) 0.3495(5) 0.4636(5)
H86 H -0.6551 0.3413 0.4384
C100 C 0.1477(5) -0.0750(4) 0.5050(5)
H87 H 0.1437 -0.1286 0.4760
C101 C 0.6015(5) 0.6400(4) 1.0131(5)
H88 H 0.6596 0.6501 1.0413
C102 C -0.4509(4) 0.5748(4) 0.5190(4)
C103 C -0.0726(5) 0.0385(4) 0.4973(4)
C104 C 0.4477(4) 0.4303(4) 0.9908(4)
Cu3A Cu -0.99007(5) 0.41519(5) 0.27264(5)
Cu3A_2 Cu 0.00993(5) 1.41519(5) 1.27264(5)
Cu4A Cu -1.02074(5) 0.57390(5) 0.25786(5)
Cu4A_2 Cu -0.02074(5) -0.42610(5) 0.25786(5)
Cu4A_3 Cu 0.97926(5) 0.57390(5) 1.25786(5)
O3A O -1.0212(3) 0.5128(3) 0.3288(3)
O4A O -1.0036(3) 0.4725(3) 0.1987(3)
N7A N -0.8518(4) 0.4428(3) 0.3343(3)
N8A N 0.0165(4) 1.3096(3) 1.1998(4)
N8A_2 N -0.9835(4) 0.3096(3) 0.1998(4)
N9A N -0.0260(3) -0.3200(3) 0.3247(3)
N9A_2 N -1.0260(3) 0.6800(3) 0.3247(3)
N10A N 0.8443(4) 0.5583(3) 1.1868(3)
N10A_2 N -1.1557(4) 0.5583(3) 0.1868(3)
N11A N -1.0380(4) 0.3645(4) 0.3358(4)
H45A H -0.9992 0.3374 0.3599
H46A H -1.0853 0.3292 0.3059
N12A N -0.9359(4) 0.6208(4) 0.2174(4)
H47A H -0.9028 0.6652 0.2531
H48A H -0.9635 0.6345 0.1751
C53A C -0.8245(5) 0.4844(5) 0.4065(5)
H49A H -0.8650 0.5039 0.4297
C54A C 0.0592(5) 1.2541(4) 1.2235(5)
H50A H 0.0921 1.2663 1.2749
C55A C -0.0449(4) -0.2620(4) 0.2939(4)
H51A H -0.0622 -0.2745 0.2406
C56A C 0.8192(4) 0.5084(4) 1.1167(4)
H52A H 0.8604 0.4822 1.0986
C57A C -0.7392(5) 0.5016(5) 0.4510(5)
H53A H -0.7234 0.5303 0.5030
C58A C 0.0568(5) 1.1794(4) 1.1751(4)
H54A H 0.0875 1.1416 1.1939
C59A C -0.0405(4) -0.1846(4) 0.3357(4)
H55A H -0.0551 -0.1451 0.3113
C60A C 0.7372(4) 0.4925(4) 1.0689(4)
H56A H 0.7230 0.4561 1.0199
C61A C -1.0603(6) 0.4288(5) 0.3917(5)
H57A H -1.1078 0.4080 0.4051
H58A H -1.0116 0.4494 0.4382
C62A C -0.6792(5) 0.4761(4) 0.4181(4)
C63A C 0.0099(4) 1.1597(4) 1.1000(4)
C64A C -0.0150(4) -0.1648(4) 0.4129(4)
C65A C 0.6758(4) 0.5310(4) 1.0940(4)
C66A C -0.8840(5) 0.5570(5) 0.1995(6)
H59A H -0.8522 0.5683 0.1669
H60A H -0.8436 0.5522 0.2462
C67A C -0.7067(5) 0.4358(5) 0.3420(5)
H61A H -0.6671 0.4193 0.3165
C68A C -0.0333(4) 1.2180(4) 1.0758(4)
H62A H -0.0662 1.2076 1.0246
C69A C 0.0036(5) -0.2258(4) 0.4448(4)
H63A H 0.0193 -0.2153 0.4979
C70A C 0.7002(4) 0.5818(4) 1.1670(4)
H64A H 0.6599 0.6078 1.1868
C71A C -0.7917(5) 0.4196(5) 0.3030(5)
H65A H -0.8088 0.3903 0.2512
C72A C -0.0277(5) 1.2898(4) 1.1265(4)
H66A H -0.0572 1.3287 1.1086
C73A C -0.0009(5) -0.3011(4) 0.3996(5)
H67A H 0.0146 -0.3416 0.4224
C74A C 0.7840(5) 0.5944(4) 1.2107(4)
H68A H 0.7998 0.6302 1.2602
C75A C -0.5878(5) 0.4896(5) 0.4620(4)
C76A C 0.0038(4) 1.0779(4) 1.0467(4)
C77A C -0.0075(5) -0.0810(4) 0.4589(4)
C78A C 0.5857(4) 0.5140(4) 1.0447(4)
C79A C -1.0846(5) 0.4938(5) 0.3568(5)
H69A H -1.0911 0.5410 0.3950
H70A H -1.1387 0.4759 0.3156
C80A C 0.0697(4) 1.0575(4) 1.0187(4)
C81A C -0.9464(5) 0.4807(5) 0.1584(5)
H71A H -0.9152 0.4344 0.1534
H72A H -0.9782 0.4818 0.1072
C82A C 0.1417(4) 1.1134(4) 1.0344(4)
H73A H 0.1444 1.1662 1.0646
C83A C 0.2063(5) 1.0932(5) 1.0074(5)
H74A H 0.2542 1.1312 1.0199
C84A C 0.2020(5) 1.0156(5) 0.9606(4)
H75A H 0.2473 1.0021 0.9416
C85A C 0.1353(4) 0.9606(4) 0.9424(4)
H76A H 0.1338 0.9090 0.9105
C86A C -0.0663(4) 1.0211(4) 1.0295(4)
C87A C -0.5397(5) 0.5642(5) 0.4802(4)
C88A C -0.0802(5) -0.0429(4) 0.4550(4)
C89A C 0.5350(4) 0.4445(4) 1.0365(4)
C90A C -0.5764(5) 0.6292(5) 0.4600(5)
H77A H -0.6347 0.6225 0.4330
C91A C -0.1629(5) -0.0843(5) 0.4120(5)
H78A H -0.1693 -0.1389 0.3850
C92A C 0.5665(5) 0.3881(5) 1.0745(4)
H79A H 0.6236 0.3971 1.1054
C93A C -0.5291(5) 0.7007(5) 0.4787(5)
H80A H -0.5547 0.7439 0.4658
C94A C -0.2325(5) -0.0473(5) 0.4091(6)
H81A H -0.2865 -0.0753 0.3785
C95A C 0.5165(5) 0.3219(5) 1.0672(5)
H82A H 0.5387 0.2851 1.0929
C96A C -0.4425(5) 0.7109(5) 0.5173(5)
H83A H -0.4102 0.7612 0.5303
C97A C -0.2243(5) 0.0335(5) 0.4519(5)
H84A H -0.2732 0.0588 0.4502
C98A C 0.4323(5) 0.3076(5) 1.0222(5)
H85A H 0.3984 0.2603 1.0162
C99A C -0.4037(5) 0.6505(5) 0.5364(5)
H86A H -0.3449 0.6587 0.5616
C100A C -0.1477(5) 0.0750(4) 0.4950(5)
H87A H -0.1437 0.1286 0.5240
C101A C 0.3985(5) 0.3600(4) 0.9869(5)
H88A H 0.3404 0.3499 0.9587
C102A C -0.5491(4) 0.4252(4) 0.4810(4)
C103A C 0.0726(5) -0.0385(4) 0.5027(4)
C104A C 0.5523(4) 0.5697(4) 1.0092(4)
O5 O 0.2979(5) 0.2871(4) 0.6611(4)
H89 H 0.2537 0.2905 0.6287
C105 C 0.3587(7) 0.2684(6) 0.6276(6)
H90 H 0.3600 0.3019 0.5951
H91 H 0.3460 0.2126 0.5972
H92 H 0.4136 0.2773 0.6664
O6 O 0.1785(6) 0.7258(6) 0.7905(6)
H93 H 0.2078 0.7704 0.8041
C106 C 0.2253(8) 0.6734(8) 0.8272(7)
H94 H 0.2722 0.6606 0.8076
H95 H 0.1882 0.6246 0.8174
H96 H 0.2473 0.6996 0.8815
O7 O 0.2637(7) 0.1159(7) 0.3909(6)
H97 H 0.2340 0.1528 0.3918
C107 C 0.2473(10) 0.0711(10) 0.4305(9)
H98 H 0.2980 0.0736 0.4722
H99 H 0.2296 0.0161 0.3982
H100 H 0.2022 0.0900 0.4505
O8 O 0.1965(8) 0.6598(8) 0.5343(7)
H101 H 0.1872 0.6190 0.5466
C108 C 0.1935(11) 0.7271(10) 0.5929(10)
H102 H 0.2509 0.7514 0.6242
H103 H 0.1635 0.7107 0.6239
H104 H 0.1642 0.7657 0.5709
Cl1 Cl -0.24727(13) 0.24676(13) 0.61226(12)
O9 O -0.1650(3) 0.2300(4) 0.6455(4)
O10 O -0.2608(5) 0.2409(5) 0.5354(3)
O11 O -0.3106(4) 0.1927(5) 0.6145(5)
O12 O -0.2562(6) 0.3238(4) 0.6523(4)
Cl2 Cl 0.16004(15) 0.29279(15) 0.47170(15)
O13 O 0.0749(4) 0.3057(5) 0.4490(5)
O14 O 0.2093(6) 0.3618(5) 0.5254(5)
O15 O 0.1672(5) 0.2300(5) 0.5050(5)
O16 O 0.1883(6) 0.2733(6) 0.4073(4)
Cl3 Cl 0.82913(12) 1.33306(13) 0.93697(13)
O17 O 0.7631(6) 1.3693(6) 0.9031(6)
O18 O 0.9111(6) 1.3743(9) 0.9692(8)
O19 O 0.8142(6) 1.3214(6) 1.0031(4)
O20 O 0.8354(9) 1.2575(6) 0.8921(8)
Cl4 Cl 0.3684(2) 0.86456(18) 0.8695(2)
O25 O 0.2876(5) 0.8769(7) 0.8759(7)
O26 O 0.4139(7) 0.8399(7) 0.9304(5)
O29 O 0.3643(6) 0.7938(4) 0.8080(5)
O30 O 0.4186(6) 0.9342(5) 0.8803(6)
O31 O 0.4027(6) 0.8704(6) 0.5903(6)
C109 C 0.396(2) 0.834(2) 0.627(2)
O21? O 0.7468(6) 1.3544(10) 0.9203(10)
O22? O 0.8853(13) 1.4060(9) 0.9632(13)
O23? O 0.825(3) 1.2595(17) 0.952(3)
O24? O 0.8365(15) 1.3005(15) 0.8640(7)
Cl5? Cl 0.3546(4) 0.8705(3) 0.8327(4)
O27? O 0.363(2) 0.8887(19) 0.7687(12)
O28? O 0.2745(8) 0.8767(11) 0.8430(12)
O32? O 0.376(2) 0.874(3) 0.661(2)
C110? C 0.392(4) 0.936(3) 0.698(3)
loop_
_geom_bond_atom_site_label_1
_geom_bond_atom_site_label_2
_geom_bond_site_symmetry_1
_geom_bond_site_symmetry_2
Cu1 O1 1_555 1_555
Cu2 O1 1_555 1_555
O1 C15 1_555 1_555
O2 Cu1 1_555 1_555
N1 Cu1 1_555 1_555
H1 N1 1_555 1_555
H2 N1 1_555 1_555
N2 Cu1 1_555 1_555
N3 C3 1_555 1_555
N4 C4 1_555 1_555
N5 Cu2 1_555 1_555
H3 N5 1_555 1_555
H4 N5 1_555 1_555
N6 Cu1 1_555 1_555
C1 N1 1_555 1_555
H5 C1 1_555 1_555
H6 C1 1_555 1_555
C2 N2 1_555 1_555
H7 C2 1_555 1_555
C3 H8 1_555 1_555
C4 H9 1_555 1_555
C5 N5 1_555 1_555
H10 C5 1_555 1_555
H11 C5 1_555 1_555
C6 C2 1_555 1_555
H12 C6 1_555 1_555
C7 C3 1_555 1_555
H13 C7 1_555 1_555
C8 C4 1_555 1_555
H14 C8 1_555 1_555
C9 C6 1_555 1_555
C10 C7 1_555 1_555
C11 C8 1_555 1_555
C12 C9 1_555 1_555
H15 C12 1_555 1_555
C13 C10 1_555 1_555
H16 C13 1_555 1_555
C14 C11 1_555 1_555
H17 C14 1_555 1_555
C15 C1 1_555 1_555
H18 C15 1_555 1_555
H19 C15 1_555 1_555
C16 N2 1_555 1_555
H20 C16 1_555 1_555
C17 N3 1_555 1_555
H21 C17 1_555 1_555
C18 N4 1_555 1_555
H22 C18 1_555 1_555
C19 O2 1_555 1_555
H23 C19 1_555 1_555
H24 C19 1_555 1_555
C20 C9 1_555 1_555
C21 C11 1_555 1_555
C22 C20 1_555 1_555
C23 C21 1_555 1_555
C24 C22 1_555 1_555
H25 C24 1_555 1_555
C25 C23 1_555 1_555
H26 C25 1_555 1_555
C26 C24 1_555 1_555
H27 C26 1_555 1_555
C27 C25 1_555 1_555
H28 C27 1_555 1_555
C28 C26 1_555 1_555
H29 C28 1_555 1_555
C29 C27 1_555 1_555
H30 C29 1_555 1_555
C30 C28 1_555 1_555
H31 C30 1_555 1_555
C31 C29 1_555 1_555
H32 C31 1_555 1_555
C32 C22 1_555 1_555
C33 C23 1_555 1_555
C34 C10 1_555 1_555
C35 C33 1_555 1_555
C36 C34 1_555 1_555
C37 C35 1_555 1_555
C38 C36 1_555 1_555
H33 C38 1_555 1_555
C39 C37 1_555 1_555
H34 C39 1_555 1_555
C40 C38 1_555 1_555
H35 C40 1_555 1_555
C41 C39 1_555 1_555
H36 C41 1_555 1_555
C42 C40 1_555 1_555
H37 C42 1_555 1_555
C43 C41 1_555 1_555
H38 C43 1_555 1_555
C44 C42 1_555 1_555
H39 C44 1_555 1_555
C45 C43 1_555 1_555
H40 C45 1_555 1_555
C46 C20 1_555 1_555
C47 C21 1_555 1_555
C48 C35 1_555 1_555
C49 C48 1_555 1_555
H41 C49 1_555 1_555
C50 N6 1_555 1_555
H42 C50 1_555 1_555
C51 N6 1_555 1_555
H43 C51 1_555 1_555
C52 C48 1_555 1_555
H44 C52 1_555 1_555
Cu3 O3 1_555 1_555
Cu4 O3 1_555 1_555
O3 C79 1_555 1_555
O4 Cu3 1_555 1_555
N7 Cu3 1_555 1_555
N8 Cu3 1_555 1_555
N9 Cu4 1_555 1_555
N10 Cu4 1_555 1_555
N11 Cu3 1_555 1_555
H45 N11 1_555 1_555
H46 N11 1_555 1_555
N12 Cu4 1_555 1_555
H47 N12 1_555 1_555
H48 N12 1_555 1_555
C53 N7 1_555 1_555
H49 C53 1_555 1_555
C54 N8 1_555 1_555
H50 C54 1_555 1_555
C55 N9 1_555 1_555
H51 C55 1_555 1_555
C56 N10 1_555 1_555
H52 C56 1_555 1_555
C57 C53 1_555 1_555
H53 C57 1_555 1_555
C58 C54 1_555 1_555
H54 C58 1_555 1_555
C59 C55 1_555 1_555
H55 C59 1_555 1_555
C60 C56 1_555 1_555
H56 C60 1_555 1_555
C61 N11 1_555 1_555
H57 C61 1_555 1_555
H58 C61 1_555 1_555
C62 C57 1_555 1_555
C63 C58 1_555 1_555
C64 C59 1_555 1_555
C65 C60 1_555 1_555
C66 N12 1_555 1_555
H59 C66 1_555 1_555
H60 C66 1_555 1_555
C67 C62 1_555 1_555
H61 C67 1_555 1_555
C68 C63 1_555 1_555
H62 C68 1_555 1_555
C69 C64 1_555 1_555
H63 C69 1_555 1_555
C70 C65 1_555 1_555
H64 C70 1_555 1_555
C71 N7 1_555 1_555
H65 C71 1_555 1_555
C72 N8 1_555 1_555
H66 C72 1_555 1_555
C73 N9 1_555 1_555
H67 C73 1_555 1_555
C74 N10 1_555 1_555
H68 C74 1_555 1_555
C75 C62 1_555 1_555
C76 C63 1_555 1_555
C77 C64 1_555 1_555
C78 C65 1_555 1_555
C79 C61 1_555 1_555
H69 C79 1_555 1_555
H70 C79 1_555 1_555
C80 C76 1_555 1_555
C81 O4 1_555 1_555
H71 C81 1_555 1_555
H72 C81 1_555 1_555
C82 C80 1_555 1_555
H73 C82 1_555 1_555
C83 C82 1_555 1_555
H74 C83 1_555 1_555
C84 C83 1_555 1_555
H75 C84 1_555 1_555
C85 C84 1_555 1_555
H76 C85 1_555 1_555
C86 C76 1_555 1_555
C87 C75 1_555 1_555
C88 C77 1_555 1_555
C89 C78 1_555 1_555
C90 C87 1_555 1_555
H77 C90 1_555 1_555
C91 C88 1_555 1_555
H78 C91 1_555 1_555
C92 C89 1_555 1_555
H79 C92 1_555 1_555
C93 C90 1_555 1_555
H80 C93 1_555 1_555
C94 C91 1_555 1_555
H81 C94 1_555 1_555
C95 C92 1_555 1_555
H82 C95 1_555 1_555
C96 C93 1_555 1_555
H83 C96 1_555 1_555
C97 C94 1_555 1_555
H84 C97 1_555 1_555
C98 C95 1_555 1_555
H85 C98 1_555 1_555
C99 C96 1_555 1_555
H86 C99 1_555 1_555
C100 C97 1_555 1_555
H87 C100 1_555 1_555
C101 C98 1_555 1_555
H88 C101 1_555 1_555
C102 C75 1_555 1_555
C103 C77 1_555 1_555
C104 C78 1_555 1_555
O5 H89 1_555 1_555
C105 O5 1_555 1_555
H90 C105 1_555 1_555
H91 C105 1_555 1_555
H92 C105 1_555 1_555
O6 H93 1_555 1_555
C106 O6 1_555 1_555
H94 C106 1_555 1_555
H95 C106 1_555 1_555
H96 C106 1_555 1_555
O7 H97 1_555 1_555
C107 O7 1_555 1_555
H98 C107 1_555 1_555
H99 C107 1_555 1_555
H100 C107 1_555 1_555
O8 H101 1_555 1_555
C108 O8 1_555 1_555
H102 C108 1_555 1_555
H103 C108 1_555 1_555
H104 C108 1_555 1_555
Cl1 O9 1_555 1_555
O10 Cl1 1_555 1_555
O11 Cl1 1_555 1_555
O12 Cl1 1_555 1_555
Cl2 O13 1_555 1_555
O14 Cl2 1_555 1_555
O15 Cl2 1_555 1_555
O16 Cl2 1_555 1_555
Cl3 O17 1_555 1_555
O18 Cl3 1_555 1_555
O19 Cl3 1_555 1_555
O20 Cl3 1_555 1_555
Cl4 O25 1_555 1_555
O26 Cl4 1_555 1_555
O29 Cl4 1_555 1_555
O30 Cl4 1_555 1_555
O31 C109 1_555 1_555
Cu1_2 O1_2 1_555 1_555
Cu1_3 N2_2 1_555 1_555
Cu1_4 N6_2 1_555 1_555
Cu2_2 N3 1_555 1_555
Cu2_3 N4 1_555 1_555
O1_2 Cu2_2 1_555 1_555
O2_2 Cu1_2 1_555 1_555
N1_2 Cu1_2 1_555 1_555
H1_2 N1_2 1_555 1_555
H2_2 N1_2 1_555 1_555
N2_2 C2_2 1_555 1_555
N2_3 Cu1_2 1_555 1_555
N3_2 Cu2 1_555 1_555
N4_2 Cu2 1_555 1_555
N4_3 Cu2_2 1_555 1_555
N5_2 Cu2_2 1_555 1_555
H3_2 N5_2 1_555 1_555
H4_2 N5_2 1_555 1_555
N6_2 C50_2 1_555 1_555
N6_3 Cu1_2 1_555 1_555
C1_2 N1_2 1_555 1_555
H5_2 C1_2 1_555 1_555
H6_2 C1_2 1_555 1_555
C2_2 H7_2 1_555 1_555
C3_2 N3_2 1_555 1_555
H8_2 C3_2 1_555 1_555
C4_2 N4_2 1_555 1_555
H9_2 C4_2 1_555 1_555
C5_2 N5_2 1_555 1_555
H10_2 C5_2 1_555 1_555
H11_2 C5_2 1_555 1_555
C6_2 C2_2 1_555 1_555
H12_2 C6_2 1_555 1_555
C7_2 C3_2 1_555 1_555
H13_2 C7_2 1_555 1_555
C8_2 C4_2 1_555 1_555
H14_2 C8_2 1_555 1_555
C9_2 C6_2 1_555 1_555
C10_2 C7_2 1_555 1_555
C11_2 C8_2 1_555 1_555
C12_2 C9_2 1_555 1_555
H15_2 C12_2 1_555 1_555
C13_2 C10_2 1_555 1_555
H16_2 C13_2 1_555 1_555
C14_2 C11_2 1_555 1_555
H17_2 C14_2 1_555 1_555
C15_2 O1_2 1_555 1_555
H18_2 C15_2 1_555 1_555
H19_2 C15_2 1_555 1_555
C16_2 N2_2 1_555 1_555
H20_2 C16_2 1_555 1_555
C17_2 N3_2 1_555 1_555
H21_2 C17_2 1_555 1_555
C18_2 N4_2 1_555 1_555
H22_2 C18_2 1_555 1_555
C19_2 O2_2 1_555 1_555
H23_2 C19_2 1_555 1_555
H24_2 C19_2 1_555 1_555
C20_2 C9_2 1_555 1_555
C21_2 C11_2 1_555 1_555
C22_2 C20_2 1_555 1_555
C23_2 C21_2 1_555 1_555
C24_2 C22_2 1_555 1_555
H25_2 C24_2 1_555 1_555
C25_2 C23_2 1_555 1_555
H26_2 C25_2 1_555 1_555
C26_2 C24_2 1_555 1_555
H27_2 C26_2 1_555 1_555
C27_2 C25_2 1_555 1_555
H28_2 C27_2 1_555 1_555
C28_2 C26_2 1_555 1_555
H29_2 C28_2 1_555 1_555
C29_2 C27_2 1_555 1_555
H30_2 C29_2 1_555 1_555
C30_2 C28_2 1_555 1_555
H31_2 C30_2 1_555 1_555
C31_2 C29_2 1_555 1_555
H32_2 C31_2 1_555 1_555
C32_2 C22_2 1_555 1_555
C33_2 C23_2 1_555 1_555
C34_2 C10_2 1_555 1_555
C35_2 C33_2 1_555 1_555
C36_2 C34_2 1_555 1_555
C37_2 C35_2 1_555 1_555
C38_2 C36_2 1_555 1_555
H33_2 C38_2 1_555 1_555
C39_2 C37_2 1_555 1_555
H34_2 C39_2 1_555 1_555
C40_2 C38_2 1_555 1_555
H35_2 C40_2 1_555 1_555
C41_2 C39_2 1_555 1_555
H36_2 C41_2 1_555 1_555
C42_2 C40_2 1_555 1_555
H37_2 C42_2 1_555 1_555
C43_2 C41_2 1_555 1_555
H38_2 C43_2 1_555 1_555
C44_2 C42_2 1_555 1_555
H39_2 C44_2 1_555 1_555
C45_2 C43_2 1_555 1_555
H40_2 C45_2 1_555 1_555
C46_2 C20_2 1_555 1_555
C47_2 C21_2 1_555 1_555
C48_2 C35_2 1_555 1_555
C49_2 C48_2 1_555 1_555
H41_2 C49_2 1_555 1_555
C50_2 C49_2 1_555 1_555
H42_2 C50_2 1_555 1_555
C51_2 N6_2 1_555 1_555
H43_2 C51_2 1_555 1_555
C52_2 C48_2 1_555 1_555
H44_2 C52_2 1_555 1_555
Cu3A O3A 1_555 1_555
Cu3A_2 N8A 1_555 1_555
Cu4A O3A 1_555 1_555
Cu4A_2 N9A 1_555 1_555
Cu4A_3 N10A 1_555 1_555
O3A C79A 1_555 1_555
O4A Cu3A 1_555 1_555
N7A Cu3A 1_555 1_555
N8A C54A 1_555 1_555
N8A_2 Cu3A 1_555 1_555
N9A C55A 1_555 1_555
N9A_2 Cu4A 1_555 1_555
N10A C56A 1_555 1_555
N10A_2 Cu4A 1_555 1_555
N11A Cu3A 1_555 1_555
H45A N11A 1_555 1_555
H46A N11A 1_555 1_555
N12A Cu4A 1_555 1_555
H47A N12A 1_555 1_555
H48A N12A 1_555 1_555
C53A N7A 1_555 1_555
H49A C53A 1_555 1_555
C54A H50A 1_555 1_555
C55A H51A 1_555 1_555
C56A H52A 1_555 1_555
C57A C53A 1_555 1_555
H53A C57A 1_555 1_555
C58A C54A 1_555 1_555
H54A C58A 1_555 1_555
C59A C55A 1_555 1_555
H55A C59A 1_555 1_555
C60A C56A 1_555 1_555
H56A C60A 1_555 1_555
C61A N11A 1_555 1_555
H57A C61A 1_555 1_555
H58A C61A 1_555 1_555
C62A C57A 1_555 1_555
C63A C58A 1_555 1_555
C64A C59A 1_555 1_555
C65A C60A 1_555 1_555
C66A N12A 1_555 1_555
H59A C66A 1_555 1_555
H60A C66A 1_555 1_555
C67A C62A 1_555 1_555
H61A C67A 1_555 1_555
C68A C63A 1_555 1_555
H62A C68A 1_555 1_555
C69A C64A 1_555 1_555
H63A C69A 1_555 1_555
C70A C65A 1_555 1_555
H64A C70A 1_555 1_555
C71A N7A 1_555 1_555
H65A C71A 1_555 1_555
C72A N8A 1_555 1_555
H66A C72A 1_555 1_555
C73A N9A 1_555 1_555
H67A C73A 1_555 1_555
C74A N10A 1_555 1_555
H68A C74A 1_555 1_555
C75A C62A 1_555 1_555
C76A C63A 1_555 1_555
C77A C64A 1_555 1_555
C78A C65A 1_555 1_555
C79A C61A 1_555 1_555
H69A C79A 1_555 1_555
H70A C79A 1_555 1_555
C80A C86 1_555 1_555
C81A O4A 1_555 1_555
H71A C81A 1_555 1_555
H72A C81A 1_555 1_555
C82A C80A 1_555 1_555
H73A C82A 1_555 1_555
C83A C82A 1_555 1_555
H74A C83A 1_555 1_555
C84A C83A 1_555 1_555
H75A C84A 1_555 1_555
C85A C86 1_555 1_555
H76A C85A 1_555 1_555
C86A C80 1_555 1_555
C87A C102 1_555 1_555
C88A C103 1_555 1_555
C89A C104 1_555 1_555
C90A C87A 1_555 1_555
H77A C90A 1_555 1_555
C91A C88A 1_555 1_555
H78A C91A 1_555 1_555
C92A C89A 1_555 1_555
H79A C92A 1_555 1_555
C93A C90A 1_555 1_555
H80A C93A 1_555 1_555
C94A C91A 1_555 1_555
H81A C94A 1_555 1_555
C95A C92A 1_555 1_555
H82A C95A 1_555 1_555
C96A C93A 1_555 1_555
H83A C96A 1_555 1_555
C97A C94A 1_555 1_555
H84A C97A 1_555 1_555
C98A C95A 1_555 1_555
H85A C98A 1_555 1_555
C99A C102 1_555 1_555
H86A C99A 1_555 1_555
C100A C103 1_555 1_555
H87A C100A 1_555 1_555
C101A C104 1_555 1_555
H88A C101A 1_555 1_555
C102A C87 1_555 1_555
C103A C88 1_555 1_555
C104A C89 1_555 1_555
Cu2 O2 1_555 1_555
C5 C19 1_555 1_555
C12 C16 1_555 1_555
C13 C17 1_555 1_555
C14 C18 1_555 1_555
C30 C32 1_555 1_555
C31 C33 1_555 1_555
C32 C34 1_555 1_555
C36 C46 1_555 1_555
C37 C47 1_555 1_555
C44 C46 1_555 1_555
C45 C47 1_555 1_555
C49 C50 1_555 1_555
C51 C52 1_555 1_555
Cu4 O4 1_555 1_555
C66 C81 1_555 1_555
C67 C71 1_555 1_555
C68 C72 1_555 1_555
C69 C73 1_555 1_555
C70 C74 1_555 1_555
C85 C86A 1_555 1_555
C99 C102A 1_555 1_555
C100 C103A 1_555 1_555
C101 C104A 1_555 1_555
Cu2_2 O2_2 1_555 1_555
C1_2 C15_2 1_555 1_555
C5_2 C19_2 1_555 1_555
C12_2 C16_2 1_555 1_555
C13_2 C17_2 1_555 1_555
C14_2 C18_2 1_555 1_555
C30_2 C32_2 1_555 1_555
C31_2 C33_2 1_555 1_555
C32_2 C34_2 1_555 1_555
C36_2 C46_2 1_555 1_555
C37_2 C47_2 1_555 1_555
C44_2 C46_2 1_555 1_555
C45_2 C47_2 1_555 1_555
C51_2 C52_2 1_555 1_555
Cu4A O4A 1_555 1_555
C66A C81A 1_555 1_555
C67A C71A 1_555 1_555
C68A C72A 1_555 1_555
C69A C73A 1_555 1_555
C70A C74A 1_555 1_555
C75A C87A 1_555 1_555
C75A C102A 1_555 1_555
C76A C80A 1_555 1_555
C76A C86A 1_555 1_555
C77A C88A 1_555 1_555
C77A C103A 1_555 1_555
C78A C89A 1_555 1_555
C78A C104A 1_555 1_555
C84A C85A 1_555 1_555
C96A C99A 1_555 1_555
C97A C100A 1_555 1_555
C98A C101A 1_555 1_555

#END
