
#######################################################################
#
#                 Cambridge Crystallographic Data Centre
#                                CCDC 
#
#######################################################################
#
# If this CIF has been generated from an entry in the Cambridge 
# Structural Database, then it will include bibliographic, chemical, 
# crystal, experimental, refinement or atomic coordinate data resulting 
# from the CCDC's data processing and validation procedures.
#
#######################################################################

data_NOCKIA
_symmetry_cell_setting           triclinic
_symmetry_space_group_name_H-M   'P -1'
_symmetry_Int_Tables_number      2
_space_group_name_Hall           '-P 1'
loop_
_symmetry_equiv_pos_site_id
_symmetry_equiv_pos_as_xyz
1 x,y,z
2 -x,-y,-z
_cell_length_a                   10.4254(9)
_cell_length_b                   11.7087(10)
_cell_length_c                   14.5120(12)
_cell_angle_alpha                75.823(1)
_cell_angle_beta                 70.211(1)
_cell_angle_gamma                69.733(1)
_cell_volume                     1547.21
loop_
_atom_site_label
_atom_site_type_symbol
_atom_site_fract_x
_atom_site_fract_y
_atom_site_fract_z
Cu1 Cu 0.25838(3) 0.32025(2) 0.350830(18)
Cu2 Cu 0.53054(3) 0.37963(3) 0.262621(18)
O1 O 0.34547(16) 0.41955(14) 0.23418(11)
O2 O 0.45282(16) 0.24950(15) 0.34822(11)
N1 N 0.07398(19) 0.42241(18) 0.32673(13)
H1 H 0.0219 0.3733 0.3263
H2 H 0.0222 0.4713 0.3755
N2 N 0.18835(19) 0.21180(18) 0.47224(13)
N3 N 0.6604(2) 0.3283(2) 0.35079(15)
H3 H 0.7484 0.2798 0.3205
H4 H 0.6717 0.3963 0.3646
N4 N 0.4061(2) 0.47745(18) 0.82613(13)
N5 N -0.3386(2) 0.24617(18) 1.14382(13)
C1 C 0.1194(2) 0.1850(2) 0.74731(15)
C2 C 0.2121(2) 0.2358(2) 0.76290(15)
H5 H 0.2922 0.2491 0.7104
C3 C 0.1871(2) 0.2672(2) 0.85573(15)
C4 C 0.0688(2) 0.2470(2) 0.93273(15)
H6 H 0.0517 0.2685 0.9958
C5 C -0.0240(2) 0.1958(2) 0.91803(15)
C6 C 0.0028(2) 0.1651(2) 0.82513(15)
H7 H -0.0596 0.1298 0.8145
C7 C 0.1375(2) 0.1554(2) 0.64891(15)
C8 C 0.1771(2) 0.2331(2) 0.56219(15)
H8 H 0.1973 0.3045 0.5665
C9 C 0.1613(2) 0.1101(2) 0.46593(16)
H9 H 0.1700 0.0942 0.4027
C10 C 0.1215(3) 0.0282(2) 0.54857(17)
H10 H 0.1032 -0.0431 0.5421
C11 C 0.1084(2) 0.0511(2) 0.64088(16)
H11 H 0.0797 -0.0038 0.6985
C12 C 0.2792(2) 0.3252(2) 0.87610(15)
C13 C 0.3319(2) 0.4159(2) 0.80761(15)
H12 H 0.3147 0.4354 0.7445
C14 C 0.4312(2) 0.4481(2) 0.91545(16)
H13 H 0.4829 0.4914 0.9295
C15 C 0.3854(3) 0.3582(2) 0.98731(16)
H14 H 0.4057 0.3397 1.0493
C16 C 0.3089(2) 0.2954(2) 0.96751(16)
H15 H 0.2770 0.2325 1.0157
C17 C -0.1523(2) 0.1773(2) 0.99939(15)
C18 C -0.2220(2) 0.2565(2) 1.06977(16)
H16 H -0.1850 0.3219 1.0653
C19 C -0.3889(3) 0.1526(2) 1.14958(17)
H17 H -0.4708 0.1433 1.2019
C20 C -0.3267(3) 0.0694(2) 1.08280(17)
H18 H -0.3658 0.0047 1.0891
C21 C -0.2066(2) 0.0816(2) 1.00653(16)
H19 H -0.1621 0.0253 0.9598
C22 C 0.2418(2) 0.5316(2) 0.21517(17)
H20 H 0.2746 0.5724 0.1468
H21 H 0.2244 0.5879 0.2619
C23 C 0.5273(3) 0.1779(3) 0.41761(19)
H22 H 0.6036 0.1073 0.3887
H23 H 0.4616 0.1455 0.4772
C24 C 0.1068(2) 0.4998(2) 0.22860(17)
H24 H 0.0270 0.5759 0.2256
H25 H 0.1203 0.4542 0.1752
C25 C 0.5900(3) 0.2568(3) 0.4448(2)
H26 H 0.6612 0.2052 0.4805
H27 H 0.5146 0.3143 0.4887
F1 F 0.17249(17) 0.67908(15) 0.49622(12)
F2 F 0.37197(17) 0.55482(16) 0.40629(12)
F3 F 0.27742(18) 0.49102(15) 0.56977(11)
F4 F 0.16273(18) 0.50615(15) 0.45815(11)
B1 B 0.2464(3) 0.5598(3) 0.4817(2)
Cu2A Cu 0.46946(3) 0.62037(3) 0.737379(18)
Cu2_2 Cu -0.46946(3) 0.37963(3) 1.262621(18)
N4A N 0.5939(2) 0.52255(18) 0.17387(13)
N5_2 N 0.6614(2) 0.24617(18) 0.14382(13)
F5 F -0.20179(16) -0.19855(15) 0.78727(12)
F6 F -0.00864(19) -0.31293(14) 0.84240(11)
F7 F -0.0804(2) -0.10522(15) 0.83504(11)
F8 F 0.01975(16) -0.19241(14) 0.69344(10)
B2 B -0.0685(3) -0.2020(3) 0.79069(19)
O3 O 0.5724(4) 0.2072(4) 0.6825(3)
C26 C 0.6593(5) 0.1429(4) 0.7436(4)
O4? O 0.6004(17) 0.0480(12) 0.7718(12)
O5? O 0.7781(14) 0.1231(16) 0.6631(10)
loop_
_geom_bond_atom_site_label_1
_geom_bond_atom_site_label_2
_geom_bond_site_symmetry_1
_geom_bond_site_symmetry_2
Cu1 O1 1_555 1_555
Cu2 O1 1_555 1_555
O1 C22 1_555 1_555
O2 Cu1 1_555 1_555
N1 Cu1 1_555 1_555
H1 N1 1_555 1_555
H2 N1 1_555 1_555
N2 Cu1 1_555 1_555
N3 Cu2 1_555 1_555
H3 N3 1_555 1_555
H4 N3 1_555 1_555
N4 C13 1_555 1_555
N5 C18 1_555 1_555
C1 C2 1_555 1_555
C2 H5 1_555 1_555
C3 C2 1_555 1_555
C4 C3 1_555 1_555
H6 C4 1_555 1_555
C5 C4 1_555 1_555
C6 C1 1_555 1_555
H7 C6 1_555 1_555
C7 C1 1_555 1_555
C8 N2 1_555 1_555
H8 C8 1_555 1_555
C9 N2 1_555 1_555
H9 C9 1_555 1_555
C10 C9 1_555 1_555
H10 C10 1_555 1_555
C11 C7 1_555 1_555
H11 C11 1_555 1_555
C12 C3 1_555 1_555
C13 C12 1_555 1_555
H12 C13 1_555 1_555
C14 N4 1_555 1_555
H13 C14 1_555 1_555
C15 C14 1_555 1_555
H14 C15 1_555 1_555
C16 C12 1_555 1_555
H15 C16 1_555 1_555
C17 C5 1_555 1_555
C18 C17 1_555 1_555
H16 C18 1_555 1_555
C19 N5 1_555 1_555
H17 C19 1_555 1_555
C20 C19 1_555 1_555
H18 C20 1_555 1_555
C21 C17 1_555 1_555
H19 C21 1_555 1_555
C22 H20 1_555 1_555
H21 C22 1_555 1_555
C23 O2 1_555 1_555
H22 C23 1_555 1_555
H23 C23 1_555 1_555
C24 N1 1_555 1_555
H24 C24 1_555 1_555
H25 C24 1_555 1_555
C25 N3 1_555 1_555
H26 C25 1_555 1_555
H27 C25 1_555 1_555
F1 B1 1_555 1_555
F2 B1 1_555 1_555
F3 B1 1_555 1_555
F4 Cu1 1_555 1_555
B1 F4 1_555 1_555
F5 B2 1_555 1_555
F6 B2 1_555 1_555
F7 B2 1_555 1_555
F8 B2 1_555 1_555
O3 C26 1_555 1_555
Cu2A N4 1_555 1_555
Cu2_2 N5 1_555 1_555
N4A Cu2 1_555 1_555
N5_2 Cu2 1_555 1_555
Cu2 O2 1_555 1_555
C5 C6 1_555 1_555
C7 C8 1_555 1_555
C10 C11 1_555 1_555
C15 C16 1_555 1_555
C20 C21 1_555 1_555
C22 C24 1_555 1_555
C23 C25 1_555 1_555

#END
