
#######################################################################
#
#                 Cambridge Crystallographic Data Centre
#                                CCDC 
#
#######################################################################
#
# If this CIF has been generated from an entry in the Cambridge 
# Structural Database, then it will include bibliographic, chemical, 
# crystal, experimental, refinement or atomic coordinate data resulting 
# from the CCDC's data processing and validation procedures.
#
#######################################################################

data_NOCKAS
_symmetry_cell_setting           monoclinic
_symmetry_space_group_name_H-M   'P 21/c'
_symmetry_Int_Tables_number      14
_space_group_name_Hall           '-P 2ybc'
loop_
_symmetry_equiv_pos_site_id
_symmetry_equiv_pos_as_xyz
1 x,y,z
2 -x,1/2+y,1/2-z
3 -x,-y,-z
4 x,1/2-y,1/2+z
_cell_length_a                   12.2429(7)
_cell_length_b                   10.4943(5)
_cell_length_c                   20.5980(12)
_cell_angle_alpha                90
_cell_angle_beta                 125.020(4)
_cell_angle_gamma                90
_cell_volume                     2167.31
loop_
_atom_site_label
_atom_site_type_symbol
_atom_site_fract_x
_atom_site_fract_y
_atom_site_fract_z
C1 C 0.2160(8) -0.0394(9) 0.4645(5)
H1 H 0.1777 -0.0978 0.4798
C2 C 0.2808(8) -0.0852(9) 0.4310(5)
H2 H 0.2874 -0.1723 0.4255
C3 C 0.3346(7) 0.0011(9) 0.4063(4)
C4 C 0.3257(9) 0.1296(9) 0.4176(5)
H3 H 0.3603 0.1906 0.4014
C5 C 0.2640(9) 0.1647(9) 0.4538(5)
H4 H 0.2625 0.2509 0.4637
C6 C 0.3702(7) 0.1500(8) 0.2519(5)
C7 C 0.2358(8) 0.1332(9) 0.2146(5)
H5 H 0.2036 0.0826 0.2372
C8 C 0.1491(8) 0.1930(9) 0.1426(5)
H6 H 0.0581 0.1800 0.1171
C9 C 0.3201(8) 0.2820(11) 0.1460(6)
H7 H 0.3508 0.3343 0.1233
C10 C 0.4115(8) 0.2250(11) 0.2158(6)
H8 H 0.5020 0.2368 0.2390
C11 C -0.0847(10) 0.2728(11) 0.3573(6)
H9 H -0.0207 0.2467 0.3465
H10 H -0.1217 0.3543 0.3316
C12 C -0.1928(10) 0.1774(12) 0.3245(6)
H11 H -0.2444 0.1814 0.2672
H12 H -0.2516 0.2013 0.3398
C13 C -0.1498(9) 0.0419(10) 0.3495(5)
H13 H -0.2277 -0.0128 0.3214
H14 H -0.0911 0.0169 0.3343
Cu1 Cu 0.05936(8) 0.13173(9) 0.51014(5)
N1 N 0.2068(7) 0.0846(7) 0.4753(4)
N2 N 0.1885(6) 0.2679(6) 0.1078(4)
N3 N -0.0174(7) 0.2867(7) 0.4427(4)
H15 H -0.0759 0.3210 0.4509
H16 H 0.0491 0.3434 0.4603
O1 O -0.0841(5) 0.0232(5) 0.4307(3)
S1 S 0.4073(2) -0.0638(2) 0.36040(14)
S2 S 0.4961(2) 0.0845(3) 0.34496(14)
Cu1C Cu 0.05936(8) 0.36827(9) 0.01014(5)
Cu1B Cu -0.05936(8) -0.13173(9) 0.48986(5)
N2C N 0.1885(6) 0.2321(6) 0.6078(4)
O1B O 0.0841(5) -0.0232(5) 0.5693(3)
B1 B 0.2688(14) -0.0728(13) 0.0346(8)
F1 F 0.1887(13) -0.1680(13) -0.0163(8)
F2 F 0.181(2) 0.0044(19) 0.0390(14)
F3 F 0.322(2) 0.000(2) 0.0039(13)
F4 F 0.366(2) -0.114(2) 0.1078(9)
F5? F 0.225(3) 0.0442(15) 0.0042(14)
F6? F 0.284(3) -0.084(2) 0.1061(10)
F7? F 0.3927(16) -0.095(3) 0.0496(17)
F8? F 0.242(4) -0.165(3) 0.041(2)
F9? F 0.327(4) 0.033(3) 0.062(2)
F10? F 0.151(3) -0.021(4) -0.0583(18)
F11? F 0.350(3) -0.106(4) -0.011(2)
B2? B 0.267(3) -0.065(3) 0.0086(16)
loop_
_geom_bond_atom_site_label_1
_geom_bond_atom_site_label_2
_geom_bond_site_symmetry_1
_geom_bond_site_symmetry_2
C1 H1 1_555 1_555
C2 C1 1_555 1_555
H2 C2 1_555 1_555
C3 C2 1_555 1_555
C4 C3 1_555 1_555
H3 C4 1_555 1_555
C5 C4 1_555 1_555
H4 C5 1_555 1_555
C6 C7 1_555 1_555
C7 H5 1_555 1_555
C8 C7 1_555 1_555
H6 C8 1_555 1_555
C9 H7 1_555 1_555
C10 C6 1_555 1_555
H8 C10 1_555 1_555
C11 H9 1_555 1_555
H10 C11 1_555 1_555
C12 C11 1_555 1_555
H11 C12 1_555 1_555
H12 C12 1_555 1_555
C13 C12 1_555 1_555
H13 C13 1_555 1_555
H14 C13 1_555 1_555
Cu1 N1 1_555 1_555
N1 C1 1_555 1_555
N2 C8 1_555 1_555
N3 C11 1_555 1_555
H15 N3 1_555 1_555
H16 N3 1_555 1_555
O1 C13 1_555 1_555
S1 C3 1_555 1_555
S2 C6 1_555 1_555
B1 F1 1_555 1_555
F2 B1 1_555 1_555
F3 B1 1_555 1_555
F4 B1 1_555 1_555
Cu1C N2 1_555 1_555
Cu1B O1 1_555 1_555
N2C Cu1 1_555 1_555
O1B Cu1 1_555 1_555
C5 N1 1_555 1_555
C9 C10 1_555 1_555
C9 N2 1_555 1_555
Cu1 N3 1_555 1_555
Cu1 O1 1_555 1_555
S1 S2 1_555 1_555
Cu1B O1B 1_555 1_555

#END
