
#######################################################################
#
#                 Cambridge Crystallographic Data Centre
#                                CCDC 
#
#######################################################################
#
# If this CIF has been generated from an entry in the Cambridge 
# Structural Database, then it will include bibliographic, chemical, 
# crystal, experimental, refinement or atomic coordinate data resulting 
# from the CCDC's data processing and validation procedures.
#
#######################################################################

data_NOCKEW
_symmetry_cell_setting           triclinic
_symmetry_space_group_name_H-M   'P -1'
_symmetry_Int_Tables_number      2
_space_group_name_Hall           '-P 1'
loop_
_symmetry_equiv_pos_site_id
_symmetry_equiv_pos_as_xyz
1 x,y,z
2 -x,-y,-z
_cell_length_a                   10.4113(10)
_cell_length_b                   11.0951(10)
_cell_length_c                   14.1050(13)
_cell_angle_alpha                76.808(2)
_cell_angle_beta                 71.915(2)
_cell_angle_gamma                72.846(2)
_cell_volume                     1463.09
loop_
_atom_site_label
_atom_site_type_symbol
_atom_site_fract_x
_atom_site_fract_y
_atom_site_fract_z
Cu1 Cu 0.74097(4) 0.19374(4) 0.65226(3)
Cu2 Cu 0.46763(4) 0.13107(4) 0.73524(3)
O1 O 0.6490(2) 0.0874(2) 0.76889(16)
O2 O 0.5490(2) 0.2686(2) 0.65298(16)
O3 O 0.9304(3) 0.3442(3) 0.83431(18)
O4 O 1.0173(3) 0.2477(2) 0.70211(19)
O5 O 0.7921(3) 0.2972(2) 0.76819(18)
N1 N 0.9120(3) 0.0547(3) 0.6530(2)
H1 H 0.9251 0.0014 0.6078
H2 H 0.9889 0.0874 0.6367
N2 N 0.8121(3) 0.3119(3) 0.5319(2)
N3 N 0.3534(3) 0.1714(3) 0.6344(2)
H3 H 0.3458 0.0975 0.6197
H4 H 0.2654 0.2196 0.6594
N4 N 0.6048(3) 0.0149(3) 0.1724(2)
N5 N 0.9143(3) 0.2962(3) 0.7682(2)
N6 N 1.3488(3) 0.2695(3) -0.1451(2)
C1 C 0.8946(3) 0.3340(3) 0.2511(2)
C2 C 0.8055(3) 0.2733(3) 0.2336(2)
H5 H 0.7265 0.2571 0.2858
C3 C 0.8326(3) 0.2367(3) 0.1399(2)
C4 C 0.9488(3) 0.2609(3) 0.0643(2)
H6 H 0.9670 0.2364 0.0002
C5 C 1.0395(3) 0.3205(3) 0.0805(2)
C6 C 1.0098(3) 0.3573(3) 0.1745(2)
H7 H 1.0697 0.3991 0.1864
C7 C 0.8702(3) 0.3686(3) 0.3520(2)
C8 C 0.8895(3) 0.4845(3) 0.3618(2)
H8 H 0.9181 0.5431 0.3037
C9 C 0.8664(3) 0.5124(3) 0.4569(2)
H9 H 0.8770 0.5913 0.4650
C10 C 0.8279(3) 0.4251(3) 0.5403(2)
H10 H 0.8121 0.4451 0.6056
C11 C 0.8325(3) 0.2858(3) 0.4388(2)
H11 H 0.8204 0.2065 0.4328
C12 C 0.7401(3) 0.1726(3) 0.1187(2)
C13 C 0.6832(3) 0.0801(3) 0.1904(2)
H12 H 0.7005 0.0621 0.2551
C14 C 0.5807(3) 0.0413(3) 0.0814(2)
H13 H 0.5253 -0.0044 0.0684
C15 C 0.6321(3) 0.1316(3) 0.0049(3)
H14 H 0.6125 0.1475 -0.0589
C16 C 0.7133(3) 0.1984(3) 0.0240(2)
H15 H 0.7501 0.2609 -0.0268
C17 C 1.1688(3) 0.3392(3) 0.0010(2)
C18 C 1.2308(3) 0.2610(3) -0.0730(2)
H16 H 1.1867 0.1971 -0.0727
C19 C 1.4091(4) 0.3617(3) -0.1457(3)
H17 H 1.4925 0.3699 -0.1961
C20 C 1.3537(4) 0.4449(3) -0.0753(3)
H18 H 1.3987 0.5091 -0.0780
C21 C 1.2328(3) 0.4340(3) -0.0012(2)
H19 H 1.1939 0.4904 0.0476
C22 C 0.8877(3) -0.0143(3) 0.7572(3)
H20 H 0.8979 0.0358 0.8031
H21 H 0.9560 -0.0979 0.7603
C23 C 0.7408(3) -0.0331(3) 0.7884(3)
H22 H 0.7347 -0.0940 0.7494
H23 H 0.7153 -0.0678 0.8610
C24 C 0.4297(4) 0.2441(3) 0.5426(3)
H24 H 0.3666 0.2917 0.4993
H25 H 0.5086 0.1849 0.5033
C25 C 0.4823(4) 0.3353(3) 0.5763(3)
H26 H 0.5489 0.3727 0.5186
H27 H 0.4037 0.4056 0.6023
Cu2A Cu 0.53237(4) -0.13107(4) 0.26476(3)
Cu2_2 Cu 1.46763(4) 0.13107(4) -0.26476(3)
N4A N 0.3952(3) -0.0149(3) 0.8276(2)
N6_2 N 0.3488(3) 0.2695(3) 0.8549(2)
O6 O 0.7727(3) -0.3551(3) 0.6793(2)
H28 H 0.7714 -0.2806 0.6507
C26 C 0.6397(5) -0.3506(5) 0.7469(4)
H29 H 0.6240 -0.2950 0.7964
H30 H 0.6342 -0.4368 0.7820
H31 H 0.5684 -0.3169 0.7094
O7 O 0.8514(3) -0.1282(3) 0.5436(2)
O8 O 0.7452(3) 0.0169(3) 0.4426(2)
O9 O 0.6270(3) -0.0620(3) 0.5881(2)
N7 N 0.7404(3) -0.0577(3) 0.5249(2)
loop_
_geom_bond_atom_site_label_1
_geom_bond_atom_site_label_2
_geom_bond_site_symmetry_1
_geom_bond_site_symmetry_2
Cu1 O1 1_555 1_555
Cu2 O1 1_555 1_555
O1 C23 1_555 1_555
O2 Cu1 1_555 1_555
O3 N5 1_555 1_555
O4 N5 1_555 1_555
O5 Cu1 1_555 1_555
N1 Cu1 1_555 1_555
H1 N1 1_555 1_555
H2 N1 1_555 1_555
N2 Cu1 1_555 1_555
N3 Cu2 1_555 1_555
H3 N3 1_555 1_555
H4 N3 1_555 1_555
N4 C13 1_555 1_555
N5 O5 1_555 1_555
N6 C18 1_555 1_555
C1 C2 1_555 1_555
C2 H5 1_555 1_555
C3 C2 1_555 1_555
C4 C3 1_555 1_555
H6 C4 1_555 1_555
C5 C4 1_555 1_555
C6 C1 1_555 1_555
H7 C6 1_555 1_555
C7 C1 1_555 1_555
C8 C7 1_555 1_555
H8 C8 1_555 1_555
C9 C8 1_555 1_555
H9 C9 1_555 1_555
C10 N2 1_555 1_555
H10 C10 1_555 1_555
C11 N2 1_555 1_555
H11 C11 1_555 1_555
C12 C3 1_555 1_555
C13 C12 1_555 1_555
H12 C13 1_555 1_555
C14 N4 1_555 1_555
H13 C14 1_555 1_555
C15 C14 1_555 1_555
H14 C15 1_555 1_555
C16 C12 1_555 1_555
H15 C16 1_555 1_555
C17 C5 1_555 1_555
C18 C17 1_555 1_555
H16 C18 1_555 1_555
C19 N6 1_555 1_555
H17 C19 1_555 1_555
C20 C19 1_555 1_555
H18 C20 1_555 1_555
C21 C17 1_555 1_555
H19 C21 1_555 1_555
C22 N1 1_555 1_555
H20 C22 1_555 1_555
H21 C22 1_555 1_555
C23 C22 1_555 1_555
H22 C23 1_555 1_555
H23 C23 1_555 1_555
C24 N3 1_555 1_555
H24 C24 1_555 1_555
H25 C24 1_555 1_555
C25 O2 1_555 1_555
H26 C25 1_555 1_555
H27 C25 1_555 1_555
O6 H28 1_555 1_555
C26 O6 1_555 1_555
H29 C26 1_555 1_555
H30 C26 1_555 1_555
H31 C26 1_555 1_555
O7 N7 1_555 1_555
O8 N7 1_555 1_555
O9 N7 1_555 1_555
Cu2A N4 1_555 1_555
Cu2_2 N6 1_555 1_555
N4A Cu2 1_555 1_555
N6_2 Cu2 1_555 1_555
Cu2 O2 1_555 1_555
C5 C6 1_555 1_555
C7 C11 1_555 1_555
C9 C10 1_555 1_555
C15 C16 1_555 1_555
C20 C21 1_555 1_555
C24 C25 1_555 1_555

#END
