
#######################################################################
#
#                 Cambridge Crystallographic Data Centre
#                                CCDC 
#
#######################################################################
#
# If this CIF has been generated from an entry in the Cambridge 
# Structural Database, then it will include bibliographic, chemical, 
# crystal, experimental, refinement or atomic coordinate data resulting 
# from the CCDC's data processing and validation procedures.
#
#######################################################################

data_NOCKEV
_symmetry_cell_setting           orthorhombic
_symmetry_space_group_name_H-M   'P b c n'
_symmetry_Int_Tables_number      60
_space_group_name_Hall           '-P 2n 2ab'
loop_
_symmetry_equiv_pos_site_id
_symmetry_equiv_pos_as_xyz
1 x,y,z
2 1/2+x,1/2+y,1/2-z
3 x,-y,1/2+z
4 1/2-x,1/2+y,z
5 -x,-y,-z
6 1/2-x,1/2-y,1/2+z
7 -x,y,1/2-z
8 1/2+x,1/2-y,-z
_cell_length_a                   14.9116(2)
_cell_length_b                   16.4483(3)
_cell_length_c                   16.0002(1)
_cell_angle_alpha                90
_cell_angle_beta                 90
_cell_angle_gamma                90
_cell_volume                     3924.38
loop_
_atom_site_label
_atom_site_type_symbol
_atom_site_fract_x
_atom_site_fract_y
_atom_site_fract_z
S1 S 0.30503(7) 0.50732(7) -0.04081(7)
O1 O 0.1138(2) 0.3759(2) 0.0075(2)
O2 O 0.3398(2) 0.5631(2) 0.0195(3)
O3 O 0.3190(2) 0.5306(2) -0.1267(2)
N1 N 0.2001(2) 0.4867(2) -0.0226(2)
C1 C 0.3471(3) 0.4084(3) -0.0236(2)
C2 C 0.4342(3) 0.3783(3) -0.0262(3)
C3 C 0.4455(4) 0.2959(4) -0.0112(3)
C4 C 0.3719(4) 0.2453(3) 0.0032(3)
C5 C 0.2843(4) 0.2754(3) 0.0046(3)
C6 C 0.2736(3) 0.3593(2) -0.0077(2)
C7 C 0.1877(2) 0.4072(2) -0.0066(2)
H3 H 0.4827 0.4121 -0.0374
H4 H 0.5030 0.2740 -0.0109
H5 H 0.3814 0.1901 0.0121
H6 H 0.2354 0.2414 0.0133
Cl1 Cl 0.5000 0.3344(4) 0.2500
Cl2 Cl 0.4287(5) 0.4831(5) 0.1848(5)
C18 C 0.5000 0.4394(6) 0.2500
H15 H 0.4865 0.4580 0.3062
H16 H 0.5600 0.4580 0.2364
H15F H 0.5135 0.4580 0.1938
Cl2F Cl 0.5713(5) 0.4831(5) 0.3152(5)
H16F H 0.4400 0.4580 0.2636
Cu1 Cu 0.0000 0.45113(2) 0.2500
O4 O -0.0259(2) 0.4455(2) 0.0959(2)
N2 N 0.0952(2) 0.3646(1) 0.2350(2)
N3 N 0.4072(2) 0.0406(1) 0.2439(2)
C8 C 0.1723(2) 0.3697(2) 0.2786(2)
C9 C 0.2359(2) 0.3093(2) 0.2792(2)
C10 C 0.2206(2) 0.2380(2) 0.2331(2)
C11 C 0.1416(2) 0.2334(2) 0.1865(2)
C12 C 0.0814(2) 0.2973(2) 0.1884(2)
C13 C 0.3498(2) 0.0480(2) 0.1795(2)
C14 C 0.2892(2) 0.1108(2) 0.1736(2)
C15 C 0.2859(2) 0.1696(2) 0.2360(2)
C16 C 0.3458(2) 0.1622(2) 0.3022(2)
C17 C 0.4046(2) 0.0974(2) 0.3039(2)
H1 H 0.015(2) 0.427(2) 0.064(2)
H2 H -0.073(1) 0.451(2) 0.067(2)
H7 H 0.1829 0.4164 0.3099
H8 H 0.2885 0.3156 0.3097
H9 H 0.1296 0.1875 0.1544
H10 H 0.0294 0.2938 0.1564
H11 H 0.3511 0.0092 0.1374
H12 H 0.2506 0.1139 0.1281
H13 H 0.3463 0.2006 0.3449
H14 H 0.4441 0.0929 0.3486
O4F O 0.0259(2) 0.4455(2) 0.4041(2)
H1F H -0.015(2) 0.427(2) 0.436(2)
H2F H 0.073(1) 0.451(2) 0.433(2)
N2F N -0.0952(2) 0.3646(1) 0.2650(2)
N3F N -0.4072(2) 0.0406(1) 0.2561(2)
C8F C -0.1723(2) 0.3697(2) 0.2214(2)
C9F C -0.2359(2) 0.3093(2) 0.2208(2)
C10F C -0.2206(2) 0.2380(2) 0.2669(2)
C11F C -0.1416(2) 0.2334(2) 0.3135(2)
C12F C -0.0814(2) 0.2973(2) 0.3116(2)
C13F C -0.3498(2) 0.0480(2) 0.3205(2)
C14F C -0.2892(2) 0.1108(2) 0.3264(2)
C15F C -0.2859(2) 0.1696(2) 0.2640(2)
C16F C -0.3458(2) 0.1622(2) 0.1978(2)
C17F C -0.4046(2) 0.0974(2) 0.1961(2)
H7F H -0.1829 0.4164 0.1901
H8F H -0.2885 0.3156 0.1903
H9F H -0.1296 0.1875 0.3456
H10F H -0.0294 0.2938 0.3436
H11F H -0.3511 0.0092 0.3626
H12F H -0.2506 0.1139 0.3719
H13F H -0.3463 0.2006 0.1551
H14F H -0.4441 0.0929 0.1514
N3A N -0.0928(2) 0.5406(1) 0.2561(2)
N3C N 0.0928(2) 0.5406(1) 0.2439(2)
Cu1A Cu 0.5000 -0.04887(2) 0.2500
Cu1A_2 Cu -0.5000 -0.04887(2) 0.2500
loop_
_geom_bond_atom_site_label_1
_geom_bond_atom_site_label_2
_geom_bond_site_symmetry_1
_geom_bond_site_symmetry_2
Cu1 O4 1_555 1_555
S1 O2 1_555 1_555
O1 C7 1_555 1_555
O3 S1 1_555 1_555
O4 H1 1_555 1_555
N1 S1 1_555 1_555
N2 Cu1 1_555 1_555
N3 C13 1_555 1_555
C1 S1 1_555 1_555
C2 C1 1_555 1_555
C3 C2 1_555 1_555
C4 C3 1_555 1_555
C5 C4 1_555 1_555
C6 C1 1_555 1_555
C7 N1 1_555 1_555
C8 N2 1_555 1_555
C9 C8 1_555 1_555
C10 C9 1_555 1_555
C11 C10 1_555 1_555
C12 N2 1_555 1_555
C13 C14 1_555 1_555
C14 C15 1_555 1_555
C15 C10 1_555 1_555
C16 C15 1_555 1_555
C17 N3 1_555 1_555
H2 O4 1_555 1_555
H3 C2 1_555 1_555
H4 C3 1_555 1_555
H5 C4 1_555 1_555
H6 C5 1_555 1_555
H7 C8 1_555 1_555
H8 C9 1_555 1_555
H9 C11 1_555 1_555
H10 C12 1_555 1_555
H11 C13 1_555 1_555
H12 C14 1_555 1_555
H13 C16 1_555 1_555
H14 C17 1_555 1_555
Cl1 C18 1_555 1_555
Cl2 C18 1_555 1_555
C18 H15 1_555 1_555
H15 Cl2F 1_555 1_555
H16 C18 1_555 1_555
H15F Cl2 1_555 1_555
Cl2F C18 1_555 1_555
H16F Cl2 1_555 1_555
O4F Cu1 1_555 1_555
H1F O4F 1_555 1_555
H2F O4F 1_555 1_555
N2F Cu1 1_555 1_555
N3F C13F 1_555 1_555
C8F N2F 1_555 1_555
C9F C8F 1_555 1_555
C10F C9F 1_555 1_555
C11F C10F 1_555 1_555
C12F N2F 1_555 1_555
C13F C14F 1_555 1_555
C14F C15F 1_555 1_555
C15F C10F 1_555 1_555
C16F C15F 1_555 1_555
C17F N3F 1_555 1_555
H7F C8F 1_555 1_555
H8F C9F 1_555 1_555
H9F C11F 1_555 1_555
H10F C12F 1_555 1_555
H11F C13F 1_555 1_555
H12F C14F 1_555 1_555
H13F C16F 1_555 1_555
H14F C17F 1_555 1_555
N3A Cu1 1_555 1_555
N3C Cu1 1_555 1_555
Cu1A N3 1_555 1_555
Cu1A_2 N3F 1_555 1_555
C5 C6 1_555 1_555
C6 C7 1_555 1_555
C11 C12 1_555 1_555
C16 C17 1_555 1_555
C18 H15F 1_555 1_555
C18 H16F 1_555 1_555
H16 Cl2F 1_555 1_555
C11F C12F 1_555 1_555
C16F C17F 1_555 1_555

#END
