
#######################################################################
#
#                 Cambridge Crystallographic Data Centre
#                                CCDC 
#
#######################################################################
#
# If this CIF has been generated from an entry in the Cambridge 
# Structural Database, then it will include bibliographic, chemical, 
# crystal, experimental, refinement or atomic coordinate data resulting 
# from the CCDC's data processing and validation procedures.
#
#######################################################################

data_NOCKOG
_symmetry_cell_setting           monoclinic
_symmetry_space_group_name_H-M   'P 21/c'
_symmetry_Int_Tables_number      14
_space_group_name_Hall           '-P 2ybc'
loop_
_symmetry_equiv_pos_site_id
_symmetry_equiv_pos_as_xyz
1 x,y,z
2 -x,1/2+y,1/2-z
3 -x,-y,-z
4 x,1/2-y,1/2+z
_cell_length_a                   13.627(3)
_cell_length_b                   9.941(2)
_cell_length_c                   17.686(4)
_cell_angle_alpha                90
_cell_angle_beta                 92.732(4)
_cell_angle_gamma                90
_cell_volume                     2393.13
loop_
_atom_site_label
_atom_site_type_symbol
_atom_site_fract_x
_atom_site_fract_y
_atom_site_fract_z
Mg1 Mg 0.10416(13) 0.93128(19) 0.03581(10)
Mg2 Mg 0.34240(13) 1.07041(19) 0.02350(10)
O1 O 0.1116(3) 1.0819(5) 0.1110(2)
O2 O 0.2604(3) 1.1738(5) 0.1028(2)
O3 O 0.0417(3) 1.4198(4) 0.4470(2)
O4 O 0.1984(3) 1.4682(4) 0.4603(2)
O5 O 0.0909(3) 0.7721(4) -0.0395(2)
O6 O 0.1737(3) 0.8107(5) 0.1126(2)
O7 O 0.3167(3) 0.8964(4) 0.0808(2)
O8 O 0.5398(3) 0.6238(5) 0.4097(2)
O9 O 0.3994(3) 0.5221(4) 0.4359(2)
O10 O 0.3528(3) 1.2564(4) -0.0322(2)
N1 N 0.0237(4) 0.5859(5) -0.0955(3)
N2 N 0.3694(4) 1.4836(5) -0.0377(3)
C1 C 0.1814(4) 1.1543(6) 0.1348(3)
C2 C 0.1672(4) 1.2251(6) 0.2100(3)
C3 C 0.0741(4) 1.2314(6) 0.2386(3)
H1 H 0.0195 1.1923 0.2113
C4 C 0.0615(4) 1.2950(6) 0.3070(3)
H2 H -0.0024 1.3023 0.3259
C5 C 0.1419(4) 1.3482(6) 0.3484(3)
C6 C 0.2355(4) 1.3398(6) 0.3197(3)
H3 H 0.2908 1.3742 0.3483
C7 C 0.2478(4) 1.2813(7) 0.2497(3)
H4 H 0.3108 1.2795 0.2289
C8 C 0.1277(4) 1.4146(5) 0.4223(3)
C9 C 0.2651(5) 0.8299(6) 0.1242(3)
C10 C 0.3140(4) 0.7678(6) 0.1947(3)
C11 C 0.2572(4) 0.7150(6) 0.2507(3)
H5 H 0.1876 0.7173 0.2442
C12 C 0.3004(4) 0.6591(6) 0.3161(3)
H6 H 0.2610 0.6226 0.3540
C13 C 0.4034(4) 0.6573(6) 0.3253(3)
C14 C 0.4594(4) 0.7116(7) 0.2693(3)
H7 H 0.5289 0.7111 0.2761
C15 C 0.4165(5) 0.7661(7) 0.2041(3)
H8 H 0.4560 0.8019 0.1660
C16 C 0.4517(4) 0.5973(5) 0.3969(3)
C17 C 0.0210(5) 0.6949(6) -0.0514(3)
H9 H -0.0385 0.7142 -0.0277
C18 C 0.1124(5) 0.5499(8) -0.1341(5)
H10 H 0.1652 0.6131 -0.1195
H11 H 0.0990 0.5541 -0.1890
H12 H 0.1326 0.4585 -0.1197
C19 C -0.0629(6) 0.5025(7) -0.1102(4)
H13 H -0.1168 0.5359 -0.0806
H14 H -0.0478 0.4094 -0.0955
H15 H -0.0824 0.5059 -0.1642
C20 C 0.3508(4) 1.3691(6) -0.0028(3)
H16 H 0.3347 1.3741 0.0488
C21 C 0.3965(6) 1.4837(8) -0.1161(4)
H17 H 0.3988 1.3909 -0.1347
H18 H 0.4613 1.5254 -0.1197
H19 H 0.3478 1.5348 -0.1469
C22 C 0.3639(6) 1.6134(7) 0.0002(4)
H20 H 0.3459 1.5998 0.0526
H21 H 0.3141 1.6695 -0.0264
H22 H 0.4279 1.6582 -0.0003
Mg1C Mg 0.10416(13) 1.56872(19) 0.53581(10)
Mg1A Mg -0.10416(13) 1.43128(19) 0.46419(10)
Mg2C Mg 0.34240(13) 1.42959(19) 0.52350(10)
Mg2A Mg 0.65760(13) 0.57041(19) 0.47650(10)
Mg2C_2 Mg 0.34240(13) 0.42959(19) 0.52350(10)
O3C O 0.0417(3) 1.0802(4) -0.0530(2)
O3A O -0.0417(3) 0.9198(4) 0.0530(2)
O4C O 0.1984(3) 1.0318(4) -0.0397(2)
O8A O 0.4602(3) 1.1238(5) 0.0903(2)
O9C O 0.3994(3) 0.9779(4) -0.0641(2)
loop_
_geom_bond_atom_site_label_1
_geom_bond_atom_site_label_2
_geom_bond_site_symmetry_1
_geom_bond_site_symmetry_2
Mg1 O1 1_555 1_555
Mg2 O2 1_555 1_555
O1 C1 1_555 1_555
O2 C1 1_555 1_555
O3 C8 1_555 1_555
O4 C8 1_555 1_555
O5 Mg1 1_555 1_555
O6 Mg1 1_555 1_555
O7 Mg2 1_555 1_555
O8 C16 1_555 1_555
O9 C16 1_555 1_555
O10 Mg2 1_555 1_555
N1 C17 1_555 1_555
N2 C20 1_555 1_555
C1 C2 1_555 1_555
C2 C3 1_555 1_555
C3 H1 1_555 1_555
C4 C3 1_555 1_555
H2 C4 1_555 1_555
C5 C4 1_555 1_555
C6 C5 1_555 1_555
H3 C6 1_555 1_555
C7 C2 1_555 1_555
H4 C7 1_555 1_555
C8 C5 1_555 1_555
C9 O6 1_555 1_555
C10 C9 1_555 1_555
C11 C10 1_555 1_555
H5 C11 1_555 1_555
C12 C11 1_555 1_555
H6 C12 1_555 1_555
C13 C12 1_555 1_555
C14 C13 1_555 1_555
H7 C14 1_555 1_555
C15 C10 1_555 1_555
H8 C15 1_555 1_555
C16 C13 1_555 1_555
C17 O5 1_555 1_555
H9 C17 1_555 1_555
C18 N1 1_555 1_555
H10 C18 1_555 1_555
H11 C18 1_555 1_555
H12 C18 1_555 1_555
C19 N1 1_555 1_555
H13 C19 1_555 1_555
H14 C19 1_555 1_555
H15 C19 1_555 1_555
C20 O10 1_555 1_555
H16 C20 1_555 1_555
C21 N2 1_555 1_555
H17 C21 1_555 1_555
H18 C21 1_555 1_555
H19 C21 1_555 1_555
C22 N2 1_555 1_555
H20 C22 1_555 1_555
H21 C22 1_555 1_555
H22 C22 1_555 1_555
Mg1C O3 1_555 1_555
Mg1A O3 1_555 1_555
Mg2C O4 1_555 1_555
Mg2A O8 1_555 1_555
Mg2C_2 O9 1_555 1_555
O3C Mg1 1_555 1_555
O3A Mg1 1_555 1_555
O4C Mg1 1_555 1_555
O8A Mg2 1_555 1_555
O9C Mg2 1_555 1_555
Mg2 O4C 1_555 1_555
O4 Mg1C 1_555 1_555
O7 C9 1_555 1_555
C6 C7 1_555 1_555
C14 C15 1_555 1_555

#END
