
#######################################################################
#
#                 Cambridge Crystallographic Data Centre
#                                CCDC 
#
#######################################################################
#
# If this CIF has been generated from an entry in the Cambridge 
# Structural Database, then it will include bibliographic, chemical, 
# crystal, experimental, refinement or atomic coordinate data resulting 
# from the CCDC's data processing and validation procedures.
#
#######################################################################

data_NOCLOG
_symmetry_cell_setting           triclinic
_symmetry_space_group_name_H-M   'P -1'
_symmetry_Int_Tables_number      2
_space_group_name_Hall           '-P 1'
loop_
_symmetry_equiv_pos_site_id
_symmetry_equiv_pos_as_xyz
1 x,y,z
2 -x,-y,-z
_cell_length_a                   14.331(2)
_cell_length_b                   14.516(2)
_cell_length_c                   21.312(5)
_cell_angle_alpha                82.496(17)
_cell_angle_beta                 80.67(2)
_cell_angle_gamma                60.50(2)
_cell_volume                     3801.03
loop_
_atom_site_label
_atom_site_type_symbol
_atom_site_fract_x
_atom_site_fract_y
_atom_site_fract_z
Ba1 Ba 0.127060(11) 0.311540(11) -0.517890(6)
Ba2 Ba 0.105560(11) 0.303740(10) 0.024930(6)
Fe1 Fe 0.17527(3) 0.32216(3) -0.250810(16)
N1 N 0.2728(3) 0.0770(2) -0.23383(13)
N2 N 0.4105(2) 0.2816(2) -0.26879(13)
N3 N 0.0728(2) 0.5663(2) -0.25604(13)
N4 N -0.0579(2) 0.3569(3) -0.23510(13)
N5 N 0.1578(2) 0.3393(2) -0.10665(11)
N6 N 0.1700(2) 0.3278(2) -0.39547(11)
C1 C 0.2349(2) 0.1679(2) -0.24115(12)
C2 C 0.3221(2) 0.2988(2) -0.26245(12)
C3 C 0.1142(2) 0.4756(2) -0.25587(12)
C4 C 0.0298(2) 0.3415(2) -0.24003(12)
C5 C 0.1670(2) 0.3308(2) -0.16039(12)
C6 C 0.1756(2) 0.3233(2) -0.34189(12)
N7 N -0.00310(18) 0.22548(19) -0.43406(12)
N8 N 0.0010(2) 0.2305(2) -0.56397(12)
C7 C -0.0065(3) 0.2229(3) -0.37185(16)
H1 H 0.0256 0.2555 -0.3556
C8 C -0.0557(3) 0.1741(3) -0.32886(18)
H2 H -0.0554 0.1729 -0.2852
C9 C -0.1038(3) 0.1284(3) -0.3532(2)
H3 H -0.1361 0.0944 -0.3256
C10 C -0.1060(3) 0.1313(3) -0.41850(19)
C11 C -0.1597(3) 0.0879(3) -0.4462(3)
H4 H -0.1945 0.0551 -0.4198
C12 C -0.1606(3) 0.0938(3) -0.5091(3)
H5 H -0.1965 0.0656 -0.5257
C13 C -0.1078(3) 0.1421(3) -0.5510(2)
C14 C -0.1071(3) 0.1506(3) -0.6178(2)
H6 H -0.1425 0.1236 -0.6363
C15 C -0.0558(3) 0.1974(3) -0.6546(2)
H7 H -0.0556 0.2039 -0.6986
C16 C -0.0022(3) 0.2367(3) -0.62587(17)
H8 H 0.0332 0.2691 -0.6521
C17 C -0.0520(2) 0.1848(2) -0.52623(16)
C18 C -0.0524(2) 0.1807(2) -0.45839(16)
N9 N 0.26918(17) 0.09230(16) -0.47254(10)
N10 N 0.28246(18) 0.14364(17) -0.60119(10)
C19 C 0.2649(2) 0.0647(2) -0.41078(13)
H9 H 0.2089 0.1127 -0.3838
C20 C 0.3393(3) -0.0319(2) -0.38371(14)
H10 H 0.3315 -0.0479 -0.3401
C21 C 0.4227(2) -0.1016(2) -0.42178(15)
H11 H 0.4732 -0.1662 -0.4046
C22 C 0.4327(2) -0.0761(2) -0.48717(14)
C23 C 0.5204(2) -0.1449(2) -0.52967(16)
H12 H 0.5746 -0.2081 -0.5135
C24 C 0.5261(2) -0.1205(2) -0.59194(16)
H13 H 0.5841 -0.1671 -0.6186
C25 C 0.4451(2) -0.0244(2) -0.61857(14)
C26 C 0.4495(3) 0.0039(3) -0.68376(15)
H14 H 0.5052 -0.0423 -0.7117
C27 C 0.3733(3) 0.0978(3) -0.70626(15)
H15 H 0.3754 0.1168 -0.7497
C28 C 0.2911(3) 0.1663(2) -0.66330(14)
H16 H 0.2395 0.2315 -0.6792
C29 C 0.3587(2) 0.04860(19) -0.57860(12)
C30 C 0.3519(2) 0.02160(19) -0.51081(13)
N11 N 0.28634(17) 0.09482(16) -0.00660(11)
N12 N 0.19925(19) 0.12029(18) 0.11823(11)
C31 C 0.3291(2) 0.0801(2) -0.06673(14)
H17 H 0.2959 0.1342 -0.0972
C32 C 0.4213(2) -0.0124(2) -0.08687(15)
H18 H 0.4474 -0.0200 -0.1298
C33 C 0.4722(2) -0.0909(2) -0.04262(15)
H19 H 0.5342 -0.1526 -0.0551
C34 C 0.4315(2) -0.0792(2) 0.02161(14)
C35 C 0.4814(3) -0.1586(2) 0.07059(17)
H20 H 0.5449 -0.2201 0.0597
C36 C 0.4393(3) -0.1467(2) 0.13108(18)
H21 H 0.4739 -0.1996 0.1619
C37 C 0.3415(2) -0.0536(2) 0.14937(15)
C38 C 0.2935(3) -0.0404(3) 0.21192(16)
H22 H 0.3242 -0.0936 0.2434
C39 C 0.2010(3) 0.0512(3) 0.22700(16)
H23 H 0.1676 0.0612 0.2686
C40 C 0.1579(3) 0.1290(3) 0.17873(15)
H24 H 0.0958 0.1916 0.1897
C41 C 0.2906(2) 0.0287(2) 0.10342(13)
C42 C 0.3366(2) 0.01584(19) 0.03782(13)
N13 N -0.06894(19) 0.26304(19) 0.08642(12)
N14 N 0.01165(19) 0.19947(17) -0.03562(11)
C43 C -0.1107(2) 0.2947(3) 0.14428(15)
H25 H -0.0888 0.3360 0.1611
C44 C -0.1848(3) 0.2706(3) 0.18166(17)
H26 H -0.2113 0.2946 0.2225
C45 C -0.2183(3) 0.2112(3) 0.15746(19)
H27 H -0.2678 0.1936 0.1820
C46 C -0.1787(2) 0.1764(3) 0.09603(18)
C47 C -0.2108(3) 0.1144(3) 0.0666(2)
H28 H -0.2592 0.0940 0.0898
C48 C -0.1739(3) 0.0854(3) 0.0076(2)
H29 H -0.1977 0.0463 -0.0100
C49 C -0.0982(3) 0.1127(2) -0.02957(18)
C50 C -0.0582(3) 0.0845(3) -0.0925(2)
H30 H -0.0808 0.0459 -0.1116
C51 C 0.0134(3) 0.1131(3) -0.12561(18)
H31 H 0.0401 0.0953 -0.1676
C52 C 0.0462(3) 0.1705(2) -0.09482(16)
H32 H 0.0957 0.1895 -0.1178
C53 C -0.0612(2) 0.1716(2) -0.00306(15)
C54 C -0.1021(2) 0.2042(2) 0.06144(15)
O1 O -0.09352(16) 0.47059(16) -0.49249(12)
O2 O 0.30166(17) 0.34852(16) -0.56809(11)
O3 O 0.0761(2) 0.4333(2) -0.63236(12)
O4 O -0.0953(2) 0.48460(19) 0.02122(17)
O5 O 0.29186(17) 0.32051(16) 0.02303(12)
O6 O 0.0888(2) 0.3873(2) 0.13967(12)
H49 H -0.0845(32) 0.4851(35) -0.5371(4)
H50 H -0.1531(27) 0.4577(42) -0.4826(18)
H51 H 0.3521(24) 0.3307(25) -0.6052(11)
H52 H 0.2862(27) 0.4155(14) -0.5563(15)
H53 H 0.0130(24) 0.4685(47) -0.6536(22)
H54 H 0.1320(25) 0.4415(41) -0.6585(19)
H55 H -0.1586(32) 0.4746(53) 0.0271(14)
H56 H -0.0726(14) 0.4683(14) -0.0254(4)
H57 H 0.2850(36) 0.3858(16) 0.0034(12)
H58 H 0.2866(24) 0.3232(21) 0.0677(3)
H59 H 0.0226(24) 0.4214(46) 0.1661(23)
H60 H 0.1465(32) 0.3624(75) 0.1649(26)
O1A O 0.09352(16) 0.52941(16) -0.50751(12)
O4A O 0.0953(2) 0.51540(19) -0.02122(17)
Ba1A Ba -0.127060(11) 0.688460(11) -0.482110(6)
Ba2A Ba -0.105560(11) 0.696260(10) -0.024930(6)
H49A H 0.0845(32) 0.5149(35) -0.4629(4)
H50A H 0.1531(27) 0.5423(42) -0.5174(18)
H55A H 0.1586(32) 0.5254(53) -0.0271(14)
H56A H 0.0726(14) 0.5317(14) 0.0254(4)
Cl1 Cl 0.34222(8) 0.27925(8) 0.16173(5)
N15 N 0.6812(2) -0.47370(19) 0.08300(12)
N16 N 0.7538(2) -0.55291(19) -0.03461(11)
C55 C 0.6475(3) -0.4391(3) 0.14133(15)
H33 H 0.6724 -0.3968 0.1540
C56 C 0.5780(3) -0.4621(3) 0.18420(16)
H34 H 0.5575 -0.4364 0.2247
C57 C 0.5395(3) -0.5225(3) 0.16677(16)
H35 H 0.4922 -0.5383 0.1953
C58 C 0.5711(2) -0.5611(2) 0.10584(15)
C59 C 0.5319(3) -0.6233(3) 0.08248(18)
H36 H 0.4839 -0.6405 0.1092
C60 C 0.5629(3) -0.6565(3) 0.0239(2)
H37 H 0.5350 -0.6952 0.0101
C61 C 0.6385(2) -0.6340(2) -0.01889(15)
C62 C 0.6746(3) -0.6685(3) -0.08122(17)
H38 H 0.6493 -0.7078 -0.0970
C63 C 0.7465(3) -0.6439(3) -0.11788(17)
H39 H 0.7700 -0.6650 -0.1595
C64 C 0.7847(3) -0.5873(3) -0.09314(15)
H40 H 0.8350 -0.5723 -0.1189
C65 C 0.6799(2) -0.5749(2) 0.00236(13)
C66 C 0.6439(2) -0.5356(2) 0.06525(13)
N17 N -0.2703(2) 0.4285(2) -0.41208(14)
N18 N -0.2595(2) 0.4566(2) -0.54226(13)
C67 C -0.2756(3) 0.4126(3) -0.34963(18)
H41 H -0.2366 0.4320 -0.3284
C68 C -0.3352(3) 0.3692(3) -0.31341(19)
H42 H -0.3356 0.3593 -0.2694
C69 C -0.3932(3) 0.3414(3) -0.34364(19)
H43 H -0.4346 0.3127 -0.3203
C70 C -0.3908(2) 0.3559(2) -0.41020(17)
C71 C -0.4521(3) 0.3306(3) -0.4447(2)
H44 H -0.4953 0.3030 -0.4226
C72 C -0.4486(3) 0.3457(3) -0.5074(2)
H45 H -0.4894 0.3286 -0.5286
C73 C -0.3832(2) 0.3879(2) -0.54326(17)
C74 C -0.3781(3) 0.4059(3) -0.6104(2)
H46 H -0.4171 0.3893 -0.6334
C75 C -0.3156(4) 0.4475(3) -0.64040(19)
H47 H -0.3107 0.4595 -0.6845
C76 C -0.2586(3) 0.4724(3) -0.60449(19)
H48 H -0.2171 0.5022 -0.6261
C77 C -0.3224(2) 0.4146(2) -0.51159(15)
C78 C -0.3266(2) 0.3987(2) -0.44313(15)
O7 O -0.44444(19) 0.67700(19) -0.31036(12)
H61 H -0.3918(22) 0.6451(25) -0.2817(14)
H62 H -0.4414(32) 0.7363(22) -0.3320(18)
O8 O 0.4224(2) -0.1562(2) -0.22322(14)
H63 H 0.3829(31) -0.0809(5) -0.2243(21)
H64 H 0.4733(26) -0.1790(26) -0.1936(16)
O9 O -0.2263(3) 0.5633(3) -0.26471(14)
H65 H -0.1740(40) 0.4941(17) -0.2515(20)
H66 H -0.2504(31) 0.6069(25) -0.2298(12)
loop_
_geom_bond_atom_site_label_1
_geom_bond_atom_site_label_2
_geom_bond_site_symmetry_1
_geom_bond_site_symmetry_2
Ba1 N6 1_555 1_555
Ba2 N5 1_555 1_555
Fe1 C1 1_555 1_555
N1 C1 1_555 1_555
N2 C2 1_555 1_555
N3 C3 1_555 1_555
N4 C4 1_555 1_555
N5 C5 1_555 1_555
N6 C6 1_555 1_555
C2 Fe1 1_555 1_555
C3 Fe1 1_555 1_555
C4 Fe1 1_555 1_555
C5 Fe1 1_555 1_555
C6 Fe1 1_555 1_555
N7 Ba1 1_555 1_555
N8 Ba1 1_555 1_555
C7 N7 1_555 1_555
H1 C7 1_555 1_555
C8 C7 1_555 1_555
H2 C8 1_555 1_555
C9 C8 1_555 1_555
H3 C9 1_555 1_555
C10 C9 1_555 1_555
C11 C10 1_555 1_555
H4 C11 1_555 1_555
C12 C11 1_555 1_555
H5 C12 1_555 1_555
C13 C12 1_555 1_555
C14 C13 1_555 1_555
H6 C14 1_555 1_555
C15 C14 1_555 1_555
H7 C15 1_555 1_555
C16 N8 1_555 1_555
H8 C16 1_555 1_555
C17 N8 1_555 1_555
C18 N7 1_555 1_555
N9 Ba1 1_555 1_555
N10 Ba1 1_555 1_555
C19 N9 1_555 1_555
H9 C19 1_555 1_555
C20 C19 1_555 1_555
H10 C20 1_555 1_555
C21 C20 1_555 1_555
H11 C21 1_555 1_555
C22 C21 1_555 1_555
C23 C22 1_555 1_555
H12 C23 1_555 1_555
C24 C23 1_555 1_555
H13 C24 1_555 1_555
C25 C24 1_555 1_555
C26 C25 1_555 1_555
H14 C26 1_555 1_555
C27 C26 1_555 1_555
H15 C27 1_555 1_555
C28 N10 1_555 1_555
H16 C28 1_555 1_555
C29 N10 1_555 1_555
C30 N9 1_555 1_555
N11 Ba2 1_555 1_555
N12 Ba2 1_555 1_555
C31 N11 1_555 1_555
H17 C31 1_555 1_555
C32 C31 1_555 1_555
H18 C32 1_555 1_555
C33 C32 1_555 1_555
H19 C33 1_555 1_555
C34 C33 1_555 1_555
C35 C34 1_555 1_555
H20 C35 1_555 1_555
C36 C35 1_555 1_555
H21 C36 1_555 1_555
C37 C36 1_555 1_555
C38 C37 1_555 1_555
H22 C38 1_555 1_555
C39 C38 1_555 1_555
H23 C39 1_555 1_555
C40 N12 1_555 1_555
H24 C40 1_555 1_555
C41 N12 1_555 1_555
C42 N11 1_555 1_555
N13 Ba2 1_555 1_555
N14 Ba2 1_555 1_555
C43 N13 1_555 1_555
H25 C43 1_555 1_555
C44 C43 1_555 1_555
H26 C44 1_555 1_555
C45 C44 1_555 1_555
H27 C45 1_555 1_555
C46 C45 1_555 1_555
C47 C46 1_555 1_555
H28 C47 1_555 1_555
C48 C47 1_555 1_555
H29 C48 1_555 1_555
C49 C48 1_555 1_555
C50 C49 1_555 1_555
H30 C50 1_555 1_555
C51 C50 1_555 1_555
H31 C51 1_555 1_555
C52 N14 1_555 1_555
H32 C52 1_555 1_555
C53 N14 1_555 1_555
C54 N13 1_555 1_555
N15 C55 1_555 1_555
N16 C64 1_555 1_555
C55 H33 1_555 1_555
C56 C55 1_555 1_555
H34 C56 1_555 1_555
C57 C56 1_555 1_555
H35 C57 1_555 1_555
C58 C57 1_555 1_555
C59 C58 1_555 1_555
H36 C59 1_555 1_555
C60 C59 1_555 1_555
H37 C60 1_555 1_555
C61 C60 1_555 1_555
C62 C61 1_555 1_555
H38 C62 1_555 1_555
C63 C62 1_555 1_555
H39 C63 1_555 1_555
C64 C63 1_555 1_555
H40 C64 1_555 1_555
C65 N16 1_555 1_555
C66 N15 1_555 1_555
N17 C67 1_555 1_555
N18 C76 1_555 1_555
C67 H41 1_555 1_555
C68 C67 1_555 1_555
H42 C68 1_555 1_555
C69 C68 1_555 1_555
H43 C69 1_555 1_555
C70 C69 1_555 1_555
C71 C70 1_555 1_555
H44 C71 1_555 1_555
C72 C71 1_555 1_555
H45 C72 1_555 1_555
C73 C72 1_555 1_555
C74 C73 1_555 1_555
H46 C74 1_555 1_555
C75 C74 1_555 1_555
H47 C75 1_555 1_555
C76 C75 1_555 1_555
H48 C76 1_555 1_555
C77 N18 1_555 1_555
C78 N17 1_555 1_555
O1 Ba1 1_555 1_555
O2 Ba1 1_555 1_555
O3 Ba1 1_555 1_555
O4 Ba2 1_555 1_555
O5 Ba2 1_555 1_555
O6 Ba2 1_555 1_555
O7 H61 1_555 1_555
O8 H63 1_555 1_555
O9 H65 1_555 1_555
H49 O1 1_555 1_555
H50 O1 1_555 1_555
H51 O2 1_555 1_555
H52 O2 1_555 1_555
H53 O3 1_555 1_555
H54 O3 1_555 1_555
H55 O4 1_555 1_555
H56 O4 1_555 1_555
H57 O5 1_555 1_555
H58 O5 1_555 1_555
H59 O6 1_555 1_555
H60 O6 1_555 1_555
H62 O7 1_555 1_555
H64 O8 1_555 1_555
H66 O9 1_555 1_555
O1A Ba1 1_555 1_555
O4A Ba2 1_555 1_555
Ba1A O1 1_555 1_555
Ba2A O4 1_555 1_555
H49A O1A 1_555 1_555
H50A O1A 1_555 1_555
H55A O4A 1_555 1_555
H56A O4A 1_555 1_555
C10 C18 1_555 1_555
C13 C17 1_555 1_555
C15 C16 1_555 1_555
C17 C18 1_555 1_555
C22 C30 1_555 1_555
C25 C29 1_555 1_555
C27 C28 1_555 1_555
C29 C30 1_555 1_555
C34 C42 1_555 1_555
C37 C41 1_555 1_555
C39 C40 1_555 1_555
C41 C42 1_555 1_555
C46 C54 1_555 1_555
C49 C53 1_555 1_555
C51 C52 1_555 1_555
C53 C54 1_555 1_555
C58 C66 1_555 1_555
C61 C65 1_555 1_555
C65 C66 1_555 1_555
C70 C78 1_555 1_555
C73 C77 1_555 1_555
C77 C78 1_555 1_555
O1A Ba1A 1_555 1_555
O4A Ba2A 1_555 1_555

#END
