
#######################################################################
#
#                 Cambridge Crystallographic Data Centre
#                                CCDC 
#
#######################################################################
#
# If this CIF has been generated from an entry in the Cambridge 
# Structural Database, then it will include bibliographic, chemical, 
# crystal, experimental, refinement or atomic coordinate data resulting 
# from the CCDC's data processing and validation procedures.
#
#######################################################################

data_NOCLOH01
_symmetry_cell_setting           trigonal
_symmetry_space_group_name_H-M   'P 31'
_symmetry_Int_Tables_number      144
_space_group_name_Hall           'P 31'
loop_
_symmetry_equiv_pos_site_id
_symmetry_equiv_pos_as_xyz
1 x,y,z
2 -y,x-y,1/3+z
3 -x+y,-x,2/3+z
_cell_length_a                   10.6123(2)
_cell_length_b                   10.6123(2)
_cell_length_c                   9.8289(2)
_cell_angle_alpha                90
_cell_angle_beta                 90
_cell_angle_gamma                120
_cell_volume                     958.638
loop_
_atom_site_label
_atom_site_type_symbol
_atom_site_fract_x
_atom_site_fract_y
_atom_site_fract_z
Sr1 Sr 0.09861(3) 0.12039(3) 0.83335(2)
O1 O -0.0747(3) -0.1329(3) 0.9585(3)
O2 O -0.0071(3) -0.1595(3) 0.7539(3)
O3 O -0.1146(5) -0.7787(4) 1.1681(4)
O4 O -0.0741(3) -0.8271(3) 0.9604(3)
O5 O 0.2573(4) 0.3836(4) 0.7819(5)
N1 N 0.4759(6) 0.5871(6) 0.7695(6)
C1 C -0.0491(4) -0.2049(4) 0.8717(4)
C2 C -0.0619(4) -0.3478(4) 0.9138(4)
C3 C -0.1078(6) -0.4001(5) 1.0432(5)
H1 H -0.1330 -0.3486 1.1033
C4 C -0.1168(7) -0.5293(6) 1.0844(5)
H2 H -0.1481 -0.5637 1.1721
C5 C -0.0798(5) -0.6078(5) 0.9967(5)
C6 C -0.0885(5) -0.7462(5) 1.0457(5)
C7 C -0.0330(6) -0.5540(5) 0.8667(5)
H3 H -0.0074 -0.6052 0.8067
C8 C -0.0240(5) -0.4255(5) 0.8252(5)
H4 H 0.0075 -0.3907 0.7377
C9 C 0.5611(11) 0.5016(12) 0.8001(11)
H5 H 0.6007 0.5242 0.8905
H6 H 0.6387 0.5303 0.7356
H7 H 0.4952 0.3988 0.7928
C10 C 0.5780(13) 0.7339(11) 0.7513(16)
H8 H 0.5286 0.7868 0.7315
H9 H 0.6412 0.7442 0.6770
H10 H 0.6343 0.7716 0.8329
C11 C 0.3498(10) 0.5056(11) 0.7700(9)
H11 H 0.3045 0.5601 0.7547
Sr1A Sr -0.12039(3) -0.02178(4) 1.16668(2)
Sr1B Sr 0.02178(4) -0.09861(3) 0.50002(2)
Sr1A_2 Sr -0.12039(3) -1.02178(4) 1.16668(2)
Sr1_2 Sr 0.09861(3) -0.87961(3) 0.83335(2)
O1B O -0.0582(4) 0.0747(3) 0.6252(3)
O2A O 0.1595(3) 0.1524(4) 1.0872(3)
O3B O 0.3359(6) 0.1146(5) 0.8348(4)
O4_2 O -0.0741(3) 0.1729(3) 0.9604(3)
O4B O 0.2470(4) 0.0741(3) 0.6271(3)
loop_
_geom_bond_atom_site_label_1
_geom_bond_atom_site_label_2
_geom_bond_site_symmetry_1
_geom_bond_site_symmetry_2
Sr1 O1 1_555 1_555
O1 C1 1_555 1_555
O2 Sr1 1_555 1_555
O3 C6 1_555 1_555
O4 C6 1_555 1_555
O5 Sr1 1_555 1_555
N1 C9 1_555 1_555
C1 O2 1_555 1_555
C2 C1 1_555 1_555
C3 C2 1_555 1_555
H1 C3 1_555 1_555
C4 C3 1_555 1_555
H2 C4 1_555 1_555
C5 C4 1_555 1_555
C6 C5 1_555 1_555
C7 C5 1_555 1_555
H3 C7 1_555 1_555
C8 C2 1_555 1_555
H4 C8 1_555 1_555
C9 H5 1_555 1_555
H6 C9 1_555 1_555
H7 C9 1_555 1_555
C10 N1 1_555 1_555
H8 C10 1_555 1_555
H9 C10 1_555 1_555
H10 C10 1_555 1_555
C11 O5 1_555 1_555
H11 C11 1_555 1_555
Sr1A O1 1_555 1_555
Sr1B O2 1_555 1_555
Sr1A_2 O3 1_555 1_555
Sr1_2 O4 1_555 1_555
O1B Sr1 1_555 1_555
O2A Sr1 1_555 1_555
O3B Sr1 1_555 1_555
O4_2 Sr1 1_555 1_555
O4B Sr1 1_555 1_555
O4 Sr1A_2 1_555 1_555
N1 C11 1_555 1_555
C7 C8 1_555 1_555
Sr1A O2A 1_555 1_555
Sr1A O4_2 1_555 1_555
Sr1B O1B 1_555 1_555
Sr1B O4B 1_555 1_555

#END
