
#######################################################################
#
#                 Cambridge Crystallographic Data Centre
#                                CCDC 
#
#######################################################################
#
# If this CIF has been generated from an entry in the Cambridge 
# Structural Database, then it will include bibliographic, chemical, 
# crystal, experimental, refinement or atomic coordinate data resulting 
# from the CCDC's data processing and validation procedures.
#
#######################################################################

data_NOCLOH
_symmetry_cell_setting           trigonal
_symmetry_space_group_name_H-M   'P 32'
_symmetry_Int_Tables_number      145
_space_group_name_Hall           'P 32'
loop_
_symmetry_equiv_pos_site_id
_symmetry_equiv_pos_as_xyz
1 x,y,z
2 -y,x-y,2/3+z
3 -x+y,-x,1/3+z
_cell_length_a                   10.599(1)
_cell_length_b                   10.599(1)
_cell_length_c                   9.806(2)
_cell_angle_alpha                90
_cell_angle_beta                 90
_cell_angle_gamma                120
_cell_volume                     954.009
loop_
_atom_site_label
_atom_site_type_symbol
_atom_site_fract_x
_atom_site_fract_y
_atom_site_fract_z
Sr1 Sr 0.31169(4) 0.54647(2) -0.12349(3)
O1 O 0.3407(4) 0.5154(2) 0.1290(2)
O2 O 0.4126(4) 0.6120(2) 0.3336(2)
O3 O 0.4432(4) 0.0008(2) 0.5476(2)
O4 O 0.4066(4) -0.0869(2) 0.33808(18)
O5 O 0.2072(5) 0.2829(2) -0.1732(3)
N1 N 0.2313(6) 0.0820(3) -0.1826(3)
C1 C 0.3839(6) 0.5126(3) 0.2470(3)
C2 C 0.3966(6) 0.3822(3) 0.2905(3)
C3 C 0.4447(6) 0.3768(3) 0.4200(3)
C4 C 0.4524(6) 0.2565(3) 0.4623(3)
C5 C 0.4110(6) 0.1383(3) 0.3747(3)
C6 C 0.4203(6) 0.0085(3) 0.4248(3)
C7 C 0.3620(6) 0.1437(3) 0.2442(3)
C8 C 0.3546(6) 0.2647(3) 0.2015(3)
C9 C 0.1611(8) 0.1507(4) -0.1893(4)
C10 C 0.3916(10) 0.1623(5) -0.1542(5)
C11 C 0.1728(11) -0.0714(5) -0.2042(7)
H1 H 0.47220 0.45480 0.47923
H2 H 0.48540 0.25430 0.54963
H3 H 0.33400 0.06550 0.18523
H4 H 0.32180 0.26760 0.11423
H5 H 0.06240 0.09430 -0.20887
H6 H 0.42650 0.26510 -0.15157
H7 H 0.44150 0.14180 -0.22487
H8 H 0.40980 0.13160 -0.06787
H9 H 0.07120 -0.11590 -0.22657
H10 H 0.18410 -0.11490 -0.12267
H11 H 0.22380 -0.08600 -0.27787
Sr1B Sr 0.23478(4) 0.68831(4) 0.20984(3)
Sr1A Sr 0.45353(2) 0.76522(4) 0.54318(3)
Sr1A_2 Sr 0.45353(2) -0.23478(4) 0.54318(3)
Sr1B_2 Sr 0.23478(4) -0.31169(4) 0.20984(3)
O1A O 0.4846(2) 0.8253(4) -0.2043(2)
O2A O 0.3880(2) 0.8006(4) 0.0003(2)
O2B O 0.1994(4) 0.5874(4) -0.3331(2)
O3B O 0.5576(4) 0.5568(4) -0.1191(2)
O4A O 0.0869(2) 0.4935(4) 0.00475(18)
O4B O 0.5065(4) 0.5934(4) -0.32859(18)
loop_
_geom_bond_atom_site_label_1
_geom_bond_atom_site_label_2
_geom_bond_site_symmetry_1
_geom_bond_site_symmetry_2
Sr1 O1 1_555 1_555
O1 C1 1_555 1_555
O2 C1 1_555 1_555
O3 C6 1_555 1_555
O4 C6 1_555 1_555
O5 Sr1 1_555 1_555
N1 C9 1_555 1_555
C1 C2 1_555 1_555
C2 C3 1_555 1_555
C3 C4 1_555 1_555
C4 C5 1_555 1_555
C5 C6 1_555 1_555
C7 C5 1_555 1_555
C8 C2 1_555 1_555
C9 O5 1_555 1_555
C10 N1 1_555 1_555
C11 N1 1_555 1_555
H1 C3 1_555 1_555
H2 C4 1_555 1_555
H3 C7 1_555 1_555
H4 C8 1_555 1_555
H5 C9 1_555 1_555
H6 C10 1_555 1_555
H7 C10 1_555 1_555
H8 C10 1_555 1_555
H9 C11 1_555 1_555
H10 C11 1_555 1_555
H11 C11 1_555 1_555
Sr1B O1 1_555 1_555
Sr1A O2 1_555 1_555
Sr1A_2 O3 1_555 1_555
Sr1B_2 O4 1_555 1_555
O1A Sr1 1_555 1_555
O2A Sr1 1_555 1_555
O2B Sr1 1_555 1_555
O3B Sr1 1_555 1_555
O4A Sr1 1_555 1_555
O4B Sr1 1_555 1_555
O2 Sr1B 1_555 1_555
O4 Sr1A_2 1_555 1_555
C7 C8 1_555 1_555
Sr1B O2A 1_555 1_555
Sr1B O4A 1_555 1_555

#END
