
#######################################################################
#
#                 Cambridge Crystallographic Data Centre
#                                CCDC 
#
#######################################################################
#
# If this CIF has been generated from an entry in the Cambridge 
# Structural Database, then it will include bibliographic, chemical, 
# crystal, experimental, refinement or atomic coordinate data resulting 
# from the CCDC's data processing and validation procedures.
#
#######################################################################

data_NOCQIG
_symmetry_cell_setting           monoclinic
_symmetry_space_group_name_H-M   'C 2/c'
_symmetry_Int_Tables_number      15
_space_group_name_Hall           '-C 2yn'
loop_
_symmetry_equiv_pos_site_id
_symmetry_equiv_pos_as_xyz
1 x,y,z
2 1/2+x,1/2+y,z
3 -x,y,1/2-z
4 1/2-x,1/2+y,1/2-z
5 -x,-y,-z
6 1/2-x,1/2-y,-z
7 x,-y,1/2+z
8 1/2+x,1/2-y,1/2+z
_cell_length_a                   17.0900(11)
_cell_length_b                   10.9833(10)
_cell_length_c                   7.9716(5)
_cell_angle_alpha                90
_cell_angle_beta                 103.880(5)
_cell_angle_gamma                90
_cell_volume                     1452.61
loop_
_atom_site_label
_atom_site_type_symbol
_atom_site_fract_x
_atom_site_fract_y
_atom_site_fract_z
Pb1 Pb 0.5000 0.568460(15) 0.2500
C1 C 0.8052(2) 0.2582(4) 0.3454(5)
H1 H 0.7788 0.1917 0.3787
O1 O 0.63802(16) 0.4659(3) 0.3218(3)
O2 O 0.54671(15) 0.4060(3) 0.0957(3)
C2 C 0.8847(3) 0.4522(5) 0.2482(8)
H2 H 0.9117 0.5184 0.2158
C3 C 0.9252(3) 0.3745(5) 0.3731(7)
H3 H 0.9795 0.3873 0.4243
C4 C 0.6759(2) 0.3159(4) 0.1341(5)
H4 H 0.6620 0.2333 0.1588
H5 H 0.6685 0.3228 0.0100
C5 C 0.7634(2) 0.3370(3) 0.2188(5)
C6 C 0.6180(2) 0.4025(3) 0.1903(4)
C7 C 0.8856(2) 0.2778(5) 0.4221(5)
H6 H 0.9129 0.2249 0.5075
C8 C 0.8041(3) 0.4341(4) 0.1694(7)
H7 H 0.7775 0.4871 0.0834
Pb1F Pb 0.5000 0.431540(15) 0.7500
Pb1F_2 Pb 0.5000 0.431540(15) -0.2500
C1B C 0.1948(2) 0.2582(4) 0.1546(5)
H1B H 0.2212 0.1917 0.1213
O1B O 0.36198(16) 0.4659(3) 0.1782(3)
O2B O 0.45329(15) 0.4060(3) 0.4043(3)
O2F O 0.54671(15) 0.5940(3) 0.5957(3)
O2D O 0.45329(15) 0.5940(3) -0.0957(3)
C2B C 0.1153(3) 0.4522(5) 0.2518(8)
H2B H 0.0883 0.5184 0.2842
C3B C 0.0748(3) 0.3745(5) 0.1269(7)
H3B H 0.0205 0.3873 0.0757
C4B C 0.3241(2) 0.3159(4) 0.3659(5)
H4B H 0.3380 0.2333 0.3412
H5B H 0.3315 0.3228 0.4900
C5B C 0.2366(2) 0.3370(3) 0.2812(5)
C6B C 0.3820(2) 0.4025(3) 0.3097(4)
C7B C 0.1144(2) 0.2778(5) 0.0779(5)
H6B H 0.0871 0.2249 -0.0075
C8B C 0.1959(3) 0.4341(4) 0.3306(7)
H7B H 0.2225 0.4871 0.4166
loop_
_geom_bond_atom_site_label_1
_geom_bond_atom_site_label_2
_geom_bond_site_symmetry_1
_geom_bond_site_symmetry_2
Pb1 O1 1_555 1_555
C1 H1 1_555 1_555
O1 C6 1_555 1_555
O2 Pb1 1_555 1_555
C2 H2 1_555 1_555
C3 C2 1_555 1_555
H3 C3 1_555 1_555
C4 H4 1_555 1_555
H5 C4 1_555 1_555
C5 C1 1_555 1_555
C6 O2 1_555 1_555
C7 C1 1_555 1_555
H6 C7 1_555 1_555
C8 C2 1_555 1_555
H7 C8 1_555 1_555
Pb1F O2B 1_555 1_555
Pb1F_2 O2 1_555 1_555
C1B H1B 1_555 1_555
O1B Pb1 1_555 1_555
O2B Pb1 1_555 1_555
O2F Pb1 1_555 1_555
O2D Pb1 1_555 1_555
C2B H2B 1_555 1_555
C3B C2B 1_555 1_555
H3B C3B 1_555 1_555
C4B H4B 1_555 1_555
H5B C4B 1_555 1_555
C5B C1B 1_555 1_555
C6B O1B 1_555 1_555
C7B C1B 1_555 1_555
H6B C7B 1_555 1_555
C8B C2B 1_555 1_555
H7B C8B 1_555 1_555
C3 C7 1_555 1_555
C4 C5 1_555 1_555
C4 C6 1_555 1_555
C5 C8 1_555 1_555
Pb1F O2F 1_555 1_555
Pb1F_2 O2D 1_555 1_555
O2B C6B 1_555 1_555
C3B C7B 1_555 1_555
C4B C5B 1_555 1_555
C4B C6B 1_555 1_555
C5B C8B 1_555 1_555

#END
