
#######################################################################
#
#                 Cambridge Crystallographic Data Centre
#                                CCDC 
#
#######################################################################
#
# If this CIF has been generated from an entry in the Cambridge 
# Structural Database, then it will include bibliographic, chemical, 
# crystal, experimental, refinement or atomic coordinate data resulting 
# from the CCDC's data processing and validation procedures.
#
#######################################################################

data_NOCXIO
_symmetry_cell_setting           monoclinic
_symmetry_space_group_name_H-M   'P 21'
_symmetry_Int_Tables_number      4
_space_group_name_Hall           'P 2yb'
loop_
_symmetry_equiv_pos_site_id
_symmetry_equiv_pos_as_xyz
1 x,y,z
2 -x,1/2+y,-z
_cell_length_a                   8.0347(7)
_cell_length_b                   5.1469(4)
_cell_length_c                   10.6218(9)
_cell_angle_alpha                90
_cell_angle_beta                 104.249(2)
_cell_angle_gamma                90
_cell_volume                     425.738
loop_
_atom_site_label
_atom_site_type_symbol
_atom_site_fract_x
_atom_site_fract_y
_atom_site_fract_z
Br1 Br 0.31965(4) 0.17324(3) 0.04769(3)
C1 C 0.6449(4) 0.1514(12) 0.3658(3)
C2 C 0.7330(5) -0.0030(7) 0.2771(3)
H1 H 0.6682 -0.1615 0.246
C3 C 0.9206(6) -0.0687(9) 0.3447(4)
H2 H 0.9373 -0.0711 0.4383
H3 H 0.9523 -0.237 0.3168
C4 C 1.0267(5) 0.1449(18) 0.3045(4)
H4 H 1.0289 0.2989 0.3575
H5 H 1.1436 0.0875 0.3113
C5 C 0.9359(4) 0.1960(15) 0.1670(3)
H6 H 0.9703 0.0721 0.1094
H7 H 0.9598 0.3702 0.1414
Li1 Li 0.4953(8) 0.651(2) 0.4124(5)
N1 N 0.7495(3) 0.1656(13) 0.1638(2)
H8 H 0.6937 0.0912 0.0885
H9 H 0.7022 0.3224 0.1694
O1 O 0.5818(4) 0.0104(5) 0.4405(2)
O2 O 0.6475(4) 0.3886(5) 0.3621(2)
O3 O 0.3123(4) 0.6673(12) 0.2487(3)
H10 H 0.377(6) 0.765(9) 0.221(5)
H11 H 0.294(7) 0.539(7) 0.198(4)
Li1_2 Li 0.4953(8) -0.349(2) 0.4124(5)
Li1A Li 0.5047(8) 0.151(2) 0.5876(5)
O1_2 O 0.5818(4) 1.0104(5) 0.4405(2)
O1A O 0.4182(4) 0.5104(5) 0.5595(2)
loop_
_geom_bond_atom_site_label_1
_geom_bond_atom_site_label_2
_geom_bond_site_symmetry_1
_geom_bond_site_symmetry_2
C1 C2 1_555 1_555
C2 H1 1_555 1_555
C3 C2 1_555 1_555
H2 C3 1_555 1_555
H3 C3 1_555 1_555
C4 C3 1_555 1_555
H4 C4 1_555 1_555
H5 C4 1_555 1_555
C5 C4 1_555 1_555
H6 C5 1_555 1_555
H7 C5 1_555 1_555
Li1 O2 1_555 1_555
N1 C2 1_555 1_555
H8 N1 1_555 1_555
H9 N1 1_555 1_555
O1 C1 1_555 1_555
O2 C1 1_555 1_555
O3 Li1 1_555 1_555
H10 O3 1_555 1_555
H11 O3 1_555 1_555
Li1_2 O1 1_555 1_555
Li1A O1 1_555 1_555
O1_2 Li1 1_555 1_555
O1A Li1 1_555 1_555
C5 N1 1_555 1_555
Li1A O1A 1_555 1_555

#END
