
#######################################################################
#
#                 Cambridge Crystallographic Data Centre
#                                CCDC 
#
#######################################################################
#
# If this CIF has been generated from an entry in the Cambridge 
# Structural Database, then it will include bibliographic, chemical, 
# crystal, experimental, refinement or atomic coordinate data resulting 
# from the CCDC's data processing and validation procedures.
#
#######################################################################

data_NOCYIN
_symmetry_cell_setting           triclinic
_symmetry_space_group_name_H-M   'P -1'
_symmetry_Int_Tables_number      2
_space_group_name_Hall           '-P 1'
loop_
_symmetry_equiv_pos_site_id
_symmetry_equiv_pos_as_xyz
1 x,y,z
2 -x,-y,-z
_cell_length_a                   13.826(5)
_cell_length_b                   14.116(2)
_cell_length_c                   14.636(2)
_cell_angle_alpha                64.48(4)
_cell_angle_beta                 101.34(4)
_cell_angle_gamma                92.91(5)
_cell_volume                     2525.6
loop_
_atom_site_label
_atom_site_type_symbol
_atom_site_fract_x
_atom_site_fract_y
_atom_site_fract_z
Ru1 Ru -0.92910(4) 0.01260(4) 0.46840(4)
Ru2 Ru -0.41720(4) -0.01410(4) 0.53170(4)
Cl1 Cl -0.2314(1) -0.0472(2) 0.6017(2)
O1 O -0.9830(4) 0.1583(4) 0.3622(4)
O2 O -1.1213(4) 0.1318(4) 0.4251(4)
O3 O -0.8714(4) 0.0747(4) 0.5658(4)
O4 O -1.0093(4) 0.0517(4) 0.6286(4)
O5 O -0.5556(4) 0.0667(4) 0.3234(4)
O6 O -0.3945(4) 0.0369(4) 0.3872(4)
O7 O -0.5703(4) 0.1635(4) 0.4526(4)
O8 O -0.4087(4) 0.1351(4) 0.5147(4)
O18 O -0.9596(4) -0.3567(4) 0.7670(4)
O19 O -1.0611(5) -0.1756(6) 0.2709(5)
O20 O -0.4800(5) -0.1555(5) 0.8744(4)
O21 O -0.4360(4) -0.3587(4) 0.5680(5)
C1 C -1.0681(5) 0.1868(6) 0.3627(6)
C2 C -0.8891(6) -0.2923(6) 0.7140(6)
C3 C -0.9142(7) -0.4525(8) 0.8518(8)
C4 C -0.9933(8) -0.5269(9) 0.8852(9)
C5 C -0.9239(5) 0.0851(6) 0.6227(6)
C6 C -1.1241(6) -0.1436(7) 0.3159(7)
C7 C -1.0565(9) -0.1081(10) 0.1719(10)
C8 C -1.0030(10) -0.1680(11) 0.1281(11)
C9 C -0.4666(6) 0.0726(6) 0.3130(6)
C10 C -0.5599(6) -0.1291(8) 0.7915(6)
C11 C -0.4501(9) -0.0717(10) 0.8970(10)
C12 C -0.3697(10) -0.1085(10) 0.9890(10)
C13 C -0.4862(6) 0.1942(6) 0.4757(6)
C14 C -0.5270(6) -0.3069(6) 0.5445(8)
C15 C -0.4366(8) -0.4663(9) 0.6253(9)
C16 C -0.3402(9) -0.5166(9) 0.6404(9)
H3 H -0.83000 -0.28700 0.76300
H4 H -0.85600 -0.32700 0.68000
H5 H -0.86000 -0.48300 0.83300
H6 H -0.87300 -0.43900 0.91000
H7 H -1.04200 -0.49800 0.91000
H8 H -1.02900 -0.54500 0.82800
H9 H -0.96200 -0.59500 0.94500
H10 H -1.18300 -0.10100 0.26300
H11 H -1.16100 -0.20500 0.36000
H12 H -1.12200 -0.07600 0.12700
H13 H -1.02200 -0.04100 0.16600
H14 H -0.93400 -0.19200 0.16900
H15 H -1.04000 -0.23000 0.12700
H16 H -0.99700 -0.11800 0.05400
H17 H -0.59900 -0.19400 0.79700
H18 H -0.61400 -0.08800 0.79900
H19 H -0.42900 -0.01000 0.83700
H20 H -0.50700 -0.03500 0.90500
H21 H -0.39400 -0.16600 1.05100
H22 H -0.31100 -0.14000 0.97800
H23 H -0.34700 -0.05000 1.00800
H24 H -0.56800 -0.34500 0.60000
H25 H -0.57200 -0.31500 0.48500
H26 H -0.49300 -0.49800 0.59400
H27 H -0.45800 -0.48500 0.69300
H28 H -0.28600 -0.48800 0.67700
H29 H -0.32300 -0.50200 0.57100
H30 H -0.33900 -0.59500 0.68200
Ru2A Ru -0.58280(4) 0.01410(4) 0.46830(4)
Cl1A Cl -0.7686(1) 0.0472(2) 0.3983(2)
Ru1A Ru -1.07090(4) -0.01260(4) 0.53160(4)
Cl1_2 Cl -1.2314(1) -0.0472(2) 0.6017(2)
Ru2_2 Ru -1.41720(4) -0.01410(4) 0.53170(4)
O1A O -1.0170(4) -0.1583(4) 0.6378(4)
C1A C -0.9319(5) -0.1868(6) 0.6373(6)
O2A O -0.8787(4) -0.1318(4) 0.5749(4)
O3A O -1.1286(4) -0.0747(4) 0.4342(4)
C5A C -1.0761(5) -0.0851(6) 0.3773(6)
O4A O -0.9907(4) -0.0517(4) 0.3714(4)
C6A C -0.8759(6) 0.1436(7) 0.6841(7)
O19A O -0.9389(5) 0.1756(6) 0.7291(5)
C7A C -0.9435(9) 0.1081(10) 0.8281(10)
C8A C -0.9970(10) 0.1680(11) 0.8719(11)
H14A H -1.06600 0.19200 0.83100
H15A H -0.96000 0.23000 0.87300
H16A H -1.00300 0.11800 0.94600
H12A H -0.87800 0.07600 0.87300
H13A H -0.97800 0.04100 0.83400
H10A H -0.81700 0.10100 0.73700
H11A H -0.83900 0.20500 0.64000
C2A C -1.1109(6) 0.2923(6) 0.2860(6)
O18A O -1.0404(4) 0.3567(4) 0.2330(4)
C3A C -1.0858(7) 0.4525(8) 0.1482(8)
C4A C -1.0067(8) 0.5269(9) 0.1148(9)
H7A H -0.95800 0.49800 0.09000
H8A H -0.97100 0.54500 0.17200
H9A H -1.03800 0.59500 0.05500
H5A H -1.14000 0.48300 0.16700
H6A H -1.12700 0.43900 0.09000
H3A H -1.17000 0.28700 0.23700
H4A H -1.14400 0.32700 0.32000
O5A O -0.4444(4) -0.0667(4) 0.6766(4)
C9A C -0.5334(6) -0.0726(6) 0.6870(6)
O6A O -0.6055(4) -0.0369(4) 0.6128(4)
O7A O -0.4297(4) -0.1635(4) 0.5474(4)
C13A C -0.5138(6) -0.1942(6) 0.5243(6)
O8A O -0.5913(4) -0.1351(4) 0.4853(4)
C14A C -0.4730(6) 0.3069(6) 0.4555(8)
O21A O -0.5640(4) 0.3587(4) 0.4320(5)
C15A C -0.5634(8) 0.4663(9) 0.3747(9)
C16A C -0.6598(9) 0.5166(9) 0.3596(9)
H28A H -0.71400 0.48800 0.32300
H29A H -0.67700 0.50200 0.42900
H30A H -0.66100 0.59500 0.31800
H26A H -0.50700 0.49800 0.40600
H27A H -0.54200 0.48500 0.30700
H24A H -0.43200 0.34500 0.40000
H25A H -0.42800 0.31500 0.51500
C10A C -0.4401(6) 0.1291(8) 0.2085(6)
O20A O -0.5200(5) 0.1555(5) 0.1256(4)
C11A C -0.5499(9) 0.0717(10) 0.1030(10)
C12A C -0.6303(10) 0.1085(10) 0.0110(10)
H21A H -0.60600 0.16600 -0.05100
H22A H -0.68900 0.14000 0.02200
H23A H -0.65300 0.05000 -0.00800
H19A H -0.57100 0.01000 0.16300
H20A H -0.49300 0.03500 0.09500
H17A H -0.40100 0.19400 0.20300
H18A H -0.38600 0.08800 0.20100
Ru3 Ru 0.03600(4) 0.46810(5) 0.45550(5)
O9 O -0.0691(4) 0.5444(4) 0.3294(4)
O10 O 0.1410(4) 0.3945(4) 0.5823(4)
O11 O -0.0523(4) 0.3435(4) 0.4963(4)
O12 O 0.1222(4) 0.5936(4) 0.4155(4)
O13 O 0.1032(4) 0.3994(4) 0.3692(4)
O22 O -0.2777(4) 0.7200(4) 0.2472(4)
O23 O -0.2459(5) 0.2486(5) 0.6343(6)
C17 C -0.1371(6) 0.5965(6) 0.3362(6)
C18 C -0.2158(6) 0.6464(7) 0.2425(7)
C19 C -0.3576(8) 0.6741(8) 0.2969(8)
C20 C -0.4167(9) 0.7592(9) 0.2949(9)
C21 C -0.1152(6) 0.3401(6) 0.5491(7)
C22 C -0.1871(7) 0.2533(8) 0.5664(9)
C23 C -0.2435(9) 0.1526(10) 0.7182(10)
C24 C -0.2874(10) 0.1566(10) 0.7946(10)
H1 H 0.14650 0.34350 0.40460
H2 H 0.06730 0.39020 0.32640
H31 H -0.18600 0.67900 0.17800
H32 H -0.25500 0.59100 0.29600
H33 H -0.33600 0.61700 0.36900
H34 H -0.39900 0.62900 0.26600
H35 H -0.44200 0.81100 0.22100
H36 H -0.37500 0.79700 0.33200
H37 H -0.47300 0.72600 0.32900
H38 H -0.23000 0.26100 0.49800
H39 H -0.15400 0.18300 0.58700
H40 H -0.17600 0.11600 0.74800
H41 H -0.27700 0.09600 0.69600
H42 H -0.35900 0.18400 0.77500
H43 H -0.25200 0.20600 0.82100
H44 H -0.28900 0.08600 0.85500
Ru3A Ru -0.03600(4) 0.53190(5) 0.54450(5)
O9A O 0.0691(4) 0.4556(4) 0.6706(4)
C17A C 0.1371(6) 0.4035(6) 0.6638(6)
O10A O -0.1410(4) 0.6055(4) 0.4177(4)
O11A O 0.0523(4) 0.6565(4) 0.5037(4)
C21A C 0.1152(6) 0.6599(6) 0.4509(7)
O12A O -0.1222(4) 0.4064(4) 0.5845(4)
O13A O -0.1032(4) 0.6006(4) 0.6308(4)
H1A H -0.14650 0.65650 0.59540
H2A H -0.06730 0.60980 0.67360
C22A C 0.1871(7) 0.7467(8) 0.4336(9)
O23A O 0.2459(5) 0.7514(5) 0.3657(6)
C23A C 0.2435(9) 0.8474(10) 0.2818(10)
C24A C 0.2874(10) 0.8434(10) 0.2054(10)
H42A H 0.35900 0.81600 0.22500
H43A H 0.25200 0.79400 0.17900
H44A H 0.28900 0.91400 0.14500
H40A H 0.17600 0.88400 0.25200
H41A H 0.27700 0.90400 0.30400
H38A H 0.23000 0.73900 0.50200
H39A H 0.15400 0.81700 0.41300
C18A C 0.2158(6) 0.3536(7) 0.7575(7)
O22A O 0.2777(4) 0.2800(4) 0.7528(4)
C19A C 0.3576(8) 0.3259(8) 0.7031(8)
C20A C 0.4167(9) 0.2408(9) 0.7051(9)
H35A H 0.44200 0.18900 0.77900
H36A H 0.37500 0.20300 0.66800
H37A H 0.47300 0.27400 0.67100
H33A H 0.33600 0.38300 0.63100
H34A H 0.39900 0.37100 0.73400
H31A H 0.18600 0.32100 0.82200
H32A H 0.25500 0.40900 0.70400
Ru4 Ru 0.44550(5) 0.52700(5) 0.92270(5)
Cl2 Cl 0.3353(2) 0.5930(2) 0.7488(2)
O14 O 0.3455(4) 0.4275(4) 0.9951(4)
O15 O 0.5478(4) 0.6248(4) 0.8546(4)
O16 O 0.3900(4) 0.6395(4) 0.9517(4)
O17 O 0.5027(4) 0.4119(4) 0.8989(4)
O24 O 0.3125(6) 0.7942(6) 0.9857(6)
O25 O 0.2055(5) 0.3182(6) 1.0935(6)
C25 C 0.3701(6) 0.3734(6) 1.0915(7)
C26 C 0.2975(7) 0.3013(8) 1.1494(7)
C27 C 0.1349(9) 0.2522(9) 1.1479(9)
C28 C 0.1357(10) 0.1581(11) 1.1338(10)
C29 C 0.4277(6) 0.6449(6) 1.0348(6)
C30 C 0.3861(8) 0.7265(7) 1.0597(7)
C31 C 0.2213(9) 0.7476(10) 0.9802(10)
C32 C 0.1516(11) 0.8279(11) 0.9000(11)
H45 H 0.32000 0.22500 1.18000
H46 H 0.29800 0.30600 1.21700
H47 H 0.06700 0.28800 1.12800
H48 H 0.14900 0.23800 1.22400
H49 H 0.20300 0.12100 1.16000
H50 H 0.11600 0.17400 1.05800
H51 H 0.08600 0.11100 1.17200
H52 H 0.36400 0.69200 1.12800
H53 H 0.44200 0.76800 1.07900
H54 H 0.19800 0.71500 1.04800
H55 H 0.22300 0.68200 0.96800
H56 H 0.17100 0.85500 0.83000
H57 H 0.14400 0.89000 0.91500
H58 H 0.08400 0.79600 0.89400
Ru4A Ru 0.55450(5) 0.47300(5) 1.07730(5)
Cl2A Cl 0.6647(2) 0.4070(2) 1.2512(2)
O14A O 0.6545(4) 0.5725(4) 1.0049(4)
C25A C 0.6299(6) 0.6266(6) 0.9085(7)
O15A O 0.4522(4) 0.3752(4) 1.1454(4)
O16A O 0.6100(4) 0.3605(4) 1.0483(4)
C29A C 0.5723(6) 0.3551(6) 0.9652(6)
O17A O 0.4973(4) 0.5881(4) 1.1011(4)
C30A C 0.6139(8) 0.2735(7) 0.9403(7)
O24A O 0.6875(6) 0.2058(6) 1.0143(6)
C31A C 0.7787(9) 0.2524(10) 1.0198(10)
C32A C 0.8484(11) 0.1721(11) 1.1000(11)
H56A H 0.82900 0.14500 1.17000
H57A H 0.85600 0.11000 1.08500
H58A H 0.91600 0.20400 1.10600
H54A H 0.80200 0.28500 0.95200
H55A H 0.77700 0.31800 1.03200
H52A H 0.63600 0.30800 0.87200
H53A H 0.55800 0.23200 0.92100
C26A C 0.7025(7) 0.6987(8) 0.8506(7)
O25A O 0.7945(5) 0.6818(6) 0.9065(6)
C27A C 0.8651(9) 0.7478(9) 0.8521(9)
C28A C 0.8643(10) 0.8419(11) 0.8662(10)
H49A H 0.79700 0.87900 0.84000
H50A H 0.88400 0.82600 0.94200
H51A H 0.91400 0.88900 0.82800
H47A H 0.93300 0.71200 0.87200
H48A H 0.85100 0.76200 0.77600
H45A H 0.68000 0.77500 0.82000
H46A H 0.70200 0.69400 0.78300
O26 O 0.2512(5) 0.2589(5) 0.4655(7)
loop_
_geom_bond_atom_site_label_1
_geom_bond_atom_site_label_2
_geom_bond_site_symmetry_1
_geom_bond_site_symmetry_2
Ru1 O1 1_555 1_555
Ru2 Cl1 1_555 1_555
Ru3 O9 1_555 1_555
Ru4 Cl2 1_555 1_555
O1 C1 1_555 1_555
O2 C1 1_555 1_555
O3 Ru1 1_555 1_555
O4 C5 1_555 1_555
O5 C9 1_555 1_555
O6 Ru2 1_555 1_555
O7 C13 1_555 1_555
O8 Ru2 1_555 1_555
O9 C17 1_555 1_555
O10 Ru3 1_555 1_555
O11 Ru3 1_555 1_555
O12 Ru3 1_555 1_555
O13 Ru3 1_555 1_555
O14 Ru4 1_555 1_555
O15 Ru4 1_555 1_555
O16 Ru4 1_555 1_555
O17 Ru4 1_555 1_555
O18 C2 1_555 1_555
O19 C6 1_555 1_555
O20 C10 1_555 1_555
O21 C14 1_555 1_555
O22 C18 1_555 1_555
O23 C22 1_555 1_555
O24 C30 1_555 1_555
O25 C26 1_555 1_555
C1 C2A 1_555 1_555
C2 H3 1_555 1_555
C3 O18 1_555 1_555
C4 C3 1_555 1_555
C5 O3 1_555 1_555
C6 H10 1_555 1_555
C7 O19 1_555 1_555
C8 C7 1_555 1_555
C9 O6 1_555 1_555
C10 H17 1_555 1_555
C11 O20 1_555 1_555
C12 C11 1_555 1_555
C13 O8 1_555 1_555
C14 H24 1_555 1_555
C15 O21 1_555 1_555
C16 C15 1_555 1_555
C17 C18 1_555 1_555
C18 H31 1_555 1_555
C19 O22 1_555 1_555
C20 C19 1_555 1_555
C21 O11 1_555 1_555
C22 C21 1_555 1_555
C23 O23 1_555 1_555
C24 C23 1_555 1_555
C25 O14 1_555 1_555
C26 C25 1_555 1_555
C27 O25 1_555 1_555
C28 C27 1_555 1_555
C29 O16 1_555 1_555
C30 C29 1_555 1_555
C31 O24 1_555 1_555
C32 C31 1_555 1_555
H1 O13 1_555 1_555
H2 O13 1_555 1_555
H4 C2 1_555 1_555
H5 C3 1_555 1_555
H6 C3 1_555 1_555
H7 C4 1_555 1_555
H8 C4 1_555 1_555
H9 C4 1_555 1_555
H11 C6 1_555 1_555
H12 C7 1_555 1_555
H13 C7 1_555 1_555
H14 C8 1_555 1_555
H15 C8 1_555 1_555
H16 C8 1_555 1_555
H18 C10 1_555 1_555
H19 C11 1_555 1_555
H20 C11 1_555 1_555
H21 C12 1_555 1_555
H22 C12 1_555 1_555
H23 C12 1_555 1_555
H25 C14 1_555 1_555
H26 C15 1_555 1_555
H27 C15 1_555 1_555
H28 C16 1_555 1_555
H29 C16 1_555 1_555
H30 C16 1_555 1_555
H32 C18 1_555 1_555
H33 C19 1_555 1_555
H34 C19 1_555 1_555
H35 C20 1_555 1_555
H36 C20 1_555 1_555
H37 C20 1_555 1_555
H38 C22 1_555 1_555
H39 C22 1_555 1_555
H40 C23 1_555 1_555
H41 C23 1_555 1_555
H42 C24 1_555 1_555
H43 C24 1_555 1_555
H44 C24 1_555 1_555
H45 C26 1_555 1_555
H46 C26 1_555 1_555
H47 C27 1_555 1_555
H48 C27 1_555 1_555
H49 C28 1_555 1_555
H50 C28 1_555 1_555
H51 C28 1_555 1_555
H52 C30 1_555 1_555
H53 C30 1_555 1_555
H54 C31 1_555 1_555
H55 C31 1_555 1_555
H56 C32 1_555 1_555
H57 C32 1_555 1_555
H58 C32 1_555 1_555
Ru2A Ru2 1_555 1_555
Cl1A Ru1 1_555 1_555
Ru1A Ru1 1_555 1_555
Cl1_2 Ru1A 1_555 1_555
Ru2_2 Cl1_2 1_555 1_555
O1A Ru1A 1_555 1_555
C1A C2 1_555 1_555
O2A Ru1 1_555 1_555
O3A Ru1A 1_555 1_555
C5A C6 1_555 1_555
O4A Ru1 1_555 1_555
C6A C5 1_555 1_555
O19A C6A 1_555 1_555
C7A O19A 1_555 1_555
C8A C7A 1_555 1_555
H14A C8A 1_555 1_555
H15A C8A 1_555 1_555
H16A C8A 1_555 1_555
H12A C7A 1_555 1_555
H13A C7A 1_555 1_555
H10A C6A 1_555 1_555
H11A C6A 1_555 1_555
C2A O18A 1_555 1_555
O18A C3A 1_555 1_555
C3A C4A 1_555 1_555
C4A H7A 1_555 1_555
H8A C4A 1_555 1_555
H9A C4A 1_555 1_555
H5A C3A 1_555 1_555
H6A C3A 1_555 1_555
H3A C2A 1_555 1_555
H4A C2A 1_555 1_555
O5A Ru2 1_555 1_555
C9A C10 1_555 1_555
O6A Ru2A 1_555 1_555
O7A Ru2 1_555 1_555
C13A C14 1_555 1_555
O8A Ru2A 1_555 1_555
C14A C13 1_555 1_555
O21A C14A 1_555 1_555
C15A O21A 1_555 1_555
C16A C15A 1_555 1_555
H28A C16A 1_555 1_555
H29A C16A 1_555 1_555
H30A C16A 1_555 1_555
H26A C15A 1_555 1_555
H27A C15A 1_555 1_555
H24A C14A 1_555 1_555
H25A C14A 1_555 1_555
C10A C9 1_555 1_555
O20A C10A 1_555 1_555
C11A O20A 1_555 1_555
C12A C11A 1_555 1_555
H21A C12A 1_555 1_555
H22A C12A 1_555 1_555
H23A C12A 1_555 1_555
H19A C11A 1_555 1_555
H20A C11A 1_555 1_555
H17A C10A 1_555 1_555
H18A C10A 1_555 1_555
Ru3A Ru3 1_555 1_555
O9A Ru3A 1_555 1_555
C17A O10 1_555 1_555
O10A C17 1_555 1_555
O11A Ru3A 1_555 1_555
C21A O12 1_555 1_555
O12A C21 1_555 1_555
O13A Ru3A 1_555 1_555
H1A O13A 1_555 1_555
H2A O13A 1_555 1_555
C22A C21A 1_555 1_555
O23A C22A 1_555 1_555
C23A O23A 1_555 1_555
C24A C23A 1_555 1_555
H42A C24A 1_555 1_555
H43A C24A 1_555 1_555
H44A C24A 1_555 1_555
H40A C23A 1_555 1_555
H41A C23A 1_555 1_555
H38A C22A 1_555 1_555
H39A C22A 1_555 1_555
C18A C17A 1_555 1_555
O22A C18A 1_555 1_555
C19A O22A 1_555 1_555
C20A C19A 1_555 1_555
H35A C20A 1_555 1_555
H36A C20A 1_555 1_555
H37A C20A 1_555 1_555
H33A C19A 1_555 1_555
H34A C19A 1_555 1_555
H31A C18A 1_555 1_555
H32A C18A 1_555 1_555
Ru4A Ru4 1_555 1_555
Cl2A Ru4A 1_555 1_555
O14A Ru4A 1_555 1_555
C25A O15 1_555 1_555
O15A C25 1_555 1_555
O16A Ru4A 1_555 1_555
C29A O17 1_555 1_555
O17A C29 1_555 1_555
C30A C29A 1_555 1_555
O24A C30A 1_555 1_555
C31A O24A 1_555 1_555
C32A C31A 1_555 1_555
H56A C32A 1_555 1_555
H57A C32A 1_555 1_555
H58A C32A 1_555 1_555
H54A C31A 1_555 1_555
H55A C31A 1_555 1_555
H52A C30A 1_555 1_555
H53A C30A 1_555 1_555
C26A C25A 1_555 1_555
O25A C26A 1_555 1_555
C27A O25A 1_555 1_555
C28A C27A 1_555 1_555
H49A C28A 1_555 1_555
H50A C28A 1_555 1_555
H51A C28A 1_555 1_555
H47A C27A 1_555 1_555
H48A C27A 1_555 1_555
H45A C26A 1_555 1_555
H46A C26A 1_555 1_555
O2 Ru1A 1_555 1_555
O4 Ru1A 1_555 1_555
O5 Ru2A 1_555 1_555
O7 Ru2A 1_555 1_555
Ru2A Cl1A 1_555 1_555
O1A C1A 1_555 1_555
C1A O2A 1_555 1_555
O3A C5A 1_555 1_555
C5A O4A 1_555 1_555
O5A C9A 1_555 1_555
C9A O6A 1_555 1_555
O7A C13A 1_555 1_555
C13A O8A 1_555 1_555
Ru3A O10A 1_555 1_555
Ru3A O12A 1_555 1_555
O9A C17A 1_555 1_555
O11A C21A 1_555 1_555
Ru4A O15A 1_555 1_555
Ru4A O17A 1_555 1_555
O14A C25A 1_555 1_555
O16A C29A 1_555 1_555

#END
