
#######################################################################
#
#                 Cambridge Crystallographic Data Centre
#                                CCDC 
#
#######################################################################
#
# If this CIF has been generated from an entry in the Cambridge 
# Structural Database, then it will include bibliographic, chemical, 
# crystal, experimental, refinement or atomic coordinate data resulting 
# from the CCDC's data processing and validation procedures.
#
#######################################################################

data_NOCZOV
_symmetry_cell_setting           triclinic
_symmetry_space_group_name_H-M   'P -1'
_symmetry_Int_Tables_number      2
_space_group_name_Hall           '-P 1'
loop_
_symmetry_equiv_pos_site_id
_symmetry_equiv_pos_as_xyz
1 x,y,z
2 -x,-y,-z
_cell_length_a                   7.585(3)
_cell_length_b                   7.688(4)
_cell_length_c                   12.737(6)
_cell_angle_alpha                83.22(2)
_cell_angle_beta                 73.731(19)
_cell_angle_gamma                63.38(2)
_cell_volume                     637.394
loop_
_atom_site_label
_atom_site_type_symbol
_atom_site_fract_x
_atom_site_fract_y
_atom_site_fract_z
Pb1 Pb 1.05704(2) 0.28049(2) 0.261775(12)
I1 I 1.06673(5) 0.68016(5) 0.12279(2)
I2 I 1.34470(5) -0.15382(4) 0.36504(2)
N1 N 1.2273(6) 0.0743(6) 0.0858(3)
N2 N 0.8085(6) 0.4925(6) 0.4367(3)
N3 N 0.7628(6) 0.4237(5) 0.1829(3)
N4 N 0.8457(6) 0.1028(5) 0.3245(3)
C1 C 1.4339(7) 0.0632(7) 0.0498(3)
C2 C 0.9201(7) 0.5773(6) 0.4755(3)
C3 C 0.6554(8) 0.3020(7) 0.1954(3)
C4 C 0.6409(7) 0.2135(7) 0.3082(3)
H1 H 1.2324 -0.0479 0.0993
H2 H 1.1567 0.1325 0.0334
H3 H 0.6938 0.5897 0.4197
H4 H 0.7688 0.4163 0.4902
H5 H 0.6730 0.5424 0.2159
H6 H 0.8063 0.4451 0.1096
H7 H 0.9083 -0.0135 0.2869
H8 H 0.8360 0.0752 0.3976
H9 H 1.5010 0.0120 0.1105
H10 H 1.4233 0.1963 0.0338
H11 H 0.8235 0.6799 0.5308
H12 H 0.9848 0.6375 0.4134
H13 H 0.7298 0.1974 0.1392
H14 H 0.5168 0.3816 0.1850
H15 H 0.5582 0.3177 0.3643
H16 H 0.5734 0.1267 0.3158
Pb1A Pb 1.94296(2) -0.28049(2) -0.261775(12)
Pb1A_2 Pb 0.94296(2) 0.71951(2) 0.738225(12)
I1A I 1.93327(5) -0.68016(5) -0.12279(2)
I2A I 1.65530(5) 0.15382(4) -0.36504(2)
N1A N 1.7727(6) -0.0743(6) -0.0858(3)
N2A N 1.1915(6) 0.5075(6) 0.5633(3)
N2A_2 N 2.1915(6) -0.4925(6) -0.4367(3)
N3A N 2.2372(6) -0.4237(5) -0.1829(3)
N4A N 2.1543(6) -0.1028(5) -0.3245(3)
C1A C 1.5661(7) -0.0632(7) -0.0498(3)
C2A C 1.0799(7) 0.4227(6) 0.5245(3)
C3A C 2.3446(8) -0.3020(7) -0.1954(3)
C4A C 2.3591(7) -0.2135(7) -0.3082(3)
H1A H 1.7676 0.0479 -0.0993
H2A H 1.8433 -0.1325 -0.0334
H3A H 1.3062 0.4103 0.5803
H3A_2 H 2.3062 -0.5897 -0.4197
H4A H 1.2312 0.5837 0.5098
H4A_2 H 2.2312 -0.4163 -0.4902
H5A H 2.3270 -0.5424 -0.2159
H6A H 2.1937 -0.4451 -0.1096
H7A H 2.0917 0.0135 -0.2869
H8A H 2.1640 -0.0752 -0.3976
H9A H 1.4990 -0.0120 -0.1105
H10A H 1.5767 -0.1963 -0.0338
H11A H 1.1765 0.3201 0.4692
H12A H 1.0152 0.3625 0.5866
H13A H 2.2702 -0.1974 -0.1392
H14A H 2.4832 -0.3816 -0.1850
H15A H 2.4418 -0.3177 -0.3643
H16A H 2.4266 -0.1267 -0.3158
loop_
_geom_bond_atom_site_label_1
_geom_bond_atom_site_label_2
_geom_bond_site_symmetry_1
_geom_bond_site_symmetry_2
Pb1 I1 1_555 1_555
I2 Pb1 1_555 1_555
N1 Pb1 1_555 1_555
N2 Pb1 1_555 1_555
N3 Pb1 1_555 1_555
N4 Pb1 1_555 1_555
C1 N1 1_555 1_555
C2 N2 1_555 1_555
C3 N3 1_555 1_555
C4 N4 1_555 1_555
H1 N1 1_555 1_555
H2 N1 1_555 1_555
H3 N2 1_555 1_555
H4 N2 1_555 1_555
H5 N3 1_555 1_555
H6 N3 1_555 1_555
H7 N4 1_555 1_555
H8 N4 1_555 1_555
H9 C1 1_555 1_555
H10 C1 1_555 1_555
H11 C2 1_555 1_555
H12 C2 1_555 1_555
H13 C3 1_555 1_555
H14 C3 1_555 1_555
H15 C4 1_555 1_555
H16 C4 1_555 1_555
Pb1A I1A 1_555 1_555
Pb1A_2 N2A 1_555 1_555
I2A Pb1A 1_555 1_555
N1A Pb1A 1_555 1_555
N2A C2A 1_555 1_555
N2A_2 Pb1A 1_555 1_555
N3A Pb1A 1_555 1_555
N4A Pb1A 1_555 1_555
C1A C1 1_555 1_555
C2A C2 1_555 1_555
C3A N3A 1_555 1_555
C4A N4A 1_555 1_555
H1A N1A 1_555 1_555
H2A N1A 1_555 1_555
H3A N2A 1_555 1_555
H3A_2 N2A_2 1_555 1_555
H4A N2A 1_555 1_555
H4A_2 N2A_2 1_555 1_555
H5A N3A 1_555 1_555
H6A N3A 1_555 1_555
H7A N4A 1_555 1_555
H8A N4A 1_555 1_555
H9A C1A 1_555 1_555
H10A C1A 1_555 1_555
H11A C2A 1_555 1_555
H12A C2A 1_555 1_555
H13A C3A 1_555 1_555
H14A C3A 1_555 1_555
H15A C4A 1_555 1_555
H16A C4A 1_555 1_555
C3 C4 1_555 1_555
N1A C1A 1_555 1_555
C3A C4A 1_555 1_555

#END
