
#######################################################################
#
#                 Cambridge Crystallographic Data Centre
#                                CCDC 
#
#######################################################################
#
# If this CIF has been generated from an entry in the Cambridge 
# Structural Database, then it will include bibliographic, chemical, 
# crystal, experimental, refinement or atomic coordinate data resulting 
# from the CCDC's data processing and validation procedures.
#
#######################################################################

data_NOCZIQ
_symmetry_cell_setting           triclinic
_symmetry_space_group_name_H-M   'P -1'
_symmetry_Int_Tables_number      2
_space_group_name_Hall           '-P 1'
loop_
_symmetry_equiv_pos_site_id
_symmetry_equiv_pos_as_xyz
1 x,y,z
2 -x,-y,-z
_cell_length_a                   6.593(4)
_cell_length_b                   10.723(7)
_cell_length_c                   14.033(9)
_cell_angle_alpha                94.269(12)
_cell_angle_beta                 101.964(12)
_cell_angle_gamma                92.428(11)
_cell_volume                     966.145
loop_
_atom_site_label
_atom_site_type_symbol
_atom_site_fract_x
_atom_site_fract_y
_atom_site_fract_z
Sr1 Sr -0.4155(2) 0.42489(12) 0.86609(10)
C1 C -0.592(2) 0.5683(14) 0.5951(11)
N1 N -0.7502(18) 0.6150(11) 0.5332(9)
O1 O -0.8184(15) 0.3871(10) 0.5758(8)
Cu1 Cu 0.0000 0.0000 1.0000
O2 O -0.5140(17) 0.3833(9) 0.6764(7)
N2 N -0.1778(19) 0.0744(10) 1.0829(9)
C2 C -0.402(2) 0.6334(13) 0.6284(10)
O3 O -0.2356(15) 0.5872(10) 0.7864(7)
C3 C -0.383(2) 0.7504(15) 0.5932(12)
H1 H -0.2569 0.7968 0.6118
O4 O -0.0593(17) 0.5693(13) 0.6678(9)
C4 C -0.543(3) 0.7995(15) 0.5329(13)
H2 H -0.5279 0.8784 0.5109
O5 O -0.2064(17) 0.0614(10) 0.8949(8)
C5 C -0.724(2) 0.7293(16) 0.5057(14)
H3 H -0.8362 0.7628 0.4660
O6 O -0.4732(15) 0.1846(9) 0.8715(7)
C6 C -0.643(2) 0.4352(13) 0.6187(10)
C7 C -0.224(2) 0.5912(13) 0.6995(11)
O7 O -0.6050(15) 0.3750(8) 1.0128(7)
C8 C -0.336(2) 0.1324(12) 1.0324(10)
O8 O -0.8287(15) 0.2120(9) 1.0048(9)
C9 C -0.478(2) 0.1920(13) 1.0772(11)
O9 O -0.103(2) 0.3036(13) 0.8061(12)
H4 H -0.0018 0.3557 0.8070
H5 H -0.1129 0.2318 0.8273
O10 O -0.1167(16) 0.3920(10) 1.0111(8)
H6 H -0.0211 0.4283 1.0565
H7 H -0.0841 0.3170 1.0012
C10 C -0.453(3) 0.1869(15) 1.1779(11)
H8 H -0.5466 0.2244 1.2108
C11 C -0.292(3) 0.1268(16) 1.2277(13)
H9 H -0.2760 0.1224 1.2948
O11 O -0.7856(19) 0.4954(14) 0.8156(9)
H10 H -0.8231 0.5447 0.7709
H11 H -0.7952 0.5337 0.8695
C12 C -0.156(2) 0.0733(16) 1.1792(11)
H12 H -0.0438 0.0347 1.2143
C13 C -0.342(2) 0.1248(12) 0.9241(11)
C14 C -0.656(2) 0.2666(13) 1.0233(11)
Cu2 Cu -1.0000 0.5000 0.5000
Sr1A Sr -1.5845(2) 0.57511(12) 0.13391(10)
C1A C -1.408(2) 0.4317(14) 0.4049(11)
N1A N -1.2498(18) 0.3850(11) 0.4668(9)
O1A O -1.1816(15) 0.6129(10) 0.4242(8)
O2A O -1.4860(17) 0.6167(9) 0.3236(7)
N2A N -1.8222(19) 0.9256(10) -0.0829(9)
C2A C -1.598(2) 0.3666(13) 0.3716(10)
O3A O -1.7644(15) 0.4128(10) 0.2136(7)
C3A C -1.617(2) 0.2496(15) 0.4068(12)
H1A H -1.7431 0.2032 0.3882
O4A O -1.9407(17) 0.4307(13) 0.3322(9)
C4A C -1.457(3) 0.2005(15) 0.4671(13)
H2A H -1.4721 0.1216 0.4891
O5A O -1.7936(17) 0.9386(10) 0.1051(8)
C5A C -1.276(2) 0.2707(16) 0.4943(14)
H3A H -1.1638 0.2372 0.5340
O6A O -1.5268(15) 0.8154(9) 0.1285(7)
C6A C -1.357(2) 0.5648(13) 0.3813(10)
C7A C -1.776(2) 0.4088(13) 0.3005(11)
O7A O -1.3950(15) 0.6250(8) -0.0128(7)
C8A C -1.664(2) 0.8676(12) -0.0324(10)
O8A O -1.1713(15) 0.7880(9) -0.0048(9)
C9A C -1.522(2) 0.8080(13) -0.0772(11)
O9A O -1.897(2) 0.6964(13) 0.1939(12)
H4A H -1.9982 0.6443 0.1930
H5A H -1.8871 0.7682 0.1727
O10A O -1.8833(16) 0.6080(10) -0.0111(8)
H6A H -1.9789 0.5717 -0.0565
H7A H -1.9159 0.6830 -0.0012
C10A C -1.547(3) 0.8131(15) -0.1779(11)
H8A H -1.4534 0.7756 -0.2108
C11A C -1.708(3) 0.8732(16) -0.2277(13)
H9A H -1.7240 0.8776 -0.2948
O11A O -1.2144(19) 0.5046(14) 0.1844(9)
H10A H -1.1769 0.4553 0.2291
H11A H -1.2048 0.4663 0.1305
C12A C -1.844(2) 0.9267(16) -0.1792(11)
H12A H -1.9562 0.9653 -0.2143
C13A C -1.658(2) 0.8752(12) 0.0759(11)
C14A C -1.344(2) 0.7334(13) -0.0233(11)
Sr1_2 Sr -1.4155(2) 0.42489(12) -0.13391(10)
Sr1A_2 Sr -0.5845(2) 0.57511(12) 1.13391(10)
Cu1_2 Cu -2.0000 1.0000 0.0000
Cu1_3 Cu -1.0000 0.0000 1.0000
Cu1_4 Cu -1.0000 1.0000 0.0000
N2A_2 N 0.1778(19) -0.0744(10) 0.9171(9)
O4_2 O -1.0593(17) 0.5693(13) 0.6678(9)
O4A_2 O -0.9407(17) 0.4307(13) 0.3322(9)
O5A_2 O 0.2064(17) -0.0614(10) 1.1051(8)
O7_2 O -1.6050(15) 0.3750(8) 0.0128(7)
O7A_2 O -0.3950(15) 0.6250(8) 0.9872(7)
O8_2 O 0.1713(15) 0.2120(9) 1.0048(9)
O8A_2 O -0.1713(15) -0.2120(9) 0.9952(9)
Cu2_2 Cu -2.0000 0.5000 0.5000
Cu2_3 Cu 0.0000 0.5000 0.5000
O12 O -0.649(8) -0.079(5) 1.322(4)
H13 H -0.7392 -0.0532 1.3523
H14 H -0.6899 -0.0685 1.2616
O13 O -0.261(6) -0.124(4) 1.356(3)
H15 H -0.3583 -0.1288 1.3052
H16 H -0.2610 -0.1998 1.3691
loop_
_geom_bond_atom_site_label_1
_geom_bond_atom_site_label_2
_geom_bond_site_symmetry_1
_geom_bond_site_symmetry_2
Sr1 O2 1_555 1_555
C1 N1 1_555 1_555
N1 C5 1_555 1_555
O1 C6 1_555 1_555
Cu1 N2 1_555 1_555
O2 C6 1_555 1_555
N2 C8 1_555 1_555
C2 C1 1_555 1_555
O3 Sr1 1_555 1_555
C3 C2 1_555 1_555
H1 C3 1_555 1_555
O4 C7 1_555 1_555
C4 C3 1_555 1_555
H2 C4 1_555 1_555
O5 Cu1 1_555 1_555
C5 C4 1_555 1_555
H3 C5 1_555 1_555
O6 Sr1 1_555 1_555
C6 C1 1_555 1_555
C7 C2 1_555 1_555
O7 Sr1 1_555 1_555
C8 C9 1_555 1_555
O8 C14 1_555 1_555
C9 C10 1_555 1_555
O9 Sr1 1_555 1_555
H4 O9 1_555 1_555
H5 O9 1_555 1_555
O10 Sr1 1_555 1_555
H6 O10 1_555 1_555
H7 O10 1_555 1_555
C10 H8 1_555 1_555
C11 C10 1_555 1_555
H9 C11 1_555 1_555
O11 Sr1 1_555 1_555
H10 O11 1_555 1_555
H11 O11 1_555 1_555
C12 N2 1_555 1_555
H12 C12 1_555 1_555
C13 O5 1_555 1_555
C14 O7 1_555 1_555
Cu2 N1 1_555 1_555
O12 H13 1_555 1_555
H14 O12 1_555 1_555
O13 H15 1_555 1_555
H16 O13 1_555 1_555
Sr1A O2A 1_555 1_555
C1A N1A 1_555 1_555
N1A Cu2 1_555 1_555
O1A Cu2 1_555 1_555
O2A C6A 1_555 1_555
N2A C8A 1_555 1_555
C2A C1A 1_555 1_555
O3A Sr1A 1_555 1_555
C3A C2A 1_555 1_555
H1A C3A 1_555 1_555
O4A C7A 1_555 1_555
C4A C3A 1_555 1_555
H2A C4A 1_555 1_555
O5A C13A 1_555 1_555
C5A N1A 1_555 1_555
H3A C5A 1_555 1_555
O6A Sr1A 1_555 1_555
C6A C1A 1_555 1_555
C7A C2A 1_555 1_555
O7A Sr1A 1_555 1_555
C8A C9A 1_555 1_555
O8A C14A 1_555 1_555
C9A C10A 1_555 1_555
O9A Sr1A 1_555 1_555
H4A O9A 1_555 1_555
H5A O9A 1_555 1_555
O10A Sr1A 1_555 1_555
H6A O10A 1_555 1_555
H7A O10A 1_555 1_555
C10A H8A 1_555 1_555
C11A C10A 1_555 1_555
H9A C11A 1_555 1_555
O11A Sr1A 1_555 1_555
H10A O11A 1_555 1_555
H11A O11A 1_555 1_555
C12A N2A 1_555 1_555
H12A C12A 1_555 1_555
C13A O6A 1_555 1_555
C14A O7A 1_555 1_555
Sr1_2 O7A 1_555 1_555
Sr1A_2 O7 1_555 1_555
Cu1_2 N2A 1_555 1_555
Cu1_3 O8 1_555 1_555
Cu1_4 O8A 1_555 1_555
N2A_2 Cu1 1_555 1_555
O4_2 Cu2 1_555 1_555
O4A_2 Cu2 1_555 1_555
O5A_2 Cu1 1_555 1_555
O7_2 Sr1A 1_555 1_555
O7A_2 Sr1 1_555 1_555
O8_2 Cu1 1_555 1_555
O8A_2 Cu1 1_555 1_555
Cu2_2 O4A 1_555 1_555
Cu2_3 O4 1_555 1_555
O1 Cu2 1_555 1_555
O3 C7 1_555 1_555
O6 C13 1_555 1_555
C8 C13 1_555 1_555
C9 C14 1_555 1_555
C11 C12 1_555 1_555
O1A C6A 1_555 1_555
O3A C7A 1_555 1_555
C4A C5A 1_555 1_555
O5A Cu1_2 1_555 1_555
C8A C13A 1_555 1_555
C9A C14A 1_555 1_555
C11A C12A 1_555 1_555
Sr1_2 O7_2 1_555 1_555
Sr1A_2 O7A_2 1_555 1_555

#END
