
#######################################################################
#
#                 Cambridge Crystallographic Data Centre
#                                CCDC 
#
#######################################################################
#
# If this CIF has been generated from an entry in the Cambridge 
# Structural Database, then it will include bibliographic, chemical, 
# crystal, experimental, refinement or atomic coordinate data resulting 
# from the CCDC's data processing and validation procedures.
#
#######################################################################

data_NODCOZ
_symmetry_cell_setting           monoclinic
_symmetry_space_group_name_H-M   'P 21/c'
_symmetry_Int_Tables_number      14
_space_group_name_Hall           '-P 2ybc'
loop_
_symmetry_equiv_pos_site_id
_symmetry_equiv_pos_as_xyz
1 x,y,z
2 -x,1/2+y,1/2-z
3 -x,-y,-z
4 x,1/2-y,1/2+z
_cell_length_a                   6.038(2)
_cell_length_b                   21.255(7)
_cell_length_c                   7.528(4)
_cell_angle_alpha                90
_cell_angle_beta                 98.37(3)
_cell_angle_gamma                90
_cell_volume                     955.836
loop_
_atom_site_label
_atom_site_type_symbol
_atom_site_fract_x
_atom_site_fract_y
_atom_site_fract_z
Zn1 Zn 0.25740(7) 0.51875(2) 0.05573(6)
N1 N 0.0160(5) 0.5252(2) -0.1569(5)
N2 N 0.0363(5) 0.5486(2) -0.2996(5)
N3 N 0.0554(7) 0.5708(2) -0.4361(6)
N4 N 0.4816(5) 0.44912(15) 0.1092(5)
N5 N 0.4239(5) 0.3948(2) 0.1148(5)
N6 N 0.3753(7) 0.3431(2) 0.1205(6)
N7 N 0.3245(5) 0.59406(15) 0.2213(5)
C1 C 0.1812(6) 0.6419(2) 0.2177(5)
H1 H 0.0436 0.6395 0.1442
C2 C 0.2340(7) 0.6950(2) 0.3216(6)
C3 C 0.4356(8) 0.6994(2) 0.4309(6)
H2 H 0.4734 0.7352 0.4999
C4 C 0.5815(7) 0.6489(2) 0.4356(6)
H3 H 0.7187 0.6499 0.5100
C5 C 0.5210(7) 0.5974(2) 0.3291(6)
H4 H 0.6200 0.5638 0.3321
Br1 Br 0.02198(8) 0.76052(2) 0.31091(6)
Zn1B Zn -0.25740(7) 0.48125(2) -0.05573(6)
Zn1B_2 Zn 0.74260(7) 0.48125(2) -0.05573(6)
N1B N -0.0160(5) 0.4748(2) 0.1569(5)
N4B N 0.5184(5) 0.55088(15) -0.1092(5)
loop_
_geom_bond_atom_site_label_1
_geom_bond_atom_site_label_2
_geom_bond_site_symmetry_1
_geom_bond_site_symmetry_2
Zn1 N1 1_555 1_555
N1 N2 1_555 1_555
N2 N3 1_555 1_555
N4 Zn1 1_555 1_555
N5 N4 1_555 1_555
N6 N5 1_555 1_555
N7 Zn1 1_555 1_555
C1 N7 1_555 1_555
H1 C1 1_555 1_555
C2 C1 1_555 1_555
C3 C2 1_555 1_555
H2 C3 1_555 1_555
C4 C3 1_555 1_555
H3 C4 1_555 1_555
C5 N7 1_555 1_555
H4 C5 1_555 1_555
Br1 C2 1_555 1_555
Zn1B N1 1_555 1_555
Zn1B_2 N4 1_555 1_555
N1B Zn1 1_555 1_555
N4B Zn1 1_555 1_555
C4 C5 1_555 1_555
Zn1B N1B 1_555 1_555
Zn1B_2 N4B 1_555 1_555

#END
