
#######################################################################
#
#                 Cambridge Crystallographic Data Centre
#                                CCDC 
#
#######################################################################
#
# If this CIF has been generated from an entry in the Cambridge 
# Structural Database, then it will include bibliographic, chemical, 
# crystal, experimental, refinement or atomic coordinate data resulting 
# from the CCDC's data processing and validation procedures.
#
#######################################################################

data_NODJAT
_symmetry_cell_setting           monoclinic
_symmetry_space_group_name_H-M   'C 2/c'
_symmetry_Int_Tables_number      15
_space_group_name_Hall           '-C 2yn'
loop_
_symmetry_equiv_pos_site_id
_symmetry_equiv_pos_as_xyz
1 x,y,z
2 -x,y,1/2-z
3 1/2+x,1/2+y,z
4 1/2-x,1/2+y,1/2-z
5 -x,-y,-z
6 x,-y,1/2+z
7 1/2-x,1/2-y,-z
8 1/2+x,1/2-y,1/2+z
_cell_length_a                   17.7167(9)
_cell_length_b                   7.4016(3)
_cell_length_c                   14.7780(8)
_cell_angle_alpha                90
_cell_angle_beta                 101.941(4)
_cell_angle_gamma                90
_cell_volume                     1895.93
loop_
_atom_site_label
_atom_site_type_symbol
_atom_site_fract_x
_atom_site_fract_y
_atom_site_fract_z
Zn1 Zn 0.5000 0.11674(2) 0.7500
N1 N 0.61768(7) 0.12017(14) 0.70795(9)
N2 N 0.54725(10) 0.61587(14) 0.92652(10)
N3 N 0.53227(8) 0.90941(15) 0.84922(11)
N4 N 0.53504(8) 0.32124(16) 0.84939(10)
N5 N 0.75039(9) 0.1295(2) 0.62931(12)
C1 C 0.69053(8) 0.11724(15) 0.76308(10)
C2 C 0.54028(8) 0.46354(16) 0.88209(9)
C3 C 0.68041(11) 0.1342(3) 0.57935(13)
H1 H 0.6740 0.1420 0.5154
C4 C 0.53870(8) 0.76712(16) 0.88110(9)
C5 C 0.75647(9) 0.12097(19) 0.72253(12)
C6 C 0.61407(10) 0.12783(19) 0.61823(11)
H2 H 0.5658 0.1291 0.5788
C7 C 0.70058(9) 0.10963(19) 0.86005(11)
H3 H 0.6578 0.1093 0.8874
C8 C 0.83832(11) 0.1072(3) 0.87367(15)
H4 H 0.8874 0.1040 0.9112
C9 C 0.77338(10) 0.1027(2) 0.91411(13)
H5 H 0.7798 0.0949 0.9781
C10 C 0.83052(11) 0.1161(3) 0.78042(15)
H6 H 0.8741 0.1189 0.7546
N1A N 0.38232(7) 0.12017(14) 0.79205(9)
N2A N 0.45275(10) 0.61587(14) 0.57348(10)
N3A N 0.46773(8) 0.90941(15) 0.65078(11)
N4A N 0.46496(8) 0.32124(16) 0.65061(10)
N5A N 0.24961(9) 0.1295(2) 0.87069(12)
C1A C 0.30947(8) 0.11724(15) 0.73692(10)
C2A C 0.45972(8) 0.46354(16) 0.61791(9)
C3A C 0.31959(11) 0.1342(3) 0.92065(13)
H1A H 0.3260 0.1420 0.9846
C4A C 0.46130(8) 0.76712(16) 0.61890(9)
C5A C 0.24353(9) 0.12097(19) 0.77747(12)
C6A C 0.38593(10) 0.12783(19) 0.88177(11)
H2A H 0.4342 0.1291 0.9212
C7A C 0.29942(9) 0.10963(19) 0.63995(11)
H3A H 0.3422 0.1093 0.6126
C8A C 0.16168(11) 0.1072(3) 0.62633(15)
H4A H 0.1126 0.1040 0.5888
C9A C 0.22662(10) 0.1027(2) 0.58589(13)
H5A H 0.2202 0.0949 0.5219
C10A C 0.16948(11) 0.1161(3) 0.71958(15)
H6A H 0.1259 0.1189 0.7454
Zn1_2 Zn 0.5000 1.11674(2) 0.7500
N3_2 N 0.53227(8) -0.09059(15) 0.84922(11)
N3A_2 N 0.46773(8) -0.09059(15) 0.65078(11)
loop_
_geom_bond_atom_site_label_1
_geom_bond_atom_site_label_2
_geom_bond_site_symmetry_1
_geom_bond_site_symmetry_2
Zn1 N1 1_555 1_555
N1 C1 1_555 1_555
N2 C2 1_555 1_555
N3 C4 1_555 1_555
N4 Zn1 1_555 1_555
N5 C3 1_555 1_555
C1 C5 1_555 1_555
C2 N4 1_555 1_555
C3 H1 1_555 1_555
C4 N2 1_555 1_555
C5 N5 1_555 1_555
C6 N1 1_555 1_555
H2 C6 1_555 1_555
C7 C1 1_555 1_555
H3 C7 1_555 1_555
C8 H4 1_555 1_555
C9 C7 1_555 1_555
H5 C9 1_555 1_555
C10 C5 1_555 1_555
H6 C10 1_555 1_555
N1A Zn1 1_555 1_555
N2A C2A 1_555 1_555
N3A C4A 1_555 1_555
N4A Zn1 1_555 1_555
N5A C3A 1_555 1_555
C1A N1A 1_555 1_555
C2A N4A 1_555 1_555
C3A H1A 1_555 1_555
C4A N2A 1_555 1_555
C5A N5A 1_555 1_555
C6A N1A 1_555 1_555
H2A C6A 1_555 1_555
C7A C1A 1_555 1_555
H3A C7A 1_555 1_555
C8A H4A 1_555 1_555
C9A C7A 1_555 1_555
H5A C9A 1_555 1_555
C10A C5A 1_555 1_555
H6A C10A 1_555 1_555
Zn1_2 N3 1_555 1_555
N3_2 Zn1 1_555 1_555
N3A_2 Zn1 1_555 1_555
C3 C6 1_555 1_555
C8 C9 1_555 1_555
C8 C10 1_555 1_555
N3A Zn1_2 1_555 1_555
C1A C5A 1_555 1_555
C3A C6A 1_555 1_555
C8A C9A 1_555 1_555
C8A C10A 1_555 1_555

#END
