
#######################################################################
#
#                 Cambridge Crystallographic Data Centre
#                                CCDC 
#
#######################################################################
#
# If this CIF has been generated from an entry in the Cambridge 
# Structural Database, then it will include bibliographic, chemical, 
# crystal, experimental, refinement or atomic coordinate data resulting 
# from the CCDC's data processing and validation procedures.
#
#######################################################################

data_NODKAT
_symmetry_cell_setting           orthorhombic
_symmetry_space_group_name_H-M   'P 21 21 21'
_symmetry_Int_Tables_number      19
_space_group_name_Hall           'P 2ac 2ab'
loop_
_symmetry_equiv_pos_site_id
_symmetry_equiv_pos_as_xyz
1 x,y,z
2 1/2-x,-y,1/2+z
3 -x,1/2+y,1/2-z
4 1/2+x,1/2-y,-z
_cell_length_a                   12.3398(2)
_cell_length_b                   13.4958(3)
_cell_length_c                   16.9799(3)
_cell_angle_alpha                90
_cell_angle_beta                 90
_cell_angle_gamma                90
_cell_volume                     2827.76
loop_
_atom_site_label
_atom_site_type_symbol
_atom_site_fract_x
_atom_site_fract_y
_atom_site_fract_z
In1 In 0.28603(3) 0.10486(3) 1.130983(18)
O1 O 0.2707(3) 0.2850(2) 1.10412(17)
O2 O 0.3055(3) 0.1707(3) 1.01572(17)
O3 O 0.6362(3) 0.4846(3) 0.92970(19)
O4 O 0.6149(2) 0.3725(3) 0.83737(19)
O5 O 0.3782(3) -0.0261(2) 1.07369(18)
O6 O 0.2958(3) -0.0464(2) 1.18728(17)
O7 O 0.6808(3) -0.3389(2) 1.24442(16)
O8 O 0.5467(3) -0.3588(2) 1.32717(18)
C1 C 0.3126(4) 0.3410(4) 0.9721(3)
C2 C 0.4268(4) 0.3893(4) 0.9861(3)
C3 C 0.4543(4) 0.4340(4) 0.9045(3)
H1 H 0.4318 0.5036 0.9046
C4 C 0.3847(4) 0.3781(5) 0.8424(2)
H2 H 0.3342 0.4229 0.8170
H3 H 0.4305 0.3483 0.8024
C5 C 0.3249(4) 0.2993(4) 0.8885(3)
H4 H 0.3659 0.2380 0.8893
H5 H 0.2544 0.2865 0.8653
C6 C 0.2215(4) 0.4166(4) 0.9738(3)
H6 H 0.1538 0.3840 0.9636
H7 H 0.2341 0.4660 0.9342
H8 H 0.2190 0.4475 1.0247
C7 C 0.5107(4) 0.3107(4) 1.0114(3)
H9 H 0.4912 0.2845 1.0620
H10 H 0.5812 0.3405 1.0144
H11 H 0.5119 0.2579 0.9734
C8 C 0.4265(5) 0.4673(4) 1.0495(3)
H12 H 0.4106 0.4370 1.0994
H13 H 0.3724 0.5162 1.0378
H14 H 0.4964 0.4984 1.0519
C9 C 0.2928(4) 0.2613(4) 1.0350(3)
C10 C 0.5766(5) 0.4303(4) 0.8890(3)
C11 C 0.3865(4) -0.1898(3) 1.1315(3)
C12 C 0.5018(4) -0.2016(4) 1.1704(3)
C13 C 0.5011(4) -0.3131(4) 1.1937(3)
H15 H 0.5238 -0.3504 1.1471
C14 C 0.3834(4) -0.3424(4) 1.2107(3)
H16 H 0.3636 -0.4011 1.1811
H17 H 0.3733 -0.3557 1.2664
C15 C 0.3156(4) -0.2542(4) 1.1852(3)
H18 H 0.2925 -0.2165 1.2308
H19 H 0.2517 -0.2765 1.1570
C16 C 0.3825(5) -0.2293(4) 1.0471(3)
H20 H 0.4283 -0.1894 1.0141
H21 H 0.3094 -0.2265 1.0280
H22 H 0.4075 -0.2966 1.0463
C17 C 0.5948(4) -0.1745(5) 1.1152(3)
H23 H 0.5913 -0.1052 1.1029
H24 H 0.5890 -0.2125 1.0676
H25 H 0.6627 -0.1889 1.1404
C18 C 0.5114(5) -0.1382(4) 1.2446(3)
H26 H 0.4537 -0.1546 1.2802
H27 H 0.5067 -0.0694 1.2306
H28 H 0.5798 -0.1508 1.2695
C19 C 0.3519(4) -0.0816(3) 1.1307(3)
C20 C 0.5806(4) -0.3380(3) 1.2589(3)
In1C In 0.78603(3) 0.39514(3) 0.869017(18)
In1B In 0.71397(3) -0.39514(3) 1.369017(18)
O3C O 0.1362(3) 0.0154(3) 1.07030(19)
O4C O 0.1149(2) 0.1275(3) 1.16263(19)
O7B O 0.3192(3) 0.1611(2) 1.25558(16)
O8B O 0.4533(3) 0.1412(2) 1.17283(18)
C21 C 0.4111(5) 0.0776(4) 0.7841(3)
H29 H 0.3640 0.0798 0.7415
C22 C 0.5548(4) 0.0959(5) 0.8579(3)
H30 H 0.6243 0.1130 0.8743
C23 C 0.4794(5) 0.0487(4) 0.9011(3)
H31 H 0.4864 0.0278 0.9531
C24 C 0.5763(6) 0.1647(5) 0.7236(4)
H32 H 0.6204 0.2159 0.7475
H33 H 0.6242 0.1171 0.6987
C25 C 0.5055(6) 0.2082(5) 0.6650(4)
H34 H 0.5483 0.2418 0.6260
H35 H 0.4577 0.2547 0.6899
H36 H 0.4637 0.1570 0.6402
C26 C 0.2849(4) -0.0056(4) 0.8784(3)
H37 H 0.2355 -0.0060 0.8347
H38 H 0.2551 0.0335 0.9203
H39 H 0.2961 -0.0723 0.8964
N1 N 0.5108(4) 0.1144(4) 0.7851(3)
N2 N 0.3892(4) 0.0372(3) 0.8533(3)
loop_
_geom_bond_atom_site_label_1
_geom_bond_atom_site_label_2
_geom_bond_site_symmetry_1
_geom_bond_site_symmetry_2
In1 O1 1_555 1_555
O1 C9 1_555 1_555
O2 In1 1_555 1_555
O3 C10 1_555 1_555
O4 C10 1_555 1_555
O5 In1 1_555 1_555
O6 In1 1_555 1_555
O7 C20 1_555 1_555
O8 C20 1_555 1_555
C1 C2 1_555 1_555
C2 C3 1_555 1_555
C3 H1 1_555 1_555
C4 C3 1_555 1_555
H2 C4 1_555 1_555
H3 C4 1_555 1_555
C5 C1 1_555 1_555
H4 C5 1_555 1_555
H5 C5 1_555 1_555
C6 C1 1_555 1_555
H6 C6 1_555 1_555
H7 C6 1_555 1_555
H8 C6 1_555 1_555
C7 C2 1_555 1_555
H9 C7 1_555 1_555
H10 C7 1_555 1_555
H11 C7 1_555 1_555
C8 C2 1_555 1_555
H12 C8 1_555 1_555
H13 C8 1_555 1_555
H14 C8 1_555 1_555
C9 O2 1_555 1_555
C10 C3 1_555 1_555
C11 C12 1_555 1_555
C12 C13 1_555 1_555
C13 H15 1_555 1_555
C14 C13 1_555 1_555
H16 C14 1_555 1_555
H17 C14 1_555 1_555
C15 C11 1_555 1_555
H18 C15 1_555 1_555
H19 C15 1_555 1_555
C16 C11 1_555 1_555
H20 C16 1_555 1_555
H21 C16 1_555 1_555
H22 C16 1_555 1_555
C17 C12 1_555 1_555
H23 C17 1_555 1_555
H24 C17 1_555 1_555
H25 C17 1_555 1_555
C18 C12 1_555 1_555
H26 C18 1_555 1_555
H27 C18 1_555 1_555
H28 C18 1_555 1_555
C19 O5 1_555 1_555
C20 C13 1_555 1_555
C21 H29 1_555 1_555
C22 H30 1_555 1_555
C23 C22 1_555 1_555
H31 C23 1_555 1_555
C24 H32 1_555 1_555
H33 C24 1_555 1_555
C25 C24 1_555 1_555
H34 C25 1_555 1_555
H35 C25 1_555 1_555
H36 C25 1_555 1_555
C26 H37 1_555 1_555
H38 C26 1_555 1_555
H39 C26 1_555 1_555
N1 C21 1_555 1_555
N2 C21 1_555 1_555
In1C O3 1_555 1_555
In1B O7 1_555 1_555
O3C In1 1_555 1_555
O4C In1 1_555 1_555
O7B In1 1_555 1_555
O8B In1 1_555 1_555
O4 In1C 1_555 1_555
O6 C19 1_555 1_555
O8 In1B 1_555 1_555
C1 C9 1_555 1_555
C4 C5 1_555 1_555
C11 C19 1_555 1_555
C14 C15 1_555 1_555
C22 N1 1_555 1_555
C23 N2 1_555 1_555
C24 N1 1_555 1_555
C26 N2 1_555 1_555

#END
