
#######################################################################
#
#                 Cambridge Crystallographic Data Centre
#                                CCDC 
#
#######################################################################
#
# If this CIF has been generated from an entry in the Cambridge 
# Structural Database, then it will include bibliographic, chemical, 
# crystal, experimental, refinement or atomic coordinate data resulting 
# from the CCDC's data processing and validation procedures.
#
#######################################################################

data_NODKUN
_symmetry_cell_setting           monoclinic
_symmetry_space_group_name_H-M   'C c'
_symmetry_Int_Tables_number      9
_space_group_name_Hall           'C -2yc'
loop_
_symmetry_equiv_pos_site_id
_symmetry_equiv_pos_as_xyz
1 x,y,z
2 x,-y,1/2+z
3 1/2+x,1/2+y,z
4 1/2+x,1/2-y,1/2+z
_cell_length_a                   22.7480(18)
_cell_length_b                   15.8466(12)
_cell_length_c                   15.1126(12)
_cell_angle_alpha                90.00
_cell_angle_beta                 90.00
_cell_angle_gamma                90.00
_cell_volume                     5447.77
loop_
_atom_site_label
_atom_site_type_symbol
_atom_site_fract_x
_atom_site_fract_y
_atom_site_fract_z
In1 In 1.171013(17) 1.60203(2) -0.133084(18)
O1 O 1.13170(19) 1.7015(2) -0.2269(3)
O3 O 1.11024(18) 1.6714(3) -0.0385(3)
O4 O 0.70119(19) 1.9602(3) -0.1449(3)
O5 O 0.73672(19) 1.8020(3) -0.5764(3)
O6 O 1.14635(17) 1.5719(3) -0.2743(3)
O7 O 1.07655(17) 1.5589(2) -0.1057(3)
O8 O 0.7609(2) 1.8756(3) -0.6911(3)
O9 O 0.70414(19) 2.0257(3) -0.0166(3)
O10 O 1.01125(18) 1.7182(3) -0.6085(2)
O11 O 0.84266(19) 1.6902(3) 0.0832(3)
C1 C 1.0092(3) 1.6375(4) -0.0172(4)
C2 C 0.8360(3) 1.7913(3) -0.6258(4)
C3 C 0.8776(3) 1.8144(4) -0.6903(4)
H1 H 0.8660 1.8467 -0.7386
C4 C 0.7754(3) 1.8240(4) -0.6313(4)
C5 C 1.0977(2) 1.6665(4) -0.3727(3)
C6 C 1.0747(3) 1.7459(4) -0.3878(4)
H2 H 1.0796 1.7879 -0.3454
C7 C 1.0379(2) 1.7006(4) -0.5279(4)
C8 C 0.9946(3) 1.7187(3) 0.0131(4)
H3 H 1.0226 1.7614 0.0104
C9 C 1.0619(3) 1.6225(4) -0.5167(4)
H4 H 1.0582 1.5818 -0.5607
C11 C 1.0445(3) 1.7640(4) -0.4651(4)
H6 H 1.0289 1.8175 -0.4748
C12 C 1.0923(4) 1.6040(4) -0.4375(5)
H7 H 1.1086 1.5508 -0.4286
C13 C 0.9532(3) 1.7424(4) -0.6103(4)
C14 C 0.9666(3) 1.5747(4) -0.0115(4)
H8 H 0.9756 1.5204 -0.0304
C15 C 1.1265(2) 1.6458(4) -0.2872(4)
C16 C 0.8534(3) 1.7440(4) -0.5553(4)
H9 H 0.8259 1.7278 -0.5131
C17 C 0.8980(2) 1.6729(4) 0.0495(4)
C18 C 0.9109(3) 1.5918(4) 0.0219(5)
H10 H 0.8828 1.5494 0.0257
C19 C 0.7485(3) 1.8889(4) -0.0265(4)
C20 C 0.7777(3) 1.8324(4) -0.0801(4)
H11 H 0.7750 1.8386 -0.1411
C21 C 0.9402(3) 1.7362(4) 0.0464(4)
H12 H 0.9314 1.7901 0.0669
C22 C 0.8105(3) 1.7674(4) -0.0466(4)
H13 H 0.8311 1.7314 -0.0841
C23 C 0.9126(3) 1.7191(4) -0.5453(4)
H14 H 0.9244 1.6877 -0.4964
C24 C 0.9355(3) 1.7895(4) -0.6827(4)
H15 H 0.9626 1.8044 -0.7260
C25 C 0.7822(3) 1.8103(4) 0.1010(4)
H16 H 0.7831 1.8018 0.1618
C26 C 0.8124(3) 1.7564(4) 0.0453(4)
C27 C 0.7505(3) 1.8770(4) 0.0661(4)
H17 H 0.7306 1.9139 0.1035
C28 C 0.7164(3) 1.9622(4) -0.0634(4)
C37 C 1.0680(3) 1.6204(4) -0.0556(4)
In1B In 0.671013(17) 2.10203(2) -0.133084(18)
In1C In 0.671013(17) 1.89797(2) -0.633084(18)
O4B O 1.20119(19) 1.4602(3) -0.1449(3)
O5C O 1.23672(19) 1.6980(3) -0.0764(3)
O8C O 1.2609(2) 1.6244(3) -0.1911(3)
O9B O 1.20414(19) 1.5257(3) -0.0166(3)
O2 O 0.5224(7) 0.5101(9) 0.2985(10)
O12 O 0.7794(4) 0.4527(4) 0.1834(5)
O13 O 0.7752(3) 0.3134(4) 0.2522(4)
O14 O 0.8433(3) 0.3453(3) 0.1352(4)
O15 O 0.8559(3) 0.4018(4) 0.2831(4)
C49 C 0.9024(4) 0.4618(7) 0.2582(7)
H55 H 0.9080 0.4612 0.1946
H56 H 0.9392 0.4458 0.2860
C50 C 0.8846(6) 0.5496(7) 0.2882(9)
H57 H 0.9150 0.5891 0.2729
H58 H 0.8791 0.5497 0.3512
H59 H 0.8486 0.5655 0.2596
S1 S 0.81001(10) 0.37645(12) 0.20796(12)
O16 O 0.5438(6) 0.5955(5) 0.5528(12)
O17 O 0.5695(4) 0.4795(7) 0.4665(9)
O18 O 0.5687(4) 0.4676(5) 0.6171(8)
O19 O 0.4796(3) 0.4757(4) 0.5464(5)
C47 C 0.3820(4) 0.4805(8) 0.4942(7)
H50 H 0.3610 0.5056 0.4459
H51 H 0.3664 0.5010 0.5492
H52 H 0.3779 0.4202 0.4918
C48 C 0.4396(7) 0.5011(12) 0.4884(12)
H53 H 0.4528 0.4819 0.4308
H54 H 0.4414 0.5622 0.4873
S2 S 0.54366(11) 0.51644(14) 0.55110(19)
C10 C 0.8336(4) 1.0338(5) 0.2332(5)
H5 H 0.8132 0.9850 0.2481
C34 C 0.9574(5) 1.1767(7) 0.2145(6)
H26 H 0.9890 1.1374 0.2022
H27 H 0.9569 1.2183 0.1674
C35 C 0.8524(5) 1.1599(6) 0.1808(5)
H28 H 0.8476 1.2126 0.1548
C36 C 0.8900(4) 1.0494(6) 0.2493(5)
H29 H 0.9167 1.0144 0.2781
C44 C 0.7506(5) 1.1159(6) 0.1616(7)
H41 H 0.7478 1.1702 0.1340
H42 H 0.7247 1.1136 0.2116
H43 H 0.7399 1.0729 0.1199
C45 C 0.9695(5) 1.2192(8) 0.2977(7)
H44 H 1.0064 1.2482 0.2937
H45 H 0.9712 1.1783 0.3445
H46 H 0.9388 1.2591 0.3098
N3 N 0.9009(3) 1.1301(5) 0.2136(5)
N4 N 0.8112(3) 1.1019(3) 0.1912(4)
C29 C 0.6829(4) 0.6647(5) 0.5586(5)
H18 H 0.6512 0.7036 0.5493
H19 H 0.7172 0.6949 0.5779
H20 H 0.6718 0.6243 0.6029
C30 C 0.6721(4) 0.5749(6) 0.2472(6)
H21 H 0.6312 0.5915 0.2421
H22 H 0.6754 0.5166 0.2282
C31 C 0.7353(4) 0.5382(5) 0.3799(5)
H23 H 0.7593 0.4987 0.3521
C32 C 0.7383(4) 0.5615(5) 0.4653(5)
H24 H 0.7641 0.5410 0.5080
C33 C 0.6688(4) 0.6328(5) 0.4005(5)
H25 H 0.6385 0.6710 0.3905
C46 C 0.7096(4) 0.6306(6) 0.1881(6)
H47 H 0.6965 0.6255 0.1280
H48 H 0.7500 0.6132 0.1921
H49 H 0.7062 0.6883 0.2068
N1 N 0.6912(3) 0.5822(4) 0.3415(4)
N2 N 0.6958(3) 0.6212(4) 0.4766(4)
C38 C 1.0971(4) 1.3745(6) -0.3028(6)
H30 H 1.1033 1.3670 -0.3659
H31 H 1.1253 1.4161 -0.2824
C39 C 1.1695(5) 1.1738(6) -0.0801(7)
H32 H 1.1887 1.2195 -0.0501
H33 H 1.1983 1.1332 -0.0987
H34 H 1.1421 1.1473 -0.0406
C40 C 1.1050(4) 1.1640(5) -0.2181(7)
H35 H 1.0967 1.1066 -0.2164
C41 C 1.0864(4) 1.2185(6) -0.2803(6)
H36 H 1.0625 1.2065 -0.3286
C42 C 1.0378(4) 1.4083(5) -0.2891(5)
H37 H 1.0337 1.4605 -0.3207
H38 H 1.0316 1.4179 -0.2271
H39 H 1.0094 1.3684 -0.3105
C43 C 1.1393(3) 1.2864(4) -0.1851(5)
H40 H 1.1586 1.3301 -0.1560
N5 N 1.1378(3) 1.2067(4) -0.1583(5)
N6 N 1.1095(3) 1.2944(4) -0.2584(4)
loop_
_geom_bond_atom_site_label_1
_geom_bond_atom_site_label_2
_geom_bond_site_symmetry_1
_geom_bond_site_symmetry_2
In1 O1 1_555 1_555
O1 C15 1_555 1_555
O3 In1 1_555 1_555
O4 C28 1_555 1_555
O5 C4 1_555 1_555
O6 In1 1_555 1_555
O7 In1 1_555 1_555
O8 C4 1_555 1_555
O9 C28 1_555 1_555
O10 C7 1_555 1_555
O11 C17 1_555 1_555
O12 S1 1_555 1_555
O13 S1 1_555 1_555
O14 S1 1_555 1_555
O15 C49 1_555 1_555
O16 S2 1_555 1_555
O17 S2 1_555 1_555
O18 S2 1_555 1_555
O19 C48 1_555 1_555
C1 C8 1_555 1_555
C2 C3 1_555 1_555
C3 H1 1_555 1_555
C4 C2 1_555 1_555
C5 C6 1_555 1_555
C6 H2 1_555 1_555
C7 C9 1_555 1_555
C8 H3 1_555 1_555
C9 H4 1_555 1_555
C10 H5 1_555 1_555
C11 C6 1_555 1_555
H6 C11 1_555 1_555
C12 C5 1_555 1_555
H7 C12 1_555 1_555
C13 O10 1_555 1_555
C14 C1 1_555 1_555
H8 C14 1_555 1_555
C15 O6 1_555 1_555
C16 C2 1_555 1_555
H9 C16 1_555 1_555
C17 C18 1_555 1_555
C18 C14 1_555 1_555
H10 C18 1_555 1_555
C19 C20 1_555 1_555
C20 H11 1_555 1_555
C21 C8 1_555 1_555
H12 C21 1_555 1_555
C22 C20 1_555 1_555
H13 C22 1_555 1_555
C23 C13 1_555 1_555
H14 C23 1_555 1_555
C24 C3 1_555 1_555
H15 C24 1_555 1_555
C25 H16 1_555 1_555
C26 O11 1_555 1_555
C27 C19 1_555 1_555
H17 C27 1_555 1_555
C28 C19 1_555 1_555
C29 H18 1_555 1_555
H19 C29 1_555 1_555
H20 C29 1_555 1_555
C30 H21 1_555 1_555
H22 C30 1_555 1_555
C31 H23 1_555 1_555
C32 C31 1_555 1_555
H24 C32 1_555 1_555
C33 H25 1_555 1_555
C34 H26 1_555 1_555
H27 C34 1_555 1_555
C35 H28 1_555 1_555
C36 C10 1_555 1_555
H29 C36 1_555 1_555
C37 O3 1_555 1_555
C38 H30 1_555 1_555
H31 C38 1_555 1_555
C39 H32 1_555 1_555
H33 C39 1_555 1_555
H34 C39 1_555 1_555
C40 H35 1_555 1_555
C41 C40 1_555 1_555
H36 C41 1_555 1_555
C42 C38 1_555 1_555
H37 C42 1_555 1_555
H38 C42 1_555 1_555
H39 C42 1_555 1_555
C43 H40 1_555 1_555
C44 H41 1_555 1_555
H42 C44 1_555 1_555
H43 C44 1_555 1_555
C45 C34 1_555 1_555
H44 C45 1_555 1_555
H45 C45 1_555 1_555
H46 C45 1_555 1_555
C46 C30 1_555 1_555
H47 C46 1_555 1_555
H48 C46 1_555 1_555
H49 C46 1_555 1_555
C47 H50 1_555 1_555
H51 C47 1_555 1_555
H52 C47 1_555 1_555
C48 C47 1_555 1_555
H53 C48 1_555 1_555
H54 C48 1_555 1_555
C49 H55 1_555 1_555
H56 C49 1_555 1_555
C50 C49 1_555 1_555
H57 C50 1_555 1_555
H58 C50 1_555 1_555
H59 C50 1_555 1_555
S1 O15 1_555 1_555
S2 O19 1_555 1_555
N1 C30 1_555 1_555
N2 C29 1_555 1_555
N3 C34 1_555 1_555
N4 C10 1_555 1_555
N5 C39 1_555 1_555
N6 C38 1_555 1_555
In1B O4 1_555 1_555
In1C O5 1_555 1_555
O4B In1 1_555 1_555
O5C In1 1_555 1_555
O8C In1 1_555 1_555
O9B In1 1_555 1_555
O7 C37 1_555 1_555
O8 In1C 1_555 1_555
O9 In1B 1_555 1_555
C1 C37 1_555 1_555
C5 C15 1_555 1_555
C7 C11 1_555 1_555
C9 C12 1_555 1_555
C13 C24 1_555 1_555
C16 C23 1_555 1_555
C17 C21 1_555 1_555
C22 C26 1_555 1_555
C25 C26 1_555 1_555
C25 C27 1_555 1_555
C31 N1 1_555 1_555
C32 N2 1_555 1_555
C33 N1 1_555 1_555
C33 N2 1_555 1_555
C35 N3 1_555 1_555
C35 N4 1_555 1_555
C36 N3 1_555 1_555
C40 N5 1_555 1_555
C41 N6 1_555 1_555
C43 N5 1_555 1_555
C43 N6 1_555 1_555
C44 N4 1_555 1_555

#END
