
#######################################################################
#
#                 Cambridge Crystallographic Data Centre
#                                CCDC 
#
#######################################################################
#
# If this CIF has been generated from an entry in the Cambridge 
# Structural Database, then it will include bibliographic, chemical, 
# crystal, experimental, refinement or atomic coordinate data resulting 
# from the CCDC's data processing and validation procedures.
#
#######################################################################

data_NODLAV
_symmetry_cell_setting           triclinic
_symmetry_space_group_name_H-M   'P -1'
_symmetry_Int_Tables_number      2
_space_group_name_Hall           '-P 1'
loop_
_symmetry_equiv_pos_site_id
_symmetry_equiv_pos_as_xyz
1 x,y,z
2 -x,-y,-z
_cell_length_a                   6.88172(41)
_cell_length_b                   7.05160(45)
_cell_length_c                   7.19068(44)
_cell_angle_alpha                91.0836(26)
_cell_angle_beta                 103.5144(26)
_cell_angle_gamma                113.1281(17)
_cell_volume                     309.612
loop_
_atom_site_label
_atom_site_type_symbol
_atom_site_fract_x
_atom_site_fract_y
_atom_site_fract_z
Ni1 Ni 1.00000 0.00000 0.00000
S1 S 0.69887(47) 0.11658(49) 0.83183(60)
O1 O 0.6038(11) 0.5386(11) 0.3052(11)
O2 O 1.0020(11) 0.1148(12) 0.2760(11)
N1 N 0.8531(13) 0.1430(14) 0.5241(12)
N2 N 0.6624(15) 0.3290(15) 0.5367(13)
C1 C 0.7396(18) 0.1899(18) 0.6247(18)
C2 C 0.6865(17) 0.4103(17) 0.3676(16)
C3 C 0.8166(16) 0.3446(17) 0.2800(14)
C4 C 0.8920(17) 0.1875(17) 0.3370(16)
O3 O 0.7623(14) -0.2699(13) 0.00472(86)
H1 H 0.90527 0.05048 0.57601
H2 H 0.58419 0.37553 0.59275
H3 H 0.8318 0.37942 0.16726
H4 H 0.71 -0.3451 0.1076
H5 H 0.645 -0.368 -0.0936
S1A S 1.30113(47) -0.11658(49) -0.83183(60)
O1A O 1.3962(11) -0.5386(11) -0.3052(11)
O2A O 0.9980(11) -0.1148(12) -0.2760(11)
N1A N 1.1469(13) -0.1430(14) -0.5241(12)
N2A N 1.3376(15) -0.3290(15) -0.5367(13)
C1A C 1.2604(18) -0.1899(18) -0.6247(18)
C2A C 1.3135(17) -0.4103(17) -0.3676(16)
C3A C 1.1834(16) -0.3446(17) -0.2800(14)
C4A C 1.1080(17) -0.1875(17) -0.3370(16)
O3A O 1.2377(14) 0.2699(13) -0.00472(86)
H1A H 1.09473 -0.05048 -0.57601
H2A H 1.41581 -0.37553 -0.59275
H3A H 1.1682 -0.37942 -0.16726
H4A H 1.29 0.3451 -0.1076
H5A H 1.355 0.368 0.0936
Ni1_2 Ni 1.00000 0.00000 -1.00000
Ni1_3 Ni 1.00000 0.00000 1.00000
S1_2 S 0.69887(47) 0.11658(49) -0.16817(60)
S1A_2 S 1.30113(47) -0.11658(49) 0.16817(60)
loop_
_geom_bond_atom_site_label_1
_geom_bond_atom_site_label_2
_geom_bond_site_symmetry_1
_geom_bond_site_symmetry_2
Ni1 O2 1_555 1_555
S1 C1 1_555 1_555
O1 C2 1_555 1_555
O2 C4 1_555 1_555
N1 C1 1_555 1_555
N2 C1 1_555 1_555
C2 N2 1_555 1_555
C3 C2 1_555 1_555
C4 N1 1_555 1_555
O3 Ni1 1_555 1_555
H1 N1 1_555 1_555
H2 N2 1_555 1_555
H3 C3 1_555 1_555
H4 O3 1_555 1_555
H5 O3 1_555 1_555
S1A C1A 1_555 1_555
O1A C2A 1_555 1_555
O2A Ni1 1_555 1_555
N1A C1A 1_555 1_555
N2A C1A 1_555 1_555
C2A N2A 1_555 1_555
C3A C2A 1_555 1_555
C4A O2A 1_555 1_555
O3A Ni1 1_555 1_555
H1A N1A 1_555 1_555
H2A N2A 1_555 1_555
H3A C3A 1_555 1_555
H4A O3A 1_555 1_555
H5A O3A 1_555 1_555
Ni1_2 S1A 1_555 1_555
Ni1_3 S1 1_555 1_555
S1_2 Ni1 1_555 1_555
S1A_2 Ni1 1_555 1_555
C3 C4 1_555 1_555
N1A C4A 1_555 1_555
C3A C4A 1_555 1_555

#END
