
#######################################################################
#
#                 Cambridge Crystallographic Data Centre
#                                CCDC 
#
#######################################################################
#
# If this CIF has been generated from an entry in the Cambridge 
# Structural Database, then it will include bibliographic, chemical, 
# crystal, experimental, refinement or atomic coordinate data resulting 
# from the CCDC's data processing and validation procedures.
#
#######################################################################

data_NODLID
_symmetry_cell_setting           triclinic
_symmetry_space_group_name_H-M   'P -1'
_symmetry_Int_Tables_number      2
_space_group_name_Hall           '-P 1'
loop_
_symmetry_equiv_pos_site_id
_symmetry_equiv_pos_as_xyz
1 x,y,z
2 -x,-y,-z
_cell_length_a                   6.87606(33)
_cell_length_b                   7.08625(37)
_cell_length_c                   7.27721(31)
_cell_angle_alpha                91.1743(18)
_cell_angle_beta                 102.6865(19)
_cell_angle_gamma                113.4713(12)
_cell_volume                     314.989
loop_
_atom_site_label
_atom_site_type_symbol
_atom_site_fract_x
_atom_site_fract_y
_atom_site_fract_z
Fe1 Fe 1.00000 0.00000 0.00000
S1 S 0.69150(40) 0.12291(41) 0.82682(44)
O1 O 0.60281(98) 0.5325(11) 0.29595(96)
O2 O 1.0026(11) 0.1224(12) 0.27964(91)
N1 N 0.8485(13) 0.1334(15) 0.5244(12)
N2 N 0.6610(16) 0.3344(14) 0.5368(13)
C1 C 0.6835(17) 0.4106(18) 0.3580(18)
C2 C 0.8811(17) 0.1932(18) 0.3380(17)
C3 C 0.8124(16) 0.3472(16) 0.2680(13)
C4 C 0.7378(18) 0.2051(20) 0.6095(18)
O3 O 0.7596(11) -0.2769(11) 0.01056(75)
H1 H 0.90527 0.05048 0.57601
H2 H 0.58419 0.37553 0.59275
H3 H 0.837 0.375 0.155
H4 H 0.6988 -0.3451 0.1076
H5 H 0.645 -0.368 -0.0936
S1A S 1.30850(40) -0.12291(41) -0.82682(44)
O1A O 1.39719(98) -0.5325(11) -0.29595(96)
O2A O 0.9974(11) -0.1224(12) -0.27964(91)
N1A N 1.1515(13) -0.1334(15) -0.5244(12)
N2A N 1.3390(16) -0.3344(14) -0.5368(13)
C1A C 1.3165(17) -0.4106(18) -0.3580(18)
C2A C 1.1189(17) -0.1932(18) -0.3380(17)
C3A C 1.1876(16) -0.3472(16) -0.2680(13)
C4A C 1.2622(18) -0.2051(20) -0.6095(18)
O3A O 1.2404(11) 0.2769(11) -0.01056(75)
H1A H 1.09473 -0.05048 -0.57601
H2A H 1.41581 -0.37553 -0.59275
H3A H 1.163 -0.375 -0.155
H4A H 1.3012 0.3451 -0.1076
H5A H 1.355 0.368 0.0936
Fe1_2 Fe 1.00000 0.00000 -1.00000
Fe1_3 Fe 1.00000 0.00000 1.00000
S1_2 S 0.69150(40) 0.12291(41) -0.17318(44)
S1A_2 S 1.30850(40) -0.12291(41) 0.17318(44)
loop_
_geom_bond_atom_site_label_1
_geom_bond_atom_site_label_2
_geom_bond_site_symmetry_1
_geom_bond_site_symmetry_2
Fe1 O2 1_555 1_555
S1 C4 1_555 1_555
O1 C1 1_555 1_555
O2 C2 1_555 1_555
N1 C2 1_555 1_555
N2 C1 1_555 1_555
C1 C3 1_555 1_555
C2 C3 1_555 1_555
C3 H3 1_555 1_555
C4 N1 1_555 1_555
O3 Fe1 1_555 1_555
H1 N1 1_555 1_555
H2 N2 1_555 1_555
H4 O3 1_555 1_555
H5 O3 1_555 1_555
S1A C4A 1_555 1_555
O1A C1A 1_555 1_555
O2A Fe1 1_555 1_555
N1A C2A 1_555 1_555
N2A C1A 1_555 1_555
C1A C3A 1_555 1_555
C2A O2A 1_555 1_555
C3A C2A 1_555 1_555
C4A N1A 1_555 1_555
O3A Fe1 1_555 1_555
H1A N1A 1_555 1_555
H2A N2A 1_555 1_555
H3A C3A 1_555 1_555
H4A O3A 1_555 1_555
H5A O3A 1_555 1_555
Fe1_2 S1A 1_555 1_555
Fe1_3 S1 1_555 1_555
S1_2 Fe1 1_555 1_555
S1A_2 Fe1 1_555 1_555
N2 C4 1_555 1_555
N2A C4A 1_555 1_555

#END
