
#######################################################################
#
#                 Cambridge Crystallographic Data Centre
#                                CCDC 
#
#######################################################################
#
# If this CIF has been generated from an entry in the Cambridge 
# Structural Database, then it will include bibliographic, chemical, 
# crystal, experimental, refinement or atomic coordinate data resulting 
# from the CCDC's data processing and validation procedures.
#
#######################################################################

data_NODMAW
_symmetry_cell_setting           rhombohedral
_symmetry_space_group_name_H-M   'R 3 c'
_symmetry_Int_Tables_number      161
_space_group_name_Hall           'R 3 -2"c'
loop_
_symmetry_equiv_pos_site_id
_symmetry_equiv_pos_as_xyz
1 x,y,z
2 -y,x-y,z
3 -x+y,-x,z
4 -y,-x,1/2+z
5 -x+y,y,1/2+z
6 x,x-y,1/2+z
7 2/3+x,1/3+y,1/3+z
8 2/3-y,1/3+x-y,1/3+z
9 2/3-x+y,1/3-x,1/3+z
10 2/3-y,1/3-x,5/6+z
11 2/3-x+y,1/3+y,5/6+z
12 2/3+x,1/3+x-y,5/6+z
13 1/3+x,2/3+y,2/3+z
14 1/3-y,2/3+x-y,2/3+z
15 1/3-x+y,2/3-x,2/3+z
16 1/3-y,2/3-x,1/6+z
17 1/3-x+y,2/3+y,1/6+z
18 1/3+x,2/3+x-y,1/6+z
_cell_length_a                   23.7219(5)
_cell_length_b                   23.7219(5)
_cell_length_c                   13.8217(5)
_cell_angle_alpha                90
_cell_angle_beta                 90
_cell_angle_gamma                120
_cell_volume                     6735.83
loop_
_atom_site_label
_atom_site_type_symbol
_atom_site_fract_x
_atom_site_fract_y
_atom_site_fract_z
Fe1 Fe 0.89177(3) 0.66689(4) 0.05053(6)
C1 C 0.8828(3) 0.5305(3) 0.0760(5)
H1 H 0.9281 0.5517 0.0781
C2 C 0.8443(3) 0.4668(3) 0.0854(5)
H2 H 0.8572 0.4361 0.0948
C3 C 0.7862(3) 0.5142(2) 0.0643(4)
H3 H 0.7509 0.5206 0.0566
C4 C 0.7228(2) 0.3927(2) 0.0807(4)
C5 C 0.7269(2) 0.3370(3) 0.0820(4)
H4 H 0.7672 0.3393 0.0837
C6 C 1.0143(3) 0.8003(3) -0.0093(4)
H5 H 1.0366 0.7779 -0.0200
C7 C 1.0402(3) 0.8649(3) -0.0196(4)
H6 H 1.0826 0.8951 -0.0374
C8 C 0.9375(3) 0.8193(3) 0.0246(4)
H7 H 0.8973 0.8141 0.0416
C9 C 0.9954(3) 0.9397(2) 0.0016(4)
C10 C 1.0565(3) 0.9950(3) 0.0026(4)
H8 H 1.0940 0.9918 0.0039
N1 N 0.8471(2) 0.5609(2) 0.0629(4)
N2 N 0.7812(2) 0.4548(2) 0.0786(3)
N3 N 0.9496(2) 0.7715(2) 0.0197(4)
N4 N 0.9898(2) 0.8771(2) 0.0023(3)
O1 O 0.97637(16) 0.67934(17) 0.1302(3)
H9 H 0.9983 0.7161 0.1624
H10 H 0.9979 0.6820 0.0989
O2 O 0.86139(17) 0.6778(2) 0.1926(3)
H11 H 0.8215 0.6567 0.2153
H12 H 0.8772 0.6818 0.2426
O3 O 0.80735(18) 0.6620(2) -0.0022(3)
H13 H 0.8015 0.6814 -0.0360
H14 H 0.7667 0.6351 0.0272
O4 O 0.9268(2) 0.6514(2) -0.0827(3)
H15 H 0.9002 0.6292 -0.1269
H16 H 0.9561 0.6780 -0.1250
C1A C 0.4695(3) 0.3523(4) 0.0760(5)
H1A H 0.4483 0.3764 0.0781
C2A C 0.5332(3) 0.3775(4) 0.0854(5)
H2A H 0.5639 0.4211 0.0948
C3A C 0.4858(2) 0.2720(4) 0.0643(4)
H3A H 0.4794 0.2303 0.0566
C4A C 0.6073(2) 0.3301(3) 0.0807(4)
C5A C 0.6630(3) 0.3899(4) 0.0820(4)
H4A H 0.6607 0.4279 0.0837
N1A N 0.4391(2) 0.2862(3) 0.0629(4)
N2A N 0.5452(2) 0.3264(3) 0.0786(3)
C1B C 0.6477(4) 0.1172(3) 0.0760(5)
H1B H 0.6236 0.0719 0.0781
C2B C 0.6225(4) 0.1557(3) 0.0854(5)
H2B H 0.5789 0.1428 0.0948
C3B C 0.7280(4) 0.2138(3) 0.0643(4)
H3B H 0.7697 0.2491 0.0566
C4B C 0.6699(3) 0.2772(2) 0.0807(4)
C5B C 0.6101(4) 0.2731(2) 0.0820(4)
H4B H 0.5721 0.2328 0.0837
N1B N 0.7138(3) 0.1529(2) 0.0629(4)
N2B N 0.6736(3) 0.2188(2) 0.0786(3)
C6A C 1.1997(3) 1.2140(4) -0.0093(4)
H5A H 1.2221 1.2587 -0.0200
C7A C 1.1351(3) 1.1753(4) -0.0196(4)
H6A H 1.1049 1.1875 -0.0374
C8A C 1.1807(3) 1.1182(4) 0.0246(4)
H7A H 1.1859 1.0832 0.0416
C9A C 1.0603(2) 1.0557(4) 0.0016(4)
C10A C 1.0050(3) 1.0615(4) 0.0026(4)
H8A H 1.0082 1.1022 0.0039
N3A N 1.2285(2) 1.1781(3) 0.0197(4)
N4A N 1.1229(2) 1.1127(3) 0.0023(3)
C6B C 0.7860(4) 0.9857(3) -0.0093(4)
H5B H 0.7413 0.9634 -0.0200
C7B C 0.8247(4) 0.9598(3) -0.0196(4)
H6B H 0.8125 0.9174 -0.0374
C8B C 0.8818(4) 1.0625(3) 0.0246(4)
H7B H 0.9168 1.1027 0.0416
C9B C 0.9443(4) 1.0046(3) 0.0016(4)
C10B C 0.9385(4) 0.9435(3) 0.0026(4)
H8B H 0.8978 0.9060 0.0039
N3B N 0.8219(3) 1.0504(2) 0.0197(4)
N4B N 0.8873(3) 1.0102(2) 0.0023(3)
Fe1A Fe 0.33311(4) 0.22488(5) 0.05053(6)
O1A O 0.32066(17) 0.29703(23) 0.1302(3)
H9A H 0.2839 0.2822 0.1624
H10A H 0.3180 0.3159 0.0989
O2A O 0.3222(2) 0.18359(26) 0.1926(3)
H11A H 0.3433 0.1648 0.2153
H12A H 0.3182 0.1954 0.2426
O3A O 0.3380(2) 0.14535(27) -0.0022(3)
H13A H 0.3186 0.1201 -0.0360
H14A H 0.3649 0.1316 0.0272
O4A O 0.3486(2) 0.2754(3) -0.0827(3)
H15A H 0.3708 0.2710 -0.1269
H16A H 0.3220 0.2781 -0.1250
Fe1B Fe 0.77512(5) 0.10823(3) 0.05053(6)
O1B O 0.70297(23) 0.02363(16) 0.1302(3)
H9B H 0.7178 0.0017 0.1624
H10B H 0.6841 0.0021 0.0989
O2B O 0.81641(26) 0.13861(17) 0.1926(3)
H11B H 0.8352 0.1785 0.2153
H12B H 0.8046 0.1228 0.2426
O3B O 0.85465(27) 0.19265(18) -0.0022(3)
H13B H 0.8799 0.1985 -0.0360
H14B H 0.8684 0.2333 0.0272
O4B O 0.7246(3) 0.0732(2) -0.0827(3)
H15B H 0.7290 0.0998 -0.1269
H16B H 0.7219 0.0439 -0.1250
Fe1A_2 Fe 1.33311(4) 1.22488(5) 0.05053(6)
Fe1B_2 Fe 0.77512(5) 1.10823(3) 0.05053(6)
N3A_2 N 0.2285(2) 0.1781(3) 0.0197(4)
N3B_2 N 0.8219(3) 0.0504(2) 0.0197(4)
O5 O 0.8321(2) 0.8242(2) 0.8811(5)
O6 O 0.7574(2) 0.70941(18) 0.8602(3)
O7 O 0.7622(2) 0.78626(19) 0.7433(3)
O8 O 0.7190(2) 0.7835(3) 0.9000(4)
S1 S 0.76835(6) 0.77607(6) 0.84695(9)
loop_
_geom_bond_atom_site_label_1
_geom_bond_atom_site_label_2
_geom_bond_site_symmetry_1
_geom_bond_site_symmetry_2
Fe1 N1 1_555 1_555
C1 H1 1_555 1_555
C2 C1 1_555 1_555
H2 C2 1_555 1_555
C3 H3 1_555 1_555
C4 C5 1_555 1_555
C5 H4 1_555 1_555
C6 H5 1_555 1_555
C7 C6 1_555 1_555
H6 C7 1_555 1_555
C8 H7 1_555 1_555
C9 C10 1_555 1_555
C10 H8 1_555 1_555
N1 C1 1_555 1_555
N2 C2 1_555 1_555
N3 Fe1 1_555 1_555
N4 C7 1_555 1_555
O1 Fe1 1_555 1_555
H9 O1 1_555 1_555
H10 O1 1_555 1_555
O2 Fe1 1_555 1_555
H11 O2 1_555 1_555
H12 O2 1_555 1_555
O3 Fe1 1_555 1_555
H13 O3 1_555 1_555
H14 O3 1_555 1_555
O4 Fe1 1_555 1_555
H15 O4 1_555 1_555
H16 O4 1_555 1_555
O5 S1 1_555 1_555
O6 S1 1_555 1_555
O7 S1 1_555 1_555
O8 S1 1_555 1_555
C1A H1A 1_555 1_555
C2A C1A 1_555 1_555
H2A C2A 1_555 1_555
C3A H3A 1_555 1_555
C4A C5A 1_555 1_555
C5A C4 1_555 1_555
H4A C5A 1_555 1_555
N1A C1A 1_555 1_555
N2A C2A 1_555 1_555
C1B H1B 1_555 1_555
C2B C1B 1_555 1_555
H2B C2B 1_555 1_555
C3B H3B 1_555 1_555
C4B C5 1_555 1_555
C5B C4A 1_555 1_555
H4B C5B 1_555 1_555
N1B C1B 1_555 1_555
N2B C2B 1_555 1_555
C6A H5A 1_555 1_555
C7A C6A 1_555 1_555
H6A C7A 1_555 1_555
C8A H7A 1_555 1_555
C9A C10 1_555 1_555
C10A C9A 1_555 1_555
H8A C10A 1_555 1_555
N3A C6A 1_555 1_555
N4A C7A 1_555 1_555
C6B H5B 1_555 1_555
C7B C6B 1_555 1_555
H6B C7B 1_555 1_555
C8B H7B 1_555 1_555
C9B C10A 1_555 1_555
C10B C9 1_555 1_555
H8B C10B 1_555 1_555
N3B C6B 1_555 1_555
N4B C7B 1_555 1_555
Fe1A N1A 1_555 1_555
O1A Fe1A 1_555 1_555
H9A O1A 1_555 1_555
H10A O1A 1_555 1_555
O2A Fe1A 1_555 1_555
H11A O2A 1_555 1_555
H12A O2A 1_555 1_555
O3A Fe1A 1_555 1_555
H13A O3A 1_555 1_555
H14A O3A 1_555 1_555
O4A Fe1A 1_555 1_555
H15A O4A 1_555 1_555
H16A O4A 1_555 1_555
Fe1B N1B 1_555 1_555
O1B Fe1B 1_555 1_555
H9B O1B 1_555 1_555
H10B O1B 1_555 1_555
O2B Fe1B 1_555 1_555
H11B O2B 1_555 1_555
H12B O2B 1_555 1_555
O3B Fe1B 1_555 1_555
H13B O3B 1_555 1_555
H14B O3B 1_555 1_555
O4B Fe1B 1_555 1_555
H15B O4B 1_555 1_555
H16B O4B 1_555 1_555
Fe1A_2 N3A 1_555 1_555
Fe1B_2 N3B 1_555 1_555
N3A_2 Fe1A 1_555 1_555
N3B_2 Fe1B 1_555 1_555
C3 N1 1_555 1_555
C3 N2 1_555 1_555
C4 N2 1_555 1_555
C6 N3 1_555 1_555
C8 N3 1_555 1_555
C8 N4 1_555 1_555
C9 N4 1_555 1_555
C3A N1A 1_555 1_555
C3A N2A 1_555 1_555
C4A N2A 1_555 1_555
C3B N1B 1_555 1_555
C3B N2B 1_555 1_555
C4B C5B 1_555 1_555
C4B N2B 1_555 1_555
C8A N3A 1_555 1_555
C8A N4A 1_555 1_555
C9A N4A 1_555 1_555
C8B N3B 1_555 1_555
C8B N4B 1_555 1_555
C9B C10B 1_555 1_555
C9B N4B 1_555 1_555

#END
