
#######################################################################
#
#                 Cambridge Crystallographic Data Centre
#                                CCDC 
#
#######################################################################
#
# If this CIF has been generated from an entry in the Cambridge 
# Structural Database, then it will include bibliographic, chemical, 
# crystal, experimental, refinement or atomic coordinate data resulting 
# from the CCDC's data processing and validation procedures.
#
#######################################################################

data_NODMUQ
_symmetry_cell_setting           monoclinic
_symmetry_space_group_name_H-M   'P 21'
_symmetry_Int_Tables_number      4
_space_group_name_Hall           'P 2yb'
loop_
_symmetry_equiv_pos_site_id
_symmetry_equiv_pos_as_xyz
1 x,y,z
2 -x,1/2+y,-z
_cell_length_a                   13.697(2)
_cell_length_b                   20.285(3)
_cell_length_c                   15.991(3)
_cell_angle_alpha                90
_cell_angle_beta                 103.760(3)
_cell_angle_gamma                90
_cell_volume                     4315.49
loop_
_atom_site_label
_atom_site_type_symbol
_atom_site_fract_x
_atom_site_fract_y
_atom_site_fract_z
U1 U 0.13354(5) 0.31602(3) 0.41742(4)
U2 U 0.28072(5) 0.07167(3) 0.74966(4)
U3 U 0.25918(5) 0.37050(3) 0.86888(4)
U4 U 0.44119(4) 0.68719(3) 0.74212(4)
Na1 Na 0.2101(4) 0.2528(3) 0.6607(4)
Na2 Na 0.7098(4) 0.7556(3) 0.7435(4)
Na3 Na 0.4272(5) 0.5278(3) 0.8769(4)
Na4 Na 0.1041(4) -0.0769(3) 0.6600(4)
O1 O 0.0566(6) 0.2540(3) 0.3976(5)
O2 O 0.2230(8) 0.3784(5) 0.4381(6)
O3 O 0.0177(7) 0.3903(4) 0.4666(6)
O4 O 0.1025(7) 0.3235(5) 0.5615(6)
O5 O 0.2491(7) 0.2472(5) 0.5226(6)
O6 O 0.2563(7) 0.2357(5) 0.3891(6)
O7 O 0.1551(7) 0.3170(5) 0.2712(6)
O8 O 0.0300(8) 0.3775(6) 0.2930(7)
O9 O 0.2277(8) 0.0910(5) 0.8282(6)
O10 O 0.3388(7) 0.0467(5) 0.6664(6)
O11 O 0.1215(7) 0.0361(5) 0.6516(6)
O12 O 0.1592(7) 0.1412(5) 0.6514(6)
O13 O 0.3399(7) 0.1842(5) 0.7365(6)
O14 O 0.4315(9) 0.1194(6) 0.8276(7)
O15 O 0.3845(9) -0.0089(6) 0.8419(7)
O16 O 0.2396(8) -0.0440(5) 0.7686(6)
O17 O 0.3524(8) 0.3181(6) 0.9125(6)
O18 O 0.1633(8) 0.4203(5) 0.8225(6)
O19 O 0.3718(7) 0.4346(5) 0.7969(6)
O20 O 0.2907(7) 0.3480(5) 0.7260(6)
O21 O 0.1579(7) 0.2788(5) 0.7917(6)
O22 O 0.1403(8) 0.2987(5) 0.9200(6)
O23 O 0.2521(8) 0.4033(5) 1.0148(7)
O24 O 0.3446(8) 0.4642(5) 0.9566(7)
O25 O 0.4683(7) 0.7177(4) 0.8411(4)
O26 O 0.4157(8) 0.6550(5) 0.6400(7)
O27 O 0.3335(8) 0.6059(5) 0.7893(6)
O28 O 0.2596(8) 0.6973(6) 0.7297(7)
O29 O 0.3750(8) 0.7938(5) 0.6815(7)
O30 O 0.5357(8) 0.7769(5) 0.6943(6)
O31 O 0.6246(7) 0.6609(4) 0.7650(6)
O32 O 0.5267(7) 0.5870(4) 0.8022(6)
O33 O 0.7077(8) 0.5715(6) 0.8364(7)
O34 O 0.5164(9) 0.5700(7) 0.9904(8)
H1 H 0.5299 0.5356 1.0213
H2 H 0.4949 0.5848 1.0325
O35 O 0.1783(8) -0.1736(5) 0.6525(7)
H3 H 0.2345 -0.1784 0.6393
H4 H 0.1543 -0.2106 0.6623
O36 O 0.7276(8) 0.7757(5) 0.8853(6)
H5 H 0.7824 0.7800 0.9233
H6 H 0.7007 0.8052 0.9102
N1 N 0.6191(10) 0.6077(7) 0.8030(10)
C1 C 0.0391(11) 0.3693(8) 0.5378(9)
C2 C -0.0036(11) 0.4038(8) 0.6035(9)
H7 H 0.0524 0.4231 0.6475
H8 H -0.0462 0.4407 0.5750
C3 C -0.0635(11) 0.3621(7) 0.6469(9)
H9 H -0.0037 0.3402 0.6848
C4 C -0.1001(14) 0.3021(7) 0.5995(11)
H10 H -0.0627 0.2944 0.5552
H11 H -0.1718 0.3069 0.5721
H12 H -0.0904 0.2646 0.6393
C5 C -0.0973(13) 0.3957(9) 0.7225(10)
H13 H -0.1369 0.3645 0.7476
H14 H -0.1384 0.4344 0.7011
H15 H -0.0379 0.4093 0.7665
C6 C 0.2919(10) 0.2222(7) 0.4719(11)
C7 C 0.3693(11) 0.1667(6) 0.4988(10)
H16 H 0.4359 0.1807 0.4910
H17 H 0.3761 0.1549 0.5600
C8 C 0.3300(12) 0.1088(6) 0.4412(11)
H18 H 0.3227 0.1250 0.3809
C9 C 0.2297(13) 0.0735(10) 0.4419(11)
H19 H 0.1762 0.1063 0.4370
H20 H 0.2372 0.0491 0.4959
H21 H 0.2125 0.0428 0.3933
C10 C 0.3897(12) 0.0453(7) 0.4474(11)
H22 H 0.4596 0.0554 0.4475
H23 H 0.3605 0.0171 0.3980
H24 H 0.3874 0.0223 0.5008
C11 C 0.0850(14) 0.3532(10) 0.2462(11)
C12 C 0.0406(13) 0.3681(6) 0.1476(9)
H25 H 0.0961 0.3607 0.1188
H26 H -0.0098 0.3332 0.1263
C13 C -0.0066(14) 0.4303(7) 0.1138(11)
H27 H -0.0760 0.4261 0.1230
C14 C -0.0252(15) 0.4381(8) 0.0184(7)
H28 H -0.0492 0.3962 -0.0096
H29 H 0.0375 0.4508 0.0033
H30 H -0.0760 0.4723 -0.0010
C15 C 0.0318(15) 0.4896(6) 0.1634(9)
H31 H 0.0434 0.4801 0.2250
H32 H -0.0176 0.5252 0.1482
H33 H 0.0951 0.5031 0.1501
C16 C 0.0984(13) 0.0939(8) 0.6189(10)
C17 C 0.0040(8) 0.1080(7) 0.5553(8)
H34 H -0.0292 0.0655 0.5359
H35 H 0.0209 0.1290 0.5046
C18 C -0.0690(9) 0.1504(7) 0.5839(8)
H36 H -0.0356 0.1910 0.6128
C19 C -0.1565(11) 0.1680(9) 0.5110(9)
H37 H -0.1326 0.1936 0.4679
H38 H -0.2050 0.1942 0.5331
H39 H -0.1890 0.1276 0.4845
C20 C -0.1212(10) 0.1126(9) 0.6436(9)
H40 H -0.0711 0.0982 0.6948
H41 H -0.1557 0.0741 0.6133
H42 H -0.1704 0.1415 0.6609
C21 C 0.4245(10) 0.1692(7) 0.7930(10)
C22 C 0.4988(11) 0.2285(8) 0.8143(9)
H43 H 0.4648 0.2645 0.8382
H44 H 0.5573 0.2146 0.8602
C23 C 0.5374(10) 0.2561(6) 0.7409(10)
H45 H 0.4793 0.2756 0.6980
C24 C 0.5800(13) 0.2001(8) 0.6975(11)
H46 H 0.5287 0.1659 0.6799
H47 H 0.6386 0.1814 0.7379
H48 H 0.6002 0.2170 0.6467
C25 C 0.6187(12) 0.3076(8) 0.7632(12)
H49 H 0.5949 0.3446 0.7925
H50 H 0.6354 0.3234 0.7104
H51 H 0.6786 0.2883 0.8013
C26 C 0.3218(15) -0.0514(9) 0.8210(11)
C27 C 0.3440(12) -0.1257(9) 0.8568(8)
H52 H 0.3074 -0.1570 0.8129
H53 H 0.4168 -0.1349 0.8658
C28 C 0.3146(14) -0.1369(8) 0.9365(8)
H54 H 0.2406 -0.1295 0.9275
C29 C 0.3713(14) -0.0894(8) 1.0045(11)
H55 H 0.3583 -0.0440 0.9839
H56 H 0.4435 -0.0985 1.0158
H57 H 0.3486 -0.0951 1.0578
C30 C 0.3418(15) -0.2063(9) 0.9751(12)
H58 H 0.3088 -0.2397 0.9337
H59 H 0.3191 -0.2107 1.0284
H60 H 0.4148 -0.2124 0.9874
C31 C 0.3431(12) 0.4013(8) 0.7242(10)
C32 C 0.3795(11) 0.4228(8) 0.6502(10)
H61 H 0.3591 0.3898 0.6038
H62 H 0.4539 0.4235 0.6669
C33 C 0.3447(13) 0.4870(9) 0.6159(9)
H63 H 0.3796 0.5194 0.6600
C34 C 0.2425(13) 0.4994(9) 0.6053(11)
H64 H 0.2220 0.4867 0.6578
H65 H 0.2041 0.4738 0.5565
H66 H 0.2294 0.5465 0.5943
C35 C 0.3722(14) 0.5071(9) 0.5329(9)
H67 H 0.3232 0.4885 0.4837
H68 H 0.4395 0.4905 0.5330
H69 H 0.3717 0.5553 0.5284
C36 C 0.1174(12) 0.2631(7) 0.8544(10)
C37 C 0.0438(10) 0.2130(7) 0.8385(9)
H70 H -0.0078 0.2240 0.7856
H71 H 0.0758 0.1709 0.8281
C38 C -0.0028(11) 0.2045(7) 0.9062(14)
H72 H 0.0404 0.2174 0.9635
C39 C -0.0670(12) 0.1445(8) 0.9097(12)
H73 H -0.1173 0.1551 0.9423
H74 H -0.0245 0.1083 0.9381
H75 H -0.1011 0.1313 0.8511
C40 C -0.0817(13) 0.2551(9) 0.8685(13)
H76 H -0.0492 0.2975 0.8637
H77 H -0.1283 0.2600 0.9061
H78 H -0.1188 0.2407 0.8113
C41 C 0.3104(14) 0.4522(9) 1.0171(9)
C42 C 0.3686(11) 0.4719(7) 1.1072(9)
H79 H 0.3790 0.4342 1.1478
H80 H 0.4340 0.4926 1.1071
C43 C 0.2958(13) 0.5196(8) 1.1254(7)
H81 H 0.2322 0.4934 1.1155
C44 C 0.2723(13) 0.5713(7) 1.0540(10)
H82 H 0.2677 0.6148 1.0794
H83 H 0.2082 0.5606 1.0140
H84 H 0.3259 0.5716 1.0230
C45 C 0.3314(15) 0.5226(11) 1.2280(8)
H85 H 0.3411 0.4777 1.2511
H86 H 0.2801 0.5450 1.2511
H87 H 0.3949 0.5469 1.2447
C46 C 0.2601(9) 0.6389(9) 0.7597(12)
C47 C 0.1519(10) 0.6144(7) 0.7510(11)
H88 H 0.1206 0.6087 0.6889
H89 H 0.1555 0.5703 0.7780
C48 C 0.0869(10) 0.6539(8) 0.7867(11)
H90 H 0.0580 0.6817 0.7351
C49 C -0.0067(11) 0.6222(9) 0.7964(13)
H91 H -0.0254 0.5870 0.7536
H92 H -0.0607 0.6550 0.7877
H93 H 0.0038 0.6034 0.8544
C50 C 0.1355(16) 0.7075(8) 0.8470(11)
H94 H 0.1994 0.7199 0.8340
H95 H 0.1478 0.6916 0.9064
H96 H 0.0910 0.7459 0.8398
C51 C 0.4567(13) 0.8118(6) 0.6718(10)
C52 C 0.4711(12) 0.8796(6) 0.6367(7)
H97 H 0.4287 0.9114 0.6592
H98 H 0.5420 0.8930 0.6590
C53 C 0.4465(9) 0.8845(8) 0.5428(8)
H99 H 0.4632 0.9283 0.5209
C54 C 0.4813(11) 0.8253(9) 0.4970(12)
H100 H 0.5525 0.8305 0.4972
H101 H 0.4413 0.8231 0.4374
H102 H 0.4721 0.7845 0.5272
C55 C 0.3386(9) 0.8765(10) 0.5422(12)
H103 H 0.3251 0.8303 0.5533
H104 H 0.2972 0.8897 0.4859
H105 H 0.3222 0.9043 0.5872
Na2A Na 0.2902(4) 0.2556(3) 0.2565(4)
Na4A Na -0.1041(4) 0.4231(3) 0.3400(4)
O3A O -0.0177(7) -0.1097(4) 0.5334(6)
O6A O 0.7437(7) 0.7357(5) 0.6109(6)
O7A O 0.8449(7) 0.8170(5) 0.7288(6)
O8A O -0.0300(8) -0.1225(6) 0.7070(7)
loop_
_geom_bond_atom_site_label_1
_geom_bond_atom_site_label_2
_geom_bond_site_symmetry_1
_geom_bond_site_symmetry_2
U1 O1 1_555 1_555
U2 O9 1_555 1_555
U3 O17 1_555 1_555
U4 O25 1_555 1_555
Na1 O4 1_555 1_555
Na2 O30 1_555 1_555
Na3 O19 1_555 1_555
Na4 O11 1_555 1_555
O2 U1 1_555 1_555
O3 U1 1_555 1_555
O4 U1 1_555 1_555
O5 U1 1_555 1_555
O6 U1 1_555 1_555
O7 U1 1_555 1_555
O8 U1 1_555 1_555
O10 U2 1_555 1_555
O11 U2 1_555 1_555
O12 U2 1_555 1_555
O13 U2 1_555 1_555
O14 U2 1_555 1_555
O15 U2 1_555 1_555
O16 U2 1_555 1_555
O18 U3 1_555 1_555
O19 U3 1_555 1_555
O20 U3 1_555 1_555
O21 U3 1_555 1_555
O22 U3 1_555 1_555
O23 U3 1_555 1_555
O24 U3 1_555 1_555
O26 U4 1_555 1_555
O27 U4 1_555 1_555
O28 U4 1_555 1_555
O29 U4 1_555 1_555
O30 U4 1_555 1_555
O31 U4 1_555 1_555
O32 U4 1_555 1_555
O33 N1 1_555 1_555
O34 Na3 1_555 1_555
H1 O34 1_555 1_555
H2 O34 1_555 1_555
O35 Na4 1_555 1_555
H3 O35 1_555 1_555
H4 O35 1_555 1_555
O36 Na2 1_555 1_555
H5 O36 1_555 1_555
H6 O36 1_555 1_555
N1 O31 1_555 1_555
C1 O3 1_555 1_555
C2 C1 1_555 1_555
H7 C2 1_555 1_555
H8 C2 1_555 1_555
C3 C2 1_555 1_555
H9 C3 1_555 1_555
C4 C3 1_555 1_555
H10 C4 1_555 1_555
H11 C4 1_555 1_555
H12 C4 1_555 1_555
C5 C3 1_555 1_555
H13 C5 1_555 1_555
H14 C5 1_555 1_555
H15 C5 1_555 1_555
C6 O5 1_555 1_555
C7 C6 1_555 1_555
H16 C7 1_555 1_555
H17 C7 1_555 1_555
C8 C7 1_555 1_555
H18 C8 1_555 1_555
C9 C8 1_555 1_555
H19 C9 1_555 1_555
H20 C9 1_555 1_555
H21 C9 1_555 1_555
C10 C8 1_555 1_555
H22 C10 1_555 1_555
H23 C10 1_555 1_555
H24 C10 1_555 1_555
C11 O7 1_555 1_555
C12 C11 1_555 1_555
H25 C12 1_555 1_555
H26 C12 1_555 1_555
C13 C12 1_555 1_555
H27 C13 1_555 1_555
C14 C13 1_555 1_555
H28 C14 1_555 1_555
H29 C14 1_555 1_555
H30 C14 1_555 1_555
C15 C13 1_555 1_555
H31 C15 1_555 1_555
H32 C15 1_555 1_555
H33 C15 1_555 1_555
C16 O11 1_555 1_555
C17 C16 1_555 1_555
H34 C17 1_555 1_555
H35 C17 1_555 1_555
C18 C17 1_555 1_555
H36 C18 1_555 1_555
C19 C18 1_555 1_555
H37 C19 1_555 1_555
H38 C19 1_555 1_555
H39 C19 1_555 1_555
C20 C18 1_555 1_555
H40 C20 1_555 1_555
H41 C20 1_555 1_555
H42 C20 1_555 1_555
C21 O13 1_555 1_555
C22 C21 1_555 1_555
H43 C22 1_555 1_555
H44 C22 1_555 1_555
C23 C22 1_555 1_555
H45 C23 1_555 1_555
C24 C23 1_555 1_555
H46 C24 1_555 1_555
H47 C24 1_555 1_555
H48 C24 1_555 1_555
C25 C23 1_555 1_555
H49 C25 1_555 1_555
H50 C25 1_555 1_555
H51 C25 1_555 1_555
C26 O15 1_555 1_555
C27 C26 1_555 1_555
H52 C27 1_555 1_555
H53 C27 1_555 1_555
C28 C27 1_555 1_555
H54 C28 1_555 1_555
C29 C28 1_555 1_555
H55 C29 1_555 1_555
H56 C29 1_555 1_555
H57 C29 1_555 1_555
C30 C28 1_555 1_555
H58 C30 1_555 1_555
H59 C30 1_555 1_555
H60 C30 1_555 1_555
C31 O19 1_555 1_555
C32 C31 1_555 1_555
H61 C32 1_555 1_555
H62 C32 1_555 1_555
C33 C32 1_555 1_555
H63 C33 1_555 1_555
C34 C33 1_555 1_555
H64 C34 1_555 1_555
H65 C34 1_555 1_555
H66 C34 1_555 1_555
C35 C33 1_555 1_555
H67 C35 1_555 1_555
H68 C35 1_555 1_555
H69 C35 1_555 1_555
C36 O21 1_555 1_555
C37 C36 1_555 1_555
H70 C37 1_555 1_555
H71 C37 1_555 1_555
C38 C37 1_555 1_555
H72 C38 1_555 1_555
C39 C38 1_555 1_555
H73 C39 1_555 1_555
H74 C39 1_555 1_555
H75 C39 1_555 1_555
C40 C38 1_555 1_555
H76 C40 1_555 1_555
H77 C40 1_555 1_555
H78 C40 1_555 1_555
C41 O23 1_555 1_555
C42 C41 1_555 1_555
H79 C42 1_555 1_555
H80 C42 1_555 1_555
C43 C42 1_555 1_555
H81 C43 1_555 1_555
C44 C43 1_555 1_555
H82 C44 1_555 1_555
H83 C44 1_555 1_555
H84 C44 1_555 1_555
C45 C43 1_555 1_555
H85 C45 1_555 1_555
H86 C45 1_555 1_555
H87 C45 1_555 1_555
C46 O27 1_555 1_555
C47 C46 1_555 1_555
H88 C47 1_555 1_555
H89 C47 1_555 1_555
C48 C47 1_555 1_555
H90 C48 1_555 1_555
C49 C48 1_555 1_555
H91 C49 1_555 1_555
H92 C49 1_555 1_555
H93 C49 1_555 1_555
C50 C48 1_555 1_555
H94 C50 1_555 1_555
H95 C50 1_555 1_555
H96 C50 1_555 1_555
C51 O29 1_555 1_555
C52 C51 1_555 1_555
H97 C52 1_555 1_555
H98 C52 1_555 1_555
C53 C52 1_555 1_555
H99 C53 1_555 1_555
C54 C53 1_555 1_555
H100 C54 1_555 1_555
H101 C54 1_555 1_555
H102 C54 1_555 1_555
C55 C53 1_555 1_555
H103 C55 1_555 1_555
H104 C55 1_555 1_555
H105 C55 1_555 1_555
Na2A O6 1_555 1_555
Na4A O3 1_555 1_555
O3A Na4 1_555 1_555
O6A Na2 1_555 1_555
O7A Na2 1_555 1_555
O8A Na4 1_555 1_555
Na1 O5 1_555 1_555
Na1 O12 1_555 1_555
Na1 O13 1_555 1_555
Na1 O20 1_555 1_555
Na1 O21 1_555 1_555
Na2 O31 1_555 1_555
Na3 O24 1_555 1_555
Na3 O27 1_555 1_555
Na3 O32 1_555 1_555
Na4 O16 1_555 1_555
O4 C1 1_555 1_555
O6 C6 1_555 1_555
O7 Na2A 1_555 1_555
O8 C11 1_555 1_555
O8 Na4A 1_555 1_555
O12 C16 1_555 1_555
O14 C21 1_555 1_555
O16 C26 1_555 1_555
O20 C31 1_555 1_555
O22 C36 1_555 1_555
O24 C41 1_555 1_555
O28 C46 1_555 1_555
O30 C51 1_555 1_555
O32 N1 1_555 1_555

#END
