
#######################################################################
#
#                 Cambridge Crystallographic Data Centre
#                                CCDC 
#
#######################################################################
#
# If this CIF has been generated from an entry in the Cambridge 
# Structural Database, then it will include bibliographic, chemical, 
# crystal, experimental, refinement or atomic coordinate data resulting 
# from the CCDC's data processing and validation procedures.
#
#######################################################################

data_NODQUU
_symmetry_cell_setting           triclinic
_symmetry_space_group_name_H-M   'P -1'
_symmetry_Int_Tables_number      2
_space_group_name_Hall           '-P 1'
loop_
_symmetry_equiv_pos_site_id
_symmetry_equiv_pos_as_xyz
1 x,y,z
2 -x,-y,-z
_cell_length_a                   8.3320(6)
_cell_length_b                   11.1330(7)
_cell_length_c                   12.6260(11)
_cell_angle_alpha                84.930(6)
_cell_angle_beta                 83.786(5)
_cell_angle_gamma                79.93(15)
_cell_volume                     1143.48
loop_
_atom_site_label
_atom_site_type_symbol
_atom_site_fract_x
_atom_site_fract_y
_atom_site_fract_z
Cd1 Cd -1.01485(2) 1.355647(18) -0.03629(2)
Cd2 Cd 0.40208(2) 0.456633(17) -0.110601(19)
C1 C -0.5951(3) 1.0568(2) -0.1253(2)
C2 C -0.6625(3) 0.9597(2) -0.0767(2)
H1 H -0.7671 0.9730 -0.0411
C3 C -0.5747(3) 0.8411(2) -0.0803(2)
C4 C -0.4206(3) 0.8220(2) -0.1353(2)
H2 H -0.3619 0.7431 -0.1386
C5 C -0.3533(3) 0.9197(2) -0.1854(2)
C6 C -0.4392(3) 1.0378(2) -0.1807(2)
H3 H -0.3937 1.1036 -0.2139
C7 C -0.6865(3) 1.1856(2) -0.1172(3)
C8 C -0.6483(3) 0.7358(2) -0.0260(3)
C9 C -0.1390(4) 0.9809(3) -0.3129(3)
H4 H -0.1295 1.0528 -0.2776
H5 H -0.2118 1.0051 -0.3688
C10 C 0.0257(3) 0.9203(3) -0.3585(3)
C11 C 0.0390(4) 0.8345(3) -0.4316(3)
H6 H -0.0547 0.8200 -0.4587
C12 C 0.1903(4) 0.7688(3) -0.4661(3)
H7 H 0.1971 0.7112 -0.5160
C13 C 0.3305(3) 0.7887(3) -0.4265(3)
C14 C 0.3158(4) 0.8784(4) -0.3565(3)
H8 H 0.4096 0.8957 -0.3314
C15 C 0.1646(4) 0.9438(3) -0.3222(3)
H9 H 0.1579 1.0037 -0.2743
C16 C 0.4939(3) 0.7178(3) -0.4626(3)
C17 C 0.5764(3) 0.6188(3) -0.4028(3)
C18 C 0.7276(4) 0.5607(3) -0.4448(3)
H10 H 0.7825 0.4943 -0.4057
C19 C 0.7992(4) 0.5985(4) -0.5432(3)
H11 H 0.9008 0.5578 -0.5697
C20 C 0.7204(4) 0.6951(4) -0.6008(3)
H12 H 0.7680 0.7212 -0.6670
C21 C 0.5700(4) 0.7543(4) -0.5612(3)
H13 H 0.5174 0.8208 -0.6013
C22 C 0.5079(3) 0.5681(3) -0.2966(3)
O1 O -0.8313(2) 1.19676(17) -0.0756(2)
O2 O -0.6103(2) 1.26983(16) -0.15346(18)
O3 O -0.7920(2) 0.75757(18) 0.0147(2)
O4 O -0.5602(2) 0.63008(16) -0.02488(17)
O5 O -0.1994(2) 0.89117(17) -0.23787(19)
O6 O 0.3580(2) 0.58878(19) -0.26613(18)
O7 O 0.6060(2) 0.49834(19) -0.23825(19)
O8 O -0.8246(2) 1.46544(18) -0.0038(2)
H14 H -1.110(8) 1.289(9) 0.172(6)
H15 H -1.030(7) 1.359(5) 0.233(3)
H16 H -0.781(5) 1.439(4) 0.050(2)
O9 O -1.0295(3) 1.3258(3) 0.1740(3)
O10 O -1.0600(3) 1.4383(2) -0.2131(2)
H17 H -1.1620(18) 1.462(3) -0.220(3)
H18 H -1.023(4) 1.3680(13) -0.2347(9)
Cd1A Cd -0.98515(2) 0.644353(18) 0.03629(2)
Cd1A_2 Cd -0.98515(2) 1.644353(18) 0.03629(2)
Cd2_2 Cd -0.59792(2) 0.456633(17) -0.110601(19)
Cd2_3 Cd -0.59792(2) 1.456633(17) -0.110601(19)
Cd2A Cd -0.40208(2) 0.543367(17) 0.110601(19)
O2_2 O 0.3897(2) 0.26983(16) -0.15346(18)
O3A O -1.2080(2) 1.24243(18) -0.0147(2)
O4_2 O 0.4398(2) 0.63008(16) -0.02488(17)
O4A O 0.5602(2) 0.36992(16) 0.02488(17)
O8_2 O 0.1754(2) 0.46544(18) -0.0038(2)
O8A O -1.1754(2) 1.53456(18) 0.0038(2)
loop_
_geom_bond_atom_site_label_1
_geom_bond_atom_site_label_2
_geom_bond_site_symmetry_1
_geom_bond_site_symmetry_2
Cd1 O1 1_555 1_555
Cd2 O6 1_555 1_555
C1 C2 1_555 1_555
C2 H1 1_555 1_555
C3 C2 1_555 1_555
C4 C3 1_555 1_555
H2 C4 1_555 1_555
C5 C4 1_555 1_555
C6 C1 1_555 1_555
H3 C6 1_555 1_555
C7 C1 1_555 1_555
C8 C3 1_555 1_555
C9 H4 1_555 1_555
H5 C9 1_555 1_555
C10 C9 1_555 1_555
C11 C10 1_555 1_555
H6 C11 1_555 1_555
C12 C11 1_555 1_555
H7 C12 1_555 1_555
C13 C12 1_555 1_555
C14 C13 1_555 1_555
H8 C14 1_555 1_555
C15 C10 1_555 1_555
H9 C15 1_555 1_555
C16 C13 1_555 1_555
C17 C16 1_555 1_555
C18 C17 1_555 1_555
H10 C18 1_555 1_555
C19 C18 1_555 1_555
H11 C19 1_555 1_555
C20 C19 1_555 1_555
H12 C20 1_555 1_555
C21 C16 1_555 1_555
H13 C21 1_555 1_555
C22 C17 1_555 1_555
O1 C7 1_555 1_555
O2 C7 1_555 1_555
O3 C8 1_555 1_555
O4 C8 1_555 1_555
O5 C5 1_555 1_555
O6 C22 1_555 1_555
O7 Cd2 1_555 1_555
O8 Cd1 1_555 1_555
H14 O9 1_555 1_555
H15 O9 1_555 1_555
H16 O8 1_555 1_555
O9 Cd1 1_555 1_555
O10 Cd1 1_555 1_555
H17 O10 1_555 1_555
H18 O10 1_555 1_555
Cd1A O3 1_555 1_555
Cd1A_2 O8 1_555 1_555
Cd2_2 O4 1_555 1_555
Cd2_3 O2 1_555 1_555
Cd2A O4 1_555 1_555
O2_2 Cd2 1_555 1_555
O3A Cd1 1_555 1_555
O4_2 Cd2 1_555 1_555
O4A Cd2 1_555 1_555
O8_2 Cd2 1_555 1_555
O8A Cd1 1_555 1_555
C5 C6 1_555 1_555
C9 O5 1_555 1_555
C14 C15 1_555 1_555
C20 C21 1_555 1_555
C22 O7 1_555 1_555
O8 Cd2_3 1_555 1_555
Cd1A_2 O8A 1_555 1_555

#END
