
#######################################################################
#
#                 Cambridge Crystallographic Data Centre
#                                CCDC 
#
#######################################################################
#
# If this CIF has been generated from an entry in the Cambridge 
# Structural Database, then it will include bibliographic, chemical, 
# crystal, experimental, refinement or atomic coordinate data resulting 
# from the CCDC's data processing and validation procedures.
#
#######################################################################

data_NODQOO
_symmetry_cell_setting           triclinic
_symmetry_space_group_name_H-M   'P -1'
_symmetry_Int_Tables_number      2
_space_group_name_Hall           '-P 1'
loop_
_symmetry_equiv_pos_site_id
_symmetry_equiv_pos_as_xyz
1 x,y,z
2 -x,-y,-z
_cell_length_a                   7.9250(9)
_cell_length_b                   10.8590(13)
_cell_length_c                   12.7620(14)
_cell_angle_alpha                81.354(9)
_cell_angle_beta                 84.687(10)
_cell_angle_gamma                81.309(10)
_cell_volume                     1070.57
loop_
_atom_site_label
_atom_site_type_symbol
_atom_site_fract_x
_atom_site_fract_y
_atom_site_fract_z
Co1 Co -0.51249(6) -0.13690(5) 0.47731(4)
Co2 Co -0.89895(6) 0.03366(5) 0.59718(4)
C1 C -0.1066(4) -0.4234(3) 0.3808(3)
C2 C -0.1748(4) -0.5306(3) 0.4278(3)
H1 H -0.2825 -0.5234 0.4639
C3 C -0.0817(4) -0.6492(4) 0.4209(3)
C4 C 0.0778(4) -0.6597(4) 0.3658(3)
H2 H 0.1393 -0.7387 0.3599
C5 C 0.1456(5) -0.5517(4) 0.3194(3)
C6 C 0.0552(4) -0.4346(4) 0.3267(3)
H3 H 0.1016 -0.3629 0.2958
C7 C -0.1972(4) -0.2934(4) 0.3952(3)
C8 C -0.1471(4) -0.7672(4) 0.4731(3)
C9 C 0.3712(5) -0.4831(5) 0.1930(4)
H4 H 0.3961 -0.4123 0.2242
H5 H 0.2891 -0.4527 0.1398
C10 C 0.5316(5) -0.5521(4) 0.1453(3)
C11 C 0.5215(5) -0.6493(5) 0.0878(4)
H6 H 0.4151 -0.6639 0.0713
C12 C 0.6670(5) -0.7244(5) 0.0547(4)
H7 H 0.6582 -0.7887 0.0157
C13 C 0.8268(5) -0.7043(4) 0.0797(3)
C14 C 0.8370(5) -0.6058(5) 0.1330(4)
H8 H 0.9438 -0.5897 0.1473
C15 C 0.6906(6) -0.5291(5) 0.1662(4)
H9 H 0.7003 -0.4625 0.2024
C16 C 0.9847(5) -0.7869(4) 0.0450(3)
C17 C 1.0586(6) -0.7589(5) -0.0566(4)
H10 H 1.0072 -0.6900 -0.1007
C18 C 1.2044(6) -0.8280(6) -0.0956(4)
H11 H 1.2496 -0.8059 -0.1646
C19 C 1.2825(6) -0.9294(5) -0.0324(3)
H12 H 1.3812 -0.9768 -0.0579
C20 C 1.2135(5) -0.9609(4) 0.0699(3)
H13 H 1.2677 -1.0295 0.1128
C21 C 1.0652(5) -0.8927(4) 0.1103(3)
C22 C 0.9982(5) -0.9372(4) 0.2216(3)
O1 O -0.3404(3) -0.2872(3) 0.4484(2)
O2 O -0.1240(3) -0.2005(2) 0.35500(19)
O3 O -0.2950(3) -0.7564(3) 0.5185(2)
O4 O -0.0494(3) -0.8723(2) 0.46806(19)
O5 O 0.3081(3) -0.5751(3) 0.2722(2)
O6 O 0.8418(3) -0.9147(3) 0.2519(2)
O7 O 1.1023(3) -1.0023(3) 0.2845(2)
O8 O -0.6755(3) 0.0268(2) 0.5049(2)
H14 H -0.712(5) 0.062(4) 0.450(3)
O9 O -0.5168(4) -0.1903(3) 0.6555(3)
H15 H -0.465(7) -0.252(5) 0.677(4)
H16 H -0.607(7) -0.173(5) 0.680(4)
O10 O -0.5398(4) -0.0732(3) 0.3070(3)
H17 H -0.477(7) -0.034(6) 0.290(5)
H18 H -0.645(7) -0.051(5) 0.298(4)
Co1A Co -0.48751(6) -0.86310(5) 0.52269(4)
Co1A_2 Co -0.48751(6) 0.13690(5) 0.52269(4)
Co2_2 Co 0.10105(6) -0.96634(5) 0.59718(4)
Co2A Co -0.10105(6) -1.03366(5) 0.40282(4)
Co2A_2 Co -0.10105(6) -0.03366(5) 0.40282(4)
Co2A_3 Co 0.89895(6) -1.03366(5) 0.40282(4)
O2A O -0.8760(3) 0.2005(2) 0.64500(19)
O3A O -0.7050(3) -0.2436(3) 0.4815(2)
O4_2 O -1.0494(3) 0.1277(2) 0.46806(19)
O4A O -0.9506(3) -0.1277(2) 0.53194(19)
O6A O -0.8418(3) -0.0853(3) 0.7481(2)
O7A O -1.1023(3) 0.0023(3) 0.7155(2)
O8A O -0.3245(3) -0.0268(2) 0.4951(2)
loop_
_geom_bond_atom_site_label_1
_geom_bond_atom_site_label_2
_geom_bond_site_symmetry_1
_geom_bond_site_symmetry_2
Co1 O1 1_555 1_555
Co2 O8 1_555 1_555
C1 C2 1_555 1_555
C2 H1 1_555 1_555
C3 C2 1_555 1_555
C4 C3 1_555 1_555
H2 C4 1_555 1_555
C5 C4 1_555 1_555
C6 C1 1_555 1_555
H3 C6 1_555 1_555
C7 C1 1_555 1_555
C8 C3 1_555 1_555
C9 H4 1_555 1_555
H5 C9 1_555 1_555
C10 C9 1_555 1_555
C11 C10 1_555 1_555
H6 C11 1_555 1_555
C12 C11 1_555 1_555
H7 C12 1_555 1_555
C13 C12 1_555 1_555
C14 C13 1_555 1_555
H8 C14 1_555 1_555
C15 C10 1_555 1_555
H9 C15 1_555 1_555
C16 C13 1_555 1_555
C17 C16 1_555 1_555
H10 C17 1_555 1_555
C18 C17 1_555 1_555
H11 C18 1_555 1_555
C19 C18 1_555 1_555
H12 C19 1_555 1_555
C20 C19 1_555 1_555
H13 C20 1_555 1_555
C21 C16 1_555 1_555
C22 C21 1_555 1_555
O1 C7 1_555 1_555
O2 C7 1_555 1_555
O3 C8 1_555 1_555
O4 C8 1_555 1_555
O5 C5 1_555 1_555
O6 C22 1_555 1_555
O7 C22 1_555 1_555
O8 Co1 1_555 1_555
H14 O8 1_555 1_555
O9 Co1 1_555 1_555
H15 O9 1_555 1_555
H16 O9 1_555 1_555
O10 Co1 1_555 1_555
H17 O10 1_555 1_555
H18 O10 1_555 1_555
Co1A O3 1_555 1_555
Co1A_2 O8 1_555 1_555
Co2_2 O4 1_555 1_555
Co2A O4 1_555 1_555
Co2A_2 O2 1_555 1_555
Co2A_3 O6 1_555 1_555
O2A Co2 1_555 1_555
O3A Co1 1_555 1_555
O4_2 Co2 1_555 1_555
O4A Co2 1_555 1_555
O6A Co2 1_555 1_555
O7A Co2 1_555 1_555
O8A Co1 1_555 1_555
C5 C6 1_555 1_555
C9 O5 1_555 1_555
C14 C15 1_555 1_555
C20 C21 1_555 1_555
O7 Co2A_3 1_555 1_555
Co1A_2 O8A 1_555 1_555
Co2A_2 O8A 1_555 1_555

#END
