
#######################################################################
#
#                 Cambridge Crystallographic Data Centre
#                                CCDC 
#
#######################################################################
#
# If this CIF has been generated from an entry in the Cambridge 
# Structural Database, then it will include bibliographic, chemical, 
# crystal, experimental, refinement or atomic coordinate data resulting 
# from the CCDC's data processing and validation procedures.
#
#######################################################################

data_NODRAB
_symmetry_cell_setting           triclinic
_symmetry_space_group_name_H-M   'P -1'
_symmetry_Int_Tables_number      2
_space_group_name_Hall           '-P 1'
loop_
_symmetry_equiv_pos_site_id
_symmetry_equiv_pos_as_xyz
1 x,y,z
2 -x,-y,-z
_cell_length_a                   10.3890(2)
_cell_length_b                   14.5440(4)
_cell_length_c                   16.1150(3)
_cell_angle_alpha                97.406(2)
_cell_angle_beta                 104.741(2)
_cell_angle_gamma                92.239(2)
_cell_volume                     2328.58
loop_
_atom_site_label
_atom_site_type_symbol
_atom_site_fract_x
_atom_site_fract_y
_atom_site_fract_z
Cd1 Cd 0.84583(4) 0.92734(3) 0.95315(3)
Cd2 Cd 0.52818(4) 0.75358(3) 0.95225(3)
Cd3 Cd 0.79005(5) 0.94852(4) 1.16686(4)
Cd4 Cd 0.5000 1.0000 1.0000
Cd5 Cd 0.29306(4) 0.81779(4) 0.79418(3)
C1 C 0.8566(5) 0.3222(4) 1.0053(4)
C2 C 0.9838(5) 0.2917(4) 1.0269(4)
H1 H 1.0058 0.2518 1.0683
C3 C 1.0775(5) 0.3207(4) 0.9870(4)
C4 C 1.0465(5) 0.3818(4) 0.9267(4)
H2 H 1.1104 0.4009 0.9001
C5 C 0.9212(5) 0.4141(4) 0.9061(4)
C6 C 0.8268(5) 0.3829(4) 0.9458(4)
H3 H 0.7414 0.4037 0.9317
C7 C 0.7490(6) 0.2841(5) 1.0424(5)
C8 C 1.2151(5) 0.2850(4) 1.0052(4)
C9 C 0.9722(6) 0.5067(4) 0.8051(4)
H4 H 0.9920 0.4566 0.7654
H5 H 1.0546 0.5300 0.8479
C10 C 0.9146(6) 0.5834(4) 0.7561(4)
C11 C 0.9821(6) 0.6182(5) 0.7013(5)
H6 H 1.0581 0.5909 0.6928
C12 C 0.9384(6) 0.6922(5) 0.6594(4)
H7 H 0.9836 0.7134 0.6217
C13 C 0.8273(6) 0.7356(4) 0.6730(4)
C14 C 0.7586(6) 0.6987(4) 0.7243(4)
H8 H 0.6810 0.7248 0.7312
C15 C 0.8007(5) 0.6236(4) 0.7666(4)
H9 H 0.7524 0.6005 0.8017
C16 C 0.7804(6) 0.8188(4) 0.6314(4)
C17 C 0.7601(7) 0.8199(6) 0.5424(5)
H10 H 0.7809 0.7688 0.5086
C18 C 0.7102(8) 0.8947(6) 0.5031(5)
H11 H 0.6988 0.8946 0.4439
C19 C 0.6777(7) 0.9694(6) 0.5534(5)
H12 H 0.6448 1.0204 0.5278
C20 C 0.6926(6) 0.9703(5) 0.6400(5)
H13 H 0.6657 1.0201 0.6723
C21 C 0.7480(5) 0.8971(4) 0.6799(4)
C22 C 0.7755(6) 0.9054(4) 0.7767(4)
C23 C 1.4120(5) 0.8344(4) 1.1818(4)
C24 C 1.2918(5) 0.8630(4) 1.1361(4)
H14 H 1.2886 0.8930 1.0881
C25 C 1.1775(5) 0.8472(4) 1.1618(4)
C26 C 1.1806(5) 0.7983(4) 1.2290(4)
H15 H 1.1022 0.7857 1.2446
C27 C 1.3002(5) 0.7668(4) 1.2748(4)
C28 C 1.4169(5) 0.7877(4) 1.2515(4)
H16 H 1.4981 0.7701 1.2829
C29 C 1.5390(5) 0.8614(4) 1.1588(4)
C30 C 1.0467(5) 0.8813(4) 1.1150(4)
C31 C 1.4034(7) 0.6707(6) 1.3775(5)
H17 H 1.4827 0.7131 1.3999
H18 H 1.4196 0.6241 1.3333
C32 C 1.3727(6) 0.6249(5) 1.4495(5)
C33 C 1.2520(7) 0.5800(6) 1.4422(5)
H19 H 1.1844 0.5788 1.3915
C34 C 1.2273(7) 0.5354(5) 1.5092(5)
H20 H 1.1439 0.5053 1.5026
C35 C 1.3253(6) 0.5359(4) 1.5845(4)
C36 C 1.4476(6) 0.5820(5) 1.5905(5)
H21 H 1.5160 0.5838 1.6409
C37 C 1.4703(7) 0.6248(5) 1.5243(5)
H22 H 1.5539 0.6543 1.5304
C38 C 1.3081(6) 0.4850(5) 1.6561(4)
C39 C 1.2592(7) 0.3933(5) 1.6370(5)
H23 H 1.2278 0.3665 1.5793
C40 C 1.2559(8) 0.3397(6) 1.7021(6)
H24 H 1.2207 0.2782 1.6879
C41 C 1.3041(8) 0.3776(7) 1.7859(6)
H25 H 1.3048 0.3416 1.8296
C42 C 1.3523(7) 0.4694(6) 1.8069(5)
H26 H 1.3856 0.4949 1.8648
C43 C 1.3517(6) 0.5247(5) 1.7425(4)
C44 C 1.3845(7) 0.6273(5) 1.7703(5)
C45 C 0.3736(13) 0.8492(10) 0.6161(9)
H27 H 0.3899 0.7844 0.6111
H28 H 0.4293 0.8814 0.5883
H29 H 0.2815 0.8559 0.5889
O1 O 0.6830(4) 0.9231(3) 0.8121(3)
O2 O 0.8926(4) 0.8981(3) 0.8221(3)
O3 O 1.3036(4) 0.3249(3) 0.9804(3)
O4 O 1.2395(3) 0.2168(3) 1.0469(3)
O5 O 0.7754(4) 0.2195(3) 1.0874(3)
O6 O 0.6393(4) 0.3188(3) 1.0214(3)
O7 O 0.8793(4) 0.4731(3) 0.8464(3)
O8 O 1.0452(3) 0.9236(3) 1.0507(3)
O9 O 0.9479(4) 0.8651(3) 1.1427(3)
O10 O 1.5316(4) 0.8744(3) 1.0806(3)
O11 O 1.6456(4) 0.8722(3) 1.2167(3)
O12 O 1.2951(4) 0.6777(3) 1.7356(3)
O13 O 1.4912(4) 0.6563(4) 1.8250(3)
O14 O 1.2936(4) 0.7198(4) 1.3416(3)
O15 O 0.4023(7) 0.8861(6) 0.7025(6)
O16 O 0.7302(4) 1.0021(3) 1.0359(3)
H30 H 0.769(5) 1.0533(16) 1.0538(16)
O17 O 0.4800(4) 0.8830(3) 0.8923(3)
H31 H 0.518(6) 0.885(5) 0.860(4)
O18 O 0.8565(4) 1.0865(3) 1.2328(3)
H32 H 0.930(3) 1.0983(17) 1.222(3)
H33 H 0.856(5) 1.0840(15) 1.2850(10)
Cd1A Cd 0.15417(4) 0.07266(3) 1.04685(3)
Cd2A Cd 0.47182(4) 0.24642(3) 1.04775(3)
Cd3A Cd 0.20995(5) 0.05148(4) 0.83314(4)
Cd5A Cd 0.70694(4) 0.18221(4) 1.20582(3)
C1A C 0.1434(5) 0.6778(4) 0.9947(4)
C2A C 0.0162(5) 0.7083(4) 0.9731(4)
H1A H -0.0058 0.7482 0.9317
C3A C -0.0775(5) 0.6793(4) 1.0130(4)
C4A C -0.0465(5) 0.6182(4) 1.0733(4)
H2A H -0.1104 0.5991 1.0999
C5A C 0.0788(5) 0.5859(4) 1.0939(4)
C6A C 0.1732(5) 0.6171(4) 1.0542(4)
H3A H 0.2586 0.5963 1.0683
C7A C 0.2510(6) 0.7159(5) 0.9576(5)
C8A C -0.2151(5) 0.7150(4) 0.9948(4)
C9A C 0.0278(6) 0.4933(4) 1.1949(4)
H4A H 0.0080 0.5434 1.2346
H5A H -0.0546 0.4700 1.1521
C10A C 0.0854(6) 0.4166(4) 1.2439(4)
C11A C 0.0179(6) 0.3818(5) 1.2987(5)
H6A H -0.0581 0.4091 1.3072
C12A C 0.0616(6) 0.3078(5) 1.3406(4)
H7A H 0.0164 0.2866 1.3783
C13A C 0.1727(6) 0.2644(4) 1.3270(4)
C14A C 0.2414(6) 0.3013(4) 1.2757(4)
H8A H 0.3190 0.2752 1.2688
C15A C 0.1993(5) 0.3764(4) 1.2334(4)
H9A H 0.2476 0.3995 1.1983
C16A C 0.2196(6) 0.1812(4) 1.3686(4)
C17A C 0.2399(7) 0.1801(6) 1.4576(5)
H10A H 0.2191 0.2312 1.4914
C18A C 0.2898(8) 0.1053(6) 1.4969(5)
H11A H 0.3012 0.1054 1.5561
C19A C 0.3223(7) 0.0306(6) 1.4466(5)
H12A H 0.3552 -0.0204 1.4722
C20A C 0.3074(6) 0.0297(5) 1.3600(5)
H13A H 0.3343 -0.0201 1.3277
C21A C 0.2520(5) 0.1029(4) 1.3201(4)
C22A C 0.2245(6) 0.0946(4) 1.2233(4)
C23A C -0.4120(5) 0.1656(4) 0.8182(4)
C24A C -0.2918(5) 0.1370(4) 0.8639(4)
H14A H -0.2886 0.1070 0.9119
C25A C -0.1775(5) 0.1528(4) 0.8382(4)
C26A C -0.1806(5) 0.2017(4) 0.7710(4)
H15A H -0.1022 0.2143 0.7554
C27A C -0.3002(5) 0.2332(4) 0.7252(4)
C28A C -0.4169(5) 0.2123(4) 0.7485(4)
H16A H -0.4981 0.2299 0.7171
C29A C -0.5390(5) 0.1386(4) 0.8412(4)
C30A C -0.0467(5) 0.1187(4) 0.8850(4)
C31A C -0.4034(7) 0.3293(6) 0.6225(5)
H17A H -0.4827 0.2869 0.6001
H18A H -0.4196 0.3759 0.6667
C32A C -0.3727(6) 0.3751(5) 0.5505(5)
C33A C -0.2520(7) 0.4200(6) 0.5578(5)
H19A H -0.1844 0.4212 0.6085
C34A C -0.2273(7) 0.4646(5) 0.4908(5)
H20A H -0.1439 0.4947 0.4974
C35A C -0.3253(6) 0.4641(4) 0.4155(4)
C36A C -0.4476(6) 0.4180(5) 0.4095(5)
H21A H -0.5160 0.4162 0.3591
C37A C -0.4703(7) 0.3752(5) 0.4757(5)
H22A H -0.5539 0.3457 0.4696
C38A C -0.3081(6) 0.5150(5) 0.3439(4)
C39A C -0.2592(7) 0.6067(5) 0.3630(5)
H23A H -0.2278 0.6335 0.4207
C40A C -0.2559(8) 0.6603(6) 0.2979(6)
H24A H -0.2207 0.7218 0.3121
C41A C -0.3041(8) 0.6224(7) 0.2141(6)
H25A H -0.3048 0.6584 0.1704
C42A C -0.3523(7) 0.5306(6) 0.1931(5)
H26A H -0.3856 0.5051 0.1352
C43A C -0.3517(6) 0.4753(5) 0.2575(4)
C44A C -0.3845(7) 0.3727(5) 0.2297(5)
C45A C 0.6264(13) 0.1508(10) 1.3839(9)
H27A H 0.6101 0.2156 1.3889
H28A H 0.5707 0.1186 1.4117
H29A H 0.7185 0.1441 1.4111
O1A O 0.3170(4) 0.0769(3) 1.1879(3)
O2A O 0.1074(4) 0.1019(3) 1.1779(3)
O3A O -0.3036(4) 0.6751(3) 1.0196(3)
O4A O -0.2395(3) 0.7832(3) 0.9531(3)
O5A O 0.2246(4) 0.7805(3) 0.9126(3)
O6A O 0.3607(4) 0.6812(3) 0.9786(3)
O7A O 0.1207(4) 0.5269(3) 1.1536(3)
O8A O -0.0452(3) 0.0764(3) 0.9493(3)
O9A O 0.0521(4) 0.1349(3) 0.8573(3)
O10A O -0.5316(4) 0.1256(3) 0.9194(3)
O11A O -0.6456(4) 0.1278(3) 0.7833(3)
O12A O -0.2951(4) 0.3223(3) 0.2644(3)
O13A O -0.4912(4) 0.3437(4) 0.1750(3)
O14A O -0.2936(4) 0.2802(4) 0.6584(3)
O15A O 0.5977(7) 0.1139(6) 1.2975(6)
O16A O 0.2698(4) -0.0021(3) 0.9641(3)
H30A H 0.231(5) -0.0533(16) 0.9462(16)
O17A O 0.5200(4) 0.1170(3) 1.1077(3)
H31A H 0.482(6) 0.115(5) 1.140(4)
O18A O 0.1435(4) -0.0865(3) 0.7672(3)
H32A H 0.070(3) -0.0983(17) 0.778(3)
H33A H 0.144(5) -0.0840(15) 0.7150(10)
Cd1_2 Cd -0.15417(4) -0.07266(3) 0.95315(3)
Cd1_3 Cd -0.15417(4) 0.92734(3) 0.95315(3)
Cd1A_2 Cd 1.15417(4) 0.07266(3) 1.04685(3)
Cd1A_3 Cd 1.15417(4) 1.07266(3) 1.04685(3)
Cd2_2 Cd -0.47182(4) 0.75358(3) 0.95225(3)
Cd2_3 Cd 1.52818(4) 0.75358(3) 0.95225(3)
Cd2_4 Cd 1.52818(4) 0.75358(3) 1.95225(3)
Cd2A_2 Cd -0.52818(4) 0.24642(3) 0.04775(3)
Cd2A_3 Cd -0.52818(4) 0.24642(3) 1.04775(3)
Cd2A_4 Cd 1.47182(4) 0.24642(3) 1.04775(3)
Cd3_2 Cd 1.79005(5) 0.94852(4) 1.16686(4)
Cd3A_2 Cd -0.79005(5) 0.05148(4) 0.83314(4)
Cd4_2 Cd -0.5000 0.0000 1.0000
Cd4_3 Cd 0.5000 0.0000 1.0000
Cd4_4 Cd 1.5000 1.0000 1.0000
Cd5_2 Cd 0.29306(4) -0.18221(4) 0.79418(3)
Cd5_3 Cd 1.29306(4) 0.81779(4) 1.79418(3)
Cd5A_2 Cd -0.29306(4) 0.18221(4) 0.20582(3)
Cd5A_3 Cd 0.70694(4) 1.18221(4) 1.20582(3)
C8_2 C 0.2151(5) 0.2850(4) 1.0052(4)
C8A_2 C 0.7849(5) 0.7150(4) 0.9948(4)
C29_2 C 0.5390(5) 0.8614(4) 1.1588(4)
C29A_2 C 0.4610(5) 0.1386(4) 0.8412(4)
O3_2 O 0.3036(4) 0.3249(3) 0.9804(3)
O3A_2 O 0.6964(4) 0.6751(3) 1.0196(3)
O4_2 O 0.2395(3) 0.2168(3) 1.0469(3)
O4A_2 O 0.7605(3) 0.7832(3) 0.9531(3)
O8_2 O 0.0452(3) -0.0764(3) 1.0507(3)
O8A_2 O 0.9548(3) 1.0764(3) 0.9493(3)
O10_2 O 0.5316(4) 0.8744(3) 1.0806(3)
O10A_2 O 0.4684(4) 0.1256(3) 0.9194(3)
O10A_3 O 0.4684(4) 1.1256(3) 0.9194(3)
O11_2 O 0.6456(4) 0.8722(3) 1.2167(3)
O11A_2 O 0.3544(4) 0.1278(3) 0.7833(3)
O12_2 O 0.2951(4) 0.6777(3) 0.7356(3)
O12A_2 O 0.7049(4) 0.3223(3) 1.2644(3)
O13_2 O 0.4912(4) 0.6563(4) 0.8250(3)
O13A_2 O 0.5088(4) 0.3437(4) 1.1750(3)
O16A_2 O 0.2698(4) 0.9979(3) 0.9641(3)
O17A_2 O 0.5200(4) 1.1170(3) 1.1077(3)
O18_2 O 0.8565(4) 0.0865(3) 1.2328(3)
O18A_2 O 0.1435(4) 0.9135(3) 0.7672(3)
C46 C 0.914(2) 1.0271(11) 1.3858(12)
O19 O 0.9436(12) 0.9405(9) 1.3466(11)
O20 O 1.074(3) 0.792(2) 1.4387(18)
O21? O 1.004(3) 0.845(2) 1.448(2)
loop_
_geom_bond_atom_site_label_1
_geom_bond_atom_site_label_2
_geom_bond_site_symmetry_1
_geom_bond_site_symmetry_2
Cd1 C22 1_555 1_555
Cd2 O17 1_555 1_555
Cd3 O9 1_555 1_555
Cd4 O16 1_555 1_555
Cd5 O15 1_555 1_555
C1 C2 1_555 1_555
C2 H1 1_555 1_555
C3 C2 1_555 1_555
C4 C3 1_555 1_555
H2 C4 1_555 1_555
C5 C4 1_555 1_555
C6 C1 1_555 1_555
H3 C6 1_555 1_555
C7 C1 1_555 1_555
C8 C3 1_555 1_555
C9 H4 1_555 1_555
H5 C9 1_555 1_555
C10 C9 1_555 1_555
C11 C10 1_555 1_555
H6 C11 1_555 1_555
C12 C11 1_555 1_555
H7 C12 1_555 1_555
C13 C12 1_555 1_555
C14 C13 1_555 1_555
H8 C14 1_555 1_555
C15 C10 1_555 1_555
H9 C15 1_555 1_555
C16 C13 1_555 1_555
C17 C16 1_555 1_555
H10 C17 1_555 1_555
C18 C17 1_555 1_555
H11 C18 1_555 1_555
C19 C18 1_555 1_555
H12 C19 1_555 1_555
C20 C19 1_555 1_555
H13 C20 1_555 1_555
C21 C16 1_555 1_555
C22 C21 1_555 1_555
C23 C24 1_555 1_555
C24 H14 1_555 1_555
C25 C24 1_555 1_555
C26 C25 1_555 1_555
H15 C26 1_555 1_555
C27 C26 1_555 1_555
C28 C23 1_555 1_555
H16 C28 1_555 1_555
C29 C23 1_555 1_555
C30 C25 1_555 1_555
C31 H17 1_555 1_555
H18 C31 1_555 1_555
C32 C31 1_555 1_555
C33 C32 1_555 1_555
H19 C33 1_555 1_555
C34 C33 1_555 1_555
H20 C34 1_555 1_555
C35 C34 1_555 1_555
C36 C35 1_555 1_555
H21 C36 1_555 1_555
C37 C32 1_555 1_555
H22 C37 1_555 1_555
C38 C35 1_555 1_555
C39 C38 1_555 1_555
H23 C39 1_555 1_555
C40 C39 1_555 1_555
H24 C40 1_555 1_555
C41 C40 1_555 1_555
H25 C41 1_555 1_555
C42 C41 1_555 1_555
H26 C42 1_555 1_555
C43 C38 1_555 1_555
C44 C43 1_555 1_555
C45 H27 1_555 1_555
H28 C45 1_555 1_555
H29 C45 1_555 1_555
O1 Cd1 1_555 1_555
O2 Cd1 1_555 1_555
O3 C8 1_555 1_555
O4 C8 1_555 1_555
O5 C7 1_555 1_555
O6 C7 1_555 1_555
O7 C5 1_555 1_555
O8 Cd1 1_555 1_555
O9 C30 1_555 1_555
O10 C29 1_555 1_555
O11 C29 1_555 1_555
O12 C44 1_555 1_555
O13 C44 1_555 1_555
O14 C27 1_555 1_555
O15 C45 1_555 1_555
O16 Cd1 1_555 1_555
H30 O16 1_555 1_555
O17 Cd4 1_555 1_555
H31 O17 1_555 1_555
O18 Cd3 1_555 1_555
H32 O18 1_555 1_555
H33 O18 1_555 1_555
C46 O19 1_555 1_555
Cd1A C22A 1_555 1_555
Cd2A O6 1_555 1_555
Cd3A O9A 1_555 1_555
Cd5A O5 1_555 1_555
C1A C2A 1_555 1_555
C2A H1A 1_555 1_555
C3A C2A 1_555 1_555
C4A C3A 1_555 1_555
H2A C4A 1_555 1_555
C5A C4A 1_555 1_555
C6A C1A 1_555 1_555
H3A C6A 1_555 1_555
C7A C1A 1_555 1_555
C8A C3A 1_555 1_555
C9A H4A 1_555 1_555
H5A C9A 1_555 1_555
C10A C9A 1_555 1_555
C11A C10A 1_555 1_555
H6A C11A 1_555 1_555
C12A C11A 1_555 1_555
H7A C12A 1_555 1_555
C13A C12A 1_555 1_555
C14A C13A 1_555 1_555
H8A C14A 1_555 1_555
C15A C10A 1_555 1_555
H9A C15A 1_555 1_555
C16A C13A 1_555 1_555
C17A C16A 1_555 1_555
H10A C17A 1_555 1_555
C18A C17A 1_555 1_555
H11A C18A 1_555 1_555
C19A C18A 1_555 1_555
H12A C19A 1_555 1_555
C20A C19A 1_555 1_555
H13A C20A 1_555 1_555
C21A C16A 1_555 1_555
C22A C21A 1_555 1_555
C23A C24A 1_555 1_555
C24A H14A 1_555 1_555
C25A C24A 1_555 1_555
C26A C25A 1_555 1_555
H15A C26A 1_555 1_555
C27A C26A 1_555 1_555
C28A C23A 1_555 1_555
H16A C28A 1_555 1_555
C29A C23A 1_555 1_555
C30A C25A 1_555 1_555
C31A H17A 1_555 1_555
H18A C31A 1_555 1_555
C32A C31A 1_555 1_555
C33A C32A 1_555 1_555
H19A C33A 1_555 1_555
C34A C33A 1_555 1_555
H20A C34A 1_555 1_555
C35A C34A 1_555 1_555
C36A C35A 1_555 1_555
H21A C36A 1_555 1_555
C37A C32A 1_555 1_555
H22A C37A 1_555 1_555
C38A C35A 1_555 1_555
C39A C38A 1_555 1_555
H23A C39A 1_555 1_555
C40A C39A 1_555 1_555
H24A C40A 1_555 1_555
C41A C40A 1_555 1_555
H25A C41A 1_555 1_555
C42A C41A 1_555 1_555
H26A C42A 1_555 1_555
C43A C38A 1_555 1_555
C44A C43A 1_555 1_555
C45A H27A 1_555 1_555
H28A C45A 1_555 1_555
H29A C45A 1_555 1_555
O1A Cd1A 1_555 1_555
O2A Cd1A 1_555 1_555
O3A C8A 1_555 1_555
O4A C8A 1_555 1_555
O5A Cd5 1_555 1_555
O6A Cd2 1_555 1_555
O7A C5A 1_555 1_555
O8A Cd1A 1_555 1_555
O9A C30A 1_555 1_555
O10A C29A 1_555 1_555
O11A C29A 1_555 1_555
O12A C44A 1_555 1_555
O13A C44A 1_555 1_555
O14A C27A 1_555 1_555
O15A Cd5A 1_555 1_555
O16A Cd1A 1_555 1_555
H30A O16A 1_555 1_555
O17A Cd2A 1_555 1_555
H31A O17A 1_555 1_555
O18A Cd3A 1_555 1_555
H32A O18A 1_555 1_555
H33A O18A 1_555 1_555
Cd1_2 O8A 1_555 1_555
Cd1_3 O4A 1_555 1_555
Cd1A_2 O4 1_555 1_555
Cd1A_3 O8 1_555 1_555
Cd2_2 C8A 1_555 1_555
Cd2_3 O10 1_555 1_555
Cd2_4 O13 1_555 1_555
Cd2A_2 O13A 1_555 1_555
Cd2A_3 O10A 1_555 1_555
Cd2A_4 C8 1_555 1_555
Cd3_2 C29 1_555 1_555
Cd3A_2 C29A 1_555 1_555
Cd4_2 O10A 1_555 1_555
Cd4_3 O16A 1_555 1_555
Cd4_4 O10 1_555 1_555
Cd5_2 O18A 1_555 1_555
Cd5_3 O12 1_555 1_555
Cd5A_2 O12A 1_555 1_555
Cd5A_3 O18 1_555 1_555
C8_2 Cd2A 1_555 1_555
C8A_2 Cd2 1_555 1_555
C29_2 Cd3 1_555 1_555
C29A_2 Cd3A 1_555 1_555
O3_2 Cd2A 1_555 1_555
O3A_2 Cd2 1_555 1_555
O4_2 Cd1A 1_555 1_555
O4A_2 Cd1 1_555 1_555
O8_2 Cd1A 1_555 1_555
O8A_2 Cd1 1_555 1_555
O10_2 Cd2 1_555 1_555
O10A_2 Cd2A 1_555 1_555
O10A_3 Cd4 1_555 1_555
O11_2 Cd3 1_555 1_555
O11A_2 Cd3A 1_555 1_555
O12_2 Cd5 1_555 1_555
O12A_2 Cd5A 1_555 1_555
O13_2 Cd2 1_555 1_555
O13A_2 Cd2A 1_555 1_555
O16A_2 Cd4 1_555 1_555
O17A_2 Cd4 1_555 1_555
O18_2 Cd5A 1_555 1_555
O18A_2 Cd5 1_555 1_555
Cd2 O4A_2 1_555 1_555
Cd3 O16 1_555 1_555
Cd3 O10_2 1_555 1_555
Cd4 O10_2 1_555 1_555
Cd5 O17 1_555 1_555
C5 C6 1_555 1_555
C9 O7 1_555 1_555
C14 C15 1_555 1_555
C20 C21 1_555 1_555
C22 O1 1_555 1_555
C22 O2 1_555 1_555
C27 C28 1_555 1_555
C30 O8 1_555 1_555
C31 O14 1_555 1_555
C36 C37 1_555 1_555
C42 C43 1_555 1_555
O3 Cd2A_4 1_555 1_555
O4 Cd2A_4 1_555 1_555
O10 Cd3_2 1_555 1_555
O11 Cd3_2 1_555 1_555
Cd2A O4_2 1_555 1_555
Cd3A O16A 1_555 1_555
Cd3A O10A_2 1_555 1_555
Cd5A O17A 1_555 1_555
C5A C6A 1_555 1_555
C7A O5A 1_555 1_555
C7A O6A 1_555 1_555
C9A O7A 1_555 1_555
C14A C15A 1_555 1_555
C20A C21A 1_555 1_555
C22A O1A 1_555 1_555
C22A O2A 1_555 1_555
C27A C28A 1_555 1_555
C30A O8A 1_555 1_555
C31A O14A 1_555 1_555
C36A C37A 1_555 1_555
C42A C43A 1_555 1_555
C45A O15A 1_555 1_555
O3A Cd2_2 1_555 1_555
O4A Cd2_2 1_555 1_555
O10A Cd3A_2 1_555 1_555
O11A Cd3A_2 1_555 1_555
O17A Cd4_3 1_555 1_555
Cd1_2 O8_2 1_555 1_555
Cd1A_3 O8A_2 1_555 1_555
Cd4_3 O10A_2 1_555 1_555
Cd5A_3 O17A_2 1_555 1_555
C8_2 O3_2 1_555 1_555
C8_2 O4_2 1_555 1_555
C8A_2 O3A_2 1_555 1_555
C8A_2 O4A_2 1_555 1_555
C29_2 O10_2 1_555 1_555
C29_2 O11_2 1_555 1_555
C29A_2 O10A_2 1_555 1_555
C29A_2 O11A_2 1_555 1_555

#END
