
#######################################################################
#
#                 Cambridge Crystallographic Data Centre
#                                CCDC 
#
#######################################################################
#
# If this CIF has been generated from an entry in the Cambridge 
# Structural Database, then it will include bibliographic, chemical, 
# crystal, experimental, refinement or atomic coordinate data resulting 
# from the CCDC's data processing and validation procedures.
#
#######################################################################

data_NODSEG
_symmetry_cell_setting           monoclinic
_symmetry_space_group_name_H-M   'P 21/n'
_symmetry_Int_Tables_number      14
_space_group_name_Hall           '-P 2yn'
loop_
_symmetry_equiv_pos_site_id
_symmetry_equiv_pos_as_xyz
1 x,y,z
2 1/2-x,1/2+y,1/2-z
3 -x,-y,-z
4 1/2+x,1/2-y,1/2+z
_cell_length_a                   6.9188(8)
_cell_length_b                   31.180(12)
_cell_length_c                   6.2103(11)
_cell_angle_alpha                90
_cell_angle_beta                 93.463(15)
_cell_angle_gamma                90
_cell_volume                     1337.29
loop_
_atom_site_label
_atom_site_type_symbol
_atom_site_fract_x
_atom_site_fract_y
_atom_site_fract_z
C1 C -0.0036(4) 0.28262(10) 1.1773(5)
C2 C 0.1678(4) 0.30732(10) 1.0870(5)
H1 H 0.1608 0.3021 0.9311
C3 C 0.3543(4) 0.28607(10) 1.1776(5)
C4 C 0.1581(4) 0.35530(11) 1.1158(6)
C5 C 0.1920(5) 0.37464(13) 1.3162(7)
H2 H 0.2189 0.3577 1.4377
C6 C 0.1861(6) 0.41885(14) 1.3369(8)
H3 H 0.2098 0.4314 1.4719
C7 C 0.1454(7) 0.44434(14) 1.1595(10)
H4 H 0.1434 0.4740 1.1741
C8 C 0.1078(6) 0.42591(14) 0.9612(9)
H5 H 0.0781 0.4430 0.8410
C9 C 0.1143(5) 0.38137(13) 0.9400(7)
H6 H 0.0887 0.3690 0.8049
C10 C 0.1335(5) 0.14638(13) 1.3381(6)
H7 H 0.1209 0.1704 1.4253
C11 C 0.0897(5) 0.10685(13) 1.4205(6)
H8 H 0.0482 0.1044 1.5596
C12 C 0.1081(6) 0.07104(13) 1.2945(7)
H9 H 0.0774 0.0440 1.3454
C13 C 0.1733(5) 0.07630(12) 1.0904(7)
C14 C 0.2155(5) 0.11748(11) 1.0188(6)
H10 H 0.2607 0.1208 0.8819
C15 C 0.1921(7) 0.04080(13) 0.9452(8)
Cu1 Cu 0.18206(5) 0.21588(2) 0.96989(7)
N1 N 0.1932(4) 0.15214(9) 1.1398(5)
N2 N 0.2078(8) 0.01283(14) 0.8300(9)
O1 O -0.1218(3) 0.30433(7) 1.2770(4)
O2 O -0.0145(3) 0.24308(7) 1.1434(4)
O3 O 0.4749(3) 0.30899(7) 1.2815(4)
O4 O 0.3791(3) 0.24665(8) 1.1436(4)
Cu1C Cu -0.31794(5) 0.28412(2) 1.46989(7)
Cu1C_2 Cu 0.68206(5) 0.28412(2) 1.46989(7)
O1C O 0.3782(3) 0.19567(7) 0.7770(4)
O3C O -0.0251(3) 0.19101(7) 0.7815(4)
loop_
_geom_bond_atom_site_label_1
_geom_bond_atom_site_label_2
_geom_bond_site_symmetry_1
_geom_bond_site_symmetry_2
C1 C2 1_555 1_555
C2 H1 1_555 1_555
C3 C2 1_555 1_555
C4 C2 1_555 1_555
C5 C4 1_555 1_555
H2 C5 1_555 1_555
C6 C5 1_555 1_555
H3 C6 1_555 1_555
C7 C6 1_555 1_555
H4 C7 1_555 1_555
C8 C7 1_555 1_555
H5 C8 1_555 1_555
C9 C4 1_555 1_555
H6 C9 1_555 1_555
C10 H7 1_555 1_555
C11 C10 1_555 1_555
H8 C11 1_555 1_555
C12 C11 1_555 1_555
H9 C12 1_555 1_555
C13 C12 1_555 1_555
C14 C13 1_555 1_555
H10 C14 1_555 1_555
C15 C13 1_555 1_555
Cu1 N1 1_555 1_555
N1 C10 1_555 1_555
N2 C15 1_555 1_555
O1 C1 1_555 1_555
O2 C1 1_555 1_555
O3 C3 1_555 1_555
O4 C3 1_555 1_555
Cu1C O1 1_555 1_555
Cu1C_2 O3 1_555 1_555
O1C Cu1 1_555 1_555
O3C Cu1 1_555 1_555
C8 C9 1_555 1_555
C14 N1 1_555 1_555
Cu1 O2 1_555 1_555
Cu1 O4 1_555 1_555

#END
