
#######################################################################
#
#                 Cambridge Crystallographic Data Centre
#                                CCDC 
#
#######################################################################
#
# If this CIF has been generated from an entry in the Cambridge 
# Structural Database, then it will include bibliographic, chemical, 
# crystal, experimental, refinement or atomic coordinate data resulting 
# from the CCDC's data processing and validation procedures.
#
#######################################################################

data_NODSUW
_symmetry_cell_setting           monoclinic
_symmetry_space_group_name_H-M   'P 21/n'
_symmetry_Int_Tables_number      14
_space_group_name_Hall           '-P 2yn'
loop_
_symmetry_equiv_pos_site_id
_symmetry_equiv_pos_as_xyz
1 x,y,z
2 1/2-x,1/2+y,1/2-z
3 -x,-y,-z
4 1/2+x,1/2-y,1/2+z
_cell_length_a                   6.2413(2)
_cell_length_b                   31.0345(7)
_cell_length_c                   6.9777(2)
_cell_angle_alpha                90
_cell_angle_beta                 93.573(2)
_cell_angle_gamma                90
_cell_volume                     1348.92
loop_
_atom_site_label
_atom_site_type_symbol
_atom_site_fract_x
_atom_site_fract_y
_atom_site_fract_z
C1 C 0.5870(6) 0.78639(12) 0.8632(6)
C2 C 0.4985(6) 0.80830(12) 0.6764(5)
H1 H 0.3428 0.8038 0.6688
C3 C 0.5864(6) 0.78307(12) 0.5074(5)
C4 C 0.5334(7) 0.85623(13) 0.6678(5)
C5 C 0.7343(8) 0.87492(14) 0.7068(7)
H2 H 0.8533 0.8575 0.7347
C6 C 0.7579(10) 0.91905(17) 0.7044(8)
H3 H 0.8924 0.9312 0.7322
C7 C 0.5819(11) 0.94550(16) 0.6606(8)
H4 H 0.5979 0.9753 0.6609
C8 C 0.3829(10) 0.92724(17) 0.6165(8)
H5 H 0.2653 0.9448 0.5842
C9 C 0.3586(8) 0.88295(14) 0.6205(7)
H6 H 0.2241 0.8709 0.5914
C10 C 0.7498(7) 0.64957(15) 0.6409(6)
H7 H 0.8281 0.6747 0.6245
C11 C 0.8422(8) 0.61055(17) 0.6004(7)
H8 H 0.9803 0.6095 0.5578
C12 C 0.7285(8) 0.57316(16) 0.6235(7)
H9 H 0.7865 0.5464 0.5960
C13 C 0.5252(8) 0.57675(14) 0.6887(7)
C14 C 0.4407(7) 0.61657(13) 0.7278(7)
H10 H 0.3036 0.6183 0.7723
Br1 Br 0.35649(11) 0.52687(2) 0.72266(10)
Cu1 Cu 0.37667(9) 0.71584(2) 0.69195(8)
N1 N 0.5515(6) 0.65273(11) 0.7032(5)
O1 O 0.6895(4) 0.80908(9) 0.9852(4)
O2 O 0.5493(5) 0.74701(9) 0.8869(4)
O3 O 0.6870(5) 0.80433(9) 0.3893(4)
O4 O 0.5500(5) 0.74345(9) 0.4950(4)
Cu1C Cu 0.87667(9) 0.78416(2) 0.19195(8)
Cu1C_2 Cu 0.87667(9) 0.78416(2) 1.19195(8)
O1C O 0.1895(4) 0.69092(9) 0.4852(4)
O3C O 0.1870(5) 0.69567(9) 0.8893(4)
loop_
_geom_bond_atom_site_label_1
_geom_bond_atom_site_label_2
_geom_bond_site_symmetry_1
_geom_bond_site_symmetry_2
C1 C2 1_555 1_555
C2 H1 1_555 1_555
C3 C2 1_555 1_555
C4 C2 1_555 1_555
C5 C4 1_555 1_555
H2 C5 1_555 1_555
C6 C5 1_555 1_555
H3 C6 1_555 1_555
C7 C6 1_555 1_555
H4 C7 1_555 1_555
C8 C7 1_555 1_555
H5 C8 1_555 1_555
C9 C4 1_555 1_555
H6 C9 1_555 1_555
C10 H7 1_555 1_555
C11 C10 1_555 1_555
H8 C11 1_555 1_555
C12 C11 1_555 1_555
H9 C12 1_555 1_555
C13 C12 1_555 1_555
C14 C13 1_555 1_555
H10 C14 1_555 1_555
Br1 C13 1_555 1_555
Cu1 N1 1_555 1_555
N1 C10 1_555 1_555
O1 C1 1_555 1_555
O2 C1 1_555 1_555
O3 C3 1_555 1_555
O4 C3 1_555 1_555
Cu1C O3 1_555 1_555
Cu1C_2 O1 1_555 1_555
O1C Cu1 1_555 1_555
O3C Cu1 1_555 1_555
C8 C9 1_555 1_555
C14 N1 1_555 1_555
Cu1 O2 1_555 1_555
Cu1 O4 1_555 1_555

#END
