
#######################################################################
#
#                 Cambridge Crystallographic Data Centre
#                                CCDC 
#
#######################################################################
#
# If this CIF has been generated from an entry in the Cambridge 
# Structural Database, then it will include bibliographic, chemical, 
# crystal, experimental, refinement or atomic coordinate data resulting 
# from the CCDC's data processing and validation procedures.
#
#######################################################################

data_NODSIK
_symmetry_cell_setting           monoclinic
_symmetry_space_group_name_H-M   'P 21/n'
_symmetry_Int_Tables_number      14
_space_group_name_Hall           '-P 2yn'
loop_
_symmetry_equiv_pos_site_id
_symmetry_equiv_pos_as_xyz
1 x,y,z
2 1/2-x,1/2+y,1/2-z
3 -x,-y,-z
4 1/2+x,1/2-y,1/2+z
_cell_length_a                   6.3297(2)
_cell_length_b                   31.7864(11)
_cell_length_c                   6.9390(2)
_cell_angle_alpha                90
_cell_angle_beta                 92.732(3)
_cell_angle_gamma                90
_cell_volume                     1394.53
loop_
_atom_site_label
_atom_site_type_symbol
_atom_site_fract_x
_atom_site_fract_y
_atom_site_fract_z
C1 C 0.3518(3) 0.28564(7) 1.0502(3)
C2 C 0.2669(3) 0.30759(6) 0.8644(3)
H1 H 0.1130 0.3039 0.8588
C3 C 0.3508(3) 0.28296(6) 0.6913(3)
C4 C 0.3071(3) 0.35431(7) 0.8580(3)
C5 C 0.5099(4) 0.37097(8) 0.8886(4)
H2 H 0.6246 0.3531 0.9117
C6 C 0.5406(5) 0.41428(10) 0.8844(5)
H3 H 0.6762 0.4252 0.9048
C7 C 0.3727(6) 0.44120(9) 0.8505(5)
H4 H 0.3946 0.4701 0.8484
C8 C 0.1730(6) 0.42507(9) 0.8197(5)
H5 H 0.0590 0.4431 0.7961
C9 C 0.1401(4) 0.38161(8) 0.8238(4)
H6 H 0.0040 0.3710 0.8032
C10 C 0.5149(3) 0.15421(8) 0.8297(3)
H7 H 0.5855 0.1792 0.8061
C11 C 0.6196(4) 0.11659(8) 0.8030(4)
H8 H 0.7568 0.1162 0.7606
C12 C 0.5154(4) 0.07964(8) 0.8406(4)
C13 C 0.3100(4) 0.08113(8) 0.9028(4)
H9 H 0.2365 0.0566 0.9288
C14 C 0.2187(4) 0.12011(8) 0.9247(4)
H10 H 0.0818 0.1214 0.9672
C15 C 0.6202(5) 0.03971(10) 0.8192(5)
Cu1 Cu 0.13977(4) 0.21725(2) 0.87645(4)
N1 N 0.3179(3) 0.15623(6) 0.8876(3)
N2 N 0.7041(6) 0.00823(10) 0.8045(6)
O1 O 0.4566(2) 0.30716(5) 1.1710(2)
O2 O 0.3107(2) 0.24727(5) 1.0737(2)
O3 O 0.4528(2) 0.30344(5) 0.5739(2)
O4 O 0.3104(2) 0.24429(5) 0.6783(2)
Cu1C Cu 0.63977(4) 0.28275(2) 0.37645(4)
Cu1C_2 Cu 0.63977(4) 0.28275(2) 1.37645(4)
O1C O -0.0434(2) 0.19284(5) 0.6710(2)
O3C O -0.0472(2) 0.19656(5) 1.0739(2)
loop_
_geom_bond_atom_site_label_1
_geom_bond_atom_site_label_2
_geom_bond_site_symmetry_1
_geom_bond_site_symmetry_2
C1 C2 1_555 1_555
C2 H1 1_555 1_555
C3 C2 1_555 1_555
C4 C2 1_555 1_555
C5 C4 1_555 1_555
H2 C5 1_555 1_555
C6 C5 1_555 1_555
H3 C6 1_555 1_555
C7 C6 1_555 1_555
H4 C7 1_555 1_555
C8 C7 1_555 1_555
H5 C8 1_555 1_555
C9 C4 1_555 1_555
H6 C9 1_555 1_555
C10 H7 1_555 1_555
C11 C10 1_555 1_555
H8 C11 1_555 1_555
C12 C11 1_555 1_555
C13 C12 1_555 1_555
H9 C13 1_555 1_555
C14 C13 1_555 1_555
H10 C14 1_555 1_555
C15 C12 1_555 1_555
Cu1 N1 1_555 1_555
N1 C10 1_555 1_555
N2 C15 1_555 1_555
O1 C1 1_555 1_555
O2 C1 1_555 1_555
O3 C3 1_555 1_555
O4 C3 1_555 1_555
Cu1C O3 1_555 1_555
Cu1C_2 O1 1_555 1_555
O1C Cu1 1_555 1_555
O3C Cu1 1_555 1_555
C8 C9 1_555 1_555
C14 N1 1_555 1_555
Cu1 O2 1_555 1_555
Cu1 O4 1_555 1_555

#END
