
#######################################################################
#
#                 Cambridge Crystallographic Data Centre
#                                CCDC 
#
#######################################################################
#
# If this CIF has been generated from an entry in the Cambridge 
# Structural Database, then it will include bibliographic, chemical, 
# crystal, experimental, refinement or atomic coordinate data resulting 
# from the CCDC's data processing and validation procedures.
#
#######################################################################

data_NODSOQ
_symmetry_cell_setting           monoclinic
_symmetry_space_group_name_H-M   'P 21/n'
_symmetry_Int_Tables_number      14
_space_group_name_Hall           '-P 2yn'
loop_
_symmetry_equiv_pos_site_id
_symmetry_equiv_pos_as_xyz
1 x,y,z
2 1/2-x,1/2+y,1/2-z
3 -x,-y,-z
4 1/2+x,1/2-y,1/2+z
_cell_length_a                   6.2264(11)
_cell_length_b                   30.6016(17)
_cell_length_c                   6.9804(12)
_cell_angle_alpha                90
_cell_angle_beta                 93.297(13)
_cell_angle_gamma                90
_cell_volume                     1327.83
loop_
_atom_site_label
_atom_site_type_symbol
_atom_site_fract_x
_atom_site_fract_y
_atom_site_fract_z
C1 C 1.0900(9) 0.2866(2) 0.3632(8)
C2 C 1.0026(10) 0.3087(2) 0.1752(9)
H1 H 0.8466 0.3041 0.1682
C3 C 1.0898(9) 0.2830(2) 0.0047(8)
C4 C 1.0356(11) 0.3576(2) 0.1658(9)
C5 C 1.2381(13) 0.3765(2) 0.2052(10)
H2 H 1.3572 0.3587 0.2325
C6 C 1.2620(15) 0.4211(3) 0.2037(12)
H3 H 1.3961 0.4336 0.2332
C7 C 1.0840(17) 0.4478(3) 0.1578(12)
H4 H 1.0993 0.4780 0.1583
C8 C 0.8881(16) 0.4296(3) 0.1122(12)
H5 H 0.7710 0.4473 0.0778
C9 C 0.8628(12) 0.3847(3) 0.1168(10)
H6 H 0.7282 0.3725 0.0867
C10 C 1.2528(12) 0.1472(3) 0.1365(10)
H7 H 1.3325 0.1724 0.1193
C11 C 1.3422(14) 0.1076(3) 0.0966(11)
H8 H 1.4806 0.1063 0.0534
C12 C 1.2272(14) 0.0698(3) 0.1205(12)
H9 H 1.2843 0.0426 0.0929
C13 C 1.0238(14) 0.0739(2) 0.1871(11)
C14 C 0.9400(11) 0.1144(2) 0.2253(10)
H10 H 0.8023 0.1164 0.2696
Cl1 Cl 0.8659(5) 0.02787(7) 0.2203(4)
Cu1 Cu 0.88139(13) 0.21523(3) 0.18980(11)
N1 N 1.0529(9) 0.15088(19) 0.1999(8)
O1 O 1.1927(8) 0.30975(15) 0.4840(6)
O2 O 1.0550(8) 0.24327(15) -0.0071(7)
O3 O 1.0546(8) 0.24694(16) 0.3850(6)
O4 O 1.1913(8) 0.30533(15) -0.1134(6)
Cu1C Cu 1.38139(13) 0.28477(3) -0.31020(11)
Cu1C_2 Cu 1.38139(13) 0.28477(3) 0.68980(11)
O1C O 0.6927(8) 0.19025(15) -0.0160(6)
O4C O 0.6913(8) 0.19467(15) 0.3866(6)
loop_
_geom_bond_atom_site_label_1
_geom_bond_atom_site_label_2
_geom_bond_site_symmetry_1
_geom_bond_site_symmetry_2
C1 C2 1_555 1_555
C2 H1 1_555 1_555
C3 C2 1_555 1_555
C4 C2 1_555 1_555
C5 C4 1_555 1_555
H2 C5 1_555 1_555
C6 C5 1_555 1_555
H3 C6 1_555 1_555
C7 C6 1_555 1_555
H4 C7 1_555 1_555
C8 C7 1_555 1_555
H5 C8 1_555 1_555
C9 C4 1_555 1_555
H6 C9 1_555 1_555
C10 H7 1_555 1_555
C11 C10 1_555 1_555
H8 C11 1_555 1_555
C12 C11 1_555 1_555
H9 C12 1_555 1_555
C13 C12 1_555 1_555
C14 C13 1_555 1_555
H10 C14 1_555 1_555
Cl1 C13 1_555 1_555
Cu1 N1 1_555 1_555
N1 C10 1_555 1_555
O1 C1 1_555 1_555
O2 C3 1_555 1_555
O3 C1 1_555 1_555
O4 C3 1_555 1_555
Cu1C O4 1_555 1_555
Cu1C_2 O1 1_555 1_555
O1C Cu1 1_555 1_555
O4C Cu1 1_555 1_555
C8 C9 1_555 1_555
C14 N1 1_555 1_555
Cu1 O2 1_555 1_555
Cu1 O3 1_555 1_555

#END
