
#######################################################################
#
#                 Cambridge Crystallographic Data Centre
#                                CCDC 
#
#######################################################################
#
# If this CIF has been generated from an entry in the Cambridge 
# Structural Database, then it will include bibliographic, chemical, 
# crystal, experimental, refinement or atomic coordinate data resulting 
# from the CCDC's data processing and validation procedures.
#
#######################################################################

data_NODSAB
_symmetry_cell_setting           monoclinic
_symmetry_space_group_name_H-M   'P 21/c'
_symmetry_Int_Tables_number      14
_space_group_name_Hall           '-P 2ybc'
loop_
_symmetry_equiv_pos_site_id
_symmetry_equiv_pos_as_xyz
1 x,y,z
2 -x,1/2+y,1/2-z
3 -x,-y,-z
4 x,1/2-y,1/2+z
_cell_length_a                   13.960(2)
_cell_length_b                   13.033(2)
_cell_length_c                   22.548(4)
_cell_angle_alpha                90
_cell_angle_beta                 99.825(3)
_cell_angle_gamma                90
_cell_volume                     4042.23
loop_
_atom_site_label
_atom_site_type_symbol
_atom_site_fract_x
_atom_site_fract_y
_atom_site_fract_z
Nb1 Nb -0.59681(9) 0.03310(10) 0.42240(6)
Nb2 Nb -0.56877(9) -0.14075(10) 0.50510(6)
Nb3 Nb -0.40684(9) -0.06608(10) 0.44903(6)
Cl1 Cl -0.5037(3) -0.0370(3) 0.34741(15)
Cl2 Cl -0.7220(3) 0.1189(3) 0.46878(17)
Cl3 Cl -0.6967(3) -0.1249(3) 0.41520(16)
Cl4 Cl -0.5336(3) 0.2019(3) 0.40366(17)
Cl5 Cl -0.3105(3) 0.0870(3) 0.43393(17)
Cl6 Cl -0.4716(3) -0.2432(3) 0.44526(18)
C1 C -0.7012(12) 0.0744(12) 0.3368(7)
N1 N -0.7483(10) 0.1037(10) 0.2924(6)
C2 C -0.6432(12) -0.2934(12) 0.5144(7)
N2 N -0.6834(11) -0.3650(12) 0.5218(7)
C3 C -0.3010(12) -0.1361(13) 0.3936(7)
N3 N -0.2467(9) -0.1659(10) 0.3647(6)
Mn1 Mn -0.77310(17) 0.22330(18) 0.21329(11)
O1 O -0.7737(7) 0.3286(8) 0.2676(4)
O2 O -0.9089(7) 0.2167(8) 0.1944(4)
N4 N -0.6305(9) 0.2173(12) 0.2252(6)
N5 N -0.7631(11) 0.1099(11) 0.1578(7)
C4 C -0.6963(12) 0.3723(12) 0.3041(7)
C5 C -0.7179(13) 0.4331(14) 0.3488(8)
H1 H -0.7838 0.4443 0.3528
C6 C -0.6422(17) 0.4798(15) 0.3893(10)
H2 H -0.6565 0.5202 0.4218
C7 C -0.5473(16) 0.4662(14) 0.3814(8)
H3 H -0.4960 0.4985 0.4081
C8 C -0.5268(12) 0.4070(13) 0.3358(8)
H4 H -0.4614 0.3996 0.3298
C9 C -0.6023(12) 0.3561(12) 0.2972(7)
C10 C -0.5713(14) 0.2800(13) 0.2575(8)
H5 H -0.5042 0.2759 0.2551
C11 C -0.5934(15) 0.1308(18) 0.1918(9)
H6 H -0.5709 0.1575 0.1555
H7 H -0.5376 0.0976 0.2177
C12 C -0.661(4) 0.065(4) 0.177(2)
H8 H -0.6621 0.0177 0.2108
H9 H -0.6449 0.0239 0.1427
C14 C -0.8358(14) 0.0603(13) 0.1229(8)
H12 H -0.8201 0.0067 0.0977
C15 C -0.9330(13) 0.0835(14) 0.1221(8)
C16 C -1.0028(15) 0.0209(15) 0.0832(7)
H13 H -0.9804 -0.0342 0.0616
C17 C -1.0978(15) 0.0390(17) 0.0771(9)
H14 H -1.1426 -0.0030 0.0514
C18 C -1.1309(13) 0.1181(18) 0.1079(8)
H15 H -1.1983 0.1339 0.1012
C19 C -1.0654(12) 0.1768(15) 0.1497(8)
H16 H -1.0900 0.2275 0.1733
C20 C -0.9684(12) 0.1616(12) 0.1562(7)
Nb1B Nb -0.40319(9) -0.03310(10) 0.57760(6)
Nb2B Nb -0.43123(9) 0.14075(10) 0.49490(6)
Nb3B Nb -0.59316(9) 0.06608(10) 0.55097(6)
Cl2B Cl -0.2780(3) -0.1189(3) 0.53122(17)
Cl4B Cl -0.4664(3) -0.2019(3) 0.59634(17)
Cl5B Cl -0.6895(3) -0.0870(3) 0.56607(17)
N3A N -0.7533(9) 0.3341(10) 0.1353(6)
Mn1A Mn -0.22690(17) -0.27670(18) 0.28671(11)
N6 N -0.0244(8) 0.0712(10) 0.3466(5)
C21 C -0.1190(11) 0.1087(13) 0.3671(7)
H17 H -0.1528 0.0489 0.3811
H18 H -0.1016 0.1557 0.4018
C22 C -0.1873(12) 0.1628(12) 0.3189(6)
C23 C -0.2573(12) 0.1076(15) 0.2793(9)
H19 H -0.2636 0.0354 0.2830
C24 C -0.3164(17) 0.161(3) 0.2353(12)
H20 H -0.3629 0.1238 0.2079
C25 C -0.3127(16) 0.262(3) 0.2284(11)
H21 H -0.3539 0.2935 0.1956
C26 C -0.2506(17) 0.3211(18) 0.2676(12)
H22 H -0.2495 0.3936 0.2636
C27 C -0.1872(12) 0.2692(14) 0.3148(9)
H23 H -0.1446 0.3081 0.3437
C28 C 0.0402(11) 0.0273(13) 0.4011(7)
H24 H 0.1051 0.0142 0.3906
H25 H 0.0484 0.0799 0.4333
C29 C 0.0051(14) -0.0698(13) 0.4261(8)
H26 H 0.0522 -0.0919 0.4611
H27 H -0.0017 -0.1234 0.3951
H28 H -0.0580 -0.0575 0.4382
C30 C -0.0491(12) -0.0045(15) 0.2960(8)
H29 H -0.0884 0.0309 0.2613
H30 H -0.0900 -0.0593 0.3091
C31 C 0.0379(12) -0.0537(13) 0.2753(8)
H31 H 0.0154 -0.1007 0.2419
H32 H 0.0758 -0.0919 0.3087
H33 H 0.0787 -0.0003 0.2618
C32 C 0.0276(11) 0.1607(12) 0.3231(8)
H34 H 0.0841 0.1339 0.3067
H35 H -0.0171 0.1928 0.2893
C33 C 0.0622(12) 0.2412(13) 0.3682(9)
H36 H 0.0950 0.2955 0.3492
H37 H 0.1078 0.2109 0.4014
H38 H 0.0066 0.2703 0.3837
O3 O -0.1099(13) 0.2927(14) 0.4683(7)
O4 O -0.726(4) 0.088(5) 0.020(3)
C13? C -0.667(2) 0.099(3) 0.1353(15)
H10? H -0.6632 0.1446 0.1008
H11? H -0.6558 0.0268 0.1235
loop_
_geom_bond_atom_site_label_1
_geom_bond_atom_site_label_2
_geom_bond_site_symmetry_1
_geom_bond_site_symmetry_2
Nb1 Nb2 1_555 1_555
Nb2 Nb3 1_555 1_555
Nb3 Nb1 1_555 1_555
Cl1 Nb1 1_555 1_555
Cl2 Nb1 1_555 1_555
Cl3 Nb1 1_555 1_555
Cl4 Nb1 1_555 1_555
Cl5 Nb3 1_555 1_555
Cl6 Nb2 1_555 1_555
C1 Nb1 1_555 1_555
N1 C1 1_555 1_555
C2 Nb2 1_555 1_555
N2 C2 1_555 1_555
C3 Nb3 1_555 1_555
N3 C3 1_555 1_555
Mn1 N1 1_555 1_555
O1 Mn1 1_555 1_555
O2 Mn1 1_555 1_555
N4 Mn1 1_555 1_555
N5 Mn1 1_555 1_555
C4 O1 1_555 1_555
C5 C4 1_555 1_555
H1 C5 1_555 1_555
C6 C5 1_555 1_555
H2 C6 1_555 1_555
C7 C6 1_555 1_555
H3 C7 1_555 1_555
C8 C7 1_555 1_555
H4 C8 1_555 1_555
C9 C4 1_555 1_555
C10 N4 1_555 1_555
H5 C10 1_555 1_555
C11 N4 1_555 1_555
H6 C11 1_555 1_555
H7 C11 1_555 1_555
C12 N5 1_555 1_555
H8 C12 1_555 1_555
H9 C12 1_555 1_555
C14 N5 1_555 1_555
H12 C14 1_555 1_555
C15 C14 1_555 1_555
C16 C15 1_555 1_555
H13 C16 1_555 1_555
C17 C16 1_555 1_555
H14 C17 1_555 1_555
C18 C17 1_555 1_555
H15 C18 1_555 1_555
C19 C18 1_555 1_555
H16 C19 1_555 1_555
C20 O2 1_555 1_555
N6 C21 1_555 1_555
C21 H17 1_555 1_555
H18 C21 1_555 1_555
C22 C21 1_555 1_555
C23 C22 1_555 1_555
H19 C23 1_555 1_555
C24 C23 1_555 1_555
H20 C24 1_555 1_555
C25 C24 1_555 1_555
H21 C25 1_555 1_555
C26 C25 1_555 1_555
H22 C26 1_555 1_555
C27 C22 1_555 1_555
H23 C27 1_555 1_555
C28 N6 1_555 1_555
H24 C28 1_555 1_555
H25 C28 1_555 1_555
C29 C28 1_555 1_555
H26 C29 1_555 1_555
H27 C29 1_555 1_555
H28 C29 1_555 1_555
C30 N6 1_555 1_555
H29 C30 1_555 1_555
H30 C30 1_555 1_555
C31 C30 1_555 1_555
H31 C31 1_555 1_555
H32 C31 1_555 1_555
H33 C31 1_555 1_555
C32 N6 1_555 1_555
H34 C32 1_555 1_555
H35 C32 1_555 1_555
C33 C32 1_555 1_555
H36 C33 1_555 1_555
H37 C33 1_555 1_555
H38 C33 1_555 1_555
Nb1B Nb2 1_555 1_555
Nb2B Nb1 1_555 1_555
Nb3B Nb1 1_555 1_555
Cl2B Nb3 1_555 1_555
Cl4B Nb2 1_555 1_555
Cl5B Nb2 1_555 1_555
N3A Mn1 1_555 1_555
Mn1A N3 1_555 1_555
Nb2 Cl3 1_555 1_555
Nb2 Nb3B 1_555 1_555
Nb3 Cl1 1_555 1_555
Nb3 Cl6 1_555 1_555
Nb3 Nb1B 1_555 1_555
Nb3 Nb2B 1_555 1_555
Cl2 Nb3B 1_555 1_555
Cl4 Nb2B 1_555 1_555
Cl5 Nb2B 1_555 1_555
C8 C9 1_555 1_555
C9 C10 1_555 1_555
C11 C12 1_555 1_555
C15 C20 1_555 1_555
C19 C20 1_555 1_555
C26 C27 1_555 1_555
Nb1B Nb2B 1_555 1_555
Nb1B Nb3B 1_555 1_555
Nb1B Cl2B 1_555 1_555
Nb1B Cl4B 1_555 1_555
Nb2B Nb3B 1_555 1_555
Nb3B Cl5B 1_555 1_555

#END
