
#######################################################################
#
#                 Cambridge Crystallographic Data Centre
#                                CCDC 
#
#######################################################################
#
# If this CIF has been generated from an entry in the Cambridge 
# Structural Database, then it will include bibliographic, chemical, 
# crystal, experimental, refinement or atomic coordinate data resulting 
# from the CCDC's data processing and validation procedures.
#
#######################################################################

data_NODTOR
_symmetry_cell_setting           orthorhombic
_symmetry_space_group_name_H-M   'F m m m'
_symmetry_Int_Tables_number      69
_space_group_name_Hall           '-F 2 2'
loop_
_symmetry_equiv_pos_site_id
_symmetry_equiv_pos_as_xyz
1 x,y,z
2 x,-y,-z
3 -x,y,-z
4 -x,-y,z
5 x,1/2+y,1/2+z
6 x,1/2-y,1/2-z
7 -x,1/2+y,1/2-z
8 -x,1/2-y,1/2+z
9 1/2+x,y,1/2+z
10 1/2+x,-y,1/2-z
11 1/2-x,y,1/2-z
12 1/2-x,-y,1/2+z
13 1/2+x,1/2+y,z
14 1/2+x,1/2-y,-z
15 1/2-x,1/2+y,-z
16 1/2-x,1/2-y,z
17 -x,-y,-z
18 -x,y,z
19 x,-y,z
20 x,y,-z
21 -x,1/2-y,1/2-z
22 -x,1/2+y,1/2+z
23 x,1/2-y,1/2+z
24 x,1/2+y,1/2-z
25 1/2-x,-y,1/2-z
26 1/2-x,y,1/2+z
27 1/2+x,-y,1/2+z
28 1/2+x,y,1/2-z
29 1/2-x,1/2-y,-z
30 1/2-x,1/2+y,z
31 1/2+x,1/2-y,z
32 1/2+x,1/2+y,-z
_cell_length_a                   25.6676(7)
_cell_length_b                   25.668
_cell_length_c                   25.668
_cell_angle_alpha                90
_cell_angle_beta                 90
_cell_angle_gamma                90
_cell_volume                     16911
loop_
_atom_site_label
_atom_site_type_symbol
_atom_site_fract_x
_atom_site_fract_y
_atom_site_fract_z
O1 O 0.28082(17) 0.21838(19) 0.13428(12)
O2 O 0.36589(14) 0.2196(2) 0.21863(15)
O3 O 0.28121(17) 0.13431(13) 0.21838(15)
C1 C 0.2831(3) 0.2174(3) 0.02671(18)
C2 C 0.2826(3) 0.0261(2) 0.2165(3)
C3 C 0.2500 0.2500 0.0538(2)
C4 C 0.4464(2) 0.2500 0.2500
C5 C 0.4732(2) 0.2178(3) 0.2166(3)
C6 C 0.2500 0.0534(2) 0.2500
C7 C 0.2500 0.1118(2) 0.2500
C8 C 0.2500 0.2500 0.11248(19)
C9 C 0.3880(2) 0.2500 0.2500
Zn1 Zn 0.293331(18) 0.206690(17) 0.206665(16)
O4 O 0.2500 0.2500 0.2500
O1O O 0.21918(17) 0.28162(19) 0.13428(12)
C1O C 0.2169(3) 0.2826(3) 0.02671(18)
O1S O 0.28082(17) 0.21838(19) -0.13428(12)
C1S C 0.2831(3) 0.2174(3) -0.02671(18)
C3S C 0.2500 0.2500 -0.0538(2)
C8S C 0.2500 0.2500 -0.11248(19)
O1BA O 0.21918(17) 0.28162(19) -0.13428(12)
C1BA C 0.2169(3) 0.2826(3) -0.02671(18)
O2E O 0.36589(14) 0.2804(2) 0.28137(15)
C5E C 0.4732(2) 0.2822(3) 0.2834(3)
O2Q O 0.63411(14) 0.2196(2) 0.21863(15)
C4Q C 0.5536(2) 0.2500 0.2500
C5Q C 0.5268(2) 0.2178(3) 0.2166(3)
C9Q C 0.6120(2) 0.2500 0.2500
O2T O 0.63411(14) 0.2804(2) 0.28137(15)
C5T C 0.5268(2) 0.2822(3) 0.2834(3)
O3J O 0.21879(17) 0.13431(13) 0.28162(15)
C2J C 0.2174(3) 0.0261(2) 0.2835(3)
O3R O 0.28121(17) -0.13431(13) 0.21838(15)
C2R C 0.2826(3) -0.0261(2) 0.2165(3)
C6R C 0.2500 -0.0534(2) 0.2500
C7R C 0.2500 -0.1118(2) 0.2500
O3X O 0.21879(17) -0.13431(13) 0.28162(15)
C2X C 0.2174(3) -0.0261(2) 0.2835(3)
Zn1E Zn 0.293331(18) 0.293310(17) 0.293335(16)
Zn1J Zn 0.206669(18) 0.206690(17) 0.293335(16)
Zn1O Zn 0.206669(18) 0.293310(17) 0.206665(16)
O1E O 0.28082(17) 0.28162(19) 0.36572(12)
O1J O 0.21918(17) 0.21838(19) 0.36572(12)
O2J O 0.13411(14) 0.2196(2) 0.28137(15)
O2O O 0.13411(14) 0.2804(2) 0.21863(15)
O3E O 0.28121(17) 0.36569(13) 0.28162(15)
O3O O 0.21879(17) 0.36569(13) 0.21838(15)
Zn1Q Zn 0.706669(18) 0.206690(17) 0.206665(16)
Zn1R Zn 0.293331(18) -0.206690(17) 0.206665(16)
Zn1S Zn 0.293331(18) 0.206690(17) -0.206665(16)
Zn1T Zn 0.706669(18) 0.293310(17) 0.293335(16)
Zn1X Zn 0.206669(18) -0.206690(17) 0.293335(16)
Zn1BA Zn 0.206669(18) 0.293310(17) -0.206665(16)
loop_
_geom_bond_atom_site_label_1
_geom_bond_atom_site_label_2
_geom_bond_site_symmetry_1
_geom_bond_site_symmetry_2
O1 C8 1_555 1_555
O2 C9 1_555 1_555
O3 C7 1_555 1_555
C1 C3 1_555 1_555
C2 C6 1_555 1_555
C3 C8 1_555 1_555
C4 C5 1_555 1_555
C5 C5Q 1_555 1_555
C6 C7 1_555 1_555
C7 O3J 1_555 1_555
C8 O1O 1_555 1_555
C9 C4 1_555 1_555
Zn1 O1 1_555 1_555
O4 Zn1 1_555 1_555
O1O Zn1O 1_555 1_555
C1O C3 1_555 1_555
O1S C8S 1_555 1_555
C1S C1 1_555 1_555
C3S C1S 1_555 1_555
C8S C3S 1_555 1_555
O1BA C8S 1_555 1_555
C1BA C1O 1_555 1_555
O2E C9 1_555 1_555
C5E C4 1_555 1_555
O2Q C9Q 1_555 1_555
C4Q C5Q 1_555 1_555
C9Q C4Q 1_555 1_555
O2T C9Q 1_555 1_555
C5T C5E 1_555 1_555
O3J Zn1J 1_555 1_555
C2J C6 1_555 1_555
O3R C7R 1_555 1_555
C2R C2 1_555 1_555
C6R C2R 1_555 1_555
C7R C6R 1_555 1_555
O3X C7R 1_555 1_555
C2X C2J 1_555 1_555
Zn1E O4 1_555 1_555
Zn1J O4 1_555 1_555
Zn1O O4 1_555 1_555
O1E Zn1E 1_555 1_555
O1J Zn1J 1_555 1_555
O2J Zn1J 1_555 1_555
O2O Zn1O 1_555 1_555
O3E Zn1E 1_555 1_555
O3O Zn1O 1_555 1_555
Zn1Q O2Q 1_555 1_555
Zn1R O3R 1_555 1_555
Zn1S O1S 1_555 1_555
Zn1T O2T 1_555 1_555
Zn1X O3X 1_555 1_555
Zn1BA O1BA 1_555 1_555
O2 Zn1 1_555 1_555
O3 Zn1 1_555 1_555
C3S C1BA 1_555 1_555
O2E Zn1E 1_555 1_555
C4Q C5T 1_555 1_555
C6R C2X 1_555 1_555

#END
