
#######################################################################
#
#                 Cambridge Crystallographic Data Centre
#                                CCDC 
#
#######################################################################
#
# If this CIF has been generated from an entry in the Cambridge 
# Structural Database, then it will include bibliographic, chemical, 
# crystal, experimental, refinement or atomic coordinate data resulting 
# from the CCDC's data processing and validation procedures.
#
#######################################################################

data_NODTAD
_symmetry_cell_setting           monoclinic
_symmetry_space_group_name_H-M   'P 21/n'
_symmetry_Int_Tables_number      14
_space_group_name_Hall           '-P 2yn'
loop_
_symmetry_equiv_pos_site_id
_symmetry_equiv_pos_as_xyz
1 x,y,z
2 1/2-x,1/2+y,1/2-z
3 -x,-y,-z
4 1/2+x,1/2-y,1/2+z
_cell_length_a                   6.2716(2)
_cell_length_b                   31.9680(7)
_cell_length_c                   6.9916(2)
_cell_angle_alpha                90
_cell_angle_beta                 93.949(2)
_cell_angle_gamma                90
_cell_volume                     1398.42
loop_
_atom_site_label
_atom_site_type_symbol
_atom_site_fract_x
_atom_site_fract_y
_atom_site_fract_z
C1 C 0.4353(7) 0.78523(14) 0.1324(6)
C2 C 0.5219(8) 0.80637(15) 0.3198(6)
H1 H 0.6771 0.8023 0.3285
C3 C 0.4350(7) 0.78184(14) 0.4896(6)
C4 C 0.4850(8) 0.85292(15) 0.3279(6)
C5 C 0.2844(10) 0.87095(18) 0.2899(8)
H2 H 0.1660 0.8539 0.2628
C6 C 0.2592(12) 0.9137(2) 0.2919(9)
H3 H 0.1242 0.9252 0.2654
C7 C 0.4341(14) 0.94010(19) 0.3334(10)
H4 H 0.4174 0.9690 0.3322
C8 C 0.6329(13) 0.9222(2) 0.3764(9)
H5 H 0.7502 0.9392 0.4076
C9 C 0.6588(10) 0.87936(17) 0.3735(8)
H6 H 0.7936 0.8679 0.4021
C10 C 0.2715(9) 0.65340(18) 0.3519(8)
H7 H 0.1953 0.6781 0.3653
C11 C 0.1760(9) 0.61618(19) 0.3948(8)
H8 H 0.0390 0.6159 0.4380
C12 C 0.2856(10) 0.57931(19) 0.3732(8)
H9 H 0.2236 0.5537 0.3999
C13 C 0.4900(9) 0.58124(16) 0.3109(7)
C14 C 0.5765(9) 0.62023(16) 0.2688(8)
H10 H 0.7124 0.6214 0.2236
I1 I 0.66949(8) 0.52720(2) 0.27818(7)
N1 N 0.4693(7) 0.65579(13) 0.2918(6)
O1 O 0.3327(6) 0.80755(11) 0.0109(5)
O2 O 0.4720(6) 0.74728(11) 0.1081(5)
O3 O 0.3354(6) 0.80231(11) 0.6061(5)
O4 O 0.4733(6) 0.74345(11) 0.5007(5)
Cu1 Cu 0.64592(11) 0.71688(2) 0.30335(9)
O1C O 0.8327(6) 0.69245(11) 0.5109(5)
O3C O 0.8354(6) 0.69769(11) 0.1061(5)
Cu1C Cu 0.14592(11) 0.78312(2) -0.19665(9)
Cu1C_2 Cu 0.14592(11) 0.78312(2) 0.80335(9)
loop_
_geom_bond_atom_site_label_1
_geom_bond_atom_site_label_2
_geom_bond_site_symmetry_1
_geom_bond_site_symmetry_2
C1 C2 1_555 1_555
C2 H1 1_555 1_555
C3 C2 1_555 1_555
C4 C2 1_555 1_555
C5 C4 1_555 1_555
H2 C5 1_555 1_555
C6 C5 1_555 1_555
H3 C6 1_555 1_555
C7 C6 1_555 1_555
H4 C7 1_555 1_555
C8 C7 1_555 1_555
H5 C8 1_555 1_555
C9 C4 1_555 1_555
H6 C9 1_555 1_555
C10 H7 1_555 1_555
C11 C10 1_555 1_555
H8 C11 1_555 1_555
C12 C11 1_555 1_555
H9 C12 1_555 1_555
C13 C12 1_555 1_555
C14 C13 1_555 1_555
H10 C14 1_555 1_555
I1 C13 1_555 1_555
N1 C10 1_555 1_555
O1 C1 1_555 1_555
O2 C1 1_555 1_555
O3 C3 1_555 1_555
O4 C3 1_555 1_555
Cu1 N1 1_555 1_555
O1C Cu1 1_555 1_555
O3C Cu1 1_555 1_555
Cu1C O1 1_555 1_555
Cu1C_2 O3 1_555 1_555
C8 C9 1_555 1_555
C14 N1 1_555 1_555
O2 Cu1 1_555 1_555
O4 Cu1 1_555 1_555

#END
