
#######################################################################
#
#                 Cambridge Crystallographic Data Centre
#                                CCDC 
#
#######################################################################
#
# If this CIF has been generated from an entry in the Cambridge 
# Structural Database, then it will include bibliographic, chemical, 
# crystal, experimental, refinement or atomic coordinate data resulting 
# from the CCDC's data processing and validation procedures.
#
#######################################################################

data_NODVUX
_symmetry_cell_setting           monoclinic
_symmetry_space_group_name_H-M   'P 21/b 1 1'
_symmetry_Int_Tables_number      14
_space_group_name_Hall           '-P 2xab'
loop_
_symmetry_equiv_pos_site_id
_symmetry_equiv_pos_as_xyz
1 x,y,z
2 1/2+x,1/2-y,-z
3 -x,-y,-z
4 1/2-x,1/2+y,z
_cell_length_a                   10.137(2)
_cell_length_b                   9.671(2)
_cell_length_c                   6.848(1)
_cell_angle_alpha                101.75(2)
_cell_angle_beta                 90
_cell_angle_gamma                90
_cell_volume                     657.276
loop_
_atom_site_label
_atom_site_type_symbol
_atom_site_fract_x
_atom_site_fract_y
_atom_site_fract_z
Cu1 Cu 0.27602(4) 0.18805(4) 0.34728(5)
O1 O 0.2408(2) 0.1505(2) 0.6221(3)
O2 O 0.1861(3) -0.0202(3) 0.7621(4)
O3 O 0.2137(3) -0.0571(2) 0.4446(3)
N1 N -0.1084(3) -0.2095(3) -0.2122(4)
N2 N 0.2120(3) 0.0212(2) 0.6098(3)
C1 C 0.0296(3) -0.3570(4) 0.2871(5)
C2 C 0.0895(3) -0.3384(3) 0.1195(5)
C3 C 0.0823(3) -0.2047(3) 0.0398(5)
C4 C -0.0246(3) -0.2084(3) -0.1050(4)
H1 H -0.010(4) -0.282(4) 0.378(5)
H2 H 0.023(4) -0.440(4) 0.315(5)
H3 H 0.114(3) -0.412(3) 0.040(5)
H4 H 0.062(4) -0.121(3) 0.156(5)
H5 H 0.148(3) -0.193(3) -0.015(5)
Cu1C Cu 0.22398(4) -0.31195(4) 0.34728(5)
O1C O 0.2592(2) -0.3495(2) 0.6221(3)
Cu1B Cu -0.27602(4) -0.18805(4) -0.34728(5)
N1A N 0.3916(3) -0.2905(3) 0.2122(4)
loop_
_geom_bond_atom_site_label_1
_geom_bond_atom_site_label_2
_geom_bond_site_symmetry_1
_geom_bond_site_symmetry_2
Cu1 O1 1_555 1_555
O1 N2 1_555 1_555
O2 N2 1_555 1_555
O3 N2 1_555 1_555
N1 C4 1_555 1_555
C1 C2 1_555 1_555
C2 C3 1_555 1_555
C3 C4 1_555 1_555
H1 C1 1_555 1_555
H2 C1 1_555 1_555
H3 C2 1_555 1_555
H4 C3 1_555 1_555
H5 C3 1_555 1_555
Cu1C O3 1_555 1_555
O1C Cu1C 1_555 1_555
Cu1B N1 1_555 1_555
N1A Cu1C 1_555 1_555
C1 Cu1C 1_555 1_555
C2 Cu1C 1_555 1_555

#END
