
#######################################################################
#
#                 Cambridge Crystallographic Data Centre
#                                CCDC 
#
#######################################################################
#
# If this CIF has been generated from an entry in the Cambridge 
# Structural Database, then it will include bibliographic, chemical, 
# crystal, experimental, refinement or atomic coordinate data resulting 
# from the CCDC's data processing and validation procedures.
#
#######################################################################

data_NODZEN
_symmetry_cell_setting           triclinic
_symmetry_space_group_name_H-M   'P -1'
_symmetry_Int_Tables_number      2
_space_group_name_Hall           '-P 1'
loop_
_symmetry_equiv_pos_site_id
_symmetry_equiv_pos_as_xyz
1 x,y,z
2 -x,-y,-z
_cell_length_a                   9.8440(5)
_cell_length_b                   10.5676(5)
_cell_length_c                   11.5430(6)
_cell_angle_alpha                105.8870(10)
_cell_angle_beta                 91.7970(10)
_cell_angle_gamma                114.1830(10)
_cell_volume                     1039.38
loop_
_atom_site_label
_atom_site_type_symbol
_atom_site_fract_x
_atom_site_fract_y
_atom_site_fract_z
Zn1 Zn -0.21745(3) 0.40742(3) -0.31962(3)
V1 V -0.84181(5) 0.25564(5) -0.61893(4)
O1 O -0.1743(2) 0.5802(2) -0.39000(17)
N1 N -0.2450(3) 0.2501(3) -0.2272(2)
C1 C -0.3414(3) 0.1133(3) -0.2576(3)
H1 H -0.4079 0.0605 -0.3310
Zn2 Zn 0.0000 0.5000 0.0000
V2 V -0.62127(5) 0.22235(5) -0.39954(4)
O2 O -0.1914(3) 0.2770(2) -0.4855(2)
N2 N -0.1665(3) 0.2868(3) -0.1120(2)
C2 C -0.2207(3) 0.1690(3) -0.0784(3)
H2 H -0.1881 0.1625 -0.0047
V3 V -0.78732(5) -0.12755(5) -0.40862(4)
N3 N -0.3300(3) 0.0596(3) -0.1659(2)
O3 O -0.7955(3) 0.1876(3) -0.7451(3)
C3 C 0.1141(3) 0.5130(3) -0.3487(2)
H3 H 0.0858 0.4924 -0.4318
N4 N -0.4154(3) -0.0803(3) -0.1566(2)
H4 H -0.5036 -0.1012 -0.1763
H5 H -0.3927 -0.1514 -0.2140
C4 C 0.2485(3) 0.5800(3) -0.1730(2)
H6 H 0.3309 0.6151 -0.1120
O4 O -0.7200(3) 0.2772(3) -0.4911(3)
C5 C -0.3462(3) 0.5866(3) -0.1380(2)
H7 H -0.4240 0.5655 -0.1985
O5 O -0.4395(2) 0.3092(3) -0.4007(2)
N5 N 0.0216(3) 0.4940(3) -0.2691(2)
O6 O -0.6490(4) 0.2716(4) -0.2616(3)
N6 N 0.1072(3) 0.5357(3) -0.1568(2)
C6 C -0.1992(3) 0.6754(3) 0.0338(2)
H8 H -0.1550 0.7284 0.1147
N7 N 0.2554(2) 0.5666(2) -0.2917(2)
O7 O -0.6799(3) 0.0292(2) -0.4541(2)
N8 N 0.3902(3) 0.6047(3) -0.3431(2)
H9 H 0.3956 0.6632 -0.3772
H10 H 0.3934 0.5312 -0.3898
O8 O -0.9679(3) -0.1353(3) -0.3824(3)
N9 N -0.2457(3) 0.5360(3) -0.1520(2)
O9 O -0.7002(3) -0.1179(3) -0.2823(2)
N10 N -0.1516(3) 0.5915(3) -0.0411(2)
N11 N -0.3204(3) 0.6744(3) -0.0223(2)
N12 N -0.4140(3) 0.7431(3) 0.0225(2)
H11 H -0.4230 0.7559 0.0898
H12 H -0.3858 0.8315 0.0112
Zn1A Zn -1.78255(3) -0.40742(3) -0.68038(3)
V1A V -1.15819(5) -0.25564(5) -0.38107(4)
O1A O -1.8257(2) -0.5802(2) -0.61000(17)
N1A N -1.7550(3) -0.2501(3) -0.7728(2)
C1A C -1.6586(3) -0.1133(3) -0.7424(3)
H1A H -1.5921 -0.0605 -0.6690
V2A V -1.37873(5) -0.22235(5) -0.60046(4)
O2A O -1.8086(3) -0.2770(2) -0.5145(2)
N2A N -1.8335(3) -0.2868(3) -0.8880(2)
C2A C -1.7793(3) -0.1690(3) -0.9216(3)
H2A H -1.8119 -0.1625 -0.9953
V3A V -1.21268(5) 0.12755(5) -0.59138(4)
N3A N -1.6700(3) -0.0596(3) -0.8341(2)
O3A O -1.2045(3) -0.1876(3) -0.2549(3)
C3A C -2.1141(3) -0.5130(3) -0.6513(2)
H3A H -2.0858 -0.4924 -0.5682
N4A N -1.5846(3) 0.0803(3) -0.8434(2)
H4A H -1.4964 0.1012 -0.8237
H5A H -1.6073 0.1514 -0.7860
C4A C -2.2485(3) -0.5800(3) -0.8270(2)
H6A H -2.3309 -0.6151 -0.8880
O4A O -1.2800(3) -0.2772(3) -0.5089(3)
C5A C -1.6538(3) -0.5866(3) -0.8620(2)
H7A H -1.5760 -0.5655 -0.8015
O5A O -1.5605(2) -0.3092(3) -0.5993(2)
N5A N -2.0216(3) -0.4940(3) -0.7309(2)
O6A O -1.3510(4) -0.2716(4) -0.7384(3)
N6A N -2.1072(3) -0.5357(3) -0.8432(2)
C6A C -1.8008(3) -0.6754(3) -1.0338(2)
H8A H -1.8450 -0.7284 -1.1147
N7A N -2.2554(2) -0.5666(2) -0.7083(2)
O7A O -1.3201(3) -0.0292(2) -0.5459(2)
N8A N -2.3902(3) -0.6047(3) -0.6569(2)
H9A H -2.3956 -0.6632 -0.6228
H10A H -2.3934 -0.5312 -0.6102
O8A O -1.0321(3) 0.1353(3) -0.6176(3)
N9A N -1.7543(3) -0.5360(3) -0.8480(2)
O9A O -1.2998(3) 0.1179(3) -0.7177(2)
N10A N -1.8484(3) -0.5915(3) -0.9589(2)
N11A N -1.6796(3) -0.6744(3) -0.9777(2)
N12A N -1.5860(3) -0.7431(3) -1.0225(2)
H11A H -1.5770 -0.7559 -1.0898
H12A H -1.6142 -0.8315 -1.0112
V1_2 V -1.84181(5) -0.74436(5) -0.61893(4)
V1A_2 V -0.15819(5) 0.74436(5) -0.38107(4)
O1_2 O -1.1743(2) -0.4198(2) -0.39000(17)
O1A_2 O -0.8257(2) 0.4198(2) -0.61000(17)
Zn2_2 Zn -2.0000 -0.5000 -1.0000
O2_2 O -1.1914(3) 0.2770(2) -0.4855(2)
O2A_2 O -0.8086(3) -0.2770(2) -0.5145(2)
N2A_2 N 0.1665(3) 0.7132(3) 0.1120(2)
V3_2 V -1.78732(5) -0.12755(5) -0.40862(4)
V3A_2 V -0.21268(5) 0.12755(5) -0.59138(4)
N6A_2 N -0.1072(3) 0.4643(3) 0.1568(2)
N10A_2 N 0.1516(3) 0.4085(3) 0.0411(2)
O10 O -1.1017(4) 0.0337(4) -0.9072(2)
H13 H -1.1719 -0.0528 -0.9296
H14 H -1.1119 0.0778 -0.8368
O11 O -1.0007(6) 0.1429(6) -0.3085(5)
H15 H -1.0578 0.1843 -0.2865
H16 H -1.0401 0.0593 -0.2985
loop_
_geom_bond_atom_site_label_1
_geom_bond_atom_site_label_2
_geom_bond_site_symmetry_1
_geom_bond_site_symmetry_2
Zn1 O1 1_555 1_555
V1 O3 1_555 1_555
O1 V1A_2 1_555 1_555
N1 Zn1 1_555 1_555
C1 N1 1_555 1_555
H1 C1 1_555 1_555
Zn2 N2 1_555 1_555
V2 O4 1_555 1_555
O2 Zn1 1_555 1_555
N2 N1 1_555 1_555
C2 N2 1_555 1_555
H2 C2 1_555 1_555
V3 O7 1_555 1_555
N3 C1 1_555 1_555
C3 H3 1_555 1_555
N4 N3 1_555 1_555
H4 N4 1_555 1_555
H5 N4 1_555 1_555
C4 H6 1_555 1_555
O4 V1 1_555 1_555
C5 H7 1_555 1_555
O5 Zn1 1_555 1_555
N5 Zn1 1_555 1_555
O6 V2 1_555 1_555
N6 Zn2 1_555 1_555
C6 H8 1_555 1_555
N7 C3 1_555 1_555
O7 V2 1_555 1_555
N8 N7 1_555 1_555
H9 N8 1_555 1_555
H10 N8 1_555 1_555
O8 V3 1_555 1_555
N9 Zn1 1_555 1_555
O9 V3 1_555 1_555
N10 Zn2 1_555 1_555
N11 C5 1_555 1_555
N12 N11 1_555 1_555
H11 N12 1_555 1_555
H12 N12 1_555 1_555
O10 H13 1_555 1_555
H14 O10 1_555 1_555
O11 H15 1_555 1_555
H16 O11 1_555 1_555
Zn1A O1A 1_555 1_555
V1A O8 1_555 1_555
O1A V1_2 1_555 1_555
N1A Zn1A 1_555 1_555
C1A N1A 1_555 1_555
H1A C1A 1_555 1_555
V2A O4A 1_555 1_555
O2A Zn1A 1_555 1_555
N2A N1A 1_555 1_555
C2A N2A 1_555 1_555
H2A C2A 1_555 1_555
V3A O7A 1_555 1_555
N3A C1A 1_555 1_555
O3A V1A 1_555 1_555
C3A H3A 1_555 1_555
N4A N3A 1_555 1_555
H4A N4A 1_555 1_555
H5A N4A 1_555 1_555
C4A H6A 1_555 1_555
O4A V1A 1_555 1_555
C5A H7A 1_555 1_555
O5A Zn1A 1_555 1_555
N5A Zn1A 1_555 1_555
O6A V2A 1_555 1_555
N6A C4A 1_555 1_555
C6A H8A 1_555 1_555
N7A C3A 1_555 1_555
O7A V2A 1_555 1_555
N8A N7A 1_555 1_555
H9A N8A 1_555 1_555
H10A N8A 1_555 1_555
O8A V1 1_555 1_555
N9A Zn1A 1_555 1_555
O9A V3A 1_555 1_555
N10A C6A 1_555 1_555
N11A C5A 1_555 1_555
N12A N11A 1_555 1_555
H11A N12A 1_555 1_555
H12A N12A 1_555 1_555
O1_2 V1A 1_555 1_555
O1A_2 V1 1_555 1_555
Zn2_2 N2A 1_555 1_555
O2_2 V3A 1_555 1_555
O2A_2 V3 1_555 1_555
N2A_2 Zn2 1_555 1_555
V3_2 O2A 1_555 1_555
V3A_2 O2 1_555 1_555
N6A_2 Zn2 1_555 1_555
N10A_2 Zn2 1_555 1_555
V2 O5 1_555 1_555
C2 N3 1_555 1_555
C3 N5 1_555 1_555
C4 N6 1_555 1_555
C4 N7 1_555 1_555
C5 N9 1_555 1_555
N5 N6 1_555 1_555
C6 N10 1_555 1_555
C6 N11 1_555 1_555
N9 N10 1_555 1_555
V2A O5A 1_555 1_555
C2A N3A 1_555 1_555
V3A O8A 1_555 1_555
C3A N5A 1_555 1_555
C4A N7A 1_555 1_555
C5A N9A 1_555 1_555
N5A N6A 1_555 1_555
N6A Zn2_2 1_555 1_555
C6A N11A 1_555 1_555
N9A N10A 1_555 1_555
N10A Zn2_2 1_555 1_555

#END
