
#######################################################################
#
#                 Cambridge Crystallographic Data Centre
#                                CCDC 
#
#######################################################################
#
# If this CIF has been generated from an entry in the Cambridge 
# Structural Database, then it will include bibliographic, chemical, 
# crystal, experimental, refinement or atomic coordinate data resulting 
# from the CCDC's data processing and validation procedures.
#
#######################################################################

data_NODZAJ
_symmetry_cell_setting           triclinic
_symmetry_space_group_name_H-M   'P -1'
_symmetry_Int_Tables_number      2
_space_group_name_Hall           '-P 1'
loop_
_symmetry_equiv_pos_site_id
_symmetry_equiv_pos_as_xyz
1 x,y,z
2 -x,-y,-z
_cell_length_a                   9.8432(7)
_cell_length_b                   10.5655(7)
_cell_length_c                   11.5289(8)
_cell_angle_alpha                105.8110(10)
_cell_angle_beta                 91.5940(10)
_cell_angle_gamma                114.2520(10)
_cell_volume                     1038.38
loop_
_atom_site_label
_atom_site_type_symbol
_atom_site_fract_x
_atom_site_fract_y
_atom_site_fract_z
Co1 Co 0.71518(6) 0.09221(6) 0.31923(5)
V1 V 0.65905(8) -0.24208(7) 0.38104(7)
O1 O 0.6757(3) -0.0768(3) 0.3896(3)
C1 C 0.8438(5) -0.0850(5) 0.1386(4)
H1 H 0.9211 -0.0640 0.1992
N1 N 0.7438(4) -0.0342(4) 0.1527(3)
Co2 Co 0.5000 0.0000 0.0000
V2 V 0.87734(8) -0.27767(7) 0.60103(6)
C2 C 0.6972(5) -0.1749(5) -0.0336(4)
H2 H 0.6530 -0.2285 -0.1144
N2 N 0.6493(4) -0.0904(4) 0.0418(3)
O2 O 0.7038(5) -0.3118(4) 0.2532(4)
V3 V 0.71278(8) -0.62922(7) 0.58952(6)
N3 N 0.8192(4) -0.1726(4) 0.0231(3)
O3 O 0.7822(5) -0.2216(4) 0.5071(4)
C3 C 0.3853(5) -0.0147(5) 0.3470(4)
H3 H 0.4133 0.0040 0.4299
N4 N 0.9122(4) -0.2415(4) -0.0220(4)
H4 H 0.9285 -0.2425 -0.0902
H5 H 0.8744 -0.3292 -0.0112
C4 C 0.2525(5) -0.0791(5) 0.1721(4)
H6 H 0.1705 -0.1139 0.1111
O4 O 0.8441(5) -0.2305(5) 0.7380(4)
C5 C 0.8398(5) 0.3841(5) 0.2567(4)
H7 H 0.9059 0.4365 0.3301
O5 O 1.0598(4) -0.1896(4) 0.6052(3)
N5 N 0.4786(4) 0.0057(4) 0.2677(3)
O6 O 0.8207(4) -0.4709(3) 0.5457(3)
N6 N 0.3928(4) -0.0351(4) 0.1555(3)
C6 C 0.7202(5) 0.3296(5) 0.0787(4)
H8 H 0.6877 0.3367 0.0052
O7 O 0.7991(4) -0.6200(4) 0.7150(3)
N7 N 0.2437(4) -0.0666(4) 0.2909(3)
O8 O 0.5309(4) -0.6388(4) 0.6155(4)
N8 N 0.1081(4) -0.1055(4) 0.3407(3)
H9 H 0.1087 -0.1429 0.3835
H10 H 0.1166 -0.0334 0.3904
O9 O 0.6927(4) -0.7777(3) 0.4826(3)
N9 N 0.7442(4) 0.2477(4) 0.2267(3)
N10 N 0.6660(4) 0.2117(4) 0.1113(3)
N11 N 0.8293(4) 0.4389(4) 0.1661(3)
N12 N 0.9148(4) 0.5803(4) 0.1575(4)
H11 H 1.0062 0.6003 0.1768
H12 H 0.8819 0.6470 0.2056
Co1A Co 0.28482(6) -1.09221(6) 0.68077(5)
V1A V 0.34095(8) -0.75792(7) 0.61896(7)
O1A O 0.3243(3) -0.9232(3) 0.6104(3)
C1A C 0.1562(5) -0.9150(5) 0.8614(4)
H1A H 0.0789 -0.9360 0.8008
N1A N 0.2562(4) -0.9658(4) 0.8473(3)
V2A V 0.12266(8) -0.72233(7) 0.39897(6)
C2A C 0.3028(5) -0.8251(5) 1.0336(4)
H2A H 0.3470 -0.7715 1.1144
N2A N 0.3507(4) -0.9096(4) 0.9582(3)
O2A O 0.2962(5) -0.6882(4) 0.7468(4)
V3A V 0.28722(8) -0.37078(7) 0.41048(6)
N3A N 0.1808(4) -0.8274(4) 0.9769(3)
O3A O 0.2178(5) -0.7784(4) 0.4929(4)
C3A C 0.6147(5) -0.9853(5) 0.6530(4)
H3A H 0.5867 -1.0040 0.5701
N4A N 0.0878(4) -0.7585(4) 1.0220(4)
H4A H 0.0715 -0.7575 1.0902
H5A H 0.1256 -0.6708 1.0112
C4A C 0.7475(5) -0.9209(5) 0.8279(4)
H6A H 0.8295 -0.8861 0.8889
O4A O 0.1559(5) -0.7695(5) 0.2620(4)
C5A C 0.1602(5) -1.3841(5) 0.7433(4)
H7A H 0.0941 -1.4365 0.6699
O5A O -0.0598(4) -0.8104(4) 0.3948(3)
N5A N 0.5214(4) -1.0057(4) 0.7323(3)
O6A O 0.1793(4) -0.5291(3) 0.4543(3)
N6A N 0.6072(4) -0.9649(4) 0.8445(3)
C6A C 0.2798(5) -1.3296(5) 0.9213(4)
H8A H 0.3123 -1.3367 0.9948
O7A O 0.2009(4) -0.3800(4) 0.2850(3)
N7A N 0.7563(4) -0.9334(4) 0.7091(3)
O8A O 0.4691(4) -0.3612(4) 0.3845(4)
N8A N 0.8919(4) -0.8945(4) 0.6593(3)
H9A H 0.8913 -0.8571 0.6165
H10A H 0.8834 -0.9666 0.6096
O9A O 0.3073(4) -0.2223(3) 0.5174(3)
N9A N 0.2558(4) -1.2477(4) 0.7733(3)
N10A N 0.3340(4) -1.2117(4) 0.8887(3)
N11A N 0.1707(4) -1.4389(4) 0.8339(3)
N12A N 0.0852(4) -1.5803(4) 0.8425(4)
H11A H -0.0062 -1.6003 0.8232
H12A H 0.1181 -1.6470 0.7944
Co1_2 Co -0.28482(6) -0.90779(6) 0.31923(5)
Co1_3 Co 0.71518(6) -0.90779(6) 0.31923(5)
Co1A_2 Co 0.28482(6) -0.09221(6) 0.68077(5)
Co1A_3 Co 1.28482(6) -0.09221(6) 0.68077(5)
Co2_2 Co 0.5000 -1.0000 1.0000
N2A_2 N 0.3507(4) 0.0904(4) -0.0418(3)
O5_2 O 0.0598(4) -1.1896(4) 0.6052(3)
O5A_2 O 0.9402(4) 0.1896(4) 0.3948(3)
N6A_2 N 0.6072(4) 0.0351(4) -0.1555(3)
O9_2 O 0.6927(4) 0.2223(3) 0.4826(3)
O9A_2 O 0.3073(4) -1.2223(3) 0.5174(3)
N10A_2 N 0.3340(4) -0.2117(4) -0.1113(3)
O10 O 0.3958(5) -0.4695(5) 0.0922(4)
H13 H 0.3578 -0.4501 0.1562
H14 H 0.4912 -0.4237 0.1114
O11 O 0.4961(8) -0.3574(8) 0.6950(7)
H15 H 0.5023 -0.4376 0.6662
H16 H 0.4051 -0.3776 0.7048
loop_
_geom_bond_atom_site_label_1
_geom_bond_atom_site_label_2
_geom_bond_site_symmetry_1
_geom_bond_site_symmetry_2
Co1 O1 1_555 1_555
V1 O1 1_555 1_555
C1 H1 1_555 1_555
N1 Co1 1_555 1_555
Co2 N2 1_555 1_555
V2 O3 1_555 1_555
C2 H2 1_555 1_555
N2 N1 1_555 1_555
O2 V1 1_555 1_555
V3 O6 1_555 1_555
N3 C1 1_555 1_555
O3 V1 1_555 1_555
C3 H3 1_555 1_555
N4 N3 1_555 1_555
H4 N4 1_555 1_555
H5 N4 1_555 1_555
C4 H6 1_555 1_555
O4 V2 1_555 1_555
C5 H7 1_555 1_555
O5 V2 1_555 1_555
N5 Co1 1_555 1_555
O6 V2 1_555 1_555
N6 Co2 1_555 1_555
C6 H8 1_555 1_555
O7 V3 1_555 1_555
N7 C3 1_555 1_555
O8 V3 1_555 1_555
N8 N7 1_555 1_555
H9 N8 1_555 1_555
H10 N8 1_555 1_555
O9 V3 1_555 1_555
N9 Co1 1_555 1_555
N10 Co2 1_555 1_555
N11 C5 1_555 1_555
N12 N11 1_555 1_555
H11 N12 1_555 1_555
H12 N12 1_555 1_555
O10 H13 1_555 1_555
H14 O10 1_555 1_555
O11 H15 1_555 1_555
H16 O11 1_555 1_555
Co1A O1A 1_555 1_555
V1A O8 1_555 1_555
O1A V1A 1_555 1_555
C1A H1A 1_555 1_555
N1A Co1A 1_555 1_555
V2A O3A 1_555 1_555
C2A H2A 1_555 1_555
N2A N1A 1_555 1_555
O2A V1A 1_555 1_555
V3A O6A 1_555 1_555
N3A C1A 1_555 1_555
O3A V1A 1_555 1_555
C3A H3A 1_555 1_555
N4A N3A 1_555 1_555
H4A N4A 1_555 1_555
H5A N4A 1_555 1_555
C4A H6A 1_555 1_555
O4A V2A 1_555 1_555
C5A H7A 1_555 1_555
O5A V2A 1_555 1_555
N5A Co1A 1_555 1_555
O6A V2A 1_555 1_555
N6A C4A 1_555 1_555
C6A H8A 1_555 1_555
O7A V3A 1_555 1_555
N7A C3A 1_555 1_555
O8A V1 1_555 1_555
N8A N7A 1_555 1_555
H9A N8A 1_555 1_555
H10A N8A 1_555 1_555
O9A V3A 1_555 1_555
N9A Co1A 1_555 1_555
N10A C6A 1_555 1_555
N11A C5A 1_555 1_555
N12A N11A 1_555 1_555
H11A N12A 1_555 1_555
H12A N12A 1_555 1_555
Co1_2 O5A 1_555 1_555
Co1_3 O9 1_555 1_555
Co1A_2 O9A 1_555 1_555
Co1A_3 O5 1_555 1_555
Co2_2 N2A 1_555 1_555
N2A_2 Co2 1_555 1_555
O5_2 Co1A 1_555 1_555
O5A_2 Co1 1_555 1_555
N6A_2 Co2 1_555 1_555
O9_2 Co1 1_555 1_555
O9A_2 Co1A 1_555 1_555
N10A_2 Co2 1_555 1_555
C1 N1 1_555 1_555
C2 N2 1_555 1_555
C2 N3 1_555 1_555
C3 N5 1_555 1_555
C4 N6 1_555 1_555
C4 N7 1_555 1_555
C5 N9 1_555 1_555
N5 N6 1_555 1_555
C6 N10 1_555 1_555
C6 N11 1_555 1_555
N9 N10 1_555 1_555
C1A N1A 1_555 1_555
C2A N2A 1_555 1_555
C2A N3A 1_555 1_555
V3A O8A 1_555 1_555
C3A N5A 1_555 1_555
C4A N7A 1_555 1_555
C5A N9A 1_555 1_555
N5A N6A 1_555 1_555
N6A Co2_2 1_555 1_555
C6A N11A 1_555 1_555
N9A N10A 1_555 1_555
N10A Co2_2 1_555 1_555

#END
