
#######################################################################
#
#                 Cambridge Crystallographic Data Centre
#                                CCDC 
#
#######################################################################
#
# If this CIF has been generated from an entry in the Cambridge 
# Structural Database, then it will include bibliographic, chemical, 
# crystal, experimental, refinement or atomic coordinate data resulting 
# from the CCDC's data processing and validation procedures.
#
#######################################################################

data_NOFCUG
_symmetry_cell_setting           triclinic
_symmetry_space_group_name_H-M   'P -1'
_symmetry_Int_Tables_number      2
_space_group_name_Hall           '-P 1'
loop_
_symmetry_equiv_pos_site_id
_symmetry_equiv_pos_as_xyz
1 x,y,z
2 -x,-y,-z
_cell_length_a                   9.914(2)
_cell_length_b                   11.540(2)
_cell_length_c                   13.281(2)
_cell_angle_alpha                82.73(1)
_cell_angle_beta                 80.80(2)
_cell_angle_gamma                79.04(1)
_cell_volume                     1465.28
loop_
_atom_site_label
_atom_site_type_symbol
_atom_site_fract_x
_atom_site_fract_y
_atom_site_fract_z
Tl1 Tl 0.3360(1) 0.2872(1) -0.3221(1)
Tl2 Tl 0.1541(1) 0.1688(1) -0.0450(1)
Tl3 Tl 0.5540(1) 0.1969(1) -0.0372(1)
O1 O 0.331(1) 0.3286(8) -0.1288(8)
O2 O 0.225(2) 0.692(1) -0.013(1)
O3 O 0.129(1) 0.1804(9) -0.2471(9)
O4 O -0.335(1) 0.268(1) -0.2479(9)
O5 O 0.401(1) 0.0522(9) -0.1206(8)
O6 O 0.549(1) 0.1206(9) -0.4158(7)
N1 N 0.286(1) 0.4428(9) -0.1496(9)
N2 N 0.381(2) 0.420(1) 0.092(1)
N3 N 0.026(1) 0.248(1) -0.2874(9)
N4 N -0.134(1) 0.059(1) -0.106(1)
N5 N 0.440(1) 0.076(1) -0.2191(8)
N6 N 0.680(1) -0.148(1) -0.133(1)
C1 C 0.286(1) 0.509(1) -0.077(1)
C2 C 0.236(2) 0.640(1) -0.087(1)
C3 C 0.333(2) 0.460(1) 0.020(1)
C4 C 0.203(2) 0.705(1) -0.192(1)
C5 C 0.176(2) 0.838(1) -0.179(2)
C6 C 0.078(2) 0.669(2) -0.220(2)
C7 C 0.331(2) 0.677(2) -0.272(1)
C8 C -0.099(1) 0.227(1) -0.251(1)
C9 C -0.224(1) 0.294(1) -0.291(1)
C10 C -0.118(2) 0.131(1) -0.168(1)
C11 C -0.217(2) 0.397(1) -0.370(1)
C12 C -0.361(2) 0.447(2) -0.395(2)
C13 C -0.149(2) 0.492(2) -0.342(2)
C14 C -0.134(2) 0.349(2) -0.470(1)
C15 C 0.559(1) 0.009(1) -0.2571(8)
C16 C 0.609(1) 0.032(1) -0.3686(9)
C17 C 0.630(1) -0.078(1) -0.190(1)
C18 C 0.731(1) -0.048(1) -0.422(1)
C19 C 0.700(2) -0.173(1) -0.409(1)
C20 C 0.861(1) -0.042(1) -0.378(1)
C21 C 0.749(2) -0.005(1) -0.536(1)
O2A O 0.775(2) 0.308(1) 0.013(1)
Tl3A Tl 0.4460(1) 0.8031(1) 0.0372(1)
N6A N 0.320(1) 0.148(1) 0.133(1)
Tl2A Tl 0.8459(1) -0.1688(1) 0.0450(1)
Tl3A_2 Tl 0.4460(1) -0.1969(1) 0.0372(1)
O4_2 O 0.665(1) 0.268(1) -0.2479(9)
N4A N 0.134(1) -0.059(1) 0.106(1)
Tl3_2 Tl -0.4460(1) 0.1969(1) -0.0372(1)
Tl2A_2 Tl -0.1541(1) -0.1688(1) 0.0450(1)
loop_
_geom_bond_atom_site_label_1
_geom_bond_atom_site_label_2
_geom_bond_site_symmetry_1
_geom_bond_site_symmetry_2
Tl1 O1 1_555 1_555
Tl2 O1 1_555 1_555
Tl3 O1 1_555 1_555
O1 N1 1_555 1_555
O2 C2 1_555 1_555
O3 Tl1 1_555 1_555
O4 C9 1_555 1_555
O5 Tl2 1_555 1_555
O6 Tl1 1_555 1_555
N1 C1 1_555 1_555
N2 C3 1_555 1_555
N3 O3 1_555 1_555
N4 C10 1_555 1_555
N5 Tl1 1_555 1_555
N6 C17 1_555 1_555
C1 C2 1_555 1_555
C2 C4 1_555 1_555
C3 C1 1_555 1_555
C4 C5 1_555 1_555
C6 C4 1_555 1_555
C7 C4 1_555 1_555
C8 N3 1_555 1_555
C9 C8 1_555 1_555
C10 C8 1_555 1_555
C11 C9 1_555 1_555
C12 C11 1_555 1_555
C13 C11 1_555 1_555
C14 C11 1_555 1_555
C15 N5 1_555 1_555
C16 O6 1_555 1_555
C17 C15 1_555 1_555
C18 C16 1_555 1_555
C19 C18 1_555 1_555
C20 C18 1_555 1_555
C21 C18 1_555 1_555
O2A Tl3 1_555 1_555
Tl3A O2 1_555 1_555
N6A Tl2 1_555 1_555
Tl2A N6 1_555 1_555
Tl3A_2 N6 1_555 1_555
O4_2 Tl3 1_555 1_555
N4A Tl2 1_555 1_555
Tl3_2 O4 1_555 1_555
Tl2A_2 N4 1_555 1_555
Tl2 O3 1_555 1_555
Tl3 O5 1_555 1_555
Tl3 N6A 1_555 1_555
O5 N5 1_555 1_555
C15 C16 1_555 1_555

#END
