
#######################################################################
#
#                 Cambridge Crystallographic Data Centre
#                                CCDC 
#
#######################################################################
#
# If this CIF has been generated from an entry in the Cambridge 
# Structural Database, then it will include bibliographic, chemical, 
# crystal, experimental, refinement or atomic coordinate data resulting 
# from the CCDC's data processing and validation procedures.
#
#######################################################################

data_NOFDIW
_symmetry_cell_setting           triclinic
_symmetry_space_group_name_H-M   'P -1'
_symmetry_Int_Tables_number      2
_space_group_name_Hall           '-P 1'
loop_
_symmetry_equiv_pos_site_id
_symmetry_equiv_pos_as_xyz
1 x,y,z
2 -x,-y,-z
_cell_length_a                   6.688(5)
_cell_length_b                   10.591(6)
_cell_length_c                   12.100(7)
_cell_angle_alpha                113.01(3)
_cell_angle_beta                 105.08(4)
_cell_angle_gamma                93.93(5)
_cell_volume                     747.612
loop_
_atom_site_label
_atom_site_type_symbol
_atom_site_fract_x
_atom_site_fract_y
_atom_site_fract_z
Cu1 Cu 0.59909(6) 0.37559(4) 0.40734(4)
Cu2 Cu 0.59417(7) 0.13287(4) 0.14596(4)
O1 O 0.5119(4) 0.1775(2) 0.2982(2)
O2 O 0.4580(4) 0.4346(2) 0.2768(2)
O3 O 0.4106(4) 0.2486(3) 0.0922(2)
N1 N 0.7074(5) 0.3181(3) 0.5521(3)
H1 H 0.662(3) 0.3666(13) 0.6264(13)
H2 H 0.8540(14) 0.3107(17) 0.5886(16)
N2 N 0.7742(5) 0.0116(3) 0.2092(3)
H3 H 0.6983(16) -0.0774(8) 0.1668(10)
N3 N 0.6915(5) 0.0918(3) -0.0034(3)
N4 N 0.6934(5) 0.1702(3) -0.0508(3)
N5 N 0.6925(7) 0.2390(5) -0.1064(4)
N6 N 0.7284(5) 0.5778(3) 0.5184(3)
N7 N 0.8913(5) 0.6082(3) 0.6037(3)
N8 N 1.0459(6) 0.6399(4) 0.6841(4)
C1 C 0.5874(7) 0.1672(4) 0.4971(4)
H4 H 0.6578 0.1190 0.5450
H5 H 0.4451 0.1672 0.5024
C2 C 0.5800(6) 0.0933(4) 0.3612(4)
H6 H 0.4753 0.0063 0.3218
C3 C 0.7887(6) 0.0565(4) 0.3421(4)
H7 H 0.9013 0.1375 0.3943
H8 H 0.8214 -0.0178 0.3676
C4 C 0.9806(7) 0.0049(5) 0.1877(4)
H9 H 0.9618 -0.0254 0.0992
H10 H 1.0451 -0.0601 0.2157
H11 H 1.0696 0.0958 0.2342
C5 C 0.3689(6) 0.3636(4) 0.1580(3)
C6 C 0.2110(8) 0.4223(5) 0.0935(4)
H12 H 0.1813 0.5025 0.1550
H13 H 0.0838 0.3532 0.0451
H14 H 0.2644 0.4494 0.0381
Cu1A Cu 0.40091(6) 0.62441(4) 0.59266(4)
Cu2A Cu 0.40583(7) -0.13287(4) -0.14596(4)
N3A N 0.3085(5) -0.0918(3) 0.0034(3)
N6A N 0.2716(5) 0.4222(3) 0.4816(3)
O4 O 0.1501(5) 0.2986(4) 0.6363(3)
H15 H 0.005(3) 0.304(5) 0.607(5)
C7 C 0.2031(8) 0.3472(6) 0.7689(5)
H16 H 0.1420 0.2771 0.7885
H17 H 0.1496 0.4311 0.8029
H18 H 0.3537 0.3664 0.8054
loop_
_geom_bond_atom_site_label_1
_geom_bond_atom_site_label_2
_geom_bond_site_symmetry_1
_geom_bond_site_symmetry_2
Cu1 O1 1_555 1_555
Cu2 O1 1_555 1_555
O1 C2 1_555 1_555
O2 Cu1 1_555 1_555
O3 Cu2 1_555 1_555
N1 Cu1 1_555 1_555
H1 N1 1_555 1_555
H2 N1 1_555 1_555
N2 Cu2 1_555 1_555
H3 N2 1_555 1_555
N3 Cu2 1_555 1_555
N4 N3 1_555 1_555
N5 N4 1_555 1_555
N6 Cu1 1_555 1_555
N7 N6 1_555 1_555
N8 N7 1_555 1_555
C1 N1 1_555 1_555
H4 C1 1_555 1_555
H5 C1 1_555 1_555
C2 C1 1_555 1_555
H6 C2 1_555 1_555
C3 N2 1_555 1_555
H7 C3 1_555 1_555
H8 C3 1_555 1_555
C4 N2 1_555 1_555
H9 C4 1_555 1_555
H10 C4 1_555 1_555
H11 C4 1_555 1_555
C5 O2 1_555 1_555
C6 C5 1_555 1_555
H12 C6 1_555 1_555
H13 C6 1_555 1_555
H14 C6 1_555 1_555
O4 H15 1_555 1_555
C7 O4 1_555 1_555
H16 C7 1_555 1_555
H17 C7 1_555 1_555
H18 C7 1_555 1_555
Cu1A N6 1_555 1_555
Cu2A N3 1_555 1_555
N3A Cu2 1_555 1_555
N6A Cu1 1_555 1_555
O3 C5 1_555 1_555
C2 C3 1_555 1_555
Cu1A N6A 1_555 1_555
Cu2A N3A 1_555 1_555

#END
