
#######################################################################
#
#                 Cambridge Crystallographic Data Centre
#                                CCDC 
#
#######################################################################
#
# If this CIF has been generated from an entry in the Cambridge 
# Structural Database, then it will include bibliographic, chemical, 
# crystal, experimental, refinement or atomic coordinate data resulting 
# from the CCDC's data processing and validation procedures.
#
#######################################################################

data_NOFGEV
_symmetry_cell_setting           orthorhombic
_symmetry_space_group_name_H-M   'P c a 21'
_symmetry_Int_Tables_number      29
_space_group_name_Hall           'P 2c -2ac'
loop_
_symmetry_equiv_pos_site_id
_symmetry_equiv_pos_as_xyz
1 x,y,z
2 -x,-y,1/2+z
3 1/2+x,-y,z
4 1/2-x,y,1/2+z
_cell_length_a                   19.2126(3)
_cell_length_b                   9.9381(2)
_cell_length_c                   21.4194(4)
_cell_angle_alpha                90
_cell_angle_beta                 90
_cell_angle_gamma                90
_cell_volume                     4089.75
loop_
_atom_site_label
_atom_site_type_symbol
_atom_site_fract_x
_atom_site_fract_y
_atom_site_fract_z
Mn1 Mn 0.07784(3) 0.45001(7) -0.60256(3)
Mn2 Mn 0.06726(3) 0.05066(7) -0.01365(3)
Mn3 Mn 0.08927(2) 0.25790(8) -0.30685(6)
C1 C -0.0254(2) 0.2492(5) -0.5521(3)
C2 C 0.0214(2) 0.2762(5) -0.4978(2)
C3 C 0.0278(2) 0.2271(5) -0.4369(3)
C4 C -0.0005(2) 0.1101(4) -0.3991(3)
C5 C -0.0350(2) 0.2485(4) -0.0662(3)
C6 C 0.0122(2) 0.2250(5) -0.1203(2)
C7 C 0.0202(2) 0.2760(5) -0.1795(2)
C8 C -0.0082(2) 0.3905(5) -0.2145(2)
C9 C 0.0873(3) 0.1419(6) -0.6584(3)
H1 H 0.0392 0.1502 -0.6608
C10 C 0.1174(3) 0.0168(5) -0.6741(3)
H2 H 0.0899 -0.0569 -0.6844
C11 C 0.1891(3) 0.0077(6) -0.6737(3)
H3 H 0.2113 -0.0716 -0.6854
C12 C 0.2272(3) 0.1185(5) -0.6556(3)
H4 H 0.2754 0.1128 -0.6536
C13 C 0.1948(2) 0.2376(4) -0.6403(3)
C14 C 0.2328(2) 0.3598(5) -0.6233(2)
C15 C 0.3045(2) 0.3694(5) -0.6270(3)
H5 H 0.3307 0.2947 -0.6385
C16 C 0.3369(3) 0.4878(6) -0.6138(3)
H6 H 0.3850 0.4948 -0.6171
C17 C 0.2995(3) 0.5931(6) -0.5961(4)
H7 H 0.3209 0.6740 -0.5858
C18 C 0.2283(3) 0.5805(5) -0.5934(4)
H8 H 0.2022 0.6559 -0.5826
C19 C 0.1910(3) 0.0093(6) -0.3312(3)
H9 H 0.1494 -0.0381 -0.3336
C20 C 0.2531(4) -0.0596(6) -0.3441(3)
H10 H 0.2534 -0.1503 -0.3548
C21 C 0.3138(4) 0.0144(8) -0.3402(3)
H11 H 0.3561 -0.0272 -0.3490
C22 C 0.3134(3) 0.1484(6) -0.3238(2)
H12 H 0.3545 0.1974 -0.3210
C23 C 0.2494(3) 0.2079(4) -0.3114(3)
C24 C 0.2439(3) 0.3503(4) -0.2938(2)
C25 C 0.3003(3) 0.4282(7) -0.2792(3)
H13 H 0.3449 0.3917 -0.2802
C26 C 0.2908(4) 0.5606(7) -0.2631(3)
H14 H 0.3291 0.6140 -0.2536
C27 C 0.2259(3) 0.6142(6) -0.2609(3)
H15 H 0.2186 0.7038 -0.2502
C28 C 0.1694(3) 0.5272(5) -0.2756(3)
H16 H 0.1243 0.5610 -0.2739
C29 C 0.0724(3) 0.3567(6) 0.0433(3)
H17 H 0.0242 0.3495 0.0410
C30 C 0.1004(3) 0.4742(6) 0.0653(3)
H18 H 0.0718 0.5422 0.0805
C31 C 0.1699(4) 0.4898(7) 0.0645(4)
H19 H 0.1898 0.5713 0.0762
C32 C 0.2111(3) 0.3844(5) 0.0461(3)
H20 H 0.2594 0.3916 0.0467
C33 C 0.1791(3) 0.2674(4) 0.0269(2)
C34 C 0.2209(2) 0.1449(5) 0.0106(2)
C35 C 0.2924(3) 0.1425(5) 0.0132(3)
H21 H 0.3166 0.2207 0.0232
C36 C 0.3281(3) 0.0273(6) 0.0013(3)
H22 H 0.3764 0.0261 0.0024
C37 C 0.2905(3) -0.0892(6) -0.0125(4)
H23 H 0.3129 -0.1707 -0.0196
C38 C 0.2175(3) -0.0788(5) -0.0154(4)
H24 H 0.1920 -0.1554 -0.0254
N1 N 0.06620(18) 0.3804(4) -0.5025(2)
N2 N 0.09812(19) 0.3989(4) -0.4480(2)
N3 N 0.07539(19) 0.3081(4) -0.4069(2)
N4 N 0.05641(19) 0.1197(4) -0.1140(2)
N5 N 0.08983(19) 0.1048(4) -0.1683(2)
N6 N 0.06823(19) 0.1989(4) -0.2081(2)
N7 N 0.1241(2) 0.2487(3) -0.6403(2)
N8 N 0.19460(17) 0.4655(4) -0.6053(2)
N9 N 0.1104(3) 0.2528(3) 0.0250(2)
N10 N 0.18293(17) 0.0356(4) -0.0046(2)
N11 N 0.1886(2) 0.1400(4) -0.31555(19)
N12 N 0.1788(2) 0.3987(4) -0.2919(2)
O1 O -0.06577(16) 0.1518(3) -0.55089(18)
O2 O -0.01938(14) 0.3300(3) -0.59660(17)
O3 O -0.03843(17) 0.0255(3) -0.42622(15)
O4 O 0.01710(18) 0.1081(4) -0.34362(17)
O5 O -0.03124(14) 0.1647(3) -0.02254(18)
O6 O -0.07519(15) 0.3479(3) -0.06693(18)
O7 O -0.04841(17) 0.4743(3) -0.19076(16)
O8 O 0.01177(17) 0.4002(3) -0.27143(17)
Mn1A Mn -0.07784(3) 0.54999(7) -0.10256(3)
Mn2A Mn -0.06726(3) -0.05066(7) -0.51365(3)
O1A O 0.06577(16) -0.1518(3) -0.05089(18)
O3A O 0.03843(17) -0.0255(3) 0.07378(15)
O6A O 0.07519(15) 0.6521(3) -0.56693(18)
O7A O 0.04841(17) 0.5257(3) -0.69076(16)
O9 O -0.1018(3) 0.1849(5) -0.6989(2)
O10 O 0.1824(7) 0.636(2) -0.4238(4)
O11 O 0.0805(4) 0.7992(8) -0.3940(4)
O12 O 0.0181(5) -0.6913(12) -0.8013(6)
O13? O 0.140(4) 0.692(3) -0.4156(13)
O14? O -0.0003(10) -0.8373(17) -0.7979(10)
loop_
_geom_bond_atom_site_label_1
_geom_bond_atom_site_label_2
_geom_bond_site_symmetry_1
_geom_bond_site_symmetry_2
Mn1 N1 1_555 1_555
Mn2 N4 1_555 1_555
Mn3 N3 1_555 1_555
C1 C2 1_555 1_555
C2 C3 1_555 1_555
C3 C4 1_555 1_555
C4 O3 1_555 1_555
C5 C6 1_555 1_555
C6 C7 1_555 1_555
C7 C8 1_555 1_555
C8 O7 1_555 1_555
C9 H1 1_555 1_555
C10 C9 1_555 1_555
H2 C10 1_555 1_555
C11 C10 1_555 1_555
H3 C11 1_555 1_555
C12 C11 1_555 1_555
H4 C12 1_555 1_555
C13 C12 1_555 1_555
C14 C13 1_555 1_555
C15 C14 1_555 1_555
H5 C15 1_555 1_555
C16 C15 1_555 1_555
H6 C16 1_555 1_555
C17 C16 1_555 1_555
H7 C17 1_555 1_555
C18 C17 1_555 1_555
H8 C18 1_555 1_555
C19 H9 1_555 1_555
C20 C19 1_555 1_555
H10 C20 1_555 1_555
C21 C20 1_555 1_555
H11 C21 1_555 1_555
C22 C21 1_555 1_555
H12 C22 1_555 1_555
C23 C22 1_555 1_555
C24 C23 1_555 1_555
C25 C24 1_555 1_555
H13 C25 1_555 1_555
C26 C25 1_555 1_555
H14 C26 1_555 1_555
C27 C26 1_555 1_555
H15 C27 1_555 1_555
C28 C27 1_555 1_555
H16 C28 1_555 1_555
C29 H17 1_555 1_555
C30 C29 1_555 1_555
H18 C30 1_555 1_555
C31 C30 1_555 1_555
H19 C31 1_555 1_555
C32 C31 1_555 1_555
H20 C32 1_555 1_555
C33 C32 1_555 1_555
C34 C33 1_555 1_555
C35 C34 1_555 1_555
H21 C35 1_555 1_555
C36 C35 1_555 1_555
H22 C36 1_555 1_555
C37 C36 1_555 1_555
H23 C37 1_555 1_555
C38 C37 1_555 1_555
H24 C38 1_555 1_555
N1 C2 1_555 1_555
N2 N1 1_555 1_555
N3 C3 1_555 1_555
N4 C6 1_555 1_555
N5 N4 1_555 1_555
N6 Mn3 1_555 1_555
N7 Mn1 1_555 1_555
N8 Mn1 1_555 1_555
N9 Mn2 1_555 1_555
N10 Mn2 1_555 1_555
N11 Mn3 1_555 1_555
N12 Mn3 1_555 1_555
O1 C1 1_555 1_555
O2 Mn1 1_555 1_555
O3 Mn2A 1_555 1_555
O4 Mn3 1_555 1_555
O5 Mn2 1_555 1_555
O6 C5 1_555 1_555
O7 Mn1A 1_555 1_555
O8 Mn3 1_555 1_555
Mn1A O6 1_555 1_555
Mn2A O1 1_555 1_555
O1A Mn2 1_555 1_555
O3A Mn2 1_555 1_555
O6A Mn1 1_555 1_555
O7A Mn1 1_555 1_555
C1 O2 1_555 1_555
C4 O4 1_555 1_555
C5 O5 1_555 1_555
C7 N6 1_555 1_555
C8 O8 1_555 1_555
C9 N7 1_555 1_555
C13 N7 1_555 1_555
C14 N8 1_555 1_555
C18 N8 1_555 1_555
C19 N11 1_555 1_555
C23 N11 1_555 1_555
C24 N12 1_555 1_555
C28 N12 1_555 1_555
C29 N9 1_555 1_555
C33 N9 1_555 1_555
C34 N10 1_555 1_555
C38 N10 1_555 1_555
N2 N3 1_555 1_555
N5 N6 1_555 1_555

#END
