
#######################################################################
#
#                 Cambridge Crystallographic Data Centre
#                                CCDC 
#
#######################################################################
#
# If this CIF has been generated from an entry in the Cambridge 
# Structural Database, then it will include bibliographic, chemical, 
# crystal, experimental, refinement or atomic coordinate data resulting 
# from the CCDC's data processing and validation procedures.
#
#######################################################################

data_NOFGAR
_symmetry_cell_setting           orthorhombic
_symmetry_space_group_name_H-M   'P 21 21 21'
_symmetry_Int_Tables_number      19
_space_group_name_Hall           'P 2ac 2ab'
loop_
_symmetry_equiv_pos_site_id
_symmetry_equiv_pos_as_xyz
1 x,y,z
2 1/2-x,-y,1/2+z
3 -x,1/2+y,1/2-z
4 1/2+x,1/2-y,-z
_cell_length_a                   9.8878(2)
_cell_length_b                   20.1939(3)
_cell_length_c                   21.1225(4)
_cell_angle_alpha                90
_cell_angle_beta                 90
_cell_angle_gamma                90
_cell_volume                     4217.6
loop_
_atom_site_label
_atom_site_type_symbol
_atom_site_fract_x
_atom_site_fract_y
_atom_site_fract_z
Mn1 Mn -0.20834(4) 0.31804(2) -0.54915(2)
Mn2 Mn -0.01573(3) 0.34791(2) -0.25109(2)
Mn3 Mn 0.21266(4) 0.32037(2) 0.04441(2)
C1 C -0.0024(3) 0.22747(16) -0.49164(16)
C2 C -0.0250(3) 0.27615(15) -0.44009(14)
C3 C 0.0242(3) 0.28620(16) -0.37974(14)
C4 C 0.1396(3) 0.26178(15) -0.34106(14)
C5 C -0.3688(4) 0.4560(2) -0.56260(17)
H1 H -0.4444 0.4292 -0.5570
C6 C -0.3880(6) 0.5242(3) -0.5665(2)
H2 H -0.4743 0.5423 -0.5645
C7 C -0.2786(7) 0.5631(2) -0.5731(2)
H3 H -0.2891 0.6089 -0.5740
C8 C -0.1489(6) 0.5356(2) -0.5788(2)
C9 C -0.0285(7) 0.5727(3) -0.5881(2)
H4 H -0.0335 0.6187 -0.5878
C10 C 0.0888(7) 0.5446(4) -0.5972(3)
H5 H 0.1647 0.5709 -0.6038
C11 C 0.1029(5) 0.4737(3) -0.59720(19)
C12 C 0.2254(6) 0.4394(4) -0.6082(3)
H6 H 0.3041 0.4633 -0.6163
C13 C 0.2300(5) 0.3724(4) -0.6071(3)
H7 H 0.3108 0.3500 -0.6142
C14 C 0.1080(4) 0.3372(3) -0.59498(19)
H8 H 0.1109 0.2912 -0.5943
C15 C -0.0120(4) 0.4331(3) -0.58599(18)
C16 C -0.1382(5) 0.46592(18) -0.57642(16)
C17 C -0.1405(3) 0.25146(15) -0.15955(14)
C18 C -0.0303(3) 0.28328(16) -0.12158(14)
C19 C 0.0262(3) 0.27492(15) -0.06195(15)
C20 C 0.0080(3) 0.22760(17) -0.00865(15)
C21 C -0.3165(3) 0.40854(17) -0.23963(18)
H9 H -0.3432 0.3644 -0.2402
C22 C -0.4164(3) 0.4585(2) -0.23523(18)
H10 H -0.5076 0.4474 -0.2327
C23 C -0.3768(4) 0.5233(2) -0.23479(17)
H11 H -0.4412 0.5567 -0.2322
C24 C -0.2408(3) 0.53913(17) -0.23824(16)
C25 C -0.1920(4) 0.60425(18) -0.23887(19)
H12 H -0.2530 0.6388 -0.2332
C26 C -0.0614(4) 0.61860(18) -0.24725(19)
H13 H -0.0334 0.6625 -0.2481
C27 C 0.0345(3) 0.56712(17) -0.25490(18)
C28 C 0.1734(4) 0.57958(19) -0.26696(18)
H14 H 0.2053 0.6228 -0.2701
C29 C 0.2595(4) 0.52706(19) -0.27390(16)
H15 H 0.3507 0.5342 -0.2824
C30 C 0.2092(3) 0.46174(18) -0.26805(16)
H16 H 0.2690 0.4264 -0.2715
C31 C -0.0072(3) 0.50096(15) -0.25206(16)
C32 C -0.1478(3) 0.48652(16) -0.24342(16)
C33 C -0.1058(4) 0.3380(3) 0.08764(16)
H17 H -0.1085 0.2920 0.0850
C34 C -0.2264(5) 0.3725(4) 0.1010(2)
H18 H -0.3070 0.3497 0.1073
C35 C -0.2228(5) 0.4386(4) 0.1044(2)
H19 H -0.3018 0.4617 0.1136
C36 C -0.1023(5) 0.4742(3) 0.09428(19)
C37 C -0.0874(7) 0.5441(3) 0.0969(3)
H20 H -0.1641 0.5698 0.1036
C38 C 0.0303(8) 0.5740(3) 0.0903(3)
H21 H 0.0349 0.6199 0.0940
C39 C 0.1526(6) 0.5367(2) 0.07725(19)
C40 C 0.2818(7) 0.5647(2) 0.0717(2)
H22 H 0.2924 0.6104 0.0739
C41 C 0.3901(6) 0.5259(3) 0.0633(2)
H23 H 0.4763 0.5442 0.0614
C42 C 0.3725(4) 0.4584(2) 0.05745(17)
H24 H 0.4482 0.4320 0.0505
C43 C 0.1423(4) 0.46763(18) 0.07247(16)
C44 C 0.0150(4) 0.4355(2) 0.08134(16)
N1 N -0.1268(2) 0.32008(13) -0.44878(11)
N2 N -0.1415(2) 0.35577(13) -0.39651(12)
N3 N -0.0502(2) 0.33484(13) -0.35381(11)
N4 N -0.2475(3) 0.42709(13) -0.56647(12)
N5 N -0.0086(3) 0.3666(2) -0.58466(14)
N6 N 0.0369(2) 0.33361(13) -0.14959(10)
N7 N 0.1291(2) 0.35662(13) -0.10883(12)
N8 N 0.1235(2) 0.32119(13) -0.05575(11)
N9 N -0.1854(2) 0.42288(13) -0.24290(14)
N10 N 0.0790(2) 0.44935(12) -0.25786(13)
N11 N 0.2519(3) 0.42935(13) 0.06132(12)
N12 N 0.0115(3) 0.36861(18) 0.07864(11)
O1 O -0.0857(2) 0.22887(11) -0.53728(10)
O2 O 0.09403(19) 0.18779(11) -0.48869(10)
O3 O 0.14446(19) 0.28320(11) -0.28544(10)
O4 O 0.22499(19) 0.22280(10) -0.36394(9)
O5 O -0.1479(2) 0.26901(10) -0.21726(10)
O6 O -0.21941(18) 0.21027(10) -0.13497(9)
O7 O -0.08865(19) 0.18763(11) -0.00849(10)
O8 O 0.0978(2) 0.22928(10) 0.03417(10)
Mn1C Mn 0.29166(4) 0.18196(2) -0.45085(2)
Mn3C Mn -0.28734(4) 0.17963(2) -0.04441(2)
O2C O -0.40597(19) 0.31221(11) -0.51131(10)
O4C O -0.27501(19) 0.27720(10) -0.63606(9)
O6C O 0.28059(18) 0.28973(10) 0.13497(9)
O7C O 0.41135(19) 0.31237(11) 0.00849(10)
O9 O -0.4463(3) 0.1804(2) -0.23192(18)
O10 O -0.6198(6) 0.3085(3) -0.2155(3)
O11? O -0.5591(12) 0.2979(6) -0.2897(6)
loop_
_geom_bond_atom_site_label_1
_geom_bond_atom_site_label_2
_geom_bond_site_symmetry_1
_geom_bond_site_symmetry_2
Mn1 N1 1_555 1_555
Mn2 N3 1_555 1_555
Mn3 N8 1_555 1_555
C1 C2 1_555 1_555
C2 C3 1_555 1_555
C3 C4 1_555 1_555
C4 O3 1_555 1_555
C5 H1 1_555 1_555
C6 C5 1_555 1_555
H2 C6 1_555 1_555
C7 C6 1_555 1_555
H3 C7 1_555 1_555
C8 C7 1_555 1_555
C9 C8 1_555 1_555
H4 C9 1_555 1_555
C10 C9 1_555 1_555
H5 C10 1_555 1_555
C11 C10 1_555 1_555
C12 C11 1_555 1_555
H6 C12 1_555 1_555
C13 C12 1_555 1_555
H7 C13 1_555 1_555
C14 C13 1_555 1_555
H8 C14 1_555 1_555
C15 C11 1_555 1_555
C16 C8 1_555 1_555
C17 C18 1_555 1_555
C18 C19 1_555 1_555
C19 C20 1_555 1_555
C20 O7 1_555 1_555
C21 H9 1_555 1_555
C22 C21 1_555 1_555
H10 C22 1_555 1_555
C23 C22 1_555 1_555
H11 C23 1_555 1_555
C24 C23 1_555 1_555
C25 C24 1_555 1_555
H12 C25 1_555 1_555
C26 C25 1_555 1_555
H13 C26 1_555 1_555
C27 C26 1_555 1_555
C28 C27 1_555 1_555
H14 C28 1_555 1_555
C29 C28 1_555 1_555
H15 C29 1_555 1_555
C30 C29 1_555 1_555
H16 C30 1_555 1_555
C31 C27 1_555 1_555
C32 C24 1_555 1_555
C33 H17 1_555 1_555
C34 C33 1_555 1_555
H18 C34 1_555 1_555
C35 C34 1_555 1_555
H19 C35 1_555 1_555
C36 C35 1_555 1_555
C37 C36 1_555 1_555
H20 C37 1_555 1_555
C38 C37 1_555 1_555
H21 C38 1_555 1_555
C39 C38 1_555 1_555
C40 C39 1_555 1_555
H22 C40 1_555 1_555
C41 C40 1_555 1_555
H23 C41 1_555 1_555
C42 C41 1_555 1_555
H24 C42 1_555 1_555
C43 C39 1_555 1_555
C44 C36 1_555 1_555
N1 C2 1_555 1_555
N2 N1 1_555 1_555
N3 C3 1_555 1_555
N4 Mn1 1_555 1_555
N5 Mn1 1_555 1_555
N6 Mn2 1_555 1_555
N7 N6 1_555 1_555
N8 C19 1_555 1_555
N9 Mn2 1_555 1_555
N10 Mn2 1_555 1_555
N11 Mn3 1_555 1_555
N12 Mn3 1_555 1_555
O1 Mn1 1_555 1_555
O2 C1 1_555 1_555
O3 Mn2 1_555 1_555
O4 C4 1_555 1_555
O5 Mn2 1_555 1_555
O6 C17 1_555 1_555
O7 Mn3C 1_555 1_555
O8 Mn3 1_555 1_555
Mn1C O2 1_555 1_555
Mn3C O6 1_555 1_555
O2C Mn1 1_555 1_555
O4C Mn1 1_555 1_555
O6C Mn3 1_555 1_555
O7C Mn3 1_555 1_555
C1 O1 1_555 1_555
C5 N4 1_555 1_555
C14 N5 1_555 1_555
C15 C16 1_555 1_555
C15 N5 1_555 1_555
C16 N4 1_555 1_555
C17 O5 1_555 1_555
C18 N6 1_555 1_555
C20 O8 1_555 1_555
C21 N9 1_555 1_555
C30 N10 1_555 1_555
C31 C32 1_555 1_555
C31 N10 1_555 1_555
C32 N9 1_555 1_555
C33 N12 1_555 1_555
C42 N11 1_555 1_555
C43 C44 1_555 1_555
C43 N11 1_555 1_555
C44 N12 1_555 1_555
N2 N3 1_555 1_555
N7 N8 1_555 1_555
O4 Mn1C 1_555 1_555

#END
