
#######################################################################
#
#                 Cambridge Crystallographic Data Centre
#                                CCDC 
#
#######################################################################
#
# If this CIF has been generated from an entry in the Cambridge 
# Structural Database, then it will include bibliographic, chemical, 
# crystal, experimental, refinement or atomic coordinate data resulting 
# from the CCDC's data processing and validation procedures.
#
#######################################################################

data_NOFJEY
_symmetry_cell_setting           monoclinic
_symmetry_space_group_name_H-M   'P 2/n'
_symmetry_Int_Tables_number      13
_space_group_name_Hall           '-P 2yac'
loop_
_symmetry_equiv_pos_site_id
_symmetry_equiv_pos_as_xyz
1 x,y,z
2 1/2-x,y,1/2-z
3 -x,-y,-z
4 1/2+x,-y,1/2+z
_cell_length_a                   10.4838(13)
_cell_length_b                   8.8934(7)
_cell_length_c                   13.3141(15)
_cell_angle_alpha                90
_cell_angle_beta                 92.777(10)
_cell_angle_gamma                90
_cell_volume                     1239.9
loop_
_atom_site_label
_atom_site_type_symbol
_atom_site_fract_x
_atom_site_fract_y
_atom_site_fract_z
Pb1 Pb 0.2500 0.62299(8) 1.2500
Au1 Au 0.15276(5) 1.08612(6) 1.52719(4)
N1 N 0.3194(11) 0.8799(14) 1.3992(10)
N2 N 0.4837(12) 0.7133(15) 1.1569(9)
N3 N 0.0986(9) 0.3922(11) 1.2334(7)
N4 N 0.2117(9) 0.5007(11) 1.0713(7)
C1 C 0.2584(13) 0.9562(16) 1.4456(10)
C2 C 0.5464(14) 0.7861(17) 1.1103(10)
C3 C 0.0429(12) 0.3392(16) 1.3163(10)
C4 C -0.0285(13) 0.2104(16) 1.3132(11)
C5 C -0.0499(15) 0.1289(16) 1.2252(12)
C6 C 0.0015(12) 0.1866(15) 1.1400(11)
C7 C 0.0749(10) 0.3182(14) 1.1448(9)
C8 C 0.1303(11) 0.3863(15) 1.0561(8)
C9 C 0.0965(11) 0.3339(15) 0.9595(9)
C10 C 0.1478(13) 0.4007(15) 0.8797(11)
C11 C 0.2343(12) 0.5151(17) 0.8935(9)
C12 C 0.2605(12) 0.5619(16) 0.9910(9)
H1 H 0.0554 0.3924 1.3778
H2 H -0.0671 0.1808 1.3732
H3 H -0.0957 0.0368 1.2260
H4 H -0.0118 0.1360 1.0776
H5 H 0.0390 0.2519 0.9503
H6 H 0.1223 0.3681 0.8139
H7 H 0.2756 0.5592 0.8388
H8 H 0.3151 0.6461 1.0022
Au1A Au 0.34724(5) 1.08612(6) 0.97281(4)
Au1C Au 0.65276(5) 0.91388(6) 1.02719(4)
Au1B Au -0.15276(5) 0.91388(6) 1.47281(4)
N1A N 0.1806(11) 0.8799(14) 1.1008(10)
N2A N 0.0163(12) 0.7133(15) 1.3431(9)
N3A N 0.4014(9) 0.3922(11) 1.2666(7)
N4A N 0.2883(9) 0.5007(11) 1.4287(7)
C1A C 0.2416(13) 0.9562(16) 1.0544(10)
C2A C -0.0464(14) 0.7861(17) 1.3897(10)
C2C C 0.0464(14) 1.2139(17) 1.6103(10)
C2B C 0.4536(14) 1.2139(17) 0.8897(10)
C3A C 0.4571(12) 0.3392(16) 1.1837(10)
C4A C 0.5285(13) 0.2104(16) 1.1868(11)
C5A C 0.5499(15) 0.1289(16) 1.2748(12)
C6A C 0.4985(12) 0.1866(15) 1.3600(11)
C7A C 0.4251(10) 0.3182(14) 1.3552(9)
C8A C 0.3697(11) 0.3863(15) 1.4439(8)
C9A C 0.4035(11) 0.3339(15) 1.5405(9)
C10A C 0.3522(13) 0.4007(15) 1.6203(11)
C11A C 0.2657(12) 0.5151(17) 1.6065(9)
C12A C 0.2395(12) 0.5619(16) 1.5090(9)
H1A H 0.4446 0.3924 1.1222
H2A H 0.5671 0.1808 1.1268
H3A H 0.5957 0.0368 1.2740
H4A H 0.5118 0.1360 1.4224
H5A H 0.4610 0.2519 1.5497
H6A H 0.3777 0.3681 1.6861
H7A H 0.2244 0.5592 1.6612
H8A H 0.1849 0.6461 1.4978
loop_
_geom_bond_atom_site_label_1
_geom_bond_atom_site_label_2
_geom_bond_site_symmetry_1
_geom_bond_site_symmetry_2
Pb1 N1 1_555 1_555
Au1 C1 1_555 1_555
N1 C1 1_555 1_555
N2 Pb1 1_555 1_555
N3 Pb1 1_555 1_555
N4 Pb1 1_555 1_555
C2 N2 1_555 1_555
C3 N3 1_555 1_555
C4 C3 1_555 1_555
C5 C4 1_555 1_555
C6 C5 1_555 1_555
C7 N3 1_555 1_555
C8 N4 1_555 1_555
C9 C8 1_555 1_555
C10 C9 1_555 1_555
C11 C10 1_555 1_555
C12 N4 1_555 1_555
H1 C3 1_555 1_555
H2 C4 1_555 1_555
H3 C5 1_555 1_555
H4 C6 1_555 1_555
H5 C9 1_555 1_555
H6 C10 1_555 1_555
H7 C11 1_555 1_555
H8 C12 1_555 1_555
Au1A C1A 1_555 1_555
Au1C C2 1_555 1_555
Au1B C2A 1_555 1_555
N1A Pb1 1_555 1_555
N2A Pb1 1_555 1_555
N3A Pb1 1_555 1_555
N4A Pb1 1_555 1_555
C1A N1A 1_555 1_555
C2A N2A 1_555 1_555
C2C Au1 1_555 1_555
C2B Au1A 1_555 1_555
C3A N3A 1_555 1_555
C4A C3A 1_555 1_555
C5A C4A 1_555 1_555
C6A C5A 1_555 1_555
C7A N3A 1_555 1_555
C8A N4A 1_555 1_555
C9A C8A 1_555 1_555
C10A C9A 1_555 1_555
C11A C10A 1_555 1_555
C12A N4A 1_555 1_555
H1A C3A 1_555 1_555
H2A C4A 1_555 1_555
H3A C5A 1_555 1_555
H4A C6A 1_555 1_555
H5A C9A 1_555 1_555
H6A C10A 1_555 1_555
H7A C11A 1_555 1_555
H8A C12A 1_555 1_555
C6 C7 1_555 1_555
C7 C8 1_555 1_555
C11 C12 1_555 1_555
C6A C7A 1_555 1_555
C7A C8A 1_555 1_555
C11A C12A 1_555 1_555

#END
