
#######################################################################
#
#                 Cambridge Crystallographic Data Centre
#                                CCDC 
#
#######################################################################
#
# If this CIF has been generated from an entry in the Cambridge 
# Structural Database, then it will include bibliographic, chemical, 
# crystal, experimental, refinement or atomic coordinate data resulting 
# from the CCDC's data processing and validation procedures.
#
#######################################################################

data_NOFKIC
_symmetry_cell_setting           monoclinic
_symmetry_space_group_name_H-M   'C 2/c'
_symmetry_Int_Tables_number      15
_space_group_name_Hall           '-C 2yn'
loop_
_symmetry_equiv_pos_site_id
_symmetry_equiv_pos_as_xyz
1 x,y,z
2 1/2+x,1/2+y,z
3 x,-y,1/2+z
4 1/2+x,1/2-y,1/2+z
5 -x,-y,-z
6 1/2-x,1/2-y,-z
7 -x,y,1/2-z
8 1/2-x,1/2+y,1/2-z
_cell_length_a                   26.933(4)
_cell_length_b                   11.2087(12)
_cell_length_c                   31.404(3)
_cell_angle_alpha                90
_cell_angle_beta                 105.737(8)
_cell_angle_gamma                90
_cell_volume                     9125.01
loop_
_atom_site_label
_atom_site_type_symbol
_atom_site_fract_x
_atom_site_fract_y
_atom_site_fract_z
Cl1 Cl 0.36073(8) 0.2073(2) 0.17555(7)
O1 O 0.3280(3) 0.1169(7) 0.1614(4)
O2 O 0.3887(4) 0.2310(12) 0.1470(4)
O3 O 0.3298(4) 0.3053(8) 0.1779(4)
O4 O 0.3945(4) 0.1709(12) 0.2154(3)
C43 C 0.2177(6) 0.4112(15) 0.1871(4)
H37 H 0.2462(6) 0.3524(15) 0.1940(4)
H38 H 0.2314(6) 0.4887(15) 0.1803(4)
Cl2 Cl 0.18936(14) 0.4267(4) 0.23430(15)
Cl3 Cl 0.1620(2) 0.3567(4) 0.1369(2)
C44 C 0.0000 0.8293(12) 0.2500
H39 H -0.0303 0.7776(12) 0.2377
Cl4 Cl 0.0110(2) 0.9187(4) 0.20933(13)
Cl4F Cl -0.0110(2) 0.9187(4) 0.29067(13)
P1 P 0.44798(7) 0.8225(2) 0.06679(6)
P2 P 0.25748(6) 0.7657(2) 0.10592(6)
P3 P 0.31038(7) 0.5081(2) -0.07260(6)
S1 S 0.37810(7) 0.8934(2) 0.04678(6)
S2 S 0.25068(7) 0.6572(2) 0.05424(6)
S3 S 0.36284(7) 0.6034(2) -0.03021(6)
C1 C 0.2535(3) 0.9244(6) 0.0904(2)
H1 H 0.2740(3) 0.9703(6) 0.1161(2)
H2 H 0.2702(3) 0.9344(6) 0.0662(2)
C2 C 0.4856(2) 0.8475(6) 0.0290(2)
C3 C 0.4667(3) 0.8373(6) -0.0183(2)
H3 H 0.4320(3) 0.8224(6) -0.0345(2)
C4 C 0.5088(4) 0.8535(7) -0.0363(3)
H4 H 0.5074(4) 0.8528(7) -0.0668(3)
C5 C 0.5535(4) 0.8710(7) -0.0009(3)
H5 H 0.5874(4) 0.8832(7) -0.0037(3)
C6 C 0.5398(3) 0.8677(6) 0.0390(3)
H6 H 0.5627(3) 0.8771(6) 0.0677(3)
C7 C 0.4833(2) 0.8856(6) 0.1191(2)
C8 C 0.5259(3) 0.8249(7) 0.1457(2)
H7 H 0.5363(3) 0.7510(7) 0.1361(2)
C9 C 0.5530(3) 0.8723(8) 0.1863(3)
H8 H 0.5814(3) 0.8303(8) 0.2048(3)
C10 C 0.5382(3) 0.9808(8) 0.1994(3)
H9 H 0.5573(3) 1.0144(8) 0.2267(3)
C11 C 0.4964(3) 1.0419(7) 0.1737(2)
H10 H 0.4864(3) 1.1163(7) 0.1833(2)
C12 C 0.4687(3) 0.9932(6) 0.1334(2)
H11 H 0.4395(3) 1.0343(6) 0.1156(2)
C13 C 0.4484(2) 0.6615(6) 0.0739(2)
C14 C 0.4167(3) 0.6103(6) 0.0962(2)
H12 H 0.3949(3) 0.6596(6) 0.1079(2)
C15 C 0.4158(3) 0.4888(6) 0.1021(2)
H13 H 0.3940(3) 0.4549(6) 0.1181(2)
C16 C 0.4466(3) 0.4172(6) 0.0848(2)
H14 H 0.4460(3) 0.3331(6) 0.0885(2)
C17 C 0.4784(3) 0.4668(6) 0.0622(2)
H15 H 0.4997(3) 0.4168(6) 0.0501(2)
C18 C 0.4798(3) 0.5884(6) 0.0568(2)
H16 H 0.5023(3) 0.6223(6) 0.0414(2)
C19 C 0.2088(3) 0.7330(6) 0.1337(2)
C20 C 0.1632(3) 0.6746(6) 0.1122(3)
H17 H 0.1577(3) 0.6475(6) 0.0827(3)
C21 C 0.1257(3) 0.6563(7) 0.1347(3)
H18 H 0.0950(3) 0.6143(7) 0.1205(3)
C22 C 0.1324(3) 0.6974(7) 0.1762(3)
H19 H 0.1057(3) 0.6871(7) 0.1905(3)
C23 C 0.1776(3) 0.7541(7) 0.1982(3)
H20 H 0.1823(3) 0.7812(7) 0.2277(3)
C24 C 0.2160(3) 0.7716(7) 0.1773(2)
H21 H 0.2473(3) 0.8098(7) 0.1925(2)
C25 C 0.3186(3) 0.7425(6) 0.1465(2)
C26 C 0.3558(3) 0.8302(6) 0.1613(2)
H22 H 0.3496(3) 0.9094(6) 0.1504(2)
C27 C 0.4013(3) 0.8028(7) 0.1916(2)
H23 H 0.4264(3) 0.8634(7) 0.2019(2)
C28 C 0.4110(3) 0.6873(7) 0.2072(2)
H24 H 0.4428(3) 0.6690(7) 0.2281(2)
C29 C 0.3751(3) 0.5988(7) 0.1927(2)
H25 H 0.3823(3) 0.5193(7) 0.2030(2)
C30 C 0.3285(3) 0.6266(6) 0.1629(2)
H26 H 0.3031(3) 0.5664(6) 0.1535(2)
C31 C 0.3297(3) 0.4770(6) -0.1223(2)
C32 C 0.2952(3) 0.4370(7) -0.1606(2)
H27 H 0.2596(3) 0.4275(7) -0.1624(2)
C33 C 0.3148(5) 0.4108(8) -0.1971(3)
H28 H 0.2920(5) 0.3817(8) -0.2237(3)
C34 C 0.3655(5) 0.4261(9) -0.1950(3)
H29 H 0.3778(5) 0.4085(9) -0.2199(3)
C35 C 0.3986(5) 0.4670(9) -0.1570(3)
H30 H 0.4340(5) 0.4774(9) -0.1556(3)
C36 C 0.3816(3) 0.4937(7) -0.1201(3)
H31 H 0.4049(3) 0.5229(7) -0.0938(3)
C37 C 0.3004(3) 0.3644(6) -0.0495(2)
C38 C 0.2681(3) 0.2810(7) -0.0747(2)
H32 H 0.2486(3) 0.3001(7) -0.1040(2)
C39 C 0.2638(4) 0.1689(7) -0.0575(3)
H33 H 0.2415(4) 0.1114(7) -0.0750(3)
C40 C 0.2915(3) 0.1407(7) -0.0156(3)
H34 H 0.2888(3) 0.0633(7) -0.0041(3)
C41 C 0.3233(3) 0.2241(7) 0.0099(3)
H35 H 0.3417(3) 0.2052(7) 0.0394(3)
C42 C 0.3288(3) 0.3363(7) -0.0072(2)
H36 H 0.3518(3) 0.3930(7) 0.0102(2)
Ag1 Ag 0.31749(2) 0.72236(6) 0.01586(2)
Fe1 Fe 0.5000 1.0000 0.0000
P3E P 0.18962(7) 0.9919(2) 0.07260(6)
S3E S 0.13716(7) 0.8966(2) 0.03021(6)
Ag1E Ag 0.18251(2) 0.77764(6) -0.01586(2)
S1E S 0.12190(7) 0.6066(2) -0.04678(6)
S2E S 0.24932(7) 0.8428(2) -0.05424(6)
P2E P 0.24252(6) 0.7343(2) -0.10592(6)
C1E C 0.2465(3) 0.5756(6) -0.0904(2)
H1E H 0.2260(3) 0.5297(6) -0.1161(2)
H2E H 0.2298(3) 0.5656(6) -0.0662(2)
C19E C 0.2912(3) 0.7670(6) -0.1337(2)
C20E C 0.3368(3) 0.8254(6) -0.1122(3)
H17E H 0.3423(3) 0.8525(6) -0.0827(3)
C21E C 0.3743(3) 0.8437(7) -0.1347(3)
H18E H 0.4050(3) 0.8857(7) -0.1205(3)
C22E C 0.3676(3) 0.8026(7) -0.1762(3)
H19E H 0.3943(3) 0.8129(7) -0.1905(3)
C23E C 0.3224(3) 0.7459(7) -0.1982(3)
H20E H 0.3177(3) 0.7188(7) -0.2277(3)
C24E C 0.2840(3) 0.7284(7) -0.1773(2)
H21E H 0.2527(3) 0.6902(7) -0.1925(2)
C25E C 0.1814(3) 0.7575(6) -0.1465(2)
C26E C 0.1442(3) 0.6698(6) -0.1613(2)
H22E H 0.1504(3) 0.5906(6) -0.1504(2)
C27E C 0.0987(3) 0.6972(7) -0.1916(2)
H23E H 0.0736(3) 0.6366(7) -0.2019(2)
C28E C 0.0890(3) 0.8127(7) -0.2072(2)
H24E H 0.0572(3) 0.8310(7) -0.2281(2)
C29E C 0.1249(3) 0.9012(7) -0.1927(2)
H25E H 0.1177(3) 0.9807(7) -0.2030(2)
C30E C 0.1715(3) 0.8734(6) -0.1629(2)
H26E H 0.1969(3) 0.9336(6) -0.1535(2)
C31E C 0.1703(3) 1.0230(6) 0.1223(2)
C32E C 0.2048(3) 1.0630(7) 0.1606(2)
H27E H 0.2404(3) 1.0725(7) 0.1624(2)
C33E C 0.1852(5) 1.0892(8) 0.1971(3)
H28E H 0.2080(5) 1.1183(8) 0.2237(3)
C34E C 0.1345(5) 1.0739(9) 0.1950(3)
H29E H 0.1222(5) 1.0915(9) 0.2199(3)
C35E C 0.1014(5) 1.0330(9) 0.1570(3)
H30E H 0.0660(5) 1.0226(9) 0.1556(3)
C36E C 0.1184(3) 1.0063(7) 0.1201(3)
H31E H 0.0951(3) 0.9771(7) 0.0938(3)
C37E C 0.1996(3) 1.1356(6) 0.0495(2)
C38E C 0.2319(3) 1.2190(7) 0.0747(2)
H32E H 0.2514(3) 1.1999(7) 0.1040(2)
C39E C 0.2362(4) 1.3311(7) 0.0575(3)
H33E H 0.2585(4) 1.3886(7) 0.0750(3)
C40E C 0.2085(3) 1.3593(7) 0.0156(3)
H34E H 0.2112(3) 1.4367(7) 0.0041(3)
C41E C 0.1767(3) 1.2759(7) -0.0099(3)
H35E H 0.1583(3) 1.2948(7) -0.0394(3)
C42E C 0.1712(3) 1.1637(7) 0.0072(2)
H36E H 0.1482(3) 1.1070(7) -0.0102(2)
C2D C 0.5144(2) 1.1525(6) -0.0290(2)
P1D P 0.55202(7) 1.1775(2) -0.06679(6)
S1D S 0.62190(7) 1.1066(2) -0.04678(6)
Ag1D Ag 0.68251(2) 1.27764(6) -0.01586(2)
C7D C 0.5167(2) 1.1144(6) -0.1191(2)
C8D C 0.4741(3) 1.1751(7) -0.1457(2)
H7D H 0.4637(3) 1.2490(7) -0.1361(2)
C9D C 0.4470(3) 1.1277(8) -0.1863(3)
H8D H 0.4186(3) 1.1697(8) -0.2048(3)
C10D C 0.4618(3) 1.0192(8) -0.1994(3)
H9D H 0.4427(3) 0.9856(8) -0.2267(3)
C11D C 0.5036(3) 0.9581(7) -0.1737(2)
H10D H 0.5136(3) 0.8837(7) -0.1833(2)
C12D C 0.5313(3) 1.0068(6) -0.1334(2)
H11D H 0.5605(3) 0.9657(6) -0.1156(2)
C13D C 0.5516(2) 1.3385(6) -0.0739(2)
C14D C 0.5833(3) 1.3897(6) -0.0962(2)
H12D H 0.6051(3) 1.3404(6) -0.1079(2)
C15D C 0.5842(3) 1.5112(6) -0.1021(2)
H13D H 0.6060(3) 1.5451(6) -0.1181(2)
C16D C 0.5534(3) 1.5828(6) -0.0848(2)
H14D H 0.5540(3) 1.6669(6) -0.0885(2)
C17D C 0.5216(3) 1.5332(6) -0.0622(2)
H15D H 0.5003(3) 1.5832(6) -0.0501(2)
C18D C 0.5202(3) 1.4116(6) -0.0568(2)
H16D H 0.4977(3) 1.3777(6) -0.0414(2)
C3D C 0.5333(3) 1.1627(6) 0.0183(2)
H3D H 0.5680(3) 1.1776(6) 0.0345(2)
C4D C 0.4912(4) 1.1465(7) 0.0363(3)
H4D H 0.4926(4) 1.1472(7) 0.0668(3)
C5D C 0.4465(4) 1.1290(7) 0.0009(3)
H5D H 0.4126(4) 1.1168(7) 0.0037(3)
C6D C 0.4602(3) 1.1323(6) -0.0390(3)
H6D H 0.4373(3) 1.1229(6) -0.0677(3)
H40? H 0.0303 0.7776(12) 0.2623
loop_
_geom_bond_atom_site_label_1
_geom_bond_atom_site_label_2
_geom_bond_site_symmetry_1
_geom_bond_site_symmetry_2
P1 S1 1_555 1_555
P2 S2 1_555 1_555
P3 S3 1_555 1_555
S1 Ag1 1_555 1_555
S2 Ag1 1_555 1_555
S3 Ag1 1_555 1_555
C1 P2 1_555 1_555
H1 C1 1_555 1_555
H2 C1 1_555 1_555
C2 P1 1_555 1_555
C3 C2 1_555 1_555
H3 C3 1_555 1_555
C4 C3 1_555 1_555
H4 C4 1_555 1_555
C5 C4 1_555 1_555
H5 C5 1_555 1_555
C6 C2 1_555 1_555
H6 C6 1_555 1_555
C7 P1 1_555 1_555
C8 C7 1_555 1_555
H7 C8 1_555 1_555
C9 C8 1_555 1_555
H8 C9 1_555 1_555
C10 C9 1_555 1_555
H9 C10 1_555 1_555
C11 C10 1_555 1_555
H10 C11 1_555 1_555
C12 C7 1_555 1_555
H11 C12 1_555 1_555
C13 P1 1_555 1_555
C14 C13 1_555 1_555
H12 C14 1_555 1_555
C15 C14 1_555 1_555
H13 C15 1_555 1_555
C16 C15 1_555 1_555
H14 C16 1_555 1_555
C17 C16 1_555 1_555
H15 C17 1_555 1_555
C18 C13 1_555 1_555
H16 C18 1_555 1_555
C19 P2 1_555 1_555
C20 C19 1_555 1_555
H17 C20 1_555 1_555
C21 C20 1_555 1_555
H18 C21 1_555 1_555
C22 C21 1_555 1_555
H19 C22 1_555 1_555
C23 C22 1_555 1_555
H20 C23 1_555 1_555
C24 C19 1_555 1_555
H21 C24 1_555 1_555
C25 P2 1_555 1_555
C26 C25 1_555 1_555
H22 C26 1_555 1_555
C27 C26 1_555 1_555
H23 C27 1_555 1_555
C28 C27 1_555 1_555
H24 C28 1_555 1_555
C29 C28 1_555 1_555
H25 C29 1_555 1_555
C30 C25 1_555 1_555
H26 C30 1_555 1_555
C31 P3 1_555 1_555
C32 C31 1_555 1_555
H27 C32 1_555 1_555
C33 C32 1_555 1_555
H28 C33 1_555 1_555
C34 C33 1_555 1_555
H29 C34 1_555 1_555
C35 C34 1_555 1_555
H30 C35 1_555 1_555
C36 C31 1_555 1_555
H31 C36 1_555 1_555
C37 P3 1_555 1_555
C38 C37 1_555 1_555
H32 C38 1_555 1_555
C39 C38 1_555 1_555
H33 C39 1_555 1_555
C40 C39 1_555 1_555
H34 C40 1_555 1_555
C41 C40 1_555 1_555
H35 C41 1_555 1_555
C42 C37 1_555 1_555
H36 C42 1_555 1_555
Ag1 S2E 1_555 1_555
Fe1 C2 1_555 1_555
Cl1 O1 1_555 1_555
O2 Cl1 1_555 1_555
O3 Cl1 1_555 1_555
O4 Cl1 1_555 1_555
C43 H37 1_555 1_555
H38 C43 1_555 1_555
Cl2 C43 1_555 1_555
Cl3 C43 1_555 1_555
C44 H39 1_555 1_555
Cl4 C44 1_555 1_555
P3E C1 1_555 1_555
S3E P3E 1_555 1_555
Ag1E S2 1_555 1_555
S1E Ag1E 1_555 1_555
S2E Ag1E 1_555 1_555
P2E S2E 1_555 1_555
C1E P3 1_555 1_555
H1E C1E 1_555 1_555
H2E C1E 1_555 1_555
C19E P2E 1_555 1_555
C20E C19E 1_555 1_555
H17E C20E 1_555 1_555
C21E C20E 1_555 1_555
H18E C21E 1_555 1_555
C22E C21E 1_555 1_555
H19E C22E 1_555 1_555
C23E C22E 1_555 1_555
H20E C23E 1_555 1_555
C24E C19E 1_555 1_555
H21E C24E 1_555 1_555
C25E P2E 1_555 1_555
C26E C25E 1_555 1_555
H22E C26E 1_555 1_555
C27E C26E 1_555 1_555
H23E C27E 1_555 1_555
C28E C27E 1_555 1_555
H24E C28E 1_555 1_555
C29E C28E 1_555 1_555
H25E C29E 1_555 1_555
C30E C25E 1_555 1_555
H26E C30E 1_555 1_555
C31E P3E 1_555 1_555
C32E C31E 1_555 1_555
H27E C32E 1_555 1_555
C33E C32E 1_555 1_555
H28E C33E 1_555 1_555
C34E C33E 1_555 1_555
H29E C34E 1_555 1_555
C35E C34E 1_555 1_555
H30E C35E 1_555 1_555
C36E C31E 1_555 1_555
H31E C36E 1_555 1_555
C37E P3E 1_555 1_555
C38E C37E 1_555 1_555
H32E C38E 1_555 1_555
C39E C38E 1_555 1_555
H33E C39E 1_555 1_555
C40E C39E 1_555 1_555
H34E C40E 1_555 1_555
C41E C40E 1_555 1_555
H35E C41E 1_555 1_555
C42E C37E 1_555 1_555
H36E C42E 1_555 1_555
C2D Fe1 1_555 1_555
P1D C2D 1_555 1_555
S1D P1D 1_555 1_555
Ag1D S1D 1_555 1_555
C7D P1D 1_555 1_555
C8D C7D 1_555 1_555
H7D C8D 1_555 1_555
C9D C8D 1_555 1_555
H8D C9D 1_555 1_555
C10D C9D 1_555 1_555
H9D C10D 1_555 1_555
C11D C10D 1_555 1_555
H10D C11D 1_555 1_555
C12D C7D 1_555 1_555
H11D C12D 1_555 1_555
C13D P1D 1_555 1_555
C14D C13D 1_555 1_555
H12D C14D 1_555 1_555
C15D C14D 1_555 1_555
H13D C15D 1_555 1_555
C16D C15D 1_555 1_555
H14D C16D 1_555 1_555
C17D C16D 1_555 1_555
H15D C17D 1_555 1_555
C18D C13D 1_555 1_555
H16D C18D 1_555 1_555
C3D Fe1 1_555 1_555
H3D C3D 1_555 1_555
C4D Fe1 1_555 1_555
H4D C4D 1_555 1_555
C5D Fe1 1_555 1_555
H5D C5D 1_555 1_555
C6D Fe1 1_555 1_555
H6D C6D 1_555 1_555
Cl4F C44 1_555 1_555
C3 Fe1 1_555 1_555
C4 Fe1 1_555 1_555
C5 C6 1_555 1_555
C5 Fe1 1_555 1_555
C6 Fe1 1_555 1_555
C11 C12 1_555 1_555
C17 C18 1_555 1_555
C23 C24 1_555 1_555
C29 C30 1_555 1_555
C35 C36 1_555 1_555
C41 C42 1_555 1_555
S3E Ag1E 1_555 1_555
P2E C1E 1_555 1_555
C23E C24E 1_555 1_555
C29E C30E 1_555 1_555
C35E C36E 1_555 1_555
C41E C42E 1_555 1_555
C2D C3D 1_555 1_555
C2D C6D 1_555 1_555
C11D C12D 1_555 1_555
C17D C18D 1_555 1_555
C3D C4D 1_555 1_555
C4D C5D 1_555 1_555
C5D C6D 1_555 1_555

#END
