
#######################################################################
#
#                 Cambridge Crystallographic Data Centre
#                                CCDC 
#
#######################################################################
#
# If this CIF has been generated from an entry in the Cambridge 
# Structural Database, then it will include bibliographic, chemical, 
# crystal, experimental, refinement or atomic coordinate data resulting 
# from the CCDC's data processing and validation procedures.
#
#######################################################################

data_NOFLAW
_symmetry_cell_setting           monoclinic
_symmetry_space_group_name_H-M   'P 21/n'
_symmetry_Int_Tables_number      14
_space_group_name_Hall           '-P 2yn'
loop_
_symmetry_equiv_pos_site_id
_symmetry_equiv_pos_as_xyz
1 x,y,z
2 1/2-x,1/2+y,1/2-z
3 -x,-y,-z
4 1/2+x,1/2-y,1/2+z
_cell_length_a                   10.156(3)
_cell_length_b                   18.245(6)
_cell_length_c                   13.754(5)
_cell_angle_alpha                90
_cell_angle_beta                 99.233(9)
_cell_angle_gamma                90
_cell_volume                     2515.55
loop_
_atom_site_label
_atom_site_type_symbol
_atom_site_fract_x
_atom_site_fract_y
_atom_site_fract_z
Ti1 Ti -0.56947(11) -0.53134(6) 0.19528(8)
Cs1 Cs -0.26337(6) -0.35356(3) 0.35566(5)
C1 C -0.4040(6) -0.5214(4) 0.3863(5)
O1 O -0.3520(5) -0.4995(3) 0.4669(4)
Ti2 Ti -0.36417(11) -0.64442(6) 0.11989(9)
C2 C -0.3725(6) -0.5976(4) 0.3470(5)
O2 O -0.4885(4) -0.4839(3) 0.3261(3)
O3 O -0.2856(4) -0.1965(3) 0.4044(3)
C3 C -0.4627(7) -0.6568(4) 0.3822(5)
H1 H -0.4296 -0.7050 0.3657
H2 H -0.4531 -0.6540 0.4541
O4 O -0.4046(4) -0.5949(2) 0.2426(3)
O5 O -0.5219(4) -0.2674(2) -0.1383(3)
C4 C -0.6103(7) -0.6526(4) 0.3403(5)
O6 O -0.6549(4) -0.6069(2) 0.2713(3)
O7 O -0.0199(5) -0.3910(3) 0.2321(4)
C5 C -0.2285(7) -0.6191(4) 0.3856(5)
H3 H -0.2169 -0.6226 0.4575
H4 H -0.2117 -0.6678 0.3601
O8 O -0.6840(5) -0.6973(3) 0.3737(4)
O9 O -0.1521(5) -0.5094(3) 0.3132(4)
C6 C -0.1266(7) -0.5665(4) 0.3578(5)
O10 O -0.0030(5) -0.5892(3) 0.3876(4)
C7 C -0.3966(7) -0.2521(4) -0.1176(5)
C8 C -0.3020(6) -0.3030(4) -0.0515(5)
H5 H -0.2509 -0.2737 0.0013
H6 H -0.2386 -0.3240 -0.0904
O11 O -0.6980(5) -0.4605(3) 0.2116(3)
C9 C -0.3700(6) -0.3653(3) -0.0052(5)
O12 O -0.7375(5) -0.5054(3) 0.1228(3)
O13 O -0.5858(5) -0.3436(3) 0.3710(4)
C10 C -0.4623(7) -0.3310(4) 0.0624(5)
O14 O -0.2890(4) -0.5446(2) 0.0880(3)
C11 C -0.2696(6) -0.4160(3) 0.0564(5)
H7 H -0.2207 -0.3885 0.1119
H8 H -0.2050 -0.4336 0.0159
O15 O -0.4408(4) -0.4671(2) 0.1335(3)
C12 C -0.3375(6) -0.4805(4) 0.0949(5)
O16 O -0.5874(4) -0.3336(3) 0.0296(3)
O17 O -0.4102(5) -0.2994(3) 0.1387(4)
O18 O -0.4520(4) -0.4038(2) -0.0810(3)
O19 O -0.3492(5) -0.1969(3) -0.1496(5)
O20 O -0.2909(5) -0.1780(3) 0.3000(4)
Ti1B Ti -0.43053(11) -0.46866(6) -0.19528(8)
Cs1C Cs -0.76337(6) -0.14644(3) -0.14434(5)
Ti2A Ti -0.13583(11) -0.14442(6) 0.38011(9)
Ti2B Ti -0.63583(11) -0.35558(6) -0.11989(9)
O3A O -0.2144(4) -0.6965(3) 0.0956(3)
O5B O -0.4781(4) -0.7326(2) 0.1383(3)
O5C O -0.0219(4) -0.2326(2) 0.3617(3)
O16B O -0.4126(4) -0.6664(3) -0.0296(3)
O18B O -0.5480(4) -0.5962(2) 0.0810(3)
O20A O -0.2091(5) -0.6780(3) 0.2000(4)
Cl1 Cl -0.63423(18) -0.85239(10) 0.41738(14)
N1 N -0.4306(6) -0.7826(4) -0.2466(5)
N2 N -0.6683(5) -0.9880(3) 0.1283(4)
N3 N -0.9864(6) -0.5836(3) 0.1175(4)
loop_
_geom_bond_atom_site_label_1
_geom_bond_atom_site_label_2
_geom_bond_site_symmetry_1
_geom_bond_site_symmetry_2
Ti1 O2 1_555 1_555
Cs1 O1 1_555 1_555
C1 O1 1_555 1_555
Ti2 O4 1_555 1_555
C2 C1 1_555 1_555
O2 Cs1 1_555 1_555
O3 Cs1 1_555 1_555
C3 C2 1_555 1_555
H1 C3 1_555 1_555
H2 C3 1_555 1_555
O4 Ti1 1_555 1_555
O5 C7 1_555 1_555
C4 C3 1_555 1_555
O6 Ti1 1_555 1_555
O7 Cs1 1_555 1_555
C5 C2 1_555 1_555
H3 C5 1_555 1_555
H4 C5 1_555 1_555
O8 C4 1_555 1_555
O9 Cs1 1_555 1_555
C6 C5 1_555 1_555
O10 C6 1_555 1_555
C7 C8 1_555 1_555
C8 H5 1_555 1_555
H6 C8 1_555 1_555
O11 Ti1 1_555 1_555
C9 C8 1_555 1_555
O12 Ti1 1_555 1_555
O13 Cs1 1_555 1_555
C10 C9 1_555 1_555
O14 Ti2 1_555 1_555
C11 C9 1_555 1_555
H7 C11 1_555 1_555
H8 C11 1_555 1_555
O15 Ti1 1_555 1_555
C12 O14 1_555 1_555
O16 C10 1_555 1_555
O17 C10 1_555 1_555
O18 C9 1_555 1_555
O19 C7 1_555 1_555
O20 Cs1 1_555 1_555
Ti1B O18 1_555 1_555
Cs1C O5 1_555 1_555
Ti2A O3 1_555 1_555
Ti2B O5 1_555 1_555
O3A Ti2 1_555 1_555
O5B Ti2 1_555 1_555
O5C Cs1 1_555 1_555
O16B Ti2 1_555 1_555
O18B Ti1 1_555 1_555
O20A Ti2 1_555 1_555
C1 O2 1_555 1_555
Ti2 O18B 1_555 1_555
C2 O4 1_555 1_555
O3 O20 1_555 1_555
C4 O6 1_555 1_555
O9 C6 1_555 1_555
O11 O12 1_555 1_555
C11 C12 1_555 1_555
O15 C12 1_555 1_555
O16 Ti2B 1_555 1_555
O18 Ti2B 1_555 1_555
O20 Ti2A 1_555 1_555
Ti2A O5C 1_555 1_555
O3A O20A 1_555 1_555

#END
