
#######################################################################
#
#                 Cambridge Crystallographic Data Centre
#                                CCDC 
#
#######################################################################
#
# If this CIF has been generated from an entry in the Cambridge 
# Structural Database, then it will include bibliographic, chemical, 
# crystal, experimental, refinement or atomic coordinate data resulting 
# from the CCDC's data processing and validation procedures.
#
#######################################################################

data_NOFMUS
_symmetry_cell_setting           orthorhombic
_symmetry_space_group_name_H-M   'P b c n'
_symmetry_Int_Tables_number      60
_space_group_name_Hall           '-P 2n 2ab'
loop_
_symmetry_equiv_pos_site_id
_symmetry_equiv_pos_as_xyz
1 x,y,z
2 1/2-x,1/2-y,1/2+z
3 1/2+x,1/2-y,-z
4 -x,y,1/2-z
5 -x,-y,-z
6 1/2+x,1/2+y,1/2-z
7 1/2-x,1/2+y,z
8 x,-y,1/2+z
_cell_length_a                   26.780(2)
_cell_length_b                   8.1675(7)
_cell_length_c                   26.928(2)
_cell_angle_alpha                90
_cell_angle_beta                 90
_cell_angle_gamma                90
_cell_volume                     5889.84
loop_
_atom_site_label
_atom_site_type_symbol
_atom_site_fract_x
_atom_site_fract_y
_atom_site_fract_z
C1 C 0.20172(17) 0.7999(5) 0.60145(16)
H1 H 0.1757 0.7551 0.5831
C2 C 0.19845(16) 0.8445(6) 0.64925(16)
H2 H 0.1705 0.8356 0.6695
C3 C 0.27225(16) 0.8914(5) 0.62162(14)
H3 H 0.3056 0.9227 0.6204
C4 C 0.25769(15) 0.9741(5) 0.70946(14)
C5 C 0.30708(16) 0.9756(5) 0.72460(16)
H4 H 0.3317 0.9305 0.7044
C6 C 0.22179(16) 1.0399(5) 0.74024(14)
H5 H 0.1884 1.0376 0.7306
C7 C 0.33080(15) 1.3343(4) 0.90461(16)
H6 H 0.3511 1.4098 0.9208
C8 C 0.33305(15) 1.3014(5) 0.85543(15)
H7 H 0.3545 1.3483 0.8323
C9 C 0.27589(14) 1.1553(4) 0.89097(13)
H8 H 0.2501 1.0805 0.8953
C10 C 0.28430(15) 1.1128(5) 0.80032(14)
C11 C 0.31978(16) 1.0439(5) 0.76962(15)
H9 H 0.3530 1.0436 0.7796
C12 C 0.23490(15) 1.1095(5) 0.78544(15)
H10 H 0.2104 1.1541 0.8058
C13 C 0.18603(14) 0.6692(5) 0.47289(14)
C14 C 0.14411(13) 0.6398(4) 0.43654(13)
C15 C 0.11033(14) 0.5113(4) 0.44307(14)
H11 H 0.1129 0.4409 0.4701
C16 C 0.07291(14) 0.4920(4) 0.40822(15)
C17 C 0.06848(14) 0.5955(4) 0.36750(15)
H12 H 0.0431 0.5799 0.3444
C18 C 0.10227(15) 0.7219(4) 0.36184(14)
C19 C 0.13989(14) 0.7429(4) 0.39642(14)
H13 H 0.1626 0.8280 0.3925
C20 C 0.05893(17) 0.8321(6) 0.29039(17)
H14 H 0.0281 0.8314 0.3092
H15 H 0.0597 0.7359 0.2693
C21 C 0.06274(16) 0.9876(5) 0.2592(2)
C22 C 0.07212(16) 0.9795(6) 0.20822(18)
H16 H 0.0766 0.8788 0.1927
C23 C 0.07473(16) 1.1252(5) 0.18077(18)
H17 H 0.0810 1.1209 0.1468
C24 C 0.06814(16) 1.2730(6) 0.20327(17)
C25 C 0.05777(17) 1.2827(6) 0.25408(18)
H18 H 0.0521 1.3842 0.2687
C26 C 0.05578(16) 1.1383(6) 0.28339(19)
H19 H 0.0501 1.1433 0.3174
C27 C 0.07017(19) 1.4316(6) 0.1745(2)
C28 C 0.03815(16) 0.2649(5) 0.45156(17)
H20 H 0.0341 0.3282 0.4818
H21 H 0.0698 0.2076 0.4533
C29 C -0.00411(16) 0.1432(5) 0.44656(16)
C30 C -0.04944(17) 0.1780(5) 0.46838(16)
H22 H -0.0543 0.2783 0.4840
C31 C -0.08763(16) 0.0646(5) 0.46717(16)
H23 H -0.1179 0.0887 0.4824
C32 C -0.08126(15) -0.0851(5) 0.44351(14)
C33 C -0.03584(16) -0.1191(5) 0.42116(16)
H24 H -0.0310 -0.2179 0.4047
C34 C 0.00231(16) -0.0048(5) 0.42347(16)
H25 H 0.0330 -0.0290 0.4090
C35 C -0.12251(16) -0.2110(5) 0.44459(16)
Mn1 Mn 0.27735(2) 0.80472(6) 0.507536(19)
N1 N 0.24857(12) 0.8294(4) 0.58341(11)
N2 N 0.24429(12) 0.9060(4) 0.66264(11)
N3 N 0.29483(11) 1.2422(4) 0.92755(11)
N4 N 0.29737(12) 1.1848(4) 0.84673(11)
O1 O 0.03756(10) 0.3707(3) 0.40963(11)
O2 O 0.10136(10) 0.8335(3) 0.32335(10)
O3 O -0.11853(12) -0.3367(4) 0.41939(14)
O4 O -0.15887(10) -0.1770(3) 0.47300(10)
O5 O 0.09075(16) 1.4152(4) 0.13088(14)
H26 H 0.0911 1.5041 0.1167
O6 O 0.05642(16) 1.5615(4) 0.19120(15)
O7 O 0.20240(9) 0.8134(3) 0.47606(9)
O8 O 0.20408(10) 0.5537(3) 0.49876(9)
Mn1B Mn -0.22265(2) -0.30472(6) 0.492464(19)
Mn1F Mn 0.22265(2) 0.30472(6) 0.507536(19)
Mn1G Mn 0.27735(2) 1.19528(6) 1.007536(19)
N3G N 0.29483(11) 0.7578(4) 0.42755(11)
O4B O 0.34113(10) 0.6770(3) 0.52700(10)
O8F O 0.29592(10) 1.0537(3) 0.49876(9)
loop_
_geom_bond_atom_site_label_1
_geom_bond_atom_site_label_2
_geom_bond_site_symmetry_1
_geom_bond_site_symmetry_2
C1 H1 1_555 1_555
C2 C1 1_555 1_555
H2 C2 1_555 1_555
C3 H3 1_555 1_555
C4 C5 1_555 1_555
C5 H4 1_555 1_555
C6 C4 1_555 1_555
H5 C6 1_555 1_555
C7 H6 1_555 1_555
C8 C7 1_555 1_555
H7 C8 1_555 1_555
C9 H8 1_555 1_555
C10 C11 1_555 1_555
C11 C5 1_555 1_555
H9 C11 1_555 1_555
C12 C6 1_555 1_555
H10 C12 1_555 1_555
C13 C14 1_555 1_555
C14 C15 1_555 1_555
C15 H11 1_555 1_555
C16 C15 1_555 1_555
C17 C16 1_555 1_555
H12 C17 1_555 1_555
C18 C17 1_555 1_555
C19 C14 1_555 1_555
H13 C19 1_555 1_555
C20 H14 1_555 1_555
H15 C20 1_555 1_555
C21 C20 1_555 1_555
C22 C21 1_555 1_555
H16 C22 1_555 1_555
C23 C22 1_555 1_555
H17 C23 1_555 1_555
C24 C23 1_555 1_555
C25 C24 1_555 1_555
H18 C25 1_555 1_555
C26 C21 1_555 1_555
H19 C26 1_555 1_555
C27 C24 1_555 1_555
C28 H20 1_555 1_555
H21 C28 1_555 1_555
C29 C28 1_555 1_555
C30 C29 1_555 1_555
H22 C30 1_555 1_555
C31 C30 1_555 1_555
H23 C31 1_555 1_555
C32 C31 1_555 1_555
C33 C32 1_555 1_555
H24 C33 1_555 1_555
C34 C29 1_555 1_555
H25 C34 1_555 1_555
C35 C32 1_555 1_555
Mn1 N1 1_555 1_555
N1 C1 1_555 1_555
N2 C2 1_555 1_555
N3 C7 1_555 1_555
N4 C8 1_555 1_555
O1 C16 1_555 1_555
O2 C18 1_555 1_555
O3 C35 1_555 1_555
O4 C35 1_555 1_555
O5 C27 1_555 1_555
H26 O5 1_555 1_555
O6 C27 1_555 1_555
O7 C13 1_555 1_555
O8 C13 1_555 1_555
Mn1B O4 1_555 1_555
Mn1F O8 1_555 1_555
Mn1G N3 1_555 1_555
N3G Mn1 1_555 1_555
O4B Mn1 1_555 1_555
O8F Mn1 1_555 1_555
C3 N1 1_555 1_555
C3 N2 1_555 1_555
C4 N2 1_555 1_555
C9 N3 1_555 1_555
C9 N4 1_555 1_555
C10 C12 1_555 1_555
C10 N4 1_555 1_555
C18 C19 1_555 1_555
C20 O2 1_555 1_555
C25 C26 1_555 1_555
C28 O1 1_555 1_555
C33 C34 1_555 1_555
Mn1 O7 1_555 1_555

#END
