
#######################################################################
#
#                 Cambridge Crystallographic Data Centre
#                                CCDC 
#
#######################################################################
#
# If this CIF has been generated from an entry in the Cambridge 
# Structural Database, then it will include bibliographic, chemical, 
# crystal, experimental, refinement or atomic coordinate data resulting 
# from the CCDC's data processing and validation procedures.
#
#######################################################################

data_NOFMOM
_symmetry_cell_setting           orthorhombic
_symmetry_space_group_name_H-M   'P b c n'
_symmetry_Int_Tables_number      60
_space_group_name_Hall           '-P 2n 2ab'
loop_
_symmetry_equiv_pos_site_id
_symmetry_equiv_pos_as_xyz
1 x,y,z
2 1/2-x,1/2-y,1/2+z
3 -x,y,1/2-z
4 1/2+x,1/2-y,-z
5 -x,-y,-z
6 1/2+x,1/2+y,1/2-z
7 x,-y,1/2+z
8 1/2-x,1/2+y,z
_cell_length_a                   27.0432(17)
_cell_length_b                   8.0754(5)
_cell_length_c                   27.1949(17)
_cell_angle_alpha                90
_cell_angle_beta                 90
_cell_angle_gamma                90
_cell_volume                     5938.95
loop_
_atom_site_label
_atom_site_type_symbol
_atom_site_fract_x
_atom_site_fract_y
_atom_site_fract_z
C1 C 0.68494(11) 0.1855(4) 0.96818(11)
C2 C 0.64356(11) 0.1479(3) 0.93248(10)
C3 C 0.63928(12) 0.2485(3) 0.89139(11)
H1 H 0.6619 0.3337 0.8864
C4 C 0.60182(12) 0.2232(4) 0.85784(11)
C5 C 0.56855(12) 0.0975(4) 0.86437(11)
H2 H 0.5431 0.0805 0.8419
C6 C 0.57361(12) -0.0047(4) 0.90553(11)
C7 C 0.61077(11) 0.0191(4) 0.93962(11)
H3 H 0.6136 -0.0501 0.9668
C8 C 0.55849(14) 0.3367(4) 0.78790(13)
H4 H 0.5285 0.3387 0.8074
H5 H 0.5579 0.2394 0.7670
C9 C 0.56258(13) 0.4933(4) 0.75693(13)
C10 C 0.55591(14) 0.6468(5) 0.77991(14)
H6 H 0.5499 0.6533 0.8135
C11 C 0.55847(14) 0.7903(5) 0.75112(13)
H7 H 0.5533 0.8931 0.7656
C12 C 0.56865(13) 0.7809(4) 0.70112(12)
C13 C 0.57479(13) 0.6298(4) 0.67910(13)
H8 H 0.5810 0.6242 0.6455
C14 C 0.57178(13) 0.4842(4) 0.70645(12)
H9 H 0.5759 0.3820 0.6912
C15 C 0.57106(15) 0.9397(5) 0.67246(15)
C16 C 0.54039(13) -0.2353(4) 0.94986(12)
H10 H 0.5378 -0.1709 0.9799
H11 H 0.5715 -0.2952 0.9505
C17 C 0.49804(13) -0.3548(4) 0.94644(12)
C18 C 0.45359(13) -0.3176(4) 0.96810(12)
H12 H 0.4493 -0.2152 0.9831
C19 C 0.41546(13) -0.4293(4) 0.96790(12)
H13 H 0.3859 -0.4027 0.9835
C20 C 0.42034(12) -0.5805(4) 0.94491(10)
C21 C 0.46427(13) -0.6182(4) 0.92206(12)
H14 H 0.4680 -0.7188 0.9058
C22 C 0.50297(14) -0.5061(4) 0.92331(12)
H15 H 0.5328 -0.5332 0.9083
C23 C 0.37833(13) -0.7032(4) 0.94728(12)
C24 C 0.72452(12) -0.1498(4) 0.88766(11)
H16 H 0.7504 -0.0752 0.8921
C25 C 0.66884(13) -0.3302(4) 0.90136(12)
H17 H 0.6483 -0.4051 0.9174
C26 C 0.66740(13) -0.2951(4) 0.85239(11)
H18 H 0.6463 -0.3415 0.8292
C27 C 0.71645(13) -0.1077(4) 0.79740(11)
C28 C 0.68103(13) -0.0425(4) 0.76691(12)
H19 H 0.6481 -0.0429 0.7766
C29 C 0.76471(13) -0.1061(4) 0.78350(12)
H20 H 0.7888 -0.1499 0.8042
C30 C 0.79830(13) 0.1918(5) 0.59911(12)
H21 H 0.8241 0.2357 0.5806
C31 C 0.80155(14) 0.1469(5) 0.64690(13)
H22 H 0.8294 0.1538 0.6668
C32 C 0.72779(13) 0.1043(4) 0.61981(11)
H23 H 0.6945 0.0753 0.6189
C33 C 0.74282(13) 0.0245(4) 0.70731(11)
C34 C 0.69401(13) 0.0238(4) 0.72184(12)
H24 H 0.6698 0.0680 0.7014
C35 C 0.77814(13) -0.0392(4) 0.73837(11)
H25 H 0.8112 -0.0375 0.7291
Cd1 Cd 0.722774(8) -0.19789(3) 1.005287(7)
N1 N 0.75199(10) 0.1633(3) 0.58206(9)
N2 N 0.75650(10) 0.0900(3) 0.66020(9)
N3 N 0.70493(10) -0.2386(3) 0.92330(9)
N4 N 0.70268(10) -0.1797(3) 0.84405(9)
O1 O 0.70356(8) 0.0750(2) 0.99483(7)
O2 O 0.69990(8) 0.3326(3) 0.96921(8)
O3 O 0.60094(9) 0.3342(3) 0.81902(8)
O4 O 0.53882(9) -0.1279(3) 0.90796(8)
O5 O 0.55723(13) 1.0705(3) 0.68810(11)
O6 O 0.59224(12) 0.9209(3) 0.62927(10)
H26 H 0.5953 1.0115 0.6160
O7 O 0.37955(10) -0.8305(3) 0.92222(10)
O8 O 0.34468(9) -0.6667(3) 0.97617(8)
Cd1D Cd 0.277226(8) -0.80211(3) 0.994713(7)
Cd1F Cd 0.722774(8) 0.19789(3) 0.505287(7)
Cd1G Cd 0.777226(8) 0.30211(3) 1.005287(7)
N1F N 0.75199(10) -0.1633(3) 1.08206(9)
O1G O 0.79644(8) -0.4250(2) 0.99483(7)
O2G O 0.80010(8) -0.1674(3) 0.96921(8)
O8D O 0.65532(9) -0.3333(3) 1.02383(8)
loop_
_geom_bond_atom_site_label_1
_geom_bond_atom_site_label_2
_geom_bond_site_symmetry_1
_geom_bond_site_symmetry_2
C1 C2 1_555 1_555
C2 C3 1_555 1_555
C3 H1 1_555 1_555
C4 C3 1_555 1_555
C5 C4 1_555 1_555
H2 C5 1_555 1_555
C6 C5 1_555 1_555
C7 C2 1_555 1_555
H3 C7 1_555 1_555
C8 H4 1_555 1_555
H5 C8 1_555 1_555
C9 C8 1_555 1_555
C10 C9 1_555 1_555
H6 C10 1_555 1_555
C11 C10 1_555 1_555
H7 C11 1_555 1_555
C12 C11 1_555 1_555
C13 C12 1_555 1_555
H8 C13 1_555 1_555
C14 C9 1_555 1_555
H9 C14 1_555 1_555
C15 C12 1_555 1_555
C16 H10 1_555 1_555
H11 C16 1_555 1_555
C17 C16 1_555 1_555
C18 C17 1_555 1_555
H12 C18 1_555 1_555
C19 C18 1_555 1_555
H13 C19 1_555 1_555
C20 C19 1_555 1_555
C21 C20 1_555 1_555
H14 C21 1_555 1_555
C22 C17 1_555 1_555
H15 C22 1_555 1_555
C23 C20 1_555 1_555
C24 H16 1_555 1_555
C25 H17 1_555 1_555
C26 C25 1_555 1_555
H18 C26 1_555 1_555
C27 C28 1_555 1_555
C28 H19 1_555 1_555
C29 C27 1_555 1_555
H20 C29 1_555 1_555
C30 H21 1_555 1_555
C31 C30 1_555 1_555
H22 C31 1_555 1_555
C32 H23 1_555 1_555
C33 C34 1_555 1_555
C34 C28 1_555 1_555
H24 C34 1_555 1_555
C35 C29 1_555 1_555
H25 C35 1_555 1_555
Cd1 N3 1_555 1_555
N1 C30 1_555 1_555
N2 C31 1_555 1_555
N3 C24 1_555 1_555
N4 C24 1_555 1_555
O1 C1 1_555 1_555
O2 C1 1_555 1_555
O3 C4 1_555 1_555
O4 C6 1_555 1_555
O5 C15 1_555 1_555
O6 C15 1_555 1_555
H26 O6 1_555 1_555
O7 C23 1_555 1_555
O8 C23 1_555 1_555
Cd1D O8 1_555 1_555
Cd1F N1 1_555 1_555
Cd1G O1 1_555 1_555
N1F Cd1 1_555 1_555
O1G Cd1 1_555 1_555
O2G Cd1 1_555 1_555
O8D Cd1 1_555 1_555
C6 C7 1_555 1_555
C8 O3 1_555 1_555
C13 C14 1_555 1_555
C16 O4 1_555 1_555
C21 C22 1_555 1_555
C25 N3 1_555 1_555
C26 N4 1_555 1_555
C27 N4 1_555 1_555
C32 N1 1_555 1_555
C32 N2 1_555 1_555
C33 C35 1_555 1_555
C33 N2 1_555 1_555
Cd1 O1 1_555 1_555
O2 Cd1G 1_555 1_555

#END
