
#######################################################################
#
#                 Cambridge Crystallographic Data Centre
#                                CCDC 
#
#######################################################################
#
# If this CIF has been generated from an entry in the Cambridge 
# Structural Database, then it will include bibliographic, chemical, 
# crystal, experimental, refinement or atomic coordinate data resulting 
# from the CCDC's data processing and validation procedures.
#
#######################################################################

data_NOFNAZ
_symmetry_cell_setting           orthorhombic
_symmetry_space_group_name_H-M   'P b c n'
_symmetry_Int_Tables_number      60
_space_group_name_Hall           '-P 2n 2ab'
loop_
_symmetry_equiv_pos_site_id
_symmetry_equiv_pos_as_xyz
1 x,y,z
2 1/2-x,1/2-y,1/2+z
3 -x,y,1/2-z
4 1/2+x,1/2-y,-z
5 -x,-y,-z
6 1/2+x,1/2+y,1/2-z
7 x,-y,1/2+z
8 1/2-x,1/2+y,z
_cell_length_a                   26.4977(19)
_cell_length_b                   8.1948(6)
_cell_length_c                   26.8556(6)
_cell_angle_alpha                90
_cell_angle_beta                 90
_cell_angle_gamma                90
_cell_volume                     5831.52
loop_
_atom_site_label
_atom_site_type_symbol
_atom_site_fract_x
_atom_site_fract_y
_atom_site_fract_z
C1 C 0.27653(11) 0.1528(4) 0.89213(11)
H1 H 0.2513 0.0754 0.8968
C2 C 0.33108(12) 0.3370(4) 0.90588(12)
H2 H 0.3512 0.4132 0.9221
C3 C 0.33269(12) 0.3044(4) 0.85590(12)
H3 H 0.3536 0.3531 0.8324
C4 C 0.28432(12) 0.1129(4) 0.80013(11)
C5 C 0.32008(12) 0.0449(4) 0.76962(12)
H4 H 0.3537 0.0458 0.7796
C6 C 0.23505(12) 0.1108(4) 0.78535(12)
H5 H 0.2103 0.1556 0.8057
C7 C 0.20250(13) -0.2046(5) 0.60063(13)
H6 H 0.1765 -0.2526 0.5826
C8 C 0.19929(13) -0.1578(5) 0.64891(13)
H7 H 0.1712 -0.1679 0.6694
C9 C 0.27302(12) -0.1060(4) 0.62013(12)
H8 H 0.3064 -0.0714 0.6185
C10 C 0.25793(12) -0.0248(4) 0.70910(11)
C11 C 0.22185(12) 0.0415(4) 0.73972(11)
H9 H 0.1882 0.0402 0.7299
C12 C 0.30762(12) -0.0249(4) 0.72443(12)
H10 H 0.3325 -0.0715 0.7045
C13 C 0.18768(11) 0.3403(4) 0.97437(11)
C14 C 0.14491(10) 0.3657(3) 0.93809(11)
C15 C 0.14070(11) 0.2601(4) 0.89792(11)
H11 H 0.1640 0.1761 0.8942
C16 C 0.10239(11) 0.2781(4) 0.86340(11)
C17 C 0.06808(11) 0.4022(4) 0.86885(11)
H12 H 0.0421 0.4155 0.8459
C18 C 0.07258(11) 0.5082(4) 0.90933(11)
C19 C 0.11062(10) 0.4925(4) 0.94417(11)
H13 H 0.1132 0.5644 0.9708
C20 C 0.03726(13) 0.7352(4) 0.95227(14)
H14 H 0.0692 0.7931 0.9536
H15 H 0.0336 0.6728 0.9827
C21 C -0.00538(12) 0.8550(4) 0.94772(13)
C22 C 0.00124(12) 1.0037(4) 0.92393(13)
H16 H 0.0321 1.0274 0.9091
C23 C -0.03728(12) 1.1176(4) 0.92180(12)
H17 H -0.0324 1.2165 0.9055
C24 C -0.08281(11) 1.0831(4) 0.94395(11)
C25 C -0.08921(12) 0.9331(4) 0.96751(12)
H18 H -0.1199 0.9091 0.9827
C26 C -0.05100(13) 0.8202(4) 0.96877(13)
H19 H -0.0562 0.7196 0.9840
C27 C -0.12367(12) 1.2090(4) 0.94560(12)
C28 C 0.05944(13) 0.1644(5) 0.79154(14)
H20 H 0.0609 0.2601 0.7703
H21 H 0.0279 0.1665 0.8098
C29 C 0.06285(12) 0.0106(5) 0.76041(14)
C30 C 0.05562(13) -0.1404(5) 0.78431(15)
H22 H 0.0494 -0.1457 0.8183
C31 C 0.05806(13) -0.2833(5) 0.75517(14)
H23 H 0.0528 -0.3844 0.7701
C32 C 0.06833(12) -0.2748(5) 0.70383(13)
C33 C 0.07522(12) -0.1273(4) 0.68128(14)
H24 H 0.0818 -0.1223 0.6473
C34 C 0.07245(12) 0.0170(5) 0.70941(14)
H25 H 0.0770 0.1174 0.6939
C35 C 0.07073(14) -0.4324(5) 0.67481(16)
Fe1 Fe 0.276903(15) 0.20408(5) 1.007472(15)
N1 N 0.29562(9) 0.2413(3) 0.92851(9)
N2 N 0.29741(9) 0.1861(3) 0.84736(9)
N3 N 0.24935(9) -0.1713(3) 0.58221(9)
N4 N 0.24466(10) -0.0934(3) 0.66190(9)
O1 O 0.20605(8) 0.4558(3) 0.99952(7)
O2 O 0.20452(7) 0.1962(3) 0.97772(7)
O3 O 0.10117(8) 0.1638(3) 0.82529(9)
O4 O 0.03666(8) 0.6280(3) 0.91034(8)
O5 O 0.05685(12) -0.5625(4) 0.69101(12)
O6 O 0.09112(12) -0.4151(3) 0.63069(10)
H26 H 0.0924 -0.5041 0.6168
O7 O -0.11905(9) 1.3373(3) 0.92191(11)
O8 O -0.16117(8) 1.1731(3) 0.97292(8)
Fe1C Fe -0.223097(15) 1.29592(5) 0.992528(15)
Fe1F Fe 0.276903(15) -0.20408(5) 0.507472(15)
Fe1G Fe 0.223097(15) 0.70408(5) 1.007472(15)
N3F N 0.24935(9) 0.1713(3) 1.08221(9)
O1G O 0.29395(8) -0.0442(3) 0.99952(7)
O8C O 0.33883(8) 0.3269(3) 1.02708(8)
loop_
_geom_bond_atom_site_label_1
_geom_bond_atom_site_label_2
_geom_bond_site_symmetry_1
_geom_bond_site_symmetry_2
C1 H1 1_555 1_555
C2 H2 1_555 1_555
C3 C2 1_555 1_555
H3 C3 1_555 1_555
C4 C5 1_555 1_555
C5 H4 1_555 1_555
C6 C4 1_555 1_555
H5 C6 1_555 1_555
C7 H6 1_555 1_555
C8 C7 1_555 1_555
H7 C8 1_555 1_555
C9 H8 1_555 1_555
C10 C11 1_555 1_555
C11 C6 1_555 1_555
H9 C11 1_555 1_555
C12 C5 1_555 1_555
H10 C12 1_555 1_555
C13 C14 1_555 1_555
C14 C15 1_555 1_555
C15 H11 1_555 1_555
C16 C15 1_555 1_555
C17 C16 1_555 1_555
H12 C17 1_555 1_555
C18 C17 1_555 1_555
C19 C14 1_555 1_555
H13 C19 1_555 1_555
C20 H14 1_555 1_555
H15 C20 1_555 1_555
C21 C20 1_555 1_555
C22 C21 1_555 1_555
H16 C22 1_555 1_555
C23 C22 1_555 1_555
H17 C23 1_555 1_555
C24 C23 1_555 1_555
C25 C24 1_555 1_555
H18 C25 1_555 1_555
C26 C21 1_555 1_555
H19 C26 1_555 1_555
C27 C24 1_555 1_555
C28 H20 1_555 1_555
H21 C28 1_555 1_555
C29 C28 1_555 1_555
C30 C29 1_555 1_555
H22 C30 1_555 1_555
C31 C30 1_555 1_555
H23 C31 1_555 1_555
C32 C31 1_555 1_555
C33 C32 1_555 1_555
H24 C33 1_555 1_555
C34 C29 1_555 1_555
H25 C34 1_555 1_555
C35 C32 1_555 1_555
Fe1 N1 1_555 1_555
N1 C1 1_555 1_555
N2 C1 1_555 1_555
N3 C7 1_555 1_555
N4 C8 1_555 1_555
O1 C13 1_555 1_555
O2 C13 1_555 1_555
O3 C16 1_555 1_555
O4 C18 1_555 1_555
O5 C35 1_555 1_555
O6 C35 1_555 1_555
H26 O6 1_555 1_555
O7 C27 1_555 1_555
O8 C27 1_555 1_555
Fe1C O8 1_555 1_555
Fe1F N3 1_555 1_555
Fe1G O1 1_555 1_555
N3F Fe1 1_555 1_555
O1G Fe1 1_555 1_555
O8C Fe1 1_555 1_555
C2 N1 1_555 1_555
C3 N2 1_555 1_555
C4 N2 1_555 1_555
C9 N3 1_555 1_555
C9 N4 1_555 1_555
C10 C12 1_555 1_555
C10 N4 1_555 1_555
C18 C19 1_555 1_555
C20 O4 1_555 1_555
C25 C26 1_555 1_555
C28 O3 1_555 1_555
C33 C34 1_555 1_555
Fe1 O2 1_555 1_555

#END
