
#######################################################################
#
#                 Cambridge Crystallographic Data Centre
#                                CCDC 
#
#######################################################################
#
# If this CIF has been generated from an entry in the Cambridge 
# Structural Database, then it will include bibliographic, chemical, 
# crystal, experimental, refinement or atomic coordinate data resulting 
# from the CCDC's data processing and validation procedures.
#
#######################################################################

data_NOFRAC
_symmetry_cell_setting           monoclinic
_symmetry_space_group_name_H-M   'P 21/n'
_symmetry_Int_Tables_number      14
_space_group_name_Hall           '-P 2yn'
loop_
_symmetry_equiv_pos_site_id
_symmetry_equiv_pos_as_xyz
1 x,y,z
2 1/2-x,1/2+y,1/2-z
3 -x,-y,-z
4 1/2+x,1/2-y,1/2+z
_cell_length_a                   11.1241(7)
_cell_length_b                   10.5933(8)
_cell_length_c                   17.8256(14)
_cell_angle_alpha                90
_cell_angle_beta                 100.865(4)
_cell_angle_gamma                90
_cell_volume                     2062.93
loop_
_atom_site_label
_atom_site_type_symbol
_atom_site_fract_x
_atom_site_fract_y
_atom_site_fract_z
Pb1 Pb 0.40156(4) -0.05460(3) 0.37399(2)
Pb2 Pb 0.92192(4) 0.16504(3) 0.24273(2)
Pb3 Pb 0.58074(3) 0.23947(4) 0.26299(2)
As1 As 0.71833(9) -0.04445(8) 0.33215(5)
S1 S 0.2458(2) 0.1201(2) 0.18966(14)
N1 N 0.9587(10) -0.2813(9) 0.5714(5)
C1 C 0.7954(10) -0.0492(9) 0.4363(6)
C2 C 0.8479(10) -0.1605(10) 0.4683(6)
H1 H 0.8436 -0.2340 0.4394
C3 C 0.9067(10) -0.1600(9) 0.5438(6)
C4 C 0.9217(9) -0.0487(9) 0.5907(6)
C5 C 0.8666(10) 0.0592(10) 0.5546(6)
H2 H 0.8712 0.1337 0.5826
C6 C 0.8063(11) 0.0614(10) 0.4806(6)
H3 H 0.7722 0.1364 0.4593
C7 C 0.2024(9) 0.0284(10) 0.1041(5)
C8 C 0.1637(9) -0.0927(9) 0.1103(5)
H4 H 0.1665 -0.1284 0.1583
C9 C 0.1200(9) -0.1623(8) 0.0450(5)
C10 C 0.1144(9) -0.1043(9) -0.0264(5)
H5 H 0.0832 -0.1490 -0.0707
C11 C 0.1547(9) 0.0189(9) -0.0317(5)
C12 C 0.1998(9) 0.0844(9) 0.0350(5)
H6 H 0.2283 0.1665 0.0326
C13 C 0.0756(10) -0.2965(10) 0.0490(6)
C14 C 0.1433(9) 0.0840(10) -0.1077(5)
O1 O 0.7476(6) 0.0948(6) 0.2933(4)
O2 O 0.5650(7) -0.0525(7) 0.3198(4)
O3 O 0.7624(7) -0.1686(6) 0.2867(4)
O4 O 0.9948(11) -0.2985(8) 0.6391(5)
O5 O 0.9659(14) -0.3644(9) 0.5259(5)
O6 O 0.9830(8) -0.0376(7) 0.6602(4)
O7 O 0.3411(7) 0.2038(8) 0.1768(4)
O8 O 0.1373(8) 0.1919(8) 0.1973(5)
O9 O 0.2798(11) 0.0305(8) 0.2507(4)
O10 O 0.0719(8) -0.3366(7) 0.1162(4)
O11 O 0.0492(8) -0.3600(7) -0.0088(4)
O12 O 0.1808(8) 0.1941(7) -0.1090(4)
O13 O 0.0885(7) 0.0296(6) -0.1668(4)
Pb1A Pb 0.09844(4) -0.55460(3) 0.12601(2)
Pb1C Pb -0.09844(4) -0.44540(3) -0.12601(2)
Pb2A Pb 0.57808(4) -0.33496(3) 0.25727(2)
Pb2B Pb 1.07808(4) -0.16504(3) 0.75727(2)
Pb2_2 Pb -0.07808(4) 0.16504(3) 0.24273(2)
Pb2B_2 Pb 0.07808(4) -0.16504(3) -0.24273(2)
Pb3A Pb 0.91926(3) -0.26053(4) 0.23701(2)
Pb3C Pb 0.08074(3) 0.26053(4) -0.23701(2)
O3A O 0.7376(7) 0.3314(6) 0.2133(4)
O4B O 1.0052(11) 0.2985(8) 0.3609(5)
O6B O 1.0170(8) 0.0376(7) 0.3398(4)
O8_2 O 1.1373(8) 0.1919(8) 0.1973(5)
O10A O 0.4281(8) 0.1634(7) 0.3838(4)
O11C O 0.5492(8) -0.1400(7) 0.4912(4)
O12C O 0.6808(8) 0.3059(7) 0.3910(4)
O13B O 0.9115(7) -0.0296(6) 0.1668(4)
O13C O 0.5885(7) 0.4704(6) 0.3332(4)
O14 O 0.5950(11) 0.0732(8) 0.1381(5)
loop_
_geom_bond_atom_site_label_1
_geom_bond_atom_site_label_2
_geom_bond_site_symmetry_1
_geom_bond_site_symmetry_2
Pb1 O2 1_555 1_555
Pb2 O1 1_555 1_555
Pb3 O1 1_555 1_555
As1 C1 1_555 1_555
S1 C7 1_555 1_555
N1 C3 1_555 1_555
C1 C2 1_555 1_555
C2 H1 1_555 1_555
C3 C2 1_555 1_555
C4 C3 1_555 1_555
C5 C4 1_555 1_555
H2 C5 1_555 1_555
C6 C1 1_555 1_555
H3 C6 1_555 1_555
C7 C8 1_555 1_555
C8 H4 1_555 1_555
C9 C8 1_555 1_555
C10 C9 1_555 1_555
H5 C10 1_555 1_555
C11 C10 1_555 1_555
C12 C7 1_555 1_555
H6 C12 1_555 1_555
C13 C9 1_555 1_555
C14 C11 1_555 1_555
O1 As1 1_555 1_555
O2 As1 1_555 1_555
O3 As1 1_555 1_555
O4 N1 1_555 1_555
O5 N1 1_555 1_555
O6 C4 1_555 1_555
O7 S1 1_555 1_555
O8 S1 1_555 1_555
O9 Pb1 1_555 1_555
O10 C13 1_555 1_555
O11 C13 1_555 1_555
O12 C14 1_555 1_555
O13 C14 1_555 1_555
Pb1A O10 1_555 1_555
Pb1C O11 1_555 1_555
Pb2A O3 1_555 1_555
Pb2B O4 1_555 1_555
Pb2_2 O8 1_555 1_555
Pb2B_2 O13 1_555 1_555
Pb3A O3 1_555 1_555
Pb3C O12 1_555 1_555
O3A Pb2 1_555 1_555
O4B Pb2 1_555 1_555
O6B Pb2 1_555 1_555
O8_2 Pb2 1_555 1_555
O10A Pb1 1_555 1_555
O11C Pb1 1_555 1_555
O12C Pb3 1_555 1_555
O13B Pb2 1_555 1_555
O13C Pb3 1_555 1_555
Pb3 O3A 1_555 1_555
S1 O9 1_555 1_555
C5 C6 1_555 1_555
C11 C12 1_555 1_555
O6 Pb2B 1_555 1_555
O13 Pb3C 1_555 1_555
Pb3A O13B 1_555 1_555

#END
