
#######################################################################
#
#                 Cambridge Crystallographic Data Centre
#                                CCDC 
#
#######################################################################
#
# If this CIF has been generated from an entry in the Cambridge 
# Structural Database, then it will include bibliographic, chemical, 
# crystal, experimental, refinement or atomic coordinate data resulting 
# from the CCDC's data processing and validation procedures.
#
#######################################################################

data_NOFVEK
_symmetry_cell_setting           orthorhombic
_symmetry_space_group_name_H-M   'P 21 21 21'
_symmetry_Int_Tables_number      19
_space_group_name_Hall           'P 2ac 2ab'
loop_
_symmetry_equiv_pos_site_id
_symmetry_equiv_pos_as_xyz
1 x,y,z
2 1/2-x,-y,1/2+z
3 -x,1/2+y,1/2-z
4 1/2+x,1/2-y,-z
_cell_length_a                   9.2358(7)
_cell_length_b                   12.7378(11)
_cell_length_c                   13.8257(13)
_cell_angle_alpha                90
_cell_angle_beta                 90
_cell_angle_gamma                90
_cell_volume                     1626.51
loop_
_atom_site_label
_atom_site_type_symbol
_atom_site_fract_x
_atom_site_fract_y
_atom_site_fract_z
K1 K -0.00132(13) 0.24992(11) 0.00293(9)
B1 B 0.2659(6) 0.2264(4) 0.2107(3)
C1 C 0.1944(5) 0.2099(4) 0.3184(3)
H1 H 0.2205 0.1392 0.3426
H2 H 0.0876 0.2130 0.3128
S1 S 0.25356(17) 0.30704(10) 0.40495(8)
C2 C 0.1585(8) 0.2633(6) 0.5118(4)
H3 H 0.1813 0.3101 0.5660
H4 H 0.1887 0.1916 0.5278
H5 H 0.0540 0.2645 0.4996
N1 N 0.2078(4) 0.1334(3) 0.1434(3)
N2 N 0.2625(6) 0.1161(3) 0.0516(3)
C3 C 0.1910(6) 0.0403(4) 0.0138(4)
H6 H 0.2094 0.0126 -0.0488
C4 C 0.0827(6) 0.0032(4) 0.0756(4)
H7 H 0.0149 -0.0515 0.0644
C5 C 0.0979(6) 0.0658(4) 0.1575(4)
H8 H 0.0400 0.0614 0.2141
N3 N 0.2097(4) 0.3312(3) 0.1634(3)
N4 N 0.2671(5) 0.3686(3) 0.0766(2)
C6 C 0.1930(6) 0.4476(5) 0.0518(4)
H9 H 0.2112 0.4874 -0.0051
C7 C 0.0808(6) 0.4702(4) 0.1172(4)
H10 H 0.0115 0.5252 0.1143
C8 C 0.0958(5) 0.3936(4) 0.1865(4)
H11 H 0.0358 0.3856 0.2418
C9 C 0.4412(4) 0.2252(4) 0.2134(3)
C10 C 0.5189(5) 0.1298(4) 0.2090(3)
H12 H 0.4667 0.0658 0.2034
C11 C 0.6709(6) 0.1265(5) 0.2128(4)
H13 H 0.7201 0.0612 0.2092
C12 C 0.7487(6) 0.2190(5) 0.2218(3)
H14 H 0.8516 0.2173 0.2230
C13 C 0.6756(5) 0.3150(5) 0.2291(4)
H15 H 0.7282 0.3785 0.2371
C14 C 0.5226(5) 0.3165(4) 0.2244(3)
H16 H 0.4737 0.3819 0.2290
K1C K -0.50132(13) 0.25008(11) -0.00293(9)
K1C_2 K 0.49868(13) 0.25008(11) -0.00293(9)
N2C N -0.2375(6) 0.3839(3) -0.0516(3)
N4C N -0.2329(5) 0.1314(3) -0.0766(2)
C9C C -0.0588(4) 0.2748(4) -0.2134(3)
C10C C 0.0189(5) 0.3702(4) -0.2090(3)
H12C H -0.0333 0.4342 -0.2034
C14C C 0.0226(5) 0.1835(4) -0.2244(3)
H16C H -0.0263 0.1181 -0.2290
loop_
_geom_bond_atom_site_label_1
_geom_bond_atom_site_label_2
_geom_bond_site_symmetry_1
_geom_bond_site_symmetry_2
K1 N1 1_555 1_555
B1 C1 1_555 1_555
C1 H1 1_555 1_555
H2 C1 1_555 1_555
S1 C1 1_555 1_555
C2 S1 1_555 1_555
H3 C2 1_555 1_555
H4 C2 1_555 1_555
H5 C2 1_555 1_555
N1 B1 1_555 1_555
N2 K1 1_555 1_555
C3 K1 1_555 1_555
H6 C3 1_555 1_555
C4 K1 1_555 1_555
H7 C4 1_555 1_555
C5 K1 1_555 1_555
H8 C5 1_555 1_555
N3 K1 1_555 1_555
N4 K1 1_555 1_555
C6 K1 1_555 1_555
H9 C6 1_555 1_555
C7 K1 1_555 1_555
H10 C7 1_555 1_555
C8 K1 1_555 1_555
H11 C8 1_555 1_555
C9 B1 1_555 1_555
C10 C9 1_555 1_555
H12 C10 1_555 1_555
C11 C10 1_555 1_555
H13 C11 1_555 1_555
C12 C11 1_555 1_555
H14 C12 1_555 1_555
C13 C12 1_555 1_555
H15 C13 1_555 1_555
C14 C9 1_555 1_555
H16 C14 1_555 1_555
K1C N2C 1_555 1_555
K1C_2 N2 1_555 1_555
N2C K1 1_555 1_555
N4C K1 1_555 1_555
C9C K1 1_555 1_555
C10C K1 1_555 1_555
H12C C10C 1_555 1_555
C14C K1 1_555 1_555
H16C C14C 1_555 1_555
B1 N3 1_555 1_555
N1 N2 1_555 1_555
N1 C5 1_555 1_555
N2 C3 1_555 1_555
C3 C4 1_555 1_555
C4 C5 1_555 1_555
N3 N4 1_555 1_555
N3 C8 1_555 1_555
N4 C6 1_555 1_555
N4 K1C_2 1_555 1_555
C6 C7 1_555 1_555
C7 C8 1_555 1_555
C9 K1C_2 1_555 1_555
C10 K1C_2 1_555 1_555
C13 C14 1_555 1_555
C14 K1C_2 1_555 1_555
K1C N4C 1_555 1_555
C9C C10C 1_555 1_555
C9C C14C 1_555 1_555

#END
