
#######################################################################
#
#                 Cambridge Crystallographic Data Centre
#                                CCDC 
#
#######################################################################
#
# If this CIF has been generated from an entry in the Cambridge 
# Structural Database, then it will include bibliographic, chemical, 
# crystal, experimental, refinement or atomic coordinate data resulting 
# from the CCDC's data processing and validation procedures.
#
#######################################################################

data_NOGCIW
_symmetry_cell_setting           triclinic
_symmetry_space_group_name_H-M   'P -1'
_symmetry_Int_Tables_number      2
_space_group_name_Hall           '-P 1'
loop_
_symmetry_equiv_pos_site_id
_symmetry_equiv_pos_as_xyz
1 x,y,z
2 -x,-y,-z
_cell_length_a                   9.656(6)
_cell_length_b                   15.404(9)
_cell_length_c                   15.822(10)
_cell_angle_alpha                78.68(2)
_cell_angle_beta                 78.917(19)
_cell_angle_gamma                77.15(2)
_cell_volume                     2222.47
loop_
_atom_site_label
_atom_site_type_symbol
_atom_site_fract_x
_atom_site_fract_y
_atom_site_fract_z
Fe1 Fe 0.43350(6) 0.24136(4) 0.21179(3)
Zn1 Zn 0.5000 0.0000 0.0000
Zn2 Zn 0.5000 0.0000 0.5000
N1 N 0.3673(4) 0.3349(2) 0.1132(2)
N2 N 0.6243(3) 0.2525(2) 0.1428(2)
N3 N 0.4368(4) 0.3334(2) 0.2857(2)
N4 N 0.2359(3) 0.2471(2) 0.2764(2)
N5 N 0.3437(4) 0.0688(3) -0.0785(2)
H1 H 0.3645 0.0440 -0.1282
N6 N 0.3461(4) -0.0753(2) 0.0640(2)
H2 H 0.3029 -0.0514 0.1129
N7 N 0.4184(4) 0.0978(3) 0.1047(2)
N8 N 0.5338(4) 0.0998(3) 0.3641(2)
C1 C 0.2336(5) 0.3748(3) 0.0998(3)
H3 H 0.1568 0.3654 0.1437
C2 C 0.2066(6) 0.4307(4) 0.0209(4)
H4 H 0.1122 0.4568 0.0136
C3 C 0.3142(7) 0.4473(3) -0.0446(3)
H5 H 0.2946 0.4837 -0.0968
C4 C 0.4565(6) 0.4086(3) -0.0323(3)
C5 C 0.5810(7) 0.4225(3) -0.0955(3)
H6 H 0.5694 0.4593 -0.1487
C6 C 0.7140(7) 0.3833(3) -0.0791(3)
H7 H 0.7926 0.3939 -0.1213
C7 C 0.7378(5) 0.3252(3) 0.0024(3)
C8 C 0.8738(5) 0.2808(4) 0.0233(3)
H8 H 0.9572 0.2900 -0.0149
C9 C 0.8809(5) 0.2234(4) 0.1013(3)
H9 H 0.9698 0.1935 0.1163
C10 C 0.7547(4) 0.2099(3) 0.1584(3)
H10 H 0.7626 0.1691 0.2098
C11 C 0.6175(5) 0.3099(3) 0.0645(2)
C12 C 0.4760(5) 0.3532(3) 0.0482(3)
C13 C 0.5436(6) 0.3734(3) 0.2909(3)
H11 H 0.6280 0.3649 0.2511
C14 C 0.5331(7) 0.4277(4) 0.3542(4)
H12 H 0.6095 0.4548 0.3555
C15 C 0.4120(7) 0.4410(4) 0.4135(4)
H13 H 0.4057 0.4760 0.4562
C16 C 0.2963(6) 0.4012(3) 0.4099(3)
C17 C 0.1624(7) 0.4120(4) 0.4673(3)
H14 H 0.1486 0.4471 0.5109
C18 C 0.0553(6) 0.3721(4) 0.4596(3)
H15 H -0.0311 0.3809 0.4976
C19 C 0.0716(5) 0.3164(3) 0.3939(3)
C20 C -0.0338(5) 0.2710(4) 0.3837(3)
H16 H -0.1239 0.2788 0.4183
C21 C -0.0018(5) 0.2148(3) 0.3218(3)
H17 H -0.0703 0.1842 0.3141
C22 C 0.1336(5) 0.2041(3) 0.2708(3)
H18 H 0.1537 0.1646 0.2306
C23 C 0.2039(4) 0.3030(3) 0.3381(2)
C24 C 0.3146(5) 0.3479(3) 0.3441(2)
C25 C 0.2081(5) 0.0436(4) -0.0305(4)
H19 H 0.1369 0.0567 -0.0692
H20 H 0.1713 0.0779 0.0170
C26 C 0.2376(5) -0.0570(4) 0.0053(3)
H21 H 0.1495 -0.0752 0.0370
H22 H 0.2727 -0.0913 -0.0424
C27 C 0.4035(6) -0.1719(3) 0.0924(3)
H23 H 0.4449 -0.2000 0.0411
H24 H 0.3247 -0.2009 0.1232
C28 C 0.5150(7) -0.1876(4) 0.1501(4)
H25 H 0.5282 -0.2503 0.1779
H26 H 0.4786 -0.1509 0.1958
C29 C 0.3380(6) 0.1672(4) -0.1057(4)
H27 H 0.2688 0.1909 -0.1456
H28 H 0.3058 0.1971 -0.0548
C30 C 0.4214(4) 0.1506(3) 0.1477(2)
C31 C 0.5025(4) 0.1512(3) 0.3040(3)
N9 N 0.6994(11) -0.0757(8) 0.4555(10)
H29 H 0.7319 -0.0475 0.4016
C32 C 0.6862(6) -0.1672(4) 0.4470(3)
H30 H 0.6659 -0.2017 0.5047
H31 H 0.7769 -0.1974 0.4181
C33 C 0.5691(7) -0.1650(6) 0.3960(4)
H32 H 0.5920 -0.2217 0.3736
H33 H 0.5796 -0.1181 0.3458
N10 N 0.3728(9) -0.0534(7) 0.4396(6)
H34 H 0.3871 -0.0259 0.3831
C34 C 0.4099(11) -0.1511(6) 0.4331(8)
H35 H 0.3547 -0.1655 0.3944
H36 H 0.3930 -0.1878 0.4900
C35 C 0.2116(7) -0.0194(5) 0.4704(5)
H37 H 0.1552 -0.0197 0.4260
H38 H 0.1775 -0.0572 0.5236
C36 C 0.7996(5) -0.0741(4) 0.5139(3)
H39 H 0.7777 -0.1128 0.5690
H40 H 0.8971 -0.0970 0.4879
Fe1A Fe 0.56650(6) -0.24136(4) -0.21179(3)
Zn2_2 Zn 0.5000 0.0000 -0.5000
N1A N 0.6327(4) -0.3349(2) -0.1132(2)
N2A N 0.3757(3) -0.2525(2) -0.1428(2)
N3A N 0.5632(4) -0.3334(2) -0.2857(2)
N4A N 0.7641(3) -0.2471(2) -0.2764(2)
N5A N 0.6563(4) -0.0688(3) 0.0785(2)
H1A H 0.6355 -0.0440 0.1282
N6A N 0.6539(4) 0.0753(2) -0.0640(2)
H2A H 0.6971 0.0514 -0.1129
N7A N 0.5816(4) -0.0978(3) -0.1047(2)
N8A N 0.4662(4) -0.0998(3) -0.3641(2)
N8A_2 N 0.4662(4) -0.0998(3) 0.6359(2)
C1A C 0.7664(5) -0.3748(3) -0.0998(3)
H3A H 0.8432 -0.3654 -0.1437
C2A C 0.7934(6) -0.4307(4) -0.0209(4)
H4A H 0.8878 -0.4568 -0.0136
C3A C 0.6858(7) -0.4473(3) 0.0446(3)
H5A H 0.7054 -0.4837 0.0968
C4A C 0.5435(6) -0.4086(3) 0.0323(3)
C5A C 0.4190(7) -0.4225(3) 0.0955(3)
H6A H 0.4306 -0.4593 0.1487
C6A C 0.2860(7) -0.3833(3) 0.0791(3)
H7A H 0.2074 -0.3939 0.1213
C7A C 0.2622(5) -0.3252(3) -0.0024(3)
C8A C 0.1262(5) -0.2808(4) -0.0233(3)
H8A H 0.0428 -0.2900 0.0149
C9A C 0.1191(5) -0.2234(4) -0.1013(3)
H9A H 0.0302 -0.1935 -0.1163
C10A C 0.2453(4) -0.2099(3) -0.1584(3)
H10A H 0.2374 -0.1691 -0.2098
C11A C 0.3825(5) -0.3099(3) -0.0645(2)
C12A C 0.5240(5) -0.3532(3) -0.0482(3)
C13A C 0.4564(6) -0.3734(3) -0.2909(3)
H11A H 0.3720 -0.3649 -0.2511
C14A C 0.4669(7) -0.4277(4) -0.3542(4)
H12A H 0.3905 -0.4548 -0.3555
C15A C 0.5880(7) -0.4410(4) -0.4135(4)
H13A H 0.5943 -0.4760 -0.4562
C16A C 0.7037(6) -0.4012(3) -0.4099(3)
C17A C 0.8376(7) -0.4120(4) -0.4673(3)
H14A H 0.8514 -0.4471 -0.5109
C18A C 0.9447(6) -0.3721(4) -0.4596(3)
H15A H 1.0311 -0.3809 -0.4976
C19A C 0.9284(5) -0.3164(3) -0.3939(3)
C20A C 1.0338(5) -0.2710(4) -0.3837(3)
H16A H 1.1239 -0.2788 -0.4183
C21A C 1.0018(5) -0.2148(3) -0.3218(3)
H17A H 1.0703 -0.1842 -0.3141
C22A C 0.8664(5) -0.2041(3) -0.2708(3)
H18A H 0.8463 -0.1646 -0.2306
C23A C 0.7961(4) -0.3030(3) -0.3381(2)
C24A C 0.6854(5) -0.3479(3) -0.3441(2)
C25A C 0.7919(5) -0.0436(4) 0.0305(4)
H19A H 0.8631 -0.0567 0.0692
H20A H 0.8287 -0.0779 -0.0170
C26A C 0.7624(5) 0.0570(4) -0.0053(3)
H21A H 0.8505 0.0752 -0.0370
H22A H 0.7273 0.0913 0.0424
C27A C 0.5965(6) 0.1719(3) -0.0924(3)
H23A H 0.5551 0.2000 -0.0411
H24A H 0.6753 0.2009 -0.1232
C28A C 0.4850(7) 0.1876(4) -0.1501(4)
H25A H 0.4718 0.2503 -0.1779
H26A H 0.5214 0.1509 -0.1958
C29A C 0.6620(6) -0.1672(4) 0.1057(4)
H27A H 0.7312 -0.1909 0.1456
H28A H 0.6942 -0.1971 0.0548
C30A C 0.5786(4) -0.1506(3) -0.1477(2)
C31A C 0.4975(4) -0.1512(3) -0.3040(3)
N9A N 0.3006(11) 0.0757(8) 0.5445(10)
H29A H 0.2681 0.0475 0.5984
C32A C 0.3138(6) 0.1672(4) 0.5530(3)
H30A H 0.3341 0.2017 0.4953
H31A H 0.2231 0.1974 0.5819
C33A C 0.4309(7) 0.1650(6) 0.6040(4)
H32A H 0.4080 0.2217 0.6264
H33A H 0.4204 0.1181 0.6542
N10A N 0.6272(9) 0.0534(7) 0.5604(6)
H34A H 0.6129 0.0259 0.6169
C34A C 0.5901(11) 0.1511(6) 0.5669(8)
H35A H 0.6453 0.1655 0.6056
H36A H 0.6070 0.1878 0.5100
C35A C 0.7884(7) 0.0194(5) 0.5296(5)
H37A H 0.8448 0.0197 0.5740
H38A H 0.8225 0.0572 0.4764
C36A C 0.2004(5) 0.0741(4) 0.4861(3)
H39A H 0.2223 0.1128 0.4310
H40A H 0.1029 0.0970 0.5121
P1 P 0.11545(18) 0.44488(12) -0.24439(10)
F1 F -0.0501(4) 0.4833(3) -0.2537(3)
F2 F 0.1607(4) 0.4903(3) -0.3415(2)
F3 F 0.1103(8) 0.3573(4) -0.2768(5)
F4 F 0.0695(5) 0.4035(4) -0.1475(3)
F5 F 0.1240(5) 0.5349(3) -0.2135(3)
F6 F 0.2786(4) 0.4097(3) -0.2330(3)
P2 P 0.0046(2) -0.05677(11) 0.25231(11)
F7 F -0.1577(5) -0.0629(4) 0.2534(3)
F8 F 0.0556(5) -0.1308(3) 0.1910(3)
F9 F 0.0031(6) 0.0176(3) 0.1690(3)
F10 F -0.0526(6) 0.0172(3) 0.3138(3)
F11 F 0.0105(5) -0.1308(3) 0.3374(2)
F12 F 0.1662(5) -0.0524(4) 0.2518(3)
C37 C 0.2752(15) 0.6696(7) 0.3783(9)
C38 C 0.2163(15) 0.6667(8) 0.3064(6)
N11 N 0.3211(14) 0.6737(12) 0.4452(8)
N12? N 0.6932(16) -0.0776(11) 0.4622(14)
H41? H 0.7242 -0.0486 0.4083
C39? C 0.6862(6) -0.1672(4) 0.4470(3)
H42? H 0.6701 -0.2059 0.5028
H43? H 0.7778 -0.1931 0.4156
C40? C 0.5691(7) -0.1650(6) 0.3960(4)
H44? H 0.5473 -0.2245 0.4007
H45? H 0.5934 -0.1403 0.3350
C41? C 0.3220(14) -0.0592(9) 0.4061(9)
H46? H 0.2879 -0.1036 0.3838
H47? H 0.3466 -0.0130 0.3576
N13? N 0.4400(11) -0.0993(9) 0.4450(7)
H48? H 0.4046 -0.1364 0.4925
C42? C 0.2116(7) -0.0194(5) 0.4704(5)
H49? H 0.2206 -0.0587 0.5258
H50? H 0.1200 -0.0224 0.4556
C43? C 0.2004(5) 0.0741(4) 0.4861(3)
H51? H 0.2144 0.1137 0.4307
H52? H 0.1050 0.0952 0.5163
loop_
_geom_bond_atom_site_label_1
_geom_bond_atom_site_label_2
_geom_bond_site_symmetry_1
_geom_bond_site_symmetry_2
Fe1 N1 1_555 1_555
Zn1 N5 1_555 1_555
Zn2 N8 1_555 1_555
N1 C1 1_555 1_555
N2 Fe1 1_555 1_555
N3 Fe1 1_555 1_555
N4 Fe1 1_555 1_555
N5 H1 1_555 1_555
N6 Zn1 1_555 1_555
H2 N6 1_555 1_555
N7 Zn1 1_555 1_555
N8 C31 1_555 1_555
C1 H3 1_555 1_555
C2 C1 1_555 1_555
H4 C2 1_555 1_555
C3 C2 1_555 1_555
H5 C3 1_555 1_555
C4 C3 1_555 1_555
C5 C4 1_555 1_555
H6 C5 1_555 1_555
C6 C5 1_555 1_555
H7 C6 1_555 1_555
C7 C6 1_555 1_555
C8 C7 1_555 1_555
H8 C8 1_555 1_555
C9 C8 1_555 1_555
H9 C9 1_555 1_555
C10 N2 1_555 1_555
H10 C10 1_555 1_555
C11 N2 1_555 1_555
C12 N1 1_555 1_555
C13 N3 1_555 1_555
H11 C13 1_555 1_555
C14 C13 1_555 1_555
H12 C14 1_555 1_555
C15 C14 1_555 1_555
H13 C15 1_555 1_555
C16 C15 1_555 1_555
C17 C16 1_555 1_555
H14 C17 1_555 1_555
C18 C17 1_555 1_555
H15 C18 1_555 1_555
C19 C18 1_555 1_555
C20 C19 1_555 1_555
H16 C20 1_555 1_555
C21 C20 1_555 1_555
H17 C21 1_555 1_555
C22 N4 1_555 1_555
H18 C22 1_555 1_555
C23 N4 1_555 1_555
C24 N3 1_555 1_555
C25 N5 1_555 1_555
H19 C25 1_555 1_555
H20 C25 1_555 1_555
C26 N6 1_555 1_555
H21 C26 1_555 1_555
H22 C26 1_555 1_555
C27 N6 1_555 1_555
H23 C27 1_555 1_555
H24 C27 1_555 1_555
C28 C27 1_555 1_555
H25 C28 1_555 1_555
H26 C28 1_555 1_555
C29 N5 1_555 1_555
H27 C29 1_555 1_555
H28 C29 1_555 1_555
C30 Fe1 1_555 1_555
C31 Fe1 1_555 1_555
N9 Zn2 1_555 1_555
H29 N9 1_555 1_555
C32 N9 1_555 1_555
H30 C32 1_555 1_555
H31 C32 1_555 1_555
C33 C32 1_555 1_555
H32 C33 1_555 1_555
H33 C33 1_555 1_555
N10 Zn2 1_555 1_555
H34 N10 1_555 1_555
C34 C33 1_555 1_555
H35 C34 1_555 1_555
H36 C34 1_555 1_555
C35 N10 1_555 1_555
H37 C35 1_555 1_555
H38 C35 1_555 1_555
C36 N9 1_555 1_555
H39 C36 1_555 1_555
H40 C36 1_555 1_555
P1 F1 1_555 1_555
F2 P1 1_555 1_555
F3 P1 1_555 1_555
F4 P1 1_555 1_555
F5 P1 1_555 1_555
F6 P1 1_555 1_555
P2 F7 1_555 1_555
F8 P2 1_555 1_555
F9 P2 1_555 1_555
F10 P2 1_555 1_555
F11 P2 1_555 1_555
F12 P2 1_555 1_555
C37 C38 1_555 1_555
N11 C37 1_555 1_555
Fe1A N1A 1_555 1_555
Zn2_2 N8A 1_555 1_555
N1A C1A 1_555 1_555
N2A Fe1A 1_555 1_555
N3A Fe1A 1_555 1_555
N4A Fe1A 1_555 1_555
N5A Zn1 1_555 1_555
H1A N5A 1_555 1_555
N6A Zn1 1_555 1_555
H2A N6A 1_555 1_555
N7A Zn1 1_555 1_555
N8A C31A 1_555 1_555
N8A_2 Zn2 1_555 1_555
C1A H3A 1_555 1_555
C2A C1A 1_555 1_555
H4A C2A 1_555 1_555
C3A C2A 1_555 1_555
H5A C3A 1_555 1_555
C4A C3A 1_555 1_555
C5A C4A 1_555 1_555
H6A C5A 1_555 1_555
C6A C5A 1_555 1_555
H7A C6A 1_555 1_555
C7A C6A 1_555 1_555
C8A C7A 1_555 1_555
H8A C8A 1_555 1_555
C9A C8A 1_555 1_555
H9A C9A 1_555 1_555
C10A N2A 1_555 1_555
H10A C10A 1_555 1_555
C11A N2A 1_555 1_555
C12A N1A 1_555 1_555
C13A N3A 1_555 1_555
H11A C13A 1_555 1_555
C14A C13A 1_555 1_555
H12A C14A 1_555 1_555
C15A C14A 1_555 1_555
H13A C15A 1_555 1_555
C16A C15A 1_555 1_555
C17A C16A 1_555 1_555
H14A C17A 1_555 1_555
C18A C17A 1_555 1_555
H15A C18A 1_555 1_555
C19A C18A 1_555 1_555
C20A C19A 1_555 1_555
H16A C20A 1_555 1_555
C21A C20A 1_555 1_555
H17A C21A 1_555 1_555
C22A N4A 1_555 1_555
H18A C22A 1_555 1_555
C23A N4A 1_555 1_555
C24A N3A 1_555 1_555
C25A N5A 1_555 1_555
H19A C25A 1_555 1_555
H20A C25A 1_555 1_555
C26A N6A 1_555 1_555
H21A C26A 1_555 1_555
H22A C26A 1_555 1_555
C27A N6A 1_555 1_555
H23A C27A 1_555 1_555
H24A C27A 1_555 1_555
C28A C29 1_555 1_555
H25A C28A 1_555 1_555
H26A C28A 1_555 1_555
C29A C28 1_555 1_555
H27A C29A 1_555 1_555
H28A C29A 1_555 1_555
C30A Fe1A 1_555 1_555
C31A Fe1A 1_555 1_555
N9A Zn2 1_555 1_555
H29A N9A 1_555 1_555
C32A N9A 1_555 1_555
H30A C32A 1_555 1_555
H31A C32A 1_555 1_555
C33A C32A 1_555 1_555
H32A C33A 1_555 1_555
H33A C33A 1_555 1_555
N10A Zn2 1_555 1_555
H34A N10A 1_555 1_555
C34A C33A 1_555 1_555
H35A C34A 1_555 1_555
H36A C34A 1_555 1_555
C35A C36 1_555 1_555
H37A C35A 1_555 1_555
H38A C35A 1_555 1_555
C36A C35 1_555 1_555
H39A C36A 1_555 1_555
H40A C36A 1_555 1_555
N7 C30 1_555 1_555
C4 C12 1_555 1_555
C7 C11 1_555 1_555
C9 C10 1_555 1_555
C11 C12 1_555 1_555
C16 C24 1_555 1_555
C19 C23 1_555 1_555
C21 C22 1_555 1_555
C23 C24 1_555 1_555
C25 C26 1_555 1_555
N10 C34 1_555 1_555
N5A C29A 1_555 1_555
N7A C30A 1_555 1_555
C4A C12A 1_555 1_555
C7A C11A 1_555 1_555
C9A C10A 1_555 1_555
C11A C12A 1_555 1_555
C16A C24A 1_555 1_555
C19A C23A 1_555 1_555
C21A C22A 1_555 1_555
C23A C24A 1_555 1_555
C25A C26A 1_555 1_555
C27A C28A 1_555 1_555
N9A C36A 1_555 1_555
N10A C34A 1_555 1_555
N10A C35A 1_555 1_555

#END
