
#######################################################################
#
#                 Cambridge Crystallographic Data Centre
#                                CCDC 
#
#######################################################################
#
# If this CIF has been generated from an entry in the Cambridge 
# Structural Database, then it will include bibliographic, chemical, 
# crystal, experimental, refinement or atomic coordinate data resulting 
# from the CCDC's data processing and validation procedures.
#
#######################################################################

data_NOGCES
_symmetry_cell_setting           triclinic
_symmetry_space_group_name_H-M   'P -1'
_symmetry_Int_Tables_number      2
_space_group_name_Hall           '-P 1'
loop_
_symmetry_equiv_pos_site_id
_symmetry_equiv_pos_as_xyz
1 x,y,z
2 -x,-y,-z
_cell_length_a                   10.439(4)
_cell_length_b                   14.976(7)
_cell_length_c                   15.914(8)
_cell_angle_alpha                83.168(15)
_cell_angle_beta                 74.338(15)
_cell_angle_gamma                78.023(15)
_cell_volume                     2338.15
loop_
_atom_site_label
_atom_site_type_symbol
_atom_site_fract_x
_atom_site_fract_y
_atom_site_fract_z
Fe1 Fe -0.87576(6) 0.76123(4) 0.76947(4)
Ni1 Ni -1.0000 0.5000 1.0000
Ni2 Ni -1.0000 1.0000 1.0000
C1 C -0.9176(5) 0.6672(3) 0.6223(3)
H1 H -0.9976 0.7091 0.6241
C2 C -0.8821(6) 0.5983(4) 0.5637(4)
H2 H -0.9372 0.5958 0.5272
C3 C -0.7656(6) 0.5340(4) 0.5601(4)
H3 H -0.7431 0.4865 0.5230
C4 C -0.6818(5) 0.5414(3) 0.6131(3)
C5 C -0.5558(7) 0.4815(4) 0.6132(4)
H4 H -0.5270 0.4330 0.5770
C6 C -0.4777(6) 0.4936(4) 0.6645(4)
H5 H -0.3966 0.4531 0.6631
C7 C -0.5172(5) 0.5686(3) 0.7221(3)
C8 C -0.4420(5) 0.5856(4) 0.7769(4)
H6 H -0.3593 0.5482 0.7781
C9 C -0.4908(5) 0.6571(4) 0.8282(4)
H7 H -0.4410 0.6697 0.8644
C10 C -0.6173(5) 0.7123(3) 0.8268(3)
H8 H -0.6498 0.7605 0.8633
C11 C -0.6425(5) 0.6270(3) 0.7233(3)
C12 C -0.7228(5) 0.6140(3) 0.6687(3)
C13 C -0.6852(5) 0.8790(3) 0.6539(3)
H9 H -0.6136 0.8381 0.6693
C14 C -0.6570(6) 0.9576(4) 0.6003(4)
H10 H -0.5688 0.9684 0.5811
C15 C -0.7604(6) 1.0181(3) 0.5765(4)
H11 H -0.7428 1.0704 0.5409
C16 C -0.8914(6) 1.0017(3) 0.6054(3)
C17 C -1.0110(7) 1.0602(3) 0.5869(4)
H12 H -1.0016 1.1136 0.5514
C18 C -1.1356(7) 1.0396(4) 0.6195(4)
H13 H -1.2098 1.0792 0.6061
C19 C -1.1556(6) 0.9591(3) 0.6736(4)
C20 C -1.2835(6) 0.9356(4) 0.7140(4)
H14 H -1.3613 0.9726 0.7029
C21 C -1.2933(5) 0.8594(4) 0.7691(5)
H15 H -1.3774 0.8438 0.7955
C22 C -1.1749(5) 0.8040(3) 0.7859(4)
H16 H -1.1828 0.7519 0.8236
C23 C -1.0433(5) 0.9002(3) 0.6935(3)
C24 C -0.9125(5) 0.9207(3) 0.6595(3)
C25 C -0.9475(4) 0.6706(3) 0.8545(3)
C26 C -0.9014(4) 0.8409(3) 0.8611(3)
C27 C -0.7544(6) 1.0625(5) 0.9096(5)
H17 H -0.7063 1.1121 0.8841
H18 H -0.7147 1.0102 0.8744
C28 C -0.9278(7) 1.1046(4) 0.8236(4)
H19 H -0.8892 1.0490 0.7931
H20 H -0.8839 1.1533 0.7901
C29 C -1.0801(7) 1.1288(4) 0.8290(4)
H21 H -1.1185 1.1806 0.8648
H22 H -1.0909 1.1487 0.7706
C30 C -1.1621(6) 1.0551(4) 0.8648(4)
H23 H -1.2510 1.0742 0.8537
H24 H -1.1184 0.9999 0.8347
C31 C -0.7429(6) 1.0378(4) 1.0016(5)
H25 H -0.7771 1.0911 1.0357
H26 H -0.6488 1.0161 1.0021
C32 C -0.6983(5) 0.4972(4) 0.9436(4)
H27 H -0.7104 0.5485 0.9013
H28 H -0.6085 0.4615 0.9229
C33 C -0.7949(5) 0.4051(4) 0.8656(4)
H29 H -0.7125 0.3606 0.8474
H30 H -0.7954 0.4550 0.8208
C34 C -0.9181(6) 0.3607(3) 0.8778(4)
H31 H -0.9183 0.3386 0.8230
H32 H -0.9154 0.3091 0.9208
C35 C -0.8330(5) 0.6073(3) 1.0649(4)
H33 H -0.8407 0.6558 1.0193
H34 H -0.8201 0.6335 1.1142
C36 C -0.7095(5) 0.5328(4) 1.0306(4)
H35 H -0.7107 0.4814 1.0739
H36 H -0.6284 0.5569 1.0261
N1 N -0.6917(3) 0.6986(2) 0.7758(2)
N2 N -0.8428(4) 0.6758(2) 0.6752(2)
N3 N -0.8092(4) 0.8600(2) 0.6839(2)
N4 N -1.0513(4) 0.8236(2) 0.7494(2)
N5 N -0.9794(4) 0.6135(2) 0.9066(3)
N6 N -0.9248(4) 0.8938(2) 0.9124(3)
N7 N -0.8003(4) 0.4398(2) 0.9498(3)
H44 H -0.7817 0.3901 0.9864
N8 N -0.9577(4) 0.5699(2) 1.0920(3)
H45 H -0.9503 0.5292 1.1385
N9 N -0.9007(5) 1.0911(3) 0.9112(3)
H46 H -0.9286 1.1465 0.9348
N10 N -0.8227(4) 0.9652(3) 1.0399(3)
H47 H -0.7760 0.9131 1.0138
Fe1A Fe -1.12424(6) 0.23877(4) 1.23053(4)
Ni2_2 Ni -1.0000 0.0000 1.0000
C1A C -1.0824(5) 0.3328(3) 1.3777(3)
H1A H -1.0024 0.2909 1.3759
C2A C -1.1179(6) 0.4017(4) 1.4363(4)
H2A H -1.0628 0.4042 1.4728
C3A C -1.2344(6) 0.4660(4) 1.4399(4)
H3A H -1.2569 0.5135 1.4770
C4A C -1.3182(5) 0.4586(3) 1.3869(3)
C5A C -1.4442(7) 0.5185(4) 1.3868(4)
H4A H -1.4730 0.5670 1.4230
C6A C -1.5223(6) 0.5064(4) 1.3355(4)
H5A H -1.6034 0.5469 1.3369
C7A C -1.4828(5) 0.4314(3) 1.2779(3)
C8A C -1.5580(5) 0.4144(4) 1.2231(4)
H6A H -1.6407 0.4518 1.2219
C9A C -1.5092(5) 0.3429(4) 1.1718(4)
H7A H -1.5590 0.3303 1.1356
C10A C -1.3827(5) 0.2877(3) 1.1732(3)
H8A H -1.3502 0.2395 1.1367
C11A C -1.3575(5) 0.3730(3) 1.2767(3)
C12A C -1.2772(5) 0.3860(3) 1.3313(3)
C13A C -1.3148(5) 0.1210(3) 1.3461(3)
H9A H -1.3864 0.1619 1.3307
C14A C -1.3430(6) 0.0424(4) 1.3997(4)
H10A H -1.4312 0.0316 1.4189
C15A C -1.2396(6) -0.0181(3) 1.4235(4)
H11A H -1.2572 -0.0704 1.4591
C16A C -1.1086(6) -0.0017(3) 1.3946(3)
C17A C -0.9890(7) -0.0602(3) 1.4131(4)
H12A H -0.9984 -0.1136 1.4486
C18A C -0.8644(7) -0.0396(4) 1.3805(4)
H13A H -0.7902 -0.0792 1.3939
C19A C -0.8444(6) 0.0409(3) 1.3264(4)
C20A C -0.7165(6) 0.0644(4) 1.2860(4)
H14A H -0.6387 0.0274 1.2971
C21A C -0.7067(5) 0.1406(4) 1.2309(5)
H15A H -0.6226 0.1562 1.2045
C22A C -0.8251(5) 0.1960(3) 1.2141(4)
H16A H -0.8172 0.2481 1.1764
C23A C -0.9567(5) 0.0998(3) 1.3065(3)
C24A C -1.0875(5) 0.0793(3) 1.3405(3)
C25A C -1.0525(4) 0.3294(3) 1.1455(3)
C26A C -1.0986(4) 0.1591(3) 1.1389(3)
C27A C -1.2456(6) 0.9375(5) 1.0904(5)
H17A H -1.2937 0.8879 1.1159
H18A H -1.2853 0.9898 1.1256
C28A C -1.0722(7) 0.8954(4) 1.1764(4)
H19A H -1.1108 0.9510 1.2069
H20A H -1.1161 0.8467 1.2099
C29A C -0.9199(7) 0.8712(4) 1.1710(4)
H21A H -0.8815 0.8194 1.1352
H22A H -0.9091 0.8513 1.2294
C30A C -0.8379(6) 0.9449(4) 1.1352(4)
H23A H -0.7490 0.9258 1.1463
H24A H -0.8816 1.0001 1.1653
C31A C -1.2571(6) 0.9622(4) 0.9984(5)
H25A H -1.2229 0.9089 0.9643
H26A H -1.3512 0.9839 0.9979
C32A C -1.3017(5) 0.5028(4) 1.0564(4)
H27A H -1.2896 0.4515 1.0987
H28A H -1.3915 0.5385 1.0771
C33A C -1.2051(5) 0.5949(4) 1.1344(4)
H29A H -1.2875 0.6394 1.1526
H30A H -1.2046 0.5450 1.1792
C34A C -1.0819(6) 0.6393(3) 1.1222(4)
H31A H -1.0817 0.6614 1.1770
H32A H -1.0846 0.6909 1.0792
C35A C -1.1670(5) 0.3927(3) 0.9351(4)
H33A H -1.1593 0.3442 0.9807
H34A H -1.1799 0.3665 0.8858
C36A C -1.2905(5) 0.4672(4) 0.9694(4)
H35A H -1.2893 0.5186 0.9261
H36A H -1.3716 0.4431 0.9739
N1A N -1.3083(3) 0.3014(2) 1.2242(2)
N2A N -1.1572(4) 0.3242(2) 1.3248(2)
N3A N -1.1908(4) 0.1400(2) 1.3161(2)
N4A N -0.9487(4) 0.1764(2) 1.2506(2)
N5A N -1.0206(4) 0.3865(2) 1.0934(3)
N6A N -1.0752(4) 0.1062(2) 1.0876(3)
N6A_2 N -1.0752(4) 1.1062(2) 1.0876(3)
N7A N -1.1997(4) 0.5602(2) 1.0502(3)
H44A H -1.2183 0.6099 1.0136
N8A N -1.0423(4) 0.4301(2) 0.9080(3)
H45A H -1.0497 0.4708 0.8615
N9A N -1.0993(5) 0.9089(3) 1.0888(3)
H46A H -1.0714 0.8535 1.0652
N10A N -1.1773(4) 1.0348(3) 0.9601(3)
H47A H -1.2240 1.0869 0.9862
C37 C -1.5477(9) 1.2105(7) 0.6858(6)
H37 H -1.5581 1.2119 0.7474
H38 H -1.5514 1.1502 0.6728
H39 H -1.6193 1.2538 0.6685
C38 C -1.3835(8) 1.2358(5) 0.5447(5)
H40 H -1.2958 1.2524 0.5227
H41 H -1.4489 1.2801 0.5223
H42 H -1.3809 1.1765 0.5264
C39 C -1.3393(9) 1.2552(5) 0.6802(6)
H43 H -1.3664 1.2544 0.7409
N11 N -1.4206(6) 1.2335(4) 0.6391(4)
O9 O -1.2280(6) 1.2768(4) 0.6427(4)
O1 O -1.5598(7) 0.7077(4) 1.0673(7)
O2 O -1.5546(6) 0.8327(5) 0.9689(4)
O3 O -1.4999(5) 0.8339(4) 1.0975(3)
O4 O -1.3574(4) 0.7421(3) 0.9870(4)
Cl1 Cl -1.49261(15) 0.77756(10) 1.03117(12)
O5 O -1.3826(6) 0.7853(6) 0.5823(5)
O6 O -1.1621(6) 0.7742(4) 0.5303(6)
O7 O -1.2283(6) 0.6540(5) 0.6062(6)
O8 O -1.2783(11) 0.6949(7) 0.4776(7)
Cl2 Cl -1.26851(16) 0.72590(11) 0.55060(12)
O10 O -1.1045(5) 0.5046(4) 0.7338(3)
O11 O -1.0070(6) 1.3329(4) 0.6663(4)
loop_
_geom_bond_atom_site_label_1
_geom_bond_atom_site_label_2
_geom_bond_site_symmetry_1
_geom_bond_site_symmetry_2
Fe1 C25 1_555 1_555
Ni1 N5 1_555 1_555
Ni2 N6 1_555 1_555
C1 H1 1_555 1_555
C2 C1 1_555 1_555
H2 C2 1_555 1_555
C3 C2 1_555 1_555
H3 C3 1_555 1_555
C4 C3 1_555 1_555
C5 C4 1_555 1_555
H4 C5 1_555 1_555
C6 C5 1_555 1_555
H5 C6 1_555 1_555
C7 C6 1_555 1_555
C8 C7 1_555 1_555
H6 C8 1_555 1_555
C9 C8 1_555 1_555
H7 C9 1_555 1_555
C10 C9 1_555 1_555
H8 C10 1_555 1_555
C11 C7 1_555 1_555
C12 C4 1_555 1_555
C13 H9 1_555 1_555
C14 C13 1_555 1_555
H10 C14 1_555 1_555
C15 C14 1_555 1_555
H11 C15 1_555 1_555
C16 C15 1_555 1_555
C17 C16 1_555 1_555
H12 C17 1_555 1_555
C18 C17 1_555 1_555
H13 C18 1_555 1_555
C19 C18 1_555 1_555
C20 C19 1_555 1_555
H14 C20 1_555 1_555
C21 C20 1_555 1_555
H15 C21 1_555 1_555
C22 C21 1_555 1_555
H16 C22 1_555 1_555
C23 C19 1_555 1_555
C24 C16 1_555 1_555
C25 N5 1_555 1_555
C26 Fe1 1_555 1_555
C27 H17 1_555 1_555
H18 C27 1_555 1_555
C28 H19 1_555 1_555
H20 C28 1_555 1_555
C29 C28 1_555 1_555
H21 C29 1_555 1_555
H22 C29 1_555 1_555
C30 C29 1_555 1_555
H23 C30 1_555 1_555
H24 C30 1_555 1_555
C31 C27 1_555 1_555
H25 C31 1_555 1_555
H26 C31 1_555 1_555
C32 H27 1_555 1_555
H28 C32 1_555 1_555
C33 H29 1_555 1_555
H30 C33 1_555 1_555
C34 C33 1_555 1_555
H31 C34 1_555 1_555
H32 C34 1_555 1_555
C35 H33 1_555 1_555
H34 C35 1_555 1_555
C36 C32 1_555 1_555
H35 C36 1_555 1_555
H36 C36 1_555 1_555
C37 H37 1_555 1_555
H38 C37 1_555 1_555
H39 C37 1_555 1_555
C38 H40 1_555 1_555
H41 C38 1_555 1_555
H42 C38 1_555 1_555
C39 H43 1_555 1_555
N1 Fe1 1_555 1_555
N2 Fe1 1_555 1_555
N3 Fe1 1_555 1_555
N4 Fe1 1_555 1_555
N6 C26 1_555 1_555
N7 Ni1 1_555 1_555
H44 N7 1_555 1_555
N8 Ni1 1_555 1_555
H45 N8 1_555 1_555
N9 Ni2 1_555 1_555
H46 N9 1_555 1_555
N10 Ni2 1_555 1_555
H47 N10 1_555 1_555
N11 C37 1_555 1_555
O1 Cl1 1_555 1_555
O2 Cl1 1_555 1_555
O3 Cl1 1_555 1_555
O4 Cl1 1_555 1_555
O5 Cl2 1_555 1_555
O6 Cl2 1_555 1_555
O7 Cl2 1_555 1_555
O8 Cl2 1_555 1_555
O9 C39 1_555 1_555
Fe1A C25A 1_555 1_555
Ni2_2 N6A 1_555 1_555
C1A H1A 1_555 1_555
C2A C1A 1_555 1_555
H2A C2A 1_555 1_555
C3A C2A 1_555 1_555
H3A C3A 1_555 1_555
C4A C3A 1_555 1_555
C5A C4A 1_555 1_555
H4A C5A 1_555 1_555
C6A C5A 1_555 1_555
H5A C6A 1_555 1_555
C7A C6A 1_555 1_555
C8A C7A 1_555 1_555
H6A C8A 1_555 1_555
C9A C8A 1_555 1_555
H7A C9A 1_555 1_555
C10A C9A 1_555 1_555
H8A C10A 1_555 1_555
C11A C7A 1_555 1_555
C12A C4A 1_555 1_555
C13A H9A 1_555 1_555
C14A C13A 1_555 1_555
H10A C14A 1_555 1_555
C15A C14A 1_555 1_555
H11A C15A 1_555 1_555
C16A C15A 1_555 1_555
C17A C16A 1_555 1_555
H12A C17A 1_555 1_555
C18A C17A 1_555 1_555
H13A C18A 1_555 1_555
C19A C18A 1_555 1_555
C20A C19A 1_555 1_555
H14A C20A 1_555 1_555
C21A C20A 1_555 1_555
H15A C21A 1_555 1_555
C22A C21A 1_555 1_555
H16A C22A 1_555 1_555
C23A C19A 1_555 1_555
C24A C16A 1_555 1_555
C25A N5A 1_555 1_555
C26A Fe1A 1_555 1_555
C27A H17A 1_555 1_555
H18A C27A 1_555 1_555
C28A H19A 1_555 1_555
H20A C28A 1_555 1_555
C29A C28A 1_555 1_555
H21A C29A 1_555 1_555
H22A C29A 1_555 1_555
C30A N10 1_555 1_555
H23A C30A 1_555 1_555
H24A C30A 1_555 1_555
C31A C27A 1_555 1_555
H25A C31A 1_555 1_555
H26A C31A 1_555 1_555
C32A H27A 1_555 1_555
H28A C32A 1_555 1_555
C33A H29A 1_555 1_555
H30A C33A 1_555 1_555
C34A N8 1_555 1_555
H31A C34A 1_555 1_555
H32A C34A 1_555 1_555
C35A H33A 1_555 1_555
H34A C35A 1_555 1_555
C36A C32A 1_555 1_555
H35A C36A 1_555 1_555
H36A C36A 1_555 1_555
N1A Fe1A 1_555 1_555
N2A Fe1A 1_555 1_555
N3A Fe1A 1_555 1_555
N4A Fe1A 1_555 1_555
N5A Ni1 1_555 1_555
N6A C26A 1_555 1_555
N6A_2 Ni2 1_555 1_555
N7A Ni1 1_555 1_555
H44A N7A 1_555 1_555
N8A Ni1 1_555 1_555
H45A N8A 1_555 1_555
N9A Ni2 1_555 1_555
H46A N9A 1_555 1_555
N10A Ni2 1_555 1_555
H47A N10A 1_555 1_555
C1 N2 1_555 1_555
C10 N1 1_555 1_555
C11 C12 1_555 1_555
C11 N1 1_555 1_555
C12 N2 1_555 1_555
C13 N3 1_555 1_555
C22 N4 1_555 1_555
C23 C24 1_555 1_555
C23 N4 1_555 1_555
C24 N3 1_555 1_555
C27 N9 1_555 1_555
C28 N9 1_555 1_555
C30 N10A 1_555 1_555
C31 N10 1_555 1_555
C32 N7 1_555 1_555
C33 N7 1_555 1_555
C34 N8A 1_555 1_555
C35 C36 1_555 1_555
C35 N8 1_555 1_555
C38 N11 1_555 1_555
C39 N11 1_555 1_555
C1A N2A 1_555 1_555
C10A N1A 1_555 1_555
C11A C12A 1_555 1_555
C11A N1A 1_555 1_555
C12A N2A 1_555 1_555
C13A N3A 1_555 1_555
C22A N4A 1_555 1_555
C23A C24A 1_555 1_555
C23A N4A 1_555 1_555
C24A N3A 1_555 1_555
C27A N9A 1_555 1_555
C28A N9A 1_555 1_555
C29A C30A 1_555 1_555
C31A N10A 1_555 1_555
C32A N7A 1_555 1_555
C33A C34A 1_555 1_555
C33A N7A 1_555 1_555
C35A C36A 1_555 1_555
C35A N8A 1_555 1_555

#END
