
#######################################################################
#
#                 Cambridge Crystallographic Data Centre
#                                CCDC 
#
#######################################################################
#
# If this CIF has been generated from an entry in the Cambridge 
# Structural Database, then it will include bibliographic, chemical, 
# crystal, experimental, refinement or atomic coordinate data resulting 
# from the CCDC's data processing and validation procedures.
#
#######################################################################

data_NOGCOC
_symmetry_cell_setting           triclinic
_symmetry_space_group_name_H-M   'P -1'
_symmetry_Int_Tables_number      2
_space_group_name_Hall           '-P 1'
loop_
_symmetry_equiv_pos_site_id
_symmetry_equiv_pos_as_xyz
1 x,y,z
2 -x,-y,-z
_cell_length_a                   9.6385(2)
_cell_length_b                   12.8804(3)
_cell_length_c                   14.0020(3)
_cell_angle_alpha                113.085(1)
_cell_angle_beta                 90.227(1)
_cell_angle_gamma                108.228(1)
_cell_volume                     1502.84
loop_
_atom_site_label
_atom_site_type_symbol
_atom_site_fract_x
_atom_site_fract_y
_atom_site_fract_z
Eu1 Eu 0.741200(15) 0.000582(13) 1.022591(12)
Cl1 Cl 0.68936(13) 0.29368(11) 0.84570(10)
Cl2 Cl 0.96456(15) 0.22140(14) 0.50628(10)
Cl3 Cl 0.90065(9) 0.44006(8) 1.12576(9)
Cl4 Cl 0.60627(14) 0.71847(9) 1.35202(9)
Cl5 Cl 0.67026(11) -0.18033(9) 0.65384(8)
Cl6 Cl 0.71991(13) -0.60813(10) 0.43177(9)
O1 O 0.9213(2) 0.1324(2) 0.94910(18)
O2 O 0.6863(2) 0.0662(2) 0.88649(17)
O3 O 0.7282(2) 0.19710(19) 1.11465(17)
O4 O 0.4918(2) 0.13949(19) 1.05387(17)
O5 O 0.8152(2) -0.1225(2) 0.87141(17)
O6 O 1.0511(2) -0.09116(19) 0.85270(17)
O7 O 0.6090(2) -0.0122(2) 1.16894(18)
O8 O 0.7861(2) -0.1617(2) 1.0562(2)
C1 C 0.8201(3) 0.1177(3) 0.8832(3)
C2 C 0.8592(3) 0.1524(3) 0.7939(3)
C3 C 0.8007(4) 0.2246(3) 0.7664(3)
C4 C 0.8323(4) 0.2458(4) 0.6786(3)
H1 H 0.7925 0.2944 0.6614
C5 C 0.9236(4) 0.1940(4) 0.6167(3)
C6 C 0.9860(4) 0.1234(4) 0.6414(3)
H2 H 1.0486 0.0899 0.5993
C7 C 0.9539(4) 0.1034(3) 0.7300(3)
H3 H 0.9961 0.0564 0.7475
C8 C 0.6130(3) 0.2190(3) 1.1041(2)
C9 C 0.6158(3) 0.3462(3) 1.1584(2)
C10 C 0.7384(3) 0.4482(3) 1.1782(3)
C11 C 0.7357(4) 0.5622(3) 1.2362(3)
H4 H 0.8184 0.6293 1.2483
C12 C 0.6086(4) 0.5752(3) 1.2759(3)
C13 C 0.4845(4) 0.4778(3) 1.2572(3)
H5 H 0.3990 0.4877 1.2837
C14 C 0.4890(4) 0.3640(3) 1.1978(3)
H6 H 0.4045 0.2976 1.1840
C15 C 0.9164(3) -0.1472(3) 0.8221(2)
C16 C 0.8710(3) -0.2566(3) 0.7188(2)
C17 C 0.7568(3) -0.2833(3) 0.6429(3)
C18 C 0.7120(4) -0.3897(3) 0.5544(3)
H7 H 0.6364 -0.4057 0.5037
C19 C 0.7812(4) -0.4722(3) 0.5422(3)
C20 C 0.8967(4) -0.4482(3) 0.6139(3)
H8 H 0.9436 -0.5040 0.6038
C21 C 0.9426(4) -0.3399(3) 0.7017(3)
H9 H 1.0223 -0.3224 0.7500
C22 C 0.6514(5) 0.0676(4) 1.2760(3)
H10 H 0.6247 0.1377 1.2873
H11 H 0.7581 0.0942 1.2918
C23 C 0.5862(6) 0.0179(5) 1.3498(3)
H12 H 0.4806 -0.0126 1.3329
H13 H 0.6146 0.0798 1.4199
H14 H 0.6206 -0.0461 1.3450
C24 C 0.6980(4) -0.2653(3) 1.0678(3)
H15 H 0.5955 -0.2823 1.0439
H16 H 0.7069 -0.2494 1.1417
C25 C 0.7394(6) -0.3728(4) 1.0085(4)
H17 H 0.7423 -0.3836 0.9368
H18 H 0.6677 -0.4425 1.0111
H19 H 0.8349 -0.3618 1.0395
H20 H 0.5170(13) -0.040(4) 1.151(3)
H21 H 0.8766(16) -0.153(4) 1.060(4)
Eu1A Eu 0.258800(15) -0.000582(13) 0.977409(12)
Eu1A_2 Eu 1.258800(15) -0.000582(13) 0.977409(12)
O4A O 0.5082(2) -0.13949(19) 0.94613(17)
O6A O 0.9489(2) 0.09116(19) 1.14730(17)
loop_
_geom_bond_atom_site_label_1
_geom_bond_atom_site_label_2
_geom_bond_site_symmetry_1
_geom_bond_site_symmetry_2
Eu1 O1 1_555 1_555
Cl1 C3 1_555 1_555
Cl2 C5 1_555 1_555
Cl3 C10 1_555 1_555
Cl4 C12 1_555 1_555
Cl5 C17 1_555 1_555
Cl6 C19 1_555 1_555
O1 C1 1_555 1_555
O2 Eu1 1_555 1_555
O3 Eu1 1_555 1_555
O4 C8 1_555 1_555
O5 Eu1 1_555 1_555
O6 C15 1_555 1_555
O7 Eu1 1_555 1_555
O8 Eu1 1_555 1_555
C1 O2 1_555 1_555
C2 C1 1_555 1_555
C3 C2 1_555 1_555
C4 C3 1_555 1_555
H1 C4 1_555 1_555
C5 C4 1_555 1_555
C6 C5 1_555 1_555
H2 C6 1_555 1_555
C7 C2 1_555 1_555
H3 C7 1_555 1_555
C8 O3 1_555 1_555
C9 C8 1_555 1_555
C10 C9 1_555 1_555
C11 C10 1_555 1_555
H4 C11 1_555 1_555
C12 C11 1_555 1_555
C13 C12 1_555 1_555
H5 C13 1_555 1_555
C14 C9 1_555 1_555
H6 C14 1_555 1_555
C15 O5 1_555 1_555
C16 C15 1_555 1_555
C17 C16 1_555 1_555
C18 C17 1_555 1_555
H7 C18 1_555 1_555
C19 C18 1_555 1_555
C20 C19 1_555 1_555
H8 C20 1_555 1_555
C21 C16 1_555 1_555
H9 C21 1_555 1_555
C22 O7 1_555 1_555
H10 C22 1_555 1_555
H11 C22 1_555 1_555
C23 C22 1_555 1_555
H12 C23 1_555 1_555
H13 C23 1_555 1_555
H14 C23 1_555 1_555
C24 O8 1_555 1_555
H15 C24 1_555 1_555
H16 C24 1_555 1_555
C25 C24 1_555 1_555
H17 C25 1_555 1_555
H18 C25 1_555 1_555
H19 C25 1_555 1_555
H20 O7 1_555 1_555
H21 O8 1_555 1_555
Eu1A O4 1_555 1_555
Eu1A_2 O6 1_555 1_555
O4A Eu1 1_555 1_555
O6A Eu1 1_555 1_555
C6 C7 1_555 1_555
C13 C14 1_555 1_555
C20 C21 1_555 1_555

#END
