
#######################################################################
#
#                 Cambridge Crystallographic Data Centre
#                                CCDC 
#
#######################################################################
#
# If this CIF has been generated from an entry in the Cambridge 
# Structural Database, then it will include bibliographic, chemical, 
# crystal, experimental, refinement or atomic coordinate data resulting 
# from the CCDC's data processing and validation procedures.
#
#######################################################################

data_NOGDIX
_symmetry_cell_setting           tetragonal
_symmetry_space_group_name_H-M   'P 43 21 2'
_symmetry_Int_Tables_number      96
_space_group_name_Hall           'P 4nw 2abw'
loop_
_symmetry_equiv_pos_site_id
_symmetry_equiv_pos_as_xyz
1 x,y,z
2 1/2-y,1/2+x,3/4+z
3 -x,-y,1/2+z
4 1/2+y,1/2-x,1/4+z
5 1/2+x,1/2-y,1/4-z
6 y,x,-z
7 1/2-x,1/2+y,3/4-z
8 -y,-x,1/2-z
_cell_length_a                   16.260(3)
_cell_length_b                   16.260(3)
_cell_length_c                   21.035(4)
_cell_angle_alpha                90
_cell_angle_beta                 90
_cell_angle_gamma                90
_cell_volume                     5561.39
loop_
_atom_site_label
_atom_site_type_symbol
_atom_site_fract_x
_atom_site_fract_y
_atom_site_fract_z
Mn1 Mn 0.33432(4) 0.66568(4) 0.2500
Mn2 Mn -0.16806(4) 1.16806(4) 0.2500
O1 O 0.2789(2) 0.6252(2) 0.33589(17)
O2 O 0.1822(3) 0.5369(3) 0.3069(2)
O3 O 0.3258(3) 0.7234(3) 0.5482(2)
O4 O 0.4272(2) 0.7448(2) 0.29975(17)
H1 H 0.4149 0.7937 0.3103
H2 H 0.4748 0.7259 0.3080
O5 O -0.1910(2) 1.1351(2) 0.34912(15)
O6 O -0.0814(2) 1.1932(2) 0.39392(17)
O7 O -0.3550(3) 0.9301(2) 0.4658(2)
O8 O -0.2649(2) 1.0821(2) 0.21884(16)
H3 H -0.3139 1.0990 0.2134
H4 H -0.2532 1.0319 0.2123
N1 N 0.2366(2) 0.7634(2) 0.2500
N2 N -0.0702(2) 1.0702(2) 0.2500
N3 N 0.4302(2) 0.5698(2) 0.2500
N4 N 0.7363(2) 0.2637(2) 0.2500
C1 C 0.2187(4) 0.5785(4) 0.3481(3)
C2 C 0.1910(3) 0.5722(4) 0.4170(3)
C3 C 0.1288(4) 0.5162(4) 0.4302(3)
H5 H 0.1053 0.4868 0.3969
C4 C 0.1011(4) 0.5028(5) 0.4908(4)
H6 H 0.0586 0.4660 0.4990
C5 C 0.1387(5) 0.5463(5) 0.5398(4)
H7 H 0.1223 0.5362 0.5814
C6 C 0.1986(4) 0.6033(4) 0.5289(3)
H8 H 0.2220 0.6314 0.5629
C7 C 0.2251(4) 0.6198(4) 0.4670(3)
C8 C 0.2814(3) 0.6792(3) 0.4515(2)
H9 H 0.2926 0.6848 0.4083
C9 C 0.3213(4) 0.7288(4) 0.4888(3)
C10 C 0.3679(4) 0.7987(4) 0.4556(3)
H10 H 0.3458 0.8506 0.4689
H11 H 0.3620 0.7932 0.4103
H12 H 0.4251 0.7960 0.4666
C11 C -0.1459(3) 1.1532(3) 0.3973(2)
C12 C -0.1758(3) 1.1239(3) 0.4611(2)
C13 C -0.1362(4) 1.1584(4) 0.5142(2)
H13 H -0.0939 1.1959 0.5075
C14 C -0.1576(4) 1.1387(4) 0.5753(3)
H14 H -0.1314 1.1637 0.6095
C15 C -0.2191(4) 1.0807(4) 0.5853(3)
H15 H -0.2342 1.0663 0.6264
C16 C -0.2581(4) 1.0441(4) 0.5337(3)
H16 H -0.2985 1.0047 0.5408
C17 C -0.2377(4) 1.0653(3) 0.4717(3)
C18 C -0.2791(3) 1.0320(3) 0.4205(2)
H17 H -0.2665 1.0546 0.3811
C19 C -0.3351(4) 0.9715(4) 0.4200(3)
C20 C -0.3738(4) 0.9565(4) 0.3554(3)
H18 H -0.3573 0.9034 0.3399
H19 H -0.3559 0.9982 0.3262
H20 H -0.4326 0.9583 0.3592
C21 C 0.1585(3) 0.7470(3) 0.2389(2)
H21 H 0.1448 0.6926 0.2305
C22 C 0.0960(3) 0.8033(3) 0.2387(2)
H22 H 0.0420 0.7872 0.2312
C23 C 0.1154(3) 0.8846(3) 0.2500
C24 C 0.0514(3) 0.9486(3) 0.2500
C25 C -0.0298(3) 0.9315(3) 0.2651(3)
H23 H -0.0451 0.8781 0.2756
C26 C -0.0881(3) 0.9931(3) 0.2648(2)
H24 H -0.1420 0.9799 0.2754
C27 C 0.4618(3) 0.5406(3) 0.1964(3)
H25 H 0.4425 0.5619 0.1582
C28 C 0.5204(3) 0.4817(3) 0.1940(3)
H26 H 0.5400 0.4635 0.1549
C29 C 0.5514(3) 0.4486(3) 0.2500
C30 C 0.6150(3) 0.3850(3) 0.2500
C31 C 0.6433(3) 0.3497(3) 0.1945(2)
H27 H 0.6215 0.3664 0.1557
C32 C 0.7034(3) 0.2902(3) 0.1960(2)
H28 H 0.7216 0.2678 0.1579
Mn2_2 Mn 0.83194(4) 0.16806(4) 0.2500
O1G O 0.3748(2) 0.7211(2) 0.16411(17)
O2G O 0.4631(3) 0.8178(3) 0.1931(2)
O3G O 0.2766(3) 0.6742(3) -0.0482(2)
O4G O 0.2552(2) 0.5728(2) 0.20025(17)
H1G H 0.2063 0.5851 0.1897
H2G H 0.2741 0.5252 0.1920
O5G O -0.1351(2) 1.1910(2) 0.15088(15)
O6G O -0.1932(2) 1.0814(2) 0.10608(17)
O7G O 0.0699(2) 1.3550(3) 0.0342(2)
O8G O -0.0821(2) 1.2649(2) 0.28116(16)
H3G H -0.0990 1.3139 0.2866
H4G H -0.0319 1.2532 0.2877
N4_2 N -0.2637(2) 1.2637(2) 0.2500
C1G C 0.4215(4) 0.7813(4) 0.1519(3)
C2G C 0.4278(4) 0.8090(3) 0.0830(3)
C3G C 0.4838(4) 0.8712(4) 0.0698(3)
H5G H 0.5132 0.8947 0.1031
C4G C 0.4972(5) 0.8989(4) 0.0092(4)
H6G H 0.5340 0.9414 0.0010
C5G C 0.4537(5) 0.8613(5) -0.0398(4)
H7G H 0.4638 0.8777 -0.0814
C6G C 0.3967(4) 0.8014(4) -0.0289(3)
H8G H 0.3686 0.7780 -0.0629
C7G C 0.3802(4) 0.7749(4) 0.0330(3)
C8G C 0.3208(3) 0.7186(3) 0.0485(2)
H9G H 0.3152 0.7074 0.0917
C9G C 0.2712(4) 0.6787(4) 0.0112(3)
C10G C 0.2013(4) 0.6321(4) 0.0444(3)
H10G H 0.1494 0.6542 0.0311
H11G H 0.2068 0.6380 0.0897
H12G H 0.2040 0.5749 0.0334
C11G C -0.1532(3) 1.1459(3) 0.1027(2)
C12G C -0.1239(3) 1.1758(3) 0.0389(2)
C13G C -0.1584(4) 1.1362(4) -0.0142(2)
H13G H -0.1959 1.0939 -0.0075
C14G C -0.1387(4) 1.1576(4) -0.0753(3)
H14G H -0.1637 1.1314 -0.1095
C15G C -0.0807(4) 1.2191(4) -0.0853(3)
H15G H -0.0663 1.2342 -0.1264
C16G C -0.0441(4) 1.2581(4) -0.0337(3)
H16G H -0.0047 1.2985 -0.0408
C17G C -0.0653(3) 1.2377(4) 0.0283(3)
C18G C -0.0320(3) 1.2791(3) 0.0795(2)
H17G H -0.0546 1.2665 0.1189
C19G C 0.0285(4) 1.3351(4) 0.0800(3)
C20G C 0.0435(4) 1.3738(4) 0.1446(3)
H18G H 0.0966 1.3573 0.1601
H19G H 0.0018 1.3559 0.1738
H20G H 0.0417 1.4326 0.1408
C21G C 0.2530(3) 0.8415(3) 0.2611(2)
H21G H 0.3074 0.8552 0.2695
C22G C 0.1967(3) 0.9040(3) 0.2613(2)
H22G H 0.2128 0.9580 0.2688
C25G C 0.0685(3) 1.0298(3) 0.2349(3)
H23G H 0.1219 1.0451 0.2244
C26G C 0.0069(3) 1.0881(3) 0.2352(2)
H24G H 0.0201 1.1420 0.2246
C27G C 0.4594(3) 0.5382(3) 0.3036(3)
H25G H 0.4381 0.5575 0.3418
C28G C 0.5183(3) 0.4796(3) 0.3060(3)
H26G H 0.5365 0.4600 0.3451
C31G C 0.6503(3) 0.3567(3) 0.3055(2)
H27G H 0.6336 0.3785 0.3443
C32G C 0.7098(3) 0.2966(3) 0.3040(2)
H28G H 0.7322 0.2784 0.3421
loop_
_geom_bond_atom_site_label_1
_geom_bond_atom_site_label_2
_geom_bond_site_symmetry_1
_geom_bond_site_symmetry_2
Mn1 O1 1_555 1_555
Mn2 O5 1_555 1_555
O1 C1 1_555 1_555
O2 C1 1_555 1_555
O3 C9 1_555 1_555
O4 Mn1 1_555 1_555
H1 O4 1_555 1_555
H2 O4 1_555 1_555
O5 C11 1_555 1_555
O6 C11 1_555 1_555
O7 C19 1_555 1_555
O8 Mn2 1_555 1_555
H3 O8 1_555 1_555
H4 O8 1_555 1_555
N1 Mn1 1_555 1_555
N2 Mn2 1_555 1_555
N3 Mn1 1_555 1_555
N4 C32 1_555 1_555
C1 C2 1_555 1_555
C2 C3 1_555 1_555
C3 H5 1_555 1_555
C4 C3 1_555 1_555
H6 C4 1_555 1_555
C5 C4 1_555 1_555
H7 C5 1_555 1_555
C6 C5 1_555 1_555
H8 C6 1_555 1_555
C7 C2 1_555 1_555
C8 C7 1_555 1_555
H9 C8 1_555 1_555
C9 C8 1_555 1_555
C10 C9 1_555 1_555
H10 C10 1_555 1_555
H11 C10 1_555 1_555
H12 C10 1_555 1_555
C11 C12 1_555 1_555
C12 C13 1_555 1_555
C13 H13 1_555 1_555
C14 C13 1_555 1_555
H14 C14 1_555 1_555
C15 C14 1_555 1_555
H15 C15 1_555 1_555
C16 C15 1_555 1_555
H16 C16 1_555 1_555
C17 C12 1_555 1_555
C18 C17 1_555 1_555
H17 C18 1_555 1_555
C19 C18 1_555 1_555
C20 C19 1_555 1_555
H18 C20 1_555 1_555
H19 C20 1_555 1_555
H20 C20 1_555 1_555
C21 N1 1_555 1_555
H21 C21 1_555 1_555
C22 C21 1_555 1_555
H22 C22 1_555 1_555
C23 C22 1_555 1_555
C24 C23 1_555 1_555
C25 C24 1_555 1_555
H23 C25 1_555 1_555
C26 N2 1_555 1_555
H24 C26 1_555 1_555
C27 N3 1_555 1_555
H25 C27 1_555 1_555
C28 C27 1_555 1_555
H26 C28 1_555 1_555
C29 C28 1_555 1_555
C30 C29 1_555 1_555
C31 C30 1_555 1_555
H27 C31 1_555 1_555
C32 C31 1_555 1_555
H28 C32 1_555 1_555
Mn2_2 N4 1_555 1_555
O1G Mn1 1_555 1_555
O2G C1G 1_555 1_555
O3G C9G 1_555 1_555
O4G Mn1 1_555 1_555
H1G O4G 1_555 1_555
H2G O4G 1_555 1_555
O5G Mn2 1_555 1_555
O6G C11G 1_555 1_555
O7G C19G 1_555 1_555
O8G Mn2 1_555 1_555
H3G O8G 1_555 1_555
H4G O8G 1_555 1_555
N4_2 Mn2 1_555 1_555
C1G O1G 1_555 1_555
C2G C1G 1_555 1_555
C3G C2G 1_555 1_555
H5G C3G 1_555 1_555
C4G C3G 1_555 1_555
H6G C4G 1_555 1_555
C5G C4G 1_555 1_555
H7G C5G 1_555 1_555
C6G C5G 1_555 1_555
H8G C6G 1_555 1_555
C7G C2G 1_555 1_555
C8G C7G 1_555 1_555
H9G C8G 1_555 1_555
C9G C8G 1_555 1_555
C10G C9G 1_555 1_555
H10G C10G 1_555 1_555
H11G C10G 1_555 1_555
H12G C10G 1_555 1_555
C11G O5G 1_555 1_555
C12G C11G 1_555 1_555
C13G C12G 1_555 1_555
H13G C13G 1_555 1_555
C14G C13G 1_555 1_555
H14G C14G 1_555 1_555
C15G C14G 1_555 1_555
H15G C15G 1_555 1_555
C16G C15G 1_555 1_555
H16G C16G 1_555 1_555
C17G C12G 1_555 1_555
C18G C17G 1_555 1_555
H17G C18G 1_555 1_555
C19G C18G 1_555 1_555
C20G C19G 1_555 1_555
H18G C20G 1_555 1_555
H19G C20G 1_555 1_555
H20G C20G 1_555 1_555
C21G N1 1_555 1_555
H21G C21G 1_555 1_555
C22G C23 1_555 1_555
H22G C22G 1_555 1_555
C25G C24 1_555 1_555
H23G C25G 1_555 1_555
C26G N2 1_555 1_555
H24G C26G 1_555 1_555
C27G N3 1_555 1_555
H25G C27G 1_555 1_555
C28G C29 1_555 1_555
H26G C28G 1_555 1_555
C31G C30 1_555 1_555
H27G C31G 1_555 1_555
C32G N4 1_555 1_555
H28G C32G 1_555 1_555
C6 C7 1_555 1_555
C16 C17 1_555 1_555
C25 C26 1_555 1_555
C6G C7G 1_555 1_555
C16G C17G 1_555 1_555
C21G C22G 1_555 1_555
C25G C26G 1_555 1_555
C27G C28G 1_555 1_555
C31G C32G 1_555 1_555

#END
