
#######################################################################
#
#                 Cambridge Crystallographic Data Centre
#                                CCDC 
#
#######################################################################
#
# If this CIF has been generated from an entry in the Cambridge 
# Structural Database, then it will include bibliographic, chemical, 
# crystal, experimental, refinement or atomic coordinate data resulting 
# from the CCDC's data processing and validation procedures.
#
#######################################################################

data_NOGFOF
_symmetry_cell_setting           monoclinic
_symmetry_space_group_name_H-M   'P 21/n'
_symmetry_Int_Tables_number      14
_space_group_name_Hall           '-P 2yn'
loop_
_symmetry_equiv_pos_site_id
_symmetry_equiv_pos_as_xyz
1 x,y,z
2 1/2-x,1/2+y,1/2-z
3 -x,-y,-z
4 1/2+x,1/2-y,1/2+z
_cell_length_a                   13.700(3)
_cell_length_b                   7.7895(15)
_cell_length_c                   23.043(5)
_cell_angle_alpha                90
_cell_angle_beta                 93.914(2)
_cell_angle_gamma                90
_cell_volume                     2453.32
loop_
_atom_site_label
_atom_site_type_symbol
_atom_site_fract_x
_atom_site_fract_y
_atom_site_fract_z
Zn1 Zn -0.28932(3) 0.35185(7) -0.005488(17)
C1 C -1.1628(9) 0.7161(17) 0.2379(7)
H1 H -1.2302 0.6986 0.2453
H2 H -1.1438 0.8310 0.2487
H3 H -1.1543 0.6990 0.1973
C2 C -1.102(2) 0.577(3) 0.2653(12)
H4 H -1.1242 0.4631 0.2549
H5 H -1.1138 0.5933 0.3055
C5 C -0.9937(3) 0.6052(5) 0.26434(19)
C6 C -0.9527(3) 0.6623(5) 0.21426(19)
H11 H -0.9934 0.6994 0.1828
C7 C -0.8518(2) 0.6649(5) 0.21033(16)
H12 H -0.8260 0.7006 0.1760
C8 C -0.7897(2) 0.6147(4) 0.25713(14)
C9 C -0.8308(2) 0.5585(5) 0.30695(15)
H13 H -0.7903 0.5239 0.3388
C10 C -0.9313(3) 0.5529(5) 0.30999(16)
H14 H -0.9571 0.5128 0.3437
C11 C -0.6819(2) 0.6202(4) 0.25354(14)
C12 C -0.6386(2) 0.5779(4) 0.20220(14)
H15 H -0.6773 0.5448 0.1693
C13 C -0.5381(2) 0.5856(4) 0.20063(14)
C14 C -0.5194(2) 0.6710(4) 0.29602(15)
C15 C -0.6196(2) 0.6678(4) 0.30074(14)
H16 H -0.6452 0.6977 0.3357
C16 C -0.5229(2) 0.4168(5) 0.10845(15)
H17 H -0.5816 0.3614 0.1141
C17 C -0.4698(2) 0.3733(5) 0.06171(16)
H18 H -0.4931 0.2860 0.0369
C18 C -0.3551(3) 0.5796(6) 0.08629(19)
H19 H -0.2988 0.6389 0.0781
C19 C -0.4031(3) 0.6271(5) 0.13454(18)
H20 H -0.3784 0.7149 0.1586
C20 C -0.4883(2) 0.5431(4) 0.14682(14)
C21 C -0.4496(2) 0.7153(4) 0.34631(14)
C22 C -0.3544(3) 0.6518(5) 0.34828(18)
H21 H -0.3341 0.5837 0.3182
C23 C -0.2906(3) 0.6911(6) 0.39548(18)
H22 H -0.2276 0.6460 0.3967
C24 C -0.4066(3) 0.8517(5) 0.43685(16)
H23 H -0.4249 0.9207 0.4672
C25 C -0.4746(2) 0.8169(5) 0.39154(16)
H24 H -0.5374 0.8624 0.3916
Cl1 Cl -0.22059(8) 0.5475(2) -0.05919(5)
Cl2 Cl -0.36039(10) 0.1244(2) -0.04544(7)
N1 N -0.3859(2) 0.4523(4) 0.05074(13)
N2 N -0.47798(19) 0.6313(3) 0.24648(12)
N3 N -0.3148(2) 0.7897(4) 0.43889(12)
Zn1A Zn -0.21068(3) 0.85185(7) 0.505488(17)
N3A N -0.1852(2) 0.2897(4) 0.06111(12)
O1 O 0.5992(12) 0.951(2) 0.0641(8)
H25 H 0.5508 0.9804 0.0831
H26 H 0.5838 0.9662 0.0281
C26 C -0.1016(15) -0.042(3) -0.0167(10)
H27 H -0.0580 -0.1361 -0.0082
H28 H -0.1208 0.0071 0.0190
O2 O -0.189(8) 0.02(2) -0.047(7)
H29 H -0.2207 -0.0572 -0.0303
C27 C -0.0727(15) 0.103(2) -0.0624(8)
H30 H -0.0089 0.1397 -0.0477
H31 H -0.0688 0.0552 -0.1006
H32 H -0.1166 0.1987 -0.0642
C3? C 0.6680(8) 0.113(2) 0.2806(6)
H6? H 0.7346 0.1059 0.2705
H7? H 0.6570 0.2225 0.2983
H8? H 0.6552 0.0232 0.3076
C4? C 0.604(2) 0.134(4) 0.2266(13)
H9? H 0.6188 0.0259 0.2090
H10? H 0.6206 0.2222 0.1998
C28? C -0.0121(18) 0.048(2) -0.0226(8)
H33? H -0.0176 -0.0236 -0.0565
H34? H -0.0691 0.1199 -0.0274
C29? C 0.036(2) 0.181(2) -0.0598(9)
H35? H 0.0058 0.2157 -0.0969
H36? H 0.0443 0.2787 -0.0349
H37? H 0.0979 0.1290 -0.0651
O3? O -0.0593(13) -0.0827(17) 0.0175(7)
H38? H -0.1133 -0.1140 0.0003
O4? O -0.0742(17) 0.012(3) -0.0270(9)
H39? H -0.1165 0.0783 -0.0440
C30? C 0.084(2) 0.186(4) -0.0449(15)
H40? H 0.1000 0.2954 -0.0613
H41? H 0.1030 0.1866 -0.0040
H42? H 0.1194 0.0972 -0.0635
C31? C -0.022(2) 0.147(3) -0.0604(11)
H43? H -0.0412 0.2550 -0.0444
H44? H -0.0254 0.1691 -0.1015
loop_
_geom_bond_atom_site_label_1
_geom_bond_atom_site_label_2
_geom_bond_site_symmetry_1
_geom_bond_site_symmetry_2
Zn1 Cl1 1_555 1_555
C1 H1 1_555 1_555
H2 C1 1_555 1_555
H3 C1 1_555 1_555
C2 C1 1_555 1_555
H4 C2 1_555 1_555
H5 C2 1_555 1_555
C5 C2 1_555 1_555
C6 C5 1_555 1_555
H11 C6 1_555 1_555
C7 C6 1_555 1_555
H12 C7 1_555 1_555
C8 C7 1_555 1_555
C9 C8 1_555 1_555
H13 C9 1_555 1_555
C10 C5 1_555 1_555
H14 C10 1_555 1_555
C11 C8 1_555 1_555
C12 C11 1_555 1_555
H15 C12 1_555 1_555
C13 C12 1_555 1_555
C14 C15 1_555 1_555
C15 C11 1_555 1_555
H16 C15 1_555 1_555
C16 H17 1_555 1_555
C17 C16 1_555 1_555
H18 C17 1_555 1_555
C18 H19 1_555 1_555
C19 C18 1_555 1_555
H20 C19 1_555 1_555
C20 C13 1_555 1_555
C21 C14 1_555 1_555
C22 C21 1_555 1_555
H21 C22 1_555 1_555
C23 C22 1_555 1_555
H22 C23 1_555 1_555
C24 H23 1_555 1_555
C25 C21 1_555 1_555
H24 C25 1_555 1_555
Cl2 Zn1 1_555 1_555
N1 Zn1 1_555 1_555
N2 C13 1_555 1_555
N3 C23 1_555 1_555
O1 H25 1_555 1_555
H26 O1 1_555 1_555
C26 H27 1_555 1_555
H28 C26 1_555 1_555
O2 C26 1_555 1_555
H29 O2 1_555 1_555
C27 C26 1_555 1_555
H30 C27 1_555 1_555
H31 C27 1_555 1_555
H32 C27 1_555 1_555
Zn1A N3 1_555 1_555
N3A Zn1 1_555 1_555
C9 C10 1_555 1_555
C14 N2 1_555 1_555
C16 C20 1_555 1_555
C17 N1 1_555 1_555
C18 N1 1_555 1_555
C19 C20 1_555 1_555
C24 C25 1_555 1_555
C24 N3 1_555 1_555

#END
