
#######################################################################
#
#                 Cambridge Crystallographic Data Centre
#                                CCDC 
#
#######################################################################
#
# If this CIF has been generated from an entry in the Cambridge 
# Structural Database, then it will include bibliographic, chemical, 
# crystal, experimental, refinement or atomic coordinate data resulting 
# from the CCDC's data processing and validation procedures.
#
#######################################################################

data_NOGMIG
_symmetry_cell_setting           orthorhombic
_symmetry_space_group_name_H-M   'C 2 2 21'
_symmetry_Int_Tables_number      20
_space_group_name_Hall           'C 2n 2'
loop_
_symmetry_equiv_pos_site_id
_symmetry_equiv_pos_as_xyz
1 x,y,z
2 -x,-y,1/2+z
3 x,-y,-z
4 -x,y,1/2-z
5 1/2+x,1/2+y,z
6 1/2-x,1/2-y,1/2+z
7 1/2+x,1/2-y,-z
8 1/2-x,1/2+y,1/2-z
_cell_length_a                   13.499(2)
_cell_length_b                   14.389(3)
_cell_length_c                   14.125(3)
_cell_angle_alpha                90
_cell_angle_beta                 90
_cell_angle_gamma                90
_cell_volume                     2743.6
loop_
_atom_site_label
_atom_site_type_symbol
_atom_site_fract_x
_atom_site_fract_y
_atom_site_fract_z
N1 N 0.99983(17) 0.39783(14) 0.44612(15)
N2 N 1.21710(16) 0.11787(15) 0.69729(15)
N3 N 1.14771(16) 0.56874(15) 0.11433(15)
N4 N 1.17183(17) 0.11541(15) 0.61258(15)
N5 N 1.10638(16) 0.00454(16) 0.69597(15)
N6 N 1.10620(16) 0.04816(14) 0.61173(15)
N7 N 1.10701(17) 0.56317(15) 0.20072(16)
N8 N 1.32235(17) 0.28437(16) 0.55096(16)
N9 N 1.36472(15) 0.29123(15) 0.63675(15)
N10 N 1.21549(17) 0.67782(16) 0.19809(16)
N11 N 1.11001(16) 0.28380(15) 0.44703(15)
N12 N 1.04609(15) 0.39394(15) 0.36198(15)
N13 N 1.43051(16) 0.35841(15) 0.63637(15)
N14 N 1.21225(16) 0.63674(14) 0.11253(15)
N15 N 1.11151(16) 0.32651(15) 0.36225(15)
N16 N 1.43332(17) 0.39733(16) 0.54988(16)
C1 C 1.1755(2) 0.04910(18) 0.7458(2)
C2 C 1.1504(2) 0.63067(19) 0.2496(2)
C3 C 1.04103(19) 0.32898(19) 0.49537(19)
C4 C 1.3666(2) 0.3500(2) 0.5005(2)
Li1 Li 1.0000 0.4738(4) 0.2500
Li2 Li 1.0000 -0.0826(4) 0.7500
Li3 Li 1.0240(4) 0.0000 0.5000
Li4 Li 1.2165(3) 0.1958(3) 0.5003(3)
Li5 Li 0.9110(5) 0.5000 0.5000
Li6 Li 1.3071(3) 0.7797(3) 0.2502(3)
H1 H 1.022(2) 0.313(2) 0.557(2)
H2 H 1.193(2) 0.034(2) 0.810(2)
H3 H 1.135(3) 0.645(3) 0.316(3)
H4 H 1.351(3) 0.361(2) 0.435(2)
N1C N 1.00017(17) 0.39783(14) 0.05388(15)
N1B N 0.99983(17) 0.60217(14) 0.55388(15)
N2B N 1.21710(16) 0.88213(15) 0.30271(15)
N2A N 0.78290(16) 0.88213(15) 0.19729(15)
N3C N 0.85229(16) 0.56874(15) 0.38567(15)
N3A N 0.85229(16) 0.43126(15) 0.61433(15)
N4B N 1.17183(17) 0.88459(15) 0.38742(15)
N4C N 0.82817(17) 0.11541(15) -0.11258(15)
N5B N 1.10638(16) 0.99546(16) 0.30403(15)
N5C N 0.89362(16) 0.00454(16) 0.80403(15)
N6B N 1.10620(16) 0.95184(14) 0.38827(15)
N6B_2 N 1.10620(16) -0.04816(14) 0.38827(15)
N7C N 0.89299(17) 0.56317(15) 0.29928(16)
N8B N 1.32235(17) 0.71563(16) 0.44904(16)
N8C N 0.67765(17) 0.28437(16) -0.05096(16)
N9B N 1.36472(15) 0.70877(15) 0.36325(15)
N9A N 0.63528(15) 0.70877(15) 0.13675(15)
N10C N 0.78451(17) 0.67782(16) 0.30191(16)
N11C N 0.88999(16) 0.28380(15) 0.05297(15)
N12C N 0.95391(15) 0.39394(15) 0.13802(15)
N13B N 1.43051(16) 0.64159(15) 0.36363(15)
N13D N 0.93051(16) -0.14159(15) 0.63637(15)
N13G N 1.06949(16) -0.14159(15) 0.86363(15)
N14C N 0.78775(16) 0.63674(14) 0.38747(15)
N14G N 1.28775(16) 0.13674(14) 0.38747(15)
N14D N 0.71225(16) 0.13674(14) 0.11253(15)
N15C N 0.88849(16) 0.32651(15) 0.13775(15)
N15G N 1.38849(16) 0.82651(15) 0.13775(15)
N15D N 0.61151(16) 0.82651(15) 0.36225(15)
N16B N 1.43332(17) 0.60267(16) 0.45012(16)
N16D N 0.93332(17) -0.10267(16) 0.54988(16)
N16F N 0.93332(17) 0.10267(16) 0.45012(16)
C1B C 1.1755(2) 0.95090(18) 0.2542(2)
C2C C 0.8496(2) 0.63067(19) 0.2504(2)
C3C C 0.95897(19) 0.32898(19) 0.00463(19)
C4B C 1.3666(2) 0.6500(2) 0.4995(2)
Li2D Li 1.5000 0.4174(4) 0.7500
Li2A Li 1.0000 1.0826(4) 0.2500
Li2E Li 1.5000 0.5826(4) 0.2500
Li3D Li 1.5240(4) 0.5000 0.5000
Li3_2 Li 1.0240(4) 1.0000 0.5000
Li4C Li 0.7835(3) 0.1958(3) -0.0003(3)
Li4G Li 1.2835(3) 0.6958(3) -0.0003(3)
Li4D Li 0.7165(3) 0.6958(3) 0.5003(3)
Li4B Li 1.2165(3) 0.8042(3) 0.4997(3)
Li5A Li 1.0890(5) 0.5000 0.0000
Li6C Li 0.6929(3) 0.7797(3) 0.2498(3)
Li6B Li 1.3071(3) 0.2203(3) 0.7498(3)
Li6G Li 1.1929(3) 0.2797(3) 0.2498(3)
Li6D Li 0.8071(3) 0.2797(3) 0.2502(3)
H1C H 0.978(2) 0.313(2) -0.057(2)
H2B H 1.193(2) 0.966(2) 0.190(2)
H3C H 0.865(3) 0.645(3) 0.184(3)
H4B H 1.351(3) 0.639(2) 0.565(2)
loop_
_geom_bond_atom_site_label_1
_geom_bond_atom_site_label_2
_geom_bond_site_symmetry_1
_geom_bond_site_symmetry_2
N1 N12 1_555 1_555
N2 N4 1_555 1_555
N3 N7 1_555 1_555
N4 N6 1_555 1_555
N5 N6 1_555 1_555
N6 Li3 1_555 1_555
N7 C2 1_555 1_555
N8 N9 1_555 1_555
N9 N13 1_555 1_555
N10 N14 1_555 1_555
N11 N15 1_555 1_555
N12 N15 1_555 1_555
N13 N16 1_555 1_555
N14 N3 1_555 1_555
N15 Li6G 1_555 1_555
N16 C4 1_555 1_555
C1 N2 1_555 1_555
C2 N10 1_555 1_555
C3 N1 1_555 1_555
C4 N8 1_555 1_555
Li1 N7 1_555 1_555
Li2 N5 1_555 1_555
Li3 N6B_2 1_555 1_555
Li4 N4 1_555 1_555
Li5 N1 1_555 1_555
Li6 N10 1_555 1_555
H1 C3 1_555 1_555
H2 C1 1_555 1_555
H3 C2 1_555 1_555
H4 C4 1_555 1_555
N1C N12C 1_555 1_555
N1B Li5 1_555 1_555
N2B Li6 1_555 1_555
N2A Li6C 1_555 1_555
N3C Li5 1_555 1_555
N3A Li5 1_555 1_555
N4B N2B 1_555 1_555
N4C Li4C 1_555 1_555
N5B N6B 1_555 1_555
N5C Li2 1_555 1_555
N6B N4B 1_555 1_555
N7C Li1 1_555 1_555
N8B N9B 1_555 1_555
N8C Li4C 1_555 1_555
N9B Li6 1_555 1_555
N9A Li6C 1_555 1_555
N10C N14C 1_555 1_555
N11C N15C 1_555 1_555
N12C Li1 1_555 1_555
N13B N9B 1_555 1_555
N13D Li2 1_555 1_555
N13G Li2 1_555 1_555
N14C N3C 1_555 1_555
N14G Li4 1_555 1_555
N14D Li4C 1_555 1_555
N15C N12C 1_555 1_555
N15G Li6 1_555 1_555
N15D Li6C 1_555 1_555
N16B N13B 1_555 1_555
N16D Li3 1_555 1_555
N16F Li3 1_555 1_555
C1B N2B 1_555 1_555
C2C N7C 1_555 1_555
C3C N1C 1_555 1_555
C4B N8B 1_555 1_555
Li2D N13 1_555 1_555
Li2A N5B 1_555 1_555
Li2E N13B 1_555 1_555
Li3D N16 1_555 1_555
Li3_2 N6B 1_555 1_555
Li4C N11C 1_555 1_555
Li4G N14 1_555 1_555
Li4D N14C 1_555 1_555
Li4B N4B 1_555 1_555
Li5A N3 1_555 1_555
Li6C N10C 1_555 1_555
Li6B N2 1_555 1_555
Li6D N15C 1_555 1_555
H1C C3C 1_555 1_555
H2B C1B 1_555 1_555
H3C C2C 1_555 1_555
H4B C4B 1_555 1_555
N5 C1 1_555 1_555
N8 Li4 1_555 1_555
N9 Li6B 1_555 1_555
N11 C3 1_555 1_555
N11 Li4 1_555 1_555
N12 Li1 1_555 1_555
N1C Li5A 1_555 1_555
N3C N7C 1_555 1_555
N5B C1B 1_555 1_555
N8B Li4B 1_555 1_555
N10C C2C 1_555 1_555
N11C C3C 1_555 1_555
N13D N16D 1_555 1_555
N16B C4B 1_555 1_555
N16B Li3D 1_555 1_555

#END
