
#######################################################################
#
#                 Cambridge Crystallographic Data Centre
#                                CCDC 
#
#######################################################################
#
# If this CIF has been generated from an entry in the Cambridge 
# Structural Database, then it will include bibliographic, chemical, 
# crystal, experimental, refinement or atomic coordinate data resulting 
# from the CCDC's data processing and validation procedures.
#
#######################################################################

data_NOGNUU
_symmetry_cell_setting           orthorhombic
_symmetry_space_group_name_H-M   'P c c n'
_symmetry_Int_Tables_number      56
_space_group_name_Hall           '-P 2ab 2ac'
loop_
_symmetry_equiv_pos_site_id
_symmetry_equiv_pos_as_xyz
1 x,y,z
2 1/2-x,1/2-y,z
3 1/2+x,-y,1/2-z
4 -x,1/2+y,1/2-z
5 -x,-y,-z
6 1/2+x,1/2+y,-z
7 1/2-x,y,1/2+z
8 x,1/2-y,1/2+z
_cell_length_a                   6.7533(13)
_cell_length_b                   11.913(2)
_cell_length_c                   20.834(4)
_cell_angle_alpha                90
_cell_angle_beta                 90
_cell_angle_gamma                90
_cell_volume                     1676.14
loop_
_atom_site_label
_atom_site_type_symbol
_atom_site_fract_x
_atom_site_fract_y
_atom_site_fract_z
H1 H 0.675(9) 0.702(5) 0.446(3)
Ag1 Ag 0.69887(12) 0.53836(5) 0.47181(3)
Ag2 Ag 0.53696(13) 0.66331(7) 0.35180(3)
Ag3 Ag 0.7500 0.2500 0.53488(4)
O1 O 0.3398(11) -0.1348(5) 0.3504(3)
O2 O 0.3690(10) -0.0590(5) 0.4464(3)
O3 O 0.5784(9) 0.3607(5) 0.4487(3)
O4 O 0.5670(10) 0.4466(5) 0.3540(3)
O5 O 0.7500 0.7500 0.4390(5)
N1 N 0.4556(10) 0.1573(5) 0.2556(3)
C1 C 0.4166(11) 0.0647(6) 0.2881(3)
H2 H 0.3843 0.0003 0.2651
C2 C 0.4210(11) 0.0578(6) 0.3553(3)
C3 C 0.4644(10) 0.1553(6) 0.3889(3)
H3 H 0.4678 0.1548 0.4336
C4 C 0.5022(10) 0.2524(7) 0.3557(3)
C5 C 0.4989(11) 0.2498(6) 0.2896(3)
H4 H 0.5283 0.3155 0.2675
C6 C 0.3735(12) -0.0541(6) 0.3858(4)
C7 C 0.5521(11) 0.3615(6) 0.3884(4)
H1A H 0.825(9) 0.798(5) 0.446(3)
Ag1A Ag -0.19887(12) -0.03836(5) 0.47181(3)
Ag2A Ag -0.03696(13) -0.16331(7) 0.35180(3)
O1A O 0.1602(11) 0.6348(5) 0.3504(3)
O2A O 0.1310(10) 0.5590(5) 0.4464(3)
O3A O -0.0784(9) 0.1393(5) 0.4487(3)
O4A O -0.0670(10) 0.0534(5) 0.3540(3)
N1A N 0.0444(10) 0.3427(5) 0.2556(3)
C1A C 0.0834(11) 0.4353(6) 0.2881(3)
H2A H 0.1157 0.4997 0.2651
C2A C 0.0790(11) 0.4422(6) 0.3553(3)
C3A C 0.0356(10) 0.3447(6) 0.3889(3)
H3A H 0.0322 0.3452 0.4336
C4A C -0.0022(10) 0.2476(7) 0.3557(3)
C5A C 0.0011(11) 0.2502(6) 0.2896(3)
H4A H -0.0283 0.1845 0.2675
C6A C 0.1265(12) 0.5541(6) 0.3858(4)
C7A C -0.0521(11) 0.1385(6) 0.3884(4)
Ag1A_2 Ag 0.80113(12) 0.96164(5) 0.47181(3)
Ag1D Ag 0.30113(12) 0.46164(5) 0.52819(3)
Ag1E Ag 0.19887(12) 0.03836(5) 0.52819(3)
Ag2A_2 Ag 0.96304(13) 0.83669(7) 0.35180(3)
Ag2B Ag 0.03696(13) 0.33669(7) 0.14820(3)
Ag2C Ag 0.46304(13) 0.16331(7) 0.14820(3)
Ag3_2 Ag -0.2500 0.2500 0.53488(4)
Ag3D Ag 0.2500 -0.2500 0.46512(4)
Ag3D_2 Ag 0.2500 0.7500 0.46512(4)
O2D O -0.3690(10) 0.0590(5) 0.5536(3)
O2D_2 O 0.6310(10) 0.0590(5) 0.5536(3)
O2E O 0.8690(10) 0.4410(5) 0.5536(3)
O3A_2 O 0.9216(9) 0.1393(5) 0.4487(3)
O5_2 O -0.2500 -0.2500 0.4390(5)
N1B N -0.0444(10) -0.1573(5) 0.2444(3)
N1C N 0.5444(10) 0.6573(5) 0.2444(3)
loop_
_geom_bond_atom_site_label_1
_geom_bond_atom_site_label_2
_geom_bond_site_symmetry_1
_geom_bond_site_symmetry_2
H1 O5 1_555 1_555
Ag1 O3 1_555 1_555
Ag2 O4 1_555 1_555
Ag3 O3 1_555 1_555
O1 C6 1_555 1_555
O2 C6 1_555 1_555
O3 C7 1_555 1_555
O4 C7 1_555 1_555
O5 Ag1 1_555 1_555
N1 C1 1_555 1_555
C1 H2 1_555 1_555
C2 C1 1_555 1_555
C3 C2 1_555 1_555
H3 C3 1_555 1_555
C4 C3 1_555 1_555
C5 N1 1_555 1_555
H4 C5 1_555 1_555
C6 C2 1_555 1_555
C7 C4 1_555 1_555
H1A O5 1_555 1_555
Ag1A O3A 1_555 1_555
Ag2A O1 1_555 1_555
O1A Ag2 1_555 1_555
O2A C6A 1_555 1_555
O3A C7A 1_555 1_555
O4A Ag2A 1_555 1_555
N1A C1A 1_555 1_555
C1A H2A 1_555 1_555
C2A C1A 1_555 1_555
C3A C2A 1_555 1_555
H3A C3A 1_555 1_555
C4A C3A 1_555 1_555
C5A N1A 1_555 1_555
H4A C5A 1_555 1_555
C6A O1A 1_555 1_555
C7A O4A 1_555 1_555
Ag1A_2 O5 1_555 1_555
Ag1D O2A 1_555 1_555
Ag1E O2 1_555 1_555
Ag2A_2 O5 1_555 1_555
Ag2B N1A 1_555 1_555
Ag2C N1 1_555 1_555
Ag3_2 O3A 1_555 1_555
Ag3D O2 1_555 1_555
Ag3D_2 O2A 1_555 1_555
O2D Ag1A 1_555 1_555
O2D_2 Ag3 1_555 1_555
O2E Ag1 1_555 1_555
O3A_2 Ag3 1_555 1_555
O5_2 Ag1A 1_555 1_555
N1B Ag2A 1_555 1_555
N1C Ag2 1_555 1_555
Ag2 O5 1_555 1_555
Ag3 O2E 1_555 1_555
C4 C5 1_555 1_555
Ag2A O5_2 1_555 1_555
C2A C6A 1_555 1_555
C4A C5A 1_555 1_555
C4A C7A 1_555 1_555
Ag3_2 O2D 1_555 1_555

#END
