
#######################################################################
#
#                 Cambridge Crystallographic Data Centre
#                                CCDC 
#
#######################################################################
#
# If this CIF has been generated from an entry in the Cambridge 
# Structural Database, then it will include bibliographic, chemical, 
# crystal, experimental, refinement or atomic coordinate data resulting 
# from the CCDC's data processing and validation procedures.
#
#######################################################################

data_NOGQEG
_symmetry_cell_setting           orthorhombic
_symmetry_space_group_name_H-M   'P b c a'
_symmetry_Int_Tables_number      61
_space_group_name_Hall           '-P 2ac 2ab'
loop_
_symmetry_equiv_pos_site_id
_symmetry_equiv_pos_as_xyz
1 x,y,z
2 1/2-x,-y,1/2+z
3 1/2+x,1/2-y,-z
4 -x,1/2+y,1/2-z
5 -x,-y,-z
6 1/2+x,y,1/2-z
7 1/2-x,1/2+y,z
8 x,1/2-y,1/2+z
_cell_length_a                   27.770(5)
_cell_length_b                   9.7213(17)
_cell_length_c                   9.7213(17)
_cell_angle_alpha                90
_cell_angle_beta                 90
_cell_angle_gamma                90
_cell_volume                     2624.37
loop_
_atom_site_label
_atom_site_type_symbol
_atom_site_fract_x
_atom_site_fract_y
_atom_site_fract_z
Zn1 Zn 0.04632(3) 0.56203(7) 0.12809(7)
O1 O 0.11492(18) 0.5199(6) 0.1002(5)
O2 O 0.1027(2) 0.4407(7) 0.3098(6)
N1 N 0.02926(18) 0.6500(5) -0.0563(5)
N2 N -0.00158(19) 0.5977(5) -0.1548(5)
N3 N 0.03319(18) 0.7825(5) -0.2415(5)
C1 C 0.0021(2) 0.6788(6) -0.2627(6)
H1 H -0.0149 0.6658 -0.3441
C2 C 0.0488(2) 0.7598(7) -0.1119(6)
H2 H 0.0710 0.8157 -0.0670
C3 C 0.1303(3) 0.4606(8) 0.2123(8)
C4 C 0.1822(3) 0.4225(8) 0.2164(9)
C5 C 0.2146(4) 0.4722(15) 0.1241(12)
H3 H 0.2041 0.5261 0.0510
C6 C 0.2637(4) 0.4425(16) 0.1386(16)
H4 H 0.2854 0.4823 0.0775
C7 C 0.2805(4) 0.3601(12) 0.2360(14)
C8 C 0.2492(5) 0.3085(13) 0.3255(14)
H5 H 0.2603 0.2493 0.3935
C9 C 0.1988(4) 0.3408(12) 0.3211(14)
H6 H 0.1779 0.3071 0.3877
C10 C 0.3339(5) 0.3267(16) 0.2536(17)
H7 H 0.3501 0.4040 0.2941
H8 H 0.3479 0.3071 0.1654
H9 H 0.3374 0.2479 0.3124
Zn1D Zn -0.04632(3) 0.43797(7) -0.12809(7)
Zn1G Zn 0.04632(3) 0.93797(7) -0.37191(7)
N2D N 0.00158(19) 0.4023(5) 0.1548(5)
N3G N 0.03319(18) 0.7175(5) 0.2585(5)
O3 O 0.0886(4) 0.1352(10) 0.3517(11)
H10 H 0.1069 0.0913 0.2971
H11 H 0.1015 0.1979 0.4003
O4 O 0.0612(6) 0.4285(18) 0.5687(14)
H12 H 0.0892 0.4648 0.5636
H13 H 0.0631 0.3553 0.6163
loop_
_geom_bond_atom_site_label_1
_geom_bond_atom_site_label_2
_geom_bond_site_symmetry_1
_geom_bond_site_symmetry_2
Zn1 O1 1_555 1_555
O1 C3 1_555 1_555
O2 C3 1_555 1_555
N1 Zn1 1_555 1_555
N2 N1 1_555 1_555
N3 C1 1_555 1_555
C1 N2 1_555 1_555
H1 C1 1_555 1_555
C2 N1 1_555 1_555
H2 C2 1_555 1_555
C3 C4 1_555 1_555
C4 C5 1_555 1_555
C5 H3 1_555 1_555
C6 C5 1_555 1_555
H4 C6 1_555 1_555
C7 C6 1_555 1_555
C8 C7 1_555 1_555
H5 C8 1_555 1_555
C9 C4 1_555 1_555
H6 C9 1_555 1_555
C10 C7 1_555 1_555
H7 C10 1_555 1_555
H8 C10 1_555 1_555
H9 C10 1_555 1_555
O3 H10 1_555 1_555
H11 O3 1_555 1_555
O4 H12 1_555 1_555
H13 O4 1_555 1_555
Zn1D N2 1_555 1_555
Zn1G N3 1_555 1_555
N2D Zn1 1_555 1_555
N3G Zn1 1_555 1_555
N3 C2 1_555 1_555
C8 C9 1_555 1_555

#END
