
#######################################################################
#
#                 Cambridge Crystallographic Data Centre
#                                CCDC 
#
#######################################################################
#
# If this CIF has been generated from an entry in the Cambridge 
# Structural Database, then it will include bibliographic, chemical, 
# crystal, experimental, refinement or atomic coordinate data resulting 
# from the CCDC's data processing and validation procedures.
#
#######################################################################

data_NOGQIK
_symmetry_cell_setting           monoclinic
_symmetry_space_group_name_H-M   'P 21/c'
_symmetry_Int_Tables_number      14
_space_group_name_Hall           '-P 2ybc'
loop_
_symmetry_equiv_pos_site_id
_symmetry_equiv_pos_as_xyz
1 x,y,z
2 -x,1/2+y,1/2-z
3 -x,-y,-z
4 x,1/2-y,1/2+z
_cell_length_a                   14.6438(12)
_cell_length_b                   9.6060(8)
_cell_length_c                   9.6475(8)
_cell_angle_alpha                90
_cell_angle_beta                 92.748(1)
_cell_angle_gamma                90
_cell_volume                     1355.54
loop_
_atom_site_label
_atom_site_type_symbol
_atom_site_fract_x
_atom_site_fract_y
_atom_site_fract_z
Zn1 Zn 0.59057(2) -0.06119(4) 0.38245(3)
O1 O 0.72025(19) -0.0238(3) 0.4150(3)
O2 O 0.6986(2) 0.0401(4) 0.1993(3)
N1 N 0.50474(18) 0.0969(3) 0.3442(3)
N2 N 0.44122(18) 0.1447(3) 0.4325(2)
N3 N 0.43582(18) 0.2791(3) 0.2471(3)
C1 C 0.4021(2) 0.2525(3) 0.3706(3)
H1 H 0.3560 0.3046 0.4086
C2 C 0.4991(2) 0.1796(3) 0.2357(3)
H2 H 0.5351 0.1701 0.1594
C3 C 0.7503(3) 0.0208(4) 0.3017(5)
C4 C 0.8503(3) 0.0422(5) 0.2993(5)
H3 H 0.8854 0.0219 0.3796
C5 C 0.8924(3) 0.0876(5) 0.1922(5)
H4 H 0.8555 0.1126 0.1151
C6 C 0.9908(3) 0.1038(6) 0.1791(5)
C7 C 1.0232(4) 0.1731(6) 0.0682(7)
H5 H 0.9821 0.2113 0.0023
C8 C 1.1166(5) 0.1876(7) 0.0516(8)
H6 H 1.1376 0.2344 -0.0250
C9 C 1.1751(5) 0.1344(8) 0.1455(8)
H7 H 1.2373 0.1491 0.1364
C10 C 1.1475(6) 0.0586(9) 0.2552(10)
H8 H 1.1897 0.0159 0.3165
C11 C 1.0518(4) 0.0469(8) 0.2730(8)
H9 H 1.0310 -0.0001 0.3496
N2B N 0.55878(18) -0.1447(3) 0.5675(2)
N3A N 0.56418(18) -0.2209(3) 0.2529(3)
Zn1B Zn 0.40943(2) 0.06119(4) 0.61755(3)
Zn1A Zn 0.40943(2) 0.43881(4) 0.11755(3)
O3 O 0.6688(6) 0.3483(8) 0.1507(9)
H10 H 0.6927 0.2999 0.2167
H11 H 0.6694 0.3146 0.0693
O4 O 0.6203(6) 0.0895(14) 0.9329(9)
H12 H 0.6057 0.0045 0.9417
H13 H 0.6675 0.1181 0.9792
loop_
_geom_bond_atom_site_label_1
_geom_bond_atom_site_label_2
_geom_bond_site_symmetry_1
_geom_bond_site_symmetry_2
Zn1 O1 1_555 1_555
O1 C3 1_555 1_555
O2 C3 1_555 1_555
N1 Zn1 1_555 1_555
N2 N1 1_555 1_555
N3 C1 1_555 1_555
C1 N2 1_555 1_555
H1 C1 1_555 1_555
C2 N1 1_555 1_555
H2 C2 1_555 1_555
C3 C4 1_555 1_555
C4 H3 1_555 1_555
C5 C4 1_555 1_555
H4 C5 1_555 1_555
C6 C5 1_555 1_555
C7 C6 1_555 1_555
H5 C7 1_555 1_555
C8 C7 1_555 1_555
H6 C8 1_555 1_555
C9 C8 1_555 1_555
H7 C9 1_555 1_555
C10 C9 1_555 1_555
H8 C10 1_555 1_555
C11 C6 1_555 1_555
H9 C11 1_555 1_555
O3 H10 1_555 1_555
H11 O3 1_555 1_555
O4 H12 1_555 1_555
H13 O4 1_555 1_555
N2B Zn1 1_555 1_555
N3A Zn1 1_555 1_555
Zn1B N2 1_555 1_555
Zn1A N3 1_555 1_555
N3 C2 1_555 1_555
C10 C11 1_555 1_555

#END
