
#######################################################################
#
#                 Cambridge Crystallographic Data Centre
#                                CCDC 
#
#######################################################################
#
# If this CIF has been generated from an entry in the Cambridge 
# Structural Database, then it will include bibliographic, chemical, 
# crystal, experimental, refinement or atomic coordinate data resulting 
# from the CCDC's data processing and validation procedures.
#
#######################################################################

data_NOGRAE
_symmetry_cell_setting           monoclinic
_symmetry_space_group_name_H-M   'P 21/n'
_symmetry_Int_Tables_number      14
_space_group_name_Hall           '-P 2yn'
loop_
_symmetry_equiv_pos_site_id
_symmetry_equiv_pos_as_xyz
1 x,y,z
2 1/2-x,1/2+y,1/2-z
3 -x,-y,-z
4 1/2+x,1/2-y,1/2+z
_cell_length_a                   9.7723(6)
_cell_length_b                   13.8718(8)
_cell_length_c                   12.0958(7)
_cell_angle_alpha                90
_cell_angle_beta                 97.200(6)
_cell_angle_gamma                90
_cell_volume                     1626.77
loop_
_atom_site_label
_atom_site_type_symbol
_atom_site_fract_x
_atom_site_fract_y
_atom_site_fract_z
Gd1 Gd 0.12709(3) 0.44071(3) 0.89738(3)
C1 C 0.3871(9) 0.5985(6) 0.8384(7)
H1 H 0.3906 0.6082 0.9148
C2 C -0.0782(7) 0.2430(5) 1.2326(6)
H2 H -0.1555 0.2770 1.2012
C3 C 0.1658(7) 0.2138(5) 1.2464(5)
H3 H 0.2514 0.2279 1.2243
C4 C 0.2795(7) 0.0939(6) 1.3851(5)
C5 C 0.0476(8) 0.2619(5) 1.1981(5)
C6 C 0.1774(9) 0.4481(7) 0.5067(6)
C7 C 0.2810(8) 0.5320(5) 0.6775(6)
C8 C -0.0919(7) 0.1732(5) 1.3144(5)
C9 C 0.2695(10) 0.4981(7) 0.4464(7)
H4 H 0.2662 0.4867 0.3703
C10 C 0.1791(8) 0.4683(6) 0.6216(6)
C11 C 0.1542(7) 0.1452(5) 1.3272(5)
C12 C 0.3760(9) 0.5769(6) 0.6128(7)
C13 C 0.0258(7) 0.1237(5) 1.3588(6)
H5 H 0.0185 0.0752 1.4108
C14 C -0.0063(9) 0.3688(6) 0.6321(6)
H6 H -0.0709 0.3420 0.6734
C15 C 0.4886(9) 0.6416(6) 0.7834(8)
H7 H 0.5619 0.6745 0.8230
C16 C -0.0126(9) 0.3434(6) 0.5207(7)
H8 H -0.0788 0.2999 0.4892
C17 C 0.4778(9) 0.6342(7) 0.6707(7)
H9 H 0.5390 0.6677 0.6318
C18 C 0.0789(10) 0.3826(7) 0.4583(7)
H10 H 0.0762 0.3661 0.3835
C19 C 0.3623(9) 0.5620(7) 0.4953(7)
H11 H 0.4176 0.5965 0.4521
C20 C 0.0618(7) 0.3368(5) 1.1109(6)
N1 N 0.0865(6) 0.4290(5) 0.6833(5)
N2 N 0.2861(6) 0.5447(4) 0.7881(5)
O1 O -0.2120(5) 0.1574(4) 1.3522(4)
O2 O 0.3957(5) 0.1161(4) 1.3603(4)
O3 O 0.2587(5) 0.0289(4) 1.4562(4)
O4 O 0.1419(6) 0.3209(4) 1.0393(4)
O5 O -0.0077(5) 0.4129(4) 1.1099(4)
Gd1A Gd 0.37291(3) -0.05929(3) 1.60262(3)
Gd1B Gd -0.12709(3) 0.55929(3) 1.10262(3)
Gd1C Gd -0.37291(3) 0.05929(3) 1.39738(3)
Gd1C_2 Gd 0.62709(3) 0.05929(3) 1.39738(3)
O1C O 0.2880(5) 0.3426(4) 0.8522(4)
O2C O -0.1043(5) 0.3839(4) 0.8603(4)
O3A O 0.2413(5) 0.5289(4) 1.0438(4)
O5B O 0.0077(5) 0.5871(4) 0.8901(4)
loop_
_geom_bond_atom_site_label_1
_geom_bond_atom_site_label_2
_geom_bond_site_symmetry_1
_geom_bond_site_symmetry_2
Gd1 N1 1_555 1_555
C1 H1 1_555 1_555
C2 H2 1_555 1_555
C3 H3 1_555 1_555
C4 C11 1_555 1_555
C5 C2 1_555 1_555
C6 C9 1_555 1_555
C7 C10 1_555 1_555
C8 C2 1_555 1_555
C9 H4 1_555 1_555
C10 C6 1_555 1_555
C11 C3 1_555 1_555
C12 C7 1_555 1_555
C13 C8 1_555 1_555
H5 C13 1_555 1_555
C14 H6 1_555 1_555
C15 C1 1_555 1_555
H7 C15 1_555 1_555
C16 C14 1_555 1_555
H8 C16 1_555 1_555
C17 C12 1_555 1_555
H9 C17 1_555 1_555
C18 C6 1_555 1_555
H10 C18 1_555 1_555
C19 C9 1_555 1_555
H11 C19 1_555 1_555
C20 C5 1_555 1_555
N1 C10 1_555 1_555
N2 Gd1 1_555 1_555
O1 C8 1_555 1_555
O2 C4 1_555 1_555
O3 C4 1_555 1_555
O4 Gd1 1_555 1_555
O5 C20 1_555 1_555
Gd1A O3 1_555 1_555
Gd1B O5 1_555 1_555
Gd1C O1 1_555 1_555
Gd1C_2 O2 1_555 1_555
O1C Gd1 1_555 1_555
O2C Gd1 1_555 1_555
O3A Gd1 1_555 1_555
O5B Gd1 1_555 1_555
C1 N2 1_555 1_555
C3 C5 1_555 1_555
C7 N2 1_555 1_555
C11 C13 1_555 1_555
C12 C19 1_555 1_555
C14 N1 1_555 1_555
C15 C17 1_555 1_555
C16 C18 1_555 1_555
C20 O4 1_555 1_555

#END
