
#######################################################################
#
#                 Cambridge Crystallographic Data Centre
#                                CCDC 
#
#######################################################################
#
# If this CIF has been generated from an entry in the Cambridge 
# Structural Database, then it will include bibliographic, chemical, 
# crystal, experimental, refinement or atomic coordinate data resulting 
# from the CCDC's data processing and validation procedures.
#
#######################################################################

data_NOGROQ
_symmetry_cell_setting           monoclinic
_symmetry_space_group_name_H-M   'P 21/n'
_symmetry_Int_Tables_number      14
_space_group_name_Hall           '-P 2yn'
loop_
_symmetry_equiv_pos_site_id
_symmetry_equiv_pos_as_xyz
1 x,y,z
2 1/2-x,1/2+y,1/2-z
3 -x,-y,-z
4 1/2+x,1/2-y,1/2+z
_cell_length_a                   13.5393(2)
_cell_length_b                   17.7722(4)
_cell_length_c                   13.5854(2)
_cell_angle_alpha                90
_cell_angle_beta                 107.8280(13)
_cell_angle_gamma                90
_cell_volume                     3111.99
loop_
_atom_site_label
_atom_site_type_symbol
_atom_site_fract_x
_atom_site_fract_y
_atom_site_fract_z
Cu1 Cu 0.02127(3) 0.23973(2) 0.23530(3)
O1 O -0.02090(18) 0.05854(14) 0.69327(19)
O2 O -0.41734(17) -0.01344(13) 0.27643(19)
O3 O 0.08827(19) 0.14937(15) 0.1243(2)
O4 O 0.2183(2) 0.09171(14) 0.2252(2)
O5 O 0.1820(2) 0.07680(15) 0.0617(2)
O6 O -0.0695(2) 0.34117(13) 0.3006(2)
H1 H -0.0870 0.3455 0.3554
H2 H -0.0708 0.3850 0.2775
N1 N 0.1626(2) 0.10628(16) 0.1361(3)
N2 N 0.0613(2) 0.18631(15) 0.37293(19)
N3 N 0.1409(2) 0.10544(18) 0.7515(2)
H3 H 0.1850 0.1351 0.7956
N4 N 0.0317(2) 0.11200(17) 0.8516(2)
H4 H 0.0738 0.1442 0.8931
N5 N -0.34216(19) 0.20454(14) 0.7809(2)
N6 N -0.1128(2) 0.18011(15) 0.1927(2)
N7 N -0.4710(2) 0.06567(17) 0.1397(2)
H5 H -0.5182 0.0984 0.1064
N8 N -0.5542(2) 0.06334(16) 0.2623(2)
H6 H -0.5958 0.0980 0.2254
N9 N -0.51656(19) 0.20271(14) 0.5990(2)
C1 C 0.0820(3) 0.2244(2) 0.4619(3)
H7 H 0.0755 0.2777 0.4592
C2 C 0.1124(3) 0.1899(2) 0.5569(3)
H8 H 0.1251 0.2190 0.6181
C3 C 0.1242(2) 0.11283(19) 0.5630(3)
C4 C 0.1021(3) 0.0740(2) 0.4714(3)
H9 H 0.1089 0.0208 0.4720
C5 C 0.0701(3) 0.11193(19) 0.3792(3)
H10 H 0.0535 0.0837 0.3169
C6 C 0.1667(3) 0.0713(2) 0.6654(3)
H11 H 0.1396 0.0192 0.6565
H12 H 0.2431 0.0685 0.6830
C7 C 0.0464(3) 0.08986(19) 0.7614(3)
C8 C -0.0561(3) 0.0803(2) 0.8762(3)
H13 H -0.0374 0.0745 0.9522
H14 H -0.0694 0.0293 0.8455
C9 C -0.1554(2) 0.12501(18) 0.8397(2)
C10 C -0.1574(3) 0.20199(19) 0.8309(3)
H15 H -0.0943 0.2293 0.8444
C11 C -0.2513(3) 0.23971(19) 0.8024(3)
H16 H -0.2509 0.2930 0.7979
C12 C -0.3394(3) 0.12966(19) 0.7886(3)
H17 H -0.4033 0.1032 0.7734
C13 C -0.2490(3) 0.08914(19) 0.8173(3)
H18 H -0.2513 0.0359 0.8217
C14 C -0.1353(3) 0.1344(2) 0.1110(3)
H19 H -0.0888 0.1328 0.0709
C15 C -0.2215(3) 0.0896(2) 0.0817(3)
H20 H -0.2319 0.0565 0.0246
C16 C -0.2927(2) 0.09235(18) 0.1340(3)
C17 C -0.2708(3) 0.1391(2) 0.2177(3)
H21 H -0.3176 0.1426 0.2572
C18 C -0.1808(3) 0.1811(2) 0.2449(3)
H22 H -0.1669 0.2125 0.3043
C19 C -0.3899(3) 0.0457(2) 0.0975(3)
H23 H -0.4172 0.0497 0.0212
H24 H -0.3712 -0.0076 0.1146
C20 C -0.4777(2) 0.03607(18) 0.2285(3)
C21 C -0.5706(3) 0.03793(19) 0.3568(3)
H25 H -0.5227 -0.0043 0.3853
H26 H -0.6424 0.0188 0.3411
C22 C -0.5536(2) 0.09880(17) 0.4374(2)
C23 C -0.4628(2) 0.14016(19) 0.4682(3)
H27 H -0.4118 0.1338 0.4340
C24 C -0.4467(3) 0.19034(19) 0.5481(3)
H28 H -0.3834 0.2177 0.5687
C25 C -0.6055(2) 0.16504(18) 0.5663(2)
H29 H -0.6571 0.1744 0.5989
C26 C -0.6262(2) 0.11272(18) 0.4868(3)
H30 H -0.6905 0.0866 0.4666
N5C N 0.15784(19) 0.29546(14) 0.2809(2)
N9C N -0.01656(19) 0.29729(14) 0.0990(2)
Cu1C Cu -0.47873(3) 0.26027(2) 0.73530(3)
N10 N 0.3226(3) 0.19166(19) 1.0032(3)
O7 O 0.2449(7) 0.2155(8) 0.9378(6)
O8 O 0.3322(11) 0.2090(9) 1.0915(4)
O9 O 0.3851(8) 0.1500(6) 0.9811(7)
O10 O -0.198(2) 0.1134(11) 0.533(3)
H31 H -0.1522 0.1053 0.5890
H32 H -0.1962 0.1599 0.5210
O11? O 0.3621(13) 0.2008(8) 1.0975(5)
O12? O 0.2564(12) 0.2340(9) 0.9499(10)
O13? O 0.3533(12) 0.1388(7) 0.9592(11)
O14? O -0.223(3) 0.112(2) 0.566(4)
H33? H -0.1705 0.0906 0.6067
H34? H -0.2707 0.0805 0.5557
O15? O -0.164(3) 0.116(2) 0.495(2)
H35? H -0.1280 0.1096 0.4529
H36? H -0.1244 0.1044 0.5538
loop_
_geom_bond_atom_site_label_1
_geom_bond_atom_site_label_2
_geom_bond_site_symmetry_1
_geom_bond_site_symmetry_2
Cu1 O3 1_555 1_555
O1 C7 1_555 1_555
O2 C20 1_555 1_555
O3 N1 1_555 1_555
O4 N1 1_555 1_555
O5 N1 1_555 1_555
O6 Cu1 1_555 1_555
H1 O6 1_555 1_555
H2 O6 1_555 1_555
N2 Cu1 1_555 1_555
N3 H3 1_555 1_555
N4 H4 1_555 1_555
N5 C11 1_555 1_555
N6 Cu1 1_555 1_555
N7 H5 1_555 1_555
N8 H6 1_555 1_555
N9 C24 1_555 1_555
C1 N2 1_555 1_555
H7 C1 1_555 1_555
C2 C1 1_555 1_555
H8 C2 1_555 1_555
C3 C2 1_555 1_555
C4 C3 1_555 1_555
H9 C4 1_555 1_555
C5 N2 1_555 1_555
H10 C5 1_555 1_555
C6 N3 1_555 1_555
H11 C6 1_555 1_555
H12 C6 1_555 1_555
C7 N3 1_555 1_555
C8 N4 1_555 1_555
H13 C8 1_555 1_555
H14 C8 1_555 1_555
C9 C8 1_555 1_555
C10 C9 1_555 1_555
H15 C10 1_555 1_555
C11 C10 1_555 1_555
H16 C11 1_555 1_555
C12 N5 1_555 1_555
H17 C12 1_555 1_555
C13 C9 1_555 1_555
H18 C13 1_555 1_555
C14 N6 1_555 1_555
H19 C14 1_555 1_555
C15 C14 1_555 1_555
H20 C15 1_555 1_555
C16 C15 1_555 1_555
C17 C16 1_555 1_555
H21 C17 1_555 1_555
C18 N6 1_555 1_555
H22 C18 1_555 1_555
C19 N7 1_555 1_555
H23 C19 1_555 1_555
H24 C19 1_555 1_555
C20 N7 1_555 1_555
C21 N8 1_555 1_555
H25 C21 1_555 1_555
H26 C21 1_555 1_555
C22 C21 1_555 1_555
C23 C22 1_555 1_555
H27 C23 1_555 1_555
C24 C23 1_555 1_555
H28 C24 1_555 1_555
C25 N9 1_555 1_555
H29 C25 1_555 1_555
C26 C22 1_555 1_555
H30 C26 1_555 1_555
N10 O7 1_555 1_555
O8 N10 1_555 1_555
O9 N10 1_555 1_555
O10 H31 1_555 1_555
H32 O10 1_555 1_555
N5C Cu1 1_555 1_555
N9C Cu1 1_555 1_555
Cu1C N5 1_555 1_555
N4 C7 1_555 1_555
N8 C20 1_555 1_555
N9 Cu1C 1_555 1_555
C3 C6 1_555 1_555
C4 C5 1_555 1_555
C12 C13 1_555 1_555
C16 C19 1_555 1_555
C17 C18 1_555 1_555
C25 C26 1_555 1_555

#END
