
#######################################################################
#
#                 Cambridge Crystallographic Data Centre
#                                CCDC 
#
#######################################################################
#
# If this CIF has been generated from an entry in the Cambridge 
# Structural Database, then it will include bibliographic, chemical, 
# crystal, experimental, refinement or atomic coordinate data resulting 
# from the CCDC's data processing and validation procedures.
#
#######################################################################

data_NOGSIL
_symmetry_cell_setting           monoclinic
_symmetry_space_group_name_H-M   'P 21/c'
_symmetry_Int_Tables_number      14
_space_group_name_Hall           '-P 2ybc'
loop_
_symmetry_equiv_pos_site_id
_symmetry_equiv_pos_as_xyz
1 x,y,z
2 x,1/2-y,1/2+z
3 -x,-y,-z
4 -x,1/2+y,1/2-z
_cell_length_a                   9.1171(4)
_cell_length_b                   21.5580(10)
_cell_length_c                   9.1220(4)
_cell_angle_alpha                90
_cell_angle_beta                 96.270(10)
_cell_angle_gamma                90
_cell_volume                     1782.17
loop_
_atom_site_label
_atom_site_type_symbol
_atom_site_fract_x
_atom_site_fract_y
_atom_site_fract_z
Cu1 Cu 0.0000 0.5000 0.0000
O1 O 0.1963(2) 0.76788(10) -0.17500(19)
N1 N 0.1901(2) 0.53493(9) -0.0580(2)
N2 N 0.2872(3) 0.72232(10) 0.0407(3)
H1 H 0.275(3) 0.7197(15) 0.121(4)
N3 N 0.1049(3) 0.79537(10) 0.0361(2)
H2 H 0.1127 0.7937 0.1308
N4 N 0.0602(2) 0.97068(9) -0.2861(2)
C1 C 0.2270(3) 0.59435(11) -0.0279(3)
H3 H 0.154(3) 0.6191(13) 0.021(3)
C2 C 0.3581(3) 0.62077(12) -0.0603(3)
C3 C 0.4544(3) 0.58337(13) -0.1280(3)
H4 H 0.538(4) 0.5966(14) -0.146(3)
C4 C 0.4167(3) 0.52298(14) -0.1617(3)
H5 H 0.471(4) 0.4989(12) -0.211(4)
C5 C 0.2838(3) 0.50003(12) -0.1264(3)
H6 H 0.257(3) 0.4580(14) -0.148(3)
C6 C 0.3977(3) 0.68736(13) -0.0232(4)
H7 H 0.484(4) 0.6852(17) 0.036(4)
H8 H 0.421(4) 0.7059(16) -0.105(4)
C7 C 0.1962(3) 0.76160(12) -0.0397(3)
C8 C -0.0061(3) 0.83453(14) -0.0435(3)
H9 H -0.083(4) 0.8398(16) 0.011(4)
H10 H -0.049(4) 0.8132(15) -0.129(4)
C9 C 0.0538(3) 0.89557(12) -0.0918(3)
C10 C 0.1436(3) 0.93336(13) 0.0027(3)
H11 H 0.165(3) 0.9216(14) 0.096(4)
C11 C 0.1914(3) 0.98946(13) -0.0486(3)
H12 H 0.247(3) 1.0175(15) 0.015(4)
C12 C 0.1477(3) 1.00654(12) -0.1928(3)
H13 H 0.183(3) 1.0438(14) -0.228(3)
C13 C 0.0161(3) 0.91638(12) -0.2343(3)
H14 H -0.038(3) 0.8919(14) -0.296(3)
N5 N 0.1314(3) 0.34980(11) 0.1207(3)
O2 O 0.2076(4) 0.30377(14) 0.1046(4)
O3 O 0.0456(3) 0.34919(14) 0.2199(3)
O4 O 0.1401(2) 0.39706(9) 0.0449(2)
O1B O -0.1963(2) 0.23212(10) 0.17500(19)
N1B N -0.1901(2) 0.46507(9) 0.0580(2)
N2B N -0.2872(3) 0.27768(10) -0.0407(3)
H1B H -0.275(3) 0.2803(15) -0.121(4)
N3B N -0.1049(3) 0.20463(10) -0.0361(2)
H2B H -0.1127 0.2063 -0.1308
N4B N -0.0602(2) 0.02932(9) 0.2861(2)
C1B C -0.2270(3) 0.40565(11) 0.0279(3)
H3B H -0.154(3) 0.3809(13) -0.021(3)
C2B C -0.3581(3) 0.37923(12) 0.0603(3)
C3B C -0.4544(3) 0.41663(13) 0.1280(3)
H4B H -0.538(4) 0.4034(14) 0.146(3)
C4B C -0.4167(3) 0.47702(14) 0.1617(3)
H5B H -0.471(4) 0.5011(12) 0.211(4)
C5B C -0.2838(3) 0.49997(12) 0.1264(3)
H6B H -0.257(3) 0.5420(14) 0.148(3)
C6B C -0.3977(3) 0.31264(13) 0.0232(4)
H7B H -0.484(4) 0.3148(17) -0.036(4)
H8B H -0.421(4) 0.2941(16) 0.105(4)
C7B C -0.1962(3) 0.23840(12) 0.0397(3)
C8B C 0.0061(3) 0.16547(14) 0.0435(3)
H9B H 0.083(4) 0.1602(16) -0.011(4)
H10B H 0.049(4) 0.1868(15) 0.129(4)
C9B C -0.0538(3) 0.10443(12) 0.0918(3)
C10B C -0.1436(3) 0.06664(13) -0.0027(3)
H11B H -0.165(3) 0.0784(14) -0.096(4)
C11B C -0.1914(3) 0.01054(13) 0.0486(3)
H12B H -0.247(3) -0.0175(15) -0.015(4)
C12B C -0.1477(3) -0.00654(12) 0.1928(3)
H13B H -0.183(3) -0.0438(14) 0.228(3)
C13B C -0.0161(3) 0.08362(12) 0.2343(3)
H14B H 0.038(3) 0.1081(14) 0.296(3)
N5B N -0.1314(3) 0.65020(11) -0.1207(3)
O2B O -0.2076(4) 0.69623(14) -0.1046(4)
O3B O -0.0456(3) 0.65081(14) -0.2199(3)
O4B O -0.1401(2) 0.60294(9) -0.0449(2)
N4A N 0.0602(2) 0.52932(9) 0.2139(2)
N4C N -0.0602(2) 0.47068(9) -0.2139(2)
Cu1A Cu 0.0000 1.0000 -0.5000
Cu1A_2 Cu 0.0000 0.0000 0.5000
O5 O -0.2734(3) 0.71131(13) 0.1835(3)
H15 H -0.2496 0.7457 0.2255
H16 H -0.2321 0.7109 0.1064
O6 O 0.3667(3) 0.38972(13) 0.6791(3)
H17 H 0.3371 0.3612 0.7274
C14 C 0.4951(5) 0.3707(3) 0.6167(6)
H18 H 0.5395 0.3356 0.6714
H19 H 0.5663 0.4043 0.6232
C15 C 0.4565(6) 0.3529(3) 0.4597(5)
H20 H 0.5441 0.3402 0.4183
H21 H 0.4134 0.3878 0.4057
H22 H 0.3871 0.3193 0.4538
loop_
_geom_bond_atom_site_label_1
_geom_bond_atom_site_label_2
_geom_bond_site_symmetry_1
_geom_bond_site_symmetry_2
Cu1 N1 1_555 1_555
O1 C7 1_555 1_555
N1 C1 1_555 1_555
N2 H1 1_555 1_555
N3 H2 1_555 1_555
N4 C12 1_555 1_555
C1 H3 1_555 1_555
C2 C1 1_555 1_555
C3 C2 1_555 1_555
H4 C3 1_555 1_555
C4 C3 1_555 1_555
H5 C4 1_555 1_555
C5 N1 1_555 1_555
H6 C5 1_555 1_555
C6 N2 1_555 1_555
H7 C6 1_555 1_555
H8 C6 1_555 1_555
C7 N2 1_555 1_555
C8 N3 1_555 1_555
H9 C8 1_555 1_555
H10 C8 1_555 1_555
C9 C8 1_555 1_555
C10 C9 1_555 1_555
H11 C10 1_555 1_555
C11 C10 1_555 1_555
H12 C11 1_555 1_555
C12 C11 1_555 1_555
H13 C12 1_555 1_555
C13 N4 1_555 1_555
H14 C13 1_555 1_555
N5 O2 1_555 1_555
O3 N5 1_555 1_555
O4 Cu1 1_555 1_555
O5 H15 1_555 1_555
H16 O5 1_555 1_555
O6 H17 1_555 1_555
C14 O6 1_555 1_555
H18 C14 1_555 1_555
H19 C14 1_555 1_555
C15 C14 1_555 1_555
H20 C15 1_555 1_555
H21 C15 1_555 1_555
H22 C15 1_555 1_555
O1B C7B 1_555 1_555
N1B Cu1 1_555 1_555
N2B H1B 1_555 1_555
N3B H2B 1_555 1_555
N4B C12B 1_555 1_555
C1B N1B 1_555 1_555
H3B C1B 1_555 1_555
C2B C1B 1_555 1_555
C3B C2B 1_555 1_555
H4B C3B 1_555 1_555
C4B C3B 1_555 1_555
H5B C4B 1_555 1_555
C5B N1B 1_555 1_555
H6B C5B 1_555 1_555
C6B N2B 1_555 1_555
H7B C6B 1_555 1_555
H8B C6B 1_555 1_555
C7B N2B 1_555 1_555
C8B N3B 1_555 1_555
H9B C8B 1_555 1_555
H10B C8B 1_555 1_555
C9B C8B 1_555 1_555
C10B C9B 1_555 1_555
H11B C10B 1_555 1_555
C11B C10B 1_555 1_555
H12B C11B 1_555 1_555
C12B C11B 1_555 1_555
H13B C12B 1_555 1_555
C13B N4B 1_555 1_555
H14B C13B 1_555 1_555
N5B O2B 1_555 1_555
O3B N5B 1_555 1_555
O4B Cu1 1_555 1_555
N4A Cu1 1_555 1_555
N4C Cu1 1_555 1_555
Cu1A N4 1_555 1_555
Cu1A_2 N4B 1_555 1_555
N3 C7 1_555 1_555
C2 C6 1_555 1_555
C4 C5 1_555 1_555
C9 C13 1_555 1_555
N5 O4 1_555 1_555
N3B C7B 1_555 1_555
C2B C6B 1_555 1_555
C4B C5B 1_555 1_555
C9B C13B 1_555 1_555
N5B O4B 1_555 1_555

#END
