
#######################################################################
#
#                 Cambridge Crystallographic Data Centre
#                                CCDC 
#
#######################################################################
#
# If this CIF has been generated from an entry in the Cambridge 
# Structural Database, then it will include bibliographic, chemical, 
# crystal, experimental, refinement or atomic coordinate data resulting 
# from the CCDC's data processing and validation procedures.
#
#######################################################################

data_NOGVUC
_symmetry_cell_setting           monoclinic
_symmetry_space_group_name_H-M   'P 21/c'
_symmetry_Int_Tables_number      14
_space_group_name_Hall           '-P 2ybc'
loop_
_symmetry_equiv_pos_site_id
_symmetry_equiv_pos_as_xyz
1 x,y,z
2 -x,1/2+y,1/2-z
3 -x,-y,-z
4 x,1/2-y,1/2+z
_cell_length_a                   10.082(2)
_cell_length_b                   20.584(4)
_cell_length_c                   12.221(2)
_cell_angle_alpha                90
_cell_angle_beta                 100.00(3)
_cell_angle_gamma                90
_cell_volume                     2497.67
loop_
_atom_site_label
_atom_site_type_symbol
_atom_site_fract_x
_atom_site_fract_y
_atom_site_fract_z
C1 C 0.8129(4) 0.24001(19) 0.5693(4)
C2 C 0.6859(4) 0.2243(2) 0.6089(4)
C3 C 0.5627(4) 0.2390(2) 0.5428(4)
H1 H 0.5608 0.2581 0.4718
C4 C 0.4429(5) 0.2262(2) 0.5797(4)
C5 C 0.3097(4) 0.2435(2) 0.5080(4)
C6 C 0.4460(5) 0.1964(2) 0.6827(4)
H2 H 0.3642 0.1873 0.7082
C7 C 0.5681(5) 0.1799(2) 0.7481(4)
C8 C 0.6874(5) 0.1947(2) 0.7110(4)
H3 H 0.7711 0.1844 0.7563
C9 C 1.0142(7) 0.3987(3) 0.5439(5)
H4 H 0.9404 0.4081 0.4865
C10 C 1.0812(8) 0.4426(3) 0.6134(5)
H5 H 1.0643 0.4880 0.6132
C11 C 1.1623(5) 0.3479(2) 0.6551(4)
H6 H 1.2141 0.3136 0.6932
C12 C 1.2701(6) 0.4364(2) 0.7743(4)
C13 C 1.3315(10) 0.3979(3) 0.8555(6)
H7 H 1.3126 0.3527 0.8528
C14 C 1.4224(10) 0.4230(3) 0.9437(6)
H8 H 1.4649 0.3944 1.0001
C15 C 1.4521(8) 0.4867(2) 0.9515(5)
C16 C 1.4035(9) 0.5225(3) 0.8638(6)
H9 H 1.4314 0.5665 0.8620
C17 C 1.3123(9) 0.4979(3) 0.7732(6)
H10 H 1.2807 0.5250 0.7112
C18 C 0.5511(6) 0.0134(2) 0.0471(4)
C19 C 0.5337(6) 0.0738(2) 0.0903(4)
H11 H 0.4564 0.0985 0.0600
C20 C 0.6260(6) 0.0999(2) 0.1773(4)
H12 H 0.6111 0.1417 0.2058
C21 C 0.7368(6) 0.0655(2) 0.2208(4)
C22 C 0.7570(8) 0.0039(3) 0.1808(6)
H13 H 0.8342 -0.0209 0.2109
C23 C 0.6610(8) -0.0204(3) 0.0954(6)
H14 H 0.6730 -0.0632 0.0695
C24 C 0.8621(5) 0.1549(2) 0.3269(4)
H15 H 0.8139 0.1887 0.2844
C25 C 0.9261(9) 0.0601(3) 0.3838(7)
H16 H 0.9330 0.0144 0.3937
C26 C 1.0034(8) 0.1054(3) 0.4437(7)
H17 H 1.0778 0.0965 0.5009
N1 N 1.0677(4) 0.33901(18) 0.5680(3)
N2 N 0.9593(4) 0.16534(18) 0.4103(3)
N3 N 1.1781(5) 0.41029(18) 0.6843(3)
N4 N 0.8371(5) 0.09202(18) 0.3071(3)
N5 N 0.5725(5) 0.1455(2) 0.8469(3)
H18 H 0.6440 0.1475 0.8972
H19 H 0.4954 0.1462 0.8686
Ni1 Ni 1.01655(5) 0.25269(3) 0.48714(4)
O1 O 0.8091(3) 0.27153(14) 0.4802(2)
O2 O 0.9250(3) 0.22020(15) 0.6232(2)
O3 O 0.2052(3) 0.22162(15) 0.5382(3)
O4 O 0.3126(4) 0.2786(2) 0.4251(3)
O5 O 1.0558(3) 0.29734(16) 0.3423(3)
H20 H 1.1411 0.2919 0.3561
H21 H 1.0194 0.2954 0.2739
C9B C 1.9858(7) 0.6013(3) 1.4561(5)
H4B H 2.0596 0.5919 1.5135
C10B C 1.9188(8) 0.5574(3) 1.3866(5)
H5B H 1.9357 0.5120 1.3868
C11B C 1.8377(5) 0.6521(2) 1.3449(4)
H6B H 1.7859 0.6864 1.3068
C12B C 1.7299(6) 0.5636(2) 1.2257(4)
C13B C 1.6685(10) 0.6021(3) 1.1445(6)
H7B H 1.6874 0.6473 1.1472
C14B C 1.5776(10) 0.5770(3) 1.0563(6)
H8B H 1.5351 0.6056 0.9999
C15B C 1.5479(8) 0.5133(2) 1.0485(5)
C16B C 1.5965(9) 0.4775(3) 1.1362(6)
H9B H 1.5686 0.4335 1.1380
C17B C 1.6877(9) 0.5021(3) 1.2268(6)
H10B H 1.7193 0.4750 1.2888
N1B N 1.9323(4) 0.66099(18) 1.4320(3)
N3B N 1.8219(5) 0.58971(18) 1.3157(3)
C18B C 0.4489(6) -0.0134(2) -0.0471(4)
C19B C 0.4663(6) -0.0738(2) -0.0903(4)
H11B H 0.5436 -0.0985 -0.0600
C20B C 0.3740(6) -0.0999(2) -0.1773(4)
H12B H 0.3889 -0.1417 -0.2058
C21B C 0.2632(6) -0.0655(2) -0.2208(4)
C22B C 0.2430(8) -0.0039(3) -0.1808(6)
H13B H 0.1658 0.0209 -0.2109
C23B C 0.3390(8) 0.0204(3) -0.0954(6)
H14B H 0.3270 0.0632 -0.0695
C24B C 0.1379(5) -0.1549(2) -0.3269(4)
H15B H 0.1861 -0.1887 -0.2844
C25B C 0.0739(9) -0.0601(3) -0.3838(7)
H16B H 0.0670 -0.0144 -0.3937
C26B C -0.0034(8) -0.1054(3) -0.4437(7)
H17B H -0.0778 -0.0965 -0.5009
N2B N 0.0407(4) -0.16534(18) -0.4103(3)
N4B N 0.1629(5) -0.09202(18) -0.3071(3)
C1B C 0.1871(4) -0.24001(19) -0.5693(4)
C2B C 0.3141(4) -0.2243(2) -0.6089(4)
C3B C 0.4373(4) -0.2390(2) -0.5428(4)
H1B H 0.4392 -0.2581 -0.4718
C4B C 0.5571(5) -0.2262(2) -0.5797(4)
C5B C 0.6903(4) -0.2435(2) -0.5080(4)
C6B C 0.5540(5) -0.1964(2) -0.6827(4)
H2B H 0.6358 -0.1873 -0.7082
C7B C 0.4319(5) -0.1799(2) -0.7481(4)
C8B C 0.3126(5) -0.1947(2) -0.7110(4)
H3B H 0.2289 -0.1844 -0.7563
N5B N 0.4275(5) -0.1455(2) -0.8469(3)
H18B H 0.3560 -0.1475 -0.8972
H19B H 0.5046 -0.1462 -0.8686
Ni1B Ni -0.01655(5) -0.25269(3) -0.48714(4)
O1B O 0.1909(3) -0.27153(14) -0.4802(2)
O2B O 0.0750(3) -0.22020(15) -0.6232(2)
O3B O 0.7948(3) -0.22162(15) -0.5382(3)
O4B O 0.6874(4) -0.2786(2) -0.4251(3)
O5B O -0.0558(3) -0.29734(16) -0.3423(3)
H20B H -0.1411 -0.2919 -0.3561
H21B H -0.0194 -0.2954 -0.2739
N1B_2 N -0.0677(4) -0.33901(18) -0.5680(3)
Ni1_2 Ni 0.01655(5) 0.25269(3) 0.48714(4)
Ni1B_2 Ni 0.98345(5) -0.25269(3) -0.48714(4)
Ni1B_3 Ni 1.98345(5) 0.74731(3) 1.51286(4)
O3_2 O 1.2052(3) 0.22162(15) 0.5382(3)
O3B_2 O -0.2052(3) -0.22162(15) -0.5382(3)
O6 O 0.9826(12) 0.0868(5) 0.7340(9)
H22 H 0.9605 0.1113 0.6780
H23 H 0.9256 0.0705 0.7659
loop_
_geom_bond_atom_site_label_1
_geom_bond_atom_site_label_2
_geom_bond_site_symmetry_1
_geom_bond_site_symmetry_2
C1 C2 1_555 1_555
C2 C3 1_555 1_555
C3 H1 1_555 1_555
C4 C3 1_555 1_555
C5 C4 1_555 1_555
C6 C4 1_555 1_555
H2 C6 1_555 1_555
C7 C6 1_555 1_555
C8 C2 1_555 1_555
H3 C8 1_555 1_555
C9 H4 1_555 1_555
C10 C9 1_555 1_555
H5 C10 1_555 1_555
C11 H6 1_555 1_555
C12 C13 1_555 1_555
C13 H7 1_555 1_555
C14 C13 1_555 1_555
H8 C14 1_555 1_555
C15 C14 1_555 1_555
C16 C15 1_555 1_555
H9 C16 1_555 1_555
C17 C12 1_555 1_555
H10 C17 1_555 1_555
C18 C19 1_555 1_555
C19 H11 1_555 1_555
C20 C19 1_555 1_555
H12 C20 1_555 1_555
C21 C20 1_555 1_555
C22 C21 1_555 1_555
H13 C22 1_555 1_555
C23 C18 1_555 1_555
H14 C23 1_555 1_555
C24 H15 1_555 1_555
C25 H16 1_555 1_555
C26 C25 1_555 1_555
H17 C26 1_555 1_555
N1 C9 1_555 1_555
N2 C24 1_555 1_555
N3 C10 1_555 1_555
N4 C21 1_555 1_555
N5 C7 1_555 1_555
H18 N5 1_555 1_555
H19 N5 1_555 1_555
Ni1 N1 1_555 1_555
O1 C1 1_555 1_555
O2 C1 1_555 1_555
O3 C5 1_555 1_555
O4 C5 1_555 1_555
O5 Ni1 1_555 1_555
H20 O5 1_555 1_555
H21 O5 1_555 1_555
O6 H22 1_555 1_555
H23 O6 1_555 1_555
C9B H4B 1_555 1_555
C10B C9B 1_555 1_555
H5B C10B 1_555 1_555
C11B H6B 1_555 1_555
C12B C13B 1_555 1_555
C13B H7B 1_555 1_555
C14B C13B 1_555 1_555
H8B C14B 1_555 1_555
C15B C15 1_555 1_555
C16B C15B 1_555 1_555
H9B C16B 1_555 1_555
C17B C12B 1_555 1_555
H10B C17B 1_555 1_555
N1B C9B 1_555 1_555
N3B C10B 1_555 1_555
C18B C18 1_555 1_555
C19B C18B 1_555 1_555
H11B C19B 1_555 1_555
C20B C19B 1_555 1_555
H12B C20B 1_555 1_555
C21B C20B 1_555 1_555
C22B C21B 1_555 1_555
H13B C22B 1_555 1_555
C23B C18B 1_555 1_555
H14B C23B 1_555 1_555
C24B H15B 1_555 1_555
C25B H16B 1_555 1_555
C26B C25B 1_555 1_555
H17B C26B 1_555 1_555
N2B C24B 1_555 1_555
N4B C21B 1_555 1_555
C1B C2B 1_555 1_555
C2B C3B 1_555 1_555
C3B H1B 1_555 1_555
C4B C3B 1_555 1_555
C5B C4B 1_555 1_555
C6B C4B 1_555 1_555
H2B C6B 1_555 1_555
C7B C6B 1_555 1_555
C8B C2B 1_555 1_555
H3B C8B 1_555 1_555
N5B C7B 1_555 1_555
H18B N5B 1_555 1_555
H19B N5B 1_555 1_555
Ni1B N2B 1_555 1_555
O1B C1B 1_555 1_555
O2B C1B 1_555 1_555
O3B C5B 1_555 1_555
O4B C5B 1_555 1_555
O5B Ni1B 1_555 1_555
H20B O5B 1_555 1_555
H21B O5B 1_555 1_555
N1B_2 Ni1B 1_555 1_555
Ni1_2 O3 1_555 1_555
Ni1B_2 O3B 1_555 1_555
Ni1B_3 N1B 1_555 1_555
O3_2 Ni1 1_555 1_555
O3B_2 Ni1B 1_555 1_555
C7 C8 1_555 1_555
C11 N1 1_555 1_555
C11 N3 1_555 1_555
C12 N3 1_555 1_555
C16 C17 1_555 1_555
C22 C23 1_555 1_555
C24 N4 1_555 1_555
C25 N4 1_555 1_555
C26 N2 1_555 1_555
N2 Ni1 1_555 1_555
Ni1 O1 1_555 1_555
Ni1 O2 1_555 1_555
C11B N1B 1_555 1_555
C11B N3B 1_555 1_555
C12B N3B 1_555 1_555
C14B C15B 1_555 1_555
C16B C17B 1_555 1_555
C22B C23B 1_555 1_555
C24B N4B 1_555 1_555
C25B N4B 1_555 1_555
C26B N2B 1_555 1_555
C7B C8B 1_555 1_555
Ni1B O1B 1_555 1_555
Ni1B O2B 1_555 1_555

#END
