
#######################################################################
#
#                 Cambridge Crystallographic Data Centre
#                                CCDC 
#
#######################################################################
#
# If this CIF has been generated from an entry in the Cambridge 
# Structural Database, then it will include bibliographic, chemical, 
# crystal, experimental, refinement or atomic coordinate data resulting 
# from the CCDC's data processing and validation procedures.
#
#######################################################################

data_NOGVOW
_symmetry_cell_setting           triclinic
_symmetry_space_group_name_H-M   'P -1'
_symmetry_Int_Tables_number      2
_space_group_name_Hall           '-P 1'
loop_
_symmetry_equiv_pos_site_id
_symmetry_equiv_pos_as_xyz
1 x,y,z
2 -x,-y,-z
_cell_length_a                   7.804(2)
_cell_length_b                   14.262(5)
_cell_length_c                   15.767(6)
_cell_angle_alpha                85.757(10)
_cell_angle_beta                 85.443(12)
_cell_angle_gamma                80.036(12)
_cell_volume                     1719.7
loop_
_atom_site_label
_atom_site_type_symbol
_atom_site_fract_x
_atom_site_fract_y
_atom_site_fract_z
C1 C 0.8476(4) 0.8637(2) 0.1110(2)
C2 C 0.8901(5) 0.8892(2) 0.0176(2)
C3 C 1.0603(4) 0.8739(2) -0.0186(2)
H1 H 1.1537 0.8457 0.0150
C4 C 1.0928(4) 0.9006(2) -0.1053(2)
C5 C 1.2731(4) 0.8885(2) -0.1464(2)
C6 C 0.9553(4) 0.9394(2) -0.1546(2)
H2 H 0.9779 0.9572 -0.2132
C7 C 0.7843(4) 0.9523(2) -0.1190(2)
C8 C 0.7524(4) 0.9291(2) -0.0331(2)
H3 H 0.6364 0.9404 -0.0082
C9 C 1.5683(5) 0.8502(2) 0.6185(2)
C10 C 1.5598(5) 0.8542(2) 0.5238(2)
C11 C 1.4133(5) 0.8348(2) 0.4880(2)
H4 H 1.3212 0.8140 0.5235
C12 C 1.4021(5) 0.8457(2) 0.4000(2)
C13 C 1.2463(5) 0.8273(2) 0.3590(2)
C14 C 1.5400(4) 0.8728(2) 0.3478(2)
H5 H 1.5322 0.8801 0.2878
C15 C 1.6884(5) 0.8892(2) 0.3830(2)
C16 C 1.6986(5) 0.8814(2) 0.4702(2)
H6 H 1.7993 0.8943 0.4943
C17 C 0.7815(5) 0.6632(3) 0.3798(2)
H7 H 0.8349 0.6686 0.4310
C18 C 0.7169(5) 0.6791(3) 0.2482(2)
H8 H 0.7176 0.6987 0.1893
C19 C 0.6121(5) 0.6212(3) 0.2888(2)
H9 H 0.5274 0.5930 0.2643
C20 C 0.5755(5) 0.5559(3) 0.4391(2)
C21 C 0.6804(6) 0.4915(3) 0.4906(3)
H10 H 0.8036 0.4863 0.4841
C22 C 0.3977(6) 0.5659(3) 0.4477(3)
H11 H 0.3281 0.6113 0.4121
C23 C 1.1712(5) 0.5724(3) 0.2740(2)
H12 H 1.1153 0.5547 0.3270
C24 C 1.2672(5) 0.5110(3) 0.2202(2)
H13 H 1.2920 0.4435 0.2283
C25 C 1.2573(5) 0.6589(3) 0.1661(2)
H14 H 1.2752 0.7119 0.1283
C26 C 1.4143(5) 0.5327(3) 0.0741(2)
C27 C 1.5303(5) 0.4473(3) 0.0765(2)
H15 H 1.5497 0.4114 0.1291
C28 C 1.3833(5) 0.5851(3) -0.0024(2)
H16 H 1.3024 0.6431 -0.0035
C29 C 0.9107(5) 0.7313(3) -0.2486(2)
H17 H 0.9400 0.7565 -0.3043
C30 C 1.0086(5) 0.6582(3) -0.2056(2)
H18 H 1.1175 0.6230 -0.2250
C31 C 0.7712(5) 0.7104(2) -0.1267(2)
H19 H 0.6860 0.7172 -0.0802
C32 C 0.9617(5) 0.5717(2) -0.0631(2)
C33 C 0.9116(5) 0.5890(3) 0.0217(2)
H20 H 0.8512 0.6500 0.0363
C34 C 1.0501(5) 0.4829(2) -0.0848(2)
H21 H 1.0844 0.4713 -0.1428
H22 H 1.900(4) 0.942(2) 0.348(2)
H23 H 1.797(5) 0.947(2) 0.2871(18)
N1 N 0.6442(4) 0.9825(2) -0.17288(17)
H24 H 0.5537 1.0125 -0.1466
H25 H 0.6794 1.0090 -0.2203
N2 N 1.8350(4) 0.9094(2) 0.32783(18)
N3 N 0.8216(4) 0.7053(2) 0.30482(18)
N4 N 0.6533(4) 0.6114(2) 0.37317(19)
N5 N 1.1666(4) 0.6654(2) 0.23996(18)
N6 N 1.3223(4) 0.5666(2) 0.15079(18)
N7 N 0.7611(4) 0.7636(2) -0.19863(18)
N8 N 0.9183(4) 0.6450(2) -0.12788(18)
Ni1 Ni 1.00592(6) 0.78978(3) 0.27903(3)
Ni2 Ni 0.56140(6) 0.86801(3) -0.22593(3)
O1 O 0.9768(3) 0.82820(17) 0.15383(14)
O2 O 0.6912(3) 0.87789(18) 0.13867(14)
O3 O 1.4003(3) 0.83505(17) -0.11275(15)
O4 O 1.3001(3) 0.93169(17) -0.21815(14)
O5 O 1.4841(3) 0.79607(19) 0.66682(15)
O6 O 1.6563(3) 0.90297(17) 0.65093(14)
O7 O 1.2201(3) 0.86129(16) 0.28307(14)
O8 O 1.1416(3) 0.77604(17) 0.39674(14)
C17A C 0.2185(5) 0.3368(3) 0.6202(2)
H7A H 0.1651 0.3314 0.5690
C18A C 0.2831(5) 0.3209(3) 0.7518(2)
H8A H 0.2824 0.3013 0.8107
C19A C 0.3879(5) 0.3788(3) 0.7112(2)
H9A H 0.4726 0.4070 0.7357
C20A C 0.4245(5) 0.4441(3) 0.5609(2)
C21A C 0.3196(6) 0.5085(3) 0.5094(3)
H10A H 0.1964 0.5137 0.5159
C22A C 0.6023(6) 0.4341(3) 0.5523(3)
H11A H 0.6719 0.3887 0.5879
N3A N 0.1784(4) 0.2947(2) 0.69518(18)
N4A N 0.3467(4) 0.3886(2) 0.62683(19)
C23A C 1.8288(5) 0.4276(3) -0.2740(2)
H12A H 1.8847 0.4453 -0.3270
C24A C 1.7328(5) 0.4890(3) -0.2202(2)
H13A H 1.7080 0.5565 -0.2283
C25A C 1.7427(5) 0.3411(3) -0.1661(2)
H14A H 1.7248 0.2881 -0.1283
C26A C 1.5857(5) 0.4673(3) -0.0741(2)
C27A C 1.4697(5) 0.5527(3) -0.0765(2)
H15A H 1.4503 0.5886 -0.1291
C28A C 1.6167(5) 0.4149(3) 0.0024(2)
H16A H 1.6976 0.3569 0.0035
N5A N 1.8334(4) 0.3346(2) -0.23996(18)
N6A N 1.6777(4) 0.4334(2) -0.15079(18)
C29A C 1.0893(5) 0.2687(3) 0.2486(2)
H17A H 1.0600 0.2435 0.3043
C30A C 0.9914(5) 0.3418(3) 0.2056(2)
H18A H 0.8825 0.3770 0.2250
C31A C 1.2288(5) 0.2896(2) 0.1267(2)
H19A H 1.3140 0.2828 0.0802
C32A C 1.0383(5) 0.4283(2) 0.0631(2)
C33A C 1.0884(5) 0.4110(3) -0.0217(2)
H20A H 1.1488 0.3500 -0.0363
C34A C 0.9499(5) 0.5171(2) 0.0848(2)
H21A H 0.9156 0.5287 0.1428
N7A N 1.2389(4) 0.2364(2) 0.19863(18)
N8A N 1.0817(4) 0.3550(2) 0.12788(18)
C1A C 0.1524(4) 0.1363(2) 0.8890(2)
C2A C 0.1099(5) 0.1108(2) 0.9824(2)
C3A C -0.0603(4) 0.1261(2) 1.0186(2)
H1A H -0.1537 0.1543 0.9850
C4A C -0.0928(4) 0.0994(2) 1.1053(2)
C5A C -0.2731(4) 0.1115(2) 1.1464(2)
C6A C 0.0447(4) 0.0606(2) 1.1546(2)
H2A H 0.0221 0.0428 1.2132
C7A C 0.2157(4) 0.0477(2) 1.1190(2)
C8A C 0.2476(4) 0.0709(2) 1.0331(2)
H3A H 0.3636 0.0596 1.0082
C9A C -0.5683(5) 0.1498(2) 0.3815(2)
C10A C -0.5598(5) 0.1458(2) 0.4762(2)
C11A C -0.4133(5) 0.1652(2) 0.5120(2)
H4A H -0.3212 0.1860 0.4765
C12A C -0.4021(5) 0.1543(2) 0.6000(2)
C13A C -0.2463(5) 0.1727(2) 0.6410(2)
C14A C -0.5400(4) 0.1272(2) 0.6522(2)
H5A H -0.5322 0.1199 0.7122
C15A C -0.6884(5) 0.1108(2) 0.6170(2)
C16A C -0.6986(5) 0.1186(2) 0.5298(2)
H6A H -0.7993 0.1057 0.5057
H22A H -0.900(4) 0.058(2) 0.652(2)
H23A H -0.797(5) 0.053(2) 0.7129(18)
N1A N 0.3558(4) 0.0175(2) 1.17288(17)
H24A H 0.4463 -0.0125 1.1466
H25A H 0.3206 -0.0090 1.2203
N2A N -0.8350(4) 0.0906(2) 0.67217(18)
Ni1A Ni -0.00592(6) 0.21022(3) 0.72097(3)
Ni2A Ni 0.43860(6) 0.13199(3) 1.22593(3)
O1A O 0.0232(3) 0.17180(17) 0.84617(14)
O2A O 0.3088(3) 0.12211(18) 0.86133(14)
O3A O -0.4003(3) 0.16495(17) 1.11275(15)
O4A O -0.3001(3) 0.06831(17) 1.21815(14)
O5A O -0.4841(3) 0.20393(19) 0.33318(15)
O6A O -0.6563(3) 0.09703(17) 0.34907(14)
O7A O -0.2201(3) 0.13871(16) 0.71693(14)
O8A O -0.1416(3) 0.22396(17) 0.60326(14)
N2_2 N 0.8350(4) 0.9094(2) 0.32783(18)
N2A_2 N 0.1650(4) 0.0906(2) 0.67217(18)
N5A_2 N -0.1666(4) 0.3346(2) 0.76004(18)
N7A_2 N 0.2389(4) 0.2364(2) 1.19863(18)
Ni1_2 Ni 2.00592(6) 0.78978(3) 0.27903(3)
Ni1A_2 Ni -1.00592(6) 0.21022(3) 0.72097(3)
Ni1A_3 Ni 1.99408(6) 0.21022(3) -0.27903(3)
Ni2_2 Ni 1.56140(6) 0.86801(3) -0.22593(3)
Ni2_3 Ni 1.56140(6) 0.86801(3) 0.77407(3)
Ni2A_2 Ni -0.56140(6) 0.13199(3) 0.22593(3)
Ni2A_3 Ni -0.56140(6) 0.13199(3) 1.22593(3)
Ni2A_4 Ni 1.43860(6) 0.13199(3) 0.22593(3)
O3_2 O 0.4003(3) 0.83505(17) -0.11275(15)
O3A_2 O 0.5997(3) 0.16495(17) 1.11275(15)
O4_2 O 0.3001(3) 0.93169(17) -0.21815(14)
O4A_2 O 0.6999(3) 0.06831(17) 1.21815(14)
O5_2 O 0.4841(3) 0.79607(19) -0.33318(15)
O5A_2 O 0.5159(3) 0.20393(19) 1.33318(15)
O6_2 O 0.6563(3) 0.90297(17) -0.34907(14)
O6A_2 O 0.3437(3) 0.09703(17) 1.34907(14)
O9 O 0.5046(4) 0.76940(19) 0.05112(17)
H26 H 0.5803 0.7977 0.0712
H27 H 0.4740 0.7917 0.0015
O10 O 0.9791(4) 0.9609(3) 0.5911(2)
H28 H 0.8744 0.9524 0.6025
H29 H 0.9887 1.0043 0.5519
O11 O 0.3401(6) 0.6391(3) 0.6638(3)
H30 H 0.4263 0.5978 0.6475
H31 H 0.3786 0.6898 0.6717
O12 O 0.0435(7) 0.7112(6) 0.5558(3)
H32 H 0.0683 0.6506 0.5585
H33 H 0.0793 0.7313 0.5066
loop_
_geom_bond_atom_site_label_1
_geom_bond_atom_site_label_2
_geom_bond_site_symmetry_1
_geom_bond_site_symmetry_2
C1 C2 1_555 1_555
C2 C3 1_555 1_555
C3 H1 1_555 1_555
C4 C3 1_555 1_555
C5 C4 1_555 1_555
C6 C4 1_555 1_555
H2 C6 1_555 1_555
C7 C6 1_555 1_555
C8 C2 1_555 1_555
H3 C8 1_555 1_555
C9 C10 1_555 1_555
C10 C11 1_555 1_555
C11 H4 1_555 1_555
C12 C11 1_555 1_555
C13 C12 1_555 1_555
C14 C12 1_555 1_555
H5 C14 1_555 1_555
C15 C14 1_555 1_555
C16 C10 1_555 1_555
H6 C16 1_555 1_555
C17 H7 1_555 1_555
C18 H8 1_555 1_555
C19 C18 1_555 1_555
H9 C19 1_555 1_555
C20 C21 1_555 1_555
C21 H10 1_555 1_555
C22 C20 1_555 1_555
H11 C22 1_555 1_555
C23 H12 1_555 1_555
C24 C23 1_555 1_555
H13 C24 1_555 1_555
C25 H14 1_555 1_555
C26 C27 1_555 1_555
C27 H15 1_555 1_555
C28 C26 1_555 1_555
H16 C28 1_555 1_555
C29 H17 1_555 1_555
C30 C29 1_555 1_555
H18 C30 1_555 1_555
C31 H19 1_555 1_555
C32 C33 1_555 1_555
C33 H20 1_555 1_555
C34 C32 1_555 1_555
H21 C34 1_555 1_555
H22 N2 1_555 1_555
H23 N2 1_555 1_555
N1 C7 1_555 1_555
H24 N1 1_555 1_555
H25 N1 1_555 1_555
N2 C15 1_555 1_555
N3 C17 1_555 1_555
N4 C17 1_555 1_555
N5 C23 1_555 1_555
N6 C24 1_555 1_555
N7 C29 1_555 1_555
N8 C30 1_555 1_555
Ni1 N3 1_555 1_555
Ni2 N1 1_555 1_555
O1 C1 1_555 1_555
O2 C1 1_555 1_555
O3 C5 1_555 1_555
O4 C5 1_555 1_555
O5 C9 1_555 1_555
O6 C9 1_555 1_555
O7 C13 1_555 1_555
O8 C13 1_555 1_555
O9 H26 1_555 1_555
H27 O9 1_555 1_555
O10 H28 1_555 1_555
H29 O10 1_555 1_555
O11 H30 1_555 1_555
H31 O11 1_555 1_555
O12 H32 1_555 1_555
H33 O12 1_555 1_555
C17A H7A 1_555 1_555
C18A H8A 1_555 1_555
C19A C18A 1_555 1_555
H9A C19A 1_555 1_555
C20A C21A 1_555 1_555
C21A C22 1_555 1_555
H10A C21A 1_555 1_555
C22A C21 1_555 1_555
H11A C22A 1_555 1_555
N3A C17A 1_555 1_555
N4A C17A 1_555 1_555
C23A H12A 1_555 1_555
C24A C23A 1_555 1_555
H13A C24A 1_555 1_555
C25A H14A 1_555 1_555
C26A C27A 1_555 1_555
C27A C28 1_555 1_555
H15A C27A 1_555 1_555
C28A C27 1_555 1_555
H16A C28A 1_555 1_555
N5A C23A 1_555 1_555
N6A C24A 1_555 1_555
C29A H17A 1_555 1_555
C30A C29A 1_555 1_555
H18A C30A 1_555 1_555
C31A H19A 1_555 1_555
C32A C33A 1_555 1_555
C33A C34 1_555 1_555
H20A C33A 1_555 1_555
C34A C33 1_555 1_555
H21A C34A 1_555 1_555
N7A C29A 1_555 1_555
N8A C30A 1_555 1_555
C1A C2A 1_555 1_555
C2A C3A 1_555 1_555
C3A H1A 1_555 1_555
C4A C3A 1_555 1_555
C5A C4A 1_555 1_555
C6A C4A 1_555 1_555
H2A C6A 1_555 1_555
C7A C6A 1_555 1_555
C8A C2A 1_555 1_555
H3A C8A 1_555 1_555
C9A C10A 1_555 1_555
C10A C11A 1_555 1_555
C11A H4A 1_555 1_555
C12A C11A 1_555 1_555
C13A C12A 1_555 1_555
C14A C12A 1_555 1_555
H5A C14A 1_555 1_555
C15A C14A 1_555 1_555
C16A C10A 1_555 1_555
H6A C16A 1_555 1_555
H22A N2A 1_555 1_555
H23A N2A 1_555 1_555
N1A C7A 1_555 1_555
H24A N1A 1_555 1_555
H25A N1A 1_555 1_555
N2A C15A 1_555 1_555
Ni1A N3A 1_555 1_555
Ni2A N1A 1_555 1_555
O1A C1A 1_555 1_555
O2A C1A 1_555 1_555
O3A C5A 1_555 1_555
O4A C5A 1_555 1_555
O5A C9A 1_555 1_555
O6A C9A 1_555 1_555
O7A C13A 1_555 1_555
O8A C13A 1_555 1_555
N2_2 Ni1 1_555 1_555
N2A_2 Ni1A 1_555 1_555
N5A_2 Ni1A 1_555 1_555
N7A_2 Ni2A 1_555 1_555
Ni1_2 N2 1_555 1_555
Ni1A_2 N2A 1_555 1_555
Ni1A_3 N5A 1_555 1_555
Ni2_2 O3 1_555 1_555
Ni2_3 O5 1_555 1_555
Ni2A_2 O5A 1_555 1_555
Ni2A_3 O3A 1_555 1_555
Ni2A_4 N7A 1_555 1_555
O3_2 Ni2 1_555 1_555
O3A_2 Ni2A 1_555 1_555
O4_2 Ni2 1_555 1_555
O4A_2 Ni2A 1_555 1_555
O5_2 Ni2 1_555 1_555
O5A_2 Ni2A 1_555 1_555
O6_2 Ni2 1_555 1_555
O6A_2 Ni2A 1_555 1_555
C7 C8 1_555 1_555
C15 C16 1_555 1_555
C18 N3 1_555 1_555
C19 N4 1_555 1_555
C20 N4 1_555 1_555
C25 N5 1_555 1_555
C25 N6 1_555 1_555
C26 N6 1_555 1_555
C31 N7 1_555 1_555
C31 N8 1_555 1_555
C32 N8 1_555 1_555
N5 Ni1 1_555 1_555
N7 Ni2 1_555 1_555
Ni1 O1 1_555 1_555
Ni1 O7 1_555 1_555
Ni1 O8 1_555 1_555
O4 Ni2_2 1_555 1_555
O6 Ni2_3 1_555 1_555
C18A N3A 1_555 1_555
C19A N4A 1_555 1_555
C20A C22A 1_555 1_555
C20A N4A 1_555 1_555
C25A N5A 1_555 1_555
C25A N6A 1_555 1_555
C26A C28A 1_555 1_555
C26A N6A 1_555 1_555
C31A N7A 1_555 1_555
C31A N8A 1_555 1_555
C32A C34A 1_555 1_555
C32A N8A 1_555 1_555
C7A C8A 1_555 1_555
C15A C16A 1_555 1_555
Ni1A O1A 1_555 1_555
Ni1A O7A 1_555 1_555
Ni1A O8A 1_555 1_555
O4A Ni2A_3 1_555 1_555
O6A Ni2A_2 1_555 1_555

#END
