
#######################################################################
#
#                 Cambridge Crystallographic Data Centre
#                                CCDC 
#
#######################################################################
#
# If this CIF has been generated from an entry in the Cambridge 
# Structural Database, then it will include bibliographic, chemical, 
# crystal, experimental, refinement or atomic coordinate data resulting 
# from the CCDC's data processing and validation procedures.
#
#######################################################################

data_NOGWUC
_symmetry_cell_setting           monoclinic
_symmetry_space_group_name_H-M   'C 2/c'
_symmetry_Int_Tables_number      15
_space_group_name_Hall           '-C 2yn'
loop_
_symmetry_equiv_pos_site_id
_symmetry_equiv_pos_as_xyz
1 x,y,z
2 1/2+x,1/2+y,z
3 -x,y,1/2-z
4 1/2-x,1/2+y,1/2-z
5 -x,-y,-z
6 1/2-x,1/2-y,-z
7 x,-y,1/2+z
8 1/2+x,1/2-y,1/2+z
_cell_length_a                   13.002(2)
_cell_length_b                   6.8016(12)
_cell_length_c                   18.261(3)
_cell_angle_alpha                90
_cell_angle_beta                 105.299(3)
_cell_angle_gamma                90
_cell_volume                     1557.67
loop_
_atom_site_label
_atom_site_type_symbol
_atom_site_fract_x
_atom_site_fract_y
_atom_site_fract_z
C1 C -0.00184(17) 0.3093(3) 0.18725(12)
H1 H -0.0033 0.2420 0.1427
C2 C -0.00156(18) 0.5131(3) 0.18738(12)
H2 H -0.0025 0.5804 0.1429
C3 C 0.1710(2) -0.0011(5) 0.04150(17)
Cu1 Cu 0.0000 -0.08854(4) 0.2500
F1 F 0.26550(18) 0.0205(4) 0.02818(13)
F2 F 0.1155(2) -0.1284(4) -0.00651(12)
F3 F 0.1208(2) 0.1686(4) 0.02958(15)
N1 N 0.0000 0.2090(3) 0.2500
N2 N 0.0000 0.6139(3) 0.2500
O1 O -0.14039(12) -0.0920(2) 0.17573(10)
H3 H -0.1741 -0.1956 0.1806
H4 H -0.1786 0.0109 0.1688
O2 O 0.07983(13) -0.0933(2) 0.14545(10)
O3 O 0.2406(2) -0.2642(4) 0.14243(15)
O4 O 0.2480(2) 0.0732(4) 0.18329(15)
S1 S 0.18729(4) -0.08007(8) 0.13921(3)
C1B C 0.00184(17) 0.3093(3) 0.31275(12)
H1B H 0.0033 0.2420 0.3573
C2B C 0.00156(18) 0.5131(3) 0.31262(12)
H2B H 0.0025 0.5804 0.3571
C3B C -0.1710(2) -0.0011(5) 0.45850(17)
Cu1_2 Cu 0.0000 0.91146(4) 0.2500
F1B F -0.26550(18) 0.0205(4) 0.47182(13)
F2B F -0.1155(2) -0.1284(4) 0.50651(12)
F3B F -0.1208(2) 0.1686(4) 0.47042(15)
N2_2 N 0.0000 -0.3861(3) 0.2500
O1B O 0.14039(12) -0.0920(2) 0.32427(10)
H3B H 0.1741 -0.1956 0.3194
H4B H 0.1786 0.0109 0.3312
O2B O -0.07983(13) -0.0933(2) 0.35455(10)
O3B O -0.2406(2) -0.2642(4) 0.35757(15)
O4B O -0.2480(2) 0.0732(4) 0.31671(15)
S1B S -0.18729(4) -0.08007(8) 0.36079(3)
loop_
_geom_bond_atom_site_label_1
_geom_bond_atom_site_label_2
_geom_bond_site_symmetry_1
_geom_bond_site_symmetry_2
C1 H1 1_555 1_555
C2 C1 1_555 1_555
H2 C2 1_555 1_555
C3 F1 1_555 1_555
Cu1 N1 1_555 1_555
F2 C3 1_555 1_555
F3 C3 1_555 1_555
N1 C1 1_555 1_555
N2 C2 1_555 1_555
O1 Cu1 1_555 1_555
H3 O1 1_555 1_555
H4 O1 1_555 1_555
O2 Cu1 1_555 1_555
O3 S1 1_555 1_555
O4 S1 1_555 1_555
S1 C3 1_555 1_555
C1B N1 1_555 1_555
H1B C1B 1_555 1_555
C2B N2 1_555 1_555
H2B C2B 1_555 1_555
C3B F1B 1_555 1_555
Cu1_2 N2 1_555 1_555
F2B C3B 1_555 1_555
F3B C3B 1_555 1_555
N2_2 Cu1 1_555 1_555
O1B Cu1 1_555 1_555
H3B O1B 1_555 1_555
H4B O1B 1_555 1_555
O2B Cu1 1_555 1_555
O3B S1B 1_555 1_555
O4B S1B 1_555 1_555
S1B C3B 1_555 1_555
O2 S1 1_555 1_555
C1B C2B 1_555 1_555
O2B S1B 1_555 1_555

#END
