
#######################################################################
#
#                 Cambridge Crystallographic Data Centre
#                                CCDC 
#
#######################################################################
#
# If this CIF has been generated from an entry in the Cambridge 
# Structural Database, then it will include bibliographic, chemical, 
# crystal, experimental, refinement or atomic coordinate data resulting 
# from the CCDC's data processing and validation procedures.
#
#######################################################################

data_NOGXAI
_symmetry_cell_setting           monoclinic
_symmetry_space_group_name_H-M   'P 21/n'
_symmetry_Int_Tables_number      14
_space_group_name_Hall           '-P 2yn'
loop_
_symmetry_equiv_pos_site_id
_symmetry_equiv_pos_as_xyz
1 x,y,z
2 1/2+x,1/2-y,1/2+z
3 -x,-y,-z
4 1/2-x,1/2+y,1/2-z
_cell_length_a                   13.4104(2)
_cell_length_b                   17.6422(4)
_cell_length_c                   14.0054(2)
_cell_angle_alpha                90
_cell_angle_beta                 106.8970(13)
_cell_angle_gamma                90
_cell_volume                     3170.47
loop_
_atom_site_label
_atom_site_type_symbol
_atom_site_fract_x
_atom_site_fract_y
_atom_site_fract_z
Cd1 Cd 0.037663(13) 0.236379(11) 0.236760(12)
O1 O 0.00126(14) 0.05021(11) 0.71452(12)
O2 O -0.43682(13) -0.01724(10) 0.25849(12)
O3 O 0.08442(14) 0.16500(11) 0.11035(15)
O4 O 0.19560(16) 0.11014(11) 0.23489(13)
O5 O 0.20496(14) 0.09362(11) 0.08503(13)
O9 O -0.04570(17) 0.33549(11) 0.30329(15)
H1 H -0.081(2) 0.3359(18) 0.3477(19)
H2 H -0.045(3) 0.3837(12) 0.286(3)
N1 N 0.16253(16) 0.12269(12) 0.14322(15)
N3 N 0.06726(16) 0.17891(12) 0.39182(14)
N4 N 0.16631(16) 0.09398(13) 0.75811(14)
H5 H 0.2138 0.1230 0.7980
N5 N 0.06827(16) 0.09941(13) 0.86880(14)
H6 H 0.1163 0.1279 0.9092
N6 N -0.30273(16) 0.20200(12) 0.79227(15)
N7 N -0.12022(16) 0.16946(13) 0.18992(14)
N8 N -0.49148(16) 0.06975(14) 0.13519(15)
H7 H -0.5367 0.1057 0.1089
N9 N -0.57442(16) 0.05841(13) 0.25596(14)
H8 H -0.6174 0.0938 0.2237
N10 N -0.50719(15) 0.18340(12) 0.59616(14)
C1 C 0.0955(2) 0.21615(16) 0.47890(18)
H9 H 0.0924 0.2700 0.4774
C2 C 0.12890(19) 0.18101(16) 0.57038(18)
H10 H 0.1471 0.2100 0.6301
C3 C 0.13551(17) 0.10259(15) 0.57404(17)
C4 C 0.10326(18) 0.06320(15) 0.48457(17)
H11 H 0.1042 0.0094 0.4841
C5 C 0.06980(19) 0.10317(14) 0.39638(18)
H12 H 0.0474 0.0755 0.3357
C6 C 0.1840(2) 0.05997(17) 0.67027(17)
H13 H 0.1558 0.0077 0.6631
H14 H 0.2601 0.0563 0.6806
C7 C 0.07492(19) 0.07986(14) 0.77701(17)
C8 C -0.0197(2) 0.07210(16) 0.89793(18)
H15 H -0.0011 0.0717 0.9717
H16 H -0.0339 0.0191 0.8748
C9 C -0.11853(19) 0.11804(15) 0.85772(17)
C10 C -0.1166(2) 0.19633(16) 0.8537(2)
H17 H -0.0522 0.2228 0.8733
C11 C -0.2088(2) 0.23544(16) 0.8211(2)
H18 H -0.2060 0.2892 0.8189
C12 C -0.3036(2) 0.12601(15) 0.79608(18)
H19 H -0.3689 0.1006 0.7756
C13 C -0.21449(19) 0.08325(15) 0.82822(17)
H20 H -0.2191 0.0296 0.8301
C14 C -0.1450(2) 0.12524(19) 0.1080(2)
H21 H -0.0966 0.1209 0.0705
C15 C -0.2369(2) 0.08630(19) 0.0765(2)
H22 H -0.2503 0.0551 0.0189
C16 C -0.31023(19) 0.09186(15) 0.12759(17)
C17 C -0.2845(2) 0.13672(16) 0.21278(19)
H23 H -0.3317 0.1420 0.2514
C18 C -0.1894(2) 0.17358(15) 0.24080(19)
H24 H -0.1727 0.2035 0.2997
C19 C -0.4127(2) 0.05048(18) 0.08843(18)
H25 H -0.4405 0.0608 0.0160
H26 H -0.3991 -0.0047 0.0966
C20 C -0.49785(19) 0.03386(15) 0.21890(17)
C21 C -0.5877(2) 0.02782(16) 0.34817(17)
H27 H -0.5435 -0.0178 0.3675
H28 H -0.6611 0.0122 0.3363
C22 C -0.55911(19) 0.08449(14) 0.43328(17)
C23 C -0.46204(19) 0.11887(15) 0.46395(17)
H29 H -0.4119 0.1090 0.4296
C24 C -0.43849(19) 0.16767(15) 0.54498(18)
H30 H -0.3717 0.1909 0.5652
C25 C -0.60093(19) 0.15017(15) 0.56567(17)
H31 H -0.6502 0.1611 0.6006
C26 C -0.62929(19) 0.10090(16) 0.48605(17)
H32 H -0.6965 0.0783 0.4674
N6A N 0.19727(16) 0.29800(12) 0.29227(15)
N10A N -0.00719(15) 0.31660(12) 0.09616(14)
Cd1A Cd -0.462337(13) 0.263621(11) 0.736760(12)
O6 O 0.2558(3) 0.24249(17) 0.9462(2)
O7 O 0.37558(19) 0.21086(14) 1.07929(16)
O8 O 0.35269(18) 0.14552(13) 0.94438(16)
N2 N 0.3276(2) 0.20128(15) 0.99082(18)
O10 O -0.19168(19) 0.10801(17) 0.5768(2)
H3 H -0.1292(19) 0.102(2) 0.621(2)
H4 H -0.183(4) 0.149(2) 0.542(4)
loop_
_geom_bond_atom_site_label_1
_geom_bond_atom_site_label_2
_geom_bond_site_symmetry_1
_geom_bond_site_symmetry_2
Cd1 O3 1_555 1_555
O1 C7 1_555 1_555
O2 C20 1_555 1_555
O3 N1 1_555 1_555
O4 N1 1_555 1_555
O5 N1 1_555 1_555
O6 N2 1_555 1_555
O7 N2 1_555 1_555
O8 N2 1_555 1_555
O9 Cd1 1_555 1_555
H1 O9 1_555 1_555
H2 O9 1_555 1_555
O10 H3 1_555 1_555
H4 O10 1_555 1_555
N3 Cd1 1_555 1_555
N4 H5 1_555 1_555
N5 H6 1_555 1_555
N6 C11 1_555 1_555
N7 Cd1 1_555 1_555
N8 H7 1_555 1_555
N9 H8 1_555 1_555
N10 C24 1_555 1_555
C1 N3 1_555 1_555
H9 C1 1_555 1_555
C2 C1 1_555 1_555
H10 C2 1_555 1_555
C3 C2 1_555 1_555
C4 C3 1_555 1_555
H11 C4 1_555 1_555
C5 N3 1_555 1_555
H12 C5 1_555 1_555
C6 N4 1_555 1_555
H13 C6 1_555 1_555
H14 C6 1_555 1_555
C7 N4 1_555 1_555
C8 N5 1_555 1_555
H15 C8 1_555 1_555
H16 C8 1_555 1_555
C9 C8 1_555 1_555
C10 C9 1_555 1_555
H17 C10 1_555 1_555
C11 C10 1_555 1_555
H18 C11 1_555 1_555
C12 N6 1_555 1_555
H19 C12 1_555 1_555
C13 C9 1_555 1_555
H20 C13 1_555 1_555
C14 N7 1_555 1_555
H21 C14 1_555 1_555
C15 C14 1_555 1_555
H22 C15 1_555 1_555
C16 C15 1_555 1_555
C17 C16 1_555 1_555
H23 C17 1_555 1_555
C18 N7 1_555 1_555
H24 C18 1_555 1_555
C19 N8 1_555 1_555
H25 C19 1_555 1_555
H26 C19 1_555 1_555
C20 N8 1_555 1_555
C21 N9 1_555 1_555
H27 C21 1_555 1_555
H28 C21 1_555 1_555
C22 C21 1_555 1_555
C23 C22 1_555 1_555
H29 C23 1_555 1_555
C24 C23 1_555 1_555
H30 C24 1_555 1_555
C25 N10 1_555 1_555
H31 C25 1_555 1_555
C26 C22 1_555 1_555
H32 C26 1_555 1_555
N6A Cd1 1_555 1_555
N10A Cd1 1_555 1_555
Cd1A N6 1_555 1_555
N5 C7 1_555 1_555
N9 C20 1_555 1_555
N10 Cd1A 1_555 1_555
C3 C6 1_555 1_555
C4 C5 1_555 1_555
C12 C13 1_555 1_555
C16 C19 1_555 1_555
C17 C18 1_555 1_555
C25 C26 1_555 1_555

#END
