
#######################################################################
#
#                 Cambridge Crystallographic Data Centre
#                                CCDC 
#
#######################################################################
#
# If this CIF has been generated from an entry in the Cambridge 
# Structural Database, then it will include bibliographic, chemical, 
# crystal, experimental, refinement or atomic coordinate data resulting 
# from the CCDC's data processing and validation procedures.
#
#######################################################################

data_NOGYIS
_symmetry_cell_setting           monoclinic
_symmetry_space_group_name_H-M   'P c'
_symmetry_Int_Tables_number      7
_space_group_name_Hall           'P -2yc'
loop_
_symmetry_equiv_pos_site_id
_symmetry_equiv_pos_as_xyz
1 x,y,z
2 x,-y,1/2+z
_cell_length_a                   20.7930(13)
_cell_length_b                   9.4019(6)
_cell_length_c                   25.0609(16)
_cell_angle_alpha                90
_cell_angle_beta                 143.208(2)
_cell_angle_gamma                90
_cell_volume                     2934.22
loop_
_atom_site_label
_atom_site_type_symbol
_atom_site_fract_x
_atom_site_fract_y
_atom_site_fract_z
Ag1 Ag 0.20263(4) 0.10203(6) 1.06590(3)
Ag2 Ag 0.24673(5) 0.56395(7) 0.99234(5)
Ag3 Ag 0.27823(5) 0.03307(7) 0.91904(4)
C1 C 0.4037(6) -0.1046(8) 1.1969(5)
C2 C 0.3575(5) -0.1282(6) 1.1115(5)
C3 C 0.5261(6) -0.1167(8) 1.1699(5)
H1 H 0.5516 -0.0446 1.2089
C4 C 0.4705(7) -0.0649(11) 1.3435(5)
H2 H 0.4918 -0.0528 1.3929
C5 C 0.4946(6) -0.1756(8) 1.2748(5)
H3 H 0.5334 -0.2348 1.2780
C6 C 0.4264(5) -0.1830(8) 1.1139(5)
C7 C 0.5249(7) -0.1549(11) 1.3470(5)
H4 H 0.5841 -0.2037 1.3996
C8 C 0.5854(6) -0.1628(9) 1.1652(5)
H5 H 0.6503 -0.1193 1.1998
N1 N 0.3507(5) -0.0130(7) 1.1942(4)
N2 N 0.2176(4) -0.1033(5) 0.9607(3)
N3 N 0.1248(5) -0.0852(6) 0.8025(4)
N4 N 0.2573(5) -0.0970(6) 1.0379(4)
C9 C 0.0645(5) -0.2160(8) 0.9016(4)
C10 C 0.1194(6) -0.1496(7) 0.8912(4)
C11 C 0.0705(6) -0.1451(7) 0.8065(5)
C12 C -0.0727(7) -0.2087(11) 0.8772(6)
H6 H -0.1327 -0.1675 0.8530
C13 C -0.0295(6) -0.1557(9) 0.8614(5)
H7 H -0.0616 -0.0781 0.8235
C14 C -0.0240(8) -0.3278(11) 0.9311(6)
H8 H -0.0519 -0.3674 0.9436
C15 C 0.1135(6) 0.2764(7) 0.9057(5)
C16 C -0.1511(6) 0.3377(9) 0.7970(5)
H9 H -0.2161 0.3841 0.7482
C17 C -0.0725(6) 0.3441(8) 0.8118(5)
H10 H -0.0823 0.3964 0.7742
C18 C 0.0258(6) 0.2689(7) 0.8863(5)
C19 C -0.0363(6) 0.1912(8) 0.9266(5)
H11 H -0.0256 0.1380 0.9645
C20 C -0.1341(7) 0.2617(9) 0.8549(6)
H12 H -0.1867 0.2577 0.8463
C21 C 0.0922(5) 0.3297(7) 0.8365(5)
C22 C 0.1332(6) 0.5004(8) 0.8011(5)
H13 H 0.1707 0.5815 0.8157
C23 C 0.0253(6) 0.2648(8) 0.7576(5)
H14 H -0.0121 0.1841 0.7436
C24 C 0.0636(7) 0.4356(9) 0.7163(5)
H15 H 0.0545 0.4726 0.6761
C25 C 0.0116(6) 0.3152(9) 0.6985(5)
H16 H -0.0340 0.2675 0.6449
C26 C 0.3812(6) 0.2536(7) 1.0711(5)
C27 C 0.4106(6) 0.3207(8) 1.1435(5)
C28 C 0.4952(5) 0.2629(9) 1.2285(5)
H17 H 0.5348 0.1876 1.2408
C29 C 0.4580(6) 0.4333(9) 1.2700(6)
H18 H 0.4716 0.4746 1.3121
C30 C 0.5199(6) 0.3177(10) 1.2940(5)
H19 H 0.5747 0.2801 1.3514
C31 C 0.3787(6) 0.4855(9) 1.1863(5)
H20 H 0.3390 0.5620 1.1726
C32 C 0.4628(6) 0.2310(7) 1.0842(5)
C33 C 0.5588(6) 0.3056(9) 1.1485(5)
H21 H 0.5738 0.3696 1.1858
C34 C 0.5133(8) 0.1146(10) 1.0406(7)
H22 H 0.5006 0.0452 1.0065
N5 N 0.1482(4) 0.4521(6) 0.8612(4)
N6 N 0.2043(4) 0.2317(5) 0.9811(4)
N7 N 0.0422(5) 0.1969(6) 0.9428(4)
N8 N 0.3545(5) 0.4344(6) 1.1233(4)
N9 N 0.4393(5) 0.1361(7) 1.0293(5)
N10 N 0.2819(5) 0.2233(6) 0.9921(4)
C35 C 0.4484(7) -0.3350(9) 1.0578(6)
H23 H 0.4234 -0.4106 1.0207
C36 C 0.6064(7) 0.1905(10) 1.1000(7)
H24 H 0.6519 0.1780 1.1012
C37 C 0.6340(6) 0.2824(10) 1.1565(6)
H25 H 0.6996 0.3295 1.1994
C38 C 0.5473(7) -0.2727(10) 1.1090(6)
H26 H 0.5855 -0.3049 1.1049
C39 C 0.0658(7) -0.3897(9) 0.9672(5)
H27 H 0.0955 -0.4716 1.0016
C40 C 0.0816(8) -0.0839(9) 0.7243(6)
H28 H 0.1200 -0.0420 0.7222
C41 C -0.0763(8) -0.2069(10) 0.6493(6)
H29 H -0.1439 -0.2452 0.5978
C42 C -0.0156(8) -0.1414(10) 0.6490(6)
H30 H -0.0427 -0.1376 0.5965
C43 C 0.3854(6) 0.0066(9) 1.2677(5)
H31 H 0.3497 0.0710 1.2659
N11 N 0.1104(5) -0.3316(6) 0.9526(4)
N12 N 0.3889(5) -0.2930(6) 1.0590(4)
C44 C -0.0311(6) -0.2111(9) 0.7282(5)
H32 H -0.0667 -0.2581 0.7320
Ag2_2 Ag 0.24673(5) -0.43605(7) 0.99234(5)
N11_2 N 0.1104(5) 0.6684(6) 0.9526(4)
N12_2 N 0.3889(5) 0.7070(6) 1.0590(4)
Cl1 Cl 0.78375(18) 0.0663(3) 0.41794(15)
O1 O 0.7368(5) 0.1084(10) 0.3392(4)
O2 O 0.7076(8) 0.0468(13) 0.4043(7)
O3 O 0.8240(10) -0.0609(13) 0.4345(7)
O4 O 0.8653(10) 0.1307(13) 0.4869(6)
Cl2 Cl 0.1535(2) 0.3185(4) 0.15177(18)
O5 O 0.0507(5) 0.3828(8) 0.0799(5)
O6 O 0.1435(6) 0.1663(8) 0.1365(5)
O7 O 0.1925(7) 0.3343(10) 0.2290(5)
O8 O 0.2198(7) 0.3532(12) 0.1544(6)
Cl3 Cl 0.7146(2) 0.5323(3) 0.56891(19)
O9 O 0.8121(7) 0.4832(10) 0.6157(7)
O10 O 0.6883(9) 0.4858(13) 0.5972(7)
O11 O 0.6873(12) 0.6606(14) 0.5416(11)
O12 O 0.6554(10) 0.4944(15) 0.4888(8)
loop_
_geom_bond_atom_site_label_1
_geom_bond_atom_site_label_2
_geom_bond_site_symmetry_1
_geom_bond_site_symmetry_2
Ag1 N1 1_555 1_555
Ag2 N5 1_555 1_555
Ag3 N2 1_555 1_555
C1 C2 1_555 1_555
C2 C6 1_555 1_555
C3 H1 1_555 1_555
C4 H2 1_555 1_555
C5 C1 1_555 1_555
H3 C5 1_555 1_555
C6 C3 1_555 1_555
C7 C4 1_555 1_555
H4 C7 1_555 1_555
C8 C3 1_555 1_555
H5 C8 1_555 1_555
N1 C1 1_555 1_555
N2 N4 1_555 1_555
N3 Ag3 1_555 1_555
N4 Ag1 1_555 1_555
C9 C10 1_555 1_555
C10 N2 1_555 1_555
C11 N3 1_555 1_555
C12 H6 1_555 1_555
C13 C9 1_555 1_555
H7 C13 1_555 1_555
C14 C12 1_555 1_555
H8 C14 1_555 1_555
C15 C18 1_555 1_555
C16 H9 1_555 1_555
C17 C16 1_555 1_555
H10 C17 1_555 1_555
C18 C17 1_555 1_555
C19 H11 1_555 1_555
C20 C16 1_555 1_555
H12 C20 1_555 1_555
C21 C15 1_555 1_555
C22 H13 1_555 1_555
C23 C21 1_555 1_555
H14 C23 1_555 1_555
C24 C22 1_555 1_555
H15 C24 1_555 1_555
C25 C23 1_555 1_555
H16 C25 1_555 1_555
C26 C27 1_555 1_555
C27 C28 1_555 1_555
C28 H17 1_555 1_555
C29 H18 1_555 1_555
C30 C28 1_555 1_555
H19 C30 1_555 1_555
C31 C29 1_555 1_555
H20 C31 1_555 1_555
C32 C26 1_555 1_555
C33 C32 1_555 1_555
H21 C33 1_555 1_555
C34 H22 1_555 1_555
N5 C21 1_555 1_555
N6 Ag1 1_555 1_555
N7 Ag1 1_555 1_555
N8 Ag2 1_555 1_555
N9 Ag3 1_555 1_555
N10 Ag3 1_555 1_555
C35 H23 1_555 1_555
C36 C34 1_555 1_555
H24 C36 1_555 1_555
C37 C33 1_555 1_555
H25 C37 1_555 1_555
C38 C8 1_555 1_555
H26 C38 1_555 1_555
C39 C14 1_555 1_555
H27 C39 1_555 1_555
C40 N3 1_555 1_555
H28 C40 1_555 1_555
C41 H29 1_555 1_555
C42 C40 1_555 1_555
H30 C42 1_555 1_555
C43 C4 1_555 1_555
H31 C43 1_555 1_555
N11 C9 1_555 1_555
N12 C6 1_555 1_555
Cl1 O1 1_555 1_555
O2 Cl1 1_555 1_555
O3 Cl1 1_555 1_555
O4 Cl1 1_555 1_555
C44 C11 1_555 1_555
H32 C44 1_555 1_555
Cl2 O5 1_555 1_555
O6 Cl2 1_555 1_555
O7 Cl2 1_555 1_555
O8 Cl2 1_555 1_555
Cl3 O9 1_555 1_555
O10 Cl3 1_555 1_555
O11 Cl3 1_555 1_555
O12 Cl3 1_555 1_555
Ag2_2 N11 1_555 1_555
N11_2 Ag2 1_555 1_555
N12_2 Ag2 1_555 1_555
C2 N4 1_555 1_555
C5 C7 1_555 1_555
N1 C43 1_555 1_555
C10 C11 1_555 1_555
C12 C13 1_555 1_555
C15 N6 1_555 1_555
C18 N7 1_555 1_555
C19 C20 1_555 1_555
C19 N7 1_555 1_555
C22 N5 1_555 1_555
C24 C25 1_555 1_555
C26 N10 1_555 1_555
C27 N8 1_555 1_555
C29 C30 1_555 1_555
C31 N8 1_555 1_555
C32 N9 1_555 1_555
C34 N9 1_555 1_555
N6 N10 1_555 1_555
C35 C38 1_555 1_555
C35 N12 1_555 1_555
C36 C37 1_555 1_555
C39 N11 1_555 1_555
C41 C42 1_555 1_555
C41 C44 1_555 1_555
N12 Ag2_2 1_555 1_555

#END
