
#######################################################################
#
#                 Cambridge Crystallographic Data Centre
#                                CCDC 
#
#######################################################################
#
# If this CIF has been generated from an entry in the Cambridge 
# Structural Database, then it will include bibliographic, chemical, 
# crystal, experimental, refinement or atomic coordinate data resulting 
# from the CCDC's data processing and validation procedures.
#
#######################################################################

data_NOHBOD
_symmetry_cell_setting           trigonal
_symmetry_space_group_name_H-M   'P 32'
_symmetry_Int_Tables_number      145
_space_group_name_Hall           'P 32'
loop_
_symmetry_equiv_pos_site_id
_symmetry_equiv_pos_as_xyz
1 x,y,z
2 -y,x-y,2/3+z
3 -x+y,-x,1/3+z
_cell_length_a                   11.473(3)
_cell_length_b                   11.473(3)
_cell_length_c                   19.268(5)
_cell_angle_alpha                90
_cell_angle_beta                 90
_cell_angle_gamma                120
_cell_volume                     2196.45
loop_
_atom_site_label
_atom_site_type_symbol
_atom_site_fract_x
_atom_site_fract_y
_atom_site_fract_z
Co1 Co 0.83059(10) 0.99832(12) 0.50052(7)
C1 C 1.0723(9) 0.9746(11) 0.4544(6)
C2 C 1.2043(8) 0.9741(8) 0.4742(5)
C3 C 1.2531(11) 1.0291(10) 0.5392(6)
H1 H 1.2040 1.0508 0.5696
C4 C 1.3882(14) 1.0510(11) 0.5570(6)
H2 H 1.4341 1.0967 0.5968
C5 C 1.4426(8) 0.9970(10) 0.5088(7)
C6 C 1.5776(11) 1.0117(11) 0.5362(7)
C7 C 1.3811(10) 0.9421(10) 0.4518(6)
H3 H 1.4185 0.9047 0.4228
C8 C 1.2698(12) 0.9361(11) 0.4328(7)
H4 H 1.2356 0.9041 0.3887
C9 C -0.6090(10) 0.0979(9) 0.8345(5)
H5 H -0.5629 0.1626 0.8684
C10 C -0.7638(12) -0.0393(10) 0.7647(7)
H6 H -0.8443 -0.0851 0.7404
C11 C -0.6601(13) -0.0645(11) 0.7618(7)
H7 H -0.6568 -0.1309 0.7356
C12 C -0.4273(11) 0.0418(12) 0.8161(7)
H8 H -0.4359 -0.0467 0.8169
H9 H -0.3951 0.0823 0.8613
C13 C -0.3257(10) 0.1248(11) 0.7634(6)
H10 H -0.2393 0.1335 0.7746
H11 H -0.3531 0.0843 0.7178
C14 C -0.2119(9) 0.3588(10) 0.7305(6)
C15 C -0.2091(10) 0.4818(9) 0.7329(6)
H12 H -0.2775 0.4868 0.7561
C16 C -0.1108(9) 0.5931(11) 0.7026(5)
H13 H -0.1133 0.6729 0.7033
C17 C -0.0013(11) 0.5877(10) 0.6689(6)
C18 C -0.0034(9) 0.4639(8) 0.6688(5)
C19 C -0.1064(9) 0.3517(9) 0.7006(5)
H14 H -0.1046 0.2716 0.7019
C20 C 0.1094(9) 0.4589(10) 0.6384(5)
H15 H 0.1147 0.3808 0.6414
C21 C 0.2061(9) 0.5678(10) 0.6059(5)
C22 C 0.2115(12) 0.6914(11) 0.6089(6)
H16 H 0.2863 0.7675 0.5913
C23 C 0.1080(10) 0.7031(10) 0.6377(6)
H17 H 0.1094 0.7848 0.6367
C24 C 0.3234(11) 0.4530(13) 0.5783(7)
H18 H 0.2374 0.3723 0.5704
H19 H 0.3546 0.4483 0.6245
C25 C 0.4254(12) 0.4651(12) 0.5240(7)
H20 H 0.4359 0.3864 0.5266
H21 H 0.3915 0.4672 0.4782
C26 C 0.6584(10) 0.5958(11) 0.5763(7)
H22 H 0.6583 0.5290 0.6037
C27 C 0.5995(9) 0.7059(9) 0.5066(5)
H23 H 0.5475 0.7270 0.4779
C28 C 0.7577(11) 0.7246(13) 0.5687(7)
H24 H 0.8399 0.7614 0.5916
N1 N 0.7250(7) 0.7934(8) 0.5246(4)
N2 N 0.5568(8) 0.5861(9) 0.5337(5)
N3 N -0.5619(8) 0.0258(8) 0.8046(5)
N4 N -0.7281(7) 0.0676(7) 0.8107(4)
O1 O 0.3102(7) 0.5696(7) 0.5718(4)
O2 O 0.8430(6) 1.0461(7) 0.6095(4)
O3 O -0.3169(7) 0.2562(7) 0.7649(4)
O4 O 0.8015(6) 0.9494(7) 0.3915(4)
O5 O 1.0119(6) 0.9980(7) 0.5016(4)
O6 O 1.0380(9) 0.9575(12) 0.3915(5)
O7 O 1.6036(10) 1.0272(15) 0.5983(5)
O8 O 1.6482(6) 1.0015(7) 0.4930(4)
Co1_2 Co 1.83059(10) 0.99832(12) 0.50052(7)
Co1B Co -0.83227(16) 0.16941(10) 0.83385(7)
N4A N 0.9324(7) 1.2043(10) 0.4774(4)
O8_2 O 0.6482(6) 1.0015(7) 0.4930(4)
O9 O 0.7005(9) 0.1319(11) 0.3566(5)
loop_
_geom_bond_atom_site_label_1
_geom_bond_atom_site_label_2
_geom_bond_site_symmetry_1
_geom_bond_site_symmetry_2
Co1 N1 1_555 1_555
C1 C2 1_555 1_555
C2 C3 1_555 1_555
C3 H1 1_555 1_555
C4 C3 1_555 1_555
H2 C4 1_555 1_555
C5 C4 1_555 1_555
C6 C5 1_555 1_555
C7 C5 1_555 1_555
H3 C7 1_555 1_555
C8 C2 1_555 1_555
H4 C8 1_555 1_555
C9 H5 1_555 1_555
C10 H6 1_555 1_555
C11 C10 1_555 1_555
H7 C11 1_555 1_555
C12 H8 1_555 1_555
H9 C12 1_555 1_555
C13 C12 1_555 1_555
H10 C13 1_555 1_555
H11 C13 1_555 1_555
C14 C15 1_555 1_555
C15 H12 1_555 1_555
C16 C15 1_555 1_555
H13 C16 1_555 1_555
C17 C16 1_555 1_555
C18 C17 1_555 1_555
C19 C14 1_555 1_555
H14 C19 1_555 1_555
C20 C18 1_555 1_555
H15 C20 1_555 1_555
C21 C20 1_555 1_555
C22 C21 1_555 1_555
H16 C22 1_555 1_555
C23 C17 1_555 1_555
H17 C23 1_555 1_555
C24 H18 1_555 1_555
H19 C24 1_555 1_555
C25 C24 1_555 1_555
H20 C25 1_555 1_555
H21 C25 1_555 1_555
C26 H22 1_555 1_555
C27 H23 1_555 1_555
C28 C26 1_555 1_555
H24 C28 1_555 1_555
N1 C27 1_555 1_555
N2 C25 1_555 1_555
N3 C9 1_555 1_555
N4 C9 1_555 1_555
O1 C21 1_555 1_555
O2 Co1 1_555 1_555
O3 C13 1_555 1_555
O4 Co1 1_555 1_555
O5 Co1 1_555 1_555
O6 C1 1_555 1_555
O7 C6 1_555 1_555
O8 C6 1_555 1_555
Co1_2 O8 1_555 1_555
Co1B N4 1_555 1_555
N4A Co1 1_555 1_555
O8_2 Co1 1_555 1_555
C1 O5 1_555 1_555
C7 C8 1_555 1_555
C10 N4 1_555 1_555
C11 N3 1_555 1_555
C12 N3 1_555 1_555
C14 O3 1_555 1_555
C18 C19 1_555 1_555
C22 C23 1_555 1_555
C24 O1 1_555 1_555
C26 N2 1_555 1_555
C27 N2 1_555 1_555
C28 N1 1_555 1_555

#END
