
#######################################################################
#
#                 Cambridge Crystallographic Data Centre
#                                CCDC 
#
#######################################################################
#
# If this CIF has been generated from an entry in the Cambridge 
# Structural Database, then it will include bibliographic, chemical, 
# crystal, experimental, refinement or atomic coordinate data resulting 
# from the CCDC's data processing and validation procedures.
#
#######################################################################

data_NOHDIY
_symmetry_cell_setting           monoclinic
_symmetry_space_group_name_H-M   'P 21/a'
_symmetry_Int_Tables_number      14
_space_group_name_Hall           '-P 2yab'
loop_
_symmetry_equiv_pos_site_id
_symmetry_equiv_pos_as_xyz
1 x,y,z
2 1/2-x,1/2+y,-z
3 -x,-y,-z
4 1/2+x,1/2-y,z
_cell_length_a                   17.4249(2)
_cell_length_b                   10.91480(10)
_cell_length_c                   20.7216(2)
_cell_angle_alpha                90.00
_cell_angle_beta                 113.17
_cell_angle_gamma                90.00
_cell_volume                     3623.15
loop_
_atom_site_label
_atom_site_type_symbol
_atom_site_fract_x
_atom_site_fract_y
_atom_site_fract_z
Gd1 Gd 1.187765(8) -1.539381(11) 1.015391(8)
O1 O 1.07884(16) -1.6379(2) 1.04917(17)
O2 O 1.18875(14) -1.74692(18) 1.06076(15)
O8 O 1.19524(16) -1.4158(2) 0.92333(14)
O9 O 1.14512(19) -1.6858(2) 0.91817(15)
O10 O 0.81925(15) -1.87140(19) 1.02178(15)
O12 O 1.04418(18) -1.4839(3) 0.92913(18)
O13 O 0.82834(14) -2.06315(19) 1.05564(14)
O16 O 1.16164(18) -1.3370(2) 1.05190(15)
O18 O 1.2445(2) -1.5368(2) 1.14280(17)
C2 C 0.99368(18) -1.8534(3) 1.06207(18)
H2 H 0.9617 -1.7836 1.0445
C3 C 0.86283(19) -1.9661(2) 1.04721(17)
C6 C 1.0900(2) -2.0606(3) 1.1181(2)
H4 H 1.1223 -2.1292 1.1381
C7 C 1.08027(18) -1.8491(2) 1.08113(17)
C11 C 1.00439(19) -2.0654(3) 1.09603(18)
H6 H 0.9790 -2.1389 1.0990
C13 C 1.1282(2) -1.9520(3) 1.1104(2)
H8 H 1.1859 -1.9487 1.1250
C18 C 0.9552(2) -1.9616(2) 1.06922(18)
C24 C 1.11783(19) -1.7384(2) 1.06367(18)
Gd1C Gd 0.687765(8) -1.960619(11) 1.015391(8)
O10C O 1.31925(15) -1.62860(19) 1.02178(15)
O13C O 1.32834(14) -1.43685(19) 1.05564(14)
Gd2 Gd 1.311244(8) -1.037015(11) 1.480130(8)
O3 O 1.30459(14) -1.24672(18) 1.42948(15)
O4 O 1.30323(16) -0.9266(2) 1.57833(14)
O5 O 1.41781(15) -1.1421(2) 1.44735(17)
O6 O 1.45155(17) -0.9768(2) 1.56296(19)
O7 O 1.35723(18) -1.1850(2) 1.57423(15)
O11 O 1.67043(14) -1.56624(18) 1.44423(13)
O14 O 1.67878(14) -1.37261(19) 1.47282(15)
O15 O 1.26113(18) -1.0142(2) 1.35664(15)
O17 O 1.33235(17) -0.8255(2) 1.45099(15)
O19 O 1.0886(2) -1.3855(3) 1.2720(2)
O21 O 1.20821(18) -0.8338(2) 1.30842(16)
C1 C 1.50390(18) -1.3570(3) 1.43609(18)
H1 H 1.5358 -1.2874 1.4547
O22 O 0.94918(19) -1.3691(2) 1.22513(19)
C4 C 1.4082(2) -1.5631(3) 1.3777(2)
H3 H 1.3761 -1.6316 1.3573
C5 C 1.63496(19) -1.4679(2) 1.45022(17)
C8 C 1.1083(2) -1.1315(3) 1.28681(18)
H5 H 1.1560 -1.1798 1.3055
C9 C 1.54244(19) -1.4645(2) 1.42845(17)
C10 C 1.41779(18) -1.3531(3) 1.41607(18)
C12 C 0.9579(2) -1.1124(3) 1.2343(2)
H7 H 0.9054 -1.1486 1.2181
C14 C 1.0222(3) -1.3239(3) 1.2516(2)
C15 C 1.0299(2) -1.1860(3) 1.25870(19)
C16 C 1.37790(18) -1.2410(2) 1.43103(18)
C17 C 1.1151(2) -1.0044(3) 1.28696(17)
C19 C 1.49380(19) -1.5680(3) 1.39985(19)
H9 H 1.5193 -1.6407 1.3957
C20 C 1.3696(2) -1.4560(3) 1.3858(2)
H10 H 1.3119 -1.4530 1.3710
C21 C 0.9651(3) -0.9869(3) 1.2345(2)
H11 H 0.9175 -0.9383 1.2175
C22 C 1.1993(2) -0.9458(3) 1.31821(19)
C23 C 1.0433(2) -0.9331(3) 1.2599(2)
H12 H 1.0479 -0.8483 1.2588
Gd2C Gd 1.811244(8) -1.462985(11) 1.480130(8)
O11C O 1.17043(14) -0.93376(18) 1.44423(13)
O14C O 1.17878(14) -1.12739(19) 1.47282(15)
O20 O 1.1991(2) -1.3377(3) 1.19887(18)
O23 O 0.4239(2) 0.1130(3) 0.2139(2)
O24 O 0.0970(2) 0.3659(3) 0.2844(2)
O25 O 1.2904(2) -0.7429(3) 1.22540(19)
O26 O 0.3074(3) 0.8459(3) 0.2607(2)
O27 O 0.4256(5) 0.1226(6) 0.3541(4)
loop_
_geom_bond_atom_site_label_1
_geom_bond_atom_site_label_2
_geom_bond_site_symmetry_1
_geom_bond_site_symmetry_2
Gd1 O1 1_555 1_555
Gd2 O3 1_555 1_555
O1 C24 1_555 1_555
O2 Gd1 1_555 1_555
O3 C16 1_555 1_555
O4 Gd2 1_555 1_555
O5 Gd2 1_555 1_555
O6 Gd2 1_555 1_555
O7 Gd2 1_555 1_555
O8 Gd1 1_555 1_555
O9 Gd1 1_555 1_555
O10 C3 1_555 1_555
O11 C5 1_555 1_555
O12 Gd1 1_555 1_555
O13 C3 1_555 1_555
O14 C5 1_555 1_555
O15 Gd2 1_555 1_555
O16 Gd1 1_555 1_555
O17 Gd2 1_555 1_555
O18 Gd1 1_555 1_555
O19 C14 1_555 1_555
O21 C22 1_555 1_555
C1 H1 1_555 1_555
C2 H2 1_555 1_555
O22 C14 1_555 1_555
C3 C18 1_555 1_555
C4 H3 1_555 1_555
C5 C9 1_555 1_555
C6 H4 1_555 1_555
C7 C2 1_555 1_555
C8 H5 1_555 1_555
C9 C1 1_555 1_555
C10 C1 1_555 1_555
C11 C6 1_555 1_555
H6 C11 1_555 1_555
C12 H7 1_555 1_555
C13 C6 1_555 1_555
H8 C13 1_555 1_555
C14 C15 1_555 1_555
C15 C8 1_555 1_555
C16 O5 1_555 1_555
C17 C8 1_555 1_555
C18 C2 1_555 1_555
C19 C4 1_555 1_555
H9 C19 1_555 1_555
C20 C4 1_555 1_555
H10 C20 1_555 1_555
C21 C12 1_555 1_555
H11 C21 1_555 1_555
C22 O15 1_555 1_555
C23 C17 1_555 1_555
H12 C23 1_555 1_555
C24 O2 1_555 1_555
Gd1C O10 1_555 1_555
Gd2C O11 1_555 1_555
O10C Gd1 1_555 1_555
O11C Gd2 1_555 1_555
O13C Gd1 1_555 1_555
O14C Gd2 1_555 1_555
O13 Gd1C 1_555 1_555
O14 Gd2C 1_555 1_555
C7 C13 1_555 1_555
C7 C24 1_555 1_555
C9 C19 1_555 1_555
C10 C16 1_555 1_555
C10 C20 1_555 1_555
C11 C18 1_555 1_555
C12 C15 1_555 1_555
C17 C22 1_555 1_555
C21 C23 1_555 1_555

#END
