
#######################################################################
#
#                 Cambridge Crystallographic Data Centre
#                                CCDC 
#
#######################################################################
#
# If this CIF has been generated from an entry in the Cambridge 
# Structural Database, then it will include bibliographic, chemical, 
# crystal, experimental, refinement or atomic coordinate data resulting 
# from the CCDC's data processing and validation procedures.
#
#######################################################################

data_NOHKIG
_symmetry_cell_setting           orthorhombic
_symmetry_space_group_name_H-M   'P n m a'
_symmetry_Int_Tables_number      62
_space_group_name_Hall           '-P 2ac 2n'
loop_
_symmetry_equiv_pos_site_id
_symmetry_equiv_pos_as_xyz
1 x,y,z
2 1/2-x,-y,1/2+z
3 1/2+x,1/2-y,1/2-z
4 -x,1/2+y,-z
5 -x,-y,-z
6 1/2+x,y,1/2-z
7 1/2-x,1/2+y,1/2+z
8 x,1/2-y,z
_cell_length_a                   15.147(3)
_cell_length_b                   6.6763(13)
_cell_length_c                   14.375(3)
_cell_angle_alpha                90
_cell_angle_beta                 90
_cell_angle_gamma                90
_cell_volume                     1453.69
loop_
_atom_site_label
_atom_site_type_symbol
_atom_site_fract_x
_atom_site_fract_y
_atom_site_fract_z
Tb1 Tb -0.19969(6) -0.2500 0.62023(7)
O1 O -0.1527(8) -0.2500 0.4633(9)
O2 O -0.1106(13) -0.2500 0.7572(11)
O3 O -0.3027(13) -0.028(4) 0.5461(17)
N1 N -0.0353(8) -0.2500 0.5948(8)
O4 O -0.1481(8) 0.0844(15) 0.6370(8)
O5 O -0.2967(8) -0.4160(19) 0.7418(9)
C1 C -0.0725(11) -0.2500 0.4338(10)
Na1 Na -0.2654(7) -0.2500 0.3100(6)
C2 C -0.0309(18) -0.2500 0.7587(16)
H1 H -0.3162 0.0277 0.5968
H2 H -0.3372 -0.1209 0.5351
C3 C -0.0036(10) -0.2500 0.5082(10)
C4 C 0.0179(12) -0.2500 0.6670(11)
O6 O -0.0517(12) -0.2500 0.3525(8)
O7 O 0.0185(17) -0.2500 0.8300(17)
C5 C 0.0872(10) -0.2500 0.4940(12)
C6 C 0.1066(15) -0.2500 0.6527(16)
N2 N 0.1427(10) -0.2500 0.5660(14)
C7 C 0.1296(12) -0.2500 0.3994(14)
C8 C 0.1767(16) -0.2500 0.7298(17)
O8 O 0.387(5) 0.443(12) 0.606(5)
H3 H 0.4099 0.5161 0.6497
H4 H 0.3381 0.5052 0.5938
O3G O -0.3027(13) -0.472(4) 0.5461(17)
O4G O -0.1481(8) -0.5844(15) 0.6370(8)
O5G O -0.2967(8) -0.0840(19) 0.7418(9)
H1G H -0.3162 -0.5277 0.5968
H2G H -0.3372 -0.3791 0.5351
O4C O 0.1481(8) -0.4156(15) 0.3630(8)
O4D O 0.1481(8) -0.0844(15) 0.3630(8)
O5B O 0.2033(8) -0.0840(19) 0.7582(9)
O5E O 0.2033(8) -0.4160(19) 0.7582(9)
Tb1C Tb 0.19969(6) -0.7500 0.37977(7)
Na1B Na 0.2346(7) -0.2500 0.1900(6)
Tb1C_2 Tb 0.19969(6) 0.2500 0.37977(7)
Na1C Na 0.2654(7) 0.2500 0.6900(6)
Tb1B Tb 0.30031(6) -0.2500 0.87977(7)
Na1C_2 Na 0.2654(7) -0.7500 0.6900(6)
O1C O 0.1527(8) 0.2500 0.5367(9)
O4B O 0.3519(8) 0.4156(15) 0.8630(8)
O4E O 0.3519(8) 0.0844(15) 0.8630(8)
O5E_2 O 0.2033(8) 0.5840(19) 0.7582(9)
O9 O -0.072(2) -0.2500 0.161(2)
H5 H -0.1212 -0.2500 0.1346
H6 H -0.0329 -0.2500 0.1206
loop_
_geom_bond_atom_site_label_1
_geom_bond_atom_site_label_2
_geom_bond_site_symmetry_1
_geom_bond_site_symmetry_2
Tb1 O1 1_555 1_555
O1 C1 1_555 1_555
O2 Tb1 1_555 1_555
O3 Tb1 1_555 1_555
N1 Tb1 1_555 1_555
O4 Tb1 1_555 1_555
O5 Tb1 1_555 1_555
C1 C3 1_555 1_555
Na1 O1 1_555 1_555
C2 O2 1_555 1_555
H1 O3 1_555 1_555
H2 O3 1_555 1_555
C3 N1 1_555 1_555
C4 N1 1_555 1_555
O6 C1 1_555 1_555
O7 C2 1_555 1_555
C5 C3 1_555 1_555
C6 C4 1_555 1_555
N2 C5 1_555 1_555
C7 C5 1_555 1_555
C8 C6 1_555 1_555
O8 H3 1_555 1_555
H4 O8 1_555 1_555
O9 H5 1_555 1_555
H6 O9 1_555 1_555
O3G Tb1 1_555 1_555
O4G Tb1 1_555 1_555
O5G Tb1 1_555 1_555
H1G O3G 1_555 1_555
H2G O3G 1_555 1_555
O4C C7 1_555 1_555
O4D C7 1_555 1_555
O5B C8 1_555 1_555
O5E C8 1_555 1_555
Tb1C O4C 1_555 1_555
Na1B O4C 1_555 1_555
Tb1C_2 O4D 1_555 1_555
Na1C O8 1_555 1_555
Tb1B O5B 1_555 1_555
Na1C_2 O5E 1_555 1_555
O1C Tb1C_2 1_555 1_555
O4B Na1C 1_555 1_555
O4E Na1C 1_555 1_555
O5E_2 Na1C 1_555 1_555
C2 C4 1_555 1_555
C6 N2 1_555 1_555
O4D Na1B 1_555 1_555
O5B Na1C 1_555 1_555
O5E Tb1B 1_555 1_555
Na1C O1C 1_555 1_555
Tb1B O4E 1_555 1_555

#END
