
#######################################################################
#
#                 Cambridge Crystallographic Data Centre
#                                CCDC 
#
#######################################################################
#
# If this CIF has been generated from an entry in the Cambridge 
# Structural Database, then it will include bibliographic, chemical, 
# crystal, experimental, refinement or atomic coordinate data resulting 
# from the CCDC's data processing and validation procedures.
#
#######################################################################

data_NOHKUS
_symmetry_cell_setting           orthorhombic
_symmetry_space_group_name_H-M   'P n m a'
_symmetry_Int_Tables_number      62
_space_group_name_Hall           '-P 2ac 2n'
loop_
_symmetry_equiv_pos_site_id
_symmetry_equiv_pos_as_xyz
1 x,y,z
2 1/2-x,-y,1/2+z
3 1/2+x,1/2-y,1/2-z
4 -x,1/2+y,-z
5 -x,-y,-z
6 1/2+x,y,1/2-z
7 1/2-x,1/2+y,1/2+z
8 x,1/2-y,z
_cell_length_a                   15.306(3)
_cell_length_b                   6.7260(13)
_cell_length_c                   14.386(3)
_cell_angle_alpha                90
_cell_angle_beta                 90
_cell_angle_gamma                90
_cell_volume                     1481.01
loop_
_atom_site_label
_atom_site_type_symbol
_atom_site_fract_x
_atom_site_fract_y
_atom_site_fract_z
O9 O -0.079(2) -0.2500 0.1617(19)
H5 H -0.1280 -0.2500 0.1350
H6 H -0.0397 -0.2500 0.1210
Eu1 Eu -0.19846(6) -0.2500 0.62110(7)
Na1 Na 0.2639(6) 0.2500 0.6890(5)
O1 O -0.1502(7) -0.2500 0.4629(8)
O2 O -0.0495(11) -0.2500 0.3525(8)
O3 O 0.1479(9) -0.4131(13) 0.3624(8)
O4 O 0.2056(8) -0.0850(17) 0.7549(9)
O5 O 0.0229(18) -0.2500 0.8301(16)
O6 O -0.1084(13) -0.2500 0.7589(10)
O7 O -0.2992(11) -0.024(4) 0.542(2)
H1 H -0.3128 0.0313 0.5929
H2 H -0.3337 -0.1173 0.5311
N1 N -0.0335(7) -0.2500 0.5955(7)
N2 N 0.1430(10) -0.2500 0.5631(13)
C1 C -0.0021(10) -0.2500 0.5082(9)
C2 C 0.0857(9) -0.2500 0.4925(10)
C3 C 0.1065(13) -0.2500 0.6521(16)
C4 C 0.0200(12) -0.2500 0.6669(11)
C5 C -0.0712(11) -0.2500 0.4336(9)
C6 C 0.1291(11) -0.2500 0.3993(12)
C7 C 0.1734(18) -0.2500 0.729(2)
C8 C -0.0271(16) -0.2500 0.7599(12)
O8 O 0.379(5) 0.460(13) 0.601(5)
H3 H 0.4010 0.5306 0.6435
H4 H 0.3292 0.5196 0.5876
O3G O 0.1479(9) -0.0869(13) 0.3624(8)
O4G O 0.2056(8) -0.4150(17) 0.7549(9)
O7G O -0.2992(11) -0.476(4) 0.542(2)
H1G H -0.3128 -0.5313 0.5929
H2G H -0.3337 -0.3827 0.5311
O8G O 0.379(5) 0.040(13) 0.601(5)
H3G H 0.4010 -0.0306 0.6435
H4G H 0.3292 -0.0196 0.5876
Eu1B Eu 0.30154(6) -0.2500 0.87890(7)
Eu1C Eu 0.19846(6) -0.7500 0.37890(7)
Eu1C_2 Eu 0.19846(6) 0.2500 0.37890(7)
Na1_2 Na 0.2639(6) -0.7500 0.6890(5)
Na1A Na 0.2361(6) -0.2500 0.1890(5)
Na1C Na -0.2639(6) -0.2500 0.3110(5)
O1C O 0.1502(7) 0.2500 0.5371(8)
O3A O 0.3521(9) 0.4131(13) 0.8624(8)
O3C O -0.1479(9) 0.0869(13) 0.6376(8)
O3D O -0.1479(9) -0.5869(13) 0.6376(8)
O3F O 0.3521(9) 0.0869(13) 0.8624(8)
O4B O -0.2944(8) -0.4150(17) 0.7451(9)
O4E O -0.2944(8) -0.0850(17) 0.7451(9)
O4G_2 O 0.2056(8) 0.5850(17) 0.7549(9)
loop_
_geom_bond_atom_site_label_1
_geom_bond_atom_site_label_2
_geom_bond_site_symmetry_1
_geom_bond_site_symmetry_2
Eu1 O1 1_555 1_555
Na1 O4 1_555 1_555
O1 C5 1_555 1_555
O2 C5 1_555 1_555
O3 C6 1_555 1_555
O4 C7 1_555 1_555
O5 C8 1_555 1_555
O6 Eu1 1_555 1_555
O7 Eu1 1_555 1_555
H1 O7 1_555 1_555
H2 O7 1_555 1_555
N1 Eu1 1_555 1_555
N2 C2 1_555 1_555
C1 N1 1_555 1_555
C2 C1 1_555 1_555
C3 N2 1_555 1_555
C4 N1 1_555 1_555
C5 C1 1_555 1_555
C6 C2 1_555 1_555
C7 C3 1_555 1_555
C8 O6 1_555 1_555
O8 Na1 1_555 1_555
H3 O8 1_555 1_555
H4 O8 1_555 1_555
O9 H5 1_555 1_555
H6 O9 1_555 1_555
O3G C6 1_555 1_555
O4G C7 1_555 1_555
O7G Eu1 1_555 1_555
H1G O7G 1_555 1_555
H2G O7G 1_555 1_555
O8G Na1 1_555 1_555
H3G O8G 1_555 1_555
H4G O8G 1_555 1_555
Eu1B O4 1_555 1_555
Eu1C O3 1_555 1_555
Eu1C_2 O3G 1_555 1_555
Na1_2 O4G 1_555 1_555
Na1A O3 1_555 1_555
Na1C O1 1_555 1_555
O1C Na1 1_555 1_555
O3A Na1 1_555 1_555
O3C Eu1 1_555 1_555
O3D Eu1 1_555 1_555
O3F Na1 1_555 1_555
O4B Eu1 1_555 1_555
O4E Eu1 1_555 1_555
O4G_2 Na1 1_555 1_555
C3 C4 1_555 1_555
C4 C8 1_555 1_555
O3G Na1A 1_555 1_555
O4G Eu1B 1_555 1_555
Eu1B O3F 1_555 1_555
Eu1C_2 O1C 1_555 1_555

#END
