
#######################################################################
#
#                 Cambridge Crystallographic Data Centre
#                                CCDC 
#
#######################################################################
#
# If this CIF has been generated from an entry in the Cambridge 
# Structural Database, then it will include bibliographic, chemical, 
# crystal, experimental, refinement or atomic coordinate data resulting 
# from the CCDC's data processing and validation procedures.
#
#######################################################################

data_NOHSUZ
_symmetry_cell_setting           monoclinic
_symmetry_space_group_name_H-M   'P 2/n'
_symmetry_Int_Tables_number      13
_space_group_name_Hall           '-P 2yac'
loop_
_symmetry_equiv_pos_site_id
_symmetry_equiv_pos_as_xyz
1 x,y,z
2 1/2-x,y,1/2-z
3 -x,-y,-z
4 1/2+x,-y,1/2+z
_cell_length_a                   9.7042(4)
_cell_length_b                   12.0491(5)
_cell_length_c                   31.6160(13)
_cell_angle_alpha                90
_cell_angle_beta                 92.063(1)
_cell_angle_gamma                90
_cell_volume                     3694.36
loop_
_atom_site_label
_atom_site_type_symbol
_atom_site_fract_x
_atom_site_fract_y
_atom_site_fract_z
Cd1 Cd -0.7500 0.12164(2) 0.2500
S1 S -0.54892(7) 0.10043(6) 0.19808(2)
S2 S -0.83996(7) 0.12788(6) 0.16793(2)
N1 N -0.6326(2) 0.08565(16) 0.11738(7)
N2 N -0.7500 0.3212(2) 0.2500
N3 N -0.7500 0.9082(2) 0.2500
C1 C -0.6703(3) 0.10288(18) 0.15752(8)
C2 C -0.4901(3) 0.0557(2) 0.10708(9)
H1 H -0.4276 0.0811 0.1297
H2 H -0.4659 0.0938 0.0813
C3 C -0.4712(3) -0.0669(2) 0.10116(10)
C4 C -0.4519(3) -0.1371(2) 0.13585(11)
H3 H -0.4509 -0.1075 0.1630
C5 C -0.4342(4) -0.2501(3) 0.13063(14)
H4 H -0.4210 -0.2959 0.1541
C6 C -0.4363(4) -0.2944(3) 0.09058(17)
H5 H -0.4251 -0.3705 0.0870
C7 C -0.4547(4) -0.2273(3) 0.05617(15)
H6 H -0.4560 -0.2578 0.0291
C8 C -0.4716(3) -0.1137(3) 0.06119(11)
H7 H -0.4833 -0.0686 0.0375
C9 C -0.7284(3) 0.1007(2) 0.08128(8)
H8 H -0.8215 0.0880 0.0904
H9 H -0.7089 0.0454 0.0600
C10 C -0.7215(3) 0.2151(2) 0.06129(8)
C11 C -0.8119(3) 0.2403(3) 0.02829(9)
H10 H -0.8770 0.1883 0.0190
C12 C -0.8067(4) 0.3431(3) 0.00877(10)
H11 H -0.8686 0.3597 -0.0135
C13 C -0.7113(5) 0.4203(3) 0.02192(12)
H12 H -0.7073 0.4888 0.0084
C14 C -0.6222(4) 0.3965(3) 0.05475(12)
H13 H -0.5575 0.4489 0.0639
C15 C -0.6275(3) 0.2941(2) 0.07461(10)
H14 H -0.5667 0.2787 0.0972
C16 C -0.8133(3) 0.3789(2) 0.27953(8)
H15 H -0.8580 0.3400 0.3004
C17 C -0.8163(3) 0.4930(2) 0.28076(8)
H16 H -0.8622 0.5296 0.3020
C18 C -0.7500 0.5530(3) 0.2500
C19 C -0.7500 0.6756(3) 0.2500
C20 C -0.7558(3) 0.7365(2) 0.21287(8)
H17 H -0.7606 0.7002 0.1869
C21 C -0.7546(3) 0.8503(2) 0.21430(9)
H18 H -0.7571 0.8890 0.1888
Cd1_2 Cd -0.7500 1.12164(2) 0.2500
S1A S -0.95108(7) 0.10043(6) 0.30192(2)
S2A S -0.66004(7) 0.12788(6) 0.33207(2)
N1A N -0.8674(2) 0.08565(16) 0.38262(7)
N3_2 N -0.7500 -0.0918(2) 0.2500
C1A C -0.8297(3) 0.10288(18) 0.34248(8)
C2A C -1.0099(3) 0.0557(2) 0.39292(9)
H1A H -1.0724 0.0811 0.3703
H2A H -1.0341 0.0938 0.4187
C3A C -1.0288(3) -0.0669(2) 0.39884(10)
C4A C -1.0481(3) -0.1371(2) 0.36415(11)
H3A H -1.0491 -0.1075 0.3370
C5A C -1.0658(4) -0.2501(3) 0.36937(14)
H4A H -1.0790 -0.2959 0.3459
C6A C -1.0637(4) -0.2944(3) 0.40942(17)
H5A H -1.0749 -0.3705 0.4130
C7A C -1.0453(4) -0.2273(3) 0.44383(15)
H6A H -1.0440 -0.2578 0.4709
C8A C -1.0284(3) -0.1137(3) 0.43881(11)
H7A H -1.0167 -0.0686 0.4625
C9A C -0.7716(3) 0.1007(2) 0.41872(8)
H8A H -0.6785 0.0880 0.4096
H9A H -0.7911 0.0454 0.4400
C10A C -0.7785(3) 0.2151(2) 0.43871(8)
C11A C -0.6881(3) 0.2403(3) 0.47171(9)
H10A H -0.6230 0.1883 0.4810
C12A C -0.6933(4) 0.3431(3) 0.49123(10)
H11A H -0.6314 0.3597 0.5135
C13A C -0.7887(5) 0.4203(3) 0.47808(12)
H12A H -0.7927 0.4888 0.4916
C14A C -0.8778(4) 0.3965(3) 0.44525(12)
H13A H -0.9425 0.4489 0.4361
C15A C -0.8725(3) 0.2941(2) 0.42539(10)
H14A H -0.9333 0.2787 0.4028
C16A C -0.6867(3) 0.3789(2) 0.22047(8)
H15A H -0.6420 0.3400 0.1996
C17A C -0.6837(3) 0.4930(2) 0.21924(8)
H16A H -0.6378 0.5296 0.1980
C20A C -0.7442(3) 0.7365(2) 0.28713(8)
H17A H -0.7394 0.7002 0.3131
C21A C -0.7454(3) 0.8503(2) 0.28570(9)
H18A H -0.7429 0.8890 0.3112
Cd2 Cd -0.2500 0.42050(2) 0.2500
S3 S -0.44942(7) 0.43552(5) 0.30110(2)
S4 S -0.15993(8) 0.40552(6) 0.33364(2)
N4 N -0.3792(2) 0.42244(16) 0.38207(7)
N5 N -0.2500 0.2184(2) 0.2500
N6 N -0.2500 -0.3681(2) 0.2500
C22 C -0.3315(3) 0.42183(19) 0.34240(8)
C23 C -0.5203(3) 0.4558(2) 0.39017(9)
H19 H -0.5471 0.4238 0.4168
H20 H -0.5815 0.4263 0.3680
C24 C -0.5380(3) 0.5804(2) 0.39209(8)
C25 C -0.4312(3) 0.6528(2) 0.38551(10)
H21 H -0.3444 0.6249 0.3798
C26 C -0.4508(3) 0.7660(3) 0.38727(12)
H22 H -0.3768 0.8133 0.3831
C27 C -0.5774(4) 0.8099(3) 0.39503(11)
H23 H -0.5905 0.8863 0.3958
C28 C -0.6838(3) 0.7391(3) 0.40166(10)
H24 H -0.7702 0.7677 0.4074
C29 C -0.6658(3) 0.6259(2) 0.39995(9)
H25 H -0.7404 0.5793 0.4041
C30 C -0.2926(3) 0.3941(2) 0.41906(9)
H26 H -0.3138 0.4438 0.4421
H27 H -0.1968 0.4053 0.4125
C31 C -0.3118(3) 0.2755(2) 0.43353(9)
C32 C -0.2871(4) 0.2466(3) 0.47510(10)
H28 H -0.2598 0.3006 0.4947
C33 C -0.3025(5) 0.1375(3) 0.48825(12)
H29 H -0.2881 0.1194 0.5167
C34 C -0.3385(4) 0.0571(3) 0.45988(13)
H30 H -0.3452 -0.0164 0.4686
C35 C -0.3650(3) 0.0849(2) 0.41842(11)
H31 H -0.3919 0.0305 0.3990
C36 C -0.3519(3) 0.1929(2) 0.40560(10)
H32 H -0.3706 0.2108 0.3774
C37 C -0.1774(3) 0.1609(2) 0.22247(8)
H33 H -0.1263 0.1997 0.2030
C38 C -0.1747(3) 0.0473(2) 0.22145(8)
H34 H -0.1225 0.0106 0.2017
C39 C -0.2500 -0.0127(3) 0.2500
C40 C -0.2500 -0.1358(3) 0.2500
C41 C -0.1360(3) -0.1954(2) 0.23974(10)
H35 H -0.0557 -0.1590 0.2326
C42 C -0.1411(3) -0.3102(2) 0.24012(11)
H36 H -0.0623 -0.3488 0.2329
Cd2_2 Cd -0.2500 -0.57950(2) 0.2500
S3A S -0.05058(7) 0.43552(5) 0.19890(2)
S4A S -0.34007(8) 0.40552(6) 0.16636(2)
N4A N -0.1208(2) 0.42244(16) 0.11793(7)
N6_2 N -0.2500 0.6319(2) 0.2500
C22A C -0.1685(3) 0.42183(19) 0.15760(8)
C23A C 0.0203(3) 0.4558(2) 0.10983(9)
H19A H 0.0471 0.4238 0.0832
H20A H 0.0815 0.4263 0.1320
C24A C 0.0380(3) 0.5804(2) 0.10791(8)
C25A C -0.0688(3) 0.6528(2) 0.11449(10)
H21A H -0.1556 0.6249 0.1202
C26A C -0.0492(3) 0.7660(3) 0.11273(12)
H22A H -0.1232 0.8133 0.1169
C27A C 0.0774(4) 0.8099(3) 0.10497(11)
H23A H 0.0905 0.8863 0.1042
C28A C 0.1838(3) 0.7391(3) 0.09834(10)
H24A H 0.2702 0.7677 0.0926
C29A C 0.1658(3) 0.6259(2) 0.10005(9)
H25A H 0.2404 0.5793 0.0959
C30A C -0.2074(3) 0.3941(2) 0.08094(9)
H26A H -0.1862 0.4438 0.0579
H27A H -0.3032 0.4053 0.0875
C31A C -0.1882(3) 0.2755(2) 0.06647(9)
C32A C -0.2129(4) 0.2466(3) 0.02490(10)
H28A H -0.2402 0.3006 0.0053
C33A C -0.1975(5) 0.1375(3) 0.01175(12)
H29A H -0.2119 0.1194 -0.0167
C34A C -0.1615(4) 0.0571(3) 0.04012(13)
H30A H -0.1548 -0.0164 0.0314
C35A C -0.1350(3) 0.0849(2) 0.08158(11)
H31A H -0.1081 0.0305 0.1010
C36A C -0.1481(3) 0.1929(2) 0.09440(10)
H32A H -0.1294 0.2108 0.1226
C37A C -0.3226(3) 0.1609(2) 0.27753(8)
H33A H -0.3737 0.1997 0.2970
C38A C -0.3253(3) 0.0473(2) 0.27855(8)
H34A H -0.3775 0.0106 0.2983
C41A C -0.3640(3) -0.1954(2) 0.26026(10)
H35A H -0.4443 -0.1590 0.2674
C42A C -0.3589(3) -0.3102(2) 0.25988(11)
H36A H -0.4377 -0.3488 0.2671
loop_
_geom_bond_atom_site_label_1
_geom_bond_atom_site_label_2
_geom_bond_site_symmetry_1
_geom_bond_site_symmetry_2
Cd1 S1 1_555 1_555
Cd2 S3 1_555 1_555
S1 C1 1_555 1_555
S2 Cd1 1_555 1_555
S3 C22 1_555 1_555
S4 Cd2 1_555 1_555
N1 C1 1_555 1_555
N2 Cd1 1_555 1_555
N3 C21 1_555 1_555
N4 C22 1_555 1_555
N5 Cd2 1_555 1_555
N6 C42 1_555 1_555
C1 S2 1_555 1_555
C2 N1 1_555 1_555
H1 C2 1_555 1_555
H2 C2 1_555 1_555
C3 C2 1_555 1_555
C4 C3 1_555 1_555
H3 C4 1_555 1_555
C5 C4 1_555 1_555
H4 C5 1_555 1_555
C6 C5 1_555 1_555
H5 C6 1_555 1_555
C7 C6 1_555 1_555
H6 C7 1_555 1_555
C8 C3 1_555 1_555
H7 C8 1_555 1_555
C9 N1 1_555 1_555
H8 C9 1_555 1_555
H9 C9 1_555 1_555
C10 C9 1_555 1_555
C11 C10 1_555 1_555
H10 C11 1_555 1_555
C12 C11 1_555 1_555
H11 C12 1_555 1_555
C13 C12 1_555 1_555
H12 C13 1_555 1_555
C14 C13 1_555 1_555
H13 C14 1_555 1_555
C15 C10 1_555 1_555
H14 C15 1_555 1_555
C16 N2 1_555 1_555
H15 C16 1_555 1_555
C17 C16 1_555 1_555
H16 C17 1_555 1_555
C18 C17 1_555 1_555
C19 C18 1_555 1_555
C20 C19 1_555 1_555
H17 C20 1_555 1_555
C21 C20 1_555 1_555
H18 C21 1_555 1_555
C22 S4 1_555 1_555
C23 N4 1_555 1_555
H19 C23 1_555 1_555
H20 C23 1_555 1_555
C24 C23 1_555 1_555
C25 C24 1_555 1_555
H21 C25 1_555 1_555
C26 C25 1_555 1_555
H22 C26 1_555 1_555
C27 C26 1_555 1_555
H23 C27 1_555 1_555
C28 C27 1_555 1_555
H24 C28 1_555 1_555
C29 C24 1_555 1_555
H25 C29 1_555 1_555
C30 N4 1_555 1_555
H26 C30 1_555 1_555
H27 C30 1_555 1_555
C31 C30 1_555 1_555
C32 C31 1_555 1_555
H28 C32 1_555 1_555
C33 C32 1_555 1_555
H29 C33 1_555 1_555
C34 C33 1_555 1_555
H30 C34 1_555 1_555
C35 C34 1_555 1_555
H31 C35 1_555 1_555
C36 C31 1_555 1_555
H32 C36 1_555 1_555
C37 N5 1_555 1_555
H33 C37 1_555 1_555
C38 C37 1_555 1_555
H34 C38 1_555 1_555
C39 C38 1_555 1_555
C40 C39 1_555 1_555
C41 C40 1_555 1_555
H35 C41 1_555 1_555
C42 C41 1_555 1_555
H36 C42 1_555 1_555
Cd1_2 N3 1_555 1_555
Cd2_2 N6 1_555 1_555
S1A Cd1 1_555 1_555
S2A Cd1 1_555 1_555
S3A Cd2 1_555 1_555
S4A Cd2 1_555 1_555
N1A C1A 1_555 1_555
N3_2 Cd1 1_555 1_555
N4A C22A 1_555 1_555
N6_2 Cd2 1_555 1_555
C1A S1A 1_555 1_555
C2A N1A 1_555 1_555
H1A C2A 1_555 1_555
H2A C2A 1_555 1_555
C3A C2A 1_555 1_555
C4A C3A 1_555 1_555
H3A C4A 1_555 1_555
C5A C4A 1_555 1_555
H4A C5A 1_555 1_555
C6A C5A 1_555 1_555
H5A C6A 1_555 1_555
C7A C6A 1_555 1_555
H6A C7A 1_555 1_555
C8A C3A 1_555 1_555
H7A C8A 1_555 1_555
C9A N1A 1_555 1_555
H8A C9A 1_555 1_555
H9A C9A 1_555 1_555
C10A C9A 1_555 1_555
C11A C10A 1_555 1_555
H10A C11A 1_555 1_555
C12A C11A 1_555 1_555
H11A C12A 1_555 1_555
C13A C12A 1_555 1_555
H12A C13A 1_555 1_555
C14A C13A 1_555 1_555
H13A C14A 1_555 1_555
C15A C10A 1_555 1_555
H14A C15A 1_555 1_555
C16A N2 1_555 1_555
H15A C16A 1_555 1_555
C17A C18 1_555 1_555
H16A C17A 1_555 1_555
C20A C19 1_555 1_555
H17A C20A 1_555 1_555
C21A N3 1_555 1_555
H18A C21A 1_555 1_555
C22A S3A 1_555 1_555
C23A N4A 1_555 1_555
H19A C23A 1_555 1_555
H20A C23A 1_555 1_555
C24A C23A 1_555 1_555
C25A C24A 1_555 1_555
H21A C25A 1_555 1_555
C26A C25A 1_555 1_555
H22A C26A 1_555 1_555
C27A C26A 1_555 1_555
H23A C27A 1_555 1_555
C28A C27A 1_555 1_555
H24A C28A 1_555 1_555
C29A C24A 1_555 1_555
H25A C29A 1_555 1_555
C30A N4A 1_555 1_555
H26A C30A 1_555 1_555
H27A C30A 1_555 1_555
C31A C30A 1_555 1_555
C32A C31A 1_555 1_555
H28A C32A 1_555 1_555
C33A C32A 1_555 1_555
H29A C33A 1_555 1_555
C34A C33A 1_555 1_555
H30A C34A 1_555 1_555
C35A C34A 1_555 1_555
H31A C35A 1_555 1_555
C36A C31A 1_555 1_555
H32A C36A 1_555 1_555
C37A N5 1_555 1_555
H33A C37A 1_555 1_555
C38A C39 1_555 1_555
H34A C38A 1_555 1_555
C41A C40 1_555 1_555
H35A C41A 1_555 1_555
C42A N6 1_555 1_555
H36A C42A 1_555 1_555
C7 C8 1_555 1_555
C14 C15 1_555 1_555
C28 C29 1_555 1_555
C35 C36 1_555 1_555
S2A C1A 1_555 1_555
S4A C22A 1_555 1_555
C7A C8A 1_555 1_555
C14A C15A 1_555 1_555
C16A C17A 1_555 1_555
C20A C21A 1_555 1_555
C28A C29A 1_555 1_555
C35A C36A 1_555 1_555
C37A C38A 1_555 1_555
C41A C42A 1_555 1_555

#END
