
#######################################################################
#
#                 Cambridge Crystallographic Data Centre
#                                CCDC 
#
#######################################################################
#
# If this CIF has been generated from an entry in the Cambridge 
# Structural Database, then it will include bibliographic, chemical, 
# crystal, experimental, refinement or atomic coordinate data resulting 
# from the CCDC's data processing and validation procedures.
#
#######################################################################

data_NOHWAK
_symmetry_cell_setting           triclinic
_symmetry_space_group_name_H-M   'P -1'
_symmetry_Int_Tables_number      2
_space_group_name_Hall           '-P 1'
loop_
_symmetry_equiv_pos_site_id
_symmetry_equiv_pos_as_xyz
1 x,y,z
2 -x,-y,-z
_cell_length_a                   11.451(2)
_cell_length_b                   11.596(2)
_cell_length_c                   15.733(3)
_cell_angle_alpha                80.00(3)
_cell_angle_beta                 79.47(3)
_cell_angle_gamma                73.04(3)
_cell_volume                     1948.46
loop_
_atom_site_label
_atom_site_type_symbol
_atom_site_fract_x
_atom_site_fract_y
_atom_site_fract_z
Gd1 Gd 1.06715(3) 0.86723(3) 0.15579(2)
Gd2 Gd 0.88811(3) 0.65471(3) 0.35035(2)
N1 N 0.1939(6) 1.0255(6) 0.1252(4)
N2 N 0.6060(5) 1.0870(6) 0.0698(4)
H1 H 0.5933 1.1510 0.0321
N3 N 0.5699(5) 0.9323(6) 0.1639(4)
N4 N 1.7699(5) 0.4884(6) 0.3802(4)
N5 N 1.3990(5) 0.5722(5) 0.3216(4)
H2 H 1.4396 0.6177 0.2872
N6 N 1.3593(5) 0.4273(5) 0.4252(4)
O1 O 0.9267(4) 1.0196(5) 0.0898(3)
O2 O 0.8213(4) 1.1359(5) -0.0128(3)
O3 O 0.7307(4) 0.7416(5) 0.2455(3)
O4 O 0.8738(4) 0.8374(5) 0.2269(3)
O5 O 1.2561(4) 0.7410(5) 0.2098(4)
O6 O 1.0859(4) 0.6951(5) 0.2745(3)
O7 O 1.1338(5) 0.3895(5) 0.4967(3)
O8 O 1.0494(4) 0.4903(5) 0.3813(3)
O9 O 1.0168(5) 0.9714(5) 0.2806(3)
H3 H 0.9703 1.0423 0.2685
H4 H 1.0825 0.9768 0.2955
O10 O 1.0373(5) 0.7086(5) 0.0938(3)
H5 H 0.9945 0.7389 0.0525
H6 H 1.1069 0.6642 0.0740
O11 O 0.6831(5) 0.7576(5) 0.4218(4)
H7 H 0.6035 0.8062 0.4293
H8 H 0.6788 0.6778 0.4602
O12 O 0.9522(5) 0.5497(5) 0.2187(3)
H9 H 0.9985 0.4789 0.2313
H10 H 0.8887 0.5442 0.2006
O13 O 0.9348(6) 0.8056(6) 0.4116(4)
H11 H 0.9809 0.8404 0.3737
H12 H 0.8682 0.8578 0.4272
C1 C 0.1475(7) 1.1359(8) 0.0824(6)
H13 H 0.0639 1.1593 0.0774
C2 C 0.2144(7) 1.2149(7) 0.0463(6)
H14 H 0.1775 1.2898 0.0169
C3 C 0.3390(7) 1.1827(7) 0.0536(5)
H15 H 0.3877 1.2347 0.0282
C4 C 0.5207(6) 1.0297(7) 0.1120(5)
C5 C 0.3898(7) 1.0705(7) 0.1000(5)
C6 C 0.3136(6) 0.9964(7) 0.1340(5)
H16 H 0.3472 0.9217 0.1650
C7 C 0.7169(6) 1.0247(7) 0.0979(5)
C8 C 0.6914(6) 0.9288(6) 0.1567(4)
C9 C 0.8288(7) 1.0634(7) 0.0552(5)
C10 C 0.7692(6) 0.8303(7) 0.2111(5)
C11 C 1.8122(7) 0.3831(8) 0.4253(6)
H17 H 1.8942 0.3612 0.4344
C12 C 1.7428(7) 0.3020(7) 0.4605(6)
H18 H 1.7771 0.2283 0.4925
C13 C 1.6215(7) 0.3334(7) 0.4468(5)
H19 H 1.5719 0.2816 0.4701
C14 C 1.5747(6) 0.4426(7) 0.3983(5)
C15 C 1.6513(7) 0.5170(7) 0.3680(5)
H20 H 1.6188 0.5921 0.3370
C16 C 1.4453(6) 0.4789(7) 0.3813(4)
C17 C 1.2527(6) 0.4922(7) 0.3913(5)
C18 C 1.2769(6) 0.5817(7) 0.3254(5)
C19 C 1.2018(6) 0.6781(7) 0.2679(5)
C20 C 1.1363(7) 0.4546(7) 0.4265(5)
Gd1_2 Gd 0.06715(3) 0.86723(3) 0.15579(2)
Gd1A Gd 0.93285(3) 1.13277(3) -0.15579(2)
Gd2_2 Gd 1.88811(3) 0.65471(3) 0.35035(2)
Gd2A Gd 1.11189(3) 0.34529(3) 0.64965(2)
N1_2 N 1.1939(6) 1.0255(6) 0.1252(4)
N4_2 N 0.7699(5) 0.4884(6) 0.3802(4)
O2A O 1.1787(4) 0.8641(5) 0.0128(3)
O7A O 0.8662(5) 0.6105(5) 0.5033(3)
N7 N 0.1755(7) 0.3876(7) 0.2091(5)
N8 N 0.7879(7) 0.1138(7) 0.2963(5)
C21 C 0.2684(8) 0.4275(9) 0.1661(6)
H21 H 0.2511 0.4940 0.1234
C22 C 0.3898(8) 0.3784(8) 0.1794(6)
H22 H 0.4517 0.4117 0.1474
C23 C 0.4166(8) 0.2776(8) 0.2421(6)
C24 C 0.3189(8) 0.2332(9) 0.2866(6)
H23 H 0.3325 0.1663 0.3294
C25 C 0.2029(8) 0.2889(9) 0.2669(6)
H24 H 0.1391 0.2559 0.2955
C26 C 0.5463(8) 0.2214(8) 0.2619(5)
C27 C 0.6416(9) 0.2693(9) 0.2219(6)
H25 H 0.6267 0.3396 0.1822
C28 C 0.7600(9) 0.2128(9) 0.2407(7)
H26 H 0.8232 0.2468 0.2124
C29 C 0.5756(8) 0.1196(8) 0.3217(6)
H27 H 0.5138 0.0855 0.3526
C30 C 0.6966(9) 0.0678(9) 0.3363(6)
H28 H 0.7143 -0.0023 0.3759
N9 N 0.1814(10) 0.0280(9) 0.4141(6)
O14 O 0.0789(10) 0.0989(8) 0.4258(6)
O15 O 0.2133(6) -0.0342(8) 0.3543(5)
O16 O 0.2572(10) 0.0212(10) 0.4619(6)
N10 N 0.8101(10) 0.4464(9) 0.0793(6)
O17 O 0.7285(10) 0.4464(10) 0.0369(6)
O18 O 0.7777(6) 0.5031(7) 0.1438(5)
O19 O 0.9115(9) 0.3883(10) 0.0639(6)
O20 O 0.5471(5) 0.6660(6) 0.1715(4)
H29 H 0.6388 0.6348 0.1519
H30 H 0.5746 0.6987 0.2107
O21 O 0.4718(6) 0.8321(7) 0.3422(5)
H31 H 0.4044 0.8802 0.3616
H32 H 0.4989 0.8627 0.2921
O22 O 0.5683(5) 0.3150(6) 0.9739(4)
H33 H 0.5557 0.3167 0.9221
H34 H 0.6323 0.3386 0.9727
loop_
_geom_bond_atom_site_label_1
_geom_bond_atom_site_label_2
_geom_bond_site_symmetry_1
_geom_bond_site_symmetry_2
Gd1 O1 1_555 1_555
Gd2 O3 1_555 1_555
N1 C1 1_555 1_555
N2 H1 1_555 1_555
N3 C4 1_555 1_555
N4 C11 1_555 1_555
N5 H2 1_555 1_555
N6 C16 1_555 1_555
O1 C9 1_555 1_555
O2 C9 1_555 1_555
O3 C10 1_555 1_555
O4 Gd1 1_555 1_555
O5 Gd1 1_555 1_555
O6 Gd1 1_555 1_555
O7 C20 1_555 1_555
O8 Gd2 1_555 1_555
O9 Gd1 1_555 1_555
H3 O9 1_555 1_555
H4 O9 1_555 1_555
O10 Gd1 1_555 1_555
H5 O10 1_555 1_555
H6 O10 1_555 1_555
O11 Gd2 1_555 1_555
H7 O11 1_555 1_555
H8 O11 1_555 1_555
O12 Gd2 1_555 1_555
H9 O12 1_555 1_555
H10 O12 1_555 1_555
O13 Gd2 1_555 1_555
H11 O13 1_555 1_555
H12 O13 1_555 1_555
C1 H13 1_555 1_555
C2 C1 1_555 1_555
H14 C2 1_555 1_555
C3 C2 1_555 1_555
H15 C3 1_555 1_555
C4 N2 1_555 1_555
C5 C3 1_555 1_555
C6 N1 1_555 1_555
H16 C6 1_555 1_555
C7 N2 1_555 1_555
C8 N3 1_555 1_555
C9 C7 1_555 1_555
C10 O4 1_555 1_555
C11 H17 1_555 1_555
C12 C11 1_555 1_555
H18 C12 1_555 1_555
C13 C12 1_555 1_555
H19 C13 1_555 1_555
C14 C13 1_555 1_555
C15 N4 1_555 1_555
H20 C15 1_555 1_555
C16 N5 1_555 1_555
C17 N6 1_555 1_555
C18 N5 1_555 1_555
C19 O5 1_555 1_555
C20 O8 1_555 1_555
N7 C21 1_555 1_555
N8 C28 1_555 1_555
C21 H21 1_555 1_555
C22 C21 1_555 1_555
H22 C22 1_555 1_555
C23 C22 1_555 1_555
C24 C23 1_555 1_555
H23 C24 1_555 1_555
C25 N7 1_555 1_555
H24 C25 1_555 1_555
C26 C23 1_555 1_555
C27 C26 1_555 1_555
H25 C27 1_555 1_555
C28 C27 1_555 1_555
H26 C28 1_555 1_555
C29 C26 1_555 1_555
H27 C29 1_555 1_555
C30 N8 1_555 1_555
H28 C30 1_555 1_555
N9 O14 1_555 1_555
O15 N9 1_555 1_555
O16 N9 1_555 1_555
N10 O17 1_555 1_555
O18 N10 1_555 1_555
O19 N10 1_555 1_555
O20 H29 1_555 1_555
H30 O20 1_555 1_555
O21 H31 1_555 1_555
H32 O21 1_555 1_555
O22 H33 1_555 1_555
H34 O22 1_555 1_555
Gd1_2 N1 1_555 1_555
Gd1A O2 1_555 1_555
Gd2_2 N4 1_555 1_555
Gd2A O7 1_555 1_555
N1_2 Gd1 1_555 1_555
N4_2 Gd2 1_555 1_555
O2A Gd1 1_555 1_555
O7A Gd2 1_555 1_555
Gd2 O4 1_555 1_555
Gd2 O6 1_555 1_555
O6 C19 1_555 1_555
C4 C5 1_555 1_555
C5 C6 1_555 1_555
C7 C8 1_555 1_555
C8 C10 1_555 1_555
C14 C15 1_555 1_555
C14 C16 1_555 1_555
C17 C18 1_555 1_555
C17 C20 1_555 1_555
C18 C19 1_555 1_555
C24 C25 1_555 1_555
C29 C30 1_555 1_555

#END
