
#######################################################################
#
#                 Cambridge Crystallographic Data Centre
#                                CCDC 
#
#######################################################################
#
# If this CIF has been generated from an entry in the Cambridge 
# Structural Database, then it will include bibliographic, chemical, 
# crystal, experimental, refinement or atomic coordinate data resulting 
# from the CCDC's data processing and validation procedures.
#
#######################################################################

data_NOHYIT
_symmetry_cell_setting           monoclinic
_symmetry_space_group_name_H-M   'P 21/m'
_symmetry_Int_Tables_number      11
_space_group_name_Hall           '-P 2yb'
loop_
_symmetry_equiv_pos_site_id
_symmetry_equiv_pos_as_xyz
1 x,y,z
2 -x,1/2+y,-z
3 -x,-y,-z
4 x,1/2-y,z
_cell_length_a                   6.1235(6)
_cell_length_b                   7.5473(5)
_cell_length_c                   10.1081(6)
_cell_angle_alpha                90
_cell_angle_beta                 105.2300(10)
_cell_angle_gamma                90
_cell_volume                     450.748
loop_
_atom_site_label
_atom_site_type_symbol
_atom_site_fract_x
_atom_site_fract_y
_atom_site_fract_z
Cd1 Cd 0.5000 0.0000 0.5000
Cl1 Cl 0.26524(11) 0.2500 0.58281(8)
Cl2 Cl 0.62145(13) 0.2500 0.35295(7)
N1 N 0.8292(3) 0.0596(2) 0.67983(17)
H1 H 0.8687 -0.0546 0.7042
H2 H 0.9341 0.1080 0.6439
C1 C 0.7996(3) 0.1574(2) 0.79569(18)
C2 C 0.7561(3) 0.0677(3) 0.9058(2)
H3 H 0.7530 -0.0555 0.9056
C3 C 0.7174(3) 0.1588(3) 1.0153(2)
H4 H 0.6913 0.0971 1.0893
Cd1C Cd 0.5000 0.5000 0.5000
Cl1B Cl 0.73476(11) -0.2500 0.41719(8)
Cl2B Cl 0.37855(13) -0.2500 0.64705(7)
N1C N 0.8292(3) 0.4404(2) 0.67983(17)
N1B N 0.1708(3) -0.0596(2) 0.32017(17)
H1C H 0.8687 0.5546 0.7042
H1B H 0.1313 0.0546 0.2958
H2C H 0.9341 0.3920 0.6439
H2B H 0.0659 -0.1080 0.3561
C1C C 0.7996(3) 0.3426(2) 0.79569(18)
C2C C 0.7561(3) 0.4323(3) 0.9058(2)
H3C H 0.7530 0.5555 0.9056
C3C C 0.7174(3) 0.3412(3) 1.0153(2)
H4C H 0.6913 0.4029 1.0893
loop_
_geom_bond_atom_site_label_1
_geom_bond_atom_site_label_2
_geom_bond_site_symmetry_1
_geom_bond_site_symmetry_2
Cd1 Cl1 1_555 1_555
Cl1 Cd1C 1_555 1_555
Cl2 Cd1 1_555 1_555
N1 Cd1 1_555 1_555
H1 N1 1_555 1_555
H2 N1 1_555 1_555
C1 N1 1_555 1_555
C2 C1 1_555 1_555
H3 C2 1_555 1_555
C3 C2 1_555 1_555
H4 C3 1_555 1_555
Cd1C Cl2 1_555 1_555
Cl1B Cd1 1_555 1_555
Cl2B Cd1 1_555 1_555
N1C Cd1C 1_555 1_555
N1B Cd1 1_555 1_555
H1C N1C 1_555 1_555
H1B N1B 1_555 1_555
H2C N1C 1_555 1_555
H2B N1B 1_555 1_555
C1C C1 1_555 1_555
C2C C1C 1_555 1_555
H3C C2C 1_555 1_555
C3C C3 1_555 1_555
H4C C3C 1_555 1_555
N1C C1C 1_555 1_555
C2C C3C 1_555 1_555

#END
