
#######################################################################
#
#                 Cambridge Crystallographic Data Centre
#                                CCDC 
#
#######################################################################
#
# If this CIF has been generated from an entry in the Cambridge 
# Structural Database, then it will include bibliographic, chemical, 
# crystal, experimental, refinement or atomic coordinate data resulting 
# from the CCDC's data processing and validation procedures.
#
#######################################################################

data_NOJBOF
_symmetry_cell_setting           monoclinic
_symmetry_space_group_name_H-M   'P 21/c'
_symmetry_Int_Tables_number      14
_space_group_name_Hall           '-P 2ybc'
loop_
_symmetry_equiv_pos_site_id
_symmetry_equiv_pos_as_xyz
1 x,y,z
2 -x,1/2+y,1/2-z
3 -x,-y,-z
4 x,1/2-y,1/2+z
_cell_length_a                   12.780(3)
_cell_length_b                   10.494(2)
_cell_length_c                   15.870(3)
_cell_angle_alpha                90
_cell_angle_beta                 109.31(3)
_cell_angle_gamma                90
_cell_volume                     2008.64
loop_
_atom_site_label
_atom_site_type_symbol
_atom_site_fract_x
_atom_site_fract_y
_atom_site_fract_z
O1 O 0.3209(7) 0.3944(10) 0.7455(5)
H1 H 0.2792 0.3544 0.7686
H2 H 0.3299 0.3553 0.7014
Cd1 Cd 0.63880(5) 0.53251(5) 0.88754(3)
N1 N 0.7363(6) 0.4321(7) 1.0313(4)
N2 N 0.8150(5) 0.4697(6) 0.8936(4)
N3 N 0.9686(5) 0.3528(6) 0.9509(4)
C1 C 0.5670(6) 0.4582(8) 0.6921(5)
C2 C 0.5286(6) 0.4777(7) 0.5923(4)
C3 C 0.5621(6) 0.5880(7) 0.5591(4)
H3 H 0.6033 0.6480 0.5996
C4 C 0.4631(6) 0.3877(7) 0.5313(5)
C5 C 0.4195(6) 0.2668(7) 0.5596(5)
C6 C 1.0823(7) -0.0844(8) 1.0421(5)
H4 H 1.1385 -0.1414 1.0708
C7 C 1.1058(6) 0.0436(7) 1.0438(5)
H5 H 1.1775 0.0720 1.0735
C8 C 1.0240(6) 0.1302(7) 1.0019(5)
C9 C 1.0521(6) 0.2702(7) 1.0097(5)
H6 H 1.0647 0.2966 1.0708
H7 H 1.1210 0.2822 0.9975
C10 C 0.9719(7) 0.4008(8) 0.8703(5)
C11 C 1.0494(7) 0.3878(9) 0.8267(6)
H8 H 1.1124 0.3375 0.8497
C12 C 1.0280(9) 0.4531(10) 0.7480(7)
H9 H 1.0783 0.4477 0.7172
C13 C 0.9327(9) 0.5276(10) 0.7126(6)
H10 H 0.9208 0.5699 0.6587
C14 C 0.8562(8) 0.5395(8) 0.7562(5)
H11 H 0.7932 0.5896 0.7327
C15 C 0.8755(7) 0.4750(7) 0.8355(5)
C16 C 0.8736(6) 0.3957(7) 0.9616(5)
C17 C 0.8319(6) 0.3692(7) 1.0351(5)
C18 C 0.8713(7) 0.2875(8) 1.1053(6)
H12 H 0.9354 0.2388 1.1171
C19 C 0.7047(7) 0.3965(10) 1.0978(6)
H13 H 0.6411 0.4289 1.1062
O2 O 0.5787(5) 0.5555(5) 0.7402(3)
O3 O 0.5873(6) 0.3470(6) 0.7193(4)
O4 O 0.4495(5) 0.1630(5) 0.5352(4)
O5 O 0.3519(5) 0.2688(5) 0.6001(4)
O6 O 0.5123(6) 0.3835(6) 0.8880(4)
H14 H 0.4889 0.3626 0.9304
H15 H 0.4848 0.3392 0.8410
S1 S 0.7868(2) 0.2874(3) 1.16827(15)
N1B N 1.2637(6) -0.4321(7) 0.9687(4)
N2B N 1.1850(5) -0.4697(6) 1.1064(4)
N3B N 1.0314(5) -0.3528(6) 1.0491(4)
C6B C 0.9177(7) 0.0844(8) 0.9579(5)
H4B H 0.8615 0.1414 0.9292
C7B C 0.8942(6) -0.0436(7) 0.9562(5)
H5B H 0.8225 -0.0720 0.9265
C8B C 0.9760(6) -0.1302(7) 0.9981(5)
C9B C 0.9479(6) -0.2702(7) 0.9903(5)
H6B H 0.9353 -0.2966 0.9292
H7B H 0.8790 -0.2822 1.0025
C10B C 1.0281(7) -0.4008(8) 1.1297(5)
C11B C 0.9506(7) -0.3878(9) 1.1733(6)
H8B H 0.8876 -0.3375 1.1503
C12B C 0.9720(9) -0.4531(10) 1.2520(7)
H9B H 0.9217 -0.4477 1.2828
C13B C 1.0673(9) -0.5276(10) 1.2874(6)
H10B H 1.0792 -0.5699 1.3413
C14B C 1.1438(8) -0.5395(8) 1.2438(5)
H11B H 1.2068 -0.5896 1.2673
C15B C 1.1245(7) -0.4750(7) 1.1645(5)
C16B C 1.1264(6) -0.3957(7) 1.0384(5)
C17B C 1.1681(6) -0.3692(7) 0.9649(5)
C18B C 1.1287(7) -0.2875(8) 0.8947(6)
H12B H 1.0646 -0.2388 0.8829
C19B C 1.2953(7) -0.3965(10) 0.9022(6)
H13B H 1.3589 -0.4289 0.8938
S1B S 1.2132(2) -0.2874(3) 0.83173(15)
C1B C 0.4330(6) 0.5418(8) 0.3079(5)
C2B C 0.4714(6) 0.5223(7) 0.4077(4)
C3B C 0.4379(6) 0.4120(7) 0.4409(4)
H3B H 0.3967 0.3520 0.4004
C4B C 0.5369(6) 0.6123(7) 0.4687(5)
C5B C 0.5805(6) 0.7332(7) 0.4404(5)
O2B O 0.4213(5) 0.4445(5) 0.2598(3)
O3B O 0.4127(6) 0.6530(6) 0.2807(4)
O4B O 0.5505(5) 0.8370(5) 0.4648(4)
O5B O 0.6481(5) 0.7312(5) 0.3999(4)
Cd1B Cd 0.36120(5) 0.46749(5) 0.11246(3)
O6B O 0.4877(6) 0.6165(6) 0.1120(4)
H14B H 0.5111 0.6374 0.0696
H15B H 0.5152 0.6608 0.1590
Cd1A Cd 0.36120(5) 0.03251(5) 0.61246(3)
Cd1B_2 Cd 1.36120(5) -0.53251(5) 1.11246(3)
Cd1C Cd 0.63880(5) 0.96749(5) 0.38754(3)
N1B_2 N 0.2637(6) 0.5679(7) -0.0313(4)
N2B_2 N 0.1850(5) 0.5303(6) 0.1064(4)
O4A O 0.5505(5) 0.6630(5) 0.9648(4)
O4C O 0.4495(5) 0.3370(5) 0.0352(4)
O5A O 0.6481(5) 0.7688(5) 0.8999(4)
O5C O 0.3519(5) 0.2312(5) 0.1001(4)
O7 O 0.3366(6) 0.8546(8) 0.1719(7)
H16 H 0.3322 0.9282 0.1929
H17 H 0.3564 0.7844 0.1992
loop_
_geom_bond_atom_site_label_1
_geom_bond_atom_site_label_2
_geom_bond_site_symmetry_1
_geom_bond_site_symmetry_2
O1 H1 1_555 1_555
H2 O1 1_555 1_555
Cd1 N1 1_555 1_555
N1 C17 1_555 1_555
N2 Cd1 1_555 1_555
N3 C9 1_555 1_555
C1 C2 1_555 1_555
C2 C3 1_555 1_555
C3 H3 1_555 1_555
C4 C2 1_555 1_555
C5 C4 1_555 1_555
C6 H4 1_555 1_555
C7 C6 1_555 1_555
H5 C7 1_555 1_555
C8 C7 1_555 1_555
C9 C8 1_555 1_555
H6 C9 1_555 1_555
H7 C9 1_555 1_555
C10 N3 1_555 1_555
C11 C10 1_555 1_555
H8 C11 1_555 1_555
C12 C11 1_555 1_555
H9 C12 1_555 1_555
C13 C12 1_555 1_555
H10 C13 1_555 1_555
C14 C13 1_555 1_555
H11 C14 1_555 1_555
C15 N2 1_555 1_555
C16 N2 1_555 1_555
C17 C16 1_555 1_555
C18 C17 1_555 1_555
H12 C18 1_555 1_555
C19 N1 1_555 1_555
H13 C19 1_555 1_555
O2 Cd1 1_555 1_555
O3 C1 1_555 1_555
O4 C5 1_555 1_555
O5 C5 1_555 1_555
O6 Cd1 1_555 1_555
H14 O6 1_555 1_555
H15 O6 1_555 1_555
S1 C18 1_555 1_555
O7 H16 1_555 1_555
H17 O7 1_555 1_555
N1B C17B 1_555 1_555
N2B C15B 1_555 1_555
N3B C9B 1_555 1_555
C6B C8 1_555 1_555
H4B C6B 1_555 1_555
C7B C6B 1_555 1_555
H5B C7B 1_555 1_555
C8B C6 1_555 1_555
C9B C8B 1_555 1_555
H6B C9B 1_555 1_555
H7B C9B 1_555 1_555
C10B N3B 1_555 1_555
C11B C10B 1_555 1_555
H8B C11B 1_555 1_555
C12B C11B 1_555 1_555
H9B C12B 1_555 1_555
C13B C12B 1_555 1_555
H10B C13B 1_555 1_555
C14B C13B 1_555 1_555
H11B C14B 1_555 1_555
C15B C10B 1_555 1_555
C16B N2B 1_555 1_555
C17B C16B 1_555 1_555
C18B C17B 1_555 1_555
H12B C18B 1_555 1_555
C19B N1B 1_555 1_555
H13B C19B 1_555 1_555
S1B C18B 1_555 1_555
C1B C2B 1_555 1_555
C2B C3B 1_555 1_555
C3B C4 1_555 1_555
H3B C3B 1_555 1_555
C4B C3 1_555 1_555
C5B C4B 1_555 1_555
O2B C1B 1_555 1_555
O3B C1B 1_555 1_555
O4B C5B 1_555 1_555
O5B C5B 1_555 1_555
Cd1B O2B 1_555 1_555
O6B Cd1B 1_555 1_555
H14B O6B 1_555 1_555
H15B O6B 1_555 1_555
Cd1A O4 1_555 1_555
Cd1B_2 N1B 1_555 1_555
Cd1C O4B 1_555 1_555
N1B_2 Cd1B 1_555 1_555
N2B_2 Cd1B 1_555 1_555
O4A Cd1 1_555 1_555
O4C Cd1B 1_555 1_555
O5A Cd1 1_555 1_555
O5C Cd1B 1_555 1_555
N3 C16 1_555 1_555
C1 O2 1_555 1_555
C10 C15 1_555 1_555
C14 C15 1_555 1_555
C19 S1 1_555 1_555
O5 Cd1A 1_555 1_555
N2B Cd1B_2 1_555 1_555
N3B C16B 1_555 1_555
C7B C8B 1_555 1_555
C14B C15B 1_555 1_555
C19B S1B 1_555 1_555
C2B C4B 1_555 1_555
O5B Cd1C 1_555 1_555

#END
