
#######################################################################
#
#                 Cambridge Crystallographic Data Centre
#                                CCDC 
#
#######################################################################
#
# If this CIF has been generated from an entry in the Cambridge 
# Structural Database, then it will include bibliographic, chemical, 
# crystal, experimental, refinement or atomic coordinate data resulting 
# from the CCDC's data processing and validation procedures.
#
#######################################################################

data_NOJBEV
_symmetry_cell_setting           monoclinic
_symmetry_space_group_name_H-M   'P 21/c'
_symmetry_Int_Tables_number      14
_space_group_name_Hall           '-P 2ybc'
loop_
_symmetry_equiv_pos_site_id
_symmetry_equiv_pos_as_xyz
1 x,y,z
2 -x,1/2+y,1/2-z
3 -x,-y,-z
4 x,1/2-y,1/2+z
_cell_length_a                   11.011(2)
_cell_length_b                   14.279(3)
_cell_length_c                   15.654(3)
_cell_angle_alpha                90
_cell_angle_beta                 98.58(3)
_cell_angle_gamma                90
_cell_volume                     2433.67
loop_
_atom_site_label
_atom_site_type_symbol
_atom_site_fract_x
_atom_site_fract_y
_atom_site_fract_z
Cd1 Cd 0.56956(3) 0.92181(2) 0.94025(2)
N1 N 0.6759(5) 0.8841(3) 0.8253(3)
N2 N 0.6832(5) 0.8654(3) 0.6843(3)
N3 N 0.4424(5) 0.8395(4) 0.8176(3)
C1 C 0.9044(8) 0.9167(4) 0.6856(5)
H1 H 0.9073 0.9099 0.6269
C2 C 1.0048(8) 0.9448(5) 0.7418(5)
H2 H 1.0776 0.9573 0.7206
C3 C 1.0014(7) 0.9554(5) 0.8305(5)
H3 H 1.0719 0.9742 0.8668
C4 C 0.8941(6) 0.9381(4) 0.8651(4)
H4 H 0.8913 0.9451 0.9238
C5 C 0.7916(6) 0.9098(4) 0.8083(4)
C6 C 0.7968(6) 0.8985(4) 0.7205(4)
C7 C 0.6154(6) 0.8575(4) 0.7510(3)
C8 C 0.4911(6) 0.8257(5) 0.7444(4)
C9 C 0.4152(7) 0.7949(7) 0.6761(5)
H5 H 0.4346 0.7868 0.6207
C10 C 0.3307(7) 0.8126(7) 0.8050(5)
H6 H 0.2824 0.8153 0.8488
C11 C 0.6431(6) 0.8490(4) 0.5917(3)
H7 H 0.5953 0.7918 0.5847
H8 H 0.7151 0.8401 0.5636
C12 C 0.5667(5) 0.9284(3) 0.5469(3)
C13 C 0.5619(5) 1.0161(4) 0.5818(3)
H9 H 0.6037 1.0281 0.6368
C14 C 0.5041(5) 0.9131(3) 0.4638(3)
H10 H 0.5069 0.8542 0.4388
C15 C 0.3243(4) 0.8658(3) 1.0217(3)
C16 C 0.2139(4) 0.8013(3) 1.0112(3)
C17 C 0.2204(5) 0.7113(4) 0.9789(4)
H11 H 0.2957 0.6887 0.9679
C18 C 0.1181(6) 0.6543(4) 0.9628(4)
H12 H 0.1241 0.5941 0.9412
C19 C 0.0077(5) 0.6887(4) 0.9795(3)
C20 C -0.0023(5) 0.7756(4) 1.0154(3)
H13 H -0.0772 0.7966 1.0287
C21 C 0.1015(5) 0.8312(4) 1.0313(3)
H14 H 0.0959 0.8900 1.0560
C22 C -0.1508(4) 0.6273(4) 0.8750(3)
C23 C -0.1121(5) 0.6774(4) 0.8085(3)
H15 H -0.0475 0.7197 0.8200
C24 C -0.1700(5) 0.6642(4) 0.7243(3)
H16 H -0.1424 0.6967 0.6795
C25 C -0.2687(4) 0.6029(3) 0.7061(3)
C26 C -0.3076(5) 0.5555(4) 0.7751(4)
H17 H -0.3746 0.5154 0.7644
C27 C -0.2494(5) 0.5665(4) 0.8590(4)
H18 H -0.2760 0.5334 0.9039
C28 C -0.3294(5) 0.5869(4) 0.6151(4)
O1 O 0.4200(3) 0.8346(2) 0.9967(2)
O2 O 0.3109(4) 0.9452(3) 1.0528(3)
O3 O -0.2953(4) 0.6338(3) 0.5550(2)
O4 O -0.4131(4) 0.5262(3) 0.6031(3)
O5 O -0.0976(4) 0.6335(3) 0.9609(2)
S1 S 0.2748(2) 0.7726(3) 0.70762(17)
N1B N 0.3241(5) 1.1159(3) 0.1747(3)
N2B N 0.3168(5) 1.1346(3) 0.3157(3)
N3B N 0.5576(5) 1.1605(4) 0.1824(3)
C1B C 0.0956(8) 1.0833(4) 0.3144(5)
H1B H 0.0927 1.0901 0.3731
C2B C -0.0048(8) 1.0552(5) 0.2582(5)
H2B H -0.0776 1.0427 0.2794
C3B C -0.0014(7) 1.0446(5) 0.1695(5)
H3B H -0.0719 1.0258 0.1332
C4B C 0.1059(6) 1.0619(4) 0.1349(4)
H4B H 0.1087 1.0549 0.0762
C5B C 0.2084(6) 1.0902(4) 0.1917(4)
C6B C 0.2032(6) 1.1015(4) 0.2795(4)
C7B C 0.3846(6) 1.1425(4) 0.2490(3)
C8B C 0.5089(6) 1.1743(5) 0.2556(4)
C9B C 0.5848(7) 1.2051(7) 0.3239(5)
H5B H 0.5654 1.2132 0.3793
C10B C 0.6693(7) 1.1874(7) 0.1950(5)
H6B H 0.7176 1.1847 0.1512
C11B C 0.3569(6) 1.1510(4) 0.4083(3)
H7B H 0.4047 1.2082 0.4153
H8B H 0.2849 1.1599 0.4364
C12B C 0.4333(5) 1.0716(3) 0.4531(3)
C13B C 0.4381(5) 0.9839(4) 0.4182(3)
H9B H 0.3963 0.9719 0.3632
C14B C 0.4959(5) 1.0869(3) 0.5362(3)
H10B H 0.4931 1.1458 0.5612
S1B S 0.7252(2) 1.2274(3) 0.29238(17)
Cd1B Cd 0.43044(3) 1.07819(2) 0.05975(2)
C15B C 0.6757(4) 1.1342(3) -0.0217(3)
C16B C 0.7861(4) 1.1987(3) -0.0112(3)
C17B C 0.7796(5) 1.2887(4) 0.0211(4)
H11B H 0.7043 1.3113 0.0321
C18B C 0.8819(6) 1.3457(4) 0.0372(4)
H12B H 0.8759 1.4059 0.0588
C19B C 0.9923(5) 1.3113(4) 0.0205(3)
C20B C 1.0023(5) 1.2244(4) -0.0154(3)
H13B H 1.0772 1.2034 -0.0287
C21B C 0.8985(5) 1.1688(4) -0.0313(3)
H14B H 0.9041 1.1100 -0.0560
C22B C 1.1508(4) 1.3727(4) 0.1250(3)
C23B C 1.1121(5) 1.3226(4) 0.1915(3)
H15B H 1.0475 1.2803 0.1800
C24B C 1.1700(5) 1.3358(4) 0.2757(3)
H16B H 1.1424 1.3033 0.3205
C25B C 1.2687(4) 1.3971(3) 0.2939(3)
C26B C 1.3076(5) 1.4445(4) 0.2249(4)
H17B H 1.3746 1.4846 0.2356
C27B C 1.2494(5) 1.4335(4) 0.1410(4)
H18B H 1.2760 1.4666 0.0961
C28B C 1.3294(5) 1.4131(4) 0.3849(4)
O1B O 0.5800(3) 1.1654(2) 0.0033(2)
O2B O 0.6891(4) 1.0548(3) -0.0528(3)
O3B O 1.2953(4) 1.3662(3) 0.4450(2)
O4B O 1.4131(4) 1.4738(3) 0.3969(3)
O5B O 1.0976(4) 1.3665(3) 0.0391(2)
Cd1_2 Cd 0.56956(3) 0.92181(2) -0.05975(2)
Cd1A Cd -0.56956(3) 0.42181(2) 0.55975(2)
Cd1A_2 Cd 1.43044(3) 1.42181(2) 0.55975(2)
Cd1B_2 Cd 0.43044(3) 1.07819(2) 1.05975(2)
Cd1C Cd -0.43044(3) 0.57819(2) 0.44025(2)
Cd1C_2 Cd 1.56956(3) 1.57819(2) 0.44025(2)
O2_2 O 0.3109(4) 0.9452(3) 0.0528(3)
O2B_2 O 0.6891(4) 1.0548(3) 0.9472(3)
O3A O 0.2953(4) 1.1338(3) -0.0550(2)
O3C O 0.7047(4) 0.8662(3) 1.0550(2)
O4A O 0.4131(4) 1.0262(3) -0.1031(3)
O4A_2 O 0.4131(4) 1.0262(3) 0.8969(3)
O4C O 0.5869(4) 0.9738(3) 0.1031(3)
O4C_2 O 0.5869(4) 0.9738(3) 1.1031(3)
loop_
_geom_bond_atom_site_label_1
_geom_bond_atom_site_label_2
_geom_bond_site_symmetry_1
_geom_bond_site_symmetry_2
Cd1 N1 1_555 1_555
N1 C5 1_555 1_555
N2 C6 1_555 1_555
N3 Cd1 1_555 1_555
C1 H1 1_555 1_555
C2 C1 1_555 1_555
H2 C2 1_555 1_555
C3 C2 1_555 1_555
H3 C3 1_555 1_555
C4 C3 1_555 1_555
H4 C4 1_555 1_555
C5 C4 1_555 1_555
C6 C1 1_555 1_555
C7 N1 1_555 1_555
C8 N3 1_555 1_555
C9 C8 1_555 1_555
H5 C9 1_555 1_555
C10 N3 1_555 1_555
H6 C10 1_555 1_555
C11 N2 1_555 1_555
H7 C11 1_555 1_555
H8 C11 1_555 1_555
C12 C11 1_555 1_555
C13 C12 1_555 1_555
H9 C13 1_555 1_555
C14 C12 1_555 1_555
H10 C14 1_555 1_555
C15 C16 1_555 1_555
C16 C17 1_555 1_555
C17 H11 1_555 1_555
C18 C17 1_555 1_555
H12 C18 1_555 1_555
C19 C18 1_555 1_555
C20 C19 1_555 1_555
H13 C20 1_555 1_555
C21 C16 1_555 1_555
H14 C21 1_555 1_555
C22 C23 1_555 1_555
C23 H15 1_555 1_555
C24 C23 1_555 1_555
H16 C24 1_555 1_555
C25 C24 1_555 1_555
C26 C25 1_555 1_555
H17 C26 1_555 1_555
C27 C22 1_555 1_555
H18 C27 1_555 1_555
C28 C25 1_555 1_555
O1 Cd1 1_555 1_555
O2 C15 1_555 1_555
O3 C28 1_555 1_555
O4 C28 1_555 1_555
O5 C19 1_555 1_555
S1 C9 1_555 1_555
N1B C5B 1_555 1_555
N2B C6B 1_555 1_555
N3B C8B 1_555 1_555
C1B H1B 1_555 1_555
C2B C1B 1_555 1_555
H2B C2B 1_555 1_555
C3B C2B 1_555 1_555
H3B C3B 1_555 1_555
C4B C3B 1_555 1_555
H4B C4B 1_555 1_555
C5B C4B 1_555 1_555
C6B C1B 1_555 1_555
C7B N1B 1_555 1_555
C8B C7B 1_555 1_555
C9B C8B 1_555 1_555
H5B C9B 1_555 1_555
C10B N3B 1_555 1_555
H6B C10B 1_555 1_555
C11B N2B 1_555 1_555
H7B C11B 1_555 1_555
H8B C11B 1_555 1_555
C12B C11B 1_555 1_555
C13B C14 1_555 1_555
H9B C13B 1_555 1_555
C14B C13 1_555 1_555
H10B C14B 1_555 1_555
S1B C9B 1_555 1_555
Cd1B N1B 1_555 1_555
C15B C16B 1_555 1_555
C16B C17B 1_555 1_555
C17B H11B 1_555 1_555
C18B C17B 1_555 1_555
H12B C18B 1_555 1_555
C19B C18B 1_555 1_555
C20B C19B 1_555 1_555
H13B C20B 1_555 1_555
C21B C16B 1_555 1_555
H14B C21B 1_555 1_555
C22B C23B 1_555 1_555
C23B H15B 1_555 1_555
C24B C23B 1_555 1_555
H16B C24B 1_555 1_555
C25B C24B 1_555 1_555
C26B C25B 1_555 1_555
H17B C26B 1_555 1_555
C27B C22B 1_555 1_555
H18B C27B 1_555 1_555
C28B C25B 1_555 1_555
O1B Cd1B 1_555 1_555
O2B C15B 1_555 1_555
O3B C28B 1_555 1_555
O4B C28B 1_555 1_555
O5B C19B 1_555 1_555
Cd1_2 O2B 1_555 1_555
Cd1A O4 1_555 1_555
Cd1A_2 O3B 1_555 1_555
Cd1B_2 O2 1_555 1_555
Cd1C O3 1_555 1_555
Cd1C_2 O4B 1_555 1_555
O2_2 Cd1B 1_555 1_555
O2B_2 Cd1 1_555 1_555
O3A Cd1B 1_555 1_555
O3C Cd1 1_555 1_555
O4A Cd1B 1_555 1_555
O4A_2 Cd1 1_555 1_555
O4C Cd1B 1_555 1_555
O4C_2 Cd1 1_555 1_555
N2 C7 1_555 1_555
C5 C6 1_555 1_555
C7 C8 1_555 1_555
C10 S1 1_555 1_555
C15 O1 1_555 1_555
C20 C21 1_555 1_555
C22 O5 1_555 1_555
C26 C27 1_555 1_555
O4 Cd1C 1_555 1_555
N2B C7B 1_555 1_555
N3B Cd1B 1_555 1_555
C5B C6B 1_555 1_555
C10B S1B 1_555 1_555
C12B C13B 1_555 1_555
C12B C14B 1_555 1_555
C15B O1B 1_555 1_555
C20B C21B 1_555 1_555
C22B O5B 1_555 1_555
C26B C27B 1_555 1_555
O4B Cd1A_2 1_555 1_555
Cd1_2 O4A 1_555 1_555
Cd1_2 O4C 1_555 1_555
Cd1B_2 O4A_2 1_555 1_555
Cd1B_2 O4C_2 1_555 1_555

#END
