
#######################################################################
#
#                 Cambridge Crystallographic Data Centre
#                                CCDC 
#
#######################################################################
#
# If this CIF has been generated from an entry in the Cambridge 
# Structural Database, then it will include bibliographic, chemical, 
# crystal, experimental, refinement or atomic coordinate data resulting 
# from the CCDC's data processing and validation procedures.
#
#######################################################################

data_NOJBAR
_symmetry_cell_setting           triclinic
_symmetry_space_group_name_H-M   'P -1'
_symmetry_Int_Tables_number      2
_space_group_name_Hall           '-P 1'
loop_
_symmetry_equiv_pos_site_id
_symmetry_equiv_pos_as_xyz
1 x,y,z
2 -x,-y,-z
_cell_length_a                   9.832(2)
_cell_length_b                   11.024(2)
_cell_length_c                   11.582(2)
_cell_angle_alpha                96.24(3)
_cell_angle_beta                 103.90(3)
_cell_angle_gamma                107.32(3)
_cell_volume                     1141.13
loop_
_atom_site_label
_atom_site_type_symbol
_atom_site_fract_x
_atom_site_fract_y
_atom_site_fract_z
O1 O 0.0915(7) 0.2598(8) 0.1252(7)
H1 H 0.0595 0.2104 0.1721
H2 H 0.1601 0.2287 0.1219
Cd1 Cd 0.45355(3) 0.95837(3) 0.83563(2)
S1 S 0.90459(17) 1.31478(16) 0.86606(17)
O2 O 0.1906(4) 0.8312(5) 0.8210(4)
O3 O 0.3380(4) 0.7437(3) 0.7596(3)
O4 O 0.5591(4) 0.9012(3) 1.0100(3)
O5 O 0.6786(5) 0.8480(4) 0.8875(4)
N1 N 0.3989(4) 1.0302(4) 0.6555(3)
N2 N 0.4607(5) 1.1556(4) 0.5254(3)
N3 N 0.6668(4) 1.1250(4) 0.8242(4)
C1 C 0.2786(5) 0.9953(5) 0.5527(4)
C2 C 0.1392(6) 0.8975(5) 0.5240(5)
H3 H 0.1112 0.8422 0.5757
C3 C 0.0485(7) 0.8923(7) 0.4117(5)
H4 H -0.0453 0.8292 0.3877
C4 C 0.0811(8) 0.9667(7) 0.3360(6)
H5 H 0.0097 0.9547 0.2627
C5 C 0.2166(8) 1.0629(6) 0.3593(5)
H6 H 0.2408 1.1158 0.3048
C6 C 0.3124(6) 1.0732(5) 0.4706(4)
C7 C 0.5042(5) 1.1252(4) 0.6352(4)
C8 C 0.6496(5) 1.1848(4) 0.7277(5)
C9 C 0.7659(6) 1.2892(5) 0.7322(5)
H7 H 0.7710 1.3396 0.6730
C10 C 0.7938(6) 1.1832(5) 0.9025(5)
H8 H 0.8233 1.1553 0.9744
C11 C 0.5446(7) 1.2513(5) 0.4678(5)
H9 H 0.5170 1.2167 0.3816
H10 H 0.6499 1.2659 0.5008
C12 C 0.5181(5) 1.3793(4) 0.4856(4)
C13 C 0.5175(6) 1.4386(5) 0.5961(4)
H11 H 0.5279 1.3967 0.6616
C14 C 0.4984(6) 1.4404(4) 0.3883(4)
H12 H 0.4959 1.4006 0.3124
C15 C 0.2217(7) 0.7332(6) 0.7816(5)
C16 C 0.1073(9) 0.5973(7) 0.7609(6)
H13 H 0.1533 0.5418 0.8031
H14 H 0.0255 0.6021 0.7920
C17 C 0.0499(7) 0.5419(6) 0.6243(6)
C18 C 0.1197(7) 0.4761(7) 0.5696(7)
H15 H 0.2015 0.4595 0.6153
C19 C -0.0690(8) 0.5674(7) 0.5560(7)
H16 H -0.1166 0.6142 0.5935
C20 C 0.6462(5) 0.8454(4) 0.9843(4)
C21 C 0.7021(6) 0.7682(4) 1.0731(5)
H17 H 0.7058 0.8046 1.1543
H18 H 0.8018 0.7717 1.0727
C22 C 0.5981(5) 0.6284(4) 1.0368(4)
C23 C 0.6315(6) 0.5337(5) 0.9705(5)
H19 H 0.7206 0.5554 0.9503
C24 C 0.4657(6) 0.5911(5) 1.0654(5)
H20 H 0.4414 0.6524 1.1104
S1A S 0.09541(17) 1.68522(16) 0.13394(17)
N1A N 0.6011(4) 1.9698(4) 0.3445(3)
N2A N 0.5393(5) 1.8444(4) 0.4746(3)
N3A N 0.3332(4) 1.8750(4) 0.1758(4)
C1A C 0.7214(5) 2.0047(5) 0.4473(4)
C2A C 0.8608(6) 2.1025(5) 0.4760(5)
H3A H 0.8888 2.1578 0.4243
C3A C 0.9515(7) 2.1077(7) 0.5883(5)
H4A H 1.0453 2.1708 0.6123
C4A C 0.9189(8) 2.0333(7) 0.6640(6)
H5A H 0.9903 2.0453 0.7373
C5A C 0.7834(8) 1.9371(6) 0.6407(5)
H6A H 0.7592 1.8842 0.6952
C6A C 0.6876(6) 1.9268(5) 0.5294(4)
C7A C 0.4958(5) 1.8748(4) 0.3648(4)
C8A C 0.3504(5) 1.8152(4) 0.2723(5)
C9A C 0.2341(6) 1.7108(5) 0.2678(5)
H7A H 0.2290 1.6604 0.3270
C10A C 0.2062(6) 1.8168(5) 0.0975(5)
H8A H 0.1767 1.8447 0.0256
C11A C 0.4554(7) 1.7487(5) 0.5322(5)
H9A H 0.4830 1.7833 0.6184
H10A H 0.3501 1.7341 0.4992
C12A C 0.4819(5) 1.6207(4) 0.5144(4)
C13A C 0.4825(6) 1.5614(5) 0.4039(4)
H11A H 0.4721 1.6033 0.3384
C14A C 0.5016(6) 1.5596(4) 0.6117(4)
H12A H 0.5041 1.5994 0.6876
O2A O -0.1906(4) 0.1688(5) 0.1790(4)
O3A O -0.3380(4) 0.2563(3) 0.2404(3)
C15A C -0.2217(7) 0.2668(6) 0.2184(5)
C16A C -0.1073(9) 0.4027(7) 0.2391(6)
H13A H -0.1533 0.4582 0.1969
H14A H -0.0255 0.3979 0.2080
C17A C -0.0499(7) 0.4581(6) 0.3757(6)
C18A C -0.1197(7) 0.5239(7) 0.4304(7)
H15A H -0.2015 0.5405 0.3847
C19A C 0.0690(8) 0.4326(7) 0.4440(7)
H16A H 0.1166 0.3858 0.4065
O4A O 0.4409(4) 0.0988(3) 0.9900(3)
O5A O 0.3214(5) 0.1520(4) 1.1125(4)
C20A C 0.3538(5) 0.1546(4) 1.0157(4)
C21A C 0.2979(6) 0.2318(4) 0.9269(5)
H17A H 0.2942 0.1954 0.8457
H18A H 0.1982 0.2283 0.9273
C22A C 0.4019(5) 0.3716(4) 0.9632(4)
C23A C 0.3685(6) 0.4663(5) 1.0295(5)
H19A H 0.2794 0.4446 1.0497
C24A C 0.5343(6) 0.4089(5) 0.9346(5)
H20A H 0.5586 0.3476 0.8896
Cd1A Cd -0.45355(3) 0.04163(3) 0.16437(2)
Cd1_2 Cd 0.45355(3) -0.04163(3) 0.83563(2)
Cd1A_2 Cd 0.54645(3) 0.04163(3) 1.16437(2)
Cd1A_3 Cd 0.54645(3) 1.04163(3) 1.16437(2)
Cd1A_4 Cd 0.54645(3) 2.04163(3) 0.16437(2)
O4_2 O -0.4409(4) -0.0988(3) 0.0100(3)
O4A_2 O -0.5591(4) 0.0988(3) -0.0100(3)
O4A_3 O 0.4409(4) 1.0988(3) 0.9900(3)
O5A_2 O -0.6786(5) 0.1520(4) 0.1125(4)
N1A_2 N -0.3989(4) -0.0302(4) 0.3445(3)
N3A_2 N -0.6668(4) -0.1250(4) 0.1758(4)
loop_
_geom_bond_atom_site_label_1
_geom_bond_atom_site_label_2
_geom_bond_site_symmetry_1
_geom_bond_site_symmetry_2
O1 H1 1_555 1_555
H2 O1 1_555 1_555
Cd1 O2 1_555 1_555
S1 C9 1_555 1_555
O2 C15 1_555 1_555
O3 Cd1 1_555 1_555
O4 Cd1 1_555 1_555
O5 Cd1 1_555 1_555
N1 Cd1 1_555 1_555
N2 C6 1_555 1_555
N3 Cd1 1_555 1_555
C1 N1 1_555 1_555
C2 C1 1_555 1_555
H3 C2 1_555 1_555
C3 C2 1_555 1_555
H4 C3 1_555 1_555
C4 C3 1_555 1_555
H5 C4 1_555 1_555
C5 C4 1_555 1_555
H6 C5 1_555 1_555
C6 C1 1_555 1_555
C7 N1 1_555 1_555
C8 N3 1_555 1_555
C9 C8 1_555 1_555
H7 C9 1_555 1_555
C10 S1 1_555 1_555
H8 C10 1_555 1_555
C11 N2 1_555 1_555
H9 C11 1_555 1_555
H10 C11 1_555 1_555
C12 C11 1_555 1_555
C13 C12 1_555 1_555
H11 C13 1_555 1_555
C14 C12 1_555 1_555
H12 C14 1_555 1_555
C15 O3 1_555 1_555
C16 C15 1_555 1_555
H13 C16 1_555 1_555
H14 C16 1_555 1_555
C17 C16 1_555 1_555
C18 C17 1_555 1_555
H15 C18 1_555 1_555
C19 C17 1_555 1_555
H16 C19 1_555 1_555
C20 O4 1_555 1_555
C21 C20 1_555 1_555
H17 C21 1_555 1_555
H18 C21 1_555 1_555
C22 C21 1_555 1_555
C23 C22 1_555 1_555
H19 C23 1_555 1_555
C24 C22 1_555 1_555
H20 C24 1_555 1_555
S1A C9A 1_555 1_555
N1A C1A 1_555 1_555
N2A C6A 1_555 1_555
N3A C8A 1_555 1_555
C1A C2A 1_555 1_555
C2A H3A 1_555 1_555
C3A C2A 1_555 1_555
H4A C3A 1_555 1_555
C4A C3A 1_555 1_555
H5A C4A 1_555 1_555
C5A C4A 1_555 1_555
H6A C5A 1_555 1_555
C6A C1A 1_555 1_555
C7A N1A 1_555 1_555
C8A C7A 1_555 1_555
C9A C8A 1_555 1_555
H7A C9A 1_555 1_555
C10A S1A 1_555 1_555
H8A C10A 1_555 1_555
C11A N2A 1_555 1_555
H9A C11A 1_555 1_555
H10A C11A 1_555 1_555
C12A C11A 1_555 1_555
C13A C14 1_555 1_555
H11A C13A 1_555 1_555
C14A C13 1_555 1_555
H12A C14A 1_555 1_555
O2A C15A 1_555 1_555
O3A C15A 1_555 1_555
C15A C16A 1_555 1_555
C16A H13A 1_555 1_555
H14A C16A 1_555 1_555
C17A C16A 1_555 1_555
C18A C19 1_555 1_555
H15A C18A 1_555 1_555
C19A C18 1_555 1_555
H16A C19A 1_555 1_555
O4A C20A 1_555 1_555
O5A C20A 1_555 1_555
C20A C21A 1_555 1_555
C21A H17A 1_555 1_555
H18A C21A 1_555 1_555
C22A C21A 1_555 1_555
C23A C24 1_555 1_555
H19A C23A 1_555 1_555
C24A C23 1_555 1_555
H20A C24A 1_555 1_555
Cd1A O2A 1_555 1_555
Cd1_2 O4A 1_555 1_555
Cd1A_2 O4A 1_555 1_555
Cd1A_3 O4 1_555 1_555
Cd1A_4 N1A 1_555 1_555
O4_2 Cd1A 1_555 1_555
O4A_2 Cd1A 1_555 1_555
O4A_3 Cd1 1_555 1_555
O5A_2 Cd1A 1_555 1_555
N1A_2 Cd1A 1_555 1_555
N3A_2 Cd1A 1_555 1_555
O5 C20 1_555 1_555
N2 C7 1_555 1_555
N3 C10 1_555 1_555
C5 C6 1_555 1_555
C7 C8 1_555 1_555
N2A C7A 1_555 1_555
N3A C10A 1_555 1_555
N3A Cd1A_4 1_555 1_555
C5A C6A 1_555 1_555
C12A C13A 1_555 1_555
C12A C14A 1_555 1_555
O3A Cd1A 1_555 1_555
C17A C18A 1_555 1_555
C17A C19A 1_555 1_555
O5A Cd1A_2 1_555 1_555
C22A C23A 1_555 1_555
C22A C24A 1_555 1_555
Cd1A_3 O4A_3 1_555 1_555

#END
