
#######################################################################
#
#                 Cambridge Crystallographic Data Centre
#                                CCDC 
#
#######################################################################
#
# If this CIF has been generated from an entry in the Cambridge 
# Structural Database, then it will include bibliographic, chemical, 
# crystal, experimental, refinement or atomic coordinate data resulting 
# from the CCDC's data processing and validation procedures.
#
#######################################################################

data_NOJBIZ
_symmetry_cell_setting           triclinic
_symmetry_space_group_name_H-M   'P -1'
_symmetry_Int_Tables_number      2
_space_group_name_Hall           '-P 1'
loop_
_symmetry_equiv_pos_site_id
_symmetry_equiv_pos_as_xyz
1 x,y,z
2 -x,-y,-z
_cell_length_a                   11.485(2)
_cell_length_b                   13.885(3)
_cell_length_c                   14.930(3)
_cell_angle_alpha                64.87(3)
_cell_angle_beta                 86.91(3)
_cell_angle_gamma                74.59(3)
_cell_volume                     2073.28
loop_
_atom_site_label
_atom_site_type_symbol
_atom_site_fract_x
_atom_site_fract_y
_atom_site_fract_z
Cd1 Cd 0.39195(3) -0.12835(3) 0.39600(3)
Cd2 Cd 1.07609(3) 0.14972(3) 0.13902(3)
N1 N 0.5184(4) -0.2127(4) 0.5462(3)
N2 N 0.5090(3) -0.3007(3) 0.4162(3)
N3 N 0.6598(4) -0.4525(3) 0.4907(3)
N4 N 1.1104(4) 0.3168(4) 0.0937(4)
N5 N 1.1832(4) 0.2022(4) -0.0141(4)
N6 N 1.1911(4) 0.4555(4) 0.0059(4)
C1 C 0.5044(4) -0.0127(4) 0.2353(4)
C2 C 0.5634(4) 0.0540(4) 0.1468(4)
C3 C 0.5176(5) 0.0855(5) 0.0526(4)
H1 H 0.4458 0.0711 0.0430
C4 C 0.5786(5) 0.1388(5) -0.0285(4)
H2 H 0.5467 0.1614 -0.0924
C5 C 0.6860(5) 0.1585(5) -0.0148(4)
H3 H 0.7276 0.1923 -0.0693
C6 C 0.7320(4) 0.1285(4) 0.0791(4)
C7 C 0.6691(4) 0.0788(4) 0.1598(4)
H4 H 0.6977 0.0619 0.2233
C8 C 0.8524(5) 0.1439(5) 0.0954(4)
C9 C 0.1633(5) -0.1630(4) 0.4312(4)
C10 C 0.0310(4) -0.1444(4) 0.4483(4)
C11 C -0.0100(4) -0.1297(4) 0.5315(4)
H5 H 0.0453 -0.1353 0.5779
C12 C -0.1329(4) -0.1066(4) 0.5468(4)
C13 C -0.1728(5) -0.0872(4) 0.6381(5)
C14 C -0.2144(5) -0.1008(5) 0.4791(5)
H6 H -0.2967 -0.0855 0.4891
C15 C -0.1754(6) -0.1176(5) 0.3973(5)
H7 H -0.2307 -0.1163 0.3533
C16 C -0.0527(6) -0.1365(5) 0.3800(4)
H8 H -0.0267 -0.1438 0.3226
C17 C 0.5308(6) -0.1827(6) 0.6167(5)
H9 H 0.4800 -0.1196 0.6194
C18 C 0.6038(4) -0.3096(4) 0.5603(4)
C19 C 0.6819(6) -0.3508(6) 0.6417(5)
H10 H 0.7453 -0.4148 0.6613
C20 C 0.5937(4) -0.3542(4) 0.4895(4)
C21 C 0.5180(4) -0.3661(4) 0.3659(4)
C22 C 0.4489(5) -0.3502(5) 0.2852(4)
H11 H 0.3854 -0.2870 0.2546
C23 C 0.4778(6) -0.4318(5) 0.2521(5)
H12 H 0.4334 -0.4231 0.1976
C24 C 0.5718(6) -0.5268(5) 0.2982(5)
H13 H 0.5875 -0.5808 0.2745
C25 C 0.6418(6) -0.5432(5) 0.3773(5)
H14 H 0.7057 -0.6063 0.4070
C26 C 0.6133(5) -0.4612(4) 0.4114(4)
C27 C 0.7626(4) -0.5352(4) 0.5578(4)
H15 H 0.7632 -0.6072 0.5626
H16 H 0.7514 -0.5372 0.6234
C28 C 0.8845(4) -0.5141(4) 0.5259(4)
C29 C 1.1729(4) 0.3584(4) 0.0174(4)
C30 C 0.8996(5) -0.4204(5) 0.4479(5)
H17 H 0.8317 -0.3655 0.4112
C31 C 0.9866(5) -0.5941(4) 0.5771(4)
H18 H 0.9792 -0.6590 0.6294
C32 C 1.0851(5) 0.3905(5) 0.1370(5)
C33 C 1.0188(5) 0.3876(5) 0.2201(5)
H19 H 0.9834 0.3310 0.2571
C34 C 1.0113(6) 0.4775(6) 0.2419(6)
H20 H 0.9698 0.4795 0.2966
C35 C 1.0580(7) 0.5578(6) 0.1910(6)
H21 H 1.0465 0.6149 0.2104
C36 C 1.1244(6) 0.5644(5) 0.1093(6)
H22 H 1.1592 0.6221 0.0745
C37 C 1.1344(5) 0.4780(5) 0.0842(5)
C38 C 1.2125(5) 0.2996(5) -0.0466(4)
C39 C 1.2686(6) 0.3256(6) -0.1327(5)
H23 H 1.2955 0.3888 -0.1644
C40 C 1.2136(6) 0.1559(5) -0.0741(5)
H24 H 1.1989 0.0892 -0.0633
C41 C 1.2551(5) 0.5265(5) -0.0677(5)
H25 H 1.2095 0.6029 -0.0876
H26 H 1.2596 0.5116 -0.1258
C42 C 1.3823(5) 0.5108(4) -0.0305(4)
C43 C 1.4520(5) 0.4114(4) 0.0380(4)
H27 H 1.4201 0.3508 0.0645
C44 C 1.4320(5) 0.5999(4) -0.0683(4)
H28 H 1.3865 0.6680 -0.1144
O1 O 0.4240(3) -0.0526(3) 0.2210(3)
O2 O 0.5380(3) -0.0296(3) 0.3200(3)
O3 O 0.8807(4) 0.1410(5) 0.1741(4)
O4 O 0.9224(4) 0.1616(5) 0.0292(4)
O5 O 0.2335(3) -0.1688(3) 0.4957(3)
O6 O 0.1996(4) -0.1680(3) 0.3523(3)
O7 O -0.0910(5) -0.1152(4) 0.7027(3)
O8 O -0.2825(4) -0.0469(3) 0.6425(4)
O9 O 1.1910(3) -0.0202(3) 0.1653(3)
H29 H 1.2663 -0.0249 0.1644
H30 H 1.1675 -0.0636 0.2185
S1 S 0.64660(19) -0.26798(16) 0.70220(13)
S2 S 1.28295(18) 0.22775(17) -0.17455(14)
N1A N 1.4816(4) -0.7873(4) 0.4538(3)
N2A N 1.4910(3) -0.6993(3) 0.5838(3)
N3A N 1.3402(4) -0.5475(3) 0.5093(3)
C17A C 1.4692(6) -0.8173(6) 0.3833(5)
H9A H 1.5200 -0.8804 0.3806
C18A C 1.3962(4) -0.6904(4) 0.4397(4)
C19A C 1.3181(6) -0.6492(6) 0.3583(5)
H10A H 1.2547 -0.5852 0.3387
C20A C 1.4063(4) -0.6458(4) 0.5105(4)
C21A C 1.4820(4) -0.6339(4) 0.6341(4)
C22A C 1.5511(5) -0.6498(5) 0.7148(4)
H11A H 1.6146 -0.7130 0.7454
C23A C 1.5222(6) -0.5682(5) 0.7479(5)
H12A H 1.5666 -0.5769 0.8024
C24A C 1.4282(6) -0.4732(5) 0.7018(5)
H13A H 1.4125 -0.4192 0.7255
C25A C 1.3582(6) -0.4568(5) 0.6227(5)
H14A H 1.2943 -0.3937 0.5930
C26A C 1.3867(5) -0.5388(4) 0.5886(4)
C27A C 1.2374(4) -0.4648(4) 0.4422(4)
H15A H 1.2368 -0.3928 0.4374
H16A H 1.2486 -0.4628 0.3766
C28A C 1.1155(4) -0.4859(4) 0.4741(4)
C30A C 1.1004(5) -0.5796(5) 0.5521(5)
H17A H 1.1683 -0.6345 0.5888
C31A C 1.0134(5) -0.4059(4) 0.4229(4)
H18A H 1.0208 -0.3410 0.3706
S1A S 1.35340(19) -0.73202(16) 0.29780(13)
N4A N 1.8896(4) 0.6832(4) -0.0937(4)
N5A N 1.8168(4) 0.7978(4) 0.0141(4)
N6A N 1.8089(4) 0.5445(4) -0.0059(4)
C29A C 1.8271(4) 0.6416(4) -0.0174(4)
C32A C 1.9149(5) 0.6095(5) -0.1370(5)
C33A C 1.9812(5) 0.6124(5) -0.2201(5)
H19A H 2.0166 0.6690 -0.2571
C34A C 1.9887(6) 0.5225(6) -0.2419(6)
H20A H 2.0302 0.5205 -0.2966
C35A C 1.9420(7) 0.4422(6) -0.1910(6)
H21A H 1.9535 0.3851 -0.2104
C36A C 1.8756(6) 0.4356(5) -0.1093(6)
H22A H 1.8408 0.3779 -0.0745
C37A C 1.8656(5) 0.5220(5) -0.0842(5)
C38A C 1.7875(5) 0.7004(5) 0.0466(4)
C39A C 1.7314(6) 0.6744(6) 0.1327(5)
H23A H 1.7045 0.6112 0.1644
C40A C 1.7864(6) 0.8441(5) 0.0741(5)
H24A H 1.8011 0.9108 0.0633
C41A C 1.7449(5) 0.4735(5) 0.0677(5)
H25A H 1.7905 0.3971 0.0876
H26A H 1.7404 0.4884 0.1258
C42A C 1.6177(5) 0.4892(4) 0.0305(4)
C43A C 1.5480(5) 0.5886(4) -0.0380(4)
H27A H 1.5799 0.6492 -0.0645
C44A C 1.5680(5) 0.4001(4) 0.0683(4)
H28A H 1.6135 0.3320 0.1144
S2A S 1.71705(18) 0.77225(17) 0.17455(14)
Cd1A Cd -0.39195(3) 0.12835(3) 0.60400(3)
Cd2A Cd -1.07609(3) -0.14972(3) 0.86098(3)
C1A C -0.5044(4) 0.0127(4) 0.7647(4)
C2A C -0.5634(4) -0.0540(4) 0.8532(4)
C3A C -0.5176(5) -0.0855(5) 0.9474(4)
H1A H -0.4458 -0.0711 0.9570
C4A C -0.5786(5) -0.1388(5) 1.0285(4)
H2A H -0.5467 -0.1614 1.0924
C5A C -0.6860(5) -0.1585(5) 1.0148(4)
H3A H -0.7276 -0.1923 1.0693
C6A C -0.7320(4) -0.1285(4) 0.9209(4)
C7A C -0.6691(4) -0.0788(4) 0.8402(4)
H4A H -0.6977 -0.0619 0.7767
C8A C -0.8524(5) -0.1439(5) 0.9046(4)
C9A C -0.1633(5) 0.1630(4) 0.5688(4)
C10A C -0.0310(4) 0.1444(4) 0.5517(4)
C11A C 0.0100(4) 0.1297(4) 0.4685(4)
H5A H -0.0453 0.1353 0.4221
C12A C 0.1329(4) 0.1066(4) 0.4532(4)
C13A C 0.1728(5) 0.0872(4) 0.3619(5)
C14A C 0.2144(5) 0.1008(5) 0.5209(5)
H6A H 0.2967 0.0855 0.5109
C15A C 0.1754(6) 0.1176(5) 0.6027(5)
H7A H 0.2307 0.1163 0.6467
C16A C 0.0527(6) 0.1365(5) 0.6200(4)
H8A H 0.0267 0.1438 0.6774
O1A O -0.4240(3) 0.0526(3) 0.7790(3)
O2A O -0.5380(3) 0.0296(3) 0.6800(3)
O3A O -0.8807(4) -0.1410(5) 0.8259(4)
O4A O -0.9224(4) -0.1616(5) 0.9708(4)
O5A O -0.2335(3) 0.1688(3) 0.5043(3)
O6A O -0.1996(4) 0.1680(3) 0.6477(3)
O7A O 0.0910(5) 0.1152(4) 0.2973(3)
O8A O 0.2825(4) 0.0469(3) 0.3575(4)
O9A O -1.1910(3) 0.0202(3) 0.8347(3)
H29A H -1.2663 0.0249 0.8356
H30A H -1.1675 0.0636 0.7815
Cd1A_2 Cd 1.60805(3) -0.87165(3) 0.60400(3)
Cd2_2 Cd 0.07609(3) 0.14972(3) 0.13902(3)
Cd2A_2 Cd -0.07609(3) -0.14972(3) 0.86098(3)
Cd2A_3 Cd 1.92391(3) 0.85028(3) -0.13902(3)
N1A_2 N -0.5184(4) 0.2127(4) 0.4538(3)
N2A_2 N -0.5090(3) 0.3007(3) 0.5838(3)
N4A_2 N -1.1104(4) -0.3168(4) 0.9063(4)
N5A_2 N -1.1832(4) -0.2022(4) 1.0141(4)
O7_2 O -1.0910(5) -0.1152(4) 0.7027(3)
O7A_2 O 1.0910(5) 0.1152(4) 0.2973(3)
O10 O 0.0469(10) -0.1786(10) 0.1642(7)
H31 H 0.0388 -0.1101 0.1288
H32 H 0.1001 -0.2198 0.1446
O11 O 0.7429(5) 0.2369(5) 0.2929(4)
H33 H 0.7670 0.2216 0.3515
H34 H 0.7837 0.1902 0.2726
loop_
_geom_bond_atom_site_label_1
_geom_bond_atom_site_label_2
_geom_bond_site_symmetry_1
_geom_bond_site_symmetry_2
Cd1 N1 1_555 1_555
Cd2 N4 1_555 1_555
N1 C17 1_555 1_555
N2 Cd1 1_555 1_555
N3 C20 1_555 1_555
N4 C29 1_555 1_555
N5 Cd2 1_555 1_555
N6 C29 1_555 1_555
C1 C2 1_555 1_555
C2 C3 1_555 1_555
C3 H1 1_555 1_555
C4 C3 1_555 1_555
H2 C4 1_555 1_555
C5 C4 1_555 1_555
H3 C5 1_555 1_555
C6 C5 1_555 1_555
C7 C2 1_555 1_555
H4 C7 1_555 1_555
C8 C6 1_555 1_555
C9 C10 1_555 1_555
C10 C11 1_555 1_555
C11 H5 1_555 1_555
C12 C11 1_555 1_555
C13 C12 1_555 1_555
C14 C12 1_555 1_555
H6 C14 1_555 1_555
C15 C14 1_555 1_555
H7 C15 1_555 1_555
C16 C10 1_555 1_555
H8 C16 1_555 1_555
C17 H9 1_555 1_555
C18 N1 1_555 1_555
C19 C18 1_555 1_555
H10 C19 1_555 1_555
C20 N2 1_555 1_555
C21 N2 1_555 1_555
C22 C21 1_555 1_555
H11 C22 1_555 1_555
C23 C22 1_555 1_555
H12 C23 1_555 1_555
C24 C23 1_555 1_555
H13 C24 1_555 1_555
C25 C24 1_555 1_555
H14 C25 1_555 1_555
C26 N3 1_555 1_555
C27 N3 1_555 1_555
H15 C27 1_555 1_555
H16 C27 1_555 1_555
C28 C27 1_555 1_555
C29 C38 1_555 1_555
C30 C28 1_555 1_555
H17 C30 1_555 1_555
C31 C28 1_555 1_555
H18 C31 1_555 1_555
C32 N4 1_555 1_555
C33 C32 1_555 1_555
H19 C33 1_555 1_555
C34 C33 1_555 1_555
H20 C34 1_555 1_555
C35 C34 1_555 1_555
H21 C35 1_555 1_555
C36 C35 1_555 1_555
H22 C36 1_555 1_555
C37 N6 1_555 1_555
C38 N5 1_555 1_555
C39 C38 1_555 1_555
H23 C39 1_555 1_555
C40 N5 1_555 1_555
H24 C40 1_555 1_555
C41 N6 1_555 1_555
H25 C41 1_555 1_555
H26 C41 1_555 1_555
C42 C41 1_555 1_555
C43 C42 1_555 1_555
H27 C43 1_555 1_555
C44 C42 1_555 1_555
H28 C44 1_555 1_555
O1 Cd1 1_555 1_555
O2 Cd1 1_555 1_555
O3 Cd2 1_555 1_555
O4 Cd2 1_555 1_555
O5 Cd1 1_555 1_555
O6 Cd1 1_555 1_555
O7 C13 1_555 1_555
O8 C13 1_555 1_555
O9 Cd2 1_555 1_555
H29 O9 1_555 1_555
H30 O9 1_555 1_555
S1 C17 1_555 1_555
S2 C39 1_555 1_555
O10 H31 1_555 1_555
H32 O10 1_555 1_555
O11 H33 1_555 1_555
H34 O11 1_555 1_555
N1A C17A 1_555 1_555
N2A C20A 1_555 1_555
N3A C20A 1_555 1_555
C17A H9A 1_555 1_555
C18A N1A 1_555 1_555
C19A C18A 1_555 1_555
H10A C19A 1_555 1_555
C20A C18A 1_555 1_555
C21A N2A 1_555 1_555
C22A C21A 1_555 1_555
H11A C22A 1_555 1_555
C23A C22A 1_555 1_555
H12A C23A 1_555 1_555
C24A C23A 1_555 1_555
H13A C24A 1_555 1_555
C25A C24A 1_555 1_555
H14A C25A 1_555 1_555
C26A N3A 1_555 1_555
C27A N3A 1_555 1_555
H15A C27A 1_555 1_555
H16A C27A 1_555 1_555
C28A C27A 1_555 1_555
C30A C31 1_555 1_555
H17A C30A 1_555 1_555
C31A C30 1_555 1_555
H18A C31A 1_555 1_555
S1A C17A 1_555 1_555
N4A C29A 1_555 1_555
N5A C38A 1_555 1_555
N6A C29A 1_555 1_555
C29A C38A 1_555 1_555
C32A N4A 1_555 1_555
C33A C32A 1_555 1_555
H19A C33A 1_555 1_555
C34A C33A 1_555 1_555
H20A C34A 1_555 1_555
C35A C34A 1_555 1_555
H21A C35A 1_555 1_555
C36A C35A 1_555 1_555
H22A C36A 1_555 1_555
C37A N6A 1_555 1_555
C38A C39A 1_555 1_555
C39A H23A 1_555 1_555
C40A N5A 1_555 1_555
H24A C40A 1_555 1_555
C41A N6A 1_555 1_555
H25A C41A 1_555 1_555
H26A C41A 1_555 1_555
C42A C41A 1_555 1_555
C43A C44 1_555 1_555
H27A C43A 1_555 1_555
C44A C43 1_555 1_555
H28A C44A 1_555 1_555
S2A C39A 1_555 1_555
Cd1A O8 1_555 1_555
Cd2A O3A 1_555 1_555
C1A C2A 1_555 1_555
C2A C3A 1_555 1_555
C3A H1A 1_555 1_555
C4A C3A 1_555 1_555
H2A C4A 1_555 1_555
C5A C4A 1_555 1_555
H3A C5A 1_555 1_555
C6A C5A 1_555 1_555
C7A C2A 1_555 1_555
H4A C7A 1_555 1_555
C8A C6A 1_555 1_555
C9A C10A 1_555 1_555
C10A C11A 1_555 1_555
C11A H5A 1_555 1_555
C12A C11A 1_555 1_555
C13A C12A 1_555 1_555
C14A C12A 1_555 1_555
H6A C14A 1_555 1_555
C15A C14A 1_555 1_555
H7A C15A 1_555 1_555
C16A C10A 1_555 1_555
H8A C16A 1_555 1_555
O1A Cd1A 1_555 1_555
O2A Cd1A 1_555 1_555
O3A C8A 1_555 1_555
O4A Cd2A 1_555 1_555
O5A Cd1A 1_555 1_555
O6A Cd1A 1_555 1_555
O7A C13A 1_555 1_555
O8A Cd1 1_555 1_555
O9A Cd2A 1_555 1_555
H29A O9A 1_555 1_555
H30A O9A 1_555 1_555
Cd1A_2 N1A 1_555 1_555
Cd2_2 O7A 1_555 1_555
Cd2A_2 O7 1_555 1_555
Cd2A_3 N4A 1_555 1_555
N1A_2 Cd1A 1_555 1_555
N2A_2 Cd1A 1_555 1_555
N4A_2 Cd2A 1_555 1_555
N5A_2 Cd2A 1_555 1_555
O7_2 Cd2A 1_555 1_555
O7A_2 Cd2 1_555 1_555
C1 O1 1_555 1_555
C1 O2 1_555 1_555
C6 C7 1_555 1_555
C8 O3 1_555 1_555
C8 O4 1_555 1_555
C9 O5 1_555 1_555
C9 O6 1_555 1_555
C15 C16 1_555 1_555
C18 C20 1_555 1_555
C19 S1 1_555 1_555
C21 C26 1_555 1_555
C25 C26 1_555 1_555
C32 C37 1_555 1_555
C36 C37 1_555 1_555
C40 S2 1_555 1_555
N2A Cd1A_2 1_555 1_555
C19A S1A 1_555 1_555
C21A C26A 1_555 1_555
C25A C26A 1_555 1_555
C28A C30A 1_555 1_555
C28A C31A 1_555 1_555
N5A Cd2A_3 1_555 1_555
C32A C37A 1_555 1_555
C36A C37A 1_555 1_555
C40A S2A 1_555 1_555
C42A C43A 1_555 1_555
C42A C44A 1_555 1_555
C1A O1A 1_555 1_555
C1A O2A 1_555 1_555
C6A C7A 1_555 1_555
C8A O4A 1_555 1_555
C9A O5A 1_555 1_555
C9A O6A 1_555 1_555
C13A O8A 1_555 1_555
C15A C16A 1_555 1_555

#END
