
#######################################################################
#
#                 Cambridge Crystallographic Data Centre
#                                CCDC 
#
#######################################################################
#
# If this CIF has been generated from an entry in the Cambridge 
# Structural Database, then it will include bibliographic, chemical, 
# crystal, experimental, refinement or atomic coordinate data resulting 
# from the CCDC's data processing and validation procedures.
#
#######################################################################

data_NOJCAS
_symmetry_cell_setting           triclinic
_symmetry_space_group_name_H-M   'P -1'
_symmetry_Int_Tables_number      2
_space_group_name_Hall           '-P 1'
loop_
_symmetry_equiv_pos_site_id
_symmetry_equiv_pos_as_xyz
1 x,y,z
2 -x,-y,-z
_cell_length_a                   12.641(3)
_cell_length_b                   13.016(3)
_cell_length_c                   14.051(3)
_cell_angle_alpha                91.81(3)
_cell_angle_beta                 99.84(3)
_cell_angle_gamma                90.67(3)
_cell_volume                     2276.39
loop_
_atom_site_label
_atom_site_type_symbol
_atom_site_fract_x
_atom_site_fract_y
_atom_site_fract_z
Cd1 Cd 0.79351(3) 0.86035(4) 0.52504(3)
Cd2 Cd 0.07052(4) 0.68898(4) -0.39730(3)
S1 S 0.5623(2) 0.56442(19) 0.4096(2)
S2 S 0.20553(18) 1.01845(15) -0.24363(16)
O1 O 0.9012(4) 1.0111(4) 0.5688(3)
O2 O 0.7939(4) 0.9611(4) 0.6668(4)
O3 O 0.1457(5) 0.5678(4) -0.4892(4)
H1 H 0.1109 0.5322 -0.5363
H2 H 0.1541 0.5269 -0.4426
O4 O 0.9450(4) 1.2335(4) 0.5405(3)
O5 O 1.1076(4) 1.1689(4) 0.5929(3)
O6 O 0.8868(5) 1.0702(5) 1.0124(4)
O7 O 1.0880(4) 1.2363(4) 1.3782(3)
O8 O 1.2263(4) 1.2698(5) 1.3064(4)
O9 O 1.0305(4) 1.4535(4) 1.3604(4)
O10 O 1.0961(6) 1.5505(5) 1.2567(5)
N1 N 0.6421(4) 0.9325(5) 0.4407(4)
N2 N 0.4832(4) 0.9196(4) 0.3430(4)
N3 N 0.6709(5) 0.7282(5) 0.4614(5)
N4 N 0.3551(4) 0.6881(5) -0.1655(4)
N5 N 0.2087(4) 0.6464(4) -0.2732(4)
N6 N 0.1595(4) 0.8417(4) -0.3224(4)
C1 C 0.6711(7) 0.6275(6) 0.4707(6)
H3 H 0.7272 0.5940 0.5083
C2 C 0.5093(7) 0.6784(6) 0.3686(6)
H4 H 0.4435 0.6852 0.3283
C3 C 0.5775(5) 0.7572(6) 0.4037(5)
C4 C 0.5658(5) 0.8673(5) 0.3941(4)
C5 C 0.5066(5) 1.0234(5) 0.3597(5)
C6 C 0.4511(6) 1.1119(6) 0.3275(6)
H5 H 0.3848 1.1073 0.2870
C7 C 0.4984(7) 1.2054(7) 0.3580(6)
H6 H 0.4645 1.2657 0.3370
C8 C 0.5972(6) 1.2107(6) 0.4203(6)
H7 H 0.6263 1.2752 0.4411
C9 C 0.6540(6) 1.1240(6) 0.4527(5)
H8 H 0.7199 1.1287 0.4939
C10 C 0.6062(5) 1.0305(5) 0.4198(5)
C11 C 0.3866(5) 0.8758(6) 0.2816(5)
H9 H 0.3309 0.9269 0.2749
H10 H 0.3612 0.8177 0.3135
C12 C 0.4045(5) 0.8404(6) 0.1812(5)
C13 C 0.3435(6) 0.7606(6) 0.1323(5)
H11 H 0.2945 0.7261 0.1628
C14 C 0.3535(6) 0.7303(6) 0.0383(5)
H12 H 0.3101 0.6773 0.0065
C15 C 0.4267(5) 0.7782(5) -0.0075(5)
C16 C 0.4904(6) 0.8576(6) 0.0419(5)
H13 H 0.5409 0.8908 0.0122
C17 C 0.4790(7) 0.8875(6) 0.1353(5)
H14 H 0.5224 0.9403 0.1674
C18 C 0.4435(6) 0.7484(6) -0.1085(5)
H15 H 0.4539 0.8105 -0.1424
H16 H 0.5087 0.7091 -0.1042
C19 C 0.3513(5) 0.5810(5) -0.1749(5)
C20 C 0.4196(6) 0.5068(7) -0.1315(6)
H17 H 0.4819 0.5243 -0.0882
C21 C 0.3903(7) 0.4064(7) -0.1559(7)
H18 H 0.4337 0.3545 -0.1276
C22 C 0.2982(7) 0.3794(6) -0.2213(6)
H19 H 0.2811 0.3103 -0.2359
C23 C 0.2313(6) 0.4547(6) -0.2654(5)
H20 H 0.1693 0.4371 -0.3091
C24 C 0.2596(5) 0.5556(5) -0.2423(5)
C25 C 0.2685(5) 0.7217(5) -0.2263(5)
C26 C 0.2366(5) 0.8268(5) -0.2415(4)
C27 C 0.2692(6) 0.9156(6) -0.1882(5)
H21 H 0.3184 0.9191 -0.1308
C28 C 0.1363(6) 0.9378(6) -0.3326(5)
H22 H 0.0866 0.9611 -0.3836
C29 C 0.8675(5) 1.0204(5) 0.6472(4)
C30 C 0.9170(5) 1.1002(5) 0.7215(4)
C31 C 0.9861(5) 1.1756(5) 0.6997(4)
C32 C 1.0356(6) 1.2438(5) 0.7730(5)
H23 H 1.0826 1.2945 0.7592
C33 C 1.0150(6) 1.2360(5) 0.8661(5)
H24 H 1.0488 1.2814 0.9146
C34 C 0.9449(5) 1.1621(5) 0.8877(4)
C35 C 0.8961(5) 1.0937(5) 0.8147(4)
H25 H 0.8491 1.0431 0.8287
C36 C 0.9247(6) 1.1489(6) 0.9881(5)
C37 C 1.0142(6) 1.1921(5) 0.6008(5)
C38 C 0.9576(5) 1.2346(5) 1.0605(4)
C39 C 0.9282(6) 1.3375(6) 1.0417(5)
H26 H 0.8886 1.3538 0.9822
C40 C 0.9582(6) 1.4124(6) 1.1112(5)
H27 H 0.9368 1.4796 1.0993
C41 C 1.0207(5) 1.3905(5) 1.2005(4)
C42 C 1.0537(5) 1.2901(5) 1.2168(4)
C43 C 1.0185(5) 1.2130(5) 1.1482(5)
H28 H 1.0364 1.1453 1.1617
C44 C 1.1290(5) 1.2651(5) 1.3066(5)
C45 C 1.0511(6) 1.4726(6) 1.2782(5)
Cd1A Cd 1.20649(3) 1.13965(4) 0.47496(3)
Cd1A_2 Cd 1.20649(3) 1.13965(4) 1.47496(3)
Cd2A Cd 0.92948(4) 1.31102(4) 0.39730(3)
Cd2A_2 Cd 0.92948(4) 1.31102(4) 1.39730(3)
O4A O 0.0550(4) 0.7665(4) -0.5405(3)
O5A O 0.8924(4) 0.8311(4) 0.4071(3)
O7A O -0.0880(4) 0.7637(4) -0.3782(3)
O7A_2 O 0.9120(4) 0.7637(4) 0.6218(3)
O9A O -0.0305(4) 0.5465(4) -0.3604(4)
O11 O 0.7309(9) 0.8955(9) 0.9677(8)
H29 H 0.7784 0.9430 0.9793
H30 H 0.7209 0.8369 0.9388
O12 O 0.7006(9) 0.7204(9) 0.8763(8)
H31 H 0.7217 0.7236 0.8222
H32 H 0.7300 0.6742 0.9129
O13 O 0.2352(5) 0.6836(6) 0.3728(5)
H33 H 0.2084 0.6499 0.4141
H34 H 0.2304 0.6503 0.3191
O14 O 0.7587(9) 0.4939(9) 0.8824(8)
H35 H 0.6967 0.4926 0.8476
H36 H 0.8036 0.5032 0.8447
loop_
_geom_bond_atom_site_label_1
_geom_bond_atom_site_label_2
_geom_bond_site_symmetry_1
_geom_bond_site_symmetry_2
Cd1 O1 1_555 1_555
Cd2 O3 1_555 1_555
S1 C1 1_555 1_555
S2 C27 1_555 1_555
O1 C29 1_555 1_555
O2 Cd1 1_555 1_555
O3 H1 1_555 1_555
H2 O3 1_555 1_555
O4 C37 1_555 1_555
O5 C37 1_555 1_555
O6 C36 1_555 1_555
O7 C44 1_555 1_555
O8 C44 1_555 1_555
O9 C45 1_555 1_555
O10 C45 1_555 1_555
N1 Cd1 1_555 1_555
N2 C4 1_555 1_555
N3 Cd1 1_555 1_555
N4 C18 1_555 1_555
N5 Cd2 1_555 1_555
N6 Cd2 1_555 1_555
C1 N3 1_555 1_555
H3 C1 1_555 1_555
C2 S1 1_555 1_555
H4 C2 1_555 1_555
C3 N3 1_555 1_555
C4 N1 1_555 1_555
C5 N2 1_555 1_555
C6 C5 1_555 1_555
H5 C6 1_555 1_555
C7 C6 1_555 1_555
H6 C7 1_555 1_555
C8 C7 1_555 1_555
H7 C8 1_555 1_555
C9 C8 1_555 1_555
H8 C9 1_555 1_555
C10 N1 1_555 1_555
C11 N2 1_555 1_555
H9 C11 1_555 1_555
H10 C11 1_555 1_555
C12 C11 1_555 1_555
C13 C12 1_555 1_555
H11 C13 1_555 1_555
C14 C13 1_555 1_555
H12 C14 1_555 1_555
C15 C14 1_555 1_555
C16 C15 1_555 1_555
H13 C16 1_555 1_555
C17 C12 1_555 1_555
H14 C17 1_555 1_555
C18 C15 1_555 1_555
H15 C18 1_555 1_555
H16 C18 1_555 1_555
C19 N4 1_555 1_555
C20 C19 1_555 1_555
H17 C20 1_555 1_555
C21 C20 1_555 1_555
H18 C21 1_555 1_555
C22 C21 1_555 1_555
H19 C22 1_555 1_555
C23 C22 1_555 1_555
H20 C23 1_555 1_555
C24 N5 1_555 1_555
C25 N4 1_555 1_555
C26 N6 1_555 1_555
C27 C26 1_555 1_555
H21 C27 1_555 1_555
C28 S2 1_555 1_555
H22 C28 1_555 1_555
C29 O2 1_555 1_555
C30 C29 1_555 1_555
C31 C30 1_555 1_555
C32 C31 1_555 1_555
H23 C32 1_555 1_555
C33 C32 1_555 1_555
H24 C33 1_555 1_555
C34 C33 1_555 1_555
C35 C30 1_555 1_555
H25 C35 1_555 1_555
C36 C34 1_555 1_555
C37 C31 1_555 1_555
C38 C36 1_555 1_555
C39 C38 1_555 1_555
H26 C39 1_555 1_555
C40 C39 1_555 1_555
H27 C40 1_555 1_555
C41 C40 1_555 1_555
C42 C41 1_555 1_555
C43 C38 1_555 1_555
H28 C43 1_555 1_555
C44 C42 1_555 1_555
C45 C41 1_555 1_555
O11 H29 1_555 1_555
H30 O11 1_555 1_555
O12 H31 1_555 1_555
H32 O12 1_555 1_555
O13 H33 1_555 1_555
H34 O13 1_555 1_555
O14 H35 1_555 1_555
H36 O14 1_555 1_555
Cd1A O5 1_555 1_555
Cd1A_2 O7 1_555 1_555
Cd2A O4 1_555 1_555
Cd2A_2 O7 1_555 1_555
O4A Cd2 1_555 1_555
O5A Cd1 1_555 1_555
O7A Cd2 1_555 1_555
O7A_2 Cd1 1_555 1_555
O9A Cd2 1_555 1_555
O9 Cd2A_2 1_555 1_555
N5 C25 1_555 1_555
N6 C28 1_555 1_555
C2 C3 1_555 1_555
C3 C4 1_555 1_555
C5 C10 1_555 1_555
C9 C10 1_555 1_555
C16 C17 1_555 1_555
C19 C24 1_555 1_555
C23 C24 1_555 1_555
C25 C26 1_555 1_555
C34 C35 1_555 1_555
C42 C43 1_555 1_555

#END
