
#######################################################################
#
#                 Cambridge Crystallographic Data Centre
#                                CCDC 
#
#######################################################################
#
# If this CIF has been generated from an entry in the Cambridge 
# Structural Database, then it will include bibliographic, chemical, 
# crystal, experimental, refinement or atomic coordinate data resulting 
# from the CCDC's data processing and validation procedures.
#
#######################################################################

data_NOJCAR01
_symmetry_cell_setting           triclinic
_symmetry_space_group_name_H-M   'P -1'
_symmetry_Int_Tables_number      2
_space_group_name_Hall           '-P 1'
loop_
_symmetry_equiv_pos_site_id
_symmetry_equiv_pos_as_xyz
1 x,y,z
2 -x,-y,-z
_cell_length_a                   12.7244(4)
_cell_length_b                   12.4942(5)
_cell_length_c                   9.1120(5)
_cell_angle_alpha                89.443(4)
_cell_angle_beta                 93.963(4)
_cell_angle_gamma                112.757(3)
_cell_volume                     1332.44
loop_
_atom_site_label
_atom_site_type_symbol
_atom_site_fract_x
_atom_site_fract_y
_atom_site_fract_z
Mn1 Mn 0.0000 0.0000 0.0000
Mn2 Mn 0.0000 0.0000 0.5000
O1 O 0.15177(10) 0.10294(10) 0.14636(12)
O2 O 0.15343(10) 0.04249(10) 0.37956(13)
N1 N 0.28157(12) 0.34157(12) 0.24232(15)
C1 C 0.35432(19) 0.44873(16) 0.3304(2)
C2 C 0.17527(18) 0.35414(18) 0.1798(3)
C3 C 0.34960(18) 0.33002(18) 0.1194(2)
C4 C 0.25331(15) 0.23965(14) 0.34408(17)
C5 C 0.17843(13) 0.11864(14) 0.28165(17)
H1 H 0.319(2) 0.456(2) 0.412(3)
H2 H 0.3719(19) 0.512(2) 0.268(2)
H3 H 0.417(3) 0.440(2) 0.362(3)
H4 H 0.197(2) 0.426(2) 0.125(3)
H5 H 0.140(2) 0.364(2) 0.254(3)
H6 H 0.132(2) 0.289(2) 0.132(3)
H7 H 0.372(2) 0.398(2) 0.069(3)
H8 H 0.418(2) 0.320(2) 0.159(3)
H9 H 0.302(2) 0.268(2) 0.068(3)
H10 H 0.3244(18) 0.2376(17) 0.384(2)
H11 H 0.219(2) 0.2596(19) 0.432(3)
O3 O -0.02971(10) -0.15467(10) 0.12743(12)
O4 O -0.08548(10) -0.14309(10) 0.35231(12)
N2 N 0.10841(12) -0.27640(12) 0.24287(15)
C6 C -0.03650(13) -0.17882(13) 0.26114(17)
C7 C 0.01552(14) -0.26275(15) 0.32552(18)
C8 C 0.15618(16) -0.35038(16) 0.3325(2)
C9 C 0.20391(15) -0.16103(15) 0.2235(2)
C10 C 0.06425(16) -0.33424(16) 0.09487(19)
H12 H 0.0437(19) -0.2833(19) 0.032(2)
H13 H -0.003(2) -0.412(2) 0.115(2)
H14 H 0.121(2) -0.346(2) 0.055(3)
H15 H 0.231(2) -0.125(2) 0.319(3)
H16 H 0.2681(18) -0.1714(17) 0.177(2)
H17 H 0.175(2) -0.114(2) 0.166(3)
H18 H 0.184(2) -0.315(2) 0.425(3)
H19 H 0.102(2) -0.421(2) 0.346(3)
H20 H 0.216(2) -0.354(2) 0.278(3)
H21 H -0.0436(17) -0.3390(17) 0.333(2)
H22 H 0.0456(19) -0.2377(19) 0.423(2)
O5 O -0.11552(10) 0.05186(10) 0.11713(12)
O6 O -0.04735(10) 0.11088(10) 0.34845(13)
N3 N -0.34492(12) -0.04267(12) 0.21801(15)
C11 C -0.12590(14) 0.07144(13) 0.24875(17)
C12 C -0.24414(14) 0.05141(15) 0.29772(19)
C13 C -0.33107(17) -0.15670(16) 0.2303(2)
C14 C -0.36056(16) -0.01675(17) 0.0590(2)
C15 C -0.45030(16) -0.05202(18) 0.2910(2)
H23 H -0.5139(19) -0.1150(19) 0.242(2)
H24 H -0.442(2) -0.075(2) 0.389(3)
H25 H -0.458(2) 0.026(2) 0.275(3)
H26 H -0.432(2) -0.0744(19) 0.018(2)
H27 H -0.372(2) 0.058(2) 0.055(3)
H28 H -0.297(2) -0.016(2) 0.018(3)
H29 H -0.259(2) -0.147(2) 0.184(3)
H30 H -0.392(2) -0.216(2) 0.182(3)
H31 H -0.321(2) -0.167(2) 0.336(3)
H32 H -0.2470(18) 0.0330(18) 0.401(2)
H33 H -0.2507(19) 0.1260(19) 0.291(2)
Mn2_2 Mn 0.0000 0.0000 -0.5000
O1A O -0.15177(10) -0.10294(10) -0.14636(12)
O2A O -0.15343(10) -0.04249(10) 0.62044(13)
O2A_2 O -0.15343(10) -0.04249(10) -0.37956(13)
N1A N -0.28157(12) -0.34157(12) -0.24232(15)
C1A C -0.35432(19) -0.44873(16) -0.3304(2)
C2A C -0.17527(18) -0.35414(18) -0.1798(3)
C3A C -0.34960(18) -0.33002(18) -0.1194(2)
C4A C -0.25331(15) -0.23965(14) -0.34408(17)
C5A C -0.17843(13) -0.11864(14) -0.28165(17)
H1A H -0.319(2) -0.456(2) -0.412(3)
H2A H -0.3719(19) -0.512(2) -0.268(2)
H3A H -0.417(3) -0.440(2) -0.362(3)
H4A H -0.197(2) -0.426(2) -0.125(3)
H5A H -0.140(2) -0.364(2) -0.254(3)
H6A H -0.132(2) -0.289(2) -0.132(3)
H7A H -0.372(2) -0.398(2) -0.069(3)
H8A H -0.418(2) -0.320(2) -0.159(3)
H9A H -0.302(2) -0.268(2) -0.068(3)
H10A H -0.3244(18) -0.2376(17) -0.384(2)
H11A H -0.219(2) -0.2596(19) -0.432(3)
O3A O 0.02971(10) 0.15467(10) -0.12743(12)
O4A O 0.08548(10) 0.14309(10) 0.64769(12)
O4A_2 O 0.08548(10) 0.14309(10) -0.35231(12)
N2A N -0.10841(12) 0.27640(12) -0.24287(15)
C6A C 0.03650(13) 0.17882(13) -0.26114(17)
C7A C -0.01552(14) 0.26275(15) -0.32552(18)
C8A C -0.15618(16) 0.35038(16) -0.3325(2)
C9A C -0.20391(15) 0.16103(15) -0.2235(2)
C10A C -0.06425(16) 0.33424(16) -0.09487(19)
H12A H -0.0437(19) 0.2833(19) -0.032(2)
H13A H 0.003(2) 0.412(2) -0.115(2)
H14A H -0.121(2) 0.346(2) -0.055(3)
H15A H -0.231(2) 0.125(2) -0.319(3)
H16A H -0.2681(18) 0.1714(17) -0.177(2)
H17A H -0.175(2) 0.114(2) -0.166(3)
H18A H -0.184(2) 0.315(2) -0.425(3)
H19A H -0.102(2) 0.421(2) -0.346(3)
H20A H -0.216(2) 0.354(2) -0.278(3)
H21A H 0.0436(17) 0.3390(17) -0.333(2)
H22A H -0.0456(19) 0.2377(19) -0.423(2)
O5A O 0.11552(10) -0.05186(10) -0.11713(12)
O6A O 0.04735(10) -0.11088(10) 0.65155(13)
O6A_2 O 0.04735(10) -0.11088(10) -0.34845(13)
N3A N 0.34492(12) 0.04267(12) -0.21801(15)
C11A C 0.12590(14) -0.07144(13) -0.24875(17)
C12A C 0.24414(14) -0.05141(15) -0.29772(19)
C13A C 0.33107(17) 0.15670(16) -0.2303(2)
C14A C 0.36056(16) 0.01675(17) -0.0590(2)
C15A C 0.45030(16) 0.05202(18) -0.2910(2)
H23A H 0.5139(19) 0.1150(19) -0.242(2)
H24A H 0.442(2) 0.075(2) -0.389(3)
H25A H 0.458(2) -0.026(2) -0.275(3)
H26A H 0.432(2) 0.0744(19) -0.018(2)
H27A H 0.372(2) -0.058(2) -0.055(3)
H28A H 0.297(2) 0.016(2) -0.018(3)
H29A H 0.259(2) 0.147(2) -0.184(3)
H30A H 0.392(2) 0.216(2) -0.182(3)
H31A H 0.321(2) 0.167(2) -0.336(3)
H32A H 0.2470(18) -0.0330(18) -0.401(2)
H33A H 0.2507(19) -0.1260(19) -0.291(2)
Mn3 Mn 0.69460(2) 0.38202(2) 0.23280(3)
Br1 Br 0.625077(15) 0.311772(16) -0.028172(19)
Br2 Br 0.694943(16) 0.578169(15) 0.26473(2)
Br3 Br 0.888336(14) 0.375694(14) 0.276982(18)
Br4 Br 0.562208(16) 0.245867(17) 0.40551(2)
loop_
_geom_bond_atom_site_label_1
_geom_bond_atom_site_label_2
_geom_bond_site_symmetry_1
_geom_bond_site_symmetry_2
Mn1 O1 1_555 1_555
Mn2 O2 1_555 1_555
O1 C5 1_555 1_555
O2 C5 1_555 1_555
N1 C1 1_555 1_555
C1 H1 1_555 1_555
C2 N1 1_555 1_555
C3 N1 1_555 1_555
C4 N1 1_555 1_555
C5 C4 1_555 1_555
H2 C1 1_555 1_555
H3 C1 1_555 1_555
H4 C2 1_555 1_555
H5 C2 1_555 1_555
H6 C2 1_555 1_555
H7 C3 1_555 1_555
H8 C3 1_555 1_555
H9 C3 1_555 1_555
H10 C4 1_555 1_555
H11 C4 1_555 1_555
O3 Mn1 1_555 1_555
O4 Mn2 1_555 1_555
N2 C7 1_555 1_555
C6 O3 1_555 1_555
C7 C6 1_555 1_555
C8 N2 1_555 1_555
C9 N2 1_555 1_555
C10 N2 1_555 1_555
H12 C10 1_555 1_555
H13 C10 1_555 1_555
H14 C10 1_555 1_555
H15 C9 1_555 1_555
H16 C9 1_555 1_555
H17 C9 1_555 1_555
H18 C8 1_555 1_555
H19 C8 1_555 1_555
H20 C8 1_555 1_555
H21 C7 1_555 1_555
H22 C7 1_555 1_555
O5 Mn1 1_555 1_555
O6 Mn2 1_555 1_555
N3 C12 1_555 1_555
C11 O5 1_555 1_555
C12 C11 1_555 1_555
C13 N3 1_555 1_555
C14 N3 1_555 1_555
C15 N3 1_555 1_555
H23 C15 1_555 1_555
H24 C15 1_555 1_555
H25 C15 1_555 1_555
H26 C14 1_555 1_555
H27 C14 1_555 1_555
H28 C14 1_555 1_555
H29 C13 1_555 1_555
H30 C13 1_555 1_555
H31 C13 1_555 1_555
H32 C12 1_555 1_555
H33 C12 1_555 1_555
Mn3 Br1 1_555 1_555
Br2 Mn3 1_555 1_555
Br3 Mn3 1_555 1_555
Br4 Mn3 1_555 1_555
Mn2_2 O2A_2 1_555 1_555
O1A Mn1 1_555 1_555
O2A Mn2 1_555 1_555
O2A_2 C5A 1_555 1_555
N1A C1A 1_555 1_555
C1A H1A 1_555 1_555
C2A N1A 1_555 1_555
C3A N1A 1_555 1_555
C4A N1A 1_555 1_555
C5A O1A 1_555 1_555
H2A C1A 1_555 1_555
H3A C1A 1_555 1_555
H4A C2A 1_555 1_555
H5A C2A 1_555 1_555
H6A C2A 1_555 1_555
H7A C3A 1_555 1_555
H8A C3A 1_555 1_555
H9A C3A 1_555 1_555
H10A C4A 1_555 1_555
H11A C4A 1_555 1_555
O3A Mn1 1_555 1_555
O4A Mn2 1_555 1_555
O4A_2 Mn2_2 1_555 1_555
N2A C7A 1_555 1_555
C6A O3A 1_555 1_555
C7A C6A 1_555 1_555
C8A N2A 1_555 1_555
C9A N2A 1_555 1_555
C10A N2A 1_555 1_555
H12A C10A 1_555 1_555
H13A C10A 1_555 1_555
H14A C10A 1_555 1_555
H15A C9A 1_555 1_555
H16A C9A 1_555 1_555
H17A C9A 1_555 1_555
H18A C8A 1_555 1_555
H19A C8A 1_555 1_555
H20A C8A 1_555 1_555
H21A C7A 1_555 1_555
H22A C7A 1_555 1_555
O5A Mn1 1_555 1_555
O6A Mn2 1_555 1_555
O6A_2 Mn2_2 1_555 1_555
N3A C12A 1_555 1_555
C11A O5A 1_555 1_555
C12A C11A 1_555 1_555
C13A N3A 1_555 1_555
C14A N3A 1_555 1_555
C15A N3A 1_555 1_555
H23A C15A 1_555 1_555
H24A C15A 1_555 1_555
H25A C15A 1_555 1_555
H26A C14A 1_555 1_555
H27A C14A 1_555 1_555
H28A C14A 1_555 1_555
H29A C13A 1_555 1_555
H30A C13A 1_555 1_555
H31A C13A 1_555 1_555
H32A C12A 1_555 1_555
H33A C12A 1_555 1_555
O4 C6 1_555 1_555
O6 C11 1_555 1_555
C4A C5A 1_555 1_555
O4A_2 C6A 1_555 1_555
O6A_2 C11A 1_555 1_555

#END
