
#######################################################################
#
#                 Cambridge Crystallographic Data Centre
#                                CCDC 
#
#######################################################################
#
# If this CIF has been generated from an entry in the Cambridge 
# Structural Database, then it will include bibliographic, chemical, 
# crystal, experimental, refinement or atomic coordinate data resulting 
# from the CCDC's data processing and validation procedures.
#
#######################################################################

data_NOJCUL
_symmetry_cell_setting           triclinic
_symmetry_space_group_name_H-M   'P -1'
_symmetry_Int_Tables_number      2
_space_group_name_Hall           '-P 1'
loop_
_symmetry_equiv_pos_site_id
_symmetry_equiv_pos_as_xyz
1 x,y,z
2 -x,-y,-z
_cell_length_a                   8.0298(7)
_cell_length_b                   8.7161(9)
_cell_length_c                   8.8201(9)
_cell_angle_alpha                115.514(2)
_cell_angle_beta                 101.7470(10)
_cell_angle_gamma                95.9990(10)
_cell_volume                     532.377
loop_
_atom_site_label
_atom_site_type_symbol
_atom_site_fract_x
_atom_site_fract_y
_atom_site_fract_z
Ce1 Ce 0.33921(2) 0.58558(2) 1.32325(2)
N1 N 0.1921(4) 0.7628(4) 1.5966(4)
N2 N 0.1556(4) 1.0173(4) 1.9097(4)
O1 O 0.3927(3) 0.5389(3) 1.5971(3)
O2 O 0.4946(3) 0.6763(4) 1.8853(3)
O3 O 0.5575(3) 0.8498(3) 1.5730(3)
O4 O 0.6890(3) 1.1263(3) 1.6700(3)
O5 O 0.2132(3) 0.4771(4) 0.9986(3)
O6 O -0.0157(3) 0.4293(4) 0.7792(3)
O7 O 0.5757(3) 0.6984(3) 1.2121(3)
H1 H 0.6535 0.6401 1.1878
H2 H 0.5255 0.7040 1.1205
O8 O 0.2021(3) 0.2812(3) 1.2493(3)
H3 H 0.1736 0.2001 1.1447
H4 H 0.2566 0.2414 1.3126
C1 C 0.3960(4) 0.6567(4) 1.7474(5)
C2 C 0.2763(4) 0.7791(4) 1.7518(5)
C3 C 0.2585(5) 0.9048(5) 1.9071(5)
H5 H 0.3192 0.9114 2.0122
C4 C 0.0669(5) 0.9965(5) 1.7544(5)
H6 H -0.0092 1.0689 1.7502
C5 C 0.0845(5) 0.8704(5) 1.5992(5)
H7 H 0.0197 0.8603 1.4939
C6 C 0.5713(4) 0.9932(4) 1.5705(4)
C7 C 0.0567(4) 0.4734(4) 0.9350(4)
Ce1A Ce 0.66079(2) 0.41442(2) 1.67675(2)
Ce1A_2 Ce 0.66079(2) 1.41442(2) 1.67675(2)
Ce1A_3 Ce -0.33921(2) 0.41442(2) 0.67675(2)
N1A N 0.8079(4) 0.2372(4) 1.4034(4)
N2A N 0.8444(4) -0.0173(4) 1.0903(4)
O1A O 0.6073(3) 0.4611(3) 1.4029(3)
O2A O 0.5054(3) 0.3237(4) 1.1147(3)
O3A O 0.4425(3) 1.1502(3) 1.4270(3)
O3A_2 O 0.4425(3) 0.1502(3) 1.4270(3)
O4A O 0.3110(3) 0.8737(3) 1.3300(3)
O4_2 O 0.6890(3) 0.1263(3) 1.6700(3)
O5A O -0.2132(3) 0.5229(4) 1.0014(3)
O5A_2 O 0.7868(3) 0.5229(4) 2.0014(3)
O6A O 0.0157(3) 0.5707(4) 1.2208(3)
O6_2 O 0.9843(3) 0.4293(4) 1.7792(3)
O7A O 0.4243(3) 0.3016(3) 1.7879(3)
H1A H 0.3465 0.3599 1.8122
H2A H 0.4745 0.2960 1.8795
O8A O 0.7979(3) 0.7188(3) 1.7507(3)
H3A H 0.8264 0.7999 1.8553
H4A H 0.7434 0.7586 1.6874
C1A C 0.6040(4) 0.3433(4) 1.2526(5)
C2A C 0.7237(4) 0.2209(4) 1.2482(5)
C3A C 0.7415(5) 0.0952(5) 1.0929(5)
H5A H 0.6808 0.0886 0.9878
C4A C 0.9331(5) 0.0035(5) 1.2456(5)
H6A H 1.0092 -0.0689 1.2498
C5A C 0.9155(5) 0.1296(5) 1.4008(5)
H7A H 0.9803 0.1397 1.5061
C6A C 0.4287(4) 1.0068(4) 1.4295(4)
C7A C -0.0567(4) 0.5266(4) 1.0650(4)
loop_
_geom_bond_atom_site_label_1
_geom_bond_atom_site_label_2
_geom_bond_site_symmetry_1
_geom_bond_site_symmetry_2
Ce1 N1 1_555 1_555
N1 C2 1_555 1_555
N2 C3 1_555 1_555
O1 Ce1 1_555 1_555
O2 C1 1_555 1_555
O3 Ce1 1_555 1_555
O4 C6 1_555 1_555
O5 Ce1 1_555 1_555
O6 C7 1_555 1_555
O7 Ce1 1_555 1_555
H1 O7 1_555 1_555
H2 O7 1_555 1_555
O8 Ce1 1_555 1_555
H3 O8 1_555 1_555
H4 O8 1_555 1_555
C1 O1 1_555 1_555
C2 C1 1_555 1_555
C3 C2 1_555 1_555
H5 C3 1_555 1_555
C4 N2 1_555 1_555
H6 C4 1_555 1_555
C5 N1 1_555 1_555
H7 C5 1_555 1_555
C6 O3 1_555 1_555
C7 O5 1_555 1_555
Ce1A O1 1_555 1_555
Ce1A_2 O4 1_555 1_555
Ce1A_3 O6 1_555 1_555
N1A Ce1A 1_555 1_555
N2A C3A 1_555 1_555
O1A Ce1 1_555 1_555
O2A Ce1 1_555 1_555
O3A Ce1A_2 1_555 1_555
O3A_2 Ce1A 1_555 1_555
O4A Ce1 1_555 1_555
O4_2 Ce1A 1_555 1_555
O5A Ce1A_3 1_555 1_555
O5A_2 Ce1A 1_555 1_555
O6A Ce1 1_555 1_555
O6_2 Ce1A 1_555 1_555
O7A Ce1A 1_555 1_555
H1A O7A 1_555 1_555
H2A O7A 1_555 1_555
O8A Ce1A 1_555 1_555
H3A O8A 1_555 1_555
H4A O8A 1_555 1_555
C1A O1A 1_555 1_555
C2A N1A 1_555 1_555
C3A C2A 1_555 1_555
H5A C3A 1_555 1_555
C4A N2A 1_555 1_555
H6A C4A 1_555 1_555
C5A N1A 1_555 1_555
H7A C5A 1_555 1_555
C6A C6 1_555 1_555
C7A C7 1_555 1_555
O2 Ce1A 1_555 1_555
C4 C5 1_555 1_555
Ce1A O1A 1_555 1_555
O2A C1A 1_555 1_555
O3A C6A 1_555 1_555
O4A C6A 1_555 1_555
O5A C7A 1_555 1_555
O6A C7A 1_555 1_555
C1A C2A 1_555 1_555
C4A C5A 1_555 1_555

#END
