
#######################################################################
#
#                 Cambridge Crystallographic Data Centre
#                                CCDC 
#
#######################################################################
#
# If this CIF has been generated from an entry in the Cambridge 
# Structural Database, then it will include bibliographic, chemical, 
# crystal, experimental, refinement or atomic coordinate data resulting 
# from the CCDC's data processing and validation procedures.
#
#######################################################################

data_NOJCAR
_symmetry_cell_setting           triclinic
_symmetry_space_group_name_H-M   'P -1'
_symmetry_Int_Tables_number      2
_space_group_name_Hall           '-P 1'
loop_
_symmetry_equiv_pos_site_id
_symmetry_equiv_pos_as_xyz
1 x,y,z
2 -x,-y,-z
_cell_length_a                   9.140(2)
_cell_length_b                   12.700(2)
_cell_length_c                   12.871(3)
_cell_angle_alpha                66.557(6)
_cell_angle_beta                 86.063(7)
_cell_angle_gamma                89.249(7)
_cell_volume                     1367.32
loop_
_atom_site_label
_atom_site_type_symbol
_atom_site_fract_x
_atom_site_fract_y
_atom_site_fract_z
Mn1 Mn 1.0000 0.0000 1.0000
Mn2 Mn 1.5000 0.0000 1.0000
O1 O 1.1462(3) 0.1052(3) 0.8505(3)
O2 O 1.3773(3) 0.0449(3) 0.8480(3)
C1 C 1.2801(4) 0.1200(4) 0.8221(4)
C2 C 1.3415(5) 0.2387(4) 0.7460(6)
H1 H 1.426(6) 0.258(5) 0.781(5)
H2 H 1.375(7) 0.234(5) 0.682(6)
N1 N 1.2438(4) 0.3404(3) 0.7206(4)
C3 C 1.1914(11) 0.3524(6) 0.8271(7)
H3 H 1.1203 0.4122 0.8106
H4 H 1.2728 0.3715 0.8600
H5 H 1.1472 0.2813 0.8797
C4 C 1.3320(7) 0.4447(5) 0.6441(8)
H6 H 1.3296 0.4528 0.5668
H7 H 1.4316 0.4364 0.6650
H8 H 1.2912 0.5116 0.6515
C5 C 1.1167(7) 0.3324(6) 0.6576(7)
H9 H 1.0802 0.4078 0.6166
H10 H 1.0406 0.2857 0.7104
H11 H 1.1474 0.2984 0.6053
O3 O 0.8835(3) -0.0491(3) 0.8839(3)
O4 O 0.6524(3) -0.1059(3) 0.9500(3)
C6 C 0.7526(4) -0.0671(3) 0.8728(4)
C7 C 0.7027(6) -0.0439(5) 0.7562(5)
H12 H 0.718(5) -0.112(5) 0.743(5)
H13 H 0.601(8) -0.024(6) 0.750(7)
N2 N 0.7830(4) 0.0477(3) 0.6558(4)
C8 C 0.9394(6) 0.0214(7) 0.6382(6)
H14 H 0.9462 -0.0541 0.6382
H15 H 0.9934 0.0246 0.6983
H16 H 0.9798 0.0767 0.5667
C9 C 0.7081(8) 0.0607(7) 0.5518(6)
H17 H 0.7560 0.1207 0.4868
H18 H 0.6073 0.0799 0.5602
H19 H 0.7131 -0.0101 0.5415
C10 C 0.7741(9) 0.1589(5) 0.6699(6)
H20 H 0.8302 0.2167 0.6083
H21 H 0.8128 0.1496 0.7405
H22 H 0.6736 0.1817 0.6701
O5 O 0.6456(3) 0.1430(3) 0.9163(3)
O6 O 0.8693(3) 0.1519(3) 0.9718(3)
C11 C 0.7365(4) 0.1769(3) 0.9644(4)
C12 C 0.6737(5) 0.2597(4) 1.0147(5)
H23 H 0.668(6) 0.336(5) 0.954(5)
H24 H 0.579(5) 0.235(4) 1.044(4)
N3 N 0.7558(4) 0.2747(3) 1.1054(4)
C13 C 0.6680(6) 0.3497(5) 1.1501(6)
H25 H 0.5749 0.3134 1.1829
H26 H 0.6528 0.4223 1.0891
H27 H 0.7200 0.3615 1.2070
C14 C 0.7746(7) 0.1616(5) 1.2014(5)
H28 H 0.8323 0.1127 1.1745
H29 H 0.6802 0.1265 1.2316
H30 H 0.8236 0.1731 1.2598
C15 C 0.9027(6) 0.3312(5) 1.0602(6)
H31 H 0.9568 0.3300 1.1219
H32 H 0.8897 0.4093 1.0086
H33 H 0.9557 0.2907 1.0209
Mn2_2 Mn 0.5000 0.0000 1.0000
O1A O 0.8538(3) -0.1052(3) 1.1495(3)
O2A O 0.6227(3) -0.0449(3) 1.1520(3)
O2A_2 O 1.6227(3) -0.0449(3) 1.1520(3)
C1A C 0.7199(4) -0.1200(4) 1.1779(4)
C2A C 0.6585(5) -0.2387(4) 1.2540(6)
H1A H 0.574(6) -0.258(5) 1.219(5)
H2A H 0.625(7) -0.234(5) 1.318(6)
N1A N 0.7562(4) -0.3404(3) 1.2794(4)
C3A C 0.8086(11) -0.3524(6) 1.1729(7)
H3A H 0.8797 -0.4122 1.1894
H4A H 0.7272 -0.3715 1.1400
H5A H 0.8528 -0.2813 1.1203
C4A C 0.6680(7) -0.4447(5) 1.3559(8)
H6A H 0.6704 -0.4528 1.4332
H7A H 0.5684 -0.4364 1.3350
H8A H 0.7088 -0.5116 1.3485
C5A C 0.8833(7) -0.3324(6) 1.3424(7)
H9A H 0.9198 -0.4078 1.3834
H10A H 0.9594 -0.2857 1.2896
H11A H 0.8526 -0.2984 1.3947
O3A O 1.1165(3) 0.0491(3) 1.1161(3)
O4A O 1.3476(3) 0.1059(3) 1.0500(3)
O4_2 O 1.6524(3) -0.1059(3) 0.9500(3)
C6A C 1.2474(4) 0.0671(3) 1.1272(4)
C7A C 1.2973(6) 0.0439(5) 1.2438(5)
H12A H 1.282(5) 0.112(5) 1.257(5)
H13A H 1.399(8) 0.024(6) 1.250(7)
N2A N 1.2170(4) -0.0477(3) 1.3442(4)
C8A C 1.0606(6) -0.0214(7) 1.3618(6)
H14A H 1.0538 0.0541 1.3618
H15A H 1.0066 -0.0246 1.3017
H16A H 1.0202 -0.0767 1.4333
C9A C 1.2919(8) -0.0607(7) 1.4482(6)
H17A H 1.2440 -0.1207 1.5132
H18A H 1.3927 -0.0799 1.4398
H19A H 1.2869 0.0101 1.4585
C10A C 1.2259(9) -0.1589(5) 1.3301(6)
H20A H 1.1698 -0.2167 1.3917
H21A H 1.1872 -0.1496 1.2595
H22A H 1.3264 -0.1817 1.3299
O5A O 1.3544(3) -0.1430(3) 1.0837(3)
O5_2 O 1.6456(3) 0.1430(3) 0.9163(3)
O6A O 1.1307(3) -0.1519(3) 1.0282(3)
C11A C 1.2635(4) -0.1769(3) 1.0356(4)
C12A C 1.3263(5) -0.2597(4) 0.9853(5)
H23A H 1.332(6) -0.336(5) 1.046(5)
H24A H 1.421(5) -0.235(4) 0.956(4)
N3A N 1.2442(4) -0.2747(3) 0.8946(4)
C13A C 1.3320(6) -0.3497(5) 0.8499(6)
H25A H 1.4251 -0.3134 0.8171
H26A H 1.3472 -0.4223 0.9109
H27A H 1.2800 -0.3615 0.7930
C14A C 1.2254(7) -0.1616(5) 0.7986(5)
H28A H 1.1677 -0.1127 0.8255
H29A H 1.3198 -0.1265 0.7684
H30A H 1.1764 -0.1731 0.7402
C15A C 1.0973(6) -0.3312(5) 0.9398(6)
H31A H 1.0432 -0.3300 0.8781
H32A H 1.1103 -0.4093 0.9914
H33A H 1.0443 -0.2907 0.9791
Mn3 Mn 0.77120(8) 0.62332(7) 0.69412(7)
Br1 Br 0.72670(6) 0.62971(5) 0.88548(5)
Br2 Br 0.73289(7) 0.43013(5) 0.69615(7)
Br3 Br 1.03439(7) 0.68376(6) 0.62887(6)
Br4 Br 0.60829(11) 0.76456(8) 0.56062(8)
loop_
_geom_bond_atom_site_label_1
_geom_bond_atom_site_label_2
_geom_bond_site_symmetry_1
_geom_bond_site_symmetry_2
Mn1 O1 1_555 1_555
Mn2 O2 1_555 1_555
Mn3 Br1 1_555 1_555
Br2 Mn3 1_555 1_555
Br3 Mn3 1_555 1_555
Br4 Mn3 1_555 1_555
O1 C1 1_555 1_555
O2 C1 1_555 1_555
C1 C2 1_555 1_555
C2 H1 1_555 1_555
H2 C2 1_555 1_555
N1 C2 1_555 1_555
C3 N1 1_555 1_555
H3 C3 1_555 1_555
H4 C3 1_555 1_555
H5 C3 1_555 1_555
C4 N1 1_555 1_555
H6 C4 1_555 1_555
H7 C4 1_555 1_555
H8 C4 1_555 1_555
C5 N1 1_555 1_555
H9 C5 1_555 1_555
H10 C5 1_555 1_555
H11 C5 1_555 1_555
O3 Mn1 1_555 1_555
O4 C6 1_555 1_555
C6 O3 1_555 1_555
C7 C6 1_555 1_555
H12 C7 1_555 1_555
H13 C7 1_555 1_555
N2 C7 1_555 1_555
C8 N2 1_555 1_555
H14 C8 1_555 1_555
H15 C8 1_555 1_555
H16 C8 1_555 1_555
C9 N2 1_555 1_555
H17 C9 1_555 1_555
H18 C9 1_555 1_555
H19 C9 1_555 1_555
C10 N2 1_555 1_555
H20 C10 1_555 1_555
H21 C10 1_555 1_555
H22 C10 1_555 1_555
O5 C11 1_555 1_555
O6 Mn1 1_555 1_555
C11 O6 1_555 1_555
C12 C11 1_555 1_555
H23 C12 1_555 1_555
H24 C12 1_555 1_555
N3 C12 1_555 1_555
C13 N3 1_555 1_555
H25 C13 1_555 1_555
H26 C13 1_555 1_555
H27 C13 1_555 1_555
C14 N3 1_555 1_555
H28 C14 1_555 1_555
H29 C14 1_555 1_555
H30 C14 1_555 1_555
C15 N3 1_555 1_555
H31 C15 1_555 1_555
H32 C15 1_555 1_555
H33 C15 1_555 1_555
Mn2_2 O4 1_555 1_555
O1A Mn1 1_555 1_555
O2A Mn2_2 1_555 1_555
O2A_2 Mn2 1_555 1_555
C1A O1A 1_555 1_555
C2A C1A 1_555 1_555
H1A C2A 1_555 1_555
H2A C2A 1_555 1_555
N1A C2A 1_555 1_555
C3A N1A 1_555 1_555
H3A C3A 1_555 1_555
H4A C3A 1_555 1_555
H5A C3A 1_555 1_555
C4A N1A 1_555 1_555
H6A C4A 1_555 1_555
H7A C4A 1_555 1_555
H8A C4A 1_555 1_555
C5A N1A 1_555 1_555
H9A C5A 1_555 1_555
H10A C5A 1_555 1_555
H11A C5A 1_555 1_555
O3A Mn1 1_555 1_555
O4A Mn2 1_555 1_555
O4_2 Mn2 1_555 1_555
C6A O3A 1_555 1_555
C7A C6A 1_555 1_555
H12A C7A 1_555 1_555
H13A C7A 1_555 1_555
N2A C7A 1_555 1_555
C8A N2A 1_555 1_555
H14A C8A 1_555 1_555
H15A C8A 1_555 1_555
H16A C8A 1_555 1_555
C9A N2A 1_555 1_555
H17A C9A 1_555 1_555
H18A C9A 1_555 1_555
H19A C9A 1_555 1_555
C10A N2A 1_555 1_555
H20A C10A 1_555 1_555
H21A C10A 1_555 1_555
H22A C10A 1_555 1_555
O5A Mn2 1_555 1_555
O5_2 Mn2 1_555 1_555
O6A Mn1 1_555 1_555
C11A O5A 1_555 1_555
C12A C11A 1_555 1_555
H23A C12A 1_555 1_555
H24A C12A 1_555 1_555
N3A C12A 1_555 1_555
C13A N3A 1_555 1_555
H25A C13A 1_555 1_555
H26A C13A 1_555 1_555
H27A C13A 1_555 1_555
C14A N3A 1_555 1_555
H28A C14A 1_555 1_555
H29A C14A 1_555 1_555
H30A C14A 1_555 1_555
C15A N3A 1_555 1_555
H31A C15A 1_555 1_555
H32A C15A 1_555 1_555
H33A C15A 1_555 1_555
O5 Mn2_2 1_555 1_555
O2A C1A 1_555 1_555
O4A C6A 1_555 1_555
O6A C11A 1_555 1_555

#END
