
#######################################################################
#
#                 Cambridge Crystallographic Data Centre
#                                CCDC 
#
#######################################################################
#
# If this CIF has been generated from an entry in the Cambridge 
# Structural Database, then it will include bibliographic, chemical, 
# crystal, experimental, refinement or atomic coordinate data resulting 
# from the CCDC's data processing and validation procedures.
#
#######################################################################

data_NOJFEY
_symmetry_cell_setting           orthorhombic
_symmetry_space_group_name_H-M   'C m c a'
_symmetry_Int_Tables_number      64
_space_group_name_Hall           '-C 2ac 2'
loop_
_symmetry_equiv_pos_site_id
_symmetry_equiv_pos_as_xyz
1 x,y,z
2 -x,1/2-y,1/2+z
3 x,-y,-z
4 -x,1/2+y,1/2-z
5 1/2+x,1/2+y,z
6 1/2-x,-y,1/2+z
7 1/2+x,1/2-y,-z
8 1/2-x,y,1/2-z
9 -x,-y,-z
10 x,1/2+y,1/2-z
11 -x,y,z
12 x,1/2-y,1/2+z
13 1/2-x,1/2-y,-z
14 1/2+x,y,1/2-z
15 1/2-x,1/2+y,z
16 1/2+x,-y,1/2+z
_cell_length_a                   14.9569(8)
_cell_length_b                   22.5625(11)
_cell_length_c                   12.1697(7)
_cell_angle_alpha                90
_cell_angle_beta                 90
_cell_angle_gamma                90
_cell_volume                     4106.85
loop_
_atom_site_label
_atom_site_type_symbol
_atom_site_fract_x
_atom_site_fract_y
_atom_site_fract_z
Co1 Co 0.2500 0.128788(15) 0.2500
N1 N 0.2500 0.22176(10) 0.2500
N2 N 0.2500 0.53485(10) 0.2500
C1 C 0.23873(17) 0.25250(10) 0.15735(19)
H1 H 0.2301 0.2317 0.0922
C2 C 0.23925(17) 0.31369(9) 0.15356(19)
H2 H 0.2325 0.3333 0.0869
C3 C 0.2500 0.34546(12) 0.2500
C4 C 0.2500 0.41125(12) 0.2500
C5 C 0.27932(16) 0.44284(9) 0.15931(19)
H3 H 0.2993 0.4232 0.0968
C6 C 0.27836(15) 0.50412(9) 0.16308(19)
H4 H 0.2985 0.5249 0.1019
O1 O 0.12774(11) 0.12661(7) 0.15878(16)
H5 H 0.0999(15) 0.1583(7) 0.144(2)
H6 H 0.0908(14) 0.1015(9) 0.184(2)
O2 O 0.32346(11) 0.12519(6) 0.10319(14)
H7 H 0.3570(15) 0.1530(7) 0.081(2)
H8 H 0.3515(15) 0.0926(6) 0.097(2)
Co1I Co 0.2500 -0.371212(15) 0.2500
Co1I_2 Co 0.2500 0.628788(15) 0.2500
N1I N 0.2500 -0.27824(10) 0.2500
N2I N 0.2500 0.03485(10) 0.2500
N2_2 N 0.2500 -0.46515(10) 0.2500
C1G C 0.26127(17) 0.25250(10) 0.34265(19)
C1I C 0.23873(17) -0.24750(10) 0.34265(19)
C1N C 0.26127(17) -0.24750(10) 0.15735(19)
H1G H 0.2699 0.2317 0.4078
H1I H 0.2301 -0.2683 0.4078
H1N H 0.2699 -0.2683 0.0922
C2G C 0.26075(17) 0.31369(9) 0.34644(19)
C2I C 0.23925(17) -0.18631(9) 0.34644(19)
C2N C 0.26075(17) -0.18631(9) 0.15356(19)
H2G H 0.2675 0.3333 0.4131
H2I H 0.2325 -0.1667 0.4131
H2N H 0.2675 -0.1667 0.0869
C3I C 0.2500 -0.15454(12) 0.2500
C4I C 0.2500 -0.08875(12) 0.2500
C5G C 0.22068(16) 0.44284(9) 0.34069(19)
C5I C 0.27932(16) -0.05716(9) 0.34069(19)
C5N C 0.22068(16) -0.05716(9) 0.15931(19)
H3G H 0.2007 0.4232 0.4032
H3I H 0.2993 -0.0768 0.4032
H3N H 0.2007 -0.0768 0.0968
C6G C 0.22164(15) 0.50412(9) 0.33692(19)
C6I C 0.27836(15) 0.00412(9) 0.33692(19)
C6N C 0.22164(15) 0.00412(9) 0.16308(19)
H4G H 0.2015 0.5249 0.3981
H4I H 0.2985 0.0249 0.3981
H4N H 0.2015 0.0249 0.1019
O1G O 0.37226(11) 0.12661(7) 0.34122(16)
O1I O 0.12774(11) -0.37339(7) 0.34122(16)
O1N O 0.37226(11) -0.37339(7) 0.15878(16)
H5G H 0.4001(15) 0.1583(7) 0.356(2)
H5I H 0.0999(15) -0.3417(7) 0.356(2)
H5N H 0.4001(15) -0.3417(7) 0.144(2)
H6G H 0.4092(14) 0.1015(9) 0.316(2)
H6I H 0.0908(14) -0.3985(9) 0.316(2)
H6N H 0.4092(14) -0.3985(9) 0.184(2)
O2G O 0.17654(11) 0.12519(6) 0.39681(14)
O2I O 0.32346(11) -0.37481(6) 0.39681(14)
O2N O 0.17654(11) -0.37481(6) 0.10319(14)
H7G H 0.1430(15) 0.1530(7) 0.419(2)
H7I H 0.3570(15) -0.3470(7) 0.419(2)
H7N H 0.1430(15) -0.3470(7) 0.081(2)
H8G H 0.1485(15) 0.0926(6) 0.403(2)
H8I H 0.3515(15) -0.4074(6) 0.403(2)
H8N H 0.1485(15) -0.4074(6) 0.097(2)
S1 S 0.0000 0.27459(3) 0.04910(7)
P1 P 0.0000 0.51061(3) 0.16795(7)
C7 C 0.0000 0.32944(13) 0.1546(3)
C8 C 0.0000 0.31316(16) 0.2636(3)
H9 H 0.0000 0.2733 0.2831
C9 C 0.0000 0.35673(18) 0.3442(3)
H10 H 0.0000 0.3459 0.4179
C10 C 0.0000 0.41635(15) 0.3155(3)
H11 H 0.0000 0.4452 0.3701
C11 C 0.0000 0.43303(13) 0.2062(3)
C12 C 0.0000 0.38905(13) 0.1249(3)
H12 H 0.0000 0.3997 0.0511
O3 O 0.08066(12) 0.28362(7) -0.01477(15)
O4 O 0.0000 0.21758(9) 0.1056(2)
O5 O -0.08389(10) 0.52100(6) 0.09627(14)
H13 H -0.084(3) 0.5000 0.0000
O6 O 0.0000 0.54851(10) 0.2688(2)
S1B S 0.0000 0.72541(3) -0.04910(7)
P1B P 0.0000 0.48939(3) -0.16795(7)
C7B C 0.0000 0.67056(13) -0.1546(3)
C8B C 0.0000 0.68684(16) -0.2636(3)
H9B H 0.0000 0.7267 -0.2831
C9B C 0.0000 0.64327(18) -0.3442(3)
H10B H 0.0000 0.6541 -0.4179
C10B C 0.0000 0.58365(15) -0.3155(3)
H11B H 0.0000 0.5548 -0.3701
C11B C 0.0000 0.56697(13) -0.2062(3)
C12B C 0.0000 0.61095(13) -0.1249(3)
H12B H 0.0000 0.6003 -0.0511
O3B O 0.08066(12) 0.71638(7) 0.01477(15)
O3H O -0.08066(12) 0.71638(7) 0.01477(15)
O3J O -0.08066(12) 0.28362(7) -0.01477(15)
O4B O 0.0000 0.78242(9) -0.1056(2)
O5B O -0.08389(10) 0.47900(6) -0.09627(14)
O5H O 0.08389(10) 0.47900(6) -0.09627(14)
O5J O 0.08389(10) 0.52100(6) 0.09627(14)
H13H H 0.084(3) 0.5000 0.0000
O6B O 0.0000 0.45149(10) -0.2688(2)
loop_
_geom_bond_atom_site_label_1
_geom_bond_atom_site_label_2
_geom_bond_site_symmetry_1
_geom_bond_site_symmetry_2
Co1 N1 1_555 1_555
N1 C1 1_555 1_555
N2 C6 1_555 1_555
C1 H1 1_555 1_555
C2 C1 1_555 1_555
H2 C2 1_555 1_555
C3 C2 1_555 1_555
C4 C3 1_555 1_555
C5 C4 1_555 1_555
H3 C5 1_555 1_555
C6 C5 1_555 1_555
H4 C6 1_555 1_555
O1 Co1 1_555 1_555
H5 O1 1_555 1_555
H6 O1 1_555 1_555
O2 Co1 1_555 1_555
H7 O2 1_555 1_555
H8 O2 1_555 1_555
S1 C7 1_555 1_555
P1 C11 1_555 1_555
C7 C8 1_555 1_555
C8 H9 1_555 1_555
C9 C8 1_555 1_555
H10 C9 1_555 1_555
C10 C9 1_555 1_555
H11 C10 1_555 1_555
C11 C10 1_555 1_555
C12 C7 1_555 1_555
H12 C12 1_555 1_555
O3 S1 1_555 1_555
O4 S1 1_555 1_555
O5 P1 1_555 1_555
H13 O5 1_555 1_555
O6 P1 1_555 1_555
Co1I N1I 1_555 1_555
Co1I_2 N2 1_555 1_555
N1I C1I 1_555 1_555
N2I Co1 1_555 1_555
N2_2 Co1I 1_555 1_555
C1G N1 1_555 1_555
C1I H1I 1_555 1_555
C1N N1I 1_555 1_555
H1G C1G 1_555 1_555
H1N C1N 1_555 1_555
C2G C3 1_555 1_555
C2I C1I 1_555 1_555
C2N C1N 1_555 1_555
H2G C2G 1_555 1_555
H2I C2I 1_555 1_555
H2N C2N 1_555 1_555
C3I C2I 1_555 1_555
C4I C3I 1_555 1_555
C5G C4 1_555 1_555
C5I C4I 1_555 1_555
C5N C4I 1_555 1_555
H3G C5G 1_555 1_555
H3I C5I 1_555 1_555
H3N C5N 1_555 1_555
C6G N2 1_555 1_555
C6I N2I 1_555 1_555
C6N N2I 1_555 1_555
H4G C6G 1_555 1_555
H4I C6I 1_555 1_555
H4N C6N 1_555 1_555
O1G Co1 1_555 1_555
O1I Co1I 1_555 1_555
O1N Co1I 1_555 1_555
H5G O1G 1_555 1_555
H5I O1I 1_555 1_555
H5N O1N 1_555 1_555
H6G O1G 1_555 1_555
H6I O1I 1_555 1_555
H6N O1N 1_555 1_555
O2G Co1 1_555 1_555
O2I Co1I 1_555 1_555
O2N Co1I 1_555 1_555
H7G O2G 1_555 1_555
H7I O2I 1_555 1_555
H7N O2N 1_555 1_555
H8G O2G 1_555 1_555
H8I O2I 1_555 1_555
H8N O2N 1_555 1_555
S1B C7B 1_555 1_555
P1B C11B 1_555 1_555
C7B C8B 1_555 1_555
C8B H9B 1_555 1_555
C9B C8B 1_555 1_555
H10B C9B 1_555 1_555
C10B C9B 1_555 1_555
H11B C10B 1_555 1_555
C11B C10B 1_555 1_555
C12B C7B 1_555 1_555
H12B C12B 1_555 1_555
O3B S1B 1_555 1_555
O3H S1B 1_555 1_555
O3J S1 1_555 1_555
O4B S1B 1_555 1_555
O5B H13 1_555 1_555
O5H P1B 1_555 1_555
O5J P1 1_555 1_555
H13H O5H 1_555 1_555
O6B P1B 1_555 1_555
C11 C12 1_555 1_555
C1G C2G 1_555 1_555
C2N C3I 1_555 1_555
C5G C6G 1_555 1_555
C5I C6I 1_555 1_555
C5N C6N 1_555 1_555
P1B O5B 1_555 1_555
C11B C12B 1_555 1_555
O5J H13H 1_555 1_555

#END
