
#######################################################################
#
#                 Cambridge Crystallographic Data Centre
#                                CCDC 
#
#######################################################################
#
# If this CIF has been generated from an entry in the Cambridge 
# Structural Database, then it will include bibliographic, chemical, 
# crystal, experimental, refinement or atomic coordinate data resulting 
# from the CCDC's data processing and validation procedures.
#
#######################################################################

data_NOJFUO
_symmetry_cell_setting           triclinic
_symmetry_space_group_name_H-M   'P -1'
_symmetry_Int_Tables_number      2
_space_group_name_Hall           '-P 1'
loop_
_symmetry_equiv_pos_site_id
_symmetry_equiv_pos_as_xyz
1 x,y,z
2 -x,-y,-z
_cell_length_a                   11.993(2)
_cell_length_b                   13.516(3)
_cell_length_c                   14.196(3)
_cell_angle_alpha                62.13(3)
_cell_angle_beta                 70.55(2)
_cell_angle_gamma                82.24(3)
_cell_volume                     1917.55
loop_
_atom_site_label
_atom_site_type_symbol
_atom_site_fract_x
_atom_site_fract_y
_atom_site_fract_z
C1 C 0.2115(4) 0.9126(3) 0.1131(3)
H1 H 0.1713 0.8438 0.1545
C2 C 0.3123(5) 0.9251(4) 0.0251(4)
H2 H 0.3391 0.8657 0.0082
C3 C 0.3725(4) 1.0262(3) -0.0373(4)
H3 H 0.4404 1.0362 -0.0972
C4 C 0.3305(4) 1.1138(3) -0.0097(3)
C5 C 0.3895(3) 1.2233(3) -0.0724(3)
C6 C 0.5425(4) 1.3394(3) -0.2102(3)
C7 C 0.6465(4) 1.3597(4) -0.3023(4)
H4 H 0.6798 1.3018 -0.3197
C8 C 0.6978(4) 1.4640(4) -0.3652(4)
H5 H 0.7656 1.4776 -0.4261
C9 C 0.6482(4) 1.5509(4) -0.3380(4)
H6 H 0.6845 1.6216 -0.3816
C10 C 0.5489(4) 1.5358(3) -0.2501(4)
H7 H 0.5188 1.5947 -0.2331
C11 C 0.4920(4) 1.4282(3) -0.1848(3)
C12 C 0.3380(3) 1.3124(3) -0.0450(3)
C13 C 0.2292(3) 1.2902(3) 0.0483(3)
C14 C 0.1732(4) 1.3732(3) 0.0803(4)
H8 H 0.2024 1.4466 0.0389
C15 C 0.0755(5) 1.3446(3) 0.1730(4)
H9 H 0.0389 1.3980 0.1964
C16 C 0.0318(4) 1.2355(3) 0.2315(4)
H10 H -0.0344 1.2171 0.2945
C17 C 0.1773(3) 1.1821(3) 0.1111(3)
C18 C 0.2282(3) 1.0937(3) 0.0801(3)
C19 C 0.1722(3) 0.8227(3) 0.4431(3)
C20 C 0.2411(3) 0.8073(3) 0.5195(3)
C21 C 0.2360(4) 0.7028(3) 0.6101(4)
H11 H 0.1981 0.6434 0.6162
C22 C 0.2860(5) 0.6848(4) 0.6921(4)
H12 H 0.2831 0.6141 0.7518
C23 C 0.3401(5) 0.7745(4) 0.6825(5)
H13 H 0.3712 0.7648 0.7381
C24 C 0.3486(4) 0.8780(3) 0.5918(4)
H14 H 0.3871 0.9367 0.5863
C25 C 0.3009(3) 0.8967(3) 0.5082(3)
C26 C 0.3284(3) 1.0066(3) 0.4047(3)
C27 C 0.4237(4) 1.0080(4) 0.3157(4)
H15 H 0.4609 0.9414 0.3212
C28 C 0.4643(5) 1.1057(4) 0.2194(4)
H16 H 0.5283 1.1042 0.1610
C29 C 0.4117(4) 1.2045(4) 0.2089(3)
H17 H 0.4395 1.2704 0.1437
C30 C 0.3169(4) 1.2062(3) 0.2956(3)
H18 H 0.2803 1.2735 0.2883
C31 C 0.2751(3) 1.1080(3) 0.3946(3)
C32 C 0.1700(3) 1.1174(3) 0.4848(3)
C33 C 0.0088(3) 0.5363(3) 0.3430(3)
C34 C 0.0368(4) 0.6168(3) 0.2204(3)
C35 C 0.1456(4) 0.6114(3) 0.1475(3)
H19 H 0.1972 0.5551 0.1742
C36 C 0.1782(5) 0.6887(4) 0.0358(3)
H20 H 0.2513 0.6844 -0.0124
C37 C 0.1011(6) 0.7727(4) -0.0039(4)
H21 H 0.1234 0.8258 -0.0787
C38 C -0.0073(5) 0.7779(3) 0.0664(4)
H22 H -0.0580 0.8347 0.0387
C39 C -0.0435(4) 0.6986(3) 0.1799(3)
C40 C -0.1657(4) 0.7011(3) 0.2515(4)
C41 C -0.2042(4) 0.7843(3) 0.2857(4)
C42 C -0.3201(4) 0.7853(4) 0.3496(4)
H23 H -0.3443 0.8433 0.3693
C43 C -0.4002(5) 0.7013(5) 0.3846(5)
H24 H -0.4777 0.7019 0.4280
C44 C -0.3628(6) 0.6163(4) 0.3537(5)
H25 H -0.4152 0.5581 0.3785
C45 C -0.2492(5) 0.6169(4) 0.2868(4)
H26 H -0.2269 0.5606 0.2645
C46 C -0.1165(4) 0.8662(3) 0.2671(3)
N1 N 0.1692(3) 0.9938(2) 0.1415(2)
N2 N 0.0801(3) 1.1554(2) 0.2020(2)
N3 N 0.4899(3) 1.2368(3) -0.1534(3)
N4 N 0.3902(3) 1.4130(2) -0.0999(3)
O1 O 0.1483(3) 0.9199(2) 0.3819(2)
O2 O 0.1375(2) 0.7352(2) 0.4484(2)
O3 O 0.1163(2) 1.0299(2) 0.5649(2)
O4 O 0.1450(3) 1.2154(2) 0.4722(2)
O5 O -0.0516(2) 0.57016(18) 0.41343(19)
O6 O 0.0497(3) 0.43985(18) 0.36830(19)
O7 O -0.0259(2) 0.82415(18) 0.3014(2)
O8 O -0.1325(3) 0.9684(2) 0.2274(2)
Mn1 Mn 0.02386(5) 0.97654(4) 0.29630(4)
Mn2 Mn -0.02680(5) 0.68565(4) 0.46455(4)
O3A O -0.1163(2) 0.9701(2) 0.4351(2)
O4A O -0.1450(3) 0.7846(2) 0.5278(2)
O6A O -0.0497(3) 0.56015(18) 0.63170(19)
Mn1A Mn -0.02386(5) 1.02346(4) 0.70370(4)
Mn2A Mn 0.02680(5) 1.31435(4) 0.53545(4)
Mn2A_2 Mn 0.02680(5) 0.31435(4) 0.53545(4)
loop_
_geom_bond_atom_site_label_1
_geom_bond_atom_site_label_2
_geom_bond_site_symmetry_1
_geom_bond_site_symmetry_2
C1 H1 1_555 1_555
C2 C1 1_555 1_555
H2 C2 1_555 1_555
C3 C2 1_555 1_555
H3 C3 1_555 1_555
C4 C3 1_555 1_555
C5 C4 1_555 1_555
C6 C7 1_555 1_555
C7 H4 1_555 1_555
C8 C7 1_555 1_555
H5 C8 1_555 1_555
C9 C8 1_555 1_555
H6 C9 1_555 1_555
C10 C9 1_555 1_555
H7 C10 1_555 1_555
C11 C6 1_555 1_555
C12 C5 1_555 1_555
C13 C12 1_555 1_555
C14 C13 1_555 1_555
H8 C14 1_555 1_555
C15 C14 1_555 1_555
H9 C15 1_555 1_555
C16 C15 1_555 1_555
H10 C16 1_555 1_555
C17 C13 1_555 1_555
C18 C4 1_555 1_555
C19 C20 1_555 1_555
C20 C21 1_555 1_555
C21 H11 1_555 1_555
C22 C21 1_555 1_555
H12 C22 1_555 1_555
C23 C22 1_555 1_555
H13 C23 1_555 1_555
C24 C23 1_555 1_555
H14 C24 1_555 1_555
C25 C20 1_555 1_555
C26 C25 1_555 1_555
C27 C26 1_555 1_555
H15 C27 1_555 1_555
C28 C27 1_555 1_555
H16 C28 1_555 1_555
C29 C28 1_555 1_555
H17 C29 1_555 1_555
C30 C29 1_555 1_555
H18 C30 1_555 1_555
C31 C26 1_555 1_555
C32 C31 1_555 1_555
C33 C34 1_555 1_555
C34 C35 1_555 1_555
C35 H19 1_555 1_555
C36 C35 1_555 1_555
H20 C36 1_555 1_555
C37 C36 1_555 1_555
H21 C37 1_555 1_555
C38 C37 1_555 1_555
H22 C38 1_555 1_555
C39 C34 1_555 1_555
C40 C39 1_555 1_555
C41 C40 1_555 1_555
C42 C41 1_555 1_555
H23 C42 1_555 1_555
C43 C42 1_555 1_555
H24 C43 1_555 1_555
C44 C43 1_555 1_555
H25 C44 1_555 1_555
C45 C40 1_555 1_555
H26 C45 1_555 1_555
C46 C41 1_555 1_555
N1 C1 1_555 1_555
N2 C16 1_555 1_555
N3 C5 1_555 1_555
N4 C11 1_555 1_555
O1 C19 1_555 1_555
O2 C19 1_555 1_555
O3 C32 1_555 1_555
O4 C32 1_555 1_555
O5 C33 1_555 1_555
O6 C33 1_555 1_555
O7 C46 1_555 1_555
O8 C46 1_555 1_555
Mn1 N1 1_555 1_555
Mn2 O2 1_555 1_555
O3A Mn1 1_555 1_555
O4A Mn2 1_555 1_555
O6A Mn2 1_555 1_555
Mn1A O3 1_555 1_555
Mn2A O4 1_555 1_555
Mn2A_2 O6 1_555 1_555
C6 N3 1_555 1_555
C10 C11 1_555 1_555
C12 N4 1_555 1_555
C17 C18 1_555 1_555
C17 N2 1_555 1_555
C18 N1 1_555 1_555
C24 C25 1_555 1_555
C30 C31 1_555 1_555
C38 C39 1_555 1_555
C44 C45 1_555 1_555
N2 Mn1 1_555 1_555
O1 Mn1 1_555 1_555
O5 Mn2 1_555 1_555
O7 Mn1 1_555 1_555
O7 Mn2 1_555 1_555
O8 Mn1 1_555 1_555

#END
