
#######################################################################
#
#                 Cambridge Crystallographic Data Centre
#                                CCDC 
#
#######################################################################
#
# If this CIF has been generated from an entry in the Cambridge 
# Structural Database, then it will include bibliographic, chemical, 
# crystal, experimental, refinement or atomic coordinate data resulting 
# from the CCDC's data processing and validation procedures.
#
#######################################################################

data_NOJGEZ01
_symmetry_cell_setting           monoclinic
_symmetry_space_group_name_H-M   'P 21/c'
_symmetry_Int_Tables_number      14
_space_group_name_Hall           '-P 2ybc'
loop_
_symmetry_equiv_pos_site_id
_symmetry_equiv_pos_as_xyz
1 x,y,z
2 -x,1/2+y,1/2-z
3 -x,-y,-z
4 x,1/2-y,1/2+z
_cell_length_a                   10.7464(7)
_cell_length_b                   12.8452(8)
_cell_length_c                   6.2686(4)
_cell_angle_alpha                90
_cell_angle_beta                 106.0940(10)
_cell_angle_gamma                90
_cell_volume                     831.402
loop_
_atom_site_label
_atom_site_type_symbol
_atom_site_fract_x
_atom_site_fract_y
_atom_site_fract_z
Pb1 Pb 0.453435(14) 0.122871(11) 0.24400(2)
O1 O 0.3310(3) 0.1688(2) -0.1776(5)
O2 O 0.2282(3) 0.3203(2) -0.2622(5)
N1 N -0.1431(4) 0.0755(3) -0.3753(6)
N2 N 0.6184(4) 0.0704(3) -0.0625(6)
N3 N 0.5990(4) 0.1352(3) -0.2026(6)
N4 N 0.5796(4) 0.1999(3) -0.3426(6)
C1 C 0.0995(4) 0.1690(3) -0.2912(7)
C2 C -0.0128(4) 0.2232(3) -0.4002(7)
H1 H -0.0080 0.2935 -0.4448
C3 C -0.1311(4) 0.1733(3) -0.4422(7)
H2 H -0.2068 0.2096 -0.5215
C4 C -0.0350(4) 0.0231(3) -0.2707(7)
H3 H -0.0431 -0.0467 -0.2264
C5 C 0.0873(4) 0.0666(3) -0.2249(7)
H4 H 0.1616 0.0276 -0.1498
C6 C 0.2289(4) 0.2229(3) -0.2391(6)
O3 O 0.6264(3) -0.0176(2) 0.4591(5)
H5 H 0.6442 -0.0680 0.3795
H6 H 0.6958 0.0140 0.5366
Pb1C Pb 0.453435(14) 0.377129(11) -0.25600(2)
Pb1B Pb 0.546565(14) -0.122871(11) -0.24400(2)
Pb1_2 Pb 0.453435(14) 0.122871(11) -0.75600(2)
Pb1B_2 Pb 0.546565(14) -0.122871(11) 0.75600(2)
O2C O 0.2282(3) 0.1797(2) 0.2378(5)
N2B N 0.3816(4) -0.0704(3) 0.0625(6)
N4_2 N 0.5796(4) 0.1999(3) 0.6574(6)
N4C N 0.5796(4) 0.3001(3) 0.1574(6)
O3B O 0.3736(3) 0.0176(2) 0.5409(5)
H5B H 0.3558 0.0680 0.6205
H6B H 0.3042 -0.0140 0.4634
loop_
_geom_bond_atom_site_label_1
_geom_bond_atom_site_label_2
_geom_bond_site_symmetry_1
_geom_bond_site_symmetry_2
Pb1 O1 1_555 1_555
O1 C6 1_555 1_555
O2 C6 1_555 1_555
N1 C3 1_555 1_555
N2 Pb1 1_555 1_555
N3 N2 1_555 1_555
N4 N3 1_555 1_555
C1 C2 1_555 1_555
C2 H1 1_555 1_555
C3 C2 1_555 1_555
H2 C3 1_555 1_555
C4 N1 1_555 1_555
H3 C4 1_555 1_555
C5 C1 1_555 1_555
H4 C5 1_555 1_555
C6 C1 1_555 1_555
O3 Pb1 1_555 1_555
H5 O3 1_555 1_555
H6 O3 1_555 1_555
Pb1C O2 1_555 1_555
Pb1B N2 1_555 1_555
Pb1_2 N4 1_555 1_555
Pb1B_2 O3 1_555 1_555
O2C Pb1 1_555 1_555
N2B Pb1 1_555 1_555
N4_2 Pb1 1_555 1_555
N4C Pb1 1_555 1_555
O3B Pb1 1_555 1_555
H5B O3B 1_555 1_555
H6B O3B 1_555 1_555
N4 Pb1C 1_555 1_555
C4 C5 1_555 1_555
Pb1C N4C 1_555 1_555
Pb1B N2B 1_555 1_555
Pb1B_2 O3B 1_555 1_555

#END
