
#######################################################################
#
#                 Cambridge Crystallographic Data Centre
#                                CCDC 
#
#######################################################################
#
# If this CIF has been generated from an entry in the Cambridge 
# Structural Database, then it will include bibliographic, chemical, 
# crystal, experimental, refinement or atomic coordinate data resulting 
# from the CCDC's data processing and validation procedures.
#
#######################################################################

data_NOJGAV
_symmetry_cell_setting           triclinic
_symmetry_space_group_name_H-M   'P -1'
_symmetry_Int_Tables_number      2
_space_group_name_Hall           '-P 1'
loop_
_symmetry_equiv_pos_site_id
_symmetry_equiv_pos_as_xyz
1 x,y,z
2 -x,-y,-z
_cell_length_a                   8.3210(10)
_cell_length_b                   10.977(2)
_cell_length_c                   15.365(3)
_cell_angle_alpha                71.62(2)
_cell_angle_beta                 75.16(3)
_cell_angle_gamma                71.89(2)
_cell_volume                     1246.26
loop_
_atom_site_label
_atom_site_type_symbol
_atom_site_fract_x
_atom_site_fract_y
_atom_site_fract_z
C1 C -0.1982(4) 0.6489(3) 0.3215(2)
C2 C -0.3385(4) 0.7668(3) 0.3391(3)
H1 H -0.3812 0.8159 0.2815
H2 H -0.2901 0.8241 0.3560
C3 C -0.4901(4) 0.7358(4) 0.4150(3)
H3 H -0.4509 0.6995 0.4744
H4 H -0.5763 0.8182 0.4179
C4 C -0.7053(4) 0.5726(3) 0.2984(2)
C5 C -0.6111(5) 0.6631(4) 0.3081(2)
H5 H -0.5029 0.6547 0.2648
H6 H -0.6781 0.7538 0.2895
C6 C -0.5743(5) 0.6399(4) 0.4025(2)
H7 H -0.5007 0.5512 0.4192
H8 H -0.6816 0.6421 0.4464
C7 C 0.1360(4) 0.2078(3) 0.4588(2)
C8 C 0.1907(5) 0.0621(3) 0.5092(2)
H9 H 0.1673 0.0532 0.5758
H10 H 0.3135 0.0295 0.4907
C9 C 0.0970(4) -0.0226(3) 0.4879(2)
H11 H 0.1290 -0.0198 0.4221
H12 H 0.1345 -0.1140 0.5226
C10 C -0.2702(4) 0.3275(3) 0.3213(2)
H13 H -0.2870 0.3484 0.3776
C11 C -0.3885(4) 0.2714(4) 0.3075(2)
H14 H -0.4825 0.2558 0.3536
C12 C -0.3630(4) 0.2400(3) 0.2251(2)
H15 H -0.4402 0.2026 0.2147
C13 C -0.2206(4) 0.2639(3) 0.1560(2)
C14 C -0.1081(4) 0.3216(3) 0.1757(2)
C15 C 0.0451(4) 0.3468(3) 0.1072(2)
C16 C 0.0806(4) 0.3174(3) 0.0210(2)
C17 C 0.2297(4) 0.3412(3) -0.0414(2)
H16 H 0.2549 0.3237 -0.0995
C18 C 0.3378(4) 0.3904(3) -0.0159(2)
H17 H 0.4385 0.4056 -0.0557
C19 C 0.2934(4) 0.4172(3) 0.0708(2)
H18 H 0.3667 0.4514 0.0876
C20 C -0.0385(4) 0.2606(3) 0.00450(19)
C21 C -0.1795(4) 0.2316(3) 0.0686(2)
C22 C -0.1706(4) 0.1600(3) -0.0466(2)
C23 C -0.2030(4) 0.0944(3) -0.1075(2)
C24 C -0.3625(4) 0.0683(3) -0.0922(2)
H19 H -0.4490 0.0972 -0.0458
C25 C -0.3940(5) -0.0005(3) -0.1454(2)
H20 H -0.5001 -0.0196 -0.1337
C26 C -0.2657(5) -0.0404(3) -0.2161(2)
H21 H -0.2859 -0.0859 -0.2524
C27 C -0.1094(5) -0.0129(3) -0.2324(2)
H22 H -0.0244 -0.0390 -0.2803
C28 C -0.0764(4) 0.0534(3) -0.1783(2)
H23 H 0.0308 0.0705 -0.1894
N1 N -0.1345(3) 0.3523(2) 0.25708(17)
N2 N 0.1523(3) 0.3968(2) 0.13115(17)
N3 N -0.0334(3) 0.2143(2) -0.06913(17)
H24 H 0.0413 0.2185 -0.1197
N4 N -0.2618(3) 0.1682(3) 0.03641(18)
O1 O -0.1143(3) 0.6519(2) 0.24133(15)
O2 O -0.1656(3) 0.5454(2) 0.38768(15)
O3 O -0.6970(3) 0.5584(3) 0.22032(17)
O4 O -0.7933(3) 0.5132(2) 0.36927(17)
O5 O 0.1721(3) 0.2371(2) 0.37212(17)
O6 O 0.0577(4) 0.2854(2) 0.50925(19)
Cd1 Cd 0.08006(3) 0.43806(2) 0.277754(15)
Cd2 Cd 0.0000 0.5000 0.5000
C1A C 0.1982(4) 0.3511(3) 0.6785(2)
C2A C 0.3385(4) 0.2332(3) 0.6609(3)
H1A H 0.3812 0.1841 0.7185
H2A H 0.2901 0.1759 0.6440
C3A C 0.4901(4) 0.2642(4) 0.5850(3)
H3A H 0.4509 0.3005 0.5256
H4A H 0.5763 0.1818 0.5821
C4A C 0.7053(4) 0.4274(3) 0.7016(2)
C5A C 0.6111(5) 0.3369(4) 0.6919(2)
H5A H 0.5029 0.3453 0.7352
H6A H 0.6781 0.2462 0.7105
C6A C 0.5743(5) 0.3601(4) 0.5975(2)
H7A H 0.5007 0.4488 0.5808
H8A H 0.6816 0.3579 0.5536
C7A C -0.1360(4) -0.2078(3) 0.5412(2)
C8A C -0.1907(5) -0.0621(3) 0.4908(2)
H9A H -0.1673 -0.0532 0.4242
H10A H -0.3135 -0.0295 0.5093
C9A C -0.0970(4) 0.0226(3) 0.5121(2)
H11A H -0.1290 0.0198 0.5779
H12A H -0.1345 0.1140 0.4774
C10A C 0.2702(4) 0.6725(3) 0.6787(2)
H13A H 0.2870 0.6516 0.6224
C11A C 0.3885(4) 0.7286(4) 0.6925(2)
H14A H 0.4825 0.7442 0.6464
C12A C 0.3630(4) 0.7600(3) 0.7749(2)
H15A H 0.4402 0.7974 0.7853
C13A C 0.2206(4) 0.7361(3) 0.8440(2)
C14A C 0.1081(4) 0.6784(3) 0.8243(2)
C15A C -0.0451(4) 0.6532(3) 0.8928(2)
C16A C -0.0806(4) 0.6826(3) 0.9790(2)
C17A C -0.2297(4) 0.6588(3) 1.0414(2)
H16A H -0.2549 0.6763 1.0995
C18A C -0.3378(4) 0.6096(3) 1.0159(2)
H17A H -0.4385 0.5944 1.0557
C19A C -0.2934(4) 0.5828(3) 0.9292(2)
H18A H -0.3667 0.5486 0.9124
C20A C 0.0385(4) 0.7394(3) 0.99550(19)
C21A C 0.1795(4) 0.7684(3) 0.9314(2)
C22A C 0.1706(4) 0.8400(3) 1.0466(2)
C23A C 0.2030(4) 0.9056(3) 1.1075(2)
C24A C 0.3625(4) 0.9317(3) 1.0922(2)
H19A H 0.4490 0.9028 1.0458
C25A C 0.3940(5) 1.0005(3) 1.1454(2)
H20A H 0.5001 1.0196 1.1337
C26A C 0.2657(5) 1.0404(3) 1.2161(2)
H21A H 0.2859 1.0859 1.2524
C27A C 0.1094(5) 1.0129(3) 1.2324(2)
H22A H 0.0244 1.0390 1.2803
C28A C 0.0764(4) 0.9466(3) 1.1783(2)
H23A H -0.0308 0.9295 1.1894
N1A N 0.1345(3) 0.6477(2) 0.74292(17)
N2A N -0.1523(3) 0.6032(2) 0.86885(17)
N3A N 0.0334(3) 0.7857(2) 1.06913(17)
H24A H -0.0413 0.7815 1.1197
N4A N 0.2618(3) 0.8318(3) 0.96359(18)
O1A O 0.1143(3) 0.3481(2) 0.75867(15)
O2A O 0.1656(3) 0.4546(2) 0.61232(15)
O3A O 0.6970(3) 0.4416(3) 0.77968(17)
O3_2 O 0.3030(3) 0.5584(3) 0.22032(17)
O3A_2 O -0.3030(3) 0.4416(3) 0.77968(17)
O4A O 0.7933(3) 0.4868(2) 0.63073(17)
O4_2 O 0.2067(3) 0.5132(2) 0.36927(17)
O4A_2 O -0.2067(3) 0.4868(2) 0.63073(17)
O5A O -0.1721(3) -0.2371(2) 0.62788(17)
O5A_2 O -0.1721(3) 0.7629(2) 0.62788(17)
O6A O -0.0577(4) -0.2854(2) 0.49075(19)
O6A_2 O -0.0577(4) 0.7146(2) 0.49075(19)
Cd1A Cd -0.08006(3) 0.56194(2) 0.722246(15)
Cd1_2 Cd -0.91994(3) 0.43806(2) 0.277754(15)
Cd1A_2 Cd -0.08006(3) -0.43806(2) 0.722246(15)
Cd1A_3 Cd 0.91994(3) 0.56194(2) 0.722246(15)
Cd2_2 Cd -1.0000 0.5000 0.5000
Cd2_3 Cd 0.0000 -0.5000 0.5000
Cd2_4 Cd 1.0000 0.5000 0.5000
loop_
_geom_bond_atom_site_label_1
_geom_bond_atom_site_label_2
_geom_bond_site_symmetry_1
_geom_bond_site_symmetry_2
C1 C2 1_555 1_555
C2 H1 1_555 1_555
H2 C2 1_555 1_555
C3 C2 1_555 1_555
H3 C3 1_555 1_555
H4 C3 1_555 1_555
C4 C5 1_555 1_555
C5 H5 1_555 1_555
H6 C5 1_555 1_555
C6 C3 1_555 1_555
H7 C6 1_555 1_555
H8 C6 1_555 1_555
C7 C8 1_555 1_555
C8 H9 1_555 1_555
H10 C8 1_555 1_555
C9 C8 1_555 1_555
H11 C9 1_555 1_555
H12 C9 1_555 1_555
C10 H13 1_555 1_555
C11 C10 1_555 1_555
H14 C11 1_555 1_555
C12 C11 1_555 1_555
H15 C12 1_555 1_555
C13 C12 1_555 1_555
C14 C13 1_555 1_555
C15 C14 1_555 1_555
C16 C15 1_555 1_555
C17 C16 1_555 1_555
H16 C17 1_555 1_555
C18 C17 1_555 1_555
H17 C18 1_555 1_555
C19 C18 1_555 1_555
H18 C19 1_555 1_555
C20 C16 1_555 1_555
C21 C13 1_555 1_555
C22 C23 1_555 1_555
C23 C24 1_555 1_555
C24 H19 1_555 1_555
C25 C24 1_555 1_555
H20 C25 1_555 1_555
C26 C25 1_555 1_555
H21 C26 1_555 1_555
C27 C26 1_555 1_555
H22 C27 1_555 1_555
C28 C23 1_555 1_555
H23 C28 1_555 1_555
N1 C10 1_555 1_555
N2 C15 1_555 1_555
N3 C20 1_555 1_555
H24 N3 1_555 1_555
N4 C21 1_555 1_555
O1 C1 1_555 1_555
O2 C1 1_555 1_555
O3 C4 1_555 1_555
O4 C4 1_555 1_555
O5 C7 1_555 1_555
O6 C7 1_555 1_555
Cd1 N1 1_555 1_555
Cd2 O2 1_555 1_555
C1A C2A 1_555 1_555
C2A H1A 1_555 1_555
H2A C2A 1_555 1_555
C3A C2A 1_555 1_555
H3A C3A 1_555 1_555
H4A C3A 1_555 1_555
C4A C5A 1_555 1_555
C5A H5A 1_555 1_555
H6A C5A 1_555 1_555
C6A C3A 1_555 1_555
H7A C6A 1_555 1_555
H8A C6A 1_555 1_555
C7A C8A 1_555 1_555
C8A H9A 1_555 1_555
H10A C8A 1_555 1_555
C9A C9 1_555 1_555
H11A C9A 1_555 1_555
H12A C9A 1_555 1_555
C10A H13A 1_555 1_555
C11A C10A 1_555 1_555
H14A C11A 1_555 1_555
C12A C11A 1_555 1_555
H15A C12A 1_555 1_555
C13A C12A 1_555 1_555
C14A C13A 1_555 1_555
C15A C14A 1_555 1_555
C16A C15A 1_555 1_555
C17A C16A 1_555 1_555
H16A C17A 1_555 1_555
C18A C17A 1_555 1_555
H17A C18A 1_555 1_555
C19A C18A 1_555 1_555
H18A C19A 1_555 1_555
C20A C16A 1_555 1_555
C21A C13A 1_555 1_555
C22A C23A 1_555 1_555
C23A C24A 1_555 1_555
C24A H19A 1_555 1_555
C25A C24A 1_555 1_555
H20A C25A 1_555 1_555
C26A C25A 1_555 1_555
H21A C26A 1_555 1_555
C27A C26A 1_555 1_555
H22A C27A 1_555 1_555
C28A C23A 1_555 1_555
H23A C28A 1_555 1_555
N1A C10A 1_555 1_555
N2A C15A 1_555 1_555
N3A C20A 1_555 1_555
H24A N3A 1_555 1_555
N4A C21A 1_555 1_555
O1A C1A 1_555 1_555
O2A Cd2 1_555 1_555
O3A C4A 1_555 1_555
O3_2 Cd1 1_555 1_555
O3A_2 Cd1A 1_555 1_555
O4A C4A 1_555 1_555
O4_2 Cd1 1_555 1_555
O4A_2 Cd2 1_555 1_555
O5A C7A 1_555 1_555
O5A_2 Cd1A 1_555 1_555
O6A C7A 1_555 1_555
O6A_2 Cd2 1_555 1_555
Cd1A N1A 1_555 1_555
Cd1_2 O3 1_555 1_555
Cd1A_2 O5A 1_555 1_555
Cd1A_3 O3A 1_555 1_555
Cd2_2 O4 1_555 1_555
Cd2_3 O6A 1_555 1_555
Cd2_4 O4A 1_555 1_555
C5 C6 1_555 1_555
C14 N1 1_555 1_555
C19 N2 1_555 1_555
C20 C21 1_555 1_555
C22 N3 1_555 1_555
C22 N4 1_555 1_555
C27 C28 1_555 1_555
N2 Cd1 1_555 1_555
O1 Cd1 1_555 1_555
O2 Cd1 1_555 1_555
O4 Cd1_2 1_555 1_555
O5 Cd1 1_555 1_555
O6 Cd2 1_555 1_555
Cd2 O4_2 1_555 1_555
C1A O2A 1_555 1_555
C5A C6A 1_555 1_555
C8A C9A 1_555 1_555
C14A N1A 1_555 1_555
C19A N2A 1_555 1_555
C20A C21A 1_555 1_555
C22A N3A 1_555 1_555
C22A N4A 1_555 1_555
C27A C28A 1_555 1_555
N2A Cd1A 1_555 1_555
O1A Cd1A 1_555 1_555
O2A Cd1A 1_555 1_555
O4A Cd1A_3 1_555 1_555
O4A_2 Cd1A 1_555 1_555

#END
