
#######################################################################
#
#                 Cambridge Crystallographic Data Centre
#                                CCDC 
#
#######################################################################
#
# If this CIF has been generated from an entry in the Cambridge 
# Structural Database, then it will include bibliographic, chemical, 
# crystal, experimental, refinement or atomic coordinate data resulting 
# from the CCDC's data processing and validation procedures.
#
#######################################################################

data_NOJGUP
_symmetry_cell_setting           monoclinic
_symmetry_space_group_name_H-M   'P 21/n'
_symmetry_Int_Tables_number      14
_space_group_name_Hall           '-P 2yn'
loop_
_symmetry_equiv_pos_site_id
_symmetry_equiv_pos_as_xyz
1 x,y,z
2 1/2-x,1/2+y,1/2-z
3 -x,-y,-z
4 1/2+x,1/2-y,1/2+z
_cell_length_a                   7.2418(9)
_cell_length_b                   13.4867(17)
_cell_length_c                   12.9531(16)
_cell_angle_alpha                90
_cell_angle_beta                 90.229(2)
_cell_angle_gamma                90
_cell_volume                     1265.09
loop_
_atom_site_label
_atom_site_type_symbol
_atom_site_fract_x
_atom_site_fract_y
_atom_site_fract_z
Cd1 Cd 0.13675(5) 0.94640(2) 0.58680(3)
Cl1 Cl 0.30720(17) 0.83063(9) 0.69607(10)
O1 O -0.0973(5) 0.9952(3) 0.6879(3)
O2 O -0.2818(6) 1.0576(3) 0.5657(3)
O3 O -0.2445(5) 1.3999(3) 1.0988(3)
O4 O -0.4336(5) 1.3321(2) 0.9815(3)
N1 N -0.3229(6) 1.0776(3) 0.8355(3)
N2 N -0.2095(5) 1.1669(3) 0.9613(3)
C1 C -0.2241(7) 1.0700(3) 0.9995(4)
C2 C -0.1762(7) 1.0278(4) 1.0930(4)
H1 H -0.1233 1.0659 1.1472
C3 C -0.2089(7) 0.9276(4) 1.1039(4)
H2 H -0.1771 0.8960 1.1671
C4 C -0.2875(7) 0.8713(4) 1.0246(4)
H3 H -0.3101 0.8027 1.0359
C5 C -0.3335(7) 0.9125(4) 0.9299(4)
H4 H -0.3864 0.8742 0.8758
C6 C -0.2971(6) 1.0142(4) 0.9186(4)
C7 C -0.2671(7) 1.1688(3) 0.8634(4)
C8 C -0.2710(7) 1.2535(4) 0.7933(4)
H5 H -0.2246 1.3124 0.8293
H6 H -0.1930 1.2397 0.7334
H7 H -0.3981 1.2654 0.7702
C9 C -0.3958(7) 1.0522(3) 0.7350(4)
H8 H -0.4723 0.9917 0.7408
H9 H -0.4762 1.1067 0.7102
C10 C -0.2408(7) 1.0341(4) 0.6552(4)
C11 C -0.1472(7) 1.2525(4) 1.0224(4)
H10 H -0.1096 1.2288 1.0917
H11 H -0.0365 1.2810 0.9891
C12 C -0.2915(7) 1.3351(3) 1.0356(4)
Cd1B Cd -0.13675(5) 1.05360(2) 0.41320(3)
Cd1C Cd -0.36325(5) 1.55360(2) 1.08680(3)
Cd1A Cd -0.63675(5) 1.44640(2) 0.91320(3)
O2B O 0.2818(6) 0.9424(3) 0.4343(3)
O3C O 0.2555(5) 1.1001(3) 0.5988(3)
O4A O -0.0664(5) 0.8321(2) 0.5185(3)
loop_
_geom_bond_atom_site_label_1
_geom_bond_atom_site_label_2
_geom_bond_site_symmetry_1
_geom_bond_site_symmetry_2
Cd1 Cl1 1_555 1_555
O1 Cd1 1_555 1_555
O2 C10 1_555 1_555
O3 C12 1_555 1_555
O4 C12 1_555 1_555
N1 C6 1_555 1_555
N2 C1 1_555 1_555
C1 C2 1_555 1_555
C2 H1 1_555 1_555
C3 C2 1_555 1_555
H2 C3 1_555 1_555
C4 C3 1_555 1_555
H3 C4 1_555 1_555
C5 C4 1_555 1_555
H4 C5 1_555 1_555
C6 C1 1_555 1_555
C7 N1 1_555 1_555
C8 C7 1_555 1_555
H5 C8 1_555 1_555
H6 C8 1_555 1_555
H7 C8 1_555 1_555
C9 N1 1_555 1_555
H8 C9 1_555 1_555
H9 C9 1_555 1_555
C10 O1 1_555 1_555
C11 N2 1_555 1_555
H10 C11 1_555 1_555
H11 C11 1_555 1_555
C12 C11 1_555 1_555
Cd1B Cd1 1_555 1_555
Cd1C O3 1_555 1_555
Cd1A O4 1_555 1_555
O2B Cd1 1_555 1_555
O3C Cd1 1_555 1_555
O4A Cd1 1_555 1_555
O2 Cd1B 1_555 1_555
N2 C7 1_555 1_555
C5 C6 1_555 1_555
C9 C10 1_555 1_555
Cd1C Cd1A 1_555 1_555

#END
