
#######################################################################
#
#                 Cambridge Crystallographic Data Centre
#                                CCDC 
#
#######################################################################
#
# If this CIF has been generated from an entry in the Cambridge 
# Structural Database, then it will include bibliographic, chemical, 
# crystal, experimental, refinement or atomic coordinate data resulting 
# from the CCDC's data processing and validation procedures.
#
#######################################################################

data_NOJJEB
_symmetry_cell_setting           monoclinic
_symmetry_space_group_name_H-M   'C 2/c'
_symmetry_Int_Tables_number      15
_space_group_name_Hall           '-C 2yn'
loop_
_symmetry_equiv_pos_site_id
_symmetry_equiv_pos_as_xyz
1 x,y,z
2 -x,y,1/2-z
3 1/2+x,1/2+y,z
4 1/2-x,1/2+y,1/2-z
5 -x,-y,-z
6 x,-y,1/2+z
7 1/2-x,1/2-y,-z
8 1/2+x,1/2-y,1/2+z
_cell_length_a                   21.380(4)
_cell_length_b                   9.793(1)
_cell_length_c                   10.220(2)
_cell_angle_alpha                90
_cell_angle_beta                 116.69(2)
_cell_angle_gamma                90
_cell_volume                     1911.81
loop_
_atom_site_label
_atom_site_type_symbol
_atom_site_fract_x
_atom_site_fract_y
_atom_site_fract_z
I1 I 0.11800(1) 0.20935(3) 0.26093(3)
Cr1 Cr 0.00000 0.62100(7) 0.2500
O1 O -0.0041(1) 0.4796(2) 0.1130(3)
N1 N 0.1067(1) 0.6322(3) 0.3288(3)
N2 N 0.0048(2) 0.7787(3) 0.1179(3)
C1 C 0.1531(2) 0.5566(4) 0.4391(4)
C2 C 0.2224(2) 0.5463(5) 0.4693(6)
C3 C 0.2446(2) 0.6144(5) 0.3793(6)
C4 C 0.1981(2) 0.6947(5) 0.2664(6)
C5 C 0.1285(2) 0.7037(4) 0.2433(4)
C6 C 0.0757(2) 0.7879(4) 0.1237(4)
C7 C -0.0166(2) 0.9067(4) 0.1671(4)
H1 H 0.021(2) 0.412(5) 0.166(5)
H2 H 0.000 0.500 0.000
H3 H -0.026(2) 0.766(4) 0.027(5)
H4 H 0.134(3) 0.505(5) 0.477(6)
H5 H 0.245(3) 0.491(6) 0.524(6)
H6 H 0.294(2) 0.593(5) 0.393(5)
H7 H 0.209(2) 0.755(5) 0.190(5)
H8 H 0.071(3) 0.759(6) 0.036(7)
H9 H 0.090(2) 0.884(5) 0.131(5)
H10 H 0.005(3) 0.986(6) 0.152(5)
H11 H -0.067(2) 0.902(4) 0.123(5)
O1D O 0.0041(1) 0.5204(2) -0.1130(3)
H1D H -0.021(2) 0.588(5) -0.166(5)
C7A C 0.0166(2) 0.9067(4) 0.3329(4)
N2A N -0.0048(2) 0.7787(3) 0.3821(3)
C6A C -0.0757(2) 0.7879(4) 0.3763(4)
C5A C -0.1285(2) 0.7037(4) 0.2567(4)
N1A N -0.1067(1) 0.6322(3) 0.1712(3)
C1A C -0.1531(2) 0.5566(4) 0.0609(4)
C2A C -0.2224(2) 0.5463(5) 0.0307(6)
C3A C -0.2446(2) 0.6144(5) 0.1207(6)
C4A C -0.1981(2) 0.6947(5) 0.2336(6)
H7A H -0.209(2) 0.755(5) 0.310(5)
H6A H -0.294(2) 0.593(5) 0.107(5)
H5A H -0.245(3) 0.491(6) -0.024(6)
H4A H -0.134(3) 0.505(5) 0.023(6)
H8A H -0.071(3) 0.759(6) 0.464(7)
H9A H -0.090(2) 0.884(5) 0.369(5)
H3A H 0.026(2) 0.766(4) 0.473(5)
H10A H -0.005(3) 0.986(6) 0.348(5)
H11A H 0.067(2) 0.902(4) 0.377(5)
O1A O 0.0041(1) 0.4796(2) 0.3870(3)
Cr1D Cr 0.00000 0.37900(7) -0.2500
H1A H -0.021(2) 0.412(5) 0.334(5)
loop_
_geom_bond_atom_site_label_1
_geom_bond_atom_site_label_2
_geom_bond_site_symmetry_1
_geom_bond_site_symmetry_2
Cr1 O1 1_555 1_555
O1 H1 1_555 1_555
N1 Cr1 1_555 1_555
N2 Cr1 1_555 1_555
C1 N1 1_555 1_555
C2 C1 1_555 1_555
C3 C2 1_555 1_555
C4 C3 1_555 1_555
C5 N1 1_555 1_555
C6 N2 1_555 1_555
C7 N2 1_555 1_555
H2 O1 1_555 1_555
H3 N2 1_555 1_555
H4 C1 1_555 1_555
H5 C2 1_555 1_555
H6 C3 1_555 1_555
H7 C4 1_555 1_555
H8 C6 1_555 1_555
H9 C6 1_555 1_555
H10 C7 1_555 1_555
H11 C7 1_555 1_555
O1D H2 1_555 1_555
H1D O1D 1_555 1_555
C7A C7 1_555 1_555
N2A Cr1 1_555 1_555
C6A N2A 1_555 1_555
C5A C6A 1_555 1_555
N1A Cr1 1_555 1_555
C1A N1A 1_555 1_555
C2A C1A 1_555 1_555
C3A C2A 1_555 1_555
C4A C5A 1_555 1_555
H7A C4A 1_555 1_555
H6A C3A 1_555 1_555
H5A C2A 1_555 1_555
H4A C1A 1_555 1_555
H8A C6A 1_555 1_555
H9A C6A 1_555 1_555
H3A N2A 1_555 1_555
H10A C7A 1_555 1_555
H11A C7A 1_555 1_555
O1A Cr1 1_555 1_555
Cr1D O1D 1_555 1_555
H1A O1A 1_555 1_555
C4 C5 1_555 1_555
C5 C6 1_555 1_555
C7A N2A 1_555 1_555
C5A N1A 1_555 1_555
C3A C4A 1_555 1_555

#END
