
#######################################################################
#
#                 Cambridge Crystallographic Data Centre
#                                CCDC 
#
#######################################################################
#
# If this CIF has been generated from an entry in the Cambridge 
# Structural Database, then it will include bibliographic, chemical, 
# crystal, experimental, refinement or atomic coordinate data resulting 
# from the CCDC's data processing and validation procedures.
#
#######################################################################

data_NOJMAA
_symmetry_cell_setting           triclinic
_symmetry_space_group_name_H-M   'P -1'
_symmetry_Int_Tables_number      2
_space_group_name_Hall           '-P 1'
loop_
_symmetry_equiv_pos_site_id
_symmetry_equiv_pos_as_xyz
1 x,y,z
2 -x,-y,-z
_cell_length_a                   7.510(1)
_cell_length_b                   9.700(1)
_cell_length_c                   11.570(1)
_cell_angle_alpha                99.38(1)
_cell_angle_beta                 106.20(1)
_cell_angle_gamma                91.49(1)
_cell_volume                     796.276
loop_
_atom_site_label
_atom_site_type_symbol
_atom_site_fract_x
_atom_site_fract_y
_atom_site_fract_z
Cu1 Cu 0.0000 0.0000 0.0000
Cu2 Cu -0.1118(1) 0.3758(1) -0.0421(1)
Br1 Br -0.2992(1) 0.1701(1) -0.1104(1)
Br2 Br -0.0679(1) 0.5232(1) 0.1544(1)
O1 O 0.0403(5) -0.0366(4) -0.1588(3)
N1 N 0.2594(6) 0.1393(5) -0.0831(4)
N2 N 0.2170(5) 0.1510(4) 0.0290(3)
C1 C 0.1629(7) 0.0410(5) -0.1744(4)
C2 C 0.3103(7) 0.2470(5) 0.1161(5)
C3 C 0.4446(9) 0.3538(7) 0.0999(6)
C4 C 0.2875(9) 0.2538(7) 0.2406(5)
C5 C 0.2068(6) 0.0289(6) -0.2929(4)
C6 C 0.2364(8) 0.1504(7) -0.3331(5)
C7 C 0.2673(8) 0.1464(7) -0.4481(6)
C8 C 0.2708(8) 0.0205(7) -0.5187(5)
C9 C 0.2418(7) -0.1064(6) -0.4812(5)
C10 C 0.2465(9) -0.2381(8) -0.5544(5)
C11 C 0.2176(10) -0.3573(8) -0.5179(6)
C12 C 0.1867(9) -0.3569(7) -0.4041(6)
C13 C 0.1813(8) -0.2343(6) -0.3296(5)
C14 C 0.2078(6) -0.1040(6) -0.3651(4)
H1 H 0.335(9) 0.179(7) -0.089(6)
H2 H 0.501(9) 0.416(7) 0.183(6)
H3 H 0.551(10) 0.321(7) 0.114(7)
H4 H 0.375(9) 0.401(7) 0.039(6)
H5 H 0.403(9) 0.270(7) 0.303(6)
H6 H 0.206(9) 0.348(7) 0.250(6)
H7 H 0.212(9) 0.177(7) 0.242(6)
H8 H 0.239(7) 0.227(5) -0.285(4)
H9 H 0.289(7) 0.231(5) -0.472(5)
H10 H 0.281(7) 0.012(5) -0.600(5)
H11 H 0.275(7) -0.244(5) -0.621(5)
H12 H 0.226(8) -0.435(6) -0.565(5)
H13 H 0.165(7) -0.428(5) -0.382(5)
H14 H 0.158 -0.229 -0.252
Cu2A Cu 0.1118(1) 0.6242(1) 0.0421(1)
Br1A Br 0.2992(1) 0.8299(1) 0.1104(1)
Cu1A Cu 0.0000 1.0000 0.0000
Br2A Br 0.0679(1) 0.4768(1) -0.1544(1)
Br1A_2 Br 0.2992(1) -0.1701(1) 0.1104(1)
O1A O -0.0403(5) 0.0366(4) 0.1588(3)
C1A C -0.1629(7) -0.0410(5) 0.1744(4)
N1A N -0.2594(6) -0.1393(5) 0.0831(4)
N2A N -0.2170(5) -0.1510(4) -0.0290(3)
C2A C -0.3103(7) -0.2470(5) -0.1161(5)
C3A C -0.4446(9) -0.3538(7) -0.0999(6)
H2A H -0.501(9) -0.416(7) -0.183(6)
H3A H -0.551(10) -0.321(7) -0.114(7)
H4A H -0.375(9) -0.401(7) -0.039(6)
C4A C -0.2875(9) -0.2538(7) -0.2406(5)
H5A H -0.403(9) -0.270(7) -0.303(6)
H6A H -0.206(9) -0.348(7) -0.250(6)
H7A H -0.212(9) -0.177(7) -0.242(6)
H1A H -0.335(9) -0.179(7) 0.089(6)
C5A C -0.2068(6) -0.0289(6) 0.2929(4)
C6A C -0.2364(8) -0.1504(7) 0.3331(5)
C7A C -0.2673(8) -0.1464(7) 0.4481(6)
C8A C -0.2708(8) -0.0205(7) 0.5187(5)
C9A C -0.2418(7) 0.1064(6) 0.4812(5)
C10A C -0.2465(9) 0.2381(8) 0.5544(5)
C11A C -0.2176(10) 0.3573(8) 0.5179(6)
C12A C -0.1867(9) 0.3569(7) 0.4041(6)
C13A C -0.1813(8) 0.2343(6) 0.3296(5)
C14A C -0.2078(6) 0.1040(6) 0.3651(4)
H14A H -0.158 0.229 0.252
H13A H -0.165(7) 0.428(5) 0.382(5)
H12A H -0.226(8) 0.435(6) 0.565(5)
H11A H -0.275(7) 0.244(5) 0.621(5)
H10A H -0.281(7) -0.012(5) 0.600(5)
H9A H -0.289(7) -0.231(5) 0.472(5)
H8A H -0.239(7) -0.227(5) 0.285(4)
loop_
_geom_bond_atom_site_label_1
_geom_bond_atom_site_label_2
_geom_bond_site_symmetry_1
_geom_bond_site_symmetry_2
Cu1 Br1 1_555 1_555
Cu2 Br1 1_555 1_555
Br2 Cu2 1_555 1_555
O1 Cu1 1_555 1_555
N1 N2 1_555 1_555
N2 Cu1 1_555 1_555
C1 O1 1_555 1_555
C2 N2 1_555 1_555
C3 C2 1_555 1_555
C4 C2 1_555 1_555
C5 C1 1_555 1_555
C6 C5 1_555 1_555
C7 C6 1_555 1_555
C8 C7 1_555 1_555
C9 C8 1_555 1_555
C10 C9 1_555 1_555
C11 C10 1_555 1_555
C12 C11 1_555 1_555
C13 C12 1_555 1_555
C14 C5 1_555 1_555
H1 N1 1_555 1_555
H2 C3 1_555 1_555
H3 C3 1_555 1_555
H4 C3 1_555 1_555
H5 C4 1_555 1_555
H6 C4 1_555 1_555
H7 C4 1_555 1_555
H8 C6 1_555 1_555
H9 C7 1_555 1_555
H10 C8 1_555 1_555
H11 C10 1_555 1_555
H12 C11 1_555 1_555
H13 C12 1_555 1_555
H14 C13 1_555 1_555
Cu2A Cu2 1_555 1_555
Br1A Cu2A 1_555 1_555
Cu1A Br1A 1_555 1_555
Br2A Cu2 1_555 1_555
Br1A_2 Cu1 1_555 1_555
O1A Cu1 1_555 1_555
C1A O1A 1_555 1_555
N1A C1A 1_555 1_555
N2A Cu1 1_555 1_555
C2A N2A 1_555 1_555
C3A C2A 1_555 1_555
H2A C3A 1_555 1_555
H3A C3A 1_555 1_555
H4A C3A 1_555 1_555
C4A C2A 1_555 1_555
H5A C4A 1_555 1_555
H6A C4A 1_555 1_555
H7A C4A 1_555 1_555
H1A N1A 1_555 1_555
C5A C1A 1_555 1_555
C6A C5A 1_555 1_555
C7A C6A 1_555 1_555
C8A C7A 1_555 1_555
C9A C8A 1_555 1_555
C10A C9A 1_555 1_555
C11A C10A 1_555 1_555
C12A C11A 1_555 1_555
C13A C12A 1_555 1_555
C14A C5A 1_555 1_555
H14A C13A 1_555 1_555
H13A C12A 1_555 1_555
H12A C11A 1_555 1_555
H11A C10A 1_555 1_555
H10A C8A 1_555 1_555
H9A C7A 1_555 1_555
H8A C6A 1_555 1_555
Br2 Cu2A 1_555 1_555
N1 C1 1_555 1_555
C9 C14 1_555 1_555
C13 C14 1_555 1_555
Cu2A Br2A 1_555 1_555
N1A N2A 1_555 1_555
C9A C14A 1_555 1_555
C13A C14A 1_555 1_555

#END
