
#######################################################################
#
#                 Cambridge Crystallographic Data Centre
#                                CCDC 
#
#######################################################################
#
# If this CIF has been generated from an entry in the Cambridge 
# Structural Database, then it will include bibliographic, chemical, 
# crystal, experimental, refinement or atomic coordinate data resulting 
# from the CCDC's data processing and validation procedures.
#
#######################################################################

data_NOJPOT
_symmetry_cell_setting           triclinic
_symmetry_space_group_name_H-M   'P -1'
_symmetry_Int_Tables_number      2
_space_group_name_Hall           '-P 1'
loop_
_symmetry_equiv_pos_site_id
_symmetry_equiv_pos_as_xyz
1 x,y,z
2 -x,-y,-z
_cell_length_a                   6.60970(10)
_cell_length_b                   7.40450(10)
_cell_length_c                   14.8010(2)
_cell_angle_alpha                83.6970(10)
_cell_angle_beta                 82.0750(10)
_cell_angle_gamma                73.0300(10)
_cell_volume                     684.374
loop_
_atom_site_label
_atom_site_type_symbol
_atom_site_fract_x
_atom_site_fract_y
_atom_site_fract_z
Cd1 Cd 0.250266(7) 0.570385(6) 0.444193(3)
Cl1 Cl -0.15501(2) 0.74955(2) 0.477247(11)
Cl2 Cl 0.34759(2) 0.61171(2) 0.604518(11)
F1 F -0.13372(8) 1.17753(8) 0.18221(4)
F2 F 0.50949(9) 0.68920(10) 0.03936(4)
N1 N 0.17633(10) 0.45248(9) 0.31592(4)
N2 N 0.33496(10) 0.85744(8) 0.40451(4)
C1 C 0.16365(11) 0.55356(9) 0.22792(4)
C2 C 0.09491(11) 1.01981(10) 0.29151(5)
H1 H -0.0226 0.9999 0.3319
C3 C 0.34920(11) 0.57392(11) 0.17603(5)
H2 H 0.4840 0.5236 0.1984
C4 C 0.47194(11) 0.98646(10) 0.25630(5)
H3 H 0.6123 0.9436 0.2736
C5 C -0.03273(12) 0.63002(11) 0.19469(5)
H4 H -0.1588 0.6169 0.2308
C6 C 0.06692(11) 1.11293(10) 0.20620(5)
C7 C 0.30139(10) 0.95584(9) 0.31653(5)
C8 C -0.04411(13) 0.72580(13) 0.10844(6)
H5 H -0.1785 0.7777 0.0859
C9 C 0.43564(12) 1.08019(11) 0.17065(5)
H6 H 0.5523 1.1000 0.1296
C10 C 0.33000(13) 0.66988(12) 0.09087(5)
C11 C 0.23156(12) 1.14518(11) 0.14434(5)
H7 H 0.2061 1.2094 0.0860
C12 C 0.13853(14) 0.74646(13) 0.05495(5)
H8 H 0.1321 0.8109 -0.0042
H9 H 0.260(2) 0.9301(19) 0.4477(9)
H10 H 0.055(2) 0.425(2) 0.3356(10)
H11 H 0.466(2) 0.8309(19) 0.4139(9)
H12 H 0.276(2) 0.349(2) 0.3123(10)
Cd1A Cd -0.250266(7) 0.429615(6) 0.555807(3)
Cd1A_2 Cd 0.749734(7) 0.429615(6) 0.555807(3)
Cl1A Cl 0.15501(2) 0.25045(2) 0.522753(11)
Cl2A Cl 0.65241(2) 0.38829(2) 0.395482(11)
loop_
_geom_bond_atom_site_label_1
_geom_bond_atom_site_label_2
_geom_bond_site_symmetry_1
_geom_bond_site_symmetry_2
Cd1 Cl1 1_555 1_555
Cl1 Cd1A 1_555 1_555
Cl2 Cd1 1_555 1_555
F1 C6 1_555 1_555
F2 C10 1_555 1_555
N1 Cd1 1_555 1_555
N2 Cd1 1_555 1_555
C1 N1 1_555 1_555
C2 H1 1_555 1_555
C3 C1 1_555 1_555
H2 C3 1_555 1_555
C4 H3 1_555 1_555
C5 C1 1_555 1_555
H4 C5 1_555 1_555
C6 C2 1_555 1_555
C7 N2 1_555 1_555
C8 C5 1_555 1_555
H5 C8 1_555 1_555
C9 C4 1_555 1_555
H6 C9 1_555 1_555
C10 C3 1_555 1_555
C11 C6 1_555 1_555
H7 C11 1_555 1_555
C12 C8 1_555 1_555
H8 C12 1_555 1_555
H9 N2 1_555 1_555
H10 N1 1_555 1_555
H11 N2 1_555 1_555
H12 N1 1_555 1_555
Cd1A Cl1A 1_555 1_555
Cd1A_2 Cl2 1_555 1_555
Cl1A Cd1 1_555 1_555
Cl2A Cd1 1_555 1_555
C2 C7 1_555 1_555
C4 C7 1_555 1_555
C9 C11 1_555 1_555
C10 C12 1_555 1_555
Cd1A_2 Cl2A 1_555 1_555

#END
