
#######################################################################
#
#                 Cambridge Crystallographic Data Centre
#                                CCDC 
#
#######################################################################
#
# If this CIF has been generated from an entry in the Cambridge 
# Structural Database, then it will include bibliographic, chemical, 
# crystal, experimental, refinement or atomic coordinate data resulting 
# from the CCDC's data processing and validation procedures.
#
#######################################################################

data_NOJPAE
_symmetry_cell_setting           monoclinic
_symmetry_space_group_name_H-M   'C 2'
_symmetry_Int_Tables_number      5
_space_group_name_Hall           'C 2y'
loop_
_symmetry_equiv_pos_site_id
_symmetry_equiv_pos_as_xyz
1 x,y,z
2 -x,y,-z
3 1/2+x,1/2+y,z
4 1/2-x,1/2+y,-z
_cell_length_a                   18.9760(3)
_cell_length_b                   12.3214(2)
_cell_length_c                   14.0540(3)
_cell_angle_alpha                90
_cell_angle_beta                 105.6190(10)
_cell_angle_gamma                90
_cell_volume                     3164.64
loop_
_atom_site_label
_atom_site_type_symbol
_atom_site_fract_x
_atom_site_fract_y
_atom_site_fract_z
Fe1 Fe 0.17219(4) 0.02603(7) 0.24945(6)
Fe2 Fe 0.18327(4) -0.53027(7) -0.24501(6)
O1 O 0.1230(2) -0.3983(4) -0.2119(3)
O2 O 0.15225(17) -0.0151(4) 0.1033(2)
O3 O 0.16442(17) -0.4874(4) 0.6113(2)
O4 O 0.1137(2) -0.1050(4) 0.2852(3)
O5 O 0.2347(2) -0.3519(4) -0.2166(3)
O6 O 0.2258(2) -0.1481(4) 0.2805(3)
O7 O 0.2765(2) -0.4347(4) 0.6094(3)
O8 O 0.26619(19) -0.0638(4) 0.1030(3)
N1 N 0.0959(3) 0.1554(5) 0.2114(4)
N2 N 0.1102(2) -0.6637(5) -0.2805(3)
C1 C 0.1726(3) -0.3292(6) -0.2038(4)
C2 C 0.1654(3) -0.1745(6) 0.2950(4)
C3 C 0.0000 0.4815(10) 0.0000
C4 C 0.2094(3) -0.4477(5) 0.5669(4)
C5 C 0.1978(3) -0.0495(6) 0.0609(4)
C6 C 0.1523(3) -0.2916(6) 0.3249(5)
H1 H 0.1003 -0.3071 0.2962
C7 C 0.1584(3) -0.2130(6) -0.1770(4)
C8 C 0.0000 -0.9898(10) -0.5000
C9 C 0.0296(3) 0.1380(6) 0.1518(5)
H2 H 0.0132 0.0667 0.1418
C10 C 0.0440(3) -0.6444(6) -0.3420(4)
H3 H 0.0291 -0.5726 -0.3540
C11 C 0.1163(3) 0.2596(7) 0.2273(5)
H4 H 0.1622 0.2747 0.2693
C12 C 0.1802(3) -0.4214(6) 0.4584(4)
C13 C 0.0059(3) 0.3260(6) 0.1188(5)
C14 C -0.0160(3) 0.2188(7) 0.1040(4)
H5 H -0.0615 0.2017 0.0619
C15 C 0.1281(3) -0.7666(6) -0.2627(5)
H6 H 0.1712 -0.7827 -0.2149
C16 C 0.1711(3) -0.0785(6) -0.0467(4)
H7 H 0.1245 -0.0409 -0.0734
C17 C 0.0169(3) -0.8315(6) -0.3745(4)
C18 C -0.0396(3) 0.4163(6) 0.0629(5)
H8 H -0.0532 0.4648 0.1094
H9 H -0.0842 0.3862 0.0202
C19 C -0.0320(4) -0.9216(7) -0.4305(5)
H10 H -0.0773 -0.8892 -0.4691
H11 H -0.0441 -0.9699 -0.3827
C20 C -0.0035(3) -0.7252(7) -0.3885(5)
H12 H -0.0493 -0.7071 -0.4293
C21 C 0.0734(3) 0.3435(6) 0.1853(4)
H13 H 0.0895 0.4142 0.2013
C22 C 0.0854(3) -0.8535(7) -0.3121(5)
H14 H 0.1028 -0.9243 -0.3029
C23 C 0.2184(4) -0.2706(7) -0.0066(5)
H15 H 0.2077 -0.3460 -0.0205
H16 H 0.2239 -0.2571 0.0623
H17 H 0.2630 -0.2522 -0.0227
C24 C 0.1953(4) -0.3776(6) 0.2848(6)
H18 H 0.2315 -0.3463 0.2557
H19 H 0.1638 -0.4270 0.2385
C25 C 0.1672(7) -0.3015(10) 0.4405(6)
C26 C 0.1567(3) -0.2025(6) -0.0675(4)
C27 C 0.2229(3) -0.0448(7) -0.1111(4)
H20 H 0.2064 0.0227 -0.1455
H21 H 0.2724 -0.0349 -0.0700
C28 C 0.2097(4) -0.2225(8) 0.5035(6)
H22 H 0.2599 -0.2291 0.5023
H23 H 0.2061 -0.2334 0.5696
H24 H 0.1919 -0.1515 0.4812
C29 C 0.2331(5) -0.4356(9) 0.3974(6)
H25 H 0.2421 -0.5121 0.3896
H26 H 0.2792 -0.4007 0.4293
C30 C 0.0835(3) -0.2332(7) -0.0478(5)
H27 H 0.0746 -0.3093 -0.0597
H28 H 0.0447 -0.1924 -0.0909
H29 H 0.0853 -0.2170 0.0197
C31 C 0.0877(6) -0.2634(13) 0.4631(9)
H30 H 0.0929 -0.2656 0.5330
H31 H 0.0494 -0.3120 0.4300
H32 H 0.0757 -0.1909 0.4393
C32 C 0.0846(4) -0.1748(7) -0.2508(5)
H33 H 0.0461 -0.2241 -0.2476
H34 H 0.0900 -0.1739 -0.3168
H35 H 0.0727 -0.1033 -0.2331
C33 C 0.1090(4) -0.4753(10) 0.4097(5)
H36 H 0.1144 -0.5525 0.4173
H37 H 0.0948 -0.4574 0.3406
H38 H 0.0721 -0.4505 0.4398
C34 C 0.2199(4) -0.1336(6) -0.1820(5)
H39 H 0.2664 -0.1715 -0.1664
H40 H 0.2108 -0.1043 -0.2483
Fe1C Fe 0.32781(4) 0.52603(7) 0.75055(6)
Fe1C_2 Fe 0.32781(4) -0.47397(7) 0.75055(6)
Fe1A Fe -0.17219(4) 0.02603(7) -0.24945(6)
Fe1C_3 Fe 0.32781(4) -0.47397(7) -0.24945(6)
Fe2_2 Fe 0.18327(4) -0.53027(7) 0.75499(6)
Fe2C Fe 0.31673(4) -0.03027(7) 0.24501(6)
Fe2A Fe -0.18327(4) -0.53027(7) -0.75499(6)
Fe2C_2 Fe 0.31673(4) -1.03027(7) 0.24501(6)
O1C O 0.3770(2) -0.8983(4) 0.2119(3)
O1_2 O 0.1230(2) -0.3983(4) 0.7881(3)
O2C O 0.34775(17) -0.5151(4) -0.1033(2)
O2C_2 O 0.34775(17) 0.4849(4) 0.8967(2)
O3C O 0.33558(17) 0.0126(4) 0.3887(2)
O3_2 O 0.16442(17) -0.4874(4) -0.3887(2)
O4C O 0.3863(2) 0.3950(4) 0.7148(3)
O5C O 0.2653(2) -0.8519(4) 0.2166(3)
O5_2 O 0.2347(2) -0.3519(4) 0.7834(3)
O6C O 0.2742(2) 0.3519(4) 0.7195(3)
O7C O 0.2235(2) 0.0653(4) 0.3906(3)
O7_2 O 0.2765(2) 0.5653(4) 0.6094(3)
O8C O 0.23381(19) -0.5638(4) -0.1030(3)
O8C_2 O 0.23381(19) -0.5638(4) 0.8970(3)
N1A N -0.0959(3) 0.1554(5) -0.2114(4)
N1C N 0.4041(3) 0.6554(5) 0.7886(4)
N2A N -0.1102(2) -0.6637(5) -0.7195(3)
N2_2 N 0.1102(2) -0.6637(5) 0.7195(3)
C1C C 0.3274(3) -0.8292(6) 0.2038(4)
C2C C 0.3346(3) 0.3255(6) 0.7050(4)
C4C C 0.2906(3) 0.0523(5) 0.4331(4)
C5C C 0.3022(3) -0.5495(6) -0.0609(4)
C6C C 0.3477(3) 0.2084(6) 0.6751(5)
H1C H 0.3997 0.1929 0.7038
C7C C 0.3416(3) -0.7130(6) 0.1770(4)
C9A C -0.0296(3) 0.1380(6) -0.1518(5)
H2A H -0.0132 0.0667 -0.1418
C10A C -0.0440(3) -0.6444(6) -0.6580(4)
H3A H -0.0291 -0.5726 -0.6460
C11A C -0.1163(3) 0.2596(7) -0.2273(5)
H4A H -0.1622 0.2747 -0.2693
C12C C 0.3198(3) 0.0786(6) 0.5416(4)
C13A C -0.0059(3) 0.3260(6) -0.1188(5)
C14A C 0.0160(3) 0.2188(7) -0.1040(4)
H5A H 0.0615 0.2017 -0.0619
C15A C -0.1281(3) -0.7666(6) -0.7373(5)
H6A H -0.1712 -0.7827 -0.7851
C16C C 0.3289(3) -0.5785(6) 0.0467(4)
H7C H 0.3755 -0.5409 0.0734
C17A C -0.0169(3) -0.8315(6) -0.6255(4)
C18A C 0.0396(3) 0.4163(6) -0.0629(5)
H8A H 0.0532 0.4648 -0.1094
H9A H 0.0842 0.3862 -0.0202
C19A C 0.0320(4) -0.9216(7) -0.5695(5)
H10A H 0.0773 -0.8892 -0.5309
H11A H 0.0441 -0.9699 -0.6173
C20A C 0.0035(3) -0.7252(7) -0.6115(5)
H12A H 0.0493 -0.7071 -0.5707
C21A C -0.0734(3) 0.3435(6) -0.1853(4)
H13A H -0.0895 0.4142 -0.2013
C22A C -0.0854(3) -0.8535(7) -0.6879(5)
H14A H -0.1028 -0.9243 -0.6971
C23C C 0.2816(4) -0.7706(7) 0.0066(5)
H15C H 0.2923 -0.8460 0.0205
H16C H 0.2761 -0.7571 -0.0623
H17C H 0.2370 -0.7522 0.0227
C24C C 0.3047(4) 0.1224(6) 0.7152(6)
H18C H 0.2685 0.1537 0.7443
H19C H 0.3362 0.0730 0.7615
C25C C 0.3328(7) 0.1985(10) 0.5595(6)
C26C C 0.3433(3) -0.7025(6) 0.0675(4)
C27C C 0.2771(3) -0.5448(7) 0.1111(4)
H20C H 0.2936 -0.4773 0.1455
H21C H 0.2276 -0.5349 0.0700
C28C C 0.2903(4) 0.2775(8) 0.4965(6)
H22C H 0.2401 0.2709 0.4977
H23C H 0.2939 0.2666 0.4304
H24C H 0.3081 0.3485 0.5188
C29C C 0.2669(5) 0.0644(9) 0.6026(6)
H25C H 0.2579 -0.0121 0.6104
H26C H 0.2208 0.0993 0.5707
C30C C 0.4165(3) -0.7332(7) 0.0478(5)
H27C H 0.4254 -0.8093 0.0597
H28C H 0.4553 -0.6924 0.0909
H29C H 0.4147 -0.7170 -0.0197
C31C C 0.4123(6) 0.2366(13) 0.5369(9)
H30C H 0.4071 0.2344 0.4670
H31C H 0.4506 0.1880 0.5700
H32C H 0.4243 0.3091 0.5607
C32C C 0.4154(4) -0.6748(7) 0.2508(5)
H33C H 0.4539 -0.7241 0.2476
H34C H 0.4100 -0.6739 0.3168
H35C H 0.4273 -0.6033 0.2331
C33C C 0.3910(4) 0.0247(10) 0.5903(5)
H36C H 0.3856 -0.0525 0.5827
H37C H 0.4052 0.0426 0.6594
H38C H 0.4279 0.0495 0.5602
C34C C 0.2801(4) -0.6336(6) 0.1820(5)
H39C H 0.2336 -0.6715 0.1664
H40C H 0.2892 -0.6043 0.2483
loop_
_geom_bond_atom_site_label_1
_geom_bond_atom_site_label_2
_geom_bond_site_symmetry_1
_geom_bond_site_symmetry_2
Fe1 O2 1_555 1_555
Fe2 O1 1_555 1_555
O1 C1 1_555 1_555
O2 C5 1_555 1_555
O3 C4 1_555 1_555
O4 Fe1 1_555 1_555
O5 Fe2 1_555 1_555
O6 Fe1 1_555 1_555
O7 C4 1_555 1_555
O8 C5 1_555 1_555
N1 Fe1 1_555 1_555
N2 Fe2 1_555 1_555
C1 O5 1_555 1_555
C2 O4 1_555 1_555
C3 C18 1_555 1_555
C4 C12 1_555 1_555
C5 C16 1_555 1_555
C6 C2 1_555 1_555
H1 C6 1_555 1_555
C7 C1 1_555 1_555
C8 C19 1_555 1_555
C9 N1 1_555 1_555
H2 C9 1_555 1_555
C10 N2 1_555 1_555
H3 C10 1_555 1_555
C11 N1 1_555 1_555
H4 C11 1_555 1_555
C12 C25 1_555 1_555
C13 C14 1_555 1_555
C14 C9 1_555 1_555
H5 C14 1_555 1_555
C15 N2 1_555 1_555
H6 C15 1_555 1_555
C16 H7 1_555 1_555
C17 C19 1_555 1_555
C18 C13 1_555 1_555
H8 C18 1_555 1_555
H9 C18 1_555 1_555
C19 H10 1_555 1_555
H11 C19 1_555 1_555
C20 C10 1_555 1_555
H12 C20 1_555 1_555
C21 C11 1_555 1_555
H13 C21 1_555 1_555
C22 C15 1_555 1_555
H14 C22 1_555 1_555
C23 H15 1_555 1_555
H16 C23 1_555 1_555
H17 C23 1_555 1_555
C24 C6 1_555 1_555
H18 C24 1_555 1_555
H19 C24 1_555 1_555
C25 C6 1_555 1_555
C26 C7 1_555 1_555
C27 C16 1_555 1_555
H20 C27 1_555 1_555
H21 C27 1_555 1_555
C28 C25 1_555 1_555
H22 C28 1_555 1_555
H23 C28 1_555 1_555
H24 C28 1_555 1_555
C29 C12 1_555 1_555
H25 C29 1_555 1_555
H26 C29 1_555 1_555
C30 C26 1_555 1_555
H27 C30 1_555 1_555
H28 C30 1_555 1_555
H29 C30 1_555 1_555
C31 C25 1_555 1_555
H30 C31 1_555 1_555
H31 C31 1_555 1_555
H32 C31 1_555 1_555
C32 C7 1_555 1_555
H33 C32 1_555 1_555
H34 C32 1_555 1_555
H35 C32 1_555 1_555
C33 C12 1_555 1_555
H36 C33 1_555 1_555
H37 C33 1_555 1_555
H38 C33 1_555 1_555
C34 C7 1_555 1_555
H39 C34 1_555 1_555
H40 C34 1_555 1_555
Fe1C O2C_2 1_555 1_555
Fe1C_2 O7 1_555 1_555
Fe1A N1A 1_555 1_555
Fe1C_3 O2C 1_555 1_555
Fe2_2 O3 1_555 1_555
Fe2C O8 1_555 1_555
Fe2A N2A 1_555 1_555
Fe2C_2 O1C 1_555 1_555
O1C C1C 1_555 1_555
O1_2 Fe2_2 1_555 1_555
O2C C5C 1_555 1_555
O3C Fe2C 1_555 1_555
O3_2 Fe2 1_555 1_555
O4C Fe1C 1_555 1_555
O5C Fe2C_2 1_555 1_555
O5_2 Fe2_2 1_555 1_555
O6C Fe1C 1_555 1_555
O7C Fe1 1_555 1_555
O7_2 Fe1C 1_555 1_555
O8C Fe2 1_555 1_555
O8C_2 Fe2_2 1_555 1_555
N1A C9A 1_555 1_555
N1C Fe1C 1_555 1_555
N2A C10A 1_555 1_555
N2_2 Fe2_2 1_555 1_555
C1C O5C 1_555 1_555
C2C O4C 1_555 1_555
C4C O3C 1_555 1_555
C5C O8C 1_555 1_555
C6C C2C 1_555 1_555
H1C C6C 1_555 1_555
C7C C1C 1_555 1_555
C9A H2A 1_555 1_555
C10A H3A 1_555 1_555
C11A N1A 1_555 1_555
H4A C11A 1_555 1_555
C12C C4C 1_555 1_555
C13A C14A 1_555 1_555
C14A C9A 1_555 1_555
H5A C14A 1_555 1_555
C15A N2A 1_555 1_555
H6A C15A 1_555 1_555
C16C C5C 1_555 1_555
H7C C16C 1_555 1_555
C17A C19A 1_555 1_555
C18A C3 1_555 1_555
H8A C18A 1_555 1_555
H9A C18A 1_555 1_555
C19A C8 1_555 1_555
H10A C19A 1_555 1_555
H11A C19A 1_555 1_555
C20A C10A 1_555 1_555
H12A C20A 1_555 1_555
C21A C11A 1_555 1_555
H13A C21A 1_555 1_555
C22A C15A 1_555 1_555
H14A C22A 1_555 1_555
C23C H15C 1_555 1_555
H16C C23C 1_555 1_555
H17C C23C 1_555 1_555
C24C C6C 1_555 1_555
H18C C24C 1_555 1_555
H19C C24C 1_555 1_555
C25C C6C 1_555 1_555
C26C C7C 1_555 1_555
C27C C16C 1_555 1_555
H20C C27C 1_555 1_555
H21C C27C 1_555 1_555
C28C C25C 1_555 1_555
H22C C28C 1_555 1_555
H23C C28C 1_555 1_555
H24C C28C 1_555 1_555
C29C C12C 1_555 1_555
H25C C29C 1_555 1_555
H26C C29C 1_555 1_555
C30C C26C 1_555 1_555
H27C C30C 1_555 1_555
H28C C30C 1_555 1_555
H29C C30C 1_555 1_555
C31C C25C 1_555 1_555
H30C C31C 1_555 1_555
H31C C31C 1_555 1_555
H32C C31C 1_555 1_555
C32C C7C 1_555 1_555
H33C C32C 1_555 1_555
H34C C32C 1_555 1_555
H35C C32C 1_555 1_555
C33C C12C 1_555 1_555
H36C C33C 1_555 1_555
H37C C33C 1_555 1_555
H38C C33C 1_555 1_555
C34C C7C 1_555 1_555
H39C C34C 1_555 1_555
H40C C34C 1_555 1_555
O6 C2 1_555 1_555
C13 C21 1_555 1_555
C16 C26 1_555 1_555
C17 C20 1_555 1_555
C17 C22 1_555 1_555
C23 C26 1_555 1_555
C24 C29 1_555 1_555
C27 C34 1_555 1_555
O6C C2C 1_555 1_555
O7C C4C 1_555 1_555
C12C C25C 1_555 1_555
C13A C18A 1_555 1_555
C13A C21A 1_555 1_555
C16C C26C 1_555 1_555
C17A C20A 1_555 1_555
C17A C22A 1_555 1_555
C23C C26C 1_555 1_555
C24C C29C 1_555 1_555
C27C C34C 1_555 1_555

#END
