
#######################################################################
#
#                 Cambridge Crystallographic Data Centre
#                                CCDC 
#
#######################################################################
#
# If this CIF has been generated from an entry in the Cambridge 
# Structural Database, then it will include bibliographic, chemical, 
# crystal, experimental, refinement or atomic coordinate data resulting 
# from the CCDC's data processing and validation procedures.
#
#######################################################################

data_NOJRUB
_symmetry_cell_setting           orthorhombic
_symmetry_space_group_name_H-M   'P n n a'
_symmetry_Int_Tables_number      52
_space_group_name_Hall           '-P 2a 2bc'
loop_
_symmetry_equiv_pos_site_id
_symmetry_equiv_pos_as_xyz
1 x,y,z
2 1/2-x,-y,z
3 x,1/2-y,1/2-z
4 1/2-x,1/2+y,1/2-z
5 -x,-y,-z
6 1/2+x,y,-z
7 -x,1/2+y,1/2+z
8 1/2+x,1/2-y,1/2+z
_cell_length_a                   10.5380(15)
_cell_length_b                   16.894(2)
_cell_length_c                   15.325(2)
_cell_angle_alpha                90
_cell_angle_beta                 90
_cell_angle_gamma                90
_cell_volume                     2728.29
loop_
_atom_site_label
_atom_site_type_symbol
_atom_site_fract_x
_atom_site_fract_y
_atom_site_fract_z
Cd1 Cd 0.163630(18) 0.2500 0.2500
N1 N 0.01089(19) 0.25284(9) 0.14725(13)
N2 N -0.08595(18) 0.26036(10) 0.02066(12)
H1 H -0.1030 0.2520 -0.0335
O1 O 0.33393(15) 0.27707(11) 0.35149(11)
O2 O 0.26099(16) 0.37268(10) 0.26745(10)
C1 C -0.2606(2) 0.35813(13) 0.05140(13)
C2 C -0.2818(2) 0.38157(13) -0.03402(13)
H2 H -0.2322 0.3606 -0.0785
C3 C -0.3757(2) 0.43566(13) -0.05390(13)
H3 H -0.3882 0.4501 -0.1118
C4 C -0.4518(2) 0.46911(13) 0.01014(13)
C5 C -0.4349(3) 0.4416(2) 0.09497(16)
H4 H -0.4879 0.4600 0.1390
C6 C -0.3412(3) 0.3878(2) 0.11502(17)
H5 H -0.3318 0.3709 0.1724
C7 C -0.15350(19) 0.30831(13) 0.07651(13)
C8 C -0.0927(2) 0.30233(13) 0.15441(13)
H6 H -0.1175 0.3280 0.2054
C9 C 0.0109(2) 0.22895(14) 0.06540(13)
H7 H 0.0706 0.1946 0.0417
C10 C 0.4612(2) 0.39254(13) 0.33604(13)
C11 C 0.5730(2) 0.35419(13) 0.36020(14)
H8 H 0.5725 0.2999 0.3700
C12 C 0.6846(2) 0.39624(15) 0.36971(15)
H9 H 0.7583 0.3697 0.3857
C13 C 0.6887(2) 0.47772(13) 0.35570(13)
C14 C 0.5752(2) 0.51591(14) 0.33480(15)
H10 H 0.5749 0.5706 0.3276
C15 C 0.4627(2) 0.47426(13) 0.32455(14)
H11 H 0.3884 0.5009 0.3100
C16 C 0.34366(19) 0.34515(13) 0.31824(13)
N1D N -1.01089(19) 0.74716(9) -0.14725(13)
N2D N -0.91405(18) 0.73964(10) -0.02066(12)
H1D H -0.8970 0.7480 0.0335
C1D C -0.7394(2) 0.64187(13) -0.05140(13)
C2D C -0.7182(2) 0.61843(13) 0.03402(13)
H2D H -0.7678 0.6394 0.0785
C3D C -0.6243(2) 0.56434(13) 0.05390(13)
H3D H -0.6118 0.5499 0.1118
C4D C -0.5482(2) 0.53089(13) -0.01014(13)
C5D C -0.5651(3) 0.5584(2) -0.09497(16)
H4D H -0.5121 0.5400 -0.1390
C6D C -0.6588(3) 0.6122(2) -0.11502(17)
H5D H -0.6682 0.6291 -0.1724
C7D C -0.84650(19) 0.69169(13) -0.07651(13)
C8D C -0.9073(2) 0.69767(13) -0.15441(13)
H6D H -0.8825 0.6720 -0.2054
C9D C -1.0109(2) 0.77105(14) -0.06540(13)
H7D H -1.0706 0.8054 -0.0417
O1A O 1.16607(15) 0.72293(11) 0.35149(11)
O2A O 1.23901(16) 0.62732(10) 0.26745(10)
C10A C 1.0388(2) 0.60746(13) 0.33604(13)
C11A C 0.9270(2) 0.64581(13) 0.36020(14)
H8A H 0.9275 0.7001 0.3700
C12A C 0.8154(2) 0.60376(15) 0.36971(15)
H9A H 0.7417 0.6303 0.3857
C13A C 0.8113(2) 0.52228(13) 0.35570(13)
C14A C 0.9248(2) 0.48409(14) 0.33480(15)
H10A H 0.9251 0.4294 0.3276
C15A C 1.0373(2) 0.52574(13) 0.32455(14)
H11A H 1.1116 0.4991 0.3100
C16A C 1.15634(19) 0.65485(13) 0.31824(13)
Cd1A Cd 1.336370(18) 0.7500 0.2500
Cd1D Cd -1.163630(18) 0.7500 -0.2500
N1B N 0.01089(19) 0.24716(9) 0.35275(13)
O1B O 0.33393(15) 0.22293(11) 0.14851(11)
O2B O 0.26099(16) 0.12732(10) 0.23255(10)
loop_
_geom_bond_atom_site_label_1
_geom_bond_atom_site_label_2
_geom_bond_site_symmetry_1
_geom_bond_site_symmetry_2
Cd1 N1 1_555 1_555
N1 C8 1_555 1_555
N2 H1 1_555 1_555
O1 Cd1 1_555 1_555
O2 Cd1 1_555 1_555
C1 C2 1_555 1_555
C2 H2 1_555 1_555
C3 C2 1_555 1_555
H3 C3 1_555 1_555
C4 C3 1_555 1_555
C5 C4 1_555 1_555
H4 C5 1_555 1_555
C6 C1 1_555 1_555
H5 C6 1_555 1_555
C7 N2 1_555 1_555
C8 C7 1_555 1_555
H6 C8 1_555 1_555
C9 N1 1_555 1_555
H7 C9 1_555 1_555
C10 C11 1_555 1_555
C11 H8 1_555 1_555
C12 C11 1_555 1_555
H9 C12 1_555 1_555
C13 C12 1_555 1_555
C14 C13 1_555 1_555
H10 C14 1_555 1_555
C15 C10 1_555 1_555
H11 C15 1_555 1_555
C16 O1 1_555 1_555
N1D C8D 1_555 1_555
N2D H1D 1_555 1_555
C1D C2D 1_555 1_555
C2D H2D 1_555 1_555
C3D C2D 1_555 1_555
H3D C3D 1_555 1_555
C4D C4 1_555 1_555
C5D C4D 1_555 1_555
H4D C5D 1_555 1_555
C6D C1D 1_555 1_555
H5D C6D 1_555 1_555
C7D N2D 1_555 1_555
C8D C7D 1_555 1_555
H6D C8D 1_555 1_555
C9D N1D 1_555 1_555
H7D C9D 1_555 1_555
O1A C16A 1_555 1_555
O2A C16A 1_555 1_555
C10A C11A 1_555 1_555
C11A H8A 1_555 1_555
C12A C11A 1_555 1_555
H9A C12A 1_555 1_555
C13A C13 1_555 1_555
C14A C13A 1_555 1_555
H10A C14A 1_555 1_555
C15A C10A 1_555 1_555
H11A C15A 1_555 1_555
C16A C10A 1_555 1_555
Cd1A O1A 1_555 1_555
Cd1D N1D 1_555 1_555
N1B Cd1 1_555 1_555
O1B Cd1 1_555 1_555
O2B Cd1 1_555 1_555
N2 C9 1_555 1_555
O2 C16 1_555 1_555
C1 C7 1_555 1_555
C5 C6 1_555 1_555
C10 C16 1_555 1_555
C14 C15 1_555 1_555
N2D C9D 1_555 1_555
C1D C7D 1_555 1_555
C3D C4D 1_555 1_555
C5D C6D 1_555 1_555
O2A Cd1A 1_555 1_555
C12A C13A 1_555 1_555
C14A C15A 1_555 1_555

#END
