
#######################################################################
#
#                 Cambridge Crystallographic Data Centre
#                                CCDC 
#
#######################################################################
#
# If this CIF has been generated from an entry in the Cambridge 
# Structural Database, then it will include bibliographic, chemical, 
# crystal, experimental, refinement or atomic coordinate data resulting 
# from the CCDC's data processing and validation procedures.
#
#######################################################################

data_NOJSAI
_symmetry_cell_setting           triclinic
_symmetry_space_group_name_H-M   'P -1'
_symmetry_Int_Tables_number      2
_space_group_name_Hall           '-P 1'
loop_
_symmetry_equiv_pos_site_id
_symmetry_equiv_pos_as_xyz
1 x,y,z
2 -x,-y,-z
_cell_length_a                   10.225(5)
_cell_length_b                   16.558(5)
_cell_length_c                   17.019(5)
_cell_angle_alpha                64.051(5)
_cell_angle_beta                 73.338(5)
_cell_angle_gamma                89.379(5)
_cell_volume                     2460.06
loop_
_atom_site_label
_atom_site_type_symbol
_atom_site_fract_x
_atom_site_fract_y
_atom_site_fract_z
Cd1 Cd 1.230407(18) 0.551184(12) 0.262048(13)
Cd2 Cd 0.91228(2) 0.045462(13) -0.101433(13)
N1 N 1.2319(2) 0.69378(16) 0.23678(18)
N2 N 1.1660(2) 0.83172(15) 0.20027(17)
N3 N 1.5613(4) 1.4008(2) 0.4572(2)
N4 N 1.6750(3) 1.3037(2) 0.4195(2)
H1 H 1.7419 1.2743 0.4084
N5 N 1.1561(2) 0.45325(16) 0.41679(16)
N6 N 1.1218(3) 0.42617(19) 0.56009(18)
H2 H 1.1243 0.4341 0.6063
N7 N 0.7312(3) -0.21698(17) 0.29398(19)
H3 H 0.6829 -0.2675 0.3114
N8 N 0.8750(2) -0.09112(16) 0.20534(17)
N9 N 0.7583(3) -0.06790(16) -0.05629(19)
N10 N 0.5523(3) -0.12709(19) -0.0357(2)
H4 H 0.4656 -0.1325 -0.0286
O1 O 1.11258(19) 0.51881(14) 0.18372(14)
O2 O 0.9609(2) 0.55885(18) 0.27698(17)
O3 O 0.9585(2) 0.10577(15) -0.01521(15)
O4 O 0.7308(2) 0.08947(15) 0.01776(16)
O5 O 0.39732(18) 0.46761(13) 0.22708(13)
O6 O 0.4754(2) 0.57050(15) 0.25721(17)
C1 C 1.3099(3) 0.89476(18) 0.2632(2)
C2 C 1.2243(3) 0.95750(19) 0.2730(2)
H5 H 1.1391 0.9562 0.2639
C3 C 1.2630(3) 1.02201(18) 0.29605(19)
H6 H 1.2036 1.0636 0.3012
C4 C 1.3888(3) 1.02638(18) 0.3118(2)
C5 C 1.4744(4) 0.9636(2) 0.3007(3)
H7 H 1.5596 0.9648 0.3098
C6 C 1.4373(4) 0.8999(2) 0.2768(3)
H8 H 1.4980 0.8596 0.2696
C7 C 1.4279(3) 1.09335(18) 0.33992(19)
C8 C 1.3686(3) 1.1730(2) 0.3217(2)
H9 H 1.3024 1.1841 0.2918
C9 C 1.4053(3) 1.2361(2) 0.3469(2)
H10 H 1.3628 1.2884 0.3343
C10 C 1.5047(3) 1.22243(19) 0.39089(19)
C11 C 1.5646(3) 1.1423(2) 0.4101(2)
H11 H 1.6303 1.1310 0.4405
C12 C 1.5270(3) 1.07975(19) 0.3842(2)
H12 H 1.5691 1.0274 0.3968
C13 C 1.2665(3) 0.82396(19) 0.2420(2)
C14 C 1.3061(3) 0.73926(19) 0.2640(2)
H13 H 1.3726 0.7165 0.2926
C15 C 1.1502(3) 0.75215(18) 0.1998(2)
H14 H 1.0876 0.7385 0.1756
C16 C 1.5469(3) 1.2906(2) 0.4154(2)
C17 C 1.4790(4) 1.3518(2) 0.4385(2)
H15 H 1.3878 1.3594 0.4413
C18 C 1.6792(5) 1.3703(3) 0.4437(3)
H16 H 1.7569 1.3921 0.4502
C19 C 0.8610(3) -0.02876(17) 0.31816(19)
C20 C 0.9109(3) 0.06003(18) 0.25126(19)
H17 H 0.9245 0.0752 0.1898
C21 C 0.9407(3) 0.12613(18) 0.2748(2)
H18 H 0.9734 0.1851 0.2289
C22 C 0.9226(3) 0.10619(18) 0.36626(19)
C23 C 0.8735(3) 0.0172(2) 0.4326(2)
H19 H 0.8613 0.0018 0.4940
C24 C 0.8422(3) -0.04914(19) 0.4093(2)
H20 H 0.8082 -0.1079 0.4553
C25 C 0.9582(3) 0.17657(18) 0.39187(18)
C26 C 1.0476(3) 0.25596(18) 0.32814(19)
H21 H 1.0820 0.2669 0.2670
C27 C 1.0867(3) 0.31894(19) 0.3530(2)
H22 H 1.1473 0.3707 0.3086
C28 C 1.0364(3) 0.30595(18) 0.44350(19)
C29 C 0.9430(4) 0.2280(2) 0.5068(2)
H23 H 0.9048 0.2184 0.5672
C30 C 0.9062(4) 0.1651(2) 0.4818(2)
H24 H 0.8450 0.1136 0.5261
C31 C 0.8258(3) -0.09810(18) 0.29310(19)
C32 C 0.7361(3) -0.1766(2) 0.3479(2)
H25 H 0.6877 -0.1983 0.4101
C33 C 0.8140(3) -0.1646(2) 0.2100(2)
H26 H 0.8280 -0.1774 0.1604
C34 C 1.0806(3) 0.36791(18) 0.47472(19)
C35 C 1.0591(3) 0.3516(2) 0.5640(2)
H27 H 1.0112 0.2999 0.6169
C36 C 1.1782(3) 0.4844(2) 0.4718(2)
H28 H 1.2275 0.5406 0.4513
C37 C 0.5957(3) -0.28067(19) -0.0265(2)
C38 C 0.4607(3) -0.32222(18) 0.01639(19)
H29 H 0.3937 -0.2929 0.0395
C39 C 0.4240(3) -0.40646(18) 0.02539(18)
H30 H 0.3322 -0.4323 0.0537
C40 C 0.5204(3) -0.45410(17) -0.00671(18)
C41 C 0.6556(3) -0.4113(2) -0.0513(3)
H31 H 0.7223 -0.4405 -0.0749
C42 C 0.6933(3) -0.3267(2) -0.0612(3)
H32 H 0.7845 -0.2999 -0.0912
C43 C 0.6394(3) -0.1921(2) -0.0363(2)
C44 C 0.7651(3) -0.15138(19) -0.0538(2)
H33 H 0.8461 -0.1769 -0.0629
C45 C 0.6286(3) -0.0542(2) -0.0485(3)
H34 H 0.5945 -0.0010 -0.0515
C46 C 0.8323(3) 0.19465(17) 0.05072(18)
C47 C 0.7153(3) 0.18979(18) 0.12030(19)
H35 H 0.6439 0.1427 0.1459
C48 C 0.7053(3) 0.25421(18) 0.15114(19)
H36 H 0.6281 0.2489 0.1990
C49 C 0.8085(3) 0.32758(17) 0.11224(17)
C50 C 0.9238(3) 0.33286(18) 0.04232(18)
H37 H 0.9938 0.3812 0.0152
C51 C 0.9359(3) 0.26661(19) 0.01228(19)
H38 H 1.0144 0.2706 -0.0342
C52 C 0.7893(3) 0.39677(17) 0.14741(17)
C53 C 0.6593(3) 0.42207(17) 0.17113(17)
H39 H 0.5863 0.3975 0.1626
C54 C 0.6367(3) 0.48381(17) 0.20751(17)
C55 C 0.7453(3) 0.51907(18) 0.22149(18)
H40 H 0.7307 0.5596 0.2465
C56 C 0.8765(3) 0.49436(17) 0.19835(17)
C57 C 0.8984(3) 0.43447(17) 0.15975(17)
H41 H 0.9864 0.4196 0.1421
C58 C 0.8394(3) 0.12465(19) 0.01655(19)
C59 C 0.4949(3) 0.50884(17) 0.23253(18)
C60 C 0.9907(3) 0.52704(18) 0.22070(18)
N9A N 0.2417(3) -0.93210(16) 0.05629(19)
N10A N 0.4477(3) -0.87291(19) 0.0357(2)
H4A H 0.5344 -0.8675 0.0286
C37A C 0.4043(3) -0.71933(19) 0.0265(2)
C38A C 0.5393(3) -0.67778(18) -0.01639(19)
H29A H 0.6063 -0.7071 -0.0395
C39A C 0.5760(3) -0.59354(18) -0.02539(18)
H30A H 0.6678 -0.5677 -0.0537
C40A C 0.4796(3) -0.54590(17) 0.00671(18)
C41A C 0.3444(3) -0.5887(2) 0.0513(3)
H31A H 0.2777 -0.5595 0.0749
C42A C 0.3067(3) -0.6733(2) 0.0612(3)
H32A H 0.2155 -0.7001 0.0912
C43A C 0.3606(3) -0.8079(2) 0.0363(2)
C44A C 0.2349(3) -0.84862(19) 0.0538(2)
H33A H 0.1539 -0.8231 0.0629
C45A C 0.3714(3) -0.9458(2) 0.0485(3)
H34A H 0.4055 -0.9990 0.0515
Cd1A Cd -0.230407(18) -1.551184(12) -0.262048(13)
Cd2A Cd 0.08772(2) -1.045462(13) 0.101433(13)
N1A N -0.2319(2) -1.69378(16) -0.23678(18)
N2A N -0.1660(2) -1.83172(15) -0.20027(17)
N3A N -0.5613(4) -2.4008(2) -0.4572(2)
N4A N -0.6750(3) -2.3037(2) -0.4195(2)
H1A H -0.7419 -2.2743 -0.4084
N5A N -0.1561(2) -1.45325(16) -0.41679(16)
N6A N -0.1218(3) -1.42617(19) -0.56009(18)
H2A H -0.1243 -1.4341 -0.6063
N7A N 0.2688(3) -0.78302(17) -0.29398(19)
H3A H 0.3171 -0.7325 -0.3114
N8A N 0.1250(2) -0.90888(16) -0.20534(17)
O1A O -0.11258(19) -1.51881(14) -0.18372(14)
O2A O 0.0391(2) -1.55885(18) -0.27698(17)
O3A O 0.0415(2) -1.10577(15) 0.01521(15)
O4A O 0.2692(2) -1.08947(15) -0.01776(16)
O5A O 0.60268(18) -1.46761(13) -0.22708(13)
O6A O 0.5246(2) -1.57050(15) -0.25721(17)
C1A C -0.3099(3) -1.89476(18) -0.2632(2)
C2A C -0.2243(3) -1.95750(19) -0.2730(2)
H5A H -0.1391 -1.9562 -0.2639
C3A C -0.2630(3) -2.02201(18) -0.29605(19)
H6A H -0.2036 -2.0636 -0.3012
C4A C -0.3888(3) -2.02638(18) -0.3118(2)
C5A C -0.4744(4) -1.9636(2) -0.3007(3)
H7A H -0.5596 -1.9648 -0.3098
C6A C -0.4373(4) -1.8999(2) -0.2768(3)
H8A H -0.4980 -1.8596 -0.2696
C7A C -0.4279(3) -2.09335(18) -0.33992(19)
C8A C -0.3686(3) -2.1730(2) -0.3217(2)
H9A H -0.3024 -2.1841 -0.2918
C9A C -0.4053(3) -2.2361(2) -0.3469(2)
H10A H -0.3628 -2.2884 -0.3343
C10A C -0.5047(3) -2.22243(19) -0.39089(19)
C11A C -0.5646(3) -2.1423(2) -0.4101(2)
H11A H -0.6303 -2.1310 -0.4405
C12A C -0.5270(3) -2.07975(19) -0.3842(2)
H12A H -0.5691 -2.0274 -0.3968
C13A C -0.2665(3) -1.82396(19) -0.2420(2)
C14A C -0.3061(3) -1.73926(19) -0.2640(2)
H13A H -0.3726 -1.7165 -0.2926
C15A C -0.1502(3) -1.75215(18) -0.1998(2)
H14A H -0.0876 -1.7385 -0.1756
C16A C -0.5469(3) -2.2906(2) -0.4154(2)
C17A C -0.4790(4) -2.3518(2) -0.4385(2)
H15A H -0.3878 -2.3594 -0.4413
C18A C -0.6792(5) -2.3703(3) -0.4437(3)
H16A H -0.7569 -2.3921 -0.4502
C19A C 0.1390(3) -0.97124(17) -0.31816(19)
C20A C 0.0891(3) -1.06003(18) -0.25126(19)
H17A H 0.0755 -1.0752 -0.1898
C21A C 0.0593(3) -1.12613(18) -0.2748(2)
H18A H 0.0266 -1.1851 -0.2289
C22A C 0.0774(3) -1.10619(18) -0.36626(19)
C23A C 0.1265(3) -1.0172(2) -0.4326(2)
H19A H 0.1387 -1.0018 -0.4940
C24A C 0.1578(3) -0.95086(19) -0.4093(2)
H20A H 0.1918 -0.8921 -0.4553
C25A C 0.0418(3) -1.17657(18) -0.39187(18)
C26A C -0.0476(3) -1.25596(18) -0.32814(19)
H21A H -0.0820 -1.2669 -0.2670
C27A C -0.0867(3) -1.31894(19) -0.3530(2)
H22A H -0.1473 -1.3707 -0.3086
C28A C -0.0364(3) -1.30595(18) -0.44350(19)
C29A C 0.0570(4) -1.2280(2) -0.5068(2)
H23A H 0.0952 -1.2184 -0.5672
C30A C 0.0938(4) -1.1651(2) -0.4818(2)
H24A H 0.1550 -1.1136 -0.5261
C31A C 0.1742(3) -0.90190(18) -0.29310(19)
C32A C 0.2639(3) -0.8234(2) -0.3479(2)
H25A H 0.3123 -0.8017 -0.4101
C33A C 0.1860(3) -0.8354(2) -0.2100(2)
H26A H 0.1720 -0.8226 -0.1604
C34A C -0.0806(3) -1.36791(18) -0.47472(19)
C35A C -0.0591(3) -1.3516(2) -0.5640(2)
H27A H -0.0112 -1.2999 -0.6169
C36A C -0.1782(3) -1.4844(2) -0.4718(2)
H28A H -0.2275 -1.5406 -0.4513
C46A C 0.1677(3) -1.19465(17) -0.05072(18)
C47A C 0.2847(3) -1.18979(18) -0.12030(19)
H35A H 0.3561 -1.1427 -0.1459
C48A C 0.2947(3) -1.25421(18) -0.15114(19)
H36A H 0.3719 -1.2489 -0.1990
C49A C 0.1915(3) -1.32758(17) -0.11224(17)
C50A C 0.0762(3) -1.33286(18) -0.04232(18)
H37A H 0.0062 -1.3812 -0.0152
C51A C 0.0641(3) -1.26661(19) -0.01228(19)
H38A H -0.0144 -1.2706 0.0342
C52A C 0.2107(3) -1.39677(17) -0.14741(17)
C53A C 0.3407(3) -1.42207(17) -0.17113(17)
H39A H 0.4137 -1.3975 -0.1626
C54A C 0.3633(3) -1.48381(17) -0.20751(17)
C55A C 0.2547(3) -1.51907(18) -0.22149(18)
H40A H 0.2693 -1.5596 -0.2465
C56A C 0.1235(3) -1.49436(17) -0.19835(17)
C57A C 0.1016(3) -1.43447(17) -0.15975(17)
H41A H 0.0136 -1.4196 -0.1421
C58A C 0.1606(3) -1.12465(19) -0.01655(19)
C59A C 0.5051(3) -1.50884(17) -0.23253(18)
C60A C 0.0093(3) -1.52704(18) -0.22070(18)
Cd1_2 Cd 0.230407(18) 0.551184(12) 0.262048(13)
Cd1A_2 Cd 0.769593(18) -1.551184(12) -0.262048(13)
Cd2_2 Cd -0.08772(2) -1.954538(13) -0.101433(13)
Cd2_3 Cd -0.08772(2) -0.954538(13) -0.101433(13)
Cd2A_2 Cd 1.08772(2) -0.045462(13) 0.101433(13)
Cd2A_3 Cd 1.08772(2) 0.954538(13) 0.101433(13)
N2_2 N 0.1660(2) -1.16828(15) 0.20027(17)
N2A_2 N 0.8340(2) 0.16828(15) -0.20027(17)
N8_2 N -0.1250(2) -1.09112(16) 0.20534(17)
N8A_2 N 1.1250(2) 0.09112(16) -0.20534(17)
O5_2 O 1.39732(18) 0.46761(13) 0.22708(13)
O5A_2 O -0.39732(18) -1.46761(13) -0.22708(13)
O6_2 O 1.4754(2) 0.57050(15) 0.25721(17)
O6A_2 O -0.4754(2) -1.57050(15) -0.25721(17)
O7 O 0.5745(3) 0.62349(18) 0.36058(19)
loop_
_geom_bond_atom_site_label_1
_geom_bond_atom_site_label_2
_geom_bond_site_symmetry_1
_geom_bond_site_symmetry_2
Cd1 N1 1_555 1_555
Cd2 N9 1_555 1_555
N1 C14 1_555 1_555
N2 C13 1_555 1_555
N3 C17 1_555 1_555
N4 H1 1_555 1_555
N5 Cd1 1_555 1_555
N6 H2 1_555 1_555
N7 H3 1_555 1_555
N8 C31 1_555 1_555
N9 C44 1_555 1_555
N10 H4 1_555 1_555
O1 Cd1 1_555 1_555
O2 Cd1 1_555 1_555
O3 Cd2 1_555 1_555
O4 Cd2 1_555 1_555
O5 C59 1_555 1_555
O6 C59 1_555 1_555
C1 C2 1_555 1_555
C2 H5 1_555 1_555
C3 C2 1_555 1_555
H6 C3 1_555 1_555
C4 C3 1_555 1_555
C5 C4 1_555 1_555
H7 C5 1_555 1_555
C6 C1 1_555 1_555
H8 C6 1_555 1_555
C7 C4 1_555 1_555
C8 C7 1_555 1_555
H9 C8 1_555 1_555
C9 C8 1_555 1_555
H10 C9 1_555 1_555
C10 C9 1_555 1_555
C11 C10 1_555 1_555
H11 C11 1_555 1_555
C12 C7 1_555 1_555
H12 C12 1_555 1_555
C13 C1 1_555 1_555
C14 C13 1_555 1_555
H13 C14 1_555 1_555
C15 N1 1_555 1_555
H14 C15 1_555 1_555
C16 N4 1_555 1_555
C17 C16 1_555 1_555
H15 C17 1_555 1_555
C18 N3 1_555 1_555
H16 C18 1_555 1_555
C19 C20 1_555 1_555
C20 H17 1_555 1_555
C21 C20 1_555 1_555
H18 C21 1_555 1_555
C22 C21 1_555 1_555
C23 C22 1_555 1_555
H19 C23 1_555 1_555
C24 C19 1_555 1_555
H20 C24 1_555 1_555
C25 C22 1_555 1_555
C26 C25 1_555 1_555
H21 C26 1_555 1_555
C27 C26 1_555 1_555
H22 C27 1_555 1_555
C28 C27 1_555 1_555
C29 C28 1_555 1_555
H23 C29 1_555 1_555
C30 C25 1_555 1_555
H24 C30 1_555 1_555
C31 C19 1_555 1_555
C32 N7 1_555 1_555
H25 C32 1_555 1_555
C33 N7 1_555 1_555
H26 C33 1_555 1_555
C34 N5 1_555 1_555
C35 N6 1_555 1_555
H27 C35 1_555 1_555
C36 N5 1_555 1_555
H28 C36 1_555 1_555
C37 C38 1_555 1_555
C38 H29 1_555 1_555
C39 C38 1_555 1_555
H30 C39 1_555 1_555
C40 C39 1_555 1_555
C41 C40 1_555 1_555
H31 C41 1_555 1_555
C42 C37 1_555 1_555
H32 C42 1_555 1_555
C43 N10 1_555 1_555
C44 C43 1_555 1_555
H33 C44 1_555 1_555
C45 N9 1_555 1_555
H34 C45 1_555 1_555
C46 C47 1_555 1_555
C47 H35 1_555 1_555
C48 C47 1_555 1_555
H36 C48 1_555 1_555
C49 C48 1_555 1_555
C50 C49 1_555 1_555
H37 C50 1_555 1_555
C51 C46 1_555 1_555
H38 C51 1_555 1_555
C52 C49 1_555 1_555
C53 C52 1_555 1_555
H39 C53 1_555 1_555
C54 C53 1_555 1_555
C55 C54 1_555 1_555
H40 C55 1_555 1_555
C56 C55 1_555 1_555
C57 C52 1_555 1_555
H41 C57 1_555 1_555
C58 O3 1_555 1_555
C59 C54 1_555 1_555
C60 O1 1_555 1_555
N9A C44A 1_555 1_555
N10A H4A 1_555 1_555
C37A C38A 1_555 1_555
C38A H29A 1_555 1_555
C39A C38A 1_555 1_555
H30A C39A 1_555 1_555
C40A C40 1_555 1_555
C41A C40A 1_555 1_555
H31A C41A 1_555 1_555
C42A C37A 1_555 1_555
H32A C42A 1_555 1_555
C43A N10A 1_555 1_555
C44A C43A 1_555 1_555
H33A C44A 1_555 1_555
C45A N9A 1_555 1_555
H34A C45A 1_555 1_555
Cd1A N1A 1_555 1_555
Cd2A N9A 1_555 1_555
N1A C14A 1_555 1_555
N2A C13A 1_555 1_555
N3A C17A 1_555 1_555
N4A H1A 1_555 1_555
N5A Cd1A 1_555 1_555
N6A H2A 1_555 1_555
N7A H3A 1_555 1_555
N8A C31A 1_555 1_555
O1A Cd1A 1_555 1_555
O2A Cd1A 1_555 1_555
O3A Cd2A 1_555 1_555
O4A Cd2A 1_555 1_555
O5A C59A 1_555 1_555
O6A C59A 1_555 1_555
C1A C2A 1_555 1_555
C2A H5A 1_555 1_555
C3A C2A 1_555 1_555
H6A C3A 1_555 1_555
C4A C3A 1_555 1_555
C5A C4A 1_555 1_555
H7A C5A 1_555 1_555
C6A C1A 1_555 1_555
H8A C6A 1_555 1_555
C7A C4A 1_555 1_555
C8A C7A 1_555 1_555
H9A C8A 1_555 1_555
C9A C8A 1_555 1_555
H10A C9A 1_555 1_555
C10A C9A 1_555 1_555
C11A C10A 1_555 1_555
H11A C11A 1_555 1_555
C12A C7A 1_555 1_555
H12A C12A 1_555 1_555
C13A C1A 1_555 1_555
C14A C13A 1_555 1_555
H13A C14A 1_555 1_555
C15A N1A 1_555 1_555
H14A C15A 1_555 1_555
C16A N4A 1_555 1_555
C17A C16A 1_555 1_555
H15A C17A 1_555 1_555
C18A N3A 1_555 1_555
H16A C18A 1_555 1_555
C19A C20A 1_555 1_555
C20A H17A 1_555 1_555
C21A C20A 1_555 1_555
H18A C21A 1_555 1_555
C22A C21A 1_555 1_555
C23A C22A 1_555 1_555
H19A C23A 1_555 1_555
C24A C19A 1_555 1_555
H20A C24A 1_555 1_555
C25A C22A 1_555 1_555
C26A C25A 1_555 1_555
H21A C26A 1_555 1_555
C27A C26A 1_555 1_555
H22A C27A 1_555 1_555
C28A C27A 1_555 1_555
C29A C28A 1_555 1_555
H23A C29A 1_555 1_555
C30A C25A 1_555 1_555
H24A C30A 1_555 1_555
C31A C19A 1_555 1_555
C32A N7A 1_555 1_555
H25A C32A 1_555 1_555
C33A N7A 1_555 1_555
H26A C33A 1_555 1_555
C34A N5A 1_555 1_555
C35A N6A 1_555 1_555
H27A C35A 1_555 1_555
C36A N5A 1_555 1_555
H28A C36A 1_555 1_555
C46A C47A 1_555 1_555
C47A H35A 1_555 1_555
C48A C47A 1_555 1_555
H36A C48A 1_555 1_555
C49A C48A 1_555 1_555
C50A C49A 1_555 1_555
H37A C50A 1_555 1_555
C51A C46A 1_555 1_555
H38A C51A 1_555 1_555
C52A C49A 1_555 1_555
C53A C52A 1_555 1_555
H39A C53A 1_555 1_555
C54A C53A 1_555 1_555
C55A C54A 1_555 1_555
H40A C55A 1_555 1_555
C56A C55A 1_555 1_555
C57A C52A 1_555 1_555
H41A C57A 1_555 1_555
C58A O3A 1_555 1_555
C59A C54A 1_555 1_555
C60A O1A 1_555 1_555
Cd1_2 O5 1_555 1_555
Cd1A_2 O5A 1_555 1_555
Cd2_2 N2A 1_555 1_555
Cd2_3 N8A 1_555 1_555
Cd2A_2 N8 1_555 1_555
Cd2A_3 N2 1_555 1_555
N2_2 Cd2A 1_555 1_555
N2A_2 Cd2 1_555 1_555
N8_2 Cd2A 1_555 1_555
N8A_2 Cd2 1_555 1_555
O5_2 Cd1 1_555 1_555
O5A_2 Cd1A 1_555 1_555
O6_2 Cd1 1_555 1_555
O6A_2 Cd1A 1_555 1_555
N2 C15 1_555 1_555
N4 C18 1_555 1_555
N6 C36 1_555 1_555
N8 C33 1_555 1_555
N10 C45 1_555 1_555
O2 C60 1_555 1_555
O4 C58 1_555 1_555
O6 Cd1_2 1_555 1_555
C5 C6 1_555 1_555
C10 C16 1_555 1_555
C11 C12 1_555 1_555
C23 C24 1_555 1_555
C28 C34 1_555 1_555
C29 C30 1_555 1_555
C31 C32 1_555 1_555
C34 C35 1_555 1_555
C37 C43 1_555 1_555
C41 C42 1_555 1_555
C46 C58 1_555 1_555
C50 C51 1_555 1_555
C56 C57 1_555 1_555
C56 C60 1_555 1_555
N10A C45A 1_555 1_555
C37A C43A 1_555 1_555
C39A C40A 1_555 1_555
C41A C42A 1_555 1_555
N2A C15A 1_555 1_555
N4A C18A 1_555 1_555
N6A C36A 1_555 1_555
N8A C33A 1_555 1_555
O2A C60A 1_555 1_555
O4A C58A 1_555 1_555
O6A Cd1A_2 1_555 1_555
C5A C6A 1_555 1_555
C10A C16A 1_555 1_555
C11A C12A 1_555 1_555
C23A C24A 1_555 1_555
C28A C34A 1_555 1_555
C29A C30A 1_555 1_555
C31A C32A 1_555 1_555
C34A C35A 1_555 1_555
C46A C58A 1_555 1_555
C50A C51A 1_555 1_555
C56A C57A 1_555 1_555
C56A C60A 1_555 1_555

#END
