
#######################################################################
#
#                 Cambridge Crystallographic Data Centre
#                                CCDC 
#
#######################################################################
#
# If this CIF has been generated from an entry in the Cambridge 
# Structural Database, then it will include bibliographic, chemical, 
# crystal, experimental, refinement or atomic coordinate data resulting 
# from the CCDC's data processing and validation procedures.
#
#######################################################################

data_NOJSOW
_symmetry_cell_setting           monoclinic
_symmetry_space_group_name_H-M   'P 21/c'
_symmetry_Int_Tables_number      14
_space_group_name_Hall           '-P 2ybc'
loop_
_symmetry_equiv_pos_site_id
_symmetry_equiv_pos_as_xyz
1 x,y,z
2 -x,1/2+y,1/2-z
3 -x,-y,-z
4 x,1/2-y,1/2+z
_cell_length_a                   10.5860(5)
_cell_length_b                   18.5160(8)
_cell_length_c                   12.4190(5)
_cell_angle_alpha                90
_cell_angle_beta                 100.6870(10)
_cell_angle_gamma                90
_cell_volume                     2392.03
loop_
_atom_site_label
_atom_site_type_symbol
_atom_site_fract_x
_atom_site_fract_y
_atom_site_fract_z
Co1 Co 0.09932(2) 0.135631(13) 1.191077(18)
N1 N 0.20791(15) 0.20069(9) 1.11146(13)
N2 N 0.30279(18) 0.29126(9) 1.04617(15)
H1 H 0.3280 0.3347 1.0377
N3 N 1.01600(15) 0.19590(9) 0.29505(13)
N4 N 0.96068(16) 0.28251(9) 0.39677(13)
H2 H 0.9543 0.3250 0.4231
O1 O 0.21293(13) 0.07219(8) 1.29332(10)
O2 O 0.39359(15) 0.01331(9) 1.35529(11)
O3 O 0.01432(12) -0.09959(7) 0.94848(10)
O4 O 0.08122(13) -0.04799(8) 0.80998(11)
C1 C 0.41110(18) 0.23347(10) 0.90467(14)
C2 C 0.4364(2) 0.16898(11) 0.85464(16)
H3 H 0.3979 0.1265 0.8719
C3 C 0.5179(2) 0.16740(11) 0.77978(16)
H4 H 0.5338 0.1237 0.7479
C4 C 0.57679(18) 0.23005(10) 0.75105(15)
C5 C 0.5503(2) 0.29441(11) 0.80049(16)
H5 H 0.5880 0.3370 0.7824
C6 C 0.46886(19) 0.29645(11) 0.87617(16)
H6 H 0.4528 0.3402 0.9080
C7 C 0.66385(18) 0.22748(10) 0.66999(15)
C8 C 0.7375(2) 0.16654(12) 0.65817(18)
H7 H 0.7333 0.1268 0.7031
C9 C 0.8168(2) 0.16383(12) 0.58114(18)
H8 H 0.8652 0.1226 0.5753
C10 C 0.82454(18) 0.22234(11) 0.51266(15)
C11 C 0.75088(18) 0.28304(10) 0.52339(15)
H9 H 0.7544 0.3226 0.4778
C12 C 0.67213(18) 0.28574(10) 0.60087(15)
H10 H 0.6241 0.3271 0.6067
C13 C 0.33000(18) 0.23203(10) 0.98854(15)
C14 C 0.27025(18) 0.17623(11) 1.02995(15)
H11 H 0.2712 0.1285 1.0068
C15 C 0.2305(2) 0.27018(11) 1.11768(18)
H12 H 0.1999 0.3011 1.1660
C16 C 0.90645(19) 0.22076(11) 0.42902(15)
C17 C 0.9414(2) 0.16726(11) 0.36566(17)
H13 H 0.9188 0.1189 0.3690
C18 C 1.02530(19) 0.26529(11) 0.31732(16)
H14 H 1.0707 0.2981 0.2825
C19 C 0.31274(17) 0.00929(9) 1.16460(14)
C20 C 0.20395(17) -0.01608(9) 1.09540(14)
H15 H 0.1275 -0.0221 1.1210
C21 C 0.21010(17) -0.03250(9) 0.98731(14)
C22 C 0.32499(17) -0.02388(9) 0.94973(14)
H16 H 0.3268 -0.0325 0.8763
C23 C 0.43763(16) -0.00263(9) 1.01976(14)
C24 C 0.42918(17) 0.01387(10) 1.12796(15)
H17 H 0.5027 0.0282 1.1765
C25 C 0.30713(17) 0.03284(10) 1.27996(14)
C26 C 0.09595(17) -0.06074(9) 0.90954(14)
O1B O 0.78707(13) -0.07219(8) 0.70668(10)
O2B O 0.60641(15) -0.01331(9) 0.64471(11)
O3B O 0.98568(12) 0.09959(7) 1.05152(10)
O4B O 0.91878(13) 0.04799(8) 1.19002(11)
C19B C 0.68726(17) -0.00929(9) 0.83540(14)
C20B C 0.79605(17) 0.01608(9) 0.90460(14)
H15B H 0.8725 0.0221 0.8790
C21B C 0.78990(17) 0.03250(9) 1.01269(14)
C22B C 0.67501(17) 0.02388(9) 1.05027(14)
H16B H 0.6732 0.0325 1.1237
C23B C 0.56237(16) 0.00263(9) 0.98024(14)
C24B C 0.57082(17) -0.01387(10) 0.87204(15)
H17B H 0.4973 -0.0282 0.8235
C25B C 0.69287(17) -0.03284(10) 0.72004(14)
C26B C 0.90405(17) 0.06074(9) 1.09046(14)
Co1B Co -0.09932(2) -0.135631(13) 0.808923(18)
N1B N -0.20791(15) -0.20069(9) 0.88854(13)
N2B N -0.30279(18) -0.29126(9) 0.95383(15)
H1B H -0.3280 -0.3347 0.9623
N3B N -1.01600(15) -0.19590(9) 1.70495(13)
N4B N -0.96068(16) -0.28251(9) 1.60323(13)
H2B H -0.9543 -0.3250 1.5769
C1B C -0.41110(18) -0.23347(10) 1.09533(14)
C2B C -0.4364(2) -0.16898(11) 1.14536(16)
H3B H -0.3979 -0.1265 1.1281
C3B C -0.5179(2) -0.16740(11) 1.22022(16)
H4B H -0.5338 -0.1237 1.2521
C4B C -0.57679(18) -0.23005(10) 1.24895(15)
C5B C -0.5503(2) -0.29441(11) 1.19951(16)
H5B H -0.5880 -0.3370 1.2176
C6B C -0.46886(19) -0.29645(11) 1.12383(16)
H6B H -0.4528 -0.3402 1.0920
C7B C -0.66385(18) -0.22748(10) 1.33001(15)
C8B C -0.7375(2) -0.16654(12) 1.34183(18)
H7B H -0.7333 -0.1268 1.2969
C9B C -0.8168(2) -0.16383(12) 1.41886(18)
H8B H -0.8652 -0.1226 1.4247
C10B C -0.82454(18) -0.22234(11) 1.48734(15)
C11B C -0.75088(18) -0.28304(10) 1.47661(15)
H9B H -0.7544 -0.3226 1.5222
C12B C -0.67213(18) -0.28574(10) 1.39913(15)
H10B H -0.6241 -0.3271 1.3933
C13B C -0.33000(18) -0.23203(10) 1.01146(15)
C14B C -0.27025(18) -0.17623(11) 0.97005(15)
H11B H -0.2712 -0.1285 0.9932
C15B C -0.2305(2) -0.27018(11) 0.88232(18)
H12B H -0.1999 -0.3011 0.8340
C16B C -0.90645(19) -0.22076(11) 1.57098(15)
C17B C -0.9414(2) -0.16726(11) 1.63434(17)
H13B H -0.9188 -0.1189 1.6310
C18B C -1.02530(19) -0.26529(11) 1.68268(16)
H14B H -1.0707 -0.2981 1.7175
Co1_2 Co 1.09932(2) 0.135631(13) 0.191077(18)
Co1_3 Co 1.09932(2) 0.135631(13) 1.191077(18)
Co1B_2 Co -1.09932(2) -0.135631(13) 1.808923(18)
Co1B_3 Co 0.90068(2) -0.135631(13) 0.808923(18)
N3_2 N 0.01600(15) 0.19590(9) 1.29505(13)
N3B_2 N -0.01600(15) -0.19590(9) 0.70495(13)
O1B_2 O -0.21293(13) -0.07219(8) 0.70668(10)
O3B_2 O -0.01432(12) 0.09959(7) 1.05152(10)
O5 O 0.1634(3) 0.07569(13) 0.7037(3)
O6 O 0.36645(19) 0.05780(10) 0.56260(14)
loop_
_geom_bond_atom_site_label_1
_geom_bond_atom_site_label_2
_geom_bond_site_symmetry_1
_geom_bond_site_symmetry_2
Co1 N1 1_555 1_555
N1 C14 1_555 1_555
N2 H1 1_555 1_555
N3 C17 1_555 1_555
N4 H2 1_555 1_555
O1 Co1 1_555 1_555
O2 C25 1_555 1_555
O3 C26 1_555 1_555
O4 C26 1_555 1_555
C1 C2 1_555 1_555
C2 H3 1_555 1_555
C3 C2 1_555 1_555
H4 C3 1_555 1_555
C4 C3 1_555 1_555
C5 C4 1_555 1_555
H5 C5 1_555 1_555
C6 C1 1_555 1_555
H6 C6 1_555 1_555
C7 C4 1_555 1_555
C8 C7 1_555 1_555
H7 C8 1_555 1_555
C9 C8 1_555 1_555
H8 C9 1_555 1_555
C10 C9 1_555 1_555
C11 C10 1_555 1_555
H9 C11 1_555 1_555
C12 C7 1_555 1_555
H10 C12 1_555 1_555
C13 N2 1_555 1_555
C14 C13 1_555 1_555
H11 C14 1_555 1_555
C15 N1 1_555 1_555
H12 C15 1_555 1_555
C16 N4 1_555 1_555
C17 C16 1_555 1_555
H13 C17 1_555 1_555
C18 N3 1_555 1_555
H14 C18 1_555 1_555
C19 C20 1_555 1_555
C20 H15 1_555 1_555
C21 C20 1_555 1_555
C22 C21 1_555 1_555
H16 C22 1_555 1_555
C23 C22 1_555 1_555
C24 C19 1_555 1_555
H17 C24 1_555 1_555
C25 O1 1_555 1_555
C26 C21 1_555 1_555
O1B C25B 1_555 1_555
O2B C25B 1_555 1_555
O3B C26B 1_555 1_555
O4B C26B 1_555 1_555
C19B C20B 1_555 1_555
C20B H15B 1_555 1_555
C21B C20B 1_555 1_555
C22B C21B 1_555 1_555
H16B C22B 1_555 1_555
C23B C23 1_555 1_555
C24B C19B 1_555 1_555
H17B C24B 1_555 1_555
C25B C19B 1_555 1_555
C26B C21B 1_555 1_555
Co1B O3 1_555 1_555
N1B Co1B 1_555 1_555
N2B H1B 1_555 1_555
N3B C17B 1_555 1_555
N4B H2B 1_555 1_555
C1B C2B 1_555 1_555
C2B H3B 1_555 1_555
C3B C2B 1_555 1_555
H4B C3B 1_555 1_555
C4B C3B 1_555 1_555
C5B C4B 1_555 1_555
H5B C5B 1_555 1_555
C6B C1B 1_555 1_555
H6B C6B 1_555 1_555
C7B C4B 1_555 1_555
C8B C7B 1_555 1_555
H7B C8B 1_555 1_555
C9B C8B 1_555 1_555
H8B C9B 1_555 1_555
C10B C9B 1_555 1_555
C11B C10B 1_555 1_555
H9B C11B 1_555 1_555
C12B C7B 1_555 1_555
H10B C12B 1_555 1_555
C13B N2B 1_555 1_555
C14B N1B 1_555 1_555
H11B C14B 1_555 1_555
C15B N1B 1_555 1_555
H12B C15B 1_555 1_555
C16B N4B 1_555 1_555
C17B C16B 1_555 1_555
H13B C17B 1_555 1_555
C18B N3B 1_555 1_555
H14B C18B 1_555 1_555
Co1_2 N3 1_555 1_555
Co1_3 O3B 1_555 1_555
Co1B_2 N3B 1_555 1_555
Co1B_3 O1B 1_555 1_555
N3_2 Co1 1_555 1_555
N3B_2 Co1B 1_555 1_555
O1B_2 Co1B 1_555 1_555
O3B_2 Co1 1_555 1_555
N2 C15 1_555 1_555
N4 C18 1_555 1_555
C1 C13 1_555 1_555
C5 C6 1_555 1_555
C10 C16 1_555 1_555
C11 C12 1_555 1_555
C19 C25 1_555 1_555
C23 C24 1_555 1_555
C22B C23B 1_555 1_555
C23B C24B 1_555 1_555
N2B C15B 1_555 1_555
N4B C18B 1_555 1_555
C1B C13B 1_555 1_555
C5B C6B 1_555 1_555
C10B C16B 1_555 1_555
C11B C12B 1_555 1_555
C13B C14B 1_555 1_555

#END
