
#######################################################################
#
#                 Cambridge Crystallographic Data Centre
#                                CCDC 
#
#######################################################################
#
# If this CIF has been generated from an entry in the Cambridge 
# Structural Database, then it will include bibliographic, chemical, 
# crystal, experimental, refinement or atomic coordinate data resulting 
# from the CCDC's data processing and validation procedures.
#
#######################################################################

data_NOJTEN
_symmetry_cell_setting           triclinic
_symmetry_space_group_name_H-M   'P -1'
_symmetry_Int_Tables_number      2
_space_group_name_Hall           '-P 1'
loop_
_symmetry_equiv_pos_site_id
_symmetry_equiv_pos_as_xyz
1 x,y,z
2 -x,-y,-z
_cell_length_a                   7.1333(4)
_cell_length_b                   12.5002(8)
_cell_length_c                   13.0138(8)
_cell_angle_alpha                74.550(3)
_cell_angle_beta                 82.263(3)
_cell_angle_gamma                82.096(3)
_cell_volume                     1102
loop_
_atom_site_label
_atom_site_type_symbol
_atom_site_fract_x
_atom_site_fract_y
_atom_site_fract_z
Ni1 Ni 0.0000 0.0000 0.5000
Ni2 Ni 0.0000 0.0000 1.0000
C1 C -0.2727(8) 0.2085(4) 0.4443(4)
N1 N -0.1338(5) -0.0427(3) 0.6745(3)
O1 O -0.2344(5) -0.0435(4) 0.4515(3)
N2 N -0.2557(5) -0.1960(3) 0.8188(3)
O2 O -0.1189(5) 0.1595(3) 0.4797(3)
O3 O -0.4057(7) 0.1623(4) 0.4282(4)
N3 N -0.1293(5) -0.0426(3) 0.8642(3)
O4 O -0.2212(5) -0.0698(3) 1.1039(3)
N4 N -0.4328(5) -0.0116(3) 0.7855(3)
N5 N -0.3335(14) 0.6889(5) 0.3554(5)
C2 C -0.1462(14) 0.5055(6) 0.3991(7)
H1 H -0.0406 0.5414 0.3996
C3 C -0.3142(14) 0.5643(5) 0.3755(5)
C4 C -0.0307(6) -0.0133(3) 0.7536(3)
H2 H -0.0191 0.0662 0.7322
H3 H 0.0966 -0.0523 0.7533
C5 C -0.3291(6) 0.0176(4) 0.6783(3)
H4 H -0.3202 0.0974 0.6568
H5 H -0.3997 -0.0005 0.6275
O5 O -0.2127(12) 0.7282(5) 0.3896(6)
C6 C -0.3251(6) 0.0172(4) 0.8599(3)
H6 H -0.3932 -0.0006 0.9310
H7 H -0.3164 0.0970 0.8387
C7 C -0.1526(6) -0.1656(3) 0.7119(3)
H8 H -0.2192 -0.1872 0.6616
H9 H -0.0268 -0.2066 0.7130
C8 C -0.1500(6) -0.1649(3) 0.8934(3)
H10 H -0.0246 -0.2064 0.8943
H11 H -0.2153 -0.1857 0.9650
C9 C -0.4450(6) -0.1328(4) 0.8163(3)
H12 H -0.5155 -0.1534 0.8865
H13 H -0.5138 -0.1522 0.7655
O6 O -0.4618(15) 0.7403(5) 0.3105(5)
C10 C -0.4576(11) 0.3974(5) 0.3914(5)
H14 H -0.5627 0.3626 0.3876
C11 C -0.1339(12) 0.3892(5) 0.4227(7)
H15 H -0.0193 0.3474 0.4406
C12 C -0.2883(10) 0.3353(5) 0.4199(4)
C13 C -0.4676(13) 0.5174(6) 0.3677(5)
H16 H -0.5791 0.5615 0.3472
O7 O 0.1617(4) -0.1505(3) 1.0301(3)
O8 O -0.0282(5) -0.2646(3) 1.1482(3)
C14 C 0.1266(6) -0.2435(4) 1.0947(4)
C15 C 0.2486(6) -0.4461(4) 1.1331(4)
H17 H 0.1228 -0.4621 1.1466
C16 C 0.2884(6) -0.3358(4) 1.1055(4)
C17 C 0.6255(6) -0.3966(4) 1.0986(4)
H18 H 0.7513 -0.3810 1.0892
C18 C 0.5799(7) -0.5056(4) 1.1237(4)
C19 C 0.3947(7) -0.5330(4) 1.1409(4)
H19 H 0.3689 -0.6069 1.1570
C20 C 0.4763(6) -0.3117(4) 1.0879(4)
H20 H 0.5025 -0.2377 1.0686
N6 N 0.7364(6) -0.5965(3) 1.1362(4)
O9 O 0.6992(6) -0.6915(3) 1.1657(4)
O10 O 0.8984(6) -0.5729(4) 1.1146(5)
H21 H -0.193(9) -0.134(6) 1.127(5)
H22 H -0.308(14) -0.055(8) 1.144(8)
H23 H -0.321(15) 0.023(9) 0.448(8)
H24 H -0.287(15) -0.102(9) 0.461(8)
C1A C 0.2727(8) -0.2085(4) 0.5557(4)
N1A N 0.1338(5) 0.0427(3) 0.3255(3)
O1A O 0.2344(5) 0.0435(4) 0.5485(3)
N2A N 0.2557(5) 0.1960(3) 0.1812(3)
O2A O 0.1189(5) -0.1595(3) 0.5203(3)
O3A O 0.4057(7) -0.1623(4) 0.5718(4)
N3A N 0.1293(5) 0.0426(3) 0.1358(3)
N4A N 0.4328(5) 0.0116(3) 0.2145(3)
N5A N 0.3335(14) -0.6889(5) 0.6446(5)
C2A C 0.1462(14) -0.5055(6) 0.6009(7)
H1A H 0.0406 -0.5414 0.6004
C3A C 0.3142(14) -0.5643(5) 0.6245(5)
C4A C 0.0307(6) 0.0133(3) 0.2464(3)
H2A H 0.0191 -0.0662 0.2678
H3A H -0.0966 0.0523 0.2467
C5A C 0.3291(6) -0.0176(4) 0.3217(3)
H4A H 0.3202 -0.0974 0.3432
H5A H 0.3997 0.0005 0.3725
O5A O 0.2127(12) -0.7282(5) 0.6104(6)
C6A C 0.3251(6) -0.0172(4) 0.1401(3)
H6A H 0.3932 0.0006 0.0690
H7A H 0.3164 -0.0970 0.1613
C7A C 0.1526(6) 0.1656(3) 0.2881(3)
H8A H 0.2192 0.1872 0.3384
H9A H 0.0268 0.2066 0.2870
C8A C 0.1500(6) 0.1649(3) 0.1066(3)
H10A H 0.0246 0.2064 0.1057
H11A H 0.2153 0.1857 0.0350
C9A C 0.4450(6) 0.1328(4) 0.1837(3)
H12A H 0.5155 0.1534 0.1135
H13A H 0.5138 0.1522 0.2345
O6A O 0.4618(15) -0.7403(5) 0.6895(5)
C10A C 0.4576(11) -0.3974(5) 0.6086(5)
H14A H 0.5627 -0.3626 0.6124
C11A C 0.1339(12) -0.3892(5) 0.5773(7)
H15A H 0.0193 -0.3474 0.5594
C12A C 0.2883(10) -0.3353(5) 0.5801(4)
C13A C 0.4676(13) -0.5174(6) 0.6323(5)
H16A H 0.5791 -0.5615 0.6528
H23A H 0.321(15) -0.023(9) 0.552(8)
H24A H 0.287(15) 0.102(9) 0.539(8)
O7A O -0.1617(4) 0.1505(3) 0.9699(3)
O8A O 0.0282(5) 0.2646(3) 0.8518(3)
C14A C -0.1266(6) 0.2435(4) 0.9053(4)
C15A C -0.2486(6) 0.4461(4) 0.8669(4)
H17A H -0.1228 0.4621 0.8534
C16A C -0.2884(6) 0.3358(4) 0.8945(4)
C17A C -0.6255(6) 0.3966(4) 0.9014(4)
H18A H -0.7513 0.3810 0.9108
C18A C -0.5799(7) 0.5056(4) 0.8763(4)
C19A C -0.3947(7) 0.5330(4) 0.8591(4)
H19A H -0.3689 0.6069 0.8430
C20A C -0.4763(6) 0.3117(4) 0.9121(4)
H20A H -0.5025 0.2377 0.9314
N6A N -0.7364(6) 0.5965(3) 0.8638(4)
O9A O -0.6992(6) 0.6915(3) 0.8343(4)
O10A O -0.8984(6) 0.5729(4) 0.8854(5)
O4A O 0.2212(5) 0.0698(3) 0.8961(3)
H21A H 0.193(9) 0.134(6) 0.873(5)
H22A H 0.308(14) 0.055(8) 0.856(8)
Ni2_2 Ni 0.0000 0.0000 0.0000
N3A_2 N 0.1293(5) 0.0426(3) 1.1358(3)
loop_
_geom_bond_atom_site_label_1
_geom_bond_atom_site_label_2
_geom_bond_site_symmetry_1
_geom_bond_site_symmetry_2
Ni1 N1 1_555 1_555
Ni2 N3 1_555 1_555
C1 O2 1_555 1_555
N1 C4 1_555 1_555
O1 Ni1 1_555 1_555
N2 C7 1_555 1_555
O2 Ni1 1_555 1_555
O3 C1 1_555 1_555
N3 C4 1_555 1_555
O4 Ni2 1_555 1_555
N4 C5 1_555 1_555
N5 C3 1_555 1_555
C2 H1 1_555 1_555
C3 C2 1_555 1_555
C4 H2 1_555 1_555
H3 C4 1_555 1_555
C5 N1 1_555 1_555
H4 C5 1_555 1_555
H5 C5 1_555 1_555
O5 N5 1_555 1_555
C6 N3 1_555 1_555
H6 C6 1_555 1_555
H7 C6 1_555 1_555
C7 N1 1_555 1_555
H8 C7 1_555 1_555
H9 C7 1_555 1_555
C8 N2 1_555 1_555
H10 C8 1_555 1_555
H11 C8 1_555 1_555
C9 N2 1_555 1_555
H12 C9 1_555 1_555
H13 C9 1_555 1_555
O6 N5 1_555 1_555
C10 H14 1_555 1_555
C11 C2 1_555 1_555
H15 C11 1_555 1_555
C12 C1 1_555 1_555
C13 C3 1_555 1_555
H16 C13 1_555 1_555
O7 Ni2 1_555 1_555
O8 C14 1_555 1_555
C14 O7 1_555 1_555
C15 H17 1_555 1_555
C16 C14 1_555 1_555
C17 H18 1_555 1_555
C18 C17 1_555 1_555
C19 C15 1_555 1_555
H19 C19 1_555 1_555
C20 C16 1_555 1_555
H20 C20 1_555 1_555
N6 C18 1_555 1_555
O9 N6 1_555 1_555
O10 N6 1_555 1_555
H21 O4 1_555 1_555
H22 O4 1_555 1_555
H23 O1 1_555 1_555
H24 O1 1_555 1_555
C1A O2A 1_555 1_555
N1A Ni1 1_555 1_555
O1A Ni1 1_555 1_555
N2A C7A 1_555 1_555
O2A Ni1 1_555 1_555
O3A C1A 1_555 1_555
N3A C4A 1_555 1_555
N4A C5A 1_555 1_555
N5A C3A 1_555 1_555
C2A H1A 1_555 1_555
C3A C2A 1_555 1_555
C4A N1A 1_555 1_555
H2A C4A 1_555 1_555
H3A C4A 1_555 1_555
C5A N1A 1_555 1_555
H4A C5A 1_555 1_555
H5A C5A 1_555 1_555
O5A N5A 1_555 1_555
C6A N3A 1_555 1_555
H6A C6A 1_555 1_555
H7A C6A 1_555 1_555
C7A N1A 1_555 1_555
H8A C7A 1_555 1_555
H9A C7A 1_555 1_555
C8A N2A 1_555 1_555
H10A C8A 1_555 1_555
H11A C8A 1_555 1_555
C9A N2A 1_555 1_555
H12A C9A 1_555 1_555
H13A C9A 1_555 1_555
O6A N5A 1_555 1_555
C10A H14A 1_555 1_555
C11A C2A 1_555 1_555
H15A C11A 1_555 1_555
C12A C1A 1_555 1_555
C13A C3A 1_555 1_555
H16A C13A 1_555 1_555
H23A O1A 1_555 1_555
H24A O1A 1_555 1_555
O7A Ni2 1_555 1_555
O8A C14A 1_555 1_555
C14A O7A 1_555 1_555
C15A H17A 1_555 1_555
C16A C14A 1_555 1_555
C17A H18A 1_555 1_555
C18A C17A 1_555 1_555
C19A C15A 1_555 1_555
H19A C19A 1_555 1_555
C20A C16A 1_555 1_555
H20A C20A 1_555 1_555
N6A C18A 1_555 1_555
O9A N6A 1_555 1_555
O10A N6A 1_555 1_555
O4A Ni2 1_555 1_555
H21A O4A 1_555 1_555
H22A O4A 1_555 1_555
Ni2_2 N3A 1_555 1_555
N3A_2 Ni2 1_555 1_555
N3 C8 1_555 1_555
N4 C6 1_555 1_555
N4 C9 1_555 1_555
C10 C12 1_555 1_555
C10 C13 1_555 1_555
C11 C12 1_555 1_555
C15 C16 1_555 1_555
C17 C20 1_555 1_555
C18 C19 1_555 1_555
N3A C8A 1_555 1_555
N4A C6A 1_555 1_555
N4A C9A 1_555 1_555
C10A C12A 1_555 1_555
C10A C13A 1_555 1_555
C11A C12A 1_555 1_555
C15A C16A 1_555 1_555
C17A C20A 1_555 1_555
C18A C19A 1_555 1_555

#END
