
#######################################################################
#
#                 Cambridge Crystallographic Data Centre
#                                CCDC 
#
#######################################################################
#
# If this CIF has been generated from an entry in the Cambridge 
# Structural Database, then it will include bibliographic, chemical, 
# crystal, experimental, refinement or atomic coordinate data resulting 
# from the CCDC's data processing and validation procedures.
#
#######################################################################

data_NOJYOB
_symmetry_cell_setting           monoclinic
_symmetry_space_group_name_H-M   'P 21/n'
_symmetry_Int_Tables_number      14
_space_group_name_Hall           '-P 2yn'
loop_
_symmetry_equiv_pos_site_id
_symmetry_equiv_pos_as_xyz
1 x,y,z
2 1/2-x,1/2+y,1/2-z
3 -x,-y,-z
4 1/2+x,1/2-y,1/2+z
_cell_length_a                   17.0482(11)
_cell_length_b                   14.1382(10)
_cell_length_c                   17.2892(11)
_cell_angle_alpha                90
_cell_angle_beta                 101.433(3)
_cell_angle_gamma                90
_cell_volume                     4084.54
loop_
_atom_site_label
_atom_site_type_symbol
_atom_site_fract_x
_atom_site_fract_y
_atom_site_fract_z
Zn1 Zn 0.55123(5) 0.24509(7) 0.16754(5)
N1 N 0.5885(4) 0.1796(4) 0.2763(3)
N2 N 0.6025(4) 0.1361(5) 0.1169(3)
N3 N 0.4878(4) 0.2807(4) 0.0561(4)
N4 N 0.4670(3) 0.3178(5) 0.2152(4)
C1 C 0.5696(5) 0.2075(6) 0.3475(5)
C2 C 0.6179(5) 0.1531(6) 0.4100(5)
H1 H 0.6173 0.1580 0.4647
C3 C 0.6643(5) 0.0939(6) 0.3770(5)
H2 H 0.7020 0.0499 0.4042
C4 C 0.6459(5) 0.1100(5) 0.2931(5)
C5 C 0.6778(5) 0.0618(6) 0.2366(5)
C6 C 0.6578(4) 0.0710(5) 0.1545(4)
C7 C 0.6885(5) 0.0169(6) 0.0976(5)
H3 H 0.7282 -0.0311 0.1089
C8 C 0.6523(5) 0.0451(6) 0.0259(5)
H4 H 0.6600 0.0200 -0.0230
C9 C 0.5988(5) 0.1212(6) 0.0369(5)
C10 C 0.5483(5) 0.1712(6) -0.0241(4)
C11 C 0.4965(4) 0.2435(6) -0.0139(4)
C12 C 0.4416(5) 0.2889(6) -0.0777(5)
H5 H 0.4347 0.2751 -0.1324
C13 C 0.4017(5) 0.3554(6) -0.0433(5)
H6 H 0.3624 0.3980 -0.0699
C14 C 0.4298(4) 0.3495(6) 0.0399(5)
C15 C 0.3995(4) 0.4034(5) 0.0965(5)
C16 C 0.4161(4) 0.3874(5) 0.1773(4)
C17 C 0.3824(5) 0.4393(6) 0.2338(5)
H7 H 0.3453 0.4900 0.2230
C18 C 0.4132(5) 0.4028(6) 0.3051(5)
H8 H 0.4016 0.4232 0.3540
C19 C 0.4662(5) 0.3284(6) 0.2946(5)
C20 C 0.5136(4) 0.2745(6) 0.3563(5)
C21 C 0.7384(5) -0.0135(6) 0.2660(4)
C22 C 0.7191(5) -0.1084(6) 0.2707(5)
H9 H 0.6649 -0.1285 0.2576
C23 C 0.8743(5) -0.0605(6) 0.3105(5)
H10 H 0.9290 -0.0428 0.3251
N5 N 0.8562(4) -0.1509(5) 0.3135(4)
C24 C 0.7793(5) -0.1730(6) 0.2947(5)
H11 H 0.7648 -0.2375 0.2979
C25 C 0.8185(5) 0.0098(6) 0.2872(5)
H12 H 0.8351 0.0738 0.2858
C26 C 0.5504(4) 0.1412(6) -0.1071(4)
C27 C 0.5807(6) 0.2013(6) -0.1574(5)
H13 H 0.6023 0.2608 -0.1386
C28 C 0.5799(6) 0.1749(7) -0.2361(5)
H14 H 0.6011 0.2162 -0.2701
C29 C 0.5490(5) 0.0911(7) -0.2628(5)
C30 C 0.5453(6) 0.0630(8) -0.3473(6)
F1 F 0.5635(4) -0.0283(5) -0.3538(3)
F2 F 0.4735(4) 0.0762(5) -0.3920(3)
F3 F 0.5953(4) 0.1106(5) -0.3815(3)
C31 C 0.5198(5) 0.0288(6) -0.2135(5)
H15 H 0.4998 -0.0314 -0.2322
C32 C 0.5203(5) 0.0555(6) -0.1379(5)
H16 H 0.4990 0.0133 -0.1047
C33 C 0.3445(4) 0.4820(6) 0.0646(4)
C34 C 0.3686(5) 0.5593(6) 0.0274(5)
H17 H 0.4225 0.5634 0.0209
C35 C 0.3163(5) 0.6307(6) -0.0005(5)
H18 H 0.3356 0.6824 -0.0265
N6 N 0.2409(5) 0.6317(5) 0.0065(4)
C36 C 0.2153(5) 0.5572(7) 0.0435(5)
H19 H 0.1609 0.5561 0.0490
C37 C 0.2642(5) 0.4823(6) 0.0739(5)
H20 H 0.2439 0.4319 0.1006
C38 C 0.4989(5) 0.2942(6) 0.4373(4)
C39 C 0.5518(5) 0.3443(7) 0.4918(5)
H21 H 0.6014 0.3638 0.4799
C40 C 0.5334(6) 0.3676(7) 0.5658(5)
H22 H 0.5695 0.4040 0.6030
C41 C 0.4630(5) 0.3368(6) 0.5827(5)
C42 C 0.4399(8) 0.3697(8) 0.6570(7)
F4 F 0.4033(5) 0.4536(6) 0.6491(4)
F5 F 0.3925(5) 0.3095(5) 0.6839(4)
F6 F 0.5010(4) 0.3807(5) 0.7170(3)
C43 C 0.4089(6) 0.2850(7) 0.5300(5)
H23 H 0.3598 0.2643 0.5424
C44 C 0.4290(6) 0.2640(7) 0.4573(5)
H24 H 0.3928 0.2273 0.4202
Zn1A Zn 0.94877(5) -0.25491(7) 0.33246(5)
N5A N 0.6438(4) 0.3491(5) 0.1865(4)
C45 C 0.8041(10) 0.3562(12) 0.6692(10)
H25 H 0.8636 0.3596 0.6860
Cl1 Cl 0.7659(3) 0.4715(3) 0.6630(3)
Cl2 Cl 0.7805(2) 0.3081(3) 0.5708(3)
Cl3 Cl 0.7679(3) 0.2901(3) 0.7350(3)
loop_
_geom_bond_atom_site_label_1
_geom_bond_atom_site_label_2
_geom_bond_site_symmetry_1
_geom_bond_site_symmetry_2
Zn1 N1 1_555 1_555
N1 C1 1_555 1_555
N2 Zn1 1_555 1_555
N3 Zn1 1_555 1_555
N4 Zn1 1_555 1_555
C1 C2 1_555 1_555
C2 H1 1_555 1_555
C3 C2 1_555 1_555
H2 C3 1_555 1_555
C4 N1 1_555 1_555
C5 C4 1_555 1_555
C6 N2 1_555 1_555
C7 C6 1_555 1_555
H3 C7 1_555 1_555
C8 C7 1_555 1_555
H4 C8 1_555 1_555
C9 N2 1_555 1_555
C10 C9 1_555 1_555
C11 N3 1_555 1_555
C12 C11 1_555 1_555
H5 C12 1_555 1_555
C13 C12 1_555 1_555
H6 C13 1_555 1_555
C14 N3 1_555 1_555
C15 C14 1_555 1_555
C16 N4 1_555 1_555
C17 C16 1_555 1_555
H7 C17 1_555 1_555
C18 C17 1_555 1_555
H8 C18 1_555 1_555
C19 N4 1_555 1_555
C20 C1 1_555 1_555
C21 C5 1_555 1_555
C22 C21 1_555 1_555
H9 C22 1_555 1_555
C23 H10 1_555 1_555
N5 C23 1_555 1_555
C24 C22 1_555 1_555
H11 C24 1_555 1_555
C25 C21 1_555 1_555
H12 C25 1_555 1_555
C26 C10 1_555 1_555
C27 C26 1_555 1_555
H13 C27 1_555 1_555
C28 C27 1_555 1_555
H14 C28 1_555 1_555
C29 C28 1_555 1_555
C30 C29 1_555 1_555
F1 C30 1_555 1_555
F2 C30 1_555 1_555
F3 C30 1_555 1_555
C31 C29 1_555 1_555
H15 C31 1_555 1_555
C32 C26 1_555 1_555
H16 C32 1_555 1_555
C33 C15 1_555 1_555
C34 C33 1_555 1_555
H17 C34 1_555 1_555
C35 C34 1_555 1_555
H18 C35 1_555 1_555
N6 C35 1_555 1_555
C36 N6 1_555 1_555
H19 C36 1_555 1_555
C37 C33 1_555 1_555
H20 C37 1_555 1_555
C38 C20 1_555 1_555
C39 C38 1_555 1_555
H21 C39 1_555 1_555
C40 C39 1_555 1_555
H22 C40 1_555 1_555
C41 C40 1_555 1_555
C42 C41 1_555 1_555
F4 C42 1_555 1_555
F5 C42 1_555 1_555
F6 C42 1_555 1_555
C43 C41 1_555 1_555
H23 C43 1_555 1_555
C44 C38 1_555 1_555
H24 C44 1_555 1_555
C45 H25 1_555 1_555
Cl1 C45 1_555 1_555
Cl2 C45 1_555 1_555
Cl3 C45 1_555 1_555
Zn1A N5 1_555 1_555
N5A Zn1 1_555 1_555
C3 C4 1_555 1_555
C5 C6 1_555 1_555
C8 C9 1_555 1_555
C10 C11 1_555 1_555
C13 C14 1_555 1_555
C15 C16 1_555 1_555
C18 C19 1_555 1_555
C19 C20 1_555 1_555
C23 C25 1_555 1_555
N5 C24 1_555 1_555
C31 C32 1_555 1_555
C36 C37 1_555 1_555
C43 C44 1_555 1_555

#END
