
#######################################################################
#
#                 Cambridge Crystallographic Data Centre
#                                CCDC 
#
#######################################################################
#
# If this CIF has been generated from an entry in the Cambridge 
# Structural Database, then it will include bibliographic, chemical, 
# crystal, experimental, refinement or atomic coordinate data resulting 
# from the CCDC's data processing and validation procedures.
#
#######################################################################

data_NOJYAN
_symmetry_cell_setting           rhombohedral
_symmetry_space_group_name_H-M   'R -3'
_symmetry_Int_Tables_number      148
_space_group_name_Hall           '-R 3'
loop_
_symmetry_equiv_pos_site_id
_symmetry_equiv_pos_as_xyz
1 x,y,z
2 -y,x-y,z
3 -x+y,-x,z
4 2/3+x,1/3+y,1/3+z
5 2/3-y,1/3+x-y,1/3+z
6 2/3-x+y,1/3-x,1/3+z
7 1/3+x,2/3+y,2/3+z
8 1/3-y,2/3+x-y,2/3+z
9 1/3-x+y,2/3-x,2/3+z
10 -x,-y,-z
11 y,-x+y,-z
12 x-y,x,-z
13 1/3-x,2/3-y,2/3-z
14 1/3+y,2/3-x+y,2/3-z
15 1/3+x-y,2/3+x,2/3-z
16 2/3-x,1/3-y,1/3-z
17 2/3+y,1/3-x+y,1/3-z
18 2/3+x-y,1/3+x,1/3-z
_cell_length_a                   32.8450(3)
_cell_length_b                   32.8450(3)
_cell_length_c                   9.2054(2)
_cell_angle_alpha                90
_cell_angle_beta                 90
_cell_angle_gamma                120.00
_cell_volume                     8600.26
loop_
_atom_site_label
_atom_site_type_symbol
_atom_site_fract_x
_atom_site_fract_y
_atom_site_fract_z
Zn1 Zn 0.5000 1.0000 0.5000
N1 N 0.53294(12) 0.99903(13) 0.3089(4)
N2 N 0.56026(13) 1.05914(13) 0.5718(4)
C1 C 0.51539(16) 0.96534(16) 0.2023(5)
C2 C 0.55285(17) 0.97161(18) 0.1071(5)
H1 H 0.5500 0.9533 0.0238
C3 C 0.59272(17) 1.00826(19) 0.1583(5)
H2 H 0.6233 1.0207 0.1177
C4 C 0.58043(16) 1.02510(17) 0.2862(5)
C5 C 0.61218(15) 1.06170(16) 0.3766(5)
C6 C 0.60321(15) 1.07730(16) 0.5076(5)
C7 C 0.63804(17) 1.11425(18) 0.5989(6)
H3 H 0.6707 1.1328 0.5790
C8 C 0.61563(17) 1.11762(17) 0.7176(6)
H4 H 0.6293 1.1391 0.7961
C9 C 0.56634(16) 1.08184(16) 0.7011(5)
C10 C 0.46865(16) 0.92771(15) 0.1946(4)
C11 C 0.66309(15) 1.08636(16) 0.3318(6)
C12 C 0.67879(19) 1.11785(19) 0.2167(6)
H5 H 0.6575 1.1235 0.1623
C13 C 0.7259(2) 1.14067(19) 0.1835(6)
H6 H 0.7366 1.1624 0.1052
N3 N 0.75760(14) 1.13405(14) 0.2552(4)
C14 C 0.7422(2) 1.10377(19) 0.3640(6)
H7 H 0.7641 1.0986 0.4164
C15 C 0.69541(19) 1.07920(18) 0.4044(5)
H8 H 0.6856 1.0574 0.4824
C16 C 0.45522(15) 0.89495(16) 0.0686(5)
C17 C 0.44075(19) 0.84778(18) 0.0902(6)
H9 H 0.4407 0.8368 0.1857
C18 C 0.4264(2) 0.8164(2) -0.0250(7)
H10 H 0.4167 0.7843 -0.0084
C19 C 0.4261(3) 0.8323(2) -0.1664(7)
C20 C 0.4409(2) 0.87837(17) -0.1899(5)
H11 H 0.4412 0.8894 -0.2856
C21 C 0.4558(2) 0.90978(15) -0.0721(4)
H12 H 0.4665 0.9421 -0.0897
O1 O 0.40995(18) 0.79764(15) -0.2701(5)
C22 C 0.4030(3) 0.8104(2) -0.4133(6)
H13 H 0.3799 0.8210 -0.4092
H14 H 0.3914 0.7831 -0.4777
H15 H 0.4329 0.8359 -0.4507
Zn1N Zn 0.8333 1.1667 0.1667
Zn1E Zn 0.1667 0.8333 0.8333
N1I N 0.46706(12) 1.00097(13) 0.6911(4)
N2I N 0.43974(13) 0.94086(13) 0.4282(4)
C1I C 0.48461(16) 1.03466(16) 0.7977(5)
C2I C 0.44715(17) 1.02839(18) 0.8929(5)
H1I H 0.4500 1.0467 0.9762
C3I C 0.40728(17) 0.99174(19) 0.8417(5)
H2I H 0.3767 0.9793 0.8823
C4I C 0.41957(16) 0.97490(17) 0.7138(5)
C5I C 0.38782(15) 0.93830(16) 0.6234(5)
C6I C 0.39679(15) 0.92270(16) 0.4924(5)
C7I C 0.36196(17) 0.88575(18) 0.4011(6)
H3I H 0.3293 0.8672 0.4210
C8I C 0.38437(17) 0.88238(17) 0.2824(6)
H4I H 0.3707 0.8609 0.2039
C9I C 0.43366(16) 0.91816(16) 0.2989(5)
C10I C 0.53135(16) 1.07229(15) 0.8054(4)
C11I C 0.33691(15) 0.91364(16) 0.6682(6)
C12I C 0.32121(19) 0.88215(19) 0.7833(6)
H5I H 0.3425 0.8765 0.8377
C13I C 0.2741(2) 0.85933(19) 0.8165(6)
H6I H 0.2634 0.8376 0.8948
N3I N 0.24240(14) 0.86595(14) 0.7448(4)
N3D N 0.53262(14) 0.95688(20) 0.5885(4)
N3M N 0.46738(14) 1.04312(20) 0.4115(4)
C14I C 0.2578(2) 0.89623(19) 0.6360(6)
H7I H 0.2359 0.9014 0.5836
C15I C 0.30459(19) 0.92080(18) 0.5956(5)
H8I H 0.3144 0.9426 0.5176
C16I C 0.54478(15) 1.10505(16) 0.9314(5)
C17I C 0.55925(19) 1.15222(18) 0.9098(6)
H9I H 0.5593 1.1632 0.8143
C18I C 0.5736(2) 1.1836(2) 1.0250(7)
H10I H 0.5833 1.2157 1.0084
C19I C 0.5739(3) 1.1677(2) 1.1664(7)
C20I C 0.5591(2) 1.12163(17) 1.1899(5)
H11I H 0.5588 1.1106 1.2856
C21I C 0.5442(2) 1.09022(15) 1.0721(4)
H12I H 0.5335 1.0579 1.0897
O1I O 0.59005(18) 1.20236(15) 1.2701(5)
C22I C 0.5970(3) 1.1896(2) 1.4133(6)
H13I H 0.6201 1.1790 1.4092
H14I H 0.6086 1.2169 1.4777
H15I H 0.5671 1.1641 1.4507
O2 O 0.3905(3) 0.6864(3) 0.0981(13)
loop_
_geom_bond_atom_site_label_1
_geom_bond_atom_site_label_2
_geom_bond_site_symmetry_1
_geom_bond_site_symmetry_2
Zn1 N1 1_555 1_555
N1 C1 1_555 1_555
N2 Zn1 1_555 1_555
C1 C2 1_555 1_555
C2 H1 1_555 1_555
C3 C2 1_555 1_555
H2 C3 1_555 1_555
C4 N1 1_555 1_555
C5 C4 1_555 1_555
C6 N2 1_555 1_555
C7 C6 1_555 1_555
H3 C7 1_555 1_555
C8 C7 1_555 1_555
H4 C8 1_555 1_555
C9 N2 1_555 1_555
C10 C1 1_555 1_555
C11 C5 1_555 1_555
C12 C11 1_555 1_555
H5 C12 1_555 1_555
C13 C12 1_555 1_555
H6 C13 1_555 1_555
N3 C13 1_555 1_555
C14 N3 1_555 1_555
H7 C14 1_555 1_555
C15 C11 1_555 1_555
H8 C15 1_555 1_555
C16 C10 1_555 1_555
C17 C16 1_555 1_555
H9 C17 1_555 1_555
C18 C17 1_555 1_555
H10 C18 1_555 1_555
C19 C18 1_555 1_555
C20 C19 1_555 1_555
H11 C20 1_555 1_555
C21 C16 1_555 1_555
H12 C21 1_555 1_555
O1 C19 1_555 1_555
C22 O1 1_555 1_555
H13 C22 1_555 1_555
H14 C22 1_555 1_555
H15 C22 1_555 1_555
Zn1N N3 1_555 1_555
Zn1E N3I 1_555 1_555
N1I Zn1 1_555 1_555
N2I Zn1 1_555 1_555
C1I N1I 1_555 1_555
C2I C1I 1_555 1_555
H1I C2I 1_555 1_555
C3I C2I 1_555 1_555
H2I C3I 1_555 1_555
C4I N1I 1_555 1_555
C5I C4I 1_555 1_555
C6I N2I 1_555 1_555
C7I C6I 1_555 1_555
H3I C7I 1_555 1_555
C8I C7I 1_555 1_555
H4I C8I 1_555 1_555
C9I C10 1_555 1_555
C10I C9 1_555 1_555
C11I C5I 1_555 1_555
C12I C11I 1_555 1_555
H5I C12I 1_555 1_555
C13I C12I 1_555 1_555
H6I C13I 1_555 1_555
N3I C13I 1_555 1_555
N3D Zn1 1_555 1_555
N3M Zn1 1_555 1_555
C14I N3I 1_555 1_555
H7I C14I 1_555 1_555
C15I C11I 1_555 1_555
H8I C15I 1_555 1_555
C16I C10I 1_555 1_555
C17I C16I 1_555 1_555
H9I C17I 1_555 1_555
C18I C17I 1_555 1_555
H10I C18I 1_555 1_555
C19I C18I 1_555 1_555
C20I C19I 1_555 1_555
H11I C20I 1_555 1_555
C21I C16I 1_555 1_555
H12I C21I 1_555 1_555
O1I C19I 1_555 1_555
C22I O1I 1_555 1_555
H13I C22I 1_555 1_555
H14I C22I 1_555 1_555
H15I C22I 1_555 1_555
C3 C4 1_555 1_555
C5 C6 1_555 1_555
C8 C9 1_555 1_555
C14 C15 1_555 1_555
C20 C21 1_555 1_555
N2I C9I 1_555 1_555
C1I C10I 1_555 1_555
C3I C4I 1_555 1_555
C5I C6I 1_555 1_555
C8I C9I 1_555 1_555
C14I C15I 1_555 1_555
C20I C21I 1_555 1_555

#END
