
#######################################################################
#
#                 Cambridge Crystallographic Data Centre
#                                CCDC 
#
#######################################################################
#
# If this CIF has been generated from an entry in the Cambridge 
# Structural Database, then it will include bibliographic, chemical, 
# crystal, experimental, refinement or atomic coordinate data resulting 
# from the CCDC's data processing and validation procedures.
#
#######################################################################

data_NOKCOF
_symmetry_cell_setting           monoclinic
_symmetry_space_group_name_H-M   'P 21/n'
_symmetry_Int_Tables_number      14
_space_group_name_Hall           '-P 2yn'
loop_
_symmetry_equiv_pos_site_id
_symmetry_equiv_pos_as_xyz
1 x,y,z
2 1/2-x,1/2+y,1/2-z
3 -x,-y,-z
4 1/2+x,1/2-y,1/2+z
_cell_length_a                   10.617(3)
_cell_length_b                   10.351(2)
_cell_length_c                   20.460(4)
_cell_angle_alpha                90
_cell_angle_beta                 104.25(2)
_cell_angle_gamma                90
_cell_volume                     2179.3
loop_
_atom_site_label
_atom_site_type_symbol
_atom_site_fract_x
_atom_site_fract_y
_atom_site_fract_z
S1 S 0.3703(3) 0.9304(2) 0.3263(1)
C1 C 0.2720(10) 0.8306(9) 0.3695(5)
C2 C 0.1367(11) 0.8820(9) 0.3553(5)
C3 C 0.1082(14) 0.9749(12) 0.3972(6)
C4 C -0.0151(16) 1.0263(15) 0.3869(8)
C5 C -0.1093(14) 0.9897(13) 0.3337(7)
C6 C -0.0852(13) 0.8926(12) 0.2927(6)
C7 C 0.0380(11) 0.8378(10) 0.3017(5)
C8 C 0.0550(11) 0.7330(9) 0.2542(5)
S2 S 0.1462(2) 0.7821(2) 0.1930(1)
C9 C 0.0622(12) 0.9293(10) 0.1606(6)
C10 C 0.1035(10) 0.9736(11) 0.0993(5)
O1 O 0.2363(7) 1.0070(7) 0.1157(3)
C11 C 0.2866(11) 1.0088(14) 0.0574(5)
C12 C 0.4258(11) 1.0564(12) 0.0743(5)
C13 C 0.4551(13) 1.1665(12) 0.0410(6)
C14 C 0.5785(13) 1.2091(13) 0.0507(6)
C15 C 0.6760(12) 1.1453(14) 0.0934(6)
C16 C 0.6513(12) 1.0369(15) 0.1266(6)
C17 C 0.5253(11) 0.9933(11) 0.1176(6)
C18 C 0.5090(16) 0.8697(15) 0.1538(8)
O2 O 0.5318(11) 0.9038(9) 0.2223(6)
C19 C 0.5158(19) 0.7874(15) 0.2603(8)
C20 C 0.5019(16) 0.8224(15) 0.3213(7)
Hg1 Hg 0.4762(1) 1.1003(1) 0.4091(1)
Cl1 Cl 0.6873(3) 1.1864(3) 0.4117(2)
Cl2 Cl 0.3943(3) 1.1532(2) 0.5068(2)
Hg1A Hg 0.0238(1) 0.6003(1) 0.0909(1)
S2A S 0.3538(2) 1.2821(2) 0.3070(1)
loop_
_geom_bond_atom_site_label_1
_geom_bond_atom_site_label_2
_geom_bond_site_symmetry_1
_geom_bond_site_symmetry_2
S1 C1 1_555 1_555
C1 C2 1_555 1_555
C2 C3 1_555 1_555
C3 C4 1_555 1_555
C4 C5 1_555 1_555
C5 C6 1_555 1_555
C6 C7 1_555 1_555
C7 C2 1_555 1_555
C8 C7 1_555 1_555
S2 C8 1_555 1_555
C9 S2 1_555 1_555
C10 C9 1_555 1_555
O1 C10 1_555 1_555
C11 O1 1_555 1_555
C12 C11 1_555 1_555
C13 C12 1_555 1_555
C14 C13 1_555 1_555
C15 C14 1_555 1_555
C16 C15 1_555 1_555
C17 C12 1_555 1_555
C18 C17 1_555 1_555
O2 C18 1_555 1_555
C19 O2 1_555 1_555
C20 S1 1_555 1_555
Hg1 S1 1_555 1_555
Cl1 Hg1 1_555 1_555
Cl2 Hg1 1_555 1_555
Hg1A S2 1_555 1_555
S2A Hg1 1_555 1_555
C16 C17 1_555 1_555
C19 C20 1_555 1_555

#END
