
#######################################################################
#
#                 Cambridge Crystallographic Data Centre
#                                CCDC 
#
#######################################################################
#
# If this CIF has been generated from an entry in the Cambridge 
# Structural Database, then it will include bibliographic, chemical, 
# crystal, experimental, refinement or atomic coordinate data resulting 
# from the CCDC's data processing and validation procedures.
#
#######################################################################

data_NOKFEY
_symmetry_cell_setting           monoclinic
_symmetry_space_group_name_H-M   'P 21/c'
_symmetry_Int_Tables_number      14
_space_group_name_Hall           '-P 2ybc'
loop_
_symmetry_equiv_pos_site_id
_symmetry_equiv_pos_as_xyz
1 x,y,z
2 x,1/2-y,1/2+z
3 -x,-y,-z
4 -x,1/2+y,1/2-z
_cell_length_a                   7.4409(19)
_cell_length_b                   14.827(2)
_cell_length_c                   7.7713(17)
_cell_angle_alpha                90
_cell_angle_beta                 99.77(3)
_cell_angle_gamma                90
_cell_volume                     844.944
loop_
_atom_site_label
_atom_site_type_symbol
_atom_site_fract_x
_atom_site_fract_y
_atom_site_fract_z
Mg1 Mg -0.07293(7) 0.35519(4) 0.18681(7)
O1 O 0.12648(17) 0.33541(8) 0.40451(15)
O2 O 0.24097(19) 0.47189(9) 0.46898(17)
O3 O 0.73494(16) 0.37139(9) 0.96065(15)
O4 O 0.47640(17) 0.36623(10) 1.06713(16)
O5 O -0.26871(18) 0.37061(9) 0.35474(17)
H1 H -0.368(4) 0.3649(17) 0.281(4)
H2 H -0.270(3) 0.4218(19) 0.401(3)
O6 O 0.11330(17) 0.33794(10) 0.02020(17)
H3 H 0.222(4) 0.3533(18) 0.048(3)
H4 H 0.119(4) 0.287(2) -0.016(3)
O7 O -0.13757(19) 0.21815(9) 0.18084(18)
H5 H -0.180(3) 0.1880(19) 0.261(3)
H6 H -0.181(3) 0.1981(19) 0.090(4)
O8 O -0.0199(2) 0.49242(10) 0.19774(18)
H7 H -0.034(4) 0.5357(19) 0.136(3)
H8 H 0.071(4) 0.4982(18) 0.281(3)
C1 C 0.2316(2) 0.38956(12) 0.5006(2)
C2 C 0.3513(3) 0.34986(13) 0.6603(2)
H9 H 0.2746 0.3176 0.7289
H10 H 0.4341 0.3066 0.6224
C3 C 0.4617(2) 0.41972(13) 0.7755(2)
H11 H 0.5488 0.4468 0.7113
H12 H 0.3802 0.4670 0.8015
C4 C 0.5638(2) 0.38228(11) 0.9459(2)
O3_2 O -0.26506(16) 0.37139(9) -0.03935(15)
Mg1_2 Mg 0.92707(7) 0.35519(4) 1.18681(7)
loop_
_geom_bond_atom_site_label_1
_geom_bond_atom_site_label_2
_geom_bond_site_symmetry_1
_geom_bond_site_symmetry_2
Mg1 O1 1_555 1_555
O1 C1 1_555 1_555
O2 C1 1_555 1_555
O3 C4 1_555 1_555
O4 C4 1_555 1_555
O5 Mg1 1_555 1_555
H1 O5 1_555 1_555
H2 O5 1_555 1_555
O6 Mg1 1_555 1_555
H3 O6 1_555 1_555
H4 O6 1_555 1_555
O7 Mg1 1_555 1_555
H5 O7 1_555 1_555
H6 O7 1_555 1_555
O8 Mg1 1_555 1_555
H7 O8 1_555 1_555
H8 O8 1_555 1_555
C1 C2 1_555 1_555
C2 H9 1_555 1_555
H10 C2 1_555 1_555
C3 C2 1_555 1_555
H11 C3 1_555 1_555
H12 C3 1_555 1_555
C4 C3 1_555 1_555
O3_2 Mg1 1_555 1_555
Mg1_2 O3 1_555 1_555

#END
