
#######################################################################
#
#                 Cambridge Crystallographic Data Centre
#                                CCDC 
#
#######################################################################
#
# If this CIF has been generated from an entry in the Cambridge 
# Structural Database, then it will include bibliographic, chemical, 
# crystal, experimental, refinement or atomic coordinate data resulting 
# from the CCDC's data processing and validation procedures.
#
#######################################################################

data_NOKFOI
_symmetry_cell_setting           monoclinic
_symmetry_space_group_name_H-M   'C 2/c'
_symmetry_Int_Tables_number      15
_space_group_name_Hall           '-C 2yn'
loop_
_symmetry_equiv_pos_site_id
_symmetry_equiv_pos_as_xyz
1 x,y,z
2 x,-y,1/2+z
3 1/2+x,1/2+y,z
4 1/2+x,1/2-y,1/2+z
5 -x,-y,-z
6 -x,y,1/2-z
7 1/2-x,1/2-y,-z
8 1/2-x,1/2+y,1/2-z
_cell_length_a                   12.8670(17)
_cell_length_b                   7.1090(6)
_cell_length_c                   21.683(3)
_cell_angle_alpha                90
_cell_angle_beta                 107.330(14)
_cell_angle_gamma                90
_cell_volume                     1893.34
loop_
_atom_site_label
_atom_site_type_symbol
_atom_site_fract_x
_atom_site_fract_y
_atom_site_fract_z
Mg1 Mg 0.85362(3) 0.12672(7) 0.315582(18)
O1 O 0.81941(7) 0.14224(14) 0.21431(4)
O2 O 0.71854(8) -0.11252(14) 0.18372(4)
O3 O 0.55423(10) -0.28528(17) -0.03817(5)
O4 O 0.55930(8) -0.11344(16) -0.12211(4)
O5 O 0.99446(8) 0.26678(18) 0.32098(5)
O6 O 0.91501(9) -0.13907(17) 0.30421(5)
O7 O 0.69867(8) 0.03302(18) 0.30655(5)
O8 O 0.91015(10) 0.05952(18) 0.41356(5)
C1 C 0.76042(10) 0.0337(2) 0.17107(6)
C2 C 0.74394(12) 0.0915(2) 0.10149(6)
H1 H 0.7081 0.2130 0.0939
H2 H 0.8144 0.1047 0.0942
C3 C 0.67636(11) -0.0498(2) 0.05392(6)
H3 H 0.6073 -0.0657 0.0627
H4 H 0.7136 -0.1701 0.0613
C4 C 0.65382(11) 0.0020(2) -0.01695(6)
H5 H 0.6171 0.1227 -0.0248
H6 H 0.7224 0.0145 -0.0266
C5 C 0.58403(11) -0.1440(2) -0.06166(6)
H7 H 1.0150(17) 0.370(4) 0.3417(10)
H8 H 1.0428(17) 0.231(3) 0.3068(10)
H9 H 0.9618(17) -0.219(3) 0.3290(10)
H10 H 0.8828(17) -0.202(3) 0.2723(10)
H11 H 0.6610(18) 0.058(3) 0.3330(10)
H12 H 0.6878(17) -0.084(4) 0.2959(10)
H13 H 0.9171(17) 0.118(3) 0.4483(10)
H14 H 0.9519(17) -0.037(4) 0.4238(10)
O2G O 0.78146(8) 0.38748(14) 0.31628(4)
Mg1G Mg 0.64638(3) -0.37328(7) 0.184418(18)
loop_
_geom_bond_atom_site_label_1
_geom_bond_atom_site_label_2
_geom_bond_site_symmetry_1
_geom_bond_site_symmetry_2
Mg1 O1 1_555 1_555
O1 C1 1_555 1_555
O2 C1 1_555 1_555
O3 C5 1_555 1_555
O4 C5 1_555 1_555
O5 Mg1 1_555 1_555
O6 Mg1 1_555 1_555
O7 Mg1 1_555 1_555
O8 Mg1 1_555 1_555
C1 C2 1_555 1_555
C2 H1 1_555 1_555
H2 C2 1_555 1_555
C3 C2 1_555 1_555
H3 C3 1_555 1_555
H4 C3 1_555 1_555
C4 C3 1_555 1_555
H5 C4 1_555 1_555
H6 C4 1_555 1_555
C5 C4 1_555 1_555
H7 O5 1_555 1_555
H8 O5 1_555 1_555
H9 O6 1_555 1_555
H10 O6 1_555 1_555
H11 O7 1_555 1_555
H12 O7 1_555 1_555
H13 O8 1_555 1_555
H14 O8 1_555 1_555
O2G Mg1 1_555 1_555
Mg1G O2 1_555 1_555

#END
