
#######################################################################
#
#                 Cambridge Crystallographic Data Centre
#                                CCDC 
#
#######################################################################
#
# If this CIF has been generated from an entry in the Cambridge 
# Structural Database, then it will include bibliographic, chemical, 
# crystal, experimental, refinement or atomic coordinate data resulting 
# from the CCDC's data processing and validation procedures.
#
#######################################################################

data_NOKGID
_symmetry_cell_setting           monoclinic
_symmetry_space_group_name_H-M   'P 21/a'
_symmetry_Int_Tables_number      14
_space_group_name_Hall           '-P 2yab'
loop_
_symmetry_equiv_pos_site_id
_symmetry_equiv_pos_as_xyz
1 x,y,z
2 1/2+x,1/2-y,z
3 -x,-y,-z
4 1/2-x,1/2+y,-z
_cell_length_a                   9.1738(16)
_cell_length_b                   8.0705(12)
_cell_length_c                   15.960(3)
_cell_angle_alpha                90
_cell_angle_beta                 104.285(12)
_cell_angle_gamma                90
_cell_volume                     1145.1
loop_
_atom_site_label
_atom_site_type_symbol
_atom_site_fract_x
_atom_site_fract_y
_atom_site_fract_z
Mg1 Mg 0.70128(7) 0.13463(7) 0.63499(3)
O1 O 0.88027(14) 0.13028(15) 0.74117(7)
O2 O 1.04792(15) 0.27982(16) 0.69648(7)
O3 O 1.38278(15) 0.09996(14) 1.35592(7)
O4 O 1.40589(15) 0.37203(15) 1.35088(8)
O5 O 0.76479(17) 0.38382(17) 0.61044(8)
O6 O 0.53236(17) 0.17876(18) 0.52312(9)
O7 O 0.84094(16) 0.03636(16) 0.55832(8)
C1 C 1.0097(2) 0.1891(2) 0.75169(10)
C2 C 1.1240(2) 0.1512(2) 0.83512(10)
H1 H 1.2180 0.2059 0.8346
H2 H 1.1426 0.0328 0.8387
C3 C 1.0741(2) 0.2066(2) 0.91468(11)
H3 H 0.9775 0.1567 0.9136
H4 H 1.0610 0.3259 0.9127
C4 C 1.1860(2) 0.1597(3) 0.99889(10)
H5 H 1.1971 0.0401 1.0012
H6 H 1.2833 0.2069 0.9989
C5 C 1.1405(2) 0.2179(3) 1.07932(11)
H7 H 1.0467 0.1645 1.0814
H8 H 1.1226 0.3364 1.0751
C6 C 1.2577(2) 0.1811(2) 1.16330(10)
H9 H 1.3527 0.2309 1.1607
H10 H 1.2726 0.0623 1.1690
C7 C 1.2115(2) 0.2470(2) 1.24281(10)
H11 H 1.1777 0.3608 1.2326
H12 H 1.1284 0.1818 1.2525
C8 C 1.3419(2) 0.2393(2) 1.32236(10)
H13 H 0.852(2) 0.389(2) 0.6344(12)
H14 H 0.721(2) 0.466(2) 0.6305(11)
H15 H 0.507(2) 0.151(2) 0.4754(13)
H16 H 0.479(2) 0.251(3) 0.5276(12)
H17 H 0.906(2) -0.030(2) 0.5834(12)
H18 H 0.808(2) -0.010(2) 0.5136(13)
O2A O 0.54792(15) 0.22018(16) 0.69648(7)
O3B O 0.61722(15) -0.09996(14) 0.64408(7)
Mg1A Mg 1.20128(7) 0.36537(7) 0.63499(3)
Mg1B Mg 1.29872(7) -0.13463(7) 1.36501(3)
loop_
_geom_bond_atom_site_label_1
_geom_bond_atom_site_label_2
_geom_bond_site_symmetry_1
_geom_bond_site_symmetry_2
Mg1 O1 1_555 1_555
O1 C1 1_555 1_555
O2 C1 1_555 1_555
O3 C8 1_555 1_555
O4 C8 1_555 1_555
O5 Mg1 1_555 1_555
O6 Mg1 1_555 1_555
O7 Mg1 1_555 1_555
C1 C2 1_555 1_555
C2 H1 1_555 1_555
H2 C2 1_555 1_555
C3 C2 1_555 1_555
H3 C3 1_555 1_555
H4 C3 1_555 1_555
C4 C3 1_555 1_555
H5 C4 1_555 1_555
H6 C4 1_555 1_555
C5 C4 1_555 1_555
H7 C5 1_555 1_555
H8 C5 1_555 1_555
C6 C5 1_555 1_555
H9 C6 1_555 1_555
H10 C6 1_555 1_555
C7 C6 1_555 1_555
H11 C7 1_555 1_555
H12 C7 1_555 1_555
C8 C7 1_555 1_555
H13 O5 1_555 1_555
H14 O5 1_555 1_555
H15 O6 1_555 1_555
H16 O6 1_555 1_555
H17 O7 1_555 1_555
H18 O7 1_555 1_555
O2A Mg1 1_555 1_555
O3B Mg1 1_555 1_555
Mg1A O2 1_555 1_555
Mg1B O3 1_555 1_555

#END
