
#######################################################################
#
#                 Cambridge Crystallographic Data Centre
#                                CCDC 
#
#######################################################################
#
# If this CIF has been generated from an entry in the Cambridge 
# Structural Database, then it will include bibliographic, chemical, 
# crystal, experimental, refinement or atomic coordinate data resulting 
# from the CCDC's data processing and validation procedures.
#
#######################################################################

data_NOKGEZ
_symmetry_cell_setting           monoclinic
_symmetry_space_group_name_H-M   'P 21/a'
_symmetry_Int_Tables_number      14
_space_group_name_Hall           '-P 2yab'
loop_
_symmetry_equiv_pos_site_id
_symmetry_equiv_pos_as_xyz
1 x,y,z
2 1/2-x,1/2+y,-z
3 -x,-y,-z
4 1/2+x,1/2-y,z
_cell_length_a                   14.590(4)
_cell_length_b                   13.817(3)
_cell_length_c                   17.639(3)
_cell_angle_alpha                90
_cell_angle_beta                 112.67(2)
_cell_angle_gamma                90
_cell_volume                     3281.12
loop_
_atom_site_label
_atom_site_type_symbol
_atom_site_fract_x
_atom_site_fract_y
_atom_site_fract_z
Mo1 Mo 0.0742(1) 0.0873(1) 0.5680(1)
Mo2 Mo -0.0983(1) 0.1630(1) 0.4021(1)
Mo3 Mo 0.1734(1) -0.0393(1) 0.4665(1)
Mo4 Mo -0.0012(1) 0.0358(1) 0.2973(1)
Na1 Na -0.3324(3) 0.2723(3) 0.4343(3)
O1 O 0.0255(4) 0.0457(4) 0.4414(4)
O2 O -0.2098(5) 0.2209(5) 0.3801(4)
O3 O -0.0574(5) 0.1453(4) 0.5243(3)
O4 O 0.0851(5) 0.0834(4) 0.6716(4)
O5 O 0.1646(4) -0.0204(4) 0.5759(4)
O6 O 0.2599(5) -0.1294(5) 0.4919(5)
O7 O 0.1009(5) -0.0566(5) 0.3512(4)
O8 O -0.0393(7) 0.0019(6) 0.1976(6)
O9 O -0.1152(5) 0.1047(5) 0.3005(4)
O10 O -0.0143(5) 0.2524(5) 0.4085(5)
O11 O 0.1442(5) 0.1834(5) 0.5618(4)
O12 O 0.2359(5) 0.0649(5) 0.4677(5)
O13 O 0.0746(5) 0.1349(5) 0.3089(5)
Mo1B Mo -0.0742(1) -0.0873(1) 0.4320(1)
O1B O -0.0255(4) -0.0457(4) 0.5586(4)
O3B O 0.0574(5) -0.1453(4) 0.4757(3)
O4B O -0.0851(5) -0.0834(4) 0.3284(4)
Mo4B Mo 0.0012(1) -0.0358(1) 0.7027(1)
Mo2B Mo 0.0983(1) -0.1630(1) 0.5979(1)
O2B O 0.2098(5) -0.2209(5) 0.6199(4)
Na1B Na 0.3324(3) -0.2723(3) 0.5657(3)
Na1C Na 0.1676(3) 0.2277(3) 0.4343(3)
O2C O 0.2902(5) 0.2791(5) 0.3801(4)
O6A O 0.2401(5) 0.3706(5) 0.5081(5)
O6B O -0.2599(5) 0.1294(5) 0.5081(5)
Mo3B Mo -0.1734(1) 0.0393(1) 0.5335(1)
O5B O -0.1646(4) 0.0204(4) 0.4241(4)
O11B O -0.1442(5) -0.1834(5) 0.4382(4)
Na1A Na -0.1676(3) -0.2277(3) 0.5657(3)
O10B O 0.0143(5) -0.2524(5) 0.5915(5)
O9B O 0.1152(5) -0.1047(5) 0.6995(4)
O7B O -0.1009(5) 0.0566(5) 0.6488(4)
O12B O -0.2359(5) -0.0649(5) 0.5323(5)
O13B O -0.0746(5) -0.1349(5) 0.6911(5)
O8B O 0.0393(7) -0.0019(6) 0.8024(6)
O10C O -0.5143(5) 0.2476(5) 0.4085(5)
O11C O -0.3558(5) 0.3166(5) 0.5618(4)
O12C O -0.2641(5) 0.4351(5) 0.4677(5)
O13C O -0.4254(5) 0.3651(5) 0.3089(5)
Na2 Na 0.9175(3) 0.5536(3) 0.1946(3)
N1 N 1.1050(7) 0.6162(7) 0.2091(6)
O14 O 1.0227(7) 0.6125(6) 0.3309(6)
O15 O 0.8315(8) 0.5481(7) 0.2877(7)
O16 O 0.8299(7) 0.3976(6) 0.1819(6)
O17 O 1.0264(6) 0.4214(6) 0.1931(5)
C1 C 0.899(1) 0.549(1) 0.370(1)
C2 C 0.971(1) 0.629(1) 0.381(1)
C3 C 1.087(1) 0.691(1) 0.3320(9)
C4 C 1.155(1) 0.658(1) 0.2930(8)
C5 C 1.157(1) 0.527(1) 0.199(1)
C6 C 1.129(1) 0.440(1) 0.237(1)
C7 C 0.997(1) 0.3338(9) 0.220(2)
C8 C 0.889(1) 0.320(1) 0.171(1)
C9 C 0.802(1) 0.380(1) 0.2511(9)
C10 C 0.761(1) 0.471(1) 0.266(1)
C11 C 1.0671(7) 0.6792(8) 0.1411(6)
C12 C 1.0242(9) 0.640(1) 0.0643(8)
C13 C 0.9844(9) 0.701(1) -0.0042(9)
C14 C 0.9861(9) 0.803(1) 0.0044(8)
C15 C 1.028(1) 0.838(1) 0.082(1)
C16 C 1.068(1) 0.780(1) 0.1486(8)
C17 C 0.943(1) 0.867(1) -0.070(1)
C18 C 0.762(1) 0.490(1) -0.008(1)
C19 C 0.744(1) 0.596(1) -0.0037(9)
O18 O 0.7938(6) 0.6306(6) 0.0769(5)
C20 C 0.778(1) 0.732(1) 0.0814(9)
C21 C 0.826(1) 0.764(1) 0.169(1)
loop_
_geom_bond_atom_site_label_1
_geom_bond_atom_site_label_2
_geom_bond_site_symmetry_1
_geom_bond_site_symmetry_2
Mo1 O1 1_555 1_555
Mo2 O1 1_555 1_555
Mo3 O1 1_555 1_555
Mo4 O1 1_555 1_555
Na1 O2 1_555 1_555
O1 Mo1B 1_555 1_555
O2 Mo2 1_555 1_555
O3 Mo1 1_555 1_555
O4 Mo1 1_555 1_555
O5 Mo1 1_555 1_555
O6 Mo3 1_555 1_555
O7 Mo3 1_555 1_555
O8 Mo4 1_555 1_555
O9 Mo2 1_555 1_555
O10 Mo2 1_555 1_555
O11 Mo1 1_555 1_555
O12 Mo3 1_555 1_555
O13 Mo4 1_555 1_555
Na2 N1 1_555 1_555
N1 C4 1_555 1_555
O14 Na2 1_555 1_555
O15 Na2 1_555 1_555
O16 Na2 1_555 1_555
O17 Na2 1_555 1_555
C1 O15 1_555 1_555
C2 O14 1_555 1_555
C3 O14 1_555 1_555
C4 C3 1_555 1_555
C5 N1 1_555 1_555
C6 O17 1_555 1_555
C7 O17 1_555 1_555
C8 O16 1_555 1_555
C9 O16 1_555 1_555
C10 O15 1_555 1_555
C11 N1 1_555 1_555
C12 C11 1_555 1_555
C13 C12 1_555 1_555
C14 C13 1_555 1_555
C15 C14 1_555 1_555
C16 C11 1_555 1_555
C17 C14 1_555 1_555
C18 C19 1_555 1_555
C19 O18 1_555 1_555
O18 Na2 1_555 1_555
C20 O18 1_555 1_555
C21 C20 1_555 1_555
Mo1B O1B 1_555 1_555
O1B Mo1 1_555 1_555
O3B Mo3 1_555 1_555
O4B Mo4 1_555 1_555
Mo4B O4 1_555 1_555
Mo2B O5 1_555 1_555
O2B Mo2B 1_555 1_555
Na1B O6 1_555 1_555
Na1C O10 1_555 1_555
O2C Na1C 1_555 1_555
O6A Na1C 1_555 1_555
O6B Na1 1_555 1_555
Mo3B O3 1_555 1_555
O5B Mo2 1_555 1_555
O11B Mo1B 1_555 1_555
Na1A O11B 1_555 1_555
O10B Mo2B 1_555 1_555
O9B Mo4B 1_555 1_555
O7B Mo4B 1_555 1_555
O12B Mo3B 1_555 1_555
O13B Mo4B 1_555 1_555
O8B Mo4B 1_555 1_555
O10C Na1 1_555 1_555
O11C Na1 1_555 1_555
O12C Na1 1_555 1_555
O13C Na1 1_555 1_555
Mo2 O3 1_555 1_555
Mo3 O5 1_555 1_555
Mo4 O7 1_555 1_555
Mo4 O9 1_555 1_555
O11 Na1C 1_555 1_555
O12 Na1C 1_555 1_555
O13 Na1C 1_555 1_555
C1 C2 1_555 1_555
C5 C6 1_555 1_555
C7 C8 1_555 1_555
C9 C10 1_555 1_555
C15 C16 1_555 1_555
Mo1B O4B 1_555 1_555
Mo1B O3B 1_555 1_555
Mo1B O5B 1_555 1_555
O1B Mo2B 1_555 1_555
O1B Mo4B 1_555 1_555
O1B Mo3B 1_555 1_555
O3B Mo2B 1_555 1_555
Mo2B O9B 1_555 1_555
O2B Na1B 1_555 1_555
O6B Mo3B 1_555 1_555
Mo3B O5B 1_555 1_555
Mo3B O7B 1_555 1_555
Na1A O10B 1_555 1_555
Na1A O13B 1_555 1_555
Na1A O12B 1_555 1_555

#END
