
#######################################################################
#
#                 Cambridge Crystallographic Data Centre
#                                CCDC 
#
#######################################################################
#
# If this CIF has been generated from an entry in the Cambridge 
# Structural Database, then it will include bibliographic, chemical, 
# crystal, experimental, refinement or atomic coordinate data resulting 
# from the CCDC's data processing and validation procedures.
#
#######################################################################

data_NOKKUT01
_symmetry_cell_setting           triclinic
_symmetry_space_group_name_H-M   'P -1'
_symmetry_Int_Tables_number      2
_space_group_name_Hall           '-P 1'
loop_
_symmetry_equiv_pos_site_id
_symmetry_equiv_pos_as_xyz
1 x,y,z
2 -x,-y,-z
_cell_length_a                   8.325(1)
_cell_length_b                   8.685(2)
_cell_length_c                   10.017(2)
_cell_angle_alpha                82.32(2)
_cell_angle_beta                 70.19(1)
_cell_angle_gamma                84.98(1)
_cell_volume                     674.591
loop_
_atom_site_label
_atom_site_type_symbol
_atom_site_fract_x
_atom_site_fract_y
_atom_site_fract_z
Pr1 Pr 0.00110(3) 0.23939(2) 0.07264(2)
Cl1 Cl -0.0692(2) 0.4667(1) -0.1307(1)
Cl2 Cl -0.3142(2) 0.2352(2) 0.2525(2)
Cl3 Cl -0.1075(2) 0.0748(1) -0.1072(2)
O1 O 0.3013(5) 0.2552(5) -0.0867(5)
C1 C 0.348(1) 0.196(1) -0.218(1)
C2 C 0.486(1) 0.284(2) -0.316(1)
C3 C 0.5621(8) 0.351(1) -0.2342(9)
C4 C 0.4472(9) 0.328(1) -0.0845(9)
O2 O 0.0753(5) 0.2021(4) 0.2969(4)
C5 C -0.0231(8) 0.2684(7) 0.4271(6)
C6 C 0.097(1) 0.279(1) 0.5031(8)
C7 C 0.2343(9) 0.168(1) 0.4523(7)
C8 C 0.2397(9) 0.154(1) 0.3071(8)
H1 H 0.3935 0.0895 -0.2131
H2 H 0.2527 0.1956 -0.2524
H3 H 0.5621 0.2408 -0.3899
H4 H 0.4300 0.3805 -0.3656
H5 H 0.6698 0.3037 -0.2494
H6 H 0.5748 0.4638 -0.2627
H7 H 0.5023 0.2549 -0.0289
H8 H 0.4140 0.4187 -0.0397
H9 H -0.1161 0.1974 0.4868
H10 H -0.0835 0.3646 0.4099
H11 H 0.0466 0.2696 0.6032
H12 H 0.1451 0.3840 0.4744
H13 H 0.2029 0.0659 0.5117
H14 H 0.3391 0.1913 0.4613
H15 H 0.2770 0.0536 0.2761
H16 H 0.3272 0.2258 0.2390
Pr1A Pr -0.00110(3) 0.76061(2) -0.07264(2)
Cl1A Cl 0.0692(2) 0.5333(1) 0.1307(1)
Pr1A_2 Pr -0.00110(3) -0.23939(2) -0.07264(2)
Cl3A Cl 0.1075(2) -0.0748(1) 0.1072(2)
loop_
_geom_bond_atom_site_label_1
_geom_bond_atom_site_label_2
_geom_bond_site_symmetry_1
_geom_bond_site_symmetry_2
Pr1 Cl1 1_555 1_555
Cl1 Pr1A 1_555 1_555
Cl2 Pr1 1_555 1_555
Cl3 Pr1 1_555 1_555
O1 Pr1 1_555 1_555
C1 O1 1_555 1_555
C2 C1 1_555 1_555
C3 C2 1_555 1_555
C4 O1 1_555 1_555
O2 Pr1 1_555 1_555
C5 O2 1_555 1_555
C6 C5 1_555 1_555
C7 C6 1_555 1_555
C8 O2 1_555 1_555
H1 C1 1_555 1_555
H2 C1 1_555 1_555
H3 C2 1_555 1_555
H4 C2 1_555 1_555
H5 C3 1_555 1_555
H6 C3 1_555 1_555
H7 C4 1_555 1_555
H8 C4 1_555 1_555
H9 C5 1_555 1_555
H10 C5 1_555 1_555
H11 C6 1_555 1_555
H12 C6 1_555 1_555
H13 C7 1_555 1_555
H14 C7 1_555 1_555
H15 C8 1_555 1_555
H16 C8 1_555 1_555
Pr1A Cl1A 1_555 1_555
Cl1A Pr1 1_555 1_555
Pr1A_2 Cl3 1_555 1_555
Cl3A Pr1 1_555 1_555
C3 C4 1_555 1_555
C7 C8 1_555 1_555
Pr1A_2 Cl3A 1_555 1_555

#END
