
#######################################################################
#
#                 Cambridge Crystallographic Data Centre
#                                CCDC 
#
#######################################################################
#
# If this CIF has been generated from an entry in the Cambridge 
# Structural Database, then it will include bibliographic, chemical, 
# crystal, experimental, refinement or atomic coordinate data resulting 
# from the CCDC's data processing and validation procedures.
#
#######################################################################

data_NOKKUT
_symmetry_cell_setting           triclinic
_symmetry_space_group_name_H-M   'P -1'
_symmetry_Int_Tables_number      2
_space_group_name_Hall           '-P 1'
loop_
_symmetry_equiv_pos_site_id
_symmetry_equiv_pos_as_xyz
1 x,y,z
2 -x,-y,-z
_cell_length_a                   8.470(9)
_cell_length_b                   8.781(10)
_cell_length_c                   10.191(11)
_cell_angle_alpha                82.56(1)
_cell_angle_beta                 69.91(1)
_cell_angle_gamma                85.15(1)
_cell_volume                     705.191
loop_
_atom_site_label
_atom_site_type_symbol
_atom_site_fract_x
_atom_site_fract_y
_atom_site_fract_z
Pr1 Pr 0.0009(1) 0.2381(1) 0.0729(1)
Cl1 Cl -0.3137(7) 0.2368(9) 0.2535(7)
Cl2 Cl 0.1083(7) -0.0756(6) 0.1072(6)
Cl3 Cl -0.0692(7) 0.4668(6) -0.1309(5)
O1 O 0.3010(17) 0.2538(20) -0.0872(17)
C1 C 0.4490(35) 0.3282(42) -0.0807(26)
C2 C 0.5618(26) 0.3512(28) -0.2330(28)
C3 C 0.4912(50) 0.2656(65) -0.3144(34)
C4 C 0.3509(38) 0.1876(55) -0.2101(44)
O2 O 0.0713(18) 0.2008(16) 0.2968(15)
C5 C 0.2455(27) 0.1492(42) 0.3066(26)
C6 C 0.0954(40) 0.2809(52) 0.5027(32)
C7 C 0.2376(34) 0.1679(38) 0.4506(28)
C8 C -0.0259(33) 0.2683(30) 0.4265(22)
H1 H 0.5047(35) 0.2623(42) -0.0243(26)
H2 H 0.4162(35) 0.4257(42) -0.0417(26)
H3 H 0.5651(26) 0.4597(28) -0.2672(28)
H4 H 0.6755(26) 0.3127(28) -0.2422(28)
H5 H 0.4535(50) 0.3353(65) -0.3807(34)
H6 H 0.5743(50) 0.1922(65) -0.3655(34)
H7 H 0.2576(38) 0.1920(55) -0.2453(44)
H8 H 0.3834(38) 0.0803(55) -0.1927(44)
H9 H 0.2717(27) 0.0426(42) 0.2884(26)
H10 H 0.3317(27) 0.2119(42) 0.2383(26)
H11 H 0.1362(40) 0.3841(52) 0.4842(32)
H12 H 0.0403(40) 0.2583(52) 0.6032(32)
H13 H 0.3420(34) 0.2062(38) 0.4498(28)
H14 H 0.2172(34) 0.0707(38) 0.5095(28)
H15 H -0.1170(33) 0.2032(30) 0.4836(22)
H16 H -0.0732(33) 0.3690(30) 0.4050(22)
Pr1A Pr -0.0009(1) -0.2381(1) -0.0729(1)
Cl2A Cl -0.1083(7) 0.0756(6) -0.1072(6)
Pr1A_2 Pr -0.0009(1) 0.7619(1) -0.0729(1)
Cl3A Cl 0.0692(7) 0.5332(6) 0.1309(5)
loop_
_geom_bond_atom_site_label_1
_geom_bond_atom_site_label_2
_geom_bond_site_symmetry_1
_geom_bond_site_symmetry_2
Pr1 Cl1 1_555 1_555
Cl2 Pr1 1_555 1_555
Cl3 Pr1 1_555 1_555
O1 Pr1 1_555 1_555
C1 O1 1_555 1_555
C2 C1 1_555 1_555
C3 C2 1_555 1_555
C4 O1 1_555 1_555
O2 Pr1 1_555 1_555
C5 O2 1_555 1_555
C6 C7 1_555 1_555
C7 C5 1_555 1_555
C8 O2 1_555 1_555
H1 C1 1_555 1_555
H2 C1 1_555 1_555
H3 C2 1_555 1_555
H4 C2 1_555 1_555
H5 C3 1_555 1_555
H6 C3 1_555 1_555
H7 C4 1_555 1_555
H8 C4 1_555 1_555
H9 C5 1_555 1_555
H10 C5 1_555 1_555
H11 C6 1_555 1_555
H12 C6 1_555 1_555
H13 C7 1_555 1_555
H14 C7 1_555 1_555
H15 C8 1_555 1_555
H16 C8 1_555 1_555
Pr1A Cl2 1_555 1_555
Cl2A Pr1 1_555 1_555
Pr1A_2 Cl3 1_555 1_555
Cl3A Pr1 1_555 1_555
C3 C4 1_555 1_555
C6 C8 1_555 1_555
Pr1A Cl2A 1_555 1_555
Pr1A_2 Cl3A 1_555 1_555

#END
