
#######################################################################
#
#                 Cambridge Crystallographic Data Centre
#                                CCDC 
#
#######################################################################
#
# If this CIF has been generated from an entry in the Cambridge 
# Structural Database, then it will include bibliographic, chemical, 
# crystal, experimental, refinement or atomic coordinate data resulting 
# from the CCDC's data processing and validation procedures.
#
#######################################################################

data_NOKKIJ
_symmetry_cell_setting           orthorhombic
_symmetry_space_group_name_H-M   'P b c a'
_symmetry_Int_Tables_number      61
_space_group_name_Hall           '-P 2ac 2ab'
loop_
_symmetry_equiv_pos_site_id
_symmetry_equiv_pos_as_xyz
1 x,y,z
2 1/2-x,-y,1/2+z
3 -x,1/2+y,1/2-z
4 1/2+x,1/2-y,-z
5 -x,-y,-z
6 1/2+x,y,1/2-z
7 x,1/2-y,1/2+z
8 1/2-x,1/2+y,z
_cell_length_a                   6.7811(3)
_cell_length_b                   13.4011(6)
_cell_length_c                   19.2868(8)
_cell_angle_alpha                90
_cell_angle_beta                 90
_cell_angle_gamma                90
_cell_volume                     1752.67
loop_
_atom_site_label
_atom_site_type_symbol
_atom_site_fract_x
_atom_site_fract_y
_atom_site_fract_z
Zn1 Zn 0.51832(5) 0.84284(2) 0.407486(16)
Cl1 Cl 0.21196(11) 0.89157(5) 0.38471(4)
Cl2 Cl 0.63792(11) 0.86729(5) 0.51439(4)
C1 C 0.6367(4) 0.6380(2) 0.43079(15)
H1 H 0.6253 0.6585 0.4778
C2 C 0.6034(4) 0.6679(2) 0.31489(14)
C3 C 0.6704(4) 0.5717(2) 0.30000(14)
C4 C 0.7324(4) 0.5059(2) 0.35184(14)
C5 C 0.6157(4) 0.6504(2) 0.20113(15)
H2 H 0.6063 0.6634 0.1528
C6 C 0.5700(4) 0.7173(2) 0.25227(15)
H3 H 0.5248 0.7838 0.2464
N1 N 0.7033(3) 0.54446(16) 0.41746(11)
H4 H 0.7298 0.5057 0.4531
N2 N 0.5874(3) 0.70130(17) 0.38245(12)
N3 N 0.6767(3) 0.56245(17) 0.22956(11)
H5 H 0.7136 0.5090 0.2065
O1 O 0.8085(3) 0.42156(14) 0.34273(9)
Zn1G Zn 0.98168(5) 0.34284(2) 0.407486(16)
O1G O 0.6915(3) 0.92156(14) 0.34273(9)
loop_
_geom_bond_atom_site_label_1
_geom_bond_atom_site_label_2
_geom_bond_site_symmetry_1
_geom_bond_site_symmetry_2
Zn1 Cl1 1_555 1_555
Cl2 Zn1 1_555 1_555
C1 H1 1_555 1_555
C2 C3 1_555 1_555
C3 C4 1_555 1_555
C4 N1 1_555 1_555
C5 H2 1_555 1_555
C6 C2 1_555 1_555
H3 C6 1_555 1_555
N1 C1 1_555 1_555
H4 N1 1_555 1_555
N2 Zn1 1_555 1_555
N3 C3 1_555 1_555
H5 N3 1_555 1_555
O1 C4 1_555 1_555
Zn1G O1 1_555 1_555
O1G Zn1 1_555 1_555
C1 N2 1_555 1_555
C2 N2 1_555 1_555
C5 C6 1_555 1_555
C5 N3 1_555 1_555

#END
