
#######################################################################
#
#                 Cambridge Crystallographic Data Centre
#                                CCDC 
#
#######################################################################
#
# If this CIF has been generated from an entry in the Cambridge 
# Structural Database, then it will include bibliographic, chemical, 
# crystal, experimental, refinement or atomic coordinate data resulting 
# from the CCDC's data processing and validation procedures.
#
#######################################################################

data_NOKKUV
_symmetry_cell_setting           triclinic
_symmetry_space_group_name_H-M   'P -1'
_symmetry_Int_Tables_number      2
_space_group_name_Hall           '-P 1'
loop_
_symmetry_equiv_pos_site_id
_symmetry_equiv_pos_as_xyz
1 x,y,z
2 -x,-y,-z
_cell_length_a                   7.3679(6)
_cell_length_b                   7.9416(4)
_cell_length_c                   12.6707(9)
_cell_angle_alpha                74.137(5)
_cell_angle_beta                 89.028(6)
_cell_angle_gamma                64.460(5)
_cell_volume                     639.117
loop_
_atom_site_label
_atom_site_type_symbol
_atom_site_fract_x
_atom_site_fract_y
_atom_site_fract_z
Br1 Br 1.24051(17) -0.08746(16) 0.92332(8)
Cu1 Cu 0.8875(2) 0.1810(2) 0.89163(12)
P1 P 0.7038(4) 1.1748(4) 0.7589(2)
N1 N 0.4074(16) 1.7588(14) 0.6528(8)
C1 C 0.7366(16) 1.2768(16) 0.6166(8)
H1 H 0.6754 1.2341 0.5666
H2 H 0.6664 1.4212 0.5960
C2 C 0.7471(15) 0.9285(13) 0.7602(8)
H3 H 0.6307 0.9373 0.7172
H4 H 0.8698 0.8701 0.7242
C3 C 0.3581(17) 1.4847(16) 0.7980(9)
H5 H 0.2131 1.5315 0.8090
H6 H 0.4358 1.4522 0.8696
C4 C 0.7738(16) 0.7975(14) 0.8769(8)
H7 H 0.8800 0.8018 0.9215
H8 H 0.6457 0.8504 0.9097
C5 C 0.9647(16) 1.2086(17) 0.6032(9)
H9 H 1.0262 1.2477 0.6553
H10 H 1.0336 1.0644 0.6222
C6 C 0.3864(18) 1.6407(17) 0.7165(10)
C7 C 0.4287(16) 1.2999(15) 0.7603(10)
H11 H 0.3614 1.3363 0.6851
H12 H 0.3849 1.2080 0.8102
N2 N 1.0206(16) 1.3595(16) 0.4023(8)
C8 C 0.9965(17) 1.2930(16) 0.4898(9)
N3 N 0.8750(14) 0.4347(12) 0.8881(7)
C9 C 0.8299(16) 0.5915(16) 0.8847(9)
Br1A Br 0.75949(17) 0.08746(16) 1.07668(8)
Cu1_2 Cu 0.8875(2) 1.1810(2) 0.89163(12)
Cu1A Cu 1.1125(2) -0.1810(2) 1.10837(12)
P1_2 P 0.7038(4) 0.1748(4) 0.7589(2)
loop_
_geom_bond_atom_site_label_1
_geom_bond_atom_site_label_2
_geom_bond_site_symmetry_1
_geom_bond_site_symmetry_2
Br1 Cu1 1_555 1_555
Cu1 N3 1_555 1_555
P1 C1 1_555 1_555
N1 C6 1_555 1_555
C1 H1 1_555 1_555
H2 C1 1_555 1_555
C2 P1 1_555 1_555
H3 C2 1_555 1_555
H4 C2 1_555 1_555
C3 H5 1_555 1_555
H6 C3 1_555 1_555
C4 C2 1_555 1_555
H7 C4 1_555 1_555
H8 C4 1_555 1_555
C5 C1 1_555 1_555
H9 C5 1_555 1_555
H10 C5 1_555 1_555
C6 C3 1_555 1_555
C7 P1 1_555 1_555
H11 C7 1_555 1_555
H12 C7 1_555 1_555
N2 C8 1_555 1_555
C8 C5 1_555 1_555
N3 C9 1_555 1_555
C9 C4 1_555 1_555
Br1A Cu1 1_555 1_555
Cu1_2 P1 1_555 1_555
Cu1A Br1 1_555 1_555
P1_2 Cu1 1_555 1_555
C3 C7 1_555 1_555
Br1A Cu1A 1_555 1_555

#END
