
#######################################################################
#
#                 Cambridge Crystallographic Data Centre
#                                CCDC 
#
#######################################################################
#
# If this CIF has been generated from an entry in the Cambridge 
# Structural Database, then it will include bibliographic, chemical, 
# crystal, experimental, refinement or atomic coordinate data resulting 
# from the CCDC's data processing and validation procedures.
#
#######################################################################

data_NOKLOQ
_symmetry_cell_setting           monoclinic
_symmetry_space_group_name_H-M   'P 21/c'
_symmetry_Int_Tables_number      14
_space_group_name_Hall           '-P 2ybc'
loop_
_symmetry_equiv_pos_site_id
_symmetry_equiv_pos_as_xyz
1 x,y,z
2 -x,1/2+y,1/2-z
3 -x,-y,-z
4 x,1/2-y,1/2+z
_cell_length_a                   11.750(2)
_cell_length_b                   8.9000(18)
_cell_length_c                   13.365(3)
_cell_angle_alpha                90
_cell_angle_beta                 104.85(3)
_cell_angle_gamma                90
_cell_volume                     1350.96
loop_
_atom_site_label
_atom_site_type_symbol
_atom_site_fract_x
_atom_site_fract_y
_atom_site_fract_z
Cu1 Cu 0.39323(4) 0.52664(5) 0.21902(3)
S1 S 0.58865(7) 0.54983(8) 0.32925(6)
P1 P 0.25040(7) 0.43599(9) 0.28262(6)
C1 C 0.0285(3) 0.2686(4) 0.0148(3)
C2 C 0.1071(3) 0.3708(4) 0.0878(2)
H1 H 0.0679 0.4668 0.0872
H2 H 0.1776 0.3875 0.0643
N1 N -0.0325(3) 0.1923(4) -0.0430(2)
C3 C 0.1425(3) 0.3122(4) 0.1979(2)
H3 H 0.1759 0.2124 0.1984
H4 H 0.0731 0.3043 0.2243
C4 C 0.2806(3) 0.3319(3) 0.4053(2)
H5 H 0.2943 0.4028 0.4623
H6 H 0.2120 0.2724 0.4072
C5 C 0.2383(3) 0.7056(4) 0.3845(2)
H7 H 0.2473 0.6699 0.4546
H8 H 0.3159 0.7096 0.3718
C6 C 0.4056(3) 0.1429(4) 0.5162(2)
C7 C 0.1878(3) 0.8580(4) 0.3750(2)
C8 C 0.3872(3) 0.2284(4) 0.4196(2)
H9 H 0.3750 0.1595 0.3616
H10 H 0.4567 0.2879 0.4209
C9 C 0.1611(3) 0.5936(4) 0.3081(2)
H11 H 0.1248 0.6446 0.2436
H12 H 0.0988 0.5560 0.3370
N2 N 0.4155(2) 0.0761(3) 0.5905(2)
N3 N 0.1492(3) 0.9761(3) 0.3665(2)
C10 C 0.6201(3) 0.3695(4) 0.3248(2)
N4 N 0.6387(2) 0.2411(3) 0.3219(2)
Cu1A Cu 0.60677(4) 0.02664(5) 0.28098(3)
Cu1C Cu 0.39323(4) -0.02664(5) 0.71902(3)
N2C N 0.4155(2) 0.4239(3) 0.0905(2)
N4A N 0.3613(2) 0.7411(3) 0.1781(2)
loop_
_geom_bond_atom_site_label_1
_geom_bond_atom_site_label_2
_geom_bond_site_symmetry_1
_geom_bond_site_symmetry_2
Cu1 S1 1_555 1_555
S1 C10 1_555 1_555
P1 Cu1 1_555 1_555
C1 C2 1_555 1_555
C2 H1 1_555 1_555
H2 C2 1_555 1_555
N1 C1 1_555 1_555
C3 P1 1_555 1_555
H3 C3 1_555 1_555
H4 C3 1_555 1_555
C4 P1 1_555 1_555
H5 C4 1_555 1_555
H6 C4 1_555 1_555
C5 H7 1_555 1_555
H8 C5 1_555 1_555
C6 C8 1_555 1_555
C7 C5 1_555 1_555
C8 C4 1_555 1_555
H9 C8 1_555 1_555
H10 C8 1_555 1_555
C9 P1 1_555 1_555
H11 C9 1_555 1_555
H12 C9 1_555 1_555
N2 C6 1_555 1_555
N3 C7 1_555 1_555
C10 N4 1_555 1_555
N4 Cu1A 1_555 1_555
Cu1C N2 1_555 1_555
N2C Cu1 1_555 1_555
N4A Cu1 1_555 1_555
C2 C3 1_555 1_555
C5 C9 1_555 1_555

#END
