
#######################################################################
#
#                 Cambridge Crystallographic Data Centre
#                                CCDC 
#
#######################################################################
#
# If this CIF has been generated from an entry in the Cambridge 
# Structural Database, then it will include bibliographic, chemical, 
# crystal, experimental, refinement or atomic coordinate data resulting 
# from the CCDC's data processing and validation procedures.
#
#######################################################################

data_NOKLEG
_symmetry_cell_setting           orthorhombic
_symmetry_space_group_name_H-M   'P b c a'
_symmetry_Int_Tables_number      61
_space_group_name_Hall           '-P 2ac 2ab'
loop_
_symmetry_equiv_pos_site_id
_symmetry_equiv_pos_as_xyz
1 x,y,z
2 1/2-x,-y,1/2+z
3 -x,1/2+y,1/2-z
4 1/2+x,1/2-y,-z
5 -x,-y,-z
6 1/2+x,y,1/2-z
7 x,1/2-y,1/2+z
8 1/2-x,1/2+y,z
_cell_length_a                   8.10830(10)
_cell_length_b                   24.7179(5)
_cell_length_c                   26.8979(19)
_cell_angle_alpha                90
_cell_angle_beta                 90
_cell_angle_gamma                90
_cell_volume                     5390.88
loop_
_atom_site_label
_atom_site_type_symbol
_atom_site_fract_x
_atom_site_fract_y
_atom_site_fract_z
C1 C 0.6591(5) 0.10269(13) 0.23781(14)
N1 N 0.6807(5) 0.09023(13) 0.19801(13)
C2 C 0.6350(5) 0.11859(15) 0.28959(14)
H1 H 0.6886 0.0922 0.3114
H2 H 0.5167 0.1198 0.2970
H3 H 0.6834 0.1544 0.2951
Cu1 Cu 0.85035(5) 0.116696(16) 0.579472(16)
P1 P 0.85970(9) 0.20071(3) 0.61142(3)
P2 P 0.68640(9) 0.05498(3) 0.61457(3)
O1 O 0.7534(2) 0.13599(8) 0.50933(7)
F1 F 0.7395(3) 0.15960(8) 0.41173(7)
F2 F 0.5092(2) 0.12193(8) 0.42825(9)
O2 O 0.7409(3) 0.04776(8) 0.48792(8)
F3 F 0.7007(4) 0.07536(9) 0.39453(8)
N2 N 0.6676(3) 0.01253(13) 0.80561(11)
C3 C 0.7029(3) -0.01568(11) 0.59397(11)
H4 H 0.6551 -0.0396 0.6197
H5 H 0.6381 -0.0205 0.5631
C4 C 0.7178(3) 0.05070(12) 0.68187(11)
H6 H 0.8257 0.0331 0.6879
H7 H 0.7251 0.0880 0.6951
C5 C 0.4626(3) 0.06635(12) 0.61083(11)
H8 H 0.4057 0.0363 0.6280
H9 H 0.4357 0.1001 0.6289
N3 N 0.8753(3) 0.29530(11) 0.43944(11)
C6 C 1.0441(4) 0.22423(12) 0.64511(11)
H10 H 1.1233 0.2394 0.6208
H11 H 1.0116 0.2537 0.6680
N4 N 0.8952(3) -0.13490(11) 0.56168(11)
C7 C 0.8916(4) -0.09029(13) 0.57168(12)
C8 C 0.5869(4) 0.02018(13) 0.71213(11)
H12 H 0.4801 0.0394 0.7093
H13 H 0.5726 -0.0165 0.6980
C9 C 0.6530(4) 0.27500(12) 0.66572(12)
H14 H 0.7543 0.2914 0.6797
H15 H 0.6236 0.2950 0.6351
C10 C 0.6861(3) 0.21550(11) 0.65285(11)
H16 H 0.5850 0.2005 0.6375
H17 H 0.7043 0.1957 0.6844
N5 N 0.4144(4) 0.28196(11) 0.73022(12)
C11 C 0.5183(4) 0.27966(12) 0.70193(13)
C12 C 0.7311(3) 0.09680(12) 0.48041(11)
C13 C 1.1313(4) 0.17964(13) 0.67531(12)
H18 H 1.1574 0.1491 0.6528
H19 H 1.2370 0.1941 0.6881
N6 N 0.9597(4) 0.14310(11) 0.75005(11)
C14 C 0.8823(4) -0.03232(12) 0.58432(12)
H20 H 0.9278 -0.0106 0.5566
H21 H 0.9494 -0.0251 0.6143
C15 C 0.8352(3) 0.25166(12) 0.56267(11)
H22 H 0.7224 0.2492 0.5488
H23 H 0.8486 0.2881 0.5774
C16 C 0.6317(4) 0.01566(13) 0.76449(13)
C17 C 0.9133(4) 0.27377(12) 0.47507(12)
C18 C 0.9614(4) 0.24431(12) 0.52048(11)
H24 H 1.0704 0.2575 0.5318
H25 H 0.9720 0.2053 0.5127
C19 C 0.6733(4) 0.11371(13) 0.42858(13)
C20 C 1.0347(4) 0.15898(12) 0.71738(12)
C21 C 0.2176(4) 0.08211(11) 0.55985(10)
C22 C 0.3951(3) 0.07055(12) 0.55801(11)
H26 H 0.4529 0.0998 0.5399
H27 H 0.4144 0.0361 0.5401
N7 N 0.0806(3) 0.09156(9) 0.56379(9)
Cu1_2 Cu -0.14965(5) 0.116696(16) 0.579472(16)
N7_2 N 1.0806(3) 0.09156(9) 0.56379(9)
loop_
_geom_bond_atom_site_label_1
_geom_bond_atom_site_label_2
_geom_bond_site_symmetry_1
_geom_bond_site_symmetry_2
C1 N1 1_555 1_555
C2 C1 1_555 1_555
H1 C2 1_555 1_555
H2 C2 1_555 1_555
H3 C2 1_555 1_555
Cu1 P1 1_555 1_555
P1 C6 1_555 1_555
P2 Cu1 1_555 1_555
O1 Cu1 1_555 1_555
F1 C19 1_555 1_555
F2 C19 1_555 1_555
O2 C12 1_555 1_555
F3 C19 1_555 1_555
N2 C16 1_555 1_555
C3 P2 1_555 1_555
H4 C3 1_555 1_555
H5 C3 1_555 1_555
C4 P2 1_555 1_555
H6 C4 1_555 1_555
H7 C4 1_555 1_555
C5 P2 1_555 1_555
H8 C5 1_555 1_555
H9 C5 1_555 1_555
N3 C17 1_555 1_555
C6 H10 1_555 1_555
H11 C6 1_555 1_555
N4 C7 1_555 1_555
C7 C14 1_555 1_555
C8 C4 1_555 1_555
H12 C8 1_555 1_555
H13 C8 1_555 1_555
C9 H14 1_555 1_555
H15 C9 1_555 1_555
C10 P1 1_555 1_555
H16 C10 1_555 1_555
H17 C10 1_555 1_555
N5 C11 1_555 1_555
C11 C9 1_555 1_555
C12 O1 1_555 1_555
C13 C6 1_555 1_555
H18 C13 1_555 1_555
H19 C13 1_555 1_555
N6 C20 1_555 1_555
C14 C3 1_555 1_555
H20 C14 1_555 1_555
H21 C14 1_555 1_555
C15 P1 1_555 1_555
H22 C15 1_555 1_555
H23 C15 1_555 1_555
C16 C8 1_555 1_555
C17 C18 1_555 1_555
C18 C15 1_555 1_555
H24 C18 1_555 1_555
H25 C18 1_555 1_555
C19 C12 1_555 1_555
C20 C13 1_555 1_555
C21 C22 1_555 1_555
C22 C5 1_555 1_555
H26 C22 1_555 1_555
H27 C22 1_555 1_555
N7 C21 1_555 1_555
Cu1_2 N7 1_555 1_555
N7_2 Cu1 1_555 1_555
C9 C10 1_555 1_555

#END
