
#######################################################################
#
#                 Cambridge Crystallographic Data Centre
#                                CCDC 
#
#######################################################################
#
# If this CIF has been generated from an entry in the Cambridge 
# Structural Database, then it will include bibliographic, chemical, 
# crystal, experimental, refinement or atomic coordinate data resulting 
# from the CCDC's data processing and validation procedures.
#
#######################################################################

data_NOKPAF
_symmetry_cell_setting           triclinic
_symmetry_space_group_name_H-M   'P -1'
_symmetry_Int_Tables_number      2
_space_group_name_Hall           '-P 1'
loop_
_symmetry_equiv_pos_site_id
_symmetry_equiv_pos_as_xyz
1 x,y,z
2 -x,-y,-z
_cell_length_a                   9.1986(13)
_cell_length_b                   9.7829(13)
_cell_length_c                   18.149(3)
_cell_angle_alpha                95.493(2)
_cell_angle_beta                 98.009(2)
_cell_angle_gamma                108.077(2)
_cell_volume                     1520.61
loop_
_atom_site_label
_atom_site_type_symbol
_atom_site_fract_x
_atom_site_fract_y
_atom_site_fract_z
Zn1 Zn 0.21940(3) 0.30273(3) 0.087572(17)
Zn2 Zn 0.00837(3) 0.76854(3) 0.249890(16)
Zn3 Zn 0.42385(3) 0.90989(3) 0.289480(17)
Zn4 Zn -0.24088(3) 1.21174(3) 0.409260(17)
O1 O 0.5819(3) 0.4849(3) 0.12069(15)
O2 O 0.3989(2) 0.3128(2) 0.03980(12)
O3 O 0.9150(2) 0.2145(2) 0.09146(11)
O4 O 1.0482(2) 0.2519(2) -0.00046(11)
O5 O -0.0917(2) 1.3521(2) 0.36029(13)
O6 O 0.0634(2) 1.2825(2) 0.44017(12)
O7 O 0.5282(2) 1.1525(2) 0.36582(12)
O8 O 0.6184(3) 1.3792(3) 0.41438(15)
O9 O -0.1399(2) 0.7058(2) 0.14109(11)
H1 H -0.1011 0.7317 0.1028
H2 H -0.2283 0.6398 0.1331
O10 O -0.1520(3) 0.5698(3) 0.27732(17)
H3 H -0.2203 0.5202 0.2397
H4 H -0.1170 0.5229 0.3084
N1 N 0.3097(2) 0.6982(2) 0.22416(13)
N2 N 0.1496(2) 0.6531(2) 0.21017(13)
N3 N 0.2225(3) 0.4840(2) 0.15128(13)
N4 N -0.2341(3) 1.0207(2) 0.35099(13)
N5 N -0.3540(2) 0.9261(2) 0.29894(13)
N6 N -0.1400(2) 0.8743(2) 0.28683(13)
N7 N 0.3093(2) 0.8504(2) 0.37361(12)
N8 N 0.1498(3) 0.8154(3) 0.36167(13)
N9 N 0.2320(3) 0.8051(3) 0.48121(13)
N10 N 0.3082(2) 0.0043(2) 0.22091(12)
N11 N 0.1486(2) -0.0412(2) 0.21260(13)
N12 N 0.2241(2) 0.1463(2) 0.15112(12)
C1 C 0.3466(3) 0.5938(3) 0.18826(17)
H5 H 0.4485 0.5961 0.1885
C2 C 0.1030(3) 0.5266(3) 0.16690(15)
H6 H -0.0008 0.4726 0.1490
C3 C -0.1110(3) 0.9851(3) 0.34136(16)
H7 H -0.0128 1.0328 0.3700
C4 C -0.2915(3) 0.8432(3) 0.26213(18)
H8 H -0.3477 0.7698 0.2226
C5 C 0.1101(3) 0.7903(3) 0.42711(16)
H9 H 0.0080 0.7649 0.4352
C6 C 0.3526(3) 0.8420(3) 0.44431(15)
H10 H 0.4553 0.8596 0.4666
C7 C 0.3480(3) 0.1153(3) 0.18372(15)
H11 H 0.4501 0.1663 0.1804
C8 C 0.1041(3) 0.0465(3) 0.17119(15)
H12 H 0.0008 0.0403 0.1572
C9 C 0.5390(3) 0.3901(3) 0.06491(17)
C10 C 0.6587(3) 0.3607(3) 0.02214(18)
H13 H 0.7605 0.4041 0.0536
H14 H 0.6588 0.4088 -0.0222
C11 C 0.6337(3) 0.2015(3) -0.00230(17)
H15 H 0.5408 0.1612 -0.0406
H16 H 0.6173 0.1496 0.0404
C12 C 0.7713(3) 0.1788(4) -0.03350(17)
H17 H 0.7431 0.0776 -0.0553
H18 H 0.7920 0.2370 -0.0736
C13 C 0.9187(3) 0.2177(3) 0.02417(16)
C14 C 0.0436(3) 1.3528(3) 0.38875(17)
C15 C 0.1763(4) 1.4408(4) 0.3544(2)
H19 H 0.1819 1.5419 0.3626
H20 H 0.1522 1.4091 0.3005
C16 C 0.3348(3) 1.4321(3) 0.3837(2)
H21 H 0.4129 1.5051 0.3648
H22 H 0.3557 1.4540 0.4382
C17 C 0.3485(4) 1.2848(4) 0.3610(2)
H23 H 0.2771 1.2139 0.3842
H24 H 0.3158 1.2588 0.3069
C18 C 0.5078(3) 1.2740(3) 0.38163(16)
Zn1_2 Zn 1.21940(3) 0.30273(3) 0.087572(17)
Zn2_2 Zn 0.00837(3) -0.23146(3) 0.249890(16)
Zn3_2 Zn -0.57615(3) 0.90989(3) 0.289480(17)
Zn3_3 Zn 0.42385(3) -0.09011(3) 0.289480(17)
Zn4_2 Zn 0.75912(3) 1.21174(3) 0.409260(17)
Zn4A Zn 0.24088(3) 0.78826(3) 0.590740(17)
O4_2 O 0.0482(2) 0.2519(2) -0.00046(11)
O7_2 O -0.4718(2) 1.1525(2) 0.36582(12)
O8_2 O -0.3816(3) 1.3792(3) 0.41438(15)
N5_2 N 0.6460(2) 0.9261(2) 0.29894(13)
N9A N -0.2320(3) 1.1949(3) 0.51879(13)
N10_2 N 0.3082(2) 1.0043(2) 0.22091(12)
N11_2 N 0.1486(2) 0.9588(2) 0.21260(13)
O11 O 0.7254(4) 0.2208(5) 0.19946(17)
H25 H 0.7872 0.2519 0.2414
H26 H 0.7651 0.2076 0.1609
O12 O 0.2900(4) 0.3056(5) 0.5707(3)
H27 H 0.2830 0.2489 0.5308
H28 H 0.3283 0.3963 0.5698
loop_
_geom_bond_atom_site_label_1
_geom_bond_atom_site_label_2
_geom_bond_site_symmetry_1
_geom_bond_site_symmetry_2
Zn1 O2 1_555 1_555
Zn2 O9 1_555 1_555
Zn3 O7 1_555 1_555
Zn4 O5 1_555 1_555
O1 C9 1_555 1_555
O2 C9 1_555 1_555
O3 C13 1_555 1_555
O4 C13 1_555 1_555
O5 C14 1_555 1_555
O6 C14 1_555 1_555
O7 C18 1_555 1_555
O8 C18 1_555 1_555
O9 H1 1_555 1_555
H2 O9 1_555 1_555
O10 Zn2 1_555 1_555
H3 O10 1_555 1_555
H4 O10 1_555 1_555
N1 Zn3 1_555 1_555
N2 Zn2 1_555 1_555
N3 Zn1 1_555 1_555
N4 Zn4 1_555 1_555
N5 N4 1_555 1_555
N6 Zn2 1_555 1_555
N7 Zn3 1_555 1_555
N8 Zn2 1_555 1_555
N9 C5 1_555 1_555
N10 N11 1_555 1_555
N11 C8 1_555 1_555
N12 Zn1 1_555 1_555
C1 N1 1_555 1_555
H5 C1 1_555 1_555
C2 N2 1_555 1_555
H6 C2 1_555 1_555
C3 N4 1_555 1_555
H7 C3 1_555 1_555
C4 N5 1_555 1_555
H8 C4 1_555 1_555
C5 N8 1_555 1_555
H9 C5 1_555 1_555
C6 N7 1_555 1_555
H10 C6 1_555 1_555
C7 N10 1_555 1_555
H11 C7 1_555 1_555
C8 N12 1_555 1_555
H12 C8 1_555 1_555
C9 C10 1_555 1_555
C10 H13 1_555 1_555
H14 C10 1_555 1_555
C11 C10 1_555 1_555
H15 C11 1_555 1_555
H16 C11 1_555 1_555
C12 C11 1_555 1_555
H17 C12 1_555 1_555
H18 C12 1_555 1_555
C13 C12 1_555 1_555
C14 C15 1_555 1_555
C15 H19 1_555 1_555
H20 C15 1_555 1_555
C16 C15 1_555 1_555
H21 C16 1_555 1_555
H22 C16 1_555 1_555
C17 C16 1_555 1_555
H23 C17 1_555 1_555
H24 C17 1_555 1_555
C18 C17 1_555 1_555
O11 H25 1_555 1_555
H26 O11 1_555 1_555
O12 H27 1_555 1_555
H28 O12 1_555 1_555
Zn1_2 O4 1_555 1_555
Zn2_2 N11 1_555 1_555
Zn3_2 N5 1_555 1_555
Zn3_3 N10 1_555 1_555
Zn4_2 O7 1_555 1_555
Zn4A N9 1_555 1_555
O4_2 Zn1 1_555 1_555
O7_2 Zn4 1_555 1_555
O8_2 Zn4 1_555 1_555
N5_2 Zn3 1_555 1_555
N9A Zn4 1_555 1_555
N10_2 Zn3 1_555 1_555
N11_2 Zn2 1_555 1_555
O8 Zn4_2 1_555 1_555
N1 N2 1_555 1_555
N3 C1 1_555 1_555
N3 C2 1_555 1_555
N6 C3 1_555 1_555
N6 C4 1_555 1_555
N7 N8 1_555 1_555
N9 C6 1_555 1_555
N12 C7 1_555 1_555
Zn3_2 O7_2 1_555 1_555
N10_2 N11_2 1_555 1_555

#END
