
#######################################################################
#
#                 Cambridge Crystallographic Data Centre
#                                CCDC 
#
#######################################################################
#
# If this CIF has been generated from an entry in the Cambridge 
# Structural Database, then it will include bibliographic, chemical, 
# crystal, experimental, refinement or atomic coordinate data resulting 
# from the CCDC's data processing and validation procedures.
#
#######################################################################

data_NOKTUE
_symmetry_cell_setting           tetragonal
_symmetry_space_group_name_H-M   'P 4 c c'
_symmetry_Int_Tables_number      103
_space_group_name_Hall           'P 4 -2c'
loop_
_symmetry_equiv_pos_site_id
_symmetry_equiv_pos_as_xyz
1 x,y,z
2 -y,x,z
3 -x,-y,z
4 y,-x,z
5 -x,y,1/2+z
6 -y,-x,1/2+z
7 x,-y,1/2+z
8 y,x,1/2+z
_cell_length_a                   23.5124(9)
_cell_length_b                   23.5124(9)
_cell_length_c                   19.7886(11)
_cell_angle_alpha                90
_cell_angle_beta                 90
_cell_angle_gamma                90
_cell_volume                     10939.8
loop_
_atom_site_label
_atom_site_type_symbol
_atom_site_fract_x
_atom_site_fract_y
_atom_site_fract_z
W4 W -0.02310(4) -0.60613(4) 0.01937(5)
W5 W -0.10166(4) -0.46990(4) 0.01896(5)
W6 W 0.13106(4) -0.42349(4) 0.15213(6)
W7 W 0.03074(4) -0.39692(4) 0.27316(5)
W8 W -0.07761(4) -0.36974(4) 0.14083(6)
W9 W 0.10490(4) -0.52294(5) 0.27413(5)
O12 O 0.0463(7) -0.4723(6) 0.1905(7)
O13 O 0.1919(7) -0.3867(6) 0.1359(10)
O14 O 0.0326(8) -0.3443(8) 0.3280(9)
O15 O -0.0270(6) -0.4547(6) 0.1018(7)
O16 O 0.1511(7) -0.5492(8) 0.3327(9)
O17 O -0.0348(7) -0.4393(7) 0.2969(8)
O18 O -0.1211(7) -0.4035(7) 0.0697(9)
O19 O -0.1140(7) -0.3088(6) 0.1521(11)
O20 O 0.1547(7) -0.4746(7) 0.2216(9)
O21 O -0.0589(6) -0.5363(6) -0.0045(8)
O22 O -0.0451(6) -0.4227(7) -0.0229(8)
O23 O -0.0148(7) -0.3655(7) 0.2041(9)
O24 O 0.0773(7) -0.4549(6) 0.3147(8)
O25 O 0.0238(7) -0.6529(8) 0.0708(9)
O26 O -0.1104(7) -0.4212(7) 0.2042(9)
O27 O 0.0965(7) -0.3782(7) 0.2216(9)
O28 O -0.0497(7) -0.6497(7) -0.0416(10)
O29 O -0.1342(6) -0.5153(6) 0.0887(8)
O30 O -0.0788(7) -0.6095(7) 0.0883(8)
O31 O -0.1530(7) -0.4692(7) -0.0423(9)
K2 K 0.0000 -0.5000 -0.1038(7)
P2 P 0.0000 -0.5000 0.1462(6)
O12B O -0.0463(7) -0.5277(6) 0.1905(7)
O15B O 0.0270(6) -0.5453(6) 0.1018(7)
W4B W 0.02310(4) -0.39387(4) 0.01937(5)
W5B W 0.10166(4) -0.53010(4) 0.01896(5)
W6B W -0.13106(4) -0.57651(4) 0.15213(6)
W7B W -0.03074(4) -0.60308(4) 0.27316(5)
W8B W 0.07761(4) -0.63026(4) 0.14083(6)
W9B W -0.10490(4) -0.47706(5) 0.27413(5)
O13B O -0.1919(7) -0.6133(6) 0.1359(10)
O14B O -0.0326(8) -0.6557(8) 0.3280(9)
O16B O -0.1511(7) -0.4508(8) 0.3327(9)
O17B O 0.0348(7) -0.5607(7) 0.2969(8)
O18B O 0.1211(7) -0.5965(7) 0.0697(9)
O19B O 0.1140(7) -0.6912(6) 0.1521(11)
O20B O -0.1547(7) -0.5254(7) 0.2216(9)
O21B O 0.0589(6) -0.4637(6) -0.0045(8)
O22B O 0.0451(6) -0.5773(7) -0.0229(8)
O23B O 0.0148(7) -0.6345(7) 0.2041(9)
O24B O -0.0773(7) -0.5451(6) 0.3147(8)
O25B O -0.0238(7) -0.3471(8) 0.0708(9)
O26B O 0.1104(7) -0.5788(7) 0.2042(9)
O27B O -0.0965(7) -0.6218(7) 0.2216(9)
O28B O 0.0497(7) -0.3503(7) -0.0416(10)
O29B O 0.1342(6) -0.4847(6) 0.0887(8)
O30B O 0.0788(7) -0.3905(7) 0.0883(8)
O31B O 0.1530(7) -0.5308(7) -0.0423(9)
O17D O 0.0348(7) -0.4393(7) -0.2031(8)
O17F O -0.0348(7) -0.5607(7) -0.2031(8)
O24D O -0.0773(7) -0.4549(6) -0.1853(8)
O24F O 0.0773(7) -0.5451(6) -0.1853(8)
K2D K 0.0000 -0.5000 0.3962(7)
Zn1 Zn -0.25550(12) -0.23862(12) 0.26316(16)
S1 S -0.0569(3) -0.2219(3) 0.2551(4)
S2 S -0.2590(3) -0.1078(4) 0.4482(5)
S3 S -0.2459(4) -0.0776(4) 0.1161(5)
N1 N -0.2560(8) -0.1662(8) 0.1896(11)
N2 N -0.2635(10) -0.2730(11) 0.0565(12)
N3 N -0.4134(9) -0.2137(9) 0.3593(11)
N4 N -0.2629(9) -0.1750(8) 0.3502(11)
N5 N -0.1620(9) -0.2305(9) 0.2667(11)
N6 N -0.1655(11) -0.3385(11) 0.4053(13)
N7 N -0.3436(8) -0.2397(8) 0.2865(10)
N8 N -0.2328(9) -0.3040(9) 0.3367(11)
N9 N -0.2545(9) -0.2799(8) 0.1705(11)
C1 C -0.2526(12) -0.3854(13) 0.1730(16)
H1 H -0.2485 -0.3886 0.2196
C2 C -0.2576(10) -0.3354(11) 0.1460(14)
C3 C -0.1400(10) -0.2690(10) 0.3106(13)
C4 C -0.4348(11) -0.2564(11) 0.3130(12)
C5 C -0.2610(11) -0.3326(14) 0.0702(14)
C6 C -0.0811(10) -0.2689(11) 0.3094(12)
H2 H -0.0583 -0.2923 0.3359
C7 C -0.2275(13) -0.3997(13) 0.4780(14)
H3 H -0.1990 -0.4151 0.5048
C8 C -0.2157(12) -0.3612(9) 0.4260(14)
C9 C -0.2534(14) -0.4344(15) 0.1335(19)
H4 H -0.2499 -0.4699 0.1537
C10 C -0.2550(10) -0.1860(10) 0.1243(11)
C11 C -0.3995(11) -0.3153(10) 0.2245(14)
H5 H -0.3715 -0.3268 0.1942
C12 C -0.3897(10) -0.2704(10) 0.2712(14)
C13 C -0.3569(9) -0.2069(10) 0.3382(10)
C14 C -0.2506(10) -0.1115(11) 0.1956(16)
H6 H -0.2493 -0.0925 0.2368
C15 C -0.4885(11) -0.2812(11) 0.3150(16)
H7 H -0.5168 -0.2696 0.3448
C16 C -0.4959(13) -0.3243(14) 0.2692(17)
H8 H -0.5310 -0.3424 0.2675
C17 C -0.3255(14) -0.3911(13) 0.450(2)
H9 H -0.3631 -0.4001 0.4604
C18 C -0.3182(11) -0.1735(10) 0.3736(12)
C19 C -0.2296(12) -0.1433(12) 0.3826(15)
H10 H -0.1914 -0.1397 0.3714
C20 C -0.3229(12) -0.1392(11) 0.4271(15)
H11 H -0.3567 -0.1330 0.4503
C21 C -0.1797(10) -0.3062(10) 0.3509(13)
C22 C -0.2576(10) -0.3416(12) 0.3818(12)
C23 C -0.2577(12) -0.2451(13) 0.1195(15)
C24 C -0.2594(13) -0.4299(14) 0.0621(17)
H12 H -0.2610 -0.4633 0.0371
C25 C -0.2853(17) -0.4135(17) 0.487(2)
H13 H -0.2951 -0.4395 0.5207
C26 C -0.2530(12) -0.1406(12) 0.0769(17)
H14 H -0.2552 -0.1452 0.0303
C27 C -0.1240(11) -0.2041(11) 0.2354(13)
H15 H -0.1324 -0.1765 0.2033
C28 C -0.4539(14) -0.3420(13) 0.2258(17)
H16 H -0.4612 -0.3721 0.1965
C29 C -0.3149(14) -0.3544(12) 0.3966(15)
H17 H -0.3445 -0.3388 0.3715
C30 C -0.2629(13) -0.3799(13) 0.0287(16)
H18 H -0.2663 -0.3775 -0.0181
W1 W -0.05095(4) -0.14262(4) 0.44459(7)
W2 W 0.04570(5) -0.09721(5) 0.57147(6)
W3 W -0.09699(4) -0.04552(4) 0.31658(5)
P1 P 0.0000 0.0000 0.4440(6)
O1 O 0.0656(10) -0.1432(10) 0.6308(10)
O2 O -0.0756(8) -0.2095(7) 0.4433(13)
O3 O -0.1425(7) -0.0683(9) 0.2568(11)
O4 O -0.0271(9) -0.0756(10) 0.2833(11)
O5 O -0.0171(14) -0.0501(13) 0.4878(17)
O6 O -0.0989(9) -0.1080(12) 0.5111(13)
O7 O -0.0954(8) -0.1071(10) 0.3785(11)
O8 O 0.0066(9) -0.1451(10) 0.5093(12)
O9 O -0.0257(8) -0.0733(13) 0.6036(12)
O10 O 0.0071(9) -0.1457(11) 0.3780(12)
K1 K 0.0000 0.0000 0.1944(7)
O11 O -0.0476(12) 0.0177(14) 0.3988(18)
O5A O 0.0501(13) -0.0171(14) 0.4878(17)
O11A O -0.0177(14) -0.0476(12) 0.3988(18)
O5B O 0.0171(14) 0.0501(13) 0.4878(17)
O11B O 0.0476(12) -0.0177(14) 0.3988(18)
O5C O -0.0501(13) 0.0171(14) 0.4878(17)
O11C O 0.0177(14) 0.0476(12) 0.3988(18)
W1A W 0.14262(4) -0.05095(4) 0.44459(7)
W2A W 0.09721(5) 0.04570(5) 0.57147(6)
W3A W 0.04552(4) -0.09699(4) 0.31658(5)
O1A O 0.1432(10) 0.0656(10) 0.6308(10)
O2A O 0.2095(7) -0.0756(8) 0.4433(13)
O3A O 0.0683(9) -0.1425(7) 0.2568(11)
O4A O 0.0756(10) -0.0271(9) 0.2833(11)
O6A O 0.1080(12) -0.0989(9) 0.5111(13)
O7A O 0.1071(10) -0.0954(8) 0.3785(11)
O8A O 0.1451(10) 0.0066(9) 0.5093(12)
O9A O 0.0733(13) -0.0257(8) 0.6036(12)
O10A O 0.1457(11) 0.0071(9) 0.3780(12)
W1B W 0.05095(4) 0.14262(4) 0.44459(7)
W2B W -0.04570(5) 0.09721(5) 0.57147(6)
W3B W 0.09699(4) 0.04552(4) 0.31658(5)
O1B O -0.0656(10) 0.1432(10) 0.6308(10)
O2B O 0.0756(8) 0.2095(7) 0.4433(13)
O3B O 0.1425(7) 0.0683(9) 0.2568(11)
O4B O 0.0271(9) 0.0756(10) 0.2833(11)
O6B O 0.0989(9) 0.1080(12) 0.5111(13)
O7B O 0.0954(8) 0.1071(10) 0.3785(11)
O8B O -0.0066(9) 0.1451(10) 0.5093(12)
O9B O 0.0257(8) 0.0733(13) 0.6036(12)
O10B O -0.0071(9) 0.1457(11) 0.3780(12)
W1C W -0.14262(4) 0.05095(4) 0.44459(7)
W2C W -0.09721(5) -0.04570(5) 0.57147(6)
W3C W -0.04552(4) 0.09699(4) 0.31658(5)
O1C O -0.1432(10) -0.0656(10) 0.6308(10)
O2C O -0.2095(7) 0.0756(8) 0.4433(13)
O3C O -0.0683(9) 0.1425(7) 0.2568(11)
O4C O -0.0756(10) 0.0271(9) 0.2833(11)
O6C O -0.1080(12) 0.0989(9) 0.5111(13)
O7C O -0.1071(10) 0.0954(8) 0.3785(11)
O8C O -0.1451(10) -0.0066(9) 0.5093(12)
O9C O -0.0733(13) 0.0257(8) 0.6036(12)
O10C O -0.1457(11) -0.0071(9) 0.3780(12)
O9D O 0.0257(8) -0.0733(13) 0.1036(12)
O9E O 0.0733(13) 0.0257(8) 0.1036(12)
O9F O -0.0257(8) 0.0733(13) 0.1036(12)
O9G O -0.0733(13) -0.0257(8) 0.1036(12)
K1D K 0.0000 0.0000 0.6944(7)
loop_
_geom_bond_atom_site_label_1
_geom_bond_atom_site_label_2
_geom_bond_site_symmetry_1
_geom_bond_site_symmetry_2
W1 O2 1_555 1_555
W2 O1 1_555 1_555
W3 O3 1_555 1_555
P1 O5 1_555 1_555
O4 W3 1_555 1_555
O5 W1 1_555 1_555
O6 W1 1_555 1_555
O7 W1 1_555 1_555
O8 W1 1_555 1_555
O9 W2 1_555 1_555
O10 W1 1_555 1_555
K1 O4 1_555 1_555
O11 W3 1_555 1_555
W4 O21 1_555 1_555
W5 O15 1_555 1_555
W6 O12 1_555 1_555
W7 O12 1_555 1_555
W8 O15 1_555 1_555
W9 O12 1_555 1_555
O12 P2 1_555 1_555
O13 W6 1_555 1_555
O14 W7 1_555 1_555
O15 P2 1_555 1_555
O16 W9 1_555 1_555
O17 W7 1_555 1_555
O18 W5 1_555 1_555
O19 W8 1_555 1_555
O20 W6 1_555 1_555
O21 W5 1_555 1_555
O22 W5 1_555 1_555
O23 W7 1_555 1_555
O24 W7 1_555 1_555
O25 W4 1_555 1_555
O26 W8 1_555 1_555
O27 W6 1_555 1_555
O28 W4 1_555 1_555
O29 W5 1_555 1_555
O30 W4 1_555 1_555
O31 W5 1_555 1_555
K2 O21 1_555 1_555
P2 O12B 1_555 1_555
Zn1 N1 1_555 1_555
S1 C6 1_555 1_555
S2 C19 1_555 1_555
S3 C14 1_555 1_555
N1 C10 1_555 1_555
N2 C5 1_555 1_555
N3 C4 1_555 1_555
N4 Zn1 1_555 1_555
N5 Zn1 1_555 1_555
N6 C8 1_555 1_555
N7 Zn1 1_555 1_555
N8 Zn1 1_555 1_555
N9 Zn1 1_555 1_555
C1 H1 1_555 1_555
C2 N9 1_555 1_555
C3 N5 1_555 1_555
C4 C12 1_555 1_555
C5 C2 1_555 1_555
C6 C3 1_555 1_555
H2 C6 1_555 1_555
C7 H3 1_555 1_555
C8 C7 1_555 1_555
C9 C1 1_555 1_555
H4 C9 1_555 1_555
C10 C23 1_555 1_555
C11 H5 1_555 1_555
C12 N7 1_555 1_555
C13 N3 1_555 1_555
C14 N1 1_555 1_555
H6 C14 1_555 1_555
C15 C4 1_555 1_555
H7 C15 1_555 1_555
C16 C15 1_555 1_555
H8 C16 1_555 1_555
C17 H9 1_555 1_555
C18 N4 1_555 1_555
C19 N4 1_555 1_555
H10 C19 1_555 1_555
C20 S2 1_555 1_555
H11 C20 1_555 1_555
C21 N6 1_555 1_555
C22 N8 1_555 1_555
C23 N2 1_555 1_555
C24 C9 1_555 1_555
H12 C24 1_555 1_555
C25 C7 1_555 1_555
H13 C25 1_555 1_555
C26 S3 1_555 1_555
H14 C26 1_555 1_555
C27 S1 1_555 1_555
H15 C27 1_555 1_555
C28 C11 1_555 1_555
H16 C28 1_555 1_555
C29 C17 1_555 1_555
H17 C29 1_555 1_555
C30 C5 1_555 1_555
H18 C30 1_555 1_555
O5A P1 1_555 1_555
O11A W3 1_555 1_555
O5B P1 1_555 1_555
O11B P1 1_555 1_555
O5C P1 1_555 1_555
O11C P1 1_555 1_555
W1A O5A 1_555 1_555
W2A O5A 1_555 1_555
W3A O4 1_555 1_555
O1A W2A 1_555 1_555
O2A W1A 1_555 1_555
O3A W3A 1_555 1_555
O4A K1 1_555 1_555
O6A W2 1_555 1_555
O7A W1A 1_555 1_555
O8A W1A 1_555 1_555
O9A W2 1_555 1_555
O10A W1A 1_555 1_555
W1B O5B 1_555 1_555
W2B O5B 1_555 1_555
W3B O11B 1_555 1_555
O1B W2B 1_555 1_555
O2B W1B 1_555 1_555
O3B W3B 1_555 1_555
O4B K1 1_555 1_555
O6B W2A 1_555 1_555
O7B W1B 1_555 1_555
O8B W1B 1_555 1_555
O9B W2A 1_555 1_555
O10B W1B 1_555 1_555
W1C O5C 1_555 1_555
W2C O6 1_555 1_555
W3C O11 1_555 1_555
O1C W2C 1_555 1_555
O2C W1C 1_555 1_555
O3C W3C 1_555 1_555
O4C W3 1_555 1_555
O6C W2B 1_555 1_555
O7C W1C 1_555 1_555
O8C W1C 1_555 1_555
O9C W2B 1_555 1_555
O10C W3 1_555 1_555
O9D K1 1_555 1_555
O9E K1 1_555 1_555
O9F K1 1_555 1_555
O9G K1 1_555 1_555
K1D O9 1_555 1_555
O12B W6B 1_555 1_555
O15B W4 1_555 1_555
W4B O15 1_555 1_555
W5B O15B 1_555 1_555
W6B O29 1_555 1_555
W7B O12B 1_555 1_555
W8B O25 1_555 1_555
W9B O17 1_555 1_555
O13B W6B 1_555 1_555
O14B W7B 1_555 1_555
O16B W9B 1_555 1_555
O17B W9 1_555 1_555
O18B W5B 1_555 1_555
O19B W8B 1_555 1_555
O20B W6B 1_555 1_555
O21B K2 1_555 1_555
O22B W4 1_555 1_555
O23B W7B 1_555 1_555
O24B W7B 1_555 1_555
O25B W8 1_555 1_555
O26B W9 1_555 1_555
O27B W6B 1_555 1_555
O28B W4B 1_555 1_555
O29B W6 1_555 1_555
O30B W6 1_555 1_555
O31B W5B 1_555 1_555
O17D K2 1_555 1_555
O17F K2 1_555 1_555
O24D K2 1_555 1_555
O24F K2 1_555 1_555
K2D O17 1_555 1_555
W2 O5 1_555 1_555
W2 O8 1_555 1_555
W3 O7 1_555 1_555
P1 O11 1_555 1_555
P1 O11A 1_555 1_555
O5 O5A 1_555 1_555
O5 O11A 1_555 1_555
O5 O5C 1_555 1_555
O9 W2C 1_555 1_555
O10 W3A 1_555 1_555
K1 O4C 1_555 1_555
O11 O11A 1_555 1_555
O11 O5C 1_555 1_555
O11 O11C 1_555 1_555
W7 O27 1_555 1_555
W8 O18 1_555 1_555
W8 O23 1_555 1_555
W9 O20 1_555 1_555
W9 O24 1_555 1_555
O22 K2 1_555 1_555
O22 W4B 1_555 1_555
O24 K2D 1_555 1_555
O26 W9B 1_555 1_555
O30 W6B 1_555 1_555
K2 O22B 1_555 1_555
P2 O15B 1_555 1_555
N5 C27 1_555 1_555
N7 C13 1_555 1_555
N8 C21 1_555 1_555
N9 C23 1_555 1_555
C1 C2 1_555 1_555
C3 C21 1_555 1_555
C8 C22 1_555 1_555
C10 C26 1_555 1_555
C11 C12 1_555 1_555
C13 C18 1_555 1_555
C16 C28 1_555 1_555
C17 C25 1_555 1_555
C18 C20 1_555 1_555
C22 C29 1_555 1_555
C24 C30 1_555 1_555
O5A O5B 1_555 1_555
O5A O11B 1_555 1_555
O11A O11B 1_555 1_555
O11A W3A 1_555 1_555
O5B O5C 1_555 1_555
O5B O11C 1_555 1_555
O11B O11C 1_555 1_555
O11B W3A 1_555 1_555
O5C W2C 1_555 1_555
O11C W3B 1_555 1_555
O11C W3C 1_555 1_555
W1A O6A 1_555 1_555
W2A O8A 1_555 1_555
W2A O9A 1_555 1_555
W3A O4A 1_555 1_555
W3A O7A 1_555 1_555
O4A W3B 1_555 1_555
O9A K1D 1_555 1_555
O10A W3B 1_555 1_555
W1B O6B 1_555 1_555
W2B O8B 1_555 1_555
W2B O9B 1_555 1_555
W3B O4B 1_555 1_555
W3B O7B 1_555 1_555
O4B W3C 1_555 1_555
O9B K1D 1_555 1_555
O10B W3C 1_555 1_555
W1C O6C 1_555 1_555
W1C O10C 1_555 1_555
W2C O8C 1_555 1_555
W2C O9C 1_555 1_555
W3C O4C 1_555 1_555
W3C O7C 1_555 1_555
O9C K1D 1_555 1_555
O12B W9B 1_555 1_555
O15B W8B 1_555 1_555
W4B O21B 1_555 1_555
W4B O25B 1_555 1_555
W4B O30B 1_555 1_555
W5B O21B 1_555 1_555
W5B O22B 1_555 1_555
W5B O29B 1_555 1_555
W7B O17B 1_555 1_555
W7B O27B 1_555 1_555
W8B O18B 1_555 1_555
W8B O23B 1_555 1_555
W8B O26B 1_555 1_555
W9B O20B 1_555 1_555
W9B O24B 1_555 1_555
O17B K2D 1_555 1_555
O24B K2D 1_555 1_555

#END
