
#######################################################################
#
#                 Cambridge Crystallographic Data Centre
#                                CCDC 
#
#######################################################################
#
# If this CIF has been generated from an entry in the Cambridge 
# Structural Database, then it will include bibliographic, chemical, 
# crystal, experimental, refinement or atomic coordinate data resulting 
# from the CCDC's data processing and validation procedures.
#
#######################################################################

data_NOKYET
_symmetry_cell_setting           tetragonal
_symmetry_space_group_name_H-M   'P 41'
_symmetry_Int_Tables_number      76
_space_group_name_Hall           'P 4w'
loop_
_symmetry_equiv_pos_site_id
_symmetry_equiv_pos_as_xyz
1 x,y,z
2 -x,-y,1/2+z
3 -y,x,1/4+z
4 y,-x,3/4+z
_cell_length_a                   6.0415(9)
_cell_length_b                   6.0415(9)
_cell_length_c                   36.516(7)
_cell_angle_alpha                90
_cell_angle_beta                 90
_cell_angle_gamma                90
_cell_volume                     1332.82
loop_
_atom_site_label
_atom_site_type_symbol
_atom_site_fract_x
_atom_site_fract_y
_atom_site_fract_z
Tb1 Tb 0.82008(4) 0.32005(4) 0.17143(4)
C1 C 0.7297(15) -0.1700(10) 0.1366(2)
C2 C 0.6761(10) -0.0421(10) 0.10199(17)
H1 H 0.7976 -0.0612 0.0845
C3 C 0.4629(11) -0.1282(11) 0.0848(2)
H2 H 0.4821 -0.2868 0.0802
C4 C 0.4234(14) -0.0143(13) 0.0478(2)
O1 O 0.7983(8) -0.0630(7) 0.16359(11)
O2 O 0.7187(9) -0.3766(8) 0.13505(14)
O3 O 0.6614(10) 0.1880(8) 0.1119(3)
H3 H 0.6891 0.2690 0.0926
O4 O 0.2843(9) -0.1033(11) 0.10906(18)
H4 H 0.1971 -0.2090 0.1009
O5 O 0.2576(10) 0.0996(10) 0.04335(16)
O6 O 0.5751(11) -0.0533(10) 0.02440(17)
C5 C 0.3302(11) 0.2372(14) 0.2065(2)
C6 C 0.4612(10) 0.1766(10) 0.24072(17)
H5 H 0.4426 0.2962 0.2586
C7 C 0.3732(10) -0.0379(11) 0.2580(2)
H6 H 0.2147 -0.0170 0.2625
C8 C 0.4843(12) -0.0780(14) 0.2949(2)
O7 O 0.4398(7) 0.3025(8) 0.17943(12)
O8 O 0.1250(8) 0.2218(8) 0.20759(14)
O9 O 0.6875(8) 0.1642(9) 0.2316(3)
H7 H 0.7639 0.1998 0.2509
O10 O 0.3954(11) -0.2158(9) 0.23355(19)
H8 H 0.5220 -0.2826 0.2295
O11 O 0.6024(10) -0.2409(10) 0.29975(15)
O12 O 0.4461(10) 0.0728(11) 0.31827(17)
H9 H 0.5527 0.0889 0.3346
O13 O 1.1164(11) 0.3084(11) 0.12768(18)
H10 H 1.2267 0.3334 0.1416
H11 H 1.1460 0.1798 0.1196
O14 O 1.142(2) 0.6354(16) 0.1733(5)
H12 H 1.2306 0.6223 0.1550
H13 H 1.1391 0.7332 0.1909
O15 O 0.8064(12) 0.6186(11) 0.21548(19)
H14 H 0.8854 0.5780 0.2337
H15 H 0.8328 0.7548 0.2098
Tb1_2 Tb -0.17992(4) 0.32005(4) 0.17143(4)
Tb1_3 Tb 0.82008(4) -0.67995(4) 0.17143(4)
O2_2 O 0.7187(9) 0.6234(8) 0.13505(14)
O8_2 O 1.1250(8) 0.2218(8) 0.20759(14)
loop_
_geom_bond_atom_site_label_1
_geom_bond_atom_site_label_2
_geom_bond_site_symmetry_1
_geom_bond_site_symmetry_2
Tb1 O1 1_555 1_555
C1 C2 1_555 1_555
C2 H1 1_555 1_555
C3 C2 1_555 1_555
H2 C3 1_555 1_555
C4 C3 1_555 1_555
O1 C1 1_555 1_555
O2 C1 1_555 1_555
O3 Tb1 1_555 1_555
H3 O3 1_555 1_555
O4 C3 1_555 1_555
H4 O4 1_555 1_555
O5 C4 1_555 1_555
O6 C4 1_555 1_555
C5 C6 1_555 1_555
C6 H5 1_555 1_555
C7 C6 1_555 1_555
H6 C7 1_555 1_555
C8 C7 1_555 1_555
O7 Tb1 1_555 1_555
O8 C5 1_555 1_555
O9 Tb1 1_555 1_555
H7 O9 1_555 1_555
O10 C7 1_555 1_555
H8 O10 1_555 1_555
O11 C8 1_555 1_555
O12 C8 1_555 1_555
H9 O12 1_555 1_555
O13 Tb1 1_555 1_555
H10 O13 1_555 1_555
H11 O13 1_555 1_555
O14 Tb1 1_555 1_555
H12 O14 1_555 1_555
H13 O14 1_555 1_555
O15 Tb1 1_555 1_555
H14 O15 1_555 1_555
H15 O15 1_555 1_555
Tb1_2 O8 1_555 1_555
Tb1_3 O2 1_555 1_555
O2_2 Tb1 1_555 1_555
O8_2 Tb1 1_555 1_555
C2 O3 1_555 1_555
C5 O7 1_555 1_555
C6 O9 1_555 1_555

#END
