
#######################################################################
#
#                 Cambridge Crystallographic Data Centre
#                                CCDC 
#
#######################################################################
#
# If this CIF has been generated from an entry in the Cambridge 
# Structural Database, then it will include bibliographic, chemical, 
# crystal, experimental, refinement or atomic coordinate data resulting 
# from the CCDC's data processing and validation procedures.
#
#######################################################################

data_NOLBEX
_symmetry_cell_setting           orthorhombic
_symmetry_space_group_name_H-M   'P b c n'
_symmetry_Int_Tables_number      60
_space_group_name_Hall           '-P 2n 2ab'
loop_
_symmetry_equiv_pos_site_id
_symmetry_equiv_pos_as_xyz
1 x,y,z
2 1/2-x,1/2-y,1/2+z
3 1/2+x,1/2-y,-z
4 -x,y,1/2-z
5 -x,-y,-z
6 1/2+x,1/2+y,1/2-z
7 1/2-x,1/2+y,z
8 x,-y,1/2+z
_cell_length_a                   26.2190(4)
_cell_length_b                   12.6840(4)
_cell_length_c                   6.8960(18)
_cell_angle_alpha                90
_cell_angle_beta                 90
_cell_angle_gamma                90
_cell_volume                     2293.35
loop_
_atom_site_label
_atom_site_type_symbol
_atom_site_fract_x
_atom_site_fract_y
_atom_site_fract_z
Mn1 Mn 0.0000 0.12252(3) -0.2500
O1 O 0.03836(4) 0.13351(9) 0.03143(17)
O2 O 0.05925(4) -0.02515(9) 0.15022(18)
O3 O 0.23019(5) -0.09336(10) 0.3556(2)
O4 O 0.27971(5) 0.03325(11) 0.4471(2)
N1 N -0.04817(5) 0.26890(10) -0.18440(19)
N2 N 0.24004(5) 0.00060(12) 0.3744(2)
C1 C 0.06805(6) 0.07019(13) 0.1143(2)
C2 C 0.11982(6) 0.11048(13) 0.1742(2)
C3 C 0.15499(6) 0.04044(12) 0.2509(2)
H1 H 0.1466 -0.0319 0.2663
C4 C 0.20231(6) 0.07746(13) 0.3043(2)
C5 C 0.21622(7) 0.18239(14) 0.2882(2)
H2 H 0.2488 0.2062 0.3300
C6 C 0.18112(7) 0.25127(14) 0.2094(3)
H3 H 0.1897 0.3236 0.1945
C7 C 0.13340(6) 0.21591(13) 0.1516(2)
H4 H 0.1098 0.2640 0.0961
C8 C -0.02774(6) 0.36363(12) -0.2270(2)
C9 C -0.05671(7) 0.45525(14) -0.2278(3)
H5 H -0.0415 0.5212 -0.2582
C10 C -0.10801(7) 0.44857(15) -0.1837(3)
H6 H -0.1287 0.5101 -0.1851
C11 C -0.12901(7) 0.35228(14) -0.1378(3)
H7 H -0.1641 0.3463 -0.1055
C12 C -0.09772(6) 0.26454(14) -0.1398(2)
H8 H -0.1121 0.1980 -0.1080
N1C N 0.04817(5) 0.26890(10) -0.31560(19)
C8C C 0.02774(6) 0.36363(12) -0.2730(2)
C9C C 0.05671(7) 0.45525(14) -0.2722(3)
H5C H 0.0415 0.5212 -0.2418
C10C C 0.10801(7) 0.44857(15) -0.3163(3)
H6C H 0.1287 0.5101 -0.3149
C11C C 0.12901(7) 0.35228(14) -0.3622(3)
H7C H 0.1641 0.3463 -0.3945
C12C C 0.09772(6) 0.26454(14) -0.3602(2)
H8C H 0.1121 0.1980 -0.3920
O1C O -0.03836(4) 0.13351(9) -0.53143(17)
O2C O -0.05925(4) -0.02515(9) -0.65022(18)
O3C O -0.23019(5) -0.09336(10) -0.8556(2)
O4C O -0.27971(5) 0.03325(11) -0.9471(2)
N2C N -0.24004(5) 0.00060(12) -0.8744(2)
C1C C -0.06805(6) 0.07019(13) -0.6143(2)
C2C C -0.11982(6) 0.11048(13) -0.6742(2)
C3C C -0.15499(6) 0.04044(12) -0.7509(2)
H1C H -0.1466 -0.0319 -0.7663
C4C C -0.20231(6) 0.07746(13) -0.8043(2)
C5C C -0.21622(7) 0.18239(14) -0.7882(2)
H2C H -0.2488 0.2062 -0.8300
C6C C -0.18112(7) 0.25127(14) -0.7094(3)
H3C H -0.1897 0.3236 -0.6945
C7C C -0.13340(6) 0.21591(13) -0.6516(2)
H4C H -0.1098 0.2640 -0.5961
Mn1D Mn 0.0000 -0.12252(3) -0.7500
Mn1D_2 Mn 0.0000 -0.12252(3) 0.2500
O2D O -0.05925(4) 0.02515(9) -0.15022(18)
O2G O 0.05925(4) 0.02515(9) -0.34978(18)
O5 O 0.0000 0.30960(13) 0.2500
H9 H -0.0123 0.2670 0.3306
H9C H 0.0123 0.2670 0.1694
loop_
_geom_bond_atom_site_label_1
_geom_bond_atom_site_label_2
_geom_bond_site_symmetry_1
_geom_bond_site_symmetry_2
Mn1 O1 1_555 1_555
O1 C1 1_555 1_555
O2 C1 1_555 1_555
O3 N2 1_555 1_555
O4 N2 1_555 1_555
N1 Mn1 1_555 1_555
N2 C4 1_555 1_555
C1 C2 1_555 1_555
C2 C3 1_555 1_555
C3 H1 1_555 1_555
C4 C3 1_555 1_555
C5 C4 1_555 1_555
H2 C5 1_555 1_555
C6 C5 1_555 1_555
H3 C6 1_555 1_555
C7 C2 1_555 1_555
H4 C7 1_555 1_555
C8 N1 1_555 1_555
C9 C8 1_555 1_555
H5 C9 1_555 1_555
C10 C9 1_555 1_555
H6 C10 1_555 1_555
C11 C10 1_555 1_555
H7 C11 1_555 1_555
C12 N1 1_555 1_555
H8 C12 1_555 1_555
O5 H9 1_555 1_555
N1C Mn1 1_555 1_555
C8C C8 1_555 1_555
C9C C8C 1_555 1_555
H5C C9C 1_555 1_555
C10C C9C 1_555 1_555
H6C C10C 1_555 1_555
C11C C10C 1_555 1_555
H7C C11C 1_555 1_555
C12C N1C 1_555 1_555
H8C C12C 1_555 1_555
O1C Mn1 1_555 1_555
O2C C1C 1_555 1_555
O3C N2C 1_555 1_555
O4C N2C 1_555 1_555
N2C C4C 1_555 1_555
C1C O1C 1_555 1_555
C2C C1C 1_555 1_555
C3C C2C 1_555 1_555
H1C C3C 1_555 1_555
C4C C3C 1_555 1_555
C5C C4C 1_555 1_555
H2C C5C 1_555 1_555
C6C C5C 1_555 1_555
H3C C6C 1_555 1_555
C7C C2C 1_555 1_555
H4C C7C 1_555 1_555
Mn1D O2C 1_555 1_555
Mn1D_2 O2 1_555 1_555
O2D Mn1 1_555 1_555
O2G Mn1 1_555 1_555
H9C O5 1_555 1_555
C6 C7 1_555 1_555
C11 C12 1_555 1_555
N1C C8C 1_555 1_555
C11C C12C 1_555 1_555
C6C C7C 1_555 1_555

#END
