
#######################################################################
#
#                 Cambridge Crystallographic Data Centre
#                                CCDC 
#
#######################################################################
#
# If this CIF has been generated from an entry in the Cambridge 
# Structural Database, then it will include bibliographic, chemical, 
# crystal, experimental, refinement or atomic coordinate data resulting 
# from the CCDC's data processing and validation procedures.
#
#######################################################################

data_NOLRIR
_symmetry_cell_setting           monoclinic
_symmetry_space_group_name_H-M   'C 2/c'
_symmetry_Int_Tables_number      15
_space_group_name_Hall           '-C 2yn'
loop_
_symmetry_equiv_pos_site_id
_symmetry_equiv_pos_as_xyz
1 x,y,z
2 -x,y,1/2-z
3 1/2+x,1/2+y,z
4 1/2-x,1/2+y,1/2-z
5 -x,-y,-z
6 x,-y,1/2+z
7 1/2-x,1/2-y,-z
8 1/2+x,1/2-y,1/2+z
_cell_length_a                   19.524(4)
_cell_length_b                   10.049(2)
_cell_length_c                   25.359(5)
_cell_angle_alpha                90
_cell_angle_beta                 95.409(4)
_cell_angle_gamma                90
_cell_volume                     4953.2
loop_
_atom_site_label
_atom_site_type_symbol
_atom_site_fract_x
_atom_site_fract_y
_atom_site_fract_z
Cd1 Cd 0.589277(18) 1.04870(3) 0.983691(14)
Cd2 Cd 0.7500 1.2500 1.0000
O1 O 0.68891(19) 1.1072(4) 0.94280(13)
O2 O 0.60674(19) 1.0125(5) 0.89424(14)
O3 O 1.02415(17) 0.5832(3) 0.54768(13)
O4 O 1.10823(17) 0.6675(3) 0.50662(13)
O5 O 1.07473(18) 1.2824(3) 0.53538(12)
O6 O 1.15180(16) 1.1438(4) 0.50677(14)
O7 O 0.7782(2) 1.4123(4) 0.94248(16)
C1 C 0.6659(2) 1.0598(5) 0.89936(18)
C2 C 0.7090(2) 1.0520(5) 0.85408(18)
C3 C 0.6864(3) 0.9852(6) 0.80831(18)
H1 H 0.6427 0.9475 0.8044
C4 C 0.7292(3) 0.9748(6) 0.7683(2)
H2 H 0.7134 0.9303 0.7373
C5 C 0.7954(3) 1.0286(5) 0.77246(18)
C6 C 0.8171(3) 1.0975(6) 0.8181(2)
H3 H 0.8604 1.1366 0.8218
C7 C 0.7736(3) 1.1085(7) 0.8589(2)
H4 H 0.7886 1.1546 0.8896
C8 C 0.8416(2) 1.0147(5) 0.72875(19)
C9 C 0.8335(3) 0.9106(5) 0.6923(2)
H5 H 0.7975 0.8509 0.6943
C10 C 0.8775(3) 0.8941(5) 0.65374(19)
H6 H 0.8716 0.8218 0.6308
C11 C 0.9311(2) 0.9843(5) 0.64821(18)
C12 C 0.9360(3) 1.0876(5) 0.6838(2)
H7 H 0.9711 1.1492 0.6814
C13 C 0.8926(3) 1.1064(5) 0.7229(2)
H8 H 0.8977 1.1802 0.7450
C14 C 0.9813(2) 0.9634(5) 0.60852(17)
C15 C 0.9980(2) 0.8356(5) 0.59157(17)
H9 H 0.9766 0.7619 0.6049
C16 C 1.0461(2) 0.8173(5) 0.55509(17)
C17 C 1.0797(2) 0.9259(4) 0.53749(18)
H10 H 1.1142 0.9134 0.5151
C18 C 1.0636(2) 1.0539(5) 0.55232(17)
C19 C 1.0149(2) 1.0719(4) 0.58816(18)
H11 H 1.0045 1.1576 0.5988
C20 C 1.0599(2) 0.6801(5) 0.53544(18)
C21 C 1.0993(2) 1.1707(5) 0.52976(18)
C22 C 0.7469(4) 1.5203(7) 0.9416(3)
H12 H 0.7144 1.5331 0.9657
N1 N 0.7573(2) 1.6175(5) 0.90845(18)
C23 C 0.7186(5) 1.7371(9) 0.9137(4)
H13 H 0.6836 1.7215 0.9372
H14 H 0.6975 1.7636 0.8796
H15 H 0.7488 1.8064 0.9279
C24 C 0.8023(3) 1.6275(11) 0.8704(2)
H16 H 0.8288 1.5472 0.8697
H17 H 0.8326 1.7016 0.8783
H18 H 0.7771 1.6409 0.8364
Cd1A Cd 1.410723(18) 1.04870(3) 0.516309(14)
O1A O 1.31109(19) 1.1072(4) 0.55720(13)
O2A O 1.39326(19) 1.0125(5) 0.60576(14)
O3A O 0.97585(17) 0.5832(3) 0.95232(13)
O4A O 0.89177(17) 0.6675(3) 0.99338(13)
O5A O 0.92527(18) 1.2824(3) 0.96462(12)
O6A O 0.84820(16) 1.1438(4) 0.99323(14)
C1A C 1.3341(2) 1.0598(5) 0.60064(18)
C2A C 1.2910(2) 1.0520(5) 0.64592(18)
C3A C 1.3136(3) 0.9852(6) 0.69169(18)
H1A H 1.3573 0.9475 0.6956
C4A C 1.2708(3) 0.9748(6) 0.7317(2)
H2A H 1.2866 0.9303 0.7627
C5A C 1.2046(3) 1.0286(5) 0.72754(18)
C6A C 1.1829(3) 1.0975(6) 0.6819(2)
H3A H 1.1396 1.1366 0.6782
C7A C 1.2264(3) 1.1085(7) 0.6411(2)
H4A H 1.2114 1.1546 0.6104
C8A C 1.1584(2) 1.0147(5) 0.77125(19)
C9A C 1.1665(3) 0.9106(5) 0.8077(2)
H5A H 1.2025 0.8509 0.8057
C10A C 1.1225(3) 0.8941(5) 0.84626(19)
H6A H 1.1284 0.8218 0.8692
C11A C 1.0689(2) 0.9843(5) 0.85179(18)
C12A C 1.0640(3) 1.0876(5) 0.8162(2)
H7A H 1.0289 1.1492 0.8186
C13A C 1.1074(3) 1.1064(5) 0.7771(2)
H8A H 1.1023 1.1802 0.7550
C14A C 1.0187(2) 0.9634(5) 0.89148(17)
C15A C 1.0020(2) 0.8356(5) 0.90843(17)
H9A H 1.0234 0.7619 0.8951
C16A C 0.9539(2) 0.8173(5) 0.94491(17)
C17A C 0.9203(2) 0.9259(4) 0.96251(18)
H10A H 0.8858 0.9134 0.9849
C18A C 0.9364(2) 1.0539(5) 0.94768(17)
C19A C 0.9851(2) 1.0719(4) 0.91184(18)
H11A H 0.9955 1.1576 0.9012
C20A C 0.9401(2) 0.6801(5) 0.96456(18)
C21A C 0.9007(2) 1.1707(5) 0.97024(18)
O7F O 0.7218(2) 1.0877(4) 1.05752(16)
C22F C 0.7531(4) 0.9797(7) 1.0584(3)
H12F H 0.7856 0.9669 1.0343
N1F N 0.7427(2) 0.8825(5) 1.09155(18)
C23F C 0.7814(5) 0.7629(9) 1.0863(4)
H13F H 0.8164 0.7785 1.0628
H14F H 0.8025 0.7364 1.1204
H15F H 0.7512 0.6936 1.0721
C24F C 0.6977(3) 0.8725(11) 1.1296(2)
H16F H 0.6712 0.9528 1.1303
H17F H 0.6674 0.7984 1.1217
H18F H 0.7229 0.8591 1.1636
Cd1B Cd 1.089277(18) 0.54870(3) 0.983691(14)
Cd1C Cd 0.910723(18) 0.54870(3) 0.516309(14)
Cd1F Cd 0.910723(18) 0.45130(3) 1.016309(14)
Cd1F_2 Cd 0.910723(18) 1.45130(3) 1.016309(14)
Cd1G Cd 1.089277(18) 0.45130(3) 0.483691(14)
Cd1G_2 Cd 1.089277(18) 1.45130(3) 0.483691(14)
Cd2A Cd 1.2500 1.2500 0.5000
O1F O 0.81109(19) 1.3928(4) 1.05720(13)
O3B O 1.52415(17) 1.0832(3) 0.54768(13)
O3C O 0.47585(17) 1.0832(3) 0.95232(13)
O3F O 1.47585(17) 0.9168(3) 0.45232(13)
O3G O 0.52415(17) 0.9168(3) 1.04768(13)
O4F O 1.39177(17) 0.8325(3) 0.49338(13)
O4G O 0.60823(17) 0.8325(3) 1.00662(13)
O5F O 1.42527(18) 1.2176(3) 0.46462(12)
O5G O 0.57473(18) 1.2176(3) 1.03538(12)
O6G O 0.65180(16) 1.3562(4) 1.00677(14)
O8 O 0.0000 0.421(2) 0.2500
loop_
_geom_bond_atom_site_label_1
_geom_bond_atom_site_label_2
_geom_bond_site_symmetry_1
_geom_bond_site_symmetry_2
Cd1 O1 1_555 1_555
Cd2 O1 1_555 1_555
O1 C1 1_555 1_555
O2 Cd1 1_555 1_555
O3 C20 1_555 1_555
O4 C20 1_555 1_555
O5 C21 1_555 1_555
O6 C21 1_555 1_555
O7 Cd2 1_555 1_555
C1 O2 1_555 1_555
C2 C1 1_555 1_555
C3 C2 1_555 1_555
H1 C3 1_555 1_555
C4 C3 1_555 1_555
H2 C4 1_555 1_555
C5 C4 1_555 1_555
C6 C5 1_555 1_555
H3 C6 1_555 1_555
C7 C2 1_555 1_555
H4 C7 1_555 1_555
C8 C5 1_555 1_555
C9 C8 1_555 1_555
H5 C9 1_555 1_555
C10 C9 1_555 1_555
H6 C10 1_555 1_555
C11 C10 1_555 1_555
C12 C11 1_555 1_555
H7 C12 1_555 1_555
C13 C8 1_555 1_555
H8 C13 1_555 1_555
C14 C11 1_555 1_555
C15 C14 1_555 1_555
H9 C15 1_555 1_555
C16 C15 1_555 1_555
C17 C16 1_555 1_555
H10 C17 1_555 1_555
C18 C17 1_555 1_555
C19 C14 1_555 1_555
H11 C19 1_555 1_555
C20 C16 1_555 1_555
C21 C18 1_555 1_555
C22 O7 1_555 1_555
H12 C22 1_555 1_555
N1 C22 1_555 1_555
C23 N1 1_555 1_555
H13 C23 1_555 1_555
H14 C23 1_555 1_555
H15 C23 1_555 1_555
C24 N1 1_555 1_555
H16 C24 1_555 1_555
H17 C24 1_555 1_555
H18 C24 1_555 1_555
Cd1A O1A 1_555 1_555
O1A C1A 1_555 1_555
O2A Cd1A 1_555 1_555
O3A C20A 1_555 1_555
O4A C20A 1_555 1_555
O5A C21A 1_555 1_555
O6A Cd2 1_555 1_555
C1A O2A 1_555 1_555
C2A C1A 1_555 1_555
C3A C2A 1_555 1_555
H1A C3A 1_555 1_555
C4A C3A 1_555 1_555
H2A C4A 1_555 1_555
C5A C4A 1_555 1_555
C6A C5A 1_555 1_555
H3A C6A 1_555 1_555
C7A C2A 1_555 1_555
H4A C7A 1_555 1_555
C8A C5A 1_555 1_555
C9A C8A 1_555 1_555
H5A C9A 1_555 1_555
C10A C9A 1_555 1_555
H6A C10A 1_555 1_555
C11A C10A 1_555 1_555
C12A C11A 1_555 1_555
H7A C12A 1_555 1_555
C13A C8A 1_555 1_555
H8A C13A 1_555 1_555
C14A C11A 1_555 1_555
C15A C14A 1_555 1_555
H9A C15A 1_555 1_555
C16A C15A 1_555 1_555
C17A C16A 1_555 1_555
H10A C17A 1_555 1_555
C18A C17A 1_555 1_555
C19A C14A 1_555 1_555
H11A C19A 1_555 1_555
C20A C16A 1_555 1_555
C21A O6A 1_555 1_555
O7F Cd2 1_555 1_555
C22F O7F 1_555 1_555
H12F C22F 1_555 1_555
N1F C22F 1_555 1_555
C23F N1F 1_555 1_555
H13F C23F 1_555 1_555
H14F C23F 1_555 1_555
H15F C23F 1_555 1_555
C24F N1F 1_555 1_555
H16F C24F 1_555 1_555
H17F C24F 1_555 1_555
H18F C24F 1_555 1_555
Cd1B O3A 1_555 1_555
Cd1C O3 1_555 1_555
Cd1F O3A 1_555 1_555
Cd1F_2 O5A 1_555 1_555
Cd1G O3 1_555 1_555
Cd1G_2 O5 1_555 1_555
Cd2A O6 1_555 1_555
O1F Cd2 1_555 1_555
O3B Cd1A 1_555 1_555
O3C Cd1 1_555 1_555
O3F Cd1A 1_555 1_555
O3G Cd1 1_555 1_555
O4F Cd1A 1_555 1_555
O4G Cd1 1_555 1_555
O5F Cd1A 1_555 1_555
O5G Cd1 1_555 1_555
O6G Cd2 1_555 1_555
O4 Cd1G 1_555 1_555
C6 C7 1_555 1_555
C12 C13 1_555 1_555
C18 C19 1_555 1_555
O1A Cd2A 1_555 1_555
O4A Cd1F 1_555 1_555
C6A C7A 1_555 1_555
C12A C13A 1_555 1_555
C18A C19A 1_555 1_555
C18A C21A 1_555 1_555
Cd1F_2 O1F 1_555 1_555

#END
