
#######################################################################
#
#                 Cambridge Crystallographic Data Centre
#                                CCDC 
#
#######################################################################
#
# If this CIF has been generated from an entry in the Cambridge 
# Structural Database, then it will include bibliographic, chemical, 
# crystal, experimental, refinement or atomic coordinate data resulting 
# from the CCDC's data processing and validation procedures.
#
#######################################################################

data_NOLTUD
_symmetry_cell_setting           monoclinic
_symmetry_space_group_name_H-M   'P 21/c'
_symmetry_Int_Tables_number      14
_space_group_name_Hall           '-P 2ybc'
loop_
_symmetry_equiv_pos_site_id
_symmetry_equiv_pos_as_xyz
1 x,y,z
2 x,1/2-y,1/2+z
3 -x,-y,-z
4 -x,1/2+y,1/2-z
_cell_length_a                   15.776(3)
_cell_length_b                   22.048(4)
_cell_length_c                   14.705(2)
_cell_angle_alpha                90
_cell_angle_beta                 102.060(16)
_cell_angle_gamma                90
_cell_volume                     5001.94
loop_
_atom_site_label
_atom_site_type_symbol
_atom_site_fract_x
_atom_site_fract_y
_atom_site_fract_z
Ag1 Ag 0.02987(4) 0.47631(3) 0.85320(4)
Ag2 Ag 0.26958(5) 0.50311(3) 1.22855(5)
Ag3 Ag 0.53784(4) 0.40805(3) 1.42932(4)
N1 N -0.0134(3) 0.3910(2) 0.9060(4)
N2 N -0.1094(4) 0.3409(3) 0.9869(5)
N3 N -0.0995(3) 0.4447(2) 1.1972(3)
N4 N 0.0812(4) 0.3604(3) 1.2634(5)
N5 N 0.1966(4) 0.4163(3) 1.2234(4)
N6 N 0.3805(4) 0.5383(3) 1.1650(4)
N7 N 0.5080(4) 0.5172(3) 1.1100(4)
N8 N 0.6413(3) 0.4494(2) 1.3701(3)
N9 N 0.7376(4) 0.5994(3) 1.5485(4)
N10 N 0.5955(4) 0.6237(3) 1.5688(4)
N11 N 0.4791(6) 0.3294(4) 1.6707(6)
N12 N 0.2172(5) 0.5975(4) 1.2512(5)
C1 C 0.0183(5) 0.3367(3) 0.8865(6)
H1 H 0.0620 0.3354 0.8529
C2 C -0.0126(6) 0.2839(4) 0.9153(7)
H2 H 0.0086 0.2464 0.9016
C3 C -0.0783(6) 0.2888(4) 0.9669(6)
H3 H -0.1004 0.2535 0.9875
C4 C -0.0746(4) 0.3900(3) 0.9571(4)
C5 C -0.1951(4) 0.4417(4) 1.0436(5)
H4 H -0.2336 0.4121 1.0074
H5 H -0.2293 0.4777 1.0482
C6 C -0.1653(4) 0.4166(3) 1.1396(5)
C7 C -0.2091(5) 0.3703(3) 1.1699(6)
H6 H -0.2531 0.3505 1.1287
C8 C -0.1886(5) 0.3531(3) 1.2608(6)
H7 H -0.2206 0.3231 1.2829
C9 C -0.1213(5) 0.3800(3) 1.3183(5)
H8 H -0.1055 0.3682 1.3802
C10 C -0.0764(4) 0.4251(3) 1.2840(4)
C11 C -0.0009(5) 0.4539(4) 1.3472(5)
H9 H -0.0219 0.4886 1.3765
H10 H 0.0221 0.4251 1.3961
C12 C 0.1243(4) 0.4108(3) 1.2569(5)
C13 C 0.1118(7) 0.3103(4) 1.2293(9)
H11 H 0.0823 0.2739 1.2311
C14 C 0.1845(8) 0.3105(5) 1.1921(9)
H12 H 0.2051 0.2754 1.1689
C15 C 0.2257(6) 0.3660(4) 1.1910(7)
H13 H 0.2755 0.3680 1.1667
C16 C 0.3771(5) 0.5924(3) 1.1242(5)
H14 H 0.3321 0.6184 1.1298
C17 C 0.4363(5) 0.6119(4) 1.0745(6)
H15 H 0.4330 0.6501 1.0474
C18 C 0.5008(5) 0.5713(4) 1.0671(5)
H16 H 0.5408 0.5816 1.0313
C19 C 0.4490(5) 0.5042(3) 1.1575(4)
C20 C 0.5660(5) 0.4141(3) 1.2181(5)
H17 H 0.5739 0.4157 1.1544
H18 H 0.5747 0.3725 1.2392
C21 C 0.6337(4) 0.4536(3) 1.2778(4)
C22 C 0.6877(5) 0.4894(3) 1.2385(5)
H19 H 0.6793 0.4928 1.1742
C23 C 0.7544(5) 0.5203(3) 1.2952(5)
H20 H 0.7910 0.5453 1.2700
C24 C 0.7654(5) 0.5132(3) 1.3884(5)
H21 H 0.8117 0.5320 1.4278
C25 C 0.7080(4) 0.4783(3) 1.4255(4)
C26 C 0.7161(4) 0.4700(3) 1.5277(5)
H22 H 0.7138 0.4270 1.5408
H23 H 0.7725 0.4848 1.5595
C27 C 0.6598(4) 0.5846(3) 1.5614(4)
C28 C 0.7524(6) 0.6586(4) 1.5424(6)
H24 H 0.8060 0.6710 1.5324
C29 C 0.6930(6) 0.7013(4) 1.5501(7)
H25 H 0.7054 0.7423 1.5462
C30 C 0.6142(6) 0.6825(4) 1.5639(6)
H26 H 0.5727 0.7112 1.5700
C31 C 0.4653(19) 0.2766(11) 1.6991(18)
H27 H 0.5082 0.2491 1.6854
H28 H 0.4687 0.2776 1.7650
H29 H 0.4087 0.2632 1.6683
C32 C 0.4233(15) 0.3759(13) 1.6830(13)
H30 H 0.4400 0.4126 1.6563
H31 H 0.3651 0.3654 1.6531
H32 H 0.4262 0.3819 1.7483
C33 C 0.5389(12) 0.3430(12) 1.6358(9)
H33 H 0.5719 0.3079 1.6384
C34 C 0.1944(8) 0.7013(4) 1.3219(8)
C35 C 0.2072(5) 0.6427(4) 1.2818(6)
O13 O 0.5742(5) 0.3775(4) 1.6017(5)
S1 S -0.11388(13) 0.46151(8) 0.97891(12)
S2 S 0.08725(12) 0.47891(8) 1.29554(13)
S3 S 0.45610(12) 0.43616(9) 1.21988(13)
S4 S 0.63333(12) 0.50841(8) 1.57476(12)
N3B N 0.0995(3) 0.5553(2) 0.8028(3)
S1B S 0.11388(13) 0.53849(8) 1.02109(12)
S2B S -0.08725(12) 0.52109(8) 0.70446(13)
N10B N 0.4045(4) 0.3763(3) 1.4312(4)
Ag1B Ag -0.02987(4) 0.52369(3) 1.14680(4)
Ag3B Ag 0.46216(4) 0.59195(3) 1.57068(4)
Cl1 Cl -0.0259(2) 0.63557(11) 1.38715(16)
O1 O 0.0594(9) 0.6122(8) 1.4374(9)
O2 O -0.0682(9) 0.6304(9) 1.4512(9)
O3 O -0.0513(8) 0.5983(5) 1.3126(7)
O4 O -0.0037(8) 0.6890(5) 1.3542(9)
Cl2 Cl -0.26312(19) 0.61980(13) 1.0538(2)
O5 O -0.3136(7) 0.6412(5) 1.1146(10)
O6 O -0.3090(6) 0.5735(5) 0.9951(8)
O7 O -0.1967(6) 0.5850(5) 1.1130(7)
O8 O -0.2221(8) 0.6659(4) 1.0172(8)
Cl3 Cl -0.66440(13) 0.73006(9) 0.57881(15)
O9 O -0.6865(6) 0.7632(4) 0.6514(6)
O10 O -0.6695(6) 0.7687(3) 0.5017(6)
O11 O -0.5801(4) 0.7089(3) 0.6053(6)
O12 O -0.7227(5) 0.6810(3) 0.5529(5)
loop_
_geom_bond_atom_site_label_1
_geom_bond_atom_site_label_2
_geom_bond_site_symmetry_1
_geom_bond_site_symmetry_2
Ag1 N1 1_555 1_555
Ag2 N5 1_555 1_555
Ag3 N8 1_555 1_555
Cl1 O1 1_555 1_555
Cl2 O5 1_555 1_555
Cl3 O9 1_555 1_555
N1 C1 1_555 1_555
N2 C3 1_555 1_555
N3 C6 1_555 1_555
N4 C12 1_555 1_555
N5 C12 1_555 1_555
N6 Ag2 1_555 1_555
N7 C18 1_555 1_555
N8 C21 1_555 1_555
N9 C27 1_555 1_555
N10 C27 1_555 1_555
N11 C31 1_555 1_555
N12 Ag2 1_555 1_555
C1 H1 1_555 1_555
C2 C1 1_555 1_555
H2 C2 1_555 1_555
C3 C2 1_555 1_555
H3 C3 1_555 1_555
C4 N1 1_555 1_555
C5 H4 1_555 1_555
H5 C5 1_555 1_555
C6 C5 1_555 1_555
C7 C6 1_555 1_555
H6 C7 1_555 1_555
C8 C7 1_555 1_555
H7 C8 1_555 1_555
C9 C8 1_555 1_555
H8 C9 1_555 1_555
C10 N3 1_555 1_555
C11 C10 1_555 1_555
H9 C11 1_555 1_555
H10 C11 1_555 1_555
C12 S2 1_555 1_555
C13 N4 1_555 1_555
H11 C13 1_555 1_555
C14 C13 1_555 1_555
H12 C14 1_555 1_555
C15 N5 1_555 1_555
H13 C15 1_555 1_555
C16 N6 1_555 1_555
H14 C16 1_555 1_555
C17 C16 1_555 1_555
H15 C17 1_555 1_555
C18 C17 1_555 1_555
H16 C18 1_555 1_555
C19 N6 1_555 1_555
C20 H17 1_555 1_555
H18 C20 1_555 1_555
C21 C20 1_555 1_555
C22 C21 1_555 1_555
H19 C22 1_555 1_555
C23 C22 1_555 1_555
H20 C23 1_555 1_555
C24 C23 1_555 1_555
H21 C24 1_555 1_555
C25 N8 1_555 1_555
C26 C25 1_555 1_555
H22 C26 1_555 1_555
H23 C26 1_555 1_555
C27 S4 1_555 1_555
C28 N9 1_555 1_555
H24 C28 1_555 1_555
C29 C28 1_555 1_555
H25 C29 1_555 1_555
C30 N10 1_555 1_555
H26 C30 1_555 1_555
C31 H27 1_555 1_555
H28 C31 1_555 1_555
H29 C31 1_555 1_555
C32 N11 1_555 1_555
H30 C32 1_555 1_555
H31 C32 1_555 1_555
H32 C32 1_555 1_555
C33 N11 1_555 1_555
H33 C33 1_555 1_555
C34 C35 1_555 1_555
C35 N12 1_555 1_555
O2 Cl1 1_555 1_555
O3 Cl1 1_555 1_555
O4 Cl1 1_555 1_555
O6 Cl2 1_555 1_555
O7 Cl2 1_555 1_555
O8 Cl2 1_555 1_555
O10 Cl3 1_555 1_555
O11 Cl3 1_555 1_555
O12 Cl3 1_555 1_555
O13 Ag3 1_555 1_555
S1 C4 1_555 1_555
S2 C11 1_555 1_555
S3 C19 1_555 1_555
S4 C26 1_555 1_555
N3B Ag1 1_555 1_555
S1B Ag1 1_555 1_555
S2B Ag1 1_555 1_555
N10B Ag3 1_555 1_555
Ag1B N3 1_555 1_555
Ag3B N10 1_555 1_555
N2 C4 1_555 1_555
N7 C19 1_555 1_555
C5 S1 1_555 1_555
C9 C10 1_555 1_555
C14 C15 1_555 1_555
C20 S3 1_555 1_555
C24 C25 1_555 1_555
C29 C30 1_555 1_555
C33 O13 1_555 1_555
S1 Ag1B 1_555 1_555
S2 Ag1B 1_555 1_555

#END
