
#######################################################################
#
#                 Cambridge Crystallographic Data Centre
#                                CCDC 
#
#######################################################################
#
# If this CIF has been generated from an entry in the Cambridge 
# Structural Database, then it will include bibliographic, chemical, 
# crystal, experimental, refinement or atomic coordinate data resulting 
# from the CCDC's data processing and validation procedures.
#
#######################################################################

data_NOLVAN
_symmetry_cell_setting           monoclinic
_symmetry_space_group_name_H-M   'P 21/n'
_symmetry_Int_Tables_number      14
_space_group_name_Hall           '-P 2yn'
loop_
_symmetry_equiv_pos_site_id
_symmetry_equiv_pos_as_xyz
1 x,y,z
2 1/2-x,1/2+y,1/2-z
3 -x,-y,-z
4 1/2+x,1/2-y,1/2+z
_cell_length_a                   4.9863(2)
_cell_length_b                   11.9186(5)
_cell_length_c                   8.8591(3)
_cell_angle_alpha                90
_cell_angle_beta                 98.548(4)
_cell_angle_gamma                90
_cell_volume                     520.645
loop_
_atom_site_label
_atom_site_type_symbol
_atom_site_fract_x
_atom_site_fract_y
_atom_site_fract_z
Ag1 Ag 0.26802(8) 0.94760(4) 0.03704(5)
O1 O 0.5831(8) 1.4182(4) 0.2834(4)
O2 O 0.5430(7) 1.2105(3) 0.0138(4)
O3 O 0.2238(8) 1.1227(3) 0.1237(4)
N1 N 0.3348(9) 1.4153(4) 0.0491(5)
C1 C 0.6955(12) 1.5544(4) 0.1122(6)
H1 H 0.6459 1.6190 0.1686
H2 H 0.8858 1.5392 0.1469
C2 C 0.5351(11) 1.4560(4) 0.1534(6)
C3 C 0.1820(10) 1.3183(4) 0.0874(6)
H3 H 0.0101 1.3159 0.0200
H4 H 0.1437 1.3265 0.1911
C4 C 0.3318(9) 1.2076(4) 0.0744(6)
O1B O 0.4169(8) 1.5818(4) -0.2834(4)
O2B O 0.4570(7) 1.7895(3) -0.0138(4)
O3B O 0.7762(8) 1.8773(3) -0.1237(4)
N1B N 0.6652(9) 1.5847(4) -0.0491(5)
C1B C 0.3045(12) 1.4456(4) -0.1122(6)
H1B H 0.3541 1.3810 -0.1686
H2B H 0.1142 1.4608 -0.1469
C2B C 0.4649(11) 1.5440(4) -0.1534(6)
C3B C 0.8180(10) 1.6817(4) -0.0874(6)
H3B H 0.9899 1.6841 -0.0200
H4B H 0.8563 1.6735 -0.1911
C4B C 0.6682(9) 1.7924(4) -0.0744(6)
Ag1B Ag -0.26802(8) 1.05240(4) -0.03704(5)
Ag1_2 Ag -0.73198(8) 0.94760(4) 0.03704(5)
Ag1_3 Ag 0.26802(8) 1.94760(4) 0.03704(5)
Ag1A Ag 0.23198(8) 1.44760(4) 0.46296(5)
Ag1B_2 Ag 0.73198(8) 1.05240(4) -0.03704(5)
Ag1B_3 Ag 0.73198(8) 2.05240(4) -0.03704(5)
Ag1C Ag 0.76802(8) 1.55240(4) -0.46296(5)
O1A O -0.0831(8) 0.9182(4) 0.2166(4)
O1C O 0.0831(8) 1.0818(4) -0.2166(4)
O2_2 O -0.4570(7) 1.2105(3) 0.0138(4)
O2B_2 O 0.4570(7) 0.7895(3) -0.0138(4)
O3B_2 O -0.2238(8) 0.8773(3) -0.1237(4)
loop_
_geom_bond_atom_site_label_1
_geom_bond_atom_site_label_2
_geom_bond_site_symmetry_1
_geom_bond_site_symmetry_2
Ag1 O3 1_555 1_555
O1 C2 1_555 1_555
O2 C4 1_555 1_555
O3 C4 1_555 1_555
N1 C2 1_555 1_555
C1 H1 1_555 1_555
H2 C1 1_555 1_555
C2 C1 1_555 1_555
C3 N1 1_555 1_555
H3 C3 1_555 1_555
H4 C3 1_555 1_555
C4 C3 1_555 1_555
O1B C2B 1_555 1_555
O2B C4B 1_555 1_555
O3B C4B 1_555 1_555
N1B C1 1_555 1_555
C1B N1 1_555 1_555
H1B C1B 1_555 1_555
H2B C1B 1_555 1_555
C2B N1B 1_555 1_555
C3B N1B 1_555 1_555
H3B C3B 1_555 1_555
H4B C3B 1_555 1_555
C4B C3B 1_555 1_555
Ag1B Ag1 1_555 1_555
Ag1_2 Ag1B 1_555 1_555
Ag1_3 O2B 1_555 1_555
Ag1A O1 1_555 1_555
Ag1B_2 Ag1 1_555 1_555
Ag1B_3 O3B 1_555 1_555
Ag1C O1B 1_555 1_555
O1A Ag1 1_555 1_555
O1C Ag1B 1_555 1_555
O2_2 Ag1B 1_555 1_555
O2B_2 Ag1 1_555 1_555
O3B_2 Ag1B 1_555 1_555
O2 Ag1B_2 1_555 1_555
C1B C2B 1_555 1_555
Ag1_3 Ag1B_3 1_555 1_555

#END
