
#######################################################################
#
#                 Cambridge Crystallographic Data Centre
#                                CCDC 
#
#######################################################################
#
# If this CIF has been generated from an entry in the Cambridge 
# Structural Database, then it will include bibliographic, chemical, 
# crystal, experimental, refinement or atomic coordinate data resulting 
# from the CCDC's data processing and validation procedures.
#
#######################################################################

data_NOLVER
_symmetry_cell_setting           triclinic
_symmetry_space_group_name_H-M   'P -1'
_symmetry_Int_Tables_number      2
_space_group_name_Hall           '-P 1'
loop_
_symmetry_equiv_pos_site_id
_symmetry_equiv_pos_as_xyz
1 x,y,z
2 -x,-y,-z
_cell_length_a                   6.9587(3)
_cell_length_b                   10.0635(5)
_cell_length_c                   11.2625(5)
_cell_angle_alpha                79.014(4)
_cell_angle_beta                 84.469(4)
_cell_angle_gamma                88.510(4)
_cell_volume                     770.618
loop_
_atom_site_label
_atom_site_type_symbol
_atom_site_fract_x
_atom_site_fract_y
_atom_site_fract_z
Pb1 Pb 0.720531(16) 0.569373(12) 0.599992(10)
O1 O 1.1688(4) 0.1832(3) 0.3187(2)
O2 O 0.9121(3) 0.3561(3) 0.5323(2)
O3 O 0.6449(3) 0.4298(2) 0.4507(2)
O4 O 0.9680(4) 0.4939(3) 0.7663(2)
O5 O 1.4477(4) 0.5544(3) 0.8122(2)
O6 O 0.6279(5) 0.7844(3) 0.4086(3)
O7 O 1.5508(3) 0.3759(3) 0.7349(2)
N1 N 0.9039(4) 0.1165(3) 0.4467(3)
N2 N 1.1223(4) 0.4239(3) 0.9324(2)
C1 C 1.1933(6) -0.0238(4) 0.4527(4)
H1 H 1.2288 -0.0730 0.3876
H2 H 1.3122 0.0042 0.4789
C2 C 1.0851(5) 0.1003(3) 0.4019(3)
C3 C 0.7900(5) 0.2327(4) 0.3938(3)
H3 H 0.6593 0.2036 0.3900
H4 H 0.8445 0.2668 0.3114
C4 C 0.7836(4) 0.3459(3) 0.4654(3)
C5 C 0.8473(5) 0.5767(4) 0.9414(3)
H5 H 0.8528 0.6697 0.8979
H6 H 0.7178 0.5444 0.9391
C6 C 0.9853(5) 0.4944(4) 0.8744(3)
C7 C 1.2621(5) 0.3496(4) 0.8657(3)
H7 H 1.1980 0.3138 0.8059
H8 H 1.3109 0.2736 0.9216
C8 C 1.4315(5) 0.4362(4) 0.8014(3)
O1A O 0.8312(4) -0.1832(3) 0.6813(2)
O2A O 1.0879(3) -0.3561(3) 0.4677(2)
O3A O 1.3551(3) -0.4298(2) 0.5493(2)
N1A N 1.0961(4) -0.1165(3) 0.5533(3)
C1A C 0.8067(6) 0.0238(4) 0.5473(4)
H1A H 0.7712 0.0730 0.6124
H2A H 0.6878 -0.0042 0.5211
C2A C 0.9149(5) -0.1003(3) 0.5981(3)
C3A C 1.2100(5) -0.2327(4) 0.6062(3)
H3A H 1.3407 -0.2036 0.6100
H4A H 1.1555 -0.2668 0.6886
C4A C 1.2164(4) -0.3459(3) 0.5346(3)
O4A O 1.0320(4) 0.5061(3) 1.2337(2)
O5A O 0.5523(4) 0.4456(3) 1.1878(2)
O7A O 0.4492(3) 0.6241(3) 1.2651(2)
N2A N 0.8777(4) 0.5761(3) 1.0676(2)
C5A C 1.1527(5) 0.4233(4) 1.0586(3)
H5A H 1.1472 0.3303 1.1021
H6A H 1.2822 0.4556 1.0609
C6A C 1.0147(5) 0.5056(4) 1.1256(3)
C7A C 0.7379(5) 0.6504(4) 1.1343(3)
H7A H 0.8020 0.6862 1.1941
H8A H 0.6891 0.7264 1.0784
C8A C 0.5685(5) 0.5638(4) 1.1986(3)
Pb1A Pb 0.279469(16) 0.430627(12) 0.400008(10)
O6A O 0.3721(5) 0.2156(3) 0.5914(3)
Pb1_2 Pb 0.720531(16) -0.430627(12) 0.599992(10)
Pb1_3 Pb 1.720531(16) -0.430627(12) 0.599992(10)
Pb1_4 Pb 1.720531(16) 0.569373(12) 0.599992(10)
Pb1A_2 Pb 0.279469(16) 0.430627(12) 1.400008(10)
Pb1A_3 Pb 1.279469(16) -0.569373(12) 0.400008(10)
Pb1A_4 Pb 1.279469(16) 0.430627(12) 0.400008(10)
Pb1A_5 Pb 1.279469(16) 0.430627(12) 1.400008(10)
O2_2 O -0.0879(3) 0.3561(3) 0.5323(2)
O2A_2 O 0.0879(3) 0.6439(3) 0.4677(2)
O2A_3 O 1.0879(3) 0.6439(3) 0.4677(2)
O3A_2 O 0.3551(3) 0.5702(2) 0.5493(2)
O4A_2 O 0.0320(4) 0.5061(3) 0.2337(2)
O5_2 O 0.4477(4) 0.5544(3) 0.8122(2)
O5A_2 O 0.5523(4) 0.4456(3) 0.1878(2)
O7_2 O 0.5508(3) 0.3759(3) 0.7349(2)
O7A_2 O 0.4492(3) 0.6241(3) 0.2651(2)
O8 O 1.6249(7) 0.9172(5) 0.8705(4)
O9 O 0.7913(6) 0.1696(4) 0.8612(3)
O10 O 1.1255(6) 0.0485(4) 0.7642(4)
O11 O 1.2754(7) 0.7794(5) 0.9043(4)
loop_
_geom_bond_atom_site_label_1
_geom_bond_atom_site_label_2
_geom_bond_site_symmetry_1
_geom_bond_site_symmetry_2
Pb1 O2 1_555 1_555
O1 C2 1_555 1_555
O2 C4 1_555 1_555
O3 Pb1 1_555 1_555
O4 Pb1 1_555 1_555
O5 C8 1_555 1_555
O6 Pb1 1_555 1_555
O7 C8 1_555 1_555
N1 C2 1_555 1_555
N2 C6 1_555 1_555
C1 H1 1_555 1_555
H2 C1 1_555 1_555
C2 C1 1_555 1_555
C3 N1 1_555 1_555
H3 C3 1_555 1_555
H4 C3 1_555 1_555
C4 O3 1_555 1_555
C5 H5 1_555 1_555
H6 C5 1_555 1_555
C6 O4 1_555 1_555
C7 N2 1_555 1_555
H7 C7 1_555 1_555
H8 C7 1_555 1_555
C8 C7 1_555 1_555
O1A C2A 1_555 1_555
O2A C4A 1_555 1_555
O3A C4A 1_555 1_555
N1A C1 1_555 1_555
C1A N1 1_555 1_555
H1A C1A 1_555 1_555
H2A C1A 1_555 1_555
C2A N1A 1_555 1_555
C3A N1A 1_555 1_555
H3A C3A 1_555 1_555
H4A C3A 1_555 1_555
C4A C3A 1_555 1_555
O4A C6A 1_555 1_555
O5A C8A 1_555 1_555
O7A C8A 1_555 1_555
N2A C5 1_555 1_555
C5A N2 1_555 1_555
H5A C5A 1_555 1_555
H6A C5A 1_555 1_555
C6A N2A 1_555 1_555
C7A N2A 1_555 1_555
H7A C7A 1_555 1_555
H8A C7A 1_555 1_555
C8A C7A 1_555 1_555
Pb1A O3 1_555 1_555
O6A Pb1A 1_555 1_555
Pb1_2 O2A 1_555 1_555
Pb1_3 O3A 1_555 1_555
Pb1_4 O5 1_555 1_555
Pb1A_2 O5A 1_555 1_555
Pb1A_3 O2A 1_555 1_555
Pb1A_4 O2 1_555 1_555
Pb1A_5 O4A 1_555 1_555
O2_2 Pb1A 1_555 1_555
O2A_2 Pb1A 1_555 1_555
O2A_3 Pb1 1_555 1_555
O3A_2 Pb1 1_555 1_555
O4A_2 Pb1A 1_555 1_555
O5_2 Pb1 1_555 1_555
O5A_2 Pb1A 1_555 1_555
O7_2 Pb1 1_555 1_555
O7A_2 Pb1A 1_555 1_555
O7 Pb1_4 1_555 1_555
C3 C4 1_555 1_555
C5 C6 1_555 1_555
O3A Pb1A_3 1_555 1_555
C1A C2A 1_555 1_555
O7A Pb1A_2 1_555 1_555
C5A C6A 1_555 1_555
Pb1A O3A_2 1_555 1_555
Pb1A_4 O2A_3 1_555 1_555

#END
