
#######################################################################
#
#                 Cambridge Crystallographic Data Centre
#                                CCDC 
#
#######################################################################
#
# If this CIF has been generated from an entry in the Cambridge 
# Structural Database, then it will include bibliographic, chemical, 
# crystal, experimental, refinement or atomic coordinate data resulting 
# from the CCDC's data processing and validation procedures.
#
#######################################################################

data_NOLWOC
_symmetry_cell_setting           monoclinic
_symmetry_space_group_name_H-M   'P 21/n'
_symmetry_Int_Tables_number      14
_space_group_name_Hall           '-P 2yn'
loop_
_symmetry_equiv_pos_site_id
_symmetry_equiv_pos_as_xyz
1 x,y,z
2 1/2-x,1/2+y,1/2-z
3 -x,-y,-z
4 1/2+x,1/2-y,1/2+z
_cell_length_a                   9.961(5)
_cell_length_b                   17.323(4)
_cell_length_c                   10.814(5)
_cell_angle_alpha                90
_cell_angle_beta                 94.871(5)
_cell_angle_gamma                90
_cell_volume                     1859.26
loop_
_atom_site_label
_atom_site_type_symbol
_atom_site_fract_x
_atom_site_fract_y
_atom_site_fract_z
Zn1 Zn 0.34838(6) 0.19538(4) 0.84713(6)
S1 S 0.20763(13) -0.01793(8) 1.25151(13)
O1 O 0.3740(4) 0.1894(2) 0.6707(4)
O2 O 0.1642(4) 0.2343(2) 0.6647(3)
O3 O -0.0022(4) 0.3610(2) 0.4379(4)
O4 O 0.1902(3) 0.3876(2) 0.5475(3)
N1 N 0.2007(4) 0.1372(3) 0.9230(4)
N2 N 0.0975(4) 0.0762(3) 1.0678(4)
N3 N 0.1494(5) -0.0998(3) 1.4553(4)
N4 N 0.1641(5) -0.1962(3) 1.5866(4)
C1 C 0.2165(5) 0.0859(3) 1.0157(5)
H1 H 0.2965 0.0606 1.0407
C2 C 0.0664(5) 0.1601(3) 0.9160(5)
H2 H 0.0264 0.1952 0.8592
C3 C 0.0038(5) 0.1233(3) 1.0043(5)
H3 H -0.0862 0.1286 1.0197
C4 C 0.0757(6) 0.0307(3) 1.1710(5)
C5 C -0.0448(5) 0.0202(3) 1.2218(5)
H4 H -0.1259 0.0419 1.1900
C6 C -0.0306(6) -0.0277(3) 1.3287(5)
H5 H -0.1012 -0.0413 1.3753
C7 C 0.0994(6) -0.0511(3) 1.3546(5)
C8 C 0.0920(5) -0.1661(3) 1.4889(5)
H6 H 0.0140 -0.1876 1.4498
C9 C 0.2629(5) -0.0868(3) 1.5327(5)
H7 H 0.3222 -0.0455 1.5300
C10 C 0.2715(6) -0.1476(3) 1.6159(5)
H8 H 0.3382 -0.1544 1.6805
C11 C 0.2659(5) 0.2173(3) 0.6130(5)
C12 C 0.2674(5) 0.2246(3) 0.4743(5)
C13 C 0.3403(5) 0.1718(3) 0.4072(5)
H9 H 0.3935 0.1347 0.4499
C14 C 0.3343(6) 0.1742(3) 0.2791(5)
H10 H 0.3835 0.1393 0.2357
C15 C 0.2548(5) 0.2288(3) 0.2166(5)
H11 H 0.2495 0.2299 0.1304
C16 C 0.1821(5) 0.2824(3) 0.2793(5)
H12 H 0.1289 0.3189 0.2353
C17 C 0.1895(5) 0.2812(3) 0.4089(5)
C18 C 0.1227(5) 0.3466(3) 0.4724(5)
Zn1A Zn 0.15162(6) -0.30462(4) 1.65287(6)
Zn1C Zn -0.15162(6) 0.30462(4) 0.34713(6)
O3C O 0.4978(4) 0.1390(2) 0.9379(4)
N4A N 0.3359(5) 0.3038(3) 0.9134(4)
O5 O 0.5078(4) 0.0164(2) 0.1550(4)
O6 O 0.5170(7) 0.9588(5) 0.3840(7)
loop_
_geom_bond_atom_site_label_1
_geom_bond_atom_site_label_2
_geom_bond_site_symmetry_1
_geom_bond_site_symmetry_2
Zn1 O1 1_555 1_555
S1 C4 1_555 1_555
O1 C11 1_555 1_555
O2 C11 1_555 1_555
O3 C18 1_555 1_555
O4 C18 1_555 1_555
N1 Zn1 1_555 1_555
N2 C1 1_555 1_555
N3 C7 1_555 1_555
N4 C8 1_555 1_555
C1 N1 1_555 1_555
H1 C1 1_555 1_555
C2 N1 1_555 1_555
H2 C2 1_555 1_555
C3 N2 1_555 1_555
H3 C3 1_555 1_555
C4 N2 1_555 1_555
C5 C4 1_555 1_555
H4 C5 1_555 1_555
C6 C5 1_555 1_555
H5 C6 1_555 1_555
C7 S1 1_555 1_555
C8 N3 1_555 1_555
H6 C8 1_555 1_555
C9 N3 1_555 1_555
H7 C9 1_555 1_555
C10 N4 1_555 1_555
H8 C10 1_555 1_555
C11 C12 1_555 1_555
C12 C13 1_555 1_555
C13 H9 1_555 1_555
C14 C13 1_555 1_555
H10 C14 1_555 1_555
C15 C14 1_555 1_555
H11 C15 1_555 1_555
C16 C15 1_555 1_555
H12 C16 1_555 1_555
C17 C12 1_555 1_555
C18 C17 1_555 1_555
Zn1A N4 1_555 1_555
Zn1C O3 1_555 1_555
O3C Zn1 1_555 1_555
N4A Zn1 1_555 1_555
C2 C3 1_555 1_555
C6 C7 1_555 1_555
C9 C10 1_555 1_555
C16 C17 1_555 1_555

#END
