
#######################################################################
#
#                 Cambridge Crystallographic Data Centre
#                                CCDC 
#
#######################################################################
#
# If this CIF has been generated from an entry in the Cambridge 
# Structural Database, then it will include bibliographic, chemical, 
# crystal, experimental, refinement or atomic coordinate data resulting 
# from the CCDC's data processing and validation procedures.
#
#######################################################################

data_NOLXOD
_symmetry_cell_setting           monoclinic
_symmetry_space_group_name_H-M   'C 2/c'
_symmetry_Int_Tables_number      15
_space_group_name_Hall           '-C 2yn'
loop_
_symmetry_equiv_pos_site_id
_symmetry_equiv_pos_as_xyz
1 x,y,z
2 -x,y,1/2-z
3 1/2+x,1/2+y,z
4 1/2-x,1/2+y,1/2-z
5 -x,-y,-z
6 x,-y,1/2+z
7 1/2-x,1/2-y,-z
8 1/2+x,1/2-y,1/2+z
_cell_length_a                   28.266(6)
_cell_length_b                   12.094(2)
_cell_length_c                   15.364(3)
_cell_angle_alpha                90
_cell_angle_beta                 107.51(3)
_cell_angle_gamma                90
_cell_volume                     5008.81
loop_
_atom_site_label
_atom_site_type_symbol
_atom_site_fract_x
_atom_site_fract_y
_atom_site_fract_z
Zn1 Zn 0.358939(16) 0.75579(3) 0.02472(3)
S1 S 0.32560(4) 0.27668(7) 0.09838(6)
O1 O 0.41869(9) 0.7830(2) -0.01198(17)
O2 O 0.44108(10) 0.8294(2) 0.13378(17)
O3 O 0.64433(9) 0.9021(2) 0.04435(16)
O4 O 0.80486(9) 0.7572(2) 0.40981(16)
O5 O 0.83031(9) 0.9300(2) 0.40052(16)
N1 N 0.36221(11) 0.6328(2) 0.11439(19)
N2 N 0.36267(11) 0.4709(2) 0.17806(19)
N3 N 0.32470(12) 0.0556(2) 0.12438(19)
N4 N 0.32973(12) -0.1099(2) 0.07052(19)
C1 C 0.35867(14) 0.5257(3) 0.0996(2)
H1 H 0.3541 0.4923 0.0431
C2 C 0.36879(15) 0.6468(3) 0.2061(3)
H2 H 0.3726 0.7147 0.2358
C3 C 0.36894(14) 0.5482(3) 0.2467(2)
H3 H 0.3725 0.5349 0.3080
C4 C 0.36024(14) 0.3545(3) 0.1890(2)
C5 C 0.38178(14) 0.2939(3) 0.2644(2)
H4 H 0.4020 0.3233 0.3189
C6 C 0.36988(14) 0.1804(3) 0.2505(2)
H5 H 0.3812 0.1263 0.2949
C7 C 0.34034(14) 0.1596(3) 0.1653(2)
C8 C 0.35482(14) -0.0294(3) 0.1215(2)
H6 H 0.3887 -0.0311 0.1515
C9 C 0.27738(14) 0.0277(3) 0.0710(2)
H7 H 0.2488 0.0703 0.0600
C10 C 0.28151(14) -0.0739(3) 0.0384(2)
H8 H 0.2555 -0.1139 -0.0002
C11 C 0.45095(15) 0.8185(3) 0.0611(3)
C12 C 0.50176(14) 0.8436(3) 0.0556(2)
C13 C 0.51299(15) 0.8396(4) -0.0261(2)
H9 H 0.4881 0.8236 -0.0798
C14 C 0.56051(15) 0.8590(4) -0.0289(3)
H10 H 0.5676 0.8564 -0.0841
C15 C 0.59753(13) 0.8824(3) 0.0510(2)
C16 C 0.58674(14) 0.8888(3) 0.1329(2)
H11 H 0.6116 0.9064 0.1863
C17 C 0.53907(14) 0.8689(3) 0.1355(2)
H12 H 0.5319 0.8724 0.1907
C18 C 0.68374(14) 0.8871(3) 0.1234(2)
C19 C 0.71100(14) 0.9794(3) 0.1628(2)
H13 H 0.7029 1.0491 0.1371
C20 C 0.75047(14) 0.9653(3) 0.2411(2)
H14 H 0.7695 1.0261 0.2675
C21 C 0.76202(13) 0.8619(3) 0.2807(2)
C22 C 0.73404(14) 0.7717(3) 0.2397(3)
H15 H 0.7414 0.7022 0.2662
C23 C 0.69554(14) 0.7832(3) 0.1604(2)
H16 H 0.6777 0.7216 0.1321
C24 C 0.80245(13) 0.8510(3) 0.3697(2)
Zn1_2 Zn 0.358939(16) -0.24421(3) 0.02472(3)
Zn1G Zn 0.858939(16) 0.74421(3) 0.52472(3)
O4G O 0.30486(9) 0.7428(2) -0.09019(16)
N4_2 N 0.32973(12) 0.8901(2) 0.07052(19)
loop_
_geom_bond_atom_site_label_1
_geom_bond_atom_site_label_2
_geom_bond_site_symmetry_1
_geom_bond_site_symmetry_2
Zn1 O1 1_555 1_555
S1 C4 1_555 1_555
O1 C11 1_555 1_555
O2 Zn1 1_555 1_555
O3 C15 1_555 1_555
O4 C24 1_555 1_555
O5 C24 1_555 1_555
N1 Zn1 1_555 1_555
N2 C1 1_555 1_555
N3 C7 1_555 1_555
N4 C8 1_555 1_555
C1 N1 1_555 1_555
H1 C1 1_555 1_555
C2 N1 1_555 1_555
H2 C2 1_555 1_555
C3 N2 1_555 1_555
H3 C3 1_555 1_555
C4 N2 1_555 1_555
C5 C4 1_555 1_555
H4 C5 1_555 1_555
C6 C5 1_555 1_555
H5 C6 1_555 1_555
C7 S1 1_555 1_555
C8 N3 1_555 1_555
H6 C8 1_555 1_555
C9 N3 1_555 1_555
H7 C9 1_555 1_555
C10 N4 1_555 1_555
H8 C10 1_555 1_555
C11 O2 1_555 1_555
C12 C11 1_555 1_555
C13 C12 1_555 1_555
H9 C13 1_555 1_555
C14 C13 1_555 1_555
H10 C14 1_555 1_555
C15 C14 1_555 1_555
C16 C15 1_555 1_555
H11 C16 1_555 1_555
C17 C12 1_555 1_555
H12 C17 1_555 1_555
C18 O3 1_555 1_555
C19 C18 1_555 1_555
H13 C19 1_555 1_555
C20 C19 1_555 1_555
H14 C20 1_555 1_555
C21 C20 1_555 1_555
C22 C21 1_555 1_555
H15 C22 1_555 1_555
C23 C18 1_555 1_555
H16 C23 1_555 1_555
C24 C21 1_555 1_555
Zn1_2 N4 1_555 1_555
Zn1G O4 1_555 1_555
O4G Zn1 1_555 1_555
N4_2 Zn1 1_555 1_555
C2 C3 1_555 1_555
C6 C7 1_555 1_555
C9 C10 1_555 1_555
C16 C17 1_555 1_555
C22 C23 1_555 1_555

#END
