
#######################################################################
#
#                 Cambridge Crystallographic Data Centre
#                                CCDC 
#
#######################################################################
#
# If this CIF has been generated from an entry in the Cambridge 
# Structural Database, then it will include bibliographic, chemical, 
# crystal, experimental, refinement or atomic coordinate data resulting 
# from the CCDC's data processing and validation procedures.
#
#######################################################################

data_NOLXIX
_symmetry_cell_setting           monoclinic
_symmetry_space_group_name_H-M   'C 2/c'
_symmetry_Int_Tables_number      15
_space_group_name_Hall           '-C 2yn'
loop_
_symmetry_equiv_pos_site_id
_symmetry_equiv_pos_as_xyz
1 x,y,z
2 -x,y,1/2-z
3 1/2+x,1/2+y,z
4 1/2-x,1/2+y,1/2-z
5 -x,-y,-z
6 x,-y,1/2+z
7 1/2-x,1/2-y,-z
8 1/2+x,1/2-y,1/2+z
_cell_length_a                   28.205(6)
_cell_length_b                   12.181(2)
_cell_length_c                   15.442(3)
_cell_angle_alpha                90
_cell_angle_beta                 108.09(3)
_cell_angle_gamma                90
_cell_volume                     5043.09
loop_
_atom_site_label
_atom_site_type_symbol
_atom_site_fract_x
_atom_site_fract_y
_atom_site_fract_z
Co1 Co 0.140241(16) 1.24261(3) 0.47233(3)
S1 S 0.17294(3) 0.72210(7) 0.40133(6)
O1 O 0.08394(8) 1.2060(2) 0.52011(16)
O2 O 0.06128(9) 1.1797(2) 0.37165(16)
O3 O -0.14396(8) 1.0916(2) 0.45437(15)
O4 O -0.30330(9) 1.24017(18) 0.08576(15)
O5 O -0.33234(9) 1.0721(2) 0.09670(15)
N1 N 0.16971(10) 1.1080(2) 0.42764(17)
N2 N 0.17486(10) 0.9420(2) 0.37526(17)
N3 N 0.13664(10) 0.5287(2) 0.31944(18)
N4 N 0.13683(10) 0.3667(2) 0.38299(18)
C1 C 0.14463(13) 1.0281(2) 0.3762(2)
H1 H 0.1107 1.0304 0.3447
C2 C 0.21815(12) 1.0713(3) 0.4630(2)
H2 H 0.2443 1.1108 0.5023
C3 C 0.22177(12) 0.9692(3) 0.4317(2)
H3 H 0.2503 0.9258 0.4455
C4 C 0.15890(12) 0.8387(3) 0.3338(2)
C5 C 0.13004(13) 0.8173(3) 0.2473(2)
H4 H 0.1191 0.8706 0.2024
C6 C 0.11846(13) 0.7042(3) 0.2337(2)
H5 H 0.0989 0.6746 0.1787
C7 C 0.13905(13) 0.6443(3) 0.3096(2)
C8 C 0.14065(13) 0.4734(3) 0.3974(2)
H6 H 0.1455 0.5064 0.4538
C9 C 0.12974(14) 0.4520(3) 0.2510(2)
H7 H 0.1262 0.4653 0.1900
C10 C 0.12927(15) 0.3539(3) 0.2908(2)
H8 H 0.1245 0.2869 0.2605
C11 C 0.05093(13) 1.1790(3) 0.4445(2)
C12 C 0.00013(12) 1.1505(3) 0.4468(2)
C13 C -0.03787(12) 1.1304(3) 0.3662(2)
H9 H -0.0310 1.1312 0.3111
C14 C -0.08623(12) 1.1089(3) 0.3671(2)
H10 H -0.1114 1.0942 0.3131
C15 C -0.09633(12) 1.1097(3) 0.4485(2)
C16 C -0.05873(14) 1.1269(3) 0.5295(2)
H11 H -0.0657 1.1253 0.5845
C17 C -0.01119(14) 1.1463(3) 0.5282(2)
H12 H 0.0141 1.1569 0.5829
C18 C -0.18361(12) 1.1070(3) 0.3741(2)
C19 C -0.21133(13) 1.0166(3) 0.3339(2)
H13 H -0.2037 0.9470 0.3591
C20 C -0.25081(13) 1.0324(3) 0.2550(2)
H14 H -0.2703 0.9726 0.2277
C21 C -0.26192(12) 1.1352(3) 0.2160(2)
C22 C -0.23345(13) 1.2248(3) 0.2584(2)
H15 H -0.2405 1.2943 0.2325
C23 C -0.19492(13) 1.2116(3) 0.3386(2)
H16 H -0.1769 1.2719 0.3684
C24 C -0.30259(12) 1.1488(3) 0.1267(2)
Co1_2 Co 0.140241(16) 0.24261(3) 0.47233(3)
Co1G Co -0.359759(16) 1.25739(3) -0.02767(3)
O4G O 0.19670(9) 1.25983(18) 0.58576(15)
N4_2 N 0.13683(10) 1.3667(2) 0.38299(18)
loop_
_geom_bond_atom_site_label_1
_geom_bond_atom_site_label_2
_geom_bond_site_symmetry_1
_geom_bond_site_symmetry_2
Co1 O1 1_555 1_555
S1 C4 1_555 1_555
O1 C11 1_555 1_555
O2 Co1 1_555 1_555
O3 C15 1_555 1_555
O4 C24 1_555 1_555
O5 C24 1_555 1_555
N1 Co1 1_555 1_555
N2 C1 1_555 1_555
N3 C7 1_555 1_555
N4 C8 1_555 1_555
C1 N1 1_555 1_555
H1 C1 1_555 1_555
C2 N1 1_555 1_555
H2 C2 1_555 1_555
C3 N2 1_555 1_555
H3 C3 1_555 1_555
C4 N2 1_555 1_555
C5 C4 1_555 1_555
H4 C5 1_555 1_555
C6 C5 1_555 1_555
H5 C6 1_555 1_555
C7 S1 1_555 1_555
C8 N3 1_555 1_555
H6 C8 1_555 1_555
C9 N3 1_555 1_555
H7 C9 1_555 1_555
C10 N4 1_555 1_555
H8 C10 1_555 1_555
C11 O2 1_555 1_555
C12 C11 1_555 1_555
C13 C12 1_555 1_555
H9 C13 1_555 1_555
C14 C13 1_555 1_555
H10 C14 1_555 1_555
C15 C14 1_555 1_555
C16 C15 1_555 1_555
H11 C16 1_555 1_555
C17 C12 1_555 1_555
H12 C17 1_555 1_555
C18 O3 1_555 1_555
C19 C18 1_555 1_555
H13 C19 1_555 1_555
C20 C19 1_555 1_555
H14 C20 1_555 1_555
C21 C20 1_555 1_555
C22 C21 1_555 1_555
H15 C22 1_555 1_555
C23 C18 1_555 1_555
H16 C23 1_555 1_555
C24 C21 1_555 1_555
Co1_2 N4 1_555 1_555
Co1G O4 1_555 1_555
O4G Co1 1_555 1_555
N4_2 Co1 1_555 1_555
C2 C3 1_555 1_555
C6 C7 1_555 1_555
C9 C10 1_555 1_555
C16 C17 1_555 1_555
C22 C23 1_555 1_555

#END
