
#######################################################################
#
#                 Cambridge Crystallographic Data Centre
#                                CCDC 
#
#######################################################################
#
# If this CIF has been generated from an entry in the Cambridge 
# Structural Database, then it will include bibliographic, chemical, 
# crystal, experimental, refinement or atomic coordinate data resulting 
# from the CCDC's data processing and validation procedures.
#
#######################################################################

data_NOLXAP
_symmetry_cell_setting           monoclinic
_symmetry_space_group_name_H-M   'P 21/n'
_symmetry_Int_Tables_number      14
_space_group_name_Hall           '-P 2yn'
loop_
_symmetry_equiv_pos_site_id
_symmetry_equiv_pos_as_xyz
1 x,y,z
2 1/2-x,1/2+y,1/2-z
3 -x,-y,-z
4 1/2+x,1/2-y,1/2+z
_cell_length_a                   7.2476(6)
_cell_length_b                   17.4087(15)
_cell_length_c                   15.9969(14)
_cell_angle_alpha                90
_cell_angle_beta                 90.364(2)
_cell_angle_gamma                90
_cell_volume                     2018.31
loop_
_atom_site_label
_atom_site_type_symbol
_atom_site_fract_x
_atom_site_fract_y
_atom_site_fract_z
Co1 Co 0.14735(11) 0.18564(4) 0.71834(4)
S1 S 0.8020(2) 0.41172(9) 0.69288(9)
O1 O -0.0238(6) 0.1689(2) 0.6242(2)
O2 O -0.2360(6) 0.1125(3) 0.7038(2)
O3 O -0.7990(6) 0.0139(2) 0.5653(2)
H1 H -0.9072 0.0001 0.5665
O4 O -0.8792(6) 0.0565(2) 0.4377(2)
O5 O -0.4736(7) 0.2414(2) 0.2964(2)
O6 O -0.1888(7) 0.2609(2) 0.3413(2)
N1 N 0.3342(7) 0.2475(2) 0.6508(3)
N2 N 0.5606(6) 0.3210(2) 0.6082(3)
N3 N 1.1271(7) 0.4865(3) 0.6782(4)
N4 N 1.2822(7) 0.5823(3) 0.7352(3)
C1 C 0.4947(8) 0.2777(3) 0.6713(3)
H2 H 0.5545 0.2701 0.7222
C2 C 0.2956(8) 0.2719(3) 0.5707(3)
H3 H 0.1906 0.2591 0.5401
C3 C 0.4326(7) 0.3170(3) 0.5437(3)
H4 H 0.4402 0.3409 0.4919
C4 C 0.7263(8) 0.3617(3) 0.6063(4)
C5 C 0.8389(8) 0.3710(3) 0.5390(4)
H5 H 0.8165 0.3489 0.4870
C6 C 0.9932(8) 0.4179(3) 0.5569(4)
H6 H 1.0855 0.4297 0.5189
C7 C 0.9888(8) 0.4438(3) 0.6378(4)
C8 C 1.1249(8) 0.5589(3) 0.7021(3)
H7 H 1.0222 0.5905 0.6962
C9 C 1.2848(11) 0.4532(5) 0.7150(5)
H8 H 1.3167 0.4015 0.7168
C10 C 1.3808(11) 0.5141(5) 0.7474(6)
H9 H 1.4951 0.5107 0.7738
C11 C -0.1795(8) 0.1381(3) 0.6361(3)
C12 C -0.3060(8) 0.1350(3) 0.5608(3)
C13 C -0.2625(8) 0.1751(3) 0.4884(3)
H10 H -0.1498 0.2004 0.4849
C14 C -0.3841(9) 0.1779(3) 0.4213(3)
C15 C -0.5481(9) 0.1379(3) 0.4246(3)
H11 H -0.6295 0.1394 0.3794
C16 C -0.5924(8) 0.0953(3) 0.4952(3)
C17 C -0.4732(8) 0.0950(3) 0.5646(3)
H12 H -0.5051 0.0684 0.6128
C18 C -0.7697(8) 0.0536(3) 0.4973(3)
C19 C -0.3410(10) 0.2291(3) 0.3486(3)
Co1A Co 1.35265(11) 0.68564(4) 0.78166(4)
Co1C Co -0.35265(11) 0.31436(4) 0.21834(4)
O5C O 0.0264(7) 0.2586(2) 0.7964(2)
N4A N 0.2178(7) 0.0823(3) 0.7648(3)
O7 O 0.6849(9) 0.1725(4) 0.8827(3)
loop_
_geom_bond_atom_site_label_1
_geom_bond_atom_site_label_2
_geom_bond_site_symmetry_1
_geom_bond_site_symmetry_2
Co1 O1 1_555 1_555
S1 C4 1_555 1_555
O1 C11 1_555 1_555
O2 C11 1_555 1_555
O3 H1 1_555 1_555
O4 C18 1_555 1_555
O5 C19 1_555 1_555
O6 C19 1_555 1_555
N1 Co1 1_555 1_555
N2 C1 1_555 1_555
N3 C7 1_555 1_555
N4 C8 1_555 1_555
C1 N1 1_555 1_555
H2 C1 1_555 1_555
C2 N1 1_555 1_555
H3 C2 1_555 1_555
C3 N2 1_555 1_555
H4 C3 1_555 1_555
C4 N2 1_555 1_555
C5 C4 1_555 1_555
H5 C5 1_555 1_555
C6 C5 1_555 1_555
H6 C6 1_555 1_555
C7 S1 1_555 1_555
C8 N3 1_555 1_555
H7 C8 1_555 1_555
C9 N3 1_555 1_555
H8 C9 1_555 1_555
C10 N4 1_555 1_555
H9 C10 1_555 1_555
C11 C12 1_555 1_555
C12 C13 1_555 1_555
C13 H10 1_555 1_555
C14 C13 1_555 1_555
C15 C14 1_555 1_555
H11 C15 1_555 1_555
C16 C15 1_555 1_555
C17 C12 1_555 1_555
H12 C17 1_555 1_555
C18 O3 1_555 1_555
C19 C14 1_555 1_555
Co1A N4 1_555 1_555
Co1C O5 1_555 1_555
O5C Co1 1_555 1_555
N4A Co1 1_555 1_555
C2 C3 1_555 1_555
C6 C7 1_555 1_555
C9 C10 1_555 1_555
C16 C17 1_555 1_555
C16 C18 1_555 1_555

#END
