
#######################################################################
#
#                 Cambridge Crystallographic Data Centre
#                                CCDC 
#
#######################################################################
#
# If this CIF has been generated from an entry in the Cambridge 
# Structural Database, then it will include bibliographic, chemical, 
# crystal, experimental, refinement or atomic coordinate data resulting 
# from the CCDC's data processing and validation procedures.
#
#######################################################################

data_NOLYOC
_symmetry_cell_setting           tetragonal
_symmetry_space_group_name_H-M   'P 43 21 2'
_symmetry_Int_Tables_number      96
_space_group_name_Hall           'P 4nw 2abw'
loop_
_symmetry_equiv_pos_site_id
_symmetry_equiv_pos_as_xyz
1 x,y,z
2 -x,-y,1/2+z
3 1/2-y,1/2+x,3/4+z
4 1/2+y,1/2-x,1/4+z
5 1/2-x,1/2+y,3/4-z
6 1/2+x,1/2-y,1/4-z
7 y,x,-z
8 -y,-x,1/2-z
_cell_length_a                   8.997(1)
_cell_length_b                   8.997(1)
_cell_length_c                   24.571(4)
_cell_angle_alpha                90
_cell_angle_beta                 90
_cell_angle_gamma                90
_cell_volume                     1988.92
loop_
_atom_site_label
_atom_site_type_symbol
_atom_site_fract_x
_atom_site_fract_y
_atom_site_fract_z
Zn1 Zn 0.77277(2) 0.19302(2) -0.186470(6)
O1 O 0.59375(11) 0.79235(11) -0.00525(4)
C1 C 0.53305(14) 0.9218(2) -0.01923(5)
C2 C 0.5525(2) 1.0510(2) 0.01142(7)
H1 H 0.6053(2) 1.0467(2) 0.04391(7)
C3 C 0.4946(2) 1.1844(2) -0.00567(9)
H2 H 0.5092(2) 1.2693(2) 0.01528(9)
C4 C 0.4148(2) 1.1939(2) -0.05374(8)
H3 H 0.3771(2) 1.2847(2) -0.06543(8)
C5 C 0.3919(2) 1.0663(2) -0.08421(6)
H4 H 0.3375(2) 1.0719(2) -0.11632(6)
C6 C 0.44883(14) 0.9302(2) -0.06765(5)
C7 C 0.4243(2) 0.7916(2) -0.10046(6)
H5 H 0.3815(2) 0.7152(2) -0.07742(6)
H6 H 0.3547(2) 0.8121(2) -0.12964(6)
N1 N 0.56640(13) 0.73698(13) -0.12382(4)
H7 H 0.60325(13) 0.81350(13) -0.14393(4)
C8 C 0.5508(2) 0.61034(15) -0.16188(5)
H8 H 0.4469(2) 0.57772(15) -0.16164(5)
C9 C 0.6487(2) 0.47930(15) -0.14505(5)
C10 C 0.5906(3) 0.6602(2) -0.21951(6)
H9 H 0.5133(9) 0.7232(15) -0.2334(3)
H10 H 0.6009(18) 0.5746(2) -0.2425(2)
H11 H 0.6827(9) 0.7141(15) -0.21878(11)
O2 O 0.74040(14) 0.49582(11) -0.10690(4)
O3 O 0.63021(12) 0.36130(11) -0.17181(4)
Zn1D Zn 0.72723(2) 0.69302(2) -0.063530(6)
Zn1C Zn 0.69302(2) 0.72723(2) 0.063530(6)
O1F O 0.79235(11) 0.59375(11) 0.00525(4)
O3D O 0.86979(12) 0.86130(11) -0.07819(4)
loop_
_geom_bond_atom_site_label_1
_geom_bond_atom_site_label_2
_geom_bond_site_symmetry_1
_geom_bond_site_symmetry_2
Zn1 O3 1_555 1_555
O1 C1 1_555 1_555
C1 C2 1_555 1_555
C2 H1 1_555 1_555
C3 C2 1_555 1_555
H2 C3 1_555 1_555
C4 C3 1_555 1_555
H3 C4 1_555 1_555
C5 C4 1_555 1_555
H4 C5 1_555 1_555
C6 C1 1_555 1_555
C7 C6 1_555 1_555
H5 C7 1_555 1_555
H6 C7 1_555 1_555
N1 C7 1_555 1_555
H7 N1 1_555 1_555
C8 N1 1_555 1_555
H8 C8 1_555 1_555
C9 C8 1_555 1_555
C10 C8 1_555 1_555
H9 C10 1_555 1_555
H10 C10 1_555 1_555
H11 C10 1_555 1_555
O2 C9 1_555 1_555
O3 C9 1_555 1_555
Zn1D O1 1_555 1_555
Zn1C O1 1_555 1_555
O1F Zn1D 1_555 1_555
O3D Zn1D 1_555 1_555
C5 C6 1_555 1_555
N1 Zn1D 1_555 1_555
O2 Zn1D 1_555 1_555
Zn1C O1F 1_555 1_555

#END
