
#######################################################################
#
#                 Cambridge Crystallographic Data Centre
#                                CCDC 
#
#######################################################################
#
# If this CIF has been generated from an entry in the Cambridge 
# Structural Database, then it will include bibliographic, chemical, 
# crystal, experimental, refinement or atomic coordinate data resulting 
# from the CCDC's data processing and validation procedures.
#
#######################################################################

data_NOMFIG
_symmetry_cell_setting           monoclinic
_symmetry_space_group_name_H-M   'P 21/c'
_symmetry_Int_Tables_number      14
_space_group_name_Hall           '-P 2ybc'
loop_
_symmetry_equiv_pos_site_id
_symmetry_equiv_pos_as_xyz
1 x,y,z
2 -x,1/2+y,1/2-z
3 -x,-y,-z
4 x,1/2-y,1/2+z
_cell_length_a                   7.8275(3)
_cell_length_b                   9.4883(3)
_cell_length_c                   7.6738(3)
_cell_angle_alpha                90
_cell_angle_beta                 108.524(4)
_cell_angle_gamma                90
_cell_volume                     540.403
loop_
_atom_site_label
_atom_site_type_symbol
_atom_site_fract_x
_atom_site_fract_y
_atom_site_fract_z
Mn1 Mn 1.0000 1.0000 0.0000
O1 O 0.97172(17) 1.40969(12) 0.23666(16)
O2 O 0.50990(14) 1.21780(16) 0.00371(16)
O3 O 1.2968(2) 1.00465(13) 0.0702(3)
O4 O 1.02420(16) 1.20281(12) 0.13091(16)
C1 C 0.50936(18) 1.3493(2) -0.00112(18)
N1 N 0.63957(18) 1.42302(14) -0.0339(2)
C2 C 0.6480(2) 1.57679(18) -0.0295(3)
H1 H 0.6596 1.6094 -0.1450
H2 H 0.7564 1.6048 0.0672
C3 C 0.9400(2) 1.31615(15) 0.1166(2)
C4 C 0.7917(2) 1.34895(16) -0.0638(2)
H3 H 0.8413 1.4064 -0.1405
H4 H 0.7492 1.2615 -0.1286
H5 H 1.338(4) 1.072(3) 0.036(4)
H6 H 1.345(4) 0.940(3) 0.033(4)
O1B O 0.02828(17) 1.59031(12) -0.23666(16)
O2B O 0.49010(14) 1.78220(16) -0.00371(16)
O4B O -0.02420(16) 1.79719(12) -0.13091(16)
C1B C 0.49064(18) 1.6507(2) 0.00112(18)
N1B N 0.36043(18) 1.57698(14) 0.0339(2)
C2B C 0.3520(2) 1.42321(18) 0.0295(3)
H1B H 0.3404 1.3906 0.1450
H2B H 0.2436 1.3952 -0.0672
C3B C 0.0600(2) 1.68385(15) -0.1166(2)
C4B C 0.2083(2) 1.65105(16) 0.0638(2)
H3B H 0.1587 1.5936 0.1405
H4B H 0.2508 1.7385 0.1286
O3B O 0.7032(2) 0.99535(13) -0.0702(3)
H5B H 0.662(4) 0.928(3) -0.036(4)
H6B H 0.655(4) 1.060(3) -0.033(4)
Mn1_2 Mn 0.0000 2.0000 0.0000
Mn1A Mn 0.0000 1.5000 -0.5000
Mn1A_2 Mn 1.0000 1.5000 0.5000
O1A O 1.02828(17) 0.90969(12) 0.26334(16)
O1C O 0.97172(17) 1.09031(12) -0.26334(16)
O4B_2 O 0.97580(16) 0.79719(12) -0.13091(16)
loop_
_geom_bond_atom_site_label_1
_geom_bond_atom_site_label_2
_geom_bond_site_symmetry_1
_geom_bond_site_symmetry_2
Mn1 O3 1_555 1_555
O1 C3 1_555 1_555
O2 C1 1_555 1_555
O3 H5 1_555 1_555
O4 Mn1 1_555 1_555
C1 N1 1_555 1_555
N1 C2 1_555 1_555
C2 H1 1_555 1_555
H2 C2 1_555 1_555
C3 O4 1_555 1_555
C4 N1 1_555 1_555
H3 C4 1_555 1_555
H4 C4 1_555 1_555
H6 O3 1_555 1_555
O1B C3B 1_555 1_555
O2B C1B 1_555 1_555
O4B C3B 1_555 1_555
C1B C2 1_555 1_555
N1B C1B 1_555 1_555
C2B C1 1_555 1_555
H1B C2B 1_555 1_555
H2B C2B 1_555 1_555
C3B C4B 1_555 1_555
C4B N1B 1_555 1_555
H3B C4B 1_555 1_555
H4B C4B 1_555 1_555
O3B Mn1 1_555 1_555
H5B O3B 1_555 1_555
H6B O3B 1_555 1_555
Mn1_2 O4B 1_555 1_555
Mn1A O1B 1_555 1_555
Mn1A_2 O1 1_555 1_555
O1A Mn1 1_555 1_555
O1C Mn1 1_555 1_555
O4B_2 Mn1 1_555 1_555
C3 C4 1_555 1_555
N1B C2B 1_555 1_555

#END
