
#######################################################################
#
#                 Cambridge Crystallographic Data Centre
#                                CCDC 
#
#######################################################################
#
# If this CIF has been generated from an entry in the Cambridge 
# Structural Database, then it will include bibliographic, chemical, 
# crystal, experimental, refinement or atomic coordinate data resulting 
# from the CCDC's data processing and validation procedures.
#
#######################################################################

data_NOMFOM
_symmetry_cell_setting           monoclinic
_symmetry_space_group_name_H-M   'P 21/c'
_symmetry_Int_Tables_number      14
_space_group_name_Hall           '-P 2ybc'
loop_
_symmetry_equiv_pos_site_id
_symmetry_equiv_pos_as_xyz
1 x,y,z
2 -x,1/2+y,1/2-z
3 -x,-y,-z
4 x,1/2-y,1/2+z
_cell_length_a                   7.7479(6)
_cell_length_b                   9.4157(6)
_cell_length_c                   7.5296(5)
_cell_angle_alpha                90
_cell_angle_beta                 108.562(8)
_cell_angle_gamma                90
_cell_volume                     520.724
loop_
_atom_site_label
_atom_site_type_symbol
_atom_site_fract_x
_atom_site_fract_y
_atom_site_fract_z
Fe1 Fe 1.0000 1.0000 0.0000
O1 O 1.48925(14) 1.28450(13) 0.49054(15)
O2 O 0.96818(15) 1.29900(11) 0.36105(15)
O3 O 1.02318(15) 1.08771(11) 0.25850(15)
N1 N 1.35892(17) 1.07828(13) 0.53370(18)
C1 C 1.4904(2) 1.15185(18) 0.49818(19)
C2 C 1.3509(2) 0.92337(16) 0.5325(2)
H1 H 1.2411 0.8941 0.4350
H2 H 1.3401 0.8921 0.6513
C3 C 1.2053(2) 1.15354(16) 0.5635(2)
H3 H 1.2481 1.2423 0.6279
H4 H 1.1556 1.0966 0.6430
C4 C 1.0547(2) 1.18478(16) 0.3789(2)
O4 O 1.29173(17) 0.99626(13) 0.07248(19)
H5 H 1.344(3) 1.062(3) 0.041(3)
H6 H 1.335(3) 0.925(3) 0.050(3)
O1B O 1.51075(14) 0.71550(13) 0.50946(15)
O2B O 2.03182(15) 0.70100(11) 0.63895(15)
O3B O 1.97682(15) 0.91229(11) 0.74150(15)
N1B N 1.64108(17) 0.92172(13) 0.46630(18)
C1B C 1.5096(2) 0.84815(18) 0.50182(19)
C2B C 1.6491(2) 1.07663(16) 0.4675(2)
H1B H 1.7589 1.1059 0.5650
H2B H 1.6599 1.1079 0.3487
C3B C 1.7947(2) 0.84646(16) 0.4365(2)
H3B H 1.7519 0.7577 0.3721
H4B H 1.8444 0.9034 0.3570
C4B C 1.9453(2) 0.81522(16) 0.6211(2)
O4B O 0.70827(17) 1.00374(13) -0.07248(19)
H5B H 0.656(3) 0.938(3) -0.041(3)
H6B H 0.665(3) 1.075(3) -0.050(3)
Fe1_2 Fe 2.0000 1.0000 1.0000
Fe1A Fe 1.0000 1.5000 0.5000
Fe1A_2 Fe 2.0000 0.5000 0.5000
O2A O 1.03182(15) 0.79900(11) 0.13895(15)
O2C O 0.96818(15) 1.20100(11) -0.13895(15)
O3B_2 O 0.97682(15) 0.91229(11) -0.25850(15)
loop_
_geom_bond_atom_site_label_1
_geom_bond_atom_site_label_2
_geom_bond_site_symmetry_1
_geom_bond_site_symmetry_2
Fe1 O3 1_555 1_555
O1 C1 1_555 1_555
O2 C4 1_555 1_555
O3 C4 1_555 1_555
N1 C1 1_555 1_555
C1 C2B 1_555 1_555
C2 N1 1_555 1_555
H1 C2 1_555 1_555
H2 C2 1_555 1_555
C3 N1 1_555 1_555
H3 C3 1_555 1_555
H4 C3 1_555 1_555
C4 C3 1_555 1_555
O4 Fe1 1_555 1_555
H5 O4 1_555 1_555
H6 O4 1_555 1_555
O1B C1B 1_555 1_555
O2B C4B 1_555 1_555
O3B C4B 1_555 1_555
N1B C1B 1_555 1_555
C1B C2 1_555 1_555
C2B N1B 1_555 1_555
H1B C2B 1_555 1_555
H2B C2B 1_555 1_555
C3B N1B 1_555 1_555
H3B C3B 1_555 1_555
H4B C3B 1_555 1_555
C4B C3B 1_555 1_555
O4B Fe1 1_555 1_555
H5B O4B 1_555 1_555
H6B O4B 1_555 1_555
Fe1_2 O3B 1_555 1_555
Fe1A O2 1_555 1_555
Fe1A_2 O2B 1_555 1_555
O2A Fe1 1_555 1_555
O2C Fe1 1_555 1_555
O3B_2 Fe1 1_555 1_555

#END
