
#######################################################################
#
#                 Cambridge Crystallographic Data Centre
#                                CCDC 
#
#######################################################################
#
# If this CIF has been generated from an entry in the Cambridge 
# Structural Database, then it will include bibliographic, chemical, 
# crystal, experimental, refinement or atomic coordinate data resulting 
# from the CCDC's data processing and validation procedures.
#
#######################################################################

data_NOMFUS
_symmetry_cell_setting           monoclinic
_symmetry_space_group_name_H-M   'P 21/c'
_symmetry_Int_Tables_number      14
_space_group_name_Hall           '-P 2ybc'
loop_
_symmetry_equiv_pos_site_id
_symmetry_equiv_pos_as_xyz
1 x,y,z
2 -x,1/2+y,1/2-z
3 -x,-y,-z
4 x,1/2-y,1/2+z
_cell_length_a                   7.7384(3)
_cell_length_b                   9.3942(4)
_cell_length_c                   7.5455(3)
_cell_angle_alpha                90
_cell_angle_beta                 108.574(4)
_cell_angle_gamma                90
_cell_volume                     519.957
loop_
_atom_site_label
_atom_site_type_symbol
_atom_site_fract_x
_atom_site_fract_y
_atom_site_fract_z
Co1 Co 0.5000 0.5000 0.0000
O1 O 0.52677(15) 0.69619(12) 0.13696(16)
N1 N 0.14128(17) 0.92184(14) -0.03303(19)
C1 C 0.44345(19) 0.81161(16) 0.1218(2)
O2 O 0.47554(16) 0.90623(13) 0.24429(16)
C2 C 0.2953(2) 0.84657(16) -0.0627(2)
H1 H 0.3472 0.9050 -0.1389
H2 H 0.2520 0.7589 -0.1302
O3 O 0.78636(19) 0.50323(14) 0.0686(2)
O4 O 0.00928(15) 0.71489(14) 0.00509(17)
C3 C 0.00894(18) 0.84773(19) -0.00029(19)
C4 C 0.1502(2) 1.07703(17) -0.0300(2)
H3 H 0.1619 1.1091 -0.1479
H4 H 0.2599 1.1057 0.0681
H5 H 0.827(4) 0.572(3) 0.043(3)
H6 H 0.833(4) 0.439(3) 0.038(4)
O1B O -0.52677(15) 1.30381(12) -0.13696(16)
N1B N -0.14128(17) 1.07816(14) 0.03303(19)
C1B C -0.44345(19) 1.18839(16) -0.1218(2)
O2B O -0.47554(16) 1.09377(13) -0.24429(16)
C2B C -0.2953(2) 1.15343(16) 0.0627(2)
H1B H -0.3472 1.0950 0.1389
H2B H -0.2520 1.2411 0.1302
O4B O -0.00928(15) 1.28511(14) -0.00509(17)
C3B C -0.00894(18) 1.15227(19) 0.00029(19)
C4B C -0.1502(2) 0.92297(17) 0.0300(2)
H3B H -0.1619 0.8909 0.1479
H4B H -0.2599 0.8943 -0.0681
O3B O 0.21364(19) 0.49677(14) -0.0686(2)
H5B H 0.173(4) 0.428(3) -0.043(3)
H6B H 0.167(4) 0.561(3) -0.038(4)
Co1_2 Co -0.5000 1.5000 0.0000
Co1A Co -0.5000 1.0000 -0.5000
Co1A_2 Co 0.5000 1.0000 0.5000
O1B_2 O 0.47323(15) 0.30381(12) -0.13696(16)
O2A O 0.52446(16) 0.40623(13) 0.25571(16)
O2C O 0.47554(16) 0.59377(13) -0.25571(16)
loop_
_geom_bond_atom_site_label_1
_geom_bond_atom_site_label_2
_geom_bond_site_symmetry_1
_geom_bond_site_symmetry_2
Co1 O1 1_555 1_555
O1 C1 1_555 1_555
N1 C2 1_555 1_555
C1 O2 1_555 1_555
O2 Co1A_2 1_555 1_555
C2 C1 1_555 1_555
H1 C2 1_555 1_555
H2 C2 1_555 1_555
O3 Co1 1_555 1_555
O4 C3 1_555 1_555
C3 N1 1_555 1_555
C4 N1 1_555 1_555
H3 C4 1_555 1_555
H4 C4 1_555 1_555
H5 O3 1_555 1_555
H6 O3 1_555 1_555
O1B C1B 1_555 1_555
N1B C2B 1_555 1_555
C1B O2B 1_555 1_555
O2B Co1A 1_555 1_555
C2B C1B 1_555 1_555
H1B C2B 1_555 1_555
H2B C2B 1_555 1_555
O4B C3B 1_555 1_555
C3B C4 1_555 1_555
C4B C3 1_555 1_555
H3B C4B 1_555 1_555
H4B C4B 1_555 1_555
O3B Co1 1_555 1_555
H5B O3B 1_555 1_555
H6B O3B 1_555 1_555
Co1_2 O1B 1_555 1_555
O1B_2 Co1 1_555 1_555
O2A Co1 1_555 1_555
O2C Co1 1_555 1_555
N1B C3B 1_555 1_555
N1B C4B 1_555 1_555

#END
