
#######################################################################
#
#                 Cambridge Crystallographic Data Centre
#                                CCDC 
#
#######################################################################
#
# If this CIF has been generated from an entry in the Cambridge 
# Structural Database, then it will include bibliographic, chemical, 
# crystal, experimental, refinement or atomic coordinate data resulting 
# from the CCDC's data processing and validation procedures.
#
#######################################################################

data_NOMGAZ
_symmetry_cell_setting           monoclinic
_symmetry_space_group_name_H-M   'C 2/c'
_symmetry_Int_Tables_number      15
_space_group_name_Hall           '-C 2yn'
loop_
_symmetry_equiv_pos_site_id
_symmetry_equiv_pos_as_xyz
1 x,y,z
2 -x,y,1/2-z
3 1/2+x,1/2+y,z
4 1/2-x,1/2+y,1/2-z
5 -x,-y,-z
6 x,-y,1/2+z
7 1/2-x,1/2-y,-z
8 1/2+x,1/2-y,1/2+z
_cell_length_a                   20.5479(8)
_cell_length_b                   4.65730(10)
_cell_length_c                   13.9774(6)
_cell_angle_alpha                90
_cell_angle_beta                 124.401(6)
_cell_angle_gamma                90
_cell_volume                     1103.66
loop_
_atom_site_label
_atom_site_type_symbol
_atom_site_fract_x
_atom_site_fract_y
_atom_site_fract_z
Cu1 Cu 0.2500 -0.7500 -0.5000
O1 O 0.03393(9) -0.1222(4) -0.61002(14)
O2 O 0.26640(8) -0.1647(3) -0.36178(14)
O3 O 0.18947(8) -0.5472(3) -0.45277(13)
N1 N 0.06981(9) -0.3391(4) -0.44258(15)
C1 C 0.05257(12) -0.5232(5) -0.37568(18)
H1 H 0.0486 -0.4034 -0.3224
H2 H 0.0970 -0.6514 -0.3295
C2 C 0.02118(12) -0.2977(5) -0.55630(18)
C3 C 0.14540(12) -0.1894(5) -0.37993(19)
H3 H 0.1675 -0.1970 -0.2976
H4 H 0.1363 0.0109 -0.4030
C4 C 0.20558(11) -0.3108(4) -0.39993(17)
O4 O 0.15146(9) -0.9279(4) -0.62438(13)
H5 H 0.1205(16) -0.963(6) -0.612(2)
H6 H 0.1674(18) -1.080(7) -0.636(3)
O1D O -0.03393(9) -0.8778(4) -0.38998(14)
O2D O -0.26640(8) -0.8353(3) -0.63822(14)
O3D O -0.18947(8) -0.4528(3) -0.54723(13)
N1D N -0.06981(9) -0.6609(4) -0.55742(15)
C1D C -0.05257(12) -0.4768(5) -0.62432(18)
H1D H -0.0486 -0.5966 -0.6776
H2D H -0.0970 -0.3486 -0.6705
C2D C -0.02118(12) -0.7023(5) -0.44370(18)
C3D C -0.14540(12) -0.8106(5) -0.62007(19)
H3D H -0.1675 -0.8030 -0.7024
H4D H -0.1363 -1.0109 -0.5970
C4D C -0.20558(11) -0.6892(4) -0.60007(17)
O4F O 0.34854(9) -0.5721(4) -0.37562(13)
H5F H 0.3795(16) -0.537(6) -0.388(2)
H6F H 0.3326(18) -0.420(7) -0.364(3)
Cu1_2 Cu 0.2500 0.2500 -0.5000
Cu1B Cu -0.2500 -1.2500 -0.5000
Cu1B_2 Cu -0.2500 -0.2500 -0.5000
O2_2 O 0.26640(8) -1.1647(3) -0.36178(14)
O2F O 0.23360(8) -0.3353(3) -0.63822(14)
O3F O 0.31053(8) -0.9528(3) -0.54723(13)
loop_
_geom_bond_atom_site_label_1
_geom_bond_atom_site_label_2
_geom_bond_site_symmetry_1
_geom_bond_site_symmetry_2
Cu1 O3 1_555 1_555
O1 C2 1_555 1_555
O2 C4 1_555 1_555
O3 C4 1_555 1_555
N1 C1 1_555 1_555
C1 H1 1_555 1_555
H2 C1 1_555 1_555
C2 N1 1_555 1_555
C3 N1 1_555 1_555
H3 C3 1_555 1_555
H4 C3 1_555 1_555
C4 C3 1_555 1_555
O4 Cu1 1_555 1_555
H5 O4 1_555 1_555
H6 O4 1_555 1_555
O1D C2D 1_555 1_555
O2D C4D 1_555 1_555
O3D C4D 1_555 1_555
N1D C1D 1_555 1_555
C1D C2 1_555 1_555
H1D C1D 1_555 1_555
H2D C1D 1_555 1_555
C2D C1 1_555 1_555
C3D N1D 1_555 1_555
H3D C3D 1_555 1_555
H4D C3D 1_555 1_555
C4D C3D 1_555 1_555
O4F Cu1 1_555 1_555
H5F O4F 1_555 1_555
H6F O4F 1_555 1_555
Cu1_2 O2 1_555 1_555
Cu1B O2D 1_555 1_555
Cu1B_2 O3D 1_555 1_555
O2_2 Cu1 1_555 1_555
O2F Cu1 1_555 1_555
O3F Cu1 1_555 1_555
N1D C2D 1_555 1_555

#END
