
#######################################################################
#
#                 Cambridge Crystallographic Data Centre
#                                CCDC 
#
#######################################################################
#
# If this CIF has been generated from an entry in the Cambridge 
# Structural Database, then it will include bibliographic, chemical, 
# crystal, experimental, refinement or atomic coordinate data resulting 
# from the CCDC's data processing and validation procedures.
#
#######################################################################

data_NOMHAZ
_symmetry_cell_setting           monoclinic
_symmetry_space_group_name_H-M   'P 21/n'
_symmetry_Int_Tables_number      14
_space_group_name_Hall           '-P 2yn'
loop_
_symmetry_equiv_pos_site_id
_symmetry_equiv_pos_as_xyz
1 x,y,z
2 1/2-x,1/2+y,1/2-z
3 -x,-y,-z
4 1/2+x,1/2-y,1/2+z
_cell_length_a                   12.562(3)
_cell_length_b                   9.459(2)
_cell_length_c                   16.824(4)
_cell_angle_alpha                90
_cell_angle_beta                 108.594(4)
_cell_angle_gamma                90
_cell_volume                     1894.75
loop_
_atom_site_label
_atom_site_type_symbol
_atom_site_fract_x
_atom_site_fract_y
_atom_site_fract_z
Mn1 Mn 0.5000 0.0000 0.5000
Mn2 Mn 0.0000 0.0000 0.5000
S1 S 0.25625(6) 0.13932(9) 0.52295(5)
O1 O -0.00102(18) -0.0529(2) 0.62765(14)
H1 H -0.0658 -0.0916 0.6271
H2 H 0.0558 -0.0956 0.6728
O2 O 0.35719(18) 0.0502(2) 0.53635(14)
O3 O 0.17584(18) 0.0568(2) 0.55447(14)
O4 O 0.20441(18) 0.1688(2) 0.43357(13)
O5 O 0.28708(19) 0.2695(2) 0.57160(14)
N1 N 0.6084(2) 0.1099(3) 0.61651(17)
N2 N 0.4991(2) -0.2085(3) 0.57367(16)
N3 N -0.0500(2) 0.2233(3) 0.52152(17)
C1 C 0.7075(3) 0.1669(4) 0.6187(2)
H3 H 0.7214 0.1428 0.5682
C2 C 0.7733(3) 0.2461(4) 0.6858(2)
H4 H 0.8454 0.2715 0.6829
C3 C 0.7363(3) 0.2660(4) 0.7540(2)
H5 H 0.7813 0.3231 0.7968
C4 C 0.6363(3) 0.2062(4) 0.7528(2)
H6 H 0.6034 0.2062 0.7984
C5 C 0.5738(3) 0.1313(4) 0.6835(2)
H7 H 0.4990 0.0843 0.6738
C6 C 0.5529(3) -0.3251(4) 0.5612(2)
H8 H 0.5843 -0.3111 0.5095
C7 C 0.5577(3) -0.4489(4) 0.6053(2)
H9 H 0.6009 -0.5351 0.5960
C8 C 0.5048(3) -0.4548(4) 0.6658(2)
H10 H 0.5048 -0.5473 0.6942
C9 C 0.4497(3) -0.3368(4) 0.6803(2)
H11 H 0.4050 -0.3243 0.7252
C10 C 0.4487(3) -0.2163(4) 0.6329(2)
H12 H 0.4050 -0.1301 0.6382
C11 C -0.1454(3) 0.2817(4) 0.4716(2)
H13 H -0.1809 0.2347 0.4146
C12 C -0.1795(3) 0.4178(4) 0.4842(2)
H14 H -0.2429 0.4445 0.4352
C13 C -0.1136(3) 0.4938(4) 0.5520(2)
H15 H -0.1285 0.5880 0.5666
C14 C -0.0171(3) 0.4341(4) 0.6043(2)
H16 H 0.0317 0.4822 0.6427
C15 C 0.0128(3) 0.2998(4) 0.5869(2)
H17 H 0.0851 0.2595 0.6213
Mn1_2 Mn -0.5000 0.0000 0.5000
S1B S -0.25625(6) -0.13932(9) 0.47705(5)
O1B O 0.00102(18) 0.0529(2) 0.37235(14)
H1B H 0.0658 0.0916 0.3729
H2B H -0.0558 0.0956 0.3272
O2B O -0.35719(18) -0.0502(2) 0.46365(14)
O2B_2 O 0.64281(18) -0.0502(2) 0.46365(14)
O3B O -0.17584(18) -0.0568(2) 0.44553(14)
O4B O -0.20441(18) -0.1688(2) 0.56643(13)
O5B O -0.28708(19) -0.2695(2) 0.42840(14)
N1B N 0.3916(2) -0.1099(3) 0.38349(17)
N2B N 0.5009(2) 0.2085(3) 0.42633(16)
N3B N 0.0500(2) -0.2233(3) 0.47848(17)
C1B C 0.2925(3) -0.1669(4) 0.3813(2)
H3B H 0.2786 -0.1428 0.4318
C2B C 0.2267(3) -0.2461(4) 0.3142(2)
H4B H 0.1546 -0.2715 0.3171
C3B C 0.2637(3) -0.2660(4) 0.2460(2)
H5B H 0.2187 -0.3231 0.2032
C4B C 0.3637(3) -0.2062(4) 0.2472(2)
H6B H 0.3966 -0.2062 0.2016
C5B C 0.4262(3) -0.1313(4) 0.3165(2)
H7B H 0.5010 -0.0843 0.3262
C6B C 0.4471(3) 0.3251(4) 0.4388(2)
H8B H 0.4157 0.3111 0.4905
C7B C 0.4423(3) 0.4489(4) 0.3947(2)
H9B H 0.3991 0.5351 0.4040
C8B C 0.4952(3) 0.4548(4) 0.3342(2)
H10B H 0.4952 0.5473 0.3058
C9B C 0.5503(3) 0.3368(4) 0.3197(2)
H11B H 0.5950 0.3243 0.2748
C10B C 0.5513(3) 0.2163(4) 0.3671(2)
H12B H 0.5950 0.1301 0.3618
C11B C 0.1454(3) -0.2817(4) 0.5284(2)
H13B H 0.1809 -0.2347 0.5854
C12B C 0.1795(3) -0.4178(4) 0.5158(2)
H14B H 0.2429 -0.4445 0.5648
C13B C 0.1136(3) -0.4938(4) 0.4480(2)
H15B H 0.1285 -0.5880 0.4334
C14B C 0.0171(3) -0.4341(4) 0.3957(2)
H16B H -0.0317 -0.4822 0.3573
C15B C -0.0128(3) -0.2998(4) 0.4131(2)
H17B H -0.0851 -0.2595 0.3787
O6 O 0.8451(2) 0.2086(3) 0.24262(15)
H18 H 0.8332 0.2057 0.1878
H19 H 0.8243 0.3103 0.2509
O7 O 0.7130(2) -0.0094(3) 0.27462(15)
H20 H 0.7554 -0.0136 0.3286
H21 H 0.7619 0.0247 0.2473
loop_
_geom_bond_atom_site_label_1
_geom_bond_atom_site_label_2
_geom_bond_site_symmetry_1
_geom_bond_site_symmetry_2
Mn1 O2 1_555 1_555
Mn2 O1 1_555 1_555
S1 O2 1_555 1_555
O1 H1 1_555 1_555
H2 O1 1_555 1_555
O3 Mn2 1_555 1_555
O4 S1 1_555 1_555
O5 S1 1_555 1_555
N1 Mn1 1_555 1_555
N2 Mn1 1_555 1_555
N3 Mn2 1_555 1_555
C1 N1 1_555 1_555
H3 C1 1_555 1_555
C2 C1 1_555 1_555
H4 C2 1_555 1_555
C3 C2 1_555 1_555
H5 C3 1_555 1_555
C4 C3 1_555 1_555
H6 C4 1_555 1_555
C5 N1 1_555 1_555
H7 C5 1_555 1_555
C6 N2 1_555 1_555
H8 C6 1_555 1_555
C7 C6 1_555 1_555
H9 C7 1_555 1_555
C8 C7 1_555 1_555
H10 C8 1_555 1_555
C9 C8 1_555 1_555
H11 C9 1_555 1_555
C10 N2 1_555 1_555
H12 C10 1_555 1_555
C11 N3 1_555 1_555
H13 C11 1_555 1_555
C12 C11 1_555 1_555
H14 C12 1_555 1_555
C13 C12 1_555 1_555
H15 C13 1_555 1_555
C14 C13 1_555 1_555
H16 C14 1_555 1_555
C15 N3 1_555 1_555
H17 C15 1_555 1_555
O6 H18 1_555 1_555
H19 O6 1_555 1_555
O7 H20 1_555 1_555
H21 O7 1_555 1_555
Mn1_2 O2B 1_555 1_555
S1B O2B 1_555 1_555
O1B Mn2 1_555 1_555
H1B O1B 1_555 1_555
H2B O1B 1_555 1_555
O2B_2 Mn1 1_555 1_555
O3B Mn2 1_555 1_555
O4B S1B 1_555 1_555
O5B S1B 1_555 1_555
N1B Mn1 1_555 1_555
N2B Mn1 1_555 1_555
N3B Mn2 1_555 1_555
C1B N1B 1_555 1_555
H3B C1B 1_555 1_555
C2B C1B 1_555 1_555
H4B C2B 1_555 1_555
C3B C2B 1_555 1_555
H5B C3B 1_555 1_555
C4B C3B 1_555 1_555
H6B C4B 1_555 1_555
C5B N1B 1_555 1_555
H7B C5B 1_555 1_555
C6B N2B 1_555 1_555
H8B C6B 1_555 1_555
C7B C6B 1_555 1_555
H9B C7B 1_555 1_555
C8B C7B 1_555 1_555
H10B C8B 1_555 1_555
C9B C8B 1_555 1_555
H11B C9B 1_555 1_555
C10B N2B 1_555 1_555
H12B C10B 1_555 1_555
C11B N3B 1_555 1_555
H13B C11B 1_555 1_555
C12B C11B 1_555 1_555
H14B C12B 1_555 1_555
C13B C12B 1_555 1_555
H15B C13B 1_555 1_555
C14B C13B 1_555 1_555
H16B C14B 1_555 1_555
C15B N3B 1_555 1_555
H17B C15B 1_555 1_555
S1 O3 1_555 1_555
C4 C5 1_555 1_555
C9 C10 1_555 1_555
C14 C15 1_555 1_555
S1B O3B 1_555 1_555
C4B C5B 1_555 1_555
C9B C10B 1_555 1_555
C14B C15B 1_555 1_555

#END
