
#######################################################################
#
#                 Cambridge Crystallographic Data Centre
#                                CCDC 
#
#######################################################################
#
# If this CIF has been generated from an entry in the Cambridge 
# Structural Database, then it will include bibliographic, chemical, 
# crystal, experimental, refinement or atomic coordinate data resulting 
# from the CCDC's data processing and validation procedures.
#
#######################################################################

data_NOMJEG
_symmetry_cell_setting           triclinic
_symmetry_space_group_name_H-M   'P -1'
_symmetry_Int_Tables_number      2
_space_group_name_Hall           '-P 1'
loop_
_symmetry_equiv_pos_site_id
_symmetry_equiv_pos_as_xyz
1 x,y,z
2 -x,-y,-z
_cell_length_a                   12.475(3)
_cell_length_b                   13.731(3)
_cell_length_c                   14.309(3)
_cell_angle_alpha                62.98(3)
_cell_angle_beta                 65.69(3)
_cell_angle_gamma                78.00(3)
_cell_volume                     1989.24
loop_
_atom_site_label
_atom_site_type_symbol
_atom_site_fract_x
_atom_site_fract_y
_atom_site_fract_z
O23 O 0.699(7) 1.129(6) 0.855(6)
Cu1 Cu 0.8496(4) 1.5415(3) 1.0798(4)
Cu2 Cu 0.6329(4) 2.4233(4) 1.3146(4)
N1 N 0.839(3) 1.458(2) 1.010(2)
N2 N 0.603(3) 2.340(2) 1.254(3)
N3 N 0.648(3) 1.506(2) 0.382(2)
N4 N 0.804(3) 1.422(2) 0.891(2)
N5 N 0.851(2) 1.646(2) 1.128(2)
N6 N 0.697(2) 1.5642(18) 0.477(2)
N7 N 0.831(3) 1.813(2) 1.125(2)
N8 N 0.571(3) 2.198(2) 1.243(2)
C1 C 0.773(4) 1.563(4) 0.538(4)
H1 H 0.7808 1.6372 0.5290
H2 H 0.8523 1.5307 0.5110
C2 C 0.706(4) 1.479(3) 0.445(3)
H3 H 0.7498 1.4121 0.4664
C3 C 0.612(3) 2.232(3) 1.290(3)
H4 H 0.6454 2.1851 1.3446
C4 C 0.700(4) 1.941(3) 1.193(3)
H5 H 0.7232 1.9084 1.2603
H6 H 0.6297 1.9039 1.2120
C5 C 0.624(3) 1.644(3) 0.432(3)
H7 H 0.6019 1.7124 0.4386
C6 C 0.801(3) 1.498(3) 0.929(3)
H8 H 0.7746 1.5713 0.8986
C7 C 0.672(3) 2.063(2) 1.163(3)
H9 H 0.7433 2.0999 1.1439
H10 H 0.6496 2.0954 1.0962
C8 C 0.891(3) 1.645(3) 1.201(3)
H11 H 0.9211 1.5814 1.2489
C9 C 0.590(3) 1.606(3) 0.378(3)
H12 H 0.5351 1.6417 0.3415
C10 C 0.574(3) 2.082(3) 1.258(3)
H13 H 0.4985 2.0656 1.2628
H14 H 0.5855 2.0326 1.3300
C11 C 0.796(3) 1.926(2) 1.098(3)
H15 H 0.7713 1.9558 1.0331
H16 H 0.8649 1.9682 1.0769
C12 C 0.859(3) 1.349(2) 1.038(3)
H17 H 0.8887 1.2990 1.0948
C13 C 0.884(3) 1.741(3) 1.199(3)
H18 H 0.9107 1.7593 1.2426
C14 C 0.553(3) 2.372(3) 1.178(3)
H19 H 0.5316 2.4452 1.1379
C15 C 0.539(2) 2.286(2) 1.167(2)
H20 H 0.5103 2.2866 1.1147
C16 C 0.816(3) 1.750(3) 1.080(3)
H21 H 0.7842 1.7768 1.0228
C17 C 0.831(3) 1.325(3) 0.971(3)
H22 H 0.8287 1.2540 0.9775
C18 C 0.773(3) 1.507(3) 0.723(3)
H23 H 0.8593 1.5004 0.6855
H24 H 0.7533 1.5784 0.7283
C19 C 0.728(6) 1.413(4) 0.838(4)
H25 H 0.6434 1.4230 0.8795
H26 H 0.7404 1.3415 0.8327
C20 C 0.702(5) 1.490(5) 0.659(4)
H27 H 0.7045 1.4130 0.6713
H28 H 0.6188 1.5162 0.6828
Si1 Si 1.0000 1.0000 1.5000
W1 W 0.96521(15) 1.22258(13) 1.57309(14)
W2 W 1.28098(14) 0.87174(14) 1.42400(15)
W3 W 0.98033(14) 1.04556(11) 1.24299(12)
W4 W 0.75397(13) 0.90627(11) 1.50162(13)
W5 W 0.94453(14) 1.26796(11) 1.31723(13)
W6 W 1.22530(12) 1.14068(10) 1.24103(11)
O1 O 0.922(2) 1.3910(17) 1.230(2)
O2 O 1.4103(18) 0.8151(15) 1.3865(17)
O3 O 0.640(2) 0.8620(17) 1.5025(19)
O4 O 0.974(2) 1.0719(19) 1.120(2)
O5 O 0.9495(19) 1.3236(16) 1.6096(18)
O6 O 1.113(2) 1.2449(18) 1.253(2)
O7 O 0.931(2) 1.1787(18) 1.251(2)
O8 O 1.332(3) 1.208(2) 1.116(2)
O9 O 1.134(2) 1.0892(17) 1.1950(19)
O10 O 1.129(2) 1.2030(19) 1.520(2)
O11 O 0.938(5) 1.107(4) 1.491(4)
O12 O 0.802(2) 1.2018(19) 1.615(2)
O13 O 0.696(2) 1.0360(19) 1.520(2)
O14 O 0.730(2) 0.837(2) 1.658(2)
O15 O 1.288(2) 0.9988(18) 1.294(2)
O16 O 1.037(2) 0.9015(17) 1.2908(19)
O17 O 0.833(2) 0.992(2) 1.345(2)
O18 O 1.126(3) 1.029(3) 1.439(3)
O19 O 0.795(3) 1.220(2) 1.427(3)
O20 O 0.969(3) 1.299(2) 1.427(3)
O21 O 1.028(4) 1.065(3) 1.387(3)
O22 O 0.959(3) 0.965(3) 1.441(3)
O11A O 1.062(5) 0.893(4) 1.509(4)
O18A O 0.874(3) 0.971(3) 1.561(3)
O21A O 0.972(4) 0.935(3) 1.613(3)
O22A O 1.041(3) 1.035(3) 1.559(3)
Cu1A Cu 1.1504(4) 0.4585(3) 1.9202(4)
Cu2A Cu 1.3671(4) -0.4233(4) 1.6854(4)
N1A N 1.161(3) 0.542(2) 1.990(2)
N2A N 1.397(3) -0.340(2) 1.746(3)
N3A N 1.352(3) 0.494(2) 2.618(2)
N4A N 1.196(3) 0.578(2) 2.109(2)
N5A N 1.149(2) 0.354(2) 1.872(2)
N6A N 1.303(2) 0.4358(18) 2.523(2)
N7A N 1.169(3) 0.187(2) 1.875(2)
N8A N 1.429(3) -0.198(2) 1.757(2)
C1A C 1.227(4) 0.437(4) 2.462(4)
H1A H 1.2192 0.3628 2.4710
H2A H 1.1477 0.4693 2.4890
C2A C 1.294(4) 0.521(3) 2.555(3)
H3A H 1.2502 0.5879 2.5336
C3A C 1.388(3) -0.232(3) 1.710(3)
H4A H 1.3546 -0.1851 1.6554
C4A C 1.300(4) 0.059(3) 1.807(3)
H5A H 1.2768 0.0916 1.7397
H6A H 1.3703 0.0961 1.7880
C5A C 1.376(3) 0.356(3) 2.568(3)
H7A H 1.3981 0.2876 2.5614
C6A C 1.199(3) 0.502(3) 2.071(3)
H8A H 1.2254 0.4287 2.1014
C7A C 1.328(3) -0.063(2) 1.837(3)
H9A H 1.2567 -0.0999 1.8561
H10A H 1.3504 -0.0954 1.9038
C8A C 1.109(3) 0.355(3) 1.799(3)
H11A H 1.0789 0.4186 1.7511
C9A C 1.410(3) 0.394(3) 2.622(3)
H12A H 1.4649 0.3583 2.6585
C10A C 1.426(3) -0.082(3) 1.742(3)
H13A H 1.5015 -0.0656 1.7372
H14A H 1.4145 -0.0326 1.6700
C11A C 1.204(3) 0.074(2) 1.902(3)
H15A H 1.2287 0.0442 1.9669
H16A H 1.1351 0.0318 1.9231
C12A C 1.141(3) 0.651(2) 1.962(3)
H17A H 1.1113 0.7010 1.9052
C13A C 1.116(3) 0.259(3) 1.801(3)
H18A H 1.0893 0.2407 1.7574
C14A C 1.447(3) -0.372(3) 1.822(3)
H19A H 1.4684 -0.4452 1.8621
C15A C 1.461(2) -0.286(2) 1.833(2)
H20A H 1.4897 -0.2866 1.8853
C16A C 1.184(3) 0.250(3) 1.920(3)
H21A H 1.2158 0.2232 1.9772
C17A C 1.169(3) 0.675(3) 2.029(3)
H22A H 1.1713 0.7460 2.0225
C18A C 1.227(3) 0.493(3) 2.277(3)
H23A H 1.1407 0.4996 2.3145
H24A H 1.2467 0.4216 2.2717
C19A C 1.272(6) 0.587(4) 2.162(4)
H25A H 1.3566 0.5770 2.1205
H26A H 1.2596 0.6585 2.1673
C20A C 1.298(5) 0.510(5) 2.341(4)
H27A H 1.2955 0.5870 2.3287
H28A H 1.3812 0.4838 2.3172
W1A W 1.03479(15) 0.77742(13) 1.42691(14)
W2A W 0.71902(14) 1.12826(14) 1.57600(15)
W3A W 1.01967(14) 0.95444(11) 1.75701(12)
W4A W 1.24603(13) 1.09373(11) 1.49838(13)
W5A W 1.05547(14) 0.73204(11) 1.68277(13)
W6A W 0.77470(12) 0.85932(10) 1.75897(11)
O1A O 1.078(2) 0.6090(17) 1.770(2)
O2A O 0.5897(18) 1.1849(15) 1.6135(17)
O3A O 1.360(2) 1.1380(17) 1.4975(19)
O4A O 1.026(2) 0.9281(19) 1.880(2)
O5A O 1.0505(19) 0.6764(16) 1.3904(18)
O6A O 0.887(2) 0.7551(18) 1.747(2)
O7A O 1.069(2) 0.8213(18) 1.749(2)
O8A O 0.668(3) 0.792(2) 1.884(2)
O9A O 0.866(2) 0.9108(17) 1.8050(19)
O10A O 0.871(2) 0.7970(19) 1.480(2)
O12A O 1.198(2) 0.7982(19) 1.385(2)
O13A O 1.304(2) 0.9640(19) 1.480(2)
O14A O 1.270(2) 1.163(2) 1.342(2)
O15A O 0.712(2) 1.0012(18) 1.706(2)
O16A O 0.963(2) 1.0985(17) 1.7092(19)
O17A O 1.167(2) 1.008(2) 1.655(2)
O19A O 1.205(3) 0.780(2) 1.573(3)
O20A O 1.031(3) 0.701(2) 1.573(3)
Cu2_2 Cu 0.6329(4) 1.4233(4) 0.3146(4)
Cu2A_2 Cu 1.3671(4) 0.5767(4) 2.6854(4)
N3_2 N 0.648(3) 2.506(2) 1.382(2)
N3A_2 N 1.352(3) -0.506(2) 1.618(2)
loop_
_geom_bond_atom_site_label_1
_geom_bond_atom_site_label_2
_geom_bond_site_symmetry_1
_geom_bond_site_symmetry_2
Cu1 N1 1_555 1_555
Cu2 N2 1_555 1_555
N1 C6 1_555 1_555
N2 C3 1_555 1_555
N3 C2 1_555 1_555
N4 C6 1_555 1_555
N5 Cu1 1_555 1_555
N6 C1 1_555 1_555
N7 C11 1_555 1_555
N8 C3 1_555 1_555
C1 H1 1_555 1_555
H2 C1 1_555 1_555
C2 N6 1_555 1_555
H3 C2 1_555 1_555
C3 H4 1_555 1_555
C4 H5 1_555 1_555
H6 C4 1_555 1_555
C5 N6 1_555 1_555
H7 C5 1_555 1_555
C6 H8 1_555 1_555
C7 C4 1_555 1_555
H9 C7 1_555 1_555
H10 C7 1_555 1_555
C8 N5 1_555 1_555
H11 C8 1_555 1_555
C9 N3 1_555 1_555
H12 C9 1_555 1_555
C10 N8 1_555 1_555
H13 C10 1_555 1_555
H14 C10 1_555 1_555
C11 C4 1_555 1_555
H15 C11 1_555 1_555
H16 C11 1_555 1_555
C12 N1 1_555 1_555
H17 C12 1_555 1_555
C13 N7 1_555 1_555
H18 C13 1_555 1_555
C14 N2 1_555 1_555
H19 C14 1_555 1_555
C15 N8 1_555 1_555
H20 C15 1_555 1_555
C16 N5 1_555 1_555
H21 C16 1_555 1_555
C17 N4 1_555 1_555
H22 C17 1_555 1_555
C18 H23 1_555 1_555
H24 C18 1_555 1_555
C19 N4 1_555 1_555
H25 C19 1_555 1_555
H26 C19 1_555 1_555
C20 C1 1_555 1_555
H27 C20 1_555 1_555
H28 C20 1_555 1_555
Si1 O11 1_555 1_555
W1 O5 1_555 1_555
W2 O2 1_555 1_555
W3 O4 1_555 1_555
W4 O3 1_555 1_555
W5 O1 1_555 1_555
W6 O6 1_555 1_555
O1 Cu1 1_555 1_555
O6 W5 1_555 1_555
O7 W3 1_555 1_555
O8 W6 1_555 1_555
O9 W3 1_555 1_555
O10 W1 1_555 1_555
O11 W5 1_555 1_555
O12 W1 1_555 1_555
O13 W4 1_555 1_555
O14 W4 1_555 1_555
O15 W2 1_555 1_555
O16 W3 1_555 1_555
O17 W3 1_555 1_555
O18 Si1 1_555 1_555
O19 W5 1_555 1_555
O20 W1 1_555 1_555
O21 Si1 1_555 1_555
O22 Si1 1_555 1_555
O11A Si1 1_555 1_555
O18A Si1 1_555 1_555
O21A Si1 1_555 1_555
O22A Si1 1_555 1_555
Cu1A N1A 1_555 1_555
Cu2A N2A 1_555 1_555
N1A C6A 1_555 1_555
N2A C3A 1_555 1_555
N3A C2A 1_555 1_555
N4A C6A 1_555 1_555
N5A Cu1A 1_555 1_555
N6A C1A 1_555 1_555
N7A C11A 1_555 1_555
N8A C3A 1_555 1_555
C1A H1A 1_555 1_555
H2A C1A 1_555 1_555
C2A N6A 1_555 1_555
H3A C2A 1_555 1_555
C3A H4A 1_555 1_555
C4A H5A 1_555 1_555
H6A C4A 1_555 1_555
C5A N6A 1_555 1_555
H7A C5A 1_555 1_555
C6A H8A 1_555 1_555
C7A C4A 1_555 1_555
H9A C7A 1_555 1_555
H10A C7A 1_555 1_555
C8A N5A 1_555 1_555
H11A C8A 1_555 1_555
C9A N3A 1_555 1_555
H12A C9A 1_555 1_555
C10A N8A 1_555 1_555
H13A C10A 1_555 1_555
H14A C10A 1_555 1_555
C11A C4A 1_555 1_555
H15A C11A 1_555 1_555
H16A C11A 1_555 1_555
C12A N1A 1_555 1_555
H17A C12A 1_555 1_555
C13A N7A 1_555 1_555
H18A C13A 1_555 1_555
C14A N2A 1_555 1_555
H19A C14A 1_555 1_555
C15A N8A 1_555 1_555
H20A C15A 1_555 1_555
C16A N5A 1_555 1_555
H21A C16A 1_555 1_555
C17A N4A 1_555 1_555
H22A C17A 1_555 1_555
C18A H23A 1_555 1_555
H24A C18A 1_555 1_555
C19A N4A 1_555 1_555
H25A C19A 1_555 1_555
H26A C19A 1_555 1_555
C20A C1A 1_555 1_555
H27A C20A 1_555 1_555
H28A C20A 1_555 1_555
W1A O16 1_555 1_555
W2A O12 1_555 1_555
W3A O21A 1_555 1_555
W4A O10 1_555 1_555
W5A O11A 1_555 1_555
W6A O14 1_555 1_555
O1A Cu1A 1_555 1_555
O2A W2A 1_555 1_555
O3A W4A 1_555 1_555
O4A W3A 1_555 1_555
O5A W1A 1_555 1_555
O6A W5A 1_555 1_555
O7A W3A 1_555 1_555
O8A W6A 1_555 1_555
O9A W3A 1_555 1_555
O10A W4 1_555 1_555
O12A W2 1_555 1_555
O13A W2 1_555 1_555
O14A W6 1_555 1_555
O15A W2A 1_555 1_555
O16A W1 1_555 1_555
O17A W3A 1_555 1_555
O19A W2 1_555 1_555
O20A W1A 1_555 1_555
Cu2_2 N3 1_555 1_555
Cu2A_2 N3A 1_555 1_555
N3_2 Cu2 1_555 1_555
N3A_2 Cu2A 1_555 1_555
N7 C16 1_555 1_555
C5 C9 1_555 1_555
C7 C10 1_555 1_555
C8 C13 1_555 1_555
C12 C17 1_555 1_555
C14 C15 1_555 1_555
C18 C19 1_555 1_555
C18 C20 1_555 1_555
W3 O21 1_555 1_555
W3 O22 1_555 1_555
W4 O17 1_555 1_555
W4 O18A 1_555 1_555
W5 O7 1_555 1_555
W5 O20 1_555 1_555
W6 O9 1_555 1_555
W6 O15 1_555 1_555
W6 O18 1_555 1_555
O11 O21 1_555 1_555
O11 O22A 1_555 1_555
O13 W2A 1_555 1_555
O18 O21 1_555 1_555
O18 O22A 1_555 1_555
O18 W4A 1_555 1_555
O19 W2A 1_555 1_555
O21 O22 1_555 1_555
O22 O11A 1_555 1_555
O22 O18A 1_555 1_555
O11A O21A 1_555 1_555
O18A O21A 1_555 1_555
O18A W6A 1_555 1_555
O21A O22A 1_555 1_555
O22A W3A 1_555 1_555
N7A C16A 1_555 1_555
C5A C9A 1_555 1_555
C7A C10A 1_555 1_555
C8A C13A 1_555 1_555
C12A C17A 1_555 1_555
C14A C15A 1_555 1_555
C18A C19A 1_555 1_555
C18A C20A 1_555 1_555
W1A O10A 1_555 1_555
W1A O12A 1_555 1_555
W3A O16A 1_555 1_555
W4A O13A 1_555 1_555
W4A O14A 1_555 1_555
W4A O17A 1_555 1_555
W5A O1A 1_555 1_555
W5A O7A 1_555 1_555
W5A O19A 1_555 1_555
W5A O20A 1_555 1_555
W6A O6A 1_555 1_555
W6A O9A 1_555 1_555
W6A O15A 1_555 1_555

#END
