
#######################################################################
#
#                 Cambridge Crystallographic Data Centre
#                                CCDC 
#
#######################################################################
#
# If this CIF has been generated from an entry in the Cambridge 
# Structural Database, then it will include bibliographic, chemical, 
# crystal, experimental, refinement or atomic coordinate data resulting 
# from the CCDC's data processing and validation procedures.
#
#######################################################################

data_NOMPIQ
_symmetry_cell_setting           monoclinic
_symmetry_space_group_name_H-M   'C 2/c'
_symmetry_Int_Tables_number      15
_space_group_name_Hall           '-C 2yn'
loop_
_symmetry_equiv_pos_site_id
_symmetry_equiv_pos_as_xyz
1 x,y,z
2 -x,y,1/2-z
3 1/2+x,1/2+y,z
4 1/2-x,1/2+y,1/2-z
5 -x,-y,-z
6 x,-y,1/2+z
7 1/2-x,1/2-y,-z
8 1/2+x,1/2-y,1/2+z
_cell_length_a                   22.476(5)
_cell_length_b                   7.7060(18)
_cell_length_c                   22.255(5)
_cell_angle_alpha                90
_cell_angle_beta                 102.056(11)
_cell_angle_gamma                90
_cell_volume                     3769.55
loop_
_atom_site_label
_atom_site_type_symbol
_atom_site_fract_x
_atom_site_fract_y
_atom_site_fract_z
Co1 Co 0.586564(9) -0.19299(3) 0.091002(9)
Co2 Co 0.5000 -0.5000 0.0000
O1 O 0.99325(5) 0.20204(16) 0.06118(6)
O2 O 1.02652(6) 0.2948(2) 0.15463(6)
O3 O 0.62964(7) 0.2018(2) 0.51944(6)
O4 O 0.55145(7) 0.3365(2) 0.45974(6)
O5 O 0.62679(7) -0.42222(18) 0.12693(7)
O6 O 0.57624(7) -0.61662(18) 0.06039(7)
O7 O 0.54358(7) 0.0423(2) 0.05561(8)
N1 N 0.65458(6) -0.05063(18) 0.14903(6)
C1 C 0.98437(7) 0.2321(2) 0.11500(8)
C2 C 0.92401(7) 0.1966(2) 0.13010(8)
C3 C 0.87238(8) 0.1753(3) 0.08430(8)
H1 H 0.8750 0.1836 0.0432
C4 C 0.81675(8) 0.1417(3) 0.09976(8)
H2 H 0.7820 0.1317 0.0689
C5 C 0.81248(7) 0.1228(2) 0.16107(7)
C6 C 0.86461(8) 0.1439(3) 0.20650(8)
H3 H 0.8626 0.1307 0.2476
C7 C 0.91944(8) 0.1842(3) 0.19112(8)
H4 H 0.9536 0.2033 0.2220
C8 C 0.75342(7) 0.0806(2) 0.17763(7)
C9 C 0.70878(7) -0.0106(2) 0.13682(7)
H5 H 0.7171 -0.0452 0.0994
C10 C 0.64276(7) -0.0013(2) 0.20286(7)
H6 H 0.6049 -0.0282 0.2111
C11 C 0.68417(7) 0.0881(2) 0.24721(7)
C12 C 0.74052(7) 0.1285(2) 0.23420(7)
H7 H 0.7695 0.1871 0.2630
C13 C 0.66565(7) 0.1353(2) 0.30536(7)
C14 C 0.70437(8) 0.1179(2) 0.36209(8)
H8 H 0.7443 0.0815 0.3646
C15 C 0.68377(8) 0.1546(3) 0.41532(8)
H9 H 0.7098 0.1406 0.4534
C16 C 0.62454(8) 0.2121(2) 0.41207(8)
C17 C 0.58606(8) 0.2327(3) 0.35516(8)
H10 H 0.5467 0.2735 0.3526
C18 C 0.60612(9) 0.1930(3) 0.30236(8)
H11 H 0.5798 0.2047 0.2643
C19 C 0.60058(8) 0.2546(2) 0.46835(7)
C20 C 0.61564(10) -0.5703(3) 0.10602(10)
H12 H 0.6397 -0.6585 0.1269
Co1D Co 0.413436(9) -0.80701(3) -0.091002(9)
O1D O 0.00675(5) -1.20204(16) -0.06118(6)
O2D O -0.02652(6) -1.2948(2) -0.15463(6)
O3D O 0.37036(7) -1.2018(2) -0.51944(6)
O4D O 0.44855(7) -1.3365(2) -0.45974(6)
O5D O 0.37321(7) -0.57778(18) -0.12693(7)
O6D O 0.42376(7) -0.38338(18) -0.06039(7)
O7D O 0.45642(7) -1.0423(2) -0.05561(8)
N1D N 0.34542(6) -0.94937(18) -0.14903(6)
C1D C 0.01563(7) -1.2321(2) -0.11500(8)
C2D C 0.07599(7) -1.1966(2) -0.13010(8)
C3D C 0.12762(8) -1.1753(3) -0.08430(8)
H1D H 0.1250 -1.1836 -0.0432
C4D C 0.18325(8) -1.1417(3) -0.09976(8)
H2D H 0.2180 -1.1317 -0.0689
C5D C 0.18752(7) -1.1228(2) -0.16107(7)
C6D C 0.13539(8) -1.1439(3) -0.20650(8)
H3D H 0.1374 -1.1307 -0.2476
C7D C 0.08056(8) -1.1842(3) -0.19112(8)
H4D H 0.0464 -1.2033 -0.2220
C8D C 0.24658(7) -1.0806(2) -0.17763(7)
C9D C 0.29122(7) -0.9894(2) -0.13682(7)
H5D H 0.2829 -0.9548 -0.0994
C10D C 0.35724(7) -0.9987(2) -0.20286(7)
H6D H 0.3951 -0.9718 -0.2111
C11D C 0.31583(7) -1.0881(2) -0.24721(7)
C12D C 0.25948(7) -1.1285(2) -0.23420(7)
H7D H 0.2305 -1.1871 -0.2630
C13D C 0.33435(7) -1.1353(2) -0.30536(7)
C14D C 0.29563(8) -1.1179(2) -0.36209(8)
H8D H 0.2557 -1.0815 -0.3646
C15D C 0.31623(8) -1.1546(3) -0.41532(8)
H9D H 0.2902 -1.1406 -0.4534
C16D C 0.37546(8) -1.2121(2) -0.41207(8)
C17D C 0.41394(8) -1.2327(3) -0.35516(8)
H10D H 0.4533 -1.2735 -0.3526
C18D C 0.39388(9) -1.1930(3) -0.30236(8)
H11D H 0.4202 -1.2047 -0.2643
C19D C 0.39942(8) -1.2546(2) -0.46835(7)
C20D C 0.38436(10) -0.4297(3) -0.10602(10)
H12D H 0.3603 -0.3415 -0.1269
Co1A Co 0.413436(9) -1.19299(3) -0.591002(9)
Co1B Co 1.086564(9) 0.30701(3) 0.091002(9)
Co1E Co 0.586564(9) 0.19299(3) 0.591002(9)
Co1F Co -0.086564(9) -1.30701(3) -0.091002(9)
Co2A Co 0.5000 -1.5000 -0.5000
Co2A_2 Co 0.5000 0.5000 0.5000
Co2B Co 0.0000 -1.0000 0.0000
Co2B_2 Co 1.0000 0.0000 0.0000
O1B O 0.49325(5) -0.29796(16) 0.06118(6)
O1F O 0.50675(5) -0.70204(16) -0.06118(6)
O2B O 0.52652(6) -0.2052(2) 0.15463(6)
O2F O 0.47348(6) -0.7948(2) -0.15463(6)
O3A O 0.37036(7) -0.7982(2) -0.01944(6)
O3E O 0.62964(7) -0.2018(2) 0.01944(6)
O4A O 0.44855(7) -0.6635(2) 0.04026(6)
O4E O 0.55145(7) -0.3365(2) -0.04026(6)
loop_
_geom_bond_atom_site_label_1
_geom_bond_atom_site_label_2
_geom_bond_site_symmetry_1
_geom_bond_site_symmetry_2
Co1 O5 1_555 1_555
Co2 O6 1_555 1_555
O1 C1 1_555 1_555
O2 C1 1_555 1_555
O3 C19 1_555 1_555
O4 C19 1_555 1_555
O5 C20 1_555 1_555
O6 C20 1_555 1_555
O7 Co1 1_555 1_555
N1 Co1 1_555 1_555
C1 C2 1_555 1_555
C2 C3 1_555 1_555
C3 H1 1_555 1_555
C4 C3 1_555 1_555
H2 C4 1_555 1_555
C5 C4 1_555 1_555
C6 C5 1_555 1_555
H3 C6 1_555 1_555
C7 C2 1_555 1_555
H4 C7 1_555 1_555
C8 C5 1_555 1_555
C9 N1 1_555 1_555
H5 C9 1_555 1_555
C10 N1 1_555 1_555
H6 C10 1_555 1_555
C11 C10 1_555 1_555
C12 C8 1_555 1_555
H7 C12 1_555 1_555
C13 C11 1_555 1_555
C14 C13 1_555 1_555
H8 C14 1_555 1_555
C15 C14 1_555 1_555
H9 C15 1_555 1_555
C16 C15 1_555 1_555
C17 C16 1_555 1_555
H10 C17 1_555 1_555
C18 C13 1_555 1_555
H11 C18 1_555 1_555
C19 C16 1_555 1_555
C20 H12 1_555 1_555
Co1D O5D 1_555 1_555
O1D C1D 1_555 1_555
O2D C1D 1_555 1_555
O3D C19D 1_555 1_555
O4D C19D 1_555 1_555
O5D C20D 1_555 1_555
O6D Co2 1_555 1_555
O7D Co1D 1_555 1_555
N1D Co1D 1_555 1_555
C1D C2D 1_555 1_555
C2D C3D 1_555 1_555
C3D H1D 1_555 1_555
C4D C3D 1_555 1_555
H2D C4D 1_555 1_555
C5D C4D 1_555 1_555
C6D C5D 1_555 1_555
H3D C6D 1_555 1_555
C7D C2D 1_555 1_555
H4D C7D 1_555 1_555
C8D C5D 1_555 1_555
C9D N1D 1_555 1_555
H5D C9D 1_555 1_555
C10D N1D 1_555 1_555
H6D C10D 1_555 1_555
C11D C10D 1_555 1_555
C12D C8D 1_555 1_555
H7D C12D 1_555 1_555
C13D C11D 1_555 1_555
C14D C13D 1_555 1_555
H8D C14D 1_555 1_555
C15D C14D 1_555 1_555
H9D C15D 1_555 1_555
C16D C15D 1_555 1_555
C17D C16D 1_555 1_555
H10D C17D 1_555 1_555
C18D C13D 1_555 1_555
H11D C18D 1_555 1_555
C19D C16D 1_555 1_555
C20D O6D 1_555 1_555
H12D C20D 1_555 1_555
Co1A O3D 1_555 1_555
Co1B O1 1_555 1_555
Co1E O3 1_555 1_555
Co1F O1D 1_555 1_555
Co2A O4D 1_555 1_555
Co2A_2 O4 1_555 1_555
Co2B O1D 1_555 1_555
Co2B_2 O1 1_555 1_555
O1B Co1 1_555 1_555
O1F Co2 1_555 1_555
O2B Co1 1_555 1_555
O2F Co1D 1_555 1_555
O3A Co1D 1_555 1_555
O3E Co1 1_555 1_555
O4A Co2 1_555 1_555
O4E Co2 1_555 1_555
Co2 O1B 1_555 1_555
O2 Co1B 1_555 1_555
C6 C7 1_555 1_555
C8 C9 1_555 1_555
C11 C12 1_555 1_555
C17 C18 1_555 1_555
Co1D O1F 1_555 1_555
O2D Co1F 1_555 1_555
C6D C7D 1_555 1_555
C8D C9D 1_555 1_555
C11D C12D 1_555 1_555
C17D C18D 1_555 1_555

#END
