
#######################################################################
#
#                 Cambridge Crystallographic Data Centre
#                                CCDC 
#
#######################################################################
#
# If this CIF has been generated from an entry in the Cambridge 
# Structural Database, then it will include bibliographic, chemical, 
# crystal, experimental, refinement or atomic coordinate data resulting 
# from the CCDC's data processing and validation procedures.
#
#######################################################################

data_NOMPUC
_symmetry_cell_setting           triclinic
_symmetry_space_group_name_H-M   'P -1'
_symmetry_Int_Tables_number      2
_space_group_name_Hall           '-P 1'
loop_
_symmetry_equiv_pos_site_id
_symmetry_equiv_pos_as_xyz
1 x,y,z
2 -x,-y,-z
_cell_length_a                   9.6769(17)
_cell_length_b                   10.0627(18)
_cell_length_c                   12.108(2)
_cell_angle_alpha                72.146(2)
_cell_angle_beta                 66.911(2)
_cell_angle_gamma                74.995(2)
_cell_volume                     1019.32
loop_
_atom_site_label
_atom_site_type_symbol
_atom_site_fract_x
_atom_site_fract_y
_atom_site_fract_z
O1 O 1.1585(3) 0.5609(3) 1.3572(2)
O2 O 1.3631(3) 0.4129(3) 1.2865(3)
C1 C 1.2498(4) 0.4991(4) 1.2731(3)
O3 O 0.4603(3) 1.2728(3) 0.5259(3)
O4 O 0.5388(3) 1.3859(2) 0.6156(2)
C2 C 0.5414(4) 1.2773(3) 0.5834(3)
C3 C 0.6494(4) 1.1458(3) 0.6138(3)
Mn1 Mn 1.31221(5) 0.45670(5) 0.47402(4)
N1 N 1.1758(3) 0.5934(3) 0.6172(2)
C4 C 1.2085(4) 0.5662(4) 0.7210(3)
H1 H 1.2867 0.4929 0.7323
C5 C 1.1315(4) 0.6420(3) 0.8124(3)
C6 C 1.0181(4) 0.7538(3) 0.7906(3)
H2 H 0.9647 0.8078 0.8489
C7 C 0.9832(4) 0.7861(3) 0.6837(3)
C8 C 1.0642(4) 0.7007(3) 0.6005(3)
H3 H 1.0401 0.7188 0.5296
C9 C 0.8661(4) 0.9092(3) 0.6594(3)
C10 C 0.7803(4) 0.9121(4) 0.5896(3)
H4 H 0.7945 0.8346 0.5577
C11 C 0.6737(4) 1.0292(4) 0.5667(3)
H5 H 0.6178 1.0294 0.5193
C12 C 0.7321(4) 1.1421(3) 0.6867(3)
H6 H 0.7142 1.2180 0.7216
C13 C 0.8407(4) 1.0265(3) 0.7076(3)
H7 H 0.8974 1.0269 0.7542
C14 C 1.1669(4) 0.6032(3) 0.9288(3)
C15 C 1.2769(7) 0.4968(6) 0.9532(5)
H8 H 1.3361 0.4448 0.8942
C16 C 1.3035(8) 0.4633(6) 1.0634(5)
H9 H 1.3802 0.3892 1.0765
C17 C 1.2214(4) 0.5350(4) 1.1527(3)
C18 C 1.1156(6) 0.6452(7) 1.1275(4)
H10 H 1.0595 0.6994 1.1853
C19 C 1.0893(7) 0.6790(7) 1.0166(4)
H11 H 1.0161 0.7560 1.0019
O5 O 1.1364(3) 0.3209(3) 0.5834(2)
O1_2 O 1.1585(3) 0.5609(3) 0.3572(2)
O2_2 O 1.3631(3) 0.4129(3) 0.2865(3)
O3_2 O 1.4603(3) 0.2728(3) 0.5259(3)
O4A O 1.4612(3) 0.6141(2) 0.3844(2)
Mn1_2 Mn 0.31221(5) 1.45670(5) 0.47402(4)
Mn1_3 Mn 1.31221(5) 0.45670(5) 1.47402(4)
Mn1A Mn 0.68779(5) 1.54330(5) 0.52598(4)
O6 O 0.1593(6) 1.0839(6) 0.7618(6)
C20 C 0.2650(8) 0.9903(9) 0.7732(7)
H12 H 0.2984 0.9272 0.7223
N2 N 0.3343(6) 0.9712(5) 0.8494(5)
C21 C 0.4523(9) 0.8572(8) 0.8694(8)
H13 H 0.4734 0.7953 0.8161
H14 H 0.4200 0.8054 0.9538
H15 H 0.5425 0.8943 0.8517
C22 C 0.3104(16) 1.0750(15) 0.9183(13)
H16 H 0.2792 1.1672 0.8734
H17 H 0.4034 1.0738 0.9298
H18 H 0.2327 1.0527 0.9972
loop_
_geom_bond_atom_site_label_1
_geom_bond_atom_site_label_2
_geom_bond_site_symmetry_1
_geom_bond_site_symmetry_2
O1 C1 1_555 1_555
O2 C1 1_555 1_555
C1 C17 1_555 1_555
O3 C2 1_555 1_555
O4 C2 1_555 1_555
C2 C3 1_555 1_555
C3 C11 1_555 1_555
Mn1 N1 1_555 1_555
N1 C4 1_555 1_555
C4 H1 1_555 1_555
C5 C4 1_555 1_555
C6 C5 1_555 1_555
H2 C6 1_555 1_555
C7 C6 1_555 1_555
C8 N1 1_555 1_555
H3 C8 1_555 1_555
C9 C7 1_555 1_555
C10 C9 1_555 1_555
H4 C10 1_555 1_555
C11 C10 1_555 1_555
H5 C11 1_555 1_555
C12 C3 1_555 1_555
H6 C12 1_555 1_555
C13 C9 1_555 1_555
H7 C13 1_555 1_555
C14 C5 1_555 1_555
C15 C14 1_555 1_555
H8 C15 1_555 1_555
C16 C15 1_555 1_555
H9 C16 1_555 1_555
C17 C16 1_555 1_555
C18 C17 1_555 1_555
H10 C18 1_555 1_555
C19 C14 1_555 1_555
H11 C19 1_555 1_555
O5 Mn1 1_555 1_555
O6 C20 1_555 1_555
C20 H12 1_555 1_555
N2 C20 1_555 1_555
C21 N2 1_555 1_555
H13 C21 1_555 1_555
H14 C21 1_555 1_555
H15 C21 1_555 1_555
C22 N2 1_555 1_555
H16 C22 1_555 1_555
H17 C22 1_555 1_555
H18 C22 1_555 1_555
O1_2 Mn1 1_555 1_555
O2_2 Mn1 1_555 1_555
O3_2 Mn1 1_555 1_555
O4A Mn1 1_555 1_555
Mn1_2 O3 1_555 1_555
Mn1_3 O1 1_555 1_555
Mn1A O4 1_555 1_555
O2 Mn1_3 1_555 1_555
C7 C8 1_555 1_555
C12 C13 1_555 1_555
C18 C19 1_555 1_555

#END
