
#######################################################################
#
#                 Cambridge Crystallographic Data Centre
#                                CCDC 
#
#######################################################################
#
# If this CIF has been generated from an entry in the Cambridge 
# Structural Database, then it will include bibliographic, chemical, 
# crystal, experimental, refinement or atomic coordinate data resulting 
# from the CCDC's data processing and validation procedures.
#
#######################################################################

data_NOMQAJ
_symmetry_cell_setting           monoclinic
_symmetry_space_group_name_H-M   'C 2/c'
_symmetry_Int_Tables_number      15
_space_group_name_Hall           '-C 2yn'
loop_
_symmetry_equiv_pos_site_id
_symmetry_equiv_pos_as_xyz
1 x,y,z
2 -x,y,1/2-z
3 1/2+x,1/2+y,z
4 1/2-x,1/2+y,1/2-z
5 -x,-y,-z
6 x,-y,1/2+z
7 1/2-x,1/2-y,-z
8 1/2+x,1/2-y,1/2+z
_cell_length_a                   17.343(17)
_cell_length_b                   15.231(15)
_cell_length_c                   8.426(12)
_cell_angle_alpha                90
_cell_angle_beta                 117.09(2)
_cell_angle_gamma                90
_cell_volume                     1981.56
loop_
_atom_site_label
_atom_site_type_symbol
_atom_site_fract_x
_atom_site_fract_y
_atom_site_fract_z
Zn1 Zn 0.5000 -0.01704(3) 0.7500
O1 O 0.39921(13) -0.00866(13) 0.8576(3)
O2 O 0.41367(13) 0.09173(15) 1.0637(3)
N1 N 0.0000 0.38132(19) 0.2500
C1 C 0.07085(15) 0.24414(16) 0.3812(3)
C2 C 0.37521(17) 0.06017(19) 0.9069(4)
C3 C 0.14865(15) 0.19749(16) 0.5187(3)
C4 C 0.0000 0.1983(2) 0.2500
H1 H 0.0000 0.1372 0.2500
C5 C 0.06650(15) 0.33542(16) 0.3773(3)
H2 H 0.1115 0.3666 0.4665
C6 C 0.24637(17) 0.07252(19) 0.6025(4)
H3 H 0.2623 0.0190 0.5728
C7 C 0.29547(16) 0.10814(18) 0.7740(3)
C8 C 0.19808(17) 0.23327(18) 0.6892(3)
H4 H 0.1826 0.2871 0.7184
C9 C 0.27036(17) 0.1884(2) 0.8151(3)
H5 H 0.3022 0.2125 0.9279
C10 C 0.17434(17) 0.11695(19) 0.4776(4)
H6 H 0.1426 0.0928 0.3648
O1A O -0.39921(13) -0.00866(13) -0.3576(3)
O2A O -0.41367(13) 0.09173(15) -0.5637(3)
C1A C -0.07085(15) 0.24414(16) 0.1188(3)
C2A C -0.37521(17) 0.06017(19) -0.4069(4)
C3A C -0.14865(15) 0.19749(16) -0.0187(3)
C5A C -0.06650(15) 0.33542(16) 0.1227(3)
H2A H -0.1115 0.3666 0.0335
C6A C -0.24637(17) 0.07252(19) -0.1025(4)
H3A H -0.2623 0.0190 -0.0728
C7A C -0.29547(16) 0.10814(18) -0.2740(3)
C8A C -0.19808(17) 0.23327(18) -0.1892(3)
H4A H -0.1826 0.2871 -0.2184
C9A C -0.27036(17) 0.1884(2) -0.3151(3)
H5A H -0.3022 0.2125 -0.4279
C10A C -0.17434(17) 0.11695(19) 0.0224(4)
H6A H -0.1426 0.0928 0.1352
Zn1_2 Zn -0.5000 -0.01704(3) -0.2500
Zn1D Zn -0.5000 0.01704(3) -0.7500
Zn1D_2 Zn 0.5000 0.01704(3) 1.2500
Zn1F Zn 0.0000 0.51704(3) 0.2500
O1A_2 O 0.60079(13) -0.00866(13) 0.6424(3)
O2D O 0.58633(13) -0.09173(15) 0.9363(3)
O2E O 0.41367(13) -0.09173(15) 0.5637(3)
N1F N 0.5000 0.11868(19) 0.7500
loop_
_geom_bond_atom_site_label_1
_geom_bond_atom_site_label_2
_geom_bond_site_symmetry_1
_geom_bond_site_symmetry_2
Zn1 O1 1_555 1_555
O1 C2 1_555 1_555
O2 C2 1_555 1_555
N1 C5 1_555 1_555
C1 C3 1_555 1_555
C2 C7 1_555 1_555
C3 C8 1_555 1_555
C4 C1 1_555 1_555
H1 C4 1_555 1_555
C5 C1 1_555 1_555
H2 C5 1_555 1_555
C6 H3 1_555 1_555
C7 C6 1_555 1_555
C8 H4 1_555 1_555
C9 C7 1_555 1_555
H5 C9 1_555 1_555
C10 C3 1_555 1_555
H6 C10 1_555 1_555
O1A C2A 1_555 1_555
O2A C2A 1_555 1_555
C1A C4 1_555 1_555
C2A C7A 1_555 1_555
C3A C1A 1_555 1_555
C5A N1 1_555 1_555
H2A C5A 1_555 1_555
C6A H3A 1_555 1_555
C7A C6A 1_555 1_555
C8A C3A 1_555 1_555
H4A C8A 1_555 1_555
C9A C7A 1_555 1_555
H5A C9A 1_555 1_555
C10A C3A 1_555 1_555
H6A C10A 1_555 1_555
Zn1_2 O1A 1_555 1_555
Zn1D O2A 1_555 1_555
Zn1D_2 O2 1_555 1_555
Zn1F N1 1_555 1_555
O1A_2 Zn1 1_555 1_555
O2D Zn1 1_555 1_555
O2E Zn1 1_555 1_555
N1F Zn1 1_555 1_555
C6 C10 1_555 1_555
C8 C9 1_555 1_555
C1A C5A 1_555 1_555
C6A C10A 1_555 1_555
C8A C9A 1_555 1_555

#END
