
#######################################################################
#
#                 Cambridge Crystallographic Data Centre
#                                CCDC 
#
#######################################################################
#
# If this CIF has been generated from an entry in the Cambridge 
# Structural Database, then it will include bibliographic, chemical, 
# crystal, experimental, refinement or atomic coordinate data resulting 
# from the CCDC's data processing and validation procedures.
#
#######################################################################

data_NOMQUB
_symmetry_cell_setting           monoclinic
_symmetry_space_group_name_H-M   'P 21/c'
_symmetry_Int_Tables_number      14
_space_group_name_Hall           '-P 2ybc'
loop_
_symmetry_equiv_pos_site_id
_symmetry_equiv_pos_as_xyz
1 x,y,z
2 x,1/2-y,1/2+z
3 -x,-y,-z
4 -x,1/2+y,1/2-z
_cell_length_a                   23.9806(2)
_cell_length_b                   9.0406(2)
_cell_length_c                   23.7996(4)
_cell_angle_alpha                90
_cell_angle_beta                 117.4300(10)
_cell_angle_gamma                90
_cell_volume                     4579.64
loop_
_atom_site_label
_atom_site_type_symbol
_atom_site_fract_x
_atom_site_fract_y
_atom_site_fract_z
Ag1 Ag 0.44599(3) -0.46586(7) 0.72915(3)
Ag2 Ag 0.31693(4) -0.36067(9) 0.56267(4)
S1 S 0.32374(10) -0.5821(2) 0.66568(10)
S2 S 0.53514(10) -0.2792(2) 0.83599(11)
O1 O 0.2558(4) -0.2057(7) 0.4677(3)
O2 O 0.3725(4) -0.6536(8) 0.4671(4)
O3 O 0.3126(4) -0.5980(7) 0.5085(4)
O4 O 0.3795(3) -0.4426(8) 0.5123(3)
N1 N 0.2454(3) 0.0254(8) 0.4955(4)
N3 N 0.3553(4) -0.5677(11) 0.4955(4)
N6 N 0.4275(3) -0.5335(6) 0.8115(3)
N7 N 0.2623(3) -0.3394(7) 0.6179(3)
N8 N 0.2432(3) -0.4505(6) 0.6983(3)
N9 N 0.5090(3) 0.0029(7) 0.8337(3)
N10 N 0.4828(3) -0.1468(7) 0.9000(3)
C1 C 0.3086(5) 0.0336(13) 0.5392(6)
H1 H 0.3293 -0.0566 0.5382
H2 H 0.3126 0.0480 0.5808
H3 H 0.3277 0.1152 0.5287
C2 C 0.2058(5) 0.1513(10) 0.4897(5)
H4 H 0.1635 0.1306 0.4585
H5 H 0.2210 0.2367 0.4771
H6 H 0.2065 0.1701 0.5298
C3 C 0.2231(5) -0.0928(12) 0.4608(5)
H7 H 0.1814 -0.0930 0.4297
C4 C 0.4623(4) -0.4712(8) 0.8686(4)
C5 C 0.4395(4) -0.4597(8) 0.9123(4)
H8 H 0.4632 -0.4122 0.9508
C6 C 0.3825(4) -0.5178(9) 0.8991(4)
H9 H 0.3672 -0.5116 0.9286
C7 C 0.3474(4) -0.5864(8) 0.8411(4)
H10 H 0.3083 -0.6267 0.8313
C8 C 0.3712(4) -0.5943(7) 0.7980(4)
C9 C 0.3380(4) -0.6758(7) 0.7381(4)
H11 H 0.2977 -0.7069 0.7344
H12 H 0.3618 -0.7648 0.7412
C10 C 0.5273(4) -0.4215(8) 0.8847(4)
H13 H 0.5509 -0.5070 0.8831
H14 H 0.5469 -0.3864 0.9281
C11 C 0.2209(4) -0.2328(9) 0.6126(4)
H15 H 0.2127 -0.1587 0.5827
C12 C 0.1908(4) -0.2277(9) 0.6481(4)
H16 H 0.1629 -0.1518 0.6437
C13 C 0.2031(4) -0.3393(9) 0.6911(4)
H17 H 0.1829 -0.3383 0.7163
C14 C 0.2712(3) -0.4431(8) 0.6615(4)
C15 C 0.4608(4) -0.0240(10) 0.9156(4)
H18 H 0.4435 -0.0331 0.9432
C16 C 0.4630(4) 0.1096(9) 0.8930(4)
H19 H 0.4484 0.1929 0.9050
C17 C 0.4876(4) 0.1194(9) 0.8517(4)
H20 H 0.4894 0.2117 0.8354
C18 C 0.5053(3) -0.1266(8) 0.8591(4)
N9C N 0.4910(3) -0.4971(7) 0.6663(3)
Ag1C Ag 0.55401(3) 0.03414(7) 0.77085(3)
Ag3 Ag 0.18963(3) 0.55337(7) 0.41868(3)
Ag4 Ag 0.05500(3) 0.39175(6) 0.26737(3)
S3 S 0.17883(10) 0.2924(2) 0.32229(9)
S4 S -0.04298(9) 0.56832(18) 0.16503(9)
O11 O 0.1243(3) 0.6644(7) 0.4760(3)
O12 O 0.1508(3) 0.4426(7) 0.4791(3)
O13 O 0.1094(3) 0.5107(7) 0.5360(3)
N5 N 0.1280(3) 0.5420(8) 0.4977(3)
N11 N 0.2398(3) 0.5421(6) 0.3600(3)
N12 N 0.2530(3) 0.4159(6) 0.2789(3)
N13 N 0.0647(3) 0.3201(5) 0.1816(3)
N14 N -0.0169(2) 0.8488(6) 0.1655(2)
N15 N -0.0017(3) 0.7007(6) 0.0909(3)
C19 C 0.2797(4) 0.6460(8) 0.3608(4)
H21 H 0.2895 0.7243 0.3891
C20 C 0.3063(4) 0.6403(8) 0.3212(4)
H22 H 0.3336 0.7138 0.3216
C21 C 0.2917(3) 0.5244(8) 0.2813(4)
H23 H 0.3095 0.5199 0.2540
C22 C 0.2287(3) 0.4316(7) 0.3189(3)
C23 C 0.1357(4) 0.2644(7) 0.1412(4)
H24 H 0.1746 0.2279 0.1479
C24 C 0.1201(3) 0.2636(7) 0.1897(3)
C25 C 0.1598(3) 0.1863(7) 0.2511(3)
H25 H 0.1988 0.1563 0.2514
H26 H 0.1381 0.0970 0.2527
C26 C 0.0943(4) 0.3189(8) 0.0825(4)
H27 H 0.1046 0.3195 0.0493
C27 C 0.0386(4) 0.3713(7) 0.0745(4)
H28 H 0.0098 0.4073 0.0351
C28 C 0.0235(3) 0.3721(6) 0.1243(3)
C29 C -0.0401(3) 0.4206(6) 0.1152(3)
H29 H -0.0610 0.3351 0.1217
H30 H -0.0646 0.4511 0.0715
C30 C 0.0041(3) 0.9665(7) 0.1462(3)
H31 H 0.0048 1.0585 0.1640
C31 C 0.0243(4) 0.9558(8) 0.1020(4)
H32 H 0.0407 1.0374 0.0909
C32 C 0.0199(4) 0.8225(8) 0.0744(3)
H33 H 0.0322 0.8145 0.0428
C33 C -0.0172(3) 0.7211(7) 0.1372(3)
N14C N 0.0169(2) 0.3488(6) 0.3345(2)
Ag4C Ag -0.05500(3) 0.89175(6) 0.23263(3)
O5 O 0.6241(3) -0.5114(7) 0.8062(3)
O6 O 0.6207(3) -0.7184(6) 0.7614(3)
O7 O 0.5900(3) -0.7035(6) 0.8333(3)
N2 N 0.6119(3) -0.6432(8) 0.8006(3)
O8 O 0.1304(3) 0.8502(6) 0.2966(3)
O9 O 0.1164(3) 0.6552(6) 0.2404(3)
O10 O 0.0892(3) 0.6565(5) 0.3144(3)
N4 N 0.1128(3) 0.7210(7) 0.2837(3)
loop_
_geom_bond_atom_site_label_1
_geom_bond_atom_site_label_2
_geom_bond_site_symmetry_1
_geom_bond_site_symmetry_2
Ag1 S1 1_555 1_555
Ag2 O1 1_555 1_555
Ag3 O12 1_555 1_555
Ag4 S3 1_555 1_555
S1 C9 1_555 1_555
S2 C10 1_555 1_555
S3 C22 1_555 1_555
S4 Ag4 1_555 1_555
O1 C3 1_555 1_555
O2 N3 1_555 1_555
O3 Ag2 1_555 1_555
O4 Ag2 1_555 1_555
O5 N2 1_555 1_555
O6 N2 1_555 1_555
O7 N2 1_555 1_555
O8 N4 1_555 1_555
O9 N4 1_555 1_555
O10 N4 1_555 1_555
O11 N5 1_555 1_555
O12 N5 1_555 1_555
O13 N5 1_555 1_555
N1 C1 1_555 1_555
N3 O3 1_555 1_555
N6 Ag1 1_555 1_555
N7 Ag2 1_555 1_555
N8 C13 1_555 1_555
N9 C17 1_555 1_555
N10 C15 1_555 1_555
N11 Ag3 1_555 1_555
N12 C21 1_555 1_555
N13 Ag4 1_555 1_555
N14 C30 1_555 1_555
N15 C32 1_555 1_555
C1 H1 1_555 1_555
H2 C1 1_555 1_555
H3 C1 1_555 1_555
C2 N1 1_555 1_555
H4 C2 1_555 1_555
H5 C2 1_555 1_555
H6 C2 1_555 1_555
C3 N1 1_555 1_555
H7 C3 1_555 1_555
C4 N6 1_555 1_555
C5 C4 1_555 1_555
H8 C5 1_555 1_555
C6 C5 1_555 1_555
H9 C6 1_555 1_555
C7 C6 1_555 1_555
H10 C7 1_555 1_555
C8 N6 1_555 1_555
C9 C8 1_555 1_555
H11 C9 1_555 1_555
H12 C9 1_555 1_555
C10 C4 1_555 1_555
H13 C10 1_555 1_555
H14 C10 1_555 1_555
C11 N7 1_555 1_555
H15 C11 1_555 1_555
C12 C11 1_555 1_555
H16 C12 1_555 1_555
C13 C12 1_555 1_555
H17 C13 1_555 1_555
C14 S1 1_555 1_555
C15 H18 1_555 1_555
C16 C15 1_555 1_555
H19 C16 1_555 1_555
C17 C16 1_555 1_555
H20 C17 1_555 1_555
C18 S2 1_555 1_555
C19 N11 1_555 1_555
H21 C19 1_555 1_555
C20 C19 1_555 1_555
H22 C20 1_555 1_555
C21 C20 1_555 1_555
H23 C21 1_555 1_555
C22 N11 1_555 1_555
C23 H24 1_555 1_555
C24 N13 1_555 1_555
C25 S3 1_555 1_555
H25 C25 1_555 1_555
H26 C25 1_555 1_555
C26 C23 1_555 1_555
H27 C26 1_555 1_555
C27 C26 1_555 1_555
H28 C27 1_555 1_555
C28 N13 1_555 1_555
C29 S4 1_555 1_555
H29 C29 1_555 1_555
H30 C29 1_555 1_555
C30 H31 1_555 1_555
C31 C30 1_555 1_555
H32 C31 1_555 1_555
C32 C31 1_555 1_555
H33 C32 1_555 1_555
C33 S4 1_555 1_555
N9C Ag1 1_555 1_555
N14C Ag4 1_555 1_555
Ag1C N9 1_555 1_555
Ag4C N14 1_555 1_555
O4 N3 1_555 1_555
N7 C14 1_555 1_555
N8 C14 1_555 1_555
N9 C18 1_555 1_555
N10 C18 1_555 1_555
N12 C22 1_555 1_555
N14 C33 1_555 1_555
N15 C33 1_555 1_555
C7 C8 1_555 1_555
C23 C24 1_555 1_555
C24 C25 1_555 1_555
C27 C28 1_555 1_555
C28 C29 1_555 1_555

#END
