
#######################################################################
#
#                 Cambridge Crystallographic Data Centre
#                                CCDC 
#
#######################################################################
#
# If this CIF has been generated from an entry in the Cambridge 
# Structural Database, then it will include bibliographic, chemical, 
# crystal, experimental, refinement or atomic coordinate data resulting 
# from the CCDC's data processing and validation procedures.
#
#######################################################################

data_NOMVER
_symmetry_cell_setting           triclinic
_symmetry_space_group_name_H-M   'P -1'
_symmetry_Int_Tables_number      2
_space_group_name_Hall           '-P 1'
loop_
_symmetry_equiv_pos_site_id
_symmetry_equiv_pos_as_xyz
1 x,y,z
2 -x,-y,-z
_cell_length_a                   9.1033(17)
_cell_length_b                   11.595(2)
_cell_length_c                   15.349(3)
_cell_angle_alpha                78.346(4)
_cell_angle_beta                 72.755(2)
_cell_angle_gamma                73.765(2)
_cell_volume                     1473.01
loop_
_atom_site_label
_atom_site_type_symbol
_atom_site_fract_x
_atom_site_fract_y
_atom_site_fract_z
C1 C -0.1792(4) 0.1624(3) 0.3729(2)
H1 H -0.2422 0.1066 0.3936
C2 C -0.2123(4) 0.2569(3) 0.3061(2)
H2 H -0.2938 0.2624 0.2794
C3 C -0.1244(4) 0.3439(3) 0.2784(2)
C4 C 0.0078(4) 0.3271(3) 0.3119(2)
H3 H 0.0738 0.3806 0.2888
C5 C 0.0416(4) 0.2324(3) 0.3786(2)
H4 H 0.1269 0.2235 0.4030
C6 C -0.1764(4) 0.4575(3) 0.2204(2)
C7 C -0.2681(4) 0.5341(3) 0.0780(2)
H5 H -0.1737 0.5326 0.0276
H6 H -0.2996 0.6132 0.0988
C8 C -0.3929(4) 0.5189(3) 0.0441(2)
F1 F -0.1908(2) 0.43823(16) -0.08341(13)
C9 C -0.3398(4) 0.4694(3) -0.0397(2)
C10 C -0.5566(4) 0.5576(3) 0.0792(2)
C11 C 0.2306(4) -0.1176(3) 0.3447(2)
H7 H 0.1426 -0.1437 0.3452
C12 C 0.3728(4) -0.1515(3) 0.2788(2)
H8 H 0.3788 -0.2004 0.2361
C13 C 0.5074(4) -0.1119(3) 0.2767(2)
C14 C 0.4927(4) -0.0367(3) 0.3414(2)
H9 H 0.5773 -0.0067 0.3415
C15 C 0.3504(4) -0.0090(3) 0.4041(2)
H10 H 0.3428 0.0398 0.4472
C16 C 0.6519(3) -0.1416(3) 0.2029(2)
C17 C 0.9428(4) -0.1809(3) 0.1571(2)
H11 H 1.0273 -0.1988 0.1876
H12 H 0.9457 -0.2547 0.1355
C18 C 0.9745(4) -0.0922(3) 0.0789(2)
C19 C 0.9973(4) 0.0201(3) 0.0862(2)
C20 C 0.9847(4) -0.1093(3) -0.0138(2)
Cu1 Cu 0.0000 0.0000 0.5000
F2 F -0.6168(2) 0.61189(18) 0.15117(13)
F3 F 0.9937(2) 0.04023(18) 0.16885(13)
F4 F 0.9628(2) -0.21380(17) -0.02981(12)
N1 N -0.0551(3) 0.1496(3) 0.40899(19)
N2 N -0.2305(3) 0.4447(3) 0.15119(19)
H20 H -0.242(4) 0.376(4) 0.151(3)
N3 N 0.2194(3) -0.0459(2) 0.40923(18)
N4 N 0.7915(3) -0.1472(2) 0.22506(18)
O1 O -0.1453(3) 0.5515(2) 0.22254(16)
O2 O 0.6445(2) -0.1623(2) 0.13266(15)
C1A C -0.8208(4) 0.8376(3) -0.3729(2)
H1A H -0.7578 0.8934 -0.3936
C2A C -0.7877(4) 0.7431(3) -0.3061(2)
H2A H -0.7062 0.7376 -0.2794
C3A C -0.8756(4) 0.6561(3) -0.2784(2)
C4A C -1.0078(4) 0.6729(3) -0.3119(2)
H3A H -1.0738 0.6194 -0.2888
C5A C -1.0416(4) 0.7676(3) -0.3786(2)
H4A H -1.1269 0.7765 -0.4030
C6A C -0.8236(4) 0.5425(3) -0.2204(2)
C7A C -0.7319(4) 0.4659(3) -0.0780(2)
H5A H -0.8263 0.4674 -0.0276
H6A H -0.7004 0.3868 -0.0988
C8A C -0.6071(4) 0.4811(3) -0.0441(2)
F1A F -0.8092(2) 0.56177(16) 0.08341(13)
C9A C -0.6602(4) 0.5306(3) 0.0397(2)
C10A C -0.4434(4) 0.4424(3) -0.0792(2)
C11A C 1.7694(4) 0.1176(3) -0.3447(2)
H7A H 1.8574 0.1437 -0.3452
C12A C 1.6272(4) 0.1515(3) -0.2788(2)
H8A H 1.6212 0.2004 -0.2361
C13A C 1.4926(4) 0.1119(3) -0.2767(2)
C14A C 1.5073(4) 0.0367(3) -0.3414(2)
H9A H 1.4227 0.0067 -0.3415
C15A C 1.6496(4) 0.0090(3) -0.4041(2)
H10A H 1.6572 -0.0398 -0.4472
C16A C 1.3481(3) 0.1416(3) -0.2029(2)
C17A C 1.0572(4) 0.1809(3) -0.1571(2)
H11A H 0.9727 0.1988 -0.1876
H12A H 1.0543 0.2547 -0.1355
C18A C 1.0255(4) 0.0922(3) -0.0789(2)
C19A C 1.0027(4) -0.0201(3) -0.0862(2)
C20A C 1.0153(4) 0.1093(3) 0.0138(2)
Cu1_2 Cu -1.0000 1.0000 -0.5000
Cu1_3 Cu 2.0000 0.0000 -0.5000
F2A F -0.3832(2) 0.38811(18) -0.15117(13)
F3A F 1.0063(2) -0.04023(18) -0.16885(13)
F4A F 1.0372(2) 0.21380(17) 0.02981(12)
N1A N -0.9449(3) 0.8504(3) -0.40899(19)
N1A_2 N 0.0551(3) -0.1496(3) 0.59101(19)
N2A N -0.7695(3) 0.5553(3) -0.15119(19)
H20A H -0.758(4) 0.624(4) -0.151(3)
N3A N 1.7806(3) 0.0459(2) -0.40923(18)
N3A_2 N -0.2194(3) 0.0459(2) 0.59077(18)
N4A N 1.2085(3) 0.1472(2) -0.22506(18)
O1A O -0.8547(3) 0.4485(2) -0.22254(16)
O2A O 1.3555(2) 0.1623(2) -0.13266(15)
C21 C 0.3166(4) 0.1711(3) 0.1268(2)
H13 H 0.2737 0.1747 0.1916
H14 H 0.3113 0.0957 0.1125
H15 H 0.2566 0.2371 0.0934
C22 C 0.5884(4) 0.1290(3) 0.0118(2)
H16 H 0.6587 0.1806 -0.0207
H17 H 0.5235 0.1255 -0.0263
H18 H 0.6490 0.0490 0.0270
C23 C 0.5302(4) 0.2335(3) 0.1485(3)
H19 H 0.4636 0.2866 0.1895
N5 N 0.4826(3) 0.1799(3) 0.10062(19)
O3 O 0.6699(3) 0.2066(2) 0.13389(16)
O4 O 0.4310(7) 0.2589(6) 0.3674(4)
H21 H 0.340(11) 0.294(9) 0.359(6)
H22 H 0.425(11) 0.241(8) 0.425(7)
O5 O 0.7509(8) 0.4612(7) 0.6601(5)
H23 H 0.759(12) 0.503(9) 0.698(7)
H24 H 0.714(13) 0.401(10) 0.690(7)
O6 O 0.8675(7) 0.8591(6) 0.4140(4)
H25 H 0.782(11) 0.835(9) 0.431(7)
H26 H 0.892(11) 0.877(8) 0.356(7)
O7 O 0.8501(8) 0.5005(6) 0.4838(4)
H27 H 0.919(11) 0.463(9) 0.513(7)
H28 H 0.759(12) 0.494(9) 0.517(7)
O8 O 0.5598(7) 0.4786(6) 0.6298(5)
H29 H 0.503(12) 0.484(9) 0.685(7)
H30 H 0.509(11) 0.525(9) 0.593(7)
loop_
_geom_bond_atom_site_label_1
_geom_bond_atom_site_label_2
_geom_bond_site_symmetry_1
_geom_bond_site_symmetry_2
C1 H1 1_555 1_555
C2 C1 1_555 1_555
H2 C2 1_555 1_555
C3 C2 1_555 1_555
C4 C3 1_555 1_555
H3 C4 1_555 1_555
C5 C4 1_555 1_555
H4 C5 1_555 1_555
C6 C3 1_555 1_555
C7 H5 1_555 1_555
H6 C7 1_555 1_555
C8 C7 1_555 1_555
F1 C9 1_555 1_555
C9 C8 1_555 1_555
C10 C8 1_555 1_555
C11 H7 1_555 1_555
C12 C11 1_555 1_555
H8 C12 1_555 1_555
C13 C12 1_555 1_555
C14 C13 1_555 1_555
H9 C14 1_555 1_555
C15 C14 1_555 1_555
H10 C15 1_555 1_555
C16 C13 1_555 1_555
C17 H11 1_555 1_555
H12 C17 1_555 1_555
C18 C17 1_555 1_555
C19 C18 1_555 1_555
C20 C18 1_555 1_555
C21 H13 1_555 1_555
H14 C21 1_555 1_555
H15 C21 1_555 1_555
C22 H16 1_555 1_555
H17 C22 1_555 1_555
H18 C22 1_555 1_555
C23 H19 1_555 1_555
Cu1 N1 1_555 1_555
F2 C10 1_555 1_555
F3 C19 1_555 1_555
F4 C20 1_555 1_555
N1 C1 1_555 1_555
N2 C6 1_555 1_555
H20 N2 1_555 1_555
N3 C11 1_555 1_555
N4 C16 1_555 1_555
N5 C21 1_555 1_555
O1 C6 1_555 1_555
O2 C16 1_555 1_555
O3 C23 1_555 1_555
O4 H21 1_555 1_555
H22 O4 1_555 1_555
O5 H23 1_555 1_555
H24 O5 1_555 1_555
O6 H25 1_555 1_555
H26 O6 1_555 1_555
O7 H27 1_555 1_555
H28 O7 1_555 1_555
O8 H29 1_555 1_555
H30 O8 1_555 1_555
C1A H1A 1_555 1_555
C2A C1A 1_555 1_555
H2A C2A 1_555 1_555
C3A C2A 1_555 1_555
C4A C3A 1_555 1_555
H3A C4A 1_555 1_555
C5A C4A 1_555 1_555
H4A C5A 1_555 1_555
C6A C3A 1_555 1_555
C7A H5A 1_555 1_555
H6A C7A 1_555 1_555
C8A C7A 1_555 1_555
F1A C9A 1_555 1_555
C9A C10 1_555 1_555
C10A C9 1_555 1_555
C11A H7A 1_555 1_555
C12A C11A 1_555 1_555
H8A C12A 1_555 1_555
C13A C12A 1_555 1_555
C14A C13A 1_555 1_555
H9A C14A 1_555 1_555
C15A C14A 1_555 1_555
H10A C15A 1_555 1_555
C16A C13A 1_555 1_555
C17A H11A 1_555 1_555
H12A C17A 1_555 1_555
C18A C17A 1_555 1_555
C19A C20 1_555 1_555
C20A C19 1_555 1_555
Cu1_2 N1A 1_555 1_555
Cu1_3 N3A 1_555 1_555
F2A C10A 1_555 1_555
F3A C19A 1_555 1_555
F4A C20A 1_555 1_555
N1A C1A 1_555 1_555
N1A_2 Cu1 1_555 1_555
N2A C6A 1_555 1_555
H20A N2A 1_555 1_555
N3A C11A 1_555 1_555
N3A_2 Cu1 1_555 1_555
N4A C16A 1_555 1_555
O1A C6A 1_555 1_555
O2A C16A 1_555 1_555
C5 N1 1_555 1_555
C7 N2 1_555 1_555
C15 N3 1_555 1_555
C17 N4 1_555 1_555
C22 N5 1_555 1_555
C23 N5 1_555 1_555
Cu1 N3 1_555 1_555
C5A N1A 1_555 1_555
C7A N2A 1_555 1_555
C8A C9A 1_555 1_555
C8A C10A 1_555 1_555
C15A N3A 1_555 1_555
C17A N4A 1_555 1_555
C18A C19A 1_555 1_555
C18A C20A 1_555 1_555

#END
