
#######################################################################
#
#                 Cambridge Crystallographic Data Centre
#                                CCDC 
#
#######################################################################
#
# If this CIF has been generated from an entry in the Cambridge 
# Structural Database, then it will include bibliographic, chemical, 
# crystal, experimental, refinement or atomic coordinate data resulting 
# from the CCDC's data processing and validation procedures.
#
#######################################################################

data_NOMVIV
_symmetry_cell_setting           monoclinic
_symmetry_space_group_name_H-M   'P 21/n'
_symmetry_Int_Tables_number      14
_space_group_name_Hall           '-P 2yn'
loop_
_symmetry_equiv_pos_site_id
_symmetry_equiv_pos_as_xyz
1 x,y,z
2 1/2-x,1/2+y,1/2-z
3 -x,-y,-z
4 1/2+x,1/2-y,1/2+z
_cell_length_a                   19.217(2)
_cell_length_b                   17.1838(17)
_cell_length_c                   19.528(2)
_cell_angle_alpha                90
_cell_angle_beta                 115.672(8)
_cell_angle_gamma                90
_cell_volume                     5812.01
loop_
_atom_site_label
_atom_site_type_symbol
_atom_site_fract_x
_atom_site_fract_y
_atom_site_fract_z
C1 C 0.54865(19) 0.84067(18) 0.78875(17)
H1 H 0.5235 0.8433 0.7360
C2 C 0.57068(19) 0.76809(19) 0.82247(17)
H2 H 0.5567 0.7238 0.7921
C3 C 0.61152(17) 0.76050(17) 0.89751(15)
C4 C 0.62715(19) 0.82848(18) 0.93947(18)
H3 H 0.6536 0.8265 0.9922
C5 C 0.60331(19) 0.9000(2) 0.90291(18)
H4 H 0.6166 0.9455 0.9316
C6 C 0.63786(17) 0.68464(17) 0.93814(16)
C7 C 0.66971(18) 0.54922(18) 0.92724(18)
H5 H 0.7007 0.5548 0.9815
H6 H 0.7033 0.5304 0.9054
C8 C 0.60757(16) 0.48908(17) 0.91382(17)
C9 C 0.57024(18) 0.45203(19) 0.84311(17)
C10 C 0.51468(18) 0.39760(19) 0.83006(17)
C11 C 0.48965(16) 0.37673(17) 0.88380(16)
C12 C 0.52804(17) 0.41428(18) 0.95500(17)
C13 C 0.58407(17) 0.46696(17) 0.96779(16)
H7 H 0.4204 0.2849 0.8262
H8 H 0.4412 0.2835 0.9133
C14 C 0.42634(16) 0.31698(19) 0.86923(17)
C15 C 0.49306(18) 1.12449(19) 0.65182(18)
H9 H 0.5275 1.0940 0.6417
C16 C 0.46261(18) 1.19200(19) 0.60752(18)
H10 H 0.4773 1.2057 0.5696
C17 C 0.41241(15) 1.23580(17) 0.62083(15)
C18 C 0.39215(18) 1.21316(18) 0.67890(16)
H11 H 0.3568 1.2426 0.6887
C19 C 0.42440(17) 1.14744(17) 0.72150(17)
H12 H 0.4114 1.1337 0.7606
C20 C 0.37802(17) 1.30533(17) 0.57100(16)
C21 C 0.31232(17) 1.43001(17) 0.55276(18)
H13 H 0.2703 1.4482 0.5635
H14 H 0.2911 1.4175 0.4991
C22 C 0.37026(17) 1.49343(17) 0.56979(17)
C23 C 0.40392(18) 1.53019(19) 0.64127(17)
C24 C 0.45614(18) 1.58968(19) 0.65767(17)
C25 C 0.47991(17) 1.61694(18) 0.60416(17)
C26 C 0.44823(18) 1.58068(19) 0.53425(17)
C27 C 0.39495(17) 1.52128(17) 0.51720(16)
H15 H 0.5157 1.7205 0.5773
H16 H 0.5418 1.7113 0.6649
C28 C 0.53644(17) 1.68420(18) 0.61933(17)
C29 C 0.83493(18) 1.5031(2) 0.7408(2)
H17 H 0.8535 1.4551 0.7633
C30 C 0.76603(19) 1.5314(2) 0.7389(2)
H18 H 0.7415 1.5057 0.7642
C31 C 0.73561(15) 1.59808(17) 0.69888(14)
C32 C 0.77525(16) 1.63712(19) 0.66541(17)
H19 H 0.7548 1.6822 0.6376
C33 C 0.84566(18) 1.6089(2) 0.67341(19)
H20 H 0.8732 1.6363 0.6521
C34 C 0.66128(16) 1.62612(17) 0.69491(16)
C35 C 0.14182(16) 0.46253(19) 0.81764(17)
H21 H 0.1324 0.4811 0.8576
C36 C 0.21217(17) 0.42826(19) 0.83385(16)
H22 H 0.2478 0.4196 0.8838
C37 C 0.22839(16) 0.40698(17) 0.77376(15)
C38 C 0.17337(17) 0.41883(19) 0.70040(16)
H23 H 0.1833 0.4064 0.6592
C39 C 0.10424(18) 0.44909(19) 0.68995(17)
H24 H 0.0666 0.4558 0.6404
C40 C 0.30338(17) 0.37064(17) 0.78377(17)
Cu1 Cu 0.519290(19) 1.00651(2) 0.77154(2)
F1 F 0.59068(10) 0.47007(11) 0.78745(10)
F2 F 0.48265(10) 0.36283(11) 0.76045(9)
F3 F 0.50869(11) 0.39439(12) 1.01197(10)
F4 F 0.61902(10) 0.49896(10) 1.03861(9)
F5 F 0.38289(11) 1.50729(11) 0.69585(10)
F6 F 0.48238(10) 1.62114(11) 0.72663(9)
F7 F 0.46957(11) 1.60334(12) 0.47974(10)
F8 F 0.36526(10) 1.49116(10) 0.44679(9)
N1 N 0.56143(13) 0.90475(14) 0.82700(13)
N2 N 0.47487(13) 1.10256(14) 0.70721(13)
N3 N 0.87486(13) 1.54301(14) 0.71123(15)
N4 N 0.08716(13) 0.46998(14) 0.74733(13)
N5 N 0.64036(18) 0.62481(16) 0.89541(16)
H25 H 0.593(2) 0.617(2) 0.859(2)
N6 N 0.34528(15) 1.35981(15) 0.59700(15)
H26 H 0.382(2) 1.375(2) 0.644(2)
N7 N 0.61237(16) 1.65851(17) 0.62898(16)
H27 H 0.595(2) 1.619(2) 0.587(2)
N8 N 0.35380(15) 0.35363(18) 0.85396(16)
H28 H 0.368(2) 0.397(2) 0.883(2)
O1 O 0.65640(12) 0.67875(13) 1.00624(11)
O2 O 0.38211(13) 1.31287(13) 0.51039(12)
O3 O 0.64627(12) 1.61865(13) 0.75129(12)
O4 O 0.31537(12) 0.35969(13) 0.72870(12)
O5 O 0.52819(12) 1.06809(13) 0.88895(12)
O6 O 0.62438(13) 1.09101(14) 1.00123(13)
Cl1 Cl 0.55120(5) 1.11508(5) 0.95234(5)
Cl2 Cl 0.45648(5) 0.90064(5) 0.57217(5)
O7 O 0.55831(13) 1.19122(14) 0.92057(13)
O8 O 0.50169(14) 1.12127(15) 0.98078(13)
O9 O 0.42198(14) 0.82954(14) 0.59960(13)
O10 O 0.48108(14) 0.86941(14) 0.52286(14)
O11 O 0.50227(14) 0.94212(14) 0.63899(13)
O12 O 0.38688(14) 0.94239(15) 0.52529(14)
Cu1A Cu 0.980710(19) 1.50651(2) 0.72846(2)
Cu1A_2 Cu -0.019290(19) 0.50651(2) 0.72846(2)
N3A N 0.62514(13) 1.04301(14) 0.78877(15)
N4A N 0.41284(13) 0.96998(14) 0.75267(13)
O13 O 0.1736(3) 0.6037(3) 0.0704(3)
H29 H 0.2039 0.5788 0.0573
H30 H 0.1370 0.5741 0.0666
O14 O 0.2347(3) 0.6389(3) 1.0094(3)
H31 H 0.2113 0.6242 0.9632
H32 H 0.2386 0.6882 1.0109
O15 O 0.3261(3) 0.7506(3) 0.8717(3)
H33 H 0.2870 0.7738 0.8706
H34 H 0.3304 0.7062 0.8926
O16 O 0.1789(3) 0.2880(3) 0.0282(3)
H35 H 0.1326 0.2780 -0.0017
H36 H 0.2072 0.2509 0.0267
O17 O 0.2568(3) 0.6489(4) 0.7310(3)
H37 H 0.2592 0.6182 0.7663
H38 H 0.2188 0.6796 0.7167
O18 O 0.2878(3) 0.6932(4) 0.6627(3)
H39 H 0.3100 0.6647 0.6426
H40 H 0.2637 0.7324 0.6368
O19 O 0.6879(3) 0.3018(4) 0.6833(3)
H41 H 0.6779 0.2612 0.6557
H42 H 0.6687 0.3413 0.6551
loop_
_geom_bond_atom_site_label_1
_geom_bond_atom_site_label_2
_geom_bond_site_symmetry_1
_geom_bond_site_symmetry_2
C1 H1 1_555 1_555
C2 C1 1_555 1_555
H2 C2 1_555 1_555
C3 C2 1_555 1_555
C4 C3 1_555 1_555
H3 C4 1_555 1_555
C5 C4 1_555 1_555
H4 C5 1_555 1_555
C6 C3 1_555 1_555
C7 H5 1_555 1_555
H6 C7 1_555 1_555
C8 C7 1_555 1_555
C9 C8 1_555 1_555
C10 C9 1_555 1_555
C11 C10 1_555 1_555
C12 C11 1_555 1_555
C13 C8 1_555 1_555
H7 C14 1_555 1_555
H8 C14 1_555 1_555
C14 C11 1_555 1_555
C15 H9 1_555 1_555
C16 C15 1_555 1_555
H10 C16 1_555 1_555
C17 C16 1_555 1_555
C18 C17 1_555 1_555
H11 C18 1_555 1_555
C19 C18 1_555 1_555
H12 C19 1_555 1_555
C20 C17 1_555 1_555
C21 H13 1_555 1_555
H14 C21 1_555 1_555
C22 C21 1_555 1_555
C23 C22 1_555 1_555
C24 C23 1_555 1_555
C25 C24 1_555 1_555
C26 C25 1_555 1_555
C27 C22 1_555 1_555
H15 C28 1_555 1_555
H16 C28 1_555 1_555
C28 C25 1_555 1_555
C29 H17 1_555 1_555
C30 C29 1_555 1_555
H18 C30 1_555 1_555
C31 C30 1_555 1_555
C32 C31 1_555 1_555
H19 C32 1_555 1_555
C33 C32 1_555 1_555
H20 C33 1_555 1_555
C34 C31 1_555 1_555
C35 H21 1_555 1_555
C36 C35 1_555 1_555
H22 C36 1_555 1_555
C37 C36 1_555 1_555
C38 C37 1_555 1_555
H23 C38 1_555 1_555
C39 C38 1_555 1_555
H24 C39 1_555 1_555
C40 C37 1_555 1_555
Cu1 N1 1_555 1_555
F1 C9 1_555 1_555
F2 C10 1_555 1_555
F3 C12 1_555 1_555
F4 C13 1_555 1_555
F5 C23 1_555 1_555
F6 C24 1_555 1_555
F7 C26 1_555 1_555
F8 C27 1_555 1_555
N1 C1 1_555 1_555
N2 C15 1_555 1_555
N3 C29 1_555 1_555
N4 C35 1_555 1_555
N5 C6 1_555 1_555
H25 N5 1_555 1_555
N6 C20 1_555 1_555
H26 N6 1_555 1_555
N7 C28 1_555 1_555
H27 N7 1_555 1_555
N8 C14 1_555 1_555
H28 N8 1_555 1_555
O1 C6 1_555 1_555
O2 C20 1_555 1_555
O3 C34 1_555 1_555
O4 C40 1_555 1_555
O5 Cu1 1_555 1_555
O6 Cl1 1_555 1_555
Cl1 O5 1_555 1_555
Cl2 O9 1_555 1_555
O7 Cl1 1_555 1_555
O8 Cl1 1_555 1_555
O10 Cl2 1_555 1_555
O11 Cu1 1_555 1_555
O12 Cl2 1_555 1_555
O13 H29 1_555 1_555
H30 O13 1_555 1_555
O14 H31 1_555 1_555
H32 O14 1_555 1_555
O15 H33 1_555 1_555
H34 O15 1_555 1_555
O16 H35 1_555 1_555
H36 O16 1_555 1_555
O17 H37 1_555 1_555
H38 O17 1_555 1_555
O18 H39 1_555 1_555
H40 O18 1_555 1_555
O19 H41 1_555 1_555
H42 O19 1_555 1_555
Cu1A N3 1_555 1_555
Cu1A_2 N4 1_555 1_555
N3A Cu1 1_555 1_555
N4A Cu1 1_555 1_555
C5 N1 1_555 1_555
C7 N5 1_555 1_555
C12 C13 1_555 1_555
C19 N2 1_555 1_555
C21 N6 1_555 1_555
C26 C27 1_555 1_555
C33 N3 1_555 1_555
C34 N7 1_555 1_555
C39 N4 1_555 1_555
C40 N8 1_555 1_555
Cu1 N2 1_555 1_555
Cl2 O11 1_555 1_555

#END
