
#######################################################################
#
#                 Cambridge Crystallographic Data Centre
#                                CCDC 
#
#######################################################################
#
# If this CIF has been generated from an entry in the Cambridge 
# Structural Database, then it will include bibliographic, chemical, 
# crystal, experimental, refinement or atomic coordinate data resulting 
# from the CCDC's data processing and validation procedures.
#
#######################################################################

data_NONDOK
_symmetry_cell_setting           orthorhombic
_symmetry_space_group_name_H-M   'C m c m'
_symmetry_Int_Tables_number      63
_space_group_name_Hall           '-C 2n 2'
loop_
_symmetry_equiv_pos_site_id
_symmetry_equiv_pos_as_xyz
1 x,y,z
2 -x,-y,1/2+z
3 x,-y,-z
4 -x,y,1/2-z
5 1/2+x,1/2+y,z
6 1/2-x,1/2-y,1/2+z
7 1/2+x,1/2-y,-z
8 1/2-x,1/2+y,1/2-z
9 -x,-y,-z
10 x,y,1/2-z
11 -x,y,z
12 x,-y,1/2+z
13 1/2-x,1/2-y,-z
14 1/2+x,1/2+y,1/2-z
15 1/2-x,1/2+y,z
16 1/2+x,1/2-y,1/2+z
_cell_length_a                   9.299(5)
_cell_length_b                   10.608(5)
_cell_length_c                   14.432(7)
_cell_angle_alpha                90
_cell_angle_beta                 90
_cell_angle_gamma                90
_cell_volume                     1423.63
loop_
_atom_site_label
_atom_site_type_symbol
_atom_site_fract_x
_atom_site_fract_y
_atom_site_fract_z
In1 In 0.5000 -0.01356(10) 0.2500
Br1 Br 0.23226(11) -0.06518(9) 0.2500
Br2 Br 0.5000 0.12784(10) 0.10597(7)
S1 S 0.64867(17) -0.28442(15) 0.10758(12)
N1 N 0.5000 -0.2179(7) 0.1402(5)
C1 C 0.6531(11) -0.5000 0.0000
C2 C 0.5770(6) -0.4075(5) 0.0460(4)
H1 H 0.753(13) -0.5000 0.0000
In1A In 0.5000 -0.98644(10) -0.2500
Br1C Br 0.76774(11) -0.06518(9) 0.2500
Br2C Br 0.5000 0.12784(10) 0.39403(7)
S1J S 0.35133(17) -0.28442(15) 0.10758(12)
S1H S 0.35133(17) -0.71558(15) -0.10758(12)
S1B S 0.64867(17) -0.71558(15) -0.10758(12)
N1B N 0.5000 -0.7821(7) -0.1402(5)
N1C N 0.5000 -0.2179(7) 0.3598(5)
C1H C 0.3469(11) -0.5000 0.0000
C2J C 0.4230(6) -0.4075(5) 0.0460(4)
C2H C 0.4230(6) -0.5925(5) -0.0460(4)
C2B C 0.5770(6) -0.5925(5) -0.0460(4)
H1H H 0.247(13) -0.5000 0.0000
loop_
_geom_bond_atom_site_label_1
_geom_bond_atom_site_label_2
_geom_bond_site_symmetry_1
_geom_bond_site_symmetry_2
In1 Br1 1_555 1_555
Br2 In1 1_555 1_555
S1 N1 1_555 1_555
N1 In1 1_555 1_555
C1 C2 1_555 1_555
C2 S1 1_555 1_555
H1 C1 1_555 1_555
In1A N1B 1_555 1_555
Br1C In1 1_555 1_555
Br2C In1 1_555 1_555
S1J N1 1_555 1_555
S1H N1B 1_555 1_555
S1B N1B 1_555 1_555
N1C In1 1_555 1_555
C1H C2J 1_555 1_555
C2J C2 1_555 1_555
C2H S1H 1_555 1_555
C2B C1 1_555 1_555
H1H C1H 1_555 1_555
S1J C2J 1_555 1_555
S1B C2B 1_555 1_555
C1H C2H 1_555 1_555
C2H C2B 1_555 1_555

#END
