
#######################################################################
#
#                 Cambridge Crystallographic Data Centre
#                                CCDC 
#
#######################################################################
#
# If this CIF has been generated from an entry in the Cambridge 
# Structural Database, then it will include bibliographic, chemical, 
# crystal, experimental, refinement or atomic coordinate data resulting 
# from the CCDC's data processing and validation procedures.
#
#######################################################################

data_NONFIG
_symmetry_cell_setting           triclinic
_symmetry_space_group_name_H-M   'P -1'
_symmetry_Int_Tables_number      2
_space_group_name_Hall           '-P 1'
loop_
_symmetry_equiv_pos_site_id
_symmetry_equiv_pos_as_xyz
1 x,y,z
2 -x,-y,-z
_cell_length_a                   10.6416(6)
_cell_length_b                   12.9722(7)
_cell_length_c                   17.6879(10)
_cell_angle_alpha                74.4670(10)
_cell_angle_beta                 80.5120(10)
_cell_angle_gamma                74.3160(10)
_cell_volume                     2253.68
loop_
_atom_site_label
_atom_site_type_symbol
_atom_site_fract_x
_atom_site_fract_y
_atom_site_fract_z
Ho1 Ho 0.58598(3) 0.86222(2) 0.271988(14)
Na1 Na 0.2967(2) 1.0787(2) 0.23246(13)
O1 O 0.4892(4) 0.7089(3) 0.3352(2)
O2 O 0.7379(4) 0.6964(3) 0.2789(2)
O3 O 0.6513(4) 0.8613(3) 0.1403(2)
O4 O 0.4042(4) 0.8959(3) 0.2001(2)
O5 O 0.5528(4) 1.0604(3) 0.2212(2)
O6 O 0.7744(4) 0.9188(3) 0.2632(2)
O7 O 0.6255(4) 0.8246(3) 0.40251(19)
O8 O 0.4021(4) 0.9518(3) 0.3506(2)
O9 O 0.9857(4) 0.3829(4) 0.2752(3)
O10 O 1.0389(5) 0.6873(4) 0.0895(3)
O11 O 0.7397(5) 0.8532(4) -0.1008(2)
O12 O 1.0965(4) 1.0375(4) 0.2774(3)
O13 O 1.0074(4) 0.7139(4) 0.4512(2)
O14 O 0.6436(5) 0.6934(4) 0.6452(2)
O16 O 0.2301(5) 1.2454(5) 0.2607(3)
N1 N 0.5259(5) 0.5224(4) 0.3807(3)
N2 N 0.9722(5) 0.5664(4) 0.2489(3)
H1 H 0.9228 0.6309 0.2542
N3 N 0.8235(5) 0.8403(4) 0.0131(3)
H2 H 0.8052 0.8430 0.0630
N4 N 0.3352(5) 0.8848(4) 0.0867(3)
N5 N 0.6463(5) 1.2078(4) 0.1962(2)
N6 N 1.0111(5) 0.8878(5) 0.3083(3)
H3 H 0.9429 0.8625 0.3068
N7 N 0.7530(5) 0.7011(4) 0.5232(3)
H4 H 0.7497 0.7312 0.4724
N8 N 0.3125(5) 0.9638(4) 0.4757(3)
C1 C 0.3884(8) 0.5354(6) 0.4153(6)
H5 H 0.3618 0.6008 0.4372
H6 H 0.3800 0.4701 0.4573
H7 H 0.3321 0.5440 0.3744
C2 C 0.6084(7) 0.4180(5) 0.3845(5)
H8 H 0.5765 0.3547 0.4109
C3 C 0.7322(6) 0.4061(5) 0.3513(4)
H9 H 0.7862 0.3342 0.3529
C4 C 0.7841(6) 0.4987(5) 0.3139(3)
C5 C 0.7048(5) 0.6034(5) 0.3111(3)
C6 C 0.5666(6) 0.6159(5) 0.3434(4)
C7 C 0.9219(6) 0.4780(5) 0.2779(3)
C8 C 1.1035(6) 0.5618(6) 0.2094(4)
H10 H 1.1615 0.4896 0.2314
H11 H 1.1378 0.6199 0.2198
C9 C 1.1075(7) 0.5773(7) 0.1205(4)
H12 H 1.1995 0.5643 0.0964
H13 H 1.0654 0.5246 0.1091
C10 C 1.0389(8) 0.7111(7) 0.0062(4)
H14 H 1.0008 0.6583 -0.0084
H15 H 1.1299 0.7045 -0.0193
C11 C 0.9595(7) 0.8254(6) -0.0206(4)
H16 H 0.9993 0.8772 -0.0061
H17 H 0.9622 0.8438 -0.0789
C12 C 0.7245(7) 0.8502(5) -0.0287(3)
C13 C 0.5904(6) 0.8626(5) 0.0143(3)
C14 C 0.4849(6) 0.8700(5) -0.0271(3)
H18 H 0.5006 0.8697 -0.0815
C15 C 0.3627(7) 0.8776(5) 0.0088(3)
H19 H 0.2941 0.8781 -0.0196
C16 C 0.4306(6) 0.8846(4) 0.1291(3)
C17 C 0.5667(6) 0.8688(5) 0.0937(3)
C18 C 0.2004(6) 0.8928(6) 0.1260(4)
H20 H 0.2017 0.8369 0.1759
H21 H 0.1450 0.8806 0.0917
H22 H 0.1652 0.9662 0.1365
C19 C 0.5221(6) 1.2873(5) 0.1740(4)
H23 H 0.4614 1.2482 0.1646
H24 H 0.5396 1.3422 0.1259
H25 H 0.4829 1.3243 0.2169
C20 C 0.7522(6) 1.2485(5) 0.1987(3)
H26 H 0.7453 1.3256 0.1820
C21 C 0.8655(6) 1.1810(5) 0.2243(3)
H27 H 0.9363 1.2111 0.2270
C22 C 0.8791(6) 1.0650(5) 0.2473(3)
C23 C 0.7760(5) 1.0221(5) 0.2437(3)
C24 C 0.6512(5) 1.0986(4) 0.2186(3)
C25 C 1.0044(6) 0.9958(6) 0.2789(3)
C26 C 1.1264(6) 0.8107(6) 0.3425(4)
H28 H 1.2015 0.8459 0.3278
H29 H 1.1490 0.7449 0.3202
C27 C 1.1045(6) 0.7757(6) 0.4304(4)
H30 H 1.1874 0.7302 0.4520
H31 H 1.0755 0.8413 0.4531
C28 C 0.9887(6) 0.6679(6) 0.5333(4)
H32 H 0.9730 0.7259 0.5628
H33 H 1.0677 0.6107 0.5508
C29 C 0.8723(6) 0.6182(6) 0.5485(4)
H34 H 0.8901 0.5591 0.5198
H35 H 0.8582 0.5847 0.6055
C30 C 0.6488(6) 0.7335(5) 0.5728(3)
C31 C 0.5357(6) 0.8166(5) 0.5367(3)
C32 C 0.4276(6) 0.8602(5) 0.5865(3)
H36 H 0.4305 0.8383 0.6421
C33 C 0.3211(6) 0.9322(5) 0.5563(4)
H37 H 0.2505 0.9620 0.5908
C34 C 0.4121(5) 0.9257(4) 0.4239(3)
C35 C 0.5325(5) 0.8526(5) 0.4545(3)
C36 C 0.1950(6) 1.0435(6) 0.4442(4)
H38 H 0.2202 1.1086 0.4089
H39 H 0.1330 1.0654 0.4879
H40 H 0.1536 1.0096 0.4149
H48 H 0.277(8) 1.253(10) 0.300(5)
H49 H 0.138(3) 1.280(9) 0.261(6)
Na1A Na 0.7033(2) 0.9213(2) -0.23246(13)
Na1_2 Na 1.2967(2) 1.0787(2) 0.23246(13)
O11A O 0.2603(5) 1.1468(4) 0.1008(2)
O12_2 O 0.0965(4) 1.0375(4) 0.2774(3)
O15 O 0.4146(9) 0.6003(8) 0.0330(6)
N9 N 0.5849(9) 0.5773(7) 0.1062(5)
C37 C 0.5342(11) 0.5896(9) 0.0396(7)
H41 H 0.5929 0.5905 -0.0071
C38 C 0.4854(13) 0.5875(9) 0.1731(6)
H42 H 0.3985 0.5988 0.1562
H43 H 0.4880 0.6505 0.1929
H44 H 0.5030 0.5201 0.2150
C39 C 0.7241(10) 0.5779(8) 0.1003(7)
H45 H 0.7637 0.5777 0.0462
H46 H 0.7698 0.5123 0.1366
H47 H 0.7317 0.6441 0.1141
loop_
_geom_bond_atom_site_label_1
_geom_bond_atom_site_label_2
_geom_bond_site_symmetry_1
_geom_bond_site_symmetry_2
Ho1 O1 1_555 1_555
Na1 O4 1_555 1_555
O1 C6 1_555 1_555
O2 Ho1 1_555 1_555
O3 Ho1 1_555 1_555
O4 Ho1 1_555 1_555
O5 Ho1 1_555 1_555
O6 Ho1 1_555 1_555
O7 Ho1 1_555 1_555
O8 Ho1 1_555 1_555
O9 C7 1_555 1_555
O10 C9 1_555 1_555
O11 C12 1_555 1_555
O12 C25 1_555 1_555
O13 C27 1_555 1_555
O14 C30 1_555 1_555
O15 C37 1_555 1_555
O16 Na1 1_555 1_555
N1 C1 1_555 1_555
N2 H1 1_555 1_555
N3 H2 1_555 1_555
N4 C15 1_555 1_555
N5 C19 1_555 1_555
N6 H3 1_555 1_555
N7 H4 1_555 1_555
N8 C33 1_555 1_555
N9 C37 1_555 1_555
C1 H5 1_555 1_555
H6 C1 1_555 1_555
H7 C1 1_555 1_555
C2 N1 1_555 1_555
H8 C2 1_555 1_555
C3 C2 1_555 1_555
H9 C3 1_555 1_555
C4 C3 1_555 1_555
C5 O2 1_555 1_555
C6 N1 1_555 1_555
C7 N2 1_555 1_555
C8 N2 1_555 1_555
H10 C8 1_555 1_555
H11 C8 1_555 1_555
C9 C8 1_555 1_555
H12 C9 1_555 1_555
H13 C9 1_555 1_555
C10 O10 1_555 1_555
H14 C10 1_555 1_555
H15 C10 1_555 1_555
C11 N3 1_555 1_555
H16 C11 1_555 1_555
H17 C11 1_555 1_555
C12 N3 1_555 1_555
C13 C12 1_555 1_555
C14 C13 1_555 1_555
H18 C14 1_555 1_555
C15 C14 1_555 1_555
H19 C15 1_555 1_555
C16 O4 1_555 1_555
C17 O3 1_555 1_555
C18 N4 1_555 1_555
H20 C18 1_555 1_555
H21 C18 1_555 1_555
H22 C18 1_555 1_555
C19 H23 1_555 1_555
H24 C19 1_555 1_555
H25 C19 1_555 1_555
C20 N5 1_555 1_555
H26 C20 1_555 1_555
C21 C20 1_555 1_555
H27 C21 1_555 1_555
C22 C21 1_555 1_555
C23 O6 1_555 1_555
C24 O5 1_555 1_555
C25 N6 1_555 1_555
C26 N6 1_555 1_555
H28 C26 1_555 1_555
H29 C26 1_555 1_555
C27 C26 1_555 1_555
H30 C27 1_555 1_555
H31 C27 1_555 1_555
C28 O13 1_555 1_555
H32 C28 1_555 1_555
H33 C28 1_555 1_555
C29 N7 1_555 1_555
H34 C29 1_555 1_555
H35 C29 1_555 1_555
C30 N7 1_555 1_555
C31 C30 1_555 1_555
C32 C31 1_555 1_555
H36 C32 1_555 1_555
C33 C32 1_555 1_555
H37 C33 1_555 1_555
C34 O8 1_555 1_555
C35 O7 1_555 1_555
C36 N8 1_555 1_555
H38 C36 1_555 1_555
H39 C36 1_555 1_555
H40 C36 1_555 1_555
C37 H41 1_555 1_555
C38 N9 1_555 1_555
H42 C38 1_555 1_555
H43 C38 1_555 1_555
H44 C38 1_555 1_555
C39 N9 1_555 1_555
H45 C39 1_555 1_555
H46 C39 1_555 1_555
H47 C39 1_555 1_555
H48 O16 1_555 1_555
H49 O16 1_555 1_555
Na1A O11 1_555 1_555
Na1_2 O12 1_555 1_555
O11A Na1 1_555 1_555
O12_2 Na1 1_555 1_555
Na1 O5 1_555 1_555
Na1 O8 1_555 1_555
N4 C16 1_555 1_555
N5 C24 1_555 1_555
N8 C34 1_555 1_555
C4 C5 1_555 1_555
C4 C7 1_555 1_555
C5 C6 1_555 1_555
C10 C11 1_555 1_555
C13 C17 1_555 1_555
C16 C17 1_555 1_555
C22 C23 1_555 1_555
C22 C25 1_555 1_555
C23 C24 1_555 1_555
C28 C29 1_555 1_555
C31 C35 1_555 1_555
C34 C35 1_555 1_555

#END
