
#######################################################################
#
#                 Cambridge Crystallographic Data Centre
#                                CCDC 
#
#######################################################################
#
# If this CIF has been generated from an entry in the Cambridge 
# Structural Database, then it will include bibliographic, chemical, 
# crystal, experimental, refinement or atomic coordinate data resulting 
# from the CCDC's data processing and validation procedures.
#
#######################################################################

data_NONLEI
_symmetry_cell_setting           monoclinic
_symmetry_space_group_name_H-M   'C 2/c'
_symmetry_Int_Tables_number      15
_space_group_name_Hall           '-C 2yn'
loop_
_symmetry_equiv_pos_site_id
_symmetry_equiv_pos_as_xyz
1 x,y,z
2 -x,y,1/2-z
3 1/2+x,1/2+y,z
4 1/2-x,1/2+y,1/2-z
5 -x,-y,-z
6 x,-y,1/2+z
7 1/2-x,1/2-y,-z
8 1/2+x,1/2-y,1/2+z
_cell_length_a                   16.507(3)
_cell_length_b                   13.602(3)
_cell_length_c                   19.924(4)
_cell_angle_alpha                90
_cell_angle_beta                 101.92(3)
_cell_angle_gamma                90
_cell_volume                     4377.04
loop_
_atom_site_label
_atom_site_type_symbol
_atom_site_fract_x
_atom_site_fract_y
_atom_site_fract_z
Zn1 Zn 0.5000 0.26034(8) 0.2500
K1 K 0.34634(11) 0.11336(14) 0.25727(11)
N1 N 0.4536(3) 0.1755(4) 0.1631(3)
N2 N 0.3850(3) 0.3165(4) 0.2303(3)
C1 C 0.3284(5) 0.1608(6) 0.0690(4)
H1 H 0.3384 0.1943 0.0291
H2 H 0.2701 0.1612 0.0686
H3 H 0.3474 0.0941 0.0689
C2 C 0.3746(4) 0.2127(5) 0.1330(4)
C3 C 0.3399(4) 0.2846(5) 0.1650(4)
C4 C 0.2548(4) 0.3255(5) 0.1391(5)
H4 H 0.2580 0.3803 0.1094
H5 H 0.2319 0.3467 0.1772
H6 H 0.2201 0.2755 0.1141
C5 C 0.5027(5) 0.1448(6) 0.1174(4)
C6 C 0.5330(5) 0.2047(6) 0.0711(5)
C7 C 0.5847(6) 0.1727(8) 0.0311(5)
H7 H 0.6019 0.2163 0.0008
C8 C 0.6129(6) 0.0752(9) 0.0344(6)
H8 H 0.6514 0.0543 0.0094
C9 C 0.5815(5) 0.0122(7) 0.0760(5)
H9 H 0.5975 -0.0534 0.0772
C10 C 0.5267(5) 0.0414(6) 0.1167(4)
C11 C 0.5079(6) 0.3139(7) 0.0648(5)
H10 H 0.4850 0.3316 0.1042
H11 H 0.5574 0.3531 0.0666
C12 C 0.4463(6) 0.3408(8) 0.0010(6)
H12 H 0.4349 0.4100 0.0013
H13 H 0.3960 0.3047 -0.0006
H14 H 0.4686 0.3250 -0.0385
C13 C 0.4841(6) -0.0293(7) 0.1555(5)
H15 H 0.4262 -0.0333 0.1328
H16 H 0.4864 -0.0032 0.2011
C14 C 0.5199(8) -0.1329(8) 0.1622(6)
H17 H 0.4883 -0.1734 0.1869
H18 H 0.5764 -0.1306 0.1866
H19 H 0.5174 -0.1601 0.1173
C15 C 0.3609(5) 0.4111(6) 0.2548(5)
C16 C 0.3229(5) 0.4149(7) 0.3110(5)
C17 C 0.3129(6) 0.5043(8) 0.3423(6)
H20 H 0.2899 0.5071 0.3811
C18 C 0.3384(7) 0.5897(8) 0.3139(7)
H21 H 0.3342 0.6498 0.3352
C19 C 0.3694(6) 0.5867(7) 0.2553(6)
H22 H 0.3821 0.6456 0.2361
C20 C 0.3826(5) 0.4978(6) 0.2229(6)
C21 C 0.2894(5) 0.3190(7) 0.3368(5)
H23 H 0.2519 0.2887 0.2985
H24 H 0.3356 0.2743 0.3509
C22 C 0.2444(7) 0.3283(9) 0.3958(6)
H25 H 0.2381 0.3966 0.4058
H26 H 0.2760 0.2962 0.4357
H27 H 0.1909 0.2981 0.3833
C23 C 0.4189(6) 0.4970(7) 0.1594(6)
H28 H 0.4788 0.4979 0.1738
H29 H 0.4040 0.4353 0.1358
C24 C 0.3944(13) 0.5784(12) 0.1090(9)
H30 H 0.4206 0.5691 0.0707
H31 H 0.4114 0.6402 0.1307
H32 H 0.3353 0.5781 0.0933
K1A K 0.65366(11) 0.11336(14) 0.24273(11)
K1C K 0.15366(11) 0.61336(14) 0.24273(11)
K1B K 0.84634(11) 0.61336(14) 0.25727(11)
N1A N 0.5464(3) 0.1755(4) 0.3369(3)
N2A N 0.6150(3) 0.3165(4) 0.2697(3)
C1A C 0.6716(5) 0.1608(6) 0.4310(4)
H1A H 0.6616 0.1943 0.4709
H2A H 0.7299 0.1612 0.4314
H3A H 0.6526 0.0941 0.4311
C2A C 0.6254(4) 0.2127(5) 0.3670(4)
C3A C 0.6601(4) 0.2846(5) 0.3350(4)
C4A C 0.7452(4) 0.3255(5) 0.3609(5)
H4A H 0.7420 0.3803 0.3906
H5A H 0.7681 0.3467 0.3228
H6A H 0.7799 0.2755 0.3859
C5A C 0.4973(5) 0.1448(6) 0.3826(4)
C6A C 0.4670(5) 0.2047(6) 0.4289(5)
C7A C 0.4153(6) 0.1727(8) 0.4689(5)
H7A H 0.3981 0.2163 0.4992
C8A C 0.3871(6) 0.0752(9) 0.4656(6)
H8A H 0.3486 0.0543 0.4906
C9A C 0.4185(5) 0.0122(7) 0.4240(5)
H9A H 0.4025 -0.0534 0.4228
C10A C 0.4733(5) 0.0414(6) 0.3833(4)
C11A C 0.4921(6) 0.3139(7) 0.4352(5)
H10A H 0.5150 0.3316 0.3958
H11A H 0.4426 0.3531 0.4334
C12A C 0.5537(6) 0.3408(8) 0.4990(6)
H12A H 0.5651 0.4100 0.4987
H13A H 0.6040 0.3047 0.5006
H14A H 0.5314 0.3250 0.5385
C13A C 0.5159(6) -0.0293(7) 0.3445(5)
H15A H 0.5738 -0.0333 0.3672
H16A H 0.5136 -0.0032 0.2989
C14A C 0.4801(8) -0.1329(8) 0.3378(6)
H17A H 0.5117 -0.1734 0.3131
H18A H 0.4236 -0.1306 0.3134
H19A H 0.4826 -0.1601 0.3827
C15A C 0.6391(5) 0.4111(6) 0.2452(5)
C16A C 0.6771(5) 0.4149(7) 0.1890(5)
C17A C 0.6871(6) 0.5043(8) 0.1577(6)
C17C C 0.1871(6) 0.0043(8) 0.1577(6)
C17B C 0.8129(6) 0.0043(8) 0.3423(6)
H20A H 0.7101 0.5071 0.1189
H20C H 0.2101 0.0071 0.1189
H20B H 0.7899 0.0071 0.3811
C18A C 0.6616(7) 0.5897(8) 0.1861(7)
C18C C 0.1616(7) 0.0897(8) 0.1861(7)
C18B C 0.8384(7) 0.0897(8) 0.3139(7)
H21A H 0.6658 0.6498 0.1648
H21C H 0.1658 0.1498 0.1648
H21B H 0.8342 0.1498 0.3352
C19A C 0.6306(6) 0.5867(7) 0.2447(6)
H22A H 0.6179 0.6456 0.2639
C20A C 0.6174(5) 0.4978(6) 0.2771(6)
C21A C 0.7106(5) 0.3190(7) 0.1632(5)
H23A H 0.7481 0.2887 0.2015
H24A H 0.6644 0.2743 0.1491
C22A C 0.7556(7) 0.3283(9) 0.1042(6)
H25A H 0.7619 0.3966 0.0942
H26A H 0.7240 0.2962 0.0643
H27A H 0.8091 0.2981 0.1167
C23A C 0.5811(6) 0.4970(7) 0.3406(6)
H28A H 0.5212 0.4979 0.3262
H29A H 0.5960 0.4353 0.3642
C24A C 0.6056(13) 0.5784(12) 0.3910(9)
H30A H 0.5794 0.5691 0.4293
H31A H 0.5886 0.6402 0.3693
H32A H 0.6647 0.5781 0.4067
loop_
_geom_bond_atom_site_label_1
_geom_bond_atom_site_label_2
_geom_bond_site_symmetry_1
_geom_bond_site_symmetry_2
Zn1 N1 1_555 1_555
K1 N1 1_555 1_555
N1 C2 1_555 1_555
N2 Zn1 1_555 1_555
C1 H1 1_555 1_555
H2 C1 1_555 1_555
H3 C1 1_555 1_555
C2 K1 1_555 1_555
C3 K1 1_555 1_555
C4 C3 1_555 1_555
H4 C4 1_555 1_555
H5 C4 1_555 1_555
H6 C4 1_555 1_555
C5 N1 1_555 1_555
C6 C5 1_555 1_555
C7 C6 1_555 1_555
H7 C7 1_555 1_555
C8 C7 1_555 1_555
H8 C8 1_555 1_555
C9 C8 1_555 1_555
H9 C9 1_555 1_555
C10 C5 1_555 1_555
C11 C6 1_555 1_555
H10 C11 1_555 1_555
H11 C11 1_555 1_555
C12 C11 1_555 1_555
H12 C12 1_555 1_555
H13 C12 1_555 1_555
H14 C12 1_555 1_555
C13 C10 1_555 1_555
H15 C13 1_555 1_555
H16 C13 1_555 1_555
C14 C13 1_555 1_555
H17 C14 1_555 1_555
H18 C14 1_555 1_555
H19 C14 1_555 1_555
C15 N2 1_555 1_555
C16 C15 1_555 1_555
C17 C16 1_555 1_555
H20 C17 1_555 1_555
C18 C17 1_555 1_555
H21 C18 1_555 1_555
C19 C18 1_555 1_555
H22 C19 1_555 1_555
C20 C15 1_555 1_555
C21 C16 1_555 1_555
H23 C21 1_555 1_555
H24 C21 1_555 1_555
C22 C21 1_555 1_555
H25 C22 1_555 1_555
H26 C22 1_555 1_555
H27 C22 1_555 1_555
C23 C20 1_555 1_555
H28 C23 1_555 1_555
H29 C23 1_555 1_555
C24 C23 1_555 1_555
H30 C24 1_555 1_555
H31 C24 1_555 1_555
H32 C24 1_555 1_555
K1A C5 1_555 1_555
K1C C17 1_555 1_555
K1B C17A 1_555 1_555
N1A Zn1 1_555 1_555
N2A Zn1 1_555 1_555
C1A H1A 1_555 1_555
H2A C1A 1_555 1_555
H3A C1A 1_555 1_555
C2A K1A 1_555 1_555
C3A K1A 1_555 1_555
C4A C3A 1_555 1_555
H4A C4A 1_555 1_555
H5A C4A 1_555 1_555
H6A C4A 1_555 1_555
C5A K1 1_555 1_555
C6A C5A 1_555 1_555
C7A C6A 1_555 1_555
H7A C7A 1_555 1_555
C8A C7A 1_555 1_555
H8A C8A 1_555 1_555
C9A C8A 1_555 1_555
H9A C9A 1_555 1_555
C10A K1 1_555 1_555
C11A C6A 1_555 1_555
H10A C11A 1_555 1_555
H11A C11A 1_555 1_555
C12A C11A 1_555 1_555
H12A C12A 1_555 1_555
H13A C12A 1_555 1_555
H14A C12A 1_555 1_555
C13A C10A 1_555 1_555
H15A C13A 1_555 1_555
H16A C13A 1_555 1_555
C14A C13A 1_555 1_555
H17A C14A 1_555 1_555
H18A C14A 1_555 1_555
H19A C14A 1_555 1_555
C15A N2A 1_555 1_555
C16A C15A 1_555 1_555
C17A C16A 1_555 1_555
C17C K1 1_555 1_555
C17B K1A 1_555 1_555
H20A C17A 1_555 1_555
H20C C17C 1_555 1_555
H20B C17B 1_555 1_555
C18A K1B 1_555 1_555
C18C K1 1_555 1_555
C18B K1A 1_555 1_555
H21A C18A 1_555 1_555
H21C C18C 1_555 1_555
H21B C18B 1_555 1_555
C19A C18A 1_555 1_555
H22A C19A 1_555 1_555
C20A C15A 1_555 1_555
C21A C16A 1_555 1_555
H23A C21A 1_555 1_555
H24A C21A 1_555 1_555
C22A C21A 1_555 1_555
H25A C22A 1_555 1_555
H26A C22A 1_555 1_555
H27A C22A 1_555 1_555
C23A C20A 1_555 1_555
H28A C23A 1_555 1_555
H29A C23A 1_555 1_555
C24A C23A 1_555 1_555
H30A C24A 1_555 1_555
H31A C24A 1_555 1_555
H32A C24A 1_555 1_555
K1 N2 1_555 1_555
N2 C3 1_555 1_555
C1 C2 1_555 1_555
C2 C3 1_555 1_555
C9 C10 1_555 1_555
C10 K1A 1_555 1_555
C18 K1C 1_555 1_555
C19 C20 1_555 1_555
K1A N1A 1_555 1_555
K1A N2A 1_555 1_555
N1A C2A 1_555 1_555
N1A C5A 1_555 1_555
N2A C3A 1_555 1_555
C1A C2A 1_555 1_555
C2A C3A 1_555 1_555
C5A C10A 1_555 1_555
C9A C10A 1_555 1_555
C17A C18A 1_555 1_555
C17C C18C 1_555 1_555
C17B C18B 1_555 1_555
C19A C20A 1_555 1_555

#END
