
#######################################################################
#
#                 Cambridge Crystallographic Data Centre
#                                CCDC 
#
#######################################################################
#
# If this CIF has been generated from an entry in the Cambridge 
# Structural Database, then it will include bibliographic, chemical, 
# crystal, experimental, refinement or atomic coordinate data resulting 
# from the CCDC's data processing and validation procedures.
#
#######################################################################

data_NONWUJ
_symmetry_cell_setting           orthorhombic
_symmetry_space_group_name_H-M   'P b c a'
_symmetry_Int_Tables_number      61
_space_group_name_Hall           '-P 2ac 2ab'
loop_
_symmetry_equiv_pos_site_id
_symmetry_equiv_pos_as_xyz
1 x,y,z
2 1/2-x,-y,1/2+z
3 -x,1/2+y,1/2-z
4 1/2+x,1/2-y,-z
5 -x,-y,-z
6 1/2+x,y,1/2-z
7 x,1/2-y,1/2+z
8 1/2-x,1/2+y,z
_cell_length_a                   11.429(2)
_cell_length_b                   6.8709(12)
_cell_length_c                   19.916(4)
_cell_angle_alpha                90
_cell_angle_beta                 90
_cell_angle_gamma                90
_cell_volume                     1563.95
loop_
_atom_site_label
_atom_site_type_symbol
_atom_site_fract_x
_atom_site_fract_y
_atom_site_fract_z
O1 O -0.1985(5) 0.6132(8) -0.0117(3)
O2 O -0.0805(5) 0.4699(10) 0.0625(3)
C1 C -0.1748(7) 0.5331(11) 0.0445(4)
O3 O -0.4315(5) 0.4316(8) 0.3115(3)
C2 C -0.3419(8) 0.4100(11) 0.2743(4)
C3 C -0.3563(7) 0.4650(11) 0.2020(4)
Cu1 Cu -0.10306(8) 0.58745(15) -0.09280(5)
O4 O -0.5822(4) 0.6298(8) 0.0901(3)
O5 O -0.1430(5) 0.3090(8) -0.0963(3)
H1 H -0.0723 0.2338 -0.0990
H2 H -0.1852 0.2740 -0.0564
N1 N -0.4786(6) 0.5697(10) 0.1130(3)
C4 C -0.3879(7) 0.5656(12) 0.0709(4)
H3 H -0.3999 0.5935 0.0257
O6 O -0.2426(6) 0.3565(9) 0.2934(3)
H4 H -0.2454 0.3296 0.3350
C5 C -0.2619(7) 0.4691(11) 0.1592(4)
H5 H -0.1880 0.4354 0.1750
C6 C -0.2767(7) 0.5217(11) 0.0928(4)
C7 C -0.4649(8) 0.5156(12) 0.1780(4)
H6 H -0.5293 0.5130 0.2065
O2D O 0.0805(5) 0.5301(10) -0.0625(3)
O3A O -0.0685(5) 0.5684(8) -0.1885(3)
Cu1A Cu -0.39694(8) 0.41255(15) 0.40720(5)
Cu1D Cu 0.10306(8) 0.41255(15) 0.09280(5)
Cu1C Cu -0.60306(8) 0.91255(15) 0.09280(5)
O4C O -0.0822(4) 0.8702(8) -0.0901(3)
loop_
_geom_bond_atom_site_label_1
_geom_bond_atom_site_label_2
_geom_bond_site_symmetry_1
_geom_bond_site_symmetry_2
O1 C1 1_555 1_555
O2 C1 1_555 1_555
C1 C6 1_555 1_555
O3 C2 1_555 1_555
C2 C3 1_555 1_555
C3 C5 1_555 1_555
Cu1 O1 1_555 1_555
O4 N1 1_555 1_555
O5 Cu1 1_555 1_555
H1 O5 1_555 1_555
H2 O5 1_555 1_555
N1 C4 1_555 1_555
C4 H3 1_555 1_555
O6 C2 1_555 1_555
H4 O6 1_555 1_555
C5 H5 1_555 1_555
C6 C4 1_555 1_555
C7 C3 1_555 1_555
H6 C7 1_555 1_555
O2D Cu1 1_555 1_555
O3A Cu1 1_555 1_555
Cu1A O3 1_555 1_555
Cu1D O2 1_555 1_555
Cu1C O4 1_555 1_555
O4C Cu1 1_555 1_555
N1 C7 1_555 1_555
C5 C6 1_555 1_555

#END
