
#######################################################################
#
#                 Cambridge Crystallographic Data Centre
#                                CCDC 
#
#######################################################################
#
# If this CIF has been generated from an entry in the Cambridge 
# Structural Database, then it will include bibliographic, chemical, 
# crystal, experimental, refinement or atomic coordinate data resulting 
# from the CCDC's data processing and validation procedures.
#
#######################################################################

data_NONYOF
_symmetry_cell_setting           orthorhombic
_symmetry_space_group_name_H-M   'I b a m'
_symmetry_Int_Tables_number      72
_space_group_name_Hall           '-I 2 2c'
loop_
_symmetry_equiv_pos_site_id
_symmetry_equiv_pos_as_xyz
1 x,y,z
2 1/2+x,1/2+y,1/2+z
3 -x,-y,z
4 1/2-x,1/2+y,-z
5 1/2+x,1/2-y,-z
6 1/2-x,1/2-y,1/2+z
7 -x,y,1/2-z
8 x,-y,1/2-z
9 -x,-y,-z
10 1/2-x,1/2-y,1/2-z
11 x,y,-z
12 1/2+x,1/2-y,z
13 1/2-x,1/2+y,z
14 1/2+x,1/2+y,1/2-z
15 x,-y,1/2+z
16 -x,y,1/2+z
_cell_length_a                   20.649(2)
_cell_length_b                   7.6551(9)
_cell_length_c                   17.476(2)
_cell_angle_alpha                90
_cell_angle_beta                 90
_cell_angle_gamma                90
_cell_volume                     2762.43
loop_
_atom_site_label
_atom_site_type_symbol
_atom_site_fract_x
_atom_site_fract_y
_atom_site_fract_z
Cd1 Cd 0.0000 0.0000 -0.2500
Cd2 Cd 0.20028(6) 0.0000 -0.2500
K1 K 0.0000 0.5000 -0.36246(18)
O1 O 0.1026(4) -0.0307(13) -0.3306(6)
O2 O 0.0380(4) 0.1973(12) -0.3397(5)
O3 O 0.1834(4) 0.2816(10) -0.2942(4)
O4 O 0.2533(4) 0.4390(12) -0.3602(4)
O5 O -0.0383(7) 0.4080(17) -0.5000
H1 H -0.0787 0.4293 -0.5000
H2 H -0.0352 0.2973 -0.5000
O6 O 0.0983(8) 0.652(2) -0.4202(11)
H3 H 0.1014 0.7562 -0.4034
H4 H 0.0952 0.6557 -0.4687
O7 O -0.0776(11) 0.5000 -0.2500
H5 H -0.1014 0.4094 -0.2500
C1 C 0.0871(6) 0.1112(17) -0.3609(6)
C2 C 0.2067(5) 0.3355(14) -0.3569(6)
C3 C 0.0954(8) 0.121(3) -0.5000
H6 H 0.0585 0.0510 -0.5000
C4 C 0.1227(5) 0.1720(15) -0.4310(6)
C5 C 0.1773(5) 0.2758(14) -0.4304(6)
C6 C 0.2044(7) 0.329(2) -0.5000
H7 H 0.2407 0.4009 -0.5000
Cd1J Cd 0.0000 0.0000 -0.7500
Cd2J Cd 0.20028(6) 0.0000 -0.7500
Cd2L Cd 0.29972(6) 0.5000 -0.2500
Cd2C Cd 0.29972(6) 0.5000 -0.7500
Cd2B Cd -0.20028(6) 0.0000 -0.2500
Cd2K Cd -0.29972(6) -0.5000 -0.2500
Cd2O Cd -0.20028(6) 0.0000 -0.7500
Cd2A Cd -0.29972(6) -0.5000 -0.7500
K1J K 0.0000 0.5000 -0.63754(18)
K1F K 0.0000 0.5000 -0.13754(18)
K1_2 K 0.0000 -0.5000 -0.36246(18)
K1J_2 K 0.0000 -0.5000 -0.63754(18)
O1J O 0.1026(4) -0.0307(13) -0.6694(6)
O1B O -0.1026(4) 0.0307(13) -0.3306(6)
O1H O -0.1026(4) 0.0307(13) -0.6694(6)
O1F O -0.1026(4) -0.0307(13) -0.1694(6)
O1G O 0.1026(4) 0.0307(13) -0.1694(6)
O1N O 0.1026(4) 0.0307(13) -0.8306(6)
O2J O 0.0380(4) 0.1973(12) -0.6603(5)
O2B O -0.0380(4) -0.1973(12) -0.3397(5)
O2H O -0.0380(4) -0.1973(12) -0.6603(5)
O2F O -0.0380(4) 0.1973(12) -0.1603(5)
O2G O 0.0380(4) -0.1973(12) -0.1603(5)
O2B_2 O -0.0380(4) 0.8027(12) -0.3397(5)
O2H_2 O -0.0380(4) 0.8027(12) -0.6603(5)
O3J O 0.1834(4) 0.2816(10) -0.7058(4)
O3B O -0.1834(4) -0.2816(10) -0.2942(4)
O3H O -0.1834(4) -0.2816(10) -0.7058(4)
O3G O 0.1834(4) -0.2816(10) -0.2058(4)
O3N O 0.1834(4) -0.2816(10) -0.7942(4)
O4J O 0.2533(4) 0.4390(12) -0.6398(4)
O4B O -0.2533(4) -0.4390(12) -0.3602(4)
O4H O -0.2533(4) -0.4390(12) -0.6398(4)
O4I O 0.2467(4) 0.0610(12) -0.1398(4)
O4L O 0.2467(4) -0.0610(12) -0.3602(4)
O4E O 0.2467(4) 0.0610(12) -0.8602(4)
O4C O 0.2467(4) -0.0610(12) -0.6398(4)
O5H O 0.0383(7) 0.5920(17) -0.5000
H1H H 0.0787 0.5707 -0.5000
H2H H 0.0352 0.7027 -0.5000
O6B O -0.0983(8) 0.348(2) -0.4202(11)
O6J O 0.0983(8) 0.652(2) -0.5798(11)
O6H O -0.0983(8) 0.348(2) -0.5798(11)
H3B H -0.1014 0.2438 -0.4034
H3J H 0.1014 0.7562 -0.5966
H3H H -0.1014 0.2438 -0.5966
H4B H -0.0952 0.3443 -0.4687
H4J H 0.0952 0.6557 -0.5313
H4H H -0.0952 0.3443 -0.5313
O7B O 0.0776(11) 0.5000 -0.2500
O7O O 0.0776(11) 0.5000 -0.7500
O7J O -0.0776(11) 0.5000 -0.7500
H5F H 0.1014 0.4094 -0.2500
H5B H 0.1014 0.5906 -0.2500
H5G H -0.1014 0.5906 -0.2500
H5H H 0.1014 0.5906 -0.7500
H5O H 0.1014 0.4094 -0.7500
H5J H -0.1014 0.4094 -0.7500
H5N H -0.1014 0.5906 -0.7500
C1J C 0.0871(6) 0.1112(17) -0.6391(6)
C1B C -0.0871(6) -0.1112(17) -0.3609(6)
C1H C -0.0871(6) -0.1112(17) -0.6391(6)
C2J C 0.2067(5) 0.3355(14) -0.6431(6)
C2B C -0.2067(5) -0.3355(14) -0.3569(6)
C2H C -0.2067(5) -0.3355(14) -0.6431(6)
C3H C -0.0954(8) -0.121(3) -0.5000
H6H H -0.0585 -0.0510 -0.5000
C4J C 0.1227(5) 0.1720(15) -0.5690(6)
C4B C -0.1227(5) -0.1720(15) -0.4310(6)
C4H C -0.1227(5) -0.1720(15) -0.5690(6)
C5J C 0.1773(5) 0.2758(14) -0.5696(6)
C5B C -0.1773(5) -0.2758(14) -0.4304(6)
C5H C -0.1773(5) -0.2758(14) -0.5696(6)
C6H C -0.2044(7) -0.329(2) -0.5000
H7H H -0.2407 -0.4009 -0.5000
loop_
_geom_bond_atom_site_label_1
_geom_bond_atom_site_label_2
_geom_bond_site_symmetry_1
_geom_bond_site_symmetry_2
Cd1 O1 1_555 1_555
Cd2 O1 1_555 1_555
K1 O2 1_555 1_555
O1 C1 1_555 1_555
O2 Cd1 1_555 1_555
O3 Cd2 1_555 1_555
O4 C2 1_555 1_555
O5 K1 1_555 1_555
H1 O5 1_555 1_555
H2 O5 1_555 1_555
O6 K1 1_555 1_555
H3 O6 1_555 1_555
H4 O6 1_555 1_555
O7 K1 1_555 1_555
H5 O7 1_555 1_555
C1 O2 1_555 1_555
C2 O3 1_555 1_555
C3 H6 1_555 1_555
C4 C1 1_555 1_555
C5 C2 1_555 1_555
C6 C5 1_555 1_555
H7 C6 1_555 1_555
Cd1J O1J 1_555 1_555
Cd2J O1J 1_555 1_555
Cd2L O4 1_555 1_555
Cd2C O4J 1_555 1_555
Cd2B O1B 1_555 1_555
Cd2K O4B 1_555 1_555
Cd2O O1H 1_555 1_555
Cd2A O4H 1_555 1_555
K1J O5 1_555 1_555
K1F O7 1_555 1_555
K1_2 O2B 1_555 1_555
K1J_2 O2H 1_555 1_555
O1J C1J 1_555 1_555
O1B Cd1 1_555 1_555
O1H Cd1J 1_555 1_555
O1F Cd1 1_555 1_555
O1G Cd1 1_555 1_555
O1N Cd1J 1_555 1_555
O2J Cd1J 1_555 1_555
O2B Cd1 1_555 1_555
O2H Cd1J 1_555 1_555
O2F Cd1 1_555 1_555
O2G Cd1 1_555 1_555
O2B_2 K1 1_555 1_555
O2H_2 K1J 1_555 1_555
O3J Cd2J 1_555 1_555
O3B Cd2B 1_555 1_555
O3H Cd2O 1_555 1_555
O3G Cd2 1_555 1_555
O3N Cd2J 1_555 1_555
O4J C2J 1_555 1_555
O4B C2B 1_555 1_555
O4H C2H 1_555 1_555
O4I Cd2 1_555 1_555
O4L Cd2 1_555 1_555
O4E Cd2J 1_555 1_555
O4C Cd2J 1_555 1_555
O5H K1 1_555 1_555
H1H O5H 1_555 1_555
H2H O5H 1_555 1_555
O6B K1 1_555 1_555
O6J K1J 1_555 1_555
O6H K1J 1_555 1_555
H3B O6B 1_555 1_555
H3J O6J 1_555 1_555
H3H O6H 1_555 1_555
H4B O6B 1_555 1_555
H4J O6J 1_555 1_555
H4H O6H 1_555 1_555
O7B K1 1_555 1_555
O7O K1J 1_555 1_555
O7J K1J 1_555 1_555
H5F O7B 1_555 1_555
H5B O7B 1_555 1_555
H5G O7 1_555 1_555
H5H O7O 1_555 1_555
H5O O7O 1_555 1_555
H5J O7J 1_555 1_555
H5N O7J 1_555 1_555
C1J O2J 1_555 1_555
C1B O1B 1_555 1_555
C1H O1H 1_555 1_555
C2J O3J 1_555 1_555
C2B O3B 1_555 1_555
C2H O3H 1_555 1_555
C3H H6H 1_555 1_555
C4J C3 1_555 1_555
C4B C1B 1_555 1_555
C4H C1H 1_555 1_555
C5J C6 1_555 1_555
C5B C2B 1_555 1_555
C5H C2H 1_555 1_555
C6H C5B 1_555 1_555
H7H C6H 1_555 1_555
Cd2 O1G 1_555 1_555
C3 C4 1_555 1_555
C4 C5 1_555 1_555
Cd2J O1N 1_555 1_555
Cd2B O1F 1_555 1_555
K1J O2J 1_555 1_555
K1J O5H 1_555 1_555
K1F O2F 1_555 1_555
K1F O7B 1_555 1_555
O2B C1B 1_555 1_555
O2H C1H 1_555 1_555
C1J C4J 1_555 1_555
C2J C5J 1_555 1_555
C3H C4B 1_555 1_555
C3H C4H 1_555 1_555
C4J C5J 1_555 1_555
C4B C5B 1_555 1_555
C4H C5H 1_555 1_555
C5H C6H 1_555 1_555

#END
