
#######################################################################
#
#                 Cambridge Crystallographic Data Centre
#                                CCDC 
#
#######################################################################
#
# If this CIF has been generated from an entry in the Cambridge 
# Structural Database, then it will include bibliographic, chemical, 
# crystal, experimental, refinement or atomic coordinate data resulting 
# from the CCDC's data processing and validation procedures.
#
#######################################################################

data_NOPBOK
_symmetry_cell_setting           monoclinic
_symmetry_space_group_name_H-M   'P 21/n'
_symmetry_Int_Tables_number      14
_space_group_name_Hall           '-P 2yn'
loop_
_symmetry_equiv_pos_site_id
_symmetry_equiv_pos_as_xyz
1 x,y,z
2 1/2-x,1/2+y,1/2-z
3 -x,-y,-z
4 1/2+x,1/2-y,1/2+z
_cell_length_a                   7.1142(14)
_cell_length_b                   9.4200(19)
_cell_length_c                   10.971(2)
_cell_angle_alpha                90
_cell_angle_beta                 95.71(3)
_cell_angle_gamma                90
_cell_volume                     731.582
loop_
_atom_site_label
_atom_site_type_symbol
_atom_site_fract_x
_atom_site_fract_y
_atom_site_fract_z
Pb1 Pb 0.21223(3) 0.380817(19) -0.085801(18)
Cl1 Cl -0.1136(2) 0.31677(15) 0.01922(14)
O1 O 0.0974(7) 0.1659(4) -0.2154(4)
O2 O -0.0807(7) 0.0708(4) -0.3745(4)
N1 N -0.1286(7) 0.5351(5) -0.3681(4)
H3 H -0.1285 0.6247 -0.3533
N2 N -0.0353(8) 0.4363(5) -0.2960(5)
N3 N -0.1906(7) 0.3346(5) -0.4598(5)
C1 C -0.0769(8) 0.3173(6) -0.3559(5)
C2 C -0.2196(8) 0.4737(6) -0.4642(6)
H4 H -0.2934 0.5209 -0.5262
C3 C -0.0132(8) 0.1728(6) -0.3089(5)
Pb1B Pb -0.21223(3) 0.619183(19) 0.085801(18)
Pb1C Pb -0.28777(3) 0.119183(19) -0.585801(18)
Cl1B Cl 0.1136(2) 0.68323(15) -0.01922(14)
O2C O 0.4193(7) 0.4292(4) 0.1255(4)
N3C N 0.3094(7) 0.1654(5) 0.0402(5)
O3 O 0.4781(7) 0.7014(4) 0.2149(4)
H1 H 0.4113 0.6291 0.1933
H2 H 0.5095 0.7116 0.2912
loop_
_geom_bond_atom_site_label_1
_geom_bond_atom_site_label_2
_geom_bond_site_symmetry_1
_geom_bond_site_symmetry_2
Pb1 Cl1 1_555 1_555
Cl1 Pb1B 1_555 1_555
O1 Pb1 1_555 1_555
O2 C3 1_555 1_555
O3 H1 1_555 1_555
H2 O3 1_555 1_555
N1 H3 1_555 1_555
N2 N1 1_555 1_555
N3 C1 1_555 1_555
C1 N2 1_555 1_555
C2 N1 1_555 1_555
H4 C2 1_555 1_555
C3 O1 1_555 1_555
Pb1B Cl1B 1_555 1_555
Pb1C O2 1_555 1_555
Cl1B Pb1 1_555 1_555
O2C Pb1 1_555 1_555
N3C Pb1 1_555 1_555
N3 C2 1_555 1_555
N3 Pb1C 1_555 1_555
C1 C3 1_555 1_555

#END
