
#######################################################################
#
#                 Cambridge Crystallographic Data Centre
#                                CCDC 
#
#######################################################################
#
# If this CIF has been generated from an entry in the Cambridge 
# Structural Database, then it will include bibliographic, chemical, 
# crystal, experimental, refinement or atomic coordinate data resulting 
# from the CCDC's data processing and validation procedures.
#
#######################################################################

data_NOPCOL
_symmetry_cell_setting           triclinic
_symmetry_space_group_name_H-M   'P -1'
_symmetry_Int_Tables_number      2
_space_group_name_Hall           '-P 1'
loop_
_symmetry_equiv_pos_site_id
_symmetry_equiv_pos_as_xyz
1 x,y,z
2 -x,-y,-z
_cell_length_a                   8.5420(10)
_cell_length_b                   10.2570(10)
_cell_length_c                   13.361(2)
_cell_angle_alpha                100.704(2)
_cell_angle_beta                 100.195(2)
_cell_angle_gamma                108.873(3)
_cell_volume                     1052.44
loop_
_atom_site_label
_atom_site_type_symbol
_atom_site_fract_x
_atom_site_fract_y
_atom_site_fract_z
Cd1 Cd -0.45578(3) -0.46190(3) 0.21202(2)
N1 N -0.2319(4) -0.5258(3) 0.2530(3)
N2 N -0.0659(5) -0.6497(4) 0.2471(3)
H1 H -0.0268 -0.7137 0.2242
N3 N -0.6712(4) -0.3887(4) 0.1696(3)
N4 N -0.8412(5) -0.2702(4) 0.1832(3)
H2 H -0.8916 -0.2179 0.2106
O1 O -0.5642(4) -0.6487(3) 0.0557(2)
O2 O -0.7122(4) -0.7013(3) -0.1266(2)
O3 O -0.8522(4) -0.8270(3) -0.0121(2)
O4 O -0.3159(4) -0.2559(3) 0.3578(2)
O5 O -0.3555(4) -0.3827(3) 0.4921(2)
O6 O -0.1331(4) -0.1482(3) 0.5339(2)
O7 O -0.6184(4) -0.6150(4) 0.2970(3)
H3 H -0.7209 -0.6614 0.2607
H4 H -0.6164 -0.5728 0.3585
S1 S -0.69051(12) -0.75741(10) -0.03471(7)
S2 S -0.30125(12) -0.24364(10) 0.47053(7)
C1 C -0.5989(5) -0.8890(4) -0.0661(3)
C2 C -0.5789(5) -0.9225(4) -0.1650(3)
H9 H -0.6212 -0.8835 -0.2162
C3 C -0.4936(5) -1.0169(4) -0.1903(3)
H10 H -0.4794 -1.0395 -0.2579
C4 C -0.4328(5) -1.0743(4) -0.1162(3)
H11 H -0.3734 -1.1333 -0.1334
C5 C -0.5433(5) -0.9526(4) 0.0135(3)
C6 C -0.4529(5) -0.1672(4) 0.5005(3)
C7 C -0.4333(5) -0.0253(4) 0.4915(3)
C8 C -0.2897(5) 0.0648(4) 0.4657(3)
H12 H -0.2025 0.0325 0.4549
C9 C -0.2768(5) 0.1973(4) 0.4564(3)
H13 H -0.1820 0.2539 0.4386
C10 C -0.5941(5) -0.2501(4) 0.5264(3)
H14 H -0.6045 -0.3411 0.5326
C11 C -0.2051(5) -0.6325(4) 0.1975(4)
H15 H -0.2745 -0.6891 0.1317
C12 C 0.0019(6) -0.5488(5) 0.3394(4)
H16 H 0.0993 -0.5348 0.3905
C13 C -0.0998(5) -0.4717(5) 0.3432(4)
H17 H -0.0832 -0.3941 0.3981
C14 C -0.7257(6) -0.3103(5) 0.2350(4)
H18 H -0.6877 -0.2865 0.3080
C15 C -0.8654(6) -0.3262(5) 0.0796(4)
H19 H -0.9406 -0.3168 0.0244
C16 C -0.7590(6) -0.3990(5) 0.0716(4)
H20 H -0.7481 -0.4480 0.0089
Cd1A Cd -0.54422(3) -0.53810(3) -0.21202(2)
Cd1A_2 Cd -0.54422(3) -1.53810(3) -0.21202(2)
Cd1_2 Cd -0.45578(3) -1.46190(3) 0.21202(2)
Cd1A_3 Cd -0.54422(3) 0.46190(3) 0.78798(2)
N1A N -0.7681(4) -1.4742(3) -0.2530(3)
N2A N -0.9341(5) -1.3503(4) -0.2471(3)
H1A H -0.9732 -1.2863 -0.2242
N3A N -0.3288(4) -1.6113(4) -0.1696(3)
N4A N -0.1588(5) -1.7298(4) -0.1832(3)
H2A H -0.1084 -1.7821 -0.2106
O1A O -0.4358(4) -1.3513(3) -0.0557(2)
O2A O -0.2878(4) -0.2987(3) 0.1266(2)
O2A_2 O -0.2878(4) -1.2987(3) 0.1266(2)
O2_2 O -0.7122(4) -1.7013(3) -0.1266(2)
O3A O -0.1478(4) -1.1730(3) 0.0121(2)
O4A O -0.6841(4) 0.2559(3) 0.6422(2)
O4A_2 O -0.6841(4) -1.7441(3) -0.3578(2)
O5A O -0.6445(4) 0.3827(3) 0.5079(2)
O6A O -0.8669(4) 0.1482(3) 0.4661(2)
O7A O -0.3816(4) -1.3850(4) -0.2970(3)
H3A H -0.2791 -1.3386 -0.2607
H4A H -0.3836 -1.4272 -0.3585
S1A S -0.30949(12) -1.24259(10) 0.03471(7)
S2A S -0.69875(12) 0.24364(10) 0.52947(7)
C1A C -0.4011(5) -1.1110(4) 0.0661(3)
C2A C -0.4211(5) -1.0775(4) 0.1650(3)
H9A H -0.3788 -1.1165 0.2162
C3A C -0.5064(5) -0.9831(4) 0.1903(3)
H10A H -0.5206 -0.9605 0.2579
C4A C -0.5672(5) -0.9257(4) 0.1162(3)
H11A H -0.6266 -0.8667 0.1334
C5A C -0.4567(5) -1.0474(4) -0.0135(3)
C6A C -0.5471(5) 0.1672(4) 0.4995(3)
C7A C -0.5667(5) 0.0253(4) 0.5085(3)
C8A C -0.7103(5) -0.0648(4) 0.5343(3)
H12A H -0.7975 -0.0325 0.5451
C9A C -0.7232(5) -0.1973(4) 0.5436(3)
H13A H -0.8180 -0.2539 0.5614
C10A C -0.4059(5) 0.2501(4) 0.4736(3)
H14A H -0.3955 0.3411 0.4674
C11A C -0.7949(5) -1.3675(4) -0.1975(4)
H15A H -0.7255 -1.3109 -0.1317
C12A C -1.0019(6) -1.4512(5) -0.3394(4)
H16A H -1.0993 -1.4652 -0.3905
C13A C -0.9002(5) -1.5283(5) -0.3432(4)
H17A H -0.9168 -1.6059 -0.3981
C14A C -0.2743(6) -1.6897(5) -0.2350(4)
H18A H -0.3123 -1.7135 -0.3080
C15A C -0.1346(6) -1.6738(5) -0.0796(4)
H19A H -0.0594 -1.6832 -0.0244
C16A C -0.2410(6) -1.6010(5) -0.0716(4)
H20A H -0.2519 -1.5520 -0.0089
O8 O -1.0127(4) -0.9189(4) 0.7147(3)
H5 H -0.9094 -0.8695 0.7483
H6 H -1.0142 -0.9819 0.6629
O9 O -0.0795(4) -0.1489(3) 0.8169(3)
H7 H -0.0984 -0.1375 0.8777
H8 H -0.0623 -0.0711 0.7990
loop_
_geom_bond_atom_site_label_1
_geom_bond_atom_site_label_2
_geom_bond_site_symmetry_1
_geom_bond_site_symmetry_2
Cd1 N1 1_555 1_555
N1 C11 1_555 1_555
N2 H1 1_555 1_555
N3 Cd1 1_555 1_555
N4 H2 1_555 1_555
O1 Cd1 1_555 1_555
O2 S1 1_555 1_555
O3 S1 1_555 1_555
O4 Cd1 1_555 1_555
O5 S2 1_555 1_555
O6 S2 1_555 1_555
O7 Cd1 1_555 1_555
H3 O7 1_555 1_555
H4 O7 1_555 1_555
O8 H5 1_555 1_555
H6 O8 1_555 1_555
O9 H7 1_555 1_555
H8 O9 1_555 1_555
S1 O1 1_555 1_555
S2 O4 1_555 1_555
C1 S1 1_555 1_555
C2 C1 1_555 1_555
H9 C2 1_555 1_555
C3 C2 1_555 1_555
H10 C3 1_555 1_555
C4 C3 1_555 1_555
H11 C4 1_555 1_555
C5 C1 1_555 1_555
C6 S2 1_555 1_555
C7 C6 1_555 1_555
C8 C7 1_555 1_555
H12 C8 1_555 1_555
C9 C8 1_555 1_555
H13 C9 1_555 1_555
C10 C6 1_555 1_555
H14 C10 1_555 1_555
C11 N2 1_555 1_555
H15 C11 1_555 1_555
C12 N2 1_555 1_555
H16 C12 1_555 1_555
C13 N1 1_555 1_555
H17 C13 1_555 1_555
C14 N3 1_555 1_555
H18 C14 1_555 1_555
C15 N4 1_555 1_555
H19 C15 1_555 1_555
C16 N3 1_555 1_555
H20 C16 1_555 1_555
Cd1A O2 1_555 1_555
Cd1A_2 N1A 1_555 1_555
Cd1_2 O2A_2 1_555 1_555
Cd1A_3 O4A 1_555 1_555
N1A C11A 1_555 1_555
N2A H1A 1_555 1_555
N3A Cd1A_2 1_555 1_555
N4A H2A 1_555 1_555
O1A Cd1A_2 1_555 1_555
O2A Cd1 1_555 1_555
O2A_2 S1A 1_555 1_555
O2_2 Cd1A_2 1_555 1_555
O3A S1A 1_555 1_555
O4A S2A 1_555 1_555
O4A_2 Cd1A_2 1_555 1_555
O5A S2A 1_555 1_555
O6A S2A 1_555 1_555
O7A Cd1A_2 1_555 1_555
H3A O7A 1_555 1_555
H4A O7A 1_555 1_555
S1A O1A 1_555 1_555
S2A C6A 1_555 1_555
C1A S1A 1_555 1_555
C2A C1A 1_555 1_555
H9A C2A 1_555 1_555
C3A C2A 1_555 1_555
H10A C3A 1_555 1_555
C4A C5 1_555 1_555
H11A C4A 1_555 1_555
C5A C4 1_555 1_555
C6A C7A 1_555 1_555
C7A C7 1_555 1_555
C8A C7A 1_555 1_555
H12A C8A 1_555 1_555
C9A C10 1_555 1_555
H13A C9A 1_555 1_555
C10A C9 1_555 1_555
H14A C10A 1_555 1_555
C11A N2A 1_555 1_555
H15A C11A 1_555 1_555
C12A N2A 1_555 1_555
H16A C12A 1_555 1_555
C13A N1A 1_555 1_555
H17A C13A 1_555 1_555
C14A N3A 1_555 1_555
H18A C14A 1_555 1_555
C15A N4A 1_555 1_555
H19A C15A 1_555 1_555
C16A N3A 1_555 1_555
H20A C16A 1_555 1_555
N4 C14 1_555 1_555
C5 C5A 1_555 1_555
C12 C13 1_555 1_555
C15 C16 1_555 1_555
N4A C14A 1_555 1_555
C1A C5A 1_555 1_555
C3A C4A 1_555 1_555
C6A C10A 1_555 1_555
C8A C9A 1_555 1_555
C12A C13A 1_555 1_555
C15A C16A 1_555 1_555

#END
