
#######################################################################
#
#                 Cambridge Crystallographic Data Centre
#                                CCDC 
#
#######################################################################
#
# If this CIF has been generated from an entry in the Cambridge 
# Structural Database, then it will include bibliographic, chemical, 
# crystal, experimental, refinement or atomic coordinate data resulting 
# from the CCDC's data processing and validation procedures.
#
#######################################################################

data_NOPCIG
_symmetry_cell_setting           monoclinic
_symmetry_space_group_name_H-M   'P 21/n'
_symmetry_Int_Tables_number      14
_space_group_name_Hall           '-P 2yn'
loop_
_symmetry_equiv_pos_site_id
_symmetry_equiv_pos_as_xyz
1 x,y,z
2 1/2-x,1/2+y,1/2-z
3 -x,-y,-z
4 1/2+x,1/2-y,1/2+z
_cell_length_a                   7.943(3)
_cell_length_b                   12.822(5)
_cell_length_c                   13.509(5)
_cell_angle_alpha                90
_cell_angle_beta                 90.626(12)
_cell_angle_gamma                90
_cell_volume                     1375.74
loop_
_atom_site_label
_atom_site_type_symbol
_atom_site_fract_x
_atom_site_fract_y
_atom_site_fract_z
C1 C 0.1949(4) 0.51656(18) 0.3711(2)
H1 H 0.2051 0.4444 0.3677
C2 C 0.0737(4) 0.5650(2) 0.3145(2)
H2 H 0.0019 0.5258 0.2744
C3 C 0.0585(3) 0.6724(2) 0.3170(2)
H3 H -0.0192 0.7065 0.2765
C4 C 0.1616(3) 0.72813(17) 0.38128(16)
C5 C 0.2789(3) 0.67358(17) 0.43726(16)
H4 H 0.3470 0.7107 0.4812
C6 C 0.1570(3) 0.84480(18) 0.38296(18)
C7 C 0.2247(3) 0.99495(17) 0.49211(18)
C8 C 0.2092(4) 1.0746(2) 0.4237(2)
H5 H 0.1728 1.0604 0.3595
C9 C 0.2479(4) 1.1755(2) 0.4513(2)
H6 H 0.2415 1.2281 0.4040
C10 C 0.2960(3) 1.20078(17) 0.54666(17)
C11 C 0.3053(4) 1.1210(2) 0.6146(2)
H7 H 0.3354 1.1358 0.6798
C12 C 0.2707(5) 1.01973(19) 0.5877(2)
H8 H 0.2784 0.9671 0.6349
C13 C 0.3397(3) 1.31083(18) 0.57474(18)
N1 N 0.2997(2) 0.57017(14) 0.43151(14)
N2 N 0.1960(3) 0.88896(16) 0.47031(17)
H9 H 0.196(4) 0.856(2) 0.514(2)
O1 O 0.1251(3) 0.89336(15) 0.30674(14)
O2 O 0.3699(2) 1.37129(12) 0.50199(12)
O3 O 0.3493(3) 1.33725(14) 0.66350(13)
O4 O 0.3805(2) 0.55401(14) 0.66334(13)
Cu1 Cu 0.5000 0.5000 0.5000
C1B C 0.8051(4) 0.48344(18) 0.6289(2)
H1B H 0.7949 0.5556 0.6323
C2B C 0.9263(4) 0.4350(2) 0.6855(2)
H2B H 0.9981 0.4742 0.7256
C3B C 0.9415(3) 0.3276(2) 0.6830(2)
H3B H 1.0192 0.2935 0.7235
C4B C 0.8384(3) 0.27187(17) 0.61872(16)
C5B C 0.7211(3) 0.32642(17) 0.56274(16)
H4B H 0.6530 0.2893 0.5188
C6B C 0.8430(3) 0.15520(18) 0.61704(18)
C7B C 0.7753(3) 0.00505(17) 0.50789(18)
C8B C 0.7908(4) -0.0746(2) 0.5763(2)
H5B H 0.8272 -0.0604 0.6405
C9B C 0.7521(4) -0.1755(2) 0.5487(2)
H6B H 0.7585 -0.2281 0.5960
C10B C 0.7040(3) -0.20078(17) 0.45334(17)
C11B C 0.6947(4) -0.1210(2) 0.3854(2)
H7B H 0.6646 -0.1358 0.3202
C12B C 0.7293(5) -0.01973(19) 0.4123(2)
H8B H 0.7216 0.0329 0.3651
C13B C 0.6603(3) -0.31083(18) 0.42526(18)
N1B N 0.7003(2) 0.42983(14) 0.56849(14)
N2B N 0.8040(3) 0.11104(16) 0.52969(17)
H9B H 0.804(4) 0.144(2) 0.486(2)
O1B O 0.8749(3) 0.10664(15) 0.69326(14)
O2B O 0.6301(2) -0.37129(12) 0.49801(12)
O3B O 0.6507(3) -0.33725(14) 0.33650(13)
O4B O 0.6195(2) 0.44599(14) 0.33666(13)
O2_2 O 0.3699(2) 0.37129(12) 0.50199(12)
O2B_2 O 0.6301(2) 0.62871(12) 0.49801(12)
Cu1_2 Cu 0.5000 -0.5000 0.5000
Cu1_3 Cu 0.5000 1.5000 0.5000
O5 O 0.2015(5) 0.7554(2) 0.64650(19)
H10 H 0.176(5) 0.770(3) 0.697(3)
H11 H 0.232(6) 0.706(4) 0.647(3)
loop_
_geom_bond_atom_site_label_1
_geom_bond_atom_site_label_2
_geom_bond_site_symmetry_1
_geom_bond_site_symmetry_2
C1 H1 1_555 1_555
C2 C1 1_555 1_555
H2 C2 1_555 1_555
C3 C2 1_555 1_555
H3 C3 1_555 1_555
C4 C3 1_555 1_555
C5 C4 1_555 1_555
H4 C5 1_555 1_555
C6 C4 1_555 1_555
C7 C8 1_555 1_555
C8 H5 1_555 1_555
C9 C8 1_555 1_555
H6 C9 1_555 1_555
C10 C9 1_555 1_555
C11 C10 1_555 1_555
H7 C11 1_555 1_555
C12 C7 1_555 1_555
H8 C12 1_555 1_555
C13 C10 1_555 1_555
N1 C1 1_555 1_555
N2 C6 1_555 1_555
H9 N2 1_555 1_555
O1 C6 1_555 1_555
O2 C13 1_555 1_555
O3 C13 1_555 1_555
O4 Cu1 1_555 1_555
Cu1 N1 1_555 1_555
O5 H10 1_555 1_555
H11 O5 1_555 1_555
C1B H1B 1_555 1_555
C2B C1B 1_555 1_555
H2B C2B 1_555 1_555
C3B C2B 1_555 1_555
H3B C3B 1_555 1_555
C4B C3B 1_555 1_555
C5B C4B 1_555 1_555
H4B C5B 1_555 1_555
C6B C4B 1_555 1_555
C7B C8B 1_555 1_555
C8B H5B 1_555 1_555
C9B C8B 1_555 1_555
H6B C9B 1_555 1_555
C10B C9B 1_555 1_555
C11B C10B 1_555 1_555
H7B C11B 1_555 1_555
C12B C7B 1_555 1_555
H8B C12B 1_555 1_555
C13B C10B 1_555 1_555
N1B Cu1 1_555 1_555
N2B C6B 1_555 1_555
H9B N2B 1_555 1_555
O1B C6B 1_555 1_555
O2B C13B 1_555 1_555
O3B C13B 1_555 1_555
O4B Cu1 1_555 1_555
O2_2 Cu1 1_555 1_555
O2B_2 Cu1 1_555 1_555
Cu1_2 O2B 1_555 1_555
Cu1_3 O2 1_555 1_555
C5 N1 1_555 1_555
C7 N2 1_555 1_555
C11 C12 1_555 1_555
C1B N1B 1_555 1_555
C5B N1B 1_555 1_555
C7B N2B 1_555 1_555
C11B C12B 1_555 1_555

#END
