
#######################################################################
#
#                 Cambridge Crystallographic Data Centre
#                                CCDC 
#
#######################################################################
#
# If this CIF has been generated from an entry in the Cambridge 
# Structural Database, then it will include bibliographic, chemical, 
# crystal, experimental, refinement or atomic coordinate data resulting 
# from the CCDC's data processing and validation procedures.
#
#######################################################################

data_NOPFAA
_symmetry_cell_setting           orthorhombic
_symmetry_space_group_name_H-M   'F d d 2'
_symmetry_Int_Tables_number      43
_space_group_name_Hall           'F 2 -2d'
loop_
_symmetry_equiv_pos_site_id
_symmetry_equiv_pos_as_xyz
1 x,y,z
2 -x,-y,z
3 1/4-x,1/4+y,1/4+z
4 1/4+x,1/4-y,1/4+z
5 x,1/2+y,1/2+z
6 -x,1/2-y,1/2+z
7 1/4-x,3/4+y,3/4+z
8 1/4+x,3/4-y,3/4+z
9 1/2+x,y,1/2+z
10 1/2-x,-y,1/2+z
11 3/4-x,1/4+y,3/4+z
12 3/4+x,1/4-y,3/4+z
13 1/2+x,1/2+y,z
14 1/2-x,1/2-y,z
15 3/4-x,3/4+y,1/4+z
16 3/4+x,3/4-y,1/4+z
_cell_length_a                   26.884(4)
_cell_length_b                   27.445(3)
_cell_length_c                   5.8671(7)
_cell_angle_alpha                90
_cell_angle_beta                 90
_cell_angle_gamma                90
_cell_volume                     4328.93
loop_
_atom_site_label
_atom_site_type_symbol
_atom_site_fract_x
_atom_site_fract_y
_atom_site_fract_z
Cd1 Cd 0.513074(8) 0.127892(7) 0.31663(7)
N1 N 0.54918(11) 0.09854(12) 0.6344(4)
N2 N 0.48148(10) 0.16668(10) -0.0022(5)
N3 N 0.44273(9) 0.07934(9) 0.3430(5)
N4 N 0.32890(9) 0.06274(10) 0.0092(5)
H1 H 0.3141 0.0331 -0.0185
H2 H 0.3457 0.0713 -0.1212
C1 C 0.55702(10) 0.08529(10) 0.8169(7)
C2 C 0.47497(9) 0.18055(9) -0.1843(6)
C3 C 0.40806(11) 0.08283(12) 0.1819(6)
H3 H 0.4134 0.1050 0.0600
C4 C 0.36462(10) 0.05573(12) 0.1834(5)
C5 C 0.35708(12) 0.02357(11) 0.3609(7)
H4 H 0.3276 0.0046 0.3678
C6 C 0.39302(11) 0.01934(12) 0.5287(7)
H5 H 0.3887 -0.0028 0.6515
C7 C 0.43554(12) 0.04804(12) 0.5149(6)
H6 H 0.4601 0.0454 0.6305
S1 S 0.56965(4) 0.06503(4) 1.07246(18)
S2 S 0.46535(3) 0.20103(3) -0.44239(16)
Cd1_2 Cd 0.513074(8) 0.127892(7) 1.31663(7)
Cd1_3 Cd 0.513074(8) 0.127892(7) -0.68337(7)
Cd1K Cd 0.263074(8) 0.122108(7) 0.06663(7)
N4C N 0.57890(9) 0.18726(10) 0.2592(5)
H1C H 0.5641 0.2169 0.2315
H2C H 0.5957 0.1787 0.1288
S1_2 S 0.56965(4) 0.06503(4) 0.07246(18)
S2_2 S 0.46535(3) 0.20103(3) 0.55761(16)
loop_
_geom_bond_atom_site_label_1
_geom_bond_atom_site_label_2
_geom_bond_site_symmetry_1
_geom_bond_site_symmetry_2
Cd1 N1 1_555 1_555
N1 C1 1_555 1_555
N2 Cd1 1_555 1_555
N3 Cd1 1_555 1_555
N4 H1 1_555 1_555
H2 N4 1_555 1_555
C1 S1 1_555 1_555
C2 N2 1_555 1_555
C3 N3 1_555 1_555
H3 C3 1_555 1_555
C4 N4 1_555 1_555
C5 C4 1_555 1_555
H4 C5 1_555 1_555
C6 C5 1_555 1_555
H5 C6 1_555 1_555
C7 N3 1_555 1_555
H6 C7 1_555 1_555
S1 Cd1_2 1_555 1_555
S2 C2 1_555 1_555
Cd1_3 S2 1_555 1_555
Cd1K N4 1_555 1_555
N4C Cd1 1_555 1_555
H1C N4C 1_555 1_555
H2C N4C 1_555 1_555
S1_2 Cd1 1_555 1_555
S2_2 Cd1 1_555 1_555
C3 C4 1_555 1_555
C6 C7 1_555 1_555

#END
