
#######################################################################
#
#                 Cambridge Crystallographic Data Centre
#                                CCDC 
#
#######################################################################
#
# If this CIF has been generated from an entry in the Cambridge 
# Structural Database, then it will include bibliographic, chemical, 
# crystal, experimental, refinement or atomic coordinate data resulting 
# from the CCDC's data processing and validation procedures.
#
#######################################################################

data_NOPGOP
_symmetry_cell_setting           monoclinic
_symmetry_space_group_name_H-M   'C 2/c'
_symmetry_Int_Tables_number      15
_space_group_name_Hall           '-C 2yn'
loop_
_symmetry_equiv_pos_site_id
_symmetry_equiv_pos_as_xyz
1 x,y,z
2 1/2+x,1/2+y,z
3 -x,y,1/2-z
4 1/2-x,1/2+y,1/2-z
5 -x,-y,-z
6 1/2-x,1/2-y,-z
7 x,-y,1/2+z
8 1/2+x,1/2-y,1/2+z
_cell_length_a                   15.3661(18)
_cell_length_b                   10.4529(18)
_cell_length_c                   15.763(2)
_cell_angle_alpha                90
_cell_angle_beta                 90.309(3)
_cell_angle_gamma                90
_cell_volume                     2531.82
loop_
_atom_site_label
_atom_site_type_symbol
_atom_site_fract_x
_atom_site_fract_y
_atom_site_fract_z
Mn1 Mn 0.2500 -0.2500 0.0000
N1 N 0.32261(16) -0.3044(2) 0.09983(14)
N2 N 0.37988(15) -0.2396(2) 0.12858(13)
N3 N 0.43486(16) -0.1817(2) 0.15936(14)
N4 N 0.16288(15) -0.3818(2) 0.02648(14)
N5 N 0.15119(13) -0.4329(2) 0.09290(14)
N6 N 0.43241(15) 0.1534(2) 0.15873(14)
N7 N 0.17825(13) -0.1018(2) 0.08457(13)
N8 N 0.13619(17) -0.4862(3) 0.15373(16)
Na1 Na 0.5000 -0.00975(13) 0.2500
C1 C 0.3893(2) 0.2519(3) 0.1907(2)
H1 H 0.3907 0.2640 0.2491
C2 C 0.3404(2) 0.3208(3) 0.0565(2)
H2 H 0.3091 0.3767 0.0221
C3 C 0.3850(2) 0.2211(3) 0.0221(2)
H3 H 0.3853 0.2082 -0.0362
C4 C 0.3426(2) 0.3372(3) 0.1422(2)
H4 H 0.3130 0.4049 0.1673
C5 C 0.42952(19) 0.1401(3) 0.07536(18)
H5 H 0.4594 0.0719 0.0514
C6 C 0.22210(18) -0.0225(3) 0.13556(16)
H6 H 0.2821 -0.0321 0.1400
C7 C 0.09217(17) -0.0859(3) 0.07997(17)
H7 H 0.0602 -0.1415 0.0459
C8 C 0.04867(19) 0.0078(3) 0.12281(19)
H8 H -0.0113 0.0164 0.1171
C9 C 0.0950(2) 0.0890(3) 0.17430(19)
H9 H 0.0670 0.1541 0.2037
C10 C 0.18286(19) 0.0728(3) 0.18184(17)
H10 H 0.2155 0.1251 0.2176
N1E N 0.17739(16) -0.1956(2) -0.09983(14)
N2E N 0.12012(15) -0.2604(2) -0.12858(13)
N3B N 0.56514(16) -0.1817(2) 0.34064(14)
N3E N 0.06514(16) -0.3183(2) -0.15936(14)
N4E N 0.33712(15) -0.1182(2) -0.02648(14)
N5E N 0.34881(13) -0.0671(2) -0.09290(14)
N6B N 0.56759(15) 0.1534(2) 0.34127(14)
N7E N 0.32175(13) -0.3982(2) -0.08457(13)
N8A N 0.63619(17) 0.0138(3) 0.15373(16)
N8C N 0.36381(17) 0.0138(3) 0.34627(16)
N8E N 0.36381(17) -0.0138(3) -0.15373(16)
Na1A Na 0.0000 -0.50975(13) 0.2500
Na1G Na 0.0000 -0.49025(13) -0.2500
Na1F Na 0.5000 0.00975(13) -0.2500
C1B C 0.6107(2) 0.2519(3) 0.3093(2)
H1B H 0.6093 0.2640 0.2509
C2B C 0.6596(2) 0.3208(3) 0.4435(2)
H2B H 0.6909 0.3767 0.4779
C3B C 0.6150(2) 0.2211(3) 0.4779(2)
H3B H 0.6147 0.2082 0.5362
C4B C 0.6574(2) 0.3372(3) 0.3578(2)
H4B H 0.6870 0.4049 0.3327
C5B C 0.57048(19) 0.1401(3) 0.42464(18)
H5B H 0.5406 0.0719 0.4486
C6E C 0.27790(18) -0.4775(3) -0.13556(16)
H6E H 0.2179 -0.4679 -0.1400
C7E C 0.40783(17) -0.4141(3) -0.07997(17)
H7E H 0.4398 -0.3585 -0.0459
C8E C 0.45133(19) -0.5078(3) -0.12281(19)
H8E H 0.5113 -0.5164 -0.1171
C9E C 0.4050(2) -0.5890(3) -0.17430(19)
H9E H 0.4330 -0.6541 -0.2037
C10E C 0.31714(19) -0.5728(3) -0.18184(17)
H10E H 0.2845 -0.6251 -0.2176
loop_
_geom_bond_atom_site_label_1
_geom_bond_atom_site_label_2
_geom_bond_site_symmetry_1
_geom_bond_site_symmetry_2
Mn1 N1 1_555 1_555
N1 N2 1_555 1_555
N2 N3 1_555 1_555
N3 Na1 1_555 1_555
N4 Mn1 1_555 1_555
N5 N4 1_555 1_555
N6 Na1 1_555 1_555
N7 Mn1 1_555 1_555
N8 N5 1_555 1_555
Na1 N3B 1_555 1_555
C1 N6 1_555 1_555
H1 C1 1_555 1_555
C2 H2 1_555 1_555
C3 C2 1_555 1_555
H3 C3 1_555 1_555
C4 C1 1_555 1_555
H4 C4 1_555 1_555
C5 N6 1_555 1_555
H5 C5 1_555 1_555
C6 N7 1_555 1_555
H6 C6 1_555 1_555
C7 N7 1_555 1_555
H7 C7 1_555 1_555
C8 C7 1_555 1_555
H8 C8 1_555 1_555
C9 C8 1_555 1_555
H9 C9 1_555 1_555
C10 C6 1_555 1_555
H10 C10 1_555 1_555
N1E Mn1 1_555 1_555
N2E N1E 1_555 1_555
N3E N2E 1_555 1_555
N4E Mn1 1_555 1_555
N5E N4E 1_555 1_555
N6B Na1 1_555 1_555
N7E Mn1 1_555 1_555
N8A Na1 1_555 1_555
N8C Na1 1_555 1_555
N8E N5E 1_555 1_555
Na1A N8 1_555 1_555
Na1G N3E 1_555 1_555
Na1F N8E 1_555 1_555
C1B N6B 1_555 1_555
H1B C1B 1_555 1_555
C2B H2B 1_555 1_555
C3B C2B 1_555 1_555
H3B C3B 1_555 1_555
C4B C1B 1_555 1_555
H4B C4B 1_555 1_555
C5B N6B 1_555 1_555
H5B C5B 1_555 1_555
C6E N7E 1_555 1_555
H6E C6E 1_555 1_555
C7E N7E 1_555 1_555
H7E C7E 1_555 1_555
C8E C7E 1_555 1_555
H8E C8E 1_555 1_555
C9E C8E 1_555 1_555
H9E C9E 1_555 1_555
C10E C6E 1_555 1_555
H10E C10E 1_555 1_555
C2 C4 1_555 1_555
C3 C5 1_555 1_555
C9 C10 1_555 1_555
C2B C4B 1_555 1_555
C3B C5B 1_555 1_555
C9E C10E 1_555 1_555

#END
