
#######################################################################
#
#                 Cambridge Crystallographic Data Centre
#                                CCDC 
#
#######################################################################
#
# If this CIF has been generated from an entry in the Cambridge 
# Structural Database, then it will include bibliographic, chemical, 
# crystal, experimental, refinement or atomic coordinate data resulting 
# from the CCDC's data processing and validation procedures.
#
#######################################################################

data_NOPGIJ
_symmetry_cell_setting           tetragonal
_symmetry_space_group_name_H-M   'P 43 21 2'
_symmetry_Int_Tables_number      96
_space_group_name_Hall           'P 4nw 2abw'
loop_
_symmetry_equiv_pos_site_id
_symmetry_equiv_pos_as_xyz
1 x,y,z
2 -x,-y,1/2+z
3 1/2-y,1/2+x,3/4+z
4 1/2+y,1/2-x,1/4+z
5 1/2-x,1/2+y,3/4-z
6 1/2+x,1/2-y,1/4-z
7 y,x,-z
8 -y,-x,1/2-z
_cell_length_a                   16.0527(6)
_cell_length_b                   16.0527(6)
_cell_length_c                   21.0896(15)
_cell_angle_alpha                90
_cell_angle_beta                 90
_cell_angle_gamma                90
_cell_volume                     5434.56
loop_
_atom_site_label
_atom_site_type_symbol
_atom_site_fract_x
_atom_site_fract_y
_atom_site_fract_z
Zn1 Zn -0.168970(17) -0.168970(17) 0.0000
Zn2 Zn -0.666580(17) -0.666580(17) 0.0000
O1 O -0.13633(11) -0.19206(11) 0.09797(8)
O2 O -0.19260(13) -0.07847(13) 0.14098(9)
O3 O 0.07187(13) -0.35716(14) 0.21717(11)
O4 O -0.62751(12) -0.71853(12) 0.08483(8)
O5 O -0.53850(15) -0.81729(14) 0.05655(10)
O6 O -0.72927(18) -0.67184(16) 0.29766(10)
O7 O -0.26187(11) -0.07992(11) 0.02720(8)
H1 H -0.2531 -0.0645 0.0637
H2 H -0.3099 -0.0999 0.0246
O8 O -0.74655(12) -0.57789(11) 0.05202(9)
H3 H -0.7181 -0.5390 0.0651
H4 H -0.7762 -0.5628 0.0216
N1 N -0.03123(14) -0.28042(14) 0.17065(10)
H5 H -0.0520 -0.2687 0.1341
N2 N -0.68326(15) -0.71511(15) 0.20133(11)
H6 H -0.6882 -0.7035 0.1617
N3 N -0.26140(12) -0.26140(12) 0.0000
N4 N -0.57336(13) -0.57336(13) 0.0000
N5 N 0.23797(12) 0.23797(12) 0.0000
N6 N -0.07449(12) -0.07449(12) 0.0000
C1 C -0.12491(17) -0.17348(18) 0.21031(12)
C2 C -0.06609(17) -0.23687(18) 0.22210(13)
C3 C -0.04555(19) -0.2568(2) 0.28447(14)
H7 H -0.0060 -0.2978 0.2924
C4 C -0.0830(2) -0.2163(2) 0.33452(14)
H8 H -0.0690 -0.2306 0.3759
C5 C -0.1411(2) -0.1549(2) 0.32370(14)
H9 H -0.1669 -0.1282 0.3576
C6 C -0.16085(18) -0.13314(19) 0.26226(13)
H10 H -0.1990 -0.0906 0.2552
C7 C -0.15304(16) -0.14594(17) 0.14528(12)
C8 C 0.03066(18) -0.33848(18) 0.17033(15)
C9 C 0.0446(2) -0.3801(2) 0.10738(16)
H11 H 0.0986 -0.3652 0.0915
H12 H 0.0026 -0.3621 0.0780
H13 H 0.0414 -0.4394 0.1125
C10 C -0.57448(18) -0.80817(18) 0.16515(14)
C11 C -0.6212(2) -0.77340(19) 0.21543(13)
C12 C -0.6054(2) -0.7992(2) 0.27772(16)
H14 H -0.6341 -0.7749 0.3112
C13 C -0.5471(3) -0.8605(2) 0.28947(17)
H15 H -0.5368 -0.8768 0.3311
C14 C -0.5041(2) -0.8980(2) 0.24098(19)
H16 H -0.4666 -0.9407 0.2493
C15 C -0.5175(2) -0.8711(2) 0.17939(16)
H17 H -0.4877 -0.8958 0.1466
C16 C -0.58059(18) -0.78001(18) 0.09727(14)
C17 C -0.7370(2) -0.6737(2) 0.23989(14)
C18 C -0.8057(2) -0.6287(2) 0.20557(15)
H18 H -0.8584 -0.6529 0.2168
H19 H -0.7974 -0.6336 0.1606
H20 H -0.8053 -0.5710 0.2174
C19 C -0.29659(17) -0.28797(17) 0.05353(12)
H21 H -0.2793 -0.2642 0.0915
C20 C -0.35695(17) -0.34847(17) 0.05573(12)
H22 H -0.3790 -0.3650 0.0945
C21 C -0.38502(16) -0.38502(16) 0.0000
C22 C -0.45047(15) -0.45047(15) 0.0000
C23 C -0.48163(16) -0.48321(16) 0.05608(13)
H23 H -0.4617 -0.4642 0.0949
C24 C -0.54212(17) -0.54384(17) 0.05406(13)
H24 H -0.5621 -0.5652 0.0921
C25 C 0.15856(16) 0.25595(17) 0.01180(13)
H25 H 0.1446 0.3110 0.0205
C26 C 0.09607(16) 0.19722(16) 0.01179(13)
H26 H 0.0414 0.2133 0.0197
C27 C 0.11436(15) 0.11436(15) 0.0000
C28 C 0.04928(15) 0.04928(15) 0.0000
C29 C -0.03319(16) 0.06677(16) -0.01596(12)
H27 H -0.0486 0.1208 -0.0266
C30 C -0.09187(16) 0.00404(17) -0.01591(13)
H28 H -0.1462 0.0171 -0.0275
Zn2_2 Zn 0.333420(17) 0.333420(17) 0.0000
O1F O -0.19206(11) -0.13633(11) -0.09797(8)
O2F O -0.07847(13) -0.19260(13) -0.14098(9)
O3F O -0.35716(14) 0.07187(13) -0.21717(11)
O4F O -0.71853(12) -0.62751(12) -0.08483(8)
O5F O -0.81729(14) -0.53850(15) -0.05655(10)
O6F O -0.67184(16) -0.72927(18) -0.29766(10)
O7F O -0.07992(11) -0.26187(11) -0.02720(8)
H1F H -0.0645 -0.2531 -0.0637
H2F H -0.0999 -0.3099 -0.0246
O8F O -0.57789(11) -0.74655(12) -0.05202(9)
H3F H -0.5390 -0.7181 -0.0651
H4F H -0.5628 -0.7762 -0.0216
N1F N -0.28042(14) -0.03123(14) -0.17065(10)
H5F H -0.2687 -0.0520 -0.1341
N2F N -0.71511(15) -0.68326(15) -0.20133(11)
H6F H -0.7035 -0.6882 -0.1617
N5_2 N -0.76203(12) -0.76203(12) 0.0000
C1F C -0.17348(18) -0.12491(17) -0.21031(12)
C2F C -0.23687(18) -0.06609(17) -0.22210(13)
C3F C -0.2568(2) -0.04555(19) -0.28447(14)
H7F H -0.2978 -0.0060 -0.2924
C4F C -0.2163(2) -0.0830(2) -0.33452(14)
H8F H -0.2306 -0.0690 -0.3759
C5F C -0.1549(2) -0.1411(2) -0.32370(14)
H9F H -0.1282 -0.1669 -0.3576
C6F C -0.13314(19) -0.16085(18) -0.26226(13)
H10F H -0.0906 -0.1990 -0.2552
C7F C -0.14594(17) -0.15304(16) -0.14528(12)
C8F C -0.33848(18) 0.03066(18) -0.17033(15)
C9F C -0.3801(2) 0.0446(2) -0.10738(16)
H11F H -0.3652 0.0986 -0.0915
H12F H -0.3621 0.0026 -0.0780
H13F H -0.4394 0.0414 -0.1125
C10F C -0.80817(18) -0.57448(18) -0.16515(14)
C11F C -0.77340(19) -0.6212(2) -0.21543(13)
C12F C -0.7992(2) -0.6054(2) -0.27772(16)
H14F H -0.7749 -0.6341 -0.3112
C13F C -0.8605(2) -0.5471(3) -0.28947(17)
H15F H -0.8768 -0.5368 -0.3311
C14F C -0.8980(2) -0.5041(2) -0.24098(19)
H16F H -0.9407 -0.4666 -0.2493
C15F C -0.8711(2) -0.5175(2) -0.17939(16)
H17F H -0.8958 -0.4877 -0.1466
C16F C -0.78001(18) -0.58059(18) -0.09727(14)
C17F C -0.6737(2) -0.7370(2) -0.23989(14)
C18F C -0.6287(2) -0.8057(2) -0.20557(15)
H18F H -0.6529 -0.8584 -0.2168
H19F H -0.6336 -0.7974 -0.1606
H20F H -0.5710 -0.8053 -0.2174
C19F C -0.28797(17) -0.29659(17) -0.05353(12)
H21F H -0.2642 -0.2793 -0.0915
C20F C -0.34847(17) -0.35695(17) -0.05573(12)
H22F H -0.3650 -0.3790 -0.0945
C23F C -0.48321(16) -0.48163(16) -0.05608(13)
H23F H -0.4642 -0.4617 -0.0949
C24F C -0.54384(17) -0.54212(17) -0.05406(13)
H24F H -0.5652 -0.5621 -0.0921
C25F C 0.25595(17) 0.15856(16) -0.01180(13)
H25F H 0.3110 0.1446 -0.0205
C26F C 0.19722(16) 0.09607(16) -0.01179(13)
H26F H 0.2133 0.0414 -0.0197
C29F C 0.06677(16) -0.03319(16) 0.01596(12)
H27F H 0.1208 -0.0486 0.0266
C30F C 0.00404(17) -0.09187(16) 0.01591(13)
H28F H 0.0171 -0.1462 0.0275
loop_
_geom_bond_atom_site_label_1
_geom_bond_atom_site_label_2
_geom_bond_site_symmetry_1
_geom_bond_site_symmetry_2
Zn1 O1 1_555 1_555
Zn2 O4 1_555 1_555
O1 C7 1_555 1_555
O2 C7 1_555 1_555
O3 C8 1_555 1_555
O4 C16 1_555 1_555
O5 C16 1_555 1_555
O6 C17 1_555 1_555
O7 Zn1 1_555 1_555
H1 O7 1_555 1_555
H2 O7 1_555 1_555
O8 Zn2 1_555 1_555
H3 O8 1_555 1_555
H4 O8 1_555 1_555
N1 H5 1_555 1_555
N2 H6 1_555 1_555
N3 Zn1 1_555 1_555
N4 Zn2 1_555 1_555
N5 C25 1_555 1_555
N6 Zn1 1_555 1_555
C1 C2 1_555 1_555
C2 N1 1_555 1_555
C3 C2 1_555 1_555
H7 C3 1_555 1_555
C4 C3 1_555 1_555
H8 C4 1_555 1_555
C5 C4 1_555 1_555
H9 C5 1_555 1_555
C6 C1 1_555 1_555
H10 C6 1_555 1_555
C7 C1 1_555 1_555
C8 N1 1_555 1_555
C9 C8 1_555 1_555
H11 C9 1_555 1_555
H12 C9 1_555 1_555
H13 C9 1_555 1_555
C10 C11 1_555 1_555
C11 N2 1_555 1_555
C12 C11 1_555 1_555
H14 C12 1_555 1_555
C13 C12 1_555 1_555
H15 C13 1_555 1_555
C14 C13 1_555 1_555
H16 C14 1_555 1_555
C15 C10 1_555 1_555
H17 C15 1_555 1_555
C16 C10 1_555 1_555
C17 N2 1_555 1_555
C18 C17 1_555 1_555
H18 C18 1_555 1_555
H19 C18 1_555 1_555
H20 C18 1_555 1_555
C19 N3 1_555 1_555
H21 C19 1_555 1_555
C20 C19 1_555 1_555
H22 C20 1_555 1_555
C21 C20 1_555 1_555
C22 C21 1_555 1_555
C23 C22 1_555 1_555
H23 C23 1_555 1_555
C24 N4 1_555 1_555
H24 C24 1_555 1_555
C25 H25 1_555 1_555
C26 C25 1_555 1_555
H26 C26 1_555 1_555
C27 C26 1_555 1_555
C28 C27 1_555 1_555
C29 C28 1_555 1_555
H27 C29 1_555 1_555
C30 N6 1_555 1_555
H28 C30 1_555 1_555
Zn2_2 N5 1_555 1_555
O1F Zn1 1_555 1_555
O2F C7F 1_555 1_555
O3F C8F 1_555 1_555
O4F Zn2 1_555 1_555
O5F C16F 1_555 1_555
O6F C17F 1_555 1_555
O7F Zn1 1_555 1_555
H1F O7F 1_555 1_555
H2F O7F 1_555 1_555
O8F Zn2 1_555 1_555
H3F O8F 1_555 1_555
H4F O8F 1_555 1_555
N1F H5F 1_555 1_555
N2F H6F 1_555 1_555
N5_2 Zn2 1_555 1_555
C1F C2F 1_555 1_555
C2F N1F 1_555 1_555
C3F C2F 1_555 1_555
H7F C3F 1_555 1_555
C4F C3F 1_555 1_555
H8F C4F 1_555 1_555
C5F C4F 1_555 1_555
H9F C5F 1_555 1_555
C6F C1F 1_555 1_555
H10F C6F 1_555 1_555
C7F O1F 1_555 1_555
C8F N1F 1_555 1_555
C9F C8F 1_555 1_555
H11F C9F 1_555 1_555
H12F C9F 1_555 1_555
H13F C9F 1_555 1_555
C10F C11F 1_555 1_555
C11F N2F 1_555 1_555
C12F C11F 1_555 1_555
H14F C12F 1_555 1_555
C13F C12F 1_555 1_555
H15F C13F 1_555 1_555
C14F C13F 1_555 1_555
H16F C14F 1_555 1_555
C15F C10F 1_555 1_555
H17F C15F 1_555 1_555
C16F O4F 1_555 1_555
C17F N2F 1_555 1_555
C18F C17F 1_555 1_555
H18F C18F 1_555 1_555
H19F C18F 1_555 1_555
H20F C18F 1_555 1_555
C19F N3 1_555 1_555
H21F C19F 1_555 1_555
C20F C21 1_555 1_555
H22F C20F 1_555 1_555
C23F C22 1_555 1_555
H23F C23F 1_555 1_555
C24F N4 1_555 1_555
H24F C24F 1_555 1_555
C25F N5 1_555 1_555
H25F C25F 1_555 1_555
C26F C27 1_555 1_555
H26F C26F 1_555 1_555
C29F C28 1_555 1_555
H27F C29F 1_555 1_555
C30F N6 1_555 1_555
H28F C30F 1_555 1_555
C5 C6 1_555 1_555
C14 C15 1_555 1_555
C23 C24 1_555 1_555
C29 C30 1_555 1_555
C1F C7F 1_555 1_555
C5F C6F 1_555 1_555
C10F C16F 1_555 1_555
C14F C15F 1_555 1_555
C19F C20F 1_555 1_555
C23F C24F 1_555 1_555
C25F C26F 1_555 1_555
C29F C30F 1_555 1_555

#END
