
#######################################################################
#
#                 Cambridge Crystallographic Data Centre
#                                CCDC 
#
#######################################################################
#
# If this CIF has been generated from an entry in the Cambridge 
# Structural Database, then it will include bibliographic, chemical, 
# crystal, experimental, refinement or atomic coordinate data resulting 
# from the CCDC's data processing and validation procedures.
#
#######################################################################

data_NOPKAG
_symmetry_cell_setting           cubic
_symmetry_space_group_name_H-M   'I a -3'
_symmetry_Int_Tables_number      206
_space_group_name_Hall           '-I 2b 2c 3'
loop_
_symmetry_equiv_pos_site_id
_symmetry_equiv_pos_as_xyz
1 x,y,z
2 z,x,y
3 y,z,x
4 -y,1/2-z,x
5 z,-x,1/2-y
6 1/2-y,z,-x
7 -z,1/2-x,y
8 1/2-z,x,-y
9 y,-z,1/2-x
10 x,-y,1/2-z
11 1/2-x,y,-z
12 -x,1/2-y,z
13 1/2+x,1/2+y,1/2+z
14 1/2+z,1/2+x,1/2+y
15 1/2+y,1/2+z,1/2+x
16 1/2-y,-z,1/2+x
17 1/2+z,1/2-x,-y
18 -y,1/2+z,1/2-x
19 1/2-z,-x,1/2+y
20 -z,1/2+x,1/2-y
21 1/2+y,1/2-z,-x
22 1/2+x,1/2-y,-z
23 -x,1/2+y,1/2-z
24 1/2-x,-y,1/2+z
25 -x,-y,-z
26 -z,-x,-y
27 -y,-z,-x
28 y,1/2+z,-x
29 -z,x,1/2+y
30 1/2+y,-z,x
31 z,1/2+x,-y
32 1/2+z,-x,y
33 -y,z,1/2+x
34 -x,y,1/2+z
35 1/2+x,-y,z
36 x,1/2+y,-z
37 1/2-x,1/2-y,1/2-z
38 1/2-z,1/2-x,1/2-y
39 1/2-y,1/2-z,1/2-x
40 1/2+y,z,1/2-x
41 1/2-z,1/2+x,y
42 y,1/2-z,1/2+x
43 1/2+z,x,1/2-y
44 z,1/2-x,1/2+y
45 1/2-y,1/2+z,x
46 1/2-x,1/2+y,z
47 x,1/2-y,1/2+z
48 1/2+x,y,1/2-z
_cell_length_a                   22.283(5)
_cell_length_b                   22.283(5)
_cell_length_c                   22.283(5)
_cell_angle_alpha                90
_cell_angle_beta                 90
_cell_angle_gamma                90
_cell_volume                     11064.2
loop_
_atom_site_label
_atom_site_type_symbol
_atom_site_fract_x
_atom_site_fract_y
_atom_site_fract_z
Zn1 Zn 0.31249(3) 0.37781(3) 0.75797(3)
O1 O 0.30980(15) 0.32138(14) 0.68376(15)
O2 O 0.31280(18) 0.44199(17) 0.68260(18)
O3 O 0.24186(16) 0.59766(15) 0.61321(16)
O4 O 0.25324(15) 0.27880(15) 0.61359(15)
O5 O 0.30678(15) 0.55409(14) 0.67766(15)
C1 C 0.2723(2) 0.3240(2) 0.6399(2)
C2 C 0.2670(2) 0.5532(2) 0.6354(2)
C3 C 0.2710(2) 0.4393(2) 0.6377(2)
C4 C 0.2508(2) 0.3837(2) 0.6172(2)
C5 C 0.1843(3) 0.4347(3) 0.5470(3)
H1 H 0.1550(3) 0.4329(3) 0.5161(3)
C6 C 0.2074(2) 0.3827(2) 0.5714(2)
H2 H 0.1935(2) 0.3451(2) 0.5569(2)
C7 C 0.2478(2) 0.4923(2) 0.6134(2)
C8 C 0.2046(2) 0.4898(2) 0.5682(2)
H3 H 0.1890(2) 0.5259(2) 0.5518(2)
H4 H 0.316(3) 0.473(2) 0.690(2)
Zn1I Zn 0.31249(3) 0.62219(3) 0.74203(3)
Zn1Y Zn 0.24203(3) 0.68751(3) 0.62219(3)
Zn1AA Zn 0.37781(3) 0.25797(3) 0.68751(3)
Zn1P Zn 0.25797(3) 0.18751(3) 0.62219(3)
O1BA O 0.31624(15) 0.30980(15) 0.82138(14)
O3Z O 0.40234(15) 0.38679(16) 0.75814(16)
O4O O 0.22120(15) 0.38641(15) 0.75324(15)
O5I O 0.30678(15) 0.44591(14) 0.82234(15)
O6 O 0.500 0.500 0.500
O7 O 0.4155(9) 0.5586(15) 0.531(3)
loop_
_geom_bond_atom_site_label_1
_geom_bond_atom_site_label_2
_geom_bond_site_symmetry_1
_geom_bond_site_symmetry_2
Zn1 O1 1_555 1_555
O1 C1 1_555 1_555
O2 Zn1 1_555 1_555
O3 C2 1_555 1_555
O4 C1 1_555 1_555
O5 C2 1_555 1_555
C1 C4 1_555 1_555
C2 C7 1_555 1_555
C3 O2 1_555 1_555
C4 C3 1_555 1_555
C5 H1 1_555 1_555
C6 C4 1_555 1_555
H2 C6 1_555 1_555
C7 C3 1_555 1_555
C8 C5 1_555 1_555
H3 C8 1_555 1_555
H4 O2 1_555 1_555
Zn1I O5 1_555 1_555
Zn1Y O3 1_555 1_555
Zn1AA O1 1_555 1_555
Zn1P O4 1_555 1_555
O1BA Zn1 1_555 1_555
O3Z Zn1 1_555 1_555
O4O Zn1 1_555 1_555
O5I Zn1 1_555 1_555
C5 C6 1_555 1_555
C7 C8 1_555 1_555

#END
