
#######################################################################
#
#                 Cambridge Crystallographic Data Centre
#                                CCDC 
#
#######################################################################
#
# If this CIF has been generated from an entry in the Cambridge 
# Structural Database, then it will include bibliographic, chemical, 
# crystal, experimental, refinement or atomic coordinate data resulting 
# from the CCDC's data processing and validation procedures.
#
#######################################################################

data_NOPLEL
_symmetry_cell_setting           monoclinic
_symmetry_space_group_name_H-M   'P 21/n'
_symmetry_Int_Tables_number      14
_space_group_name_Hall           '-P 2yn'
loop_
_symmetry_equiv_pos_site_id
_symmetry_equiv_pos_as_xyz
1 x,y,z
2 1/2-x,1/2+y,1/2-z
3 -x,-y,-z
4 1/2+x,1/2-y,1/2+z
_cell_length_a                   7.7617(2)
_cell_length_b                   12.4624(3)
_cell_length_c                   13.3308(4)
_cell_angle_alpha                90
_cell_angle_beta                 101.2430(10)
_cell_angle_gamma                90
_cell_volume                     1264.73
loop_
_atom_site_label
_atom_site_type_symbol
_atom_site_fract_x
_atom_site_fract_y
_atom_site_fract_z
C1 C 0.35607(18) 0.89899(10) 1.00278(10)
H1 H 0.3590 0.9001 1.0729
C2 C 0.47635(18) 0.83546(11) 0.96633(11)
H2 H 0.5602 0.7966 1.0112
C3 C 0.46988(18) 0.83067(11) 0.86166(11)
H3 H 0.5429 0.7843 0.8346
C4 C 0.35138(17) 0.89702(10) 0.79784(10)
C5 C 0.23881(17) 0.96104(10) 0.84179(10)
H4 H 0.1627 1.0072 0.7997
C6 C 0.32967(17) 0.88927(10) 0.68428(10)
C7 C 0.2819(2) 1.00287(9) 0.52784(11)
C8 C 0.2482(2) 0.92250(10) 0.45351(10)
H5 H 0.2504 0.8507 0.4727
C9 C 0.2112(2) 0.95079(11) 0.35068(10)
H6 H 0.1900 0.8972 0.3013
C10 C 0.20527(18) 1.05794(10) 0.32021(9)
C11 C 0.24141(19) 1.13719(10) 0.39502(10)
H7 H 0.2393 1.2090 0.3758
C12 C 0.28035(19) 1.11014(11) 0.49762(10)
H8 H 0.3057 1.1638 0.5468
C13 C 0.15734(17) 1.08665(10) 0.20893(10)
N1 N 0.23514(15) 0.95916(9) 0.94196(8)
N2 N 0.31909(17) 0.98347(9) 0.63442(9)
H9 H 0.3375 1.0396 0.6725
O1 O 0.31728(14) 0.79879(8) 0.64363(7)
O2 O 0.14311(15) 1.00921(7) 0.14614(8)
O3 O 0.13082(14) 1.18416(8) 0.18433(7)
O4 O 0.02230(14) 1.16630(8) 0.98332(8)
H10 H 0.0558 1.1937 1.0397
H11 H 0.068(3) 1.2018(19) 0.9454(18)
Co1 Co 0.0000 1.0000 1.0000
C1B C -0.35607(18) 1.10101(10) -0.00278(10)
H1B H -0.3590 1.0999 -0.0729
C2B C -0.47635(18) 1.16454(11) 0.03367(11)
H2B H -0.5602 1.2034 -0.0112
C3B C -0.46988(18) 1.16933(11) 0.13834(11)
H3B H -0.5429 1.2157 0.1654
C4B C -0.35138(17) 1.10298(10) 0.20216(10)
C5B C -0.23881(17) 1.03896(10) 0.15821(10)
H4B H -0.1627 0.9928 0.2003
C6B C -0.32967(17) 1.11073(10) 0.31572(10)
C7B C -0.2819(2) 0.99713(9) 0.47216(11)
C8B C -0.2482(2) 1.07750(10) 0.54649(10)
H5B H -0.2504 1.1493 0.5273
C9B C -0.2112(2) 1.04921(11) 0.64932(10)
H6B H -0.1900 1.1028 0.6987
C10B C -0.20527(18) 0.94206(10) 0.67979(9)
C11B C -0.24141(19) 0.86281(10) 0.60498(10)
H7B H -0.2393 0.7910 0.6242
C12B C -0.28035(19) 0.88986(11) 0.50238(10)
H8B H -0.3057 0.8362 0.4532
C13B C -0.15734(17) 0.91335(10) 0.79107(10)
N1B N -0.23514(15) 1.04084(9) 0.05804(8)
N2B N -0.31909(17) 1.01653(9) 0.36558(9)
H9B H -0.3375 0.9604 0.3275
O1B O -0.31728(14) 1.20121(8) 0.35637(7)
O2B O -0.14311(15) 0.99079(7) 0.85386(8)
O3B O -0.13082(14) 0.81584(8) 0.81567(7)
O4B O -0.02230(14) 0.83370(8) 1.01668(8)
H10B H -0.0558 0.8063 0.9603
H11B H -0.068(3) 0.7982(19) 1.0546(18)
N1B_2 N -0.23514(15) 1.04084(9) 1.05804(8)
O2_2 O 0.14311(15) 1.00921(7) 1.14614(8)
Co1_2 Co 0.0000 1.0000 0.0000
O5 O 0.91362(16) 0.33169(9) 0.25787(8)
H12 H 0.988(4) 0.285(2) 0.2374(19)
H13 H 0.843(3) 0.299(2) 0.2805(19)
loop_
_geom_bond_atom_site_label_1
_geom_bond_atom_site_label_2
_geom_bond_site_symmetry_1
_geom_bond_site_symmetry_2
C1 H1 1_555 1_555
C2 C1 1_555 1_555
H2 C2 1_555 1_555
C3 C2 1_555 1_555
H3 C3 1_555 1_555
C4 C3 1_555 1_555
C5 C4 1_555 1_555
H4 C5 1_555 1_555
C6 C4 1_555 1_555
C7 C8 1_555 1_555
C8 H5 1_555 1_555
C9 C8 1_555 1_555
H6 C9 1_555 1_555
C10 C9 1_555 1_555
C11 C10 1_555 1_555
H7 C11 1_555 1_555
C12 C7 1_555 1_555
H8 C12 1_555 1_555
C13 C10 1_555 1_555
N1 C1 1_555 1_555
N2 C6 1_555 1_555
H9 N2 1_555 1_555
O1 C6 1_555 1_555
O2 C13 1_555 1_555
O3 C13 1_555 1_555
O4 H10 1_555 1_555
H11 O4 1_555 1_555
Co1 N1 1_555 1_555
O5 H12 1_555 1_555
H13 O5 1_555 1_555
C1B H1B 1_555 1_555
C2B C1B 1_555 1_555
H2B C2B 1_555 1_555
C3B C2B 1_555 1_555
H3B C3B 1_555 1_555
C4B C3B 1_555 1_555
C5B C4B 1_555 1_555
H4B C5B 1_555 1_555
C6B C4B 1_555 1_555
C7B C8B 1_555 1_555
C8B H5B 1_555 1_555
C9B C8B 1_555 1_555
H6B C9B 1_555 1_555
C10B C9B 1_555 1_555
C11B C10B 1_555 1_555
H7B C11B 1_555 1_555
C12B C7B 1_555 1_555
H8B C12B 1_555 1_555
C13B C10B 1_555 1_555
N1B C1B 1_555 1_555
N2B C6B 1_555 1_555
H9B N2B 1_555 1_555
O1B C6B 1_555 1_555
O2B Co1 1_555 1_555
O3B C13B 1_555 1_555
O4B Co1 1_555 1_555
H10B O4B 1_555 1_555
H11B O4B 1_555 1_555
N1B_2 Co1 1_555 1_555
O2_2 Co1 1_555 1_555
Co1_2 O2 1_555 1_555
C5 N1 1_555 1_555
C7 N2 1_555 1_555
C11 C12 1_555 1_555
O4 Co1 1_555 1_555
C5B N1B 1_555 1_555
C7B N2B 1_555 1_555
C11B C12B 1_555 1_555
C13B O2B 1_555 1_555
N1B Co1_2 1_555 1_555

#END
