
#######################################################################
#
#                 Cambridge Crystallographic Data Centre
#                                CCDC 
#
#######################################################################
#
# If this CIF has been generated from an entry in the Cambridge 
# Structural Database, then it will include bibliographic, chemical, 
# crystal, experimental, refinement or atomic coordinate data resulting 
# from the CCDC's data processing and validation procedures.
#
#######################################################################

data_NOPLUB
_symmetry_cell_setting           monoclinic
_symmetry_space_group_name_H-M   'P 21/n'
_symmetry_Int_Tables_number      14
_space_group_name_Hall           '-P 2yn'
loop_
_symmetry_equiv_pos_site_id
_symmetry_equiv_pos_as_xyz
1 x,y,z
2 1/2-x,1/2+y,1/2-z
3 -x,-y,-z
4 1/2+x,1/2-y,1/2+z
_cell_length_a                   7.90160(10)
_cell_length_b                   12.7481(2)
_cell_length_c                   13.5560(2)
_cell_angle_alpha                90
_cell_angle_beta                 101.9350(10)
_cell_angle_gamma                90
_cell_volume                     1335.98
loop_
_atom_site_label
_atom_site_type_symbol
_atom_site_fract_x
_atom_site_fract_y
_atom_site_fract_z
C1 C 0.86788(19) 0.89705(12) 0.99990(10)
H1 H 0.8713 0.8965 1.0689
C2 C 0.9847(2) 0.83597(14) 0.96265(12)
H2 H 1.0672 0.7966 1.0061
C3 C 0.9771(2) 0.83411(13) 0.85991(12)
H3 H 1.0499 0.7903 0.8327
C4 C 0.85909(17) 0.89872(11) 0.79788(10)
C5 C 0.74977(17) 0.95985(11) 0.84200(10)
H4 H 0.6729 1.0048 0.8012
C6 C 0.83585(18) 0.89320(11) 0.68570(10)
C7 C 0.7787(2) 1.00538(10) 0.53297(12)
C8 C 0.7448(3) 0.92764(13) 0.45985(12)
H5 H 0.7467 0.8575 0.4788
C9 C 0.7082(3) 0.95442(13) 0.35892(12)
H6 H 0.6882 0.9016 0.3106
C10 C 0.70076(19) 1.05813(11) 0.32828(10)
C11 C 0.7348(3) 1.13522(12) 0.40150(12)
H7 H 0.7313 1.2054 0.3825
C12 C 0.7742(3) 1.10910(12) 0.50265(11)
H8 H 0.7978 1.1619 0.5509
C13 C 0.65699(18) 1.08519(12) 0.21812(10)
N1 N 0.75017(16) 0.95693(10) 0.94065(8)
N2 N 0.8184(2) 0.98585(9) 0.63785(10)
H9 H 0.8333 1.0405 0.6759
O1 O 0.5273(2) 1.17954(10) 0.98916(10)
H10 H 0.572(3) 1.194(2) 1.045(2)
H11 H 0.569(3) 1.218(2) 0.950(2)
O2 O 0.6525(2) 1.00898(8) 0.15787(10)
O3 O 0.62584(17) 1.17890(9) 0.19240(8)
O4 O 0.82823(19) 0.80626(9) 0.64471(9)
Cd1 Cd 0.5000 1.0000 1.0000
C1B C 0.13212(19) 1.10295(12) 0.00010(10)
H1B H 0.1287 1.1035 -0.0689
C2B C 0.0153(2) 1.16403(14) 0.03735(12)
H2B H -0.0672 1.2034 -0.0061
C3B C 0.0229(2) 1.16589(13) 0.14009(12)
H3B H -0.0499 1.2097 0.1673
C4B C 0.14091(17) 1.10128(11) 0.20212(10)
C5B C 0.25023(17) 1.04015(11) 0.15800(10)
H4B H 0.3271 0.9952 0.1988
C6B C 0.16415(18) 1.10680(11) 0.31430(10)
C7B C 0.2213(2) 0.99462(10) 0.46703(12)
C8B C 0.2552(3) 1.07236(13) 0.54015(12)
H5B H 0.2533 1.1425 0.5212
C9B C 0.2918(3) 1.04558(13) 0.64108(12)
H6B H 0.3118 1.0984 0.6894
C10B C 0.29924(19) 0.94187(11) 0.67172(10)
C11B C 0.2652(3) 0.86478(12) 0.59850(12)
H7B H 0.2687 0.7946 0.6175
C12B C 0.2258(3) 0.89090(12) 0.49735(11)
H8B H 0.2022 0.8381 0.4491
C13B C 0.34301(18) 0.91481(12) 0.78188(10)
N1B N 0.24983(16) 1.04307(10) 0.05935(8)
N2B N 0.1816(2) 1.01415(9) 0.36215(10)
H9B H 0.1667 0.9595 0.3241
O2B O 0.3475(2) 0.99102(8) 0.84213(10)
O3B O 0.37416(17) 0.82110(9) 0.80760(8)
O4B O 0.17177(19) 1.19374(9) 0.35529(9)
O1B O 0.4727(2) 0.82046(10) 1.01084(10)
H10B H 0.428(3) 0.806(2) 0.955(2)
H11B H 0.431(3) 0.782(2) 1.050(2)
N1B_2 N 0.24983(16) 1.04307(10) 1.05935(8)
O2_2 O 0.6525(2) 1.00898(8) 1.15787(10)
Cd1_2 Cd 0.5000 1.0000 0.0000
O5 O 0.4045(2) 0.32706(11) 0.25909(11)
H12 H 0.470(4) 0.287(2) 0.242(2)
H13 H 0.331(3) 0.290(2) 0.287(2)
loop_
_geom_bond_atom_site_label_1
_geom_bond_atom_site_label_2
_geom_bond_site_symmetry_1
_geom_bond_site_symmetry_2
C1 H1 1_555 1_555
C2 C1 1_555 1_555
H2 C2 1_555 1_555
C3 C2 1_555 1_555
H3 C3 1_555 1_555
C4 C3 1_555 1_555
C5 C4 1_555 1_555
H4 C5 1_555 1_555
C6 C4 1_555 1_555
C7 C8 1_555 1_555
C8 H5 1_555 1_555
C9 C8 1_555 1_555
H6 C9 1_555 1_555
C10 C9 1_555 1_555
C11 C10 1_555 1_555
H7 C11 1_555 1_555
C12 C7 1_555 1_555
H8 C12 1_555 1_555
C13 C10 1_555 1_555
N1 C1 1_555 1_555
N2 C6 1_555 1_555
H9 N2 1_555 1_555
O1 H10 1_555 1_555
H11 O1 1_555 1_555
O2 C13 1_555 1_555
O3 C13 1_555 1_555
O4 C6 1_555 1_555
Cd1 N1 1_555 1_555
O5 H12 1_555 1_555
H13 O5 1_555 1_555
C1B H1B 1_555 1_555
C2B C1B 1_555 1_555
H2B C2B 1_555 1_555
C3B C2B 1_555 1_555
H3B C3B 1_555 1_555
C4B C3B 1_555 1_555
C5B C4B 1_555 1_555
H4B C5B 1_555 1_555
C6B C4B 1_555 1_555
C7B C8B 1_555 1_555
C8B H5B 1_555 1_555
C9B C8B 1_555 1_555
H6B C9B 1_555 1_555
C10B C9B 1_555 1_555
C11B C10B 1_555 1_555
H7B C11B 1_555 1_555
C12B C7B 1_555 1_555
H8B C12B 1_555 1_555
C13B C10B 1_555 1_555
N1B C1B 1_555 1_555
N2B C6B 1_555 1_555
H9B N2B 1_555 1_555
O2B Cd1 1_555 1_555
O3B C13B 1_555 1_555
O4B C6B 1_555 1_555
O1B Cd1 1_555 1_555
H10B O1B 1_555 1_555
H11B O1B 1_555 1_555
N1B_2 Cd1 1_555 1_555
O2_2 Cd1 1_555 1_555
Cd1_2 O2 1_555 1_555
C5 N1 1_555 1_555
C7 N2 1_555 1_555
C11 C12 1_555 1_555
O1 Cd1 1_555 1_555
C5B N1B 1_555 1_555
C7B N2B 1_555 1_555
C11B C12B 1_555 1_555
C13B O2B 1_555 1_555
N1B Cd1_2 1_555 1_555

#END
