
#######################################################################
#
#                 Cambridge Crystallographic Data Centre
#                                CCDC 
#
#######################################################################
#
# If this CIF has been generated from an entry in the Cambridge 
# Structural Database, then it will include bibliographic, chemical, 
# crystal, experimental, refinement or atomic coordinate data resulting 
# from the CCDC's data processing and validation procedures.
#
#######################################################################

data_NOPMEM
_symmetry_cell_setting           monoclinic
_symmetry_space_group_name_H-M   'P 21/c'
_symmetry_Int_Tables_number      14
_space_group_name_Hall           '-P 2ybc'
loop_
_symmetry_equiv_pos_site_id
_symmetry_equiv_pos_as_xyz
1 x,y,z
2 -x,1/2+y,1/2-z
3 -x,-y,-z
4 x,1/2-y,1/2+z
_cell_length_a                   8.8359(6)
_cell_length_b                   19.4935(13)
_cell_length_c                   8.0415(5)
_cell_angle_alpha                90
_cell_angle_beta                 96.394(2)
_cell_angle_gamma                90
_cell_volume                     1376.47
loop_
_atom_site_label
_atom_site_type_symbol
_atom_site_fract_x
_atom_site_fract_y
_atom_site_fract_z
C1 C 0.1165(2) 0.36442(9) 0.5942(2)
C2 C 0.2500(2) 0.32001(9) 0.6567(2)
C3 C 0.2396(2) 0.24883(10) 0.6395(3)
H1 H 0.1502 0.2289 0.5896
C4 C 0.3633(2) 0.20785(10) 0.6971(3)
H2 H 0.3573 0.1605 0.6835
C5 C 0.4961(2) 0.23736(10) 0.7749(3)
H3 H 0.5780 0.2098 0.8152
C6 C 0.5058(2) 0.30831(9) 0.7923(2)
C7 C 0.3837(2) 0.34998(9) 0.7321(2)
H4 H 0.3914 0.3974 0.7420
C8 C 0.6588(2) 0.38973(9) 0.9756(2)
C9 C 0.8188(2) 0.40810(9) 1.0420(2)
C10 C 0.9456(2) 0.39546(9) 0.9583(2)
H5 H 0.9346 0.3752 0.8530
C11 C 0.8410(2) 0.44075(9) 1.1965(2)
H6 H 0.7561 0.4523 1.2495
C12 C 1.1024(2) 0.44239(9) 1.1929(2)
H7 H 1.1988 0.4525 1.2459
C13 C 1.0895(2) 0.41359(9) 1.0348(2)
H8 H 1.1755 0.4064 0.9802
N1 N 0.64575(18) 0.33606(8) 0.8679(2)
H9 H 0.7285 0.3173 0.8432
N2 N 0.97973(18) 0.45630(8) 1.27244(19)
O1 O 0.14204(16) 0.42860(7) 0.58939(17)
O2 O -0.01130(15) 0.33673(7) 0.55444(18)
O3 O 0.54953(17) 0.42149(7) 1.01961(18)
O4 O 0.2475(2) 0.56390(9) 0.4552(2)
H10 H 0.298(4) 0.5544(18) 0.376(4)
H11 H 0.203(4) 0.602(2) 0.427(4)
Cu1 Cu 0.0000 0.5000 0.5000
C1B C -0.1165(2) 0.63558(9) 0.4058(2)
C2B C -0.2500(2) 0.67999(9) 0.3433(2)
C3B C -0.2396(2) 0.75117(10) 0.3605(3)
H1B H -0.1502 0.7711 0.4104
C4B C -0.3633(2) 0.79215(10) 0.3029(3)
H2B H -0.3573 0.8395 0.3165
C5B C -0.4961(2) 0.76264(10) 0.2251(3)
H3B H -0.5780 0.7902 0.1848
C6B C -0.5058(2) 0.69169(9) 0.2077(2)
C7B C -0.3837(2) 0.65002(9) 0.2679(2)
H4B H -0.3914 0.6026 0.2580
C8B C -0.6588(2) 0.61027(9) 0.0244(2)
C9B C -0.8188(2) 0.59190(9) -0.0420(2)
C10B C -0.9456(2) 0.60454(9) 0.0417(2)
H5B H -0.9346 0.6248 0.1470
C11B C -0.8410(2) 0.55925(9) -0.1965(2)
H6B H -0.7561 0.5477 -0.2495
C12B C -1.1024(2) 0.55761(9) -0.1929(2)
H7B H -1.1988 0.5475 -0.2459
C13B C -1.0895(2) 0.58641(9) -0.0348(2)
H8B H -1.1755 0.5936 0.0198
N1B N -0.64575(18) 0.66394(8) 0.1321(2)
H9B H -0.7285 0.6827 0.1568
N2B N -0.97973(18) 0.54370(8) -0.27244(19)
O1B O -0.14204(16) 0.57140(7) 0.41061(17)
O2B O 0.01130(15) 0.66327(7) 0.44556(18)
O3B O -0.54953(17) 0.57851(7) -0.01961(18)
O4B O -0.2475(2) 0.43610(9) 0.5448(2)
H10B H -0.298(4) 0.4456(18) 0.624(4)
H11B H -0.203(4) 0.398(2) 0.573(4)
N2_2 N -0.02027(18) 0.45630(8) 0.27244(19)
N2B_2 N 0.02027(18) 0.54370(8) 0.72756(19)
Cu1_2 Cu -1.0000 0.5000 -0.5000
Cu1_3 Cu 1.0000 0.5000 1.5000
O5 O 0.86829(18) 0.25785(8) 0.2781(2)
H12 H 0.918(4) 0.2394(17) 0.213(4)
H13 H 0.915(4) 0.2817(17) 0.347(4)
O6 O 0.4629(2) 0.48783(9) 0.3021(2)
loop_
_geom_bond_atom_site_label_1
_geom_bond_atom_site_label_2
_geom_bond_site_symmetry_1
_geom_bond_site_symmetry_2
C1 C2 1_555 1_555
C2 C3 1_555 1_555
C3 H1 1_555 1_555
C4 C3 1_555 1_555
H2 C4 1_555 1_555
C5 C4 1_555 1_555
H3 C5 1_555 1_555
C6 C5 1_555 1_555
C7 C2 1_555 1_555
H4 C7 1_555 1_555
C8 C9 1_555 1_555
C9 C10 1_555 1_555
C10 H5 1_555 1_555
C11 C9 1_555 1_555
H6 C11 1_555 1_555
C12 H7 1_555 1_555
C13 C10 1_555 1_555
H8 C13 1_555 1_555
N1 C6 1_555 1_555
H9 N1 1_555 1_555
N2 C11 1_555 1_555
O1 C1 1_555 1_555
O2 C1 1_555 1_555
O3 C8 1_555 1_555
O4 H10 1_555 1_555
H11 O4 1_555 1_555
Cu1 O1 1_555 1_555
O5 H12 1_555 1_555
H13 O5 1_555 1_555
C1B C2B 1_555 1_555
C2B C3B 1_555 1_555
C3B H1B 1_555 1_555
C4B C3B 1_555 1_555
H2B C4B 1_555 1_555
C5B C4B 1_555 1_555
H3B C5B 1_555 1_555
C6B C5B 1_555 1_555
C7B C2B 1_555 1_555
H4B C7B 1_555 1_555
C8B C9B 1_555 1_555
C9B C10B 1_555 1_555
C10B H5B 1_555 1_555
C11B C9B 1_555 1_555
H6B C11B 1_555 1_555
C12B H7B 1_555 1_555
C13B C10B 1_555 1_555
H8B C13B 1_555 1_555
N1B C6B 1_555 1_555
H9B N1B 1_555 1_555
N2B C11B 1_555 1_555
O1B Cu1 1_555 1_555
O2B C1B 1_555 1_555
O3B C8B 1_555 1_555
O4B Cu1 1_555 1_555
H10B O4B 1_555 1_555
H11B O4B 1_555 1_555
N2_2 Cu1 1_555 1_555
N2B_2 Cu1 1_555 1_555
Cu1_2 N2B 1_555 1_555
Cu1_3 N2 1_555 1_555
C6 C7 1_555 1_555
C8 N1 1_555 1_555
C12 C13 1_555 1_555
C12 N2 1_555 1_555
O4 Cu1 1_555 1_555
C1B O1B 1_555 1_555
C6B C7B 1_555 1_555
C8B N1B 1_555 1_555
C12B C13B 1_555 1_555
C12B N2B 1_555 1_555

#END
