
#######################################################################
#
#                 Cambridge Crystallographic Data Centre
#                                CCDC 
#
#######################################################################
#
# If this CIF has been generated from an entry in the Cambridge 
# Structural Database, then it will include bibliographic, chemical, 
# crystal, experimental, refinement or atomic coordinate data resulting 
# from the CCDC's data processing and validation procedures.
#
#######################################################################

data_NOPNAJ
_symmetry_cell_setting           monoclinic
_symmetry_space_group_name_H-M   'C 2/c'
_symmetry_Int_Tables_number      15
_space_group_name_Hall           '-C 2yn'
loop_
_symmetry_equiv_pos_site_id
_symmetry_equiv_pos_as_xyz
1 x,y,z
2 -x,y,1/2-z
3 1/2+x,1/2+y,z
4 1/2-x,1/2+y,1/2-z
5 -x,-y,-z
6 x,-y,1/2+z
7 1/2-x,1/2-y,-z
8 1/2+x,1/2-y,1/2+z
_cell_length_a                   20.3394(16)
_cell_length_b                   10.1426(7)
_cell_length_c                   14.9680(9)
_cell_angle_alpha                90
_cell_angle_beta                 104.500(5)
_cell_angle_gamma                90
_cell_volume                     2989.46
loop_
_atom_site_label
_atom_site_type_symbol
_atom_site_fract_x
_atom_site_fract_y
_atom_site_fract_z
C1 C 0.02447(6) 0.24002(13) -0.04706(9)
H1 H 0.0589 0.2790 -0.0687
C2 C 0.01686(6) 0.27769(13) 0.03911(9)
C3 C -0.03476(7) 0.21954(16) 0.07153(10)
H2 H -0.0417 0.2432 0.1285
C4 C -0.07540(8) 0.12588(15) 0.01708(11)
H3 H -0.1100 0.0849 0.0373
C5 C -0.06424(7) 0.09355(14) -0.06784(10)
H4 H -0.0917 0.0300 -0.1037
C6 C 0.05951(7) 0.38502(14) 0.09251(10)
C7 C 0.17581(6) 0.47690(14) 0.12660(9)
C8 C 0.24312(6) 0.43465(14) 0.14651(10)
H5 H 0.2527 0.3466 0.1379
C9 C 0.29607(6) 0.52256(14) 0.17904(9)
C10 C 0.28167(7) 0.65416(17) 0.19222(12)
H6 H 0.3167 0.7135 0.2149
C11 C 0.21487(8) 0.69598(16) 0.17128(14)
H7 H 0.2054 0.7843 0.1792
C12 C 0.16160(8) 0.60905(15) 0.13866(13)
H8 H 0.1169 0.6387 0.1250
C13 C 0.36810(6) 0.47447(15) 0.19977(9)
N1 N -0.01521(5) 0.15065(12) -0.10029(8)
N2 N 0.12534(6) 0.38188(12) 0.09054(10)
H9 H 0.1421 0.3070 0.0705
O1 O 0.03397(6) 0.46869(14) 0.13210(10)
O2 O 0.41539(5) 0.55142(12) 0.23609(8)
O3 O 0.37911(6) 0.35668(13) 0.17965(10)
O4 O 0.0000 0.35106(18) -0.2500
H10 H -0.0050 0.3780 -0.2005
Cd1 Cd 0.0000 0.113387(13) -0.2500
H10A H 0.0050 0.3780 -0.2995
C1A C -0.02447(6) 0.24002(13) -0.45294(9)
H1A H -0.0589 0.2790 -0.4313
C2A C -0.01686(6) 0.27769(13) -0.53911(9)
C3A C 0.03476(7) 0.21954(16) -0.57153(10)
H2A H 0.0417 0.2432 -0.6285
C4A C 0.07540(8) 0.12588(15) -0.51708(11)
H3A H 0.1100 0.0849 -0.5373
C5A C 0.06424(7) 0.09355(14) -0.43216(10)
H4A H 0.0917 0.0300 -0.3963
C6A C -0.05951(7) 0.38502(14) -0.59251(10)
C7A C -0.17581(6) 0.47690(14) -0.62660(9)
C8A C -0.24312(6) 0.43465(14) -0.64651(10)
H5A H -0.2527 0.3466 -0.6379
C9A C -0.29607(6) 0.52256(14) -0.67904(9)
C10A C -0.28167(7) 0.65416(17) -0.69222(12)
H6A H -0.3167 0.7135 -0.7149
C11A C -0.21487(8) 0.69598(16) -0.67128(14)
H7A H -0.2054 0.7843 -0.6792
C12A C -0.16160(8) 0.60905(15) -0.63866(13)
H8A H -0.1169 0.6387 -0.6250
C13A C -0.36810(6) 0.47447(15) -0.69977(9)
N1A N 0.01521(5) 0.15065(12) -0.39971(8)
N2A N -0.12534(6) 0.38188(12) -0.59054(10)
H9A H -0.1421 0.3070 -0.5705
O1A O -0.03397(6) 0.46869(14) -0.63210(10)
O2A O -0.41539(5) 0.55142(12) -0.73609(8)
O3A O -0.37911(6) 0.35668(13) -0.67965(10)
O2F O 0.08461(5) -0.05142(12) -0.23609(8)
O2G O -0.08461(5) -0.05142(12) -0.26391(8)
O3F O 0.12089(6) 0.14332(13) -0.17965(10)
O3G O -0.12089(6) 0.14332(13) -0.32035(10)
Cd1F Cd -0.5000 0.386613(13) -0.7500
Cd1F_2 Cd 0.5000 0.386613(13) 0.2500
C14 C 0.34313(17) -0.0147(3) 0.1235(2)
O5 O 0.31826(10) 0.11458(16) 0.10321(15)
H11 H 0.3431 0.1661 0.1411
O6 O 0.17795(8) 0.14016(15) 0.03210(12)
H12 H 0.2130 0.1263 0.0557
H13 H 0.1711 0.1287 -0.0302
loop_
_geom_bond_atom_site_label_1
_geom_bond_atom_site_label_2
_geom_bond_site_symmetry_1
_geom_bond_site_symmetry_2
C1 H1 1_555 1_555
C2 C1 1_555 1_555
C3 C2 1_555 1_555
H2 C3 1_555 1_555
C4 C3 1_555 1_555
H3 C4 1_555 1_555
C5 C4 1_555 1_555
H4 C5 1_555 1_555
C6 C2 1_555 1_555
C7 C8 1_555 1_555
C8 H5 1_555 1_555
C9 C8 1_555 1_555
C10 C9 1_555 1_555
H6 C10 1_555 1_555
C11 C10 1_555 1_555
H7 C11 1_555 1_555
C12 C7 1_555 1_555
H8 C12 1_555 1_555
C13 C9 1_555 1_555
N1 C1 1_555 1_555
N2 C6 1_555 1_555
H9 N2 1_555 1_555
O1 C6 1_555 1_555
O2 C13 1_555 1_555
O3 C13 1_555 1_555
O4 H10 1_555 1_555
Cd1 N1 1_555 1_555
C14 O5 1_555 1_555
O5 H11 1_555 1_555
O6 H12 1_555 1_555
H13 O6 1_555 1_555
H10A O4 1_555 1_555
C1A H1A 1_555 1_555
C2A C1A 1_555 1_555
C3A C2A 1_555 1_555
H2A C3A 1_555 1_555
C4A C3A 1_555 1_555
H3A C4A 1_555 1_555
C5A C4A 1_555 1_555
H4A C5A 1_555 1_555
C6A C2A 1_555 1_555
C7A C8A 1_555 1_555
C8A H5A 1_555 1_555
C9A C8A 1_555 1_555
C10A C9A 1_555 1_555
H6A C10A 1_555 1_555
C11A C10A 1_555 1_555
H7A C11A 1_555 1_555
C12A C7A 1_555 1_555
H8A C12A 1_555 1_555
C13A C9A 1_555 1_555
N1A Cd1 1_555 1_555
N2A C6A 1_555 1_555
H9A N2A 1_555 1_555
O1A C6A 1_555 1_555
O2A C13A 1_555 1_555
O3A C13A 1_555 1_555
O2F Cd1 1_555 1_555
O2G Cd1 1_555 1_555
O3F Cd1 1_555 1_555
O3G Cd1 1_555 1_555
Cd1F O2A 1_555 1_555
Cd1F_2 O2 1_555 1_555
C5 N1 1_555 1_555
C7 N2 1_555 1_555
C11 C12 1_555 1_555
O3 Cd1F_2 1_555 1_555
O4 Cd1 1_555 1_555
C1A N1A 1_555 1_555
C5A N1A 1_555 1_555
C7A N2A 1_555 1_555
C11A C12A 1_555 1_555
O3A Cd1F 1_555 1_555

#END
