
#######################################################################
#
#                 Cambridge Crystallographic Data Centre
#                                CCDC 
#
#######################################################################
#
# If this CIF has been generated from an entry in the Cambridge 
# Structural Database, then it will include bibliographic, chemical, 
# crystal, experimental, refinement or atomic coordinate data resulting 
# from the CCDC's data processing and validation procedures.
#
#######################################################################

data_NOPQIU
_symmetry_cell_setting           monoclinic
_symmetry_space_group_name_H-M   'C c'
_symmetry_Int_Tables_number      9
_space_group_name_Hall           'C -2yc'
loop_
_symmetry_equiv_pos_site_id
_symmetry_equiv_pos_as_xyz
1 x,y,z
2 x,-y,1/2+z
3 1/2+x,1/2+y,z
4 1/2+x,1/2-y,1/2+z
_cell_length_a                   9.0429(3)
_cell_length_b                   22.3081(5)
_cell_length_c                   7.1341(3)
_cell_angle_alpha                90
_cell_angle_beta                 116.720(3)
_cell_angle_gamma                90
_cell_volume                     1285.48
loop_
_atom_site_label
_atom_site_type_symbol
_atom_site_fract_x
_atom_site_fract_y
_atom_site_fract_z
Cu1 Cu 0.41217(6) 0.583216(18) 0.46302(7)
Cl1 Cl 0.53031(13) 0.66693(4) 0.63563(17)
Cl2 Cl 0.63396(11) 0.54970(4) 0.43176(15)
N1 N 0.1753(4) 0.61248(13) 0.3467(5)
N2 N 0.2919(4) 0.50583(13) 0.3594(5)
S1 S 0.39374(11) 0.44094(4) 0.35675(15)
C1 C 0.1250(5) 0.66857(17) 0.3462(6)
H1 H 0.2053 0.6997 0.3968
C2 C -0.0406(5) 0.68313(18) 0.2743(7)
H2 H -0.0726 0.7235 0.2781
C3 C -0.1582(5) 0.63873(19) 0.1974(7)
H3 H -0.2724 0.6480 0.1462
C4 C -0.1068(5) 0.57990(18) 0.1960(7)
H4 H -0.1853 0.5483 0.1446
C5 C 0.0594(5) 0.56842(17) 0.2704(6)
C6 C 0.1324(5) 0.50796(16) 0.2817(5)
N3 N 0.0301(4) 0.45983(14) 0.2147(5)
H5 H -0.081(3) 0.466(2) 0.161(7)
C7 C 0.0854(5) 0.40077(17) 0.2834(6)
C8 C -0.0270(5) 0.35723(19) 0.2760(6)
H6 H -0.1410 0.3668 0.2242
C9 C 0.0284(5) 0.30001(17) 0.3444(6)
H7 H -0.0489 0.2697 0.3340
C10 C 0.1946(5) 0.28607(18) 0.4278(6)
H8 H 0.2313 0.2465 0.4750
C11 C 0.3083(5) 0.33002(18) 0.4426(6)
H9 H 0.4233 0.3211 0.5055
C12 C 0.2532(5) 0.38704(16) 0.3652(6)
Cu1A Cu 0.41217(6) 0.416784(18) -0.03698(7)
S1A S 0.39374(11) 0.55906(4) 0.85675(15)
loop_
_geom_bond_atom_site_label_1
_geom_bond_atom_site_label_2
_geom_bond_site_symmetry_1
_geom_bond_site_symmetry_2
Cu1 Cl1 1_555 1_555
Cl2 Cu1 1_555 1_555
N1 Cu1 1_555 1_555
N2 Cu1 1_555 1_555
S1 N2 1_555 1_555
C1 N1 1_555 1_555
H1 C1 1_555 1_555
C2 C1 1_555 1_555
H2 C2 1_555 1_555
C3 C2 1_555 1_555
H3 C3 1_555 1_555
C4 C3 1_555 1_555
H4 C4 1_555 1_555
C5 N1 1_555 1_555
C6 N2 1_555 1_555
N3 C6 1_555 1_555
H5 N3 1_555 1_555
C7 N3 1_555 1_555
C8 C7 1_555 1_555
H6 C8 1_555 1_555
C9 C8 1_555 1_555
H7 C9 1_555 1_555
C10 C9 1_555 1_555
H8 C10 1_555 1_555
C11 C10 1_555 1_555
H9 C11 1_555 1_555
C12 S1 1_555 1_555
Cu1A S1 1_555 1_555
S1A Cu1 1_555 1_555
C4 C5 1_555 1_555
C5 C6 1_555 1_555
C7 C12 1_555 1_555
C11 C12 1_555 1_555

#END
