
#######################################################################
#
#                 Cambridge Crystallographic Data Centre
#                                CCDC 
#
#######################################################################
#
# If this CIF has been generated from an entry in the Cambridge 
# Structural Database, then it will include bibliographic, chemical, 
# crystal, experimental, refinement or atomic coordinate data resulting 
# from the CCDC's data processing and validation procedures.
#
#######################################################################

data_NOPSIV
_symmetry_cell_setting           monoclinic
_symmetry_space_group_name_H-M   'C 2/c'
_symmetry_Int_Tables_number      15
_space_group_name_Hall           '-C 2yn'
loop_
_symmetry_equiv_pos_site_id
_symmetry_equiv_pos_as_xyz
1 x,y,z
2 1/2+x,1/2+y,z
3 -x,y,1/2-z
4 1/2-x,1/2+y,1/2-z
5 -x,-y,-z
6 1/2-x,1/2-y,-z
7 x,-y,1/2+z
8 1/2+x,1/2-y,1/2+z
_cell_length_a                   23.936(5)
_cell_length_b                   8.079(5)
_cell_length_c                   17.441(5)
_cell_angle_alpha                90
_cell_angle_beta                 112.980(5)
_cell_angle_gamma                90
_cell_volume                     3105.07
loop_
_atom_site_label
_atom_site_type_symbol
_atom_site_fract_x
_atom_site_fract_y
_atom_site_fract_z
C1 C 0.74537(9) 0.4220(2) 0.58357(12)
C2 C 0.85440(9) 0.4744(2) 0.63158(13)
C3 C 0.84736(9) 0.5908(2) 0.68856(13)
H1 H 0.8806 0.6497 0.7246
C4 C 0.79164(8) 0.6145(2) 0.68955(11)
C5 C 0.78127(8) 0.7324(2) 0.75119(12)
C6 C 0.61169(12) 0.5740(3) 0.78084(16)
H2 H 0.6472 0.6397 0.8091
H3 H 0.6201 0.4605 0.7977
H4 H 0.5790 0.6134 0.7948
C7 C 0.54598(10) 0.4646(3) 0.64798(17)
H5 H 0.5108 0.4901 0.6594
H6 H 0.5602 0.3556 0.6683
H7 H 0.5356 0.4687 0.5890
C8 C 0.57325(11) 0.7573(3) 0.66177(17)
H8 H 0.6012 0.8370 0.6987
H9 H 0.5336 0.7749 0.6634
C9 C 0.56950(10) 0.7822(3) 0.57495(17)
H10 H 0.5380 0.7119 0.5369
H11 H 0.5592 0.8964 0.5583
C10 C 0.61856(13) 0.6846(3) 0.48613(15)
H12 H 0.5957 0.5834 0.4743
H13 H 0.6570 0.6661 0.4822
H14 H 0.5964 0.7678 0.4466
C11 C 0.66793(11) 0.8903(3) 0.59072(17)
H15 H 0.6489 0.9747 0.5501
H16 H 0.7066 0.8625 0.5895
H17 H 0.6736 0.9303 0.6451
N1 N 0.74092(7) 0.53539(17) 0.63833(10)
N2 N 0.80142(7) 0.3983(2) 0.58104(10)
H18 H 0.8036 0.3297 0.5446
N3 N 0.59442(8) 0.5870(2) 0.69012(11)
N4 N 0.62866(7) 0.7407(2) 0.57119(11)
O1 O 0.70089(6) 0.34291(18) 0.53673(9)
O2 O 0.90299(6) 0.43881(17) 0.62604(10)
O3 O 0.82423(6) 0.83182(16) 0.78688(9)
O4 O 0.73274(6) 0.71953(17) 0.76012(9)
Cu1 Cu 0.667318(9) 0.55456(2) 0.660595(13)
C1C C 0.75463(9) -0.0780(2) 0.91643(12)
C2C C 0.64560(9) -0.0256(2) 0.86842(13)
C3C C 0.65264(9) 0.0908(2) 0.81144(13)
H1C H 0.6194 0.1497 0.7754
C4C C 0.70836(8) 0.1145(2) 0.81045(11)
C5C C 0.71873(8) 0.2324(2) 0.74881(12)
C6C C 0.88831(12) 0.0740(3) 0.71916(16)
H2C H 0.8528 0.1397 0.6909
H3C H 0.8799 -0.0395 0.7023
H4C H 0.9210 0.1134 0.7052
C7C C 0.95402(10) -0.0354(3) 0.85202(17)
H5C H 0.9892 -0.0099 0.8406
H6C H 0.9398 -0.1444 0.8317
H7C H 0.9644 -0.0313 0.9110
C8C C 0.92675(11) 0.2573(3) 0.83823(17)
H8C H 0.8988 0.3370 0.8013
H9C H 0.9664 0.2749 0.8366
C9C C 0.93050(10) 0.2822(3) 0.92505(17)
H10C H 0.9620 0.2119 0.9631
H11C H 0.9408 0.3964 0.9417
C10C C 0.88144(13) 0.1846(3) 1.01387(15)
H12C H 0.9043 0.0834 1.0257
H13C H 0.8430 0.1661 1.0178
H14C H 0.9036 0.2678 1.0534
C11C C 0.83207(11) 0.3903(3) 0.90928(17)
H15C H 0.8511 0.4747 0.9499
H16C H 0.7934 0.3625 0.9105
H17C H 0.8264 0.4303 0.8549
N1C N 0.75908(7) 0.03539(17) 0.86167(10)
N2C N 0.69858(7) -0.1017(2) 0.91896(10)
H18C H 0.6964 -0.1703 0.9554
N3C N 0.90558(8) 0.0870(2) 0.80988(11)
N4C N 0.87134(7) 0.2407(2) 0.92881(11)
O1C O 0.79911(6) -0.15709(18) 0.96327(9)
O2C O 0.59701(6) -0.06119(17) 0.87396(10)
O3C O 0.67577(6) 0.33182(16) 0.71312(9)
O3_2 O 0.82423(6) -0.16818(16) 0.78688(9)
O4C O 0.76726(6) 0.21953(17) 0.73988(9)
Cu1C Cu 0.832682(9) 0.05456(2) 0.839405(13)
Cu1C_2 Cu 0.832682(9) 1.05456(2) 0.839405(13)
O5 O 0.92417(9) 0.2394(3) 0.50477(17)
H19 H 0.8898(10) 0.227(4) 0.4730(16)
H20 H 0.9221(14) 0.290(4) 0.5457(15)
O6 O 0.5000 0.8732(5) 0.2500
H21 H 0.491(3) 0.937(5) 0.209(2)
H21B H 0.509(3) 0.937(5) 0.291(2)
loop_
_geom_bond_atom_site_label_1
_geom_bond_atom_site_label_2
_geom_bond_site_symmetry_1
_geom_bond_site_symmetry_2
C1 N1 1_555 1_555
C2 C3 1_555 1_555
C3 H1 1_555 1_555
C4 C3 1_555 1_555
C5 C4 1_555 1_555
C6 H2 1_555 1_555
H3 C6 1_555 1_555
H4 C6 1_555 1_555
C7 H5 1_555 1_555
H6 C7 1_555 1_555
H7 C7 1_555 1_555
C8 H8 1_555 1_555
H9 C8 1_555 1_555
C9 C8 1_555 1_555
H10 C9 1_555 1_555
H11 C9 1_555 1_555
C10 H12 1_555 1_555
H13 C10 1_555 1_555
H14 C10 1_555 1_555
C11 H15 1_555 1_555
H16 C11 1_555 1_555
H17 C11 1_555 1_555
N1 C4 1_555 1_555
N2 C1 1_555 1_555
H18 N2 1_555 1_555
N3 C6 1_555 1_555
N4 C9 1_555 1_555
O1 C1 1_555 1_555
O2 C2 1_555 1_555
O3 C5 1_555 1_555
O4 C5 1_555 1_555
O5 H19 1_555 1_555
O6 H21 1_555 1_555
Cu1 N1 1_555 1_555
H20 O5 1_555 1_555
C1C N1C 1_555 1_555
C2C C3C 1_555 1_555
C3C H1C 1_555 1_555
C4C C3C 1_555 1_555
C5C C4C 1_555 1_555
C6C H2C 1_555 1_555
H3C C6C 1_555 1_555
H4C C6C 1_555 1_555
C7C H5C 1_555 1_555
H6C C7C 1_555 1_555
H7C C7C 1_555 1_555
C8C H8C 1_555 1_555
H9C C8C 1_555 1_555
C9C C8C 1_555 1_555
H10C C9C 1_555 1_555
H11C C9C 1_555 1_555
C10C H12C 1_555 1_555
H13C C10C 1_555 1_555
H14C C10C 1_555 1_555
C11C H15C 1_555 1_555
H16C C11C 1_555 1_555
H17C C11C 1_555 1_555
N1C C4C 1_555 1_555
N2C C1C 1_555 1_555
H18C N2C 1_555 1_555
N3C C6C 1_555 1_555
N4C C9C 1_555 1_555
O1C C1C 1_555 1_555
O2C C2C 1_555 1_555
O3C Cu1 1_555 1_555
O3_2 Cu1C 1_555 1_555
O4C C5C 1_555 1_555
Cu1C N1C 1_555 1_555
Cu1C_2 O3 1_555 1_555
H21B O6 1_555 1_555
C2 N2 1_555 1_555
C7 N3 1_555 1_555
C8 N3 1_555 1_555
C10 N4 1_555 1_555
C11 N4 1_555 1_555
N3 Cu1 1_555 1_555
N4 Cu1 1_555 1_555
O4 Cu1 1_555 1_555
C2C N2C 1_555 1_555
C5C O3C 1_555 1_555
C7C N3C 1_555 1_555
C8C N3C 1_555 1_555
C10C N4C 1_555 1_555
C11C N4C 1_555 1_555
N3C Cu1C 1_555 1_555
N4C Cu1C 1_555 1_555
O4C Cu1C 1_555 1_555

#END
