
#######################################################################
#
#                 Cambridge Crystallographic Data Centre
#                                CCDC 
#
#######################################################################
#
# If this CIF has been generated from an entry in the Cambridge 
# Structural Database, then it will include bibliographic, chemical, 
# crystal, experimental, refinement or atomic coordinate data resulting 
# from the CCDC's data processing and validation procedures.
#
#######################################################################

data_NOPSER
_symmetry_cell_setting           orthorhombic
_symmetry_space_group_name_H-M   'P n a 21'
_symmetry_Int_Tables_number      33
_space_group_name_Hall           'P 2c -2n'
loop_
_symmetry_equiv_pos_site_id
_symmetry_equiv_pos_as_xyz
1 x,y,z
2 -x,-y,1/2+z
3 1/2-x,1/2+y,1/2+z
4 1/2+x,1/2-y,z
_cell_length_a                   13.6808(10)
_cell_length_b                   8.3378(6)
_cell_length_c                   14.5273(8)
_cell_angle_alpha                90
_cell_angle_beta                 90
_cell_angle_gamma                90
_cell_volume                     1657.1
loop_
_atom_site_label
_atom_site_type_symbol
_atom_site_fract_x
_atom_site_fract_y
_atom_site_fract_z
C1 C 0.2311(6) 0.4902(9) 0.5625(11)
C2 C 0.3186(6) 0.6032(9) 0.5569(11)
C3 C 0.2958(8) 0.7628(10) 0.5757(8)
H1 H 0.2334 0.7996 0.5896
C4 C 0.3816(9) 0.8640(10) 0.5707(11)
C5 C 0.4867(7) 0.6308(11) 0.5465(10)
C6 C 0.5099(9) 0.1094(15) 0.3847(10)
H2 H 0.5633 0.0928 0.4232
C7 C 0.5043(10) 0.0598(17) 0.2979(10)
H3 H 0.5521 0.0065 0.2641
C8 C 0.3673(8) 0.1773(14) 0.3371(9)
C9 C 0.2725(14) 0.251(3) 0.3258(14)
H4 H 0.2444 0.2175 0.2684
H5 H 0.2795 0.3658 0.3259
H6 H 0.2305 0.2194 0.3755
C10 C 0.2709(10) 0.2185(19) 0.7440(9)
H7 H 0.2238 0.1697 0.7073
C11 C 0.2648(7) 0.2346(19) 0.8336(11)
H8 H 0.2152 0.1973 0.8719
C12 C 0.4020(8) 0.3466(14) 0.7828(10)
C13 C 0.4930(11) 0.436(2) 0.7872(12)
H9 H 0.4906 0.5096 0.8380
H10 H 0.5020 0.4946 0.7309
H11 H 0.5465 0.3630 0.7956
N1 N 0.4062(6) 0.5388(8) 0.5456(8)
N2 N 0.4688(7) 0.7922(7) 0.5567(10)
H12 H 0.5189 0.8544 0.5537
N3 N 0.4243(7) 0.1900(11) 0.4103(7)
N4 N 0.4107(7) 0.1053(13) 0.2682(8)
H13 H 0.3863 0.0889 0.2145
N5 N 0.3584(6) 0.2851(8) 0.7112(6)
N6 N 0.3435(5) 0.3148(13) 0.8580(7)
H14 H 0.3568 0.3435 0.9134
O1 O 0.2476(4) 0.3405(8) 0.5371(5)
O2 O 0.1532(4) 0.5390(7) 0.5849(5)
O3 O 0.3743(7) 1.0120(7) 0.5833(6)
O4 O 0.5738(5) 0.5765(8) 0.5319(6)
O5 O 0.5512(7) 0.2756(13) 0.5867(6)
Mn1 Mn 0.39417(10) 0.26222(13) 0.55793(14)
O3_2 O 0.3743(7) 0.0120(7) 0.5833(6)
Mn1_2 Mn 0.39417(10) 1.26222(13) 0.55793(14)
loop_
_geom_bond_atom_site_label_1
_geom_bond_atom_site_label_2
_geom_bond_site_symmetry_1
_geom_bond_site_symmetry_2
C1 C2 1_555 1_555
C2 C3 1_555 1_555
C3 H1 1_555 1_555
C4 C3 1_555 1_555
C5 N1 1_555 1_555
C6 H2 1_555 1_555
C7 C6 1_555 1_555
H3 C7 1_555 1_555
C8 C9 1_555 1_555
C9 H4 1_555 1_555
H5 C9 1_555 1_555
H6 C9 1_555 1_555
C10 H7 1_555 1_555
C11 C10 1_555 1_555
H8 C11 1_555 1_555
C12 C13 1_555 1_555
C13 H9 1_555 1_555
H10 C13 1_555 1_555
H11 C13 1_555 1_555
N1 C2 1_555 1_555
N2 C4 1_555 1_555
H12 N2 1_555 1_555
N3 C6 1_555 1_555
N4 C7 1_555 1_555
H13 N4 1_555 1_555
N5 C10 1_555 1_555
N6 C11 1_555 1_555
H14 N6 1_555 1_555
O1 C1 1_555 1_555
O2 C1 1_555 1_555
O3 C4 1_555 1_555
O4 C5 1_555 1_555
O5 Mn1 1_555 1_555
Mn1 N1 1_555 1_555
O3_2 Mn1 1_555 1_555
Mn1_2 O3 1_555 1_555
C5 N2 1_555 1_555
C8 N3 1_555 1_555
C8 N4 1_555 1_555
C12 N5 1_555 1_555
C12 N6 1_555 1_555
N3 Mn1 1_555 1_555
N5 Mn1 1_555 1_555
O1 Mn1 1_555 1_555

#END
