
#######################################################################
#
#                 Cambridge Crystallographic Data Centre
#                                CCDC 
#
#######################################################################
#
# If this CIF has been generated from an entry in the Cambridge 
# Structural Database, then it will include bibliographic, chemical, 
# crystal, experimental, refinement or atomic coordinate data resulting 
# from the CCDC's data processing and validation procedures.
#
#######################################################################

data_NOPSUH
_symmetry_cell_setting           monoclinic
_symmetry_space_group_name_H-M   'P 21/n'
_symmetry_Int_Tables_number      14
_space_group_name_Hall           '-P 2yn'
loop_
_symmetry_equiv_pos_site_id
_symmetry_equiv_pos_as_xyz
1 x,y,z
2 1/2-x,1/2+y,1/2-z
3 -x,-y,-z
4 1/2+x,1/2-y,1/2+z
_cell_length_a                   13.470(2)
_cell_length_b                   5.5379(9)
_cell_length_c                   18.222(3)
_cell_angle_alpha                90
_cell_angle_beta                 108.051(10)
_cell_angle_gamma                90
_cell_volume                     1292.38
loop_
_atom_site_label
_atom_site_type_symbol
_atom_site_fract_x
_atom_site_fract_y
_atom_site_fract_z
Mn1 Mn -0.5000 0.5000 -0.5000
S1 S -0.29996(6) 0.10228(13) -0.53354(5)
S2 S -0.32384(5) -0.26992(12) -0.41705(4)
O1 O -0.54114(15) 0.4462(3) -0.39751(11)
O2 O -0.41953(18) -0.1217(4) -0.25207(12)
N1 N -0.41002(15) 0.1720(4) -0.44337(12)
N2 N -0.44123(16) 0.1143(4) -0.37944(12)
H1 H -0.4191 -0.0151 -0.3534
C1 C -0.53638(19) 0.2028(5) -0.28940(14)
C2 C -0.50574(19) 0.2624(5) -0.35937(14)
C3 C -0.4950(2) 0.0160(5) -0.23754(16)
C4 C -0.6128(2) 0.3492(6) -0.27573(16)
H2 H -0.6404 0.4758 -0.3094
C5 C -0.6486(3) 0.3112(7) -0.21352(18)
H3 H -0.6997 0.4109 -0.2053
C6 C -0.6079(3) 0.1246(7) -0.16407(19)
H4 H -0.6321 0.0967 -0.1222
C7 C -0.5317(3) -0.0221(7) -0.17560(18)
H5 H -0.5046 -0.1479 -0.1414
C8 C -0.35101(18) 0.0060(4) -0.46009(15)
C9 C -0.3618(3) -0.2907(7) -0.1960(2)
H6 H -0.4080 -0.4137 -0.1886
H7 H -0.3086 -0.3634 -0.2136
H8 H -0.3300 -0.2088 -0.1480
C10 C -0.1161(3) -0.1597(9) -0.4887(3)
H9 H -0.0815 -0.0080 -0.4884
H10 H -0.0766 -0.2864 -0.5025
H11 H -0.1216 -0.1907 -0.4382
C11 C -0.2227(2) -0.1502(6) -0.54599(18)
H12 H -0.2593 -0.2982 -0.5422
H13 H -0.2161 -0.1432 -0.5975
Mn1_2 Mn -0.5000 -0.5000 -0.5000
Mn1_3 Mn -0.5000 1.5000 -0.5000
S1_2 S -0.29996(6) 1.10228(13) -0.53354(5)
S2B S -0.67616(5) 0.26992(12) -0.58295(4)
S2_2 S -0.32384(5) 0.73008(12) -0.41705(4)
O1B O -0.45886(15) 0.5538(3) -0.60249(11)
O1_2 O -0.54114(15) 1.4462(3) -0.39751(11)
O2_2 O -0.41953(18) 0.8783(4) -0.25207(12)
N1B N -0.58998(15) 0.8280(4) -0.55663(12)
N1_2 N -0.41002(15) 1.1720(4) -0.44337(12)
N2_2 N -0.44123(16) 1.1143(4) -0.37944(12)
H1_2 H -0.4191 0.9849 -0.3534
C1_2 C -0.53638(19) 1.2028(5) -0.28940(14)
C2_2 C -0.50574(19) 1.2624(5) -0.35937(14)
C3_2 C -0.4950(2) 1.0160(5) -0.23754(16)
C4_2 C -0.6128(2) 1.3492(6) -0.27573(16)
H2_2 H -0.6404 1.4758 -0.3094
C5_2 C -0.6486(3) 1.3112(7) -0.21352(18)
H3_2 H -0.6997 1.4109 -0.2053
C6_2 C -0.6079(3) 1.1246(7) -0.16407(19)
H4_2 H -0.6321 1.0967 -0.1222
C7_2 C -0.5317(3) 0.9779(7) -0.17560(18)
H5_2 H -0.5046 0.8521 -0.1414
C8_2 C -0.35101(18) 1.0060(4) -0.46009(15)
C9_2 C -0.3618(3) 0.7093(7) -0.1960(2)
H6_2 H -0.4080 0.5863 -0.1886
H7_2 H -0.3086 0.6366 -0.2136
H8_2 H -0.3300 0.7912 -0.1480
C10_2 C -0.1161(3) 0.8403(9) -0.4887(3)
H9_2 H -0.0815 0.9920 -0.4884
H10_2 H -0.0766 0.7136 -0.5025
H11_2 H -0.1216 0.8093 -0.4382
C11_2 C -0.2227(2) 0.8498(6) -0.54599(18)
H12_2 H -0.2593 0.7018 -0.5422
H13_2 H -0.2161 0.8568 -0.5975
loop_
_geom_bond_atom_site_label_1
_geom_bond_atom_site_label_2
_geom_bond_site_symmetry_1
_geom_bond_site_symmetry_2
Mn1 O1 1_555 1_555
S1 C8 1_555 1_555
S2 C8 1_555 1_555
O1 C2 1_555 1_555
O2 C3 1_555 1_555
N1 Mn1 1_555 1_555
N2 N1 1_555 1_555
H1 N2 1_555 1_555
C1 C2 1_555 1_555
C2 N2 1_555 1_555
C3 C1 1_555 1_555
C4 C1 1_555 1_555
H2 C4 1_555 1_555
C5 C4 1_555 1_555
H3 C5 1_555 1_555
C6 C5 1_555 1_555
H4 C6 1_555 1_555
C7 C3 1_555 1_555
H5 C7 1_555 1_555
C8 N1 1_555 1_555
C9 O2 1_555 1_555
H6 C9 1_555 1_555
H7 C9 1_555 1_555
H8 C9 1_555 1_555
C10 H9 1_555 1_555
H10 C10 1_555 1_555
H11 C10 1_555 1_555
C11 S1 1_555 1_555
H12 C11 1_555 1_555
H13 C11 1_555 1_555
Mn1_2 S2 1_555 1_555
Mn1_3 O1_2 1_555 1_555
S1_2 C8_2 1_555 1_555
S2B Mn1 1_555 1_555
S2_2 Mn1 1_555 1_555
O1B Mn1 1_555 1_555
O1_2 C2_2 1_555 1_555
O2_2 C3_2 1_555 1_555
N1B Mn1 1_555 1_555
N1_2 Mn1_3 1_555 1_555
N2_2 N1_2 1_555 1_555
H1_2 N2_2 1_555 1_555
C1_2 C2_2 1_555 1_555
C2_2 N2_2 1_555 1_555
C3_2 C1_2 1_555 1_555
C4_2 C1_2 1_555 1_555
H2_2 C4_2 1_555 1_555
C5_2 C4_2 1_555 1_555
H3_2 C5_2 1_555 1_555
C6_2 C5_2 1_555 1_555
H4_2 C6_2 1_555 1_555
C7_2 C3_2 1_555 1_555
H5_2 C7_2 1_555 1_555
C8_2 S2_2 1_555 1_555
C9_2 O2_2 1_555 1_555
H6_2 C9_2 1_555 1_555
H7_2 C9_2 1_555 1_555
H8_2 C9_2 1_555 1_555
C10_2 H9_2 1_555 1_555
H10_2 C10_2 1_555 1_555
H11_2 C10_2 1_555 1_555
C11_2 S1_2 1_555 1_555
H12_2 C11_2 1_555 1_555
H13_2 C11_2 1_555 1_555
C6 C7 1_555 1_555
C10 C11 1_555 1_555
N1_2 C8_2 1_555 1_555
C6_2 C7_2 1_555 1_555
C10_2 C11_2 1_555 1_555

#END
