
#######################################################################
#
#                 Cambridge Crystallographic Data Centre
#                                CCDC 
#
#######################################################################
#
# If this CIF has been generated from an entry in the Cambridge 
# Structural Database, then it will include bibliographic, chemical, 
# crystal, experimental, refinement or atomic coordinate data resulting 
# from the CCDC's data processing and validation procedures.
#
#######################################################################

data_NOPSUG
_symmetry_cell_setting           orthorhombic
_symmetry_space_group_name_H-M   'P n a m'
_symmetry_Int_Tables_number      62
_space_group_name_Hall           '-P 2c 2n'
loop_
_symmetry_equiv_pos_site_id
_symmetry_equiv_pos_as_xyz
1 x,y,z
2 -x,-y,1/2+z
3 1/2+x,1/2-y,1/2-z
4 1/2-x,1/2+y,-z
5 -x,-y,-z
6 x,y,1/2-z
7 1/2-x,1/2+y,1/2+z
8 1/2+x,1/2-y,z
_cell_length_a                   17.8423(6)
_cell_length_b                   6.9373(1)
_cell_length_c                   14.2474(4)
_cell_angle_alpha                90
_cell_angle_beta                 90
_cell_angle_gamma                90
_cell_volume                     1763.51
loop_
_atom_site_label
_atom_site_type_symbol
_atom_site_fract_x
_atom_site_fract_y
_atom_site_fract_z
N1 N 0.37227 0.13207 0.25000
N2 N 0.44714 0.15655 0.25000
C1 C 0.45575 0.34865 0.25000
C2 C 0.38637 0.43840 0.25000
C3 C 0.33330 0.29702 0.25000
C4 C 0.53224 0.43656 0.25000
O1 O 0.53816 0.61352 0.25000
O2 O 0.58474 0.31442 0.25000
N3 N 0.37075 0.64338 0.25000
O3 O 0.36416 0.72442 0.17625
C5 C 0.24910 0.30316 0.25000
O4 O 0.21665 0.45555 0.25000
O5 O 0.22094 0.13052 0.25000
O6 O 0.67334 -0.28746 0.53594
C6 C 0.61472 -0.37651 0.48194
C7 C 0.55187 -0.23790 0.46631
O7 O 0.57861 -0.07212 0.41664
C8 C 0.63686 0.01805 0.46992
C9 C 0.69962 -0.12076 0.48888
Na1 Na 0.57453 -0.04187 0.25000
H1 H 0.35489 0.02391 0.25000
H2 H 0.17712 0.14208 0.25000
H3 H 0.60014 -0.48915 0.52309
H4 H 0.63769 -0.41601 0.41952
H5 H 0.52511 -0.19436 0.52617
H6 H 0.51266 -0.28922 0.42195
H7 H 0.66038 0.12572 0.43033
H8 H 0.61202 0.06393 0.52745
H9 H 0.73906 -0.06482 0.53050
H10 H 0.72230 -0.15622 0.42717
Na1B Na 0.07453 0.54187 0.25000
Na1_2 Na 0.57453 0.95813 0.25000
O3E O 0.36416 0.72442 0.32375
O1_2 O 0.53816 -0.38648 0.25000
O4B O 0.71665 0.04445 0.25000
O7E O 0.57861 -0.07212 0.08336
C7E C 0.55187 -0.23790 0.03369
C6E C 0.61472 -0.37651 0.01806
O6E O 0.67334 -0.28746 -0.03594
C9E C 0.69962 -0.12076 0.01112
C8E C 0.63686 0.01805 0.03008
H7E H 0.66038 0.12572 0.06967
H8E H 0.61202 0.06393 -0.02745
H9E H 0.73906 -0.06482 -0.03050
H10E H 0.72230 -0.15622 0.07283
H3E H 0.60014 -0.48915 -0.02309
H4E H 0.63769 -0.41601 0.08048
H5E H 0.52511 -0.19436 -0.02617
H6E H 0.51266 -0.28922 0.07805
loop_
_geom_bond_atom_site_label_1
_geom_bond_atom_site_label_2
_geom_bond_site_symmetry_1
_geom_bond_site_symmetry_2
N1 N2 1_555 1_555
N2 C1 1_555 1_555
C1 C2 1_555 1_555
C2 C3 1_555 1_555
C3 N1 1_555 1_555
C4 C1 1_555 1_555
O1 C4 1_555 1_555
O2 C4 1_555 1_555
N3 C2 1_555 1_555
O3 N3 1_555 1_555
C5 C3 1_555 1_555
O4 C5 1_555 1_555
O5 C5 1_555 1_555
O6 C6 1_555 1_555
C6 C7 1_555 1_555
C7 O7 1_555 1_555
O7 C8 1_555 1_555
C8 C9 1_555 1_555
C9 O6 1_555 1_555
Na1 N2 1_555 1_555
H1 N1 1_555 1_555
H2 O5 1_555 1_555
H3 C6 1_555 1_555
H4 C6 1_555 1_555
H5 C7 1_555 1_555
H6 C7 1_555 1_555
H7 C8 1_555 1_555
H8 C8 1_555 1_555
H9 C9 1_555 1_555
H10 C9 1_555 1_555
Na1B O4 1_555 1_555
Na1_2 O1 1_555 1_555
O3E N3 1_555 1_555
O1_2 Na1 1_555 1_555
O4B Na1 1_555 1_555
O7E Na1 1_555 1_555
C7E O7E 1_555 1_555
C6E C7E 1_555 1_555
O6E C6E 1_555 1_555
C9E O6E 1_555 1_555
C8E O7E 1_555 1_555
H7E C8E 1_555 1_555
H8E C8E 1_555 1_555
H9E C9E 1_555 1_555
H10E C9E 1_555 1_555
H3E C6E 1_555 1_555
H4E C6E 1_555 1_555
H5E C7E 1_555 1_555
H6E C7E 1_555 1_555
O2 Na1 1_555 1_555
O7 Na1 1_555 1_555
C9E C8E 1_555 1_555

#END
