
#######################################################################
#
#                 Cambridge Crystallographic Data Centre
#                                CCDC 
#
#######################################################################
#
# If this CIF has been generated from an entry in the Cambridge 
# Structural Database, then it will include bibliographic, chemical, 
# crystal, experimental, refinement or atomic coordinate data resulting 
# from the CCDC's data processing and validation procedures.
#
#######################################################################

data_NOPXOH
_symmetry_cell_setting           cubic
_symmetry_space_group_name_H-M   'I a -3'
_symmetry_Int_Tables_number      206
_space_group_name_Hall           '-I 2b 2c 3'
loop_
_symmetry_equiv_pos_site_id
_symmetry_equiv_pos_as_xyz
1 x,y,z
2 z,x,y
3 y,z,x
4 -y,1/2-z,x
5 z,-x,1/2-y
6 1/2-y,z,-x
7 -z,1/2-x,y
8 1/2-z,x,-y
9 y,-z,1/2-x
10 -x,1/2-y,z
11 x,-y,1/2-z
12 1/2-x,y,-z
13 1/2+x,1/2+y,1/2+z
14 1/2+z,1/2+x,1/2+y
15 1/2+y,1/2+z,1/2+x
16 1/2-y,-z,1/2+x
17 1/2+z,1/2-x,-y
18 -y,1/2+z,1/2-x
19 1/2-z,-x,1/2+y
20 -z,1/2+x,1/2-y
21 1/2+y,1/2-z,-x
22 1/2-x,-y,1/2+z
23 1/2+x,1/2-y,-z
24 -x,1/2+y,1/2-z
25 -x,-y,-z
26 -z,-x,-y
27 -y,-z,-x
28 y,1/2+z,-x
29 -z,x,1/2+y
30 1/2+y,-z,x
31 z,1/2+x,-y
32 1/2+z,-x,y
33 -y,z,1/2+x
34 x,1/2+y,-z
35 -x,y,1/2+z
36 1/2+x,-y,z
37 1/2-x,1/2-y,1/2-z
38 1/2-z,1/2-x,1/2-y
39 1/2-y,1/2-z,1/2-x
40 1/2+y,z,1/2-x
41 1/2-z,1/2+x,y
42 y,1/2-z,1/2+x
43 1/2+z,x,1/2-y
44 z,1/2-x,1/2+y
45 1/2-y,1/2+z,x
46 1/2+x,y,1/2-z
47 1/2-x,1/2+y,z
48 x,1/2-y,1/2+z
_cell_length_a                   22.680(2)
_cell_length_b                   22.680(2)
_cell_length_c                   22.680(2)
_cell_angle_alpha                90
_cell_angle_beta                 90
_cell_angle_gamma                90
_cell_volume                     11666.2
loop_
_atom_site_label
_atom_site_type_symbol
_atom_site_fract_x
_atom_site_fract_y
_atom_site_fract_z
Mn1 Mn 0.24167(3) 0.68656(2) 0.62012(2)
C1 C 0.36281(17) 0.72988(16) 0.56189(17)
C2 C 0.36105(17) 0.72691(17) 0.67484(17)
C3 C 0.38312(17) 0.74911(17) 0.61668(17)
C4 C 0.38711(17) 0.75262(18) 0.50959(17)
C5 C 0.36553(17) 0.73397(17) 0.45053(18)
C6 C 0.43140(19) 0.79544(19) 0.51323(18)
H1 H 0.4479 0.8110 0.4780
C7 C 0.42756(19) 0.7919(2) 0.61781(18)
H2 H 0.4418 0.8053 0.6549
C8 C 0.4515(2) 0.8153(2) 0.56695(19)
H3 H 0.4813 0.8447 0.5690
O1 O 0.31861(12) 0.68955(12) 0.67642(12)
O2 O 0.38579(12) 0.74577(13) 0.71979(12)
O3 O 0.38781(12) 0.75705(12) 0.40588(12)
O4 O 0.31867(12) 0.68864(12) 0.55778(12)
O5 O 0.32427(12) 0.69473(12) 0.44908(12)
H4 H 0.312(2) 0.681(2) 0.520(2)
Mn1K Mn 0.25833(3) 0.68656(2) 0.37988(2)
Mn1S Mn 0.37988(2) 0.74167(3) 0.81344(2)
Mn1Y Mn 0.37988(2) 0.75833(3) 0.31344(2)
Mn1FA Mn 0.31344(2) 0.62012(2) 0.74167(3)
O1EA O 0.17642(12) 0.68139(12) 0.68955(12)
O2T O 0.24577(13) 0.78021(12) 0.61421(12)
O3Z O 0.24295(12) 0.59412(12) 0.61219(12)
O5K O 0.17573(12) 0.69473(12) 0.55092(12)
O6 O 0.4198(11) 0.5546(15) 0.5417(16)
loop_
_geom_bond_atom_site_label_1
_geom_bond_atom_site_label_2
_geom_bond_site_symmetry_1
_geom_bond_site_symmetry_2
Mn1 O1 1_555 1_555
C1 C3 1_555 1_555
C2 C3 1_555 1_555
C3 C7 1_555 1_555
C4 C1 1_555 1_555
C5 C4 1_555 1_555
C6 C4 1_555 1_555
H1 C6 1_555 1_555
C7 H2 1_555 1_555
C8 C6 1_555 1_555
H3 C8 1_555 1_555
O1 C2 1_555 1_555
O2 C2 1_555 1_555
O3 C5 1_555 1_555
O4 Mn1 1_555 1_555
O5 C5 1_555 1_555
H4 O4 1_555 1_555
Mn1K O5 1_555 1_555
Mn1S O2 1_555 1_555
Mn1Y O3 1_555 1_555
Mn1FA O1 1_555 1_555
O1EA Mn1 1_555 1_555
O2T Mn1 1_555 1_555
O3Z Mn1 1_555 1_555
O5K Mn1 1_555 1_555
C1 O4 1_555 1_555
C7 C8 1_555 1_555

#END
