
#######################################################################
#
#                 Cambridge Crystallographic Data Centre
#                                CCDC 
#
#######################################################################
#
# If this CIF has been generated from an entry in the Cambridge 
# Structural Database, then it will include bibliographic, chemical, 
# crystal, experimental, refinement or atomic coordinate data resulting 
# from the CCDC's data processing and validation procedures.
#
#######################################################################

data_NOPYAS
_symmetry_cell_setting           monoclinic
_symmetry_space_group_name_H-M   'C 2/c'
_symmetry_Int_Tables_number      15
_space_group_name_Hall           '-C 2yn'
loop_
_symmetry_equiv_pos_site_id
_symmetry_equiv_pos_as_xyz
1 x,y,z
2 -x,y,1/2-z
3 1/2+x,1/2+y,z
4 1/2-x,1/2+y,1/2-z
5 -x,-y,-z
6 x,-y,1/2+z
7 1/2-x,1/2-y,-z
8 1/2+x,1/2-y,1/2+z
_cell_length_a                   20.821(3)
_cell_length_b                   9.232(6)
_cell_length_c                   14.349(3)
_cell_angle_alpha                90
_cell_angle_beta                 93.09(1)
_cell_angle_gamma                90
_cell_volume                     2754.15
loop_
_atom_site_label
_atom_site_type_symbol
_atom_site_fract_x
_atom_site_fract_y
_atom_site_fract_z
Cl1 Cl 1.0000 0.0000 0.50000
O1 O 0.9333 0.0390 0.5287
O2 O 0.9654 -0.0931 0.4313
O3 O 0.9876 0.1370 0.4787
O4 O 1.0058 0.0336 0.4063
O5 O 1.0020 0.0999 0.4340
O1D O 1.0667 -0.0390 0.4713
O3D O 1.0124 -0.1370 0.5213
O4D O 0.9942 -0.0336 0.5937
O2D O 1.0346 0.0931 0.5687
O5D O 0.9980 -0.0999 0.5660
Cu1 Cu 0.50000 0.1872(1) 0.75000
S1 S 0.46389(5) 0.0833(1) 0.61027(8)
S2 S 0.40717(6) 0.3237(1) 0.76247(9)
S3 S 0.34425(6) 0.1443(2) 0.49263(9)
S4 S 0.29318(6) 0.3509(2) 0.6267(1)
C1 C 0.3895(2) 0.1726(5) 0.5976(3)
C2 C 0.3663(2) 0.2659(5) 0.6585(3)
C3 C 0.2783(2) 0.2483(6) 0.5248(3)
C4 C 0.3867(4) -0.2900(8) 0.7264(6)
C5 C 0.4026(3) -0.1304(7) 0.7120(4)
C6 C 0.4379(3) -0.1030(5) 0.6253(4)
C7 C 0.2874(5) 0.419(1) 0.8903(8)
C8 C 0.2982(4) 0.267(1) 0.8692(6)
C9 C 0.3645(3) 0.2262(7) 0.8534(4)
H1 H 0.4712 -0.1857 0.6270
H2 H 0.4205 -0.1289 0.5634
H3 H 0.3720 -0.1054 0.7080
H4 H 0.4259 -0.1041 0.7743
H5 H 0.3591 0.1257 0.8516
H6 H 0.3943 0.2841 0.9010
H7 H 0.3628 -0.3096 0.7749
H8 H 0.3589 -0.3208 0.6668
H9 H 0.4236 -0.3493 0.7225
H10 H 0.3066 0.4422 0.9418
H11 H 0.2959 0.4718 0.8357
H12 H 0.2386 0.4249 0.8935
H13 H 0.2824 0.2138 0.9185
H14 H 0.2719 0.2435 0.8123
S1A S 0.53611(5) 0.0833(1) 0.88973(8)
S2A S 0.59283(6) 0.3237(1) 0.73753(9)
C3F C 0.2217(2) 0.2517(6) 0.4752(3)
S3F S 0.15575(6) 0.3557(2) 0.50737(9)
C1F C 0.1105(2) 0.3274(5) 0.4024(3)
S1F S 0.03611(5) 0.4167(1) 0.38973(8)
Cu1F Cu 0.00000 0.3128(1) 0.25000
C6F C 0.0621(3) 0.6030(5) 0.3747(4)
C5F C 0.0974(3) 0.6304(7) 0.2880(4)
C4F C 0.1133(4) 0.7900(8) 0.2736(6)
H7F H 0.1372 0.8096 0.2251
H8F H 0.1411 0.8208 0.3332
H9F H 0.0764 0.8493 0.2775
H3F H 0.1280 0.6054 0.2920
H4F H 0.0741 0.6041 0.2257
H1F H 0.0288 0.6857 0.3730
H2F H 0.0795 0.6289 0.4366
C2F C 0.1337(2) 0.2341(5) 0.3415(3)
S2F S 0.09283(6) 0.1763(1) 0.23753(9)
C9F C 0.1355(3) 0.2738(7) 0.1466(4)
C8F C 0.2018(4) 0.233(1) 0.1308(6)
C7F C 0.2126(5) 0.081(1) 0.1097(8)
H10F H 0.1934 0.0578 0.0582
H11F H 0.2041 0.0282 0.1643
H12F H 0.2614 0.0751 0.1065
H13F H 0.2176 0.2862 0.0815
H14F H 0.2281 0.2565 0.1877
H5F H 0.1409 0.3743 0.1484
H6F H 0.1057 0.2159 0.0990
S4F S 0.20682(6) 0.1491(2) 0.3733(1)
loop_
_geom_bond_atom_site_label_1
_geom_bond_atom_site_label_2
_geom_bond_site_symmetry_1
_geom_bond_site_symmetry_2
Cu1 S1 1_555 1_555
Cl1 O1 1_555 1_555
S1 C1 1_555 1_555
S2 Cu1 1_555 1_555
S3 C1 1_555 1_555
S4 C2 1_555 1_555
O1 O3 1_555 1_555
O2 Cl1 1_555 1_555
O3 Cl1 1_555 1_555
O4 Cl1 1_555 1_555
O5 Cl1 1_555 1_555
C1 C2 1_555 1_555
C2 S2 1_555 1_555
C3 S3 1_555 1_555
C4 C5 1_555 1_555
C5 C6 1_555 1_555
C6 S1 1_555 1_555
C7 C8 1_555 1_555
C8 C9 1_555 1_555
C9 S2 1_555 1_555
H1 C6 1_555 1_555
H2 C6 1_555 1_555
H3 C5 1_555 1_555
H4 C5 1_555 1_555
H5 C9 1_555 1_555
H6 C9 1_555 1_555
H7 C4 1_555 1_555
H8 C4 1_555 1_555
H9 C4 1_555 1_555
H10 C7 1_555 1_555
H11 C7 1_555 1_555
H12 C7 1_555 1_555
H13 C8 1_555 1_555
H14 C8 1_555 1_555
S1A Cu1 1_555 1_555
S2A Cu1 1_555 1_555
C3F C3 1_555 1_555
S3F C3F 1_555 1_555
C1F S3F 1_555 1_555
S1F C1F 1_555 1_555
Cu1F S1F 1_555 1_555
C6F S1F 1_555 1_555
C5F C6F 1_555 1_555
C4F C5F 1_555 1_555
H7F C4F 1_555 1_555
H8F C4F 1_555 1_555
H9F C4F 1_555 1_555
H3F C5F 1_555 1_555
H4F C5F 1_555 1_555
H1F C6F 1_555 1_555
H2F C6F 1_555 1_555
C2F C1F 1_555 1_555
S2F Cu1F 1_555 1_555
C9F S2F 1_555 1_555
C8F C9F 1_555 1_555
C7F C8F 1_555 1_555
H10F C7F 1_555 1_555
H11F C7F 1_555 1_555
H12F C7F 1_555 1_555
H13F C8F 1_555 1_555
H14F C8F 1_555 1_555
H5F C9F 1_555 1_555
H6F C9F 1_555 1_555
S4F C3F 1_555 1_555
O1D Cl1 1_555 1_555
O3D Cl1 1_555 1_555
O4D Cl1 1_555 1_555
O2D Cl1 1_555 1_555
O5D Cl1 1_555 1_555
S4 C3 1_555 1_555
O1 O4D 1_555 1_555
O2 O3D 1_555 1_555
O2 O4 1_555 1_555
O3 O4 1_555 1_555
O3 O2D 1_555 1_555
O3 O5 1_555 1_555
O4 O5 1_555 1_555
O4 O1D 1_555 1_555
C2F S2F 1_555 1_555
C2F S4F 1_555 1_555
O1D O3D 1_555 1_555
O3D O4D 1_555 1_555
O3D O5D 1_555 1_555
O4D O5D 1_555 1_555
O4D O2D 1_555 1_555

#END
