
#######################################################################
#
#                 Cambridge Crystallographic Data Centre
#                                CCDC 
#
#######################################################################
#
# If this CIF has been generated from an entry in the Cambridge 
# Structural Database, then it will include bibliographic, chemical, 
# crystal, experimental, refinement or atomic coordinate data resulting 
# from the CCDC's data processing and validation procedures.
#
#######################################################################

data_NOQBUS
_symmetry_cell_setting           triclinic
_symmetry_space_group_name_H-M   'P -1'
_symmetry_Int_Tables_number      2
_space_group_name_Hall           '-P 1'
loop_
_symmetry_equiv_pos_site_id
_symmetry_equiv_pos_as_xyz
1 x,y,z
2 -x,-y,-z
_cell_length_a                   7.8772(7)
_cell_length_b                   10.1856(9)
_cell_length_c                   10.5138(9)
_cell_angle_alpha                91.923(2)
_cell_angle_beta                 99.969(2)
_cell_angle_gamma                92.377(2)
_cell_volume                     829.401
loop_
_atom_site_label
_atom_site_type_symbol
_atom_site_fract_x
_atom_site_fract_y
_atom_site_fract_z
Co1 Co 0.5000 0.5000 0.5000
O1 O 0.4678(2) 0.59855(15) 0.66941(14)
H1 H 0.3777 0.6289 0.6913
H2 H 0.5072 0.5427 0.7238
O2 O 0.2298(2) 0.44204(15) 0.45306(16)
O3 O 0.4334(2) 0.67175(14) 0.39967(14)
O4 O 0.3782(2) 0.59638(15) 0.19396(15)
O5 O 0.3696(2) 0.65452(16) -0.04420(15)
H3 H 0.3618 0.6371 0.0302
O6 O 0.1913(2) 0.6846(2) -0.22502(16)
N1 N 0.1633(2) 0.32091(17) 0.45918(17)
C1 C 0.0176(3) 0.3034(2) 0.5090(2)
H4 H -0.0377 0.3762 0.5346
C2 C -0.0497(3) 0.1792(2) 0.5220(2)
H5 H -0.1514 0.1693 0.5551
C3 C 0.0303(3) 0.0676(2) 0.4871(2)
C4 C 0.1718(3) 0.0912(2) 0.4264(2)
H6 H 0.2244 0.0202 0.3944
C5 C 0.2358(3) 0.2162(2) 0.4127(2)
H7 H 0.3299 0.2288 0.3710
C6 C 0.3988(3) 0.6873(2) 0.2803(2)
C7 C 0.3897(3) 0.8259(2) 0.2344(2)
C8 C 0.5242(3) 0.9140(2) 0.2869(2)
H8 H 0.6067 0.8890 0.3550
C9 C 0.5378(3) 1.0383(2) 0.2400(3)
H9 H 0.6295 1.0962 0.2757
C10 C 0.4155(3) 1.0758(2) 0.1407(3)
H10 H 0.4249 1.1587 0.1075
C11 C 0.2775(3) 0.9899(2) 0.0897(2)
H11 H 0.1933 1.0173 0.0240
C12 C 0.2622(3) 0.8637(2) 0.1343(2)
C13 C 0.1023(3) 0.7799(2) 0.0832(2)
C14 C 0.0766(3) 0.7025(2) -0.0316(2)
C15 C 0.2170(3) 0.6810(2) -0.1075(2)
C16 C -0.0820(3) 0.6380(2) -0.0771(2)
H12 H -0.0991 0.5895 -0.1552
C17 C -0.2141(3) 0.6453(2) -0.0075(2)
H13 H -0.3188 0.5993 -0.0367
C18 C -0.1910(3) 0.7208(3) 0.1056(3)
H14 H -0.2800 0.7257 0.1530
C19 C -0.0358(3) 0.7893(3) 0.1489(2)
H15 H -0.0233 0.8429 0.2236
O2A O -0.2298(2) -0.44204(15) 0.54694(16)
N1A N -0.1633(2) -0.32091(17) 0.54082(17)
C1A C -0.0176(3) -0.3034(2) 0.4910(2)
H4A H 0.0377 -0.3762 0.4654
C2A C 0.0497(3) -0.1792(2) 0.4780(2)
H5A H 0.1514 -0.1693 0.4449
C3A C -0.0303(3) -0.0676(2) 0.5129(2)
C4A C -0.1718(3) -0.0912(2) 0.5736(2)
H6A H -0.2244 -0.0202 0.6056
C5A C -0.2358(3) -0.2162(2) 0.5873(2)
H7A H -0.3299 -0.2288 0.6290
O3A O 0.5666(2) 0.32825(14) 0.60033(14)
O4A O 0.6218(2) 0.40362(15) 0.80604(15)
O5A O 0.6304(2) 0.34548(16) 1.04420(15)
H3A H 0.6382 0.3629 0.9698
O6A O 0.8087(2) 0.3154(2) 1.22502(16)
C6A C 0.6012(3) 0.3127(2) 0.7197(2)
C7A C 0.6103(3) 0.1741(2) 0.7656(2)
C8A C 0.4758(3) 0.0860(2) 0.7131(2)
H8A H 0.3933 0.1110 0.6450
C9A C 0.4622(3) -0.0383(2) 0.7600(3)
H9A H 0.3705 -0.0962 0.7243
C10A C 0.5845(3) -0.0758(2) 0.8593(3)
H10A H 0.5751 -0.1587 0.8925
C11A C 0.7225(3) 0.0101(2) 0.9103(2)
H11A H 0.8067 -0.0173 0.9760
C12A C 0.7378(3) 0.1363(2) 0.8657(2)
C13A C 0.8977(3) 0.2201(2) 0.9168(2)
C14A C 0.9234(3) 0.2975(2) 1.0316(2)
C15A C 0.7830(3) 0.3190(2) 1.1075(2)
C16A C 1.0820(3) 0.3620(2) 1.0771(2)
H12A H 1.0991 0.4105 1.1552
C17A C 1.2141(3) 0.3547(2) 1.0075(2)
H13A H 1.3188 0.4007 1.0367
C18A C 1.1910(3) 0.2792(3) 0.8944(3)
H14A H 1.2800 0.2743 0.8470
C19A C 1.0358(3) 0.2107(3) 0.8511(2)
H15A H 1.0233 0.1571 0.7764
O1A O 0.5322(2) 0.40145(15) 0.33059(14)
H1A H 0.6223 0.3711 0.3087
H2A H 0.4928 0.4573 0.2762
Co1_2 Co -0.5000 -0.5000 0.5000
O2A_2 O 0.7702(2) 0.55796(15) 0.54694(16)
loop_
_geom_bond_atom_site_label_1
_geom_bond_atom_site_label_2
_geom_bond_site_symmetry_1
_geom_bond_site_symmetry_2
Co1 O1 1_555 1_555
O1 H1 1_555 1_555
H2 O1 1_555 1_555
O2 Co1 1_555 1_555
O3 Co1 1_555 1_555
O4 C6 1_555 1_555
O5 H3 1_555 1_555
O6 C15 1_555 1_555
N1 O2 1_555 1_555
C1 N1 1_555 1_555
H4 C1 1_555 1_555
C2 C1 1_555 1_555
H5 C2 1_555 1_555
C3 C2 1_555 1_555
C4 C3 1_555 1_555
H6 C4 1_555 1_555
C5 N1 1_555 1_555
H7 C5 1_555 1_555
C6 O3 1_555 1_555
C7 C6 1_555 1_555
C8 C7 1_555 1_555
H8 C8 1_555 1_555
C9 C8 1_555 1_555
H9 C9 1_555 1_555
C10 C9 1_555 1_555
H10 C10 1_555 1_555
C11 C10 1_555 1_555
H11 C11 1_555 1_555
C12 C7 1_555 1_555
C13 C12 1_555 1_555
C14 C13 1_555 1_555
C15 O5 1_555 1_555
C16 C14 1_555 1_555
H12 C16 1_555 1_555
C17 C16 1_555 1_555
H13 C17 1_555 1_555
C18 C17 1_555 1_555
H14 C18 1_555 1_555
C19 C13 1_555 1_555
H15 C19 1_555 1_555
O2A N1A 1_555 1_555
N1A C1A 1_555 1_555
C1A H4A 1_555 1_555
C2A C1A 1_555 1_555
H5A C2A 1_555 1_555
C3A C3 1_555 1_555
C4A C3A 1_555 1_555
H6A C4A 1_555 1_555
C5A N1A 1_555 1_555
H7A C5A 1_555 1_555
O3A Co1 1_555 1_555
O4A C6A 1_555 1_555
O5A H3A 1_555 1_555
O6A C15A 1_555 1_555
C6A O3A 1_555 1_555
C7A C6A 1_555 1_555
C8A C7A 1_555 1_555
H8A C8A 1_555 1_555
C9A C8A 1_555 1_555
H9A C9A 1_555 1_555
C10A C9A 1_555 1_555
H10A C10A 1_555 1_555
C11A C10A 1_555 1_555
H11A C11A 1_555 1_555
C12A C7A 1_555 1_555
C13A C12A 1_555 1_555
C14A C13A 1_555 1_555
C15A O5A 1_555 1_555
C16A C14A 1_555 1_555
H12A C16A 1_555 1_555
C17A C16A 1_555 1_555
H13A C17A 1_555 1_555
C18A C17A 1_555 1_555
H14A C18A 1_555 1_555
C19A C13A 1_555 1_555
H15A C19A 1_555 1_555
O1A Co1 1_555 1_555
H1A O1A 1_555 1_555
H2A O1A 1_555 1_555
Co1_2 O2A 1_555 1_555
O2A_2 Co1 1_555 1_555
C4 C5 1_555 1_555
C11 C12 1_555 1_555
C14 C15 1_555 1_555
C18 C19 1_555 1_555
C2A C3A 1_555 1_555
C4A C5A 1_555 1_555
C11A C12A 1_555 1_555
C14A C15A 1_555 1_555
C18A C19A 1_555 1_555

#END
