
#######################################################################
#
#                 Cambridge Crystallographic Data Centre
#                                CCDC 
#
#######################################################################
#
# If this CIF has been generated from an entry in the Cambridge 
# Structural Database, then it will include bibliographic, chemical, 
# crystal, experimental, refinement or atomic coordinate data resulting 
# from the CCDC's data processing and validation procedures.
#
#######################################################################

data_NOQCED
_symmetry_cell_setting           monoclinic
_symmetry_space_group_name_H-M   'C 2/c'
_symmetry_Int_Tables_number      15
_space_group_name_Hall           '-C 2yn'
loop_
_symmetry_equiv_pos_site_id
_symmetry_equiv_pos_as_xyz
1 x,y,z
2 -x,y,1/2-z
3 1/2+x,1/2+y,z
4 1/2-x,1/2+y,1/2-z
5 -x,-y,-z
6 x,-y,1/2+z
7 1/2-x,1/2-y,-z
8 1/2+x,1/2-y,1/2+z
_cell_length_a                   10.1524(3)
_cell_length_b                   19.9761(6)
_cell_length_c                   7.4902(2)
_cell_angle_alpha                90
_cell_angle_beta                 94.091(2)
_cell_angle_gamma                90
_cell_volume                     1515.18
loop_
_atom_site_label
_atom_site_type_symbol
_atom_site_fract_x
_atom_site_fract_y
_atom_site_fract_z
Ca1 Ca 0.5000 0.08421(3) 0.2500
C1 C 0.2479(2) -0.10051(10) 0.2303(3)
C2 C 0.1452(2) -0.07855(10) 0.1176(3)
H1 H 0.1343 -0.0331 0.0939
C3 C 0.0565(2) -0.12548(11) 0.0379(3)
C4 C 0.0799(2) -0.19403(10) 0.0694(3)
H2 H 0.0248 -0.2260 0.0134
C5 C 0.1844(2) -0.21321(10) 0.1830(3)
C6 C 0.3471(2) -0.05660(11) 0.3361(3)
C7 C 0.2168(2) -0.28509(10) 0.2362(3)
N1 N 0.26390(17) -0.16653(8) 0.2599(2)
H3 H 0.3287 -0.1794 0.3320
O1 O 0.34398(17) 0.00392(8) 0.2990(3)
O2 O 0.42135(18) -0.08697(8) 0.4496(2)
O3 O 0.13960(16) -0.32872(8) 0.1770(2)
O4 O 0.31923(17) -0.29206(8) 0.3366(2)
O5 O -0.04744(16) -0.10353(8) -0.0610(2)
H4 H -0.0494 -0.0625 -0.0573
C1A C 0.7521(2) -0.10051(10) 0.2697(3)
C2A C 0.8548(2) -0.07855(10) 0.3824(3)
H1A H 0.8657 -0.0331 0.4061
C3A C 0.9435(2) -0.12548(11) 0.4621(3)
C4A C 0.9201(2) -0.19403(10) 0.4306(3)
H2A H 0.9752 -0.2260 0.4866
C5A C 0.8156(2) -0.21321(10) 0.3170(3)
C6A C 0.6529(2) -0.05660(11) 0.1639(3)
C7A C 0.7832(2) -0.28509(10) 0.2638(3)
N1A N 0.73610(17) -0.16653(8) 0.2401(2)
H3A H 0.6713 -0.1794 0.1680
O1A O 0.65602(17) 0.00392(8) 0.2010(3)
O2A O 0.57865(18) -0.08697(8) 0.0504(2)
O3A O 0.86040(16) -0.32872(8) 0.3230(2)
O4A O 0.68077(17) -0.29206(8) 0.1634(2)
O5A O 1.04744(16) -0.10353(8) 0.5610(2)
H4A H 1.0494 -0.0625 0.5573
Ca1B Ca 0.0000 -0.41579(3) 0.2500
Ca1B_2 Ca 1.0000 -0.41579(3) 0.2500
Ca1D Ca 0.5000 -0.08421(3) -0.2500
Ca1D_2 Ca 0.5000 -0.08421(3) 0.7500
O2D O 0.57865(18) 0.08697(8) 0.5504(2)
O2E O 0.42135(18) 0.08697(8) -0.0504(2)
O3B O 0.63960(16) 0.17128(8) 0.1770(2)
O3C O 0.36040(16) 0.17128(8) 0.3230(2)
loop_
_geom_bond_atom_site_label_1
_geom_bond_atom_site_label_2
_geom_bond_site_symmetry_1
_geom_bond_site_symmetry_2
Ca1 O1 1_555 1_555
C1 C2 1_555 1_555
C2 H1 1_555 1_555
C3 C2 1_555 1_555
C4 C3 1_555 1_555
H2 C4 1_555 1_555
C5 C4 1_555 1_555
C6 C1 1_555 1_555
C7 C5 1_555 1_555
N1 C1 1_555 1_555
H3 N1 1_555 1_555
O1 C6 1_555 1_555
O2 C6 1_555 1_555
O3 C7 1_555 1_555
O4 C7 1_555 1_555
O5 C3 1_555 1_555
H4 O5 1_555 1_555
C1A C2A 1_555 1_555
C2A H1A 1_555 1_555
C3A C2A 1_555 1_555
C4A C3A 1_555 1_555
H2A C4A 1_555 1_555
C5A C4A 1_555 1_555
C6A C1A 1_555 1_555
C7A C5A 1_555 1_555
N1A C1A 1_555 1_555
H3A N1A 1_555 1_555
O1A Ca1 1_555 1_555
O2A C6A 1_555 1_555
O3A C7A 1_555 1_555
O4A C7A 1_555 1_555
O5A C3A 1_555 1_555
H4A O5A 1_555 1_555
Ca1B O3 1_555 1_555
Ca1B_2 O3A 1_555 1_555
Ca1D O2A 1_555 1_555
Ca1D_2 O2 1_555 1_555
O2D Ca1 1_555 1_555
O2E Ca1 1_555 1_555
O3B Ca1 1_555 1_555
O3C Ca1 1_555 1_555
C5 N1 1_555 1_555
C5A N1A 1_555 1_555
C6A O1A 1_555 1_555

#END
