
#######################################################################
#
#                 Cambridge Crystallographic Data Centre
#                                CCDC 
#
#######################################################################
#
# If this CIF has been generated from an entry in the Cambridge 
# Structural Database, then it will include bibliographic, chemical, 
# crystal, experimental, refinement or atomic coordinate data resulting 
# from the CCDC's data processing and validation procedures.
#
#######################################################################

data_NOQDII
_symmetry_cell_setting           monoclinic
_symmetry_space_group_name_H-M   'C c'
_symmetry_Int_Tables_number      9
_space_group_name_Hall           'C -2yc'
loop_
_symmetry_equiv_pos_site_id
_symmetry_equiv_pos_as_xyz
1 x,y,z
2 x,-y,1/2+z
3 1/2+x,1/2+y,z
4 1/2+x,1/2-y,1/2+z
_cell_length_a                   9.6032(7)
_cell_length_b                   13.8227(7)
_cell_length_c                   20.8152(14)
_cell_angle_alpha                90
_cell_angle_beta                 93.9550(10)
_cell_angle_gamma                90
_cell_volume                     2756.47
loop_
_atom_site_label
_atom_site_type_symbol
_atom_site_fract_x
_atom_site_fract_y
_atom_site_fract_z
Cd1 Cd 0.62533(2) -0.127082(14) 0.781050(17)
N1 N 0.6396(3) -0.04672(19) 0.68523(15)
C1 C 0.7586(4) -0.0002(3) 0.67498(19)
H1 H 0.8373 -0.0115 0.7025
S1 S 0.12647(12) -0.26444(6) 0.79096(6)
O1 O 0.5304(2) -0.26478(17) 0.82175(14)
N2 N 0.8897(3) 0.1200(2) 0.61431(17)
H2 H 0.8834 0.1622 0.5839
C2 C 0.7676(4) 0.0652(3) 0.6236(2)
O2 O 0.4044(2) -0.19772(19) 0.74139(13)
N3 N 1.0957(3) 0.23559(19) 0.57563(14)
C3 C 0.6529(4) 0.0777(3) 0.5816(2)
H3 H 0.6562 0.1192 0.5466
O3 O -0.2160(4) -0.1019(4) 0.8673(3)
N4 N 1.0330(3) 0.3513(2) 0.47281(15)
H4 H 0.9749 0.3196 0.4944
C4 C 0.5314(4) 0.0271(3) 0.5922(2)
H5 H 0.4526 0.0340 0.5640
O4 O -0.1307(3) -0.1657(3) 0.78355(15)
O5 O 1.0416(3) 0.0539(2) 0.69128(17)
N5 N 0.9946(3) 0.51142(19) 0.33105(15)
C5 C 0.5289(4) -0.0335(3) 0.6447(2)
H6 H 0.4467 -0.0661 0.6519
O6 O 1.2636(3) 0.3937(2) 0.47136(14)
C6 C 1.0146(4) 0.1130(3) 0.6480(2)
N6 N 0.2637(3) -0.1801(2) 0.89047(15)
C7 C 1.1257(4) 0.1809(2) 0.62822(18)
C8 C 1.2518(4) 0.1847(3) 0.6640(2)
H7 H 1.2671 0.1472 0.7010
C9 C 1.3551(4) 0.2450(3) 0.6442(2)
H8 H 1.4411 0.2488 0.6675
C10 C 1.3284(4) 0.2993(3) 0.58924(18)
H9 H 1.3969 0.3395 0.5743
C11 C 1.1980(3) 0.2935(2) 0.55641(17)
C12 C 1.1678(4) 0.3509(2) 0.49642(18)
C13 C 0.9773(3) 0.3981(3) 0.41654(18)
C14 C 1.0479(4) 0.4696(3) 0.38514(18)
H10 H 1.1354 0.4891 0.4023
C15 C 0.8670(4) 0.4849(2) 0.30699(18)
H11 H 0.8291 0.5145 0.2696
C16 C 0.7907(4) 0.4152(3) 0.33604(19)
H12 H 0.7016 0.3994 0.3189
C17 C 0.8461(4) 0.3690(2) 0.39035(19)
H13 H 0.7975 0.3195 0.4092
C18 C 0.4168(3) -0.2567(2) 0.78690(18)
C19 C 0.2950(3) -0.3212(2) 0.8014(2)
H14 H 0.3089 -0.3437 0.8455
H15 H 0.2953 -0.3775 0.7735
C20 C 0.1393(3) -0.1837(2) 0.85725(17)
C21 C 0.2780(4) -0.1210(3) 0.9416(2)
H16 H 0.3645 -0.1181 0.9645
C22 C 0.1722(4) -0.0648(3) 0.9621(2)
H17 H 0.1864 -0.0243 0.9976
C23 C 0.0438(4) -0.0705(3) 0.9281(2)
H18 H -0.0310 -0.0347 0.9415
C24 C 0.0262(5) -0.1289(2) 0.8744(2)
C25 C -0.1144(4) -0.1317(3) 0.8383(3)
Cd1_2 Cd -0.37467(2) -0.127082(14) 0.781050(17)
Cd1C Cd 1.12533(2) 0.627082(14) 0.281050(17)
O3_2 O 0.7840(4) -0.1019(4) 0.8673(3)
O4_2 O 0.8693(3) -0.1657(3) 0.78355(15)
N5C N 0.4946(3) -0.01142(19) 0.83105(15)
O7 O 0.7730(3) 0.2966(2) 0.53929(15)
H19 H 0.6918 0.2907 0.5528
H20 H 0.7758 0.3504 0.5197
O8 O 0.1896(4) -0.1237(3) 0.6536(2)
H21 H 0.2480 -0.1435 0.6832
H22 H 0.1421 -0.0786 0.6692
O9 O 0.5352(4) 0.2951(3) 0.45639(19)
H23 H 0.5027 0.2551 0.4282
H24 H 0.4941 0.3489 0.4493
loop_
_geom_bond_atom_site_label_1
_geom_bond_atom_site_label_2
_geom_bond_site_symmetry_1
_geom_bond_site_symmetry_2
Cd1 N1 1_555 1_555
N1 C1 1_555 1_555
C1 H1 1_555 1_555
S1 C19 1_555 1_555
O1 Cd1 1_555 1_555
N2 H2 1_555 1_555
C2 C1 1_555 1_555
O2 Cd1 1_555 1_555
N3 C7 1_555 1_555
C3 C2 1_555 1_555
H3 C3 1_555 1_555
O3 C25 1_555 1_555
N4 H4 1_555 1_555
C4 C3 1_555 1_555
H5 C4 1_555 1_555
O4 C25 1_555 1_555
O5 C6 1_555 1_555
N5 C14 1_555 1_555
C5 N1 1_555 1_555
H6 C5 1_555 1_555
O6 C12 1_555 1_555
C6 N2 1_555 1_555
N6 C20 1_555 1_555
C7 C6 1_555 1_555
C8 C7 1_555 1_555
H7 C8 1_555 1_555
C9 C8 1_555 1_555
H8 C9 1_555 1_555
C10 C9 1_555 1_555
H9 C10 1_555 1_555
C11 N3 1_555 1_555
C12 N4 1_555 1_555
C13 N4 1_555 1_555
C14 C13 1_555 1_555
H10 C14 1_555 1_555
C15 N5 1_555 1_555
H11 C15 1_555 1_555
C16 C15 1_555 1_555
H12 C16 1_555 1_555
C17 C13 1_555 1_555
H13 C17 1_555 1_555
C18 O1 1_555 1_555
C19 C18 1_555 1_555
H14 C19 1_555 1_555
H15 C19 1_555 1_555
C20 S1 1_555 1_555
C21 N6 1_555 1_555
H16 C21 1_555 1_555
C22 C21 1_555 1_555
H17 C22 1_555 1_555
C23 C22 1_555 1_555
H18 C23 1_555 1_555
C24 C20 1_555 1_555
C25 C24 1_555 1_555
O7 H19 1_555 1_555
H20 O7 1_555 1_555
O8 H21 1_555 1_555
H22 O8 1_555 1_555
O9 H23 1_555 1_555
H24 O9 1_555 1_555
Cd1_2 O3 1_555 1_555
Cd1C N5 1_555 1_555
O3_2 Cd1 1_555 1_555
O4_2 Cd1 1_555 1_555
N5C Cd1 1_555 1_555
N2 C2 1_555 1_555
O2 C18 1_555 1_555
C4 C5 1_555 1_555
O4 Cd1_2 1_555 1_555
C10 C11 1_555 1_555
C11 C12 1_555 1_555
C16 C17 1_555 1_555
C23 C24 1_555 1_555

#END
