
#######################################################################
#
#                 Cambridge Crystallographic Data Centre
#                                CCDC 
#
#######################################################################
#
# If this CIF has been generated from an entry in the Cambridge 
# Structural Database, then it will include bibliographic, chemical, 
# crystal, experimental, refinement or atomic coordinate data resulting 
# from the CCDC's data processing and validation procedures.
#
#######################################################################

data_NOQDEE
_symmetry_cell_setting           monoclinic
_symmetry_space_group_name_H-M   'C c'
_symmetry_Int_Tables_number      9
_space_group_name_Hall           'C -2yc'
loop_
_symmetry_equiv_pos_site_id
_symmetry_equiv_pos_as_xyz
1 x,y,z
2 x,-y,1/2+z
3 1/2+x,1/2+y,z
4 1/2+x,1/2-y,1/2+z
_cell_length_a                   9.5432(7)
_cell_length_b                   13.6601(10)
_cell_length_c                   20.9105(15)
_cell_angle_alpha                90
_cell_angle_beta                 92.7650(10)
_cell_angle_gamma                90
_cell_volume                     2722.74
loop_
_atom_site_label
_atom_site_type_symbol
_atom_site_fract_x
_atom_site_fract_y
_atom_site_fract_z
Zn1 Zn 0.52892(3) 0.60810(2) 0.559935(18)
S1 S -0.00334(8) 0.76979(6) 0.54948(4)
N1 N 0.5073(3) 0.54439(18) 0.64926(11)
C1 C 0.2537(3) 0.6336(2) 0.52196(15)
O1 O 0.3564(3) 0.57863(19) 0.50905(12)
O2 O 0.2578(3) 0.6891(2) 0.56769(12)
N2 N 0.2540(3) 0.38033(19) 0.72356(13)
H1 H 0.2612 0.3378 0.7539
C2 C 0.1261(4) 0.6265(2) 0.47795(16)
N3 N 0.0475(3) 0.26439(19) 0.76638(11)
O3 O -0.2749(3) 0.68956(17) 0.59834(11)
C3 C 0.1232(4) 0.5629(3) 0.42633(17)
H2 H 0.2016 0.5249 0.4189
N4 N 0.1106(3) 0.1487(2) 0.86856(12)
H3 H 0.1690 0.1792 0.8456
O4 O -0.4038(2) 0.73734(16) 0.51567(12)
C4 C 0.0048(4) 0.5553(3) 0.38568(17)
H4 H 0.0021 0.5131 0.3507
N5 N 0.1508(3) -0.00776(17) 1.01222(11)
C5 C -0.1083(4) 0.6123(2) 0.39898(17)
H5 H -0.1885 0.6071 0.3721
O5 O 0.1014(3) 0.4441(2) 0.64745(12)
O6 O -0.1201(2) 0.10517(18) 0.87223(10)
N6 N -0.1110(3) 0.67486(19) 0.44812(13)
C6 C 0.0041(3) 0.6825(2) 0.48643(14)
C7 C -0.1800(3) 0.8150(2) 0.53376(16)
H6 H -0.1922 0.8744 0.5583
H7 H -0.1922 0.8318 0.4888
C8 C -0.2923(4) 0.7424(2) 0.55027(16)
C9 C 0.3875(4) 0.4965(2) 0.66025(14)
H8 H 0.3105 0.5047 0.6317
C10 C 0.6157(4) 0.5363(2) 0.69141(16)
H9 H 0.6978 0.5703 0.6841
C11 C 0.6101(4) 0.4792(3) 0.74556(17)
H10 H 0.6870 0.4753 0.7745
C12 C 0.4887(4) 0.4277(3) 0.75621(16)
H11 H 0.4836 0.3883 0.7923
C13 C 0.3747(4) 0.4349(2) 0.71294(16)
C14 C 0.1275(4) 0.3865(2) 0.69191(16)
C15 C 0.0153(4) 0.3189(2) 0.71365(14)
C16 C -0.1121(4) 0.3158(2) 0.68116(15)
H12 H -0.1288 0.3546 0.6451
C17 C -0.2159(4) 0.2553(3) 0.70174(15)
H13 H -0.3029 0.2518 0.6799
C18 C -0.1865(3) 0.2000(2) 0.75601(14)
H14 H -0.2543 0.1589 0.7719
C19 C -0.0553(3) 0.2064(2) 0.78627(13)
C20 C -0.0239(3) 0.1480(2) 0.84675(14)
C21 C 0.1660(3) 0.1044(2) 0.92537(15)
C22 C 0.2968(4) 0.1351(2) 0.94991(14)
H15 H 0.3455 0.1839 0.9294
C23 C 0.3536(4) 0.0922(2) 1.00524(15)
H16 H 0.4415 0.1108 1.0222
C24 C 0.2769(3) 0.0212(2) 1.03466(15)
H17 H 0.3149 -0.0078 1.0718
C25 C 0.0970(3) 0.0323(2) 0.95799(13)
H18 H 0.0100 0.0109 0.9417
Zn1_2 Zn -0.47108(3) 0.60810(2) 0.559935(18)
Zn1C Zn 0.02892(3) -0.10810(2) 1.059935(18)
O3_2 O 0.7251(3) 0.68956(17) 0.59834(11)
O4_2 O 0.5962(2) 0.73734(16) 0.51567(12)
N5C N 0.6508(3) 0.50776(17) 0.51222(11)
O7 O -0.0441(4) 0.6244(3) 0.68580(17)
H19 H 0.007(6) 0.576(4) 0.669(3)
H20 H -0.071(5) 0.648(3) 0.653(2)
O8 O 0.3716(3) 0.2044(2) 0.80126(15)
H21 H 0.444(4) 0.212(3) 0.8289(18)
H22 H 0.388(6) 0.177(4) 0.765(3)
O9 O -0.3931(4) 0.7747(4) 0.38261(19)
H23 H -0.405(7) 0.763(4) 0.421(3)
H24 H -0.311(7) 0.786(5) 0.382(3)
loop_
_geom_bond_atom_site_label_1
_geom_bond_atom_site_label_2
_geom_bond_site_symmetry_1
_geom_bond_site_symmetry_2
Zn1 N1 1_555 1_555
S1 C6 1_555 1_555
N1 C9 1_555 1_555
C1 O1 1_555 1_555
O1 Zn1 1_555 1_555
O2 C1 1_555 1_555
N2 H1 1_555 1_555
C2 C1 1_555 1_555
N3 C15 1_555 1_555
O3 C8 1_555 1_555
C3 C2 1_555 1_555
H2 C3 1_555 1_555
N4 H3 1_555 1_555
O4 C8 1_555 1_555
C4 C3 1_555 1_555
H4 C4 1_555 1_555
N5 C24 1_555 1_555
C5 C4 1_555 1_555
H5 C5 1_555 1_555
O5 C14 1_555 1_555
O6 C20 1_555 1_555
N6 C5 1_555 1_555
C6 C2 1_555 1_555
C7 S1 1_555 1_555
H6 C7 1_555 1_555
H7 C7 1_555 1_555
C8 C7 1_555 1_555
C9 H8 1_555 1_555
C10 N1 1_555 1_555
H9 C10 1_555 1_555
C11 C10 1_555 1_555
H10 C11 1_555 1_555
C12 C11 1_555 1_555
H11 C12 1_555 1_555
C13 N2 1_555 1_555
C14 N2 1_555 1_555
C15 C14 1_555 1_555
C16 C15 1_555 1_555
H12 C16 1_555 1_555
C17 C16 1_555 1_555
H13 C17 1_555 1_555
C18 C17 1_555 1_555
H14 C18 1_555 1_555
C19 N3 1_555 1_555
C20 N4 1_555 1_555
C21 N4 1_555 1_555
C22 C21 1_555 1_555
H15 C22 1_555 1_555
C23 C22 1_555 1_555
H16 C23 1_555 1_555
C24 C23 1_555 1_555
H17 C24 1_555 1_555
C25 N5 1_555 1_555
H18 C25 1_555 1_555
O7 H19 1_555 1_555
H20 O7 1_555 1_555
O8 H21 1_555 1_555
H22 O8 1_555 1_555
O9 H23 1_555 1_555
H24 O9 1_555 1_555
Zn1_2 O3 1_555 1_555
Zn1C N5 1_555 1_555
O3_2 Zn1 1_555 1_555
O4_2 Zn1 1_555 1_555
N5C Zn1 1_555 1_555
O4 Zn1_2 1_555 1_555
N6 C6 1_555 1_555
C9 C13 1_555 1_555
C12 C13 1_555 1_555
C18 C19 1_555 1_555
C19 C20 1_555 1_555
C21 C25 1_555 1_555

#END
