
#######################################################################
#
#                 Cambridge Crystallographic Data Centre
#                                CCDC 
#
#######################################################################
#
# If this CIF has been generated from an entry in the Cambridge 
# Structural Database, then it will include bibliographic, chemical, 
# crystal, experimental, refinement or atomic coordinate data resulting 
# from the CCDC's data processing and validation procedures.
#
#######################################################################

data_NOQDAA
_symmetry_cell_setting           monoclinic
_symmetry_space_group_name_H-M   'P 21/c'
_symmetry_Int_Tables_number      14
_space_group_name_Hall           '-P 2ybc'
loop_
_symmetry_equiv_pos_site_id
_symmetry_equiv_pos_as_xyz
1 x,y,z
2 -x,1/2+y,1/2-z
3 -x,-y,-z
4 x,1/2-y,1/2+z
_cell_length_a                   7.736(5)
_cell_length_b                   10.654(5)
_cell_length_c                   23.558(5)
_cell_angle_alpha                90
_cell_angle_beta                 98.162(5)
_cell_angle_gamma                90
_cell_volume                     1921.97
loop_
_atom_site_label
_atom_site_type_symbol
_atom_site_fract_x
_atom_site_fract_y
_atom_site_fract_z
Zn1 Zn 0.74389(3) 1.24835(2) 0.398564(11)
O1 O 0.8735(2) 1.42122(16) 0.42773(8)
H1 H 0.8002 1.4756 0.4307
N1 N 0.8165(2) 1.17399(17) 0.48246(8)
C1 C 0.9113(3) 1.2294(2) 0.52718(11)
H2 H 0.9490 1.3114 0.5232
S1 S 0.72026(7) 1.05575(6) 0.18618(3)
O2 O 0.7083(2) 1.22405(18) 0.27754(7)
N2 N 0.6326(2) 1.06156(17) 0.39097(8)
C2 C 0.9561(3) 1.1689(3) 0.57977(11)
H3 H 1.0226 1.2105 0.6100
O3 O 0.9283(2) 1.22008(16) 0.34880(7)
N3 N 1.0552(2) 1.06746(18) 0.17051(8)
C3 C 0.9023(3) 1.0485(3) 0.58685(10)
H4 H 0.9319 1.0077 0.6218
O4 O 0.4439(2) 1.01105(16) 0.06903(7)
C4 C 0.8016(3) 0.9869(2) 0.54075(10)
O5 O 0.49173(19) 0.82876(15) 0.11573(7)
C5 C 0.7388(3) 0.8608(2) 0.54414(11)
H5 H 0.7642 0.8165 0.5783
C6 C 0.6435(3) 0.8058(2) 0.49851(12)
H6 H 0.6033 0.7242 0.5018
C7 C 0.6032(3) 0.8708(2) 0.44507(10)
C8 C 0.5057(3) 0.8175(2) 0.39597(11)
H7 H 0.4629 0.7361 0.3972
C9 C 0.4746(3) 0.8856(3) 0.34687(11)
H8 H 0.4094 0.8516 0.3143
C10 C 0.5415(3) 1.0073(2) 0.34578(10)
H9 H 0.5209 1.0524 0.3117
C11 C 0.6625(3) 0.9947(2) 0.44022(9)
C12 C 0.7630(3) 1.0540(2) 0.48910(9)
C13 C 0.8630(3) 1.2084(2) 0.29630(10)
C14 C 0.9904(3) 1.1712(2) 0.25623(9)
C15 C 1.1650(3) 1.2053(2) 0.26874(10)
H10 H 1.2032 1.2494 0.3023
C16 C 1.2824(3) 1.1747(3) 0.23204(10)
H11 H 1.3981 1.2008 0.2393
C17 C 1.2229(3) 1.1046(3) 0.18464(11)
H12 H 1.3028 1.0810 0.1606
C18 C 0.9409(3) 1.1022(2) 0.20542(9)
C19 C 0.7282(3) 0.9727(2) 0.11922(10)
H13 H 0.7721 1.0267 0.0914
H14 H 0.8025 0.8991 0.1254
C20 C 0.5374(3) 0.9347(2) 0.09874(9)
H15 H 0.917(4) 1.460(3) 0.3996(14)
Zn1A Zn 0.25611(3) 0.74835(2) 0.101436(11)
O5A O 0.50827(19) 1.32876(15) 0.38427(7)
loop_
_geom_bond_atom_site_label_1
_geom_bond_atom_site_label_2
_geom_bond_site_symmetry_1
_geom_bond_site_symmetry_2
Zn1 O1 1_555 1_555
O1 H1 1_555 1_555
N1 Zn1 1_555 1_555
C1 N1 1_555 1_555
H2 C1 1_555 1_555
S1 C18 1_555 1_555
O2 C13 1_555 1_555
N2 Zn1 1_555 1_555
C2 C1 1_555 1_555
H3 C2 1_555 1_555
O3 Zn1 1_555 1_555
N3 C17 1_555 1_555
C3 C2 1_555 1_555
H4 C3 1_555 1_555
O4 C20 1_555 1_555
C4 C3 1_555 1_555
O5 C20 1_555 1_555
C5 C4 1_555 1_555
H5 C5 1_555 1_555
C6 C5 1_555 1_555
H6 C6 1_555 1_555
C7 C6 1_555 1_555
C8 C7 1_555 1_555
H7 C8 1_555 1_555
C9 C8 1_555 1_555
H8 C9 1_555 1_555
C10 N2 1_555 1_555
H9 C10 1_555 1_555
C11 N2 1_555 1_555
C12 N1 1_555 1_555
C13 O3 1_555 1_555
C14 C13 1_555 1_555
C15 C14 1_555 1_555
H10 C15 1_555 1_555
C16 C15 1_555 1_555
H11 C16 1_555 1_555
C17 C16 1_555 1_555
H12 C17 1_555 1_555
C18 N3 1_555 1_555
C19 S1 1_555 1_555
H13 C19 1_555 1_555
H14 C19 1_555 1_555
C20 C19 1_555 1_555
H15 O1 1_555 1_555
Zn1A O5 1_555 1_555
O5A Zn1 1_555 1_555
C4 C12 1_555 1_555
C7 C11 1_555 1_555
C9 C10 1_555 1_555
C11 C12 1_555 1_555
C14 C18 1_555 1_555

#END
