
#######################################################################
#
#                 Cambridge Crystallographic Data Centre
#                                CCDC 
#
#######################################################################
#
# If this CIF has been generated from an entry in the Cambridge 
# Structural Database, then it will include bibliographic, chemical, 
# crystal, experimental, refinement or atomic coordinate data resulting 
# from the CCDC's data processing and validation procedures.
#
#######################################################################

data_NOQFAA
_symmetry_cell_setting           monoclinic
_symmetry_space_group_name_H-M   'P 21/c'
_symmetry_Int_Tables_number      14
_space_group_name_Hall           '-P 2ybc'
loop_
_symmetry_equiv_pos_site_id
_symmetry_equiv_pos_as_xyz
1 x,y,z
2 x,1/2-y,1/2+z
3 -x,-y,-z
4 -x,1/2+y,1/2-z
_cell_length_a                   9.6518(2)
_cell_length_b                   18.4585(4)
_cell_length_c                   17.7056(4)
_cell_angle_alpha                90
_cell_angle_beta                 95.2600(10)
_cell_angle_gamma                90
_cell_volume                     3141.11
loop_
_atom_site_label
_atom_site_type_symbol
_atom_site_fract_x
_atom_site_fract_y
_atom_site_fract_z
Ni1 Ni 0.30027(3) 0.103851(15) 0.203293(17)
V1 V 0.22373(4) 0.256397(19) 0.33308(2)
V2 V 0.16681(4) 0.386597(19) 0.18960(2)
V3 V 0.08865(4) 0.00604(2) 0.34759(2)
V4 V 0.16226(4) 0.142710(19) 0.47918(2)
C1 C 0.4880(3) 0.04044(14) 0.35415(16)
H1 H 0.4182 0.0064 0.3587
C2 C 0.6047(3) 0.04042(17) 0.41378(17)
H2 H 0.6083 0.0080 0.4541
C3 C 0.7073(3) 0.09013(18) 0.40717(18)
H3 H 0.7833 0.0928 0.4433
C4 C 0.6949(3) 0.14071(16) 0.34024(17)
C5 C 0.7968(3) 0.1948(2) 0.3264(2)
H4 H 0.8748 0.2001 0.3609
C6 C 0.7810(3) 0.24095(18) 0.2606(2)
H5 H 0.8501 0.2752 0.2552
C7 C 0.6604(3) 0.23799(15) 0.19940(19)
C8 C 0.6403(3) 0.28294(15) 0.1275(2)
H6 H 0.7067 0.3179 0.1193
C9 C 0.5240(3) 0.27446(16) 0.0714(2)
C10 C 0.4261(3) 0.22168(14) 0.08915(17)
H7 H 0.3479 0.2146 0.0552
C11 C 0.5574(2) 0.18577(13) 0.21148(15)
C12 C 0.5742(2) 0.13689(13) 0.28268(15)
C13 C 0.4307(3) -0.03197(14) 0.12845(18)
H8 H 0.4851 -0.0376 0.1742
C14 C 0.4462(3) -0.08305(15) 0.0638(2)
H9 H 0.5102 -0.1206 0.0717
C15 C 0.3665(3) -0.07790(15) -0.01185(19)
H10 H 0.3816 -0.1107 -0.0501
C16 C 0.2675(3) -0.02218(14) -0.02427(16)
C17 C 0.1743(3) -0.01385(16) -0.10017(16)
H11 H 0.1871 -0.0437 -0.1413
C18 C 0.0747(3) 0.03736(16) -0.10522(16)
H12 H 0.0163 0.0431 -0.1496
C19 C 0.0594(3) 0.08614(14) -0.03646(15)
C20 C -0.0440(3) 0.13967(15) -0.03757(18)
H13 H -0.1053 0.1475 -0.0804
C21 C -0.0515(3) 0.18297(15) 0.03178(19)
H14 H -0.1206 0.2181 0.0315
C22 C 0.0448(3) 0.17447(13) 0.10339(17)
H15 H 0.0344 0.2040 0.1451
C23 C 0.1516(2) 0.08100(12) 0.03781(14)
C24 C 0.2567(2) 0.02550(12) 0.04452(14)
N1 N 0.4717(2) 0.08734(11) 0.29038(12)
N2 N 0.4407(2) 0.17841(10) 0.15687(12)
N3 N 0.3387(2) 0.02118(10) 0.11953(12)
N4 N 0.1447(2) 0.12456(10) 0.10650(12)
O1 O 0.2302(2) 0.18560(9) 0.27124(11)
O2 O 0.1246(2) 0.32693(9) 0.27039(10)
O3 O 0.3796(2) 0.28180(13) 0.36085(16)
O4 O -0.07936(19) -0.03061(9) 0.30547(10)
O5 O 0.3290(2) 0.40240(11) 0.20084(13)
O6 O 0.1824(2) -0.05692(11) 0.39430(13)
O7 O 0.0580(2) 0.07747(10) 0.42535(12)
O8 O 0.3194(2) 0.11722(10) 0.47805(12)
O9 O 0.1421(2) 0.22713(10) 0.42794(11)
O10 O 0.1218(2) 0.34689(9) 0.08694(10)
O11 O 0.16985(19) 0.03868(10) 0.26817(11)
O4C O 0.07936(19) 0.46939(9) 0.19453(10)
O10A O 0.1218(2) 0.15311(9) 0.58694(10)
V2C V -0.16681(4) -0.113403(19) 0.31040(2)
V4A V 0.16226(4) 0.357290(19) -0.02082(2)
loop_
_geom_bond_atom_site_label_1
_geom_bond_atom_site_label_2
_geom_bond_site_symmetry_1
_geom_bond_site_symmetry_2
Ni1 N1 1_555 1_555
V1 O1 1_555 1_555
V2 O2 1_555 1_555
V3 O4 1_555 1_555
V4 O7 1_555 1_555
C1 H1 1_555 1_555
C2 C1 1_555 1_555
H2 C2 1_555 1_555
C3 C2 1_555 1_555
H3 C3 1_555 1_555
C4 C3 1_555 1_555
C5 C4 1_555 1_555
H4 C5 1_555 1_555
C6 C5 1_555 1_555
H5 C6 1_555 1_555
C7 C6 1_555 1_555
C8 C7 1_555 1_555
H6 C8 1_555 1_555
C9 C8 1_555 1_555
C10 C9 1_555 1_555
H7 C10 1_555 1_555
C11 C7 1_555 1_555
C12 C4 1_555 1_555
C13 H8 1_555 1_555
C14 C13 1_555 1_555
H9 C14 1_555 1_555
C15 C14 1_555 1_555
H10 C15 1_555 1_555
C16 C15 1_555 1_555
C17 C16 1_555 1_555
H11 C17 1_555 1_555
C18 C17 1_555 1_555
H12 C18 1_555 1_555
C19 C18 1_555 1_555
C20 C19 1_555 1_555
H13 C20 1_555 1_555
C21 C20 1_555 1_555
H14 C21 1_555 1_555
C22 C21 1_555 1_555
H15 C22 1_555 1_555
C23 C19 1_555 1_555
C24 C16 1_555 1_555
N1 C1 1_555 1_555
N2 Ni1 1_555 1_555
N3 Ni1 1_555 1_555
N4 Ni1 1_555 1_555
O1 Ni1 1_555 1_555
O2 V1 1_555 1_555
O3 V1 1_555 1_555
O4 V2C 1_555 1_555
O5 V2 1_555 1_555
O6 V3 1_555 1_555
O7 V3 1_555 1_555
O8 V4 1_555 1_555
O9 V1 1_555 1_555
O10 V2 1_555 1_555
O11 Ni1 1_555 1_555
O4C V2 1_555 1_555
O10A V4 1_555 1_555
V4A O10 1_555 1_555
V3 O11 1_555 1_555
V4 O9 1_555 1_555
C10 N2 1_555 1_555
C11 N2 1_555 1_555
C11 C12 1_555 1_555
C12 N1 1_555 1_555
C13 N3 1_555 1_555
C22 N4 1_555 1_555
C23 N4 1_555 1_555
C23 C24 1_555 1_555
C24 N3 1_555 1_555

#END
