
#######################################################################
#
#                 Cambridge Crystallographic Data Centre
#                                CCDC 
#
#######################################################################
#
# If this CIF has been generated from an entry in the Cambridge 
# Structural Database, then it will include bibliographic, chemical, 
# crystal, experimental, refinement or atomic coordinate data resulting 
# from the CCDC's data processing and validation procedures.
#
#######################################################################

data_NOQHUY
_symmetry_cell_setting           monoclinic
_symmetry_space_group_name_H-M   'C c'
_symmetry_Int_Tables_number      9
_space_group_name_Hall           'C -2yc'
loop_
_symmetry_equiv_pos_site_id
_symmetry_equiv_pos_as_xyz
1 x,y,z
2 x,-y,1/2+z
3 1/2+x,1/2+y,z
4 1/2+x,1/2-y,1/2+z
_cell_length_a                   10.5120(11)
_cell_length_b                   18.819(2)
_cell_length_c                   10.4991(10)
_cell_angle_alpha                90
_cell_angle_beta                 102.262(2)
_cell_angle_gamma                90
_cell_volume                     2029.6
loop_
_atom_site_label
_atom_site_type_symbol
_atom_site_fract_x
_atom_site_fract_y
_atom_site_fract_z
Zn1 Zn 0.33586(3) 0.199835(14) 0.70019(3)
O1 O 0.4537(2) 0.22371(11) 0.95314(19)
O2 O 0.3668(2) 0.12933(11) 0.84221(19)
O3 O 0.7387(2) 0.18117(13) 1.0532(2)
O4 O 0.6992(3) 0.23562(14) 1.2284(2)
N1 N 0.5137(3) 0.22362(14) 0.6677(2)
N2 N 0.7205(3) 0.21519(13) 0.6622(2)
N3 N 1.1056(3) -0.11694(14) 0.8605(3)
N4 N 1.2547(3) -0.14717(13) 1.0314(3)
C1 C 0.4750(3) 0.11223(15) 1.0613(3)
C2 C 0.5824(3) 0.12989(14) 1.1589(2)
C3 C 0.6126(3) 0.08839(18) 1.2710(3)
H1 H 0.6818 0.1013 1.3380
C4 C 0.5409(4) 0.0280(2) 1.2840(3)
H2 H 0.5626 0.0002 1.3587
C5 C 0.4371(4) 0.00948(19) 1.1853(4)
H3 H 0.3891 -0.0312 1.1931
C6 C 0.4046(3) 0.05088(16) 1.0759(3)
H4 H 0.3344 0.0379 1.0101
C7 C 0.4301(2) 0.15907(14) 0.9451(3)
C8 C 0.6779(3) 0.18701(15) 1.1412(3)
C9 C 0.8895(3) 0.12097(17) 0.7209(3)
C10 C 0.8226(4) 0.0707(2) 0.6414(4)
H5 H 0.7532 0.0842 0.5752
C11 C 0.8563(5) -0.0014(2) 0.6574(4)
H6 H 0.8127 -0.0344 0.5978
C12 C 0.9504(4) -0.02385(19) 0.7570(4)
C13 C 1.0236(7) 0.0282(3) 0.8346(6)
H7 H 1.0961 0.0154 0.8977
C14 C 0.9883(6) 0.0989(3) 0.8178(6)
H8 H 1.0339 0.1324 0.8749
C15 C 0.8611(3) 0.19966(16) 0.7024(5)
H9 H 0.8960 0.2242 0.7835
H10 H 0.9050 0.2179 0.6368
C16 C 0.9786(4) -0.1022(2) 0.7767(5)
H11 H 0.9115 -0.1237 0.8148
H12 H 0.9747 -0.1243 0.6924
C17 C 0.6290(3) 0.20424(16) 0.7327(3)
H13 H 0.6456 0.1854 0.8165
C18 C 0.5331(3) 0.2484(2) 0.5513(3)
H14 H 0.4678 0.2658 0.4846
C19 C 0.6583(3) 0.2441(2) 0.5464(3)
H15 H 0.6959 0.2580 0.4778
C20 C 1.1296(3) -0.14349(18) 0.9805(3)
H16 H 1.0651 -0.1578 1.0234
C21 C 1.3152(4) -0.1234(2) 0.9354(4)
H17 H 1.4048 -0.1207 0.9423
C22 C 1.2246(4) -0.1047(2) 0.8301(4)
H18 H 1.2395 -0.0869 0.7519
Zn1A Zn 1.33586(3) -0.199835(14) 1.20019(3)
Zn1C Zn 0.83586(3) 0.300165(14) 1.20019(3)
O4C O 0.1992(3) 0.26438(14) 0.7284(2)
N4A N 0.2547(3) 0.14717(13) 0.5314(3)
loop_
_geom_bond_atom_site_label_1
_geom_bond_atom_site_label_2
_geom_bond_site_symmetry_1
_geom_bond_site_symmetry_2
Zn1 O2 1_555 1_555
O1 C7 1_555 1_555
O2 C7 1_555 1_555
O3 C8 1_555 1_555
O4 C8 1_555 1_555
N1 Zn1 1_555 1_555
N2 C15 1_555 1_555
N3 C16 1_555 1_555
N4 C20 1_555 1_555
C1 C2 1_555 1_555
C2 C3 1_555 1_555
C3 H1 1_555 1_555
C4 C3 1_555 1_555
H2 C4 1_555 1_555
C5 C4 1_555 1_555
H3 C5 1_555 1_555
C6 C1 1_555 1_555
H4 C6 1_555 1_555
C7 C1 1_555 1_555
C8 C2 1_555 1_555
C9 C10 1_555 1_555
C10 H5 1_555 1_555
C11 C10 1_555 1_555
H6 C11 1_555 1_555
C12 C11 1_555 1_555
C13 C12 1_555 1_555
H7 C13 1_555 1_555
C14 C9 1_555 1_555
H8 C14 1_555 1_555
C15 C9 1_555 1_555
H9 C15 1_555 1_555
H10 C15 1_555 1_555
C16 C12 1_555 1_555
H11 C16 1_555 1_555
H12 C16 1_555 1_555
C17 N1 1_555 1_555
H13 C17 1_555 1_555
C18 N1 1_555 1_555
H14 C18 1_555 1_555
C19 N2 1_555 1_555
H15 C19 1_555 1_555
C20 N3 1_555 1_555
H16 C20 1_555 1_555
C21 N4 1_555 1_555
H17 C21 1_555 1_555
C22 N3 1_555 1_555
H18 C22 1_555 1_555
Zn1A N4 1_555 1_555
Zn1C O4 1_555 1_555
O4C Zn1 1_555 1_555
N4A Zn1 1_555 1_555
N2 C17 1_555 1_555
C5 C6 1_555 1_555
C13 C14 1_555 1_555
C18 C19 1_555 1_555
C21 C22 1_555 1_555

#END
