
#######################################################################
#
#                 Cambridge Crystallographic Data Centre
#                                CCDC 
#
#######################################################################
#
# If this CIF has been generated from an entry in the Cambridge 
# Structural Database, then it will include bibliographic, chemical, 
# crystal, experimental, refinement or atomic coordinate data resulting 
# from the CCDC's data processing and validation procedures.
#
#######################################################################

data_NOQHAD
_symmetry_cell_setting           orthorhombic
_symmetry_space_group_name_H-M   'P n m a'
_symmetry_Int_Tables_number      62
_space_group_name_Hall           '-P 2ac 2n'
loop_
_symmetry_equiv_pos_site_id
_symmetry_equiv_pos_as_xyz
1 x,y,z
2 1/2-x,-y,1/2+z
3 -x,1/2+y,-z
4 1/2+x,1/2-y,1/2-z
5 -x,-y,-z
6 1/2+x,y,1/2-z
7 x,1/2-y,z
8 1/2-x,1/2+y,1/2+z
_cell_length_a                   15.267(8)
_cell_length_b                   17.771(9)
_cell_length_c                   19.039(10)
_cell_angle_alpha                90
_cell_angle_beta                 90
_cell_angle_gamma                90
_cell_volume                     5165.47
loop_
_atom_site_label
_atom_site_type_symbol
_atom_site_fract_x
_atom_site_fract_y
_atom_site_fract_z
Cu1 Cu 0.52470(5) 1.49752(4) 0.72692(4)
O1 O 0.4573(3) 1.4707(3) 0.8109(2)
O2 O 0.3465(3) 1.5460(3) 0.7847(2)
O3 O 0.2078(3) 1.4245(3) 0.7815(2)
O4 O 0.1194(3) 1.4987(2) 0.8427(2)
N1 N 0.4377(4) 1.3168(3) 0.6095(3)
N2 N 0.3569(4) 1.3443(3) 0.6295(3)
N3 N 0.4661(3) 1.4134(3) 0.6753(3)
N4 N 0.5987(3) 1.6825(3) 0.8427(2)
N5 N 0.6821(3) 1.6585(3) 0.8277(3)
N6 N 0.5818(3) 1.5806(3) 0.7813(2)
N7 N 0.4002(3) 1.6826(3) 0.5989(2)
N8 N 0.4568(4) 1.6534(3) 0.5499(2)
N9 N 0.4604(3) 1.5852(3) 0.6500(2)
C1 C 0.3786(5) 1.4026(4) 0.6677(4)
H1 H 0.3373 1.4342 0.6880
C2 C 0.5003(5) 1.3588(3) 0.6379(3)
H2 H 0.5601 1.3506 0.6321
C3 C 0.4450(8) 1.2500 0.5674(5)
H3 H 0.5010 1.2500 0.5434
H4 H 0.3992 1.2500 0.5321
C4 C 0.4907(4) 1.5953(4) 0.5836(3)
H5 H 0.5322 1.5637 0.5634
C5 C 0.4036(4) 1.6411(3) 0.6570(3)
H6 H 0.3706 1.6501 0.6971
C6 C 0.3492(5) 1.7500 0.5848(4)
H7 H 0.3307 1.7500 0.5361
H8 H 0.2971 1.7500 0.6140
C7 C 0.6678(4) 1.5977(4) 0.7908(3)
H9 H 0.7129 1.5685 0.7724
C8 C 0.5400(4) 1.6351(4) 0.8142(3)
H10 H 0.4795 1.6401 0.8171
C9 C 0.5833(6) 1.7500 0.8830(4)
H11 H 0.5233 1.7500 0.8996
H12 H 0.6215 1.7500 0.9237
C10 C 0.2502(4) 1.4639(4) 0.8964(3)
C11 C 0.2145(4) 1.4506(4) 0.9632(3)
H13 H 0.1545 1.4430 0.9675
C12 C 0.2660(5) 1.4486(6) 1.0226(3)
H14 H 0.2411 1.4388 1.0663
C13 C 0.3548(5) 1.4611(6) 1.0169(4)
H15 H 0.3900 1.4608 1.0567
C14 C 0.3914(5) 1.4743(5) 0.9512(4)
H16 H 0.4515 1.4818 0.9477
C15 C 0.3413(4) 1.4766(4) 0.8912(3)
C16 C 0.3826(4) 1.5002(4) 0.8231(3)
C17 C 0.1903(4) 1.4611(4) 0.8342(3)
Cu1E Cu 1.02470(5) 1.49752(4) 0.77308(4)
Cu1E_2 Cu 0.02470(5) 1.49752(4) 0.77308(4)
Cu1F Cu 0.52470(5) 1.00248(4) 0.72692(4)
Cu1F_2 Cu 0.52470(5) 2.00248(4) 0.72692(4)
O1E O 0.9573(3) 1.4707(3) 0.6891(2)
O2E O 0.8465(3) 1.5460(3) 0.7153(2)
O3E O 0.7078(3) 1.4245(3) 0.7185(2)
O4E O 0.6194(3) 1.4987(2) 0.6573(2)
O4_2 O 1.1194(3) 1.4987(2) 0.8427(2)
N1F N 0.4377(4) 1.1832(3) 0.6095(3)
N2F N 0.3569(4) 1.1557(3) 0.6295(3)
N3F N 0.4661(3) 1.0866(3) 0.6753(3)
N3E N 0.9661(3) 1.4134(3) 0.8247(3)
N4F N 0.5987(3) 1.8175(3) 0.8427(2)
N5F N 0.6821(3) 1.8415(3) 0.8277(3)
N6F N 0.5818(3) 1.9194(3) 0.7813(2)
N6E N 1.0818(3) 1.5806(3) 0.7187(2)
N7F N 0.4002(3) 1.8174(3) 0.5989(2)
N8F N 0.4568(4) 1.8466(3) 0.5499(2)
N9F N 0.4604(3) 1.9148(3) 0.6500(2)
N9E N 0.9604(3) 1.5852(3) 0.8500(2)
C1F C 0.3786(5) 1.0974(4) 0.6677(4)
H1F H 0.3373 1.0658 0.6880
C2F C 0.5003(5) 1.1412(3) 0.6379(3)
H2F H 0.5601 1.1494 0.6321
C4F C 0.4907(4) 1.9047(4) 0.5836(3)
H5F H 0.5322 1.9363 0.5634
C5F C 0.4036(4) 1.8589(3) 0.6570(3)
H6F H 0.3706 1.8499 0.6971
C7F C 0.6678(4) 1.9023(4) 0.7908(3)
H9F H 0.7129 1.9315 0.7724
C8F C 0.5400(4) 1.8649(4) 0.8142(3)
H10F H 0.4795 1.8599 0.8171
C10E C 0.7502(4) 1.4639(4) 0.6036(3)
C11E C 0.7145(4) 1.4506(4) 0.5368(3)
H13E H 0.6545 1.4430 0.5325
C12E C 0.7660(5) 1.4486(6) 0.4774(3)
H14E H 0.7411 1.4388 0.4337
C13E C 0.8548(5) 1.4611(6) 0.4831(4)
H15E H 0.8900 1.4608 0.4433
C14E C 0.8914(5) 1.4743(5) 0.5488(4)
H16E H 0.9515 1.4818 0.5523
C15E C 0.8413(4) 1.4766(4) 0.6088(3)
C16E C 0.8826(4) 1.5002(4) 0.6769(3)
C17E C 0.6903(4) 1.4611(4) 0.6658(3)
O5 O 0.6626(6) 0.2500 0.5973(5)
N10 N 0.8037(7) 0.2500 0.6389(5)
C18 C 0.8363(9) 0.2500 0.5704(7)
H17 H 0.8721 0.2938 0.5634
H18 H 0.7884 0.2500 0.5377
C19 C 0.7193(10) 0.2500 0.6474(7)
H19 H 0.6982 0.2500 0.6932
C20 C 0.8627(11) 0.2500 0.6965(8)
H20 H 0.8980 0.2053 0.6951
H21 H 0.8302 0.2500 0.7397
H17F H 0.8721 0.2062 0.5634
H20F H 0.8980 0.2947 0.6951
O7 O 0.6026(12) 0.2500 0.9025(18)
O9 O 0.5492(15) 0.198(2) 1.0156(11)
N11? N 0.7408(6) 0.7500 0.6353(5)
O6? O 0.8746(5) 0.7500 0.6894(5)
C21? C 0.8058(8) 0.7791(7) 0.6695(9)
C22? C 0.6585(12) 0.7902(12) 0.6230(19)
C23? C 0.7422(14) 0.6720(8) 0.6080(14)
H22? H 0.8709 0.2056 0.5630
H23? H 0.8998 0.2065 0.6938
O8? O 0.585(2) 0.178(2) 0.945(2)
loop_
_geom_bond_atom_site_label_1
_geom_bond_atom_site_label_2
_geom_bond_site_symmetry_1
_geom_bond_site_symmetry_2
Cu1 O1 1_555 1_555
O1 C16 1_555 1_555
O2 C16 1_555 1_555
O3 C17 1_555 1_555
O4 C17 1_555 1_555
N1 N2 1_555 1_555
N2 C1 1_555 1_555
N3 Cu1 1_555 1_555
N4 N5 1_555 1_555
N5 C7 1_555 1_555
N6 Cu1 1_555 1_555
N7 N8 1_555 1_555
N8 C4 1_555 1_555
N9 Cu1 1_555 1_555
C1 N3 1_555 1_555
H1 C1 1_555 1_555
C2 N1 1_555 1_555
H2 C2 1_555 1_555
C3 N1 1_555 1_555
H3 C3 1_555 1_555
H4 C3 1_555 1_555
C4 N9 1_555 1_555
H5 C4 1_555 1_555
C5 N7 1_555 1_555
H6 C5 1_555 1_555
C6 N7 1_555 1_555
H7 C6 1_555 1_555
H8 C6 1_555 1_555
C7 N6 1_555 1_555
H9 C7 1_555 1_555
C8 N4 1_555 1_555
H10 C8 1_555 1_555
C9 N4 1_555 1_555
H11 C9 1_555 1_555
H12 C9 1_555 1_555
C10 C11 1_555 1_555
C11 H13 1_555 1_555
C12 C11 1_555 1_555
H14 C12 1_555 1_555
C13 C12 1_555 1_555
H15 C13 1_555 1_555
C14 C13 1_555 1_555
H16 C14 1_555 1_555
C15 C10 1_555 1_555
C16 C15 1_555 1_555
C17 C10 1_555 1_555
O5 C19 1_555 1_555
N10 C18 1_555 1_555
C18 H17 1_555 1_555
H18 C18 1_555 1_555
C19 N10 1_555 1_555
H19 C19 1_555 1_555
C20 N10 1_555 1_555
H20 C20 1_555 1_555
H21 C20 1_555 1_555
Cu1E O1E 1_555 1_555
Cu1E_2 O4 1_555 1_555
Cu1F N3F 1_555 1_555
Cu1F_2 N6F 1_555 1_555
O1E C16E 1_555 1_555
O2E C16E 1_555 1_555
O3E C17E 1_555 1_555
O4E Cu1 1_555 1_555
O4_2 Cu1E 1_555 1_555
N1F C3 1_555 1_555
N2F N1F 1_555 1_555
N3F C1F 1_555 1_555
N3E Cu1E 1_555 1_555
N4F C9 1_555 1_555
N5F N4F 1_555 1_555
N6F C7F 1_555 1_555
N6E Cu1E 1_555 1_555
N7F C6 1_555 1_555
N8F N7F 1_555 1_555
N9F Cu1F_2 1_555 1_555
N9E Cu1E 1_555 1_555
C1F N2F 1_555 1_555
H1F C1F 1_555 1_555
C2F N1F 1_555 1_555
H2F C2F 1_555 1_555
C4F N8F 1_555 1_555
H5F C4F 1_555 1_555
C5F N7F 1_555 1_555
H6F C5F 1_555 1_555
C7F N5F 1_555 1_555
H9F C7F 1_555 1_555
C8F N4F 1_555 1_555
H10F C8F 1_555 1_555
C10E C11E 1_555 1_555
C11E H13E 1_555 1_555
C12E C11E 1_555 1_555
H14E C12E 1_555 1_555
C13E C12E 1_555 1_555
H15E C13E 1_555 1_555
C14E C13E 1_555 1_555
H16E C14E 1_555 1_555
C15E C10E 1_555 1_555
C16E C15E 1_555 1_555
C17E O4E 1_555 1_555
H17F C18 1_555 1_555
H20F C20 1_555 1_555
N3 C2 1_555 1_555
N6 C8 1_555 1_555
N9 C5 1_555 1_555
C14 C15 1_555 1_555
N3F C2F 1_555 1_555
N6F C8F 1_555 1_555
N9F C4F 1_555 1_555
N9F C5F 1_555 1_555
C10E C17E 1_555 1_555
C14E C15E 1_555 1_555

#END
