
#######################################################################
#
#                 Cambridge Crystallographic Data Centre
#                                CCDC 
#
#######################################################################
#
# If this CIF has been generated from an entry in the Cambridge 
# Structural Database, then it will include bibliographic, chemical, 
# crystal, experimental, refinement or atomic coordinate data resulting 
# from the CCDC's data processing and validation procedures.
#
#######################################################################

data_NOQHEH
_symmetry_cell_setting           monoclinic
_symmetry_space_group_name_H-M   'P 21/n'
_symmetry_Int_Tables_number      14
_space_group_name_Hall           '-P 2yn'
loop_
_symmetry_equiv_pos_site_id
_symmetry_equiv_pos_as_xyz
1 x,y,z
2 1/2-x,1/2+y,1/2-z
3 -x,-y,-z
4 1/2+x,1/2-y,1/2+z
_cell_length_a                   7.527(5)
_cell_length_b                   13.411(8)
_cell_length_c                   16.895(10)
_cell_angle_alpha                90
_cell_angle_beta                 102.586(8)
_cell_angle_gamma                90
_cell_volume                     1664.48
loop_
_atom_site_label
_atom_site_type_symbol
_atom_site_fract_x
_atom_site_fract_y
_atom_site_fract_z
Cu1 Cu 0.03722(7) 0.44483(4) 0.07812(3)
O1 O -0.0151(6) 0.5765(3) 0.03556(18)
H1 H 0.0534 0.6257 0.0533
N1 N 0.0296(5) 0.3010(3) 0.1022(2)
N2 N -0.0719(5) 0.1554(3) 0.1416(2)
N3 N 0.0737(5) 0.1412(3) 0.1059(2)
N4 N 0.2831(5) 0.0290(3) 0.1843(2)
N5 N 0.4473(5) 0.0780(3) 0.1981(2)
N6 N 0.4176(5) -0.0090(3) 0.30701(19)
C1 C 0.2824(7) 0.2380(4) 0.0394(3)
H2 H 0.3754 0.1900 0.0602
H3 H 0.3325 0.3040 0.0478
H4 H 0.2371 0.2268 -0.0175
C2 C 0.1317(6) 0.2277(3) 0.0823(2)
C3 C -0.0941(6) 0.2517(3) 0.1380(2)
C4 C -0.2408(7) 0.3052(4) 0.1678(3)
H5 H -0.3269 0.2577 0.1796
H6 H -0.3016 0.3506 0.1268
H7 H -0.1883 0.3417 0.2161
C5 C 0.1552(7) 0.0435(3) 0.1077(3)
H8 H 0.2177 0.0373 0.0634
H9 H 0.0611 -0.0072 0.1009
C6 C 0.1088(7) -0.0864(5) 0.2555(3)
H10 H 0.0113 -0.0741 0.2094
H11 H 0.0692 -0.0705 0.3043
H12 H 0.1431 -0.1554 0.2563
C7 C 0.2668(6) -0.0235(4) 0.2498(2)
C8 C 0.5230(6) 0.0537(3) 0.2724(3)
C9 C 0.7071(7) 0.0901(5) 0.3142(3)
H13 H 0.7802 0.1005 0.2749
H14 H 0.7644 0.0413 0.3531
H15 H 0.6951 0.1517 0.3414
Cu1B Cu -0.03722(7) 0.55517(4) -0.07812(3)
Cu1A Cu 0.46278(7) -0.05517(4) 0.42188(3)
Cu1C Cu -0.46278(7) 1.05517(4) -0.42188(3)
O1B O 0.0151(6) 0.4235(3) -0.03556(18)
H1B H -0.0534 0.3743 -0.0533
N1B N -0.0296(5) 0.6990(3) -0.1022(2)
N2B N 0.0719(5) 0.8446(3) -0.1416(2)
N3B N -0.0737(5) 0.8588(3) -0.1059(2)
N4B N -0.2831(5) 0.9710(3) -0.1843(2)
N5B N -0.4473(5) 0.9220(3) -0.1981(2)
N6B N -0.4176(5) 1.0090(3) -0.30701(19)
N6A N 0.0824(5) 0.4910(3) 0.19299(19)
N6C N -0.0824(5) 0.5090(3) -0.19299(19)
C1B C -0.2824(7) 0.7620(4) -0.0394(3)
H2B H -0.3754 0.8100 -0.0602
H3B H -0.3325 0.6960 -0.0478
H4B H -0.2371 0.7732 0.0175
C2B C -0.1317(6) 0.7723(3) -0.0823(2)
C3B C 0.0941(6) 0.7483(3) -0.1380(2)
C4B C 0.2408(7) 0.6948(4) -0.1678(3)
H5B H 0.3269 0.7423 -0.1796
H6B H 0.3016 0.6494 -0.1268
H7B H 0.1883 0.6583 -0.2161
C5B C -0.1552(7) 0.9565(3) -0.1077(3)
H8B H -0.2177 0.9627 -0.0634
H9B H -0.0611 1.0072 -0.1009
C6B C -0.1088(7) 1.0864(5) -0.2555(3)
H10B H -0.0113 1.0741 -0.2094
H11B H -0.0692 1.0705 -0.3043
H12B H -0.1431 1.1554 -0.2563
C7B C -0.2668(6) 1.0235(4) -0.2498(2)
C8B C -0.5230(6) 0.9463(3) -0.2724(3)
C9B C -0.7071(7) 0.9099(5) -0.3142(3)
H13B H -0.7802 0.8995 -0.2749
H14B H -0.7644 0.9587 -0.3531
H15B H -0.6951 0.8483 -0.3414
Cl1 Cl 0.33653(19) 0.76492(12) 0.10394(9)
O2 O 0.3162(17) 0.6905(6) 0.1654(5)
O3 O 0.3921(13) 0.7133(7) 0.0404(5)
O4 O 0.4667(10) 0.8343(6) 0.1439(5)
O5 O 0.1645(10) 0.8096(8) 0.0752(6)
O6 O 0.7206(7) 0.9672(4) 0.0783(4)
H16 H 0.6993 1.0284 0.0665
H17 H 0.6891 0.9460 0.1207
O7 O 0.3869(10) 0.4908(6) 0.0560(5)
H18 H 0.3536 0.5324 0.0879
H19 H 0.4164 0.5143 0.0140
O8? O 0.377(3) 0.8579(11) 0.0649(19)
O9? O 0.401(3) 0.6839(12) 0.0636(14)
O10? O 0.425(3) 0.769(3) 0.1872(7)
O11? O 0.1441(12) 0.7604(14) 0.0943(14)
loop_
_geom_bond_atom_site_label_1
_geom_bond_atom_site_label_2
_geom_bond_site_symmetry_1
_geom_bond_site_symmetry_2
Cu1 O1 1_555 1_555
O1 H1 1_555 1_555
N1 Cu1 1_555 1_555
N2 N3 1_555 1_555
N3 C2 1_555 1_555
N4 N5 1_555 1_555
N5 C8 1_555 1_555
N6 C7 1_555 1_555
C1 H2 1_555 1_555
H3 C1 1_555 1_555
H4 C1 1_555 1_555
C2 N1 1_555 1_555
C3 N1 1_555 1_555
C4 C3 1_555 1_555
H5 C4 1_555 1_555
H6 C4 1_555 1_555
H7 C4 1_555 1_555
C5 N3 1_555 1_555
H8 C5 1_555 1_555
H9 C5 1_555 1_555
C6 H10 1_555 1_555
H11 C6 1_555 1_555
H12 C6 1_555 1_555
C7 N4 1_555 1_555
C8 N6 1_555 1_555
C9 C8 1_555 1_555
H13 C9 1_555 1_555
H14 C9 1_555 1_555
H15 C9 1_555 1_555
Cl1 O2 1_555 1_555
O3 Cl1 1_555 1_555
O4 Cl1 1_555 1_555
O5 Cl1 1_555 1_555
O6 H16 1_555 1_555
H17 O6 1_555 1_555
O7 H18 1_555 1_555
H19 O7 1_555 1_555
Cu1B O1 1_555 1_555
Cu1A N6 1_555 1_555
Cu1C N6B 1_555 1_555
O1B Cu1 1_555 1_555
H1B O1B 1_555 1_555
N1B Cu1B 1_555 1_555
N2B N3B 1_555 1_555
N3B C2B 1_555 1_555
N4B N5B 1_555 1_555
N5B C8B 1_555 1_555
N6B C7B 1_555 1_555
N6A Cu1 1_555 1_555
N6C Cu1B 1_555 1_555
C1B H2B 1_555 1_555
H3B C1B 1_555 1_555
H4B C1B 1_555 1_555
C2B N1B 1_555 1_555
C3B N1B 1_555 1_555
C4B C3B 1_555 1_555
H5B C4B 1_555 1_555
H6B C4B 1_555 1_555
H7B C4B 1_555 1_555
C5B N3B 1_555 1_555
H8B C5B 1_555 1_555
H9B C5B 1_555 1_555
C6B H10B 1_555 1_555
H11B C6B 1_555 1_555
H12B C6B 1_555 1_555
C7B N4B 1_555 1_555
C8B N6B 1_555 1_555
C9B C8B 1_555 1_555
H13B C9B 1_555 1_555
H14B C9B 1_555 1_555
H15B C9B 1_555 1_555
N2 C3 1_555 1_555
N4 C5 1_555 1_555
C1 C2 1_555 1_555
C6 C7 1_555 1_555
Cu1B O1B 1_555 1_555
N2B C3B 1_555 1_555
N4B C5B 1_555 1_555
C1B C2B 1_555 1_555
C6B C7B 1_555 1_555

#END
