
#######################################################################
#
#                 Cambridge Crystallographic Data Centre
#                                CCDC 
#
#######################################################################
#
# If this CIF has been generated from an entry in the Cambridge 
# Structural Database, then it will include bibliographic, chemical, 
# crystal, experimental, refinement or atomic coordinate data resulting 
# from the CCDC's data processing and validation procedures.
#
#######################################################################

data_NOQJEK
_symmetry_cell_setting           orthorhombic
_symmetry_space_group_name_H-M   'P b c a'
_symmetry_Int_Tables_number      61
_space_group_name_Hall           '-P 2ac 2ab'
loop_
_symmetry_equiv_pos_site_id
_symmetry_equiv_pos_as_xyz
1 x,y,z
2 1/2-x,-y,1/2+z
3 1/2+x,1/2-y,-z
4 -x,1/2+y,1/2-z
5 -x,-y,-z
6 1/2+x,y,1/2-z
7 1/2-x,1/2+y,z
8 x,1/2-y,1/2+z
_cell_length_a                   7.7415(9)
_cell_length_b                   17.104(2)
_cell_length_c                   31.018(4)
_cell_angle_alpha                90
_cell_angle_beta                 90
_cell_angle_gamma                90
_cell_volume                     4107.11
loop_
_atom_site_label
_atom_site_type_symbol
_atom_site_fract_x
_atom_site_fract_y
_atom_site_fract_z
Ni1 Ni 0.5000 0.5000 0.0000
O1 O 0.76139(18) 0.46768(10) -0.00201(4)
H1 H 0.8332 0.4568 -0.0229
H2 H 0.8257 0.4662 0.0202
N1 N 0.5918(2) 0.63278(10) 0.11244(5)
N2 N 0.5349(2) 0.54576(9) 0.06186(5)
N3 N 0.2051(2) 0.79536(10) 0.05772(5)
N4 N 0.0612(2) 0.89034(9) 0.02632(5)
C1 C 0.4961(2) 0.74937(12) 0.15258(7)
C2 C 0.3520(3) 0.77387(11) 0.12840(6)
C3 C 0.2218(3) 0.81501(13) 0.14904(7)
H3 H 0.1251 0.8307 0.1335
C4 C 0.2332(3) 0.83323(15) 0.19251(8)
H4 H 0.1458 0.8619 0.2057
C5 C 0.3727(3) 0.80921(16) 0.21607(8)
H5 H 0.3801 0.8210 0.2453
C6 C 0.5028(3) 0.76718(14) 0.19611(7)
H6 H 0.5969 0.7505 0.2123
C7 C 0.6454(3) 0.70630(13) 0.13248(7)
H7 H 0.6988 0.7394 0.1108
H8 H 0.7312 0.6954 0.1545
C8 C 0.6130(2) 0.61210(12) 0.07110(6)
H9 H 0.6756 0.6413 0.0512
C9 C 0.4613(3) 0.52249(13) 0.10002(7)
H10 H 0.3978 0.4768 0.1038
C10 C 0.4943(3) 0.57533(13) 0.13116(7)
H11 H 0.4579 0.5732 0.1597
C11 C 0.3434(3) 0.75494(13) 0.08076(6)
H12 H 0.4530 0.7686 0.0676
H13 H 0.3275 0.6990 0.0774
C12 C 0.2098(3) 0.86917(12) 0.04327(6)
H14 H 0.3062 0.9015 0.0450
C13 C -0.0439(3) 0.82557(12) 0.03005(7)
H15 H -0.1580 0.8229 0.0208
C14 C 0.0430(3) 0.76665(13) 0.04909(7)
H16 H 0.0017 0.7168 0.0552
O1D O 0.23861(18) 0.53232(10) 0.00201(4)
H1D H 0.1668 0.5432 0.0229
H2D H 0.1743 0.5338 -0.0202
N1D N 0.4082(2) 0.36722(10) -0.11244(5)
N2D N 0.4651(2) 0.45424(9) -0.06186(5)
N3D N 0.7949(2) 0.20464(10) -0.05772(5)
N4D N 0.9388(2) 0.10966(9) -0.02632(5)
C1D C 0.5039(2) 0.25063(12) -0.15258(7)
C2D C 0.6480(3) 0.22613(11) -0.12840(6)
C3D C 0.7782(3) 0.18499(13) -0.14904(7)
H3D H 0.8749 0.1693 -0.1335
C4D C 0.7668(3) 0.16677(15) -0.19251(8)
H4D H 0.8542 0.1381 -0.2057
C5D C 0.6273(3) 0.19079(16) -0.21607(8)
H5D H 0.6199 0.1790 -0.2453
C6D C 0.4972(3) 0.23282(14) -0.19611(7)
H6D H 0.4031 0.2495 -0.2123
C7D C 0.3546(3) 0.29370(13) -0.13248(7)
H7D H 0.3012 0.2606 -0.1108
H8D H 0.2688 0.3046 -0.1545
C8D C 0.3870(2) 0.38790(12) -0.07110(6)
H9D H 0.3244 0.3587 -0.0512
C9D C 0.5387(3) 0.47751(13) -0.10002(7)
H10D H 0.6022 0.5232 -0.1038
C10D C 0.5057(3) 0.42467(13) -0.13116(7)
H11D H 0.5421 0.4268 -0.1597
C11D C 0.6566(3) 0.24506(13) -0.08076(6)
H12D H 0.5470 0.2314 -0.0676
H13D H 0.6725 0.3010 -0.0774
C12D C 0.7902(3) 0.13083(12) -0.04327(6)
H14D H 0.6938 0.0985 -0.0450
C13D C 1.0439(3) 0.17443(12) -0.03005(7)
H15D H 1.1580 0.1771 -0.0208
C14D C 0.9570(3) 0.23335(13) -0.04909(7)
H16D H 0.9983 0.2832 -0.0552
Ni1B Ni 0.0000 1.0000 0.0000
Ni1B_2 Ni 1.0000 0.0000 0.0000
N4B N 0.5612(2) 0.60966(9) -0.02632(5)
N4F N 0.4388(2) 0.39034(9) 0.02632(5)
O2 O 0.9450(2) 0.46257(10) 0.07528(5)
O3 O 1.0515(2) 0.58075(10) 0.07158(5)
O4 O 0.7583(3) 0.38749(11) 0.12320(7)
H17 H 0.8309 0.4089 0.1080
O5 O 0.6571(3) 0.39817(15) 0.18805(8)
C15 C 0.9641(2) 0.53819(13) 0.14079(6)
C16 C 0.8654(3) 0.49230(14) 0.16946(7)
C17 C 0.8644(4) 0.5146(2) 0.21277(8)
H18 H 0.7998 0.4855 0.2323
C18 C 0.9553(5) 0.5781(2) 0.22764(9)
H19 H 0.9533 0.5906 0.2568
C19 C 1.0484(4) 0.6226(2) 0.19969(9)
H20 H 1.1093 0.6660 0.2095
C20 C 1.0512(3) 0.60289(15) 0.15727(8)
H21 H 1.1141 0.6340 0.1384
C21 C 0.9882(2) 0.52684(14) 0.09240(7)
C22 C 0.7529(3) 0.42188(16) 0.16044(9)
loop_
_geom_bond_atom_site_label_1
_geom_bond_atom_site_label_2
_geom_bond_site_symmetry_1
_geom_bond_site_symmetry_2
Ni1 O1 1_555 1_555
O1 H1 1_555 1_555
H2 O1 1_555 1_555
N1 C7 1_555 1_555
N2 Ni1 1_555 1_555
N3 C11 1_555 1_555
N4 C12 1_555 1_555
C1 C2 1_555 1_555
C2 C3 1_555 1_555
C3 H3 1_555 1_555
C4 C3 1_555 1_555
H4 C4 1_555 1_555
C5 C4 1_555 1_555
H5 C5 1_555 1_555
C6 C1 1_555 1_555
H6 C6 1_555 1_555
C7 C1 1_555 1_555
H7 C7 1_555 1_555
H8 C7 1_555 1_555
C8 N1 1_555 1_555
H9 C8 1_555 1_555
C9 N2 1_555 1_555
H10 C9 1_555 1_555
C10 N1 1_555 1_555
H11 C10 1_555 1_555
C11 C2 1_555 1_555
H12 C11 1_555 1_555
H13 C11 1_555 1_555
C12 N3 1_555 1_555
H14 C12 1_555 1_555
C13 N4 1_555 1_555
H15 C13 1_555 1_555
C14 N3 1_555 1_555
H16 C14 1_555 1_555
O2 C21 1_555 1_555
O3 C21 1_555 1_555
O4 H17 1_555 1_555
O5 C22 1_555 1_555
C15 C16 1_555 1_555
C16 C17 1_555 1_555
C17 H18 1_555 1_555
C18 C17 1_555 1_555
H19 C18 1_555 1_555
C19 C18 1_555 1_555
H20 C19 1_555 1_555
C20 C15 1_555 1_555
H21 C20 1_555 1_555
C21 C15 1_555 1_555
C22 O4 1_555 1_555
O1D Ni1 1_555 1_555
H1D O1D 1_555 1_555
H2D O1D 1_555 1_555
N1D C7D 1_555 1_555
N2D Ni1 1_555 1_555
N3D C11D 1_555 1_555
N4D C12D 1_555 1_555
C1D C2D 1_555 1_555
C2D C3D 1_555 1_555
C3D H3D 1_555 1_555
C4D C3D 1_555 1_555
H4D C4D 1_555 1_555
C5D C4D 1_555 1_555
H5D C5D 1_555 1_555
C6D C1D 1_555 1_555
H6D C6D 1_555 1_555
C7D C1D 1_555 1_555
H7D C7D 1_555 1_555
H8D C7D 1_555 1_555
C8D N1D 1_555 1_555
H9D C8D 1_555 1_555
C9D N2D 1_555 1_555
H10D C9D 1_555 1_555
C10D N1D 1_555 1_555
H11D C10D 1_555 1_555
C11D C2D 1_555 1_555
H12D C11D 1_555 1_555
H13D C11D 1_555 1_555
C12D N3D 1_555 1_555
H14D C12D 1_555 1_555
C13D N4D 1_555 1_555
H15D C13D 1_555 1_555
C14D N3D 1_555 1_555
H16D C14D 1_555 1_555
Ni1B N4 1_555 1_555
Ni1B_2 N4D 1_555 1_555
N4B Ni1 1_555 1_555
N4F Ni1 1_555 1_555
N2 C8 1_555 1_555
C5 C6 1_555 1_555
C9 C10 1_555 1_555
C13 C14 1_555 1_555
C16 C22 1_555 1_555
C19 C20 1_555 1_555
N2D C8D 1_555 1_555
C5D C6D 1_555 1_555
C9D C10D 1_555 1_555
C13D C14D 1_555 1_555

#END
