
#######################################################################
#
#                 Cambridge Crystallographic Data Centre
#                                CCDC 
#
#######################################################################
#
# If this CIF has been generated from an entry in the Cambridge 
# Structural Database, then it will include bibliographic, chemical, 
# crystal, experimental, refinement or atomic coordinate data resulting 
# from the CCDC's data processing and validation procedures.
#
#######################################################################

data_NOQKEJ
_symmetry_cell_setting           monoclinic
_symmetry_space_group_name_H-M   'C 2/m'
_symmetry_Int_Tables_number      12
_space_group_name_Hall           '-C 2y'
loop_
_symmetry_equiv_pos_site_id
_symmetry_equiv_pos_as_xyz
1 x,y,z
2 -x,y,-z
3 1/2+x,1/2+y,z
4 1/2-x,1/2+y,-z
5 -x,-y,-z
6 x,-y,z
7 1/2-x,1/2-y,-z
8 1/2+x,1/2-y,z
_cell_length_a                   9.163(2)
_cell_length_b                   6.513(2)
_cell_length_c                   7.806(2)
_cell_angle_alpha                90
_cell_angle_beta                 117.14(2)
_cell_angle_gamma                90
_cell_volume                     414.559
loop_
_atom_site_label
_atom_site_type_symbol
_atom_site_fract_x
_atom_site_fract_y
_atom_site_fract_z
C1 C 0.5438(4) 0.0000 0.4350(4)
O1 O 0.69750(17) 0.1879(2) 0.1546(2)
O2 O 0.0582(2) 0.0000 -0.1234(3)
O3 O 0.4492(3) 0.0000 0.2550(3)
O4 O 0.6967(3) 0.0000 0.5163(3)
Co1 Co 0.50000 0.0000 0.00000
Co2 Co 0.19159(5) 0.0000 0.18037(6)
Se1 Se 0.84131(3) 0.0000 0.25856(4)
C1A C 0.4562(4) 0.0000 0.5650(4)
Co2B Co 0.69159(5) 0.5000 0.18037(6)
Co2A Co -0.19159(5) 0.0000 -0.18037(6)
Co2A_2 Co 0.80841(5) 0.0000 0.81963(6)
O1A O 0.30250(17) 0.1879(2) -0.1546(2)
O1D O 0.30250(17) -0.1879(2) -0.1546(2)
O1E O 0.69750(17) -0.1879(2) 0.1546(2)
O3A O 0.5508(3) 0.0000 -0.2550(3)
O1B O 0.19750(17) -0.3121(2) 0.1546(2)
O1G O 0.19750(17) 0.3121(2) 0.1546(2)
O2A O -0.0582(2) 0.0000 0.1234(3)
O4A O 0.3033(3) 0.0000 0.4837(3)
O2A_2 O 0.9418(2) 0.0000 0.1234(3)
O3A_2 O 0.5508(3) 0.0000 0.7450(3)
Co1_2 Co 0.50000 0.0000 1.00000
Co2C Co 0.30841(5) 0.5000 -0.18037(6)
Se1A Se 0.15869(3) 0.0000 -0.25856(4)
Co2C_2 Co 0.30841(5) -0.5000 -0.18037(6)
Co2A_3 Co 0.80841(5) 0.0000 -0.18037(6)
Co2_2 Co 1.19159(5) 0.0000 0.18037(6)
Co2B_2 Co 0.69159(5) -0.5000 0.18037(6)
O1_2 O 0.69750(17) 0.1879(2) 1.1546(2)
O1A_2 O 0.30250(17) 0.1879(2) 0.8454(2)
O1D_2 O 0.30250(17) -0.1879(2) 0.8454(2)
O1E_2 O 0.69750(17) -0.1879(2) 1.1546(2)
O3_2 O 0.4492(3) 0.0000 1.2550(3)
loop_
_geom_bond_atom_site_label_1
_geom_bond_atom_site_label_2
_geom_bond_site_symmetry_1
_geom_bond_site_symmetry_2
C1 O3 1_555 1_555
O1 Co1 1_555 1_555
O2 Co2 1_555 1_555
O3 Co1 1_555 1_555
O4 C1 1_555 1_555
Co1 O1A 1_555 1_555
Co2 O3 1_555 1_555
Se1 O1 1_555 1_555
C1A C1 1_555 1_555
Co2B O1 1_555 1_555
Co2A O2 1_555 1_555
Co2A_2 O4 1_555 1_555
O1A Co2C 1_555 1_555
O1D Co1 1_555 1_555
O1E Co1 1_555 1_555
O3A Co1 1_555 1_555
O1B Co2 1_555 1_555
O1G Co2 1_555 1_555
O2A Co2 1_555 1_555
O4A Co2 1_555 1_555
O2A_2 Se1 1_555 1_555
O3A_2 C1A 1_555 1_555
Co1_2 O3A_2 1_555 1_555
Se1A O2 1_555 1_555
Co2C_2 O1D 1_555 1_555
Co2A_3 O3A 1_555 1_555
Co2_2 O2A_2 1_555 1_555
Co2B_2 O1E 1_555 1_555
O1_2 Co1_2 1_555 1_555
O1A_2 Co1_2 1_555 1_555
O1D_2 Co1_2 1_555 1_555
O1E_2 Co1_2 1_555 1_555
O3_2 Co1_2 1_555 1_555
Se1 O1E 1_555 1_555
C1A O4A 1_555 1_555
Co2A O2A 1_555 1_555
Co2A_2 O3A_2 1_555 1_555
O1A Se1A 1_555 1_555
O1D Se1A 1_555 1_555
O2A_2 Co2A_3 1_555 1_555

#END
