
#######################################################################
#
#                 Cambridge Crystallographic Data Centre
#                                CCDC 
#
#######################################################################
#
# If this CIF has been generated from an entry in the Cambridge 
# Structural Database, then it will include bibliographic, chemical, 
# crystal, experimental, refinement or atomic coordinate data resulting 
# from the CCDC's data processing and validation procedures.
#
#######################################################################

data_NOQLUC
_symmetry_cell_setting           triclinic
_symmetry_space_group_name_H-M   'P -1'
_symmetry_Int_Tables_number      2
_space_group_name_Hall           '-P 1'
loop_
_symmetry_equiv_pos_site_id
_symmetry_equiv_pos_as_xyz
1 x,y,z
2 -x,-y,-z
_cell_length_a                   9.3072(7)
_cell_length_b                   9.6668(7)
_cell_length_c                   15.5198(11)
_cell_angle_alpha                98.919(6)
_cell_angle_beta                 106.103(6)
_cell_angle_gamma                98.562(6)
_cell_volume                     1297.96
loop_
_atom_site_label
_atom_site_type_symbol
_atom_site_fract_x
_atom_site_fract_y
_atom_site_fract_z
Cu1 Cu 0.76438(10) 0.24727(9) 0.11725(6)
N1 N 0.0810(6) 0.1374(6) -0.1413(3)
N2 N 0.5342(6) 0.1723(5) 0.0910(3)
N3 N -0.0285(6) 0.3160(6) -0.0759(3)
N4 N -0.1701(6) 0.3018(6) 0.0117(3)
N5 N -0.0477(6) 0.2647(6) -0.0044(3)
N6 N 0.1278(6) -0.0844(6) -0.1491(4)
C1 C 0.1646(7) 0.0457(6) -0.0998(4)
C2 C 0.3366(7) 0.1114(7) 0.1571(4)
H1 H 0.3072 0.1039 0.2104
C3 C 0.0139(8) -0.0786(7) -0.2287(4)
C4 C 0.4835(7) 0.1556(7) 0.1631(4)
H2 H 0.5570 0.1766 0.2221
C5 C -0.2316(7) 0.3770(6) -0.0534(4)
C6 C -0.0182(7) 0.0557(7) -0.2257(4)
C7 C -0.1294(8) 0.0908(7) -0.2938(4)
H3 H -0.1493 0.1847 -0.2909
C8 C 0.2733(7) 0.0881(7) -0.0057(4)
C9 C 0.4302(8) 0.1388(6) 0.0089(4)
H4 H 0.4631 0.1495 -0.0429
C10 C 0.2271(7) 0.0766(7) 0.0694(5)
H5 H 0.1222 0.0453 0.0627
C11 C -0.1406(7) 0.3885(6) -0.1108(4)
C12 C 0.0987(7) 0.2887(6) -0.1089(4)
H6 H 0.1017 0.3394 -0.1593
H7 H 0.1960 0.3249 -0.0587
C13 C -0.3623(7) 0.4381(7) -0.0670(4)
H8 H -0.4249 0.4318 -0.0282
C14 C -0.2099(8) -0.0214(8) -0.3669(4)
H9 H -0.2860 -0.0028 -0.4164
C15 C -0.3955(7) 0.5073(7) -0.1390(5)
H10 H -0.4850 0.5464 -0.1509
C16 C -0.1837(8) -0.1600(7) -0.3706(4)
H11 H -0.2459 -0.2337 -0.4207
C17 C -0.0710(8) -0.1925(8) -0.3044(5)
H12 H -0.0499 -0.2860 -0.3084
C18 C -0.1717(7) 0.4629(7) -0.1824(4)
H13 H -0.1073 0.4725 -0.2200
C19 C -0.3021(8) 0.5222(7) -0.1956(5)
H14 H -0.3280 0.5733 -0.2434
Br1 Br 0.80856(7) 0.45548(7) 0.24200(4)
Cu1_2 Cu -0.23562(10) 0.24727(9) 0.11725(6)
Cu1A Cu 0.23562(10) -0.24727(9) -0.11725(6)
N4_2 N 0.8299(6) 0.3018(6) 0.0117(3)
N6A N 0.8722(6) 0.0844(6) 0.1491(4)
loop_
_geom_bond_atom_site_label_1
_geom_bond_atom_site_label_2
_geom_bond_site_symmetry_1
_geom_bond_site_symmetry_2
Cu1 N2 1_555 1_555
N1 C1 1_555 1_555
N2 C4 1_555 1_555
N3 N5 1_555 1_555
N4 N5 1_555 1_555
N6 C1 1_555 1_555
C1 C8 1_555 1_555
C2 H1 1_555 1_555
C3 N6 1_555 1_555
C4 C2 1_555 1_555
H2 C4 1_555 1_555
C5 N4 1_555 1_555
C6 N1 1_555 1_555
C7 C6 1_555 1_555
H3 C7 1_555 1_555
C8 C9 1_555 1_555
C9 N2 1_555 1_555
H4 C9 1_555 1_555
C10 C2 1_555 1_555
H5 C10 1_555 1_555
C11 N3 1_555 1_555
C12 N1 1_555 1_555
H6 C12 1_555 1_555
H7 C12 1_555 1_555
C13 C5 1_555 1_555
H8 C13 1_555 1_555
C14 C7 1_555 1_555
H9 C14 1_555 1_555
C15 C13 1_555 1_555
H10 C15 1_555 1_555
C16 C14 1_555 1_555
H11 C16 1_555 1_555
C17 C3 1_555 1_555
H12 C17 1_555 1_555
C18 C11 1_555 1_555
H13 C18 1_555 1_555
C19 C15 1_555 1_555
H14 C19 1_555 1_555
Br1 Cu1 1_555 1_555
Cu1_2 N4 1_555 1_555
Cu1A N6 1_555 1_555
N4_2 Cu1 1_555 1_555
N6A Cu1 1_555 1_555
N3 C12 1_555 1_555
C3 C6 1_555 1_555
C5 C11 1_555 1_555
C8 C10 1_555 1_555
C16 C17 1_555 1_555
C18 C19 1_555 1_555

#END
