
#######################################################################
#
#                 Cambridge Crystallographic Data Centre
#                                CCDC 
#
#######################################################################
#
# If this CIF has been generated from an entry in the Cambridge 
# Structural Database, then it will include bibliographic, chemical, 
# crystal, experimental, refinement or atomic coordinate data resulting 
# from the CCDC's data processing and validation procedures.
#
#######################################################################

data_NOQLOV
_symmetry_cell_setting           orthorhombic
_symmetry_space_group_name_H-M   'F d d 2'
_symmetry_Int_Tables_number      43
_space_group_name_Hall           'F 2 -2d'
loop_
_symmetry_equiv_pos_site_id
_symmetry_equiv_pos_as_xyz
1 x,y,z
2 -x,-y,z
3 1/4+x,1/4-y,1/4+z
4 1/4-x,1/4+y,1/4+z
5 x,1/2+y,1/2+z
6 -x,1/2-y,1/2+z
7 1/4+x,3/4-y,3/4+z
8 1/4-x,3/4+y,3/4+z
9 1/2+x,y,1/2+z
10 1/2-x,-y,1/2+z
11 3/4+x,1/4-y,3/4+z
12 3/4-x,1/4+y,3/4+z
13 1/2+x,1/2+y,z
14 1/2-x,1/2-y,z
15 3/4+x,3/4-y,1/4+z
16 3/4-x,3/4+y,1/4+z
_cell_length_a                   15.8498(4)
_cell_length_b                   31.1643(8)
_cell_length_c                   8.6618(2)
_cell_angle_alpha                90
_cell_angle_beta                 90
_cell_angle_gamma                90
_cell_volume                     4278.48
loop_
_atom_site_label
_atom_site_type_symbol
_atom_site_fract_x
_atom_site_fract_y
_atom_site_fract_z
In1 In 0.013694(15) 0.314689(7) 0.33266(6)
O1 O -0.06449(17) 0.27864(9) 0.1683(4)
O2 O 0.10165(19) 0.26861(9) 0.1750(4)
O3 O 0.04152(19) 0.35822(9) 0.1416(3)
O4 O 0.14920(17) 0.34173(8) 0.3713(3)
C1 C -0.0334(2) 0.25113(11) 0.0817(7)
C2 C 0.0620(2) 0.24552(11) 0.0823(7)
C3 C 0.1128(2) 0.37559(10) 0.1357(4)
C4 C 0.1740(2) 0.36645(11) 0.2696(5)
O5 O -0.07692(18) 0.22769(9) -0.0061(3)
O6 O 0.09025(18) 0.21856(9) -0.0112(4)
O7 O 0.13838(16) 0.39927(8) 0.0302(3)
O8 O 0.24530(18) 0.38498(9) 0.2625(4)
In1E In -0.013694(15) 0.185311(7) -0.16734(6)
In1F In 0.263694(15) 0.435311(7) 0.08266(6)
O5E O 0.07692(18) 0.27231(9) 0.4939(3)
O6E O -0.09025(18) 0.28144(9) 0.4888(4)
O7N O -0.11162(16) 0.35073(8) 0.2802(3)
O8N O -0.00470(18) 0.36502(9) 0.5125(4)
C5 C 0.2294(3) 0.2715(2) -0.2277(8)
H1 H 0.1687 0.2676 -0.2275
H2 H 0.2444 0.2864 -0.1332
N1 N 0.2527(3) 0.29883(17) -0.3608(6)
H3 H 0.3035 0.2913 -0.3949
H4 H 0.2534 0.3262 -0.3316
H5 H 0.2150 0.2954 -0.4360
C5M C 0.2706(3) 0.2285(2) -0.2277(8)
H1M H 0.3313 0.2324 -0.2275
H2M H 0.2556 0.2136 -0.1332
N1M N 0.2473(3) 0.20117(17) -0.3608(6)
H3M H 0.1965 0.2087 -0.3949
H4M H 0.2466 0.1738 -0.3316
H5M H 0.2850 0.2046 -0.4360
O9 O 0.2500 0.2500 0.3570(7)
H6 H 0.2938 0.2445 0.3040
H6M H 0.2062 0.2555 0.3040
O10 O 0.0119(6) 0.3117(3) -0.173(3)
H7 H 0.0188 0.2848 -0.1847
H8 H 0.0010 0.3173 -0.0793
O11 O 0.1418(3) 0.36723(19) -0.2928(7)
H9 H 0.1123 0.3788 -0.3632
H10 H 0.1542 0.3857 -0.2244
loop_
_geom_bond_atom_site_label_1
_geom_bond_atom_site_label_2
_geom_bond_site_symmetry_1
_geom_bond_site_symmetry_2
In1 O1 1_555 1_555
O1 C1 1_555 1_555
O2 In1 1_555 1_555
O3 In1 1_555 1_555
O4 In1 1_555 1_555
C1 C2 1_555 1_555
C2 O2 1_555 1_555
C3 O3 1_555 1_555
C4 O4 1_555 1_555
O5 C1 1_555 1_555
O6 C2 1_555 1_555
O7 C3 1_555 1_555
O8 C4 1_555 1_555
C5 H1 1_555 1_555
H2 C5 1_555 1_555
N1 C5 1_555 1_555
H3 N1 1_555 1_555
H4 N1 1_555 1_555
H5 N1 1_555 1_555
O9 H6 1_555 1_555
O10 H7 1_555 1_555
H8 O10 1_555 1_555
O11 H9 1_555 1_555
H10 O11 1_555 1_555
In1E O5 1_555 1_555
In1F O7 1_555 1_555
O5E In1 1_555 1_555
O6E In1 1_555 1_555
O7N In1 1_555 1_555
O8N In1 1_555 1_555
C5M C5 1_555 1_555
H1M C5M 1_555 1_555
H2M C5M 1_555 1_555
N1M C5M 1_555 1_555
H3M N1M 1_555 1_555
H4M N1M 1_555 1_555
H5M N1M 1_555 1_555
H6M O9 1_555 1_555
C3 C4 1_555 1_555
O6 In1E 1_555 1_555
O8 In1F 1_555 1_555

#END
