
#######################################################################
#
#                 Cambridge Crystallographic Data Centre
#                                CCDC 
#
#######################################################################
#
# If this CIF has been generated from an entry in the Cambridge 
# Structural Database, then it will include bibliographic, chemical, 
# crystal, experimental, refinement or atomic coordinate data resulting 
# from the CCDC's data processing and validation procedures.
#
#######################################################################

data_NOQLOV01
_symmetry_cell_setting           orthorhombic
_symmetry_space_group_name_H-M   'F d d 2'
_symmetry_Int_Tables_number      43
_space_group_name_Hall           'F 2 -2d'
loop_
_symmetry_equiv_pos_site_id
_symmetry_equiv_pos_as_xyz
1 x,y,z
2 -x,-y,z
3 1/4+x,1/4-y,1/4+z
4 1/4-x,1/4+y,1/4+z
5 x,1/2+y,1/2+z
6 -x,1/2-y,1/2+z
7 1/4+x,3/4-y,3/4+z
8 1/4-x,3/4+y,3/4+z
9 1/2+x,y,1/2+z
10 1/2-x,-y,1/2+z
11 3/4+x,1/4-y,3/4+z
12 3/4-x,1/4+y,3/4+z
13 1/2+x,1/2+y,z
14 1/2-x,1/2-y,z
15 3/4+x,3/4-y,1/4+z
16 3/4-x,3/4+y,1/4+z
_cell_length_a                   15.856(3)
_cell_length_b                   31.183(6)
_cell_length_c                   8.6688(17)
_cell_angle_alpha                90
_cell_angle_beta                 90
_cell_angle_gamma                90
_cell_volume                     4286.18
loop_
_atom_site_label
_atom_site_type_symbol
_atom_site_fract_x
_atom_site_fract_y
_atom_site_fract_z
In1 In -0.513585(13) 0.185235(6) 0.23086(5)
O1 O -0.39891(15) 0.09162(7) 0.5195(3)
O2 O -0.56447(16) 0.27899(9) 0.5670(4)
O3 O -0.39840(16) 0.26872(9) 0.5737(4)
O4 O -0.29124(16) 0.10832(8) 0.2900(3)
C1 C -0.4383(2) 0.24562(10) 0.4810(7)
C2 C -0.4238(2) 0.11682(10) 0.4166(4)
C3 C -0.5331(2) 0.25129(10) 0.4782(7)
C5 C -0.3628(2) 0.12575(10) 0.2835(4)
O8 O -0.49516(15) 0.13485(8) 0.4108(3)
O9 O -0.38802(15) 0.14958(8) 0.1791(3)
O10 O -0.57652(16) 0.22755(8) 0.3924(3)
O11 O -0.40930(16) 0.21847(9) 0.3881(4)
In1B In -0.263585(13) 0.064765(6) 0.48086(5)
In1E In -0.486415(13) 0.314765(6) 0.73086(5)
O1J O -0.64891(15) 0.15838(7) 0.2695(3)
O2E O -0.43553(16) 0.22101(9) 0.0670(4)
O3E O -0.60160(16) 0.23128(9) 0.0737(4)
O4J O -0.54124(16) 0.14168(8) 0.0400(3)
O5 O 0.2500 0.2500 0.2529(7)
N1 N -0.2471(2) 0.29885(15) 0.0351(5)
C4 C -0.2705(3) 0.27140(18) 0.1704(7)
H1 H -0.2552 0.2863 0.2644
H2 H -0.3312 0.2675 0.1710
N1M N -0.2529(2) 0.20115(15) 0.0351(5)
C4M C -0.2295(3) 0.22860(18) 0.1704(7)
H1M H -0.2448 0.2137 0.2644
H2M H -0.1688 0.2325 0.1710
O6 O -0.1082(3) 0.3813(2) -0.1472(7)
O7 O -0.5124(6) 0.1887(3) -0.274(3)
loop_
_geom_bond_atom_site_label_1
_geom_bond_atom_site_label_2
_geom_bond_site_symmetry_1
_geom_bond_site_symmetry_2
In1 O8 1_555 1_555
O1 C2 1_555 1_555
O2 C3 1_555 1_555
O3 C1 1_555 1_555
O4 C5 1_555 1_555
C1 C3 1_555 1_555
C2 C5 1_555 1_555
C3 O10 1_555 1_555
N1 C4 1_555 1_555
C4 H1 1_555 1_555
H2 C4 1_555 1_555
C5 O9 1_555 1_555
O8 C2 1_555 1_555
O9 In1 1_555 1_555
O10 In1 1_555 1_555
O11 In1 1_555 1_555
In1B O1 1_555 1_555
In1E O2 1_555 1_555
O1J In1 1_555 1_555
O2E In1 1_555 1_555
O3E In1 1_555 1_555
O4J In1 1_555 1_555
N1M C4M 1_555 1_555
C4M C4 1_555 1_555
H1M C4M 1_555 1_555
H2M C4M 1_555 1_555
O3 In1E 1_555 1_555
O4 In1B 1_555 1_555
C1 O11 1_555 1_555

#END
