
#######################################################################
#
#                 Cambridge Crystallographic Data Centre
#                                CCDC 
#
#######################################################################
#
# If this CIF has been generated from an entry in the Cambridge 
# Structural Database, then it will include bibliographic, chemical, 
# crystal, experimental, refinement or atomic coordinate data resulting 
# from the CCDC's data processing and validation procedures.
#
#######################################################################

data_NOQNEN
_symmetry_cell_setting           tetragonal
_symmetry_space_group_name_H-M   'I -4'
_symmetry_Int_Tables_number      82
_space_group_name_Hall           'I -4'
loop_
_symmetry_equiv_pos_site_id
_symmetry_equiv_pos_as_xyz
1 x,y,z
2 -x,-y,z
3 y,-x,-z
4 -y,x,-z
5 1/2+x,1/2+y,1/2+z
6 1/2-x,1/2-y,1/2+z
7 1/2+y,1/2-x,1/2-z
8 1/2-y,1/2+x,1/2-z
_cell_length_a                   15.107(2)
_cell_length_b                   15.107(2)
_cell_length_c                   14.8587(15)
_cell_angle_alpha                90
_cell_angle_beta                 90
_cell_angle_gamma                90
_cell_volume                     3391.07
loop_
_atom_site_label
_atom_site_type_symbol
_atom_site_fract_x
_atom_site_fract_y
_atom_site_fract_z
Tb1 Tb 0.30210(3) 0.22535(3) 0.22736(3)
C1 C 0.1833(6) 0.4100(6) 0.1946(6)
C2 C 0.1334(7) 0.4753(6) 0.1553(6)
H1 H 0.1128 0.5222 0.1900
C3 C 0.1132(7) 0.4720(7) 0.0639(7)
H2 H 0.0796 0.5166 0.0376
C4 C 0.1433(6) 0.4021(6) 0.0129(7)
C5 C 0.1879(7) 0.3364(7) 0.0575(8)
H3 H 0.2046 0.2864 0.0251
C6 C 0.2161(6) 0.4123(6) 0.2921(6)
C7 C 0.1302(7) 0.3959(7) -0.0870(7)
C8 C 0.1196(7) 0.1238(6) 0.1716(7)
C9 C 0.0975(6) 0.1488(6) 0.2710(7)
C10 C 0.0233(6) 0.1192(7) 0.3157(7)
H4 H -0.0195 0.0865 0.2854
C11 C 0.0131(7) 0.1383(7) 0.4052(7)
H5 H -0.0351 0.1158 0.4366
C12 C 0.0768(6) 0.1929(6) 0.4506(6)
C13 C 0.1449(7) 0.2207(7) 0.3980(7)
H6 H 0.1865 0.2577 0.4249
C14 C 0.0684(7) 0.2114(7) 0.5505(7)
N1 N 0.1583(5) 0.2001(5) 0.3112(6)
N2 N 0.2094(5) 0.3400(5) 0.1465(6)
O1 O 0.2739(5) 0.3551(4) 0.3099(5)
H7 H 0.3058 0.3643 0.3561
O2 O 0.1862(6) 0.4677(6) 0.3436(5)
O3 O 0.1625(5) 0.3283(5) -0.1271(5)
O4 O 0.0921(6) 0.4561(5) -0.1264(5)
O5 O 0.1946(5) 0.1457(5) 0.1459(5)
O6 O 0.0625(5) 0.0865(5) 0.1277(5)
O7 O 0.0056(6) 0.1862(6) 0.5922(6)
O8 O 0.1326(5) 0.2550(5) 0.5846(5)
O9 O 0.3704(5) 0.0819(5) 0.1997(5)
H8 H 0.3822 0.0700 0.2543
H9 H 0.4222 0.0849 0.1778
O10 O 0.4504(5) 0.2736(5) 0.2620(5)
H10 H 0.4641 0.2868 0.2082
H11 H 0.4875 0.2327 0.2729
Tb1E Tb 0.19790(3) 0.27465(3) -0.27264(3)
Tb1E_2 Tb 0.19790(3) 0.27465(3) 0.72736(3)
O3E O 0.3375(5) 0.1717(5) 0.3729(5)
O8E O 0.3674(5) 0.2450(5) 0.0846(5)
O11 O 0.2668(7) 0.0205(6) 0.0225(6)
H12 H 0.2452 0.0578 0.0593
H13 H 0.2812 0.0241 -0.0327
O12 O 0.1257(7) -0.0901(6) 0.0634(7)
H14 H 0.0724 -0.0890 0.0818
H15 H 0.1145 -0.0821 0.0079
loop_
_geom_bond_atom_site_label_1
_geom_bond_atom_site_label_2
_geom_bond_site_symmetry_1
_geom_bond_site_symmetry_2
Tb1 N1 1_555 1_555
C1 C2 1_555 1_555
C2 H1 1_555 1_555
C3 C2 1_555 1_555
H2 C3 1_555 1_555
C4 C3 1_555 1_555
C5 C4 1_555 1_555
H3 C5 1_555 1_555
C6 C1 1_555 1_555
C7 C4 1_555 1_555
C8 C9 1_555 1_555
C9 C10 1_555 1_555
C10 H4 1_555 1_555
C11 C10 1_555 1_555
H5 C11 1_555 1_555
C12 C11 1_555 1_555
C13 C12 1_555 1_555
H6 C13 1_555 1_555
C14 C12 1_555 1_555
N1 C9 1_555 1_555
N2 Tb1 1_555 1_555
O1 Tb1 1_555 1_555
H7 O1 1_555 1_555
O2 C6 1_555 1_555
O3 C7 1_555 1_555
O4 C7 1_555 1_555
O5 Tb1 1_555 1_555
O6 C8 1_555 1_555
O7 C14 1_555 1_555
O8 C14 1_555 1_555
O9 Tb1 1_555 1_555
H8 O9 1_555 1_555
H9 O9 1_555 1_555
O10 Tb1 1_555 1_555
H10 O10 1_555 1_555
H11 O10 1_555 1_555
O11 H12 1_555 1_555
H13 O11 1_555 1_555
O12 H14 1_555 1_555
H15 O12 1_555 1_555
Tb1E O3 1_555 1_555
Tb1E_2 O8 1_555 1_555
O3E Tb1 1_555 1_555
O8E Tb1 1_555 1_555
C1 N2 1_555 1_555
C5 N2 1_555 1_555
C6 O1 1_555 1_555
C8 O5 1_555 1_555
C13 N1 1_555 1_555

#END
