
#######################################################################
#
#                 Cambridge Crystallographic Data Centre
#                                CCDC 
#
#######################################################################
#
# If this CIF has been generated from an entry in the Cambridge 
# Structural Database, then it will include bibliographic, chemical, 
# crystal, experimental, refinement or atomic coordinate data resulting 
# from the CCDC's data processing and validation procedures.
#
#######################################################################

data_NOQNOY
_symmetry_cell_setting           monoclinic
_symmetry_space_group_name_H-M   'P 2/c'
_symmetry_Int_Tables_number      13
_space_group_name_Hall           '-P 2yc'
loop_
_symmetry_equiv_pos_site_id
_symmetry_equiv_pos_as_xyz
1 x,y,z
2 -x,y,1/2-z
3 -x,-y,-z
4 x,-y,1/2+z
_cell_length_a                   16.264(4)
_cell_length_b                   9.433(2)
_cell_length_c                   24.124(6)
_cell_angle_alpha                90
_cell_angle_beta                 108.312(4)
_cell_angle_gamma                90
_cell_volume                     3513.64
loop_
_atom_site_label
_atom_site_type_symbol
_atom_site_fract_x
_atom_site_fract_y
_atom_site_fract_z
C1 C 0.2041(5) 0.4407(10) 0.2886(3)
O1 O 0.5194(2) 0.8091(4) 0.19075(17)
O2 O 0.4674(3) 0.1024(4) 0.14812(17)
Ce1 Ce 0.297708(16) 0.50883(2) 0.096692(12)
Ca1 Ca 0.5000 0.0000 0.0000
Ca2 Ca 0.5000 0.00585(13) 0.2500
Ca3 Ca 0.0000 0.0000 0.0000
O3 O 0.2992(2) 0.6929(4) 0.02080(17)
O4 O 0.3724(3) 0.3219(4) 0.16788(16)
O5 O 0.1789(2) 0.3277(4) 0.08142(17)
O6 O 0.3439(2) 0.3317(4) 0.03490(17)
C2 C 0.4207(4) 0.3136(5) 0.0336(2)
N1 N 0.4583(3) 0.5139(4) 0.0978(2)
O7 O 0.3950(2) 0.6917(4) 0.15730(17)
O8 O 0.4007(3) 0.2027(4) 0.25129(17)
O9 O 0.4441(3) 0.2176(4) 0.00709(18)
C3 C 0.4867(3) 0.4201(5) 0.0665(2)
C4 C 0.1143(3) 0.3130(5) 0.0363(2)
C5 C 0.3615(3) 0.2948(5) 0.2164(2)
N2 N 0.1695(3) 0.5130(4) -0.0019(2)
C6 C 0.4738(3) 0.7135(5) 0.1620(2)
C7 C 0.2440(3) 0.7064(6) -0.0293(2)
O10 O 0.0593(3) 0.2178(4) 0.0286(2)
C8 C 0.5127(3) 0.6123(5) 0.1285(2)
O11 O 0.2500(3) 0.7889(5) -0.0682(2)
C9 C 0.5703(4) 0.4231(6) 0.0634(3)
C10 C 0.2948(3) 0.3832(6) 0.2317(2)
C11 C 0.1658(3) 0.6115(6) -0.0427(2)
C12 C 0.1040(3) 0.4206(5) -0.0111(2)
C13 C 0.5974(4) 0.6229(7) 0.1277(3)
C14 C 0.0954(4) 0.6243(7) -0.0929(3)
C15 C 0.6258(4) 0.5279(7) 0.0946(3)
H1 H 0.6821 0.5336 0.0931
C16 C 0.0311(4) 0.4262(7) -0.0600(3)
N3 N 0.2620(3) 0.4894(4) 0.1944(2)
O12 O 0.1930(3) 0.6856(4) 0.11465(18)
O13 O 0.1145(3) 0.7736(6) 0.1679(2)
C17 C 0.1663(3) 0.6884(6) 0.1592(3)
C18 C 0.2014(3) 0.5725(6) 0.2043(2)
C19 C 0.0270(5) 0.5308(9) -0.1017(3)
C20 C 0.2668(4) 0.3560(8) 0.2790(3)
H2 H 0.2902 0.2811 0.3041
C21 C 0.1711(5) 0.5534(9) 0.2510(3)
O14 O 0.3491(3) -0.0767(5) 0.2093(2)
O15 O 0.4151(3) -0.0882(5) 0.0536(2)
O16 O 0.6146(3) 0.0593(5) 0.0860(2)
O17 O 0.1395(3) -0.0936(5) 0.0349(3)
O18 O -0.0045(5) -0.0474(8) 0.0948(3)
H3 H 0.172(7) 0.415(13) 0.317(5)
H4 H 0.163(8) -0.161(11) 0.061(5)
H5 H 0.394(8) -0.163(8) 0.049(5)
H6 H 0.431(9) -0.046(11) 0.081(3)
H7 H 0.363(8) -0.136(10) 0.190(5)
H8 H 0.033(6) 0.000(13) 0.119(6)
H9 H 0.370(10) 0.002(7) 0.209(7)
H10 H 0.170(5) -0.049(11) 0.034(6)
H11 H 0.656(6) 0.053(15) 0.078(6)
H12 H -0.055(3) -0.025(14) 0.086(7)
H13 H 0.517(5) 0.133(14) 0.149(6)
H14 H 0.447(7) 0.155(12) 0.167(5)
H15 H 0.6085 0.0025 0.1106
H16 H 0.575(7) 0.367(12) 0.033(5)
H17 H 0.636(7) 0.711(12) 0.143(5)
H18 H 0.097(7) 0.679(12) -0.127(5)
H19 H -0.021(7) 0.370(13) -0.066(5)
H20 H -0.024(9) 0.528(12) -0.136(6)
H21 H 0.125(7) 0.623(12) 0.254(5)
C1A C 0.7959(5) 0.4407(10) 0.2114(3)
O1A O 0.4806(2) 0.8091(4) 0.30925(17)
O2A O 0.5326(3) 0.1024(4) 0.35188(17)
Ce1A Ce 0.702292(16) 0.50883(2) 0.403308(12)
O3A O 0.7008(2) 0.6929(4) 0.47920(17)
O4A O 0.6276(3) 0.3219(4) 0.33212(16)
O5A O 0.8211(2) 0.3277(4) 0.41858(17)
O6A O 0.6561(2) 0.3317(4) 0.46510(17)
C2A C 0.5793(4) 0.3136(5) 0.4664(2)
N1A N 0.5417(3) 0.5139(4) 0.4022(2)
O7A O 0.6050(2) 0.6917(4) 0.34270(17)
O8A O 0.5993(3) 0.2027(4) 0.24871(17)
O9A O 0.5559(3) 0.2176(4) 0.49291(18)
C3A C 0.5133(3) 0.4201(5) 0.4335(2)
C4A C 0.8857(3) 0.3130(5) 0.4637(2)
C5A C 0.6385(3) 0.2948(5) 0.2836(2)
N2A N 0.8305(3) 0.5130(4) 0.5019(2)
C6A C 0.5262(3) 0.7135(5) 0.3380(2)
C7A C 0.7560(3) 0.7064(6) 0.5293(2)
O10A O 0.9407(3) 0.2178(4) 0.4714(2)
C8A C 0.4873(3) 0.6123(5) 0.3715(2)
O11A O 0.7500(3) 0.7889(5) 0.5682(2)
C9A C 0.4297(4) 0.4231(6) 0.4366(3)
C10A C 0.7052(3) 0.3832(6) 0.2683(2)
C11A C 0.8342(3) 0.6115(6) 0.5427(2)
C12A C 0.8960(3) 0.4206(5) 0.5111(2)
C13A C 0.4026(4) 0.6229(7) 0.3723(3)
C14A C 0.9046(4) 0.6243(7) 0.5929(3)
C15A C 0.3742(4) 0.5279(7) 0.4054(3)
H1A H 0.3179 0.5336 0.4069
C16A C 0.9689(4) 0.4262(7) 0.5600(3)
N3A N 0.7380(3) 0.4894(4) 0.3056(2)
O12A O 0.8070(3) 0.6856(4) 0.38535(18)
O13A O 0.8855(3) 0.7736(6) 0.3321(2)
C17A C 0.8337(3) 0.6884(6) 0.3408(3)
C18A C 0.7986(3) 0.5725(6) 0.2957(2)
C19A C 0.9730(5) 0.5308(9) 0.6017(3)
C20A C 0.7332(4) 0.3560(8) 0.2210(3)
H2A H 0.7098 0.2811 0.1959
C21A C 0.8289(5) 0.5534(9) 0.2490(3)
O14A O 0.6509(3) -0.0767(5) 0.2907(2)
H3A H 0.828(7) 0.415(13) 0.183(5)
H7A H 0.637(8) -0.136(10) 0.310(5)
H9A H 0.630(10) 0.002(7) 0.291(7)
H13A H 0.483(5) 0.133(14) 0.351(6)
H14A H 0.553(7) 0.155(12) 0.333(5)
H16A H 0.425(7) 0.367(12) 0.467(5)
H17A H 0.364(7) 0.711(12) 0.357(5)
H18A H 0.903(7) 0.679(12) 0.627(5)
H19A H 1.021(7) 0.370(13) 0.566(5)
H20A H 1.024(9) 0.528(12) 0.636(6)
H21A H 0.875(7) 0.623(12) 0.246(5)
O15B O 0.5849(3) 0.0882(5) -0.0536(2)
H5B H 0.606(8) 0.163(8) -0.049(5)
H6B H 0.569(9) 0.046(11) -0.081(3)
O16B O 0.3854(3) -0.0593(5) -0.0860(2)
H11B H 0.344(6) -0.053(15) -0.078(6)
H15B H 0.3915 -0.0025 -0.1106
O17B O -0.1395(3) 0.0936(5) -0.0349(3)
H4B H -0.163(8) 0.161(11) -0.061(5)
H10B H -0.170(5) 0.049(11) -0.034(6)
O18B O 0.0045(5) 0.0474(8) -0.0948(3)
H8B H -0.033(6) 0.000(13) -0.119(6)
H12B H 0.055(3) 0.025(14) -0.086(7)
O1_2 O 0.5194(2) -0.1909(4) 0.19075(17)
O1A_2 O 0.4806(2) -0.1909(4) 0.30925(17)
Ca1A Ca 0.5000 0.0000 0.5000
Ca2_2 Ca 0.5000 1.00585(13) 0.2500
Ca3A Ca 1.0000 0.0000 0.5000
O9B O 0.5559(3) -0.2176(4) -0.00709(18)
O10B O -0.0593(3) -0.2178(4) -0.0286(2)
O19 O 0.2000(5) 0.0896(7) 0.1542(3)
H22 H 0.213(8) 0.133(13) 0.125(4)
H23 H 0.166(8) 0.022(11) 0.136(5)
O20 O 0.7053(5) 0.9254(8) 0.1871(3)
H24 H 0.742(6) 0.982(11) 0.210(6)
H25 H 0.6575 0.9560 0.1885
O21 O 0.2414(5) 0.0918(9) 0.9898(4)
H26 H 0.280(7) 0.161(11) 0.991(6)
H27 H 0.240(10) 0.085(16) 1.018(2)
loop_
_geom_bond_atom_site_label_1
_geom_bond_atom_site_label_2
_geom_bond_site_symmetry_1
_geom_bond_site_symmetry_2
C1 C20 1_555 1_555
O1 C6 1_555 1_555
O2 Ca2 1_555 1_555
Ce1 O3 1_555 1_555
Ca1 O9 1_555 1_555
Ca2 O8 1_555 1_555
Ca3 O10 1_555 1_555
O3 C7 1_555 1_555
O4 Ce1 1_555 1_555
O5 Ce1 1_555 1_555
O6 Ce1 1_555 1_555
C2 O6 1_555 1_555
N1 Ce1 1_555 1_555
O7 Ce1 1_555 1_555
O8 C5 1_555 1_555
O9 C2 1_555 1_555
C3 C2 1_555 1_555
C4 O5 1_555 1_555
C5 O4 1_555 1_555
N2 Ce1 1_555 1_555
C6 O7 1_555 1_555
C7 O11 1_555 1_555
O10 C4 1_555 1_555
C8 N1 1_555 1_555
C9 C3 1_555 1_555
C10 C5 1_555 1_555
C11 N2 1_555 1_555
C12 C4 1_555 1_555
C13 C8 1_555 1_555
C14 C11 1_555 1_555
C15 C9 1_555 1_555
H1 C15 1_555 1_555
C16 C12 1_555 1_555
N3 Ce1 1_555 1_555
O12 Ce1 1_555 1_555
O13 C17 1_555 1_555
C17 O12 1_555 1_555
C18 N3 1_555 1_555
C19 C14 1_555 1_555
C20 C10 1_555 1_555
H2 C20 1_555 1_555
C21 C1 1_555 1_555
O14 Ca2 1_555 1_555
O15 Ca1 1_555 1_555
O16 Ca1 1_555 1_555
O17 Ca3 1_555 1_555
O18 Ca3 1_555 1_555
H3 C1 1_555 1_555
H4 O17 1_555 1_555
H5 O15 1_555 1_555
H6 O15 1_555 1_555
H7 O14 1_555 1_555
H8 O18 1_555 1_555
H9 O14 1_555 1_555
H10 O17 1_555 1_555
H11 O16 1_555 1_555
H12 O18 1_555 1_555
H13 O2 1_555 1_555
H14 O2 1_555 1_555
H15 O16 1_555 1_555
H16 C9 1_555 1_555
H17 C13 1_555 1_555
H18 C14 1_555 1_555
H19 C16 1_555 1_555
H20 C19 1_555 1_555
H21 C21 1_555 1_555
O19 H22 1_555 1_555
H23 O19 1_555 1_555
O20 H24 1_555 1_555
H25 O20 1_555 1_555
O21 H26 1_555 1_555
H27 O21 1_555 1_555
C1A C20A 1_555 1_555
O1A C6A 1_555 1_555
O2A Ca2 1_555 1_555
Ce1A O3A 1_555 1_555
O3A C7A 1_555 1_555
O4A Ce1A 1_555 1_555
O5A Ce1A 1_555 1_555
O6A Ce1A 1_555 1_555
C2A O6A 1_555 1_555
N1A Ce1A 1_555 1_555
O7A Ce1A 1_555 1_555
O8A Ca2 1_555 1_555
O9A C2A 1_555 1_555
C3A C2A 1_555 1_555
C4A O5A 1_555 1_555
C5A O4A 1_555 1_555
N2A Ce1A 1_555 1_555
C6A O7A 1_555 1_555
C7A O11A 1_555 1_555
O10A C4A 1_555 1_555
C8A N1A 1_555 1_555
C9A C3A 1_555 1_555
C10A C5A 1_555 1_555
C11A N2A 1_555 1_555
C12A C4A 1_555 1_555
C13A C8A 1_555 1_555
C14A C11A 1_555 1_555
C15A C9A 1_555 1_555
H1A C15A 1_555 1_555
C16A C12A 1_555 1_555
N3A Ce1A 1_555 1_555
O12A Ce1A 1_555 1_555
O13A C17A 1_555 1_555
C17A O12A 1_555 1_555
C18A N3A 1_555 1_555
C19A C14A 1_555 1_555
C20A C10A 1_555 1_555
H2A C20A 1_555 1_555
C21A C1A 1_555 1_555
O14A Ca2 1_555 1_555
H3A C1A 1_555 1_555
H7A O14A 1_555 1_555
H9A O14A 1_555 1_555
H13A O2A 1_555 1_555
H14A O2A 1_555 1_555
H16A C9A 1_555 1_555
H17A C13A 1_555 1_555
H18A C14A 1_555 1_555
H19A C16A 1_555 1_555
H20A C19A 1_555 1_555
H21A C21A 1_555 1_555
O15B Ca1 1_555 1_555
H5B O15B 1_555 1_555
H6B O15B 1_555 1_555
O16B Ca1 1_555 1_555
H11B O16B 1_555 1_555
H15B O16B 1_555 1_555
O17B Ca3 1_555 1_555
H4B O17B 1_555 1_555
H10B O17B 1_555 1_555
O18B Ca3 1_555 1_555
H8B O18B 1_555 1_555
H12B O18B 1_555 1_555
O1_2 Ca2 1_555 1_555
O1A_2 Ca2 1_555 1_555
Ca1A O9A 1_555 1_555
Ca2_2 O1 1_555 1_555
Ca3A O10A 1_555 1_555
O9B Ca1 1_555 1_555
O10B Ca3 1_555 1_555
N1 C3 1_555 1_555
N2 C12 1_555 1_555
C6 C8 1_555 1_555
C7 C11 1_555 1_555
C10 N3 1_555 1_555
C13 C15 1_555 1_555
C16 C19 1_555 1_555
C17 C18 1_555 1_555
C18 C21 1_555 1_555
O1A Ca2_2 1_555 1_555
N1A C3A 1_555 1_555
O8A C5A 1_555 1_555
N2A C12A 1_555 1_555
C6A C8A 1_555 1_555
C7A C11A 1_555 1_555
C10A N3A 1_555 1_555
C13A C15A 1_555 1_555
C16A C19A 1_555 1_555
C17A C18A 1_555 1_555
C18A C21A 1_555 1_555

#END
