
#######################################################################
#
#                 Cambridge Crystallographic Data Centre
#                                CCDC 
#
#######################################################################
#
# If this CIF has been generated from an entry in the Cambridge 
# Structural Database, then it will include bibliographic, chemical, 
# crystal, experimental, refinement or atomic coordinate data resulting 
# from the CCDC's data processing and validation procedures.
#
#######################################################################

data_NOQNEO
_symmetry_cell_setting           triclinic
_symmetry_space_group_name_H-M   'P -1'
_symmetry_Int_Tables_number      2
_space_group_name_Hall           '-P 1'
loop_
_symmetry_equiv_pos_site_id
_symmetry_equiv_pos_as_xyz
1 x,y,z
2 -x,-y,-z
_cell_length_a                   12.4915(9)
_cell_length_b                   16.6128(12)
_cell_length_c                   18.4466(13)
_cell_angle_alpha                69.077(2)
_cell_angle_beta                 87.148(2)
_cell_angle_gamma                82.691(2)
_cell_volume                     3546.51
loop_
_atom_site_label
_atom_site_type_symbol
_atom_site_fract_x
_atom_site_fract_y
_atom_site_fract_z
Cl3 Cl 0.1751(5) 0.3631(3) 0.7377(3)
O1 O 0.0810(4) 0.9039(3) 0.7692(3)
O2 O -0.0620(13) 0.9183(13) 0.7688(7)
O3 O -0.2331(4) 0.7143(4) 0.7265(3)
O4 O 0.2716(9) 0.8044(11) 0.7666(15)
Cs1 Cs 0.52189(3) 0.77813(2) 0.77655(2)
Cs2 Cs -0.11049(2) 0.80000(2) 0.84523(2)
C1 C 0.3867(3) 0.5672(3) 0.9157(3)
C2 C 0.2471(3) 0.5066(3) 1.0010(3)
C3 C 0.2404(3) 0.4876(3) 0.9228(3)
C4 C 0.0818(3) 0.5757(3) 0.9384(3)
C5 C 0.3744(4) 0.5161(3) 0.8075(3)
H1 H 0.3586 0.4602 0.8066
H2 H 0.4531 0.5152 0.8065
C6 C 0.0901(4) 0.5447(3) 0.8179(3)
H3 H 0.1020 0.4878 0.8122
H4 H 0.0120 0.5606 0.8198
C7 C 0.3907(4) 0.6421(3) 0.6863(3)
C8 C 0.2252(3) 0.5842(3) 0.7075(3)
H5 H 0.2191 0.5291 0.6994
C9 C 0.2207(4) 0.6623(3) 0.6300(3)
H6 H 0.2054 0.6455 0.5856
C10 C 0.0791(3) 0.6859(3) 0.7102(3)
C11 C 0.3669(4) 0.7503(3) 0.5530(3)
H7 H 0.3411 0.7385 0.5089
H8 H 0.4459 0.7398 0.5532
C12 C 0.0857(3) 0.7966(3) 0.5792(3)
H9 H 0.0837 0.7800 0.5334
H10 H 0.0110 0.8109 0.5934
C13 C 0.3962(3) 0.8857(3) 0.5689(2)
C14 C 0.2341(3) 0.8920(3) 0.5064(3)
C15 C 0.2507(3) 0.9865(3) 0.5023(2)
C16 C 0.0941(3) 0.9447(3) 0.5753(2)
C17 C 0.4031(3) 1.0343(3) 0.5632(3)
H11 H 0.3988 1.0861 0.5159
H12 H 0.4796 1.0123 0.5730
C18 C 0.1231(4) 1.0948(3) 0.5490(3)
H13 H 0.1460 1.1401 0.5021
H14 H 0.0441 1.1040 0.5516
C19 C 0.4138(3) 1.0386(3) 0.6955(3)
C20 C 0.2733(3) 1.1295(3) 0.6175(3)
H15 H 0.2864 1.1816 0.5722
C21 C 0.2733(4) 1.1468(3) 0.6946(3)
H16 H 0.2861 1.2072 0.6857
C22 C 0.1031(3) 1.1109(3) 0.6774(3)
C23 C 0.4104(4) 1.0939(3) 0.8035(3)
H17 H 0.4051 1.1557 0.7958
H18 H 0.4872 1.0720 0.8047
C24 C 0.1264(4) 1.1461(3) 0.7943(3)
H19 H 0.0474 1.1510 0.7941
H20 H 0.1468 1.2020 0.7921
C25 C 0.4151(3) 0.9756(3) 0.9291(3)
C26 C 0.2610(3) 1.0802(3) 0.9090(3)
C27 C 0.2494(3) 1.0030(3) 0.9879(3)
C28 C 0.1122(3) 1.0092(3) 0.9020(3)
C29 C 0.3861(4) 0.8700(3) 1.0584(3)
H21 H 0.3634 0.8785 1.1071
H22 H 0.4651 0.8596 1.0585
C30 C 0.1031(3) 0.8972(3) 1.0296(3)
H23 H 0.1040 0.9063 1.0792
H24 H 0.0276 0.9045 1.0141
C31 C 0.4037(3) 0.7307(3) 1.0350(3)
C32 C 0.2415(3) 0.7669(3) 1.0905(3)
H25 H 0.2312 0.7710 1.1427
C33 C 0.2470(3) 0.6722(3) 1.0939(3)
H26 H 0.2533 0.6301 1.1478
C34 C 0.0889(3) 0.7510(3) 1.0297(3)
C35 C 0.3893(3) 0.5821(3) 1.0424(3)
H27 H 0.4661 0.5848 1.0292
H28 H 0.3841 0.5366 1.0934
C36 C 0.1055(4) 0.5916(3) 1.0630(3)
H29 H 0.0265 0.6021 1.0608
H30 H 0.1254 0.5471 1.1135
C37 C 0.2643(4) 0.4267(3) 1.0742(3)
H31 H 0.3333 0.3940 1.0710
H32 H 0.2069 0.3908 1.0793
H33 H 0.2637 0.4444 1.1190
C38 C 0.2418(4) 0.3925(3) 0.9322(3)
H34 H 0.1787 0.3701 0.9614
H35 H 0.3065 0.3595 0.9597
H36 H 0.2412 0.3875 0.8814
C39 C 0.2131(4) 0.8839(3) 0.4298(3)
H37 H 0.1461 0.9190 0.4082
H38 H 0.2076 0.8237 0.4375
H39 H 0.2721 0.9039 0.3942
C40 C 0.2641(4) 1.0524(3) 0.4217(3)
H40 H 0.3284 1.0337 0.3975
H41 H 0.2709 1.1083 0.4254
H42 H 0.2015 1.0574 0.3906
C41 C 0.2672(4) 1.1678(3) 0.9155(3)
H43 H 0.3311 1.1650 0.9445
H44 H 0.2035 1.1832 0.9423
H45 H 0.2710 1.2112 0.8640
C42 C 0.2265(4) 1.0306(3) 1.0577(3)
H46 H 0.1574 1.0663 1.0512
H47 H 0.2828 1.0636 1.0623
H48 H 0.2246 0.9796 1.1043
N1 N 0.3385(3) 0.5580(2) 0.9860(2)
N2 N 0.3329(3) 0.5255(2) 0.8789(2)
N3 N 0.1443(3) 0.5585(2) 1.0024(2)
N4 N 0.1367(3) 0.5376(2) 0.8906(2)
N5 N 0.3299(3) 0.5847(2) 0.7380(2)
N6 N 0.3262(3) 0.6906(3) 0.6240(2)
N7 N 0.1342(3) 0.6078(2) 0.7507(2)
N8 N 0.1349(3) 0.7228(2) 0.6426(2)
N9 N 0.3350(3) 0.8407(2) 0.5421(2)
N10 N 0.3489(3) 0.9692(3) 0.5496(2)
N11 N 0.1411(3) 0.8731(2) 0.5590(2)
N12 N 0.1547(3) 1.0115(2) 0.5417(2)
N13 N 0.3597(3) 1.0594(3) 0.6277(2)
N14 N 0.3609(3) 1.0843(3) 0.7384(2)
N15 N 0.1666(3) 1.1050(3) 0.6157(2)
N16 N 0.1669(3) 1.1297(3) 0.7261(2)
N17 N 0.3619(3) 1.0487(2) 0.8775(2)
N18 N 0.3527(3) 0.9487(2) 0.9947(2)
N19 N 0.1654(3) 1.0800(3) 0.8662(2)
N20 N 0.1590(3) 0.9627(2) 0.9718(2)
N21 N 0.3436(3) 0.7933(2) 1.0568(2)
N22 N 0.3436(3) 0.6640(2) 1.0476(2)
N23 N 0.1490(3) 0.8096(3) 1.0409(2)
N24 N 0.1469(3) 0.6709(3) 1.0579(2)
O5 O 0.4671(2) 0.6035(2) 0.8910(2)
O6 O 0.4850(2) 0.6491(2) 0.69335(19)
O7 O 0.4831(2) 0.8572(2) 0.60217(18)
O8 O 0.4956(2) 0.9871(2) 0.7145(2)
O9 O 0.5039(2) 0.9414(2) 0.9199(2)
O10 O 0.4960(2) 0.7332(2) 1.0097(2)
O11 O -0.0079(2) 0.6159(2) 0.9265(2)
O12 O -0.0049(2) 0.7184(2) 0.73032(19)
O13 O 0.0113(2) 0.9479(2) 0.61280(19)
O14 O 0.0076(2) 1.1014(2) 0.6855(2)
O15 O 0.0330(2) 0.9924(2) 0.8763(2)
O16 O -0.0010(2) 0.7680(2) 1.0006(2)
O17 O 0.6555(3) 0.8023(2) 0.9033(2)
O18 O -0.2914(3) 0.9604(3) 0.7720(2)
O3_2 O 0.7669(4) 0.7143(4) 0.7265(3)
Cs1_2 Cs -0.47811(3) 0.77813(2) 0.77655(2)
Cs2_2 Cs 0.88951(2) 0.80000(2) 0.84523(2)
O17_2 O -0.3445(3) 0.8023(2) 0.9033(2)
Cl1 Cl 0.6400(7) 0.5870(4) 0.5492(3)
Cl2? Cl 0.6357(5) 0.5392(10) 0.6075(10)
Cl4? Cl 0.3335(4) 0.3502(2) 0.7298(2)
loop_
_geom_bond_atom_site_label_1
_geom_bond_atom_site_label_2
_geom_bond_site_symmetry_1
_geom_bond_site_symmetry_2
O1 Cs2 1_555 1_555
O2 Cs2 1_555 1_555
O3 Cs2 1_555 1_555
O4 Cs1 1_555 1_555
Cs1 O5 1_555 1_555
Cs2 O11 1_555 1_555
C1 N1 1_555 1_555
C2 C3 1_555 1_555
C3 C38 1_555 1_555
C4 N3 1_555 1_555
C5 H1 1_555 1_555
H2 C5 1_555 1_555
C6 H3 1_555 1_555
H4 C6 1_555 1_555
C7 N5 1_555 1_555
C8 H5 1_555 1_555
C9 C8 1_555 1_555
H6 C9 1_555 1_555
C10 N7 1_555 1_555
C11 H7 1_555 1_555
H8 C11 1_555 1_555
C12 H9 1_555 1_555
H10 C12 1_555 1_555
C13 N9 1_555 1_555
C14 C15 1_555 1_555
C15 C40 1_555 1_555
C16 N11 1_555 1_555
C17 H11 1_555 1_555
H12 C17 1_555 1_555
C18 H13 1_555 1_555
H14 C18 1_555 1_555
C19 N13 1_555 1_555
C20 H15 1_555 1_555
C21 C20 1_555 1_555
H16 C21 1_555 1_555
C22 N15 1_555 1_555
C23 H17 1_555 1_555
H18 C23 1_555 1_555
C24 H19 1_555 1_555
H20 C24 1_555 1_555
C25 N17 1_555 1_555
C26 C27 1_555 1_555
C27 C42 1_555 1_555
C28 N19 1_555 1_555
C29 H21 1_555 1_555
H22 C29 1_555 1_555
C30 H23 1_555 1_555
H24 C30 1_555 1_555
C31 N21 1_555 1_555
C32 H25 1_555 1_555
C33 C32 1_555 1_555
H26 C33 1_555 1_555
C34 N23 1_555 1_555
C35 H27 1_555 1_555
H28 C35 1_555 1_555
C36 H29 1_555 1_555
H30 C36 1_555 1_555
C37 C2 1_555 1_555
H31 C37 1_555 1_555
H32 C37 1_555 1_555
H33 C37 1_555 1_555
C38 H34 1_555 1_555
H35 C38 1_555 1_555
H36 C38 1_555 1_555
C39 C14 1_555 1_555
H37 C39 1_555 1_555
H38 C39 1_555 1_555
H39 C39 1_555 1_555
C40 H40 1_555 1_555
H41 C40 1_555 1_555
H42 C40 1_555 1_555
C41 C26 1_555 1_555
H43 C41 1_555 1_555
H44 C41 1_555 1_555
H45 C41 1_555 1_555
C42 H46 1_555 1_555
H47 C42 1_555 1_555
H48 C42 1_555 1_555
N1 C2 1_555 1_555
N2 C1 1_555 1_555
N3 C2 1_555 1_555
N4 C3 1_555 1_555
N5 C5 1_555 1_555
N6 C7 1_555 1_555
N7 C6 1_555 1_555
N8 C9 1_555 1_555
N9 C11 1_555 1_555
N10 C13 1_555 1_555
N11 C12 1_555 1_555
N12 C15 1_555 1_555
N13 C17 1_555 1_555
N14 C19 1_555 1_555
N15 C18 1_555 1_555
N16 C21 1_555 1_555
N17 C23 1_555 1_555
N18 C25 1_555 1_555
N19 C24 1_555 1_555
N20 C27 1_555 1_555
N21 C29 1_555 1_555
N22 C31 1_555 1_555
N23 C30 1_555 1_555
N24 C33 1_555 1_555
O5 C1 1_555 1_555
O6 Cs1 1_555 1_555
O7 Cs1 1_555 1_555
O8 Cs1 1_555 1_555
O9 C25 1_555 1_555
O10 C31 1_555 1_555
O11 C4 1_555 1_555
O12 Cs2 1_555 1_555
O13 C16 1_555 1_555
O14 C22 1_555 1_555
O15 C28 1_555 1_555
O16 Cs2 1_555 1_555
O17 Cs1 1_555 1_555
O18 Cs2 1_555 1_555
O3_2 Cs1 1_555 1_555
Cs1_2 O3 1_555 1_555
Cs2_2 O17 1_555 1_555
O17_2 Cs2 1_555 1_555
C3 N2 1_555 1_555
C4 N4 1_555 1_555
C5 N2 1_555 1_555
C6 N4 1_555 1_555
C7 O6 1_555 1_555
C8 N5 1_555 1_555
C8 N7 1_555 1_555
C9 N6 1_555 1_555
C10 N8 1_555 1_555
C10 O12 1_555 1_555
C11 N6 1_555 1_555
C12 N8 1_555 1_555
C13 O7 1_555 1_555
C14 N9 1_555 1_555
C14 N11 1_555 1_555
C15 N10 1_555 1_555
C16 N12 1_555 1_555
C17 N10 1_555 1_555
C18 N12 1_555 1_555
C19 O8 1_555 1_555
C20 N13 1_555 1_555
C20 N15 1_555 1_555
C21 N14 1_555 1_555
C22 N16 1_555 1_555
C23 N14 1_555 1_555
C24 N16 1_555 1_555
C26 N17 1_555 1_555
C26 N19 1_555 1_555
C27 N18 1_555 1_555
C28 N20 1_555 1_555
C29 N18 1_555 1_555
C30 N20 1_555 1_555
C32 N21 1_555 1_555
C32 N23 1_555 1_555
C33 N22 1_555 1_555
C34 N24 1_555 1_555
C34 O16 1_555 1_555
C35 N1 1_555 1_555
C35 N22 1_555 1_555
C36 N3 1_555 1_555
C36 N24 1_555 1_555
O3_2 Cs2_2 1_555 1_555
Cs1_2 O17_2 1_555 1_555

#END
