
#######################################################################
#
#                 Cambridge Crystallographic Data Centre
#                                CCDC 
#
#######################################################################
#
# If this CIF has been generated from an entry in the Cambridge 
# Structural Database, then it will include bibliographic, chemical, 
# crystal, experimental, refinement or atomic coordinate data resulting 
# from the CCDC's data processing and validation procedures.
#
#######################################################################

data_NOQPAL
_symmetry_cell_setting           triclinic
_symmetry_space_group_name_H-M   'P -1'
_symmetry_Int_Tables_number      2
_space_group_name_Hall           '-P 1'
loop_
_symmetry_equiv_pos_site_id
_symmetry_equiv_pos_as_xyz
1 x,y,z
2 -x,-y,-z
_cell_length_a                   10.06020(10)
_cell_length_b                   14.3435(2)
_cell_length_c                   14.6637(2)
_cell_angle_alpha                104.0520(10)
_cell_angle_beta                 102.6330(10)
_cell_angle_gamma                110.4600(10)
_cell_volume                     1812.7
loop_
_atom_site_label
_atom_site_type_symbol
_atom_site_fract_x
_atom_site_fract_y
_atom_site_fract_z
O1 O -0.38999(16) 0.07873(13) 0.39068(12)
O2 O 0.48532(16) 0.06651(13) 0.14855(12)
O3 O 0.0320(2) -0.28100(15) 0.00966(16)
O4 O -0.1856(2) -0.28002(15) -0.02566(18)
C1 C -0.2137(2) 0.40567(17) 0.18610(17)
C2 C -0.3176(2) 0.33731(19) 0.08772(17)
C3 C -0.4691(3) 0.1676(2) -0.02115(18)
H1 H -0.5058 0.0946 -0.0358
C4 C -0.5213(3) 0.2053(3) -0.0939(2)
H2 H -0.5929 0.1580 -0.1552
C5 C -0.4671(3) 0.3113(3) -0.0749(2)
H3 H -0.4999 0.3370 -0.1236
Mn1 Mn 0.50277(3) 0.18469(2) 0.40921(2)
Mn2 Mn -0.28274(3) 0.18118(3) 0.19550(2)
O5 O -0.22209(16) 0.19531(12) 0.35061(11)
O6 O 0.46448(15) 0.19055(12) 0.26097(11)
O7 O 0.28394(16) 0.18994(12) 0.41974(13)
O8 O -0.04288(18) 0.19540(13) 0.18704(14)
N1 N -0.18114(19) 0.35909(14) 0.25249(13)
C6 C 0.0582(2) 0.03847(16) 0.38410(14)
N2 N 0.60980(19) 0.36391(14) 0.47322(15)
C7 C -0.2442(2) -0.05564(16) 0.36682(15)
H4 H -0.3447 -0.0876 0.3619
O9 O 0.29375(16) 0.03586(12) 0.38289(13)
C8 C -0.0057(2) 0.03872(16) 0.13375(14)
C9 C 0.2403(2) 0.04240(16) 0.14906(14)
N3 N 0.61892(19) 0.23126(13) 0.57383(13)
C10 C -0.0278(2) 0.09562(16) 0.38222(15)
H5 H 0.0160 0.1661 0.3867
C11 C -0.1018(2) 0.09678(18) 0.15297(15)
C12 C -0.0072(2) -0.06723(16) 0.37599(15)
H6 H 0.0485 -0.1071 0.3763
C13 C -0.1786(2) 0.04910(16) 0.37374(14)
C14 C -0.0717(2) -0.06970(17) 0.08307(15)
H7 H -0.1756 -0.1082 0.0612
C15 C 0.0202(2) -0.11973(16) 0.06560(15)
C16 C 0.1751(2) -0.06559(17) 0.09654(15)
H8 H 0.2340 -0.1010 0.0824
O10 O -0.23937(16) 0.04323(13) 0.13500(13)
C17 C -0.1575(2) -0.11164(16) 0.36741(15)
C18 C 0.2228(2) 0.09112(17) 0.39602(15)
C19 C 0.1499(2) 0.09427(16) 0.16730(14)
H9 H 0.1942 0.1670 0.2024
C20 C -0.1522(3) 0.51645(19) 0.2104(2)
C21 C 0.6698(2) 0.33550(17) 0.62839(17)
C22 C 0.4087(2) 0.10391(17) 0.18864(16)
C23 C -0.2706(2) 0.11226(17) 0.37167(15)
N4 N -0.0494(2) -0.23528(16) 0.01253(15)
N5 N -0.2287(2) -0.22294(15) 0.35983(16)
C24 C 0.6636(2) 0.40590(17) 0.57451(18)
N6 N -0.3696(2) 0.23105(15) 0.06785(14)
C25 C 0.6353(3) 0.1663(2) 0.62129(19)
H10 H 0.6012 0.0950 0.5840
O11 O -0.3650(2) -0.27042(15) 0.32496(17)
O12 O -0.1460(2) -0.26194(15) 0.39173(19)
C26 C 0.6126(3) 0.4296(2) 0.4231(2)
H11 H 0.5766 0.4019 0.3538
C27 C 0.7204(3) 0.51567(18) 0.6283(2)
C28 C 0.6685(3) 0.5404(2) 0.4716(3)
H12 H 0.6693 0.5846 0.4345
C29 C -0.0212(3) 0.5308(2) 0.3741(2)
H13 H 0.0433 0.5714 0.4392
C30 C -0.0876(3) 0.4210(2) 0.34357(18)
H14 H -0.0652 0.3893 0.3894
C31 C -0.3611(3) 0.3823(2) 0.0185(2)
C32 C 0.7351(3) 0.3753(2) 0.73312(19)
C33 C 0.7495(3) 0.3033(3) 0.7796(2)
H15 H 0.7925 0.3266 0.8486
C34 C 0.7210(3) 0.5818(2) 0.5727(3)
H16 H 0.7576 0.6546 0.6050
C35 C -0.0517(3) 0.5781(2) 0.3078(2)
H17 H -0.0058 0.6517 0.3268
C36 C 0.7013(3) 0.1998(2) 0.7248(2)
H18 H 0.7119 0.1519 0.7553
C37 C 0.7804(3) 0.5524(2) 0.7353(2)
H19 H 0.8152 0.6242 0.7712
C38 C -0.2953(4) 0.4958(3) 0.0461(3)
H20 H -0.3231 0.5260 0.0001
C39 C 0.7876(3) 0.4866(2) 0.7845(2)
H21 H 0.8277 0.5136 0.8538
C40 C -0.1950(4) 0.5589(2) 0.1364(3)
H22 H -0.1522 0.6320 0.1513
O1_2 O 0.61001(16) 0.07873(13) 0.39068(12)
O2_2 O -0.51468(16) 0.06651(13) 0.14855(12)
Mn1_2 Mn -0.49723(3) 0.18469(2) 0.40921(2)
Mn2_2 Mn 0.71726(3) 0.18118(3) 0.19550(2)
loop_
_geom_bond_atom_site_label_1
_geom_bond_atom_site_label_2
_geom_bond_site_symmetry_1
_geom_bond_site_symmetry_2
O1 C23 1_555 1_555
O2 C22 1_555 1_555
O3 N4 1_555 1_555
O4 N4 1_555 1_555
C1 C2 1_555 1_555
C2 N6 1_555 1_555
C3 H1 1_555 1_555
C4 C3 1_555 1_555
H2 C4 1_555 1_555
C5 C4 1_555 1_555
H3 C5 1_555 1_555
Mn1 O6 1_555 1_555
Mn2 O5 1_555 1_555
O5 C23 1_555 1_555
O6 C22 1_555 1_555
O7 Mn1 1_555 1_555
O8 Mn2 1_555 1_555
N1 C1 1_555 1_555
C6 C10 1_555 1_555
N2 Mn1 1_555 1_555
C7 H4 1_555 1_555
O9 Mn1 1_555 1_555
C8 C11 1_555 1_555
C9 C16 1_555 1_555
N3 Mn1 1_555 1_555
C10 H5 1_555 1_555
C11 O8 1_555 1_555
C12 C6 1_555 1_555
H6 C12 1_555 1_555
C13 C7 1_555 1_555
C14 C8 1_555 1_555
H7 C14 1_555 1_555
C15 C14 1_555 1_555
C16 C15 1_555 1_555
H8 C16 1_555 1_555
O10 Mn2 1_555 1_555
C17 C7 1_555 1_555
C18 O7 1_555 1_555
C19 C8 1_555 1_555
H9 C19 1_555 1_555
C20 C1 1_555 1_555
C21 N3 1_555 1_555
C22 C9 1_555 1_555
C23 C13 1_555 1_555
N4 C15 1_555 1_555
N5 C17 1_555 1_555
C24 N2 1_555 1_555
N6 C3 1_555 1_555
C25 N3 1_555 1_555
H10 C25 1_555 1_555
O11 N5 1_555 1_555
O12 N5 1_555 1_555
C26 N2 1_555 1_555
H11 C26 1_555 1_555
C27 C24 1_555 1_555
C28 C26 1_555 1_555
H12 C28 1_555 1_555
C29 H13 1_555 1_555
C30 N1 1_555 1_555
H14 C30 1_555 1_555
C31 C2 1_555 1_555
C32 C21 1_555 1_555
C33 C32 1_555 1_555
H15 C33 1_555 1_555
C34 C27 1_555 1_555
H16 C34 1_555 1_555
C35 C20 1_555 1_555
H17 C35 1_555 1_555
C36 C25 1_555 1_555
H18 C36 1_555 1_555
C37 C27 1_555 1_555
H19 C37 1_555 1_555
C38 C31 1_555 1_555
H20 C38 1_555 1_555
C39 C32 1_555 1_555
H21 C39 1_555 1_555
C40 C20 1_555 1_555
H22 C40 1_555 1_555
O1_2 Mn1 1_555 1_555
O2_2 Mn2 1_555 1_555
Mn1_2 O1 1_555 1_555
Mn2_2 O2 1_555 1_555
C5 C31 1_555 1_555
Mn2 N1 1_555 1_555
Mn2 N6 1_555 1_555
C6 C18 1_555 1_555
O9 C18 1_555 1_555
C9 C19 1_555 1_555
C10 C13 1_555 1_555
C11 O10 1_555 1_555
C12 C17 1_555 1_555
C21 C24 1_555 1_555
C28 C34 1_555 1_555
C29 C30 1_555 1_555
C29 C35 1_555 1_555
C33 C36 1_555 1_555
C37 C39 1_555 1_555
C38 C40 1_555 1_555

#END
