
#######################################################################
#
#                 Cambridge Crystallographic Data Centre
#                                CCDC 
#
#######################################################################
#
# If this CIF has been generated from an entry in the Cambridge 
# Structural Database, then it will include bibliographic, chemical, 
# crystal, experimental, refinement or atomic coordinate data resulting 
# from the CCDC's data processing and validation procedures.
#
#######################################################################

data_NOQPEQ
_symmetry_cell_setting           monoclinic
_symmetry_space_group_name_H-M   'P 21/n'
_symmetry_Int_Tables_number      14
_space_group_name_Hall           '-P 2yn'
loop_
_symmetry_equiv_pos_site_id
_symmetry_equiv_pos_as_xyz
1 x,y,z
2 1/2-x,1/2+y,1/2-z
3 -x,-y,-z
4 1/2+x,1/2-y,1/2+z
_cell_length_a                   11.9628(3)
_cell_length_b                   12.1224(2)
_cell_length_c                   13.3303(2)
_cell_angle_alpha                90
_cell_angle_beta                 103.1432(19)
_cell_angle_gamma                90
_cell_volume                     1882.49
loop_
_atom_site_label
_atom_site_type_symbol
_atom_site_fract_x
_atom_site_fract_y
_atom_site_fract_z
Cu1 Cu 0.43260(2) -0.03214(2) 0.67234(2)
Cl1 Cl 0.64263(5) 0.17076(5) 0.69876(4)
O1 O 0.67782(15) 0.27482(15) 0.74735(13)
O2 O 0.53139(14) 0.14098(15) 0.71889(13)
O3 O 0.72493(15) 0.08634(16) 0.74073(13)
O4 O 0.63279(16) 0.17789(15) 0.58951(12)
N1 N 0.28136(15) 0.03538(15) 0.60636(13)
N2 N 0.15102(15) 0.16471(15) 0.54296(13)
N3 N 0.08021(16) 0.44820(15) 0.67919(14)
N4 N 0.46816(16) 0.13461(16) 0.38097(13)
N5 N 0.10146(15) 0.35682(15) 0.54607(13)
N6 N 0.06405(16) 0.35158(16) 0.63455(13)
C1 C 0.26065(18) 0.12532(18) 0.54940(15)
C2 C 0.09772(19) 0.09239(18) 0.59860(16)
C3 C 0.36411(19) 0.28559(19) 0.48914(17)
H1 H 0.3326 0.3355 0.5279
C4 C 0.0439(2) -0.0785(2) 0.71433(17)
H2 H 0.0241 -0.1357 0.7534
C5 C 0.09488(19) 0.25683(19) 0.48301(16)
H3 H 0.0150 0.2386 0.4547
H4 H 0.1310 0.2706 0.4260
C6 C 0.2251(2) 0.6156(2) 0.47270(18)
H5 H 0.2576 0.6505 0.4240
C7 C 0.39637(19) 0.10101(19) 0.43875(15)
H6 H 0.3828 0.0258 0.4430
C8 C 0.17972(19) 0.01208(19) 0.63751(16)
C9 C 0.48357(19) 0.2442(2) 0.37344(17)
H7 H 0.5293 0.2691 0.3302
C10 C 0.14219(18) 0.46014(18) 0.53254(16)
C11 C 0.12918(18) 0.51843(19) 0.61938(16)
C12 C 0.34134(18) 0.17340(18) 0.49256(15)
C13 C 0.4349(2) 0.3214(2) 0.42657(17)
H8 H 0.4494 0.3962 0.4205
C14 C -0.0378(2) 0.0025(2) 0.67500(18)
H9 H -0.1107 -0.0026 0.6882
C15 C -0.01286(19) 0.0900(2) 0.61700(17)
H10 H -0.0667 0.1444 0.5916
C16 C 0.2146(2) 0.6753(2) 0.56156(18)
H11 H 0.2410 0.7476 0.5701
C17 C 0.16587(19) 0.6283(2) 0.63559(17)
H12 H 0.1577 0.6675 0.6935
C18 C 0.1535(2) -0.07540(19) 0.69652(17)
H13 H 0.2075 -0.1294 0.7228
C19 C 0.1892(2) 0.5084(2) 0.45587(17)
H14 H 0.1957 0.4700 0.3971
Cu1A Cu 0.06740(2) 0.46786(2) 0.82766(2)
Cu1B Cu 0.56740(2) 0.03214(2) 0.32766(2)
N3A N 0.41979(16) -0.05180(15) 0.82081(14)
N4B N 0.53184(16) -0.13461(16) 0.61903(13)
loop_
_geom_bond_atom_site_label_1
_geom_bond_atom_site_label_2
_geom_bond_site_symmetry_1
_geom_bond_site_symmetry_2
Cu1 O2 1_555 1_555
Cl1 O1 1_555 1_555
O2 Cl1 1_555 1_555
O3 Cl1 1_555 1_555
O4 Cl1 1_555 1_555
N1 Cu1 1_555 1_555
N2 C1 1_555 1_555
N3 N6 1_555 1_555
N4 C7 1_555 1_555
N5 N6 1_555 1_555
C1 N1 1_555 1_555
C2 N2 1_555 1_555
C3 H1 1_555 1_555
C4 H2 1_555 1_555
C5 N2 1_555 1_555
H3 C5 1_555 1_555
H4 C5 1_555 1_555
C6 H5 1_555 1_555
C7 H6 1_555 1_555
C8 N1 1_555 1_555
C9 N4 1_555 1_555
H7 C9 1_555 1_555
C10 N5 1_555 1_555
C11 N3 1_555 1_555
C12 C1 1_555 1_555
C13 C3 1_555 1_555
H8 C13 1_555 1_555
C14 C4 1_555 1_555
H9 C14 1_555 1_555
C15 C2 1_555 1_555
H10 C15 1_555 1_555
C16 C6 1_555 1_555
H11 C16 1_555 1_555
C17 C11 1_555 1_555
H12 C17 1_555 1_555
C18 C4 1_555 1_555
H13 C18 1_555 1_555
C19 C6 1_555 1_555
H14 C19 1_555 1_555
Cu1A N3 1_555 1_555
Cu1B N4 1_555 1_555
N3A Cu1 1_555 1_555
N4B Cu1 1_555 1_555
N5 C5 1_555 1_555
C2 C8 1_555 1_555
C3 C12 1_555 1_555
C7 C12 1_555 1_555
C8 C18 1_555 1_555
C9 C13 1_555 1_555
C10 C11 1_555 1_555
C10 C19 1_555 1_555
C14 C15 1_555 1_555
C16 C17 1_555 1_555

#END
