
#######################################################################
#
#                 Cambridge Crystallographic Data Centre
#                                CCDC 
#
#######################################################################
#
# If this CIF has been generated from an entry in the Cambridge 
# Structural Database, then it will include bibliographic, chemical, 
# crystal, experimental, refinement or atomic coordinate data resulting 
# from the CCDC's data processing and validation procedures.
#
#######################################################################

data_NOQPAM
_symmetry_cell_setting           triclinic
_symmetry_space_group_name_H-M   'P -1'
_symmetry_Int_Tables_number      2
_space_group_name_Hall           '-P 1'
loop_
_symmetry_equiv_pos_site_id
_symmetry_equiv_pos_as_xyz
1 x,y,z
2 -x,-y,-z
_cell_length_a                   10.1719(7)
_cell_length_b                   11.5557(8)
_cell_length_c                   15.2081(10)
_cell_angle_alpha                106.0210(10)
_cell_angle_beta                 109.2510(10)
_cell_angle_gamma                90.5970(10)
_cell_volume                     1611.94
loop_
_atom_site_label
_atom_site_type_symbol
_atom_site_fract_x
_atom_site_fract_y
_atom_site_fract_z
Ce1 Ce 0.364183(14) 0.209156(12) 0.229582(10)
Ba1 Ba 0.593405(16) 0.752561(13) 0.340170(11)
Ba2 Ba 0.111458(16) -0.328298(13) 0.115767(11)
O1 O 0.4241(2) 0.43090(17) 0.32215(14)
O2 O 0.5124(2) 0.27483(17) 0.14335(13)
O3 O 0.51553(19) 0.04739(16) 0.26494(13)
O4 O 0.1890(2) 0.02503(17) 0.15688(13)
O5 O 0.6999(2) -0.02050(17) 0.35663(14)
O6 O 0.5379(2) 0.53999(19) 0.18591(15)
O7 O 0.1453(2) -0.11637(18) 0.26470(15)
O8 O 0.0760(2) -0.14214(17) 0.03681(14)
O9 O 0.0270(2) 0.42897(17) 0.08844(14)
O10 O 0.5743(2) 0.58708(17) 0.43402(14)
O11 O 0.5690(2) 0.26211(18) 0.01073(15)
O12 O -0.1767(2) -0.33023(18) 0.05439(15)
O13 O 0.3018(2) -0.43796(19) 0.02869(15)
O14 O 0.8446(2) 0.6560(2) 0.33823(15)
O15 O 0.7781(2) 0.75227(18) 0.22986(15)
O16 O 0.9679(2) 0.66159(19) 0.24701(15)
O17 O 0.3036(2) 0.62761(19) 0.28023(14)
O18 O 0.4153(2) 0.9157(2) 0.40028(17)
O19 O 0.2110(2) 0.17026(17) 0.47412(13)
O20 O 0.3930(2) 0.80529(18) 0.17148(15)
O21 O 0.3302(2) 0.16596(17) 0.37363(13)
O22 O 0.20289(19) 0.31586(17) 0.12364(13)
N1 N 0.5981(2) 0.2735(2) 0.37548(16)
N2 N 0.8640(2) 0.6899(2) 0.27180(17)
N3 N 0.1454(2) 0.28218(19) 0.27113(15)
N4 N 0.3229(2) 0.0830(2) 0.05001(16)
C1 C 0.5364(3) 0.4774(2) 0.39338(19)
C2 C 0.6322(3) 0.3886(2) 0.43036(19)
C3 C 0.3871(3) 0.1212(2) -0.00292(19)
C4 C 0.5002(3) 0.2279(2) 0.0545(2)
C5 C 0.6281(3) 0.0613(2) 0.33718(19)
C6 C 0.6762(3) 0.1894(2) 0.40430(19)
C7 C 0.7917(3) 0.2172(2) 0.48940(19)
H1 H 0.8429 0.1569 0.5089
C8 C 0.8290(3) 0.3388(3) 0.5452(2)
H2 H 0.9076 0.3611 0.6018
C9 C 0.7477(3) 0.4254(3) 0.5152(2)
H3 H 0.7703 0.5067 0.5513
C10 C 0.1544(3) -0.0458(2) 0.07032(19)
C11 C 0.0572(3) 0.3435(2) 0.21890(19)
C12 C -0.0609(3) 0.3827(3) 0.2382(2)
H4 H -0.1218 0.4235 0.1998
C13 C -0.0861(3) 0.3598(3) 0.3162(2)
H5 H -0.1641 0.3861 0.3316
C14 C 0.0054(3) 0.2976(3) 0.3711(2)
H6 H -0.0102 0.2815 0.4237
C15 C 0.1209(3) 0.2594(2) 0.34638(19)
C16 C 0.3474(3) 0.0702(2) -0.1024(2)
H7 H 0.3939 0.0975 -0.1375
C17 C 0.2294(3) 0.1928(2) 0.40331(19)
C18 C 0.2187(3) -0.0074(2) 0.00480(19)
C19 C 0.1725(3) -0.0624(3) -0.0951(2)
H8 H 0.0995 -0.1249 -0.1246
C20 C 0.2374(3) -0.0222(3) -0.1499(2)
H9 H 0.2079 -0.0563 -0.2172
C21 C 0.0975(3) 0.3649(2) 0.13651(19)
H10 H 0.472(4) 0.540(3) 0.135(2)
H11 H 0.545(4) 0.469(3) 0.182(3)
H12 H 0.096(4) -0.099(3) 0.298(3)
H13 H 0.146(4) -0.066(3) 0.238(3)
H14 H -0.205(4) -0.287(3) 0.093(2)
H15 H -0.202(4) -0.309(3) 0.004(2)
H16 H 0.272(4) -0.503(3) -0.010(3)
H17 H 0.335(4) -0.400(3) 0.002(3)
H18 H 0.333(4) 0.561(3) 0.288(3)
H19 H 0.275(4) 0.654(3) 0.326(3)
H20 H 0.433(4) 0.985(3) 0.419(3)
H21 H 0.335(3) 0.908(3) 0.368(3)
H22 H 0.409(4) 0.791(3) 0.121(2)
H23 H 0.412(4) 0.879(3) 0.197(3)
Ba1_2 Ba 0.593405(16) -0.247439(13) 0.340170(11)
Ba1A Ba 0.406595(16) 0.247439(13) 0.659830(11)
Ba2_2 Ba 0.111458(16) 0.671702(13) 0.115767(11)
Ba2_3 Ba 1.111458(16) 0.671702(13) 0.115767(11)
Ba2A Ba -0.111458(16) 0.328298(13) -0.115767(11)
O5_2 O 0.6999(2) 0.97950(17) 0.35663(14)
O9_2 O 0.0270(2) -0.57103(17) 0.08844(14)
O9A O -0.0270(2) -0.42897(17) -0.08844(14)
O16_2 O -0.0321(2) -0.33841(19) 0.24701(15)
O17_2 O 0.3036(2) -0.37239(19) 0.28023(14)
O19A O 0.7890(2) 0.82974(17) 0.52588(13)
O20_2 O 0.3930(2) -0.19471(18) 0.17148(15)
O23 O 0.0024(2) 0.0331(2) 0.61286(16)
H24 H 0.085(3) 0.027(3) 0.621(3)
H25 H -0.044(4) -0.029(3) 0.576(3)
loop_
_geom_bond_atom_site_label_1
_geom_bond_atom_site_label_2
_geom_bond_site_symmetry_1
_geom_bond_site_symmetry_2
Ce1 O1 1_555 1_555
Ba1 O6 1_555 1_555
Ba2 O7 1_555 1_555
O1 C1 1_555 1_555
O2 Ce1 1_555 1_555
O3 Ce1 1_555 1_555
O4 Ce1 1_555 1_555
O5 C5 1_555 1_555
O6 H10 1_555 1_555
O7 H12 1_555 1_555
O8 Ba2 1_555 1_555
O9 C21 1_555 1_555
O10 Ba1 1_555 1_555
O11 C4 1_555 1_555
O12 Ba2 1_555 1_555
O13 Ba2 1_555 1_555
O14 Ba1 1_555 1_555
O15 Ba1 1_555 1_555
O16 N2 1_555 1_555
O17 Ba1 1_555 1_555
O18 Ba1 1_555 1_555
O19 C17 1_555 1_555
O20 Ba1 1_555 1_555
O21 Ce1 1_555 1_555
O22 Ce1 1_555 1_555
N1 Ce1 1_555 1_555
N2 O14 1_555 1_555
N3 Ce1 1_555 1_555
N4 Ce1 1_555 1_555
C1 O10 1_555 1_555
C2 N1 1_555 1_555
C3 N4 1_555 1_555
C4 O2 1_555 1_555
C5 O3 1_555 1_555
C6 N1 1_555 1_555
C7 C6 1_555 1_555
H1 C7 1_555 1_555
C8 C7 1_555 1_555
H2 C8 1_555 1_555
C9 C2 1_555 1_555
H3 C9 1_555 1_555
C10 O4 1_555 1_555
C11 N3 1_555 1_555
C12 C11 1_555 1_555
H4 C12 1_555 1_555
C13 C12 1_555 1_555
H5 C13 1_555 1_555
C14 C13 1_555 1_555
H6 C14 1_555 1_555
C15 N3 1_555 1_555
C16 C3 1_555 1_555
H7 C16 1_555 1_555
C17 O21 1_555 1_555
C18 N4 1_555 1_555
C19 C18 1_555 1_555
H8 C19 1_555 1_555
C20 C16 1_555 1_555
H9 C20 1_555 1_555
C21 O22 1_555 1_555
H11 O6 1_555 1_555
H13 O7 1_555 1_555
H14 O12 1_555 1_555
H15 O12 1_555 1_555
H16 O13 1_555 1_555
H17 O13 1_555 1_555
H18 O17 1_555 1_555
H19 O17 1_555 1_555
H20 O18 1_555 1_555
H21 O18 1_555 1_555
H22 O20 1_555 1_555
H23 O20 1_555 1_555
O23 H24 1_555 1_555
H25 O23 1_555 1_555
Ba1_2 O5 1_555 1_555
Ba1A O19 1_555 1_555
Ba2_2 O9 1_555 1_555
Ba2_3 O16 1_555 1_555
Ba2A O9 1_555 1_555
O5_2 Ba1 1_555 1_555
O9_2 Ba2 1_555 1_555
O9A Ba2 1_555 1_555
O16_2 Ba2 1_555 1_555
O17_2 Ba2 1_555 1_555
O19A Ba1 1_555 1_555
O20_2 Ba2 1_555 1_555
O8 C10 1_555 1_555
O15 N2 1_555 1_555
O17 Ba2_2 1_555 1_555
O20 Ba2_2 1_555 1_555
C1 C2 1_555 1_555
C3 C4 1_555 1_555
C5 C6 1_555 1_555
C8 C9 1_555 1_555
C10 C18 1_555 1_555
C11 C21 1_555 1_555
C14 C15 1_555 1_555
C15 C17 1_555 1_555
C19 C20 1_555 1_555
Ba1_2 O17_2 1_555 1_555
Ba1_2 O20_2 1_555 1_555

#END
