
#######################################################################
#
#                 Cambridge Crystallographic Data Centre
#                                CCDC 
#
#######################################################################
#
# If this CIF has been generated from an entry in the Cambridge 
# Structural Database, then it will include bibliographic, chemical, 
# crystal, experimental, refinement or atomic coordinate data resulting 
# from the CCDC's data processing and validation procedures.
#
#######################################################################

data_NOQQUH
_symmetry_cell_setting           monoclinic
_symmetry_space_group_name_H-M   'P 21'
_symmetry_Int_Tables_number      4
_space_group_name_Hall           'P 2yb'
loop_
_symmetry_equiv_pos_site_id
_symmetry_equiv_pos_as_xyz
1 x,y,z
2 -x,1/2+y,-z
_cell_length_a                   9.6022(2)
_cell_length_b                   13.5031(3)
_cell_length_c                   11.6648(3)
_cell_angle_alpha                90
_cell_angle_beta                 99.493(2)
_cell_angle_gamma                90
_cell_volume                     1491.74
loop_
_atom_site_label
_atom_site_type_symbol
_atom_site_fract_x
_atom_site_fract_y
_atom_site_fract_z
Zn1 Zn 0.23329(2) -0.000448(17) 0.153790(18)
N1 N 0.23508(17) 0.01502(15) -0.04107(13)
C1 C 0.1150(2) 0.0116(2) -0.11836(16)
H1 H 0.0294 0.0149 -0.0910
C2 C 0.11283(19) 0.0035(2) -0.23644(15)
H2 H 0.0268 0.0019 -0.2866
C3 C 0.23730(17) -0.0022(2) -0.28101(14)
C4 C 0.36142(19) 0.0029(3) -0.20051(15)
H3 H 0.4485 -0.0004 -0.2253
C5 C 0.3547(2) 0.0127(2) -0.08450(16)
H4 H 0.4392 0.0182 -0.0329
C6 C 0.23770(19) -0.0097(2) -0.40797(15)
C7 C 0.1174(2) -0.03512(19) -0.48548(18)
H5 H 0.0342 -0.0503 -0.4582
C8 C 0.1215(2) -0.03777(18) -0.60249(18)
H6 H 0.0397 -0.0561 -0.6523
N2 N 0.23462(16) -0.01589(17) -0.64907(13)
C9 C 0.3513(2) 0.0075(3) -0.57436(16)
H7 H 0.4328 0.0230 -0.6041
C10 C 0.3566(2) 0.0097(3) -0.45600(16)
H8 H 0.4413 0.0245 -0.4078
O1 O 0.07270(15) -0.10470(12) 0.12457(13)
O2 O 0.02633(16) -0.26418(12) 0.09284(13)
C11 C 0.1092(2) -0.19401(17) 0.11187(16)
C12 C 0.2677(2) -0.21509(16) 0.11515(18)
H9 H 0.2811 -0.2264 0.0347
N3 N 0.35642(19) -0.12872(14) 0.15853(15)
H10 H 0.4304(15) -0.1303(18) 0.1209(17)
H11 H 0.393(2) -0.1386(18) 0.2333(7)
C13 C 0.3148(2) -0.31057(17) 0.18336(18)
H12 H 0.2513 -0.3640 0.1543
H13 H 0.4087 -0.3285 0.1701
C14 C 0.3165(2) -0.29913(15) 0.31226(17)
C15 C 0.1952(2) -0.30639(19) 0.3612(2)
H14 H 0.1103 -0.3219 0.3139
C16 C 0.1966(2) -0.2912(2) 0.4787(2)
H15 H 0.1131 -0.2957 0.5091
C17 C 0.3225(2) -0.26933(16) 0.55142(18)
C18 C 0.4444(2) -0.26205(18) 0.50452(18)
H16 H 0.5293 -0.2471 0.5522
C19 C 0.4413(2) -0.27687(18) 0.38695(18)
H17 H 0.5248 -0.2718 0.3568
O3 O 0.31719(16) -0.25446(14) 0.66635(13)
H18 H 0.3983(12) -0.244(2) 0.699(2)
O4 O 0.39132(15) 0.10374(12) 0.19679(12)
O5 O 0.43442(15) 0.26515(11) 0.19998(13)
C20 C 0.3528(2) 0.19206(17) 0.18305(15)
C21 C 0.1967(2) 0.21496(16) 0.13682(16)
H19 H 0.1921 0.2275 0.0535
N4 N 0.10670(19) 0.12739(14) 0.14409(15)
H20 H 0.0389(17) 0.1320(18) 0.0812(12)
H21 H 0.067(2) 0.1313(18) 0.2088(12)
C22 C 0.1441(2) 0.31040(16) 0.18613(17)
H22 H 0.1801 0.3658 0.1468
H23 H 0.0420 0.3117 0.1657
C23 C 0.1815(2) 0.32814(16) 0.31601(17)
C24 C 0.2428(2) 0.41706(17) 0.35578(18)
H24 H 0.2648 0.4630 0.3021
C25 C 0.2723(2) 0.43981(16) 0.47335(19)
H25 H 0.3128 0.5005 0.4975
C26 C 0.2414(2) 0.37216(18) 0.55450(18)
C27 C 0.1825(3) 0.28211(18) 0.51766(19)
H26 H 0.1627 0.2357 0.5716
C28 C 0.1531(2) 0.26104(17) 0.39928(18)
H27 H 0.1131 0.2002 0.3753
O6 O 0.2701(2) 0.39778(14) 0.66901(14)
H28 H 0.249(3) 0.3458(12) 0.698(2)
Zn1_2 Zn 0.23329(2) -0.000448(17) -0.846210(18)
N2_2 N 0.23462(16) -0.01589(17) 0.35093(13)
O7 O 0.59244(19) -0.14820(16) 0.01931(14)
H29 H 0.574(3) -0.171(2) -0.0469(11)
H30 H 0.644(3) -0.1023(17) 0.007(2)
O8 O 0.2225(2) 0.25295(16) 0.80970(15)
H31 H 0.1465(13) 0.255(3) 0.833(2)
H32 H 0.275(2) 0.2675(19) 0.8699(11)
O9 O 0.18566(17) 0.48686(18) 0.96298(13)
H33 H 0.201(3) 0.513(2) 0.9036(13)
H34 H 0.117(2) 0.4532(19) 0.937(2)
O10 O 0.1736(2) 0.58663(18) 0.7503(2)
H35 H 0.223(3) 0.6350(16) 0.741(3)
H36 H 0.216(3) 0.548(2) 0.714(3)
loop_
_geom_bond_atom_site_label_1
_geom_bond_atom_site_label_2
_geom_bond_site_symmetry_1
_geom_bond_site_symmetry_2
Zn1 N1 1_555 1_555
N1 C1 1_555 1_555
C1 H1 1_555 1_555
C2 C1 1_555 1_555
H2 C2 1_555 1_555
C3 C2 1_555 1_555
C4 C3 1_555 1_555
H3 C4 1_555 1_555
C5 N1 1_555 1_555
H4 C5 1_555 1_555
C6 C3 1_555 1_555
C7 C6 1_555 1_555
H5 C7 1_555 1_555
C8 C7 1_555 1_555
H6 C8 1_555 1_555
N2 C8 1_555 1_555
C9 N2 1_555 1_555
H7 C9 1_555 1_555
C10 C6 1_555 1_555
H8 C10 1_555 1_555
O1 Zn1 1_555 1_555
O2 C11 1_555 1_555
C11 O1 1_555 1_555
C12 C11 1_555 1_555
H9 C12 1_555 1_555
N3 Zn1 1_555 1_555
H10 N3 1_555 1_555
H11 N3 1_555 1_555
C13 C12 1_555 1_555
H12 C13 1_555 1_555
H13 C13 1_555 1_555
C14 C13 1_555 1_555
C15 C14 1_555 1_555
H14 C15 1_555 1_555
C16 C15 1_555 1_555
H15 C16 1_555 1_555
C17 C16 1_555 1_555
C18 C17 1_555 1_555
H16 C18 1_555 1_555
C19 C14 1_555 1_555
H17 C19 1_555 1_555
O3 C17 1_555 1_555
H18 O3 1_555 1_555
O4 Zn1 1_555 1_555
O5 C20 1_555 1_555
C20 O4 1_555 1_555
C21 C20 1_555 1_555
H19 C21 1_555 1_555
N4 Zn1 1_555 1_555
H20 N4 1_555 1_555
H21 N4 1_555 1_555
C22 C21 1_555 1_555
H22 C22 1_555 1_555
H23 C22 1_555 1_555
C23 C22 1_555 1_555
C24 C23 1_555 1_555
H24 C24 1_555 1_555
C25 C24 1_555 1_555
H25 C25 1_555 1_555
C26 C25 1_555 1_555
C27 C26 1_555 1_555
H26 C27 1_555 1_555
C28 C23 1_555 1_555
H27 C28 1_555 1_555
O6 C26 1_555 1_555
H28 O6 1_555 1_555
O7 H29 1_555 1_555
H30 O7 1_555 1_555
O8 H31 1_555 1_555
H32 O8 1_555 1_555
O9 H33 1_555 1_555
H34 O9 1_555 1_555
O10 H35 1_555 1_555
H36 O10 1_555 1_555
Zn1_2 N2 1_555 1_555
N2_2 Zn1 1_555 1_555
C4 C5 1_555 1_555
C9 C10 1_555 1_555
C12 N3 1_555 1_555
C18 C19 1_555 1_555
C21 N4 1_555 1_555
C27 C28 1_555 1_555

#END
