
#######################################################################
#
#                 Cambridge Crystallographic Data Centre
#                                CCDC 
#
#######################################################################
#
# If this CIF has been generated from an entry in the Cambridge 
# Structural Database, then it will include bibliographic, chemical, 
# crystal, experimental, refinement or atomic coordinate data resulting 
# from the CCDC's data processing and validation procedures.
#
#######################################################################

data_NOQSOB
_symmetry_cell_setting           tetragonal
_symmetry_space_group_name_H-M   'P -4'
_symmetry_Int_Tables_number      81
_space_group_name_Hall           'P -4'
loop_
_symmetry_equiv_pos_site_id
_symmetry_equiv_pos_as_xyz
1 x,y,z
2 y,-x,-z
3 -x,-y,z
4 -y,x,-z
_cell_length_a                   11.984(2)
_cell_length_b                   11.984(2)
_cell_length_c                   4.625(1)
_cell_angle_alpha                90
_cell_angle_beta                 90
_cell_angle_gamma                90
_cell_volume                     664.225
loop_
_atom_site_label
_atom_site_type_symbol
_atom_site_fract_x
_atom_site_fract_y
_atom_site_fract_z
Ag1 Ag 1.0000 0.0000 1.0000
O1 O 0.5000 0.0000 0.7302(9)
N1 N 0.8615(3) -0.1204(3) 0.803(1)
N2 N 0.5386(3) -0.0872(3) 1.1515(9)
C1 C 0.5650(3) -0.1923(3) 1.015(1)
C2 C 0.6776(3) -0.1959(3) 0.868(1)
C3 C 0.8050(5) -0.2834(4) 0.546(1)
C4 C 0.7019(4) -0.2811(4) 0.675(1)
C5 C 0.8826(4) -0.2014(4) 0.617(1)
C6 C 0.7598(4) -0.1186(4) 0.923(1)
C7 C 0.5000 0.0000 0.998(1)
H1 H 0.959(5) -0.204(5) 0.55(2)
H2 H 0.741(3) -0.066(4) 1.05(1)
H3 H 0.554(5) -0.237(5) 1.23(1)
H4 H 0.508(4) -0.204(5) 0.89(1)
H5 H 0.535(4) -0.078(4) 1.34(2)
H6 H 0.823(7) -0.309(6) 0.40(2)
H7 H 0.643(4) -0.334(4) 0.63(1)
N1A N 0.8796(3) 0.1385(3) 1.197(1)
N1B N 1.1385(3) 0.1204(3) 0.803(1)
N1C N 1.1204(3) -0.1385(3) 1.197(1)
N2B N 0.4614(3) 0.0872(3) 1.1515(9)
C5A C 0.7986(4) 0.1174(4) 1.383(1)
C6A C 0.8814(4) 0.2402(4) 1.077(1)
C1B C 0.4350(3) 0.1923(3) 1.015(1)
H5B H 0.465(4) 0.078(4) 1.34(2)
C3A C 0.7166(4) 0.1950(5) 1.454(1)
H1A H 0.796(5) 0.041(5) 1.45(2)
C2A C 0.8041(3) 0.3224(3) 1.132(1)
H2A H 0.934(4) 0.259(3) 0.95(1)
C2B C 0.3224(3) 0.1959(3) 0.868(1)
H3B H 0.446(5) 0.237(5) 1.23(1)
H4B H 0.492(4) 0.204(5) 0.89(1)
C4A C 0.7189(4) 0.2981(4) 1.325(1)
H6A H 0.691(6) 0.177(7) 1.60(2)
C1A C 0.8077(3) 0.4350(3) 0.985(1)
C4B C 0.2981(4) 0.2811(4) 0.675(1)
C6B C 0.2402(4) 0.1186(4) 0.923(1)
H7A H 0.666(4) 0.357(4) 1.37(1)
N2A N 0.9128(3) 0.4614(3) 0.8485(9)
H3A H 0.763(5) 0.446(5) 0.77(1)
H4A H 0.796(5) 0.492(4) 1.11(1)
C3B C 0.1950(5) 0.2834(4) 0.546(1)
H7B H 0.357(4) 0.334(4) 0.63(1)
N1B_2 N 0.1385(3) 0.1204(3) 0.803(1)
H2B H 0.259(3) 0.066(4) 1.05(1)
C7A C 1.0000 0.5000 1.002(1)
H5A H 0.922(4) 0.465(4) 0.66(2)
C5B C 0.1174(4) 0.2014(4) 0.617(1)
H6B H 0.177(7) 0.309(6) 0.40(2)
Ag1_2 Ag 0.0000 0.0000 1.0000
O1A O 1.0000 0.5000 1.2698(9)
N2C N 1.0872(3) 0.5386(3) 0.8485(9)
H1B H 0.041(5) 0.204(5) 0.55(2)
C1C C 1.1923(3) 0.5650(3) 0.985(1)
H5C H 1.078(4) 0.535(4) 0.66(2)
C2C C 1.1959(3) 0.6776(3) 1.132(1)
H3C H 1.237(5) 0.554(5) 0.77(1)
H4C H 1.204(5) 0.508(4) 1.11(1)
C4C C 1.2811(4) 0.7019(4) 1.325(1)
C6C C 1.1186(4) 0.7598(4) 1.077(1)
C3C C 1.2834(4) 0.8050(5) 1.454(1)
H7C H 1.334(4) 0.643(4) 1.37(1)
N1C_2 N 1.1204(3) 0.8615(3) 1.197(1)
H2C H 1.066(4) 0.741(3) 0.95(1)
C5C C 1.2014(4) 0.8826(4) 1.383(1)
H6C H 1.309(6) 0.823(7) 1.60(2)
Ag1_3 Ag 1.0000 1.0000 1.0000
H1C H 1.204(5) 0.959(5) 1.45(2)
F1 F 0.4502(2) -0.4189(2) 0.8294(8)
B1 B 0.5000 -0.5 1.0000
F1C F 0.4189(2) -0.5498(2) 1.1706(8)
F1B F 0.5498(2) -0.5811(2) 0.8294(8)
F1A F 0.5811(2) -0.4502(2) 1.1706(8)
loop_
_geom_bond_atom_site_label_1
_geom_bond_atom_site_label_2
_geom_bond_site_symmetry_1
_geom_bond_site_symmetry_2
Ag1 N1 1_555 1_555
F1 B1 1_555 1_555
O1 C7 1_555 1_555
N1 C5 1_555 1_555
N2 C1 1_555 1_555
C1 C2 1_555 1_555
C2 C4 1_555 1_555
C3 C4 1_555 1_555
C4 H7 1_555 1_555
C5 C3 1_555 1_555
C6 N1 1_555 1_555
C7 N2 1_555 1_555
B1 F1C 1_555 1_555
H1 C5 1_555 1_555
H2 C6 1_555 1_555
H3 C1 1_555 1_555
H4 C1 1_555 1_555
H5 N2 1_555 1_555
H6 C3 1_555 1_555
N1A Ag1 1_555 1_555
N1B Ag1 1_555 1_555
N1C Ag1 1_555 1_555
N2B C7 1_555 1_555
F1B B1 1_555 1_555
F1A B1 1_555 1_555
C5A N1A 1_555 1_555
C6A N1A 1_555 1_555
C1B N2B 1_555 1_555
H5B N2B 1_555 1_555
C3A C5A 1_555 1_555
H1A C5A 1_555 1_555
C2A C6A 1_555 1_555
H2A C6A 1_555 1_555
C2B C1B 1_555 1_555
H3B C1B 1_555 1_555
H4B C1B 1_555 1_555
C4A C3A 1_555 1_555
H6A C3A 1_555 1_555
C1A C2A 1_555 1_555
C4B C2B 1_555 1_555
C6B C2B 1_555 1_555
H7A C4A 1_555 1_555
N2A C1A 1_555 1_555
H3A C1A 1_555 1_555
H4A C1A 1_555 1_555
C3B C4B 1_555 1_555
H7B C4B 1_555 1_555
N1B_2 C6B 1_555 1_555
H2B C6B 1_555 1_555
C7A N2A 1_555 1_555
H5A N2A 1_555 1_555
C5B C3B 1_555 1_555
H6B C3B 1_555 1_555
Ag1_2 N1B_2 1_555 1_555
O1A C7A 1_555 1_555
N2C C7A 1_555 1_555
H1B C5B 1_555 1_555
C1C N2C 1_555 1_555
H5C N2C 1_555 1_555
C2C C1C 1_555 1_555
H3C C1C 1_555 1_555
H4C C1C 1_555 1_555
C4C C2C 1_555 1_555
C6C C2C 1_555 1_555
C3C C4C 1_555 1_555
H7C C4C 1_555 1_555
N1C_2 C6C 1_555 1_555
H2C C6C 1_555 1_555
C5C C3C 1_555 1_555
H6C C3C 1_555 1_555
Ag1_3 N1C_2 1_555 1_555
H1C C5C 1_555 1_555
C2 C6 1_555 1_555
C2A C4A 1_555 1_555
N1B_2 C5B 1_555 1_555
N1C_2 C5C 1_555 1_555

#END
