
#######################################################################
#
#                 Cambridge Crystallographic Data Centre
#                                CCDC 
#
#######################################################################
#
# If this CIF has been generated from an entry in the Cambridge 
# Structural Database, then it will include bibliographic, chemical, 
# crystal, experimental, refinement or atomic coordinate data resulting 
# from the CCDC's data processing and validation procedures.
#
#######################################################################

data_NOQSUH
_symmetry_cell_setting           tetragonal
_symmetry_space_group_name_H-M   'P 4/n'
_symmetry_Int_Tables_number      85
_space_group_name_Hall           '-P 4a'
loop_
_symmetry_equiv_pos_site_id
_symmetry_equiv_pos_as_xyz
1 x,y,z
2 1/2-y,x,z
3 1/2-x,1/2-y,z
4 y,1/2-x,z
5 -x,-y,-z
6 1/2+y,-x,-z
7 1/2+x,1/2+y,-z
8 -y,1/2+x,-z
_cell_length_a                   16.869(2)
_cell_length_b                   16.869(2)
_cell_length_c                   5.123(1)
_cell_angle_alpha                90
_cell_angle_beta                 90
_cell_angle_gamma                90
_cell_volume                     1457.82
loop_
_atom_site_label
_atom_site_type_symbol
_atom_site_fract_x
_atom_site_fract_y
_atom_site_fract_z
O2 O 0.301(2) 0.194(2) 0.278(3)
O3 O 0.257(4) 0.186(1) 0.28(1)
N3 N 0.2500 0.2500 0.285(1)
O2C O 0.194(2) 0.199(2) 0.278(3)
O3C O 0.186(1) 0.243(4) 0.28(1)
O2B O 0.199(2) 0.306(2) 0.278(3)
O3B O 0.243(4) 0.314(1) 0.28(1)
O2A O 0.306(2) 0.301(2) 0.278(3)
O3A O 0.314(1) 0.257(4) 0.28(1)
Ag1 Ag 0.2500 0.7500 0.0000
O1 O 0.0674(2) 1.0195(2) 0.2526(4)
N1 N 0.0803(2) 1.0378(2) -0.1847(5)
N2 N 0.2708(2) 0.8747(2) -0.1913(6)
C1 C 0.0416(2) 1.0159(2) 0.0278(7)
C2 C 0.1609(2) 1.0692(2) -0.1826(7)
C3 C 0.2198(2) 1.0061(2) -0.2601(6)
C4 C 0.2214(2) 0.9342(2) -0.1332(7)
C5 C 0.3213(2) 0.8870(2) -0.3858(8)
C6 C 0.3240(2) 0.9561(3) -0.5244(8)
C7 C 0.2726(2) 1.0167(2) -0.4632(8)
H1 H 0.0573 1.0387 -0.3552
H2 H 0.1654 1.1155 -0.3136
H3 H 0.1751 1.0943 -0.0033
H4 H 0.1842 0.9229 0.0019
H5 H 0.3561 0.8423 -0.4430
H6 H 0.3622 0.9637 -0.6754
H7 H 0.2770 1.0691 -0.5436
C1D C -0.0416(2) 0.9841(2) -0.0278(7)
O1D O -0.0674(2) 0.9805(2) -0.2526(4)
N1D N -0.0803(2) 0.9622(2) 0.1847(5)
C2D C -0.1609(2) 0.9308(2) 0.1826(7)
C3D C -0.2198(2) 0.9939(2) 0.2601(6)
C4D C -0.2214(2) 1.0658(2) 0.1332(7)
N2D N -0.2708(2) 1.1253(2) 0.1913(6)
Ag1D Ag -0.2500 1.2500 0.0000
N2F N -0.2292(2) 1.3747(2) 0.1913(6)
C4F C -0.2786(2) 1.4342(2) 0.1332(7)
C3F C -0.2802(2) 1.5061(2) 0.2601(6)
C2F C -0.3391(2) 1.5692(2) 0.1826(7)
N1F N -0.4197(2) 1.5378(2) 0.1847(5)
C1F C -0.4584(2) 1.5159(2) -0.0278(7)
O1F O -0.4326(2) 1.5195(2) -0.2526(4)
C1B C -0.5416(2) 1.4841(2) 0.0278(7)
O1B O -0.5674(2) 1.4805(2) 0.2526(4)
N1B N -0.5803(2) 1.4622(2) -0.1847(5)
C2B C -0.6609(2) 1.4308(2) -0.1826(7)
C3B C -0.7198(2) 1.4939(2) -0.2601(6)
C4B C -0.7214(2) 1.5658(2) -0.1332(7)
N2B N -0.7708(2) 1.6253(2) -0.1913(6)
Ag1B Ag -0.7500 1.7500 0.0000
C5B C -0.8213(2) 1.6130(2) -0.3858(8)
C6B C -0.8240(2) 1.5439(3) -0.5244(8)
C7B C -0.7726(2) 1.4833(2) -0.4632(8)
H7B H -0.7770 1.4309 -0.5436
H6B H -0.8622 1.5363 -0.6754
H5B H -0.8561 1.6577 -0.4430
H4B H -0.6842 1.5771 0.0019
H2B H -0.6654 1.3845 -0.3136
H3B H -0.6751 1.4057 -0.0033
H1B H -0.5573 1.4613 -0.3552
H1F H -0.4427 1.5387 0.3552
H2F H -0.3346 1.6155 0.3136
H3F H -0.3249 1.5943 0.0033
C7F C -0.2274(2) 1.5167(2) 0.4632(8)
C6F C -0.1760(2) 1.4561(3) 0.5244(8)
C5F C -0.1787(2) 1.3870(2) 0.3858(8)
H5F H -0.1439 1.3423 0.4430
H6F H -0.1378 1.4637 0.6754
H7F H -0.2230 1.5691 0.5436
H4F H -0.3158 1.4229 -0.0019
N2A N -0.3747(2) 1.2708(2) -0.1913(6)
N2C N -0.1253(2) 1.2292(2) -0.1913(6)
C5D C -0.3213(2) 1.1130(2) 0.3858(8)
C6D C -0.3240(2) 1.0439(3) 0.5244(8)
C7D C -0.2726(2) 0.9833(2) 0.4632(8)
H7D H -0.2770 0.9309 0.5436
H6D H -0.3622 1.0363 0.6754
H5D H -0.3561 1.1577 0.4430
H4D H -0.1842 1.0771 -0.0019
H2D H -0.1654 0.8845 0.3136
H3D H -0.1751 0.9057 0.0033
H1D H -0.0573 0.9613 0.3552
loop_
_geom_bond_atom_site_label_1
_geom_bond_atom_site_label_2
_geom_bond_site_symmetry_1
_geom_bond_site_symmetry_2
Ag1 N2 1_555 1_555
O1 C1 1_555 1_555
O2 O3 1_555 1_555
O3 N3 1_555 1_555
N1 C1 1_555 1_555
N2 C4 1_555 1_555
N3 O2 1_555 1_555
C1 C1D 1_555 1_555
C2 N1 1_555 1_555
C3 C2 1_555 1_555
C4 C3 1_555 1_555
C5 N2 1_555 1_555
C6 C5 1_555 1_555
C7 C3 1_555 1_555
H1 N1 1_555 1_555
H2 C2 1_555 1_555
H3 C2 1_555 1_555
H4 C4 1_555 1_555
H5 C5 1_555 1_555
H6 C6 1_555 1_555
H7 C7 1_555 1_555
C1D O1D 1_555 1_555
N1D C1D 1_555 1_555
C2D N1D 1_555 1_555
C3D C2D 1_555 1_555
C4D C3D 1_555 1_555
N2D C4D 1_555 1_555
Ag1D N2D 1_555 1_555
N2F Ag1D 1_555 1_555
C4F N2F 1_555 1_555
C3F C4F 1_555 1_555
C2F C3F 1_555 1_555
N1F C2F 1_555 1_555
C1F N1F 1_555 1_555
O1F C1F 1_555 1_555
C1B C1F 1_555 1_555
O1B C1B 1_555 1_555
N1B C1B 1_555 1_555
C2B N1B 1_555 1_555
C3B C2B 1_555 1_555
C4B C3B 1_555 1_555
N2B C4B 1_555 1_555
Ag1B N2B 1_555 1_555
C5B N2B 1_555 1_555
C6B C5B 1_555 1_555
C7B C3B 1_555 1_555
H7B C7B 1_555 1_555
H6B C6B 1_555 1_555
H5B C5B 1_555 1_555
H4B C4B 1_555 1_555
H2B C2B 1_555 1_555
H3B C2B 1_555 1_555
H1B N1B 1_555 1_555
H1F N1F 1_555 1_555
H2F C2F 1_555 1_555
H3F C2F 1_555 1_555
C7F C3F 1_555 1_555
C6F C7F 1_555 1_555
C5F N2F 1_555 1_555
H5F C5F 1_555 1_555
H6F C6F 1_555 1_555
H7F C7F 1_555 1_555
H4F C4F 1_555 1_555
N2A Ag1D 1_555 1_555
N2C Ag1D 1_555 1_555
C5D N2D 1_555 1_555
C6D C5D 1_555 1_555
C7D C3D 1_555 1_555
H7D C7D 1_555 1_555
H6D C6D 1_555 1_555
H5D C5D 1_555 1_555
H4D C4D 1_555 1_555
H2D C2D 1_555 1_555
H3D C2D 1_555 1_555
H1D N1D 1_555 1_555
O2C O3 1_555 1_555
O3C O3 1_555 1_555
O2B N3 1_555 1_555
O3B N3 1_555 1_555
O2A N3 1_555 1_555
O3A O2 1_555 1_555
O3 O3A 1_555 1_555
N3 O2C 1_555 1_555
N3 O3C 1_555 1_555
N3 O3A 1_555 1_555
C6 C7 1_555 1_555
C6B C7B 1_555 1_555
C6F C5F 1_555 1_555
C6D C7D 1_555 1_555
O2C O3C 1_555 1_555
O3C O2B 1_555 1_555
O3C O3B 1_555 1_555
O2B O3B 1_555 1_555
O3B O2A 1_555 1_555
O3B O3A 1_555 1_555
O2A O3A 1_555 1_555

#END
