
#######################################################################
#
#                 Cambridge Crystallographic Data Centre
#                                CCDC 
#
#######################################################################
#
# If this CIF has been generated from an entry in the Cambridge 
# Structural Database, then it will include bibliographic, chemical, 
# crystal, experimental, refinement or atomic coordinate data resulting 
# from the CCDC's data processing and validation procedures.
#
#######################################################################

data_NOQYOH
_symmetry_cell_setting           monoclinic
_symmetry_space_group_name_H-M   'C c'
_symmetry_Int_Tables_number      9
_space_group_name_Hall           'C -2yc'
loop_
_symmetry_equiv_pos_site_id
_symmetry_equiv_pos_as_xyz
1 x,y,z
2 x,-y,1/2+z
3 1/2+x,1/2+y,z
4 1/2+x,1/2-y,1/2+z
_cell_length_a                   20.737(6)
_cell_length_b                   9.801(3)
_cell_length_c                   18.849(5)
_cell_angle_alpha                90
_cell_angle_beta                 125.34(2)
_cell_angle_gamma                90
_cell_volume                     3125.02
loop_
_atom_site_label
_atom_site_type_symbol
_atom_site_fract_x
_atom_site_fract_y
_atom_site_fract_z
Eu1 Eu 0.1336(1) 0.2168(1) -0.0155(1)
Sn1 Sn 0.3897(1) 0.2791(1) 0.2255(1)
S1 S 0.3050(2) 0.1161(4) 0.0766(2)
S2 S -0.0403(2) 0.1228(4) -0.1045(2)
S3 S 0.0306(2) 0.3949(3) -0.1860(2)
S4 S 0.2445(2) 0.3274(3) 0.1917(2)
N1 N 0.2321(6) 0.2711(11) -0.0639(6)
C1 C 0.3030(7) 0.2362(13) 0.0081(8)
C2 C 0.3717(7) 0.3012(12) 0.0260(8)
C3 C 0.3659(8) 0.3938(13) -0.0305(8)
C4 C 0.2950(8) 0.4275(13) -0.1050(9)
C5 C 0.2290(8) 0.3629(13) -0.1198(8)
N2 N 0.0312(6) 0.3207(10) 0.0133(6)
C6 C -0.0374(8) 0.2501(12) -0.0344(9)
C7 C -0.0985(8) 0.2690(14) -0.0276(9)
C8 C -0.0910(8) 0.3652(15) 0.0310(10)
C9 C -0.0203(8) 0.4410(14) 0.0806(9)
C10 C 0.0370(7) 0.4139(12) 0.0683(8)
N3 N -0.1099(5) 0.4207(9) -0.2151(6)
C11 C -0.0364(7) 0.4792(11) -0.1742(7)
C12 C -0.0220(8) 0.5998(14) -0.1288(7)
C13 C -0.0776(8) 0.6635(14) -0.1239(8)
C14 C -0.1528(8) 0.6008(13) -0.1676(8)
C15 C -0.1653(7) 0.4804(14) -0.2112(8)
N4 N 0.2016(5) 0.4688(10) 0.0498(6)
C16 C 0.2459(7) 0.4708(13) 0.1372(8)
C17 C 0.2959(7) 0.5816(13) 0.1823(8)
C18 C 0.3002(8) 0.6844(13) 0.1382(8)
C19 C 0.2561(8) 0.6813(13) 0.0483(8)
C20 C 0.2088(7) 0.5693(12) 0.0082(8)
N5 N 0.1260(5) 0.0153(10) 0.0801(6)
C21 C 0.1029(8) 0.0318(13) 0.1302(8)
C22 C 0.0845(8) -0.0724(15) 0.1642(8)
C23 C 0.0921(8) -0.2041(13) 0.1432(9)
C24 C 0.1163(8) -0.2239(15) 0.0924(9)
C25 C 0.1318(8) -0.1128(14) 0.0603(9)
N6 N 0.1155(6) -0.0107(11) -0.1239(6)
C26 C 0.1758(7) -0.0508(13) -0.1255(7)
C27 C 0.1791(9) -0.1615(14) -0.1666(9)
C28 C 0.1130(10) -0.2431(14) -0.2138(9)
C29 C 0.0467(9) -0.2014(14) -0.2208(10)
C30 C 0.0481(8) -0.0842(15) -0.1761(9)
H1 H 0.4219(7) 0.2798(12) 0.0777(8)
H2 H 0.4126(8) 0.4366(13) -0.0180(8)
H3 H 0.2911(8) 0.4922(13) -0.1449(9)
H4 H 0.1789(8) 0.3837(13) -0.1717(8)
H5 H -0.1457(8) 0.2172(14) -0.0624(9)
H6 H -0.1327(8) 0.3796(15) 0.0375(10)
H7 H -0.0129(8) 0.5082(14) 0.1210(9)
H8 H 0.0845(7) 0.4651(12) 0.1014(8)
H9 H 0.0290(8) 0.6397(14) -0.0998(7)
H10 H -0.0664(8) 0.7463(14) -0.0925(8)
H11 H -0.1940(8) 0.6413(13) -0.1669(8)
H12 H -0.2157(7) 0.4380(14) -0.2398(8)
H13 H 0.3266(7) 0.5841(13) 0.2440(8)
H14 H 0.3339(8) 0.7599(13) 0.1690(8)
H15 H 0.2584(8) 0.7532(13) 0.0160(8)
H16 H 0.1794(7) 0.5636(12) -0.0533(8)
H17 H 0.0982(8) 0.1225(13) 0.1444(8)
H18 H 0.0675(8) -0.0550(15) 0.2005(8)
H19 H 0.0800(8) -0.2799(13) 0.1650(9)
H20 H 0.1228(8) -0.3137(15) 0.0785(9)
H21 H 0.1474(8) -0.1277(14) 0.0224(9)
H22 H 0.2220(7) 0.0044(13) -0.0943(7)
H23 H 0.2257(9) -0.1823(14) -0.1628(9)
H24 H 0.1135(10) -0.3250(14) -0.2404(9)
H25 H -0.0010(9) -0.2517(14) -0.2561(10)
H26 H 0.0011(8) -0.0563(15) -0.1827(9)
Sn1C Sn -0.1103(1) 0.2209(1) -0.2745(1)
S1C S -0.1950(2) 0.3839(4) -0.4234(2)
S4C S -0.2555(2) 0.1726(3) -0.3083(2)
loop_
_geom_bond_atom_site_label_1
_geom_bond_atom_site_label_2
_geom_bond_site_symmetry_1
_geom_bond_site_symmetry_2
Eu1 S1 1_555 1_555
Sn1 S1 1_555 1_555
S1 C1 1_555 1_555
S2 Eu1 1_555 1_555
S3 Eu1 1_555 1_555
S4 Eu1 1_555 1_555
N1 Eu1 1_555 1_555
C1 N1 1_555 1_555
C2 C1 1_555 1_555
C3 C2 1_555 1_555
C4 C3 1_555 1_555
C5 N1 1_555 1_555
N2 Eu1 1_555 1_555
C6 S2 1_555 1_555
C7 C6 1_555 1_555
C8 C7 1_555 1_555
C9 C8 1_555 1_555
C10 N2 1_555 1_555
N3 C11 1_555 1_555
C11 S3 1_555 1_555
C12 C11 1_555 1_555
C13 C12 1_555 1_555
C14 C13 1_555 1_555
C15 N3 1_555 1_555
N4 Eu1 1_555 1_555
C16 S4 1_555 1_555
C17 C16 1_555 1_555
C18 C17 1_555 1_555
C19 C18 1_555 1_555
C20 N4 1_555 1_555
N5 Eu1 1_555 1_555
C21 N5 1_555 1_555
C22 C21 1_555 1_555
C23 C22 1_555 1_555
C24 C23 1_555 1_555
C25 N5 1_555 1_555
N6 Eu1 1_555 1_555
C26 N6 1_555 1_555
C27 C26 1_555 1_555
C28 C27 1_555 1_555
C29 C28 1_555 1_555
C30 N6 1_555 1_555
H1 C2 1_555 1_555
H2 C3 1_555 1_555
H3 C4 1_555 1_555
H4 C5 1_555 1_555
H5 C7 1_555 1_555
H6 C8 1_555 1_555
H7 C9 1_555 1_555
H8 C10 1_555 1_555
H9 C12 1_555 1_555
H10 C13 1_555 1_555
H11 C14 1_555 1_555
H12 C15 1_555 1_555
H13 C17 1_555 1_555
H14 C18 1_555 1_555
H15 C19 1_555 1_555
H16 C20 1_555 1_555
H17 C21 1_555 1_555
H18 C22 1_555 1_555
H19 C23 1_555 1_555
H20 C24 1_555 1_555
H21 C25 1_555 1_555
H22 C26 1_555 1_555
H23 C27 1_555 1_555
H24 C28 1_555 1_555
H25 C29 1_555 1_555
H26 C30 1_555 1_555
Sn1C S2 1_555 1_555
S1C Sn1C 1_555 1_555
S4C Sn1C 1_555 1_555
Sn1 S4 1_555 1_555
S3 Sn1C 1_555 1_555
C4 C5 1_555 1_555
N2 C6 1_555 1_555
C9 C10 1_555 1_555
N3 Sn1C 1_555 1_555
C14 C15 1_555 1_555
N4 C16 1_555 1_555
C19 C20 1_555 1_555
C24 C25 1_555 1_555
C29 C30 1_555 1_555

#END
