
#######################################################################
#
#                 Cambridge Crystallographic Data Centre
#                                CCDC 
#
#######################################################################
#
# If this CIF has been generated from an entry in the Cambridge 
# Structural Database, then it will include bibliographic, chemical, 
# crystal, experimental, refinement or atomic coordinate data resulting 
# from the CCDC's data processing and validation procedures.
#
#######################################################################

data_NOQZAW
_symmetry_cell_setting           monoclinic
_symmetry_space_group_name_H-M   'P 21/c'
_symmetry_Int_Tables_number      14
_space_group_name_Hall           '-P 2ybc'
loop_
_symmetry_equiv_pos_site_id
_symmetry_equiv_pos_as_xyz
1 x,y,z
2 -x,1/2+y,1/2-z
3 -x,-y,-z
4 x,1/2-y,1/2+z
_cell_length_a                   21.2532(15)
_cell_length_b                   7.5717(5)
_cell_length_c                   40.134(3)
_cell_angle_alpha                90
_cell_angle_beta                 93.930(2)
_cell_angle_gamma                90
_cell_volume                     6443.29
loop_
_atom_site_label
_atom_site_type_symbol
_atom_site_fract_x
_atom_site_fract_y
_atom_site_fract_z
C1 C 0.0900(3) 1.1855(8) 0.18106(13)
H1 H 0.1321 1.2174 0.1801
C2 C 0.0551(3) 1.1576(9) 0.15195(14)
H2 H 0.0729 1.1735 0.1316
C3 C -0.0070(3) 1.1055(9) 0.15272(14)
H3 H -0.0322 1.0875 0.1331
C4 C -0.0303(3) 1.0813(8) 0.18341(13)
H4 H -0.0716 1.0427 0.1849
C5 C 0.0070(3) 1.1138(8) 0.21183(12)
C6 C -0.0172(3) 1.0877(8) 0.24570(13)
C7 C 0.0042(3) 1.1388(8) 0.30436(12)
C8 C -0.0562(3) 1.1793(8) 0.31207(13)
H5 H -0.0864 1.2014 0.2947
C9 C -0.0737(3) 1.1885(9) 0.34392(15)
H6 H -0.1154 1.2103 0.3482
C10 C -0.0285(4) 1.1649(10) 0.36973(15)
H7 H -0.0392 1.1765 0.3917
C11 C 0.0317(3) 1.1247(9) 0.36317(14)
H8 H 0.0614 1.1048 0.3808
C12 C 0.0499(3) 1.1126(8) 0.33035(13)
C13 C 0.1160(3) 1.0629(9) 0.32511(13)
H9 H 0.1407 1.0711 0.3463
H10 H 0.1168 0.9407 0.3179
C14 C 0.2070(3) 1.1973(8) 0.30393(12)
C15 C 0.2311(3) 1.2982(8) 0.27494(13)
C16 C 0.2930(3) 1.3465(8) 0.27464(15)
H11 H 0.3218 1.3193 0.2924
C17 C 0.3117(3) 1.4380(10) 0.24685(16)
H12 H 0.3537 1.4693 0.2455
C18 C 0.2676(3) 1.4821(8) 0.22129(15)
H13 H 0.2791 1.5464 0.2029
C19 C 0.2062(3) 1.4289(8) 0.22364(13)
H14 H 0.1761 1.4599 0.2068
Cu1 Cu 0.10305(3) 1.23296(10) 0.257994(15)
N1 N 0.0667(2) 1.1690(6) 0.21126(10)
N2 N 0.0227(2) 1.1405(6) 0.27087(10)
N3 N 0.1457(2) 1.1733(6) 0.30038(10)
N4 N 0.1882(2) 1.3325(6) 0.24981(10)
O1 O -0.07032(18) 1.0242(5) 0.24731(8)
O2 O 0.24511(19) 1.1449(6) 0.32671(9)
Cu1A Cu -0.10305(3) 0.73296(10) 0.242006(15)
O1A O 0.07032(18) 1.5242(5) 0.25269(8)
C20 C 0.4164(3) 0.0519(9) 0.32161(13)
H15 H 0.3751 0.0161 0.3238
C21 C 0.4554(4) 0.0818(10) 0.34991(14)
H16 H 0.4409 0.0609 0.3709
C22 C 0.5145(4) 0.1414(11) 0.34717(16)
H17 H 0.5407 0.1632 0.3663
C23 C 0.5362(3) 0.1700(10) 0.31593(15)
H18 H 0.5768 0.2118 0.3135
C24 C 0.4956(3) 0.1346(8) 0.28832(13)
C25 C 0.5180(3) 0.1580(8) 0.25364(13)
C26 C 0.4888(3) 0.1078(8) 0.19571(13)
C27 C 0.5474(3) 0.0620(9) 0.18602(14)
H19 H 0.5791 0.0334 0.2023
C28 C 0.5604(3) 0.0575(10) 0.15336(16)
H20 H 0.6003 0.0252 0.1474
C29 C 0.5140(3) 0.1012(11) 0.12912(16)
H21 H 0.5230 0.1032 0.1068
C30 C 0.4548(3) 0.1418(10) 0.13807(14)
H22 H 0.4234 0.1667 0.1214
C31 C 0.4401(3) 0.1467(8) 0.17126(13)
C32 C 0.3758(3) 0.1973(8) 0.17995(13)
H23 H 0.3771 0.3162 0.1890
H24 H 0.3480 0.1983 0.1597
C33 C 0.2882(3) 0.0472(8) 0.20098(12)
C34 C 0.2672(3) -0.0564(8) 0.23073(13)
C35 C 0.2060(3) -0.1106(8) 0.23294(15)
H25 H 0.1764 -0.0885 0.2153
C36 C 0.1881(3) -0.1958(8) 0.26046(15)
H26 H 0.1464 -0.2298 0.2624
C37 C 0.2341(3) -0.2300(9) 0.28545(15)
H27 H 0.2237 -0.2876 0.3048
C38 C 0.2955(3) -0.1789(8) 0.28186(14)
H28 H 0.3265 -0.2099 0.2983
Cu2 Cu 0.39552(3) 0.01483(10) 0.244968(15)
N5 N 0.4373(2) 0.0737(6) 0.29069(10)
N6 N 0.4745(2) 0.1078(6) 0.23010(10)
N7 N 0.3495(2) 0.0790(7) 0.20420(10)
N8 N 0.3120(2) -0.0863(6) 0.25554(10)
O3 O 0.57289(19) 0.2259(5) 0.25073(9)
O4 O 0.24858(18) 0.0915(6) 0.17849(9)
Cu2A Cu 0.60448(3) 0.51483(10) 0.255032(15)
O3A O 0.42711(19) -0.2741(5) 0.24927(9)
C39 C 0.1609(3) -0.0615(8) 0.07120(12)
H29 H 0.1188 -0.0923 0.0726
C40 C 0.1983(3) -0.0342(9) 0.10026(13)
H30 H 0.1817 -0.0488 0.1209
C41 C 0.2594(3) 0.0139(9) 0.09849(13)
H31 H 0.2853 0.0296 0.1179
C42 C 0.2824(3) 0.0392(8) 0.06788(12)
H32 H 0.3237 0.0779 0.0663
C43 C 0.2443(2) 0.0069(7) 0.03959(12)
C44 C 0.2669(2) 0.0321(7) 0.00516(12)
C45 C 0.2413(3) -0.0169(7) -0.05302(12)
C46 C 0.3010(3) -0.0653(8) -0.06126(13)
H33 H 0.3316 -0.0940 -0.0445
C47 C 0.3154(3) -0.0715(10) -0.09423(15)
H34 H 0.3558 -0.1035 -0.0996
C48 C 0.2702(3) -0.0302(10) -0.11926(15)
H35 H 0.2800 -0.0321 -0.1415
C49 C 0.2111(3) 0.0131(9) -0.11119(13)
H36 H 0.1807 0.0394 -0.1282
C50 C 0.1945(3) 0.0194(8) -0.07831(12)
C51 C 0.1293(2) 0.0730(8) -0.07133(12)
H37 H 0.1302 0.1931 -0.0629
H38 H 0.1030 0.0720 -0.0921
C52 C 0.0402(3) -0.0745(8) -0.05089(12)
C53 C 0.0174(2) -0.1763(7) -0.02179(12)
C54 C -0.0436(2) -0.2342(8) -0.02066(14)
H39 H -0.0728 -0.2124 -0.0385
C55 C -0.0614(3) -0.3249(8) 0.00695(15)
H40 H -0.1029 -0.3620 0.0082
C56 C -0.0171(3) -0.3594(8) 0.03246(13)
H41 H -0.0279 -0.4207 0.0513
C57 C 0.0435(3) -0.3020(8) 0.02974(12)
H42 H 0.0738 -0.3288 0.0468
C58 C 0.4547(3) 0.1929(8) -0.02811(14)
H43 H 0.4241 0.1588 -0.0445
C59 C 0.5165(3) 0.1470(8) -0.03138(15)
H44 H 0.5275 0.0866 -0.0503
C60 C 0.5623(3) 0.1898(8) -0.00683(15)
H45 H 0.6043 0.1602 -0.0088
C61 C 0.5437(3) 0.2780(8) 0.02080(15)
H46 H 0.5731 0.3055 0.0383
C62 C 0.4820(2) 0.3252(7) 0.02259(13)
C63 C 0.4583(3) 0.4271(8) 0.05191(13)
C64 C 0.3695(3) 0.5598(9) 0.07412(13)
H47 H 0.3701 0.6812 0.0664
H48 H 0.3954 0.5534 0.0949
C65 C 0.3035(3) 0.5118(8) 0.08074(12)
C66 C 0.2867(3) 0.5012(9) 0.11378(13)
H49 H 0.3175 0.5205 0.1310
C67 C 0.2272(4) 0.4639(10) 0.12163(15)
H50 H 0.2176 0.4588 0.1439
C68 C 0.1810(3) 0.4334(9) 0.09647(15)
H51 H 0.1400 0.4077 0.1016
C69 C 0.1959(3) 0.4414(8) 0.06371(14)
H52 H 0.1647 0.4189 0.0468
C70 C 0.2562(2) 0.4821(7) 0.05538(12)
C71 C 0.2316(2) 0.5344(7) -0.00265(11)
C72 C 0.2544(3) 0.5063(8) -0.03718(12)
C73 C 0.2156(3) 0.5427(9) -0.06518(13)
H53 H 0.1752 0.5868 -0.0634
C74 C 0.2384(3) 0.5121(9) -0.09602(14)
H54 H 0.2129 0.5323 -0.1154
C75 C 0.2972(3) 0.4533(10) -0.09787(13)
H55 H 0.3129 0.4336 -0.1186
C76 C 0.3347(3) 0.4219(8) -0.06919(13)
H56 H 0.3759 0.3829 -0.0708
Cu3 Cu 0.14490(3) -0.10562(9) -0.005484(14)
Cu4 Cu 0.35274(3) 0.38506(9) 0.007633(14)
N9 N 0.1839(2) -0.0445(6) 0.04101(9)
N10 N 0.22486(19) -0.0140(6) -0.01901(9)
N11 N 0.1008(2) -0.0422(6) -0.04708(10)
N12 N 0.06100(19) -0.2088(6) 0.00349(10)
N13 N 0.43749(19) 0.2859(6) -0.00170(10)
N14 N 0.3977(2) 0.4473(6) 0.04938(10)
N15 N 0.27343(19) 0.4814(6) 0.02149(9)
N16 N 0.3128(2) 0.4465(6) -0.03886(9)
O5 O 0.32082(16) 0.0926(5) 0.00301(8)
O6 O 0.00136(17) -0.0295(6) -0.07392(8)
O7 O 0.49805(18) 0.4810(6) 0.07391(9)
O8 O 0.17948(17) 0.6025(5) -0.00033(9)
Cu3_2 Cu 0.14490(3) 0.89438(9) -0.005484(14)
O8_2 O 0.17948(17) -0.3975(5) -0.00033(9)
loop_
_geom_bond_atom_site_label_1
_geom_bond_atom_site_label_2
_geom_bond_site_symmetry_1
_geom_bond_site_symmetry_2
C1 H1 1_555 1_555
C2 C1 1_555 1_555
H2 C2 1_555 1_555
C3 C2 1_555 1_555
H3 C3 1_555 1_555
C4 C3 1_555 1_555
H4 C4 1_555 1_555
C5 C4 1_555 1_555
C6 C5 1_555 1_555
C7 C8 1_555 1_555
C8 H5 1_555 1_555
C9 C8 1_555 1_555
H6 C9 1_555 1_555
C10 C9 1_555 1_555
H7 C10 1_555 1_555
C11 C10 1_555 1_555
H8 C11 1_555 1_555
C12 C7 1_555 1_555
C13 C12 1_555 1_555
H9 C13 1_555 1_555
H10 C13 1_555 1_555
C14 C15 1_555 1_555
C15 C16 1_555 1_555
C16 H11 1_555 1_555
C17 C16 1_555 1_555
H12 C17 1_555 1_555
C18 C17 1_555 1_555
H13 C18 1_555 1_555
C19 C18 1_555 1_555
H14 C19 1_555 1_555
Cu1 N1 1_555 1_555
N1 C1 1_555 1_555
N2 C6 1_555 1_555
N3 C13 1_555 1_555
N4 C15 1_555 1_555
O1 C6 1_555 1_555
O2 C14 1_555 1_555
C20 H15 1_555 1_555
C21 C20 1_555 1_555
H16 C21 1_555 1_555
C22 C21 1_555 1_555
H17 C22 1_555 1_555
C23 C22 1_555 1_555
H18 C23 1_555 1_555
C24 C23 1_555 1_555
C25 C24 1_555 1_555
C26 C27 1_555 1_555
C27 H19 1_555 1_555
C28 C27 1_555 1_555
H20 C28 1_555 1_555
C29 C28 1_555 1_555
H21 C29 1_555 1_555
C30 C29 1_555 1_555
H22 C30 1_555 1_555
C31 C26 1_555 1_555
C32 C31 1_555 1_555
H23 C32 1_555 1_555
H24 C32 1_555 1_555
C33 C34 1_555 1_555
C34 C35 1_555 1_555
C35 H25 1_555 1_555
C36 C35 1_555 1_555
H26 C36 1_555 1_555
C37 C36 1_555 1_555
H27 C37 1_555 1_555
C38 C37 1_555 1_555
H28 C38 1_555 1_555
Cu2 N5 1_555 1_555
N5 C20 1_555 1_555
N6 C25 1_555 1_555
N7 C32 1_555 1_555
N8 C34 1_555 1_555
O3 C25 1_555 1_555
O4 C33 1_555 1_555
C39 H29 1_555 1_555
C40 C39 1_555 1_555
H30 C40 1_555 1_555
C41 C40 1_555 1_555
H31 C41 1_555 1_555
C42 C41 1_555 1_555
H32 C42 1_555 1_555
C43 C42 1_555 1_555
C44 C43 1_555 1_555
C45 C46 1_555 1_555
C46 H33 1_555 1_555
C47 C46 1_555 1_555
H34 C47 1_555 1_555
C48 C47 1_555 1_555
H35 C48 1_555 1_555
C49 C48 1_555 1_555
H36 C49 1_555 1_555
C50 C45 1_555 1_555
C51 C50 1_555 1_555
H37 C51 1_555 1_555
H38 C51 1_555 1_555
C52 C53 1_555 1_555
C53 C54 1_555 1_555
C54 H39 1_555 1_555
C55 C54 1_555 1_555
H40 C55 1_555 1_555
C56 C55 1_555 1_555
H41 C56 1_555 1_555
C57 C56 1_555 1_555
H42 C57 1_555 1_555
C58 H43 1_555 1_555
C59 C58 1_555 1_555
H44 C59 1_555 1_555
C60 C59 1_555 1_555
H45 C60 1_555 1_555
C61 C60 1_555 1_555
H46 C61 1_555 1_555
C62 C61 1_555 1_555
C63 C62 1_555 1_555
C64 H47 1_555 1_555
H48 C64 1_555 1_555
C65 C64 1_555 1_555
C66 C65 1_555 1_555
H49 C66 1_555 1_555
C67 C66 1_555 1_555
H50 C67 1_555 1_555
C68 C67 1_555 1_555
H51 C68 1_555 1_555
C69 C68 1_555 1_555
H52 C69 1_555 1_555
C70 C65 1_555 1_555
C71 C72 1_555 1_555
C72 C73 1_555 1_555
C73 H53 1_555 1_555
C74 C73 1_555 1_555
H54 C74 1_555 1_555
C75 C74 1_555 1_555
H55 C75 1_555 1_555
C76 C75 1_555 1_555
H56 C76 1_555 1_555
Cu3 N9 1_555 1_555
Cu4 N13 1_555 1_555
N9 C39 1_555 1_555
N10 C44 1_555 1_555
N11 C51 1_555 1_555
N12 C53 1_555 1_555
N13 C58 1_555 1_555
N14 C63 1_555 1_555
N15 C70 1_555 1_555
N16 C72 1_555 1_555
O5 C44 1_555 1_555
O6 C52 1_555 1_555
O7 C63 1_555 1_555
O8 C71 1_555 1_555
Cu1A O1 1_555 1_555
O1A Cu1 1_555 1_555
Cu2A O3 1_555 1_555
O3A Cu2 1_555 1_555
Cu3_2 O8 1_555 1_555
O8_2 Cu3 1_555 1_555
C5 N1 1_555 1_555
C7 N2 1_555 1_555
C11 C12 1_555 1_555
C14 N3 1_555 1_555
C19 N4 1_555 1_555
Cu1 N2 1_555 1_555
Cu1 N3 1_555 1_555
Cu1 N4 1_555 1_555
C24 N5 1_555 1_555
C26 N6 1_555 1_555
C30 C31 1_555 1_555
C33 N7 1_555 1_555
C38 N8 1_555 1_555
Cu2 N6 1_555 1_555
Cu2 N7 1_555 1_555
Cu2 N8 1_555 1_555
C43 N9 1_555 1_555
C45 N10 1_555 1_555
C49 C50 1_555 1_555
C52 N11 1_555 1_555
C57 N12 1_555 1_555
C62 N13 1_555 1_555
C64 N14 1_555 1_555
C69 C70 1_555 1_555
C71 N15 1_555 1_555
C76 N16 1_555 1_555
Cu3 N10 1_555 1_555
Cu3 N11 1_555 1_555
Cu3 N12 1_555 1_555
Cu4 N14 1_555 1_555
Cu4 N15 1_555 1_555
Cu4 N16 1_555 1_555
Cu4 O5 1_555 1_555

#END
