
#######################################################################
#
#                 Cambridge Crystallographic Data Centre
#                                CCDC 
#
#######################################################################
#
# If this CIF has been generated from an entry in the Cambridge 
# Structural Database, then it will include bibliographic, chemical, 
# crystal, experimental, refinement or atomic coordinate data resulting 
# from the CCDC's data processing and validation procedures.
#
#######################################################################

data_NORCAA
_symmetry_cell_setting           monoclinic
_symmetry_space_group_name_H-M   'P 21/c'
_symmetry_Int_Tables_number      14
_space_group_name_Hall           '-P 2ybc'
loop_
_symmetry_equiv_pos_site_id
_symmetry_equiv_pos_as_xyz
1 x,y,z
2 -x,1/2+y,1/2-z
3 -x,-y,-z
4 x,1/2-y,1/2+z
_cell_length_a                   10.1762(10)
_cell_length_b                   14.3672(13)
_cell_length_c                   14.6236(14)
_cell_angle_alpha                90
_cell_angle_beta                 106.034(2)
_cell_angle_gamma                90
_cell_volume                     2054.85
loop_
_atom_site_label
_atom_site_type_symbol
_atom_site_fract_x
_atom_site_fract_y
_atom_site_fract_z
Co1 Co 0.24558(3) 0.32790(2) -0.03520(2)
Br1 Br -0.23950(3) -0.037991(17) 0.01378(2)
O1 O 0.09401(17) 0.23954(12) -0.03863(13)
O2 O 0.00099(18) 0.37279(12) -0.01055(13)
O3 O -0.50408(19) 0.37385(13) -0.04428(15)
O4 O -0.61398(17) 0.23951(12) -0.05431(13)
N1 N 0.3093(2) 0.37709(15) 0.09841(15)
N2 N 0.3924(2) 0.46575(15) 0.22328(17)
N3 N 0.1199(2) 0.94187(16) 0.29024(16)
N4 N 0.1927(2) 1.07327(15) 0.36372(15)
C1 C -0.0036(2) 0.28821(18) -0.02420(17)
C2 C -0.1320(2) 0.23500(17) -0.02413(17)
C3 C -0.2551(2) 0.28266(18) -0.03673(18)
C4 C -0.3744(2) 0.23495(17) -0.03657(17)
C5 C -0.3704(3) 0.13890(17) -0.02212(18)
C6 C -0.2470(2) 0.09289(17) -0.00808(17)
C7 C -0.1277(3) 0.13924(17) -0.00951(18)
C8 C -0.5064(2) 0.28869(18) -0.04711(18)
C9 C 0.3775(3) 0.45426(18) 0.1295(2)
C10 C 0.2794(3) 0.33787(19) 0.1770(2)
C11 C 0.3299(3) 0.3915(2) 0.2539(2)
C12 C 0.4512(3) 0.5478(2) 0.2793(2)
C13 C 0.3492(3) 0.62512(19) 0.27557(18)
C14 C 0.2097(3) 0.6104(2) 0.2521(2)
C15 C 0.1212(3) 0.68317(19) 0.2524(2)
C16 C 0.1689(3) 0.77300(19) 0.27516(18)
C17 C 0.3087(3) 0.7880(2) 0.2989(2)
C18 C 0.3975(3) 0.7149(2) 0.2987(2)
C19 C 0.0639(3) 0.8481(2) 0.2733(2)
C20 C 0.1338(3) 0.99253(19) 0.36977(19)
C21 C 0.2177(3) 1.0734(2) 0.2758(2)
C22 C 0.1726(3) 0.9936(2) 0.2296(2)
H1 H -0.258(3) 0.346(2) -0.046(2)
H2 H -0.451(3) 0.1056(19) -0.0145(19)
H3 H -0.042(3) 0.107(2) 0.002(2)
H4 H 0.412(3) 0.489(2) 0.097(2)
H5 H 0.235(3) 0.289(2) 0.1724(19)
H6 H 0.328(3) 0.387(2) 0.309(2)
H7 H 0.524(3) 0.571(2) 0.253(2)
H8 H 0.493(3) 0.528(2) 0.343(2)
H9 H 0.178(3) 0.556(2) 0.240(2)
H10 H 0.032(3) 0.674(2) 0.236(2)
H11 H 0.341(4) 0.842(2) 0.319(2)
H12 H 0.485(3) 0.725(2) 0.314(2)
H13 H 0.028(3) 0.836(2) 0.320(2)
H14 H 0.000(3) 0.846(2) 0.213(2)
H15 H 0.102(3) 0.9728(19) 0.416(2)
H16 H 0.256(3) 1.122(2) 0.259(2)
H17 H 0.177(4) 0.971(3) 0.173(3)
Co1_2 Co -0.75442(3) 0.32790(2) -0.03520(2)
Co1C Co 0.24558(3) 1.17210(2) 0.46480(2)
O4_2 O 0.38602(17) 0.23951(12) -0.05431(13)
N4C N 0.1927(2) 0.42673(15) -0.13628(15)
loop_
_geom_bond_atom_site_label_1
_geom_bond_atom_site_label_2
_geom_bond_site_symmetry_1
_geom_bond_site_symmetry_2
Co1 O1 1_555 1_555
Br1 C6 1_555 1_555
O1 C1 1_555 1_555
O2 C1 1_555 1_555
O3 C8 1_555 1_555
O4 C8 1_555 1_555
N1 Co1 1_555 1_555
N2 C9 1_555 1_555
N3 C19 1_555 1_555
N4 C20 1_555 1_555
C1 C2 1_555 1_555
C2 C3 1_555 1_555
C3 C4 1_555 1_555
C4 C5 1_555 1_555
C5 C6 1_555 1_555
C6 C7 1_555 1_555
C7 C2 1_555 1_555
C8 C4 1_555 1_555
C9 N1 1_555 1_555
C10 N1 1_555 1_555
C11 N2 1_555 1_555
C12 N2 1_555 1_555
C13 C12 1_555 1_555
C14 C13 1_555 1_555
C15 C14 1_555 1_555
C16 C15 1_555 1_555
C17 C16 1_555 1_555
C18 C13 1_555 1_555
C19 C16 1_555 1_555
C20 N3 1_555 1_555
C21 N4 1_555 1_555
C22 N3 1_555 1_555
H1 C3 1_555 1_555
H2 C5 1_555 1_555
H3 C7 1_555 1_555
H4 C9 1_555 1_555
H5 C10 1_555 1_555
H6 C11 1_555 1_555
H7 C12 1_555 1_555
H8 C12 1_555 1_555
H9 C14 1_555 1_555
H10 C15 1_555 1_555
H11 C17 1_555 1_555
H12 C18 1_555 1_555
H13 C19 1_555 1_555
H14 C19 1_555 1_555
H15 C20 1_555 1_555
H16 C21 1_555 1_555
H17 C22 1_555 1_555
Co1_2 O4 1_555 1_555
Co1C N4 1_555 1_555
O4_2 Co1 1_555 1_555
N4C Co1 1_555 1_555
C10 C11 1_555 1_555
C17 C18 1_555 1_555
C21 C22 1_555 1_555

#END
