
#######################################################################
#
#                 Cambridge Crystallographic Data Centre
#                                CCDC 
#
#######################################################################
#
# If this CIF has been generated from an entry in the Cambridge 
# Structural Database, then it will include bibliographic, chemical, 
# crystal, experimental, refinement or atomic coordinate data resulting 
# from the CCDC's data processing and validation procedures.
#
#######################################################################

data_NORCUS
_symmetry_cell_setting           monoclinic
_symmetry_space_group_name_H-M   'P 21/n'
_symmetry_Int_Tables_number      14
_space_group_name_Hall           '-P 2yn'
loop_
_symmetry_equiv_pos_site_id
_symmetry_equiv_pos_as_xyz
1 x,y,z
2 1/2-x,1/2+y,1/2-z
3 -x,-y,-z
4 1/2+x,1/2-y,1/2+z
_cell_length_a                   14.0393(9)
_cell_length_b                   22.701(1)
_cell_length_c                   14.4981(9)
_cell_angle_alpha                90
_cell_angle_beta                 108.300(1)
_cell_angle_gamma                90
_cell_volume                     4386.95
loop_
_atom_site_label
_atom_site_type_symbol
_atom_site_fract_x
_atom_site_fract_y
_atom_site_fract_z
F4 F -0.1834(4) 0.4646(2) 0.2508(6)
F5 F -0.3198(3) 0.41792(16) 0.2295(3)
F6 F -0.2903(5) 0.4954(2) 0.3171(3)
C28 C -0.3402(10) 0.1975(5) 0.3932(11)
C29 C -0.3624(9) 0.2304(5) 0.3089(8)
C30 C -0.4076(10) 0.2824(5) 0.3038(9)
C31 C -0.4427(11) 0.2966(7) 0.3721(12)
C32 C -0.4222(13) 0.2629(11) 0.4609(11)
C33 C -0.3728(13) 0.2138(9) 0.4663(13)
C34 C -0.0926(6) 0.4742(4) -0.0379(5)
C35 C -0.0105(6) 0.4512(3) -0.0580(5)
C36 C -0.0813(6) 0.5233(4) 0.0204(6)
H13 H -0.1687 0.4592 -0.0672
H14 H -0.0207 0.41 -0.1046
H15 H -0.1469 0.5409 0.0381
C36B C 0.0813(6) 0.4767(4) -0.0204(6)
C34B C 0.0926(6) 0.5258(4) 0.0379(5)
C35B C 0.0105(6) 0.5488(3) 0.0580(5)
H14B H 0.0207 0.59 0.1046
H13B H 0.1687 0.5408 0.0672
H15B H 0.1469 0.4591 -0.0381
C37 C 0.5294(8) 0.4646(7) 0.4330(11)
C38 C 0.5248(11) 0.4397(8) 0.5179(15)
C39 C 0.5026(11) 0.5282(8) 0.4155(13)
C39B C 0.4974(11) 0.4718(8) 0.5845(13)
C37B C 0.4706(8) 0.5354(7) 0.5670(11)
C38B C 0.4752(11) 0.5603(8) 0.4821(15)
Ag1 Ag -0.47674(3) 0.27852(2) -0.03148(3)
Ag2 Ag -0.43358(3) 0.41152(2) -0.05106(3)
S2 S -0.33622(12) 0.51624(7) 0.13239(11)
S3 S -0.2869(7) 0.3184(3) -0.1448(6)
S4 S 0.15492(10) 0.41360(6) 0.34511(10)
F7 F -0.377(3) 0.338(2) -0.332(3)
F8 F -0.263(2) 0.3814(12) -0.294(2)
F9 F -0.264(2) 0.2948(13) -0.311(2)
O2 O -0.3502(4) 0.2713(2) -0.1561(4)
O4 O -0.3263(4) 0.4823(2) 0.0535(4)
O5 O -0.5626(3) 0.4795(2) -0.1354(3)
O6 O -0.2784(3) 0.5690(2) 0.1504(3)
O7 O -0.375(2) 0.3764(13) -0.176(2)
O8 O -0.193(3) 0.3078(15) -0.101(2)
N1 N -0.3275(3) 0.2889(2) 0.0781(4)
N2 N -0.5194(4) 0.3824(2) 0.0491(3)
N3 N -0.5804(4) 0.3090(2) -0.1707(4)
N4 N -0.5569(4) 0.2150(2) 0.0472(4)
C1 C 0.0325(4) 0.3777(2) 0.2791(4)
C2 C -0.0017(4) 0.3778(3) 0.1782(4)
C3 C -0.0943(4) 0.3541(3) 0.1264(4)
C4 C -0.1549(4) 0.3299(2) 0.1767(4)
C5 C -0.1211(4) 0.3293(2) 0.2765(4)
C6 C -0.0283(4) 0.3523(2) 0.3274(4)
C7 C -0.2502(4) 0.3063(2) 0.1224(4)
C8 C 0.2395(4) 0.4083(2) 0.2676(3)
C9 C 0.2558(4) 0.3527(2) 0.2328(4)
C10 C 0.3169(5) 0.3468(2) 0.1760(4)
C11 C 0.3637(4) 0.3956(2) 0.1526(4)
C12 C 0.3477(4) 0.4513(2) 0.1858(4)
C13 C 0.2853(4) 0.4571(2) 0.2423(4)
C14 C -0.5715(4) 0.3888(2) 0.0949(4)
C15 C 0.2173(4) 0.3793(2) 0.4676(4)
C16 C 0.3043(4) 0.3463(2) 0.4873(4)
C17 C 0.3562(4) 0.3272(2) 0.5798(4)
C18 C 0.3192(4) 0.3415(2) 0.6552(4)
C19 C 0.2314(4) 0.3722(2) 0.6379(4)
C20 C 0.1815(4) 0.3913(2) 0.5449(4)
C21 C -0.6244(4) 0.3239(2) -0.2476(4)
C22 C 0.1306(4) 0.4930(2) 0.3683(4)
C23 C 0.1985(4) 0.5244(2) 0.4423(4)
C24 C 0.1812(5) 0.5827(2) 0.4626(4)
C25 C 0.0936(4) 0.6098(2) 0.4073(4)
C26 C 0.0263(4) 0.5796(2) 0.3320(4)
C27 C 0.0434(5) 0.5222(2) 0.3123(4)
C40 C -0.296(2) 0.3375(12) -0.272(2)
H1 H 0.0392 0.3945 0.1437
H2 H -0.1161 0.3543 0.0574
H3 H -0.1621 0.3128 0.3109
H4 H -0.0058 0.3508 0.3964
H5 H 0.2242 0.319 0.2488
H6 H 0.3271 0.309 0.1526
H7 H 0.2735 0.4951 0.2641
H8 H 0.3291 0.3364 0.4354
H9 H 0.416 0.3047 0.5916
H10 H 0.2051 0.3804 0.6895
H11 H -0.0328 0.5988 0.2932
H12 H -0.004 0.5021 0.2605
O5B O -0.4374(3) 0.5205(2) 0.1354(3)
Ag2B Ag -0.56642(3) 0.58848(2) 0.05106(3)
Ag1B Ag -0.52326(3) 0.72148(2) 0.03148(3)
N1B N -0.6725(3) 0.7111(2) -0.0781(4)
C7B C -0.7498(4) 0.6937(2) -0.1224(4)
C4B C -0.8451(4) 0.6701(2) -0.1767(4)
C3B C -0.9057(4) 0.6459(3) -0.1264(4)
C2B C -0.9983(4) 0.6222(3) -0.1782(4)
C1B C -1.0325(4) 0.6223(2) -0.2791(4)
S4B S -1.15492(10) 0.58640(6) -0.34511(10)
C8B C -1.2395(4) 0.5917(2) -0.2676(3)
C9B C -1.2558(4) 0.6473(2) -0.2328(4)
C10B C -1.3169(5) 0.6532(2) -0.1760(4)
C11B C -1.3637(4) 0.6044(2) -0.1526(4)
C12B C -1.3477(4) 0.5487(2) -0.1858(4)
C13B C -1.2853(4) 0.5429(2) -0.2423(4)
H7B H -1.2735 0.5049 -0.2641
C14B C -1.4285(4) 0.6112(2) -0.0949(4)
N2B N -1.4806(4) 0.6176(2) -0.0491(3)
Ag2B_2 Ag -1.56642(3) 0.58848(2) 0.05106(3)
Ag1B_2 Ag -1.52326(3) 0.72148(2) 0.03148(3)
N1B_2 N -1.6725(3) 0.7111(2) -0.0781(4)
C7B_2 C -1.7498(4) 0.6937(2) -0.1224(4)
C4B_2 C -1.8451(4) 0.6701(2) -0.1767(4)
C3B_2 C -1.9057(4) 0.6459(3) -0.1264(4)
C2B_2 C -1.9983(4) 0.6222(3) -0.1782(4)
C1B_2 C -2.0325(4) 0.6223(2) -0.2791(4)
S4B_2 S -2.15492(10) 0.58640(6) -0.34511(10)
C8B_2 C -2.2395(4) 0.5917(2) -0.2676(3)
C9B_2 C -2.2558(4) 0.6473(2) -0.2328(4)
C10B_2 C -2.3169(5) 0.6532(2) -0.1760(4)
C11B_2 C -2.3637(4) 0.6044(2) -0.1526(4)
H6B H -2.3271 0.691 -0.1526
H5B H -2.2242 0.681 -0.2488
C13B_2 C -2.2853(4) 0.5429(2) -0.2423(4)
C12B_2 C -2.3477(4) 0.5487(2) -0.1858(4)
H7B_2 H -2.2735 0.5049 -0.2641
C15B C -2.2173(4) 0.6207(2) -0.4676(4)
C16B C -2.3043(4) 0.6537(2) -0.4873(4)
C17B C -2.3562(4) 0.6728(2) -0.5798(4)
C18B C -2.3192(4) 0.6585(2) -0.6552(4)
C19B C -2.2314(4) 0.6278(2) -0.6379(4)
C20B C -2.1815(4) 0.6087(2) -0.5449(4)
H10B H -2.2051 0.6196 -0.6895
C21B C -2.3756(4) 0.6761(2) -0.7524(4)
N3B N -2.4196(4) 0.6910(2) -0.8293(4)
Ag1B_3 Ag -2.52326(3) 0.72148(2) -0.96852(3)
Ag2B_3 Ag -2.56642(3) 0.58848(2) -0.94894(3)
O4B O -2.6737(4) 0.5177(2) -1.0535(4)
S2B S -2.66378(12) 0.48376(7) -1.13239(11)
O5_2 O -2.5626(3) 0.4795(2) -1.1354(3)
Ag2_2 Ag -2.43358(3) 0.41152(2) -1.05106(3)
Ag1_2 Ag -2.47674(3) 0.27852(2) -1.03148(3)
N1_2 N -2.3275(3) 0.2889(2) -0.9219(4)
C7_2 C -2.2502(4) 0.3063(2) -0.8776(4)
C4_2 C -2.1549(4) 0.3299(2) -0.8233(4)
C3_2 C -2.0943(4) 0.3541(3) -0.8736(4)
C2_2 C -2.0017(4) 0.3778(3) -0.8218(4)
C1_2 C -1.9675(4) 0.3777(2) -0.7209(4)
S4_2 S -1.84508(10) 0.41360(6) -0.65489(10)
C8_2 C -1.7605(4) 0.4083(2) -0.7324(3)
C9_2 C -1.7442(4) 0.3527(2) -0.7672(4)
C10_2 C -1.6831(5) 0.3468(2) -0.8240(4)
C11_2 C -1.6363(4) 0.3956(2) -0.8474(4)
C12_2 C -1.6523(4) 0.4513(2) -0.8142(4)
C13_2 C -1.7147(4) 0.4571(2) -0.7577(4)
H7_2 H -1.7265 0.4951 -0.7359
C14_2 C -1.5715(4) 0.3888(2) -0.9051(4)
N2_2 N -1.5194(4) 0.3824(2) -0.9509(3)
Ag2_3 Ag -1.43358(3) 0.41152(2) -1.05106(3)
Ag1_3 Ag -1.47674(3) 0.27852(2) -1.03148(3)
N1_3 N -1.3275(3) 0.2889(2) -0.9219(4)
C7_3 C -1.2502(4) 0.3063(2) -0.8776(4)
C4_3 C -1.1549(4) 0.3299(2) -0.8233(4)
C3_3 C -1.0943(4) 0.3541(3) -0.8736(4)
C2_3 C -1.0017(4) 0.3778(3) -0.8218(4)
C1_3 C -0.9675(4) 0.3777(2) -0.7209(4)
S4_3 S -0.84508(10) 0.41360(6) -0.65489(10)
C8_3 C -0.7605(4) 0.4083(2) -0.7324(3)
C9_3 C -0.7442(4) 0.3527(2) -0.7672(4)
C10_3 C -0.6831(5) 0.3468(2) -0.8240(4)
C11_3 C -0.6363(4) 0.3956(2) -0.8474(4)
H6_2 H -0.6729 0.309 -0.8474
H5_2 H -0.7758 0.319 -0.7512
C13_3 C -0.7147(4) 0.4571(2) -0.7577(4)
C12_3 C -0.6523(4) 0.4513(2) -0.8142(4)
H7_3 H -0.7265 0.4951 -0.7359
C15_2 C -0.7827(4) 0.3793(2) -0.5324(4)
C16_2 C -0.6957(4) 0.3463(2) -0.5127(4)
C17_2 C -0.6438(4) 0.3272(2) -0.4202(4)
C18_2 C -0.6808(4) 0.3415(2) -0.3448(4)
C19_2 C -0.7686(4) 0.3722(2) -0.3621(4)
C20_2 C -0.8185(4) 0.3913(2) -0.4551(4)
H10_2 H -0.7949 0.3804 -0.3105
H9_2 H -0.584 0.3047 -0.4084
H8_2 H -0.6709 0.3364 -0.5646
C22_2 C -0.8694(4) 0.4930(2) -0.6317(4)
C23_2 C -0.8015(4) 0.5244(2) -0.5577(4)
C24_2 C -0.8188(5) 0.5827(2) -0.5374(4)
C25_2 C -0.9064(4) 0.6098(2) -0.5927(4)
C26_2 C -0.9737(4) 0.5796(2) -0.6680(4)
C27_2 C -0.9566(5) 0.5222(2) -0.6877(4)
H12_2 H -1.004 0.5021 -0.7395
H11_2 H -1.0328 0.5988 -0.7068
C6_2 C -1.0283(4) 0.3523(2) -0.6726(4)
C5_2 C -1.1211(4) 0.3293(2) -0.7235(4)
H3_2 H -1.1621 0.3128 -0.6891
H4_2 H -1.0058 0.3508 -0.6036
H1_2 H -0.9608 0.3945 -0.8563
H2_2 H -1.1161 0.3543 -0.9426
N3_2 N -1.5804(4) 0.3090(2) -1.1707(4)
C21_2 C -1.6244(4) 0.3239(2) -1.2476(4)
N4_2 N -1.5569(4) 0.2150(2) -0.9528(4)
O4_2 O -1.3263(4) 0.4823(2) -0.9465(4)
S2_2 S -1.33622(12) 0.51624(7) -0.86761(11)
O5_3 O -1.5626(3) 0.4795(2) -1.1354(3)
O7_2 O -1.375(2) 0.3764(13) -1.176(2)
S3_2 S -1.2869(7) 0.3184(3) -1.1448(6)
O2_2 O -1.3502(4) 0.2713(2) -1.1561(4)
O8_2 O -1.193(3) 0.3078(15) -1.101(2)
C40_2 C -1.296(2) 0.3375(12) -1.272(2)
F7_2 F -1.377(3) 0.338(2) -1.332(3)
F8_2 F -1.263(2) 0.3814(12) -1.294(2)
F9_2 F -1.264(2) 0.2948(13) -1.311(2)
H6_3 H -1.6729 0.309 -0.8474
H5_3 H -1.7758 0.319 -0.7512
C15_3 C -1.7827(4) 0.3793(2) -0.5324(4)
C16_3 C -1.6957(4) 0.3463(2) -0.5127(4)
C17_3 C -1.6438(4) 0.3272(2) -0.4202(4)
C18_3 C -1.6808(4) 0.3415(2) -0.3448(4)
H9_3 H -1.584 0.3047 -0.4084
H8_3 H -1.6709 0.3364 -0.5646
C20_3 C -1.8185(4) 0.3913(2) -0.4551(4)
C19_3 C -1.7686(4) 0.3722(2) -0.3621(4)
H10_3 H -1.7949 0.3804 -0.3105
C22_3 C -1.8694(4) 0.4930(2) -0.6317(4)
C23_3 C -1.8015(4) 0.5244(2) -0.5577(4)
C24_3 C -1.8188(5) 0.5827(2) -0.5374(4)
C25_3 C -1.9064(4) 0.6098(2) -0.5927(4)
C26_3 C -1.9737(4) 0.5796(2) -0.6680(4)
C27_3 C -1.9566(5) 0.5222(2) -0.6877(4)
H12_3 H -2.004 0.5021 -0.7395
H11_3 H -2.0328 0.5988 -0.7068
C6_3 C -2.0283(4) 0.3523(2) -0.6726(4)
C5_3 C -2.1211(4) 0.3293(2) -0.7235(4)
H3_3 H -2.1621 0.3128 -0.6891
H4_3 H -2.0058 0.3508 -0.6036
H1_3 H -1.9608 0.3945 -0.8563
H2_3 H -2.1161 0.3543 -0.9426
N3_3 N -2.5804(4) 0.3090(2) -1.1707(4)
C21_3 C -2.6244(4) 0.3239(2) -1.2476(4)
N4_3 N -2.5569(4) 0.2150(2) -0.9528(4)
O4_3 O -2.3263(4) 0.4823(2) -0.9465(4)
S2_3 S -2.33622(12) 0.51624(7) -0.86761(11)
O7_3 O -2.375(2) 0.3764(13) -1.176(2)
S3_3 S -2.2869(7) 0.3184(3) -1.1448(6)
O2_3 O -2.3502(4) 0.2713(2) -1.1561(4)
O8_3 O -2.193(3) 0.3078(15) -1.101(2)
C40_3 C -2.296(2) 0.3375(12) -1.272(2)
F7_3 F -2.377(3) 0.338(2) -1.332(3)
F8_3 F -2.263(2) 0.3814(12) -1.294(2)
F9_3 F -2.264(2) 0.2948(13) -1.311(2)
N2_3 N -2.5194(4) 0.3824(2) -0.9509(3)
C14_3 C -2.5715(4) 0.3888(2) -0.9051(4)
O6B O -2.7216(3) 0.4310(2) -1.1504(3)
O5B_2 O -2.4374(3) 0.5205(2) -0.8646(3)
O7B O -2.625(2) 0.6236(13) -0.824(2)
S3B S -2.7131(7) 0.6816(3) -0.8552(6)
O2B O -2.6498(4) 0.7287(2) -0.8439(4)
O8B O -2.807(3) 0.6922(15) -0.899(2)
C40B C -2.704(2) 0.6625(12) -0.728(2)
F7B F -2.623(3) 0.662(2) -0.668(3)
F8B F -2.737(2) 0.6186(12) -0.706(2)
F9B F -2.736(2) 0.7052(13) -0.689(2)
N2B_2 N -2.4806(4) 0.6176(2) -1.0491(3)
C14B_2 C -2.4285(4) 0.6112(2) -1.0949(4)
N1B_3 N -2.6725(3) 0.7111(2) -1.0781(4)
C7B_3 C -2.7498(4) 0.6937(2) -1.1224(4)
C4B_3 C -2.8451(4) 0.6701(2) -1.1767(4)
C3B_3 C -2.9057(4) 0.6459(3) -1.1264(4)
C2B_3 C -2.9983(4) 0.6222(3) -1.1782(4)
C1B_3 C -3.0325(4) 0.6223(2) -1.2791(4)
S4B_3 S -3.15492(10) 0.58640(6) -1.34511(10)
C8B_3 C -3.2395(4) 0.5917(2) -1.2676(3)
C9B_3 C -3.2558(4) 0.6473(2) -1.2328(4)
C10B_3 C -3.3169(5) 0.6532(2) -1.1760(4)
C11B_3 C -3.3637(4) 0.6044(2) -1.1526(4)
H6B_2 H -3.3271 0.691 -1.1526
H5B_2 H -3.2242 0.681 -1.2488
C13B_3 C -3.2853(4) 0.5429(2) -1.2423(4)
C12B_3 C -3.3477(4) 0.5487(2) -1.1858(4)
H7B_3 H -3.2735 0.5049 -1.2641
C15B_2 C -3.2173(4) 0.6207(2) -1.4676(4)
C16B_2 C -3.3043(4) 0.6537(2) -1.4873(4)
C17B_2 C -3.3562(4) 0.6728(2) -1.5798(4)
C18B_2 C -3.3192(4) 0.6585(2) -1.6552(4)
H9B H -3.416 0.6953 -1.5916
H8B H -3.3291 0.6636 -1.4354
C20B_2 C -3.1815(4) 0.6087(2) -1.5449(4)
C19B_2 C -3.2314(4) 0.6278(2) -1.6379(4)
H10B_2 H -3.2051 0.6196 -1.6895
C22B C -3.1306(4) 0.5070(2) -1.3683(4)
C23B C -3.1985(4) 0.4756(2) -1.4423(4)
C24B C -3.1812(5) 0.4173(2) -1.4626(4)
C25B C -3.0936(4) 0.3902(2) -1.4073(4)
C26B C -3.0263(4) 0.4204(2) -1.3320(4)
C27B C -3.0434(5) 0.4778(2) -1.3123(4)
H12B H -2.996 0.4979 -1.2605
H11B H -2.9672 0.4012 -1.2932
C6B C -2.9717(4) 0.6477(2) -1.3274(4)
C5B C -2.8789(4) 0.6707(2) -1.2765(4)
H3B H -2.8379 0.6872 -1.3109
H4B H -2.9942 0.6492 -1.3964
H1B H -3.0392 0.6055 -1.1437
H2B H -2.8839 0.6457 -1.0574
N4B N -2.4431(4) 0.7850(2) -1.0472(4)
H9B_2 H -2.416 0.6953 -0.5916
H8B_2 H -2.3291 0.6636 -0.4354
C22B_2 C -2.1306(4) 0.5070(2) -0.3683(4)
C23B_2 C -2.1985(4) 0.4756(2) -0.4423(4)
C24B_2 C -2.1812(5) 0.4173(2) -0.4626(4)
C25B_2 C -2.0936(4) 0.3902(2) -0.4073(4)
C26B_2 C -2.0263(4) 0.4204(2) -0.3320(4)
C27B_2 C -2.0434(5) 0.4778(2) -0.3123(4)
H12B_2 H -1.996 0.4979 -0.2605
H11B_2 H -1.9672 0.4012 -0.2932
C6B_2 C -1.9717(4) 0.6477(2) -0.3274(4)
C5B_2 C -1.8789(4) 0.6707(2) -0.2765(4)
H3B_2 H -1.8379 0.6872 -0.3109
H4B_2 H -1.9942 0.6492 -0.3964
H1B_2 H -2.0392 0.6055 -0.1437
H2B_2 H -1.8839 0.6457 -0.0574
N3B_2 N -1.4196(4) 0.6910(2) 0.1707(4)
C21B_2 C -1.3756(4) 0.6761(2) 0.2476(4)
N4B_2 N -1.4431(4) 0.7850(2) -0.0472(4)
O4B_2 O -1.6737(4) 0.5177(2) -0.0535(4)
S2B_2 S -1.66378(12) 0.48376(7) -0.13239(11)
O5B_3 O -1.4374(3) 0.5205(2) 0.1354(3)
O7B_2 O -1.625(2) 0.6236(13) 0.176(2)
S3B_2 S -1.7131(7) 0.6816(3) 0.1448(6)
O2B_2 O -1.6498(4) 0.7287(2) 0.1561(4)
O8B_2 O -1.807(3) 0.6922(15) 0.101(2)
C40B_2 C -1.704(2) 0.6625(12) 0.272(2)
F7B_2 F -1.623(3) 0.662(2) 0.332(3)
F8B_2 F -1.737(2) 0.6186(12) 0.294(2)
F9B_2 F -1.736(2) 0.7052(13) 0.311(2)
H6B_3 H -1.3271 0.691 -0.1526
H5B_3 H -1.2242 0.681 -0.2488
C15B_3 C -1.2173(4) 0.6207(2) -0.4676(4)
C16B_3 C -1.3043(4) 0.6537(2) -0.4873(4)
C17B_3 C -1.3562(4) 0.6728(2) -0.5798(4)
C18B_3 C -1.3192(4) 0.6585(2) -0.6552(4)
H9B_3 H -1.416 0.6953 -0.5916
H8B_3 H -1.3291 0.6636 -0.4354
C20B_3 C -1.1815(4) 0.6087(2) -0.5449(4)
C19B_3 C -1.2314(4) 0.6278(2) -0.6379(4)
H10B_3 H -1.2051 0.6196 -0.6895
C22B_3 C -1.1306(4) 0.5070(2) -0.3683(4)
C23B_3 C -1.1985(4) 0.4756(2) -0.4423(4)
C24B_3 C -1.1812(5) 0.4173(2) -0.4626(4)
C25B_3 C -1.0936(4) 0.3902(2) -0.4073(4)
C26B_3 C -1.0263(4) 0.4204(2) -0.3320(4)
C27B_3 C -1.0434(5) 0.4778(2) -0.3123(4)
H12B_3 H -0.996 0.4979 -0.2605
H11B_3 H -0.9672 0.4012 -0.2932
C6B_3 C -0.9717(4) 0.6477(2) -0.3274(4)
C5B_3 C -0.8789(4) 0.6707(2) -0.2765(4)
H3B_3 H -0.8379 0.6872 -0.3109
H4B_3 H -0.9942 0.6492 -0.3964
H1B_3 H -1.0392 0.6055 -0.1437
H2B_3 H -0.8839 0.6457 -0.0574
N3B_3 N -0.4196(4) 0.6910(2) 0.1707(4)
C21B_3 C -0.3756(4) 0.6761(2) 0.2476(4)
N4B_3 N -0.4431(4) 0.7850(2) -0.0472(4)
O4B_3 O -0.6737(4) 0.5177(2) -0.0535(4)
S2B_3 S -0.66378(12) 0.48376(7) -0.13239(11)
O7B_3 O -0.625(2) 0.6236(13) 0.176(2)
S3B_3 S -0.7131(7) 0.6816(3) 0.1448(6)
O2B_3 O -0.6498(4) 0.7287(2) 0.1561(4)
O8B_3 O -0.807(3) 0.6922(15) 0.101(2)
C40B_3 C -0.704(2) 0.6625(12) 0.272(2)
F7B_3 F -0.623(3) 0.662(2) 0.332(3)
F8B_3 F -0.737(2) 0.6186(12) 0.294(2)
F9B_3 F -0.736(2) 0.7052(13) 0.311(2)
N2B_3 N -0.4806(4) 0.6176(2) -0.0491(3)
C14B_3 C -0.4285(4) 0.6112(2) -0.0949(4)
C14_4 C 0.4285(4) 0.3888(2) 0.0949(4)
C11_4 C -0.6363(4) 0.3956(2) 0.1526(4)
C21_4 C 0.3756(4) 0.3239(2) 0.7524(4)
O6_2 O -2.2784(3) 0.5690(2) -0.8496(3)
S1? S -0.3427(2) 0.32816(9) -0.1975(2)
F1? F -0.1521(5) 0.3189(4) -0.1331(7)
F2? F -0.2044(5) 0.3833(2) -0.2461(5)
F3? F -0.2133(6) 0.2919(3) -0.2790(7)
O1? O -0.3263(6) 0.3755(3) -0.1233(6)
O3? O -0.4106(5) 0.3378(4) -0.2954(7)
loop_
_geom_bond_atom_site_label_1
_geom_bond_atom_site_label_2
_geom_bond_site_symmetry_1
_geom_bond_site_symmetry_2
Ag1 Ag2 1_555 1_555
Ag2 O4 1_555 1_555
S2 O4 1_555 1_555
S3 O2 1_555 1_555
S4 C1 1_555 1_555
F7 C40 1_555 1_555
F8 C40 1_555 1_555
F9 C40 1_555 1_555
O5 Ag2 1_555 1_555
O6 S2 1_555 1_555
O7 Ag2 1_555 1_555
O8 S3 1_555 1_555
N1 Ag1 1_555 1_555
N2 Ag2 1_555 1_555
N3 Ag1 1_555 1_555
N4 Ag1 1_555 1_555
C1 C2 1_555 1_555
C2 C3 1_555 1_555
C3 C4 1_555 1_555
C4 C5 1_555 1_555
C5 C6 1_555 1_555
C6 C1 1_555 1_555
C7 N1 1_555 1_555
C8 S4 1_555 1_555
C9 C8 1_555 1_555
C10 C9 1_555 1_555
C11 C10 1_555 1_555
C12 C11 1_555 1_555
C13 C8 1_555 1_555
C14 N2 1_555 1_555
C15 S4 1_555 1_555
C16 C15 1_555 1_555
C17 C16 1_555 1_555
C18 C17 1_555 1_555
C19 C18 1_555 1_555
C20 C15 1_555 1_555
C21 N3 1_555 1_555
C22 S4 1_555 1_555
C23 C22 1_555 1_555
C24 C23 1_555 1_555
C25 C24 1_555 1_555
C26 C25 1_555 1_555
C27 C22 1_555 1_555
C28 C29 1_555 1_555
C29 C30 1_555 1_555
C30 C31 1_555 1_555
C31 C32 1_555 1_555
C32 C33 1_555 1_555
C33 C28 1_555 1_555
C34 C35 1_555 1_555
C35 H14 1_555 1_555
C36 C34 1_555 1_555
C37 C38 1_555 1_555
C38 C39B 1_555 1_555
C39 C37 1_555 1_555
C40 S3 1_555 1_555
H1 C2 1_555 1_555
H2 C3 1_555 1_555
H3 C5 1_555 1_555
H4 C6 1_555 1_555
H5 C9 1_555 1_555
H6 C10 1_555 1_555
H7 C13 1_555 1_555
H8 C16 1_555 1_555
H9 C17 1_555 1_555
H10 C19 1_555 1_555
H11 C26 1_555 1_555
H12 C27 1_555 1_555
H13 C34 1_555 1_555
H15 C36 1_555 1_555
O5B S2 1_555 1_555
Ag2B O5B 1_555 1_555
Ag1B Ag2B 1_555 1_555
N1B Ag1B 1_555 1_555
C7B N1B 1_555 1_555
C4B C7B 1_555 1_555
C3B C4B 1_555 1_555
C2B C3B 1_555 1_555
C1B C2B 1_555 1_555
S4B C1B 1_555 1_555
C8B S4B 1_555 1_555
C9B C8B 1_555 1_555
C10B C9B 1_555 1_555
C11B C10B 1_555 1_555
C12B C11B 1_555 1_555
C13B C8B 1_555 1_555
H7B C13B 1_555 1_555
C14B C11B 1_555 1_555
N2B C14B 1_555 1_555
Ag2B_2 N2B 1_555 1_555
Ag1B_2 Ag2B_2 1_555 1_555
N1B_2 Ag1B_2 1_555 1_555
C7B_2 N1B_2 1_555 1_555
C4B_2 C7B_2 1_555 1_555
C3B_2 C4B_2 1_555 1_555
C2B_2 C3B_2 1_555 1_555
C1B_2 C2B_2 1_555 1_555
S4B_2 C1B_2 1_555 1_555
C8B_2 S4B_2 1_555 1_555
C9B_2 C8B_2 1_555 1_555
C10B_2 C9B_2 1_555 1_555
C11B_2 C10B_2 1_555 1_555
H6B C10B_2 1_555 1_555
H5B C9B_2 1_555 1_555
C13B_2 C8B_2 1_555 1_555
C12B_2 C11B_2 1_555 1_555
H7B_2 C13B_2 1_555 1_555
C15B S4B_2 1_555 1_555
C16B C15B 1_555 1_555
C17B C16B 1_555 1_555
C18B C17B 1_555 1_555
C19B C18B 1_555 1_555
C20B C15B 1_555 1_555
H10B C19B 1_555 1_555
C21B C18B 1_555 1_555
N3B C21B 1_555 1_555
Ag1B_3 N3B 1_555 1_555
Ag2B_3 Ag1B_3 1_555 1_555
O4B Ag2B_3 1_555 1_555
S2B O4B 1_555 1_555
O5_2 S2B 1_555 1_555
Ag2_2 O5_2 1_555 1_555
Ag1_2 Ag2_2 1_555 1_555
N1_2 Ag1_2 1_555 1_555
C7_2 N1_2 1_555 1_555
C4_2 C7_2 1_555 1_555
C3_2 C4_2 1_555 1_555
C2_2 C3_2 1_555 1_555
C1_2 C2_2 1_555 1_555
S4_2 C1_2 1_555 1_555
C8_2 S4_2 1_555 1_555
C9_2 C8_2 1_555 1_555
C10_2 C9_2 1_555 1_555
C11_2 C10_2 1_555 1_555
C12_2 C11_2 1_555 1_555
C13_2 C8_2 1_555 1_555
H7_2 C13_2 1_555 1_555
C14_2 C11_2 1_555 1_555
N2_2 C14_2 1_555 1_555
Ag2_3 N2_2 1_555 1_555
Ag1_3 Ag2_3 1_555 1_555
N1_3 Ag1_3 1_555 1_555
C7_3 N1_3 1_555 1_555
C4_3 C7_3 1_555 1_555
C3_3 C4_3 1_555 1_555
C2_3 C3_3 1_555 1_555
C1_3 C2_3 1_555 1_555
S4_3 C1_3 1_555 1_555
C8_3 S4_3 1_555 1_555
C9_3 C8_3 1_555 1_555
C10_3 C9_3 1_555 1_555
C11_3 C10_3 1_555 1_555
H6_2 C10_3 1_555 1_555
H5_2 C9_3 1_555 1_555
C13_3 C8_3 1_555 1_555
C12_3 C11_3 1_555 1_555
H7_3 C13_3 1_555 1_555
C15_2 S4_3 1_555 1_555
C16_2 C15_2 1_555 1_555
C17_2 C16_2 1_555 1_555
C18_2 C21 1_555 1_555
C19_2 C18_2 1_555 1_555
C20_2 C15_2 1_555 1_555
H10_2 C19_2 1_555 1_555
H9_2 C17_2 1_555 1_555
H8_2 C16_2 1_555 1_555
C22_2 S4_3 1_555 1_555
C23_2 C22_2 1_555 1_555
C24_2 C23_2 1_555 1_555
C25_2 C24_2 1_555 1_555
C26_2 C25_2 1_555 1_555
C27_2 C22_2 1_555 1_555
H12_2 C27_2 1_555 1_555
H11_2 C26_2 1_555 1_555
C6_2 C1_3 1_555 1_555
C5_2 C4_3 1_555 1_555
H3_2 C5_2 1_555 1_555
H4_2 C6_2 1_555 1_555
H1_2 C2_3 1_555 1_555
H2_2 C3_3 1_555 1_555
N3_2 Ag1_3 1_555 1_555
C21_2 N3_2 1_555 1_555
N4_2 Ag1_3 1_555 1_555
O4_2 Ag2_3 1_555 1_555
S2_2 O4_2 1_555 1_555
O5_3 Ag2_3 1_555 1_555
O7_2 Ag2_3 1_555 1_555
S3_2 O7_2 1_555 1_555
O2_2 S3_2 1_555 1_555
O8_2 S3_2 1_555 1_555
C40_2 S3_2 1_555 1_555
F7_2 C40_2 1_555 1_555
F8_2 C40_2 1_555 1_555
F9_2 C40_2 1_555 1_555
H6_3 C10_2 1_555 1_555
H5_3 C9_2 1_555 1_555
C15_3 S4_2 1_555 1_555
C16_3 C15_3 1_555 1_555
C17_3 C16_3 1_555 1_555
C18_3 C17_3 1_555 1_555
H9_3 C17_3 1_555 1_555
H8_3 C16_3 1_555 1_555
C20_3 C15_3 1_555 1_555
C19_3 C18_3 1_555 1_555
H10_3 C19_3 1_555 1_555
C22_3 S4_2 1_555 1_555
C23_3 C22_3 1_555 1_555
C24_3 C23_3 1_555 1_555
C25_3 C24_3 1_555 1_555
C26_3 C25_3 1_555 1_555
C27_3 C22_3 1_555 1_555
H12_3 C27_3 1_555 1_555
H11_3 C26_3 1_555 1_555
C6_3 C1_2 1_555 1_555
C5_3 C4_2 1_555 1_555
H3_3 C5_3 1_555 1_555
H4_3 C6_3 1_555 1_555
H1_3 C2_2 1_555 1_555
H2_3 C3_2 1_555 1_555
N3_3 Ag1_2 1_555 1_555
C21_3 N3_3 1_555 1_555
N4_3 Ag1_2 1_555 1_555
O4_3 Ag2_2 1_555 1_555
S2_3 O4_3 1_555 1_555
O7_3 Ag2_2 1_555 1_555
S3_3 O7_3 1_555 1_555
O2_3 S3_3 1_555 1_555
O8_3 S3_3 1_555 1_555
C40_3 S3_3 1_555 1_555
F7_3 C40_3 1_555 1_555
F8_3 C40_3 1_555 1_555
F9_3 C40_3 1_555 1_555
N2_3 Ag2_2 1_555 1_555
C14_3 N2_3 1_555 1_555
O6B S2B 1_555 1_555
O5B_2 Ag2B_3 1_555 1_555
O7B Ag2B_3 1_555 1_555
S3B O7B 1_555 1_555
O2B S3B 1_555 1_555
O8B S3B 1_555 1_555
C40B S3B 1_555 1_555
F7B C40B 1_555 1_555
F8B C40B 1_555 1_555
F9B C40B 1_555 1_555
N2B_2 Ag2B_3 1_555 1_555
C14B_2 N2B_2 1_555 1_555
N1B_3 Ag1B_3 1_555 1_555
C7B_3 N1B_3 1_555 1_555
C4B_3 C7B_3 1_555 1_555
C3B_3 C4B_3 1_555 1_555
C2B_3 C3B_3 1_555 1_555
C1B_3 C2B_3 1_555 1_555
S4B_3 C1B_3 1_555 1_555
C8B_3 S4B_3 1_555 1_555
C9B_3 C8B_3 1_555 1_555
C10B_3 C9B_3 1_555 1_555
C11B_3 C10B_3 1_555 1_555
H6B_2 C10B_3 1_555 1_555
H5B_2 C9B_3 1_555 1_555
C13B_3 C8B_3 1_555 1_555
C12B_3 C11B_3 1_555 1_555
H7B_3 C13B_3 1_555 1_555
C15B_2 S4B_3 1_555 1_555
C16B_2 C15B_2 1_555 1_555
C17B_2 C16B_2 1_555 1_555
C18B_2 C17B_2 1_555 1_555
H9B C17B_2 1_555 1_555
H8B C16B_2 1_555 1_555
C20B_2 C15B_2 1_555 1_555
C19B_2 C18B_2 1_555 1_555
H10B_2 C19B_2 1_555 1_555
C22B S4B_3 1_555 1_555
C23B C22B 1_555 1_555
C24B C23B 1_555 1_555
C25B C24B 1_555 1_555
C26B C25B 1_555 1_555
C27B C22B 1_555 1_555
H12B C27B 1_555 1_555
H11B C26B 1_555 1_555
C6B C1B_3 1_555 1_555
C5B C4B_3 1_555 1_555
H3B C5B 1_555 1_555
H4B C6B 1_555 1_555
H1B C2B_3 1_555 1_555
H2B C3B_3 1_555 1_555
N4B Ag1B_3 1_555 1_555
H9B_2 C17B 1_555 1_555
H8B_2 C16B 1_555 1_555
C22B_2 S4B_2 1_555 1_555
C23B_2 C22B_2 1_555 1_555
C24B_2 C23B_2 1_555 1_555
C25B_2 C24B_2 1_555 1_555
C26B_2 C25B_2 1_555 1_555
C27B_2 C22B_2 1_555 1_555
H12B_2 C27B_2 1_555 1_555
H11B_2 C26B_2 1_555 1_555
C6B_2 C1B_2 1_555 1_555
C5B_2 C4B_2 1_555 1_555
H3B_2 C5B_2 1_555 1_555
H4B_2 C6B_2 1_555 1_555
H1B_2 C2B_2 1_555 1_555
H2B_2 C3B_2 1_555 1_555
N3B_2 Ag1B_2 1_555 1_555
C21B_2 N3B_2 1_555 1_555
N4B_2 Ag1B_2 1_555 1_555
O4B_2 Ag2B_2 1_555 1_555
S2B_2 O4B_2 1_555 1_555
O5B_3 Ag2B_2 1_555 1_555
O7B_2 Ag2B_2 1_555 1_555
S3B_2 O7B_2 1_555 1_555
O2B_2 S3B_2 1_555 1_555
O8B_2 S3B_2 1_555 1_555
C40B_2 S3B_2 1_555 1_555
F7B_2 C40B_2 1_555 1_555
F8B_2 C40B_2 1_555 1_555
F9B_2 C40B_2 1_555 1_555
H6B_3 C10B 1_555 1_555
H5B_3 C9B 1_555 1_555
C15B_3 S4B 1_555 1_555
C16B_3 C15B_3 1_555 1_555
C17B_3 C16B_3 1_555 1_555
C18B_3 C17B_3 1_555 1_555
H9B_3 C17B_3 1_555 1_555
H8B_3 C16B_3 1_555 1_555
C20B_3 C15B_3 1_555 1_555
C19B_3 C18B_3 1_555 1_555
H10B_3 C19B_3 1_555 1_555
C22B_3 S4B 1_555 1_555
C23B_3 C22B_3 1_555 1_555
C24B_3 C23B_3 1_555 1_555
C25B_3 C24B_3 1_555 1_555
C26B_3 C25B_3 1_555 1_555
C27B_3 C22B_3 1_555 1_555
H12B_3 C27B_3 1_555 1_555
H11B_3 C26B_3 1_555 1_555
C6B_3 C1B 1_555 1_555
C5B_3 C4B 1_555 1_555
H3B_3 C5B_3 1_555 1_555
H4B_3 C6B_3 1_555 1_555
H1B_3 C2B 1_555 1_555
H2B_3 C3B 1_555 1_555
N3B_3 Ag1B 1_555 1_555
C21B_3 N3B_3 1_555 1_555
N4B_3 Ag1B 1_555 1_555
O4B_3 Ag2B 1_555 1_555
S2B_3 O5 1_555 1_555
O7B_3 Ag2B 1_555 1_555
S3B_3 O7B_3 1_555 1_555
O2B_3 S3B_3 1_555 1_555
O8B_3 S3B_3 1_555 1_555
C40B_3 S3B_3 1_555 1_555
F7B_3 C40B_3 1_555 1_555
F8B_3 C40B_3 1_555 1_555
F9B_3 C40B_3 1_555 1_555
N2B_3 Ag2B 1_555 1_555
C14B_3 N2B_3 1_555 1_555
C14_4 C11 1_555 1_555
C11_4 C14 1_555 1_555
C21_4 C18 1_555 1_555
C36B C35 1_555 1_555
C34B C36B 1_555 1_555
C35B C36 1_555 1_555
H14B C35B 1_555 1_555
H13B C34B 1_555 1_555
H15B C36B 1_555 1_555
C39B C37B 1_555 1_555
C37B C38B 1_555 1_555
C38B C39 1_555 1_555
O6_2 S2_3 1_555 1_555
S3 O7 1_555 1_555
C4 C7 1_555 1_555
C12 C13 1_555 1_555
C19 C20 1_555 1_555
C26 C27 1_555 1_555
C12B C13B 1_555 1_555
C13B_2 C12B_2 1_555 1_555
C19B C20B 1_555 1_555
C12_2 C13_2 1_555 1_555
C13_3 C12_3 1_555 1_555
C17_2 C18_2 1_555 1_555
C19_2 C20_2 1_555 1_555
C26_2 C27_2 1_555 1_555
C6_2 C5_2 1_555 1_555
C20_3 C19_3 1_555 1_555
C26_3 C27_3 1_555 1_555
C6_3 C5_3 1_555 1_555
S2_3 O5B_2 1_555 1_555
C13B_3 C12B_3 1_555 1_555
C20B_2 C19B_2 1_555 1_555
C26B C27B 1_555 1_555
C6B C5B 1_555 1_555
C26B_2 C27B_2 1_555 1_555
C6B_2 C5B_2 1_555 1_555
C20B_3 C19B_3 1_555 1_555
C26B_3 C27B_3 1_555 1_555
C6B_3 C5B_3 1_555 1_555
O4B_3 S2B_3 1_555 1_555
C34B C35B 1_555 1_555

#END
