
#######################################################################
#
#                 Cambridge Crystallographic Data Centre
#                                CCDC 
#
#######################################################################
#
# If this CIF has been generated from an entry in the Cambridge 
# Structural Database, then it will include bibliographic, chemical, 
# crystal, experimental, refinement or atomic coordinate data resulting 
# from the CCDC's data processing and validation procedures.
#
#######################################################################

data_NORHIN
_symmetry_cell_setting           triclinic
_symmetry_space_group_name_H-M   'P -1'
_symmetry_Int_Tables_number      2
_space_group_name_Hall           '-P 1'
loop_
_symmetry_equiv_pos_site_id
_symmetry_equiv_pos_as_xyz
1 x,y,z
2 -x,-y,-z
_cell_length_a                   8.644(4)
_cell_length_b                   10.479(5)
_cell_length_c                   16.369(8)
_cell_angle_alpha                95.523(8)
_cell_angle_beta                 102.341(8)
_cell_angle_gamma                102.103(8)
_cell_volume                     1400.73
loop_
_atom_site_label
_atom_site_type_symbol
_atom_site_fract_x
_atom_site_fract_y
_atom_site_fract_z
Cd1 Cd 0.5000 0.5000 -0.5000
Cd2 Cd 0.43735(5) 0.35469(4) 0.10956(3)
O1 O 0.4833(5) 0.2672(4) -0.0134(3)
O2 O 0.5974(5) 0.4472(4) -0.0608(3)
O3 O 0.5352(5) 0.3981(4) -0.3765(3)
O4 O 0.5274(6) 0.2018(4) -0.4436(3)
O5 O 0.5510(6) -0.1748(4) -0.2867(3)
O6 O 0.5508(5) -0.1507(4) -0.1510(3)
O7 O 0.3606(6) 0.3941(4) 0.2428(3)
O8 O 0.3912(5) 0.6628(4) -0.4373(3)
N1 N 0.6953(6) 0.4519(5) 0.1733(3)
N2 N 0.9322(6) 0.5914(5) 0.1975(4)
N3 N 1.2497(6) 1.3646(5) 0.4574(4)
N4 N 1.0473(7) 1.1893(5) 0.4220(4)
N5 N 1.1641(6) 1.2861(5) 0.0680(3)
N6 N 0.9222(6) 1.1715(5) 0.0695(4)
C1 C 0.5363(7) 0.3262(6) -0.0681(4)
C2 C 0.5287(6) 0.2428(5) -0.1502(4)
C3 C 0.5208(7) 0.2931(5) -0.2256(4)
H1 H 0.5131 0.3801 -0.2272
C4 C 0.5241(7) 0.2170(6) -0.2986(4)
C5 C 0.5320(7) 0.0874(5) -0.2959(4)
H2 H 0.5330 0.0350 -0.3449
C6 C 0.5385(7) 0.0335(5) -0.2212(4)
C7 C 0.5372(7) 0.1108(5) -0.1490(4)
H3 H 0.5421 0.0754 -0.0988
C8 C 0.5273(8) 0.2769(6) -0.3791(4)
C9 C 0.5469(7) -0.1091(6) -0.2204(4)
C10 C 0.7934(9) 0.4333(7) 0.2471(5)
H4 H 0.7632 0.3710 0.2811
C11 C 0.9386(8) 0.5181(7) 0.2624(5)
H5 H 1.0266 0.5258 0.3081
C12 C 0.7835(7) 0.5481(6) 0.1466(4)
H6 H 0.7470 0.5827 0.0978
C13 C 1.0544(7) 0.7079(6) 0.1906(4)
H7 H 1.0731 0.7004 0.1342
H8 H 1.1566 0.7122 0.2306
C14 C 0.9986(7) 0.8320(6) 0.2082(4)
C15 C 0.9235(7) 0.8870(6) 0.1420(4)
H9 H 0.9121 0.8479 0.0869
C16 C 0.8649(7) 0.9982(6) 0.1551(5)
C17 C 0.8782(8) 1.0535(6) 0.2364(5)
H10 H 0.8383 1.1280 0.2461
C18 C 0.9514(8) 0.9988(7) 0.3049(5)
C19 C 1.0126(8) 0.8886(7) 0.2891(5)
H11 H 1.0637 0.8529 0.3343
C20 C 0.9579(10) 1.0510(7) 0.3939(5)
H12 H 0.8472 1.0422 0.4001
H13 H 1.0083 0.9966 0.4310
C21 C 0.9974(9) 1.2803(8) 0.4674(6)
H14 H 0.8969 1.2710 0.4810
C22 C 1.1236(9) 1.3877(8) 0.4891(6)
H15 H 1.1241 1.4661 0.5211
C23 C 1.1975(8) 1.2432(7) 0.4171(4)
H16 H 1.2587 1.2003 0.3886
C24 C 0.7949(8) 1.0633(7) 0.0838(5)
H17 H 0.7516 0.9991 0.0329
H18 H 0.7062 1.0983 0.0968
C25 C 0.9035(8) 1.2914(6) 0.0501(5)
H19 H 0.8071 1.3198 0.0389
C26 C 1.0553(8) 1.3614(7) 0.0503(5)
H20 H 1.0804 1.4481 0.0399
C27 C 1.0797(7) 1.1729(6) 0.0805(4)
H21 H 1.1244 1.1026 0.0952
H22 H 0.417(8) 0.716(5) -0.478(3)
H23 H 0.409(8) 0.720(5) -0.386(2)
H24 H 0.375(8) 0.463(4) 0.287(3)
H25 H 0.383(11) 0.319(4) 0.265(4)
Cd2A Cd 0.56265(5) -0.35469(4) -0.10956(3)
O1A O 0.5167(5) -0.2672(4) 0.0134(3)
O2A O 0.4026(5) -0.4472(4) 0.0608(3)
O3A O 0.4648(5) -0.3981(4) 0.3765(3)
O4A O 0.4726(6) -0.2018(4) 0.4436(3)
O5A O 0.4490(6) 0.1748(4) 0.2867(3)
O6A O 0.4492(5) 0.1507(4) 0.1510(3)
O7A O 0.6394(6) -0.3941(4) -0.2428(3)
N1A N 0.3047(6) -0.4519(5) -0.1733(3)
N2A N 0.0678(6) -0.5914(5) -0.1975(4)
N3A N -0.2497(6) -1.3646(5) -0.4574(4)
N4A N -0.0473(7) -1.1893(5) -0.4220(4)
N5A N -0.1641(6) -1.2861(5) -0.0680(3)
N6A N 0.0778(6) -1.1715(5) -0.0695(4)
C1A C 0.4637(7) -0.3262(6) 0.0681(4)
C2A C 0.4713(6) -0.2428(5) 0.1502(4)
C3A C 0.4792(7) -0.2931(5) 0.2256(4)
H1A H 0.4869 -0.3801 0.2272
C4A C 0.4759(7) -0.2170(6) 0.2986(4)
C5A C 0.4680(7) -0.0874(5) 0.2959(4)
H2A H 0.4670 -0.0350 0.3449
C6A C 0.4615(7) -0.0335(5) 0.2212(4)
C7A C 0.4628(7) -0.1108(5) 0.1490(4)
H3A H 0.4579 -0.0754 0.0988
C8A C 0.4727(8) -0.2769(6) 0.3791(4)
C9A C 0.4531(7) 0.1091(6) 0.2204(4)
C10A C 0.2066(9) -0.4333(7) -0.2471(5)
H4A H 0.2368 -0.3710 -0.2811
C11A C 0.0614(8) -0.5181(7) -0.2624(5)
H5A H -0.0266 -0.5258 -0.3081
C12A C 0.2165(7) -0.5481(6) -0.1466(4)
H6A H 0.2530 -0.5827 -0.0978
C13A C -0.0544(7) -0.7079(6) -0.1906(4)
H7A H -0.0731 -0.7004 -0.1342
H8A H -0.1566 -0.7122 -0.2306
C14A C 0.0014(7) -0.8320(6) -0.2082(4)
C15A C 0.0765(7) -0.8870(6) -0.1420(4)
H9A H 0.0879 -0.8479 -0.0869
C16A C 0.1351(7) -0.9982(6) -0.1551(5)
C17A C 0.1218(8) -1.0535(6) -0.2364(5)
H10A H 0.1617 -1.1280 -0.2461
C18A C 0.0486(8) -0.9988(7) -0.3049(5)
C19A C -0.0126(8) -0.8886(7) -0.2891(5)
H11A H -0.0637 -0.8529 -0.3343
C20A C 0.0421(10) -1.0510(7) -0.3939(5)
H12A H 0.1528 -1.0422 -0.4001
H13A H -0.0083 -0.9966 -0.4310
C21A C 0.0026(9) -1.2803(8) -0.4674(6)
H14A H 0.1031 -1.2710 -0.4810
C22A C -0.1236(9) -1.3877(8) -0.4891(6)
H15A H -0.1241 -1.4661 -0.5211
C23A C -0.1975(8) -1.2432(7) -0.4171(4)
H16A H -0.2587 -1.2003 -0.3886
C24A C 0.2051(8) -1.0633(7) -0.0838(5)
H17A H 0.2484 -0.9991 -0.0329
H18A H 0.2938 -1.0983 -0.0968
C25A C 0.0965(8) -1.2914(6) -0.0501(5)
H19A H 0.1929 -1.3198 -0.0389
C26A C -0.0553(8) -1.3614(7) -0.0503(5)
H20A H -0.0804 -1.4481 -0.0399
C27A C -0.0797(7) -1.1729(6) -0.0805(4)
H21A H -0.1244 -1.1026 -0.0952
H24A H 0.625(8) -0.463(4) -0.287(3)
H25A H 0.617(11) -0.319(4) -0.265(4)
O8A O 0.6088(5) 0.3372(4) -0.5627(3)
H22A H 0.583(8) 0.284(5) -0.522(3)
H23A H 0.591(8) 0.280(5) -0.614(2)
Cd1_2 Cd -0.5000 -1.5000 -0.5000
Cd1_3 Cd 0.5000 -0.5000 0.5000
Cd1_4 Cd 1.5000 1.5000 0.5000
Cd2_2 Cd 0.43735(5) -0.64531(4) 0.10956(3)
Cd2_3 Cd 1.43735(5) 1.35469(4) 0.10956(3)
Cd2A_2 Cd -0.43735(5) -1.35469(4) -0.10956(3)
Cd2A_3 Cd 0.56265(5) 0.64531(4) -0.10956(3)
O2_2 O 0.5974(5) -0.5528(4) -0.0608(3)
O2A_2 O 0.4026(5) 0.5528(4) 0.0608(3)
O3A_2 O 0.4648(5) 0.6019(4) -0.6235(3)
N3_2 N 0.2497(6) 0.3646(5) -0.5426(4)
N3A_2 N 0.7503(6) 0.6354(5) -0.4574(4)
N5_2 N 0.1641(6) 0.2861(5) 0.0680(3)
N5A_2 N 0.8359(6) -0.2861(5) -0.0680(3)
O9 O 0.2865(7) 0.9690(6) 0.4818(4)
H26 H 0.348(7) 0.913(5) 0.460(5)
H27 H 0.367(6) 1.047(4) 0.513(4)
loop_
_geom_bond_atom_site_label_1
_geom_bond_atom_site_label_2
_geom_bond_site_symmetry_1
_geom_bond_site_symmetry_2
Cd1 O3 1_555 1_555
Cd2 O1 1_555 1_555
O1 C1 1_555 1_555
O2 C1 1_555 1_555
O3 C8 1_555 1_555
O4 C8 1_555 1_555
O5 C9 1_555 1_555
O6 C9 1_555 1_555
O7 Cd2 1_555 1_555
O8 Cd1 1_555 1_555
N1 Cd2 1_555 1_555
N2 C11 1_555 1_555
N3 C22 1_555 1_555
N4 C20 1_555 1_555
N5 C26 1_555 1_555
N6 C24 1_555 1_555
C1 C2 1_555 1_555
C2 C3 1_555 1_555
C3 H1 1_555 1_555
C4 C3 1_555 1_555
C5 C4 1_555 1_555
H2 C5 1_555 1_555
C6 C5 1_555 1_555
C7 C2 1_555 1_555
H3 C7 1_555 1_555
C8 C4 1_555 1_555
C9 C6 1_555 1_555
C10 N1 1_555 1_555
H4 C10 1_555 1_555
C11 C10 1_555 1_555
H5 C11 1_555 1_555
C12 N1 1_555 1_555
H6 C12 1_555 1_555
C13 N2 1_555 1_555
H7 C13 1_555 1_555
H8 C13 1_555 1_555
C14 C13 1_555 1_555
C15 C14 1_555 1_555
H9 C15 1_555 1_555
C16 C15 1_555 1_555
C17 C16 1_555 1_555
H10 C17 1_555 1_555
C18 C17 1_555 1_555
C19 C14 1_555 1_555
H11 C19 1_555 1_555
C20 C18 1_555 1_555
H12 C20 1_555 1_555
H13 C20 1_555 1_555
C21 N4 1_555 1_555
H14 C21 1_555 1_555
C22 C21 1_555 1_555
H15 C22 1_555 1_555
C23 N3 1_555 1_555
H16 C23 1_555 1_555
C24 C16 1_555 1_555
H17 C24 1_555 1_555
H18 C24 1_555 1_555
C25 N6 1_555 1_555
H19 C25 1_555 1_555
C26 C25 1_555 1_555
H20 C26 1_555 1_555
C27 N5 1_555 1_555
H21 C27 1_555 1_555
H22 O8 1_555 1_555
H23 O8 1_555 1_555
H24 O7 1_555 1_555
H25 O7 1_555 1_555
O9 H26 1_555 1_555
H27 O9 1_555 1_555
Cd2A O6 1_555 1_555
O1A Cd2A 1_555 1_555
O2A C1A 1_555 1_555
O3A C8A 1_555 1_555
O4A C8A 1_555 1_555
O5A C9A 1_555 1_555
O6A Cd2 1_555 1_555
O7A Cd2A 1_555 1_555
N1A Cd2A 1_555 1_555
N2A C11A 1_555 1_555
N3A C22A 1_555 1_555
N4A C20A 1_555 1_555
N5A C26A 1_555 1_555
N6A C24A 1_555 1_555
C1A O1A 1_555 1_555
C2A C1A 1_555 1_555
C3A C2A 1_555 1_555
H1A C3A 1_555 1_555
C4A C3A 1_555 1_555
C5A C4A 1_555 1_555
H2A C5A 1_555 1_555
C6A C5A 1_555 1_555
C7A C2A 1_555 1_555
H3A C7A 1_555 1_555
C8A C4A 1_555 1_555
C9A O6A 1_555 1_555
C10A N1A 1_555 1_555
H4A C10A 1_555 1_555
C11A C10A 1_555 1_555
H5A C11A 1_555 1_555
C12A N1A 1_555 1_555
H6A C12A 1_555 1_555
C13A N2A 1_555 1_555
H7A C13A 1_555 1_555
H8A C13A 1_555 1_555
C14A C13A 1_555 1_555
C15A C14A 1_555 1_555
H9A C15A 1_555 1_555
C16A C15A 1_555 1_555
C17A C16A 1_555 1_555
H10A C17A 1_555 1_555
C18A C17A 1_555 1_555
C19A C14A 1_555 1_555
H11A C19A 1_555 1_555
C20A C18A 1_555 1_555
H12A C20A 1_555 1_555
H13A C20A 1_555 1_555
C21A N4A 1_555 1_555
H14A C21A 1_555 1_555
C22A C21A 1_555 1_555
H15A C22A 1_555 1_555
C23A N3A 1_555 1_555
H16A C23A 1_555 1_555
C24A C16A 1_555 1_555
H17A C24A 1_555 1_555
H18A C24A 1_555 1_555
C25A N6A 1_555 1_555
H19A C25A 1_555 1_555
C26A C25A 1_555 1_555
H20A C26A 1_555 1_555
C27A N5A 1_555 1_555
H21A C27A 1_555 1_555
H24A O7A 1_555 1_555
H25A O7A 1_555 1_555
O8A Cd1 1_555 1_555
H22A O8A 1_555 1_555
H23A O8A 1_555 1_555
Cd1_2 N3A 1_555 1_555
Cd1_3 O3A 1_555 1_555
Cd1_4 N3 1_555 1_555
Cd2_2 O2A 1_555 1_555
Cd2_3 N5 1_555 1_555
Cd2A_2 N5A 1_555 1_555
Cd2A_3 O2 1_555 1_555
O2_2 Cd2A 1_555 1_555
O2A_2 Cd2 1_555 1_555
O3A_2 Cd1 1_555 1_555
N3_2 Cd1 1_555 1_555
N3A_2 Cd1 1_555 1_555
N5_2 Cd2 1_555 1_555
N5A_2 Cd2A 1_555 1_555
N2 C12 1_555 1_555
N4 C23 1_555 1_555
N6 C27 1_555 1_555
C6 C7 1_555 1_555
C18 C19 1_555 1_555
N2A C12A 1_555 1_555
N4A C23A 1_555 1_555
N6A C27A 1_555 1_555
C6A C7A 1_555 1_555
C6A C9A 1_555 1_555
C18A C19A 1_555 1_555

#END
