
#######################################################################
#
#                 Cambridge Crystallographic Data Centre
#                                CCDC 
#
#######################################################################
#
# If this CIF has been generated from an entry in the Cambridge 
# Structural Database, then it will include bibliographic, chemical, 
# crystal, experimental, refinement or atomic coordinate data resulting 
# from the CCDC's data processing and validation procedures.
#
#######################################################################

data_NORNUF
_symmetry_cell_setting           triclinic
_symmetry_space_group_name_H-M   'P -1'
_symmetry_Int_Tables_number      2
_space_group_name_Hall           '-P 1'
loop_
_symmetry_equiv_pos_site_id
_symmetry_equiv_pos_as_xyz
1 x,y,z
2 -x,-y,-z
_cell_length_a                   13.8588(8)
_cell_length_b                   15.8192(9)
_cell_length_c                   17.8350(10)
_cell_angle_alpha                67.6880(10)
_cell_angle_beta                 68.6860(10)
_cell_angle_gamma                76.1130(10)
_cell_volume                     3346.21
loop_
_atom_site_label
_atom_site_type_symbol
_atom_site_fract_x
_atom_site_fract_y
_atom_site_fract_z
U1 U 0.361756(15) 0.745770(13) 0.075016(11)
O1 O 0.4121(3) 0.5947(3) 0.1688(3)
O2 O 0.2098(3) 0.8429(3) 0.1370(3)
O3 O 0.3241(3) 0.8968(3) -0.0275(2)
O4 O 0.2558(4) 0.7157(3) 0.2286(3)
O5 O 0.4518(4) 0.8013(3) -0.0783(3)
O6 O 0.4510(4) 0.7938(3) 0.0919(3)
O7 O 0.2748(4) 0.6972(3) 0.0571(3)
O8 O 0.5063(3) 0.6256(3) 0.0344(3)
C1 C 0.4858(4) 0.5715(4) 0.1108(3)
C2 C 0.1973(4) 0.7895(4) 0.2133(4)
C3 C 0.3968(5) 0.8796(4) -0.0888(3)
C4 C 0.5483(4) 0.4814(3) 0.1326(3)
C5 C 0.1127(4) 0.8162(4) 0.2819(3)
C6 C 0.4204(4) 0.9501(4) -0.1735(3)
S1 S 0.53094(11) 0.41950(9) 0.23833(8)
C7 C 0.6177(4) 0.4340(4) 0.0813(4)
S2 S 0.03386(10) 0.91732(9) 0.25486(8)
C8 C 0.0842(5) 0.7716(4) 0.3671(4)
S3 S 0.51789(10) 0.92523(9) -0.25638(8)
C9 C 0.3733(6) 1.0378(4) -0.1968(4)
C10 C 0.6189(4) 0.3310(4) 0.2121(4)
H1 H 0.6356 0.4561 0.0223
C11 C 0.6592(5) 0.3482(4) 0.1274(4)
C12 C -0.0411(5) 0.8974(4) 0.3587(3)
C13 C -0.0040(5) 0.8180(4) 0.4116(4)
H2 H 0.1193 0.7164 0.3931
C14 C 0.4945(4) 1.0339(4) -0.3227(3)
H3 H 0.3184 1.0630 -0.1596
C15 C 0.4163(6) 1.0860(4) -0.2826(4)
C16 C 0.6453(5) 0.2493(4) 0.2802(4)
H4 H 0.7089 0.3078 0.1023
C17 C -0.1314(5) 0.9646(4) 0.3804(4)
H5 H -0.0339 0.7973 0.4704
C18 C 0.5583(4) 1.0567(4) -0.4136(3)
H6 H 0.3936 1.1468 -0.3090
O9 O 0.5839(4) 0.2353(3) 0.3572(3)
O10 O 0.7242(4) 0.1936(3) 0.2645(3)
O11 O -0.1513(4) 1.0351(3) 0.3217(3)
O12 O -0.1869(3) 0.9521(3) 0.4563(3)
O13 O 0.6312(3) 0.9974(3) -0.4357(3)
O14 O 0.5402(3) 1.1330(3) -0.4674(3)
U2 U 0.689671(15) 0.092331(13) 0.415322(12)
O15 O -0.2395(4) 1.1566(3) 0.4347(3)
O16 O -0.3823(4) 1.0283(4) 0.3987(4)
U2_2 U -0.310329(15) 1.092331(13) 0.415322(12)
U2_3 U 0.689671(15) 1.092331(13) -0.584678(12)
O13_2 O -0.3688(3) 0.9974(3) 0.5643(3)
O9_2 O -0.4161(4) 1.2353(3) 0.3572(3)
O10_2 O -0.2758(4) 1.1936(3) 0.2645(3)
O14_2 O -0.4598(3) 1.1330(3) 0.5326(3)
Fe1 Fe 0.13675(6) 0.23615(5) 0.10598(5)
N1 N 0.2228(4) 0.3046(3) 0.1266(3)
N2 N 0.0429(4) 0.1813(3) 0.0810(3)
N3 N 0.0402(4) 0.3507(3) 0.1013(3)
N4 N 0.0786(4) 0.1873(3) 0.2318(3)
N5 N 0.2034(4) 0.2702(3) -0.0180(3)
N6 N 0.2329(4) 0.1197(3) 0.1236(3)
C19 C 0.2903(5) 0.3110(4) -0.0656(4)
H7 H 0.3239 0.3312 -0.0400
C20 C 0.3317(5) 0.3240(5) -0.1533(4)
H8 H 0.3925 0.3519 -0.1842
C21 C 0.2858(5) 0.2970(5) -0.1931(4)
H9 H 0.3132 0.3074 -0.2514
C22 C 0.1930(5) 0.2515(4) -0.1444(4)
C23 C 0.1578(4) 0.2395(4) -0.0574(3)
C24 C 0.0685(4) 0.1927(4) -0.0034(4)
C25 C 0.0111(5) 0.1636(4) -0.0379(4)
C26 C 0.0500(6) 0.1780(6) -0.1282(5)
H10 H 0.0137 0.1589 -0.1525
C27 C 0.1368(7) 0.2181(5) -0.1781(5)
H11 H 0.1606 0.2242 -0.2356
C28 C -0.0779(5) 0.1205(5) 0.0190(5)
H12 H -0.1174 0.0985 -0.0006
C29 C -0.1049(6) 0.1115(5) 0.1016(5)
H13 H -0.1655 0.0859 0.1390
C30 C -0.0416(5) 0.1409(4) 0.1327(4)
H14 H -0.0601 0.1314 0.1906
C31 C 0.3167(4) 0.2779(4) 0.1400(4)
H15 H 0.3543 0.2231 0.1320
C32 C 0.3588(5) 0.3297(5) 0.1653(4)
H16 H 0.4244 0.3098 0.1729
C33 C 0.3063(5) 0.4086(5) 0.1790(4)
H17 H 0.3337 0.4414 0.1986
C34 C 0.2084(4) 0.4408(4) 0.1633(4)
C35 C 0.1716(4) 0.3852(4) 0.1375(3)
C36 C 0.0697(5) 0.4117(4) 0.1241(4)
C37 C 0.0090(5) 0.4924(4) 0.1352(4)
C38 C 0.0517(6) 0.5500(4) 0.1599(5)
H18 H 0.0131 0.6046 0.1675
C39 C 0.1452(6) 0.5253(4) 0.1719(4)
H19 H 0.1708 0.5643 0.1863
C40 C -0.0884(6) 0.5115(5) 0.1237(5)
H20 H -0.1320 0.5642 0.1317
C41 C -0.1194(6) 0.4530(5) 0.1008(5)
H21 H -0.1850 0.4655 0.0933
C42 C -0.0535(5) 0.3722(5) 0.0878(5)
H22 H -0.0754 0.3340 0.0699
C43 C 0.0022(5) 0.2246(4) 0.2860(4)
H23 H -0.0395 0.2774 0.2644
C44 C -0.0168(5) 0.1868(5) 0.3741(4)
H24 H -0.0685 0.2159 0.4099
C45 C 0.0394(5) 0.1084(5) 0.4074(4)
H25 H 0.0261 0.0835 0.4660
C46 C 0.1175(5) 0.0643(5) 0.3547(4)
C47 C 0.1356(4) 0.1088(4) 0.2658(3)
C48 C 0.2176(5) 0.0701(4) 0.2072(4)
C49 C 0.2779(5) -0.0136(4) 0.2375(4)
C50 C 0.2537(6) -0.0586(5) 0.3275(5)
H26 H 0.2906 -0.1153 0.3479
C51 C 0.1805(6) -0.0220(5) 0.3829(4)
H27 H 0.1694 -0.0522 0.4409
C52 C 0.3560(5) -0.0463(4) 0.1751(5)
H28 H 0.3978 -0.1014 0.1912
C53 C 0.3706(6) 0.0013(5) 0.0924(5)
H29 H 0.4223 -0.0207 0.0513
C54 C 0.3073(6) 0.0852(5) 0.0676(4)
H30 H 0.3184 0.1172 0.0099
S4 S 0.0021(2) 0.39954(18) 0.39497(17)
O17 O 0.2009(6) 0.2974(4) 0.4047(5)
O18 O 0.2763(6) 0.4081(5) 0.4051(6)
O19 O -0.2360(9) 0.5944(9) 0.3750(8)
O20 O -0.2050(9) 0.4437(9) 0.3831(8)
C55 C 0.2024(8) 0.3825(6) 0.4003(6)
C56 C 0.1068(8) 0.4410(6) 0.3942(6)
C57 C 0.0834(8) 0.5312(6) 0.3864(7)
H31 H 0.1306 0.5659 0.3839
C58 C -0.0120(12) 0.5662(7) 0.3827(7)
H32 H -0.0380 0.6271 0.3790
C59 C -0.0707(9) 0.5047(8) 0.3846(6)
C60 C -0.1836(16) 0.5228(13) 0.3847(9)
O21 O 0.3663(6) 0.1907(5) 0.4247(6)
O22 O 0.3152(9) 0.5920(7) 0.3737(6)
O23 O -0.5414(11) 1.3332(9) 0.5003(12)
O24 O -0.2403(14) 0.7701(14) 0.3906(10)
O25 O 0.5163(14) 0.6204(18) 0.3654(11)
O26 O -0.3921(12) 0.4676(15) 0.3845(10)
loop_
_geom_bond_atom_site_label_1
_geom_bond_atom_site_label_2
_geom_bond_site_symmetry_1
_geom_bond_site_symmetry_2
U1 O1 1_555 1_555
O1 C1 1_555 1_555
O2 U1 1_555 1_555
O3 U1 1_555 1_555
O4 U1 1_555 1_555
O5 U1 1_555 1_555
O6 U1 1_555 1_555
O7 U1 1_555 1_555
O8 U1 1_555 1_555
C1 O8 1_555 1_555
C2 O2 1_555 1_555
C3 O3 1_555 1_555
C4 C1 1_555 1_555
C5 C2 1_555 1_555
C6 C3 1_555 1_555
S1 C4 1_555 1_555
C7 C4 1_555 1_555
S2 C5 1_555 1_555
C8 C5 1_555 1_555
S3 C6 1_555 1_555
C9 C6 1_555 1_555
C10 S1 1_555 1_555
H1 C7 1_555 1_555
C11 C7 1_555 1_555
C12 S2 1_555 1_555
C13 C8 1_555 1_555
H2 C8 1_555 1_555
C14 S3 1_555 1_555
H3 C9 1_555 1_555
C15 C9 1_555 1_555
C16 C10 1_555 1_555
H4 C11 1_555 1_555
C17 C12 1_555 1_555
H5 C13 1_555 1_555
C18 C14 1_555 1_555
H6 C15 1_555 1_555
O9 C16 1_555 1_555
O10 C16 1_555 1_555
O11 C17 1_555 1_555
O12 C17 1_555 1_555
O13 C18 1_555 1_555
O14 C18 1_555 1_555
U2 O9 1_555 1_555
O15 U2_2 1_555 1_555
O16 U2_2 1_555 1_555
Fe1 N1 1_555 1_555
N1 C31 1_555 1_555
N2 Fe1 1_555 1_555
N3 Fe1 1_555 1_555
N4 Fe1 1_555 1_555
N5 Fe1 1_555 1_555
N6 Fe1 1_555 1_555
C19 N5 1_555 1_555
H7 C19 1_555 1_555
C20 C19 1_555 1_555
H8 C20 1_555 1_555
C21 C20 1_555 1_555
H9 C21 1_555 1_555
C22 C21 1_555 1_555
C23 N5 1_555 1_555
C24 N2 1_555 1_555
C25 C24 1_555 1_555
C26 C25 1_555 1_555
H10 C26 1_555 1_555
C27 C22 1_555 1_555
H11 C27 1_555 1_555
C28 C25 1_555 1_555
H12 C28 1_555 1_555
C29 C28 1_555 1_555
H13 C29 1_555 1_555
C30 N2 1_555 1_555
H14 C30 1_555 1_555
C31 H15 1_555 1_555
C32 C31 1_555 1_555
H16 C32 1_555 1_555
C33 C32 1_555 1_555
H17 C33 1_555 1_555
C34 C33 1_555 1_555
C35 N1 1_555 1_555
C36 N3 1_555 1_555
C37 C36 1_555 1_555
C38 C37 1_555 1_555
H18 C38 1_555 1_555
C39 C34 1_555 1_555
H19 C39 1_555 1_555
C40 C37 1_555 1_555
H20 C40 1_555 1_555
C41 C40 1_555 1_555
H21 C41 1_555 1_555
C42 N3 1_555 1_555
H22 C42 1_555 1_555
C43 N4 1_555 1_555
H23 C43 1_555 1_555
C44 C43 1_555 1_555
H24 C44 1_555 1_555
C45 C44 1_555 1_555
H25 C45 1_555 1_555
C46 C45 1_555 1_555
C47 N4 1_555 1_555
C48 N6 1_555 1_555
C49 C48 1_555 1_555
C50 C49 1_555 1_555
H26 C50 1_555 1_555
C51 C46 1_555 1_555
H27 C51 1_555 1_555
C52 C49 1_555 1_555
H28 C52 1_555 1_555
C53 C52 1_555 1_555
H29 C53 1_555 1_555
C54 N6 1_555 1_555
H30 C54 1_555 1_555
S4 C56 1_555 1_555
O17 C55 1_555 1_555
O18 C55 1_555 1_555
O19 C60 1_555 1_555
O20 C60 1_555 1_555
C55 C56 1_555 1_555
C56 C57 1_555 1_555
C57 H31 1_555 1_555
C58 C57 1_555 1_555
H32 C58 1_555 1_555
C59 S4 1_555 1_555
C60 C59 1_555 1_555
U2_2 O11 1_555 1_555
U2_3 O13 1_555 1_555
O13_2 U2_2 1_555 1_555
O9_2 U2_2 1_555 1_555
O10_2 U2_2 1_555 1_555
O14_2 U2_2 1_555 1_555
O4 C2 1_555 1_555
O5 C3 1_555 1_555
C10 C11 1_555 1_555
C12 C13 1_555 1_555
C14 C15 1_555 1_555
O10 U2 1_555 1_555
O12 U2_2 1_555 1_555
O14 U2_3 1_555 1_555
C22 C23 1_555 1_555
C23 C24 1_555 1_555
C26 C27 1_555 1_555
C29 C30 1_555 1_555
C34 C35 1_555 1_555
C35 C36 1_555 1_555
C38 C39 1_555 1_555
C41 C42 1_555 1_555
C46 C47 1_555 1_555
C47 C48 1_555 1_555
C50 C51 1_555 1_555
C53 C54 1_555 1_555
C58 C59 1_555 1_555

#END
