
#######################################################################
#
#                 Cambridge Crystallographic Data Centre
#                                CCDC 
#
#######################################################################
#
# If this CIF has been generated from an entry in the Cambridge 
# Structural Database, then it will include bibliographic, chemical, 
# crystal, experimental, refinement or atomic coordinate data resulting 
# from the CCDC's data processing and validation procedures.
#
#######################################################################

data_NORPOB01
_symmetry_cell_setting           monoclinic
_symmetry_space_group_name_H-M   'C 2/c'
_symmetry_Int_Tables_number      15
_space_group_name_Hall           '-C 2yn'
loop_
_symmetry_equiv_pos_site_id
_symmetry_equiv_pos_as_xyz
1 x,y,z
2 -x,y,1/2-z
3 1/2+x,1/2+y,z
4 1/2-x,1/2+y,1/2-z
5 -x,-y,-z
6 x,-y,1/2+z
7 1/2-x,1/2-y,-z
8 1/2+x,1/2-y,1/2+z
_cell_length_a                   56.798(11)
_cell_length_b                   5.0760(10)
_cell_length_c                   16.383(3)
_cell_angle_alpha                90
_cell_angle_beta                 102.78(3)
_cell_angle_gamma                90
_cell_volume                     4606.32
loop_
_atom_site_label
_atom_site_type_symbol
_atom_site_fract_x
_atom_site_fract_y
_atom_site_fract_z
C1 C 0.23233(5) 0.7644(5) 0.62711(17)
C2 C 0.22094(6) 0.7785(7) 0.70215(18)
H1 H 0.2326 0.8504 0.7492
H2 H 0.2170 0.6014 0.7170
C3 C 0.19817(8) 0.9463(8) 0.6873(2)
H3 H 0.1935 0.9735 0.7402
H4 H 0.2017 1.1175 0.6664
C4 C 0.17716(7) 0.8237(8) 0.6257(2)
H5 H 0.1821 0.7898 0.5737
H6 H 0.1734 0.6553 0.6478
C5 C 0.15454(9) 0.9886(9) 0.6069(3)
H7 H 0.1499 1.0287 0.6591
H8 H 0.1581 1.1541 0.5825
C6 C 0.13350(8) 0.8614(12) 0.5486(3)
H9 H 0.1304 0.6932 0.5722
H10 H 0.1380 0.8259 0.4959
C7 C 0.11046(10) 1.0184(12) 0.5307(4)
H11 H 0.1064 1.0627 0.5835
H12 H 0.1133 1.1822 0.5039
C8 C 0.08950(10) 0.8854(15) 0.4771(4)
H13 H 0.0872 0.7174 0.5025
H14 H 0.0933 0.8488 0.4234
C9 C 0.06626(13) 1.0323(17) 0.4621(6)
H15 H 0.0625 1.0700 0.5158
H16 H 0.0685 1.1996 0.4362
C10 C 0.04554(13) 0.897(2) 0.4093(7)
H17 H 0.0312 1.0006 0.4061
H18 H 0.0435 0.7279 0.4331
H19 H 0.0484 0.8734 0.3541
C11 C 0.21110(5) 0.5130(5) 0.42670(17)
C12 C 0.18804(5) 0.3671(5) 0.3978(2)
H20 H 0.1909 0.2247 0.3617
H21 H 0.1837 0.2878 0.4463
C13 C 0.16695(5) 0.5207(6) 0.3520(2)
H22 H 0.1707 0.5904 0.3012
H23 H 0.1645 0.6694 0.3864
C14 C 0.14393(5) 0.3683(7) 0.3290(2)
H24 H 0.1466 0.2167 0.2962
H25 H 0.1400 0.3027 0.3801
C15 C 0.12263(6) 0.5164(8) 0.2810(3)
H26 H 0.1202 0.6698 0.3135
H27 H 0.1265 0.5795 0.2296
C16 C 0.09953(6) 0.3700(10) 0.2589(3)
H28 H 0.0959 0.3035 0.3103
H29 H 0.1019 0.2185 0.2255
C17 C 0.07810(8) 0.5159(11) 0.2126(4)
H30 H 0.0817 0.5826 0.1613
H31 H 0.0756 0.6669 0.2460
C18 C 0.05503(8) 0.3651(15) 0.1907(4)
H32 H 0.0576 0.2142 0.1574
H33 H 0.0515 0.2980 0.2422
C19 C 0.03338(11) 0.5085(18) 0.1445(7)
H34 H 0.0308 0.6593 0.1778
H35 H 0.0368 0.5754 0.0929
C20 C 0.01137(12) 0.360(3) 0.1241(8)
H36 H -0.0004 0.4559 0.0841
H37 H 0.0054 0.3312 0.1739
H38 H 0.0144 0.1933 0.1007
O1 O 0.22739(4) 0.9460(4) 0.57438(15)
O2 O 0.24605(5) 0.5757(4) 0.62225(13)
O3 O 0.21121(3) 0.7585(3) 0.41839(14)
O4 O 0.22964(3) 0.3833(3) 0.45972(10)
Cu1 Cu 0.239244(5) 0.96608(5) 0.472940(19)
O2F O 0.25395(5) 0.9243(4) 0.37775(13)
O4_2 O 0.22964(3) 1.3833(3) 0.45972(10)
O4F O 0.27036(3) 1.1167(3) 0.54028(10)
Cu1_2 Cu 0.239244(5) -0.03392(5) 0.472940(19)
Cu1F Cu 0.260756(5) 0.53392(5) 0.527060(19)
loop_
_geom_bond_atom_site_label_1
_geom_bond_atom_site_label_2
_geom_bond_site_symmetry_1
_geom_bond_site_symmetry_2
C1 C2 1_555 1_555
C2 H1 1_555 1_555
H2 C2 1_555 1_555
C3 C2 1_555 1_555
H3 C3 1_555 1_555
H4 C3 1_555 1_555
C4 C3 1_555 1_555
H5 C4 1_555 1_555
H6 C4 1_555 1_555
C5 C4 1_555 1_555
H7 C5 1_555 1_555
H8 C5 1_555 1_555
C6 C5 1_555 1_555
H9 C6 1_555 1_555
H10 C6 1_555 1_555
C7 C6 1_555 1_555
H11 C7 1_555 1_555
H12 C7 1_555 1_555
C8 C7 1_555 1_555
H13 C8 1_555 1_555
H14 C8 1_555 1_555
C9 C8 1_555 1_555
H15 C9 1_555 1_555
H16 C9 1_555 1_555
C10 C9 1_555 1_555
H17 C10 1_555 1_555
H18 C10 1_555 1_555
H19 C10 1_555 1_555
C11 C12 1_555 1_555
C12 H20 1_555 1_555
H21 C12 1_555 1_555
C13 C12 1_555 1_555
H22 C13 1_555 1_555
H23 C13 1_555 1_555
C14 C13 1_555 1_555
H24 C14 1_555 1_555
H25 C14 1_555 1_555
C15 C14 1_555 1_555
H26 C15 1_555 1_555
H27 C15 1_555 1_555
C16 C15 1_555 1_555
H28 C16 1_555 1_555
H29 C16 1_555 1_555
C17 C16 1_555 1_555
H30 C17 1_555 1_555
H31 C17 1_555 1_555
C18 C17 1_555 1_555
H32 C18 1_555 1_555
H33 C18 1_555 1_555
C19 C18 1_555 1_555
H34 C19 1_555 1_555
H35 C19 1_555 1_555
C20 C19 1_555 1_555
H36 C20 1_555 1_555
H37 C20 1_555 1_555
H38 C20 1_555 1_555
O1 C1 1_555 1_555
O2 C1 1_555 1_555
O3 C11 1_555 1_555
O4 C11 1_555 1_555
Cu1 O1 1_555 1_555
O2F Cu1 1_555 1_555
O4_2 Cu1 1_555 1_555
O4F Cu1 1_555 1_555
Cu1_2 O4 1_555 1_555
Cu1F O2 1_555 1_555
O3 Cu1 1_555 1_555
O4 Cu1F 1_555 1_555
Cu1 Cu1F 1_555 1_555

#END
