
#######################################################################
#
#                 Cambridge Crystallographic Data Centre
#                                CCDC 
#
#######################################################################
#
# If this CIF has been generated from an entry in the Cambridge 
# Structural Database, then it will include bibliographic, chemical, 
# crystal, experimental, refinement or atomic coordinate data resulting 
# from the CCDC's data processing and validation procedures.
#
#######################################################################

data_NORQIW
_symmetry_cell_setting           monoclinic
_symmetry_space_group_name_H-M   'P 21/c'
_symmetry_Int_Tables_number      14
_space_group_name_Hall           '-P 2ybc'
loop_
_symmetry_equiv_pos_site_id
_symmetry_equiv_pos_as_xyz
1 x,y,z
2 -x,1/2+y,1/2-z
3 -x,-y,-z
4 x,1/2-y,1/2+z
_cell_length_a                   12.817(4)
_cell_length_b                   27.839(8)
_cell_length_c                   8.017(2)
_cell_angle_alpha                90
_cell_angle_beta                 95.42(2)
_cell_angle_gamma                90
_cell_volume                     2847.78
loop_
_atom_site_label
_atom_site_type_symbol
_atom_site_fract_x
_atom_site_fract_y
_atom_site_fract_z
H1 H 0.596(6) -0.0298(19) 0.943(12)
H2 H 0.625(6) 0.013(2) 1.024(6)
H3 H 0.668(5) -0.040(3) 0.524(6)
H4 H 0.731(6) -0.0730(11) 0.633(9)
H5 H 0.464(4) 0.1720(17) -0.246(3)
H6 H 0.556(2) 0.167(3) -0.120(11)
O1 O 1.1721(4) -0.11437(16) 0.8342(6)
O2 O 1.2053(3) -0.06374(14) 1.0468(5)
C1 C 1.1597(5) -0.0755(2) 0.9034(8)
C2 C 1.0945(5) -0.0361(2) 0.8152(7)
C3 C 0.5506(5) 0.0820(2) 0.2212(8)
C4 C 0.2752(5) 0.2540(2) -0.0860(7)
C5 C 0.6883(5) 0.1628(2) 0.5478(8)
H7 H 0.7379 0.1620 0.6402
C6 C 0.5795(5) 0.2063(2) 0.3446(8)
H8 H 0.5550 0.2358 0.3023
C7 C 0.1048(5) 0.2209(2) -0.2772(9)
H9 H 0.0467 0.2086 -0.3415
C8 C 0.5819(5) 0.1243(2) 0.3307(7)
C9 C 0.2091(5) 0.2869(2) -0.1706(7)
C10 C 0.9876(5) -0.0303(2) 0.8193(7)
C11 C 0.2318(5) 0.3402(2) -0.1704(8)
C12 C 0.6505(5) 0.2060(2) 0.4833(9)
H10 H 0.6731 0.2348 0.5337
C13 C 0.3668(5) 0.2679(2) 0.0323(7)
C14 C 0.6513(5) 0.1209(2) 0.4733(7)
C15 C 0.1750(5) 0.1907(2) -0.1927(8)
H11 H 0.1632 0.1578 -0.2021
C16 C 1.0948(5) 0.0360(2) 0.6542(8)
H12 H 1.1303 0.0590 0.5969
C17 C 0.1210(5) 0.2703(2) -0.2665(8)
H13 H 0.0738 0.2916 -0.3223
C18 C 0.9896(5) 0.0399(2) 0.6638(8)
H14 H 0.9541 0.0661 0.6136
C19 C 1.1474(5) -0.0019(2) 0.7293(8)
H15 H 1.2192 -0.0048 0.7232
C20 C 0.9203(5) -0.0631(2) 0.9145(7)
C21 C 0.6826(5) 0.0754(2) 0.5609(8)
N1 N 0.9352(4) 0.00716(18) 0.7437(6)
N2 N 0.5438(4) 0.16651(16) 0.2675(6)
N3 N 0.2593(4) 0.20568(16) -0.0978(6)
O3 O 0.3846(3) 0.31017(14) 0.0650(5)
O4 O 0.3024(4) 0.35374(14) -0.2612(5)
O5 O 0.5992(3) 0.04325(15) 0.2411(6)
O6 O 0.3029(4) 0.10658(15) -0.0945(6)
O7 O 0.6307(4) -0.00416(16) 0.9362(6)
O8 O 0.7088(4) -0.04467(17) 0.6130(6)
O9 O 0.8238(3) -0.04880(14) 0.9145(5)
O10 O 0.4747(3) 0.08923(14) 0.1078(5)
O11 O 0.9571(4) -0.09900(16) 0.9828(6)
O12 O 0.7768(3) 0.06169(16) 0.5715(6)
O13 O 0.6197(3) 0.05295(16) 0.6424(6)
O14 O 0.4198(3) 0.23247(14) 0.0987(6)
O15 O 0.1788(4) 0.36812(16) -0.0952(6)
O16 O 0.4915(4) 0.16317(18) -0.1502(6)
Sc1 Sc 0.39799(9) 0.15875(4) 0.05601(15)
Sc2 Sc 0.75775(9) 0.01161(4) 0.78004(15)
H16 H 0.338(5) 0.093(2) -0.163(7)
H17 H 0.256(4) 0.091(2) -0.049(8)
O2B O 0.7947(3) 0.06374(14) 0.9532(5)
O4C O 0.3024(4) 0.14626(14) 0.2388(5)
Sc1C Sc 0.39799(9) 0.34125(4) -0.44399(15)
Sc2B Sc 1.24225(9) -0.01161(4) 1.21996(15)
O17 O 0.4108(4) 0.05177(16) 0.6815(6)
O18 O 0.0911(7) 0.6588(3) 0.7036(12)
O19 O 0.1356(9) 0.7469(4) 0.610(3)
O20 O 0.3022(4) 0.8245(2) 0.0460(7)
O21 O 0.9556(5) 0.1522(2) 0.4402(7)
loop_
_geom_bond_atom_site_label_1
_geom_bond_atom_site_label_2
_geom_bond_site_symmetry_1
_geom_bond_site_symmetry_2
H1 O7 1_555 1_555
H2 O7 1_555 1_555
H3 O8 1_555 1_555
H4 O8 1_555 1_555
H5 O16 1_555 1_555
H6 O16 1_555 1_555
O1 C1 1_555 1_555
O2 C1 1_555 1_555
C1 C2 1_555 1_555
C2 C10 1_555 1_555
C3 C8 1_555 1_555
C4 C9 1_555 1_555
C5 H7 1_555 1_555
C6 H8 1_555 1_555
C7 H9 1_555 1_555
C8 C14 1_555 1_555
C9 C11 1_555 1_555
C10 C20 1_555 1_555
C11 O4 1_555 1_555
C12 C5 1_555 1_555
H10 C12 1_555 1_555
C13 C4 1_555 1_555
C14 C5 1_555 1_555
C15 C7 1_555 1_555
H11 C15 1_555 1_555
C16 H12 1_555 1_555
C17 C7 1_555 1_555
H13 C17 1_555 1_555
C18 C16 1_555 1_555
H14 C18 1_555 1_555
C19 C2 1_555 1_555
H15 C19 1_555 1_555
C20 O9 1_555 1_555
C21 C14 1_555 1_555
N1 C10 1_555 1_555
N2 C6 1_555 1_555
N3 C4 1_555 1_555
O3 C13 1_555 1_555
O4 Sc1C 1_555 1_555
O5 C3 1_555 1_555
O6 Sc1 1_555 1_555
O7 Sc2 1_555 1_555
O8 Sc2 1_555 1_555
O9 Sc2 1_555 1_555
O10 C3 1_555 1_555
O11 C20 1_555 1_555
O12 C21 1_555 1_555
O13 C21 1_555 1_555
O14 C13 1_555 1_555
O15 C11 1_555 1_555
O16 Sc1 1_555 1_555
Sc1 N2 1_555 1_555
Sc2 N1 1_555 1_555
H16 O6 1_555 1_555
H17 O6 1_555 1_555
O2B Sc2 1_555 1_555
O4C Sc1 1_555 1_555
Sc2B O2 1_555 1_555
C6 C12 1_555 1_555
C8 N2 1_555 1_555
C9 C17 1_555 1_555
C15 N3 1_555 1_555
C16 C19 1_555 1_555
C18 N1 1_555 1_555
N3 Sc1 1_555 1_555
O10 Sc1 1_555 1_555
O12 Sc2 1_555 1_555
O13 Sc2 1_555 1_555
O14 Sc1 1_555 1_555

#END
