
#######################################################################
#
#                 Cambridge Crystallographic Data Centre
#                                CCDC 
#
#######################################################################
#
# If this CIF has been generated from an entry in the Cambridge 
# Structural Database, then it will include bibliographic, chemical, 
# crystal, experimental, refinement or atomic coordinate data resulting 
# from the CCDC's data processing and validation procedures.
#
#######################################################################

data_NORQOC
_symmetry_cell_setting           monoclinic
_symmetry_space_group_name_H-M   'P 21/c'
_symmetry_Int_Tables_number      14
_space_group_name_Hall           '-P 2ybc'
loop_
_symmetry_equiv_pos_site_id
_symmetry_equiv_pos_as_xyz
1 x,y,z
2 -x,1/2+y,1/2-z
3 -x,-y,-z
4 x,1/2-y,1/2+z
_cell_length_a                   6.3313(6)
_cell_length_b                   33.114(4)
_cell_length_c                   7.5538(6)
_cell_angle_alpha                90
_cell_angle_beta                 93.400(6)
_cell_angle_gamma                90
_cell_volume                     1580.9
loop_
_atom_site_label
_atom_site_type_symbol
_atom_site_fract_x
_atom_site_fract_y
_atom_site_fract_z
C1 C 0.2598(7) -0.01518(14) 0.1569(5)
H1 H 0.2695 -0.0053 0.0424
C2 C 0.2496(7) -0.05621(15) 0.1804(5)
H2 H 0.2513 -0.0736 0.0838
C3 C 0.2367(6) -0.07130(13) 0.3499(6)
H3 H 0.2275 -0.0990 0.3689
C4 C 0.2378(6) -0.04450(13) 0.4917(5)
C5 C 0.2483(6) -0.00350(13) 0.4556(5)
C6 C 0.2369(6) -0.06175(12) 0.6768(5)
C7 C 0.2487(6) 0.02867(13) 0.5979(5)
C8 C -0.0554(8) 0.15353(16) 0.0997(8)
H4 H -0.1309 0.1308 0.0603
C9 C -0.1354(9) 0.19129(17) 0.0546(9)
H5 H -0.2615 0.1941 -0.0140
C10 C -0.0233(9) 0.22425(17) 0.1139(8)
H6 H -0.0756 0.2499 0.0870
C11 C 0.1669(8) 0.22041(14) 0.2134(7)
C12 C 0.2340(7) 0.18106(13) 0.2552(5)
C13 C 0.4277(8) 0.16798(15) 0.3684(6)
C14 C 0.2774(10) 0.26024(17) 0.2600(8)
H7 H 0.490(10) 0.235(2) 0.398(8)
N1 N 0.1247(6) 0.14821(11) 0.1970(6)
N2 N 0.2564(5) 0.01132(11) 0.2910(4)
O1 O 0.4376(5) 0.13054(10) 0.4036(5)
O2 O 0.5641(6) 0.19201(12) 0.4273(6)
O3 O 0.4535(8) 0.26057(14) 0.3526(7)
O4 O 0.1946(8) 0.29120(12) 0.2080(7)
O5 O 0.2666(5) 0.06521(9) 0.5426(4)
O6 O 0.2314(5) 0.01874(9) 0.7543(4)
O7 O 0.4108(4) -0.06701(10) 0.7624(4)
O8 O 0.0638(4) -0.07221(10) 0.7352(4)
O9 O 0.2420(5) 0.07918(10) -0.0055(4)
H8 H 0.2828 0.0993 -0.0648
H9 H 0.2355 0.0598 -0.0793
Sc1 Sc 0.26577(11) 0.08232(2) 0.27613(10)
O7B O 0.5892(4) 0.06701(10) 0.2376(4)
O8B O -0.0638(4) 0.07221(10) 0.2648(4)
Sc1B Sc -0.26577(11) -0.08232(2) 0.72387(10)
Sc1B_2 Sc 0.73423(11) -0.08232(2) 0.72387(10)
O10 O 0.4056(9) 0.13702(13) 0.8067(7)
H10 H 0.336(11) 0.1585(14) 0.787(10)
H11 H 0.420(13) 0.129(2) 0.701(5)
loop_
_geom_bond_atom_site_label_1
_geom_bond_atom_site_label_2
_geom_bond_site_symmetry_1
_geom_bond_site_symmetry_2
C1 H1 1_555 1_555
C2 C1 1_555 1_555
H2 C2 1_555 1_555
C3 C2 1_555 1_555
H3 C3 1_555 1_555
C4 C3 1_555 1_555
C5 C4 1_555 1_555
C6 C4 1_555 1_555
C7 C5 1_555 1_555
C8 H4 1_555 1_555
C9 C8 1_555 1_555
H5 C9 1_555 1_555
C10 C9 1_555 1_555
H6 C10 1_555 1_555
C11 C10 1_555 1_555
C12 C11 1_555 1_555
C13 C12 1_555 1_555
C14 C11 1_555 1_555
H7 O3 1_555 1_555
N1 C8 1_555 1_555
N2 C1 1_555 1_555
O1 C13 1_555 1_555
O2 C13 1_555 1_555
O3 C14 1_555 1_555
O4 C14 1_555 1_555
O5 C7 1_555 1_555
O6 C7 1_555 1_555
O7 C6 1_555 1_555
O8 C6 1_555 1_555
O9 H8 1_555 1_555
H9 O9 1_555 1_555
Sc1 N1 1_555 1_555
O10 H10 1_555 1_555
H11 O10 1_555 1_555
O7B Sc1 1_555 1_555
O8B Sc1 1_555 1_555
Sc1B O8 1_555 1_555
Sc1B_2 O7 1_555 1_555
C5 N2 1_555 1_555
C12 N1 1_555 1_555
N2 Sc1 1_555 1_555
O1 Sc1 1_555 1_555
O5 Sc1 1_555 1_555
O9 Sc1 1_555 1_555

#END
