
#######################################################################
#
#                 Cambridge Crystallographic Data Centre
#                                CCDC 
#
#######################################################################
#
# If this CIF has been generated from an entry in the Cambridge 
# Structural Database, then it will include bibliographic, chemical, 
# crystal, experimental, refinement or atomic coordinate data resulting 
# from the CCDC's data processing and validation procedures.
#
#######################################################################

data_NORRIW
_symmetry_cell_setting           rhombohedral
_symmetry_space_group_name_H-M   'R -3'
_symmetry_Int_Tables_number      148
_space_group_name_Hall           '-R 3'
loop_
_symmetry_equiv_pos_site_id
_symmetry_equiv_pos_as_xyz
1 x,y,z
2 -y,x-y,z
3 -x+y,-x,z
4 2/3+x,1/3+y,1/3+z
5 2/3-y,1/3+x-y,1/3+z
6 2/3-x+y,1/3-x,1/3+z
7 1/3+x,2/3+y,2/3+z
8 1/3-y,2/3+x-y,2/3+z
9 1/3-x+y,2/3-x,2/3+z
10 -x,-y,-z
11 y,-x+y,-z
12 x-y,x,-z
13 1/3-x,2/3-y,2/3-z
14 1/3+y,2/3-x+y,2/3-z
15 1/3+x-y,2/3+x,2/3-z
16 2/3-x,1/3-y,1/3-z
17 2/3+y,1/3-x+y,1/3-z
18 2/3+x-y,1/3+x,1/3-z
_cell_length_a                   32.9346(7)
_cell_length_b                   32.9346(7)
_cell_length_c                   9.1639(4)
_cell_angle_alpha                90
_cell_angle_beta                 90
_cell_angle_gamma                120.00
_cell_volume                     8608.27
loop_
_atom_site_label
_atom_site_type_symbol
_atom_site_fract_x
_atom_site_fract_y
_atom_site_fract_z
Zn1 Zn 0.5000 0.0000 0.0000
N1 N 0.53316(10) -0.00207(10) -0.1896(3)
N2 N 0.55969(9) 0.05933(10) 0.0710(3)
N3 N 0.75738(11) 0.13349(11) -0.2413(3)
C1 C 0.51555(12) -0.03594(13) -0.2953(4)
C2 C 0.55311(13) -0.02965(14) -0.3915(4)
H1 H 0.5502 -0.0480 -0.4750
C3 C 0.59316(14) 0.00732(15) -0.3403(4)
H2 H 0.6237 0.0196 -0.3804
C4 C 0.58050(12) 0.02445(13) -0.2125(4)
C5 C 0.61229(12) 0.06121(13) -0.1229(4)
C6 C 0.60251(12) 0.07722(12) 0.0070(4)
C7 C 0.63739(13) 0.11455(14) 0.0970(4)
H3 H 0.6699 0.1333 0.0761
C8 C 0.61502(13) 0.11771(14) 0.2161(4)
H4 H 0.6288 0.1389 0.2952
C9 C 0.56614(12) 0.08276(12) 0.2004(4)
C10 C 0.46875(12) -0.07312(12) -0.3049(4)
C11 C 0.66265(12) 0.08568(13) -0.1683(4)
C12 C 0.69409(13) 0.07494(14) -0.1006(4)
H5 H 0.6836 0.0511 -0.0284
C13 C 0.72667(14) 0.14294(14) -0.3066(4)
H6 H 0.7380 0.1667 -0.3794
C14 C 0.74065(14) 0.09957(14) -0.1403(4)
H7 H 0.7619 0.0922 -0.0938
C15 C 0.67964(13) 0.12013(15) -0.2738(4)
H8 H 0.6591 0.1280 -0.3232
C16 C 0.45543(12) -0.10388(13) -0.4358(4)
C17 C 0.45777(13) -0.08510(14) -0.5736(4)
H9 H 0.4680 -0.0527 -0.5831
C18 C 0.44550(15) -0.11290(16) -0.6967(4)
H10 H 0.4468 -0.0997 -0.7899
C19 C 0.4315(3) -0.1597(2) -0.6842(7)
C20 C 0.42863(19) -0.17931(17) -0.5477(6)
H11 H 0.4186 -0.2117 -0.5392
C21 C 0.44050(16) -0.15145(14) -0.4239(5)
H12 H 0.4384 -0.1649 -0.3306
C22 C 0.4206(2) -0.1873(2) -0.8157(7)
N4 N 0.4136(2) -0.20685(19) -0.9242(5)
Zn1N Zn 0.8333 0.1667 -0.3333
Zn1E Zn 0.1667 -0.1667 0.3333
N1I N 0.46684(10) 0.00207(10) 0.1896(3)
N2I N 0.44031(9) -0.05933(10) -0.0710(3)
N3I N 0.24262(11) -0.13349(11) 0.2413(3)
N3D N 0.53318(11) -0.04278(16) 0.0920(3)
N3M N 0.46682(11) 0.04278(16) -0.0920(3)
C1I C 0.48445(12) 0.03594(13) 0.2953(4)
C2I C 0.44689(13) 0.02965(14) 0.3915(4)
H1I H 0.4498 0.0480 0.4750
C3I C 0.40684(14) -0.00732(15) 0.3403(4)
H2I H 0.3763 -0.0196 0.3804
C4I C 0.41950(12) -0.02445(13) 0.2125(4)
C5I C 0.38771(12) -0.06121(13) 0.1229(4)
C6I C 0.39749(12) -0.07722(12) -0.0070(4)
C7I C 0.36261(13) -0.11455(14) -0.0970(4)
H3I H 0.3301 -0.1333 -0.0761
C8I C 0.38498(13) -0.11771(14) -0.2161(4)
H4I H 0.3712 -0.1389 -0.2952
C9I C 0.43386(12) -0.08276(12) -0.2004(4)
C10I C 0.53125(12) 0.07312(12) 0.3049(4)
C11I C 0.33735(12) -0.08568(13) 0.1683(4)
C12I C 0.30591(13) -0.07494(14) 0.1006(4)
H5I H 0.3164 -0.0511 0.0284
C13I C 0.27333(14) -0.14294(14) 0.3066(4)
H6I H 0.2620 -0.1667 0.3794
C14I C 0.25935(14) -0.09957(14) 0.1403(4)
H7I H 0.2381 -0.0922 0.0938
C15I C 0.32036(13) -0.12013(15) 0.2738(4)
H8I H 0.3409 -0.1280 0.3232
C16I C 0.54457(12) 0.10388(13) 0.4358(4)
C17I C 0.54223(13) 0.08510(14) 0.5736(4)
H9I H 0.5320 0.0527 0.5831
C18I C 0.55450(15) 0.11290(16) 0.6967(4)
H10I H 0.5532 0.0997 0.7899
C19I C 0.5685(3) 0.1597(2) 0.6842(7)
C20I C 0.57137(19) 0.17931(17) 0.5477(6)
H11I H 0.5814 0.2117 0.5392
C21I C 0.55950(16) 0.15145(14) 0.4239(5)
H12I H 0.5616 0.1649 0.3306
C22I C 0.5794(2) 0.1873(2) 0.8157(7)
N4I N 0.5864(2) 0.20685(19) 0.9242(5)
O1 O 0.6051(2) 0.3126(2) 0.4531(7)
loop_
_geom_bond_atom_site_label_1
_geom_bond_atom_site_label_2
_geom_bond_site_symmetry_1
_geom_bond_site_symmetry_2
Zn1 N1 1_555 1_555
N1 C1 1_555 1_555
N2 Zn1 1_555 1_555
N3 C13 1_555 1_555
C1 C2 1_555 1_555
C2 H1 1_555 1_555
C3 C2 1_555 1_555
H2 C3 1_555 1_555
C4 N1 1_555 1_555
C5 C4 1_555 1_555
C6 N2 1_555 1_555
C7 C6 1_555 1_555
H3 C7 1_555 1_555
C8 C7 1_555 1_555
H4 C8 1_555 1_555
C9 N2 1_555 1_555
C10 C1 1_555 1_555
C11 C5 1_555 1_555
C12 C11 1_555 1_555
H5 C12 1_555 1_555
C13 H6 1_555 1_555
C14 N3 1_555 1_555
H7 C14 1_555 1_555
C15 C11 1_555 1_555
H8 C15 1_555 1_555
C16 C10 1_555 1_555
C17 C16 1_555 1_555
H9 C17 1_555 1_555
C18 C17 1_555 1_555
H10 C18 1_555 1_555
C19 C18 1_555 1_555
C20 C19 1_555 1_555
H11 C20 1_555 1_555
C21 C16 1_555 1_555
H12 C21 1_555 1_555
C22 C19 1_555 1_555
N4 C22 1_555 1_555
Zn1N N3 1_555 1_555
Zn1E N3I 1_555 1_555
N1I Zn1 1_555 1_555
N2I Zn1 1_555 1_555
N3I C13I 1_555 1_555
N3D Zn1 1_555 1_555
N3M Zn1 1_555 1_555
C1I N1I 1_555 1_555
C2I C1I 1_555 1_555
H1I C2I 1_555 1_555
C3I C2I 1_555 1_555
H2I C3I 1_555 1_555
C4I N1I 1_555 1_555
C5I C4I 1_555 1_555
C6I N2I 1_555 1_555
C7I C6I 1_555 1_555
H3I C7I 1_555 1_555
C8I C7I 1_555 1_555
H4I C8I 1_555 1_555
C9I C10 1_555 1_555
C10I C9 1_555 1_555
C11I C5I 1_555 1_555
C12I C11I 1_555 1_555
H5I C12I 1_555 1_555
C13I H6I 1_555 1_555
C14I N3I 1_555 1_555
H7I C14I 1_555 1_555
C15I C11I 1_555 1_555
H8I C15I 1_555 1_555
C16I C10I 1_555 1_555
C17I C16I 1_555 1_555
H9I C17I 1_555 1_555
C18I C17I 1_555 1_555
H10I C18I 1_555 1_555
C19I C18I 1_555 1_555
C20I C19I 1_555 1_555
H11I C20I 1_555 1_555
C21I C16I 1_555 1_555
H12I C21I 1_555 1_555
C22I C19I 1_555 1_555
N4I C22I 1_555 1_555
C3 C4 1_555 1_555
C5 C6 1_555 1_555
C8 C9 1_555 1_555
C12 C14 1_555 1_555
C13 C15 1_555 1_555
C20 C21 1_555 1_555
N2I C9I 1_555 1_555
C1I C10I 1_555 1_555
C3I C4I 1_555 1_555
C5I C6I 1_555 1_555
C8I C9I 1_555 1_555
C12I C14I 1_555 1_555
C13I C15I 1_555 1_555
C20I C21I 1_555 1_555

#END
