
#######################################################################
#
#                 Cambridge Crystallographic Data Centre
#                                CCDC 
#
#######################################################################
#
# If this CIF has been generated from an entry in the Cambridge 
# Structural Database, then it will include bibliographic, chemical, 
# crystal, experimental, refinement or atomic coordinate data resulting 
# from the CCDC's data processing and validation procedures.
#
#######################################################################

data_NORRUJ
_symmetry_cell_setting           monoclinic
_symmetry_space_group_name_H-M   'C 2/c'
_symmetry_Int_Tables_number      15
_space_group_name_Hall           '-C 2yn'
loop_
_symmetry_equiv_pos_site_id
_symmetry_equiv_pos_as_xyz
1 x,y,z
2 -x,y,1/2-z
3 1/2+x,1/2+y,z
4 1/2-x,1/2+y,1/2-z
5 -x,-y,-z
6 x,-y,1/2+z
7 1/2-x,1/2-y,-z
8 1/2+x,1/2-y,1/2+z
_cell_length_a                   14.052(7)
_cell_length_b                   16.276(8)
_cell_length_c                   17.397(9)
_cell_angle_alpha                90
_cell_angle_beta                 102.038(6)
_cell_angle_gamma                90
_cell_volume                     3891.38
loop_
_atom_site_label
_atom_site_type_symbol
_atom_site_fract_x
_atom_site_fract_y
_atom_site_fract_z
O1 O 0.1846(3) 0.3767(2) 0.3088(2)
Eu1 Eu 0.0000 0.35967(3) 0.2500
O2 O 0.4249(3) 0.2746(2) 0.1140(2)
O3 O 0.4218(3) 0.0999(2) -0.1476(2)
C1 C 0.1764(4) 0.1452(4) 0.1618(3)
O4 O 0.0847(3) 0.2473(2) 0.2096(2)
O5 O 0.1064(3) 0.3047(3) 0.3764(2)
N1 N 0.4793(3) 0.1597(3) -0.0058(3)
H1 H 0.4750 0.1653 -0.0555
O6 O -0.0579(3) 0.5095(3) 0.1993(2)
N2 N 0.2692(3) 0.2660(3) 0.2050(3)
H2 H 0.2164 0.2891 0.2116
C2 C 0.3792(4) 0.0401(3) -0.0358(3)
C3 C 0.3728(4) 0.0446(3) -0.1182(3)
N3 N 0.1874(4) 0.3267(3) 0.3643(3)
C4 C 0.0873(4) 0.1771(4) 0.1752(3)
C5 C 0.4334(4) 0.0988(4) 0.0162(3)
H3 H 0.4356 0.0928 0.0697
C6 C 0.1800(5) 0.0674(4) 0.1284(4)
H4 H 0.2395 0.0462 0.1226
O7 O 0.2638(3) 0.3016(3) 0.4021(3)
C7 C 0.2721(5) -0.0772(4) -0.0516(4)
H5 H 0.2387 -0.1180 -0.0307
C8 C 0.3133(4) -0.0129(4) -0.1646(3)
H6 H 0.3062 -0.0112 -0.2189
C9 C 0.3286(4) -0.0220(4) -0.0043(3)
H7 H 0.3341 -0.0252 0.0498
C10 C 0.3890(4) 0.3434(4) 0.1487(4)
H8 H 0.3339 0.3670 0.1125
H9 H 0.4392 0.3850 0.1616
C11 C 0.5381(4) 0.2203(4) 0.0451(3)
H10 H 0.5919 0.2369 0.0216
H11 H 0.5652 0.1948 0.0954
C12 C 0.3583(4) 0.3148(4) 0.2219(4)
H12 H 0.4102 0.2821 0.2529
H13 H 0.3483 0.3622 0.2530
C13 C 0.2639(4) 0.1914(4) 0.1810(3)
H14 H 0.3214 0.1657 0.1757
C14 C 0.0986(6) 0.0229(4) 0.1046(4)
H15 H 0.1014 -0.0284 0.0817
C15 C 0.4822(4) 0.2944(4) 0.0587(3)
H16 H 0.5265 0.3389 0.0786
H17 H 0.4407 0.3121 0.0097
C16 C 0.0044(4) 0.1288(4) 0.1488(4)
H18 H -0.0560 0.1480 0.1548
C17 C 0.2656(4) -0.0712(4) -0.1316(4)
H19 H 0.2268 -0.1087 -0.1644
N4 N 0.0000 0.5503(5) 0.2500
C18 C 0.0102(5) 0.0546(4) 0.1149(4)
H20 H -0.0463 0.0241 0.0981
O8 O 0.0000 0.6250(4) 0.2500
O6A O 0.0579(3) 0.5095(3) 0.3007(2)
O1A O -0.1846(3) 0.3767(2) 0.1912(2)
O2A O -0.4249(3) 0.2746(2) 0.3860(2)
O3A O -0.4218(3) 0.0999(2) 0.6476(2)
C1A C -0.1764(4) 0.1452(4) 0.3382(3)
O4A O -0.0847(3) 0.2473(2) 0.2904(2)
O5A O -0.1064(3) 0.3047(3) 0.1236(2)
N1A N -0.4793(3) 0.1597(3) 0.5058(3)
H1A H -0.4750 0.1653 0.5555
N2A N -0.2692(3) 0.2660(3) 0.2950(3)
H2A H -0.2164 0.2891 0.2884
C2A C -0.3792(4) 0.0401(3) 0.5358(3)
C3A C -0.3728(4) 0.0446(3) 0.6182(3)
N3A N -0.1874(4) 0.3267(3) 0.1357(3)
C4A C -0.0873(4) 0.1771(4) 0.3248(3)
C5A C -0.4334(4) 0.0988(4) 0.4838(3)
H3A H -0.4356 0.0928 0.4303
C6A C -0.1800(5) 0.0674(4) 0.3716(4)
H4A H -0.2395 0.0462 0.3774
O7A O -0.2638(3) 0.3016(3) 0.0979(3)
C7A C -0.2721(5) -0.0772(4) 0.5516(4)
H5A H -0.2387 -0.1180 0.5307
C8A C -0.3133(4) -0.0129(4) 0.6646(3)
H6A H -0.3062 -0.0112 0.7189
C9A C -0.3286(4) -0.0220(4) 0.5043(3)
H7A H -0.3341 -0.0252 0.4502
C10A C -0.3890(4) 0.3434(4) 0.3513(4)
H8A H -0.3339 0.3670 0.3875
H9A H -0.4392 0.3850 0.3384
C11A C -0.5381(4) 0.2203(4) 0.4549(3)
H10A H -0.5919 0.2369 0.4784
H11A H -0.5652 0.1948 0.4046
C12A C -0.3583(4) 0.3148(4) 0.2781(4)
H12A H -0.4102 0.2821 0.2471
H13A H -0.3483 0.3622 0.2470
C13A C -0.2639(4) 0.1914(4) 0.3190(3)
H14A H -0.3214 0.1657 0.3243
C14A C -0.0986(6) 0.0229(4) 0.3954(4)
H15A H -0.1014 -0.0284 0.4183
C15A C -0.4822(4) 0.2944(4) 0.4413(3)
H16A H -0.5265 0.3389 0.4214
H17A H -0.4407 0.3121 0.4903
C16A C -0.0044(4) 0.1288(4) 0.3512(4)
H18A H 0.0560 0.1480 0.3452
C17A C -0.2656(4) -0.0712(4) 0.6316(4)
H19A H -0.2268 -0.1087 0.6644
C18A C -0.0102(5) 0.0546(4) 0.3851(4)
H20A H 0.0463 0.0241 0.4019
Eu1F Eu -0.5000 0.14033(3) 0.7500
Eu1F_2 Eu 0.5000 0.14033(3) -0.2500
O3F O 0.0782(3) 0.4001(2) 0.1476(2)
O3G O -0.0782(3) 0.4001(2) 0.3524(2)
loop_
_geom_bond_atom_site_label_1
_geom_bond_atom_site_label_2
_geom_bond_site_symmetry_1
_geom_bond_site_symmetry_2
O1 Eu1 1_555 1_555
Eu1 O4 1_555 1_555
O2 C10 1_555 1_555
O3 C3 1_555 1_555
C1 C4 1_555 1_555
O4 C4 1_555 1_555
O5 Eu1 1_555 1_555
N1 H1 1_555 1_555
O6 Eu1 1_555 1_555
N2 H2 1_555 1_555
C2 C3 1_555 1_555
C3 C8 1_555 1_555
N3 O1 1_555 1_555
C4 C16 1_555 1_555
C5 N1 1_555 1_555
H3 C5 1_555 1_555
C6 C1 1_555 1_555
H4 C6 1_555 1_555
O7 N3 1_555 1_555
C7 H5 1_555 1_555
C8 H6 1_555 1_555
C9 C2 1_555 1_555
H7 C9 1_555 1_555
C10 H8 1_555 1_555
H9 C10 1_555 1_555
C11 N1 1_555 1_555
H10 C11 1_555 1_555
H11 C11 1_555 1_555
C12 N2 1_555 1_555
H12 C12 1_555 1_555
H13 C12 1_555 1_555
C13 C1 1_555 1_555
H14 C13 1_555 1_555
C14 C6 1_555 1_555
H15 C14 1_555 1_555
C15 O2 1_555 1_555
H16 C15 1_555 1_555
H17 C15 1_555 1_555
C16 H18 1_555 1_555
C17 C7 1_555 1_555
H19 C17 1_555 1_555
N4 O6 1_555 1_555
C18 C14 1_555 1_555
H20 C18 1_555 1_555
O8 N4 1_555 1_555
O6A Eu1 1_555 1_555
O1A Eu1 1_555 1_555
O2A C10A 1_555 1_555
O3A C3A 1_555 1_555
C1A C4A 1_555 1_555
O4A Eu1 1_555 1_555
O5A Eu1 1_555 1_555
N1A H1A 1_555 1_555
N2A H2A 1_555 1_555
C2A C3A 1_555 1_555
C3A C8A 1_555 1_555
N3A O1A 1_555 1_555
C4A O4A 1_555 1_555
C5A N1A 1_555 1_555
H3A C5A 1_555 1_555
C6A C1A 1_555 1_555
H4A C6A 1_555 1_555
O7A N3A 1_555 1_555
C7A H5A 1_555 1_555
C8A H6A 1_555 1_555
C9A C2A 1_555 1_555
H7A C9A 1_555 1_555
C10A H8A 1_555 1_555
H9A C10A 1_555 1_555
C11A N1A 1_555 1_555
H10A C11A 1_555 1_555
H11A C11A 1_555 1_555
C12A N2A 1_555 1_555
H12A C12A 1_555 1_555
H13A C12A 1_555 1_555
C13A C1A 1_555 1_555
H14A C13A 1_555 1_555
C14A C6A 1_555 1_555
H15A C14A 1_555 1_555
C15A O2A 1_555 1_555
H16A C15A 1_555 1_555
H17A C15A 1_555 1_555
C16A C4A 1_555 1_555
H18A C16A 1_555 1_555
C17A C7A 1_555 1_555
H19A C17A 1_555 1_555
C18A C14A 1_555 1_555
H20A C18A 1_555 1_555
Eu1F O3A 1_555 1_555
Eu1F_2 O3 1_555 1_555
O3F Eu1 1_555 1_555
O3G Eu1 1_555 1_555
O5 N3 1_555 1_555
N2 C13 1_555 1_555
C2 C5 1_555 1_555
C7 C9 1_555 1_555
C8 C17 1_555 1_555
C10 C12 1_555 1_555
C11 C15 1_555 1_555
C16 C18 1_555 1_555
N4 O6A 1_555 1_555
O5A N3A 1_555 1_555
N2A C13A 1_555 1_555
C2A C5A 1_555 1_555
C7A C9A 1_555 1_555
C8A C17A 1_555 1_555
C10A C12A 1_555 1_555
C11A C15A 1_555 1_555
C16A C18A 1_555 1_555

#END
