
#######################################################################
#
#                 Cambridge Crystallographic Data Centre
#                                CCDC 
#
#######################################################################
#
# If this CIF has been generated from an entry in the Cambridge 
# Structural Database, then it will include bibliographic, chemical, 
# crystal, experimental, refinement or atomic coordinate data resulting 
# from the CCDC's data processing and validation procedures.
#
#######################################################################

data_NORXUP
_symmetry_cell_setting           monoclinic
_symmetry_space_group_name_H-M   'P 21/c'
_symmetry_Int_Tables_number      14
_space_group_name_Hall           '-P 2ybc'
loop_
_symmetry_equiv_pos_site_id
_symmetry_equiv_pos_as_xyz
1 x,y,z
2 -x,1/2+y,1/2-z
3 -x,-y,-z
4 x,1/2-y,1/2+z
_cell_length_a                   15.368(10)
_cell_length_b                   8.370(6)
_cell_length_c                   13.710(9)
_cell_angle_alpha                90
_cell_angle_beta                 101.697(12)
_cell_angle_gamma                90
_cell_volume                     1726.9
loop_
_atom_site_label
_atom_site_type_symbol
_atom_site_fract_x
_atom_site_fract_y
_atom_site_fract_z
Cu1 Cu 0.36373(4) 0.04683(8) 0.62769(6)
Cu2 Cu 0.58237(5) 0.45032(8) 0.61548(6)
Cu3 Cu 1.08449(4) 0.77194(8) 0.62609(6)
Cu4 Cu 0.85698(4) 0.16779(8) 0.60298(6)
N1 N 1.0506(3) 0.5386(5) 0.6241(4)
N2 N 1.0991(3) 0.4067(5) 0.6134(3)
C1 C 0.9719(4) 0.4822(6) 0.6258(5)
H1 H 0.9243 0.5462 0.6338
N3 N 0.9660(3) 0.3213(5) 0.6149(4)
N4 N 0.4210(3) 0.2454(6) 0.6224(4)
N5 N 1.4467(3) 0.1816(5) 0.8734(4)
N6 N 0.2590(3) -0.0652(6) 0.6284(4)
N7 N 0.7529(3) 0.2858(6) 0.6009(4)
C2 C 0.9716(4) 0.8740(6) 0.6206(5)
N8 N 1.3968(3) 0.3151(5) 0.8789(4)
N9 N 1.5304(3) 0.3960(5) 0.8775(4)
N10 N 0.9190(3) 0.9696(6) 0.6143(4)
C3 C 0.4733(4) 0.3423(6) 0.6195(5)
C4 C 1.0466(3) 0.2808(6) 0.6077(4)
H2 H 1.0647 0.1765 0.5995
C5 C 1.5250(4) 0.2375(6) 0.8725(5)
H3 H 1.5733 0.1725 0.8687
C6 C 1.2498(3) 0.4341(6) 0.7120(4)
H4 H 1.2307 0.5290 0.7424
H5 H 1.3111 0.4501 0.7064
C7 C 1.2451(3) 0.2918(6) 0.7797(4)
H6 H 1.1839 0.2779 0.7863
H7 H 1.2624 0.1966 0.7480
C8 C 0.6891(4) 0.3569(7) 0.6016(5)
C9 C 1.1940(3) 0.4145(7) 0.6103(4)
H8 H 1.2043 0.5038 0.5689
H9 H 1.2112 0.3174 0.5805
C10 C 1.4485(4) 0.4410(6) 0.8814(5)
H10 H 1.4302 0.5463 0.8854
C11 C 1.3018(3) 0.3052(6) 0.8807(5)
H11 H 1.2846 0.3997 0.9132
H12 H 1.2917 0.2131 0.9199
C12 C 0.1938(4) -0.1346(6) 0.6283(5)
Cu1A Cu 1.63627(4) 0.54683(8) 0.87231(6)
Cu2A Cu 1.41763(5) -0.04968(8) 0.88452(6)
Cu3_2 Cu 0.08449(4) -0.22806(8) 0.62609(6)
Cu4_2 Cu 0.85698(4) 1.16779(8) 0.60298(6)
N5A N 0.5533(3) 0.6816(5) 0.6266(4)
N9A N 0.4696(3) -0.1040(5) 0.6225(4)
N10_2 N 0.9190(3) -0.0304(6) 0.6143(4)
C12_2 C 1.1938(4) 0.8654(6) 0.6283(5)
loop_
_geom_bond_atom_site_label_1
_geom_bond_atom_site_label_2
_geom_bond_site_symmetry_1
_geom_bond_site_symmetry_2
Cu1 N4 1_555 1_555
Cu2 C3 1_555 1_555
Cu3 N1 1_555 1_555
Cu4 N3 1_555 1_555
N1 N2 1_555 1_555
N2 C4 1_555 1_555
C1 N1 1_555 1_555
H1 C1 1_555 1_555
N3 C1 1_555 1_555
N4 C3 1_555 1_555
N5 N8 1_555 1_555
N6 Cu1 1_555 1_555
N7 Cu4 1_555 1_555
C2 Cu3 1_555 1_555
N8 C10 1_555 1_555
N9 C5 1_555 1_555
N10 C2 1_555 1_555
C4 N3 1_555 1_555
H2 C4 1_555 1_555
C5 N5 1_555 1_555
H3 C5 1_555 1_555
C6 H4 1_555 1_555
H5 C6 1_555 1_555
C7 C6 1_555 1_555
H6 C7 1_555 1_555
H7 C7 1_555 1_555
C8 Cu2 1_555 1_555
C9 N2 1_555 1_555
H8 C9 1_555 1_555
H9 C9 1_555 1_555
C10 N9 1_555 1_555
H10 C10 1_555 1_555
C11 N8 1_555 1_555
H11 C11 1_555 1_555
H12 C11 1_555 1_555
C12 N6 1_555 1_555
Cu1A N9 1_555 1_555
Cu2A N5 1_555 1_555
Cu3_2 C12 1_555 1_555
Cu4_2 N10 1_555 1_555
N5A Cu2 1_555 1_555
N9A Cu1 1_555 1_555
N10_2 Cu4 1_555 1_555
C12_2 Cu3 1_555 1_555
N7 C8 1_555 1_555
C6 C9 1_555 1_555
C7 C11 1_555 1_555

#END
