
#######################################################################
#
#                 Cambridge Crystallographic Data Centre
#                                CCDC 
#
#######################################################################
#
# If this CIF has been generated from an entry in the Cambridge 
# Structural Database, then it will include bibliographic, chemical, 
# crystal, experimental, refinement or atomic coordinate data resulting 
# from the CCDC's data processing and validation procedures.
#
#######################################################################

data_NORYIE
_symmetry_cell_setting           triclinic
_symmetry_space_group_name_H-M   'P -1'
_symmetry_Int_Tables_number      2
_space_group_name_Hall           '-P 1'
loop_
_symmetry_equiv_pos_site_id
_symmetry_equiv_pos_as_xyz
1 x,y,z
2 -x,-y,-z
_cell_length_a                   11.614(5)
_cell_length_b                   12.122(5)
_cell_length_c                   23.230(5)
_cell_angle_alpha                83.501(5)
_cell_angle_beta                 86.396(5)
_cell_angle_gamma                84.963(5)
_cell_volume                     3232.24
loop_
_atom_site_label
_atom_site_type_symbol
_atom_site_fract_x
_atom_site_fract_y
_atom_site_fract_z
C1 C 1.0388(13) -0.7187(13) 0.5189(7)
C2 C 0.9640(15) -0.6232(14) 0.5383(7)
C3 C 0.8223(14) -0.5137(13) 0.5530(7)
C4 C 0.7019(16) -0.4546(14) 0.5526(8)
C5 C 0.6356(18) -0.4422(17) 0.6019(10)
H1 H 0.6631 -0.4652 0.6384
C6 C 0.524(2) -0.3930(19) 0.5946(11)
H2 H 0.4745 -0.3804 0.6266
C7 C 0.4896(18) -0.3640(17) 0.5403(10)
H3 H 0.4150 -0.3316 0.5347
C8 C 0.563(2) -0.382(2) 0.4930(12)
H4 H 0.5384 -0.3603 0.4558
C9 C 0.7027(14) -0.8519(15) 0.3497(9)
H5 H 0.6927 -0.9124 0.3774
C10 C 0.7412(13) -0.6968(14) 0.3084(7)
C11 C 0.7675(12) -0.5832(13) 0.2976(6)
C12 C 0.7928(13) -0.4234(13) 0.2505(7)
C13 C 0.8048(14) -0.3336(15) 0.2041(8)
C14 C 0.8101(13) -0.2230(14) 0.2175(8)
H6 H 0.8072 -0.2065 0.2558
C15 C 0.8195(13) -0.1417(14) 0.1724(8)
H7 H 0.8248 -0.0689 0.1804
C16 C 0.8196(19) -0.2638(19) 0.1044(9)
H8 H 0.8255 -0.2775 0.0657
C17 C 0.8092(15) -0.3503(15) 0.1465(7)
H9 H 0.8051 -0.4218 0.1362
C18 C 0.7360(14) -0.6985(14) 0.0512(7)
C19 C 0.8576(14) -0.6699(13) 0.0476(7)
C20 C 1.0141(15) -0.6074(14) 0.0585(7)
C21 C 1.1051(15) -0.5581(13) 0.0854(8)
C22 C 1.0943(16) -0.5315(14) 0.1419(8)
H10 H 1.0270 -0.5442 0.1647
C23 C 1.1862(19) -0.4850(17) 0.1647(10)
H11 H 1.1783 -0.4650 0.2024
C24 C 1.2973(15) -0.4959(16) 0.0815(10)
H12 H 1.3679 -0.4840 0.0616
C25 C 1.2098(16) -0.5417(13) 0.0541(9)
H13 H 1.2218 -0.5603 0.0163
N1 N 0.6671(14) -0.4284(13) 0.4994(8)
N2 N 0.8622(12) -0.5854(11) 0.5181(6)
N3 N 0.9913(12) -0.5753(12) 0.5828(6)
N4 N 0.9002(12) -0.5048(11) 0.5925(6)
N5 N 1.0122(11) -0.7780(10) 0.4770(6)
N6 N 1.1350(11) -0.7577(11) 0.5448(6)
N7 N 0.8213(12) -0.1622(14) 0.1172(8)
N8 N 0.7721(12) -0.5306(11) 0.2434(6)
N9 N 0.7836(11) -0.5163(12) 0.3373(6)
N10 N 0.8021(11) -0.4122(11) 0.3062(6)
N11 N 0.7009(12) -0.7459(12) 0.2677(6)
N12 N 0.6779(12) -0.8490(11) 0.2948(6)
N13 N 0.7440(11) -0.7575(11) 0.3605(6)
N14 N 1.2794(15) -0.4701(13) 0.1348(8)
N15 N 0.9065(12) -0.6137(11) 0.0842(6)
N16 N 0.9328(12) -0.6972(12) 0.0048(6)
N17 N 1.0369(12) -0.6567(11) 0.0101(6)
N18 N 0.6602(12) -0.6699(12) 0.0941(7)
N19 N 0.6957(14) -0.7519(15) 0.0125(7)
O1 O 0.3928(8) -0.0663(8) 0.2416(4)
O2 O 0.2815(8) 0.1132(8) 0.2817(4)
O3 O 0.1979(8) 0.0237(8) 0.1959(4)
O4 O 0.1927(8) -0.0829(8) 0.3016(4)
O5 O -0.0236(9) 0.0201(9) 0.2592(5)
O6 O 0.1023(9) 0.1853(9) 0.1280(5)
O7 O 0.0611(9) 0.2114(8) 0.2405(5)
O8 O 0.3018(9) 0.2328(8) 0.1678(5)
O9 O 0.2939(10) 0.2112(9) 0.0484(5)
O10 O 0.0374(10) 0.3419(10) 0.3340(5)
O11 O 0.4862(8) 0.0162(8) 0.3384(5)
O12 O 0.0573(9) 0.1073(9) 0.3443(5)
O13 O 0.4331(9) 0.2362(9) 0.3106(5)
O14 O 0.4492(10) 0.3767(9) 0.2066(5)
O15 O 0.5269(9) -0.1391(8) 0.1587(5)
O16 O 0.2998(8) -0.2799(8) 0.2555(5)
O17 O 0.2042(10) -0.2736(8) 0.3630(5)
O18 O 0.6426(10) -0.1708(9) 0.3526(5)
O19 O 0.1019(9) -0.3893(9) 0.2864(5)
O20 O 0.0066(8) -0.1856(8) 0.3164(4)
O21 O -0.1269(9) -0.0235(10) 0.3709(5)
O22 O 0.2310(8) 0.2192(8) 0.3713(5)
O23 O -0.1243(9) 0.1751(9) 0.1750(5)
O24 O 0.0172(8) -0.0126(9) 0.1470(4)
O25 O 0.2720(9) -0.2021(10) 0.4650(5)
O26 O 0.6504(9) 0.0477(10) 0.1315(5)
O27 O 0.1050(10) -0.1924(10) 0.0920(5)
O28 O 0.2383(9) 0.3254(8) 0.2645(5)
O29 O 0.4014(9) -0.1747(8) 0.3582(4)
O30 O 0.2913(9) 0.0000(8) 0.3973(5)
O31 O 0.0912(9) -0.0954(9) 0.4048(4)
O32 O 0.4382(10) 0.1493(10) 0.4277(5)
O33 O 0.5231(9) -0.2461(8) 0.2651(5)
O34 O 0.6088(9) -0.0452(8) 0.2465(5)
O35 O 0.4101(8) 0.0571(9) 0.1269(5)
O36 O 0.4655(10) -0.3575(10) 0.1714(5)
O37 O 0.3054(8) -0.1735(9) 0.1501(5)
O38 O 0.1114(8) -0.1918(8) 0.2108(5)
Si1 Si 0.2659(3) -0.0028(3) 0.25488(16)
Ag1 Ag 0.83177(12) -0.28569(12) 0.36567(6)
Ag2 Ag 0.86427(14) -0.76174(14) 0.42614(8)
Ag3 Ag 0.78366(19) -0.52400(17) 0.42879(7)
Ag4 Ag 0.71088(16) -0.62661(15) 0.17570(7)
W1 W 0.38211(6) 0.26046(6) 0.23321(3)
W2 W 0.15077(6) -0.11193(6) 0.13945(3)
W3 W 0.25043(6) -0.14853(5) 0.39601(3)
W4 W 0.00536(6) -0.03356(6) 0.33684(3)
W5 W 0.26337(6) 0.13700(6) 0.11335(3)
W6 W 0.00989(6) 0.11563(6) 0.18997(3)
W7 W 0.42310(6) -0.23597(6) 0.20159(3)
W8 W 0.12822(6) 0.23913(5) 0.30912(3)
W9 W 0.53404(6) 0.01251(6) 0.17613(3)
W10 W 0.52746(6) -0.12539(6) 0.31058(3)
W11 W 0.37387(6) 0.12356(6) 0.36679(3)
W12 W 0.14574(6) -0.26059(6) 0.28701(3)
O39 O 0.4925(8) 0.1447(8) 0.2128(4)
O40 O 0.2160(10) 0.0053(9) 0.0858(5)
N20 N 1.1731(12) -0.8473(12) 0.5172(6)
N21 N 0.5822(15) -0.7590(15) 0.0319(7)
C26 C 1.1006(15) -0.8594(14) 0.4757(7)
H14 H 1.1095 -0.9141 0.4503
C27 C 0.5612(19) -0.7112(18) 0.0808(8)
H15 H 0.4909 -0.7069 0.1023
N6A N 0.8650(11) -0.2423(11) 0.4552(6)
O20_2 O 1.0066(8) -0.1856(8) 0.3164(4)
Ag1_2 Ag -0.16823(12) -0.28569(12) 0.36567(6)
Ag1A Ag 1.16823(12) -0.71431(12) 0.63433(6)
O41 O 0.4720(18) -0.882(2) -0.0332(9)
O42 O 1.3731(18) -0.977(3) 0.5354(9)
O43 O 0.840(3) -0.0037(16) 0.0258(9)
O44 O 0.584(2) -0.405(3) 0.0557(11)
loop_
_geom_bond_atom_site_label_1
_geom_bond_atom_site_label_2
_geom_bond_site_symmetry_1
_geom_bond_site_symmetry_2
C1 C2 1_555 1_555
C2 N2 1_555 1_555
C3 C4 1_555 1_555
C4 C5 1_555 1_555
C5 H1 1_555 1_555
C6 C5 1_555 1_555
H2 C6 1_555 1_555
C7 C6 1_555 1_555
H3 C7 1_555 1_555
C8 C7 1_555 1_555
H4 C8 1_555 1_555
C9 H5 1_555 1_555
C10 C11 1_555 1_555
C11 N8 1_555 1_555
C12 C13 1_555 1_555
C13 C14 1_555 1_555
C14 H6 1_555 1_555
C15 C14 1_555 1_555
H7 C15 1_555 1_555
C16 H8 1_555 1_555
C17 C13 1_555 1_555
H9 C17 1_555 1_555
C18 C19 1_555 1_555
C19 N15 1_555 1_555
C20 C21 1_555 1_555
C21 C22 1_555 1_555
C22 H10 1_555 1_555
C23 C22 1_555 1_555
H11 C23 1_555 1_555
C24 H12 1_555 1_555
C25 C21 1_555 1_555
H13 C25 1_555 1_555
N1 C4 1_555 1_555
N2 C3 1_555 1_555
N3 C2 1_555 1_555
N4 C3 1_555 1_555
N5 C1 1_555 1_555
N6 C1 1_555 1_555
N7 C15 1_555 1_555
N8 C12 1_555 1_555
N9 C11 1_555 1_555
N10 C12 1_555 1_555
N11 C10 1_555 1_555
N12 C9 1_555 1_555
N13 C9 1_555 1_555
N14 C23 1_555 1_555
N15 C20 1_555 1_555
N16 C19 1_555 1_555
N17 C20 1_555 1_555
N18 C18 1_555 1_555
N19 C18 1_555 1_555
O1 Si1 1_555 1_555
O2 Si1 1_555 1_555
O3 Si1 1_555 1_555
O4 Si1 1_555 1_555
O5 W4 1_555 1_555
O6 W5 1_555 1_555
O7 W6 1_555 1_555
O8 W1 1_555 1_555
O9 W5 1_555 1_555
O10 W8 1_555 1_555
O11 W10 1_555 1_555
O12 W4 1_555 1_555
O13 W1 1_555 1_555
O14 W1 1_555 1_555
O15 W7 1_555 1_555
O16 W7 1_555 1_555
O17 W3 1_555 1_555
O18 Ag1 1_555 1_555
O19 W12 1_555 1_555
O20 W4 1_555 1_555
O21 W4 1_555 1_555
O22 W8 1_555 1_555
O23 W6 1_555 1_555
O24 W2 1_555 1_555
O25 W3 1_555 1_555
O26 W9 1_555 1_555
O27 W2 1_555 1_555
O28 W1 1_555 1_555
O29 W3 1_555 1_555
O30 W3 1_555 1_555
O31 W3 1_555 1_555
O32 W11 1_555 1_555
O33 W7 1_555 1_555
O34 W9 1_555 1_555
O35 W5 1_555 1_555
O36 W7 1_555 1_555
O37 W2 1_555 1_555
O38 W2 1_555 1_555
Ag1 N10 1_555 1_555
Ag2 N5 1_555 1_555
Ag3 N1 1_555 1_555
Ag4 N8 1_555 1_555
W1 O2 1_555 1_555
W2 O3 1_555 1_555
W3 O4 1_555 1_555
W4 O4 1_555 1_555
W5 O3 1_555 1_555
W6 O3 1_555 1_555
W7 O1 1_555 1_555
W8 O2 1_555 1_555
W9 O1 1_555 1_555
W10 O1 1_555 1_555
W11 O2 1_555 1_555
W12 O4 1_555 1_555
O39 W1 1_555 1_555
O40 W2 1_555 1_555
N20 N6 1_555 1_555
N21 N19 1_555 1_555
C26 N5 1_555 1_555
H14 C26 1_555 1_555
C27 N18 1_555 1_555
H15 C27 1_555 1_555
N6A Ag1 1_555 1_555
O20_2 Ag1 1_555 1_555
Ag1_2 O20 1_555 1_555
Ag1A N6 1_555 1_555
C8 N1 1_555 1_555
C10 N13 1_555 1_555
C16 C17 1_555 1_555
C16 N7 1_555 1_555
C24 C25 1_555 1_555
C24 N14 1_555 1_555
N2 Ag3 1_555 1_555
N3 N4 1_555 1_555
N9 N10 1_555 1_555
N9 Ag3 1_555 1_555
N11 N12 1_555 1_555
N11 Ag4 1_555 1_555
N13 Ag2 1_555 1_555
N16 N17 1_555 1_555
N18 Ag4 1_555 1_555
O5 W6 1_555 1_555
O6 W6 1_555 1_555
O7 W8 1_555 1_555
O8 W5 1_555 1_555
O11 W11 1_555 1_555
O12 W8 1_555 1_555
O13 W11 1_555 1_555
O15 W9 1_555 1_555
O16 W12 1_555 1_555
O17 W12 1_555 1_555
O18 W10 1_555 1_555
O20 W12 1_555 1_555
O22 W11 1_555 1_555
O24 W6 1_555 1_555
O28 W8 1_555 1_555
O29 W10 1_555 1_555
O30 W11 1_555 1_555
O31 W4 1_555 1_555
O33 W10 1_555 1_555
O34 W10 1_555 1_555
O35 W9 1_555 1_555
O37 W7 1_555 1_555
O38 W12 1_555 1_555
Ag1 Ag3 1_555 1_555
Ag2 Ag3 1_555 1_555
W5 O40 1_555 1_555
W9 O39 1_555 1_555
N20 C26 1_555 1_555
N21 C27 1_555 1_555

#END
