
#######################################################################
#
#                 Cambridge Crystallographic Data Centre
#                                CCDC 
#
#######################################################################
#
# If this CIF has been generated from an entry in the Cambridge 
# Structural Database, then it will include bibliographic, chemical, 
# crystal, experimental, refinement or atomic coordinate data resulting 
# from the CCDC's data processing and validation procedures.
#
#######################################################################

data_NORYAW
_symmetry_cell_setting           orthorhombic
_symmetry_space_group_name_H-M   'F d d 2'
_symmetry_Int_Tables_number      43
_space_group_name_Hall           'F 2 -2d'
loop_
_symmetry_equiv_pos_site_id
_symmetry_equiv_pos_as_xyz
1 x,y,z
2 -x,-y,z
3 1/4+x,1/4-y,1/4+z
4 1/4-x,1/4+y,1/4+z
5 x,1/2+y,1/2+z
6 -x,1/2-y,1/2+z
7 1/4+x,3/4-y,3/4+z
8 1/4-x,3/4+y,3/4+z
9 1/2+x,y,1/2+z
10 1/2-x,-y,1/2+z
11 3/4+x,1/4-y,3/4+z
12 3/4-x,1/4+y,3/4+z
13 1/2+x,1/2+y,z
14 1/2-x,1/2-y,z
15 3/4+x,3/4-y,1/4+z
16 3/4-x,3/4+y,1/4+z
_cell_length_a                   15.836(5)
_cell_length_b                   24.736(7)
_cell_length_c                   7.948(2)
_cell_angle_alpha                90
_cell_angle_beta                 90
_cell_angle_gamma                90
_cell_volume                     3113.38
loop_
_atom_site_label
_atom_site_type_symbol
_atom_site_fract_x
_atom_site_fract_y
_atom_site_fract_z
Cu1 Cu 0.08483(2) 0.170173(14) 0.69009(5)
C1 C 0.0146(2) 0.42331(12) 0.4963(5)
H1 H -0.0302 0.4132 0.4194
H2 H -0.0065 0.4191 0.6101
C2 C 0.0042(2) 0.25598(12) 0.4752(4)
H3 H -0.0332 0.2293 0.4399
N1 N 0.06610(16) 0.32956(9) 0.5013(3)
C3 C 0.18813(19) 0.14116(12) 0.7628(4)
N2 N 0.24789(15) 0.12074(11) 0.8135(4)
N3 N 0.06564(16) 0.24654(10) 0.5897(3)
C4 C 0.08851(16) 0.38615(12) 0.4711(4)
H4 H 0.1093 0.3900 0.3570
H5 H 0.1336 0.3965 0.5472
N4 N 0.00172(15) 0.30529(10) 0.4184(4)
C5 C 0.1036(2) 0.29384(12) 0.6016(4)
H6 H 0.1498 0.3012 0.6702
C6 C 0.03737(19) 0.48128(12) 0.4677(6)
H7 H 0.0663 0.4844 0.3605
H8 H 0.0764 0.4927 0.5548
C1A C -0.0146(2) 0.57669(12) 0.4963(5)
H1A H 0.0302 0.5868 0.4194
H2A H 0.0065 0.5809 0.6101
C2A C -0.0042(2) 0.74402(12) 0.4752(4)
H3A H 0.0332 0.7707 0.4399
N1A N -0.06610(16) 0.67044(9) 0.5013(3)
N3A N -0.06564(16) 0.75346(10) 0.5897(3)
C4A C -0.08851(16) 0.61385(12) 0.4711(4)
H4A H -0.1093 0.6100 0.3570
H5A H -0.1336 0.6035 0.5472
N4A N -0.00172(15) 0.69471(10) 0.4184(4)
C5A C -0.1036(2) 0.70616(12) 0.6016(4)
H6A H -0.1498 0.6988 0.6702
C6A C -0.03737(19) 0.51872(12) 0.4677(6)
H7A H -0.0663 0.5156 0.3605
H8A H -0.0764 0.5073 0.5548
Cu1A Cu -0.08483(2) 0.829827(14) 0.69009(5)
C3A C -0.18813(19) 0.85884(12) 0.7628(4)
N2A N -0.24789(15) 0.87926(11) 0.8135(4)
Cu1B Cu 0.33483(2) 0.079827(14) 0.94009(5)
Cu1D Cu 0.08483(2) 0.670173(14) 0.19009(5)
Cu1E Cu -0.08483(2) 0.329827(14) 0.19009(5)
Cu1O Cu -0.33483(2) 0.920173(14) 0.94009(5)
N2G N 0.00211(15) 0.87074(11) 0.5635(4)
N2J N -0.00211(15) 0.12926(11) 0.5635(4)
N4D N 0.00172(15) 0.80529(10) 0.9184(4)
N4E N -0.00172(15) 0.19471(10) 0.9184(4)
loop_
_geom_bond_atom_site_label_1
_geom_bond_atom_site_label_2
_geom_bond_site_symmetry_1
_geom_bond_site_symmetry_2
Cu1 C3 1_555 1_555
C1 H1 1_555 1_555
H2 C1 1_555 1_555
C2 H3 1_555 1_555
N1 C4 1_555 1_555
C3 N2 1_555 1_555
N2 Cu1B 1_555 1_555
N3 Cu1 1_555 1_555
C4 C1 1_555 1_555
H4 C4 1_555 1_555
H5 C4 1_555 1_555
N4 C2 1_555 1_555
C5 N1 1_555 1_555
H6 C5 1_555 1_555
C6 C1 1_555 1_555
H7 C6 1_555 1_555
H8 C6 1_555 1_555
C1A H1A 1_555 1_555
H2A C1A 1_555 1_555
C2A H3A 1_555 1_555
N1A C4A 1_555 1_555
N3A C2A 1_555 1_555
C4A C1A 1_555 1_555
H4A C4A 1_555 1_555
H5A C4A 1_555 1_555
N4A C2A 1_555 1_555
C5A N1A 1_555 1_555
H6A C5A 1_555 1_555
C6A C6 1_555 1_555
H7A C6A 1_555 1_555
H8A C6A 1_555 1_555
Cu1A N3A 1_555 1_555
C3A Cu1A 1_555 1_555
N2A C3A 1_555 1_555
Cu1D N4A 1_555 1_555
Cu1E N4 1_555 1_555
Cu1O N2A 1_555 1_555
N2G Cu1A 1_555 1_555
N2J Cu1 1_555 1_555
N4D Cu1A 1_555 1_555
N4E Cu1 1_555 1_555
C2 N3 1_555 1_555
N1 N4 1_555 1_555
N3 C5 1_555 1_555
C1A C6A 1_555 1_555
N1A N4A 1_555 1_555
N3A C5A 1_555 1_555

#END
