
#######################################################################
#
#                 Cambridge Crystallographic Data Centre
#                                CCDC 
#
#######################################################################
#
# If this CIF has been generated from an entry in the Cambridge 
# Structural Database, then it will include bibliographic, chemical, 
# crystal, experimental, refinement or atomic coordinate data resulting 
# from the CCDC's data processing and validation procedures.
#
#######################################################################

data_NORYUQ
_symmetry_cell_setting           orthorhombic
_symmetry_space_group_name_H-M   'P n n a'
_symmetry_Int_Tables_number      52
_space_group_name_Hall           '-P 2a 2bc'
loop_
_symmetry_equiv_pos_site_id
_symmetry_equiv_pos_as_xyz
1 x,y,z
2 1/2-x,-y,z
3 x,1/2-y,1/2-z
4 1/2-x,1/2+y,1/2-z
5 -x,-y,-z
6 1/2+x,y,-z
7 -x,1/2+y,1/2+z
8 1/2+x,1/2-y,1/2+z
_cell_length_a                   12.996(3)
_cell_length_b                   16.994(3)
_cell_length_c                   10.668(2)
_cell_angle_alpha                90
_cell_angle_beta                 90
_cell_angle_gamma                90
_cell_volume                     2356.07
loop_
_atom_site_label
_atom_site_type_symbol
_atom_site_fract_x
_atom_site_fract_y
_atom_site_fract_z
Zn1 Zn 0.17577(5) 0.2500 0.2500
O1 O 0.0707(3) 0.18007(18) 0.3291(3)
O2 O 0.2055(3) 0.1009(2) 0.3284(3)
N1 N 0.2802(3) 0.2128(2) 0.1184(4)
N2 N 0.4282(3) 0.1599(2) 0.0615(4)
C1 C 0.3583(4) 0.1678(3) 0.1528(5)
H1 H 0.3641 0.1441 0.2321
C2 C 0.3012(4) 0.2345(2) -0.0051(4)
C3 C 0.3917(4) 0.2020(3) -0.0404(5)
H2 H 0.4236 0.2070 -0.1191
C4 C 0.5212(4) 0.1142(3) 0.0654(5)
C5 C 0.5603(4) 0.0833(3) -0.0439(5)
H3 H 0.5263 0.0921 -0.1204
C6 C 0.6497(4) 0.0392(3) -0.0410(5)
H4 H 0.6764 0.0191 -0.1164
C7 C 0.7012(3) 0.0239(3) 0.0703(5)
C8 C 0.6601(4) 0.0554(3) 0.1796(5)
H5 H 0.6933 0.0461 0.2565
C9 C 0.5711(4) 0.1003(3) 0.1775(5)
H6 H 0.5447 0.1213 0.2524
C10 C 0.2312(4) 0.2861(3) -0.0801(5)
H7 H 0.2283 0.3379 -0.0422
H8 H 0.1628 0.2634 -0.0816
H9 H 0.2571 0.2904 -0.1651
C11 C 0.1154(4) 0.1154(3) 0.3569(4)
C12 C 0.0540(3) 0.0560(3) 0.4306(4)
C13 C 0.0974(4) -0.0178(3) 0.4546(5)
H10 H 0.1632 -0.0301 0.4237
C14 C -0.0429(4) 0.0726(3) 0.4759(5)
H11 H -0.0725 0.1220 0.4594
O1D O -0.0707(3) -0.18007(18) 0.6709(3)
O2D O -0.2055(3) -0.1009(2) 0.6716(3)
C11D C -0.1154(4) -0.1154(3) 0.6431(4)
C12D C -0.0540(3) -0.0560(3) 0.5694(4)
C13D C -0.0974(4) 0.0178(3) 0.5454(5)
H10D H -0.1632 0.0301 0.5763
C14D C 0.0429(4) -0.0726(3) 0.5241(5)
H11D H 0.0725 -0.1220 0.5406
N1A N 1.2198(3) -0.2128(2) 0.1184(4)
N2A N 1.0718(3) -0.1599(2) 0.0615(4)
C1A C 1.1417(4) -0.1678(3) 0.1528(5)
H1A H 1.1359 -0.1441 0.2321
C2A C 1.1988(4) -0.2345(2) -0.0051(4)
C3A C 1.1083(4) -0.2020(3) -0.0404(5)
H2A H 1.0764 -0.2070 -0.1191
C4A C 0.9788(4) -0.1142(3) 0.0654(5)
C5A C 0.9397(4) -0.0833(3) -0.0439(5)
H3A H 0.9737 -0.0921 -0.1204
C6A C 0.8503(4) -0.0392(3) -0.0410(5)
H4A H 0.8236 -0.0191 -0.1164
C7A C 0.7988(3) -0.0239(3) 0.0703(5)
C8A C 0.8399(4) -0.0554(3) 0.1796(5)
H5A H 0.8067 -0.0461 0.2565
C9A C 0.9289(4) -0.1003(3) 0.1775(5)
H6A H 0.9553 -0.1213 0.2524
C10A C 1.2688(4) -0.2861(3) -0.0801(5)
H7A H 1.2717 -0.3379 -0.0422
H8A H 1.3372 -0.2634 -0.0816
H9A H 1.2429 -0.2904 -0.1651
Zn1A Zn 1.32423(5) -0.2500 0.2500
Zn1D Zn -0.17577(5) -0.2500 0.7500
O1B O 0.0707(3) 0.31993(18) 0.1709(3)
N1B N 0.2802(3) 0.2872(2) 0.3816(4)
loop_
_geom_bond_atom_site_label_1
_geom_bond_atom_site_label_2
_geom_bond_site_symmetry_1
_geom_bond_site_symmetry_2
Zn1 O1 1_555 1_555
O1 C11 1_555 1_555
O2 C11 1_555 1_555
N1 Zn1 1_555 1_555
N2 C1 1_555 1_555
C1 N1 1_555 1_555
H1 C1 1_555 1_555
C2 N1 1_555 1_555
C3 N2 1_555 1_555
H2 C3 1_555 1_555
C4 N2 1_555 1_555
C5 C4 1_555 1_555
H3 C5 1_555 1_555
C6 C5 1_555 1_555
H4 C6 1_555 1_555
C7 C6 1_555 1_555
C8 C7 1_555 1_555
H5 C8 1_555 1_555
C9 C4 1_555 1_555
H6 C9 1_555 1_555
C10 C2 1_555 1_555
H7 C10 1_555 1_555
H8 C10 1_555 1_555
H9 C10 1_555 1_555
C11 C12 1_555 1_555
C12 C13 1_555 1_555
C13 H10 1_555 1_555
C14 C12 1_555 1_555
H11 C14 1_555 1_555
O1D C11D 1_555 1_555
O2D C11D 1_555 1_555
C11D C12D 1_555 1_555
C12D C13D 1_555 1_555
C13D C14 1_555 1_555
H10D C13D 1_555 1_555
C14D C13 1_555 1_555
H11D C14D 1_555 1_555
N1A C1A 1_555 1_555
N2A C1A 1_555 1_555
C1A H1A 1_555 1_555
C2A N1A 1_555 1_555
C3A N2A 1_555 1_555
H2A C3A 1_555 1_555
C4A N2A 1_555 1_555
C5A C4A 1_555 1_555
H3A C5A 1_555 1_555
C6A C5A 1_555 1_555
H4A C6A 1_555 1_555
C7A C7 1_555 1_555
C8A C7A 1_555 1_555
H5A C8A 1_555 1_555
C9A C4A 1_555 1_555
H6A C9A 1_555 1_555
C10A C2A 1_555 1_555
H7A C10A 1_555 1_555
H8A C10A 1_555 1_555
H9A C10A 1_555 1_555
Zn1A N1A 1_555 1_555
Zn1D O1D 1_555 1_555
O1B Zn1 1_555 1_555
N1B Zn1 1_555 1_555
C2 C3 1_555 1_555
C8 C9 1_555 1_555
C12D C14D 1_555 1_555
C2A C3A 1_555 1_555
C6A C7A 1_555 1_555
C8A C9A 1_555 1_555

#END
