
#######################################################################
#
#                 Cambridge Crystallographic Data Centre
#                                CCDC 
#
#######################################################################
#
# If this CIF has been generated from an entry in the Cambridge 
# Structural Database, then it will include bibliographic, chemical, 
# crystal, experimental, refinement or atomic coordinate data resulting 
# from the CCDC's data processing and validation procedures.
#
#######################################################################

data_NORZEB
_symmetry_cell_setting           orthorhombic
_symmetry_space_group_name_H-M   'P n n a'
_symmetry_Int_Tables_number      52
_space_group_name_Hall           '-P 2a 2bc'
loop_
_symmetry_equiv_pos_site_id
_symmetry_equiv_pos_as_xyz
1 x,y,z
2 1/2-x,-y,z
3 1/2-x,1/2+y,1/2-z
4 x,1/2-y,1/2-z
5 -x,-y,-z
6 1/2+x,y,-z
7 1/2+x,1/2-y,1/2+z
8 -x,1/2+y,1/2+z
_cell_length_a                   13.2835(4)
_cell_length_b                   17.3692(6)
_cell_length_c                   10.6116(3)
_cell_angle_alpha                90
_cell_angle_beta                 90
_cell_angle_gamma                90
_cell_volume                     2448.35
loop_
_atom_site_label
_atom_site_type_symbol
_atom_site_fract_x
_atom_site_fract_y
_atom_site_fract_z
Cd1 Cd -0.18036(2) -0.2500 0.7500
O1 O -0.05973(13) -0.18034(10) 0.65969(17)
O2 O -0.19647(12) -0.10904(10) 0.66654(15)
N1 N -0.29282(15) -0.29106(13) 0.60788(18)
N2 N -0.43617(15) -0.34401(12) 0.55221(18)
C1 C -0.36713(19) -0.33616(15) 0.6436(2)
H1 H -0.3713 -0.3596 0.7222
C2 C -0.31446(18) -0.26856(15) 0.4860(2)
C3 C -0.40230(19) -0.30119(16) 0.4510(2)
H2 H -0.4340 -0.2959 0.3734
C4 C -0.52676(18) -0.38846(15) 0.5568(2)
C5 C -0.56313(19) -0.42075(16) 0.4474(2)
H3 H -0.5291 -0.4135 0.3717
C6 C -0.65022(19) -0.46387(16) 0.4504(2)
H4 H -0.6744 -0.4850 0.3758
C7 C -0.70318(18) -0.47678(15) 0.5616(2)
C8 C -0.6638(2) -0.44405(19) 0.6705(3)
H5 H -0.6968 -0.4519 0.7467
C9 C -0.5771(2) -0.40017(18) 0.6690(3)
H6 H -0.5528 -0.3786 0.7432
C10 C -0.2485(2) -0.21585(19) 0.4140(2)
H7 H -0.2767 -0.2072 0.3319
H8 H -0.1829 -0.2385 0.4054
H9 H -0.2430 -0.1677 0.4578
C11 C -0.10748(18) -0.11893(14) 0.6354(2)
C12 C -0.05163(16) -0.05722(13) 0.56551(19)
C13 C -0.09459(18) 0.01460(14) 0.5492(2)
H10 H -0.1582 0.0248 0.5816
C14 C 0.04265(18) -0.07162(14) 0.5159(2)
H11 H 0.0717 -0.1200 0.5260
O1D O 0.05973(13) 0.18034(10) 0.34031(17)
O2D O 0.19647(12) 0.10904(10) 0.33346(15)
C11D C 0.10748(18) 0.11893(14) 0.3646(2)
C12D C 0.05163(16) 0.05722(13) 0.43449(19)
C13D C 0.09459(18) -0.01460(14) 0.4508(2)
H10D H 0.1582 -0.0248 0.4184
C14D C -0.04265(18) 0.07162(14) 0.4841(2)
H11D H -0.0717 0.1200 0.4740
N1A N -1.20718(15) -0.70894(13) 0.60788(18)
N2A N -1.06383(15) -0.65599(12) 0.55221(18)
C1A C -1.13287(19) -0.66384(15) 0.6436(2)
H1A H -1.1287 -0.6404 0.7222
C2A C -1.18554(18) -0.73144(15) 0.4860(2)
C3A C -1.09770(19) -0.69881(16) 0.4510(2)
H2A H -1.0660 -0.7041 0.3734
C4A C -0.97324(18) -0.61154(15) 0.5568(2)
C5A C -0.93687(19) -0.57925(16) 0.4474(2)
H3A H -0.9709 -0.5865 0.3717
C6A C -0.84978(19) -0.53613(16) 0.4504(2)
H4A H -0.8256 -0.5150 0.3758
C7A C -0.79682(18) -0.52322(15) 0.5616(2)
C8A C -0.8362(2) -0.55595(19) 0.6705(3)
H5A H -0.8032 -0.5481 0.7467
C9A C -0.9229(2) -0.59983(18) 0.6690(3)
H6A H -0.9472 -0.6214 0.7432
C10A C -1.2515(2) -0.78415(19) 0.4140(2)
H7A H -1.2233 -0.7928 0.3319
H8A H -1.3171 -0.7615 0.4054
H9A H -1.2570 -0.8323 0.4578
Cd1A Cd -1.31964(2) -0.7500 0.7500
Cd1D Cd 0.18036(2) 0.2500 0.2500
O1C O -0.05973(13) -0.31966(10) 0.84031(17)
O2C O -0.19647(12) -0.39096(10) 0.83346(15)
N1C N -0.29282(15) -0.20894(13) 0.89212(18)
loop_
_geom_bond_atom_site_label_1
_geom_bond_atom_site_label_2
_geom_bond_site_symmetry_1
_geom_bond_site_symmetry_2
Cd1 O1 1_555 1_555
O1 C11 1_555 1_555
O2 Cd1 1_555 1_555
N1 Cd1 1_555 1_555
N2 C1 1_555 1_555
C1 N1 1_555 1_555
H1 C1 1_555 1_555
C2 N1 1_555 1_555
C3 N2 1_555 1_555
H2 C3 1_555 1_555
C4 N2 1_555 1_555
C5 C4 1_555 1_555
H3 C5 1_555 1_555
C6 C5 1_555 1_555
H4 C6 1_555 1_555
C7 C6 1_555 1_555
C8 C7 1_555 1_555
H5 C8 1_555 1_555
C9 C4 1_555 1_555
H6 C9 1_555 1_555
C10 C2 1_555 1_555
H7 C10 1_555 1_555
H8 C10 1_555 1_555
H9 C10 1_555 1_555
C11 O2 1_555 1_555
C12 C11 1_555 1_555
C13 C12 1_555 1_555
H10 C13 1_555 1_555
C14 C12 1_555 1_555
H11 C14 1_555 1_555
O1D C11D 1_555 1_555
O2D C11D 1_555 1_555
C11D C12D 1_555 1_555
C12D C13D 1_555 1_555
C13D C14 1_555 1_555
H10D C13D 1_555 1_555
C14D C13 1_555 1_555
H11D C14D 1_555 1_555
N1A C1A 1_555 1_555
N2A C1A 1_555 1_555
C1A H1A 1_555 1_555
C2A N1A 1_555 1_555
C3A N2A 1_555 1_555
H2A C3A 1_555 1_555
C4A N2A 1_555 1_555
C5A C4A 1_555 1_555
H3A C5A 1_555 1_555
C6A C5A 1_555 1_555
H4A C6A 1_555 1_555
C7A C7 1_555 1_555
C8A C7A 1_555 1_555
H5A C8A 1_555 1_555
C9A C4A 1_555 1_555
H6A C9A 1_555 1_555
C10A C2A 1_555 1_555
H7A C10A 1_555 1_555
H8A C10A 1_555 1_555
H9A C10A 1_555 1_555
Cd1A N1A 1_555 1_555
Cd1D O1D 1_555 1_555
O1C Cd1 1_555 1_555
O2C Cd1 1_555 1_555
N1C Cd1 1_555 1_555
C2 C3 1_555 1_555
C8 C9 1_555 1_555
O2D Cd1D 1_555 1_555
C12D C14D 1_555 1_555
C2A C3A 1_555 1_555
C6A C7A 1_555 1_555
C8A C9A 1_555 1_555

#END
