
#######################################################################
#
#                 Cambridge Crystallographic Data Centre
#                                CCDC 
#
#######################################################################
#
# If this CIF has been generated from an entry in the Cambridge 
# Structural Database, then it will include bibliographic, chemical, 
# crystal, experimental, refinement or atomic coordinate data resulting 
# from the CCDC's data processing and validation procedures.
#
#######################################################################

data_NOSGOT
_symmetry_cell_setting           monoclinic
_symmetry_space_group_name_H-M   'P 21/c'
_symmetry_Int_Tables_number      14
_space_group_name_Hall           '-P 2ybc'
loop_
_symmetry_equiv_pos_site_id
_symmetry_equiv_pos_as_xyz
1 x,y,z
2 -x,1/2+y,1/2-z
3 -x,-y,-z
4 x,1/2-y,1/2+z
_cell_length_a                   6.842(3)
_cell_length_b                   8.419(4)
_cell_length_c                   15.540(7)
_cell_angle_alpha                90
_cell_angle_beta                 102.586(4)
_cell_angle_gamma                90
_cell_volume                     873.637
loop_
_atom_site_label
_atom_site_type_symbol
_atom_site_fract_x
_atom_site_fract_y
_atom_site_fract_z
U1 U 0.61091(2) -0.008199(18) 0.755965(11)
P1 P 0.91117(17) 0.35776(14) 0.80250(8)
F1 F 0.5334(4) -0.2690(3) 0.70826(19)
O1 O 0.6563(5) -0.0707(4) 0.8679(2)
O2 O 0.5594(5) 0.0528(4) 0.6432(2)
O3 O 0.8651(5) 0.1814(3) 0.8102(2)
O4 O 1.0933(4) 0.3807(4) 0.7634(2)
O5 O 0.7318(5) 0.4481(4) 0.7503(2)
O6 O 0.9748(6) 0.1750(4) 0.9818(2)
H1 H 0.9396 0.1491 0.9285
C1 C 0.9851(8) 0.3376(6) 0.9886(4)
C2 C 0.9766(8) 0.5988(6) 0.9267(3)
H2 H 0.9603 0.6680 0.8773
C3 C 0.9619(7) 0.4347(6) 0.9131(3)
P1B P 1.08883(17) 0.64224(14) 1.19750(8)
O3B O 1.1349(5) 0.8186(3) 1.1898(2)
O4B O 0.9067(4) 0.6193(4) 1.2366(2)
O5B O 1.2682(5) 0.5519(4) 1.2497(2)
O6B O 1.0252(6) 0.8250(4) 1.0182(2)
H1B H 1.0604 0.8509 1.0715
C1B C 1.0149(8) 0.6624(6) 1.0114(4)
C2B C 1.0234(8) 0.4012(6) 1.0733(3)
H2B H 1.0397 0.3320 1.1227
C3B C 1.0381(7) 0.5653(6) 1.0869(3)
U1B U 1.38909(2) 1.008199(18) 1.244035(11)
F1B F 1.4666(4) 1.2690(3) 1.29174(19)
O1B O 1.3437(5) 1.0707(4) 1.1321(2)
O2B O 1.4406(5) 0.9472(4) 1.3568(2)
U1A U 0.38909(2) -0.508199(18) 0.744035(11)
U1A_2 U 0.38909(2) 0.491801(18) 0.744035(11)
U1A_3 U 1.38909(2) 0.491801(18) 0.744035(11)
U1C U 0.61091(2) 0.508199(18) 1.255965(11)
U1C_2 U 1.61091(2) 0.508199(18) 1.255965(11)
U1C_3 U 1.61091(2) 1.508199(18) 1.255965(11)
F1A F 0.4666(4) 0.2310(3) 0.79174(19)
F1C F 1.5334(4) 0.7690(3) 1.20826(19)
O4A O 0.9067(4) -0.1193(4) 0.7366(2)
O4C O 1.0933(4) 1.1193(4) 1.2634(2)
O5A O 0.2682(5) -0.0519(4) 0.7497(2)
O5C O 1.7318(5) 1.0519(4) 1.2503(2)
K1 K 1.4621(7) 0.2580(6) 0.9842(3)
O7 O 0.7351(8) 0.4750(7) 0.5747(4)
loop_
_geom_bond_atom_site_label_1
_geom_bond_atom_site_label_2
_geom_bond_site_symmetry_1
_geom_bond_site_symmetry_2
U1 F1 1_555 1_555
P1 O3 1_555 1_555
F1 U1A 1_555 1_555
O1 U1 1_555 1_555
O2 U1 1_555 1_555
O3 U1 1_555 1_555
O4 P1 1_555 1_555
O5 P1 1_555 1_555
O6 H1 1_555 1_555
C1 O6 1_555 1_555
C2 H2 1_555 1_555
C3 P1 1_555 1_555
P1B O3B 1_555 1_555
O3B U1B 1_555 1_555
O4B P1B 1_555 1_555
O5B P1B 1_555 1_555
O6B H1B 1_555 1_555
C1B C2 1_555 1_555
C2B C1 1_555 1_555
H2B C2B 1_555 1_555
C3B P1B 1_555 1_555
U1B F1B 1_555 1_555
F1B U1C_3 1_555 1_555
O1B U1B 1_555 1_555
O2B U1B 1_555 1_555
U1A_2 O5 1_555 1_555
U1A_3 O4 1_555 1_555
U1C O4B 1_555 1_555
U1C_2 O5B 1_555 1_555
F1A U1 1_555 1_555
F1C U1B 1_555 1_555
O4A U1 1_555 1_555
O4C U1B 1_555 1_555
O5A U1 1_555 1_555
O5C U1B 1_555 1_555
C1 C3 1_555 1_555
C2 C3 1_555 1_555
O6B C1B 1_555 1_555
C1B C3B 1_555 1_555
C2B C3B 1_555 1_555
U1A_2 F1A 1_555 1_555
U1C_2 F1C 1_555 1_555

#END
