
#######################################################################
#
#                 Cambridge Crystallographic Data Centre
#                                CCDC 
#
#######################################################################
#
# If this CIF has been generated from an entry in the Cambridge 
# Structural Database, then it will include bibliographic, chemical, 
# crystal, experimental, refinement or atomic coordinate data resulting 
# from the CCDC's data processing and validation procedures.
#
#######################################################################

data_NOSHAG
_symmetry_cell_setting           orthorhombic
_symmetry_space_group_name_H-M   'F d d 2'
_symmetry_Int_Tables_number      43
_space_group_name_Hall           'F 2 -2d'
loop_
_symmetry_equiv_pos_site_id
_symmetry_equiv_pos_as_xyz
1 x,y,z
2 -x,-y,z
3 1/4+x,1/4-y,1/4+z
4 1/4-x,1/4+y,1/4+z
5 x,1/2+y,1/2+z
6 -x,1/2-y,1/2+z
7 1/4+x,3/4-y,3/4+z
8 1/4-x,3/4+y,3/4+z
9 1/2+x,y,1/2+z
10 1/2-x,-y,1/2+z
11 3/4+x,1/4-y,3/4+z
12 3/4-x,1/4+y,3/4+z
13 1/2+x,1/2+y,z
14 1/2-x,1/2-y,z
15 3/4+x,3/4-y,1/4+z
16 3/4-x,3/4+y,1/4+z
_cell_length_a                   15.9217(13)
_cell_length_b                   46.458(3)
_cell_length_c                   8.5500(6)
_cell_angle_alpha                90
_cell_angle_beta                 90
_cell_angle_gamma                90
_cell_volume                     6324.35
loop_
_atom_site_label
_atom_site_type_symbol
_atom_site_fract_x
_atom_site_fract_y
_atom_site_fract_z
U1 U 0.2500 0.7500 0.31293(3)
P1 P 0.25642(7) 0.69846(3) 0.65492(13)
P2 P 0.65490(7) 0.67892(2) 0.68750(14)
O1 O 0.14686(18) 0.76424(7) 0.3153(4)
O2 O 0.22800(19) 0.72197(7) 0.5451(4)
O3 O 0.2185(2) 0.66879(7) 0.5996(4)
O4 O 0.23201(19) 0.70288(7) 0.8224(6)
O5 O 0.68889(19) 0.66568(7) 0.5310(4)
O6 O 0.66857(18) 0.65772(6) 0.8172(4)
O7 O 0.6962(2) 0.70788(7) 0.7144(4)
O8 O 0.3995(2) 0.74530(7) 0.6917(5)
H1 H 0.3599 0.7493 0.6308
O9 O 0.5234(2) 0.63528(7) 0.6200(5)
H2 H 0.4852 0.6232 0.6038
O10 O 0.2500 0.7500 0.0221(6)
C1 C 0.3692(3) 0.69431(10) 0.6441(5)
C2 C 0.4028(3) 0.66688(10) 0.6288(5)
H3 H 0.3661 0.6511 0.6120
C3 C 0.4889(3) 0.66196(10) 0.6376(6)
C4 C 0.5438(3) 0.68498(9) 0.6631(5)
C5 C 0.5105(3) 0.71265(10) 0.6749(6)
H4 H 0.5474 0.7285 0.6884
C6 C 0.4243(3) 0.71743(10) 0.6672(6)
P1M P 0.24358(7) 0.80154(3) 0.65492(13)
P2M P -0.15490(7) 0.82108(2) 0.68750(14)
O1M O 0.35314(18) 0.73576(7) 0.3153(4)
O2M O 0.27200(19) 0.77803(7) 0.5451(4)
O3M O 0.2815(2) 0.83121(7) 0.5996(4)
O4M O 0.26799(19) 0.79712(7) 0.8224(6)
O5M O -0.18889(19) 0.83432(7) 0.5310(4)
O6M O -0.16857(18) 0.84228(6) 0.8172(4)
O7M O -0.1962(2) 0.79212(7) 0.7144(4)
O8M O 0.1005(2) 0.75470(7) 0.6917(5)
H1M H 0.1401 0.7507 0.6308
O9M O -0.0234(2) 0.86472(7) 0.6200(5)
H2M H 0.0148 0.8768 0.6038
C1M C 0.1308(3) 0.80569(10) 0.6441(5)
C2M C 0.0972(3) 0.83312(10) 0.6288(5)
H3M H 0.1339 0.8489 0.6120
C3M C 0.0111(3) 0.83804(10) 0.6376(6)
C4M C -0.0438(3) 0.81502(9) 0.6631(5)
C5M C -0.0105(3) 0.78735(10) 0.6749(6)
H4M H -0.0474 0.7715 0.6884
C6M C 0.0757(3) 0.78257(10) 0.6672(6)
U1E U -0.2500 0.7500 0.81293(3)
U1E_2 U 0.7500 0.7500 0.81293(3)
O7E O 0.3038(2) 0.79212(7) 0.2144(4)
O7H O 0.1962(2) 0.70788(7) 0.2144(4)
N1 N 0.4641(3) 0.66914(10) 0.1401(5)
C7 C 0.4608(8) 0.69547(17) 0.0402(12)
H5 H 0.4410 0.7118 0.1028
H6 H 0.4222 0.6922 -0.0472
H7 H 0.5170 0.6997 -0.0004
C8 C 0.4937(6) 0.64541(15) 0.0396(15)
H8 H 0.4976 0.6277 0.1014
H9 H 0.5492 0.6502 -0.0029
H10 H 0.4540 0.6426 -0.0466
C9 C 0.5240(6) 0.6761(2) 0.2637(12)
H11 H 0.5313 0.6594 0.3322
H12 H 0.5027 0.6924 0.3251
H13 H 0.5781 0.6813 0.2170
C10 C 0.3857(5) 0.66242(19) 0.2144(11)
H14 H 0.3918 0.6447 0.2757
H15 H 0.3423 0.6597 0.1345
H16 H 0.3695 0.6783 0.2837
loop_
_geom_bond_atom_site_label_1
_geom_bond_atom_site_label_2
_geom_bond_site_symmetry_1
_geom_bond_site_symmetry_2
U1 O1 1_555 1_555
P1 O2 1_555 1_555
P2 O5 1_555 1_555
O2 U1 1_555 1_555
O3 P1 1_555 1_555
O4 P1 1_555 1_555
O6 P2 1_555 1_555
O7 P2 1_555 1_555
O8 H1 1_555 1_555
O9 H2 1_555 1_555
O10 U1 1_555 1_555
C1 P1 1_555 1_555
C2 C1 1_555 1_555
H3 C2 1_555 1_555
C3 O9 1_555 1_555
C4 P2 1_555 1_555
C5 C4 1_555 1_555
H4 C5 1_555 1_555
C6 O8 1_555 1_555
N1 C7 1_555 1_555
C7 H5 1_555 1_555
H6 C7 1_555 1_555
H7 C7 1_555 1_555
C8 N1 1_555 1_555
H8 C8 1_555 1_555
H9 C8 1_555 1_555
H10 C8 1_555 1_555
C9 N1 1_555 1_555
H11 C9 1_555 1_555
H12 C9 1_555 1_555
H13 C9 1_555 1_555
C10 N1 1_555 1_555
H14 C10 1_555 1_555
H15 C10 1_555 1_555
H16 C10 1_555 1_555
P1M O2M 1_555 1_555
P2M O5M 1_555 1_555
O1M U1 1_555 1_555
O2M U1 1_555 1_555
O3M P1M 1_555 1_555
O4M P1M 1_555 1_555
O6M P2M 1_555 1_555
O7M P2M 1_555 1_555
O8M H1M 1_555 1_555
O9M H2M 1_555 1_555
C1M P1M 1_555 1_555
C2M C1M 1_555 1_555
H3M C2M 1_555 1_555
C3M O9M 1_555 1_555
C4M P2M 1_555 1_555
C5M C4M 1_555 1_555
H4M C5M 1_555 1_555
C6M O8M 1_555 1_555
U1E O7M 1_555 1_555
U1E_2 O7 1_555 1_555
O7E U1 1_555 1_555
O7H U1 1_555 1_555
C1 C6 1_555 1_555
C2 C3 1_555 1_555
C3 C4 1_555 1_555
C5 C6 1_555 1_555
C1M C6M 1_555 1_555
C2M C3M 1_555 1_555
C3M C4M 1_555 1_555
C5M C6M 1_555 1_555

#END
