
#######################################################################
#
#                 Cambridge Crystallographic Data Centre
#                                CCDC 
#
#######################################################################
#
# If this CIF has been generated from an entry in the Cambridge 
# Structural Database, then it will include bibliographic, chemical, 
# crystal, experimental, refinement or atomic coordinate data resulting 
# from the CCDC's data processing and validation procedures.
#
#######################################################################

data_NOSJIQ
_symmetry_cell_setting           monoclinic
_symmetry_space_group_name_H-M   'C c'
_symmetry_Int_Tables_number      9
_space_group_name_Hall           'C -2yc'
loop_
_symmetry_equiv_pos_site_id
_symmetry_equiv_pos_as_xyz
1 x,y,z
2 x,-y,1/2+z
3 1/2+x,1/2+y,z
4 1/2+x,1/2-y,1/2+z
_cell_length_a                   35.775(12)
_cell_length_b                   33.346(11)
_cell_length_c                   24.424(8)
_cell_angle_alpha                90
_cell_angle_beta                 93.993(5)
_cell_angle_gamma                90
_cell_volume                     29066
loop_
_atom_site_label
_atom_site_type_symbol
_atom_site_fract_x
_atom_site_fract_y
_atom_site_fract_z
Cl1 Cl -0.05317(12) 0.08007(13) -0.50827(19)
O135 O -0.3257(6) 0.2694(6) -0.4314(8)
O136 O -0.3581(6) 0.2464(6) -0.4890(8)
O137 O -0.3285(5) 0.2120(5) -0.4362(7)
C171 C -0.3382(4) 0.2432(4) -0.4509(5)
O138 O -0.5658(9) 0.4937(4) -0.4754(11)
O139 O -0.0054(10) 0.2460(9) -0.4815(13)
O140 O -0.1474(8) 0.0345(9) -0.7331(11)
Dy1 Dy -0.430684(19) 0.13362(2) -0.49178(3)
Dy2 Dy -0.34859(2) 0.13061(2) -0.58483(3)
Dy3 Dy -0.38533(2) 0.10035(2) -0.34927(3)
Dy4 Dy -0.46415(2) 0.30028(2) -0.37673(3)
Dy5 Dy -0.40191(2) 0.25757(2) -0.26098(3)
Dy6 Dy -0.21415(2) 0.22907(2) -0.34117(3)
Dy7 Dy -0.29585(2) 0.23278(2) -0.24907(3)
Dy8 Dy -0.456303(19) 0.18766(2) -0.36005(3)
Dy9 Dy -0.32559(2) 0.37010(2) -0.56014(3)
Dy10 Dy -0.40722(2) 0.37244(2) -0.46649(3)
Dy11 Dy -0.27391(2) 0.13886(2) -0.32355(3)
Dy12 Dy -0.19518(2) 0.24867(2) -0.49264(3)
Dy13 Dy -0.25021(2) 0.17843(2) -0.59023(3)
Dy14 Dy -0.50769(2) 0.24793(2) -0.26015(3)
Dy15 Dy -0.30953(2) 0.39229(2) -0.41132(3)
Dy16 Dy -0.36008(2) 0.29150(2) -0.67025(3)
Dy17 Dy -0.26705(2) 0.09619(2) -0.48029(3)
Dy18 Dy -0.25596(2) 0.28973(2) -0.61437(3)
Dy19 Dy -0.43920(2) 0.08732(2) -0.63128(3)
Dy20 Dy -0.42756(2) 0.20287(2) -0.61071(3)
Dy21 Dy -0.20944(2) 0.33773(2) -0.39252(3)
Dy22 Dy -0.47922(2) 0.29741(2) -0.53502(3)
Dy23 Dy -0.20727(2) 0.18007(2) -0.20338(3)
Dy24 Dy -0.16401(2) 0.23197(2) -0.63224(3)
Dy25 Dy -0.36280(2) 0.46774(2) -0.50956(4)
Dy26 Dy -0.32983(2) 0.34498(2) -0.25532(3)
Cu1 Cu -0.57937(6) 0.00367(6) -0.36408(9)
Cu2 Cu -0.45692(7) 0.10955(7) -0.04635(9)
Cu3 Cu -0.66277(7) 0.20094(9) -0.44329(9)
O1 O -0.7068(3) -0.0939(3) -0.3742(5)
O2 O -0.3897(2) 0.1753(2) -0.5400(3)
O3 O -0.4515(3) 0.2116(3) -0.2671(4)
O4 O -0.4600(3) 0.2923(3) -0.2821(4)
O5 O -0.4681(3) 0.3399(3) -0.4585(4)
O6 O -0.4377(3) 0.1981(3) -0.4532(4)
O7 O -0.4007(3) 0.3274(3) -0.3937(4)
O8 O -0.1898(3) 0.1988(3) -0.5588(4)
O9 O -0.2291(3) 0.2292(3) -0.6493(4)
O10 O -0.1837(3) 0.2732(3) -0.4014(4)
O11 O -0.2705(3) 0.1693(3) -0.2340(4)
O12 O -0.3164(3) 0.1931(3) -0.5875(4)
O13 O -0.3440(3) 0.3504(3) -0.4731(4)
O14 O -0.2787(3) 0.3201(3) -0.5324(4)
O15 O -0.3416(3) 0.2785(3) -0.2225(4)
O16 O -0.4411(3) 0.1242(3) -0.3967(4)
O17 O -0.2777(3) 0.2081(3) -0.3349(4)
O18 O -0.4570(3) 0.1447(3) -0.5821(4)
O19 O -0.2343(3) 0.2108(3) -0.4331(4)
O20 O -0.4017(3) 0.1428(3) -0.6449(4)
O21 O -0.2316(3) 0.2376(3) -0.2515(4)
O22 O -0.4971(3) 0.2421(3) -0.3562(4)
O23 O -0.3275(3) 0.1226(3) -0.4934(4)
O24 O -0.4529(3) 0.2290(3) -0.5308(4)
O25 O -0.3983(3) 0.0934(3) -0.5523(4)
O26 O -0.3103(3) 0.3324(3) -0.6389(4)
O27 O -0.3188(3) 0.1077(3) -0.4037(4)
O28 O -0.1940(3) 0.2824(3) -0.5793(4)
O29 O -0.4949(3) 0.1426(3) -0.3162(4)
O30 O -0.2845(2) 0.1164(2) -0.5736(3)
O31 O -0.3815(3) 0.4045(3) -0.5429(4)
O32 O -0.3814(3) 0.3131(3) -0.3065(4)
O33 O -0.4190(3) 0.2814(3) -0.6050(4)
O34 O -0.2724(3) 0.3488(3) -0.3446(4)
O35 O -0.3106(3) 0.4227(3) -0.4996(4)
O36 O -0.4179(3) 0.3197(3) -0.5300(4)
O37 O -0.3547(3) 0.2151(3) -0.2974(4)
O38 O -0.3750(3) 0.1268(3) -0.4358(4)
O39 O -0.2474(3) 0.2889(3) -0.3558(4)
O40 O -0.2529(3) 0.2399(3) -0.5468(4)
O41 O -0.2147(3) 0.1670(3) -0.2988(4)
O42 O -0.4817(4) -0.1174(4) -0.1994(5)
O43 O -0.2509(3) 0.1488(3) -0.4107(4)
O44 O -0.3673(3) 0.4251(3) -0.4325(4)
O45 O -0.4540(3) 0.2625(3) -0.4569(4)
O46 O -0.3913(3) -0.0435(3) 0.0966(4)
O47 O -0.3655(3) 0.2254(3) -0.6291(4)
O48 O -0.1862(3) 0.3351(3) -0.3021(5)
O49 O -0.4219(3) 0.2480(3) -0.3536(4)
O50 O -0.3958(3) 0.2610(3) -0.7389(5)
O51 O -0.2938(3) 0.2957(3) -0.2998(4)
O52 O -0.4622(3) 0.0699(3) -0.4844(4)
O53 O -0.4626(3) 0.3650(3) -0.3403(5)
O54 O -0.3329(3) 0.1435(3) -0.6806(5)
O55 O -0.1644(4) 0.1895(4) -0.3696(5)
O56 O -0.3923(3) 0.2121(3) -0.1875(4)
O57 O -0.3380(3) 0.1506(3) -0.3134(4)
O58 O -0.5288(4) 0.3191(4) -0.3694(5)
O59 O -0.5533(3) 0.2297(3) -0.1888(5)
O60 O -0.2116(3) 0.1298(3) -0.6288(4)
O61 O -0.3501(3) 0.3550(3) -0.3530(4)
O62 O -0.1530(3) 0.1995(3) -0.4570(4)
O63 O -0.4331(3) 0.4085(3) -0.3928(4)
O64 O -0.2643(3) 0.3564(3) -0.4556(4)
O65 O -0.4315(3) 0.2135(3) -0.7039(5)
O66 O -0.5142(3) 0.1749(3) -0.4185(4)
O67 O -0.7571(3) -0.0636(3) -0.4128(4)
O68 O -0.3943(3) 0.1712(3) -0.3390(4)
O69 O -0.2278(3) 0.0866(3) -0.3269(5)
O70 O -0.1348(4) 0.2760(4) -0.4918(5)
O71 O -0.4109(3) 0.1132(3) -0.2614(5)
O72 O -0.3488(4) 0.0708(4) -0.6314(6)
O73 O -0.3770(3) -0.0238(3) 0.0129(5)
O74 O -0.6542(4) 0.2039(4) -0.1755(5)
O75 O -0.3693(3) 0.3159(3) -0.5840(5)
O76 O -0.1211(5) 0.3847(5) -0.4687(7)
O77 O -0.2549(3) 0.1662(3) -0.4964(4)
O78 O -0.4919(4) 0.2106(3) -0.6336(5)
O79 O -0.2660(3) 0.3976(3) -0.5780(5)
O80 O -0.2911(3) 0.0874(3) -0.2648(5)
O81 O -0.4352(3) 0.0628(3) -0.3081(5)
O82 O -0.5317(4) 0.2710(4) -0.4873(5)
O83 O -0.4957(3) 0.1449(3) -0.4941(4)
O84 O -0.4835(3) 0.0637(3) -0.5723(5)
O85 O -0.3470(3) 0.0640(3) -0.2934(4)
O86 O -0.3306(3) 0.1955(3) -0.1852(4)
O87 O -0.1575(4) 0.2519(4) -0.2934(5)
O88 O -0.2623(4) 0.2890(4) -0.7134(5)
O89 O -0.2294(3) 0.3531(3) -0.6150(4)
O90 O -0.2109(7) 0.3191(7) -0.2202(9)
O91 O -0.1161(4) 0.2474(3) -0.5651(5)
O92 O -0.1491(4) 0.2033(4) -0.2323(6)
O93 O -0.1429(4) 0.3527(4) -0.3987(5)
O94 O -0.2752(3) 0.1671(3) -0.6819(5)
O95 O -0.3090(4) 0.4353(4) -0.3377(5)
O96 O -0.6738(3) 0.2539(3) -0.2315(5)
O97 O -0.1763(4) 0.3635(4) -0.4710(5)
O98 O -0.5406(4) 0.3295(4) -0.5244(5)
O99 O -0.3108(3) 0.2513(3) -0.6288(4)
O100 O -0.4857(4) -0.0529(4) -0.1974(5)
O101 O -0.5362(3) 0.1865(3) -0.2833(5)
O102 O -0.2307(3) 0.3029(3) -0.4754(4)
O103 O -0.3011(5) 0.4062(5) -0.2591(6)
O104 O -0.4922(4) 0.2156(4) -0.1732(5)
O105 O -0.7168(4) 0.2731(4) -0.6368(5)
O106 O -0.7740(4) 0.2495(4) -0.6575(5)
O107 O -0.4562(4) 0.4144(4) -0.5065(5)
O108 O -0.4268(4) 0.4754(4) -0.4964(6)
O109 O -0.3425(5) 0.4694(5) -0.5963(7)
O110 O -0.3372(4) 0.4127(4) -0.6367(5)
O111 O -0.3230(5) 0.2918(5) -0.7405(6)
O112 O -0.5128(5) 0.2674(5) -0.6040(6)
O113 O -0.5554(4) 0.2795(4) -0.3070(6)
O114 O -0.2450(4) 0.0597(4) -0.4043(5)
O115 O -0.3965(4) 0.0676(5) -0.6969(6)
O116 O -0.2021(4) 0.1000(4) -0.4976(6)
O117 O -0.2320(4) 0.0473(4) -0.5308(5)
O118 O -0.3632(7) 0.5162(8) -0.4347(10)
O119 O -0.3111(6) 0.5095(6) -0.4785(8)
O120 O -0.1663(4) 0.1680(4) -0.6622(5)
N1 N -0.6361(4) 0.0012(4) -0.3892(5)
N2 N -0.5626(4) -0.0503(4) -0.3310(6)
N3 N -0.5743(4) 0.0528(4) -0.3156(5)
N4 N -0.5569(4) 0.0058(4) -0.4388(5)
N5 N -0.4530(4) 0.0691(4) 0.0165(5)
N6 N -0.5072(5) 0.1451(5) -0.0400(7)
N7 N -0.4708(4) 0.0870(4) -0.1251(6)
N8 N -0.4084(4) 0.1396(4) -0.0547(6)
N9 N -0.7110(5) 0.2011(5) -0.4962(6)
N10 N -0.6252(5) 0.1572(5) -0.4725(7)
N11 N -0.6685(4) 0.1803(3) -0.3682(4)
N12 N -0.6390(5) 0.2573(5) -0.4545(7)
N13 N -0.3695(7) 0.5228(6) -0.7509(5)
N14 N -0.1880(8) 0.4846(8) -0.5709(11)
N15 N -0.2970(10) 0.2569(10) -0.9003(14)
N16 N -0.4453(3) 0.1615(2) -0.8500(3)
N17 N -0.6210(9) 0.2330(9) -0.6319(12)
N18 N -0.6231(7) 0.3951(7) -0.3821(9)
N19 N -0.5334(8) 0.4564(8) -0.2902(11)
N20 N -0.2986(11) 0.0394(11) -0.1018(14)
N21 N -0.0442(6) 0.2726(6) -0.2919(9)
N22 N -0.1545(3) -0.0140(5) -0.4070(7)
N23 N -0.2739(9) 0.1421(9) -0.8602(12)
N24 N -0.2733(5) 0.0228(9) -0.7510(6)
C1 C -0.6503(6) 0.0321(6) -0.4146(8)
H1 H -0.6342 0.0536 -0.4195
C2 C -0.6910(5) 0.0369(5) -0.4375(12)
H2 H -0.6995 0.0604 -0.4547
C3 C -0.7143(4) 0.0047(3) -0.4312(7)
H3 H -0.7390 0.0053 -0.4455
C4 C -0.6998(4) -0.0291(3) -0.4026(7)
C5 C -0.6602(5) -0.0325(5) -0.3816(7)
H4 H -0.6511 -0.0557 -0.3642
C6 C -0.7228(4) -0.0665(3) -0.3949(7)
C7 C -0.5707(6) -0.0838(6) -0.3588(8)
H5 H -0.5834 -0.0833 -0.3932
C8 C -0.5589(6) -0.1203(6) -0.3334(9)
H6 H -0.5706 -0.1438 -0.3461
C9 C -0.5319(6) -0.1237(6) -0.2922(8)
H7 H -0.5200 -0.1478 -0.2829
C10 C -0.5232(5) -0.0873(5) -0.2645(7)
C11 C -0.5375(4) -0.0498(4) -0.2860(6)
H8 H -0.5299 -0.0257 -0.2697
C12 C -0.4949(5) -0.0841(5) -0.2182(7)
C13 C -0.5967(8) 0.0525(8) -0.2752(10)
H9 H -0.6103 0.0296 -0.2678
C14 C -0.6000(8) 0.0892(8) -0.2414(11)
H10 H -0.6165 0.0888 -0.2137
C15 C -0.5798(8) 0.1241(9) -0.2490(11)
H11 H -0.5833 0.1484 -0.2315
C16 C -0.5527(3) 0.1165(3) -0.2884(6)
C17 C -0.5534(4) 0.0849(4) -0.3197(6)
H12 H -0.5373 0.0851 -0.3480
C18 C -0.5257(3) 0.1505(3) -0.2972(7)
C19 C -0.5740(5) -0.0175(5) -0.4775(7)
H13 H -0.5915 -0.0361 -0.4668
C20 C -0.5674(7) -0.0157(7) -0.5305(9)
H14 H -0.5828 -0.0291 -0.5567
C21 C -0.5368(7) 0.0070(7) -0.5458(10)
H15 H -0.5296 0.0064 -0.5817
C22 C -0.5167(4) 0.0314(4) -0.5042(6)
C23 C -0.5257(5) 0.0271(5) -0.4520(7)
H16 H -0.5104 0.0387 -0.4240
C24 C -0.4839(4) 0.0567(4) -0.5198(6)
C25 C -0.4726(5) 0.0737(5) 0.0619(7)
H17 H -0.4889 0.0952 0.0639
C26 C -0.4689(4) 0.0483(4) 0.1027(8)
H18 H -0.4849 0.0509 0.1310
C27 C -0.4425(4) 0.0177(4) 0.1062(5)
H19 H -0.4378 0.0023 0.1377
C28 C -0.4236(4) 0.0118(4) 0.0595(5)
C29 C -0.4305(5) 0.0371(5) 0.0155(7)
H20 H -0.4190 0.0316 -0.0166
C30 C -0.3947(4) -0.0221(4) 0.0545(6)
C31 C -0.5464(6) 0.1313(6) -0.0321(9)
H21 H -0.5511 0.1133 -0.0043
C32 C -0.5734(5) 0.1450(4) -0.0646(5)
H22 H -0.5974 0.1363 -0.0584
C33 C -0.5701(3) 0.1716(4) -0.1084(6)
H23 H -0.5907 0.1790 -0.1316
C34 C -0.5346(3) 0.1864(4) -0.1153(6)
C35 C -0.5067(5) 0.1723(5) -0.0847(7)
H24 H -0.4831 0.1812 -0.0931
C36 C -0.5276(6) 0.2123(6) -0.1593(8)
C37 C -0.5006(7) 0.0619(6) -0.1360(9)
H25 H -0.5171 0.0585 -0.1085
C38 C -0.5080(6) 0.0418(6) -0.1824(8)
H26 H -0.5287 0.0249 -0.1863
C39 C -0.4852(6) 0.0462(6) -0.2242(8)
H27 H -0.4887 0.0303 -0.2554
C40 C -0.4562(3) 0.0750(4) -0.2203(4)
C41 C -0.4498(5) 0.0941(5) -0.1696(7)
H28 H -0.4303 0.1126 -0.1656
C42 C -0.4320(4) 0.0846(5) -0.2670(5)
C43 C -0.3806(7) 0.1282(7) -0.0256(10)
H29 H -0.3849 0.1142 0.0064
C44 C -0.3427(7) 0.1348(5) -0.0374(6)
H30 H -0.3230 0.1260 -0.0137
C45 C -0.3363(4) 0.1550(5) -0.0859(6)
H31 H -0.3123 0.1575 -0.0979
C46 C -0.3674(4) 0.1713(5) -0.1157(6)
C47 C -0.4034(5) 0.1626(5) -0.1000(8)
H32 H -0.4242 0.1725 -0.1206
C48 C -0.3628(5) 0.1946(5) -0.1680(7)
C49 C -0.7385(6) 0.1802(6) -0.4845(8)
H33 H -0.7362 0.1623 -0.4552
C50 C -0.7735(7) 0.1840(7) -0.5165(10)
H34 H -0.7957 0.1730 -0.5058
C51 C -0.7714(6) 0.2046(6) -0.5628(9)
H35 H -0.7924 0.2045 -0.5873
C52 C -0.7423(6) 0.2250(6) -0.5768(8)
C53 C -0.7128(6) 0.2245(6) -0.5448(8)
H36 H -0.6921 0.2397 -0.5533
C54 C -0.7462(5) 0.2513(5) -0.6289(7)
C55 C -0.6306(7) 0.1336(6) -0.5152(9)
H37 H -0.6556 0.1302 -0.5277
C56 C -0.6065(6) 0.1140(6) -0.5431(9)
H38 H -0.6140 0.0960 -0.5707
C57 C -0.5703(5) 0.1218(5) -0.5293(7)
H39 H -0.5518 0.1113 -0.5501
C58 C -0.5599(4) 0.1470(4) -0.4808(6)
C59 C -0.5869(5) 0.1635(5) -0.4536(7)
H40 H -0.5809 0.1790 -0.4226
C60 C -0.5216(4) 0.1566(4) -0.4629(6)
C61 C -0.6780(5) 0.1414(3) -0.3607(5)
H41 H -0.6800 0.1235 -0.3900
C62 C -0.6847(8) 0.1292(7) -0.3084(4)
H42 H -0.6984 0.1057 -0.3058
C63 C -0.6737(6) 0.1474(3) -0.2603(6)
H43 H -0.6700 0.1346 -0.2265
C64 C -0.6690(6) 0.1880(3) -0.2690(4)
C65 C -0.6647(5) 0.2030(4) -0.3215(4)
H44 H -0.6588 0.2301 -0.3249
C66 C -0.6684(7) 0.2177(4) -0.2225(5)
C67 C -0.6618(7) 0.2890(7) -0.4582(9)
H45 H -0.6856 0.2880 -0.4452
C68 C -0.6495(4) 0.3215(9) -0.4809(10)
H46 H -0.6663 0.3428 -0.4851
C69 C -0.6143(4) 0.3276(4) -0.4992(9)
H47 H -0.6074 0.3506 -0.5173
C70 C -0.5902(5) 0.2955(4) -0.4876(8)
C71 C -0.6059(6) 0.2621(6) -0.4658(8)
H48 H -0.5899 0.2405 -0.4585
C72 C -0.5516(5) 0.2996(5) -0.5012(7)
C73 C -0.3769(8) 0.4991(4) -0.7957(12)
H49 H -0.3859 0.5109 -0.8285
C74 C -0.3716(11) 0.4576(4) -0.7939(6)
H50 H -0.3747 0.4417 -0.8251
C75 C -0.3613(8) 0.4415(5) -0.7424(5)
H51 H -0.3555 0.4144 -0.7394
C76 C -0.3596(6) 0.4654(3) -0.6952(4)
C77 C -0.3599(7) 0.5068(4) -0.6992(5)
H52 H -0.3540 0.5231 -0.6689
C78 C -0.3496(6) 0.4483(5) -0.6388(5)
C79 C -0.1513(8) 0.4716(8) -0.5977(11)
H53 H -0.1326 0.4910 -0.5969
C80 C -0.1431(8) 0.4391(8) -0.6200(11)
H54 H -0.1210 0.4352 -0.6372
C81 C -0.1710(6) 0.4088(6) -0.6165(9)
H55 H -0.1662 0.3837 -0.6307
C82 C -0.2060(5) 0.4145(5) -0.5926(7)
C83 C -0.2106(7) 0.4509(7) -0.5722(9)
H56 H -0.2331 0.4544 -0.5559
C84 C -0.2371(4) 0.3871(4) -0.5958(6)
C85 C -0.1878(8) 0.3517(5) -0.256(2)
C86 C -0.1697(5) 0.3928(4) -0.2573(15)
H57 H -0.1592 0.3966 -0.2921
H58 H -0.1502 0.3947 -0.2284
H59 H -0.1882 0.4130 -0.2524
C87 C -0.2703(8) 0.2433(8) -0.9023(12)
H60 H -0.2658 0.2329 -0.9365
C88 C -0.2404(9) 0.2384(8) -0.8619(11)
H61 H -0.2180 0.2266 -0.8707
C89 C -0.2447(9) 0.2508(8) -0.8114(13)
H62 H -0.2259 0.2488 -0.7832
C90 C -0.2824(6) 0.2682(5) -0.8033(4)
C91 C -0.3074(8) 0.2689(8) -0.8486(11)
H63 H -0.3317 0.2776 -0.8448
C92 C -0.2874(5) 0.2859(5) -0.7473(5)
C93 C -0.4344(5) 0.1730(4) -0.8993(5)
H64 H -0.4400 0.1592 -0.9319
C94 C -0.4140(5) 0.2079(4) -0.8950(5)
H65 H -0.4051 0.2195 -0.9262
C95 C -0.4067(5) 0.2256(5) -0.8442(4)
H66 H -0.3916 0.2482 -0.8398
C96 C -0.4229(3) 0.20803(19) -0.8001(3)
C97 C -0.4436(5) 0.1740(4) -0.7995(10)
H67 H -0.4542 0.1623 -0.7697
C98 C -0.4156(4) 0.2294(4) -0.7455(4)
C99 C -0.6262(5) 0.2002(6) -0.6527(11)
H68 H -0.6514 0.1930 -0.6566
C100 C -0.6029(3) 0.1716(5) -0.6716(8)
H69 H -0.6102 0.1485 -0.6907
C101 C -0.5666(4) 0.1835(4) -0.6568(8)
H70 H -0.5470 0.1665 -0.6646
C102 C -0.5583(3) 0.2195(4) -0.6311(7)
C103 C -0.5859(6) 0.2495(7) -0.6190(9)
H71 H -0.5809 0.2751 -0.6052
C104 C -0.5177(3) 0.2316(5) -0.6243(7)
C105 C -0.6536(9) 0.3802(9) -0.3555(11)
H72 H -0.6755 0.3950 -0.3608
C106 C -0.6559(8) 0.3490(8) -0.3247(10)
H73 H -0.6775 0.3428 -0.3075
C107 C -0.6207(7) 0.3229(7) -0.3183(10)
H74 H -0.6208 0.2999 -0.2968
C108 C -0.5886(5) 0.3331(5) -0.3444(7)
C109 C -0.5909(8) 0.3710(8) -0.3753(11)
H75 H -0.5695 0.3796 -0.3915
C110 C -0.5545(6) 0.3098(6) -0.3433(8)
C111 C -0.5224(4) 0.4968(10) -0.3094(8)
H76 H -0.5363 0.5186 -0.2984
C112 C -0.4933(4) 0.5046(5) -0.3422(9)
H77 H -0.4900 0.5295 -0.3584
C113 C -0.4691(5) 0.4726(5) -0.3493(9)
H78 H -0.4462 0.4780 -0.3636
C114 C -0.4768(5) 0.4354(5) -0.3369(7)
C115 C -0.5112(6) 0.4264(7) -0.3094(8)
H79 H -0.5181 0.3998 -0.3049
C116 C -0.4575(5) 0.4020(5) -0.3592(7)
C117 C -0.3406(8) 0.0268(8) -0.0969(12)
H80 H -0.3469 0.0191 -0.0621
C118 C -0.3685(5) 0.0259(5) -0.1369(6)
H81 H -0.3919 0.0158 -0.1301
C119 C -0.3618(5) 0.0395(5) -0.1853(7)
H82 H -0.3814 0.0380 -0.2124
C120 C -0.3268(5) 0.0569(5) -0.2013(7)
C121 C -0.2984(9) 0.0640(9) -0.1580(12)
H83 H -0.2798 0.0829 -0.1627
C122 C -0.3199(6) 0.0699(6) -0.2542(8)
C123 C -0.0226(9) 0.2440(9) -0.2699(12)
H84 H 0.0029 0.2460 -0.2751
C124 C -0.0343(8) 0.2099(8) -0.2387(11)
H85 H -0.0170 0.1930 -0.2202
C125 C -0.0706(5) 0.2042(5) -0.2378(7)
H86 H -0.0798 0.1815 -0.2213
C126 C -0.0960(5) 0.2338(5) -0.2628(7)
C127 C -0.0839(6) 0.2639(6) -0.2913(8)
H87 H -0.1011 0.2799 -0.3115
C128 C -0.1360(6) 0.2321(6) -0.2614(8)
C129 C -0.1269(4) -0.0034(5) -0.3680(6)
H88 H -0.1045 -0.0175 -0.3688
C130 C -0.1279(4) 0.0261(4) -0.3270(8)
H89 H -0.1089 0.0273 -0.2990
C131 C -0.1573(4) 0.0532(5) -0.3281(8)
H90 H -0.1575 0.0769 -0.3082
C132 C -0.1864(4) 0.0393(4) -0.3638(5)
C133 C -0.1850(4) 0.0114(4) -0.4062(7)
H91 H -0.2043 0.0099 -0.4336
C134 C -0.2230(4) 0.0645(4) -0.3658(6)
C135 C -0.3074(3) 0.1336(9) -0.8772(8)
H92 H -0.3097 0.1236 -0.9128
C136 C -0.3413(4) 0.1365(8) -0.8528(4)
H93 H -0.3642 0.1333 -0.8726
C137 C -0.3388(9) 0.1446(8) -0.7970(5)
H94 H -0.3613 0.1469 -0.7804
C138 C -0.3067(7) 0.1494(7) -0.7637(10)
C139 C -0.2784(11) 0.1502(11) -0.7970(15)
H95 H -0.2558 0.1571 -0.7784
C140 C -0.3055(4) 0.1529(4) -0.7039(6)
C141 C -0.2976(3) 0.0246(8) -0.7968(6)
H96 H -0.2837 0.0151 -0.8247
C142 C -0.3318(4) 0.0332(8) -0.8227(10)
H97 H -0.3383 0.0331 -0.8602
C143 C -0.3554(7) 0.0425(7) -0.7792(9)
H98 H -0.3813 0.0429 -0.7869
C144 C -0.3403(4) 0.0512(6) -0.7233(6)
C145 C -0.2984(10) 0.0485(11) -0.7205(15)
H99 H -0.2862 0.0659 -0.6954
C146 C -0.3651(4) 0.0655(5) -0.6794(6)
C147 C -0.1141(7) 0.1516(7) -0.4024(10)
H100 H -0.1011 0.1489 -0.4353
H101 H -0.1251 0.1264 -0.3937
H102 H -0.0968 0.1597 -0.3728
C148 C -0.1458(4) 0.1842(4) -0.4115(6)
C149 C -0.2032(7) 0.0666(7) -0.5252(10)
C150 C -0.1704(7) 0.0984(6) -0.6850(9)
H103 H -0.1861 0.0759 -0.6775
H104 H -0.1451 0.0929 -0.6713
H105 H -0.1710 0.1028 -0.7239
C151 C -0.1845(5) 0.1356(5) -0.6570(7)
C152 C -0.3632(4) 0.1784(4) -0.3176(6)
C153 C -0.3410(4) 0.1194(4) -0.4421(6)
C154 C -0.3313(4) 0.2235(4) -0.6125(5)
C155 C -0.4013(4) 0.3052(4) -0.5747(6)
C156 C -0.2469(4) 0.1780(4) -0.4474(6)
C157 C -0.2724(4) 0.3106(4) -0.3332(6)
C158 C -0.2594(5) 0.3279(5) -0.4891(7)
C159 C -0.4486(4) 0.2268(4) -0.4807(6)
C160 C -0.3780(4) 0.3324(4) -0.3524(6)
C161 C -0.3266(13) 0.5244(13) -0.4351(18)
C162 C -0.2955(5) 0.4376(4) -0.2907(8)
C163 C -0.2711(6) 0.4745(5) -0.2803(10)
H106 H -0.2737 0.4920 -0.3116
H107 H -0.2453 0.4664 -0.2743
H108 H -0.2787 0.4884 -0.2485
C164 C -0.4544(6) 0.4514(6) -0.5019(8)
C165 C -0.4940(7) 0.4696(7) -0.4857(10)
H109 H -0.4918 0.4982 -0.4817
H110 H -0.5005 0.4580 -0.4516
H111 H -0.5131 0.4634 -0.5140
C166 C -0.1105(5) 0.2601(5) -0.5187(7)
C167 C -0.0723(5) 0.2592(5) -0.4937(7)
H112 H -0.0562 0.2461 -0.5181
H113 H -0.0718 0.2448 -0.4596
H114 H -0.0637 0.2862 -0.4870
C168 C -0.1458(5) 0.3662(5) -0.4422(8)
O121 O -0.4261(4) 0.0160(4) -0.6163(5)
O122 O -0.2762(4) 0.3387(4) -0.2012(5)
O123 O -0.3042(4) 0.0389(4) -0.4928(5)
O124 O -0.4134(4) 0.2982(4) -0.1844(6)
O125 O -0.3820(4) 0.3936(4) -0.2575(6)
O126 O -0.5109(5) 0.3047(5) -0.2061(7)
O127 O -0.3972(4) 0.3448(4) -0.7004(6)
O128 O -0.4818(5) 0.3519(5) -0.5981(6)
O129 O -0.1832(6) 0.1130(7) -0.2133(9)
O130 O -0.1566(5) 0.1738(5) -0.1322(7)
O131 O -0.2345(4) 0.1428(4) -0.1288(5)
O132 O -0.3798(6) 0.5396(6) -0.5386(8)
O133 O -0.3513(7) 0.3572(7) -0.1653(9)
O134 O -0.1063(4) 0.2181(5) -0.6687(6)
C169 C -0.3006(13) 0.5694(13) -0.4030(18)
H115 H -0.2748 0.5684 -0.4116
H116 H -0.3020 0.5688 -0.3639
H117 H -0.3118 0.5937 -0.4174
C170 C -0.1497(10) 0.0620(12) -0.5348(15)
H118 H -0.1458 0.0427 -0.5631
H119 H -0.1370 0.0533 -0.5010
H120 H -0.1401 0.0876 -0.5450
Dy3A Dy -0.38533(2) -0.10035(2) 0.15073(3)
Dy7C Dy -0.79585(2) 0.26722(2) -0.74907(3)
Dy15B Dy -0.80953(2) -0.10771(2) -0.41132(3)
Dy19A Dy -0.43920(2) -0.08732(2) -0.13128(3)
Dy21B Dy -0.70944(2) -0.16227(2) -0.39252(3)
Dy23C Dy -0.70727(2) 0.31993(2) -0.70338(3)
Dy24C Dy -0.66401(2) 0.26803(2) -0.13224(3)
O1B O -0.2068(3) 0.4061(3) -0.3742(5)
O42A O -0.4817(4) 0.1174(4) -0.6994(5)
O46A O -0.3913(3) 0.0435(3) -0.4034(4)
O67B O -0.2571(3) 0.4364(3) -0.4128(4)
O74C O -0.1542(4) 0.2961(4) -0.6755(5)
O96C O -0.1738(3) 0.2461(3) -0.7315(5)
O100A O -0.4857(4) 0.0529(4) -0.6974(5)
O105C O -0.2168(4) 0.2269(4) -0.1368(5)
O106C O -0.2740(4) 0.2505(4) -0.1575(5)
loop_
_geom_bond_atom_site_label_1
_geom_bond_atom_site_label_2
_geom_bond_site_symmetry_1
_geom_bond_site_symmetry_2
Dy1 O2 1_555 1_555
Dy2 O2 1_555 1_555
Dy3 O16 1_555 1_555
Dy4 O4 1_555 1_555
Dy5 O3 1_555 1_555
Dy6 O10 1_555 1_555
Dy7 O11 1_555 1_555
Dy8 O3 1_555 1_555
Dy9 O13 1_555 1_555
Dy10 O5 1_555 1_555
Dy11 O11 1_555 1_555
Dy12 O8 1_555 1_555
Dy13 O8 1_555 1_555
Dy14 O3 1_555 1_555
Dy15 O13 1_555 1_555
Dy16 O26 1_555 1_555
Dy17 O23 1_555 1_555
Dy18 O9 1_555 1_555
Dy19 O18 1_555 1_555
Dy20 O2 1_555 1_555
Dy21 O10 1_555 1_555
Dy22 O5 1_555 1_555
Dy23 O11 1_555 1_555
Dy24 O8 1_555 1_555
Dy25 O31 1_555 1_555
Dy26 O15 1_555 1_555
Cu1 N1 1_555 1_555
Cu2 N5 1_555 1_555
Cu3 N9 1_555 1_555
O1 C6 1_555 1_555
O4 Dy5 1_555 1_555
O5 Dy4 1_555 1_555
O6 Dy1 1_555 1_555
O7 Dy4 1_555 1_555
O9 Dy13 1_555 1_555
O10 Dy12 1_555 1_555
O12 Dy2 1_555 1_555
O13 Dy10 1_555 1_555
O14 Dy9 1_555 1_555
O15 Dy5 1_555 1_555
O16 Dy1 1_555 1_555
O17 Dy6 1_555 1_555
O18 Dy1 1_555 1_555
O19 Dy6 1_555 1_555
O20 Dy2 1_555 1_555
O21 Dy6 1_555 1_555
O22 Dy4 1_555 1_555
O23 Dy2 1_555 1_555
O24 Dy20 1_555 1_555
O25 Dy1 1_555 1_555
O26 Dy9 1_555 1_555
O27 Dy3 1_555 1_555
O28 Dy12 1_555 1_555
O29 Dy8 1_555 1_555
O30 Dy2 1_555 1_555
O31 Dy9 1_555 1_555
O32 Dy5 1_555 1_555
O33 Dy16 1_555 1_555
O34 Dy15 1_555 1_555
O35 Dy9 1_555 1_555
O36 Dy10 1_555 1_555
O37 Dy5 1_555 1_555
O38 Dy1 1_555 1_555
O39 Dy6 1_555 1_555
O40 Dy12 1_555 1_555
O41 Dy6 1_555 1_555
O42 C12 1_555 1_555
O43 Dy11 1_555 1_555
O44 Dy10 1_555 1_555
O45 Dy4 1_555 1_555
O46 C30 1_555 1_555
O47 Dy16 1_555 1_555
O48 Dy21 1_555 1_555
O49 Dy4 1_555 1_555
O50 Dy16 1_555 1_555
O51 Dy7 1_555 1_555
O52 Dy1 1_555 1_555
O53 Dy4 1_555 1_555
O54 Dy2 1_555 1_555
O55 Dy6 1_555 1_555
O56 Dy5 1_555 1_555
O57 Dy3 1_555 1_555
O58 Dy4 1_555 1_555
O59 Dy14 1_555 1_555
O60 Dy13 1_555 1_555
O61 Dy15 1_555 1_555
O62 Dy12 1_555 1_555
O63 Dy10 1_555 1_555
O64 Dy15 1_555 1_555
O65 Dy20 1_555 1_555
O66 Dy8 1_555 1_555
O67 C6 1_555 1_555
O68 Dy3 1_555 1_555
O69 Dy11 1_555 1_555
O70 Dy12 1_555 1_555
O71 Dy3 1_555 1_555
O72 Dy2 1_555 1_555
O73 C30 1_555 1_555
O74 C66 1_555 1_555
O75 Dy9 1_555 1_555
O76 C168 1_555 1_555
O77 Dy13 1_555 1_555
O78 Dy20 1_555 1_555
O79 Dy9 1_555 1_555
O80 Dy11 1_555 1_555
O81 Dy3 1_555 1_555
O82 Dy22 1_555 1_555
O83 Dy1 1_555 1_555
O84 Dy19 1_555 1_555
O85 Dy3 1_555 1_555
O86 Dy7 1_555 1_555
O87 Dy6 1_555 1_555
O88 Dy18 1_555 1_555
O89 Dy18 1_555 1_555
O90 C85 1_555 1_555
O91 Dy24 1_555 1_555
O92 Dy23 1_555 1_555
O93 Dy21 1_555 1_555
O94 Dy13 1_555 1_555
O95 Dy15 1_555 1_555
O96 C66 1_555 1_555
O97 Dy21 1_555 1_555
O98 Dy22 1_555 1_555
O99 Dy16 1_555 1_555
O100 C12 1_555 1_555
O101 Dy14 1_555 1_555
O102 Dy12 1_555 1_555
O103 Dy26 1_555 1_555
O104 Dy14 1_555 1_555
O105 C54 1_555 1_555
O106 C54 1_555 1_555
O107 Dy10 1_555 1_555
O108 Dy25 1_555 1_555
O109 Dy25 1_555 1_555
O110 Dy9 1_555 1_555
O111 Dy16 1_555 1_555
O112 Dy22 1_555 1_555
O113 Dy14 1_555 1_555
O114 Dy17 1_555 1_555
O115 Dy19 1_555 1_555
O116 Dy17 1_555 1_555
O117 Dy17 1_555 1_555
O118 Dy25 1_555 1_555
O119 Dy25 1_555 1_555
O120 Dy24 1_555 1_555
N1 C1 1_555 1_555
N2 Cu1 1_555 1_555
N3 Cu1 1_555 1_555
N4 Cu1 1_555 1_555
N5 C25 1_555 1_555
N6 Cu2 1_555 1_555
N7 Cu2 1_555 1_555
N8 Cu2 1_555 1_555
N9 C49 1_555 1_555
N10 Cu3 1_555 1_555
N11 Cu3 1_555 1_555
N12 Cu3 1_555 1_555
N13 C73 1_555 1_555
N14 C79 1_555 1_555
N15 C87 1_555 1_555
N16 C93 1_555 1_555
N17 C99 1_555 1_555
N18 C105 1_555 1_555
N19 C111 1_555 1_555
N20 C117 1_555 1_555
N21 C123 1_555 1_555
N22 C129 1_555 1_555
N23 C135 1_555 1_555
N24 C141 1_555 1_555
C1 H1 1_555 1_555
C2 C1 1_555 1_555
H2 C2 1_555 1_555
C3 C2 1_555 1_555
H3 C3 1_555 1_555
C4 C3 1_555 1_555
C5 N1 1_555 1_555
H4 C5 1_555 1_555
C6 C4 1_555 1_555
C7 N2 1_555 1_555
H5 C7 1_555 1_555
C8 C7 1_555 1_555
H6 C8 1_555 1_555
C9 C8 1_555 1_555
H7 C9 1_555 1_555
C10 C9 1_555 1_555
C11 N2 1_555 1_555
H8 C11 1_555 1_555
C12 C10 1_555 1_555
C13 N3 1_555 1_555
H9 C13 1_555 1_555
C14 C13 1_555 1_555
H10 C14 1_555 1_555
C15 C14 1_555 1_555
H11 C15 1_555 1_555
C16 C15 1_555 1_555
C17 N3 1_555 1_555
H12 C17 1_555 1_555
C18 O29 1_555 1_555
C19 N4 1_555 1_555
H13 C19 1_555 1_555
C20 C19 1_555 1_555
H14 C20 1_555 1_555
C21 C20 1_555 1_555
H15 C21 1_555 1_555
C22 C21 1_555 1_555
C23 N4 1_555 1_555
H16 C23 1_555 1_555
C24 O52 1_555 1_555
C25 H17 1_555 1_555
C26 C25 1_555 1_555
H18 C26 1_555 1_555
C27 C26 1_555 1_555
H19 C27 1_555 1_555
C28 C27 1_555 1_555
C29 N5 1_555 1_555
H20 C29 1_555 1_555
C30 C28 1_555 1_555
C31 N6 1_555 1_555
H21 C31 1_555 1_555
C32 C31 1_555 1_555
H22 C32 1_555 1_555
C33 C32 1_555 1_555
H23 C33 1_555 1_555
C34 C33 1_555 1_555
C35 N6 1_555 1_555
H24 C35 1_555 1_555
C36 O59 1_555 1_555
C37 N7 1_555 1_555
H25 C37 1_555 1_555
C38 C37 1_555 1_555
H26 C38 1_555 1_555
C39 C38 1_555 1_555
H27 C39 1_555 1_555
C40 C39 1_555 1_555
C41 N7 1_555 1_555
H28 C41 1_555 1_555
C42 O71 1_555 1_555
C43 N8 1_555 1_555
H29 C43 1_555 1_555
C44 C43 1_555 1_555
H30 C44 1_555 1_555
C45 C44 1_555 1_555
H31 C45 1_555 1_555
C46 C45 1_555 1_555
C47 N8 1_555 1_555
H32 C47 1_555 1_555
C48 O56 1_555 1_555
C49 H33 1_555 1_555
C50 C49 1_555 1_555
H34 C50 1_555 1_555
C51 C50 1_555 1_555
H35 C51 1_555 1_555
C52 C51 1_555 1_555
C53 N9 1_555 1_555
H36 C53 1_555 1_555
C54 C52 1_555 1_555
C55 N10 1_555 1_555
H37 C55 1_555 1_555
C56 C55 1_555 1_555
H38 C56 1_555 1_555
C57 C56 1_555 1_555
H39 C57 1_555 1_555
C58 C57 1_555 1_555
C59 N10 1_555 1_555
H40 C59 1_555 1_555
C60 O66 1_555 1_555
C61 N11 1_555 1_555
H41 C61 1_555 1_555
C62 C61 1_555 1_555
H42 C62 1_555 1_555
C63 C62 1_555 1_555
H43 C63 1_555 1_555
C64 C63 1_555 1_555
C65 N11 1_555 1_555
H44 C65 1_555 1_555
C66 C64 1_555 1_555
C67 N12 1_555 1_555
H45 C67 1_555 1_555
C68 C67 1_555 1_555
H46 C68 1_555 1_555
C69 C68 1_555 1_555
H47 C69 1_555 1_555
C70 C69 1_555 1_555
C71 N12 1_555 1_555
H48 C71 1_555 1_555
C72 O82 1_555 1_555
C73 H49 1_555 1_555
C74 C73 1_555 1_555
H50 C74 1_555 1_555
C75 C74 1_555 1_555
H51 C75 1_555 1_555
C76 C75 1_555 1_555
C77 N13 1_555 1_555
H52 C77 1_555 1_555
C78 O109 1_555 1_555
C79 H53 1_555 1_555
C80 C79 1_555 1_555
H54 C80 1_555 1_555
C81 C80 1_555 1_555
H55 C81 1_555 1_555
C82 C81 1_555 1_555
C83 N14 1_555 1_555
H56 C83 1_555 1_555
C84 O79 1_555 1_555
C85 O48 1_555 1_555
C86 C85 1_555 1_555
H57 C86 1_555 1_555
H58 C86 1_555 1_555
H59 C86 1_555 1_555
C87 H60 1_555 1_555
C88 C87 1_555 1_555
H61 C88 1_555 1_555
C89 C88 1_555 1_555
H62 C89 1_555 1_555
C90 C89 1_555 1_555
C91 N15 1_555 1_555
H63 C91 1_555 1_555
C92 O88 1_555 1_555
C93 H64 1_555 1_555
C94 C93 1_555 1_555
H65 C94 1_555 1_555
C95 C94 1_555 1_555
H66 C95 1_555 1_555
C96 C95 1_555 1_555
C97 N16 1_555 1_555
H67 C97 1_555 1_555
C98 O50 1_555 1_555
C99 H68 1_555 1_555
C100 C99 1_555 1_555
H69 C100 1_555 1_555
C101 C100 1_555 1_555
H70 C101 1_555 1_555
C102 C101 1_555 1_555
C103 N17 1_555 1_555
H71 C103 1_555 1_555
C104 O78 1_555 1_555
C105 H72 1_555 1_555
C106 C105 1_555 1_555
H73 C106 1_555 1_555
C107 C106 1_555 1_555
H74 C107 1_555 1_555
C108 C107 1_555 1_555
C109 N18 1_555 1_555
H75 C109 1_555 1_555
C110 O58 1_555 1_555
C111 H76 1_555 1_555
C112 C111 1_555 1_555
H77 C112 1_555 1_555
C113 C112 1_555 1_555
H78 C113 1_555 1_555
C114 C113 1_555 1_555
C115 N19 1_555 1_555
H79 C115 1_555 1_555
C116 O53 1_555 1_555
C117 H80 1_555 1_555
C118 C117 1_555 1_555
H81 C118 1_555 1_555
C119 C118 1_555 1_555
H82 C119 1_555 1_555
C120 C119 1_555 1_555
C121 N20 1_555 1_555
H83 C121 1_555 1_555
C122 O80 1_555 1_555
C123 H84 1_555 1_555
C124 C123 1_555 1_555
H85 C124 1_555 1_555
C125 C124 1_555 1_555
H86 C125 1_555 1_555
C126 C125 1_555 1_555
C127 N21 1_555 1_555
H87 C127 1_555 1_555
C128 O87 1_555 1_555
C129 H88 1_555 1_555
C130 C129 1_555 1_555
H89 C130 1_555 1_555
C131 C130 1_555 1_555
H90 C131 1_555 1_555
C132 C131 1_555 1_555
C133 N22 1_555 1_555
H91 C133 1_555 1_555
C134 O69 1_555 1_555
C135 H92 1_555 1_555
C136 C135 1_555 1_555
H93 C136 1_555 1_555
C137 C136 1_555 1_555
H94 C137 1_555 1_555
C138 C137 1_555 1_555
C139 N23 1_555 1_555
H95 C139 1_555 1_555
C140 O54 1_555 1_555
C141 H96 1_555 1_555
C142 C141 1_555 1_555
H97 C142 1_555 1_555
C143 C142 1_555 1_555
H98 C143 1_555 1_555
C144 C143 1_555 1_555
C145 N24 1_555 1_555
H99 C145 1_555 1_555
C146 O72 1_555 1_555
C147 H100 1_555 1_555
H101 C147 1_555 1_555
H102 C147 1_555 1_555
C148 O55 1_555 1_555
C149 O116 1_555 1_555
C150 H103 1_555 1_555
H104 C150 1_555 1_555
H105 C150 1_555 1_555
C151 O60 1_555 1_555
C152 O37 1_555 1_555
C153 O23 1_555 1_555
C154 O12 1_555 1_555
C155 O33 1_555 1_555
C156 O19 1_555 1_555
C157 O34 1_555 1_555
C158 O14 1_555 1_555
C159 O6 1_555 1_555
C160 O7 1_555 1_555
C161 O118 1_555 1_555
C162 O95 1_555 1_555
C163 C162 1_555 1_555
H106 C163 1_555 1_555
H107 C163 1_555 1_555
H108 C163 1_555 1_555
C164 O107 1_555 1_555
C165 C164 1_555 1_555
H109 C165 1_555 1_555
H110 C165 1_555 1_555
H111 C165 1_555 1_555
C166 O70 1_555 1_555
C167 C166 1_555 1_555
H112 C167 1_555 1_555
H113 C167 1_555 1_555
H114 C167 1_555 1_555
C168 O93 1_555 1_555
O121 Dy19 1_555 1_555
O122 Dy26 1_555 1_555
O123 Dy17 1_555 1_555
O124 Dy5 1_555 1_555
O125 Dy26 1_555 1_555
O126 Dy14 1_555 1_555
O127 Dy16 1_555 1_555
O128 Dy22 1_555 1_555
O129 Dy23 1_555 1_555
O130 Dy23 1_555 1_555
O131 Dy23 1_555 1_555
O132 Dy25 1_555 1_555
O133 Dy26 1_555 1_555
O134 Dy24 1_555 1_555
C169 C161 1_555 1_555
H115 C169 1_555 1_555
H116 C169 1_555 1_555
H117 C169 1_555 1_555
C170 C149 1_555 1_555
H118 C170 1_555 1_555
H119 C170 1_555 1_555
H120 C170 1_555 1_555
O135 C171 1_555 1_555
O136 C171 1_555 1_555
O137 C171 1_555 1_555
Dy3A O46 1_555 1_555
Dy7C O106 1_555 1_555
Dy15B O67 1_555 1_555
Dy19A O42 1_555 1_555
Dy21B O1 1_555 1_555
Dy23C O105 1_555 1_555
Dy24C O74 1_555 1_555
O1B Dy21 1_555 1_555
O42A Dy19 1_555 1_555
O46A Dy3 1_555 1_555
O67B Dy15 1_555 1_555
O74C Dy24 1_555 1_555
O96C Dy24 1_555 1_555
O100A Dy19 1_555 1_555
O105C Dy23 1_555 1_555
O106C Dy7 1_555 1_555
Dy2 O25 1_555 1_555
Dy3 O38 1_555 1_555
Dy5 O49 1_555 1_555
Dy7 O15 1_555 1_555
Dy7 O17 1_555 1_555
Dy7 O21 1_555 1_555
Dy7 O37 1_555 1_555
Dy8 O6 1_555 1_555
Dy8 O16 1_555 1_555
Dy8 O22 1_555 1_555
Dy8 O49 1_555 1_555
Dy8 O68 1_555 1_555
Dy10 O7 1_555 1_555
Dy10 O31 1_555 1_555
Dy11 O17 1_555 1_555
Dy11 O27 1_555 1_555
Dy11 O41 1_555 1_555
Dy11 O57 1_555 1_555
Dy12 O19 1_555 1_555
Dy13 O12 1_555 1_555
Dy13 O30 1_555 1_555
Dy13 O40 1_555 1_555
Dy14 O4 1_555 1_555
Dy14 O22 1_555 1_555
Dy15 O35 1_555 1_555
Dy15 O44 1_555 1_555
Dy16 O75 1_555 1_555
Dy17 O27 1_555 1_555
Dy17 O30 1_555 1_555
Dy17 O43 1_555 1_555
Dy17 O77 1_555 1_555
Dy18 O14 1_555 1_555
Dy18 O26 1_555 1_555
Dy18 O28 1_555 1_555
Dy18 O40 1_555 1_555
Dy18 O99 1_555 1_555
Dy19 O20 1_555 1_555
Dy19 O25 1_555 1_555
Dy20 O18 1_555 1_555
Dy20 O20 1_555 1_555
Dy20 O33 1_555 1_555
Dy20 O47 1_555 1_555
Dy21 O34 1_555 1_555
Dy21 O39 1_555 1_555
Dy21 O64 1_555 1_555
Dy21 O102 1_555 1_555
Dy22 O24 1_555 1_555
Dy22 O36 1_555 1_555
Dy22 O45 1_555 1_555
Dy23 O21 1_555 1_555
Dy23 O41 1_555 1_555
Dy24 O9 1_555 1_555
Dy24 O28 1_555 1_555
Dy25 O35 1_555 1_555
Dy25 O44 1_555 1_555
Dy26 O32 1_555 1_555
Dy26 O51 1_555 1_555
Dy26 O61 1_555 1_555
O24 C159 1_555 1_555
O27 C153 1_555 1_555
O32 C160 1_555 1_555
O36 C155 1_555 1_555
O38 C153 1_555 1_555
O39 C157 1_555 1_555
O43 C156 1_555 1_555
O45 C159 1_555 1_555
O47 C154 1_555 1_555
O51 C157 1_555 1_555
O57 C152 1_555 1_555
O61 C160 1_555 1_555
O62 C148 1_555 1_555
O63 C116 1_555 1_555
O64 C158 1_555 1_555
O65 C98 1_555 1_555
O68 C152 1_555 1_555
O75 C155 1_555 1_555
O77 C156 1_555 1_555
O81 C42 1_555 1_555
O83 C60 1_555 1_555
O84 C24 1_555 1_555
O85 C122 1_555 1_555
O86 C48 1_555 1_555
O89 C84 1_555 1_555
O91 C166 1_555 1_555
O92 C128 1_555 1_555
O94 C140 1_555 1_555
O96 Dy24C 1_555 1_555
O97 C168 1_555 1_555
O98 C72 1_555 1_555
O99 C154 1_555 1_555
O100 Dy19A 1_555 1_555
O101 C18 1_555 1_555
O102 C158 1_555 1_555
O103 C162 1_555 1_555
O104 C36 1_555 1_555
O108 C164 1_555 1_555
O110 C78 1_555 1_555
O111 C92 1_555 1_555
O112 C104 1_555 1_555
O113 C110 1_555 1_555
O114 C134 1_555 1_555
O115 C146 1_555 1_555
O117 C149 1_555 1_555
O119 C161 1_555 1_555
O120 C151 1_555 1_555
C4 C5 1_555 1_555
C10 C11 1_555 1_555
C16 C17 1_555 1_555
C16 C18 1_555 1_555
C22 C23 1_555 1_555
C22 C24 1_555 1_555
C28 C29 1_555 1_555
C34 C35 1_555 1_555
C34 C36 1_555 1_555
C40 C41 1_555 1_555
C40 C42 1_555 1_555
C46 C47 1_555 1_555
C46 C48 1_555 1_555
C52 C53 1_555 1_555
C58 C59 1_555 1_555
C58 C60 1_555 1_555
C64 C65 1_555 1_555
C70 C71 1_555 1_555
C70 C72 1_555 1_555
C76 C77 1_555 1_555
C76 C78 1_555 1_555
C82 C83 1_555 1_555
C82 C84 1_555 1_555
C90 C91 1_555 1_555
C90 C92 1_555 1_555
C96 C97 1_555 1_555
C96 C98 1_555 1_555
C102 C103 1_555 1_555
C102 C104 1_555 1_555
C108 C109 1_555 1_555
C108 C110 1_555 1_555
C114 C115 1_555 1_555
C114 C116 1_555 1_555
C120 C121 1_555 1_555
C120 C122 1_555 1_555
C126 C127 1_555 1_555
C126 C128 1_555 1_555
C132 C133 1_555 1_555
C132 C134 1_555 1_555
C138 C139 1_555 1_555
C138 C140 1_555 1_555
C144 C145 1_555 1_555
C144 C146 1_555 1_555
C147 C148 1_555 1_555
C150 C151 1_555 1_555

#END
