
#######################################################################
#
#                 Cambridge Crystallographic Data Centre
#                                CCDC 
#
#######################################################################
#
# If this CIF has been generated from an entry in the Cambridge 
# Structural Database, then it will include bibliographic, chemical, 
# crystal, experimental, refinement or atomic coordinate data resulting 
# from the CCDC's data processing and validation procedures.
#
#######################################################################

data_NOSTUM01
_symmetry_cell_setting           monoclinic
_symmetry_space_group_name_H-M   'C 2/c'
_symmetry_Int_Tables_number      15
_space_group_name_Hall           '-C 2yn'
loop_
_symmetry_equiv_pos_site_id
_symmetry_equiv_pos_as_xyz
1 x,y,z
2 -x,y,1/2-z
3 1/2+x,1/2+y,z
4 1/2-x,1/2+y,1/2-z
5 -x,-y,-z
6 x,-y,1/2+z
7 1/2-x,1/2-y,-z
8 1/2+x,1/2-y,1/2+z
_cell_length_a                   13.741(3)
_cell_length_b                   13.972(3)
_cell_length_c                   8.8045(18)
_cell_angle_alpha                90
_cell_angle_beta                 113.76(3)
_cell_angle_gamma                90
_cell_volume                     1547.1
loop_
_atom_site_label
_atom_site_type_symbol
_atom_site_fract_x
_atom_site_fract_y
_atom_site_fract_z
C5 C 0.3675(3) 0.4662(3) 0.0584(6)
C6 C 0.5000 0.6059(4) 0.2500
C7 C 0.4655(4) 0.4344(4) 0.2002(9)
N1 N 0.4733(4) 0.5024(4) 0.2021(10)
O5 O 0.5000 0.3499(2) 0.2500
C5A C 0.6325(3) 0.4662(3) 0.4416(6)
C7A C 0.5345(4) 0.4344(4) 0.2998(9)
N1A N 0.5267(4) 0.5024(4) 0.2979(10)
Mg1 Mg 0.0000 0.57780(6) 0.2500
O1 O 0.09191(14) 0.57699(11) 0.11564(19)
O2 O 0.10206(13) 0.52614(11) -0.11511(18)
O3 O 0.18938(14) 0.62701(12) -0.26724(18)
H1 H 0.1472 0.5869 -0.2621
O4 O 0.09520(15) 0.68447(11) 0.4033(2)
C1 C 0.12089(15) 0.58576(14) 0.0010(2)
C2 C 0.18695(15) 0.67077(14) -0.0015(2)
C3 C 0.22013(17) 0.73456(15) 0.1304(2)
H2 H 0.2002 0.7244 0.2182
C4 C 0.21766(16) 0.68704(14) -0.1336(2)
H3 H 0.0707(17) 0.7403(8) 0.367(2)
H4 H 0.1181(18) 0.6750(13) 0.5068(8)
O1F O 0.40809(14) 0.92301(11) -0.11564(19)
O2F O 0.39794(13) 0.97386(11) 0.11511(18)
O3F O 0.31062(14) 0.87299(12) 0.26724(18)
H1F H 0.3528 0.9131 0.2621
C1F C 0.37911(15) 0.91424(14) -0.0010(2)
C2F C 0.31305(15) 0.82923(14) 0.0015(2)
C3F C 0.27987(17) 0.76544(15) -0.1304(2)
H2F H 0.2998 0.7756 -0.2182
C4F C 0.28234(16) 0.81296(14) 0.1336(2)
O4A O -0.09520(15) 0.68447(11) 0.0967(2)
H3A H -0.0707(17) 0.7403(8) 0.133(2)
H4A H -0.1181(18) 0.6750(13) -0.0068(8)
Mg1B Mg 0.5000 1.07780(6) 0.2500
Mg1D Mg 0.0000 0.42220(6) -0.2500
Mg1F Mg 0.5000 0.92220(6) -0.2500
O1A O -0.09191(14) 0.57699(11) 0.38436(19)
O2D O -0.10206(13) 0.47386(11) 0.11511(18)
O2E O 0.10206(13) 0.47386(11) 0.38489(18)
loop_
_geom_bond_atom_site_label_1
_geom_bond_atom_site_label_2
_geom_bond_site_symmetry_1
_geom_bond_site_symmetry_2
Mg1 O1 1_555 1_555
O1 C1 1_555 1_555
O2 C1 1_555 1_555
O3 H1 1_555 1_555
O4 Mg1 1_555 1_555
C1 C2 1_555 1_555
C2 C3 1_555 1_555
C3 H2 1_555 1_555
C4 O3 1_555 1_555
H3 O4 1_555 1_555
H4 O4 1_555 1_555
C5 C7 1_555 1_555
C6 N1 1_555 1_555
C7 O5 1_555 1_555
N1 C5 1_555 1_555
O5 C7A 1_555 1_555
O1F C1F 1_555 1_555
O2F C1F 1_555 1_555
O3F H1F 1_555 1_555
C1F C2F 1_555 1_555
C2F C3F 1_555 1_555
C3F C4 1_555 1_555
H2F C3F 1_555 1_555
C4F C3 1_555 1_555
O4A Mg1 1_555 1_555
H3A O4A 1_555 1_555
H4A O4A 1_555 1_555
Mg1B O2F 1_555 1_555
Mg1D O2 1_555 1_555
Mg1F O1F 1_555 1_555
O1A Mg1 1_555 1_555
O2D Mg1 1_555 1_555
O2E Mg1 1_555 1_555
C5A C7A 1_555 1_555
C7A C7 1_555 1_555
N1A C6 1_555 1_555
C2 C4 1_555 1_555
N1 N1A 1_555 1_555
O3F C4F 1_555 1_555
C2F C4F 1_555 1_555
C5A N1A 1_555 1_555

#END
