
#######################################################################
#
#                 Cambridge Crystallographic Data Centre
#                                CCDC 
#
#######################################################################
#
# If this CIF has been generated from an entry in the Cambridge 
# Structural Database, then it will include bibliographic, chemical, 
# crystal, experimental, refinement or atomic coordinate data resulting 
# from the CCDC's data processing and validation procedures.
#
#######################################################################

data_NOSTUM
_symmetry_cell_setting           monoclinic
_symmetry_space_group_name_H-M   'C 2/c'
_symmetry_Int_Tables_number      15
_space_group_name_Hall           '-C 2yn'
loop_
_symmetry_equiv_pos_site_id
_symmetry_equiv_pos_as_xyz
1 x,y,z
2 -x,y,1/2-z
3 1/2+x,1/2+y,z
4 1/2-x,1/2+y,1/2-z
5 -x,-y,-z
6 x,-y,1/2+z
7 1/2-x,1/2-y,-z
8 1/2+x,1/2-y,1/2+z
_cell_length_a                   13.5104(4)
_cell_length_b                   14.1107(4)
_cell_length_c                   8.8000(3)
_cell_angle_alpha                90
_cell_angle_beta                 114.617(2)
_cell_angle_gamma                90
_cell_volume                     1525.17
loop_
_atom_site_label
_atom_site_type_symbol
_atom_site_fract_x
_atom_site_fract_y
_atom_site_fract_z
N1 N 0.4719(3) 0.4976(2) 0.1859(5)
C5 C 0.3690(2) 0.46383(19) 0.0502(4)
C6 C 0.5000 0.6003(3) 0.2500
C7 C 0.4676(3) 0.4315(2) 0.2051(5)
O5 O 0.5000 0.34634(14) 0.2500
N1A N 0.5281(3) 0.4976(2) 0.3141(5)
C5A C 0.6310(2) 0.46383(19) 0.4498(4)
C7A C 0.5324(3) 0.4315(2) 0.2949(5)
Mg1 Mg 0.0000 0.57867(5) 0.2500
O1 O 0.09186(10) 0.57597(8) 0.11542(14)
O2 O 0.10515(10) 0.52447(8) -0.11460(14)
O3 O 0.19328(10) 0.62481(8) -0.26505(13)
H1 H 0.1510 0.5845 -0.2602
O4 O 0.09882(11) 0.68374(8) 0.40520(15)
C1 C 0.12247(11) 0.58460(9) 0.00145(17)
C2 C 0.18796(11) 0.66990(9) -0.00134(16)
C3 C 0.21846(12) 0.73508(10) 0.12985(17)
H2 H 0.1971 0.7253 0.2164
C4 C 0.21985(12) 0.68569(9) -0.13280(17)
H3 H 0.066(2) 0.7375(12) 0.373(3)
H4 H 0.136(2) 0.6657(18) 0.352(4)
O1F O 0.40814(10) 0.92403(8) -0.11542(14)
O2F O 0.39485(10) 0.97553(8) 0.11460(14)
O3F O 0.30672(10) 0.87519(8) 0.26505(13)
H1F H 0.3490 0.9155 0.2602
C1F C 0.37753(11) 0.91540(9) -0.00145(17)
C2F C 0.31204(11) 0.83010(9) 0.00134(16)
C3F C 0.28154(12) 0.76492(10) -0.12985(17)
H2F H 0.3029 0.7747 -0.2164
C4F C 0.28015(12) 0.81431(9) 0.13280(17)
O4A O -0.09882(11) 0.68374(8) 0.09480(15)
H3A H -0.066(2) 0.7375(12) 0.127(3)
H4A H -0.136(2) 0.6657(18) 0.148(4)
Mg1B Mg 0.5000 1.07867(5) 0.2500
Mg1D Mg 0.0000 0.42133(5) -0.2500
Mg1F Mg 0.5000 0.92133(5) -0.2500
O1A O -0.09186(10) 0.57597(8) 0.38458(14)
O2D O -0.10515(10) 0.47553(8) 0.11460(14)
O2E O 0.10515(10) 0.47553(8) 0.38540(14)
loop_
_geom_bond_atom_site_label_1
_geom_bond_atom_site_label_2
_geom_bond_site_symmetry_1
_geom_bond_site_symmetry_2
Mg1 O1 1_555 1_555
O1 C1 1_555 1_555
O2 C1 1_555 1_555
O3 H1 1_555 1_555
O4 Mg1 1_555 1_555
C1 C2 1_555 1_555
C2 C3 1_555 1_555
C3 H2 1_555 1_555
C4 O3 1_555 1_555
H3 O4 1_555 1_555
H4 O4 1_555 1_555
N1 C5 1_555 1_555
C5 C7 1_555 1_555
C6 N1 1_555 1_555
C7 N1 1_555 1_555
O5 C7 1_555 1_555
O1F C1F 1_555 1_555
O2F C1F 1_555 1_555
O3F H1F 1_555 1_555
C1F C2F 1_555 1_555
C2F C3F 1_555 1_555
C3F C4 1_555 1_555
H2F C3F 1_555 1_555
C4F C3 1_555 1_555
O4A Mg1 1_555 1_555
H3A O4A 1_555 1_555
H4A O4A 1_555 1_555
Mg1B O2F 1_555 1_555
Mg1D O2 1_555 1_555
Mg1F O1F 1_555 1_555
O1A Mg1 1_555 1_555
O2D Mg1 1_555 1_555
O2E Mg1 1_555 1_555
N1A N1 1_555 1_555
C5A N1A 1_555 1_555
C7A N1 1_555 1_555
C2 C4 1_555 1_555
C6 N1A 1_555 1_555
C7 N1A 1_555 1_555
C7 C7A 1_555 1_555
O5 C7A 1_555 1_555
O3F C4F 1_555 1_555
C2F C4F 1_555 1_555
N1A C7A 1_555 1_555
C5A C7A 1_555 1_555

#END
