
#######################################################################
#
#                 Cambridge Crystallographic Data Centre
#                                CCDC 
#
#######################################################################
#
# If this CIF has been generated from an entry in the Cambridge 
# Structural Database, then it will include bibliographic, chemical, 
# crystal, experimental, refinement or atomic coordinate data resulting 
# from the CCDC's data processing and validation procedures.
#
#######################################################################

data_NOTDOR
_symmetry_cell_setting           triclinic
_symmetry_space_group_name_H-M   'P -1'
_symmetry_Int_Tables_number      2
_space_group_name_Hall           '-P 1'
loop_
_symmetry_equiv_pos_site_id
_symmetry_equiv_pos_as_xyz
1 x,y,z
2 -x,-y,-z
_cell_length_a                   11.1879(6)
_cell_length_b                   14.1743(8)
_cell_length_c                   17.0192(9)
_cell_angle_alpha                94.3340(10)
_cell_angle_beta                 95.4590(10)
_cell_angle_gamma                109.5850(10)
_cell_volume                     2514.57
loop_
_atom_site_label
_atom_site_type_symbol
_atom_site_fract_x
_atom_site_fract_y
_atom_site_fract_z
Zn1 Zn 0.67924(3) 0.14888(3) 0.59777(2)
O1 O 0.78190(19) 0.06596(15) 0.53615(12)
O2 O 0.86060(19) 0.25474(15) 0.60124(12)
O3 O 0.6208(2) 0.25565(16) 0.65037(11)
O4 O 0.6169(2) 0.16291(16) 0.48208(11)
O5 O 0.6782(2) 0.06645(17) 0.70951(13)
O6 O 0.5228(2) 0.02046(16) 0.61040(12)
C1 C 0.8762(3) 0.1256(2) 0.51114(17)
C2 C 0.9217(3) 0.2345(2) 0.54850(17)
C3 C 0.5588(3) 0.3032(2) 0.61531(17)
H1 H 0.5789 0.2041 0.4931
H2 H 0.5706 0.1063 0.4570
C4 C 0.5686(3) 0.0110(2) 0.67924(19)
N1 N 0.9454(2) 0.10843(17) 0.45571(13)
N2 N 1.0209(2) 0.29618(17) 0.51890(13)
O7 O 0.5291(2) 0.29600(18) 0.54145(12)
C5 C 0.5140(3) 0.3734(2) 0.66546(16)
C6 C 0.4871(3) -0.0702(2) 0.72241(16)
Ni1 Ni 1.07971(3) 0.22663(3) 0.44055(2)
C7 C 0.9098(3) 0.0129(2) 0.41014(17)
C8 C 1.0746(3) 0.3997(2) 0.54829(17)
C9 C 0.4537(3) 0.4330(2) 0.62963(17)
C10 C 0.5247(3) 0.3749(2) 0.74752(16)
C11 C 0.5429(3) -0.1141(2) 0.77809(16)
C12 C 0.3552(3) -0.1053(2) 0.70415(17)
N3 N 1.1762(2) 0.34572(19) 0.40083(14)
N4 N 1.1669(2) 0.15366(19) 0.38834(14)
C13 C 0.9963(3) -0.0084(2) 0.36325(17)
C14 C 0.7904(3) -0.0620(2) 0.4070(2)
C15 C 1.0536(3) 0.4399(2) 0.62117(18)
C16 C 1.1538(3) 0.4670(2) 0.50262(17)
H3 H 0.4456 0.4321 0.5747
C17 C 0.4057(3) 0.4934(2) 0.67457(18)
C18 C 0.4759(3) 0.4351(2) 0.79317(16)
H4 H 0.5649 0.3352 0.7721
C19 C 0.4691(3) -0.1919(2) 0.81635(16)
H5 H 0.6315 -0.0910 0.7901
C20 C 0.2809(3) -0.1819(2) 0.74359(18)
H6 H 0.3165 -0.0777 0.6657
C21 C 1.1911(3) 0.4357(2) 0.42911(18)
C22 C 1.2235(4) 0.3316(3) 0.3238(2)
C23 C 1.3051(3) 0.2086(3) 0.3895(2)
C24 C 1.1244(3) 0.0600(2) 0.36145(17)
C25 C 0.9646(3) -0.1026(2) 0.3187(2)
C26 C 0.7614(4) -0.1529(3) 0.3615(3)
H7 H 0.7295 -0.0502 0.4360
H8 H 1.0051 0.3970 0.6540
C27 C 1.1037(3) 0.5423(3) 0.6452(2)
C28 C 1.2002(3) 0.5702(2) 0.52755(19)
H9 H 0.3660 0.5334 0.6499
C29 C 0.4165(3) 0.4947(2) 0.75618(18)
C30 C 0.4799(3) 0.4324(2) 0.88092(17)
C31 C 0.5338(3) -0.2435(2) 0.87192(18)
C32 C 0.3367(3) -0.2243(2) 0.79947(18)
H10 H 0.1923 -0.2047 0.7319
H11 H 1.2303 0.4866 0.3989
H12 H 1.2559 0.3962 0.3032
H13 H 1.1532 0.2874 0.2858
C33 C 1.3284(4) 0.2869(3) 0.3329(3)
H14 H 1.3471 0.1612 0.3752
H15 H 1.3417 0.2407 0.4429
H16 H 1.1810 0.0340 0.3389
H17 H 1.0242 -0.1161 0.2894
C34 C 0.8478(4) -0.1745(3) 0.3178(2)
H18 H 0.6807 -0.2013 0.3603
H19 H 1.0886 0.5671 0.6940
C35 C 1.1759(3) 0.6086(2) 0.5981(2)
H20 H 1.2490 0.6141 0.4954
H21 H 0.3839 0.5355 0.7864
O8 O 0.43260(19) 0.48894(17) 0.91922(12)
O9 O 0.5234(2) 0.37291(16) 0.91391(11)
O10 O 0.6467(2) -0.2325(2) 0.86956(16)
O11 O 0.4633(2) -0.29852(17) 0.91754(13)
H22 H 0.2859 -0.2747 0.8261
H23 H 1.3358 0.2568 0.2813
H24 H 1.4090 0.3404 0.3516
H25 H 0.8269 -0.2370 0.2881
H26 H 1.2071 0.6776 0.6139
Zn2 Zn 0.55168(3) 0.62606(3) 0.97846(2)
O12 O 0.28656(19) 0.40667(16) 1.05650(12)
O13 O 0.29369(19) 0.25417(18) 0.96074(13)
C36 C 0.1826(3) 0.3413(2) 1.02857(17)
C37 C 0.1874(3) 0.2507(2) 0.97707(17)
N5 N 0.0633(2) 0.33835(18) 1.03653(14)
N6 N 0.0743(2) 0.17799(19) 0.95544(14)
Ni2 Ni -0.06210(3) 0.21958(3) 0.98224(2)
C38 C 0.0392(3) 0.4148(2) 1.08320(17)
C39 C 0.0648(3) 0.0877(2) 0.91017(18)
N7 N -0.1898(2) 0.2777(2) 0.97535(16)
N8 N -0.1850(2) 0.0896(2) 0.95966(16)
C40 C -0.0824(3) 0.4257(2) 1.07008(18)
C41 C 0.1294(3) 0.4821(3) 1.14250(19)
C42 C 0.1655(3) 0.0737(3) 0.8741(2)
C43 C -0.0511(3) 0.0061(2) 0.90166(18)
C44 C -0.2984(3) 0.2253(3) 0.9126(2)
C45 C -0.1844(3) 0.3623(3) 1.01084(19)
C46 C -0.1653(3) 0.0102(3) 0.93218(19)
C47 C -0.3094(3) 0.0763(3) 0.9879(2)
C48 C -0.1057(3) 0.5041(3) 1.1134(2)
C49 C 0.1022(4) 0.5576(3) 1.1856(2)
H27 H 0.2094 0.4759 1.1532
H28 H 0.2424 0.1271 0.8769
C50 C 0.1525(4) -0.0181(3) 0.8343(2)
C51 C -0.0607(3) -0.0868(3) 0.8620(2)
C52 C -0.3845(3) 0.1278(3) 0.9378(3)
H29 H -0.3475 0.2688 0.9020
H30 H -0.2658 0.2108 0.8640
H31 H -0.2519 0.3848 0.9973
H32 H -0.2312 -0.0509 0.9319
H33 H -0.3585 0.0050 0.9849
H34 H -0.2958 0.1049 1.0430
H35 H -0.1846 0.5122 1.1031
C53 C -0.0152(4) 0.5692(3) 1.1706(2)
H36 H 0.1636 0.6009 1.2250
H37 H 0.2210 -0.0254 0.8106
C54 C 0.0407(4) -0.0997(3) 0.8286(2)
H38 H -0.1371 -0.1409 0.8582
H39 H -0.4469 0.1419 0.9682
H40 H -0.4306 0.0824 0.8908
H41 H -0.0326 0.6207 1.1990
H42 H 0.0340 -0.1618 0.8027
Zn2A Zn 0.44832(3) 0.37394(3) 1.02154(2)
Zn2_2 Zn 0.55168(3) -0.37394(3) 0.97846(2)
O8A O 0.56740(19) 0.51106(17) 1.08078(12)
O11A O 0.5367(2) 0.29852(17) 1.08246(13)
loop_
_geom_bond_atom_site_label_1
_geom_bond_atom_site_label_2
_geom_bond_site_symmetry_1
_geom_bond_site_symmetry_2
Zn1 O1 1_555 1_555
O1 C1 1_555 1_555
O2 Zn1 1_555 1_555
O3 Zn1 1_555 1_555
O4 Zn1 1_555 1_555
O5 Zn1 1_555 1_555
O6 Zn1 1_555 1_555
C1 C2 1_555 1_555
C2 O2 1_555 1_555
C3 O3 1_555 1_555
H1 O4 1_555 1_555
H2 O4 1_555 1_555
C4 O5 1_555 1_555
N1 C1 1_555 1_555
N2 C2 1_555 1_555
O7 C3 1_555 1_555
C5 C3 1_555 1_555
C6 C4 1_555 1_555
Ni1 N1 1_555 1_555
C7 N1 1_555 1_555
C8 N2 1_555 1_555
C9 C5 1_555 1_555
C10 C5 1_555 1_555
C11 C6 1_555 1_555
C12 C6 1_555 1_555
N3 Ni1 1_555 1_555
N4 Ni1 1_555 1_555
C13 C7 1_555 1_555
C14 C7 1_555 1_555
C15 C8 1_555 1_555
C16 C8 1_555 1_555
H3 C9 1_555 1_555
C17 C9 1_555 1_555
C18 C10 1_555 1_555
H4 C10 1_555 1_555
C19 C11 1_555 1_555
H5 C11 1_555 1_555
C20 C12 1_555 1_555
H6 C12 1_555 1_555
C21 N3 1_555 1_555
C22 N3 1_555 1_555
C23 N4 1_555 1_555
C24 N4 1_555 1_555
C25 C13 1_555 1_555
C26 C14 1_555 1_555
H7 C14 1_555 1_555
H8 C15 1_555 1_555
C27 C15 1_555 1_555
C28 C16 1_555 1_555
H9 C17 1_555 1_555
C29 C17 1_555 1_555
C30 C18 1_555 1_555
C31 C19 1_555 1_555
C32 C19 1_555 1_555
H10 C20 1_555 1_555
H11 C21 1_555 1_555
H12 C22 1_555 1_555
H13 C22 1_555 1_555
C33 C22 1_555 1_555
H14 C23 1_555 1_555
H15 C23 1_555 1_555
H16 C24 1_555 1_555
H17 C25 1_555 1_555
C34 C25 1_555 1_555
H18 C26 1_555 1_555
H19 C27 1_555 1_555
C35 C27 1_555 1_555
H20 C28 1_555 1_555
H21 C29 1_555 1_555
O8 C30 1_555 1_555
O9 C30 1_555 1_555
O10 C31 1_555 1_555
O11 C31 1_555 1_555
H22 C32 1_555 1_555
H23 C33 1_555 1_555
H24 C33 1_555 1_555
H25 C34 1_555 1_555
H26 C35 1_555 1_555
Zn2 O8 1_555 1_555
O12 C36 1_555 1_555
O13 C37 1_555 1_555
C36 C37 1_555 1_555
C37 N6 1_555 1_555
N5 C36 1_555 1_555
N6 Ni2 1_555 1_555
Ni2 N5 1_555 1_555
C38 N5 1_555 1_555
C39 N6 1_555 1_555
N7 Ni2 1_555 1_555
N8 Ni2 1_555 1_555
C40 C38 1_555 1_555
C41 C38 1_555 1_555
C42 C39 1_555 1_555
C43 C39 1_555 1_555
C44 N7 1_555 1_555
C45 N7 1_555 1_555
C46 N8 1_555 1_555
C47 N8 1_555 1_555
C48 C40 1_555 1_555
C49 C41 1_555 1_555
H27 C41 1_555 1_555
H28 C42 1_555 1_555
C50 C42 1_555 1_555
C51 C43 1_555 1_555
C52 C44 1_555 1_555
H29 C44 1_555 1_555
H30 C44 1_555 1_555
H31 C45 1_555 1_555
H32 C46 1_555 1_555
H33 C47 1_555 1_555
H34 C47 1_555 1_555
H35 C48 1_555 1_555
C53 C48 1_555 1_555
H36 C49 1_555 1_555
H37 C50 1_555 1_555
C54 C50 1_555 1_555
H38 C51 1_555 1_555
H39 C52 1_555 1_555
H40 C52 1_555 1_555
H41 C53 1_555 1_555
H42 C54 1_555 1_555
Zn2A O8 1_555 1_555
Zn2_2 O11 1_555 1_555
O8A Zn2 1_555 1_555
O11A Zn2A 1_555 1_555
O6 C4 1_555 1_555
N2 Ni1 1_555 1_555
C13 C24 1_555 1_555
C16 C21 1_555 1_555
C18 C29 1_555 1_555
C20 C32 1_555 1_555
C23 C33 1_555 1_555
C26 C34 1_555 1_555
C28 C35 1_555 1_555
O9 Zn2A 1_555 1_555
O12 Zn2A 1_555 1_555
O13 Zn2A 1_555 1_555
C40 C45 1_555 1_555
C43 C46 1_555 1_555
C47 C52 1_555 1_555
C49 C53 1_555 1_555
C51 C54 1_555 1_555
Zn2A O8A 1_555 1_555

#END
