
#######################################################################
#
#                 Cambridge Crystallographic Data Centre
#                                CCDC 
#
#######################################################################
#
# If this CIF has been generated from an entry in the Cambridge 
# Structural Database, then it will include bibliographic, chemical, 
# crystal, experimental, refinement or atomic coordinate data resulting 
# from the CCDC's data processing and validation procedures.
#
#######################################################################

data_NOTDIL
_symmetry_cell_setting           triclinic
_symmetry_space_group_name_H-M   'P -1'
_symmetry_Int_Tables_number      2
_space_group_name_Hall           '-P 1'
loop_
_symmetry_equiv_pos_site_id
_symmetry_equiv_pos_as_xyz
1 x,y,z
2 -x,-y,-z
_cell_length_a                   11.2561(14)
_cell_length_b                   14.2390(18)
_cell_length_c                   16.976(2)
_cell_angle_alpha                94.501(2)
_cell_angle_beta                 96.015(2)
_cell_angle_gamma                109.532(2)
_cell_volume                     2531.38
loop_
_atom_site_label
_atom_site_type_symbol
_atom_site_fract_x
_atom_site_fract_y
_atom_site_fract_z
Zn1 Zn 0.68119(4) 0.65244(3) 0.09751(2)
Zn2 Zn 0.44660(4) 0.87410(3) 0.52226(2)
Cu1 Cu 1.07950(4) 0.72883(3) -0.05759(2)
Cu2 Cu -0.06346(4) 0.71877(3) 0.48461(3)
O1 O 0.8542(2) 0.76047(17) 0.09795(15)
O2 O 0.7783(2) 0.57160(17) 0.03685(15)
O3 O 0.2929(2) 0.7547(2) 0.46189(15)
O4 O 0.2874(2) 0.90812(18) 0.55593(15)
O5 O 0.6210(2) 0.75460(19) 0.15159(15)
O6 O 0.5322(3) 0.7957(2) 0.04163(16)
O7 O 0.4321(2) 0.98972(19) 0.41830(14)
O8 O 0.5197(2) 0.87255(19) 0.41451(14)
O9 O 0.5375(3) 0.5289(2) 0.11659(16)
O10 O 0.6909(3) 0.5674(2) 0.21795(19)
O11 O 0.6470(3) 0.2629(2) 0.36744(18)
O12 O 0.4658(3) 0.20180(19) 0.41628(15)
O13 O 0.6086(3) 0.6591(2) -0.02305(15)
H1 H 0.5615 0.6023 -0.0474
H2 H 0.5724 0.7014 -0.0128
N1 N 1.0213(3) 0.80009(19) 0.02320(16)
N2 N 0.9377(3) 0.60953(19) -0.04496(16)
N3 N 1.1690(3) 0.6530(2) -0.11023(17)
N4 N 1.1741(3) 0.8514(2) -0.10066(17)
N5 N 0.0742(3) 0.6797(2) 0.45201(17)
N6 N 0.0657(3) 0.8396(2) 0.54110(17)
N7 N -0.1958(3) 0.7779(2) 0.47727(19)
N8 N -0.1871(3) 0.5831(2) 0.46408(19)
C1 C 0.9187(3) 0.7396(2) 0.0482(2)
C2 C 0.8719(3) 0.6294(2) 0.0108(2)
C3 C 0.9070(3) 0.5133(2) -0.0875(2)
C4 C 0.7896(4) 0.4370(3) -0.0896(3)
H3 H 0.7280 0.4489 -0.0619
C5 C 0.7640(5) 0.3445(3) -0.1322(3)
H4 H 0.6852 0.2950 -0.1321
C6 C 0.8503(5) 0.3226(3) -0.1749(3)
H5 H 0.8311 0.2596 -0.2033
C7 C 0.9656(4) 0.3964(3) -0.1743(2)
H6 H 1.0256 0.3827 -0.2025
C8 C 0.9956(3) 0.4917(2) -0.1324(2)
C9 C 1.1232(3) 0.5602(3) -0.1361(2)
H7 H 1.1771 0.5332 -0.1600
C10 C 1.3036(4) 0.7084(3) -0.1140(3)
H8 H 1.3433 0.6614 -0.1324
H9 H 1.3456 0.7384 -0.0607
C11 C 1.3244(5) 0.7892(4) -0.1678(4)
H10 H 1.3314 0.7611 -0.2204
H11 H 1.4053 0.8416 -0.1479
C12 C 1.2231(5) 0.8369(3) -0.1768(2)
H12 H 1.2583 0.9015 -0.1961
H13 H 1.1531 0.7947 -0.2162
C13 C 1.1903(4) 0.9401(3) -0.0699(2)
H14 H 1.2309 0.9919 -0.0985
C14 C 1.1528(3) 0.9698(2) 0.0047(2)
C15 C 1.2014(4) 1.0729(3) 0.0308(2)
H15 H 1.2507 1.1164 -0.0008
C16 C 1.1784(4) 1.1112(3) 0.1015(2)
H16 H 1.2105 1.1799 0.1176
C17 C 1.1071(4) 1.0467(3) 0.1484(2)
H17 H 1.0935 1.0721 0.1975
C18 C 1.0550(4) 0.9445(3) 0.1243(2)
H18 H 1.0060 0.9025 0.1570
C19 C 1.0753(3) 0.9038(2) 0.0515(2)
C20 C 0.1861(3) 0.7515(3) 0.4765(2)
C21 C 0.1827(3) 0.8417(3) 0.5302(2)
C22 C 0.0421(3) 0.9179(3) 0.5855(2)
C23 C 0.1338(4) 0.9875(3) 0.6432(2)
H19 H 0.2138 0.9821 0.6541
C24 C 0.1075(4) 1.0642(3) 0.6841(2)
H20 H 0.1696 1.1091 0.7227
C25 C -0.0098(4) 1.0754(3) 0.6687(2)
H21 H -0.0261 1.1282 0.6957
C26 C -0.1017(4) 1.0075(3) 0.6131(2)
H22 H -0.1807 1.0148 0.6028
C27 C -0.0797(4) 0.9274(3) 0.5711(2)
C28 C -0.1859(4) 0.8625(3) 0.5138(2)
H23 H -0.2538 0.8849 0.5026
C29 C -0.3080(4) 0.7215(3) 0.4187(3)
H24 H -0.2802 0.7082 0.3681
H25 H -0.3608 0.7625 0.4104
C30 C -0.3870(4) 0.6230(4) 0.4444(3)
H26 H -0.4350 0.5781 0.3972
H27 H -0.4478 0.6354 0.4766
C31 C -0.3104(4) 0.5699(3) 0.4923(3)
H28 H -0.2957 0.5967 0.5482
H29 H -0.3596 0.4989 0.4878
C32 C -0.1657(4) 0.5065(3) 0.4348(2)
H30 H -0.2294 0.4446 0.4341
C33 C -0.0514(3) 0.5057(3) 0.4023(2)
C34 C -0.0597(4) 0.4130(3) 0.3632(2)
H31 H -0.1339 0.3580 0.3611
C35 C 0.0397(4) 0.4019(3) 0.3279(3)
H32 H 0.0339 0.3396 0.3031
C36 C 0.1479(4) 0.4839(3) 0.3297(3)
H33 H 0.2138 0.4772 0.3035
C37 C 0.1611(4) 0.5757(3) 0.3692(2)
H34 H 0.2361 0.6296 0.3701
C38 C 0.0633(3) 0.5889(3) 0.4080(2)
C39 C 0.5154(3) 0.8718(2) 0.16542(19)
C40 C 0.4567(3) 0.9320(3) 0.1288(2)
H35 H 0.4497 0.9311 0.0736
C41 C 0.4089(4) 0.9926(3) 0.1727(2)
H36 H 0.3705 1.0329 0.1474
C42 C 0.4181(3) 0.9937(3) 0.2547(2)
H37 H 0.3855 1.0346 0.2845
C43 C 0.4756(3) 0.9340(2) 0.29249(19)
C44 C 0.5243(3) 0.8732(2) 0.24805(19)
H38 H 0.5630 0.8332 0.2734
C45 C 0.5596(3) 0.8019(3) 0.1150(2)
C46 C 0.4780(3) 0.9319(3) 0.3803(2)
C47 C 0.4974(3) 0.4349(2) 0.22569(19)
C48 C 0.3655(4) 0.4031(3) 0.2076(2)
H39 H 0.3285 0.4333 0.1703
C49 C 0.2892(4) 0.3270(3) 0.2447(2)
H40 H 0.2011 0.3068 0.2329
C50 C 0.3433(4) 0.2808(3) 0.2994(2)
H41 H 0.2914 0.2304 0.3248
C51 C 0.4745(3) 0.3095(2) 0.3164(2)
C52 C 0.5502(4) 0.3871(2) 0.2798(2)
H42 H 0.6383 0.4074 0.2919
C53 C 0.5826(4) 0.5168(3) 0.1856(2)
C54 C 0.5359(4) 0.2544(3) 0.3704(2)
Zn2A Zn 0.55340(4) 0.12590(3) 0.47774(2)
Zn2A_2 Zn 0.55340(4) 1.12590(3) 0.47774(2)
O7A O 0.5679(2) 1.01028(19) 0.58170(14)
O12A O 0.5342(3) 0.79820(19) 0.58372(15)
loop_
_geom_bond_atom_site_label_1
_geom_bond_atom_site_label_2
_geom_bond_site_symmetry_1
_geom_bond_site_symmetry_2
Zn1 O1 1_555 1_555
Zn2 O3 1_555 1_555
Cu1 N1 1_555 1_555
Cu2 N5 1_555 1_555
O1 C1 1_555 1_555
O2 Zn1 1_555 1_555
O3 C20 1_555 1_555
O4 Zn2 1_555 1_555
O5 Zn1 1_555 1_555
O6 C45 1_555 1_555
O7 Zn2 1_555 1_555
O8 Zn2 1_555 1_555
O9 Zn1 1_555 1_555
O10 Zn1 1_555 1_555
O11 C54 1_555 1_555
O12 C54 1_555 1_555
O13 Zn1 1_555 1_555
H1 O13 1_555 1_555
H2 O13 1_555 1_555
N1 C1 1_555 1_555
N2 Cu1 1_555 1_555
N3 Cu1 1_555 1_555
N4 Cu1 1_555 1_555
N5 C20 1_555 1_555
N6 Cu2 1_555 1_555
N7 Cu2 1_555 1_555
N8 Cu2 1_555 1_555
C1 C2 1_555 1_555
C2 O2 1_555 1_555
C3 N2 1_555 1_555
C4 C3 1_555 1_555
H3 C4 1_555 1_555
C5 C4 1_555 1_555
H4 C5 1_555 1_555
C6 C5 1_555 1_555
H5 C6 1_555 1_555
C7 C6 1_555 1_555
H6 C7 1_555 1_555
C8 C3 1_555 1_555
C9 N3 1_555 1_555
H7 C9 1_555 1_555
C10 N3 1_555 1_555
H8 C10 1_555 1_555
H9 C10 1_555 1_555
C11 C10 1_555 1_555
H10 C11 1_555 1_555
H11 C11 1_555 1_555
C12 N4 1_555 1_555
H12 C12 1_555 1_555
H13 C12 1_555 1_555
C13 N4 1_555 1_555
H14 C13 1_555 1_555
C14 C13 1_555 1_555
C15 C14 1_555 1_555
H15 C15 1_555 1_555
C16 C15 1_555 1_555
H16 C16 1_555 1_555
C17 C16 1_555 1_555
H17 C17 1_555 1_555
C18 C17 1_555 1_555
H18 C18 1_555 1_555
C19 N1 1_555 1_555
C20 C21 1_555 1_555
C21 O4 1_555 1_555
C22 N6 1_555 1_555
C23 C22 1_555 1_555
H19 C23 1_555 1_555
C24 C23 1_555 1_555
H20 C24 1_555 1_555
C25 C24 1_555 1_555
H21 C25 1_555 1_555
C26 C25 1_555 1_555
H22 C26 1_555 1_555
C27 C22 1_555 1_555
C28 N7 1_555 1_555
H23 C28 1_555 1_555
C29 N7 1_555 1_555
H24 C29 1_555 1_555
H25 C29 1_555 1_555
C30 C29 1_555 1_555
H26 C30 1_555 1_555
H27 C30 1_555 1_555
C31 N8 1_555 1_555
H28 C31 1_555 1_555
H29 C31 1_555 1_555
C32 N8 1_555 1_555
H30 C32 1_555 1_555
C33 C32 1_555 1_555
C34 C33 1_555 1_555
H31 C34 1_555 1_555
C35 C34 1_555 1_555
H32 C35 1_555 1_555
C36 C35 1_555 1_555
H33 C36 1_555 1_555
C37 C36 1_555 1_555
H34 C37 1_555 1_555
C38 N5 1_555 1_555
C39 C40 1_555 1_555
C40 H35 1_555 1_555
C41 C40 1_555 1_555
H36 C41 1_555 1_555
C42 C41 1_555 1_555
H37 C42 1_555 1_555
C43 C42 1_555 1_555
C44 C39 1_555 1_555
H38 C44 1_555 1_555
C45 O5 1_555 1_555
C46 O7 1_555 1_555
C47 C48 1_555 1_555
C48 H39 1_555 1_555
C49 C48 1_555 1_555
H40 C49 1_555 1_555
C50 C49 1_555 1_555
H41 C50 1_555 1_555
C51 C50 1_555 1_555
C52 C47 1_555 1_555
H42 C52 1_555 1_555
C53 O9 1_555 1_555
C54 C51 1_555 1_555
Zn2A O12 1_555 1_555
Zn2A_2 O7 1_555 1_555
O7A Zn2 1_555 1_555
O12A Zn2 1_555 1_555
O8 C46 1_555 1_555
O10 C53 1_555 1_555
N2 C2 1_555 1_555
N6 C21 1_555 1_555
C7 C8 1_555 1_555
C8 C9 1_555 1_555
C11 C12 1_555 1_555
C14 C19 1_555 1_555
C18 C19 1_555 1_555
C26 C27 1_555 1_555
C27 C28 1_555 1_555
C30 C31 1_555 1_555
C33 C38 1_555 1_555
C37 C38 1_555 1_555
C39 C45 1_555 1_555
C43 C44 1_555 1_555
C43 C46 1_555 1_555
C47 C53 1_555 1_555
C51 C52 1_555 1_555
Zn2A_2 O7A 1_555 1_555

#END
