
#######################################################################
#
#                 Cambridge Crystallographic Data Centre
#                                CCDC 
#
#######################################################################
#
# If this CIF has been generated from an entry in the Cambridge 
# Structural Database, then it will include bibliographic, chemical, 
# crystal, experimental, refinement or atomic coordinate data resulting 
# from the CCDC's data processing and validation procedures.
#
#######################################################################

data_NOTFOT
_symmetry_cell_setting           monoclinic
_symmetry_space_group_name_H-M   'C 2/c'
_symmetry_Int_Tables_number      15
_space_group_name_Hall           '-C 2yn'
loop_
_symmetry_equiv_pos_site_id
_symmetry_equiv_pos_as_xyz
1 x,y,z
2 -x,y,1/2-z
3 1/2+x,1/2+y,z
4 1/2-x,1/2+y,1/2-z
5 -x,-y,-z
6 x,-y,1/2+z
7 1/2-x,1/2-y,-z
8 1/2+x,1/2-y,1/2+z
_cell_length_a                   12.420(3)
_cell_length_b                   18.132(4)
_cell_length_c                   16.188(3)
_cell_angle_alpha                90
_cell_angle_beta                 104.28(3)
_cell_angle_gamma                90
_cell_volume                     3532.89
loop_
_atom_site_label
_atom_site_type_symbol
_atom_site_fract_x
_atom_site_fract_y
_atom_site_fract_z
U1 U 0.606258(18) 0.183800(10) 0.093431(12)
S1 S 0.5000 0.18797(10) -0.2500
S2 S 0.69106(15) 0.43337(8) 0.26431(9)
O1 O 0.5966(4) 0.3063(2) 0.1546(2)
O2 O 0.6624(4) 0.2183(2) 0.2463(2)
O3 O 0.8731(3) 0.5531(2) 0.4491(2)
O4 O 0.8075(4) 0.5783(2) 0.3126(2)
O5 O 0.5573(3) 0.16312(17) -0.0635(2)
O6 O 0.5278(3) 0.27635(18) -0.0238(2)
O7 O 0.7407(3) 0.2049(2) 0.0827(3)
O8 O 0.4709(3) 0.1620(2) 0.1019(3)
C1 C 0.6460(5) 0.2850(3) 0.2302(4)
C2 C 0.6956(5) 0.3419(3) 0.2934(3)
C3 C 0.7591(6) 0.3318(3) 0.3752(4)
H1 H 0.7699 0.2862 0.4025
C4 C 0.8057(5) 0.3981(3) 0.4131(3)
H2 H 0.8513 0.4009 0.4681
C5 C 0.7773(5) 0.4580(3) 0.3609(3)
C6 C 0.8206(5) 0.5341(3) 0.3743(3)
C7 C 0.5341(5) 0.2309(3) -0.0822(3)
C8 C 0.5127(5) 0.2534(3) -0.1725(3)
C9 C 0.5079(6) 0.3225(3) -0.2050(3)
H3 H 0.5142 0.3651 -0.1722
O5A O 0.4427(3) 0.16312(17) -0.4365(2)
O6A O 0.4722(3) 0.27635(18) -0.4762(2)
C7A C 0.4659(5) 0.2309(3) -0.4178(3)
C8A C 0.4873(5) 0.2534(3) -0.3275(3)
C9A C 0.4921(6) 0.3225(3) -0.2950(3)
H3A H 0.4858 0.3651 -0.3278
U1A U 0.393742(18) 0.183800(10) -0.593431(12)
S2A S 0.30894(15) 0.43337(8) -0.76431(9)
O1A O 0.4034(4) 0.3063(2) -0.6546(2)
O2A O 0.3376(4) 0.2183(2) -0.7463(2)
O3A O 0.1269(3) 0.5531(2) -0.9491(2)
O4A O 0.1925(4) 0.5783(2) -0.8126(2)
O7A O 0.2593(3) 0.2049(2) -0.5827(3)
O8A O 0.5291(3) 0.1620(2) -0.6019(3)
C1A C 0.3540(5) 0.2850(3) -0.7302(4)
C2A C 0.3044(5) 0.3419(3) -0.7934(3)
C3A C 0.2409(6) 0.3318(3) -0.8752(4)
H1A H 0.2301 0.2862 -0.9025
C4A C 0.1943(5) 0.3981(3) -0.9131(3)
H2A H 0.1487 0.4009 -0.9681
C5A C 0.2227(5) 0.4580(3) -0.8609(3)
C6A C 0.1794(5) 0.5341(3) -0.8743(3)
U1B U 0.106258(18) 0.683800(10) -0.906569(12)
U1C U 0.893742(18) 0.683800(10) 0.406569(12)
O3B O 0.3731(3) 0.0531(2) -0.5509(2)
O3C O 0.6269(3) 0.0531(2) 0.0509(2)
O4B O 0.3075(4) 0.0783(2) -0.6874(2)
O4C O 0.6925(4) 0.0783(2) 0.1874(2)
N1 N 0.7831(4) 0.5036(2) 0.1050(3)
C10 C 0.9025(5) 0.5018(3) 0.1508(4)
H4 H 0.9311 0.4528 0.1484
H5 H 0.9105 0.5158 0.2091
H6 H 0.9432 0.5356 0.1242
C11 C 0.7231(5) 0.5659(3) 0.0988(4)
H7 H 0.7562 0.6092 0.1236
C12 C 0.6125(5) 0.5657(3) 0.0555(4)
H8 H 0.5725 0.6095 0.0489
C13 C 0.5603(4) 0.5010(3) 0.0217(3)
C14 C 0.6245(4) 0.4370(3) 0.0295(3)
H9 H 0.5924 0.3928 0.0069
C15 C 0.7360(5) 0.4395(3) 0.0710(3)
H10 H 0.7790 0.3970 0.0756
N1D N 0.2169(4) 0.4964(2) -0.1050(3)
C10D C 0.0975(5) 0.4982(3) -0.1508(4)
H4D H 0.0689 0.5472 -0.1484
H5D H 0.0895 0.4842 -0.2091
H6D H 0.0568 0.4644 -0.1242
C11D C 0.2769(5) 0.4341(3) -0.0988(4)
H7D H 0.2438 0.3908 -0.1236
C12D C 0.3875(5) 0.4343(3) -0.0555(4)
H8D H 0.4275 0.3905 -0.0489
C13D C 0.4397(4) 0.4990(3) -0.0217(3)
C14D C 0.3755(4) 0.5630(3) -0.0295(3)
H9D H 0.4076 0.6072 -0.0069
C15D C 0.2640(5) 0.5605(3) -0.0710(3)
H10D H 0.2210 0.6030 -0.0756
loop_
_geom_bond_atom_site_label_1
_geom_bond_atom_site_label_2
_geom_bond_site_symmetry_1
_geom_bond_site_symmetry_2
U1 O1 1_555 1_555
S1 C8 1_555 1_555
S2 C2 1_555 1_555
O1 C1 1_555 1_555
O2 U1 1_555 1_555
O3 C6 1_555 1_555
O4 C6 1_555 1_555
O5 U1 1_555 1_555
O6 U1 1_555 1_555
O7 U1 1_555 1_555
O8 U1 1_555 1_555
C1 O2 1_555 1_555
C2 C1 1_555 1_555
C3 C2 1_555 1_555
H1 C3 1_555 1_555
C4 C3 1_555 1_555
H2 C4 1_555 1_555
C5 S2 1_555 1_555
C6 C5 1_555 1_555
C7 O5 1_555 1_555
C8 C7 1_555 1_555
C9 C8 1_555 1_555
H3 C9 1_555 1_555
N1 C10 1_555 1_555
C10 H4 1_555 1_555
H5 C10 1_555 1_555
H6 C10 1_555 1_555
C11 N1 1_555 1_555
H7 C11 1_555 1_555
C12 C11 1_555 1_555
H8 C12 1_555 1_555
C13 C12 1_555 1_555
C14 C13 1_555 1_555
H9 C14 1_555 1_555
C15 N1 1_555 1_555
H10 C15 1_555 1_555
O5A C7A 1_555 1_555
O6A C7A 1_555 1_555
C7A C8A 1_555 1_555
C8A S1 1_555 1_555
C9A C9 1_555 1_555
H3A C9A 1_555 1_555
U1A O5A 1_555 1_555
S2A C2A 1_555 1_555
O1A U1A 1_555 1_555
O2A U1A 1_555 1_555
O3A C6A 1_555 1_555
O4A C6A 1_555 1_555
O7A U1A 1_555 1_555
O8A U1A 1_555 1_555
C1A O1A 1_555 1_555
C2A C1A 1_555 1_555
C3A C2A 1_555 1_555
H1A C3A 1_555 1_555
C4A C3A 1_555 1_555
H2A C4A 1_555 1_555
C5A S2A 1_555 1_555
C6A C5A 1_555 1_555
U1B O3A 1_555 1_555
U1C O3 1_555 1_555
O3B U1A 1_555 1_555
O3C U1 1_555 1_555
O4B U1A 1_555 1_555
O4C U1 1_555 1_555
N1D C10D 1_555 1_555
C10D H4D 1_555 1_555
H5D C10D 1_555 1_555
H6D C10D 1_555 1_555
C11D N1D 1_555 1_555
H7D C11D 1_555 1_555
C12D C11D 1_555 1_555
H8D C12D 1_555 1_555
C13D C13 1_555 1_555
C14D C13D 1_555 1_555
H9D C14D 1_555 1_555
C15D N1D 1_555 1_555
H10D C15D 1_555 1_555
O4 U1C 1_555 1_555
O6 C7 1_555 1_555
C4 C5 1_555 1_555
C14 C15 1_555 1_555
O6A U1A 1_555 1_555
C8A C9A 1_555 1_555
O2A C1A 1_555 1_555
O4A U1B 1_555 1_555
C4A C5A 1_555 1_555
C12D C13D 1_555 1_555
C14D C15D 1_555 1_555

#END
