
#######################################################################
#
#                 Cambridge Crystallographic Data Centre
#                                CCDC 
#
#######################################################################
#
# If this CIF has been generated from an entry in the Cambridge 
# Structural Database, then it will include bibliographic, chemical, 
# crystal, experimental, refinement or atomic coordinate data resulting 
# from the CCDC's data processing and validation procedures.
#
#######################################################################

data_NOTJIR
_symmetry_cell_setting           monoclinic
_symmetry_space_group_name_H-M   'P 21/n'
_symmetry_Int_Tables_number      14
_space_group_name_Hall           '-P 2yn'
loop_
_symmetry_equiv_pos_site_id
_symmetry_equiv_pos_as_xyz
1 x,y,z
2 1/2-x,1/2+y,1/2-z
3 -x,-y,-z
4 1/2+x,1/2-y,1/2+z
_cell_length_a                   13.0427(7)
_cell_length_b                   22.8795(12)
_cell_length_c                   22.2207(11)
_cell_angle_alpha                90
_cell_angle_beta                 97.3570(10)
_cell_angle_gamma                90
_cell_volume                     6576.3
loop_
_atom_site_label
_atom_site_type_symbol
_atom_site_fract_x
_atom_site_fract_y
_atom_site_fract_z
La1 La -0.98440(2) 0.252375(11) 0.326415(11)
La2 La -1.13505(2) 0.111398(11) 0.010560(12)
Mn1 Mn -1.25064(5) 0.30958(3) 0.12624(3)
V1 V -1.26420(6) 0.23923(3) 0.24133(3)
V2 V -1.09241(6) 0.20563(3) 0.16127(3)
V3 V -1.08596(6) 0.28088(3) 0.04285(3)
V4 V -1.47728(6) 0.29414(4) 0.07597(3)
V5 V -1.19945(6) 0.43882(3) 0.13806(4)
V6 V -1.02295(6) 0.33783(3) 0.17315(3)
V7 V -1.18839(6) 0.36873(3) 0.26023(3)
V8 V -1.31473(6) 0.25248(3) -0.00697(3)
V9 V -1.41604(6) 0.34926(4) 0.20351(4)
V10 V -1.32707(6) 0.18205(3) 0.11248(3)
V11 V -1.02892(7) 0.41340(3) 0.05562(4)
V12 V -1.25843(6) 0.38388(3) 0.01010(3)
V13 V -1.49680(6) 0.22107(4) 0.19220(4)
O1 O -1.1581(2) 0.28900(12) 0.19544(13)
O2 O -1.2860(2) 0.12525(13) 0.07921(14)
O3 O -1.3429(2) 0.32588(13) 0.05356(13)
O4 O -1.1478(2) 0.35302(12) 0.09663(13)
O5 O -1.3041(2) 0.31658(14) 0.26390(13)
O6 O -1.1388(2) 0.41771(13) -0.00447(14)
O7 O -1.1774(2) 0.22294(14) 0.29815(13)
O8 O -1.0194(2) 0.26721(12) 0.12506(13)
O9 O -1.3549(2) 0.26757(13) 0.15667(13)
O10 O -1.0027(2) 0.33375(14) 0.02521(14)
O11 O -1.2250(2) 0.18231(12) 0.18428(13)
O12 O -1.2103(2) 0.24198(12) 0.08654(13)
O13 O -1.0716(2) 0.15052(13) 0.11757(13)
O14 O -0.8959(2) 0.22899(13) 0.43384(14)
O15 O -1.2036(2) 0.30642(13) -0.01162(13)
O16 O -1.1018(2) 0.33994(14) 0.31309(14)
O17 O -0.9476(2) 0.31682(14) 0.23351(13)
O18 O -1.1002(2) 0.40036(13) 0.20455(13)
O19 O -1.0555(2) 0.22086(14) 0.01068(14)
O20 O -1.0168(2) 0.19612(13) 0.22680(13)
O21 O -1.2869(2) 0.37648(13) 0.17086(13)
O22 O -1.4287(2) 0.15899(14) 0.14865(14)
O23 O -1.0860(3) 0.46580(13) 0.10515(14)
O24 O -1.1011(3) 0.26274(15) 0.41593(15)
O25 O -1.3759(2) 0.20619(15) 0.25484(14)
O26 O -1.5545(2) 0.24606(14) 0.11801(14)
O27 O -1.4866(2) 0.35488(14) 0.12697(14)
O28 O -1.2609(2) 0.19115(13) -0.02683(13)
O29 O -1.4486(3) 0.40736(16) 0.23639(15)
O30 O -1.2833(2) 0.43905(13) 0.06668(14)
O31 O -1.5041(2) 0.29400(15) 0.22610(14)
O32 O -1.5852(3) 0.18535(18) 0.21781(17)
O33 O -1.5544(3) 0.31107(15) 0.01656(14)
O34 O -1.4073(2) 0.22244(13) 0.04724(13)
O35 O -0.9509(2) 0.38009(14) 0.13183(14)
O36 O -0.8876(3) 0.34095(15) 0.36878(17)
O37 O -1.0947(3) 0.01617(16) -0.04317(18)
O38 O -1.3400(3) 0.39910(14) -0.04768(15)
O39 O -0.9419(3) 0.10490(15) 0.01773(16)
O40 O -1.2978(3) 0.06850(15) -0.03778(16)
O41 O -1.2374(3) 0.49366(15) 0.17230(15)
O42 O -1.0068(3) 0.14490(16) 0.35808(17)
O43 O -0.9415(3) 0.45027(15) 0.03020(17)
O44 O -1.2293(3) 0.42713(15) 0.29044(15)
O45 O -0.8137(3) 0.20695(18) 0.31521(16)
O46 O -1.1235(3) 0.02964(16) 0.08757(17)
O47 O -1.1088(3) 0.13417(17) -0.09673(16)
O48 O -1.4163(3) 0.03976(17) -0.11223(18)
O49 O -0.6830(4) 0.26594(18) 0.3453(2)
O50 O -0.8322(4) 0.1460(2) -0.03928(19)
N1 N -1.4034(4) -0.1229(2) 0.0350(3)
C1 C -1.3615(4) 0.0330(2) -0.0621(2)
N2 N -0.5200(5) 0.0721(3) 0.3783(2)
C2 C -1.3766(4) -0.0230(2) -0.0278(2)
C3 C -0.7227(4) 0.2169(2) 0.3361(2)
C4 C -0.8367(4) 0.1836(2) 0.0595(2)
C5 C -0.8729(4) 0.1416(3) 0.0082(2)
C6 C -0.8048(4) 0.2062(3) 0.1642(3)
H1 H -0.8015 0.1945 0.2045
C7 C -1.3593(4) -0.0231(3) 0.0348(2)
H2 H -1.3376 0.0107 0.0558
C8 C -0.5529(5) 0.1728(3) 0.3816(3)
H3 H -0.5299 0.2101 0.3930
N3 N -0.7801(4) 0.2610(2) 0.1508(2)
C9 C -0.8353(4) 0.1670(3) 0.1182(3)
H4 H -0.8548 0.1293 0.1274
C10 C -0.7816(4) 0.2784(3) 0.0935(3)
H5 H -0.7646 0.3168 0.0852
C11 C -1.4071(5) -0.0739(3) -0.0576(3)
H6 H -1.4200 -0.0744 -0.0998
C12 C -1.4184(5) -0.1239(3) -0.0254(3)
H7 H -1.4366 -0.1586 -0.0458
C13 C -0.6507(4) 0.1650(2) 0.3520(2)
C14 C -0.6828(5) 0.1089(3) 0.3346(3)
H8 H -0.7479 0.1021 0.3134
C15 C -0.8080(4) 0.2403(3) 0.0469(3)
H9 H -0.8068 0.2522 0.0070
C16 C -1.3746(5) -0.0739(3) 0.0658(3)
H10 H -1.3650 -0.0742 0.1080
C17 C -0.4887(5) 0.1254(3) 0.3944(3)
H11 H -0.4225 0.1310 0.4147
C18 C -0.6137(6) 0.0631(3) 0.3501(4)
H12 H -0.6345 0.0250 0.3402
V8C V -0.81473(6) 0.24752(3) 0.49303(3)
O14C O -1.3959(2) 0.27101(13) -0.06616(14)
O51 O -0.7029(3) 0.33479(19) 0.24353(19)
O52 O -0.9349(4) 0.08216(18) -0.13125(18)
O53 O -1.4823(4) 0.0133(2) -0.2321(2)
O54 O -1.1885(4) 0.0398(2) 0.1993(2)
O55 O -0.8143(4) 0.2402(3) -0.1112(2)
O56 O -0.9900(5) 0.0615(2) 0.2469(3)
O57 O -1.1502(6) -0.0155(3) -0.1609(3)
O58 O -0.7228(5) -0.0474(3) 0.2481(3)
O59 O -1.1312(5) 0.5758(2) 0.2561(3)
O60 O -1.2530(7) 0.1184(2) 0.3467(3)
N4 N -0.5569(6) 0.4964(3) 0.1482(3)
O61 O -0.6462(8) 0.4248(3) -0.0589(4)
C19 C -0.4974(6) 0.4852(4) 0.1059(4)
H13 H -0.4275 0.4947 0.1125
O62 O -0.7681(7) 0.3818(4) -0.0104(4)
C20 C -0.6391(7) 0.4439(4) 0.0430(4)
C21 C -0.5373(7) 0.4603(4) 0.0531(5)
H14 H -0.4950 0.4541 0.0231
C22 C -0.6539(7) 0.4786(4) 0.1438(4)
H15 H -0.6921 0.4836 0.1759
C23 C -0.6984(7) 0.4521(4) 0.0892(5)
H16 H -0.7672 0.4402 0.0847
C24 C -0.6944(11) 0.4155(6) -0.0149(7)
loop_
_geom_bond_atom_site_label_1
_geom_bond_atom_site_label_2
_geom_bond_site_symmetry_1
_geom_bond_site_symmetry_2
La1 O7 1_555 1_555
La2 O2 1_555 1_555
Mn1 O1 1_555 1_555
V1 O1 1_555 1_555
V2 O1 1_555 1_555
V3 O4 1_555 1_555
V4 O3 1_555 1_555
V5 O4 1_555 1_555
V6 O1 1_555 1_555
V7 O1 1_555 1_555
V8 O3 1_555 1_555
V9 O5 1_555 1_555
V10 O2 1_555 1_555
V11 O4 1_555 1_555
V12 O3 1_555 1_555
V13 O9 1_555 1_555
O3 Mn1 1_555 1_555
O4 Mn1 1_555 1_555
O5 V1 1_555 1_555
O6 V11 1_555 1_555
O7 V1 1_555 1_555
O8 V2 1_555 1_555
O9 Mn1 1_555 1_555
O10 V3 1_555 1_555
O11 V1 1_555 1_555
O12 Mn1 1_555 1_555
O13 La2 1_555 1_555
O14 La1 1_555 1_555
O15 V3 1_555 1_555
O16 La1 1_555 1_555
O17 La1 1_555 1_555
O18 V5 1_555 1_555
O19 La2 1_555 1_555
O20 La1 1_555 1_555
O21 Mn1 1_555 1_555
O22 V10 1_555 1_555
O23 V5 1_555 1_555
O24 La1 1_555 1_555
O25 V1 1_555 1_555
O26 V4 1_555 1_555
O27 V4 1_555 1_555
O28 La2 1_555 1_555
O29 V9 1_555 1_555
O30 V5 1_555 1_555
O31 V9 1_555 1_555
O32 V13 1_555 1_555
O33 V4 1_555 1_555
O34 V4 1_555 1_555
O35 V6 1_555 1_555
O36 La1 1_555 1_555
O37 La2 1_555 1_555
O38 V12 1_555 1_555
O39 La2 1_555 1_555
O40 La2 1_555 1_555
O41 V5 1_555 1_555
O42 La1 1_555 1_555
O43 V11 1_555 1_555
O44 V7 1_555 1_555
O45 La1 1_555 1_555
O46 La2 1_555 1_555
O47 La2 1_555 1_555
O48 C1 1_555 1_555
O49 C3 1_555 1_555
O50 C5 1_555 1_555
N1 C12 1_555 1_555
C1 O40 1_555 1_555
N2 C17 1_555 1_555
C2 C1 1_555 1_555
C3 O45 1_555 1_555
C4 C5 1_555 1_555
C5 O39 1_555 1_555
C6 H1 1_555 1_555
C7 C2 1_555 1_555
H2 C7 1_555 1_555
C8 H3 1_555 1_555
N3 C6 1_555 1_555
C9 C4 1_555 1_555
H4 C9 1_555 1_555
C10 N3 1_555 1_555
H5 C10 1_555 1_555
C11 C2 1_555 1_555
H6 C11 1_555 1_555
C12 C11 1_555 1_555
H7 C12 1_555 1_555
C13 C3 1_555 1_555
C14 C13 1_555 1_555
H8 C14 1_555 1_555
C15 C4 1_555 1_555
H9 C15 1_555 1_555
C16 N1 1_555 1_555
H10 C16 1_555 1_555
C17 C8 1_555 1_555
H11 C17 1_555 1_555
C18 N2 1_555 1_555
H12 C18 1_555 1_555
N4 C19 1_555 1_555
O61 C24 1_555 1_555
C19 H13 1_555 1_555
O62 C24 1_555 1_555
C20 C21 1_555 1_555
C21 C19 1_555 1_555
H14 C21 1_555 1_555
C22 N4 1_555 1_555
H15 C22 1_555 1_555
C23 C20 1_555 1_555
H16 C23 1_555 1_555
C24 C20 1_555 1_555
V8C O14 1_555 1_555
O14C V8 1_555 1_555
V1 O9 1_555 1_555
V2 O11 1_555 1_555
V2 O12 1_555 1_555
V2 O13 1_555 1_555
V2 O20 1_555 1_555
V3 O8 1_555 1_555
V3 O12 1_555 1_555
V3 O19 1_555 1_555
V4 O9 1_555 1_555
V5 O21 1_555 1_555
V6 O4 1_555 1_555
V6 O8 1_555 1_555
V6 O17 1_555 1_555
V6 O18 1_555 1_555
V7 O5 1_555 1_555
V7 O16 1_555 1_555
V7 O18 1_555 1_555
V7 O21 1_555 1_555
V8 O12 1_555 1_555
V8 O15 1_555 1_555
V8 O28 1_555 1_555
V8 O34 1_555 1_555
V9 O9 1_555 1_555
V9 O21 1_555 1_555
V9 O27 1_555 1_555
V10 O9 1_555 1_555
V10 O11 1_555 1_555
V10 O12 1_555 1_555
V10 O34 1_555 1_555
V11 O10 1_555 1_555
V11 O23 1_555 1_555
V11 O35 1_555 1_555
V12 O4 1_555 1_555
V12 O6 1_555 1_555
V12 O15 1_555 1_555
V12 O30 1_555 1_555
V13 O22 1_555 1_555
V13 O25 1_555 1_555
V13 O26 1_555 1_555
V13 O31 1_555 1_555
C6 C9 1_555 1_555
C7 C16 1_555 1_555
C8 C13 1_555 1_555
C10 C15 1_555 1_555
C14 C18 1_555 1_555
C22 C23 1_555 1_555

#END
