
#######################################################################
#
#                 Cambridge Crystallographic Data Centre
#                                CCDC 
#
#######################################################################
#
# If this CIF has been generated from an entry in the Cambridge 
# Structural Database, then it will include bibliographic, chemical, 
# crystal, experimental, refinement or atomic coordinate data resulting 
# from the CCDC's data processing and validation procedures.
#
#######################################################################

data_NOTJOX
_symmetry_cell_setting           monoclinic
_symmetry_space_group_name_H-M   'P 21/n'
_symmetry_Int_Tables_number      14
_space_group_name_Hall           '-P 2yn'
loop_
_symmetry_equiv_pos_site_id
_symmetry_equiv_pos_as_xyz
1 x,y,z
2 1/2-x,1/2+y,1/2-z
3 -x,-y,-z
4 1/2+x,1/2-y,1/2+z
_cell_length_a                   13.021(3)
_cell_length_b                   22.787(5)
_cell_length_c                   22.153(4)
_cell_angle_alpha                90
_cell_angle_beta                 97.44(3)
_cell_angle_gamma                90
_cell_volume                     6517.67
loop_
_atom_site_label
_atom_site_type_symbol
_atom_site_fract_x
_atom_site_fract_y
_atom_site_fract_z
Ce1 Ce -0.98363(4) 0.25271(3) 0.32575(2)
Ce2 Ce -1.13428(4) 0.11135(3) 0.01032(2)
Mn1 Mn -1.24966(11) 0.30946(7) 0.12570(6)
V1 V -1.08463(12) 0.28047(8) 0.04229(7)
V2 V -1.09096(12) 0.20530(8) 0.16098(7)
V3 V -1.26264(12) 0.23889(8) 0.24106(7)
V4 V -1.02155(12) 0.33772(8) 0.17290(7)
V5 V -1.18706(13) 0.36871(8) 0.25991(7)
V6 V -1.47644(12) 0.29418(9) 0.07542(7)
V7 V -1.19893(14) 0.43904(8) 0.13743(7)
V8 V -1.31344(12) 0.25207(8) -0.00761(6)
V9 V -1.02804(13) 0.41362(8) 0.05516(8)
V10 V -1.32576(12) 0.18137(8) 0.11193(7)
V11 V -1.25761(13) 0.38374(8) 0.00939(7)
V12 V -1.41519(13) 0.34912(9) 0.20318(7)
V13 V -1.49555(13) 0.22031(10) 0.19194(8)
O1 O -1.2230(5) 0.1818(3) 0.1835(3)
O2 O -1.0184(4) 0.2674(3) 0.1246(3)
O3 O -1.0019(5) 0.3342(3) 0.0250(3)
O4 O -1.0988(5) 0.4004(3) 0.2039(3)
O5 O -1.1570(5) 0.2890(3) 0.1950(3)
O6 O -1.1742(5) 0.2227(3) 0.2988(3)
O7 O -1.2030(5) 0.3060(3) -0.0126(3)
O8 O -1.3033(5) 0.3163(3) 0.2632(3)
O9 O -1.2853(5) 0.1245(3) 0.0782(3)
O10 O -1.0852(5) 0.4655(3) 0.1042(3)
O11 O -1.3538(4) 0.2674(3) 0.1559(3)
O12 O -1.3428(5) 0.3253(3) 0.0527(3)
O13 O -1.2829(5) 0.4387(3) 0.0659(3)
O14 O -1.4062(4) 0.2217(3) 0.0470(3)
O15 O -0.9463(5) 0.3167(3) 0.2340(3)
O16 O -0.9424(6) 0.1046(4) 0.0176(3)
O17 O -1.1467(5) 0.3530(3) 0.0962(3)
O18 O -1.5540(5) 0.2461(4) 0.1173(3)
O19 O -1.3743(5) 0.2059(4) 0.2549(3)
O20 O -1.5848(6) 0.1852(4) 0.2177(3)
O21 O -1.0991(5) 0.3401(3) 0.3134(3)
O22 O -1.0697(5) 0.1498(3) 0.1173(3)
O23 O -0.9495(5) 0.3799(3) 0.1319(3)
O24 O -1.0998(5) 0.2628(3) 0.4152(3)
O25 O -0.9396(6) 0.4504(4) 0.0295(3)
O26 O -1.4861(5) 0.3547(3) 0.1269(3)
O27 O -1.0145(5) 0.1958(3) 0.2268(3)
O28 O -1.5027(5) 0.2933(4) 0.2255(3)
O29 O -1.2590(5) 0.1907(3) -0.0272(3)
O30 O -0.8149(5) 0.2076(4) 0.3151(3)
O31 O -1.5537(5) 0.3106(4) 0.0157(3)
O32 O -1.3951(5) 0.2708(3) -0.0671(3)
O33 O -1.2967(6) 0.0691(4) -0.0379(3)
O34 O -1.2866(5) 0.3769(3) 0.1701(3)
O35 O -1.1379(5) 0.4178(3) -0.0056(3)
O36 O -1.3390(5) 0.3992(3) -0.0482(3)
O37 O -1.0533(5) 0.2201(3) 0.0100(3)
O38 O -1.4272(5) 0.1586(4) 0.1485(3)
O39 O -1.4484(6) 0.4074(4) 0.2358(3)
O40 O -1.1217(6) 0.0300(4) 0.0860(4)
O41 O -1.2084(4) 0.2414(3) 0.0867(3)
O42 O -1.1093(6) 0.1340(4) -0.0958(3)
O43 O -1.2371(6) 0.4954(4) 0.1715(3)
O44 O -1.0064(6) 0.1450(4) 0.3564(3)
O45 O -0.8851(6) 0.3406(4) 0.3683(3)
O46 O -1.2277(6) 0.4270(4) 0.2904(3)
O47 O -0.6838(7) 0.2674(4) 0.3451(4)
O48 O -1.0934(7) 0.0156(4) -0.0437(4)
O49 O -1.4147(7) 0.0406(4) -0.1120(4)
N1 N -0.5213(9) 0.0724(6) 0.3771(5)
O50 O -0.8343(7) 0.1452(5) -0.0404(4)
N2 N -1.4055(8) -0.1220(5) 0.0354(5)
N3 N -0.7783(6) 0.2620(5) 0.1501(4)
C1 C -0.8362(7) 0.1839(5) 0.0579(5)
C2 C -0.7224(9) 0.2173(6) 0.3365(4)
C3 C -0.8057(9) 0.2070(7) 0.1635(5)
H1 H -0.8056 0.1962 0.2040
C4 C -0.8738(8) 0.1419(5) 0.0075(5)
C5 C -1.3586(9) -0.0219(6) 0.0352(5)
H2 H -1.3368 0.0123 0.0559
C6 C -1.3610(9) 0.0342(5) -0.0623(5)
C7 C -1.3751(8) -0.0232(5) -0.0276(5)
C8 C -0.8338(9) 0.1666(7) 0.1183(5)
H3 H -0.8508 0.1284 0.1279
C9 C -0.7818(9) 0.2788(7) 0.0934(6)
H4 H -0.7663 0.3175 0.0848
C10 C -0.6490(8) 0.1648(6) 0.3509(5)
C11 C -1.4197(11) -0.1226(7) -0.0251(6)
H5 H -1.4383 -0.1574 -0.0456
C12 C -0.5527(9) 0.1744(7) 0.3811(5)
H6 H -0.5308 0.2121 0.3927
C13 C -0.6828(10) 0.1092(7) 0.3361(6)
H7 H -0.7501 0.1024 0.3178
C14 C -0.8083(9) 0.2398(6) 0.0458(6)
H8 H -0.8070 0.2518 0.0058
C15 C -0.4879(10) 0.1263(7) 0.3942(6)
H9 H -0.4215 0.1315 0.4147
C16 C -1.3752(9) -0.0732(6) 0.0667(5)
H10 H -1.3655 -0.0736 0.1090
C17 C -1.4076(10) -0.0739(6) -0.0568(6)
H11 H -1.4214 -0.0745 -0.0990
C18 C -0.6146(11) 0.0638(7) 0.3491(7)
H12 H -0.6352 0.0259 0.3376
Ce1C Ce -1.48363(4) 0.24729(3) -0.17425(2)
O32C O -0.8951(5) 0.2292(3) 0.4329(3)
O51 O -1.6418(13) 0.4252(8) -0.0556(8)
N4 N -1.5601(10) 0.4962(7) 0.1488(6)
O52 O -1.7667(12) 0.3824(11) -0.0127(10)
C19 C -1.6368(15) 0.4445(8) 0.0435(8)
C20 C -1.5331(15) 0.4620(8) 0.0545(9)
H13 H -1.4898 0.4559 0.0248
C21 C -1.4961(13) 0.4868(9) 0.1063(8)
H14 H -1.4268 0.4978 0.1136
C22 C -1.6565(12) 0.4787(9) 0.1425(8)
H15 H -1.6967 0.4844 0.1738
C23 C -1.6965(18) 0.4156(11) -0.0121(10)
C24 C -1.6985(12) 0.4515(9) 0.0888(10)
H16 H -1.7667 0.4383 0.0837
O53 O -0.7018(6) 0.3354(4) 0.2431(4)
O54 O -1.1870(9) 0.0392(5) 0.1988(4)
O55 O -0.9352(7) 0.0822(4) -0.1316(4)
O56 O -1.4816(8) 0.0134(5) -0.2321(4)
O57 O -0.8123(8) 0.2393(6) -0.1111(4)
O58 O -0.5124(10) 0.5608(5) 0.2531(5)
O59 O -1.1501(10) -0.0164(6) -0.1605(5)
O60 O -1.3702(11) 0.0759(6) 0.2436(6)
O61 O -1.7782(9) 0.4531(6) 0.2512(5)
O62 O -1.7514(12) 0.3804(6) -0.1533(6)
loop_
_geom_bond_atom_site_label_1
_geom_bond_atom_site_label_2
_geom_bond_site_symmetry_1
_geom_bond_site_symmetry_2
Ce1 O6 1_555 1_555
Ce2 O9 1_555 1_555
Mn1 O5 1_555 1_555
V1 O2 1_555 1_555
V2 O1 1_555 1_555
V3 O1 1_555 1_555
V4 O2 1_555 1_555
V5 O4 1_555 1_555
V6 O11 1_555 1_555
V7 O4 1_555 1_555
V8 O7 1_555 1_555
V9 O3 1_555 1_555
V10 O1 1_555 1_555
V11 O7 1_555 1_555
V12 O8 1_555 1_555
V13 O11 1_555 1_555
O2 V2 1_555 1_555
O3 V1 1_555 1_555
O4 V4 1_555 1_555
O5 V2 1_555 1_555
O6 V3 1_555 1_555
O7 V1 1_555 1_555
O8 V3 1_555 1_555
O9 V10 1_555 1_555
O10 V7 1_555 1_555
O11 Mn1 1_555 1_555
O12 Mn1 1_555 1_555
O13 V7 1_555 1_555
O14 V6 1_555 1_555
O15 Ce1 1_555 1_555
O16 Ce2 1_555 1_555
O17 Mn1 1_555 1_555
O18 V6 1_555 1_555
O19 V3 1_555 1_555
O20 V13 1_555 1_555
O21 Ce1 1_555 1_555
O22 Ce2 1_555 1_555
O23 V4 1_555 1_555
O24 Ce1 1_555 1_555
O25 V9 1_555 1_555
O26 V6 1_555 1_555
O27 Ce1 1_555 1_555
O28 V12 1_555 1_555
O29 Ce2 1_555 1_555
O30 Ce1 1_555 1_555
O31 V6 1_555 1_555
O32 V8 1_555 1_555
O33 Ce2 1_555 1_555
O34 Mn1 1_555 1_555
O35 V9 1_555 1_555
O36 V11 1_555 1_555
O37 Ce2 1_555 1_555
O38 V10 1_555 1_555
O39 V12 1_555 1_555
O40 Ce2 1_555 1_555
O41 Mn1 1_555 1_555
O42 Ce2 1_555 1_555
O43 V7 1_555 1_555
O44 Ce1 1_555 1_555
O45 Ce1 1_555 1_555
O46 V5 1_555 1_555
O47 C2 1_555 1_555
O48 Ce2 1_555 1_555
O49 C6 1_555 1_555
N1 C15 1_555 1_555
O50 C4 1_555 1_555
N2 C11 1_555 1_555
N3 C3 1_555 1_555
C1 C4 1_555 1_555
C2 O30 1_555 1_555
C3 H1 1_555 1_555
C4 O16 1_555 1_555
C5 H2 1_555 1_555
C6 O33 1_555 1_555
C7 C5 1_555 1_555
C8 C1 1_555 1_555
H3 C8 1_555 1_555
C9 N3 1_555 1_555
H4 C9 1_555 1_555
C10 C2 1_555 1_555
C11 H5 1_555 1_555
C12 C10 1_555 1_555
H6 C12 1_555 1_555
C13 C10 1_555 1_555
H7 C13 1_555 1_555
C14 C1 1_555 1_555
H8 C14 1_555 1_555
C15 C12 1_555 1_555
H9 C15 1_555 1_555
C16 N2 1_555 1_555
H10 C16 1_555 1_555
C17 C7 1_555 1_555
H11 C17 1_555 1_555
C18 N1 1_555 1_555
H12 C18 1_555 1_555
O51 C23 1_555 1_555
N4 C21 1_555 1_555
O52 C23 1_555 1_555
C19 C20 1_555 1_555
C20 H13 1_555 1_555
C21 C20 1_555 1_555
H14 C21 1_555 1_555
C22 N4 1_555 1_555
H15 C22 1_555 1_555
C23 C19 1_555 1_555
C24 C19 1_555 1_555
H16 C24 1_555 1_555
Ce1C O32 1_555 1_555
O32C Ce1 1_555 1_555
V1 O17 1_555 1_555
V1 O37 1_555 1_555
V1 O41 1_555 1_555
V2 O22 1_555 1_555
V2 O27 1_555 1_555
V2 O41 1_555 1_555
V3 O5 1_555 1_555
V3 O11 1_555 1_555
V4 O5 1_555 1_555
V4 O15 1_555 1_555
V4 O17 1_555 1_555
V5 O5 1_555 1_555
V5 O8 1_555 1_555
V5 O21 1_555 1_555
V5 O34 1_555 1_555
V6 O12 1_555 1_555
V7 O17 1_555 1_555
V7 O34 1_555 1_555
V8 O12 1_555 1_555
V8 O14 1_555 1_555
V8 O29 1_555 1_555
V8 O41 1_555 1_555
V9 O10 1_555 1_555
V9 O17 1_555 1_555
V9 O23 1_555 1_555
V10 O11 1_555 1_555
V10 O14 1_555 1_555
V10 O41 1_555 1_555
V11 O12 1_555 1_555
V11 O13 1_555 1_555
V11 O17 1_555 1_555
V11 O35 1_555 1_555
V12 O11 1_555 1_555
V12 O26 1_555 1_555
V12 O34 1_555 1_555
V13 O18 1_555 1_555
V13 O19 1_555 1_555
V13 O28 1_555 1_555
V13 O38 1_555 1_555
C3 C8 1_555 1_555
C5 C16 1_555 1_555
C6 C7 1_555 1_555
C9 C14 1_555 1_555
C11 C17 1_555 1_555
C13 C18 1_555 1_555
C22 C24 1_555 1_555

#END
