
#######################################################################
#
#                 Cambridge Crystallographic Data Centre
#                                CCDC 
#
#######################################################################
#
# If this CIF has been generated from an entry in the Cambridge 
# Structural Database, then it will include bibliographic, chemical, 
# crystal, experimental, refinement or atomic coordinate data resulting 
# from the CCDC's data processing and validation procedures.
#
#######################################################################

data_NOTJUD
_symmetry_cell_setting           triclinic
_symmetry_space_group_name_H-M   'P -1'
_symmetry_Int_Tables_number      2
_space_group_name_Hall           '-P 1'
loop_
_symmetry_equiv_pos_site_id
_symmetry_equiv_pos_as_xyz
1 x,y,z
2 -x,-y,-z
_cell_length_a                   12.959(3)
_cell_length_b                   21.707(4)
_cell_length_c                   21.853(4)
_cell_angle_alpha                86.36(3)
_cell_angle_beta                 83.99(3)
_cell_angle_gamma                86.79(3)
_cell_volume                     6093.6
loop_
_atom_site_label
_atom_site_type_symbol
_atom_site_fract_x
_atom_site_fract_y
_atom_site_fract_z
Pr1 Pr 1.76888(7) 0.77440(4) -0.49119(4)
Pr2 Pr 1.25201(7) 0.74370(4) 0.00389(4)
Pr3 Pr 0.88392(9) 0.61808(6) 0.20226(5)
Mn1 Mn 1.51654(17) 0.70023(11) -0.19689(11)
Mn2 Mn 1.02356(18) 0.82034(11) 0.29958(11)
V1 V 1.5854(2) 0.77609(13) -0.32955(12)
V2 V 1.3548(2) 0.75040(13) -0.28358(13)
V3 V 0.7998(2) 0.86104(13) 0.34803(13)
V4 V 1.0451(2) 0.74583(14) 0.42240(13)
V5 V 1.0726(2) 0.75628(13) 0.16822(12)
V6 V 1.3586(2) 0.81202(13) -0.15717(13)
V7 V 0.8624(2) 0.71923(13) 0.34534(13)
V8 V 0.9763(2) 0.88583(13) 0.42961(13)
V9 V 1.5944(2) 0.83325(14) -0.20062(13)
V10 V 1.5257(2) 0.63885(14) -0.31862(13)
V11 V 1.4532(2) 0.62367(13) -0.06810(12)
V12 V 0.8475(2) 0.79763(13) 0.22076(12)
V13 V 1.0928(2) 0.68259(13) 0.29391(13)
V14 V 1.0246(2) 0.89782(14) 0.17753(13)
V15 V 1.5309(2) 0.75753(14) -0.07371(13)
V16 V 1.2893(2) 0.67468(13) -0.15585(12)
V17 V 1.4592(2) 0.56550(14) -0.19512(13)
V18 V 1.2464(2) 0.79387(14) 0.24576(13)
V19 V 1.2010(2) 0.85340(15) 0.37234(13)
V20 V 1.7444(2) 0.71407(14) -0.24358(13)
V21 V 1.7636(2) 0.77392(17) -0.12029(15)
V22 V 0.9787(2) 0.95868(14) 0.30298(14)
V23 V 1.6831(2) 0.64197(15) -0.11981(14)
V24 V 1.2736(2) 0.71529(15) 0.36768(14)
V25 V 1.2929(2) 0.61360(15) -0.28195(14)
V26 V 0.7980(2) 0.93878(15) 0.22372(14)
O1 O 1.0671(8) 0.8892(5) 0.3382(5)
O2 O 0.9972(8) 0.6876(5) 0.3690(5)
O3 O 1.6103(8) 0.6884(5) -0.2692(5)
O4 O 0.9749(8) 0.7511(5) 0.2660(5)
O5 O 0.9354(8) 0.8043(5) 0.3719(5)
O6 O 1.4904(9) 0.5571(6) -0.0429(5)
O7 O 1.2694(8) 0.7004(6) -0.3058(5)
O8 O 1.0151(9) 0.6939(5) 0.1540(5)
O9 O 1.4764(8) 0.7787(5) -0.2322(5)
O10 O 1.4913(8) 0.8267(5) -0.1293(5)
O11 O 1.4237(8) 0.7149(5) -0.1273(5)
O12 O 1.4442(9) 0.7712(6) -0.0169(5)
O13 O 1.4144(8) 0.6632(5) -0.2326(5)
O14 O 1.2847(8) 0.7560(5) -0.1989(5)
O15 O 1.0477(9) 0.6249(5) 0.2647(5)
O16 O 1.5443(10) 0.8446(6) -0.3492(5)
O17 O 0.9188(8) 0.8710(5) 0.2678(5)
O18 O 0.7657(9) 0.8568(6) 0.2006(5)
O19 O 1.3209(9) 0.8172(6) -0.3134(6)
O20 O 1.1953(9) 0.6534(6) 0.3297(6)
O21 O 0.8829(8) 0.9235(5) 0.3730(5)
O22 O 1.1091(8) 0.8327(5) 0.2226(5)
O23 O 1.0201(10) 0.9452(6) 0.4562(5)
O24 O 1.3620(8) 0.6013(5) -0.1276(5)
O25 O 1.3623(9) 0.6502(6) -0.0143(5)
O26 O 1.6762(8) 0.7959(5) -0.2683(5)
O27 O 1.1287(8) 0.7717(5) 0.3308(5)
O28 O 1.2163(9) 0.6400(5) -0.2023(5)
O29 O 0.7246(8) 0.9090(5) 0.3047(5)
O30 O 1.5687(8) 0.6718(5) -0.0575(5)
O31 O 1.5469(9) 0.5705(6) -0.2656(5)
O32 O 1.4731(8) 0.7244(5) -0.3379(5)
O33 O 0.9623(9) 0.8182(5) 0.1613(5)
O34 O 1.7669(9) 0.6933(6) -0.0910(5)
O35 O 1.7530(8) 0.6416(5) -0.1971(5)
O36 O 1.2130(9) 0.6901(5) -0.0939(5)
O37 O 1.6215(8) 0.7352(5) -0.1619(5)
O38 O 1.6092(9) 0.6257(6) -0.3749(5)
O39 O 1.1570(9) 0.7051(6) 0.4348(5)
O40 O 1.2871(8) 0.7901(6) 0.3972(5)
O41 O 1.6421(9) 0.7866(7) -0.0567(5)
O42 O 1.4045(10) 0.6114(6) -0.3392(5)
O43 O 0.7872(8) 0.7867(5) 0.3057(5)
O44 O 1.7138(9) 0.5756(6) -0.0901(6)
O45 O 0.9047(10) 0.9387(6) 0.1621(6)
O46 O 1.6694(9) 0.7566(6) -0.3877(5)
O47 O 1.5615(10) 0.8990(6) -0.2293(6)
O48 O 0.8114(8) 0.7360(6) 0.1951(5)
O49 O 1.8246(9) 0.7538(6) -0.1965(5)
O50 O 1.2842(8) 0.8108(6) -0.0904(5)
O51 O 1.5514(8) 0.6220(5) -0.1569(5)
O52 O 1.6967(9) 0.8462(6) -0.1604(6)
O53 O 1.3310(9) 0.8781(6) -0.1925(5)
O54 O 1.3478(9) 0.5493(6) -0.2330(6)
O55 O 1.4918(10) 0.4995(6) -0.1650(6)
O56 O 1.8218(9) 0.7018(6) -0.3036(6)
O57 O 1.2040(11) 0.5822(7) -0.3106(6)
O58 O 1.8530(10) 0.8034(8) -0.0905(7)
O59 O 0.9633(9) 0.7325(6) 0.4832(5)
O60 O 0.7293(8) 0.8431(5) 0.4117(5)
O61 O 1.0284(12) 0.5585(6) 0.1458(6)
O62 O 0.7084(10) 0.9813(6) 0.1973(6)
O63 O 1.3638(10) 0.6727(7) 0.3935(6)
O64 O 0.8646(9) 0.9912(5) 0.2677(6)
O65 O 1.1016(10) 0.9098(6) 0.1166(5)
O66 O 1.2393(10) 0.9126(6) 0.4001(6)
O67 O 1.0198(10) 1.0159(6) 0.3324(6)
O68 O 1.0890(8) 0.8257(5) 0.4374(5)
O69 O 1.3258(8) 0.7392(6) 0.2897(5)
O70 O 1.3189(9) 0.8078(6) 0.1840(6)
O71 O 1.1698(9) 0.7213(5) 0.2231(5)
O72 O 1.1483(9) 0.7721(5) 0.1051(5)
O73 O 0.7940(9) 0.7144(6) 0.4137(5)
O74 O 0.8894(9) 0.8604(6) 0.4848(5)
O75 O 1.2625(8) 0.8582(6) 0.2915(5)
O76 O 1.0589(9) 0.9548(5) 0.2290(5)
O77 O 0.8319(9) 0.6616(5) 0.3075(5)
O78 O 1.6644(10) 0.8686(6) -0.4602(5)
O79 O 1.8738(10) 0.7934(7) -0.4033(5)
O80 O 1.1295(10) 0.6626(6) 0.0427(6)
O81 O 1.2699(11) 0.8531(7) 0.0324(7)
O82 O 1.3413(11) 0.7122(8) 0.0977(6)
O83 O 1.6019(10) 0.7417(7) -0.5063(7)
O84 O 1.7941(10) 0.6647(6) -0.4497(7)
O85 O 1.0804(10) 0.7887(7) -0.0250(6)
N1 N 1.0027(12) 0.3354(8) 0.1371(9)
O86 O 1.5262(12) 0.6520(9) -0.5016(8)
O87 O 1.1099(14) 0.5402(7) 0.0526(8)
O88 O 0.8914(17) 0.5323(8) 0.2831(8)
O89 O 0.8400(14) 0.6448(8) 0.0939(8)
C1 C 1.0157(16) 0.3554(10) 0.0791(12)
H1 H 1.0105 0.3295 0.0474
O90 O 0.6875(15) 0.6212(9) 0.2279(10)
O91 O 0.8047(14) 0.5257(9) 0.1654(8)
C2 C 1.0603(15) 0.5234(9) 0.1042(11)
C3 C 1.0373(15) 0.4163(9) 0.0676(10)
H2 H 1.0493 0.4319 0.0270
C4 C 1.0417(13) 0.4557(9) 0.1157(10)
C5 C 1.5256(15) 0.7087(12) -0.4961(10)
C6 C 1.4212(16) 0.7407(12) -0.4788(9)
C7 C 1.0263(14) 0.4311(11) 0.1747(10)
H3 H 1.0268 0.4557 0.2079
N2 N 1.2340(19) 0.7962(13) -0.4484(11)
C8 C 1.0101(14) 0.3693(13) 0.1838(11)
H4 H 1.0042 0.3512 0.2236
C9 C 1.3341(18) 0.7080(14) -0.4601(11)
H5 H 1.3391 0.6650 -0.4565
C10 C 1.4153(19) 0.8020(15) -0.4770(11)
H6 H 1.4743 0.8249 -0.4847
C11 C 1.241(2) 0.7386(14) -0.4471(12)
H7 H 1.1817 0.7163 -0.4371
C12 C 1.310(3) 0.8327(15) -0.4621(12)
H8 H 1.3003 0.8755 -0.4625
Pr1_2 Pr 0.76888(7) 0.77440(4) 0.50881(4)
O59_2 O 1.9633(9) 0.7325(6) -0.5168(5)
O60_2 O 1.7293(8) 0.8431(5) -0.5883(5)
O73_2 O 1.7940(9) 0.7144(6) -0.5863(5)
O74_2 O 1.8894(9) 0.8604(6) -0.5152(5)
O92 O 1.6333(8) 0.4536(5) -0.0746(5)
O93 O 1.3968(13) 0.9438(7) -0.3085(7)
O94 O 0.9310(11) 0.2159(7) 0.1601(8)
O95 O 1.5000 1.0000 -0.5000
O96 O 0.7643(13) 0.4882(8) 0.0529(9)
O97 O 0.8286(15) 0.9612(8) 0.5635(8)
O98 O 1.0568(13) 0.8740(10) -0.4167(9)
O99 O 1.7798(18) 0.9108(10) -0.3149(9)
O100 O 1.0580(14) 0.7255(10) -0.3222(11)
O101 O 1.7577(16) 0.4262(12) -0.1847(10)
O102 O 0.9925(17) 0.6357(11) -0.3953(10)
O103 O 0.6670(19) 0.6052(12) 0.0486(10)
C13 C 1.463(2) 1.2078(19) -0.350(2)
H9 H 1.4719 1.2009 -0.3915
C14 C 1.477(2) 1.169(2) -0.311(2)
O104 O 1.527(2) 1.0533(16) -0.3129(15)
N3 N 1.419(3) 1.2789(18) -0.2635(18)
C15 C 1.434(2) 1.264(2) -0.3284(19)
H10 H 1.4231 1.2956 -0.3576
C16 C 1.508(4) 1.107(2) -0.334(3)
C17 C 1.471(3) 1.1668(18) -0.2505(18)
H11 H 1.4865 1.1315 -0.2259
C18 C 1.440(3) 1.226(2) -0.227(2)
H12 H 1.4326 1.2286 -0.1845
O105 O 1.517(4) 1.094(2) -0.393(3)
O106 O 1.2792(18) 0.9818(11) 0.2402(10)
O107 O 1.7690(17) 0.5328(11) -0.2590(12)
O108 O 0.744(2) 1.0258(12) 0.4094(13)
O109 O 0.8687(19) 1.1154(12) 0.2955(15)
O110 O 1.600(2) 0.3754(14) -0.2371(14)
O111 O 0.902(3) 0.7721(17) 0.0446(17)
O112 O 1.944(3) 0.8381(15) -0.2777(14)
O113 O 1.514(3) 0.6475(16) 0.1251(16)
O114 O 1.148(3) 0.595(2) -0.479(2)
loop_
_geom_bond_atom_site_label_1
_geom_bond_atom_site_label_2
_geom_bond_site_symmetry_1
_geom_bond_site_symmetry_2
Pr1 O46 1_555 1_555
Pr2 O12 1_555 1_555
Pr3 O8 1_555 1_555
Mn1 O3 1_555 1_555
Mn2 O1 1_555 1_555
V1 O3 1_555 1_555
V2 O7 1_555 1_555
V3 O5 1_555 1_555
V4 O2 1_555 1_555
V5 O4 1_555 1_555
V6 O9 1_555 1_555
V7 O2 1_555 1_555
V8 O1 1_555 1_555
V9 O9 1_555 1_555
V10 O3 1_555 1_555
V11 O6 1_555 1_555
V12 O4 1_555 1_555
V13 O2 1_555 1_555
V14 O17 1_555 1_555
V15 O10 1_555 1_555
V16 O11 1_555 1_555
V17 O13 1_555 1_555
V18 O22 1_555 1_555
V19 O1 1_555 1_555
V20 O3 1_555 1_555
V21 O34 1_555 1_555
V22 O1 1_555 1_555
V23 O30 1_555 1_555
V24 O20 1_555 1_555
V25 O7 1_555 1_555
V26 O17 1_555 1_555
O4 Mn2 1_555 1_555
O5 Mn2 1_555 1_555
O8 V5 1_555 1_555
O9 Mn1 1_555 1_555
O10 V6 1_555 1_555
O11 Mn1 1_555 1_555
O12 V15 1_555 1_555
O13 Mn1 1_555 1_555
O14 V2 1_555 1_555
O15 Pr3 1_555 1_555
O16 V1 1_555 1_555
O17 Mn2 1_555 1_555
O18 V12 1_555 1_555
O19 V2 1_555 1_555
O20 V13 1_555 1_555
O21 V3 1_555 1_555
O22 Mn2 1_555 1_555
O23 V8 1_555 1_555
O24 V11 1_555 1_555
O25 Pr2 1_555 1_555
O26 V1 1_555 1_555
O27 Mn2 1_555 1_555
O28 V16 1_555 1_555
O29 V3 1_555 1_555
O30 V11 1_555 1_555
O31 V10 1_555 1_555
O32 V1 1_555 1_555
O33 V5 1_555 1_555
O34 V23 1_555 1_555
O35 V20 1_555 1_555
O36 Pr2 1_555 1_555
O37 Mn1 1_555 1_555
O38 V10 1_555 1_555
O39 V4 1_555 1_555
O40 V19 1_555 1_555
O41 V15 1_555 1_555
O42 V10 1_555 1_555
O43 V3 1_555 1_555
O44 V23 1_555 1_555
O45 V14 1_555 1_555
O46 V1 1_555 1_555
O47 V9 1_555 1_555
O48 Pr3 1_555 1_555
O49 V20 1_555 1_555
O50 Pr2 1_555 1_555
O51 Mn1 1_555 1_555
O52 V9 1_555 1_555
O53 V6 1_555 1_555
O54 V17 1_555 1_555
O55 V17 1_555 1_555
O56 V20 1_555 1_555
O57 V25 1_555 1_555
O58 V21 1_555 1_555
O59 V4 1_555 1_555
O60 V3 1_555 1_555
O61 Pr3 1_555 1_555
O62 V26 1_555 1_555
O63 V24 1_555 1_555
O64 V22 1_555 1_555
O65 V14 1_555 1_555
O66 V19 1_555 1_555
O67 V22 1_555 1_555
O68 V4 1_555 1_555
O69 V18 1_555 1_555
O70 V18 1_555 1_555
O71 V5 1_555 1_555
O72 Pr2 1_555 1_555
O73 V7 1_555 1_555
O74 V8 1_555 1_555
O75 V18 1_555 1_555
O76 V14 1_555 1_555
O77 Pr3 1_555 1_555
O78 Pr1 1_555 1_555
O79 Pr1 1_555 1_555
O80 Pr2 1_555 1_555
O81 Pr2 1_555 1_555
O82 Pr2 1_555 1_555
O83 Pr1 1_555 1_555
O84 Pr1 1_555 1_555
O85 Pr2 1_555 1_555
N1 C1 1_555 1_555
O86 C5 1_555 1_555
O87 C2 1_555 1_555
O88 Pr3 1_555 1_555
O89 Pr3 1_555 1_555
C1 H1 1_555 1_555
O90 Pr3 1_555 1_555
O91 Pr3 1_555 1_555
C2 O61 1_555 1_555
C3 C1 1_555 1_555
H2 C3 1_555 1_555
C4 C2 1_555 1_555
C5 O83 1_555 1_555
C6 C5 1_555 1_555
C7 C4 1_555 1_555
H3 C7 1_555 1_555
N2 C11 1_555 1_555
C8 N1 1_555 1_555
H4 C8 1_555 1_555
C9 C6 1_555 1_555
H5 C9 1_555 1_555
C10 C6 1_555 1_555
H6 C10 1_555 1_555
C11 C9 1_555 1_555
H7 C11 1_555 1_555
C12 N2 1_555 1_555
H8 C12 1_555 1_555
C13 H9 1_555 1_555
C14 C13 1_555 1_555
O104 C16 1_555 1_555
N3 C15 1_555 1_555
C15 C13 1_555 1_555
H10 C15 1_555 1_555
C16 C14 1_555 1_555
C17 C14 1_555 1_555
H11 C17 1_555 1_555
C18 N3 1_555 1_555
H12 C18 1_555 1_555
O105 C16 1_555 1_555
Pr1_2 O59 1_555 1_555
O59_2 Pr1 1_555 1_555
O60_2 Pr1 1_555 1_555
O73_2 Pr1 1_555 1_555
O74_2 Pr1 1_555 1_555
V1 O9 1_555 1_555
V2 O9 1_555 1_555
V2 O13 1_555 1_555
V2 O32 1_555 1_555
V3 O17 1_555 1_555
V4 O5 1_555 1_555
V4 O27 1_555 1_555
V5 O22 1_555 1_555
V5 O72 1_555 1_555
V6 O11 1_555 1_555
V6 O14 1_555 1_555
V6 O50 1_555 1_555
V7 O4 1_555 1_555
V7 O5 1_555 1_555
V7 O43 1_555 1_555
V7 O77 1_555 1_555
V8 O5 1_555 1_555
V8 O21 1_555 1_555
V8 O68 1_555 1_555
V9 O10 1_555 1_555
V9 O26 1_555 1_555
V9 O37 1_555 1_555
V10 O13 1_555 1_555
V10 O32 1_555 1_555
V11 O11 1_555 1_555
V11 O25 1_555 1_555
V11 O51 1_555 1_555
V12 O17 1_555 1_555
V12 O33 1_555 1_555
V12 O43 1_555 1_555
V12 O48 1_555 1_555
V13 O4 1_555 1_555
V13 O15 1_555 1_555
V13 O27 1_555 1_555
V13 O71 1_555 1_555
V14 O22 1_555 1_555
V14 O33 1_555 1_555
V15 O11 1_555 1_555
V15 O30 1_555 1_555
V15 O37 1_555 1_555
V16 O13 1_555 1_555
V16 O14 1_555 1_555
V16 O24 1_555 1_555
V16 O36 1_555 1_555
V17 O24 1_555 1_555
V17 O31 1_555 1_555
V17 O51 1_555 1_555
V18 O27 1_555 1_555
V18 O71 1_555 1_555
V19 O27 1_555 1_555
V19 O68 1_555 1_555
V19 O75 1_555 1_555
V20 O26 1_555 1_555
V20 O37 1_555 1_555
V21 O37 1_555 1_555
V21 O41 1_555 1_555
V21 O49 1_555 1_555
V21 O52 1_555 1_555
V22 O17 1_555 1_555
V22 O21 1_555 1_555
V22 O76 1_555 1_555
V23 O35 1_555 1_555
V23 O37 1_555 1_555
V23 O51 1_555 1_555
V24 O27 1_555 1_555
V24 O39 1_555 1_555
V24 O40 1_555 1_555
V24 O69 1_555 1_555
V25 O13 1_555 1_555
V25 O28 1_555 1_555
V25 O42 1_555 1_555
V25 O54 1_555 1_555
V26 O18 1_555 1_555
V26 O29 1_555 1_555
V26 O45 1_555 1_555
V26 O64 1_555 1_555
O60 Pr1_2 1_555 1_555
O73 Pr1_2 1_555 1_555
O74 Pr1_2 1_555 1_555
C3 C4 1_555 1_555
C7 C8 1_555 1_555
C10 C12 1_555 1_555
C17 C18 1_555 1_555

#END
