
#######################################################################
#
#                 Cambridge Crystallographic Data Centre
#                                CCDC 
#
#######################################################################
#
# If this CIF has been generated from an entry in the Cambridge 
# Structural Database, then it will include bibliographic, chemical, 
# crystal, experimental, refinement or atomic coordinate data resulting 
# from the CCDC's data processing and validation procedures.
#
#######################################################################

data_NOTPUJ
_symmetry_cell_setting           monoclinic
_symmetry_space_group_name_H-M   'C 2/c'
_symmetry_Int_Tables_number      15
_space_group_name_Hall           '-C 2yn'
loop_
_symmetry_equiv_pos_site_id
_symmetry_equiv_pos_as_xyz
1 x,y,z
2 -x,y,1/2-z
3 1/2+x,1/2+y,z
4 1/2-x,1/2+y,1/2-z
5 -x,-y,-z
6 x,-y,1/2+z
7 1/2-x,1/2-y,-z
8 1/2+x,1/2-y,1/2+z
_cell_length_a                   20.6102(11)
_cell_length_b                   11.5999(6)
_cell_length_c                   23.8198(12)
_cell_angle_alpha                90
_cell_angle_beta                 90.978(3)
_cell_angle_gamma                90
_cell_volume                     5693.92
loop_
_atom_site_label
_atom_site_type_symbol
_atom_site_fract_x
_atom_site_fract_y
_atom_site_fract_z
Zn1 Zn 0.21034(3) 0.31846(5) 0.33588(2)
Cl1 Cl 0.22128(6) 0.14818(10) 0.37734(5)
Cl2 Cl 0.11474(5) 0.40199(9) 0.31768(4)
N1 N 0.25631(15) 0.4303(3) 0.38919(12)
N2 N 0.30964(14) 0.6695(3) 0.55824(12)
N3 N 0.25621(16) 0.6931(3) 0.76106(13)
O1 O 0.51269(13) 0.7684(2) 0.47499(12)
C1 C 0.28624(19) 0.5248(4) 0.37117(16)
H1 H 0.2903 0.5360 0.3319
C2 C 0.31139(19) 0.6067(4) 0.40705(16)
H2 H 0.3332 0.6722 0.3926
C3 C 0.30477(17) 0.5933(3) 0.46507(15)
C4 C 0.27333(19) 0.4948(4) 0.48354(15)
H3 H 0.2676 0.4821 0.5225
C5 C 0.2506(2) 0.4159(4) 0.44496(16)
H4 H 0.2300 0.3482 0.4582
C6 C 0.33119(17) 0.6781(3) 0.50573(15)
C7 C 0.37761(17) 0.7590(3) 0.49041(15)
H5 H 0.3924 0.7617 0.4529
C8 C 0.40203(17) 0.8352(3) 0.52990(15)
C9 C 0.37843(18) 0.8289(3) 0.58457(15)
H6 H 0.3930 0.8812 0.6127
C10 C 0.33310(17) 0.7441(3) 0.59667(14)
C11 C 0.2368(2) 0.6292(4) 0.71733(17)
H7 H 0.2051 0.5711 0.7232
C12 C 0.2607(2) 0.6437(4) 0.66388(17)
H8 H 0.2451 0.5970 0.6338
C13 C 0.30775(18) 0.7271(3) 0.65463(15)
C14 C 0.32802(19) 0.7932(4) 0.69991(16)
H9 H 0.3600 0.8513 0.6954
C15 C 0.30102(19) 0.7737(4) 0.75236(15)
H10 H 0.3152 0.8198 0.7832
C16 C 0.45259(18) 0.9201(3) 0.51474(15)
C17 C 0.50774(18) 0.8838(3) 0.48527(15)
C18 C 0.55408(18) 0.9648(3) 0.47071(15)
H11 H 0.5910 0.9410 0.4504
C19 C 0.5701(2) 0.7251(4) 0.4493(2)
H12 H 0.6089 0.7455 0.4724
H13 H 0.5749 0.7593 0.4115
C20 C 0.5639(2) 0.5961(4) 0.4448(2)
H14 H 0.6031 0.5653 0.4266
H15 H 0.5625 0.5633 0.4831
C21 C 0.5051(3) 0.5557(4) 0.4123(2)
H16 H 0.5029 0.5970 0.3759
H17 H 0.4658 0.5759 0.4334
C22 C 0.5050(3) 0.4260(4) 0.4011(3)
H18 H 0.5228 0.3857 0.4346
H19 H 0.5338 0.4095 0.3693
C23 C 0.4354(4) 0.3773(7) 0.3871(3)
H20 H 0.4068 0.3929 0.4192
H21 H 0.4174 0.4188 0.3541
C24 C 0.4347(8) 0.2487(11) 0.3749(7)
H22 H 0.3892 0.2218 0.3725
H23 H 0.4563 0.2075 0.4065
C25 C 0.4696(9) 0.2176(15) 0.3192(7)
H24 H 0.4484 0.2609 0.2881
H25 H 0.5151 0.2443 0.3222
C26 C 0.4696(8) 0.0933(14) 0.3044(8)
H26 H 0.4799 0.0475 0.3380
H27 H 0.5023 0.0789 0.2758
H28 H 0.4267 0.0714 0.2896
N1D N 0.74369(15) 1.5697(3) 0.61081(12)
N2D N 0.69036(14) 1.3305(3) 0.44176(12)
N3D N 0.74379(16) 1.3069(3) 0.23894(13)
O1D O 0.48731(13) 1.2316(2) 0.52501(12)
C1D C 0.71376(19) 1.4752(4) 0.62883(16)
H1D H 0.7097 1.4640 0.6681
C2D C 0.68861(19) 1.3933(4) 0.59295(16)
H2D H 0.6668 1.3278 0.6074
C3D C 0.69523(17) 1.4067(3) 0.53493(15)
C4D C 0.72667(19) 1.5052(4) 0.51646(15)
H3D H 0.7324 1.5179 0.4775
C5D C 0.7494(2) 1.5841(4) 0.55504(16)
H4D H 0.7700 1.6518 0.5418
C6D C 0.66881(17) 1.3219(3) 0.49427(15)
C7D C 0.62239(17) 1.2410(3) 0.50959(15)
H5D H 0.6076 1.2383 0.5471
C8D C 0.59797(17) 1.1648(3) 0.47010(15)
C9D C 0.62157(18) 1.1711(3) 0.41543(15)
H6D H 0.6070 1.1188 0.3873
C10D C 0.66690(17) 1.2559(3) 0.40333(14)
C11D C 0.7632(2) 1.3708(4) 0.28267(17)
H7D H 0.7949 1.4289 0.2768
C12D C 0.7393(2) 1.3563(4) 0.33612(17)
H8D H 0.7549 1.4030 0.3662
C13D C 0.69225(18) 1.2729(3) 0.34537(15)
C14D C 0.67198(19) 1.2068(4) 0.30009(16)
H9D H 0.6400 1.1487 0.3046
C15D C 0.69898(19) 1.2263(4) 0.24764(15)
H10D H 0.6848 1.1802 0.2168
C16D C 0.54741(18) 1.0799(3) 0.48526(15)
C17D C 0.49226(18) 1.1162(3) 0.51473(15)
C18D C 0.44592(18) 1.0352(3) 0.52929(15)
H11D H 0.4090 1.0590 0.5496
C19D C 0.4299(2) 1.2749(4) 0.5507(2)
H12D H 0.3911 1.2545 0.5276
H13D H 0.4251 1.2407 0.5885
C20D C 0.4361(2) 1.4039(4) 0.5552(2)
H14D H 0.3969 1.4347 0.5734
H15D H 0.4375 1.4367 0.5169
C21D C 0.4949(3) 1.4443(4) 0.5877(2)
H16D H 0.4971 1.4030 0.6241
H17D H 0.5342 1.4241 0.5666
C22D C 0.4950(3) 1.5740(4) 0.5989(3)
H18D H 0.4772 1.6143 0.5654
H19D H 0.4662 1.5905 0.6307
C23D C 0.5646(4) 1.6227(7) 0.6129(3)
H20D H 0.5932 1.6071 0.5808
H21D H 0.5826 1.5812 0.6459
C24D C 0.5653(8) 1.7513(11) 0.6251(7)
H22D H 0.6108 1.7782 0.6275
H23D H 0.5437 1.7925 0.5935
C25D C 0.5304(9) 1.7824(15) 0.6808(7)
H24D H 0.5516 1.7391 0.7119
H25D H 0.4849 1.7557 0.6778
C26D C 0.5304(8) 1.9067(14) 0.6956(8)
H26D H 0.5201 1.9525 0.6620
H27D H 0.4977 1.9211 0.7242
H28D H 0.5733 1.9286 0.7104
Zn1D Zn 0.78966(3) 1.68154(5) 0.66412(2)
Cl1D Cl 0.77872(6) 1.85182(10) 0.62266(5)
Cl2D Cl 0.88526(5) 1.59801(9) 0.68232(4)
Zn1A Zn 0.78966(3) 1.31846(5) 0.16412(2)
Zn1E Zn 0.21034(3) 0.68154(5) 0.83588(2)
N3A N 0.74379(16) 1.6931(3) 0.73894(13)
N3E N 0.25621(16) 0.3069(3) 0.26106(13)
O2 O 0.4672(11) 0.630(2) 0.2321(12)
O3 O 0.3473(5) 0.5752(10) 0.2462(3)
O4 O 0.4409(7) 0.7949(13) 0.3211(5)
H29? H 0.4878 0.3851 0.4341
H30? H 0.5500 0.3994 0.3954
C27? C 0.4628(10) 0.3964(15) 0.3485(9)
H31? H 0.4181 0.4246 0.3541
H32? H 0.4805 0.4369 0.3155
C28? C 0.4608(12) 0.2660(19) 0.3364(11)
H33? H 0.4425 0.2530 0.2982
H34? H 0.5055 0.2349 0.3375
C29? C 0.4210(14) 0.204(2) 0.3777(12)
H35? H 0.3763 0.2349 0.3768
H36? H 0.4395 0.2158 0.4159
C30? C 0.4191(11) 0.0658(17) 0.3637(9)
H37? H 0.4133 0.0546 0.3232
H38? H 0.3828 0.0301 0.3833
H39? H 0.4599 0.0301 0.3763
O5? O 0.3986(4) 0.5797(12) 0.2411(5)
O6? O 0.3916(10) 0.761(2) 0.3241(11)
loop_
_geom_bond_atom_site_label_1
_geom_bond_atom_site_label_2
_geom_bond_site_symmetry_1
_geom_bond_site_symmetry_2
Zn1 Cl1 1_555 1_555
Cl2 Zn1 1_555 1_555
N1 Zn1 1_555 1_555
N2 C6 1_555 1_555
N3 C11 1_555 1_555
O1 C17 1_555 1_555
C1 N1 1_555 1_555
H1 C1 1_555 1_555
C2 C1 1_555 1_555
H2 C2 1_555 1_555
C3 C2 1_555 1_555
C4 C3 1_555 1_555
H3 C4 1_555 1_555
C5 N1 1_555 1_555
H4 C5 1_555 1_555
C6 C3 1_555 1_555
C7 C6 1_555 1_555
H5 C7 1_555 1_555
C8 C7 1_555 1_555
C9 C8 1_555 1_555
H6 C9 1_555 1_555
C10 N2 1_555 1_555
C11 H7 1_555 1_555
C12 C11 1_555 1_555
H8 C12 1_555 1_555
C13 C10 1_555 1_555
C14 C13 1_555 1_555
H9 C14 1_555 1_555
C15 N3 1_555 1_555
H10 C15 1_555 1_555
C16 C8 1_555 1_555
C17 C16 1_555 1_555
C18 C17 1_555 1_555
H11 C18 1_555 1_555
C19 O1 1_555 1_555
H12 C19 1_555 1_555
H13 C19 1_555 1_555
C20 C19 1_555 1_555
H14 C20 1_555 1_555
H15 C20 1_555 1_555
C21 C20 1_555 1_555
H16 C21 1_555 1_555
H17 C21 1_555 1_555
C22 C21 1_555 1_555
H18 C22 1_555 1_555
H19 C22 1_555 1_555
C23 C22 1_555 1_555
H20 C23 1_555 1_555
H21 C23 1_555 1_555
C24 C23 1_555 1_555
H22 C24 1_555 1_555
H23 C24 1_555 1_555
C25 C24 1_555 1_555
H24 C25 1_555 1_555
H25 C25 1_555 1_555
C26 C25 1_555 1_555
H26 C26 1_555 1_555
H27 C26 1_555 1_555
H28 C26 1_555 1_555
N1D C1D 1_555 1_555
N2D C6D 1_555 1_555
N3D C11D 1_555 1_555
O1D C17D 1_555 1_555
C1D H1D 1_555 1_555
C2D C1D 1_555 1_555
H2D C2D 1_555 1_555
C3D C2D 1_555 1_555
C4D C3D 1_555 1_555
H3D C4D 1_555 1_555
C5D N1D 1_555 1_555
H4D C5D 1_555 1_555
C6D C3D 1_555 1_555
C7D C6D 1_555 1_555
H5D C7D 1_555 1_555
C8D C7D 1_555 1_555
C9D C8D 1_555 1_555
H6D C9D 1_555 1_555
C10D N2D 1_555 1_555
C11D H7D 1_555 1_555
C12D C11D 1_555 1_555
H8D C12D 1_555 1_555
C13D C10D 1_555 1_555
C14D C13D 1_555 1_555
H9D C14D 1_555 1_555
C15D N3D 1_555 1_555
H10D C15D 1_555 1_555
C16D C18 1_555 1_555
C17D C16D 1_555 1_555
C18D C16 1_555 1_555
H11D C18D 1_555 1_555
C19D O1D 1_555 1_555
H12D C19D 1_555 1_555
H13D C19D 1_555 1_555
C20D C19D 1_555 1_555
H14D C20D 1_555 1_555
H15D C20D 1_555 1_555
C21D C20D 1_555 1_555
H16D C21D 1_555 1_555
H17D C21D 1_555 1_555
C22D C21D 1_555 1_555
H18D C22D 1_555 1_555
H19D C22D 1_555 1_555
C23D C22D 1_555 1_555
H20D C23D 1_555 1_555
H21D C23D 1_555 1_555
C24D C23D 1_555 1_555
H22D C24D 1_555 1_555
H23D C24D 1_555 1_555
C25D C24D 1_555 1_555
H24D C25D 1_555 1_555
H25D C25D 1_555 1_555
C26D C25D 1_555 1_555
H26D C26D 1_555 1_555
H27D C26D 1_555 1_555
H28D C26D 1_555 1_555
Zn1D N1D 1_555 1_555
Cl1D Zn1D 1_555 1_555
Cl2D Zn1D 1_555 1_555
Zn1A N3D 1_555 1_555
Zn1E N3 1_555 1_555
N3A Zn1D 1_555 1_555
N3E Zn1 1_555 1_555
C4 C5 1_555 1_555
C9 C10 1_555 1_555
C12 C13 1_555 1_555
C14 C15 1_555 1_555
C4D C5D 1_555 1_555
C8D C16D 1_555 1_555
C9D C10D 1_555 1_555
C12D C13D 1_555 1_555
C14D C15D 1_555 1_555
C17D C18D 1_555 1_555

#END
