
#######################################################################
#
#                 Cambridge Crystallographic Data Centre
#                                CCDC 
#
#######################################################################
#
# If this CIF has been generated from an entry in the Cambridge 
# Structural Database, then it will include bibliographic, chemical, 
# crystal, experimental, refinement or atomic coordinate data resulting 
# from the CCDC's data processing and validation procedures.
#
#######################################################################

data_NOTQES
_symmetry_cell_setting           triclinic
_symmetry_space_group_name_H-M   'P -1'
_symmetry_Int_Tables_number      2
_space_group_name_Hall           '-P 1'
loop_
_symmetry_equiv_pos_site_id
_symmetry_equiv_pos_as_xyz
1 x,y,z
2 -x,-y,-z
_cell_length_a                   12.838(4)
_cell_length_b                   13.421(5)
_cell_length_c                   14.889(6)
_cell_angle_alpha                65.80(3)
_cell_angle_beta                 89.32(3)
_cell_angle_gamma                88.09(3)
_cell_volume                     2338.61
loop_
_atom_site_label
_atom_site_type_symbol
_atom_site_fract_x
_atom_site_fract_y
_atom_site_fract_z
Cu1 Cu -0.06512(8) -0.43873(7) 0.24334(8)
Cu2 Cu -0.04716(9) -0.92028(8) 0.19809(9)
B1 B -0.0157(7) -0.7481(6) 0.1429(6)
H1 H -0.0169 -0.7988 0.1044
B2 B -0.0450(7) -0.6185(6) 0.3176(6)
H2 H -0.0421 -0.5837 0.3640
B3 B -0.0690(6) -0.5691(6) 0.1954(7)
H3 H -0.0828 -0.4924 0.1463
B4 B 0.0611(7) -0.6275(6) 0.2492(6)
H4 H 0.1251 -0.5900 0.2606
B5 B -0.0026(6) -0.7480(6) 0.3368(7)
H5 H 0.0129 -0.7944 0.4085
B6 B -0.1326(7) -0.6879(6) 0.2823(6)
H6 H -0.2193 -0.6839 0.3057
B7 B 0.0210(6) -0.6264(6) 0.1334(7)
H7 H 0.0562 -0.5658 0.0729
B8 B 0.0650(7) -0.7532(6) 0.2339(7)
H8 H 0.1413 -0.7973 0.2400
B9 B -0.0702(7) -0.7956(7) 0.2573(7)
H9 H -0.1020 -0.8846 0.2911
B10 B -0.1179(7) -0.6714(6) 0.1568(6)
H10 H -0.1843 -0.6514 0.1003
B11 B -0.1177(7) -0.3065(7) 0.2819(7)
H11 H -0.1490 -0.3846 0.3112
B12 B 0.0517(7) -0.0681(7) 0.2101(8)
H12 H 0.0950 0.0024 0.1925
B13 B -0.0807(7) -0.0761(6) 0.1991(7)
H13 H -0.1187 -0.0021 0.1691
B14 B 0.0138(6) -0.1387(6) 0.1450(7)
H14 H 0.0304 -0.1228 0.0709
B15 B 0.0839(7) -0.2034(6) 0.2636(6)
H15 H 0.1641 -0.2353 0.2834
B16 B -0.0094(7) -0.1389(7) 0.3182(7)
H16 H -0.0017 -0.1233 0.3780
B17 B -0.1154(7) -0.1914(6) 0.1781(7)
H17 H -0.1708 -0.1815 0.1188
B18 B 0.0002(7) -0.2816(7) 0.2234(7)
H18 H 0.0376 -0.3341 0.1909
B19 B -0.0175(7) -0.2817(7) 0.3446(7)
H19 H 0.0075 -0.3324 0.4142
B20 B -0.1323(6) -0.1912(6) 0.2999(6)
H20 H -0.1839 -0.1844 0.3589
B13_2 B -0.0807(7) -1.0761(6) 0.1991(7)
Cu2_2 Cu -0.04716(9) 0.07972(8) 0.19809(9)
B12_2 B 0.0517(7) -1.0681(7) 0.2101(8)
H12_2 H 0.0950 -0.9976 0.1925
H13_2 H -0.1187 -1.0021 0.1691
Cu3 Cu -0.47379(9) -0.71255(7) 0.30407(8)
Cu4 Cu -0.43777(8) -0.19050(7) 0.25440(8)
B21 B -0.4654(7) -0.3023(6) 0.1818(6)
H21 H -0.4517 -0.2158 0.1350
B22 B -0.5056(7) -0.5851(7) 0.3574(6)
H22 H -0.5235 -0.6668 0.4132
B23 B -0.4540(7) -0.5353(7) 0.2436(7)
H23 H -0.4198 -0.5766 0.1993
B24 B -0.5862(7) -0.4994(7) 0.2670(6)
H24 H -0.6746 -0.5105 0.2547
B25 B -0.5372(6) -0.4681(6) 0.3678(6)
H25 H -0.5734 -0.4637 0.4334
B26 B -0.4028(6) -0.5081(6) 0.3448(6)
H26 H -0.3271 -0.5357 0.3938
B27 B -0.5123(6) -0.4059(6) 0.1611(6)
H27 H -0.5544 -0.3863 0.0854
B28 B -0.5726(7) -0.3602(7) 0.2503(6)
H28 H -0.6380 -0.2994 0.2396
B29 B -0.4423(6) -0.3651(6) 0.3052(6)
H29 H -0.4241 -0.3253 0.3483
B30 B -0.3840(7) -0.4141(7) 0.2158(7)
H30 H -0.2981 -0.4050 0.1895
B31 B -0.5709(7) -0.8435(7) 0.2872(7)
H31 H -0.6149 -0.7739 0.3029
B32 B -0.3960(7) -1.0254(7) 0.2201(7)
H32 H -0.3519 -1.0746 0.1972
B33 B -0.5146(6) -1.0475(6) 0.2763(6)
H33 H -0.5652 -1.1246 0.2915
B34 B -0.4023(6) -1.0086(6) 0.3283(7)
H34 H -0.3536 -1.0449 0.3877
B35 B -0.3792(7) -0.8958(6) 0.2057(6)
H35 H -0.3095 -0.8569 0.1682
B36 B -0.4916(6) -0.9369(6) 0.1538(7)
H36 H -0.5026 -0.9247 0.0826
B37 B -0.5344(6) -0.9769(6) 0.3537(6)
H37 H -0.5633 -1.0147 0.4306
B38 B -0.4405(6) -0.8699(6) 0.3058(6)
H38 H -0.3797 -0.8215 0.3315
B39 B -0.5023(6) -0.8196(6) 0.1813(7)
H39 H -0.5060 -0.7390 0.1120
B40 B -0.5963(6) -0.9259(6) 0.2323(6)
H40 H -0.6705 -0.9286 0.2086
B33_2 B -0.5146(6) -0.0475(6) 0.2763(6)
Cu4_2 Cu -0.43777(8) -1.19050(7) 0.25440(8)
B32_2 B -0.3960(7) -0.0254(7) 0.2201(7)
H32_2 H -0.3519 -0.0746 0.1972
H33_2 H -0.5652 -0.1246 0.2915
N1 N -0.7308(5) -0.6783(6) 0.0873(5)
H41 H -0.7844 -0.6734 0.1272
H42 H -0.6767 -0.7212 0.1301
C1 C -0.6892(7) -0.5703(6) 0.0348(6)
H49 H -0.6343 -0.5761 0.0115
H50 H -0.6873 -0.5296 0.0748
H51 H -0.7390 -0.5263 -0.0208
C2 C -0.7556(7) -0.7343(7) 0.0228(6)
H52 H -0.7771 -0.8046 0.0552
H53 H -0.8067 -0.6891 -0.0267
H54 H -0.6916 -0.7350 -0.0173
N2 N -0.2409(8) -0.3826(7) 0.5078(7)
H43 H -0.3154 -0.3985 0.5211
H44 H -0.2424 -0.3603 0.4392
C3 C -0.1854(6) -0.4821(7) 0.5558(7)
H55 H -0.1918 -0.5108 0.6207
H56 H -0.1127 -0.4699 0.5364
H57 H -0.2059 -0.5386 0.5315
C4 C -0.2369(8) -0.2959(7) 0.5418(6)
H58 H -0.1681 -0.2936 0.5654
H59 H -0.2830 -0.3161 0.5973
H60 H -0.2537 -0.2346 0.5033
N3 N -0.6780(6) -0.1758(6) 0.0332(5)
H45 H -0.6561 -0.1536 -0.0312
H46 H -0.6193 -0.2130 0.0692
C5 C -0.7611(6) -0.2489(7) 0.0459(7)
H61 H -0.7361 -0.3137 0.0350
H62 H -0.7788 -0.2816 0.1189
H63 H -0.8186 -0.2174 0.0105
C6 C -0.7040(7) -0.0758(7) 0.0490(7)
H64 H -0.7497 -0.0321 0.0043
H65 H -0.6388 -0.0387 0.0509
H66 H -0.7307 -0.1000 0.1179
N4 N -0.2246(7) 0.0985(10) 0.5945(7)
H47 H -0.1744 0.1027 0.6370
H48 H -0.2779 0.0642 0.6337
C7 C -0.1865(8) 0.0403(10) 0.5343(8)
H67 H -0.2294 0.0513 0.4845
H68 H -0.1815 -0.0406 0.5810
H69 H -0.1142 0.0579 0.5166
C8 C -0.2569(10) 0.2081(9) 0.5355(8)
H70 H -0.3077 0.2095 0.4882
H71 H -0.1971 0.2461 0.5004
H72 H -0.2887 0.2480 0.5791
loop_
_geom_bond_atom_site_label_1
_geom_bond_atom_site_label_2
_geom_bond_site_symmetry_1
_geom_bond_site_symmetry_2
Cu1 B2 1_555 1_555
Cu2 B1 1_555 1_555
Cu3 B22 1_555 1_555
Cu4 B21 1_555 1_555
B1 H1 1_555 1_555
H1 Cu2 1_555 1_555
B2 H2 1_555 1_555
H2 Cu1 1_555 1_555
B3 Cu1 1_555 1_555
H3 Cu1 1_555 1_555
B4 B2 1_555 1_555
H4 B4 1_555 1_555
B5 B2 1_555 1_555
H5 B5 1_555 1_555
B6 B2 1_555 1_555
H6 B6 1_555 1_555
B7 B1 1_555 1_555
H7 B7 1_555 1_555
B8 B1 1_555 1_555
H8 B8 1_555 1_555
B9 Cu2 1_555 1_555
H9 Cu2 1_555 1_555
B10 B1 1_555 1_555
H10 B10 1_555 1_555
B11 Cu1 1_555 1_555
H11 Cu1 1_555 1_555
B12 H12 1_555 1_555
H12 Cu2_2 1_555 1_555
B13 B12 1_555 1_555
H13 B13 1_555 1_555
B14 B12 1_555 1_555
H14 B14 1_555 1_555
B15 B12 1_555 1_555
H15 B15 1_555 1_555
B16 B12 1_555 1_555
H16 B16 1_555 1_555
B17 B11 1_555 1_555
H17 B17 1_555 1_555
B18 Cu1 1_555 1_555
H18 Cu1 1_555 1_555
B19 B11 1_555 1_555
H19 B19 1_555 1_555
B20 B11 1_555 1_555
H20 B20 1_555 1_555
B21 H21 1_555 1_555
H21 Cu4 1_555 1_555
B22 H22 1_555 1_555
H22 Cu3 1_555 1_555
B23 Cu3 1_555 1_555
H23 Cu3 1_555 1_555
B24 B22 1_555 1_555
H24 B24 1_555 1_555
B25 B22 1_555 1_555
H25 B25 1_555 1_555
B26 B22 1_555 1_555
H26 B26 1_555 1_555
B27 B21 1_555 1_555
H27 B27 1_555 1_555
B28 B21 1_555 1_555
H28 B28 1_555 1_555
B29 Cu4 1_555 1_555
H29 Cu4 1_555 1_555
B30 B21 1_555 1_555
H30 B30 1_555 1_555
B31 Cu3 1_555 1_555
H31 Cu3 1_555 1_555
B32 H32 1_555 1_555
H32 Cu4_2 1_555 1_555
B33 B32 1_555 1_555
H33 B33 1_555 1_555
B34 B32 1_555 1_555
H34 B34 1_555 1_555
B35 B32 1_555 1_555
H35 B35 1_555 1_555
B36 B32 1_555 1_555
H36 B36 1_555 1_555
B37 B31 1_555 1_555
H37 B37 1_555 1_555
B38 Cu3 1_555 1_555
H38 Cu3 1_555 1_555
B39 B31 1_555 1_555
H39 B39 1_555 1_555
B40 B31 1_555 1_555
H40 B40 1_555 1_555
N1 H41 1_555 1_555
H42 N1 1_555 1_555
N2 H43 1_555 1_555
H44 N2 1_555 1_555
N3 H45 1_555 1_555
H46 N3 1_555 1_555
N4 H47 1_555 1_555
H48 N4 1_555 1_555
C1 N1 1_555 1_555
H49 C1 1_555 1_555
H50 C1 1_555 1_555
H51 C1 1_555 1_555
C2 N1 1_555 1_555
H52 C2 1_555 1_555
H53 C2 1_555 1_555
H54 C2 1_555 1_555
C3 N2 1_555 1_555
H55 C3 1_555 1_555
H56 C3 1_555 1_555
H57 C3 1_555 1_555
C4 N2 1_555 1_555
H58 C4 1_555 1_555
H59 C4 1_555 1_555
H60 C4 1_555 1_555
C5 N3 1_555 1_555
H61 C5 1_555 1_555
H62 C5 1_555 1_555
H63 C5 1_555 1_555
C6 N3 1_555 1_555
H64 C6 1_555 1_555
H65 C6 1_555 1_555
H66 C6 1_555 1_555
C7 N4 1_555 1_555
H67 C7 1_555 1_555
H68 C7 1_555 1_555
H69 C7 1_555 1_555
C8 N4 1_555 1_555
H70 C8 1_555 1_555
H71 C8 1_555 1_555
H72 C8 1_555 1_555
B13_2 Cu2 1_555 1_555
Cu2_2 B12 1_555 1_555
B12_2 Cu2 1_555 1_555
H12_2 Cu2 1_555 1_555
H13_2 Cu2 1_555 1_555
B33_2 Cu4 1_555 1_555
Cu4_2 B32 1_555 1_555
B32_2 Cu4 1_555 1_555
H32_2 Cu4 1_555 1_555
H33_2 Cu4 1_555 1_555
B1 B9 1_555 1_555
B2 B3 1_555 1_555
B3 H3 1_555 1_555
B3 B6 1_555 1_555
B3 B7 1_555 1_555
B3 B10 1_555 1_555
B3 B4 1_555 1_555
B4 B5 1_555 1_555
B4 B8 1_555 1_555
B4 B7 1_555 1_555
B5 B6 1_555 1_555
B5 B8 1_555 1_555
B5 B9 1_555 1_555
B6 B9 1_555 1_555
B6 B10 1_555 1_555
B7 B8 1_555 1_555
B7 B10 1_555 1_555
B8 B9 1_555 1_555
B9 H9 1_555 1_555
B9 B10 1_555 1_555
B11 H11 1_555 1_555
B11 B18 1_555 1_555
B13 B17 1_555 1_555
B13 B16 1_555 1_555
B13 Cu2_2 1_555 1_555
B13 B14 1_555 1_555
B13 B20 1_555 1_555
H13 Cu2_2 1_555 1_555
B14 B15 1_555 1_555
B14 B17 1_555 1_555
B14 B18 1_555 1_555
B15 B18 1_555 1_555
B15 B16 1_555 1_555
B15 B19 1_555 1_555
B16 B19 1_555 1_555
B16 B20 1_555 1_555
B17 B18 1_555 1_555
B17 B20 1_555 1_555
B18 H18 1_555 1_555
B18 B19 1_555 1_555
B19 B20 1_555 1_555
B21 B29 1_555 1_555
B22 B23 1_555 1_555
B23 H23 1_555 1_555
B23 B26 1_555 1_555
B23 B27 1_555 1_555
B23 B30 1_555 1_555
B23 B24 1_555 1_555
B24 B25 1_555 1_555
B24 B28 1_555 1_555
B24 B27 1_555 1_555
B25 B26 1_555 1_555
B25 B28 1_555 1_555
B25 B29 1_555 1_555
B26 B29 1_555 1_555
B26 B30 1_555 1_555
B27 B28 1_555 1_555
B27 B30 1_555 1_555
B28 B29 1_555 1_555
B29 H29 1_555 1_555
B29 B30 1_555 1_555
B31 H31 1_555 1_555
B31 B38 1_555 1_555
B33 B37 1_555 1_555
B33 B36 1_555 1_555
B33 Cu4_2 1_555 1_555
B33 B34 1_555 1_555
B33 B40 1_555 1_555
H33 Cu4_2 1_555 1_555
B34 B35 1_555 1_555
B34 B37 1_555 1_555
B34 B38 1_555 1_555
B35 B38 1_555 1_555
B35 B36 1_555 1_555
B35 B39 1_555 1_555
B36 B39 1_555 1_555
B36 B40 1_555 1_555
B37 B38 1_555 1_555
B37 B40 1_555 1_555
B38 H38 1_555 1_555
B38 B39 1_555 1_555
B39 B40 1_555 1_555
B13_2 B12_2 1_555 1_555
B13_2 H13_2 1_555 1_555
B12_2 H12_2 1_555 1_555
B33_2 B32_2 1_555 1_555
B33_2 H33_2 1_555 1_555
B32_2 H32_2 1_555 1_555

#END
