
#######################################################################
#
#                 Cambridge Crystallographic Data Centre
#                                CCDC 
#
#######################################################################
#
# If this CIF has been generated from an entry in the Cambridge 
# Structural Database, then it will include bibliographic, chemical, 
# crystal, experimental, refinement or atomic coordinate data resulting 
# from the CCDC's data processing and validation procedures.
#
#######################################################################

data_NOTRUL
_symmetry_cell_setting           monoclinic
_symmetry_space_group_name_H-M   'P 21/n'
_symmetry_Int_Tables_number      14
_space_group_name_Hall           '-P 2yn'
loop_
_symmetry_equiv_pos_site_id
_symmetry_equiv_pos_as_xyz
1 x,y,z
2 1/2-x,1/2+y,1/2-z
3 -x,-y,-z
4 1/2+x,1/2-y,1/2+z
_cell_length_a                   12.238(2)
_cell_length_b                   17.073(3)
_cell_length_c                   12.782(3)
_cell_angle_alpha                90
_cell_angle_beta                 90.95(3)
_cell_angle_gamma                90
_cell_volume                     2670.3
loop_
_atom_site_label
_atom_site_type_symbol
_atom_site_fract_x
_atom_site_fract_y
_atom_site_fract_z
Cd1 Cd 0.801258(14) 0.244510(10) 0.718461(13)
N1 N 0.7375(2) -0.12747(14) 0.8432(2)
N2 N 0.9440(2) 0.22471(17) 0.6039(2)
N3 N 0.6839(2) 0.19920(17) 0.5834(2)
N4 N 0.8299(2) 0.11808(15) 0.7835(2)
N5 N 0.4245(2) 0.20165(17) 0.3402(2)
N6 N 0.8417(3) -0.00781(15) 0.8725(3)
N7 N 0.5542(3) 0.1402(2) 0.4603(3)
N8 N 1.1570(2) 0.24091(16) 0.3281(2)
N9 N 1.0041(2) 0.19281(19) 0.4285(2)
C1 C 0.6221(3) 0.17521(18) 0.5242(2)
C2 C 0.8310(2) 0.05794(16) 0.8215(2)
C3 C 0.4871(3) 0.17682(18) 0.3980(2)
C4 C 0.9770(2) 0.21247(17) 0.5223(2)
C5 C 0.7844(2) -0.06960(16) 0.8517(2)
C6 C 1.0870(3) 0.22083(19) 0.3804(2)
Cd1A Cd 0.698742(14) -0.255490(10) 0.781539(13)
Cd1C Cd 0.301258(14) 0.255490(10) 0.218461(13)
Cd1C_2 Cd 1.301258(14) 0.255490(10) 0.218461(13)
N1A N 0.7625(2) 0.37253(14) 0.6568(2)
N5C N 0.9245(2) 0.29835(17) 0.8402(2)
N8C N 0.6570(2) 0.25909(16) 0.8281(2)
P1 P 0.25602(6) 0.15254(4) 0.72354(5)
C7 C 0.1466(3) 0.1737(2) 0.8110(3)
H1 H 0.1697 0.2164 0.8563
H2 H 0.0847 0.1923 0.7696
C8 C 0.3678(2) 0.10658(17) 0.7919(2)
C9 C 0.3029(3) 0.24403(16) 0.6729(2)
C10 C 0.3938(2) 0.12893(18) 0.8931(3)
H3 H 0.3495 0.1641 0.9283
C11 C 0.2155(3) 0.08902(17) 0.6192(2)
C12 C 0.4132(3) 0.25896(19) 0.6661(3)
H4 H 0.4635 0.2213 0.6881
C13 C 0.4495(3) 0.3294(2) 0.6270(3)
H5 H 0.5241 0.3391 0.6234
C14 C 0.1078(3) 0.1074(3) 0.8793(3)
H6 H 0.0765 0.0669 0.8361
H7 H 0.0536 0.1266 0.9264
H8 H 0.1685 0.0866 0.9188
C15 C 0.3777(3) 0.3846(2) 0.5937(3)
H9 H 0.4028 0.4314 0.5658
C16 C 0.4327(3) 0.0531(3) 0.7409(3)
H10 H 0.4147 0.0370 0.6732
C17 C 0.5508(3) 0.0464(3) 0.8906(3)
H11 H 0.6129 0.0263 0.9238
C18 C 0.2453(3) 0.1034(2) 0.5191(3)
H12 H 0.2800 0.1502 0.5030
C19 C 0.4865(3) 0.0986(2) 0.9420(3)
H13 H 0.5049 0.1138 1.0099
C20 C 0.2281(3) 0.3015(2) 0.6420(4)
H14 H 0.1534 0.2934 0.6483
C21 C 0.5252(4) 0.0234(3) 0.7916(4)
H15 H 0.5696 -0.0124 0.7575
C22 C 0.2245(4) 0.0491(3) 0.4412(3)
H16 H 0.2475 0.0591 0.3734
C23 C 0.1716(6) -0.0178(3) 0.4621(4)
H17 H 0.1527 -0.0527 0.4089
C24 C 0.2681(4) 0.3713(2) 0.6014(4)
H18 H 0.2191 0.4096 0.5791
C25 C 0.1668(7) 0.0204(3) 0.6407(4)
H19 H 0.1468 0.0091 0.7089
C26 C 0.1464(7) -0.0331(4) 0.5623(5)
H20 H 0.1146 -0.0809 0.5789
loop_
_geom_bond_atom_site_label_1
_geom_bond_atom_site_label_2
_geom_bond_site_symmetry_1
_geom_bond_site_symmetry_2
Cd1 N2 1_555 1_555
N1 C5 1_555 1_555
N2 C4 1_555 1_555
N3 Cd1 1_555 1_555
N4 Cd1 1_555 1_555
N5 C3 1_555 1_555
N6 C2 1_555 1_555
N7 C1 1_555 1_555
N8 C6 1_555 1_555
N9 C4 1_555 1_555
C1 N3 1_555 1_555
C2 N4 1_555 1_555
C3 N7 1_555 1_555
C5 N6 1_555 1_555
C6 N9 1_555 1_555
P1 C7 1_555 1_555
C7 H1 1_555 1_555
H2 C7 1_555 1_555
C8 P1 1_555 1_555
C9 P1 1_555 1_555
C10 C8 1_555 1_555
H3 C10 1_555 1_555
C11 P1 1_555 1_555
C12 C9 1_555 1_555
H4 C12 1_555 1_555
C13 C12 1_555 1_555
H5 C13 1_555 1_555
C14 C7 1_555 1_555
H6 C14 1_555 1_555
H7 C14 1_555 1_555
H8 C14 1_555 1_555
C15 C13 1_555 1_555
H9 C15 1_555 1_555
C16 C8 1_555 1_555
H10 C16 1_555 1_555
C17 H11 1_555 1_555
C18 C11 1_555 1_555
H12 C18 1_555 1_555
C19 C10 1_555 1_555
H13 C19 1_555 1_555
C20 C9 1_555 1_555
H14 C20 1_555 1_555
C21 C16 1_555 1_555
H15 C21 1_555 1_555
C22 C18 1_555 1_555
H16 C22 1_555 1_555
C23 C22 1_555 1_555
H17 C23 1_555 1_555
C24 C15 1_555 1_555
H18 C24 1_555 1_555
C25 C11 1_555 1_555
H19 C25 1_555 1_555
C26 C23 1_555 1_555
H20 C26 1_555 1_555
Cd1A N1 1_555 1_555
Cd1C N5 1_555 1_555
Cd1C_2 N8 1_555 1_555
N1A Cd1 1_555 1_555
N5C Cd1 1_555 1_555
N8C Cd1 1_555 1_555
C17 C19 1_555 1_555
C17 C21 1_555 1_555
C20 C24 1_555 1_555
C25 C26 1_555 1_555

#END
