
#######################################################################
#
#                 Cambridge Crystallographic Data Centre
#                                CCDC 
#
#######################################################################
#
# If this CIF has been generated from an entry in the Cambridge 
# Structural Database, then it will include bibliographic, chemical, 
# crystal, experimental, refinement or atomic coordinate data resulting 
# from the CCDC's data processing and validation procedures.
#
#######################################################################

data_NOTSUM
_symmetry_cell_setting           orthorhombic
_symmetry_space_group_name_H-M   'P b c a'
_symmetry_Int_Tables_number      61
_space_group_name_Hall           '-P 2ac 2ab'
loop_
_symmetry_equiv_pos_site_id
_symmetry_equiv_pos_as_xyz
1 x,y,z
2 1/2-x,-y,1/2+z
3 1/2+x,1/2-y,-z
4 -x,1/2+y,1/2-z
5 -x,-y,-z
6 1/2+x,y,1/2-z
7 1/2-x,1/2+y,z
8 x,1/2-y,1/2+z
_cell_length_a                   10.149(2)
_cell_length_b                   22.159(5)
_cell_length_c                   25.291(6)
_cell_angle_alpha                90
_cell_angle_beta                 90
_cell_angle_gamma                90
_cell_volume                     5687.74
loop_
_atom_site_label
_atom_site_type_symbol
_atom_site_fract_x
_atom_site_fract_y
_atom_site_fract_z
Co1 Co 0.29111(9) 0.46123(4) 0.23200(4)
N1 N 0.2472(6) 0.5102(3) 0.1596(2)
N2 N 0.1589(5) 0.5752(3) -0.1923(2)
N3 N 0.3965(9) 0.3209(5) 0.0476(3)
N4 N 0.3715(11) 0.0636(4) 0.3951(4)
O1 O 0.3970(4) 0.3910(2) 0.19429(19)
O2 O 0.2441(5) 0.3467(2) 0.1421(2)
O3 O 0.3914(8) 0.3727(4) 0.0461(3)
O4 O 0.3437(8) 0.2884(4) 0.0161(3)
O5 O 0.5188(5) 0.0011(2) 0.26198(18)
O6 O 0.3106(5) 0.0292(2) 0.27635(17)
O7 O 0.3878(6) 0.0077(4) 0.3899(2)
O8 O 0.2880(8) 0.0811(4) 0.4261(3)
O9 O 0.1376(4) 0.39868(19) 0.22994(17)
H1 H 0.0673 0.4159 0.2352
H2 H 0.1302 0.3750 0.2045
S1 S 0.7459(2) 0.20038(11) 0.20611(10)
S2 S 0.7108(2) 0.23276(10) 0.27854(10)
C1 C 0.3572(9) 0.3528(4) 0.1601(3)
C2 C 0.4601(7) 0.3095(3) 0.1420(3)
C3 C 0.4711(9) 0.2928(4) 0.0894(3)
C4 C 0.5616(9) 0.2463(5) 0.0746(4)
H3 H 0.5671 0.2351 0.0393
C5 C 0.6416(9) 0.2172(4) 0.1112(4)
H4 H 0.6994 0.1868 0.1011
C6 C 0.6316(7) 0.2356(4) 0.1632(4)
C7 C 0.5405(8) 0.2831(3) 0.1784(3)
H5 H 0.5371 0.2957 0.2135
C8 C 0.6046(7) 0.1795(3) 0.3105(3)
C9 C 0.5580(7) 0.1289(4) 0.2865(3)
H6 H 0.5776 0.1220 0.2511
C10 C 0.4835(7) 0.0883(3) 0.3131(3)
C11 C 0.4534(8) 0.1028(4) 0.3641(4)
C12 C 0.4924(8) 0.1538(4) 0.3910(3)
H7 H 0.4676 0.1618 0.4257
C13 C 0.5695(8) 0.1908(4) 0.3625(4)
H8 H 0.6008 0.2258 0.3785
C14 C 0.4336(8) 0.0354(4) 0.2832(3)
C15 C 0.2921(8) 0.4894(4) 0.1124(3)
H9 H 0.3377 0.4531 0.1105
C16 C 0.2685(8) 0.5241(5) 0.0657(3)
H10 H 0.3032 0.5106 0.0338
C17 C 0.1960(8) 0.5768(4) 0.0662(3)
C18 C 0.1539(8) 0.5961(4) 0.1146(3)
H11 H 0.1070 0.6320 0.1172
C19 C 0.1794(8) 0.5639(4) 0.1590(3)
H12 H 0.1490 0.5791 0.1910
C20 C 0.1690(8) 0.6095(3) 0.0159(3)
H13 H 0.2205 0.5918 -0.0124
H14 H 0.1949 0.6514 0.0196
C21 C 0.0238(7) 0.6060(3) 0.0022(3)
H15 H -0.0273 0.6217 0.0315
H16 H -0.0006 0.5640 -0.0027
C22 C -0.0108(8) 0.6413(4) -0.0478(3)
H17 H -0.1055 0.6397 -0.0529
H18 H 0.0134 0.6832 -0.0426
C23 C 0.0549(7) 0.6186(4) -0.0964(3)
C24 C 0.1094(7) 0.6543(4) -0.1335(3)
H19 H 0.1136 0.6956 -0.1271
C25 C 0.1591(7) 0.6327(3) -0.1806(3)
H20 H 0.1940 0.6599 -0.2049
C26 C 0.1079(7) 0.5403(4) -0.1553(3)
H21 H 0.1072 0.4990 -0.1617
C27 C 0.0548(7) 0.5603(4) -0.1075(3)
H22 H 0.0196 0.5327 -0.0836
Co1A Co 0.20889(9) 0.53877(4) -0.26800(4)
Co1C Co 0.70889(9) -0.03877(4) 0.26800(4)
Co1F Co 0.20889(9) -0.03877(4) 0.23200(4)
N2A N 0.3411(5) 0.4248(3) 0.3077(2)
O5C O 0.4812(5) 0.5011(2) 0.23802(18)
O6F O 0.1894(5) 0.5292(2) 0.27635(17)
loop_
_geom_bond_atom_site_label_1
_geom_bond_atom_site_label_2
_geom_bond_site_symmetry_1
_geom_bond_site_symmetry_2
Co1 N1 1_555 1_555
N1 C15 1_555 1_555
N2 C25 1_555 1_555
N3 O3 1_555 1_555
N4 O7 1_555 1_555
O1 Co1 1_555 1_555
O2 C1 1_555 1_555
O4 N3 1_555 1_555
O5 C14 1_555 1_555
O6 C14 1_555 1_555
O8 N4 1_555 1_555
O9 Co1 1_555 1_555
H1 O9 1_555 1_555
H2 O9 1_555 1_555
S1 S2 1_555 1_555
S2 C8 1_555 1_555
C1 O1 1_555 1_555
C2 C1 1_555 1_555
C3 N3 1_555 1_555
C4 C3 1_555 1_555
H3 C4 1_555 1_555
C5 C4 1_555 1_555
H4 C5 1_555 1_555
C6 S1 1_555 1_555
C7 C2 1_555 1_555
H5 C7 1_555 1_555
C8 C9 1_555 1_555
C9 H6 1_555 1_555
C10 C9 1_555 1_555
C11 N4 1_555 1_555
C12 C11 1_555 1_555
H7 C12 1_555 1_555
C13 C8 1_555 1_555
H8 C13 1_555 1_555
C14 C10 1_555 1_555
C15 H9 1_555 1_555
C16 C15 1_555 1_555
H10 C16 1_555 1_555
C17 C16 1_555 1_555
C18 C17 1_555 1_555
H11 C18 1_555 1_555
C19 N1 1_555 1_555
H12 C19 1_555 1_555
C20 C17 1_555 1_555
H13 C20 1_555 1_555
H14 C20 1_555 1_555
C21 C20 1_555 1_555
H15 C21 1_555 1_555
H16 C21 1_555 1_555
C22 C21 1_555 1_555
H17 C22 1_555 1_555
H18 C22 1_555 1_555
C23 C22 1_555 1_555
C24 C23 1_555 1_555
H19 C24 1_555 1_555
C25 C24 1_555 1_555
H20 C25 1_555 1_555
C26 N2 1_555 1_555
H21 C26 1_555 1_555
C27 C23 1_555 1_555
H22 C27 1_555 1_555
Co1A N2 1_555 1_555
Co1C O5 1_555 1_555
Co1F O6 1_555 1_555
N2A Co1 1_555 1_555
O5C Co1 1_555 1_555
O6F Co1 1_555 1_555
C2 C3 1_555 1_555
C5 C6 1_555 1_555
C6 C7 1_555 1_555
C10 C11 1_555 1_555
C12 C13 1_555 1_555
C18 C19 1_555 1_555
C26 C27 1_555 1_555

#END
