
#######################################################################
#
#                 Cambridge Crystallographic Data Centre
#                                CCDC 
#
#######################################################################
#
# If this CIF has been generated from an entry in the Cambridge 
# Structural Database, then it will include bibliographic, chemical, 
# crystal, experimental, refinement or atomic coordinate data resulting 
# from the CCDC's data processing and validation procedures.
#
#######################################################################

data_NOTTIB
_symmetry_cell_setting           monoclinic
_symmetry_space_group_name_H-M   'P 2/c'
_symmetry_Int_Tables_number      13
_space_group_name_Hall           '-P 2yc'
loop_
_symmetry_equiv_pos_site_id
_symmetry_equiv_pos_as_xyz
1 x,y,z
2 -x,y,1/2-z
3 -x,-y,-z
4 x,-y,1/2+z
_cell_length_a                   12.4100(19)
_cell_length_b                   7.4301(2)
_cell_length_c                   20.525(3)
_cell_angle_alpha                90
_cell_angle_beta                 94.951(19)
_cell_angle_gamma                90
_cell_volume                     1885.5
loop_
_atom_site_label
_atom_site_type_symbol
_atom_site_fract_x
_atom_site_fract_y
_atom_site_fract_z
Eu1 Eu 0.558551(15) 0.25760(2) 0.530216(8)
O1 O 0.5274(2) 0.3711(3) 0.63973(12)
N1 N 0.3757(3) 0.6988(4) 0.78181(16)
C1 C 0.2306(4) 0.6963(6) 0.6973(2)
H1 H 0.165(4) 0.724(5) 0.685(2)
C2 C 0.4068(3) 0.5988(5) 0.67281(17)
C3 C 0.4742(3) 0.5122(5) 0.62462(17)
O2 O 0.4679(2) 0.5707(3) 0.56627(12)
C4 C 0.2715(4) 0.7234(5) 0.7609(2)
H2 H 0.2243 0.7608 0.7911
C5 C 0.4424(3) 0.6382(5) 0.73800(18)
C6 C 0.2987(3) 0.6336(5) 0.65235(19)
H3 H 0.2727 0.6150 0.6090
N2 N 0.1771(3) 0.2626(4) 0.66385(17)
O3 O 0.3687(2) 0.2726(3) 0.50500(13)
O4 O 0.2999(2) 0.5281(3) 0.46131(12)
O5 O 0.6732(2) 0.0666(4) 0.60771(15)
O6 O 0.4611(2) -0.0197(3) 0.56130(12)
C7 C 0.1459(3) 0.2166(5) 0.54923(19)
C8 C 0.2343(4) 0.2516(5) 0.7218(2)
H4 H 0.2047 0.3014 0.7578
C9 C 0.1785(3) 0.3096(5) 0.49410(19)
C10 C 0.2167(3) 0.1840(5) 0.61132(18)
C11 C 0.2916(3) 0.3744(5) 0.48667(17)
C12 C -0.0315(4) 0.2154(6) 0.5049(2)
H5 H -0.1030 0.1815 0.5081
C13 C 0.3145(3) 0.0892(5) 0.61819(18)
C14 C 0.3742(3) 0.0870(5) 0.67897(19)
H6 H 0.4409 0.0292 0.6840
N3 N 0.0413(3) 0.1747(5) 0.55422(17)
C15 C 0.3339(4) 0.1713(6) 0.73170(19)
H7 H 0.3729 0.1736 0.7725
C16 C 0.0991(4) 0.3522(6) 0.4448(2)
H8 H 0.1178 0.4138 0.4080
C17 C -0.0067(4) 0.3047(6) 0.4496(2)
H9 H -0.0600 0.3322 0.4164
O7 O 0.2971(2) -0.1164(3) 0.52879(12)
C18 C 0.3575(3) -0.0199(5) 0.56535(17)
H10 H 0.655(3) -0.036(4) 0.620(3)
H11 H 0.7407(13) 0.082(6) 0.616(3)
O1A O 0.4726(2) 0.3711(3) 0.86027(12)
N1A N 0.6243(3) 0.6988(4) 0.71819(16)
C1A C 0.7694(4) 0.6963(6) 0.8027(2)
H1A H 0.835(4) 0.724(5) 0.815(2)
C2A C 0.5932(3) 0.5988(5) 0.82719(17)
C3A C 0.5258(3) 0.5122(5) 0.87538(17)
O2A O 0.5321(2) 0.5707(3) 0.93373(12)
C4A C 0.7285(4) 0.7234(5) 0.7391(2)
H2A H 0.7757 0.7608 0.7089
C5A C 0.5576(3) 0.6382(5) 0.76200(18)
C6A C 0.7013(3) 0.6336(5) 0.84765(19)
H3A H 0.7273 0.6150 0.8910
Eu1A Eu 0.441449(15) 0.25760(2) 0.969784(8)
N2A N 0.8229(3) 0.2626(4) 0.83615(17)
O3A O 0.6313(2) 0.2726(3) 0.99500(13)
O4A O 0.7001(2) 0.5281(3) 1.03869(12)
O5A O 0.3268(2) 0.0666(4) 0.89229(15)
O6A O 0.5389(2) -0.0197(3) 0.93870(12)
C7A C 0.8541(3) 0.2166(5) 0.95077(19)
C8A C 0.7657(4) 0.2516(5) 0.7782(2)
H4A H 0.7953 0.3014 0.7422
C9A C 0.8215(3) 0.3096(5) 1.00590(19)
C10A C 0.7833(3) 0.1840(5) 0.88868(18)
C11A C 0.7084(3) 0.3744(5) 1.01333(17)
C12A C 1.0315(4) 0.2154(6) 0.9951(2)
H5A H 1.1030 0.1815 0.9919
C13A C 0.6855(3) 0.0892(5) 0.88181(18)
C14A C 0.6258(3) 0.0870(5) 0.82103(19)
H6A H 0.5591 0.0292 0.8160
N3A N 0.9587(3) 0.1747(5) 0.94578(17)
C15A C 0.6661(4) 0.1713(6) 0.76830(19)
H7A H 0.6271 0.1736 0.7275
C16A C 0.9009(4) 0.3522(6) 1.0552(2)
H8A H 0.8822 0.4138 1.0920
C17A C 1.0067(4) 0.3047(6) 1.0504(2)
H9A H 1.0600 0.3322 1.0836
O7A O 0.7029(2) -0.1164(3) 0.97121(12)
C18A C 0.6425(3) -0.0199(5) 0.93465(17)
H10A H 0.345(3) -0.036(4) 0.880(3)
H11A H 0.2593(13) 0.082(6) 0.884(3)
Eu1B Eu 0.441449(15) -0.25760(2) 0.469784(8)
Eu1B_2 Eu 0.441449(15) 0.74240(2) 0.469784(8)
Eu1C Eu 0.558551(15) -0.25760(2) 1.030216(8)
Eu1C_2 Eu 0.558551(15) 0.74240(2) 1.030216(8)
O2B O 0.5321(2) 0.4293(3) 0.43373(12)
O2C O 0.4679(2) 0.4293(3) 1.06627(12)
O4B O 0.7001(2) 0.4719(3) 0.53869(12)
O4C O 0.2999(2) 0.4719(3) 0.96131(12)
O6B O 0.5389(2) 0.0197(3) 0.43870(12)
O6C O 0.4611(2) 0.0197(3) 1.06130(12)
O7B O 0.7029(2) 0.1164(3) 0.47121(12)
O7C O 0.2971(2) 0.1164(3) 1.02879(12)
O8 O -0.1038(3) 0.0670(5) 0.64738(17)
O9 O -0.0205(3) 0.4211(6) 0.68462(19)
O10 O 0.0000 0.8518(8) 0.7500
loop_
_geom_bond_atom_site_label_1
_geom_bond_atom_site_label_2
_geom_bond_site_symmetry_1
_geom_bond_site_symmetry_2
Eu1 O1 1_555 1_555
O1 C3 1_555 1_555
N1 C4 1_555 1_555
C1 H1 1_555 1_555
C2 C3 1_555 1_555
C3 O2 1_555 1_555
O2 Eu1 1_555 1_555
C4 C1 1_555 1_555
H2 C4 1_555 1_555
C5 N1 1_555 1_555
C6 C1 1_555 1_555
H3 C6 1_555 1_555
N2 C8 1_555 1_555
O3 Eu1 1_555 1_555
O4 C11 1_555 1_555
O5 Eu1 1_555 1_555
O6 Eu1 1_555 1_555
C7 C9 1_555 1_555
C8 H4 1_555 1_555
C9 C11 1_555 1_555
C10 N2 1_555 1_555
C11 O3 1_555 1_555
C12 H5 1_555 1_555
C13 C10 1_555 1_555
C14 C13 1_555 1_555
H6 C14 1_555 1_555
N3 C7 1_555 1_555
C15 C8 1_555 1_555
H7 C15 1_555 1_555
C16 C9 1_555 1_555
H8 C16 1_555 1_555
C17 C12 1_555 1_555
H9 C17 1_555 1_555
O7 C18 1_555 1_555
C18 O6 1_555 1_555
H10 O5 1_555 1_555
H11 O5 1_555 1_555
O1A C3A 1_555 1_555
N1A C4A 1_555 1_555
C1A H1A 1_555 1_555
C2A C3A 1_555 1_555
C3A O2A 1_555 1_555
O2A Eu1A 1_555 1_555
C4A C1A 1_555 1_555
H2A C4A 1_555 1_555
C5A C5 1_555 1_555
C6A C1A 1_555 1_555
H3A C6A 1_555 1_555
Eu1A O1A 1_555 1_555
N2A C8A 1_555 1_555
O3A Eu1A 1_555 1_555
O4A C11A 1_555 1_555
O5A Eu1A 1_555 1_555
O6A Eu1A 1_555 1_555
C7A C9A 1_555 1_555
C8A H4A 1_555 1_555
C9A C11A 1_555 1_555
C10A N2A 1_555 1_555
C11A O3A 1_555 1_555
C12A H5A 1_555 1_555
C13A C10A 1_555 1_555
C14A C13A 1_555 1_555
H6A C14A 1_555 1_555
N3A C7A 1_555 1_555
C15A C8A 1_555 1_555
H7A C15A 1_555 1_555
C16A C9A 1_555 1_555
H8A C16A 1_555 1_555
C17A C12A 1_555 1_555
H9A C17A 1_555 1_555
O7A C18A 1_555 1_555
C18A O6A 1_555 1_555
H10A O5A 1_555 1_555
H11A O5A 1_555 1_555
Eu1B O6 1_555 1_555
Eu1B_2 O2 1_555 1_555
Eu1C O6A 1_555 1_555
Eu1C_2 O2A 1_555 1_555
O2B Eu1 1_555 1_555
O2C Eu1A 1_555 1_555
O4B Eu1 1_555 1_555
O4C Eu1A 1_555 1_555
O6B Eu1 1_555 1_555
O6C Eu1A 1_555 1_555
O7B Eu1 1_555 1_555
O7C Eu1A 1_555 1_555
C2 C5 1_555 1_555
C2 C6 1_555 1_555
O4 Eu1B_2 1_555 1_555
C7 C10 1_555 1_555
C12 N3 1_555 1_555
C13 C18 1_555 1_555
C14 C15 1_555 1_555
C16 C17 1_555 1_555
O7 Eu1B 1_555 1_555
N1A C5A 1_555 1_555
C2A C5A 1_555 1_555
C2A C6A 1_555 1_555
O4A Eu1C_2 1_555 1_555
C7A C10A 1_555 1_555
C12A N3A 1_555 1_555
C13A C18A 1_555 1_555
C14A C15A 1_555 1_555
C16A C17A 1_555 1_555
O7A Eu1C 1_555 1_555
Eu1B O6B 1_555 1_555
Eu1B_2 O2B 1_555 1_555
Eu1C O6C 1_555 1_555
Eu1C_2 O2C 1_555 1_555

#END
