
#######################################################################
#
#                 Cambridge Crystallographic Data Centre
#                                CCDC 
#
#######################################################################
#
# If this CIF has been generated from an entry in the Cambridge 
# Structural Database, then it will include bibliographic, chemical, 
# crystal, experimental, refinement or atomic coordinate data resulting 
# from the CCDC's data processing and validation procedures.
#
#######################################################################

data_NOTVOJ
_symmetry_cell_setting           triclinic
_symmetry_space_group_name_H-M   'P -1'
_symmetry_Int_Tables_number      2
_space_group_name_Hall           '-P 1'
loop_
_symmetry_equiv_pos_site_id
_symmetry_equiv_pos_as_xyz
1 x,y,z
2 -x,-y,-z
_cell_length_a                   7.8602(5)
_cell_length_b                   11.5220(7)
_cell_length_c                   13.5450(8)
_cell_angle_alpha                101.2950(10)
_cell_angle_beta                 98.5030(10)
_cell_angle_gamma                105.1450(10)
_cell_volume                     1135.21
loop_
_atom_site_label
_atom_site_type_symbol
_atom_site_fract_x
_atom_site_fract_y
_atom_site_fract_z
Cu1 Cu 1.14453(4) 0.56759(2) -0.02712(2)
C1 C 0.9694(3) 0.6894(2) 0.12192(18)
C2 C 0.9717(4) 0.8042(2) 0.19724(19)
C3 C 1.1302(4) 0.9024(2) 0.2314(2)
H1 H 1.2319 0.8968 0.2057
C4 C 0.8216(4) 0.8156(2) 0.2352(2)
H2 H 0.7147 0.7506 0.2130
C5 C 0.8273(4) 0.9227(3) 0.3060(2)
H3 H 0.7245 0.9299 0.3298
C6 C 1.1380(4) 1.0073(3) 0.3026(2)
H4 H 1.2454 1.0718 0.3255
C7 C 0.9869(4) 1.0178(2) 0.3407(2)
C8 C 0.8631(5) 1.1447(3) 0.4554(2)
H5 H 0.8164 1.0791 0.4884
H6 H 0.7670 1.1460 0.4021
C9 C 0.9358(5) 1.2690(3) 0.5336(2)
H7 H 0.9786 1.3331 0.4984
H8 H 1.0381 1.2676 0.5826
C10 C 0.7979(5) 1.3026(3) 0.5921(2)
H9 H 0.7605 1.2409 0.6304
H10 H 0.8552 1.3818 0.6416
C11 C 0.6319(4) 1.3111(3) 0.5249(2)
H11 H 0.5589 1.2292 0.4846
H12 H 0.5598 1.3463 0.5674
C12 C 0.5646(4) 1.4062(2) 0.3880(2)
C13 C 0.3801(4) 1.3664(2) 0.3816(2)
H13 H 0.3338 1.3248 0.4287
C14 C 0.6334(3) 1.4692(2) 0.3180(2)
H14 H 0.7573 1.4958 0.3224
C15 C 0.5192(3) 1.4920(2) 0.24263(19)
H15 H 0.5664 1.5347 0.1965
C16 C 0.2654(3) 1.3889(2) 0.30466(19)
H16 H 0.1415 1.3615 0.3001
C17 C 0.3322(3) 1.4518(2) 0.23412(18)
C18 C 0.2102(3) 1.4723(2) 0.14846(18)
C19 C 1.5274(3) 0.7175(2) -0.04109(18)
H17 H 1.5821 0.6736 -0.0025
C20 C 1.3291(4) 0.7814(2) -0.1209(2)
H18 H 1.2186 0.7899 -0.1483
C21 C 1.4909(4) 0.8490(3) -0.1314(2)
H19 H 1.5123 0.9113 -0.1666
C22 C 1.8113(3) 0.8511(2) -0.0728(2)
H20 H 1.8345 0.8527 -0.1409
H21 H 1.8658 0.7930 -0.0479
C23 C 1.8991(3) 0.9793(2) -0.0016(2)
H22 H 1.8792 0.9779 0.0673
H23 H 1.8445 1.0378 -0.0255
N1 N 1.3518(3) 0.69901(17) -0.06429(15)
N2 N 1.6169(3) 0.80766(18) -0.08011(16)
O1 O 1.0914(2) 0.70011(15) 0.07153(14)
O2 O 0.8460(2) 0.59088(16) 0.11354(15)
O3 O 1.0126(3) 1.12549(19) 0.41242(17)
O4 O 0.6898(3) 1.38773(19) 0.45910(15)
O5 O 0.0433(2) 1.42581(17) 0.13866(14)
O6 O 0.2831(2) 1.53387(17) 0.09038(14)
C19A C 2.4726(3) 1.2825(2) 0.04109(18)
H17A H 2.4179 1.3264 0.0025
C20A C 2.6709(4) 1.2186(2) 0.1209(2)
H18A H 2.7814 1.2101 0.1483
C21A C 2.5091(4) 1.1510(3) 0.1314(2)
H19A H 2.4877 1.0887 0.1666
C22A C 2.1887(3) 1.1489(2) 0.0728(2)
H20A H 2.1655 1.1473 0.1409
H21A H 2.1342 1.2070 0.0479
C23A C 2.1009(3) 1.0207(2) 0.0016(2)
H22A H 2.1208 1.0221 -0.0673
H23A H 2.1555 0.9622 0.0255
N1A N 2.6482(3) 1.30099(17) 0.06429(15)
N2A N 2.3831(3) 1.19234(18) 0.08011(16)
Cu1A Cu -0.14453(4) 1.43241(2) 0.02712(2)
C1A C 0.0306(3) 1.3106(2) -0.12192(18)
C2A C 0.0283(4) 1.1958(2) -0.19724(19)
C3A C -0.1302(4) 1.0976(2) -0.2314(2)
H1A H -0.2319 1.1032 -0.2057
C4A C 0.1784(4) 1.1844(2) -0.2352(2)
H2A H 0.2853 1.2494 -0.2130
C5A C 0.1727(4) 1.0773(3) -0.3060(2)
H3A H 0.2755 1.0701 -0.3298
C6A C -0.1380(4) 0.9927(3) -0.3026(2)
H4A H -0.2454 0.9282 -0.3255
C7A C 0.0131(4) 0.9822(2) -0.3407(2)
C8A C 0.1369(5) 0.8553(3) -0.4554(2)
H5A H 0.1836 0.9209 -0.4884
H6A H 0.2330 0.8540 -0.4021
C9A C 0.0642(5) 0.7310(3) -0.5336(2)
H7A H 0.0214 0.6669 -0.4984
H8A H -0.0381 0.7324 -0.5826
C10A C 0.2021(5) 0.6974(3) -0.5921(2)
H9A H 0.2395 0.7591 -0.6304
H10A H 0.1448 0.6182 -0.6416
C11A C 0.3681(4) 0.6889(3) -0.5249(2)
H11A H 0.4411 0.7708 -0.4846
H12A H 0.4402 0.6537 -0.5674
C12A C 0.4354(4) 0.5938(2) -0.3880(2)
C13A C 0.6199(4) 0.6336(2) -0.3816(2)
H13A H 0.6662 0.6752 -0.4287
C14A C 0.3666(3) 0.5308(2) -0.3180(2)
H14A H 0.2427 0.5042 -0.3224
C15A C 0.4808(3) 0.5080(2) -0.24263(19)
H15A H 0.4336 0.4653 -0.1965
C16A C 0.7346(3) 0.6111(2) -0.30466(19)
H16A H 0.8585 0.6385 -0.3001
C17A C 0.6678(3) 0.5482(2) -0.23412(18)
C18A C 0.7898(3) 0.5277(2) -0.14846(18)
O1A O -0.0914(2) 1.29989(15) -0.07153(14)
O2A O 0.1540(2) 1.40912(16) -0.11354(15)
O3A O -0.0126(3) 0.87451(19) -0.41242(17)
O4A O 0.3102(3) 0.61227(19) -0.45910(15)
O5A O 0.9567(2) 0.57419(17) -0.13866(14)
O6A O 0.7169(2) 0.46613(17) -0.09038(14)
Cu1_2 Cu 0.14453(4) 1.56759(2) -0.02712(2)
Cu1A_2 Cu 0.85547(4) 0.43241(2) 0.02712(2)
Cu1A_3 Cu 2.85547(4) 1.43241(2) 0.02712(2)
N1A_2 N -0.3518(3) 1.30099(17) 0.06429(15)
O2_2 O -0.1540(2) 1.59088(16) 0.11354(15)
O2A_2 O 1.1540(2) 0.40912(16) -0.11354(15)
O6_2 O 1.2831(2) 0.53387(17) 0.09038(14)
O6A_2 O -0.2831(2) 1.46613(17) -0.09038(14)
loop_
_geom_bond_atom_site_label_1
_geom_bond_atom_site_label_2
_geom_bond_site_symmetry_1
_geom_bond_site_symmetry_2
Cu1 N1 1_555 1_555
C1 C2 1_555 1_555
C2 C3 1_555 1_555
C3 H1 1_555 1_555
C4 C2 1_555 1_555
H2 C4 1_555 1_555
C5 C4 1_555 1_555
H3 C5 1_555 1_555
C6 C3 1_555 1_555
H4 C6 1_555 1_555
C7 C5 1_555 1_555
C8 H5 1_555 1_555
H6 C8 1_555 1_555
C9 C8 1_555 1_555
H7 C9 1_555 1_555
H8 C9 1_555 1_555
C10 C9 1_555 1_555
H9 C10 1_555 1_555
H10 C10 1_555 1_555
C11 C10 1_555 1_555
H11 C11 1_555 1_555
H12 C11 1_555 1_555
C12 C13 1_555 1_555
C13 H13 1_555 1_555
C14 C12 1_555 1_555
H14 C14 1_555 1_555
C15 C14 1_555 1_555
H15 C15 1_555 1_555
C16 C13 1_555 1_555
H16 C16 1_555 1_555
C17 C15 1_555 1_555
C18 C17 1_555 1_555
C19 H17 1_555 1_555
C20 H18 1_555 1_555
C21 C20 1_555 1_555
H19 C21 1_555 1_555
C22 H20 1_555 1_555
H21 C22 1_555 1_555
C23 C22 1_555 1_555
H22 C23 1_555 1_555
H23 C23 1_555 1_555
N1 C19 1_555 1_555
N2 C19 1_555 1_555
O1 Cu1 1_555 1_555
O2 C1 1_555 1_555
O3 C7 1_555 1_555
O4 C11 1_555 1_555
O5 C18 1_555 1_555
O6 C18 1_555 1_555
C19A H17A 1_555 1_555
C20A H18A 1_555 1_555
C21A C20A 1_555 1_555
H19A C21A 1_555 1_555
C22A H20A 1_555 1_555
H21A C22A 1_555 1_555
C23A C23 1_555 1_555
H22A C23A 1_555 1_555
H23A C23A 1_555 1_555
N1A C19A 1_555 1_555
N2A C19A 1_555 1_555
Cu1A O5 1_555 1_555
C1A C2A 1_555 1_555
C2A C3A 1_555 1_555
C3A H1A 1_555 1_555
C4A C2A 1_555 1_555
H2A C4A 1_555 1_555
C5A C4A 1_555 1_555
H3A C5A 1_555 1_555
C6A C3A 1_555 1_555
H4A C6A 1_555 1_555
C7A C5A 1_555 1_555
C8A H5A 1_555 1_555
H6A C8A 1_555 1_555
C9A C8A 1_555 1_555
H7A C9A 1_555 1_555
H8A C9A 1_555 1_555
C10A C9A 1_555 1_555
H9A C10A 1_555 1_555
H10A C10A 1_555 1_555
C11A C10A 1_555 1_555
H11A C11A 1_555 1_555
H12A C11A 1_555 1_555
C12A C13A 1_555 1_555
C13A H13A 1_555 1_555
C14A C12A 1_555 1_555
H14A C14A 1_555 1_555
C15A C14A 1_555 1_555
H15A C15A 1_555 1_555
C16A C13A 1_555 1_555
H16A C16A 1_555 1_555
C17A C15A 1_555 1_555
C18A C17A 1_555 1_555
O1A Cu1A 1_555 1_555
O2A C1A 1_555 1_555
O3A C7A 1_555 1_555
O4A C11A 1_555 1_555
O5A Cu1 1_555 1_555
O6A C18A 1_555 1_555
Cu1_2 O6 1_555 1_555
Cu1A_2 Cu1 1_555 1_555
Cu1A_3 N1A 1_555 1_555
N1A_2 Cu1A 1_555 1_555
O2_2 Cu1A 1_555 1_555
O2A_2 Cu1 1_555 1_555
O6_2 Cu1 1_555 1_555
O6A_2 Cu1A 1_555 1_555
C1 O1 1_555 1_555
C6 C7 1_555 1_555
C8 O3 1_555 1_555
C12 O4 1_555 1_555
C16 C17 1_555 1_555
C20 N1 1_555 1_555
C21 N2 1_555 1_555
C22 N2 1_555 1_555
O2 Cu1A_2 1_555 1_555
C20A N1A 1_555 1_555
C21A N2A 1_555 1_555
C22A C23A 1_555 1_555
C22A N2A 1_555 1_555
Cu1A Cu1_2 1_555 1_555
C1A O1A 1_555 1_555
C6A C7A 1_555 1_555
C8A O3A 1_555 1_555
C12A O4A 1_555 1_555
C16A C17A 1_555 1_555
C18A O5A 1_555 1_555
O2A Cu1_2 1_555 1_555
O6A Cu1A_2 1_555 1_555

#END
