
#######################################################################
#
#                 Cambridge Crystallographic Data Centre
#                                CCDC 
#
#######################################################################
#
# If this CIF has been generated from an entry in the Cambridge 
# Structural Database, then it will include bibliographic, chemical, 
# crystal, experimental, refinement or atomic coordinate data resulting 
# from the CCDC's data processing and validation procedures.
#
#######################################################################

data_NOVHEL
_symmetry_cell_setting           monoclinic
_symmetry_space_group_name_H-M   'P 21/n'
_symmetry_Int_Tables_number      14
_space_group_name_Hall           '-P 2yn'
loop_
_symmetry_equiv_pos_site_id
_symmetry_equiv_pos_as_xyz
1 x,y,z
2 1/2-x,1/2+y,1/2-z
3 -x,-y,-z
4 1/2+x,1/2-y,1/2+z
_cell_length_a                   11.728(4)
_cell_length_b                   13.818(3)
_cell_length_c                   16.774(2)
_cell_angle_alpha                90
_cell_angle_beta                 95.29(2)
_cell_angle_gamma                90
_cell_volume                     2706.77
loop_
_atom_site_label
_atom_site_type_symbol
_atom_site_fract_x
_atom_site_fract_y
_atom_site_fract_z
Sn1 Sn 0.22096(6) 0.41128(5) 0.79584(4)
S1 S 0.1482(2) 0.6028(2) 0.8008(2)
P1 P 0.1486(2) 0.6726(2) 0.6962(2)
O1 O 0.2736(5) 0.2605(4) 0.7988(4)
C1 C 0.3772(8) 0.4535(7) 0.7477(6)
C2 C 0.4255(9) 0.3899(7) 0.6954(6)
C3 C 0.531(1) 0.417(1) 0.6662(6)
C4 C 0.581(1) 0.500(1) 0.6906(7)
C5 C 0.536(1) 0.5613(8) 0.7421(7)
C6 C 0.4317(9) 0.5377(8) 0.7712(6)
C7 C 0.2117(9) 0.4185(8) 0.9236(6)
C8 C 0.302(1) 0.4526(8) 0.9710(7)
C9 C 0.299(1) 0.459(1) 1.0570(9)
C10 C 0.202(1) 0.428(1) 1.0832(8)
C11 C 0.111(1) 0.391(1) 1.0404(9)
C12 C 0.115(1) 0.385(1) 0.9531(8)
C13 C 0.0683(8) 0.3657(7) 0.7295(6)
C14 C 0.070(1) 0.2971(8) 0.6715(7)
C15 C -0.032(1) 0.269(1) 0.6236(8)
C16 C -0.130(1) 0.314(1) 0.6415(9)
C17 C -0.138(1) 0.374(1) 0.7004(9)
C18 C -0.037(1) 0.405(1) 0.7444(7)
C19 C 0.1947(8) 0.5957(7) 0.6177(5)
C20 C 0.3008(8) 0.6141(7) 0.5906(6)
C21 C 0.338(1) 0.5523(8) 0.5311(7)
C22 C 0.270(1) 0.4794(9) 0.5021(7)
C23 C 0.164(1) 0.4615(8) 0.5253(7)
C24 C 0.1264(8) 0.5216(8) 0.5842(6)
C25 C 0.0028(8) 0.7092(7) 0.6611(6)
C26 C -0.088(1) 0.685(1) 0.7055(7)
C27 C -0.198(1) 0.722(1) 0.6736(8)
C28 C -0.210(1) 0.773(1) 0.608(1)
C29 C -0.124(1) 0.795(1) 0.5626(8)
C30 C -0.012(1) 0.7610(9) 0.5924(7)
H1 H 0.3889 0.3307 0.6799
H2 H 0.5657 0.3757 0.6298
H3 H 0.6513 0.5164 0.6708
H4 H 0.5742 0.6195 0.7581
H5 H 0.3987 0.5800 0.8073
H6 H 0.3689 0.4730 0.9476
H7 H 0.3616 0.4822 1.0918
H8 H 0.1963 0.4329 1.1392
H9 H 0.0456 0.3701 1.0651
H10 H 0.0534 0.3582 0.9191
H11 H 0.1409 0.2672 0.6625
H12 H -0.0320 0.2223 0.5822
H13 H -0.1981 0.2999 0.6083
H14 H -0.2103 0.3967 0.7133
H15 H -0.0408 0.4529 0.7847
H16 H 0.3470 0.6665 0.6113
H17 H 0.4102 0.5620 0.5115
H18 H 0.2972 0.4381 0.4629
H19 H 0.1184 0.4102 0.5026
H20 H 0.0524 0.5117 0.6015
H21 H -0.0786 0.6479 0.7531
H22 H -0.2635 0.7090 0.7012
H23 H -0.2843 0.7955 0.5904
H24 H -0.1368 0.8304 0.5142
H25 H 0.0520 0.7752 0.5636
O1A O 0.2264(5) 0.7605(4) 0.7012(4)
Sn1A Sn 0.27904(6) 0.91128(5) 0.70416(4)
loop_
_geom_bond_atom_site_label_1
_geom_bond_atom_site_label_2
_geom_bond_site_symmetry_1
_geom_bond_site_symmetry_2
Sn1 S1 1_555 1_555
S1 P1 1_555 1_555
P1 C19 1_555 1_555
O1 Sn1 1_555 1_555
C1 Sn1 1_555 1_555
C2 C1 1_555 1_555
C3 C2 1_555 1_555
C4 C3 1_555 1_555
C5 C4 1_555 1_555
C6 C1 1_555 1_555
C7 Sn1 1_555 1_555
C8 C7 1_555 1_555
C9 C8 1_555 1_555
C10 C9 1_555 1_555
C11 C10 1_555 1_555
C12 C7 1_555 1_555
C13 Sn1 1_555 1_555
C14 C13 1_555 1_555
C15 C14 1_555 1_555
C16 C15 1_555 1_555
C17 C16 1_555 1_555
C18 C13 1_555 1_555
C19 C20 1_555 1_555
C20 C21 1_555 1_555
C21 C22 1_555 1_555
C22 C23 1_555 1_555
C23 C24 1_555 1_555
C24 C19 1_555 1_555
C25 P1 1_555 1_555
C26 C25 1_555 1_555
C27 C26 1_555 1_555
C28 C27 1_555 1_555
C29 C28 1_555 1_555
C30 C25 1_555 1_555
H1 C2 1_555 1_555
H2 C3 1_555 1_555
H3 C4 1_555 1_555
H4 C5 1_555 1_555
H5 C6 1_555 1_555
H6 C8 1_555 1_555
H7 C9 1_555 1_555
H8 C10 1_555 1_555
H9 C11 1_555 1_555
H10 C12 1_555 1_555
H11 C14 1_555 1_555
H12 C15 1_555 1_555
H13 C16 1_555 1_555
H14 C17 1_555 1_555
H15 C18 1_555 1_555
H16 C20 1_555 1_555
H17 C21 1_555 1_555
H18 C22 1_555 1_555
H19 C23 1_555 1_555
H20 C24 1_555 1_555
H21 C26 1_555 1_555
H22 C27 1_555 1_555
H23 C28 1_555 1_555
H24 C29 1_555 1_555
H25 C30 1_555 1_555
O1A P1 1_555 1_555
Sn1A O1A 1_555 1_555
C5 C6 1_555 1_555
C11 C12 1_555 1_555
C17 C18 1_555 1_555
C29 C30 1_555 1_555

#END
