
#######################################################################
#
#                 Cambridge Crystallographic Data Centre
#                                CCDC 
#
#######################################################################
#
# If this CIF has been generated from an entry in the Cambridge 
# Structural Database, then it will include bibliographic, chemical, 
# crystal, experimental, refinement or atomic coordinate data resulting 
# from the CCDC's data processing and validation procedures.
#
#######################################################################

data_NOWGOX
_symmetry_cell_setting           triclinic
_symmetry_space_group_name_H-M   'P -1'
_symmetry_Int_Tables_number      2
_space_group_name_Hall           '-P 1'
loop_
_symmetry_equiv_pos_site_id
_symmetry_equiv_pos_as_xyz
1 x,y,z
2 -x,-y,-z
_cell_length_a                   10.198(4)
_cell_length_b                   12.929(6)
_cell_length_c                   13.409(5)
_cell_angle_alpha                77.404(12)
_cell_angle_beta                 68.402(12)
_cell_angle_gamma                82.169(14)
_cell_volume                     1601.23
loop_
_atom_site_label
_atom_site_type_symbol
_atom_site_fract_x
_atom_site_fract_y
_atom_site_fract_z
Mo1 Mo -0.84781(10) -0.05107(9) 0.68304(9)
Mo2 Mo -0.57110(10) -0.25164(7) 0.66598(7)
Mo3 Mo -0.34490(12) -0.13895(8) 0.28304(9)
Mo4 Mo -0.39767(11) -0.07141(7) 0.73168(8)
Mo5 Mo -0.21942(11) -0.19176(7) 0.50182(8)
Mo6 Mo -0.70276(11) -0.17038(8) 0.44998(10)
Si1 Si -0.5000 0.0000 0.5000
O1 O -0.6511(13) 0.0592(10) 0.5724(10)
O2 O -0.4476(13) -0.0935(9) 0.5710(11)
O3 O -0.6130(13) -0.0940(9) 0.5603(10)
O4 O -0.5540(14) 0.0189(11) 0.7808(12)
O5 O -0.2629(14) -0.2173(10) 0.3787(10)
O6 O -0.3468(10) -0.1048(10) 0.8384(7)
O7 O -0.2074(14) -0.0313(10) 0.2444(10)
O8 O -0.4673(14) 0.0411(10) 0.5964(11)
O9 O -0.2872(14) 0.0519(10) 0.6549(11)
O10 O -0.2463(10) -0.1445(9) 0.6272(8)
O11 O -0.8393(12) -0.1156(9) 0.5618(9)
O12 O -0.5120(12) -0.2032(9) 0.3491(10)
O13 O -1.0103(9) -0.0744(8) 0.7670(8)
O14 O -0.1209(14) -0.0786(10) 0.4118(10)
O15 O -0.3852(10) -0.2782(8) 0.5860(8)
O16 O -0.6104(11) -0.3663(6) 0.7528(7)
O17 O -0.2740(9) -0.1940(7) 0.1731(7)
O18 O -0.6371(12) -0.2671(10) 0.5590(9)
O19 O -0.5108(9) -0.1821(8) 0.7570(8)
O20 O -0.7891(9) -0.2521(6) 0.4220(7)
O21 O -0.0924(10) -0.2864(7) 0.4990(10)
O22 O -0.7500(12) -0.1697(11) 0.7285(9)
O1A O -0.3489(13) -0.0592(10) 0.4276(10)
O2A O -0.5524(13) 0.0935(9) 0.4290(11)
O3A O -0.3870(13) 0.0940(9) 0.4397(10)
O8A O -0.5327(14) -0.0411(10) 0.4036(11)
Mo1A Mo -0.15219(10) 0.05107(9) 0.31696(9)
Mo2A Mo -0.42890(10) 0.25164(7) 0.33402(7)
Mo3A Mo -0.65510(12) 0.13895(8) 0.71696(9)
Mo4A Mo -0.60233(11) 0.07141(7) 0.26832(8)
Mo5A Mo -0.78058(11) 0.19176(7) 0.49818(8)
Mo6A Mo -0.29724(11) 0.17038(8) 0.55002(10)
O4A O -0.4460(14) -0.0189(11) 0.2192(12)
O5A O -0.7371(14) 0.2173(10) 0.6213(10)
O6A O -0.6532(10) 0.1048(10) 0.1616(7)
O7A O -0.7926(14) 0.0313(10) 0.7556(10)
O9A O -0.7128(14) -0.0519(10) 0.3451(11)
O10A O -0.7537(10) 0.1445(9) 0.3728(8)
O11A O -0.1607(12) 0.1156(9) 0.4382(9)
O12A O -0.4880(12) 0.2032(9) 0.6509(10)
O13A O 0.0103(9) 0.0744(8) 0.2330(8)
O14A O -0.8791(14) 0.0786(10) 0.5882(10)
O15A O -0.6148(10) 0.2782(8) 0.4140(8)
O16A O -0.3896(11) 0.3663(6) 0.2472(7)
O17A O -0.7260(9) 0.1940(7) 0.8269(7)
O18A O -0.3629(12) 0.2671(10) 0.4410(9)
O19A O -0.4892(9) 0.1821(8) 0.2430(8)
O20A O -0.2109(9) 0.2521(6) 0.5780(7)
O21A O -0.9076(10) 0.2864(7) 0.5010(10)
O22A O -0.2500(12) 0.1697(11) 0.2715(9)
O23 O -0.970(2) -0.3567(17) 0.6748(18)
O24 O -1.149(2) -0.3288(17) 0.8524(19)
Ag1 Ag -0.64519(9) -0.52351(8) 0.65262(7)
Ag2 Ag -0.74983(11) -0.49527(9) 0.95735(8)
Ag3 Ag -0.99311(9) -0.55317(9) 0.63337(7)
N1 N -0.9577(11) -0.6495(8) 0.9548(7)
H1 H -0.9873 -0.6723 1.0241
N2 N -0.8615(10) -0.5781(8) 0.8962(7)
N3 N -0.8462(8) -0.5618(7) 0.7925(6)
N4 N -0.9336(9) -0.6227(7) 0.7806(7)
N5 N -1.2296(15) -0.8990(11) 1.0331(12)
N6 N -0.7989(8) -0.4741(7) 0.3844(6)
N7 N -0.8009(8) -0.4992(6) 0.4882(6)
N8 N -0.6739(9) -0.4951(7) 0.4879(6)
N9 N -0.5856(8) -0.4645(6) 0.3846(6)
N10 N -0.6478(10) -0.4242(7) 0.0368(7)
C1 C -1.1496(15) -0.8166(11) 1.0095(12)
H2 H -1.1345 -0.7945 1.0657
C2 C -1.2551(19) -0.9336(11) 0.9496(19)
H3 H -1.3103 -0.9907 0.9649
C3 C -1.1969(13) -0.8814(10) 0.8471(13)
H4 H -1.2137 -0.9022 0.7910
C4 C -1.1145(12) -0.7995(9) 0.8231(10)
H5 H -1.0740 -0.7664 0.7509
C5 C -1.0894(11) -0.7644(8) 0.9041(9)
C6 C -0.9968(11) -0.6768(8) 0.8791(8)
C7 C -0.5526(12) -0.3490(9) -0.0134(8)
H6 H -0.5311 -0.3242 -0.0878
C8 C -0.6781(11) -0.4579(8) 0.1447(8)
H7 H -0.7411 -0.5111 0.1801
C9 C -0.4862(13) -0.3077(9) 0.0403(8)
H8 H -0.4184 -0.2584 0.0021
C10 C -0.5212(11) -0.3401(8) 0.1511(9)
H9 H -0.4800 -0.3113 0.1894
C11 C -0.6207(10) -0.4176(7) 0.2054(7)
C12 C -0.6662(10) -0.4522(7) 0.3241(7)
Ag1A Ag -0.35481(9) -0.47649(8) 0.34738(7)
Ag2_2 Ag -0.74983(11) -0.49527(9) -0.04265(8)
Ag3A Ag -1.00689(9) -0.44683(9) 0.36663(7)
N6A N -1.2011(8) -0.5259(7) 0.6156(6)
N9A N -0.4144(8) -0.5355(6) 0.6154(6)
N10_2 N -0.6478(10) -0.4242(7) 1.0368(7)
loop_
_geom_bond_atom_site_label_1
_geom_bond_atom_site_label_2
_geom_bond_site_symmetry_1
_geom_bond_site_symmetry_2
Ag1 N3 1_555 1_555
Ag2 N2 1_555 1_555
Ag3 N4 1_555 1_555
N1 H1 1_555 1_555
N2 N1 1_555 1_555
N3 N2 1_555 1_555
N4 N3 1_555 1_555
N5 C1 1_555 1_555
N6 N7 1_555 1_555
N7 Ag3 1_555 1_555
N8 Ag1 1_555 1_555
N9 N8 1_555 1_555
N10 C7 1_555 1_555
C1 H2 1_555 1_555
C2 N5 1_555 1_555
H3 C2 1_555 1_555
C3 C2 1_555 1_555
H4 C3 1_555 1_555
C4 C3 1_555 1_555
H5 C4 1_555 1_555
C5 C1 1_555 1_555
C6 N1 1_555 1_555
C7 H6 1_555 1_555
C8 N10 1_555 1_555
H7 C8 1_555 1_555
C9 C7 1_555 1_555
H8 C9 1_555 1_555
C10 C9 1_555 1_555
H9 C10 1_555 1_555
C11 C8 1_555 1_555
C12 N6 1_555 1_555
Mo1 O1 1_555 1_555
Mo2 O2 1_555 1_555
Mo3 O5 1_555 1_555
Mo4 O2 1_555 1_555
Mo5 O2 1_555 1_555
Mo6 O3 1_555 1_555
Si1 O1 1_555 1_555
O1 O2A 1_555 1_555
O2 Si1 1_555 1_555
O3 Mo1 1_555 1_555
O4 Mo4 1_555 1_555
O5 Mo5 1_555 1_555
O6 Mo4 1_555 1_555
O7 Mo3 1_555 1_555
O8 Mo4 1_555 1_555
O9 Mo4 1_555 1_555
O10 Mo4 1_555 1_555
O11 Mo1 1_555 1_555
O12 Mo3 1_555 1_555
O13 Mo1 1_555 1_555
O14 Mo5 1_555 1_555
O15 Mo2 1_555 1_555
O16 Mo2 1_555 1_555
O17 Mo3 1_555 1_555
O18 Mo2 1_555 1_555
O19 Mo2 1_555 1_555
O20 Mo6 1_555 1_555
O21 Mo5 1_555 1_555
O22 Mo1 1_555 1_555
Ag1A N9 1_555 1_555
Ag2_2 N10 1_555 1_555
Ag3A N6 1_555 1_555
N6A Ag3 1_555 1_555
N9A Ag1 1_555 1_555
N10_2 Ag2 1_555 1_555
O1A Mo3 1_555 1_555
O2A Si1 1_555 1_555
O3A Si1 1_555 1_555
O8A Mo3 1_555 1_555
Mo1A O7 1_555 1_555
Mo2A O2A 1_555 1_555
Mo3A O1 1_555 1_555
Mo4A O2A 1_555 1_555
Mo5A O1 1_555 1_555
Mo6A O8 1_555 1_555
O4A Mo3 1_555 1_555
O5A Mo3A 1_555 1_555
O6A Mo4A 1_555 1_555
O7A Mo1 1_555 1_555
O9A Mo6 1_555 1_555
O10A Mo4A 1_555 1_555
O11A Mo1A 1_555 1_555
O12A Mo3A 1_555 1_555
O13A Mo1A 1_555 1_555
O14A Mo1 1_555 1_555
O15A Mo2A 1_555 1_555
O16A Mo2A 1_555 1_555
O17A Mo3A 1_555 1_555
O18A Mo2A 1_555 1_555
O19A Mo2A 1_555 1_555
O20A Mo6A 1_555 1_555
O21A Mo5A 1_555 1_555
O22A Mo1A 1_555 1_555
N4 C6 1_555 1_555
N7 N8 1_555 1_555
N9 C12 1_555 1_555
C4 C5 1_555 1_555
C5 C6 1_555 1_555
C10 C11 1_555 1_555
C11 C12 1_555 1_555
Mo2 O3 1_555 1_555
Mo2 O22 1_555 1_555
Mo4 O19 1_555 1_555
Mo5 O10 1_555 1_555
Mo5 O15 1_555 1_555
Mo5 O1A 1_555 1_555
Mo6 O11 1_555 1_555
Mo6 O12 1_555 1_555
Mo6 O18 1_555 1_555
Mo6 O8A 1_555 1_555
Si1 O3 1_555 1_555
Si1 O8 1_555 1_555
Si1 O1A 1_555 1_555
Si1 O8A 1_555 1_555
O2 O3 1_555 1_555
O2 O1A 1_555 1_555
O4 Mo3A 1_555 1_555
O8 Mo3A 1_555 1_555
O9 Mo6A 1_555 1_555
O14 Mo1A 1_555 1_555
O1A Mo1A 1_555 1_555
O2A O3A 1_555 1_555
O2A Mo5A 1_555 1_555
O3A Mo1A 1_555 1_555
O3A Mo2A 1_555 1_555
O3A Mo6A 1_555 1_555
O8A Mo4A 1_555 1_555
Mo2A O22A 1_555 1_555
Mo3A O7A 1_555 1_555
Mo4A O4A 1_555 1_555
Mo4A O9A 1_555 1_555
Mo4A O19A 1_555 1_555
Mo5A O5A 1_555 1_555
Mo5A O10A 1_555 1_555
Mo5A O14A 1_555 1_555
Mo5A O15A 1_555 1_555
Mo6A O11A 1_555 1_555
Mo6A O12A 1_555 1_555
Mo6A O18A 1_555 1_555

#END
