
#######################################################################
#
#                 Cambridge Crystallographic Data Centre
#                                CCDC 
#
#######################################################################
#
# If this CIF has been generated from an entry in the Cambridge 
# Structural Database, then it will include bibliographic, chemical, 
# crystal, experimental, refinement or atomic coordinate data resulting 
# from the CCDC's data processing and validation procedures.
#
#######################################################################

data_NOWHIQ
_symmetry_cell_setting           orthorhombic
_symmetry_space_group_name_H-M   'P 21 21 21'
_symmetry_Int_Tables_number      19
_space_group_name_Hall           'P 2ac 2ab'
loop_
_symmetry_equiv_pos_site_id
_symmetry_equiv_pos_as_xyz
1 x,y,z
2 1/2-x,-y,1/2+z
3 1/2+x,1/2-y,-z
4 -x,1/2+y,1/2-z
_cell_length_a                   8.194(1)
_cell_length_b                   12.467(1)
_cell_length_c                   19.795(3)
_cell_angle_alpha                90
_cell_angle_beta                 90
_cell_angle_gamma                90
_cell_volume                     2022.15
loop_
_atom_site_label
_atom_site_type_symbol
_atom_site_fract_x
_atom_site_fract_y
_atom_site_fract_z
Cd1 Cd 0.9689(1) 0.2143(1) 0.9573(1)
Cl1 Cl 0.8343(5) 0.3471(3) 0.8766(2)
C1 C 1.3369(21) 0.1661(11) 0.9361(8)
C2 C 1.2565(19) 0.0840(14) 0.8921(9)
C3 C 0.9933(17) 0.0204(12) 0.8484(8)
C4 C 0.8136(19) 0.0579(13) 0.8507(8)
C5 C 1.0376(23) -0.0360(15) 0.7839(9)
C6 C 1.1215(22) 0.1869(13) 0.8073(9)
C7 C 0.6945(20) -0.0256(12) 0.8236(8)
C8 C 0.6547(21) -0.1136(14) 0.8593(9)
C9 C 0.5527(27) -0.1888(18) 0.8346(11)
C10 C 0.4800(25) -0.1714(21) 0.7746(14)
C11 C 0.5100(26) -0.0873(18) 0.7365(10)
C12 C 0.6221(23) -0.0105(16) 0.7614(9)
N1 N 1.0999(15) 0.1167(9) 0.8654(6)
O1 O 1.0441(13) 0.0819(7) 1.0348(5)
O2 O 0.9844(11) 0.3439(8) 1.0474(6)
O3 O 1.2489(11) 0.2433(7) 0.9594(5)
O4 O 0.7806(11) 0.0852(8) 0.9183(5)
H1 H 1.2409 0.0201 0.9184
H2 H 1.3283 0.0669 0.8553
H3 H 1.0056 -0.0308 0.8843
H4 H 0.8031 0.1217 0.8239
H5 H 1.1493 -0.0593 0.7848
H6 H 0.9675 -0.0969 0.7781
H7 H 1.0221 0.0130 0.7470
H8 H 1.1737 0.1487 0.7712
H9 H 1.0165 0.2117 0.7926
H10 H 1.1876 0.2472 0.8201
H11 H 0.6986 -0.1226 0.9039
H12 H 0.5277 -0.2530 0.8594
H13 H 0.4104 -0.2257 0.7557
H14 H 0.4514 -0.0745 0.6952
H15 H 0.6528 0.0507 0.7348
O2B O 1.4844(11) 0.1561(8) 0.9526(6)
Cd1B Cd 1.4689(1) 0.2857(1) 1.0427(1)
O3B O 0.7489(11) 0.2567(7) 1.0406(5)
S1 S 0.8807(8) 0.1369(5) 0.6016(3)
C13 C 1.0808(31) 0.1243(23) 0.5678(13)
C14 C 0.8096(27) 0.0061(16) 0.5844(11)
O5 O 0.7929(18) 0.2065(11) 0.5448(7)
H16 H 1.1365 0.1914 0.5735
H17 H 1.1377 0.0692 0.5922
H18 H 1.0775 0.1061 0.5207
H19 H 0.6984 -0.0005 0.5991
H20 H 0.8159 -0.0078 0.5368
H21 H 0.8761 -0.0447 0.6083
O6 O 0.9756(18) 0.3636(11) 1.4876(6)
loop_
_geom_bond_atom_site_label_1
_geom_bond_atom_site_label_2
_geom_bond_site_symmetry_1
_geom_bond_site_symmetry_2
Cd1 Cl1 1_555 1_555
C1 C2 1_555 1_555
C2 N1 1_555 1_555
C3 C4 1_555 1_555
C4 C7 1_555 1_555
C5 C3 1_555 1_555
C6 N1 1_555 1_555
C7 C8 1_555 1_555
C8 C9 1_555 1_555
C9 C10 1_555 1_555
C10 C11 1_555 1_555
C11 C12 1_555 1_555
C12 C7 1_555 1_555
N1 Cd1 1_555 1_555
O1 Cd1 1_555 1_555
O2 Cd1 1_555 1_555
O3 Cd1 1_555 1_555
O4 Cd1 1_555 1_555
S1 C13 1_555 1_555
C13 H16 1_555 1_555
C14 S1 1_555 1_555
O5 S1 1_555 1_555
H1 C2 1_555 1_555
H2 C2 1_555 1_555
H3 C3 1_555 1_555
H4 C4 1_555 1_555
H5 C5 1_555 1_555
H6 C5 1_555 1_555
H7 C5 1_555 1_555
H8 C6 1_555 1_555
H9 C6 1_555 1_555
H10 C6 1_555 1_555
H11 C8 1_555 1_555
H12 C9 1_555 1_555
H13 C10 1_555 1_555
H14 C11 1_555 1_555
H15 C12 1_555 1_555
H17 C13 1_555 1_555
H18 C13 1_555 1_555
H19 C14 1_555 1_555
H20 C14 1_555 1_555
H21 C14 1_555 1_555
O2B C1 1_555 1_555
Cd1B O3 1_555 1_555
O3B Cd1 1_555 1_555
C1 O3 1_555 1_555
C3 N1 1_555 1_555
C4 O4 1_555 1_555
O2B Cd1B 1_555 1_555

#END
