
#######################################################################
#
#                 Cambridge Crystallographic Data Centre
#                                CCDC 
#
#######################################################################
#
# If this CIF has been generated from an entry in the Cambridge 
# Structural Database, then it will include bibliographic, chemical, 
# crystal, experimental, refinement or atomic coordinate data resulting 
# from the CCDC's data processing and validation procedures.
#
#######################################################################

data_NOWMUJ
_symmetry_cell_setting           monoclinic
_symmetry_space_group_name_H-M   'P 21/n'
_symmetry_Int_Tables_number      14
_space_group_name_Hall           '-P 2yn'
loop_
_symmetry_equiv_pos_site_id
_symmetry_equiv_pos_as_xyz
1 x,y,z
2 1/2-x,1/2+y,1/2-z
3 -x,-y,-z
4 1/2+x,1/2-y,1/2+z
_cell_length_a                   7.404(3)
_cell_length_b                   9.672(3)
_cell_length_c                   9.341(3)
_cell_angle_alpha                90
_cell_angle_beta                 113.020(4)
_cell_angle_gamma                90
_cell_volume                     615.656
loop_
_atom_site_label
_atom_site_type_symbol
_atom_site_fract_x
_atom_site_fract_y
_atom_site_fract_z
N1 N -0.2227(9) 0.9756(7) 0.3536(7)
N2 N 0.1917(9) 0.5972(7) 0.1456(8)
N3 N 0.0060(8) 0.6483(6) 0.1077(7)
C1 C 0.3111(11) 0.6711(8) 0.2619(9)
H1 H 0.4462 0.6582 0.3075
Cu1 Cu 0.23931(12) 0.91597(9) 0.47028(10)
N4 N -0.0598(9) 0.9174(7) 0.3520(8)
N5 N 0.2137(9) 0.7680(7) 0.3072(7)
N6 N -0.3749(11) 0.9246(9) 0.2359(10)
N7 N -0.3154(11) 0.8337(9) 0.1545(10)
C2 C -0.1229(11) 0.8345(9) 0.2296(10)
C3 C 0.0283(10) 0.7509(8) 0.2073(8)
N1B N 0.2227(9) 1.0244(7) 0.6464(7)
N2A N 0.3083(9) 1.0972(7) 0.3544(8)
N3C N 0.5060(8) 0.8517(6) 0.6077(7)
Cu1A Cu 0.26069(12) 0.41597(9) 0.02972(10)
Cu1B Cu -0.23931(12) 1.08403(9) 0.52972(10)
Cu1C Cu -0.26069(12) 0.58403(9) -0.02972(10)
O1 O 0.679(3) 0.611(2) 0.454(3)
loop_
_geom_bond_atom_site_label_1
_geom_bond_atom_site_label_2
_geom_bond_site_symmetry_1
_geom_bond_site_symmetry_2
N1 N4 1_555 1_555
N2 N3 1_555 1_555
N3 C3 1_555 1_555
C1 N2 1_555 1_555
H1 C1 1_555 1_555
Cu1 N4 1_555 1_555
N4 C2 1_555 1_555
N5 C1 1_555 1_555
N6 N1 1_555 1_555
N7 N6 1_555 1_555
C2 N7 1_555 1_555
C3 N5 1_555 1_555
N1B Cu1 1_555 1_555
N2A Cu1 1_555 1_555
N3C Cu1 1_555 1_555
Cu1A N2 1_555 1_555
Cu1B N1 1_555 1_555
Cu1C N3 1_555 1_555
Cu1 N5 1_555 1_555
C2 C3 1_555 1_555

#END
