
#######################################################################
#
#                 Cambridge Crystallographic Data Centre
#                                CCDC 
#
#######################################################################
#
# If this CIF has been generated from an entry in the Cambridge 
# Structural Database, then it will include bibliographic, chemical, 
# crystal, experimental, refinement or atomic coordinate data resulting 
# from the CCDC's data processing and validation procedures.
#
#######################################################################

data_NOWNAQ
_symmetry_cell_setting           monoclinic
_symmetry_space_group_name_H-M   'P 21/c'
_symmetry_Int_Tables_number      14
_space_group_name_Hall           '-P 2ybc'
loop_
_symmetry_equiv_pos_site_id
_symmetry_equiv_pos_as_xyz
1 x,y,z
2 -x,1/2+y,1/2-z
3 -x,-y,-z
4 x,1/2-y,1/2+z
_cell_length_a                   8.630(3)
_cell_length_b                   9.867(3)
_cell_length_c                   6.736(2)
_cell_angle_alpha                90
_cell_angle_beta                 108.297(6)
_cell_angle_gamma                90
_cell_volume                     544.586
loop_
_atom_site_label
_atom_site_type_symbol
_atom_site_fract_x
_atom_site_fract_y
_atom_site_fract_z
Cu1 Cu 0.5910(2) 0.16584(16) 0.5678(3)
N1 N 0.4432(12) 0.3238(10) 0.6052(15)
N2 N 0.4727(13) 0.4000(11) 0.7745(19)
N3 N 0.3818(12) 0.5136(11) 0.7267(18)
N4 N 0.3328(13) 0.3820(11) 0.442(2)
N5 N 0.1915(12) 0.7274(11) 0.3980(18)
N6 N 0.0453(12) 0.7699(10) 0.2726(19)
H1 H 0.0183 0.8529 0.2406
N7 N 0.0241(14) 0.5505(11) 0.280(2)
C1 C 0.3002(16) 0.4971(12) 0.523(2)
C2 C 0.1728(16) 0.5960(13) 0.397(2)
C3 C -0.0491(16) 0.6649(14) 0.208(2)
H2 H -0.1562 0.6706 0.1195
Cu1A Cu 0.4090(2) 0.66584(16) 0.9322(3)
Cu1B Cu 0.4090(2) 0.83416(16) 0.4322(3)
Cu1C Cu 0.5910(2) 0.33416(16) 1.0678(3)
N2C N 0.4727(13) 0.1000(11) 0.2745(19)
N3A N 0.6182(12) 0.0136(11) 0.7733(18)
N5B N 0.8085(12) 0.2726(11) 0.6020(18)
loop_
_geom_bond_atom_site_label_1
_geom_bond_atom_site_label_2
_geom_bond_site_symmetry_1
_geom_bond_site_symmetry_2
Cu1 N1 1_555 1_555
N1 N2 1_555 1_555
N2 N3 1_555 1_555
N3 C1 1_555 1_555
N4 N1 1_555 1_555
N5 N6 1_555 1_555
N6 H1 1_555 1_555
N7 C2 1_555 1_555
C1 N4 1_555 1_555
C2 N5 1_555 1_555
C3 N6 1_555 1_555
H2 C3 1_555 1_555
Cu1A N3 1_555 1_555
Cu1B N5 1_555 1_555
Cu1C N2 1_555 1_555
N2C Cu1 1_555 1_555
N3A Cu1 1_555 1_555
N5B Cu1 1_555 1_555
N7 C3 1_555 1_555
C1 C2 1_555 1_555

#END
