
#######################################################################
#
#                 Cambridge Crystallographic Data Centre
#                                CCDC 
#
#######################################################################
#
# If this CIF has been generated from an entry in the Cambridge 
# Structural Database, then it will include bibliographic, chemical, 
# crystal, experimental, refinement or atomic coordinate data resulting 
# from the CCDC's data processing and validation procedures.
#
#######################################################################

data_NOWTIE
_symmetry_cell_setting           monoclinic
_symmetry_space_group_name_H-M   'C 2/c'
_symmetry_Int_Tables_number      15
_space_group_name_Hall           '-C 2yn'
loop_
_symmetry_equiv_pos_site_id
_symmetry_equiv_pos_as_xyz
1 x,y,z
2 -x,y,1/2-z
3 1/2+x,1/2+y,z
4 1/2-x,1/2+y,1/2-z
5 -x,-y,-z
6 x,-y,1/2+z
7 1/2-x,1/2-y,-z
8 1/2+x,1/2-y,1/2+z
_cell_length_a                   31.720(8)
_cell_length_b                   9.729(3)
_cell_length_c                   15.103(5)
_cell_angle_alpha                90
_cell_angle_beta                 102.79(2)
_cell_angle_gamma                90
_cell_volume                     4545.2
loop_
_atom_site_label
_atom_site_type_symbol
_atom_site_fract_x
_atom_site_fract_y
_atom_site_fract_z
Cd1 Cd 0.798347(6) 0.631370(18) 0.980947(12)
O1 O 0.75570(5) 0.84653(17) 0.93548(11)
O2 O 0.72611(6) 0.9620(2) 0.80666(12)
O3 O 0.78405(6) 1.13077(18) 0.69700(13)
O4 O 0.74224(6) 0.97083(19) 0.61389(11)
O5 O 0.93253(7) 0.8118(2) 0.73457(15)
O6 O 0.89642(7) 0.6403(2) 0.65330(17)
O7 O 0.91210(7) 0.5569(3) 0.85664(16)
O8 O 0.86745(6) 0.5499(2) 0.95162(13)
O9 O 0.83910(6) 0.76447(19) 1.09583(12)
H1 H 0.8599 0.7143 1.1311
H2 H 0.8224 0.7994 1.1310
O10 O 0.81434(6) 0.4372(2) 1.07110(12)
N1 N 0.81678(7) 0.7429(2) 0.85729(14)
N2 N 0.83445(7) 0.8630(2) 0.70361(14)
C1 C 0.75404(8) 0.8864(3) 0.85474(17)
C2 C 0.79067(8) 0.8399(2) 0.81278(16)
C3 C 0.79935(8) 0.8981(3) 0.73407(17)
C4 C 0.77258(8) 1.0108(3) 0.67919(16)
C5 C 0.90028(9) 0.7364(3) 0.71027(18)
C6 C 0.86069(8) 0.7669(3) 0.74962(17)
C7 C 0.85150(8) 0.7037(3) 0.82695(17)
C8 C 0.87905(9) 0.5938(3) 0.88367(18)
H3 H 0.8033(9) 0.466(3) 1.1144(18)
H4 H 0.8406(7) 0.412(4) 1.089(3)
Cd1C Cd 0.701653(6) 1.131370(18) 0.519053(12)
Cd1F Cd 0.701653(6) 0.868630(18) 1.019053(12)
O1F O 0.74430(5) 0.65347(17) 1.06452(11)
O4C O 0.75776(6) 0.47083(19) 0.88611(11)
N3 N 1.03476(8) 0.6221(2) 1.05004(17)
H5 H 1.0552 0.5627 1.0728
N4 N 0.81178(8) 1.2554(2) 0.89723(16)
H6 H 0.7923 1.3207 0.8823
C9 C 1.03818(10) 0.6955(3) 0.9766(2)
H7 H 1.0619 0.6806 0.9489
C10 C 1.00719(9) 0.7925(3) 0.9413(2)
H8 H 1.0097 0.8449 0.8897
C11 C 0.97225(9) 0.8134(3) 0.98144(19)
C12 C 0.96918(9) 0.7314(3) 1.0561(2)
H9 H 0.9451 0.7412 1.0836
C13 C 1.00104(10) 0.6362(3) 1.0900(2)
H10 H 0.9992 0.5813 1.1410
C14 C 0.94011(9) 0.9205(3) 0.9455(2)
H11 H 0.9448 0.9749 0.8963
C15 C 0.90505(9) 0.9460(3) 0.9772(2)
H12 H 0.9002 0.8887 1.0249
C16 C 0.87297(9) 1.0543(3) 0.94559(19)
C17 C 0.83818(10) 1.0648(3) 0.9882(2)
H13 H 0.8355 1.0021 1.0349
C18 C 0.80779(10) 1.1664(3) 0.9621(2)
H14 H 0.7839 1.1732 0.9903
C19 C 0.84447(10) 1.2494(3) 0.85362(19)
H15 H 0.8460 1.3140 0.8073
C20 C 0.87560(9) 1.1490(3) 0.8767(2)
H16 H 0.8987 1.1438 0.8462
O11 O 0.90785(8) 0.6412(3) 1.2057(2)
H17 H 0.9163 0.5672 1.1823
H18 H 0.9292 0.6992 1.2187
O12 O 1.0000 0.5912(3) 0.7500
H19 H 1.0178 0.6599 0.7525
H19A H 0.9822 0.6599 0.7475
O13 O 0.95539(9) 1.0940(3) 0.75113(18)
H20 H 0.9406 1.0194 0.7344
H21 H 0.9674 1.1215 0.7077
H22? H 0.9736 0.6218 0.7399
loop_
_geom_bond_atom_site_label_1
_geom_bond_atom_site_label_2
_geom_bond_site_symmetry_1
_geom_bond_site_symmetry_2
Cd1 O1 1_555 1_555
O1 C1 1_555 1_555
O2 C1 1_555 1_555
O3 C4 1_555 1_555
O4 C4 1_555 1_555
O5 C5 1_555 1_555
O6 C5 1_555 1_555
O7 C8 1_555 1_555
O8 Cd1 1_555 1_555
O9 Cd1 1_555 1_555
H1 O9 1_555 1_555
H2 O9 1_555 1_555
O10 Cd1 1_555 1_555
N1 Cd1 1_555 1_555
N2 C3 1_555 1_555
C1 C2 1_555 1_555
C2 N1 1_555 1_555
C3 C2 1_555 1_555
C4 C3 1_555 1_555
C5 C6 1_555 1_555
C6 N2 1_555 1_555
C7 N1 1_555 1_555
C8 O8 1_555 1_555
H3 O10 1_555 1_555
H4 O10 1_555 1_555
N3 H5 1_555 1_555
N4 H6 1_555 1_555
C9 N3 1_555 1_555
H7 C9 1_555 1_555
C10 C9 1_555 1_555
H8 C10 1_555 1_555
C11 C10 1_555 1_555
C12 C11 1_555 1_555
H9 C12 1_555 1_555
C13 N3 1_555 1_555
H10 C13 1_555 1_555
C14 C11 1_555 1_555
H11 C14 1_555 1_555
C15 C14 1_555 1_555
H12 C15 1_555 1_555
C16 C15 1_555 1_555
C17 C16 1_555 1_555
H13 C17 1_555 1_555
C18 N4 1_555 1_555
H14 C18 1_555 1_555
C19 N4 1_555 1_555
H15 C19 1_555 1_555
C20 C16 1_555 1_555
H16 C20 1_555 1_555
O11 H17 1_555 1_555
H18 O11 1_555 1_555
O12 H19 1_555 1_555
O13 H20 1_555 1_555
H21 O13 1_555 1_555
Cd1C O4 1_555 1_555
Cd1F O1 1_555 1_555
O1F Cd1 1_555 1_555
O4C Cd1 1_555 1_555
H19A O12 1_555 1_555
C6 C7 1_555 1_555
C7 C8 1_555 1_555
C12 C13 1_555 1_555
C17 C18 1_555 1_555
C19 C20 1_555 1_555
Cd1F O1F 1_555 1_555

#END
