
#######################################################################
#
#                 Cambridge Crystallographic Data Centre
#                                CCDC 
#
#######################################################################
#
# If this CIF has been generated from an entry in the Cambridge 
# Structural Database, then it will include bibliographic, chemical, 
# crystal, experimental, refinement or atomic coordinate data resulting 
# from the CCDC's data processing and validation procedures.
#
#######################################################################

data_NOWWON
_symmetry_cell_setting           monoclinic
_symmetry_space_group_name_H-M   'C 2/c'
_symmetry_Int_Tables_number      15
_space_group_name_Hall           '-C 2yn'
loop_
_symmetry_equiv_pos_site_id
_symmetry_equiv_pos_as_xyz
1 x,y,z
2 -x,y,1/2-z
3 1/2+x,1/2+y,z
4 1/2-x,1/2+y,1/2-z
5 -x,-y,-z
6 x,-y,1/2+z
7 1/2-x,1/2-y,-z
8 1/2+x,1/2-y,1/2+z
_cell_length_a                   13.8076(4)
_cell_length_b                   18.3504(6)
_cell_length_c                   8.9787(2)
_cell_angle_alpha                90
_cell_angle_beta                 98.363(3)
_cell_angle_gamma                90
_cell_volume                     2250.79
loop_
_atom_site_label
_atom_site_type_symbol
_atom_site_fract_x
_atom_site_fract_y
_atom_site_fract_z
Co1 Co 0.0000 0.44797(4) -0.2500
O1 O 0.1096(2) 0.43956(17) -0.0653(3)
O2 O 0.0831(2) 0.46996(18) 0.1666(3)
N1 N -0.0818(3) 0.3658(2) -0.1501(4)
C1 C 0.2440(3) 0.4368(3) 0.1283(5)
C2 C 0.3021(3) 0.3972(3) 0.0440(5)
H1 H 0.2735 0.3762 -0.0460
C3 C 0.4026(3) 0.3879(3) 0.0900(5)
C4 C 0.4454(3) 0.4203(3) 0.2247(5)
C5 C 0.3857(3) 0.4582(3) 0.3098(5)
H2 H 0.4137 0.4786 0.4008
C6 C 0.2865(3) 0.4666(3) 0.2645(5)
H3 H 0.2485 0.4921 0.3245
C7 C 0.4613(3) 0.3431(3) -0.0072(5)
H4 H 0.4994 0.3750 -0.0605
H5 H 0.4175 0.3151 -0.0780
H6 H 0.5042 0.3108 0.0555
C8 C 0.1365(3) 0.4499(2) 0.0727(5)
C9 C -0.1276(3) 0.3115(2) -0.2305(5)
H7 H -0.1146 0.3046 -0.3283
C10 C -0.1928(3) 0.2651(3) -0.1773(5)
H8 H -0.2227 0.2282 -0.2385
C11 C -0.2141(3) 0.2736(3) -0.0304(5)
C12 C -0.1635(3) 0.3291(3) 0.0543(5)
H9 H -0.1735 0.3365 0.1534
C13 C -0.0990(3) 0.3730(3) -0.0075(5)
H10 H -0.0659 0.4092 0.0521
O1A O 0.8904(2) 0.43956(17) 0.5653(3)
O2A O 0.9169(2) 0.46996(18) 0.3334(3)
C1A C 0.7560(3) 0.4368(3) 0.3717(5)
C2A C 0.6979(3) 0.3972(3) 0.4560(5)
H1A H 0.7265 0.3762 0.5460
C3A C 0.5974(3) 0.3879(3) 0.4100(5)
C4A C 0.5546(3) 0.4203(3) 0.2753(5)
C5A C 0.6143(3) 0.4582(3) 0.1902(5)
H2A H 0.5863 0.4786 0.0992
C6A C 0.7135(3) 0.4666(3) 0.2355(5)
H3A H 0.7515 0.4921 0.1755
C7A C 0.5387(3) 0.3431(3) 0.5072(5)
H4A H 0.5006 0.3750 0.5605
H5A H 0.5825 0.3151 0.5780
H6A H 0.4958 0.3108 0.4445
C8A C 0.8635(3) 0.4499(2) 0.4273(5)
N1F N -0.4182(3) 0.1342(2) 0.1501(4)
C9F C -0.3724(3) 0.1885(2) 0.2305(5)
H7F H -0.3854 0.1954 0.3283
C10F C -0.3072(3) 0.2349(3) 0.1773(5)
H8F H -0.2773 0.2718 0.2385
C11F C -0.2859(3) 0.2264(3) 0.0304(5)
C12F C -0.3365(3) 0.1709(3) -0.0543(5)
H9F H -0.3265 0.1635 -0.1534
C13F C -0.4010(3) 0.1270(3) 0.0075(5)
H10F H -0.4341 0.0908 -0.0521
Co1_2 Co 1.0000 0.44797(4) 0.7500
Co1D Co 0.0000 0.55203(4) 0.2500
Co1D_2 Co 1.0000 0.55203(4) 0.2500
Co1F Co -0.5000 0.05203(4) 0.2500
O1A_2 O -0.1096(2) 0.43956(17) -0.4347(3)
O2D O -0.0831(2) 0.53004(18) -0.1666(3)
O2E O 0.0831(2) 0.53004(18) -0.3334(3)
N1A N 0.0818(3) 0.3658(2) -0.3499(4)
loop_
_geom_bond_atom_site_label_1
_geom_bond_atom_site_label_2
_geom_bond_site_symmetry_1
_geom_bond_site_symmetry_2
Co1 O1 1_555 1_555
O1 C8 1_555 1_555
O2 C8 1_555 1_555
N1 Co1 1_555 1_555
C1 C2 1_555 1_555
C2 H1 1_555 1_555
C3 C2 1_555 1_555
C4 C3 1_555 1_555
C5 C4 1_555 1_555
H2 C5 1_555 1_555
C6 C1 1_555 1_555
H3 C6 1_555 1_555
C7 C3 1_555 1_555
H4 C7 1_555 1_555
H5 C7 1_555 1_555
H6 C7 1_555 1_555
C8 C1 1_555 1_555
C9 N1 1_555 1_555
H7 C9 1_555 1_555
C10 C9 1_555 1_555
H8 C10 1_555 1_555
C11 C10 1_555 1_555
C12 C11 1_555 1_555
H9 C12 1_555 1_555
C13 N1 1_555 1_555
H10 C13 1_555 1_555
O1A C8A 1_555 1_555
O2A C8A 1_555 1_555
C1A C2A 1_555 1_555
C2A H1A 1_555 1_555
C3A C2A 1_555 1_555
C4A C4 1_555 1_555
C5A C4A 1_555 1_555
H2A C5A 1_555 1_555
C6A C1A 1_555 1_555
H3A C6A 1_555 1_555
C7A C3A 1_555 1_555
H4A C7A 1_555 1_555
H5A C7A 1_555 1_555
H6A C7A 1_555 1_555
C8A C1A 1_555 1_555
N1F C9F 1_555 1_555
C9F H7F 1_555 1_555
C10F C9F 1_555 1_555
H8F C10F 1_555 1_555
C11F C11 1_555 1_555
C12F C11F 1_555 1_555
H9F C12F 1_555 1_555
C13F N1F 1_555 1_555
H10F C13F 1_555 1_555
Co1_2 O1A 1_555 1_555
Co1D O2 1_555 1_555
Co1D_2 O2A 1_555 1_555
Co1F N1F 1_555 1_555
O1A_2 Co1 1_555 1_555
O2D Co1 1_555 1_555
O2E Co1 1_555 1_555
N1A Co1 1_555 1_555
C5 C6 1_555 1_555
C12 C13 1_555 1_555
C3A C4A 1_555 1_555
C5A C6A 1_555 1_555
C10F C11F 1_555 1_555
C12F C13F 1_555 1_555

#END
