
#######################################################################
#
#                 Cambridge Crystallographic Data Centre
#                                CCDC 
#
#######################################################################
#
# If this CIF has been generated from an entry in the Cambridge 
# Structural Database, then it will include bibliographic, chemical, 
# crystal, experimental, refinement or atomic coordinate data resulting 
# from the CCDC's data processing and validation procedures.
#
#######################################################################

data_NOWWUT
_symmetry_cell_setting           monoclinic
_symmetry_space_group_name_H-M   'C 2/c'
_symmetry_Int_Tables_number      15
_space_group_name_Hall           '-C 2yn'
loop_
_symmetry_equiv_pos_site_id
_symmetry_equiv_pos_as_xyz
1 x,y,z
2 -x,y,1/2-z
3 1/2+x,1/2+y,z
4 1/2-x,1/2+y,1/2-z
5 -x,-y,-z
6 x,-y,1/2+z
7 1/2-x,1/2-y,-z
8 1/2+x,1/2-y,1/2+z
_cell_length_a                   26.900(3)
_cell_length_b                   7.5051(6)
_cell_length_c                   10.8058(7)
_cell_angle_alpha                90
_cell_angle_beta                 105.857(7)
_cell_angle_gamma                90
_cell_volume                     2098.54
loop_
_atom_site_label
_atom_site_type_symbol
_atom_site_fract_x
_atom_site_fract_y
_atom_site_fract_z
Zn1 Zn 0.21556(2) -0.15630(8) 0.72931(6)
N1 N 0.19028(16) -0.0229(6) 0.5666(4)
N2 N 0.19106(16) 0.1029(6) 0.3802(4)
O1 O 0.29064(13) -0.1817(5) 0.7486(3)
O2 O 0.30036(13) 0.0919(5) 0.8286(3)
C1 C 0.31804(19) -0.0460(7) 0.7897(5)
C2 C 0.3730(2) -0.0492(7) 0.7851(5)
C3 C 0.3894(2) -0.1802(7) 0.7131(5)
H1 H 0.3670 -0.2703 0.6734
C4 C 0.43914(19) -0.1747(7) 0.7013(5)
H2 H 0.4500 -0.2623 0.6537
C5 C 0.47362(19) -0.0399(7) 0.7595(5)
C6 C 0.4581(2) 0.0886(7) 0.8365(5)
C7 C 0.40757(19) 0.0803(7) 0.8474(5)
H3 H 0.3968 0.1643 0.8979
C8 C 0.4941(2) 0.2336(7) 0.9051(5)
H4 H 0.5207 0.1822 0.9738
H5 H 0.4750 0.3191 0.9398
H6 H 0.5095 0.2916 0.8455
C9 C 0.14494(19) 0.0699(7) 0.5208(5)
H7 H 0.1184 0.0782 0.5605
C10 C 0.1455(2) 0.1472(7) 0.4078(5)
H8 H 0.1195 0.2184 0.3573
C11 C 0.21586(19) 0.0013(8) 0.4794(5)
H9 H 0.2482 -0.0480 0.4865
O1A O 0.70936(13) -0.1817(5) 0.7514(3)
O2A O 0.69964(13) 0.0919(5) 0.6714(3)
C1A C 0.68196(19) -0.0460(7) 0.7103(5)
C2A C 0.6270(2) -0.0492(7) 0.7149(5)
C3A C 0.6106(2) -0.1802(7) 0.7869(5)
H1A H 0.6330 -0.2703 0.8266
C4A C 0.56086(19) -0.1747(7) 0.7987(5)
H2A H 0.5500 -0.2623 0.8463
C5A C 0.52638(19) -0.0399(7) 0.7405(5)
C6A C 0.5419(2) 0.0886(7) 0.6635(5)
C7A C 0.59243(19) 0.0803(7) 0.6526(5)
H3A H 0.6032 0.1643 0.6021
C8A C 0.5059(2) 0.2336(7) 0.5949(5)
H4A H 0.4793 0.1822 0.5262
H5A H 0.5250 0.3191 0.5602
H6A H 0.4905 0.2916 0.6545
Zn1A Zn 0.78444(2) -0.15630(8) 0.77069(6)
N1A N 0.80972(16) -0.0229(6) 0.9334(4)
N2A N 0.80894(16) 0.1029(6) 1.1198(4)
C9A C 0.85506(19) 0.0699(7) 0.9792(5)
H7A H 0.8816 0.0782 0.9395
C10A C 0.8545(2) 0.1472(7) 1.0922(5)
H8A H 0.8805 0.2184 1.1427
C11A C 0.78414(19) 0.0013(8) 1.0206(5)
H9A H 0.7518 -0.0480 1.0135
Zn1B Zn 0.71556(2) 0.34370(8) 0.72931(6)
Zn1C Zn 0.28444(2) 0.34370(8) 0.77069(6)
Zn1D Zn 0.78444(2) 0.15630(8) 1.27069(6)
Zn1E Zn 0.21556(2) 0.15630(8) 0.22931(6)
N2D N 0.80894(16) -0.1029(6) 0.6198(4)
N2E N 0.19106(16) -0.1029(6) 0.8802(4)
O2B O 0.80036(13) -0.4081(5) 0.8286(3)
O2C O 0.19964(13) -0.4081(5) 0.6714(3)
loop_
_geom_bond_atom_site_label_1
_geom_bond_atom_site_label_2
_geom_bond_site_symmetry_1
_geom_bond_site_symmetry_2
Zn1 N1 1_555 1_555
N1 C9 1_555 1_555
N2 C10 1_555 1_555
O1 Zn1 1_555 1_555
O2 C1 1_555 1_555
C1 O1 1_555 1_555
C2 C1 1_555 1_555
C3 C2 1_555 1_555
H1 C3 1_555 1_555
C4 C3 1_555 1_555
H2 C4 1_555 1_555
C5 C4 1_555 1_555
C6 C5 1_555 1_555
C7 C2 1_555 1_555
H3 C7 1_555 1_555
C8 C6 1_555 1_555
H4 C8 1_555 1_555
H5 C8 1_555 1_555
H6 C8 1_555 1_555
C9 H7 1_555 1_555
C10 C9 1_555 1_555
H8 C10 1_555 1_555
C11 N1 1_555 1_555
H9 C11 1_555 1_555
O1A C1A 1_555 1_555
O2A C1A 1_555 1_555
C1A C2A 1_555 1_555
C2A C3A 1_555 1_555
C3A H1A 1_555 1_555
C4A C3A 1_555 1_555
H2A C4A 1_555 1_555
C5A C5 1_555 1_555
C6A C5A 1_555 1_555
C7A C2A 1_555 1_555
H3A C7A 1_555 1_555
C8A C6A 1_555 1_555
H4A C8A 1_555 1_555
H5A C8A 1_555 1_555
H6A C8A 1_555 1_555
Zn1A O1A 1_555 1_555
N1A Zn1A 1_555 1_555
N2A C10A 1_555 1_555
C9A N1A 1_555 1_555
H7A C9A 1_555 1_555
C10A C9A 1_555 1_555
H8A C10A 1_555 1_555
C11A N1A 1_555 1_555
H9A C11A 1_555 1_555
Zn1B O2A 1_555 1_555
Zn1C O2 1_555 1_555
Zn1D N2A 1_555 1_555
Zn1E N2 1_555 1_555
N2D Zn1A 1_555 1_555
N2E Zn1 1_555 1_555
O2B Zn1A 1_555 1_555
O2C Zn1 1_555 1_555
N2 C11 1_555 1_555
C6 C7 1_555 1_555
C4A C5A 1_555 1_555
C6A C7A 1_555 1_555
N2A C11A 1_555 1_555

#END
