
#######################################################################
#
#                 Cambridge Crystallographic Data Centre
#                                CCDC 
#
#######################################################################
#
# If this CIF has been generated from an entry in the Cambridge 
# Structural Database, then it will include bibliographic, chemical, 
# crystal, experimental, refinement or atomic coordinate data resulting 
# from the CCDC's data processing and validation procedures.
#
#######################################################################

data_NOXYAC
_symmetry_cell_setting           monoclinic
_symmetry_space_group_name_H-M   'P 21/c'
_symmetry_Int_Tables_number      14
_space_group_name_Hall           '-P 2ybc'
loop_
_symmetry_equiv_pos_site_id
_symmetry_equiv_pos_as_xyz
1 x,y,z
2 -x,1/2+y,1/2-z
3 -x,-y,-z
4 x,1/2-y,1/2+z
_cell_length_a                   16.3475(19)
_cell_length_b                   8.6120(10)
_cell_length_c                   29.989(4)
_cell_angle_alpha                90
_cell_angle_beta                 104.728(2)
_cell_angle_gamma                90
_cell_volume                     4083.27
loop_
_atom_site_label
_atom_site_type_symbol
_atom_site_fract_x
_atom_site_fract_y
_atom_site_fract_z
Ag1 Ag 0.73322(3) 0.57971(6) 0.236158(18)
N1 N 0.8132(3) 0.7718(5) 0.21953(16)
N2 N 0.9148(3) 1.2469(6) 0.08196(15)
H1 H 0.8999 1.2767 0.0537
N3 N 1.1266(3) 0.9041(6) 0.16841(16)
N4 N 0.8233(3) 1.3780(6) 0.21468(18)
C1 C 0.8169(3) 0.7872(6) 0.1764(2)
H2 H 0.7851 0.7199 0.1545
C2 C 0.8664(3) 0.8996(6) 0.16185(18)
H3 H 0.8671 0.9049 0.1310
C3 C 0.9137(3) 1.0013(6) 0.19285(17)
C4 C 0.9133(3) 0.9861(6) 0.24018(16)
C5 C 0.8599(3) 0.8695(6) 0.25162(19)
C6 C 0.8567(4) 0.8547(7) 0.2984(2)
H4 H 0.8218 0.7797 0.3062
C7 C 0.9035(4) 0.9476(8) 0.3319(2)
H5 H 0.8997 0.9375 0.3621
C8 C 0.9573(4) 1.0581(7) 0.3207(2)
H6 H 0.9907 1.1188 0.3440
C9 C 0.9619(3) 1.0789(7) 0.27641(18)
H7 H 0.9974 1.1551 0.2698
C10 C 0.9584(3) 1.1348(6) 0.17580(16)
H8 H 1.0012 1.1773 0.2020
C11 C 1.0014(3) 1.0880(6) 0.13847(17)
C12 C 0.9791(3) 1.1409(7) 0.09467(18)
C13 C 0.8734(3) 1.3072(6) 0.11199(19)
C14 C 0.8952(3) 1.2604(6) 0.15658(17)
C15 C 1.0708(3) 0.9842(6) 0.15289(17)
C16 C 1.0213(4) 1.0935(8) 0.0577(2)
H9 H 0.9794 1.0563 0.0313
H10 H 1.0615 1.0126 0.0692
H11 H 1.0499 1.1814 0.0490
C17 C 0.8070(4) 1.4239(7) 0.0923(2)
H12 H 0.7718 1.4394 0.1132
H13 H 0.7730 1.3872 0.0633
H14 H 0.8332 1.5204 0.0878
C18 C 0.8539(3) 1.3293(6) 0.18762(19)
Ag2 Ag 0.21266(3) 0.74318(6) 0.209609(17)
N5 N 0.3133(2) 0.5912(5) 0.24774(15)
N6 N 0.5972(3) 0.3460(6) 0.42347(16)
H15 H 0.6185 0.3656 0.4522
N7 N 0.6653(3) 0.5105(6) 0.28619(18)
N8 N 0.3649(3) 0.0417(7) 0.3393(2)
C19 C 0.3333(3) 0.5857(7) 0.2932(2)
H16 H 0.3029 0.6479 0.3087
C20 C 0.3978(3) 0.4916(6) 0.31966(19)
H17 H 0.4083 0.4904 0.3516
C21 C 0.4452(3) 0.4016(6) 0.29815(17)
C22 C 0.4273(3) 0.4072(6) 0.24909(17)
C23 C 0.3583(3) 0.5005(6) 0.22477(17)
C24 C 0.3367(3) 0.5023(7) 0.17636(19)
H18 H 0.2909 0.5616 0.1606
C25 C 0.3816(4) 0.4189(7) 0.15193(19)
H19 H 0.3656 0.4202 0.1199
C26 C 0.4514(4) 0.3317(7) 0.17510(19)
H20 H 0.4834 0.2785 0.1585
C27 C 0.4730(3) 0.3243(6) 0.22214(18)
H21 H 0.5188 0.2633 0.2370
C28 C 0.5165(3) 0.3014(6) 0.32685(17)
H22 H 0.5299 0.2205 0.3068
C29 C 0.5967(3) 0.3969(7) 0.34648(19)
C30 C 0.6318(3) 0.4178(7) 0.3918(2)
C31 C 0.5307(3) 0.2449(7) 0.41197(19)
C32 C 0.4919(3) 0.2229(6) 0.36694(19)
C33 C 0.6358(3) 0.4628(7) 0.3141(2)
C34 C 0.7071(4) 0.5156(9) 0.4115(2)
H23 H 0.7281 0.5578 0.3869
H24 H 0.7503 0.4534 0.4312
H25 H 0.6917 0.5988 0.4290
C35 C 0.5077(4) 0.1640(9) 0.4514(2)
H26 H 0.4569 0.1048 0.4400
H27 H 0.4986 0.2397 0.4732
H28 H 0.5528 0.0958 0.4663
C36 C 0.4214(4) 0.1219(8) 0.3539(2)
Ag1_2 Ag 0.73322(3) 1.57971(6) 0.236158(18)
Ag1A Ag 0.26678(3) 0.07971(6) 0.263842(18)
N3_2 N 0.1266(3) 0.9041(6) 0.16841(16)
N4_2 N 0.8233(3) 0.3780(6) 0.21468(18)
Ag2_2 Ag 1.21266(3) 0.74318(6) 0.209609(17)
N8A N 0.6351(3) 0.5417(7) 0.1607(2)
P1 P 0.16123(14) 0.5777(4) 0.04917(7)
F1 F 0.1887(6) 0.4185(15) 0.0802(4)
F2 F 0.2557(10) 0.5997(16) 0.0481(7)
F3 F 0.1403(14) 0.723(2) 0.0203(4)
F4 F 0.0686(7) 0.5386(19) 0.0555(4)
F5 F 0.1771(9) 0.6639(15) 0.0963(4)
F6 F 0.1410(17) 0.475(3) 0.0050(6)
P2 P 0.32592(15) -0.0039(4) -0.05529(8)
F13 F 0.3576(19) 0.094(2) -0.0068(8)
F14 F 0.328(2) 0.143(4) -0.0850(11)
F15 F 0.3008(18) -0.121(4) -0.1021(9)
F16 F 0.329(3) -0.154(5) -0.0252(10)
F17 F 0.2348(18) 0.044(4) -0.0485(10)
F18 F 0.4209(10) -0.017(3) -0.0625(6)
O1 O 0.0674(7) 0.2513(12) -0.0698(4)
F7? F 0.169(3) 0.439(6) 0.0663(12)
F8? F 0.235(3) 0.565(10) 0.0304(19)
F9? F 0.133(3) 0.763(6) 0.0289(14)
F10? F 0.083(3) 0.637(5) 0.056(2)
F11? F 0.217(3) 0.674(6) 0.0903(11)
F12? F 0.121(3) 0.520(7) -0.0017(14)
F19? F 0.367(4) 0.076(8) -0.0109(15)
F20? F 0.307(3) 0.162(4) -0.0800(13)
F21? F 0.285(2) -0.075(4) -0.1014(10)
F22? F 0.342(6) -0.180(11) -0.033(2)
F23? F 0.232(3) -0.027(5) -0.0577(14)
F24? F 0.4144(17) -0.040(5) -0.0523(13)
O2? O 0.521(2) -0.248(3) 0.4288(9)
loop_
_geom_bond_atom_site_label_1
_geom_bond_atom_site_label_2
_geom_bond_site_symmetry_1
_geom_bond_site_symmetry_2
Ag1 N1 1_555 1_555
N1 C1 1_555 1_555
N2 H1 1_555 1_555
N3 C15 1_555 1_555
N4 C18 1_555 1_555
C1 H2 1_555 1_555
C2 C1 1_555 1_555
H3 C2 1_555 1_555
C3 C2 1_555 1_555
C4 C3 1_555 1_555
C5 N1 1_555 1_555
C6 C5 1_555 1_555
H4 C6 1_555 1_555
C7 C6 1_555 1_555
H5 C7 1_555 1_555
C8 C7 1_555 1_555
H6 C8 1_555 1_555
C9 C4 1_555 1_555
H7 C9 1_555 1_555
C10 C3 1_555 1_555
H8 C10 1_555 1_555
C11 C10 1_555 1_555
C12 N2 1_555 1_555
C13 N2 1_555 1_555
C14 C10 1_555 1_555
C15 C11 1_555 1_555
C16 C12 1_555 1_555
H9 C16 1_555 1_555
H10 C16 1_555 1_555
H11 C16 1_555 1_555
C17 C13 1_555 1_555
H12 C17 1_555 1_555
H13 C17 1_555 1_555
H14 C17 1_555 1_555
C18 C14 1_555 1_555
Ag2 N5 1_555 1_555
N5 C19 1_555 1_555
N6 H15 1_555 1_555
N7 Ag1 1_555 1_555
N8 C36 1_555 1_555
C19 H16 1_555 1_555
C20 C19 1_555 1_555
H17 C20 1_555 1_555
C21 C20 1_555 1_555
C22 C21 1_555 1_555
C23 N5 1_555 1_555
C24 C23 1_555 1_555
H18 C24 1_555 1_555
C25 C24 1_555 1_555
H19 C25 1_555 1_555
C26 C25 1_555 1_555
H20 C26 1_555 1_555
C27 C22 1_555 1_555
H21 C27 1_555 1_555
C28 C21 1_555 1_555
H22 C28 1_555 1_555
C29 C28 1_555 1_555
C30 N6 1_555 1_555
C31 N6 1_555 1_555
C32 C28 1_555 1_555
C33 N7 1_555 1_555
C34 C30 1_555 1_555
H23 C34 1_555 1_555
H24 C34 1_555 1_555
H25 C34 1_555 1_555
C35 C31 1_555 1_555
H26 C35 1_555 1_555
H27 C35 1_555 1_555
H28 C35 1_555 1_555
C36 C32 1_555 1_555
P1 F1 1_555 1_555
F2 P1 1_555 1_555
F3 P1 1_555 1_555
F4 P1 1_555 1_555
F5 P1 1_555 1_555
F6 P1 1_555 1_555
P2 F13 1_555 1_555
F14 P2 1_555 1_555
F15 P2 1_555 1_555
F16 P2 1_555 1_555
F17 P2 1_555 1_555
F18 P2 1_555 1_555
Ag1_2 N4 1_555 1_555
Ag1A N8 1_555 1_555
N3_2 Ag2 1_555 1_555
N4_2 Ag1 1_555 1_555
Ag2_2 N3 1_555 1_555
N8A Ag1 1_555 1_555
C4 C5 1_555 1_555
C8 C9 1_555 1_555
C11 C12 1_555 1_555
C13 C14 1_555 1_555
C22 C23 1_555 1_555
C26 C27 1_555 1_555
C29 C30 1_555 1_555
C29 C33 1_555 1_555
C31 C32 1_555 1_555

#END
