
#######################################################################
#
#                 Cambridge Crystallographic Data Centre
#                                CCDC 
#
#######################################################################
#
# If this CIF has been generated from an entry in the Cambridge 
# Structural Database, then it will include bibliographic, chemical, 
# crystal, experimental, refinement or atomic coordinate data resulting 
# from the CCDC's data processing and validation procedures.
#
#######################################################################

data_NOXYOQ
_symmetry_cell_setting           monoclinic
_symmetry_space_group_name_H-M   'P 21/c'
_symmetry_Int_Tables_number      14
_space_group_name_Hall           '-P 2ybc'
loop_
_symmetry_equiv_pos_site_id
_symmetry_equiv_pos_as_xyz
1 x,y,z
2 -x,1/2+y,1/2-z
3 -x,-y,-z
4 x,1/2-y,1/2+z
_cell_length_a                   10.0229(6)
_cell_length_b                   24.6728(14)
_cell_length_c                   15.0813(8)
_cell_angle_alpha                90
_cell_angle_beta                 98.3976(19)
_cell_angle_gamma                90
_cell_volume                     3689.51
loop_
_atom_site_label
_atom_site_type_symbol
_atom_site_fract_x
_atom_site_fract_y
_atom_site_fract_z
C1 C 0.61907(19) 0.23570(7) 0.44211(13)
H1 H 0.5407 0.2366 0.4752
H2 H 0.6824 0.2075 0.4694
C2 C 0.57257(19) 0.22239(7) 0.34474(14)
H3 H 0.6510 0.2212 0.3118
H4 H 0.5285 0.1864 0.3398
C3 C 0.50580(18) 0.31319(7) 0.33047(12)
C4 C 0.63202(18) 0.32535(7) 0.39345(12)
C5 C 0.41252(18) 0.35753(7) 0.29687(12)
C6 C 0.35253(18) 0.35851(7) 0.20704(12)
H5 H 0.3761 0.3317 0.1669
C7 C 0.25955(18) 0.39795(7) 0.17604(12)
H6 H 0.2189 0.3980 0.1151
C8 C 0.22535(18) 0.43777(7) 0.23446(13)
C9 C 0.28535(19) 0.43757(8) 0.32347(13)
H7 H 0.2628 0.4647 0.3634
C10 C 0.37802(19) 0.39783(8) 0.35380(13)
H8 H 0.4189 0.3980 0.4147
C11 C 0.0988(2) 0.51752(9) 0.25450(15)
H9 H 0.1784 0.5395 0.2762
H10 H 0.0637 0.5011 0.3056
H11 H 0.0293 0.5406 0.2211
C12 C 0.69447(18) 0.37957(7) 0.39037(12)
C13 C 0.72084(19) 0.40097(8) 0.30891(12)
H12 H 0.6993 0.3804 0.2554
C14 C 0.7778(2) 0.45168(8) 0.30551(12)
H13 H 0.7987 0.4653 0.2502
C15 C 0.80485(19) 0.48302(8) 0.38287(13)
C16 C 0.7806(2) 0.46193(8) 0.46412(13)
H14 H 0.8007 0.4828 0.5173
C17 C 0.7270(2) 0.41023(8) 0.46777(13)
H15 H 0.7125 0.3956 0.5239
C18 C 0.8636(2) 0.57068(8) 0.44493(14)
H16 H 0.9250 0.5562 0.4959
H17 H 0.7739 0.5757 0.4622
H18 H 0.8977 0.6056 0.4269
C19 C 1.04247(17) 0.22843(7) 0.42897(11)
C20 C 1.14154(17) 0.21901(7) 0.36557(11)
C21 C 1.06893(18) 0.30181(7) 0.30129(12)
H19 H 0.9772 0.2931 0.2706
H20 H 1.1062 0.3312 0.2675
C22 C 1.06168(18) 0.32044(7) 0.39586(12)
H21 H 1.1531 0.3300 0.4260
H22 H 1.0042 0.3531 0.3946
C23 C 0.98588(17) 0.18133(7) 0.47121(12)
C24 C 0.97064(18) 0.18201(7) 0.56157(12)
H23 H 0.9990 0.2127 0.5975
C25 C 0.91409(19) 0.13785(8) 0.59875(12)
H24 H 0.9035 0.1385 0.6603
C26 C 0.87271(19) 0.09274(8) 0.54721(12)
C27 C 0.8844(2) 0.09210(8) 0.45646(12)
H25 H 0.8532 0.0619 0.4202
C28 C 0.9423(2) 0.13619(7) 0.41957(12)
H26 H 0.9524 0.1356 0.3579
C29 C 0.7995(2) 0.00072(8) 0.54473(14)
H27 H 0.8775 -0.0082 0.5151
H28 H 0.7190 0.0039 0.4997
H29 H 0.7859 -0.0280 0.5874
C30 C 1.23067(18) 0.17097(7) 0.37502(12)
C31 C 1.30701(19) 0.15883(7) 0.45752(12)
H30 H 1.2933 0.1786 0.5094
C32 C 1.40265(19) 0.11800(7) 0.46399(12)
H31 H 1.4556 0.1103 0.5201
C33 C 1.42128(19) 0.08830(7) 0.38833(13)
C34 C 1.34328(19) 0.09879(7) 0.30645(12)
H32 H 1.3546 0.0778 0.2552
C35 C 1.24823(18) 0.14028(7) 0.29992(12)
H33 H 1.1949 0.1478 0.2439
C36 C 1.5390(3) 0.01722(10) 0.32675(16)
H34 H 1.5641 0.0410 0.2798
H35 H 1.4559 -0.0023 0.3038
H36 H 1.6117 -0.0089 0.3447
N1 N 0.68683(15) 0.28911(6) 0.44821(10)
N2 N 0.47653(15) 0.26424(6) 0.30562(10)
N3 N 1.00493(15) 0.27684(6) 0.44610(10)
N4 N 1.15556(15) 0.25341(6) 0.30322(10)
O1 O 0.13546(14) 0.47567(5) 0.19691(9)
O2 O 0.85491(15) 0.53352(5) 0.37158(9)
O3 O 0.82333(15) 0.05099(6) 0.59132(9)
O4 O 1.51756(14) 0.04903(6) 0.40227(9)
Cu1 Cu 0.86680(2) 0.29564(2) 0.52077(2)
Cu2 Cu 0.30137(2) 0.24362(2) 0.23082(2)
Br1 Br 0.89019(2) 0.32175(2) 0.67166(2)
Br2 Br 0.33498(2) 0.21156(2) 0.08856(2)
N4_2 N 0.15556(15) 0.25341(6) 0.30322(10)
Cu2_2 Cu 1.30137(2) 0.24362(2) 0.23082(2)
O5 O 0.6553(3) 0.21706(12) 0.6624(2)
H37 H 0.7230 0.2378 0.6551
H38 H 0.5808 0.2355 0.6516
O6 O 0.5838(2) 0.38142(8) 0.66522(14)
H39 H 0.527(3) 0.3575(13) 0.647(2)
H40 H 0.659(4) 0.3658(14) 0.668(2)
O7 O 0.4633(8) 0.4614(3) 0.5651(4)
H41 H 0.5087 0.4386 0.6017
H42 H 0.4586 0.4923 0.5920
loop_
_geom_bond_atom_site_label_1
_geom_bond_atom_site_label_2
_geom_bond_site_symmetry_1
_geom_bond_site_symmetry_2
C1 H1 1_555 1_555
H2 C1 1_555 1_555
C2 C1 1_555 1_555
H3 C2 1_555 1_555
H4 C2 1_555 1_555
C3 C4 1_555 1_555
C4 C12 1_555 1_555
C5 C3 1_555 1_555
C6 C5 1_555 1_555
H5 C6 1_555 1_555
C7 C6 1_555 1_555
H6 C7 1_555 1_555
C8 C7 1_555 1_555
C9 C8 1_555 1_555
H7 C9 1_555 1_555
C10 C5 1_555 1_555
H8 C10 1_555 1_555
C11 H9 1_555 1_555
H10 C11 1_555 1_555
H11 C11 1_555 1_555
C12 C13 1_555 1_555
C13 H12 1_555 1_555
C14 C13 1_555 1_555
H13 C14 1_555 1_555
C15 C14 1_555 1_555
C16 C15 1_555 1_555
H14 C16 1_555 1_555
C17 C12 1_555 1_555
H15 C17 1_555 1_555
C18 H16 1_555 1_555
H17 C18 1_555 1_555
H18 C18 1_555 1_555
C19 C20 1_555 1_555
C20 C30 1_555 1_555
C21 H19 1_555 1_555
H20 C21 1_555 1_555
C22 C21 1_555 1_555
H21 C22 1_555 1_555
H22 C22 1_555 1_555
C23 C19 1_555 1_555
C24 C23 1_555 1_555
H23 C24 1_555 1_555
C25 C24 1_555 1_555
H24 C25 1_555 1_555
C26 C25 1_555 1_555
C27 C26 1_555 1_555
H25 C27 1_555 1_555
C28 C23 1_555 1_555
H26 C28 1_555 1_555
C29 H27 1_555 1_555
H28 C29 1_555 1_555
H29 C29 1_555 1_555
C30 C31 1_555 1_555
C31 H30 1_555 1_555
C32 C31 1_555 1_555
H31 C32 1_555 1_555
C33 C32 1_555 1_555
C34 C33 1_555 1_555
H32 C34 1_555 1_555
C35 C30 1_555 1_555
H33 C35 1_555 1_555
C36 H34 1_555 1_555
H35 C36 1_555 1_555
H36 C36 1_555 1_555
N1 C1 1_555 1_555
N2 C2 1_555 1_555
N3 C19 1_555 1_555
N4 C20 1_555 1_555
O1 C8 1_555 1_555
O2 C15 1_555 1_555
O3 C26 1_555 1_555
O4 C33 1_555 1_555
Cu1 N1 1_555 1_555
Cu2 N2 1_555 1_555
Br1 Cu1 1_555 1_555
Br2 Cu2 1_555 1_555
O5 H37 1_555 1_555
H38 O5 1_555 1_555
O6 H39 1_555 1_555
H40 O6 1_555 1_555
O7 H41 1_555 1_555
H42 O7 1_555 1_555
N4_2 Cu2 1_555 1_555
Cu2_2 N4 1_555 1_555
C3 N2 1_555 1_555
C4 N1 1_555 1_555
C9 C10 1_555 1_555
C11 O1 1_555 1_555
C16 C17 1_555 1_555
C18 O2 1_555 1_555
C21 N4 1_555 1_555
C22 N3 1_555 1_555
C27 C28 1_555 1_555
C29 O3 1_555 1_555
C34 C35 1_555 1_555
C36 O4 1_555 1_555
N3 Cu1 1_555 1_555

#END
