
#######################################################################
#
#                 Cambridge Crystallographic Data Centre
#                                CCDC 
#
#######################################################################
#
# If this CIF has been generated from an entry in the Cambridge 
# Structural Database, then it will include bibliographic, chemical, 
# crystal, experimental, refinement or atomic coordinate data resulting 
# from the CCDC's data processing and validation procedures.
#
#######################################################################

data_NOXYIK
_symmetry_cell_setting           monoclinic
_symmetry_space_group_name_H-M   'C 2/c'
_symmetry_Int_Tables_number      15
_space_group_name_Hall           '-C 2yn'
loop_
_symmetry_equiv_pos_site_id
_symmetry_equiv_pos_as_xyz
1 x,y,z
2 -x,y,1/2-z
3 1/2+x,1/2+y,z
4 1/2-x,1/2+y,1/2-z
5 -x,-y,-z
6 x,-y,1/2+z
7 1/2-x,1/2-y,-z
8 1/2+x,1/2-y,1/2+z
_cell_length_a                   17.0919(8)
_cell_length_b                   10.2916(8)
_cell_length_c                   20.2494(16)
_cell_angle_alpha                90
_cell_angle_beta                 92.743(6)
_cell_angle_gamma                90
_cell_volume                     3557.85
loop_
_atom_site_label
_atom_site_type_symbol
_atom_site_fract_x
_atom_site_fract_y
_atom_site_fract_z
Bi1 Bi 1.20671(2) 0.87514(3) 0.54324(2)
Bi2 Bi 0.66891(2) 1.40951(3) 0.36583(2)
Mn1 Mn 0.75624(8) 1.16415(14) 0.25708(8)
C1 C 1.0476(5) 0.8325(9) 0.4856(5)
C2 C 0.9662(5) 0.8049(9) 0.4592(5)
C3 C 0.9357(5) 0.8799(8) 0.4061(5)
H1 H 0.9641 0.9516 0.3900
C4 C 0.8627(5) 0.8462(8) 0.3778(5)
C5 C 0.8334(5) 0.9137(9) 0.3155(5)
C6 C 0.8179(5) 0.7481(9) 0.4044(6)
H2 H 0.7674 0.7289 0.3853
C7 C 0.8467(5) 0.6787(9) 0.4584(5)
C8 C 0.7981(5) 0.5716(9) 0.4851(5)
C9 C 0.9229(5) 0.7040(9) 0.4861(5)
H3 H 0.9440 0.6538 0.5221
C10 C 0.6049(6) 1.1479(10) 0.3393(5)
C11 C 0.5564(5) 1.0282(9) 0.3361(5)
C12 C 0.4756(6) 1.0347(9) 0.3326(6)
H4 H 0.4500 1.1167 0.3321
C13 C 0.4309(5) 0.9184(9) 0.3298(5)
C14 C 0.3439(5) 0.9215(9) 0.3213(5)
C15 C 0.4691(5) 0.7997(8) 0.3309(5)
H5 H 0.4398 0.7212 0.3303
C16 C 0.5505(5) 0.7957(9) 0.3329(5)
C17 C 0.5929(5) 0.6690(10) 0.3291(5)
C18 C 0.5949(5) 0.9084(9) 0.3364(5)
H6 H 0.6505 0.9043 0.3389
O1 O 1.0860(4) 0.9271(6) 0.4601(4)
O2 O 1.0781(4) 0.7633(7) 0.5313(4)
O3 O 0.8330(4) 1.0357(7) 0.3134(4)
O4 O 0.8126(4) 0.8423(7) 0.2664(4)
O5 O 0.7275(4) 0.5610(7) 0.4611(4)
O6 O 0.8250(4) 0.4984(7) 0.5296(4)
O7 O 0.6788(4) 1.1400(7) 0.3352(4)
O8 O 0.5724(4) 1.2579(7) 0.3458(4)
O9 O 0.3113(4) 1.0292(6) 0.3069(4)
O10 O 0.3068(4) 0.8176(7) 0.3308(4)
O11 O 0.5572(4) 0.5632(7) 0.3358(5)
O12 O 0.6655(4) 0.6723(7) 0.3185(4)
O13 O 1.2794(4) 0.7040(7) 0.5522(4)
Bi1B Bi 0.70671(2) 0.37514(3) 0.54324(2)
Bi1F Bi 1.29329(2) 0.62486(3) 0.45676(2)
Bi2_2 Bi 0.66891(2) 0.40951(3) 0.36583(2)
Bi2B Bi 0.16891(2) 0.90951(3) 0.36583(2)
Bi2B_2 Bi 1.16891(2) 0.90951(3) 0.36583(2)
Bi2C Bi 0.83109(2) 0.90951(3) 0.13417(2)
Bi2D Bi 1.33109(2) 0.59049(3) 0.63417(2)
Mn1A Mn 0.24376(8) 1.16415(14) 0.24292(8)
Mn1B Mn 0.25624(8) 0.66415(14) 0.25708(8)
Mn1C Mn 0.74376(8) 0.66415(14) 0.24292(8)
O1B O 0.5860(4) 1.4271(6) 0.4601(4)
O4C O 0.6874(4) 1.3423(7) 0.2336(4)
O5_2 O 0.7275(4) 1.5610(7) 0.4611(4)
O5B O 1.2275(4) 1.0610(7) 0.4611(4)
O6B O 1.3250(4) 0.9984(7) 0.5296(4)
O9A O 0.6887(4) 1.0292(6) 0.1931(4)
O10B O 0.8068(4) 1.3176(7) 0.3308(4)
O11_2 O 0.5572(4) 1.5632(7) 0.3358(5)
O12_2 O 0.6655(4) 1.6723(7) 0.3185(4)
O12C O 0.8345(4) 1.1723(7) 0.1815(4)
O13D O 0.7206(4) 1.2960(7) 0.4478(4)
O13F O 1.2206(4) 0.7960(7) 0.4478(4)
loop_
_geom_bond_atom_site_label_1
_geom_bond_atom_site_label_2
_geom_bond_site_symmetry_1
_geom_bond_site_symmetry_2
Bi1 O1 1_555 1_555
Bi2 O7 1_555 1_555
Mn1 O3 1_555 1_555
C1 C2 1_555 1_555
C2 C3 1_555 1_555
C3 H1 1_555 1_555
C4 C3 1_555 1_555
C5 C4 1_555 1_555
C6 C4 1_555 1_555
H2 C6 1_555 1_555
C7 C6 1_555 1_555
C8 C7 1_555 1_555
C9 C2 1_555 1_555
H3 C9 1_555 1_555
C10 C11 1_555 1_555
C11 C12 1_555 1_555
C12 H4 1_555 1_555
C13 C12 1_555 1_555
C14 C13 1_555 1_555
C15 C13 1_555 1_555
H5 C15 1_555 1_555
C16 C15 1_555 1_555
C17 C16 1_555 1_555
C18 C11 1_555 1_555
H6 C18 1_555 1_555
O1 C1 1_555 1_555
O2 Bi1 1_555 1_555
O3 C5 1_555 1_555
O4 C5 1_555 1_555
O5 C8 1_555 1_555
O6 C8 1_555 1_555
O7 Mn1 1_555 1_555
O8 Bi2 1_555 1_555
O9 C14 1_555 1_555
O10 C14 1_555 1_555
O11 C17 1_555 1_555
O12 C17 1_555 1_555
O13 Bi1 1_555 1_555
Bi1B O5 1_555 1_555
Bi1F O13 1_555 1_555
Bi2_2 O5 1_555 1_555
Bi2B O10 1_555 1_555
Bi2B_2 O1 1_555 1_555
Bi2C O4 1_555 1_555
Bi2D O13 1_555 1_555
Mn1A O9 1_555 1_555
Mn1B O10 1_555 1_555
Mn1C O4 1_555 1_555
O1B Bi2 1_555 1_555
O4C Bi2 1_555 1_555
O5_2 Bi2 1_555 1_555
O5B Bi1 1_555 1_555
O6B Bi1 1_555 1_555
O9A Mn1 1_555 1_555
O10B Bi2 1_555 1_555
O11_2 Bi2 1_555 1_555
O12_2 Bi2 1_555 1_555
O12C Mn1 1_555 1_555
O13D Bi2 1_555 1_555
O13F Bi1 1_555 1_555
Mn1 O4C 1_555 1_555
Mn1 O10B 1_555 1_555
C1 O2 1_555 1_555
C7 C9 1_555 1_555
C10 O7 1_555 1_555
C10 O8 1_555 1_555
C16 C18 1_555 1_555
O6 Bi1B 1_555 1_555
O11 Bi2_2 1_555 1_555
O12 Bi2_2 1_555 1_555
O12 Mn1C 1_555 1_555
Bi1F O13F 1_555 1_555
Bi2B_2 O5B 1_555 1_555
Bi2B_2 O13F 1_555 1_555
Bi2C O12C 1_555 1_555

#END
