
#######################################################################
#
#                 Cambridge Crystallographic Data Centre
#                                CCDC 
#
#######################################################################
#
# If this CIF has been generated from an entry in the Cambridge 
# Structural Database, then it will include bibliographic, chemical, 
# crystal, experimental, refinement or atomic coordinate data resulting 
# from the CCDC's data processing and validation procedures.
#
#######################################################################

data_NOYSUP
_symmetry_cell_setting           orthorhombic
_symmetry_space_group_name_H-M   'P b c a'
_symmetry_Int_Tables_number      61
_space_group_name_Hall           '-P 2ac 2ab'
loop_
_symmetry_equiv_pos_site_id
_symmetry_equiv_pos_as_xyz
1 x,y,z
2 1/2+x,y,1/2-z
3 x,1/2-y,1/2+z
4 1/2-x,1/2+y,z
5 -x,-y,-z
6 1/2-x,-y,1/2+z
7 -x,1/2+y,1/2-z
8 1/2+x,1/2-y,-z
_cell_length_a                   10.9598(4)
_cell_length_b                   17.8091(6)
_cell_length_c                   34.8492(12)
_cell_angle_alpha                90
_cell_angle_beta                 90
_cell_angle_gamma                90
_cell_volume                     6802.01
loop_
_atom_site_label
_atom_site_type_symbol
_atom_site_fract_x
_atom_site_fract_y
_atom_site_fract_z
Tl1 Tl 0.37786(3) 0.12312(2) 0.461040(11)
Cl1 Cl -0.1879(4) 0.2610(2) 0.68790(11)
O1 O -0.0032(8) 0.1767(4) 0.5967(2)
O2 O 0.0799(7) 0.1416(4) 0.5411(2)
O3 O 0.1809(6) 0.2220(4) 0.4646(2)
O4 O -0.0148(6) 0.2403(5) 0.4782(2)
O5 O 0.2394(8) 0.4766(4) 0.4911(2)
O6 O 0.1533(8) 0.3846(4) 0.4569(2)
O7 O 0.2373(12) 0.4731(5) 0.6084(3)
O8 O 0.1182(7) 0.5201(4) 0.5649(2)
N1 N 0.1036(6) 0.3228(4) 0.6240(2)
N2 N -0.0857(6) 0.3777(4) 0.6195(2)
C1 C 0.1178(7) 0.3273(5) 0.5832(2)
C2 C 0.0954(7) 0.2668(4) 0.5575(2)
C3 C 0.1206(7) 0.2944(4) 0.5207(2)
C4 C 0.1536(7) 0.3686(5) 0.5226(2)
C5 C 0.1523(7) 0.3907(4) 0.5620(2)
C6 C 0.1932(8) 0.2802(5) 0.6445(2)
C7 C 0.1600(10) 0.2197(5) 0.6678(3)
H1 H 0.0783(10) 0.2068(5) 0.6708(3)
C8 C 0.2509(11) 0.1791(6) 0.6863(3)
H2 H 0.2287(11) 0.1392(6) 0.7021(3)
C9 C 0.3720(11) 0.1958(6) 0.6821(3)
C10 C 0.4045(10) 0.2549(7) 0.6593(3)
H3 H 0.4865(10) 0.2669(7) 0.6562(3)
C11 C 0.3145(9) 0.2981(6) 0.6403(2)
H4 H 0.3374(9) 0.3386(6) 0.6251(2)
C12 C 0.4702(13) 0.1516(8) 0.7028(4)
H5 H 0.4331(13) 0.1122(8) 0.7175(4)
H6 H 0.5145(13) 0.1844(8) 0.7196(4)
H7 H 0.5252(13) 0.1302(8) 0.6843(4)
C13 C 0.0010(8) 0.3529(4) 0.6407(2)
C14 C 0.0016(8) 0.3572(4) 0.6837(2)
C15 C 0.0869(10) 0.4016(6) 0.7019(3)
C16 C 0.1783(16) 0.4523(9) 0.6860(4)
H8 H 0.2237(16) 0.4750(9) 0.7065(4)
H9 H 0.1386(16) 0.4908(9) 0.6713(4)
H10 H 0.2328(16) 0.4246(9) 0.6698(4)
C17 C 0.0873(14) 0.4109(7) 0.7412(3)
H11 H 0.1450(14) 0.4414(7) 0.7531(3)
C18 C 0.0003(17) 0.3739(9) 0.7626(3)
H12 H 0.0002(17) 0.3785(9) 0.7892(3)
C19 C -0.0846(14) 0.3310(8) 0.7452(3)
H13 H -0.1448(14) 0.3075(8) 0.7597(3)
C20 C -0.0821(10) 0.3222(6) 0.7062(3)
C21 C -0.1873(8) 0.4163(5) 0.6347(2)
C22 C -0.1752(10) 0.4798(5) 0.6587(2)
H14 H -0.0983(10) 0.4953(5) 0.6667(2)
C23 C -0.2785(10) 0.5192(5) 0.6704(3)
H15 H -0.2692(10) 0.5605(5) 0.6864(3)
C24 C -0.3936(10) 0.4989(5) 0.6588(3)
C25 C -0.4051(9) 0.4371(6) 0.6343(3)
H16 H -0.4820(9) 0.4227(6) 0.6257(3)
C26 C -0.3029(8) 0.3971(5) 0.6227(3)
H17 H -0.3127(8) 0.3563(5) 0.6063(3)
C27 C -0.5042(11) 0.5423(7) 0.6715(4)
H18 H -0.5761(11) 0.5200(7) 0.6606(4)
H19 H -0.4974(11) 0.5933(7) 0.6630(4)
H20 H -0.5098(11) 0.5411(7) 0.6990(4)
C28 C 0.0515(8) 0.1911(5) 0.5682(2)
C29 C 0.0358(12) 0.0652(6) 0.5468(4)
H21 H 0.0614(12) 0.0344(6) 0.5257(4)
H22 H -0.0517(12) 0.0655(6) 0.5482(4)
H23 H 0.0686(12) 0.0455(6) 0.5702(4)
C30 C 0.1045(8) 0.2479(5) 0.4850(2)
C31 C -0.0464(13) 0.1934(10) 0.4458(3)
H24 H -0.1335(13) 0.1913(10) 0.4432(3)
H25 H -0.0152(13) 0.1436(10) 0.4499(3)
H26 H -0.0114(13) 0.2140(10) 0.4229(3)
C32 C 0.1872(8) 0.4166(6) 0.4898(3)
C33 C 0.1920(14) 0.4181(8) 0.4214(3)
H27 H 0.1611(14) 0.3893(8) 0.4003(3)
H28 H 0.2795(14) 0.4191(8) 0.4204(3)
H29 H 0.1612(14) 0.4685(8) 0.4199(3)
C34 C 0.1787(9) 0.4639(5) 0.5812(3)
C35 C 0.1413(13) 0.5939(6) 0.5810(5)
H30 H 0.0938(13) 0.6307(6) 0.5674(5)
H31 H 0.2264(13) 0.6057(6) 0.5785(5)
H32 H 0.1188(13) 0.5942(6) 0.6076(5)
N2G N 0.4143(6) 0.1223(4) 0.3805(2)
Tl1G Tl -0.12214(3) 0.37688(2) 0.538960(11)
loop_
_geom_bond_atom_site_label_1
_geom_bond_atom_site_label_2
_geom_bond_site_symmetry_1
_geom_bond_site_symmetry_2
Tl1 O3 1_555 1_555
Cl1 C20 1_555 1_555
O1 C28 1_555 1_555
O2 C28 1_555 1_555
O3 C30 1_555 1_555
O4 C30 1_555 1_555
O5 C32 1_555 1_555
O6 C32 1_555 1_555
O7 C34 1_555 1_555
O8 C34 1_555 1_555
N1 C1 1_555 1_555
N2 C13 1_555 1_555
C1 C2 1_555 1_555
C2 C3 1_555 1_555
C3 C4 1_555 1_555
C4 C5 1_555 1_555
C5 C1 1_555 1_555
C6 N1 1_555 1_555
C7 C6 1_555 1_555
H1 C7 1_555 1_555
C8 C7 1_555 1_555
H2 C8 1_555 1_555
C9 C8 1_555 1_555
C10 C9 1_555 1_555
H3 C10 1_555 1_555
C11 C6 1_555 1_555
H4 C11 1_555 1_555
C12 C9 1_555 1_555
H5 C12 1_555 1_555
H6 C12 1_555 1_555
H7 C12 1_555 1_555
C13 N1 1_555 1_555
C14 C13 1_555 1_555
C15 C14 1_555 1_555
C16 C15 1_555 1_555
H8 C16 1_555 1_555
H9 C16 1_555 1_555
H10 C16 1_555 1_555
C17 C15 1_555 1_555
H11 C17 1_555 1_555
C18 C17 1_555 1_555
H12 C18 1_555 1_555
C19 C18 1_555 1_555
H13 C19 1_555 1_555
C20 C14 1_555 1_555
C21 N2 1_555 1_555
C22 C21 1_555 1_555
H14 C22 1_555 1_555
C23 C22 1_555 1_555
H15 C23 1_555 1_555
C24 C23 1_555 1_555
C25 C24 1_555 1_555
H16 C25 1_555 1_555
C26 C21 1_555 1_555
H17 C26 1_555 1_555
C27 C24 1_555 1_555
H18 C27 1_555 1_555
H19 C27 1_555 1_555
H20 C27 1_555 1_555
C28 C2 1_555 1_555
C29 O2 1_555 1_555
H21 C29 1_555 1_555
H22 C29 1_555 1_555
H23 C29 1_555 1_555
C30 C3 1_555 1_555
C31 O4 1_555 1_555
H24 C31 1_555 1_555
H25 C31 1_555 1_555
H26 C31 1_555 1_555
C32 C4 1_555 1_555
C33 O6 1_555 1_555
H27 C33 1_555 1_555
H28 C33 1_555 1_555
H29 C33 1_555 1_555
C34 C5 1_555 1_555
C35 O8 1_555 1_555
H30 C35 1_555 1_555
H31 C35 1_555 1_555
H32 C35 1_555 1_555
N2G Tl1 1_555 1_555
Tl1G N2 1_555 1_555
C10 C11 1_555 1_555
C19 C20 1_555 1_555
C25 C26 1_555 1_555

#END
