
#######################################################################
#
#                 Cambridge Crystallographic Data Centre
#                                CCDC 
#
#######################################################################
#
# If this CIF has been generated from an entry in the Cambridge 
# Structural Database, then it will include bibliographic, chemical, 
# crystal, experimental, refinement or atomic coordinate data resulting 
# from the CCDC's data processing and validation procedures.
#
#######################################################################

data_NOZKIW
_symmetry_cell_setting           tetragonal
_symmetry_space_group_name_H-M   'P -4 21 m'
_symmetry_Int_Tables_number      113
_space_group_name_Hall           'P -4 2ab'
loop_
_symmetry_equiv_pos_site_id
_symmetry_equiv_pos_as_xyz
1 x,y,z
2 y,-x,-z
3 1/2+x,1/2-y,-z
4 -x,-y,z
5 1/2-y,1/2-x,z
6 -y,x,-z
7 1/2-x,1/2+y,-z
8 1/2+y,1/2+x,z
_cell_length_a                   9.929(2)
_cell_length_b                   9.929(2)
_cell_length_c                   5.233(1)
_cell_angle_alpha                90
_cell_angle_beta                 90
_cell_angle_gamma                90
_cell_volume                     515.896
loop_
_atom_site_label
_atom_site_type_symbol
_atom_site_fract_x
_atom_site_fract_y
_atom_site_fract_z
Sr1 Sr 0.5000 0.0000 0.82010(8)
P1 P 0.27180(6) -0.22820(6) 0.3898(2)
O1 O 0.3369(2) -0.1631(2) 0.6189(7)
O2 O 0.1650(2) -0.3350(2) 0.4385(6)
O3 O 0.5081(2) -0.2085(2) 0.1429(4)
C1 C 0.4019(3) -0.3022(3) 0.1902(6)
H1 H 0.5535(80) -0.2057(80) 0.263(19)
H2 H 0.4251(63) -0.3801(61) 0.270(14)
H3 H 0.3606(54) -0.3198(57) 0.048(12)
C1G C 0.1978(3) -0.0981(3) 0.1902(6)
O3G O 0.2915(2) 0.0081(2) 0.1429(4)
H1G H 0.2943(80) 0.0535(80) 0.263(19)
H2G H 0.1199(61) -0.0749(63) 0.270(14)
H3G H 0.1802(57) -0.1394(54) 0.048(12)
P1C P 0.72820(6) 0.22820(6) 0.3898(2)
O1C O 0.6631(2) 0.1631(2) 0.6189(7)
O2C O 0.8350(2) 0.3350(2) 0.4385(6)
O3C O 0.4919(2) 0.2085(2) 0.1429(4)
C1C C 0.5981(3) 0.3022(3) 0.1902(6)
H1C H 0.4465(80) 0.2057(80) 0.263(19)
H2C H 0.5749(63) 0.3801(61) 0.270(14)
H3C H 0.6394(54) 0.3198(57) 0.048(12)
C1D C 0.8022(3) 0.0981(3) 0.1902(6)
O3D O 0.7085(2) -0.0081(2) 0.1429(4)
H1D H 0.7057(80) -0.0535(80) 0.263(19)
H2D H 0.8801(61) 0.0749(63) 0.270(14)
H3D H 0.8198(57) 0.1394(54) 0.048(12)
O2A O 0.6650(2) -0.1650(2) 0.5615(6)
O2E O 0.3350(2) 0.1650(2) 0.5615(6)
O3_2 O 0.5081(2) -0.2085(2) 1.1429(4)
O3C_2 O 0.4919(2) 0.2085(2) 1.1429(4)
O3D_2 O 0.7085(2) -0.0081(2) 1.1429(4)
O3G_2 O 0.2915(2) 0.0081(2) 1.1429(4)
Sr1A Sr 0.0000 -0.5000 0.17990(8)
Sr1_2 Sr 0.5000 0.0000 -0.17990(8)
Sr1A_2 Sr 1.0000 0.5000 0.17990(8)
H1_2 H 0.5535(80) -0.2057(80) 1.263(19)
H1C_2 H 0.4465(80) 0.2057(80) 1.263(19)
H1D_2 H 0.7057(80) -0.0535(80) 1.263(19)
H1G_2 H 0.2943(80) 0.0535(80) 1.263(19)
loop_
_geom_bond_atom_site_label_1
_geom_bond_atom_site_label_2
_geom_bond_site_symmetry_1
_geom_bond_site_symmetry_2
Sr1 O1 1_555 1_555
P1 O1 1_555 1_555
O2 P1 1_555 1_555
O3 C1 1_555 1_555
C1 P1 1_555 1_555
H1 O3 1_555 1_555
H2 C1 1_555 1_555
H3 C1 1_555 1_555
C1G P1 1_555 1_555
O3G C1G 1_555 1_555
H1G O3G 1_555 1_555
H2G C1G 1_555 1_555
H3G C1G 1_555 1_555
P1C O1C 1_555 1_555
O1C Sr1 1_555 1_555
O2C P1C 1_555 1_555
O3C C1C 1_555 1_555
C1C P1C 1_555 1_555
H1C O3C 1_555 1_555
H2C C1C 1_555 1_555
H3C C1C 1_555 1_555
C1D P1C 1_555 1_555
O3D C1D 1_555 1_555
H1D O3D 1_555 1_555
H2D C1D 1_555 1_555
H3D C1D 1_555 1_555
O2A Sr1 1_555 1_555
O2E Sr1 1_555 1_555
O3_2 Sr1 1_555 1_555
O3C_2 Sr1 1_555 1_555
O3D_2 Sr1 1_555 1_555
O3G_2 Sr1 1_555 1_555
Sr1A O2 1_555 1_555
Sr1_2 O3 1_555 1_555
Sr1A_2 O2C 1_555 1_555
H1_2 O3_2 1_555 1_555
H1C_2 O3C_2 1_555 1_555
H1D_2 O3D_2 1_555 1_555
H1G_2 O3G_2 1_555 1_555
O3G Sr1_2 1_555 1_555
O3C Sr1_2 1_555 1_555
O3D Sr1_2 1_555 1_555

#END
