
#######################################################################
#
#                 Cambridge Crystallographic Data Centre
#                                CCDC 
#
#######################################################################
#
# If this CIF has been generated from an entry in the Cambridge 
# Structural Database, then it will include bibliographic, chemical, 
# crystal, experimental, refinement or atomic coordinate data resulting 
# from the CCDC's data processing and validation procedures.
#
#######################################################################

data_NOZZOT
_symmetry_cell_setting           triclinic
_symmetry_space_group_name_H-M   'P -1'
_symmetry_Int_Tables_number      2
_space_group_name_Hall           '-P 1'
loop_
_symmetry_equiv_pos_site_id
_symmetry_equiv_pos_as_xyz
1 x,y,z
2 -x,-y,-z
_cell_length_a                   14.0970(19)
_cell_length_b                   14.2015(19)
_cell_length_c                   14.2649(19)
_cell_angle_alpha                115.6630(10)
_cell_angle_beta                 113.6270(10)
_cell_angle_gamma                97.603(2)
_cell_volume                     2190.59
loop_
_atom_site_label
_atom_site_type_symbol
_atom_site_fract_x
_atom_site_fract_y
_atom_site_fract_z
Cd1 Cd 0.005654(11) 0.886635(12) 0.186954(12)
Cd2 Cd 0.0000 1.0000 0.0000
Si1 Si 0.26351(4) 1.64836(4) 0.68439(5)
O1 O 0.01879(14) 1.72021(13) 1.03279(15)
O2 O 0.07789(12) 1.89195(12) 1.07076(12)
O3 O 0.82670(12) 1.81659(14) 1.05562(14)
O4 O 0.82871(13) 1.90796(14) 0.96122(16)
C1 C 0.42041(16) 1.70440(17) 0.77459(18)
O5 O 0.05978(14) 1.06926(13) 0.31534(15)
C2 C 0.20702(16) 1.68322(17) 0.78868(18)
C3 C 0.11823(17) 1.75135(17) 0.94104(18)
C4 C 0.21825(17) 1.71808(17) 0.59739(18)
C5 C 0.06714(17) 1.78778(17) 1.01858(18)
O6 O 0.04866(16) 1.12317(14) 0.18642(14)
C6 C 0.11887(17) 1.26359(17) 0.38777(18)
C7 C 0.17116(17) 1.29775(17) 0.50902(19)
H1 H 0.1770 1.2435 0.5309
C8 C 0.07148(17) 1.14149(18) 0.28816(19)
C9 C 0.20681(16) 1.49352(16) 0.56958(18)
C10 C 0.21494(17) 1.41127(17) 0.59847(18)
H2 H 0.2512 1.4336 0.6811
C11 C 0.15384(18) 1.45668(18) 0.44663(19)
H3 H 0.1467 1.5102 0.4239
C12 C 0.09533(18) 1.63781(18) 0.8669(2)
H4 H 0.0505 1.5831 0.8686
C13 C 0.11160(18) 1.34369(18) 0.35748(19)
H5 H 0.0773 1.3210 0.2748
C14 C 0.18635(18) 1.83108(18) 0.9408(2)
H6 H 0.2025 1.9088 0.9915
O7 O -0.00997(13) 1.82558(14) 0.31114(15)
O8 O 0.14915(13) 1.86110(15) 0.31622(15)
C15 C 0.13478(18) 1.79134(18) 0.43725(19)
C16 C 0.78161(17) 1.84429(17) 0.98083(19)
C17 C 0.65567(16) 1.79502(17) 0.90902(18)
C18 C 0.08806(18) 1.82805(18) 0.3495(2)
C19 C 0.48078(18) 1.81625(18) 0.8225(2)
H7 H 0.4415 1.8635 0.8112
C20 C 0.48164(18) 1.63926(18) 0.7976(2)
H8 H 0.4434 1.5626 0.7657
C21 C 0.13805(18) 1.60437(17) 0.79031(19)
H9 H 0.1200 1.5265 0.7381
C22 C 0.59619(18) 1.86039(18) 0.8862(2)
H10 H 0.6348 1.9358 0.9143
C23 C 0.11346(19) 1.7258(2) 0.5600(2)
H11 H 0.0694 1.7059 0.5892
C24 C 0.28055(17) 1.74965(19) 0.5536(2)
H12 H 0.3527 1.7461 0.5783
C25 C 0.23994(18) 1.78613(19) 0.4747(2)
H13 H 0.2843 1.8075 0.4465
C26 C 0.59769(18) 1.68473(18) 0.8664(2)
H14 H 0.6374 1.6400 0.8844
C27 C 0.23080(19) 1.79729(18) 0.8665(2)
H15 H 0.2786 1.8527 0.8683
C28 C 0.07227(19) 1.7618(2) 0.4811(2)
H16 H 0.0005 1.7663 0.4569
Cd1A Cd -0.005654(11) 1.113365(12) -0.186954(12)
Si1A Si -0.26351(4) 0.35164(4) -0.68439(5)
O1A O -0.01879(14) 0.27979(13) -1.03279(15)
O2A O -0.07789(12) 0.10805(12) -1.07076(12)
O3A O -0.82670(12) 0.18341(14) -1.05562(14)
O4A O -0.82871(13) 0.09204(14) -0.96122(16)
C1A C -0.42041(16) 0.29560(17) -0.77459(18)
O5A O -0.05978(14) 0.93074(13) -0.31534(15)
C2A C -0.20702(16) 0.31678(17) -0.78868(18)
C3A C -0.11823(17) 0.24865(17) -0.94104(18)
C4A C -0.21825(17) 0.28192(17) -0.59739(18)
C5A C -0.06714(17) 0.21222(17) -1.01858(18)
O6A O -0.04866(16) 0.87683(14) -0.18642(14)
C6A C -0.11887(17) 0.73641(17) -0.38777(18)
C7A C -0.17116(17) 0.70225(17) -0.50902(19)
H1A H -0.1770 0.7565 -0.5309
C8A C -0.07148(17) 0.85851(18) -0.28816(19)
C9A C -0.20681(16) 0.50648(16) -0.56958(18)
C10A C -0.21494(17) 0.58873(17) -0.59847(18)
H2A H -0.2512 0.5664 -0.6811
C11A C -0.15384(18) 0.54332(18) -0.44663(19)
H3A H -0.1467 0.4898 -0.4239
C12A C -0.09533(18) 0.36219(18) -0.8669(2)
H4A H -0.0505 0.4169 -0.8686
C13A C -0.11160(18) 0.65631(18) -0.35748(19)
H5A H -0.0773 0.6790 -0.2748
C14A C -0.18635(18) 0.16892(18) -0.9408(2)
H6A H -0.2025 0.0912 -0.9915
O7A O 0.00997(13) 0.17442(14) -0.31114(15)
O8A O -0.14915(13) 0.13890(15) -0.31622(15)
C15A C -0.13478(18) 0.20866(18) -0.43725(19)
C16A C -0.78161(17) 0.15571(17) -0.98083(19)
C17A C -0.65567(16) 0.20498(17) -0.90902(18)
C18A C -0.08806(18) 0.17195(18) -0.3495(2)
C19A C -0.48078(18) 0.18375(18) -0.8225(2)
H7A H -0.4415 0.1365 -0.8112
C20A C -0.48164(18) 0.36074(18) -0.7976(2)
H8A H -0.4434 0.4374 -0.7657
C21A C -0.13805(18) 0.39563(17) -0.79031(19)
H9A H -0.1200 0.4735 -0.7381
C22A C -0.59619(18) 0.13961(18) -0.8862(2)
H10A H -0.6348 0.0642 -0.9143
C23A C -0.11346(19) 0.2742(2) -0.5600(2)
H11A H -0.0694 0.2941 -0.5892
C24A C -0.28055(17) 0.25035(19) -0.5536(2)
H12A H -0.3527 0.2539 -0.5783
C25A C -0.23994(18) 0.21387(19) -0.4747(2)
H13A H -0.2843 0.1925 -0.4465
C26A C -0.59769(18) 0.31527(18) -0.8664(2)
H14A H -0.6374 0.3600 -0.8844
C27A C -0.23080(19) 0.20271(18) -0.8665(2)
H15A H -0.2786 0.1473 -0.8683
C28A C -0.07227(19) 0.2382(2) -0.4811(2)
H16A H -0.0005 0.2337 -0.4569
Cd1_2 Cd 0.005654(11) 1.886635(12) 0.186954(12)
Cd1_3 Cd 0.005654(11) 1.886635(12) 1.186954(12)
Cd1_4 Cd 1.005654(11) 1.886635(12) 1.186954(12)
Cd1A_2 Cd -1.005654(11) 0.113365(12) -1.186954(12)
Cd1A_3 Cd -0.005654(11) 0.113365(12) -1.186954(12)
Cd1A_4 Cd -0.005654(11) 0.113365(12) -0.186954(12)
Cd2_2 Cd -1.0000 0.0000 -1.0000
Cd2_3 Cd 0.0000 0.0000 -1.0000
Cd2_4 Cd 0.0000 2.0000 1.0000
Cd2_5 Cd 1.0000 2.0000 1.0000
O1_2 O 0.01879(14) 0.72021(13) 0.03279(15)
O1A_2 O -0.01879(14) 1.27979(13) -0.03279(15)
O2_2 O 0.07789(12) 0.89195(12) 0.07076(12)
O2A_2 O -0.07789(12) 1.10805(12) -0.07076(12)
O3_2 O -0.17330(12) 0.81659(14) 0.05562(14)
O3A_2 O 0.17330(12) 1.18341(14) -0.05562(14)
O4_2 O -0.17129(13) 0.90796(14) -0.03878(16)
O4A_2 O 0.17129(13) 1.09204(14) 0.03878(16)
O7_2 O -0.00997(13) 0.82558(14) 0.31114(15)
O7A_2 O 0.00997(13) 1.17442(14) -0.31114(15)
O8_2 O 0.14915(13) 0.86110(15) 0.31622(15)
O8A_2 O -0.14915(13) 1.13890(15) -0.31622(15)
Cd3 Cd 0.5000 2.0000 0.5000
O9 O 0.65780(14) 2.12426(15) 0.67740(16)
O10 O 0.49927(13) 1.85212(14) 0.52806(16)
O11 O 0.39620(15) 2.05682(15) 0.58708(16)
C29 C 0.57025(19) 1.8191(2) 0.5774(2)
N1 N 0.3131(2) 2.0859(2) 0.6968(2)
N2 N 0.54576(18) 1.70936(18) 0.5328(2)
C30 C 0.3976(2) 2.0698(2) 0.6801(2)
C31 C 0.6174(3) 1.6611(3) 0.5888(3)
H17 H 0.5775 1.6172 0.6081
H18 H 0.6852 1.7217 0.6634
H19 H 0.6374 1.6120 0.5325
C32 C 0.6828(2) 1.9017(2) 0.6852(3)
H20 H 0.6808 1.9774 0.7197
H21 H 0.7382 1.9002 0.6601
H22 H 0.7030 1.8815 0.7462
C33 C 0.4938(3) 2.0670(3) 0.7748(3)
H23 H 0.5439 2.1441 0.8421
H24 H 0.5345 2.0287 0.7393
H25 H 0.4656 2.0265 0.8048
C34 C 0.2170(3) 2.0888(3) 0.6078(3)
H26 H 0.2257 2.0748 0.5387
H27 H 0.2119 2.1629 0.6450
H28 H 0.1489 2.0308 0.5800
C35 C 0.4408(3) 1.6272(2) 0.4207(3)
H29 H 0.4039 1.6652 0.3827
H30 H 0.3923 1.5914 0.4390
H31 H 0.4561 1.5698 0.3652
C36 C 0.3066(5) 2.0981(5) 0.8004(4)
H32 H 0.3805 2.1439 0.8737
H33 H 0.2809 2.0237 0.7877
H34 H 0.2541 2.1350 0.8097
H35 H 0.659(3) 2.188(3) 0.721(3)
H36 H 0.722(3) 2.137(3) 0.685(3)
O9A O 0.34220(14) 1.87574(15) 0.32260(16)
O10A O 0.50073(13) 2.14788(14) 0.47194(16)
O11A O 0.60380(15) 1.94318(15) 0.41292(16)
C29A C 0.42975(19) 2.1809(2) 0.4226(2)
N1A N 0.6869(2) 1.9141(2) 0.3032(2)
N2A N 0.45424(18) 2.29064(18) 0.4672(2)
C30A C 0.6024(2) 1.9302(2) 0.3199(2)
C31A C 0.3826(3) 2.3389(3) 0.4112(3)
H17A H 0.4225 2.3828 0.3919
H18A H 0.3148 2.2783 0.3366
H19A H 0.3626 2.3880 0.4675
C32A C 0.3172(2) 2.0983(2) 0.3148(3)
H20A H 0.3192 2.0226 0.2803
H21A H 0.2618 2.0998 0.3399
H22A H 0.2970 2.1185 0.2538
C33A C 0.5062(3) 1.9330(3) 0.2252(3)
H23A H 0.4561 1.8559 0.1579
H24A H 0.4655 1.9713 0.2607
H25A H 0.5344 1.9735 0.1952
C34A C 0.7830(3) 1.9112(3) 0.3922(3)
H26A H 0.7743 1.9252 0.4613
H27A H 0.7881 1.8371 0.3550
H28A H 0.8511 1.9692 0.4200
C35A C 0.5592(3) 2.3728(2) 0.5793(3)
H29A H 0.5961 2.3348 0.6173
H30A H 0.6077 2.4086 0.5610
H31A H 0.5439 2.4302 0.6348
C36A C 0.6934(5) 1.9019(5) 0.1996(4)
H32A H 0.6195 1.8561 0.1263
H33A H 0.7191 1.9763 0.2123
H34A H 0.7459 1.8650 0.1903
H35A H 0.341(3) 1.812(3) 0.279(3)
H36A H 0.278(3) 1.863(3) 0.315(3)
O12 O 0.34938(17) 1.68068(17) 1.18150(19)
N3 N 0.2686(2) 1.5123(2) 1.0104(2)
C37 C 0.2677(2) 1.5893(2) 1.1050(3)
C38 C 0.1695(3) 1.5665(3) 1.1199(3)
H37 H 0.1924 1.6140 1.2053
H38 H 0.1410 1.4872 1.0930
H39 H 0.1109 1.5833 1.0710
C39 C 0.3638(3) 1.5381(3) 0.9959(4)
H40 H 0.3514 1.5771 0.9523
H41 H 0.3721 1.4681 0.9498
H42 H 0.4316 1.5865 1.0758
C40 C 0.1745(3) 1.4065(2) 0.9108(3)
H43 H 0.1996 1.3434 0.8998
H44 H 0.1455 1.4069 0.8361
H45 H 0.1156 1.3986 0.9300
loop_
_geom_bond_atom_site_label_1
_geom_bond_atom_site_label_2
_geom_bond_site_symmetry_1
_geom_bond_site_symmetry_2
Cd1 O5 1_555 1_555
Cd2 O6 1_555 1_555
Si1 C1 1_555 1_555
O1 C5 1_555 1_555
O2 C5 1_555 1_555
O3 C16 1_555 1_555
O4 C16 1_555 1_555
C1 C19 1_555 1_555
O5 C8 1_555 1_555
C2 Si1 1_555 1_555
C3 C5 1_555 1_555
C4 Si1 1_555 1_555
O6 C8 1_555 1_555
C6 C7 1_555 1_555
C7 H1 1_555 1_555
C8 C6 1_555 1_555
C9 Si1 1_555 1_555
C10 C7 1_555 1_555
H2 C10 1_555 1_555
C11 C9 1_555 1_555
H3 C11 1_555 1_555
C12 C3 1_555 1_555
H4 C12 1_555 1_555
C13 C6 1_555 1_555
H5 C13 1_555 1_555
C14 C3 1_555 1_555
H6 C14 1_555 1_555
O7 C18 1_555 1_555
O8 C18 1_555 1_555
C15 C18 1_555 1_555
C16 C17 1_555 1_555
C17 C22 1_555 1_555
C19 H7 1_555 1_555
C20 C1 1_555 1_555
H8 C20 1_555 1_555
C21 C2 1_555 1_555
H9 C21 1_555 1_555
C22 C19 1_555 1_555
H10 C22 1_555 1_555
C23 C4 1_555 1_555
H11 C23 1_555 1_555
C24 C4 1_555 1_555
H12 C24 1_555 1_555
C25 C15 1_555 1_555
H13 C25 1_555 1_555
C26 C17 1_555 1_555
H14 C26 1_555 1_555
C27 C2 1_555 1_555
H15 C27 1_555 1_555
C28 C15 1_555 1_555
H16 C28 1_555 1_555
Cd3 O9 1_555 1_555
O9 H35 1_555 1_555
O10 Cd3 1_555 1_555
O11 Cd3 1_555 1_555
C29 O10 1_555 1_555
N1 C30 1_555 1_555
N2 C29 1_555 1_555
C30 O11 1_555 1_555
C31 N2 1_555 1_555
H17 C31 1_555 1_555
H18 C31 1_555 1_555
H19 C31 1_555 1_555
C32 C29 1_555 1_555
H20 C32 1_555 1_555
H21 C32 1_555 1_555
H22 C32 1_555 1_555
C33 C30 1_555 1_555
H23 C33 1_555 1_555
H24 C33 1_555 1_555
H25 C33 1_555 1_555
C34 N1 1_555 1_555
H26 C34 1_555 1_555
H27 C34 1_555 1_555
H28 C34 1_555 1_555
C35 N2 1_555 1_555
H29 C35 1_555 1_555
H30 C35 1_555 1_555
H31 C35 1_555 1_555
C36 N1 1_555 1_555
H32 C36 1_555 1_555
H33 C36 1_555 1_555
H34 C36 1_555 1_555
H36 O9 1_555 1_555
O12 C37 1_555 1_555
N3 C37 1_555 1_555
C37 C38 1_555 1_555
C38 H37 1_555 1_555
H38 C38 1_555 1_555
H39 C38 1_555 1_555
C39 N3 1_555 1_555
H40 C39 1_555 1_555
H41 C39 1_555 1_555
H42 C39 1_555 1_555
C40 N3 1_555 1_555
H43 C40 1_555 1_555
H44 C40 1_555 1_555
H45 C40 1_555 1_555
Cd1A O5A 1_555 1_555
Si1A C1A 1_555 1_555
O1A C5A 1_555 1_555
O2A C5A 1_555 1_555
O3A C16A 1_555 1_555
O4A C16A 1_555 1_555
C1A C19A 1_555 1_555
O5A C8A 1_555 1_555
C2A Si1A 1_555 1_555
C3A C5A 1_555 1_555
C4A Si1A 1_555 1_555
O6A Cd2 1_555 1_555
C6A C7A 1_555 1_555
C7A H1A 1_555 1_555
C8A O6A 1_555 1_555
C9A Si1A 1_555 1_555
C10A C7A 1_555 1_555
H2A C10A 1_555 1_555
C11A C9A 1_555 1_555
H3A C11A 1_555 1_555
C12A C3A 1_555 1_555
H4A C12A 1_555 1_555
C13A C6A 1_555 1_555
H5A C13A 1_555 1_555
C14A C3A 1_555 1_555
H6A C14A 1_555 1_555
O7A C18A 1_555 1_555
O8A C18A 1_555 1_555
C15A C18A 1_555 1_555
C16A C17A 1_555 1_555
C17A C22A 1_555 1_555
C19A H7A 1_555 1_555
C20A C1A 1_555 1_555
H8A C20A 1_555 1_555
C21A C2A 1_555 1_555
H9A C21A 1_555 1_555
C22A C19A 1_555 1_555
H10A C22A 1_555 1_555
C23A C4A 1_555 1_555
H11A C23A 1_555 1_555
C24A C4A 1_555 1_555
H12A C24A 1_555 1_555
C25A C15A 1_555 1_555
H13A C25A 1_555 1_555
C26A C17A 1_555 1_555
H14A C26A 1_555 1_555
C27A C2A 1_555 1_555
H15A C27A 1_555 1_555
C28A C15A 1_555 1_555
H16A C28A 1_555 1_555
Cd1_2 O7 1_555 1_555
Cd1_3 O1 1_555 1_555
Cd1_4 O3 1_555 1_555
Cd1A_2 O3A 1_555 1_555
Cd1A_3 O1A 1_555 1_555
Cd1A_4 O7A 1_555 1_555
Cd2_2 O4A 1_555 1_555
Cd2_3 O2A 1_555 1_555
Cd2_4 O2 1_555 1_555
Cd2_5 O4 1_555 1_555
O1_2 Cd1 1_555 1_555
O1A_2 Cd1A 1_555 1_555
O2_2 Cd1 1_555 1_555
O2A_2 Cd2 1_555 1_555
O3_2 Cd1 1_555 1_555
O3A_2 Cd1A 1_555 1_555
O4_2 Cd2 1_555 1_555
O4A_2 Cd2 1_555 1_555
O7_2 Cd1 1_555 1_555
O7A_2 Cd1A 1_555 1_555
O8_2 Cd1 1_555 1_555
O8A_2 Cd1A 1_555 1_555
O9A Cd3 1_555 1_555
O10A Cd3 1_555 1_555
O11A Cd3 1_555 1_555
C29A O10A 1_555 1_555
N1A C30A 1_555 1_555
N2A C29A 1_555 1_555
C30A O11A 1_555 1_555
C31A N2A 1_555 1_555
H17A C31A 1_555 1_555
H18A C31A 1_555 1_555
H19A C31A 1_555 1_555
C32A C29A 1_555 1_555
H20A C32A 1_555 1_555
H21A C32A 1_555 1_555
H22A C32A 1_555 1_555
C33A C30A 1_555 1_555
H23A C33A 1_555 1_555
H24A C33A 1_555 1_555
H25A C33A 1_555 1_555
C34A N1A 1_555 1_555
H26A C34A 1_555 1_555
H27A C34A 1_555 1_555
H28A C34A 1_555 1_555
C35A N2A 1_555 1_555
H29A C35A 1_555 1_555
H30A C35A 1_555 1_555
H31A C35A 1_555 1_555
C36A N1A 1_555 1_555
H32A C36A 1_555 1_555
H33A C36A 1_555 1_555
H34A C36A 1_555 1_555
H35A O9A 1_555 1_555
H36A O9A 1_555 1_555
Cd2 O2_2 1_555 1_555
O2 Cd1_3 1_555 1_555
C9 C10 1_555 1_555
C11 C13 1_555 1_555
C12 C21 1_555 1_555
C14 C27 1_555 1_555
O8 Cd1_2 1_555 1_555
C20 C26 1_555 1_555
C23 C28 1_555 1_555
C24 C25 1_555 1_555
Cd1A O2A_2 1_555 1_555
O2A Cd1A_3 1_555 1_555
C6A C8A 1_555 1_555
C9A C10A 1_555 1_555
C11A C13A 1_555 1_555
C12A C21A 1_555 1_555
C14A C27A 1_555 1_555
O8A Cd1A_4 1_555 1_555
C20A C26A 1_555 1_555
C23A C28A 1_555 1_555
C24A C25A 1_555 1_555

#END
