
#######################################################################
#
#                 Cambridge Crystallographic Data Centre
#                                CCDC 
#
#######################################################################
#
# If this CIF has been generated from an entry in the Cambridge 
# Structural Database, then it will include bibliographic, chemical, 
# crystal, experimental, refinement or atomic coordinate data resulting 
# from the CCDC's data processing and validation procedures.
#
#######################################################################

data_NPSNSN10
_symmetry_cell_setting           monoclinic
_symmetry_space_group_name_H-M   'P 21/c'
_symmetry_Int_Tables_number      14
_space_group_name_Hall           '-P 2ybc'
loop_
_symmetry_equiv_pos_site_id
_symmetry_equiv_pos_as_xyz
1 x,y,z
2 -x,1/2+y,1/2-z
3 -x,-y,-z
4 x,1/2-y,1/2+z
_cell_length_a                   10.42(1)
_cell_length_b                   18.91(2)
_cell_length_c                   9.09(1)
_cell_angle_alpha                90
_cell_angle_beta                 98.3(1)
_cell_angle_gamma                90
_cell_volume                     1772.35
loop_
_atom_site_label
_atom_site_type_symbol
_atom_site_fract_x
_atom_site_fract_y
_atom_site_fract_z
Sn1 Sn 0.20780 0.10140 0.04600
Sn2 Sn 0.01830 0.17580 0.07950
O1 O 0.02400 0.23700 0.32600
O2 O -0.08900 0.28200 -0.00400
O3 O -0.10000 0.15200 0.30600
N1 N -0.05500 0.20100 0.37500
C1 C 0.36300 0.13300 0.17100
C2 C 0.46600 0.08700 0.21700
C3 C 0.57700 0.11100 0.30600
C4 C 0.58200 0.17900 0.35600
C5 C 0.48200 0.22200 0.31600
C6 C 0.37000 0.20000 0.22200
C7 C 0.20900 0.00000 0.10400
C8 C 0.23700 -0.05200 0.00100
C9 C 0.24400 -0.12200 0.05700
C10 C 0.21900 -0.13600 0.19800
C11 C 0.18600 -0.08600 0.28700
C12 C 0.17900 -0.01400 0.23900
C13 C 0.26000 0.10000 -0.14900
C14 C 0.38500 0.09200 -0.16800
C15 C 0.41700 0.09000 -0.31200
C16 C 0.32200 0.09900 -0.43000
C17 C 0.20300 0.10800 -0.40800
C18 C 0.16900 0.11100 -0.26700
H1 H 0.45800 0.05300 0.16700
H2 H 0.64400 0.08300 0.32000
H3 H 0.66200 0.19400 0.39000
H4 H 0.48700 0.26600 0.35000
H5 H 0.30600 0.21500 0.18500
H6 H 0.26400 -0.04500 -0.08200
H7 H 0.26800 -0.15500 -0.03200
H8 H 0.23100 -0.18200 0.25500
H9 H 0.18400 -0.09800 0.37000
H10 H 0.15900 0.01800 0.27400
H11 H 0.43400 0.09100 -0.07200
H12 H 0.49400 0.08200 -0.32800
H13 H 0.33500 0.09900 -0.52500
H14 H 0.15000 0.11200 -0.49000
H15 H 0.08500 0.11700 -0.25600
N1C N -0.05500 0.29900 -0.12500
O2C O -0.08900 0.21800 0.49600
O1C O 0.02400 0.26300 -0.17400
O3C O -0.10000 0.34800 -0.19400
Sn2C Sn 0.01830 0.32420 0.57950
Sn2C_2 Sn 0.01830 0.32420 -0.42050
Sn1C Sn 0.20780 0.39860 0.54600
O1C_2 O 0.02400 0.26300 0.82600
O3C_2 O -0.10000 0.34800 0.80600
C1C C 0.36300 0.36700 0.67100
C7C C 0.20900 0.50000 0.60400
C13C C 0.26000 0.40000 0.35100
C2C C 0.46600 0.41300 0.71700
C6C C 0.37000 0.30000 0.72200
C8C C 0.23700 0.55200 0.50100
C12C C 0.17900 0.51400 0.73900
C14C C 0.38500 0.40800 0.33200
C18C C 0.16900 0.38900 0.23300
C3C C 0.57700 0.38900 0.80600
H1C H 0.45800 0.44700 0.66700
C5C C 0.48200 0.27800 0.81600
H5C H 0.30600 0.28500 0.68500
C9C C 0.24400 0.62200 0.55700
H6C H 0.26400 0.54500 0.41800
C11C C 0.18600 0.58600 0.78700
H10C H 0.15900 0.48200 0.77400
C15C C 0.41700 0.41000 0.18800
H11C H 0.43400 0.40900 0.42800
C17C C 0.20300 0.39200 0.09200
H15C H 0.08500 0.38300 0.24400
C4C C 0.58200 0.32100 0.85600
H2C H 0.64400 0.41700 0.82000
H4C H 0.48700 0.23400 0.85000
C10C C 0.21900 0.63600 0.69800
H7C H 0.26800 0.65500 0.46800
H9C H 0.18400 0.59800 0.87000
C16C C 0.32200 0.40100 0.07000
H12C H 0.49400 0.41800 0.17200
H14C H 0.15000 0.38800 0.01000
H3C H 0.66200 0.30600 0.89000
H8C H 0.23100 0.68200 0.75500
H13C H 0.33500 0.40100 -0.02500
loop_
_geom_bond_atom_site_label_1
_geom_bond_atom_site_label_2
_geom_bond_site_symmetry_1
_geom_bond_site_symmetry_2
Sn1 Sn2 1_555 1_555
Sn2 O1 1_555 1_555
O1 N1 1_555 1_555
O2 Sn2 1_555 1_555
O3 Sn2 1_555 1_555
N1 O3 1_555 1_555
C1 Sn1 1_555 1_555
C2 C1 1_555 1_555
C3 C2 1_555 1_555
C4 C3 1_555 1_555
C5 C4 1_555 1_555
C6 C1 1_555 1_555
C7 Sn1 1_555 1_555
C8 C7 1_555 1_555
C9 C8 1_555 1_555
C10 C9 1_555 1_555
C11 C10 1_555 1_555
C12 C7 1_555 1_555
C13 Sn1 1_555 1_555
C14 C13 1_555 1_555
C15 C14 1_555 1_555
C16 C15 1_555 1_555
C17 C16 1_555 1_555
C18 C13 1_555 1_555
H1 C2 1_555 1_555
H2 C3 1_555 1_555
H3 C4 1_555 1_555
H4 C5 1_555 1_555
H5 C6 1_555 1_555
H6 C8 1_555 1_555
H7 C9 1_555 1_555
H8 C10 1_555 1_555
H9 C11 1_555 1_555
H10 C12 1_555 1_555
H11 C14 1_555 1_555
H12 C15 1_555 1_555
H13 C16 1_555 1_555
H14 C17 1_555 1_555
H15 C18 1_555 1_555
N1C O2 1_555 1_555
O2C N1 1_555 1_555
O1C N1C 1_555 1_555
O3C N1C 1_555 1_555
Sn2C O2C 1_555 1_555
Sn2C_2 O1C 1_555 1_555
Sn1C Sn2C 1_555 1_555
O1C_2 Sn2C 1_555 1_555
O3C_2 Sn2C 1_555 1_555
C1C Sn1C 1_555 1_555
C7C Sn1C 1_555 1_555
C13C Sn1C 1_555 1_555
C2C C1C 1_555 1_555
C6C C1C 1_555 1_555
C8C C7C 1_555 1_555
C12C C7C 1_555 1_555
C14C C13C 1_555 1_555
C18C C13C 1_555 1_555
C3C C2C 1_555 1_555
H1C C2C 1_555 1_555
C5C C6C 1_555 1_555
H5C C6C 1_555 1_555
C9C C8C 1_555 1_555
H6C C8C 1_555 1_555
C11C C12C 1_555 1_555
H10C C12C 1_555 1_555
C15C C14C 1_555 1_555
H11C C14C 1_555 1_555
C17C C18C 1_555 1_555
H15C C18C 1_555 1_555
C4C C3C 1_555 1_555
H2C C3C 1_555 1_555
H4C C5C 1_555 1_555
C10C C9C 1_555 1_555
H7C C9C 1_555 1_555
H9C C11C 1_555 1_555
C16C C15C 1_555 1_555
H12C C15C 1_555 1_555
H14C C17C 1_555 1_555
H3C C4C 1_555 1_555
H8C C10C 1_555 1_555
H13C C16C 1_555 1_555
C5 C6 1_555 1_555
C11 C12 1_555 1_555
C17 C18 1_555 1_555
O3C Sn2C_2 1_555 1_555
C5C C4C 1_555 1_555
C11C C10C 1_555 1_555
C17C C16C 1_555 1_555

#END
