
#######################################################################
#
#                 Cambridge Crystallographic Data Centre
#                                CCDC 
#
#######################################################################
#
# If this CIF has been generated from an entry in the Cambridge 
# Structural Database, then it will include bibliographic, chemical, 
# crystal, experimental, refinement or atomic coordinate data resulting 
# from the CCDC's data processing and validation procedures.
#
#######################################################################

data_NTPHCU01
_symmetry_cell_setting           monoclinic
_symmetry_space_group_name_H-M   'P 21/n'
_symmetry_Int_Tables_number      14
_space_group_name_Hall           '-P 2yn'
loop_
_symmetry_equiv_pos_site_id
_symmetry_equiv_pos_as_xyz
1 x,y,z
2 1/2-x,1/2+y,1/2-z
3 -x,-y,-z
4 1/2+x,1/2-y,1/2+z
_cell_length_a                   8.7832(15)
_cell_length_b                   9.1136(16)
_cell_length_c                   17.173(3)
_cell_angle_alpha                90
_cell_angle_beta                 101.686(2)
_cell_angle_gamma                90
_cell_volume                     1346.15
loop_
_atom_site_label
_atom_site_type_symbol
_atom_site_fract_x
_atom_site_fract_y
_atom_site_fract_z
Cu1 Cu 0.83503(3) 0.42791(3) 0.696821(13)
N1 N 0.70510(18) 0.36714(18) 0.59243(9)
N2 N 0.89172(19) 0.59365(17) 0.63144(10)
N3 N 1.0982(2) 0.4773(2) 0.81600(10)
N4 N 0.61590(19) 0.62873(19) 0.77818(10)
O1 O 0.95129(17) 0.50491(18) 0.79780(8)
O2 O 1.1715(2) 0.5285(2) 0.87827(10)
O3 O 1.1543(2) 0.4000(3) 0.77103(11)
O4 O 0.62096(17) 0.50535(16) 0.74809(9)
O5 O 0.5452(2) 0.65217(19) 0.83151(11)
O6 O 0.68804(16) 0.73479(15) 0.75179(8)
C1 C 0.6044(2) 0.2574(2) 0.57589(12)
H1 H 0.5843 0.1996 0.6173
C2 C 0.5276(3) 0.2260(2) 0.49841(13)
H2 H 0.4563 0.1494 0.4889
C3 C 0.5575(2) 0.3078(2) 0.43656(12)
H3 H 0.5078 0.2863 0.3847
C4 C 0.6639(2) 0.4248(2) 0.45183(11)
C5 C 0.7326(2) 0.4513(2) 0.53139(11)
C6 C 0.7046(3) 0.5186(3) 0.39209(12)
H4 H 0.6634 0.5001 0.3387
C7 C 0.8020(3) 0.6335(3) 0.41217(12)
H5 H 0.8270 0.6923 0.3723
C8 C 0.8675(2) 0.6664(2) 0.49334(12)
C9 C 0.8347(2) 0.5732(2) 0.55247(11)
C10 C 0.9630(3) 0.7881(2) 0.51904(14)
H6 H 0.9897 0.8527 0.4821
C11 C 1.0165(3) 0.8110(2) 0.59846(14)
H7 H 1.0774 0.8926 0.6159
C12 C 0.9792(2) 0.7110(2) 0.65335(13)
H8 H 1.0171 0.7274 0.7072
Cu1A Cu 0.66497(3) 0.92791(3) 0.803179(13)
O6A O 0.81196(16) 0.23479(15) 0.74821(8)
loop_
_geom_bond_atom_site_label_1
_geom_bond_atom_site_label_2
_geom_bond_site_symmetry_1
_geom_bond_site_symmetry_2
Cu1 N1 1_555 1_555
N1 C1 1_555 1_555
N2 Cu1 1_555 1_555
N3 O1 1_555 1_555
N4 O4 1_555 1_555
O1 Cu1 1_555 1_555
O2 N3 1_555 1_555
O3 N3 1_555 1_555
O4 Cu1 1_555 1_555
O5 N4 1_555 1_555
O6 N4 1_555 1_555
C1 H1 1_555 1_555
C2 C1 1_555 1_555
H2 C2 1_555 1_555
C3 C2 1_555 1_555
H3 C3 1_555 1_555
C4 C3 1_555 1_555
C5 N1 1_555 1_555
C6 C4 1_555 1_555
H4 C6 1_555 1_555
C7 C6 1_555 1_555
H5 C7 1_555 1_555
C8 C7 1_555 1_555
C9 N2 1_555 1_555
C10 C8 1_555 1_555
H6 C10 1_555 1_555
C11 C10 1_555 1_555
H7 C11 1_555 1_555
C12 N2 1_555 1_555
H8 C12 1_555 1_555
Cu1A O6 1_555 1_555
O6A Cu1 1_555 1_555
C4 C5 1_555 1_555
C5 C9 1_555 1_555
C8 C9 1_555 1_555
C11 C12 1_555 1_555

#END
