
#######################################################################
#
#                 Cambridge Crystallographic Data Centre
#                                CCDC 
#
#######################################################################
#
# If this CIF has been generated from an entry in the Cambridge 
# Structural Database, then it will include bibliographic, chemical, 
# crystal, experimental, refinement or atomic coordinate data resulting 
# from the CCDC's data processing and validation procedures.
#
#######################################################################

data_NTPHCU02
_symmetry_cell_setting           monoclinic
_symmetry_space_group_name_H-M   'P 21/n'
_symmetry_Int_Tables_number      14
_space_group_name_Hall           '-P 2yn'
loop_
_symmetry_equiv_pos_site_id
_symmetry_equiv_pos_as_xyz
1 x,y,z
2 1/2-x,1/2+y,1/2-z
3 -x,-y,-z
4 1/2+x,1/2-y,1/2+z
_cell_length_a                   8.7008(2)
_cell_length_b                   9.0614(3)
_cell_length_c                   17.1132(3)
_cell_angle_alpha                90
_cell_angle_beta                 101.883(1)
_cell_angle_gamma                90
_cell_volume                     1320.32
loop_
_atom_site_label
_atom_site_type_symbol
_atom_site_fract_x
_atom_site_fract_y
_atom_site_fract_z
Cu1 Cu 0.33217(2) 0.571909(18) 0.696505(9)
O1 O 0.44896(13) 0.49408(13) 0.79822(6)
O2 O 0.65408(16) 0.60244(17) 0.77113(8)
O3 O 0.67381(14) 0.46952(15) 0.87856(7)
O4 O 0.31073(12) 0.76653(11) 0.74779(6)
O5 O 0.45415(15) 0.84825(13) 0.66662(7)
O6 O 0.38051(12) 0.99707(12) 0.75107(7)
N1 N 0.20198(14) 0.63339(13) 0.59143(7)
N2 N 0.39060(15) 0.40576(14) 0.63133(7)
N3 N 0.59632(15) 0.52295(14) 0.81570(7)
N4 N 0.38366(14) 0.87277(14) 0.72060(7)
C1 C 0.10019(18) 0.74368(16) 0.57496(9)
H1 H 0.0788 0.8023 0.6175
C2 C 0.02310(18) 0.77634(17) 0.49637(9)
H2 H -0.0504 0.8551 0.4863
C3 C 0.05444(18) 0.69395(17) 0.43407(9)
H3 H 0.0038 0.7161 0.3807
C4 C 0.16239(17) 0.57615(15) 0.44997(9)
C5 C 0.20491(18) 0.48249(18) 0.39014(8)
H4 H 0.1633 0.5022 0.3353
C6 C 0.30352(18) 0.36632(18) 0.41051(9)
H5 H 0.3299 0.3061 0.3698
C7 C 0.36844(16) 0.33318(16) 0.49263(9)
C8 C 0.46510(18) 0.21024(17) 0.51869(10)
H6 H 0.4932 0.1440 0.4809
C9 C 0.51827(18) 0.18694(17) 0.59913(10)
H7 H 0.5811 0.1031 0.6174
C10 C 0.47901(18) 0.28790(17) 0.65410(9)
H8 H 0.5170 0.2713 0.7095
C11 C 0.33420(16) 0.42653(14) 0.55194(9)
C12 C 0.23080(16) 0.54932(15) 0.53026(8)
Cu1A Cu 0.16783(2) 1.071909(18) 0.803495(9)
O6A O 0.11949(12) 0.49707(12) 0.74893(7)
loop_
_geom_bond_atom_site_label_1
_geom_bond_atom_site_label_2
_geom_bond_site_symmetry_1
_geom_bond_site_symmetry_2
Cu1 O1 1_555 1_555
O1 N3 1_555 1_555
O2 N3 1_555 1_555
O3 N3 1_555 1_555
O4 Cu1 1_555 1_555
O5 N4 1_555 1_555
O6 N4 1_555 1_555
N1 Cu1 1_555 1_555
N2 Cu1 1_555 1_555
N4 O4 1_555 1_555
C1 N1 1_555 1_555
H1 C1 1_555 1_555
C2 C1 1_555 1_555
H2 C2 1_555 1_555
C3 C2 1_555 1_555
H3 C3 1_555 1_555
C4 C3 1_555 1_555
C5 C4 1_555 1_555
H4 C5 1_555 1_555
C6 C5 1_555 1_555
H5 C6 1_555 1_555
C7 C6 1_555 1_555
C8 C7 1_555 1_555
H6 C8 1_555 1_555
C9 C8 1_555 1_555
H7 C9 1_555 1_555
C10 N2 1_555 1_555
H8 C10 1_555 1_555
C11 N2 1_555 1_555
C12 N1 1_555 1_555
Cu1A O6 1_555 1_555
O6A Cu1 1_555 1_555
C4 C12 1_555 1_555
C7 C11 1_555 1_555
C9 C10 1_555 1_555
C11 C12 1_555 1_555

#END
