
#######################################################################
#
#                 Cambridge Crystallographic Data Centre
#                                CCDC 
#
#######################################################################
#
# If this CIF has been generated from an entry in the Cambridge 
# Structural Database, then it will include bibliographic, chemical, 
# crystal, experimental, refinement or atomic coordinate data resulting 
# from the CCDC's data processing and validation procedures.
#
#######################################################################

data_NUBNAZ
_symmetry_cell_setting           monoclinic
_symmetry_space_group_name_H-M   'P 21/n'
_symmetry_Int_Tables_number      14
_space_group_name_Hall           '-P 2yn'
loop_
_symmetry_equiv_pos_site_id
_symmetry_equiv_pos_as_xyz
1 x,y,z
2 1/2-x,1/2+y,1/2-z
3 -x,-y,-z
4 1/2+x,1/2-y,1/2+z
_cell_length_a                   7.906(2)
_cell_length_b                   12.768(2)
_cell_length_c                   18.254(3)
_cell_angle_alpha                90
_cell_angle_beta                 95.30(3)
_cell_angle_gamma                90
_cell_volume                     1834.75
loop_
_atom_site_label
_atom_site_type_symbol
_atom_site_fract_x
_atom_site_fract_y
_atom_site_fract_z
Co1 Co 0.57680(7) 0.15431(4) 0.76076(3)
Sr1 Sr 1.24295(5) 0.33464(3) 0.94305(2)
O1 O 0.69517(38) 0.26290(25) 0.83200(18)
O2 O 0.94015(45) 0.32041(31) 0.88466(22)
O3 O 0.68057(40) 0.18490(26) 0.65569(18)
O4 O 0.82796(48) 0.10361(28) 0.57467(18)
O5 O 0.43542(47) 0.04243(27) 0.69485(18)
O6 O 0.26619(44) -0.09665(28) 0.69456(18)
O7 O 0.36171(45) 0.18133(27) 0.86706(18)
O8 O 0.43461(45) 0.17350(27) 0.98743(17)
N1 N 0.84382(46) 0.09539(29) 0.77220(20)
N2 N 0.55891(46) 0.01871(28) 0.83455(20)
C1 C 0.85701(54) 0.26245(36) 0.84208(24)
C2 C 0.94864(53) 0.18868(38) 0.79306(26)
H1 H 0.95005(53) 0.21913(38) 0.74650(26)
H2 H 1.06404(53) 0.17648(38) 0.81238(26)
C3 C 0.78923(56) 0.12021(35) 0.63840(24)
C4 C 0.88029(62) 0.05516(39) 0.69951(25)
H3 H 1.00442(62) 0.05008(39) 0.69277(25)
H4 H 0.80112(62) -0.02052(39) 0.69537(25)
C5 C 0.86536(62) 0.01328(40) 0.82871(26)
H5 H 0.91581(62) 0.04802(40) 0.87407(26)
H6 H 0.95051(62) -0.03428(40) 0.82427(26)
C6 C 0.70477(62) -0.05089(35) 0.82714(26)
H7 H 0.72077(62) -0.09936(35) 0.87127(26)
H8 H 0.68187(62) -0.08296(35) 0.77917(26)
C7 C 0.36593(57) -0.03139(35) 0.72635(25)
C8 C 0.40168(61) -0.03703(38) 0.80932(25)
H9 H 0.31698(61) 0.00413(38) 0.82106(25)
H10 H 0.39758(61) -0.10117(38) 0.82206(25)
C9 C 0.44146(57) 0.14180(32) 0.92288(25)
C10 C 0.55652(63) 0.05000(36) 0.91211(24)
H11 H 0.64841(63) 0.07671(36) 0.93855(24)
H12 H 0.52611(63) -0.00019(36) 0.93835(24)
O9 O 1.55066(49) 0.39399(33) 0.93731(22)
H13 H 1.5971(83) 0.4470(54) 0.9427(35)
H14 H 1.6055(97) 0.3557(64) 0.9140(41)
O10 O 1.13560(58) 0.52460(31) 0.95328(23)
H15 H 1.1004(80) 0.5421(50) 0.9087(35)
O11 O 1.05223(66) 0.22154(41) 1.02730(28)
H16 H 1.089(11) 0.2416(69) 1.0722(50)
H17 H 0.9549(95) 0.2326(56) 1.0165(39)
O12 O 0.40016(49) 0.26574(31) 0.72062(20)
H18 H 0.3164(84) 0.2556(50) 0.6778(37)
H19 H 0.3436(78) 0.2967(50) 0.7473(36)
H21 H 1.11470 0.56750 0.97920
O4C O 1.32796(48) 0.39639(28) 1.07467(18)
O6A O 1.23381(44) 0.40335(28) 0.80544(18)
O7_2 O 1.36171(45) 0.18133(27) 0.86706(18)
O8_2 O 1.43461(45) 0.17350(27) 0.98743(17)
Sr1C Sr 0.74295(5) 0.16536(3) 0.44305(2)
Sr1A Sr 0.25705(5) -0.16536(3) 0.55695(2)
Sr1_2 Sr 0.24295(5) 0.33464(3) 0.94305(2)
O13 O 0.19893(80) 0.23601(45) 0.58217(31)
H20 H 0.1229(77) 0.2557(49) 0.5644(34)
H22 H 0.24530 0.17200 0.55310
loop_
_geom_bond_atom_site_label_1
_geom_bond_atom_site_label_2
_geom_bond_site_symmetry_1
_geom_bond_site_symmetry_2
Co1 O1 1_555 1_555
Sr1 O2 1_555 1_555
O1 C1 1_555 1_555
O2 C1 1_555 1_555
O3 Co1 1_555 1_555
O4 C3 1_555 1_555
O5 Co1 1_555 1_555
O6 C7 1_555 1_555
O7 C9 1_555 1_555
O8 C9 1_555 1_555
N1 Co1 1_555 1_555
N2 Co1 1_555 1_555
C1 C2 1_555 1_555
C2 N1 1_555 1_555
H1 C2 1_555 1_555
H2 C2 1_555 1_555
C3 O3 1_555 1_555
C4 N1 1_555 1_555
H3 C4 1_555 1_555
H4 C4 1_555 1_555
C5 N1 1_555 1_555
H5 C5 1_555 1_555
H6 C5 1_555 1_555
C6 N2 1_555 1_555
H7 C6 1_555 1_555
H8 C6 1_555 1_555
C7 O5 1_555 1_555
C8 N2 1_555 1_555
H9 C8 1_555 1_555
H10 C8 1_555 1_555
C9 C10 1_555 1_555
C10 N2 1_555 1_555
H11 C10 1_555 1_555
H12 C10 1_555 1_555
O9 Sr1 1_555 1_555
H13 O9 1_555 1_555
H14 O9 1_555 1_555
O10 Sr1 1_555 1_555
H15 O10 1_555 1_555
O11 Sr1 1_555 1_555
H16 O11 1_555 1_555
H17 O11 1_555 1_555
O12 Co1 1_555 1_555
H18 O12 1_555 1_555
H19 O12 1_555 1_555
O13 H20 1_555 1_555
H21 O10 1_555 1_555
H22 O13 1_555 1_555
O4C Sr1 1_555 1_555
O6A Sr1 1_555 1_555
O7_2 Sr1 1_555 1_555
O8_2 Sr1 1_555 1_555
Sr1C O4 1_555 1_555
Sr1A O6 1_555 1_555
Sr1_2 O7 1_555 1_555
O8 Sr1_2 1_555 1_555
C3 C4 1_555 1_555
C5 C6 1_555 1_555
C7 C8 1_555 1_555

#END
