
#######################################################################
#
#                 Cambridge Crystallographic Data Centre
#                                CCDC 
#
#######################################################################
#
# If this CIF has been generated from an entry in the Cambridge 
# Structural Database, then it will include bibliographic, chemical, 
# crystal, experimental, refinement or atomic coordinate data resulting 
# from the CCDC's data processing and validation procedures.
#
#######################################################################

data_NUCBIY
_symmetry_cell_setting           orthorhombic
_symmetry_space_group_name_H-M   'F d d 2'
_symmetry_Int_Tables_number      43
_space_group_name_Hall           'F 2 -2d'
loop_
_symmetry_equiv_pos_site_id
_symmetry_equiv_pos_as_xyz
1 x,y,z
2 -x,-y,z
3 1/4-x,1/4+y,1/4+z
4 1/4+x,1/4-y,1/4+z
5 x,1/2+y,1/2+z
6 -x,1/2-y,1/2+z
7 1/4-x,3/4+y,3/4+z
8 1/4+x,3/4-y,3/4+z
9 1/2+x,y,1/2+z
10 1/2-x,-y,1/2+z
11 3/4-x,1/4+y,3/4+z
12 3/4+x,1/4-y,3/4+z
13 1/2+x,1/2+y,z
14 1/2-x,1/2-y,z
15 3/4-x,3/4+y,1/4+z
16 3/4+x,3/4-y,1/4+z
_cell_length_a                   22.3458(7)
_cell_length_b                   29.7691(11)
_cell_length_c                   33.3734(11)
_cell_angle_alpha                90
_cell_angle_beta                 90
_cell_angle_gamma                90
_cell_volume                     22200.5
loop_
_atom_site_label
_atom_site_type_symbol
_atom_site_fract_x
_atom_site_fract_y
_atom_site_fract_z
Zn1 Zn 1.0000 0.5000 0.38346(5)
O1 O 0.8571(3) 0.3223(2) 0.6375(2)
O2 O 0.7902(3) 0.2909(2) 0.59717(19)
N1 N 0.9015(3) 0.5025(2) 0.4404(2)
H1 H 0.8953 0.5292 0.4317
N2 N 0.9407(3) 0.4728(3) 0.4233(2)
C1 C 0.8508(4) 0.3491(3) 0.5709(3)
C2 C 0.8350(4) 0.3398(3) 0.5317(3)
H2 H 0.8134 0.3140 0.5256
C3 C 0.9389(4) 0.4362(3) 0.4464(3)
C4 C 0.8518(4) 0.3697(3) 0.5011(3)
H3 H 0.8423 0.3629 0.4747
C5 C 0.8981(4) 0.4414(3) 0.4771(3)
C6 C 0.8824(4) 0.4092(3) 0.5097(3)
C7 C 0.8744(4) 0.4850(3) 0.4719(3)
C8 C 0.8978(4) 0.4181(3) 0.5494(3)
H4 H 0.9180 0.4445 0.5558
C9 C 0.8833(4) 0.3881(3) 0.5790(3)
H5 H 0.8954 0.3938 0.6052
C10 C 0.8322(4) 0.3185(3) 0.6050(3)
C11 C 0.9781(4) 0.3965(3) 0.4382(3)
H6 H 0.9784 0.3905 0.4099
H7 H 0.9628 0.3708 0.4522
H8 H 1.0180 0.4028 0.4471
C12 C 0.8282(5) 0.5101(4) 0.4953(3)
H9 H 0.8472 0.5330 0.5109
H10 H 0.8075 0.4897 0.5127
H11 H 0.8002 0.5237 0.4771
O1A O 1.1429(3) 0.6777(2) 0.6375(2)
O2A O 1.2098(3) 0.7091(2) 0.59717(19)
N1A N 1.0985(3) 0.4975(2) 0.4404(2)
H1A H 1.1047 0.4708 0.4317
N2A N 1.0593(3) 0.5272(3) 0.4233(2)
C1A C 1.1492(4) 0.6509(3) 0.5709(3)
C2A C 1.1650(4) 0.6602(3) 0.5317(3)
H2A H 1.1866 0.6860 0.5256
C3A C 1.0611(4) 0.5638(3) 0.4464(3)
C4A C 1.1482(4) 0.6303(3) 0.5011(3)
H3A H 1.1577 0.6371 0.4747
C5A C 1.1019(4) 0.5586(3) 0.4771(3)
C6A C 1.1176(4) 0.5908(3) 0.5097(3)
C7A C 1.1256(4) 0.5150(3) 0.4719(3)
C8A C 1.1022(4) 0.5819(3) 0.5494(3)
H4A H 1.0820 0.5555 0.5558
C9A C 1.1167(4) 0.6119(3) 0.5790(3)
H5A H 1.1046 0.6062 0.6052
C10A C 1.1678(4) 0.6815(3) 0.6050(3)
C11A C 1.0219(4) 0.6035(3) 0.4382(3)
H6A H 1.0216 0.6095 0.4099
H7A H 1.0372 0.6292 0.4522
H8A H 0.9820 0.5972 0.4471
C12A C 1.1718(5) 0.4899(4) 0.4953(3)
H9A H 1.1528 0.4670 0.5109
H10A H 1.1925 0.5103 0.5127
H11A H 1.1998 0.4763 0.4771
Zn1B Zn 1.2500 0.7500 0.63346(5)
Zn1N Zn 0.7500 0.2500 0.63346(5)
O2G O 1.0402(3) 0.4591(2) 0.34717(19)
O2J O 0.9598(3) 0.5409(2) 0.34717(19)
Zn2 Zn 0.5000 0.5000 0.50050(5)
O3 O 0.2939(3) 0.7088(3) 0.2853(2)
O4 O 0.3852(3) 0.7385(3) 0.2903(2)
N3 N 0.3862(3) 0.5400(3) 0.4779(2)
H12 H 0.3701 0.5253 0.4973
N4 N 0.4449(3) 0.5369(2) 0.4679(2)
C13 C 0.3604(4) 0.6771(3) 0.3319(3)
C14 C 0.3243(4) 0.6400(3) 0.3380(3)
H13 H 0.2916 0.6352 0.3214
C15 C 0.4523(4) 0.5648(3) 0.4371(3)
C16 C 0.3364(4) 0.6099(4) 0.3686(3)
H14 H 0.3114 0.5853 0.3725
C17 C 0.3981(4) 0.5850(3) 0.4265(3)
C18 C 0.3857(4) 0.6163(3) 0.3936(3)
C19 C 0.3562(4) 0.5685(3) 0.4544(3)
C20 C 0.4224(4) 0.6527(3) 0.3862(3)
H15 H 0.4558 0.6572 0.4023
C21 C 0.4109(4) 0.6824(3) 0.3557(3)
H16 H 0.4370 0.7061 0.3509
C22 C 0.3463(4) 0.7111(3) 0.3003(3)
C23 C 0.5123(4) 0.5703(4) 0.4176(3)
H17 H 0.5173 0.6009 0.4093
H18 H 0.5149 0.5508 0.3948
H19 H 0.5432 0.5626 0.4365
C24 C 0.2919(4) 0.5793(4) 0.4604(4)
H20 H 0.2680 0.5607 0.4432
H21 H 0.2850 0.6103 0.4541
H22 H 0.2811 0.5737 0.4878
O3A O 0.7061(3) 0.2912(3) 0.2853(2)
O4A O 0.6148(3) 0.2615(3) 0.2903(2)
N3A N 0.6138(3) 0.4600(3) 0.4779(2)
H12A H 0.6299 0.4747 0.4973
N4A N 0.5551(3) 0.4631(2) 0.4679(2)
C13A C 0.6396(4) 0.3229(3) 0.3319(3)
C14A C 0.6757(4) 0.3600(3) 0.3380(3)
H13A H 0.7084 0.3648 0.3214
C15A C 0.5477(4) 0.4352(3) 0.4371(3)
C16A C 0.6636(4) 0.3901(4) 0.3686(3)
H14A H 0.6886 0.4147 0.3725
C17A C 0.6019(4) 0.4150(3) 0.4265(3)
C18A C 0.6143(4) 0.3837(3) 0.3936(3)
C19A C 0.6438(4) 0.4315(3) 0.4544(3)
C20A C 0.5776(4) 0.3473(3) 0.3862(3)
H15A H 0.5442 0.3428 0.4023
C21A C 0.5891(4) 0.3176(3) 0.3557(3)
H16A H 0.5630 0.2939 0.3509
C22A C 0.6537(4) 0.2889(3) 0.3003(3)
C23A C 0.4877(4) 0.4297(4) 0.4176(3)
H17A H 0.4827 0.3991 0.4093
H18A H 0.4851 0.4492 0.3948
H19A H 0.4568 0.4374 0.4365
C24A C 0.7081(4) 0.4207(4) 0.4604(4)
H20A H 0.7320 0.4393 0.4432
H21A H 0.7150 0.3897 0.4541
H22A H 0.7189 0.4263 0.4878
Zn2F Zn 0.7500 0.2500 0.25050(5)
Zn2J Zn 0.2500 0.7500 0.25050(5)
O3C O 0.5439(3) 0.5412(3) 0.5353(2)
O3N O 0.4561(3) 0.4588(3) 0.5353(2)
Zn3 Zn 0.75206(5) 0.50489(4) 0.68707(3)
O5 O 0.9496(3) 0.2900(2) 0.90002(18)
O6 O 0.6244(3) 0.2651(3) 0.4815(2)
O7 O 0.8674(3) 0.2488(2) 0.8861(2)
O8 O 0.5349(3) 0.2982(2) 0.47273(19)
N5 N 0.8546(4) 0.4467(3) 0.6987(3)
H23 H 0.8679 0.4567 0.6762
N6 N 0.6351(3) 0.4676(3) 0.6657(2)
H24 H 0.6203 0.4809 0.6863
N7 N 0.8043(3) 0.4617(3) 0.7167(2)
N8 N 0.6938(3) 0.4708(3) 0.6539(2)
C25 C 0.8861(4) 0.3148(3) 0.8487(3)
C26 C 0.6018(4) 0.3308(3) 0.5188(3)
C27 C 0.9289(4) 0.3459(3) 0.8353(3)
H25 H 0.9668 0.3461 0.8468
C28 C 0.5654(4) 0.3672(3) 0.5263(3)
H26 H 0.5308 0.3706 0.5111
C29 C 0.7983(4) 0.4373(3) 0.7503(3)
C30 C 0.6988(4) 0.4454(3) 0.6214(3)
C31 C 0.9155(4) 0.3761(3) 0.8054(3)
H27 H 0.9439 0.3971 0.7976
C32 C 0.5782(4) 0.3986(3) 0.5552(3)
H28 H 0.5526 0.4228 0.5591
C33 C 0.8455(4) 0.4075(3) 0.7532(3)
C34 C 0.6423(4) 0.4253(3) 0.6111(3)
C35 C 0.8597(4) 0.3755(3) 0.7866(3)
C36 C 0.6304(4) 0.3941(3) 0.5793(3)
C37 C 0.8812(4) 0.4144(4) 0.7199(3)
C38 C 0.6035(4) 0.4409(3) 0.6410(3)
C39 C 0.8173(4) 0.3444(4) 0.7996(3)
H29 H 0.7798 0.3436 0.7875
C40 C 0.6677(5) 0.3579(4) 0.5714(3)
H30 H 0.7027 0.3548 0.5862
C41 C 0.8305(4) 0.3147(3) 0.8303(3)
H31 H 0.8015 0.2944 0.8388
C42 C 0.6547(4) 0.3260(3) 0.5422(3)
H32 H 0.6803 0.3018 0.5380
C43 C 0.9011(4) 0.2821(3) 0.8806(3)
C44 C 0.5865(4) 0.2956(3) 0.4888(3)
C45 C 0.7466(4) 0.4440(4) 0.7781(3)
H33 H 0.7612 0.4527 0.8040
H34 H 0.7245 0.4165 0.7804
H35 H 0.7210 0.4672 0.7678
C46 C 0.7557(5) 0.4433(5) 0.5992(4)
H36 H 0.7827 0.4233 0.6126
H37 H 0.7731 0.4728 0.5979
H38 H 0.7483 0.4326 0.5725
C47 C 0.9371(5) 0.3913(5) 0.7049(4)
H39 H 0.9684 0.4131 0.7014
H40 H 0.9289 0.3771 0.6797
H41 H 0.9496 0.3691 0.7240
C48 C 0.5390(5) 0.4321(4) 0.6479(4)
H42 H 0.5159 0.4457 0.6269
H43 H 0.5273 0.4447 0.6732
H44 H 0.5320 0.4003 0.6481
Zn3F Zn 0.49794(5) 0.25489(4) 0.43707(3)
Zn3N Zn 0.99794(5) 0.25489(4) 0.93707(3)
O5J O 0.8004(3) 0.5400(2) 0.65002(18)
O8B O 0.7151(3) 0.5482(2) 0.72273(19)
O9 O 0.7073(8) 0.5761(7) 0.4976(6)
H45 H 0.6784 0.5903 0.4869
H46 H 0.7101 0.5503 0.4870
O10 O 0.3431(18) 0.5109(13) 0.3140(10)
H47 H 0.3276 0.5337 0.3231
C49 C 0.4081(13) 0.5019(7) 0.3353(9)
H48 H 0.4384 0.5182 0.3211
H49 H 0.4173 0.4704 0.3348
H50 H 0.4066 0.5120 0.3626
O11 O 0.2528(11) 0.5156(8) 0.3775(10)
H51 H 0.2499 0.4904 0.3871
C50 C 0.1963(7) 0.5301(6) 0.3641(5)
H52 H 0.1817 0.5105 0.3434
H53 H 0.1994 0.5601 0.3538
H54 H 0.1693 0.5297 0.3864
O12 O 0.6683(13) 0.6616(10) 0.5097(12)
H55 H 0.6686 0.6355 0.5177
C51 C 0.6185(12) 0.6697(12) 0.4922(9)
H56 H 0.6154 0.6522 0.4681
H57 H 0.6162 0.7010 0.4857
H58 H 0.5864 0.6619 0.5100
O13 O 0.7096(16) 0.5548(8) 0.4180(8)
H59 H 0.7008 0.5622 0.4409
C52 C 0.7000(17) 0.5897(10) 0.3928(8)
H60 H 0.6709 0.5811 0.3731
H61 H 0.7370 0.5970 0.3797
H62 H 0.6858 0.6155 0.4072
loop_
_geom_bond_atom_site_label_1
_geom_bond_atom_site_label_2
_geom_bond_site_symmetry_1
_geom_bond_site_symmetry_2
Zn1 N2 1_555 1_555
O1 C10 1_555 1_555
O2 C10 1_555 1_555
N1 H1 1_555 1_555
N2 N1 1_555 1_555
C1 C2 1_555 1_555
C2 H2 1_555 1_555
C3 N2 1_555 1_555
C4 C2 1_555 1_555
H3 C4 1_555 1_555
C5 C3 1_555 1_555
C6 C4 1_555 1_555
C7 N1 1_555 1_555
C8 C6 1_555 1_555
H4 C8 1_555 1_555
C9 C1 1_555 1_555
H5 C9 1_555 1_555
C10 C1 1_555 1_555
C11 C3 1_555 1_555
H6 C11 1_555 1_555
H7 C11 1_555 1_555
H8 C11 1_555 1_555
C12 C7 1_555 1_555
H9 C12 1_555 1_555
H10 C12 1_555 1_555
H11 C12 1_555 1_555
Zn2 N4 1_555 1_555
O3 C22 1_555 1_555
O4 C22 1_555 1_555
N3 H12 1_555 1_555
N4 N3 1_555 1_555
C13 C14 1_555 1_555
C14 H13 1_555 1_555
C15 N4 1_555 1_555
C16 C14 1_555 1_555
H14 C16 1_555 1_555
C17 C15 1_555 1_555
C18 C16 1_555 1_555
C19 N3 1_555 1_555
C20 C18 1_555 1_555
H15 C20 1_555 1_555
C21 C13 1_555 1_555
H16 C21 1_555 1_555
C22 C13 1_555 1_555
C23 C15 1_555 1_555
H17 C23 1_555 1_555
H18 C23 1_555 1_555
H19 C23 1_555 1_555
C24 C19 1_555 1_555
H20 C24 1_555 1_555
H21 C24 1_555 1_555
H22 C24 1_555 1_555
Zn3 N7 1_555 1_555
O5 C43 1_555 1_555
O6 C44 1_555 1_555
O7 C43 1_555 1_555
O8 C44 1_555 1_555
N5 H23 1_555 1_555
N6 H24 1_555 1_555
N7 N5 1_555 1_555
N8 Zn3 1_555 1_555
C25 C27 1_555 1_555
C26 C28 1_555 1_555
C27 H25 1_555 1_555
C28 H26 1_555 1_555
C29 N7 1_555 1_555
C30 N8 1_555 1_555
C31 C27 1_555 1_555
H27 C31 1_555 1_555
C32 C28 1_555 1_555
H28 C32 1_555 1_555
C33 C29 1_555 1_555
C34 C30 1_555 1_555
C35 C31 1_555 1_555
C36 C32 1_555 1_555
C37 N5 1_555 1_555
C38 N6 1_555 1_555
C39 C35 1_555 1_555
H29 C39 1_555 1_555
C40 C36 1_555 1_555
H30 C40 1_555 1_555
C41 C25 1_555 1_555
H31 C41 1_555 1_555
C42 C26 1_555 1_555
H32 C42 1_555 1_555
C43 C25 1_555 1_555
C44 C26 1_555 1_555
C45 C29 1_555 1_555
H33 C45 1_555 1_555
H34 C45 1_555 1_555
H35 C45 1_555 1_555
C46 C30 1_555 1_555
H36 C46 1_555 1_555
H37 C46 1_555 1_555
H38 C46 1_555 1_555
C47 C37 1_555 1_555
H39 C47 1_555 1_555
H40 C47 1_555 1_555
H41 C47 1_555 1_555
C48 C38 1_555 1_555
H42 C48 1_555 1_555
H43 C48 1_555 1_555
H44 C48 1_555 1_555
O9 H45 1_555 1_555
H46 O9 1_555 1_555
O10 H47 1_555 1_555
C49 O10 1_555 1_555
H48 C49 1_555 1_555
H49 C49 1_555 1_555
H50 C49 1_555 1_555
O11 H51 1_555 1_555
C50 O11 1_555 1_555
H52 C50 1_555 1_555
H53 C50 1_555 1_555
H54 C50 1_555 1_555
O12 H55 1_555 1_555
C51 O12 1_555 1_555
H56 C51 1_555 1_555
H57 C51 1_555 1_555
H58 C51 1_555 1_555
O13 H59 1_555 1_555
C52 O13 1_555 1_555
H60 C52 1_555 1_555
H61 C52 1_555 1_555
H62 C52 1_555 1_555
O1A C10A 1_555 1_555
O2A C10A 1_555 1_555
N1A H1A 1_555 1_555
N2A Zn1 1_555 1_555
C1A C2A 1_555 1_555
C2A H2A 1_555 1_555
C3A N2A 1_555 1_555
C4A C2A 1_555 1_555
H3A C4A 1_555 1_555
C5A C3A 1_555 1_555
C6A C4A 1_555 1_555
C7A N1A 1_555 1_555
C8A C6A 1_555 1_555
H4A C8A 1_555 1_555
C9A C1A 1_555 1_555
H5A C9A 1_555 1_555
C10A C1A 1_555 1_555
C11A C3A 1_555 1_555
H6A C11A 1_555 1_555
H7A C11A 1_555 1_555
H8A C11A 1_555 1_555
C12A C7A 1_555 1_555
H9A C12A 1_555 1_555
H10A C12A 1_555 1_555
H11A C12A 1_555 1_555
Zn1B O2A 1_555 1_555
Zn1N O2 1_555 1_555
O2G Zn1 1_555 1_555
O2J Zn1 1_555 1_555
O3A C22A 1_555 1_555
O4A C22A 1_555 1_555
N3A H12A 1_555 1_555
N4A Zn2 1_555 1_555
C13A C14A 1_555 1_555
C14A H13A 1_555 1_555
C15A N4A 1_555 1_555
C16A C14A 1_555 1_555
H14A C16A 1_555 1_555
C17A C15A 1_555 1_555
C18A C16A 1_555 1_555
C19A N3A 1_555 1_555
C20A C18A 1_555 1_555
H15A C20A 1_555 1_555
C21A C13A 1_555 1_555
H16A C21A 1_555 1_555
C22A C13A 1_555 1_555
C23A C15A 1_555 1_555
H17A C23A 1_555 1_555
H18A C23A 1_555 1_555
H19A C23A 1_555 1_555
C24A C19A 1_555 1_555
H20A C24A 1_555 1_555
H21A C24A 1_555 1_555
H22A C24A 1_555 1_555
Zn2F O3A 1_555 1_555
Zn2J O3 1_555 1_555
O3C Zn2 1_555 1_555
O3N Zn2 1_555 1_555
Zn3F O8 1_555 1_555
Zn3N O5 1_555 1_555
O5J Zn3 1_555 1_555
O8B Zn3 1_555 1_555
C5 C6 1_555 1_555
C5 C7 1_555 1_555
C8 C9 1_555 1_555
C17 C18 1_555 1_555
C17 C19 1_555 1_555
C20 C21 1_555 1_555
N6 N8 1_555 1_555
C33 C35 1_555 1_555
C33 C37 1_555 1_555
C34 C36 1_555 1_555
C34 C38 1_555 1_555
C39 C41 1_555 1_555
C40 C42 1_555 1_555
N1A N2A 1_555 1_555
C5A C6A 1_555 1_555
C5A C7A 1_555 1_555
C8A C9A 1_555 1_555
N3A N4A 1_555 1_555
C17A C18A 1_555 1_555
C17A C19A 1_555 1_555
C20A C21A 1_555 1_555

#END
