
#######################################################################
#
#                 Cambridge Crystallographic Data Centre
#                                CCDC 
#
#######################################################################
#
# If this CIF has been generated from an entry in the Cambridge 
# Structural Database, then it will include bibliographic, chemical, 
# crystal, experimental, refinement or atomic coordinate data resulting 
# from the CCDC's data processing and validation procedures.
#
#######################################################################

data_NUCCUK
_symmetry_cell_setting           triclinic
_symmetry_space_group_name_H-M   'P -1'
_symmetry_Int_Tables_number      2
_space_group_name_Hall           '-P 1'
loop_
_symmetry_equiv_pos_site_id
_symmetry_equiv_pos_as_xyz
1 x,y,z
2 -x,-y,-z
_cell_length_a                   8.4645(18)
_cell_length_b                   9.117(2)
_cell_length_c                   11.632(2)
_cell_angle_alpha                110.885(6)
_cell_angle_beta                 90.108(3)
_cell_angle_gamma                104.698(5)
_cell_volume                     806.984
loop_
_atom_site_label
_atom_site_type_symbol
_atom_site_fract_x
_atom_site_fract_y
_atom_site_fract_z
Mn1 Mn 0.0000 0.0000 0.0000
S1 S 0.1648(3) 0.58689(17) 0.25003(17)
N1 N 0.4186(4) -0.1643(4) 0.0792(3)
N2 N 0.4754(4) -0.0019(4) 0.1518(3)
N3 N 0.2334(4) -0.0532(4) 0.0453(3)
N4 N -0.1889(4) 0.0188(4) 0.3555(3)
N5 N -0.1350(5) -0.1171(5) 0.3320(4)
N6 N -0.0772(4) -0.0143(4) 0.1833(3)
N7 N 0.1104(5) 0.2624(4) 0.0926(4)
C1 C 0.5146(5) -0.2752(5) 0.0855(4)
H1 H 0.5134 -0.2809 0.1689
H2 H 0.6300 -0.2301 0.0735
C2 C 0.4503(5) -0.4452(5) -0.0099(4)
H3 H 0.4600 -0.4424 -0.0940
H4 H 0.3329 -0.4892 -0.0022
C3 C 0.3594(5) 0.0571(5) 0.1279(4)
H5 H 0.3631 0.1692 0.1657
C4 C 0.2758(5) -0.1916(5) 0.0175(4)
H6 H 0.2128 -0.2951 -0.0384
C5 C -0.2787(6) 0.0759(6) 0.4630(4)
H7 H -0.2798 0.1897 0.4786
H8 H -0.2212 0.0751 0.5369
C6 C -0.4544(5) -0.0303(6) 0.4435(4)
H9 H -0.4538 -0.1443 0.4277
H10 H -0.5125 -0.0289 0.3701
C7 C -0.0698(6) -0.1307(6) 0.2274(4)
H11 H -0.0212 -0.2161 0.1861
C8 C -0.1545(5) 0.0769(5) 0.2666(4)
H12 H -0.1812 0.1703 0.2629
C9 C 0.1314(5) 0.3970(5) 0.1579(4)
Mn1_2 Mn 1.0000 -1.0000 0.0000
Mn1_3 Mn -1.0000 0.0000 1.0000
S1A S -0.1648(3) -0.58689(17) -0.25003(17)
N1A N 0.5814(4) -0.8357(4) -0.0792(3)
N2A N 0.5246(4) -0.9981(4) -0.1518(3)
N3A N 0.7666(4) -0.9468(4) -0.0453(3)
N3A_2 N -0.2334(4) 0.0532(4) -0.0453(3)
N4A N -0.8111(4) -0.0188(4) 0.6445(3)
N5A N -0.8650(5) 0.1171(5) 0.6680(4)
N6A N -0.9228(4) 0.0143(4) 0.8167(3)
N6A_2 N 0.0772(4) 0.0143(4) -0.1833(3)
N7A N -0.1104(5) -0.2624(4) -0.0926(4)
C1A C 0.4854(5) -0.7248(5) -0.0855(4)
H1A H 0.4866 -0.7191 -0.1689
H2A H 0.3700 -0.7699 -0.0735
C2A C 0.5497(5) -0.5548(5) 0.0099(4)
H3A H 0.5400 -0.5576 0.0940
H4A H 0.6671 -0.5108 0.0022
C3A C 0.6406(5) -1.0571(5) -0.1279(4)
H5A H 0.6369 -1.1692 -0.1657
C4A C 0.7242(5) -0.8084(5) -0.0175(4)
H6A H 0.7872 -0.7049 0.0384
C5A C -0.7213(6) -0.0759(6) 0.5370(4)
H7A H -0.7202 -0.1897 0.5214
H8A H -0.7788 -0.0751 0.4631
C6A C -0.5456(5) 0.0303(6) 0.5565(4)
H9A H -0.5462 0.1443 0.5723
H10A H -0.4875 0.0289 0.6299
C7A C -0.9302(6) 0.1307(6) 0.7726(4)
H11A H -0.9788 0.2161 0.8139
C8A C -0.8455(5) -0.0769(5) 0.7334(4)
H12A H -0.8188 -0.1703 0.7371
C9A C -0.1314(5) -0.3970(5) -0.1579(4)
Cl1 Cl 0.2557(4) 0.2660(4) 0.4176(3)
Cl2 Cl 0.3272(5) 0.5581(5) 0.6432(4)
C10 C 0.1881(15) 0.3871(15) 0.5210(15)
H13 H 0.1123 0.3231 0.5614
H14 H 0.1209 0.4331 0.4806
loop_
_geom_bond_atom_site_label_1
_geom_bond_atom_site_label_2
_geom_bond_site_symmetry_1
_geom_bond_site_symmetry_2
Mn1 N3 1_555 1_555
S1 C9 1_555 1_555
N1 N2 1_555 1_555
N2 C3 1_555 1_555
N3 C3 1_555 1_555
N4 N5 1_555 1_555
N5 C7 1_555 1_555
N6 Mn1 1_555 1_555
N7 Mn1 1_555 1_555
C1 N1 1_555 1_555
H1 C1 1_555 1_555
H2 C1 1_555 1_555
C2 C1 1_555 1_555
H3 C2 1_555 1_555
H4 C2 1_555 1_555
C3 H5 1_555 1_555
C4 N1 1_555 1_555
H6 C4 1_555 1_555
C5 N4 1_555 1_555
H7 C5 1_555 1_555
H8 C5 1_555 1_555
C6 C5 1_555 1_555
H9 C6 1_555 1_555
H10 C6 1_555 1_555
C7 N6 1_555 1_555
H11 C7 1_555 1_555
C8 N4 1_555 1_555
H12 C8 1_555 1_555
C9 N7 1_555 1_555
Cl1 C10 1_555 1_555
Cl2 C10 1_555 1_555
C10 H13 1_555 1_555
H14 C10 1_555 1_555
Mn1_2 N3A 1_555 1_555
Mn1_3 N6A 1_555 1_555
S1A C9A 1_555 1_555
N1A N2A 1_555 1_555
N2A C3A 1_555 1_555
N3A C3A 1_555 1_555
N3A_2 Mn1 1_555 1_555
N4A N5A 1_555 1_555
N5A C7A 1_555 1_555
N6A C7A 1_555 1_555
N6A_2 Mn1 1_555 1_555
N7A Mn1 1_555 1_555
C1A N1A 1_555 1_555
H1A C1A 1_555 1_555
H2A C1A 1_555 1_555
C2A C2 1_555 1_555
H3A C2A 1_555 1_555
H4A C2A 1_555 1_555
C3A H5A 1_555 1_555
C4A N1A 1_555 1_555
H6A C4A 1_555 1_555
C5A N4A 1_555 1_555
H7A C5A 1_555 1_555
H8A C5A 1_555 1_555
C6A C6 1_555 1_555
H9A C6A 1_555 1_555
H10A C6A 1_555 1_555
C7A H11A 1_555 1_555
C8A N4A 1_555 1_555
H12A C8A 1_555 1_555
C9A N7A 1_555 1_555
N3 C4 1_555 1_555
N6 C8 1_555 1_555
N3A C4A 1_555 1_555
N6A C8A 1_555 1_555
C1A C2A 1_555 1_555
C5A C6A 1_555 1_555

#END
