
#######################################################################
#
#                 Cambridge Crystallographic Data Centre
#                                CCDC 
#
#######################################################################
#
# If this CIF has been generated from an entry in the Cambridge 
# Structural Database, then it will include bibliographic, chemical, 
# crystal, experimental, refinement or atomic coordinate data resulting 
# from the CCDC's data processing and validation procedures.
#
#######################################################################

data_NUCCAR
_symmetry_cell_setting           monoclinic
_symmetry_space_group_name_H-M   'C 2/m'
_symmetry_Int_Tables_number      12
_space_group_name_Hall           '-C 2y'
loop_
_symmetry_equiv_pos_site_id
_symmetry_equiv_pos_as_xyz
1 x,y,z
2 -x,y,-z
3 1/2+x,1/2+y,z
4 1/2-x,1/2+y,-z
5 -x,-y,-z
6 x,-y,z
7 1/2-x,1/2-y,-z
8 1/2+x,1/2-y,z
_cell_length_a                   32.685(7)
_cell_length_b                   29.520(6)
_cell_length_c                   9.7350(19)
_cell_angle_alpha                90
_cell_angle_beta                 103.71(3)
_cell_angle_gamma                90
_cell_volume                     9125.3
loop_
_atom_site_label
_atom_site_type_symbol
_atom_site_fract_x
_atom_site_fract_y
_atom_site_fract_z
Cu1 Cu 0.23027(4) 0.20022(4) -0.09435(13)
Cu2 Cu 0.47657(5) 0.0000 -0.6304(2)
Cu3 Cu 0.03260(5) 0.0000 0.61085(17)
S1 S 0.20818(8) 0.30800(8) -0.2139(3)
O1 O 0.4845(3) 0.0464(2) -0.3344(9)
O2 O 0.0003(2) 0.0464(2) 0.3179(8)
O3 O 0.4439(3) 0.0459(3) -0.5543(11)
O4 O 0.0563(2) 0.0456(2) 0.5032(8)
O5 O 0.2303(2) 0.2787(3) -0.0991(9)
O6 O 0.2249(2) 0.2976(2) -0.3362(8)
O7 O 0.2142(3) 0.3543(3) -0.1732(12)
O8 O 0.1641(2) 0.2944(3) -0.2356(10)
O9 O 0.1970(3) 0.1740(3) -0.2657(11)
H1 H 0.1660 0.1737 -0.2995
H2 H 0.2074 0.1581 -0.3396
O10 O 0.4418(4) 0.0000 -0.8448(16)
H3 H 0.459(5) 0.0000 -0.900(16)
H4 H 0.4155(12) 0.0000 -0.882(18)
O11 O 0.0865(4) 0.0000 0.7973(18)
H5 H 0.094(3) 0.0000 0.888(3)
H6 H 0.103(3) 0.0000 0.741(8)
N1 N 0.2895(2) 0.2308(2) -0.2582(8)
H7 H 0.2762 0.2570 -0.2718
N2 N 0.1511(2) 0.2296(2) -0.0344(9)
H8 H 0.1531 0.2550 -0.0796
N3 N 0.2792(2) 0.1969(2) -0.1822(8)
N4 N 0.1804(3) 0.1962(2) -0.0162(9)
C1 C 0.4246(4) 0.0910(4) -0.3863(13)
C2 C 0.0607(3) 0.0918(3) 0.3120(11)
C3 C 0.4253(4) 0.0968(4) -0.2412(14)
H9 H 0.4449 0.0809 -0.1698
C4 C 0.0392(3) 0.1118(3) 0.1847(12)
H10 H 0.0098 0.1064 0.1508
C5 C 0.3954(3) 0.1278(4) -0.2059(13)
H11 H 0.3967 0.1338 -0.1091
C6 C 0.3061(3) 0.1643(3) -0.1866(12)
C7 C 0.0603(3) 0.1396(4) 0.1059(13)
H12 H 0.0462 0.1519 0.0171
C8 C 0.1653(3) 0.1636(3) 0.0534(12)
C9 C 0.3655(4) 0.1484(3) -0.3054(13)
C10 C 0.3326(3) 0.1775(3) -0.2692(10)
C11 C 0.1030(3) 0.1484(3) 0.1644(12)
C12 C 0.1285(3) 0.1764(3) 0.0854(10)
C13 C 0.3666(4) 0.1409(4) -0.4476(12)
H13 H 0.3460 0.1556 -0.5188
C14 C 0.3219(3) 0.2205(3) -0.3100(10)
C15 C 0.1217(3) 0.1293(3) 0.2932(11)
H14 H 0.1504 0.1359 0.3350
C16 C 0.1187(3) 0.2199(3) 0.0232(12)
C17 C 0.3945(4) 0.1144(4) -0.4889(13)
H15 H 0.3940 0.1114 -0.5864
C18 C 0.1002(3) 0.1015(3) 0.3616(10)
H16 H 0.1146 0.0885 0.4491
C19 C 0.4530(4) 0.0580(4) -0.4291(14)
C20 C 0.0373(3) 0.0585(3) 0.3902(13)
C21 C 0.3012(4) 0.1179(3) -0.1235(13)
H17 H 0.2825 0.1204 -0.0587
H18 H 0.3289 0.1069 -0.0717
H19 H 0.2891 0.0966 -0.1996
C22 C 0.1903(4) 0.1206(3) 0.0924(15)
H20 H 0.2104 0.1174 0.0329
H21 H 0.1711 0.0946 0.0776
H22 H 0.2055 0.1219 0.1920
C23 C 0.3381(3) 0.2534(3) -0.4009(11)
H23 H 0.3205 0.2521 -0.4975
H24 H 0.3672 0.2456 -0.4017
H25 H 0.3372 0.2841 -0.3632
C24 C 0.0830(4) 0.2514(4) 0.0207(17)
H26 H 0.0895 0.2812 -0.0127
H27 H 0.0784 0.2542 0.1162
H28 H 0.0574 0.2395 -0.0432
Cu1A Cu -0.23027(4) 0.20022(4) 1.09435(13)
S1A S -0.20818(8) 0.30800(8) 1.2139(3)
O1A O -0.4845(3) 0.0464(2) 1.3344(9)
O2A O -0.0003(2) 0.0464(2) 0.6821(8)
O3A O -0.4439(3) 0.0459(3) 1.5543(11)
O4A O -0.0563(2) 0.0456(2) 0.4968(8)
O5A O -0.2303(2) 0.2787(3) 1.0991(9)
O6A O -0.2249(2) 0.2976(2) 1.3362(8)
O7A O -0.2142(3) 0.3543(3) 1.1732(12)
O8A O -0.1641(2) 0.2944(3) 1.2356(10)
O9A O -0.1970(3) 0.1740(3) 1.2657(11)
H1A H -0.1660 0.1737 1.2995
H2A H -0.2074 0.1581 1.3396
N1A N -0.2895(2) 0.2308(2) 1.2582(8)
H7A H -0.2762 0.2570 1.2718
N2A N -0.1511(2) 0.2296(2) 1.0344(9)
H8A H -0.1531 0.2550 1.0796
N3A N -0.2792(2) 0.1969(2) 1.1822(8)
N4A N -0.1804(3) 0.1962(2) 1.0162(9)
C1A C -0.4246(4) 0.0910(4) 1.3863(13)
C2A C -0.0607(3) 0.0918(3) 0.6880(11)
C3A C -0.4253(4) 0.0968(4) 1.2412(14)
H9A H -0.4449 0.0809 1.1698
C4A C -0.0392(3) 0.1118(3) 0.8153(12)
H10A H -0.0098 0.1064 0.8492
C5A C -0.3954(3) 0.1278(4) 1.2059(13)
H11A H -0.3967 0.1338 1.1091
C6A C -0.3061(3) 0.1643(3) 1.1866(12)
C7A C -0.0603(3) 0.1396(4) 0.8941(13)
H12A H -0.0462 0.1519 0.9829
C8A C -0.1653(3) 0.1636(3) 0.9466(12)
C9A C -0.3655(4) 0.1484(3) 1.3054(13)
C10A C -0.3326(3) 0.1775(3) 1.2692(10)
C11A C -0.1030(3) 0.1484(3) 0.8356(12)
C12A C -0.1285(3) 0.1764(3) 0.9146(10)
C13A C -0.3666(4) 0.1409(4) 1.4476(12)
H13A H -0.3460 0.1556 1.5188
C14A C -0.3219(3) 0.2205(3) 1.3100(10)
C15A C -0.1217(3) 0.1293(3) 0.7068(11)
H14A H -0.1504 0.1359 0.6650
C16A C -0.1187(3) 0.2199(3) 0.9768(12)
C17A C -0.3945(4) 0.1144(4) 1.4889(13)
H15A H -0.3940 0.1114 1.5864
C18A C -0.1002(3) 0.1015(3) 0.6384(10)
H16A H -0.1146 0.0885 0.5509
C19A C -0.4530(4) 0.0580(4) 1.4291(14)
C20A C -0.0373(3) 0.0585(3) 0.6098(13)
C21A C -0.3012(4) 0.1179(3) 1.1235(13)
H17A H -0.2825 0.1204 1.0587
H18A H -0.3289 0.1069 1.0717
H19A H -0.2891 0.0966 1.1996
C22A C -0.1903(4) 0.1206(3) 0.9076(15)
H20A H -0.2104 0.1174 0.9671
H21A H -0.1711 0.0946 0.9224
H22A H -0.2055 0.1219 0.8080
C23A C -0.3381(3) 0.2534(3) 1.4009(11)
H23A H -0.3205 0.2521 1.4975
H24A H -0.3672 0.2456 1.4017
H25A H -0.3372 0.2841 1.3632
C24A C -0.0830(4) 0.2514(4) 0.9793(17)
H26A H -0.0895 0.2812 1.0127
H27A H -0.0784 0.2542 0.8838
H28A H -0.0574 0.2395 1.0432
Cu1F Cu 0.26973(4) 0.29978(4) 0.09435(13)
Cu1G Cu -0.26973(4) 0.29978(4) 0.90565(13)
Cu2_2 Cu -0.52343(5) 0.0000 1.3696(2)
Cu2A Cu -0.47657(5) 0.0000 1.6304(2)
Cu2A_2 Cu 0.52343(5) 0.0000 -0.3696(2)
Cu3A Cu -0.03260(5) 0.0000 0.38915(17)
O1A_2 O 0.5155(3) 0.0464(2) -0.6656(9)
O1D O 0.5155(3) -0.0464(2) -0.6656(9)
O2D O -0.0003(2) -0.0464(2) 0.6821(8)
O3E O 0.4439(3) -0.0459(3) -0.5543(11)
O4E O 0.0563(2) -0.0456(2) 0.5032(8)
O5F O 0.2697(2) 0.2213(3) 0.0991(9)
O5G O -0.2697(2) 0.2213(3) 0.9009(9)
loop_
_geom_bond_atom_site_label_1
_geom_bond_atom_site_label_2
_geom_bond_site_symmetry_1
_geom_bond_site_symmetry_2
Cu1 O5 1_555 1_555
Cu2 O3 1_555 1_555
Cu3 O4 1_555 1_555
S1 O5 1_555 1_555
O1 C19 1_555 1_555
O2 C20 1_555 1_555
O3 C19 1_555 1_555
O4 C20 1_555 1_555
O5 Cu1F 1_555 1_555
O6 S1 1_555 1_555
O7 S1 1_555 1_555
O8 S1 1_555 1_555
O9 Cu1 1_555 1_555
H1 O9 1_555 1_555
H2 O9 1_555 1_555
O10 Cu2 1_555 1_555
H3 O10 1_555 1_555
H4 O10 1_555 1_555
O11 Cu3 1_555 1_555
H5 O11 1_555 1_555
H6 O11 1_555 1_555
N1 H7 1_555 1_555
N2 H8 1_555 1_555
N3 Cu1 1_555 1_555
N4 Cu1 1_555 1_555
C1 C3 1_555 1_555
C2 C4 1_555 1_555
C3 H9 1_555 1_555
C4 H10 1_555 1_555
C5 C3 1_555 1_555
H11 C5 1_555 1_555
C6 N3 1_555 1_555
C7 C4 1_555 1_555
H12 C7 1_555 1_555
C8 N4 1_555 1_555
C9 C5 1_555 1_555
C10 C6 1_555 1_555
C11 C7 1_555 1_555
C12 C8 1_555 1_555
C13 C9 1_555 1_555
H13 C13 1_555 1_555
C14 N1 1_555 1_555
C15 C11 1_555 1_555
H14 C15 1_555 1_555
C16 N2 1_555 1_555
C17 C1 1_555 1_555
H15 C17 1_555 1_555
C18 C2 1_555 1_555
H16 C18 1_555 1_555
C19 C1 1_555 1_555
C20 C2 1_555 1_555
C21 C6 1_555 1_555
H17 C21 1_555 1_555
H18 C21 1_555 1_555
H19 C21 1_555 1_555
C22 C8 1_555 1_555
H20 C22 1_555 1_555
H21 C22 1_555 1_555
H22 C22 1_555 1_555
C23 C14 1_555 1_555
H23 C23 1_555 1_555
H24 C23 1_555 1_555
H25 C23 1_555 1_555
C24 C16 1_555 1_555
H26 C24 1_555 1_555
H27 C24 1_555 1_555
H28 C24 1_555 1_555
Cu1A O5A 1_555 1_555
S1A O5A 1_555 1_555
O1A C19A 1_555 1_555
O2A Cu3 1_555 1_555
O3A C19A 1_555 1_555
O4A C20A 1_555 1_555
O5A Cu1G 1_555 1_555
O6A S1A 1_555 1_555
O7A S1A 1_555 1_555
O8A S1A 1_555 1_555
O9A Cu1A 1_555 1_555
H1A O9A 1_555 1_555
H2A O9A 1_555 1_555
N1A H7A 1_555 1_555
N2A H8A 1_555 1_555
N3A Cu1A 1_555 1_555
N4A Cu1A 1_555 1_555
C1A C3A 1_555 1_555
C2A C4A 1_555 1_555
C3A H9A 1_555 1_555
C4A H10A 1_555 1_555
C5A C3A 1_555 1_555
H11A C5A 1_555 1_555
C6A N3A 1_555 1_555
C7A C4A 1_555 1_555
H12A C7A 1_555 1_555
C8A N4A 1_555 1_555
C9A C5A 1_555 1_555
C10A C6A 1_555 1_555
C11A C7A 1_555 1_555
C12A C8A 1_555 1_555
C13A C9A 1_555 1_555
H13A C13A 1_555 1_555
C14A N1A 1_555 1_555
C15A C11A 1_555 1_555
H14A C15A 1_555 1_555
C16A N2A 1_555 1_555
C17A C1A 1_555 1_555
H15A C17A 1_555 1_555
C18A C2A 1_555 1_555
H16A C18A 1_555 1_555
C19A C1A 1_555 1_555
C20A O2A 1_555 1_555
C21A C6A 1_555 1_555
H17A C21A 1_555 1_555
H18A C21A 1_555 1_555
H19A C21A 1_555 1_555
C22A C8A 1_555 1_555
H20A C22A 1_555 1_555
H21A C22A 1_555 1_555
H22A C22A 1_555 1_555
C23A C14A 1_555 1_555
H23A C23A 1_555 1_555
H24A C23A 1_555 1_555
H25A C23A 1_555 1_555
C24A C16A 1_555 1_555
H26A C24A 1_555 1_555
H27A C24A 1_555 1_555
H28A C24A 1_555 1_555
Cu1F O5F 1_555 1_555
Cu1G O5G 1_555 1_555
Cu2_2 O1A 1_555 1_555
Cu2A O3A 1_555 1_555
Cu2A_2 Cu2 1_555 1_555
Cu3A Cu3 1_555 1_555
O1A_2 Cu2 1_555 1_555
O1D Cu2 1_555 1_555
O2D Cu3 1_555 1_555
O3E Cu2 1_555 1_555
O4E Cu3 1_555 1_555
O5F Cu1 1_555 1_555
O5G Cu1A 1_555 1_555
O1 Cu2A_2 1_555 1_555
O2 Cu3A 1_555 1_555
N1 N3 1_555 1_555
N2 N4 1_555 1_555
C9 C10 1_555 1_555
C10 C14 1_555 1_555
C11 C12 1_555 1_555
C12 C16 1_555 1_555
C13 C17 1_555 1_555
C15 C18 1_555 1_555
O4A Cu3A 1_555 1_555
N1A N3A 1_555 1_555
N2A N4A 1_555 1_555
C2A C20A 1_555 1_555
C9A C10A 1_555 1_555
C10A C14A 1_555 1_555
C11A C12A 1_555 1_555
C12A C16A 1_555 1_555
C13A C17A 1_555 1_555
C15A C18A 1_555 1_555
Cu2_2 Cu2A 1_555 1_555

#END
