
#######################################################################
#
#                 Cambridge Crystallographic Data Centre
#                                CCDC 
#
#######################################################################
#
# If this CIF has been generated from an entry in the Cambridge 
# Structural Database, then it will include bibliographic, chemical, 
# crystal, experimental, refinement or atomic coordinate data resulting 
# from the CCDC's data processing and validation procedures.
#
#######################################################################

data_NUCCOE
_symmetry_cell_setting           monoclinic
_symmetry_space_group_name_H-M   'C 2/c'
_symmetry_Int_Tables_number      15
_space_group_name_Hall           '-C 2yn'
loop_
_symmetry_equiv_pos_site_id
_symmetry_equiv_pos_as_xyz
1 x,y,z
2 -x,y,1/2-z
3 1/2+x,1/2+y,z
4 1/2-x,1/2+y,1/2-z
5 -x,-y,-z
6 x,-y,1/2+z
7 1/2-x,1/2-y,-z
8 1/2+x,1/2-y,1/2+z
_cell_length_a                   23.367(2)
_cell_length_b                   13.9901(13)
_cell_length_c                   8.8110(8)
_cell_angle_alpha                90
_cell_angle_beta                 105.350(2)
_cell_angle_gamma                90
_cell_volume                     2777.62
loop_
_atom_site_label
_atom_site_type_symbol
_atom_site_fract_x
_atom_site_fract_y
_atom_site_fract_z
Tb1 Tb -0.187637(11) -0.144164(17) 0.58747(3)
C1 C -0.1929(3) -0.3574(3) 0.3672(7)
O1 O -0.20772(18) -0.2846(3) 0.4315(5)
C2 C -0.0801(3) -0.1403(4) 0.5013(8)
O2 O -0.0831(2) -0.1746(4) 0.6298(5)
C3 C -0.1295(3) -0.3718(5) 0.3624(8)
H1 H -0.1092 -0.4088 0.4539
H2 H -0.1103 -0.3098 0.3704
O3 O -0.1269(2) -0.1108(3) 0.4062(5)
C4 C -0.1219(3) -0.4218(4) 0.2162(7)
H3 H -0.1382 -0.4858 0.2126
H4 H -0.0798 -0.4279 0.2246
C5 C -0.0214(4) -0.1337(5) 0.4614(12)
H5 H -0.0264 -0.1590 0.3563
H6 H 0.0068 -0.1743 0.5336
O4 O -0.1494(2) -0.1344(3) -0.1180(5)
O5 O -0.1715(2) -0.2736(3) -0.2276(5)
C6 C -0.1521(3) -0.2232(4) -0.1062(7)
C7 C -0.1307(4) -0.2700(5) 0.0540(8)
H7 H -0.1440 -0.2319 0.1301
H8 H -0.0877 -0.2696 0.0848
C8 C 0.0033(5) -0.0398(7) 0.467(2)
H9 H -0.0038 -0.0228 0.3572
H10 H 0.0457 -0.0512 0.5038
O6 O -0.2317(2) -0.4197(3) 0.3103(6)
O7 O -0.1603(2) 0.0174(3) 0.6248(5)
H11 H -0.1842 0.0578 0.6457
H12 H -0.1264 0.0354 0.6173
O8 O -0.25459(19) -0.0840(3) 0.3578(5)
H13 H -0.2913 -0.0793 0.3533
H14 H -0.2421 -0.0672 0.2797
C9 C -0.1516(3) -0.3707(4) 0.0612(7)
H15 H -0.1438 -0.4066 -0.0253
H16 H -0.1942 -0.3702 0.0473
Tb1F Tb -0.312363(11) -0.355836(17) 0.41253(3)
Tb1F_2 Tb -0.312363(11) -0.355836(17) 1.41253(3)
Tb1D Tb 0.187637(11) 0.144164(17) 0.41253(3)
Tb1_2 Tb -0.187637(11) -0.144164(17) -0.41253(3)
Tb1_3 Tb -0.187637(11) -0.144164(17) 1.58747(3)
C1_2 C -0.1929(3) -0.3574(3) 1.3672(7)
O1F O -0.29228(18) -0.2154(3) 0.5685(5)
O1_2 O -0.20772(18) -0.2846(3) 1.4315(5)
O1F_2 O -0.29228(18) -0.2154(3) -0.4315(5)
O1_3 O -0.20772(18) -0.2846(3) -0.5685(5)
C2D C 0.0801(3) 0.1403(4) 0.4987(8)
O2D O 0.0831(2) 0.1746(4) 0.3702(5)
O2_2 O -0.0831(2) -0.1746(4) -0.3702(5)
C3_2 C -0.1295(3) -0.3718(5) 1.3624(8)
H1_2 H -0.1092 -0.4088 1.4539
H2_2 H -0.1103 -0.3098 1.3704
O3D O 0.1269(2) 0.1108(3) 0.5938(5)
O3_2 O -0.1269(2) -0.1108(3) -0.5938(5)
C4_2 C -0.1219(3) -0.4218(4) 1.2162(7)
H3_2 H -0.1382 -0.4858 1.2126
H4_2 H -0.0798 -0.4279 1.2246
C5D C 0.0214(4) 0.1337(5) 0.5386(12)
H5D H 0.0264 0.1590 0.6437
H6D H -0.0068 0.1743 0.4664
O4_2 O -0.1494(2) -0.1344(3) 0.8820(5)
O5_2 O -0.1715(2) -0.2736(3) 0.7724(5)
C6_2 C -0.1521(3) -0.2232(4) 0.8938(7)
C7_2 C -0.1307(4) -0.2700(5) 1.0540(8)
H7_2 H -0.1440 -0.2319 1.1301
H8_2 H -0.0877 -0.2696 1.0848
C8D C -0.0033(5) 0.0398(7) 0.533(2)
H9D H 0.0038 0.0228 0.6428
H10D H -0.0457 0.0512 0.4962
O6F O -0.2683(2) -0.0803(3) 0.6897(6)
O6_2 O -0.2317(2) -0.4197(3) 1.3103(6)
O6F_2 O -0.2683(2) -0.0803(3) -0.3103(6)
O7_2 O -0.1603(2) 0.0174(3) -0.3752(5)
H11_2 H -0.1842 0.0578 -0.3543
H12_2 H -0.1264 0.0354 -0.3827
O8_2 O -0.25459(19) -0.0840(3) -0.6422(5)
H13_2 H -0.2913 -0.0793 -0.6467
H14_2 H -0.2421 -0.0672 -0.7203
C9_2 C -0.1516(3) -0.3707(4) 1.0612(7)
H15_2 H -0.1438 -0.4066 0.9747
H16_2 H -0.1942 -0.3702 1.0473
O9 O 1.0000 0.3279(13) 0.2500
H17 H 1.0163 0.3581 0.1888
H17A H 0.9837 0.3581 0.3112
H18? H 0.9649 0.3421 0.2529
loop_
_geom_bond_atom_site_label_1
_geom_bond_atom_site_label_2
_geom_bond_site_symmetry_1
_geom_bond_site_symmetry_2
Tb1 O1 1_555 1_555
C1 O1 1_555 1_555
O1 Tb1F 1_555 1_555
C2 O2 1_555 1_555
O2 Tb1 1_555 1_555
C3 C1 1_555 1_555
H1 C3 1_555 1_555
H2 C3 1_555 1_555
O3 Tb1 1_555 1_555
C4 C3 1_555 1_555
H3 C4 1_555 1_555
H4 C4 1_555 1_555
C5 C2 1_555 1_555
H5 C5 1_555 1_555
H6 C5 1_555 1_555
O4 C6 1_555 1_555
O5 C6 1_555 1_555
C6 C7 1_555 1_555
C7 H7 1_555 1_555
H8 C7 1_555 1_555
C8 C5 1_555 1_555
H9 C8 1_555 1_555
H10 C8 1_555 1_555
O6 C1 1_555 1_555
O7 Tb1 1_555 1_555
H11 O7 1_555 1_555
H12 O7 1_555 1_555
O8 Tb1 1_555 1_555
H13 O8 1_555 1_555
H14 O8 1_555 1_555
C9 C4 1_555 1_555
H15 C9 1_555 1_555
H16 C9 1_555 1_555
O9 H17 1_555 1_555
Tb1F O6 1_555 1_555
Tb1F_2 O1_2 1_555 1_555
Tb1D O2D 1_555 1_555
Tb1_2 O4 1_555 1_555
Tb1_3 O1_2 1_555 1_555
C1_2 O1_2 1_555 1_555
O1F Tb1 1_555 1_555
O1F_2 Tb1_2 1_555 1_555
O1_3 Tb1_2 1_555 1_555
C2D O2D 1_555 1_555
O2_2 Tb1_2 1_555 1_555
C3_2 C1_2 1_555 1_555
H1_2 C3_2 1_555 1_555
H2_2 C3_2 1_555 1_555
O3D Tb1D 1_555 1_555
O3_2 Tb1_2 1_555 1_555
C4_2 C3_2 1_555 1_555
H3_2 C4_2 1_555 1_555
H4_2 C4_2 1_555 1_555
C5D C2D 1_555 1_555
H5D C5D 1_555 1_555
H6D C5D 1_555 1_555
O4_2 Tb1 1_555 1_555
O5_2 Tb1 1_555 1_555
C6_2 O4_2 1_555 1_555
C7_2 C6_2 1_555 1_555
H7_2 C7_2 1_555 1_555
H8_2 C7_2 1_555 1_555
C8D C8 1_555 1_555
H9D C8D 1_555 1_555
H10D C8D 1_555 1_555
O6F Tb1 1_555 1_555
O6_2 Tb1F_2 1_555 1_555
O6F_2 Tb1_2 1_555 1_555
O7_2 Tb1_2 1_555 1_555
H11_2 O7_2 1_555 1_555
H12_2 O7_2 1_555 1_555
O8_2 Tb1_2 1_555 1_555
H13_2 O8_2 1_555 1_555
H14_2 O8_2 1_555 1_555
C9_2 C4_2 1_555 1_555
H15_2 C9_2 1_555 1_555
H16_2 C9_2 1_555 1_555
H17A O9 1_555 1_555
C2 O3 1_555 1_555
O5 Tb1_2 1_555 1_555
C7 C9 1_555 1_555
Tb1F O1F 1_555 1_555
C1_2 O6_2 1_555 1_555
C2D O3D 1_555 1_555
C5D C8D 1_555 1_555
O5_2 C6_2 1_555 1_555
C7_2 C9_2 1_555 1_555

#END
