
#######################################################################
#
#                 Cambridge Crystallographic Data Centre
#                                CCDC 
#
#######################################################################
#
# If this CIF has been generated from an entry in the Cambridge 
# Structural Database, then it will include bibliographic, chemical, 
# crystal, experimental, refinement or atomic coordinate data resulting 
# from the CCDC's data processing and validation procedures.
#
#######################################################################

data_NUCDIZ
_symmetry_cell_setting           monoclinic
_symmetry_space_group_name_H-M   'P 21/n'
_symmetry_Int_Tables_number      14
_space_group_name_Hall           '-P 2yn'
loop_
_symmetry_equiv_pos_site_id
_symmetry_equiv_pos_as_xyz
1 x,y,z
2 1/2-x,1/2+y,1/2-z
3 -x,-y,-z
4 1/2+x,1/2-y,1/2+z
_cell_length_a                   9.6780(12)
_cell_length_b                   11.9246(16)
_cell_length_c                   22.738(3)
_cell_angle_alpha                90
_cell_angle_beta                 95.508(4)
_cell_angle_gamma                90
_cell_volume                     2611.99
loop_
_atom_site_label
_atom_site_type_symbol
_atom_site_fract_x
_atom_site_fract_y
_atom_site_fract_z
Cu1 Cu 0.49495(8) 0.23040(6) 0.17546(4)
Zn1 Zn 1.26170(7) 0.11526(6) 0.05610(4)
O1 O 0.7001(4) 0.2541(3) 0.18791(19)
O2 O 0.6046(4) 0.0907(3) 0.1946(2)
O3 O 1.2434(4) 0.2592(4) 0.2518(2)
O4 O 1.3175(4) 0.1609(3) 0.1772(2)
O5 O 1.0040(4) -0.1818(3) 0.2086(2)
H1 H 1.0857 -0.2010 0.2134
O6 O 0.9702(4) 0.0725(3) 0.0581(2)
O7 O 1.1138(4) 0.2163(3) 0.06778(19)
O8 O 0.4516(4) 0.1756(3) 0.06758(19)
O9 O 0.3927(4) 0.3139(4) 0.0047(2)
O10 O 0.8290(4) 0.5559(3) 0.0274(2)
H2 H 0.7649 0.5876 0.0079
O11 O 1.2311(5) 0.0828(4) -0.0323(2)
H3 H 1.168(5) 0.039(4) -0.0418(11)
H4 H 1.222(6) 0.140(2) -0.0530(10)
N1 N 0.4437(5) 0.3859(4) 0.1542(2)
N2 N 0.2944(5) 0.9558(4) 0.0816(2)
C1 C 0.9961(6) -0.0671(5) 0.2070(3)
C2 C 0.8670(6) -0.0190(5) 0.2022(3)
H7 H 0.7880 -0.0638 0.1994
C3 C 0.8544(6) 0.0963(5) 0.2015(3)
C4 C 0.9706(6) 0.1633(5) 0.2063(3)
H8 H 0.9620 0.2409 0.2072
C5 C 1.1008(6) 0.1138(5) 0.2099(3)
C6 C 1.1111(6) -0.0019(5) 0.2089(3)
H9 H 1.1981 -0.0353 0.2095
C7 C 0.7134(7) 0.1506(6) 0.1944(3)
C8 C 1.2299(6) 0.1847(5) 0.2136(3)
C9 C 0.5415(7) 0.4651(5) 0.1572(3)
H10 H 0.6326 0.4440 0.1688
C10 C 0.3163(7) 0.4208(5) 0.1364(3)
H11 H 0.2455 0.3677 0.1332
C11 C 0.5159(6) 0.5752(5) 0.1442(3)
H12 H 0.5887 0.6264 0.1478
C12 C 0.2820(7) 0.5302(5) 0.1223(3)
H13 H 0.1904 0.5492 0.1105
C13 C 0.3837(6) 0.6115(5) 0.1259(3)
C14 C 0.3519(6) 0.7314(5) 0.1114(3)
C15 C 0.4568(7) 0.8095(5) 0.1086(3)
H14 H 0.5489 0.7878 0.1167
C16 C 0.2185(6) 0.7690(5) 0.0989(3)
H15 H 0.1446 0.7195 0.1004
C17 C 0.4257(7) 0.9183(5) 0.0941(3)
H16 H 0.4983 0.9690 0.0927
C18 C 0.1933(6) 0.8794(5) 0.0842(3)
H17 H 0.1017 0.9023 0.0757
C19 C 0.7956(6) 0.4454(5) 0.0346(3)
C20 C 0.9029(6) 0.3689(5) 0.0456(3)
H18 H 0.9946 0.3929 0.0470
C21 C 0.8740(6) 0.2582(5) 0.0543(3)
C22 C 0.7363(6) 0.2220(5) 0.0517(3)
H19 H 0.7174 0.1468 0.0582
C23 C 0.6293(6) 0.2951(5) 0.0397(3)
C24 C 0.6606(6) 0.4077(5) 0.0305(3)
H20 H 0.5886 0.4583 0.0213
C25 C 0.9915(7) 0.1758(5) 0.0608(3)
C26 C 0.4799(6) 0.2605(6) 0.0362(3)
Cu1_2 Cu 1.49495(8) 0.23040(6) 0.17546(4)
Cu1A Cu 1.00505(8) -0.26960(6) 0.32454(4)
Zn1_2 Zn 0.26170(7) 0.11526(6) 0.05610(4)
Zn1_3 Zn 0.26170(7) 1.11526(6) 0.05610(4)
O4_2 O 0.3175(4) 0.1609(3) 0.1772(2)
O5A O 0.4960(4) 0.3182(3) 0.2914(2)
H1A H 0.4143 0.2990 0.2866
O8_2 O 1.4516(4) 0.1756(3) 0.06758(19)
N2_2 N 1.2944(5) -0.0442(4) 0.0816(2)
O12 O 0.6757(7) 0.2412(5) 0.3884(3)
H5 H 0.650(9) 0.183(5) 0.403(4)
H6 H 0.620(8) 0.259(7) 0.361(3)
O13 O -0.0476(17) 0.5117(13) 0.1838(7)
loop_
_geom_bond_atom_site_label_1
_geom_bond_atom_site_label_2
_geom_bond_site_symmetry_1
_geom_bond_site_symmetry_2
Cu1 O1 1_555 1_555
Zn1 O4 1_555 1_555
O1 C7 1_555 1_555
O2 Cu1 1_555 1_555
O3 C8 1_555 1_555
O4 C8 1_555 1_555
O5 H1 1_555 1_555
O6 C25 1_555 1_555
O7 Zn1 1_555 1_555
O8 Cu1 1_555 1_555
O9 C26 1_555 1_555
O10 H2 1_555 1_555
O11 Zn1 1_555 1_555
H3 O11 1_555 1_555
H4 O11 1_555 1_555
O12 H5 1_555 1_555
H6 O12 1_555 1_555
N1 Cu1 1_555 1_555
N2 C17 1_555 1_555
C1 O5 1_555 1_555
C2 C1 1_555 1_555
H7 C2 1_555 1_555
C3 C2 1_555 1_555
C4 C3 1_555 1_555
H8 C4 1_555 1_555
C5 C4 1_555 1_555
C6 C1 1_555 1_555
H9 C6 1_555 1_555
C7 O2 1_555 1_555
C8 C5 1_555 1_555
C9 N1 1_555 1_555
H10 C9 1_555 1_555
C10 N1 1_555 1_555
H11 C10 1_555 1_555
C11 C9 1_555 1_555
H12 C11 1_555 1_555
C12 C10 1_555 1_555
H13 C12 1_555 1_555
C13 C11 1_555 1_555
C14 C13 1_555 1_555
C15 C14 1_555 1_555
H14 C15 1_555 1_555
C16 C14 1_555 1_555
H15 C16 1_555 1_555
C17 C15 1_555 1_555
H16 C17 1_555 1_555
C18 N2 1_555 1_555
H17 C18 1_555 1_555
C19 O10 1_555 1_555
C20 C19 1_555 1_555
H18 C20 1_555 1_555
C21 C20 1_555 1_555
C22 C21 1_555 1_555
H19 C22 1_555 1_555
C23 C22 1_555 1_555
C24 C19 1_555 1_555
H20 C24 1_555 1_555
C25 O7 1_555 1_555
C26 O8 1_555 1_555
Cu1_2 O4 1_555 1_555
Cu1A O5 1_555 1_555
Zn1_2 O8 1_555 1_555
Zn1_3 N2 1_555 1_555
O4_2 Cu1 1_555 1_555
O5A Cu1 1_555 1_555
H1A O5A 1_555 1_555
O8_2 Zn1 1_555 1_555
N2_2 Zn1 1_555 1_555
C3 C7 1_555 1_555
C5 C6 1_555 1_555
C12 C13 1_555 1_555
C16 C18 1_555 1_555
C21 C25 1_555 1_555
C23 C24 1_555 1_555
C23 C26 1_555 1_555
Cu1_2 O8_2 1_555 1_555
Zn1_2 O4_2 1_555 1_555

#END
