
#######################################################################
#
#                 Cambridge Crystallographic Data Centre
#                                CCDC 
#
#######################################################################
#
# If this CIF has been generated from an entry in the Cambridge 
# Structural Database, then it will include bibliographic, chemical, 
# crystal, experimental, refinement or atomic coordinate data resulting 
# from the CCDC's data processing and validation procedures.
#
#######################################################################

data_NUCDUL
_symmetry_cell_setting           monoclinic
_symmetry_space_group_name_H-M   'P 21/c'
_symmetry_Int_Tables_number      14
_space_group_name_Hall           '-P 2ybc'
loop_
_symmetry_equiv_pos_site_id
_symmetry_equiv_pos_as_xyz
1 x,y,z
2 -x,1/2+y,1/2-z
3 -x,-y,-z
4 x,1/2-y,1/2+z
_cell_length_a                   14.7793(10)
_cell_length_b                   12.1709(8)
_cell_length_c                   17.6764(12)
_cell_angle_alpha                90
_cell_angle_beta                 97.351(2)
_cell_angle_gamma                90
_cell_volume                     3153.45
loop_
_atom_site_label
_atom_site_type_symbol
_atom_site_fract_x
_atom_site_fract_y
_atom_site_fract_z
Cu1 Cu 0.97358(4) -0.05518(5) 0.65303(3)
Cu2 Cu 0.45883(4) -0.08742(5) 0.16003(3)
Zn1 Zn 0.74278(3) -0.01267(4) 0.75623(2)
O1 O 0.71194(18) -0.1974(3) 0.63611(16)
O2 O 0.81739(18) -0.1376(2) 0.72744(16)
O3 O 1.0878(2) -0.4026(3) 0.78735(16)
O4 O 1.15924(18) -0.4279(2) 0.68446(16)
O5 O 0.9160(2) -0.3861(3) 0.46460(16)
H1 H 0.8629 -0.3820 0.4445
O6 O 0.2595(2) 0.1370(3) 0.09520(18)
O7 O 0.35663(18) 0.0769(2) 0.19168(15)
O8 O 0.62568(19) 0.3268(2) 0.25919(15)
O9 O 0.67015(17) 0.4357(2) 0.17022(15)
O10 O 0.4531(2) 0.3625(3) -0.06358(15)
H2 H 0.4065 0.3391 -0.0884
N1 N 0.9004(2) -0.0358(3) 0.55635(18)
N2 N 0.5630(2) -0.0497(3) 0.23155(18)
N3 N 1.3816(2) -0.1242(3) 1.06784(19)
N4 N 1.0602(2) -0.1024(3) 0.73622(19)
C1 C 0.7893(3) -0.1990(3) 0.6715(2)
C2 C 0.8601(2) -0.2763(3) 0.6461(2)
C3 C 0.9375(3) -0.3070(3) 0.6942(2)
H3 H 0.9421 -0.2913 0.7460
C4 C 1.0080(2) -0.3609(3) 0.6650(2)
C5 C 1.0918(3) -0.3983(3) 0.7169(2)
C6 C 1.0008(3) -0.3846(3) 0.5871(2)
H4 H 1.0492 -0.4171 0.5666
C7 C 0.9205(3) -0.3591(3) 0.5407(2)
C8 C 0.8506(3) -0.3062(3) 0.5696(2)
H5 H 0.7969 -0.2903 0.5381
C9 C 0.6193(2) 0.3613(3) 0.1926(2)
C10 C 0.5444(3) 0.3163(3) 0.1344(2)
C11 C 0.4833(3) 0.2393(3) 0.1568(2)
H6 H 0.4919 0.2106 0.2060
C12 C 0.4094(2) 0.2055(3) 0.1055(2)
C13 C 0.3358(3) 0.1352(3) 0.1318(2)
C14 C 0.3990(3) 0.2458(3) 0.0313(2)
H7 H 0.3502 0.2223 -0.0034
C15 C 0.4607(3) 0.3207(3) 0.0087(2)
C16 C 0.5327(3) 0.3576(3) 0.0608(2)
H8 H 0.5729 0.4099 0.0463
C17 C 0.8223(3) 0.0213(4) 0.5533(2)
H9 H 0.8115 0.0618 0.5959
C18 C 0.7577(3) 0.0224(4) 0.4903(2)
H10 H 0.7043 0.0623 0.4914
C19 C 0.7708(3) -0.0354(3) 0.4246(2)
C20 C 0.8524(3) -0.0928(4) 0.4280(2)
H11 H 0.8653 -0.1328 0.3859
C21 C 0.9142(3) -0.0910(4) 0.4931(2)
H12 H 0.9683 -0.1300 0.4933
C22 C 0.5562(3) 0.0175(3) 0.2902(2)
H13 H 0.5042 0.0608 0.2893
C23 C 0.6227(3) 0.0258(4) 0.3521(2)
H14 H 0.6152 0.0749 0.3910
C24 C 0.7005(3) -0.0382(3) 0.3569(2)
C25 C 0.7081(3) -0.1074(4) 0.2953(2)
H15 H 0.7590 -0.1523 0.2952
C26 C 0.6394(3) -0.1091(4) 0.2341(2)
H16 H 0.6468 -0.1538 0.1927
C27 C 1.2972(3) -0.1608(4) 1.0699(2)
H17 H 1.2803 -0.1818 1.1167
C28 C 1.2332(3) -0.1692(4) 1.0056(2)
H18 H 1.1751 -0.1962 1.0097
C29 C 1.2560(3) -0.1371(3) 0.9351(2)
C30 C 1.3450(3) -0.1025(4) 0.9329(2)
H19 H 1.3641 -0.0822 0.8868
C31 C 1.4047(3) -0.0983(4) 0.9989(3)
H20 H 1.4644 -0.0763 0.9958
C32 C 1.1493(3) -0.1213(4) 0.7304(2)
H21 H 1.1675 -0.1237 0.6820
C33 C 1.2141(3) -0.1370(4) 0.7923(2)
H22 H 1.2747 -0.1490 0.7855
C34 C 1.1884(3) -0.1350(3) 0.8655(2)
C35 C 1.0960(3) -0.1235(3) 0.8708(2)
H23 H 1.0752 -0.1259 0.9182
C36 C 1.0354(3) -0.1085(3) 0.8059(2)
H24 H 0.9737 -0.1022 0.8109
Cu1A Cu 1.02642(4) -0.55518(5) 0.84697(3)
Cu2A Cu 0.54117(4) 0.41258(5) 0.33997(3)
Cu2_2 Cu 1.45883(4) -0.08742(5) 1.16003(3)
Zn1A Zn 1.25722(3) -0.51267(4) 0.74377(2)
Zn1B Zn 0.25722(3) 0.01267(4) 0.24377(2)
Zn1C Zn 0.74278(3) 0.51267(4) 0.25623(2)
O3A O 0.9122(2) 0.0974(3) 0.71265(16)
O4A O 0.84076(18) 0.0721(2) 0.81554(16)
O7B O 0.64337(18) -0.0769(2) 0.80832(15)
O8A O 0.37432(19) -0.1732(2) 0.24081(15)
O9C O 0.67015(17) 0.0643(2) 0.67022(15)
N3_2 N 0.3816(2) -0.1242(3) 0.06784(19)
loop_
_geom_bond_atom_site_label_1
_geom_bond_atom_site_label_2
_geom_bond_site_symmetry_1
_geom_bond_site_symmetry_2
Cu1 O2 1_555 1_555
Cu2 O7 1_555 1_555
Zn1 O2 1_555 1_555
O1 C1 1_555 1_555
O2 C1 1_555 1_555
O3 C5 1_555 1_555
O4 C5 1_555 1_555
O5 H1 1_555 1_555
O6 C13 1_555 1_555
O7 C13 1_555 1_555
O8 C9 1_555 1_555
O9 C9 1_555 1_555
O10 H2 1_555 1_555
N1 Cu1 1_555 1_555
N2 Cu2 1_555 1_555
N3 C27 1_555 1_555
N4 Cu1 1_555 1_555
C1 C2 1_555 1_555
C2 C3 1_555 1_555
C3 H3 1_555 1_555
C4 C3 1_555 1_555
C5 C4 1_555 1_555
C6 C4 1_555 1_555
H4 C6 1_555 1_555
C7 O5 1_555 1_555
C8 C2 1_555 1_555
H5 C8 1_555 1_555
C9 C10 1_555 1_555
C10 C11 1_555 1_555
C11 H6 1_555 1_555
C12 C11 1_555 1_555
C13 C12 1_555 1_555
C14 C12 1_555 1_555
H7 C14 1_555 1_555
C15 O10 1_555 1_555
C16 C10 1_555 1_555
H8 C16 1_555 1_555
C17 N1 1_555 1_555
H9 C17 1_555 1_555
C18 C17 1_555 1_555
H10 C18 1_555 1_555
C19 C18 1_555 1_555
C20 C19 1_555 1_555
H11 C20 1_555 1_555
C21 N1 1_555 1_555
H12 C21 1_555 1_555
C22 N2 1_555 1_555
H13 C22 1_555 1_555
C23 C22 1_555 1_555
H14 C23 1_555 1_555
C24 C19 1_555 1_555
C25 C24 1_555 1_555
H15 C25 1_555 1_555
C26 N2 1_555 1_555
H16 C26 1_555 1_555
C27 H17 1_555 1_555
C28 C27 1_555 1_555
H18 C28 1_555 1_555
C29 C28 1_555 1_555
C30 C29 1_555 1_555
H19 C30 1_555 1_555
C31 N3 1_555 1_555
H20 C31 1_555 1_555
C32 N4 1_555 1_555
H21 C32 1_555 1_555
C33 C32 1_555 1_555
H22 C33 1_555 1_555
C34 C29 1_555 1_555
C35 C34 1_555 1_555
H23 C35 1_555 1_555
C36 N4 1_555 1_555
H24 C36 1_555 1_555
Cu1A O3 1_555 1_555
Cu2A O8 1_555 1_555
Cu2_2 N3 1_555 1_555
Zn1A O4 1_555 1_555
Zn1B O7 1_555 1_555
Zn1C O9 1_555 1_555
O3A Cu1 1_555 1_555
O4A Zn1 1_555 1_555
O7B Zn1 1_555 1_555
O8A Cu2 1_555 1_555
O9C Zn1 1_555 1_555
N3_2 Cu2 1_555 1_555
C6 C7 1_555 1_555
C7 C8 1_555 1_555
C14 C15 1_555 1_555
C15 C16 1_555 1_555
C20 C21 1_555 1_555
C23 C24 1_555 1_555
C25 C26 1_555 1_555
C30 C31 1_555 1_555
C33 C34 1_555 1_555
C35 C36 1_555 1_555

#END
