
#######################################################################
#
#                 Cambridge Crystallographic Data Centre
#                                CCDC 
#
#######################################################################
#
# If this CIF has been generated from an entry in the Cambridge 
# Structural Database, then it will include bibliographic, chemical, 
# crystal, experimental, refinement or atomic coordinate data resulting 
# from the CCDC's data processing and validation procedures.
#
#######################################################################

data_NUCDAR
_symmetry_cell_setting           triclinic
_symmetry_space_group_name_H-M   'P -1'
_symmetry_Int_Tables_number      2
_space_group_name_Hall           '-P 1'
loop_
_symmetry_equiv_pos_site_id
_symmetry_equiv_pos_as_xyz
1 x,y,z
2 -x,-y,-z
_cell_length_a                   8.6873(10)
_cell_length_b                   8.9324(11)
_cell_length_c                   10.5653(15)
_cell_angle_alpha                82.685(8)
_cell_angle_beta                 84.302(9)
_cell_angle_gamma                70.617(6)
_cell_volume                     765.662
loop_
_atom_site_label
_atom_site_type_symbol
_atom_site_fract_x
_atom_site_fract_y
_atom_site_fract_z
Mn1 Mn 0.0000 0.5000 0.0000
S1 S 0.55201(8) 0.18429(10) 0.12975(6)
N1 N 0.1907(2) 0.8265(2) 0.16464(17)
N2 N 0.0328(2) 0.9220(2) 0.16701(19)
N3 N 0.0578(2) 0.6884(2) 0.09464(17)
N4 N 0.2313(2) 0.6982(2) 0.66069(17)
N5 N 0.3182(3) 0.5418(2) 0.6500(2)
N6 N 0.1346(2) 0.5668(2) 0.81823(17)
N7 N 0.2328(2) 0.3204(2) 0.05316(19)
C1 C 0.3198(3) 0.8815(3) 0.2015(2)
H1 H 0.3249 0.9758 0.1430
H2 H 0.4265 0.7963 0.1925
C2 C 0.2903(3) 0.9252(3) 0.3387(2)
H3 H 0.3800 0.9615 0.3594
H4 H 0.1868 1.0149 0.3463
C3 C 0.2810(3) 0.7855(3) 0.4343(2)
H5 H 0.1868 0.7538 0.4170
H6 H 0.3815 0.6936 0.4228
C4 C 0.2624(3) 0.8257(3) 0.5714(2)
H7 H 0.3635 0.8426 0.5928
H8 H 0.1708 0.9262 0.5804
C5 C -0.0418(3) 0.8343(3) 0.1241(2)
H9 H -0.1563 0.8700 0.1144
C6 C 0.2039(3) 0.6887(3) 0.1217(2)
H10 H 0.3031 0.6032 0.1119
C7 C 0.2543(3) 0.4694(3) 0.7460(2)
H11 H 0.2894 0.3566 0.7636
C8 C 0.1248(3) 0.7103(3) 0.7607(2)
H12 H 0.0518 0.8079 0.7875
C9 C 0.3661(3) 0.2637(3) 0.0836(2)
Mn1_2 Mn 0.0000 0.5000 1.0000
Mn1_3 Mn 0.0000 0.5000 -1.0000
S1A S -0.55201(8) 0.81571(10) -0.12975(6)
N1A N -0.1907(2) 0.1735(2) -0.16464(17)
N2A N -0.0328(2) 0.0780(2) -0.16701(19)
N3A N -0.0578(2) 0.3116(2) -0.09464(17)
N4A N -0.2313(2) 0.3018(2) -0.66069(17)
N5A N -0.3182(3) 0.4582(2) -0.6500(2)
N6A N -0.1346(2) 0.4332(2) -0.81823(17)
N6_2 N 0.1346(2) 0.5668(2) -0.18177(17)
N6A_2 N -0.1346(2) 0.4332(2) 0.18177(17)
N7A N -0.2328(2) 0.6796(2) -0.05316(19)
C1A C -0.3198(3) 0.1185(3) -0.2015(2)
H1A H -0.3249 0.0242 -0.1430
H2A H -0.4265 0.2037 -0.1925
C2A C -0.2903(3) 0.0748(3) -0.3387(2)
H3A H -0.3800 0.0385 -0.3594
H4A H -0.1868 -0.0149 -0.3463
C3A C -0.2810(3) 0.2145(3) -0.4343(2)
H5A H -0.1868 0.2462 -0.4170
H6A H -0.3815 0.3064 -0.4228
C4A C -0.2624(3) 0.1743(3) -0.5714(2)
H7A H -0.3635 0.1574 -0.5928
H8A H -0.1708 0.0738 -0.5804
C5A C 0.0418(3) 0.1657(3) -0.1241(2)
H9A H 0.1563 0.1300 -0.1144
C6A C -0.2039(3) 0.3113(3) -0.1217(2)
H10A H -0.3031 0.3968 -0.1119
C7A C -0.2543(3) 0.5306(3) -0.7460(2)
H11A H -0.2894 0.6434 -0.7636
C8A C -0.1248(3) 0.2897(3) -0.7607(2)
H12A H -0.0518 0.1921 -0.7875
C9A C -0.3661(3) 0.7363(3) -0.0836(2)
O1 O 0.0794(3) 0.2804(3) 0.5267(3)
O2 O 0.3349(3) 0.1845(2) 0.5505(2)
N8 N 0.2183(3) 0.2758(3) 0.4969(2)
C10 C 0.2468(4) 0.3860(4) 0.3892(3)
H13 H 0.1421 0.4641 0.3648
H14 H 0.3000 0.3260 0.3166
H15 H 0.3174 0.4415 0.4143
loop_
_geom_bond_atom_site_label_1
_geom_bond_atom_site_label_2
_geom_bond_site_symmetry_1
_geom_bond_site_symmetry_2
Mn1 N3 1_555 1_555
S1 C9 1_555 1_555
O1 N8 1_555 1_555
O2 N8 1_555 1_555
N1 N2 1_555 1_555
N2 C5 1_555 1_555
N3 C5 1_555 1_555
N4 N5 1_555 1_555
N5 C7 1_555 1_555
N6 C7 1_555 1_555
N7 Mn1 1_555 1_555
N8 C10 1_555 1_555
C1 N1 1_555 1_555
H1 C1 1_555 1_555
H2 C1 1_555 1_555
C2 C1 1_555 1_555
H3 C2 1_555 1_555
H4 C2 1_555 1_555
C3 C2 1_555 1_555
H5 C3 1_555 1_555
H6 C3 1_555 1_555
C4 N4 1_555 1_555
H7 C4 1_555 1_555
H8 C4 1_555 1_555
C5 H9 1_555 1_555
C6 N1 1_555 1_555
H10 C6 1_555 1_555
C7 H11 1_555 1_555
C8 N4 1_555 1_555
H12 C8 1_555 1_555
C9 N7 1_555 1_555
C10 H13 1_555 1_555
H14 C10 1_555 1_555
H15 C10 1_555 1_555
Mn1_2 N6 1_555 1_555
Mn1_3 N6A 1_555 1_555
S1A C9A 1_555 1_555
N1A N2A 1_555 1_555
N2A C5A 1_555 1_555
N3A Mn1 1_555 1_555
N4A N5A 1_555 1_555
N5A C7A 1_555 1_555
N6A C7A 1_555 1_555
N6_2 Mn1 1_555 1_555
N6A_2 Mn1 1_555 1_555
N7A Mn1 1_555 1_555
C1A N1A 1_555 1_555
H1A C1A 1_555 1_555
H2A C1A 1_555 1_555
C2A C1A 1_555 1_555
H3A C2A 1_555 1_555
H4A C2A 1_555 1_555
C3A C2A 1_555 1_555
H5A C3A 1_555 1_555
H6A C3A 1_555 1_555
C4A N4A 1_555 1_555
H7A C4A 1_555 1_555
H8A C4A 1_555 1_555
C5A N3A 1_555 1_555
H9A C5A 1_555 1_555
C6A N1A 1_555 1_555
H10A C6A 1_555 1_555
C7A H11A 1_555 1_555
C8A N4A 1_555 1_555
H12A C8A 1_555 1_555
C9A N7A 1_555 1_555
N3 C6 1_555 1_555
N6 C8 1_555 1_555
C3 C4 1_555 1_555
N3A C6A 1_555 1_555
N6A C8A 1_555 1_555
C3A C4A 1_555 1_555

#END
