
#######################################################################
#
#                 Cambridge Crystallographic Data Centre
#                                CCDC 
#
#######################################################################
#
# If this CIF has been generated from an entry in the Cambridge 
# Structural Database, then it will include bibliographic, chemical, 
# crystal, experimental, refinement or atomic coordinate data resulting 
# from the CCDC's data processing and validation procedures.
#
#######################################################################

data_NUCGEY
_symmetry_cell_setting           monoclinic
_symmetry_space_group_name_H-M   'C 2/c'
_symmetry_Int_Tables_number      15
_space_group_name_Hall           '-C 2yn'
loop_
_symmetry_equiv_pos_site_id
_symmetry_equiv_pos_as_xyz
1 x,y,z
2 -x,y,1/2-z
3 1/2+x,1/2+y,z
4 1/2-x,1/2+y,1/2-z
5 -x,-y,-z
6 x,-y,1/2+z
7 1/2-x,1/2-y,-z
8 1/2+x,1/2-y,1/2+z
_cell_length_a                   18.981(7)
_cell_length_b                   6.9876(14)
_cell_length_c                   25.368(5)
_cell_angle_alpha                90
_cell_angle_beta                 100.63(3)
_cell_angle_gamma                90
_cell_volume                     3306.86
loop_
_atom_site_label
_atom_site_type_symbol
_atom_site_fract_x
_atom_site_fract_y
_atom_site_fract_z
C1 C 0.882880(15) 1.08376(4) 0.295020(12)
C2 C 1.246610(15) 0.31991(4) 0.619660(12)
H1 H 1.2595 0.2053 0.6054
C3 C 1.054290(17) 0.73804(4) 0.375330(13)
C4 C 0.943060(16) 0.96250(4) 0.323470(12)
C5 C 1.115060(16) 0.62127(4) 0.405150(13)
C6 C 0.928770(17) 0.80530(5) 0.352020(14)
H2 H 0.8817 0.7730 0.3537
C7 C 1.013560(15) 1.00972(4) 0.320880(13)
H3 H 1.0230 1.1179 0.3020
C8 C 0.985130(17) 0.69491(5) 0.378310(14)
H4 H 0.9756 0.5897 0.3983
C9 C 1.459880(15) 0.64483(4) 0.474060(13)
H5 H 1.4320 0.7418 0.4557
C10 C 1.532370(15) 0.65198(4) 0.477680(13)
H6 H 1.5537 0.7548 0.4634
C11 C 1.210260(16) 0.60231(4) 0.626990(11)
H7 H 1.1922 0.7247 0.6189
C12 C 1.425950(14) 0.49708(4) 0.496920(12)
C13 C 1.069060(16) 0.89821(4) 0.345900(13)
H8 H 1.1161 0.9284 0.3434
Cd1 Cd 1.204930(1) 0.499570(3) 0.501190(1)
Cd2 Cd 1.276376(1) 0.171277(3) 0.744664(1)
N1 N 1.252430(12) 0.35152(3) 0.671560(9)
N2 N 1.219860(13) 0.47208(3) 0.589410(9)
N3 N 1.229210(13) 0.53661(3) 0.676080(10)
O1 O 1.311520(10) 0.64732(3) 0.483250(8)
O2 O 1.316710(10) 0.34481(3) 0.503180(9)
O3 O 0.819220(11) 1.03345(3) 0.294200(9)
O4 O 0.898560(12) 1.23706(3) 0.272660(10)
O5 O 1.104750(11) 0.54495(3) 0.447950(9)
O6 O 1.172820(12) 0.60805(3) 0.387350(11)
O7 O 1.333930(12) -0.10359(3) 0.720047(10)
C14 C 1.346940(13) 0.49938(4) 0.494110(11)
C1G C 1.382880(15) 0.41624(4) 0.795020(12)
C2C C 1.253390(15) -0.18009(4) 0.880340(12)
H1C H 1.2405 -0.2947 0.8946
C3G C 1.554290(17) 0.76196(4) 0.875330(13)
C4G C 1.443060(16) 0.53750(4) 0.823470(12)
C5G C 1.615060(16) 0.87873(4) 0.905150(13)
C6G C 1.428770(17) 0.69470(5) 0.852020(14)
H2G H 1.3817 0.7270 0.8537
C7G C 1.513560(15) 0.49028(4) 0.820880(13)
H3G H 1.5230 0.3821 0.8020
C8G C 1.485130(17) 0.80509(5) 0.878310(14)
H4G H 1.4756 0.9103 0.8983
C9D C 1.540120(15) 0.35517(4) 0.525940(13)
H5D H 1.5680 0.2582 0.5443
C10D C 1.467630(15) 0.34802(4) 0.522320(13)
H6D H 1.4463 0.2452 0.5366
C11C C 1.289740(16) 0.10231(4) 0.873010(11)
H7C H 1.3078 0.2247 0.8811
C12D C 1.574050(14) 0.50292(4) 0.503080(12)
C13G C 1.569060(16) 0.60179(4) 0.845900(13)
H8G H 1.6161 0.5716 0.8434
Cd1D Cd 1.795070(1) 0.500430(3) 0.498810(1)
Cd1F Cd 1.295070(1) 1.000430(3) 0.498810(1)
Cd1F_2 Cd 1.295070(1) 0.000430(3) 0.498810(1)
Cd1B Cd 1.704930(1) -0.000430(3) 0.501190(1)
Cd1B_2 Cd 1.704930(1) 0.999570(3) 0.501190(1)
Cd1C Cd 1.295070(1) -0.000430(3) 0.998810(1)
Cd1G Cd 1.704930(1) 1.000430(3) 1.001190(1)
Cd2C Cd 1.223624(1) 0.671277(3) 0.755336(1)
Cd2G Cd 0.776376(1) 1.328723(3) 0.244664(1)
Cd2D Cd 0.723624(1) 0.828723(3) 0.255336(1)
Cd2C_2 Cd 1.223624(1) -0.328723(3) 0.755336(1)
N1C N 1.247570(12) -0.14848(3) 0.828440(9)
N1C_2 N 1.247570(12) 0.85152(3) 0.828440(9)
N2C N 1.280140(13) -0.02792(3) 0.910590(9)
N2D N 1.780140(13) 0.52792(3) 0.410590(9)
N3C N 1.270790(13) 0.03661(3) 0.823920(10)
O1D O 1.688480(10) 0.35268(3) 0.516750(8)
O1F O 1.188480(10) 0.85268(3) 0.516750(8)
O1B O 1.811520(10) 0.14732(3) 0.483250(8)
O2D O 1.683290(10) 0.65519(3) 0.496820(9)
O2F O 1.183290(10) 0.15519(3) 0.496820(9)
O2B O 1.816710(10) 0.84481(3) 0.503180(9)
O3G O 1.319220(11) 0.46655(3) 0.794200(9)
O3D O 1.180780(11) -0.03345(3) 0.705800(9)
O3D_2 O 1.180780(11) 0.96655(3) 0.705800(9)
O4G O 1.398560(12) 0.26294(3) 0.772660(10)
O4D O 1.101440(12) 0.76294(3) 0.727340(10)
O5G O 1.604750(11) 0.95505(3) 0.947950(9)
O5D O 1.895250(11) 0.45505(3) 0.552050(9)
O6G O 1.672820(12) 0.89195(3) 0.887350(11)
O7C O 1.166070(12) 0.39641(3) 0.779953(10)
C14D C 1.653060(13) 0.50062(4) 0.505890(11)
O8 O 0.0000 0.53300(6) 0.2500
loop_
_geom_bond_atom_site_label_1
_geom_bond_atom_site_label_2
_geom_bond_site_symmetry_1
_geom_bond_site_symmetry_2
C1 C4 1_555 1_555
C2 H1 1_555 1_555
C3 C5 1_555 1_555
C4 C6 1_555 1_555
C5 O5 1_555 1_555
C6 H2 1_555 1_555
C7 C4 1_555 1_555
H3 C7 1_555 1_555
C8 C3 1_555 1_555
H4 C8 1_555 1_555
C9 H5 1_555 1_555
C10 C9 1_555 1_555
H6 C10 1_555 1_555
C11 H7 1_555 1_555
C12 C9 1_555 1_555
C13 C3 1_555 1_555
H8 C13 1_555 1_555
Cd1 N2 1_555 1_555
Cd2 N1 1_555 1_555
N1 C2 1_555 1_555
N2 C2 1_555 1_555
N3 C11 1_555 1_555
O1 Cd1 1_555 1_555
O2 Cd1 1_555 1_555
O3 C1 1_555 1_555
O4 C1 1_555 1_555
O5 Cd1 1_555 1_555
O6 C5 1_555 1_555
O7 Cd2 1_555 1_555
C14 C12 1_555 1_555
C1G C4G 1_555 1_555
C2C H1C 1_555 1_555
C3G C5G 1_555 1_555
C4G C6G 1_555 1_555
C5G O5G 1_555 1_555
C6G H2G 1_555 1_555
C7G C4G 1_555 1_555
H3G C7G 1_555 1_555
C8G C3G 1_555 1_555
H4G C8G 1_555 1_555
C9D H5D 1_555 1_555
C10D C12 1_555 1_555
H6D C10D 1_555 1_555
C11C H7C 1_555 1_555
C12D C10 1_555 1_555
C13G C3G 1_555 1_555
H8G C13G 1_555 1_555
Cd1D N2D 1_555 1_555
Cd1F O1 1_555 1_555
Cd1F_2 O2 1_555 1_555
Cd1B O1D 1_555 1_555
Cd1B_2 O2D 1_555 1_555
Cd1C N2C 1_555 1_555
Cd1G O5G 1_555 1_555
Cd2C N3 1_555 1_555
Cd2G O3 1_555 1_555
Cd2D O3 1_555 1_555
Cd2C_2 N1C 1_555 1_555
N1C C2C 1_555 1_555
N1C_2 Cd2C 1_555 1_555
N2C C2C 1_555 1_555
N3C Cd2 1_555 1_555
O1D Cd1D 1_555 1_555
O1F Cd1 1_555 1_555
O1B Cd1D 1_555 1_555
O2D Cd1D 1_555 1_555
O2F Cd1 1_555 1_555
O2B Cd1D 1_555 1_555
O3G Cd2 1_555 1_555
O3D Cd2 1_555 1_555
O3D_2 Cd2C 1_555 1_555
O4G Cd2 1_555 1_555
O4D Cd2C 1_555 1_555
O5D Cd1D 1_555 1_555
O6G C5G 1_555 1_555
O7C Cd2C 1_555 1_555
C14D C12D 1_555 1_555
C6 C8 1_555 1_555
C7 C13 1_555 1_555
C11 N2 1_555 1_555
N1 N3 1_555 1_555
O1 C14 1_555 1_555
O2 C14 1_555 1_555
O4 Cd2G 1_555 1_555
C1G O3G 1_555 1_555
C1G O4G 1_555 1_555
C6G C8G 1_555 1_555
C7G C13G 1_555 1_555
C9D C10D 1_555 1_555
C9D C12D 1_555 1_555
C11C N2C 1_555 1_555
C11C N3C 1_555 1_555
Cd1F O1F 1_555 1_555
Cd1F_2 O2F 1_555 1_555
Cd1B O1B 1_555 1_555
Cd1B_2 O2B 1_555 1_555
Cd2C O3G 1_555 1_555
Cd2C_2 O3D 1_555 1_555
N1C N3C 1_555 1_555
O1D C14D 1_555 1_555
O2D C14D 1_555 1_555

#END
