
#######################################################################
#
#                 Cambridge Crystallographic Data Centre
#                                CCDC 
#
#######################################################################
#
# If this CIF has been generated from an entry in the Cambridge 
# Structural Database, then it will include bibliographic, chemical, 
# crystal, experimental, refinement or atomic coordinate data resulting 
# from the CCDC's data processing and validation procedures.
#
#######################################################################

data_NUCGIC
_symmetry_cell_setting           orthorhombic
_symmetry_space_group_name_H-M   'P 21 21 2'
_symmetry_Int_Tables_number      18
_space_group_name_Hall           'P 2 2ab'
loop_
_symmetry_equiv_pos_site_id
_symmetry_equiv_pos_as_xyz
1 x,y,z
2 -x,-y,z
3 1/2-x,1/2+y,-z
4 1/2+x,1/2-y,-z
_cell_length_a                   22.6828(10)
_cell_length_b                   7.4054(6)
_cell_length_c                   10.1719(8)
_cell_angle_alpha                90
_cell_angle_beta                 90
_cell_angle_gamma                90
_cell_volume                     1708.63
loop_
_atom_site_label
_atom_site_type_symbol
_atom_site_fract_x
_atom_site_fract_y
_atom_site_fract_z
Cu1 Cu 0.034124(12) 0.20640(4) 0.74807(3)
Cu2 Cu 0.0000 0.0000 0.33576(4)
N1 N 0.12265(9) 0.2596(3) 0.7521(2)
C1 C 0.15251(11) 0.0866(4) 0.7922(3)
H1 H 0.1353 0.0457 0.8765
H2 H 0.1948 0.1120 0.8079
C2 C 0.14778(11) -0.0659(4) 0.6936(3)
H3 H 0.1782 -0.1570 0.7157
H4 H 0.1577 -0.0170 0.6058
C3 C 0.08864(11) -0.1629(3) 0.6828(3)
O1 O 0.04855(7) -0.1193(2) 0.76379(18)
O2 O 0.08456(8) -0.2833(3) 0.59778(18)
C4 C 0.12732(12) 0.3896(4) 0.8633(3)
H5 H 0.1220 0.5140 0.8297
H6 H 0.1672 0.3812 0.9025
C5 C 0.08133(12) 0.3523(4) 0.9690(3)
O3 O 0.03689(8) 0.2579(3) 0.93614(17)
O4 O 0.08993(9) 0.4209(3) 1.07803(19)
C6 C 0.15079(11) 0.3381(3) 0.6351(2)
C7 C 0.20290(11) 0.4358(4) 0.6515(3)
H7 H 0.2208 0.4411 0.7358
C8 C 0.22897(12) 0.5252(4) 0.5470(3)
H8 H 0.2641 0.5923 0.5604
C9 C 0.20397(12) 0.5169(4) 0.4233(3)
H9 H 0.2205 0.5831 0.3523
C10 C 0.15453(12) 0.4109(4) 0.4043(3)
H10 H 0.1385 0.3997 0.3184
C11 C 0.12755(11) 0.3201(3) 0.5083(3)
C12 C 0.07515(11) 0.2056(3) 0.4760(2)
O5 O 0.03858(8) 0.1547(2) 0.56137(17)
O6 O 0.06931(8) 0.1578(3) 0.35717(18)
O7 O 0.0000 0.5000 0.6919(3)
H11 H -0.0215(14) 0.446(5) 0.641(3)
O8 O 0.0000 0.0000 0.1235(3)
H12 H 0.013(2) 0.068(5) 0.078(4)
O9 O -0.05462(9) 0.2087(3) 0.3423(2)
H13 H -0.0669(17) 0.229(5) 0.414(3)
H14 H -0.0439(17) 0.284(5) 0.308(4)
Cu1A Cu -0.034124(12) -0.20640(4) 0.74807(3)
Cu1A_2 Cu -0.034124(12) 0.79360(4) 0.74807(3)
N1A N -0.12265(9) -0.2596(3) 0.7521(2)
C1A C -0.15251(11) -0.0866(4) 0.7922(3)
H1A H -0.1353 -0.0457 0.8765
H2A H -0.1948 -0.1120 0.8079
C2A C -0.14778(11) 0.0659(4) 0.6936(3)
H3A H -0.1782 0.1570 0.7157
H4A H -0.1577 0.0170 0.6058
C3A C -0.08864(11) 0.1629(3) 0.6828(3)
O1A O -0.04855(7) 0.1193(2) 0.76379(18)
O2A O -0.08456(8) 0.2833(3) 0.59778(18)
C4A C -0.12732(12) -0.3896(4) 0.8633(3)
H5A H -0.1220 -0.5140 0.8297
H6A H -0.1672 -0.3812 0.9025
C5A C -0.08133(12) -0.3523(4) 0.9690(3)
O3A O -0.03689(8) -0.2579(3) 0.93614(17)
O4A O -0.08993(9) -0.4209(3) 1.07803(19)
C6A C -0.15079(11) -0.3381(3) 0.6351(2)
C7A C -0.20290(11) -0.4358(4) 0.6515(3)
H7A H -0.2208 -0.4411 0.7358
C8A C -0.22897(12) -0.5252(4) 0.5470(3)
H8A H -0.2641 -0.5923 0.5604
C9A C -0.20397(12) -0.5169(4) 0.4233(3)
H9A H -0.2205 -0.5831 0.3523
C10A C -0.15453(12) -0.4109(4) 0.4043(3)
H10A H -0.1385 -0.3997 0.3184
C11A C -0.12755(11) -0.3201(3) 0.5083(3)
C12A C -0.07515(11) -0.2056(3) 0.4760(2)
O5A O -0.03858(8) -0.1547(2) 0.56137(17)
O6A O -0.06931(8) -0.1578(3) 0.35717(18)
O7_2 O 0.0000 -0.5000 0.6919(3)
H11A H 0.0215(14) 0.554(5) 0.641(3)
H11A_2 H 0.0215(14) -0.446(5) 0.641(3)
H11_2 H -0.0215(14) -0.554(5) 0.641(3)
H12A H -0.013(2) -0.068(5) 0.078(4)
O9A O 0.05462(9) -0.2087(3) 0.3423(2)
H13A H 0.0669(17) -0.229(5) 0.414(3)
H14A H 0.0439(17) -0.284(5) 0.308(4)
O10 O 0.0000 -0.5000 0.2406(3)
H15 H -0.0233(11) -0.449(4) 0.194(3)
H15A H 0.0233(11) -0.551(4) 0.194(3)
O11 O 0.25446(11) -0.2314(4) 0.8967(3)
H16 H 0.2810(17) -0.290(6) 0.864(4)
H17 H 0.273(2) -0.129(5) 0.898(5)
O12 O 0.16386(13) 0.0199(4) 0.1831(4)
H18 H 0.1314(18) 0.045(8) 0.221(5)
H19 H 0.164(2) -0.094(4) 0.154(6)
O13 O 0.19231(11) 0.6412(4) 1.1120(2)
H20 H 0.2106(19) 0.672(7) 1.050(4)
H21 H 0.1596(16) 0.599(6) 1.094(4)
loop_
_geom_bond_atom_site_label_1
_geom_bond_atom_site_label_2
_geom_bond_site_symmetry_1
_geom_bond_site_symmetry_2
Cu1 N1 1_555 1_555
Cu2 O6 1_555 1_555
N1 C1 1_555 1_555
C1 H1 1_555 1_555
H2 C1 1_555 1_555
C2 C1 1_555 1_555
H3 C2 1_555 1_555
H4 C2 1_555 1_555
C3 C2 1_555 1_555
O1 Cu1 1_555 1_555
O2 C3 1_555 1_555
C4 N1 1_555 1_555
H5 C4 1_555 1_555
H6 C4 1_555 1_555
C5 C4 1_555 1_555
O3 Cu1 1_555 1_555
O4 C5 1_555 1_555
C6 N1 1_555 1_555
C7 C6 1_555 1_555
H7 C7 1_555 1_555
C8 C7 1_555 1_555
H8 C8 1_555 1_555
C9 C8 1_555 1_555
H9 C9 1_555 1_555
C10 C9 1_555 1_555
H10 C10 1_555 1_555
C11 C6 1_555 1_555
C12 C11 1_555 1_555
O5 Cu1 1_555 1_555
O6 C12 1_555 1_555
O7 Cu1 1_555 1_555
H11 O7 1_555 1_555
O8 Cu2 1_555 1_555
H12 O8 1_555 1_555
O9 Cu2 1_555 1_555
H13 O9 1_555 1_555
H14 O9 1_555 1_555
O10 H15 1_555 1_555
O11 H16 1_555 1_555
H17 O11 1_555 1_555
O12 H18 1_555 1_555
H19 O12 1_555 1_555
O13 H20 1_555 1_555
H21 O13 1_555 1_555
Cu1A O1 1_555 1_555
Cu1A_2 O7 1_555 1_555
N1A Cu1A 1_555 1_555
C1A N1A 1_555 1_555
H1A C1A 1_555 1_555
H2A C1A 1_555 1_555
C2A C1A 1_555 1_555
H3A C2A 1_555 1_555
H4A C2A 1_555 1_555
C3A C2A 1_555 1_555
O1A Cu1 1_555 1_555
O2A C3A 1_555 1_555
C4A N1A 1_555 1_555
H5A C4A 1_555 1_555
H6A C4A 1_555 1_555
C5A C4A 1_555 1_555
O3A Cu1A 1_555 1_555
O4A C5A 1_555 1_555
C6A N1A 1_555 1_555
C7A C6A 1_555 1_555
H7A C7A 1_555 1_555
C8A C7A 1_555 1_555
H8A C8A 1_555 1_555
C9A C8A 1_555 1_555
H9A C9A 1_555 1_555
C10A C9A 1_555 1_555
H10A C10A 1_555 1_555
C11A C6A 1_555 1_555
C12A C11A 1_555 1_555
O5A Cu1A 1_555 1_555
O6A Cu2 1_555 1_555
O7_2 Cu1A 1_555 1_555
H11A O7 1_555 1_555
H11A_2 O7_2 1_555 1_555
H11_2 O7_2 1_555 1_555
H12A O8 1_555 1_555
O9A Cu2 1_555 1_555
H13A O9A 1_555 1_555
H14A O9A 1_555 1_555
H15A O10 1_555 1_555
C3 O1 1_555 1_555
C5 O3 1_555 1_555
C10 C11 1_555 1_555
C12 O5 1_555 1_555
Cu1A O1A 1_555 1_555
C3A O1A 1_555 1_555
C5A O3A 1_555 1_555
C10A C11A 1_555 1_555
C12A O5A 1_555 1_555
C12A O6A 1_555 1_555

#END
