
#######################################################################
#
#                 Cambridge Crystallographic Data Centre
#                                CCDC 
#
#######################################################################
#
# If this CIF has been generated from an entry in the Cambridge 
# Structural Database, then it will include bibliographic, chemical, 
# crystal, experimental, refinement or atomic coordinate data resulting 
# from the CCDC's data processing and validation procedures.
#
#######################################################################

data_NUCPOS
_symmetry_cell_setting           monoclinic
_symmetry_space_group_name_H-M   'P c'
_symmetry_Int_Tables_number      7
_space_group_name_Hall           'P -2yc'
loop_
_symmetry_equiv_pos_site_id
_symmetry_equiv_pos_as_xyz
1 x,y,z
2 x,-y,1/2+z
_cell_length_a                   7.671(5)
_cell_length_b                   6.820(5)
_cell_length_c                   25.658(18)
_cell_angle_alpha                90
_cell_angle_beta                 94.011(10)
_cell_angle_gamma                90
_cell_volume                     1339.04
loop_
_atom_site_label
_atom_site_type_symbol
_atom_site_fract_x
_atom_site_fract_y
_atom_site_fract_z
Eu1 Eu 0.4473(2) 0.53412(13) 0.73131(12)
O1 O 0.350(2) 0.645(3) 0.8080(6)
O2 O 0.5354(18) 0.651(2) 0.6497(5)
O3 O 0.4287(18) 0.458(2) 0.8814(6)
H1 H 0.4639 0.3813 0.8600
C1 C 0.599(3) 0.737(3) 0.5175(8)
H2 H 0.5417 0.6302 0.5017
C2 C 0.271(3) 0.772(3) 0.8900(8)
N1 N 0.152(2) 1.078(3) 0.8936(7)
C3 C 0.703(3) 0.908(3) 0.5920(9)
H3 H 0.7288 0.9084 0.6280
C4 C 0.733(2) 1.0738(18) 0.5077(6)
C5 C 0.347(3) 0.610(4) 0.8562(10)
N2 N 0.746(2) 1.073(3) 0.5638(7)
C6 C 0.234(3) 0.907(4) 0.9711(9)
C7 C 0.783(3) 1.220(2) 0.4262(5)
H4 H 0.8204 1.3213 0.4053
C8 C 0.108(3) 1.235(2) 0.9741(5)
H5 H 0.0580 1.3427 0.9564
C9 C 0.216(3) 0.943(3) 0.8690(8)
H6 H 0.2274 0.9619 0.8335
C10 C 0.666(2) 0.909(2) 0.4833(4)
C11 C 0.781(3) 1.233(3) 0.4792(5)
H7 H 0.8118 1.3503 0.4961
C12 C 0.251(3) 0.927(2) 1.0303(8)
H8 H 0.2984 0.8224 1.0498
C13 C 0.129(2) 1.241(2) 1.0273(5)
H9 H 0.0945 1.3531 1.0445
C14 C 0.157(3) 1.076(2) 0.9456(8)
C15 C 0.200(2) 1.089(2) 1.0564(7)
H10 H 0.2120 1.0953 1.0926
C16 C 0.624(3) 0.747(4) 0.5697(9)
C17 C 0.659(2) 0.886(2) 0.4309(4)
H11 H 0.6143 0.7752 0.4135
C18 C 0.282(3) 0.758(3) 0.9453(9)
H12 H 0.3222 0.6447 0.9622
K1 K 0.9382(6) 0.4141(9) 0.8455(2)
O4 O 0.5170(18) 0.441(2) 0.5849(5)
C19 C 0.726(3) 1.044(2) 0.4068(8)
H13 H 0.7334 1.0291 0.3710
C20 C 0.545(3) 0.599(3) 0.6041(8)
O5 O 0.6939(19) 0.687(2) 0.7809(6)
H14 H 0.6483 0.7833 0.8042
H15 H 0.7624 0.7575 0.7566
O6 O 0.6805(18) 0.318(2) 0.6977(6)
H16 H 0.6467 0.2796 0.6625
H17 H 0.6953 0.2039 0.7193
O7 O 0.173(2) 0.666(3) 0.6981(7)
H18 H 0.1416 0.6108 0.6643
H19 H 0.1833 0.8056 0.6951
O8 O 0.202(2) 0.343(3) 0.7560(7)
H20 H 0.1760 0.3771 0.7910
H21 H 0.2321 0.2066 0.7547
O9 O 0.456(4) 0.9154(16) 0.7350(11)
H22 H 0.3610 0.9679 0.7130
H23 H 0.5648 0.9612 0.7231
O10 O 0.5741(18) 0.293(2) 0.8006(6)
H24 H 0.5807 0.1635 0.7851
H25 H 0.4963 0.2849 0.8287
O11 O 0.3506(18) 0.272(2) 0.6671(6)
H26 H 0.2491 0.3159 0.6463
N1_2 N 1.152(2) 0.078(3) 0.8936(7)
K1_2 K -0.0618(6) 0.4141(9) 0.8455(2)
K1_3 K -0.0618(6) 1.4141(9) 0.8455(2)
O8_2 O 1.202(2) 0.343(3) 0.7560(7)
Cl1 Cl -0.0485(13) 0.9926(7) 0.7397(3)
Cl2 Cl 0.9582(9) 0.4024(12) 0.6163(3)
loop_
_geom_bond_atom_site_label_1
_geom_bond_atom_site_label_2
_geom_bond_site_symmetry_1
_geom_bond_site_symmetry_2
Eu1 O1 1_555 1_555
O1 C5 1_555 1_555
O2 Eu1 1_555 1_555
O3 H1 1_555 1_555
C1 H2 1_555 1_555
C2 C5 1_555 1_555
N1 C9 1_555 1_555
C3 H3 1_555 1_555
C4 N2 1_555 1_555
C5 O3 1_555 1_555
N2 C3 1_555 1_555
C6 C12 1_555 1_555
C7 H4 1_555 1_555
C8 H5 1_555 1_555
C9 C2 1_555 1_555
H6 C9 1_555 1_555
C10 C1 1_555 1_555
C11 C4 1_555 1_555
H7 C11 1_555 1_555
C12 H8 1_555 1_555
C13 C8 1_555 1_555
H9 C13 1_555 1_555
C14 N1 1_555 1_555
C15 C12 1_555 1_555
H10 C15 1_555 1_555
C16 C1 1_555 1_555
C17 C10 1_555 1_555
H11 C17 1_555 1_555
C18 C2 1_555 1_555
H12 C18 1_555 1_555
K1 O5 1_555 1_555
O4 C20 1_555 1_555
C19 C7 1_555 1_555
H13 C19 1_555 1_555
C20 O2 1_555 1_555
O5 Eu1 1_555 1_555
H14 O5 1_555 1_555
H15 O5 1_555 1_555
O6 Eu1 1_555 1_555
H16 O6 1_555 1_555
H17 O6 1_555 1_555
O7 Eu1 1_555 1_555
H18 O7 1_555 1_555
H19 O7 1_555 1_555
O8 Eu1 1_555 1_555
H20 O8 1_555 1_555
H21 O8 1_555 1_555
O9 Eu1 1_555 1_555
H22 O9 1_555 1_555
H23 O9 1_555 1_555
O10 Eu1 1_555 1_555
H24 O10 1_555 1_555
H25 O10 1_555 1_555
O11 Eu1 1_555 1_555
H26 O11 1_555 1_555
N1_2 K1 1_555 1_555
K1_2 O8 1_555 1_555
K1_3 N1 1_555 1_555
O8_2 K1 1_555 1_555
C3 C16 1_555 1_555
C4 C10 1_555 1_555
C6 C14 1_555 1_555
C6 C18 1_555 1_555
C7 C11 1_555 1_555
C8 C14 1_555 1_555
C13 C15 1_555 1_555
C16 C20 1_555 1_555
C17 C19 1_555 1_555
K1 O10 1_555 1_555

#END
