
#######################################################################
#
#                 Cambridge Crystallographic Data Centre
#                                CCDC 
#
#######################################################################
#
# If this CIF has been generated from an entry in the Cambridge 
# Structural Database, then it will include bibliographic, chemical, 
# crystal, experimental, refinement or atomic coordinate data resulting 
# from the CCDC's data processing and validation procedures.
#
#######################################################################

data_NUCRIN
_symmetry_cell_setting           rhombohedral
_symmetry_space_group_name_H-M   'R -3 c'
_symmetry_Int_Tables_number      167
_space_group_name_Hall           '-R 3 2"c'
loop_
_symmetry_equiv_pos_site_id
_symmetry_equiv_pos_as_xyz
1 x,y,z
2 -y,x-y,z
3 -x+y,-x,z
4 y,x,1/2-z
5 x-y,-y,1/2-z
6 -x,-x+y,1/2-z
7 2/3+x,1/3+y,1/3+z
8 2/3-y,1/3+x-y,1/3+z
9 2/3-x+y,1/3-x,1/3+z
10 2/3+y,1/3+x,5/6-z
11 2/3+x-y,1/3-y,5/6-z
12 2/3-x,1/3-x+y,5/6-z
13 1/3+x,2/3+y,2/3+z
14 1/3-y,2/3+x-y,2/3+z
15 1/3-x+y,2/3-x,2/3+z
16 1/3+y,2/3+x,1/6-z
17 1/3+x-y,2/3-y,1/6-z
18 1/3-x,2/3-x+y,1/6-z
19 -x,-y,-z
20 y,-x+y,-z
21 x-y,x,-z
22 -y,-x,1/2+z
23 -x+y,y,1/2+z
24 x,x-y,1/2+z
25 1/3-x,2/3-y,2/3-z
26 1/3+y,2/3-x+y,2/3-z
27 1/3+x-y,2/3+x,2/3-z
28 1/3-y,2/3-x,1/6+z
29 1/3-x+y,2/3+y,1/6+z
30 1/3+x,2/3+x-y,1/6+z
31 2/3-x,1/3-y,1/3-z
32 2/3+y,1/3-x+y,1/3-z
33 2/3+x-y,1/3+x,1/3-z
34 2/3-y,1/3-x,5/6+z
35 2/3-x+y,1/3+y,5/6+z
36 2/3+x,1/3+x-y,5/6+z
_cell_length_a                   26.1227(12)
_cell_length_b                   26.1227(12)
_cell_length_c                   13.4564(13)
_cell_angle_alpha                90
_cell_angle_beta                 90
_cell_angle_gamma                120
_cell_volume                     7952.35
loop_
_atom_site_label
_atom_site_type_symbol
_atom_site_fract_x
_atom_site_fract_y
_atom_site_fract_z
C1 C 0.81709(9) 0.76041(9) 0.11017(16)
H1 H 0.7930 0.7195 0.1081
C2 C 0.79223(9) 0.79604(9) 0.12433(16)
H2 H 0.7515 0.7790 0.1319
C3 C 0.82803(9) 0.85722(9) 0.12727(15)
C4 C 0.88898(9) 0.88243(9) 0.11380(16)
H3 H 0.9130 0.9233 0.1145
C5 C 0.91387(9) 0.84720(10) 0.09947(16)
H4 H 0.9544 0.8644 0.0901
C6 C 0.87814(9) 0.78570(9) 0.09903(15)
C7 C 0.90656(9) 0.74936(9) 0.09250(15)
C8 C 0.80360(9) 0.89677(9) 0.15344(15)
N1 N 0.89077(7) 0.70244(7) 0.03425(13)
N2 N 0.93122(8) 0.68513(8) 0.04959(14)
N3 N 0.96923(8) 0.71967(8) 0.11468(14)
N4 N 0.95467(7) 0.76050(7) 0.14418(13)
O1 O 0.74975(7) 0.87913(6) 0.15341(12)
O2 O 0.84241(6) 0.94887(6) 0.17888(12)
O3 O 0.75877(9) 0.6667 -0.0833
Zn1 Zn 0.835022(12) 0.6667 -0.0833
Zn2 Zn 1.0000 0.820384(12) 0.2500
H5 H 0.7277(8) 0.6392(9) -0.067(2)
C1J C 0.72335(13) 0.57292(9) -0.27684(16)
H1J H 0.7402 0.6138 -0.2748
C2J C 0.66286(13) 0.53729(9) -0.29100(16)
H2J H 0.6392 0.5543 -0.2986
C3J C 0.63748(13) 0.47611(9) -0.29394(15)
C4J C 0.67322(13) 0.45090(9) -0.28047(16)
H3J H 0.6564 0.4100 -0.2812
C5J C 0.73334(13) 0.48613(10) -0.26614(16)
H4J H 0.7567 0.4689 -0.2568
C6J C 0.75911(13) 0.54763(9) -0.26570(15)
C7J C 0.82387(13) 0.58397(9) -0.25917(15)
C8J C 0.57350(13) 0.43656(9) -0.32011(15)
N1J N 0.85500(10) 0.63089(7) -0.20092(13)
N2J N 0.91276(11) 0.64820(8) -0.21626(14)
N3J N 0.91623(11) 0.61366(8) -0.28135(14)
N4J N 0.86084(10) 0.57283(7) -0.31085(13)
N4E N 1.04533(7) 0.80583(10) 0.35582(13)
O1J O 0.53729(9) 0.45420(6) -0.32008(12)
O1T O 0.87062(9) 0.74975(7) -0.15341(12)
O1GA O 0.78754(6) 0.58358(7) -0.01326(12)
O2J O 0.56021(8) 0.38446(6) -0.34555(12)
O2A O 1.05113(6) 0.89354(8) 0.17888(12)
O2C O 0.94887(6) 0.84241(6) 0.32112(12)
Zn1S Zn 0.6667 0.831678(12) 0.0833
Zn1IA Zn 0.501689(12) 0.501655(12) -0.2500
Zn2B Zn 0.820384(12) 1.0000 0.2500
Zn2G Zn 0.846283(12) 0.512949(12) -0.4167
Zn2H Zn 0.487051(12) 0.3333 -0.4167
H5J H 0.7552(12) 0.6941(9) -0.100(2)
loop_
_geom_bond_atom_site_label_1
_geom_bond_atom_site_label_2
_geom_bond_site_symmetry_1
_geom_bond_site_symmetry_2
C1 H1 1_555 1_555
C2 C1 1_555 1_555
H2 C2 1_555 1_555
C3 C2 1_555 1_555
C4 C3 1_555 1_555
H3 C4 1_555 1_555
C5 C4 1_555 1_555
H4 C5 1_555 1_555
C6 C1 1_555 1_555
C7 C6 1_555 1_555
C8 C3 1_555 1_555
N1 C7 1_555 1_555
N2 N1 1_555 1_555
N3 N2 1_555 1_555
N4 C7 1_555 1_555
O1 C8 1_555 1_555
O2 C8 1_555 1_555
O3 Zn1 1_555 1_555
Zn1 N1 1_555 1_555
Zn2 N4 1_555 1_555
H5 O3 1_555 1_555
C1J H1J 1_555 1_555
C2J C1J 1_555 1_555
H2J C2J 1_555 1_555
C3J C2J 1_555 1_555
C4J C3J 1_555 1_555
H3J C4J 1_555 1_555
C5J C4J 1_555 1_555
H4J C5J 1_555 1_555
C6J C1J 1_555 1_555
C7J C6J 1_555 1_555
C8J C3J 1_555 1_555
N1J Zn1 1_555 1_555
N2J N1J 1_555 1_555
N3J N2J 1_555 1_555
N4J C7J 1_555 1_555
N4E Zn2 1_555 1_555
O1J C8J 1_555 1_555
O1T Zn1 1_555 1_555
O1GA Zn1 1_555 1_555
O2J C8J 1_555 1_555
O2A Zn2 1_555 1_555
O2C Zn2 1_555 1_555
Zn1S O1 1_555 1_555
Zn1IA O1J 1_555 1_555
Zn2B O2 1_555 1_555
Zn2G N4J 1_555 1_555
Zn2H O2J 1_555 1_555
H5J O3 1_555 1_555
C5 C6 1_555 1_555
N3 N4 1_555 1_555
C5J C6J 1_555 1_555
C7J N1J 1_555 1_555
N3J N4J 1_555 1_555

#END
