
#######################################################################
#
#                 Cambridge Crystallographic Data Centre
#                                CCDC 
#
#######################################################################
#
# If this CIF has been generated from an entry in the Cambridge 
# Structural Database, then it will include bibliographic, chemical, 
# crystal, experimental, refinement or atomic coordinate data resulting 
# from the CCDC's data processing and validation procedures.
#
#######################################################################

data_NUCROT
_symmetry_cell_setting           triclinic
_symmetry_space_group_name_H-M   'P -1'
_symmetry_Int_Tables_number      2
_space_group_name_Hall           '-P 1'
loop_
_symmetry_equiv_pos_site_id
_symmetry_equiv_pos_as_xyz
1 x,y,z
2 -x,-y,-z
_cell_length_a                   10.444(2)
_cell_length_b                   11.213(2)
_cell_length_c                   12.233(2)
_cell_angle_alpha                79.66(3)
_cell_angle_beta                 71.61(3)
_cell_angle_gamma                87.54(3)
_cell_volume                     1337.21
loop_
_atom_site_label
_atom_site_type_symbol
_atom_site_fract_x
_atom_site_fract_y
_atom_site_fract_z
La1 La 1.57604(3) 0.93872(3) -0.35322(2)
Co1 Co 1.0000 1.0000 0.5000
S1 S 1.48851(18) 1.26610(14) -0.45554(14)
S2 S 0.86930(16) 0.74099(14) 0.66938(14)
O1 O 1.4062(4) 0.7726(4) -0.2006(3)
O2 O 1.4449(5) 0.9367(4) -0.1408(4)
O3 O 1.0742(4) 0.8873(4) 0.3784(3)
O4 O 1.2806(4) 0.9595(4) 0.2760(4)
O5 O 0.7278(4) 0.7763(4) 0.7034(4)
O6 O 0.8981(6) 0.6556(6) 0.7591(5)
O7 O 0.9602(4) 0.8452(4) 0.6309(4)
O8 O 1.5197(6) 1.1638(4) -0.3757(4)
O9 O 1.4215(5) 1.2268(4) -0.5316(4)
O10 O 1.4162(6) 1.3591(4) -0.3949(5)
O11 O 1.1941(4) 1.0165(4) 0.5222(3)
O12 O 1.3667(4) 0.9673(4) 0.5834(3)
C1 C 1.2810(5) 0.7980(5) -0.0043(5)
C2 C 1.2827(5) 0.8524(5) 0.0880(4)
H1 H 1.3519 0.9067 0.0783
C3 C 1.1816(5) 0.8269(5) 0.1956(5)
C4 C 1.0813(5) 0.7414(5) 0.2090(5)
H2 H 1.0136 0.7233 0.2806
C5 C 1.0802(6) 0.6835(5) 0.1188(5)
C6 C 1.1803(6) 0.7125(5) 0.0113(5)
H3 H 1.1802 0.6749 -0.0505
C7 C 1.3849(6) 0.8367(5) -0.1232(4)
C8 C 1.1791(5) 0.8947(5) 0.2906(5)
C9 C 0.9698(7) 0.5907(6) 0.1378(6)
H4 H 0.9584 0.5852 0.0640
H5 H 0.8867 0.6153 0.1891
H6 H 0.9947 0.5130 0.1722
C10 C 1.6443(9) 1.3291(8) -0.5495(8)
H7 H 1.6289 1.3971 -0.6036
H8 H 1.6948 1.2691 -0.5919
H9 H 1.6943 1.3555 -0.5042
C11 C 0.8928(10) 0.6717(8) 0.5448(8)
H10 H 0.9845 0.6459 0.5178
H11 H 0.8736 0.7291 0.4838
H12 H 0.8331 0.6028 0.5655
C12 C 1.2421(5) 0.9858(5) 0.6061(5)
C13 C 1.1541(7) 0.9728(9) 0.7303(6)
H13 H 1.1648 0.8935 0.7714
H14 H 1.0616 0.9833 0.7327
H15 H 1.1792 1.0331 0.7667
La1A La 0.42396(3) 1.06128(3) 1.35322(2)
La1A_2 La 1.42396(3) 1.06128(3) 0.35322(2)
La1_2 La 0.57604(3) 0.93872(3) 0.64678(2)
La1A_3 La 1.42396(3) 1.06128(3) -0.64678(2)
La1_3 La 1.57604(3) 0.93872(3) 0.64678(2)
La1A_4 La 0.42396(3) 1.06128(3) 0.35322(2)
S1A S 1.51149(18) 0.73390(14) -0.54446(14)
S2A S 1.13070(16) 1.25901(14) 0.33062(14)
O1A O 0.5938(4) 1.2274(4) 1.2006(3)
O2A O 0.5551(5) 1.0633(4) 1.1408(4)
O3A O 0.9258(4) 1.1127(4) 0.6216(3)
O4A O 0.7194(4) 1.0405(4) 0.7240(4)
O4A_2 O 1.7194(4) 1.0405(4) -0.2760(4)
O4_2 O 0.2806(4) 0.9595(4) 1.2760(4)
O5A O 1.2722(4) 1.2237(4) 0.2966(4)
O5_2 O 1.7278(4) 0.7763(4) -0.2966(4)
O5A_2 O 0.2722(4) 1.2237(4) 1.2966(4)
O6A O 1.1019(6) 1.3444(6) 0.2409(5)
O7A O 1.0398(4) 1.1548(4) 0.3691(4)
O8A O 1.4803(6) 0.8362(4) -0.6243(4)
O8A_2 O 0.4803(6) 0.8362(4) 1.3757(4)
O9A O 1.5785(5) 0.7732(4) -0.4684(4)
O9_2 O 0.4215(5) 1.2268(4) 1.4684(4)
O10A O 1.5838(6) 0.6409(4) -0.6051(5)
O11A O 0.8059(4) 0.9835(4) 0.4778(3)
O11A_2 O 1.8059(4) 0.9835(4) -0.5222(3)
O11_2 O 0.1941(4) 1.0165(4) 1.5222(3)
O12A O 0.6333(4) 1.0327(4) 0.4166(3)
O12_2 O 1.3667(4) 0.9673(4) -0.4166(3)
O12A_2 O 1.6333(4) 1.0327(4) -0.5834(3)
O12A_3 O 0.6333(4) 1.0327(4) 1.4166(3)
O12_3 O 0.3667(4) 0.9673(4) 1.5834(3)
C1A C 0.7190(5) 1.2020(5) 1.0043(5)
C2A C 0.7173(5) 1.1476(5) 0.9120(4)
H1A H 0.6481 1.0933 0.9217
C3A C 0.8184(5) 1.1731(5) 0.8044(5)
C4A C 0.9187(5) 1.2586(5) 0.7910(5)
H2A H 0.9864 1.2767 0.7194
C5A C 0.9198(6) 1.3165(5) 0.8812(5)
C6A C 0.8197(6) 1.2875(5) 0.9887(5)
H3A H 0.8198 1.3251 1.0505
C7A C 0.6151(6) 1.1633(5) 1.1232(4)
C8A C 0.8209(5) 1.1053(5) 0.7094(5)
C9A C 1.0302(7) 1.4093(6) 0.8622(6)
H4A H 1.0416 1.4148 0.9360
H5A H 1.1133 1.3847 0.8109
H6A H 1.0053 1.4870 0.8278
C10A C 1.3557(9) 0.6709(8) -0.4505(8)
H7A H 1.3711 0.6029 -0.3964
H8A H 1.3052 0.7309 -0.4081
H9A H 1.3057 0.6445 -0.4958
C11A C 1.1072(10) 1.3283(8) 0.4552(8)
H10A H 1.0155 1.3541 0.4822
H11A H 1.1264 1.2709 0.5162
H12A H 1.1669 1.3972 0.4345
C12A C 0.7579(5) 1.0142(5) 0.3939(5)
C13A C 0.8459(7) 1.0272(9) 0.2697(6)
H13A H 0.8352 1.1065 0.2286
H14A H 0.9384 1.0167 0.2673
H15A H 0.8208 0.9669 0.2333
N1 N 0.4911(6) 0.4251(5) 0.8262(5)
N2 N 0.3630(6) 0.2824(5) 0.9480(5)
C14 C 0.4631(7) 0.3076(6) 0.8492(6)
H16 H 0.5071 0.2515 0.8031
C15 C 0.3247(8) 0.3883(7) 0.9897(7)
H17 H 0.2567 0.3966 1.0583
C16 C 0.4030(8) 0.4777(6) 0.9137(7)
H18 H 0.3988 0.5596 0.9189
C17 C 0.6004(10) 0.4871(9) 0.7278(8)
H19 H 0.6826 0.4435 0.7225
H20 H 0.6116 0.5679 0.7397
H21 H 0.5786 0.4908 0.6567
C18 C 0.3050(8) 0.1606(6) 1.0031(6)
H22 H 0.3073 0.1433 1.0831
H23 H 0.3600 0.1010 0.9614
C19 C 0.1629(10) 0.1485(9) 1.0035(10)
H24 H 0.1298 0.0677 1.0397
H25 H 0.1602 0.1643 0.9245
H26 H 0.1074 0.2057 1.0466
loop_
_geom_bond_atom_site_label_1
_geom_bond_atom_site_label_2
_geom_bond_site_symmetry_1
_geom_bond_site_symmetry_2
La1 O1 1_555 1_555
Co1 O3 1_555 1_555
S1 O8 1_555 1_555
S2 O5 1_555 1_555
O1 C7 1_555 1_555
O2 La1 1_555 1_555
O3 C8 1_555 1_555
O4 C8 1_555 1_555
O5 La1_2 1_555 1_555
O6 S2 1_555 1_555
O7 Co1 1_555 1_555
O8 La1 1_555 1_555
O9 S1 1_555 1_555
O10 S1 1_555 1_555
O11 Co1 1_555 1_555
O12 C12 1_555 1_555
N1 C14 1_555 1_555
N2 C14 1_555 1_555
C1 C2 1_555 1_555
C2 H1 1_555 1_555
C3 C2 1_555 1_555
C4 C3 1_555 1_555
H2 C4 1_555 1_555
C5 C4 1_555 1_555
C6 C1 1_555 1_555
H3 C6 1_555 1_555
C7 O2 1_555 1_555
C8 C3 1_555 1_555
C9 C5 1_555 1_555
H4 C9 1_555 1_555
H5 C9 1_555 1_555
H6 C9 1_555 1_555
C10 S1 1_555 1_555
H7 C10 1_555 1_555
H8 C10 1_555 1_555
H9 C10 1_555 1_555
C11 S2 1_555 1_555
H10 C11 1_555 1_555
H11 C11 1_555 1_555
H12 C11 1_555 1_555
C12 O11 1_555 1_555
C13 C12 1_555 1_555
H13 C13 1_555 1_555
H14 C13 1_555 1_555
H15 C13 1_555 1_555
C14 H16 1_555 1_555
C15 N2 1_555 1_555
H17 C15 1_555 1_555
C16 N1 1_555 1_555
H18 C16 1_555 1_555
C17 N1 1_555 1_555
H19 C17 1_555 1_555
H20 C17 1_555 1_555
H21 C17 1_555 1_555
C18 N2 1_555 1_555
H22 C18 1_555 1_555
H23 C18 1_555 1_555
C19 C18 1_555 1_555
H24 C19 1_555 1_555
H25 C19 1_555 1_555
H26 C19 1_555 1_555
La1A O1A 1_555 1_555
La1A_2 O4 1_555 1_555
La1_2 O4A 1_555 1_555
La1A_3 O9 1_555 1_555
La1_3 O12 1_555 1_555
La1A_4 O12A 1_555 1_555
S1A O8A 1_555 1_555
S2A O5A 1_555 1_555
O1A C7A 1_555 1_555
O2A La1A 1_555 1_555
O3A Co1 1_555 1_555
O4A C8A 1_555 1_555
O4A_2 La1 1_555 1_555
O4_2 La1A 1_555 1_555
O5A La1A_2 1_555 1_555
O5_2 La1 1_555 1_555
O5A_2 La1A 1_555 1_555
O6A S2A 1_555 1_555
O7A Co1 1_555 1_555
O8A La1A_3 1_555 1_555
O8A_2 La1A 1_555 1_555
O9A La1 1_555 1_555
O9_2 La1A 1_555 1_555
O10A S1A 1_555 1_555
O11A Co1 1_555 1_555
O11A_2 La1 1_555 1_555
O11_2 La1A 1_555 1_555
O12A La1_2 1_555 1_555
O12_2 La1 1_555 1_555
O12A_2 La1 1_555 1_555
O12A_3 La1A 1_555 1_555
O12_3 La1A 1_555 1_555
C1A C2A 1_555 1_555
C2A H1A 1_555 1_555
C3A C2A 1_555 1_555
C4A C3A 1_555 1_555
H2A C4A 1_555 1_555
C5A C4A 1_555 1_555
C6A C1A 1_555 1_555
H3A C6A 1_555 1_555
C7A O2A 1_555 1_555
C8A O3A 1_555 1_555
C9A C5A 1_555 1_555
H4A C9A 1_555 1_555
H5A C9A 1_555 1_555
H6A C9A 1_555 1_555
C10A S1A 1_555 1_555
H7A C10A 1_555 1_555
H8A C10A 1_555 1_555
H9A C10A 1_555 1_555
C11A S2A 1_555 1_555
H10A C11A 1_555 1_555
H11A C11A 1_555 1_555
H12A C11A 1_555 1_555
C12A O11A 1_555 1_555
C13A C12A 1_555 1_555
H13A C13A 1_555 1_555
H14A C13A 1_555 1_555
H15A C13A 1_555 1_555
S2 O7 1_555 1_555
O11 La1A_2 1_555 1_555
O12 La1A_2 1_555 1_555
C1 C7 1_555 1_555
C5 C6 1_555 1_555
C15 C16 1_555 1_555
La1_2 O11A 1_555 1_555
La1A_3 O12_2 1_555 1_555
La1A_3 O12A_2 1_555 1_555
S1A O9A 1_555 1_555
S2A O7A 1_555 1_555
O12A C12A 1_555 1_555
C1A C7A 1_555 1_555
C3A C8A 1_555 1_555
C5A C6A 1_555 1_555

#END
