
#######################################################################
#
#                 Cambridge Crystallographic Data Centre
#                                CCDC 
#
#######################################################################
#
# If this CIF has been generated from an entry in the Cambridge 
# Structural Database, then it will include bibliographic, chemical, 
# crystal, experimental, refinement or atomic coordinate data resulting 
# from the CCDC's data processing and validation procedures.
#
#######################################################################

data_NUCRUZ
_symmetry_cell_setting           orthorhombic
_symmetry_space_group_name_H-M   'P c a 21'
_symmetry_Int_Tables_number      29
_space_group_name_Hall           'P 2c -2ac'
loop_
_symmetry_equiv_pos_site_id
_symmetry_equiv_pos_as_xyz
1 x,y,z
2 -x,-y,1/2+z
3 1/2+x,-y,z
4 1/2-x,y,1/2+z
_cell_length_a                   24.509(6)
_cell_length_b                   9.835(2)
_cell_length_c                   7.5626(19)
_cell_angle_alpha                90
_cell_angle_beta                 90
_cell_angle_gamma                90
_cell_volume                     1822.93
loop_
_atom_site_label
_atom_site_type_symbol
_atom_site_fract_x
_atom_site_fract_y
_atom_site_fract_z
La1 La 0.216079(18) -0.28565(4) 0.13688(10)
Br1 Br 0.09749(5) -0.28523(13) 0.19803(19)
Cl1 Cl 0.17567(11) -0.2922(3) -0.2161(4)
O1 O 0.2832(3) -1.1434(7) -0.0845(9)
O2 O 0.2208(3) -1.0342(7) 0.0595(11)
O3 O 0.2232(3) -0.5367(7) 0.0654(11)
O4 O 0.2848(3) -0.4207(7) -0.0837(9)
O5 O 0.4460(4) -0.6852(10) -0.2741(18)
O6 O 0.4415(3) -0.8944(10) -0.3072(16)
N1 N 0.4241(4) -0.7893(10) -0.2538(15)
C1 C 0.2930(4) -0.9101(11) -0.0665(14)
C2 C 0.2692(4) -0.7876(9) -0.0243(14)
H1 H 0.2351 -0.7873 0.0358
C3 C 0.2933(4) -0.6655(9) -0.0667(13)
C4 C 0.3447(5) -0.6654(10) -0.1400(14)
H2 H 0.3629 -0.5826 -0.1664
C5 C 0.3685(4) -0.7873(10) -0.1734(16)
C6 C 0.3427(4) -0.9112(11) -0.1444(14)
H3 H 0.3595 -0.9943 -0.1783
C7 C 0.2628(4) -1.0371(11) -0.0284(13)
C8 C 0.2654(4) -0.5336(9) -0.0282(13)
La1C La 0.283921(18) -0.28565(4) -0.36312(10)
La1C_2 La 0.283921(18) -1.28565(4) -0.36312(10)
La1_2 La 0.216079(18) -1.28565(4) 0.13688(10)
Cl1C Cl 0.32433(11) -0.2922(3) 0.2839(4)
O1C O 0.2168(3) -0.1434(7) 0.4155(9)
O1_2 O 0.2832(3) -0.1434(7) -0.0845(9)
O2_2 O 0.2208(3) -0.0342(7) 0.0595(11)
O4C O 0.2152(3) -0.4207(7) 0.4163(9)
N2 N 0.4204(4) 0.1161(12) -0.7116(18)
N3 N 0.4276(5) 0.3319(14) -0.7130(17)
C9 C 0.4535(6) 0.2169(16) -0.740(2)
H4 H 0.4906 0.2087 -0.7742
C10 C 0.3718(5) 0.1702(16) -0.661(2)
H5 H 0.3400 0.1201 -0.6298
C11 C 0.3760(6) 0.2992(16) -0.662(2)
H6 H 0.3480 0.3618 -0.6318
C12 C 0.4338(8) -0.031(2) -0.719(3)
H7 H 0.4713 -0.0438 -0.6730
H8 H 0.4086 -0.0801 -0.6389
C13 C 0.4498(7) 0.4682(18) -0.734(3)
H9 H 0.4351 0.5262 -0.6386
H10 H 0.4898 0.4634 -0.7185
H11 H 0.4408 0.5032 -0.8493
C14 C 0.4308(12) -0.082(3) -0.869(7)
H12 H 0.4403 -0.1786 -0.8627
H13 H 0.4562 -0.0352 -0.9486
H14 H 0.3935 -0.0722 -0.9141
C15? C 0.4403(11) 0.525(2) -0.877(5)
H15? H 0.4308 -0.0633 -0.8378
H16? H 0.4572 0.6148 -0.8781
H17? H 0.4008 0.5337 -0.8930
H18? H 0.4554 0.4697 -0.9737
loop_
_geom_bond_atom_site_label_1
_geom_bond_atom_site_label_2
_geom_bond_site_symmetry_1
_geom_bond_site_symmetry_2
La1 Br1 1_555 1_555
Cl1 La1 1_555 1_555
O1 C7 1_555 1_555
O2 C7 1_555 1_555
O3 La1 1_555 1_555
O4 La1 1_555 1_555
O5 N1 1_555 1_555
O6 N1 1_555 1_555
N1 C5 1_555 1_555
N2 C9 1_555 1_555
N3 C9 1_555 1_555
C1 C2 1_555 1_555
C2 H1 1_555 1_555
C3 C2 1_555 1_555
C4 C3 1_555 1_555
H2 C4 1_555 1_555
C5 C4 1_555 1_555
C6 C1 1_555 1_555
H3 C6 1_555 1_555
C7 C1 1_555 1_555
C8 O3 1_555 1_555
C9 H4 1_555 1_555
C10 N2 1_555 1_555
H5 C10 1_555 1_555
C11 N3 1_555 1_555
H6 C11 1_555 1_555
C12 N2 1_555 1_555
H7 C12 1_555 1_555
H8 C12 1_555 1_555
C13 N3 1_555 1_555
H9 C13 1_555 1_555
H10 C13 1_555 1_555
H11 C13 1_555 1_555
C14 C12 1_555 1_555
H12 C14 1_555 1_555
H13 C14 1_555 1_555
H14 C14 1_555 1_555
La1C Cl1 1_555 1_555
La1C_2 O1 1_555 1_555
La1_2 O1 1_555 1_555
Cl1C La1 1_555 1_555
O1C La1 1_555 1_555
O1_2 La1 1_555 1_555
O2_2 La1 1_555 1_555
O4C La1 1_555 1_555
O2 La1_2 1_555 1_555
O4 C8 1_555 1_555
O4 La1C 1_555 1_555
C3 C8 1_555 1_555
C5 C6 1_555 1_555
C10 C11 1_555 1_555
La1C O1_2 1_555 1_555

#END
