
#######################################################################
#
#                 Cambridge Crystallographic Data Centre
#                                CCDC 
#
#######################################################################
#
# If this CIF has been generated from an entry in the Cambridge 
# Structural Database, then it will include bibliographic, chemical, 
# crystal, experimental, refinement or atomic coordinate data resulting 
# from the CCDC's data processing and validation procedures.
#
#######################################################################

data_NUCRIN01
_symmetry_cell_setting           rhombohedral
_symmetry_space_group_name_H-M   'R -3 c'
_symmetry_Int_Tables_number      167
_space_group_name_Hall           '-R 3 2"c'
loop_
_symmetry_equiv_pos_site_id
_symmetry_equiv_pos_as_xyz
1 x,y,z
2 -y,x-y,z
3 -x+y,-x,z
4 y,x,1/2-z
5 x-y,-y,1/2-z
6 -x,-x+y,1/2-z
7 2/3+x,1/3+y,1/3+z
8 2/3-y,1/3+x-y,1/3+z
9 2/3-x+y,1/3-x,1/3+z
10 2/3+y,1/3+x,5/6-z
11 2/3+x-y,1/3-y,5/6-z
12 2/3-x,1/3-x+y,5/6-z
13 1/3+x,2/3+y,2/3+z
14 1/3-y,2/3+x-y,2/3+z
15 1/3-x+y,2/3-x,2/3+z
16 1/3+y,2/3+x,1/6-z
17 1/3+x-y,2/3-y,1/6-z
18 1/3-x,2/3-x+y,1/6-z
19 -x,-y,-z
20 y,-x+y,-z
21 x-y,x,-z
22 -y,-x,1/2+z
23 -x+y,y,1/2+z
24 x,x-y,1/2+z
25 1/3-x,2/3-y,2/3-z
26 1/3+y,2/3-x+y,2/3-z
27 1/3+x-y,2/3+x,2/3-z
28 1/3-y,2/3-x,1/6+z
29 1/3-x+y,2/3+y,1/6+z
30 1/3+x,2/3+x-y,1/6+z
31 2/3-x,1/3-y,1/3-z
32 2/3+y,1/3-x+y,1/3-z
33 2/3+x-y,1/3+x,1/3-z
34 2/3-y,1/3-x,5/6+z
35 2/3-x+y,1/3+y,5/6+z
36 2/3+x,1/3+x-y,5/6+z
_cell_length_a                   26.140(3)
_cell_length_b                   26.140(3)
_cell_length_c                   13.469(4)
_cell_angle_alpha                90
_cell_angle_beta                 90
_cell_angle_gamma                120
_cell_volume                     7970.35
loop_
_atom_site_label
_atom_site_type_symbol
_atom_site_fract_x
_atom_site_fract_y
_atom_site_fract_z
Zn1 Zn 0.0000 -0.17960(3) 0.7500
Zn2 Zn 0.3333 0.16480(3) 0.9167
O1 O 0.3333 0.24231(14) 0.9167
O2 O 0.15746(11) 0.10646(11) 0.8213(2)
O3 O 0.25039(11) 0.12918(12) 0.8469(2)
N1 N 0.04500(13) -0.19441(14) 0.8553(3)
N2 N 0.03054(14) -0.24931(14) 0.8841(3)
N3 N 0.06862(14) -0.24621(14) 0.9507(3)
N4 N 0.10906(13) -0.18862(13) 0.9652(3)
C1 C 0.17186(16) 0.02910(16) 0.8724(3)
C2 C 0.20738(16) 0.00362(17) 0.8756(3)
H1 H 0.2481 0.0272 0.8682
C3 C 0.18269(17) -0.05693(16) 0.8898(3)
H2 H 0.2068 -0.0737 0.8917
C4 C 0.12199(16) -0.09228(16) 0.9010(3)
C5 C 0.08641(15) -0.06660(16) 0.9007(3)
H3 H 0.0459 -0.0899 0.9106
C6 C 0.11099(16) -0.00703(17) 0.8859(3)
H4 H 0.0868 0.0096 0.8847
C7 C 0.19598(16) 0.09306(18) 0.8466(3)
C8 C 0.09351(16) -0.15734(17) 0.9075(3)
Zn1A Zn 0.17960(3) 0.17960(3) 0.7500
Zn1B Zn -0.17960(3) 0.0000 0.7500
Zn2S Zn 0.16480(3) -0.16850(3) 1.0833
Zn2B Zn -0.16850(3) -0.3333 0.9167
Zn2R Zn -0.3333 -0.16480(3) 1.0833
O2B O -0.05100(16) -0.15746(11) 0.8213(2)
O2D O 0.05100(16) -0.10646(11) 0.6787(2)
O3B O -0.12121(16) -0.25039(11) 0.8469(2)
O3K O 0.41628(11) 0.21212(16) 0.9864(2)
N1B N -0.23941(19) -0.04500(13) 0.8553(3)
N1E N -0.04500(13) -0.23941(19) 0.6447(3)
N2B N -0.27985(20) -0.03054(14) 0.8841(3)
N3B N -0.31483(20) -0.06862(14) 0.9507(3)
N4B N -0.29768(18) -0.10906(13) 0.9652(3)
N4T N 0.29768(18) 0.10906(13) 1.0348(3)
N4HA N 0.36899(18) 0.14471(13) 0.7985(3)
C1B C -0.14276(23) -0.17186(16) 0.8724(3)
C2B C -0.20376(23) -0.20738(16) 0.8756(3)
H1B H -0.2209 -0.2481 0.8682
C3B C -0.23962(23) -0.18269(17) 0.8898(3)
H2B H -0.2805 -0.2068 0.8917
C4B C -0.21427(23) -0.12199(16) 0.9010(3)
C5B C -0.15301(22) -0.08641(15) 0.9007(3)
H3B H -0.1358 -0.0459 0.9106
C6B C -0.11802(23) -0.11099(16) 0.8859(3)
H4B H -0.0772 -0.0868 0.8847
C7B C -0.10292(24) -0.19598(16) 0.8466(3)
C8B C -0.25085(23) -0.09351(16) 0.9075(3)
loop_
_geom_bond_atom_site_label_1
_geom_bond_atom_site_label_2
_geom_bond_site_symmetry_1
_geom_bond_site_symmetry_2
Zn1 N1 1_555 1_555
Zn2 O1 1_555 1_555
O2 C7 1_555 1_555
O3 Zn2 1_555 1_555
N1 N2 1_555 1_555
N2 N3 1_555 1_555
N3 N4 1_555 1_555
N4 C8 1_555 1_555
C1 C2 1_555 1_555
C2 H1 1_555 1_555
C3 C2 1_555 1_555
H2 C3 1_555 1_555
C4 C3 1_555 1_555
C5 C4 1_555 1_555
H3 C5 1_555 1_555
C6 C1 1_555 1_555
H4 C6 1_555 1_555
C7 O3 1_555 1_555
C8 N1 1_555 1_555
Zn1A O2 1_555 1_555
Zn1B N1B 1_555 1_555
Zn2S N4 1_555 1_555
Zn2B O3B 1_555 1_555
Zn2R N4B 1_555 1_555
O2B Zn1 1_555 1_555
O2D Zn1 1_555 1_555
O3B C7B 1_555 1_555
O3K Zn2 1_555 1_555
N1B N2B 1_555 1_555
N1E Zn1 1_555 1_555
N2B N3B 1_555 1_555
N3B N4B 1_555 1_555
N4B C8B 1_555 1_555
N4T Zn2 1_555 1_555
N4HA Zn2 1_555 1_555
C1B C2B 1_555 1_555
C2B H1B 1_555 1_555
C3B C2B 1_555 1_555
H2B C3B 1_555 1_555
C4B C3B 1_555 1_555
C5B C4B 1_555 1_555
H3B C5B 1_555 1_555
C6B C1B 1_555 1_555
H4B C6B 1_555 1_555
C7B O2B 1_555 1_555
C8B N1B 1_555 1_555
C1 C7 1_555 1_555
C4 C8 1_555 1_555
C5 C6 1_555 1_555
C1B C7B 1_555 1_555
C4B C8B 1_555 1_555
C5B C6B 1_555 1_555

#END
