
#######################################################################
#
#                 Cambridge Crystallographic Data Centre
#                                CCDC 
#
#######################################################################
#
# If this CIF has been generated from an entry in the Cambridge 
# Structural Database, then it will include bibliographic, chemical, 
# crystal, experimental, refinement or atomic coordinate data resulting 
# from the CCDC's data processing and validation procedures.
#
#######################################################################

data_NUCSUA
_symmetry_cell_setting           triclinic
_symmetry_space_group_name_H-M   'P 1'
_symmetry_Int_Tables_number      1
_space_group_name_Hall           'P 1'
loop_
_symmetry_equiv_pos_site_id
_symmetry_equiv_pos_as_xyz
1 x,y,z
_cell_length_a                   11.651(4)
_cell_length_b                   11.865(4)
_cell_length_c                   12.296(4)
_cell_angle_alpha                77.984(4)
_cell_angle_beta                 65.559(4)
_cell_angle_gamma                74.558(5)
_cell_volume                     1482.27
loop_
_atom_site_label
_atom_site_type_symbol
_atom_site_fract_x
_atom_site_fract_y
_atom_site_fract_z
Gd1 Gd 0.19473(3) 0.61747(3) 0.95830(3)
Gd2 Gd 1.52045(3) 0.09614(3) 0.12247(3)
O1 O 0.3515(14) 0.7005(13) 0.7774(13)
O2 O 0.4022(16) 0.5226(14) 0.8353(15)
O3 O 1.3739(16) 0.0043(13) 0.3034(15)
O4 O 1.3045(11) 0.2000(10) 0.2472(9)
O5 O 0.2675(15) 0.5013(12) 1.1124(12)
O6 O 0.3167(15) 0.6754(14) 1.0540(13)
C1 C 0.313(2) 0.5762(16) 1.1224(16)
N1 N 0.1409(16) 0.5867(15) 0.7820(14)
C2 C 1.1643(19) 0.1042(16) 0.4222(18)
C3 C 0.554(2) 0.6017(18) 0.6516(19)
O7 O 0.0205(18) 0.6429(17) 1.1502(15)
O8 O 1.5890(15) -0.1132(12) 0.1335(14)
C4 C 0.350(2) 0.5727(17) 1.2235(18)
O9 O 0.4844(16) 0.8098(13) 0.5857(16)
H1 H 0.4218 0.7996 0.6474
O10 O 1.2268(14) -0.0918(13) 0.5033(12)
H2 H 1.2902 -0.0872 0.4409
N2 N 1.5906(14) 0.2899(12) 0.0888(14)
N3 N 1.5762(18) 0.1321(15) 0.2831(15)
O11 O 0.4114(16) 0.7609(15) 1.1691(16)
H3 H 0.3873 0.7590 1.1157
N4 N 0.1318(16) 0.4238(14) 0.9867(14)
C5 C 1.289(2) 0.0957(18) 0.3167(18)
O12 O -0.0458(15) 0.6658(14) 1.0026(15)
C6 C 0.4329(18) 0.5998(17) 0.7558(19)
N5 N -0.0810(11) 0.6816(12) 1.1148(13)
C7 C 0.3346(18) 0.4706(13) 1.3205(15)
H4 H 0.2942 0.4148 1.3160
C8 C 0.083(2) 0.4123(17) 0.9048(19)
C9 C 1.6402(19) 0.3157(17) 0.1613(19)
N6 N 0.8467(13) 0.3109(12) 0.5716(14)
N7 N 0.8780(16) 0.3960(18) 0.5050(13)
C10 C 0.5803(19) 0.7071(14) 0.5717(18)
C11 C 0.372(2) 0.4519(19) 1.411(2)
N8 N 0.3449(16) 0.3599(15) 1.4934(12)
C12 C 0.394(2) 0.6639(17) 1.2476(19)
C13 C 0.758(2) 0.497(2) 0.548(2)
C14 C 1.144(2) 0.011(2) 0.513(2)
C15 C 1.071(2) 0.2153(17) 0.4336(19)
H5 H 1.0829 0.2817 0.3778
C16 C 0.9499(15) 0.2092(17) 0.5488(15)
C17 C 0.6493(19) 0.5062(16) 0.6291(17)
H6 H 0.6319 0.4383 0.6812
C18 C 1.6325(17) 0.2283(15) 0.2760(15)
C19 C 0.422(2) 0.541(2) 1.4227(17)
H7 H 0.4468 0.5314 1.4878
N9 N 0.368(2) 0.3572(16) 1.5840(16)
C20 C 0.0827(15) 0.2440(15) 1.1061(13)
H8 H 0.0873 0.1885 1.1706
C21 C 0.032(2) 0.2209(17) 1.029(3)
H9 H 0.0045 0.1509 1.0410
C22 C 1.5658(16) 0.0587(18) 0.3896(15)
H10 H 1.5268 -0.0052 0.4061
C23 C 1.677(3) 0.158(3) 0.449(2)
H11 H 1.7176 0.1639 0.4977
C24 C 1.022(2) 0.017(2) 0.6241(18)
H12 H 1.0134 -0.0449 0.6860
C25 C 1.586(2) 0.3730(19) 0.005(2)
H13 H 1.5405 0.3686 -0.0399
C26 C 0.125(2) 0.3457(18) 1.0892(18)
H14 H 0.1500 0.3623 1.1462
C27 C 0.6870(19) 0.7059(18) 0.4852(16)
H15 H 0.7071 0.7738 0.4342
C28 C 0.438(2) 0.643(2) 1.3452(18)
H16 H 0.4766 0.6970 1.3553
C29 C 1.684(3) 0.233(2) 0.352(3)
C30 C 1.646(2) 0.4738(18) -0.025(2)
H17 H 1.6490 0.5264 -0.0933
C31 C 1.685(2) 0.4112(18) 0.150(2)
C32 C 1.695(3) 0.487(2) 0.048(2)
H18 H 1.7370 0.5492 0.0314
C33 C 1.727(3) 0.344(3) 0.336(3)
H19 H 1.7467 0.3586 0.3970
C34 C 1.739(3) 0.427(3) 0.236(3)
H20 H 1.7781 0.4896 0.2239
C35 C 0.772(2) 0.600(2) 0.469(2)
H21 H 0.8468 0.5972 0.3999
C36 C 0.9236(14) 0.1128(9) 0.6336(14)
H22 H 0.8426 0.1133 0.6944
C37 C 0.351(2) 0.2432(18) 1.6668(19)
C38 C 0.3828(19) 0.2361(18) 1.7725(17)
H23 H 0.4099 0.2970 1.7860
C39 C 0.294(2) 0.1588(18) 1.658(2)
H24 H 0.2663 0.1659 1.5959
C40 C 0.371(2) 0.1417(18) 1.8444(18)
C41 C 0.281(2) 0.0639(17) 1.7450(17)
H25 H 0.2507 0.0016 1.7377
C42 C 0.416(2) 0.1214(19) 1.9466(19)
C43 C 0.311(2) 0.060(2) 1.8410(18)
O13 O 0.4598(18) 0.2033(14) 1.9620(15)
O14 O 0.4018(17) 0.0323(13) 2.0261(14)
C44 C 0.098(3) 0.654(2) 0.612(2)
H26 H 0.0975 0.7139 0.5503
C45 C 1.613(2) 0.076(2) 0.4763(18)
H27 H 1.5965 0.0296 0.5498
O15 O -0.1792(17) 0.714(2) 1.1740(16)
O16 O 0.1204(16) 0.8273(13) 0.9530(17)
C46 C 0.086(2) 0.494(2) 0.812(2)
O17 O 0.2952(19) -0.0390(15) 1.9226(15)
H28 H 0.3245 -0.0378 1.9725
C47 C 0.0239(19) 0.3065(19) 0.9316(19)
C48 C 0.051(2) 0.5512(19) 0.620(2)
H29 H 0.0278 0.5411 0.5590
C49 C 0.039(3) 0.461(2) 0.726(2)
C50 C 0.145(2) 0.664(2) 0.6943(19)
H30 H 0.1801 0.7286 0.6851
C51 C -0.023(3) 0.295(2) 0.852(3)
H31 H -0.0564 0.2286 0.8649
C52 C -0.025(3) 0.370(2) 0.757(3)
H32 H -0.0696 0.3614 0.7127
O19 O 1.7608(18) 0.0333(15) 0.0734(16)
O21 O 1.7151(17) 0.0612(17) -0.0802(13)
N10 N 1.787(2) 0.036(2) -0.032(2)
O22 O 1.9164(18) -0.0068(17) -0.1003(17)
H45 H 0.182(7) 0.869(6) 0.938(7)
H46 H 1.682(9) -0.156(7) 0.113(8)
H47 H 0.126(12) 0.861(9) 0.993(10)
H48 H 1.583(8) -0.098(6) 0.186(6)
Gd2_2 Gd 0.52045(3) 0.09614(3) 2.12247(3)
O13_2 O 1.4598(18) 0.2033(14) -0.0380(15)
O14_2 O 1.4018(17) 0.0323(13) 0.0261(14)
C53 C -0.023(3) 0.918(3) 1.326(3)
H33 H -0.0967 0.9405 1.3030
H34 H -0.0389 0.9649 1.3889
C55 C -0.005(4) 0.786(4) 1.374(3)
H38 H -0.0848 0.7691 1.4339
H39 H 0.0588 0.7670 1.4099
H40 H 0.0239 0.7394 1.3093
O20 O 0.090(4) 0.939(3) 1.225(3)
H41 H 0.0814 1.0099 1.2022
O18 O -0.2488(9) 0.7704(8) 0.9404(11)
H35 H -0.1779 0.7394 0.9425
C54 C -0.240(2) 0.7892(18) 0.8229(15)
H36 H -0.2003 0.7148 0.7892
H37 H -0.1814 0.8425 0.7788
C56 C -0.3575(18) 0.8362(18) 0.799(2)
H42 H -0.3367 0.8455 0.7141
H43 H -0.3975 0.9111 0.8296
H44 H -0.4155 0.7828 0.8382
loop_
_geom_bond_atom_site_label_1
_geom_bond_atom_site_label_2
_geom_bond_site_symmetry_1
_geom_bond_site_symmetry_2
Gd1 O1 1_555 1_555
Gd2 O3 1_555 1_555
O1 C6 1_555 1_555
O2 Gd1 1_555 1_555
O3 C5 1_555 1_555
O4 Gd2 1_555 1_555
O5 Gd1 1_555 1_555
O6 Gd1 1_555 1_555
C1 O5 1_555 1_555
N1 Gd1 1_555 1_555
C2 C5 1_555 1_555
C3 C6 1_555 1_555
O7 Gd1 1_555 1_555
O8 Gd2 1_555 1_555
C4 C1 1_555 1_555
O9 H1 1_555 1_555
O10 H2 1_555 1_555
N2 Gd2 1_555 1_555
N3 Gd2 1_555 1_555
O11 H3 1_555 1_555
N4 Gd1 1_555 1_555
C5 O4 1_555 1_555
O12 Gd1 1_555 1_555
C6 O2 1_555 1_555
N5 O7 1_555 1_555
C7 C4 1_555 1_555
H4 C7 1_555 1_555
C8 N4 1_555 1_555
C9 N2 1_555 1_555
N6 N7 1_555 1_555
N7 C13 1_555 1_555
C10 C3 1_555 1_555
C11 C7 1_555 1_555
N8 C11 1_555 1_555
C12 C4 1_555 1_555
C13 C17 1_555 1_555
C14 C2 1_555 1_555
C15 C2 1_555 1_555
H5 C15 1_555 1_555
C16 N6 1_555 1_555
C17 C3 1_555 1_555
H6 C17 1_555 1_555
C18 N3 1_555 1_555
C19 C11 1_555 1_555
H7 C19 1_555 1_555
N9 N8 1_555 1_555
C20 H8 1_555 1_555
C21 C20 1_555 1_555
H9 C21 1_555 1_555
C22 N3 1_555 1_555
H10 C22 1_555 1_555
C23 H11 1_555 1_555
C24 C14 1_555 1_555
H12 C24 1_555 1_555
C25 N2 1_555 1_555
H13 C25 1_555 1_555
C26 N4 1_555 1_555
H14 C26 1_555 1_555
C27 C10 1_555 1_555
H15 C27 1_555 1_555
C28 C12 1_555 1_555
H16 C28 1_555 1_555
C29 C18 1_555 1_555
C30 C25 1_555 1_555
H17 C30 1_555 1_555
C31 C9 1_555 1_555
C32 C30 1_555 1_555
H18 C32 1_555 1_555
C33 C29 1_555 1_555
H19 C33 1_555 1_555
C34 C31 1_555 1_555
H20 C34 1_555 1_555
C35 C13 1_555 1_555
H21 C35 1_555 1_555
C36 C16 1_555 1_555
H22 C36 1_555 1_555
C37 N9 1_555 1_555
C38 C37 1_555 1_555
H23 C38 1_555 1_555
C39 C37 1_555 1_555
H24 C39 1_555 1_555
C40 C38 1_555 1_555
C41 C39 1_555 1_555
H25 C41 1_555 1_555
C42 C40 1_555 1_555
C43 C40 1_555 1_555
O13 C42 1_555 1_555
O14 C42 1_555 1_555
C44 H26 1_555 1_555
C45 C22 1_555 1_555
H27 C45 1_555 1_555
O15 N5 1_555 1_555
O16 Gd1 1_555 1_555
C46 N1 1_555 1_555
O17 C43 1_555 1_555
H28 O17 1_555 1_555
C47 C8 1_555 1_555
C48 C44 1_555 1_555
H29 C48 1_555 1_555
C49 C46 1_555 1_555
C50 N1 1_555 1_555
H30 C50 1_555 1_555
C51 C47 1_555 1_555
H31 C51 1_555 1_555
C52 C49 1_555 1_555
H32 C52 1_555 1_555
C53 H33 1_555 1_555
H34 C53 1_555 1_555
O18 H35 1_555 1_555
C54 O18 1_555 1_555
H36 C54 1_555 1_555
H37 C54 1_555 1_555
C55 C53 1_555 1_555
H38 C55 1_555 1_555
H39 C55 1_555 1_555
H40 C55 1_555 1_555
O19 Gd2 1_555 1_555
O20 C53 1_555 1_555
H41 O20 1_555 1_555
O21 Gd2 1_555 1_555
N10 O19 1_555 1_555
O22 N10 1_555 1_555
C56 C54 1_555 1_555
H42 C56 1_555 1_555
H43 C56 1_555 1_555
H44 C56 1_555 1_555
H45 O16 1_555 1_555
H46 O8 1_555 1_555
H47 O16 1_555 1_555
H48 O8 1_555 1_555
Gd2_2 O13 1_555 1_555
O13_2 Gd2 1_555 1_555
O14_2 Gd2 1_555 1_555
O6 C1 1_555 1_555
O9 C10 1_555 1_555
O10 C14 1_555 1_555
O11 C12 1_555 1_555
O12 N5 1_555 1_555
C8 C46 1_555 1_555
C9 C18 1_555 1_555
C15 C16 1_555 1_555
C19 C28 1_555 1_555
C20 C26 1_555 1_555
C21 C47 1_555 1_555
C23 C29 1_555 1_555
C23 C45 1_555 1_555
C24 C36 1_555 1_555
C27 C35 1_555 1_555
C31 C32 1_555 1_555
C33 C34 1_555 1_555
C41 C43 1_555 1_555
O14 Gd2_2 1_555 1_555
C44 C50 1_555 1_555
C48 C49 1_555 1_555
C51 C52 1_555 1_555
O21 N10 1_555 1_555

#END
