
#######################################################################
#
#                 Cambridge Crystallographic Data Centre
#                                CCDC 
#
#######################################################################
#
# If this CIF has been generated from an entry in the Cambridge 
# Structural Database, then it will include bibliographic, chemical, 
# crystal, experimental, refinement or atomic coordinate data resulting 
# from the CCDC's data processing and validation procedures.
#
#######################################################################

data_NUCSAG
_symmetry_cell_setting           orthorhombic
_symmetry_space_group_name_H-M   'P 21 21 21'
_symmetry_Int_Tables_number      19
_space_group_name_Hall           'P 2ac 2ab'
loop_
_symmetry_equiv_pos_site_id
_symmetry_equiv_pos_as_xyz
1 x,y,z
2 1/2-x,-y,1/2+z
3 -x,1/2+y,1/2-z
4 1/2+x,1/2-y,-z
_cell_length_a                   4.535(3)
_cell_length_b                   10.913(7)
_cell_length_c                   17.142(10)
_cell_angle_alpha                90
_cell_angle_beta                 90
_cell_angle_gamma                90
_cell_volume                     848.365
loop_
_atom_site_label
_atom_site_type_symbol
_atom_site_fract_x
_atom_site_fract_y
_atom_site_fract_z
Cu1 Cu 0.99074(18) 0.63055(7) 0.53754(4)
Cu2 Cu 1.0397(2) 0.69578(7) 0.17621(5)
N1 N 0.9903(13) 0.6987(4) 0.2985(3)
N2 N 0.9573(12) 0.6774(5) 0.4260(3)
N3 N 0.7932(12) 0.7788(5) 0.3259(3)
N4 N 0.7726(13) 0.7672(5) 0.4012(4)
N5 N 0.7835(17) 0.4987(6) 0.5867(4)
N6 N 1.6911(14) 0.3376(6) 0.3409(3)
C1 C 1.4482(16) 0.5135(6) 0.2864(3)
H1 H 1.42(2) 0.563(8) 0.229(6)
C2 C 1.5534(19) 0.3606(6) 0.4083(4)
H2 H 1.5915 0.3094 0.4505
C3 C 1.3593(18) 0.4553(7) 0.4186(4)
H3 H 1.23(2) 0.438(9) 0.471(6)
C4 C 1.2997(15) 0.5348(6) 0.3556(4)
C5 C 1.6399(18) 0.4162(6) 0.2807(5)
H4 H 1.76(2) 0.396(9) 0.241(6)
C6 C 1.0889(15) 0.6350(6) 0.3610(4)
C7 C 0.6592(18) 0.4217(6) 0.6170(4)
Cu1C Cu 0.49074(18) 0.86945(7) 0.46246(4)
Cu2B Cu 1.9603(2) 0.19578(7) 0.32379(5)
Cu2A Cu 0.4603(2) 0.30422(7) 0.67621(5)
N4C N 1.2726(13) 0.7328(5) 0.5988(4)
N6B N 1.3089(14) 0.8376(6) 0.1591(3)
C7A C 0.8408(18) 0.5783(6) 0.1170(4)
loop_
_geom_bond_atom_site_label_1
_geom_bond_atom_site_label_2
_geom_bond_site_symmetry_1
_geom_bond_site_symmetry_2
Cu1 N2 1_555 1_555
Cu2 N1 1_555 1_555
N1 N3 1_555 1_555
N2 N4 1_555 1_555
N3 N4 1_555 1_555
N4 Cu1C 1_555 1_555
N5 Cu1 1_555 1_555
N6 C2 1_555 1_555
C1 H1 1_555 1_555
C2 H2 1_555 1_555
C3 C2 1_555 1_555
H3 C3 1_555 1_555
C4 C1 1_555 1_555
C5 N6 1_555 1_555
H4 C5 1_555 1_555
C6 N1 1_555 1_555
C7 N5 1_555 1_555
Cu2B N6 1_555 1_555
Cu2A C7 1_555 1_555
N4C Cu1 1_555 1_555
N6B Cu2 1_555 1_555
C7A Cu2 1_555 1_555
N2 C6 1_555 1_555
C1 C5 1_555 1_555
C3 C4 1_555 1_555
C4 C6 1_555 1_555

#END
