
#######################################################################
#
#                 Cambridge Crystallographic Data Centre
#                                CCDC 
#
#######################################################################
#
# If this CIF has been generated from an entry in the Cambridge 
# Structural Database, then it will include bibliographic, chemical, 
# crystal, experimental, refinement or atomic coordinate data resulting 
# from the CCDC's data processing and validation procedures.
#
#######################################################################

data_NUCSOU
_symmetry_cell_setting           triclinic
_symmetry_space_group_name_H-M   'P -1'
_symmetry_Int_Tables_number      2
_space_group_name_Hall           '-P 1'
loop_
_symmetry_equiv_pos_site_id
_symmetry_equiv_pos_as_xyz
1 x,y,z
2 -x,-y,-z
_cell_length_a                   8.440(7)
_cell_length_b                   9.794(8)
_cell_length_c                   12.998(11)
_cell_angle_alpha                92.785(9)
_cell_angle_beta                 108.818(11)
_cell_angle_gamma                91.918(11)
_cell_volume                     1014.43
loop_
_atom_site_label
_atom_site_type_symbol
_atom_site_fract_x
_atom_site_fract_y
_atom_site_fract_z
Zn1 Zn -0.24299(6) 0.38464(5) 0.21558(4)
Zn2 Zn -0.19566(6) -0.26436(5) 0.90416(4)
N1 N -0.2287(5) 0.2671(4) 0.3447(3)
N2 N -0.2107(5) -0.1457(4) 0.7783(3)
C1 C -0.4929(7) 0.7554(5) 0.2276(4)
H1 H -0.4940 0.7932 0.2986
C2 C -0.6665(6) 0.6871(4) 0.1630(3)
H2 H -0.7504 0.7454 0.1771
C3 C -0.6821(5) 0.6977(4) 0.0438(3)
H3 H -0.6400 0.6152 0.0181
C4 C -0.5645(6) 0.8251(4) 0.0415(4)
H4 H -0.6367 0.8990 0.0100
C5 C -0.4680(7) 0.8707(6) 0.1592(4)
H5 H -0.5107 0.9546 0.1802
H6 H -0.3500 0.8868 0.1688
C6 C -0.3411(7) 0.6627(5) 0.2434(5)
C7 C -0.7059(6) 0.5421(5) 0.1902(4)
C8 C -0.8567(6) 0.7163(4) -0.0295(4)
C9 C -0.4614(6) 0.7920(4) -0.0326(4)
C10 C -0.2175(6) 0.1316(5) 0.3337(4)
H7 H -0.2138 0.0939 0.2675
C11 C -0.2110(7) 0.0450(5) 0.4150(4)
H8 H -0.2031 -0.0486 0.4037
C12 C -0.2166(6) 0.1007(5) 0.5155(4)
C13 C -0.2123(6) 0.0137(5) 0.6062(4)
C14 C -0.3007(8) -0.1126(5) 0.5878(4)
H9 H -0.3609 -0.1461 0.5173
C15 C -0.2978(7) -0.1867(6) 0.6751(4)
H10 H -0.3595 -0.2699 0.6619
C16 C -0.1214(6) -0.0260(5) 0.7956(4)
H11 H -0.0580 0.0030 0.8667
C17 C -0.1196(6) 0.0556(5) 0.7130(4)
H12 H -0.0568 0.1383 0.7284
C18 C -0.2265(7) 0.2422(5) 0.5268(4)
H13 H -0.2297 0.2835 0.5920
C19 C -0.2317(7) 0.3208(5) 0.4401(4)
H14 H -0.2376 0.4151 0.4490
O1 O -0.3724(4) 0.5463(3) 0.1940(3)
O2 O -0.0163(4) 0.4934(4) 0.3187(3)
H15 H -0.0357 0.5734 0.3295
H16 H 0.0651 0.4975 0.2964
O4 O -0.1989(6) 0.7082(4) 0.3018(5)
O5 O -0.6940(6) 0.5204(4) 0.2848(3)
O6 O -0.7638(4) 0.4581(3) 0.1085(3)
O7 O -0.9628(4) 0.7637(3) 0.0095(3)
O8 O -0.8942(4) 0.6884(4) -0.1314(3)
O9 O -0.5327(4) 0.7376(4) -0.1256(3)
O10 O -0.3057(4) 0.8236(3) 0.0015(3)
Zn1A Zn -0.75701(6) 0.61536(5) -0.21558(4)
Zn2_2 Zn -0.19566(6) 0.73564(5) -0.09584(4)
Zn2A Zn -0.80434(6) 0.26436(5) 0.09584(4)
Zn2_3 Zn -1.19566(6) 0.73564(5) -0.09584(4)
O6A O -0.2362(4) -0.4581(3) 0.8915(3)
O7_2 O 0.0372(4) -0.2363(3) 1.0095(3)
O8A O -0.1058(4) 0.3116(4) 0.1314(3)
O9A O -0.4673(4) 0.2624(4) 0.1256(3)
O10_2 O -0.3057(4) -0.1764(3) 1.0015(3)
O3 O -0.5558(15) 0.4196(13) 0.5174(10)
H17 H -0.5929 0.4479 0.4537
H18 H -0.4786 0.4387 0.5778
loop_
_geom_bond_atom_site_label_1
_geom_bond_atom_site_label_2
_geom_bond_site_symmetry_1
_geom_bond_site_symmetry_2
Zn1 N1 1_555 1_555
Zn2 N2 1_555 1_555
N1 C10 1_555 1_555
N2 C15 1_555 1_555
C1 H1 1_555 1_555
C2 C1 1_555 1_555
H2 C2 1_555 1_555
C3 C2 1_555 1_555
H3 C3 1_555 1_555
C4 C3 1_555 1_555
H4 C4 1_555 1_555
C5 C1 1_555 1_555
H5 C5 1_555 1_555
H6 C5 1_555 1_555
C6 C1 1_555 1_555
C7 C2 1_555 1_555
C8 C3 1_555 1_555
C9 C4 1_555 1_555
C10 H7 1_555 1_555
C11 C10 1_555 1_555
H8 C11 1_555 1_555
C12 C11 1_555 1_555
C13 C12 1_555 1_555
C14 C13 1_555 1_555
H9 C14 1_555 1_555
C15 C14 1_555 1_555
H10 C15 1_555 1_555
C16 N2 1_555 1_555
H11 C16 1_555 1_555
C17 C13 1_555 1_555
H12 C17 1_555 1_555
C18 C12 1_555 1_555
H13 C18 1_555 1_555
C19 N1 1_555 1_555
H14 C19 1_555 1_555
O1 Zn1 1_555 1_555
O2 Zn1 1_555 1_555
H15 O2 1_555 1_555
H16 O2 1_555 1_555
O3 H17 1_555 1_555
H18 O3 1_555 1_555
O4 C6 1_555 1_555
O5 C7 1_555 1_555
O6 C7 1_555 1_555
O7 C8 1_555 1_555
O8 C8 1_555 1_555
O9 C9 1_555 1_555
O10 C9 1_555 1_555
Zn1A O8 1_555 1_555
Zn2_2 O10 1_555 1_555
Zn2A O6 1_555 1_555
Zn2_3 O7 1_555 1_555
O6A Zn2 1_555 1_555
O7_2 Zn2 1_555 1_555
O8A Zn1 1_555 1_555
O9A Zn1 1_555 1_555
O10_2 Zn2 1_555 1_555
C4 C5 1_555 1_555
C6 O1 1_555 1_555
C16 C17 1_555 1_555
C18 C19 1_555 1_555
O9 Zn1A 1_555 1_555

#END
