
#######################################################################
#
#                 Cambridge Crystallographic Data Centre
#                                CCDC 
#
#######################################################################
#
# If this CIF has been generated from an entry in the Cambridge 
# Structural Database, then it will include bibliographic, chemical, 
# crystal, experimental, refinement or atomic coordinate data resulting 
# from the CCDC's data processing and validation procedures.
#
#######################################################################

data_NUCWIT
_symmetry_cell_setting           monoclinic
_symmetry_space_group_name_H-M   'P 21/c'
_symmetry_Int_Tables_number      14
_space_group_name_Hall           '-P 2ybc'
loop_
_symmetry_equiv_pos_site_id
_symmetry_equiv_pos_as_xyz
1 x,y,z
2 -x,1/2+y,1/2-z
3 -x,-y,-z
4 x,1/2-y,1/2+z
_cell_length_a                   14.595(4)
_cell_length_b                   9.877(3)
_cell_length_c                   14.236(4)
_cell_angle_alpha                90
_cell_angle_beta                 115.062(5)
_cell_angle_gamma                90
_cell_volume                     1858.97
loop_
_atom_site_label
_atom_site_type_symbol
_atom_site_fract_x
_atom_site_fract_y
_atom_site_fract_z
Sn1 Sn 0.44775(4) 0.81305(5) 0.25106(4)
O1 O 0.3430(4) 0.6531(5) 0.2512(4)
O2 O 0.4526(4) 0.4980(5) 0.2530(4)
C1 C 0.3701(6) 0.5298(8) 0.2524(6)
C2 C 0.2995(6) 0.4234(7) 0.2578(6)
H1 H 0.3212 0.3955 0.3310
H2 H 0.3032 0.3429 0.2181
C3 C 0.1914(6) 0.4731(8) 0.2148(6)
H3 H 0.1862 0.5491 0.2577
H4 H 0.1468 0.3992 0.2176
C4 C 0.1568(6) 0.5201(8) 0.1035(6)
O3 O 0.1896(5) 0.4658(6) 0.0477(4)
N1 N 0.0895(5) 0.6228(7) 0.0734(5)
H5 H 0.070(6) 0.651(8) 0.122(6)
C5 C 0.0498(5) 0.6912(8) -0.0220(6)
C6 C 0.0773(6) 0.6670(9) -0.1029(6)
H6 H 0.1263 0.5998 -0.0960
C7 C 0.0330(6) 0.7413(9) -0.1934(6)
H7 H 0.0533 0.7256 -0.2477
C8 C -0.0387(6) 0.8358(9) -0.2066(7)
H8 H -0.0699 0.8827 -0.2707
C9 C -0.0667(7) 0.8645(9) -0.1265(6)
H9 H -0.1144 0.9338 -0.1339
C10 C -0.0233(6) 0.7893(8) -0.0353(6)
O4 O -0.0446(4) 0.8090(6) 0.0488(4)
C11 C -0.1333(6) 0.8820(9) 0.0347(7)
H10 H -0.1286 0.9745 0.0122
H11 H -0.1401 0.8849 0.1003
H12 H -0.1926 0.8371 -0.0182
C12 C 0.5651(6) 0.7481(8) 0.3935(6)
H13 H 0.5396 0.6714 0.4204
H14 H 0.6220 0.7140 0.3796
C13 C 0.6057(6) 0.8563(8) 0.4778(6)
H15 H 0.6418 0.9256 0.4573
H16 H 0.6522 0.8146 0.5431
H17 H 0.5492 0.8982 0.4871
C14 C 0.3512(6) 0.9665(8) 0.2650(6)
H18 H 0.3941 1.0388 0.3106
H19 H 0.3124 1.0068 0.1956
C15 C 0.2769(6) 0.9210(9) 0.3074(6)
H20 H 0.2317 0.8521 0.2614
H21 H 0.2370 0.9988 0.3112
H22 H 0.3140 0.8827 0.3768
C16 C 0.4278(6) 0.7696(8) 0.0961(6)
H23 H 0.4936 0.7792 0.0922
H24 H 0.4055 0.6745 0.0793
C17 C 0.3516(8) 0.8612(9) 0.0168(6)
H25 H 0.2833 0.8347 0.0065
H26 H 0.3576 0.8535 -0.0490
H27 H 0.3644 0.9551 0.0413
Sn1A Sn 0.55225(4) 0.31305(5) 0.24894(4)
O2A O 0.5474(4) 0.9980(5) 0.2470(4)
loop_
_geom_bond_atom_site_label_1
_geom_bond_atom_site_label_2
_geom_bond_site_symmetry_1
_geom_bond_site_symmetry_2
Sn1 O1 1_555 1_555
O1 C1 1_555 1_555
O2 C1 1_555 1_555
C1 C2 1_555 1_555
C2 H1 1_555 1_555
H2 C2 1_555 1_555
C3 C2 1_555 1_555
H3 C3 1_555 1_555
H4 C3 1_555 1_555
C4 C3 1_555 1_555
O3 C4 1_555 1_555
N1 C4 1_555 1_555
H5 N1 1_555 1_555
C5 N1 1_555 1_555
C6 C5 1_555 1_555
H6 C6 1_555 1_555
C7 C6 1_555 1_555
H7 C7 1_555 1_555
C8 C7 1_555 1_555
H8 C8 1_555 1_555
C9 C8 1_555 1_555
H9 C9 1_555 1_555
C10 C5 1_555 1_555
O4 C10 1_555 1_555
C11 O4 1_555 1_555
H10 C11 1_555 1_555
H11 C11 1_555 1_555
H12 C11 1_555 1_555
C12 Sn1 1_555 1_555
H13 C12 1_555 1_555
H14 C12 1_555 1_555
C13 C12 1_555 1_555
H15 C13 1_555 1_555
H16 C13 1_555 1_555
H17 C13 1_555 1_555
C14 Sn1 1_555 1_555
H18 C14 1_555 1_555
H19 C14 1_555 1_555
C15 C14 1_555 1_555
H20 C15 1_555 1_555
H21 C15 1_555 1_555
H22 C15 1_555 1_555
C16 Sn1 1_555 1_555
H23 C16 1_555 1_555
H24 C16 1_555 1_555
C17 C16 1_555 1_555
H25 C17 1_555 1_555
H26 C17 1_555 1_555
H27 C17 1_555 1_555
Sn1A O2 1_555 1_555
O2A Sn1 1_555 1_555
C9 C10 1_555 1_555

#END
