
#######################################################################
#
#                 Cambridge Crystallographic Data Centre
#                                CCDC 
#
#######################################################################
#
# If this CIF has been generated from an entry in the Cambridge 
# Structural Database, then it will include bibliographic, chemical, 
# crystal, experimental, refinement or atomic coordinate data resulting 
# from the CCDC's data processing and validation procedures.
#
#######################################################################

data_NUCXAM
_symmetry_cell_setting           monoclinic
_symmetry_space_group_name_H-M   'C 2/c'
_symmetry_Int_Tables_number      15
_space_group_name_Hall           '-C 2yn'
loop_
_symmetry_equiv_pos_site_id
_symmetry_equiv_pos_as_xyz
1 x,y,z
2 -x,y,1/2-z
3 1/2+x,1/2+y,z
4 1/2-x,1/2+y,1/2-z
5 -x,-y,-z
6 x,-y,1/2+z
7 1/2-x,1/2-y,-z
8 1/2+x,1/2-y,1/2+z
_cell_length_a                   12.473(2)
_cell_length_b                   9.6832(16)
_cell_length_c                   26.208(4)
_cell_angle_alpha                90
_cell_angle_beta                 100.269(2)
_cell_angle_gamma                90
_cell_volume                     3114.66
loop_
_atom_site_label
_atom_site_type_symbol
_atom_site_fract_x
_atom_site_fract_y
_atom_site_fract_z
Sn1 Sn 0.20528(2) 0.39116(2) 0.26751(2)
O1 O 0.23537(14) 0.20206(17) 0.21671(7)
C1 C 0.29337(19) 0.1746(2) 0.18372(9)
O2 O 0.32964(14) 0.05379(18) 0.17832(7)
C2 C 0.3210(2) 0.2860(3) 0.14785(10)
H1 H 0.3549 0.3643 0.1691
H2 H 0.2526 0.3199 0.1265
C3 C 0.3977(2) 0.2395(3) 0.11184(10)
H3 H 0.4230 0.3214 0.0947
H4 H 0.4624 0.1946 0.1326
C4 C 0.3437(2) 0.1403(3) 0.07110(10)
O3 O 0.24767(16) 0.1498(2) 0.05170(8)
N1 N 0.41199(17) 0.0438(2) 0.05640(8)
H5 H 0.4794 0.0413 0.0736
C5 C 0.38286(19) -0.0522(3) 0.01579(10)
C6 C 0.3239(2) -0.0137(3) -0.03189(10)
H6 H 0.3014 0.0794 -0.0381
C7 C 0.2979(2) -0.1120(3) -0.07066(11)
H7 H 0.2572 -0.0860 -0.1034
C8 C 0.3307(2) -0.2474(3) -0.06185(11)
H8 H 0.3114 -0.3142 -0.0884
C9 C 0.3915(2) -0.2867(3) -0.01446(11)
H9 H 0.4150 -0.3797 -0.0089
C10 C 0.4179(2) -0.1901(3) 0.02466(10)
O4 O 0.47565(15) -0.21537(19) 0.07290(7)
C11 C 0.5123(2) -0.3537(3) 0.08432(13)
H10 H 0.5527 -0.3584 0.1200
H11 H 0.5600 -0.3818 0.0602
H12 H 0.4494 -0.4158 0.0806
C12 C 0.1211(2) 0.2485(3) 0.30817(10)
H13 H 0.1565 0.1579 0.3091
H14 H 0.0453 0.2405 0.2904
H15 H 0.1229 0.2815 0.3437
C13 C 0.3773(2) 0.4051(3) 0.29088(11)
H16 H 0.4112 0.3193 0.2820
H17 H 0.3949 0.4198 0.3284
H18 H 0.4049 0.4828 0.2730
C14 C 0.1175(2) 0.4916(3) 0.20062(10)
H19 H 0.1650 0.5591 0.1878
H20 H 0.0541 0.5390 0.2097
H21 H 0.0932 0.4230 0.1736
Sn1C Sn 0.29472(2) -0.10884(2) 0.23249(2)
O2C O 0.17036(14) 0.55379(18) 0.32168(7)
loop_
_geom_bond_atom_site_label_1
_geom_bond_atom_site_label_2
_geom_bond_site_symmetry_1
_geom_bond_site_symmetry_2
Sn1 O1 1_555 1_555
O1 C1 1_555 1_555
C1 O2 1_555 1_555
O2 Sn1C 1_555 1_555
C2 C1 1_555 1_555
H1 C2 1_555 1_555
H2 C2 1_555 1_555
C3 C2 1_555 1_555
H3 C3 1_555 1_555
H4 C3 1_555 1_555
C4 C3 1_555 1_555
O3 C4 1_555 1_555
N1 C4 1_555 1_555
H5 N1 1_555 1_555
C5 N1 1_555 1_555
C6 C5 1_555 1_555
H6 C6 1_555 1_555
C7 C6 1_555 1_555
H7 C7 1_555 1_555
C8 C7 1_555 1_555
H8 C8 1_555 1_555
C9 C8 1_555 1_555
H9 C9 1_555 1_555
C10 C5 1_555 1_555
O4 C10 1_555 1_555
C11 O4 1_555 1_555
H10 C11 1_555 1_555
H11 C11 1_555 1_555
H12 C11 1_555 1_555
C12 Sn1 1_555 1_555
H13 C12 1_555 1_555
H14 C12 1_555 1_555
H15 C12 1_555 1_555
C13 Sn1 1_555 1_555
H16 C13 1_555 1_555
H17 C13 1_555 1_555
H18 C13 1_555 1_555
C14 Sn1 1_555 1_555
H19 C14 1_555 1_555
H20 C14 1_555 1_555
H21 C14 1_555 1_555
O2C Sn1 1_555 1_555
C9 C10 1_555 1_555

#END
