
#######################################################################
#
#                 Cambridge Crystallographic Data Centre
#                                CCDC 
#
#######################################################################
#
# If this CIF has been generated from an entry in the Cambridge 
# Structural Database, then it will include bibliographic, chemical, 
# crystal, experimental, refinement or atomic coordinate data resulting 
# from the CCDC's data processing and validation procedures.
#
#######################################################################

data_NUCYIV
_symmetry_cell_setting           orthorhombic
_symmetry_space_group_name_H-M   'P n a 21'
_symmetry_Int_Tables_number      33
_space_group_name_Hall           'P 2c -2n'
loop_
_symmetry_equiv_pos_site_id
_symmetry_equiv_pos_as_xyz
1 x,y,z
2 -x,-y,1/2+z
3 1/2+x,1/2-y,z
4 1/2-x,1/2+y,1/2+z
_cell_length_a                   27.951(4)
_cell_length_b                   9.6124(13)
_cell_length_c                   8.1937(11)
_cell_angle_alpha                90
_cell_angle_beta                 90
_cell_angle_gamma                90
_cell_volume                     2201.45
loop_
_atom_site_label
_atom_site_type_symbol
_atom_site_fract_x
_atom_site_fract_y
_atom_site_fract_z
Dy1 Dy 1.003767(6) -0.415197(19) 0.09288(12)
O1 O 0.92928(12) -0.4770(4) -0.0006(4)
O2 O 0.93764(14) -0.6128(4) -0.2171(5)
O3 O 0.54863(12) -0.8896(4) 0.0351(4)
O4 O 0.54097(12) -0.7986(4) -0.2145(5)
O5 O 0.77186(15) -0.7790(6) -0.3511(6)
O6 O 0.69966(15) -0.5618(5) -0.3154(6)
O7 O 0.97865(17) -0.1983(4) -0.0120(5)
O8 O 1.02158(12) -0.4122(4) -0.2121(5)
O9 O 1.07243(13) -0.3055(5) -0.0520(6)
C1 C 0.91317(19) -0.5590(6) -0.1080(7)
C2 C 0.86104(17) -0.5949(6) -0.1038(6)
C3 C 0.83282(18) -0.5543(6) 0.0299(7)
H1 H 0.8456 -0.5023 0.1152
C4 C 0.78456(18) -0.5956(6) 0.0297(7)
H2 H 0.7656 -0.5733 0.1192
C5 C 0.76428(18) -0.6680(6) -0.0983(7)
C6 C 0.7935(2) -0.7042(6) -0.2301(8)
C7 C 0.84133(17) -0.6663(6) -0.2317(7)
H3 H 0.8603 -0.6897 -0.3209
C8 C 0.71251(18) -0.7062(6) -0.0920(7)
C9 C 0.69562(18) -0.7939(6) 0.0243(7)
H4 H 0.7167 -0.8295 0.1017
C10 C 0.64743(18) -0.8320(6) 0.0308(7)
H5 H 0.6363 -0.8897 0.1137
C11 C 0.61657(17) -0.7834(5) -0.0868(7)
C12 C 0.63333(18) -0.6938(6) -0.2063(8)
H6 H 0.6125 -0.6595 -0.2850
C13 C 0.68070(19) -0.6557(6) -0.2084(8)
C14 C 0.56468(18) -0.8277(6) -0.0875(7)
C15 C 0.7938(3) -0.7840(10) -0.5067(9)
H7 H 0.7750 -0.8406 -0.5786
H8 H 0.8253 -0.8232 -0.4966
H9 H 0.7962 -0.6915 -0.5503
C16 C 0.6726(3) -0.5183(9) -0.4500(10)
H10 H 0.6909 -0.4531 -0.5132
H11 H 0.6437 -0.4746 -0.4126
H12 H 0.6647 -0.5973 -0.5163
C17 C 0.9169(3) 0.0054(8) -0.3029(9)
H13 H 0.9121 -0.0751 -0.3703
H14 H 0.9339 0.0749 -0.3636
H15 H 0.8864 0.0419 -0.2697
C18 C 0.9582(3) 0.0768(7) -0.0461(12)
H16 H 0.9758 0.0359 0.0423
H17 H 0.9301 0.1220 -0.0040
H18 H 0.9779 0.1439 -0.1009
C19 C 0.9553(2) -0.1626(7) -0.1276(9)
H19 H 0.9445 -0.2315 -0.1981
C20 C 1.0593(2) -0.3442(6) -0.1866(8)
H20 H 1.0783 -0.3219 -0.2759
N1 N 0.9439(2) -0.0325(5) -0.1620(7)
Dy1A Dy 0.996233(6) -0.584803(19) -0.40712(12)
Dy1B Dy 0.503767(6) -1.084803(19) 0.09288(12)
Dy1C Dy 0.496233(6) -0.915197(19) -0.40712(12)
O2A O 1.06236(14) -0.3872(4) 0.2829(5)
O3B O 1.04863(12) -0.6104(4) 0.0351(4)
O4C O 0.95903(12) -0.2986(4) 0.2855(5)
O8A O 0.97842(12) -0.5878(4) 0.2879(5)
loop_
_geom_bond_atom_site_label_1
_geom_bond_atom_site_label_2
_geom_bond_site_symmetry_1
_geom_bond_site_symmetry_2
Dy1 O1 1_555 1_555
O1 C1 1_555 1_555
O2 C1 1_555 1_555
O3 C14 1_555 1_555
O4 C14 1_555 1_555
O5 C6 1_555 1_555
O6 C13 1_555 1_555
O7 Dy1 1_555 1_555
O8 Dy1 1_555 1_555
O9 Dy1 1_555 1_555
C1 C2 1_555 1_555
C2 C3 1_555 1_555
C3 H1 1_555 1_555
C4 C3 1_555 1_555
H2 C4 1_555 1_555
C5 C4 1_555 1_555
C6 C5 1_555 1_555
C7 C2 1_555 1_555
H3 C7 1_555 1_555
C8 C5 1_555 1_555
C9 C8 1_555 1_555
H4 C9 1_555 1_555
C10 C9 1_555 1_555
H5 C10 1_555 1_555
C11 C10 1_555 1_555
C12 C11 1_555 1_555
H6 C12 1_555 1_555
C13 C8 1_555 1_555
C14 C11 1_555 1_555
C15 O5 1_555 1_555
H7 C15 1_555 1_555
H8 C15 1_555 1_555
H9 C15 1_555 1_555
C16 O6 1_555 1_555
H10 C16 1_555 1_555
H11 C16 1_555 1_555
H12 C16 1_555 1_555
C17 H13 1_555 1_555
H14 C17 1_555 1_555
H15 C17 1_555 1_555
C18 H16 1_555 1_555
H17 C18 1_555 1_555
H18 C18 1_555 1_555
C19 O7 1_555 1_555
H19 C19 1_555 1_555
C20 O8 1_555 1_555
H20 C20 1_555 1_555
N1 C17 1_555 1_555
Dy1A O2 1_555 1_555
Dy1B O3 1_555 1_555
Dy1C O4 1_555 1_555
O2A Dy1 1_555 1_555
O3B Dy1 1_555 1_555
O4C Dy1 1_555 1_555
O8A Dy1 1_555 1_555
O8 Dy1A 1_555 1_555
O9 C20 1_555 1_555
C6 C7 1_555 1_555
C12 C13 1_555 1_555
C18 N1 1_555 1_555
C19 N1 1_555 1_555

#END
