
#######################################################################
#
#                 Cambridge Crystallographic Data Centre
#                                CCDC 
#
#######################################################################
#
# If this CIF has been generated from an entry in the Cambridge 
# Structural Database, then it will include bibliographic, chemical, 
# crystal, experimental, refinement or atomic coordinate data resulting 
# from the CCDC's data processing and validation procedures.
#
#######################################################################

data_NUCYER
_symmetry_cell_setting           orthorhombic
_symmetry_space_group_name_H-M   'P n a 21'
_symmetry_Int_Tables_number      33
_space_group_name_Hall           'P 2c -2n'
loop_
_symmetry_equiv_pos_site_id
_symmetry_equiv_pos_as_xyz
1 x,y,z
2 -x,-y,1/2+z
3 1/2+x,1/2-y,z
4 1/2-x,1/2+y,1/2+z
_cell_length_a                   28.017(3)
_cell_length_b                   9.6175(9)
_cell_length_c                   8.2586(7)
_cell_angle_alpha                90
_cell_angle_beta                 90
_cell_angle_gamma                90
_cell_volume                     2225.31
loop_
_atom_site_label
_atom_site_type_symbol
_atom_site_fract_x
_atom_site_fract_y
_atom_site_fract_z
Gd1 Gd -0.003747(5) 1.415120(16) 0.90705(9)
O1 O 0.07167(10) 1.4783(4) 0.9997(4)
O2 O 0.06324(11) 1.6118(4) 1.2161(4)
O3 O 0.45157(10) 1.8855(3) 0.9655(4)
O4 O 0.45926(10) 1.7963(3) 1.2122(4)
O5 O 0.22844(13) 1.7774(5) 1.3507(5)
O6 O 0.30071(12) 1.5620(4) 1.3162(5)
O7 O 0.02164(14) 1.1971(3) 1.0129(5)
O8 O -0.02231(10) 1.4120(3) 1.2116(4)
O9 O -0.07326(11) 1.3057(4) 1.0510(4)
C1 C 0.08779(15) 1.5577(4) 1.1076(6)
C2 C 0.13987(14) 1.5937(4) 1.1037(5)
C3 C 0.16793(15) 1.5563(5) 0.9714(6)
H1 H 0.1550 1.5068 0.8851
C4 C 0.21589(15) 1.5951(5) 0.9716(6)
H2 H 0.2349 1.5710 0.8836
C5 C 0.23621(15) 1.6686(5) 1.0993(6)
C6 C 0.20708(16) 1.7027(5) 1.2312(6)
C7 C 0.15902(14) 1.6663(5) 1.2326(6)
H3 H 0.1399 1.6907 1.3200
C8 C 0.28766(15) 1.7074(5) 1.0944(6)
C9 C 0.30458(16) 1.7939(5) 0.9780(6)
H4 H 0.2837 1.8288 0.9004
C10 C 0.35279(15) 1.8314(5) 0.9725(6)
H5 H 0.3639 1.8896 0.8907
C11 C 0.38376(14) 1.7821(4) 1.0884(6)
C12 C 0.36694(16) 1.6925(5) 1.2064(7)
H6 H 0.3878 1.6576 1.2840
C13 C 0.31923(16) 1.6545(5) 1.2100(7)
C14 C 0.43528(15) 1.8251(5) 1.0866(6)
C15 C 0.2058(2) 1.7836(8) 1.5034(8)
H7 H 0.2245 1.8399 1.5756
H8 H 0.2030 1.6915 1.5470
H9 H 0.1746 1.8237 1.4915
C16 C 0.3282(2) 1.5126(8) 1.4468(9)
H10 H 0.3097 1.4477 1.5089
H11 H 0.3374 1.5892 1.5144
H12 H 0.3562 1.4671 1.4061
C17 C 0.0837(3) 0.9918(7) 1.3026(8)
H13 H 0.0886 1.0719 1.3701
H14 H 0.1141 0.9555 1.2692
H15 H 0.0667 0.9220 1.3623
C18 C 0.0429(3) 0.9228(6) 1.0451(10)
H16 H 0.0254 0.9639 0.9574
H17 H 0.0233 0.8546 1.0981
H18 H 0.0711 0.8790 1.0037
C19 C 0.0449(2) 1.1607(5) 1.1288(7)
H19 H 0.0554 1.2292 1.1997
C20 C -0.06019(17) 1.3435(5) 1.1869(7)
H20 H -0.0791 1.3205 1.2755
N1 N 0.05635(16) 1.0312(4) 1.1615(6)
Gd1A Gd 0.003747(5) 1.584880(16) 1.40705(9)
Gd1B Gd 0.496253(5) 2.084880(16) 0.90705(9)
Gd1C Gd 0.503747(5) 1.915120(16) 1.40705(9)
O2A O -0.06324(11) 1.3882(4) 0.7161(4)
O3B O -0.04843(10) 1.6145(3) 0.9655(4)
O4C O 0.04074(10) 1.2963(3) 0.7122(4)
O8A O 0.02231(10) 1.5880(3) 0.7116(4)
loop_
_geom_bond_atom_site_label_1
_geom_bond_atom_site_label_2
_geom_bond_site_symmetry_1
_geom_bond_site_symmetry_2
Gd1 O1 1_555 1_555
O1 C1 1_555 1_555
O2 C1 1_555 1_555
O3 C14 1_555 1_555
O4 C14 1_555 1_555
O5 C6 1_555 1_555
O6 C13 1_555 1_555
O7 Gd1 1_555 1_555
O8 Gd1 1_555 1_555
O9 Gd1 1_555 1_555
C1 C2 1_555 1_555
C2 C3 1_555 1_555
C3 H1 1_555 1_555
C4 C3 1_555 1_555
H2 C4 1_555 1_555
C5 C4 1_555 1_555
C6 C5 1_555 1_555
C7 C2 1_555 1_555
H3 C7 1_555 1_555
C8 C5 1_555 1_555
C9 C8 1_555 1_555
H4 C9 1_555 1_555
C10 C9 1_555 1_555
H5 C10 1_555 1_555
C11 C10 1_555 1_555
C12 C11 1_555 1_555
H6 C12 1_555 1_555
C13 C8 1_555 1_555
C14 C11 1_555 1_555
C15 O5 1_555 1_555
H7 C15 1_555 1_555
H8 C15 1_555 1_555
H9 C15 1_555 1_555
C16 O6 1_555 1_555
H10 C16 1_555 1_555
H11 C16 1_555 1_555
H12 C16 1_555 1_555
C17 H13 1_555 1_555
H14 C17 1_555 1_555
H15 C17 1_555 1_555
C18 H16 1_555 1_555
H17 C18 1_555 1_555
H18 C18 1_555 1_555
C19 O7 1_555 1_555
H19 C19 1_555 1_555
C20 O8 1_555 1_555
H20 C20 1_555 1_555
N1 C17 1_555 1_555
Gd1A O2 1_555 1_555
Gd1B O3 1_555 1_555
Gd1C O4 1_555 1_555
O2A Gd1 1_555 1_555
O3B Gd1 1_555 1_555
O4C Gd1 1_555 1_555
O8A Gd1 1_555 1_555
O8 Gd1A 1_555 1_555
O9 C20 1_555 1_555
C6 C7 1_555 1_555
C12 C13 1_555 1_555
C18 N1 1_555 1_555
C19 N1 1_555 1_555

#END
