
#######################################################################
#
#                 Cambridge Crystallographic Data Centre
#                                CCDC 
#
#######################################################################
#
# If this CIF has been generated from an entry in the Cambridge 
# Structural Database, then it will include bibliographic, chemical, 
# crystal, experimental, refinement or atomic coordinate data resulting 
# from the CCDC's data processing and validation procedures.
#
#######################################################################

data_NUDDIB
_symmetry_cell_setting           triclinic
_symmetry_space_group_name_H-M   'P -1'
_symmetry_Int_Tables_number      2
_space_group_name_Hall           '-P 1'
loop_
_symmetry_equiv_pos_site_id
_symmetry_equiv_pos_as_xyz
1 x,y,z
2 -x,-y,-z
_cell_length_a                   8.2951(4)
_cell_length_b                   9.1416(6)
_cell_length_c                   13.2695(7)
_cell_angle_alpha                109.205(6)
_cell_angle_beta                 93.720(4)
_cell_angle_gamma                109.834(5)
_cell_volume                     876.046
loop_
_atom_site_label
_atom_site_type_symbol
_atom_site_fract_x
_atom_site_fract_y
_atom_site_fract_z
Mo1 Mo 0.54683(5) 0.77134(5) 0.61217(3)
Mo2 Mo 0.59273(5) 0.90282(5) 0.19993(3)
Mo3 Mo 0.45320(5) 0.16525(5) 0.05536(3)
Cu1 Cu 0.54486(9) 0.58354(10) 0.31688(6)
O1 O 0.0232(4) 0.3095(5) -0.0468(3)
O2 O 0.5247(5) 0.7475(5) 0.2546(3)
O3 O 0.8106(5) 0.9913(5) 0.2438(4)
O4 O 0.4672(6) 0.9278(5) 0.6979(3)
O5 O 0.5220(6) 0.7664(5) 0.4802(3)
O6 O 0.7648(6) 0.8322(6) 0.6595(4)
O7 O 0.5692(5) 0.4333(5) 0.3908(3)
O8 O 0.5759(5) 0.7515(5) 0.0571(3)
O9 O 0.5580(4) 1.0278(5) 0.0966(3)
O10 O 0.2469(5) 0.0891(5) 0.0749(3)
O11 O 0.5515(5) 0.3561(5) 0.1620(3)
N1 N 0.2830(5) 0.4732(5) 0.2752(4)
N2 N -0.2372(5) 0.2545(6) -0.0037(4)
N3 N -0.2572(5) 0.2220(6) -0.1160(4)
N4 N 0.1948(5) 0.3119(5) -0.3314(4)
C1 C 0.1878(6) 0.4558(7) 0.3523(4)
H1 H 0.2462 0.4908 0.4235
C2 C 0.0083(7) 0.3884(7) 0.3300(5)
H2 H -0.0532 0.3777 0.3851
C3 C -0.0798(7) 0.3367(7) 0.2249(5)
H3 H -0.2014 0.2922 0.2078
C4 C 0.0191(7) 0.3531(6) 0.1445(4)
C5 C 0.2004(7) 0.4238(7) 0.1733(4)
H4 H 0.2655 0.4369 0.1201
C6 C -0.0716(7) 0.3033(7) 0.0326(4)
C7 C -0.1014(7) 0.2566(7) -0.1369(4)
C8 C -0.0443(7) 0.2514(7) -0.2405(4)
C9 C -0.1634(7) 0.1881(7) -0.3382(5)
H5 H -0.2832 0.1517 -0.3400
C10 C -0.0983(7) 0.1810(7) -0.4325(4)
H6 H -0.1744 0.1346 -0.4994
C11 C 0.0796(7) 0.2430(7) -0.4263(4)
H7 H 0.1219 0.2369 -0.4902
C12 C 0.1326(7) 0.3129(7) -0.2408(4)
H8 H 0.2116 0.3569 -0.1753
Mo1A Mo 0.45317(5) 0.22866(5) 0.38783(3)
Mo2A Mo 0.40727(5) 1.09718(5) 0.80007(3)
Mo3_2 Mo 0.45320(5) 1.16525(5) 0.05536(3)
Mo3A Mo 0.54680(5) 0.83475(5) -0.05536(3)
Cu1A Cu 0.45514(9) 0.41646(10) -0.31688(6)
O4A O 0.5328(6) 1.0722(5) 0.3021(3)
O7A O 0.4308(5) 0.5667(5) 0.6092(3)
O8A O 0.4241(5) 0.2485(5) -0.0571(3)
O9_2 O 0.5580(4) 0.0278(5) 0.0966(3)
O9A O 0.4420(4) -0.0278(5) -0.0966(3)
N4A N 0.8052(5) 0.6881(5) 0.3314(4)
loop_
_geom_bond_atom_site_label_1
_geom_bond_atom_site_label_2
_geom_bond_site_symmetry_1
_geom_bond_site_symmetry_2
Mo1 O4 1_555 1_555
Mo2 O2 1_555 1_555
Mo3 O10 1_555 1_555
Cu1 O2 1_555 1_555
O1 C6 1_555 1_555
O3 Mo2 1_555 1_555
O4 Mo2A 1_555 1_555
O5 Mo1 1_555 1_555
O6 Mo1 1_555 1_555
O7 Cu1 1_555 1_555
O8 Mo2 1_555 1_555
O9 Mo2 1_555 1_555
O11 Mo3 1_555 1_555
N1 Cu1 1_555 1_555
N2 N3 1_555 1_555
N3 C7 1_555 1_555
N4 C11 1_555 1_555
C1 N1 1_555 1_555
H1 C1 1_555 1_555
C2 C1 1_555 1_555
H2 C2 1_555 1_555
C3 C2 1_555 1_555
H3 C3 1_555 1_555
C4 C3 1_555 1_555
C5 N1 1_555 1_555
H4 C5 1_555 1_555
C6 N2 1_555 1_555
C7 O1 1_555 1_555
C8 C7 1_555 1_555
C9 C8 1_555 1_555
H5 C9 1_555 1_555
C10 C9 1_555 1_555
H6 C10 1_555 1_555
C11 C10 1_555 1_555
H7 C11 1_555 1_555
C12 N4 1_555 1_555
H8 C12 1_555 1_555
Mo1A O7 1_555 1_555
Mo3_2 O9 1_555 1_555
Mo3A O8 1_555 1_555
Cu1A N4 1_555 1_555
O4A Mo2 1_555 1_555
O7A Mo1 1_555 1_555
O8A Mo3 1_555 1_555
O9_2 Mo3 1_555 1_555
O9A Mo3 1_555 1_555
N4A Cu1 1_555 1_555
Cu1 O5 1_555 1_555
Cu1 O11 1_555 1_555
O9 Mo3A 1_555 1_555
C4 C5 1_555 1_555
C4 C6 1_555 1_555
C8 C12 1_555 1_555

#END
