
#######################################################################
#
#                 Cambridge Crystallographic Data Centre
#                                CCDC 
#
#######################################################################
#
# If this CIF has been generated from an entry in the Cambridge 
# Structural Database, then it will include bibliographic, chemical, 
# crystal, experimental, refinement or atomic coordinate data resulting 
# from the CCDC's data processing and validation procedures.
#
#######################################################################

data_NUDDAS
_symmetry_cell_setting           monoclinic
_symmetry_space_group_name_H-M   'P 21/c'
_symmetry_Int_Tables_number      14
_space_group_name_Hall           '-P 2ybc'
loop_
_symmetry_equiv_pos_site_id
_symmetry_equiv_pos_as_xyz
1 x,y,z
2 -x,1/2+y,1/2-z
3 -x,-y,-z
4 x,1/2-y,1/2+z
_cell_length_a                   8.0814(8)
_cell_length_b                   10.5680(8)
_cell_length_c                   28.972(3)
_cell_angle_alpha                90
_cell_angle_beta                 104.325(3)
_cell_angle_gamma                90
_cell_volume                     2397.4
loop_
_atom_site_label
_atom_site_type_symbol
_atom_site_fract_x
_atom_site_fract_y
_atom_site_fract_z
Zn1 Zn 0.84216(5) 0.56581(3) -0.026146(13)
O1 O 0.8029(4) 0.4835(2) 0.03456(9)
O2 O 1.0354(3) 0.3839(2) 0.07719(9)
O3 O 0.0162(3) -0.3168(2) 0.02056(10)
O4 O 0.2481(3) -0.4102(2) 0.06473(9)
O5 O 0.5192(3) 0.3199(2) 0.20999(8)
O6 O 0.1901(3) 0.0966(2) 0.17971(9)
N1 N 0.6703(3) 0.7101(2) -0.02775(10)
C1 C 0.8835(5) 0.4230(3) 0.07070(12)
C2 C 0.7892(4) 0.3959(3) 0.10786(11)
C3 C 0.8571(4) 0.3202(3) 0.14759(12)
H1 H 0.9655 0.2854 0.1516
C4 C 0.7651(5) 0.2965(3) 0.18100(13)
H2 H 0.8120 0.2464 0.2074
C5 C 0.6029(4) 0.3472(3) 0.17533(11)
C6 C 0.5339(4) 0.4237(3) 0.13628(12)
H3 H 0.4258 0.4588 0.1324
C7 C 0.6279(4) 0.4466(3) 0.10349(12)
H4 H 0.5814 0.4979 0.0774
C8 C 0.3460(4) 0.3639(3) 0.20157(13)
H5 H 0.2773 0.3264 0.1726
H6 H 0.3427 0.4552 0.1977
C9 C 0.2755(4) 0.3280(3) 0.24296(12)
C10 C 0.2297(5) 0.4233(4) 0.27016(16)
H7 H 0.2442 0.5073 0.2624
C11 C 0.1631(7) 0.3968(5) 0.30851(19)
H8 H 0.1333 0.4624 0.3263
C12 C 0.1410(7) 0.2740(5) 0.32039(17)
H9 H 0.0977 0.2557 0.3465
C13 C 0.1835(6) 0.1763(4) 0.29323(15)
H10 H 0.1656 0.0928 0.3010
C14 C 0.2523(5) 0.2014(3) 0.25467(12)
C15 C 0.2984(5) 0.0918(3) 0.22698(13)
H11 H 0.4172 0.0977 0.2259
H12 H 0.2820 0.0125 0.2421
C16 C 0.1941(5) -0.0051(3) 0.15050(12)
C17 C 0.0698(5) -0.0043(3) 0.10787(12)
H13 H -0.0046 0.0640 0.1001
C18 C 0.0571(5) -0.1052(3) 0.07709(13)
H14 H -0.0277 -0.1050 0.0487
C19 C 0.1691(4) -0.2076(3) 0.08768(12)
C20 C 0.2937(5) -0.2051(3) 0.12987(13)
H15 H 0.3701 -0.2723 0.1373
C21 C 0.3080(5) -0.1047(3) 0.16159(13)
H16 H 0.3929 -0.1046 0.1899
C22 C 0.1429(4) -0.3196(3) 0.05534(13)
C23 C 0.5827(7) 0.7171(4) 0.0041(2)
H17 H 0.5654 0.6433 0.0198
C24 C 0.5135(7) 0.8287(4) 0.0160(2)
H18 H 0.4535 0.8286 0.0396
C25 C 0.5329(4) 0.9386(3) -0.00658(13)
C26 C 0.6141(7) 0.9275(3) -0.04233(17)
H19 H 0.6249 0.9979 -0.0606
C27 C 0.6802(7) 0.8132(4) -0.05166(16)
H20 H 0.7350 0.8092 -0.0763
Zn1B Zn 0.15784(5) -0.56581(3) 0.026146(13)
Zn1B_2 Zn 1.15784(5) 0.43419(3) 0.026146(13)
Zn1_2 Zn -0.15784(5) -0.43419(3) -0.026146(13)
Zn1B_3 Zn 0.15784(5) 1.43419(3) 0.026146(13)
O1B O 0.1971(4) -0.4835(2) -0.03456(9)
O2B O -0.0354(3) -0.3839(2) -0.07719(9)
O2B_2 O 0.9646(3) 0.6161(2) -0.07719(9)
O2_2 O 0.0354(3) -0.6161(2) 0.07719(9)
O3B O 0.9838(3) 0.3168(2) -0.02056(10)
O3_2 O 1.0162(3) 0.6832(2) 0.02056(10)
O3B_2 O -0.0162(3) -0.6832(2) -0.02056(10)
O4B O 0.7519(3) 0.4102(2) -0.06473(9)
O5B O 0.4808(3) -0.3199(2) -0.20999(8)
O6B O 0.8099(3) -0.0966(2) -0.17971(9)
N1B N 0.3297(3) 1.2899(2) 0.02775(10)
N1B_2 N 0.3297(3) -0.7101(2) 0.02775(10)
C1B C 0.1165(5) -0.4230(3) -0.07070(12)
C2B C 0.2108(4) -0.3959(3) -0.10786(11)
C3B C 0.1429(4) -0.3202(3) -0.14759(12)
H1B H 0.0345 -0.2854 -0.1516
C4B C 0.2349(5) -0.2965(3) -0.18100(13)
H2B H 0.1880 -0.2464 -0.2074
C5B C 0.3971(4) -0.3472(3) -0.17533(11)
C6B C 0.4661(4) -0.4237(3) -0.13628(12)
H3B H 0.5742 -0.4588 -0.1324
C7B C 0.3721(4) -0.4466(3) -0.10349(12)
H4B H 0.4186 -0.4979 -0.0774
C8B C 0.6540(4) -0.3639(3) -0.20157(13)
H5B H 0.7227 -0.3264 -0.1726
H6B H 0.6573 -0.4552 -0.1977
C9B C 0.7245(4) -0.3280(3) -0.24296(12)
C10B C 0.7703(5) -0.4233(4) -0.27016(16)
H7B H 0.7558 -0.5073 -0.2624
C11B C 0.8369(7) -0.3968(5) -0.30851(19)
H8B H 0.8667 -0.4624 -0.3263
C12B C 0.8590(7) -0.2740(5) -0.32039(17)
H9B H 0.9023 -0.2557 -0.3465
C13B C 0.8165(6) -0.1763(4) -0.29323(15)
H10B H 0.8344 -0.0928 -0.3010
C14B C 0.7477(5) -0.2014(3) -0.25467(12)
C15B C 0.7016(5) -0.0918(3) -0.22698(13)
H11B H 0.5828 -0.0977 -0.2259
H12B H 0.7180 -0.0125 -0.2421
C16B C 0.8059(5) 0.0051(3) -0.15050(12)
C17B C 0.9302(5) 0.0043(3) -0.10787(12)
H13B H 1.0046 -0.0640 -0.1001
C18B C 0.9429(5) 0.1052(3) -0.07709(13)
H14B H 1.0277 0.1050 -0.0487
C19B C 0.8309(4) 0.2076(3) -0.08768(12)
C20B C 0.7063(5) 0.2051(3) -0.12987(13)
H15B H 0.6299 0.2723 -0.1373
C21B C 0.6920(5) 0.1047(3) -0.16159(13)
H16B H 0.6071 0.1046 -0.1899
C22B C 0.8571(4) 0.3196(3) -0.05534(13)
C23B C 0.4173(7) 1.2829(4) -0.0041(2)
H17B H 0.4346 1.3567 -0.0198
C24B C 0.4865(7) 1.1713(4) -0.0160(2)
H18B H 0.5465 1.1714 -0.0396
C25B C 0.4671(4) 1.0614(3) 0.00658(13)
C26B C 0.3859(7) 1.0725(3) 0.04233(17)
H19B H 0.3751 1.0021 0.0606
C27B C 0.3198(7) 1.1868(4) 0.05166(16)
H20B H 0.2650 1.1908 0.0763
loop_
_geom_bond_atom_site_label_1
_geom_bond_atom_site_label_2
_geom_bond_site_symmetry_1
_geom_bond_site_symmetry_2
Zn1 O1 1_555 1_555
O1 C1 1_555 1_555
O2 C1 1_555 1_555
O3 C22 1_555 1_555
O4 C22 1_555 1_555
O5 C5 1_555 1_555
O6 C15 1_555 1_555
N1 Zn1 1_555 1_555
C1 C2 1_555 1_555
C2 C3 1_555 1_555
C3 H1 1_555 1_555
C4 C3 1_555 1_555
H2 C4 1_555 1_555
C5 C4 1_555 1_555
C6 C5 1_555 1_555
H3 C6 1_555 1_555
C7 C2 1_555 1_555
H4 C7 1_555 1_555
C8 O5 1_555 1_555
H5 C8 1_555 1_555
H6 C8 1_555 1_555
C9 C8 1_555 1_555
C10 C9 1_555 1_555
H7 C10 1_555 1_555
C11 C10 1_555 1_555
H8 C11 1_555 1_555
C12 C11 1_555 1_555
H9 C12 1_555 1_555
C13 C12 1_555 1_555
H10 C13 1_555 1_555
C14 C9 1_555 1_555
C15 C14 1_555 1_555
H11 C15 1_555 1_555
H12 C15 1_555 1_555
C16 O6 1_555 1_555
C17 C16 1_555 1_555
H13 C17 1_555 1_555
C18 C17 1_555 1_555
H14 C18 1_555 1_555
C19 C18 1_555 1_555
C20 C19 1_555 1_555
H15 C20 1_555 1_555
C21 C16 1_555 1_555
H16 C21 1_555 1_555
C22 C19 1_555 1_555
C23 N1 1_555 1_555
H17 C23 1_555 1_555
C24 C23 1_555 1_555
H18 C24 1_555 1_555
C25 C24 1_555 1_555
C26 C25 1_555 1_555
H19 C26 1_555 1_555
C27 N1 1_555 1_555
H20 C27 1_555 1_555
Zn1B O4 1_555 1_555
Zn1B_2 O2 1_555 1_555
Zn1_2 O3 1_555 1_555
Zn1B_3 N1B 1_555 1_555
O1B Zn1B 1_555 1_555
O2B Zn1_2 1_555 1_555
O2B_2 Zn1 1_555 1_555
O2_2 Zn1B 1_555 1_555
O3B Zn1B_2 1_555 1_555
O3_2 Zn1 1_555 1_555
O3B_2 Zn1B 1_555 1_555
O4B Zn1 1_555 1_555
O5B C5B 1_555 1_555
O6B C15B 1_555 1_555
N1B C23B 1_555 1_555
N1B_2 Zn1B 1_555 1_555
C1B O1B 1_555 1_555
C2B C1B 1_555 1_555
C3B C2B 1_555 1_555
H1B C3B 1_555 1_555
C4B C3B 1_555 1_555
H2B C4B 1_555 1_555
C5B C4B 1_555 1_555
C6B C5B 1_555 1_555
H3B C6B 1_555 1_555
C7B C2B 1_555 1_555
H4B C7B 1_555 1_555
C8B O5B 1_555 1_555
H5B C8B 1_555 1_555
H6B C8B 1_555 1_555
C9B C8B 1_555 1_555
C10B C9B 1_555 1_555
H7B C10B 1_555 1_555
C11B C10B 1_555 1_555
H8B C11B 1_555 1_555
C12B C11B 1_555 1_555
H9B C12B 1_555 1_555
C13B C12B 1_555 1_555
H10B C13B 1_555 1_555
C14B C9B 1_555 1_555
C15B C14B 1_555 1_555
H11B C15B 1_555 1_555
H12B C15B 1_555 1_555
C16B O6B 1_555 1_555
C17B C16B 1_555 1_555
H13B C17B 1_555 1_555
C18B C17B 1_555 1_555
H14B C18B 1_555 1_555
C19B C18B 1_555 1_555
C20B C19B 1_555 1_555
H15B C20B 1_555 1_555
C21B C16B 1_555 1_555
H16B C21B 1_555 1_555
C22B O3B 1_555 1_555
C23B H17B 1_555 1_555
C24B C23B 1_555 1_555
H18B C24B 1_555 1_555
C25B C25 1_555 1_555
C26B C25B 1_555 1_555
H19B C26B 1_555 1_555
C27B N1B 1_555 1_555
H20B C27B 1_555 1_555
C6 C7 1_555 1_555
C13 C14 1_555 1_555
C20 C21 1_555 1_555
C26 C27 1_555 1_555
O2B C1B 1_555 1_555
O4B C22B 1_555 1_555
C6B C7B 1_555 1_555
C13B C14B 1_555 1_555
C19B C22B 1_555 1_555
C20B C21B 1_555 1_555
C24B C25B 1_555 1_555
C26B C27B 1_555 1_555

#END
