
#######################################################################
#
#                 Cambridge Crystallographic Data Centre
#                                CCDC 
#
#######################################################################
#
# If this CIF has been generated from an entry in the Cambridge 
# Structural Database, then it will include bibliographic, chemical, 
# crystal, experimental, refinement or atomic coordinate data resulting 
# from the CCDC's data processing and validation procedures.
#
#######################################################################

data_NUDDUM
_symmetry_cell_setting           monoclinic
_symmetry_space_group_name_H-M   'C 2/c'
_symmetry_Int_Tables_number      15
_space_group_name_Hall           '-C 2yn'
loop_
_symmetry_equiv_pos_site_id
_symmetry_equiv_pos_as_xyz
1 x,y,z
2 -x,y,1/2-z
3 1/2+x,1/2+y,z
4 1/2-x,1/2+y,1/2-z
5 -x,-y,-z
6 x,-y,1/2+z
7 1/2-x,1/2-y,-z
8 1/2+x,1/2-y,1/2+z
_cell_length_a                   17.1976(13)
_cell_length_b                   14.4008(10)
_cell_length_c                   17.4440(10)
_cell_angle_alpha                90
_cell_angle_beta                 115.938(4)
_cell_angle_gamma                90
_cell_volume                     3884.99
loop_
_atom_site_label
_atom_site_type_symbol
_atom_site_fract_x
_atom_site_fract_y
_atom_site_fract_z
U1 U 0.088340(15) 0.240265(15) 0.107740(14)
O1 O 0.0068(3) 0.2954(3) 0.1273(3)
O2 O 0.1668(3) 0.1842(3) 0.0865(3)
O3 O 0.1551(3) 0.1721(3) 0.2514(3)
O4 O 0.1934(3) 0.3136(3) 0.2368(2)
O5 O 0.3634(3) -0.1068(3) 0.4186(2)
O6 O 0.4660(3) -0.1735(3) 0.5288(2)
O7 O 0.0280(3) 0.1489(3) 0.5102(2)
O8 O -0.0207(3) 0.0927(3) 0.3809(2)
C1 C 0.2569(4) 0.1647(4) 0.4274(4)
C2 C 0.3326(4) 0.1143(4) 0.4678(4)
H11 H 0.3826 0.1346 0.4648
C3 C 0.3353(4) 0.0339(4) 0.5128(4)
C4 C 0.2600(4) 0.0050(4) 0.5189(4)
H12 H 0.2611 -0.0480 0.5498
C5 C 0.1845(4) 0.0557(4) 0.4789(4)
C6 C 0.1824(4) 0.1352(4) 0.4337(4)
H13 H 0.1315 0.1692 0.4075
C7 C 0.2537(5) 0.2527(4) 0.3783(4)
H14 H 0.2326 0.3030 0.4010
H15 H 0.3120 0.2684 0.3875
C8 C 0.1971(4) 0.2454(4) 0.2834(4)
C9 C 0.4160(4) -0.0253(4) 0.5534(4)
H16 H 0.4663 0.0130 0.5649
H17 H 0.4212 -0.0491 0.6074
C10 C 0.4150(4) -0.1058(4) 0.4974(4)
C11 C 0.1054(4) 0.0200(4) 0.4879(4)
H18 H 0.0849 -0.0363 0.4546
H19 H 0.1220 0.0045 0.5472
C12 C 0.0334(4) 0.0896(4) 0.4590(4)
U1C U 0.411660(15) 0.740265(15) 0.392260(14)
U1C_2 U 0.411660(15) -0.259735(15) 0.392260(14)
U1A U -0.088340(15) 0.240265(15) 0.392260(14)
U1B U 0.588340(15) 0.740265(15) 0.107740(14)
O1C O 0.4932(3) 0.7954(3) 0.3727(3)
O2C O 0.3332(3) 0.6842(3) 0.4135(3)
O3C O 0.3449(3) 0.6721(3) 0.2486(3)
O4C O 0.3066(3) 0.8136(3) 0.2632(2)
O5C O 0.1366(3) 0.3932(3) 0.0814(2)
O5_2 O 0.3634(3) 0.8932(3) 0.4186(2)
O6C O 0.0340(3) 0.3265(3) -0.0288(2)
O6_2 O 0.4660(3) 0.8265(3) 0.5288(2)
O7C O 0.4720(3) 0.6489(3) -0.0102(2)
O7A O -0.0280(3) 0.1489(3) -0.0102(2)
O7B O 0.5280(3) 0.6489(3) 0.5102(2)
O8C O 0.5207(3) 0.5927(3) 0.1191(2)
O8A O 0.0207(3) 0.0927(3) 0.1191(2)
O8B O 0.4793(3) 0.5927(3) 0.3809(2)
C1C C 0.2431(4) 0.6647(4) 0.0726(4)
C2C C 0.1674(4) 0.6143(4) 0.0322(4)
H11C H 0.1174 0.6346 0.0352
C3C C 0.1647(4) 0.5339(4) -0.0128(4)
C4C C 0.2400(4) 0.5050(4) -0.0189(4)
H12C H 0.2389 0.4520 -0.0498
C5C C 0.3155(4) 0.5557(4) 0.0211(4)
C6C C 0.3176(4) 0.6352(4) 0.0663(4)
H13C H 0.3685 0.6692 0.0925
C7C C 0.2463(5) 0.7527(4) 0.1217(4)
H14C H 0.2674 0.8030 0.0990
H15C H 0.1880 0.7684 0.1125
C8C C 0.3029(4) 0.7454(4) 0.2166(4)
C9C C 0.0840(4) 0.4747(4) -0.0534(4)
H16C H 0.0337 0.5130 -0.0649
H17C H 0.0788 0.4509 -0.1074
C10C C 0.0850(4) 0.3942(4) 0.0026(4)
C11C C 0.3946(4) 0.5200(4) 0.0121(4)
H18C H 0.4151 0.4637 0.0454
H19C H 0.3780 0.5045 -0.0472
C12C C 0.4666(4) 0.5896(4) 0.0410(4)
U2 U 0.0000 0.17350(2) 0.7500
O9 O 0.0896(3) 0.1737(3) 0.8500(3)
O10 O 0.0000 0.0030(4) 0.7500
H1 H -0.0115 -0.0416 0.7865
O11 O 0.0861(3) 0.1150(3) 0.6832(2)
H2 H 0.0722 0.1236 0.6320
H3 H 0.1344 0.0762 0.7053
O12 O 0.0484(3) 0.3045(3) 0.6992(3)
H4 H 0.0342 0.3184 0.6472
H5 H 0.0707 0.3649 0.7271
O9A O -0.0896(3) 0.1737(3) 0.6500(3)
H1A H 0.0115 -0.0416 0.7135
O11A O -0.0861(3) 0.1150(3) 0.8168(2)
H2A H -0.0722 0.1236 0.8680
H3A H -0.1344 0.0762 0.7947
O12A O -0.0484(3) 0.3045(3) 0.8008(3)
H4A H -0.0342 0.3184 0.8528
H5A H -0.0707 0.3649 0.7729
O13 O 0.0000 0.4196(4) 0.2500
H6 H 0.0019 0.3809 0.2092
H6A H -0.0019 0.3809 0.2908
O14 O 0.2244(3) 0.0095(3) 0.7729(3)
H7 H 0.2058 -0.0401 0.7904
H8 H 0.2528 0.0437 0.8111
O15 O 0.1360(3) 0.4563(3) 0.7682(3)
H9 H 0.1066 0.5091 0.7669
H10 H 0.1892 0.4706 0.7674
loop_
_geom_bond_atom_site_label_1
_geom_bond_atom_site_label_2
_geom_bond_site_symmetry_1
_geom_bond_site_symmetry_2
U1 O1 1_555 1_555
U2 O9 1_555 1_555
O2 U1 1_555 1_555
O3 U1 1_555 1_555
O4 U1 1_555 1_555
O5 C10 1_555 1_555
O6 C10 1_555 1_555
O7 C12 1_555 1_555
O8 C12 1_555 1_555
O10 U2 1_555 1_555
H1 O10 1_555 1_555
O11 U2 1_555 1_555
H2 O11 1_555 1_555
H3 O11 1_555 1_555
O12 U2 1_555 1_555
H4 O12 1_555 1_555
H5 O12 1_555 1_555
O13 H6 1_555 1_555
O14 H7 1_555 1_555
H8 O14 1_555 1_555
O15 H9 1_555 1_555
H10 O15 1_555 1_555
C1 C2 1_555 1_555
C2 H11 1_555 1_555
C3 C2 1_555 1_555
C4 C3 1_555 1_555
H12 C4 1_555 1_555
C5 C4 1_555 1_555
C6 C1 1_555 1_555
H13 C6 1_555 1_555
C7 C1 1_555 1_555
H14 C7 1_555 1_555
H15 C7 1_555 1_555
C8 O3 1_555 1_555
C9 C3 1_555 1_555
H16 C9 1_555 1_555
H17 C9 1_555 1_555
C10 C9 1_555 1_555
C11 C5 1_555 1_555
H18 C11 1_555 1_555
H19 C11 1_555 1_555
C12 C11 1_555 1_555
U1C O1C 1_555 1_555
U1C_2 O5 1_555 1_555
U1A O7 1_555 1_555
U1B O7C 1_555 1_555
O2C U1C 1_555 1_555
O3C U1C 1_555 1_555
O4C U1C 1_555 1_555
O5C U1 1_555 1_555
O5_2 U1C 1_555 1_555
O6C U1 1_555 1_555
O6_2 U1C 1_555 1_555
O7C C12C 1_555 1_555
O7A U1 1_555 1_555
O7B U1C 1_555 1_555
O8C U1B 1_555 1_555
O8A U1 1_555 1_555
O8B U1C 1_555 1_555
O9A U2 1_555 1_555
H1A O10 1_555 1_555
O11A U2 1_555 1_555
H2A O11A 1_555 1_555
H3A O11A 1_555 1_555
O12A U2 1_555 1_555
H4A O12A 1_555 1_555
H5A O12A 1_555 1_555
H6A O13 1_555 1_555
C1C C2C 1_555 1_555
C2C H11C 1_555 1_555
C3C C2C 1_555 1_555
C4C C3C 1_555 1_555
H12C C4C 1_555 1_555
C5C C4C 1_555 1_555
C6C C1C 1_555 1_555
H13C C6C 1_555 1_555
C7C C1C 1_555 1_555
H14C C7C 1_555 1_555
H15C C7C 1_555 1_555
C8C O3C 1_555 1_555
C9C C3C 1_555 1_555
H16C C9C 1_555 1_555
H17C C9C 1_555 1_555
C10C O5C 1_555 1_555
C11C C5C 1_555 1_555
H18C C11C 1_555 1_555
H19C C11C 1_555 1_555
C12C O8C 1_555 1_555
O4 C8 1_555 1_555
O6 U1C_2 1_555 1_555
O8 U1A 1_555 1_555
C5 C6 1_555 1_555
C7 C8 1_555 1_555
O4C C8C 1_555 1_555
O6C C10C 1_555 1_555
C5C C6C 1_555 1_555
C7C C8C 1_555 1_555
C9C C10C 1_555 1_555
C11C C12C 1_555 1_555

#END
