
#######################################################################
#
#                 Cambridge Crystallographic Data Centre
#                                CCDC 
#
#######################################################################
#
# If this CIF has been generated from an entry in the Cambridge 
# Structural Database, then it will include bibliographic, chemical, 
# crystal, experimental, refinement or atomic coordinate data resulting 
# from the CCDC's data processing and validation procedures.
#
#######################################################################

data_NUDDEX
_symmetry_cell_setting           triclinic
_symmetry_space_group_name_H-M   'P -1'
_symmetry_Int_Tables_number      2
_space_group_name_Hall           '-P 1'
loop_
_symmetry_equiv_pos_site_id
_symmetry_equiv_pos_as_xyz
1 x,y,z
2 -x,-y,-z
_cell_length_a                   8.252(6)
_cell_length_b                   9.073(6)
_cell_length_c                   16.414(11)
_cell_angle_alpha                88.681(9)
_cell_angle_beta                 80.237(9)
_cell_angle_gamma                70.809(8)
_cell_volume                     1143.11
loop_
_atom_site_label
_atom_site_type_symbol
_atom_site_fract_x
_atom_site_fract_y
_atom_site_fract_z
Mo1 Mo 0.04738(13) 0.63512(12) 0.54546(6)
Mo2 Mo -0.04337(15) 0.51596(12) 0.18726(6)
Mo3 Mo 0.09009(14) 0.70893(12) 0.35171(6)
Mo4 Mo -0.02094(16) 0.32416(13) -0.01417(7)
Cu1 Cu 0.03482(19) 1.11123(17) 0.26556(9)
O1 O 0.4726(11) 0.8333(10) 0.4697(5)
O2 O 0.0339(14) 1.0086(12) 0.1491(6)
H1 H 0.08(2) 1.04(2) 0.104(6)
H2 H 0.05(3) 0.918(9) 0.132(11)
O3 O 0.0143(13) 0.8921(11) 0.3120(5)
O4 O 0.3087(14) 0.6544(12) 0.3239(7)
O5 O 0.0710(12) 0.7812(10) 0.4634(5)
O6 O 0.2550(12) 0.5455(11) 0.5587(6)
O7 O -0.0452(12) 0.7638(11) 0.6311(6)
O8 O 0.0567(12) 0.5262(10) 0.4292(5)
O9 O 0.0348(16) 0.5891(12) 0.2729(6)
O10 O 0.0518(13) 0.3148(11) 0.1939(6)
O11 O -0.2550(15) 0.5556(13) 0.2279(7)
O12 O -0.0784(14) 0.4955(12) 0.0681(6)
O13 O 0.1531(15) 0.1862(12) 0.0163(6)
O14 O -0.1917(16) 0.2548(14) 0.0199(7)
O15 O -0.0215(13) 0.7142(11) 0.1291(6)
N1 N 0.7505(14) 0.7902(12) 0.4177(6)
N2 N 0.2910(14) 1.0149(12) 0.2566(7)
N3 N 0.7363(14) 0.7552(12) 0.5025(6)
C1 C 0.4010(16) 1.0136(14) 0.1860(8)
H3 H 0.3551 1.0564 0.1381
C2 C 0.5801(17) 0.9511(17) 0.1814(8)
H4 H 0.6561 0.9470 0.1304
C3 C 0.6471(17) 0.8943(14) 0.2528(8)
H5 H 0.7692 0.8563 0.2520
C4 C 0.5297(18) 0.8945(16) 0.3260(8)
C5 C 0.3531(16) 0.9560(14) 0.3239(8)
H6 H 0.2730 0.9560 0.3729
C6 C 0.5940(18) 0.8357(16) 0.4012(8)
C7 C 0.5726(15) 0.7818(13) 0.5316(7)
C8 C 0.4855(15) 0.7633(13) 0.6134(7)
C9 C 0.5844(17) 0.6990(15) 0.6755(9)
H7 H 0.7080 0.6638 0.6636
C10 C 0.4990(16) 0.6881(15) 0.7530(8)
H8 H 0.5626 0.6442 0.7958
C11 C 0.3190(16) 0.7418(15) 0.7685(7)
H9 H 0.2607 0.7338 0.8227
C12 C 0.3039(10) 0.8185(9) 0.6330(5)
H10 H 0.2371 0.8660 0.5919
N4 N 0.2229(10) 0.8050(9) 0.7098(5)
Mo1A Mo -0.04738(13) 0.36488(12) 0.45454(6)
Mo4A Mo 0.02094(16) 0.67584(13) 0.01417(7)
Cu1_2 Cu 0.03482(19) 0.11123(17) 0.26556(9)
Cu1A Cu -0.03482(19) 0.88877(17) 0.73444(9)
O7A O 0.0452(12) 1.2362(11) 0.3689(6)
O8A O -0.0567(12) 0.4738(10) 0.5708(5)
O10_2 O 0.0518(13) 1.3148(11) 0.1939(6)
O12A O 0.0784(14) 0.5045(12) -0.0681(6)
O15A O 0.0215(13) 0.2858(11) -0.1291(6)
N4A N -0.2229(10) 1.1950(9) 0.2902(5)
O16 O 0.2560(18) 0.4708(15) 0.0866(9)
H11 H 0.27(3) 0.381(9) 0.105(11)
H12 H 0.31(3) 0.48(2) 0.039(6)
O17 O -0.4865(18) 0.181(2) 0.0105(10)
H13 H -0.52(3) 0.102(18) 0.00(2)
H14 H -0.392(16) 0.20(3) 0.002(19)
O18 O 0.471(3) 0.6245(18) 0.1255(9)
H15 H 0.49(4) 0.62(4) 0.175(6)
H16 H 0.38(2) 0.66(3) 0.102(17)
loop_
_geom_bond_atom_site_label_1
_geom_bond_atom_site_label_2
_geom_bond_site_symmetry_1
_geom_bond_site_symmetry_2
Mo1 O5 1_555 1_555
Mo2 O9 1_555 1_555
Mo3 O3 1_555 1_555
Mo4 O12 1_555 1_555
Cu1 O2 1_555 1_555
O1 C6 1_555 1_555
O2 H1 1_555 1_555
H2 O2 1_555 1_555
O3 Cu1 1_555 1_555
O4 Mo3 1_555 1_555
O5 Mo3 1_555 1_555
O6 Mo1 1_555 1_555
O7 Mo1 1_555 1_555
O8 Mo1 1_555 1_555
O9 Mo3 1_555 1_555
O10 Mo2 1_555 1_555
O11 Mo2 1_555 1_555
O12 Mo2 1_555 1_555
O13 Mo4 1_555 1_555
O14 Mo4 1_555 1_555
O15 Mo2 1_555 1_555
N1 N3 1_555 1_555
N2 Cu1 1_555 1_555
N3 C7 1_555 1_555
C1 N2 1_555 1_555
H3 C1 1_555 1_555
C2 C1 1_555 1_555
H4 C2 1_555 1_555
C3 C2 1_555 1_555
H5 C3 1_555 1_555
C4 C3 1_555 1_555
C5 N2 1_555 1_555
H6 C5 1_555 1_555
C6 N1 1_555 1_555
C7 O1 1_555 1_555
C8 C7 1_555 1_555
C9 C8 1_555 1_555
H7 C9 1_555 1_555
C10 C9 1_555 1_555
H8 C10 1_555 1_555
C11 C10 1_555 1_555
H9 C11 1_555 1_555
C12 C8 1_555 1_555
H10 C12 1_555 1_555
N4 C11 1_555 1_555
O16 H11 1_555 1_555
H12 O16 1_555 1_555
O17 H13 1_555 1_555
H14 O17 1_555 1_555
O18 H15 1_555 1_555
H16 O18 1_555 1_555
Mo1A O8 1_555 1_555
Mo4A O12 1_555 1_555
Cu1_2 O10 1_555 1_555
Cu1A O7 1_555 1_555
O7A Cu1 1_555 1_555
O8A Mo1 1_555 1_555
O10_2 Cu1 1_555 1_555
O12A Mo4 1_555 1_555
O15A Mo4 1_555 1_555
N4A Cu1 1_555 1_555
Mo3 O8 1_555 1_555
O15 Mo4A 1_555 1_555
C4 C5 1_555 1_555
C4 C6 1_555 1_555
C12 N4 1_555 1_555
N4 Cu1A 1_555 1_555
Mo1A O8A 1_555 1_555
Mo4A O12A 1_555 1_555

#END
