
#######################################################################
#
#                 Cambridge Crystallographic Data Centre
#                                CCDC 
#
#######################################################################
#
# If this CIF has been generated from an entry in the Cambridge 
# Structural Database, then it will include bibliographic, chemical, 
# crystal, experimental, refinement or atomic coordinate data resulting 
# from the CCDC's data processing and validation procedures.
#
#######################################################################

data_NUDDIA
_symmetry_cell_setting           triclinic
_symmetry_space_group_name_H-M   'P -1'
_symmetry_Int_Tables_number      2
_space_group_name_Hall           '-P 1'
loop_
_symmetry_equiv_pos_site_id
_symmetry_equiv_pos_as_xyz
1 x,y,z
2 -x,-y,-z
_cell_length_a                   9.6482(13)
_cell_length_b                   20.919(3)
_cell_length_c                   24.637(4)
_cell_angle_alpha                93.772(8)
_cell_angle_beta                 94.669(6)
_cell_angle_gamma                96.706(4)
_cell_volume                     4907.84
loop_
_atom_site_label
_atom_site_type_symbol
_atom_site_fract_x
_atom_site_fract_y
_atom_site_fract_z
Zn1 Zn 0.13600(4) 0.899892(18) 0.258794(15)
Zn2 Zn 0.32170(4) 1.025514(19) 0.363014(19)
Zn3 Zn 1.18200(4) 0.486730(18) 0.133980(16)
Zn4 Zn 1.31356(4) 0.622370(17) 0.242150(14)
O1 O 0.2448(3) 0.88790(16) 0.19704(12)
O2 O 0.3873(4) 0.96718(16) 0.24008(14)
O3 O 0.6693(3) 0.92210(15) 0.01670(11)
O4 O 0.9246(3) 0.80409(12) 0.00268(11)
O5 O 1.1227(3) 0.57131(12) 0.12692(13)
O6 O 1.2549(3) 0.65408(12) 0.17317(10)
O7 O 1.2208(3) 0.58165(13) 0.30213(12)
O8 O 1.0989(3) 0.65627(18) 0.27534(13)
O9 O 0.7966(2) 0.57088(12) 0.48450(10)
O10 O 0.4640(3) 0.69354(11) 0.50021(10)
O11 O 0.1971(3) 0.85979(12) 0.32393(10)
O12 O 0.3518(3) 0.93548(11) 0.37005(10)
O13 O 0.0291(3) 0.97047(13) 0.27503(13)
O14 O 0.1715(3) 1.05508(13) 0.31338(12)
O15 O -0.3853(2) 1.17459(12) 0.23901(10)
O16 O -0.4191(4) 1.17952(15) 0.06433(11)
O17 O -0.0347(3) 1.44598(15) 0.06863(14)
O18 O 0.0456(3) 1.41482(13) 0.14758(11)
O19 O 0.4585(3) 1.56611(12) 0.22761(11)
O20 O 0.3329(3) 1.47496(12) 0.19155(10)
O21 O 0.9066(3) 1.37579(12) 0.27090(11)
O22 O 0.9230(3) 1.33032(13) 0.43948(11)
O23 O 0.5582(3) 1.05744(15) 0.42853(15)
O24 O 0.4613(3) 1.09664(13) 0.35551(11)
N1 N -0.0386(3) 0.83573(13) 0.22931(11)
N2 N -0.2846(3) 0.53401(14) -0.06658(12)
N3 N 0.5553(3) 1.29805(13) 0.72403(10)
N4 N 0.2327(3) 1.04303(14) 0.43526(13)
C1 C 0.3544(4) 0.92816(19) 0.20041(16)
C2 C 0.4415(4) 0.92512(17) 0.15249(15)
C3 C 0.5558(5) 0.97089(19) 0.15004(18)
H1 H 0.5805 1.0018 0.1792
C4 C 0.6344(4) 0.97219(19) 0.10580(18)
H2 H 0.7106 1.0037 0.1051
C5 C 0.5992(4) 0.92657(19) 0.06267(15)
C6 C 0.4869(4) 0.8795(2) 0.06523(16)
H3 H 0.4633 0.8479 0.0366
C7 C 0.4105(4) 0.8791(2) 0.10947(16)
H4 H 0.3357 0.8470 0.1105
C8 C 0.7787(4) 0.97237(19) 0.00941(17)
H5 H 0.8459 0.9790 0.0414
H6 H 0.7401 1.0125 0.0040
C9 C 0.8482(4) 0.95170(17) -0.03977(15)
C10 C 0.8242(5) 0.9816(2) -0.08807(18)
H7 H 0.7652 1.0137 -0.0891
C11 C 0.8860(6) 0.9644(3) -0.13382(18)
H8 H 0.8691 0.9848 -0.1657
C12 C 0.9728(6) 0.9172(3) -0.13299(18)
H9 H 1.0150 0.9055 -0.1641
C13 C 0.9970(5) 0.8873(2) -0.08600(18)
H10 H 1.0554 0.8550 -0.0857
C14 C 0.9369(4) 0.90402(17) -0.03899(15)
C15 C 0.9724(5) 0.87099(18) 0.01179(17)
H11 H 1.0730 0.8772 0.0210
H12 H 0.9281 0.8895 0.0421
C16 C 0.9788(4) 0.76401(16) 0.03832(14)
C17 C 0.9526(4) 0.69828(18) 0.02326(16)
H13 H 0.8964 0.6836 -0.0086
C18 C 1.0093(4) 0.65498(17) 0.05529(15)
H14 H 0.9904 0.6110 0.0451
C19 C 1.0944(3) 0.67592(15) 0.10261(13)
C20 C 1.1150(4) 0.74141(16) 0.11815(13)
H15 H 1.1690 0.7559 0.1506
C21 C 1.0574(4) 0.78598(16) 0.08672(14)
H16 H 1.0714 0.8297 0.0980
C22 C 1.1618(3) 0.63025(15) 0.13662(13)
C23 C 1.1203(4) 0.61432(17) 0.30695(15)
C24 C 1.0329(3) 0.60329(15) 0.35326(13)
C25 C 0.9149(4) 0.6335(2) 0.35834(17)
H17 H 0.8893 0.6610 0.3321
C26 C 0.8334(4) 0.6240(2) 0.40129(17)
H18 H 0.7533 0.6445 0.4035
C27 C 0.8711(3) 0.58403(16) 0.44110(13)
C28 C 0.9899(4) 0.55445(18) 0.43667(15)
H19 H 1.0173 0.5279 0.4633
C29 C 1.0688(4) 0.56377(17) 0.39317(15)
H20 H 1.1482 0.5428 0.3907
C30 C 0.6691(3) 0.59956(17) 0.48749(14)
H21 H 0.6107 0.5893 0.4534
H22 H 0.6908 0.6461 0.4928
C31 C 0.5911(3) 0.57526(14) 0.53367(13)
C32 C 0.6499(4) 0.53857(16) 0.57222(14)
H23 H 0.7402 0.5280 0.5694
C33 C 0.5757(4) 0.51736(17) 0.61487(15)
H24 H 0.6164 0.4930 0.6406
C34 C 0.4419(4) 0.53247(19) 0.61895(16)
H25 H 0.3917 0.5184 0.6475
C35 C 0.3819(4) 0.56876(17) 0.58033(15)
H26 H 0.2908 0.5783 0.5829
C36 C 0.4556(3) 0.59107(15) 0.53790(13)
C37 C 0.3875(4) 0.62990(15) 0.49673(14)
H27 H 0.3879 0.6093 0.4603
H28 H 0.2910 0.6326 0.5040
C38 C 0.4182(4) 0.73605(16) 0.46526(13)
C39 C 0.3078(4) 0.72024(16) 0.42489(14)
H29 H 0.2613 0.6785 0.4202
C40 C 0.2679(4) 0.76703(16) 0.39187(14)
H30 H 0.1950 0.7562 0.3645
C41 C 0.3347(3) 0.83006(15) 0.39875(13)
C42 C 0.4448(4) 0.84515(16) 0.43954(13)
H31 H 0.4903 0.8871 0.4448
C43 C 0.4873(4) 0.79873(16) 0.47225(14)
H32 H 0.5619 0.8092 0.4989
C44 C 0.2920(3) 0.87902(15) 0.36189(12)
C45 C 0.0564(3) 1.02903(16) 0.29141(13)
C46 C -0.0609(3) 1.06899(16) 0.28280(13)
C47 C -0.1979(4) 1.03927(16) 0.27688(14)
H33 H -0.2154 0.9951 0.2805
C48 C -0.3094(4) 1.07391(17) 0.26575(14)
H34 H -0.4010 1.0539 0.2646
C49 C -0.2835(4) 1.13826(16) 0.25645(13)
C50 C -0.1474(4) 1.17011(17) 0.26543(15)
H35 H -0.1307 1.2143 0.2621
C51 C -0.0375(4) 1.13565(17) 0.27935(15)
H36 H 0.0528 1.1571 0.2865
C52 C -0.5262(4) 1.14155(18) 0.22486(16)
H37 H -0.5730 1.1344 0.2577
H38 H -0.5221 1.1000 0.2055
C53 C -0.6050(4) 1.18289(18) 0.18941(14)
C54 C -0.7053(4) 1.2167(2) 0.2116(2)
H39 H -0.7214 1.2136 0.2481
C55 C -0.7815(5) 1.2550(3) 0.1799(2)
H40 H -0.8479 1.2777 0.1952
C56 C -0.7595(6) 1.2596(3) 0.1262(2)
H41 H -0.8095 1.2858 0.1050
C57 C -0.6623(5) 1.2248(2) 0.1037(2)
H42 H -0.6497 1.2270 0.0669
C58 C -0.5833(4) 1.18698(18) 0.13424(15)
C59 C -0.4819(5) 1.14786(18) 0.10730(16)
H43 H -0.4090 1.1398 0.1346
H44 H -0.5314 1.1065 0.0927
C60 C -0.3279(4) 1.23505(19) 0.07831(16)
C61 C -0.2507(4) 1.24868(19) 0.12847(16)
H45 H -0.2616 1.2208 0.1562
C62 C -0.1561(4) 1.30501(18) 0.13667(15)
H46 H -0.1016 1.3138 0.1698
C63 C -0.1419(4) 1.34774(17) 0.09696(16)
C64 C -0.2216(4) 1.3328(2) 0.04691(18)
H47 H -0.2128 1.3612 0.0196
C65 C -0.3129(5) 1.2767(2) 0.03730(17)
H48 H -0.3641 1.2669 0.0035
C66 C -0.0391(4) 1.40729(18) 0.10401(17)
C67 C 0.4438(3) 1.50653(16) 0.21358(13)
C68 C 0.5693(3) 1.47223(15) 0.22518(13)
C69 C 0.6986(4) 1.50703(18) 0.23990(16)
H49 H 0.7076 1.5518 0.2406
C70 C 0.8152(4) 1.47698(19) 0.25356(18)
H50 H 0.9022 1.5013 0.2622
C71 C 0.8017(4) 1.41037(17) 0.25432(15)
C72 C 0.6726(4) 1.37464(17) 0.23849(15)
H51 H 0.6634 1.3299 0.2382
C73 C 0.5585(3) 1.40504(16) 0.22330(14)
H52 H 0.4732 1.3806 0.2117
C74 C 1.0410(4) 1.4125(2) 0.29104(17)
H53 H 1.0267 1.4490 0.3155
H54 H 1.0895 1.4286 0.2608
C75 C 1.1258(4) 1.36776(19) 0.32093(15)
C76 C 1.2497(4) 1.3527(2) 0.30077(18)
H55 H 1.2769 1.3692 0.2686
C77 C 1.3325(5) 1.3135(3) 0.3281(2)
H56 H 1.4167 1.3050 0.3150
C78 C 1.2917(5) 1.2869(2) 0.3746(2)
H57 H 1.3453 1.2589 0.3921
C79 C 1.1694(4) 1.3025(2) 0.39512(18)
H58 H 1.1414 1.2847 0.4267
C80 C 1.0890(3) 1.34341(17) 0.36985(16)
C81 C 0.9689(4) 1.36803(18) 0.39733(19)
H59 H 0.9980 1.4120 0.4125
H60 H 0.8909 1.3689 0.3701
C82 C 0.8354(4) 1.27431(17) 0.42433(15)
C83 C 0.8465(4) 1.22481(19) 0.45840(17)
H61 H 0.9143 1.2296 0.4879
C84 C 0.7566(4) 1.16834(19) 0.44832(17)
H62 H 0.7645 1.1351 0.4712
C85 C 0.6547(3) 1.16027(16) 0.40467(15)
C86 C 0.6436(4) 1.21000(17) 0.37163(15)
H63 H 0.5743 1.2054 0.3426
C87 C 0.7337(5) 1.26707(17) 0.38061(16)
H64 H 0.7260 1.3001 0.3575
C88 C 0.5541(4) 1.10035(18) 0.39616(17)
C89 C -0.0429(4) 0.77300(17) 0.23640(15)
H65 H 0.0300 0.7592 0.2579
C90 C -0.1494(4) 0.7278(2) 0.21360(16)
H66 H -0.1469 0.6845 0.2194
C91 C -0.2604(4) 0.7465(2) 0.18203(16)
C92 C -0.2552(4) 0.8119(2) 0.17469(17)
H67 H -0.3270 0.8269 0.1535
C93 C -0.1447(4) 0.85460(19) 0.19853(16)
H68 H -0.1437 0.8982 0.1931
C94 C -0.3771(5) 0.6970(2) 0.15584(18)
H69 H -0.4600 0.7178 0.1471
H70 H -0.4002 0.6647 0.1812
C95 C -0.3336(5) 0.6652(2) 0.10500(18)
H71 H -0.2438 0.6498 0.1132
H72 H -0.3215 0.6969 0.0782
C96 C -0.4409(5) 0.6078(3) 0.07996(19)
H73 H -0.4521 0.5754 0.1061
H74 H -0.5312 0.6228 0.0717
C97 C -0.3917(4) 0.5788(2) 0.02875(17)
C98 C -0.4350(5) 0.5988(2) -0.02211(19)
H75 H -0.5008 0.6278 -0.0249
C99 C -0.3800(4) 0.5753(2) -0.06836(17)
H76 H -0.4107 0.5887 -0.1020
C100 C -0.2432(4) 0.51450(19) -0.01770(16)
H77 H -0.1766 0.4858 -0.0159
C101 C -0.2951(5) 0.5352(2) 0.02970(17)
H78 H -0.2649 0.5198 0.0626
C102 C 0.4526(4) 1.30545(18) 0.68625(17)
H79 H 0.4424 1.3469 0.6763
C103 C 0.3613(5) 1.25478(18) 0.66134(17)
H80 H 0.2920 1.2624 0.6349
C104 C 0.3716(4) 1.19239(16) 0.67538(14)
C105 C 0.4766(4) 1.18516(17) 0.71493(15)
H81 H 0.4875 1.1443 0.7262
C106 C 0.5657(4) 1.23807(17) 0.73793(14)
H82 H 0.6363 1.2317 0.7643
C107 C 0.2769(4) 1.13526(19) 0.64804(17)
H83 H 0.3288 1.1134 0.6219
H84 H 0.2546 1.1055 0.6756
C108 C 0.1417(4) 1.1486(2) 0.61877(19)
H85 H 0.0834 1.1656 0.6452
H86 H 0.1616 1.1813 0.5934
C109 C 0.0602(4) 1.0876(3) 0.5871(2)
H87 H -0.0368 1.0947 0.5792
H88 H 0.0617 1.0515 0.6098
C110 C 0.1214(4) 1.07100(19) 0.53430(18)
C111 C 0.2150(4) 1.02616(19) 0.52961(16)
H89 H 0.2420 1.0042 0.5596
C112 C 0.2681(4) 1.01428(17) 0.48018(16)
H90 H 0.3322 0.9845 0.4780
C113 C 0.0871(4) 1.1018(2) 0.48814(19)
H91 H 0.0255 1.1327 0.4896
C114 C 0.1430(4) 1.0872(2) 0.44006(19)
H92 H 0.1178 1.1087 0.4096
Zn3_2 Zn 0.18200(4) 1.486730(18) 0.133980(16)
Zn3A Zn -0.18200(4) 0.513270(18) -0.133980(16)
Zn4_2 Zn 0.31356(4) 1.622370(17) 0.242150(14)
Zn4A Zn 0.68644(4) 1.377630(17) 0.757850(14)
O18_2 O 1.0456(3) 0.41482(13) 0.14758(11)
O19_2 O 1.4585(3) 0.56611(12) 0.22761(11)
O20_2 O 1.3329(3) 0.47496(12) 0.19155(10)
N2A N 1.2846(3) 0.46599(14) 0.06658(12)
N3A N 1.4447(3) 0.70195(13) 0.27597(10)
loop_
_geom_bond_atom_site_label_1
_geom_bond_atom_site_label_2
_geom_bond_site_symmetry_1
_geom_bond_site_symmetry_2
Zn1 O1 1_555 1_555
Zn2 O12 1_555 1_555
Zn3 O5 1_555 1_555
Zn4 O6 1_555 1_555
O1 C1 1_555 1_555
O2 C1 1_555 1_555
O3 C5 1_555 1_555
O4 C15 1_555 1_555
O5 C22 1_555 1_555
O6 C22 1_555 1_555
O7 Zn4 1_555 1_555
O8 C23 1_555 1_555
O9 C27 1_555 1_555
O10 C37 1_555 1_555
O11 Zn1 1_555 1_555
O12 C44 1_555 1_555
O13 Zn1 1_555 1_555
O14 Zn2 1_555 1_555
O15 C49 1_555 1_555
O16 C59 1_555 1_555
O17 C66 1_555 1_555
O18 C66 1_555 1_555
O19 C67 1_555 1_555
O20 C67 1_555 1_555
O21 C71 1_555 1_555
O22 C81 1_555 1_555
O23 C88 1_555 1_555
O24 Zn2 1_555 1_555
N1 Zn1 1_555 1_555
N2 C99 1_555 1_555
N3 C102 1_555 1_555
N4 Zn2 1_555 1_555
C1 C2 1_555 1_555
C2 C3 1_555 1_555
C3 H1 1_555 1_555
C4 C3 1_555 1_555
H2 C4 1_555 1_555
C5 C4 1_555 1_555
C6 C5 1_555 1_555
H3 C6 1_555 1_555
C7 C2 1_555 1_555
H4 C7 1_555 1_555
C8 O3 1_555 1_555
H5 C8 1_555 1_555
H6 C8 1_555 1_555
C9 C8 1_555 1_555
C10 C9 1_555 1_555
H7 C10 1_555 1_555
C11 C10 1_555 1_555
H8 C11 1_555 1_555
C12 C11 1_555 1_555
H9 C12 1_555 1_555
C13 C12 1_555 1_555
H10 C13 1_555 1_555
C14 C9 1_555 1_555
C15 C14 1_555 1_555
H11 C15 1_555 1_555
H12 C15 1_555 1_555
C16 O4 1_555 1_555
C17 C16 1_555 1_555
H13 C17 1_555 1_555
C18 C17 1_555 1_555
H14 C18 1_555 1_555
C19 C18 1_555 1_555
C20 C19 1_555 1_555
H15 C20 1_555 1_555
C21 C16 1_555 1_555
H16 C21 1_555 1_555
C22 C19 1_555 1_555
C23 O7 1_555 1_555
C24 C23 1_555 1_555
C25 C24 1_555 1_555
H17 C25 1_555 1_555
C26 C25 1_555 1_555
H18 C26 1_555 1_555
C27 C26 1_555 1_555
C28 C27 1_555 1_555
H19 C28 1_555 1_555
C29 C24 1_555 1_555
H20 C29 1_555 1_555
C30 O9 1_555 1_555
H21 C30 1_555 1_555
H22 C30 1_555 1_555
C31 C30 1_555 1_555
C32 C31 1_555 1_555
H23 C32 1_555 1_555
C33 C32 1_555 1_555
H24 C33 1_555 1_555
C34 C33 1_555 1_555
H25 C34 1_555 1_555
C35 C34 1_555 1_555
H26 C35 1_555 1_555
C36 C31 1_555 1_555
C37 C36 1_555 1_555
H27 C37 1_555 1_555
H28 C37 1_555 1_555
C38 O10 1_555 1_555
C39 C38 1_555 1_555
H29 C39 1_555 1_555
C40 C39 1_555 1_555
H30 C40 1_555 1_555
C41 C40 1_555 1_555
C42 C41 1_555 1_555
H31 C42 1_555 1_555
C43 C38 1_555 1_555
H32 C43 1_555 1_555
C44 O11 1_555 1_555
C45 O13 1_555 1_555
C46 C45 1_555 1_555
C47 C46 1_555 1_555
H33 C47 1_555 1_555
C48 C47 1_555 1_555
H34 C48 1_555 1_555
C49 C48 1_555 1_555
C50 C49 1_555 1_555
H35 C50 1_555 1_555
C51 C46 1_555 1_555
H36 C51 1_555 1_555
C52 O15 1_555 1_555
H37 C52 1_555 1_555
H38 C52 1_555 1_555
C53 C52 1_555 1_555
C54 C53 1_555 1_555
H39 C54 1_555 1_555
C55 C54 1_555 1_555
H40 C55 1_555 1_555
C56 C55 1_555 1_555
H41 C56 1_555 1_555
C57 C56 1_555 1_555
H42 C57 1_555 1_555
C58 C53 1_555 1_555
C59 C58 1_555 1_555
H43 C59 1_555 1_555
H44 C59 1_555 1_555
C60 O16 1_555 1_555
C61 C60 1_555 1_555
H45 C61 1_555 1_555
C62 C61 1_555 1_555
H46 C62 1_555 1_555
C63 C62 1_555 1_555
C64 C63 1_555 1_555
H47 C64 1_555 1_555
C65 C60 1_555 1_555
H48 C65 1_555 1_555
C66 C63 1_555 1_555
C67 C68 1_555 1_555
C68 C69 1_555 1_555
C69 H49 1_555 1_555
C70 C69 1_555 1_555
H50 C70 1_555 1_555
C71 C70 1_555 1_555
C72 C71 1_555 1_555
H51 C72 1_555 1_555
C73 C68 1_555 1_555
H52 C73 1_555 1_555
C74 O21 1_555 1_555
H53 C74 1_555 1_555
H54 C74 1_555 1_555
C75 C74 1_555 1_555
C76 C75 1_555 1_555
H55 C76 1_555 1_555
C77 C76 1_555 1_555
H56 C77 1_555 1_555
C78 C77 1_555 1_555
H57 C78 1_555 1_555
C79 C78 1_555 1_555
H58 C79 1_555 1_555
C80 C75 1_555 1_555
C81 C80 1_555 1_555
H59 C81 1_555 1_555
H60 C81 1_555 1_555
C82 O22 1_555 1_555
C83 C82 1_555 1_555
H61 C83 1_555 1_555
C84 C83 1_555 1_555
H62 C84 1_555 1_555
C85 C84 1_555 1_555
C86 C85 1_555 1_555
H63 C86 1_555 1_555
C87 C82 1_555 1_555
H64 C87 1_555 1_555
C88 O24 1_555 1_555
C89 N1 1_555 1_555
H65 C89 1_555 1_555
C90 C89 1_555 1_555
H66 C90 1_555 1_555
C91 C90 1_555 1_555
C92 C91 1_555 1_555
H67 C92 1_555 1_555
C93 N1 1_555 1_555
H68 C93 1_555 1_555
C94 C91 1_555 1_555
H69 C94 1_555 1_555
H70 C94 1_555 1_555
C95 C94 1_555 1_555
H71 C95 1_555 1_555
H72 C95 1_555 1_555
C96 C95 1_555 1_555
H73 C96 1_555 1_555
H74 C96 1_555 1_555
C97 C96 1_555 1_555
C98 C97 1_555 1_555
H75 C98 1_555 1_555
C99 C98 1_555 1_555
H76 C99 1_555 1_555
C100 N2 1_555 1_555
H77 C100 1_555 1_555
C101 C97 1_555 1_555
H78 C101 1_555 1_555
C102 H79 1_555 1_555
C103 C102 1_555 1_555
H80 C103 1_555 1_555
C104 C103 1_555 1_555
C105 C104 1_555 1_555
H81 C105 1_555 1_555
C106 N3 1_555 1_555
H82 C106 1_555 1_555
C107 C104 1_555 1_555
H83 C107 1_555 1_555
H84 C107 1_555 1_555
C108 C107 1_555 1_555
H85 C108 1_555 1_555
H86 C108 1_555 1_555
C109 C108 1_555 1_555
H87 C109 1_555 1_555
H88 C109 1_555 1_555
C110 C109 1_555 1_555
C111 C110 1_555 1_555
H89 C111 1_555 1_555
C112 N4 1_555 1_555
H90 C112 1_555 1_555
C113 C110 1_555 1_555
H91 C113 1_555 1_555
C114 N4 1_555 1_555
H92 C114 1_555 1_555
Zn3_2 O18 1_555 1_555
Zn3A N2 1_555 1_555
Zn4_2 O19 1_555 1_555
Zn4A N3 1_555 1_555
O18_2 Zn3 1_555 1_555
O19_2 Zn4 1_555 1_555
O20_2 Zn3 1_555 1_555
N2A Zn3 1_555 1_555
N3A Zn4 1_555 1_555
O14 C45 1_555 1_555
O20 Zn3_2 1_555 1_555
C6 C7 1_555 1_555
C13 C14 1_555 1_555
C20 C21 1_555 1_555
C28 C29 1_555 1_555
C35 C36 1_555 1_555
C41 C44 1_555 1_555
C42 C43 1_555 1_555
C50 C51 1_555 1_555
C57 C58 1_555 1_555
C64 C65 1_555 1_555
C72 C73 1_555 1_555
C79 C80 1_555 1_555
C85 C88 1_555 1_555
C86 C87 1_555 1_555
C92 C93 1_555 1_555
C100 C101 1_555 1_555
C105 C106 1_555 1_555
C111 C112 1_555 1_555
C113 C114 1_555 1_555

#END
