
#######################################################################
#
#                 Cambridge Crystallographic Data Centre
#                                CCDC 
#
#######################################################################
#
# If this CIF has been generated from an entry in the Cambridge 
# Structural Database, then it will include bibliographic, chemical, 
# crystal, experimental, refinement or atomic coordinate data resulting 
# from the CCDC's data processing and validation procedures.
#
#######################################################################

data_NUDDOG
_symmetry_cell_setting           orthorhombic
_symmetry_space_group_name_H-M   'P b c a'
_symmetry_Int_Tables_number      61
_space_group_name_Hall           '-P 2ac 2ab'
loop_
_symmetry_equiv_pos_site_id
_symmetry_equiv_pos_as_xyz
1 x,y,z
2 1/2-x,-y,1/2+z
3 -x,1/2+y,1/2-z
4 1/2+x,1/2-y,-z
5 -x,-y,-z
6 1/2+x,y,1/2-z
7 x,1/2-y,1/2+z
8 1/2-x,1/2+y,z
_cell_length_a                   8.5125(8)
_cell_length_b                   11.5690(8)
_cell_length_c                   25.143(2)
_cell_angle_alpha                90
_cell_angle_beta                 90
_cell_angle_gamma                90
_cell_volume                     2476.11
loop_
_atom_site_label
_atom_site_type_symbol
_atom_site_fract_x
_atom_site_fract_y
_atom_site_fract_z
U1 U 0.65838(6) 0.27744(4) 0.419657(19)
O1 O 0.6253(12) 0.2848(9) 0.4888(4)
O2 O 0.6938(14) 0.2684(11) 0.3519(4)
O3 O 0.5087(13) 0.4596(9) 0.4096(5)
O4 O 0.3778(13) 0.3043(10) 0.4063(5)
O5 O -0.0712(15) 0.5926(10) 0.4208(5)
O6 O -0.1535(13) 0.4208(10) 0.4308(5)
O7 O 0.9001(12) 0.1717(9) 0.4353(5)
H1 H 0.9316 0.1986 0.4702
H2 H 0.9770 0.1271 0.4250
C1 C 0.3804(18) 0.4115(12) 0.4091(7)
C2 C 0.252(2) 0.4879(18) 0.4245(6)
H3 H 0.2781 0.5678 0.4168
H4 H 0.2300 0.4807 0.4622
C3 C 0.1172(17) 0.4506(18) 0.3930(4)
H5 H 0.1180 0.3661 0.3951
C4 C -0.0451(15) 0.4876(12) 0.4159(6)
C5 C 0.1331(15) 0.4770(10) 0.3360(3)
C6 C 0.0702(15) 0.3993(9) 0.2996(5)
H6 H 0.0286 0.3295 0.3114
C7 C 0.0696(15) 0.4259(11) 0.2457(4)
H7 H 0.0275 0.3739 0.2214
C8 C 0.1318(14) 0.5303(11) 0.2282(3)
H8 H 0.1313 0.5481 0.1921
C9 C 0.1947(15) 0.6080(9) 0.2646(4)
H9 H 0.2363 0.6778 0.2529
C10 C 0.1954(15) 0.5814(10) 0.3185(4)
H10 H 0.2375 0.6334 0.3428
U1G U -0.15838(6) 0.77744(4) 0.419657(19)
U1_2 U -0.34162(6) 0.27744(4) 0.419657(19)
O5G O 0.5712(15) 0.0926(10) 0.4208(5)
O6_2 O 0.8465(13) 0.4208(10) 0.4308(5)
loop_
_geom_bond_atom_site_label_1
_geom_bond_atom_site_label_2
_geom_bond_site_symmetry_1
_geom_bond_site_symmetry_2
U1 O1 1_555 1_555
O2 U1 1_555 1_555
O3 U1 1_555 1_555
O4 U1 1_555 1_555
O5 C4 1_555 1_555
O6 C4 1_555 1_555
O7 U1 1_555 1_555
H1 O7 1_555 1_555
H2 O7 1_555 1_555
C1 O3 1_555 1_555
C2 C1 1_555 1_555
H3 C2 1_555 1_555
H4 C2 1_555 1_555
C3 C2 1_555 1_555
H5 C3 1_555 1_555
C4 C3 1_555 1_555
C5 C3 1_555 1_555
C6 C5 1_555 1_555
H6 C6 1_555 1_555
C7 C6 1_555 1_555
H7 C7 1_555 1_555
C8 C7 1_555 1_555
H8 C8 1_555 1_555
C9 C8 1_555 1_555
H9 C9 1_555 1_555
C10 C5 1_555 1_555
H10 C10 1_555 1_555
U1G O5 1_555 1_555
U1_2 O6 1_555 1_555
O5G U1 1_555 1_555
O6_2 U1 1_555 1_555
O4 C1 1_555 1_555
C9 C10 1_555 1_555

#END
