
#######################################################################
#
#                 Cambridge Crystallographic Data Centre
#                                CCDC 
#
#######################################################################
#
# If this CIF has been generated from an entry in the Cambridge 
# Structural Database, then it will include bibliographic, chemical, 
# crystal, experimental, refinement or atomic coordinate data resulting 
# from the CCDC's data processing and validation procedures.
#
#######################################################################

data_NUDDEW
_symmetry_cell_setting           triclinic
_symmetry_space_group_name_H-M   'P -1'
_symmetry_Int_Tables_number      2
_space_group_name_Hall           '-P 1'
loop_
_symmetry_equiv_pos_site_id
_symmetry_equiv_pos_as_xyz
1 x,y,z
2 -x,-y,-z
_cell_length_a                   13.027(4)
_cell_length_b                   14.108(4)
_cell_length_c                   15.051(5)
_cell_angle_alpha                71.014(14)
_cell_angle_beta                 72.299(13)
_cell_angle_gamma                71.348(15)
_cell_volume                     2415.75
loop_
_atom_site_label
_atom_site_type_symbol
_atom_site_fract_x
_atom_site_fract_y
_atom_site_fract_z
Zn1 Zn 0.26819(5) 0.14272(5) 0.48763(5)
Zn2 Zn 0.26152(5) 0.35468(5) 0.48338(5)
O1 O 0.1670(3) 0.2168(3) 0.3936(3)
O2 O 0.1884(3) 0.3736(3) 0.3736(3)
O3 O -1.1320(3) 0.8340(3) 0.4041(3)
O4 O -1.1134(3) 0.6648(4) 0.4278(3)
O5 O -0.1379(4) 0.4870(3) 0.0994(4)
O6 O -0.6522(3) 0.7041(3) 0.1431(3)
O7 O 0.3439(4) 0.2740(3) 0.5905(3)
O8 O 0.3710(3) 0.1158(3) 0.5747(3)
O9 O 1.6033(3) -0.1838(3) 0.6264(3)
O10 O 1.5906(3) -0.3322(3) 0.6147(3)
O11 O 0.6652(3) 0.0160(3) 0.8747(3)
O12 O 1.1503(3) -0.2317(4) 0.9275(4)
N1 N 0.2649(4) -0.0046(3) 0.4956(3)
N2 N 0.2595(4) -0.5016(3) 0.4901(3)
C1 C 0.1509(5) 0.3127(5) 0.3538(4)
C2 C 0.0799(4) 0.3569(5) 0.2824(4)
C3 C 0.0590(5) 0.4613(5) 0.2388(5)
H1 H 0.0941 0.5017 0.2517
C4 C -0.0127(5) 0.5082(5) 0.1764(5)
H2 H -0.0260 0.5791 0.1488
C5 C -0.0636(5) 0.4493(5) 0.1559(5)
C6 C -0.0368(5) 0.3417(5) 0.1945(5)
H3 H -0.0667 0.3002 0.1774
C7 C 0.0329(5) 0.2972(5) 0.2570(5)
H4 H 0.0489 0.2260 0.2827
C8 C -0.1853(5) 0.5966(5) 0.0780(5)
H5 H -0.1317 0.6327 0.0307
H6 H -0.2071 0.6211 0.1358
C9 C -0.2848(5) 0.6153(5) 0.0387(5)
C10 C -0.3868(5) 0.6053(5) 0.1000(5)
H7 H -0.3940 0.5907 0.1662
C11 C -0.4779(5) 0.6166(5) 0.0653(5)
C12 C -0.4645(6) 0.6409(6) -0.0334(5)
H8 H -0.5250 0.6501 -0.0586
C13 C -0.3653(6) 0.6517(7) -0.0951(6)
H9 H -0.3583 0.6684 -0.1614
C14 C -0.2763(5) 0.6377(6) -0.0578(5)
H10 H -0.2082 0.6437 -0.0997
C15 C -0.5854(5) 0.6040(5) 0.1326(6)
H11 H -0.6231 0.5727 0.1074
H12 H -0.5729 0.5594 0.1948
C16 C -0.7540(5) 0.7093(5) 0.2054(5)
C17 C -0.7936(5) 0.6244(5) 0.2620(5)
H13 H -0.7503 0.5580 0.2604
C18 C -0.8985(5) 0.6390(5) 0.3214(5)
H14 H -0.9252 0.5816 0.3595
C19 C -0.9652(5) 0.7368(5) 0.3258(4)
C20 C -0.9228(5) 0.8200(5) 0.2716(5)
H15 H -0.9651 0.8862 0.2753
C21 C -0.8183(5) 0.8076(5) 0.2113(5)
H16 H -0.7909 0.8652 0.1747
C22 C -1.0793(5) 0.7466(5) 0.3894(4)
C23 C 0.3857(5) 0.1791(5) 0.6105(4)
C24 C 0.4595(4) 0.1362(4) 0.6805(4)
C25 C 0.5237(5) 0.0361(5) 0.6908(5)
H17 H 0.5194 -0.0033 0.6537
C26 C 0.5937(5) -0.0077(5) 0.7532(5)
H18 H 0.6367 -0.0752 0.7581
C27 C 0.5985(5) 0.0513(5) 0.8088(4)
C28 C 0.5365(5) 0.1525(5) 0.7991(5)
H19 H 0.5412 0.1925 0.8354
C29 C 0.4682(5) 0.1932(5) 0.7355(4)
H20 H 0.4265 0.2613 0.7293
C30 C 0.7270(6) -0.0891(6) 0.8899(6)
H21 H 0.7745 -0.1024 0.8294
H22 H 0.6769 -0.1345 0.9151
C31 C 0.7964(6) -0.1087(5) 0.9605(6)
C32 C 0.9080(6) -0.1136(5) 0.9293(5)
H23 H 0.9402 -0.1018 0.8636
C33 C 0.9733(5) -0.1357(6) 0.9943(5)
C34 C 0.9265(6) -0.1524(6) 1.0898(6)
H24 H 0.9702 -0.1684 1.1339
C35 C 0.8124(7) -0.1456(7) 1.1223(6)
H25 H 0.7798 -0.1568 1.1878
C36 C 0.7505(6) -0.1227(7) 1.0577(6)
H26 H 0.6743 -0.1160 1.0794
C37 C 1.0948(5) -0.1390(7) 0.9572(6)
H27 H 1.1051 -0.0797 0.9032
H28 H 1.1253 -0.1366 1.0075
C38 C 1.2531(5) -0.2363(5) 0.8665(5)
C39 C 1.3116(5) -0.1614(6) 0.8398(5)
H29 H 1.2844 -0.1053 0.8670
C40 C 1.4109(5) -0.1710(6) 0.7721(5)
H30 H 1.4498 -0.1201 0.7535
C41 C 1.4539(5) -0.2539(5) 0.7316(4)
C42 C 1.3983(5) -0.3311(5) 0.7646(5)
H31 H 1.4282 -0.3899 0.7411
C43 C 1.2992(5) -0.3230(5) 0.8319(5)
H32 H 1.2634 -0.3764 0.8540
C44 C 1.5579(4) -0.2575(5) 0.6524(4)
C45 C 0.1862(5) -0.0181(5) 0.4652(5)
H33 H 0.1325 0.0399 0.4433
C46 C 0.1797(5) -0.1135(5) 0.4643(5)
H34 H 0.1229 -0.1193 0.4426
C47 C 0.2594(4) -0.2005(4) 0.4962(4)
C48 C 0.3408(5) -0.1866(4) 0.5278(5)
H35 H 0.3961 -0.2431 0.5493
C49 C 0.3401(5) -0.0884(5) 0.5273(4)
H36 H 0.3948 -0.0805 0.5503
C50 C 0.2590(5) -0.3053(4) 0.4948(4)
C51 C 0.3563(5) -0.3737(5) 0.4612(5)
H37 H 0.4237 -0.3551 0.4403
C52 C 0.3517(5) -0.4694(5) 0.4591(5)
H38 H 0.4169 -0.5134 0.4347
C53 C 0.1653(5) -0.4363(5) 0.5233(5)
H39 H 0.0994 -0.4576 0.5458
C54 C 0.1637(5) -0.3388(5) 0.5250(5)
H40 H 0.0967 -0.2951 0.5471
Zn1A Zn -1.26819(5) 0.85728(5) 0.51237(5)
Zn1A_2 Zn 1.73181(5) -0.14272(5) 0.51237(5)
Zn2A Zn -1.26152(5) 0.64532(5) 0.51662(5)
Zn2A_2 Zn 1.73848(5) -0.35468(5) 0.51662(5)
Zn2_2 Zn 0.26152(5) -0.64532(5) 0.48338(5)
O3A O 0.1320(3) 0.1660(3) 0.5959(3)
O4A O 0.1134(3) 0.3352(4) 0.5722(3)
O9A O 0.3967(3) 0.1838(3) 0.3736(3)
O10A O 0.4094(3) 0.3322(3) 0.3853(3)
N2_2 N 0.2595(4) 0.4984(3) 0.4901(3)
loop_
_geom_bond_atom_site_label_1
_geom_bond_atom_site_label_2
_geom_bond_site_symmetry_1
_geom_bond_site_symmetry_2
Zn1 O1 1_555 1_555
Zn2 O2 1_555 1_555
O1 C1 1_555 1_555
O2 C1 1_555 1_555
O3 C22 1_555 1_555
O4 C22 1_555 1_555
O5 C5 1_555 1_555
O6 C15 1_555 1_555
O7 Zn2 1_555 1_555
O8 Zn1 1_555 1_555
O9 C44 1_555 1_555
O10 C44 1_555 1_555
O11 C27 1_555 1_555
O12 C37 1_555 1_555
N1 Zn1 1_555 1_555
N2 C52 1_555 1_555
C1 C2 1_555 1_555
C2 C3 1_555 1_555
C3 H1 1_555 1_555
C4 C3 1_555 1_555
H2 C4 1_555 1_555
C5 C4 1_555 1_555
C6 C5 1_555 1_555
H3 C6 1_555 1_555
C7 C2 1_555 1_555
H4 C7 1_555 1_555
C8 O5 1_555 1_555
H5 C8 1_555 1_555
H6 C8 1_555 1_555
C9 C8 1_555 1_555
C10 C9 1_555 1_555
H7 C10 1_555 1_555
C11 C10 1_555 1_555
C12 C11 1_555 1_555
H8 C12 1_555 1_555
C13 C12 1_555 1_555
H9 C13 1_555 1_555
C14 C9 1_555 1_555
H10 C14 1_555 1_555
C15 C11 1_555 1_555
H11 C15 1_555 1_555
H12 C15 1_555 1_555
C16 O6 1_555 1_555
C17 C16 1_555 1_555
H13 C17 1_555 1_555
C18 C17 1_555 1_555
H14 C18 1_555 1_555
C19 C18 1_555 1_555
C20 C19 1_555 1_555
H15 C20 1_555 1_555
C21 C16 1_555 1_555
H16 C21 1_555 1_555
C22 C19 1_555 1_555
C23 O7 1_555 1_555
C24 C23 1_555 1_555
C25 C24 1_555 1_555
H17 C25 1_555 1_555
C26 C25 1_555 1_555
H18 C26 1_555 1_555
C27 C26 1_555 1_555
C28 C27 1_555 1_555
H19 C28 1_555 1_555
C29 C24 1_555 1_555
H20 C29 1_555 1_555
C30 O11 1_555 1_555
H21 C30 1_555 1_555
H22 C30 1_555 1_555
C31 C30 1_555 1_555
C32 C31 1_555 1_555
H23 C32 1_555 1_555
C33 C32 1_555 1_555
C34 C33 1_555 1_555
H24 C34 1_555 1_555
C35 C34 1_555 1_555
H25 C35 1_555 1_555
C36 C31 1_555 1_555
H26 C36 1_555 1_555
C37 C33 1_555 1_555
H27 C37 1_555 1_555
H28 C37 1_555 1_555
C38 O12 1_555 1_555
C39 C38 1_555 1_555
H29 C39 1_555 1_555
C40 C39 1_555 1_555
H30 C40 1_555 1_555
C41 C40 1_555 1_555
C42 C41 1_555 1_555
H31 C42 1_555 1_555
C43 C38 1_555 1_555
H32 C43 1_555 1_555
C44 C41 1_555 1_555
C45 N1 1_555 1_555
H33 C45 1_555 1_555
C46 C45 1_555 1_555
H34 C46 1_555 1_555
C47 C46 1_555 1_555
C48 C47 1_555 1_555
H35 C48 1_555 1_555
C49 N1 1_555 1_555
H36 C49 1_555 1_555
C50 C47 1_555 1_555
C51 C50 1_555 1_555
H37 C51 1_555 1_555
C52 C51 1_555 1_555
H38 C52 1_555 1_555
C53 N2 1_555 1_555
H39 C53 1_555 1_555
C54 C50 1_555 1_555
H40 C54 1_555 1_555
Zn1A O3 1_555 1_555
Zn1A_2 O9 1_555 1_555
Zn2A O4 1_555 1_555
Zn2A_2 O10 1_555 1_555
Zn2_2 N2 1_555 1_555
O3A Zn1 1_555 1_555
O4A Zn2 1_555 1_555
O9A Zn1 1_555 1_555
O10A Zn2 1_555 1_555
N2_2 Zn2 1_555 1_555
O8 C23 1_555 1_555
C6 C7 1_555 1_555
C13 C14 1_555 1_555
C20 C21 1_555 1_555
C28 C29 1_555 1_555
C35 C36 1_555 1_555
C42 C43 1_555 1_555
C48 C49 1_555 1_555
C53 C54 1_555 1_555

#END
