
#######################################################################
#
#                 Cambridge Crystallographic Data Centre
#                                CCDC 
#
#######################################################################
#
# If this CIF has been generated from an entry in the Cambridge 
# Structural Database, then it will include bibliographic, chemical, 
# crystal, experimental, refinement or atomic coordinate data resulting 
# from the CCDC's data processing and validation procedures.
#
#######################################################################

data_NUDFAU
_symmetry_cell_setting           triclinic
_symmetry_space_group_name_H-M   'P -1'
_symmetry_Int_Tables_number      2
_space_group_name_Hall           '-P 1'
loop_
_symmetry_equiv_pos_site_id
_symmetry_equiv_pos_as_xyz
1 x,y,z
2 -x,-y,-z
_cell_length_a                   9.7509(7)
_cell_length_b                   14.4507(13)
_cell_length_c                   16.4698(9)
_cell_angle_alpha                80.919(4)
_cell_angle_beta                 87.734(3)
_cell_angle_gamma                84.375(4)
_cell_volume                     2279.91
loop_
_atom_site_label
_atom_site_type_symbol
_atom_site_fract_x
_atom_site_fract_y
_atom_site_fract_z
U1 U 0.51715(5) 0.68415(4) 0.71355(3)
U2 U 1.01642(5) 0.66925(4) 0.57550(3)
U3 U 0.32653(12) 0.95475(7) -0.10124(4)
O1 O 0.4568(10) 0.8043(8) 0.6857(6)
O2 O 0.5788(11) 0.5643(8) 0.7439(6)
O3 O 0.9503(11) 0.7879(8) 0.5664(6)
O4 O 1.0810(10) 0.5507(8) 0.5823(6)
O5 O 0.2427(19) 0.9516(13) -0.0027(10)
O6 O 0.4110(15) 0.9535(9) -0.1966(7)
O7 O 0.6344(10) 0.7027(9) 0.5847(6)
O8 O 0.8087(10) 0.6220(8) 0.5296(6)
O9 O 0.3997(10) 0.6263(8) 0.6121(6)
O10 O 0.2431(9) 0.7074(8) 0.5272(6)
O11 O 0.7783(10) 0.5320(8) 0.2526(6)
O12 O 0.5325(16) 0.8992(10) -0.0335(8)
H1 H 0.6143 0.9090 -0.0641
O13 O 0.5586(18) 0.9072(11) 0.0990(9)
O14 O 0.3591(12) 0.7912(9) -0.0834(7)
O15 O 0.5192(10) 0.6968(8) -0.1382(6)
O16 O 0.2994(10) 0.6561(9) 0.7736(6)
O17 O 0.1240(10) 0.7083(7) 0.6912(6)
O18 O -0.1105(9) 0.6234(7) 0.6987(5)
O19 O -0.2640(9) 0.7241(7) 0.7510(6)
O20 O 0.2502(10) 0.5706(8) 1.0633(6)
O21 O -0.1564(15) 0.9037(10) 1.1295(8)
O22 O -0.231(2) 0.8716(14) 1.2584(10)
O23 O -0.1445(15) 0.7905(10) 1.3866(7)
H2 H -0.1818 0.8275 1.3486
O24 O 0.0268(10) 0.6855(8) 1.4268(6)
O25 O 0.1245(16) 0.9025(11) -0.1557(8)
C1 C 0.5945(14) 0.6338(13) 0.4656(8)
C2 C 0.4467(18) 0.6419(11) 0.4689(9)
C3 C 0.3794(15) 0.6379(13) 0.3969(9)
H5 H 0.2836 0.6457 0.3975
C4 C 0.4483(16) 0.6229(14) 0.3243(9)
H6 H 0.3997 0.6235 0.2767
C5 C 0.5920(14) 0.6067(12) 0.3236(8)
C6 C 0.6616(16) 0.6114(11) 0.3944(9)
H7 H 0.7570 0.5992 0.3942
C7 C 0.6835(15) 0.6543(12) 0.5328(9)
C8 C 0.3583(15) 0.6609(12) 0.5416(8)
C9 C 0.6691(15) 0.5823(12) 0.2486(9)
C10 C 0.544(2) 0.7581(13) 0.0625(10)
C11 C 0.5279(15) 0.6990(12) 0.0047(9)
C12 C 0.5607(15) 0.6028(13) 0.0265(8)
H8 H 0.5540 0.5636 -0.0125
C13 C 0.6029(15) 0.5636(13) 0.1046(9)
H9 H 0.6256 0.4991 0.1175
C14 C 0.6114(16) 0.6225(13) 0.1647(9)
C15 C 0.5833(19) 0.7175(14) 0.1427(10)
H10 H 0.5899 0.7566 0.1818
C16 C 0.544(2) 0.8608(15) 0.0414(12)
C17 C 0.4650(17) 0.7332(12) -0.0790(9)
C18 C 0.0813(13) 0.6593(10) 0.8316(8)
C19 C -0.0697(15) 0.6604(12) 0.8314(9)
C20 C -0.1460(17) 0.6526(15) 0.9036(9)
H11 H -0.2416 0.6573 0.9013
C21 C -0.0851(16) 0.6381(14) 0.9797(9)
H12 H -0.1387 0.6318 1.0279
C22 C 0.0598(15) 0.6328(11) 0.9826(9)
C23 C 0.1355(14) 0.6397(11) 0.9101(8)
H13 H 0.2309 0.6305 0.9137
C24 C 0.1724(15) 0.6726(12) 0.7601(8)
C25 C -0.1522(14) 0.6716(11) 0.7536(8)
C26 C 0.1359(14) 0.6133(11) 1.0609(9)
C27 C -0.0593(19) 0.7615(14) 1.2100(9)
C28 C -0.0163(16) 0.7078(11) 1.2855(9)
C29 C 0.0646(15) 0.6230(11) 1.2848(9)
H14 H 0.0871 0.5855 1.3346
C30 C 0.1126(14) 0.5928(11) 1.2121(9)
H15 H 0.1694 0.5371 1.2132
C31 C 0.0749(14) 0.6466(11) 1.1382(9)
C32 C -0.0097(17) 0.7293(13) 1.1372(9)
H16 H -0.0345 0.7648 1.0869
C33 C -0.152(2) 0.8501(17) 1.1998(13)
C34 C -0.0469(17) 0.7301(13) 1.3706(9)
U1_2 U 0.51715(5) 0.68415(4) -0.28645(3)
U1_3 U -0.48285(5) 0.68415(4) 0.71355(3)
U2_2 U 0.01642(5) 0.66925(4) 0.57550(3)
U2_3 U 0.01642(5) 0.66925(4) 1.57550(3)
U3A U 0.67347(12) 1.04525(7) 0.10124(4)
U3A_2 U -0.32653(12) 1.04525(7) 1.10124(4)
O10_2 O 1.2431(9) 0.7074(8) 0.5272(6)
O13A O 0.4414(18) 1.0928(11) -0.0990(9)
O15_2 O 0.5192(10) 0.6968(8) 0.8618(6)
O17_2 O 1.1240(10) 0.7083(7) 0.6912(6)
O18_2 O 0.8895(9) 0.6234(7) 0.6987(5)
O19_2 O 0.7360(9) 0.7241(7) 0.7510(6)
O21A O 0.1564(15) 1.0963(10) -0.1295(8)
O24_2 O 1.0268(10) 0.6855(8) 0.4268(6)
O26 O 0.184(2) 0.8905(16) 0.6845(11)
H3 H 0.2702 0.8664 0.6718
H4 H 0.1683 0.8918 0.7384
O27 O -0.062(3) 0.877(2) -0.0470(17)
O28 O 0.725(3) 0.858(2) -0.1406(16)
O29 O -0.124(3) 0.947(2) 0.6844(16)
O30 O -0.247(3) 1.0433(19) 0.5219(16)
loop_
_geom_bond_atom_site_label_1
_geom_bond_atom_site_label_2
_geom_bond_site_symmetry_1
_geom_bond_site_symmetry_2
U1 O1 1_555 1_555
U2 O3 1_555 1_555
U3 O5 1_555 1_555
O2 U1 1_555 1_555
O4 U2 1_555 1_555
O6 U3 1_555 1_555
O7 U1 1_555 1_555
O8 U2 1_555 1_555
O9 U1 1_555 1_555
O10 C8 1_555 1_555
O11 C9 1_555 1_555
O12 U3 1_555 1_555
H1 O12 1_555 1_555
O13 C16 1_555 1_555
O14 U3 1_555 1_555
O15 C17 1_555 1_555
O16 U1 1_555 1_555
O17 C24 1_555 1_555
O18 C25 1_555 1_555
O19 C25 1_555 1_555
O20 C26 1_555 1_555
O21 C33 1_555 1_555
O22 C33 1_555 1_555
O23 H2 1_555 1_555
O24 C34 1_555 1_555
O25 U3 1_555 1_555
O26 H3 1_555 1_555
H4 O26 1_555 1_555
C1 C2 1_555 1_555
C2 C3 1_555 1_555
C3 H5 1_555 1_555
C4 C3 1_555 1_555
H6 C4 1_555 1_555
C5 C4 1_555 1_555
C6 C1 1_555 1_555
H7 C6 1_555 1_555
C7 O7 1_555 1_555
C8 O9 1_555 1_555
C9 C5 1_555 1_555
C10 C11 1_555 1_555
C11 C12 1_555 1_555
C12 H8 1_555 1_555
C13 C12 1_555 1_555
H9 C13 1_555 1_555
C14 C9 1_555 1_555
C15 C10 1_555 1_555
H10 C15 1_555 1_555
C16 O12 1_555 1_555
C17 O14 1_555 1_555
C18 C19 1_555 1_555
C19 C20 1_555 1_555
C20 H11 1_555 1_555
C21 C20 1_555 1_555
H12 C21 1_555 1_555
C22 C21 1_555 1_555
C23 C18 1_555 1_555
H13 C23 1_555 1_555
C24 O16 1_555 1_555
C25 C19 1_555 1_555
C26 C22 1_555 1_555
C27 C28 1_555 1_555
C28 C29 1_555 1_555
C29 H14 1_555 1_555
C30 C29 1_555 1_555
H15 C30 1_555 1_555
C31 C26 1_555 1_555
C32 C27 1_555 1_555
H16 C32 1_555 1_555
C33 C27 1_555 1_555
C34 O23 1_555 1_555
U1_2 O15 1_555 1_555
U1_3 O19 1_555 1_555
U2_2 O10 1_555 1_555
U2_3 O24 1_555 1_555
U3A O13 1_555 1_555
U3A_2 O21 1_555 1_555
O10_2 U2 1_555 1_555
O13A U3 1_555 1_555
O15_2 U1 1_555 1_555
O17_2 U2 1_555 1_555
O18_2 U2 1_555 1_555
O19_2 U1 1_555 1_555
O21A U3 1_555 1_555
O24_2 U2 1_555 1_555
O8 C7 1_555 1_555
O17 U2_2 1_555 1_555
O18 U2_2 1_555 1_555
C1 C7 1_555 1_555
C2 C8 1_555 1_555
C5 C6 1_555 1_555
C10 C16 1_555 1_555
C11 C17 1_555 1_555
C13 C14 1_555 1_555
C14 C15 1_555 1_555
C18 C24 1_555 1_555
C22 C23 1_555 1_555
C28 C34 1_555 1_555
C30 C31 1_555 1_555
C31 C32 1_555 1_555

#END
