
#######################################################################
#
#                 Cambridge Crystallographic Data Centre
#                                CCDC 
#
#######################################################################
#
# If this CIF has been generated from an entry in the Cambridge 
# Structural Database, then it will include bibliographic, chemical, 
# crystal, experimental, refinement or atomic coordinate data resulting 
# from the CCDC's data processing and validation procedures.
#
#######################################################################

data_NUDFEY
_symmetry_cell_setting           monoclinic
_symmetry_space_group_name_H-M   'P 21'
_symmetry_Int_Tables_number      4
_space_group_name_Hall           'P 2yb'
loop_
_symmetry_equiv_pos_site_id
_symmetry_equiv_pos_as_xyz
1 x,y,z
2 -x,1/2+y,-z
_cell_length_a                   15.9084(6)
_cell_length_b                   14.3646(6)
_cell_length_c                   16.7141(8)
_cell_angle_alpha                90
_cell_angle_beta                 116.386(2)
_cell_angle_gamma                90
_cell_volume                     3421.56
loop_
_atom_site_label
_atom_site_type_symbol
_atom_site_fract_x
_atom_site_fract_y
_atom_site_fract_z
U1 U 0.89148(2) 0.854409(19) 0.71310(2)
O1 O 0.7973(4) 0.8380(5) 0.6059(4)
O2 O 0.9941(4) 0.8704(4) 0.8155(4)
O3 O 0.8503(5) 0.9056(5) 0.8355(5)
O4 O 0.7267(5) 0.8981(6) 0.7126(5)
O5 O 0.7168(5) 0.9429(6) 0.8324(5)
O6 O 0.8396(5) 0.7210(4) 0.7620(5)
H1 H 0.8815 0.6928 0.8047
H2 H 0.8053 0.6753 0.7296
O7 O 0.8746(4) 1.0222(4) 0.7044(4)
H3 H 0.8917 1.0509 0.7553
H4 H 0.8180 1.0492 0.6699
O8 O 0.9797(4) 0.9141(4) 0.6370(4)
O9 O 1.1972(5) 1.2171(4) 0.5644(4)
O10 O 0.8412(5) 0.8973(5) 0.3818(5)
O11 O 1.0252(5) 1.2301(4) 0.3088(4)
O12 O 0.8928(7) 0.7984(6) 0.1969(6)
O13 O 1.0077(5) 1.1637(4) 0.0958(4)
O14 O 1.0592(5) 0.6542(4) 0.1728(5)
O15 O 1.2059(5) 1.0407(4) 0.1460(5)
O16 O 1.2762(4) 0.6182(4) 0.3901(4)
O17 O 1.4324(4) 0.9972(4) 0.3574(4)
O18 O 1.3424(4) 0.6740(4) 0.6324(5)
O19 O 1.5162(5) 1.0458(4) 0.6090(5)
O20 O 1.2118(5) 0.8152(4) 0.7284(4)
O21 O 1.4207(5) 1.1660(4) 0.7161(5)
N1 N 0.7626(5) 0.9137(6) 0.7878(6)
N2 N 1.0866(5) 1.0327(5) 0.7033(5)
N3 N 0.9618(5) 1.0600(5) 0.5773(5)
N4 N 1.0484(5) 1.1844(5) 0.5478(5)
N5 N 1.1691(6) 1.1646(5) 0.6822(6)
N6 N 0.8622(6) 1.0532(5) 0.4167(6)
N7 N 0.8217(6) 1.0108(5) 0.2767(5)
N8 N 0.8847(6) 1.1501(5) 0.2444(6)
N9 N 0.9457(5) 1.1823(5) 0.3894(5)
N10 N 0.8400(6) 0.9475(5) 0.1513(6)
N11 N 0.9062(6) 0.8702(5) 0.0788(6)
N12 N 0.9544(6) 1.0178(5) 0.0407(5)
N13 N 0.8802(6) 1.0946(5) 0.1054(6)
N14 N 1.0375(6) 0.7819(5) 0.0824(6)
N15 N 1.1811(6) 0.7254(5) 0.1534(6)
N16 N 1.2371(6) 0.8832(5) 0.1535(6)
N17 N 1.0949(5) 0.9324(5) 0.0631(5)
N18 N 1.3208(5) 0.7040(5) 0.2956(5)
N19 N 1.4058(5) 0.7104(5) 0.4426(5)
N20 N 1.4766(4) 0.8579(6) 0.4318(4)
N21 N 1.3843(5) 0.8577(6) 0.2857(5)
N22 N 1.4582(5) 0.7351(5) 0.6009(5)
N23 N 1.4427(6) 0.7903(5) 0.7178(5)
N24 N 1.5141(5) 0.9371(5) 0.7110(6)
N25 N 1.5209(6) 0.8859(5) 0.5868(5)
N26 N 1.3604(5) 0.8836(5) 0.7819(5)
N27 N 1.2408(6) 0.9654(5) 0.7831(6)
N28 N 1.3225(5) 1.1051(5) 0.7724(5)
N29 N 1.4500(5) 1.0259(5) 0.7929(6)
C1 C 1.0078(6) 0.9960(6) 0.6390(6)
C2 C 1.0040(6) 1.1525(6) 0.6034(6)
H27 H 0.9609 1.1985 0.6080
C3 C 1.0911(7) 1.1325(6) 0.6953(7)
H28 H 1.0864 1.1651 0.7447
C4 C 1.1453(7) 1.1928(6) 0.5938(6)
C5 C 0.8686(6) 1.0482(6) 0.5057(6)
H29 H 0.8282 1.0957 0.5114
H30 H 0.8447 0.9882 0.5128
C6 C 0.9984(7) 1.2386(6) 0.4675(7)
H31 H 0.9556 1.2806 0.4767
H32 H 1.0431 1.2762 0.4569
C7 C 0.8417(8) 0.9765(6) 0.3607(7)
C8 C 0.8186(7) 1.1087(6) 0.2726(6)
H33 H 0.7546 1.1313 0.2364
C9 C 0.8564(6) 1.1408(6) 0.3698(6)
H34 H 0.8139 1.1852 0.3777
C10 C 0.9565(7) 1.1904(6) 0.3135(6)
C11 C 0.7813(8) 0.9537(6) 0.1995(7)
H35 H 0.7203 0.9784 0.1593
H36 H 0.7720 0.8916 0.2169
C12 C 0.8614(7) 1.1716(6) 0.1519(6)
H37 H 0.8974 1.2254 0.1502
H38 H 0.7954 1.1878 0.1207
C13 C 0.8811(9) 0.8672(7) 0.1491(8)
C14 C 0.8779(7) 0.9553(6) 0.0308(7)
H39 H 0.8358 0.9440 -0.0323
C15 C 0.8258(7) 1.0090(6) 0.0778(6)
H40 H 0.7593 1.0200 0.0380
C16 C 0.9536(7) 1.0971(6) 0.0821(6)
C17 C 0.9371(7) 0.7884(6) 0.0480(8)
H41 H 0.9144 0.7332 0.0656
H42 H 0.9091 0.7894 -0.0167
C18 C 1.0228(6) 0.9993(6) 0.0068(6)
H43 H 1.0529 1.0572 0.0042
H44 H 0.9906 0.9749 -0.0534
C19 C 1.0904(6) 0.7150(6) 0.1407(6)
C20 C 1.1910(7) 0.7997(6) 0.1016(6)
H45 H 1.2205 0.7789 0.0642
C21 C 1.0903(6) 0.8330(6) 0.0454(6)
H46 H 1.0685 0.8197 -0.0183
C22 C 1.1825(7) 0.9610(7) 0.1231(6)
C23 C 1.2567(6) 0.6636(5) 0.2106(6)
H47 H 1.2294 0.6079 0.2220
H48 H 1.2922 0.6450 0.1788
C24 C 1.3395(6) 0.8920(7) 0.1968(7)
H49 H 1.3642 0.8588 0.1613
H50 H 1.3556 0.9572 0.1973
C25 C 1.3305(6) 0.6741(6) 0.3782(6)
C26 C 1.4640(6) 0.7590(6) 0.4081(7)
H51 H 1.5241 0.7274 0.4249
C27 C 1.4033(6) 0.7586(6) 0.3072(6)
H52 H 1.4362 0.7305 0.2757
C28 C 1.4315(6) 0.9129(6) 0.3586(7)
C29 C 1.4492(6) 0.6705(6) 0.5326(6)
H53 H 1.4119 0.6180 0.5346
H54 H 1.5110 0.6473 0.5449
C30 C 1.5485(7) 0.8927(7) 0.5159(6)
H55 H 1.6058 0.8574 0.5321
H56 H 1.5615 0.9573 0.5087
C31 C 1.4074(6) 0.7285(5) 0.6487(6)
C32 C 1.5269(6) 0.8371(5) 0.7251(6)
H57 H 1.5824 0.8214 0.7804
C33 C 1.5345(6) 0.8018(6) 0.6391(6)
H58 H 1.5955 0.7729 0.6541
C34 C 1.5181(7) 0.9654(6) 0.6330(6)
C35 C 1.4118(8) 0.7982(5) 0.7864(7)
H59 H 1.4661 0.7952 0.8442
H60 H 1.3719 0.7455 0.7820
C36 C 1.5325(7) 1.0010(6) 0.7835(7)
H61 H 1.5775 0.9729 0.8388
H62 H 1.5607 1.0571 0.7738
C37 C 1.2646(7) 0.8812(5) 0.7590(6)
C38 C 1.3230(7) 1.0264(5) 0.8274(6)
H63 H 1.3314 1.0462 0.8866
C39 C 1.4053(7) 0.9673(6) 0.8328(7)
H64 H 1.4483 0.9521 0.8948
C40 C 1.3989(7) 1.1038(6) 0.7559(7)
C41 C 1.1508(6) 0.9803(6) 0.7821(6)
H65 H 1.1596 1.0141 0.8355
H66 H 1.1229 0.9206 0.7831
C42 C 1.2595(7) 1.1826(6) 0.7525(7)
H67 H 1.2530 1.1990 0.8058
H68 H 1.2864 1.2357 0.7364
U1A U 1.10852(2) 1.354409(19) 0.28690(2)
O11A O 0.9748(5) 0.7301(4) 0.6912(4)
Re1 Re 0.42670(3) 0.70414(3) 0.02096(3)
O22 O 0.4086(13) 0.6063(12) -0.0358(13)
O23 O 0.5431(9) 0.7268(11) 0.0685(10)
O24 O 0.3669(8) 0.7920(9) -0.0515(7)
O25 O 0.3836(7) 0.6896(7) 0.0952(7)
O26 O 0.7118(7) 0.6144(7) 0.6490(6)
H5 H 0.6602 0.6089 0.6605
H6 H 0.6870 0.6436 0.5976
O27 O 1.1946(7) 0.7875(7) 0.4826(7)
H7 H 1.2385 0.7344 0.4947
H8 H 1.1805 0.7894 0.4303
O28 O 1.3857(7) 0.5025(6) 0.7306(6)
H9 H 1.3869 0.5504 0.7012
H10 H 1.3787 0.4608 0.6967
O29 O 1.3188(6) 1.1011(6) 0.5257(6)
H11 H 1.2769 1.1363 0.5276
H12 H 1.3530 1.0780 0.5758
O30 O 1.3616(5) 1.3409(5) 0.6326(6)
H13 H 1.3202 1.3126 0.6432
H14 H 1.3277 1.3775 0.5952
O31 O 0.5425(10) 0.5499(10) -0.1076(10)
H15 H 0.5184 0.5736 -0.0686
H16 H 0.5040 0.4983 -0.1302
O32 O 0.6557(9) 0.8385(10) -0.0177(9)
H17 H 0.7183 0.8354 0.0199
H18 H 0.6343 0.8744 0.0145
O33 O 0.2921(10) 0.9498(9) 0.0010(8)
H19 H 0.3126 0.9037 -0.0173
H20 H 0.2370 0.9406 -0.0043
O34 O 1.1165(9) 0.8188(8) 0.3064(8)
H21 H 1.0554 0.8186 0.2692
H22 H 1.1332 0.8674 0.2917
O35 O 1.3316(15) 1.1828(12) 0.1259(15)
H23 H 1.2802 1.1462 0.0981
H24 H 1.3697 1.1681 0.1840
O36 O 0.9011(11) 0.5048(13) 0.7270(11)
H25 H 0.9082 0.4812 0.6864
H26 H 0.9343 0.5610 0.7233
loop_
_geom_bond_atom_site_label_1
_geom_bond_atom_site_label_2
_geom_bond_site_symmetry_1
_geom_bond_site_symmetry_2
U1 O1 1_555 1_555
Re1 O22 1_555 1_555
O2 U1 1_555 1_555
O3 U1 1_555 1_555
O4 U1 1_555 1_555
O5 N1 1_555 1_555
O6 U1 1_555 1_555
H1 O6 1_555 1_555
H2 O6 1_555 1_555
O7 U1 1_555 1_555
H3 O7 1_555 1_555
H4 O7 1_555 1_555
O8 U1 1_555 1_555
O9 C4 1_555 1_555
O10 C7 1_555 1_555
O11 C10 1_555 1_555
O12 C13 1_555 1_555
O13 C16 1_555 1_555
O14 C19 1_555 1_555
O15 C22 1_555 1_555
O16 C25 1_555 1_555
O17 C28 1_555 1_555
O18 C31 1_555 1_555
O19 C34 1_555 1_555
O20 C37 1_555 1_555
O21 C40 1_555 1_555
O23 Re1 1_555 1_555
O24 Re1 1_555 1_555
O25 Re1 1_555 1_555
O26 H5 1_555 1_555
H6 O26 1_555 1_555
O27 H7 1_555 1_555
H8 O27 1_555 1_555
O28 H9 1_555 1_555
H10 O28 1_555 1_555
O29 H11 1_555 1_555
H12 O29 1_555 1_555
O30 H13 1_555 1_555
H14 O30 1_555 1_555
O31 H15 1_555 1_555
H16 O31 1_555 1_555
O32 H17 1_555 1_555
H18 O32 1_555 1_555
O33 H19 1_555 1_555
H20 O33 1_555 1_555
O34 H21 1_555 1_555
H22 O34 1_555 1_555
O35 H23 1_555 1_555
H24 O35 1_555 1_555
O36 H25 1_555 1_555
H26 O36 1_555 1_555
N1 O3 1_555 1_555
N2 C1 1_555 1_555
N3 C1 1_555 1_555
N4 C2 1_555 1_555
N5 C3 1_555 1_555
N6 C5 1_555 1_555
N7 C7 1_555 1_555
N8 C8 1_555 1_555
N9 C6 1_555 1_555
N10 C11 1_555 1_555
N11 C13 1_555 1_555
N12 C14 1_555 1_555
N13 C12 1_555 1_555
N14 C17 1_555 1_555
N15 C19 1_555 1_555
N16 C20 1_555 1_555
N17 C18 1_555 1_555
N18 C23 1_555 1_555
N19 C25 1_555 1_555
N20 C26 1_555 1_555
N21 C24 1_555 1_555
N22 C29 1_555 1_555
N23 C31 1_555 1_555
N24 C32 1_555 1_555
N25 C30 1_555 1_555
N26 C35 1_555 1_555
N27 C37 1_555 1_555
N28 C38 1_555 1_555
N29 C36 1_555 1_555
C1 O8 1_555 1_555
C2 N3 1_555 1_555
H27 C2 1_555 1_555
C3 N2 1_555 1_555
H28 C3 1_555 1_555
C4 N4 1_555 1_555
C5 N3 1_555 1_555
H29 C5 1_555 1_555
H30 C5 1_555 1_555
C6 N4 1_555 1_555
H31 C6 1_555 1_555
H32 C6 1_555 1_555
C7 N6 1_555 1_555
C8 N7 1_555 1_555
H33 C8 1_555 1_555
C9 N6 1_555 1_555
H34 C9 1_555 1_555
C10 N8 1_555 1_555
C11 N7 1_555 1_555
H35 C11 1_555 1_555
H36 C11 1_555 1_555
C12 N8 1_555 1_555
H37 C12 1_555 1_555
H38 C12 1_555 1_555
C13 N10 1_555 1_555
C14 N11 1_555 1_555
H39 C14 1_555 1_555
C15 N10 1_555 1_555
H40 C15 1_555 1_555
C16 N12 1_555 1_555
C17 N11 1_555 1_555
H41 C17 1_555 1_555
H42 C17 1_555 1_555
C18 N12 1_555 1_555
H43 C18 1_555 1_555
H44 C18 1_555 1_555
C19 N14 1_555 1_555
C20 N15 1_555 1_555
H45 C20 1_555 1_555
C21 N14 1_555 1_555
H46 C21 1_555 1_555
C22 N16 1_555 1_555
C23 N15 1_555 1_555
H47 C23 1_555 1_555
H48 C23 1_555 1_555
C24 N16 1_555 1_555
H49 C24 1_555 1_555
H50 C24 1_555 1_555
C25 N18 1_555 1_555
C26 N19 1_555 1_555
H51 C26 1_555 1_555
C27 N18 1_555 1_555
H52 C27 1_555 1_555
C28 N20 1_555 1_555
C29 N19 1_555 1_555
H53 C29 1_555 1_555
H54 C29 1_555 1_555
C30 N20 1_555 1_555
H55 C30 1_555 1_555
H56 C30 1_555 1_555
C31 N22 1_555 1_555
C32 N23 1_555 1_555
H57 C32 1_555 1_555
C33 N22 1_555 1_555
H58 C33 1_555 1_555
C34 N24 1_555 1_555
C35 N23 1_555 1_555
H59 C35 1_555 1_555
H60 C35 1_555 1_555
C36 N24 1_555 1_555
H61 C36 1_555 1_555
H62 C36 1_555 1_555
C37 N26 1_555 1_555
C38 N27 1_555 1_555
H63 C38 1_555 1_555
C39 N26 1_555 1_555
H64 C39 1_555 1_555
C40 N28 1_555 1_555
C41 N2 1_555 1_555
H65 C41 1_555 1_555
H66 C41 1_555 1_555
C42 N5 1_555 1_555
H67 C42 1_555 1_555
H68 C42 1_555 1_555
U1A O11 1_555 1_555
O11A U1 1_555 1_555
O4 N1 1_555 1_555
N5 C4 1_555 1_555
N9 C9 1_555 1_555
N9 C10 1_555 1_555
N13 C15 1_555 1_555
N13 C16 1_555 1_555
N17 C21 1_555 1_555
N17 C22 1_555 1_555
N21 C27 1_555 1_555
N21 C28 1_555 1_555
N25 C33 1_555 1_555
N25 C34 1_555 1_555
N27 C41 1_555 1_555
N28 C42 1_555 1_555
N29 C39 1_555 1_555
N29 C40 1_555 1_555
C2 C3 1_555 1_555
C8 C9 1_555 1_555
C14 C15 1_555 1_555
C20 C21 1_555 1_555
C26 C27 1_555 1_555
C32 C33 1_555 1_555
C38 C39 1_555 1_555

#END
