
#######################################################################
#
#                 Cambridge Crystallographic Data Centre
#                                CCDC 
#
#######################################################################
#
# If this CIF has been generated from an entry in the Cambridge 
# Structural Database, then it will include bibliographic, chemical, 
# crystal, experimental, refinement or atomic coordinate data resulting 
# from the CCDC's data processing and validation procedures.
#
#######################################################################

data_NUDGOJ
_symmetry_cell_setting           monoclinic
_symmetry_space_group_name_H-M   'P 21/c'
_symmetry_Int_Tables_number      14
_space_group_name_Hall           '-P 2ybc'
loop_
_symmetry_equiv_pos_site_id
_symmetry_equiv_pos_as_xyz
1 x,y,z
2 -x,1/2+y,1/2-z
3 -x,-y,-z
4 x,1/2-y,1/2+z
_cell_length_a                   16.9103(5)
_cell_length_b                   24.7509(7)
_cell_length_c                   6.7730(2)
_cell_angle_alpha                90
_cell_angle_beta                 96.0820(10)
_cell_angle_gamma                90
_cell_volume                     2818.85
loop_
_atom_site_label
_atom_site_type_symbol
_atom_site_fract_x
_atom_site_fract_y
_atom_site_fract_z
Sm1 Sm 0.230021(8) 0.662845(6) 0.88302(2)
Ag1 Ag -0.271295(14) 0.771026(13) 1.00955(5)
Ag2 Ag 0.734923(16) 0.509695(14) 1.09832(5)
O1 O 0.32652(12) 0.68519(10) 0.6616(3)
O2 O 0.31431(13) 0.76980(10) 0.5521(4)
O3 O 0.13896(13) 0.73026(10) 0.9546(4)
O4 O 0.14713(12) 0.81387(9) 1.0717(3)
O5 O 0.08704(13) 0.55764(10) 0.6254(3)
O6 O 0.11529(13) 0.60775(9) 0.8977(3)
O7 O 0.33362(15) 0.60435(11) 1.0261(4)
O8 O 0.34810(14) 0.58444(11) 1.3481(4)
O9 O 0.24100(13) 0.58038(9) 0.6658(3)
H1 H 0.1937(9) 0.5698(15) 0.638(5)
H2 H 0.2704(14) 0.5782(16) 0.574(4)
O10 O 0.21625(15) 0.64812(12) 1.2354(4)
H3 H 0.2574(16) 0.6314(15) 1.281(5)
H4 H 0.193(2) 0.6655(16) 1.318(4)
N1 N 0.60160(15) 0.72802(12) 0.5170(4)
N2 N -0.14430(15) 0.77196(12) 1.0002(4)
N3 N -0.14873(15) 0.52859(11) 1.0008(4)
N4 N 0.61218(15) 0.53665(12) 1.1249(4)
C1 C 0.35210(17) 0.72738(13) 0.5901(5)
C2 C 0.43924(17) 0.72748(13) 0.5559(4)
C3 C 0.47977(18) 0.77531(13) 0.5418(5)
H7 H 0.4530 0.8081 0.5436
C4 C 0.56078(18) 0.77434(14) 0.5251(5)
H8 H 0.5878 0.8069 0.5193
C5 C 0.56096(19) 0.68153(14) 0.5242(5)
H9 H 0.5881 0.6491 0.5150
C6 C 0.48092(18) 0.67986(14) 0.5446(5)
H10 H 0.4551 0.6468 0.5508
C7 C 0.10956(16) 0.77216(12) 1.0140(4)
C8 C 0.01993(16) 0.77289(12) 1.0085(4)
C9 C -0.02195(18) 0.82070(13) 1.0110(5)
H11 H 0.0045 0.8537 1.0164
C10 C -0.10360(18) 0.81886(14) 1.0054(5)
H12 H -0.1317 0.8512 1.0052
C11 C -0.10294(19) 0.72586(14) 0.9967(5)
H13 H -0.1304 0.6933 0.9923
C12 C -0.02150(18) 0.72474(13) 0.9993(5)
H14 H 0.0053 0.6920 0.9949
C13 C 0.07153(18) 0.57657(13) 0.7856(5)
C14 C -0.00722(17) 0.56155(12) 0.8594(5)
C15 C -0.06132(18) 0.52924(14) 0.7453(5)
H15 H -0.0513 0.5182 0.6190
C16 C -0.13011(19) 0.51373(14) 0.8221(6)
H16 H -0.1656 0.4916 0.7449
C17 C -0.09638(19) 0.56006(14) 1.1102(5)
H17 H -0.1082 0.5709 1.2352
C18 C -0.02580(19) 0.57700(13) 1.0453(5)
H18 H 0.0090 0.5987 1.1260
C19 C 0.37240(18) 0.58818(13) 1.1834(5)
C20 C 0.45760(18) 0.57168(12) 1.1643(5)
C21 C 0.4901(2) 0.57659(14) 0.9857(5)
H19 H 0.4604 0.5914 0.8756
C22 C 0.5671(2) 0.55923(14) 0.9727(5)
H20 H 0.5885 0.5635 0.8527
C23 C 0.58087(19) 0.53228(14) 1.2976(5)
H21 H 0.6115 0.5169 1.4052
C24 C 0.50498(19) 0.54962(13) 1.3225(5)
H22 H 0.4858 0.5464 1.4457
Sm1C Sm 0.230021(8) 0.837155(6) 0.38302(2)
Sm1C_2 Sm 0.230021(8) 0.837155(6) 1.38302(2)
Ag1C Ag 0.728705(14) 0.728974(13) 0.50955(5)
Ag2_2 Ag -0.265077(16) 0.509695(14) 1.09832(5)
O2C O 0.31431(13) 0.73020(10) 1.0521(4)
O4C O 0.14713(12) 0.68613(9) 0.5717(3)
N1C N -0.39840(15) 0.77198(12) 1.0170(4)
N3_2 N 0.85127(15) 0.52859(11) 1.0008(4)
O11 O 0.70060(18) 0.54847(16) 0.6744(5)
O12 O 0.7411(3) 0.62969(17) 0.7003(6)
O13 O 0.7588(2) 0.58393(19) 0.4410(5)
N5 N 0.73282(19) 0.58666(18) 0.6024(6)
O14 O 0.7287(2) 0.65691(12) 0.0951(6)
H5 H 0.735(4) 0.6352(16) 0.190(4)
H6 H 0.727(4) 0.6441(19) -0.020(3)
loop_
_geom_bond_atom_site_label_1
_geom_bond_atom_site_label_2
_geom_bond_site_symmetry_1
_geom_bond_site_symmetry_2
Sm1 O1 1_555 1_555
Ag1 N2 1_555 1_555
Ag2 N4 1_555 1_555
O1 C1 1_555 1_555
O2 C1 1_555 1_555
O3 Sm1 1_555 1_555
O4 C7 1_555 1_555
O5 C13 1_555 1_555
O6 Sm1 1_555 1_555
O7 Sm1 1_555 1_555
O8 C19 1_555 1_555
O9 Sm1 1_555 1_555
H1 O9 1_555 1_555
H2 O9 1_555 1_555
O10 Sm1 1_555 1_555
H3 O10 1_555 1_555
H4 O10 1_555 1_555
O11 N5 1_555 1_555
O12 N5 1_555 1_555
O13 N5 1_555 1_555
O14 H5 1_555 1_555
H6 O14 1_555 1_555
N1 C4 1_555 1_555
N2 C10 1_555 1_555
N3 C16 1_555 1_555
N4 C22 1_555 1_555
C1 C2 1_555 1_555
C2 C3 1_555 1_555
C3 H7 1_555 1_555
C4 C3 1_555 1_555
H8 C4 1_555 1_555
C5 N1 1_555 1_555
H9 C5 1_555 1_555
C6 C2 1_555 1_555
H10 C6 1_555 1_555
C7 O3 1_555 1_555
C8 C7 1_555 1_555
C9 C8 1_555 1_555
H11 C9 1_555 1_555
C10 C9 1_555 1_555
H12 C10 1_555 1_555
C11 N2 1_555 1_555
H13 C11 1_555 1_555
C12 C8 1_555 1_555
H14 C12 1_555 1_555
C13 O6 1_555 1_555
C14 C13 1_555 1_555
C15 C14 1_555 1_555
H15 C15 1_555 1_555
C16 C15 1_555 1_555
H16 C16 1_555 1_555
C17 N3 1_555 1_555
H17 C17 1_555 1_555
C18 C14 1_555 1_555
H18 C18 1_555 1_555
C19 O7 1_555 1_555
C20 C19 1_555 1_555
C21 C20 1_555 1_555
H19 C21 1_555 1_555
C22 C21 1_555 1_555
H20 C22 1_555 1_555
C23 N4 1_555 1_555
H21 C23 1_555 1_555
C24 C20 1_555 1_555
H22 C24 1_555 1_555
Sm1C O2 1_555 1_555
Sm1C_2 O4 1_555 1_555
Ag1C N1 1_555 1_555
Ag2_2 N3 1_555 1_555
O2C Sm1 1_555 1_555
O4C Sm1 1_555 1_555
N1C Ag1 1_555 1_555
N3_2 Ag2 1_555 1_555
C5 C6 1_555 1_555
C11 C12 1_555 1_555
C17 C18 1_555 1_555
C23 C24 1_555 1_555

#END
