
#######################################################################
#
#                 Cambridge Crystallographic Data Centre
#                                CCDC 
#
#######################################################################
#
# If this CIF has been generated from an entry in the Cambridge 
# Structural Database, then it will include bibliographic, chemical, 
# crystal, experimental, refinement or atomic coordinate data resulting 
# from the CCDC's data processing and validation procedures.
#
#######################################################################

data_NUDGUP
_symmetry_cell_setting           monoclinic
_symmetry_space_group_name_H-M   'P 21/c'
_symmetry_Int_Tables_number      14
_space_group_name_Hall           '-P 2ybc'
loop_
_symmetry_equiv_pos_site_id
_symmetry_equiv_pos_as_xyz
1 x,y,z
2 -x,1/2+y,1/2-z
3 -x,-y,-z
4 x,1/2-y,1/2+z
_cell_length_a                   16.8877(3)
_cell_length_b                   24.7375(6)
_cell_length_c                   6.77160(10)
_cell_angle_alpha                90
_cell_angle_beta                 96.162(2)
_cell_angle_gamma                90
_cell_volume                     2812.56
loop_
_atom_site_label
_atom_site_type_symbol
_atom_site_fract_x
_atom_site_fract_y
_atom_site_fract_z
Eu1 Eu 0.229718(8) 0.662958(6) 0.88333(2)
Ag1 Ag -0.271528(15) 0.770907(13) 1.00999(5)
Ag2 Ag 0.734820(16) 0.509413(13) 1.09896(5)
O1 O 0.32598(12) 0.68536(9) 0.6643(3)
O2 O 0.31345(13) 0.76996(10) 0.5536(4)
O3 O 0.13905(13) 0.73019(9) 0.9529(4)
O4 O 0.14755(12) 0.81379(9) 1.0727(3)
O5 O 0.08705(13) 0.55789(10) 0.6255(3)
O6 O 0.11534(13) 0.60810(9) 0.8975(3)
O7 O 0.33310(14) 0.60473(11) 1.0254(3)
O8 O 0.34768(14) 0.58498(10) 1.3483(3)
O9 O 0.24105(13) 0.58093(9) 0.6668(3)
H1 H 0.1939(8) 0.5715(15) 0.630(4)
H2 H 0.2725(14) 0.5805(15) 0.579(4)
O10 O 0.21542(16) 0.64841(12) 1.2339(3)
H3 H 0.2544(17) 0.6306(15) 1.287(5)
H4 H 0.191(2) 0.6672(15) 1.310(4)
N1 N 0.60129(15) 0.72813(11) 0.5180(4)
N2 N -0.14445(15) 0.77192(12) 1.0001(4)
N3 N -0.14893(15) 0.52864(11) 1.0013(4)
N4 N 0.61206(15) 0.53663(11) 1.1252(4)
C1 C 0.35140(17) 0.72763(12) 0.5918(4)
C2 C 0.43882(16) 0.72752(12) 0.5565(4)
C3 C 0.47950(18) 0.77555(12) 0.5430(4)
H7 H 0.4528 0.8084 0.5455
C4 C 0.56029(19) 0.77442(13) 0.5258(5)
H8 H 0.5873 0.8070 0.5193
C5 C 0.56084(19) 0.68162(14) 0.5251(5)
H9 H 0.5882 0.6492 0.5158
C6 C 0.48081(18) 0.67967(13) 0.5456(5)
H10 H 0.4551 0.6466 0.5522
C7 C 0.11001(17) 0.77231(12) 1.0144(4)
C8 C 0.02025(16) 0.77282(12) 1.0084(4)
C9 C -0.02186(18) 0.82057(12) 1.0106(4)
H11 H 0.0045 0.8536 1.0156
C10 C -0.10376(18) 0.81860(13) 1.0054(5)
H12 H -0.1319 0.8509 1.0056
C11 C -0.10309(19) 0.72551(13) 0.9972(5)
H13 H -0.1306 0.6929 0.9936
C12 C -0.02150(18) 0.72462(12) 0.9994(4)
H14 H 0.0053 0.6919 0.9949
C13 C 0.07152(18) 0.57691(12) 0.7861(4)
C14 C -0.00737(18) 0.56155(12) 0.8596(4)
C15 C -0.06142(18) 0.52930(13) 0.7459(5)
H15 H -0.0515 0.5184 0.6195
C16 C -0.13011(19) 0.51347(14) 0.8221(5)
H16 H -0.1653 0.4911 0.7452
C17 C -0.09630(19) 0.56010(13) 1.1104(5)
H17 H -0.1081 0.5710 1.2353
C18 C -0.02577(19) 0.57698(12) 1.0464(5)
H18 H 0.0092 0.5985 1.1274
C19 C 0.37206(18) 0.58835(12) 1.1837(5)
C20 C 0.45719(18) 0.57160(12) 1.1646(4)
C21 C 0.48930(19) 0.57680(13) 0.9853(5)
H19 H 0.4595 0.5918 0.8753
C22 C 0.5664(2) 0.55922(14) 0.9731(5)
H20 H 0.5877 0.5633 0.8529
C23 C 0.58043(19) 0.53243(14) 1.2987(5)
H21 H 0.6110 0.5170 1.4065
C24 C 0.50479(19) 0.54998(13) 1.3233(5)
H22 H 0.4858 0.5473 1.4469
Eu1C Eu 0.229718(8) 0.837042(6) 0.38333(2)
Eu1C_2 Eu 0.229718(8) 0.837042(6) 1.38333(2)
Ag1C Ag 0.728472(15) 0.729093(13) 0.50999(5)
Ag2_2 Ag -0.265180(16) 0.509413(13) 1.09896(5)
O2C O 0.31345(13) 0.73004(10) 1.0536(4)
O4C O 0.14755(12) 0.68621(9) 0.5727(3)
N1C N -0.39871(15) 0.77187(11) 1.0180(4)
N3_2 N 0.85107(15) 0.52864(11) 1.0013(4)
O11 O 0.69999(18) 0.54860(16) 0.6754(5)
O12 O 0.7412(3) 0.62969(16) 0.7004(6)
O13 O 0.7588(2) 0.58357(18) 0.4419(5)
N5 N 0.73260(19) 0.58636(17) 0.6031(6)
O14 O 0.7287(2) 0.65697(12) 0.0966(6)
H5 H 0.728(4) 0.6340(15) 0.187(5)
H6 H 0.727(4) 0.6453(18) -0.020(3)
loop_
_geom_bond_atom_site_label_1
_geom_bond_atom_site_label_2
_geom_bond_site_symmetry_1
_geom_bond_site_symmetry_2
Eu1 O1 1_555 1_555
Ag1 N2 1_555 1_555
Ag2 N4 1_555 1_555
O1 C1 1_555 1_555
O2 C1 1_555 1_555
O3 Eu1 1_555 1_555
O4 C7 1_555 1_555
O5 C13 1_555 1_555
O6 Eu1 1_555 1_555
O7 Eu1 1_555 1_555
O8 C19 1_555 1_555
O9 Eu1 1_555 1_555
H1 O9 1_555 1_555
H2 O9 1_555 1_555
O10 Eu1 1_555 1_555
H3 O10 1_555 1_555
H4 O10 1_555 1_555
O11 N5 1_555 1_555
O12 N5 1_555 1_555
O13 N5 1_555 1_555
O14 H5 1_555 1_555
H6 O14 1_555 1_555
N1 C4 1_555 1_555
N2 C10 1_555 1_555
N3 C16 1_555 1_555
N4 C22 1_555 1_555
C1 C2 1_555 1_555
C2 C3 1_555 1_555
C3 H7 1_555 1_555
C4 C3 1_555 1_555
H8 C4 1_555 1_555
C5 N1 1_555 1_555
H9 C5 1_555 1_555
C6 C2 1_555 1_555
H10 C6 1_555 1_555
C7 O3 1_555 1_555
C8 C7 1_555 1_555
C9 C8 1_555 1_555
H11 C9 1_555 1_555
C10 C9 1_555 1_555
H12 C10 1_555 1_555
C11 N2 1_555 1_555
H13 C11 1_555 1_555
C12 C8 1_555 1_555
H14 C12 1_555 1_555
C13 O6 1_555 1_555
C14 C13 1_555 1_555
C15 C14 1_555 1_555
H15 C15 1_555 1_555
C16 C15 1_555 1_555
H16 C16 1_555 1_555
C17 N3 1_555 1_555
H17 C17 1_555 1_555
C18 C14 1_555 1_555
H18 C18 1_555 1_555
C19 O7 1_555 1_555
C20 C19 1_555 1_555
C21 C20 1_555 1_555
H19 C21 1_555 1_555
C22 C21 1_555 1_555
H20 C22 1_555 1_555
C23 N4 1_555 1_555
H21 C23 1_555 1_555
C24 C20 1_555 1_555
H22 C24 1_555 1_555
Eu1C O2 1_555 1_555
Eu1C_2 O4 1_555 1_555
Ag1C N1 1_555 1_555
Ag2_2 N3 1_555 1_555
O2C Eu1 1_555 1_555
O4C Eu1 1_555 1_555
N1C Ag1 1_555 1_555
N3_2 Ag2 1_555 1_555
C5 C6 1_555 1_555
C11 C12 1_555 1_555
C17 C18 1_555 1_555
C23 C24 1_555 1_555

#END
