
#######################################################################
#
#                 Cambridge Crystallographic Data Centre
#                                CCDC 
#
#######################################################################
#
# If this CIF has been generated from an entry in the Cambridge 
# Structural Database, then it will include bibliographic, chemical, 
# crystal, experimental, refinement or atomic coordinate data resulting 
# from the CCDC's data processing and validation procedures.
#
#######################################################################

data_NUDHEB
_symmetry_cell_setting           monoclinic
_symmetry_space_group_name_H-M   'P 21/c'
_symmetry_Int_Tables_number      14
_space_group_name_Hall           '-P 2ybc'
loop_
_symmetry_equiv_pos_site_id
_symmetry_equiv_pos_as_xyz
1 x,y,z
2 -x,1/2+y,1/2-z
3 -x,-y,-z
4 x,1/2-y,1/2+z
_cell_length_a                   10.5622(7)
_cell_length_b                   28.2707(15)
_cell_length_c                   9.3735(8)
_cell_angle_alpha                90
_cell_angle_beta                 112.382(9)
_cell_angle_gamma                90
_cell_volume                     2588.08
loop_
_atom_site_label
_atom_site_type_symbol
_atom_site_fract_x
_atom_site_fract_y
_atom_site_fract_z
Zn1 Zn 0.05972(5) 0.163243(19) 0.46612(7)
N1 N -0.0016(3) 0.12042(12) 0.6291(4)
N2 N 0.1219(3) 0.09508(12) 0.4492(4)
N3 N 0.1862(3) 0.02128(12) 0.5684(4)
N4 N 0.2462(3) 0.04334(12) 0.3560(4)
N5 N 0.1134(3) 0.16154(12) 0.2557(4)
N6 N 0.3794(4) -0.04070(13) 0.3815(4)
O1 O 0.2315(3) 0.19535(10) 0.5915(4)
O2 O 0.3478(3) 0.13728(11) 0.7448(4)
O3 O 0.8087(3) 0.33496(12) 0.7627(4)
O4 O 0.9311(3) 0.28356(11) 0.9336(4)
C1 C -0.0753(4) 0.13450(18) 0.7099(6)
H1 H -0.1129 0.1647 0.6935
C2 C -0.0975(5) 0.10552(19) 0.8172(6)
H2 H -0.1500 0.1162 0.8710
C3 C -0.0421(5) 0.06140(19) 0.8436(6)
H3 H -0.0554 0.0418 0.9164
C4 C 0.0343(5) 0.04598(17) 0.7610(5)
H4 H 0.0731 0.0159 0.7769
C5 C 0.0512(4) 0.07632(16) 0.6545(5)
C6 C 0.1251(4) 0.06279(15) 0.5544(5)
C7 C 0.2477(4) 0.01369(15) 0.4681(5)
C8 C 0.1837(4) 0.08377(15) 0.3547(5)
C9 C 0.1771(4) 0.12161(15) 0.2398(5)
C10 C 0.2311(4) 0.11515(16) 0.1296(5)
H5 H 0.2762 0.0873 0.1245
C11 C 0.2159(5) 0.15215(17) 0.0246(6)
H6 H 0.2506 0.1495 -0.0525
C12 C 0.1487(5) 0.19238(17) 0.0380(6)
H7 H 0.1364 0.2171 -0.0313
C13 C 0.1001(5) 0.19607(16) 0.1528(6)
H8 H 0.0556 0.2238 0.1602
C14 C 0.3227(4) -0.03163(15) 0.4851(5)
C15 C 0.3328(5) -0.06273(16) 0.6036(5)
H9 H 0.2924 -0.0555 0.6734
C16 C 0.4034(5) -0.10442(18) 0.6159(6)
H10 H 0.4122 -0.1257 0.6949
C17 C 0.4601(5) -0.11414(17) 0.5109(6)
H11 H 0.5075 -0.1422 0.5163
C18 C 0.4462(5) -0.08187(17) 0.3971(6)
H12 H 0.4856 -0.0889 0.3263
C19 C 0.3397(4) 0.17678(16) 0.6861(5)
C20 C 0.4684(4) 0.20653(15) 0.7224(5)
C21 C 0.4614(4) 0.24851(17) 0.6423(5)
H13 H 0.3794 0.2574 0.5642
C22 C 0.5756(4) 0.27712(16) 0.6780(6)
H14 H 0.5694 0.3055 0.6253
C23 C 0.6988(4) 0.26394(16) 0.7911(5)
C24 C 0.7075(4) 0.22159(16) 0.8677(5)
H15 H 0.7906 0.2122 0.9425
C25 C 0.5932(4) 0.19301(16) 0.8340(5)
H16 H 0.6002 0.1646 0.8865
C26 C 0.8206(5) 0.29677(17) 0.8305(6)
Zn1C Zn 1.05972(5) 0.336757(19) 0.96612(7)
O4C O -0.0689(3) 0.21644(11) 0.4336(4)
O5 O 0.4663(6) 0.43084(16) 0.4783(5)
H17 H 0.4176 0.4140 0.4021
H18 H 0.5284 0.4443 0.4560
O6 O 0.6554(5) 0.49247(17) 0.4249(5)
H19 H 0.6379 0.4925 0.3286
H20 H 0.6159 0.5161 0.4461
O7 O 0.1472(5) 0.57520(16) 0.3585(5)
H21 H 0.1764 0.6006 0.3333
H22 H 0.2150 0.5598 0.4201
loop_
_geom_bond_atom_site_label_1
_geom_bond_atom_site_label_2
_geom_bond_site_symmetry_1
_geom_bond_site_symmetry_2
Zn1 N1 1_555 1_555
N1 C1 1_555 1_555
N2 Zn1 1_555 1_555
N3 C6 1_555 1_555
N4 C7 1_555 1_555
N5 Zn1 1_555 1_555
N6 C14 1_555 1_555
O1 Zn1 1_555 1_555
O2 C19 1_555 1_555
O3 C26 1_555 1_555
O4 C26 1_555 1_555
C1 H1 1_555 1_555
C2 C1 1_555 1_555
H2 C2 1_555 1_555
C3 C2 1_555 1_555
H3 C3 1_555 1_555
C4 C3 1_555 1_555
H4 C4 1_555 1_555
C5 N1 1_555 1_555
C6 N2 1_555 1_555
C7 N3 1_555 1_555
C8 N2 1_555 1_555
C9 N5 1_555 1_555
C10 C9 1_555 1_555
H5 C10 1_555 1_555
C11 C10 1_555 1_555
H6 C11 1_555 1_555
C12 C11 1_555 1_555
H7 C12 1_555 1_555
C13 N5 1_555 1_555
H8 C13 1_555 1_555
C14 C7 1_555 1_555
C15 C14 1_555 1_555
H9 C15 1_555 1_555
C16 C15 1_555 1_555
H10 C16 1_555 1_555
C17 C16 1_555 1_555
H11 C17 1_555 1_555
C18 N6 1_555 1_555
H12 C18 1_555 1_555
C19 O1 1_555 1_555
C20 C19 1_555 1_555
C21 C20 1_555 1_555
H13 C21 1_555 1_555
C22 C21 1_555 1_555
H14 C22 1_555 1_555
C23 C22 1_555 1_555
C24 C23 1_555 1_555
H15 C24 1_555 1_555
C25 C20 1_555 1_555
H16 C25 1_555 1_555
C26 C23 1_555 1_555
O5 H17 1_555 1_555
H18 O5 1_555 1_555
O6 H19 1_555 1_555
H20 O6 1_555 1_555
O7 H21 1_555 1_555
H22 O7 1_555 1_555
Zn1C O4 1_555 1_555
O4C Zn1 1_555 1_555
N4 C8 1_555 1_555
C4 C5 1_555 1_555
C5 C6 1_555 1_555
C8 C9 1_555 1_555
C12 C13 1_555 1_555
C17 C18 1_555 1_555
C24 C25 1_555 1_555

#END
