
#######################################################################
#
#                 Cambridge Crystallographic Data Centre
#                                CCDC 
#
#######################################################################
#
# If this CIF has been generated from an entry in the Cambridge 
# Structural Database, then it will include bibliographic, chemical, 
# crystal, experimental, refinement or atomic coordinate data resulting 
# from the CCDC's data processing and validation procedures.
#
#######################################################################

data_NUDLUU
_symmetry_cell_setting           monoclinic
_symmetry_space_group_name_H-M   'C 2'
_symmetry_Int_Tables_number      5
_space_group_name_Hall           'C 2y'
loop_
_symmetry_equiv_pos_site_id
_symmetry_equiv_pos_as_xyz
1 x,y,z
2 -x,y,-z
3 1/2+x,1/2+y,z
4 1/2-x,1/2+y,-z
_cell_length_a                   21.9803(3)
_cell_length_b                   14.3748(2)
_cell_length_c                   13.3242(2)
_cell_angle_alpha                90
_cell_angle_beta                 120.320(5)
_cell_angle_gamma                90
_cell_volume                     3634.11
loop_
_atom_site_label
_atom_site_type_symbol
_atom_site_fract_x
_atom_site_fract_y
_atom_site_fract_z
Fe1 Fe 0.13152(19) 0.01702(18) 0.8964(3)
Fe2 Fe -0.1497(2) -0.37681(19) 0.5893(3)
Fe3 Fe 0.0000 -0.2352(3) 1.0000
Fe4 Fe 0.0000 -0.1518(6) 0.5000
N1 N 0.2185(7) -0.0563(9) 0.9648(14)
N2 N 0.2839(7) -0.0110(7) 1.0286(12)
C1 C 0.3366(9) -0.0742(10) 1.0698(16)
H1 H 0.3856 -0.0603 1.1083
C2 C 0.3072(10) -0.1636(9) 1.0462(14)
H2 H 0.3315 -0.2211 1.0719
C3 C 0.2344(10) -0.1501(9) 0.9768(17)
H3 H 0.2006 -0.1987 0.9428
N3 N 0.1734(7) 0.0931(9) 1.0413(11)
N4 N 0.2422(7) 0.1237(9) 1.0943(11)
C4 C 0.2531(9) 0.1813(11) 1.1825(15)
H4 H 0.2960 0.2132 1.2313
C5 C 0.1926(9) 0.1873(11) 1.1917(13)
H5 H 0.1871 0.2206 1.2481
C6 C 0.1423(8) 0.1336(12) 1.1001(14)
H6 H 0.0947 0.1258 1.0808
N5 N 0.1749(9) 0.1074(10) 0.8385(13)
N6 N 0.2462(9) 0.1314(12) 0.9070(13)
C7 C 0.2639(9) 0.1852(14) 0.8405(15)
H7 H 0.3093 0.2107 0.8655
C8 C 0.2047(9) 0.1968(12) 0.7300(14)
H8 H 0.2021 0.2315 0.6673
C9 C 0.1497(9) 0.1468(13) 0.7301(14)
H9 H 0.1030 0.1411 0.6662
N7 N -0.2350(7) -0.3007(9) 0.5122(13)
N8 N -0.2999(8) -0.3434(9) 0.4540(13)
C10 C -0.3505(9) -0.2774(11) 0.4145(17)
H10 H -0.3996 -0.2890 0.3680
C11 C -0.3200(10) -0.1895(11) 0.4520(17)
H11 H -0.3434 -0.1315 0.4400
C12 C -0.2473(10) -0.2063(10) 0.5113(18)
H12 H -0.2118 -0.1598 0.5456
N9 N -0.1966(7) -0.4603(9) 0.6478(11)
N10 N -0.2673(8) -0.4826(11) 0.5765(11)
C13 C -0.2878(10) -0.5429(12) 0.6313(14)
H13 H -0.3311 -0.5760 0.5967
C14 C -0.2339(9) -0.5482(11) 0.7484(13)
H14 H -0.2354 -0.5798 0.8097
C15 C -0.1774(9) -0.4970(11) 0.7556(12)
H15 H -0.1328 -0.4889 0.8241
N11 N -0.1929(9) -0.4632(10) 0.4463(12)
N12 N -0.2654(10) -0.4792(13) 0.3846(17)
C16 C -0.2794(10) -0.5383(13) 0.2973(15)
H16 H -0.3229 -0.5696 0.2507
C17 C -0.2198(10) -0.5465(16) 0.2863(16)
H17 H -0.2164 -0.5788 0.2271
C18 C -0.1656(10) -0.4974(14) 0.3803(16)
H18 H -0.1188 -0.4892 0.3956
B1 B 0.2861(11) 0.0975(10) 1.0361(15)
B2 B -0.3063(15) -0.4506(11) 0.4473(17)
C19 C 0.0934(10) -0.0714(12) 0.9553(15)
N13 N 0.0584(10) -0.1320(12) 0.9732(15)
C20 C 0.0883(12) -0.0530(13) 0.7569(15)
N14 N 0.0528(11) -0.0884(11) 0.6572(12)
C21 C 0.0480(13) 0.0833(18) 0.8267(16)
N15 N 0.0019(19) 0.1425(19) 0.810(3)
C22 C -0.1100(10) -0.2993(13) 0.7245(15)
N16 N -0.0843(11) -0.2524(12) 0.8144(15)
C23 C -0.1020(16) -0.2957(17) 0.539(3)
N17 N -0.0670(12) -0.2361(16) 0.5210(19)
C24 C -0.0675(12) -0.4525(15) 0.6610(18)
N18 N -0.0085(10) -0.4865(16) 0.7295(19)
O1 O -0.0592(16) -0.3531(13) 1.031(2)
Fe1A Fe -0.13152(19) 0.01702(18) 1.1036(3)
Fe2A Fe 0.1497(2) -0.37681(19) 1.4107(3)
Fe4_2 Fe 0.0000 -0.1518(6) 1.5000
N1A N -0.2185(7) -0.0563(9) 1.0352(14)
N2A N -0.2839(7) -0.0110(7) 0.9714(12)
C1A C -0.3366(9) -0.0742(10) 0.9302(16)
H1A H -0.3856 -0.0603 0.8917
C2A C -0.3072(10) -0.1636(9) 0.9538(14)
H2A H -0.3315 -0.2211 0.9281
C3A C -0.2344(10) -0.1501(9) 1.0232(17)
H3A H -0.2006 -0.1987 1.0572
N3A N -0.1734(7) 0.0931(9) 0.9587(11)
N4A N -0.2422(7) 0.1237(9) 0.9057(11)
C4A C -0.2531(9) 0.1813(11) 0.8175(15)
H4A H -0.2960 0.2132 0.7687
C5A C -0.1926(9) 0.1873(11) 0.8083(13)
H5A H -0.1871 0.2206 0.7519
C6A C -0.1423(8) 0.1336(12) 0.8999(14)
H6A H -0.0947 0.1258 0.9192
N5A N -0.1749(9) 0.1074(10) 1.1615(13)
N6A N -0.2462(9) 0.1314(12) 1.0930(13)
C7A C -0.2639(9) 0.1852(14) 1.1595(15)
H7A H -0.3093 0.2107 1.1345
C8A C -0.2047(9) 0.1968(12) 1.2700(14)
H8A H -0.2021 0.2315 1.3327
C9A C -0.1497(9) 0.1468(13) 1.2699(14)
H9A H -0.1030 0.1411 1.3338
N7A N 0.2350(7) -0.3007(9) 1.4878(13)
N8A N 0.2999(8) -0.3434(9) 1.5460(13)
C10A C 0.3505(9) -0.2774(11) 1.5855(17)
H10A H 0.3996 -0.2890 1.6320
C11A C 0.3200(10) -0.1895(11) 1.5480(17)
H11A H 0.3434 -0.1315 1.5600
C12A C 0.2473(10) -0.2063(10) 1.4887(18)
H12A H 0.2118 -0.1598 1.4544
N9A N 0.1966(7) -0.4603(9) 1.3522(11)
N10A N 0.2673(8) -0.4826(11) 1.4235(11)
C13A C 0.2878(10) -0.5429(12) 1.3687(14)
H13A H 0.3311 -0.5760 1.4033
C14A C 0.2339(9) -0.5482(11) 1.2516(13)
H14A H 0.2354 -0.5798 1.1903
C15A C 0.1774(9) -0.4970(11) 1.2444(12)
H15A H 0.1328 -0.4889 1.1759
N11A N 0.1929(9) -0.4632(10) 1.5537(12)
N12A N 0.2654(10) -0.4792(13) 1.6154(17)
C16A C 0.2794(10) -0.5383(13) 1.7027(15)
H16A H 0.3229 -0.5696 1.7493
C17A C 0.2198(10) -0.5465(16) 1.7137(16)
H17A H 0.2164 -0.5788 1.7729
C18A C 0.1656(10) -0.4974(14) 1.6197(16)
H18A H 0.1188 -0.4892 1.6044
B1A B -0.2861(11) 0.0975(10) 0.9639(15)
B2A B 0.3063(15) -0.4506(11) 1.5527(17)
C19A C -0.0934(10) -0.0714(12) 1.0447(15)
N13A N -0.0584(10) -0.1320(12) 1.0268(15)
C20A C -0.0883(12) -0.0530(13) 1.2431(15)
N14A N -0.0528(11) -0.0884(11) 1.3428(12)
N14A_2 N -0.0528(11) -0.0884(11) 0.3428(12)
C21A C -0.0480(13) 0.0833(18) 1.1733(16)
N15A N -0.0019(19) 0.1425(19) 1.190(3)
C22A C 0.1100(10) -0.2993(13) 1.2755(15)
N16A N 0.0843(11) -0.2524(12) 1.1856(15)
C23A C 0.1020(16) -0.2957(17) 1.461(3)
N17A N 0.0670(12) -0.2361(16) 1.4790(19)
N17A_2 N 0.0670(12) -0.2361(16) 0.4790(19)
C24A C 0.0675(12) -0.4525(15) 1.3390(18)
N18A N 0.0085(10) -0.4865(16) 1.2705(19)
O1A O 0.0592(16) -0.3531(13) 0.969(2)
loop_
_geom_bond_atom_site_label_1
_geom_bond_atom_site_label_2
_geom_bond_site_symmetry_1
_geom_bond_site_symmetry_2
Fe1 N1 1_555 1_555
Fe2 N7 1_555 1_555
Fe3 N13 1_555 1_555
Fe4 N14 1_555 1_555
N1 N2 1_555 1_555
N2 C1 1_555 1_555
C1 H1 1_555 1_555
C2 C1 1_555 1_555
H2 C2 1_555 1_555
C3 N1 1_555 1_555
H3 C3 1_555 1_555
N3 Fe1 1_555 1_555
N4 N3 1_555 1_555
C4 N4 1_555 1_555
H4 C4 1_555 1_555
C5 C4 1_555 1_555
H5 C5 1_555 1_555
C6 N3 1_555 1_555
H6 C6 1_555 1_555
N5 Fe1 1_555 1_555
N6 N5 1_555 1_555
C7 N6 1_555 1_555
H7 C7 1_555 1_555
C8 C7 1_555 1_555
H8 C8 1_555 1_555
C9 N5 1_555 1_555
H9 C9 1_555 1_555
N7 N8 1_555 1_555
N8 C10 1_555 1_555
C10 H10 1_555 1_555
C11 C10 1_555 1_555
H11 C11 1_555 1_555
C12 N7 1_555 1_555
H12 C12 1_555 1_555
N9 Fe2 1_555 1_555
N10 N9 1_555 1_555
C13 N10 1_555 1_555
H13 C13 1_555 1_555
C14 C13 1_555 1_555
H14 C14 1_555 1_555
C15 N9 1_555 1_555
H15 C15 1_555 1_555
N11 Fe2 1_555 1_555
N12 N11 1_555 1_555
C16 N12 1_555 1_555
H16 C16 1_555 1_555
C17 C16 1_555 1_555
H17 C17 1_555 1_555
C18 N11 1_555 1_555
H18 C18 1_555 1_555
B1 N2 1_555 1_555
B2 N8 1_555 1_555
C19 Fe1 1_555 1_555
N13 C19 1_555 1_555
C20 Fe1 1_555 1_555
N14 C20 1_555 1_555
C21 Fe1 1_555 1_555
N15 C21 1_555 1_555
C22 Fe2 1_555 1_555
N16 Fe3 1_555 1_555
C23 Fe2 1_555 1_555
N17 Fe4 1_555 1_555
C24 Fe2 1_555 1_555
N18 C24 1_555 1_555
O1 Fe3 1_555 1_555
Fe1A N1A 1_555 1_555
Fe2A N7A 1_555 1_555
Fe4_2 N14A 1_555 1_555
N1A N2A 1_555 1_555
N2A C1A 1_555 1_555
C1A H1A 1_555 1_555
C2A C1A 1_555 1_555
H2A C2A 1_555 1_555
C3A N1A 1_555 1_555
H3A C3A 1_555 1_555
N3A Fe1A 1_555 1_555
N4A N3A 1_555 1_555
C4A N4A 1_555 1_555
H4A C4A 1_555 1_555
C5A C4A 1_555 1_555
H5A C5A 1_555 1_555
C6A N3A 1_555 1_555
H6A C6A 1_555 1_555
N5A Fe1A 1_555 1_555
N6A N5A 1_555 1_555
C7A N6A 1_555 1_555
H7A C7A 1_555 1_555
C8A C7A 1_555 1_555
H8A C8A 1_555 1_555
C9A N5A 1_555 1_555
H9A C9A 1_555 1_555
N7A N8A 1_555 1_555
N8A C10A 1_555 1_555
C10A H10A 1_555 1_555
C11A C10A 1_555 1_555
H11A C11A 1_555 1_555
C12A N7A 1_555 1_555
H12A C12A 1_555 1_555
N9A Fe2A 1_555 1_555
N10A N9A 1_555 1_555
C13A N10A 1_555 1_555
H13A C13A 1_555 1_555
C14A C13A 1_555 1_555
H14A C14A 1_555 1_555
C15A N9A 1_555 1_555
H15A C15A 1_555 1_555
N11A Fe2A 1_555 1_555
N12A N11A 1_555 1_555
C16A N12A 1_555 1_555
H16A C16A 1_555 1_555
C17A C16A 1_555 1_555
H17A C17A 1_555 1_555
C18A N11A 1_555 1_555
H18A C18A 1_555 1_555
B1A N2A 1_555 1_555
B2A N8A 1_555 1_555
C19A Fe1A 1_555 1_555
N13A Fe3 1_555 1_555
C20A Fe1A 1_555 1_555
N14A C20A 1_555 1_555
N14A_2 Fe4 1_555 1_555
C21A Fe1A 1_555 1_555
N15A C21A 1_555 1_555
C22A Fe2A 1_555 1_555
N16A Fe3 1_555 1_555
C23A Fe2A 1_555 1_555
N17A Fe4_2 1_555 1_555
N17A_2 Fe4 1_555 1_555
C24A Fe2A 1_555 1_555
N18A C24A 1_555 1_555
O1A Fe3 1_555 1_555
C2 C3 1_555 1_555
N4 B1 1_555 1_555
C5 C6 1_555 1_555
N6 B1 1_555 1_555
C8 C9 1_555 1_555
C11 C12 1_555 1_555
N10 B2 1_555 1_555
C14 C15 1_555 1_555
N12 B2 1_555 1_555
C17 C18 1_555 1_555
C22 N16 1_555 1_555
C23 N17 1_555 1_555
C2A C3A 1_555 1_555
N4A B1A 1_555 1_555
C5A C6A 1_555 1_555
N6A B1A 1_555 1_555
C8A C9A 1_555 1_555
C11A C12A 1_555 1_555
N10A B2A 1_555 1_555
C14A C15A 1_555 1_555
N12A B2A 1_555 1_555
C17A C18A 1_555 1_555
C19A N13A 1_555 1_555
C22A N16A 1_555 1_555
C23A N17A 1_555 1_555

#END
