
#######################################################################
#
#                 Cambridge Crystallographic Data Centre
#                                CCDC 
#
#######################################################################
#
# If this CIF has been generated from an entry in the Cambridge 
# Structural Database, then it will include bibliographic, chemical, 
# crystal, experimental, refinement or atomic coordinate data resulting 
# from the CCDC's data processing and validation procedures.
#
#######################################################################

data_NUDMUW01
_symmetry_cell_setting           monoclinic
_symmetry_space_group_name_H-M   'C 2/c'
_symmetry_Int_Tables_number      15
_space_group_name_Hall           '-C 2yn'
loop_
_symmetry_equiv_pos_site_id
_symmetry_equiv_pos_as_xyz
1 x,y,z
2 -x,y,1/2-z
3 1/2+x,1/2+y,z
4 1/2-x,1/2+y,1/2-z
5 -x,-y,-z
6 x,-y,1/2+z
7 1/2-x,1/2-y,-z
8 1/2+x,1/2-y,1/2+z
_cell_length_a                   17.979(4)
_cell_length_b                   12.814(2)
_cell_length_c                   11.017(2)
_cell_angle_alpha                90
_cell_angle_beta                 103.296(5)
_cell_angle_gamma                90
_cell_volume                     2470.09
loop_
_atom_site_label
_atom_site_type_symbol
_atom_site_fract_x
_atom_site_fract_y
_atom_site_fract_z
Mg1 Mg 0.0000 0.40303(18) 0.2500
Mg2 Mg 0.08534(9) 0.46438(13) 0.04154(14)
O1 O 0.07657(19) 0.5155(3) 0.2208(3)
O2 O 0.1336(2) 0.5886(3) 0.4011(3)
O3 O 0.3534(2) 0.8369(3) 0.3687(3)
O4 O 0.4162(2) 0.7931(3) 0.2232(3)
O5 O -0.0210(2) 0.4140(3) 0.0539(3)
H1 H -0.041(3) 0.356(5) 0.029(5)
N1 N 0.1855(2) 0.5676(3) 0.1131(4)
C1 C 0.1899(3) 0.6073(4) 0.2276(4)
C2 C 0.2460(3) 0.6765(4) 0.2848(5)
H2 H 0.251(3) 0.700(4) 0.355(5)
C3 C 0.3013(3) 0.7072(4) 0.2232(4)
C4 C 0.2983(3) 0.6632(5) 0.1063(5)
H3 H 0.337(3) 0.681(4) 0.063(5)
C5 C 0.2401(3) 0.5956(4) 0.0542(5)
H4 H 0.242(3) 0.569(4) -0.024(5)
C6 C 0.1289(3) 0.5686(4) 0.2897(5)
C7 C 0.3620(3) 0.7850(4) 0.2772(4)
Mg2A Mg -0.08534(9) 0.46438(13) 0.45846(14)
O1A O -0.07657(19) 0.5155(3) 0.2792(3)
O2A O -0.1336(2) 0.5886(3) 0.0989(3)
O3A O -0.3534(2) 0.8369(3) 0.1313(3)
O4A O -0.4162(2) 0.7931(3) 0.2768(3)
O5A O 0.0210(2) 0.4140(3) 0.4461(3)
H1A H 0.041(3) 0.356(5) 0.471(5)
N1A N -0.1855(2) 0.5676(3) 0.3869(4)
C1A C -0.1899(3) 0.6073(4) 0.2724(4)
C2A C -0.2460(3) 0.6765(4) 0.2152(5)
H2A H -0.251(3) 0.700(4) 0.145(5)
C3A C -0.3013(3) 0.7072(4) 0.2768(4)
C4A C -0.2983(3) 0.6632(5) 0.3937(5)
H3A H -0.337(3) 0.681(4) 0.437(5)
C5A C -0.2401(3) 0.5956(4) 0.4458(5)
H4A H -0.242(3) 0.569(4) 0.524(5)
C6A C -0.1289(3) 0.5686(4) 0.2103(5)
C7A C -0.3620(3) 0.7850(4) 0.2228(4)
Mg1B Mg -0.5000 0.90303(18) 0.2500
Mg1B_2 Mg 0.5000 0.90303(18) 0.2500
Mg2B Mg -0.41466(9) 0.96438(13) 0.04154(14)
Mg2C Mg 0.41466(9) 0.96438(13) 0.45846(14)
Mg2D Mg -0.08534(9) 0.53562(13) -0.04154(14)
Mg2E Mg 0.08534(9) 0.53562(13) 0.54154(14)
O2D O -0.1336(2) 0.4114(3) 0.5989(3)
O2E O 0.1336(2) 0.4114(3) -0.0989(3)
O3B O -0.1466(2) 0.3369(3) 0.3687(3)
O3C O 0.1466(2) 0.3369(3) 0.1313(3)
O4B O -0.0838(2) 0.2931(3) 0.2232(3)
O4C O 0.0838(2) 0.2931(3) 0.2768(3)
O5D O 0.0210(2) 0.5860(3) -0.0539(3)
O5E O -0.0210(2) 0.5860(3) 0.5539(3)
C8 C 0.1118(15) 0.116(2) -0.145(2)
H5 H 0.1275 0.0693 -0.2019
H6 H 0.1560 0.1403 -0.0846
H7 H 0.0859 0.1750 -0.1898
C9 C 0.0547(12) 0.057(2) -0.0738(19)
C10 C 0.0245(14) 0.110(2) 0.015(2)
H8 H 0.0372 0.1791 0.0331
C11 C 0.0353(14) -0.048(2) -0.101(2)
H9 H 0.0551 -0.0833 -0.1601
C8D C -0.1118(15) -0.116(2) 0.145(2)
H5D H -0.1275 -0.0693 0.2019
H6D H -0.1560 -0.1403 0.0846
H7D H -0.0859 -0.1750 0.1898
C9D C -0.0547(12) -0.057(2) 0.0738(19)
C10D C -0.0245(14) -0.110(2) -0.015(2)
H8D H -0.0372 -0.1791 -0.0331
C11D C -0.0353(14) 0.048(2) 0.101(2)
H9D H -0.0551 0.0833 0.1601
C12? C 0.0576(15) 0.038(2) -0.429(2)
C13? C 0.0329(16) -0.063(3) -0.410(2)
H10? H 0.0537 -0.0986 -0.3357
C14? C -0.0228(16) -0.111(2) -0.502(3)
H11? H -0.0390 -0.1786 -0.4893
C15? C -0.0542(16) -0.059(2) -0.613(2)
C16? C -0.030(2) 0.042(3) -0.632(3)
H12? H -0.0502 0.0770 -0.7060
C17? C 0.026(2) 0.090(2) -0.540(3)
H13? H 0.0422 0.1574 -0.5523
C18? C 0.122(2) 0.093(3) -0.322(3)
H14? H 0.1315 0.1627 -0.3478
H15? H 0.1686 0.0536 -0.3078
H16? H 0.1048 0.0970 -0.2455
C19? C -0.119(2) -0.115(3) -0.720(3)
H17? H -0.1281 -0.1841 -0.6940
H18? H -0.1012 -0.1186 -0.7961
H19? H -0.1651 -0.0750 -0.7344
C20? C -0.0246(15) 0.058(2) 0.076(2)
H20? H -0.0445 0.0938 0.1355
C21? C -0.0441(13) -0.046(2) 0.049(2)
C22? C -0.0138(15) -0.099(2) -0.039(2)
H21? H -0.0264 -0.1688 -0.0573
C23? C -0.1013(18) -0.106(2) 0.120(3)
H22? H -0.1075 -0.1770 0.0921
H23? H -0.1500 -0.0717 0.1020
H24? H -0.0801 -0.1047 0.2085
loop_
_geom_bond_atom_site_label_1
_geom_bond_atom_site_label_2
_geom_bond_site_symmetry_1
_geom_bond_site_symmetry_2
Mg1 O1 1_555 1_555
Mg2 O1 1_555 1_555
O1 C6 1_555 1_555
O2 C6 1_555 1_555
O3 C7 1_555 1_555
O4 C7 1_555 1_555
O5 Mg1 1_555 1_555
H1 O5 1_555 1_555
N1 Mg2 1_555 1_555
C1 N1 1_555 1_555
C2 C1 1_555 1_555
H2 C2 1_555 1_555
C3 C2 1_555 1_555
C4 C3 1_555 1_555
H3 C4 1_555 1_555
C5 N1 1_555 1_555
H4 C5 1_555 1_555
C6 C1 1_555 1_555
C7 C3 1_555 1_555
C8 H5 1_555 1_555
H6 C8 1_555 1_555
H7 C8 1_555 1_555
C9 C8 1_555 1_555
C10 C9 1_555 1_555
H8 C10 1_555 1_555
C11 C9 1_555 1_555
H9 C11 1_555 1_555
Mg2A O1A 1_555 1_555
O1A Mg1 1_555 1_555
O2A C6A 1_555 1_555
O3A C7A 1_555 1_555
O4A C7A 1_555 1_555
O5A Mg1 1_555 1_555
H1A O5A 1_555 1_555
N1A Mg2A 1_555 1_555
C1A N1A 1_555 1_555
C2A C1A 1_555 1_555
H2A C2A 1_555 1_555
C3A C2A 1_555 1_555
C4A C3A 1_555 1_555
H3A C4A 1_555 1_555
C5A N1A 1_555 1_555
H4A C5A 1_555 1_555
C6A O1A 1_555 1_555
C7A C3A 1_555 1_555
Mg1B O4A 1_555 1_555
Mg1B_2 O4 1_555 1_555
Mg2B O3A 1_555 1_555
Mg2C O3 1_555 1_555
Mg2D O5 1_555 1_555
Mg2E O2 1_555 1_555
O2D Mg2A 1_555 1_555
O2E Mg2 1_555 1_555
O3B Mg2A 1_555 1_555
O3C Mg2 1_555 1_555
O4B Mg1 1_555 1_555
O4C Mg1 1_555 1_555
O5D Mg2 1_555 1_555
O5E Mg2A 1_555 1_555
C8D H5D 1_555 1_555
H6D C8D 1_555 1_555
H7D C8D 1_555 1_555
C9D C8D 1_555 1_555
C10D C11 1_555 1_555
H8D C10D 1_555 1_555
C11D C10 1_555 1_555
H9D C11D 1_555 1_555
Mg2 O5 1_555 1_555
C4 C5 1_555 1_555
Mg2A O5A 1_555 1_555
O2A Mg2D 1_555 1_555
O5A Mg2E 1_555 1_555
C1A C6A 1_555 1_555
C4A C5A 1_555 1_555
Mg2D O5D 1_555 1_555
Mg2E O5E 1_555 1_555
C9D C10D 1_555 1_555
C9D C11D 1_555 1_555

#END
