
#######################################################################
#
#                 Cambridge Crystallographic Data Centre
#                                CCDC 
#
#######################################################################
#
# If this CIF has been generated from an entry in the Cambridge 
# Structural Database, then it will include bibliographic, chemical, 
# crystal, experimental, refinement or atomic coordinate data resulting 
# from the CCDC's data processing and validation procedures.
#
#######################################################################

data_NUDMEG
_symmetry_cell_setting           monoclinic
_symmetry_space_group_name_H-M   'C 2/c'
_symmetry_Int_Tables_number      15
_space_group_name_Hall           '-C 2yn'
loop_
_symmetry_equiv_pos_site_id
_symmetry_equiv_pos_as_xyz
1 x,y,z
2 -x,y,1/2-z
3 1/2+x,1/2+y,z
4 1/2-x,1/2+y,1/2-z
5 -x,-y,-z
6 x,-y,1/2+z
7 1/2-x,1/2-y,-z
8 1/2+x,1/2-y,1/2+z
_cell_length_a                   18.204(3)
_cell_length_b                   12.3884(18)
_cell_length_c                   11.0014(19)
_cell_angle_alpha                90
_cell_angle_beta                 102.366(6)
_cell_angle_gamma                90
_cell_volume                     2423.46
loop_
_atom_site_label
_atom_site_type_symbol
_atom_site_fract_x
_atom_site_fract_y
_atom_site_fract_z
N1 N 0.8164(2) -0.4322(4) 1.3899(4)
Mg1 Mg 0.91703(9) -0.53595(14) 1.46041(17)
Mg2 Mg 1.0000 -0.60341(19) 1.2500
O1 O 0.92470(17) -0.4856(3) 1.2805(3)
O2 O 0.86949(19) -0.4088(3) 1.1018(3)
O3 O 0.64534(19) -0.1672(3) 1.1283(4)
O4 O 0.58117(19) -0.2179(3) 1.2712(3)
O5 O 1.0210(2) -0.5897(3) 1.4454(4)
H1 H 1.035(3) -0.634(5) 1.480(6)
C1 C 0.8119(3) -0.3930(4) 1.2743(5)
C2 C 0.7549(3) -0.3255(4) 1.2157(5)
H2 H 0.758(3) -0.298(4) 1.143(5)
C3 C 0.6996(3) -0.2988(4) 1.2777(5)
C4 C 0.7024(3) -0.3400(5) 1.3937(5)
H3 H 0.661(3) -0.329(4) 1.440(6)
C5 C 0.7620(3) -0.4048(5) 1.4474(6)
H4 H 0.765(3) -0.429(5) 1.523(6)
C6 C 0.8742(3) -0.4318(4) 1.2124(5)
C7 C 0.6363(3) -0.2219(4) 1.2194(5)
N1A N 1.1836(2) -0.4322(4) 1.1101(4)
Mg1A Mg 1.08297(9) -0.53595(14) 1.03959(17)
O1A O 1.07530(17) -0.4856(3) 1.2195(3)
O2A O 1.13051(19) -0.4088(3) 1.3982(3)
O3A O 1.35466(19) -0.1672(3) 1.3717(4)
O4A O 1.41883(19) -0.2179(3) 1.2288(3)
O5A O 0.9790(2) -0.5897(3) 1.0546(4)
H1A H 0.965(3) -0.634(5) 1.020(6)
C1A C 1.1881(3) -0.3930(4) 1.2257(5)
C2A C 1.2451(3) -0.3255(4) 1.2843(5)
H2A H 1.242(3) -0.298(4) 1.357(5)
C3A C 1.3004(3) -0.2988(4) 1.2223(5)
C4A C 1.2976(3) -0.3400(5) 1.1063(5)
H3A H 1.339(3) -0.329(4) 1.060(6)
C5A C 1.2380(3) -0.4048(5) 1.0526(6)
H4A H 1.235(3) -0.429(5) 0.977(6)
C6A C 1.1258(3) -0.4318(4) 1.2876(5)
C7A C 1.3637(3) -0.2219(4) 1.2806(5)
Mg1B Mg 1.41703(9) -0.03595(14) 1.46041(17)
Mg1C Mg 0.58297(9) -0.03595(14) 1.03959(17)
Mg1D Mg 1.08297(9) -0.46405(14) 1.53959(17)
Mg1E Mg 0.91703(9) -0.46405(14) 0.96041(17)
Mg2B Mg 0.5000 -0.10341(19) 1.2500
Mg2B_2 Mg 1.5000 -0.10341(19) 1.2500
O2D O 1.13051(19) -0.5912(3) 0.8982(3)
O2E O 0.86949(19) -0.5912(3) 1.6018(3)
O3B O 1.14534(19) -0.6672(3) 1.1283(4)
O3C O 0.85466(19) -0.6672(3) 1.3717(4)
O4B O 1.08117(19) -0.7179(3) 1.2712(3)
O4C O 0.91883(19) -0.7179(3) 1.2288(3)
O5D O 0.9790(2) -0.4103(3) 1.5546(4)
O5E O 1.0210(2) -0.4103(3) 0.9454(4)
N2 N 1.0422(8) -0.8035(9) 1.6089(14)
C8 C 1.0977(6) -0.8741(11) 1.6686(14)
H5 H 1.1488 -0.8520 1.6874
C9 C 1.0783(7) -0.9772(11) 1.7006(12)
H6 H 1.1162 -1.0255 1.7414
C10 C 1.0034(8) -1.0096(9) 1.6730(13)
H7 H 0.9902 -1.0800 1.6949
C11 C 0.9480(6) -0.9389(12) 1.6134(13)
H8 H 0.8968 -0.9610 1.5945
C12 C 0.9674(7) -0.8358(11) 1.5813(13)
H9 H 0.9295 -0.7875 1.5405
N3? N 1.0563(14) -0.8197(15) 1.603(2)
C13? C 1.1023(9) -0.910(2) 1.614(2)
H10? H 1.1544 -0.9043 1.6501
C14? C 1.0720(12) -1.0098(16) 1.571(2)
H11? H 1.1034 -1.0718 1.5783
C15? C 0.9958(12) -1.0187(15) 1.518(3)
H12? H 0.9751 -1.0867 1.4887
C16? C 0.9498(9) -0.928(2) 1.507(2)
H13? H 0.8977 -0.9341 1.4710
C17? C 0.9801(13) -0.8286(16) 1.550(2)
H14? H 0.9487 -0.7666 1.5429
loop_
_geom_bond_atom_site_label_1
_geom_bond_atom_site_label_2
_geom_bond_site_symmetry_1
_geom_bond_site_symmetry_2
N1 Mg1 1_555 1_555
Mg1 O1 1_555 1_555
Mg2 O1 1_555 1_555
O1 C6 1_555 1_555
O2 C6 1_555 1_555
O3 C7 1_555 1_555
O4 C7 1_555 1_555
O5 Mg1 1_555 1_555
H1 O5 1_555 1_555
C1 N1 1_555 1_555
C2 C1 1_555 1_555
H2 C2 1_555 1_555
C3 C2 1_555 1_555
C4 C3 1_555 1_555
H3 C4 1_555 1_555
C5 N1 1_555 1_555
H4 C5 1_555 1_555
C6 C1 1_555 1_555
C7 C3 1_555 1_555
N2 C8 1_555 1_555
C8 H5 1_555 1_555
C9 C8 1_555 1_555
H6 C9 1_555 1_555
C10 C9 1_555 1_555
H7 C10 1_555 1_555
C11 C10 1_555 1_555
H8 C11 1_555 1_555
C12 N2 1_555 1_555
H9 C12 1_555 1_555
N1A Mg1A 1_555 1_555
Mg1A O1A 1_555 1_555
O1A Mg2 1_555 1_555
O2A C6A 1_555 1_555
O3A C7A 1_555 1_555
O4A C7A 1_555 1_555
O5A Mg2 1_555 1_555
H1A O5A 1_555 1_555
C1A N1A 1_555 1_555
C2A C1A 1_555 1_555
H2A C2A 1_555 1_555
C3A C2A 1_555 1_555
C4A C3A 1_555 1_555
H3A C4A 1_555 1_555
C5A N1A 1_555 1_555
H4A C5A 1_555 1_555
C6A O1A 1_555 1_555
C7A C3A 1_555 1_555
Mg1B O3A 1_555 1_555
Mg1C O3 1_555 1_555
Mg1D O5 1_555 1_555
Mg1E O2 1_555 1_555
Mg2B O4 1_555 1_555
Mg2B_2 O4A 1_555 1_555
O2D Mg1A 1_555 1_555
O2E Mg1 1_555 1_555
O3B Mg1A 1_555 1_555
O3C Mg1 1_555 1_555
O4B Mg2 1_555 1_555
O4C Mg2 1_555 1_555
O5D Mg1 1_555 1_555
O5E Mg1A 1_555 1_555
Mg2 O5 1_555 1_555
C4 C5 1_555 1_555
C11 C12 1_555 1_555
Mg1A O5A 1_555 1_555
O2A Mg1D 1_555 1_555
O5A Mg1E 1_555 1_555
C1A C6A 1_555 1_555
C4A C5A 1_555 1_555
Mg1D O5D 1_555 1_555
Mg1E O5E 1_555 1_555

#END
