
#######################################################################
#
#                 Cambridge Crystallographic Data Centre
#                                CCDC 
#
#######################################################################
#
# If this CIF has been generated from an entry in the Cambridge 
# Structural Database, then it will include bibliographic, chemical, 
# crystal, experimental, refinement or atomic coordinate data resulting 
# from the CCDC's data processing and validation procedures.
#
#######################################################################

data_NUDNAB
_symmetry_cell_setting           monoclinic
_symmetry_space_group_name_H-M   'C 2'
_symmetry_Int_Tables_number      5
_space_group_name_Hall           'C 2y'
loop_
_symmetry_equiv_pos_site_id
_symmetry_equiv_pos_as_xyz
1 x,y,z
2 -x,y,-z
3 1/2+x,1/2+y,z
4 1/2-x,1/2+y,-z
_cell_length_a                   21.183(2)
_cell_length_b                   3.667(4)
_cell_length_c                   10.357(2)
_cell_angle_alpha                90
_cell_angle_beta                 117.227(7)
_cell_angle_gamma                90
_cell_volume                     715.372
loop_
_atom_site_label
_atom_site_type_symbol
_atom_site_fract_x
_atom_site_fract_y
_atom_site_fract_z
O1 O 0.13139(9) 0.490(2) 0.6009(2)
O2 O 0.15748(10) 0.226(2) 0.8063(2)
O3 O 0.46054(8) 0.462(2) 0.8683(2)
O4 O 0.01153(10) 0.014(2) 0.6643(2)
N1 N 0.1756(1) 0.368(2) 0.7198(2)
C1 C 0.2497(1) 0.393(2) 0.7593(3)
C2 C 0.2701(1) 0.543(2) 0.6605(2)
C3 C 0.3410(1) 0.556(2) 0.6962(3)
C4 C 0.3930(1) 0.437(2) 0.8341(3)
C5 C 0.3699(1) 0.286(2) 0.9309(3)
C6 C 0.2990(1) 0.265(2) 0.8945(3)
H1 H 0.238(1) 0.598(9) 0.568(3)
H2 H 0.360(1) 0.658(9) 0.617(3)
H3 H 0.405(1) 0.207(8) 1.028(3)
H4 H 0.281(1) 0.168(7) 0.958(3)
H5 H 0.055(2) 0.08(1) 0.712(4)
H6 H -0.016(2) 0.03(1) 0.722(3)
Mg1 Mg 0.0000 0.522(2) 0.5000
O1A O -0.13139(9) 0.490(2) 0.3991(2)
N1A N -0.1756(1) 0.368(2) 0.2802(2)
O2A O -0.15748(10) 0.226(2) 0.1937(2)
C1A C -0.2497(1) 0.393(2) 0.2407(3)
C2A C -0.2701(1) 0.543(2) 0.3395(2)
C3A C -0.3410(1) 0.556(2) 0.3038(3)
C4A C -0.3930(1) 0.437(2) 0.1659(3)
O3A O -0.46054(8) 0.462(2) 0.1317(2)
C5A C -0.3699(1) 0.286(2) 0.0691(3)
C6A C -0.2990(1) 0.265(2) 0.1055(3)
H4A H -0.281(1) 0.168(7) 0.042(3)
H3A H -0.405(1) 0.207(8) -0.028(3)
H2A H -0.360(1) 0.658(9) 0.383(3)
H1A H -0.238(1) 0.598(9) 0.432(3)
Mg1_2 Mg 0.0000 -0.478(2) 0.5000
O4A O -0.01153(10) 0.014(2) 0.3357(2)
O4_2 O 0.01153(10) 1.014(2) 0.6643(2)
O4A_2 O -0.01153(10) 1.014(2) 0.3357(2)
H5A H -0.055(2) 0.08(1) 0.288(4)
H6A H 0.016(2) 0.03(1) 0.278(3)
H5_2 H 0.055(2) 1.08(1) 0.712(4)
H6_2 H -0.016(2) 1.03(1) 0.722(3)
H5A_2 H -0.055(2) 1.08(1) 0.288(4)
H6A_2 H 0.016(2) 1.03(1) 0.278(3)
loop_
_geom_bond_atom_site_label_1
_geom_bond_atom_site_label_2
_geom_bond_site_symmetry_1
_geom_bond_site_symmetry_2
O1 N1 1_555 1_555
O2 N1 1_555 1_555
O3 C4 1_555 1_555
O4 H5 1_555 1_555
N1 C1 1_555 1_555
C1 C2 1_555 1_555
C2 C3 1_555 1_555
C3 C4 1_555 1_555
C4 C5 1_555 1_555
C5 C6 1_555 1_555
C6 C1 1_555 1_555
H1 C2 1_555 1_555
H2 C3 1_555 1_555
H3 C5 1_555 1_555
H4 C6 1_555 1_555
H6 O4 1_555 1_555
Mg1 O1 1_555 1_555
O1A Mg1 1_555 1_555
N1A O1A 1_555 1_555
O2A N1A 1_555 1_555
C1A N1A 1_555 1_555
C2A C1A 1_555 1_555
C3A C2A 1_555 1_555
C4A C3A 1_555 1_555
O3A C4A 1_555 1_555
C5A C4A 1_555 1_555
C6A C1A 1_555 1_555
H4A C6A 1_555 1_555
H3A C5A 1_555 1_555
H2A C3A 1_555 1_555
H1A C2A 1_555 1_555
Mg1_2 O4 1_555 1_555
O4A Mg1 1_555 1_555
O4_2 Mg1 1_555 1_555
O4A_2 Mg1 1_555 1_555
H5A O4A 1_555 1_555
H6A O4A 1_555 1_555
H5_2 O4_2 1_555 1_555
H6_2 O4_2 1_555 1_555
H5A_2 O4A_2 1_555 1_555
H6A_2 O4A_2 1_555 1_555
O4 Mg1 1_555 1_555
C5A C6A 1_555 1_555
Mg1_2 O4A 1_555 1_555

#END
