
#######################################################################
#
#                 Cambridge Crystallographic Data Centre
#                                CCDC 
#
#######################################################################
#
# If this CIF has been generated from an entry in the Cambridge 
# Structural Database, then it will include bibliographic, chemical, 
# crystal, experimental, refinement or atomic coordinate data resulting 
# from the CCDC's data processing and validation procedures.
#
#######################################################################

data_NUDSOV
_symmetry_cell_setting           triclinic
_symmetry_space_group_name_H-M   'P -1'
_symmetry_Int_Tables_number      2
_space_group_name_Hall           '-P 1'
loop_
_symmetry_equiv_pos_site_id
_symmetry_equiv_pos_as_xyz
1 x,y,z
2 -x,-y,-z
_cell_length_a                   8.314(4)
_cell_length_b                   10.051(5)
_cell_length_c                   11.219(6)
_cell_angle_alpha                73.250(6)
_cell_angle_beta                 89.956(7)
_cell_angle_gamma                67.338(6)
_cell_volume                     821.942
loop_
_atom_site_label
_atom_site_type_symbol
_atom_site_fract_x
_atom_site_fract_y
_atom_site_fract_z
Ni1 Ni 0.49801(5) 0.16694(4) 0.46104(3)
Ni2 Ni 0.5000 0.5000 0.5000
C1 C 0.3681(4) 0.4714(3) 0.2604(3)
C2 C 0.2965(4) 0.5453(3) 0.1249(3)
H1 H 0.2795 0.6458 0.0869
C3 C 0.2568(4) 0.4714(3) 0.0580(3)
H2 H 0.2781 0.3705 0.0991
C4 C 0.1826(4) 0.5313(3) -0.0745(3)
C5 C 0.1281(4) 0.6839(4) -0.1467(3)
H3 H 0.1422 0.7528 -0.1118
C6 C 0.1639(4) 0.4336(3) -0.1324(3)
H4 H 0.2005 0.3314 -0.0868
C7 C 0.0538(4) 0.7320(3) -0.2691(3)
H5 H 0.0153 0.8337 -0.3165
C8 C 0.0367(4) 0.6300(3) -0.3209(3)
H6 H -0.0148 0.6625 -0.4033
C9 C 0.0998(4) 0.3695(4) -0.3150(3)
H7 H -0.0134 0.4028 -0.3629
H8 H 0.1237 0.2725 -0.2524
C10 C 0.2433(4) 0.3515(3) -0.4029(2)
N1 N 0.0946(3) 0.4816(3) -0.2525(2)
N2 N 0.3656(3) 0.0465(3) 0.4050(2)
N3 N 0.3393(3) 0.0614(3) 0.2968(3)
N4 N 0.3098(5) 0.0781(4) 0.1919(3)
N5 N 0.6339(3) 0.2709(3) 0.5244(2)
N6 N 0.7839(3) 0.2058(3) 0.5694(3)
N7 N 0.9286(4) 0.1437(4) 0.6115(4)
O1 O 0.4231(3) 0.5446(2) 0.31195(18)
O2 O 0.3645(3) 0.3450(2) 0.31089(19)
O3 O 0.2779(3) 0.4642(2) -0.44784(19)
O4 O 0.3050(3) 0.2265(2) -0.42364(19)
O5 O 0.6926(3) 0.0877(3) 0.3477(2)
H9 H 0.672(5) 0.104(4) 0.2718(17)
H10 H 0.756(5) -0.004(2) 0.384(3)
Ni1A Ni 0.50199(5) 0.83306(4) 0.53896(3)
Ni1A_2 Ni 0.50199(5) -0.16694(4) 0.53896(3)
Ni1_2 Ni 0.49801(5) 0.16694(4) -0.53896(3)
Ni1_3 Ni 0.49801(5) 0.16694(4) 1.46104(3)
Ni2_2 Ni 0.5000 0.5000 -0.5000
Ni2_3 Ni 0.5000 0.5000 1.5000
C1_2 C 0.3681(4) 0.4714(3) 1.2604(3)
C2_2 C 0.2965(4) 0.5453(3) 1.1249(3)
H1_2 H 0.2795 0.6458 1.0869
C3_2 C 0.2568(4) 0.4714(3) 1.0580(3)
H2_2 H 0.2781 0.3705 1.0991
C4_2 C 0.1826(4) 0.5313(3) 0.9255(3)
C5_2 C 0.1281(4) 0.6839(4) 0.8533(3)
H3_2 H 0.1422 0.7528 0.8882
C6_2 C 0.1639(4) 0.4336(3) 0.8676(3)
H4_2 H 0.2005 0.3314 0.9132
C7_2 C 0.0538(4) 0.7320(3) 0.7309(3)
H5_2 H 0.0153 0.8337 0.6835
C8_2 C 0.0367(4) 0.6300(3) 0.6791(3)
H6_2 H -0.0148 0.6625 0.5967
C9_2 C 0.0998(4) 0.3695(4) 0.6850(3)
H7_2 H -0.0134 0.4028 0.6371
H8_2 H 0.1237 0.2725 0.7476
C10_2 C 0.2433(4) 0.3515(3) 0.5971(2)
N1_2 N 0.0946(3) 0.4816(3) 0.7475(2)
N2A N 0.6344(3) -0.0465(3) 0.5950(2)
N2A_2 N 0.6344(3) 0.9535(3) 0.5950(2)
N2_2 N 0.3656(3) 1.0465(3) 0.4050(2)
N3A N 0.6607(3) -0.0614(3) 0.7032(3)
N4A N 0.6902(5) -0.0781(4) 0.8081(3)
N5A N 0.3661(3) 0.7291(3) 0.4756(2)
N6A N 0.2161(3) 0.7942(3) 0.4306(3)
N7A N 0.0714(4) 0.8563(4) 0.3885(4)
O1_2 O 0.4231(3) 0.5446(2) 1.31195(18)
O1A O 0.5769(3) 0.4554(2) 0.68805(18)
O2_2 O 0.3645(3) 0.3450(2) 1.31089(19)
O2A O 0.6355(3) 0.6550(2) 0.68911(19)
O3_2 O 0.2779(3) 0.4642(2) 0.55216(19)
O3A O 0.7221(3) 0.5358(2) 0.44784(19)
O4_2 O 0.3050(3) 0.2265(2) 0.57636(19)
O4A O 0.6950(3) 0.7735(2) 0.42364(19)
O5A O 0.3074(3) 0.9123(3) 0.6523(2)
H9A H 0.328(5) 0.896(4) 0.7282(17)
H10A H 0.244(5) 1.004(2) 0.616(3)
O6 O 0.4900(4) 0.7820(3) 0.1525(3)
H11 H 0.462(6) 0.709(3) 0.199(4)
H12 H 0.414(5) 0.863(3) 0.160(5)
O7 O 0.3436(9) 0.9103(9) -0.0977(4)
H13 H 0.385(11) 0.854(9) -0.023(4)
H14 H 0.238(7) 0.976(9) -0.091(9)
O8 O 0.0091(15) 1.0832(12) -0.0978(11)
O9? O 0.065(4) 1.086(3) -0.028(3)
loop_
_geom_bond_atom_site_label_1
_geom_bond_atom_site_label_2
_geom_bond_site_symmetry_1
_geom_bond_site_symmetry_2
Ni1 N2 1_555 1_555
Ni2 N5 1_555 1_555
C1 C2 1_555 1_555
C2 H1 1_555 1_555
C3 C2 1_555 1_555
H2 C3 1_555 1_555
C4 C3 1_555 1_555
C5 C4 1_555 1_555
H3 C5 1_555 1_555
C6 C4 1_555 1_555
H4 C6 1_555 1_555
C7 C5 1_555 1_555
H5 C7 1_555 1_555
C8 C7 1_555 1_555
H6 C8 1_555 1_555
C9 H7 1_555 1_555
H8 C9 1_555 1_555
C10 C9 1_555 1_555
N1 C6 1_555 1_555
N2 N3 1_555 1_555
N3 N4 1_555 1_555
N5 Ni1 1_555 1_555
N6 N5 1_555 1_555
N7 N6 1_555 1_555
O1 Ni2 1_555 1_555
O2 Ni1 1_555 1_555
O3 C10 1_555 1_555
O4 C10 1_555 1_555
O5 Ni1 1_555 1_555
H9 O5 1_555 1_555
H10 O5 1_555 1_555
O6 H11 1_555 1_555
H12 O6 1_555 1_555
O7 H13 1_555 1_555
H14 O7 1_555 1_555
Ni1A N2A_2 1_555 1_555
Ni1A_2 N2 1_555 1_555
Ni1_2 O4 1_555 1_555
Ni1_3 O2_2 1_555 1_555
Ni2_2 O3 1_555 1_555
Ni2_3 O1_2 1_555 1_555
C1_2 C2_2 1_555 1_555
C2_2 H1_2 1_555 1_555
C3_2 C2_2 1_555 1_555
H2_2 C3_2 1_555 1_555
C4_2 C3_2 1_555 1_555
C5_2 C4_2 1_555 1_555
H3_2 C5_2 1_555 1_555
C6_2 C4_2 1_555 1_555
H4_2 C6_2 1_555 1_555
C7_2 C5_2 1_555 1_555
H5_2 C7_2 1_555 1_555
C8_2 C7_2 1_555 1_555
H6_2 C8_2 1_555 1_555
C9_2 H7_2 1_555 1_555
H8_2 C9_2 1_555 1_555
C10_2 C9_2 1_555 1_555
N1_2 C6_2 1_555 1_555
N2A Ni1 1_555 1_555
N2_2 Ni1A 1_555 1_555
N3A N2A 1_555 1_555
N4A N3A 1_555 1_555
N5A Ni2 1_555 1_555
N6A N5A 1_555 1_555
N7A N6A 1_555 1_555
O1_2 C1_2 1_555 1_555
O1A Ni2 1_555 1_555
O2_2 C1_2 1_555 1_555
O2A Ni1A 1_555 1_555
O3_2 Ni2 1_555 1_555
O3A Ni2 1_555 1_555
O4_2 Ni1 1_555 1_555
O4A Ni1A 1_555 1_555
O5A Ni1A 1_555 1_555
H9A O5A 1_555 1_555
H10A O5A 1_555 1_555
C1 O1 1_555 1_555
C1 O2 1_555 1_555
C8 N1 1_555 1_555
C9 N1 1_555 1_555
Ni1A N5A 1_555 1_555
Ni1A_2 N2A 1_555 1_555
C8_2 N1_2 1_555 1_555
C9_2 N1_2 1_555 1_555
C10_2 O3_2 1_555 1_555
C10_2 O4_2 1_555 1_555

#END
