
#######################################################################
#
#                 Cambridge Crystallographic Data Centre
#                                CCDC 
#
#######################################################################
#
# If this CIF has been generated from an entry in the Cambridge 
# Structural Database, then it will include bibliographic, chemical, 
# crystal, experimental, refinement or atomic coordinate data resulting 
# from the CCDC's data processing and validation procedures.
#
#######################################################################

data_NUDTUD
_symmetry_cell_setting           triclinic
_symmetry_space_group_name_H-M   'P -1'
_symmetry_Int_Tables_number      2
_space_group_name_Hall           '-P 1'
loop_
_symmetry_equiv_pos_site_id
_symmetry_equiv_pos_as_xyz
1 x,y,z
2 -x,-y,-z
_cell_length_a                   10.9563(8)
_cell_length_b                   12.8519(10)
_cell_length_c                   14.8421(12)
_cell_angle_alpha                70.974(2)
_cell_angle_beta                 83.543(2)
_cell_angle_gamma                86.737(2)
_cell_volume                     1962.75
loop_
_atom_site_label
_atom_site_type_symbol
_atom_site_fract_x
_atom_site_fract_y
_atom_site_fract_z
Eu1 Eu 1.37965(4) 0.32025(4) -0.86667(4)
Eu2 Eu 0.96649(4) 0.22308(4) -0.52713(3)
O1 O 1.1929(6) 0.3817(6) -0.7958(5)
O2 O 1.3260(6) 0.2126(6) -0.7023(5)
O3 O 1.1815(6) 0.1819(5) -0.5741(5)
O4 O 1.0432(6) 0.3445(5) -0.6802(5)
O5 O 1.5774(6) 0.2558(6) -0.8062(5)
O6 O 1.4779(6) 0.1414(6) -0.8530(5)
O7 O 1.9943(6) -0.0600(5) -0.5867(5)
O8 O 1.9361(6) 0.1179(6) -0.6238(5)
O9 O 0.8849(7) 0.2518(6) -0.3843(5)
O10 O 0.8829(8) 0.4191(7) -0.3752(6)
O11 O 0.4992(7) 0.3661(6) -0.0132(5)
O12 O 0.5714(7) 0.5068(6) -0.1327(5)
O13 O 1.0765(8) 0.3722(7) -0.4987(6)
H1 H 1.096(11) 0.304(4) -0.467(6)
H2 H 1.039(10) 0.398(8) -0.456(5)
N1 N 1.2449(8) 0.4188(8) -1.0023(6)
N2 N 1.2135(8) 0.2026(8) -0.8939(7)
N3 N 0.8040(7) 0.3805(7) -0.5936(6)
N4 N 0.7365(7) 0.1675(7) -0.4918(6)
C1 C 1.2613(11) 0.5207(9) -1.0517(8)
H3 H 1.3261 0.5571 -1.0406
C2 C 1.1835(12) 0.5792(11) -1.1226(10)
H4 H 1.2009 0.6510 -1.1609
C3 C 1.0851(11) 0.5299(12) -1.1337(11)
H5 H 1.0306 0.5687 -1.1772
C4 C 1.0639(11) 0.4181(11) -1.0789(9)
C5 C 0.9644(13) 0.3584(14) -1.0903(11)
H6 H 0.9085 0.3947 -1.1336
C6 C 0.9495(13) 0.2573(14) -1.0432(11)
H7 H 0.8848 0.2208 -1.0543
C7 C 1.0310(11) 0.1977(11) -0.9726(10)
C8 C 1.0188(13) 0.0858(12) -0.9123(12)
H8 H 0.9524 0.0461 -0.9161
C9 C 1.1022(12) 0.0361(11) -0.8494(11)
H9 H 1.0941 -0.0374 -0.8121
C10 C 1.2011(12) 0.0973(10) -0.8414(9)
H10 H 1.2584 0.0633 -0.7987
C11 C 1.1317(10) 0.2566(10) -0.9611(9)
C12 C 1.1486(10) 0.3673(9) -1.0154(7)
C13 C 1.5698(9) 0.1640(9) -0.8170(8)
C14 C 1.6666(9) 0.0777(8) -0.7867(7)
C15 C 1.6741(11) -0.0159(9) -0.8145(9)
H11 H 1.6186 -0.0244 -0.8545
C16 C 1.7621(12) -0.0956(10) -0.7839(10)
H12 H 1.7712 -0.1549 -0.8072
C17 C 1.8392(11) -0.0870(9) -0.7163(9)
H13 H 1.8915 -0.1453 -0.6882
C18 C 1.8366(9) 0.0067(8) -0.6924(8)
C19 C 1.9284(9) 0.0210(8) -0.6278(7)
C20 C 1.7509(9) 0.0894(8) -0.7290(7)
H14 H 1.7507 0.1543 -0.7141
C21 C 1.2257(9) 0.2319(8) -0.6597(8)
C22 C 1.1473(9) 0.3279(8) -0.7159(7)
C23 C 0.8334(11) 0.4829(9) -0.6429(8)
H15 H 0.9161 0.4997 -0.6593
C24 C 0.7480(11) 0.5650(10) -0.6709(9)
H16 H 0.7746 0.6359 -0.7044
C25 C 0.6263(12) 0.5477(11) -0.6520(9)
H17 H 0.5692 0.6050 -0.6710
C26 C 0.5896(10) 0.4396(9) -0.6025(9)
C27 C 0.4631(10) 0.4089(11) -0.5773(10)
H18 H 0.4017 0.4607 -0.6006
C28 C 0.4307(10) 0.3043(10) -0.5194(10)
H19 H 0.3483 0.2897 -0.4985
C29 C 0.5186(9) 0.2196(9) -0.4914(8)
C30 C 0.4917(10) 0.1127(10) -0.4426(9)
H20 H 0.4103 0.0917 -0.4255
C31 C 0.5829(10) 0.0376(10) -0.4193(8)
H21 H 0.5639 -0.0350 -0.3843
C32 C 0.7036(10) 0.0659(9) -0.4462(8)
H22 H 0.7642 0.0110 -0.4314
C33 C 0.6454(10) 0.2438(9) -0.5155(8)
C34 C 0.6820(9) 0.3566(8) -0.5737(8)
C35 C 0.8428(10) 0.3250(8) -0.3516(7)
C36 C 0.7388(9) 0.2944(8) -0.2752(7)
C37 C 0.6937(11) 0.1863(9) -0.2400(9)
H23 H 0.7247 0.1365 -0.2707
C38 C 0.6079(12) 0.1508(10) -0.1641(10)
H24 H 0.5816 0.0785 -0.1444
C39 C 0.5598(11) 0.2213(9) -0.1163(9)
H25 H 0.5001 0.1980 -0.0646
C40 C 0.6021(9) 0.3278(8) -0.1467(7)
C41 C 0.6919(9) 0.3657(8) -0.2246(7)
H26 H 0.7201 0.4373 -0.2425
C42 C 0.5545(9) 0.4048(8) -0.0916(7)
Eu1_2 Eu 0.37965(4) 0.32025(4) 0.13333(4)
Eu1A Eu 0.62035(4) 0.67975(4) -0.13333(4)
Eu2_2 Eu 1.96649(4) 0.22308(4) -0.52713(3)
Eu2A Eu 2.03351(4) -0.22308(4) -0.47287(3)
O7A O 1.0057(6) 0.0600(5) -0.4133(5)
O8_2 O 0.9361(6) 0.1179(6) -0.6238(5)
O11_2 O 1.4992(7) 0.3661(6) -1.0132(5)
O12A O 1.4286(7) 0.4932(6) -0.8673(5)
loop_
_geom_bond_atom_site_label_1
_geom_bond_atom_site_label_2
_geom_bond_site_symmetry_1
_geom_bond_site_symmetry_2
Eu1 O1 1_555 1_555
Eu2 O3 1_555 1_555
O1 C22 1_555 1_555
O2 Eu1 1_555 1_555
O3 C21 1_555 1_555
O4 Eu2 1_555 1_555
O5 Eu1 1_555 1_555
O6 Eu1 1_555 1_555
O7 C19 1_555 1_555
O8 C19 1_555 1_555
O9 Eu2 1_555 1_555
O10 C35 1_555 1_555
O11 C42 1_555 1_555
O12 C42 1_555 1_555
O13 Eu2 1_555 1_555
H1 O13 1_555 1_555
H2 O13 1_555 1_555
N1 Eu1 1_555 1_555
N2 Eu1 1_555 1_555
N3 Eu2 1_555 1_555
N4 Eu2 1_555 1_555
C1 N1 1_555 1_555
H3 C1 1_555 1_555
C2 C1 1_555 1_555
H4 C2 1_555 1_555
C3 C2 1_555 1_555
H5 C3 1_555 1_555
C4 C3 1_555 1_555
C5 C4 1_555 1_555
H6 C5 1_555 1_555
C6 C5 1_555 1_555
H7 C6 1_555 1_555
C7 C6 1_555 1_555
C8 C7 1_555 1_555
H8 C8 1_555 1_555
C9 C8 1_555 1_555
H9 C9 1_555 1_555
C10 N2 1_555 1_555
H10 C10 1_555 1_555
C11 N2 1_555 1_555
C12 N1 1_555 1_555
C13 O5 1_555 1_555
C14 C13 1_555 1_555
C15 C14 1_555 1_555
H11 C15 1_555 1_555
C16 C15 1_555 1_555
H12 C16 1_555 1_555
C17 C16 1_555 1_555
H13 C17 1_555 1_555
C18 C17 1_555 1_555
C19 C18 1_555 1_555
C20 C14 1_555 1_555
H14 C20 1_555 1_555
C21 O2 1_555 1_555
C22 O4 1_555 1_555
C23 N3 1_555 1_555
H15 C23 1_555 1_555
C24 C23 1_555 1_555
H16 C24 1_555 1_555
C25 C24 1_555 1_555
H17 C25 1_555 1_555
C26 C25 1_555 1_555
C27 C26 1_555 1_555
H18 C27 1_555 1_555
C28 C27 1_555 1_555
H19 C28 1_555 1_555
C29 C28 1_555 1_555
C30 C29 1_555 1_555
H20 C30 1_555 1_555
C31 C30 1_555 1_555
H21 C31 1_555 1_555
C32 N4 1_555 1_555
H22 C32 1_555 1_555
C33 N4 1_555 1_555
C34 N3 1_555 1_555
C35 O9 1_555 1_555
C36 C35 1_555 1_555
C37 C36 1_555 1_555
H23 C37 1_555 1_555
C38 C37 1_555 1_555
H24 C38 1_555 1_555
C39 C38 1_555 1_555
H25 C39 1_555 1_555
C40 C39 1_555 1_555
C41 C36 1_555 1_555
H26 C41 1_555 1_555
C42 C40 1_555 1_555
Eu1_2 O11 1_555 1_555
Eu1A O12 1_555 1_555
Eu2_2 O8 1_555 1_555
Eu2A O7 1_555 1_555
O7A Eu2 1_555 1_555
O8_2 Eu2 1_555 1_555
O11_2 Eu1 1_555 1_555
O12A Eu1 1_555 1_555
O6 C13 1_555 1_555
C4 C12 1_555 1_555
C7 C11 1_555 1_555
C9 C10 1_555 1_555
C11 C12 1_555 1_555
C18 C20 1_555 1_555
C21 C22 1_555 1_555
C26 C34 1_555 1_555
C29 C33 1_555 1_555
C31 C32 1_555 1_555
C33 C34 1_555 1_555
C40 C41 1_555 1_555

#END
