
#######################################################################
#
#                 Cambridge Crystallographic Data Centre
#                                CCDC 
#
#######################################################################
#
# If this CIF has been generated from an entry in the Cambridge 
# Structural Database, then it will include bibliographic, chemical, 
# crystal, experimental, refinement or atomic coordinate data resulting 
# from the CCDC's data processing and validation procedures.
#
#######################################################################

data_NUDVUE
_symmetry_cell_setting           monoclinic
_symmetry_space_group_name_H-M   'C 2/c'
_symmetry_Int_Tables_number      15
_space_group_name_Hall           '-C 2yn'
loop_
_symmetry_equiv_pos_site_id
_symmetry_equiv_pos_as_xyz
1 x,y,z
2 -x,y,1/2-z
3 1/2+x,1/2+y,z
4 1/2-x,1/2+y,1/2-z
5 -x,-y,-z
6 x,-y,1/2+z
7 1/2-x,1/2-y,-z
8 1/2+x,1/2-y,1/2+z
_cell_length_a                   34.3408(3)
_cell_length_b                   12.36280(10)
_cell_length_c                   8.71400(10)
_cell_angle_alpha                90
_cell_angle_beta                 91.8280(10)
_cell_angle_gamma                90
_cell_volume                     3697.63
loop_
_atom_site_label
_atom_site_type_symbol
_atom_site_fract_x
_atom_site_fract_y
_atom_site_fract_z
Sm1 Sm 0.177278(4) 0.317318(9) 0.684016(13)
C1 C 0.14920(8) 0.4441(2) 1.0017(3)
C2 C 0.11401(8) 0.3720(2) 0.9849(3)
H1 H 0.1084 0.3394 1.0830
H2 H 0.0915 0.4140 0.9506
C3 C 0.09670(8) 0.2013(2) 0.8660(3)
C4 C 0.06131(9) 0.1983(2) 0.9348(3)
H3 H 0.0534 0.2558 0.9951
C5 C 0.03739(9) 0.1080(2) 0.9135(4)
H4 H 0.0133 0.1057 0.9588
C6 C 0.04915(9) 0.0230(2) 0.8264(3)
H5 H 0.0328 -0.0363 0.8116
C7 C 0.08529(8) 0.0243(2) 0.7599(3)
H6 H 0.0935 -0.0345 0.7026
C8 C 0.10914(7) 0.1140(2) 0.7797(3)
C9 C 0.15705(8) 0.0406(2) 0.6151(3)
H7 H 0.1372 0.0328 0.5341
H8 H 0.1598 -0.0281 0.6681
C10 C 0.19514(8) 0.0717(2) 0.5472(3)
C11 C 0.10047(9) 0.2530(2) 0.4134(3)
C12 C 0.05909(9) 0.2411(3) 0.4666(4)
H9 H 0.0572 0.1739 0.5233
H10 H 0.0538 0.2998 0.5368
C13 C 0.01639(11) 0.3399(3) 0.2992(5)
C14 C 0.03330(17) 0.4370(3) 0.3407(7)
H11 H 0.0560 0.4376 0.4016
C15 C 0.0168(2) 0.5333(3) 0.2930(9)
H12 H 0.0287 0.5984 0.3198
O1 O 0.17584(6) 0.43337(14) 0.9084(2)
O2 O 0.14902(6) 0.51097(16) 1.1084(2)
O3 O 0.12207(6) 0.28914(14) 0.8740(2)
O4 O 0.14576(5) 0.12270(14) 0.7204(2)
O5 O 0.21028(5) 0.16163(14) 0.5829(2)
O6 O 0.20970(7) 0.00535(16) 0.4580(3)
O7 O 0.12518(6) 0.27911(19) 0.5155(3)
O8 O 0.10790(9) 0.2283(3) 0.2802(3)
O9 O 0.02996(7) 0.24143(17) 0.3470(3)
O10 O 0.20898(5) 0.36895(15) 0.4389(2)
O11 O 0.24189(6) 0.39600(19) 0.7367(2)
O12 O 0.20804(6) 0.22059(15) 0.9042(2)
H13 H 0.2344(6) 0.357(3) 0.423(5)
H14 H 0.2014(12) 0.242(3) 0.999(3)
H15 H 0.2025(10) 0.4385(18) 0.415(5)
H16 H 0.2567(9) 0.428(3) 0.664(3)
H17 H 0.2105(12) 0.1518(16) 0.891(4)
H18 H 0.2564(10) 0.368(3) 0.812(3)
Sm1E Sm 0.177278(4) 0.682682(9) 0.184016(13)
Sm1E_2 Sm 0.177278(4) 0.682682(9) 1.184016(13)
Sm1A Sm -0.177278(4) 0.317318(9) -0.184016(13)
C1E C 0.14920(8) 0.5559(2) 0.5017(3)
C2E C 0.11401(8) 0.6280(2) 0.4849(3)
H1E H 0.1084 0.6606 0.5830
H2E H 0.0915 0.5860 0.4506
C3E C 0.09670(8) 0.7987(2) 0.3660(3)
C4E C 0.06131(9) 0.8017(2) 0.4348(3)
H3E H 0.0534 0.7442 0.4951
C5E C 0.03739(9) 0.8920(2) 0.4135(4)
H4E H 0.0133 0.8943 0.4588
C6E C 0.04915(9) 0.9770(2) 0.3264(3)
H5E H 0.0328 1.0363 0.3116
C7E C 0.08529(8) 0.9757(2) 0.2599(3)
H6E H 0.0935 1.0345 0.2026
C8E C 0.10914(7) 0.8860(2) 0.2797(3)
C9E C 0.15705(8) 0.9594(2) 0.1151(3)
H7E H 0.1372 0.9672 0.0341
H8E H 0.1598 1.0281 0.1681
C10E C 0.19514(8) 0.9283(2) 0.0472(3)
C11A C -0.10047(9) 0.2530(2) 0.0866(3)
C12A C -0.05909(9) 0.2411(3) 0.0334(4)
H9A H -0.0572 0.1739 -0.0233
H10A H -0.0538 0.2998 -0.0368
C13A C -0.01639(11) 0.3399(3) 0.2008(5)
C14A C -0.03330(17) 0.4370(3) 0.1593(7)
H11A H -0.0560 0.4376 0.0984
C15A C -0.0168(2) 0.5333(3) 0.2070(9)
H12A H -0.0287 0.5984 0.1802
O1E O 0.17584(6) 0.56663(14) 0.4084(2)
O2E O 0.14902(6) 0.48903(16) 0.6084(2)
O2_2 O 0.14902(6) 0.51097(16) 0.1084(2)
O3E O 0.12207(6) 0.71086(14) 0.3740(2)
O4E O 0.14576(5) 0.87730(14) 0.2204(2)
O5E O 0.21028(5) 0.83837(14) 0.0829(2)
O6E O 0.20970(7) 0.99465(16) -0.0420(3)
O7A O -0.12518(6) 0.27911(19) -0.0155(3)
O7E O 0.12518(6) 0.72089(19) 0.0155(3)
O8A O -0.10790(9) 0.2283(3) 0.2198(3)
O9A O -0.02996(7) 0.24143(17) 0.1530(3)
O10E O 0.20898(5) 0.63105(15) -0.0611(2)
O11E O 0.24189(6) 0.60400(19) 0.2367(2)
O12E O 0.20804(6) 0.77941(15) 0.4042(2)
H13E H 0.2344(6) 0.643(3) -0.077(5)
H14E H 0.2014(12) 0.758(3) 0.499(3)
H15E H 0.2025(10) 0.5615(18) -0.085(5)
H16E H 0.2567(9) 0.572(3) 0.164(3)
H17E H 0.2105(12) 0.8482(16) 0.391(4)
H18E H 0.2564(10) 0.632(3) 0.312(3)
O13 O 0.18303(9) 0.7654(2) 0.6948(3)
H19 H 0.1955(10) 0.713(3) 0.751(4)
H20 H 0.1584(6) 0.777(3) 0.727(4)
loop_
_geom_bond_atom_site_label_1
_geom_bond_atom_site_label_2
_geom_bond_site_symmetry_1
_geom_bond_site_symmetry_2
Sm1 O1 1_555 1_555
C1 C2 1_555 1_555
C2 H1 1_555 1_555
H2 C2 1_555 1_555
C3 C4 1_555 1_555
C4 H3 1_555 1_555
C5 C4 1_555 1_555
H4 C5 1_555 1_555
C6 C5 1_555 1_555
H5 C6 1_555 1_555
C7 C6 1_555 1_555
H6 C7 1_555 1_555
C8 C3 1_555 1_555
C9 H7 1_555 1_555
H8 C9 1_555 1_555
C10 C9 1_555 1_555
C11 C12 1_555 1_555
C12 H9 1_555 1_555
H10 C12 1_555 1_555
C13 C14 1_555 1_555
C14 H11 1_555 1_555
C15 C14 1_555 1_555
H12 C15 1_555 1_555
O1 C1 1_555 1_555
O2 C1 1_555 1_555
O3 Sm1 1_555 1_555
O4 Sm1 1_555 1_555
O5 Sm1 1_555 1_555
O6 C10 1_555 1_555
O7 Sm1 1_555 1_555
O8 C11 1_555 1_555
O9 C12 1_555 1_555
O10 Sm1 1_555 1_555
O11 Sm1 1_555 1_555
O12 Sm1 1_555 1_555
H13 O10 1_555 1_555
H14 O12 1_555 1_555
H15 O10 1_555 1_555
H16 O11 1_555 1_555
H17 O12 1_555 1_555
H18 O11 1_555 1_555
O13 H19 1_555 1_555
H20 O13 1_555 1_555
Sm1E O1E 1_555 1_555
Sm1E_2 O2 1_555 1_555
Sm1A O7A 1_555 1_555
C1E C2E 1_555 1_555
C2E H1E 1_555 1_555
H2E C2E 1_555 1_555
C3E C4E 1_555 1_555
C4E H3E 1_555 1_555
C5E C4E 1_555 1_555
H4E C5E 1_555 1_555
C6E C5E 1_555 1_555
H5E C6E 1_555 1_555
C7E C6E 1_555 1_555
H6E C7E 1_555 1_555
C8E C3E 1_555 1_555
C9E H7E 1_555 1_555
H8E C9E 1_555 1_555
C10E C9E 1_555 1_555
C11A C12A 1_555 1_555
C12A H9A 1_555 1_555
H10A C12A 1_555 1_555
C13A C13 1_555 1_555
C14A C13A 1_555 1_555
H11A C14A 1_555 1_555
C15A C15 1_555 1_555
H12A C15A 1_555 1_555
O1E C1E 1_555 1_555
O2E Sm1 1_555 1_555
O2_2 Sm1E 1_555 1_555
O3E Sm1E 1_555 1_555
O4E Sm1E 1_555 1_555
O5E Sm1E 1_555 1_555
O6E C10E 1_555 1_555
O7A C11A 1_555 1_555
O7E Sm1E 1_555 1_555
O8A C11A 1_555 1_555
O9A C12A 1_555 1_555
O10E Sm1E 1_555 1_555
O11E Sm1E 1_555 1_555
O12E Sm1E 1_555 1_555
H13E O10E 1_555 1_555
H14E O12E 1_555 1_555
H15E O10E 1_555 1_555
H16E O11E 1_555 1_555
H17E O12E 1_555 1_555
H18E O11E 1_555 1_555
C2 O3 1_555 1_555
C3 O3 1_555 1_555
C7 C8 1_555 1_555
C8 O4 1_555 1_555
C9 O4 1_555 1_555
C10 O5 1_555 1_555
C11 O7 1_555 1_555
C13 O9 1_555 1_555
C1E O2E 1_555 1_555
C2E O3E 1_555 1_555
C3E O3E 1_555 1_555
C7E C8E 1_555 1_555
C8E O4E 1_555 1_555
C9E O4E 1_555 1_555
C10E O5E 1_555 1_555
C13A O9A 1_555 1_555
C14A C15A 1_555 1_555

#END
