
#######################################################################
#
#                 Cambridge Crystallographic Data Centre
#                                CCDC 
#
#######################################################################
#
# If this CIF has been generated from an entry in the Cambridge 
# Structural Database, then it will include bibliographic, chemical, 
# crystal, experimental, refinement or atomic coordinate data resulting 
# from the CCDC's data processing and validation procedures.
#
#######################################################################

data_NUDVEP
_symmetry_cell_setting           triclinic
_symmetry_space_group_name_H-M   'P -1'
_symmetry_Int_Tables_number      2
_space_group_name_Hall           '-P 1'
loop_
_symmetry_equiv_pos_site_id
_symmetry_equiv_pos_as_xyz
1 x,y,z
2 -x,-y,-z
_cell_length_a                   10.7901(9)
_cell_length_b                   12.8494(10)
_cell_length_c                   15.0261(12)
_cell_angle_alpha                69.5730(10)
_cell_angle_beta                 81.107(2)
_cell_angle_gamma                84.518(2)
_cell_volume                     1926.89
loop_
_atom_site_label
_atom_site_type_symbol
_atom_site_fract_x
_atom_site_fract_y
_atom_site_fract_z
Yb1 Yb 1.38028(4) 0.32114(3) -0.86836(3)
Yb2 Yb 0.96522(4) 0.22373(3) -0.53112(3)
O1 O 1.1882(6) 0.3805(6) -0.8034(5)
O2 O 1.3309(6) 0.2165(6) -0.7048(5)
O3 O 1.1815(6) 0.1832(5) -0.5779(4)
O4 O 1.0342(6) 0.3416(5) -0.6813(5)
O5 O 1.5758(6) 0.2675(5) -0.8083(5)
O6 O 1.4884(6) 0.1493(5) -0.8534(5)
O7 O 1.9951(6) -0.0596(5) -0.5787(4)
O8 O 1.9424(6) 0.1210(5) -0.6225(4)
O9 O 0.8797(6) 0.2476(5) -0.3914(5)
O10 O 0.8873(7) 0.4153(6) -0.3820(6)
O11 O 0.5071(6) 0.3661(6) -0.0067(5)
O12 O 0.5825(7) 0.5103(6) -0.1297(5)
O13 O 1.0736(7) 0.3633(6) -0.5070(5)
H1 H 1.127(6) 0.350(9) -0.468(6)
H2 H 1.009(5) 0.396(8) -0.486(6)
N1 N 1.2506(8) 0.4159(7) -0.9999(6)
N2 N 1.2285(8) 0.1997(7) -0.8900(7)
N3 N 0.8033(7) 0.3796(6) -0.5886(6)
N4 N 0.7412(7) 0.1677(6) -0.4948(6)
C1 C 1.2635(10) 0.5186(10) -1.0546(7)
H3 H 1.3294 0.5559 -1.0481
C2 C 1.1834(12) 0.5774(11) -1.1237(8)
H4 H 1.1955 0.6515 -1.1607
C3 C 1.0901(13) 0.5237(11) -1.1343(9)
H5 H 1.0359 0.5613 -1.1788
C4 C 1.0722(11) 0.4121(11) -1.0798(9)
C5 C 0.9767(13) 0.3474(14) -1.0862(11)
H6 H 0.9215 0.3799 -1.1311
C6 C 0.9630(14) 0.2414(14) -1.0299(11)
H7 H 0.8964 0.2033 -1.0344
C7 C 1.0497(11) 0.1850(10) -0.9624(9)
C8 C 1.0411(13) 0.0748(11) -0.9030(11)
H8 H 0.9779 0.0328 -0.9070
C9 C 1.1229(13) 0.0283(11) -0.8399(11)
H9 H 1.1176 -0.0456 -0.8002
C10 C 1.2163(11) 0.0937(10) -0.8352(8)
H10 H 1.2730 0.0614 -0.7914
C11 C 1.1428(10) 0.2458(9) -0.9516(7)
C12 C 1.1564(10) 0.3606(9) -1.0104(7)
C13 C 1.5744(9) 0.1739(9) -0.8170(7)
C14 C 1.6743(8) 0.0857(7) -0.7819(6)
C15 C 1.6878(10) -0.0074(9) -0.8079(9)
H11 H 1.6383 -0.0127 -0.8515
C16 C 1.7734(11) -0.0942(8) -0.7709(8)
H12 H 1.7797 -0.1572 -0.7885
C17 C 1.8496(10) -0.0857(8) -0.7073(7)
H13 H 1.9041 -0.1446 -0.6793
C18 C 1.8435(9) 0.0112(8) -0.6860(7)
C19 C 1.9336(8) 0.0228(7) -0.6223(6)
C20 C 1.7552(8) 0.0963(7) -0.7221(6)
H14 H 1.7503 0.1604 -0.7062
C21 C 1.2261(9) 0.2331(8) -0.6617(7)
C22 C 1.1428(10) 0.3275(9) -0.7210(7)
C23 C 0.8320(10) 0.4858(8) -0.6348(8)
H15 H 0.9163 0.5023 -0.6464
C24 C 0.7464(11) 0.5720(9) -0.6663(9)
H16 H 0.7726 0.6438 -0.6994
C25 C 0.6216(11) 0.5502(9) -0.6482(9)
H17 H 0.5616 0.6076 -0.6676
C26 C 0.5848(10) 0.4416(8) -0.6005(8)
C27 C 0.4574(11) 0.4110(10) -0.5762(9)
H18 H 0.3948 0.4658 -0.5955
C28 C 0.4236(10) 0.3060(9) -0.5264(8)
H19 H 0.3391 0.2900 -0.5118
C29 C 0.5184(9) 0.2182(8) -0.4954(7)
C30 C 0.4894(10) 0.1101(8) -0.4426(7)
H20 H 0.4062 0.0907 -0.4234
C31 C 0.5854(10) 0.0315(9) -0.4189(8)
H21 H 0.5680 -0.0424 -0.3847
C32 C 0.7090(10) 0.0633(8) -0.4464(8)
H22 H 0.7728 0.0087 -0.4301
C33 C 0.6458(9) 0.2449(7) -0.5181(7)
C34 C 0.6797(9) 0.3588(8) -0.5707(7)
C35 C 0.8381(9) 0.3234(8) -0.3563(7)
C36 C 0.7306(9) 0.2965(8) -0.2781(7)
C37 C 0.6730(11) 0.1961(9) -0.2546(8)
H23 H 0.6985 0.1491 -0.2897
C38 C 0.5778(13) 0.1671(11) -0.1789(10)
H24 H 0.5371 0.1015 -0.1645
C39 C 0.5426(10) 0.2345(9) -0.1244(8)
H25 H 0.4818 0.2120 -0.0712
C40 C 0.5981(9) 0.3368(8) -0.1488(7)
C41 C 0.6922(9) 0.3655(8) -0.2258(7)
H26 H 0.7301 0.4329 -0.2426
C42 C 0.5596(9) 0.4104(8) -0.0907(7)
Yb1_2 Yb 0.38028(4) 0.32114(3) 0.13164(3)
Yb1A Yb 0.61972(4) 0.67886(3) -0.13164(3)
Yb2_2 Yb 1.96522(4) 0.22373(3) -0.53112(3)
Yb2A Yb 2.03478(4) -0.22373(3) -0.46888(3)
O7A O 1.0049(6) 0.0596(5) -0.4213(4)
O8_2 O 0.9424(6) 0.1210(5) -0.6225(4)
O11_2 O 1.5071(6) 0.3661(6) -1.0067(5)
O12A O 1.4175(7) 0.4897(6) -0.8703(5)
loop_
_geom_bond_atom_site_label_1
_geom_bond_atom_site_label_2
_geom_bond_site_symmetry_1
_geom_bond_site_symmetry_2
Yb1 O1 1_555 1_555
Yb2 O3 1_555 1_555
O1 C22 1_555 1_555
O2 Yb1 1_555 1_555
O3 C21 1_555 1_555
O4 Yb2 1_555 1_555
O5 Yb1 1_555 1_555
O6 Yb1 1_555 1_555
O7 C19 1_555 1_555
O8 C19 1_555 1_555
O9 Yb2 1_555 1_555
O10 C35 1_555 1_555
O11 C42 1_555 1_555
O12 C42 1_555 1_555
O13 Yb2 1_555 1_555
H1 O13 1_555 1_555
H2 O13 1_555 1_555
N1 Yb1 1_555 1_555
N2 Yb1 1_555 1_555
N3 Yb2 1_555 1_555
N4 Yb2 1_555 1_555
C1 N1 1_555 1_555
H3 C1 1_555 1_555
C2 C1 1_555 1_555
H4 C2 1_555 1_555
C3 C2 1_555 1_555
H5 C3 1_555 1_555
C4 C3 1_555 1_555
C5 C4 1_555 1_555
H6 C5 1_555 1_555
C6 C5 1_555 1_555
H7 C6 1_555 1_555
C7 C6 1_555 1_555
C8 C7 1_555 1_555
H8 C8 1_555 1_555
C9 C8 1_555 1_555
H9 C9 1_555 1_555
C10 N2 1_555 1_555
H10 C10 1_555 1_555
C11 N2 1_555 1_555
C12 N1 1_555 1_555
C13 O5 1_555 1_555
C14 C13 1_555 1_555
C15 C14 1_555 1_555
H11 C15 1_555 1_555
C16 C15 1_555 1_555
H12 C16 1_555 1_555
C17 C16 1_555 1_555
H13 C17 1_555 1_555
C18 C17 1_555 1_555
C19 C18 1_555 1_555
C20 C14 1_555 1_555
H14 C20 1_555 1_555
C21 O2 1_555 1_555
C22 O4 1_555 1_555
C23 N3 1_555 1_555
H15 C23 1_555 1_555
C24 C23 1_555 1_555
H16 C24 1_555 1_555
C25 C24 1_555 1_555
H17 C25 1_555 1_555
C26 C25 1_555 1_555
C27 C26 1_555 1_555
H18 C27 1_555 1_555
C28 C27 1_555 1_555
H19 C28 1_555 1_555
C29 C28 1_555 1_555
C30 C29 1_555 1_555
H20 C30 1_555 1_555
C31 C30 1_555 1_555
H21 C31 1_555 1_555
C32 N4 1_555 1_555
H22 C32 1_555 1_555
C33 N4 1_555 1_555
C34 N3 1_555 1_555
C35 O9 1_555 1_555
C36 C35 1_555 1_555
C37 C36 1_555 1_555
H23 C37 1_555 1_555
C38 C37 1_555 1_555
H24 C38 1_555 1_555
C39 C38 1_555 1_555
H25 C39 1_555 1_555
C40 C39 1_555 1_555
C41 C36 1_555 1_555
H26 C41 1_555 1_555
C42 C40 1_555 1_555
Yb1_2 O11 1_555 1_555
Yb1A O12 1_555 1_555
Yb2_2 O8 1_555 1_555
Yb2A O7 1_555 1_555
O7A Yb2 1_555 1_555
O8_2 Yb2 1_555 1_555
O11_2 Yb1 1_555 1_555
O12A Yb1 1_555 1_555
O6 C13 1_555 1_555
C4 C12 1_555 1_555
C7 C11 1_555 1_555
C9 C10 1_555 1_555
C11 C12 1_555 1_555
C18 C20 1_555 1_555
C21 C22 1_555 1_555
C26 C34 1_555 1_555
C29 C33 1_555 1_555
C31 C32 1_555 1_555
C33 C34 1_555 1_555
C40 C41 1_555 1_555

#END
