
#######################################################################
#
#                 Cambridge Crystallographic Data Centre
#                                CCDC 
#
#######################################################################
#
# If this CIF has been generated from an entry in the Cambridge 
# Structural Database, then it will include bibliographic, chemical, 
# crystal, experimental, refinement or atomic coordinate data resulting 
# from the CCDC's data processing and validation procedures.
#
#######################################################################

data_NUDWAL
_symmetry_cell_setting           orthorhombic
_symmetry_space_group_name_H-M   'P b c n'
_symmetry_Int_Tables_number      60
_space_group_name_Hall           '-P 2n 2ab'
loop_
_symmetry_equiv_pos_site_id
_symmetry_equiv_pos_as_xyz
1 x,y,z
2 1/2-x,1/2-y,1/2+z
3 -x,y,1/2-z
4 1/2+x,1/2-y,-z
5 -x,-y,-z
6 1/2+x,1/2+y,1/2-z
7 x,-y,1/2+z
8 1/2-x,1/2+y,z
_cell_length_a                   34.0358(3)
_cell_length_b                   12.66100(10)
_cell_length_c                   8.33520(10)
_cell_angle_alpha                90
_cell_angle_beta                 90
_cell_angle_gamma                90
_cell_volume                     3591.86
loop_
_atom_site_label
_atom_site_type_symbol
_atom_site_fract_x
_atom_site_fract_y
_atom_site_fract_z
C1 C 0.29679(10) 0.0874(3) 0.4816(4)
C2 C 0.33410(11) 0.0507(3) 0.4015(5)
H1 H 0.3545 0.0408 0.4815
H2 H 0.3296 -0.0166 0.3488
C3 C 0.38443(10) 0.1146(3) 0.2276(4)
C4 C 0.40727(11) 0.0259(3) 0.2497(4)
H3 H 0.3975 -0.0312 0.3076
C5 C 0.44494(11) 0.0220(3) 0.1852(5)
H4 H 0.4607 -0.0370 0.2025
C6 C 0.45898(11) 0.1048(3) 0.0962(5)
H5 H 0.4840 0.1010 0.0514
C7 C 0.43598(11) 0.1951(3) 0.0721(4)
H6 H 0.4455 0.2512 0.0114
C8 C 0.39906(10) 0.1999(3) 0.1395(4)
C9 C 0.38571(10) 0.3729(3) 0.0302(5)
H7 H 0.3939 0.3478 -0.0745
H8 H 0.4076 0.4101 0.0789
C10 C 0.35101(11) 0.4455(3) 0.0140(4)
C11 C 0.40101(11) 0.2525(3) 0.5864(5)
C12 C 0.44273(11) 0.2405(3) 0.5216(5)
H9 H 0.4445 0.1747 0.4626
H10 H 0.4479 0.2976 0.4468
C13 C 0.48412(12) 0.3380(3) 0.6960(5)
C14 C 0.46786(15) 0.4333(4) 0.6503(6)
H11 H 0.4459 0.4338 0.5840
C15 C 0.48380(16) 0.5279(4) 0.7015(8)
H12 H 0.4725 0.5914 0.6700
Dy1 Dy 0.321556(4) 0.322137(11) 0.342068(18)
O1 O 0.28552(7) 0.18062(18) 0.4573(3)
O2 O 0.27970(7) 0.02092(19) 0.5679(3)
O3 O 0.34673(7) 0.12720(18) 0.2857(3)
O4 O 0.37407(7) 0.28590(18) 0.1292(3)
O5 O 0.32261(7) 0.43134(19) 0.1080(3)
O6 O 0.35308(8) 0.5155(2) -0.0909(3)
O7 O 0.37550(8) 0.2762(2) 0.4854(3)
O8 O 0.39549(10) 0.2320(3) 0.7282(4)
O9 O 0.47231(8) 0.2413(2) 0.6427(4)
O10 O 0.29641(8) 0.36541(19) 0.6066(3)
O11 O 0.26286(8) 0.4169(2) 0.3249(3)
O12 O 0.28331(8) 0.2367(2) 0.1223(3)
H13 H 0.2474(13) 0.434(4) 0.237(4)
H14 H 0.2515(14) 0.441(4) 0.419(3)
H15 H 0.3079(16) 0.323(3) 0.689(5)
H16 H 0.3008(16) 0.4356(16) 0.635(6)
H17 H 0.2646(12) 0.269(3) 0.057(6)
H18 H 0.2760(15) 0.1675(19) 0.140(6)
C1F C 0.29679(10) 0.9126(3) 0.9816(4)
C2F C 0.33410(11) 0.9493(3) 0.9015(5)
H1F H 0.3545 0.9592 0.9815
H2F H 0.3296 1.0166 0.8488
C3F C 0.38443(10) 0.8854(3) 0.7276(4)
C4F C 0.40727(11) 0.9741(3) 0.7497(4)
H3F H 0.3975 1.0312 0.8076
C5F C 0.44494(11) 0.9780(3) 0.6852(5)
H4F H 0.4607 1.0370 0.7025
C6F C 0.45898(11) 0.8952(3) 0.5962(5)
H5F H 0.4840 0.8990 0.5514
C7F C 0.43598(11) 0.8049(3) 0.5721(4)
H6F H 0.4455 0.7488 0.5114
C8F C 0.39906(10) 0.8001(3) 0.6395(4)
C9F C 0.38571(10) 0.6271(3) 0.5302(5)
H7F H 0.3939 0.6522 0.4255
H8F H 0.4076 0.5899 0.5789
C10F C 0.35101(11) 0.5545(3) 0.5140(4)
C11B C 0.59899(11) 0.2525(3) 0.9136(5)
C12B C 0.55727(11) 0.2405(3) 0.9784(5)
H9B H 0.5555 0.1747 1.0374
H10B H 0.5521 0.2976 1.0532
C13B C 0.51588(12) 0.3380(3) 0.8040(5)
C14B C 0.53214(15) 0.4333(4) 0.8497(6)
H11B H 0.5541 0.4338 0.9160
C15B C 0.51620(16) 0.5279(4) 0.7985(8)
H12B H 0.5275 0.5914 0.8300
Dy1F Dy 0.321556(4) 0.677863(11) 0.842068(18)
Dy1F_2 Dy 0.321556(4) 0.677863(11) -0.157932(18)
Dy1B Dy 0.678444(4) 0.322137(11) 1.157932(18)
O1F O 0.28552(7) 0.81938(18) 0.9573(3)
O2F O 0.27970(7) 0.97908(19) 1.0679(3)
O3F O 0.34673(7) 0.87280(18) 0.7857(3)
O4F O 0.37407(7) 0.71410(18) 0.6292(3)
O5F O 0.32261(7) 0.56866(19) 0.6080(3)
O6F O 0.35308(8) 0.4845(2) 0.4091(3)
O6_2 O 0.35308(8) 0.5155(2) 0.9091(3)
O7B O 0.62450(8) 0.2762(2) 1.0146(3)
O7F O 0.37550(8) 0.7238(2) 0.9854(3)
O8B O 0.60451(10) 0.2320(3) 0.7718(4)
O9B O 0.52769(8) 0.2413(2) 0.8573(4)
O10F O 0.29641(8) 0.63459(19) 1.1066(3)
O11F O 0.26286(8) 0.5831(2) 0.8249(3)
O12F O 0.28331(8) 0.7633(2) 0.6223(3)
H13F H 0.2474(13) 0.566(4) 0.737(4)
H14F H 0.2515(14) 0.559(4) 0.919(3)
H15F H 0.3079(16) 0.677(3) 1.189(5)
H16F H 0.3008(16) 0.5644(16) 1.135(6)
H17F H 0.2646(12) 0.731(3) 0.557(6)
H18F H 0.2760(15) 0.8325(19) 0.640(6)
O13 O 0.32005(9) 0.2167(3) 0.8116(4)
H19 H 0.3145(13) 0.229(5) 0.920(3)
H20 H 0.3477(6) 0.222(5) 0.797(6)
loop_
_geom_bond_atom_site_label_1
_geom_bond_atom_site_label_2
_geom_bond_site_symmetry_1
_geom_bond_site_symmetry_2
C1 C2 1_555 1_555
C2 H1 1_555 1_555
H2 C2 1_555 1_555
C3 C4 1_555 1_555
C4 H3 1_555 1_555
C5 C4 1_555 1_555
H4 C5 1_555 1_555
C6 C5 1_555 1_555
H5 C6 1_555 1_555
C7 C6 1_555 1_555
H6 C7 1_555 1_555
C8 C3 1_555 1_555
C9 H7 1_555 1_555
H8 C9 1_555 1_555
C10 C9 1_555 1_555
C11 C12 1_555 1_555
C12 H9 1_555 1_555
H10 C12 1_555 1_555
C13 C14 1_555 1_555
C14 H11 1_555 1_555
C15 C14 1_555 1_555
H12 C15 1_555 1_555
Dy1 O1 1_555 1_555
O1 C1 1_555 1_555
O2 C1 1_555 1_555
O3 C2 1_555 1_555
O4 C8 1_555 1_555
O5 C10 1_555 1_555
O6 C10 1_555 1_555
O7 C11 1_555 1_555
O8 C11 1_555 1_555
O9 C12 1_555 1_555
O10 Dy1 1_555 1_555
O11 Dy1 1_555 1_555
O12 Dy1 1_555 1_555
H13 O11 1_555 1_555
H14 O11 1_555 1_555
H15 O10 1_555 1_555
H16 O10 1_555 1_555
H17 O12 1_555 1_555
H18 O12 1_555 1_555
O13 H19 1_555 1_555
H20 O13 1_555 1_555
C1F C2F 1_555 1_555
C2F H1F 1_555 1_555
H2F C2F 1_555 1_555
C3F C4F 1_555 1_555
C4F H3F 1_555 1_555
C5F C4F 1_555 1_555
H4F C5F 1_555 1_555
C6F C5F 1_555 1_555
H5F C6F 1_555 1_555
C7F C6F 1_555 1_555
H6F C7F 1_555 1_555
C8F C3F 1_555 1_555
C9F H7F 1_555 1_555
H8F C9F 1_555 1_555
C10F C9F 1_555 1_555
C11B C12B 1_555 1_555
C12B H9B 1_555 1_555
H10B C12B 1_555 1_555
C13B C13 1_555 1_555
C14B C13B 1_555 1_555
H11B C14B 1_555 1_555
C15B C15 1_555 1_555
H12B C15B 1_555 1_555
Dy1F O1F 1_555 1_555
Dy1F_2 O6 1_555 1_555
Dy1B O7B 1_555 1_555
O1F C1F 1_555 1_555
O2F C1F 1_555 1_555
O3F C2F 1_555 1_555
O4F C8F 1_555 1_555
O5F C10F 1_555 1_555
O6F Dy1 1_555 1_555
O6_2 Dy1F 1_555 1_555
O7B C11B 1_555 1_555
O7F Dy1F 1_555 1_555
O8B C11B 1_555 1_555
O9B C12B 1_555 1_555
O10F Dy1F 1_555 1_555
O11F Dy1F 1_555 1_555
O12F Dy1F 1_555 1_555
H13F O11F 1_555 1_555
H14F O11F 1_555 1_555
H15F O10F 1_555 1_555
H16F O10F 1_555 1_555
H17F O12F 1_555 1_555
H18F O12F 1_555 1_555
C3 O3 1_555 1_555
C7 C8 1_555 1_555
C9 O4 1_555 1_555
C13 O9 1_555 1_555
Dy1 O3 1_555 1_555
Dy1 O4 1_555 1_555
Dy1 O5 1_555 1_555
Dy1 O7 1_555 1_555
C3F O3F 1_555 1_555
C7F C8F 1_555 1_555
C9F O4F 1_555 1_555
C10F O6F 1_555 1_555
C13B O9B 1_555 1_555
C14B C15B 1_555 1_555
Dy1F O3F 1_555 1_555
Dy1F O4F 1_555 1_555
Dy1F O5F 1_555 1_555

#END
