
#######################################################################
#
#                 Cambridge Crystallographic Data Centre
#                                CCDC 
#
#######################################################################
#
# If this CIF has been generated from an entry in the Cambridge 
# Structural Database, then it will include bibliographic, chemical, 
# crystal, experimental, refinement or atomic coordinate data resulting 
# from the CCDC's data processing and validation procedures.
#
#######################################################################

data_NUDXUF01
_symmetry_cell_setting           monoclinic
_symmetry_space_group_name_H-M   'P 21'
_symmetry_Int_Tables_number      4
_space_group_name_Hall           'P 2yb'
loop_
_symmetry_equiv_pos_site_id
_symmetry_equiv_pos_as_xyz
1 x,y,z
2 -x,1/2+y,-z
_cell_length_a                   10.3247(10)
_cell_length_b                   17.8700(6)
_cell_length_c                   11.0633(10)
_cell_angle_alpha                90
_cell_angle_beta                 93.430(4)
_cell_angle_gamma                90
_cell_volume                     2037.55
loop_
_atom_site_label
_atom_site_type_symbol
_atom_site_fract_x
_atom_site_fract_y
_atom_site_fract_z
Mn1 Mn 0.0545(5) 0.5255(3) 0.3153(4)
Mn2 Mn -0.0305(5) 0.1843(3) 0.1871(4)
O1 O -0.1382(18) 0.4947(11) 0.2404(16)
O2 O -0.1072(20) 0.2650(12) 0.0518(16)
N1 N -0.1637(26) 0.4426(17) 0.1648(24)
N2 N -0.1462(25) 0.3298(15) 0.0862(21)
N3 N 0.0821(22) 0.4022(14) 0.3104(22)
N4 N 0.0551(22) 0.2838(13) 0.2711(18)
C1 C -0.0947(29) 0.3789(18) 0.1712(25)
C2 C -0.2751(37) 0.4433(20) 0.0754(31)
C3 C -0.2592(36) 0.3649(21) 0.0116(30)
C4 C -0.3928(33) 0.4587(22) 0.1289(29)
H1 H -0.4109(33) 0.4195(22) 0.1847(29)
H2 H -0.4618(33) 0.4617(22) 0.0670(29)
H3 H -0.3856(33) 0.5055(22) 0.1713(29)
C5 C -0.2505(36) 0.5062(19) -0.0120(29)
H4 H -0.1707(36) 0.4970(19) -0.0498(29)
H5 H -0.2445(36) 0.5527(19) 0.0313(29)
H6 H -0.3207(36) 0.5086(19) -0.0728(29)
C6 C -0.2248(36) 0.3717(21) -0.1058(33)
H7 H -0.1545(36) 0.4066(21) -0.1091(33)
H8 H -0.2978(36) 0.3894(21) -0.1556(33)
H9 H -0.1981(36) 0.3238(21) -0.1347(33)
C7 C -0.3561(37) 0.3170(21) 0.0132(34)
H10 H -0.3821(37) 0.3116(21) 0.0946(34)
H11 H -0.3288(37) 0.2693(21) -0.0162(34)
H12 H -0.4280(37) 0.3351(21) -0.0376(34)
C8 C 0.0116(32) 0.3533(20) 0.2480(30)
C9 C 0.1860(29) 0.3676(17) 0.3731(26)
H13 H 0.2549(29) 0.3891(17) 0.4186(26)
C10 C 0.1591(31) 0.2885(18) 0.3492(27)
H14 H 0.2062(31) 0.2483(18) 0.3824(27)
O3 O 0.0258(21) 0.6523(10) 0.3059(19)
O4 O 0.1447(16) 0.1833(11) 0.0840(16)
N5 N -0.0437(25) 0.6774(16) 0.2120(23)
N6 N -0.1269(22) 0.6910(16) 0.0357(23)
N7 N 0.1126(22) 0.5475(13) 0.1250(18)
N8 N -0.0913(24) 0.1010(15) 0.0523(23)
C11 C -0.0340(31) 0.6534(16) 0.1008(27)
C12 C -0.1514(32) 0.7283(19) 0.2341(29)
C13 C -0.2152(34) 0.7454(18) 0.1001(28)
C14 C -0.0953(30) 0.8011(19) 0.2958(28)
H15 H -0.0331(30) 0.8232(19) 0.2456(28)
H16 H -0.0539(30) 0.7888(19) 0.3733(28)
H17 H -0.1645(30) 0.8359(19) 0.3065(28)
C15 C -0.2437(26) 0.6971(18) 0.3127(27)
H18 H -0.2797(26) 0.6521(18) 0.2774(27)
H19 H -0.3120(26) 0.7326(18) 0.3231(27)
H20 H -0.2010(26) 0.6858(18) 0.3900(27)
C16 C -0.1886(33) 0.8195(18) 0.0487(28)
H21 H -0.0989(33) 0.8320(18) 0.0657(28)
H22 H -0.2423(33) 0.8563(18) 0.0843(28)
H23 H -0.2073(33) 0.8184(18) -0.0373(28)
C17 C -0.3561(30) 0.7198(18) 0.0768(29)
H24 H -0.3669(30) 0.6713(18) 0.1122(29)
H25 H -0.3767(30) 0.7172(18) -0.0089(29)
H26 H -0.4129(30) 0.7550(18) 0.1124(29)
C18 C 0.0515(30) 0.6023(19) 0.0609(30)
C19 C 0.1986(29) 0.5170(19) 0.0593(28)
H27 H 0.2599(29) 0.4816(19) 0.0862(28)
C20 C 0.1848(26) 0.5449(17) -0.0544(27)
H28 H 0.2290(26) 0.5297(17) -0.1210(27)
O5 O 0.2473(19) 0.5457(12) 0.3963(17)
O6 O -0.2097(19) 0.2047(11) 0.2857(19)
N9 N 0.2572(25) 0.5999(16) 0.4727(24)
N10 N 0.2478(25) 0.6705(16) 0.6256(24)
N11 N 0.0033(23) 0.5462(14) 0.4941(21)
N12 N 0.0181(23) 0.1048(13) 0.3343(20)
C21 C 0.1793(36) 0.6186(19) 0.5613(30)
C22 C 0.3737(32) 0.6456(19) 0.4563(29)
C23 C 0.3737(32) 0.6908(23) 0.5771(30)
C24 C 0.4973(26) 0.5998(20) 0.4442(28)
H29 H 0.5127(26) 0.5691(20) 0.5148(28)
H30 H 0.5695(26) 0.6330(20) 0.4365(28)
H31 H 0.4873(26) 0.5685(20) 0.3737(28)
C25 C 0.3561(26) 0.6917(19) 0.3436(26)
H32 H 0.2791(26) 0.7216(19) 0.3470(26)
H33 H 0.3480(26) 0.6594(19) 0.2743(26)
H34 H 0.4299(26) 0.7239(19) 0.3372(26)
C26 C 0.4023(34) 0.7721(21) 0.5822(31)
H35 H 0.3979(34) 0.7896(21) 0.6639(31)
H36 H 0.3398(34) 0.7985(21) 0.5305(31)
H37 H 0.4878(34) 0.7809(21) 0.5554(31)
C27 C 0.4721(31) 0.6562(21) 0.6866(32)
H38 H 0.4605(31) 0.6030(21) 0.6908(32)
H39 H 0.4525(31) 0.6784(21) 0.7624(32)
H40 H 0.5603(31) 0.6672(21) 0.6701(32)
C28 C 0.0607(33) 0.5916(20) 0.5769(30)
C29 C -0.1128(30) 0.5228(22) 0.5320(26)
H41 H -0.1692(30) 0.4878(22) 0.4954(26)
C30 C -0.1293(29) 0.5665(16) 0.6473(27)
H42 H -0.2007(29) 0.5667(16) 0.6948(27)
O4A O -0.1447(16) 0.6833(11) -0.0840(16)
Mn2A Mn 0.0305(5) 0.6843(3) -0.1871(4)
N8A N 0.0913(24) 0.6010(15) -0.0523(23)
O6A O 0.2097(19) 0.7047(11) 0.7143(19)
Mn2A_2 Mn 0.0305(5) 0.6843(3) 0.8129(4)
N12A N -0.0181(23) 0.6048(13) 0.6657(20)
Cl1 Cl 0.4377(13) -0.5694(7) 1.6973(12)
O7 O 0.3293(28) -0.5318(17) 1.6523(25)
O8 O 0.5585(31) -0.5446(20) 1.6753(29)
O9 O 0.4357(27) -0.5648(20) 1.8224(29)
O10 O 0.4392(33) -0.6451(19) 1.6898(33)
loop_
_geom_bond_atom_site_label_1
_geom_bond_atom_site_label_2
_geom_bond_site_symmetry_1
_geom_bond_site_symmetry_2
Mn1 O1 1_555 1_555
Mn2 O2 1_555 1_555
O1 N1 1_555 1_555
O2 N2 1_555 1_555
N1 C1 1_555 1_555
N2 C1 1_555 1_555
N3 Mn1 1_555 1_555
N4 Mn2 1_555 1_555
C1 C8 1_555 1_555
C2 N1 1_555 1_555
C3 N2 1_555 1_555
C4 C2 1_555 1_555
H1 C4 1_555 1_555
H2 C4 1_555 1_555
H3 C4 1_555 1_555
C5 C2 1_555 1_555
H4 C5 1_555 1_555
H5 C5 1_555 1_555
H6 C5 1_555 1_555
C6 C3 1_555 1_555
H7 C6 1_555 1_555
H8 C6 1_555 1_555
H9 C6 1_555 1_555
C7 C3 1_555 1_555
H10 C7 1_555 1_555
H11 C7 1_555 1_555
H12 C7 1_555 1_555
C8 N3 1_555 1_555
C9 N3 1_555 1_555
H13 C9 1_555 1_555
C10 N4 1_555 1_555
H14 C10 1_555 1_555
O3 Mn1 1_555 1_555
O4 Mn2 1_555 1_555
N5 O3 1_555 1_555
N6 C11 1_555 1_555
N7 Mn1 1_555 1_555
N8 Mn2 1_555 1_555
C11 N5 1_555 1_555
C12 N5 1_555 1_555
C13 N6 1_555 1_555
C14 C12 1_555 1_555
H15 C14 1_555 1_555
H16 C14 1_555 1_555
H17 C14 1_555 1_555
C15 C12 1_555 1_555
H18 C15 1_555 1_555
H19 C15 1_555 1_555
H20 C15 1_555 1_555
C16 C13 1_555 1_555
H21 C16 1_555 1_555
H22 C16 1_555 1_555
H23 C16 1_555 1_555
C17 C13 1_555 1_555
H24 C17 1_555 1_555
H25 C17 1_555 1_555
H26 C17 1_555 1_555
C18 N7 1_555 1_555
C19 N7 1_555 1_555
H27 C19 1_555 1_555
C20 C19 1_555 1_555
H28 C20 1_555 1_555
O5 Mn1 1_555 1_555
O6 Mn2 1_555 1_555
N9 O5 1_555 1_555
N10 C21 1_555 1_555
N11 Mn1 1_555 1_555
N12 Mn2 1_555 1_555
C21 N9 1_555 1_555
C22 N9 1_555 1_555
C23 N10 1_555 1_555
C24 C22 1_555 1_555
H29 C24 1_555 1_555
H30 C24 1_555 1_555
H31 C24 1_555 1_555
C25 C22 1_555 1_555
H32 C25 1_555 1_555
H33 C25 1_555 1_555
H34 C25 1_555 1_555
C26 C23 1_555 1_555
H35 C26 1_555 1_555
H36 C26 1_555 1_555
H37 C26 1_555 1_555
C27 C23 1_555 1_555
H38 C27 1_555 1_555
H39 C27 1_555 1_555
H40 C27 1_555 1_555
C28 N11 1_555 1_555
C29 N11 1_555 1_555
H41 C29 1_555 1_555
C30 C29 1_555 1_555
H42 C30 1_555 1_555
Cl1 O7 1_555 1_555
O8 Cl1 1_555 1_555
O9 Cl1 1_555 1_555
O10 Cl1 1_555 1_555
O4A N6 1_555 1_555
Mn2A O4A 1_555 1_555
N8A C18 1_555 1_555
O6A N10 1_555 1_555
Mn2A_2 O6A 1_555 1_555
N12A C28 1_555 1_555
N4 C8 1_555 1_555
C2 C3 1_555 1_555
C9 C10 1_555 1_555
C11 C18 1_555 1_555
C12 C13 1_555 1_555
C20 N8A 1_555 1_555
C21 C28 1_555 1_555
C22 C23 1_555 1_555
C30 N12A 1_555 1_555
Mn2A N8A 1_555 1_555
Mn2A_2 N12A 1_555 1_555

#END
