
#######################################################################
#
#                 Cambridge Crystallographic Data Centre
#                                CCDC 
#
#######################################################################
#
# If this CIF has been generated from an entry in the Cambridge 
# Structural Database, then it will include bibliographic, chemical, 
# crystal, experimental, refinement or atomic coordinate data resulting 
# from the CCDC's data processing and validation procedures.
#
#######################################################################

data_NUDZIV
_symmetry_cell_setting           orthorhombic
_symmetry_space_group_name_H-M   'P b c a'
_symmetry_Int_Tables_number      61
_space_group_name_Hall           '-P 2ac 2ab'
loop_
_symmetry_equiv_pos_site_id
_symmetry_equiv_pos_as_xyz
1 x,y,z
2 1/2-x,-y,1/2+z
3 1/2+x,1/2-y,-z
4 -x,1/2+y,1/2-z
5 -x,-y,-z
6 1/2+x,y,1/2-z
7 1/2-x,1/2+y,z
8 x,1/2-y,1/2+z
_cell_length_a                   23.455(4)
_cell_length_b                   11.1793(14)
_cell_length_c                   10.3097(12)
_cell_angle_alpha                90
_cell_angle_beta                 90
_cell_angle_gamma                90
_cell_volume                     2703.31
loop_
_atom_site_label
_atom_site_type_symbol
_atom_site_fract_x
_atom_site_fract_y
_atom_site_fract_z
Sn1 Sn 0.462520(16) -0.33204(4) -0.81165(3)
S1 S 0.39957(7) -0.16679(16) -0.76001(13)
O1 O 0.46682(17) -0.2298(4) -0.9967(4)
O2 O 0.43188(18) -0.0902(4) -1.1263(4)
N1 N 0.3051(2) 0.0119(5) -0.7422(5)
C1 C 0.4336(2) -0.1436(5) -1.0176(5)
C2 C 0.3949(2) -0.0992(5) -0.9118(5)
C3 C 0.3598(3) -0.0069(6) -0.9408(6)
C4 C 0.3181(2) 0.0559(5) -0.8610(6)
C5 C 0.2937(3) 0.1579(7) -0.9072(7)
C6 C 0.2565(3) 0.2212(8) -0.8304(9)
C7 C 0.2423(3) 0.1790(8) -0.7116(8)
C8 C 0.2674(3) 0.0744(8) -0.6717(7)
C9 C 0.5507(3) -0.3173(8) -0.7630(7)
C10 C 0.5856(4) -0.2400(10) -0.8503(8)
C11 C 0.4286(3) -0.4829(7) -0.9112(6)
C12 C 0.3648(4) -0.4949(12) -0.9015(12)
H1 H 0.361(2) 0.017(5) -1.028(5)
H2 H 0.304(2) 0.190(5) -0.981(5)
H3 H 0.235(3) 0.292(6) -0.863(6)
H4 H 0.219(3) 0.228(6) -0.646(6)
H5 H 0.260(2) 0.044(5) -0.595(5)
H6 H 0.552(3) -0.269(8) -0.694(8)
H7 H 0.560(3) -0.388(7) -0.750(8)
H8 H 0.584(3) -0.258(7) -0.937(7)
H9 H 0.628(3) -0.235(8) -0.818(8)
H10 H 0.569(3) -0.159(6) -0.883(7)
H11 H 0.436(3) -0.475(6) -1.006(7)
H12 H 0.451(2) -0.544(5) -0.872(5)
H13 H 0.347(4) -0.493(9) -0.818(9)
H14 H 0.357(3) -0.562(7) -0.951(8)
H15 H 0.344(3) -0.418(7) -0.952(7)
O2G O 0.43188(18) -0.4098(4) -0.6263(4)
Sn1G Sn 0.462520(16) -0.16796(4) -1.31165(3)
loop_
_geom_bond_atom_site_label_1
_geom_bond_atom_site_label_2
_geom_bond_site_symmetry_1
_geom_bond_site_symmetry_2
Sn1 S1 1_555 1_555
S1 C2 1_555 1_555
O1 Sn1 1_555 1_555
O2 C1 1_555 1_555
N1 C4 1_555 1_555
C1 O1 1_555 1_555
C2 C1 1_555 1_555
C3 C2 1_555 1_555
C4 C3 1_555 1_555
C5 C4 1_555 1_555
C6 C5 1_555 1_555
C7 C6 1_555 1_555
C8 N1 1_555 1_555
C9 Sn1 1_555 1_555
C10 C9 1_555 1_555
C11 Sn1 1_555 1_555
C12 C11 1_555 1_555
H1 C3 1_555 1_555
H2 C5 1_555 1_555
H3 C6 1_555 1_555
H4 C7 1_555 1_555
H5 C8 1_555 1_555
H6 C9 1_555 1_555
H7 C9 1_555 1_555
H8 C10 1_555 1_555
H9 C10 1_555 1_555
H10 C10 1_555 1_555
H11 C11 1_555 1_555
H12 C11 1_555 1_555
H13 C12 1_555 1_555
H14 C12 1_555 1_555
H15 C12 1_555 1_555
O2G Sn1 1_555 1_555
Sn1G O2 1_555 1_555
C7 C8 1_555 1_555

#END
