
#######################################################################
#
#                 Cambridge Crystallographic Data Centre
#                                CCDC 
#
#######################################################################
#
# If this CIF has been generated from an entry in the Cambridge 
# Structural Database, then it will include bibliographic, chemical, 
# crystal, experimental, refinement or atomic coordinate data resulting 
# from the CCDC's data processing and validation procedures.
#
#######################################################################

data_NUFBIB
_symmetry_cell_setting           monoclinic
_symmetry_space_group_name_H-M   'P 21/c'
_symmetry_Int_Tables_number      14
_space_group_name_Hall           '-P 2ybc'
loop_
_symmetry_equiv_pos_site_id
_symmetry_equiv_pos_as_xyz
1 x,y,z
2 -x,1/2+y,1/2-z
3 -x,-y,-z
4 x,1/2-y,1/2+z
_cell_length_a                   11.0076(4)
_cell_length_b                   21.4138(8)
_cell_length_c                   13.7391(6)
_cell_angle_alpha                90
_cell_angle_beta                 108.520(5)
_cell_angle_gamma                90
_cell_volume                     3070.79
loop_
_atom_site_label
_atom_site_type_symbol
_atom_site_fract_x
_atom_site_fract_y
_atom_site_fract_z
Zn1 Zn 1.11893(4) 1.062856(18) 0.66194(3)
O1 O 1.1216(2) 0.97289(10) 0.65338(19)
O2 O 0.4314(2) 0.50560(11) 0.3904(2)
O3 O 0.80883(19) 0.89188(10) 0.43343(16)
O4 O 0.64416(19) 0.64492(10) 0.71223(16)
O5 O 0.80953(17) 0.59159(9) 0.69315(15)
O6 O 0.20909(19) 0.81486(10) 0.40279(18)
O7 O 0.93117(14) 1.07310(7) 0.6313(2)
C1 C 0.75708(14) 0.68802(7) 0.60438(16)
C2 C 0.88186(14) 0.70954(7) 0.63019(16)
H1 H 0.9466 0.6891 0.6834
O8 O 0.91241(19) 0.82065(10) 0.37467(17)
O9 O 1.3629(2) 0.66299(11) 0.6851(2)
O10 O 0.2374(2) 0.51916(11) 0.4065(2)
H2 H 0.2327 0.4802 0.3990
O11 O 0.07681(19) 0.73238(10) 0.38495(18)
H3 H 0.0229 0.7595 0.3876
O12 O 1.49963(19) 0.74363(11) 0.70739(17)
H4 H 1.5503 0.7166 0.6984
C3 C 1.2184(3) 0.94121(15) 0.6535(2)
C4 C 1.0488(3) 0.78431(14) 0.6139(2)
C5 C 0.9153(3) 0.76028(14) 0.5805(2)
C6 C 0.6939(3) 0.76629(14) 0.4731(2)
H5 H 0.6296 0.7862 0.4189
C7 C 1.1978(3) 0.87099(14) 0.6481(2)
C8 C 0.8188(3) 0.78811(14) 0.5005(2)
C9 C 1.0736(3) 0.84838(13) 0.6212(2)
H6 H 1.0041 0.8769 0.6075
C10 C 1.3010(3) 0.83025(14) 0.6696(2)
H7 H 1.3860 0.8458 0.6868
C11 C 0.2726(3) 0.64823(15) 0.4127(2)
H8 H 0.1869 0.6333 0.3905
C12 C 1.2780(3) 0.76622(14) 0.6655(2)
C13 C 0.7313(3) 0.63815(13) 0.6730(2)
C14 C 1.1533(3) 0.74323(14) 0.6386(2)
H9 H 1.1390 0.6994 0.6371
C15 C 0.8501(3) 0.83608(14) 0.4315(2)
C16 C 0.1905(3) 0.75886(15) 0.4036(2)
C17 C 0.4225(3) 0.73375(14) 0.4613(2)
H10 H 0.4382 0.7774 0.4692
C18 C 1.3838(3) 0.71889(15) 0.6873(2)
C19 C 0.6599(3) 0.71525(14) 0.5238(2)
C20 C 0.3532(3) 0.53868(15) 0.4080(2)
O13 O 1.3242(2) 0.96237(12) 0.6582(2)
C21 C 0.3743(3) 0.60675(14) 0.4322(2)
C22 C 0.5256(3) 0.69204(14) 0.4854(2)
C23 C 0.5004(3) 0.62863(15) 0.4679(2)
H11 H 0.5695 0.6000 0.4803
C24 C 0.2972(3) 0.71179(14) 0.4258(2)
H12 H 0.880(2) 1.0422(8) 0.619(3)
H13 H 0.896(3) 1.1090(7) 0.613(3)
Zn1A Zn 0.88107(4) 0.562856(18) 0.83806(3)
Zn1B Zn 0.88107(4) 0.937144(18) 0.33806(3)
O3B O 1.19117(19) 1.10812(10) 0.56657(16)
O5A O 1.19047(17) 1.09159(9) 0.80685(15)
O8B O 1.08759(19) 1.17935(10) 0.62533(17)
loop_
_geom_bond_atom_site_label_1
_geom_bond_atom_site_label_2
_geom_bond_site_symmetry_1
_geom_bond_site_symmetry_2
Zn1 O1 1_555 1_555
O1 C3 1_555 1_555
O2 C20 1_555 1_555
O3 C15 1_555 1_555
O4 C13 1_555 1_555
O5 C13 1_555 1_555
O6 C16 1_555 1_555
O7 Zn1 1_555 1_555
C1 C2 1_555 1_555
C2 H1 1_555 1_555
O8 C15 1_555 1_555
O9 C18 1_555 1_555
O10 H2 1_555 1_555
O11 H3 1_555 1_555
O12 H4 1_555 1_555
C3 C7 1_555 1_555
C4 C5 1_555 1_555
C5 C2 1_555 1_555
C6 H5 1_555 1_555
C7 C9 1_555 1_555
C8 C5 1_555 1_555
C9 C4 1_555 1_555
H6 C9 1_555 1_555
C10 C7 1_555 1_555
H7 C10 1_555 1_555
C11 H8 1_555 1_555
C12 C10 1_555 1_555
C13 C1 1_555 1_555
C14 C4 1_555 1_555
H9 C14 1_555 1_555
C15 C8 1_555 1_555
C16 O11 1_555 1_555
C17 H10 1_555 1_555
C18 O12 1_555 1_555
C19 C1 1_555 1_555
C20 O10 1_555 1_555
O13 C3 1_555 1_555
C21 C11 1_555 1_555
C22 C17 1_555 1_555
C23 C21 1_555 1_555
H11 C23 1_555 1_555
C24 C11 1_555 1_555
H12 O7 1_555 1_555
H13 O7 1_555 1_555
Zn1A O5 1_555 1_555
Zn1B O3 1_555 1_555
O3B Zn1 1_555 1_555
O5A Zn1 1_555 1_555
O8B Zn1 1_555 1_555
O8 Zn1B 1_555 1_555
C6 C8 1_555 1_555
C6 C19 1_555 1_555
C12 C14 1_555 1_555
C12 C18 1_555 1_555
C16 C24 1_555 1_555
C17 C24 1_555 1_555
C19 C22 1_555 1_555
C20 C21 1_555 1_555
C22 C23 1_555 1_555

#END
