
#######################################################################
#
#                 Cambridge Crystallographic Data Centre
#                                CCDC 
#
#######################################################################
#
# If this CIF has been generated from an entry in the Cambridge 
# Structural Database, then it will include bibliographic, chemical, 
# crystal, experimental, refinement or atomic coordinate data resulting 
# from the CCDC's data processing and validation procedures.
#
#######################################################################

data_NUFCAU
_symmetry_cell_setting           monoclinic
_symmetry_space_group_name_H-M   'P 21/n'
_symmetry_Int_Tables_number      14
_space_group_name_Hall           '-P 2yn'
loop_
_symmetry_equiv_pos_site_id
_symmetry_equiv_pos_as_xyz
1 x,y,z
2 1/2-x,1/2+y,1/2-z
3 -x,-y,-z
4 1/2+x,1/2-y,1/2+z
_cell_length_a                   17.0549(3)
_cell_length_b                   15.3986(3)
_cell_length_c                   23.0104(5)
_cell_angle_alpha                90
_cell_angle_beta                 102.754(2)
_cell_angle_gamma                90
_cell_volume                     5893.93
loop_
_atom_site_label
_atom_site_type_symbol
_atom_site_fract_x
_atom_site_fract_y
_atom_site_fract_z
Zn1 Zn 0.98123(4) 0.22561(4) 0.57224(3)
Zn2 Zn 0.88540(4) 0.33108(4) 0.43250(3)
Zn3 Zn 0.59030(5) 1.03125(5) 0.62390(3)
Zn4 Zn 0.54650(5) 0.82961(5) 0.66745(3)
O1 O 0.51337(8) 0.70633(6) 0.70034(8)
O2 O 0.82000(6) 1.22954(6) 0.43963(4)
O3 O 0.95395(6) 0.71360(6) 0.48311(4)
O4 O 0.91645(6) 1.15346(6) 0.50090(4)
O5 O 1.00814(6) 0.69934(6) 0.58020(5)
O6 O 0.88346(6) 0.42177(6) 0.49110(4)
O7 O 0.89311(6) 0.32072(6) 0.56132(4)
O8 O 0.55069(7) 1.11308(9) 0.37757(8)
O9 O 0.67065(6) 0.94862(6) 0.60799(4)
O10 O 0.90939(7) 0.40819(7) 0.76648(5)
O11 O 0.88600(8) 0.54467(7) 0.78995(4)
O12 O 1.06858(6) 0.12774(6) 0.59063(4)
O13 O 0.62848(19) 1.13584(6) 0.58835(10)
O14 O 1.04307(6) 0.29899(6) 0.64236(4)
O15 O 0.51383(7) 0.99705(9) 0.42271(8)
O16 O 0.91951(6) 0.15470(6) 0.62592(4)
O17 O 0.62308(6) 0.81415(6) 0.61746(4)
O18 O 0.83205(7) 0.38335(7) 0.35412(4)
C1 C 0.80772(6) 1.01882(6) 0.50725(4)
H1 H 0.8621 1.0118 0.5279
C2 C 0.86784(6) 0.55346(6) 0.57081(4)
H2 H 0.8639 0.5683 0.5302
C3 C 0.7850(3) 1.0946(3) 0.4747(2)
C4 C 0.6496(3) 1.0402(4) 0.4469(2)
C5 C 0.7687(3) 0.7474(4) 0.6036(2)
H3 H 0.7408 0.7185 0.6295
C6 C 0.8835(3) 0.4688(3) 0.5892(2)
N1 N 1.10020(14) -0.00488(15) 0.63102(10)
C7 C 0.74168(14) 0.82818(15) 0.58072(10)
C8 C 0.95218(14) 0.71835(15) 0.53622(10)
C9 C 0.88730(14) 0.39763(15) 0.54381(10)
C10 C 0.67262(14) 0.96523(15) 0.47936(10)
H4 H 0.6339 0.9214 0.4808
C11 C 0.8464(3) 1.1638(3) 0.4722(2)
C12 C 0.86550(13) 0.59574(15) 0.67089(10)
H5 H 0.8586 0.6388 0.6989
C13 C 0.78065(13) 0.87092(15) 0.54107(10)
C14 C 0.75255(13) 0.95342(15) 0.51011(10)
C15 C 0.88340(13) 0.51018(15) 0.68943(10)
C16 C 0.84764(13) 0.83134(15) 0.52708(10)
H6 H 0.8746 0.8595 0.5003
C17 C 0.8763(3) 0.7509(3) 0.5516(2)
C18 C 0.70511(17) 1.10491(19) 0.44399(13)
H7 H 0.6890 1.1560 0.4213
C19 C 0.83624(17) 0.70722(19) 0.58962(13)
C20 C 0.89215(17) 0.44707(19) 0.64874(13)
H8 H 0.9041 0.3889 0.6615
C21 C 0.8578(3) 0.6174(3) 0.6114(2)
C22 C 0.5642(3) 1.0514(4) 0.4136(2)
C23 C 0.6725(3) 0.8663(4) 0.6033(2)
C24 C 0.8949(3) 0.4854(3) 0.75395(18)
C25 C 1.0500(3) 0.0512(3) 0.60038(18)
H9 H 0.9963 0.0329 0.5846
N2 N 1.1320(4) 0.3265(5) 0.7280(3)
N3 N 0.6134(5) 1.2468(4) 0.5256(3)
N4 N 0.8349(5) 0.1400(6) 0.6873(3)
C26 C 1.0916(5) 0.2747(5) 0.6858(3)
H10 H 1.1016 0.2141 0.6900
C27 C 0.5875(4) 1.1774(4) 0.5487(3)
H11 H 0.5337 1.1590 0.5334
C28 C 0.8781(4) 0.1853(4) 0.6571(3)
H12 H 0.8765 0.2468 0.6601
C29 C 0.7865(8) 0.1858(12) 0.7253(6)
H13 H 0.8187 0.2326 0.7477
H14 H 0.7714 0.1443 0.7533
H15 H 0.7378 0.2103 0.6999
C30 C 1.1826(6) 0.0178(7) 0.6567(4)
H16 H 1.1929 0.0774 0.6454
H17 H 1.2185 -0.0221 0.6419
H18 H 1.1925 0.0134 0.7002
C31 C 1.1185(6) 0.4199(6) 0.7272(5)
H19 H 1.0830 0.4365 0.6893
H20 H 1.1701 0.4502 0.7317
H21 H 1.0935 0.4359 0.7602
C32 C 1.0700(8) -0.0918(5) 0.6428(4)
H22 H 1.0543 -0.0913 0.6813
H23 H 1.1124 -0.1350 0.6438
H24 H 1.0233 -0.1066 0.6112
C33 C 0.6954(7) 1.2764(7) 0.5441(5)
H25 H 0.7288 1.2295 0.5654
H26 H 0.6976 1.3266 0.5705
H27 H 0.7156 1.2931 0.5090
C34 C 0.8397(9) 0.0441(8) 0.6887(6)
H28 H 0.8929 0.0258 0.6836
H29 H 0.7982 0.0200 0.6563
H30 H 0.8314 0.0229 0.7270
C35 C 0.5614(8) 1.2944(8) 0.4763(6)
H31 H 0.5284 1.2530 0.4490
H32 H 0.5948 1.3279 0.4548
H33 H 0.5263 1.3339 0.4923
C36 C 1.1900(11) 0.2934(11) 0.7778(7)
H34 H 1.1913 0.2298 0.7755
H35 H 1.1752 0.3108 0.8149
H36 H 1.2432 0.3167 0.7770
C37 C 0.7199(13) 0.4287(14) 0.3057(10)
H37 H 0.7338 0.4906 0.3070
H38 H 0.6644 0.4209 0.2833
H39 H 0.7564 0.3965 0.2861
C38 C 0.7299(7) 0.3870(9) 0.3835(6)
H40 H 0.7038 0.3307 0.3883
H41 H 0.7266 0.4302 0.4148
Zn1_2 Zn 0.98123(4) 1.22561(4) 0.57224(3)
Zn1B Zn 1.01877(4) 0.77439(4) 0.42776(3)
Zn2_2 Zn 0.88540(4) 1.33108(4) 0.43250(3)
Zn2B Zn 1.11460(4) 0.66892(4) 0.56750(3)
Zn3A Zn 0.90970(5) 0.53125(5) 0.87610(3)
Zn3B Zn 0.40970(5) 0.96875(5) 0.37610(3)
Zn4A Zn 0.95350(5) 0.32961(5) 0.83255(3)
Zn4B Zn 0.45350(5) 1.17039(5) 0.33255(3)
O2_2 O 0.82000(6) 0.22954(6) 0.43963(4)
O3B O 1.04605(6) 0.28640(6) 0.51689(4)
O4_2 O 0.91645(6) 0.15346(6) 0.50090(4)
O5B O 0.99186(6) 0.30066(6) 0.41980(5)
O8B O 0.44931(7) 0.88692(9) 0.62243(8)
O10A O 0.59061(7) 0.90819(7) 0.73352(5)
O11A O 0.61400(8) 1.04467(7) 0.71005(4)
O15B O 0.48617(7) 1.00295(9) 0.57729(8)
loop_
_geom_bond_atom_site_label_1
_geom_bond_atom_site_label_2
_geom_bond_site_symmetry_1
_geom_bond_site_symmetry_2
Zn1 O7 1_555 1_555
Zn2 O6 1_555 1_555
Zn3 O9 1_555 1_555
Zn4 O1 1_555 1_555
O2 C11 1_555 1_555
O3 C8 1_555 1_555
O4 C11 1_555 1_555
O5 C8 1_555 1_555
O6 C9 1_555 1_555
O7 C9 1_555 1_555
O8 C22 1_555 1_555
O9 C23 1_555 1_555
O10 C24 1_555 1_555
O11 C24 1_555 1_555
O12 Zn1 1_555 1_555
O13 Zn3 1_555 1_555
O14 Zn1 1_555 1_555
O15 C22 1_555 1_555
O16 Zn1 1_555 1_555
O17 Zn4 1_555 1_555
O18 Zn2 1_555 1_555
C1 H1 1_555 1_555
C2 H2 1_555 1_555
C3 C1 1_555 1_555
C4 C10 1_555 1_555
C5 H3 1_555 1_555
C6 C2 1_555 1_555
N1 C25 1_555 1_555
C7 C5 1_555 1_555
C8 C17 1_555 1_555
C9 C6 1_555 1_555
C10 H4 1_555 1_555
C11 C3 1_555 1_555
C12 H5 1_555 1_555
C13 C7 1_555 1_555
C14 C1 1_555 1_555
C15 C12 1_555 1_555
C16 C13 1_555 1_555
H6 C16 1_555 1_555
C17 C16 1_555 1_555
C18 C3 1_555 1_555
H7 C18 1_555 1_555
C19 C5 1_555 1_555
C20 C6 1_555 1_555
H8 C20 1_555 1_555
C21 C2 1_555 1_555
C22 C4 1_555 1_555
C23 O17 1_555 1_555
C24 C15 1_555 1_555
C25 O12 1_555 1_555
H9 C25 1_555 1_555
N2 C26 1_555 1_555
N3 C27 1_555 1_555
N4 C28 1_555 1_555
C26 O14 1_555 1_555
H10 C26 1_555 1_555
C27 O13 1_555 1_555
H11 C27 1_555 1_555
C28 O16 1_555 1_555
H12 C28 1_555 1_555
C29 N4 1_555 1_555
H13 C29 1_555 1_555
H14 C29 1_555 1_555
H15 C29 1_555 1_555
C30 N1 1_555 1_555
H16 C30 1_555 1_555
H17 C30 1_555 1_555
H18 C30 1_555 1_555
C31 N2 1_555 1_555
H19 C31 1_555 1_555
H20 C31 1_555 1_555
H21 C31 1_555 1_555
C32 N1 1_555 1_555
H22 C32 1_555 1_555
H23 C32 1_555 1_555
H24 C32 1_555 1_555
C33 N3 1_555 1_555
H25 C33 1_555 1_555
H26 C33 1_555 1_555
H27 C33 1_555 1_555
C34 N4 1_555 1_555
H28 C34 1_555 1_555
H29 C34 1_555 1_555
H30 C34 1_555 1_555
C35 N3 1_555 1_555
H31 C35 1_555 1_555
H32 C35 1_555 1_555
H33 C35 1_555 1_555
C36 N2 1_555 1_555
H34 C36 1_555 1_555
H35 C36 1_555 1_555
H36 C36 1_555 1_555
C37 H37 1_555 1_555
H38 C37 1_555 1_555
H39 C37 1_555 1_555
C38 O18 1_555 1_555
H40 C38 1_555 1_555
H41 C38 1_555 1_555
Zn1_2 O4 1_555 1_555
Zn1B O3 1_555 1_555
Zn2_2 O2 1_555 1_555
Zn2B O5 1_555 1_555
Zn3A O11 1_555 1_555
Zn3B O15 1_555 1_555
Zn4A O10 1_555 1_555
Zn4B O8 1_555 1_555
O2_2 Zn2 1_555 1_555
O3B Zn1 1_555 1_555
O4_2 Zn1 1_555 1_555
O5B Zn2 1_555 1_555
O8B Zn4 1_555 1_555
O10A Zn4 1_555 1_555
O11A Zn3 1_555 1_555
O15B Zn3 1_555 1_555
C4 C18 1_555 1_555
C7 C23 1_555 1_555
C10 C14 1_555 1_555
C12 C21 1_555 1_555
C13 C14 1_555 1_555
C15 C20 1_555 1_555
C17 C19 1_555 1_555
C19 C21 1_555 1_555
C37 C38 1_555 1_555

#END
