
#######################################################################
#
#                 Cambridge Crystallographic Data Centre
#                                CCDC 
#
#######################################################################
#
# If this CIF has been generated from an entry in the Cambridge 
# Structural Database, then it will include bibliographic, chemical, 
# crystal, experimental, refinement or atomic coordinate data resulting 
# from the CCDC's data processing and validation procedures.
#
#######################################################################

data_NUFHAX
_symmetry_cell_setting           monoclinic
_symmetry_space_group_name_H-M   'C 2/c'
_symmetry_Int_Tables_number      15
_space_group_name_Hall           '-C 2yn'
loop_
_symmetry_equiv_pos_site_id
_symmetry_equiv_pos_as_xyz
1 x,y,z
2 x,-y,1/2+z
3 1/2+x,1/2+y,z
4 1/2+x,1/2-y,1/2+z
5 -x,-y,-z
6 -x,y,1/2-z
7 1/2-x,1/2-y,-z
8 1/2-x,1/2+y,1/2-z
_cell_length_a                   34.232(9)
_cell_length_b                   25.526(11)
_cell_length_c                   27.358(12)
_cell_angle_alpha                90
_cell_angle_beta                 128.93(2)
_cell_angle_gamma                90
_cell_volume                     18596.5
loop_
_atom_site_label
_atom_site_type_symbol
_atom_site_fract_x
_atom_site_fract_y
_atom_site_fract_z
Nd1 Nd 0.24984(6) 0.03555(6) 0.76436(8)
Nd2 Nd 0.21923(6) 0.19814(6) 0.73897(8)
Nd3 Nd 0.28210(6) 0.36047(6) 0.75338(8)
Se1 Se 0.29944(11) 0.12984(11) 0.85138(14)
Se2 Se 0.21321(12) 0.11146(11) 0.66126(15)
Se3 Se 0.17955(11) 0.10626(11) 0.76216(16)
Se4 Se 0.19335(11) 0.29437(10) 0.65887(14)
Se5 Se 0.24661(11) 0.29448(11) 0.81551(15)
Se6 Se 0.30980(11) 0.24296(10) 0.76047(15)
Se7 Se 0.16540(10) -0.03563(11) 0.72344(14)
Se8 Se 0.28958(11) -0.05518(11) 0.84983(15)
Se9 Se 0.24250(11) -0.05606(11) 0.69082(15)
C1 C 0.2857(11) 0.1262(10) 0.9086(11)
C2 C 0.2837(10) 0.0783(7) 0.9316(12)
H1 H 0.2879 0.0472 0.9176
C3 C 0.2756(11) 0.0771(8) 0.9754(12)
H2 H 0.2745 0.0451 0.9909
C4 C 0.2690(12) 0.1234(11) 0.9959(12)
H3 H 0.2623 0.1225 1.0240
C5 C 0.2725(12) 0.1713(8) 0.9747(13)
H4 H 0.2709 0.2024 0.9911
C6 C 0.2783(11) 0.1724(7) 0.9287(12)
H5 H 0.2773 0.2042 0.9113
C7 C 0.2458(9) 0.1088(11) 0.6253(12)
C8 C 0.2253(8) 0.0799(10) 0.5709(11)
H6 H 0.1956 0.0614 0.5524
C9 C 0.2489(9) 0.0786(11) 0.5441(10)
H7 H 0.2360 0.0578 0.5091
C10 C 0.2917(9) 0.1083(11) 0.5699(11)
H8 H 0.3062 0.1095 0.5504
C11 C 0.3130(8) 0.1363(10) 0.6248(12)
H9 H 0.3427 0.1547 0.6433
C12 C 0.2900(9) 0.1368(10) 0.6522(10)
H10 H 0.3041 0.1560 0.6887
C13 C 0.1098(4) 0.0938(10) 0.6983(10)
C14 C 0.0902(8) 0.0759(11) 0.6387(12)
H11 H 0.1110 0.0722 0.6279
C15 C 0.0393(9) 0.0634(12) 0.5952(9)
H12 H 0.0266 0.0493 0.5564
C16 C 0.0079(5) 0.0719(13) 0.6099(11)
H13 H -0.0265 0.0668 0.5795
C17 C 0.0275(8) 0.0881(12) 0.6699(13)
H14 H 0.0066 0.0914 0.6806
C18 C 0.0783(9) 0.0995(11) 0.7139(9)
H15 H 0.0914 0.1108 0.7538
C19 C 0.1810(9) 0.2844(10) 0.5819(7)
C20 C 0.2099(9) 0.2472(10) 0.5797(8)
H16 H 0.2342 0.2281 0.6155
C21 C 0.2023(10) 0.2388(10) 0.5241(11)
H17 H 0.2210 0.2135 0.5224
C22 C 0.1671(10) 0.2682(11) 0.4713(8)
H18 H 0.1630 0.2634 0.4346
C23 C 0.1379(9) 0.3049(10) 0.4729(8)
H19 H 0.1137 0.3240 0.4370
C24 C 0.1450(8) 0.3130(8) 0.5282(10)
H20 H 0.1256 0.3376 0.5294
C25 C 0.1916(8) 0.3227(11) 0.8067(13)
C26 C 0.1554(10) 0.3532(11) 0.7555(12)
H21 H 0.1580 0.3605 0.7244
C27 C 0.1151(9) 0.3729(11) 0.7507(12)
H22 H 0.0916 0.3947 0.7174
C28 C 0.1103(9) 0.3597(13) 0.7960(15)
H23 H 0.0857 0.3755 0.7956
C29 C 0.1426(11) 0.3227(13) 0.8420(14)
H24 H 0.1357 0.3087 0.8672
C30 C 0.1853(9) 0.3070(12) 0.8497(12)
H25 H 0.2093 0.2860 0.8836
C31 C 0.3770(5) 0.2207(11) 0.8267(9)
C32 C 0.4068(9) 0.2110(12) 0.8094(8)
H26 H 0.3933 0.2141 0.7676
C33 C 0.4566(8) 0.1965(13) 0.8543(12)
H27 H 0.4773 0.1931 0.8434
C34 C 0.4757(6) 0.1872(13) 0.9160(11)
H28 H 0.5089 0.1764 0.9458
C35 C 0.4454(8) 0.1938(12) 0.9327(8)
H29 H 0.4585 0.1888 0.9742
C36 C 0.3953(8) 0.2081(11) 0.8874(11)
H30 H 0.3740 0.2092 0.8976
C37 C 0.1343(7) -0.0268(10) 0.7603(10)
C38 C 0.1610(6) -0.0094(10) 0.8222(10)
H31 H 0.1949 -0.0009 0.8460
C39 C 0.1369(8) -0.0046(11) 0.8480(8)
H32 H 0.1547 0.0064 0.8893
C40 C 0.0861(8) -0.0164(12) 0.8120(11)
H33 H 0.0698 -0.0126 0.8291
C41 C 0.0597(6) -0.0339(11) 0.7507(10)
H34 H 0.0262 -0.0435 0.7274
C42 C 0.0833(8) -0.0371(10) 0.7241(8)
H35 H 0.0649 -0.0461 0.6820
C43 C 0.3599(5) -0.0599(13) 0.9080(11)
C44 C 0.3877(9) -0.0872(12) 0.8955(9)
H36 H 0.3717 -0.1043 0.8573
C45 C 0.4398(8) -0.0889(13) 0.9409(13)
H37 H 0.4594 -0.1001 0.9302
C46 C 0.4623(6) -0.0736(16) 1.0023(12)
H38 H 0.4971 -0.0728 1.0324
C47 C 0.4322(10) -0.0596(15) 1.0185(9)
H39 H 0.4460 -0.0564 1.0604
C48 C 0.3808(9) -0.0502(14) 0.9704(14)
H40 H 0.3609 -0.0378 0.9801
C49 C 0.1945(7) -0.0492(11) 0.6030(5)
C50 C 0.1498(9) -0.0219(10) 0.5759(9)
H41 H 0.1425 -0.0087 0.6010
C51 C 0.1163(7) -0.0144(11) 0.5112(10)
H42 H 0.0863 0.0034 0.4930
C52 C 0.1276(8) -0.0335(11) 0.4737(6)
H43 H 0.1045 -0.0298 0.4303
C53 C 0.1734(9) -0.0580(12) 0.5014(10)
H44 H 0.1823 -0.0683 0.4769
C54 C 0.2062(7) -0.0672(11) 0.5662(10)
H45 H 0.2359 -0.0854 0.5844
O1 O 0.3341(6) 0.0426(8) 0.7887(9)
C55 C 0.3812(9) 0.0603(14) 0.8480(11)
H46 H 0.3844 0.0463 0.8833
H47 H 0.3820 0.0982 0.8504
C56 C 0.4224(6) 0.0409(14) 0.8491(12)
H48 H 0.4484 0.0673 0.8663
H49 H 0.4371 0.0095 0.8746
C57 C 0.3993(9) 0.0295(14) 0.7833(14)
H50 H 0.4166 0.0009 0.7808
H51 H 0.4005 0.0601 0.7632
C58 C 0.3468(8) 0.0151(12) 0.7533(11)
H52 H 0.3246 0.0258 0.7096
H53 H 0.3438 -0.0225 0.7554
O2 O 0.1297(5) 0.2098(7) 0.6738(8)
C59 C 0.0972(9) 0.2083(12) 0.6050(9)
H54 H 0.1133 0.2259 0.5904
H55 H 0.0903 0.1724 0.5902
C60 C 0.0507(8) 0.2353(14) 0.5819(9)
H56 H 0.0219 0.2167 0.5462
H57 H 0.0507 0.2707 0.5688
C61 C 0.0488(7) 0.2364(14) 0.6340(13)
H58 H 0.0364 0.2700 0.6357
H59 H 0.0266 0.2091 0.6287
C62 C 0.1002(9) 0.2276(12) 0.6918(9)
H60 H 0.1141 0.2598 0.7157
H61 H 0.1004 0.2014 0.7176
O3 O 0.3086(6) 0.3566(7) 0.6883(8)
C63 C 0.3568(7) 0.3335(11) 0.7116(8)
H62 H 0.3670 0.3066 0.7425
H63 H 0.3827 0.3601 0.7306
C64 C 0.3479(9) 0.3108(11) 0.6557(11)
H64 H 0.3781 0.3131 0.6595
H65 H 0.3384 0.2742 0.6508
C65 C 0.3072(10) 0.3415(12) 0.6017(9)
H66 H 0.2840 0.3187 0.5663
H67 H 0.3206 0.3667 0.5892
C66 C 0.2813(8) 0.3685(11) 0.6215(9)
H68 H 0.2468 0.3565 0.5968
H69 H 0.2810 0.4060 0.6156
O4 O 0.3612(5) 0.3496(7) 0.8592(7)
C67 C 0.4101(8) 0.3584(11) 0.8738(9)
H70 H 0.4215 0.3268 0.8665
H71 H 0.4077 0.3864 0.8481
C68 C 0.4446(7) 0.3729(12) 0.9405(10)
H72 H 0.4461 0.4107 0.9452
H73 H 0.4782 0.3600 0.9601
C69 C 0.4243(8) 0.3484(12) 0.9693(7)
H74 H 0.4410 0.3154 0.9888
H75 H 0.4292 0.3713 1.0011
C70 C 0.3708(7) 0.3400(11) 0.9182(9)
H76 H 0.3615 0.3044 0.9194
H77 H 0.3510 0.3638 0.9226
Se7G Se 0.33460(10) 0.46437(11) 0.77656(14)
Se8G Se 0.21042(11) 0.44482(11) 0.65017(15)
Se9G Se 0.25750(11) 0.44394(11) 0.80918(15)
Nd3G Nd 0.21790(6) -0.13953(6) 0.74662(8)
O5 O 0.5467(17) 0.3190(17) 0.942(2)
C71 C 0.5176(19) 0.332(3) 0.8748(18)
H78 H 0.5125 0.3003 0.8513
H79 H 0.4850 0.3455 0.8582
C72 C 0.546(2) 0.370(3) 0.8691(17)
H80 H 0.5258 0.4020 0.8493
H81 H 0.5540 0.3568 0.8436
C73 C 0.592(2) 0.382(2) 0.932(2)
H82 H 0.5964 0.4200 0.9385
H83 H 0.6206 0.3673 0.9390
C74 C 0.5856(14) 0.3596(16) 0.9766(14)
H84 H 0.5754 0.3862 0.9918
H85 H 0.6170 0.3443 1.0123
O6 O -0.0449(14) 0.3743(16) 0.5458(14)
C75 C -0.0797(14) 0.3361(16) 0.5400(14)
H86 H -0.1142 0.3462 0.5063
H87 H -0.0740 0.3016 0.5306
C76 C -0.070(3) 0.335(3) 0.600(2)
H88 H -0.1013 0.3421 0.5933
H89 H -0.0579 0.3012 0.6196
C77 C -0.033(3) 0.376(3) 0.640(2)
H90 H -0.0028 0.3598 0.6768
H91 H -0.0464 0.3994 0.6547
C78 C -0.023(3) 0.404(2) 0.603(2)
H92 H 0.0130 0.4076 0.6270
H93 H -0.0375 0.4389 0.5932
O7 O 0.130(2) 0.206(2) 0.952(2)
C79 C 0.0793(19) 0.191(3) 0.899(4)
H94 H 0.0575 0.2214 0.8815
H95 H 0.0661 0.1657 0.9115
C80 C 0.081(2) 0.168(3) 0.851(3)
H96 H 0.0730 0.1309 0.8463
H97 H 0.0576 0.1852 0.8113
C81 C 0.132(3) 0.175(4) 0.873(3)
H98 H 0.1320 0.1958 0.8433
H99 H 0.1470 0.1408 0.8767
C82 C 0.1619(18) 0.201(3) 0.934(3)
H100 H 0.1728 0.2347 0.9314
H101 H 0.1914 0.1799 0.9650
O8 O 0.5000 0.151(2) 0.7500
C83 C 0.5441(3) 0.184(2) 0.788(3)
H102 H 0.5675 0.1762 0.7805
H103 H 0.5610 0.1784 0.8325
C84 C 0.5275(2) 0.239(2) 0.771(3)
H104 H 0.5399 0.2541 0.7513
H105 H 0.5401 0.2587 0.8089
C84E C 0.4725(2) 0.239(2) 0.729(3)
C83E C 0.4559(3) 0.184(2) 0.712(3)
H102E H 0.4325 0.1762 0.7195
H103E H 0.4390 0.1784 0.6675
H104E H 0.4601 0.2541 0.7487
H105E H 0.4599 0.2587 0.6911
O9 O -0.069(3) 0.509(3) 0.678(3)
C85 C -0.118(3) 0.500(4) 0.617(4)
H106 H -0.1441 0.5155 0.6157
H107 H -0.1242 0.4631 0.6080
C86 C -0.117(3) 0.525(5) 0.569(3)
H108 H -0.1453 0.5486 0.5433
H109 H -0.1185 0.4990 0.5423
C87 C -0.070(4) 0.555(4) 0.602(5)
H111 H -0.0766 0.5922 0.5976
C88 C -0.038(3) 0.540(4) 0.669(4)
H112 H -0.0097 0.5200 0.6801
H113 H -0.0262 0.5712 0.6947
H110? H -0.0529 0.5465 0.5852
loop_
_geom_bond_atom_site_label_1
_geom_bond_atom_site_label_2
_geom_bond_site_symmetry_1
_geom_bond_site_symmetry_2
Nd1 Se1 1_555 1_555
Nd2 Se1 1_555 1_555
Nd3 Se4 1_555 1_555
Se1 C1 1_555 1_555
Se2 Nd1 1_555 1_555
Se3 Nd1 1_555 1_555
Se4 Nd2 1_555 1_555
Se5 Nd2 1_555 1_555
Se6 Nd2 1_555 1_555
Se7 Nd1 1_555 1_555
Se8 Nd1 1_555 1_555
Se9 Nd1 1_555 1_555
C1 C2 1_555 1_555
C2 H1 1_555 1_555
C3 C2 1_555 1_555
H2 C3 1_555 1_555
C4 C3 1_555 1_555
H3 C4 1_555 1_555
C5 C4 1_555 1_555
H4 C5 1_555 1_555
C6 C1 1_555 1_555
H5 C6 1_555 1_555
C7 Se2 1_555 1_555
C8 C7 1_555 1_555
H6 C8 1_555 1_555
C9 C8 1_555 1_555
H7 C9 1_555 1_555
C10 C9 1_555 1_555
H8 C10 1_555 1_555
C11 C10 1_555 1_555
H9 C11 1_555 1_555
C12 C7 1_555 1_555
H10 C12 1_555 1_555
C13 Se3 1_555 1_555
C14 C13 1_555 1_555
H11 C14 1_555 1_555
C15 C14 1_555 1_555
H12 C15 1_555 1_555
C16 C15 1_555 1_555
H13 C16 1_555 1_555
C17 C16 1_555 1_555
H14 C17 1_555 1_555
C18 C13 1_555 1_555
H15 C18 1_555 1_555
C19 Se4 1_555 1_555
C20 C19 1_555 1_555
H16 C20 1_555 1_555
C21 C20 1_555 1_555
H17 C21 1_555 1_555
C22 C21 1_555 1_555
H18 C22 1_555 1_555
C23 C22 1_555 1_555
H19 C23 1_555 1_555
C24 C19 1_555 1_555
H20 C24 1_555 1_555
C25 Se5 1_555 1_555
C26 C25 1_555 1_555
H21 C26 1_555 1_555
C27 C26 1_555 1_555
H22 C27 1_555 1_555
C28 C27 1_555 1_555
H23 C28 1_555 1_555
C29 C28 1_555 1_555
H24 C29 1_555 1_555
C30 C25 1_555 1_555
H25 C30 1_555 1_555
C31 Se6 1_555 1_555
C32 C31 1_555 1_555
H26 C32 1_555 1_555
C33 C32 1_555 1_555
H27 C33 1_555 1_555
C34 C33 1_555 1_555
H28 C34 1_555 1_555
C35 C34 1_555 1_555
H29 C35 1_555 1_555
C36 C31 1_555 1_555
H30 C36 1_555 1_555
C37 Se7 1_555 1_555
C38 C37 1_555 1_555
H31 C38 1_555 1_555
C39 C38 1_555 1_555
H32 C39 1_555 1_555
C40 C39 1_555 1_555
H33 C40 1_555 1_555
C41 C40 1_555 1_555
H34 C41 1_555 1_555
C42 C37 1_555 1_555
H35 C42 1_555 1_555
C43 Se8 1_555 1_555
C44 C43 1_555 1_555
H36 C44 1_555 1_555
C45 C44 1_555 1_555
H37 C45 1_555 1_555
C46 C45 1_555 1_555
H38 C46 1_555 1_555
C47 C46 1_555 1_555
H39 C47 1_555 1_555
C48 C43 1_555 1_555
H40 C48 1_555 1_555
C49 Se9 1_555 1_555
C50 C49 1_555 1_555
H41 C50 1_555 1_555
C51 C50 1_555 1_555
H42 C51 1_555 1_555
C52 C51 1_555 1_555
H43 C52 1_555 1_555
C53 C52 1_555 1_555
H44 C53 1_555 1_555
C54 C49 1_555 1_555
H45 C54 1_555 1_555
O1 Nd1 1_555 1_555
C55 O1 1_555 1_555
H46 C55 1_555 1_555
H47 C55 1_555 1_555
C56 C55 1_555 1_555
H48 C56 1_555 1_555
H49 C56 1_555 1_555
C57 C56 1_555 1_555
H50 C57 1_555 1_555
H51 C57 1_555 1_555
C58 O1 1_555 1_555
H52 C58 1_555 1_555
H53 C58 1_555 1_555
O2 Nd2 1_555 1_555
C59 O2 1_555 1_555
H54 C59 1_555 1_555
H55 C59 1_555 1_555
C60 C59 1_555 1_555
H56 C60 1_555 1_555
H57 C60 1_555 1_555
C61 C60 1_555 1_555
H58 C61 1_555 1_555
H59 C61 1_555 1_555
C62 O2 1_555 1_555
H60 C62 1_555 1_555
H61 C62 1_555 1_555
O3 Nd3 1_555 1_555
C63 O3 1_555 1_555
H62 C63 1_555 1_555
H63 C63 1_555 1_555
C64 C63 1_555 1_555
H64 C64 1_555 1_555
H65 C64 1_555 1_555
C65 C64 1_555 1_555
H66 C65 1_555 1_555
H67 C65 1_555 1_555
C66 O3 1_555 1_555
H68 C66 1_555 1_555
H69 C66 1_555 1_555
O4 Nd3 1_555 1_555
C67 O4 1_555 1_555
H70 C67 1_555 1_555
H71 C67 1_555 1_555
C68 C67 1_555 1_555
H72 C68 1_555 1_555
H73 C68 1_555 1_555
C69 C68 1_555 1_555
H74 C69 1_555 1_555
H75 C69 1_555 1_555
C70 O4 1_555 1_555
H76 C70 1_555 1_555
H77 C70 1_555 1_555
O5 C71 1_555 1_555
C71 H78 1_555 1_555
H79 C71 1_555 1_555
C72 C71 1_555 1_555
H80 C72 1_555 1_555
H81 C72 1_555 1_555
C73 C72 1_555 1_555
H82 C73 1_555 1_555
H83 C73 1_555 1_555
C74 O5 1_555 1_555
H84 C74 1_555 1_555
H85 C74 1_555 1_555
O6 C75 1_555 1_555
C75 H86 1_555 1_555
H87 C75 1_555 1_555
C76 C75 1_555 1_555
H88 C76 1_555 1_555
H89 C76 1_555 1_555
C77 C76 1_555 1_555
H90 C77 1_555 1_555
H91 C77 1_555 1_555
C78 O6 1_555 1_555
H92 C78 1_555 1_555
H93 C78 1_555 1_555
O7 C79 1_555 1_555
C79 H94 1_555 1_555
H95 C79 1_555 1_555
C80 C79 1_555 1_555
H96 C80 1_555 1_555
H97 C80 1_555 1_555
C81 C80 1_555 1_555
H98 C81 1_555 1_555
H99 C81 1_555 1_555
C82 O7 1_555 1_555
H100 C82 1_555 1_555
H101 C82 1_555 1_555
O8 C83 1_555 1_555
C83 H102 1_555 1_555
H103 C83 1_555 1_555
C84 C83 1_555 1_555
H104 C84 1_555 1_555
H105 C84 1_555 1_555
O9 C85 1_555 1_555
C85 H106 1_555 1_555
H107 C85 1_555 1_555
C86 C85 1_555 1_555
H108 C86 1_555 1_555
H109 C86 1_555 1_555
C87 C86 1_555 1_555
H111 C87 1_555 1_555
C88 O9 1_555 1_555
H112 C88 1_555 1_555
H113 C88 1_555 1_555
Se7G Nd3 1_555 1_555
Se8G Nd3 1_555 1_555
Se9G Nd3 1_555 1_555
Nd3G Se7 1_555 1_555
C84E C84 1_555 1_555
C83E O8 1_555 1_555
H102E C83E 1_555 1_555
H103E C83E 1_555 1_555
H104E C84E 1_555 1_555
H105E C84E 1_555 1_555
Nd2 Se2 1_555 1_555
Nd2 Se3 1_555 1_555
Nd3 Se5 1_555 1_555
Nd3 Se6 1_555 1_555
Se8 Nd3G 1_555 1_555
Se9 Nd3G 1_555 1_555
C5 C6 1_555 1_555
C11 C12 1_555 1_555
C17 C18 1_555 1_555
C23 C24 1_555 1_555
C29 C30 1_555 1_555
C35 C36 1_555 1_555
C41 C42 1_555 1_555
C47 C48 1_555 1_555
C53 C54 1_555 1_555
C57 C58 1_555 1_555
C61 C62 1_555 1_555
C65 C66 1_555 1_555
C69 C70 1_555 1_555
C73 C74 1_555 1_555
C77 C78 1_555 1_555
C81 C82 1_555 1_555
C87 C88 1_555 1_555
C84E C83E 1_555 1_555

#END
