
#######################################################################
#
#                 Cambridge Crystallographic Data Centre
#                                CCDC 
#
#######################################################################
#
# If this CIF has been generated from an entry in the Cambridge 
# Structural Database, then it will include bibliographic, chemical, 
# crystal, experimental, refinement or atomic coordinate data resulting 
# from the CCDC's data processing and validation procedures.
#
#######################################################################

data_NUFJUV
_symmetry_cell_setting           orthorhombic
_symmetry_space_group_name_H-M   'P b c n'
_symmetry_Int_Tables_number      60
_space_group_name_Hall           '-P 2n 2ab'
loop_
_symmetry_equiv_pos_site_id
_symmetry_equiv_pos_as_xyz
1 x,y,z
2 1/2-x,1/2-y,1/2+z
3 -x,y,1/2-z
4 1/2+x,1/2-y,-z
5 -x,-y,-z
6 1/2+x,1/2+y,1/2-z
7 x,-y,1/2+z
8 1/2-x,1/2+y,z
_cell_length_a                   8.4769(17)
_cell_length_b                   9.5314(19)
_cell_length_c                   15.479(3)
_cell_angle_alpha                90
_cell_angle_beta                 90
_cell_angle_gamma                90
_cell_volume                     1250.65
loop_
_atom_site_label
_atom_site_type_symbol
_atom_site_fract_x
_atom_site_fract_y
_atom_site_fract_z
Co1 Co 0.0000 0.79101(3) 0.2500
O1 O 0.08097(16) 0.78512(14) 0.37540(9)
P1 P 0.20133(5) 0.79772(4) 0.44518(3)
O2 O 0.30486(16) 0.93278(14) 0.43768(10)
H1 H 0.2488 1.0024 0.4430
N1 N 0.16712(18) 0.94722(15) 0.21337(10)
O3 O 0.11784(17) 0.80600(18) 0.53538(9)
H2 H 0.0228 0.8176 0.5284
N2 N 0.2737(2) 0.92807(18) 0.14977(11)
H3 H 0.2755 0.8578 0.1149
O4 O 0.31838(17) 0.67797(14) 0.44947(10)
C1 C 0.3751(2) 1.03358(18) 0.14904(12)
H4 H 0.4587 1.0429 0.1106
C2 C 0.2119(2) 1.0676(2) 0.24900(11)
H5 H 0.1598 1.1087 0.2954
N3 N 0.34000(17) 1.12429(15) 0.21139(10)
O1B O -0.08097(16) 0.78512(14) 0.12460(9)
P1B P -0.20133(5) 0.79772(4) 0.05482(3)
O2B O -0.30486(16) 0.93278(14) 0.06232(10)
H1B H -0.2488 1.0024 0.0570
N1B N -0.16712(18) 0.94722(15) 0.28663(10)
O3B O -0.11784(17) 0.80600(18) -0.03538(9)
H2B H -0.0228 0.8176 -0.0284
N2B N -0.2737(2) 0.92807(18) 0.35023(11)
H3B H -0.2755 0.8578 0.3851
O4B O -0.31838(17) 0.67797(14) 0.05053(10)
C1B C -0.3751(2) 1.03358(18) 0.35096(12)
H4B H -0.4587 1.0429 0.3894
C2B C -0.2119(2) 1.0676(2) 0.25100(11)
H5B H -0.1598 1.1087 0.2046
N3B N -0.34000(17) 1.12429(15) 0.28861(10)
Co1E Co -0.5000 1.29101(3) 0.2500
Co1E_2 Co 0.5000 1.29101(3) 0.2500
N3E N -0.16000(17) 0.62429(15) 0.28861(10)
N3G N 0.16000(17) 0.62429(15) 0.21139(10)
loop_
_geom_bond_atom_site_label_1
_geom_bond_atom_site_label_2
_geom_bond_site_symmetry_1
_geom_bond_site_symmetry_2
Co1 O1 1_555 1_555
O1 P1 1_555 1_555
P1 O2 1_555 1_555
O2 H1 1_555 1_555
N1 Co1 1_555 1_555
O3 P1 1_555 1_555
H2 O3 1_555 1_555
N2 N1 1_555 1_555
H3 N2 1_555 1_555
O4 P1 1_555 1_555
C1 N2 1_555 1_555
H4 C1 1_555 1_555
C2 N1 1_555 1_555
H5 C2 1_555 1_555
N3 C1 1_555 1_555
O1B Co1 1_555 1_555
P1B O1B 1_555 1_555
O2B P1B 1_555 1_555
H1B O2B 1_555 1_555
N1B Co1 1_555 1_555
O3B P1B 1_555 1_555
H2B O3B 1_555 1_555
N2B N1B 1_555 1_555
H3B N2B 1_555 1_555
O4B P1B 1_555 1_555
C1B N2B 1_555 1_555
H4B C1B 1_555 1_555
C2B N1B 1_555 1_555
H5B C2B 1_555 1_555
N3B C1B 1_555 1_555
Co1E N3B 1_555 1_555
Co1E_2 N3 1_555 1_555
N3E Co1 1_555 1_555
N3G Co1 1_555 1_555
C2 N3 1_555 1_555
C2B N3B 1_555 1_555

#END
