
#######################################################################
#
#                 Cambridge Crystallographic Data Centre
#                                CCDC 
#
#######################################################################
#
# If this CIF has been generated from an entry in the Cambridge 
# Structural Database, then it will include bibliographic, chemical, 
# crystal, experimental, refinement or atomic coordinate data resulting 
# from the CCDC's data processing and validation procedures.
#
#######################################################################

data_NUFKAC
_symmetry_cell_setting           orthorhombic
_symmetry_space_group_name_H-M   'P b c n'
_symmetry_Int_Tables_number      60
_space_group_name_Hall           '-P 2n 2ab'
loop_
_symmetry_equiv_pos_site_id
_symmetry_equiv_pos_as_xyz
1 x,y,z
2 1/2-x,1/2-y,1/2+z
3 -x,y,1/2-z
4 1/2+x,1/2-y,-z
5 -x,-y,-z
6 1/2+x,1/2+y,1/2-z
7 x,-y,1/2+z
8 1/2-x,1/2+y,z
_cell_length_a                   8.7085(17)
_cell_length_b                   9.6808(19)
_cell_length_c                   15.573(3)
_cell_angle_alpha                90
_cell_angle_beta                 90
_cell_angle_gamma                90
_cell_volume                     1312.89
loop_
_atom_site_label
_atom_site_type_symbol
_atom_site_fract_x
_atom_site_fract_y
_atom_site_fract_z
Mn1 Mn 0.0000 0.71273(4) 0.2500
O1 O 0.30055(17) 0.57023(15) 0.44202(10)
H1 H 0.2432 0.5009 0.4471
P1 P 0.20170(6) 0.70508(5) 0.44820(3)
O2 O 0.09021(18) 0.71888(16) 0.37641(10)
O3 O 0.11335(19) 0.69635(19) 0.53594(10)
H2 H 0.0193 0.6842 0.5265
O4 O 0.31661(18) 0.82170(16) 0.45609(12)
N1 N 0.1667(2) 0.55002(19) 0.20846(11)
N2 N 0.2690(2) 0.5689(2) 0.14390(13)
H3 H 0.2681 0.6385 0.1076
C1 C 0.2148(2) 0.4345(2) 0.24484(13)
H4 H 0.1660 0.3940 0.2932
C2 C 0.3702(3) 0.4675(2) 0.14360(14)
H5 H 0.4526 0.4586 0.1040
N3 N 0.3397(2) 0.37985(18) 0.20684(11)
O1B O -0.30055(17) 0.57023(15) 0.05798(10)
H1B H -0.2432 0.5009 0.0529
P1B P -0.20170(6) 0.70508(5) 0.05180(3)
O2B O -0.09021(18) 0.71888(16) 0.12359(10)
O3B O -0.11335(19) 0.69635(19) -0.03594(10)
H2B H -0.0193 0.6842 -0.0265
O4B O -0.31661(18) 0.82170(16) 0.04391(12)
N1B N -0.1667(2) 0.55002(19) 0.29154(11)
N2B N -0.2690(2) 0.5689(2) 0.35610(13)
H3B H -0.2681 0.6385 0.3924
C1B C -0.2148(2) 0.4345(2) 0.25516(13)
H4B H -0.1660 0.3940 0.2068
C2B C -0.3702(3) 0.4675(2) 0.35640(14)
H5B H -0.4526 0.4586 0.3960
N3B N -0.3397(2) 0.37985(18) 0.29316(11)
Mn1E Mn -0.5000 0.21273(4) 0.2500
Mn1E_2 Mn 0.5000 0.21273(4) 0.2500
N3E N -0.1603(2) 0.87985(18) 0.29316(11)
N3G N 0.1603(2) 0.87985(18) 0.20684(11)
loop_
_geom_bond_atom_site_label_1
_geom_bond_atom_site_label_2
_geom_bond_site_symmetry_1
_geom_bond_site_symmetry_2
Mn1 O2 1_555 1_555
O1 H1 1_555 1_555
P1 O1 1_555 1_555
O2 P1 1_555 1_555
O3 P1 1_555 1_555
H2 O3 1_555 1_555
O4 P1 1_555 1_555
N1 Mn1 1_555 1_555
N2 N1 1_555 1_555
H3 N2 1_555 1_555
C1 N1 1_555 1_555
H4 C1 1_555 1_555
C2 N2 1_555 1_555
H5 C2 1_555 1_555
N3 C1 1_555 1_555
O1B H1B 1_555 1_555
P1B O1B 1_555 1_555
O2B Mn1 1_555 1_555
O3B P1B 1_555 1_555
H2B O3B 1_555 1_555
O4B P1B 1_555 1_555
N1B Mn1 1_555 1_555
N2B N1B 1_555 1_555
H3B N2B 1_555 1_555
C1B N1B 1_555 1_555
H4B C1B 1_555 1_555
C2B N2B 1_555 1_555
H5B C2B 1_555 1_555
N3B C1B 1_555 1_555
Mn1E N3B 1_555 1_555
Mn1E_2 N3 1_555 1_555
N3E Mn1 1_555 1_555
N3G Mn1 1_555 1_555
C2 N3 1_555 1_555
P1B O2B 1_555 1_555
C2B N3B 1_555 1_555

#END
