
#######################################################################
#
#                 Cambridge Crystallographic Data Centre
#                                CCDC 
#
#######################################################################
#
# If this CIF has been generated from an entry in the Cambridge 
# Structural Database, then it will include bibliographic, chemical, 
# crystal, experimental, refinement or atomic coordinate data resulting 
# from the CCDC's data processing and validation procedures.
#
#######################################################################

data_NUFMEI
_symmetry_cell_setting           monoclinic
_symmetry_space_group_name_H-M   'P 21/c'
_symmetry_Int_Tables_number      14
_space_group_name_Hall           '-P 2ybc'
loop_
_symmetry_equiv_pos_site_id
_symmetry_equiv_pos_as_xyz
1 x,y,z
2 -x,1/2+y,1/2-z
3 -x,-y,-z
4 x,1/2-y,1/2+z
_cell_length_a                   9.7198(14)
_cell_length_b                   13.824(2)
_cell_length_c                   17.1767(18)
_cell_angle_alpha                90
_cell_angle_beta                 107.910(6)
_cell_angle_gamma                90
_cell_volume                     2196.13
loop_
_atom_site_label
_atom_site_type_symbol
_atom_site_fract_x
_atom_site_fract_y
_atom_site_fract_z
Cd1 Cd 0.33922(2) 0.673801(15) 0.809771(14)
Cd2 Cd 0.5000 0.5000 1.0000
O1 O 0.5694(3) 0.66562(18) 0.79312(17)
O2 O 0.5213(2) 0.55989(17) 0.87522(14)
O3 O 0.7831(3) 1.03943(17) 0.75854(15)
O4 O 0.9444(3) 1.05905(17) 0.88172(16)
H1 H 0.9461 1.1149 0.8660
O5 O 0.7328(2) 0.24668(15) 0.81380(14)
O6 O 0.9719(2) 0.23411(15) 0.86924(15)
O7 O 1.1814(2) 0.65693(15) 0.87872(15)
O8 O 1.2593(2) 0.52147(16) 0.95038(15)
N1 N 0.3774(3) 0.83318(18) 0.85722(16)
N2 N 0.4658(3) 1.33305(18) 0.96522(16)
C1 C 0.6060(3) 0.5951(2) 0.83938(19)
C2 C 0.8639(3) 1.0074(2) 0.82290(19)
C3 C 0.8748(3) 0.9006(2) 0.83671(19)
C4 C 0.8319(4) 0.8396(2) 0.7698(2)
H2 H 0.7976 0.8653 0.7174
C5 C 0.8397(4) 0.7405(2) 0.7806(2)
H3 H 0.8137 0.7001 0.7351
C6 C 0.9278(3) 0.7617(2) 0.92558(19)
H4 H 0.9586 0.7357 0.9780
C7 C 0.9243(3) 0.8615(2) 0.91522(19)
H5 H 0.9549 0.9020 0.9605
C8 C 0.8554(3) 0.2825(2) 0.84573(18)
C9 C 0.8664(3) 0.3899(2) 0.85898(19)
C10 C 0.2779(4) 0.8809(3) 0.8807(3)
H6 H 0.1969 0.8472 0.8838
C11 C 0.2889(4) 0.9781(2) 0.9009(3)
H7 H 0.2166 1.0080 0.9172
C12 C 0.4081(3) 1.0314(2) 0.89677(19)
C13 C 0.5097(4) 0.9812(2) 0.8712(2)
H8 H 0.5912 1.0132 0.8668
C14 C 0.4914(4) 0.8838(2) 0.8519(2)
H9 H 0.5613 0.8523 0.8346
C15 C 0.4272(3) 1.1358(2) 0.92073(19)
C16 C 0.3238(4) 1.1884(2) 0.9437(2)
H10 H 0.2387 1.1585 0.9448
C17 C 0.5510(4) 1.1862(2) 0.9222(2)
H11 H 0.6244 1.1549 0.9080
C18 C 1.1623(3) 0.5758(2) 0.90716(19)
C19 C 1.0092(3) 0.5361(2) 0.88606(18)
C20 C 0.8828(3) 0.5929(2) 0.86636(18)
C21 C 0.7489(3) 0.5448(2) 0.85144(18)
C22 C 0.7414(3) 0.4443(2) 0.84607(18)
H12 H 0.6522 0.4135 0.8338
C23 C 0.9986(3) 0.4360(2) 0.88241(19)
H13 H 1.0827 0.3991 0.8961
C24 C 0.8857(3) 0.7006(2) 0.85831(19)
C25 C 0.3470(4) 1.2844(2) 0.9649(2)
H14 H 0.2756 1.3174 0.9798
C26 C 0.5667(4) 1.2823(2) 0.9447(2)
H15 H 0.6520 1.3135 0.9456
Cd1B Cd 0.66078(2) 0.326199(15) 1.190229(14)
O1B O 0.4306(3) 0.33438(18) 1.20688(17)
O2B O 0.4787(2) 0.44011(17) 1.12478(14)
O3B O 0.2169(3) -0.03943(17) 1.24146(15)
O4B O 0.0556(3) -0.05905(17) 1.11828(16)
H1B H 0.0539 -0.1149 1.1340
O5B O 0.2672(2) 0.75332(15) 1.18620(14)
O6B O 0.0281(2) 0.76589(15) 1.13076(15)
O7B O -0.1814(2) 0.34307(15) 1.12128(15)
O8B O -0.2593(2) 0.47853(16) 1.04962(15)
N1B N 0.6226(3) 0.16682(18) 1.14278(16)
N2B N 0.5342(3) -0.33305(18) 1.03478(16)
C1B C 0.3940(3) 0.4049(2) 1.16062(19)
C2B C 0.1361(3) -0.0074(2) 1.17710(19)
C3B C 0.1252(3) 0.0994(2) 1.16329(19)
C4B C 0.1681(4) 0.1604(2) 1.2302(2)
H2B H 0.2024 0.1347 1.2826
C5B C 0.1603(4) 0.2595(2) 1.2194(2)
H3B H 0.1863 0.2999 1.2649
C6B C 0.0722(3) 0.2383(2) 1.07442(19)
H4B H 0.0414 0.2643 1.0220
C7B C 0.0757(3) 0.1385(2) 1.08478(19)
H5B H 0.0451 0.0980 1.0395
C8B C 0.1446(3) 0.7175(2) 1.15427(18)
C9B C 0.1336(3) 0.6101(2) 1.14102(19)
C10B C 0.7221(4) 0.1191(3) 1.1193(3)
H6B H 0.8031 0.1528 1.1162
C11B C 0.7111(4) 0.0219(2) 1.0991(3)
H7B H 0.7834 -0.0080 1.0828
C12B C 0.5919(3) -0.0314(2) 1.10323(19)
C13B C 0.4903(4) 0.0188(2) 1.1288(2)
H8B H 0.4088 -0.0132 1.1332
C14B C 0.5086(4) 0.1162(2) 1.1481(2)
H9B H 0.4387 0.1477 1.1654
C15B C 0.5728(3) -0.1358(2) 1.07927(19)
C16B C 0.6762(4) -0.1884(2) 1.0563(2)
H10B H 0.7613 -0.1585 1.0552
C17B C 0.4490(4) -0.1862(2) 1.0778(2)
H11B H 0.3756 -0.1549 1.0920
C18B C -0.1623(3) 0.4242(2) 1.09284(19)
C19B C -0.0092(3) 0.4639(2) 1.11394(18)
C20B C 0.1172(3) 0.4071(2) 1.13364(18)
C21B C 0.2511(3) 0.4552(2) 1.14856(18)
C22B C 0.2586(3) 0.5557(2) 1.15393(18)
H12B H 0.3478 0.5865 1.1662
C23B C 0.0014(3) 0.5640(2) 1.11759(19)
H13B H -0.0827 0.6009 1.1039
C24B C 0.1143(3) 0.2994(2) 1.14169(19)
C25B C 0.6530(4) -0.2844(2) 1.0351(2)
H14B H 0.7244 -0.3174 1.0202
C26B C 0.4333(4) -0.2823(2) 1.0553(2)
H15B H 0.3480 -0.3135 1.0544
Cd1_2 Cd 1.33922(2) 0.673801(15) 0.809771(14)
Cd1A Cd 0.66078(2) 0.173801(15) 0.690229(14)
Cd1A_2 Cd 0.66078(2) 1.173801(15) 0.690229(14)
Cd1B_2 Cd -0.33922(2) 0.326199(15) 1.190229(14)
Cd1C Cd 0.33922(2) -0.173801(15) 1.309771(14)
Cd1C_2 Cd 0.33922(2) 0.826199(15) 1.309771(14)
Cd2_2 Cd -0.5000 0.5000 1.0000
Cd2_3 Cd 0.5000 -0.5000 1.0000
Cd2_4 Cd 0.5000 1.5000 1.0000
Cd2_5 Cd 1.5000 0.5000 1.0000
O3A O 0.2169(3) 0.53943(17) 0.74146(15)
O3C O 0.7831(3) 0.46057(17) 1.25854(15)
O5A O 0.2672(2) 0.74668(15) 0.68620(14)
O5C O 0.7328(2) 0.25332(15) 1.31380(14)
O7_2 O 0.1814(2) 0.65693(15) 0.87872(15)
O7B_2 O 0.8186(2) 0.34307(15) 1.12128(15)
O8_2 O 0.2593(2) 0.52147(16) 0.95038(15)
O8B_2 O 0.7407(2) 0.47853(16) 1.04962(15)
N2_2 N 0.4658(3) 0.33305(18) 0.96522(16)
N2B_2 N 0.5342(3) 0.66695(18) 1.03478(16)
loop_
_geom_bond_atom_site_label_1
_geom_bond_atom_site_label_2
_geom_bond_site_symmetry_1
_geom_bond_site_symmetry_2
Cd1 O1 1_555 1_555
Cd2 O2 1_555 1_555
O1 C1 1_555 1_555
O2 Cd1 1_555 1_555
O3 C2 1_555 1_555
O4 H1 1_555 1_555
O5 C8 1_555 1_555
O6 C8 1_555 1_555
O7 C18 1_555 1_555
O8 C18 1_555 1_555
N1 Cd1 1_555 1_555
N2 C25 1_555 1_555
C1 O2 1_555 1_555
C2 O4 1_555 1_555
C3 C2 1_555 1_555
C4 C3 1_555 1_555
H2 C4 1_555 1_555
C5 C4 1_555 1_555
H3 C5 1_555 1_555
C6 H4 1_555 1_555
C7 C3 1_555 1_555
H5 C7 1_555 1_555
C8 C9 1_555 1_555
C9 C22 1_555 1_555
C10 N1 1_555 1_555
H6 C10 1_555 1_555
C11 C10 1_555 1_555
H7 C11 1_555 1_555
C12 C11 1_555 1_555
C13 C12 1_555 1_555
H8 C13 1_555 1_555
C14 N1 1_555 1_555
H9 C14 1_555 1_555
C15 C12 1_555 1_555
C16 C15 1_555 1_555
H10 C16 1_555 1_555
C17 C15 1_555 1_555
H11 C17 1_555 1_555
C18 C19 1_555 1_555
C19 C20 1_555 1_555
C20 C21 1_555 1_555
C21 C1 1_555 1_555
C22 C21 1_555 1_555
H12 C22 1_555 1_555
C23 C9 1_555 1_555
H13 C23 1_555 1_555
C24 C5 1_555 1_555
C25 C16 1_555 1_555
H14 C25 1_555 1_555
C26 N2 1_555 1_555
H15 C26 1_555 1_555
Cd1B O1B 1_555 1_555
O1B C1B 1_555 1_555
O2B Cd2 1_555 1_555
O3B C2B 1_555 1_555
O4B H1B 1_555 1_555
O5B C8B 1_555 1_555
O6B C8B 1_555 1_555
O7B C18B 1_555 1_555
O8B C18B 1_555 1_555
N1B Cd1B 1_555 1_555
N2B C25B 1_555 1_555
C1B O2B 1_555 1_555
C2B O4B 1_555 1_555
C3B C2B 1_555 1_555
C4B C3B 1_555 1_555
H2B C4B 1_555 1_555
C5B C4B 1_555 1_555
H3B C5B 1_555 1_555
C6B H4B 1_555 1_555
C7B C3B 1_555 1_555
H5B C7B 1_555 1_555
C8B C9B 1_555 1_555
C9B C22B 1_555 1_555
C10B N1B 1_555 1_555
H6B C10B 1_555 1_555
C11B C10B 1_555 1_555
H7B C11B 1_555 1_555
C12B C11B 1_555 1_555
C13B C12B 1_555 1_555
H8B C13B 1_555 1_555
C14B N1B 1_555 1_555
H9B C14B 1_555 1_555
C15B C12B 1_555 1_555
C16B C15B 1_555 1_555
H10B C16B 1_555 1_555
C17B C15B 1_555 1_555
H11B C17B 1_555 1_555
C18B C19B 1_555 1_555
C19B C20B 1_555 1_555
C20B C21B 1_555 1_555
C21B C1B 1_555 1_555
C22B C21B 1_555 1_555
H12B C22B 1_555 1_555
C23B C9B 1_555 1_555
H13B C23B 1_555 1_555
C24B C5B 1_555 1_555
C25B C16B 1_555 1_555
H14B C25B 1_555 1_555
C26B N2B 1_555 1_555
H15B C26B 1_555 1_555
Cd1_2 O7 1_555 1_555
Cd1A O5 1_555 1_555
Cd1A_2 O3 1_555 1_555
Cd1B_2 O7B 1_555 1_555
Cd1C O3B 1_555 1_555
Cd1C_2 O5B 1_555 1_555
Cd2_2 O8B 1_555 1_555
Cd2_3 N2B 1_555 1_555
Cd2_4 N2 1_555 1_555
Cd2_5 O8 1_555 1_555
O3A Cd1 1_555 1_555
O3C Cd1B 1_555 1_555
O5A Cd1 1_555 1_555
O5C Cd1B 1_555 1_555
O7_2 Cd1 1_555 1_555
O7B_2 Cd1B 1_555 1_555
O8_2 Cd2 1_555 1_555
O8B_2 Cd2 1_555 1_555
N2_2 Cd2 1_555 1_555
N2B_2 Cd2 1_555 1_555
C6 C7 1_555 1_555
C6 C24 1_555 1_555
C13 C14 1_555 1_555
C17 C26 1_555 1_555
C19 C23 1_555 1_555
C20 C24 1_555 1_555
Cd1B O2B 1_555 1_555
C6B C7B 1_555 1_555
C6B C24B 1_555 1_555
C13B C14B 1_555 1_555
C17B C26B 1_555 1_555
C19B C23B 1_555 1_555
C20B C24B 1_555 1_555

#END
