
#######################################################################
#
#                 Cambridge Crystallographic Data Centre
#                                CCDC 
#
#######################################################################
#
# If this CIF has been generated from an entry in the Cambridge 
# Structural Database, then it will include bibliographic, chemical, 
# crystal, experimental, refinement or atomic coordinate data resulting 
# from the CCDC's data processing and validation procedures.
#
#######################################################################

data_NUFPIN
_symmetry_cell_setting           monoclinic
_symmetry_space_group_name_H-M   'C c'
_symmetry_Int_Tables_number      9
_space_group_name_Hall           'C -2yc'
loop_
_symmetry_equiv_pos_site_id
_symmetry_equiv_pos_as_xyz
1 x,y,z
2 x,-y,1/2+z
3 1/2+x,1/2+y,z
4 1/2+x,1/2-y,1/2+z
_cell_length_a                   23.792(4)
_cell_length_b                   15.651(6)
_cell_length_c                   9.119(5)
_cell_angle_alpha                90
_cell_angle_beta                 100.06(3)
_cell_angle_gamma                90
_cell_volume                     3343.42
loop_
_atom_site_label
_atom_site_type_symbol
_atom_site_fract_x
_atom_site_fract_y
_atom_site_fract_z
Ag1 Ag 0.1930 0.13725(4) -0.1650
P1 P 0.0993(1) 0.2017(2) -0.1568(3)
P2 P 0.2785(1) 0.2122(2) -0.0207(3)
N1 N 0.1938(3) -0.0034(4) -0.0818(8)
N2 N 0.1808(3) -0.0216(5) 0.0528(8)
N3 N 0.2031(3) -0.0971(5) 0.0954(8)
C1 C 0.0862(4) 0.2226(6) 0.0320(10)
C2 C 0.0660(5) 0.2998(8) 0.080(1)
C3 C 0.0593(5) 0.3114(8) 0.227(1)
C4 C 0.0736(5) 0.2454(9) 0.324(1)
C5 C 0.0929(4) 0.1690(8) 0.281(1)
C6 C 0.0997(4) 0.1569(7) 0.136(1)
C7 C 0.0395(4) 0.1362(6) -0.2329(9)
C8 C -0.0141(4) 0.1405(7) -0.191(1)
C9 C -0.0599(5) 0.0932(8) -0.261(1)
C10 C -0.0533(6) 0.0406(8) -0.375(2)
C11 C -0.0007(6) 0.0323(8) -0.417(2)
C12 C 0.0456(5) 0.0800(7) -0.347(1)
C13 C 0.0841(4) 0.3032(6) -0.2544(9)
C14 C 0.0295(5) 0.3317(6) -0.311(1)
C15 C 0.0197(5) 0.4055(8) -0.392(1)
C16 C 0.0641(8) 0.4533(8) -0.418(2)
C17 C 0.1181(7) 0.427(1) -0.370(2)
C18 C 0.1290(5) 0.3520(8) -0.284(1)
C19 C 0.3249(3) 0.1489(6) 0.1194(10)
C20 C 0.3555(4) 0.1835(7) 0.251(1)
C21 C 0.3909(5) 0.1323(10) 0.349(1)
C22 C 0.3948(5) 0.0464(9) 0.324(1)
C23 C 0.3646(6) 0.0108(8) 0.196(1)
C24 C 0.3294(5) 0.0631(7) 0.097(1)
C25 C 0.2648(4) 0.3050(6) 0.087(1)
C26 C 0.2273(4) 0.2927(7) 0.188(1)
C27 C 0.2166(5) 0.3596(9) 0.281(1)
C28 C 0.2413(5) 0.4381(8) 0.271(1)
C29 C 0.2777(5) 0.4515(7) 0.173(1)
C30 C 0.2892(5) 0.3850(6) 0.081(1)
C31 C 0.3280(4) 0.2539(6) -0.133(1)
C32 C 0.3061(5) 0.2852(8) -0.275(1)
C33 C 0.3419(7) 0.3148(9) -0.365(1)
C34 C 0.4003(7) 0.3150(9) -0.322(2)
C35 C 0.4225(6) 0.286(1) -0.180(2)
C36 C 0.3867(5) 0.2549(9) -0.093(1)
C37 C 0.2247(4) -0.0665(6) -0.126(1)
C38 C 0.2304(5) -0.1259(6) -0.013(1)
H1 H 0.0575 0.3460 0.0097
H2 H 0.0471 0.3660 0.2605
H3 H 0.0672 0.2511 0.4270
H4 H 0.1013 0.1228 0.3533
H5 H 0.1160 0.1025 0.1061
H6 H -0.0191 0.1796 -0.1112
H7 H -0.0975 0.0945 -0.2279
H8 H -0.0837 0.0076 -0.4304
H9 H 0.0061 -0.0082 -0.4989
H10 H 0.0829 0.0740 -0.3768
H11 H -0.0036 0.2979 -0.2904
H12 H -0.0190 0.4235 -0.4299
H13 H 0.0575 0.5066 -0.4683
H14 H 0.1489 0.4578 -0.4070
H15 H 0.1682 0.3354 -0.2435
H16 H 0.3521 0.2446 0.2733
H17 H 0.4141 0.1562 0.4380
H18 H 0.4196 0.0092 0.3976
H19 H 0.3682 -0.0516 0.1763
H20 H 0.3055 0.0364 0.0062
H21 H 0.2084 0.2369 0.1933
H22 H 0.1918 0.3475 0.3577
H23 H 0.2326 0.4855 0.3316
H24 H 0.2959 0.5088 0.1685
H25 H 0.3142 0.3946 0.0079
H26 H 0.2648 0.2852 -0.3106
H27 H 0.3242 0.3417 -0.4606
H28 H 0.4230 0.3332 -0.3912
H29 H 0.4646 0.2848 -0.1424
H30 H 0.4029 0.2350 0.0096
H31 H 0.243(4) -0.180(5) -0.030(10)
N3A N 0.2031(3) 0.0971(5) -0.4046(8)
Ag1A Ag 0.1930 -0.13725(4) 0.3350
loop_
_geom_bond_atom_site_label_1
_geom_bond_atom_site_label_2
_geom_bond_site_symmetry_1
_geom_bond_site_symmetry_2
Ag1 P1 1_555 1_555
P1 C1 1_555 1_555
P2 Ag1 1_555 1_555
N1 Ag1 1_555 1_555
N2 N1 1_555 1_555
N3 N2 1_555 1_555
C1 C2 1_555 1_555
C2 C3 1_555 1_555
C3 C4 1_555 1_555
C4 C5 1_555 1_555
C5 C6 1_555 1_555
C6 C1 1_555 1_555
C7 P1 1_555 1_555
C8 C7 1_555 1_555
C9 C8 1_555 1_555
C10 C9 1_555 1_555
C11 C10 1_555 1_555
C12 C7 1_555 1_555
C13 P1 1_555 1_555
C14 C13 1_555 1_555
C15 C14 1_555 1_555
C16 C15 1_555 1_555
C17 C16 1_555 1_555
C18 C13 1_555 1_555
C19 P2 1_555 1_555
C20 C19 1_555 1_555
C21 C20 1_555 1_555
C22 C21 1_555 1_555
C23 C22 1_555 1_555
C24 C19 1_555 1_555
C25 P2 1_555 1_555
C26 C25 1_555 1_555
C27 C26 1_555 1_555
C28 C27 1_555 1_555
C29 C28 1_555 1_555
C30 C25 1_555 1_555
C31 P2 1_555 1_555
C32 C31 1_555 1_555
C33 C32 1_555 1_555
C34 C33 1_555 1_555
C35 C34 1_555 1_555
C36 C31 1_555 1_555
C37 N1 1_555 1_555
C38 N3 1_555 1_555
H1 C2 1_555 1_555
H2 C3 1_555 1_555
H3 C4 1_555 1_555
H4 C5 1_555 1_555
H5 C6 1_555 1_555
H6 C8 1_555 1_555
H7 C9 1_555 1_555
H8 C10 1_555 1_555
H9 C11 1_555 1_555
H10 C12 1_555 1_555
H11 C14 1_555 1_555
H12 C15 1_555 1_555
H13 C16 1_555 1_555
H14 C17 1_555 1_555
H15 C18 1_555 1_555
H16 C20 1_555 1_555
H17 C21 1_555 1_555
H18 C22 1_555 1_555
H19 C23 1_555 1_555
H20 C24 1_555 1_555
H21 C26 1_555 1_555
H22 C27 1_555 1_555
H23 C28 1_555 1_555
H24 C29 1_555 1_555
H25 C30 1_555 1_555
H26 C32 1_555 1_555
H27 C33 1_555 1_555
H28 C34 1_555 1_555
H29 C35 1_555 1_555
H30 C36 1_555 1_555
H31 C38 1_555 1_555
N3A Ag1 1_555 1_555
Ag1A N3 1_555 1_555
C11 C12 1_555 1_555
C17 C18 1_555 1_555
C23 C24 1_555 1_555
C29 C30 1_555 1_555
C35 C36 1_555 1_555
C37 C38 1_555 1_555

#END
