
#######################################################################
#
#                 Cambridge Crystallographic Data Centre
#                                CCDC 
#
#######################################################################
#
# If this CIF has been generated from an entry in the Cambridge 
# Structural Database, then it will include bibliographic, chemical, 
# crystal, experimental, refinement or atomic coordinate data resulting 
# from the CCDC's data processing and validation procedures.
#
#######################################################################

data_NUFPOT
_symmetry_cell_setting           monoclinic
_symmetry_space_group_name_H-M   'P 21/n'
_symmetry_Int_Tables_number      14
_space_group_name_Hall           '-P 2yn'
loop_
_symmetry_equiv_pos_site_id
_symmetry_equiv_pos_as_xyz
1 x,y,z
2 1/2+x,1/2-y,1/2+z
3 -x,-y,-z
4 1/2-x,1/2+y,1/2-z
_cell_length_a                   14.59(1)
_cell_length_b                   9.525(6)
_cell_length_c                   24.617(3)
_cell_angle_alpha                90
_cell_angle_beta                 93.01(2)
_cell_angle_gamma                90
_cell_volume                     3416.3
loop_
_atom_site_label
_atom_site_type_symbol
_atom_site_fract_x
_atom_site_fract_y
_atom_site_fract_z
Ag1 Ag -0.39565(3) 0.33792(5) 0.27599(2)
P1 P -0.4912(1) 0.3657(2) 0.19089(7)
P2 P -0.4402(1) 0.3969(2) 0.36743(7)
N1 N -0.2614(4) 0.4592(6) 0.2609(2)
N2 N -0.1750(5) 0.4413(8) 0.2851(3)
N3 N -0.1614(4) 0.6136(6) 0.2333(2)
C1 C -0.4494(5) 0.2803(7) 0.1311(3)
C2 C -0.5080(6) 0.2219(9) 0.0912(3)
C3 C -0.4731(8) 0.160(1) 0.0457(4)
C4 C -0.3801(8) 0.157(1) 0.0401(4)
C5 C -0.3211(6) 0.211(1) 0.0794(4)
C6 C -0.3563(5) 0.2698(10) 0.1260(3)
C7 C -0.5052(4) 0.5462(7) 0.1692(3)
C8 C -0.4988(7) 0.595(1) 0.1177(4)
C9 C -0.5103(9) 0.738(1) 0.1055(5)
C10 C -0.5287(7) 0.828(1) 0.1459(6)
C11 C -0.5351(7) 0.7839(10) 0.1976(5)
C12 C -0.5229(5) 0.6444(8) 0.2094(3)
C13 C -0.6088(4) 0.3030(7) 0.1916(3)
C14 C -0.6217(5) 0.1680(9) 0.2122(3)
C15 C -0.7076(8) 0.111(1) 0.2121(4)
C16 C -0.7822(7) 0.188(1) 0.1926(5)
C17 C -0.7715(6) 0.319(1) 0.1730(5)
C18 C -0.6832(5) 0.3762(9) 0.1722(3)
C19 C -0.3573(4) 0.3410(8) 0.4203(3)
C20 C -0.3151(6) 0.2120(9) 0.4133(3)
C21 C -0.2560(7) 0.157(1) 0.4529(5)
C22 C -0.2336(7) 0.232(1) 0.4991(4)
C23 C -0.2725(7) 0.361(1) 0.5077(3)
C24 C -0.3344(5) 0.4158(8) 0.4673(3)
C25 C -0.5472(4) 0.3200(7) 0.3887(3)
C26 C -0.5571(5) 0.2659(9) 0.4401(3)
C27 C -0.6407(7) 0.208(1) 0.4531(4)
C28 C -0.7135(6) 0.204(1) 0.4172(5)
C29 C -0.7043(6) 0.257(1) 0.3660(4)
C30 C -0.6213(5) 0.3139(9) 0.3520(3)
C31 C -0.4553(4) 0.5850(7) 0.3783(3)
C32 C -0.4057(5) 0.6764(8) 0.3475(3)
C33 C -0.4170(6) 0.8198(9) 0.3522(3)
C34 C -0.4775(6) 0.8736(8) 0.3876(4)
C35 C -0.5273(6) 0.7850(9) 0.4186(3)
C36 C -0.5166(5) 0.6404(8) 0.4132(3)
C37 C -0.1150(4) 0.5302(6) 0.2689(3)
C38 C -0.2485(5) 0.5711(7) 0.2288(3)
H1 H -0.5722 0.2253 0.0948
H2 H -0.5140 0.1215 0.0183
H3 H -0.3581 0.1148 0.0085
H4 H -0.2571 0.2092 0.0748
H5 H -0.3152 0.3016 0.1548
H6 H -0.4867 0.5304 0.0893
H7 H -0.5059 0.7691 0.0684
H8 H -0.5374 0.9248 0.1373
H9 H -0.5478 0.8491 0.2253
H10 H -0.5263 0.6144 0.2461
H11 H -0.5701 0.1170 0.2264
H12 H -0.7150 0.0175 0.2255
H13 H -0.8414 0.1481 0.1932
H14 H -0.8231 0.3714 0.1596
H15 H -0.6751 0.4679 0.1583
H16 H -0.3275 0.1604 0.3807
H17 H -0.2296 0.0680 0.4484
H18 H -0.1912 0.1938 0.5264
H19 H -0.2576 0.4126 0.5403
H20 H -0.3610 0.5056 0.4724
H21 H -0.5076 0.2694 0.4669
H22 H -0.6471 0.1692 0.4881
H23 H -0.7707 0.1656 0.4267
H24 H -0.7558 0.2562 0.3396
H25 H -0.6157 0.3496 0.3162
H26 H -0.3635 0.6396 0.3230
H27 H -0.3809 0.8829 0.3305
H28 H -0.4847 0.9757 0.3910
H29 H -0.5700 0.8233 0.4442
H30 H -0.5533 0.5762 0.4345
N3C N -0.3386(4) 0.1136(6) 0.2667(2)
Ag1C Ag -0.10435(3) 0.83792(5) 0.22401(2)
loop_
_geom_bond_atom_site_label_1
_geom_bond_atom_site_label_2
_geom_bond_site_symmetry_1
_geom_bond_site_symmetry_2
Ag1 P1 1_555 1_555
P1 C1 1_555 1_555
P2 Ag1 1_555 1_555
N1 Ag1 1_555 1_555
N2 N1 1_555 1_555
N3 C37 1_555 1_555
C1 C2 1_555 1_555
C2 C3 1_555 1_555
C3 C4 1_555 1_555
C4 C5 1_555 1_555
C5 C6 1_555 1_555
C6 C1 1_555 1_555
C7 P1 1_555 1_555
C8 C7 1_555 1_555
C9 C8 1_555 1_555
C10 C9 1_555 1_555
C11 C10 1_555 1_555
C12 C7 1_555 1_555
C13 P1 1_555 1_555
C14 C13 1_555 1_555
C15 C14 1_555 1_555
C16 C15 1_555 1_555
C17 C16 1_555 1_555
C18 C13 1_555 1_555
C19 P2 1_555 1_555
C20 C19 1_555 1_555
C21 C20 1_555 1_555
C22 C21 1_555 1_555
C23 C22 1_555 1_555
C24 C19 1_555 1_555
C25 P2 1_555 1_555
C26 C25 1_555 1_555
C27 C26 1_555 1_555
C28 C27 1_555 1_555
C29 C28 1_555 1_555
C30 C25 1_555 1_555
C31 P2 1_555 1_555
C32 C31 1_555 1_555
C33 C32 1_555 1_555
C34 C33 1_555 1_555
C35 C34 1_555 1_555
C36 C31 1_555 1_555
C37 N2 1_555 1_555
C38 N1 1_555 1_555
H1 C2 1_555 1_555
H2 C3 1_555 1_555
H3 C4 1_555 1_555
H4 C5 1_555 1_555
H5 C6 1_555 1_555
H6 C8 1_555 1_555
H7 C9 1_555 1_555
H8 C10 1_555 1_555
H9 C11 1_555 1_555
H10 C12 1_555 1_555
H11 C14 1_555 1_555
H12 C15 1_555 1_555
H13 C16 1_555 1_555
H14 C17 1_555 1_555
H15 C18 1_555 1_555
H16 C20 1_555 1_555
H17 C21 1_555 1_555
H18 C22 1_555 1_555
H19 C23 1_555 1_555
H20 C24 1_555 1_555
H21 C26 1_555 1_555
H22 C27 1_555 1_555
H23 C28 1_555 1_555
H24 C29 1_555 1_555
H25 C30 1_555 1_555
H26 C32 1_555 1_555
H27 C33 1_555 1_555
H28 C34 1_555 1_555
H29 C35 1_555 1_555
H30 C36 1_555 1_555
N3C Ag1 1_555 1_555
Ag1C N3 1_555 1_555
N3 C38 1_555 1_555
C11 C12 1_555 1_555
C17 C18 1_555 1_555
C23 C24 1_555 1_555
C29 C30 1_555 1_555
C35 C36 1_555 1_555

#END
