
#######################################################################
#
#                 Cambridge Crystallographic Data Centre
#                                CCDC 
#
#######################################################################
#
# If this CIF has been generated from an entry in the Cambridge 
# Structural Database, then it will include bibliographic, chemical, 
# crystal, experimental, refinement or atomic coordinate data resulting 
# from the CCDC's data processing and validation procedures.
#
#######################################################################

data_NUFTAJ
_symmetry_cell_setting           monoclinic
_symmetry_space_group_name_H-M   'P 21/c'
_symmetry_Int_Tables_number      14
_space_group_name_Hall           '-P 2ybc'
loop_
_symmetry_equiv_pos_site_id
_symmetry_equiv_pos_as_xyz
1 x,y,z
2 x,1/2-y,1/2+z
3 -x,-y,-z
4 -x,1/2+y,1/2-z
_cell_length_a                   5.792(2)
_cell_length_b                   13.877(4)
_cell_length_c                   6.548(2)
_cell_angle_alpha                90
_cell_angle_beta                 113.95(2)
_cell_angle_gamma                90
_cell_volume                     480.985
loop_
_atom_site_label
_atom_site_type_symbol
_atom_site_fract_x
_atom_site_fract_y
_atom_site_fract_z
Cu1 Cu 0.31441(11) 0.18252(5) -0.63753(12)
S1 S 0.2089(2) 0.17058(8) -0.3279(2)
C1 C 0.8980(8) 0.3299(3) 0.0502(8)
N1 N 0.6780(8) 0.3312(3) -0.0313(7)
N2 N -0.1228(6) 0.5735(3) -0.6508(6)
C2 C -0.2478(8) 0.4985(3) -0.6191(8)
H1 H -0.4236(8) 0.4950(3) -0.7011(8)
C3 C 0.1285(8) 0.5743(3) -0.5296(8)
H2 H 0.2249(8) 0.6257(3) -0.5468(8)
S1A S 0.2089(2) 0.32942(8) -0.8279(2)
Cu1C Cu -0.31441(11) 0.68252(5) -0.86247(12)
Cu1A Cu 0.31441(11) 0.31748(5) -0.13753(12)
S1A_2 S 0.2089(2) 0.32942(8) 0.1721(2)
S1A_3 S 1.2089(2) 0.32942(8) 0.1721(2)
Cu1A_2 Cu 1.31441(11) 0.31748(5) -0.13753(12)
Cu1_2 Cu 1.31441(11) 0.18252(5) 0.36247(12)
N2B N 0.1228(6) 0.4265(3) -0.3492(6)
C1A C -0.1020(8) 0.1701(3) -0.4498(8)
N1A N -0.3220(8) 0.1688(3) -0.5313(7)
Cu1_3 Cu -0.68559(11) 0.18252(5) -0.63753(12)
N1A_2 N 0.6780(8) 0.1688(3) -0.5313(7)
N2C N 0.1228(6) 0.0735(3) -0.8492(6)
C3B C -0.1285(8) 0.4257(3) -0.4704(8)
C2B C 0.2478(8) 0.5015(3) -0.3809(8)
H1B H 0.4236(8) 0.5050(3) -0.2989(8)
H2B H -0.2249(8) 0.3743(3) -0.4532(8)
loop_
_geom_bond_atom_site_label_1
_geom_bond_atom_site_label_2
_geom_bond_site_symmetry_1
_geom_bond_site_symmetry_2
Cu1 S1 1_555 1_555
S1 Cu1A 1_555 1_555
C1 N1 1_555 1_555
N1 Cu1A 1_555 1_555
N2 C2 1_555 1_555
C2 H1 1_555 1_555
C3 N2 1_555 1_555
H2 C3 1_555 1_555
S1A Cu1 1_555 1_555
Cu1C N2 1_555 1_555
Cu1A S1A_2 1_555 1_555
S1A_3 C1 1_555 1_555
Cu1A_2 S1A_3 1_555 1_555
Cu1_2 S1A_3 1_555 1_555
N2B Cu1A 1_555 1_555
C1A S1 1_555 1_555
N1A C1A 1_555 1_555
Cu1_3 N1A 1_555 1_555
N1A_2 Cu1 1_555 1_555
N2C Cu1 1_555 1_555
C3B C2 1_555 1_555
C2B C3 1_555 1_555
H1B C2B 1_555 1_555
H2B C3B 1_555 1_555
N2B C2B 1_555 1_555
N2B C3B 1_555 1_555

#END
