
#######################################################################
#
#                 Cambridge Crystallographic Data Centre
#                                CCDC 
#
#######################################################################
#
# If this CIF has been generated from an entry in the Cambridge 
# Structural Database, then it will include bibliographic, chemical, 
# crystal, experimental, refinement or atomic coordinate data resulting 
# from the CCDC's data processing and validation procedures.
#
#######################################################################

data_NUFTOY
_symmetry_cell_setting           tetragonal
_symmetry_space_group_name_H-M   'P 4/n'
_symmetry_Int_Tables_number      85
_space_group_name_Hall           '-P 4a'
loop_
_symmetry_equiv_pos_site_id
_symmetry_equiv_pos_as_xyz
1 x,y,z
2 1/2-x,1/2-y,z
3 1/2-y,x,z
4 y,1/2-x,z
5 -x,-y,-z
6 1/2+x,1/2+y,-z
7 1/2+y,-x,-z
8 -y,1/2+x,-z
_cell_length_a                   31.745(3)
_cell_length_b                   31.745(3)
_cell_length_c                   8.2835(15)
_cell_angle_alpha                90
_cell_angle_beta                 90
_cell_angle_gamma                90
_cell_volume                     8347.66
loop_
_atom_site_label
_atom_site_type_symbol
_atom_site_fract_x
_atom_site_fract_y
_atom_site_fract_z
In1 In 0.53458(2) 0.69304(2) 1.09690(8)
O1 O 0.5879(2) 0.6472(2) 1.0719(9)
O2 O 0.5705(2) 0.6850(2) 0.8635(8)
O3 O 0.7974(2) 0.5595(2) 0.3676(8)
O4 O 0.7609(2) 0.5827(2) 0.1632(9)
O5 O 0.5097(2) 0.7503(2) 0.9560(9)
O6 O 0.4847(2) 0.7358(2) 1.1935(9)
O7 O 0.3590(2) 0.9955(2) 0.7980(9)
O8 O 0.3408(2) 0.9833(2) 1.0469(9)
C1 C 0.5949(3) 0.6591(3) 0.9310(12)
C2 C 0.6327(3) 0.6442(3) 0.8436(13)
C3 C 0.6390(4) 0.6563(3) 0.6900(13)
H1 H 0.6203 0.6753 0.6435
C4 C 0.6731(3) 0.6411(3) 0.5967(13)
C5 C 0.6796(4) 0.6519(4) 0.4337(14)
H2 H 0.6618 0.6716 0.3863
C6 C 0.7103(4) 0.6349(4) 0.3441(14)
H3 H 0.7138 0.6425 0.2364
C7 C 0.7378(3) 0.6048(3) 0.4191(13)
C8 C 0.7346(3) 0.5949(3) 0.5774(12)
H4 H 0.7540 0.5766 0.6240
C9 C 0.7014(3) 0.6126(3) 0.6740(13)
C10 C 0.6951(3) 0.6017(4) 0.8331(13)
H5 H 0.7142 0.5838 0.8835
C11 C 0.6615(3) 0.6165(3) 0.9184(13)
H6 H 0.6576 0.6084 1.0253
C12 C 0.7676(3) 0.5819(3) 0.3124(14)
C13 C 0.4859(4) 0.7588(3) 1.0710(13)
C14 C 0.4598(4) 0.7978(3) 1.0641(14)
C15 C 0.4309(3) 0.8074(4) 1.1922(15)
H7 H 0.4279 0.7888 1.2782
C16 C 0.4082(4) 0.8429(4) 1.1884(14)
H8 H 0.3900 0.8487 1.2734
C17 C 0.4111(4) 0.8713(4) 1.0610(13)
C18 C 0.3872(3) 0.9095(3) 1.0551(13)
H9 H 0.3691 0.9161 1.1397
C19 C 0.3906(4) 0.9359(3) 0.9299(13)
C20 C 0.4182(3) 0.9276(3) 0.7994(13)
H10 H 0.4196 0.9458 0.7116
C21 C 0.4426(3) 0.8928(3) 0.8049(14)
H11 H 0.4617 0.8878 0.7220
C22 C 0.4396(3) 0.8637(3) 0.9349(13)
C23 C 0.4630(4) 0.8261(3) 0.9427(13)
H12 H 0.4819 0.8204 0.8595
C24 C 0.3619(3) 0.9739(3) 0.9238(14)
In1B In 0.80696(2) 0.53458(2) 0.09690(8)
In1G In 0.30696(2) 1.03458(2) 0.90310(8)
O3C O 0.5595(2) 0.7026(2) 1.3676(8)
O4C O 0.5827(2) 0.7391(2) 1.1632(9)
O7F O 0.4955(2) 0.6410(2) 1.2020(9)
O8F O 0.4833(2) 0.6592(2) 0.9531(9)
N1 N 0.5041(3) 0.6744(3) 0.6057(11)
H13 H 0.5241 0.6828 0.5358
H14 H 0.5136 0.6794 0.7063
C25 C 0.4972(6) 0.6296(5) 0.5864(17)
H15 H 0.4826 0.6246 0.4852
H16 H 0.4791 0.6197 0.6729
C26 C 0.5375(5) 0.6044(5) 0.588(2)
H17 H 0.5575 0.6171 0.5158
H18 H 0.5318 0.5761 0.5534
H19 H 0.5489 0.6040 0.6952
C27 C 0.4655(5) 0.6989(6) 0.5778(19)
H20 H 0.4444 0.6917 0.6582
H21 H 0.4541 0.6924 0.4720
C28 C 0.4759(6) 0.7460(6) 0.5884(19)
H22 H 0.4505 0.7617 0.6088
H23 H 0.4881 0.7552 0.4884
H24 H 0.4955 0.7507 0.6748
N2 N 0.5685(4) 0.5167(3) 0.2845(14)
C29 C 0.5409(6) 0.4933(6) 0.3635(19)
O9 O 0.5523(6) 0.4640(5) 0.4552(17)
C30 C 0.5530(6) 0.5486(4) 0.179(2)
H25 H 0.5678 0.5746 0.2023
H26 H 0.5234 0.5532 0.2029
C31 C 0.5572(7) 0.5396(6) 0.007(2)
H27 H 0.5864 0.5404 -0.0224
H28 H 0.5419 0.5602 -0.0538
H29 H 0.5460 0.5121 -0.0150
C32 C 0.6152(5) 0.5104(5) 0.307(3)
H30 H 0.6205 0.4815 0.3402
H31 H 0.6295 0.5151 0.2055
C33 C 0.6316(6) 0.5383(7) 0.426(3)
H32 H 0.6311 0.5666 0.3848
H33 H 0.6601 0.5305 0.4504
H34 H 0.6148 0.5366 0.5218
O10 O 0.3490(13) 0.6831(13) 0.330(5)
O11 O 0.3615(14) 0.7126(15) 0.005(6)
loop_
_geom_bond_atom_site_label_1
_geom_bond_atom_site_label_2
_geom_bond_site_symmetry_1
_geom_bond_site_symmetry_2
In1 O1 1_555 1_555
O1 C1 1_555 1_555
O2 In1 1_555 1_555
O3 C12 1_555 1_555
O4 C12 1_555 1_555
O5 In1 1_555 1_555
O6 In1 1_555 1_555
O7 C24 1_555 1_555
O8 C24 1_555 1_555
C1 O2 1_555 1_555
C2 C1 1_555 1_555
C3 C2 1_555 1_555
H1 C3 1_555 1_555
C4 C3 1_555 1_555
C5 C4 1_555 1_555
H2 C5 1_555 1_555
C6 C5 1_555 1_555
H3 C6 1_555 1_555
C7 C6 1_555 1_555
C8 C7 1_555 1_555
H4 C8 1_555 1_555
C9 C4 1_555 1_555
C10 C9 1_555 1_555
H5 C10 1_555 1_555
C11 C2 1_555 1_555
H6 C11 1_555 1_555
C12 C7 1_555 1_555
C13 O5 1_555 1_555
C14 C13 1_555 1_555
C15 C14 1_555 1_555
H7 C15 1_555 1_555
C16 C15 1_555 1_555
H8 C16 1_555 1_555
C17 C16 1_555 1_555
C18 C17 1_555 1_555
H9 C18 1_555 1_555
C19 C18 1_555 1_555
C20 C19 1_555 1_555
H10 C20 1_555 1_555
C21 C20 1_555 1_555
H11 C21 1_555 1_555
C22 C17 1_555 1_555
C23 C14 1_555 1_555
H12 C23 1_555 1_555
C24 C19 1_555 1_555
N1 H13 1_555 1_555
H14 N1 1_555 1_555
C25 N1 1_555 1_555
H15 C25 1_555 1_555
H16 C25 1_555 1_555
C26 C25 1_555 1_555
H17 C26 1_555 1_555
H18 C26 1_555 1_555
H19 C26 1_555 1_555
C27 N1 1_555 1_555
H20 C27 1_555 1_555
H21 C27 1_555 1_555
C28 C27 1_555 1_555
H22 C28 1_555 1_555
H23 C28 1_555 1_555
H24 C28 1_555 1_555
N2 C29 1_555 1_555
C29 O9 1_555 1_555
C30 N2 1_555 1_555
H25 C30 1_555 1_555
H26 C30 1_555 1_555
C31 C30 1_555 1_555
H27 C31 1_555 1_555
H28 C31 1_555 1_555
H29 C31 1_555 1_555
C32 N2 1_555 1_555
H30 C32 1_555 1_555
H31 C32 1_555 1_555
C33 C32 1_555 1_555
H32 C33 1_555 1_555
H33 C33 1_555 1_555
H34 C33 1_555 1_555
In1B O3 1_555 1_555
In1G O7 1_555 1_555
O3C In1 1_555 1_555
O4C In1 1_555 1_555
O7F In1 1_555 1_555
O8F In1 1_555 1_555
O4 In1B 1_555 1_555
O6 C13 1_555 1_555
O8 In1G 1_555 1_555
C8 C9 1_555 1_555
C10 C11 1_555 1_555
C21 C22 1_555 1_555
C22 C23 1_555 1_555

#END
