
#######################################################################
#
#                 Cambridge Crystallographic Data Centre
#                                CCDC 
#
#######################################################################
#
# If this CIF has been generated from an entry in the Cambridge 
# Structural Database, then it will include bibliographic, chemical, 
# crystal, experimental, refinement or atomic coordinate data resulting 
# from the CCDC's data processing and validation procedures.
#
#######################################################################

data_NUFTAJ01
_symmetry_cell_setting           monoclinic
_symmetry_space_group_name_H-M   'P 21/c'
_symmetry_Int_Tables_number      14
_space_group_name_Hall           '-P 2ybc'
loop_
_symmetry_equiv_pos_site_id
_symmetry_equiv_pos_as_xyz
1 x,y,z
2 x,1/2-y,1/2+z
3 -x,-y,-z
4 -x,1/2+y,1/2-z
_cell_length_a                   5.792(2)
_cell_length_b                   13.877(4)
_cell_length_c                   6.548(2)
_cell_angle_alpha                90
_cell_angle_beta                 113.95(2)
_cell_angle_gamma                90
_cell_volume                     480.985
loop_
_atom_site_label
_atom_site_type_symbol
_atom_site_fract_x
_atom_site_fract_y
_atom_site_fract_z
Cu1 Cu 0.68559(11) 0.68252(5) 0.13753(12)
S1 S 0.7911(2) 0.67058(8) -0.1721(2)
C1 C 1.1020(8) 0.6701(3) -0.0502(8)
N1 N 0.3220(8) 0.6688(3) 0.0313(7)
N2 N 0.8772(6) 0.5735(3) 0.3492(6)
C2 C 0.7522(8) 0.4985(3) 0.3809(8)
H1 H 0.5764(8) 0.4950(3) 0.2989(8)
C3 C 1.1285(8) 0.5743(3) 0.4704(8)
H2 H 1.2249(8) 0.6257(3) 0.4532(8)
S1A S 0.7911(2) 0.82942(8) 0.3279(2)
Cu1A Cu 0.68559(11) 0.81748(5) -0.36247(12)
N1_2 N 1.3220(8) 0.6688(3) 0.0313(7)
C1_2 C 0.1020(8) 0.6701(3) -0.0502(8)
C3B C 0.8715(8) 0.4257(3) 0.5296(8)
C2B C 1.2478(8) 0.5015(3) 0.6191(8)
S1A_2 S 0.7911(2) 0.82942(8) -0.6721(2)
N1A N 0.3220(8) 0.8312(3) -0.4687(7)
N2A N 0.8772(6) 0.9265(3) -0.1508(6)
Cu1_2 Cu 1.68559(11) 0.68252(5) 0.13753(12)
S1_2 S -0.2089(2) 0.67058(8) -0.1721(2)
N2B N 1.1228(6) 0.4265(3) 0.6508(6)
H2B H 0.7751(8) 0.3743(3) 0.5468(8)
H1B H 1.4236(8) 0.5050(3) 0.7011(8)
Cu1_3 Cu -0.31441(11) 0.68252(5) 0.13753(12)
Cu1A_2 Cu -0.31441(11) 0.81748(5) -0.36247(12)
Cu1B Cu 1.31441(11) 0.31748(5) 0.86247(12)
loop_
_geom_bond_atom_site_label_1
_geom_bond_atom_site_label_2
_geom_bond_site_symmetry_1
_geom_bond_site_symmetry_2
Cu1 S1 1_555 1_555
S1 C1 1_555 1_555
C1 N1_2 1_555 1_555
N1 Cu1 1_555 1_555
N2 Cu1 1_555 1_555
C2 N2 1_555 1_555
H1 C2 1_555 1_555
C3 N2 1_555 1_555
H2 C3 1_555 1_555
S1A Cu1 1_555 1_555
Cu1A S1 1_555 1_555
N1_2 Cu1_2 1_555 1_555
C1_2 N1 1_555 1_555
C3B C2 1_555 1_555
C2B C3 1_555 1_555
S1A_2 Cu1A 1_555 1_555
N1A Cu1A 1_555 1_555
N2A Cu1A 1_555 1_555
S1_2 C1_2 1_555 1_555
N2B C3B 1_555 1_555
H2B C3B 1_555 1_555
H1B C2B 1_555 1_555
Cu1_3 S1_2 1_555 1_555
Cu1A_2 S1_2 1_555 1_555
Cu1B N2B 1_555 1_555
C2B N2B 1_555 1_555

#END
