
#######################################################################
#
#                 Cambridge Crystallographic Data Centre
#                                CCDC 
#
#######################################################################
#
# If this CIF has been generated from an entry in the Cambridge 
# Structural Database, then it will include bibliographic, chemical, 
# crystal, experimental, refinement or atomic coordinate data resulting 
# from the CCDC's data processing and validation procedures.
#
#######################################################################

data_NUFVIV
_symmetry_cell_setting           triclinic
_symmetry_space_group_name_H-M   'P -1'
_symmetry_Int_Tables_number      2
_space_group_name_Hall           '-P 1'
loop_
_symmetry_equiv_pos_site_id
_symmetry_equiv_pos_as_xyz
1 x,y,z
2 -x,-y,-z
_cell_length_a                   22.9639(4)
_cell_length_b                   26.8859(4)
_cell_length_c                   26.9362(5)
_cell_angle_alpha                82.5450(10)
_cell_angle_beta                 81.949(2)
_cell_angle_gamma                79.1280(10)
_cell_volume                     16079.5
loop_
_atom_site_label
_atom_site_type_symbol
_atom_site_fract_x
_atom_site_fract_y
_atom_site_fract_z
N9 N 0.8379(9) 0.5979(7) 0.0592(7)
C57 C 0.8839(10) 0.5595(9) 0.0873(8)
C58 C 0.8236(12) 0.6899(11) 0.0148(10)
C59 C 0.8245(11) 0.5786(10) 0.0104(10)
C60 C 0.8656(12) 0.5075(11) 0.1005(10)
C61 C 0.8589(12) 0.5476(11) -0.0744(10)
C62 C 0.8651(12) 0.6487(11) 0.0457(10)
C63 C 0.8802(14) 0.5676(12) -0.0273(12)
C64 C 0.9047(14) 0.5441(12) -0.1185(12)
C65 C 0.7778(13) 0.6090(11) 0.0900(11)
C66 C 0.9187(13) 0.4710(11) 0.1241(11)
C67 C 0.7784(13) 0.6366(11) 0.1333(11)
C68 C 0.8515(14) 0.7390(12) 0.0089(12)
C69 C 0.7169(15) 0.6392(13) 0.1687(12)
C70 C 0.8158(17) 0.7781(15) -0.0313(14)
C71 C 0.901(2) 0.4176(17) 0.1408(17)
C72 C 0.7150(18) 0.6676(16) 0.2123(15)
N10 N 0.3537(10) 0.5868(9) 0.0584(8)
C73 C 0.3190(11) 0.5104(9) 0.1159(9)
C74 C 0.2627(10) 0.4863(9) 0.1322(9)
C75 C 0.3931(11) 0.5934(10) 0.0965(10)
C76 C 0.3941(12) 0.5565(11) 0.0223(10)
C77 C 0.3006(11) 0.5608(10) 0.0842(9)
C78 C 0.3688(13) 0.5491(11) -0.0265(11)
C79 C 0.3600(12) 0.6289(10) 0.1367(10)
C80 C 0.3257(12) 0.6365(11) 0.0341(10)
C81 C 0.2783(13) 0.4345(11) 0.1645(11)
C82 C 0.4005(12) 0.6370(11) 0.1736(10)
C83 C 0.3722(14) 0.6732(12) 0.2125(12)
C84 C 0.4151(13) 0.5151(11) -0.0605(11)
C85 C 0.3720(15) 0.6712(13) 0.0060(13)
C86 C 0.3904(16) 0.5060(14) -0.1075(14)
C87 C 0.3357(18) 0.7216(15) -0.0212(15)
C88 C 0.322(2) 0.704(2) -0.074(2)
N11 N 0.3243(10) 0.0457(8) 0.3129(8)
C89 C 0.2611(12) 0.1552(10) 0.1510(10)
C90 C 0.3071(13) 0.1393(11) 0.1902(11)
C91 C 0.2848(14) 0.1017(12) 0.2348(12)
C92 C 0.3327(14) -0.0263(12) 0.2566(12)
C93 C 0.4159(15) 0.0532(13) 0.3519(12)
C94 C 0.3578(14) -0.0086(12) 0.2983(12)
C95 C 0.3509(15) 0.0501(13) 0.3629(12)
C96 C 0.3330(15) 0.0894(13) 0.2716(13)
C97 C 0.3654(16) -0.0808(14) 0.2464(14)
C98 C 0.4453(18) 0.0557(15) 0.4014(15)
C99 C 0.5110(19) 0.0641(16) 0.3917(16)
C100 C 0.2573(19) 0.0354(16) 0.3346(16)
C101 C 0.3485(19) -0.1069(17) 0.2091(16)
C102 C 0.160(3) 0.076(3) 0.372(3)
C103 C 0.227(3) 0.084(3) 0.361(3)
C104 C 0.1088(12) 0.1056(10) 0.3937(10)
N12 N 0.5919(10) 0.8803(8) 0.9917(8)
C105 C 0.5297(13) 0.8268(11) 1.0569(11)
C106 C 0.5884(13) 0.8511(11) 0.9465(11)
C107 C 0.6666(12) 0.8789(11) 1.0560(10)
C108 C 0.5252(14) 0.8608(12) 0.9276(12)
C109 C 0.5932(13) 0.9357(11) 0.9726(11)
C110 C 0.4666(13) 0.8281(11) 1.0795(11)
C111 C 0.5363(14) 0.8807(12) 1.0314(12)
C112 C 0.6494(13) 0.8539(11) 1.0138(11)
C113 C 0.7180(14) 0.8467(12) 1.0811(12)
C114 C 0.5314(16) 0.8369(14) 0.8782(13)
C115 C 0.4552(15) 0.7792(13) 1.1122(13)
C116 C 0.6510(16) 0.9447(14) 0.9348(14)
C117 C 0.4695(18) 0.8314(15) 0.8673(15)
C118 C 0.6983(18) 0.8000(16) 1.1108(15)
C119 C 0.649(2) 1.0315(18) 0.9539(18)
C120 C 0.646(2) 1.0016(19) 0.9164(18)
N13 N 0.4937(11) 0.4949(9) 0.6921(9)
C121 C 0.4427(13) 0.4666(12) 0.7210(11)
C122 C 0.5206(13) 0.5170(11) 0.7338(11)
C123 C 0.4626(14) 0.5363(12) 0.6589(12)
C124 C 0.4435(15) 0.3354(13) 0.8028(13)
C125 C 0.465(2) 0.4204(18) 0.7592(18)
C126 C 0.4270(19) 0.3814(16) 0.7637(16)
C127 C 0.5411(18) 0.4569(15) 0.6672(15)
C128 C 0.4827(16) 0.5561(14) 0.7629(14)
C129 C 0.4695(19) 0.6111(16) 0.5998(16)
C130 C 0.5201(19) 0.4310(16) 0.6287(16)
C131 C 0.5114(18) 0.5644(15) 0.8068(15)
C132 C 0.5090(18) 0.5673(16) 0.6275(15)
C133 C 0.570(3) 0.581(2) 0.798(2)
C134 C 0.581(3) 0.402(2) 0.597(2)
C135 C 0.497(2) 0.655(2) 0.561(2)
C136 C 0.548(3) 0.356(2) 0.576(2)
N14 N 0.1318(17) 0.8884(11) 0.9647(15)
C137 C 0.1463(12) 0.9791(10) 0.9387(10)
C138 C 0.1103(12) 0.8686(8) 1.0226(9)
C139 C 0.0674(12) 0.8878(10) 0.9379(10)
C140 C 0.1178(12) 0.9497(8) 0.9755(9)
C141 C 0.0689(12) 0.8359(10) 0.9282(10)
C142 C 0.0077(12) 0.8438(10) 0.9167(10)
C143 C 0.0508(12) 0.8496(10) 1.1013(10)
C144 C 0.0468(12) 0.8780(10) 1.0492(10)
C145 C 0.1385(12) 1.0337(10) 0.9348(10)
C146 C 0.2008(12) 0.8667(10) 0.9606(10)
C147 C 0.3074(12) 0.8493(10) 0.9265(10)
C148 C -0.0165(12) 0.8680(10) 1.1295(10)
C149 C 0.3392(12) 0.8684(10) 0.9629(10)
C150 C -0.0383(12) 0.8270(10) 0.9470(10)
C151 C 0.2486(12) 0.8707(10) 0.9131(10)
C152 C 0.1692(12) 1.0728(10) 0.9223(10)
N15 N 0.6003(13) 0.8336(11) 0.3761(11)
C153 C 0.5871(13) 0.8627(11) 0.4145(11)
C154 C 0.5759(14) 0.9366(12) 0.4616(12)
C155 C 0.5640(18) 0.9211(15) 0.4129(15)
C156 C 0.532(2) 0.8442(18) 0.3567(18)
C157 C 0.4751(19) 0.8256(17) 0.2916(16)
C158 C 0.7458(19) 0.8778(16) 0.3055(16)
C159 C 0.631(2) 0.9507(19) 0.4741(18)
C160 C 0.537(2) 0.811(2) 0.309(2)
C161 C 0.700(2) 0.8590(18) 0.3487(18)
C162 C 0.645(2) 0.859(2) 0.327(2)
C163 C 0.6224(17) 0.7913(15) 0.3846(14)
C164 C 0.774(3) 0.826(2) 0.283(2)
C165 C 0.473(3) 0.793(2) 0.248(2)
C166 C 0.5951(12) 0.6717(10) 0.3771(10)
C167 C 0.5857(12) 0.7553(10) 0.4252(10)
C168 C 0.6102(12) 0.6959(10) 0.4230(10)
N16 N 0.8077(14) 0.5830(12) 0.4661(11)
C169 C 0.766(2) 0.5384(17) 0.4753(17)
C170 C 0.768(2) 0.6205(16) 0.5500(17)
C171 C 0.8039(18) 0.5975(16) 0.4062(15)
C172 C 0.7724(19) 0.6302(17) 0.4895(16)
C173 C 0.599(2) 0.5071(19) 0.4707(19)
C174 C 0.6934(19) 0.5524(15) 0.4720(16)
C175 C 0.730(3) 0.6734(18) 0.566(2)
C176 C 0.872(2) 0.5673(18) 0.4704(18)
C177 C 0.854(2) 0.631(2) 0.386(2)
C178 C 0.669(3) 0.5001(18) 0.473(2)
C179 C 0.7848(12) 0.6848(10) 0.3214(10)
C180 C 0.8423(12) 0.6476(10) 0.3276(10)
C181 C 0.8928(12) 0.5187(10) 0.4528(10)
C182 C 0.9542(12) 0.4983(10) 0.4743(10)
C183 C 1.0015(12) 0.5285(10) 0.4560(10)
C184 C 0.6633(12) 0.6861(10) 0.5541(10)
C185 C 0.9828(12) 0.3511(10) 0.4086(10)
C186 C 0.7356(12) 0.2790(10) 0.3910(10)
C187 C 0.6753(12) 0.2821(10) 0.4184(10)
N17 N 0.8905(10) 0.3066(8) 0.4180(8)
C188 C 0.9250(12) 0.1443(10) 0.3747(10)
C189 C 0.8746(12) 0.3212(10) 0.4685(10)
C190 C 0.8352(12) 0.3079(10) 0.3890(10)
C191 C 0.8058(12) 0.3882(10) 0.5197(10)
C192 C 0.7357(12) 0.3886(10) 0.5008(10)
C193 C 0.9274(12) 0.2509(10) 0.4231(10)
C194 C 0.9547(12) 0.2266(10) 0.3786(10)
C195 C 1.0725(12) 0.3974(10) 0.3903(10)
C196 C 0.7737(12) 0.2942(10) 0.4262(10)
C197 C 0.9314(12) 0.3427(10) 0.3845(10)
C198 C 1.0133(12) 0.3912(10) 0.3740(10)
C199 C 0.8449(12) 0.3781(10) 0.4675(10)
C200 C 0.9779(12) 0.1712(10) 0.3835(10)
O35 O 0.9060(8) 0.9255(7) 0.3299(6)
O36 O -0.6131(8) 0.7031(7) 0.7023(6)
O37 O 0.2177(8) 0.6599(7) 0.1692(6)
O38 O 0.7328(8) 1.0239(7) 0.3594(6)
O39 O 0.0449(8) 0.7208(7) 1.2343(6)
O40 O 0.4632(8) 0.6875(7) -0.1535(6)
O41 O -0.0037(8) 0.4581(7) 0.7192(6)
Re1 Re -0.40719(4) 0.65423(4) 0.98211(3)
Br1 Br -0.32418(9) 0.58027(8) 0.98867(8)
Br2 Br -0.48924(10) 0.72837(10) 0.96972(10)
Br3 Br -0.45877(9) 0.60333(9) 0.93684(8)
Br4 Br -0.45780(11) 0.62751(13) 1.06527(9)
Br5 Br -0.35122(10) 0.70752(10) 1.02124(11)
N1 N -0.3602(7) 0.6803(6) 0.9097(6)
C1 C -0.3892(10) 0.7019(8) 0.8674(8)
C2 C -0.3002(9) 0.6779(8) 0.9055(8)
H1 H -0.43 0.7021 0.8686
C3 C -0.3589(9) 0.7226(8) 0.8244(8)
C4 C -0.2702(9) 0.7002(8) 0.8607(8)
H2 H -0.2788 0.6618 0.9318
C5 C -0.3941(10) 0.7465(9) 0.7814(8)
C6 C -0.2996(9) 0.7222(8) 0.8215(8)
C7 C -0.2037(8) 0.6981(7) 0.8596(7)
O1 O -0.3679(6) 0.7726(6) 0.7458(6)
O2 O -0.4442(6) 0.7349(7) 0.7805(5)
H3 H -0.2793 0.7369 0.7927
O3 O -0.1776(7) 0.6709(7) 0.8943(7)
O4 O -0.1785(7) 0.7222(6) 0.8243(5)
Dy1 Dy -0.44266(4) 0.76717(4) 0.69256(4)
Dy2 Dy -0.10434(4) 0.73015(3) 0.75834(4)
O5 O -0.3681(6) 0.6991(5) 0.6800(6)
O6 O -0.4943(6) 0.7008(7) 0.6932(6)
O7 O -0.3781(7) 0.8083(7) 0.6341(5)
O8 O -0.5441(7) 0.8035(7) 0.7251(6)
O9 O -0.4749(7) 0.8510(7) 0.7194(6)
O10 O -0.4907(7) 0.7899(7) 0.6202(6)
O11 O -0.1536(6) 0.6629(5) 0.7423(6)
O12 O -0.1880(6) 0.7718(5) 0.7151(5)
O13 O -0.1029(6) 0.7464(7) 0.6691(5)
O14 O -0.0307(7) 0.7855(5) 0.7431(5)
O15 O -0.1174(6) 0.8123(6) 0.7851(7)
O16 O -0.0452(6) 0.7092(7) 0.8280(6)
O17 O -0.0245(8) 0.6730(7) 0.7313(6)
C8 C -0.3632(10) 0.6493(8) 0.6830(8)
C9 C -0.3470(13) 0.8050(11) 0.5921(11)
C10 C -0.1499(10) 0.6206(9) 0.7300(9)
C11 C -0.1600(9) 0.7652(8) 0.6715(8)
C12 C -0.0647(10) 0.8175(9) 0.7688(8)
C13 C -0.0376(10) 0.6959(9) 0.8722(9)
C14 C 0.0096(15) 0.6311(13) 0.7360(13)
C15 C -0.3039(9) 0.6190(8) 0.6926(7)
O18 O -0.4030(7) 0.6269(7) 0.6796(8)
O19 O -0.3690(8) 0.8089(14) 0.5503(7)
C16 C -0.2794(13) 0.7939(11) 0.5894(11)
C17 C -0.2020(9) 0.6046(8) 0.7122(7)
O20 O -0.1052(7) 0.5830(7) 0.7354(10)
C18 C -0.1902(10) 0.7761(9) 0.6267(8)
C19 C -0.0400(9) 0.8608(8) 0.7815(8)
O21 O -0.0778(7) 0.6793(6) 0.9068(6)
C20 C 0.0180(10) 0.6999(8) 0.8922(8)
C21 C 0.0762(16) 0.6332(14) 0.7351(13)
O22 O -0.0078(8) 0.5886(7) 0.7615(6)
C22 C -0.2553(9) 0.6380(8) 0.7060(7)
C23 C -0.2944(9) 0.5676(8) 0.6861(8)
H4 H -0.4332 0.6475 0.6743
C24 C -0.2527(11) 0.7850(9) 0.6325(9)
C25 C -0.2474(14) 0.7972(12) 0.5424(12)
C26 C -0.1980(9) 0.5546(8) 0.7051(7)
C27 C -0.1586(11) 0.7761(9) 0.5802(9)
C28 C 0.0192(9) 0.8638(8) 0.7710(8)
C29 C -0.0794(10) 0.8989(9) 0.8073(8)
H5 H -0.1076 0.6778 0.8938
C30 C 0.0279(10) 0.6780(8) 0.9400(8)
C31 C 0.0615(10) 0.7245(9) 0.8636(9)
C32 C 0.0950(14) 0.6798(12) 0.7337(11)
C33 C 0.1151(16) 0.5869(14) 0.7333(13)
H6 H -0.0438 0.5903 0.761
H7 H -0.259 0.6722 0.7105
N2 N -0.2439(7) 0.5360(6) 0.6910(6)
H8 H -0.326 0.5546 0.6776
H9 H -0.2749 0.7848 0.6641
N3 N -0.1866(9) 0.7879(8) 0.5375(8)
H10 H -0.2673 0.8057 0.5138
H11 H -0.1626 0.5323 0.71
H12 H -0.1172 0.7679 0.5773
C34 C 0.0391(8) 0.9044(7) 0.7883(7)
H13 H 0.0456 0.8399 0.7531
N4 N -0.0605(8) 0.9388(7) 0.8201(7)
H14 H -0.1194 0.8959 0.8155
N5 N 0.0813(8) 0.6754(7) 0.9579(7)
H15 H -0.0026 0.6646 0.9607
C35 C 0.1140(11) 0.7240(10) 0.8841(9)
H16 H 0.0557 0.7409 0.8316
H17 H 0.068 0.7102 0.7351
C36 C 0.1575(14) 0.6780(12) 0.7300(11)
N6 N 0.1768(10) 0.5883(9) 0.7240(8)
H18 H 0.101 0.5562 0.7379
Re2 Re -0.23296(4) 0.45564(4) 0.68113(4)
Re3 Re -0.13805(4) 0.78557(3) 0.46221(3)
C37 C -0.0020(9) 0.9410(8) 0.8122(8)
C38 C 0.1045(9) 0.9080(8) 0.7817(8)
Re4 Re -0.12283(4) 0.99968(4) 0.85635(5)
Re5 Re 0.09892(4) 0.63721(4) 1.03281(4)
C39 C 0.1234(11) 0.6973(9) 0.9299(9)
C40 C 0.1607(18) 0.7520(15) 0.8566(15)
C41 C 0.1799(11) 0.7251(10) 0.7312(10)
C42 C 0.1953(12) 0.6315(10) 0.7270(9)
Re6 Re 0.23826(4) 0.51944(3) 0.70549(4)
Br6 Br -0.32418(10) 0.45384(9) 0.74278(9)
Br7 Br -0.17128(12) 0.43580(9) 0.75196(13)
Br8 Br -0.14621(14) 0.46999(15) 0.61781(14)
Br9 Br -0.29870(14) 0.48080(17) 0.61085(11)
Br10 Br -0.21994(16) 0.36420(13) 0.67235(18)
Br11 Br -0.08472(15) 0.78322(13) 0.37649(10)
Br12 Br -0.19918(14) 0.87062(12) 0.44105(10)
Br13 Br -0.06348(14) 0.82666(14) 0.49034(13)
Br14 Br -0.0861(2) 0.70056(11) 0.49318(10)
Br15 Br -0.2183(2) 0.7460(2) 0.43769(11)
H19 H 0.0113 0.9679 0.8231
O23 O 0.1387(6) 0.8790(5) 0.7525(5)
O24 O 0.1199(6) 0.9395(6) 0.8050(7)
Br16 Br -0.04917(11) 0.99572(10) 0.91728(10)
Br17 Br -0.06991(14) 1.06151(10) 0.79706(12)
Br18 Br -0.19285(13) 1.06914(11) 0.89534(15)
Br19 Br -0.16966(12) 0.93346(11) 0.91335(15)
Br20 Br -0.18977(16) 0.99775(13) 0.79306(18)
Br21 Br 0.18929(9) 0.58672(9) 0.98811(8)
Br22 Br 0.11992(13) 0.59480(12) 1.11650(9)
Br23 Br 0.03977(10) 0.57248(9) 1.01910(9)
Br24 Br 0.15821(13) 0.70443(12) 1.04229(13)
Br25 Br 0.00629(13) 0.69338(12) 1.06635(13)
H20 H 0.1602 0.6946 0.9417
O25 O 0.1498(8) 0.7893(8) 0.8255(6)
O26 O 0.2080(8) 0.7499(8) 0.8846(6)
O27 O 0.1471(6) 0.7667(5) 0.7237(6)
O28 O 0.2322(8) 0.7232(7) 0.7425(7)
H21 H 0.236 0.6306 0.7272
Br26 Br 0.30537(11) 0.44237(8) 0.67807(9)
Br27 Br 0.28846(11) 0.52297(9) 0.78010(9)
Br28 Br 0.30441(17) 0.57440(10) 0.65259(10)
Br29 Br 0.17123(11) 0.46589(11) 0.75849(17)
Br30 Br 0.1790(3) 0.52623(12) 0.6340(2)
Dy3 Dy 0.21492(4) 0.81006(4) 0.75473(4)
H22 H 0.2325 0.7661 0.8684
O29 O 0.2486(8) 0.8795(7) 0.7726(7)
O30 O 0.2289(6) 0.8446(5) 0.6657(5)
O31 O 0.3065(8) 0.8048(10) 0.7048(7)
O32 O 0.2811(10) 0.7792(11) 0.8092(8)
C43 C 0.2616(15) 0.9165(13) 0.7898(13)
C44 C 0.2832(9) 0.8328(8) 0.6654(8)
O33 O 0.2236(8) 0.9516(8) 0.8077(9)
C45 C 0.3260(15) 0.9188(13) 0.7845(13)
C46 C 0.3269(9) 0.8379(8) 0.6192(8)
H23 H 0.19 0.9451 0.8083
C47 C 0.3675(14) 0.8814(12) 0.7614(11)
C48 C 0.3458(14) 0.9622(12) 0.7974(11)
C49 C 0.3872(9) 0.8226(8) 0.6217(8)
C50 C 0.3067(9) 0.8566(7) 0.5729(7)
C51 C 0.4263(13) 0.8852(11) 0.7522(11)
H24 H 0.3547 0.8535 0.7521
N7 N 0.4036(13) 0.9645(11) 0.7905(11)
H25 H 0.3183 0.9886 0.8106
H26 H 0.4013 0.8097 0.6523
C52 C 0.4271(9) 0.8266(8) 0.5775(8)
N8 N 0.3445(7) 0.8582(6) 0.5300(6)
H27 H 0.2662 0.8683 0.5715
C53 C 0.4734(11) 0.8435(10) 0.7312(9)
C54 C 0.4430(15) 0.9274(12) 0.7663(12)
Re7 Re 0.43496(5) 1.02828(6) 0.81293(6)
C55 C 0.4932(10) 0.8108(9) 0.5795(8)
C56 C 0.4040(9) 0.8433(8) 0.5329(8)
Re8 Re 0.31108(4) 0.87723(3) 0.45680(3)
H28 H 0.4829 0.9311 0.7592
Br31 Br 0.47039(14) 1.10247(15) 0.83529(15)
Br32 Br 0.53348(13) 0.97408(15) 0.82595(16)
Br33 Br 0.33673(13) 1.08057(16) 0.80214(18)
Br34 Br 0.39760(16) 0.99719(16) 0.90172(17)
Br35 Br 0.47104(13) 1.04662(16) 0.72115(16)
O34 O 0.5264(7) 0.8199(10) 0.5391(6)
H29 H 0.4301 0.8444 0.5033
Br36 Br 0.27210(11) 0.89587(10) 0.37463(9)
Br37 Br 0.22506(10) 0.83358(9) 0.49066(9)
Br38 Br 0.39872(12) 0.92047(12) 0.42603(9)
Br39 Br 0.25563(12) 0.95812(9) 0.48798(11)
Br40 Br 0.37388(12) 0.79479(11) 0.43499(11)
H30 H 0.5615 0.8099 0.5437
O8_2 O 0.4559(7) 0.8035(7) 0.7251(6)
O9_2 O 0.5251(7) 0.8510(7) 0.7194(6)
O10_2 O 0.5093(7) 0.7899(7) 0.6202(6)
Dy1_2 Dy 0.55734(4) 0.76717(4) 0.69256(4)
loop_
_geom_bond_atom_site_label_1
_geom_bond_atom_site_label_2
_geom_bond_site_symmetry_1
_geom_bond_site_symmetry_2
Re1 Br1 1_555 1_555
Br2 Re1 1_555 1_555
Br3 Re1 1_555 1_555
Br4 Re1 1_555 1_555
Br5 Re1 1_555 1_555
N1 Re1 1_555 1_555
C1 N1 1_555 1_555
C2 N1 1_555 1_555
H1 C1 1_555 1_555
C3 C1 1_555 1_555
C4 C2 1_555 1_555
H2 C2 1_555 1_555
C5 C3 1_555 1_555
C6 C3 1_555 1_555
C7 C4 1_555 1_555
O1 C5 1_555 1_555
O2 C5 1_555 1_555
H3 C6 1_555 1_555
O3 C7 1_555 1_555
O4 C7 1_555 1_555
Dy1 O1 1_555 1_555
Dy2 O4 1_555 1_555
O5 Dy1 1_555 1_555
O6 Dy1 1_555 1_555
O7 Dy1 1_555 1_555
O8 Dy1 1_555 1_555
O9 Dy1 1_555 1_555
O10 Dy1 1_555 1_555
O11 Dy2 1_555 1_555
O12 Dy2 1_555 1_555
O13 Dy2 1_555 1_555
O14 Dy2 1_555 1_555
O15 Dy2 1_555 1_555
O16 Dy2 1_555 1_555
O17 Dy2 1_555 1_555
C8 O5 1_555 1_555
C9 O7 1_555 1_555
C10 O11 1_555 1_555
C11 O12 1_555 1_555
C12 O14 1_555 1_555
C13 O16 1_555 1_555
C14 O17 1_555 1_555
C15 C8 1_555 1_555
O18 C8 1_555 1_555
O19 C9 1_555 1_555
C16 C9 1_555 1_555
C17 C10 1_555 1_555
O20 C10 1_555 1_555
C18 C11 1_555 1_555
C19 C12 1_555 1_555
O21 C13 1_555 1_555
C20 C13 1_555 1_555
C21 C14 1_555 1_555
O22 C14 1_555 1_555
C22 C15 1_555 1_555
C23 C15 1_555 1_555
H4 O18 1_555 1_555
C24 C16 1_555 1_555
C25 C16 1_555 1_555
C26 C17 1_555 1_555
C27 C18 1_555 1_555
C28 C19 1_555 1_555
C29 C19 1_555 1_555
H5 O21 1_555 1_555
C30 C20 1_555 1_555
C31 C20 1_555 1_555
C32 C21 1_555 1_555
C33 C21 1_555 1_555
H6 O22 1_555 1_555
H7 C22 1_555 1_555
N2 C23 1_555 1_555
H8 C23 1_555 1_555
H9 C24 1_555 1_555
N3 C25 1_555 1_555
H10 C25 1_555 1_555
H11 C26 1_555 1_555
H12 C27 1_555 1_555
C34 C28 1_555 1_555
H13 C28 1_555 1_555
N4 C29 1_555 1_555
H14 C29 1_555 1_555
N5 C30 1_555 1_555
H15 C30 1_555 1_555
C35 C31 1_555 1_555
H16 C31 1_555 1_555
H17 C32 1_555 1_555
C36 C32 1_555 1_555
N6 C33 1_555 1_555
H18 C33 1_555 1_555
Re2 N2 1_555 1_555
Re3 N3 1_555 1_555
C37 C34 1_555 1_555
C38 C34 1_555 1_555
Re4 N4 1_555 1_555
Re5 N5 1_555 1_555
C39 N5 1_555 1_555
C40 C35 1_555 1_555
C41 C36 1_555 1_555
C42 C36 1_555 1_555
Re6 N6 1_555 1_555
Br6 Re2 1_555 1_555
Br7 Re2 1_555 1_555
Br8 Re2 1_555 1_555
Br9 Re2 1_555 1_555
Br10 Re2 1_555 1_555
Br11 Re3 1_555 1_555
Br12 Re3 1_555 1_555
Br13 Re3 1_555 1_555
Br14 Re3 1_555 1_555
Br15 Re3 1_555 1_555
H19 C37 1_555 1_555
O23 C38 1_555 1_555
O24 C38 1_555 1_555
Br16 Re4 1_555 1_555
Br17 Re4 1_555 1_555
Br18 Re4 1_555 1_555
Br19 Re4 1_555 1_555
Br20 Re4 1_555 1_555
Br21 Re5 1_555 1_555
Br22 Re5 1_555 1_555
Br23 Re5 1_555 1_555
Br24 Re5 1_555 1_555
Br25 Re5 1_555 1_555
H20 C39 1_555 1_555
O25 C40 1_555 1_555
O26 C40 1_555 1_555
O27 C41 1_555 1_555
O28 C41 1_555 1_555
H21 C42 1_555 1_555
Br26 Re6 1_555 1_555
Br27 Re6 1_555 1_555
Br28 Re6 1_555 1_555
Br29 Re6 1_555 1_555
Br30 Re6 1_555 1_555
Dy3 O23 1_555 1_555
H22 O26 1_555 1_555
O29 Dy3 1_555 1_555
O30 Dy3 1_555 1_555
O31 Dy3 1_555 1_555
O32 Dy3 1_555 1_555
C43 O29 1_555 1_555
C44 O30 1_555 1_555
O33 C43 1_555 1_555
C45 C43 1_555 1_555
C46 C44 1_555 1_555
H23 O33 1_555 1_555
C47 C45 1_555 1_555
C48 C45 1_555 1_555
C49 C46 1_555 1_555
C50 C46 1_555 1_555
C51 C47 1_555 1_555
H24 C47 1_555 1_555
N7 C48 1_555 1_555
H25 C48 1_555 1_555
H26 C49 1_555 1_555
C52 C49 1_555 1_555
N8 C50 1_555 1_555
H27 C50 1_555 1_555
C53 C51 1_555 1_555
C54 C51 1_555 1_555
Re7 N7 1_555 1_555
C55 C52 1_555 1_555
C56 C52 1_555 1_555
Re8 N8 1_555 1_555
H28 C54 1_555 1_555
Br31 Re7 1_555 1_555
Br32 Re7 1_555 1_555
Br33 Re7 1_555 1_555
Br34 Re7 1_555 1_555
Br35 Re7 1_555 1_555
O34 C55 1_555 1_555
H29 C56 1_555 1_555
Br36 Re8 1_555 1_555
Br37 Re8 1_555 1_555
Br38 Re8 1_555 1_555
Br39 Re8 1_555 1_555
Br40 Re8 1_555 1_555
H30 O34 1_555 1_555
N9 C57 1_555 1_555
C57 C60 1_555 1_555
C58 C62 1_555 1_555
C59 N9 1_555 1_555
C60 C66 1_555 1_555
C61 C63 1_555 1_555
C62 N9 1_555 1_555
C63 C59 1_555 1_555
C64 C61 1_555 1_555
C65 N9 1_555 1_555
C66 C71 1_555 1_555
C67 C65 1_555 1_555
C68 C58 1_555 1_555
C69 C67 1_555 1_555
C70 C68 1_555 1_555
C72 C69 1_555 1_555
N10 C75 1_555 1_555
C73 C74 1_555 1_555
C74 C81 1_555 1_555
C75 C79 1_555 1_555
C76 N10 1_555 1_555
C77 N10 1_555 1_555
C78 C76 1_555 1_555
C79 C82 1_555 1_555
C80 N10 1_555 1_555
C82 C83 1_555 1_555
C84 C78 1_555 1_555
C85 C80 1_555 1_555
C86 C84 1_555 1_555
C87 C85 1_555 1_555
C88 C87 1_555 1_555
N11 C94 1_555 1_555
C89 C90 1_555 1_555
C90 C91 1_555 1_555
C91 C96 1_555 1_555
C92 C94 1_555 1_555
C93 C95 1_555 1_555
C95 N11 1_555 1_555
C96 N11 1_555 1_555
C97 C92 1_555 1_555
C98 C93 1_555 1_555
C99 C98 1_555 1_555
C100 N11 1_555 1_555
C101 C97 1_555 1_555
C102 C103 1_555 1_555
C103 C100 1_555 1_555
C104 C102 1_555 1_555
N12 C106 1_555 1_555
C105 C110 1_555 1_555
C106 C108 1_555 1_555
C107 C112 1_555 1_555
C108 C114 1_555 1_555
C109 N12 1_555 1_555
C110 C115 1_555 1_555
C111 N12 1_555 1_555
C112 N12 1_555 1_555
C113 C107 1_555 1_555
C114 C117 1_555 1_555
C116 C109 1_555 1_555
C118 C113 1_555 1_555
C119 C120 1_555 1_555
C120 C116 1_555 1_555
N13 C121 1_555 1_555
C121 C125 1_555 1_555
C122 N13 1_555 1_555
C123 N13 1_555 1_555
C124 C126 1_555 1_555
C125 C126 1_555 1_555
C127 N13 1_555 1_555
C128 C122 1_555 1_555
C129 C132 1_555 1_555
C130 C127 1_555 1_555
C131 C128 1_555 1_555
C132 C123 1_555 1_555
C133 C131 1_555 1_555
C134 C130 1_555 1_555
C135 C129 1_555 1_555
C136 C134 1_555 1_555
N14 C138 1_555 1_555
C137 C140 1_555 1_555
C138 C144 1_555 1_555
C139 N14 1_555 1_555
C140 N14 1_555 1_555
C141 C139 1_555 1_555
C142 C141 1_555 1_555
C143 C144 1_555 1_555
C145 C137 1_555 1_555
C146 N14 1_555 1_555
C147 C149 1_555 1_555
C148 C143 1_555 1_555
C150 C142 1_555 1_555
C151 C146 1_555 1_555
C152 C145 1_555 1_555
N15 C153 1_555 1_555
C153 C155 1_555 1_555
C154 C155 1_555 1_555
C156 N15 1_555 1_555
C157 C160 1_555 1_555
C158 C161 1_555 1_555
C159 C154 1_555 1_555
C160 C156 1_555 1_555
C161 C162 1_555 1_555
C162 N15 1_555 1_555
C163 N15 1_555 1_555
C164 C158 1_555 1_555
C165 C157 1_555 1_555
C166 C168 1_555 1_555
C167 C163 1_555 1_555
C168 C167 1_555 1_555
N16 C169 1_555 1_555
C169 C174 1_555 1_555
C170 C172 1_555 1_555
C171 N16 1_555 1_555
C172 N16 1_555 1_555
C173 C178 1_555 1_555
C174 C178 1_555 1_555
C175 C170 1_555 1_555
C176 N16 1_555 1_555
C177 C171 1_555 1_555
C179 C180 1_555 1_555
C180 C177 1_555 1_555
C181 C176 1_555 1_555
C182 C181 1_555 1_555
C183 C182 1_555 1_555
C184 C175 1_555 1_555
C185 C197 1_555 1_555
C186 C187 1_555 1_555
N17 C189 1_555 1_555
C188 C200 1_555 1_555
C189 C199 1_555 1_555
C190 N17 1_555 1_555
C191 C192 1_555 1_555
C193 N17 1_555 1_555
C194 C193 1_555 1_555
C195 C198 1_555 1_555
C196 C186 1_555 1_555
C197 N17 1_555 1_555
C198 C185 1_555 1_555
C199 C191 1_555 1_555
C200 C194 1_555 1_555
O8_2 C53 1_555 1_555
O9_2 C53 1_555 1_555
O10_2 C55 1_555 1_555
Dy1_2 O8_2 1_555 1_555
C4 C6 1_555 1_555
O2 Dy1 1_555 1_555
O13 C11 1_555 1_555
O15 C12 1_555 1_555
C17 C22 1_555 1_555
C18 C24 1_555 1_555
C26 N2 1_555 1_555
C27 N3 1_555 1_555
N4 C37 1_555 1_555
C35 C39 1_555 1_555
N6 C42 1_555 1_555
O25 Dy3 1_555 1_555
O27 Dy3 1_555 1_555
O28 Dy3 1_555 1_555
O31 C44 1_555 1_555
N7 C54 1_555 1_555
N8 C56 1_555 1_555
C73 C77 1_555 1_555
C105 C111 1_555 1_555
C147 C151 1_555 1_555
C190 C196 1_555 1_555
O9_2 Dy1_2 1_555 1_555
O10_2 Dy1_2 1_555 1_555

#END
