
#######################################################################
#
#                 Cambridge Crystallographic Data Centre
#                                CCDC 
#
#######################################################################
#
# If this CIF has been generated from an entry in the Cambridge 
# Structural Database, then it will include bibliographic, chemical, 
# crystal, experimental, refinement or atomic coordinate data resulting 
# from the CCDC's data processing and validation procedures.
#
#######################################################################

data_NUFYIW
_symmetry_cell_setting           orthorhombic
_symmetry_space_group_name_H-M   'I b a m'
_symmetry_Int_Tables_number      72
_space_group_name_Hall           '-I 2 2c'
loop_
_symmetry_equiv_pos_site_id
_symmetry_equiv_pos_as_xyz
1 x,y,z
2 1/2+x,1/2+y,1/2+z
3 x,y,-z
4 1/2+x,1/2-y,z
5 1/2-x,1/2+y,z
6 1/2+x,1/2+y,1/2-z
7 x,-y,1/2+z
8 -x,y,1/2+z
9 -x,-y,-z
10 1/2-x,1/2-y,1/2-z
11 -x,-y,z
12 1/2-x,1/2+y,-z
13 1/2+x,1/2-y,-z
14 1/2-x,1/2-y,1/2+z
15 -x,y,1/2-z
16 x,-y,1/2-z
_cell_length_a                   11.1283(5)
_cell_length_b                   15.5927(8)
_cell_length_c                   22.3178(11)
_cell_angle_alpha                90
_cell_angle_beta                 90
_cell_angle_gamma                90
_cell_volume                     3872.59
loop_
_atom_site_label
_atom_site_type_symbol
_atom_site_fract_x
_atom_site_fract_y
_atom_site_fract_z
Cu1 Cu 1.0000 0.0000 0.2500
O1 O 1.0000 -0.1614(2) 0.2500
H1 H 0.9934 -0.1789(2) 0.2845
N1 N 0.1831(2) 0.0000 0.2500
N2 N 1.0000 0.0000 0.34122(11)
C1 C 0.2450(2) 0.0663(2) 0.27159(12)
H3 H 0.2027(2) 0.1128(2) 0.28690(12)
C2 C 0.3687(2) 0.0690(2) 0.27191(12)
H4 H 0.4085(2) 0.1168(2) 0.28701(12)
C3 C 0.4333(2) 0.0000 0.2500
C4 C 1.0673(2) -0.0547(2) 0.37250(11)
H5 H 1.1149(2) -0.0936(2) 0.35168(11)
C5 C 1.0697(2) -0.0564(2) 0.43378(12)
H6 H 1.1181(2) -0.0961(2) 0.45340(12)
C6 C 1.0000 0.0000 0.46691(13)
C2O C 0.3687(2) -0.0690(2) 0.22809(12)
C1O C 0.2450(2) -0.0663(2) 0.22841(12)
H3O H 0.2027(2) -0.1128(2) 0.21310(12)
H4O H 0.4085(2) -0.1168(2) 0.21299(12)
C3J C 0.5667(2) 0.0000 0.2500
C2J C 0.6313(2) -0.0690(2) 0.27191(12)
C1J C 0.7550(2) -0.0663(2) 0.27159(12)
N1J N 0.8169(2) 0.0000 0.2500
Cu1_2 Cu 0.0000 0.0000 0.2500
O1J O 1.0000 0.1614(2) 0.2500
N1_2 N 1.1831(2) 0.0000 0.2500
N2_2 N 0.0000 0.0000 0.34122(11)
C5J C 0.9303(2) 0.0564(2) 0.43378(12)
C4J C 0.9327(2) 0.0547(2) 0.37250(11)
H5J H 0.8851(2) 0.0936(2) 0.35168(11)
H6J H 0.8819(2) 0.0961(2) 0.45340(12)
C6B C 1.0000 0.0000 0.53309(13)
C5B C 1.0697(2) -0.0564(2) 0.56622(12)
C4B C 1.0673(2) -0.0547(2) 0.62750(11)
N2B N 1.0000 0.0000 0.65878(11)
Cu1B Cu 1.0000 0.0000 0.7500
C4H C 0.9327(2) 0.0547(2) 0.62750(11)
H5H H 0.8851(2) 0.0936(2) 0.64832(11)
C5H C 0.9303(2) 0.0564(2) 0.56622(12)
H6H H 0.8819(2) 0.0961(2) 0.54660(12)
H5B H 1.1149(2) -0.0936(2) 0.64832(11)
H6B H 1.1181(2) -0.0961(2) 0.54660(12)
N2N N 1.0000 0.0000 0.15878(11)
C1N C 0.7550(2) 0.0663(2) 0.22841(12)
H3N H 0.7973(2) 0.1128(2) 0.21310(12)
C2N C 0.6313(2) 0.0690(2) 0.22809(12)
H4N H 0.5915(2) 0.1168(2) 0.21299(12)
H3J H 0.7973(2) -0.1128(2) 0.28690(12)
H4J H 0.5915(2) -0.1168(2) 0.28701(12)
N1J_2 N -0.1831(2) 0.0000 0.2500
N2N_2 N 0.0000 0.0000 0.15878(11)
H1N H 1.0066 -0.1789(2) 0.2155
H1J H 1.0066 0.1789(2) 0.2845
H1O H 0.9934 0.1789(2) 0.2155
N3 N 0.2848(3) 0.1596(2) 0.5000
H2 H 0.2332(3) 0.2007(2) 0.5000
C7 C 0.3233(5) 0.1288(3) 0.4509(2)
H7 H 0.2905(5) 0.1482(3) 0.4150(2)
C8 C 0.4084(4) 0.0653(3) 0.4496(2)
H8 H 0.4377(4) 0.0455(3) 0.4131(2)
C9 C 0.4529(3) 0.0334(2) 0.5000
C8B C 0.4084(4) 0.0653(3) 0.5504(2)
C7B C 0.3233(5) 0.1288(3) 0.5491(2)
H7B H 0.2905(5) 0.1482(3) 0.5850(2)
H8B H 0.4377(4) 0.0455(3) 0.5869(2)
C9H C 0.5471(3) -0.0334(2) 0.5000
C8H C 0.5916(4) -0.0653(3) 0.5504(2)
C7H C 0.6767(5) -0.1288(3) 0.5491(2)
N3H N 0.7152(3) -0.1596(2) 0.5000
H2H H 0.7668(3) -0.2007(2) 0.5000
C7J C 0.6767(5) -0.1288(3) 0.4509(2)
H7J H 0.7095(5) -0.1482(3) 0.4150(2)
C8J C 0.5916(4) -0.0653(3) 0.4496(2)
H8J H 0.5623(4) -0.0455(3) 0.4131(2)
H7H H 0.7095(5) -0.1482(3) 0.5850(2)
H8H H 0.5623(4) -0.0455(3) 0.5869(2)
Cl1 Cl 0.13500(9) 0.29458(6) 0.37714(5)
O2 O 0.0240(4) 0.2788(3) 0.3486(2)
O3 O 0.1476(5) 0.3851(2) 0.3732(3)
O4 O 0.2244(5) 0.2525(3) 0.3453(2)
O5 O 0.1260(5) 0.2694(4) 0.4362(2)
O6? O 0.0820(12) 0.2177(7) 0.3804(7)
O7? O 0.0770(12) 0.3615(7) 0.3568(6)
O8? O 0.2385(8) 0.2774(8) 0.3359(6)
O9? O 0.2015(8) 0.3109(6) 0.4292(5)
loop_
_geom_bond_atom_site_label_1
_geom_bond_atom_site_label_2
_geom_bond_site_symmetry_1
_geom_bond_site_symmetry_2
Cu1 O1 1_555 1_555
O1 H1 1_555 1_555
N1 C1 1_555 1_555
N2 Cu1 1_555 1_555
N3 H2 1_555 1_555
C1 H3 1_555 1_555
C2 C1 1_555 1_555
H4 C2 1_555 1_555
C3 C2 1_555 1_555
C4 N2 1_555 1_555
H5 C4 1_555 1_555
C5 C4 1_555 1_555
H6 C5 1_555 1_555
C6 C5 1_555 1_555
C7 N3 1_555 1_555
H7 C7 1_555 1_555
C8 C7 1_555 1_555
H8 C8 1_555 1_555
C9 C8 1_555 1_555
Cl1 O2 1_555 1_555
O3 Cl1 1_555 1_555
O4 Cl1 1_555 1_555
O5 Cl1 1_555 1_555
C2O C3 1_555 1_555
C1O N1 1_555 1_555
H3O C1O 1_555 1_555
H4O C2O 1_555 1_555
C3J C3 1_555 1_555
C2J C3J 1_555 1_555
C1J C2J 1_555 1_555
N1J Cu1 1_555 1_555
Cu1_2 N1 1_555 1_555
O1J Cu1 1_555 1_555
N1_2 Cu1 1_555 1_555
N2_2 Cu1_2 1_555 1_555
C5J C6 1_555 1_555
C4J N2 1_555 1_555
H5J C4J 1_555 1_555
H6J C5J 1_555 1_555
C6B C6 1_555 1_555
C5B C6B 1_555 1_555
C4B C5B 1_555 1_555
N2B C4B 1_555 1_555
Cu1B N2B 1_555 1_555
C4H N2B 1_555 1_555
H5H C4H 1_555 1_555
C5H C6B 1_555 1_555
H6H C5H 1_555 1_555
H5B C4B 1_555 1_555
H6B C5B 1_555 1_555
N2N Cu1 1_555 1_555
C1N N1J 1_555 1_555
H3N C1N 1_555 1_555
C2N C3J 1_555 1_555
H4N C2N 1_555 1_555
H3J C1J 1_555 1_555
H4J C2J 1_555 1_555
N1J_2 Cu1_2 1_555 1_555
N2N_2 Cu1_2 1_555 1_555
C8B C9 1_555 1_555
C7B N3 1_555 1_555
H7B C7B 1_555 1_555
H8B C8B 1_555 1_555
C9H C9 1_555 1_555
C8H C9H 1_555 1_555
C7H C8H 1_555 1_555
N3H C7H 1_555 1_555
H2H N3H 1_555 1_555
C7J N3H 1_555 1_555
H7J C7J 1_555 1_555
C8J C9H 1_555 1_555
H8J C8J 1_555 1_555
H7H C7H 1_555 1_555
H8H C8H 1_555 1_555
H1N O1 1_555 1_555
H1J O1J 1_555 1_555
H1O O1J 1_555 1_555
C2O C1O 1_555 1_555
C1J N1J 1_555 1_555
C5J C4J 1_555 1_555
C4H C5H 1_555 1_555
C1N C2N 1_555 1_555
C8B C7B 1_555 1_555
C7J C8J 1_555 1_555

#END
