
#######################################################################
#
#                 Cambridge Crystallographic Data Centre
#                                CCDC 
#
#######################################################################
#
# If this CIF has been generated from an entry in the Cambridge 
# Structural Database, then it will include bibliographic, chemical, 
# crystal, experimental, refinement or atomic coordinate data resulting 
# from the CCDC's data processing and validation procedures.
#
#######################################################################

data_NUFYIX
_symmetry_cell_setting           monoclinic
_symmetry_space_group_name_H-M   'P 21/c'
_symmetry_Int_Tables_number      14
_space_group_name_Hall           '-P 2ybc'
loop_
_symmetry_equiv_pos_site_id
_symmetry_equiv_pos_as_xyz
1 x,y,z
2 -x,1/2+y,1/2-z
3 -x,-y,-z
4 x,1/2-y,1/2+z
_cell_length_a                   9.923611(54)
_cell_length_b                   10.194649(65)
_cell_length_c                   7.193579(39)
_cell_angle_alpha                90
_cell_angle_beta                 92.55031(45)
_cell_angle_gamma                90
_cell_volume                     727.037
loop_
_atom_site_label
_atom_site_type_symbol
_atom_site_fract_x
_atom_site_fract_y
_atom_site_fract_z
In1 In 0.991081(76) 0.256341(91) 0.103548(90)
O1 O 0.98829(59) 0.35060(40) -0.15068(81)
O2 O 1.12794(43) 0.40001(46) 0.23248(50)
O3 O 1.17883(52) 0.33959(49) 0.53404(58)
O4 O 1.83543(47) 0.37695(50) 0.49029(60)
O5 O 1.82340(48) 0.37992(50) 0.17894(58)
C1 C 1.62553(48) 0.43674(58) 0.33398(65)
C2 C 1.55068(45) 0.38780(63) 0.18185(83)
C3 C 1.41049(45) 0.38788(66) 0.20103(76)
C4 C 1.34926(46) 0.43195(58) 0.36381(68)
C5 C 1.42846(33) 0.49953(55) 0.50509(68)
C6 C 1.77359(45) 0.39718(68) 0.33482(62)
C7 C 1.20127(42) 0.39216(67) 0.37696(55)
O2B O 1.87206(43) 0.59999(46) 0.76752(50)
O3B O 1.82117(52) 0.66041(49) 0.46596(58)
O4B O 1.16457(47) 0.62305(50) 0.50971(60)
O5B O 1.17660(48) 0.62008(50) 0.82106(58)
C1B C 1.37447(48) 0.56326(58) 0.66602(65)
C2B C 1.44932(45) 0.61220(63) 0.81815(83)
C3B C 1.58951(45) 0.61212(66) 0.79897(76)
C4B C 1.65074(46) 0.56805(58) 0.63619(68)
C5B C 1.57154(33) 0.50047(55) 0.49491(68)
C6B C 1.22641(45) 0.60282(68) 0.66518(62)
C7B C 1.79873(42) 0.60784(67) 0.62304(55)
In1B In 1.008919(76) 0.743659(91) 0.896452(90)
O1B O 1.01171(59) 0.64940(40) 1.15068(81)
In1_2 In 1.991081(76) 0.256341(91) 0.103548(90)
In1A In 1.008919(76) 0.756341(91) 0.396452(90)
In1A_2 In 1.008919(76) 0.756341(91) 1.396452(90)
In1A_3 In 2.008919(76) 0.756341(91) 0.396452(90)
In1B_2 In 2.008919(76) 0.743659(91) 0.896452(90)
In1C In 0.991081(76) 0.243659(91) -0.396452(90)
In1C_2 In 0.991081(76) 0.243659(91) 0.603548(90)
In1C_3 In 1.991081(76) 0.243659(91) 0.603548(90)
O1A O 1.01171(59) 0.85060(40) 0.65068(81)
O1C O 0.98829(59) 0.14940(40) 0.34932(81)
O2B_2 O 0.87206(43) 0.59999(46) 0.76752(50)
O3A O 0.82117(52) 0.83959(49) 0.96596(58)
O3C O 1.17883(52) 0.16041(49) 0.03404(58)
O4A O 1.16457(47) 0.87695(50) 1.00971(60)
O4C O 0.83543(47) 0.12305(50) -0.00971(60)
O5_2 O 0.82340(48) 0.37992(50) 0.17894(58)
loop_
_geom_bond_atom_site_label_1
_geom_bond_atom_site_label_2
_geom_bond_site_symmetry_1
_geom_bond_site_symmetry_2
In1 O1 1_555 1_555
O1 In1C 1_555 1_555
O2 In1 1_555 1_555
O3 C7 1_555 1_555
O4 C6 1_555 1_555
O5 C6 1_555 1_555
C1 C2 1_555 1_555
C2 C3 1_555 1_555
C3 C4 1_555 1_555
C4 C5 1_555 1_555
C5 C1B 1_555 1_555
C6 C1 1_555 1_555
C7 O2 1_555 1_555
O2B C7B 1_555 1_555
O3B C7B 1_555 1_555
O4B C6B 1_555 1_555
O5B C6B 1_555 1_555
C1B C2B 1_555 1_555
C2B C3B 1_555 1_555
C3B C4B 1_555 1_555
C4B C5B 1_555 1_555
C5B C1 1_555 1_555
C6B C1B 1_555 1_555
C7B C4B 1_555 1_555
In1B O5B 1_555 1_555
O1B In1B 1_555 1_555
In1_2 O5 1_555 1_555
In1A O4B 1_555 1_555
In1A_2 O1B 1_555 1_555
In1A_3 O3B 1_555 1_555
In1B_2 O2B 1_555 1_555
In1C_2 O3 1_555 1_555
In1C_3 O4 1_555 1_555
O1A In1B 1_555 1_555
O1C In1 1_555 1_555
O2B_2 In1B 1_555 1_555
O3A In1B 1_555 1_555
O3C In1 1_555 1_555
O4A In1B 1_555 1_555
O4C In1 1_555 1_555
O5_2 In1 1_555 1_555
C4 C7 1_555 1_555
C5 C5B 1_555 1_555
In1A O1A 1_555 1_555
In1C_2 O1C 1_555 1_555

#END
