
#######################################################################
#
#                 Cambridge Crystallographic Data Centre
#                                CCDC 
#
#######################################################################
#
# If this CIF has been generated from an entry in the Cambridge 
# Structural Database, then it will include bibliographic, chemical, 
# crystal, experimental, refinement or atomic coordinate data resulting 
# from the CCDC's data processing and validation procedures.
#
#######################################################################

data_NUFYAO
_symmetry_cell_setting           monoclinic
_symmetry_space_group_name_H-M   'P 2/n'
_symmetry_Int_Tables_number      13
_space_group_name_Hall           '-P 2yac'
loop_
_symmetry_equiv_pos_site_id
_symmetry_equiv_pos_as_xyz
1 x,y,z
2 1/2+x,-y,1/2+z
3 -x,-y,-z
4 1/2-x,y,1/2-z
_cell_length_a                   13.231(3)
_cell_length_b                   11.669(2)
_cell_length_c                   15.019(3)
_cell_angle_alpha                90
_cell_angle_beta                 112.82(3)
_cell_angle_gamma                90
_cell_volume                     2137.32
loop_
_atom_site_label
_atom_site_type_symbol
_atom_site_fract_x
_atom_site_fract_y
_atom_site_fract_z
N4 N 1.4393(3) 0.2973(4) 0.8759(4)
N5 N 1.0847(3) 0.1697(4) 0.8901(3)
C12 C 1.5234(5) 0.3548(6) 0.8681(6)
H11 H 1.5855(5) 0.3183(6) 0.8679(6)
C13 C 1.5286(5) 0.4700(5) 0.8616(6)
H12 H 1.5805(5) 0.5129(5) 0.8447(6)
C14 C 1.4437(5) 0.5313(5) 0.8634(5)
H13 H 1.4460(5) 0.6070(5) 0.8643(5)
C15 C 1.3554(4) 0.4774(4) 0.8712(4)
H14 H 1.2943(4) 0.5302(4) 0.8729(4)
C16 C 1.3564(3) 0.3601(4) 0.8774(3)
C17 C 1.2622(3) 0.2950(3) 0.8831(3)
C18 C 1.1798(3) 0.3461(4) 0.9036(3)
H15 H 1.1903(3) 0.4287(4) 0.9187(3)
C19 C 1.0939(3) 0.2812(4) 0.9073(3)
H16 H 1.0460(3) 0.3370(4) 0.9238(3)
C20 C 1.1644(4) 0.1195(4) 0.8696(4)
H17 H 1.1502(4) 0.0317(4) 0.8483(4)
C21 C 1.2535(3) 0.1778(4) 0.8673(3)
H18 H 1.3128 0.1361 0.8504
Cl1 Cl 1.07538(8) -0.29572(9) 0.88868(6)
O2 O 1.0498(3) -0.2002(3) 0.9345(2)
O3 O 1.0416(4) -0.3966(3) 0.9252(3)
O4 O 1.1872(3) -0.3043(5) 0.9140(5)
O5 O 1.0117(4) -0.2916(4) 0.7891(2)
O6 O 0.7500 0.1850(6) 0.2500
H19 H 0.6933 0.2283(6) 0.2122
H19C H 0.8067 0.2283(6) 0.2878
Cd1 Cd 0.7500 0.02178(2) 0.7500
N1 N 0.7500 -0.1764(3) 0.7500
C1 C 0.7691(3) -0.2356(3) 0.8309(2)
H1 H 0.7832(3) -0.1918(3) 0.8891(2)
C2 C 0.7696(3) -0.3529(3) 0.8338(2)
H2 H 0.7705(3) -0.3862(3) 0.8833(2)
C3 C 0.7500 -0.4151(4) 0.7500
C4 C 0.7500 -0.5415(4) 0.7500
C5 C 0.8116(3) -0.6032(3) 0.8321(2)
H3 H 0.8488(3) -0.5585(3) 0.8859(2)
C6 C 0.8094(3) -0.7211(3) 0.8288(2)
H4 H 0.8478(3) -0.7625(3) 0.8769(2)
N2 N 0.7500 0.2195(3) 0.7500
N3 N 0.6557(2) 0.0144(2) 0.8539(2)
O1 O 0.9203(2) -0.9812(2) 0.8838(2)
H5 H 0.9492(2) -1.0520(2) 0.8969(2)
H6 H 0.9615(2) -0.9175(2) 0.8875(2)
C7 C 0.6838(3) -0.9271(3) 0.9363(2)
H7 H 0.7320(3) -0.8697(3) 0.9431(2)
C8 C 0.6253(3) -0.9287(3) 0.9939(3)
H8 H 0.6564(3) -0.8876(3) 1.0519(3)
C9 C 0.5319(3) -0.9970(3) 0.9692(2)
C10 C 0.4965(3) -0.9423(4) 1.1157(3)
H9 H 0.5546(3) -0.8892(4) 1.1298(3)
C11 C 0.4341(3) -0.9503(4) 1.1708(3)
H10 H 0.4440(3) -0.9027(4) 1.2281(3)
C2C C 0.7304(3) -0.3529(3) 0.6662(2)
C1C C 0.7309(3) -0.2356(3) 0.6691(2)
H1C H 0.7168(3) -0.1918(3) 0.6109(2)
H2C H 0.7295(3) -0.3862(3) 0.6167(2)
N2_2 N 0.7500 -0.7805(3) 0.7500
Cd1_2 Cd 0.7500 -0.97822(2) 0.7500
N1_2 N 0.7500 -1.1764(3) 0.7500
N3_2 N 0.6557(2) -0.9856(2) 0.8539(2)
C9B C 0.4681(3) -1.0030(3) 1.0308(2)
C8B C 0.3747(3) -1.0713(3) 1.0061(3)
C7B C 0.3162(3) -1.0729(3) 1.0637(2)
N3B N 0.3443(2) -1.0144(2) 1.1461(2)
Cd1B Cd 0.2500 -1.02178(2) 1.2500
H7B H 0.2680(3) -1.1303(3) 1.0569(2)
H8B H 0.3436(3) -1.1124(3) 0.9481(3)
C10B C 0.5035(3) -1.0577(4) 0.8843(3)
H9B H 0.4454(3) -1.1108(4) 0.8702(3)
C11B C 0.5659(3) -1.0497(4) 0.8292(3)
H10B H 0.5560(3) -1.0973(4) 0.7719(3)
O1C O 0.5797(2) -0.9812(2) 0.6162(2)
H5C H 0.5508(2) -1.0520(2) 0.6031(2)
H6C H 0.5385(2) -0.9175(2) 0.6125(2)
C6C C 0.6906(3) -0.7211(3) 0.6712(2)
C5C C 0.6884(3) -0.6032(3) 0.6679(2)
H3C H 0.6512(3) -0.5585(3) 0.6141(2)
H4C H 0.6522(3) -0.7625(3) 0.6231(2)
loop_
_geom_bond_atom_site_label_1
_geom_bond_atom_site_label_2
_geom_bond_site_symmetry_1
_geom_bond_site_symmetry_2
Cd1 N1 1_555 1_555
N1 C1 1_555 1_555
C1 H1 1_555 1_555
C2 C1 1_555 1_555
H2 C2 1_555 1_555
C3 C2 1_555 1_555
C4 C3 1_555 1_555
C5 C4 1_555 1_555
H3 C5 1_555 1_555
C6 C5 1_555 1_555
H4 C6 1_555 1_555
N2 Cd1 1_555 1_555
N3 Cd1 1_555 1_555
O1 H5 1_555 1_555
H6 O1 1_555 1_555
C7 H7 1_555 1_555
C8 C7 1_555 1_555
H8 C8 1_555 1_555
C9 C8 1_555 1_555
C10 H9 1_555 1_555
C11 C10 1_555 1_555
H10 C11 1_555 1_555
N4 C12 1_555 1_555
N5 C19 1_555 1_555
C12 H11 1_555 1_555
C13 C12 1_555 1_555
H12 C13 1_555 1_555
C14 C13 1_555 1_555
H13 C14 1_555 1_555
C15 C14 1_555 1_555
H14 C15 1_555 1_555
C16 N4 1_555 1_555
C17 C16 1_555 1_555
C18 C17 1_555 1_555
H15 C18 1_555 1_555
C19 C18 1_555 1_555
H16 C19 1_555 1_555
C20 N5 1_555 1_555
H17 C20 1_555 1_555
C21 C17 1_555 1_555
H18 C21 1_555 1_555
Cl1 O2 1_555 1_555
O3 Cl1 1_555 1_555
O4 Cl1 1_555 1_555
O5 Cl1 1_555 1_555
O6 H19 1_555 1_555
C2C C3 1_555 1_555
C1C N1 1_555 1_555
H1C C1C 1_555 1_555
H2C C2C 1_555 1_555
N2_2 C6 1_555 1_555
Cd1_2 O1 1_555 1_555
N1_2 Cd1_2 1_555 1_555
N3_2 C7 1_555 1_555
C9B C9 1_555 1_555
C8B C9B 1_555 1_555
C7B C8B 1_555 1_555
N3B C11 1_555 1_555
Cd1B N3B 1_555 1_555
H7B C7B 1_555 1_555
H8B C8B 1_555 1_555
C10B C9 1_555 1_555
H9B C10B 1_555 1_555
C11B N3_2 1_555 1_555
H10B C11B 1_555 1_555
O1C Cd1_2 1_555 1_555
H5C O1C 1_555 1_555
H6C O1C 1_555 1_555
C6C N2_2 1_555 1_555
C5C C4 1_555 1_555
H3C C5C 1_555 1_555
H4C C6C 1_555 1_555
H19C O6 1_555 1_555
C10 C9B 1_555 1_555
C15 C16 1_555 1_555
C20 C21 1_555 1_555
C2C C1C 1_555 1_555
N2_2 Cd1_2 1_555 1_555
Cd1_2 N3_2 1_555 1_555
C7B N3B 1_555 1_555
C10B C11B 1_555 1_555
C6C C5C 1_555 1_555

#END
