
#######################################################################
#
#                 Cambridge Crystallographic Data Centre
#                                CCDC 
#
#######################################################################
#
# If this CIF has been generated from an entry in the Cambridge 
# Structural Database, then it will include bibliographic, chemical, 
# crystal, experimental, refinement or atomic coordinate data resulting 
# from the CCDC's data processing and validation procedures.
#
#######################################################################

data_NUFYAP
_symmetry_cell_setting           monoclinic
_symmetry_space_group_name_H-M   'P 21/c'
_symmetry_Int_Tables_number      14
_space_group_name_Hall           '-P 2ybc'
loop_
_symmetry_equiv_pos_site_id
_symmetry_equiv_pos_as_xyz
1 x,y,z
2 -x,1/2+y,1/2-z
3 -x,-y,-z
4 x,1/2-y,1/2+z
_cell_length_a                   9.51818(14)
_cell_length_b                   10.069485(96)
_cell_length_c                   6.64637(17)
_cell_angle_alpha                90
_cell_angle_beta                 91.2628(49)
_cell_angle_gamma                90
_cell_volume                     636.854
loop_
_atom_site_label
_atom_site_type_symbol
_atom_site_fract_x
_atom_site_fract_y
_atom_site_fract_z
Al1 Al 0.9995(11) 0.25508(43) 0.10899(87)
O1 O 0.99240(84) 0.33580(44) -0.1423(11)
O2 O 1.13291(62) 0.38722(58) 0.19534(57)
O3 O 1.14969(62) 0.35603(77) 0.53249(64)
O4 O 1.85401(63) 0.36099(81) 0.50471(73)
O5 O 1.84934(62) 0.37615(59) 0.18365(69)
C1 C 1.63512(50) 0.43029(56) 0.33841(70)
C2 C 1.56665(46) 0.37338(79) 0.17136(94)
C3 C 1.41823(45) 0.37538(83) 0.17897(86)
C4 C 1.35101(48) 0.43402(57) 0.34494(69)
C5 C 1.42509(30) 0.50083(62) 0.49938(97)
C6 C 1.78551(52) 0.39135(77) 0.34803(68)
C7 C 1.19917(51) 0.38926(74) 0.36188(59)
O2B O 1.86709(62) 0.61278(58) 0.80466(57)
O3B O 1.85031(62) 0.64397(77) 0.46751(64)
O4B O 1.14599(63) 0.63901(81) 0.49529(73)
O5B O 1.15066(62) 0.62385(59) 0.81635(69)
C1B C 1.36488(50) 0.56971(56) 0.66159(70)
C2B C 1.43335(46) 0.62662(79) 0.82864(94)
C3B C 1.58177(45) 0.62462(83) 0.82103(86)
C4B C 1.64899(48) 0.56598(57) 0.65506(69)
C5B C 1.57491(30) 0.49917(62) 0.50062(97)
C6B C 1.21449(52) 0.60865(77) 0.65197(68)
C7B C 1.80083(51) 0.61074(74) 0.63812(59)
Al1B Al 1.0005(11) 0.74492(43) 0.89101(87)
O1B O 1.00760(84) 0.66420(44) 1.1423(11)
Al1_2 Al 1.9995(11) 0.25508(43) 0.10899(87)
Al1A Al 1.0005(11) 0.75508(43) 0.39101(87)
Al1A_2 Al 1.0005(11) 0.75508(43) 1.39101(87)
Al1A_3 Al 2.0005(11) 0.75508(43) 0.39101(87)
Al1B_2 Al 2.0005(11) 0.74492(43) 0.89101(87)
Al1C Al 0.9995(11) 0.24492(43) -0.39101(87)
Al1C_2 Al 0.9995(11) 0.24492(43) 0.60899(87)
Al1C_3 Al 1.9995(11) 0.24492(43) 0.60899(87)
O1A O 1.00760(84) 0.83580(44) 0.6423(11)
O1C O 0.99240(84) 0.16420(44) 0.3577(11)
O2B_2 O 0.86709(62) 0.61278(58) 0.80466(57)
O3A O 0.85031(62) 0.85603(77) 0.96751(64)
O3C O 1.14969(62) 0.14397(77) 0.03249(64)
O4A O 1.14599(63) 0.86099(81) 0.99529(73)
O4C O 0.85401(63) 0.13901(81) 0.00471(73)
O5_2 O 0.84934(62) 0.37615(59) 0.18365(69)
loop_
_geom_bond_atom_site_label_1
_geom_bond_atom_site_label_2
_geom_bond_site_symmetry_1
_geom_bond_site_symmetry_2
Al1 O1 1_555 1_555
O1 Al1C 1_555 1_555
O2 Al1 1_555 1_555
O3 C7 1_555 1_555
O4 C6 1_555 1_555
O5 C6 1_555 1_555
C1 C2 1_555 1_555
C2 C3 1_555 1_555
C3 C4 1_555 1_555
C4 C5 1_555 1_555
C5 C1B 1_555 1_555
C6 C1 1_555 1_555
C7 O2 1_555 1_555
O2B C7B 1_555 1_555
O3B C7B 1_555 1_555
O4B C6B 1_555 1_555
O5B C6B 1_555 1_555
C1B C2B 1_555 1_555
C2B C3B 1_555 1_555
C3B C4B 1_555 1_555
C4B C5B 1_555 1_555
C5B C1 1_555 1_555
C6B C1B 1_555 1_555
C7B C4B 1_555 1_555
Al1B O5B 1_555 1_555
O1B Al1B 1_555 1_555
Al1_2 O5 1_555 1_555
Al1A O4B 1_555 1_555
Al1A_2 O1B 1_555 1_555
Al1A_3 O3B 1_555 1_555
Al1B_2 O2B 1_555 1_555
Al1C_2 O3 1_555 1_555
Al1C_3 O4 1_555 1_555
O1A Al1B 1_555 1_555
O1C Al1 1_555 1_555
O2B_2 Al1B 1_555 1_555
O3A Al1B 1_555 1_555
O3C Al1 1_555 1_555
O4A Al1B 1_555 1_555
O4C Al1 1_555 1_555
O5_2 Al1 1_555 1_555
C4 C7 1_555 1_555
C5 C5B 1_555 1_555
Al1A O1A 1_555 1_555
Al1C_2 O1C 1_555 1_555

#END
