
#######################################################################
#
#                 Cambridge Crystallographic Data Centre
#                                CCDC 
#
#######################################################################
#
# If this CIF has been generated from an entry in the Cambridge 
# Structural Database, then it will include bibliographic, chemical, 
# crystal, experimental, refinement or atomic coordinate data resulting 
# from the CCDC's data processing and validation procedures.
#
#######################################################################

data_NUFYUJ
_symmetry_cell_setting           monoclinic
_symmetry_space_group_name_H-M   'P 21'
_symmetry_Int_Tables_number      4
_space_group_name_Hall           'P 2yb'
loop_
_symmetry_equiv_pos_site_id
_symmetry_equiv_pos_as_xyz
1 x,y,z
2 -x,1/2+y,-z
_cell_length_a                   9.992(6)
_cell_length_b                   22.530(14)
_cell_length_c                   10.094(6)
_cell_angle_alpha                90
_cell_angle_beta                 113.163(7)
_cell_angle_gamma                90
_cell_volume                     2089.18
loop_
_atom_site_label
_atom_site_type_symbol
_atom_site_fract_x
_atom_site_fract_y
_atom_site_fract_z
Cu1 Cu 0.40114(16) 0.52430(8) 0.51616(15)
Cu2 Cu 0.22443(19) 0.44826(8) 0.69039(16)
O1 O 0.4217(10) 0.6090(5) 0.4931(9)
O2 O 0.5504(11) 0.5684(5) 0.3798(10)
O3 O 0.7681(13) 0.6598(5) 0.1981(11)
O4 O 0.3721(9) 0.4392(5) 0.5466(9)
O5 O 0.4990(14) 0.4093(5) 0.4288(12)
O6 O 0.2603(10) 0.5297(6) 0.6531(9)
O7 O 0.1397(11) 0.5607(5) 0.7813(10)
O8 O 0.7842(12) 0.8508(6) 1.2986(11)
O9 O 0.9157(11) 0.8996(6) 1.1941(10)
O10 O 1.2572(18) 0.8278(7) 1.1754(18)
N1 N 0.5921(10) 0.5229(6) 0.6907(9)
N2 N 1.2275(10) 0.5245(6) 1.3251(10)
N3 N 0.6793(15) 0.6748(6) 0.3663(15)
N4 N 0.0344(11) 0.4452(6) 0.5139(10)
N5 N -0.6023(11) 0.4445(6) -0.1283(10)
N6 N 1.0147(17) 0.8007(6) 1.1239(16)
C1 C 0.5063(18) 0.6129(9) 0.4217(16)
C2 C 0.5312(18) 0.6733(8) 0.3880(17)
C3 C 0.451(2) 0.6945(8) 0.2401(17)
C4 C 0.5085(19) 0.6734(8) 0.1342(18)
C5 C 0.663(2) 0.6707(8) 0.228(2)
C6 C 0.8179(18) 0.6581(7) 0.4995(16)
C7 C 0.8570(16) 0.6996(6) 0.6281(15)
C8 C 0.9342(15) 0.6785(7) 0.7625(16)
C9 C 0.9626(19) 0.7197(6) 0.8767(18)
C10 C 0.9234(19) 0.7804(7) 0.8577(16)
C11 C 0.8297(18) 0.7941(7) 0.7124(15)
C12 C 0.8103(18) 0.7579(6) 0.5950(17)
C13 C 0.953(2) 0.8263(7) 0.9787(16)
C14 C 0.6009(15) 0.5581(6) 0.7987(14)
C15 C 0.7388(15) 0.5640(6) 0.9262(13)
C16 C 0.8520(13) 0.5293(7) 0.9357(12)
C17 C 0.8307(13) 0.4959(6) 0.8179(12)
C18 C 0.7084(13) 0.4933(6) 0.6981(12)
C19 C 1.2204(14) 0.4881(6) 1.2202(13)
C20 C 1.0935(14) 0.4865(6) 1.0930(13)
C21 C 0.9786(13) 0.5301(7) 1.0665(13)
C22 C 1.0029(15) 0.5717(7) 1.1768(14)
C23 C 1.1292(15) 0.5668(7) 1.3010(15)
C24 C -0.0658(15) 0.4902(7) 0.4886(14)
C25 C -0.1960(14) 0.4895(6) 0.3647(13)
C26 C -0.2158(13) 0.4424(7) 0.2695(12)
C27 C -0.1133(15) 0.4007(7) 0.3021(14)
C28 C 0.0067(16) 0.4020(7) 0.4231(14)
C29 C 0.4275(19) 0.4004(10) 0.5074(18)
C30 C 0.2139(19) 0.5729(8) 0.7059(18)
C31 C -0.5907(14) 0.4808(7) -0.0153(13)
C32 C -0.4775(13) 0.4782(6) 0.1201(13)
C33 C -0.3580(13) 0.4420(7) 0.1363(12)
C34 C -0.3608(15) 0.4101(6) 0.0140(13)
C35 C -0.4885(16) 0.4119(7) -0.1122(14)
C36 C 0.8688(19) 0.8577(10) 1.2391(18)
C37 C 0.9324(17) 0.7929(8) 1.2127(16)
C38 C 1.0374(17) 0.7698(8) 1.3417(17)
C39 C 1.1850(19) 0.7934(8) 1.3528(19)
C40 C 1.149(3) 0.8071(9) 1.210(2)
H1 H 0.52940 0.70240 0.46220
H2 H 0.45180 0.73850 0.24060
H3 H 0.34800 0.68170 0.20810
H4 H 0.46920 0.63390 0.09480
H5 H 0.48920 0.70190 0.05420
H6 H 0.80480 0.61770 0.53070
H7 H 0.90120 0.65670 0.46970
H8 H 0.96730 0.63860 0.77910
H9 H 1.01120 0.70550 0.97250
H10 H 0.77720 0.83040 0.69500
H11 H 0.76790 0.77200 0.49860
H12 H 1.02120 0.85660 0.97060
H13 H 0.86070 0.84660 0.96500
H14 H 0.51760 0.57980 0.79420
H15 H 0.74760 0.59170 1.00010
H16 H 0.90990 0.47200 0.82020
H17 H 0.70570 0.47010 0.61850
H18 H 1.30050 0.46320 1.23050
H19 H 1.08280 0.45650 1.02340
H20 H 0.93480 0.60250 1.16680
H21 H 1.14600 0.59600 1.37380
H22 H -0.04690 0.52200 0.55530
H23 H -0.26720 0.51980 0.34670
H24 H -0.12620 0.36880 0.23660
H25 H 0.07390 0.37010 0.44310
H26 H 0.41830 0.36080 0.53560
H27 H 0.23390 0.61280 0.68970
H28 H -0.66490 0.50950 -0.03040
H29 H -0.48100 0.50030 0.19890
H30 H -0.27840 0.38810 0.01740
H31 H -0.49260 0.38790 -0.19110
H32 H 0.85130 0.76390 1.16770
H33 H 1.03660 0.72590 1.33920
H34 H 1.01700 0.78300 1.42540
H35 H 1.21550 0.82890 1.41540
H36 H 1.26190 0.76270 1.38760
Cu1_2 Cu 1.40114(16) 0.52430(8) 1.51616(15)
Cu2A Cu 0.77557(19) 0.94826(8) 1.30961(16)
Cu2_2 Cu -0.77557(19) 0.44826(8) -0.30961(16)
O8A O 0.2158(12) 0.3508(6) 0.7014(11)
O9A O 0.0843(11) 0.3996(6) 0.8059(10)
N2_2 N 0.2275(10) 0.5245(6) 0.3251(10)
N5_2 N 0.3977(11) 0.4445(6) 0.8717(10)
loop_
_geom_bond_atom_site_label_1
_geom_bond_atom_site_label_2
_geom_bond_site_symmetry_1
_geom_bond_site_symmetry_2
Cu1 O1 1_555 1_555
Cu2 O4 1_555 1_555
O1 C1 1_555 1_555
O2 Cu1 1_555 1_555
O3 C5 1_555 1_555
O4 Cu1 1_555 1_555
O5 C29 1_555 1_555
O6 Cu1 1_555 1_555
O7 C30 1_555 1_555
O8 C36 1_555 1_555
O9 C36 1_555 1_555
O10 C40 1_555 1_555
N1 Cu1 1_555 1_555
N2 C19 1_555 1_555
N3 C2 1_555 1_555
N4 Cu2 1_555 1_555
N5 C31 1_555 1_555
N6 C13 1_555 1_555
C1 O2 1_555 1_555
C2 C1 1_555 1_555
C3 C2 1_555 1_555
C4 C3 1_555 1_555
C5 N3 1_555 1_555
C6 N3 1_555 1_555
C7 C6 1_555 1_555
C8 C7 1_555 1_555
C9 C8 1_555 1_555
C10 C9 1_555 1_555
C11 C10 1_555 1_555
C12 C7 1_555 1_555
C13 C10 1_555 1_555
C14 N1 1_555 1_555
C15 C14 1_555 1_555
C16 C15 1_555 1_555
C17 C16 1_555 1_555
C18 N1 1_555 1_555
C19 C20 1_555 1_555
C20 C21 1_555 1_555
C21 C16 1_555 1_555
C22 C21 1_555 1_555
C23 N2 1_555 1_555
C24 N4 1_555 1_555
C25 C24 1_555 1_555
C26 C25 1_555 1_555
C27 C26 1_555 1_555
C28 N4 1_555 1_555
C29 O4 1_555 1_555
C30 O6 1_555 1_555
C31 C32 1_555 1_555
C32 C33 1_555 1_555
C33 C26 1_555 1_555
C34 C33 1_555 1_555
C35 N5 1_555 1_555
C36 C37 1_555 1_555
C37 N6 1_555 1_555
C38 C37 1_555 1_555
C39 C38 1_555 1_555
C40 N6 1_555 1_555
H1 C2 1_555 1_555
H2 C3 1_555 1_555
H3 C3 1_555 1_555
H4 C4 1_555 1_555
H5 C4 1_555 1_555
H6 C6 1_555 1_555
H7 C6 1_555 1_555
H8 C8 1_555 1_555
H9 C9 1_555 1_555
H10 C11 1_555 1_555
H11 C12 1_555 1_555
H12 C13 1_555 1_555
H13 C13 1_555 1_555
H14 C14 1_555 1_555
H15 C15 1_555 1_555
H16 C17 1_555 1_555
H17 C18 1_555 1_555
H18 C19 1_555 1_555
H19 C20 1_555 1_555
H20 C22 1_555 1_555
H21 C23 1_555 1_555
H22 C24 1_555 1_555
H23 C25 1_555 1_555
H24 C27 1_555 1_555
H25 C28 1_555 1_555
H26 C29 1_555 1_555
H27 C30 1_555 1_555
H28 C31 1_555 1_555
H29 C32 1_555 1_555
H30 C34 1_555 1_555
H31 C35 1_555 1_555
H32 C37 1_555 1_555
H33 C38 1_555 1_555
H34 C38 1_555 1_555
H35 C39 1_555 1_555
H36 C39 1_555 1_555
Cu1_2 N2 1_555 1_555
Cu2A O8 1_555 1_555
Cu2_2 N5 1_555 1_555
O8A Cu2 1_555 1_555
O9A Cu2 1_555 1_555
N2_2 Cu1 1_555 1_555
N5_2 Cu2 1_555 1_555
Cu2 O6 1_555 1_555
O9 Cu2A 1_555 1_555
C4 C5 1_555 1_555
C11 C12 1_555 1_555
C17 C18 1_555 1_555
C22 C23 1_555 1_555
C27 C28 1_555 1_555
C34 C35 1_555 1_555
C39 C40 1_555 1_555

#END
