
#######################################################################
#
#                 Cambridge Crystallographic Data Centre
#                                CCDC 
#
#######################################################################
#
# If this CIF has been generated from an entry in the Cambridge 
# Structural Database, then it will include bibliographic, chemical, 
# crystal, experimental, refinement or atomic coordinate data resulting 
# from the CCDC's data processing and validation procedures.
#
#######################################################################

data_NUFZAQ
_symmetry_cell_setting           monoclinic
_symmetry_space_group_name_H-M   'P 21'
_symmetry_Int_Tables_number      4
_space_group_name_Hall           'P 2yb'
loop_
_symmetry_equiv_pos_site_id
_symmetry_equiv_pos_as_xyz
1 x,y,z
2 -x,1/2+y,-z
_cell_length_a                   9.5208(11)
_cell_length_b                   17.624(2)
_cell_length_c                   26.894(3)
_cell_angle_alpha                90
_cell_angle_beta                 100.19
_cell_angle_gamma                90
_cell_volume                     4441.49
loop_
_atom_site_label
_atom_site_type_symbol
_atom_site_fract_x
_atom_site_fract_y
_atom_site_fract_z
La1 La 0.47603(12) 0.49661(6) 0.14062(4)
La2 La 0.82640(12) 0.05801(6) 0.36901(4)
La3 La 0.95589(11) 0.51380(6) 0.13246(4)
La4 La 0.33956(11) 0.07539(6) 0.35996(4)
O1 O 0.5901(16) 0.4046(8) 0.2128(5)
O2 O 0.3780(13) 0.6304(6) 0.1161(5)
O3 O 0.3576(16) 0.3907(8) 0.1916(6)
O4 O 1.0366(19) 0.3958(9) 0.1784(6)
O5 O 0.5489(14) 0.5453(8) 0.0641(4)
O6 O 0.9382(14) 0.6580(7) 0.1524(4)
O7 O 0.7805(15) 0.5703(9) 0.0623(5)
O8 O 1.0761(15) 0.5848(8) 0.0665(5)
O9 O 0.1739(16) 0.1835(8) 0.3102(5)
O10 O 0.8832(18) 0.1778(8) 0.3220(7)
O11 O 0.3884(15) 0.1697(7) 0.2881(5)
O12 O 1.0118(14) -0.0109(8) 0.4343(5)
O13 O 0.7876(13) -0.0856(6) 0.3501(4)
O14 O 0.2667(13) -0.0585(6) 0.3823(5)
O15 O 0.7177(14) 0.0059(8) 0.4385(5)
O16 O 0.4852(14) 0.0276(8) 0.4361(4)
O17 O 0.0369(14) 0.4162(8) 0.0708(5)
O18 O 0.5411(13) 0.3788(7) 0.0963(4)
O19 O 0.7090(12) 0.5537(6) 0.1769(4)
O20 O 0.4185(12) 0.5528(7) 0.2198(4)
O21 O 0.2539(14) 0.4610(8) 0.0872(5)
O22 O 0.7616(14) 0.4224(7) 0.1186(4)
O23 O 0.9192(12) 0.5274(7) 0.2236(4)
O24 O 0.2000(13) 0.5471(7) 0.1799(4)
O25 O -0.0439(14) 0.2347(6) -0.0315(4)
O26 O 0.5243(14) 0.2233(6) -0.0473(4)
O27 O 0.9930(14) 0.6839(7) 0.3513(5)
O28 O 0.4961(14) 0.6719(6) 0.3618(4)
O29 O 0.6236(15) -0.1044(7) 0.1404(4)
O30 O 1.1512(14) -0.1050(7) 0.1465(4)
O31 O 0.5665(15) 0.3493(6) 0.5472(4)
O32 O -0.0197(14) 0.3376(6) 0.5296(4)
O33 O 0.5382(11) 0.0185(6) 0.3230(4)
O34 O 1.0204(12) 0.0234(7) 0.3217(4)
O35 O 0.4493(13) 0.1933(7) 0.4048(4)
O36 O -0.0319(14) 0.1551(7) 0.4294(5)
O37 O 0.6989(12) 0.0456(6) 0.2765(4)
O38 O 1.2015(12) 0.0186(7) 0.2798(4)
O39 O 0.6459(14) 0.1503(6) 0.3820(4)
O40 O 0.1709(15) 0.1091(7) 0.4145(5)
N1 N 0.1245(14) 0.2835(7) 0.0310(5)
N2 N 0.6279(14) 0.2759(7) 0.0278(5)
N3 N 0.8483(14) 0.5936(6) 0.3092(4)
N4 N 0.3457(14) 0.5910(7) 0.3107(4)
N5 N 0.5397(14) -0.0180(7) 0.1903(4)
N6 N 1.0409(14) -0.0190(7) 0.1909(4)
N7 N 0.5976(15) 0.2942(7) 0.4730(5)
N8 N 0.0907(15) 0.2881(7) 0.4679(5)
C1 C 0.476(3) 0.3716(12) 0.2184(9)
C2 C 0.646(2) 0.5768(12) 0.0473(7)
C3 C 0.599(2) -0.0008(11) 0.4538(7)
C4 C 0.268(2) 0.1996(12) 0.2847(8)
C5 C 0.164(2) 0.4123(10) 0.0684(7)
C6 C 0.6706(19) 0.3830(10) 0.0910(7)
C7 C 0.7951(18) 0.5536(9) 0.2197(6)
C8 C 0.2899(18) 0.5600(9) 0.2188(6)
C9 C 0.2202(18) 0.3467(8) 0.0404(6)
C10 C 0.7209(18) 0.3408(8) 0.0469(5)
C11 C 0.7373(17) 0.5858(9) 0.2641(5)
C12 C 0.2346(17) 0.5915(9) 0.2654(5)
C13 C 0.2410(19) 0.3726(9) -0.0131(6)
C14 C 0.704(2) 0.3937(9) -0.0001(6)
C15 C 0.6824(19) 0.6669(9) 0.2552(6)
C16 C 0.197(2) 0.6751(9) 0.2582(6)
C17 C 0.1040(19) 0.3436(9) -0.0463(6)
C18 C 0.649(2) 0.3444(9) -0.0435(6)
C19 C 0.800(2) 0.7147(9) 0.2816(7)
C20 C 0.3049(19) 0.7188(9) 0.2957(7)
C21 C 0.0530(19) 0.2823(9) -0.0166(6)
C22 C 0.589(2) 0.2752(9) -0.0223(6)
C23 C 0.8926(18) 0.6644(9) 0.3188(6)
C24 C 0.3957(18) 0.6588(8) 0.3267(6)
C25 C 0.0895(18) 0.2342(9) 0.0709(6)
C26 C 0.5891(18) 0.2155(9) 0.0602(6)
C27 C 0.9154(16) 0.5288(9) 0.3378(6)
C28 C 0.4070(17) 0.5213(9) 0.3327(6)
C29 C 0.2164(18) 0.1865(9) 0.0945(6)
C30 C 0.7219(19) 0.1728(9) 0.0884(6)
C31 C 0.8116(17) 0.4844(10) 0.3641(6)
C32 C 0.3062(18) 0.4737(9) 0.3576(6)
C33 C 0.2982(19) 0.2066(9) 0.1400(6)
C34 C 0.7899(18) 0.1967(9) 0.1344(6)
C35 C 0.7868(18) 0.5062(9) 0.4117(6)
C36 C 0.2764(18) 0.4937(10) 0.4046(6)
C37 C 0.4118(18) 0.1612(9) 0.1610(6)
C38 C 0.9096(19) 0.1572(9) 0.1607(6)
C39 C 0.6984(18) 0.4644(9) 0.4362(6)
C40 C 0.1807(18) 0.4502(8) 0.4259(5)
C41 C 0.4491(19) 0.0951(10) 0.1394(6)
C42 C 0.9577(18) 0.0934(10) 0.1385(6)
C43 C 0.6313(19) 0.4010(9) 0.4140(6)
C44 C 0.1201(19) 0.3838(9) 0.4024(6)
C45 C 0.3672(18) 0.0746(9) 0.0930(6)
C46 C 0.8858(18) 0.0683(9) 0.0920(6)
C47 C 0.6558(19) 0.3785(10) 0.3666(6)
C48 C 0.1527(19) 0.3644(9) 0.3572(6)
C49 C 0.2510(18) 0.1188(8) 0.0716(6)
C50 C 0.768(2) 0.1086(9) 0.0660(6)
C51 C 0.7470(18) 0.4202(9) 0.3430(6)
C52 C 0.2457(18) 0.4078(9) 0.3336(6)
C53 C 0.5737(17) 0.0477(8) 0.1623(6)
C54 C 1.0818(17) 0.0503(9) 0.1675(6)
C55 C 0.5261(18) 0.3554(8) 0.4404(6)
C56 C 0.0184(18) 0.3368(9) 0.4265(6)
C57 C 0.5670(19) -0.0874(9) 0.1763(6)
C58 C 1.0780(18) -0.0899(9) 0.1787(6)
C59 C 0.612(2) 0.2955(10) 0.5234(6)
C60 C 0.0665(19) 0.2921(9) 0.5154(6)
C61 C 0.513(2) -0.1425(10) 0.2117(7)
C62 C 1.021(2) -0.1452(10) 0.2139(7)
C63 C 0.688(2) 0.2276(10) 0.5444(6)
C64 C 0.153(2) 0.2308(11) 0.5462(7)
C65 C 0.4369(19) -0.0959(8) 0.2462(6)
C66 C 0.924(2) -0.0985(9) 0.2402(6)
C67 C 0.707(2) 0.1801(9) 0.4998(6)
C68 C 0.2526(18) 0.2028(10) 0.5120(6)
C69 C 0.4811(17) -0.0123(9) 0.2359(6)
C70 C 0.9709(17) -0.0153(9) 0.2349(6)
C71 C 0.6749(18) 0.2315(9) 0.4549(6)
C72 C 0.1805(17) 0.2265(8) 0.4582(6)
C73 C 0.5797(18) 0.0181(9) 0.2812(5)
C74 C 1.0717(17) 0.0122(10) 0.2816(6)
C75 C 0.5804(19) 0.1914(10) 0.4108(7)
C76 C 0.094(2) 0.1579(10) 0.4301(7)
H1 H 0.47850 0.33230 0.24280
H2 H 0.32860 0.66830 0.13360
H3 H 0.61750 0.61010 0.01960
H4 H 1.02310 0.68000 0.14210
H5 H 0.60050 -0.03190 0.48280
H6 H 1.13890 0.40410 0.17960
H7 H 0.24500 0.23860 0.26010
H8 H 0.98600 0.17650 0.32130
H9 H 1.02490 0.37590 0.20970
H10 H 0.84150 0.19530 0.28900
H11 H 0.87(2) -0.12(2) 0.349(4)
H12 H 1.14800 0.03700 0.14430
H13 H 1.13390 0.08370 0.19420
H14 H 0.47920 0.39040 0.46120
H15 H 0.45110 0.33290 0.41440
H16 H 0.62320 0.03020 0.13500
H17 H 0.64130 0.08000 0.18530
H18 H -0.04840 0.37120 0.43990
H19 H -0.03850 0.30440 0.40030
H20 H 0.63220 0.19990 0.56630
H21 H 0.78210 0.24110 0.56470
H22 H 0.09000 0.18940 0.55420
H23 H 0.20670 0.25170 0.57810
H24 H 0.59380 -0.17070 0.23180
H25 H 0.44670 -0.17950 0.19240
H26 H 0.96840 -0.18720 0.19460
H27 H 1.10060 -0.16680 0.23870
H28 H 1.171(6) 0.571(8) 0.061(4)
H29 H 0.46900 -0.11000 0.28200
H30 H 0.33220 -0.10260 0.23740
H31 H 0.93410 -0.11300 0.27620
H32 H 0.82290 -0.10560 0.22390
H33 H 0.26380 0.14700 0.51440
H34 H 0.34780 0.22670 0.52120
H35 H 0.80570 0.16060 0.50380
H36 H 0.64020 0.13650 0.49600
H37 H 0.424(12) 0.6636(13) 0.094(4)
H38 H 0.863(3) 0.691(4) 0.134(4)
H39 H 1.022(10) 0.583(11) 0.032(2)
H40 H 1.052(8) -0.077(9) 0.426(14)
H41 H 0.31370 0.32910 0.05990
H42 H 0.72(2) -0.117(18) 0.367(5)
H43 H 0.82230 0.32400 0.05680
H44 H 0.350(6) -0.089(3) 0.4033(13)
H45 H 0.65900 0.55250 0.27190
H46 H 0.197(13) -0.105(8) 0.361(12)
H47 H 0.14960 0.56200 0.27150
H48 H 1.099(5) 0.025(6) 0.442(8)
H49 H 0.24860 0.42850 -0.01500
H50 H 0.32680 0.34920 -0.02270
H51 H 0.63540 0.43520 0.00290
H52 H 0.79640 0.41620 -0.00380
H53 H 0.66170 0.67880 0.21870
H54 H 0.59450 0.67450 0.26950
H55 H 0.20220 0.69110 0.22330
H56 H 0.09940 0.68460 0.26450
H57 H 0.03220 0.38460 -0.05340
H58 H 0.12420 0.32380 -0.07880
H59 H 0.72630 0.33020 -0.06180
H60 H 0.57300 0.37080 -0.06730
H61 H 0.76140 0.75700 0.29930
H62 H 0.85550 0.73620 0.25710
H63 H 0.25610 0.75090 0.31760
H64 H 0.36440 0.75160 0.27790
H65 H 0.00960 0.20030 0.05660
H66 H 0.05800 0.26570 0.09740
H67 H 0.52520 0.17900 0.03930
H68 H 0.53610 0.23770 0.08520
H69 H 0.99580 0.54710 0.36360
H70 H 0.95490 0.49440 0.31470
H71 H 0.49230 0.53360 0.35820
H72 H 0.43900 0.49070 0.30590
H73 H 0.27690 0.25140 0.15690
H74 H 0.75650 0.24060 0.14910
H75 H 0.83160 0.55050 0.42720
H76 H 0.32090 0.53670 0.42200
H77 H 0.46750 0.17660 0.19220
H78 H 0.95640 0.17400 0.19290
H79 H 0.68360 0.47950 0.46880
H80 H 0.15580 0.46570 0.45710
H81 H 0.39080 0.03040 0.07610
H82 H 0.91660 0.02340 0.07760
H83 H 0.61000 0.33470 0.35070
H84 H 0.11120 0.32000 0.34080
H85 H 0.19380 0.10300 0.04080
H86 H 0.72140 0.09230 0.03360
H87 H 0.76540 0.40380 0.31110
H88 H 0.26740 0.39270 0.30190
H89 H 0.39350 0.02000 0.22920
H90 H 0.88530 0.01850 0.22770
H91 H 0.76510 0.24990 0.44480
H92 H 0.25370 0.24480 0.43850
La2_2 La -0.17360(12) 0.05801(6) 0.36901(4)
La3_2 La -0.04411(11) 0.51380(6) 0.13246(4)
La4_2 La 1.33956(11) 0.07539(6) 0.35996(4)
O17_2 O 1.0369(14) 0.4162(8) 0.0708(5)
O24_2 O 1.2000(13) 0.5471(7) 0.1799(4)
O36_2 O 0.9681(14) 0.1551(7) 0.4294(5)
O38_2 O 0.2015(12) 0.0186(7) 0.2798(4)
O41 O 0.1754(13) 0.7404(7) 0.1308(5)
H93 H 0.15970 0.79240 0.14280
H94 H 0.11190 0.75120 0.09840
O42 O 0.7022(15) 0.7472(8) 0.1272(5)
H95 H 0.676(11) 0.797(4) 0.139(4)
H96 H 0.623(9) 0.738(7) 0.099(4)
O43 O 1.0422(13) 0.8325(7) 0.3695(4)
H97 H 1.04690 0.77730 0.36550
H98 H 1.01720 0.83610 0.40320
O44 O 0.5810(15) -0.1814(7) 0.3718(5)
H99 H 0.56(2) -0.170(7) 0.405(4)
O45 O 0.897(2) 0.3287(13) 0.2404(6)
O46 O 0.704(2) 0.230(2) 0.2583(8)
H100? H 0.447(18) -0.223(3) 0.350(6)
loop_
_geom_bond_atom_site_label_1
_geom_bond_atom_site_label_2
_geom_bond_site_symmetry_1
_geom_bond_site_symmetry_2
La1 O1 1_555 1_555
La2 O10 1_555 1_555
La3 O4 1_555 1_555
La4 O9 1_555 1_555
O1 C1 1_555 1_555
O2 La1 1_555 1_555
O3 La1 1_555 1_555
O4 H6 1_555 1_555
O5 La1 1_555 1_555
O6 La3 1_555 1_555
O7 La3 1_555 1_555
O8 La3 1_555 1_555
O9 C4 1_555 1_555
O10 H8 1_555 1_555
O11 La4 1_555 1_555
O12 La2 1_555 1_555
O13 La2 1_555 1_555
O14 La4 1_555 1_555
O15 La2 1_555 1_555
O16 La4 1_555 1_555
O17 C5 1_555 1_555
O18 La1 1_555 1_555
O19 La1 1_555 1_555
O20 La1 1_555 1_555
O21 La1 1_555 1_555
O22 La3 1_555 1_555
O23 La3 1_555 1_555
O24 C8 1_555 1_555
O25 C21 1_555 1_555
O26 C22 1_555 1_555
O27 C23 1_555 1_555
O28 C24 1_555 1_555
O29 C57 1_555 1_555
O30 C58 1_555 1_555
O31 C59 1_555 1_555
O32 C60 1_555 1_555
O33 La2 1_555 1_555
O34 La2 1_555 1_555
O35 La4 1_555 1_555
O36 C76 1_555 1_555
O37 La2 1_555 1_555
O38 C74 1_555 1_555
O39 La2 1_555 1_555
O40 La4 1_555 1_555
N1 C9 1_555 1_555
N2 C10 1_555 1_555
N3 C11 1_555 1_555
N4 C12 1_555 1_555
N5 C53 1_555 1_555
N6 C54 1_555 1_555
N7 C55 1_555 1_555
N8 C56 1_555 1_555
C1 O3 1_555 1_555
C2 O5 1_555 1_555
C3 O15 1_555 1_555
C4 O11 1_555 1_555
C5 O21 1_555 1_555
C6 O18 1_555 1_555
C7 O19 1_555 1_555
C8 O20 1_555 1_555
C9 C5 1_555 1_555
C10 C6 1_555 1_555
C11 C7 1_555 1_555
C12 C8 1_555 1_555
C13 C9 1_555 1_555
C14 C10 1_555 1_555
C15 C11 1_555 1_555
C16 C12 1_555 1_555
C17 C13 1_555 1_555
C18 C14 1_555 1_555
C19 C15 1_555 1_555
C20 C16 1_555 1_555
C21 N1 1_555 1_555
C22 N2 1_555 1_555
C23 N3 1_555 1_555
C24 N4 1_555 1_555
C25 N1 1_555 1_555
C26 N2 1_555 1_555
C27 N3 1_555 1_555
C28 N4 1_555 1_555
C29 C25 1_555 1_555
C30 C26 1_555 1_555
C31 C27 1_555 1_555
C32 C28 1_555 1_555
C33 C29 1_555 1_555
C34 C30 1_555 1_555
C35 C31 1_555 1_555
C36 C32 1_555 1_555
C37 C33 1_555 1_555
C38 C34 1_555 1_555
C39 C35 1_555 1_555
C40 C36 1_555 1_555
C41 C37 1_555 1_555
C42 C38 1_555 1_555
C43 C39 1_555 1_555
C44 C40 1_555 1_555
C45 C41 1_555 1_555
C46 C42 1_555 1_555
C47 C43 1_555 1_555
C48 C44 1_555 1_555
C49 C29 1_555 1_555
C50 C30 1_555 1_555
C51 C31 1_555 1_555
C52 C32 1_555 1_555
C53 C41 1_555 1_555
C54 C42 1_555 1_555
C55 C43 1_555 1_555
C56 C44 1_555 1_555
C57 N5 1_555 1_555
C58 N6 1_555 1_555
C59 N7 1_555 1_555
C60 N8 1_555 1_555
C61 C57 1_555 1_555
C62 C58 1_555 1_555
C63 C59 1_555 1_555
C64 C60 1_555 1_555
C65 C61 1_555 1_555
C66 C62 1_555 1_555
C67 C63 1_555 1_555
C68 C64 1_555 1_555
C69 N5 1_555 1_555
C70 N6 1_555 1_555
C71 N7 1_555 1_555
C72 N8 1_555 1_555
C73 O33 1_555 1_555
C74 O34 1_555 1_555
C75 O35 1_555 1_555
C76 O40 1_555 1_555
O41 H93 1_555 1_555
O42 H95 1_555 1_555
O43 H97 1_555 1_555
O44 H99 1_555 1_555
H1 C1 1_555 1_555
H2 O2 1_555 1_555
H3 C2 1_555 1_555
H4 O6 1_555 1_555
H5 C3 1_555 1_555
H7 C4 1_555 1_555
H9 O4 1_555 1_555
H10 O10 1_555 1_555
H11 O13 1_555 1_555
H12 C54 1_555 1_555
H13 C54 1_555 1_555
H14 C55 1_555 1_555
H15 C55 1_555 1_555
H16 C53 1_555 1_555
H17 C53 1_555 1_555
H18 C56 1_555 1_555
H19 C56 1_555 1_555
H20 C63 1_555 1_555
H21 C63 1_555 1_555
H22 C64 1_555 1_555
H23 C64 1_555 1_555
H24 C61 1_555 1_555
H25 C61 1_555 1_555
H26 C62 1_555 1_555
H27 C62 1_555 1_555
H28 O8 1_555 1_555
H29 C65 1_555 1_555
H30 C65 1_555 1_555
H31 C66 1_555 1_555
H32 C66 1_555 1_555
H33 C68 1_555 1_555
H34 C68 1_555 1_555
H35 C67 1_555 1_555
H36 C67 1_555 1_555
H37 O2 1_555 1_555
H38 O6 1_555 1_555
H39 O8 1_555 1_555
H40 O12 1_555 1_555
H41 C9 1_555 1_555
H42 O13 1_555 1_555
H43 C10 1_555 1_555
H44 O14 1_555 1_555
H45 C11 1_555 1_555
H46 O14 1_555 1_555
H47 C12 1_555 1_555
H48 O12 1_555 1_555
H49 C13 1_555 1_555
H50 C13 1_555 1_555
H51 C14 1_555 1_555
H52 C14 1_555 1_555
H53 C15 1_555 1_555
H54 C15 1_555 1_555
H55 C16 1_555 1_555
H56 C16 1_555 1_555
H57 C17 1_555 1_555
H58 C17 1_555 1_555
H59 C18 1_555 1_555
H60 C18 1_555 1_555
H61 C19 1_555 1_555
H62 C19 1_555 1_555
H63 C20 1_555 1_555
H64 C20 1_555 1_555
H65 C25 1_555 1_555
H66 C25 1_555 1_555
H67 C26 1_555 1_555
H68 C26 1_555 1_555
H69 C27 1_555 1_555
H70 C27 1_555 1_555
H71 C28 1_555 1_555
H72 C28 1_555 1_555
H73 C33 1_555 1_555
H74 C34 1_555 1_555
H75 C35 1_555 1_555
H76 C36 1_555 1_555
H77 C37 1_555 1_555
H78 C38 1_555 1_555
H79 C39 1_555 1_555
H80 C40 1_555 1_555
H81 C45 1_555 1_555
H82 C46 1_555 1_555
H83 C47 1_555 1_555
H84 C48 1_555 1_555
H85 C49 1_555 1_555
H86 C50 1_555 1_555
H87 C51 1_555 1_555
H88 C52 1_555 1_555
H89 C69 1_555 1_555
H90 C70 1_555 1_555
H91 C71 1_555 1_555
H92 C72 1_555 1_555
H94 O41 1_555 1_555
H96 O42 1_555 1_555
H98 O43 1_555 1_555
La2_2 O36 1_555 1_555
La3_2 O17 1_555 1_555
La4_2 O38 1_555 1_555
O17_2 La3 1_555 1_555
O24_2 La3 1_555 1_555
O36_2 La2 1_555 1_555
O38_2 La4 1_555 1_555
La3 O19 1_555 1_555
La4 O33 1_555 1_555
O7 C2 1_555 1_555
O16 C3 1_555 1_555
O22 C6 1_555 1_555
O23 C7 1_555 1_555
O24 La3_2 1_555 1_555
O37 C73 1_555 1_555
O39 C75 1_555 1_555
C17 C21 1_555 1_555
C18 C22 1_555 1_555
C19 C23 1_555 1_555
C20 C24 1_555 1_555
C45 C49 1_555 1_555
C46 C50 1_555 1_555
C47 C51 1_555 1_555
C48 C52 1_555 1_555
C65 C69 1_555 1_555
C66 C70 1_555 1_555
C67 C71 1_555 1_555
C68 C72 1_555 1_555
C69 C73 1_555 1_555
C70 C74 1_555 1_555
C71 C75 1_555 1_555
C72 C76 1_555 1_555

#END
