
#######################################################################
#
#                 Cambridge Crystallographic Data Centre
#                                CCDC 
#
#######################################################################
#
# If this CIF has been generated from an entry in the Cambridge 
# Structural Database, then it will include bibliographic, chemical, 
# crystal, experimental, refinement or atomic coordinate data resulting 
# from the CCDC's data processing and validation procedures.
#
#######################################################################

data_NUFZEU
_symmetry_cell_setting           monoclinic
_symmetry_space_group_name_H-M   'P 21'
_symmetry_Int_Tables_number      4
_space_group_name_Hall           'P 2yb'
loop_
_symmetry_equiv_pos_site_id
_symmetry_equiv_pos_as_xyz
1 x,y,z
2 -x,1/2+y,-z
_cell_length_a                   9.627(2)
_cell_length_b                   17.617(4)
_cell_length_c                   26.670(6)
_cell_angle_alpha                90
_cell_angle_beta                 100.428(3)
_cell_angle_gamma                90
_cell_volume                     4448.49
loop_
_atom_site_label
_atom_site_type_symbol
_atom_site_fract_x
_atom_site_fract_y
_atom_site_fract_z
Pr1 Pr 0.47727(15) 0.50526(5) 0.13640(5)
Pr2 Pr 0.8242(2) 0.05369(9) 0.36861(5)
Pr3 Pr 0.95338(18) 0.52051(5) 0.13232(5)
Pr4 Pr 0.3367(2) 0.06399(9) 0.36465(5)
O1 O 0.5767(14) 0.4127(7) 0.2096(4)
O2 O 0.3820(14) 0.6380(7) 0.1157(4)
O3 O 0.3492(12) 0.4001(6) 0.1787(4)
O4 O 1.0624(16) 0.4060(8) 0.1869(6)
O5 O 0.5527(15) 0.5547(7) 0.0638(5)
O6 O 0.9396(12) 0.6621(5) 0.1515(4)
O7 O 0.7820(13) 0.5707(7) 0.0621(4)
O8 O 1.0747(13) 0.5888(6) 0.0676(5)
O9 O 0.1801(17) 0.1748(9) 0.3246(6)
O10 O 0.8805(19) 0.1671(9) 0.3138(6)
O11 O 0.3740(19) 0.1625(10) 0.2959(6)
O12 O 1.0043(19) -0.0136(10) 0.4385(6)
O13 O 0.2018(16) 0.2416(8) 0.2564(5)
O14 O 0.7785(15) -0.0843(9) 0.3535(6)
O15 O 0.2691(18) -0.0660(10) 0.3802(6)
O16 O 0.7216(16) 0.0056(10) 0.4397(6)
O17 O 0.4892(18) 0.0140(10) 0.4391(6)
O18 O 0.0509(12) 0.4266(6) 0.0751(4)
O19 O 0.5441(13) 0.3883(6) 0.0948(4)
O20 O 0.7036(17) 0.5562(8) 0.1758(5)
O21 O 0.4121(16) 0.5546(7) 0.2175(5)
O22 O 0.2667(12) 0.4722(6) 0.0804(4)
O23 O 0.7649(13) 0.4273(6) 0.1190(4)
O24 O 0.9114(14) 0.5308(7) 0.2227(5)
O25 O 0.1932(17) 0.5487(8) 0.1756(5)
O26 O -0.0471(12) 0.2391(6) -0.0274(4)
O27 O 0.5270(13) 0.2295(6) -0.0459(5)
O28 O 0.9832(19) 0.6822(10) 0.3553(7)
O29 O 0.485(2) 0.6702(11) 0.3607(7)
O30 O 0.6282(19) -0.0984(9) 0.1397(7)
O31 O 1.1429(18) -0.1041(9) 0.1466(6)
O32 O 0.5580(18) 0.3423(8) 0.5463(6)
O33 O -0.0100(17) 0.3392(8) 0.5279(6)
O34 O 0.5302(18) 0.0141(10) 0.3257(6)
O35 O 1.0203(18) 0.0131(9) 0.3257(5)
O36 O 0.4613(16) 0.1797(9) 0.4072(6)
O37 O -0.0245(15) 0.1514(8) 0.4205(6)
O38 O 0.6942(17) 0.0344(8) 0.2803(6)
O39 O 1.1955(15) 0.0212(6) 0.2842(5)
O40 O 0.6560(16) 0.1495(8) 0.3809(5)
O41 O 0.1904(14) 0.0950(8) 0.4243(5)
N1 N 0.2497(17) 0.1890(11) 0.2890(8)
N2 N 0.121(2) 0.2894(9) 0.0339(6)
N3 N 0.629(2) 0.2817(10) 0.0289(7)
N4 N 0.842(3) 0.5927(12) 0.3099(8)
N5 N 0.343(3) 0.5880(13) 0.3097(8)
N6 N 0.533(3) -0.0151(11) 0.1911(8)
N7 N 1.036(3) -0.0164(12) 0.1924(8)
N8 N 0.599(3) 0.2887(12) 0.4713(8)
N9 N 0.092(3) 0.2861(12) 0.4661(8)
C1 C 0.4608(18) 0.3787(9) 0.2101(6)
C2 C 0.6521(19) 0.5816(10) 0.0454(6)
C3 C 0.603(2) -0.0108(15) 0.4562(9)
C4 C 0.1745(16) 0.4237(8) 0.0668(6)
C5 C 0.6776(18) 0.3869(8) 0.0917(6)
C6 C 0.785(3) 0.5574(15) 0.2165(9)
C7 C 0.284(3) 0.5632(15) 0.2165(9)
C8 C 0.223(3) 0.3497(11) 0.0425(9)
C9 C 0.723(3) 0.3441(12) 0.0470(9)
C10 C 0.731(3) 0.5848(13) 0.2644(9)
C11 C 0.233(3) 0.5869(14) 0.2620(9)
C12 C 0.2429(17) 0.3694(8) -0.0128(6)
C13 C 0.7164(19) 0.3988(8) 0.0006(6)
C14 C 0.680(2) 0.6686(11) 0.2557(9)
C15 C 0.193(2) 0.6779(11) 0.2578(8)
C16 C 0.1029(17) 0.3458(9) -0.0453(7)
C17 C 0.6536(19) 0.3512(9) -0.0437(7)
C18 C 0.795(2) 0.7156(13) 0.2850(8)
C19 C 0.303(2) 0.7160(11) 0.2972(6)
C20 C 0.0463(17) 0.2835(9) -0.0142(7)
C21 C 0.5982(17) 0.2807(9) -0.0214(6)
C22 C 0.882(3) 0.6636(14) 0.3201(10)
C23 C 0.390(3) 0.6570(15) 0.3243(10)
C24 C 0.0944(17) 0.2441(8) 0.0768(6)
C25 C 0.5930(18) 0.2221(9) 0.0612(6)
C26 C 0.904(2) 0.5282(12) 0.3383(8)
C27 C 0.402(2) 0.5183(12) 0.3325(9)
C28 C 0.221(2) 0.1941(9) 0.1003(7)
C29 C 0.719(2) 0.1745(10) 0.0886(7)
C30 C 0.804(3) 0.4802(15) 0.3630(8)
C31 C 0.304(3) 0.4705(14) 0.3554(8)
C32 C 0.3002(19) 0.2133(9) 0.1451(7)
C33 C 0.786(2) 0.2007(9) 0.1338(7)
C34 C 0.784(2) 0.5026(12) 0.4111(7)
C35 C 0.275(2) 0.4925(12) 0.4025(8)
C36 C 0.413(2) 0.1656(10) 0.1661(8)
C37 C 0.905(2) 0.1568(11) 0.1617(8)
C38 C 0.693(2) 0.4554(12) 0.4345(8)
C39 C 0.181(2) 0.4441(12) 0.4249(8)
C40 C 0.445(2) 0.1002(11) 0.1430(8)
C41 C 0.954(2) 0.0923(12) 0.1394(8)
C42 C 0.625(2) 0.3951(11) 0.4128(7)
C43 C 0.116(2) 0.3817(10) 0.4019(7)
C44 C 0.362(2) 0.0823(10) 0.0942(7)
C45 C 0.877(2) 0.0745(11) 0.0907(7)
C46 C 0.649(2) 0.3772(12) 0.3608(7)
C47 C 0.144(2) 0.3646(12) 0.3532(7)
C48 C 0.245(2) 0.1269(10) 0.0744(7)
C49 C 0.764(2) 0.1120(10) 0.0653(7)
C50 C 0.739(3) 0.4170(12) 0.3398(8)
C51 C 0.240(3) 0.4065(12) 0.3302(8)
C52 C 0.575(2) 0.0527(11) 0.1662(9)
C53 C 1.082(2) 0.0511(12) 0.1682(7)
C54 C 0.527(2) 0.3473(11) 0.4385(8)
C55 C 0.020(2) 0.3344(11) 0.4240(7)
C56 C 0.564(3) -0.0862(15) 0.1764(11)
C57 C 1.073(3) -0.0874(14) 0.1787(10)
C58 C 0.596(2) 0.2941(14) 0.5210(9)
C59 C 0.076(2) 0.2884(12) 0.5120(8)
C60 C 0.518(2) -0.1430(12) 0.2142(7)
C61 C 1.024(2) -0.1441(11) 0.2171(7)
C62 C 0.689(2) 0.2279(13) 0.5453(8)
C63 C 0.159(2) 0.2329(12) 0.5446(8)
C64 C 0.426(3) -0.0962(12) 0.2435(10)
C65 C 0.912(2) -0.0949(11) 0.2410(8)
C66 C 0.724(2) 0.1806(12) 0.5019(7)
C67 C 0.256(2) 0.2037(13) 0.5107(8)
C68 C 0.468(3) -0.0160(14) 0.2362(10)
C69 C 0.964(3) -0.0169(13) 0.2364(9)
C70 C 0.684(4) 0.2256(17) 0.4542(11)
C71 C 0.183(3) 0.2227(16) 0.4557(11)
C72 C 0.571(3) 0.0156(17) 0.2823(10)
C73 C 1.068(3) 0.0116(16) 0.2852(9)
C74 C 0.593(2) 0.1817(12) 0.4130(8)
C75 C 0.100(2) 0.1556(11) 0.4287(8)
H1 H 0.45600 0.33820 0.23330
H2 H 0.62810 0.61320 0.01630
H3 H 0.61000 -0.04520 0.48390
H4 H 1.14540 0.03630 0.14450
H5 H 1.13530 0.08500 0.19450
H6 H 0.47640 0.38090 0.45890
H7 H 0.45550 0.32310 0.41190
H8 H 0.62730 0.03750 0.13900
H9 H 0.63920 0.08370 0.19140
H10 H -0.03330 0.30150 0.39700
H11 H -0.04930 0.36730 0.43700
H12 H 0.77610 0.24740 0.56670
H13 H 0.63710 0.19690 0.56690
H14 H 0.09910 0.19180 0.55430
H15 H 0.21290 0.25670 0.57580
H16 H 0.46320 -0.18540 0.19590
H17 H 0.60070 -0.16390 0.23750
H18 H 1.10440 -0.15990 0.24380
H19 H 0.97950 -0.18970 0.19950
H20 H 0.32450 -0.10390 0.22950
H21 H 0.44420 -0.11000 0.28000
H22 H 0.81510 -0.10130 0.22130
H23 H 0.91280 -0.10860 0.27700
H24 H 0.26950 0.14830 0.51500
H25 H 0.34920 0.22890 0.51890
H26 H 0.82600 0.16870 0.50800
H27 H 0.67050 0.13230 0.49920
H28 H 0.31330 0.33090 0.06300
H29 H 0.82110 0.32450 0.05760
H30 H 0.65310 0.55160 0.27160
H31 H 0.14910 0.55580 0.26700
H32 H 0.26030 0.42440 -0.01640
H33 H 0.32240 0.34050 -0.02230
H34 H 0.65630 0.44340 0.00380
H35 H 0.81200 0.41640 -0.00270
H36 H 0.66530 0.68170 0.21900
H37 H 0.59070 0.67650 0.26820
H38 H 0.19610 0.69750 0.22330
H39 H 0.09680 0.68670 0.26530
H40 H 0.11720 0.32590 -0.07880
H41 H 0.03670 0.38920 -0.05110
H42 H 0.72590 0.33760 -0.06430
H43 H 0.57600 0.37870 -0.06580
H44 H 0.85130 0.73980 0.26190
H45 H 0.75500 0.75590 0.30410
H46 H 0.36100 0.75080 0.28050
H47 H 0.25700 0.74580 0.32120
H48 H 0.01160 0.21110 0.06530
H49 H 0.07080 0.27840 0.10340
H50 H 0.52500 0.18750 0.04020
H51 H 0.54470 0.24500 0.08720
H52 H 0.98140 0.54640 0.36530
H53 H 0.94730 0.49540 0.31510
H54 H 0.48380 0.53080 0.35940
H55 H 0.43720 0.48810 0.30620
H56 H 0.28020 0.25800 0.16230
H57 H 0.75640 0.24660 0.14750
H58 H 0.82740 0.54660 0.42740
H59 H 0.31540 0.53710 0.41920
H60 H 0.46980 0.17950 0.19770
H61 H 0.94970 0.17210 0.19490
H62 H 0.68010 0.46820 0.46790
H63 H 0.16340 0.45710 0.45780
H64 H 0.38690 0.04020 0.07530
H65 H 0.90800 0.03160 0.07420
H66 H 0.59840 0.33660 0.34240
H67 H 0.09620 0.32310 0.33510
H68 H 0.18240 0.11220 0.04420
H69 H 0.71760 0.09590 0.03260
H70 H 0.75840 0.40150 0.30770
H71 H 0.26170 0.39140 0.29830
H72 H 0.38180 0.01640 0.22990
H73 H 0.77010 0.24560 0.44230
H74 H 0.25440 0.24100 0.43540
Pr2_2 Pr -0.1758(2) 0.05369(9) 0.36861(5)
Pr3_2 Pr -0.04662(18) 0.52051(5) 0.13232(5)
Pr4_2 Pr 1.3367(2) 0.06399(9) 0.36465(5)
O18_2 O 1.0509(12) 0.4266(6) 0.0751(4)
O25_2 O 1.1932(17) 0.5487(8) 0.1756(5)
O37_2 O 0.9755(15) 0.1514(8) 0.4205(6)
O39_2 O 0.1955(15) 0.0212(6) 0.2842(5)
O42 O 0.1688(17) 0.7428(9) 0.1308(5)
O43 O 0.7046(15) 0.7510(8) 0.1286(5)
O44 O 1.0376(18) 0.8284(11) 0.3720(6)
O45 O 0.568(2) -0.1818(12) 0.3725(7)
O46 O 0.6723(19) 0.2331(9) 0.2658(6)
loop_
_geom_bond_atom_site_label_1
_geom_bond_atom_site_label_2
_geom_bond_site_symmetry_1
_geom_bond_site_symmetry_2
Pr1 O1 1_555 1_555
Pr2 O10 1_555 1_555
Pr3 O4 1_555 1_555
Pr4 O9 1_555 1_555
O1 C1 1_555 1_555
O2 Pr1 1_555 1_555
O3 Pr1 1_555 1_555
O5 Pr1 1_555 1_555
O6 Pr3 1_555 1_555
O7 Pr3 1_555 1_555
O8 Pr3 1_555 1_555
O9 N1 1_555 1_555
O11 Pr4 1_555 1_555
O12 Pr2 1_555 1_555
O13 N1 1_555 1_555
O14 Pr2 1_555 1_555
O15 Pr4 1_555 1_555
O16 Pr2 1_555 1_555
O17 Pr4 1_555 1_555
O18 C4 1_555 1_555
O19 Pr1 1_555 1_555
O20 Pr1 1_555 1_555
O21 Pr1 1_555 1_555
O22 Pr1 1_555 1_555
O23 Pr3 1_555 1_555
O24 Pr3 1_555 1_555
O25 C7 1_555 1_555
O26 C20 1_555 1_555
O27 C21 1_555 1_555
O28 C22 1_555 1_555
O29 C23 1_555 1_555
O30 C56 1_555 1_555
O31 C57 1_555 1_555
O32 C58 1_555 1_555
O33 C59 1_555 1_555
O34 Pr2 1_555 1_555
O35 Pr2 1_555 1_555
O36 Pr4 1_555 1_555
O37 C75 1_555 1_555
O38 Pr2 1_555 1_555
O39 C73 1_555 1_555
O40 Pr2 1_555 1_555
O41 Pr4 1_555 1_555
N1 O11 1_555 1_555
N2 C8 1_555 1_555
N3 C9 1_555 1_555
N4 C10 1_555 1_555
N5 C11 1_555 1_555
N6 C52 1_555 1_555
N7 C53 1_555 1_555
N8 C54 1_555 1_555
N9 C55 1_555 1_555
C1 O3 1_555 1_555
C2 O5 1_555 1_555
C3 O16 1_555 1_555
C4 O22 1_555 1_555
C5 O19 1_555 1_555
C6 O20 1_555 1_555
C7 O21 1_555 1_555
C8 C4 1_555 1_555
C9 C5 1_555 1_555
C10 C6 1_555 1_555
C11 C7 1_555 1_555
C12 C8 1_555 1_555
C13 C9 1_555 1_555
C14 C10 1_555 1_555
C15 C11 1_555 1_555
C16 C12 1_555 1_555
C17 C13 1_555 1_555
C18 C14 1_555 1_555
C19 C15 1_555 1_555
C20 N2 1_555 1_555
C21 N3 1_555 1_555
C22 N4 1_555 1_555
C23 N5 1_555 1_555
C24 N2 1_555 1_555
C25 N3 1_555 1_555
C26 N4 1_555 1_555
C27 N5 1_555 1_555
C28 C24 1_555 1_555
C29 C25 1_555 1_555
C30 C26 1_555 1_555
C31 C27 1_555 1_555
C32 C28 1_555 1_555
C33 C29 1_555 1_555
C34 C30 1_555 1_555
C35 C31 1_555 1_555
C36 C32 1_555 1_555
C37 C33 1_555 1_555
C38 C34 1_555 1_555
C39 C35 1_555 1_555
C40 C36 1_555 1_555
C41 C37 1_555 1_555
C42 C38 1_555 1_555
C43 C39 1_555 1_555
C44 C40 1_555 1_555
C45 C41 1_555 1_555
C46 C42 1_555 1_555
C47 C43 1_555 1_555
C48 C28 1_555 1_555
C49 C29 1_555 1_555
C50 C30 1_555 1_555
C51 C31 1_555 1_555
C52 C40 1_555 1_555
C53 C41 1_555 1_555
C54 C42 1_555 1_555
C55 C43 1_555 1_555
C56 N6 1_555 1_555
C57 N7 1_555 1_555
C58 N8 1_555 1_555
C59 N9 1_555 1_555
C60 C56 1_555 1_555
C61 C57 1_555 1_555
C62 C58 1_555 1_555
C63 C59 1_555 1_555
C64 C60 1_555 1_555
C65 C61 1_555 1_555
C66 C62 1_555 1_555
C67 C63 1_555 1_555
C68 N6 1_555 1_555
C69 N7 1_555 1_555
C70 N8 1_555 1_555
C71 N9 1_555 1_555
C72 O34 1_555 1_555
C73 O35 1_555 1_555
C74 O36 1_555 1_555
C75 O41 1_555 1_555
H1 C1 1_555 1_555
H2 C2 1_555 1_555
H3 C3 1_555 1_555
H4 C53 1_555 1_555
H5 C53 1_555 1_555
H6 C54 1_555 1_555
H7 C54 1_555 1_555
H8 C52 1_555 1_555
H9 C52 1_555 1_555
H10 C55 1_555 1_555
H11 C55 1_555 1_555
H12 C62 1_555 1_555
H13 C62 1_555 1_555
H14 C63 1_555 1_555
H15 C63 1_555 1_555
H16 C60 1_555 1_555
H17 C60 1_555 1_555
H18 C61 1_555 1_555
H19 C61 1_555 1_555
H20 C64 1_555 1_555
H21 C64 1_555 1_555
H22 C65 1_555 1_555
H23 C65 1_555 1_555
H24 C67 1_555 1_555
H25 C67 1_555 1_555
H26 C66 1_555 1_555
H27 C66 1_555 1_555
H28 C8 1_555 1_555
H29 C9 1_555 1_555
H30 C10 1_555 1_555
H31 C11 1_555 1_555
H32 C12 1_555 1_555
H33 C12 1_555 1_555
H34 C13 1_555 1_555
H35 C13 1_555 1_555
H36 C14 1_555 1_555
H37 C14 1_555 1_555
H38 C15 1_555 1_555
H39 C15 1_555 1_555
H40 C16 1_555 1_555
H41 C16 1_555 1_555
H42 C17 1_555 1_555
H43 C17 1_555 1_555
H44 C18 1_555 1_555
H45 C18 1_555 1_555
H46 C19 1_555 1_555
H47 C19 1_555 1_555
H48 C24 1_555 1_555
H49 C24 1_555 1_555
H50 C25 1_555 1_555
H51 C25 1_555 1_555
H52 C26 1_555 1_555
H53 C26 1_555 1_555
H54 C27 1_555 1_555
H55 C27 1_555 1_555
H56 C32 1_555 1_555
H57 C33 1_555 1_555
H58 C34 1_555 1_555
H59 C35 1_555 1_555
H60 C36 1_555 1_555
H61 C37 1_555 1_555
H62 C38 1_555 1_555
H63 C39 1_555 1_555
H64 C44 1_555 1_555
H65 C45 1_555 1_555
H66 C46 1_555 1_555
H67 C47 1_555 1_555
H68 C48 1_555 1_555
H69 C49 1_555 1_555
H70 C50 1_555 1_555
H71 C51 1_555 1_555
H72 C68 1_555 1_555
H73 C70 1_555 1_555
H74 C71 1_555 1_555
Pr2_2 O37 1_555 1_555
Pr3_2 O18 1_555 1_555
Pr4_2 O39 1_555 1_555
O18_2 Pr3 1_555 1_555
O25_2 Pr3 1_555 1_555
O37_2 Pr2 1_555 1_555
O39_2 Pr4 1_555 1_555
Pr3 O20 1_555 1_555
Pr4 O34 1_555 1_555
O7 C2 1_555 1_555
O17 C3 1_555 1_555
O23 C5 1_555 1_555
O24 C6 1_555 1_555
O25 Pr3_2 1_555 1_555
O38 C72 1_555 1_555
O40 C74 1_555 1_555
C16 C20 1_555 1_555
C17 C21 1_555 1_555
C18 C22 1_555 1_555
C19 C23 1_555 1_555
C44 C48 1_555 1_555
C45 C49 1_555 1_555
C46 C50 1_555 1_555
C47 C51 1_555 1_555
C64 C68 1_555 1_555
C65 C69 1_555 1_555
C66 C70 1_555 1_555
C67 C71 1_555 1_555
C68 C72 1_555 1_555
C69 C73 1_555 1_555
C70 C74 1_555 1_555
C71 C75 1_555 1_555

#END
