
#######################################################################
#
#                 Cambridge Crystallographic Data Centre
#                                CCDC 
#
#######################################################################
#
# If this CIF has been generated from an entry in the Cambridge 
# Structural Database, then it will include bibliographic, chemical, 
# crystal, experimental, refinement or atomic coordinate data resulting 
# from the CCDC's data processing and validation procedures.
#
#######################################################################

data_NUFZAR
_symmetry_cell_setting           orthorhombic
_symmetry_space_group_name_H-M   'P m n a'
_symmetry_Int_Tables_number      53
_space_group_name_Hall           '-P 2ac 2'
loop_
_symmetry_equiv_pos_site_id
_symmetry_equiv_pos_as_xyz
1 x,y,z
2 x,-y,-z
3 1/2-x,y,1/2-z
4 1/2-x,-y,1/2+z
5 -x,-y,-z
6 -x,y,z
7 1/2+x,-y,1/2+z
8 1/2+x,y,1/2-z
_cell_length_a                   7.373(2)
_cell_length_b                   6.783(2)
_cell_length_c                   14.145(3)
_cell_angle_alpha                90
_cell_angle_beta                 90
_cell_angle_gamma                90
_cell_volume                     707.406
loop_
_atom_site_label
_atom_site_type_symbol
_atom_site_fract_x
_atom_site_fract_y
_atom_site_fract_z
Ni1 Ni 0.50000 0.50000 0.00000
Ni2 Ni 0.00000 0.00000 0.00000
C1 C 0.183(3) 0.189(2) 0.02600
N1 N 0.303(3) 0.298(3) 0.028(2)
N2 N 0.50000 0.560(2) 0.146(3)
S1 S 0.50000 0.848(4) 0.288(2)
C2 C 0.50000 0.463(3) 0.239(3)
C3 C 0.50000 0.775(2) 0.173(3)
C4 C 0.50000 0.599(3) 0.318(3)
C1A C 0.183(3) -0.189(2) -0.02600
N1A N 0.303(3) -0.298(3) -0.028(2)
C1D C -0.183(3) -0.189(2) -0.02600
N1D N -0.303(3) -0.298(3) -0.028(2)
C1E C -0.183(3) 0.189(2) 0.02600
N1E N -0.303(3) 0.298(3) 0.028(2)
N2A N 0.50000 0.440(2) -0.146(3)
S1A S 0.50000 0.152(4) -0.288(2)
C2A C 0.50000 0.537(3) -0.239(3)
C3A C 0.50000 0.225(2) -0.173(3)
C4A C 0.50000 0.401(3) -0.318(3)
Ni1_2 Ni -0.50000 -0.50000 0.00000
Ni1_3 Ni -0.50000 0.50000 0.00000
Ni1_4 Ni 0.50000 -0.50000 0.00000
N1A_2 N 0.303(3) 0.702(3) -0.028(2)
N1D_2 N 0.697(3) 0.702(3) -0.028(2)
N1E_2 N 0.697(3) 0.298(3) 0.028(2)
loop_
_geom_bond_atom_site_label_1
_geom_bond_atom_site_label_2
_geom_bond_site_symmetry_1
_geom_bond_site_symmetry_2
Ni1 N1 1_555 1_555
Ni2 C1 1_555 1_555
C1 N1 1_555 1_555
N2 Ni1 1_555 1_555
S1 C3 1_555 1_555
C2 N2 1_555 1_555
C3 N2 1_555 1_555
C4 S1 1_555 1_555
C1A Ni2 1_555 1_555
N1A C1A 1_555 1_555
C1D Ni2 1_555 1_555
N1D C1D 1_555 1_555
C1E Ni2 1_555 1_555
N1E C1E 1_555 1_555
N2A Ni1 1_555 1_555
S1A C3A 1_555 1_555
C2A N2A 1_555 1_555
C3A N2A 1_555 1_555
C4A S1A 1_555 1_555
Ni1_2 N1D 1_555 1_555
Ni1_3 N1E 1_555 1_555
Ni1_4 N1A 1_555 1_555
N1A_2 Ni1 1_555 1_555
N1D_2 Ni1 1_555 1_555
N1E_2 Ni1 1_555 1_555
C2 C4 1_555 1_555
C2A C4A 1_555 1_555

#END
