
#######################################################################
#
#                 Cambridge Crystallographic Data Centre
#                                CCDC 
#
#######################################################################
#
# If this CIF has been generated from an entry in the Cambridge 
# Structural Database, then it will include bibliographic, chemical, 
# crystal, experimental, refinement or atomic coordinate data resulting 
# from the CCDC's data processing and validation procedures.
#
#######################################################################

data_NUGDUQ
_symmetry_cell_setting           monoclinic
_symmetry_space_group_name_H-M   'P 21/c'
_symmetry_Int_Tables_number      14
_space_group_name_Hall           '-P 2ybc'
loop_
_symmetry_equiv_pos_site_id
_symmetry_equiv_pos_as_xyz
1 x,y,z
2 -x,1/2+y,1/2-z
3 -x,-y,-z
4 x,1/2-y,1/2+z
_cell_length_a                   11.3648(2)
_cell_length_b                   11.1855(2)
_cell_length_c                   20.2898(4)
_cell_angle_alpha                90
_cell_angle_beta                 118.000(2)
_cell_angle_gamma                90
_cell_volume                     2277.35
loop_
_atom_site_label
_atom_site_type_symbol
_atom_site_fract_x
_atom_site_fract_y
_atom_site_fract_z
C1 C 0.8695(3) 0.4316(2) 0.62104(16)
C2 C 0.9107(4) 0.4363(3) 0.56552(18)
H1 H 0.8670 0.4874 0.5250
C3 C 1.0132(4) 0.3676(3) 0.5699(2)
H2 H 1.0380 0.3728 0.5324
C4 C 1.0814(4) 0.2896(3) 0.6295(2)
H3 H 1.1520 0.2441 0.6322
C5 C 1.0434(3) 0.2809(3) 0.68345(19)
H4 H 1.0883 0.2285 0.7231
C6 C 0.9371(3) 0.3497(2) 0.68061(16)
C7 C 0.8979(3) 0.3337(3) 0.73720(16)
H5 H 0.9433 0.2766 0.7738
C8 C 0.7616(4) 0.3717(3) 0.79896(17)
H6 H 0.8102 0.3041 0.8296
H7 H 0.6674 0.3522 0.7749
C9 C 0.7864(3) 0.4808(2) 0.84803(16)
H8 H 0.7463 0.5501 0.8167
H9 H 0.8816 0.4948 0.8761
C10 C 0.7292(3) 0.4665(3) 0.90221(17)
H10 H 0.7351 0.5425 0.9266
H11 H 0.6357 0.4455 0.8742
C11 C 0.8004(3) 0.3718(3) 0.96144(18)
H12 H 0.7989 0.2963 0.9375
H13 H 0.8927 0.3949 0.9919
C12 C 0.7795(3) 0.4047(3) 1.07420(16)
H14 H 0.8584 0.4482 1.0926
C13 C 0.7153(3) 0.3959(2) 1.11982(16)
C14 C 0.7727(4) 0.4573(3) 1.18799(18)
H15 H 0.8508 0.5004 1.2022
C15 C 0.7148(4) 0.4546(3) 1.23421(19)
H16 H 0.7533 0.4955 1.2794
C16 C 0.5986(4) 0.3901(3) 1.21233(18)
H17 H 0.5582 0.3892 1.2430
C17 C 0.5413(3) 0.3275(3) 1.14652(17)
H18 H 0.4642 0.2837 1.1341
C18 C 0.5967(3) 0.3279(2) 1.09725(16)
C19 C 0.40961(7) 0.49099(5) 0.60557(3)
H19 H 0.4853 0.4762 0.6532
H20 H 0.3468 0.4268 0.5937
H21 H 0.3682 0.5649 0.6074
Eu1 Eu 0.604063(14) 0.632270(11) 0.548579(7)
N1 N 0.80418(9) 0.39249(3) 0.74155(4)
H22 H 0.7607 0.4549 0.7041
N2 N 0.73597(8) 0.35677(3) 1.00941(4)
H23 H 0.6566 0.3248 0.9873
N3 N 0.588748(16) 0.732660(13) 0.680709(8)
N4 N 0.828490(15) 0.777598(13) 0.556187(7)
O1 O 0.77446(7) 0.49970(3) 0.61883(3)
O2 O 0.54230(11) 0.26956(2) 1.03424(4)
O3 O 0.67082(2) 0.651128(18) 0.687757(10)
O4 O 0.580045(16) 0.773220(14) 0.734231(8)
O5 O 0.51476(2) 0.76833(3) 0.614985(11)
O6 O 0.792522(14) 0.784667(12) 0.606018(7)
O7 O 0.924627(15) 0.834280(13) 0.560989(8)
O8 O 0.761605(14) 0.710418(12) 0.501714(7)
O9 O 0.45152(7) 0.49843(5) 0.55018(3)
Eu1A Eu 0.395937(14) 0.132270(11) 0.951421(7)
Eu1B Eu 0.395937(14) 0.367730(11) 0.451421(7)
O2A O 0.45770(11) 0.76956(2) 0.46576(4)
O9B O 0.54848(7) 0.50157(5) 0.44982(3)
loop_
_geom_bond_atom_site_label_1
_geom_bond_atom_site_label_2
_geom_bond_site_symmetry_1
_geom_bond_site_symmetry_2
C1 C2 1_555 1_555
C2 H1 1_555 1_555
C3 C2 1_555 1_555
H2 C3 1_555 1_555
C4 C3 1_555 1_555
H3 C4 1_555 1_555
C5 C4 1_555 1_555
H4 C5 1_555 1_555
C6 C1 1_555 1_555
C7 C6 1_555 1_555
H5 C7 1_555 1_555
C8 H6 1_555 1_555
H7 C8 1_555 1_555
C9 C8 1_555 1_555
H8 C9 1_555 1_555
H9 C9 1_555 1_555
C10 C9 1_555 1_555
H10 C10 1_555 1_555
H11 C10 1_555 1_555
C11 C10 1_555 1_555
H12 C11 1_555 1_555
H13 C11 1_555 1_555
C12 H14 1_555 1_555
C13 C12 1_555 1_555
C14 C13 1_555 1_555
H15 C14 1_555 1_555
C15 C14 1_555 1_555
H16 C15 1_555 1_555
C16 C15 1_555 1_555
H17 C16 1_555 1_555
C17 C16 1_555 1_555
H18 C17 1_555 1_555
C18 C13 1_555 1_555
C19 H19 1_555 1_555
H20 C19 1_555 1_555
H21 C19 1_555 1_555
Eu1 O1 1_555 1_555
N1 C7 1_555 1_555
H22 N1 1_555 1_555
N2 C11 1_555 1_555
H23 N2 1_555 1_555
N3 O3 1_555 1_555
N4 O6 1_555 1_555
O1 C1 1_555 1_555
O2 C18 1_555 1_555
O3 Eu1 1_555 1_555
O4 N3 1_555 1_555
O5 Eu1 1_555 1_555
O6 Eu1 1_555 1_555
O7 N4 1_555 1_555
O8 Eu1 1_555 1_555
O9 C19 1_555 1_555
Eu1A O2 1_555 1_555
Eu1B O9 1_555 1_555
O2A Eu1 1_555 1_555
O9B Eu1 1_555 1_555
C5 C6 1_555 1_555
C8 N1 1_555 1_555
C12 N2 1_555 1_555
C17 C18 1_555 1_555
Eu1 O9 1_555 1_555
N3 O5 1_555 1_555
N4 O8 1_555 1_555
Eu1B O9B 1_555 1_555

#END
