
#######################################################################
#
#                 Cambridge Crystallographic Data Centre
#                                CCDC 
#
#######################################################################
#
# If this CIF has been generated from an entry in the Cambridge 
# Structural Database, then it will include bibliographic, chemical, 
# crystal, experimental, refinement or atomic coordinate data resulting 
# from the CCDC's data processing and validation procedures.
#
#######################################################################

data_NUGDOK
_symmetry_cell_setting           monoclinic
_symmetry_space_group_name_H-M   'P 21/c'
_symmetry_Int_Tables_number      14
_space_group_name_Hall           '-P 2ybc'
loop_
_symmetry_equiv_pos_site_id
_symmetry_equiv_pos_as_xyz
1 x,y,z
2 -x,1/2+y,1/2-z
3 -x,-y,-z
4 x,1/2-y,1/2+z
_cell_length_a                   11.377(5)
_cell_length_b                   11.184(5)
_cell_length_c                   20.279(5)
_cell_angle_alpha                90
_cell_angle_beta                 117.972(15)
_cell_angle_gamma                90
_cell_volume                     2278.87
loop_
_atom_site_label
_atom_site_type_symbol
_atom_site_fract_x
_atom_site_fract_y
_atom_site_fract_z
Sm1 Sm 0.104049(14) 0.133356(13) -0.451415(8)
O1 O 0.2748(2) -0.0004(2) -0.38112(12)
O2 O 0.0432(2) -0.22869(19) 0.03460(12)
O3 O 0.2942(3) 0.2852(2) -0.39419(15)
O4 O 0.2619(2) 0.2118(2) -0.49877(13)
O5 O 0.4259(3) 0.3347(3) -0.43925(17)
O6 O 0.0147(2) 0.2694(2) -0.38432(13)
O7 O 0.1704(2) 0.1522(2) -0.31193(12)
O8 O 0.0792(3) 0.2737(2) -0.26553(13)
O9 O -0.0484(2) -0.00120(19) -0.44959(11)
N1 N 0.2374(3) -0.1413(2) 0.00963(16)
H1 H 0.160(2) -0.181(3) -0.005(2)
N2 N 0.3044(3) -0.1091(2) -0.25803(15)
H2 H 0.266(3) -0.053(2) -0.2928(15)
N3 N 0.0884(3) 0.2335(2) -0.31859(15)
N4 N 0.3301(3) 0.2787(3) -0.44373(17)
C1 C 0.0973(3) -0.1703(3) 0.09781(17)
C2 C 0.0426(3) -0.1712(3) 0.14698(19)
H3 H -0.0345 -0.2151 0.1345
C3 C 0.1000(4) -0.1090(3) 0.2132(2)
H4 H 0.0602 -0.1102 0.2441
C4 C 0.2165(4) -0.0441(3) 0.2346(2)
H5 H 0.2550 -0.0025 0.2795
C5 C 0.2734(4) -0.0424(3) 0.18861(19)
H6 H 0.3521 -0.0001 0.2031
C6 C 0.2162(3) -0.1028(3) 0.11980(17)
C7 C 0.2800(3) -0.0942(3) 0.07454(18)
H7 H 0.3591 -0.0511 0.0933
C8 C 0.3003(3) -0.1276(3) -0.03865(19)
H8 H 0.2979 -0.2033 -0.0626
H9 H 0.3927 -0.1048 -0.0087
C9 C 0.2290(3) -0.0332(3) -0.09775(18)
H10 H 0.2351 0.0429 -0.0734
H11 H 0.1355 -0.0542 -0.1255
C10 C 0.2857(3) -0.0193(3) -0.15222(17)
H12 H 0.2452 0.0498 -0.1837
H13 H 0.3806 -0.0047 -0.1242
C11 C 0.2618(4) -0.1281(3) -0.20093(19)
H14 H 0.3100 -0.1955 -0.1699
H15 H 0.1677 -0.1476 -0.2251
C12 C 0.3981(3) -0.1664(3) -0.26271(18)
H16 H 0.4445 -0.2228 -0.2258
C13 C 0.4366(3) -0.1511(3) -0.31920(17)
C14 C 0.3696(3) -0.0685(3) -0.37855(18)
C15 C 0.4106(3) -0.0643(3) -0.4344(2)
H17 H 0.3666 -0.0137 -0.4751
C16 C 0.5135(4) -0.1329(3) -0.4299(2)
H18 H 0.5389 -0.1272 -0.4672
C17 C 0.5806(3) -0.2107(3) -0.3708(2)
H19 H 0.6511 -0.2562 -0.3683
C18 C 0.5429(3) -0.2200(3) -0.3169(2)
H20 H 0.5878 -0.2727 -0.2775
C19 C -0.0905(4) -0.0085(3) -0.39416(19)
H21 H -0.1545 -0.0717 -0.4065
H22 H -0.1303 0.0659 -0.3918
H23 H -0.0152 -0.0248 -0.3466
Sm1A Sm -0.104049(14) -0.366644(13) -0.048585(8)
Sm1B Sm -0.104049(14) -0.133356(13) -0.548585(8)
O2A O -0.0432(2) 0.27131(19) -0.53460(12)
O9B O 0.0484(2) 0.00120(19) -0.55041(11)
loop_
_geom_bond_atom_site_label_1
_geom_bond_atom_site_label_2
_geom_bond_site_symmetry_1
_geom_bond_site_symmetry_2
Sm1 O1 1_555 1_555
O1 C14 1_555 1_555
O2 C1 1_555 1_555
O3 Sm1 1_555 1_555
O4 Sm1 1_555 1_555
O5 N4 1_555 1_555
O6 Sm1 1_555 1_555
O7 Sm1 1_555 1_555
O8 N3 1_555 1_555
O9 Sm1 1_555 1_555
N1 H1 1_555 1_555
N2 H2 1_555 1_555
N3 O6 1_555 1_555
N4 O3 1_555 1_555
C1 C2 1_555 1_555
C2 H3 1_555 1_555
C3 C2 1_555 1_555
H4 C3 1_555 1_555
C4 C3 1_555 1_555
H5 C4 1_555 1_555
C5 C4 1_555 1_555
H6 C5 1_555 1_555
C6 C1 1_555 1_555
C7 N1 1_555 1_555
H7 C7 1_555 1_555
C8 N1 1_555 1_555
H8 C8 1_555 1_555
H9 C8 1_555 1_555
C9 C8 1_555 1_555
H10 C9 1_555 1_555
H11 C9 1_555 1_555
C10 C9 1_555 1_555
H12 C10 1_555 1_555
H13 C10 1_555 1_555
C11 N2 1_555 1_555
H14 C11 1_555 1_555
H15 C11 1_555 1_555
C12 N2 1_555 1_555
H16 C12 1_555 1_555
C13 C12 1_555 1_555
C14 C13 1_555 1_555
C15 C14 1_555 1_555
H17 C15 1_555 1_555
C16 C15 1_555 1_555
H18 C16 1_555 1_555
C17 C16 1_555 1_555
H19 C17 1_555 1_555
C18 C13 1_555 1_555
H20 C18 1_555 1_555
C19 O9 1_555 1_555
H21 C19 1_555 1_555
H22 C19 1_555 1_555
H23 C19 1_555 1_555
Sm1A O2 1_555 1_555
Sm1B O9 1_555 1_555
O2A Sm1 1_555 1_555
O9B Sm1 1_555 1_555
O4 N4 1_555 1_555
O7 N3 1_555 1_555
C5 C6 1_555 1_555
C6 C7 1_555 1_555
C10 C11 1_555 1_555
C17 C18 1_555 1_555
Sm1B O9B 1_555 1_555

#END
