
#######################################################################
#
#                 Cambridge Crystallographic Data Centre
#                                CCDC 
#
#######################################################################
#
# If this CIF has been generated from an entry in the Cambridge 
# Structural Database, then it will include bibliographic, chemical, 
# crystal, experimental, refinement or atomic coordinate data resulting 
# from the CCDC's data processing and validation procedures.
#
#######################################################################

data_NUGHEE
_symmetry_cell_setting           triclinic
_symmetry_space_group_name_H-M   'P -1'
_symmetry_Int_Tables_number      2
_space_group_name_Hall           '-P 1'
loop_
_symmetry_equiv_pos_site_id
_symmetry_equiv_pos_as_xyz
1 x,y,z
2 -x,-y,-z
_cell_length_a                   7.9811(3)
_cell_length_b                   8.8122(4)
_cell_length_c                   18.1805(7)
_cell_angle_alpha                84.357(4)
_cell_angle_beta                 84.342(3)
_cell_angle_gamma                82.028(4)
_cell_volume                     1255.47
loop_
_atom_site_label
_atom_site_type_symbol
_atom_site_fract_x
_atom_site_fract_y
_atom_site_fract_z
Zn1 Zn 0.52280(3) -0.74876(2) 0.417307(12)
Zn2 Zn 0.0000 0.0000 0.5000
O1 O 0.49266(17) -0.28356(16) 0.47680(7)
O2 O 0.29874(17) -0.62303(15) 0.39104(8)
O3 O 0.3414(3) -0.4268(2) 0.12429(10)
N1 N -0.0301(2) 0.0146(2) 0.38654(9)
O4 O 0.25326(17) -0.12421(16) 0.48483(8)
O5 O 0.08171(19) 0.21750(16) 0.49084(9)
H1 H -0.0004 0.2853 0.5050
H2 H 0.1157 0.2426 0.4454
O6 O 0.1611(2) -0.44166(17) 0.45906(8)
N2 N 0.2177(2) 0.4993(2) -0.25300(9)
C1 C 0.3651(2) -0.2049(2) 0.44843(10)
N3 N -0.0200(2) 0.0704(2) 0.26719(10)
O7 O 0.3704(4) -0.1901(3) 0.09365(11)
C2 C 0.3588(2) -0.2235(2) 0.36674(10)
C3 C 0.3112(2) -0.3606(2) 0.34645(11)
C4 C 0.4095(2) -0.1130(2) 0.31047(11)
C5 C 0.2523(2) -0.4825(2) 0.40438(11)
C6 C 0.0866(3) 0.2477(3) 0.04570(12)
N4 N 0.1482(3) 0.4475(3) -0.30998(11)
N5 N 0.3573(3) -0.2986(3) 0.13961(11)
C7 C 0.3156(3) 0.6055(2) -0.27961(11)
H3 H 0.3756 0.6577 -0.2512
C8 C 0.1855(3) 0.4365(2) -0.17777(11)
N6 N -0.1160(3) -0.0476(2) 0.28080(11)
C9 C 0.1237(3) 0.3125(3) -0.03225(12)
C10 C 0.0579(4) 0.2578(3) -0.09090(13)
H4 H -0.0083 0.1781 -0.0812
C11 C 0.3591(3) -0.2733(2) 0.21858(11)
C12 C 0.0287(3) 0.1061(2) 0.33048(11)
H5 H 0.0943 0.1837 0.3348
C13 C 0.4076(3) -0.1388(2) 0.23653(11)
H6 H 0.4389 -0.0655 0.1993
C14 C 0.0150(3) 0.1338(3) 0.19209(11)
C15 C 0.3134(3) -0.3862(2) 0.27226(12)
H7 H 0.2847 -0.4778 0.2588
C16 C 0.2202(3) 0.4320(3) -0.04857(13)
H8 H 0.2644 0.4719 -0.0102
C17 C 0.0883(4) 0.3186(3) -0.16337(13)
H9 H 0.0433 0.2799 -0.2018
C18 C 0.2114(3) 0.5267(3) -0.36850(13)
H10 H 0.1870 0.5157 -0.4165
C19 C 0.2526(3) 0.4938(3) -0.12096(13)
H11 H 0.3190 0.5734 -0.1310
C20 C -0.0936(3) 0.1181(3) 0.13982(13)
H12 H -0.1901 0.0701 0.1531
C21 C -0.1176(3) -0.0764(3) 0.35292(12)
H13 H -0.1741 -0.1531 0.3790
C22 C 0.1927(3) 0.2616(3) 0.10022(13)
H14 H 0.2889 0.3103 0.0874
C23 C 0.1587(3) 0.2047(3) 0.17337(13)
H15 H 0.2315 0.2143 0.2091
C24 C -0.0568(3) 0.1750(3) 0.06681(13)
H16 H -0.1297 0.1643 0.0313
N7 N 0.3151(2) 0.62605(19) -0.35268(9)
C25 C 0.4646(3) 0.0372(2) 0.32638(11)
O8 O 0.49043(19) 0.04872(16) 0.39382(8)
O9 O 0.4792(2) 0.13781(18) 0.27503(9)
Zn1A Zn -0.52280(3) 0.74876(2) 0.582693(12)
O1A O -0.49266(17) 0.28356(16) 0.52320(7)
O2A O -0.29874(17) 0.62303(15) 0.60896(8)
O3A O -0.3414(3) 0.4268(2) 0.87571(10)
N1A N 0.0301(2) -0.0146(2) 0.61346(9)
O4A O -0.25326(17) 0.12421(16) 0.51517(8)
O5A O -0.08171(19) -0.21750(16) 0.50916(9)
H1A H 0.0004 -0.2853 0.4950
H2A H -0.1157 -0.2426 0.5546
O6A O -0.1611(2) 0.44166(17) 0.54094(8)
N2A N -0.2177(2) -0.4993(2) 1.25300(9)
C1A C -0.3651(2) 0.2049(2) 0.55157(10)
N3A N 0.0200(2) -0.0704(2) 0.73281(10)
O7A O -0.3704(4) 0.1901(3) 0.90635(11)
C2A C -0.3588(2) 0.2235(2) 0.63326(10)
C3A C -0.3112(2) 0.3606(2) 0.65355(11)
C4A C -0.4095(2) 0.1130(2) 0.68953(11)
C5A C -0.2523(2) 0.4825(2) 0.59562(11)
C6A C -0.0866(3) -0.2477(3) 0.95430(12)
N4A N -0.1482(3) -0.4475(3) 1.30998(11)
N5A N -0.3573(3) 0.2986(3) 0.86039(11)
C7A C -0.3156(3) -0.6055(2) 1.27961(11)
H3A H -0.3756 -0.6577 1.2512
C8A C -0.1855(3) -0.4365(2) 1.17777(11)
N6A N 0.1160(3) 0.0476(2) 0.71920(11)
C9A C -0.1237(3) -0.3125(3) 1.03225(12)
C10A C -0.0579(4) -0.2578(3) 1.09090(13)
H4A H 0.0083 -0.1781 1.0812
C11A C -0.3591(3) 0.2733(2) 0.78142(11)
C12A C -0.0287(3) -0.1061(2) 0.66952(11)
H5A H -0.0943 -0.1837 0.6652
C13A C -0.4076(3) 0.1388(2) 0.76347(11)
H6A H -0.4389 0.0655 0.8007
C14A C -0.0150(3) -0.1338(3) 0.80791(11)
C15A C -0.3134(3) 0.3862(2) 0.72774(12)
H7A H -0.2847 0.4778 0.7412
C16A C -0.2202(3) -0.4320(3) 1.04857(13)
H8A H -0.2644 -0.4719 1.0102
C17A C -0.0883(4) -0.3186(3) 1.16337(13)
H9A H -0.0433 -0.2799 1.2018
C18A C -0.2114(3) -0.5267(3) 1.36850(13)
H10A H -0.1870 -0.5157 1.4165
C19A C -0.2526(3) -0.4938(3) 1.12096(13)
H11A H -0.3190 -0.5734 1.1310
C20A C 0.0936(3) -0.1181(3) 0.86018(13)
H12A H 0.1901 -0.0701 0.8469
C21A C 0.1176(3) 0.0764(3) 0.64708(12)
H13A H 0.1741 0.1531 0.6210
C22A C -0.1927(3) -0.2616(3) 0.89978(13)
H14A H -0.2889 -0.3103 0.9126
C23A C -0.1587(3) -0.2047(3) 0.82663(13)
H15A H -0.2315 -0.2143 0.7909
C24A C 0.0568(3) -0.1750(3) 0.93319(13)
H16A H 0.1297 -0.1643 0.9687
N7A N -0.3151(2) -0.62605(19) 1.35268(9)
C25A C -0.4646(3) -0.0372(2) 0.67362(11)
O8A O -0.49043(19) -0.04872(16) 0.60618(8)
O9A O -0.4792(2) -0.13781(18) 0.72497(9)
Zn1_2 Zn -0.47720(3) -0.74876(2) 1.417307(12)
Zn1_3 Zn -0.47720(3) 0.25124(2) 0.417307(12)
Zn1_4 Zn 0.52280(3) 0.25124(2) 0.417307(12)
Zn1A_2 Zn -0.52280(3) -0.25124(2) 0.582693(12)
Zn1A_3 Zn 0.47720(3) -0.25124(2) 0.582693(12)
Zn1A_4 Zn 0.47720(3) 0.74876(2) -0.417307(12)
O1_2 O -0.50734(17) 0.71644(16) 0.47680(7)
O1A_2 O 0.50734(17) -0.71644(16) 0.52320(7)
N7_2 N -0.6849(2) 0.62605(19) 0.64732(9)
N7A_2 N 0.6849(2) -0.62605(19) 0.35268(9)
O8_2 O 0.49043(19) -0.95128(16) 0.39382(8)
O8A_2 O -0.49043(19) 0.95128(16) 0.60618(8)
loop_
_geom_bond_atom_site_label_1
_geom_bond_atom_site_label_2
_geom_bond_site_symmetry_1
_geom_bond_site_symmetry_2
Zn1 O2 1_555 1_555
Zn2 N1 1_555 1_555
O1 C1 1_555 1_555
O2 C5 1_555 1_555
O3 N5 1_555 1_555
N1 C12 1_555 1_555
O4 Zn2 1_555 1_555
O5 Zn2 1_555 1_555
H1 O5 1_555 1_555
H2 O5 1_555 1_555
O6 C5 1_555 1_555
N2 N4 1_555 1_555
C1 O4 1_555 1_555
N3 N6 1_555 1_555
O7 N5 1_555 1_555
C2 C1 1_555 1_555
C3 C2 1_555 1_555
C4 C2 1_555 1_555
C5 C3 1_555 1_555
C6 C9 1_555 1_555
N4 C18 1_555 1_555
N5 C11 1_555 1_555
C7 N2 1_555 1_555
H3 C7 1_555 1_555
C8 N2 1_555 1_555
N6 C21 1_555 1_555
C9 C10 1_555 1_555
C10 H4 1_555 1_555
C11 C13 1_555 1_555
C12 N3 1_555 1_555
H5 C12 1_555 1_555
C13 C4 1_555 1_555
H6 C13 1_555 1_555
C14 N3 1_555 1_555
C15 C3 1_555 1_555
H7 C15 1_555 1_555
C16 C9 1_555 1_555
H8 C16 1_555 1_555
C17 C8 1_555 1_555
H9 C17 1_555 1_555
C18 H10 1_555 1_555
C19 C8 1_555 1_555
H11 C19 1_555 1_555
C20 C14 1_555 1_555
H12 C20 1_555 1_555
C21 N1 1_555 1_555
H13 C21 1_555 1_555
C22 C6 1_555 1_555
H14 C22 1_555 1_555
C23 C14 1_555 1_555
H15 C23 1_555 1_555
C24 C6 1_555 1_555
H16 C24 1_555 1_555
N7 C7 1_555 1_555
C25 C4 1_555 1_555
O8 C25 1_555 1_555
O9 C25 1_555 1_555
Zn1A O2A 1_555 1_555
O1A C1A 1_555 1_555
O2A C5A 1_555 1_555
O3A N5A 1_555 1_555
N1A Zn2 1_555 1_555
O4A Zn2 1_555 1_555
O5A Zn2 1_555 1_555
H1A O5A 1_555 1_555
H2A O5A 1_555 1_555
O6A C5A 1_555 1_555
N2A N4A 1_555 1_555
C1A O4A 1_555 1_555
N3A N6A 1_555 1_555
O7A N5A 1_555 1_555
C2A C1A 1_555 1_555
C3A C2A 1_555 1_555
C4A C2A 1_555 1_555
C5A C3A 1_555 1_555
C6A C9A 1_555 1_555
N4A C18A 1_555 1_555
N5A C11A 1_555 1_555
C7A N2A 1_555 1_555
H3A C7A 1_555 1_555
C8A N2A 1_555 1_555
N6A C21A 1_555 1_555
C9A C10A 1_555 1_555
C10A H4A 1_555 1_555
C11A C13A 1_555 1_555
C12A N1A 1_555 1_555
H5A C12A 1_555 1_555
C13A C4A 1_555 1_555
H6A C13A 1_555 1_555
C14A N3A 1_555 1_555
C15A C3A 1_555 1_555
H7A C15A 1_555 1_555
C16A C9A 1_555 1_555
H8A C16A 1_555 1_555
C17A C8A 1_555 1_555
H9A C17A 1_555 1_555
C18A H10A 1_555 1_555
C19A C8A 1_555 1_555
H11A C19A 1_555 1_555
C20A C14A 1_555 1_555
H12A C20A 1_555 1_555
C21A N1A 1_555 1_555
H13A C21A 1_555 1_555
C22A C6A 1_555 1_555
H14A C22A 1_555 1_555
C23A C14A 1_555 1_555
H15A C23A 1_555 1_555
C24A C6A 1_555 1_555
H16A C24A 1_555 1_555
N7A C7A 1_555 1_555
C25A C4A 1_555 1_555
O8A C25A 1_555 1_555
O9A C25A 1_555 1_555
Zn1_2 N7A 1_555 1_555
Zn1_3 O1A 1_555 1_555
Zn1_4 O8 1_555 1_555
Zn1A_2 O8A 1_555 1_555
Zn1A_3 O1 1_555 1_555
Zn1A_4 N7 1_555 1_555
O1_2 Zn1A 1_555 1_555
O1A_2 Zn1 1_555 1_555
N7_2 Zn1A 1_555 1_555
N7A_2 Zn1 1_555 1_555
O8_2 Zn1 1_555 1_555
O8A_2 Zn1A 1_555 1_555
C10 C17 1_555 1_555
C11 C15 1_555 1_555
C16 C19 1_555 1_555
C18 N7 1_555 1_555
C20 C24 1_555 1_555
C22 C23 1_555 1_555
N3A C12A 1_555 1_555
C10A C17A 1_555 1_555
C11A C15A 1_555 1_555
C16A C19A 1_555 1_555
C18A N7A 1_555 1_555
C20A C24A 1_555 1_555
C22A C23A 1_555 1_555

#END
