
#######################################################################
#
#                 Cambridge Crystallographic Data Centre
#                                CCDC 
#
#######################################################################
#
# If this CIF has been generated from an entry in the Cambridge 
# Structural Database, then it will include bibliographic, chemical, 
# crystal, experimental, refinement or atomic coordinate data resulting 
# from the CCDC's data processing and validation procedures.
#
#######################################################################

data_NUGHUT
_symmetry_cell_setting           monoclinic
_symmetry_space_group_name_H-M   'C 2/c'
_symmetry_Int_Tables_number      15
_space_group_name_Hall           '-C 2yn'
loop_
_symmetry_equiv_pos_site_id
_symmetry_equiv_pos_as_xyz
1 x,y,z
2 -x,y,1/2-z
3 1/2+x,1/2+y,z
4 1/2-x,1/2+y,1/2-z
5 -x,-y,-z
6 x,-y,1/2+z
7 1/2-x,1/2-y,-z
8 1/2+x,1/2-y,1/2+z
_cell_length_a                   11.8320(10)
_cell_length_b                   15.121(2)
_cell_length_c                   13.9110(10)
_cell_angle_alpha                90
_cell_angle_beta                 97.137(3)
_cell_angle_gamma                90
_cell_volume                     2469.56
loop_
_atom_site_label
_atom_site_type_symbol
_atom_site_fract_x
_atom_site_fract_y
_atom_site_fract_z
C1 C 0.8337(3) 0.9352(2) 0.4967(2)
H1 H 0.8979 0.9078 0.4781
C2 C 0.8317(4) 1.0259(3) 0.5026(3)
H2 H 0.8922 1.0591 0.4854
C3 C 0.7390(4) 1.0672(2) 0.5342(3)
H3 H 0.7374 1.1283 0.5416
C4 C 0.6497(3) 1.0159(2) 0.5545(2)
H4 H 0.5848 1.0419 0.5735
C5 C 0.6568(3) 0.9259(2) 0.5464(2)
H5 H 0.5965 0.8917 0.5623
C6 C 0.5898(3) 0.9290(2) 0.2908(2)
H6 H 0.6532 0.8980 0.3192
C7 C 0.5920(3) 1.0200(2) 0.2924(2)
H7 H 0.6558 1.0496 0.3222
C8 C 0.5000 1.0668(3) 0.2500
H8 H 0.5000 1.1283 0.2500
C9 C 0.4053(3) 0.5734(2) 0.2551(2)
H9 H 0.3382 0.6043 0.2593
C10 C 0.4023(3) 0.4824(2) 0.2545(3)
H10 H 0.3340 0.4527 0.2572
C11 C 0.5000 0.4364(3) 0.2500
H11 H 0.5000 0.3749 0.2500
C12 C 0.4959(3) 0.74986(19) 0.4309(2)
C13 C 0.4701(2) 0.74310(18) 0.52930(19)
H12 H 0.5124 0.6950 0.5612
H13 H 0.3901 0.7326 0.5291
H14 H 0.4907 0.7972 0.5631
Cu1 Cu 0.7500 0.7500 0.5000
Cu2 Cu 0.5000 0.75155(3) 0.2500
N1 N 0.7464(2) 0.88467(18) 0.51680(17)
N2 N 0.5000 0.8842(2) 0.2500
N3 N 0.5000 0.6182(3) 0.2500
O1 O 0.60106(18) 0.75320(14) 0.41992(16)
O2 O 0.41795(18) 0.75139(13) 0.36581(16)
C1F C 0.6663(3) 0.5648(2) 0.5033(2)
H1F H 0.6021 0.5922 0.5219
C2F C 0.6683(4) 0.4741(3) 0.4974(3)
H2F H 0.6078 0.4409 0.5146
C3F C 0.7610(4) 0.4328(2) 0.4658(3)
H3F H 0.7626 0.3717 0.4584
C4F C 0.8503(3) 0.4841(2) 0.4455(2)
H4F H 0.9152 0.4581 0.4265
C5F C 0.8432(3) 0.5741(2) 0.4536(2)
H5F H 0.9035 0.6083 0.4377
C6A C 0.4102(3) 0.9290(2) 0.2092(2)
H6A H 0.3468 0.8980 0.1808
C7A C 0.4080(3) 1.0200(2) 0.2076(2)
H7A H 0.3442 1.0496 0.1778
C9A C 0.5947(3) 0.5734(2) 0.2449(2)
H9A H 0.6618 0.6043 0.2407
C10A C 0.5977(3) 0.4824(2) 0.2455(3)
H10A H 0.6660 0.4527 0.2428
C12F C 1.0041(3) 0.75014(19) 0.5691(2)
C13F C 1.0299(2) 0.75690(18) 0.47070(19)
H12F H 0.9876 0.8050 0.4388
H13F H 1.1099 0.7674 0.4709
H14F H 1.0093 0.7028 0.4369
Cu2F Cu 1.0000 0.74845(3) 0.7500
N1F N 0.7536(2) 0.61533(18) 0.48320(17)
O1F O 0.89894(18) 0.74680(14) 0.58008(16)
O2F O 1.08205(18) 0.74861(13) 0.63419(16)
O2A O 0.58205(18) 0.75139(13) 0.13419(16)
loop_
_geom_bond_atom_site_label_1
_geom_bond_atom_site_label_2
_geom_bond_site_symmetry_1
_geom_bond_site_symmetry_2
C1 H1 1_555 1_555
C2 C1 1_555 1_555
H2 C2 1_555 1_555
C3 C2 1_555 1_555
H3 C3 1_555 1_555
C4 C3 1_555 1_555
H4 C4 1_555 1_555
C5 C4 1_555 1_555
H5 C5 1_555 1_555
C6 H6 1_555 1_555
C7 C6 1_555 1_555
H7 C7 1_555 1_555
C8 C7 1_555 1_555
H8 C8 1_555 1_555
C9 H9 1_555 1_555
C10 C9 1_555 1_555
H10 C10 1_555 1_555
C11 C10 1_555 1_555
H11 C11 1_555 1_555
C12 C13 1_555 1_555
C13 H12 1_555 1_555
H13 C13 1_555 1_555
H14 C13 1_555 1_555
Cu1 N1 1_555 1_555
Cu2 N2 1_555 1_555
N1 C1 1_555 1_555
N2 C6 1_555 1_555
N3 C9 1_555 1_555
O1 C12 1_555 1_555
O2 C12 1_555 1_555
C1F H1F 1_555 1_555
C2F C1F 1_555 1_555
H2F C2F 1_555 1_555
C3F C2F 1_555 1_555
H3F C3F 1_555 1_555
C4F C3F 1_555 1_555
H4F C4F 1_555 1_555
C5F C4F 1_555 1_555
H5F C5F 1_555 1_555
C6A N2 1_555 1_555
H6A C6A 1_555 1_555
C7A C8 1_555 1_555
H7A C7A 1_555 1_555
C9A N3 1_555 1_555
H9A C9A 1_555 1_555
C10A C11 1_555 1_555
H10A C10A 1_555 1_555
C12F C13F 1_555 1_555
C13F H12F 1_555 1_555
H13F C13F 1_555 1_555
H14F C13F 1_555 1_555
Cu2F O2F 1_555 1_555
N1F Cu1 1_555 1_555
O1F Cu1 1_555 1_555
O2F C12F 1_555 1_555
O2A Cu2 1_555 1_555
C5 N1 1_555 1_555
Cu1 O1 1_555 1_555
Cu2 N3 1_555 1_555
Cu2 O2 1_555 1_555
C1F N1F 1_555 1_555
C5F N1F 1_555 1_555
C6A C7A 1_555 1_555
C9A C10A 1_555 1_555
C12F O1F 1_555 1_555

#END
