
#######################################################################
#
#                 Cambridge Crystallographic Data Centre
#                                CCDC 
#
#######################################################################
#
# If this CIF has been generated from an entry in the Cambridge 
# Structural Database, then it will include bibliographic, chemical, 
# crystal, experimental, refinement or atomic coordinate data resulting 
# from the CCDC's data processing and validation procedures.
#
#######################################################################

data_NUGHON
_symmetry_cell_setting           triclinic
_symmetry_space_group_name_H-M   'P 1'
_symmetry_Int_Tables_number      1
_space_group_name_Hall           'P 1'
loop_
_symmetry_equiv_pos_site_id
_symmetry_equiv_pos_as_xyz
1 x,y,z
_cell_length_a                   8.203(2)
_cell_length_b                   13.227(3)
_cell_length_c                   20.610(3)
_cell_angle_alpha                76.155(2)
_cell_angle_beta                 78.651(4)
_cell_angle_gamma                89.993(3)
_cell_volume                     2126.19
loop_
_atom_site_label
_atom_site_type_symbol
_atom_site_fract_x
_atom_site_fract_y
_atom_site_fract_z
Ag1 Ag 1.13388(6) 0.42377(4) 0.33960(3)
Ag2 Ag 1.42916(6) 0.59701(4) 0.33005(3)
C1 C 0.9021(10) 0.5569(6) 0.4184(4)
H1 H 0.9201 0.5053 0.4554
C2 C 0.8063(10) 0.6389(6) 0.4291(4)
H2 H 0.7576 0.6417 0.4733
C3 C 0.7824(11) 0.7163(6) 0.3749(4)
C4 C 0.8518(10) 0.7104(6) 0.3087(4)
H3 H 0.8345 0.7625 0.2718
C5 C 0.9471(10) 0.6268(6) 0.2977(4)
H4 H 0.9932 0.6227 0.2535
C6 C 0.6901(10) 0.8094(6) 0.3862(4)
C7 C 0.6288(10) 0.8263(6) 0.4568(4)
H5 H 0.6011 0.8977 0.4532
H6 H 0.7146 0.8104 0.4828
H7 H 0.5318 0.7815 0.4791
C8 C 0.5580(10) 1.0253(6) 0.2922(4)
C9 C 0.6266(10) 1.0228(6) 0.2174(4)
H8 H 0.7181 0.9777 0.2154
H9 H 0.6641 1.0920 0.1911
H10 H 0.5404 0.9974 0.1991
C10 C 0.3151(9) 1.2134(6) 0.3798(4)
H11 H 0.2804 1.2210 0.4240
C11 C 0.4009(9) 1.1279(6) 0.3684(4)
H12 H 0.4242 1.0780 0.4052
C12 C 0.4533(11) 1.1153(7) 0.3024(4)
C13 C 0.4213(10) 1.1900(5) 0.2481(4)
H13 H 0.4582 1.1820 0.2040
C14 C 0.3345(10) 1.2777(6) 0.2577(4)
H14 H 0.3132 1.3276 0.2205
C15 C 1.2307(9) 0.7866(6) 0.3687(4)
H15 H 1.2318 0.7497 0.4131
C16 C 1.1533(11) 0.8804(6) 0.3567(4)
H16 H 1.1030 0.9063 0.3935
C17 C 1.1491(9) 0.9372(6) 0.2903(4)
C18 C 1.2280(10) 0.8987(6) 0.2355(4)
H17 H 1.2299 0.9368 0.1911
C19 C 1.3043(9) 0.8035(5) 0.2467(3)
H18 H 1.3531 0.7769 0.2099
C20 C 1.0545(10) 1.0286(6) 0.2773(4)
C21 C 1.0688(10) 1.0868(6) 0.2027(4)
H19 H 1.0282 1.0419 0.1784
H20 H 1.1832 1.1076 0.1826
H21 H 1.0038 1.1475 0.2003
C22 C 0.8368(11) 1.1815(6) 0.3690(4)
C23 C 0.8352(10) 1.1157(6) 0.4423(4)
H22 H 0.7239 1.0887 0.4637
H23 H 0.8735 1.1586 0.4683
H24 H 0.9072 1.0588 0.4402
C24 C 0.5937(10) 1.4068(6) 0.4096(4)
H25 H 0.5424 1.4309 0.4471
C25 C 0.6813(9) 1.3162(5) 0.4200(4)
H26 H 0.6900 1.2801 0.4637
C26 C 0.7553(10) 1.2811(6) 0.3633(4)
C27 C 0.7455(10) 1.3355(7) 0.2993(4)
H27 H 0.7977 1.3122 0.2617
C28 C 0.6579(10) 1.4257(6) 0.2901(4)
H28 H 0.6509 1.4623 0.2463
N1 N 0.9725(8) 0.5508(5) 0.3522(3)
N2 N 0.6762(9) 0.8728(6) 0.3306(4)
N3 N 0.5710(8) 0.9549(5) 0.3453(4)
N4 N 0.2798(9) 1.2896(5) 0.3241(3)
N5 N 1.3070(7) 0.7483(5) 0.3133(3)
N6 N 0.9992(8) 1.0612(5) 0.3304(3)
N7 N 0.9077(9) 1.1508(5) 0.3181(3)
N8 N 0.5814(8) 1.4613(5) 0.3454(3)
Ag1_2 Ag 0.13388(6) 1.42377(4) 0.33960(3)
Ag2_2 Ag 0.42916(6) 1.59701(4) 0.33005(3)
N4_2 N 1.2798(9) 0.2896(5) 0.3241(3)
N8_2 N 1.5814(8) 0.4613(5) 0.3454(3)
Ag3 Ag -0.58671(6) 0.27725(4) 0.85120(3)
Ag4 Ag -0.28747(6) 0.11533(4) 0.83350(3)
C29 C -0.4410(10) 0.4158(5) 0.9338(4)
H29 H -0.4855 0.3625 0.9716
C30 C -0.3674(10) 0.5049(6) 0.9424(4)
H30 H -0.3632 0.5113 0.9861
C31 C -0.2991(11) 0.5854(6) 0.8853(4)
C32 C -0.3051(9) 0.5746(6) 0.8202(4)
H31 H -0.2597 0.6273 0.7821
C33 C -0.3794(9) 0.4843(6) 0.8124(4)
H32 H -0.3823 0.4770 0.7688
C34 C -0.2252(9) 0.6693(5) 0.9053(4)
C35 C -0.2200(10) 0.6828(6) 0.9755(4)
H33 H -0.1757 0.6222 1.0009
H34 H -0.3306 0.6915 0.9988
H35 H -0.1505 0.7432 0.9715
C36 C -0.0015(11) 0.9021(6) 0.8057(4)
C37 C 0.0058(10) 0.8869(6) 0.7335(3)
H36 H 0.0015 0.8138 0.7352
H37 H 0.1075 0.9190 0.7041
H38 H -0.0872 0.9186 0.7160
C38 C 0.1927(11) 1.0721(7) 0.8918(4)
H39 H 0.1999 1.0755 0.9357
C39 C 0.1063(10) 0.9891(6) 0.8820(4)
H40 H 0.0562 0.9363 0.9192
C40 C 0.0946(9) 0.9849(5) 0.8162(4)
C41 C 0.1696(9) 1.0625(6) 0.7604(4)
H41 H 0.1615 1.0594 0.7165
C42 C 0.2572(13) 1.1450(8) 0.7707(5)
H42 H 0.3088 1.1971 0.7333
C43 C -0.1020(11) 0.2796(6) 0.8789(4)
H43 H -0.1482 0.2400 0.9224
C44 C -0.0050(9) 0.3715(6) 0.8710(4)
H44 H 0.0111 0.3934 0.9090
C45 C 0.0662(10) 0.4292(6) 0.8056(4)
C46 C 0.0367(11) 0.3963(6) 0.7490(4)
H45 H 0.0824 0.4353 0.7053
C47 C -0.0579(11) 0.3080(7) 0.7575(4)
H46 H -0.0760 0.2868 0.7195
C48 C 0.1556(11) 0.5303(6) 0.7948(4)
C49 C 0.1549(9) 0.6076(6) 0.7273(4)
H47 H 0.0484 0.6028 0.7152
H48 H 0.2402 0.5919 0.6924
H49 H 0.1757 0.6769 0.7314
C50 C 0.2888(9) 0.6793(6) 0.8906(4)
C51 C 0.2090(9) 0.6211(6) 0.9631(4)
H50 H 0.1213 0.5739 0.9619
H51 H 0.1640 0.6701 0.9887
H52 H 0.2914 0.5824 0.9845
C52 C 0.5266(11) 0.9106(6) 0.9157(4)
H53 H 0.5532 0.9365 0.9506
C53 C 0.4353(10) 0.8178(5) 0.9306(4)
H54 H 0.3998 0.7815 0.9759
C54 C 0.3954(10) 0.7774(6) 0.8792(4)
C55 C 0.4480(10) 0.8328(6) 0.8114(4)
H55 H 0.4204 0.8073 0.7765
C56 C 0.5413(9) 0.9257(6) 0.7963(5)
H56 H 0.5790 0.9616 0.7511
N9 N -0.4483(9) 0.4061(5) 0.8684(3)
N10 N -0.1428(8) 0.7333(5) 0.8545(3)
N11 N -0.0587(10) 0.8257(5) 0.8571(3)
N12 N 0.2692(9) 1.1510(6) 0.8359(4)
N13 N -0.1284(9) 0.2487(5) 0.8233(3)
N14 N 0.1991(8) 0.5492(5) 0.8485(3)
N15 N 0.2824(9) 0.6510(5) 0.8359(3)
N16 N 0.5785(7) 0.9652(5) 0.8485(3)
Ag3_2 Ag 0.41329(6) 1.27725(4) 0.85120(3)
Ag4_2 Ag 0.71253(6) 1.11533(4) 0.83350(3)
N12_2 N -0.7308(9) 0.1510(6) 0.8359(4)
N16_2 N -0.4215(7) -0.0348(5) 0.8485(3)
C57 C 1.0987(10) 0.5922(6) 0.5621(4)
C58 C 0.9555(9) 0.5274(6) 0.5889(4)
H57 H 0.9606 0.4569 0.5898
C59 C 0.8052(10) 0.5658(6) 0.6143(4)
H58 H 0.7092 0.5225 0.6308
C60 C 0.8025(10) 0.6719(6) 0.6143(4)
C61 C 0.9446(10) 0.7380(6) 0.5880(4)
H59 H 0.9406 0.8083 0.5879
C62 C 1.0926(10) 0.6974(5) 0.5617(4)
H60 H 1.1881 0.7409 0.5438
C63 C 0.6495(10) 0.7065(6) 0.6486(4)
H61 H 0.5683 0.7128 0.6202
H62 H 0.6702 0.7730 0.6572
H63 H 0.6083 0.6567 0.6910
O1 O 1.2913(7) 0.4499(4) 0.5807(2)
O2 O 1.2345(7) 0.5094(4) 0.4724(3)
O3 O 1.4332(7) 0.6155(4) 0.5244(3)
S1 S 1.2902(2) 0.53969(15) 0.53445(10)
C64 C 0.5695(10) 0.1254(6) 0.6137(4)
C65 C 0.5603(11) 0.0193(6) 0.6138(5)
H64 H 0.6418 -0.0241 0.6285
C66 C 0.4324(9) -0.0204(6) 0.5925(4)
H65 H 0.4269 -0.0907 0.5927
C67 C 0.3090(9) 0.0448(5) 0.5703(4)
C68 C 0.3180(11) 0.1495(7) 0.5697(4)
H66 H 0.2355 0.1921 0.5552
C69 C 0.4476(9) 0.1918(6) 0.5904(4)
H67 H 0.4542 0.2626 0.5889
C70 C 0.1757(11) -0.0059(7) 0.5419(4)
H68 H 0.1945 -0.0787 0.5467
H69 H 0.1837 0.0277 0.4945
H70 H 0.0667 0.0022 0.5669
O4 O 0.6362(6) 0.2201(4) 0.7017(2)
O5 O 0.7703(7) 0.2802(4) 0.5921(3)
O6 O 0.8392(6) 0.1099(4) 0.6531(2)
S2 S 0.7339(3) 0.18236(16) 0.64048(11)
C71 C 0.2267(11) 0.4879(7) 0.1238(4)
C72 C 0.2760(11) 0.4034(6) 0.0966(4)
H71 H 0.3868 0.3860 0.0900
C73 C 0.1551(12) 0.3445(8) 0.0791(4)
H72 H 0.1859 0.2877 0.0610
C74 C -0.0110(10) 0.3718(6) 0.0890(4)
C75 C -0.0555(10) 0.4584(6) 0.1164(4)
H73 H -0.1656 0.4774 0.1226
C76 C 0.0634(11) 0.5154(6) 0.1341(4)
H74 H 0.0331 0.5718 0.1527
C77 C -0.1155(10) 0.2980(6) 0.0739(4)
H75 H -0.0533 0.2684 0.0390
H76 H -0.2087 0.3322 0.0583
H77 H -0.1546 0.2436 0.1143
O7 O 0.3251(6) 0.5565(4) 0.2174(3)
O8 O 0.5290(7) 0.5193(4) 0.1271(2)
O9 O 0.3831(7) 0.6648(4) 0.1056(3)
S3 S 0.3810(3) 0.56330(17) 0.14443(11)
C78 C -0.3700(10) 0.0129(6) 1.0528(4)
C79 C -0.2044(10) 0.0442(7) 1.0450(4)
H78 H -0.1724 0.1147 1.0294
C80 C -0.0875(11) -0.0264(6) 1.0597(4)
H79 H 0.0232 -0.0033 1.0526
C81 C -0.1310(11) -0.1329(6) 1.0854(4)
C82 C -0.2976(10) -0.1646(7) 1.0933(4)
H80 H -0.3297 -0.2351 1.1088
C83 C -0.4166(11) -0.0922(7) 1.0782(4)
H81 H -0.5276 -0.1144 1.0852
C84 C -0.0136(10) -0.2110(6) 1.1047(4)
H82 H -0.0206 -0.2259 1.1532
H83 H 0.0972 -0.1852 1.0816
H84 H -0.0398 -0.2736 1.0922
O10 O -0.6810(6) 0.0447(4) 1.0499(2)
O11 O -0.5268(7) 0.1844(4) 1.0749(3)
O12 O -0.4903(6) 0.1533(4) 0.9592(2)
S4 S -0.5273(2) 0.10395(14) 1.03347(10)
O13 O 0.4625(7) 1.3838(4) 0.7029(3)
H85 H 0.3607 1.3859 0.6998
H86 H 0.5054 1.3418 0.6796
O14 O 0.0655(7) 0.3294(4) 0.4803(3)
H87 H 0.1192 0.3368 0.5103
H88 H -0.0302 0.3009 0.4997
loop_
_geom_bond_atom_site_label_1
_geom_bond_atom_site_label_2
_geom_bond_site_symmetry_1
_geom_bond_site_symmetry_2
Ag1 Ag2 1_555 1_555
Ag2 N5 1_555 1_555
Ag3 Ag4 1_555 1_555
Ag4 N13 1_555 1_555
C1 H1 1_555 1_555
C2 C1 1_555 1_555
H2 C2 1_555 1_555
C3 C2 1_555 1_555
C4 C3 1_555 1_555
H3 C4 1_555 1_555
C5 C4 1_555 1_555
H4 C5 1_555 1_555
C6 C3 1_555 1_555
C7 C6 1_555 1_555
H5 C7 1_555 1_555
H6 C7 1_555 1_555
H7 C7 1_555 1_555
C8 C9 1_555 1_555
C9 H8 1_555 1_555
H9 C9 1_555 1_555
H10 C9 1_555 1_555
C10 H11 1_555 1_555
C11 C10 1_555 1_555
H12 C11 1_555 1_555
C12 C8 1_555 1_555
C13 C12 1_555 1_555
H13 C13 1_555 1_555
C14 C13 1_555 1_555
H14 C14 1_555 1_555
C15 H15 1_555 1_555
C16 C15 1_555 1_555
H16 C16 1_555 1_555
C17 C16 1_555 1_555
C18 C17 1_555 1_555
H17 C18 1_555 1_555
C19 C18 1_555 1_555
H18 C19 1_555 1_555
C20 C17 1_555 1_555
C21 C20 1_555 1_555
H19 C21 1_555 1_555
H20 C21 1_555 1_555
H21 C21 1_555 1_555
C22 C23 1_555 1_555
C23 H22 1_555 1_555
H23 C23 1_555 1_555
H24 C23 1_555 1_555
C24 H25 1_555 1_555
C25 C24 1_555 1_555
H26 C25 1_555 1_555
C26 C22 1_555 1_555
C27 C26 1_555 1_555
H27 C27 1_555 1_555
C28 C27 1_555 1_555
H28 C28 1_555 1_555
C29 H29 1_555 1_555
C30 C29 1_555 1_555
H30 C30 1_555 1_555
C31 C30 1_555 1_555
C32 C31 1_555 1_555
H31 C32 1_555 1_555
C33 C32 1_555 1_555
H32 C33 1_555 1_555
C34 C31 1_555 1_555
C35 C34 1_555 1_555
H33 C35 1_555 1_555
H34 C35 1_555 1_555
H35 C35 1_555 1_555
C36 C37 1_555 1_555
C37 H36 1_555 1_555
H37 C37 1_555 1_555
H38 C37 1_555 1_555
C38 H39 1_555 1_555
C39 C38 1_555 1_555
H40 C39 1_555 1_555
C40 C36 1_555 1_555
C41 C40 1_555 1_555
H41 C41 1_555 1_555
C42 C41 1_555 1_555
H42 C42 1_555 1_555
C43 H43 1_555 1_555
C44 C43 1_555 1_555
H44 C44 1_555 1_555
C45 C44 1_555 1_555
C46 C45 1_555 1_555
H45 C46 1_555 1_555
C47 C46 1_555 1_555
H46 C47 1_555 1_555
C48 C45 1_555 1_555
C49 C48 1_555 1_555
H47 C49 1_555 1_555
H48 C49 1_555 1_555
H49 C49 1_555 1_555
C50 C51 1_555 1_555
C51 H50 1_555 1_555
H51 C51 1_555 1_555
H52 C51 1_555 1_555
C52 H53 1_555 1_555
C53 C52 1_555 1_555
H54 C53 1_555 1_555
C54 C50 1_555 1_555
C55 C54 1_555 1_555
H55 C55 1_555 1_555
C56 C55 1_555 1_555
H56 C56 1_555 1_555
C57 C58 1_555 1_555
C58 H57 1_555 1_555
C59 C58 1_555 1_555
H58 C59 1_555 1_555
C60 C59 1_555 1_555
C61 C60 1_555 1_555
H59 C61 1_555 1_555
C62 C57 1_555 1_555
H60 C62 1_555 1_555
C63 C60 1_555 1_555
H61 C63 1_555 1_555
H62 C63 1_555 1_555
H63 C63 1_555 1_555
C64 C65 1_555 1_555
C65 H64 1_555 1_555
C66 C65 1_555 1_555
H65 C66 1_555 1_555
C67 C66 1_555 1_555
C68 C67 1_555 1_555
H66 C68 1_555 1_555
C69 C64 1_555 1_555
H67 C69 1_555 1_555
C70 C67 1_555 1_555
H68 C70 1_555 1_555
H69 C70 1_555 1_555
H70 C70 1_555 1_555
C71 C72 1_555 1_555
C72 H71 1_555 1_555
C73 C72 1_555 1_555
H72 C73 1_555 1_555
C74 C73 1_555 1_555
C75 C74 1_555 1_555
H73 C75 1_555 1_555
C76 C71 1_555 1_555
H74 C76 1_555 1_555
C77 C74 1_555 1_555
H75 C77 1_555 1_555
H76 C77 1_555 1_555
H77 C77 1_555 1_555
C78 C79 1_555 1_555
C79 H78 1_555 1_555
C80 C79 1_555 1_555
H79 C80 1_555 1_555
C81 C80 1_555 1_555
C82 C81 1_555 1_555
H80 C82 1_555 1_555
C83 C78 1_555 1_555
H81 C83 1_555 1_555
C84 C81 1_555 1_555
H82 C84 1_555 1_555
H83 C84 1_555 1_555
H84 C84 1_555 1_555
N1 Ag1 1_555 1_555
N2 C6 1_555 1_555
N3 C8 1_555 1_555
N4 C10 1_555 1_555
N5 C15 1_555 1_555
N6 C20 1_555 1_555
N7 C22 1_555 1_555
N8 C24 1_555 1_555
N9 Ag3 1_555 1_555
N10 C34 1_555 1_555
N11 C36 1_555 1_555
N12 C38 1_555 1_555
N13 C43 1_555 1_555
N14 C48 1_555 1_555
N15 C50 1_555 1_555
N16 C52 1_555 1_555
O1 S1 1_555 1_555
O2 S1 1_555 1_555
O3 S1 1_555 1_555
O4 S2 1_555 1_555
O5 S2 1_555 1_555
O6 S2 1_555 1_555
O7 S3 1_555 1_555
O8 S3 1_555 1_555
O9 S3 1_555 1_555
O10 S4 1_555 1_555
O11 S4 1_555 1_555
O12 S4 1_555 1_555
O13 H85 1_555 1_555
H86 O13 1_555 1_555
O14 H87 1_555 1_555
H88 O14 1_555 1_555
S1 C57 1_555 1_555
S2 C64 1_555 1_555
S3 C71 1_555 1_555
S4 C78 1_555 1_555
Ag1_2 N4 1_555 1_555
Ag2_2 N8 1_555 1_555
Ag3_2 N12 1_555 1_555
Ag4_2 N16 1_555 1_555
N4_2 Ag1 1_555 1_555
N8_2 Ag2 1_555 1_555
N12_2 Ag3 1_555 1_555
N16_2 Ag4 1_555 1_555
C1 N1 1_555 1_555
C5 N1 1_555 1_555
C11 C12 1_555 1_555
C14 N4 1_555 1_555
C19 N5 1_555 1_555
C25 C26 1_555 1_555
C28 N8 1_555 1_555
C29 N9 1_555 1_555
C33 N9 1_555 1_555
C39 C40 1_555 1_555
C42 N12 1_555 1_555
C47 N13 1_555 1_555
C53 C54 1_555 1_555
C56 N16 1_555 1_555
C61 C62 1_555 1_555
C68 C69 1_555 1_555
C75 C76 1_555 1_555
C82 C83 1_555 1_555
N2 N3 1_555 1_555
N6 N7 1_555 1_555
N10 N11 1_555 1_555
N14 N15 1_555 1_555
Ag1_2 Ag2_2 1_555 1_555
Ag3_2 Ag4_2 1_555 1_555

#END
