
#######################################################################
#
#                 Cambridge Crystallographic Data Centre
#                                CCDC 
#
#######################################################################
#
# If this CIF has been generated from an entry in the Cambridge 
# Structural Database, then it will include bibliographic, chemical, 
# crystal, experimental, refinement or atomic coordinate data resulting 
# from the CCDC's data processing and validation procedures.
#
#######################################################################

data_NUGHIH
_symmetry_cell_setting           monoclinic
_symmetry_space_group_name_H-M   'C 2/c'
_symmetry_Int_Tables_number      15
_space_group_name_Hall           '-C 2yn'
loop_
_symmetry_equiv_pos_site_id
_symmetry_equiv_pos_as_xyz
1 x,y,z
2 -x,y,1/2-z
3 1/2+x,1/2+y,z
4 1/2-x,1/2+y,1/2-z
5 -x,-y,-z
6 x,-y,1/2+z
7 1/2-x,1/2-y,-z
8 1/2+x,1/2-y,1/2+z
_cell_length_a                   22.757(16)
_cell_length_b                   10.559(7)
_cell_length_c                   15.121(11)
_cell_angle_alpha                90
_cell_angle_beta                 108.646(11)
_cell_angle_gamma                90
_cell_volume                     3442.73
loop_
_atom_site_label
_atom_site_type_symbol
_atom_site_fract_x
_atom_site_fract_y
_atom_site_fract_z
Zn1 Zn 0.741099(11) 0.63838(2) 0.708490(16)
S1 S 0.58437(3) 0.88604(6) 0.55655(5)
S2 S 0.56444(3) 1.15616(6) 0.50849(5)
O1 O 0.70604(7) 0.80035(14) 0.63145(10)
O2 O 0.74595(7) 0.96496(15) 0.72151(11)
O3 O 0.73159(7) 1.22320(15) 0.66216(10)
O4 O 0.66405(9) 1.31157(19) 0.54032(14)
O5 O 0.71608(8) 0.53441(16) 0.58472(11)
H1 H 0.6813 0.5006 0.5796
N1 N 0.83606(9) 0.64842(18) 0.70164(14)
N2 N 0.64793(9) 0.62209(18) 0.72040(14)
C1 C 0.86659(11) 0.5442(3) 0.69051(18)
H2 H 0.8438 0.4708 0.6698
C2 C 0.92991(11) 0.5398(3) 0.70807(19)
H3 H 0.9487 0.4647 0.6993
C3 C 0.96562(11) 0.6477(2) 0.73896(18)
C4 C 0.93339(11) 0.7557(2) 0.74750(19)
H4 H 0.9549 0.8311 0.7662
C5 C 0.87020(11) 0.7536(2) 0.72882(18)
H5 H 0.8502 0.8282 0.7353
C6 C 0.59709(11) 0.5894(3) 0.65051(17)
H6 H 0.6015 0.5690 0.5931
C7 C 0.53867(11) 0.5845(3) 0.65892(17)
H7 H 0.5048 0.5616 0.6081
C8 C 0.53074(11) 0.6140(2) 0.74388(16)
C9 C 0.58361(12) 0.6445(3) 0.81700(18)
H8 H 0.5809 0.6614 0.8759
C10 C 0.63990(12) 0.6498(3) 0.80207(18)
H9 H 0.6744 0.6739 0.8515
C11 C 0.70568(9) 0.9140(2) 0.65614(14)
C12 C 0.64844(10) 0.9866(2) 0.59946(15)
C13 C 0.63940(10) 1.1105(2) 0.57631(15)
C14 C 0.53071(10) 1.0092(2) 0.51401(17)
C15 C 0.68279(10) 1.2220(2) 0.59565(15)
C16 C 0.7112(2) 0.5817(4) 0.4971(2)
H10 H 0.6714 0.6211 0.4705
H11 H 0.7155 0.5136 0.4575
H12 H 0.7433 0.6430 0.5027
Zn1D Zn 0.258901(11) 1.36162(2) 0.291510(16)
Zn1C Zn 0.758901(11) 1.13838(2) 0.791510(16)
Zn1G Zn 0.241099(11) 0.86162(2) 0.208490(16)
Zn1A Zn 1.258901(11) 0.63838(2) 0.791510(16)
Zn1A_2 Zn 0.258901(11) 0.63838(2) 0.791510(16)
S1D S 0.41563(3) 1.11396(6) 0.44345(5)
S2D S 0.43556(3) 0.84384(6) 0.49151(5)
O1D O 0.29396(7) 1.19965(14) 0.36855(10)
O1A O 0.29396(7) 0.80035(14) 0.86855(10)
O2D O 0.25405(7) 1.03504(15) 0.27849(11)
O2C O 0.75405(7) 0.46496(15) 0.77849(11)
O2B O 0.24595(7) 0.46496(15) 0.72151(11)
O3D O 0.26841(7) 0.77680(15) 0.33784(10)
O3C O 0.76841(7) 0.72320(15) 0.83784(10)
O3B O 0.23159(7) 0.72320(15) 0.66216(10)
O4D O 0.33595(9) 0.68843(19) 0.45968(14)
O5A O 0.28392(8) 0.53441(16) 0.91528(11)
H1A H 0.3187 0.5006 0.9204
N1A N 1.16394(9) 0.64842(18) 0.79836(14)
N1A_2 N 0.16394(9) 0.64842(18) 0.79836(14)
N2A N 0.35207(9) 0.62209(18) 0.77960(14)
C1A C 1.13341(11) 0.5442(3) 0.80949(18)
H2A H 1.1562 0.4708 0.8302
C2A C 1.07009(11) 0.5398(3) 0.79193(19)
H3A H 1.0513 0.4647 0.8007
C3A C 1.03438(11) 0.6477(2) 0.76104(18)
C4A C 1.06661(11) 0.7557(2) 0.75250(19)
H4A H 1.0451 0.8311 0.7338
C5A C 1.12980(11) 0.7536(2) 0.77118(18)
H5A H 1.1498 0.8282 0.7647
C6A C 0.40291(11) 0.5894(3) 0.84949(17)
H6A H 0.3985 0.5690 0.9069
C7A C 0.46133(11) 0.5845(3) 0.84108(17)
H7A H 0.4952 0.5616 0.8919
C8A C 0.46926(11) 0.6140(2) 0.75612(16)
C9A C 0.41639(12) 0.6445(3) 0.68300(18)
H8A H 0.4191 0.6614 0.6241
C10A C 0.36010(12) 0.6498(3) 0.69793(18)
H9A H 0.3256 0.6739 0.6485
C11D C 0.29432(9) 1.0860(2) 0.34386(14)
C12D C 0.35156(10) 1.0134(2) 0.40054(15)
C13D C 0.36060(10) 0.8895(2) 0.42369(15)
C14D C 0.46929(10) 0.9908(2) 0.48599(17)
C15D C 0.31721(10) 0.7780(2) 0.40435(15)
C16A C 0.2888(2) 0.5817(4) 1.0029(2)
H10A H 0.3286 0.6211 1.0295
H11A H 0.2845 0.5136 1.0425
H12A H 0.2567 0.6430 0.9973
loop_
_geom_bond_atom_site_label_1
_geom_bond_atom_site_label_2
_geom_bond_site_symmetry_1
_geom_bond_site_symmetry_2
Zn1 O1 1_555 1_555
S1 C12 1_555 1_555
S2 C13 1_555 1_555
O1 C11 1_555 1_555
O2 C11 1_555 1_555
O3 C15 1_555 1_555
O4 C15 1_555 1_555
O5 Zn1 1_555 1_555
H1 O5 1_555 1_555
N1 Zn1 1_555 1_555
N2 Zn1 1_555 1_555
C1 N1 1_555 1_555
H2 C1 1_555 1_555
C2 C1 1_555 1_555
H3 C2 1_555 1_555
C3 C2 1_555 1_555
C4 C3 1_555 1_555
H4 C4 1_555 1_555
C5 N1 1_555 1_555
H5 C5 1_555 1_555
C6 N2 1_555 1_555
H6 C6 1_555 1_555
C7 C6 1_555 1_555
H7 C7 1_555 1_555
C8 C7 1_555 1_555
C9 C8 1_555 1_555
H8 C9 1_555 1_555
C10 N2 1_555 1_555
H9 C10 1_555 1_555
C11 C12 1_555 1_555
C12 C13 1_555 1_555
C13 C15 1_555 1_555
C14 S1 1_555 1_555
C16 O5 1_555 1_555
H10 C16 1_555 1_555
H11 C16 1_555 1_555
H12 C16 1_555 1_555
Zn1D O1D 1_555 1_555
Zn1C O2 1_555 1_555
Zn1G O2D 1_555 1_555
Zn1A N1A 1_555 1_555
Zn1A_2 O1A 1_555 1_555
S1D C12D 1_555 1_555
S2D C13D 1_555 1_555
O1D C11D 1_555 1_555
O2D C11D 1_555 1_555
O2C Zn1 1_555 1_555
O2B Zn1A_2 1_555 1_555
O3D Zn1G 1_555 1_555
O3C Zn1 1_555 1_555
O3B Zn1A_2 1_555 1_555
O4D C15D 1_555 1_555
O5A Zn1A_2 1_555 1_555
H1A O5A 1_555 1_555
N1A C1A 1_555 1_555
N1A_2 Zn1A_2 1_555 1_555
N2A Zn1A_2 1_555 1_555
C1A H2A 1_555 1_555
C2A C1A 1_555 1_555
H3A C2A 1_555 1_555
C3A C3 1_555 1_555
C4A C3A 1_555 1_555
H4A C4A 1_555 1_555
C5A N1A 1_555 1_555
H5A C5A 1_555 1_555
C6A N2A 1_555 1_555
H6A C6A 1_555 1_555
C7A C6A 1_555 1_555
H7A C7A 1_555 1_555
C8A C8 1_555 1_555
C9A C8A 1_555 1_555
H8A C9A 1_555 1_555
C10A N2A 1_555 1_555
H9A C10A 1_555 1_555
C11D C12D 1_555 1_555
C12D C13D 1_555 1_555
C13D C15D 1_555 1_555
C14D C14 1_555 1_555
C15D O3D 1_555 1_555
C16A O5A 1_555 1_555
H10A C16A 1_555 1_555
H11A C16A 1_555 1_555
H12A C16A 1_555 1_555
S2 C14 1_555 1_555
O3 Zn1C 1_555 1_555
C4 C5 1_555 1_555
C9 C10 1_555 1_555
S1D C14D 1_555 1_555
S2D C14D 1_555 1_555
C2A C3A 1_555 1_555
C4A C5A 1_555 1_555
C7A C8A 1_555 1_555
C9A C10A 1_555 1_555

#END
