
#######################################################################
#
#                 Cambridge Crystallographic Data Centre
#                                CCDC 
#
#######################################################################
#
# If this CIF has been generated from an entry in the Cambridge 
# Structural Database, then it will include bibliographic, chemical, 
# crystal, experimental, refinement or atomic coordinate data resulting 
# from the CCDC's data processing and validation procedures.
#
#######################################################################

data_NUGHII
_symmetry_cell_setting           monoclinic
_symmetry_space_group_name_H-M   'P 21/n'
_symmetry_Int_Tables_number      14
_space_group_name_Hall           '-P 2yn'
loop_
_symmetry_equiv_pos_site_id
_symmetry_equiv_pos_as_xyz
1 x,y,z
2 1/2-x,1/2+y,1/2-z
3 -x,-y,-z
4 1/2+x,1/2-y,1/2+z
_cell_length_a                   12.7811(5)
_cell_length_b                   10.9619(4)
_cell_length_c                   16.8534(6)
_cell_angle_alpha                90
_cell_angle_beta                 100.443(4)
_cell_angle_gamma                90
_cell_volume                     2322.14
loop_
_atom_site_label
_atom_site_type_symbol
_atom_site_fract_x
_atom_site_fract_y
_atom_site_fract_z
Zn1 Zn 0.85323(3) 0.92226(4) 0.73413(2)
O1 O 0.72783(18) 0.7692(2) 0.78663(14)
O2 O 0.70946(17) 0.9645(2) 0.75246(14)
N1 N 0.6082(2) -0.2890(3) 0.40879(17)
N2 N 0.8109(2) 0.6365(3) 0.56588(16)
C1 C 0.3949(3) 0.7622(3) 0.7866(2)
C2 C 0.5603(3) 0.8620(3) 0.7868(2)
C3 C 0.5843(3) -0.0689(3) 0.4166(2)
N3 N 0.3244(2) 0.6556(3) 0.7710(2)
C4 C 0.6675(3) 0.4882(3) 0.53870(19)
H1 H 0.6221 0.5437 0.5569
N4 N 0.8416(2) 0.8011(3) 0.63892(17)
C5 C 0.7804(3) 0.7020(3) 0.6246(2)
H2 H 0.7252 0.6817 0.6513
C6 C 0.6736(3) 0.8625(3) 0.7754(2)
C7 C 0.6987(3) 0.2872(3) 0.48758(19)
N5 N 0.5481(2) -0.1866(3) 0.38699(16)
N6 N 0.8961(2) 0.6915(3) 0.54045(18)
C8 C 0.6595(3) 0.1620(3) 0.4644(2)
C9 C 0.4614(3) -0.2157(3) 0.3321(2)
H3 H 0.4089 -0.1612 0.3090
C10 C 0.6325(3) 0.3725(3) 0.5138(2)
H4 H 0.5622 0.3513 0.5146
C11 C 0.7723(3) 0.5196(3) 0.53586(19)
C12 C 0.5006(3) 0.7543(3) 0.7769(2)
C13 C 0.8399(3) 0.4371(3) 0.5084(2)
H5 H 0.9095 0.4592 0.5058
C14 C 0.5537(3) -0.3746(3) 0.3646(2)
H6 H 0.5751 -0.4558 0.3660
C15 C 0.5547(3) 0.1453(3) 0.4255(2)
H7 H 0.5096 0.2123 0.4149
C16 C 0.5169(3) 0.0297(3) 0.4026(2)
H8 H 0.4464 0.0189 0.3778
C17 C 0.5135(3) 0.9703(3) 0.8062(2)
H9 H 0.5530 1.0420 0.8110
O3 O 0.2398(2) 0.6583(3) 0.7956(2)
C18 C 0.3492(3) 0.8690(3) 0.8081(2)
H10 H 0.2788 0.8699 0.8155
C19 C 0.9094(3) 0.7896(3) 0.5864(2)
H11 H 0.9619 0.8470 0.5830
C20 C 0.6885(3) -0.0546(3) 0.4559(2)
H12 H 0.7335 -0.1217 0.4659
C21 C 0.7247(3) 0.0609(4) 0.4801(2)
H13 H 0.7942 0.0707 0.5075
O4 O 0.3507(2) 0.5707(3) 0.73313(18)
C22 C 0.8030(3) 0.3217(3) 0.4851(2)
H14 H 0.8486 0.2660 0.4673
C23 C 0.4093(3) 0.9731(3) 0.8184(2)
H15 H 0.3802 1.0453 0.8336
N7 N 0.4626(2) -0.3336(2) 0.31626(16)
C24 C 0.5506(3) 0.6363(3) 0.7546(2)
O5 O 0.57521(19) 0.5586(2) 0.81188(14)
O6 O 0.56617(18) 0.6213(2) 0.68497(14)
Zn1A Zn 0.64677(3) 0.42226(4) 0.76587(2)
Zn1C Zn 0.35323(3) -0.42226(4) 0.23413(2)
N7C N 0.9626(2) 0.8336(2) 0.81626(16)
O5A O 0.92479(19) 1.0586(2) 0.68812(14)
loop_
_geom_bond_atom_site_label_1
_geom_bond_atom_site_label_2
_geom_bond_site_symmetry_1
_geom_bond_site_symmetry_2
Zn1 O2 1_555 1_555
O1 C6 1_555 1_555
O2 C6 1_555 1_555
N1 N5 1_555 1_555
N2 C5 1_555 1_555
C1 N3 1_555 1_555
C2 C6 1_555 1_555
C3 N5 1_555 1_555
N3 O3 1_555 1_555
C4 H1 1_555 1_555
N4 Zn1 1_555 1_555
C5 N4 1_555 1_555
H2 C5 1_555 1_555
C7 C8 1_555 1_555
N5 C9 1_555 1_555
N6 N2 1_555 1_555
C8 C15 1_555 1_555
C9 H3 1_555 1_555
C10 C4 1_555 1_555
H4 C10 1_555 1_555
C11 N2 1_555 1_555
C12 C1 1_555 1_555
C13 C11 1_555 1_555
H5 C13 1_555 1_555
C14 N1 1_555 1_555
H6 C14 1_555 1_555
C15 H7 1_555 1_555
C16 C3 1_555 1_555
H8 C16 1_555 1_555
C17 C2 1_555 1_555
H9 C17 1_555 1_555
C18 C1 1_555 1_555
H10 C18 1_555 1_555
C19 N4 1_555 1_555
H11 C19 1_555 1_555
C20 C3 1_555 1_555
H12 C20 1_555 1_555
C21 C8 1_555 1_555
H13 C21 1_555 1_555
O4 N3 1_555 1_555
C22 C7 1_555 1_555
H14 C22 1_555 1_555
C23 C17 1_555 1_555
H15 C23 1_555 1_555
N7 C9 1_555 1_555
C24 C12 1_555 1_555
O5 C24 1_555 1_555
O6 C24 1_555 1_555
Zn1A O5 1_555 1_555
Zn1C N7 1_555 1_555
N7C Zn1 1_555 1_555
O5A Zn1 1_555 1_555
C2 C12 1_555 1_555
C4 C11 1_555 1_555
C7 C10 1_555 1_555
N6 C19 1_555 1_555
C13 C22 1_555 1_555
C14 N7 1_555 1_555
C15 C16 1_555 1_555
C18 C23 1_555 1_555
C20 C21 1_555 1_555

#END
