
#######################################################################
#
#                 Cambridge Crystallographic Data Centre
#                                CCDC 
#
#######################################################################
#
# If this CIF has been generated from an entry in the Cambridge 
# Structural Database, then it will include bibliographic, chemical, 
# crystal, experimental, refinement or atomic coordinate data resulting 
# from the CCDC's data processing and validation procedures.
#
#######################################################################

data_NUGJIJ
_symmetry_cell_setting           monoclinic
_symmetry_space_group_name_H-M   'P 21/c'
_symmetry_Int_Tables_number      14
_space_group_name_Hall           '-P 2ybc'
loop_
_symmetry_equiv_pos_site_id
_symmetry_equiv_pos_as_xyz
1 x,y,z
2 -x,1/2+y,1/2-z
3 -x,-y,-z
4 x,1/2-y,1/2+z
_cell_length_a                   7.4186(9)
_cell_length_b                   14.2377(18)
_cell_length_c                   15.960(2)
_cell_angle_alpha                90
_cell_angle_beta                 94.729(2)
_cell_angle_gamma                90
_cell_volume                     1680.02
loop_
_atom_site_label
_atom_site_type_symbol
_atom_site_fract_x
_atom_site_fract_y
_atom_site_fract_z
Cd1 Cd 0.25754(4) 0.495940(19) 0.557106(17)
N1 N 0.3933(5) 0.4001(2) 0.6628(2)
N2 N 0.5909(5) 0.3566(2) 0.76498(19)
N3 N 0.8152(5) 0.4151(2) 1.3266(2)
N4 N 0.7645(4) 0.3550(2) 1.20016(19)
Br1 Br 0.57482(5) 0.60787(3) 0.56000(2)
Br2 Br -0.05745(5) 0.38956(3) 0.55500(3)
Br3 Br 0.79064(6) 0.66741(3) 0.99656(3)
C1 C 0.7489(5) 0.3987(3) 0.9011(2)
C2 C 0.7171(5) 0.3450(3) 0.9704(2)
H1 H 0.7038 0.2803 0.9650
C3 C 0.7050(5) 0.3873(3) 1.0480(2)
C4 C 0.7273(5) 0.4836(3) 1.0559(2)
H2 H 0.7202 0.5126 1.1077
C5 C 0.7603(5) 0.5363(3) 0.9860(3)
C6 C 0.7702(5) 0.4945(3) 0.9089(3)
H3 H 0.7912 0.5307 0.8622
C7 C 0.7617(6) 0.3512(3) 0.8170(2)
H4 H 0.8561 0.3810 0.7878
H5 H 0.7946 0.2858 0.8260
C8 C 0.4283(6) 0.3196(3) 0.7822(3)
H6 H 0.4052 0.2828 0.8282
C9 C 0.3080(6) 0.3472(3) 0.7192(3)
H7 H 0.1855 0.3325 0.7147
C10 C 0.5627(6) 0.4042(3) 0.6923(2)
H8 H 0.6524 0.4361 0.6663
C11 C 0.6665(6) 0.3264(3) 1.1216(2)
H9 H 0.6985 0.2620 1.1095
H10 H 0.5378 0.3281 1.1283
C12 C 0.9459(6) 0.3484(3) 1.2208(3)
H11 H 1.0322 0.3231 1.1882
C13 C 0.9747(6) 0.3861(3) 1.2985(3)
H12 H 1.0871 0.3914 1.3285
C14 C 0.6921(6) 0.3952(3) 1.2656(2)
H13 H 0.5694 0.4075 1.2675
Cd1B Cd 0.74246(4) 0.504060(19) 1.442894(17)
Cd1B_2 Cd 0.74246(4) 0.504060(19) 0.442894(17)
Cd1B_3 Cd -0.25754(4) 0.504060(19) 0.442894(17)
N3B N 0.1848(5) 0.5849(2) 0.6734(2)
Br1B Br 0.42518(5) 0.39213(3) 0.44000(2)
Br2B Br 0.05745(5) 0.61044(3) 0.44500(3)
loop_
_geom_bond_atom_site_label_1
_geom_bond_atom_site_label_2
_geom_bond_site_symmetry_1
_geom_bond_site_symmetry_2
Cd1 N1 1_555 1_555
N1 C9 1_555 1_555
N2 C7 1_555 1_555
N3 C13 1_555 1_555
N4 C11 1_555 1_555
Br1 Cd1 1_555 1_555
Br2 Cd1 1_555 1_555
Br3 C5 1_555 1_555
C1 C2 1_555 1_555
C2 H1 1_555 1_555
C3 C2 1_555 1_555
C4 C3 1_555 1_555
H2 C4 1_555 1_555
C5 C4 1_555 1_555
C6 C1 1_555 1_555
H3 C6 1_555 1_555
C7 C1 1_555 1_555
H4 C7 1_555 1_555
H5 C7 1_555 1_555
C8 N2 1_555 1_555
H6 C8 1_555 1_555
C9 C8 1_555 1_555
H7 C9 1_555 1_555
C10 N1 1_555 1_555
H8 C10 1_555 1_555
C11 C3 1_555 1_555
H9 C11 1_555 1_555
H10 C11 1_555 1_555
C12 N4 1_555 1_555
H11 C12 1_555 1_555
C13 C12 1_555 1_555
H12 C13 1_555 1_555
C14 N3 1_555 1_555
H13 C14 1_555 1_555
Cd1B N3 1_555 1_555
Cd1B_2 Br1 1_555 1_555
Cd1B_3 Br2 1_555 1_555
N3B Cd1 1_555 1_555
Br1B Cd1 1_555 1_555
Br2B Cd1 1_555 1_555
N2 C10 1_555 1_555
N4 C14 1_555 1_555
C5 C6 1_555 1_555
Cd1B_2 Br1B 1_555 1_555
Cd1B_3 Br2B 1_555 1_555

#END
