
#######################################################################
#
#                 Cambridge Crystallographic Data Centre
#                                CCDC 
#
#######################################################################
#
# If this CIF has been generated from an entry in the Cambridge 
# Structural Database, then it will include bibliographic, chemical, 
# crystal, experimental, refinement or atomic coordinate data resulting 
# from the CCDC's data processing and validation procedures.
#
#######################################################################

data_NUGKAC
_symmetry_cell_setting           monoclinic
_symmetry_space_group_name_H-M   'C 2/c'
_symmetry_Int_Tables_number      15
_space_group_name_Hall           '-C 2yn'
loop_
_symmetry_equiv_pos_site_id
_symmetry_equiv_pos_as_xyz
1 x,y,z
2 -x,y,1/2-z
3 1/2+x,1/2+y,z
4 1/2-x,1/2+y,1/2-z
5 -x,-y,-z
6 x,-y,1/2+z
7 1/2-x,1/2-y,-z
8 1/2+x,1/2-y,1/2+z
_cell_length_a                   27.389(3)
_cell_length_b                   11.7252(14)
_cell_length_c                   17.606(2)
_cell_angle_alpha                90
_cell_angle_beta                 102.642(2)
_cell_angle_gamma                90
_cell_volume                     5516.94
loop_
_atom_site_label
_atom_site_type_symbol
_atom_site_fract_x
_atom_site_fract_y
_atom_site_fract_z
Cd1 Cd 0.934217(7) 0.818275(15) 0.269536(11)
O1 O 0.85183(7) 0.83321(16) 0.28866(11)
O2 O 0.91178(8) 0.82180(17) 0.39442(12)
O3 O 0.65047(8) 0.9330(3) 0.47100(14)
O4 O 1.01889(7) 0.81738(16) 0.33214(12)
O5 O 1.09978(8) 0.82207(18) 0.37182(12)
N1 N 0.93481(8) 0.62105(19) 0.27036(12)
N2 N 0.93724(8) 0.01680(19) 0.27338(13)
N3 N 0.72794(9) 0.9487(2) 0.54857(13)
H5 H 0.7431 0.9676 0.5950
C1 C 0.86629(11) 0.8353(2) 0.36178(17)
C2 C 0.82893(10) 0.8572(3) 0.41048(16)
C3 C 0.77805(11) 0.8559(3) 0.37878(18)
H6 H 0.7669 0.8360 0.3267
C4 C 0.74322(11) 0.8834(3) 0.42240(17)
H7 H 0.7092 0.8806 0.4000
C5 C 0.75940(10) 0.9148(3) 0.49915(16)
C6 C 0.81008(11) 0.9130(3) 0.53180(18)
H8 H 0.8213 0.9313 0.5841
C7 C 0.84439(11) 0.8844(3) 0.48794(18)
H9 H 0.8783 0.8835 0.5111
C8 C 0.67751(12) 0.9559(3) 0.53371(19)
C9 C 0.65708(13) 0.9931(4) 0.6022(2)
H10 H 0.6280 1.0398 0.5845
H11 H 0.6821 1.0362 0.6374
H12 H 0.6481 0.9272 0.6285
C10 C 0.90775(11) 0.5603(2) 0.21201(17)
H13 H 0.8886 0.5992 0.1698
C11 C 0.90681(11) 0.4433(2) 0.21125(17)
H14 H 0.8872 0.4048 0.1692
C12 C 0.93512(9) 0.3823(2) 0.27318(14)
C13 C 0.96341(11) 0.4459(2) 0.33362(16)
H15 H 0.9833 0.4096 0.3764
C14 C 0.96185(11) 0.5633(2) 0.32974(17)
H16 H 0.9808 0.6044 0.3710
C15 C 0.93546(9) 0.2558(2) 0.27390(14)
C16 C 0.96640(15) 0.1945(2) 0.33171(18)
H17 H 0.9878 0.2322 0.3723
C17 C 0.96565(14) 0.0766(2) 0.32932(18)
H18 H 0.9865 0.0373 0.3697
C18 C 0.90793(15) 0.0753(3) 0.2182(2)
H19 H 0.8876 0.0353 0.1777
C19 C 0.90553(16) 0.1930(3) 0.2166(2)
H20 H 0.8834 0.2297 0.1764
C20 C 1.05743(11) 0.8207(2) 0.38641(17)
C21 C 1.05101(16) 0.8244(4) 0.4683(2)
H21 H 1.0587 0.7508 0.4917
H22 H 1.0170 0.8440 0.4688
H23 H 1.0732 0.8804 0.4972
Cd1A Cd 1.065783(7) 0.818275(15) 0.230464(11)
Cd1_2 Cd 0.934217(7) -0.181725(15) 0.269536(11)
Cd1A_2 Cd 1.065783(7) -0.181725(15) 0.230464(11)
O1A O 1.14817(7) 0.83321(16) 0.21134(11)
O2A O 1.08822(8) 0.82180(17) 0.10558(12)
O3A O 1.34953(8) 0.9330(3) 0.02900(14)
O4A O 0.98111(7) 0.81738(16) 0.16786(12)
O5A O 0.90022(8) 0.82207(18) 0.12818(12)
N1A N 1.06519(8) 0.62105(19) 0.22964(12)
N2_2 N 0.93724(8) 1.01680(19) 0.27338(13)
N2A N 1.06276(8) 1.01680(19) 0.22662(13)
N2A_2 N 1.06276(8) 0.01680(19) 0.22662(13)
N3A N 1.27206(9) 0.9487(2) -0.04857(13)
H5A H 1.2569 0.9676 -0.0950
C1A C 1.13371(11) 0.8353(2) 0.13822(17)
C2A C 1.17107(10) 0.8572(3) 0.08952(16)
C3A C 1.22195(11) 0.8559(3) 0.12122(18)
H6A H 1.2331 0.8360 0.1733
C4A C 1.25678(11) 0.8834(3) 0.07760(17)
H7A H 1.2908 0.8806 0.1000
C5A C 1.24060(10) 0.9148(3) 0.00085(16)
C6A C 1.18992(11) 0.9130(3) -0.03180(18)
H8A H 1.1787 0.9313 -0.0841
C7A C 1.15561(11) 0.8844(3) 0.01206(18)
H9A H 1.1217 0.8835 -0.0111
C8A C 1.32249(12) 0.9559(3) -0.03371(19)
C9A C 1.34292(13) 0.9931(4) -0.1022(2)
H10A H 1.3720 1.0398 -0.0845
H11A H 1.3179 1.0362 -0.1374
H12A H 1.3519 0.9272 -0.1285
C10A C 1.09225(11) 0.5603(2) 0.28799(17)
H13A H 1.1114 0.5992 0.3302
C11A C 1.09319(11) 0.4433(2) 0.28875(17)
H14A H 1.1128 0.4048 0.3308
C12A C 1.06488(9) 0.3823(2) 0.22682(14)
C13A C 1.03659(11) 0.4459(2) 0.16638(16)
H15A H 1.0167 0.4096 0.1236
C14A C 1.03815(11) 0.5633(2) 0.17026(17)
H16A H 1.0192 0.6044 0.1290
C15A C 1.06454(9) 0.2558(2) 0.22610(14)
C16A C 1.03360(15) 0.1945(2) 0.16829(18)
H17A H 1.0122 0.2322 0.1277
C17A C 1.03435(14) 0.0766(2) 0.17068(18)
H18A H 1.0135 0.0373 0.1303
C18A C 1.09207(15) 0.0753(3) 0.2818(2)
H19A H 1.1124 0.0353 0.3223
C19A C 1.09447(16) 0.1930(3) 0.2834(2)
H20A H 1.1166 0.2297 0.3236
C20A C 0.94257(11) 0.8207(2) 0.11359(17)
C21A C 0.94899(16) 0.8244(4) 0.0317(2)
H21A H 0.9413 0.7508 0.0083
H22A H 0.9830 0.8440 0.0312
H23A H 0.9268 0.8804 0.0028
O6 O 0.05530(9) 0.6729(2) 0.97508(14)
H1 H 0.0644 0.7181 1.0117
H2 H 0.0787 0.6304 0.9704
O7 O 0.21559(9) 0.9988(2) 0.79831(12)
H3 H 0.2167 0.9463 0.7667
H4 H 0.1980 1.0521 0.7773
N4 N 0.22152(13) 0.1545(3) 0.17706(17)
C22 C 0.26684(16) 0.1871(3) 0.1726(2)
H24 H 0.2919 0.1839 0.2177
C23 C 0.27953(13) 0.2256(3) 0.1058(2)
H25 H 0.3123 0.2481 0.1069
C24 C 0.24396(11) 0.2311(3) 0.03686(17)
C25 C 0.19650(14) 0.1958(3) 0.0416(2)
H26 H 0.1707 0.1967 -0.0026
C26 C 0.18744(16) 0.1598(4) 0.1107(2)
H27 H 0.1550 0.1373 0.1115
N4F N 0.27848(13) 0.3455(3) -0.17706(17)
C22F C 0.23316(16) 0.3129(3) -0.1726(2)
H24F H 0.2081 0.3161 -0.2177
C23F C 0.22047(13) 0.2744(3) -0.1058(2)
H25F H 0.1877 0.2519 -0.1069
C24F C 0.25604(11) 0.2689(3) -0.03686(17)
C25F C 0.30350(14) 0.3042(3) -0.0416(2)
H26F H 0.3293 0.3033 0.0026
C26F C 0.31256(16) 0.3402(4) -0.1107(2)
H27F H 0.3450 0.3627 -0.1115
loop_
_geom_bond_atom_site_label_1
_geom_bond_atom_site_label_2
_geom_bond_site_symmetry_1
_geom_bond_site_symmetry_2
Cd1 O1 1_555 1_555
O1 C1 1_555 1_555
O2 Cd1 1_555 1_555
O3 C8 1_555 1_555
O4 Cd1 1_555 1_555
O5 C20 1_555 1_555
O6 H1 1_555 1_555
H2 O6 1_555 1_555
O7 H3 1_555 1_555
H4 O7 1_555 1_555
N1 Cd1 1_555 1_555
N2 C17 1_555 1_555
N3 H5 1_555 1_555
N4 C22 1_555 1_555
C1 O2 1_555 1_555
C2 C1 1_555 1_555
C3 C2 1_555 1_555
H6 C3 1_555 1_555
C4 C3 1_555 1_555
H7 C4 1_555 1_555
C5 N3 1_555 1_555
C6 C5 1_555 1_555
H8 C6 1_555 1_555
C7 C2 1_555 1_555
H9 C7 1_555 1_555
C8 N3 1_555 1_555
C9 C8 1_555 1_555
H10 C9 1_555 1_555
H11 C9 1_555 1_555
H12 C9 1_555 1_555
C10 N1 1_555 1_555
H13 C10 1_555 1_555
C11 C10 1_555 1_555
H14 C11 1_555 1_555
C12 C11 1_555 1_555
C13 C12 1_555 1_555
H15 C13 1_555 1_555
C14 N1 1_555 1_555
H16 C14 1_555 1_555
C15 C12 1_555 1_555
C16 C15 1_555 1_555
H17 C16 1_555 1_555
C17 C16 1_555 1_555
H18 C17 1_555 1_555
C18 N2 1_555 1_555
H19 C18 1_555 1_555
C19 C15 1_555 1_555
H20 C19 1_555 1_555
C20 O4 1_555 1_555
C21 C20 1_555 1_555
H21 C21 1_555 1_555
H22 C21 1_555 1_555
H23 C21 1_555 1_555
C22 H24 1_555 1_555
C23 C22 1_555 1_555
H25 C23 1_555 1_555
C24 C23 1_555 1_555
C25 C24 1_555 1_555
H26 C25 1_555 1_555
C26 N4 1_555 1_555
H27 C26 1_555 1_555
Cd1A O4 1_555 1_555
Cd1_2 N2 1_555 1_555
Cd1A_2 N2A_2 1_555 1_555
O1A Cd1A 1_555 1_555
O2A Cd1A 1_555 1_555
O3A C8A 1_555 1_555
O4A Cd1 1_555 1_555
O5A Cd1 1_555 1_555
N1A Cd1A 1_555 1_555
N2_2 Cd1 1_555 1_555
N2A Cd1A 1_555 1_555
N2A_2 C17A 1_555 1_555
N3A H5A 1_555 1_555
N4F C22F 1_555 1_555
C1A O1A 1_555 1_555
C2A C1A 1_555 1_555
C3A C2A 1_555 1_555
H6A C3A 1_555 1_555
C4A C3A 1_555 1_555
H7A C4A 1_555 1_555
C5A N3A 1_555 1_555
C6A C5A 1_555 1_555
H8A C6A 1_555 1_555
C7A C2A 1_555 1_555
H9A C7A 1_555 1_555
C8A N3A 1_555 1_555
C9A C8A 1_555 1_555
H10A C9A 1_555 1_555
H11A C9A 1_555 1_555
H12A C9A 1_555 1_555
C10A N1A 1_555 1_555
H13A C10A 1_555 1_555
C11A C10A 1_555 1_555
H14A C11A 1_555 1_555
C12A C11A 1_555 1_555
C13A C12A 1_555 1_555
H15A C13A 1_555 1_555
C14A N1A 1_555 1_555
H16A C14A 1_555 1_555
C15A C12A 1_555 1_555
C16A C15A 1_555 1_555
H17A C16A 1_555 1_555
C17A C16A 1_555 1_555
H18A C17A 1_555 1_555
C18A N2A_2 1_555 1_555
H19A C18A 1_555 1_555
C19A C15A 1_555 1_555
H20A C19A 1_555 1_555
C20A O4A 1_555 1_555
C21A C20A 1_555 1_555
H21A C21A 1_555 1_555
H22A C21A 1_555 1_555
H23A C21A 1_555 1_555
C22F H24F 1_555 1_555
C23F C22F 1_555 1_555
H25F C23F 1_555 1_555
C24F C24 1_555 1_555
C25F C24F 1_555 1_555
H26F C25F 1_555 1_555
C26F N4F 1_555 1_555
H27F C26F 1_555 1_555
O5 Cd1A 1_555 1_555
C4 C5 1_555 1_555
C6 C7 1_555 1_555
C13 C14 1_555 1_555
C18 C19 1_555 1_555
C25 C26 1_555 1_555
Cd1A O4A 1_555 1_555
O2A C1A 1_555 1_555
O5A C20A 1_555 1_555
C4A C5A 1_555 1_555
C6A C7A 1_555 1_555
C13A C14A 1_555 1_555
C18A C19A 1_555 1_555
C23F C24F 1_555 1_555
C25F C26F 1_555 1_555

#END
