
#######################################################################
#
#                 Cambridge Crystallographic Data Centre
#                                CCDC 
#
#######################################################################
#
# If this CIF has been generated from an entry in the Cambridge 
# Structural Database, then it will include bibliographic, chemical, 
# crystal, experimental, refinement or atomic coordinate data resulting 
# from the CCDC's data processing and validation procedures.
#
#######################################################################

data_NUGNOT
_symmetry_cell_setting           orthorhombic
_symmetry_space_group_name_H-M   'P 21 21 21'
_symmetry_Int_Tables_number      19
_space_group_name_Hall           'P 2ac 2ab'
loop_
_symmetry_equiv_pos_site_id
_symmetry_equiv_pos_as_xyz
1 x,y,z
2 1/2-x,-y,1/2+z
3 -x,1/2+y,1/2-z
4 1/2+x,1/2-y,-z
_cell_length_a                   7.4090(15)
_cell_length_b                   13.701(3)
_cell_length_c                   15.038(3)
_cell_angle_alpha                90
_cell_angle_beta                 90
_cell_angle_gamma                90
_cell_volume                     1526.52
loop_
_atom_site_label
_atom_site_type_symbol
_atom_site_fract_x
_atom_site_fract_y
_atom_site_fract_z
Fe1 Fe 1.01054(4) 0.841871(17) 0.203836(16)
Mn1 Mn 1.49050(5) 1.098925(18) 0.181644(18)
C1 C 1.1833(3) 0.93464(19) 0.15770(17)
C2 C 0.8193(3) 0.93408(18) 0.17319(18)
C3 C 0.8336(3) 0.7532(2) 0.25466(16)
C4 C 1.1962(3) 0.7530(2) 0.24534(16)
C5 C 1.0397(3) 0.90714(15) 0.31675(14)
C6 C 0.9946(5) 0.67826(15) 0.07756(15)
H1 H 0.9890 0.6326 0.1233
C7 C 1.0072(5) 0.81319(17) 0.00511(14)
H2 H 1.0118 0.8795 -0.0078
C8 C 1.0056(5) 0.7416(2) -0.05510(15)
H3 H 1.0093 0.7484 -0.1166
C9 C 1.5443(5) 0.9621(2) 0.3652(2)
H4 H 1.4940 0.9496 0.4229
H5 H 1.6671 0.9835 0.3715
H6 H 1.5410 0.9034 0.3304
C10 C 1.6606(6) 1.2135(3) 0.0124(2)
H7 H 1.6407 1.2263 -0.0496
H8 H 1.7740 1.1806 0.0198
H9 H 1.6625 1.2740 0.0445
N1 N 1.2877(3) 0.99137(17) 0.13405(15)
N2 N 0.7043(3) 0.98706(18) 0.16057(17)
N3 N 0.7269(3) 0.70081(18) 0.28213(17)
N4 N 1.3065(3) 0.70061(19) 0.26877(16)
N5 N 1.0649(3) 0.94590(15) 0.38352(14)
N6 N 1.0009(3) 0.77386(11) 0.08893(10)
N7 N 0.9973(4) 0.65677(16) -0.00831(14)
H10 H 0.981(5) 0.595(2) -0.0224(18)
O1 O 1.5196(3) 1.15363(13) 0.04543(11)
O2 O 1.4414(2) 1.03641(14) 0.32174(12)
H11 H 1.476(6) 1.124(2) 0.008(2)
H12 H 1.322(5) 1.028(2) 0.331(2)
Mn1_2 Mn 0.49050(5) 1.098925(18) 0.181644(18)
Mn1B Mn 0.50950(5) 0.598925(18) 0.318356(18)
Mn1B_2 Mn 1.50950(5) 0.598925(18) 0.318356(18)
N2_2 N 1.7043(3) 0.98706(18) 0.16057(17)
N3B N 1.2731(3) 1.20081(18) 0.21787(17)
N4B N 1.6935(3) 1.20061(19) 0.23123(16)
loop_
_geom_bond_atom_site_label_1
_geom_bond_atom_site_label_2
_geom_bond_site_symmetry_1
_geom_bond_site_symmetry_2
Fe1 C1 1_555 1_555
Mn1 N1 1_555 1_555
C1 N1 1_555 1_555
C2 Fe1 1_555 1_555
C3 Fe1 1_555 1_555
C4 Fe1 1_555 1_555
C5 Fe1 1_555 1_555
C6 H1 1_555 1_555
C7 H2 1_555 1_555
C8 C7 1_555 1_555
H3 C8 1_555 1_555
C9 H4 1_555 1_555
H5 C9 1_555 1_555
H6 C9 1_555 1_555
C10 H7 1_555 1_555
H8 C10 1_555 1_555
H9 C10 1_555 1_555
N2 C2 1_555 1_555
N3 C3 1_555 1_555
N4 C4 1_555 1_555
N5 C5 1_555 1_555
N6 Fe1 1_555 1_555
N7 C6 1_555 1_555
H10 N7 1_555 1_555
O1 Mn1 1_555 1_555
O2 Mn1 1_555 1_555
H11 O1 1_555 1_555
H12 O2 1_555 1_555
Mn1_2 N2 1_555 1_555
Mn1B N3 1_555 1_555
Mn1B_2 N4 1_555 1_555
N2_2 Mn1 1_555 1_555
N3B Mn1 1_555 1_555
N4B Mn1 1_555 1_555
C6 N6 1_555 1_555
C7 N6 1_555 1_555
C8 N7 1_555 1_555
C9 O2 1_555 1_555
C10 O1 1_555 1_555

#END
