
#######################################################################
#
#                 Cambridge Crystallographic Data Centre
#                                CCDC 
#
#######################################################################
#
# If this CIF has been generated from an entry in the Cambridge 
# Structural Database, then it will include bibliographic, chemical, 
# crystal, experimental, refinement or atomic coordinate data resulting 
# from the CCDC's data processing and validation procedures.
#
#######################################################################

data_NUGNEK
_symmetry_cell_setting           monoclinic
_symmetry_space_group_name_H-M   'P 21/n'
_symmetry_Int_Tables_number      14
_space_group_name_Hall           '-P 2yn'
loop_
_symmetry_equiv_pos_site_id
_symmetry_equiv_pos_as_xyz
1 x,y,z
2 1/2-x,1/2+y,1/2-z
3 -x,-y,-z
4 1/2+x,1/2-y,1/2+z
_cell_length_a                   9.3780(19)
_cell_length_b                   12.009(2)
_cell_length_c                   28.383(6)
_cell_angle_alpha                90
_cell_angle_beta                 91.38(3)
_cell_angle_gamma                90
_cell_volume                     3195.58
loop_
_atom_site_label
_atom_site_type_symbol
_atom_site_fract_x
_atom_site_fract_y
_atom_site_fract_z
Co1 Co 0.06032(5) 0.90074(4) 0.242677(17)
N1 N 0.0658(3) 0.7342(3) 0.21637(11)
C1 C 0.1860(3) 0.7078(3) 0.19440(12)
C2 C 0.1906(4) 0.6202(3) 0.16222(13)
C3 C 0.0697(4) 0.5534(3) 0.15669(14)
H1 H 0.0709 0.4924 0.1365
C4 C -0.0509(4) 0.5778(3) 0.18098(15)
H2 H -0.1313 0.5328 0.1782
C5 C -0.0501(4) 0.6705(3) 0.20957(14)
H3 H -0.1334 0.6896 0.2248
C6 C 0.3104(4) 0.6016(3) 0.12873(13)
O1 O 0.3408(3) 0.5030(2) 0.11804(11)
O2 O 0.3677(3) 0.6875(2) 0.11294(10)
N2 N 0.2696(3) 0.8901(2) 0.21377(12)
C7 C 0.3086(3) 0.7837(3) 0.20597(12)
C8 C 0.4510(3) 0.7509(3) 0.20923(12)
C9 C 0.5547(4) 0.8340(3) 0.21286(13)
H4 H 0.6509 0.8150 0.2126
C10 C 0.5152(4) 0.9434(3) 0.21675(15)
H5 H 0.5830 0.9999 0.2176
C11 C 0.3708(4) 0.9670(3) 0.21931(15)
H6 H 0.3434 1.0401 0.2252
C12 C 0.4974(3) 0.6312(3) 0.21397(12)
O3 O 0.6100(3) 0.6027(2) 0.19500(11)
O4 O 0.4202(3) 0.5703(2) 0.23872(9)
O5 O -0.1414(3) 0.8956(2) 0.27174(11)
O6 O -0.0387(4) 0.9543(3) 0.18018(12)
O7 O 0.1484(3) 0.8551(3) 0.30780(11)
Co2 Co 0.51153(6) 0.70949(5) 0.060093(18)
N3 N 0.6630(4) 0.7603(4) 0.01064(13)
C13 C 0.6995(5) 0.8680(5) 0.01350(16)
C14 C 0.8056(7) 0.9131(6) -0.0137(2)
H7 H 0.8293 0.9881 -0.0113
C15 C 0.8747(7) 0.8446(8) -0.0443(2)
H8 H 0.9471 0.8730 -0.0626
C16 C 0.8387(8) 0.7363(7) -0.0480(2)
H9 H 0.8838 0.6900 -0.0692
C17 C 0.7313(7) 0.6948(6) -0.0190(2)
H10 H 0.7076 0.6196 -0.0206
N4 N 0.5142(4) 0.8825(3) 0.06870(13)
C18 C 0.6163(5) 0.9366(4) 0.04589(16)
C19 C 0.6386(7) 1.0514(5) 0.0526(2)
H11 H 0.7117 1.0876 0.0372
C20 C 0.5521(8) 1.1095(5) 0.0818(2)
H12 H 0.5650 1.1856 0.0862
C21 C 0.4468(8) 1.0547(5) 0.1043(2)
H13 H 0.3861 1.0927 0.1241
C22 C 0.4316(6) 0.9420(4) 0.09726(18)
H14 H 0.3602 0.9051 0.1132
O8 O 0.6805(4) 0.6870(4) 0.10887(12)
O9 O 0.5194(4) 0.5349(3) 0.04868(13)
O10 O 0.3272(5) 0.7218(4) 0.01377(15)
Co1A Co 0.43968(5) 0.40074(4) 0.257323(17)
O4A O 0.0798(3) 1.0703(2) 0.26128(9)
N5 N -0.1866(5) 1.2228(5) 0.15400(17)
O11 O -0.2001(6) 1.1631(5) 0.1884(2)
O12 O -0.2669(8) 1.3015(5) 0.1462(2)
O13 O -0.0983(7) 1.2005(9) 0.1262(2)
N6 N 0.0212(7) 0.7989(7) 0.0783(2)
O14 O 0.1091(10) 0.8642(11) 0.0723(7)
O15 O -0.0788(6) 0.8109(6) 0.1059(2)
O16 O 0.0273(11) 0.7135(11) 0.0585(3)
O17 O 0.1677(4) 1.1861(3) 0.17739(13)
O18 O 0.7747(8) 0.4169(5) 0.0577(2)
loop_
_geom_bond_atom_site_label_1
_geom_bond_atom_site_label_2
_geom_bond_site_symmetry_1
_geom_bond_site_symmetry_2
Co1 N1 1_555 1_555
N1 C1 1_555 1_555
C1 C2 1_555 1_555
C2 C3 1_555 1_555
C3 H1 1_555 1_555
C4 C3 1_555 1_555
H2 C4 1_555 1_555
C5 N1 1_555 1_555
H3 C5 1_555 1_555
C6 C2 1_555 1_555
O1 C6 1_555 1_555
O2 C6 1_555 1_555
N2 Co1 1_555 1_555
C7 C1 1_555 1_555
C8 C7 1_555 1_555
C9 C8 1_555 1_555
H4 C9 1_555 1_555
C10 C9 1_555 1_555
H5 C10 1_555 1_555
C11 N2 1_555 1_555
H6 C11 1_555 1_555
C12 C8 1_555 1_555
O3 C12 1_555 1_555
O4 C12 1_555 1_555
O5 Co1 1_555 1_555
O6 Co1 1_555 1_555
O7 Co1 1_555 1_555
Co2 O2 1_555 1_555
N3 Co2 1_555 1_555
C13 N3 1_555 1_555
C14 C13 1_555 1_555
H7 C14 1_555 1_555
C15 C14 1_555 1_555
H8 C15 1_555 1_555
C16 C15 1_555 1_555
H9 C16 1_555 1_555
C17 N3 1_555 1_555
H10 C17 1_555 1_555
N4 Co2 1_555 1_555
C18 C13 1_555 1_555
C19 C18 1_555 1_555
H11 C19 1_555 1_555
C20 C19 1_555 1_555
H12 C20 1_555 1_555
C21 C20 1_555 1_555
H13 C21 1_555 1_555
C22 N4 1_555 1_555
H14 C22 1_555 1_555
O8 Co2 1_555 1_555
O9 Co2 1_555 1_555
O10 Co2 1_555 1_555
N5 O11 1_555 1_555
O12 N5 1_555 1_555
O13 N5 1_555 1_555
N6 O14 1_555 1_555
O15 N6 1_555 1_555
O16 N6 1_555 1_555
Co1A O4 1_555 1_555
O4A Co1 1_555 1_555
C4 C5 1_555 1_555
N2 C7 1_555 1_555
C10 C11 1_555 1_555
C16 C17 1_555 1_555
N4 C18 1_555 1_555
C21 C22 1_555 1_555

#END
