
#######################################################################
#
#                 Cambridge Crystallographic Data Centre
#                                CCDC 
#
#######################################################################
#
# If this CIF has been generated from an entry in the Cambridge 
# Structural Database, then it will include bibliographic, chemical, 
# crystal, experimental, refinement or atomic coordinate data resulting 
# from the CCDC's data processing and validation procedures.
#
#######################################################################

data_NUGNIN01
_symmetry_cell_setting           orthorhombic
_symmetry_space_group_name_H-M   'P n m a'
_symmetry_Int_Tables_number      62
_space_group_name_Hall           '-P 2ac 2n'
loop_
_symmetry_equiv_pos_site_id
_symmetry_equiv_pos_as_xyz
1 x,y,z
2 1/2-x,-y,1/2+z
3 1/2+x,1/2-y,1/2-z
4 -x,1/2+y,-z
5 -x,-y,-z
6 1/2+x,y,1/2-z
7 1/2-x,1/2+y,1/2+z
8 x,1/2-y,z
_cell_length_a                   13.128(2)
_cell_length_b                   7.2227(13)
_cell_length_c                   22.332(4)
_cell_angle_alpha                90
_cell_angle_beta                 90
_cell_angle_gamma                90
_cell_volume                     2117.51
loop_
_atom_site_label
_atom_site_type_symbol
_atom_site_fract_x
_atom_site_fract_y
_atom_site_fract_z
Fe1 Fe 0.23919(11) -0.250 0.28654(7)
Mn1 Mn 0.52320(12) 0.2500 0.32177(7)
N1 N 0.1325(8) -0.250 0.4083(5)
N2 N 0.3970(5) 0.0415(9) 0.3262(3)
N3 N 0.0846(5) -0.5420(8) 0.2424(3)
N4 N 0.3008(7) -0.250 0.2059(4)
N5 N 0.4144(8) -0.250 0.1344(4)
N6 N 0.5211(7) 0.2500 0.4235(4)
N7 N 0.6907(7) 0.2500 0.3575(4)
C1 C 0.1742(9) -0.250 0.3642(6)
C2 C 0.3360(6) -0.0644(10) 0.3128(3)
C3 C 0.1411(5) -0.4347(10) 0.2607(3)
C4 C 0.4007(9) -0.250 0.1939(5)
C5 C 0.3215(9) -0.250 0.1068(6)
C6 C 0.2513(10) -0.250 0.1515(5)
C7 C 0.4353(9) 0.2500 0.4534(5)
C8 C 0.4309(10) 0.2500 0.5152(5)
C9 C 0.5217(10) 0.2500 0.5468(5)
C10 C 0.6124(10) 0.2500 0.5160(5)
C11 C 0.6105(9) 0.2500 0.4543(5)
C12 C 0.7045(8) 0.2500 0.4180(5)
C13 C 0.7999(10) 0.2500 0.4421(6)
C14 C 0.8843(11) 0.2500 0.4040(7)
C15 C 0.8707(10) 0.2500 0.3423(6)
C16 C 0.7712(8) 0.2500 0.3211(5)
H1 H 0.45356 -0.250 0.22301
H2 H 0.30863 -0.250 0.06491
H3 H 0.17948 -0.250 0.14614
H4 H 0.37320 0.250 0.43153
H5 H 0.36726 0.250 0.53549
H6 H 0.52130 0.250 0.58931
H7 H 0.67538 0.250 0.53690
H8 H 0.80888 0.250 0.48433
H9 H 0.95115 0.250 0.42031
H10 H 0.92717 0.250 0.31572
H11 H 0.76016 0.250 0.27909
H12 H 0.47373 -0.250 0.11603
Mn1_2 Mn 0.52320(12) -0.7500 0.32177(7)
Mn1B Mn 0.02320(12) -0.7500 0.17823(7)
Mn1B_2 Mn 0.02320(12) 0.2500 0.17823(7)
N2G N 0.3970(5) -0.5415(9) 0.3262(3)
N2G_2 N 0.3970(5) 0.4585(9) 0.3262(3)
N3G N 0.0846(5) 0.0420(8) 0.2424(3)
N3B N 0.5846(5) 0.0420(8) 0.2576(3)
N3E N 0.5846(5) 0.4580(8) 0.2576(3)
C2G C 0.3360(6) -0.4356(10) 0.3128(3)
C3G C 0.1411(5) -0.0653(10) 0.2607(3)
loop_
_geom_bond_atom_site_label_1
_geom_bond_atom_site_label_2
_geom_bond_site_symmetry_1
_geom_bond_site_symmetry_2
Fe1 N4 1_555 1_555
Mn1 N2 1_555 1_555
N1 C1 1_555 1_555
N2 C2 1_555 1_555
N3 C3 1_555 1_555
N4 C4 1_555 1_555
N5 C4 1_555 1_555
N6 Mn1 1_555 1_555
N7 Mn1 1_555 1_555
C1 Fe1 1_555 1_555
C2 Fe1 1_555 1_555
C3 Fe1 1_555 1_555
C4 H1 1_555 1_555
C5 N5 1_555 1_555
C6 N4 1_555 1_555
C7 N6 1_555 1_555
C8 C7 1_555 1_555
C9 C8 1_555 1_555
C10 C9 1_555 1_555
C11 N6 1_555 1_555
C12 N7 1_555 1_555
C13 C12 1_555 1_555
C14 C13 1_555 1_555
C15 C14 1_555 1_555
C16 N7 1_555 1_555
H2 C5 1_555 1_555
H3 C6 1_555 1_555
H4 C7 1_555 1_555
H5 C8 1_555 1_555
H6 C9 1_555 1_555
H7 C10 1_555 1_555
H8 C13 1_555 1_555
H9 C14 1_555 1_555
H10 C15 1_555 1_555
H11 C16 1_555 1_555
H12 N5 1_555 1_555
Mn1_2 N2G 1_555 1_555
Mn1B N3 1_555 1_555
Mn1B_2 N3G 1_555 1_555
N2G C2G 1_555 1_555
N2G_2 Mn1 1_555 1_555
N3G C3G 1_555 1_555
N3B Mn1 1_555 1_555
N3E Mn1 1_555 1_555
C2G Fe1 1_555 1_555
C3G Fe1 1_555 1_555
C5 C6 1_555 1_555
C10 C11 1_555 1_555
C11 C12 1_555 1_555
C15 C16 1_555 1_555

#END
