
#######################################################################
#
#                 Cambridge Crystallographic Data Centre
#                                CCDC 
#
#######################################################################
#
# If this CIF has been generated from an entry in the Cambridge 
# Structural Database, then it will include bibliographic, chemical, 
# crystal, experimental, refinement or atomic coordinate data resulting 
# from the CCDC's data processing and validation procedures.
#
#######################################################################

data_NUGNOT01
_symmetry_cell_setting           orthorhombic
_symmetry_space_group_name_H-M   'P 21 21 21'
_symmetry_Int_Tables_number      19
_space_group_name_Hall           'P 2ac 2ab'
loop_
_symmetry_equiv_pos_site_id
_symmetry_equiv_pos_as_xyz
1 x,y,z
2 1/2-x,-y,1/2+z
3 1/2+x,1/2-y,-z
4 -x,1/2+y,1/2-z
_cell_length_a                   7.385(5)
_cell_length_b                   13.767(9)
_cell_length_c                   14.895(10)
_cell_angle_alpha                90
_cell_angle_beta                 90
_cell_angle_gamma                90
_cell_volume                     1514.36
loop_
_atom_site_label
_atom_site_type_symbol
_atom_site_fract_x
_atom_site_fract_y
_atom_site_fract_z
Fe1 Fe 0.4877(3) 0.34317(11) 0.29715(10)
Mn1 Mn 0.0097(4) 0.59999(11) 0.31868(11)
O1 O -0.0095(15) 0.6544(5) 0.4564(5)
O2 O 0.0572(11) 0.5368(6) 0.1793(6)
N1 N 0.2114(14) 0.4939(8) 0.3685(8)
N2 N 0.1939(16) 0.1996(10) 0.2298(8)
N3 N 0.7727(16) 0.2024(10) 0.2199(9)
N4 N 0.4328(13) 0.4483(7) 0.1159(7)
N5 N 0.7972(16) 0.4885(9) 0.3393(9)
N6 N 0.4971(19) 0.2752(6) 0.4125(5)
N7 N 0.4999(19) 0.1554(7) 0.5087(6)
C1 C 0.3150(19) 0.4378(10) 0.3447(10)
C2 C 0.305(2) 0.2542(12) 0.2552(10)
C3 C 0.668(2) 0.2567(12) 0.2468(10)
C4 C 0.4576(17) 0.4105(8) 0.1841(8)
C5 C 0.6784(19) 0.4328(11) 0.3279(10)
C6 C 0.503(2) 0.1791(7) 0.4223(7)
C7 C 0.494(2) 0.2404(8) 0.5592(8)
C8 C 0.4939(12) 0.3134(5) 0.4977(5)
C9 C -0.1507(12) 0.7146(5) 0.4885(5)
C10 C -0.0462(12) 0.4604(5) 0.1340(5)
H1 H 0.08327 0.63649 0.49738
H2 H 0.15602 0.56325 0.14662
H3 H 0.50850 0.13389 0.37422
H4 H 0.49118 0.24621 0.62276
H5 H 0.50132 0.09591 0.53037
H6 H 0.49177 0.38071 0.51155
H7 H -0.17187 0.76750 0.44575
H8 H -0.11661 0.74173 0.54687
H9 H -0.26162 0.67608 0.49499
H10 H -0.01931 0.39756 0.16192
H11 H -0.01241 0.45836 0.07042
H12 H -0.17592 0.47412 0.13941
Mn1C Mn -0.0097(4) 0.09999(11) 0.18132(11)
Mn1C_2 Mn 0.9903(4) 0.09999(11) 0.18132(11)
Mn1_2 Mn 1.0097(4) 0.59999(11) 0.31868(11)
N2C N -0.1939(16) 0.6996(10) 0.2702(8)
N3C N 0.2273(16) 0.7024(10) 0.2801(9)
N5_2 N -0.2028(16) 0.4885(9) 0.3393(9)
loop_
_geom_bond_atom_site_label_1
_geom_bond_atom_site_label_2
_geom_bond_site_symmetry_1
_geom_bond_site_symmetry_2
Fe1 N6 1_555 1_555
Mn1 O1 1_555 1_555
O1 C9 1_555 1_555
O2 Mn1 1_555 1_555
N1 Mn1 1_555 1_555
N2 C2 1_555 1_555
N3 C3 1_555 1_555
N4 C4 1_555 1_555
N5 C5 1_555 1_555
N6 C6 1_555 1_555
N7 C6 1_555 1_555
C1 Fe1 1_555 1_555
C2 Fe1 1_555 1_555
C3 Fe1 1_555 1_555
C4 Fe1 1_555 1_555
C5 Fe1 1_555 1_555
C6 H3 1_555 1_555
C7 N7 1_555 1_555
C8 N6 1_555 1_555
C9 H7 1_555 1_555
C10 O2 1_555 1_555
H1 O1 1_555 1_555
H2 O2 1_555 1_555
H4 C7 1_555 1_555
H5 N7 1_555 1_555
H6 C8 1_555 1_555
H8 C9 1_555 1_555
H9 C9 1_555 1_555
H10 C10 1_555 1_555
H11 C10 1_555 1_555
H12 C10 1_555 1_555
Mn1C N2 1_555 1_555
Mn1C_2 N3 1_555 1_555
Mn1_2 N5 1_555 1_555
N2C Mn1 1_555 1_555
N3C Mn1 1_555 1_555
N5_2 Mn1 1_555 1_555
N1 C1 1_555 1_555
C7 C8 1_555 1_555

#END
