
#######################################################################
#
#                 Cambridge Crystallographic Data Centre
#                                CCDC 
#
#######################################################################
#
# If this CIF has been generated from an entry in the Cambridge 
# Structural Database, then it will include bibliographic, chemical, 
# crystal, experimental, refinement or atomic coordinate data resulting 
# from the CCDC's data processing and validation procedures.
#
#######################################################################

data_NUGNIN02
_symmetry_cell_setting           orthorhombic
_symmetry_space_group_name_H-M   'P n m a'
_symmetry_Int_Tables_number      62
_space_group_name_Hall           '-P 2ac 2n'
loop_
_symmetry_equiv_pos_site_id
_symmetry_equiv_pos_as_xyz
1 x,y,z
2 1/2-x,-y,1/2+z
3 1/2+x,1/2-y,1/2-z
4 -x,1/2+y,-z
5 -x,-y,-z
6 1/2+x,y,1/2-z
7 1/2-x,1/2+y,1/2+z
8 x,1/2-y,z
_cell_length_a                   13.192(3)
_cell_length_b                   7.2242(16)
_cell_length_c                   22.294(5)
_cell_angle_alpha                90
_cell_angle_beta                 90
_cell_angle_gamma                90
_cell_volume                     2124.65
loop_
_atom_site_label
_atom_site_type_symbol
_atom_site_fract_x
_atom_site_fract_y
_atom_site_fract_z
Fe1 Fe 0.24445(5) -0.250 0.28483(3)
Mn1 Mn 0.02713(5) 0.2500 0.17773(3)
N1 N 0.1365(4) -0.250 0.4072(2)
N2 N 0.0903(2) 0.0432(4) 0.24081(14)
N3 N 0.4017(2) 0.0438(4) 0.32518(13)
N4 N 0.3060(3) -0.250 0.20439(18)
N5 N 0.4200(3) -0.250 0.1325(2)
N6 N 0.0232(3) 0.2500 0.07605(17)
N7 N 0.1927(3) 0.2500 0.13996(19)
C1 C 0.1801(4) -0.250 0.3624(3)
C2 C 0.1469(3) -0.0647(5) 0.25929(16)
C3 C 0.3413(3) -0.0645(5) 0.31181(15)
C4 C 0.4047(4) -0.250 0.1920(2)
C5 C 0.2572(4) -0.250 0.1493(3)
C6 C 0.3270(4) -0.250 0.1049(3)
C7 C -0.0651(4) 0.2500 0.0468(2)
C8 C -0.0705(4) 0.2500 -0.0155(2)
C9 C 0.0177(4) 0.2500 -0.0485(2)
C10 C 0.1083(4) 0.2500 -0.0182(3)
C11 C 0.1101(4) 0.2500 0.0440(2)
C12 C 0.2047(4) 0.2500 0.0802(2)
C13 C 0.3015(4) 0.2500 0.0543(3)
C14 C 0.3850(5) 0.2500 0.0910(3)
C15 C 0.3728(4) 0.2500 0.1523(3)
C16 C 0.2750(4) 0.2500 0.1751(3)
H1 H 0.47926 -0.250 0.11438
H2 H 0.45707 -0.250 0.22128
H3 H 0.18585 -0.250 0.14359
H4 H 0.31428 -0.250 0.06297
H5 H -0.12622 0.250 0.06926
H6 H -0.13446 0.250 -0.03503
H7 H 0.01594 0.250 -0.09109
H8 H 0.17019 0.250 -0.03995
H9 H 0.30916 0.250 0.01190
H10 H 0.45112 0.250 0.07406
H11 H 0.42981 0.250 0.17831
H12 H 0.26606 0.250 0.21733
Mn1_2 Mn 0.02713(5) -0.7500 0.17773(3)
Mn1B Mn 0.52713(5) -0.7500 0.32227(3)
Mn1B_2 Mn 0.52713(5) 0.2500 0.32227(3)
N2G N 0.0903(2) -0.5432(4) 0.24081(14)
N2G_2 N 0.0903(2) 0.4568(4) 0.24081(14)
N3G N 0.4017(2) -0.5438(4) 0.32518(13)
N3B N -0.0983(2) 0.4562(4) 0.17482(13)
N3E N -0.0983(2) 0.0438(4) 0.17482(13)
C2G C 0.1469(3) -0.4353(5) 0.25929(16)
C3G C 0.3413(3) -0.4355(5) 0.31181(15)
O1 O 0.3399(14) -0.250 -0.0702(13)
H13 H 0.345(4) -0.168(6) -0.0434(13)
H13G H 0.345(4) -0.332(6) -0.0434(13)
loop_
_geom_bond_atom_site_label_1
_geom_bond_atom_site_label_2
_geom_bond_site_symmetry_1
_geom_bond_site_symmetry_2
Fe1 N4 1_555 1_555
Mn1 N2 1_555 1_555
N1 C1 1_555 1_555
N2 C2 1_555 1_555
N3 C3 1_555 1_555
N4 C4 1_555 1_555
N5 C4 1_555 1_555
N6 Mn1 1_555 1_555
N7 Mn1 1_555 1_555
C1 Fe1 1_555 1_555
C2 Fe1 1_555 1_555
C3 Fe1 1_555 1_555
C4 H2 1_555 1_555
C5 N4 1_555 1_555
C6 N5 1_555 1_555
C7 N6 1_555 1_555
C8 C7 1_555 1_555
C9 C8 1_555 1_555
C10 C9 1_555 1_555
C11 N6 1_555 1_555
C12 N7 1_555 1_555
C13 C12 1_555 1_555
C14 C13 1_555 1_555
C15 C14 1_555 1_555
C16 N7 1_555 1_555
O1 H13 1_555 1_555
H1 N5 1_555 1_555
H3 C5 1_555 1_555
H4 C6 1_555 1_555
H5 C7 1_555 1_555
H6 C8 1_555 1_555
H7 C9 1_555 1_555
H8 C10 1_555 1_555
H9 C13 1_555 1_555
H10 C14 1_555 1_555
H11 C15 1_555 1_555
H12 C16 1_555 1_555
Mn1_2 N2G 1_555 1_555
Mn1B N3G 1_555 1_555
Mn1B_2 N3 1_555 1_555
N2G C2G 1_555 1_555
N2G_2 Mn1 1_555 1_555
N3G C3G 1_555 1_555
N3B Mn1 1_555 1_555
N3E Mn1 1_555 1_555
C2G Fe1 1_555 1_555
C3G Fe1 1_555 1_555
H13G O1 1_555 1_555
C5 C6 1_555 1_555
C10 C11 1_555 1_555
C11 C12 1_555 1_555
C15 C16 1_555 1_555

#END
