
#######################################################################
#
#                 Cambridge Crystallographic Data Centre
#                                CCDC 
#
#######################################################################
#
# If this CIF has been generated from an entry in the Cambridge 
# Structural Database, then it will include bibliographic, chemical, 
# crystal, experimental, refinement or atomic coordinate data resulting 
# from the CCDC's data processing and validation procedures.
#
#######################################################################

data_NUGNIN
_symmetry_cell_setting           orthorhombic
_symmetry_space_group_name_H-M   'P n m a'
_symmetry_Int_Tables_number      62
_space_group_name_Hall           '-P 2ac 2n'
loop_
_symmetry_equiv_pos_site_id
_symmetry_equiv_pos_as_xyz
1 x,y,z
2 1/2-x,-y,1/2+z
3 1/2+x,1/2-y,1/2-z
4 -x,1/2+y,-z
5 -x,-y,-z
6 1/2+x,y,1/2-z
7 1/2-x,1/2+y,1/2+z
8 x,1/2-y,z
_cell_length_a                   13.199(8)
_cell_length_b                   7.258(4)
_cell_length_c                   22.234(15)
_cell_angle_alpha                90
_cell_angle_beta                 90
_cell_angle_gamma                90
_cell_volume                     2129.98
loop_
_atom_site_label
_atom_site_type_symbol
_atom_site_fract_x
_atom_site_fract_y
_atom_site_fract_z
Fe1 Fe 0.25179(3) -0.2500 0.216633(19)
Mn1 Mn 0.47062(3) 0.2500 0.321503(19)
C1 C 0.34881(15) -0.0653(3) 0.24207(10)
C2 C 0.3160(2) -0.2500 0.13951(15)
C3 C 0.15559(15) -0.4355(3) 0.18973(9)
C4 C 0.2378(3) -0.2500 0.35263(16)
H1 H 0.3076 -0.2500 0.3584
C5 C 0.1684(3) -0.2500 0.39665(17)
H2 H 0.1806 -0.2500 0.4378
C6 C 0.0920(2) -0.2500 0.30984(16)
H3 H 0.0409 -0.2500 0.2810
C7 C 0.5655(3) 0.2500 0.45229(16)
H4 H 0.6247 0.2500 0.4296
C8 C 0.5738(3) 0.2500 0.51411(17)
H5 H 0.6370 0.2500 0.5326
C9 C 0.4868(3) 0.2500 0.54755(17)
H6 H 0.4899 0.2500 0.5893
C10 C 0.3946(3) 0.2500 0.51867(16)
H7 H 0.3348 0.2500 0.5408
C11 C 0.3917(3) 0.2500 0.45639(15)
C12 C 0.2961(3) 0.2500 0.42133(15)
C13 C 0.2011(3) 0.2500 0.44794(19)
H8 H 0.1951 0.2500 0.4896
C14 C 0.1160(3) 0.2500 0.4123(2)
H9 H 0.0519 0.2500 0.4298
C15 C 0.1261(3) 0.2500 0.3511(2)
H10 H 0.0695 0.2500 0.3262
C16 C 0.2222(3) 0.2500 0.32755(18)
H11 H 0.2293 0.2500 0.2859
N1 N 0.40462(13) 0.0425(3) 0.25959(9)
N2 N 0.19021(19) -0.2500 0.29789(12)
N3 N 0.4773(2) 0.2500 0.42335(12)
N4 N 0.3062(2) 0.2500 0.36137(12)
N5 N 0.3599(3) -0.2500 0.09494(15)
N6 N 0.0766(2) -0.2500 0.36894(14)
H12 H 0.0186 -0.2500 0.3866
N7 N 0.09642(13) -0.5431(3) 0.17670(9)
Mn1_2 Mn 0.47062(3) -0.7500 0.321503(19)
Mn1B Mn -0.02938(3) -0.7500 0.178497(19)
Mn1B_2 Mn -0.02938(3) 0.2500 0.178497(19)
C1G C 0.34881(15) -0.4347(3) 0.24207(10)
C3G C 0.15559(15) -0.0645(3) 0.18973(9)
N1G N 0.40462(13) -0.5425(3) 0.25959(9)
N1G_2 N 0.40462(13) 0.4575(3) 0.25959(9)
N7G N 0.09642(13) 0.0431(3) 0.17670(9)
N7B N 0.59642(13) 0.0431(3) 0.32330(9)
N7E N 0.59642(13) 0.4569(3) 0.32330(9)
O1 O 0.8441(12) 0.2500 0.4514(5)
O2? O 0.8384(10) 0.2500 0.4072(9)
loop_
_geom_bond_atom_site_label_1
_geom_bond_atom_site_label_2
_geom_bond_site_symmetry_1
_geom_bond_site_symmetry_2
Fe1 C1 1_555 1_555
Mn1 N1 1_555 1_555
C1 N1 1_555 1_555
C2 Fe1 1_555 1_555
C3 Fe1 1_555 1_555
C4 H1 1_555 1_555
C5 C4 1_555 1_555
H2 C5 1_555 1_555
C6 H3 1_555 1_555
C7 H4 1_555 1_555
C8 C7 1_555 1_555
H5 C8 1_555 1_555
C9 C8 1_555 1_555
H6 C9 1_555 1_555
C10 C9 1_555 1_555
H7 C10 1_555 1_555
C11 C10 1_555 1_555
C12 C11 1_555 1_555
C13 C12 1_555 1_555
H8 C13 1_555 1_555
C14 C13 1_555 1_555
H9 C14 1_555 1_555
C15 C14 1_555 1_555
H10 C15 1_555 1_555
C16 C15 1_555 1_555
H11 C16 1_555 1_555
N2 Fe1 1_555 1_555
N3 Mn1 1_555 1_555
N4 Mn1 1_555 1_555
N5 C2 1_555 1_555
N6 C5 1_555 1_555
H12 N6 1_555 1_555
N7 C3 1_555 1_555
Mn1_2 N1G 1_555 1_555
Mn1B N7 1_555 1_555
Mn1B_2 N7G 1_555 1_555
C1G Fe1 1_555 1_555
C3G Fe1 1_555 1_555
N1G C1G 1_555 1_555
N1G_2 Mn1 1_555 1_555
N7G C3G 1_555 1_555
N7B Mn1 1_555 1_555
N7E Mn1 1_555 1_555
C4 N2 1_555 1_555
C6 N2 1_555 1_555
C6 N6 1_555 1_555
C7 N3 1_555 1_555
C11 N3 1_555 1_555
C12 N4 1_555 1_555
C16 N4 1_555 1_555

#END
