
#######################################################################
#
#                 Cambridge Crystallographic Data Centre
#                                CCDC 
#
#######################################################################
#
# If this CIF has been generated from an entry in the Cambridge 
# Structural Database, then it will include bibliographic, chemical, 
# crystal, experimental, refinement or atomic coordinate data resulting 
# from the CCDC's data processing and validation procedures.
#
#######################################################################

data_NUGPOW
_symmetry_cell_setting           monoclinic
_symmetry_space_group_name_H-M   'P 21/c'
_symmetry_Int_Tables_number      14
_space_group_name_Hall           '-P 2ybc'
loop_
_symmetry_equiv_pos_site_id
_symmetry_equiv_pos_as_xyz
1 x,y,z
2 -x,1/2+y,1/2-z
3 -x,-y,-z
4 x,1/2-y,1/2+z
_cell_length_a                   18.7399(6)
_cell_length_b                   20.7575(6)
_cell_length_c                   7.37400(19)
_cell_angle_alpha                90
_cell_angle_beta                 99.144(3)
_cell_angle_gamma                90
_cell_volume                     2831.99
loop_
_atom_site_label
_atom_site_type_symbol
_atom_site_fract_x
_atom_site_fract_y
_atom_site_fract_z
Cd1 Cd 0.73463(2) 0.77528(2) 0.52206(3)
O1 O 0.65094(11) 0.72015(9) 0.7438(3)
O2 O 0.80975(11) 0.74073(11) 0.7753(3)
O3 O 0.68906(12) 0.67377(10) 0.5095(2)
O4 O 0.69229(15) 0.86112(11) 0.6636(3)
O5 O 0.80641(14) 0.64856(12) 0.9170(3)
N1 N 0.53146(17) 0.66333(14) 0.8447(4)
N2 N 0.8445(2) 0.54416(17) 0.7414(6)
C1 C 0.8518(2) 0.4756(2) 0.7348(6)
C2 C 0.8834(2) 0.4455(2) 0.8880(6)
C3 C 0.8912(2) 0.3753(2) 0.8815(7)
C4 C 0.8648(2) 0.3465(2) 0.7199(8)
H1 H 0.8695 0.3019 0.7136
C5 C 0.8327(3) 0.3768(3) 0.5685(8)
H2 H 0.8164 0.3534 0.4625
C6 C 0.8234(3) 0.4435(2) 0.5689(7)
H3 H 0.8001 0.4656 0.4667
C7 C 0.88294(19) 0.58600(17) 0.6525(5)
C8 C 0.87648(17) 0.65358(16) 0.6742(4)
C9 C 0.91613(17) 0.69451(18) 0.5811(4)
H4 H 0.9121 0.7388 0.5964
C10 C 0.96163(19) 0.6714(2) 0.4658(5)
H5 H 0.9878 0.6997 0.4038
C11 C 0.9676(2) 0.6065(2) 0.4442(5)
H6 H 0.9982 0.5907 0.3669
C12 C 0.9296(2) 0.5644(2) 0.5335(5)
H7 H 0.9346 0.5204 0.5155
C13 C 0.82839(16) 0.68182(16) 0.7939(4)
C14 C 0.9094(3) 0.4783(3) 1.0585(6)
H8 H 0.9451 0.4521 1.1320
H9 H 0.8698 0.4858 1.1239
H10 H 0.9305 0.5187 1.0328
C15 C 0.9257(3) 0.3414(3) 1.0427(9)
H11 H 0.9693 0.3635 1.0940
H12 H 0.9373 0.2984 1.0094
H13 H 0.8936 0.3398 1.1318
C16 C 0.48100(18) 0.66431(15) 0.9715(4)
C17 C 0.4081(2) 0.6551(2) 0.9109(5)
C18 C 0.3604(2) 0.6602(2) 1.0378(5)
C19 C 0.3864(2) 0.6750(2) 1.2182(5)
H14 H 0.3543 0.6789 1.3017
C20 C 0.4585(2) 0.68382(18) 1.2764(5)
H15 H 0.4754 0.6936 1.3988
C21 C 0.5063(2) 0.67822(16) 1.1539(5)
H16 H 0.5555 0.6838 1.1934
C22 C 0.55946(18) 0.60800(15) 0.7808(4)
C23 C 0.61722(17) 0.61052(14) 0.6787(4)
C24 C 0.6435(2) 0.55362(16) 0.6164(4)
H17 H 0.6815 0.5554 0.5495
C25 C 0.6149(3) 0.49458(18) 0.6507(5)
H18 H 0.6337 0.4568 0.6095
C26 C 0.5575(3) 0.49276(18) 0.7480(6)
H19 H 0.5370 0.4533 0.7705
C27 C 0.5307(2) 0.54787(17) 0.8113(5)
H20 H 0.4923 0.5453 0.8766
C28 C 0.65359(16) 0.67126(14) 0.6419(4)
C29 C 0.3796(3) 0.6420(3) 0.7117(5)
H21 H 0.3370 0.6674 0.6740
H22 H 0.3679 0.5971 0.6957
H23 H 0.4158 0.6532 0.6385
C30 C 0.2808(2) 0.6493(4) 0.9800(7)
H24 H 0.2560 0.6574 1.0820
H25 H 0.2726 0.6055 0.9402
H26 H 0.2629 0.6779 0.8809
C31 C 0.7096(3) 0.92701(19) 0.6489(6)
H27 H 0.6767 0.9527 0.7059
H28 H 0.7055 0.9386 0.5216
H29 H 0.7581 0.9345 0.7091
H30 H 0.832(3) 0.556(2) 0.836(6)
H31 H 0.561(2) 0.6930(19) 0.850(5)
H32 H 0.688(2) 0.8551(19) 0.756(5)
Cd1C Cd 0.73463(2) 0.72472(2) 1.02206(3)
O1C O 0.65094(11) 0.77985(9) 0.2438(3)
O2C O 0.80975(11) 0.75927(11) 0.2753(3)
O5C O 0.80641(14) 0.85144(12) 0.4170(3)
loop_
_geom_bond_atom_site_label_1
_geom_bond_atom_site_label_2
_geom_bond_site_symmetry_1
_geom_bond_site_symmetry_2
Cd1 O1 1_555 1_555
O1 C28 1_555 1_555
O2 Cd1 1_555 1_555
O3 Cd1 1_555 1_555
O4 Cd1 1_555 1_555
O5 C13 1_555 1_555
N1 C16 1_555 1_555
N2 C1 1_555 1_555
C1 C2 1_555 1_555
C2 C3 1_555 1_555
C3 C4 1_555 1_555
C4 H1 1_555 1_555
C5 C4 1_555 1_555
H2 C5 1_555 1_555
C6 C1 1_555 1_555
H3 C6 1_555 1_555
C7 N2 1_555 1_555
C8 C7 1_555 1_555
C9 C8 1_555 1_555
H4 C9 1_555 1_555
C10 C9 1_555 1_555
H5 C10 1_555 1_555
C11 C10 1_555 1_555
H6 C11 1_555 1_555
C12 C7 1_555 1_555
H7 C12 1_555 1_555
C13 O2 1_555 1_555
C14 C2 1_555 1_555
H8 C14 1_555 1_555
H9 C14 1_555 1_555
H10 C14 1_555 1_555
C15 C3 1_555 1_555
H11 C15 1_555 1_555
H12 C15 1_555 1_555
H13 C15 1_555 1_555
C16 C17 1_555 1_555
C17 C18 1_555 1_555
C18 C19 1_555 1_555
C19 H14 1_555 1_555
C20 C19 1_555 1_555
H15 C20 1_555 1_555
C21 C16 1_555 1_555
H16 C21 1_555 1_555
C22 N1 1_555 1_555
C23 C22 1_555 1_555
C24 C23 1_555 1_555
H17 C24 1_555 1_555
C25 C24 1_555 1_555
H18 C25 1_555 1_555
C26 C25 1_555 1_555
H19 C26 1_555 1_555
C27 C22 1_555 1_555
H20 C27 1_555 1_555
C28 O3 1_555 1_555
C29 C17 1_555 1_555
H21 C29 1_555 1_555
H22 C29 1_555 1_555
H23 C29 1_555 1_555
C30 C18 1_555 1_555
H24 C30 1_555 1_555
H25 C30 1_555 1_555
H26 C30 1_555 1_555
C31 O4 1_555 1_555
H27 C31 1_555 1_555
H28 C31 1_555 1_555
H29 C31 1_555 1_555
H30 N2 1_555 1_555
H31 N1 1_555 1_555
H32 O4 1_555 1_555
Cd1C O1 1_555 1_555
O1C Cd1 1_555 1_555
O2C Cd1 1_555 1_555
O5C Cd1 1_555 1_555
O2 Cd1C 1_555 1_555
O5 Cd1C 1_555 1_555
C5 C6 1_555 1_555
C8 C13 1_555 1_555
C11 C12 1_555 1_555
C20 C21 1_555 1_555
C23 C28 1_555 1_555
C26 C27 1_555 1_555

#END
