
#######################################################################
#
#                 Cambridge Crystallographic Data Centre
#                                CCDC 
#
#######################################################################
#
# If this CIF has been generated from an entry in the Cambridge 
# Structural Database, then it will include bibliographic, chemical, 
# crystal, experimental, refinement or atomic coordinate data resulting 
# from the CCDC's data processing and validation procedures.
#
#######################################################################

data_NUGYEU
_symmetry_cell_setting           monoclinic
_symmetry_space_group_name_H-M   'P 21/c'
_symmetry_Int_Tables_number      14
_space_group_name_Hall           '-P 2ybc'
loop_
_symmetry_equiv_pos_site_id
_symmetry_equiv_pos_as_xyz
1 x,y,z
2 -x,1/2+y,1/2-z
3 -x,-y,-z
4 x,1/2-y,1/2+z
_cell_length_a                   6.491(2)
_cell_length_b                   9.599(3)
_cell_length_c                   19.397(6)
_cell_angle_alpha                90
_cell_angle_beta                 96.001(5)
_cell_angle_gamma                90
_cell_volume                     1201.95
loop_
_atom_site_label
_atom_site_type_symbol
_atom_site_fract_x
_atom_site_fract_y
_atom_site_fract_z
Mn1 Mn 0.07126(3) 0.06591(2) 0.097555(11)
O1 O -0.0794(2) -0.10881(12) 0.05147(6)
O2 O -0.16171(17) -0.24244(11) -0.03990(5)
O3 O -0.0868(2) -0.52958(13) 0.30052(6)
O4 O 0.3853(2) -0.02265(14) 0.08591(7)
O5 O -0.24546(17) -0.83758(11) 0.09362(6)
O6 O -0.16817(19) -0.30794(12) 0.29182(6)
O7 O -0.34591(19) -0.73863(11) -0.00830(6)
C1 C -0.1406(2) -0.42362(15) 0.26438(8)
C2 C -0.1688(2) -0.44016(14) 0.18673(7)
C3 C -0.2038(2) -0.57239(15) 0.15825(8)
H1 H -0.2060 -0.6495 0.1872
C4 C -0.2356(2) -0.58973(15) 0.08635(7)
C5 C -0.2207(2) -0.47410(15) 0.04396(7)
H2 H -0.2417 -0.4848 -0.0039
C6 C -0.1749(2) -0.34249(15) 0.07190(7)
C7 C -0.1535(2) -0.32531(15) 0.14358(7)
H3 H -0.1289 -0.2372 0.1627
C8 C -0.2792(2) -0.73174(15) 0.05474(7)
C9 C -0.1375(2) -0.22251(15) 0.02495(7)
H9 H 0.384(4) -0.083(3) 0.0596(14)
H10 H 0.481(4) 0.028(3) 0.0799(14)
Mn1B Mn -0.07126(3) -0.06591(2) -0.097555(11)
Mn1A Mn -0.07126(3) -0.43409(2) 0.402445(11)
Mn1_2 Mn 0.07126(3) -0.93409(2) 0.097555(11)
O2B O 0.16171(17) 0.24244(11) 0.03990(5)
O3A O 0.0868(2) -0.02958(13) 0.19948(6)
O5_2 O -0.24546(17) 0.16242(11) 0.09362(6)
O6A O 0.16817(19) 0.19206(12) 0.20818(6)
C10 C 0.3363(3) 0.58558(19) 0.24595(9)
H4 H 0.3435 0.6032 0.2933
C11 C 0.3025(2) 0.47507(17) 0.14636(8)
H5 H 0.2825 0.4049 0.1133
C12 C 0.3557(2) 0.67941(18) 0.19543(9)
H6 H 0.3788 0.7745 0.2012
N1 N 0.3347(2) 0.60808(15) 0.13374(7)
H7 H 0.3415 0.6441 0.0935
N2 N 0.3037(2) 0.45877(15) 0.21393(7)
H8 H 0.2866 0.3810 0.2346
loop_
_geom_bond_atom_site_label_1
_geom_bond_atom_site_label_2
_geom_bond_site_symmetry_1
_geom_bond_site_symmetry_2
Mn1 O1 1_555 1_555
O1 C9 1_555 1_555
O2 C9 1_555 1_555
O3 C1 1_555 1_555
O4 Mn1 1_555 1_555
O5 C8 1_555 1_555
O6 C1 1_555 1_555
O7 C8 1_555 1_555
C1 C2 1_555 1_555
C2 C3 1_555 1_555
C3 H1 1_555 1_555
C4 C3 1_555 1_555
C5 C4 1_555 1_555
H2 C5 1_555 1_555
C6 C5 1_555 1_555
C7 C2 1_555 1_555
H3 C7 1_555 1_555
C8 C4 1_555 1_555
C9 C6 1_555 1_555
C10 H4 1_555 1_555
C11 H5 1_555 1_555
C12 C10 1_555 1_555
H6 C12 1_555 1_555
N1 C11 1_555 1_555
H7 N1 1_555 1_555
N2 C10 1_555 1_555
H8 N2 1_555 1_555
H9 O4 1_555 1_555
H10 O4 1_555 1_555
Mn1B O2 1_555 1_555
Mn1A O3 1_555 1_555
Mn1_2 O5 1_555 1_555
O2B Mn1 1_555 1_555
O3A Mn1 1_555 1_555
O5_2 Mn1 1_555 1_555
O6A Mn1 1_555 1_555
O6 Mn1A 1_555 1_555
C6 C7 1_555 1_555
C11 N2 1_555 1_555
C12 N1 1_555 1_555

#END
