
#######################################################################
#
#                 Cambridge Crystallographic Data Centre
#                                CCDC 
#
#######################################################################
#
# If this CIF has been generated from an entry in the Cambridge 
# Structural Database, then it will include bibliographic, chemical, 
# crystal, experimental, refinement or atomic coordinate data resulting 
# from the CCDC's data processing and validation procedures.
#
#######################################################################

data_NUHBOI
_symmetry_cell_setting           triclinic
_symmetry_space_group_name_H-M   'P -1'
_symmetry_Int_Tables_number      2
_space_group_name_Hall           '-P 1'
loop_
_symmetry_equiv_pos_site_id
_symmetry_equiv_pos_as_xyz
1 x,y,z
2 -x,-y,-z
_cell_length_a                   9.700(4)
_cell_length_b                   10.470(5)
_cell_length_c                   10.500(5)
_cell_angle_alpha                113.980(4)
_cell_angle_beta                 96.830(4)
_cell_angle_gamma                105.560(2)
_cell_volume                     906.599
loop_
_atom_site_label
_atom_site_type_symbol
_atom_site_fract_x
_atom_site_fract_y
_atom_site_fract_z
Zn1 Zn 0.37663(7) 0.34535(6) 0.54590(6)
C1 C 0.2997(6) 0.6136(6) 0.7348(5)
H1 H 0.2379 0.5839 0.6431
C2 C 0.2896(6) 0.7299(6) 0.8541(5)
H2 H 0.2214 0.7777 0.8439
C3 C 0.3810(5) 0.7764(5) 0.9897(5)
C4 C 0.4768(6) 0.7002(5) 0.9975(5)
H3 H 0.5403 0.7274 1.0875
C5 C 0.4782(6) 0.5835(5) 0.8715(5)
H4 H 0.5436 0.5319 0.8781
C6 C 0.3740(6) 0.9035(5) 1.1178(5)
C7 C 0.3419(6) 1.0196(5) 1.1037(5)
H5 H 0.3226 1.0173 1.0118
C8 C 0.3384(6) 1.1386(5) 1.2249(5)
H6 H 0.3159 1.2167 1.2130
C9 C 0.3910(9) 1.0359(7) 1.3688(6)
H7 H 0.4059 1.0396 1.4615
C10 C 0.3981(8) 0.9134(7) 1.2550(6)
H8 H 0.4192 0.8365 1.2703
C11 C 0.1732(7) 0.1888(8) 0.6315(6)
C12 C 0.0423(7) 0.1384(7) 0.6859(6)
H9 H -0.0456 0.1470 0.6363
H10 H 0.0201 0.0322 0.6626
C13 C 0.0723(6) 0.2302(6) 0.8459(6)
C14 C 0.0448(7) 0.1662(6) 0.9361(6)
H11 H 0.0102 0.0606 0.8972
C15 C 0.0669(7) 0.2532(7) 1.0828(6)
H12 H 0.0445 0.2063 1.1423
C16 C 0.1209(6) 0.4070(6) 1.1437(6)
C17 C 0.1514(7) 0.4717(6) 1.0546(6)
H13 H 0.1896 0.5773 1.0943
C18 C 0.1270(7) 0.3845(6) 0.9075(6)
H14 H 0.1481 0.4316 0.8479
C19 C 0.1509(8) 0.5036(8) 1.3050(6)
H15 H 0.0792 0.4536 1.3445
H16 H 0.1402 0.6006 1.3239
C20 C 0.3079(7) 0.5280(6) 1.3766(5)
N1 N 0.3924(5) 0.5409(4) 0.7424(4)
N2 N 0.3645(5) 1.1500(5) 1.3567(4)
O1 O 0.1599(6) 0.2536(7) 0.5550(5)
O2 O 0.2885(7) 0.1720(7) 0.6648(5)
O3 O 0.4109(6) 0.6316(5) 1.3778(5)
O4 O 0.3244(6) 0.4402(5) 1.4213(5)
Zn1_2 Zn 0.37663(7) 1.34535(6) 1.54590(6)
Zn1A Zn 0.62337(7) 0.65465(6) 1.45410(6)
Zn1_3 Zn 0.37663(7) 0.34535(6) 1.54590(6)
N2_2 N 0.3645(5) 0.1500(5) 0.3567(4)
O3A O 0.5891(6) 0.3684(5) 0.6222(5)
O4_2 O 0.3244(6) 0.4402(5) 0.4213(5)
O5 O 0.1218(13) 0.8058(13) 0.6275(10)
loop_
_geom_bond_atom_site_label_1
_geom_bond_atom_site_label_2
_geom_bond_site_symmetry_1
_geom_bond_site_symmetry_2
Zn1 N1 1_555 1_555
C1 H1 1_555 1_555
C2 C1 1_555 1_555
H2 C2 1_555 1_555
C3 C2 1_555 1_555
C4 C3 1_555 1_555
H3 C4 1_555 1_555
C5 C4 1_555 1_555
H4 C5 1_555 1_555
C6 C3 1_555 1_555
C7 C6 1_555 1_555
H5 C7 1_555 1_555
C8 C7 1_555 1_555
H6 C8 1_555 1_555
C9 H7 1_555 1_555
C10 C6 1_555 1_555
H8 C10 1_555 1_555
C11 C12 1_555 1_555
C12 H9 1_555 1_555
H10 C12 1_555 1_555
C13 C12 1_555 1_555
C14 C13 1_555 1_555
H11 C14 1_555 1_555
C15 C14 1_555 1_555
H12 C15 1_555 1_555
C16 C15 1_555 1_555
C17 C16 1_555 1_555
H13 C17 1_555 1_555
C18 C13 1_555 1_555
H14 C18 1_555 1_555
C19 C16 1_555 1_555
H15 C19 1_555 1_555
H16 C19 1_555 1_555
C20 C19 1_555 1_555
N1 C1 1_555 1_555
N2 C8 1_555 1_555
O1 Zn1 1_555 1_555
O2 C11 1_555 1_555
O3 C20 1_555 1_555
O4 C20 1_555 1_555
Zn1_2 N2 1_555 1_555
Zn1A O3 1_555 1_555
Zn1_3 O4 1_555 1_555
N2_2 Zn1 1_555 1_555
O3A Zn1 1_555 1_555
O4_2 Zn1 1_555 1_555
C5 N1 1_555 1_555
C9 C10 1_555 1_555
C9 N2 1_555 1_555
C11 O1 1_555 1_555
C17 C18 1_555 1_555

#END
