
#######################################################################
#
#                 Cambridge Crystallographic Data Centre
#                                CCDC 
#
#######################################################################
#
# If this CIF has been generated from an entry in the Cambridge 
# Structural Database, then it will include bibliographic, chemical, 
# crystal, experimental, refinement or atomic coordinate data resulting 
# from the CCDC's data processing and validation procedures.
#
#######################################################################

data_NUHBEY
_symmetry_cell_setting           monoclinic
_symmetry_space_group_name_H-M   'P 21/c'
_symmetry_Int_Tables_number      14
_space_group_name_Hall           '-P 2ybc'
loop_
_symmetry_equiv_pos_site_id
_symmetry_equiv_pos_as_xyz
1 x,y,z
2 -x,1/2+y,1/2-z
3 -x,-y,-z
4 x,1/2-y,1/2+z
_cell_length_a                   19.70(2)
_cell_length_b                   4.891(6)
_cell_length_c                   9.640(12)
_cell_angle_alpha                90
_cell_angle_beta                 95.33(2)
_cell_angle_gamma                90
_cell_volume                     924.824
loop_
_atom_site_label
_atom_site_type_symbol
_atom_site_fract_x
_atom_site_fract_y
_atom_site_fract_z
Zn1 Zn 0.23886(2) 0.80574(10) 0.29451(5)
O1 O 0.2164(2) 1.1954(6) 0.3019(4)
O2 O 0.16030(15) 1.5804(6) 0.3269(3)
O3 O 0.32012(17) 0.7172(8) 0.4187(3)
O4 O 0.26155(19) 0.7357(8) 0.6004(4)
C1 C 0.1667(2) 1.3243(9) 0.3457(5)
C2 C 0.1159(2) 1.1772(9) 0.4259(5)
H1 H 0.1398 1.1105 0.5144
H2 H 0.0992 1.0150 0.3716
C3 C 0.0547(2) 1.3455(9) 0.4598(5)
C4 C 0.0649(2) 1.5488(10) 0.5654(5)
H3 H 0.1090 1.5797 0.6115
C5 C -0.0087(3) 1.2966(9) 0.3997(5)
H4 H -0.0156 1.1549 0.3325
C6 C 0.3149(2) 0.6799(9) 0.5462(4)
C7 C 0.3749(3) 0.5579(16) 0.6350(5)
H5 H 0.3850 0.6749 0.7181
H6 H 0.3615 0.3757 0.6679
C8 C 0.4391(2) 0.5265(12) 0.5631(4)
C9 C 0.4459(3) 0.3277(12) 0.4630(7)
H7 H 0.4089 0.2076 0.4376
C10 C 0.4951(3) 0.6982(12) 0.5995(6)
H8 H 0.4918 0.8346 0.6687
Zn1B Zn -0.23886(2) 2.19426(10) 0.70549(5)
Zn1_2 Zn 0.23886(2) 1.80574(10) 0.29451(5)
Zn1C Zn 0.23886(2) 0.69426(10) 0.79451(5)
Zn1B_2 Zn -0.23886(2) 1.19426(10) 0.70549(5)
Zn1B_3 Zn 0.76114(2) 0.19426(10) 0.70549(5)
Zn1A Zn 0.76114(2) 0.30574(10) 0.20549(5)
O1B O -0.2164(2) 1.8046(6) 0.6981(4)
O2B O -0.16030(15) 1.4196(6) 0.6731(3)
O2_2 O 0.16030(15) 0.5804(6) 0.3269(3)
O2B_2 O -0.16030(15) 2.4196(6) 0.6731(3)
O3B O 0.67988(17) 0.2828(8) 0.5813(3)
O3B_2 O -0.32012(17) 2.2828(8) 0.5813(3)
O4B O 0.73845(19) 0.2643(8) 0.3996(4)
O4C O 0.26155(19) 0.7643(8) 0.1004(4)
O4A O -0.26155(19) 2.2357(8) 0.8996(4)
C1B C -0.1667(2) 1.6757(9) 0.6543(5)
C2B C -0.1159(2) 1.8228(9) 0.5741(5)
H1B H -0.1398 1.8895 0.4856
H2B H -0.0992 1.9850 0.6284
C3B C -0.0547(2) 1.6545(9) 0.5402(5)
C4B C -0.0649(2) 1.4512(10) 0.4346(5)
H3B H -0.1090 1.4203 0.3885
C5B C 0.0087(3) 1.7034(9) 0.6003(5)
H4B H 0.0156 1.8451 0.6675
C6B C 0.6851(2) 0.3201(9) 0.4538(4)
C7B C 0.6251(3) 0.4421(16) 0.3650(5)
H5B H 0.6150 0.3251 0.2819
H6B H 0.6385 0.6243 0.3321
C8B C 0.5609(2) 0.4735(12) 0.4369(4)
C9B C 0.5541(3) 0.6723(12) 0.5370(7)
H7B H 0.5911 0.7924 0.5624
C10B C 0.5049(3) 0.3018(12) 0.4005(6)
H8B H 0.5082 0.1654 0.3313
loop_
_geom_bond_atom_site_label_1
_geom_bond_atom_site_label_2
_geom_bond_site_symmetry_1
_geom_bond_site_symmetry_2
Zn1 O1 1_555 1_555
O1 C1 1_555 1_555
O2 C1 1_555 1_555
O3 Zn1 1_555 1_555
O4 C6 1_555 1_555
C1 C2 1_555 1_555
C2 H1 1_555 1_555
H2 C2 1_555 1_555
C3 C2 1_555 1_555
C4 C3 1_555 1_555
H3 C4 1_555 1_555
C5 C3 1_555 1_555
H4 C5 1_555 1_555
C6 O3 1_555 1_555
C7 C6 1_555 1_555
H5 C7 1_555 1_555
H6 C7 1_555 1_555
C8 C7 1_555 1_555
C9 C8 1_555 1_555
H7 C9 1_555 1_555
C10 C8 1_555 1_555
H8 C10 1_555 1_555
Zn1B O1B 1_555 1_555
Zn1_2 O2 1_555 1_555
Zn1C O4 1_555 1_555
Zn1B_2 O2B 1_555 1_555
Zn1B_3 O3B 1_555 1_555
Zn1A O4B 1_555 1_555
O1B C1B 1_555 1_555
O2B C1B 1_555 1_555
O2_2 Zn1 1_555 1_555
O2B_2 Zn1B 1_555 1_555
O3B C6B 1_555 1_555
O3B_2 Zn1B 1_555 1_555
O4B C6B 1_555 1_555
O4C Zn1 1_555 1_555
O4A Zn1B 1_555 1_555
C1B C2B 1_555 1_555
C2B H1B 1_555 1_555
H2B C2B 1_555 1_555
C3B C2B 1_555 1_555
C4B C5 1_555 1_555
H3B C4B 1_555 1_555
C5B C4 1_555 1_555
H4B C5B 1_555 1_555
C6B C7B 1_555 1_555
C7B H5B 1_555 1_555
H6B C7B 1_555 1_555
C8B C7B 1_555 1_555
C9B C10 1_555 1_555
H7B C9B 1_555 1_555
C10B C9 1_555 1_555
H8B C10B 1_555 1_555
C3B C4B 1_555 1_555
C3B C5B 1_555 1_555
C8B C9B 1_555 1_555
C8B C10B 1_555 1_555

#END
