
#######################################################################
#
#                 Cambridge Crystallographic Data Centre
#                                CCDC 
#
#######################################################################
#
# If this CIF has been generated from an entry in the Cambridge 
# Structural Database, then it will include bibliographic, chemical, 
# crystal, experimental, refinement or atomic coordinate data resulting 
# from the CCDC's data processing and validation procedures.
#
#######################################################################

data_NUHBIC
_symmetry_cell_setting           monoclinic
_symmetry_space_group_name_H-M   'P 21/c'
_symmetry_Int_Tables_number      14
_space_group_name_Hall           '-P 2ybc'
loop_
_symmetry_equiv_pos_site_id
_symmetry_equiv_pos_as_xyz
1 x,y,z
2 -x,1/2+y,1/2-z
3 -x,-y,-z
4 x,1/2-y,1/2+z
_cell_length_a                   9.836(7)
_cell_length_b                   6.149(4)
_cell_length_c                   8.882(6)
_cell_angle_alpha                90
_cell_angle_beta                 100.850(15)
_cell_angle_gamma                90
_cell_volume                     527.594
loop_
_atom_site_label
_atom_site_type_symbol
_atom_site_fract_x
_atom_site_fract_y
_atom_site_fract_z
Mn1 Mn 0.5000 0.0000 1.0000
O1 O 0.67090(17) 0.1033(3) 0.8980(2)
C1 C 0.9129(2) 0.3903(4) 0.8791(3)
O2 O 0.57303(19) 0.3329(3) 0.7173(2)
O3 O 0.6086(2) -0.3029(3) 1.0878(2)
C2 C 1.0314(2) 0.2910(4) 0.9604(3)
H1 H 1.0542 0.1476 0.9339
C3 C 0.6774(2) 0.2339(4) 0.7912(3)
C4 C 0.8832(2) 0.6017(4) 0.9204(3)
H2 H 0.8032 0.6733 0.8660
C5 C 0.8179(3) 0.2731(4) 0.7507(3)
H3 H 0.8070 0.3613 0.6559
H4 H 0.8598 0.1321 0.7308
Mn1A Mn 0.5000 0.5000 0.5000
Mn1_2 Mn 1.5000 1.0000 1.0000
Mn1A_2 Mn 1.5000 0.5000 1.5000
O1B O 1.32910(17) 0.8967(3) 1.1020(2)
O1B_2 O 0.32910(17) -0.1033(3) 1.1020(2)
C1B C 1.0871(2) 0.6097(4) 1.1209(3)
O2B O 1.42697(19) 0.6671(3) 1.2827(2)
O2A O 0.42697(19) -0.1671(3) 0.7827(2)
O2C O 0.57303(19) 0.1671(3) 1.2173(2)
O3B O 0.3914(2) 0.3029(3) 0.9122(2)
C2B C 0.9686(2) 0.7090(4) 1.0396(3)
H1B H 0.9458 0.8524 1.0661
C3B C 1.3226(2) 0.7661(4) 1.2088(3)
C4B C 1.1168(2) 0.3983(4) 1.0796(3)
H2B H 1.1968 0.3267 1.1340
C5B C 1.1821(3) 0.7269(4) 1.2493(3)
H3B H 1.1930 0.6387 1.3441
H4B H 1.1402 0.8679 1.2692
loop_
_geom_bond_atom_site_label_1
_geom_bond_atom_site_label_2
_geom_bond_site_symmetry_1
_geom_bond_site_symmetry_2
Mn1 O1 1_555 1_555
O1 C3 1_555 1_555
C1 C2 1_555 1_555
O2 C3 1_555 1_555
O3 Mn1 1_555 1_555
C2 H1 1_555 1_555
C3 C5 1_555 1_555
C4 C1 1_555 1_555
H2 C4 1_555 1_555
C5 C1 1_555 1_555
H3 C5 1_555 1_555
H4 C5 1_555 1_555
Mn1A O2 1_555 1_555
Mn1_2 O1B 1_555 1_555
Mn1A_2 O2B 1_555 1_555
O1B C3B 1_555 1_555
O1B_2 Mn1 1_555 1_555
C1B C2B 1_555 1_555
O2B C3B 1_555 1_555
O2A Mn1 1_555 1_555
O2C Mn1 1_555 1_555
O3B Mn1 1_555 1_555
C2B C4 1_555 1_555
H1B C2B 1_555 1_555
C3B C5B 1_555 1_555
C4B C2 1_555 1_555
H2B C4B 1_555 1_555
C5B C1B 1_555 1_555
H3B C5B 1_555 1_555
H4B C5B 1_555 1_555
C1B C4B 1_555 1_555

#END
