
#######################################################################
#
#                 Cambridge Crystallographic Data Centre
#                                CCDC 
#
#######################################################################
#
# If this CIF has been generated from an entry in the Cambridge 
# Structural Database, then it will include bibliographic, chemical, 
# crystal, experimental, refinement or atomic coordinate data resulting 
# from the CCDC's data processing and validation procedures.
#
#######################################################################

data_NUHBIC01
_symmetry_cell_setting           monoclinic
_symmetry_space_group_name_H-M   'P 21/c'
_symmetry_Int_Tables_number      14
_space_group_name_Hall           '-P 2ybc'
loop_
_symmetry_equiv_pos_site_id
_symmetry_equiv_pos_as_xyz
1 x,y,z
2 -x,1/2+y,1/2-z
3 -x,-y,-z
4 x,1/2-y,1/2+z
_cell_length_a                   9.8375(3)
_cell_length_b                   6.1501(2)
_cell_length_c                   8.8783(3)
_cell_angle_alpha                90
_cell_angle_beta                 100.866(2)
_cell_angle_gamma                90
_cell_volume                     527.521
loop_
_atom_site_label
_atom_site_type_symbol
_atom_site_fract_x
_atom_site_fract_y
_atom_site_fract_z
Mn1 Mn 1.0000 0.0000 0.0000
O1 O 0.82915(9) 0.10314(17) 0.10191(10)
O2 O 0.92626(10) 0.33288(19) 0.28199(12)
O3 O 0.89205(14) -0.3026(2) -0.08772(15)
C1 C 0.58692(12) 0.3906(2) 0.12101(13)
C2 C 0.61695(13) 0.6012(2) 0.07999(14)
C3 C 0.82253(12) 0.2341(2) 0.20882(13)
C4 C 0.46820(13) 0.2914(2) 0.03939(15)
C5 C 0.68131(13) 0.2723(3) 0.24928(15)
H1 H 0.6454(19) 0.131(3) 0.267(2)
H2 H 0.6923(18) 0.351(3) 0.340(2)
H3 H 0.6957(18) 0.674(3) 0.129(2)
H4 H 0.4436(17) 0.145(3) 0.066(2)
H5 H 0.929(3) -0.331(4) -0.158(3)
H6 H 0.849(5) -0.360(8) -0.060(6)
Mn1A Mn 1.0000 0.5000 0.5000
Mn1_2 Mn 0.0000 1.0000 0.0000
Mn1A_2 Mn 0.0000 0.5000 -0.5000
O1B O 0.17085(9) 0.89686(17) -0.10191(10)
O1B_2 O 1.17085(9) -0.10314(17) -0.10191(10)
O2B O 0.07374(10) 0.66712(19) -0.28199(12)
O2A O 1.07374(10) -0.16712(19) 0.21801(12)
O2C O 0.92626(10) 0.16712(19) -0.21801(12)
O3B O 1.10795(14) 0.3026(2) 0.08772(15)
C1B C 0.41308(12) 0.6094(2) -0.12101(13)
C2B C 0.38305(13) 0.3988(2) -0.07999(14)
C3B C 0.17747(12) 0.7659(2) -0.20882(13)
C4B C 0.53180(13) 0.7086(2) -0.03939(15)
C5B C 0.31869(13) 0.7277(3) -0.24928(15)
H1B H 0.3546(19) 0.869(3) -0.267(2)
H2B H 0.3077(18) 0.649(3) -0.340(2)
H3B H 0.3043(18) 0.326(3) -0.129(2)
H4B H 0.5564(17) 0.855(3) -0.066(2)
H5B H 1.071(3) 0.331(4) 0.158(3)
H6B H 1.151(5) 0.360(8) 0.060(6)
loop_
_geom_bond_atom_site_label_1
_geom_bond_atom_site_label_2
_geom_bond_site_symmetry_1
_geom_bond_site_symmetry_2
Mn1 O1 1_555 1_555
O1 C3 1_555 1_555
O2 C3 1_555 1_555
O3 Mn1 1_555 1_555
C1 C2 1_555 1_555
C2 H3 1_555 1_555
C3 C5 1_555 1_555
C4 C1 1_555 1_555
C5 C1 1_555 1_555
H1 C5 1_555 1_555
H2 C5 1_555 1_555
H4 C4 1_555 1_555
H5 O3 1_555 1_555
H6 O3 1_555 1_555
Mn1A O2 1_555 1_555
Mn1_2 O1B 1_555 1_555
Mn1A_2 O2B 1_555 1_555
O1B C3B 1_555 1_555
O1B_2 Mn1 1_555 1_555
O2B C3B 1_555 1_555
O2A Mn1 1_555 1_555
O2C Mn1 1_555 1_555
O3B Mn1 1_555 1_555
C1B C2B 1_555 1_555
C2B C4 1_555 1_555
C3B C5B 1_555 1_555
C4B C2 1_555 1_555
C5B C1B 1_555 1_555
H1B C5B 1_555 1_555
H2B C5B 1_555 1_555
H3B C2B 1_555 1_555
H4B C4B 1_555 1_555
H5B O3B 1_555 1_555
H6B O3B 1_555 1_555
C1B C4B 1_555 1_555

#END
