
#######################################################################
#
#                 Cambridge Crystallographic Data Centre
#                                CCDC 
#
#######################################################################
#
# If this CIF has been generated from an entry in the Cambridge 
# Structural Database, then it will include bibliographic, chemical, 
# crystal, experimental, refinement or atomic coordinate data resulting 
# from the CCDC's data processing and validation procedures.
#
#######################################################################

data_NUHCAV
_symmetry_cell_setting           triclinic
_symmetry_space_group_name_H-M   'P -1'
_symmetry_Int_Tables_number      2
_space_group_name_Hall           '-P 1'
loop_
_symmetry_equiv_pos_site_id
_symmetry_equiv_pos_as_xyz
1 x,y,z
2 -x,-y,-z
_cell_length_a                   9.814(3)
_cell_length_b                   10.545(3)
_cell_length_c                   10.595(3)
_cell_angle_alpha                112.508(6)
_cell_angle_beta                 106.884(11)
_cell_angle_gamma                96.478(4)
_cell_volume                     937.642
loop_
_atom_site_label
_atom_site_type_symbol
_atom_site_fract_x
_atom_site_fract_y
_atom_site_fract_z
Cd1 Cd -0.11658(7) 0.05243(5) 0.34682(6)
C1 C -0.1929(10) -0.1366(8) 0.5419(10)
C2 C -0.3574(10) -0.2000(11) 0.4884(13)
H1 H -0.4125 -0.1572 0.4279
H2 H -0.3894 -0.1814 0.5728
C3 C -0.3862(8) -0.3580(9) 0.3979(10)
C4 C -0.3586(10) -0.4489(9) 0.4600(10)
H3 H -0.3210 -0.4118 0.5638
C5 C -0.3838(10) -0.5966(9) 0.3750(10)
H4 H -0.3628 -0.6560 0.4228
C6 C -0.4376(8) -0.6543(9) 0.2265(10)
C7 C -0.4660(10) -0.5653(11) 0.1596(12)
H5 H -0.5024 -0.6034 0.0556
C8 C -0.4415(10) -0.4197(9) 0.2439(11)
H6 H -0.4629 -0.3608 0.1956
C9 C -0.4736(11) -0.8138(9) 0.1354(10)
H7 H -0.5641 -0.8601 0.1404
H8 H -0.4915 -0.8352 0.0316
C10 C -0.3430(11) -0.8729(9) 0.1945(9)
C11 C -0.0226(9) 0.3844(8) 0.5901(8)
H9 H 0.0416 0.3924 0.5399
C12 C -0.0264(9) 0.5077(8) 0.7060(8)
H10 H 0.0347 0.5977 0.7339
C13 C -0.1213(8) 0.4940(8) 0.7781(8)
C14 C -0.2058(9) 0.3575(7) 0.7335(8)
H11 H -0.2709 0.3429 0.7806
C15 C -0.1928(9) 0.2431(8) 0.6184(9)
H12 H -0.2493 0.1505 0.5890
C16 C -0.1264(8) 0.6141(8) 0.9011(8)
C17 C -0.1002(11) 0.7550(8) 0.9134(10)
H13 H -0.0767 0.7733 0.8401
C18 C -0.1090(11) 0.8638(8) 1.0318(10)
H14 H -0.0994 0.9549 1.0327
C19 C -0.1576(9) 0.7202(8) 1.1365(8)
H15 H -0.1767 0.7072 1.2142
C20 C -0.1595(8) 0.6033(7) 1.0193(8)
H16 H -0.1835 0.5123 1.0168
N1 N -0.1066(7) 0.2591(6) 0.5510(7)
N2 N -0.1303(7) 0.8512(6) 1.1472(7)
O1 O -0.1436(7) -0.0780(6) 0.4746(7)
O2 O -0.1114(7) -0.1486(6) 0.6469(6)
O3 O -0.2265(8) -0.8420(7) 0.1817(8)
O4 O -0.3677(7) -0.9522(7) 0.2540(8)
N2_2 N -0.1303(7) -0.1488(6) 0.1472(7)
O2A O 0.1114(7) 0.1486(6) 0.3531(6)
O3_2 O -0.2265(8) 0.1580(7) 0.1817(8)
O4_2 O -0.3677(7) 0.0478(7) 0.2540(8)
Cd1_2 Cd -0.11658(7) 1.05243(5) 1.34682(6)
Cd1A Cd 0.11658(7) -0.05243(5) 0.65318(6)
Cd1_3 Cd -0.11658(7) -0.94757(5) 0.34682(6)
O5 O 0.3415(15) 0.8589(15) 0.1541(19)
loop_
_geom_bond_atom_site_label_1
_geom_bond_atom_site_label_2
_geom_bond_site_symmetry_1
_geom_bond_site_symmetry_2
Cd1 N1 1_555 1_555
C1 C2 1_555 1_555
C2 H1 1_555 1_555
H2 C2 1_555 1_555
C3 C2 1_555 1_555
C4 C3 1_555 1_555
H3 C4 1_555 1_555
C5 C4 1_555 1_555
H4 C5 1_555 1_555
C6 C5 1_555 1_555
C7 C6 1_555 1_555
H5 C7 1_555 1_555
C8 C3 1_555 1_555
H6 C8 1_555 1_555
C9 C6 1_555 1_555
H7 C9 1_555 1_555
H8 C9 1_555 1_555
C10 C9 1_555 1_555
C11 H9 1_555 1_555
C12 C11 1_555 1_555
H10 C12 1_555 1_555
C13 C12 1_555 1_555
C14 C13 1_555 1_555
H11 C14 1_555 1_555
C15 C14 1_555 1_555
H12 C15 1_555 1_555
C16 C13 1_555 1_555
C17 C16 1_555 1_555
H13 C17 1_555 1_555
C18 C17 1_555 1_555
H14 C18 1_555 1_555
C19 H15 1_555 1_555
C20 C16 1_555 1_555
H16 C20 1_555 1_555
N1 C11 1_555 1_555
N2 C18 1_555 1_555
O1 Cd1 1_555 1_555
O2 C1 1_555 1_555
O3 C10 1_555 1_555
O4 C10 1_555 1_555
N2_2 Cd1 1_555 1_555
O2A Cd1 1_555 1_555
O3_2 Cd1 1_555 1_555
O4_2 Cd1 1_555 1_555
Cd1_2 N2 1_555 1_555
Cd1A O2 1_555 1_555
Cd1_3 O3 1_555 1_555
C1 O1 1_555 1_555
C7 C8 1_555 1_555
C15 N1 1_555 1_555
C19 N2 1_555 1_555
C19 C20 1_555 1_555
O4 Cd1_3 1_555 1_555

#END
