
#######################################################################
#
#                 Cambridge Crystallographic Data Centre
#                                CCDC 
#
#######################################################################
#
# If this CIF has been generated from an entry in the Cambridge 
# Structural Database, then it will include bibliographic, chemical, 
# crystal, experimental, refinement or atomic coordinate data resulting 
# from the CCDC's data processing and validation procedures.
#
#######################################################################

data_NUHDIE
_symmetry_cell_setting           monoclinic
_symmetry_space_group_name_H-M   'C 2/c'
_symmetry_Int_Tables_number      15
_space_group_name_Hall           '-C 2yn'
loop_
_symmetry_equiv_pos_site_id
_symmetry_equiv_pos_as_xyz
1 x,y,z
2 -x,y,1/2-z
3 1/2+x,1/2+y,z
4 1/2-x,1/2+y,1/2-z
5 -x,-y,-z
6 x,-y,1/2+z
7 1/2-x,1/2-y,-z
8 1/2+x,1/2-y,1/2+z
_cell_length_a                   12.536(3)
_cell_length_b                   28.624(6)
_cell_length_c                   8.8755(18)
_cell_angle_alpha                90
_cell_angle_beta                 95.67(3)
_cell_angle_gamma                90
_cell_volume                     3169.22
loop_
_atom_site_label
_atom_site_type_symbol
_atom_site_fract_x
_atom_site_fract_y
_atom_site_fract_z
Ag1 Ag 0.0000 0.117820(11) -0.2500
Ag2 Ag 0.104880(16) 0.102380(7) 0.10974(2)
Ag3 Ag 0.0000 0.324010(10) 0.2500
N1 N 0.16830(15) 0.13540(7) -0.1993(2)
N2 N 0.21664(16) 0.11836(7) -0.0640(2)
N3 N 0.34403(15) 0.14649(7) -0.1961(2)
N4 N 0.0000 0.03487(10) -0.2500
N5 N -0.04235(16) -0.03909(7) -0.2046(2)
N6 N 0.03843(17) 0.17020(7) 0.1985(3)
N7 N 0.0000 0.24399(10) 0.2500
C1 C 0.24630(18) 0.15206(9) -0.2750(3)
C2 C 0.2269(2) 0.17554(13) -0.4271(4)
H1 H 0.1505 0.1754 -0.4578
H2 H 0.2494 0.2079 -0.4163
C3 C 0.2825(3) 0.1540(2) -0.5483(4)
H3 H 0.3581 0.1529 -0.5179
H4 H 0.2697 0.1722 -0.6391
H5 H 0.2560 0.1228 -0.5668
C4 C 0.32118(18) 0.12537(9) -0.0666(3)
C5 C 0.4031(2) 0.11017(10) 0.0576(3)
H6 H 0.3671 0.1009 0.1446
H7 H 0.4494 0.1364 0.0877
C6 C 0.4715(3) 0.06980(12) 0.0114(4)
H8 H 0.4265 0.0433 -0.0146
H9 H 0.5234 0.0618 0.0941
H10 H 0.5076 0.0788 -0.0745
C7 C -0.06435(19) 0.00540(9) -0.1806(3)
C8 C -0.1532(2) 0.02072(10) -0.0906(3)
H11 H -0.1390 0.0523 -0.0544
H12 H -0.1548 0.0006 -0.0030
C9 C -0.2617(2) 0.01932(13) -0.1828(4)
H13 H -0.2598 0.0384 -0.2714
H14 H -0.3155 0.0309 -0.1227
H15 H -0.2784 -0.0123 -0.2126
C10 C 0.05886(19) 0.21458(9) 0.1723(3)
C11 C 0.1345(2) 0.23123(10) 0.0640(3)
H16 H 0.1805 0.2056 0.0398
H17 H 0.1795 0.2558 0.1113
C12 C 0.0749(3) 0.24971(13) -0.0804(4)
H18 H 0.0322 0.2252 -0.1293
H19 H 0.1255 0.2606 -0.1469
H20 H 0.0293 0.2750 -0.0567
Ag2A Ag -0.104880(16) 0.102380(7) -0.60974(2)
Ag2D Ag -0.104880(16) -0.102380(7) -0.10974(2)
Ag2E Ag 0.104880(16) -0.102380(7) -0.39026(2)
Ag2A_2 Ag -0.104880(16) 0.102380(7) 0.39026(2)
Ag3F Ag 0.5000 0.175990(10) -0.2500
Ag3F_2 Ag -0.5000 0.175990(10) -0.2500
N1A N -0.16830(15) 0.13540(7) -0.3007(2)
N2A N -0.21664(16) 0.11836(7) -0.4360(2)
N3A N -0.34403(15) 0.14649(7) -0.3039(2)
N3F N 0.15597(15) 0.35351(7) 0.1961(2)
N3G N -0.15597(15) 0.35351(7) 0.3039(2)
N5A N 0.04235(16) -0.03909(7) -0.2954(2)
N5D N 0.04235(16) 0.03909(7) 0.2046(2)
N5E N -0.04235(16) 0.03909(7) -0.7046(2)
N6A N -0.03843(17) 0.17020(7) 0.3015(3)
N6A_2 N -0.03843(17) 0.17020(7) -0.6985(3)
C1A C -0.24630(18) 0.15206(9) -0.2250(3)
C2A C -0.2269(2) 0.17554(13) -0.0729(4)
H1A H -0.1505 0.1754 -0.0422
H2A H -0.2494 0.2079 -0.0837
C3A C -0.2825(3) 0.1540(2) 0.0483(4)
H3A H -0.3581 0.1529 0.0179
H4A H -0.2697 0.1722 0.1391
H5A H -0.2560 0.1228 0.0668
C4A C -0.32118(18) 0.12537(9) -0.4334(3)
C5A C -0.4031(2) 0.11017(10) -0.5576(3)
H6A H -0.3671 0.1009 -0.6446
H7A H -0.4494 0.1364 -0.5877
C6A C -0.4715(3) 0.06980(12) -0.5114(4)
H8A H -0.4265 0.0433 -0.4854
H9A H -0.5234 0.0618 -0.5941
H10A H -0.5076 0.0788 -0.4255
C7A C 0.06435(19) 0.00540(9) -0.3194(3)
C8A C 0.1532(2) 0.02072(10) -0.4094(3)
H11A H 0.1390 0.0523 -0.4456
H12A H 0.1548 0.0006 -0.4970
C9A C 0.2617(2) 0.01932(13) -0.3172(4)
H13A H 0.2598 0.0384 -0.2286
H14A H 0.3155 0.0309 -0.3773
H15A H 0.2784 -0.0123 -0.2874
C10A C -0.05886(19) 0.21458(9) 0.3277(3)
C11A C -0.1345(2) 0.23123(10) 0.4360(3)
H16A H -0.1805 0.2056 0.4602
H17A H -0.1795 0.2558 0.3887
C12A C -0.0749(3) 0.24971(13) 0.5804(4)
H18A H -0.0322 0.2252 0.6293
H19A H -0.1255 0.2606 0.6469
H20A H -0.0293 0.2750 0.5567
loop_
_geom_bond_atom_site_label_1
_geom_bond_atom_site_label_2
_geom_bond_site_symmetry_1
_geom_bond_site_symmetry_2
Ag1 N1 1_555 1_555
Ag2 N2 1_555 1_555
Ag3 N7 1_555 1_555
N1 N2 1_555 1_555
N2 C4 1_555 1_555
N3 C1 1_555 1_555
N4 Ag1 1_555 1_555
N5 C7 1_555 1_555
N6 Ag2 1_555 1_555
N7 C10 1_555 1_555
C1 N1 1_555 1_555
C2 C1 1_555 1_555
H1 C2 1_555 1_555
H2 C2 1_555 1_555
C3 C2 1_555 1_555
H3 C3 1_555 1_555
H4 C3 1_555 1_555
H5 C3 1_555 1_555
C4 N3 1_555 1_555
C5 C4 1_555 1_555
H6 C5 1_555 1_555
H7 C5 1_555 1_555
C6 C5 1_555 1_555
H8 C6 1_555 1_555
H9 C6 1_555 1_555
H10 C6 1_555 1_555
C7 N4 1_555 1_555
C8 C7 1_555 1_555
H11 C8 1_555 1_555
H12 C8 1_555 1_555
C9 C8 1_555 1_555
H13 C9 1_555 1_555
H14 C9 1_555 1_555
H15 C9 1_555 1_555
C10 N6 1_555 1_555
C11 C10 1_555 1_555
H16 C11 1_555 1_555
H17 C11 1_555 1_555
C12 C11 1_555 1_555
H18 C12 1_555 1_555
H19 C12 1_555 1_555
H20 C12 1_555 1_555
Ag2A N2A 1_555 1_555
Ag2D N5 1_555 1_555
Ag2E N5A 1_555 1_555
Ag2A_2 N6A 1_555 1_555
Ag3F N3 1_555 1_555
Ag3F_2 N3A 1_555 1_555
N1A Ag1 1_555 1_555
N2A N1A 1_555 1_555
N3A C1A 1_555 1_555
N3F Ag3 1_555 1_555
N3G Ag3 1_555 1_555
N5A N5 1_555 1_555
N5D Ag2 1_555 1_555
N5E Ag2A 1_555 1_555
N6A N6 1_555 1_555
N6A_2 Ag2A 1_555 1_555
C1A N1A 1_555 1_555
C2A C1A 1_555 1_555
H1A C2A 1_555 1_555
H2A C2A 1_555 1_555
C3A C2A 1_555 1_555
H3A C3A 1_555 1_555
H4A C3A 1_555 1_555
H5A C3A 1_555 1_555
C4A N2A 1_555 1_555
C5A C4A 1_555 1_555
H6A C5A 1_555 1_555
H7A C5A 1_555 1_555
C6A C5A 1_555 1_555
H8A C6A 1_555 1_555
H9A C6A 1_555 1_555
H10A C6A 1_555 1_555
C7A N4 1_555 1_555
C8A C7A 1_555 1_555
H11A C8A 1_555 1_555
H12A C8A 1_555 1_555
C9A C8A 1_555 1_555
H13A C9A 1_555 1_555
H14A C9A 1_555 1_555
H15A C9A 1_555 1_555
C10A N7 1_555 1_555
C11A C10A 1_555 1_555
H16A C11A 1_555 1_555
H17A C11A 1_555 1_555
C12A C11A 1_555 1_555
H18A C12A 1_555 1_555
H19A C12A 1_555 1_555
H20A C12A 1_555 1_555
N3A C4A 1_555 1_555
N5A C7A 1_555 1_555
N6A C10A 1_555 1_555

#END
