
#######################################################################
#
#                 Cambridge Crystallographic Data Centre
#                                CCDC 
#
#######################################################################
#
# If this CIF has been generated from an entry in the Cambridge 
# Structural Database, then it will include bibliographic, chemical, 
# crystal, experimental, refinement or atomic coordinate data resulting 
# from the CCDC's data processing and validation procedures.
#
#######################################################################

data_NUHDUQ
_symmetry_cell_setting           hexagonal
_symmetry_space_group_name_H-M   'P 62 2 2'
_symmetry_Int_Tables_number      180
_space_group_name_Hall           "P 62 2' (0,0,4)"
loop_
_symmetry_equiv_pos_site_id
_symmetry_equiv_pos_as_xyz
1 x,y,z
2 -x,-y,z
3 -y,-x,2/3-z
4 y,x,2/3-z
5 x-y,-y,-z
6 -x+y,y,-z
7 x,x-y,1/3-z
8 -x,-x+y,1/3-z
9 -y,x-y,2/3+z
10 y,-x+y,2/3+z
11 x-y,x,1/3+z
12 -x+y,-x,1/3+z
_cell_length_a                   11.932(3)
_cell_length_b                   11.932(3)
_cell_length_c                   12.776(3)
_cell_angle_alpha                90
_cell_angle_beta                 90
_cell_angle_gamma                120
_cell_volume                     1575.26
loop_
_atom_site_label
_atom_site_type_symbol
_atom_site_fract_x
_atom_site_fract_y
_atom_site_fract_z
Ag1 Ag 0.0000 1.0000 0.1667
Ag2 Ag 0.5000 1.0000 0.0000
C1 C 0.2341(4) 0.9594(4) 0.0768(2)
C2 C 0.2411(4) 0.9052(5) 0.1815(3)
H1 H 0.1579 0.8760 0.2163
C3 C 0.3445(6) 1.0096(7) 0.2502(3)
H2 H 0.3264 1.0789 0.2589
H3 H 0.4276 1.0422 0.2177
H4 H 0.3448 0.9737 0.3173
C4 C 0.2573(6) 0.7874(6) 0.1695(4)
H5 H 0.1899 0.7249 0.1254
H6 H 0.2524 0.7500 0.2371
H7 H 0.3400 0.8130 0.1385
N1 N 0.1341(3) 0.9740(3) 0.0500(2)
N2 N 0.3243(3) 1.0000 0.0000
Ag1D Ag 0.0000 1.0000 -0.1667
Ag1J Ag 0.0000 1.0000 0.5000
Ag2F Ag -0.5000 0.5000 0.3333
C1D C 0.2747(6) 1.0406(4) -0.0768(2)
C1G C -0.2341(4) 0.7253(6) 0.2565(2)
C1K C -0.2747(6) 0.7659(4) 0.4101(2)
C2D C 0.3359(6) 1.0948(5) -0.1815(3)
C2G C -0.2411(4) 0.6641(6) 0.1518(3)
C2K C -0.3359(6) 0.7589(4) 0.5148(3)
H1D H 0.2819 1.1240 -0.2163
H1G H -0.1579 0.7181 0.1170
H1K H -0.2819 0.8421 0.5496
C3D C 0.3349(9) 0.9904(7) -0.2502(3)
C3G C -0.3445(6) 0.6651(9) 0.0831(3)
C3K C -0.3349(9) 0.6555(6) 0.5835(3)
H2D H 0.2475 0.9211 -0.2589
H2G H -0.3264 0.7525 0.0744
H2K H -0.2475 0.6736 0.5922
H3D H 0.3854 0.9578 -0.2177
H3G H -0.4276 0.6146 0.1156
H3K H -0.3854 0.5724 0.5510
H4D H 0.3711 1.0263 -0.3173
H4G H -0.3448 0.6289 0.0160
H4K H -0.3711 0.6552 0.6506
C4D C 0.4699(8) 1.2126(6) -0.1695(4)
C4G C -0.2573(6) 0.5301(8) 0.1638(4)
C4K C -0.4699(8) 0.7427(6) 0.5028(4)
H5D H 0.4650 1.2751 -0.1254
H5G H -0.1899 0.5350 0.2079
H5K H -0.4650 0.8101 0.4587
H6D H 0.5024 1.2500 -0.2371
H6G H -0.2524 0.4976 0.0962
H6K H -0.5024 0.7476 0.5704
H7D H 0.5270 1.1870 -0.1385
H7G H -0.3400 0.4730 0.1948
H7K H -0.5270 0.6600 0.4718
N1D N 0.1601(4) 1.0260(3) -0.0500(2)
N1G N -0.1341(3) 0.8399(4) 0.2833(2)
N1K N -0.1601(4) 0.8659(3) 0.3833(2)
N1A N -0.1341(3) 1.0260(3) 0.0500(2)
N1F N 0.1341(3) 1.1601(4) 0.2833(2)
N2G N -0.3243(3) 0.6757(3) 0.3333
N2A N 0.6757(3) 1.0000 0.0000
loop_
_geom_bond_atom_site_label_1
_geom_bond_atom_site_label_2
_geom_bond_site_symmetry_1
_geom_bond_site_symmetry_2
Ag1 N1 1_555 1_555
Ag2 N2 1_555 1_555
C1 C2 1_555 1_555
C2 H1 1_555 1_555
C3 C2 1_555 1_555
H2 C3 1_555 1_555
H3 C3 1_555 1_555
H4 C3 1_555 1_555
C4 C2 1_555 1_555
H5 C4 1_555 1_555
H6 C4 1_555 1_555
H7 C4 1_555 1_555
N1 C1 1_555 1_555
N2 C1 1_555 1_555
Ag1D N1D 1_555 1_555
Ag1J N1K 1_555 1_555
Ag2F N2G 1_555 1_555
C1D N2 1_555 1_555
C1G C2G 1_555 1_555
C1K C2K 1_555 1_555
C2D C1D 1_555 1_555
C2G H1G 1_555 1_555
C2K H1K 1_555 1_555
H1D C2D 1_555 1_555
C3D C2D 1_555 1_555
C3G C2G 1_555 1_555
C3K C2K 1_555 1_555
H2D C3D 1_555 1_555
H2G C3G 1_555 1_555
H2K C3K 1_555 1_555
H3D C3D 1_555 1_555
H3G C3G 1_555 1_555
H3K C3K 1_555 1_555
H4D C3D 1_555 1_555
H4G C3G 1_555 1_555
H4K C3K 1_555 1_555
C4D C2D 1_555 1_555
C4G C2G 1_555 1_555
C4K C2K 1_555 1_555
H5D C4D 1_555 1_555
H5G C4G 1_555 1_555
H5K C4K 1_555 1_555
H6D C4D 1_555 1_555
H6G C4G 1_555 1_555
H6K C4K 1_555 1_555
H7D C4D 1_555 1_555
H7G C4G 1_555 1_555
H7K C4K 1_555 1_555
N1D N1 1_555 1_555
N1G Ag1 1_555 1_555
N1K C1K 1_555 1_555
N1A Ag1 1_555 1_555
N1F Ag1 1_555 1_555
N2G C1G 1_555 1_555
N2A Ag2 1_555 1_555
C1D N1D 1_555 1_555
C1G N1G 1_555 1_555
C1K N2G 1_555 1_555
N1G N1K 1_555 1_555

#END
