
#######################################################################
#
#                 Cambridge Crystallographic Data Centre
#                                CCDC 
#
#######################################################################
#
# If this CIF has been generated from an entry in the Cambridge 
# Structural Database, then it will include bibliographic, chemical, 
# crystal, experimental, refinement or atomic coordinate data resulting 
# from the CCDC's data processing and validation procedures.
#
#######################################################################

data_NUHGOM
_symmetry_cell_setting           monoclinic
_symmetry_space_group_name_H-M   'P 21/c'
_symmetry_Int_Tables_number      14
_space_group_name_Hall           '-P 2ybc'
loop_
_symmetry_equiv_pos_site_id
_symmetry_equiv_pos_as_xyz
1 x,y,z
2 -x,1/2+y,1/2-z
3 -x,-y,-z
4 x,1/2-y,1/2+z
_cell_length_a                   7.5623(5)
_cell_length_b                   16.1971(11)
_cell_length_c                   9.3682(6)
_cell_angle_alpha                90
_cell_angle_beta                 90.8167(9)
_cell_angle_gamma                90
_cell_volume                     1147.37
loop_
_atom_site_label
_atom_site_type_symbol
_atom_site_fract_x
_atom_site_fract_y
_atom_site_fract_z
Fe1 Fe 0.0000 0.5000 0.5000
N1 N 0.2155(9) 0.4666(4) 0.6524(6)
N2 N 0.7873(9) 0.4690(4) 0.6525(6)
N3 N 0.8040(13) 0.3869(7) 1.0411(9)
N4 N 0.2513(13) 0.3621(6) 1.0395(9)
N5 N 0.0041(9) 0.6295(4) 0.5935(7)
C1 C 0.3450(11) 0.4675(4) 0.7198(7)
C2 C 0.5045(10) 0.4683(4) 0.7964(7)
C3 C 0.6622(11) 0.4682(4) 0.7197(7)
C4 C 0.6749(12) 0.4170(6) 1.0057(8)
C5 C 0.5061(10) 0.4568(4) 0.9562(7)
C6 C 0.3602(12) 0.4046(5) 1.0071(8)
C7 C -0.0009(10) 0.6882(5) 0.6593(8)
C8 C -0.0076(10) 0.7645(4) 0.7420(7)
H1 H 0.1101(10) 0.7781(4) 0.7769(7)
H2 H -0.0858(10) 0.7572(4) 0.8222(7)
H3 H -0.0517(10) 0.8089(4) 0.6818(7)
C5B C 0.4939(10) 0.5432(4) 1.0438(7)
C2B C 0.4955(10) 0.5317(4) 1.2036(7)
C1B C 0.6550(11) 0.5325(4) 1.2802(7)
N1B N 0.7845(9) 0.5334(4) 1.3476(6)
C3B C 0.3378(11) 0.5318(4) 1.2803(7)
N2B N 0.2127(9) 0.5310(4) 1.3475(6)
C4B C 0.3251(12) 0.5830(6) 0.9943(8)
N3B N 0.1960(13) 0.6131(7) 0.9589(9)
C6B C 0.6398(12) 0.5954(5) 0.9929(8)
N4B N 0.7487(13) 0.6379(6) 0.9605(9)
N5B N -0.0041(9) 0.3705(4) 0.4065(7)
C7B C 0.0009(10) 0.3118(5) 0.3407(8)
C8B C 0.0076(10) 0.2355(4) 0.2580(7)
H1B H -0.1101(10) 0.2219(4) 0.2231(7)
H2B H 0.0858(10) 0.2428(4) 0.1778(7)
H3B H 0.0517(10) 0.1911(4) 0.3182(7)
N1B_2 N -0.2155(9) 0.5334(4) 0.3476(6)
N2_2 N -0.2127(9) 0.4690(4) 0.6525(6)
N2B_2 N 0.2127(9) 0.5310(4) 0.3475(6)
Fe1_2 Fe 1.0000 0.5000 0.5000
Fe1_3 Fe 1.0000 0.5000 1.5000
Fe1_4 Fe 0.0000 0.5000 1.5000
N6 N 0.5590(20) 0.2668(8) 0.7586(14)
C9 C 0.5234(10) 0.2201(4) 0.8384(7)
C10 C 0.4880(17) 0.1576(6) 0.9390(12)
H4 H 0.4302(17) 0.1116(6) 0.8914(12)
H5 H 0.4113(17) 0.1793(6) 1.0122(12)
H6 H 0.5981(17) 0.1391(6) 0.9825(12)
loop_
_geom_bond_atom_site_label_1
_geom_bond_atom_site_label_2
_geom_bond_site_symmetry_1
_geom_bond_site_symmetry_2
Fe1 N1 1_555 1_555
N1 C1 1_555 1_555
N2 C3 1_555 1_555
N3 C4 1_555 1_555
N4 C6 1_555 1_555
N5 Fe1 1_555 1_555
N6 C9 1_555 1_555
C1 C2 1_555 1_555
C2 C3 1_555 1_555
C4 C5 1_555 1_555
C5 C2 1_555 1_555
C6 C5 1_555 1_555
C7 N5 1_555 1_555
C8 C7 1_555 1_555
H1 C8 1_555 1_555
H2 C8 1_555 1_555
H3 C8 1_555 1_555
C9 C10 1_555 1_555
C10 H4 1_555 1_555
H5 C10 1_555 1_555
H6 C10 1_555 1_555
C5B C5 1_555 1_555
C2B C5B 1_555 1_555
C1B C2B 1_555 1_555
N1B C1B 1_555 1_555
C3B C2B 1_555 1_555
N2B C3B 1_555 1_555
C4B C5B 1_555 1_555
N3B C4B 1_555 1_555
C6B C5B 1_555 1_555
N4B C6B 1_555 1_555
N5B Fe1 1_555 1_555
C7B N5B 1_555 1_555
C8B C7B 1_555 1_555
H1B C8B 1_555 1_555
H2B C8B 1_555 1_555
H3B C8B 1_555 1_555
N1B_2 Fe1 1_555 1_555
N2_2 Fe1 1_555 1_555
N2B_2 Fe1 1_555 1_555
Fe1_2 N2 1_555 1_555
Fe1_3 N1B 1_555 1_555
Fe1_4 N2B 1_555 1_555

#END
