
#######################################################################
#
#                 Cambridge Crystallographic Data Centre
#                                CCDC 
#
#######################################################################
#
# If this CIF has been generated from an entry in the Cambridge 
# Structural Database, then it will include bibliographic, chemical, 
# crystal, experimental, refinement or atomic coordinate data resulting 
# from the CCDC's data processing and validation procedures.
#
#######################################################################

data_NUHLOS
_symmetry_cell_setting           orthorhombic
_symmetry_space_group_name_H-M   'P b c a'
_symmetry_Int_Tables_number      61
_space_group_name_Hall           '-P 2ac 2ab'
loop_
_symmetry_equiv_pos_site_id
_symmetry_equiv_pos_as_xyz
1 x,y,z
2 1/2-x,-y,1/2+z
3 -x,1/2+y,1/2-z
4 1/2+x,1/2-y,-z
5 -x,-y,-z
6 1/2+x,y,1/2-z
7 x,1/2-y,1/2+z
8 1/2-x,1/2+y,z
_cell_length_a                   17.5062(15)
_cell_length_b                   17.3047(15)
_cell_length_c                   21.3974(18)
_cell_angle_alpha                90
_cell_angle_beta                 90
_cell_angle_gamma                90
_cell_volume                     6482.12
loop_
_atom_site_label
_atom_site_type_symbol
_atom_site_fract_x
_atom_site_fract_y
_atom_site_fract_z
Co1 Co 0.23682(4) 0.76445(4) 0.36323(3)
O1 O 0.30389(18) 0.77880(19) 0.44168(15)
O2 O 0.2629(2) 0.8823(2) 0.49359(17)
C1 C 0.3013(3) 0.8216(3) 0.4893(3)
C2 C 0.3486(3) 0.7944(4) 0.5442(3)
C3 C 0.3414(4) 0.8316(4) 0.6008(3)
H1 H 0.3081 0.8746 0.6051
C4 C 0.3835(5) 0.8053(6) 0.6519(4)
H2 H 0.3784 0.8302 0.6912
C5 C 0.4314(4) 0.7450(6) 0.6458(4)
H3 H 0.4592 0.7275 0.6812
C6 C 0.4409(4) 0.7083(4) 0.5892(4)
H4 H 0.4759 0.6667 0.5848
C7 C 0.3978(3) 0.7336(4) 0.5385(3)
H5 H 0.4026 0.7082 0.4993
O3 O 0.17322(18) 0.74803(18) 0.28317(14)
O4 O 0.0980(3) 0.8509(3) 0.28387(19)
C8 C 0.1279(3) 0.7954(3) 0.2577(3)
C9 C 0.1102(3) 0.7816(3) 0.1891(3)
C10 C 0.1513(3) 0.7278(3) 0.1546(2)
H6 H 0.1905 0.6984 0.1741
C11 C 0.1354(3) 0.7171(4) 0.0922(3)
H7 H 0.1642 0.6809 0.0686
C12 C 0.0779(3) 0.7584(4) 0.0637(3)
H8 H 0.0667 0.7500 0.0208
C13 C 0.0376(4) 0.8108(4) 0.0967(3)
H9 H -0.0018 0.8394 0.0768
C14 C 0.0532(3) 0.8234(3) 0.1600(3)
H10 H 0.0247 0.8606 0.1828
N1 N 0.2979(2) 0.8576(2) 0.3162(2)
N2 N 0.6807(2) 1.1809(2) 0.16786(18)
C15 C 0.3239(3) 0.9186(3) 0.3465(2)
H11 H 0.3135 0.9222 0.3900
C16 C 0.3653(3) 0.9775(3) 0.3193(3)
H12 H 0.3832 1.0192 0.3441
C17 C 0.3804(3) 0.9760(3) 0.2565(3)
C18 C 0.3523(4) 0.9148(4) 0.2244(3)
H13 H 0.3605 0.9109 0.1806
C19 C 0.3114(3) 0.8574(3) 0.2558(3)
H14 H 0.2920 0.8155 0.2319
C20 C 0.4295(3) 1.0379(3) 0.2259(3)
H15 H 0.4145 1.0438 0.1815
H16 H 0.4214 1.0880 0.2472
C21 C 0.5120(3) 1.0153(3) 0.2300(4)
H17 H 0.5188 0.9663 0.2067
H18 H 0.5240 1.0046 0.2743
C22 C 0.5705(3) 1.0733(3) 0.2055(3)
C23 C 0.5506(3) 1.1420(3) 0.1765(2)
H19 H 0.4985 1.1539 0.1689
C24 C 0.6072(3) 1.1932(3) 0.1586(2)
H20 H 0.5923 1.2399 0.1386
C25 C 0.6996(3) 1.1128(3) 0.1948(3)
H21 H 0.7522 1.1015 0.2008
C26 C 0.6473(3) 1.0600(3) 0.2136(3)
H22 H 0.6638 1.0133 0.2327
N3 N 0.1741(2) 0.6749(2) 0.40986(19)
C27 C 0.0989(3) 0.6683(3) 0.4011(2)
H23 H 0.0753 0.7023 0.3722
C28 C 0.0533(3) 0.6151(3) 0.4314(2)
H24 H -0.0001 0.6139 0.4237
C29 C 0.0853(3) 0.5640(3) 0.4727(2)
C30 C 0.1644(3) 0.5704(3) 0.4823(2)
H25 H 0.1895 0.5366 0.5106
C31 C 0.2054(3) 0.6258(3) 0.4505(2)
H26 H 0.2587 0.6292 0.4580
C32 C 0.0413(3) 0.5030(3) 0.5080(3)
H27 H 0.0656 0.4523 0.5001
H28 H 0.0459 0.5139 0.5532
O5 O 0.1518(2) 0.8411(2) 0.39783(17)
H29 H 0.169(3) 0.8863(15) 0.417(2)
H30 H 0.135(3) 0.854(3) 0.3579(10)
Co1B Co 0.76318(4) 0.26445(4) 0.13677(3)
Co1B_2 Co 0.76318(4) 1.26445(4) 0.13677(3)
Co1D Co -0.23682(4) 0.23555(4) 0.63677(3)
O1B O 0.69611(18) 0.27880(19) 0.05832(15)
O2B O 0.7371(2) 0.3823(2) 0.00641(17)
C1B C 0.6987(3) 0.3216(3) 0.0107(3)
C2B C 0.6514(3) 0.2944(4) -0.0442(3)
C3B C 0.6586(4) 0.3316(4) -0.1008(3)
H1B H 0.6919 0.3746 -0.1051
C4B C 0.6165(5) 0.3053(6) -0.1519(4)
H2B H 0.6216 0.3302 -0.1912
C5B C 0.5686(4) 0.2450(6) -0.1458(4)
H3B H 0.5408 0.2275 -0.1812
C6B C 0.5591(4) 0.2083(4) -0.0892(4)
H4B H 0.5241 0.1667 -0.0848
C7B C 0.6022(3) 0.2336(4) -0.0385(3)
H5B H 0.5974 0.2082 0.0007
O3B O 0.82678(18) 0.24803(18) 0.21683(14)
O4B O 0.9020(3) 0.3509(3) 0.21613(19)
C8B C 0.8721(3) 0.2954(3) 0.2423(3)
C9B C 0.8898(3) 0.2816(3) 0.3109(3)
C10B C 0.8487(3) 0.2278(3) 0.3454(2)
H6B H 0.8095 0.1984 0.3259
C11B C 0.8646(3) 0.2171(4) 0.4078(3)
H7B H 0.8358 0.1809 0.4314
C12B C 0.9221(3) 0.2584(4) 0.4363(3)
H8B H 0.9333 0.2500 0.4792
C13B C 0.9624(4) 0.3108(4) 0.4033(3)
H9B H 1.0018 0.3394 0.4232
C14B C 0.9468(3) 0.3234(3) 0.3400(3)
H10B H 0.9753 0.3606 0.3172
N1B N 0.7021(2) 0.3576(2) 0.1838(2)
N2B N 0.3193(2) 0.6809(2) 0.33214(18)
N2_2 N 0.6807(2) 0.1809(2) 0.16786(18)
C15B C 0.6761(3) 0.4186(3) 0.1535(2)
H11B H 0.6865 0.4222 0.1100
C16B C 0.6347(3) 0.4775(3) 0.1807(3)
H12B H 0.6168 0.5192 0.1559
C17B C 0.6196(3) 0.4760(3) 0.2435(3)
C18B C 0.6477(4) 0.4148(4) 0.2756(3)
H13B H 0.6395 0.4109 0.3194
C19B C 0.6886(3) 0.3574(3) 0.2442(3)
H14B H 0.7080 0.3155 0.2681
C20B C 0.5705(3) 0.5379(3) 0.2741(3)
H15B H 0.5855 0.5438 0.3185
H16B H 0.5786 0.5880 0.2528
C21B C 0.4880(3) 0.5153(3) 0.2700(4)
H17B H 0.4812 0.4663 0.2933
H18B H 0.4760 0.5046 0.2257
C22B C 0.4295(3) 0.5733(3) 0.2945(3)
C23B C 0.4494(3) 0.6420(3) 0.3235(2)
H19B H 0.5015 0.6539 0.3311
C24B C 0.3928(3) 0.6932(3) 0.3414(2)
H20B H 0.4077 0.7399 0.3614
C25B C 0.3004(3) 0.6128(3) 0.3052(3)
H21B H 0.2478 0.6015 0.2992
C26B C 0.3527(3) 0.5600(3) 0.2864(3)
H22B H 0.3362 0.5133 0.2673
N3D N -0.1741(2) 0.3251(2) 0.59014(19)
N3B N 0.8259(2) 0.1749(2) 0.09014(19)
C27D C -0.0989(3) 0.3317(3) 0.5989(2)
H23D H -0.0753 0.2977 0.6278
C28D C -0.0533(3) 0.3849(3) 0.5686(2)
H24D H 0.0001 0.3861 0.5763
C29D C -0.0853(3) 0.4360(3) 0.5273(2)
C30D C -0.1644(3) 0.4296(3) 0.5177(2)
H25D H -0.1895 0.4634 0.4894
C31D C -0.2054(3) 0.3742(3) 0.5495(2)
H26D H -0.2587 0.3708 0.5420
C32D C -0.0413(3) 0.4970(3) 0.4920(3)
H27D H -0.0656 0.5477 0.4999
H28D H -0.0459 0.4861 0.4468
O5B O 0.8482(2) 0.3411(2) 0.10217(17)
H29B H 0.831(3) 0.3863(15) 0.083(2)
H30B H 0.865(3) 0.354(3) 0.1421(10)
O6 O 0.1737(5) 0.9879(5) 0.5632(4)
C33 C 0.0999(6) 0.9929(10) 0.5345(6)
C34 C 0.1161(7) 1.0068(7) 0.4676(6)
loop_
_geom_bond_atom_site_label_1
_geom_bond_atom_site_label_2
_geom_bond_site_symmetry_1
_geom_bond_site_symmetry_2
Co1 O1 1_555 1_555
O1 C1 1_555 1_555
O2 C1 1_555 1_555
C1 C2 1_555 1_555
C2 C3 1_555 1_555
C3 H1 1_555 1_555
C4 C3 1_555 1_555
H2 C4 1_555 1_555
C5 C4 1_555 1_555
H3 C5 1_555 1_555
C6 C5 1_555 1_555
H4 C6 1_555 1_555
C7 C2 1_555 1_555
H5 C7 1_555 1_555
O3 Co1 1_555 1_555
O4 C8 1_555 1_555
C8 O3 1_555 1_555
C9 C8 1_555 1_555
C10 C9 1_555 1_555
H6 C10 1_555 1_555
C11 C10 1_555 1_555
H7 C11 1_555 1_555
C12 C11 1_555 1_555
H8 C12 1_555 1_555
C13 C12 1_555 1_555
H9 C13 1_555 1_555
C14 C9 1_555 1_555
H10 C14 1_555 1_555
N1 Co1 1_555 1_555
N2 C24 1_555 1_555
C15 N1 1_555 1_555
H11 C15 1_555 1_555
C16 C15 1_555 1_555
H12 C16 1_555 1_555
C17 C16 1_555 1_555
C18 C17 1_555 1_555
H13 C18 1_555 1_555
C19 N1 1_555 1_555
H14 C19 1_555 1_555
C20 C17 1_555 1_555
H15 C20 1_555 1_555
H16 C20 1_555 1_555
C21 C20 1_555 1_555
H17 C21 1_555 1_555
H18 C21 1_555 1_555
C22 C21 1_555 1_555
C23 C22 1_555 1_555
H19 C23 1_555 1_555
C24 C23 1_555 1_555
H20 C24 1_555 1_555
C25 N2 1_555 1_555
H21 C25 1_555 1_555
C26 C22 1_555 1_555
H22 C26 1_555 1_555
N3 Co1 1_555 1_555
C27 N3 1_555 1_555
H23 C27 1_555 1_555
C28 C27 1_555 1_555
H24 C28 1_555 1_555
C29 C28 1_555 1_555
C30 C29 1_555 1_555
H25 C30 1_555 1_555
C31 N3 1_555 1_555
H26 C31 1_555 1_555
C32 C29 1_555 1_555
H27 C32 1_555 1_555
H28 C32 1_555 1_555
O5 Co1 1_555 1_555
H29 O5 1_555 1_555
H30 O5 1_555 1_555
O6 C33 1_555 1_555
C33 C34 1_555 1_555
Co1B O1B 1_555 1_555
Co1B_2 N2 1_555 1_555
Co1D N3D 1_555 1_555
O1B C1B 1_555 1_555
O2B C1B 1_555 1_555
C1B C2B 1_555 1_555
C2B C3B 1_555 1_555
C3B H1B 1_555 1_555
C4B C3B 1_555 1_555
H2B C4B 1_555 1_555
C5B C4B 1_555 1_555
H3B C5B 1_555 1_555
C6B C5B 1_555 1_555
H4B C6B 1_555 1_555
C7B C2B 1_555 1_555
H5B C7B 1_555 1_555
O3B Co1B 1_555 1_555
O4B C8B 1_555 1_555
C8B O3B 1_555 1_555
C9B C8B 1_555 1_555
C10B C9B 1_555 1_555
H6B C10B 1_555 1_555
C11B C10B 1_555 1_555
H7B C11B 1_555 1_555
C12B C11B 1_555 1_555
H8B C12B 1_555 1_555
C13B C12B 1_555 1_555
H9B C13B 1_555 1_555
C14B C9B 1_555 1_555
H10B C14B 1_555 1_555
N1B Co1B 1_555 1_555
N2B Co1 1_555 1_555
N2_2 Co1B 1_555 1_555
C15B N1B 1_555 1_555
H11B C15B 1_555 1_555
C16B C15B 1_555 1_555
H12B C16B 1_555 1_555
C17B C16B 1_555 1_555
C18B C17B 1_555 1_555
H13B C18B 1_555 1_555
C19B N1B 1_555 1_555
H14B C19B 1_555 1_555
C20B C17B 1_555 1_555
H15B C20B 1_555 1_555
H16B C20B 1_555 1_555
C21B C20B 1_555 1_555
H17B C21B 1_555 1_555
H18B C21B 1_555 1_555
C22B C21B 1_555 1_555
C23B C22B 1_555 1_555
H19B C23B 1_555 1_555
C24B N2B 1_555 1_555
H20B C24B 1_555 1_555
C25B N2B 1_555 1_555
H21B C25B 1_555 1_555
C26B C22B 1_555 1_555
H22B C26B 1_555 1_555
N3D C27D 1_555 1_555
N3B Co1B 1_555 1_555
C27D H23D 1_555 1_555
C28D C27D 1_555 1_555
H24D C28D 1_555 1_555
C29D C28D 1_555 1_555
C30D C29D 1_555 1_555
H25D C30D 1_555 1_555
C31D N3D 1_555 1_555
H26D C31D 1_555 1_555
C32D C32 1_555 1_555
H27D C32D 1_555 1_555
H28D C32D 1_555 1_555
O5B Co1B 1_555 1_555
H29B O5B 1_555 1_555
H30B O5B 1_555 1_555
C6 C7 1_555 1_555
C13 C14 1_555 1_555
C18 C19 1_555 1_555
C25 C26 1_555 1_555
C30 C31 1_555 1_555
C6B C7B 1_555 1_555
C13B C14B 1_555 1_555
C18B C19B 1_555 1_555
C23B C24B 1_555 1_555
C25B C26B 1_555 1_555
C29D C32D 1_555 1_555
C30D C31D 1_555 1_555

#END
