
#######################################################################
#
#                 Cambridge Crystallographic Data Centre
#                                CCDC 
#
#######################################################################
#
# If this CIF has been generated from an entry in the Cambridge 
# Structural Database, then it will include bibliographic, chemical, 
# crystal, experimental, refinement or atomic coordinate data resulting 
# from the CCDC's data processing and validation procedures.
#
#######################################################################

data_NUHLUY
_symmetry_cell_setting           orthorhombic
_symmetry_space_group_name_H-M   'P b c a'
_symmetry_Int_Tables_number      61
_space_group_name_Hall           '-P 2ac 2ab'
loop_
_symmetry_equiv_pos_site_id
_symmetry_equiv_pos_as_xyz
1 x,y,z
2 1/2-x,-y,1/2+z
3 -x,1/2+y,1/2-z
4 1/2+x,1/2-y,-z
5 -x,-y,-z
6 1/2+x,y,1/2-z
7 x,1/2-y,1/2+z
8 1/2-x,1/2+y,z
_cell_length_a                   17.4654(14)
_cell_length_b                   17.1853(14)
_cell_length_c                   21.5722(17)
_cell_angle_alpha                90
_cell_angle_beta                 90
_cell_angle_gamma                90
_cell_volume                     6474.86
loop_
_atom_site_label
_atom_site_type_symbol
_atom_site_fract_x
_atom_site_fract_y
_atom_site_fract_z
Ni1 Ni -0.759090(17) 0.258840(17) -0.134680(15)
N1 N -0.82099(11) 0.17062(11) -0.08970(10)
C1 C -0.89671(14) 0.16826(14) -0.09687(12)
H1 H -0.9198 0.2048 -0.1241
C2 C -0.94354(14) 0.11557(14) -0.06683(12)
H2 H -0.9973 0.1169 -0.0732
C3 C -0.91164(14) 0.06065(14) -0.02731(11)
C4 C -0.83205(15) 0.06273(16) -0.02030(14)
H3 H -0.8072 0.0260 0.0057
C5 C -0.78976(15) 0.11837(16) -0.05125(13)
H4 H -0.7359 0.1196 -0.0450
C6 C -0.95710(15) 0.00020(15) 0.00704(13)
H5 H -1.0640 0.0517 0.0031
H6 H -1.0500 -0.0086 -0.0521
N2 N -0.30027(12) -0.14891(11) -0.31968(10)
N3 N -0.67928(11) 0.17750(12) -0.16631(10)
C7 C -0.3167(2) -0.15221(17) -0.25930(14)
H7 H -0.3000 -0.1964 -0.2365
C8 C -0.3565(2) -0.09491(19) -0.22818(16)
H8 H -0.3664 -0.1001 -0.1851
C9 C -0.38218(16) -0.02951(15) -0.26012(14)
C10 C -0.36405(15) -0.02561(15) -0.32229(13)
H9 H -0.3796 0.0181 -0.3461
C11 C -0.32327(15) -0.08523(14) -0.34992(12)
H10 H -0.3110 -0.0807 -0.3927
C12 C -0.42973(18) 0.03292(16) -0.22904(16)
H11 H -0.4220 0.0832 -0.2506
H12 H -0.4130 0.0392 -0.1855
C13 C -0.51193(19) 0.01158(19) -0.2307(3)
H13 H -0.5258 0.0009 -0.2744
H14 H -0.5182 -0.0377 -0.2075
C14 C -0.56885(16) 0.06924(16) -0.20532(17)
C15 C -0.54815(15) 0.13844(16) -0.17692(15)
H15 H -0.4957 0.1504 -0.1704
C16 C -0.60450(14) 0.19024(15) -0.15799(13)
H16 H -0.4109 0.7371 -0.3618
C17 C -0.30084(15) 0.61029(15) -0.30675(13)
H17 H -0.2480 0.6000 -0.3003
C18 C -0.35358(17) 0.55496(16) -0.28778(16)
H18 H -0.3366 0.5074 -0.2701
O1 O -0.17766(10) 0.74241(9) -0.28623(8)
O2 O -0.10773(15) 0.85146(13) -0.28700(11)
C19 C -0.13400(15) 0.79196(15) -0.26111(12)
C20 C -0.11461(15) 0.77852(15) -0.19392(13)
C21 C -0.05786(17) 0.82300(16) -0.16497(14)
H19 H -0.0304 0.8611 -0.1879
C22 C -0.04172(19) 0.81141(19) -0.10258(15)
H20 H -0.0030 0.8415 -0.0831
C23 C -0.0812(2) 0.7568(2) -0.06888(15)
H21 H -0.0699 0.7494 -0.0262
C24 C -0.13763(18) 0.7127(2) -0.09706(14)
H22 H -0.1652 0.6752 -0.0737
C25 C -0.15393(16) 0.72321(18) -0.15963(13)
H23 H -0.1922 0.6923 -0.1790
O3 O -0.30788(10) 0.77161(10) -0.44260(8)
O4 O -0.26044(11) 0.87592(11) -0.49151(9)
C26 C -0.30170(14) 0.81673(15) -0.48900(12)
C27 C -0.34935(15) 0.79489(16) -0.54457(12)
C28 C -0.40099(18) 0.73283(18) -0.54142(16)
H24 H -0.4073 0.7051 -0.5036
C29 C -0.4431(2) 0.7115(2) -0.59322(18)
H25 H -0.4780 0.6693 -0.5909
C30 C -0.4343(2) 0.7518(3) -0.64837(18)
H26 H -0.4627 0.7368 -0.6839
C31 C -0.3842(2) 0.8136(3) -0.65162(15)
H27 H -0.3787 0.8415 -0.6894
C32 C -0.34154(18) 0.8355(2) -0.59965(14)
H28 H -0.3072 0.8783 -0.6021
O5 O -0.15906(10) 0.83534(10) -0.40102(9)
H29 H -0.1418(17) 0.8589(16) -0.3649(8)
H30 H -0.1894(14) 0.8660(15) -0.4266(11)
Ni1B Ni -0.240910(17) -0.241160(17) -0.365320(15)
Ni1D Ni -1.240910(17) -0.258840(17) 0.134680(15)
Ni1B_2 Ni -0.240910(17) 0.758840(17) -0.365320(15)
N1D N -1.17901(11) -0.17062(11) 0.08970(10)
N1B N -0.17901(11) 0.67062(11) -0.41030(10)
C1D C -1.10329(14) -0.16826(14) 0.09687(12)
H1D H -1.0802 -0.2048 0.1241
C2D C -1.05646(14) -0.11557(14) 0.06683(12)
H2D H -1.0027 -0.1169 0.0732
C3D C -1.08836(14) -0.06065(14) 0.02731(11)
C4D C -1.16795(15) -0.06273(16) 0.02030(14)
H3D H -1.1928 -0.0260 -0.0057
C5D C -1.21024(15) -0.11837(16) 0.05125(13)
H4D H -1.2641 -0.1196 0.0450
C6D C -1.04290(15) -0.00020(15) -0.00704(13)
H5D H -0.9360 -0.0517 -0.0031
H6D H -0.9500 0.0086 0.0521
N2B N -0.69973(12) 0.35109(11) -0.18032(10)
N2_2 N -0.30027(12) 0.85109(11) -0.31968(10)
N3B N -0.32072(11) 0.67750(12) -0.33369(10)
C7B C -0.6833(2) 0.34779(17) -0.24070(14)
H7B H -0.7000 0.3036 -0.2635
C8B C -0.6435(2) 0.40509(19) -0.27182(16)
H8B H -0.6336 0.3999 -0.3149
C9B C -0.61782(16) 0.47049(15) -0.23988(14)
C10B C -0.63595(15) 0.47439(15) -0.17771(13)
H9B H -0.6204 0.5181 -0.1539
C11B C -0.67673(15) 0.41477(14) -0.15008(12)
H10B H -0.6890 0.4193 -0.1073
C12B C -0.57027(18) 0.53292(16) -0.27096(16)
H11B H -0.5780 0.5832 -0.2494
H12B H -0.5870 0.5392 -0.3145
C13B C -0.48807(19) 0.51158(19) -0.2693(3)
H13B H -0.4742 0.5009 -0.2256
H14B H -0.4818 0.4623 -0.2925
C14B C -0.43115(16) 0.56924(16) -0.29468(17)
C15B C -0.45185(15) 0.63844(16) -0.32308(15)
H15B H -0.5043 0.6504 -0.3296
C16B C -0.39550(14) 0.69024(15) -0.34201(13)
H16B H -0.5891 0.2371 -0.1382
C17B C -0.69916(15) 0.11029(15) -0.19325(13)
H17B H -0.7520 0.1000 -0.1997
C18B C -0.64642(17) 0.05496(16) -0.21222(16)
H18B H -0.6634 0.0074 -0.2299
O1B O -0.82234(10) 0.24241(9) -0.21377(8)
O2B O -0.89227(15) 0.35146(13) -0.21300(11)
C19B C -0.86600(15) 0.29196(15) -0.23889(12)
C20B C -0.88539(15) 0.27852(15) -0.30608(13)
C21B C -0.94214(17) 0.32300(16) -0.33503(14)
H19B H -0.9696 0.3611 -0.3121
C22B C -0.95828(19) 0.31141(19) -0.39742(15)
H20B H -0.9970 0.3415 -0.4169
C23B C -0.9188(2) 0.2568(2) -0.43112(15)
H21B H -0.9301 0.2494 -0.4738
C24B C -0.86237(18) 0.2127(2) -0.40294(14)
H22B H -0.8348 0.1752 -0.4263
C25B C -0.84607(16) 0.22321(18) -0.34037(13)
H23B H -0.8078 0.1923 -0.3210
O3B O -0.69212(10) 0.27161(10) -0.05740(8)
O4B O -0.73956(11) 0.37592(11) -0.00849(9)
C26B C -0.69830(14) 0.31673(15) -0.01100(12)
C27B C -0.65065(15) 0.29489(16) 0.04457(12)
C28B C -0.59901(18) 0.23283(18) 0.04142(16)
H24B H -0.5927 0.2051 0.0036
C29B C -0.5569(2) 0.2115(2) 0.09322(18)
H25B H -0.5220 0.1693 0.0909
C30B C -0.5657(2) 0.2518(3) 0.14837(18)
H26B H -0.5373 0.2368 0.1839
C31B C -0.6158(2) 0.3136(3) 0.15162(15)
H27B H -0.6213 0.3415 0.1894
C32B C -0.65846(18) 0.3355(2) 0.09965(14)
H28B H -0.6928 0.3783 0.1021
O5B O -0.84094(10) 0.33534(10) -0.09898(9)
H29B H -0.8582(17) 0.3589(16) -0.1351(8)
H30B H -0.8106(14) 0.3660(15) -0.0734(11)
O6 O 0.3282(10) -0.4932(10) -0.4321(8)
C33 C 0.2822(13) -0.5000(14) -0.3746(10)
C34 C 0.2087(14) -0.5446(14) -0.3573(12)
O7 O 0.5004(10) -0.5048(10) -0.5453(8)
C35 C 0.4211(9) -0.5063(10) -0.5205(10)
loop_
_geom_bond_atom_site_label_1
_geom_bond_atom_site_label_2
_geom_bond_site_symmetry_1
_geom_bond_site_symmetry_2
Ni1 N1 1_555 1_555
N1 C1 1_555 1_555
C1 H1 1_555 1_555
C2 C1 1_555 1_555
H2 C2 1_555 1_555
C3 C2 1_555 1_555
C4 C3 1_555 1_555
H3 C4 1_555 1_555
C5 N1 1_555 1_555
H4 C5 1_555 1_555
C6 C3 1_555 1_555
H5 C6D 1_555 1_555
H6 C6D 1_555 1_555
N2 C7 1_555 1_555
N3 Ni1 1_555 1_555
C7 H7 1_555 1_555
C8 C7 1_555 1_555
H8 C8 1_555 1_555
C9 C8 1_555 1_555
C10 C9 1_555 1_555
H9 C10 1_555 1_555
C11 N2 1_555 1_555
H10 C11 1_555 1_555
C12 C9 1_555 1_555
H11 C12 1_555 1_555
H12 C12 1_555 1_555
C13 C12 1_555 1_555
H13 C13 1_555 1_555
H14 C13 1_555 1_555
C14 C13 1_555 1_555
C15 C14 1_555 1_555
H15 C15 1_555 1_555
C16 N3 1_555 1_555
H16 C16B 1_555 1_555
C17 H17 1_555 1_555
C18 C17 1_555 1_555
H18 C18 1_555 1_555
O1 C19 1_555 1_555
O2 C19 1_555 1_555
C19 C20 1_555 1_555
C20 C21 1_555 1_555
C21 H19 1_555 1_555
C22 C21 1_555 1_555
H20 C22 1_555 1_555
C23 C22 1_555 1_555
H21 C23 1_555 1_555
C24 C23 1_555 1_555
H22 C24 1_555 1_555
C25 C20 1_555 1_555
H23 C25 1_555 1_555
O3 C26 1_555 1_555
O4 C26 1_555 1_555
C26 C27 1_555 1_555
C27 C28 1_555 1_555
C28 H24 1_555 1_555
C29 C28 1_555 1_555
H25 C29 1_555 1_555
C30 C29 1_555 1_555
H26 C30 1_555 1_555
C31 C30 1_555 1_555
H27 C31 1_555 1_555
C32 C27 1_555 1_555
H28 C32 1_555 1_555
O5 H29 1_555 1_555
H30 O5 1_555 1_555
O6 C33 1_555 1_555
C33 C34 1_555 1_555
O7 C35 1_555 1_555
Ni1B N2 1_555 1_555
Ni1D N1D 1_555 1_555
Ni1B_2 O1 1_555 1_555
N1D C1D 1_555 1_555
N1B Ni1B_2 1_555 1_555
C1D H1D 1_555 1_555
C2D C1D 1_555 1_555
H2D C2D 1_555 1_555
C3D C2D 1_555 1_555
C4D C3D 1_555 1_555
H3D C4D 1_555 1_555
C5D N1D 1_555 1_555
H4D C5D 1_555 1_555
C6D C6 1_555 1_555
H5D C6 1_555 1_555
H6D C6 1_555 1_555
N2B Ni1 1_555 1_555
N2_2 Ni1B_2 1_555 1_555
N3B C17 1_555 1_555
C7B N2B 1_555 1_555
H7B C7B 1_555 1_555
C8B C7B 1_555 1_555
H8B C8B 1_555 1_555
C9B C8B 1_555 1_555
C10B C9B 1_555 1_555
H9B C10B 1_555 1_555
C11B N2B 1_555 1_555
H10B C11B 1_555 1_555
C12B C9B 1_555 1_555
H11B C12B 1_555 1_555
H12B C12B 1_555 1_555
C13B C12B 1_555 1_555
H13B C13B 1_555 1_555
H14B C13B 1_555 1_555
C14B C18 1_555 1_555
C15B C14B 1_555 1_555
H15B C15B 1_555 1_555
C16B N3B 1_555 1_555
H16B C16 1_555 1_555
C17B N3 1_555 1_555
H17B C17B 1_555 1_555
C18B C14 1_555 1_555
H18B C18B 1_555 1_555
O1B Ni1 1_555 1_555
O2B C19B 1_555 1_555
C19B O1B 1_555 1_555
C20B C19B 1_555 1_555
C21B C20B 1_555 1_555
H19B C21B 1_555 1_555
C22B C21B 1_555 1_555
H20B C22B 1_555 1_555
C23B C22B 1_555 1_555
H21B C23B 1_555 1_555
C24B C23B 1_555 1_555
H22B C24B 1_555 1_555
C25B C20B 1_555 1_555
H23B C25B 1_555 1_555
O3B Ni1 1_555 1_555
O4B C26B 1_555 1_555
C26B O3B 1_555 1_555
C27B C26B 1_555 1_555
C28B C27B 1_555 1_555
H24B C28B 1_555 1_555
C29B C28B 1_555 1_555
H25B C29B 1_555 1_555
C30B C29B 1_555 1_555
H26B C30B 1_555 1_555
C31B C30B 1_555 1_555
H27B C31B 1_555 1_555
C32B C27B 1_555 1_555
H28B C32B 1_555 1_555
O5B Ni1 1_555 1_555
H29B O5B 1_555 1_555
H30B O5B 1_555 1_555
C4 C5 1_555 1_555
C10 C11 1_555 1_555
C15 C16 1_555 1_555
C24 C25 1_555 1_555
O3 Ni1B_2 1_555 1_555
C31 C32 1_555 1_555
O5 Ni1B_2 1_555 1_555
Ni1B_2 N3B 1_555 1_555
C3D C6D 1_555 1_555
C4D C5D 1_555 1_555
C10B C11B 1_555 1_555
C13B C14B 1_555 1_555
C15B C16B 1_555 1_555
C17B C18B 1_555 1_555
C24B C25B 1_555 1_555
C31B C32B 1_555 1_555

#END
