
#######################################################################
#
#                 Cambridge Crystallographic Data Centre
#                                CCDC 
#
#######################################################################
#
# If this CIF has been generated from an entry in the Cambridge 
# Structural Database, then it will include bibliographic, chemical, 
# crystal, experimental, refinement or atomic coordinate data resulting 
# from the CCDC's data processing and validation procedures.
#
#######################################################################

data_NUHMAF
_symmetry_cell_setting           trigonal
_symmetry_space_group_name_H-M   'P 32'
_symmetry_Int_Tables_number      145
_space_group_name_Hall           'P 32'
loop_
_symmetry_equiv_pos_site_id
_symmetry_equiv_pos_as_xyz
1 x,y,z
2 -y,x-y,2/3+z
3 -x+y,-x,1/3+z
_cell_length_a                   22.8304(18)
_cell_length_b                   22.8304(18)
_cell_length_c                   13.5999(15)
_cell_angle_alpha                90
_cell_angle_beta                 90
_cell_angle_gamma                120
_cell_volume                     6138.94
loop_
_atom_site_label
_atom_site_type_symbol
_atom_site_fract_x
_atom_site_fract_y
_atom_site_fract_z
Cu1 Cu 1.45129(3) 1.22618(4) 0.00554(7)
Cu2 Cu 0.78451(4) 0.89082(4) 0.01116(11)
Cu3 Cu 2.11792(4) 1.55961(4) 0.02417(5)
O1 O 1.4543(3) 1.1343(3) 0.0840(4)
O2 O 1.4519(3) 1.3186(3) -0.0742(4)
O3 O 0.7978(3) 0.8055(3) 0.0895(4)
O4 O 0.7744(3) 0.9800(3) -0.0685(4)
O5 O 2.1090(2) 1.4622(2) 0.1011(3)
O6 O 2.1311(2) 1.6588(2) -0.0561(3)
H1 H 1.441(3) 1.140(3) 0.141(2)
H2 H 1.444(3) 1.301(2) -0.1317(17)
H3 H 0.773(2) 0.801(3) 0.139(2)
H4 H 0.769(4) 0.961(4) -0.125(3)
H5 H 2.109(4) 1.475(3) 0.1607(18)
H6 H 2.119(3) 1.642(3) -0.1143(19)
C1 C 1.4438(5) 1.0694(4) 0.0705(6)
H7 H 1.4857 1.0690 0.0850
H8 H 1.4305 1.0554 0.0021
H9 H 1.4079 1.0380 0.1146
C2 C 1.4480(5) 1.3759(4) -0.0588(6)
H10 H 1.4444 1.3818 0.0118
H11 H 1.4081 1.3716 -0.0926
H12 H 1.4888 1.4151 -0.0848
C3 C 0.7813(5) 0.7391(4) 0.0744(5)
H13 H 0.7457 0.7097 0.1206
H14 H 0.8214 0.7348 0.0851
H15 H 0.7651 0.7258 0.0069
C4 C 0.7750(5) 1.0403(4) -0.0573(6)
H16 H 0.7697 1.0474 0.0124
H17 H 0.7377 1.0389 -0.0951
H18 H 0.8181 1.0775 -0.0814
C5 C 2.1106(5) 1.4033(4) 0.0902(5)
H19 H 2.0994 1.3875 0.0221
H20 H 2.0775 1.3688 0.1346
H21 H 2.1559 1.4114 0.1061
C6 C 2.1128(4) 1.7088(4) -0.0432(5)
H22 H 2.0724 1.6972 -0.0824
H23 H 2.1500 1.7527 -0.0646
H24 H 2.1031 1.7113 0.0264
O7 O 1.4516(2) 1.1816(2) -0.1187(3)
O8 O 1.4406(3) 1.2451(2) -0.2313(3)
C7 C 1.4446(3) 1.1952(4) -0.2063(5)
C8 C 1.4405(3) 1.1460(3) -0.2821(5)
C9 C 1.4465(4) 1.0906(3) -0.2552(5)
H25 H 1.4548 1.0836 -0.1889
C10 C 1.4399(4) 1.0450(4) -0.3303(6)
H26 H 1.4398 1.0047 -0.3126
C11 C 1.4340(4) 1.0555(4) -0.4213(6)
H27 H 1.4337 1.0254 -0.4698
C12 C 1.4280(4) 1.1116(4) -0.4498(6)
H28 H 1.4215 1.1183 -0.5170
C13 C 1.4316(3) 1.1561(3) -0.3803(5)
H29 H 1.4280 1.1943 -0.3991
O9 O 1.4495(2) 1.2693(2) 0.1303(3)
O10 O 1.4400(3) 1.1943(3) 0.2417(4)
C14 C 1.4445(3) 1.2483(4) 0.2165(6)
C15 C 1.4416(3) 1.2943(3) 0.2939(5)
C16 C 1.4300(3) 1.2746(3) 0.3931(4)
H30 H 1.4238 1.2317 0.4109
C17 C 1.4273(4) 1.3146(4) 0.4641(5)
H31 H 1.4183 1.2996 0.5304
C18 C 1.4381(4) 1.3792(4) 0.4377(5)
H32 H 1.4404 1.4097 0.4872
C19 C 1.4448(4) 1.3968(4) 0.3453(6)
H33 H 1.4453 1.4374 0.3285
C20 C 1.4514(4) 1.3583(4) 0.2686(5)
H34 H 1.4621 1.3750 0.2032
O11 O 0.77400(19) 0.8412(2) -0.1125(3)
O12 O 0.7774(3) 0.9137(3) -0.2274(4)
C21 C 0.7753(3) 0.8602(4) -0.1989(6)
C22 C 0.7717(3) 0.8111(3) -0.2798(5)
C23 C 0.7810(4) 0.7578(3) -0.2539(5)
H35 H 0.7899 0.7516 -0.1876
C24 C 0.7771(4) 0.7129(4) -0.3282(6)
H36 H 0.7803 0.6742 -0.3113
C25 C 0.7692(4) 0.7241(4) -0.4205(6)
H37 H 0.7697 0.6949 -0.4696
C26 C 0.7600(4) 0.7777(4) -0.4488(5)
H38 H 0.7519 0.7842 -0.5154
C27 C 0.7631(3) 0.8214(3) -0.3741(5)
H39 H 0.7590 0.8596 -0.3911
O13 O 0.79393(19) 0.9399(2) 0.1346(3)
O14 O 0.7689(2) 0.8579(3) 0.2476(4)
C28 C 0.7801(3) 0.9151(4) 0.2207(6)
C29 C 0.7769(3) 0.9615(3) 0.2983(5)
C30 C 0.7659(3) 0.9408(3) 0.3952(5)
H40 H 0.7612 0.8984 0.4132
C31 C 0.7617(4) 0.9830(4) 0.4672(5)
H41 H 0.7558 0.9704 0.5346
C32 C 0.7664(4) 1.0432(5) 0.4376(7)
H42 H 0.7609 1.0704 0.4855
C33 C 0.7784(5) 1.0653(5) 0.3422(7)
H43 H 0.7829 1.1074 0.3235
C34 C 0.7838(4) 1.0228(4) 0.2742(5)
H44 H 0.7928 1.0370 0.2076
O15 O 2.12633(19) 1.5204(2) -0.1005(3)
O16 O 2.1034(2) 1.5777(2) -0.2112(3)
C35 C 2.1139(3) 1.5322(3) -0.1865(4)
C36 C 2.1107(3) 1.4834(3) -0.2633(4)
C37 C 2.1192(3) 1.4284(3) -0.2400(4)
H45 H 2.1300 1.4231 -0.1744
C38 C 2.1123(4) 1.3813(4) -0.3110(6)
H46 H 2.1130 1.3415 -0.2927
C39 C 2.1046(4) 1.3932(4) -0.4067(5)
H47 H 2.1061 1.3648 -0.4565
C40 C 2.0945(3) 1.4465(4) -0.4324(4)
H48 H 2.0852 1.4517 -0.4989
C41 C 2.0979(3) 1.4909(3) -0.3637(4)
H49 H 2.0917 1.5275 -0.3825
O17 O 2.10839(19) 1.59981(19) 0.1465(3)
O18 O 2.1118(3) 1.5315(2) 0.2620(3)
C42 C 2.1080(3) 1.5823(3) 0.2349(4)
C43 C 2.1047(3) 1.6274(3) 0.3127(4)
C44 C 2.0963(3) 1.6088(3) 0.4099(4)
H50 H 2.0924 1.5668 0.4283
C45 C 2.0934(3) 1.6505(3) 0.4821(5)
H51 H 2.0861 1.6362 0.5488
C46 C 2.1010(4) 1.7123(4) 0.4569(5)
H52 H 2.1032 1.7427 0.5062
C47 C 2.1056(4) 1.7294(4) 0.3579(5)
H53 H 2.1056 1.7693 0.3384
C48 C 2.1103(3) 1.6876(3) 0.2877(4)
H54 H 2.1175 1.7015 0.2208
N1 N 1.3501(2) 1.1747(3) 0.0055(4)
N2 N 0.8845(2) 0.9437(3) -0.0150(4)
C49 C 1.3170(3) 1.1090(4) -0.0153(5)
H55 H 1.3422 1.0882 -0.0351
C50 C 1.2462(3) 1.0691(3) -0.0091(4)
H56 H 1.2243 1.0221 -0.0237
C51 C 1.2087(3) 1.0985(4) 0.0181(4)
C52 C 1.2447(3) 1.1669(4) 0.0382(5)
H57 H 1.2206 1.1892 0.0562
C53 C 1.3141(3) 1.2041(4) 0.0333(5)
H58 H 1.3368 1.2508 0.0496
C54 C 1.1336(4) 1.0564(4) 0.0270(5)
H59 H 1.1181 1.0730 0.0828
H60 H 1.1210 1.0090 0.0408
C55 C 1.0987(3) 1.0591(4) -0.0666(6)
H61 H 1.1129 1.1067 -0.0825
H62 H 1.1122 1.0402 -0.1220
C56 C 1.0232(3) 1.0192(3) -0.0539(5)
C57 C 0.9864(3) 0.9492(3) -0.0713(6)
H63 H 1.0077 0.9259 -0.0972
C58 C 0.9179(3) 0.9152(3) -0.0492(5)
H64 H 0.8934 0.8677 -0.0596
C59 C 0.9199(3) 1.0103(3) 0.0025(5)
H65 H 0.8969 1.0316 0.0295
C60 C 0.9885(3) 1.0498(3) -0.0170(6)
H66 H 1.0114 1.0972 -0.0052
N3 N 0.6840(2) 0.8413(3) 0.0255(3)
N4 N 0.2180(2) 0.6079(3) 0.0437(4)
C61 C 0.6462(3) 0.7749(4) 0.0009(4)
H67 H 0.6686 0.7506 -0.0149
C62 C 0.5776(3) 0.7420(4) -0.0021(4)
H68 H 0.5527 0.6953 -0.0183
C63 C 0.5440(3) 0.7773(4) 0.0187(5)
C64 C 0.5822(3) 0.8454(4) 0.0459(4)
H69 H 0.5611 0.8709 0.0625
C65 C 0.6510(3) 0.8739(4) 0.0475(4)
H70 H 0.6771 0.9202 0.0656
C66 C 0.4666(3) 0.7429(4) 0.0079(6)
H71 H 0.4535 0.7772 -0.0069
H72 H 0.4514 0.7101 -0.0471
C67 C 0.4338(3) 0.7069(3) 0.1020(4)
H73 H 0.4470 0.7398 0.1566
H74 H 0.4483 0.6739 0.1186
C68 C 0.3573(3) 0.6704(3) 0.0873(4)
C69 C 0.3218(4) 0.6053(4) 0.0505(5)
H75 H 0.3446 0.5807 0.0394
C70 C 0.2526(3) 0.5752(3) 0.0295(5)
H76 H 0.2294 0.5303 0.0045
C71 C 0.2520(4) 0.6698(3) 0.0807(6)
H77 H 0.2277 0.6927 0.0941
C72 C 0.3201(3) 0.7031(3) 0.1010(6)
H78 H 0.3418 0.7484 0.1244
N5 N 2.0172(2) 1.5100(3) 0.0090(4)
N6 N 1.55072(19) 1.2748(3) 0.0102(7)
C73 C 1.5868(3) 1.2421(3) -0.0104(8)
H79 H 1.5640 1.1970 -0.0346
C74 C 1.6564(3) 1.2754(4) 0.0042(14)
H80 H 1.6811 1.2531 -0.0099
C75 C 1.6898(2) 1.3414(5) 0.0395(17)
C76 C 1.6537(3) 1.3741(3) 0.0601(14)
H81 H 1.6766 1.4192 0.0842
C77 C 1.5842(3) 1.3408(3) 0.0455(8)
H82 H 1.5595 1.3632 0.0596
C78 C 1.7624(4) 1.3718(5) 0.0795(9)
H83 H 1.7723 1.4060 0.1313
H84 H 1.7718 1.3366 0.1046
C79 C 1.7992(3) 1.4026(5) -0.0125(7)
H85 H 1.7864 1.4357 -0.0362
H86 H 1.7852 1.3670 -0.0631
C80 C 1.8765(3) 1.4386(4) 0.0000(5)
C81 C 1.9139(3) 1.4077(4) -0.0208(5)
H87 H 1.8920 1.3611 -0.0377
C82 C 1.9824(3) 1.4446(4) -0.0169(5)
H88 H 2.0072 1.4228 -0.0335
C83 C 1.9799(3) 1.5391(3) 0.0312(4)
H89 H 2.0032 1.5848 0.0527
C84 C 1.9111(3) 1.5075(4) 0.0248(4)
H90 H 1.8875 1.5312 0.0367
Cu3_2 Cu 0.11792(4) 0.55961(4) 0.02417(5)
N4_2 N 2.2180(2) 1.6079(3) 0.0437(4)
loop_
_geom_bond_atom_site_label_1
_geom_bond_atom_site_label_2
_geom_bond_site_symmetry_1
_geom_bond_site_symmetry_2
Cu1 O1 1_555 1_555
Cu2 O3 1_555 1_555
Cu3 O5 1_555 1_555
O1 H1 1_555 1_555
O2 Cu1 1_555 1_555
O3 H3 1_555 1_555
O4 Cu2 1_555 1_555
O5 H5 1_555 1_555
O6 Cu3 1_555 1_555
H2 O2 1_555 1_555
H4 O4 1_555 1_555
H6 O6 1_555 1_555
C1 O1 1_555 1_555
H7 C1 1_555 1_555
H8 C1 1_555 1_555
H9 C1 1_555 1_555
C2 O2 1_555 1_555
H10 C2 1_555 1_555
H11 C2 1_555 1_555
H12 C2 1_555 1_555
C3 O3 1_555 1_555
H13 C3 1_555 1_555
H14 C3 1_555 1_555
H15 C3 1_555 1_555
C4 O4 1_555 1_555
H16 C4 1_555 1_555
H17 C4 1_555 1_555
H18 C4 1_555 1_555
C5 O5 1_555 1_555
H19 C5 1_555 1_555
H20 C5 1_555 1_555
H21 C5 1_555 1_555
C6 O6 1_555 1_555
H22 C6 1_555 1_555
H23 C6 1_555 1_555
H24 C6 1_555 1_555
O7 Cu1 1_555 1_555
O8 C7 1_555 1_555
C7 O7 1_555 1_555
C8 C7 1_555 1_555
C9 C8 1_555 1_555
H25 C9 1_555 1_555
C10 C9 1_555 1_555
H26 C10 1_555 1_555
C11 C10 1_555 1_555
H27 C11 1_555 1_555
C12 C11 1_555 1_555
H28 C12 1_555 1_555
C13 C8 1_555 1_555
H29 C13 1_555 1_555
O9 Cu1 1_555 1_555
O10 C14 1_555 1_555
C14 O9 1_555 1_555
C15 C14 1_555 1_555
C16 C15 1_555 1_555
H30 C16 1_555 1_555
C17 C16 1_555 1_555
H31 C17 1_555 1_555
C18 C17 1_555 1_555
H32 C18 1_555 1_555
C19 C18 1_555 1_555
H33 C19 1_555 1_555
C20 C15 1_555 1_555
H34 C20 1_555 1_555
O11 Cu2 1_555 1_555
O12 C21 1_555 1_555
C21 O11 1_555 1_555
C22 C21 1_555 1_555
C23 C22 1_555 1_555
H35 C23 1_555 1_555
C24 C23 1_555 1_555
H36 C24 1_555 1_555
C25 C24 1_555 1_555
H37 C25 1_555 1_555
C26 C25 1_555 1_555
H38 C26 1_555 1_555
C27 C22 1_555 1_555
H39 C27 1_555 1_555
O13 Cu2 1_555 1_555
O14 C28 1_555 1_555
C28 O13 1_555 1_555
C29 C28 1_555 1_555
C30 C29 1_555 1_555
H40 C30 1_555 1_555
C31 C30 1_555 1_555
H41 C31 1_555 1_555
C32 C31 1_555 1_555
H42 C32 1_555 1_555
C33 C32 1_555 1_555
H43 C33 1_555 1_555
C34 C29 1_555 1_555
H44 C34 1_555 1_555
O15 Cu3 1_555 1_555
O16 C35 1_555 1_555
C35 O15 1_555 1_555
C36 C35 1_555 1_555
C37 C36 1_555 1_555
H45 C37 1_555 1_555
C38 C37 1_555 1_555
H46 C38 1_555 1_555
C39 C38 1_555 1_555
H47 C39 1_555 1_555
C40 C39 1_555 1_555
H48 C40 1_555 1_555
C41 C36 1_555 1_555
H49 C41 1_555 1_555
O17 Cu3 1_555 1_555
O18 C42 1_555 1_555
C42 O17 1_555 1_555
C43 C42 1_555 1_555
C44 C43 1_555 1_555
H50 C44 1_555 1_555
C45 C44 1_555 1_555
H51 C45 1_555 1_555
C46 C45 1_555 1_555
H52 C46 1_555 1_555
C47 C46 1_555 1_555
H53 C47 1_555 1_555
C48 C43 1_555 1_555
H54 C48 1_555 1_555
N1 Cu1 1_555 1_555
N2 Cu2 1_555 1_555
C49 N1 1_555 1_555
H55 C49 1_555 1_555
C50 C49 1_555 1_555
H56 C50 1_555 1_555
C51 C50 1_555 1_555
C52 C51 1_555 1_555
H57 C52 1_555 1_555
C53 N1 1_555 1_555
H58 C53 1_555 1_555
C54 C51 1_555 1_555
H59 C54 1_555 1_555
H60 C54 1_555 1_555
C55 C54 1_555 1_555
H61 C55 1_555 1_555
H62 C55 1_555 1_555
C56 C55 1_555 1_555
C57 C56 1_555 1_555
H63 C57 1_555 1_555
C58 N2 1_555 1_555
H64 C58 1_555 1_555
C59 N2 1_555 1_555
H65 C59 1_555 1_555
C60 C56 1_555 1_555
H66 C60 1_555 1_555
N3 Cu2 1_555 1_555
N4 C70 1_555 1_555
C61 N3 1_555 1_555
H67 C61 1_555 1_555
C62 C61 1_555 1_555
H68 C62 1_555 1_555
C63 C62 1_555 1_555
C64 C63 1_555 1_555
H69 C64 1_555 1_555
C65 N3 1_555 1_555
H70 C65 1_555 1_555
C66 C63 1_555 1_555
H71 C66 1_555 1_555
H72 C66 1_555 1_555
C67 C66 1_555 1_555
H73 C67 1_555 1_555
H74 C67 1_555 1_555
C68 C67 1_555 1_555
C69 C68 1_555 1_555
H75 C69 1_555 1_555
C70 C69 1_555 1_555
H76 C70 1_555 1_555
C71 N4 1_555 1_555
H77 C71 1_555 1_555
C72 C68 1_555 1_555
H78 C72 1_555 1_555
N5 Cu3 1_555 1_555
N6 Cu1 1_555 1_555
C73 N6 1_555 1_555
H79 C73 1_555 1_555
C74 C73 1_555 1_555
H80 C74 1_555 1_555
C75 C74 1_555 1_555
C76 C75 1_555 1_555
H81 C76 1_555 1_555
C77 N6 1_555 1_555
H82 C77 1_555 1_555
C78 C75 1_555 1_555
H83 C78 1_555 1_555
H84 C78 1_555 1_555
C79 C78 1_555 1_555
H85 C79 1_555 1_555
H86 C79 1_555 1_555
C80 C79 1_555 1_555
C81 C80 1_555 1_555
H87 C81 1_555 1_555
C82 N5 1_555 1_555
H88 C82 1_555 1_555
C83 N5 1_555 1_555
H89 C83 1_555 1_555
C84 C80 1_555 1_555
H90 C84 1_555 1_555
Cu3_2 N4 1_555 1_555
N4_2 Cu3 1_555 1_555
C12 C13 1_555 1_555
C19 C20 1_555 1_555
C26 C27 1_555 1_555
C33 C34 1_555 1_555
C40 C41 1_555 1_555
C47 C48 1_555 1_555
C52 C53 1_555 1_555
C57 C58 1_555 1_555
C59 C60 1_555 1_555
C64 C65 1_555 1_555
C71 C72 1_555 1_555
C76 C77 1_555 1_555
C81 C82 1_555 1_555
C83 C84 1_555 1_555

#END
