
#######################################################################
#
#                 Cambridge Crystallographic Data Centre
#                                CCDC 
#
#######################################################################
#
# If this CIF has been generated from an entry in the Cambridge 
# Structural Database, then it will include bibliographic, chemical, 
# crystal, experimental, refinement or atomic coordinate data resulting 
# from the CCDC's data processing and validation procedures.
#
#######################################################################

data_NUHNIO
_symmetry_cell_setting           triclinic
_symmetry_space_group_name_H-M   'P -1'
_symmetry_Int_Tables_number      2
_space_group_name_Hall           '-P 1'
loop_
_symmetry_equiv_pos_site_id
_symmetry_equiv_pos_as_xyz
1 x,y,z
2 -x,-y,-z
_cell_length_a                   9.146(2)
_cell_length_b                   11.739(3)
_cell_length_c                   12.276(3)
_cell_angle_alpha                62.243(3)
_cell_angle_beta                 81.846(4)
_cell_angle_gamma                75.240(3)
_cell_volume                     1127.45
loop_
_atom_site_label
_atom_site_type_symbol
_atom_site_fract_x
_atom_site_fract_y
_atom_site_fract_z
Co1 Co 0.0000 -0.5000 0.0000
O1 O 0.1360(3) -0.6698(2) 0.1250(2)
H1 H 0.122(5) -0.752(2) 0.174(3)
H2 H 0.230(3) -0.679(4) 0.140(4)
O7 O -0.1768(3) -0.5153(2) 0.1346(2)
H5 H -0.100(3) -0.512(4) 0.163(4)
H6 H -0.224(4) -0.579(3) 0.174(4)
N1 N 0.0904(3) -0.3750(2) 0.0449(2)
N2 N 0.4111(3) -0.0969(3) 0.0782(2)
C1 C 0.2379(4) -0.3969(3) 0.0610(3)
H9 H 0.3018 -0.4669 0.0506
C2 C 0.3011(4) -0.3211(3) 0.0924(4)
H10 H 0.4048 -0.3405 0.1030
C3 C 0.2082(3) -0.2162(3) 0.1078(3)
C4 C 0.0551(4) -0.1936(3) 0.0916(3)
H11 H -0.0113 -0.1242 0.1013
C5 C 0.0008(3) -0.2743(3) 0.0609(3)
H12 H -0.1026 -0.2578 0.0510
C6 C 0.2689(4) -0.1289(4) 0.1421(3)
H13 H 0.1939 -0.0476 0.1234
H14 H 0.2840 -0.1728 0.2302
C7 C 0.4603(4) -0.0131(3) 0.1201(3)
H15 H 0.4735 -0.0599 0.2085
H16 H 0.3830 0.0667 0.1024
C8 C 0.3929(3) -0.0224(3) -0.0561(3)
H17 H 0.3153 0.0574 -0.0748
H18 H 0.3607 -0.0752 -0.0860
Co1_2 Co 1.0000 0.5000 0.0000
O1A O -0.1360(3) -0.3302(2) -0.1250(2)
H1A H -0.122(5) -0.248(2) -0.174(3)
H2A H -0.230(3) -0.321(4) -0.140(4)
O7A O 0.1768(3) -0.4847(2) -0.1346(2)
H5A H 0.100(3) -0.488(4) -0.163(4)
H6A H 0.224(4) -0.421(3) -0.174(4)
N1A N 0.9096(3) 0.3750(2) -0.0449(2)
N1A_2 N -0.0904(3) -0.6250(2) -0.0449(2)
N2A N 0.5889(3) 0.0969(3) -0.0782(2)
C1A C 0.7621(4) 0.3969(3) -0.0610(3)
H9A H 0.6982 0.4669 -0.0506
C2A C 0.6989(4) 0.3211(3) -0.0924(4)
H10A H 0.5952 0.3405 -0.1030
C3A C 0.7918(3) 0.2162(3) -0.1078(3)
C4A C 0.9449(4) 0.1936(3) -0.0916(3)
H11A H 1.0113 0.1242 -0.1013
C5A C 0.9992(3) 0.2743(3) -0.0609(3)
H12A H 1.1026 0.2578 -0.0510
C6A C 0.7311(4) 0.1289(4) -0.1421(3)
H13A H 0.8061 0.0476 -0.1234
H14A H 0.7160 0.1728 -0.2302
C7A C 0.5397(4) 0.0131(3) -0.1201(3)
H15A H 0.5265 0.0599 -0.2085
H16A H 0.6170 -0.0667 -0.1024
C8A C 0.6071(3) 0.0224(3) 0.0561(3)
H17A H 0.6847 -0.0574 0.0748
H18A H 0.6393 0.0752 0.0860
Cl1 Cl -0.48823(12) -0.75043(13) 0.26831(15)
O3 O -0.3686(8) -0.6983(8) 0.2514(7)
O4 O -0.5446(7) -0.7070(8) 0.1405(8)
O5 O -0.4432(10) -0.8847(6) 0.3080(9)
O6 O -0.6225(8) -0.7139(10) 0.3141(10)
O2 O -0.3494(4) -0.3256(3) 0.1880(4)
H3 H -0.425(4) -0.255(4) 0.158(4)
H4 H -0.321(6) -0.322(5) 0.252(3)
O8 O -0.3188(6) -0.2726(5) 0.3803(5)
H7 H -0.407(5) -0.283(8) 0.427(6)
H8 H -0.243(5) -0.331(6) 0.427(6)
N3 N 0.0710(4) 0.0909(3) 0.2778(3)
N4 N -0.0366(3) -0.3738(2) 0.5032(2)
C9 C 0.1687(5) 0.0076(4) 0.3670(4)
H19 H 0.2550 0.0337 0.3706
C10 C 0.1476(5) -0.1160(3) 0.4544(3)
H20 H 0.2193 -0.1712 0.5142
C11 C 0.0193(4) -0.1564(3) 0.4521(3)
C12 C -0.0817(5) -0.0712(4) 0.3605(3)
H21 H -0.1689 -0.0950 0.3551
C13 C -0.0524(5) 0.0508(3) 0.2762(3)
H22 H -0.1224 0.1075 0.2154
C14 C -0.0115(6) -0.2868(3) 0.5510(3)
H23 H 0.0735 -0.3322 0.6054
H24 H -0.1000 -0.2698 0.5995
C15 C -0.0710(5) -0.4948(3) 0.6081(3)
H25 H -0.1607 -0.4719 0.6525
H26 H 0.0125 -0.5379 0.6641
C16 C 0.0968(4) -0.4113(4) 0.4370(3)
H27 H 0.1825 -0.4535 0.4910
H28 H 0.1204 -0.3330 0.3672
N3A N -0.0710(4) -1.0909(3) 0.7222(3)
N4A N 0.0366(3) -0.6262(2) 0.4968(2)
C9A C -0.1687(5) -1.0076(4) 0.6330(4)
H19A H -0.2550 -1.0337 0.6294
C10A C -0.1476(5) -0.8840(3) 0.5456(3)
H20A H -0.2193 -0.8288 0.4858
C11A C -0.0193(4) -0.8436(3) 0.5479(3)
C12A C 0.0817(5) -0.9288(4) 0.6395(3)
H21A H 0.1689 -0.9050 0.6449
C13A C 0.0524(5) -1.0508(3) 0.7238(3)
H22A H 0.1224 -1.1075 0.7846
C14A C 0.0115(6) -0.7132(3) 0.4490(3)
H23A H -0.0735 -0.6678 0.3946
H24A H 0.1000 -0.7302 0.4005
C15A C 0.0710(5) -0.5052(3) 0.3919(3)
H25A H 0.1607 -0.5281 0.3475
H26A H -0.0125 -0.4621 0.3359
C16A C -0.0968(4) -0.5887(4) 0.5630(3)
H27A H -0.1825 -0.5465 0.5090
H28A H -0.1204 -0.6670 0.6328
loop_
_geom_bond_atom_site_label_1
_geom_bond_atom_site_label_2
_geom_bond_site_symmetry_1
_geom_bond_site_symmetry_2
Co1 O1 1_555 1_555
Cl1 O3 1_555 1_555
O1 H1 1_555 1_555
H2 O1 1_555 1_555
O2 H3 1_555 1_555
H4 O2 1_555 1_555
O4 Cl1 1_555 1_555
O5 Cl1 1_555 1_555
O6 Cl1 1_555 1_555
O7 Co1 1_555 1_555
H5 O7 1_555 1_555
H6 O7 1_555 1_555
O8 H7 1_555 1_555
H8 O8 1_555 1_555
N1 Co1 1_555 1_555
N2 C6 1_555 1_555
N3 C9 1_555 1_555
N4 C14 1_555 1_555
C1 N1 1_555 1_555
H9 C1 1_555 1_555
C2 C1 1_555 1_555
H10 C2 1_555 1_555
C3 C2 1_555 1_555
C4 C3 1_555 1_555
H11 C4 1_555 1_555
C5 N1 1_555 1_555
H12 C5 1_555 1_555
C6 C3 1_555 1_555
H13 C6 1_555 1_555
H14 C6 1_555 1_555
C7 N2 1_555 1_555
H15 C7 1_555 1_555
H16 C7 1_555 1_555
C8 N2 1_555 1_555
H17 C8 1_555 1_555
H18 C8 1_555 1_555
C9 H19 1_555 1_555
C10 C9 1_555 1_555
H20 C10 1_555 1_555
C11 C10 1_555 1_555
C12 C11 1_555 1_555
H21 C12 1_555 1_555
C13 N3 1_555 1_555
H22 C13 1_555 1_555
C14 C11 1_555 1_555
H23 C14 1_555 1_555
H24 C14 1_555 1_555
C15 N4 1_555 1_555
H25 C15 1_555 1_555
H26 C15 1_555 1_555
C16 N4 1_555 1_555
H27 C16 1_555 1_555
H28 C16 1_555 1_555
Co1_2 N1A 1_555 1_555
O1A Co1 1_555 1_555
H1A O1A 1_555 1_555
H2A O1A 1_555 1_555
O7A Co1 1_555 1_555
H5A O7A 1_555 1_555
H6A O7A 1_555 1_555
N1A C1A 1_555 1_555
N1A_2 Co1 1_555 1_555
N2A C6A 1_555 1_555
N3A C9A 1_555 1_555
N4A C14A 1_555 1_555
C1A H9A 1_555 1_555
C2A C1A 1_555 1_555
H10A C2A 1_555 1_555
C3A C2A 1_555 1_555
C4A C3A 1_555 1_555
H11A C4A 1_555 1_555
C5A N1A 1_555 1_555
H12A C5A 1_555 1_555
C6A C3A 1_555 1_555
H13A C6A 1_555 1_555
H14A C6A 1_555 1_555
C7A C8 1_555 1_555
H15A C7A 1_555 1_555
H16A C7A 1_555 1_555
C8A C7 1_555 1_555
H17A C8A 1_555 1_555
H18A C8A 1_555 1_555
C9A H19A 1_555 1_555
C10A C9A 1_555 1_555
H20A C10A 1_555 1_555
C11A C10A 1_555 1_555
C12A C11A 1_555 1_555
H21A C12A 1_555 1_555
C13A N3A 1_555 1_555
H22A C13A 1_555 1_555
C14A C11A 1_555 1_555
H23A C14A 1_555 1_555
H24A C14A 1_555 1_555
C15A C16 1_555 1_555
H25A C15A 1_555 1_555
H26A C15A 1_555 1_555
C16A C15 1_555 1_555
H27A C16A 1_555 1_555
H28A C16A 1_555 1_555
C4 C5 1_555 1_555
C12 C13 1_555 1_555
N2A C7A 1_555 1_555
N2A C8A 1_555 1_555
N4A C15A 1_555 1_555
N4A C16A 1_555 1_555
C4A C5A 1_555 1_555
C12A C13A 1_555 1_555

#END
