
#######################################################################
#
#                 Cambridge Crystallographic Data Centre
#                                CCDC 
#
#######################################################################
#
# If this CIF has been generated from an entry in the Cambridge 
# Structural Database, then it will include bibliographic, chemical, 
# crystal, experimental, refinement or atomic coordinate data resulting 
# from the CCDC's data processing and validation procedures.
#
#######################################################################

data_NUHNOU
_symmetry_cell_setting           triclinic
_symmetry_space_group_name_H-M   'P -1'
_symmetry_Int_Tables_number      2
_space_group_name_Hall           '-P 1'
loop_
_symmetry_equiv_pos_site_id
_symmetry_equiv_pos_as_xyz
1 x,y,z
2 -x,-y,-z
_cell_length_a                   9.1948(11)
_cell_length_b                   11.6951(14)
_cell_length_c                   12.0922(15)
_cell_angle_alpha                62.6900(10)
_cell_angle_beta                 81.9770(10)
_cell_angle_gamma                75.4880(10)
_cell_volume                     1118.07
loop_
_atom_site_label
_atom_site_type_symbol
_atom_site_fract_x
_atom_site_fract_y
_atom_site_fract_z
Zn1 Zn 0.5000 0.0000 0.0000
O9 O 0.3241(2) -0.0144(2) 0.1388(2)
H7 H 0.272(4) -0.075(3) 0.170(3)
H8 H 0.274(4) 0.050(3) 0.155(4)
O10 O 0.6376(2) -0.1695(2) 0.1270(2)
H9 H 0.610(4) -0.244(3) 0.177(3)
H10 H 0.731(2) -0.181(4) 0.138(4)
N1 N 0.5889(3) 0.1242(2) 0.0459(2)
N2 N 0.9102(2) 0.4045(2) 0.0779(2)
C1 C 0.7362(3) 0.1032(3) 0.0612(3)
H11 H 0.8011 0.0316 0.0503
C2 C 0.7990(3) 0.1804(3) 0.0921(3)
H12 H 0.9043 0.1610 0.1027
C3 C 0.7070(3) 0.2860(3) 0.1074(2)
C4 C 0.5541(3) 0.3072(3) 0.0927(3)
H13 H 0.4869 0.3780 0.1034
C5 C 0.4992(3) 0.2256(3) 0.0627(3)
H14 H 0.3941 0.2416 0.0534
C6 C 0.7676(3) 0.3738(3) 0.1419(3)
H15 H 0.6922 0.4572 0.1218
H16 H 0.7819 0.3301 0.2329
C7 C 0.9602(3) 0.4868(3) 0.1219(2)
H17 H 0.9733 0.4384 0.2130
H18 H 0.8824 0.5683 0.1045
C8 C 0.8926(3) 0.4776(3) -0.0575(2)
H19 H 0.8139 0.5589 -0.0771
H20 H 0.8604 0.4231 -0.0886
Zn1_2 Zn 1.5000 1.0000 0.0000
O9A O 0.6759(2) 0.0144(2) -0.1388(2)
H7A H 0.728(4) 0.075(3) -0.170(3)
H8A H 0.726(4) -0.050(3) -0.155(4)
O10A O 0.3624(2) 0.1695(2) -0.1270(2)
H9A H 0.390(4) 0.244(3) -0.177(3)
H10A H 0.269(2) 0.181(4) -0.138(4)
N1A N 1.4111(3) 0.8758(2) -0.0459(2)
N1A_2 N 0.4111(3) -0.1242(2) -0.0459(2)
N2A N 1.0898(2) 0.5955(2) -0.0779(2)
C1A C 1.2638(3) 0.8968(3) -0.0612(3)
H11A H 1.1989 0.9684 -0.0503
C2A C 1.2010(3) 0.8196(3) -0.0921(3)
H12A H 1.0957 0.8390 -0.1027
C3A C 1.2930(3) 0.7140(3) -0.1074(2)
C4A C 1.4459(3) 0.6928(3) -0.0927(3)
H13A H 1.5131 0.6220 -0.1034
C5A C 1.5008(3) 0.7744(3) -0.0627(3)
H14A H 1.6059 0.7584 -0.0534
C6A C 1.2324(3) 0.6262(3) -0.1419(3)
H15A H 1.3078 0.5428 -0.1218
H16A H 1.2181 0.6699 -0.2329
C7A C 1.0398(3) 0.5132(3) -0.1219(2)
H17A H 1.0267 0.5616 -0.2130
H18A H 1.1176 0.4317 -0.1045
C8A C 1.1074(3) 0.5224(3) 0.0575(2)
H19A H 1.1861 0.4411 0.0771
H20A H 1.1396 0.5769 0.0886
Cl1 Cl 0.01022(9) -0.24239(11) 0.25189(11)
O1 O -0.0450(4) -0.2037(3) 0.1296(3)
O3 O -0.1101(5) -0.2238(6) 0.3279(5)
O6 O 0.1253(9) -0.1882(9) 0.2455(6)
O8 O 0.0613(8) -0.3835(5) 0.3046(6)
O2 O -0.1892(4) -0.2311(3) 0.6243(3)
H1 H -0.1430 -0.2943 0.6076
H2 H -0.274(4) -0.191(5) 0.586(5)
O4 O -0.1458(3) -0.1757(3) 0.8122(3)
H3 H -0.075(4) -0.245(3) 0.852(4)
H4 H -0.169(5) -0.187(4) 0.751(3)
O5 O 0.0262(10) -0.0834(14) 0.4522(12)
H5 H 0.0057 -0.0233 0.4782
H6 H 0.028(4) -0.162(2) 0.508(3)
O7 O 0.0435(15) -0.5731(12) 0.4281(12)
N3 N -0.5751(3) -0.5908(2) 0.7206(2)
N4 N -0.4649(3) -0.1267(2) 0.4974(2)
C9 C -0.4524(4) -0.5510(3) 0.7247(3)
H21 H -0.3829 -0.6090 0.7885
C10 C -0.4213(4) -0.4295(3) 0.6408(3)
H22 H -0.3326 -0.4056 0.6473
C11 C -0.5222(4) -0.3433(3) 0.5471(3)
C12 C -0.6498(4) -0.3837(3) 0.5432(3)
H23 H -0.7222 -0.3273 0.4814
C13 C -0.6711(4) -0.5076(3) 0.6305(3)
H24 H -0.7585 -0.5344 0.6257
C14 C -0.4901(4) -0.2133(3) 0.4475(3)
H25 H -0.4001 -0.2310 0.3977
H26 H -0.5759 -0.1668 0.3909
C15 C -0.4241(4) -0.0082(3) 0.3929(3)
H27 H -0.5056 0.0369 0.3320
H28 H -0.3313 -0.0342 0.3501
C16 C -0.6008(3) -0.0855(3) 0.5601(3)
H29 H -0.6291 -0.1639 0.6310
H30 H -0.6845 -0.0413 0.5014
N3A N -0.4249(3) 0.5908(2) 0.2794(2)
N4A N -0.5351(3) 0.1267(2) 0.5026(2)
C9A C -0.5476(4) 0.5510(3) 0.2753(3)
H21A H -0.6171 0.6090 0.2115
C10A C -0.5787(4) 0.4295(3) 0.3592(3)
H22A H -0.6674 0.4056 0.3527
C11A C -0.4778(4) 0.3433(3) 0.4529(3)
C12A C -0.3502(4) 0.3837(3) 0.4568(3)
H23A H -0.2778 0.3273 0.5186
C13A C -0.3289(4) 0.5076(3) 0.3695(3)
H24A H -0.2415 0.5344 0.3743
C14A C -0.5099(4) 0.2133(3) 0.5525(3)
H25A H -0.5999 0.2310 0.6023
H26A H -0.4241 0.1668 0.6091
C15A C -0.5759(4) 0.0082(3) 0.6071(3)
H27A H -0.4944 -0.0369 0.6680
H28A H -0.6687 0.0342 0.6499
C16A C -0.3992(3) 0.0855(3) 0.4399(3)
H29A H -0.3709 0.1639 0.3690
H30A H -0.3155 0.0413 0.4986
loop_
_geom_bond_atom_site_label_1
_geom_bond_atom_site_label_2
_geom_bond_site_symmetry_1
_geom_bond_site_symmetry_2
Zn1 O9 1_555 1_555
Cl1 O1 1_555 1_555
O2 H1 1_555 1_555
H2 O2 1_555 1_555
O3 Cl1 1_555 1_555
O4 H3 1_555 1_555
H4 O4 1_555 1_555
O5 H5 1_555 1_555
H6 O5 1_555 1_555
O6 Cl1 1_555 1_555
O8 Cl1 1_555 1_555
O9 H7 1_555 1_555
H8 O9 1_555 1_555
O10 Zn1 1_555 1_555
H9 O10 1_555 1_555
H10 O10 1_555 1_555
N1 Zn1 1_555 1_555
N2 C6 1_555 1_555
N3 C9 1_555 1_555
N4 C14 1_555 1_555
C1 N1 1_555 1_555
H11 C1 1_555 1_555
C2 C1 1_555 1_555
H12 C2 1_555 1_555
C3 C2 1_555 1_555
C4 C3 1_555 1_555
H13 C4 1_555 1_555
C5 N1 1_555 1_555
H14 C5 1_555 1_555
C6 C3 1_555 1_555
H15 C6 1_555 1_555
H16 C6 1_555 1_555
C7 N2 1_555 1_555
H17 C7 1_555 1_555
H18 C7 1_555 1_555
C8 N2 1_555 1_555
H19 C8 1_555 1_555
H20 C8 1_555 1_555
C9 H21 1_555 1_555
C10 C9 1_555 1_555
H22 C10 1_555 1_555
C11 C10 1_555 1_555
C12 C11 1_555 1_555
H23 C12 1_555 1_555
C13 N3 1_555 1_555
H24 C13 1_555 1_555
C14 C11 1_555 1_555
H25 C14 1_555 1_555
H26 C14 1_555 1_555
C15 N4 1_555 1_555
H27 C15 1_555 1_555
H28 C15 1_555 1_555
C16 N4 1_555 1_555
H29 C16 1_555 1_555
H30 C16 1_555 1_555
Zn1_2 N1A 1_555 1_555
O9A Zn1 1_555 1_555
H7A O9A 1_555 1_555
H8A O9A 1_555 1_555
O10A Zn1 1_555 1_555
H9A O10A 1_555 1_555
H10A O10A 1_555 1_555
N1A C1A 1_555 1_555
N1A_2 Zn1 1_555 1_555
N2A C6A 1_555 1_555
N3A C9A 1_555 1_555
N4A C14A 1_555 1_555
C1A H11A 1_555 1_555
C2A C1A 1_555 1_555
H12A C2A 1_555 1_555
C3A C2A 1_555 1_555
C4A C3A 1_555 1_555
H13A C4A 1_555 1_555
C5A N1A 1_555 1_555
H14A C5A 1_555 1_555
C6A C3A 1_555 1_555
H15A C6A 1_555 1_555
H16A C6A 1_555 1_555
C7A C8 1_555 1_555
H17A C7A 1_555 1_555
H18A C7A 1_555 1_555
C8A C7 1_555 1_555
H19A C8A 1_555 1_555
H20A C8A 1_555 1_555
C9A H21A 1_555 1_555
C10A C9A 1_555 1_555
H22A C10A 1_555 1_555
C11A C10A 1_555 1_555
C12A C11A 1_555 1_555
H23A C12A 1_555 1_555
C13A N3A 1_555 1_555
H24A C13A 1_555 1_555
C14A C11A 1_555 1_555
H25A C14A 1_555 1_555
H26A C14A 1_555 1_555
C15A C16 1_555 1_555
H27A C15A 1_555 1_555
H28A C15A 1_555 1_555
C16A C15 1_555 1_555
H29A C16A 1_555 1_555
H30A C16A 1_555 1_555
C4 C5 1_555 1_555
C12 C13 1_555 1_555
N2A C7A 1_555 1_555
N2A C8A 1_555 1_555
N4A C15A 1_555 1_555
N4A C16A 1_555 1_555
C4A C5A 1_555 1_555
C12A C13A 1_555 1_555

#END
