
#######################################################################
#
#                 Cambridge Crystallographic Data Centre
#                                CCDC 
#
#######################################################################
#
# If this CIF has been generated from an entry in the Cambridge 
# Structural Database, then it will include bibliographic, chemical, 
# crystal, experimental, refinement or atomic coordinate data resulting 
# from the CCDC's data processing and validation procedures.
#
#######################################################################

data_NUHQUD
_symmetry_cell_setting           monoclinic
_symmetry_space_group_name_H-M   'P 21/c'
_symmetry_Int_Tables_number      14
_space_group_name_Hall           '-P 2ybc'
loop_
_symmetry_equiv_pos_site_id
_symmetry_equiv_pos_as_xyz
1 x,y,z
2 -x,1/2+y,1/2-z
3 -x,-y,-z
4 x,1/2-y,1/2+z
_cell_length_a                   12.698(3)
_cell_length_b                   11.314(2)
_cell_length_c                   18.732(4)
_cell_angle_alpha                90
_cell_angle_beta                 105.55(3)
_cell_angle_gamma                90
_cell_volume                     2592.63
loop_
_atom_site_label
_atom_site_type_symbol
_atom_site_fract_x
_atom_site_fract_y
_atom_site_fract_z
C1 C 0.2043(14) 0.8043(17) 0.2994(9)
C2 C 0.1815(16) 0.7084(19) 0.3401(10)
H1 H 0.2351 0.6818 0.3811
C3 C 0.0807(18) 0.6523(19) 0.3204(12)
H2 H 0.0661 0.5902 0.3489
C4 C 0.0008(18) 0.690(2) 0.2572(11)
H3 H -0.0680 0.6554 0.2440
C5 C 0.0263(14) 0.7805(16) 0.2149(8)
H4 H -0.0252 0.8040 0.1719
C6 C 0.1251(12) 0.8357(14) 0.2349(8)
C7 C 0.2699(11) 0.8866(13) 0.1515(8)
H5 H 0.3001 0.9455 0.1249
H6 H 0.3264 0.8659 0.1959
C8 C 0.2412(11) 0.7783(12) 0.1036(8)
C9 C 0.1213(11) 0.6792(11) 0.0063(7)
C10 C 0.0203(14) 0.6691(17) -0.0456(9)
H7 H -0.0334 0.7261 -0.0483
C11 C 0.0010(16) 0.573(2) -0.0931(11)
H8 H -0.0649 0.5677 -0.1296
C12 C 0.0776(16) 0.486(2) -0.0869(12)
H9 H 0.0601 0.4187 -0.1163
C13 C 0.1784(14) 0.4947(16) -0.0389(10)
H10 H 0.2310 0.4375 -0.0388
C14 C 0.2033(12) 0.5901(13) 0.0105(8)
C15 C 0.3182(12) 0.6854(14) 0.1092(7)
C16 C 0.4274(13) 0.6901(13) 0.1686(8)
H11 H 0.4136 0.7131 0.2152
H12 H 0.4723 0.7512 0.1553
C17 C 0.4253(15) 0.4671(17) 0.2308(9)
C18 C 0.4306(17) 0.4997(18) 0.3044(9)
C19 C 0.360(2) 0.429(2) 0.3361(13)
H13 H 0.3594 0.4453 0.3846
C20 C 0.2966(19) 0.343(2) 0.3027(14)
H14 H 0.2543 0.3010 0.3276
C21 C 0.2927(18) 0.314(2) 0.2287(14)
H15 H 0.2478 0.2533 0.2045
C22 C 0.3561(14) 0.3769(16) 0.1928(10)
H16 H 0.3533 0.3599 0.1437
Cu1 Cu 0.04964(16) 0.92325(18) 0.04773(12)
Cu2 Cu 0.44654(17) 0.50939(18) 0.05326(11)
I1 I -0.15937(8) 0.91543(11) 0.01137(6)
I2 I 0.46279(9) 0.30569(9) 0.00057(6)
N1 N 0.1478(10) 0.7747(10) 0.0550(7)
N2 N 0.3032(10) 0.5968(12) 0.0625(7)
N3 N 0.3051(12) 0.8621(16) 0.3234(8)
H17 H 0.3204 0.9198 0.2980
H18 H 0.3517 0.8400 0.3635
N4 N 0.5022(18) 0.5850(18) 0.3410(10)
H19 H 0.5451 0.6197 0.3191
H20 H 0.5041 0.6035 0.3859
S1 S 0.1557(3) 0.9515(3) 0.1785(2)
S2 S 0.5041(3) 0.5531(4) 0.1829(2)
Cu1B Cu -0.04964(16) 1.07675(18) -0.04773(12)
Cu2B Cu 0.55346(17) 0.49061(18) -0.05326(11)
I1B I 0.15937(8) 1.08457(11) -0.01137(6)
I2B I 0.53721(9) 0.69431(9) -0.00057(6)
loop_
_geom_bond_atom_site_label_1
_geom_bond_atom_site_label_2
_geom_bond_site_symmetry_1
_geom_bond_site_symmetry_2
C1 C2 1_555 1_555
C2 H1 1_555 1_555
C3 C2 1_555 1_555
H2 C3 1_555 1_555
C4 C3 1_555 1_555
H3 C4 1_555 1_555
C5 C4 1_555 1_555
H4 C5 1_555 1_555
C6 C1 1_555 1_555
C7 H5 1_555 1_555
H6 C7 1_555 1_555
C8 C7 1_555 1_555
C9 C10 1_555 1_555
C10 H7 1_555 1_555
C11 C10 1_555 1_555
H8 C11 1_555 1_555
C12 C11 1_555 1_555
H9 C12 1_555 1_555
C13 C12 1_555 1_555
H10 C13 1_555 1_555
C14 C9 1_555 1_555
C15 C8 1_555 1_555
C16 C15 1_555 1_555
H11 C16 1_555 1_555
H12 C16 1_555 1_555
C17 C18 1_555 1_555
C18 C19 1_555 1_555
C19 H13 1_555 1_555
C20 C19 1_555 1_555
H14 C20 1_555 1_555
C21 C20 1_555 1_555
H15 C21 1_555 1_555
C22 C17 1_555 1_555
H16 C22 1_555 1_555
Cu1 I1 1_555 1_555
Cu2 I2 1_555 1_555
I1 Cu1B 1_555 1_555
I2 Cu2B 1_555 1_555
N1 C8 1_555 1_555
N2 C14 1_555 1_555
N3 C1 1_555 1_555
H17 N3 1_555 1_555
H18 N3 1_555 1_555
N4 C18 1_555 1_555
H19 N4 1_555 1_555
H20 N4 1_555 1_555
S1 C6 1_555 1_555
S2 C16 1_555 1_555
Cu1B I1B 1_555 1_555
Cu2B I2B 1_555 1_555
I1B Cu1 1_555 1_555
I2B Cu2 1_555 1_555
C5 C6 1_555 1_555
C7 S1 1_555 1_555
C9 N1 1_555 1_555
C13 C14 1_555 1_555
C15 N2 1_555 1_555
C17 S2 1_555 1_555
C21 C22 1_555 1_555
Cu1 N1 1_555 1_555
Cu1 S1 1_555 1_555
Cu2 N2 1_555 1_555
Cu2 S2 1_555 1_555

#END
