
#######################################################################
#
#                 Cambridge Crystallographic Data Centre
#                                CCDC 
#
#######################################################################
#
# If this CIF has been generated from an entry in the Cambridge 
# Structural Database, then it will include bibliographic, chemical, 
# crystal, experimental, refinement or atomic coordinate data resulting 
# from the CCDC's data processing and validation procedures.
#
#######################################################################

data_NUHQAJ01
_symmetry_cell_setting           monoclinic
_symmetry_space_group_name_H-M   'P 21/n'
_symmetry_Int_Tables_number      14
_space_group_name_Hall           '-P 2yn'
loop_
_symmetry_equiv_pos_site_id
_symmetry_equiv_pos_as_xyz
1 x,y,z
2 1/2-x,1/2+y,1/2-z
3 -x,-y,-z
4 1/2+x,1/2-y,1/2+z
_cell_length_a                   8.8520(18)
_cell_length_b                   17.697(4)
_cell_length_c                   12.999(3)
_cell_angle_alpha                90
_cell_angle_beta                 93.68(3)
_cell_angle_gamma                90
_cell_volume                     2032.14
loop_
_atom_site_label
_atom_site_type_symbol
_atom_site_fract_x
_atom_site_fract_y
_atom_site_fract_z
C1 C 0.8376(8) -0.1836(4) 0.3387(6)
H1 H 0.8450 -0.1513 0.2799
H2 H 0.8342 -0.2354 0.3167
H3 H 0.9240 -0.1759 0.3859
C2 C 0.6939(9) -0.1647(4) 0.3919(5)
H4 H 0.6074 -0.1832 0.3496
H5 H 0.6961 -0.1914 0.4572
C3 C 0.6718(8) -0.0818(4) 0.4117(5)
H6 H 0.5791 -0.0744 0.4465
H7 H 0.6622 -0.0549 0.3466
C4 C 0.7727(8) 0.0529(4) 0.4963(5)
H8 H 0.8371 0.0825 0.4541
H9 H 0.6700 0.0570 0.4660
C5 C 0.7780(8) 0.0866(4) 0.6006(5)
C6 C 0.8148(8) 0.0804(4) 0.7765(5)
C7 C 0.8536(8) 0.0378(4) 0.8664(5)
H10 H 0.8771 -0.0133 0.8617
C8 C 0.8561(8) 0.0725(4) 0.9597(5)
H11 H 0.8818 0.0450 1.0193
C9 C 0.8203(8) 0.1490(4) 0.9670(6)
H12 H 0.8209 0.1715 1.0317
C10 C 0.7853(8) 0.1907(4) 0.8830(5)
H13 H 0.7636 0.2418 0.8893
C11 C 0.7815(8) 0.1571(4) 0.7860(5)
C12 C 0.7431(8) 0.1659(4) 0.6098(5)
C13 C 0.7027(8) 0.2104(4) 0.5136(5)
H14 H 0.6003 0.1970 0.4892
H15 H 0.7693 0.1947 0.4611
C14 C 0.9084(8) 0.3268(4) 0.4986(6)
H16 H 0.9743 0.3111 0.5571
H17 H 0.9336 0.2976 0.4389
C15 C 0.9299(8) 0.4110(4) 0.4779(5)
H18 H 0.8844 0.4397 0.5314
H19 H 1.0373 0.4222 0.4819
C16 C 0.8624(9) 0.4359(4) 0.3758(5)
H20 H 0.9008 0.4050 0.3227
H21 H 0.8886 0.4877 0.3644
H22 H 0.7543 0.4310 0.3744
Cu1 Cu 0.81563(10) -0.07184(5) 0.66321(7)
Cu2 Cu 0.78923(10) -0.18402(5) 0.79684(7)
I1 I 1.05053(6) -0.14700(3) 0.73423(4)
I2 I 0.55054(6) -0.11718(3) 0.71279(4)
N1 N 0.8110(6) 0.0453(3) 0.6818(4)
N2 N 0.7475(6) 0.2000(3) 0.6987(4)
S1 S 0.8302(2) -0.04426(10) 0.49048(14)
S2 S 0.7132(2) 0.31132(10) 0.52480(14)
Cu2A Cu 0.71077(10) 0.31598(5) 0.70316(7)
N2A N 0.7525(6) -0.3000(3) 0.8013(4)
S2A S 0.7868(2) -0.18868(10) 0.97520(14)
loop_
_geom_bond_atom_site_label_1
_geom_bond_atom_site_label_2
_geom_bond_site_symmetry_1
_geom_bond_site_symmetry_2
C1 H1 1_555 1_555
H2 C1 1_555 1_555
H3 C1 1_555 1_555
C2 C1 1_555 1_555
H4 C2 1_555 1_555
H5 C2 1_555 1_555
C3 C2 1_555 1_555
H6 C3 1_555 1_555
H7 C3 1_555 1_555
C4 H8 1_555 1_555
H9 C4 1_555 1_555
C5 C4 1_555 1_555
C6 C7 1_555 1_555
C7 H10 1_555 1_555
C8 C7 1_555 1_555
H11 C8 1_555 1_555
C9 C8 1_555 1_555
H12 C9 1_555 1_555
C10 C9 1_555 1_555
H13 C10 1_555 1_555
C11 C6 1_555 1_555
C12 C5 1_555 1_555
C13 C12 1_555 1_555
H14 C13 1_555 1_555
H15 C13 1_555 1_555
C14 H16 1_555 1_555
H17 C14 1_555 1_555
C15 C14 1_555 1_555
H18 C15 1_555 1_555
H19 C15 1_555 1_555
C16 C15 1_555 1_555
H20 C16 1_555 1_555
H21 C16 1_555 1_555
H22 C16 1_555 1_555
Cu1 I1 1_555 1_555
Cu2 I1 1_555 1_555
I2 Cu1 1_555 1_555
N1 C5 1_555 1_555
N2 C11 1_555 1_555
S1 C3 1_555 1_555
S2 C13 1_555 1_555
Cu2A N2 1_555 1_555
N2A Cu2 1_555 1_555
S2A Cu2 1_555 1_555
C4 S1 1_555 1_555
C6 N1 1_555 1_555
C10 C11 1_555 1_555
C12 N2 1_555 1_555
C14 S2 1_555 1_555
Cu1 N1 1_555 1_555
Cu1 S1 1_555 1_555
Cu2 I2 1_555 1_555
S2 Cu2A 1_555 1_555

#END
