
#######################################################################
#
#                 Cambridge Crystallographic Data Centre
#                                CCDC 
#
#######################################################################
#
# If this CIF has been generated from an entry in the Cambridge 
# Structural Database, then it will include bibliographic, chemical, 
# crystal, experimental, refinement or atomic coordinate data resulting 
# from the CCDC's data processing and validation procedures.
#
#######################################################################

data_NUHQAJ
_symmetry_cell_setting           monoclinic
_symmetry_space_group_name_H-M   'P 21/c'
_symmetry_Int_Tables_number      14
_space_group_name_Hall           '-P 2ybc'
loop_
_symmetry_equiv_pos_site_id
_symmetry_equiv_pos_as_xyz
1 x,y,z
2 -x,1/2+y,1/2-z
3 -x,-y,-z
4 x,1/2-y,1/2+z
_cell_length_a                   9.006(8)
_cell_length_b                   17.813(17)
_cell_length_c                   15.396(10)
_cell_angle_alpha                90
_cell_angle_beta                 122.25(4)
_cell_angle_gamma                90
_cell_volume                     2088.85
loop_
_atom_site_label
_atom_site_type_symbol
_atom_site_fract_x
_atom_site_fract_y
_atom_site_fract_z
I1 I 0.80722(14) -0.14773(5) 0.76660(9)
I2 I 0.33832(15) -0.11571(5) 0.78716(9)
Cu1 Cu 0.6502(3) -0.07123(8) 0.83770(15)
Cu2 Cu 0.4863(3) -0.18381(8) 0.70286(15)
S1 S 0.8394(6) -0.04324(17) 1.0105(3)
S2 S 0.6932(5) 0.31094(16) 0.9753(3)
N1 N 0.6279(15) 0.0463(5) 0.8181(9)
N2 N 0.5504(15) 0.2000(5) 0.8001(10)
C1 C 0.996(2) -0.1830(9) 1.1583(16)
H1 H 1.0174 -0.2306 1.1922
H2 H 1.0659 -0.1450 1.2078
H3 H 1.0272 -0.1860 1.1076
C2 C 0.809(3) -0.1636(7) 1.1080(14)
H4 H 0.7678 -0.1822 1.1505
H5 H 0.7455 -0.1903 1.0431
C3 C 0.763(2) -0.0809(7) 1.0871(14)
H6 H 0.8163 -0.0538 1.1516
H7 H 0.6367 -0.0748 1.0516
C4 C 0.773(2) 0.0530(6) 1.0041(10)
H8 H 0.6971 0.0560 1.0308
H9 H 0.8766 0.0829 1.0484
C5 C 0.6809(19) 0.0860(6) 0.9009(11)
C6 C 0.5414(19) 0.0813(6) 0.7243(12)
C7 C 0.490(2) 0.0388(7) 0.6360(12)
H10 H 0.5150 -0.0122 0.6415
C8 C 0.401(2) 0.0730(7) 0.5409(13)
H11 H 0.3666 0.0457 0.4816
C9 C 0.363(2) 0.1491(7) 0.5357(12)
H12 H 0.3017 0.1725 0.4719
C10 C 0.413(2) 0.1903(7) 0.6215(12)
H13 H 0.3872 0.2412 0.6159
C11 C 0.503(2) 0.1566(6) 0.7163(12)
C12 C 0.6355(19) 0.1672(6) 0.8888(12)
C13 C 0.6939(19) 0.2103(6) 0.9899(10)
H14 H 0.8113 0.1942 1.0425
H15 H 0.6158 0.1973 1.0130
C14 C 0.9128(19) 0.3278(8) 1.0027(13)
H16 H 0.9969 0.2985 1.0620
H17 H 0.9197 0.3121 0.9446
C15 C 0.957(2) 0.4095(9) 1.0234(15)
H18 H 1.0591 0.4199 1.0196
H19 H 0.8598 0.4388 0.9705
C16 C 0.994(3) 0.4336(11) 1.1250(15)
H20 H 1.0303 0.4852 1.1365
H21 H 1.0852 0.4029 1.1776
H22 H 0.8893 0.4283 1.1268
Cu2A Cu 0.5137(3) 0.31619(8) 0.79714(15)
S2A S 0.3068(5) -0.18906(16) 0.5247(3)
N2A N 0.4496(15) -0.3000(5) 0.6999(10)
loop_
_geom_bond_atom_site_label_1
_geom_bond_atom_site_label_2
_geom_bond_site_symmetry_1
_geom_bond_site_symmetry_2
I1 Cu1 1_555 1_555
I2 Cu1 1_555 1_555
Cu1 S1 1_555 1_555
Cu2 I1 1_555 1_555
S1 C3 1_555 1_555
S2 C13 1_555 1_555
N1 Cu1 1_555 1_555
N2 C11 1_555 1_555
C1 H1 1_555 1_555
H2 C1 1_555 1_555
H3 C1 1_555 1_555
C2 C1 1_555 1_555
H4 C2 1_555 1_555
H5 C2 1_555 1_555
C3 C2 1_555 1_555
H6 C3 1_555 1_555
H7 C3 1_555 1_555
C4 S1 1_555 1_555
H8 C4 1_555 1_555
H9 C4 1_555 1_555
C5 N1 1_555 1_555
C6 N1 1_555 1_555
C7 C6 1_555 1_555
H10 C7 1_555 1_555
C8 C7 1_555 1_555
H11 C8 1_555 1_555
C9 C8 1_555 1_555
H12 C9 1_555 1_555
C10 C9 1_555 1_555
H13 C10 1_555 1_555
C11 C6 1_555 1_555
C12 N2 1_555 1_555
C13 C12 1_555 1_555
H14 C13 1_555 1_555
H15 C13 1_555 1_555
C14 S2 1_555 1_555
H16 C14 1_555 1_555
H17 C14 1_555 1_555
C15 C14 1_555 1_555
H18 C15 1_555 1_555
H19 C15 1_555 1_555
C16 C15 1_555 1_555
H20 C16 1_555 1_555
H21 C16 1_555 1_555
H22 C16 1_555 1_555
Cu2A S2 1_555 1_555
S2A Cu2 1_555 1_555
N2A Cu2 1_555 1_555
I2 Cu2 1_555 1_555
N2 Cu2A 1_555 1_555
C4 C5 1_555 1_555
C5 C12 1_555 1_555
C10 C11 1_555 1_555

#END
