
#######################################################################
#
#                 Cambridge Crystallographic Data Centre
#                                CCDC 
#
#######################################################################
#
# If this CIF has been generated from an entry in the Cambridge 
# Structural Database, then it will include bibliographic, chemical, 
# crystal, experimental, refinement or atomic coordinate data resulting 
# from the CCDC's data processing and validation procedures.
#
#######################################################################

data_NUHQEN
_symmetry_cell_setting           monoclinic
_symmetry_space_group_name_H-M   'P 21'
_symmetry_Int_Tables_number      4
_space_group_name_Hall           'P 2yb'
loop_
_symmetry_equiv_pos_site_id
_symmetry_equiv_pos_as_xyz
1 x,y,z
2 -x,1/2+y,-z
_cell_length_a                   9.7299(19)
_cell_length_b                   17.515(4)
_cell_length_c                   10.252(2)
_cell_angle_alpha                90
_cell_angle_beta                 117.77(3)
_cell_angle_gamma                90
_cell_volume                     1545.91
loop_
_atom_site_label
_atom_site_type_symbol
_atom_site_fract_x
_atom_site_fract_y
_atom_site_fract_z
C1 C 0.6353(5) 1.0776(2) 0.1415(4)
H1 H 0.6211 1.0927 0.0460
H2 H 0.5489 1.0951 0.1544
H3 H 0.6417 1.0230 0.1493
C2 C 0.9252(5) 1.0897(2) 0.2385(5)
H4 H 0.9077 1.1050 0.1420
H5 H 0.9389 1.0354 0.2482
H6 H 1.0168 1.1145 0.3116
C3 C 0.7727(5) 1.1992(2) 0.2622(5)
H7 H 0.7570 1.2195 0.1693
H8 H 0.8669 1.2197 0.3398
H9 H 0.6867 1.2130 0.2788
C4 C 0.7849(5) 1.1126(2) 0.2602(4)
C5 C 0.8073(5) 0.9805(2) 0.4372(4)
H10 H 0.8182 0.9648 0.3518
H11 H 0.8961 0.9606 0.5236
C6 C 0.6632(4) 0.9431(2) 0.4278(4)
C7 C 0.4343(4) 0.9469(2) 0.4443(4)
C8 C 0.3268(5) 0.9878(2) 0.4706(4)
H12 H 0.3365 1.0404 0.4830
C9 C 0.2055(5) 0.9502(2) 0.4783(5)
H13 H 0.1350 0.9775 0.4975
C10 C 0.1892(5) 0.8709(2) 0.4571(5)
H14 H 0.1065 0.8461 0.4606
C11 C 0.2930(5) 0.8301(2) 0.4314(5)
H15 H 0.2803 0.7776 0.4169
C12 C 0.4196(4) 0.8665(2) 0.4265(4)
C13 C 0.6483(4) 0.8610(2) 0.4116(4)
C14 C 0.7811(5) 0.8170(2) 0.4086(4)
H16 H 0.8763 0.8311 0.4951
H17 H 0.7909 0.8334 0.3229
C15 C 0.7369(4) 0.6898(2) 0.2161(4)
C16 C 0.7137(5) 0.6027(2) 0.2081(5)
H18 H 0.6972 0.5846 0.1135
H19 H 0.6250 0.5905 0.2216
H20 H 0.8044 0.5788 0.2841
C17 C 0.8833(5) 0.7098(2) 0.2034(5)
H21 H 0.8677 0.6973 0.1062
H22 H 0.9696 0.6811 0.2750
H23 H 0.9043 0.7634 0.2209
C18 C 0.5935(5) 0.7304(2) 0.1001(4)
H24 H 0.5795 0.7176 0.0037
H25 H 0.6067 0.7846 0.1144
H26 H 0.5038 0.7147 0.1092
Cu1 Cu 0.59340(6) 1.10232(2) 0.47359(5)
Cu2 Cu 0.46403(6) 1.20497(2) 0.58043(5)
I1 I 0.69647(3) 1.124122(13) 0.75957(3)
I2 I 0.36549(3) 1.186697(13) 0.29154(3)
N1 N 0.5588(4) 0.98384(17) 0.4429(3)
N2 N 0.5305(4) 0.82459(18) 0.4109(4)
S1 S 0.81647(12) 1.08366(5) 0.44692(11)
S2 S 0.76596(12) 0.71368(5) 0.40346(11)
Cu2A Cu 0.53597(6) 0.70497(2) 0.41957(5)
N2A N 0.4695(4) 1.32459(18) 0.5891(4)
S2A S 0.23404(12) 1.21368(5) 0.59654(11)
C19 C -0.0044(6) 0.8384(3) 0.8483(5)
C20 C 0.0531(6) 0.7885(3) 0.9746(5)
H27 H 0.1638 0.7837 1.0156
H28 H 0.0059 0.7391 0.9450
H29 H 0.0280 0.8095 1.0474
N3 N -0.0485(7) 0.8789(3) 0.7499(5)
C21 C 0.2734(6) 0.9555(3) 0.0652(5)
C22 C 0.1421(6) 1.0001(3) 0.0580(6)
H30 H 0.1805 1.0452 0.1175
H31 H 0.0849 0.9698 0.0942
H32 H 0.0752 1.0146 -0.0423
N4 N 0.3739(5) 0.9212(2) 0.0688(5)
C23 C 0.7137(7) 0.9046(3) 0.9808(6)
C24 C 0.5709(7) 0.9067(3) 0.8414(5)
H33 H 0.5585 0.8592 0.7903
H34 H 0.5762 0.9478 0.7819
H35 H 0.4840 0.9144 0.8601
N5 N 0.8222(6) 0.9023(2) 1.0918(5)
loop_
_geom_bond_atom_site_label_1
_geom_bond_atom_site_label_2
_geom_bond_site_symmetry_1
_geom_bond_site_symmetry_2
C1 H1 1_555 1_555
H2 C1 1_555 1_555
H3 C1 1_555 1_555
C2 H4 1_555 1_555
H5 C2 1_555 1_555
H6 C2 1_555 1_555
C3 H7 1_555 1_555
H8 C3 1_555 1_555
H9 C3 1_555 1_555
C4 C1 1_555 1_555
C5 H10 1_555 1_555
H11 C5 1_555 1_555
C6 C5 1_555 1_555
C7 C8 1_555 1_555
C8 H12 1_555 1_555
C9 C8 1_555 1_555
H13 C9 1_555 1_555
C10 C9 1_555 1_555
H14 C10 1_555 1_555
C11 C10 1_555 1_555
H15 C11 1_555 1_555
C12 C7 1_555 1_555
C13 C6 1_555 1_555
C14 C13 1_555 1_555
H16 C14 1_555 1_555
H17 C14 1_555 1_555
C15 C16 1_555 1_555
C16 H18 1_555 1_555
H19 C16 1_555 1_555
H20 C16 1_555 1_555
C17 C15 1_555 1_555
H21 C17 1_555 1_555
H22 C17 1_555 1_555
H23 C17 1_555 1_555
C18 C15 1_555 1_555
H24 C18 1_555 1_555
H25 C18 1_555 1_555
H26 C18 1_555 1_555
C19 C20 1_555 1_555
C20 H27 1_555 1_555
H28 C20 1_555 1_555
H29 C20 1_555 1_555
C21 C22 1_555 1_555
C22 H30 1_555 1_555
H31 C22 1_555 1_555
H32 C22 1_555 1_555
C23 C24 1_555 1_555
C24 H33 1_555 1_555
H34 C24 1_555 1_555
H35 C24 1_555 1_555
Cu1 I1 1_555 1_555
Cu2 I1 1_555 1_555
I2 Cu1 1_555 1_555
N1 C6 1_555 1_555
N2 C12 1_555 1_555
N3 C19 1_555 1_555
N4 C21 1_555 1_555
N5 C23 1_555 1_555
S1 C4 1_555 1_555
S2 C14 1_555 1_555
Cu2A N2 1_555 1_555
N2A Cu2 1_555 1_555
S2A Cu2 1_555 1_555
C2 C4 1_555 1_555
C3 C4 1_555 1_555
C5 S1 1_555 1_555
C7 N1 1_555 1_555
C11 C12 1_555 1_555
C13 N2 1_555 1_555
C15 S2 1_555 1_555
Cu1 N1 1_555 1_555
Cu1 S1 1_555 1_555
Cu2 I2 1_555 1_555
S2 Cu2A 1_555 1_555

#END
