
#######################################################################
#
#                 Cambridge Crystallographic Data Centre
#                                CCDC 
#
#######################################################################
#
# If this CIF has been generated from an entry in the Cambridge 
# Structural Database, then it will include bibliographic, chemical, 
# crystal, experimental, refinement or atomic coordinate data resulting 
# from the CCDC's data processing and validation procedures.
#
#######################################################################

data_NUHSUG01
_symmetry_cell_setting           monoclinic
_symmetry_space_group_name_H-M   'C 2/c'
_symmetry_Int_Tables_number      15
_space_group_name_Hall           '-C 2yn'
loop_
_symmetry_equiv_pos_site_id
_symmetry_equiv_pos_as_xyz
1 x,y,z
2 -x,y,1/2-z
3 1/2+x,1/2+y,z
4 1/2-x,1/2+y,1/2-z
5 -x,-y,-z
6 x,-y,1/2+z
7 1/2-x,1/2-y,-z
8 1/2+x,1/2-y,1/2+z
_cell_length_a                   14.377(3)
_cell_length_b                   10.470(2)
_cell_length_c                   15.253(4)
_cell_angle_alpha                90
_cell_angle_beta                 102.588(4)
_cell_angle_gamma                90
_cell_volume                     2240.8
loop_
_atom_site_label
_atom_site_type_symbol
_atom_site_fract_x
_atom_site_fract_y
_atom_site_fract_z
Pd1 Pd 0.0000 0.5000 0.5000
Fe1 Fe 0.0000 0.83492(5) 0.2500
N1 N 0.03464(18) 0.6919(2) 0.35224(17)
N2 N -0.2185(2) 0.5292(3) 0.4171(2)
N3 N 0.14307(16) 0.8623(2) 0.22511(16)
N4 N -0.01525(17) 0.9863(2) 0.14930(16)
N5 N -0.08298(18) 1.0673(2) 0.10644(17)
H1 H -0.1420 1.0637 0.1094
C1 C 0.0248(2) 0.6199(3) 0.4062(2)
C2 C -0.1385(2) 0.5172(3) 0.4470(2)
C3 C 0.2196(2) 0.7903(3) 0.2593(2)
H2 H 0.2140 0.7274 0.3009
C4 C 0.3058(2) 0.8055(3) 0.2356(3)
H3 H 0.3573 0.7540 0.2611
C5 C 0.3152(2) 0.8973(3) 0.1741(3)
H4 H 0.3731 0.9091 0.1574
C6 C 0.2376(2) 0.9717(3) 0.1373(2)
H5 H 0.2422 1.0341 0.0950
C7 C 0.1527(2) 0.9524(3) 0.1641(2)
C8 C 0.0655(2) 1.0260(3) 0.1272(2)
C9 C 0.0483(2) 1.1315(3) 0.0701(2)
H6 H 0.0920 1.1765 0.0454
C10 C -0.0468(2) 1.1539(3) 0.0589(2)
H7 H -0.0808 1.2185 0.0240
N1A N -0.03464(18) 0.6919(2) 0.14776(17)
N3A N -0.14307(16) 0.8623(2) 0.27489(16)
N4A N 0.01525(17) 0.9863(2) 0.35070(16)
N5A N 0.08298(18) 1.0673(2) 0.39356(17)
H1A H 0.1420 1.0637 0.3906
C1A C -0.0248(2) 0.6199(3) 0.0938(2)
C3A C -0.2196(2) 0.7903(3) 0.2407(2)
H2A H -0.2140 0.7274 0.1991
C4A C -0.3058(2) 0.8055(3) 0.2644(3)
H3A H -0.3573 0.7540 0.2389
C5A C -0.3152(2) 0.8973(3) 0.3259(3)
H4A H -0.3731 0.9091 0.3426
C6A C -0.2376(2) 0.9717(3) 0.3627(2)
H5A H -0.2422 1.0341 0.4050
C7A C -0.1527(2) 0.9524(3) 0.3359(2)
C8A C -0.0655(2) 1.0260(3) 0.3728(2)
C9A C -0.0483(2) 1.1315(3) 0.4299(2)
H6A H -0.0920 1.1765 0.4546
C10A C 0.0468(2) 1.1539(3) 0.4411(2)
H7A H 0.0808 1.2185 0.4760
N2D N 0.2185(2) 0.4708(3) 0.5829(2)
C2D C 0.1385(2) 0.4828(3) 0.5530(2)
Pd1A Pd 0.0000 0.5000 0.0000
C1D C -0.0248(2) 0.3801(3) 0.5938(2)
loop_
_geom_bond_atom_site_label_1
_geom_bond_atom_site_label_2
_geom_bond_site_symmetry_1
_geom_bond_site_symmetry_2
Pd1 C1 1_555 1_555
Fe1 N1 1_555 1_555
N1 C1 1_555 1_555
N2 C2 1_555 1_555
N3 Fe1 1_555 1_555
N4 Fe1 1_555 1_555
N5 N4 1_555 1_555
H1 N5 1_555 1_555
C2 Pd1 1_555 1_555
C3 N3 1_555 1_555
H2 C3 1_555 1_555
C4 C3 1_555 1_555
H3 C4 1_555 1_555
C5 C4 1_555 1_555
H4 C5 1_555 1_555
C6 C5 1_555 1_555
H5 C6 1_555 1_555
C7 N3 1_555 1_555
C8 N4 1_555 1_555
C9 C8 1_555 1_555
H6 C9 1_555 1_555
C10 N5 1_555 1_555
H7 C10 1_555 1_555
N1A Fe1 1_555 1_555
N3A Fe1 1_555 1_555
N4A Fe1 1_555 1_555
N5A N4A 1_555 1_555
H1A N5A 1_555 1_555
C1A N1A 1_555 1_555
C3A N3A 1_555 1_555
H2A C3A 1_555 1_555
C4A C3A 1_555 1_555
H3A C4A 1_555 1_555
C5A C4A 1_555 1_555
H4A C5A 1_555 1_555
C6A C5A 1_555 1_555
H5A C6A 1_555 1_555
C7A N3A 1_555 1_555
C8A N4A 1_555 1_555
C9A C8A 1_555 1_555
H6A C9A 1_555 1_555
C10A N5A 1_555 1_555
H7A C10A 1_555 1_555
N2D C2D 1_555 1_555
C2D Pd1 1_555 1_555
Pd1A C1A 1_555 1_555
C1D Pd1 1_555 1_555
C6 C7 1_555 1_555
C7 C8 1_555 1_555
C9 C10 1_555 1_555
C6A C7A 1_555 1_555
C7A C8A 1_555 1_555
C9A C10A 1_555 1_555

#END
