
#######################################################################
#
#                 Cambridge Crystallographic Data Centre
#                                CCDC 
#
#######################################################################
#
# If this CIF has been generated from an entry in the Cambridge 
# Structural Database, then it will include bibliographic, chemical, 
# crystal, experimental, refinement or atomic coordinate data resulting 
# from the CCDC's data processing and validation procedures.
#
#######################################################################

data_NUHSUG
_symmetry_cell_setting           monoclinic
_symmetry_space_group_name_H-M   'C 2/c'
_symmetry_Int_Tables_number      15
_space_group_name_Hall           '-C 2yn'
loop_
_symmetry_equiv_pos_site_id
_symmetry_equiv_pos_as_xyz
1 x,y,z
2 -x,y,1/2-z
3 1/2+x,1/2+y,z
4 1/2-x,1/2+y,1/2-z
5 -x,-y,-z
6 x,-y,1/2+z
7 1/2-x,1/2-y,-z
8 1/2+x,1/2-y,1/2+z
_cell_length_a                   14.255(3)
_cell_length_b                   10.247(2)
_cell_length_c                   14.539(4)
_cell_angle_alpha                90
_cell_angle_beta                 99.489(4)
_cell_angle_gamma                90
_cell_volume                     2094.67
loop_
_atom_site_label
_atom_site_type_symbol
_atom_site_fract_x
_atom_site_fract_y
_atom_site_fract_z
Pd1 Pd 0.0000 0.5000 0.5000
Fe1 Fe 0.0000 0.84040(5) 0.2500
N1 N 0.02352(15) 0.7052(2) 0.34562(15)
N2 N -0.21681(18) 0.5093(3) 0.41407(19)
N3 N 0.13276(15) 0.8533(2) 0.22576(14)
N4 N -0.01598(16) 0.9778(2) 0.15555(15)
N5 N -0.08639(16) 1.0552(2) 0.11448(15)
H1 H -0.1451 1.0468 0.1204
C1 C 0.01998(18) 0.6285(3) 0.40186(18)
C2 C -0.1379(2) 0.5041(3) 0.44558(19)
C3 C 0.2056(2) 0.7754(3) 0.26007(19)
H2 H 0.1955 0.7093 0.3012
C4 C 0.2950(2) 0.7896(3) 0.2366(2)
H3 H 0.3441 0.7340 0.2620
C5 C 0.3111(2) 0.8864(3) 0.17545(19)
H4 H 0.3710 0.8973 0.1591
C6 C 0.2366(2) 0.9673(3) 0.13875(19)
H5 H 0.2454 1.0333 0.0971
C7 C 0.14862(19) 0.9483(3) 0.16517(18)
C8 C 0.0637(2) 1.0228(2) 0.12959(18)
C9 C 0.04346(19) 1.1309(3) 0.07020(18)
H6 H 0.0859 1.1799 0.0422
C10 C -0.05300(19) 1.1480(3) 0.06275(18)
H7 H -0.0889 1.2122 0.0281
N1A N -0.02352(15) 0.7052(2) 0.15438(15)
N3A N -0.13276(15) 0.8533(2) 0.27424(14)
N4A N 0.01598(16) 0.9778(2) 0.34445(15)
N5A N 0.08639(16) 1.0552(2) 0.38552(15)
H1A H 0.1451 1.0468 0.3796
C1A C -0.01998(18) 0.6285(3) 0.09814(18)
C3A C -0.2056(2) 0.7754(3) 0.23993(19)
H2A H -0.1955 0.7093 0.1988
C4A C -0.2950(2) 0.7896(3) 0.2634(2)
H3A H -0.3441 0.7340 0.2380
C5A C -0.3111(2) 0.8864(3) 0.32455(19)
H4A H -0.3710 0.8973 0.3409
C6A C -0.2366(2) 0.9673(3) 0.36125(19)
H5A H -0.2454 1.0333 0.4029
C7A C -0.14862(19) 0.9483(3) 0.33483(18)
C8A C -0.0637(2) 1.0228(2) 0.37041(18)
C9A C -0.04346(19) 1.1309(3) 0.42980(18)
H6A H -0.0859 1.1799 0.4578
C10A C 0.05300(19) 1.1480(3) 0.43725(18)
H7A H 0.0889 1.2122 0.4719
N2D N 0.21681(18) 0.4907(3) 0.58593(19)
C2D C 0.1379(2) 0.4959(3) 0.55442(19)
Pd1A Pd 0.0000 0.5000 0.0000
C1D C -0.01998(18) 0.3715(3) 0.59814(18)
loop_
_geom_bond_atom_site_label_1
_geom_bond_atom_site_label_2
_geom_bond_site_symmetry_1
_geom_bond_site_symmetry_2
Pd1 C1 1_555 1_555
Fe1 N1 1_555 1_555
N1 C1 1_555 1_555
N2 C2 1_555 1_555
N3 Fe1 1_555 1_555
N4 Fe1 1_555 1_555
N5 N4 1_555 1_555
H1 N5 1_555 1_555
C2 Pd1 1_555 1_555
C3 N3 1_555 1_555
H2 C3 1_555 1_555
C4 C3 1_555 1_555
H3 C4 1_555 1_555
C5 C4 1_555 1_555
H4 C5 1_555 1_555
C6 C5 1_555 1_555
H5 C6 1_555 1_555
C7 N3 1_555 1_555
C8 N4 1_555 1_555
C9 C8 1_555 1_555
H6 C9 1_555 1_555
C10 N5 1_555 1_555
H7 C10 1_555 1_555
N1A Fe1 1_555 1_555
N3A Fe1 1_555 1_555
N4A Fe1 1_555 1_555
N5A N4A 1_555 1_555
H1A N5A 1_555 1_555
C1A N1A 1_555 1_555
C3A N3A 1_555 1_555
H2A C3A 1_555 1_555
C4A C3A 1_555 1_555
H3A C4A 1_555 1_555
C5A C4A 1_555 1_555
H4A C5A 1_555 1_555
C6A C5A 1_555 1_555
H5A C6A 1_555 1_555
C7A N3A 1_555 1_555
C8A N4A 1_555 1_555
C9A C8A 1_555 1_555
H6A C9A 1_555 1_555
C10A N5A 1_555 1_555
H7A C10A 1_555 1_555
N2D C2D 1_555 1_555
C2D Pd1 1_555 1_555
Pd1A C1A 1_555 1_555
C1D Pd1 1_555 1_555
C6 C7 1_555 1_555
C7 C8 1_555 1_555
C9 C10 1_555 1_555
C6A C7A 1_555 1_555
C7A C8A 1_555 1_555
C9A C10A 1_555 1_555

#END
