
#######################################################################
#
#                 Cambridge Crystallographic Data Centre
#                                CCDC 
#
#######################################################################
#
# If this CIF has been generated from an entry in the Cambridge 
# Structural Database, then it will include bibliographic, chemical, 
# crystal, experimental, refinement or atomic coordinate data resulting 
# from the CCDC's data processing and validation procedures.
#
#######################################################################

data_NUHTER
_symmetry_cell_setting           monoclinic
_symmetry_space_group_name_H-M   'C 2/c'
_symmetry_Int_Tables_number      15
_space_group_name_Hall           '-C 2yn'
loop_
_symmetry_equiv_pos_site_id
_symmetry_equiv_pos_as_xyz
1 x,y,z
2 -x,y,1/2-z
3 1/2+x,1/2+y,z
4 1/2-x,1/2+y,1/2-z
5 -x,-y,-z
6 x,-y,1/2+z
7 1/2-x,1/2-y,-z
8 1/2+x,1/2-y,1/2+z
_cell_length_a                   14.269(3)
_cell_length_b                   10.366(2)
_cell_length_c                   14.532(4)
_cell_angle_alpha                90
_cell_angle_beta                 99.222(4)
_cell_angle_gamma                90
_cell_volume                     2121.68
loop_
_atom_site_label
_atom_site_type_symbol
_atom_site_fract_x
_atom_site_fract_y
_atom_site_fract_z
Pt1 Pt 0.0000 0.5000 0.5000
Fe1 Fe 0.0000 0.83910(9) 0.2500
N1 N 0.0236(3) 0.7063(3) 0.3461(2)
N2 N -0.2165(3) 0.5042(4) 0.4129(3)
N3 N 0.1332(3) 0.8522(4) 0.2255(2)
N4 N -0.0156(3) 0.9757(4) 0.1553(3)
N5 N -0.0863(3) 1.0534(4) 0.1148(3)
H1 H -0.1450 1.0450 0.1207
C1 C 0.0198(3) 0.6284(4) 0.4028(3)
C2 C -0.1379(3) 0.5008(4) 0.4449(3)
C3 C 0.2053(4) 0.7739(5) 0.2586(3)
H2 H 0.1945 0.7075 0.2986
C4 C 0.2954(3) 0.7877(5) 0.2358(4)
H3 H 0.3442 0.7324 0.2610
C5 C 0.3119(4) 0.8851(5) 0.1747(3)
H4 H 0.3718 0.8961 0.1585
C6 C 0.2376(4) 0.9660(5) 0.1382(4)
H5 H 0.2466 1.0315 0.0967
C7 C 0.1493(3) 0.9470(4) 0.1649(3)
C8 C 0.0648(3) 1.0210(4) 0.1298(3)
C9 C 0.0447(3) 1.1296(5) 0.0718(3)
H6 H 0.0873 1.1792 0.0447
C10 C -0.0524(3) 1.1459(5) 0.0639(3)
H7 H -0.0882 1.2097 0.0294
N1A N -0.0236(3) 0.7063(3) 0.1539(2)
N3A N -0.1332(3) 0.8522(4) 0.2745(2)
N4A N 0.0156(3) 0.9757(4) 0.3447(3)
N5A N 0.0863(3) 1.0534(4) 0.3852(3)
H1A H 0.1450 1.0450 0.3793
C1A C -0.0198(3) 0.6284(4) 0.0972(3)
C3A C -0.2053(4) 0.7739(5) 0.2414(3)
H2A H -0.1945 0.7075 0.2014
C4A C -0.2954(3) 0.7877(5) 0.2642(4)
H3A H -0.3442 0.7324 0.2390
C5A C -0.3119(4) 0.8851(5) 0.3253(3)
H4A H -0.3718 0.8961 0.3415
C6A C -0.2376(4) 0.9660(5) 0.3618(4)
H5A H -0.2466 1.0315 0.4033
C7A C -0.1493(3) 0.9470(4) 0.3351(3)
C8A C -0.0648(3) 1.0210(4) 0.3702(3)
C9A C -0.0447(3) 1.1296(5) 0.4282(3)
H6A H -0.0873 1.1792 0.4553
C10A C 0.0524(3) 1.1459(5) 0.4361(3)
H7A H 0.0882 1.2097 0.4706
N2D N 0.2165(3) 0.4958(4) 0.5871(3)
C2D C 0.1379(3) 0.4992(4) 0.5551(3)
Pt1A Pt 0.0000 0.5000 0.0000
C1D C -0.0198(3) 0.3716(4) 0.5972(3)
loop_
_geom_bond_atom_site_label_1
_geom_bond_atom_site_label_2
_geom_bond_site_symmetry_1
_geom_bond_site_symmetry_2
Pt1 C1 1_555 1_555
Fe1 N1 1_555 1_555
N1 C1 1_555 1_555
N2 C2 1_555 1_555
N3 Fe1 1_555 1_555
N4 Fe1 1_555 1_555
N5 N4 1_555 1_555
H1 N5 1_555 1_555
C2 Pt1 1_555 1_555
C3 N3 1_555 1_555
H2 C3 1_555 1_555
C4 C3 1_555 1_555
H3 C4 1_555 1_555
C5 C4 1_555 1_555
H4 C5 1_555 1_555
C6 C5 1_555 1_555
H5 C6 1_555 1_555
C7 N3 1_555 1_555
C8 N4 1_555 1_555
C9 C8 1_555 1_555
H6 C9 1_555 1_555
C10 N5 1_555 1_555
H7 C10 1_555 1_555
N1A Fe1 1_555 1_555
N3A Fe1 1_555 1_555
N4A Fe1 1_555 1_555
N5A N4A 1_555 1_555
H1A N5A 1_555 1_555
C1A N1A 1_555 1_555
C3A N3A 1_555 1_555
H2A C3A 1_555 1_555
C4A C3A 1_555 1_555
H3A C4A 1_555 1_555
C5A C4A 1_555 1_555
H4A C5A 1_555 1_555
C6A C5A 1_555 1_555
H5A C6A 1_555 1_555
C7A N3A 1_555 1_555
C8A N4A 1_555 1_555
C9A C8A 1_555 1_555
H6A C9A 1_555 1_555
C10A N5A 1_555 1_555
H7A C10A 1_555 1_555
N2D C2D 1_555 1_555
C2D Pt1 1_555 1_555
Pt1A C1A 1_555 1_555
C1D Pt1 1_555 1_555
C6 C7 1_555 1_555
C7 C8 1_555 1_555
C9 C10 1_555 1_555
C6A C7A 1_555 1_555
C7A C8A 1_555 1_555
C9A C10A 1_555 1_555

#END
