
#######################################################################
#
#                 Cambridge Crystallographic Data Centre
#                                CCDC 
#
#######################################################################
#
# If this CIF has been generated from an entry in the Cambridge 
# Structural Database, then it will include bibliographic, chemical, 
# crystal, experimental, refinement or atomic coordinate data resulting 
# from the CCDC's data processing and validation procedures.
#
#######################################################################

data_NUHTER01
_symmetry_cell_setting           monoclinic
_symmetry_space_group_name_H-M   'C 2/c'
_symmetry_Int_Tables_number      15
_space_group_name_Hall           '-C 2yn'
loop_
_symmetry_equiv_pos_site_id
_symmetry_equiv_pos_as_xyz
1 x,y,z
2 -x,y,1/2-z
3 1/2+x,1/2+y,z
4 1/2-x,1/2+y,1/2-z
5 -x,-y,-z
6 x,-y,1/2+z
7 1/2-x,1/2-y,-z
8 1/2+x,1/2-y,1/2+z
_cell_length_a                   14.304(3)
_cell_length_b                   10.523(2)
_cell_length_c                   15.157(4)
_cell_angle_alpha                90
_cell_angle_beta                 102.323(4)
_cell_angle_gamma                90
_cell_volume                     2228.88
loop_
_atom_site_label
_atom_site_type_symbol
_atom_site_fract_x
_atom_site_fract_y
_atom_site_fract_z
Pt1 Pt 0.0000 0.5000 0.5000
Fe1 Fe 0.0000 0.83374(5) 0.2500
N1 N 0.03525(16) 0.6916(2) 0.35260(14)
N2 N -0.2185(2) 0.5268(3) 0.4155(2)
N3 N 0.14357(14) 0.8602(2) 0.22469(14)
N4 N -0.01492(16) 0.9846(2) 0.14914(16)
N5 N -0.08262(16) 1.0659(2) 0.10692(15)
H1 H -0.1420 1.0620 0.1098
C1 C 0.02432(18) 0.6208(3) 0.40641(17)
C2 C -0.1386(2) 0.5151(3) 0.4465(2)
C3 C 0.2196(2) 0.7884(3) 0.2584(2)
H2 H 0.2136 0.7251 0.2997
C4 C 0.3070(2) 0.8043(3) 0.2348(2)
H3 H 0.3588 0.7531 0.2602
C5 C 0.3162(2) 0.8954(3) 0.1739(2)
H4 H 0.3744 0.9072 0.1570
C6 C 0.2392(2) 0.9700(3) 0.1373(2)
H5 H 0.2444 1.0325 0.0953
C7 C 0.15339(19) 0.9508(3) 0.16413(18)
C8 C 0.0663(2) 1.0246(2) 0.12750(18)
C9 C 0.0496(2) 1.1300(3) 0.07120(18)
H6 H 0.0941 1.1747 0.0466
C10 C -0.0458(2) 1.1538(3) 0.05971(18)
H7 H -0.0793 1.2190 0.0254
N1A N -0.03525(16) 0.6916(2) 0.14740(14)
N3A N -0.14357(14) 0.8602(2) 0.27531(14)
N4A N 0.01492(16) 0.9846(2) 0.35086(16)
N5A N 0.08262(16) 1.0659(2) 0.39308(15)
H1A H 0.1420 1.0620 0.3902
C1A C -0.02432(18) 0.6208(3) 0.09359(17)
C3A C -0.2196(2) 0.7884(3) 0.2416(2)
H2A H -0.2136 0.7251 0.2003
C4A C -0.3070(2) 0.8043(3) 0.2652(2)
H3A H -0.3588 0.7531 0.2398
C5A C -0.3162(2) 0.8954(3) 0.3261(2)
H4A H -0.3744 0.9072 0.3430
C6A C -0.2392(2) 0.9700(3) 0.3627(2)
H5A H -0.2444 1.0325 0.4047
C7A C -0.15339(19) 0.9508(3) 0.33587(18)
C8A C -0.0663(2) 1.0246(2) 0.37250(18)
C9A C -0.0496(2) 1.1300(3) 0.42880(18)
H6A H -0.0941 1.1747 0.4534
C10A C 0.0458(2) 1.1538(3) 0.44029(18)
H7A H 0.0793 1.2190 0.4746
N2D N 0.2185(2) 0.4732(3) 0.5845(2)
C2D C 0.1386(2) 0.4849(3) 0.5535(2)
Pt1A Pt 0.0000 0.5000 0.0000
C1D C -0.02432(18) 0.3792(3) 0.59359(17)
loop_
_geom_bond_atom_site_label_1
_geom_bond_atom_site_label_2
_geom_bond_site_symmetry_1
_geom_bond_site_symmetry_2
Pt1 C1 1_555 1_555
Fe1 N1 1_555 1_555
N1 C1 1_555 1_555
N2 C2 1_555 1_555
N3 Fe1 1_555 1_555
N4 Fe1 1_555 1_555
N5 N4 1_555 1_555
H1 N5 1_555 1_555
C2 Pt1 1_555 1_555
C3 N3 1_555 1_555
H2 C3 1_555 1_555
C4 C3 1_555 1_555
H3 C4 1_555 1_555
C5 C4 1_555 1_555
H4 C5 1_555 1_555
C6 C5 1_555 1_555
H5 C6 1_555 1_555
C7 N3 1_555 1_555
C8 N4 1_555 1_555
C9 C8 1_555 1_555
H6 C9 1_555 1_555
C10 N5 1_555 1_555
H7 C10 1_555 1_555
N1A Fe1 1_555 1_555
N3A Fe1 1_555 1_555
N4A Fe1 1_555 1_555
N5A N4A 1_555 1_555
H1A N5A 1_555 1_555
C1A N1A 1_555 1_555
C3A N3A 1_555 1_555
H2A C3A 1_555 1_555
C4A C3A 1_555 1_555
H3A C4A 1_555 1_555
C5A C4A 1_555 1_555
H4A C5A 1_555 1_555
C6A C5A 1_555 1_555
H5A C6A 1_555 1_555
C7A N3A 1_555 1_555
C8A N4A 1_555 1_555
C9A C8A 1_555 1_555
H6A C9A 1_555 1_555
C10A N5A 1_555 1_555
H7A C10A 1_555 1_555
N2D C2D 1_555 1_555
C2D Pt1 1_555 1_555
Pt1A C1A 1_555 1_555
C1D Pt1 1_555 1_555
C6 C7 1_555 1_555
C7 C8 1_555 1_555
C9 C10 1_555 1_555
C6A C7A 1_555 1_555
C7A C8A 1_555 1_555
C9A C10A 1_555 1_555

#END
