
#######################################################################
#
#                 Cambridge Crystallographic Data Centre
#                                CCDC 
#
#######################################################################
#
# If this CIF has been generated from an entry in the Cambridge 
# Structural Database, then it will include bibliographic, chemical, 
# crystal, experimental, refinement or atomic coordinate data resulting 
# from the CCDC's data processing and validation procedures.
#
#######################################################################

data_NUHWUJ
_symmetry_cell_setting           triclinic
_symmetry_space_group_name_H-M   'P -1'
_symmetry_Int_Tables_number      2
_space_group_name_Hall           '-P 1'
loop_
_symmetry_equiv_pos_site_id
_symmetry_equiv_pos_as_xyz
1 x,y,z
2 -x,-y,-z
_cell_length_a                   11.582(2)
_cell_length_b                   11.659(1)
_cell_length_c                   12.451(2)
_cell_angle_alpha                114.660(3)
_cell_angle_beta                 107.439(2)
_cell_angle_gamma                91.639(3)
_cell_volume                     1434.68
loop_
_atom_site_label
_atom_site_type_symbol
_atom_site_fract_x
_atom_site_fract_y
_atom_site_fract_z
Cu1 Cu 0.5000 0.5000 1.0000
O1 O 0.4813(3) 0.3448(3) 0.7825(3)
V1 V 0.54258(8) 0.23071(8) 0.70487(8)
V2 V 0.47978(8) -0.06723(8) 0.58750(8)
V3 V 0.73829(8) 0.07488(8) 0.77596(8)
V4 V 0.71625(8) -0.08703(8) 0.49635(8)
V5 V 0.76981(8) 0.21113(9) 0.62063(9)
O2 O 0.6681(3) 0.3137(3) 0.6921(3)
O3 O 0.6374(3) 0.1955(3) 0.8277(3)
O4 O 0.6094(3) 0.0590(3) 0.5876(3)
O5 O 0.4110(3) 0.0826(3) 0.6477(3)
O6 O 0.4436(3) 0.1917(3) 0.5251(3)
O7 O 0.6450(3) 0.1759(3) 0.4543(3)
O8 O 0.5775(3) -0.0539(3) 0.7226(3)
O9 O 0.8164(3) 0.0698(4) 0.9036(3)
O10 O 0.8113(3) 0.0511(4) 0.5271(3)
O11 O 0.7786(4) -0.2036(4) 0.4264(4)
O12 O 0.8735(4) 0.3110(4) 0.6308(4)
O13 O 0.7759(3) -0.0677(3) 0.6598(3)
O14 O 0.8363(3) 0.1866(3) 0.7634(3)
Cu2 Cu 1.0000 0.0000 1.0000
N1 N 0.4992(4) 0.6369(4) 0.9427(4)
N2 N 0.4416(5) 0.7375(5) 0.9723(5)
H1 H 0.4003 0.7554 1.0226
N3 N 0.3156(4) 0.4619(4) 0.9398(4)
N4 N 0.2563(5) 0.3471(5) 0.8427(5)
H2 H 0.2922 0.2914 0.7997
N5 N 0.9193(4) -0.1824(4) 0.8881(4)
N6 N 0.8346(5) -0.2309(5) 0.7729(5)
H3 H 0.8083 -0.1879 0.7316
N7 N 1.0824(4) 0.0015(4) 0.8779(4)
N8 N 1.0310(4) -0.0247(5) 0.7563(4)
H4 H 0.9531 -0.0434 0.7161
C1 C 0.4568(7) 0.8066(7) 0.9132(7)
H7 H 0.4264 0.8816 0.9207
C2 C 0.5236(7) 0.7490(7) 0.8411(7)
H8 H 0.5471 0.7738 0.7877
C3 C 0.5500(7) 0.6442(7) 0.8637(7)
H9 H 0.5972 0.5867 0.8279
C4 C 0.1358(6) 0.3302(7) 0.8213(7)
H10 H 0.0778 0.2586 0.7590
C5 C 0.1144(6) 0.4344(7) 0.9055(7)
H11 H 0.0387 0.4502 0.9145
C6 C 0.2274(6) 0.5159(7) 0.9779(6)
H12 H 0.2392 0.5969 1.0439
C7 C 0.7967(7) -0.3566(6) 0.7313(6)
H13 H 0.7381 -0.4109 0.6539
C8 C 0.8573(7) -0.3900(6) 0.8197(6)
H14 H 0.8502 -0.4714 0.8160
C9 C 0.9332(7) -0.2788(6) 0.9186(7)
H15 H 0.9857 -0.2726 0.9946
C10 C 1.1155(6) -0.0181(7) 0.7060(6)
H16 H 1.1004 -0.0323 0.6233
C11 C 1.2271(6) 0.0127(7) 0.7953(6)
H17 H 1.3036 0.0233 0.7874
C12 C 1.2028(5) 0.0249(6) 0.9006(6)
H18 H 1.2629 0.0469 0.9782
Cu1_2 Cu 0.5000 -0.5000 0.0000
O1A O 0.5187(3) -0.3448(3) 0.2175(3)
O1A_2 O 0.5187(3) 0.6552(3) 1.2175(3)
V1A V 0.45742(8) -0.23071(8) 0.29513(8)
V2A V 0.52022(8) 0.06723(8) 0.41250(8)
V3A V 0.26171(8) -0.07488(8) 0.22404(8)
V4A V 0.28375(8) 0.08703(8) 0.50365(8)
V5A V 0.23019(8) -0.21113(9) 0.37937(9)
O2A O 0.3319(3) -0.3137(3) 0.3079(3)
O3A O 0.3626(3) -0.1955(3) 0.1723(3)
O4A O 0.3906(3) -0.0590(3) 0.4124(3)
O5A O 0.5890(3) -0.0826(3) 0.3523(3)
O6A O 0.5564(3) -0.1917(3) 0.4749(3)
O7A O 0.3550(3) -0.1759(3) 0.5457(3)
O8A O 0.4225(3) 0.0539(3) 0.2774(3)
O9A O 0.1836(3) -0.0698(4) 0.0964(3)
O9A_2 O 1.1836(3) -0.0698(4) 1.0964(3)
O10A O 0.1887(3) -0.0511(4) 0.4729(3)
O11A O 0.2214(4) 0.2036(4) 0.5736(4)
O12A O 0.1265(4) -0.3110(4) 0.3692(4)
O13A O 0.2241(3) 0.0677(3) 0.3402(3)
O14A O 0.1637(3) -0.1866(3) 0.2366(3)
Cu2_2 Cu 0.0000 0.0000 0.0000
N1A N 0.5008(4) 0.3631(4) 1.0573(4)
N2A N 0.5584(5) 0.2625(5) 1.0277(5)
H1A H 0.5997 0.2446 0.9774
N3A N 0.6844(4) 0.5381(4) 1.0602(4)
N4A N 0.7437(5) 0.6529(5) 1.1573(5)
H2A H 0.7078 0.7086 1.2003
N5A N 1.0807(4) 0.1824(4) 1.1119(4)
N6A N 1.1654(5) 0.2309(5) 1.2271(5)
H3A H 1.1917 0.1879 1.2684
N7A N 0.9176(4) -0.0015(4) 1.1221(4)
N8A N 0.9690(4) 0.0247(5) 1.2437(4)
H4A H 1.0469 0.0434 1.2839
C1A C 0.5432(7) 0.1934(7) 1.0868(7)
H7A H 0.5736 0.1184 1.0793
C2A C 0.4764(7) 0.2510(7) 1.1589(7)
H8A H 0.4529 0.2262 1.2123
C3A C 0.4500(7) 0.3558(7) 1.1363(7)
H9A H 0.4028 0.4133 1.1721
C4A C 0.8642(6) 0.6698(7) 1.1787(7)
H10A H 0.9222 0.7414 1.2410
C5A C 0.8856(6) 0.5656(7) 1.0945(7)
H11A H 0.9613 0.5498 1.0855
C6A C 0.7726(6) 0.4841(7) 1.0221(6)
H12A H 0.7608 0.4031 0.9561
C7A C 1.2033(7) 0.3566(6) 1.2687(6)
H13A H 1.2619 0.4109 1.3461
C8A C 1.1427(7) 0.3900(6) 1.1803(6)
H14A H 1.1498 0.4714 1.1840
C9A C 1.0668(7) 0.2788(6) 1.0814(7)
H15A H 1.0143 0.2726 1.0054
C10A C 0.8845(6) 0.0181(7) 1.2940(6)
H16A H 0.8996 0.0323 1.3767
C11A C 0.7729(6) -0.0127(7) 1.2047(6)
H17A H 0.6964 -0.0233 1.2126
C12A C 0.7972(5) -0.0249(6) 1.0994(6)
H18A H 0.7371 -0.0469 1.0218
N9 N 0.2478(7) 0.5299(7) 0.6051(7)
H5 H 0.3102 0.5062 0.5832
N10 N 0.1695(7) 0.4590(7) 0.6227(7)
H6 H 0.1727 0.3815 0.6120
C13 C 0.0867(9) 0.5253(10) 0.6589(10)
H19 H 0.0227 0.4969 0.6774
C14 C 0.1118(9) 0.6436(9) 0.6644(10)
H20 H 0.0693 0.7111 0.6884
C15 C 0.2136(8) 0.6423(8) 0.6268(8)
H21 H 0.2508 0.7084 0.6185
O15 O 0.5585(6) 0.5657(5) 0.4562(6)
loop_
_geom_bond_atom_site_label_1
_geom_bond_atom_site_label_2
_geom_bond_site_symmetry_1
_geom_bond_site_symmetry_2
Cu1 O1 1_555 1_555
O1 V1 1_555 1_555
V1 O2 1_555 1_555
V2 O4 1_555 1_555
V3 O3 1_555 1_555
V4 O4 1_555 1_555
V5 O2 1_555 1_555
O3 V1 1_555 1_555
O4 V1 1_555 1_555
O5 V1 1_555 1_555
O6 V1 1_555 1_555
O7 V5 1_555 1_555
O8 V2 1_555 1_555
O9 V3 1_555 1_555
O10 V4 1_555 1_555
O11 V4 1_555 1_555
O12 V5 1_555 1_555
O13 V3 1_555 1_555
O14 V3 1_555 1_555
Cu2 O9 1_555 1_555
N1 Cu1 1_555 1_555
N2 N1 1_555 1_555
H1 N2 1_555 1_555
N3 Cu1 1_555 1_555
N4 N3 1_555 1_555
H2 N4 1_555 1_555
N5 Cu2 1_555 1_555
N6 N5 1_555 1_555
H3 N6 1_555 1_555
N7 Cu2 1_555 1_555
N8 N7 1_555 1_555
H4 N8 1_555 1_555
N9 H5 1_555 1_555
N10 N9 1_555 1_555
H6 N10 1_555 1_555
C1 N2 1_555 1_555
H7 C1 1_555 1_555
C2 C1 1_555 1_555
H8 C2 1_555 1_555
C3 N1 1_555 1_555
H9 C3 1_555 1_555
C4 N4 1_555 1_555
H10 C4 1_555 1_555
C5 C4 1_555 1_555
H11 C5 1_555 1_555
C6 N3 1_555 1_555
H12 C6 1_555 1_555
C7 N6 1_555 1_555
H13 C7 1_555 1_555
C8 C7 1_555 1_555
H14 C8 1_555 1_555
C9 N5 1_555 1_555
H15 C9 1_555 1_555
C10 N8 1_555 1_555
H16 C10 1_555 1_555
C11 C10 1_555 1_555
H17 C11 1_555 1_555
C12 N7 1_555 1_555
H18 C12 1_555 1_555
C13 N10 1_555 1_555
H19 C13 1_555 1_555
C14 C13 1_555 1_555
H20 C14 1_555 1_555
C15 N9 1_555 1_555
H21 C15 1_555 1_555
Cu1_2 O1A 1_555 1_555
O1A V1A 1_555 1_555
O1A_2 Cu1 1_555 1_555
V1A O2A 1_555 1_555
V2A O4 1_555 1_555
V3A O3A 1_555 1_555
V4A O5 1_555 1_555
V5A O2A 1_555 1_555
O3A V1A 1_555 1_555
O4A V2 1_555 1_555
O5A V4 1_555 1_555
O6A V2 1_555 1_555
O7A V2 1_555 1_555
O8A V2A 1_555 1_555
O9A V3A 1_555 1_555
O9A_2 Cu2 1_555 1_555
O10A V4A 1_555 1_555
O11A V4A 1_555 1_555
O12A V5A 1_555 1_555
O13A V3A 1_555 1_555
O14A V3A 1_555 1_555
Cu2_2 O9A 1_555 1_555
N1A Cu1 1_555 1_555
N2A N1A 1_555 1_555
H1A N2A 1_555 1_555
N3A Cu1 1_555 1_555
N4A N3A 1_555 1_555
H2A N4A 1_555 1_555
N5A Cu2 1_555 1_555
N6A N5A 1_555 1_555
H3A N6A 1_555 1_555
N7A Cu2 1_555 1_555
N8A N7A 1_555 1_555
H4A N8A 1_555 1_555
C1A N2A 1_555 1_555
H7A C1A 1_555 1_555
C2A C1A 1_555 1_555
H8A C2A 1_555 1_555
C3A N1A 1_555 1_555
H9A C3A 1_555 1_555
C4A N4A 1_555 1_555
H10A C4A 1_555 1_555
C5A C4A 1_555 1_555
H11A C5A 1_555 1_555
C6A N3A 1_555 1_555
H12A C6A 1_555 1_555
C7A N6A 1_555 1_555
H13A C7A 1_555 1_555
C8A C7A 1_555 1_555
H14A C8A 1_555 1_555
C9A N5A 1_555 1_555
H15A C9A 1_555 1_555
C10A N8A 1_555 1_555
H16A C10A 1_555 1_555
C11A C10A 1_555 1_555
H17A C11A 1_555 1_555
C12A N7A 1_555 1_555
H18A C12A 1_555 1_555
V2 O5 1_555 1_555
V3 O4 1_555 1_555
V3 O8 1_555 1_555
V4 O13 1_555 1_555
V4 O6A 1_555 1_555
V5 O4 1_555 1_555
V5 O10 1_555 1_555
V5 O14 1_555 1_555
O6 V2A 1_555 1_555
O6 V4A 1_555 1_555
O7 V2A 1_555 1_555
C2 C3 1_555 1_555
C5 C6 1_555 1_555
C8 C9 1_555 1_555
C11 C12 1_555 1_555
C14 C15 1_555 1_555
V1A O4A 1_555 1_555
V1A O5A 1_555 1_555
V1A O6A 1_555 1_555
V2A O4A 1_555 1_555
V2A O5A 1_555 1_555
V3A O4A 1_555 1_555
V3A O8A 1_555 1_555
V4A O4A 1_555 1_555
V4A O13A 1_555 1_555
V5A O4A 1_555 1_555
V5A O7A 1_555 1_555
V5A O10A 1_555 1_555
V5A O14A 1_555 1_555
C2A C3A 1_555 1_555
C5A C6A 1_555 1_555
C8A C9A 1_555 1_555
C11A C12A 1_555 1_555

#END
