
#######################################################################
#
#                 Cambridge Crystallographic Data Centre
#                                CCDC 
#
#######################################################################
#
# If this CIF has been generated from an entry in the Cambridge 
# Structural Database, then it will include bibliographic, chemical, 
# crystal, experimental, refinement or atomic coordinate data resulting 
# from the CCDC's data processing and validation procedures.
#
#######################################################################

data_NUHWOD
_symmetry_cell_setting           triclinic
_symmetry_space_group_name_H-M   'P -1'
_symmetry_Int_Tables_number      2
_space_group_name_Hall           '-P 1'
loop_
_symmetry_equiv_pos_site_id
_symmetry_equiv_pos_as_xyz
1 x,y,z
2 -x,-y,-z
_cell_length_a                   11.6713(16)
_cell_length_b                   11.9766(16)
_cell_length_c                   12.9000(17)
_cell_angle_alpha                100.226(2)
_cell_angle_beta                 105.549(3)
_cell_angle_gamma                118.571(2)
_cell_volume                     1422.57
loop_
_atom_site_label
_atom_site_type_symbol
_atom_site_fract_x
_atom_site_fract_y
_atom_site_fract_z
V1 V 1.01837(6) 1.03491(6) 0.30009(5)
V2 V 1.00198(6) 0.86374(5) 0.46487(5)
V3 V 1.27677(6) 1.29140(6) 0.50517(5)
V4 V 1.26522(6) 1.13577(6) 0.67674(5)
V5 V 1.27942(6) 1.03332(6) 0.43972(5)
O1 O 1.1498(2) 0.9901(2) 0.2973(2)
O2 O 0.9359(3) 1.0005(3) 0.1664(2)
O3 O 1.1481(2) 1.2164(2) 0.3543(2)
O4 O 1.1239(2) 1.0694(2) 0.48990(18)
O5 O 0.8968(2) 0.8548(2) 0.31445(18)
O6 O 0.8960(2) 1.0615(2) 0.36820(19)
O7 O 1.1242(2) 0.8483(2) 0.4321(2)
O8 O 0.8780(2) 0.7077(2) 0.4549(2)
O9 O 1.3764(3) 1.4483(3) 0.5245(2)
O10 O 1.3459(2) 1.2971(2) 0.6603(2)
O11 O 1.3548(3) 1.1709(3) 0.8098(2)
O12 O 1.3823(3) 0.9942(3) 0.4058(2)
O13 O 1.3509(2) 1.0698(2) 0.60386(19)
O14 O 1.3725(2) 1.2153(2) 0.4679(2)
Cu1 Cu 1.49161(4) 0.93687(4) 0.30133(4)
N1 N 1.3535(3) 0.7407(3) 0.2713(3)
N2 N 1.3673(4) 0.6794(4) 0.3465(3)
H1 H 1.4373 0.7198 0.4132
N3 N 1.3591(3) 0.9244(3) 0.1558(3)
N4 N 1.2359(4) 0.9160(4) 0.1345(3)
H2 H 1.1990 0.9160 0.1840
N5 N 1.6255(3) 1.1331(3) 0.3332(3)
N6 N 1.7627(3) 1.1934(3) 0.3477(3)
H3 H 1.8043 1.1510 0.3422
C1 C 1.2603(5) 0.5486(5) 0.3062(5)
H6 H 1.2478 0.4878 0.3447
C2 C 1.1739(5) 0.5212(5) 0.1993(5)
H7 H 1.0907 0.4379 0.1489
C3 C 1.2335(5) 0.6417(5) 0.1796(4)
H8 H 1.1957 0.6528 0.1119
C4 C 1.3760(5) 0.9198(5) 0.0578(4)
H9 H 1.4528 0.9228 0.0465
C5 C 1.2657(6) 0.9100(5) -0.0249(4)
H10 H 1.2538 0.9060 -0.1000
C6 C 1.1776(5) 0.9075(5) 0.0268(4)
H11 H 1.0925 0.9012 -0.0067
C7 C 1.6036(5) 1.2337(5) 0.3468(5)
H12 H 1.5173 1.2225 0.3410
C8 C 1.7254(6) 1.3548(5) 0.3702(5)
H13 H 1.7377 1.4395 0.3828
C9 C 1.8258(5) 1.3261(5) 0.3715(5)
H14 H 1.9207 1.3883 0.3863
V1A V 0.98163(6) 0.96509(6) 0.69991(5)
V2A V 0.99802(6) 1.13626(5) 0.53513(5)
V3A V 0.72323(6) 0.70860(6) 0.49483(5)
V4A V 0.73478(6) 0.86423(6) 0.32326(5)
V5A V 0.72058(6) 0.96668(6) 0.56028(5)
O1A O 0.8502(2) 1.0099(2) 0.7027(2)
O2A O 1.0641(3) 0.9995(3) 0.8336(2)
O3A O 0.8519(2) 0.7836(2) 0.6457(2)
O4A O 0.8761(2) 0.9306(2) 0.51010(18)
O5A O 1.1032(2) 1.1452(2) 0.68555(18)
O6A O 1.1040(2) 0.9385(2) 0.63180(19)
O7A O 0.8758(2) 1.1517(2) 0.5679(2)
O8A O 1.1220(2) 1.2923(2) 0.5451(2)
O9A O 0.6236(3) 0.5517(3) 0.4755(2)
O10A O 0.6541(2) 0.7029(2) 0.3397(2)
O11A O 0.6452(3) 0.8291(3) 0.1902(2)
O12A O 0.6177(3) 1.0058(3) 0.5942(2)
O12A_2 O 1.6177(3) 1.0058(3) 0.5942(2)
O13A O 0.6491(2) 0.9302(2) 0.39614(19)
O13A_2 O 1.6491(2) 0.9302(2) 0.39614(19)
O14A O 0.6275(2) 0.7847(2) 0.5321(2)
Cu1A Cu 1.50839(4) 1.06313(4) 0.69867(4)
Cu1_2 Cu 0.49161(4) 0.93687(4) 0.30133(4)
Cu1A_2 Cu 0.50839(4) 1.06313(4) 0.69867(4)
N1A N 1.6465(3) 1.2593(3) 0.7287(3)
N2A N 1.6327(4) 1.3206(4) 0.6535(3)
H1A H 1.5627 1.2802 0.5868
N3A N 1.6409(3) 1.0756(3) 0.8442(3)
N4A N 1.7641(4) 1.0840(4) 0.8655(3)
H2A H 1.8010 1.0840 0.8160
N5A N 1.3745(3) 0.8669(3) 0.6668(3)
N6A N 1.2373(3) 0.8066(3) 0.6523(3)
H3A H 1.1957 0.8490 0.6578
C1A C 1.7397(5) 1.4514(5) 0.6938(5)
H6A H 1.7522 1.5122 0.6553
C2A C 1.8261(5) 1.4788(5) 0.8007(5)
H7A H 1.9093 1.5621 0.8511
C3A C 1.7665(5) 1.3583(5) 0.8204(4)
H8A H 1.8043 1.3472 0.8881
C4A C 1.6240(5) 1.0802(5) 0.9422(4)
H9A H 1.5472 1.0772 0.9535
C5A C 1.7343(6) 1.0900(5) 1.0249(4)
H10A H 1.7462 1.0940 1.1000
C6A C 1.8224(5) 1.0925(5) 0.9732(4)
H11A H 1.9075 1.0988 1.0067
C7A C 1.3964(5) 0.7663(5) 0.6532(5)
H12A H 1.4827 0.7775 0.6590
C8A C 1.2746(6) 0.6452(5) 0.6298(5)
H13A H 1.2623 0.5605 0.6172
C9A C 1.1742(5) 0.6739(5) 0.6285(5)
H14A H 1.0793 0.6117 0.6137
Cu2 Cu 0.5000 0.5000 0.0000
N7 N 0.3973(4) 0.3967(3) 0.0828(3)
N8 N 0.4474(4) 0.4362(3) 0.1986(3)
H4 H 0.5247 0.5128 0.2453
N9 N 0.6701(4) 0.5042(4) 0.0901(3)
N10 N 0.7998(4) 0.6053(4) 0.1697(3)
H5 H 0.8236 0.6870 0.2014
C10 C 0.3626(4) 0.3419(4) 0.2314(4)
H15 H 0.3751 0.3479 0.3069
C11 C 0.2540(5) 0.2350(5) 0.1340(4)
H16 H 0.1791 0.1529 0.1294
C12 C 0.2779(5) 0.2732(5) 0.0438(4)
H17 H 0.2189 0.2202 -0.0338
C13 C 0.8870(6) 0.5638(5) 0.1934(5)
H18 H 0.9822 0.6169 0.2457
C14 C 0.8125(7) 0.4300(6) 0.1279(5)
H19 H 0.8455 0.3730 0.1261
C15 C 0.6777(6) 0.3963(5) 0.0643(5)
H20 H 0.6027 0.3103 0.0108
N7A N 0.6027(4) 0.6033(3) -0.0828(3)
N8A N 0.5526(4) 0.5638(3) -0.1986(3)
H4A H 0.4753 0.4872 -0.2453
N9A N 0.3299(4) 0.4958(4) -0.0901(3)
N10A N 0.2002(4) 0.3947(4) -0.1697(3)
H5A H 0.1764 0.3130 -0.2014
C10A C 0.6374(4) 0.6581(4) -0.2314(4)
H15A H 0.6249 0.6521 -0.3069
C11A C 0.7460(5) 0.7650(5) -0.1340(4)
H16A H 0.8209 0.8471 -0.1294
C12A C 0.7221(5) 0.7268(5) -0.0438(4)
H17A H 0.7811 0.7798 0.0338
C13A C 0.1130(6) 0.4362(5) -0.1934(5)
H18A H 0.0178 0.3831 -0.2457
C14A C 0.1875(7) 0.5700(6) -0.1279(5)
H19A H 0.1545 0.6270 -0.1261
C15A C 0.3223(6) 0.6037(5) -0.0643(5)
H20A H 0.3973 0.6897 -0.0108
loop_
_geom_bond_atom_site_label_1
_geom_bond_atom_site_label_2
_geom_bond_site_symmetry_1
_geom_bond_site_symmetry_2
V1 O1 1_555 1_555
V2 O4 1_555 1_555
V3 O3 1_555 1_555
V4 O4 1_555 1_555
V5 O1 1_555 1_555
O2 V1 1_555 1_555
O3 V1 1_555 1_555
O4 V1 1_555 1_555
O5 V1 1_555 1_555
O6 V1 1_555 1_555
O7 V2 1_555 1_555
O8 V2 1_555 1_555
O9 V3 1_555 1_555
O10 V3 1_555 1_555
O11 V4 1_555 1_555
O12 V5 1_555 1_555
O13 V4 1_555 1_555
O14 V3 1_555 1_555
Cu1 O12 1_555 1_555
Cu2 N7 1_555 1_555
N1 Cu1 1_555 1_555
N2 N1 1_555 1_555
H1 N2 1_555 1_555
N3 Cu1 1_555 1_555
N4 N3 1_555 1_555
H2 N4 1_555 1_555
N5 Cu1 1_555 1_555
N6 N5 1_555 1_555
H3 N6 1_555 1_555
N7 N8 1_555 1_555
N8 H4 1_555 1_555
N9 Cu2 1_555 1_555
N10 N9 1_555 1_555
H5 N10 1_555 1_555
C1 N2 1_555 1_555
H6 C1 1_555 1_555
C2 C1 1_555 1_555
H7 C2 1_555 1_555
C3 N1 1_555 1_555
H8 C3 1_555 1_555
C4 N3 1_555 1_555
H9 C4 1_555 1_555
C5 C4 1_555 1_555
H10 C5 1_555 1_555
C6 N4 1_555 1_555
H11 C6 1_555 1_555
C7 N5 1_555 1_555
H12 C7 1_555 1_555
C8 C7 1_555 1_555
H13 C8 1_555 1_555
C9 N6 1_555 1_555
H14 C9 1_555 1_555
C10 N8 1_555 1_555
H15 C10 1_555 1_555
C11 C10 1_555 1_555
H16 C11 1_555 1_555
C12 N7 1_555 1_555
H17 C12 1_555 1_555
C13 N10 1_555 1_555
H18 C13 1_555 1_555
C14 C13 1_555 1_555
H19 C14 1_555 1_555
C15 N9 1_555 1_555
H20 C15 1_555 1_555
V1A O1A 1_555 1_555
V2A O4 1_555 1_555
V3A O8 1_555 1_555
V4A O5 1_555 1_555
V5A O1A 1_555 1_555
O2A V1A 1_555 1_555
O3A V1A 1_555 1_555
O4A V2 1_555 1_555
O5A V4 1_555 1_555
O6A V2 1_555 1_555
O7A V2A 1_555 1_555
O8A V3 1_555 1_555
O9A V3A 1_555 1_555
O10A V3A 1_555 1_555
O11A V4A 1_555 1_555
O12A V5A 1_555 1_555
O12A_2 Cu1A 1_555 1_555
O13A V4A 1_555 1_555
O13A_2 Cu1 1_555 1_555
O14A V3A 1_555 1_555
Cu1A O13 1_555 1_555
Cu1_2 O13A 1_555 1_555
Cu1A_2 O12A 1_555 1_555
N1A Cu1A 1_555 1_555
N2A N1A 1_555 1_555
H1A N2A 1_555 1_555
N3A Cu1A 1_555 1_555
N4A N3A 1_555 1_555
H2A N4A 1_555 1_555
N5A Cu1A 1_555 1_555
N6A N5A 1_555 1_555
H3A N6A 1_555 1_555
N7A Cu2 1_555 1_555
N8A N7A 1_555 1_555
H4A N8A 1_555 1_555
N9A Cu2 1_555 1_555
N10A N9A 1_555 1_555
H5A N10A 1_555 1_555
C1A N2A 1_555 1_555
H6A C1A 1_555 1_555
C2A C1A 1_555 1_555
H7A C2A 1_555 1_555
C3A N1A 1_555 1_555
H8A C3A 1_555 1_555
C4A N3A 1_555 1_555
H9A C4A 1_555 1_555
C5A C4A 1_555 1_555
H10A C5A 1_555 1_555
C6A N4A 1_555 1_555
H11A C6A 1_555 1_555
C7A N5A 1_555 1_555
H12A C7A 1_555 1_555
C8A C7A 1_555 1_555
H13A C8A 1_555 1_555
C9A N6A 1_555 1_555
H14A C9A 1_555 1_555
C10A N8A 1_555 1_555
H15A C10A 1_555 1_555
C11A C10A 1_555 1_555
H16A C11A 1_555 1_555
C12A N7A 1_555 1_555
H17A C12A 1_555 1_555
C13A N10A 1_555 1_555
H18A C13A 1_555 1_555
C14A C13A 1_555 1_555
H19A C14A 1_555 1_555
C15A N9A 1_555 1_555
H20A C15A 1_555 1_555
V2 O5 1_555 1_555
V3 O4 1_555 1_555
V4 O10 1_555 1_555
V4 O6A 1_555 1_555
V5 O4 1_555 1_555
V5 O7 1_555 1_555
V5 O13 1_555 1_555
V5 O14 1_555 1_555
O6 V2A 1_555 1_555
O6 V4A 1_555 1_555
C2 C3 1_555 1_555
C5 C6 1_555 1_555
C8 C9 1_555 1_555
C11 C12 1_555 1_555
C14 C15 1_555 1_555
V1A O4A 1_555 1_555
V1A O5A 1_555 1_555
V1A O6A 1_555 1_555
V2A O4A 1_555 1_555
V2A O5A 1_555 1_555
V2A O8A 1_555 1_555
V3A O3A 1_555 1_555
V3A O4A 1_555 1_555
V4A O4A 1_555 1_555
V4A O10A 1_555 1_555
V5A O4A 1_555 1_555
V5A O7A 1_555 1_555
V5A O13A 1_555 1_555
V5A O14A 1_555 1_555
C2A C3A 1_555 1_555
C5A C6A 1_555 1_555
C8A C9A 1_555 1_555
C11A C12A 1_555 1_555
C14A C15A 1_555 1_555

#END
