
#######################################################################
#
#                 Cambridge Crystallographic Data Centre
#                                CCDC 
#
#######################################################################
#
# If this CIF has been generated from an entry in the Cambridge 
# Structural Database, then it will include bibliographic, chemical, 
# crystal, experimental, refinement or atomic coordinate data resulting 
# from the CCDC's data processing and validation procedures.
#
#######################################################################

data_NUHWUI
_symmetry_cell_setting           monoclinic
_symmetry_space_group_name_H-M   'C c'
_symmetry_Int_Tables_number      9
_space_group_name_Hall           'C -2yc'
loop_
_symmetry_equiv_pos_site_id
_symmetry_equiv_pos_as_xyz
1 x,y,z
2 x,-y,1/2+z
3 1/2+x,1/2+y,z
4 1/2+x,1/2-y,1/2+z
_cell_length_a                   12.824(2)
_cell_length_b                   15.794(4)
_cell_length_c                   9.796(2)
_cell_angle_alpha                90
_cell_angle_beta                 117.50(1)
_cell_angle_gamma                90
_cell_volume                     1759.92
loop_
_atom_site_label
_atom_site_type_symbol
_atom_site_fract_x
_atom_site_fract_y
_atom_site_fract_z
N1 N 0.5450(5) 0.5366(3) 0.3937(6)
O1 O 0.5277(4) 0.5285(3) 0.2594(5)
O2 O 0.5968(6) 0.4768(4) 0.4865(6)
O3 O 0.5156(7) 0.6006(4) 0.4380(8)
Sb1 Sb 0.50000 0.24857(2) 0.25000
C1 C 0.3642(5) 0.2578(3) 0.3181(6)
C2 C 0.3858(7) 0.3151(4) 0.4389(8)
C3 C 0.3053(9) 0.3195(6) 0.496(1)
C4 C 0.2036(7) 0.2709(6) 0.4342(9)
C5 C 0.1852(6) 0.2160(5) 0.3157(9)
C6 C 0.2652(5) 0.2092(4) 0.2581(7)
C7 C 0.6062(4) 0.1554(3) 0.4134(6)
C8 C 0.7036(5) 0.1229(4) 0.4051(7)
C9 C 0.7719(6) 0.0605(4) 0.5080(8)
C10 C 0.7438(6) 0.0334(4) 0.6209(7)
C11 C 0.6500(6) 0.0657(5) 0.6303(8)
C12 C 0.5800(5) 0.1267(4) 0.5271(7)
C13 C 0.4200(5) 0.1668(3) 0.0565(6)
C14 C 0.3868(7) 0.1950(5) -0.0918(8)
C15 C 0.3332(7) 0.1407(6) -0.2162(7)
C16 C 0.3101(6) 0.0576(5) -0.1950(8)
C17 C 0.3446(6) 0.0274(6) -0.0458(9)
C18 C 0.3993(6) 0.0829(4) 0.0781(7)
H1 H 0.450(7) 0.342(5) 0.468(9)
H2 H 0.322(7) 0.352(5) 0.566(9)
H3 H 0.145(8) 0.283(6) 0.50(1)
H4 H 0.115(5) 0.186(3) 0.268(6)
H5 H 0.249(6) 0.173(5) 0.164(9)
H6 H 0.718(5) 0.143(4) 0.322(6)
H7 H 0.849(7) 0.045(5) 0.530(9)
H8 H 0.787(9) -0.003(6) 0.69(1)
H9 H 0.624(7) 0.052(5) 0.72(1)
H10 H 0.527(6) 0.144(4) 0.537(7)
H11 H 0.406(8) 0.238(5) -0.10(1)
H12 H 0.322(6) 0.166(4) -0.303(8)
H13 H 0.266(6) 0.017(5) -0.298(9)
H14 H 0.338(5) -0.033(6) -0.028(6)
H15 H 0.421(6) 0.064(5) 0.175(9)
Ag1 Ag 0.58884(7) 0.39432(3) 0.21969(9)
Ag1A Ag 0.58884(7) 0.60568(3) 0.71969(9)
O3A O 0.5156(7) 0.3994(4) -0.0620(8)
loop_
_geom_bond_atom_site_label_1
_geom_bond_atom_site_label_2
_geom_bond_site_symmetry_1
_geom_bond_site_symmetry_2
N1 O1 1_555 1_555
O1 Ag1 1_555 1_555
O2 N1 1_555 1_555
O3 N1 1_555 1_555
Sb1 C1 1_555 1_555
C1 C2 1_555 1_555
C2 C3 1_555 1_555
C3 C4 1_555 1_555
C4 C5 1_555 1_555
C5 C6 1_555 1_555
C6 C1 1_555 1_555
C7 Sb1 1_555 1_555
C8 C7 1_555 1_555
C9 C8 1_555 1_555
C10 C9 1_555 1_555
C11 C10 1_555 1_555
C12 C7 1_555 1_555
C13 Sb1 1_555 1_555
C14 C13 1_555 1_555
C15 C14 1_555 1_555
C16 C15 1_555 1_555
C17 C16 1_555 1_555
C18 C13 1_555 1_555
H1 C2 1_555 1_555
H2 C3 1_555 1_555
H3 C4 1_555 1_555
H4 C5 1_555 1_555
H5 C6 1_555 1_555
H6 C8 1_555 1_555
H7 C9 1_555 1_555
H8 C10 1_555 1_555
H9 C11 1_555 1_555
H10 C12 1_555 1_555
H11 C14 1_555 1_555
H12 C15 1_555 1_555
H13 C16 1_555 1_555
H14 C17 1_555 1_555
H15 C18 1_555 1_555
Ag1 O2 1_555 1_555
Ag1A O3 1_555 1_555
O3A Ag1 1_555 1_555
Sb1 Ag1 1_555 1_555
C11 C12 1_555 1_555
C17 C18 1_555 1_555

#END
