
#######################################################################
#
#                 Cambridge Crystallographic Data Centre
#                                CCDC 
#
#######################################################################
#
# If this CIF has been generated from an entry in the Cambridge 
# Structural Database, then it will include bibliographic, chemical, 
# crystal, experimental, refinement or atomic coordinate data resulting 
# from the CCDC's data processing and validation procedures.
#
#######################################################################

data_NUHYAS
_symmetry_cell_setting           triclinic
_symmetry_space_group_name_H-M   'P -1'
_symmetry_Int_Tables_number      2
_space_group_name_Hall           '-P 1'
loop_
_symmetry_equiv_pos_site_id
_symmetry_equiv_pos_as_xyz
1 x,y,z
2 -x,-y,-z
_cell_length_a                   7.7881(16)
_cell_length_b                   10.068(2)
_cell_length_c                   10.701(2)
_cell_angle_alpha                76.32(3)
_cell_angle_beta                 71.85(3)
_cell_angle_gamma                69.04(3)
_cell_volume                     737.132
loop_
_atom_site_label
_atom_site_type_symbol
_atom_site_fract_x
_atom_site_fract_y
_atom_site_fract_z
Co1 Co 0.35360(3) 0.88654(3) 0.95059(3)
O1 O 0.17421(18) 0.84144(13) 0.84481(15)
O2 O 0.36528(19) 0.67432(14) 0.95255(16)
O3 O 0.5761(3) 0.8671(2) 0.7784(3)
H1 H 0.6626 0.7933 0.7903
H2 H 0.5963 0.9053 0.6956
O4 O 0.1151(2) 0.90391(17) 1.12219(16)
H3 H 0.1295 0.9422 1.1763
H4 H 0.0226 0.9509 1.0873
O5 O 0.4766(2) 0.15949(16) 0.92767(19)
O6 O 0.24346(17) 0.10313(13) 0.90107(15)
O7 O -0.14854(17) 0.58418(14) 0.69279(14)
C1 C 0.2453(2) 0.71014(19) 0.88631(19)
C2 C 0.1874(2) 0.59779(18) 0.85440(17)
C3 C 0.2768(2) 0.45295(18) 0.89264(18)
H5 H 0.3714 0.4265 0.9375
C4 C 0.2236(2) 0.34927(18) 0.86334(18)
C5 C 0.0788(2) 0.38946(18) 0.79799(18)
H6 H 0.0407 0.3196 0.7804
C6 C -0.0077(2) 0.53316(19) 0.75949(18)
C7 C 0.0474(2) 0.63761(19) 0.78700(18)
H7 H -0.0098 0.7342 0.7601
C8 C 0.3203(2) 0.19309(19) 0.9027(2)
C9 C -0.2135(3) 0.4810(2) 0.6632(2)
H8 H -0.2713 0.4295 0.7447
H9 H -0.1077 0.4120 0.6130
C10 C -0.3570(2) 0.5622(2) 0.58289(19)
H10 H -0.3000 0.6184 0.5048
H11 H -0.4642 0.6280 0.6355
C11 C -0.4270(2) 0.4606(2) 0.5400(2)
H12 H -0.3195 0.3953 0.4870
H13 H -0.4822 0.4037 0.6183
O1A O -1.17421(18) 0.15856(13) 0.15519(15)
O2A O -1.36528(19) 0.32568(14) 0.04745(16)
O5A O -1.4766(2) 0.84051(16) 0.07233(19)
O6A O -1.24346(17) 0.89687(13) 0.09893(15)
O7A O -0.85146(17) 0.41582(14) 0.30721(14)
C1A C -1.2453(2) 0.28986(19) 0.11369(19)
C2A C -1.1874(2) 0.40221(18) 0.14560(17)
C3A C -1.2768(2) 0.54705(18) 0.10736(18)
H5A H -1.3714 0.5735 0.0625
C4A C -1.2236(2) 0.65073(18) 0.13666(18)
C5A C -1.0788(2) 0.61054(18) 0.20201(18)
H6A H -1.0407 0.6804 0.2196
C6A C -0.9923(2) 0.46684(19) 0.24051(18)
C7A C -1.0474(2) 0.36239(19) 0.21300(18)
H7A H -0.9902 0.2658 0.2399
C8A C -1.3203(2) 0.80691(19) 0.0973(2)
C9A C -0.7865(3) 0.5190(2) 0.3368(2)
H8A H -0.7287 0.5705 0.2553
H9A H -0.8923 0.5880 0.3870
C10A C -0.6430(2) 0.4378(2) 0.41711(19)
H10A H -0.7000 0.3816 0.4952
H11A H -0.5358 0.3720 0.3645
C11A C -0.5730(2) 0.5394(2) 0.4600(2)
H12A H -0.6805 0.6047 0.5130
H13A H -0.5178 0.5963 0.3817
Co1A Co -1.35360(3) 0.11346(3) 0.04941(3)
O3A O -1.5761(3) 0.1329(2) 0.2216(3)
H1A H -1.6626 0.2067 0.2097
H2A H -1.5963 0.0947 0.3044
O4A O -1.1151(2) 0.09609(17) -0.12219(16)
H3A H -1.1295 0.0578 -0.1763
H4A H -1.0226 0.0491 -0.0873
Co1_2 Co -1.64640(3) 0.88654(3) -0.04941(3)
Co1_3 Co 0.35360(3) -0.11346(3) 0.95059(3)
Co1A_2 Co -1.35360(3) 1.11346(3) 0.04941(3)
Co1A_3 Co 0.64640(3) 0.11346(3) 1.04941(3)
O5_2 O -1.5234(2) 0.15949(16) -0.07233(19)
O5A_2 O 0.5234(2) 0.84051(16) 1.07233(19)
O6_2 O 0.24346(17) 1.10313(13) 0.90107(15)
O6A_2 O -1.24346(17) -0.10313(13) 0.09893(15)
O8 O 0.2240(8) 0.9504(5) 0.3574(7)
H14 H 0.2238 0.8644 0.3907
H15 H 0.3206 0.9528 0.2924
O9 O 0.7225(14) 0.9225(8) 0.5270(18)
H16 H 0.7435 0.8440 0.5057
C12 C 0.7562(16) 1.0097(13) 0.4247(6)
H17 H 0.6594 1.1009 0.4336
H18 H 0.7575 0.9740 0.3487
H19 H 0.8776 1.0211 0.4135
loop_
_geom_bond_atom_site_label_1
_geom_bond_atom_site_label_2
_geom_bond_site_symmetry_1
_geom_bond_site_symmetry_2
Co1 O1 1_555 1_555
O1 C1 1_555 1_555
O2 Co1 1_555 1_555
O3 Co1 1_555 1_555
H1 O3 1_555 1_555
H2 O3 1_555 1_555
O4 Co1 1_555 1_555
H3 O4 1_555 1_555
H4 O4 1_555 1_555
O5 C8 1_555 1_555
O6 C8 1_555 1_555
O7 C6 1_555 1_555
C1 O2 1_555 1_555
C2 C1 1_555 1_555
C3 C2 1_555 1_555
H5 C3 1_555 1_555
C4 C3 1_555 1_555
C5 C4 1_555 1_555
H6 C5 1_555 1_555
C6 C5 1_555 1_555
C7 C2 1_555 1_555
H7 C7 1_555 1_555
C8 C4 1_555 1_555
C9 O7 1_555 1_555
H8 C9 1_555 1_555
H9 C9 1_555 1_555
C10 C9 1_555 1_555
H10 C10 1_555 1_555
H11 C10 1_555 1_555
C11 C10 1_555 1_555
H12 C11 1_555 1_555
H13 C11 1_555 1_555
O8 H14 1_555 1_555
H15 O8 1_555 1_555
O9 H16 1_555 1_555
C12 O9 1_555 1_555
H17 C12 1_555 1_555
H18 C12 1_555 1_555
H19 C12 1_555 1_555
O1A C1A 1_555 1_555
O2A C1A 1_555 1_555
O5A C8A 1_555 1_555
O6A C8A 1_555 1_555
O7A C6A 1_555 1_555
C1A C2A 1_555 1_555
C2A C3A 1_555 1_555
C3A H5A 1_555 1_555
C4A C3A 1_555 1_555
C5A C4A 1_555 1_555
H6A C5A 1_555 1_555
C6A C5A 1_555 1_555
C7A C2A 1_555 1_555
H7A C7A 1_555 1_555
C8A C4A 1_555 1_555
C9A O7A 1_555 1_555
H8A C9A 1_555 1_555
H9A C9A 1_555 1_555
C10A C9A 1_555 1_555
H10A C10A 1_555 1_555
H11A C10A 1_555 1_555
C11A C11 1_555 1_555
H12A C11A 1_555 1_555
H13A C11A 1_555 1_555
Co1A O1A 1_555 1_555
O3A Co1A 1_555 1_555
H1A O3A 1_555 1_555
H2A O3A 1_555 1_555
O4A Co1A 1_555 1_555
H3A O4A 1_555 1_555
H4A O4A 1_555 1_555
Co1_2 O5A 1_555 1_555
Co1_3 O6 1_555 1_555
Co1A_2 O6A 1_555 1_555
Co1A_3 O5 1_555 1_555
O5_2 Co1A 1_555 1_555
O5A_2 Co1 1_555 1_555
O6_2 Co1 1_555 1_555
O6A_2 Co1A 1_555 1_555
C6 C7 1_555 1_555
O2A Co1A 1_555 1_555
C6A C7A 1_555 1_555
C10A C11A 1_555 1_555

#END
