
#######################################################################
#
#                 Cambridge Crystallographic Data Centre
#                                CCDC 
#
#######################################################################
#
# If this CIF has been generated from an entry in the Cambridge 
# Structural Database, then it will include bibliographic, chemical, 
# crystal, experimental, refinement or atomic coordinate data resulting 
# from the CCDC's data processing and validation procedures.
#
#######################################################################

data_NUHYOF
_symmetry_cell_setting           orthorhombic
_symmetry_space_group_name_H-M   'P 21 21 21'
_symmetry_Int_Tables_number      19
_space_group_name_Hall           'P 2ac 2ab'
loop_
_symmetry_equiv_pos_site_id
_symmetry_equiv_pos_as_xyz
1 x,y,z
2 1/2-x,-y,1/2+z
3 1/2+x,1/2-y,-z
4 -x,1/2+y,1/2-z
_cell_length_a                   7.6241(10)
_cell_length_b                   15.4069(19)
_cell_length_c                   25.531(3)
_cell_angle_alpha                90
_cell_angle_beta                 90
_cell_angle_gamma                90
_cell_volume                     2998.97
loop_
_atom_site_label
_atom_site_type_symbol
_atom_site_fract_x
_atom_site_fract_y
_atom_site_fract_z
Cu1 Cu -0.02437(5) 0.23607(3) 0.693467(15)
O1 O 0.1378(3) 0.15166(15) 0.66444(9)
O2 O 0.3553(3) 0.24533(15) 0.64787(9)
O3 O 0.6160(4) 0.13634(16) 0.70815(9)
O4 O 0.8008(3) 0.18596(16) 0.64686(9)
O5 O 0.7207(4) -0.14427(16) 0.29651(10)
H1 H 0.7658 -0.1394 0.2675
O6 O 0.6485(4) -0.00701(19) 0.28309(11)
O7 O 0.7694(4) 0.09732(17) 0.37035(15)
H2 H 0.7966 0.1483 0.3661
O8 O 0.5007(4) 0.15198(16) 0.36922(10)
N1 N -0.1789(4) 0.32558(18) 0.72504(11)
N2 N 0.1251(4) 0.2695(2) 0.75500(10)
C1 C 0.2860(5) 0.1727(2) 0.64548(13)
C2 C 0.3828(5) 0.1027(2) 0.61621(12)
C3 C 0.2930(5) 0.0495(2) 0.58175(12)
H3 H 0.1712 0.0523 0.5802
C4 C 0.3826(5) -0.0082(2) 0.54943(12)
C5 C 0.5647(5) -0.0114(2) 0.55274(13)
H4 H 0.6264 -0.0495 0.5314
C6 C 0.6552(5) 0.0412(2) 0.58718(13)
H5 H 0.7770 0.0386 0.5886
C7 C 0.5646(4) 0.0984(2) 0.61996(12)
C8 C 0.6669(5) 0.1448(2) 0.66209(13)
C9 C 0.6501(5) -0.0712(2) 0.30989(14)
C10 C 0.5652(5) -0.0728(2) 0.36302(12)
C11 C 0.5043(6) -0.1503(2) 0.38359(12)
H6 H 0.5229 -0.2015 0.3652
C12 C 0.4163(5) -0.1530(2) 0.43111(13)
H7 H 0.3763 -0.2058 0.4441
C13 C 0.3875(5) -0.0773(2) 0.45929(12)
C14 C 0.4463(5) 0.0008(2) 0.43845(12)
H8 H 0.4254 0.0521 0.4566
C15 C 0.5357(5) 0.0036(2) 0.39112(12)
C16 C 0.5991(5) 0.0910(2) 0.37423(14)
C17 C 0.0993(5) -0.0502(3) 0.50035(16)
C18 C 0.2908(5) -0.0733(2) 0.51238(13)
C19 C 0.2939(6) -0.1616(2) 0.54100(14)
C20 C -0.3315(5) 0.3520(2) 0.70574(16)
H9 H -0.3797 0.3217 0.6777
C21 C -0.4216(6) 0.4225(3) 0.72533(17)
H10 H -0.5285 0.4391 0.7109
C22 C -0.3509(6) 0.4673(3) 0.76630(17)
H11 H -0.4095 0.5148 0.7804
C23 C -0.1925(6) 0.4415(2) 0.78648(15)
H12 H -0.1422 0.4720 0.8141
C24 C -0.1080(5) 0.3704(2) 0.76573(13)
C25 C 0.0629(5) 0.3373(2) 0.78264(13)
C26 C 0.1554(6) 0.3692(3) 0.82521(15)
H13 H 0.1114 0.4158 0.8443
C27 C 0.3111(7) 0.3320(3) 0.83916(17)
H14 H 0.3746 0.3535 0.8674
C28 C 0.3725(5) 0.2631(3) 0.81126(15)
H15 H 0.4776 0.2365 0.8204
C29 C 0.2768(5) 0.2337(3) 0.76947(14)
H16 H 0.3194 0.1868 0.7504
F1 F 0.0346(3) -0.09970(18) 0.46226(10)
F2 F 0.0852(3) 0.03188(18) 0.48466(9)
F3 F -0.0072(3) -0.06002(17) 0.54171(10)
F4 F 0.1969(3) -0.22248(15) 0.51803(9)
F5 F 0.2348(4) -0.15404(15) 0.59023(8)
F6 F 0.4553(4) -0.19379(13) 0.54451(8)
Cu1_2 Cu 0.97563(5) 0.23607(3) 0.693467(15)
Cu1B Cu 0.47563(5) 0.26393(3) 0.306533(15)
O4_2 O -0.1992(3) 0.18596(16) 0.64686(9)
O8B O 0.0007(4) 0.34802(16) 0.63078(10)
O9 O 0.559(10) 0.250(2) 0.4735(9)
O10 O 0.278(8) 0.2337(14) 0.4733(6)
loop_
_geom_bond_atom_site_label_1
_geom_bond_atom_site_label_2
_geom_bond_site_symmetry_1
_geom_bond_site_symmetry_2
Cu1 O1 1_555 1_555
O1 C1 1_555 1_555
O2 C1 1_555 1_555
O3 C8 1_555 1_555
O4 C8 1_555 1_555
O5 H1 1_555 1_555
O6 C9 1_555 1_555
O7 H2 1_555 1_555
O8 C16 1_555 1_555
N1 Cu1 1_555 1_555
N2 Cu1 1_555 1_555
C1 C2 1_555 1_555
C2 C3 1_555 1_555
C3 H3 1_555 1_555
C4 C3 1_555 1_555
C5 C4 1_555 1_555
H4 C5 1_555 1_555
C6 C5 1_555 1_555
H5 C6 1_555 1_555
C7 C2 1_555 1_555
C8 C7 1_555 1_555
C9 O5 1_555 1_555
C10 C9 1_555 1_555
C11 C10 1_555 1_555
H6 C11 1_555 1_555
C12 C11 1_555 1_555
H7 C12 1_555 1_555
C13 C12 1_555 1_555
C14 C13 1_555 1_555
H8 C14 1_555 1_555
C15 C10 1_555 1_555
C16 O7 1_555 1_555
C17 C18 1_555 1_555
C18 C4 1_555 1_555
C19 C18 1_555 1_555
C20 N1 1_555 1_555
H9 C20 1_555 1_555
C21 C20 1_555 1_555
H10 C21 1_555 1_555
C22 C21 1_555 1_555
H11 C22 1_555 1_555
C23 C22 1_555 1_555
H12 C23 1_555 1_555
C24 N1 1_555 1_555
C25 N2 1_555 1_555
C26 C25 1_555 1_555
H13 C26 1_555 1_555
C27 C26 1_555 1_555
H14 C27 1_555 1_555
C28 C27 1_555 1_555
H15 C28 1_555 1_555
C29 N2 1_555 1_555
H16 C29 1_555 1_555
F1 C17 1_555 1_555
F2 C17 1_555 1_555
F3 C17 1_555 1_555
F4 C19 1_555 1_555
F5 C19 1_555 1_555
F6 C19 1_555 1_555
Cu1_2 O4 1_555 1_555
Cu1B O8 1_555 1_555
O4_2 Cu1 1_555 1_555
O8B Cu1 1_555 1_555
C6 C7 1_555 1_555
C13 C18 1_555 1_555
C14 C15 1_555 1_555
C15 C16 1_555 1_555
C23 C24 1_555 1_555
C24 C25 1_555 1_555
C28 C29 1_555 1_555

#END
