
#######################################################################
#
#                 Cambridge Crystallographic Data Centre
#                                CCDC 
#
#######################################################################
#
# If this CIF has been generated from an entry in the Cambridge 
# Structural Database, then it will include bibliographic, chemical, 
# crystal, experimental, refinement or atomic coordinate data resulting 
# from the CCDC's data processing and validation procedures.
#
#######################################################################

data_NUHYIZ
_symmetry_cell_setting           monoclinic
_symmetry_space_group_name_H-M   'P 21/n'
_symmetry_Int_Tables_number      14
_space_group_name_Hall           '-P 2yn'
loop_
_symmetry_equiv_pos_site_id
_symmetry_equiv_pos_as_xyz
1 x,y,z
2 1/2-x,1/2+y,1/2-z
3 -x,-y,-z
4 1/2+x,1/2-y,1/2+z
_cell_length_a                   23.3370(17)
_cell_length_b                   13.4290(10)
_cell_length_c                   29.654(2)
_cell_angle_alpha                90
_cell_angle_beta                 108.503(1)
_cell_angle_gamma                90
_cell_volume                     8812.94
loop_
_atom_site_label
_atom_site_type_symbol
_atom_site_fract_x
_atom_site_fract_y
_atom_site_fract_z
Cu1 Cu -0.212423(15) 1.24164(2) 0.011227(11)
Cu2 Cu -0.044760(16) 1.26121(3) -0.442380(11)
Cu3 Cu -0.37083(2) 1.29111(4) -0.464700(15)
N1 N -0.40059(12) 1.1566(2) -0.48980(9)
N2 N -0.43044(12) 1.3347(2) -0.52662(10)
N3 N -0.09512(10) 1.31443(18) -0.50553(8)
N4 N -0.06599(11) 1.13052(19) -0.47662(8)
N5 N -0.24787(11) 1.37670(19) -0.00710(9)
N6 N -0.27734(11) 1.20208(19) -0.04879(8)
O1 O -0.30771(10) 1.2366(2) -0.41171(7)
O2 O -0.23209(12) 1.3389(2) -0.41258(8)
O3 O -0.11979(11) 1.24277(17) -0.40544(8)
O4 O -0.09160(11) 1.36387(17) -0.35178(7)
H1 H -0.0697 1.3795 -0.3675
O5 O -0.16401(12) 0.9664(3) -0.04504(9)
O6 O -0.1043(2) 0.9031(2) -0.07819(9)
O7 O -0.15589(11) 1.26787(16) -0.04308(7)
O8 O -0.08788(10) 1.14689(18) -0.02177(7)
H2 H -0.0822 1.1708 0.0047
O9 O -0.00700(11) 0.8018(2) 0.38426(7)
O10 O -0.08007(12) 0.7645(2) 0.41265(8)
O11 O -0.17138(18) 0.6158(3) 0.35056(12)
O12 O -0.22181(14) 0.7430(3) 0.36752(10)
H3 H -0.2316 0.7030 0.3847
O13 O -0.19496(12) 0.77535(17) 0.01823(8)
O14 O -0.25533(10) 0.90659(16) -0.00123(7)
H4 H -0.2599 0.8870 -0.0283
O15 O -0.18856(9) 1.10386(14) 0.02995(6)
O16 O -0.25975(10) 1.12754(17) 0.06305(7)
O17 O 0.03174(11) 1.61186(17) 0.40819(7)
O18 O -0.03089(12) 1.5420(2) 0.44065(8)
O19 O 0.05855(13) 1.3766(2) 0.44750(9)
O20 O -0.00293(12) 1.24560(18) 0.43482(9)
O21 O 0.05537(13) 1.3001(2) 0.09417(11)
O22 O 0.04957(14) 1.1639(2) 0.13480(9)
H5 H 0.0702 1.1401 0.1197
O23 O -0.07018(10) 1.2235(2) 0.06277(8)
O24 O -0.15417(9) 1.29422(16) 0.06868(7)
C1 C -0.25432(15) 1.2703(3) -0.39587(10)
C2 C -0.21397(13) 1.2196(2) -0.35142(9)
C3 C -0.23846(13) 1.1618(2) -0.32323(10)
H6 H -0.2799 1.1505 -0.3329
C4 C -0.20222(13) 1.1207(2) -0.28091(10)
C5 C -0.14027(14) 1.1380(3) -0.26742(10)
H7 H -0.1153 1.1112 -0.2391
C6 C -0.11536(14) 1.1941(3) -0.29518(10)
H8 H -0.0739 1.2048 -0.2855
C7 C -0.15175(13) 1.2350(2) -0.33770(9)
C8 C -0.12088(13) 1.2831(2) -0.36912(10)
C9 C -0.13892(18) 0.9695(3) -0.07442(11)
C10 C -0.15465(13) 1.0491(2) -0.11189(9)
C11 C -0.17665(13) 1.0173(2) -0.15889(10)
H9 H -0.1776 0.9495 -0.1655
C12 C -0.19722(14) 1.0843(2) -0.19603(10)
C13 C -0.19565(15) 1.1852(2) -0.18543(11)
H10 H -0.2091 1.2314 -0.2099
C14 C -0.17440(14) 1.2172(2) -0.13897(11)
H11 H -0.1742 1.2850 -0.1325
C15 C -0.15336(13) 1.1508(2) -0.10164(10)
C16 C -0.13231(13) 1.1934(2) -0.05250(10)
C17 C -0.29480(18) 1.0609(4) -0.25962(12)
C18 C -0.22553(14) 1.0529(3) -0.24871(10)
C19 C -0.2093(2) 0.9450(3) -0.25774(12)
C20 C -0.06189(15) 0.7913(2) 0.38027(10)
C21 C -0.10624(14) 0.8164(2) 0.33264(9)
C22 C -0.08864(14) 0.8787(2) 0.30244(9)
H12 H -0.0491 0.9020 0.3116
C23 C -0.12826(14) 0.9076(2) 0.25891(9)
C24 C -0.18702(15) 0.8712(3) 0.24561(11)
H13 H -0.2146 0.8907 0.2168
C25 C -0.20498(15) 0.8064(3) 0.27467(11)
H14 H -0.2441 0.7810 0.2648
C26 C -0.16494(15) 0.7791(3) 0.31852(11)
C27 C -0.18591(18) 0.7005(4) 0.34833(13)
C28 C -0.21393(14) 0.8531(2) 0.02890(10)
C29 C -0.18984(13) 0.8931(2) 0.07816(9)
C30 C -0.16186(15) 0.8257(2) 0.11391(10)
H15 H -0.1594 0.7592 0.1060
C31 C -0.13776(15) 0.8542(2) 0.16054(10)
H16 H -0.1193 0.8073 0.1836
C32 C -0.14089(14) 0.9536(2) 0.17338(9)
C33 C -0.16796(14) 1.0213(2) 0.13809(9)
H17 H -0.1699 1.0878 0.1462
C34 C -0.19250(12) 0.9928(2) 0.09064(9)
C35 C -0.21693(12) 1.0788(2) 0.05775(9)
C36 C -0.0430(2) 0.9879(4) 0.23411(13)
C37 C -0.11161(16) 0.9832(2) 0.22612(10)
C38 C -0.1349(3) 1.0853(3) 0.23707(12)
C39 C -0.00831(14) 1.5464(2) 0.40976(10)
C40 C -0.02461(14) 1.4741(2) 0.36847(10)
C41 C -0.04737(15) 1.5113(2) 0.32241(10)
H18 H -0.0508 1.5798 0.3176
C42 C -0.06515(15) 1.4474(2) 0.28318(10)
C43 C -0.06221(18) 1.3458(3) 0.29139(11)
H19 H -0.0750 1.3022 0.2658
C44 C -0.04071(17) 1.3083(3) 0.33677(11)
H20 H -0.0400 1.2398 0.3415
C45 C -0.01996(15) 1.3715(2) 0.37582(10)
C46 C 0.01136(15) 1.3246(3) 0.42273(11)
C47 C 0.03638(15) 1.2562(3) 0.12180(12)
C48 C -0.00030(14) 1.3071(3) 0.14870(11)
C49 C 0.03148(16) 1.3494(3) 0.19229(12)
H21 H 0.0731 1.3410 0.2045
C50 C 0.00193(16) 1.4035(3) 0.21746(11)
H22 H 0.0239 1.4306 0.2467
C51 C -0.05998(15) 1.4185(2) 0.20020(10)
C52 C -0.09166(14) 1.3770(2) 0.15658(10)
H23 H -0.1332 1.3869 0.1443
C53 C -0.06254(14) 1.3207(2) 0.13073(10)
C54 C -0.09798(14) 1.2746(2) 0.08339(10)
C55 C -0.0709(2) 1.5924(3) 0.22491(12)
C56 C -0.08841(16) 1.4827(3) 0.23083(10)
C57 C -0.15787(19) 1.4735(4) 0.21458(13)
C58 C -0.38524(17) 1.0680(3) -0.46998(14)
H24 H -0.3563 1.0646 -0.4401
C59 C -0.4108(2) 0.9797(3) -0.49224(19)
H25 H -0.3990 0.9187 -0.4773
C60 C -0.45331(19) 0.9839(3) -0.53595(19)
H26 H -0.4712 0.9256 -0.5508
C61 C -0.47024(16) 1.0761(3) -0.55869(14)
C62 C -0.51298(18) 1.0889(4) -0.60506(16)
H27 H -0.5321 1.0334 -0.6220
C63 C -0.52589(18) 1.1793(4) -0.62445(14)
H28 H -0.5533 1.1851 -0.6549
C64 C -0.49873(15) 1.2676(3) -0.59958(12)
C65 C -0.50888(17) 1.3653(4) -0.61737(13)
H29 H -0.5356 1.3766 -0.6477
C66 C -0.48043(19) 1.4419(3) -0.59106(16)
H30 H -0.4865 1.5062 -0.6033
C67 C -0.44161(18) 1.4254(3) -0.54531(15)
H31 H -0.4228 1.4797 -0.5271
C68 C -0.45788(14) 1.2566(2) -0.55370(10)
C69 C -0.44261(14) 1.1602(2) -0.53344(11)
C70 C -0.10648(14) 1.4075(2) -0.51991(11)
H32 H -0.0894 1.4585 -0.4987
C71 C -0.14314(15) 1.4327(3) -0.56574(12)
H33 H -0.1494 1.4992 -0.5747
C72 C -0.16922(16) 1.3602(3) -0.59671(12)
H34 H -0.1947 1.3766 -0.6269
C73 C -0.15814(16) 1.2598(3) -0.58359(11)
C74 C -0.1818(2) 1.1761(4) -0.61351(14)
H35 H -0.2078 1.1872 -0.6441
C75 C -0.1676(2) 1.0822(4) -0.59890(14)
H36 H -0.1837 1.0299 -0.6196
C76 C -0.12786(18) 1.0609(3) -0.55198(13)
C77 C -0.1105(2) 0.9663(3) -0.53413(16)
H37 H -0.1254 0.9107 -0.5529
C78 C -0.0718(2) 0.9544(3) -0.48935(16)
H38 H -0.0598 0.8911 -0.4773
C79 C -0.05030(16) 1.0387(3) -0.46167(13)
H39 H -0.0236 1.0298 -0.4311
C80 C -0.10423(14) 1.1415(2) -0.52142(10)
C81 C -0.11991(13) 1.2405(2) -0.53712(10)
C82 C -0.23126(16) 1.4625(2) 0.01516(14)
H40 H -0.2017 1.4627 0.0448
C83 C -0.2570(2) 1.5529(3) -0.00481(17)
H41 H -0.2442 1.6125 0.0113
C84 C -0.3008(2) 1.5530(3) -0.04799(18)
H42 H -0.3180 1.6128 -0.0615
C85 C -0.32007(17) 1.4638(3) -0.07185(14)
C86 C -0.3660(2) 1.4538(4) -0.11753(16)
H43 H -0.3855 1.5107 -0.1328
C87 C -0.3811(2) 1.3660(4) -0.13844(15)
H44 H -0.4111 1.3631 -0.1678
C88 C -0.35237(16) 1.2751(3) -0.11695(12)
C89 C -0.36406(18) 1.1800(4) -0.13692(13)
H45 H -0.3934 1.1716 -0.1664
C90 C -0.33294(18) 1.0998(3) -0.11370(13)
H46 H -0.3405 1.0366 -0.1272
C91 C -0.28933(16) 1.1137(3) -0.06913(11)
H47 H -0.2681 1.0587 -0.0533
C92 C -0.30789(14) 1.2822(3) -0.07239(10)
C93 C -0.29197(14) 1.3758(2) -0.05005(11)
F1 F -0.31282(11) 1.0129(2) -0.22688(8)
F2 F -0.32590(10) 1.0205(2) -0.30160(7)
F3 F -0.31271(9) 1.1544(2) -0.26004(8)
F4 F -0.22719(13) 0.92401(18) -0.30426(7)
F5 F -0.23527(13) 0.87640(17) -0.23760(7)
F6 F -0.15053(12) 0.92860(16) -0.24143(7)
F7 F -0.01972(10) 0.8974(3) 0.23360(8)
F8 F -0.01212(13) 1.0305(2) 0.27552(8)
F9 F -0.03070(12) 1.0412(2) 0.20036(8)
F10 F -0.11430(16) 1.10366(19) 0.28397(7)
F11 F -0.11478(16) 1.16058(17) 0.21660(8)
F12 F -0.19402(16) 1.08931(19) 0.22347(8)
F13 F -0.01260(13) 1.60879(18) 0.24564(8)
F14 F -0.10110(15) 1.65763(18) 0.24278(8)
F15 F -0.08315(14) 1.61538(18) 0.17881(7)
F16 F -0.18077(12) 1.5174(2) 0.24543(8)
F17 F -0.18445(11) 1.5165(2) 0.17232(8)
F18 F -0.17514(10) 1.3792(2) 0.21098(8)
H50 H 0.078(2) 1.347(4) 0.4721(17)
Cu2B Cu 0.044760(16) 0.73879(3) 0.442380(11)
Cu2B_2 Cu 0.044760(16) 1.73879(3) 0.442380(11)
Cu3A Cu -0.12917(2) 0.79111(4) -0.035300(15)
O6A O -0.3957(2) 1.4031(2) -0.42181(9)
O9B O 0.00700(11) 1.1982(2) -0.38426(7)
O17B O -0.03174(11) 1.38814(17) -0.40819(7)
O25 O 0.12777(12) 0.2861(2) 0.51945(8)
H48 H 0.1097(17) 0.288(3) 0.5402(12)
H49 H 0.1630(11) 0.314(3) 0.5305(13)
loop_
_geom_bond_atom_site_label_1
_geom_bond_atom_site_label_2
_geom_bond_site_symmetry_1
_geom_bond_site_symmetry_2
Cu1 N5 1_555 1_555
Cu2 N3 1_555 1_555
Cu3 N1 1_555 1_555
N1 C58 1_555 1_555
N2 Cu3 1_555 1_555
N3 C70 1_555 1_555
N4 Cu2 1_555 1_555
N5 C82 1_555 1_555
N6 Cu1 1_555 1_555
O1 Cu3 1_555 1_555
O2 C1 1_555 1_555
O3 Cu2 1_555 1_555
O4 H1 1_555 1_555
O5 C9 1_555 1_555
O6 C9 1_555 1_555
O7 Cu1 1_555 1_555
O8 H2 1_555 1_555
O9 C20 1_555 1_555
O10 C20 1_555 1_555
O11 C27 1_555 1_555
O12 H3 1_555 1_555
O13 C28 1_555 1_555
O14 H4 1_555 1_555
O15 Cu1 1_555 1_555
O16 C35 1_555 1_555
O17 C39 1_555 1_555
O18 C39 1_555 1_555
O19 C46 1_555 1_555
O20 C46 1_555 1_555
O21 C47 1_555 1_555
O22 H5 1_555 1_555
O23 C54 1_555 1_555
O24 Cu1 1_555 1_555
O25 H48 1_555 1_555
C1 O1 1_555 1_555
C2 C1 1_555 1_555
C3 C2 1_555 1_555
H6 C3 1_555 1_555
C4 C3 1_555 1_555
C5 C4 1_555 1_555
H7 C5 1_555 1_555
C6 C5 1_555 1_555
H8 C6 1_555 1_555
C7 C2 1_555 1_555
C8 O3 1_555 1_555
C9 C10 1_555 1_555
C10 C11 1_555 1_555
C11 H9 1_555 1_555
C12 C11 1_555 1_555
C13 C12 1_555 1_555
H10 C13 1_555 1_555
C14 C13 1_555 1_555
H11 C14 1_555 1_555
C15 C10 1_555 1_555
C16 O7 1_555 1_555
C17 C18 1_555 1_555
C18 C4 1_555 1_555
C19 C18 1_555 1_555
C20 C21 1_555 1_555
C21 C22 1_555 1_555
C22 H12 1_555 1_555
C23 C22 1_555 1_555
C24 C23 1_555 1_555
H13 C24 1_555 1_555
C25 C24 1_555 1_555
H14 C25 1_555 1_555
C26 C21 1_555 1_555
C27 O12 1_555 1_555
C28 O14 1_555 1_555
C29 C28 1_555 1_555
C30 C29 1_555 1_555
H15 C30 1_555 1_555
C31 C30 1_555 1_555
H16 C31 1_555 1_555
C32 C31 1_555 1_555
C33 C32 1_555 1_555
H17 C33 1_555 1_555
C34 C29 1_555 1_555
C35 O15 1_555 1_555
C36 C37 1_555 1_555
C37 C23 1_555 1_555
C38 C37 1_555 1_555
C39 C40 1_555 1_555
C40 C41 1_555 1_555
C41 H18 1_555 1_555
C42 C41 1_555 1_555
C43 C42 1_555 1_555
H19 C43 1_555 1_555
C44 C43 1_555 1_555
H20 C44 1_555 1_555
C45 C40 1_555 1_555
C46 C45 1_555 1_555
C47 O22 1_555 1_555
C48 C47 1_555 1_555
C49 C48 1_555 1_555
H21 C49 1_555 1_555
C50 C49 1_555 1_555
H22 C50 1_555 1_555
C51 C50 1_555 1_555
C52 C51 1_555 1_555
H23 C52 1_555 1_555
C53 C48 1_555 1_555
C54 O24 1_555 1_555
C55 C56 1_555 1_555
C56 C42 1_555 1_555
C57 C56 1_555 1_555
C58 H24 1_555 1_555
C59 C58 1_555 1_555
H25 C59 1_555 1_555
C60 C59 1_555 1_555
H26 C60 1_555 1_555
C61 C60 1_555 1_555
C62 C61 1_555 1_555
H27 C62 1_555 1_555
C63 C62 1_555 1_555
H28 C63 1_555 1_555
C64 C63 1_555 1_555
C65 C64 1_555 1_555
H29 C65 1_555 1_555
C66 C65 1_555 1_555
H30 C66 1_555 1_555
C67 N2 1_555 1_555
H31 C67 1_555 1_555
C68 N2 1_555 1_555
C69 N1 1_555 1_555
C70 H32 1_555 1_555
C71 C70 1_555 1_555
H33 C71 1_555 1_555
C72 C71 1_555 1_555
H34 C72 1_555 1_555
C73 C72 1_555 1_555
C74 C73 1_555 1_555
H35 C74 1_555 1_555
C75 C74 1_555 1_555
H36 C75 1_555 1_555
C76 C75 1_555 1_555
C77 C76 1_555 1_555
H37 C77 1_555 1_555
C78 C77 1_555 1_555
H38 C78 1_555 1_555
C79 N4 1_555 1_555
H39 C79 1_555 1_555
C80 N4 1_555 1_555
C81 N3 1_555 1_555
C82 H40 1_555 1_555
C83 C82 1_555 1_555
H41 C83 1_555 1_555
C84 C83 1_555 1_555
H42 C84 1_555 1_555
C85 C84 1_555 1_555
C86 C85 1_555 1_555
H43 C86 1_555 1_555
C87 C86 1_555 1_555
H44 C87 1_555 1_555
C88 C87 1_555 1_555
C89 C88 1_555 1_555
H45 C89 1_555 1_555
C90 C89 1_555 1_555
H46 C90 1_555 1_555
C91 N6 1_555 1_555
H47 C91 1_555 1_555
C92 N6 1_555 1_555
C93 N5 1_555 1_555
F1 C17 1_555 1_555
F2 C17 1_555 1_555
F3 C17 1_555 1_555
F4 C19 1_555 1_555
F5 C19 1_555 1_555
F6 C19 1_555 1_555
F7 C36 1_555 1_555
F8 C36 1_555 1_555
F9 C36 1_555 1_555
F10 C38 1_555 1_555
F11 C38 1_555 1_555
F12 C38 1_555 1_555
F13 C55 1_555 1_555
F14 C55 1_555 1_555
F15 C55 1_555 1_555
F16 C57 1_555 1_555
F17 C57 1_555 1_555
F18 C57 1_555 1_555
H49 O25 1_555 1_555
H50 O19 1_555 1_555
Cu2B O9 1_555 1_555
Cu2B_2 O17 1_555 1_555
Cu3A O6 1_555 1_555
O6A Cu3 1_555 1_555
O9B Cu2 1_555 1_555
O17B Cu2 1_555 1_555
O4 C8 1_555 1_555
O8 C16 1_555 1_555
C6 C7 1_555 1_555
C7 C8 1_555 1_555
C12 C18 1_555 1_555
C14 C15 1_555 1_555
C15 C16 1_555 1_555
C25 C26 1_555 1_555
C26 C27 1_555 1_555
C32 C37 1_555 1_555
C33 C34 1_555 1_555
C34 C35 1_555 1_555
C44 C45 1_555 1_555
C51 C56 1_555 1_555
C52 C53 1_555 1_555
C53 C54 1_555 1_555
C61 C69 1_555 1_555
C64 C68 1_555 1_555
C66 C67 1_555 1_555
C68 C69 1_555 1_555
C73 C81 1_555 1_555
C76 C80 1_555 1_555
C78 C79 1_555 1_555
C80 C81 1_555 1_555
C85 C93 1_555 1_555
C88 C92 1_555 1_555
C90 C91 1_555 1_555
C92 C93 1_555 1_555

#END
