
#######################################################################
#
#                 Cambridge Crystallographic Data Centre
#                                CCDC 
#
#######################################################################
#
# If this CIF has been generated from an entry in the Cambridge 
# Structural Database, then it will include bibliographic, chemical, 
# crystal, experimental, refinement or atomic coordinate data resulting 
# from the CCDC's data processing and validation procedures.
#
#######################################################################

data_NUHYUL
_symmetry_cell_setting           orthorhombic
_symmetry_space_group_name_H-M   'F d d 2'
_symmetry_Int_Tables_number      43
_space_group_name_Hall           'F 2 -2d'
loop_
_symmetry_equiv_pos_site_id
_symmetry_equiv_pos_as_xyz
1 x,y,z
2 -x,-y,z
3 1/4+x,1/4-y,1/4+z
4 1/4-x,1/4+y,1/4+z
5 x,1/2+y,1/2+z
6 -x,1/2-y,1/2+z
7 1/4+x,3/4-y,3/4+z
8 1/4-x,3/4+y,3/4+z
9 1/2+x,y,1/2+z
10 1/2-x,-y,1/2+z
11 3/4+x,1/4-y,3/4+z
12 3/4-x,1/4+y,3/4+z
13 1/2+x,1/2+y,z
14 1/2-x,1/2-y,z
15 3/4+x,3/4-y,1/4+z
16 3/4-x,3/4+y,1/4+z
_cell_length_a                   19.1842(19)
_cell_length_b                   43.462(4)
_cell_length_c                   15.4484(15)
_cell_angle_alpha                90
_cell_angle_beta                 90
_cell_angle_gamma                90
_cell_volume                     12880.6
loop_
_atom_site_label
_atom_site_type_symbol
_atom_site_fract_x
_atom_site_fract_y
_atom_site_fract_z
Cu1 Cu -0.08404(3) 0.097664(15) 0.63702(4)
Cu2 Cu 0.28767(3) -0.085720(16) 0.42908(4)
N1 N -0.0140(2) 0.06551(11) 0.6013(3)
N2 N 0.2201(2) -0.05086(12) 0.4648(3)
N3 N 0.3656(2) -0.05561(11) 0.4472(3)
O1 O -0.0750(2) 0.15978(9) 0.5562(2)
O2 O -0.0891(2) 0.11086(9) 0.5159(3)
O3 O -0.21725(19) 0.11691(9) 0.4061(2)
O4 O -0.1630(2) 0.08883(10) 0.3057(3)
O5 O 0.2755(3) 0.08391(12) 0.2395(3)
O6 O 0.33014(19) 0.11946(10) 0.1592(3)
O7 O 0.1935(2) 0.10862(10) 0.0476(3)
O8 O 0.1855(2) 0.15842(9) 0.0091(2)
O9 O 0.0457(2) 0.22237(11) 0.2112(3)
O10 O 0.0775(2) 0.22003(11) 0.3658(3)
S1 S 0.05977(8) 0.20460(4) 0.28658(11)
C1 C -0.0816(2) 0.13906(14) 0.5016(4)
C2 C -0.0760(3) 0.14895(13) 0.4086(4)
C3 C -0.0235(3) 0.17055(13) 0.3909(4)
H1 H 0.0032 0.1785 0.4359
C4 C -0.0113(3) 0.18001(13) 0.3073(3)
C5 C -0.0522(3) 0.16947(16) 0.2381(4)
H2 H -0.0456 0.1769 0.1823
C6 C -0.1031(3) 0.14739(15) 0.2558(4)
H3 H -0.1299 0.1396 0.2107
C7 C -0.1146(3) 0.13669(13) 0.3410(4)
C8 C -0.1684(3) 0.11159(13) 0.3507(4)
C9 C 0.1899(2) 0.13659(13) 0.0623(4)
C10 C 0.1858(3) 0.14660(13) 0.1569(4)
C11 C 0.1368(3) 0.16942(13) 0.1770(4)
H4 H 0.1114 0.1789 0.1331
C12 C 0.1263(3) 0.17778(13) 0.2616(4)
C13 C 0.1638(3) 0.16443(16) 0.3280(4)
H5 H 0.1556 0.1700 0.3852
C14 C 0.2141(3) 0.14256(16) 0.3079(4)
H6 H 0.2411 0.1340 0.3518
C15 C 0.2243(3) 0.13342(14) 0.2231(4)
C16 C 0.2808(3) 0.10944(15) 0.2062(4)
C17 C -0.0099(3) 0.05651(15) 0.5196(4)
H7 H -0.0400 0.0654 0.4796
C18 C 0.0373(3) 0.03435(15) 0.4904(4)
H8 H 0.0376 0.0285 0.4325
C19 C 0.0834(3) 0.02117(13) 0.5479(4)
C20 C 0.0793(3) 0.03047(14) 0.6353(5)
H9 H 0.1089 0.0220 0.6766
C21 C 0.0306(3) 0.05244(15) 0.6587(4)
H10 H 0.0284 0.0585 0.7163
C22 C 0.1329(3) -0.00294(13) 0.5192(4)
C23 C 0.1479(3) -0.00744(14) 0.4331(4)
H11 H 0.1292 0.0055 0.3913
C24 C 0.1912(3) -0.03156(14) 0.4094(4)
H12 H 0.2005 -0.0343 0.3508
C25 C 0.2067(3) -0.04622(15) 0.5495(4)
H13 H 0.2263 -0.0596 0.5895
C26 C 0.1650(3) -0.02240(16) 0.5801(4)
H14 H 0.1585 -0.0194 0.6391
C27 C 0.3778(4) -0.03620(15) 0.3829(4)
H15 H 0.3505 -0.0374 0.3333
C28 C 0.4306(3) -0.01382(17) 0.3867(5)
H16 H 0.4379 -0.0005 0.3403
C29 C 0.4714(3) -0.01175(14) 0.4601(4)
C30 C 0.4555(3) -0.02975(17) 0.5282(5)
H17 H 0.4793 -0.0274 0.5802
C31 C 0.4026(3) -0.05216(14) 0.5202(4)
H18 H 0.3931 -0.0649 0.5671
Cu1H Cu -0.58404(3) 0.097664(15) 1.13702(4)
Cu1H_2 Cu 0.41596(3) 0.097664(15) 0.13702(4)
Cu1B Cu 0.16596(3) 0.152336(15) -0.11298(4)
Cu1J Cu -0.33404(3) 0.152336(15) 0.38702(4)
Cu2C Cu -0.03767(3) 0.164280(16) 0.67908(4)
Cu2A Cu -0.28767(3) 0.085720(16) 0.42908(4)
Cu2I Cu 0.21233(3) 0.085720(16) -0.07092(4)
Cu2A_2 Cu 0.71233(3) 0.085720(16) 0.42908(4)
Cu2K Cu -0.53767(3) 0.164280(16) 1.17908(4)
Cu2I_2 Cu -0.78767(3) 0.085720(16) 0.92908(4)
Cu2H Cu -0.21233(3) -0.085720(16) 0.92908(4)
N1H N -0.5140(2) 0.06551(11) 1.1013(3)
N2H N -0.2799(2) -0.05086(12) 0.9648(3)
N2C N 0.0299(2) 0.19914(12) 0.7148(3)
N3A N 0.6344(2) 0.05561(11) 0.4472(3)
N3C N -0.1156(2) 0.19439(11) 0.6972(3)
O1H O -0.5750(2) 0.15978(9) 1.0562(2)
O1G O 0.3250(2) -0.09022(9) 0.3062(2)
O2H O -0.5891(2) 0.11086(9) 1.0159(3)
O3H O -0.71725(19) 0.11691(9) 0.9061(2)
O3A O 0.21725(19) -0.11691(9) 0.4061(2)
O3B O 0.03275(19) 0.13309(9) 0.6561(2)
O4H O -0.6630(2) 0.08883(10) 0.8057(3)
O5H O -0.2245(3) 0.08391(12) 0.7395(3)
O6H O -0.16986(19) 0.11946(10) 0.6592(3)
O6_2 O -0.66986(19) 0.11946(10) 1.1592(3)
O7H O -0.3065(2) 0.10862(10) 0.5476(3)
O7I O 0.3065(2) -0.10862(10) 0.5476(3)
O7J O -0.0565(2) 0.14138(10) 0.7976(3)
O8H O -0.3145(2) 0.15842(9) 0.5091(2)
O8J O -0.0645(2) 0.09158(9) 0.7591(2)
O8B O -0.5645(2) 0.09158(9) 1.2591(2)
O9H O -0.4543(2) 0.22237(11) 0.7112(3)
O10H O -0.4225(2) 0.22003(11) 0.8658(3)
S1H S -0.44023(8) 0.20460(4) 0.78658(11)
C1H C -0.5816(2) 0.13906(14) 1.0016(4)
C2H C -0.5760(3) 0.14895(13) 0.9086(4)
C3H C -0.5235(3) 0.17055(13) 0.8909(4)
H1H H -0.4968 0.1785 0.9359
C4H C -0.5113(3) 0.18001(13) 0.8073(3)
C5H C -0.5522(3) 0.16947(16) 0.7381(4)
H2H H -0.5456 0.1769 0.6823
C6H C -0.6031(3) 0.14739(15) 0.7558(4)
H3H H -0.6299 0.1396 0.7107
C7H C -0.6146(3) 0.13669(13) 0.8410(4)
C8H C -0.6684(3) 0.11159(13) 0.8507(4)
C9H C -0.3101(2) 0.13659(13) 0.5623(4)
C10H C -0.3142(3) 0.14660(13) 0.6569(4)
C11H C -0.3632(3) 0.16942(13) 0.6770(4)
H4H H -0.3886 0.1789 0.6331
C12H C -0.3737(3) 0.17778(13) 0.7616(4)
C13H C -0.3362(3) 0.16443(16) 0.8280(4)
H5H H -0.3444 0.1700 0.8852
C14H C -0.2859(3) 0.14256(16) 0.8079(4)
H6H H -0.2589 0.1340 0.8518
C15H C -0.2757(3) 0.13342(14) 0.7231(4)
C16H C -0.2192(3) 0.10944(15) 0.7062(4)
C17H C -0.5099(3) 0.05651(15) 1.0196(4)
H7H H -0.5400 0.0654 0.9796
C18H C -0.4627(3) 0.03435(15) 0.9904(4)
H8H H -0.4624 0.0285 0.9325
C19H C -0.4166(3) 0.02117(13) 1.0479(4)
C20H C -0.4207(3) 0.03047(14) 1.1353(5)
H9H H -0.3911 0.0220 1.1766
C21H C -0.4694(3) 0.05244(15) 1.1587(4)
H10H H -0.4716 0.0585 1.2163
C22H C -0.3671(3) -0.00294(13) 1.0192(4)
C23H C -0.3521(3) -0.00744(14) 0.9331(4)
H11H H -0.3708 0.0055 0.8913
C24H C -0.3088(3) -0.03156(14) 0.9094(4)
H12H H -0.2995 -0.0343 0.8508
C25H C -0.2933(3) -0.04622(15) 1.0495(4)
H13H H -0.2737 -0.0596 1.0895
C26H C -0.3350(3) -0.02240(16) 1.0801(4)
H14H H -0.3415 -0.0194 1.1391
C27A C 0.6222(4) 0.03620(15) 0.3829(4)
H15A H 0.6495 0.0374 0.3333
C28A C 0.5694(3) 0.01382(17) 0.3867(5)
H16A H 0.5621 0.0005 0.3403
C29A C 0.5286(3) 0.01175(14) 0.4601(4)
C30A C 0.5445(3) 0.02975(17) 0.5282(5)
H17A H 0.5207 0.0274 0.5802
C31A C 0.5974(3) 0.05216(14) 0.5202(4)
H18A H 0.6069 0.0649 0.5671
O11 O 0.0528(7) 0.2280(2) 0.0286(6)
O12 O 0.7185(4) 0.1921(2) 0.0442(7)
O13 O 0.0867(3) 0.00899(14) 0.2335(4)
O14? O 0.1191(3) 0.06754(14) 0.2682(4)
loop_
_geom_bond_atom_site_label_1
_geom_bond_atom_site_label_2
_geom_bond_site_symmetry_1
_geom_bond_site_symmetry_2
Cu1 N1 1_555 1_555
Cu2 N2 1_555 1_555
N1 C17 1_555 1_555
N2 C24 1_555 1_555
N3 Cu2 1_555 1_555
O1 C1 1_555 1_555
O2 Cu1 1_555 1_555
O3 C8 1_555 1_555
O4 C8 1_555 1_555
O5 C16 1_555 1_555
O6 C16 1_555 1_555
O7 C9 1_555 1_555
O8 C9 1_555 1_555
O9 S1 1_555 1_555
O10 S1 1_555 1_555
S1 C4 1_555 1_555
C1 O2 1_555 1_555
C2 C1 1_555 1_555
C3 C2 1_555 1_555
H1 C3 1_555 1_555
C4 C3 1_555 1_555
C5 C4 1_555 1_555
H2 C5 1_555 1_555
C6 C5 1_555 1_555
H3 C6 1_555 1_555
C7 C2 1_555 1_555
C8 C7 1_555 1_555
C9 C10 1_555 1_555
C10 C11 1_555 1_555
C11 H4 1_555 1_555
C12 S1 1_555 1_555
C13 C12 1_555 1_555
H5 C13 1_555 1_555
C14 C13 1_555 1_555
H6 C14 1_555 1_555
C15 C10 1_555 1_555
C16 C15 1_555 1_555
C17 H7 1_555 1_555
C18 C17 1_555 1_555
H8 C18 1_555 1_555
C19 C18 1_555 1_555
C20 C19 1_555 1_555
H9 C20 1_555 1_555
C21 N1 1_555 1_555
H10 C21 1_555 1_555
C22 C19 1_555 1_555
C23 C22 1_555 1_555
H11 C23 1_555 1_555
C24 C23 1_555 1_555
H12 C24 1_555 1_555
C25 N2 1_555 1_555
H13 C25 1_555 1_555
C26 C22 1_555 1_555
H14 C26 1_555 1_555
C27 N3 1_555 1_555
H15 C27 1_555 1_555
C28 C27 1_555 1_555
H16 C28 1_555 1_555
C29 C28 1_555 1_555
C30 C29 1_555 1_555
H17 C30 1_555 1_555
C31 N3 1_555 1_555
H18 C31 1_555 1_555
Cu1H N1H 1_555 1_555
Cu1H_2 O6 1_555 1_555
Cu1B O8 1_555 1_555
Cu1J O8H 1_555 1_555
Cu2C O1 1_555 1_555
Cu2A O3 1_555 1_555
Cu2I O7 1_555 1_555
Cu2A_2 N3A 1_555 1_555
Cu2K O1H 1_555 1_555
Cu2I_2 O3H 1_555 1_555
Cu2H N2H 1_555 1_555
N1H C17H 1_555 1_555
N2H C24H 1_555 1_555
N2C Cu2C 1_555 1_555
N3A C27A 1_555 1_555
N3C Cu2C 1_555 1_555
O1H C1H 1_555 1_555
O1G Cu2 1_555 1_555
O2H Cu1H 1_555 1_555
O3H C8H 1_555 1_555
O3A Cu2 1_555 1_555
O3B Cu2C 1_555 1_555
O4H C8H 1_555 1_555
O5H C16H 1_555 1_555
O6H Cu1 1_555 1_555
O6_2 Cu1H 1_555 1_555
O7H Cu2A 1_555 1_555
O7I Cu2 1_555 1_555
O7J Cu2C 1_555 1_555
O8H C9H 1_555 1_555
O8J Cu1 1_555 1_555
O8B Cu1H 1_555 1_555
O9H S1H 1_555 1_555
O10H S1H 1_555 1_555
S1H C4H 1_555 1_555
C1H O2H 1_555 1_555
C2H C1H 1_555 1_555
C3H C2H 1_555 1_555
H1H C3H 1_555 1_555
C4H C3H 1_555 1_555
C5H C4H 1_555 1_555
H2H C5H 1_555 1_555
C6H C5H 1_555 1_555
H3H C6H 1_555 1_555
C7H C2H 1_555 1_555
C8H C7H 1_555 1_555
C9H O7H 1_555 1_555
C10H C9H 1_555 1_555
C11H C10H 1_555 1_555
H4H C11H 1_555 1_555
C12H S1H 1_555 1_555
C13H C12H 1_555 1_555
H5H C13H 1_555 1_555
C14H C13H 1_555 1_555
H6H C14H 1_555 1_555
C15H C10H 1_555 1_555
C16H O6H 1_555 1_555
C17H H7H 1_555 1_555
C18H C17H 1_555 1_555
H8H C18H 1_555 1_555
C19H C18H 1_555 1_555
C20H C19H 1_555 1_555
H9H C20H 1_555 1_555
C21H N1H 1_555 1_555
H10H C21H 1_555 1_555
C22H C19H 1_555 1_555
C23H C22H 1_555 1_555
H11H C23H 1_555 1_555
C24H C23H 1_555 1_555
H12H C24H 1_555 1_555
C25H N2H 1_555 1_555
H13H C25H 1_555 1_555
C26H C22H 1_555 1_555
H14H C26H 1_555 1_555
C27A H15A 1_555 1_555
C28A C27A 1_555 1_555
H16A C28A 1_555 1_555
C29A C29 1_555 1_555
C30A C29A 1_555 1_555
H17A C30A 1_555 1_555
C31A N3A 1_555 1_555
H18A C31A 1_555 1_555
C6 C7 1_555 1_555
C11 C12 1_555 1_555
C14 C15 1_555 1_555
C20 C21 1_555 1_555
C25 C26 1_555 1_555
C30 C31 1_555 1_555
C6H C7H 1_555 1_555
C11H C12H 1_555 1_555
C14H C15H 1_555 1_555
C15H C16H 1_555 1_555
C20H C21H 1_555 1_555
C25H C26H 1_555 1_555
C28A C29A 1_555 1_555
C30A C31A 1_555 1_555

#END
