
#######################################################################
#
#                 Cambridge Crystallographic Data Centre
#                                CCDC 
#
#######################################################################
#
# If this CIF has been generated from an entry in the Cambridge 
# Structural Database, then it will include bibliographic, chemical, 
# crystal, experimental, refinement or atomic coordinate data resulting 
# from the CCDC's data processing and validation procedures.
#
#######################################################################

data_NUHYEW
_symmetry_cell_setting           monoclinic
_symmetry_space_group_name_H-M   'P 21/c'
_symmetry_Int_Tables_number      14
_space_group_name_Hall           '-P 2ybc'
loop_
_symmetry_equiv_pos_site_id
_symmetry_equiv_pos_as_xyz
1 x,y,z
2 -x,1/2+y,1/2-z
3 -x,-y,-z
4 x,1/2-y,1/2+z
_cell_length_a                   9.4701(19)
_cell_length_b                   15.304(3)
_cell_length_c                   16.879(5)
_cell_angle_alpha                90
_cell_angle_beta                 119.69(2)
_cell_angle_gamma                90
_cell_volume                     2125.13
loop_
_atom_site_label
_atom_site_type_symbol
_atom_site_fract_x
_atom_site_fract_y
_atom_site_fract_z
Cu1 Cu 0.05696(4) 0.83819(2) 0.05171(2)
O1 O -0.1158(2) 0.97588(17) 0.11656(15)
O2 O 0.1277(2) 0.92220(15) 0.15066(14)
O3 O -0.1451(2) 1.19318(17) 0.33315(16)
O4 O 0.0827(2) 1.26714(14) 0.41845(12)
O5 O -0.1744(3) 0.92334(18) -0.04507(17)
H1 H -0.1759 0.9694 -0.0173
H2 H -0.1269 0.9302 -0.0761
O6 O 0.5240(2) 1.08667(16) 0.43459(16)
N1 N -0.0077(3) 0.77113(17) -0.06159(15)
N2 N 0.2576(3) 0.85581(17) 0.04020(16)
C1 C 0.0317(3) 0.97117(19) 0.16528(18)
C2 C 0.1168(3) 1.02760(19) 0.24976(17)
C3 C 0.0233(3) 1.08339(19) 0.27147(18)
H3 H -0.0895 1.0825 0.2368
C4 C 0.1007(3) 1.1400(2) 0.34530(18)
C5 C 0.2669(3) 1.1399(2) 0.3967(2)
H4 H 0.3183 1.1788 0.4451
C6 C 0.3601(3) 1.0825(2) 0.3774(2)
C7 C 0.2834(3) 1.0271(2) 0.30338(19)
H5 H 0.3449 0.9890 0.2897
C8 C 0.0032(3) 1.2039(2) 0.36597(18)
C9 C 0.6230(3) 1.0273(2) 0.4177(2)
H6 H 0.6009 1.0332 0.3554
H7 H 0.6001 0.9675 0.4269
C10 C 0.7979(3) 1.0495(2) 0.4835(2)
H8 H 0.8192 1.0422 0.5456
H9 H 0.8182 1.1101 0.4755
C11 C 0.9117(3) 0.9906(2) 0.4675(2)
H10 H 0.8892 0.9300 0.4744
H11 H 0.8900 0.9984 0.4055
C12 C -0.1545(4) 0.7371(2) -0.1130(2)
H12 H -0.2326 0.7443 -0.0954
C13 C -0.1944(4) 0.6916(3) -0.1913(2)
H13 H -0.2979 0.6681 -0.2262
C14 C -0.0790(5) 0.6811(3) -0.2172(2)
H14 H -0.1034 0.6504 -0.2700
C15 C 0.0731(4) 0.7166(2) -0.1642(2)
H15 H 0.1534 0.7092 -0.1800
C16 C 0.1052(3) 0.76360(19) -0.08665(18)
C17 C 0.2558(3) 0.8104(2) -0.0284(2)
C18 C 0.3884(4) 0.8106(3) -0.0428(3)
H16 H 0.3859 0.7788 -0.0904
C19 C 0.5234(4) 0.8591(3) 0.0150(3)
H17 H 0.6144 0.8592 0.0076
C20 C 0.5228(4) 0.9064(3) 0.0826(3)
H18 H 0.6121 0.9408 0.1203
C21 C 0.3890(3) 0.9037(2) 0.0958(2)
H19 H 0.3905 0.9352 0.1433
O1B O 2.1158(2) 1.02412(17) 0.88344(15)
O2B O 1.8723(2) 1.07780(15) 0.84934(14)
O3B O 2.1451(2) 0.80682(17) 0.66685(16)
O4B O 1.9173(2) 0.73286(14) 0.58155(12)
O6B O 1.4760(2) 0.91333(16) 0.56541(16)
C1B C 1.9683(3) 1.02883(19) 0.83472(18)
C2B C 1.8832(3) 0.97240(19) 0.75024(17)
C3B C 1.9767(3) 0.91661(19) 0.72853(18)
H3B H 2.0895 0.9175 0.7632
C4B C 1.8993(3) 0.8600(2) 0.65470(18)
C5B C 1.7331(3) 0.8601(2) 0.6033(2)
H4B H 1.6817 0.8212 0.5549
C6B C 1.6399(3) 0.9175(2) 0.6226(2)
C7B C 1.7166(3) 0.9729(2) 0.69662(19)
H5B H 1.6551 1.0110 0.7103
C8B C 1.9968(3) 0.7961(2) 0.63403(18)
C9B C 1.3770(3) 0.9727(2) 0.5823(2)
H6B H 1.3991 0.9668 0.6446
H7B H 1.3999 1.0325 0.5731
C10B C 1.2021(3) 0.9505(2) 0.5165(2)
H8B H 1.1808 0.9578 0.4544
H9B H 1.1818 0.8899 0.5245
C11B C 1.0883(3) 1.0094(2) 0.5325(2)
H10B H 1.1108 1.0700 0.5256
H11B H 1.1100 1.0016 0.5945
Cu1B Cu 1.94304(4) 1.16181(2) 0.94829(2)
O5B O 2.1744(3) 1.07666(18) 1.04507(17)
H1B H 2.1759 1.0306 1.0173
H2B H 2.1269 1.0698 1.0761
N1B N 2.0077(3) 1.22887(17) 1.06159(15)
N2B N 1.7424(3) 1.14419(17) 0.95980(16)
C12B C 2.1545(4) 1.2629(2) 1.1130(2)
H12B H 2.2326 1.2557 1.0954
C13B C 2.1944(4) 1.3084(3) 1.1913(2)
H13B H 2.2979 1.3319 1.2262
C14B C 2.0790(5) 1.3189(3) 1.2172(2)
H14B H 2.1034 1.3496 1.2700
C15B C 1.9269(4) 1.2834(2) 1.1642(2)
H15B H 1.8466 1.2908 1.1800
C16B C 1.8948(3) 1.23640(19) 1.08665(18)
C17B C 1.7442(3) 1.1896(2) 1.0284(2)
C18B C 1.6116(4) 1.1894(3) 1.0428(3)
H16B H 1.6141 1.2212 1.0904
C19B C 1.4766(4) 1.1409(3) 0.9850(3)
H17B H 1.3856 1.1408 0.9924
C20B C 1.4772(4) 1.0936(3) 0.9174(3)
H18B H 1.3879 1.0592 0.8797
C21B C 1.6110(3) 1.0963(2) 0.9042(2)
H19B H 1.6095 1.0648 0.8567
Cu1A Cu -0.05696(4) 1.33819(2) 0.44829(2)
Cu1C Cu 2.05696(4) 0.66181(2) 0.55171(2)
O3A O 0.1451(2) 0.69318(17) 0.16685(16)
O3C O 1.8549(2) 1.30682(17) 0.83315(16)
O4A O -0.0827(2) 0.76714(14) 0.08155(12)
O4C O 2.0827(2) 1.23286(14) 0.91845(12)
O7 O 0.4255(6) 0.7997(4) 0.2852(3)
H20 H 0.3982 0.8532 0.2787
H21 H 0.3443 0.7680 0.2503
loop_
_geom_bond_atom_site_label_1
_geom_bond_atom_site_label_2
_geom_bond_site_symmetry_1
_geom_bond_site_symmetry_2
Cu1 O2 1_555 1_555
O1 C1 1_555 1_555
O2 C1 1_555 1_555
O3 C8 1_555 1_555
O4 C8 1_555 1_555
O5 Cu1 1_555 1_555
H1 O5 1_555 1_555
H2 O5 1_555 1_555
O6 C6 1_555 1_555
N1 Cu1 1_555 1_555
N2 Cu1 1_555 1_555
C1 C2 1_555 1_555
C2 C3 1_555 1_555
C3 H3 1_555 1_555
C4 C3 1_555 1_555
C5 C4 1_555 1_555
H4 C5 1_555 1_555
C6 C5 1_555 1_555
C7 C2 1_555 1_555
H5 C7 1_555 1_555
C8 C4 1_555 1_555
C9 O6 1_555 1_555
H6 C9 1_555 1_555
H7 C9 1_555 1_555
C10 C9 1_555 1_555
H8 C10 1_555 1_555
H9 C10 1_555 1_555
C11 C10 1_555 1_555
H10 C11 1_555 1_555
H11 C11 1_555 1_555
C12 N1 1_555 1_555
H12 C12 1_555 1_555
C13 C12 1_555 1_555
H13 C13 1_555 1_555
C14 C13 1_555 1_555
H14 C14 1_555 1_555
C15 C14 1_555 1_555
H15 C15 1_555 1_555
C16 N1 1_555 1_555
C17 N2 1_555 1_555
C18 C17 1_555 1_555
H16 C18 1_555 1_555
C19 C18 1_555 1_555
H17 C19 1_555 1_555
C20 C19 1_555 1_555
H18 C20 1_555 1_555
C21 N2 1_555 1_555
H19 C21 1_555 1_555
O7 H20 1_555 1_555
H21 O7 1_555 1_555
O1B C1B 1_555 1_555
O2B C1B 1_555 1_555
O3B C8B 1_555 1_555
O4B C8B 1_555 1_555
O6B C6B 1_555 1_555
C1B C2B 1_555 1_555
C2B C3B 1_555 1_555
C3B H3B 1_555 1_555
C4B C3B 1_555 1_555
C5B C4B 1_555 1_555
H4B C5B 1_555 1_555
C6B C5B 1_555 1_555
C7B C2B 1_555 1_555
H5B C7B 1_555 1_555
C8B C4B 1_555 1_555
C9B O6B 1_555 1_555
H6B C9B 1_555 1_555
H7B C9B 1_555 1_555
C10B C9B 1_555 1_555
H8B C10B 1_555 1_555
H9B C10B 1_555 1_555
C11B C11 1_555 1_555
H10B C11B 1_555 1_555
H11B C11B 1_555 1_555
Cu1B O2B 1_555 1_555
O5B Cu1B 1_555 1_555
H1B O5B 1_555 1_555
H2B O5B 1_555 1_555
N1B Cu1B 1_555 1_555
N2B Cu1B 1_555 1_555
C12B N1B 1_555 1_555
H12B C12B 1_555 1_555
C13B C12B 1_555 1_555
H13B C13B 1_555 1_555
C14B C13B 1_555 1_555
H14B C14B 1_555 1_555
C15B C14B 1_555 1_555
H15B C15B 1_555 1_555
C16B N1B 1_555 1_555
C17B N2B 1_555 1_555
C18B C17B 1_555 1_555
H16B C18B 1_555 1_555
C19B C18B 1_555 1_555
H17B C19B 1_555 1_555
C20B C19B 1_555 1_555
H18B C20B 1_555 1_555
C21B N2B 1_555 1_555
H19B C21B 1_555 1_555
Cu1A O3 1_555 1_555
Cu1C O3B 1_555 1_555
O3A Cu1 1_555 1_555
O3C Cu1B 1_555 1_555
O4A Cu1 1_555 1_555
O4C Cu1B 1_555 1_555
O4 Cu1A 1_555 1_555
C6 C7 1_555 1_555
C15 C16 1_555 1_555
C16 C17 1_555 1_555
C20 C21 1_555 1_555
O4B Cu1C 1_555 1_555
C6B C7B 1_555 1_555
C10B C11B 1_555 1_555
C15B C16B 1_555 1_555
C16B C17B 1_555 1_555
C20B C21B 1_555 1_555

#END
