
#######################################################################
#
#                 Cambridge Crystallographic Data Centre
#                                CCDC 
#
#######################################################################
#
# If this CIF has been generated from an entry in the Cambridge 
# Structural Database, then it will include bibliographic, chemical, 
# crystal, experimental, refinement or atomic coordinate data resulting 
# from the CCDC's data processing and validation procedures.
#
#######################################################################

data_NUHYEV
_symmetry_cell_setting           monoclinic
_symmetry_space_group_name_H-M   'P 21/n'
_symmetry_Int_Tables_number      14
_space_group_name_Hall           '-P 2yn'
loop_
_symmetry_equiv_pos_site_id
_symmetry_equiv_pos_as_xyz
1 x,y,z
2 1/2-x,1/2+y,1/2-z
3 -x,-y,-z
4 1/2+x,1/2-y,1/2+z
_cell_length_a                   12.6202(12)
_cell_length_b                   13.3522(13)
_cell_length_c                   24.748(2)
_cell_angle_alpha                90
_cell_angle_beta                 97.028(1)
_cell_angle_gamma                90
_cell_volume                     4138.89
loop_
_atom_site_label
_atom_site_type_symbol
_atom_site_fract_x
_atom_site_fract_y
_atom_site_fract_z
Zn1 Zn 0.14492(2) 0.56263(2) 0.355189(11)
Zn2 Zn 0.23777(2) -0.33981(2) 0.120800(12)
N1 N 0.09173(16) 0.70950(15) 0.33601(8)
N2 N 0.11708(17) 0.60896(16) 0.43088(8)
N3 N 0.21039(17) -0.48389(16) 0.15661(9)
N4 N 0.2017(2) -0.42966(17) 0.05241(10)
O1 O 0.05423(16) 0.49018(15) 0.29922(9)
O2 O 0.04262(19) 0.38404(16) 0.36694(9)
O3 O 0.13837(18) 0.18827(18) 0.32531(9)
O4 O 0.0017(2) 0.14631(19) 0.37006(10)
O5 O 0.20585(15) 0.05928(16) 0.16300(8)
O6 O 0.2055(2) -0.05100(16) 0.09744(12)
O7 O 0.13953(19) -0.24403(16) 0.15091(9)
O8 O 0.0415(3) -0.2584(4) 0.07424(19)
O9 O 0.29675(18) -0.22523(15) 0.06753(8)
C1 C 0.0257(2) 0.4072(2) 0.31833(13)
C2 C -0.0321(2) 0.33702(19) 0.27684(11)
C3 C -0.0875(2) 0.37311(19) 0.22957(12)
H1 H -0.0893 0.4418 0.2233
C4 C -0.1408(2) 0.30964(19) 0.19106(11)
H2 H -0.1794 0.3360 0.1599
C5 C -0.13659(18) 0.20706(18) 0.19901(10)
C6 C -0.08204(19) 0.17031(18) 0.24662(11)
H3 H -0.0808 0.1016 0.2528
C7 C -0.02892(19) 0.23352(19) 0.28545(10)
C8 C 0.0410(3) 0.1859(2) 0.33227(12)
C9 C 0.1603(2) -0.0084(2) 0.13224(11)
C10 C 0.04543(19) -0.03093(18) 0.13830(10)
C11 C -0.01909(19) 0.04816(18) 0.14970(10)
H4 H 0.0112 0.1113 0.1557
C12 C -0.12786(19) 0.03617(18) 0.15247(10)
C13 C -0.1705(2) -0.0592(2) 0.14527(12)
H5 H -0.2425 -0.0698 0.1480
C14 C -0.1065(2) -0.1385(2) 0.13411(13)
H6 H -0.1367 -0.2019 0.1292
C15 C 0.0008(2) -0.1268(2) 0.13000(11)
C16 C 0.0654(3) -0.2163(2) 0.11698(14)
C17 C -0.3012(2) 0.1075(2) 0.18029(13)
C18 C -0.19530(19) 0.13140(19) 0.15844(11)
C19 C -0.2204(2) 0.1751(2) 0.10056(12)
C20 C 0.0746(2) 0.7559(2) 0.28853(12)
H7 H 0.0891 0.7223 0.2574
C21 C 0.0356(3) 0.8536(2) 0.28364(14)
H8 H 0.0232 0.8838 0.2496
C22 C 0.0159(3) 0.9043(2) 0.32869(15)
H9 H -0.0080 0.9702 0.3258
C23 C 0.0317(3) 0.8575(2) 0.37976(13)
C24 C 0.0101(4) 0.9035(2) 0.42934(16)
H10 H -0.0131 0.9696 0.4288
C25 C 0.0223(3) 0.8537(3) 0.47641(16)
H11 H 0.0065 0.8854 0.5079
C26 C 0.0596(3) 0.7518(2) 0.47923(12)
C27 C 0.0725(3) 0.6951(3) 0.52761(13)
H12 H 0.0579 0.7235 0.5602
C28 C 0.1062(3) 0.5989(3) 0.52632(13)
H13 H 0.1145 0.5606 0.5580
C29 C 0.1285(3) 0.5574(2) 0.47675(12)
H14 H 0.1520 0.4914 0.4762
C30 C 0.0833(2) 0.70497(18) 0.43174(10)
C31 C 0.0693(2) 0.75852(18) 0.38133(10)
C32 C 0.2218(2) -0.5110(2) 0.20848(11)
H15 H 0.2421 -0.4628 0.2349
C33 C 0.2046(2) -0.6088(2) 0.22520(12)
H16 H 0.2148 -0.6251 0.2620
C34 C 0.1729(2) -0.6802(2) 0.18726(12)
H17 H 0.1592 -0.7452 0.1980
C35 C 0.1611(2) -0.6547(2) 0.13201(12)
C36 C 0.1303(3) -0.7242(2) 0.08884(14)
H18 H 0.1166 -0.7904 0.0973
C37 C 0.1209(3) -0.6958(2) 0.03660(14)
H19 H 0.0996 -0.7424 0.0095
C38 C 0.1430(3) -0.5952(2) 0.02162(13)
C39 C 0.1355(6) -0.5616(3) -0.03159(16)
H20 H 0.1129 -0.6048 -0.0602
C40 C 0.1615(7) -0.4647(3) -0.04189(17)
H21 H 0.1574 -0.4416 -0.0775
C41 C 0.1940(5) -0.4011(3) 0.00125(14)
H22 H 0.2112 -0.3353 -0.0064
C42 C 0.1755(2) -0.5257(2) 0.06291(11)
C43 C 0.1815(2) -0.55534(18) 0.11875(11)
F1 F -0.28600(15) 0.04969(15) 0.22400(8)
F2 F -0.37184(13) 0.06130(15) 0.14393(9)
F3 F -0.34938(13) 0.19079(15) 0.19505(9)
F4 F -0.25497(17) 0.10496(14) 0.06408(7)
F5 F -0.29543(15) 0.24662(14) 0.09679(8)
F6 F -0.13383(14) 0.21515(13) 0.08387(7)
H23 H 0.258(3) -0.176(2) 0.0716(19)
H24 H 0.352(2) -0.201(3) 0.0860(15)
Zn1A Zn 0.35508(2) 0.06263(2) 0.144811(11)
Zn2A Zn 0.26223(2) 0.16019(2) 0.379200(12)
O3A O 0.36163(18) -0.31173(18) 0.17469(9)
O5A O 0.29415(15) 0.55928(16) 0.33700(8)
O10 O 0.72191(18) 0.62073(15) 0.13685(8)
loop_
_geom_bond_atom_site_label_1
_geom_bond_atom_site_label_2
_geom_bond_site_symmetry_1
_geom_bond_site_symmetry_2
Zn1 N1 1_555 1_555
Zn2 N3 1_555 1_555
N1 C20 1_555 1_555
N2 Zn1 1_555 1_555
N3 C32 1_555 1_555
N4 Zn2 1_555 1_555
O1 Zn1 1_555 1_555
O2 C1 1_555 1_555
O3 C8 1_555 1_555
O4 C8 1_555 1_555
O5 C9 1_555 1_555
O6 C9 1_555 1_555
O7 Zn2 1_555 1_555
O8 C16 1_555 1_555
O9 Zn2 1_555 1_555
C1 O1 1_555 1_555
C2 C1 1_555 1_555
C3 C2 1_555 1_555
H1 C3 1_555 1_555
C4 C3 1_555 1_555
H2 C4 1_555 1_555
C5 C4 1_555 1_555
C6 C5 1_555 1_555
H3 C6 1_555 1_555
C7 C2 1_555 1_555
C8 C7 1_555 1_555
C9 C10 1_555 1_555
C10 C11 1_555 1_555
C11 H4 1_555 1_555
C12 C11 1_555 1_555
C13 C12 1_555 1_555
H5 C13 1_555 1_555
C14 C13 1_555 1_555
H6 C14 1_555 1_555
C15 C10 1_555 1_555
C16 O7 1_555 1_555
C17 C18 1_555 1_555
C18 C5 1_555 1_555
C19 C18 1_555 1_555
C20 H7 1_555 1_555
C21 C20 1_555 1_555
H8 C21 1_555 1_555
C22 C21 1_555 1_555
H9 C22 1_555 1_555
C23 C22 1_555 1_555
C24 C23 1_555 1_555
H10 C24 1_555 1_555
C25 C24 1_555 1_555
H11 C25 1_555 1_555
C26 C25 1_555 1_555
C27 C26 1_555 1_555
H12 C27 1_555 1_555
C28 C27 1_555 1_555
H13 C28 1_555 1_555
C29 N2 1_555 1_555
H14 C29 1_555 1_555
C30 N2 1_555 1_555
C31 N1 1_555 1_555
C32 H15 1_555 1_555
C33 C32 1_555 1_555
H16 C33 1_555 1_555
C34 C33 1_555 1_555
H17 C34 1_555 1_555
C35 C34 1_555 1_555
C36 C35 1_555 1_555
H18 C36 1_555 1_555
C37 C36 1_555 1_555
H19 C37 1_555 1_555
C38 C37 1_555 1_555
C39 C38 1_555 1_555
H20 C39 1_555 1_555
C40 C39 1_555 1_555
H21 C40 1_555 1_555
C41 N4 1_555 1_555
H22 C41 1_555 1_555
C42 N4 1_555 1_555
C43 N3 1_555 1_555
F1 C17 1_555 1_555
F2 C17 1_555 1_555
F3 C17 1_555 1_555
F4 C19 1_555 1_555
F5 C19 1_555 1_555
F6 C19 1_555 1_555
H23 O9 1_555 1_555
H24 O9 1_555 1_555
Zn1A O5 1_555 1_555
Zn2A O3 1_555 1_555
O3A Zn2 1_555 1_555
O5A Zn1 1_555 1_555
C6 C7 1_555 1_555
C12 C18 1_555 1_555
C14 C15 1_555 1_555
C15 C16 1_555 1_555
C23 C31 1_555 1_555
C26 C30 1_555 1_555
C28 C29 1_555 1_555
C30 C31 1_555 1_555
C35 C43 1_555 1_555
C38 C42 1_555 1_555
C40 C41 1_555 1_555
C42 C43 1_555 1_555

#END
