
#######################################################################
#
#                 Cambridge Crystallographic Data Centre
#                                CCDC 
#
#######################################################################
#
# If this CIF has been generated from an entry in the Cambridge 
# Structural Database, then it will include bibliographic, chemical, 
# crystal, experimental, refinement or atomic coordinate data resulting 
# from the CCDC's data processing and validation procedures.
#
#######################################################################

data_NUHZEV
_symmetry_cell_setting           monoclinic
_symmetry_space_group_name_H-M   'P 21'
_symmetry_Int_Tables_number      4
_space_group_name_Hall           'P 2yb'
loop_
_symmetry_equiv_pos_site_id
_symmetry_equiv_pos_as_xyz
1 x,y,z
2 -x,1/2+y,-z
_cell_length_a                   5.380(3)
_cell_length_b                   25.72(2)
_cell_length_c                   7.926(5)
_cell_angle_alpha                90
_cell_angle_beta                 94.22(3)
_cell_angle_gamma                90
_cell_volume                     1093.78
loop_
_atom_site_label
_atom_site_type_symbol
_atom_site_fract_x
_atom_site_fract_y
_atom_site_fract_z
Ag1 Ag 0.4687(1) -0.2045(1) -0.0819(1)
Ag2 Ag 0.0286(1) -0.2663(1) -0.3912(1)
S1 S 0.0071(4) -0.1274(1) 0.0497(3)
O1 O 0.2720(13) -0.1325(3) 0.0221(9)
O2 O -0.1534(14) -0.1479(3) -0.0892(10)
O3 O -0.0443(16) -0.1486(4) 0.2132(10)
C1 C -0.0534(18) -0.0602(4) 0.0549(11)
C2 C -0.2665(21) -0.0397(5) -0.0240(16)
C3 C -0.3144(24) 0.0123(5) -0.0183(17)
C4 C -0.1407(24) 0.0458(5) 0.0663(14)
C5 C -0.1920(37) 0.1029(6) 0.0682(20)
C6 C 0.0681(24) 0.0257(5) 0.1454(17)
C7 C 0.1185(22) -0.0270(4) 0.1387(15)
S2 S 0.5007(5) -0.3401(1) -0.5223(3)
O4 O 0.2360(13) -0.3365(3) -0.4972(9)
O5 O 0.5619(15) -0.3139(4) -0.6741(10)
O6 O 0.6577(15) -0.3249(3) -0.3736(10)
C8 C 0.5626(17) -0.4074(4) -0.5509(11)
C9 C 0.4101(18) -0.4440(4) -0.4841(13)
C10 C 0.4729(22) -0.4953(4) -0.4994(14)
C11 C 0.6752(24) -0.5121(5) -0.5830(15)
C12 C 0.7415(35) -0.5694(6) -0.5997(22)
C13 C 0.8212(22) -0.4740(5) -0.6515(16)
C14 C 0.7626(20) -0.4219(4) -0.6348(15)
N1 N 0.0287(19) -0.2799(4) 0.1812(11)
C15 C -0.0466(19) -0.2768(3) 0.0162(11)
O7 O 0.1046(12) -0.2677(4) -0.0885(8)
N2 N -0.2955(14) -0.2837(3) -0.0268(10)
N3 N 0.4889(19) -0.1823(4) -0.6530(12)
C16 C 0.5508(21) -0.1900(4) -0.4897(13)
O8 O 0.4012(14) -0.2005(4) -0.3852(9)
N4 N 0.8077(14) -0.1857(4) -0.4405(10)
H1 H -0.3803(21) -0.0616(5) -0.0824(16)
H2 H -0.4616(24) 0.0255(5) -0.0703(17)
H3 H -0.3321(37) 0.1096(6) 0.1334(20)
H4 H -0.2284(37) 0.1150(6) -0.0455(20)
H5 H -0.0483(37) 0.1209(6) 0.1181(20)
H6 H 0.1801(24) 0.0477(5) 0.2054(17)
H7 H 0.2663(22) -0.0401(4) 0.1900(15)
H8 H 0.2693(18) -0.4342(4) -0.4305(13)
H9 H 0.3745(22) -0.5201(4) -0.4511(14)
H10 H 0.8895(35) -0.5726(6) -0.6596(22)
H11 H 0.6065(35) -0.5873(6) -0.6608(22)
H12 H 0.7703(35) -0.5844(6) -0.4891(22)
H13 H 0.9589(22) -0.4835(5) -0.7089(16)
H14 H 0.8609(20) -0.3967(4) -0.6813(15)
H15 H 0.1833(19) -0.2754(4) 0.2137(11)
H16 H -0.0776(19) -0.2863(4) 0.2543(11)
H17 H -0.3518(14) -0.2817(3) -0.1310(10)
H18 H -0.3956(14) -0.2901(3) 0.0504(10)
H19 H 0.3356(19) -0.1846(4) -0.6914(12)
H20 H 0.6021(19) -0.1750(4) -0.7204(12)
H21 H 0.8603(14) -0.1904(4) -0.3365(10)
H22 H 0.9115(14) -0.1783(4) -0.5144(10)
O2_2 O 0.8466(14) -0.1479(3) -0.0892(10)
Ag1_2 Ag -0.5313(1) -0.2045(1) -0.0819(1)
Ag2_2 Ag 1.0286(1) -0.2663(1) -0.3912(1)
O6_2 O -0.3423(15) -0.3249(3) -0.3736(10)
N4_2 N -0.1923(14) -0.1857(4) -0.4405(10)
H21_2 H -0.1397(14) -0.1904(4) -0.3365(10)
H22_2 H -0.0885(14) -0.1783(4) -0.5144(10)
N2_2 N 0.7045(14) -0.2837(3) -0.0268(10)
H17_2 H 0.6482(14) -0.2817(3) -0.1310(10)
H18_2 H 0.6044(14) -0.2901(3) 0.0504(10)
loop_
_geom_bond_atom_site_label_1
_geom_bond_atom_site_label_2
_geom_bond_site_symmetry_1
_geom_bond_site_symmetry_2
Ag1 O1 1_555 1_555
Ag2 O4 1_555 1_555
S1 O1 1_555 1_555
O2 S1 1_555 1_555
O3 S1 1_555 1_555
C1 S1 1_555 1_555
C2 C1 1_555 1_555
C3 C2 1_555 1_555
C4 C3 1_555 1_555
C5 C4 1_555 1_555
C6 C4 1_555 1_555
C7 C1 1_555 1_555
S2 O4 1_555 1_555
O5 S2 1_555 1_555
O6 S2 1_555 1_555
C8 S2 1_555 1_555
C9 C8 1_555 1_555
C10 C9 1_555 1_555
C11 C10 1_555 1_555
C12 C11 1_555 1_555
C13 C11 1_555 1_555
C14 C8 1_555 1_555
N1 C15 1_555 1_555
C15 O7 1_555 1_555
O7 Ag1 1_555 1_555
N2 C15 1_555 1_555
N3 C16 1_555 1_555
C16 O8 1_555 1_555
O8 Ag1 1_555 1_555
N4 C16 1_555 1_555
H1 C2 1_555 1_555
H2 C3 1_555 1_555
H3 C5 1_555 1_555
H4 C5 1_555 1_555
H5 C5 1_555 1_555
H6 C6 1_555 1_555
H7 C7 1_555 1_555
H8 C9 1_555 1_555
H9 C10 1_555 1_555
H10 C12 1_555 1_555
H11 C12 1_555 1_555
H12 C12 1_555 1_555
H13 C13 1_555 1_555
H14 C14 1_555 1_555
H15 N1 1_555 1_555
H16 N1 1_555 1_555
H17 N2 1_555 1_555
H18 N2 1_555 1_555
H19 N3 1_555 1_555
H20 N3 1_555 1_555
H21 N4 1_555 1_555
H22 N4 1_555 1_555
O2_2 Ag1 1_555 1_555
Ag1_2 O2 1_555 1_555
Ag2_2 O6 1_555 1_555
O6_2 Ag2 1_555 1_555
N4_2 Ag2 1_555 1_555
H21_2 N4_2 1_555 1_555
H22_2 N4_2 1_555 1_555
N2_2 Ag1 1_555 1_555
H17_2 N2_2 1_555 1_555
H18_2 N2_2 1_555 1_555
Ag2 O7 1_555 1_555
Ag2 O8 1_555 1_555
C6 C7 1_555 1_555
C13 C14 1_555 1_555
N2 Ag1_2 1_555 1_555
N4 Ag2_2 1_555 1_555

#END
