
#######################################################################
#
#                 Cambridge Crystallographic Data Centre
#                                CCDC 
#
#######################################################################
#
# If this CIF has been generated from an entry in the Cambridge 
# Structural Database, then it will include bibliographic, chemical, 
# crystal, experimental, refinement or atomic coordinate data resulting 
# from the CCDC's data processing and validation procedures.
#
#######################################################################

data_NUJMEL
_symmetry_cell_setting           monoclinic
_symmetry_space_group_name_H-M   'P 21'
_symmetry_Int_Tables_number      4
_space_group_name_Hall           'P 2yb'
loop_
_symmetry_equiv_pos_site_id
_symmetry_equiv_pos_as_xyz
1 x,y,z
2 -x,1/2+y,-z
_cell_length_a                   7.0698(5)
_cell_length_b                   11.4049(8)
_cell_length_c                   12.6773(9)
_cell_angle_alpha                90
_cell_angle_beta                 99.038(1)
_cell_angle_gamma                90
_cell_volume                     1009.48
loop_
_atom_site_label
_atom_site_type_symbol
_atom_site_fract_x
_atom_site_fract_y
_atom_site_fract_z
Ag1 Ag 0.03123(4) 0.32486(2) 0.60067(2)
S1 S 0.05657(14) 0.54097(8) 0.40954(8)
S2 S 0.44979(14) 0.41958(8) 0.46752(8)
S3 S 0.41419(16) 0.66965(8) 0.39403(8)
C1 C 0.3017(6) 0.5249(3) 0.3850(3)
H1 H 0.2947 0.4983 0.3093
C2 C -0.0404(5) 0.4073(4) 0.3641(3)
C3 C -0.1813(6) 0.2715(4) 0.2579(4)
H2 H -0.2390 0.2294 0.1965
C4 C -0.1538(6) 0.2319(4) 0.3598(3)
H3 H -0.1909 0.1567 0.3817
C5 C -0.1053(7) 0.4587(4) 0.1671(3)
H4 H 0.0056 0.4381 0.1332
H5 H -0.0952 0.5408 0.1901
H6 H -0.2230 0.4478 0.1158
C6 C 0.4381(5) 0.4617(3) 0.5988(3)
C7 C 0.5247(6) 0.5333(4) 0.7601(4)
H7 H 0.5915 0.5738 0.8201
C8 C 0.3664(6) 0.4657(4) 0.7568(3)
H8 H 0.3017 0.4524 0.8159
C9 C 0.7346(7) 0.5908(4) 0.6288(4)
H9 H 0.7454 0.5716 0.5546
H10 H 0.8506 0.5652 0.6759
H11 H 0.7192 0.6757 0.6358
C10 C 0.2938(6) 0.7310(3) 0.2757(3)
C11 C 0.2208(8) 0.7695(5) 0.1065(4)
H12 H 0.2224 0.7730 0.0318
C12 C 0.0880(7) 0.8170(6) 0.1589(3)
H13 H -0.0202 0.8610 0.1269
C13 C 0.5244(8) 0.6538(5) 0.1590(4)
H14 H 0.6366 0.6837 0.2067
H15 H 0.5411 0.6666 0.0846
H16 H 0.5104 0.5697 0.1716
N1 N -0.0651(4) 0.3159(3) 0.4263(2)
N2 N -0.1103(5) 0.3834(3) 0.2596(3)
N3 N 0.3121(5) 0.4193(3) 0.6573(3)
N4 N 0.5680(5) 0.5308(3) 0.6589(3)
N5 N 0.1336(5) 0.7919(3) 0.2665(3)
N6 N 0.3519(6) 0.7157(3) 0.1803(3)
Ag1A Ag -0.03123(4) 0.82486(2) 0.39933(2)
N5A N -0.1336(5) 0.2919(3) 0.7335(3)
B1 B 0.6666(7) 0.8284(7) 0.9091(4)
F1 F 0.5045(5) 0.7790(5) 0.9368(3)
F2 F 0.8036(7) 0.7435(4) 0.9151(5)
F3 F 0.7340(6) 0.9154(4) 0.9783(3)
F4 F 0.6282(5) 0.8674(3) 0.8079(2)
loop_
_geom_bond_atom_site_label_1
_geom_bond_atom_site_label_2
_geom_bond_site_symmetry_1
_geom_bond_site_symmetry_2
Ag1 N1 1_555 1_555
S1 C1 1_555 1_555
S2 C1 1_555 1_555
S3 C1 1_555 1_555
B1 F1 1_555 1_555
C1 H1 1_555 1_555
C2 S1 1_555 1_555
C3 H2 1_555 1_555
C4 C3 1_555 1_555
H3 C4 1_555 1_555
C5 H4 1_555 1_555
H5 C5 1_555 1_555
H6 C5 1_555 1_555
C6 S2 1_555 1_555
C7 H7 1_555 1_555
C8 C7 1_555 1_555
H8 C8 1_555 1_555
C9 H9 1_555 1_555
H10 C9 1_555 1_555
H11 C9 1_555 1_555
C10 S3 1_555 1_555
C11 H12 1_555 1_555
C12 C11 1_555 1_555
H13 C12 1_555 1_555
C13 H14 1_555 1_555
H15 C13 1_555 1_555
H16 C13 1_555 1_555
N1 C2 1_555 1_555
N2 C2 1_555 1_555
N3 Ag1 1_555 1_555
N4 C6 1_555 1_555
N5 C10 1_555 1_555
N6 C10 1_555 1_555
F2 B1 1_555 1_555
F3 B1 1_555 1_555
F4 B1 1_555 1_555
Ag1A N5 1_555 1_555
N5A Ag1 1_555 1_555
C3 N2 1_555 1_555
C4 N1 1_555 1_555
C5 N2 1_555 1_555
C6 N3 1_555 1_555
C7 N4 1_555 1_555
C8 N3 1_555 1_555
C9 N4 1_555 1_555
C11 N6 1_555 1_555
C12 N5 1_555 1_555
C13 N6 1_555 1_555

#END
