
#######################################################################
#
#                 Cambridge Crystallographic Data Centre
#                                CCDC 
#
#######################################################################
#
# If this CIF has been generated from an entry in the Cambridge 
# Structural Database, then it will include bibliographic, chemical, 
# crystal, experimental, refinement or atomic coordinate data resulting 
# from the CCDC's data processing and validation procedures.
#
#######################################################################

data_NUJMUB
_symmetry_cell_setting           monoclinic
_symmetry_space_group_name_H-M   'P 21/n'
_symmetry_Int_Tables_number      14
_space_group_name_Hall           '-P 2yn'
loop_
_symmetry_equiv_pos_site_id
_symmetry_equiv_pos_as_xyz
1 x,y,z
2 1/2-x,1/2+y,1/2-z
3 -x,-y,-z
4 1/2+x,1/2-y,1/2+z
_cell_length_a                   10.129(2)
_cell_length_b                   10.319(2)
_cell_length_c                   37.074(3)
_cell_angle_alpha                90
_cell_angle_beta                 97.615(2)
_cell_angle_gamma                90
_cell_volume                     3840.84
loop_
_atom_site_label
_atom_site_type_symbol
_atom_site_fract_x
_atom_site_fract_y
_atom_site_fract_z
Sn1 Sn 0.18965(4) 1.18224(4) 0.237145(12)
Sn2 Sn 0.80300(5) 0.65042(5) 0.452385(13)
O1 O 0.2768(4) 0.9989(4) 0.26712(13)
O2 O 0.3983(4) 0.8432(4) 0.29599(12)
O3 O 0.7381(5) 0.7764(5) 0.41077(14)
O4 O 0.5594(6) 0.7523(6) 0.43652(17)
C1 C 0.4020(7) 1.0487(6) 0.32493(18)
H1 H 0.3717 1.1364 0.3180
C2 C 0.5539(7) 1.0519(7) 0.3342(2)
H2 H 0.5920 1.0582 0.3116
H3 H 0.5779 1.1302 0.3480
C3 C 0.6182(7) 0.9376(7) 0.35560(19)
H4 H 0.6094 0.8607 0.3404
H5 H 0.7124 0.9547 0.3623
C4 C 0.5538(7) 0.9138(7) 0.38958(18)
H6 H 0.5657 0.9933 0.4041
C5 C 0.4040(7) 0.8944(7) 0.3800(2)
H7 H 0.3872 0.8169 0.3653
H8 H 0.3638 0.8827 0.4021
C6 C 0.3413(8) 1.0106(7) 0.35911(19)
H9 H 0.3476 1.0844 0.3754
H10 H 0.2475 0.9925 0.3521
C7 C 0.3566(6) 0.9588(6) 0.29331(18)
C8 C 0.6163(8) 0.8050(7) 0.4137(2)
C9 C 0.0909(6) 1.0578(6) 0.19663(17)
C10 C -0.0465(7) 1.0770(7) 0.1856(2)
H11 H -0.0929 1.1383 0.1973
C11 C -0.1114(8) 1.0060(10) 0.1578(3)
H12 H -0.2023 1.0184 0.1510
C12 C -0.0448(10) 0.9162(9) 0.1396(2)
H13 H -0.0899 0.8695 0.1204
C13 C 0.0891(10) 0.8958(7) 0.1501(2)
H14 H 0.1350 0.8344 0.1382
C14 C 0.1542(8) 0.9672(7) 0.17826(19)
H15 H 0.2447 0.9533 0.1851
C15 C 0.0742(6) 1.2205(7) 0.28020(18)
C16 C 0.0213(7) 1.3421(7) 0.2858(2)
H16 H 0.0418 1.4117 0.2716
C17 C -0.0606(8) 1.3610(8) 0.3121(2)
H17 H -0.0927 1.4435 0.3160
C18 C -0.0950(8) 1.2593(9) 0.3323(2)
H18 H -0.1503 1.2729 0.3500
C19 C -0.0491(8) 1.1379(9) 0.3267(2)
H19 H -0.0739 1.0688 0.3405
C20 C 0.0339(7) 1.1173(8) 0.3008(2)
H20 H 0.0636 1.0339 0.2968
C21 C 0.3852(6) 1.2329(6) 0.22751(18)
C22 C 0.4881(7) 1.2679(7) 0.2539(2)
H21 H 0.4730 1.2723 0.2781
C23 C 0.6140(8) 1.2967(9) 0.2450(3)
H22 H 0.6821 1.3199 0.2632
C24 C 0.6378(9) 1.2908(9) 0.2096(3)
H23 H 0.7229 1.3069 0.2039
C25 C 0.5375(10) 1.2614(9) 0.1827(3)
H24 H 0.5525 1.2620 0.1585
C26 C 0.4120(8) 1.2306(7) 0.1917(2)
H25 H 0.3444 1.2079 0.1733
C27 C 0.9935(7) 0.6217(7) 0.4358(2)
C28 C 1.0095(8) 0.5549(8) 0.4038(2)
H26 H 0.9353 0.5202 0.3896
C29 C 1.1334(8) 0.5398(9) 0.3932(2)
H27 H 1.1419 0.4943 0.3719
C30 C 1.2443(8) 0.5905(9) 0.4132(2)
H28 H 1.3275 0.5813 0.4055
C31 C 1.2311(8) 0.6549(8) 0.4447(3)
H29 H 1.3060 0.6891 0.4587
C32 C 1.1071(7) 0.6696(7) 0.4560(2)
H30 H 1.1003 0.7129 0.4776
C33 C 0.8249(10) 0.7658(8) 0.5004(2)
C34 C 0.8051(15) 0.8932(11) 0.4980(3)
H31 H 0.7798 0.9309 0.4754
C35 C 0.8222(16) 0.9710(12) 0.5292(4)
H32 H 0.8055 1.0595 0.5273
C36 C 0.8631(13) 0.9179(11) 0.5625(3)
H33 H 0.8855 0.9697 0.5830
C37 C 0.8697(11) 0.7921(10) 0.5647(3)
H34 H 0.8870 0.7533 0.5875
C38 C 0.8517(10) 0.7152(8) 0.5343(2)
H35 H 0.8581 0.6258 0.5370
C39 C 0.7060(7) 0.4680(7) 0.45293(18)
C40 C 0.5762(8) 0.4538(8) 0.4593(2)
H36 H 0.5251 0.5271 0.4621
C41 C 0.5208(10) 0.3333(10) 0.4617(3)
H37 H 0.4336 0.3260 0.4668
C42 C 0.5917(12) 0.2248(10) 0.4567(3)
H38 H 0.5541 0.1433 0.4587
C43 C 0.7178(11) 0.2365(9) 0.4489(3)
H39 H 0.7650 0.1622 0.4443
C44 C 0.7789(8) 0.3575(7) 0.4474(2)
H40 H 0.8667 0.3639 0.4428
Sn1A Sn 0.31035(4) 0.68224(4) 0.262855(12)
O2A O 0.1017(4) 1.3432(4) 0.20401(12)
loop_
_geom_bond_atom_site_label_1
_geom_bond_atom_site_label_2
_geom_bond_site_symmetry_1
_geom_bond_site_symmetry_2
Sn1 O1 1_555 1_555
Sn2 O3 1_555 1_555
O1 C7 1_555 1_555
O2 C7 1_555 1_555
O3 C8 1_555 1_555
O4 Sn2 1_555 1_555
C1 H1 1_555 1_555
C2 C1 1_555 1_555
H2 C2 1_555 1_555
H3 C2 1_555 1_555
C3 C2 1_555 1_555
H4 C3 1_555 1_555
H5 C3 1_555 1_555
C4 C3 1_555 1_555
H6 C4 1_555 1_555
C5 C4 1_555 1_555
H7 C5 1_555 1_555
H8 C5 1_555 1_555
C6 C1 1_555 1_555
H9 C6 1_555 1_555
H10 C6 1_555 1_555
C7 C1 1_555 1_555
C8 O4 1_555 1_555
C9 Sn1 1_555 1_555
C10 C9 1_555 1_555
H11 C10 1_555 1_555
C11 C10 1_555 1_555
H12 C11 1_555 1_555
C12 C11 1_555 1_555
H13 C12 1_555 1_555
C13 C12 1_555 1_555
H14 C13 1_555 1_555
C14 C9 1_555 1_555
H15 C14 1_555 1_555
C15 Sn1 1_555 1_555
C16 C15 1_555 1_555
H16 C16 1_555 1_555
C17 C16 1_555 1_555
H17 C17 1_555 1_555
C18 C17 1_555 1_555
H18 C18 1_555 1_555
C19 C18 1_555 1_555
H19 C19 1_555 1_555
C20 C15 1_555 1_555
H20 C20 1_555 1_555
C21 Sn1 1_555 1_555
C22 C21 1_555 1_555
H21 C22 1_555 1_555
C23 C22 1_555 1_555
H22 C23 1_555 1_555
C24 C23 1_555 1_555
H23 C24 1_555 1_555
C25 C24 1_555 1_555
H24 C25 1_555 1_555
C26 C21 1_555 1_555
H25 C26 1_555 1_555
C27 Sn2 1_555 1_555
C28 C27 1_555 1_555
H26 C28 1_555 1_555
C29 C28 1_555 1_555
H27 C29 1_555 1_555
C30 C29 1_555 1_555
H28 C30 1_555 1_555
C31 C30 1_555 1_555
H29 C31 1_555 1_555
C32 C27 1_555 1_555
H30 C32 1_555 1_555
C33 Sn2 1_555 1_555
C34 C33 1_555 1_555
H31 C34 1_555 1_555
C35 C34 1_555 1_555
H32 C35 1_555 1_555
C36 C35 1_555 1_555
H33 C36 1_555 1_555
C37 C36 1_555 1_555
H34 C37 1_555 1_555
C38 C33 1_555 1_555
H35 C38 1_555 1_555
C39 Sn2 1_555 1_555
C40 C39 1_555 1_555
H36 C40 1_555 1_555
C41 C40 1_555 1_555
H37 C41 1_555 1_555
C42 C41 1_555 1_555
H38 C42 1_555 1_555
C43 C42 1_555 1_555
H39 C43 1_555 1_555
C44 C39 1_555 1_555
H40 C44 1_555 1_555
Sn1A O2 1_555 1_555
O2A Sn1 1_555 1_555
C4 C8 1_555 1_555
C5 C6 1_555 1_555
C13 C14 1_555 1_555
C19 C20 1_555 1_555
C25 C26 1_555 1_555
C31 C32 1_555 1_555
C37 C38 1_555 1_555
C43 C44 1_555 1_555

#END
