
#######################################################################
#
#                 Cambridge Crystallographic Data Centre
#                                CCDC 
#
#######################################################################
#
# If this CIF has been generated from an entry in the Cambridge 
# Structural Database, then it will include bibliographic, chemical, 
# crystal, experimental, refinement or atomic coordinate data resulting 
# from the CCDC's data processing and validation procedures.
#
#######################################################################

data_NUJMOV
_symmetry_cell_setting           monoclinic
_symmetry_space_group_name_H-M   'P 21/c'
_symmetry_Int_Tables_number      14
_space_group_name_Hall           '-P 2ybc'
loop_
_symmetry_equiv_pos_site_id
_symmetry_equiv_pos_as_xyz
1 x,y,z
2 -x,1/2+y,1/2-z
3 -x,-y,-z
4 x,1/2-y,1/2+z
_cell_length_a                   10.286(2)
_cell_length_b                   10.343(3)
_cell_length_c                   18.340(4)
_cell_angle_alpha                90
_cell_angle_beta                 103.114(4)
_cell_angle_gamma                90
_cell_volume                     1900.27
loop_
_atom_site_label
_atom_site_type_symbol
_atom_site_fract_x
_atom_site_fract_y
_atom_site_fract_z
Sn1 Sn 0.48442(7) 0.12155(7) 0.28290(4)
O1 O 0.4936(8) 0.2674(6) 0.3682(4)
O2 O 0.5207(8) 0.4312(7) 0.2959(4)
C1 C 0.5037(10) 0.3890(10) 0.3556(6)
C2 C 0.5027(10) 0.4758(10) 0.4215(5)
H1 H 0.5051 0.5655 0.4046
C3 C 0.6236(11) 0.4539(11) 0.4837(6)
H2 H 0.7034 0.4701 0.4653
H3 H 0.6256 0.3644 0.4996
C4 C 0.3762(10) 0.4584(11) 0.4497(6)
H4 H 0.3690 0.3691 0.4643
H5 H 0.2993 0.4783 0.4098
C5 C 0.6866(13) 0.1341(13) 0.2722(8)
H6 H 0.7204 0.0462 0.2772
H7 H 0.6818 0.1589 0.2207
C6 C 0.7847(16) 0.2080(18) 0.3141(9)
H8 H 0.7928 0.1832 0.3660
H9 H 0.7532 0.2967 0.3096
C7 C 0.9258(16) 0.2084(19) 0.2999(11)
H10 H 0.9627 0.1226 0.3116
H11 H 0.9172 0.2213 0.2466
C8 C 1.016(2) 0.293(2) 0.3355(15)
H12 H 0.9727 0.3740 0.3398
H13 H 1.0835 0.3049 0.3078
H14 H 1.0555 0.2606 0.3845
C9 C 0.4325(14) -0.0162(12) 0.3573(7)
H15 H 0.4048 -0.0953 0.3297
H16 H 0.5115 -0.0360 0.3958
C10 C 0.3215(15) 0.0259(14) 0.3953(8)
H17 H 0.3531 0.0993 0.4274
H18 H 0.2457 0.0548 0.3571
C11 C 0.2760(18) -0.0743(16) 0.4402(9)
H19 H 0.3518 -0.1111 0.4754
H20 H 0.2318 -0.1430 0.4079
C12 C 0.181(2) -0.015(2) 0.4816(12)
H21 H 0.2005 0.0754 0.4888
H22 H 0.1915 -0.0566 0.5294
H23 H 0.0915 -0.0263 0.4531
C13 C 0.3329(13) 0.2072(13) 0.2014(7)
H24 H 0.3072 0.2867 0.2224
H25 H 0.3714 0.2314 0.1597
C14 C 0.2107(15) 0.1342(13) 0.1710(8)
H26 H 0.1678 0.1130 0.2114
H27 H 0.2341 0.0536 0.1501
C15 C 0.1093(17) 0.2097(17) 0.1088(10)
H28 H 0.0831 0.2888 0.1300
H29 H 0.1526 0.2331 0.0689
C16 C -0.008(2) 0.1342(19) 0.0782(13)
H30 H 0.0173 0.0462 0.0721
H31 H -0.0521 0.1689 0.0304
H32 H -0.0677 0.1372 0.1116
Sn1B Sn 0.51558(7) 0.87845(7) 0.71710(4)
Sn1A Sn 0.51558(7) 0.62155(7) 0.21710(4)
Sn1C Sn 0.48442(7) 0.37845(7) 0.78290(4)
O1B O 0.5064(8) 0.7326(6) 0.6318(4)
O2B O 0.4793(8) 0.5688(7) 0.7041(4)
O2A O 0.4793(8) -0.0688(7) 0.2041(4)
O2C O 0.5207(8) 1.0688(7) 0.7959(4)
C1B C 0.4963(10) 0.6110(10) 0.6444(6)
C2B C 0.4973(10) 0.5242(10) 0.5785(5)
H1B H 0.4949 0.4345 0.5954
C3B C 0.3764(11) 0.5461(11) 0.5163(6)
H2B H 0.2966 0.5299 0.5347
H3B H 0.3744 0.6356 0.5004
C4B C 0.6238(10) 0.5416(11) 0.5503(6)
H4B H 0.6310 0.6309 0.5357
H5B H 0.7007 0.5217 0.5902
C5B C 0.3134(13) 0.8659(13) 0.7278(8)
H6B H 0.2796 0.9538 0.7228
H7B H 0.3182 0.8411 0.7793
C6B C 0.2153(16) 0.7920(18) 0.6859(9)
H8B H 0.2072 0.8168 0.6340
H9B H 0.2468 0.7033 0.6904
C7B C 0.0742(16) 0.7916(19) 0.7001(11)
H10B H 0.0373 0.8774 0.6884
H11B H 0.0828 0.7787 0.7534
C8B C -0.016(2) 0.707(2) 0.6645(15)
H12B H 0.0273 0.6260 0.6602
H13B H -0.0835 0.6951 0.6922
H14B H -0.0555 0.7394 0.6155
C9B C 0.5675(14) 1.0162(12) 0.6427(7)
H15B H 0.5952 1.0953 0.6703
H16B H 0.4885 1.0360 0.6042
C10B C 0.6785(15) 0.9741(14) 0.6047(8)
H17B H 0.6469 0.9007 0.5726
H18B H 0.7543 0.9452 0.6429
C11B C 0.7240(18) 1.0743(16) 0.5598(9)
H19B H 0.6482 1.1111 0.5246
H20B H 0.7682 1.1430 0.5921
C12B C 0.819(2) 1.015(2) 0.5184(12)
H21B H 0.7995 0.9246 0.5112
H22B H 0.8085 1.0566 0.4706
H23B H 0.9085 1.0263 0.5469
C13B C 0.6671(13) 0.7928(13) 0.7986(7)
H24B H 0.6928 0.7133 0.7776
H25B H 0.6286 0.7686 0.8403
C14B C 0.7893(15) 0.8658(13) 0.8290(8)
H26B H 0.8322 0.8870 0.7886
H27B H 0.7659 0.9464 0.8499
C15B C 0.8907(17) 0.7903(17) 0.8912(10)
H28B H 0.9169 0.7112 0.8700
H29B H 0.8474 0.7669 0.9311
C16B C 1.008(2) 0.8658(19) 0.9218(13)
H30B H 0.9827 0.9538 0.9279
H31B H 1.0521 0.8311 0.9696
H32B H 1.0677 0.8628 0.8884
loop_
_geom_bond_atom_site_label_1
_geom_bond_atom_site_label_2
_geom_bond_site_symmetry_1
_geom_bond_site_symmetry_2
Sn1 O1 1_555 1_555
O1 C1 1_555 1_555
O2 C1 1_555 1_555
C1 C2 1_555 1_555
C2 H1 1_555 1_555
C3 C2 1_555 1_555
H2 C3 1_555 1_555
H3 C3 1_555 1_555
C4 C2 1_555 1_555
H4 C4 1_555 1_555
H5 C4 1_555 1_555
C5 Sn1 1_555 1_555
H6 C5 1_555 1_555
H7 C5 1_555 1_555
C6 C5 1_555 1_555
H8 C6 1_555 1_555
H9 C6 1_555 1_555
C7 C6 1_555 1_555
H10 C7 1_555 1_555
H11 C7 1_555 1_555
C8 C7 1_555 1_555
H12 C8 1_555 1_555
H13 C8 1_555 1_555
H14 C8 1_555 1_555
C9 Sn1 1_555 1_555
H15 C9 1_555 1_555
H16 C9 1_555 1_555
C10 C9 1_555 1_555
H17 C10 1_555 1_555
H18 C10 1_555 1_555
C11 C10 1_555 1_555
H19 C11 1_555 1_555
H20 C11 1_555 1_555
C12 C11 1_555 1_555
H21 C12 1_555 1_555
H22 C12 1_555 1_555
H23 C12 1_555 1_555
C13 Sn1 1_555 1_555
H24 C13 1_555 1_555
H25 C13 1_555 1_555
C14 C13 1_555 1_555
H26 C14 1_555 1_555
H27 C14 1_555 1_555
C15 C14 1_555 1_555
H28 C15 1_555 1_555
H29 C15 1_555 1_555
C16 C15 1_555 1_555
H30 C16 1_555 1_555
H31 C16 1_555 1_555
H32 C16 1_555 1_555
Sn1B O1B 1_555 1_555
Sn1A O2 1_555 1_555
Sn1C O2B 1_555 1_555
O1B C1B 1_555 1_555
O2B C1B 1_555 1_555
O2A Sn1 1_555 1_555
O2C Sn1B 1_555 1_555
C1B C2B 1_555 1_555
C2B H1B 1_555 1_555
C3B C4 1_555 1_555
H2B C3B 1_555 1_555
H3B C3B 1_555 1_555
C4B C3 1_555 1_555
H4B C4B 1_555 1_555
H5B C4B 1_555 1_555
C5B Sn1B 1_555 1_555
H6B C5B 1_555 1_555
H7B C5B 1_555 1_555
C6B C5B 1_555 1_555
H8B C6B 1_555 1_555
H9B C6B 1_555 1_555
C7B C6B 1_555 1_555
H10B C7B 1_555 1_555
H11B C7B 1_555 1_555
C8B C7B 1_555 1_555
H12B C8B 1_555 1_555
H13B C8B 1_555 1_555
H14B C8B 1_555 1_555
C9B Sn1B 1_555 1_555
H15B C9B 1_555 1_555
H16B C9B 1_555 1_555
C10B C9B 1_555 1_555
H17B C10B 1_555 1_555
H18B C10B 1_555 1_555
C11B C10B 1_555 1_555
H19B C11B 1_555 1_555
H20B C11B 1_555 1_555
C12B C11B 1_555 1_555
H21B C12B 1_555 1_555
H22B C12B 1_555 1_555
H23B C12B 1_555 1_555
C13B Sn1B 1_555 1_555
H24B C13B 1_555 1_555
H25B C13B 1_555 1_555
C14B C13B 1_555 1_555
H26B C14B 1_555 1_555
H27B C14B 1_555 1_555
C15B C14B 1_555 1_555
H28B C15B 1_555 1_555
H29B C15B 1_555 1_555
C16B C15B 1_555 1_555
H30B C16B 1_555 1_555
H31B C16B 1_555 1_555
H32B C16B 1_555 1_555
C2B C3B 1_555 1_555
C2B C4B 1_555 1_555

#END
