
#######################################################################
#
#                 Cambridge Crystallographic Data Centre
#                                CCDC 
#
#######################################################################
#
# If this CIF has been generated from an entry in the Cambridge 
# Structural Database, then it will include bibliographic, chemical, 
# crystal, experimental, refinement or atomic coordinate data resulting 
# from the CCDC's data processing and validation procedures.
#
#######################################################################

data_NUJNAI
_symmetry_cell_setting           triclinic
_symmetry_space_group_name_H-M   'P -1'
_symmetry_Int_Tables_number      2
_space_group_name_Hall           '-P 1'
loop_
_symmetry_equiv_pos_site_id
_symmetry_equiv_pos_as_xyz
1 x,y,z
2 -x,-y,-z
_cell_length_a                   9.377(3)
_cell_length_b                   9.925(3)
_cell_length_c                   12.753(4)
_cell_angle_alpha                68.497(3)
_cell_angle_beta                 77.769(3)
_cell_angle_gamma                65.550(3)
_cell_volume                     1002.71
loop_
_atom_site_label
_atom_site_type_symbol
_atom_site_fract_x
_atom_site_fract_y
_atom_site_fract_z
Sn1 Sn 0.58962(4) -0.01333(4) 0.26904(3)
Sn2 Sn 0.77303(4) 0.43627(4) 0.22293(3)
O1 O 0.4187(4) 0.2220(4) 0.2615(4)
O2 O 0.6097(4) 0.3132(4) 0.2158(4)
O3 O -0.2453(4) 0.7262(4) 0.2807(3)
O4 O -0.0579(4) 0.5325(4) 0.2298(4)
C1 C 0.3451(5) 0.4869(5) 0.2484(4)
H1 H 0.3997 0.5509 0.2513
C2 C 0.2541(6) 0.5710(6) 0.1413(4)
H2 H 0.3268 0.5856 0.0755
H3 H 0.2033 0.5071 0.1348
C3 C 0.1305(6) 0.7289(6) 0.1444(4)
H4 H 0.0689 0.7738 0.0793
H5 H 0.1833 0.7977 0.1381
C4 C 0.0188(5) 0.7219(5) 0.2520(4)
H6 H -0.0376 0.8291 0.2539
C5 C 0.1116(6) 0.6299(6) 0.3580(4)
H7 H 0.0387 0.6158 0.4239
H8 H 0.1657 0.6899 0.3662
C6 C 0.2325(6) 0.4692(6) 0.3544(4)
H9 H 0.2917 0.4184 0.4212
H10 H 0.1785 0.4045 0.3541
C7 C 0.4684(6) 0.3302(6) 0.2424(5)
C8 C -0.1046(6) 0.6573(6) 0.2549(4)
C9 C 0.6988(8) -0.0350(7) 0.4076(5)
H11 H 0.6381 -0.0646 0.4767
H12 H 0.7049 0.0630 0.3983
H13 H 0.8027 -0.1133 0.4105
C10 C 0.6790(8) 0.0479(7) 0.0986(5)
H14 H 0.7637 0.0812 0.0930
H15 H 0.5970 0.1312 0.0530
H16 H 0.7167 -0.0408 0.0723
C11 C 0.4010(7) -0.0924(7) 0.3027(6)
H17 H 0.3704 -0.1176 0.3821
H18 H 0.4339 -0.1835 0.2798
H19 H 0.3135 -0.0119 0.2613
C12 C 0.9622(7) 0.2489(8) 0.1806(8)
H20 H 0.9874 0.2791 0.1004
H21 H 0.9325 0.1600 0.2030
H22 H 1.0522 0.2227 0.2191
C13 C 0.6616(7) 0.6330(7) 0.0882(5)
H23 H 0.7194 0.6225 0.0180
H24 H 0.6583 0.7255 0.0983
H25 H 0.5565 0.6405 0.0869
C14 C 0.6933(9) 0.4010(8) 0.3949(5)
H26 H 0.7626 0.3031 0.4399
H27 H 0.5892 0.3999 0.4056
H28 H 0.6917 0.4838 0.4176
Sn1_2 Sn -0.41038(4) 0.98667(4) 0.26904(3)
Sn2_2 Sn -0.22697(4) 0.43627(4) 0.22293(3)
O3_2 O 0.7547(4) -0.2738(4) 0.2807(3)
O4_2 O 0.9421(4) 0.5325(4) 0.2298(4)
loop_
_geom_bond_atom_site_label_1
_geom_bond_atom_site_label_2
_geom_bond_site_symmetry_1
_geom_bond_site_symmetry_2
Sn1 O1 1_555 1_555
Sn2 O2 1_555 1_555
O1 C7 1_555 1_555
O2 C7 1_555 1_555
O3 C8 1_555 1_555
O4 C8 1_555 1_555
C1 H1 1_555 1_555
C2 C1 1_555 1_555
H2 C2 1_555 1_555
H3 C2 1_555 1_555
C3 C2 1_555 1_555
H4 C3 1_555 1_555
H5 C3 1_555 1_555
C4 C3 1_555 1_555
H6 C4 1_555 1_555
C5 C4 1_555 1_555
H7 C5 1_555 1_555
H8 C5 1_555 1_555
C6 C1 1_555 1_555
H9 C6 1_555 1_555
H10 C6 1_555 1_555
C7 C1 1_555 1_555
C8 C4 1_555 1_555
C9 Sn1 1_555 1_555
H11 C9 1_555 1_555
H12 C9 1_555 1_555
H13 C9 1_555 1_555
C10 Sn1 1_555 1_555
H14 C10 1_555 1_555
H15 C10 1_555 1_555
H16 C10 1_555 1_555
C11 Sn1 1_555 1_555
H17 C11 1_555 1_555
H18 C11 1_555 1_555
H19 C11 1_555 1_555
C12 Sn2 1_555 1_555
H20 C12 1_555 1_555
H21 C12 1_555 1_555
H22 C12 1_555 1_555
C13 Sn2 1_555 1_555
H23 C13 1_555 1_555
H24 C13 1_555 1_555
H25 C13 1_555 1_555
C14 Sn2 1_555 1_555
H26 C14 1_555 1_555
H27 C14 1_555 1_555
H28 C14 1_555 1_555
Sn1_2 O3 1_555 1_555
Sn2_2 O4 1_555 1_555
O3_2 Sn1 1_555 1_555
O4_2 Sn2 1_555 1_555
C5 C6 1_555 1_555

#END
