
#######################################################################
#
#                 Cambridge Crystallographic Data Centre
#                                CCDC 
#
#######################################################################
#
# If this CIF has been generated from an entry in the Cambridge 
# Structural Database, then it will include bibliographic, chemical, 
# crystal, experimental, refinement or atomic coordinate data resulting 
# from the CCDC's data processing and validation procedures.
#
#######################################################################

data_NUJRUG
_symmetry_cell_setting           monoclinic
_symmetry_space_group_name_H-M   'P 21/n'
_symmetry_Int_Tables_number      14
_space_group_name_Hall           '-P 2yn'
loop_
_symmetry_equiv_pos_site_id
_symmetry_equiv_pos_as_xyz
1 x,y,z
2 1/2-x,1/2+y,1/2-z
3 -x,-y,-z
4 1/2+x,1/2-y,1/2+z
_cell_length_a                   9.7180(19)
_cell_length_b                   9.995(2)
_cell_length_c                   11.385(2)
_cell_angle_alpha                90
_cell_angle_beta                 96.59(3)
_cell_angle_gamma                90
_cell_volume                     1098.53
loop_
_atom_site_label
_atom_site_type_symbol
_atom_site_fract_x
_atom_site_fract_y
_atom_site_fract_z
Cu1 Cu 0.0000 1.0000 0.0000
N1 N 0.2025(3) 1.0304(3) 0.0252(3)
N2 N 0.3986(3) 1.0526(3) 0.1417(3)
N3 N 0.4594(3) 1.1233(3) 0.3435(3)
N4 N 0.5109(3) 1.2484(3) 0.3567(3)
N5 N 0.4584(3) 1.3033(3) 0.4460(3)
N6 N -0.0386(4) 0.8324(4) -0.2544(3)
O1 O 0.0160(4) 0.7801(4) -0.3345(3)
O2 O -0.1375(4) 0.7752(3) -0.2151(3)
O3 O 0.0081(3) 0.9417(3) -0.2099(3)
C1 C 0.3677(4) 1.2142(4) 0.4901(4)
C2 C 0.2848(4) 1.2249(5) 0.5818(4)
H1 H 0.2838 1.3022 0.6271
C3 C 0.2047(5) 1.1160(5) 0.6020(4)
H2 H 0.1473 1.1202 0.6618
C4 C 0.2074(5) 0.9994(5) 0.5353(4)
H3 H 0.1518 0.9280 0.5528
C5 C 0.2881(5) 0.9854(4) 0.4452(4)
H4 H 0.2898 0.9069 0.4016
C6 C 0.3682(4) 1.0975(4) 0.4232(4)
C7 C 0.4967(4) 1.0393(4) 0.2465(4)
H5 H 0.5882 1.0644 0.2278
H6 H 0.5004 0.9465 0.2716
C8 C 0.4072(5) 1.1349(5) 0.0467(4)
H7 H 0.4809 1.1903 0.0339
C9 C 0.2869(4) 1.1196(4) -0.0250(4)
H8 H 0.2647 1.1628 -0.0970
C10 C 0.2740(4) 0.9920(4) 0.1252(4)
H9 H 0.2423 0.9310 0.1776
Cu1A Cu 0.5000 1.5000 0.5000
Cu1A_2 Cu -0.5000 0.5000 -0.5000
N1B N -0.2025(3) 0.9696(3) -0.0252(3)
N2B N -0.3986(3) 0.9474(3) -0.1417(3)
N3B N -0.4594(3) 0.8767(3) -0.3435(3)
N4B N -0.5109(3) 0.7516(3) -0.3567(3)
N5B N -0.4584(3) 0.6967(3) -0.4460(3)
N5A N 0.0416(3) 0.8033(3) 0.0540(3)
N5C N -0.0416(3) 1.1967(3) -0.0540(3)
N6B N 0.0386(4) 1.1676(4) 0.2544(3)
O1B O -0.0160(4) 1.2199(4) 0.3345(3)
O2B O 0.1375(4) 1.2248(3) 0.2151(3)
O3B O -0.0081(3) 1.0583(3) 0.2099(3)
C1B C -0.3677(4) 0.7858(4) -0.4901(4)
C2B C -0.2848(4) 0.7751(5) -0.5818(4)
H1B H -0.2838 0.6978 -0.6271
C3B C -0.2047(5) 0.8840(5) -0.6020(4)
H2B H -0.1473 0.8798 -0.6618
C4B C -0.2074(5) 1.0006(5) -0.5353(4)
H3B H -0.1518 1.0720 -0.5528
C5B C -0.2881(5) 1.0146(4) -0.4452(4)
H4B H -0.2898 1.0931 -0.4016
C6B C -0.3682(4) 0.9025(4) -0.4232(4)
C7B C -0.4967(4) 0.9607(4) -0.2465(4)
H5B H -0.5882 0.9356 -0.2278
H6B H -0.5004 1.0535 -0.2716
C8B C -0.4072(5) 0.8651(5) -0.0467(4)
H7B H -0.4809 0.8097 -0.0339
C9B C -0.2869(4) 0.8804(4) 0.0250(4)
H8B H -0.2647 0.8372 0.0970
C10B C -0.2740(4) 1.0080(4) -0.1252(4)
H9B H -0.2423 1.0690 -0.1776
loop_
_geom_bond_atom_site_label_1
_geom_bond_atom_site_label_2
_geom_bond_site_symmetry_1
_geom_bond_site_symmetry_2
Cu1 N1 1_555 1_555
N1 C9 1_555 1_555
N2 C7 1_555 1_555
N3 N4 1_555 1_555
N4 N5 1_555 1_555
N5 C1 1_555 1_555
N6 O1 1_555 1_555
O2 N6 1_555 1_555
O3 Cu1 1_555 1_555
C1 C2 1_555 1_555
C2 H1 1_555 1_555
C3 C2 1_555 1_555
H2 C3 1_555 1_555
C4 C3 1_555 1_555
H3 C4 1_555 1_555
C5 C4 1_555 1_555
H4 C5 1_555 1_555
C6 N3 1_555 1_555
C7 N3 1_555 1_555
H5 C7 1_555 1_555
H6 C7 1_555 1_555
C8 N2 1_555 1_555
H7 C8 1_555 1_555
C9 C8 1_555 1_555
H8 C9 1_555 1_555
C10 N1 1_555 1_555
H9 C10 1_555 1_555
Cu1A N5 1_555 1_555
Cu1A_2 N5B 1_555 1_555
N1B Cu1 1_555 1_555
N2B C7B 1_555 1_555
N3B N4B 1_555 1_555
N4B N5B 1_555 1_555
N5B C1B 1_555 1_555
N5A Cu1 1_555 1_555
N5C Cu1 1_555 1_555
N6B O1B 1_555 1_555
O2B N6B 1_555 1_555
O3B Cu1 1_555 1_555
C1B C2B 1_555 1_555
C2B H1B 1_555 1_555
C3B C2B 1_555 1_555
H2B C3B 1_555 1_555
C4B C3B 1_555 1_555
H3B C4B 1_555 1_555
C5B C4B 1_555 1_555
H4B C5B 1_555 1_555
C6B N3B 1_555 1_555
C7B N3B 1_555 1_555
H5B C7B 1_555 1_555
H6B C7B 1_555 1_555
C8B N2B 1_555 1_555
H7B C8B 1_555 1_555
C9B N1B 1_555 1_555
H8B C9B 1_555 1_555
C10B N1B 1_555 1_555
H9B C10B 1_555 1_555
N2 C10 1_555 1_555
N6 O3 1_555 1_555
C1 C6 1_555 1_555
C5 C6 1_555 1_555
N2B C10B 1_555 1_555
N6B O3B 1_555 1_555
C1B C6B 1_555 1_555
C5B C6B 1_555 1_555
C8B C9B 1_555 1_555

#END
