
#######################################################################
#
#                 Cambridge Crystallographic Data Centre
#                                CCDC 
#
#######################################################################
#
# If this CIF has been generated from an entry in the Cambridge 
# Structural Database, then it will include bibliographic, chemical, 
# crystal, experimental, refinement or atomic coordinate data resulting 
# from the CCDC's data processing and validation procedures.
#
#######################################################################

data_NUJRIU
_symmetry_cell_setting           monoclinic
_symmetry_space_group_name_H-M   'P 21/n'
_symmetry_Int_Tables_number      14
_space_group_name_Hall           '-P 2yn'
loop_
_symmetry_equiv_pos_site_id
_symmetry_equiv_pos_as_xyz
1 x,y,z
2 1/2-x,1/2+y,1/2-z
3 -x,-y,-z
4 1/2+x,1/2-y,1/2+z
_cell_length_a                   9.865(2)
_cell_length_b                   10.146(2)
_cell_length_c                   11.116(2)
_cell_angle_alpha                90
_cell_angle_beta                 95.71(3)
_cell_angle_gamma                90
_cell_volume                     1107.08
loop_
_atom_site_label
_atom_site_type_symbol
_atom_site_fract_x
_atom_site_fract_y
_atom_site_fract_z
Co1 Co 0.0000 0.5000 0.5000
N1 N 0.21291(15) 0.47383(15) 0.51714(14)
N2 N 0.40465(15) 0.45170(15) 0.63388(13)
N3 N 0.46284(15) 0.38301(14) 0.83849(14)
N4 N 0.51311(15) 0.25949(15) 0.85208(14)
N5 N 0.45873(15) 0.20393(14) 0.94179(13)
N6 N -0.04014(17) 0.65576(16) 0.26044(14)
O1 O 0.00819(14) 0.55119(13) 0.31315(12)
O2 O -0.13695(17) 0.71418(16) 0.29846(15)
O3 O 0.01206(19) 0.69821(18) 0.17289(16)
C1 C 0.36910(18) 0.29195(18) 0.98703(16)
C2 C 0.28452(19) 0.27986(19) 1.08103(18)
H1 H 0.2823 0.2032 1.1267
C3 C 0.2053(2) 0.3871(2) 1.10194(19)
H2 H 0.1480 0.3827 1.1634
C4 C 0.2082(2) 0.5032(2) 1.0334(2)
H3 H 0.1521 0.5731 1.0506
C5 C 0.2909(2) 0.51701(19) 0.94205(19)
H4 H 0.2936 0.5944 0.8975
C6 C 0.37094(18) 0.40770(18) 0.92009(16)
C7 C 0.50070(19) 0.46503(18) 0.74028(17)
H5 H 0.5042 0.5564 0.7660
H6 H 0.5908 0.4402 0.7205
C8 C 0.28552(19) 0.51553(18) 0.61517(17)
H7 H 0.2577 0.5814 0.6655
C9 C 0.29084(19) 0.37728(19) 0.46955(17)
H8 H 0.2658 0.3300 0.3992
C10 C 0.40919(19) 0.36212(19) 0.54101(17)
H9 H 0.4792 0.3034 0.5298
Co1A Co 0.5000 0.0000 1.0000
Co1A_2 Co -0.5000 1.0000 0.0000
N1B N -0.21291(15) 0.52617(15) 0.48286(14)
N2B N -0.40465(15) 0.54830(15) 0.36612(13)
N3B N -0.46284(15) 0.61699(14) 0.16151(14)
N4B N -0.51311(15) 0.74051(15) 0.14792(14)
N5A N 0.04127(15) 0.70393(14) 0.55821(13)
N5C N -0.04127(15) 0.29607(14) 0.44179(13)
N5B N -0.45873(15) 0.79607(14) 0.05821(13)
N6B N 0.04014(17) 0.34424(16) 0.73956(14)
O1B O -0.00819(14) 0.44881(13) 0.68685(12)
O2B O 0.13695(17) 0.28582(16) 0.70154(15)
O3B O -0.01206(19) 0.30179(18) 0.82711(16)
C1B C -0.36910(18) 0.70805(18) 0.01297(16)
C2B C -0.28452(19) 0.72014(19) -0.08103(18)
H1B H -0.2823 0.7968 -0.1267
C3B C -0.2053(2) 0.6129(2) -0.10194(19)
H2B H -0.1480 0.6173 -0.1634
C4B C -0.2082(2) 0.4968(2) -0.0334(2)
H3B H -0.1521 0.4269 -0.0506
C5B C -0.2909(2) 0.48299(19) 0.05795(19)
H4B H -0.2936 0.4056 0.1025
C6B C -0.37094(18) 0.59230(18) 0.07991(16)
C7B C -0.50070(19) 0.53497(18) 0.25972(17)
H5B H -0.5042 0.4436 0.2340
H6B H -0.5908 0.5598 0.2795
C8B C -0.28552(19) 0.48447(18) 0.38483(17)
H7B H -0.2577 0.4186 0.3345
C9B C -0.29084(19) 0.62272(19) 0.53045(17)
H8B H -0.2658 0.6700 0.6008
C10B C -0.40919(19) 0.63788(19) 0.45899(17)
H9B H -0.4792 0.6966 0.4702
loop_
_geom_bond_atom_site_label_1
_geom_bond_atom_site_label_2
_geom_bond_site_symmetry_1
_geom_bond_site_symmetry_2
Co1 N1 1_555 1_555
N1 C8 1_555 1_555
N2 C7 1_555 1_555
N3 N4 1_555 1_555
N4 N5 1_555 1_555
N5 C1 1_555 1_555
N6 O1 1_555 1_555
O1 Co1 1_555 1_555
O2 N6 1_555 1_555
O3 N6 1_555 1_555
C1 C2 1_555 1_555
C2 H1 1_555 1_555
C3 C2 1_555 1_555
H2 C3 1_555 1_555
C4 C3 1_555 1_555
H3 C4 1_555 1_555
C5 C4 1_555 1_555
H4 C5 1_555 1_555
C6 N3 1_555 1_555
C7 N3 1_555 1_555
H5 C7 1_555 1_555
H6 C7 1_555 1_555
C8 N2 1_555 1_555
H7 C8 1_555 1_555
C9 N1 1_555 1_555
H8 C9 1_555 1_555
C10 N2 1_555 1_555
H9 C10 1_555 1_555
Co1A N5 1_555 1_555
Co1A_2 N5B 1_555 1_555
N1B Co1 1_555 1_555
N2B C7B 1_555 1_555
N3B N4B 1_555 1_555
N4B N5B 1_555 1_555
N5A Co1 1_555 1_555
N5C Co1 1_555 1_555
N5B C1B 1_555 1_555
N6B O1B 1_555 1_555
O1B Co1 1_555 1_555
O2B N6B 1_555 1_555
O3B N6B 1_555 1_555
C1B C2B 1_555 1_555
C2B H1B 1_555 1_555
C3B C2B 1_555 1_555
H2B C3B 1_555 1_555
C4B C3B 1_555 1_555
H3B C4B 1_555 1_555
C5B C4B 1_555 1_555
H4B C5B 1_555 1_555
C6B N3B 1_555 1_555
C7B N3B 1_555 1_555
H5B C7B 1_555 1_555
H6B C7B 1_555 1_555
C8B N1B 1_555 1_555
H7B C8B 1_555 1_555
C9B N1B 1_555 1_555
H8B C9B 1_555 1_555
C10B N2B 1_555 1_555
H9B C10B 1_555 1_555
C1 C6 1_555 1_555
C5 C6 1_555 1_555
C9 C10 1_555 1_555
N2B C8B 1_555 1_555
C1B C6B 1_555 1_555
C5B C6B 1_555 1_555
C9B C10B 1_555 1_555

#END
