
#######################################################################
#
#                 Cambridge Crystallographic Data Centre
#                                CCDC 
#
#######################################################################
#
# If this CIF has been generated from an entry in the Cambridge 
# Structural Database, then it will include bibliographic, chemical, 
# crystal, experimental, refinement or atomic coordinate data resulting 
# from the CCDC's data processing and validation procedures.
#
#######################################################################

data_NUJTOB
_symmetry_cell_setting           monoclinic
_symmetry_space_group_name_H-M   'C c'
_symmetry_Int_Tables_number      9
_space_group_name_Hall           'C -2yc'
loop_
_symmetry_equiv_pos_site_id
_symmetry_equiv_pos_as_xyz
1 x,y,z
2 x,-y,1/2+z
3 1/2+x,1/2+y,z
4 1/2+x,1/2-y,1/2+z
_cell_length_a                   10.087(4)
_cell_length_b                   15.678(5)
_cell_length_c                   21.099(5)
_cell_angle_alpha                90
_cell_angle_beta                 100.25(3)
_cell_angle_gamma                90
_cell_volume                     3283.43
loop_
_atom_site_label
_atom_site_type_symbol
_atom_site_fract_x
_atom_site_fract_y
_atom_site_fract_z
Au1 Au 0.0089 0.3142(1) 0.1737
Au2 Au 0.0264(1) 0.3268(1) 0.0210(1)
Cl1 Cl -0.3048(6) 0.9106(3) 0.1836(3)
Cl2 Cl 0.1145(7) 0.1896(3) 0.0358(3)
P1 P -0.6507(6) 0.7185(3) 0.1715(3)
P2 P -0.0381(7) 0.4601(3) -0.0030(3)
C1 C -0.6962(24) 0.6985(11) 0.2521(8)
C2 C -0.6696(23) 0.7594(12) 0.2995(9)
C3 C -0.7037(24) 0.7423(12) 0.3587(9)
C4 C -0.7791(29) 0.6740(12) 0.3681(11)
C5 C -0.8092(24) 0.6147(13) 0.3176(9)
C6 C -0.7678(23) 0.6293(12) 0.2628(9)
C7 C -0.8072(22) 0.7421(10) 0.1188(8)
C8 C -0.9224(23) 0.7664(11) 0.1415(9)
C9 C -1.0393(27) 0.7879(14) 0.1014(10)
C10 C -1.0391(29) 0.7868(15) 0.0350(11)
C11 C -0.9265(31) 0.7644(17) 0.0087(13)
C12 C -0.8121(25) 0.7444(11) 0.0523(8)
C13 C -0.5993(24) 0.6159(12) 0.1440(9)
C14 C -0.4525(23) 0.5919(12) 0.1827(9)
C15 C -0.4150(27) 0.4986(14) 0.1751(10)
C16 C -0.2677(24) 0.4850(12) 0.2022(9)
C17 C -0.1660(27) 0.5228(13) 0.1669(10)
C18 C -0.1763(24) 0.4885(12) 0.0995(9)
C19 C -0.0651(24) 0.5253(12) 0.0665(9)
C20 C 0.0820(23) 0.5180(11) -0.0416(8)
C21 C 0.0453(25) 0.5619(11) -0.0973(8)
C22 C 0.1546(31) 0.6159(16) -0.1184(12)
C23 C 0.2804(29) 0.6069(15) -0.0890(10)
C24 C 0.3077(29) 0.5599(14) -0.0340(11)
C25 C 0.2168(26) 0.5148(13) -0.0107(10)
C26 C -0.1945(26) 0.4643(13) -0.0565(10)
C27 C -0.2555(26) 0.3917(14) -0.0894(10)
C28 C -0.3741(28) 0.3982(15) -0.1323(11)
C29 C -0.4463(35) 0.4732(17) -0.1445(14)
C30 C -0.3853(34) 0.5414(20) -0.1129(14)
C31 C -0.2675(25) 0.5412(13) -0.0684(10)
H1 H -0.6252 0.8114 0.2914
H2 H -0.6769 0.7822 0.3930
H3 H -0.8091 0.6648 0.4082
H4 H -0.8567 0.5631 0.3237
H5 H -0.7931 0.5897 0.2280
H6 H -0.9193 0.7682 0.1872
H7 H -1.1162 0.8084 0.1179
H8 H -1.1264 0.7920 0.0084
H9 H -0.9321 0.7664 -0.0372
H10 H -0.7305 0.7317 0.0366
H11 H -0.5827 0.6217 0.1008
H12 H -0.6653 0.5720 0.1451
H13 H -0.4685 0.5959 0.2261
H14 H -0.3846 0.6328 0.1773
H15 H -0.4301 0.4889 0.1295
H16 H -0.4679 0.4580 0.1938
H17 H -0.2487 0.5072 0.2453
H18 H -0.2515 0.4246 0.2047
H19 H -0.0762 0.5167 0.1908
H20 H -0.1851 0.5828 0.1628
H21 H -0.2608 0.5026 0.0728
H22 H -0.1698 0.4275 0.1022
H23 H -0.0826 0.5837 0.0544
H24 H 0.0175 0.5231 0.0972
H25 H -0.0458 0.5615 -0.1203
H26 H 0.1265 0.6517 -0.1553
H27 H 0.3475 0.6361 -0.1072
H28 H 0.4005 0.5575 -0.0134
H29 H 0.2408 0.4831 0.0286
H30 H -0.2110 0.3375 -0.0829
H31 H -0.4147 0.3476 -0.1529
H32 H -0.5310 0.4745 -0.1737
H33 H -0.4308 0.5948 -0.1229
H34 H -0.2338 0.5902 -0.0434
Au1B Au -0.4911 0.8142(1) 0.1737
Au2B Au -0.4736(1) 0.8268(1) 0.0210(1)
O1 O 0.4304(29) 0.3120(13) 0.2807(12)
C32 C 0.3644(40) 0.2290(21) 0.2783(16)
loop_
_geom_bond_atom_site_label_1
_geom_bond_atom_site_label_2
_geom_bond_site_symmetry_1
_geom_bond_site_symmetry_2
Au1 Au2 1_555 1_555
Au2 Cl2 1_555 1_555
Cl1 Au1B 1_555 1_555
P1 C1 1_555 1_555
P2 Au2 1_555 1_555
C1 C2 1_555 1_555
C2 C3 1_555 1_555
C3 C4 1_555 1_555
C4 C5 1_555 1_555
C5 C6 1_555 1_555
C6 C1 1_555 1_555
C7 P1 1_555 1_555
C8 C7 1_555 1_555
C9 C8 1_555 1_555
C10 C9 1_555 1_555
C11 C10 1_555 1_555
C12 C7 1_555 1_555
C13 P1 1_555 1_555
C14 C13 1_555 1_555
C15 C14 1_555 1_555
C16 C15 1_555 1_555
C17 C16 1_555 1_555
C18 C17 1_555 1_555
C19 P2 1_555 1_555
C20 P2 1_555 1_555
C21 C20 1_555 1_555
C22 C21 1_555 1_555
C23 C22 1_555 1_555
C24 C23 1_555 1_555
C25 C20 1_555 1_555
C26 P2 1_555 1_555
C27 C26 1_555 1_555
C28 C27 1_555 1_555
C29 C28 1_555 1_555
C30 C29 1_555 1_555
C31 C26 1_555 1_555
O1 C32 1_555 1_555
H1 C2 1_555 1_555
H2 C3 1_555 1_555
H3 C4 1_555 1_555
H4 C5 1_555 1_555
H5 C6 1_555 1_555
H6 C8 1_555 1_555
H7 C9 1_555 1_555
H8 C10 1_555 1_555
H9 C11 1_555 1_555
H10 C12 1_555 1_555
H11 C13 1_555 1_555
H12 C13 1_555 1_555
H13 C14 1_555 1_555
H14 C14 1_555 1_555
H15 C15 1_555 1_555
H16 C15 1_555 1_555
H17 C16 1_555 1_555
H18 C16 1_555 1_555
H19 C17 1_555 1_555
H20 C17 1_555 1_555
H21 C18 1_555 1_555
H22 C18 1_555 1_555
H23 C19 1_555 1_555
H24 C19 1_555 1_555
H25 C21 1_555 1_555
H26 C22 1_555 1_555
H27 C23 1_555 1_555
H28 C24 1_555 1_555
H29 C25 1_555 1_555
H30 C27 1_555 1_555
H31 C28 1_555 1_555
H32 C29 1_555 1_555
H33 C30 1_555 1_555
H34 C31 1_555 1_555
Au1B P1 1_555 1_555
Au2B Au1B 1_555 1_555
C11 C12 1_555 1_555
C18 C19 1_555 1_555
C24 C25 1_555 1_555
C30 C31 1_555 1_555

#END
