
#######################################################################
#
#                 Cambridge Crystallographic Data Centre
#                                CCDC 
#
#######################################################################
#
# If this CIF has been generated from an entry in the Cambridge 
# Structural Database, then it will include bibliographic, chemical, 
# crystal, experimental, refinement or atomic coordinate data resulting 
# from the CCDC's data processing and validation procedures.
#
#######################################################################

data_NUJTUH
_symmetry_cell_setting           monoclinic
_symmetry_space_group_name_H-M   'P 21/n'
_symmetry_Int_Tables_number      14
_space_group_name_Hall           '-P 2yn'
loop_
_symmetry_equiv_pos_site_id
_symmetry_equiv_pos_as_xyz
1 x,y,z
2 1/2-x,1/2+y,1/2-z
3 -x,-y,-z
4 1/2+x,1/2-y,1/2+z
_cell_length_a                   9.009(3)
_cell_length_b                   19.768(6)
_cell_length_c                   19.956(5)
_cell_angle_alpha                90
_cell_angle_beta                 92.26(2)
_cell_angle_gamma                90
_cell_volume                     3551.2
loop_
_atom_site_label
_atom_site_type_symbol
_atom_site_fract_x
_atom_site_fract_y
_atom_site_fract_z
Au1 Au 0.4174(1) -0.2448(1) -0.0153(1)
Au2 Au 0.5405(1) 0.2689(1) 0.1735(1)
Cl1 Cl 0.6578(5) -0.2840(3) -0.0062(3)
Cl2 Cl 0.6947(5) 0.3602(3) 0.1579(2)
P1 P 0.1797(4) -0.2104(2) -0.0188(2)
P2 P 0.3951(5) 0.1829(2) 0.2027(2)
C1 C 0.1368(17) -0.1425(8) -0.0767(8)
C2 C 0.1015(22) -0.0780(10) -0.0565(9)
C3 C 0.0774(25) -0.0267(10) -0.1036(10)
C4 C 0.0825(23) -0.0409(11) -0.1721(10)
C5 C 0.1183(22) -0.1057(10) -0.1920(9)
C6 C 0.1441(18) -0.1589(11) -0.1472(8)
C7 C 0.1199(18) -0.1805(8) 0.0611(8)
C8 C 0.2232(25) -0.1514(11) 0.1080(9)
C9 C 0.1808(26) -0.1249(11) 0.1677(10)
C10 C 0.0327(31) -0.1281(10) 0.1839(9)
C11 C -0.0710(30) -0.1561(12) 0.1415(11)
C12 C -0.0283(21) -0.1812(10) 0.0783(10)
C13 C 0.0580(16) -0.2804(8) -0.0427(9)
C14 C 0.0954(18) -0.3432(8) -0.0021(7)
C15 C -0.0031(18) -0.4038(9) -0.0228(9)
C16 C 0.0516(17) -0.4713(8) 0.0079(8)
C17 C 0.4573(22) 0.0286(11) -0.0151(10)
C18 C 0.3487(22) 0.0615(12) 0.0318(11)
C19 C 0.4244(19) 0.0970(9) 0.0917(8)
C20 C 0.3131(18) 0.1332(9) 0.1362(7)
C21 C 0.4959(8) 0.1248(9) 0.2590(9)
C22 C 0.4821(20) 0.0560(9) 0.2565(9)
C23 C 0.5717(21) 0.0139(11) 0.2966(10)
C24 C 0.6687(20) 0.0417(11) 0.3450(9)
C25 C 0.6770(19) 0.1102(11) 0.3518(9)
C26 C 0.5927(19) 0.1523(9) 0.3091(9)
C27 C 0.2357(17) 0.2129(10) 0.2472(8)
C28 C 0.1887(19) 0.1809(10) 0.3057(9)
C29 C 0.0634(23) 0.2059(10) 0.3343(10)
C30 C -0.0244(26) 0.2572(12) 0.3045(15)
C31 C 0.0239(22) 0.2874(11) 0.2487(12)
C32 C 0.1519(21) 0.2643(10) 0.2171(10)
H1 H 0.0935 -0.0684 -0.0096
H2 H 0.0576 0.0186 -0.0889
H3 H 0.0606 -0.0063 -0.2048
H4 H 0.1258 -0.1143 -0.2390
H5 H 0.1671 -0.2036 -0.1625
H6 H 0.3263 -0.1510 0.0974
H7 H 0.2531 -0.1044 0.1979
H8 H 0.0028 -0.1115 0.2265
H9 H -0.1734 -0.1575 0.1529
H10 H -0.1018 -0.1994 0.0473
H11 H 0.0435 -0.7320 0.0365
H12 H -0.0685 -0.7095 0.0893
H13 H -0.1976 -0.6451 0.0074
H14 H -0.0826 -0.6666 -0.0444
H15 H 0.1020 -0.6040 0.0083
H16 H 0.0076 -0.5928 0.0708
H17 H -0.1459 -0.5184 0.0104
H18 H -0.0669 -0.5338 -0.0556
H19 H 0.5206 0.0626 -0.0333
H20 H 0.3994 0.0096 -0.0518
H21 H 0.2803 0.0285 0.0476
H22 H 0.2921 0.0948 0.0067
H23 H 0.4943 0.1295 0.0761
H24 H 0.4789 0.0637 0.1176
H25 H 0.2501 0.1618 0.1086
H26 H 0.2511 0.0995 0.1556
H27 H 0.4113 0.0367 0.2248
H28 H 0.5659 -0.0343 0.2915
H29 H 0.7303 0.0132 0.3724
H30 H 0.7409 0.1294 0.3864
H31 H 0.6024 0.2005 0.3131
H32 H 0.2437 0.1431 0.3239
H33 H 0.0331 0.1849 0.3750
H34 H -0.1121 0.2716 0.3262
H35 H -0.0316 0.3250 0.2303
H36 H 0.1840 0.2854 0.1769
C17B C 0.5427(22) -0.0286(11) 0.0151(10)
C18B C 0.6513(22) -0.0615(12) -0.0318(11)
C19B C 0.5756(19) -0.0970(9) -0.0917(8)
C20B C 0.6869(18) -0.1332(9) -0.1362(7)
P2B P 0.6049(5) -0.1829(2) -0.2027(2)
Au2B Au 0.4595(1) -0.2689(1) -0.1735(1)
Au1B Au 0.5826(1) 0.2448(1) 0.0153(1)
C16B C -0.0516(17) -0.5287(8) -0.0079(8)
C15B C 0.0031(18) -0.5962(9) 0.0228(9)
C14B C -0.0954(18) -0.6568(8) 0.0021(7)
C13B C -0.0580(16) -0.7196(8) 0.0427(9)
P1B P -0.1797(4) -0.7896(2) 0.0188(2)
Au1B_2 Au -0.4174(1) -0.7552(1) 0.0153(1)
Au2_2 Au -0.4595(1) -0.7311(1) 0.1735(1)
Cl1B Cl -0.6578(5) -0.7160(3) 0.0062(3)
C1B C -0.1368(17) -0.8575(8) 0.0767(8)
C2B C -0.1015(22) -0.9220(10) 0.0565(9)
C3B C -0.0774(25) -0.9733(10) 0.1036(10)
C4B C -0.0825(23) -0.9591(11) 0.1721(10)
C5B C -0.1183(22) -0.8943(10) 0.1920(9)
C6B C -0.1441(18) -0.8411(11) 0.1472(8)
H5B H -0.1671 -0.7964 0.1625
H4B H -0.1258 -0.8857 0.2390
H3B H -0.0606 -0.9937 0.2048
H2B H -0.0576 -1.0186 0.0889
H1B H -0.0935 -0.9316 0.0096
C7B C -0.1199(18) -0.8195(8) -0.0611(8)
C8B C -0.2232(25) -0.8486(11) -0.1080(9)
C9B C -0.1808(26) -0.8751(11) -0.1677(10)
C10B C -0.0327(31) -0.8719(10) -0.1839(9)
C11B C 0.0710(30) -0.8439(12) -0.1415(11)
C12B C 0.0283(21) -0.8188(10) -0.0783(10)
H10B H 0.1018 -0.8006 -0.0473
H9B H 0.1734 -0.8425 -0.1529
H8B H -0.0028 -0.8885 -0.2265
H7B H -0.2531 -0.8956 -0.1979
H6B H -0.3263 -0.8490 -0.0974
H17B H 0.1459 -0.4816 -0.0104
H18B H 0.0669 -0.4662 0.0556
H15B H -0.1020 -0.3960 -0.0083
H16B H -0.0076 -0.4072 -0.0708
H13B H 0.1976 -0.3549 -0.0074
H14B H 0.0826 -0.3334 0.0444
H11B H -0.0435 -0.2680 -0.0365
H12B H 0.0685 -0.2905 -0.0893
Cl2B Cl 0.3053(5) -0.3602(3) -0.1579(2)
C21B C 0.5041(8) -0.1248(9) -0.2590(9)
C22B C 0.5179(20) -0.0560(9) -0.2565(9)
C23B C 0.4283(21) -0.0139(11) -0.2966(10)
C24B C 0.3313(20) -0.0417(11) -0.3450(9)
C25B C 0.3230(19) -0.1102(11) -0.3518(9)
C26B C 0.4073(19) -0.1523(9) -0.3091(9)
H31B H 0.3976 -0.2005 -0.3131
H30B H 0.2591 -0.1294 -0.3864
H29B H 0.2697 -0.0132 -0.3724
H28B H 0.4341 0.0343 -0.2915
H27B H 0.5887 -0.0367 -0.2248
C27B C 0.7643(17) -0.2129(10) -0.2472(8)
C28B C 0.8113(19) -0.1809(10) -0.3057(9)
C29B C 0.9366(23) -0.2059(10) -0.3343(10)
C30B C 1.0244(26) -0.2572(12) -0.3045(15)
C31B C 0.9761(22) -0.2874(11) -0.2487(12)
C32B C 0.8481(21) -0.2643(10) -0.2171(10)
H36B H 0.8160 -0.2854 -0.1769
H35B H 1.0316 -0.3250 -0.2303
H34B H 1.1121 -0.2716 -0.3262
H33B H 0.9669 -0.1849 -0.3750
H32B H 0.7563 -0.1431 -0.3239
H25B H 0.7499 -0.1618 -0.1086
H26B H 0.7489 -0.0995 -0.1556
H23B H 0.5057 -0.1295 -0.0761
H24B H 0.5211 -0.0637 -0.1176
H21B H 0.7197 -0.0285 -0.0476
H22B H 0.7079 -0.0948 -0.0067
H19B H 0.4794 -0.0626 0.0333
H20B H 0.6006 -0.0096 0.0518
Cl3 Cl 0.3042(10) 0.4556(7) 0.1630(4)
Cl4 Cl 0.4571(8) 0.5469(4) 0.0721(5)
C33 C 0.4044(26) 0.4608(14) 0.0914(14)
H37 H 0.3456 0.4436 0.0540
H38 H 0.4928 0.4338 0.0958
loop_
_geom_bond_atom_site_label_1
_geom_bond_atom_site_label_2
_geom_bond_site_symmetry_1
_geom_bond_site_symmetry_2
Au1 Cl1 1_555 1_555
Au2 Cl2 1_555 1_555
Cl3 C33 1_555 1_555
Cl4 C33 1_555 1_555
P1 Au1 1_555 1_555
P2 Au2 1_555 1_555
C1 P1 1_555 1_555
C2 C1 1_555 1_555
C3 C2 1_555 1_555
C4 C3 1_555 1_555
C5 C4 1_555 1_555
C6 C1 1_555 1_555
C7 P1 1_555 1_555
C8 C7 1_555 1_555
C9 C8 1_555 1_555
C10 C9 1_555 1_555
C11 C10 1_555 1_555
C12 C7 1_555 1_555
C13 P1 1_555 1_555
C14 C13 1_555 1_555
C15 C14 1_555 1_555
C16 C15 1_555 1_555
C17 C18 1_555 1_555
C18 C19 1_555 1_555
C19 C20 1_555 1_555
C20 P2 1_555 1_555
C21 P2 1_555 1_555
C22 C21 1_555 1_555
C23 C22 1_555 1_555
C24 C23 1_555 1_555
C25 C24 1_555 1_555
C26 C21 1_555 1_555
C27 P2 1_555 1_555
C28 C27 1_555 1_555
C29 C28 1_555 1_555
C30 C29 1_555 1_555
C31 C30 1_555 1_555
C32 C27 1_555 1_555
C33 H37 1_555 1_555
H1 C2 1_555 1_555
H2 C3 1_555 1_555
H3 C4 1_555 1_555
H4 C5 1_555 1_555
H5 C6 1_555 1_555
H6 C8 1_555 1_555
H7 C9 1_555 1_555
H8 C10 1_555 1_555
H9 C11 1_555 1_555
H10 C12 1_555 1_555
H11 C13B 1_555 1_555
H12 C13B 1_555 1_555
H13 C14B 1_555 1_555
H14 C14B 1_555 1_555
H15 C15B 1_555 1_555
H16 C15B 1_555 1_555
H17 C16B 1_555 1_555
H18 C16B 1_555 1_555
H19 C17 1_555 1_555
H20 C17 1_555 1_555
H21 C18 1_555 1_555
H22 C18 1_555 1_555
H23 C19 1_555 1_555
H24 C19 1_555 1_555
H25 C20 1_555 1_555
H26 C20 1_555 1_555
H27 C22 1_555 1_555
H28 C23 1_555 1_555
H29 C24 1_555 1_555
H30 C25 1_555 1_555
H31 C26 1_555 1_555
H32 C28 1_555 1_555
H33 C29 1_555 1_555
H34 C30 1_555 1_555
H35 C31 1_555 1_555
H36 C32 1_555 1_555
H38 C33 1_555 1_555
C17B C17 1_555 1_555
C18B C17B 1_555 1_555
C19B C18B 1_555 1_555
C20B C19B 1_555 1_555
P2B C20B 1_555 1_555
Au2B Au1 1_555 1_555
Au1B Au2 1_555 1_555
C16B C16 1_555 1_555
C15B C16B 1_555 1_555
C14B C15B 1_555 1_555
C13B C14B 1_555 1_555
P1B C13B 1_555 1_555
Au1B_2 P1B 1_555 1_555
Au2_2 Au1B_2 1_555 1_555
Cl1B Au1B_2 1_555 1_555
C1B P1B 1_555 1_555
C2B C1B 1_555 1_555
C3B C2B 1_555 1_555
C4B C3B 1_555 1_555
C5B C4B 1_555 1_555
C6B C1B 1_555 1_555
H5B C6B 1_555 1_555
H4B C5B 1_555 1_555
H3B C4B 1_555 1_555
H2B C3B 1_555 1_555
H1B C2B 1_555 1_555
C7B P1B 1_555 1_555
C8B C7B 1_555 1_555
C9B C8B 1_555 1_555
C10B C9B 1_555 1_555
C11B C10B 1_555 1_555
C12B C7B 1_555 1_555
H10B C12B 1_555 1_555
H9B C11B 1_555 1_555
H8B C10B 1_555 1_555
H7B C9B 1_555 1_555
H6B C8B 1_555 1_555
H17B C16 1_555 1_555
H18B C16 1_555 1_555
H15B C15 1_555 1_555
H16B C15 1_555 1_555
H13B C14 1_555 1_555
H14B C14 1_555 1_555
H11B C13 1_555 1_555
H12B C13 1_555 1_555
Cl2B Au2B 1_555 1_555
C21B P2B 1_555 1_555
C22B C21B 1_555 1_555
C23B C22B 1_555 1_555
C24B C23B 1_555 1_555
C25B C24B 1_555 1_555
C26B C21B 1_555 1_555
H31B C26B 1_555 1_555
H30B C25B 1_555 1_555
H29B C24B 1_555 1_555
H28B C23B 1_555 1_555
H27B C22B 1_555 1_555
C27B P2B 1_555 1_555
C28B C27B 1_555 1_555
C29B C28B 1_555 1_555
C30B C29B 1_555 1_555
C31B C30B 1_555 1_555
C32B C27B 1_555 1_555
H36B C32B 1_555 1_555
H35B C31B 1_555 1_555
H34B C30B 1_555 1_555
H33B C29B 1_555 1_555
H32B C28B 1_555 1_555
H25B C20B 1_555 1_555
H26B C20B 1_555 1_555
H23B C19B 1_555 1_555
H24B C19B 1_555 1_555
H21B C18B 1_555 1_555
H22B C18B 1_555 1_555
H19B C17B 1_555 1_555
H20B C17B 1_555 1_555
C5 C6 1_555 1_555
C11 C12 1_555 1_555
C25 C26 1_555 1_555
C31 C32 1_555 1_555
P2B Au2B 1_555 1_555
C5B C6B 1_555 1_555
C11B C12B 1_555 1_555
C25B C26B 1_555 1_555
C31B C32B 1_555 1_555

#END
