
#######################################################################
#
#                 Cambridge Crystallographic Data Centre
#                                CCDC 
#
#######################################################################
#
# If this CIF has been generated from an entry in the Cambridge 
# Structural Database, then it will include bibliographic, chemical, 
# crystal, experimental, refinement or atomic coordinate data resulting 
# from the CCDC's data processing and validation procedures.
#
#######################################################################

data_NUJVAP
_symmetry_cell_setting           monoclinic
_symmetry_space_group_name_H-M   'P 21/n'
_symmetry_Int_Tables_number      14
_space_group_name_Hall           '-P 2yn'
loop_
_symmetry_equiv_pos_site_id
_symmetry_equiv_pos_as_xyz
1 x,y,z
2 1/2-x,1/2+y,1/2-z
3 -x,-y,-z
4 1/2+x,1/2-y,1/2+z
_cell_length_a                   9.619(3)
_cell_length_b                   19.693(6)
_cell_length_c                   20.110(6)
_cell_angle_alpha                90
_cell_angle_beta                 92.31(3)
_cell_angle_gamma                90
_cell_volume                     3806.28
loop_
_atom_site_label
_atom_site_type_symbol
_atom_site_fract_x
_atom_site_fract_y
_atom_site_fract_z
I1 I -0.6572(1) -0.7170(1) 0.0046(1)
I2 I -0.3075(1) -0.6298(1) 0.1615(1)
P1 P -0.1791(4) -0.7900(2) 0.0198(2)
P2 P -0.6114(5) -0.8176(2) 0.2007(2)
C1 C -0.1337(16) -0.8577(8) 0.0779(8)
C2 C -0.0841(19) -0.9195(9) 0.0607(9)
C3 C -0.0550(23) -0.9683(13) 0.1068(11)
C4 C -0.0817(21) -0.9582(11) 0.1723(10)
C5 C -0.1190(22) -0.8932(11) 0.1946(11)
C6 C -0.1553(21) -0.8467(11) 0.1447(9)
C7 C -0.1305(17) -0.8216(8) -0.0606(8)
C8 C -0.2323(18) -0.8501(9) -0.1025(8)
C9 C -0.1993(22) -0.8744(11) -0.1642(10)
C10 C -0.0743(21) -0.8729(10) -0.1850(10)
C11 C 0.0347(24) -0.8443(11) -0.1440(10)
C12 C 0.0027(19) -0.8205(9) -0.0817(9)
C13 C -0.0636(16) -0.7200(9) 0.0417(8)
C14 C -0.0911(7) -0.6568(8) -0.0005(8)
C15 C 0.0039(15) -0.5964(8) 0.0226(8)
C16 C -0.0506(18) -0.5298(7) -0.0097(8)
C17 C -0.5483(28) -0.9745(12) -0.0162(10)
C18 C -0.6544(20) -0.9511(12) 0.0373(10)
C19 C -0.5807(18) -0.9061(10) 0.0917(9)
C20 C -0.6823(19) -0.8718(10) 0.1373(9)
C21 C -0.5147(17) -0.8712(8) 0.2588(8)
C22 C -0.5317(18) -0.9418(9) 0.2605(8)
C23 C -0.4448(20) -0.9820(11) 0.3029(9)
C24 C -0.3483(20) -0.9505(10) 0.3451(9)
C25 C -0.3337(21) -0.8811(10) 0.3447(10)
C26 C -0.4155(18) -0.8422(10) 0.3003(8)
C27 C -0.7621(17) -0.7879(9) 0.2440(8)
C28 C -0.8055(20) -0.8152(10) 0.3032(9)
C29 C -0.9263(23) -0.7924(12) 0.3322(11)
C30 C -1.0016(22) -0.7411(10) 0.2986(10)
C31 C -0.9586(21) -0.7122(11) 0.2407(9)
C32 C -0.8434(18) -0.7348(9) 0.2129(9)
H1 H -0.0761 -0.9291 0.0138
H2 H -0.0352 -1.0135 0.0922
H3 H -0.0599 -0.9928 0.2050
H4 H -0.1266 -0.8845 0.2417
H5 H -0.1783 -0.8020 0.1600
H6 H -0.3354 -0.8504 -0.0920
H7 H -0.2716 -0.8949 -0.1944
H8 H -0.0443 -0.8895 -0.2276
H9 H 0.1372 -0.8428 -0.1554
H10 H 0.0763 -0.8022 -0.0506
H11 H 0.0380 -0.7324 0.0355
H12 H -0.0740 -0.7100 0.0883
H13 H -0.1934 -0.6450 0.0048
H14 H -0.0784 -0.6665 -0.0471
H15 H 0.1029 -0.6041 0.0082
H16 H 0.0085 -0.5930 0.0707
H17 H -0.1449 -0.5195 0.0086
H18 H -0.0659 -0.5349 -0.0574
H19 H -0.4851 -0.9406 -0.0344
H20 H -0.6063 -0.9935 -0.0530
H21 H -0.7109 -0.9178 0.0122
H22 H -0.7228 -0.9841 0.0531
H23 H -0.5263 -0.9393 0.1177
H24 H -0.5109 -0.8735 0.0761
H25 H -0.7453 -0.8431 0.1097
H26 H -0.7443 -0.9055 0.1567
H27 H -0.6025 -0.9612 0.2288
H28 H -0.4507 -1.0302 0.2978
H29 H -0.2867 -0.9790 0.3735
H30 H -0.2698 -0.8619 0.3793
H31 H -0.4058 -0.7940 0.3044
H32 H -0.7506 -0.8531 0.3214
H33 H -0.9566 -0.8134 0.3728
H34 H -1.0894 -0.7267 0.3204
H35 H -1.0141 -0.6746 0.2223
H36 H -0.8112 -0.7136 0.1727
Au1 Au -0.4031(1) -0.7564(1) 0.0201(1)
Au2 Au -0.4742(1) -0.7316(1) 0.1687(1)
C16B C 0.0506(18) -0.4702(7) 0.0097(8)
C15B C -0.0039(15) -0.4036(8) -0.0226(8)
C14B C 0.0911(7) -0.3432(8) 0.0005(8)
C13B C 0.0636(16) -0.2800(9) -0.0417(8)
P1B P 0.1791(4) -0.2100(2) -0.0198(2)
C1B C 0.1337(16) -0.1423(8) -0.0779(8)
C2B C 0.0841(19) -0.0805(9) -0.0607(9)
C3B C 0.0550(23) -0.0317(13) -0.1068(11)
C4B C 0.0817(21) -0.0418(11) -0.1723(10)
C5B C 0.1190(22) -0.1068(11) -0.1946(11)
C6B C 0.1553(21) -0.1533(11) -0.1447(9)
H5B H 0.1783 -0.1980 -0.1600
H4B H 0.1266 -0.1155 -0.2417
H3B H 0.0599 -0.0072 -0.2050
H2B H 0.0352 0.0135 -0.0922
H1B H 0.0761 -0.0709 -0.0138
C7B C 0.1305(17) -0.1784(8) 0.0606(8)
C8B C 0.2323(18) -0.1499(9) 0.1025(8)
C9B C 0.1993(22) -0.1256(11) 0.1642(10)
C10B C 0.0743(21) -0.1271(10) 0.1850(10)
C11B C -0.0347(24) -0.1557(11) 0.1440(10)
C12B C -0.0027(19) -0.1795(9) 0.0817(9)
H10B H -0.0763 -0.1978 0.0506
H9B H -0.1372 -0.1572 0.1554
H8B H 0.0443 -0.1105 0.2276
H7B H 0.2716 -0.1051 0.1944
H6B H 0.3354 -0.1496 0.0920
H11B H -0.0380 -0.2676 -0.0355
H12B H 0.0740 -0.2900 -0.0883
H13B H 0.1934 -0.3550 -0.0048
H14B H 0.0784 -0.3335 0.0471
H15B H -0.1029 -0.3959 -0.0082
H16B H -0.0085 -0.4070 -0.0707
H17B H 0.1449 -0.4805 -0.0086
H18B H 0.0659 -0.4651 0.0574
C17B C -0.4517(28) -1.0255(12) 0.0162(10)
C18B C -0.3456(20) -1.0489(12) -0.0373(10)
C19B C -0.4193(18) -1.0939(10) -0.0917(9)
C20B C -0.3177(19) -1.1282(10) -0.1373(9)
P2B P -0.3886(5) -1.1824(2) -0.2007(2)
C21B C -0.4853(17) -1.1288(8) -0.2588(8)
C22B C -0.4683(18) -1.0582(9) -0.2605(8)
C23B C -0.5552(20) -1.0180(11) -0.3029(9)
C24B C -0.6517(20) -1.0495(10) -0.3451(9)
C25B C -0.6663(21) -1.1189(10) -0.3447(10)
C26B C -0.5845(18) -1.1578(10) -0.3003(8)
H31B H -0.5942 -1.2060 -0.3044
H30B H -0.7302 -1.1381 -0.3793
H29B H -0.7133 -1.0210 -0.3735
H28B H -0.5493 -0.9698 -0.2978
H27B H -0.3975 -1.0388 -0.2288
C27B C -0.2379(17) -1.2121(9) -0.2440(8)
C28B C -0.1945(20) -1.1848(10) -0.3032(9)
C29B C -0.0737(23) -1.2076(12) -0.3322(11)
C30B C 0.0016(22) -1.2589(10) -0.2986(10)
C31B C -0.0414(21) -1.2878(11) -0.2407(9)
C32B C -0.1566(18) -1.2652(9) -0.2129(9)
H36B H -0.1888 -1.2864 -0.1727
H35B H 0.0141 -1.3254 -0.2223
H34B H 0.0894 -1.2733 -0.3204
H33B H -0.0434 -1.1866 -0.3728
H32B H -0.2494 -1.1469 -0.3214
H25B H -0.2547 -1.1569 -0.1097
H26B H -0.2557 -1.0945 -0.1567
H23B H -0.4737 -1.0607 -0.1177
H24B H -0.4891 -1.1265 -0.0761
H21B H -0.2891 -1.0822 -0.0122
H22B H -0.2772 -1.0159 -0.0531
H19B H -0.5149 -1.0594 0.0344
H20B H -0.3937 -1.0065 0.0530
Au1B Au 0.4031(1) -0.2436(1) -0.0201(1)
I1B I 0.6572(1) -0.2830(1) -0.0046(1)
Au2B Au -0.5258(1) -1.2684(1) -0.1687(1)
Au2B_2 Au 0.4742(1) -0.2684(1) -0.1687(1)
I2B I -0.6925(1) -1.3702(1) -0.1615(1)
Au1B_2 Au -0.5969(1) -1.2436(1) -0.0201(1)
Cl1 Cl -0.6991(8) -0.5377(6) 0.1592(4)
Cl2 Cl -0.5486(9) -0.4488(4) 0.0723(5)
C33 C -0.6145(24) -0.5309(13) 0.0854(12)
H37 H -0.5261 -0.5580 0.0898
H38 H -0.6733 -0.5481 0.0480
loop_
_geom_bond_atom_site_label_1
_geom_bond_atom_site_label_2
_geom_bond_site_symmetry_1
_geom_bond_site_symmetry_2
I1 Au1 1_555 1_555
I2 Au2 1_555 1_555
Cl1 C33 1_555 1_555
Cl2 C33 1_555 1_555
P1 C1 1_555 1_555
P2 C20 1_555 1_555
C1 C2 1_555 1_555
C2 C3 1_555 1_555
C3 C4 1_555 1_555
C4 C5 1_555 1_555
C5 C6 1_555 1_555
C6 C1 1_555 1_555
C7 P1 1_555 1_555
C8 C7 1_555 1_555
C9 C8 1_555 1_555
C10 C9 1_555 1_555
C11 C10 1_555 1_555
C12 C7 1_555 1_555
C13 P1 1_555 1_555
C14 C13 1_555 1_555
C15 C14 1_555 1_555
C16 C15 1_555 1_555
C17 C18 1_555 1_555
C18 C19 1_555 1_555
C19 C20 1_555 1_555
C20 H25 1_555 1_555
C21 P2 1_555 1_555
C22 C21 1_555 1_555
C23 C22 1_555 1_555
C24 C23 1_555 1_555
C25 C24 1_555 1_555
C26 C21 1_555 1_555
C27 P2 1_555 1_555
C28 C27 1_555 1_555
C29 C28 1_555 1_555
C30 C29 1_555 1_555
C31 C30 1_555 1_555
C32 C27 1_555 1_555
C33 H37 1_555 1_555
H1 C2 1_555 1_555
H2 C3 1_555 1_555
H3 C4 1_555 1_555
H4 C5 1_555 1_555
H5 C6 1_555 1_555
H6 C8 1_555 1_555
H7 C9 1_555 1_555
H8 C10 1_555 1_555
H9 C11 1_555 1_555
H10 C12 1_555 1_555
H11 C13 1_555 1_555
H12 C13 1_555 1_555
H13 C14 1_555 1_555
H14 C14 1_555 1_555
H15 C15 1_555 1_555
H16 C15 1_555 1_555
H17 C16 1_555 1_555
H18 C16 1_555 1_555
H19 C17 1_555 1_555
H20 C17 1_555 1_555
H21 C18 1_555 1_555
H22 C18 1_555 1_555
H23 C19 1_555 1_555
H24 C19 1_555 1_555
H26 C20 1_555 1_555
H27 C22 1_555 1_555
H28 C23 1_555 1_555
H29 C24 1_555 1_555
H30 C25 1_555 1_555
H31 C26 1_555 1_555
H32 C28 1_555 1_555
H33 C29 1_555 1_555
H34 C30 1_555 1_555
H35 C31 1_555 1_555
H36 C32 1_555 1_555
H38 C33 1_555 1_555
Au1 P1 1_555 1_555
Au2 P2 1_555 1_555
C16B C16 1_555 1_555
C15B C16B 1_555 1_555
C14B C15B 1_555 1_555
C13B C14B 1_555 1_555
P1B C13B 1_555 1_555
C1B P1B 1_555 1_555
C2B C1B 1_555 1_555
C3B C2B 1_555 1_555
C4B C3B 1_555 1_555
C5B C4B 1_555 1_555
C6B C1B 1_555 1_555
H5B C6B 1_555 1_555
H4B C5B 1_555 1_555
H3B C4B 1_555 1_555
H2B C3B 1_555 1_555
H1B C2B 1_555 1_555
C7B P1B 1_555 1_555
C8B C7B 1_555 1_555
C9B C8B 1_555 1_555
C10B C9B 1_555 1_555
C11B C10B 1_555 1_555
C12B C7B 1_555 1_555
H10B C12B 1_555 1_555
H9B C11B 1_555 1_555
H8B C10B 1_555 1_555
H7B C9B 1_555 1_555
H6B C8B 1_555 1_555
H11B C13B 1_555 1_555
H12B C13B 1_555 1_555
H13B C14B 1_555 1_555
H14B C14B 1_555 1_555
H15B C15B 1_555 1_555
H16B C15B 1_555 1_555
H17B C16B 1_555 1_555
H18B C16B 1_555 1_555
C17B C17 1_555 1_555
C18B C17B 1_555 1_555
C19B C18B 1_555 1_555
C20B C19B 1_555 1_555
P2B C20B 1_555 1_555
C21B P2B 1_555 1_555
C22B C21B 1_555 1_555
C23B C22B 1_555 1_555
C24B C23B 1_555 1_555
C25B C24B 1_555 1_555
C26B C21B 1_555 1_555
H31B C26B 1_555 1_555
H30B C25B 1_555 1_555
H29B C24B 1_555 1_555
H28B C23B 1_555 1_555
H27B C22B 1_555 1_555
C27B P2B 1_555 1_555
C28B C27B 1_555 1_555
C29B C28B 1_555 1_555
C30B C29B 1_555 1_555
C31B C30B 1_555 1_555
C32B C27B 1_555 1_555
H36B C32B 1_555 1_555
H35B C31B 1_555 1_555
H34B C30B 1_555 1_555
H33B C29B 1_555 1_555
H32B C28B 1_555 1_555
H25B C20B 1_555 1_555
H26B C20B 1_555 1_555
H23B C19B 1_555 1_555
H24B C19B 1_555 1_555
H21B C18B 1_555 1_555
H22B C18B 1_555 1_555
H19B C17B 1_555 1_555
H20B C17B 1_555 1_555
Au1B P1B 1_555 1_555
I1B Au1B 1_555 1_555
Au2B P2B 1_555 1_555
Au2B_2 Au1B 1_555 1_555
I2B Au2B 1_555 1_555
Au1B_2 Au2B 1_555 1_555
C11 C12 1_555 1_555
C25 C26 1_555 1_555
C31 C32 1_555 1_555
Au1 Au2 1_555 1_555
C5B C6B 1_555 1_555
C11B C12B 1_555 1_555
C25B C26B 1_555 1_555
C31B C32B 1_555 1_555

#END
