
#######################################################################
#
#                 Cambridge Crystallographic Data Centre
#                                CCDC 
#
#######################################################################
#
# If this CIF has been generated from an entry in the Cambridge 
# Structural Database, then it will include bibliographic, chemical, 
# crystal, experimental, refinement or atomic coordinate data resulting 
# from the CCDC's data processing and validation procedures.
#
#######################################################################

data_NUJWOE
_symmetry_cell_setting           monoclinic
_symmetry_space_group_name_H-M   'P 21/c'
_symmetry_Int_Tables_number      14
_space_group_name_Hall           '-P 2ybc'
loop_
_symmetry_equiv_pos_site_id
_symmetry_equiv_pos_as_xyz
1 x,y,z
2 -x,1/2+y,1/2-z
3 -x,-y,-z
4 x,1/2-y,1/2+z
_cell_length_a                   12.5346(3)
_cell_length_b                   6.9371(2)
_cell_length_c                   9.3150(3)
_cell_angle_alpha                90
_cell_angle_beta                 109.877(2)
_cell_angle_gamma                90
_cell_volume                     761.72
loop_
_atom_site_label
_atom_site_type_symbol
_atom_site_fract_x
_atom_site_fract_y
_atom_site_fract_z
O1 O 0.0179(4) 0.2390(5) -0.1078(6)
O2 O 0.1150(4) 0.3675(7) -0.2422(6)
O3 O 0.3869(4) 0.2862(8) -0.1550(6)
O4 O 0.2838(5) 0.1718(8) -0.3801(5)
N1 N 0.1348(4) -0.0735(7) -0.0529(8)
N2 N 0.3139(4) -0.1595(8) -0.1434(9)
C1 C 0.1680(6) 0.0529(6) -0.1403(10)
C2 C 0.2705(4) 0.0210(7) -0.1618(8)
C3 C 0.2743(6) -0.2925(7) -0.0690(11)
C4 C 0.1778(6) -0.2536(7) -0.0324(10)
C5 C 0.1003(6) 0.2408(7) -0.1558(11)
C6 C 0.3236(5) 0.1481(9) -0.2448(5)
C7 C 0.4355(7) 0.4333(10) -0.2300(8)
Cu1 Cu 0.0000 0.0000 0.0000
O1B O -0.0179(4) -0.2390(5) 0.1078(6)
O2B O -0.1150(4) -0.3675(7) 0.2422(6)
O3B O -0.3869(4) -0.2862(8) 0.1550(6)
O4B O -0.2838(5) -0.1718(8) 0.3801(5)
N1B N -0.1348(4) 0.0735(7) 0.0529(8)
N2B N -0.3139(4) 0.1595(8) 0.1434(9)
C1B C -0.1680(6) -0.0529(6) 0.1403(10)
C2B C -0.2705(4) -0.0210(7) 0.1618(8)
C3B C -0.2743(6) 0.2925(7) 0.0690(11)
C4B C -0.1778(6) 0.2536(7) 0.0324(10)
C5B C -0.1003(6) -0.2408(7) 0.1558(11)
C6B C -0.3236(5) -0.1481(9) 0.2448(5)
C7B C -0.4355(7) -0.4333(10) 0.2300(8)
O2A O -0.1150(4) -0.1325(7) -0.2578(6)
O2C O 0.1150(4) 0.1325(7) 0.2578(6)
Cu1A Cu 0.0000 0.5000 -0.5000
Cu1C Cu 0.0000 -0.5000 0.5000
loop_
_geom_bond_atom_site_label_1
_geom_bond_atom_site_label_2
_geom_bond_site_symmetry_1
_geom_bond_site_symmetry_2
O1 C5 1_555 1_555
O2 C5 1_555 1_555
O3 C6 1_555 1_555
O4 C6 1_555 1_555
N1 C1 1_555 1_555
N2 C2 1_555 1_555
C1 C2 1_555 1_555
C2 C6 1_555 1_555
C3 N2 1_555 1_555
C4 N1 1_555 1_555
C5 C1 1_555 1_555
C7 O3 1_555 1_555
Cu1 O1 1_555 1_555
O1B Cu1 1_555 1_555
O2B C5B 1_555 1_555
O3B C6B 1_555 1_555
O4B C6B 1_555 1_555
N1B Cu1 1_555 1_555
N2B C2B 1_555 1_555
C1B N1B 1_555 1_555
C2B C1B 1_555 1_555
C3B N2B 1_555 1_555
C4B N1B 1_555 1_555
C5B O1B 1_555 1_555
C6B C2B 1_555 1_555
C7B O3B 1_555 1_555
O2A Cu1 1_555 1_555
O2C Cu1 1_555 1_555
Cu1A O2 1_555 1_555
Cu1C O2B 1_555 1_555
N1 Cu1 1_555 1_555
C3 C4 1_555 1_555
C1B C5B 1_555 1_555
C3B C4B 1_555 1_555

#END
