
#######################################################################
#
#                 Cambridge Crystallographic Data Centre
#                                CCDC 
#
#######################################################################
#
# If this CIF has been generated from an entry in the Cambridge 
# Structural Database, then it will include bibliographic, chemical, 
# crystal, experimental, refinement or atomic coordinate data resulting 
# from the CCDC's data processing and validation procedures.
#
#######################################################################

data_NUJWEW
_symmetry_cell_setting           monoclinic
_symmetry_space_group_name_H-M   'P 21/c'
_symmetry_Int_Tables_number      14
_space_group_name_Hall           '-P 2ybc'
loop_
_symmetry_equiv_pos_site_id
_symmetry_equiv_pos_as_xyz
1 x,y,z
2 -x,1/2+y,1/2-z
3 -x,-y,-z
4 x,1/2-y,1/2+z
_cell_length_a                   7.8788(16)
_cell_length_b                   12.896(3)
_cell_length_c                   9.1106(18)
_cell_angle_alpha                90
_cell_angle_beta                 96.11(3)
_cell_angle_gamma                90
_cell_volume                     920.424
loop_
_atom_site_label
_atom_site_type_symbol
_atom_site_fract_x
_atom_site_fract_y
_atom_site_fract_z
Co1 Co 1.0000 1.0000 0.0000
N1 N 1.0056(9) 1.3388(5) 0.4541(7)
N2 N 1.0126(9) 1.0441(5) 0.2256(7)
N3 N 0.9911(13) 1.1493(6) 0.4444(8)
C1 C 1.0012(12) 1.2503(6) 0.4423(9)
C2 C 1.0016(10) 1.0973(5) 0.3249(8)
O1 O 1.2614(6) 0.9935(4) 0.0086(6)
H1 H 1.330(6) 1.034(4) 0.059(7)
H2 H 1.317(7) 0.955(5) -0.046(7)
N1B N 0.9944(9) 0.6612(5) -0.4541(7)
N2B N 0.9874(9) 0.9559(5) -0.2256(7)
N3B N 1.0089(13) 0.8507(6) -0.4444(8)
C1B C 0.9988(12) 0.7497(6) -0.4423(9)
C2B C 0.9984(10) 0.9027(5) -0.3249(8)
O1B O 0.7386(6) 1.0065(4) -0.0086(6)
H1B H 0.670(6) 0.966(4) -0.059(7)
H2B H 0.683(7) 1.045(5) 0.046(7)
Co1A Co 1.0000 0.5000 -0.5000
Co1A_2 Co 1.0000 1.5000 0.5000
N1A N 0.9944(9) 0.8388(5) 0.0459(7)
N1C N 1.0056(9) 1.1612(5) -0.0459(7)
N4 N 0.4830(11) 0.4175(6) 0.2013(9)
H3 H 0.478(16) 0.490(10) 0.221(14)
C3 C 0.6276(14) 0.3762(7) 0.1676(12)
H4 H 0.7200 0.4194 0.1567
C4 C 0.6451(11) 0.2715(6) 0.1481(12)
H5 H 0.7475 0.2443 0.1230
C5 C 0.5074(10) 0.2057(5) 0.1665(9)
C6 C 0.3598(12) 0.2542(7) 0.2023(12)
H6 H 0.2648 0.2137 0.2153
C7 C 0.3495(13) 0.3581(7) 0.2189(12)
H7 H 0.2485 0.3879 0.2426
O2 O 0.5208(7) 0.1068(4) 0.1516(7)
loop_
_geom_bond_atom_site_label_1
_geom_bond_atom_site_label_2
_geom_bond_site_symmetry_1
_geom_bond_site_symmetry_2
Co1 N2 1_555 1_555
N1 C1 1_555 1_555
N2 C2 1_555 1_555
N3 C1 1_555 1_555
C2 N3 1_555 1_555
O1 Co1 1_555 1_555
H1 O1 1_555 1_555
H2 O1 1_555 1_555
N4 H3 1_555 1_555
C3 N4 1_555 1_555
H4 C3 1_555 1_555
C4 C3 1_555 1_555
H5 C4 1_555 1_555
C5 C4 1_555 1_555
C6 C5 1_555 1_555
H6 C6 1_555 1_555
C7 N4 1_555 1_555
H7 C7 1_555 1_555
O2 C5 1_555 1_555
N1B C1B 1_555 1_555
N2B Co1 1_555 1_555
N3B C1B 1_555 1_555
C2B N2B 1_555 1_555
O1B Co1 1_555 1_555
H1B O1B 1_555 1_555
H2B O1B 1_555 1_555
Co1A N1B 1_555 1_555
Co1A_2 N1 1_555 1_555
N1A Co1 1_555 1_555
N1C Co1 1_555 1_555
C6 C7 1_555 1_555
N3B C2B 1_555 1_555

#END
