
#######################################################################
#
#                 Cambridge Crystallographic Data Centre
#                                CCDC 
#
#######################################################################
#
# If this CIF has been generated from an entry in the Cambridge 
# Structural Database, then it will include bibliographic, chemical, 
# crystal, experimental, refinement or atomic coordinate data resulting 
# from the CCDC's data processing and validation procedures.
#
#######################################################################

data_NUJWAS
_symmetry_cell_setting           monoclinic
_symmetry_space_group_name_H-M   'P 21/c'
_symmetry_Int_Tables_number      14
_space_group_name_Hall           '-P 2ybc'
loop_
_symmetry_equiv_pos_site_id
_symmetry_equiv_pos_as_xyz
1 x,y,z
2 -x,1/2+y,1/2-z
3 -x,-y,-z
4 x,1/2-y,1/2+z
_cell_length_a                   8.2850(12)
_cell_length_b                   14.661(2)
_cell_length_c                   7.4097(11)
_cell_angle_alpha                90
_cell_angle_beta                 101.555(2)
_cell_angle_gamma                90
_cell_volume                     881.788
loop_
_atom_site_label
_atom_site_type_symbol
_atom_site_fract_x
_atom_site_fract_y
_atom_site_fract_z
Mn1 Mn 0.5000 0.5000 0.0000
O1 O 0.41583(18) 0.35836(11) 0.0247(2)
N1 N 0.7168(2) 0.46323(17) 0.2164(3)
N2 N 0.8042(2) 0.4639(2) 0.5513(3)
N3 N 0.6258(3) 0.45680(17) 0.7776(3)
N4 N -0.0367(3) 0.24594(16) -0.0012(3)
H1 H -0.132(4) 0.226(2) -0.015(5)
C1 C 0.7499(2) 0.46364(16) 0.3747(3)
C2 C 0.7019(3) 0.45946(17) 0.6631(3)
C3 C -0.0205(3) 0.3372(2) -0.0035(3)
H2 H -0.1135 0.3737 -0.0115
C4 C 0.1275(3) 0.37685(17) 0.0056(4)
H3 H 0.1348 0.4401 0.0033
C5 C 0.2725(3) 0.32380(16) 0.0186(3)
C6 C 0.2495(3) 0.22812(17) 0.0255(4)
H4 H 0.3401 0.1895 0.0380
C7 C 0.0969(3) 0.19238(19) 0.0141(4)
H5 H 0.0844 0.1294 0.0168
O1B O 0.58417(18) 0.64164(11) -0.0247(2)
N1B N 0.2832(2) 0.53677(17) -0.2164(3)
N2B N 0.1958(2) 0.5361(2) -0.5513(3)
N3B N 0.3742(3) 0.54320(17) -0.7776(3)
N4B N 1.0367(3) 0.75406(16) 0.0012(3)
H1B H 1.132(4) 0.774(2) 0.015(5)
C1B C 0.2501(2) 0.53636(16) -0.3747(3)
C2B C 0.2981(3) 0.54054(17) -0.6631(3)
C3B C 1.0205(3) 0.6628(2) 0.0035(3)
H2B H 1.1135 0.6263 0.0115
C4B C 0.8725(3) 0.62315(17) -0.0056(4)
H3B H 0.8652 0.5599 -0.0033
C5B C 0.7275(3) 0.67620(16) -0.0186(3)
C6B C 0.7505(3) 0.77188(17) -0.0255(4)
H4B H 0.6599 0.8105 -0.0380
C7B C 0.9031(3) 0.80762(19) -0.0141(4)
H5B H 0.9156 0.8706 -0.0168
Mn1_2 Mn 0.5000 0.5000 -1.0000
Mn1_3 Mn 0.5000 0.5000 1.0000
N3_2 N 0.6258(3) 0.45680(17) -0.2224(3)
N3B_2 N 0.3742(3) 0.54320(17) 0.2224(3)
O2 O -0.3799(2) 0.22601(16) -0.1075(4)
H6 H -0.418(5) 0.273(3) -0.084(6)
H7 H -0.392(7) 0.213(4) -0.213(7)
loop_
_geom_bond_atom_site_label_1
_geom_bond_atom_site_label_2
_geom_bond_site_symmetry_1
_geom_bond_site_symmetry_2
Mn1 O1 1_555 1_555
O1 C5 1_555 1_555
N1 Mn1 1_555 1_555
N2 C1 1_555 1_555
N3 C2 1_555 1_555
N4 H1 1_555 1_555
C1 N1 1_555 1_555
C2 N2 1_555 1_555
C3 N4 1_555 1_555
H2 C3 1_555 1_555
C4 C3 1_555 1_555
H3 C4 1_555 1_555
C5 C4 1_555 1_555
C6 C5 1_555 1_555
H4 C6 1_555 1_555
C7 N4 1_555 1_555
H5 C7 1_555 1_555
O2 H6 1_555 1_555
H7 O2 1_555 1_555
O1B Mn1 1_555 1_555
N1B Mn1 1_555 1_555
N2B C1B 1_555 1_555
N3B C2B 1_555 1_555
N4B H1B 1_555 1_555
C1B N1B 1_555 1_555
C2B N2B 1_555 1_555
C3B N4B 1_555 1_555
H2B C3B 1_555 1_555
C4B C3B 1_555 1_555
H3B C4B 1_555 1_555
C5B O1B 1_555 1_555
C6B C5B 1_555 1_555
H4B C6B 1_555 1_555
C7B N4B 1_555 1_555
H5B C7B 1_555 1_555
Mn1_2 N3B 1_555 1_555
Mn1_3 N3 1_555 1_555
N3_2 Mn1 1_555 1_555
N3B_2 Mn1 1_555 1_555
C6 C7 1_555 1_555
C4B C5B 1_555 1_555
C6B C7B 1_555 1_555

#END
