
#######################################################################
#
#                 Cambridge Crystallographic Data Centre
#                                CCDC 
#
#######################################################################
#
# If this CIF has been generated from an entry in the Cambridge 
# Structural Database, then it will include bibliographic, chemical, 
# crystal, experimental, refinement or atomic coordinate data resulting 
# from the CCDC's data processing and validation procedures.
#
#######################################################################

data_NUJXAR
_symmetry_cell_setting           monoclinic
_symmetry_space_group_name_H-M   'P 21/a'
_symmetry_Int_Tables_number      14
_space_group_name_Hall           '-P 2yab'
loop_
_symmetry_equiv_pos_site_id
_symmetry_equiv_pos_as_xyz
1 x,y,z
2 1/2-x,1/2+y,-z
3 -x,-y,-z
4 1/2+x,1/2-y,z
_cell_length_a                   10.979(7)
_cell_length_b                   20.291(4)
_cell_length_c                   14.715(6)
_cell_angle_alpha                90
_cell_angle_beta                 91.07(4)
_cell_angle_gamma                90
_cell_volume                     3277.56
loop_
_atom_site_label
_atom_site_type_symbol
_atom_site_fract_x
_atom_site_fract_y
_atom_site_fract_z
Cu1 Cu 0.0996(3) -0.1557(2) -0.2227(2)
Cu2 Cu 0.3008(3) 0.1572(2) -0.2381(2)
O1 O 0.295(2) 0.1152(9) -0.391(1)
O2 O 0.374(2) 0.1647(10) -0.080(1)
O3 O 0.032(1) -0.1545(9) -0.367(1)
N1 N 0.162(2) -0.064(1) -0.213(2)
N2 N 0.250(2) 0.063(1) -0.222(2)
N3 N 0.337(2) 0.015(1) -0.452(2)
N4 N 0.673(2) 0.275(1) -0.246(2)
N5 N 0.468(2) 0.196(1) -0.247(2)
N6 N 0.570(2) 0.151(1) -0.022(2)
N7 N -0.275(2) -0.275(1) -0.217(2)
N8 N -0.068(2) -0.1915(10) -0.212(2)
N9 N -0.148(2) -0.161(1) -0.443(1)
C1 C 0.252(2) 0.027(1) -0.298(2)
C2 C 0.206(3) -0.039(1) -0.291(2)
C3 C 0.168(3) -0.022(2) -0.143(2)
C4 C 0.212(3) 0.038(1) -0.146(2)
C5 C 0.300(2) 0.0541 -0.389(2)
C6 C 0.532(3) 0.204(1) -0.170(2)
C7 C 0.637(3) 0.243(1) -0.167(2)
C8 C 0.614(3) 0.262(1) -0.319(2)
C9 C 0.513(3) 0.223(2) -0.320(2)
C10 C 0.488(3) 0.172(1) -0.085(2)
C11 C -0.129(2) -0.204(1) -0.291(2)
C12 C -0.230(2) -0.243(1) -0.290(2)
C13 C -0.212(3) -0.259(2) -0.140(2)
C14 C -0.108(2) -0.218(1) -0.133(2)
C15 C -0.075(2) -0.169(1) -0.373(2)
H1 H 0.2045 -0.0656 -0.3445
H2 H 0.1371 -0.0365 -0.0866
H3 H 0.2161 0.0634 -0.0920
H4 H 0.6833 0.2477 -0.1121
H5 H 0.6405 0.2803 -0.3743
H6 H 0.4725 0.2152 -0.3767
H7 H -0.2743 -0.2485 -0.3459
H8 H -0.2413 -0.2780 -0.0851
H9 H -0.0698 -0.2090 -0.0756
Cu1C Cu -0.4004(3) -0.3443(2) -0.2227(2)
N7C N 0.225(2) -0.225(1) -0.217(2)
N4C N 0.173(2) 0.225(1) -0.246(2)
Cu2C Cu 0.8008(3) 0.3428(2) -0.2381(2)
Cl1 Cl 0.9109(9) 0.1248(4) -0.0846(7)
O6 O 0.888(4) 0.057(2) -0.087(2)
O7 O 0.838(3) 0.154(2) -0.033(3)
O8 O 0.902(4) 0.149(2) -0.168(2)
O9 O 1.022(3) 0.133(2) -0.052(3)
Cl2 Cl 0.4940(8) 0.1414(4) -0.6085(7)
O10 O 0.440(2) 0.194(1) -0.563(2)
O11 O 0.514(3) 0.160(2) -0.701(2)
O12 O 0.597(2) 0.126(1) -0.565(2)
O13 O 0.414(2) 0.087(1) -0.613(2)
O4 O 0.028(2) 0.082(1) -0.417(2)
C16 C -0.115(3) 0.012(2) -0.339(3)
C17 C -0.079(3) 0.073(2) -0.392(2)
C18 C -0.164(3) 0.126(2) -0.402(2)
H10 H -0.1989 0.0162 -0.3237
H11 H -0.1059 -0.0256 -0.3770
H12 H -0.0667 0.0080 -0.2864
H13 H -0.2395 0.1124 -0.3783
H14 H -0.1727 0.1360 -0.4644
H15 H -0.1339 0.1629 -0.3695
O5 O 0.480(2) -0.053(1) -0.117(2)
C19 C 0.586(3) 0.022(2) -0.204(3)
C20 C 0.576(3) -0.037(2) -0.152(3)
C21 C 0.688(4) -0.076(2) -0.139(3)
H16 H 0.5292 0.0210 -0.2546
H17 H 0.5677 0.0593 -0.1675
H18 H 0.6658 0.0262 -0.2267
H19 H 0.7509 -0.0555 -0.1723
H20 H 0.7082 -0.0762 -0.0765
H21 H 0.6737 -0.1189 -0.1606
loop_
_geom_bond_atom_site_label_1
_geom_bond_atom_site_label_2
_geom_bond_site_symmetry_1
_geom_bond_site_symmetry_2
Cu1 O3 1_555 1_555
Cu2 O1 1_555 1_555
Cl1 O6 1_555 1_555
Cl2 O10 1_555 1_555
O1 C5 1_555 1_555
O2 Cu2 1_555 1_555
O3 C15 1_555 1_555
O4 C17 1_555 1_555
O5 C20 1_555 1_555
O7 Cl1 1_555 1_555
O8 Cl1 1_555 1_555
O9 Cl1 1_555 1_555
O11 Cl2 1_555 1_555
O12 Cl2 1_555 1_555
O13 Cl2 1_555 1_555
N1 Cu1 1_555 1_555
N2 Cu2 1_555 1_555
N3 C5 1_555 1_555
N4 C7 1_555 1_555
N5 Cu2 1_555 1_555
N6 C10 1_555 1_555
N7 C12 1_555 1_555
N8 Cu1 1_555 1_555
N9 C15 1_555 1_555
C1 N2 1_555 1_555
C2 N1 1_555 1_555
C3 N1 1_555 1_555
C4 N2 1_555 1_555
C5 C1 1_555 1_555
C6 N5 1_555 1_555
C7 C6 1_555 1_555
C8 N4 1_555 1_555
C9 N5 1_555 1_555
C10 O2 1_555 1_555
C11 N8 1_555 1_555
C12 C11 1_555 1_555
C13 N7 1_555 1_555
C14 N8 1_555 1_555
C15 C11 1_555 1_555
C16 C17 1_555 1_555
C17 C18 1_555 1_555
C18 H13 1_555 1_555
C19 C20 1_555 1_555
C20 C21 1_555 1_555
C21 H19 1_555 1_555
H1 C2 1_555 1_555
H2 C3 1_555 1_555
H3 C4 1_555 1_555
H4 C7 1_555 1_555
H5 C8 1_555 1_555
H6 C9 1_555 1_555
H7 C12 1_555 1_555
H8 C13 1_555 1_555
H9 C14 1_555 1_555
H10 C16 1_555 1_555
H11 C16 1_555 1_555
H12 C16 1_555 1_555
H14 C18 1_555 1_555
H15 C18 1_555 1_555
H16 C19 1_555 1_555
H17 C19 1_555 1_555
H18 C19 1_555 1_555
H20 C21 1_555 1_555
H21 C21 1_555 1_555
Cu1C N7 1_555 1_555
N7C Cu1 1_555 1_555
N4C Cu2 1_555 1_555
Cu2C N4 1_555 1_555
C1 C2 1_555 1_555
C3 C4 1_555 1_555
C6 C10 1_555 1_555
C8 C9 1_555 1_555
C13 C14 1_555 1_555

#END
