
#######################################################################
#
#                 Cambridge Crystallographic Data Centre
#                                CCDC 
#
#######################################################################
#
# If this CIF has been generated from an entry in the Cambridge 
# Structural Database, then it will include bibliographic, chemical, 
# crystal, experimental, refinement or atomic coordinate data resulting 
# from the CCDC's data processing and validation procedures.
#
#######################################################################

data_NUKCUT
_symmetry_cell_setting           monoclinic
_symmetry_space_group_name_H-M   'C 2/c'
_symmetry_Int_Tables_number      15
_space_group_name_Hall           '-C 2yn'
loop_
_symmetry_equiv_pos_site_id
_symmetry_equiv_pos_as_xyz
1 x,y,z
2 -x,y,1/2-z
3 1/2+x,1/2+y,z
4 1/2-x,1/2+y,1/2-z
5 -x,-y,-z
6 x,-y,1/2+z
7 1/2-x,1/2-y,-z
8 1/2+x,1/2-y,1/2+z
_cell_length_a                   25.245(3)
_cell_length_b                   9.6639(10)
_cell_length_c                   20.026(2)
_cell_angle_alpha                90
_cell_angle_beta                 128.9300(10)
_cell_angle_gamma                90
_cell_volume                     3800.61
loop_
_atom_site_label
_atom_site_type_symbol
_atom_site_fract_x
_atom_site_fract_y
_atom_site_fract_z
Nd1 Nd 1.013811(12) 0.60165(2) 0.418603(15)
Zn1 Zn 0.78399(3) 0.52463(6) 0.18067(3)
Zn2 Zn 1.13756(3) 0.03045(6) 0.43986(4)
C1 C 1.1081(2) 0.3075(5) 0.4679(3)
C2 C 1.1437(2) 0.3247(5) 0.4312(3)
O1 O 1.09897(19) 0.1832(4) 0.4791(2)
N1 N 1.1697(2) 0.2086(4) 0.4226(2)
C3 C 1.1981(2) 0.2513(5) 0.3886(3)
H1 H 1.2198 0.1924 0.3758
O2 O 1.08987(19) 0.4096(4) 0.4875(2)
O3 O 1.04782(19) -0.0186(4) 0.3234(2)
O4 O 1.0365(2) 0.1595(4) 0.2301(3)
S1 S 1.0000 0.07579(18) 0.2500
C4 C 1.1372(2) 0.5835(5) 0.3849(3)
C5 C 1.1573(2) 0.4366(5) 0.4014(3)
N2 N 1.1923(2) 0.3889(4) 0.3744(3)
O5 O 1.0971(2) 0.6314(4) 0.3953(3)
O6 O 1.16095(19) 0.6539(4) 0.3557(2)
C6 C 0.8286(2) 0.3492(5) 0.3292(3)
C7 C 0.8880(2) 0.4354(5) 0.3605(3)
O7 O 0.88137(16) 0.5288(3) 0.3113(2)
N3 N 0.77101(19) 0.3710(4) 0.2449(2)
O8 O 0.94570(16) 0.4167(3) 0.4336(2)
C8 C 0.7261(2) 0.2765(5) 0.2304(3)
H2 H 0.6826 0.2677 0.1782
N4 N 0.74999(19) 0.1956(4) 0.2984(2)
C9 C 0.8149(2) 0.2402(5) 0.3616(3)
C10 C 0.8540(2) 0.1661(5) 0.4446(3)
O9 O 0.82187(17) 0.0671(3) 0.4480(2)
O10 O 0.91362(16) 0.1976(4) 0.5058(2)
O11 O 0.9781(2) 0.4347(4) 0.2989(2)
O12 O 0.96079(19) 0.7580(4) 0.2962(2)
O13 O 0.94952(18) 0.7812(4) 0.4306(2)
O14 O 1.1961(2) -0.0898(4) 0.4207(3)
O3A O 0.95218(19) -0.0186(4) 0.1766(2)
O4A O 0.9635(2) 0.1595(4) 0.2699(3)
Nd1A Nd 0.986189(12) 0.60165(2) 0.081397(15)
Zn1A Zn 1.21601(3) 0.52463(6) 0.31933(3)
Zn2A Zn 0.86244(3) 0.03045(6) 0.06014(4)
C1A C 0.8919(2) 0.3075(5) 0.0321(3)
C2A C 0.8563(2) 0.3247(5) 0.0688(3)
O1A O 0.90103(19) 0.1832(4) 0.0209(2)
N1A N 0.8303(2) 0.2086(4) 0.0774(2)
C3A C 0.8019(2) 0.2513(5) 0.1114(3)
H1A H 0.7802 0.1924 0.1242
O2A O 0.91013(19) 0.4096(4) 0.0125(2)
C4A C 0.8628(2) 0.5835(5) 0.1151(3)
C5A C 0.8427(2) 0.4366(5) 0.0986(3)
N2A N 0.8077(2) 0.3889(4) 0.1256(3)
O5A O 0.9029(2) 0.6314(4) 0.1047(3)
O6A O 0.83905(19) 0.6539(4) 0.1443(2)
C6A C 1.1714(2) 0.3492(5) 0.1708(3)
C7A C 1.1120(2) 0.4354(5) 0.1395(3)
O7A O 1.11863(16) 0.5288(3) 0.1887(2)
N3A N 1.22899(19) 0.3710(4) 0.2551(2)
O8A O 1.05430(16) 0.4167(3) 0.0664(2)
C8A C 1.2739(2) 0.2765(5) 0.2696(3)
H2A H 1.3174 0.2677 0.3218
N4A N 1.25001(19) 0.1956(4) 0.2016(2)
C9A C 1.1851(2) 0.2402(5) 0.1384(3)
C10A C 1.1460(2) 0.1661(5) 0.0554(3)
O9A O 1.17813(17) 0.0671(3) 0.0520(2)
O10A O 1.08638(16) 0.1976(4) -0.0058(2)
O11A O 1.0219(2) 0.4347(4) 0.2011(2)
O12A O 1.03921(19) 0.7580(4) 0.2038(2)
O13A O 1.05048(18) 0.7812(4) 0.0694(2)
O14A O 0.8039(2) -0.0898(4) 0.0793(3)
Nd1D Nd 0.986189(12) 0.39835(2) 0.581397(15)
Nd1E Nd 1.013811(12) 0.39835(2) -0.081397(15)
Zn1B Zn 1.28399(3) 0.02463(6) 0.18067(3)
Zn1C Zn 0.71601(3) 0.02463(6) 0.31933(3)
Zn2D Zn 0.86244(3) -0.03045(6) 0.56014(4)
Zn2E Zn 1.13756(3) -0.03045(6) -0.06014(4)
O8D O 1.05430(16) 0.5833(3) 0.5664(2)
O8E O 0.94570(16) 0.5833(3) -0.0664(2)
N4B N 1.24999(19) 0.6956(4) 0.2984(2)
N4C N 0.75001(19) 0.6956(4) 0.2016(2)
O9B O 1.32187(17) 0.5671(3) 0.4480(2)
O9C O 0.67813(17) 0.5671(3) 0.0520(2)
O9D O 1.17813(17) -0.0671(3) 0.5520(2)
O9E O 0.82187(17) -0.0671(3) -0.0520(2)
O10D O 1.08638(16) 0.8024(4) 0.4942(2)
O10E O 0.91362(16) 0.8024(4) 0.0058(2)
O15 O 0.9448(3) 0.0568(5) 0.3894(4)
O16 O 0.8253(7) 0.0157(11) 0.2260(8)
loop_
_geom_bond_atom_site_label_1
_geom_bond_atom_site_label_2
_geom_bond_site_symmetry_1
_geom_bond_site_symmetry_2
Nd1 O2 1_555 1_555
Zn1 O7 1_555 1_555
Zn2 O1 1_555 1_555
C1 C2 1_555 1_555
C2 N1 1_555 1_555
O1 C1 1_555 1_555
N1 Zn2 1_555 1_555
C3 N1 1_555 1_555
H1 C3 1_555 1_555
O2 C1 1_555 1_555
O3 Zn2 1_555 1_555
O4 S1 1_555 1_555
S1 O3 1_555 1_555
C4 C5 1_555 1_555
C5 C2 1_555 1_555
N2 C3 1_555 1_555
O5 Nd1 1_555 1_555
O6 C4 1_555 1_555
C6 C7 1_555 1_555
C7 O7 1_555 1_555
O7 Nd1 1_555 1_555
N3 Zn1 1_555 1_555
O8 Nd1 1_555 1_555
C8 N3 1_555 1_555
H2 C8 1_555 1_555
N4 C8 1_555 1_555
C9 C6 1_555 1_555
C10 C9 1_555 1_555
O9 C10 1_555 1_555
O10 C10 1_555 1_555
O11 Nd1 1_555 1_555
O12 Nd1 1_555 1_555
O13 Nd1 1_555 1_555
O14 Zn2 1_555 1_555
O3A S1 1_555 1_555
O4A S1 1_555 1_555
Nd1A O2A 1_555 1_555
Zn1A N2 1_555 1_555
Zn2A O3A 1_555 1_555
C1A C2A 1_555 1_555
C2A N1A 1_555 1_555
O1A Zn2A 1_555 1_555
N1A Zn2A 1_555 1_555
C3A N1A 1_555 1_555
H1A C3A 1_555 1_555
O2A C1A 1_555 1_555
C4A C5A 1_555 1_555
C5A C2A 1_555 1_555
N2A Zn1 1_555 1_555
O5A Nd1A 1_555 1_555
O6A Zn1 1_555 1_555
C6A C7A 1_555 1_555
C7A O7A 1_555 1_555
O7A Nd1A 1_555 1_555
N3A Zn1A 1_555 1_555
O8A Nd1A 1_555 1_555
C8A N3A 1_555 1_555
H2A C8A 1_555 1_555
N4A C8A 1_555 1_555
C9A C6A 1_555 1_555
C10A C9A 1_555 1_555
O9A C10A 1_555 1_555
O10A C10A 1_555 1_555
O11A Nd1A 1_555 1_555
O12A Nd1A 1_555 1_555
O13A Nd1A 1_555 1_555
O14A Zn2A 1_555 1_555
Nd1D O8 1_555 1_555
Nd1E O8A 1_555 1_555
Zn1B N4A 1_555 1_555
Zn1C N4 1_555 1_555
Zn2D O9 1_555 1_555
Zn2E O9A 1_555 1_555
O8D Nd1 1_555 1_555
O8E Nd1A 1_555 1_555
N4B Zn1A 1_555 1_555
N4C Zn1 1_555 1_555
O9B Zn1A 1_555 1_555
O9C Zn1 1_555 1_555
O9D Zn2 1_555 1_555
O9E Zn2A 1_555 1_555
O10D Nd1 1_555 1_555
O10E Nd1A 1_555 1_555
C4 O5 1_555 1_555
C5 N2 1_555 1_555
O6 Zn1A 1_555 1_555
C6 N3 1_555 1_555
C7 O8 1_555 1_555
N4 C9 1_555 1_555
O9 Zn1C 1_555 1_555
O10 Nd1D 1_555 1_555
Zn1A O7A 1_555 1_555
C1A O1A 1_555 1_555
C3A N2A 1_555 1_555
C4A O5A 1_555 1_555
C4A O6A 1_555 1_555
C5A N2A 1_555 1_555
C6A N3A 1_555 1_555
C7A O8A 1_555 1_555
N4A C9A 1_555 1_555
O9A Zn1B 1_555 1_555
O10A Nd1E 1_555 1_555
Nd1D O8D 1_555 1_555
Nd1E O8E 1_555 1_555

#END
