
#######################################################################
#
#                 Cambridge Crystallographic Data Centre
#                                CCDC 
#
#######################################################################
#
# If this CIF has been generated from an entry in the Cambridge 
# Structural Database, then it will include bibliographic, chemical, 
# crystal, experimental, refinement or atomic coordinate data resulting 
# from the CCDC's data processing and validation procedures.
#
#######################################################################

data_NUKCEC
_symmetry_cell_setting           triclinic
_symmetry_space_group_name_H-M   'P -1'
_symmetry_Int_Tables_number      2
_space_group_name_Hall           '-P 1'
loop_
_symmetry_equiv_pos_site_id
_symmetry_equiv_pos_as_xyz
1 x,y,z
2 -x,-y,-z
_cell_length_a                   9.4989(10)
_cell_length_b                   12.6502(14)
_cell_length_c                   12.8862(14)
_cell_angle_alpha                84.965(2)
_cell_angle_beta                 68.7300(10)
_cell_angle_gamma                78.4150(10)
_cell_volume                     1413.38
loop_
_atom_site_label
_atom_site_type_symbol
_atom_site_fract_x
_atom_site_fract_y
_atom_site_fract_z
Zn1 Zn 0.62798(2) 0.367715(16) 0.404443(16)
Cl1 Cl 0.73060(6) 0.19466(4) 0.42844(4)
O1 O 0.40877(14) 0.38827(11) 0.42526(11)
O2 O 0.37852(14) 0.56218(10) 0.45940(10)
O3 O 0.67962(17) 0.37063(12) 0.17770(12)
O4 O 0.76718(16) 0.44454(12) 0.28686(11)
C1 C 0.0948(2) 0.39901(16) 0.47860(17)
H1 H 0.1594 0.3301 0.4639
C2 C 0.1571(2) 0.49007(15) 0.47825(15)
C3 C 0.0618(2) 0.59094(16) 0.49958(17)
H2 H 0.1039 0.6531 0.4992
C4 C 0.3262(2) 0.48004(15) 0.45380(14)
C5 C 1.0076(2) 0.50287(15) 0.10550(15)
H3 H 1.0135 0.5044 0.1774
C6 C 0.8892(2) 0.46267(14) 0.09228(15)
C7 C 0.8827(2) 0.45927(15) -0.01315(16)
H4 H 0.8027 0.4308 -0.0223
C8 C 0.7685(2) 0.42182(15) 0.19198(15)
Zn1A Zn -0.62798(2) 0.632285(16) 0.595557(16)
Zn1A_2 Zn 0.37202(2) 0.632285(16) 0.595557(16)
Zn1_2 Zn -0.37202(2) 0.367715(16) 0.404443(16)
Zn1A_3 Zn 1.37202(2) 0.632285(16) -0.404443(16)
Cl1A Cl -0.73060(6) 0.80534(4) 0.57156(4)
O1A O -0.40877(14) 0.61173(11) 0.57474(11)
O2A O -0.37852(14) 0.43782(10) 0.54060(10)
O2A_2 O 0.62148(14) 0.43782(10) 0.54060(10)
O2_2 O -0.62148(14) 0.56218(10) 0.45940(10)
O3A O 1.32038(17) 0.62937(12) -0.17770(12)
O4A O 1.23282(16) 0.55546(12) -0.28686(11)
O4A_2 O -0.76718(16) 0.55546(12) 0.71314(11)
C1A C -0.0948(2) 0.60099(16) 0.52140(17)
H1A H -0.1594 0.6699 0.5361
C2A C -0.1571(2) 0.50993(15) 0.52175(15)
C3A C -0.0618(2) 0.40906(16) 0.50042(17)
H2A H -0.1039 0.3469 0.5008
C4A C -0.3262(2) 0.51996(15) 0.54620(14)
C5A C 0.9924(2) 0.49713(15) -0.10550(15)
H3A H 0.9865 0.4956 -0.1774
C6A C 1.1108(2) 0.53733(14) -0.09228(15)
C7A C 1.1173(2) 0.54073(15) 0.01315(16)
H4A H 1.1973 0.5692 0.0223
C8A C 1.2315(2) 0.57818(15) -0.19198(15)
P1 P 0.12198(5) 0.90731(4) 0.24197(4)
C9 C -0.0534(2) 0.85520(15) 0.29454(15)
C10 C -0.0633(2) 0.76178(19) 0.24963(19)
H5 H 0.0232 0.7256 0.1919
C11 C -0.1988(2) 0.72157(19) 0.2890(2)
H6 H -0.2056 0.6585 0.2575
C12 C -0.3237(2) 0.77279(17) 0.37358(17)
H7 H -0.4169 0.7455 0.3995
C13 C -0.3142(2) 0.86336(19) 0.42081(18)
H8 H -0.4000 0.8971 0.4806
C14 C -0.1804(2) 0.90541(17) 0.38172(18)
H9 H -0.1748 0.9684 0.4141
C15 C 0.2776(2) 0.79828(15) 0.18373(15)
C16 C 0.3220(2) 0.77388(16) 0.07146(16)
H10 H 0.2770 0.8194 0.0248
C17 C 0.4311(2) 0.68364(17) 0.02824(17)
H11 H 0.4612 0.6667 -0.0480
C18 C 0.4964(2) 0.61811(18) 0.09665(18)
H12 H 0.5714 0.5559 0.0670
C19 C 0.4540(2) 0.64198(18) 0.20787(18)
H13 H 0.5010 0.5969 0.2536
C20 C 0.3431(2) 0.73151(17) 0.25262(16)
H14 H 0.3120 0.7473 0.3293
C21 C 0.1212(2) 1.01181(15) 0.13870(15)
C22 C 0.2611(2) 1.03704(18) 0.06566(18)
H15 H 0.3553 0.9914 0.0620
C23 C 0.2609(3) 1.12883(19) -0.0010(2)
H16 H 0.3552 1.1456 -0.0519
C24 C 0.1243(3) 1.19614(19) 0.0061(2)
H17 H 0.1253 1.2601 -0.0385
C25 C -0.0135(3) 1.17148(18) 0.0774(2)
H18 H -0.1071 1.2177 0.0808
C26 C -0.0158(2) 1.07901(17) 0.14452(18)
H19 H -0.1108 1.0621 0.1940
C27 C 0.1427(2) 0.96889(17) 0.35630(16)
H20 H 0.0435 1.0144 0.3985
H21 H 0.1678 0.9114 0.4074
C28 C 0.2661(2) 1.03721(17) 0.31763(16)
C29 C 0.4183(3) 0.9903(2) 0.2951(2)
H22 H 0.4460 0.9147 0.3053
C30 C 0.5310(3) 1.0542(3) 0.2574(2)
H23 H 0.6356 1.0215 0.2416
C31 C 0.4942(4) 1.1625(2) 0.2427(2)
H24 H 0.5724 1.2052 0.2169
C32 C 0.3424(4) 1.2101(2) 0.2657(2)
H25 H 0.3159 1.2859 0.2562
C33 C 0.2275(3) 1.14742(19) 0.3027(2)
H26 H 0.1232 1.1804 0.3176
loop_
_geom_bond_atom_site_label_1
_geom_bond_atom_site_label_2
_geom_bond_site_symmetry_1
_geom_bond_site_symmetry_2
Zn1 Cl1 1_555 1_555
P1 C9 1_555 1_555
O1 Zn1 1_555 1_555
O2 C4 1_555 1_555
O3 C8 1_555 1_555
O4 Zn1 1_555 1_555
C1 H1 1_555 1_555
C2 C1 1_555 1_555
C3 C2 1_555 1_555
H2 C3 1_555 1_555
C4 O1 1_555 1_555
C5 H3 1_555 1_555
C6 C5 1_555 1_555
C7 C6 1_555 1_555
H4 C7 1_555 1_555
C8 O4 1_555 1_555
C9 C10 1_555 1_555
C10 H5 1_555 1_555
C11 C10 1_555 1_555
H6 C11 1_555 1_555
C12 C11 1_555 1_555
H7 C12 1_555 1_555
C13 C12 1_555 1_555
H8 C13 1_555 1_555
C14 C9 1_555 1_555
H9 C14 1_555 1_555
C15 P1 1_555 1_555
C16 C15 1_555 1_555
H10 C16 1_555 1_555
C17 C16 1_555 1_555
H11 C17 1_555 1_555
C18 C17 1_555 1_555
H12 C18 1_555 1_555
C19 C18 1_555 1_555
H13 C19 1_555 1_555
C20 C15 1_555 1_555
H14 C20 1_555 1_555
C21 P1 1_555 1_555
C22 C21 1_555 1_555
H15 C22 1_555 1_555
C23 C22 1_555 1_555
H16 C23 1_555 1_555
C24 C23 1_555 1_555
H17 C24 1_555 1_555
C25 C24 1_555 1_555
H18 C25 1_555 1_555
C26 C21 1_555 1_555
H19 C26 1_555 1_555
C27 P1 1_555 1_555
H20 C27 1_555 1_555
H21 C27 1_555 1_555
C28 C27 1_555 1_555
C29 C28 1_555 1_555
H22 C29 1_555 1_555
C30 C29 1_555 1_555
H23 C30 1_555 1_555
C31 C30 1_555 1_555
H24 C31 1_555 1_555
C32 C31 1_555 1_555
H25 C32 1_555 1_555
C33 C28 1_555 1_555
H26 C33 1_555 1_555
Zn1A Cl1A 1_555 1_555
Zn1A_2 O2 1_555 1_555
Zn1_2 O2A 1_555 1_555
Zn1A_3 O4A 1_555 1_555
O1A Zn1A 1_555 1_555
O2A C4A 1_555 1_555
O2A_2 Zn1 1_555 1_555
O2_2 Zn1A 1_555 1_555
O3A C8A 1_555 1_555
O4A C8A 1_555 1_555
O4A_2 Zn1A 1_555 1_555
C1A C3 1_555 1_555
H1A C1A 1_555 1_555
C2A C1A 1_555 1_555
C3A C1 1_555 1_555
H2A C3A 1_555 1_555
C4A O1A 1_555 1_555
C5A C7 1_555 1_555
H3A C5A 1_555 1_555
C6A C5A 1_555 1_555
C7A C5 1_555 1_555
H4A C7A 1_555 1_555
C8A C6A 1_555 1_555
C2 C4 1_555 1_555
C6 C8 1_555 1_555
C13 C14 1_555 1_555
C19 C20 1_555 1_555
C25 C26 1_555 1_555
C32 C33 1_555 1_555
C2A C3A 1_555 1_555
C2A C4A 1_555 1_555
C6A C7A 1_555 1_555

#END
