
#######################################################################
#
#                 Cambridge Crystallographic Data Centre
#                                CCDC 
#
#######################################################################
#
# If this CIF has been generated from an entry in the Cambridge 
# Structural Database, then it will include bibliographic, chemical, 
# crystal, experimental, refinement or atomic coordinate data resulting 
# from the CCDC's data processing and validation procedures.
#
#######################################################################

data_NUKDII
_symmetry_cell_setting           monoclinic
_symmetry_space_group_name_H-M   'C 2/c'
_symmetry_Int_Tables_number      15
_space_group_name_Hall           '-C 2yn'
loop_
_symmetry_equiv_pos_site_id
_symmetry_equiv_pos_as_xyz
1 x,y,z
2 -x,y,1/2-z
3 1/2+x,1/2+y,z
4 1/2-x,1/2+y,1/2-z
5 -x,-y,-z
6 x,-y,1/2+z
7 1/2-x,1/2-y,-z
8 1/2+x,1/2-y,1/2+z
_cell_length_a                   25.1442(19)
_cell_length_b                   9.6068(7)
_cell_length_c                   19.9794(14)
_cell_angle_alpha                90
_cell_angle_beta                 128.933(2)
_cell_angle_gamma                90
_cell_volume                     3754.16
loop_
_atom_site_label
_atom_site_type_symbol
_atom_site_fract_x
_atom_site_fract_y
_atom_site_fract_z
Gd1 Gd 1.014764(3) 0.599265(8) 0.419874(4)
Zn1 Zn 0.784926(7) 0.52920(2) 0.181257(10)
Zn2 Zn 1.138031(8) 0.02887(2) 0.439943(10)
S1 S 1.0000 0.07417(7) 0.2500
O1 O 0.82203(5) 0.07148(13) 0.44915(6)
O2 O 0.91411(5) 0.20309(13) 0.50634(6)
O3 O 0.94679(5) 0.42095(12) 0.43486(6)
O4 O 1.09926(5) 0.18251(13) 0.47958(6)
O5 O 1.08926(5) 0.40994(13) 0.48708(6)
O6 O 1.09604(5) 0.63169(14) 0.39535(7)
O7 O 1.15902(5) 0.65622(13) 0.35385(6)
O8 O 1.04833(6) -0.02126(14) 0.32344(7)
O9 O 1.03619(6) 0.15852(15) 0.22972(7)
N1 N 0.74913(5) 0.20231(15) 0.29884(7)
N2 N 0.77096(6) 0.37777(15) 0.24580(7)
N3 N 1.16959(6) 0.20810(15) 0.42225(7)
N4 N 1.19240(6) 0.38957(15) 0.37412(7)
O10 O 0.97956(5) 0.43605(15) 0.30149(7)
O11 O 0.96348(5) 0.75398(14) 0.30056(6)
O12 O 0.95111(5) 0.77446(14) 0.43149(6)
O13 O 1.19772(6) -0.08993(15) 0.42082(9)
C1 C 0.85385(6) 0.17183(17) 0.44528(8)
C2 C 0.81431(6) 0.24569(17) 0.36222(8)
C3 C 0.72538(7) 0.2836(2) 0.23092(9)
H1 H 0.6816 0.2755 0.1786
C4 C 0.82875(7) 0.35468(17) 0.33007(8)
O14 O 0.88292(5) 0.53214(12) 0.31214(6)
C5 C 0.88926(6) 0.43993(17) 0.36173(8)
C6 C 1.10856(7) 0.30641(19) 0.46806(9)
C7 C 1.14374(6) 0.32438(18) 0.43104(8)
C8 C 1.19834(7) 0.25193(19) 0.38785(9)
H2 H 1.2201 0.1930 0.3749
C9 C 1.15677(6) 0.43730(18) 0.40090(8)
C10 C 1.13599(7) 0.58429(18) 0.38405(9)
O8A O 0.95167(6) -0.02126(14) 0.17656(7)
O9A O 0.96381(6) 0.15852(15) 0.27028(7)
Gd1A Gd 0.985236(3) 0.599265(8) 0.080126(4)
Zn1A Zn 1.215074(7) 0.52920(2) 0.318743(10)
Zn2A Zn 0.861969(8) 0.02887(2) 0.060057(10)
O1A O 1.17797(5) 0.07148(13) 0.05085(6)
O2A O 1.08589(5) 0.20309(13) -0.00634(6)
O3A O 1.05321(5) 0.42095(12) 0.06514(6)
O4A O 0.90074(5) 0.18251(13) 0.02042(6)
O5A O 0.91074(5) 0.40994(13) 0.01292(6)
O6A O 0.90396(5) 0.63169(14) 0.10465(7)
O7A O 0.84098(5) 0.65622(13) 0.14615(6)
N1A N 1.25087(5) 0.20231(15) 0.20116(7)
N2A N 1.22904(6) 0.37777(15) 0.25420(7)
N3A N 0.83041(6) 0.20810(15) 0.07775(7)
N4A N 0.80760(6) 0.38957(15) 0.12588(7)
O10A O 1.02044(5) 0.43605(15) 0.19851(7)
O11A O 1.03652(5) 0.75398(14) 0.19944(6)
O12A O 1.04889(5) 0.77446(14) 0.06851(6)
O13A O 0.80228(6) -0.08993(15) 0.07918(9)
C1A C 1.14615(6) 0.17183(17) 0.05472(8)
C2A C 1.18569(6) 0.24569(17) 0.13778(8)
C3A C 1.27462(7) 0.2836(2) 0.26908(9)
H1A H 1.3184 0.2755 0.3214
C4A C 1.17125(7) 0.35468(17) 0.16993(8)
O14A O 1.11708(5) 0.53214(12) 0.18786(6)
C5A C 1.11074(6) 0.43993(17) 0.13827(8)
C6A C 0.89144(7) 0.30641(19) 0.03194(9)
C7A C 0.85626(6) 0.32438(18) 0.06896(8)
C8A C 0.80166(7) 0.25193(19) 0.11215(9)
H2A H 0.7799 0.1930 0.1251
C9A C 0.84323(6) 0.43730(18) 0.09910(8)
C10A C 0.86401(7) 0.58429(18) 0.11595(9)
Gd1D Gd 0.985236(3) 0.400735(8) 0.580126(4)
Gd1E Gd 1.014764(3) 0.400735(8) -0.080126(4)
Zn1B Zn 1.284926(7) 0.02920(2) 0.181257(10)
Zn1C Zn 0.715074(7) 0.02920(2) 0.318743(10)
Zn2D Zn 0.861969(8) -0.02887(2) 0.560057(10)
Zn2E Zn 1.138031(8) -0.02887(2) -0.060057(10)
O1B O 1.32203(5) 0.57148(13) 0.44915(6)
O1C O 0.67797(5) 0.57148(13) 0.05085(6)
O1D O 1.17797(5) -0.07148(13) 0.55085(6)
O1E O 0.82203(5) -0.07148(13) -0.05085(6)
O2D O 1.08589(5) 0.79691(13) 0.49366(6)
O2E O 0.91411(5) 0.79691(13) 0.00634(6)
O3D O 1.05321(5) 0.57905(12) 0.56514(6)
O3E O 0.94679(5) 0.57905(12) -0.06514(6)
N1B N 1.24913(5) 0.70231(15) 0.29884(7)
N1C N 0.75087(5) 0.70231(15) 0.20116(7)
O15 O 0.94423(8) 0.0513(2) 0.38976(10)
O16 O 0.8284(2) 0.0200(5) 0.2290(3)
loop_
_geom_bond_atom_site_label_1
_geom_bond_atom_site_label_2
_geom_bond_site_symmetry_1
_geom_bond_site_symmetry_2
Gd1 O3 1_555 1_555
Zn1 N2 1_555 1_555
Zn2 O4 1_555 1_555
S1 O8 1_555 1_555
O1 C1 1_555 1_555
O2 C1 1_555 1_555
O3 C5 1_555 1_555
O4 C6 1_555 1_555
O5 Gd1 1_555 1_555
O6 Gd1 1_555 1_555
O7 C10 1_555 1_555
O8 Zn2 1_555 1_555
O9 S1 1_555 1_555
N1 C2 1_555 1_555
N2 C3 1_555 1_555
N3 Zn2 1_555 1_555
N4 C8 1_555 1_555
O10 Gd1 1_555 1_555
O11 Gd1 1_555 1_555
O12 Gd1 1_555 1_555
O13 Zn2 1_555 1_555
C1 C2 1_555 1_555
C2 C4 1_555 1_555
C3 N1 1_555 1_555
H1 C3 1_555 1_555
C4 N2 1_555 1_555
O14 Gd1 1_555 1_555
C5 C4 1_555 1_555
C6 O5 1_555 1_555
C7 N3 1_555 1_555
C8 N3 1_555 1_555
H2 C8 1_555 1_555
C9 N4 1_555 1_555
C10 O6 1_555 1_555
O8A S1 1_555 1_555
O9A S1 1_555 1_555
Gd1A O3A 1_555 1_555
Zn1A O7 1_555 1_555
Zn2A O8A 1_555 1_555
O1A C1A 1_555 1_555
O2A C1A 1_555 1_555
O3A C5A 1_555 1_555
O4A Zn2A 1_555 1_555
O5A Gd1A 1_555 1_555
O6A Gd1A 1_555 1_555
O7A Zn1 1_555 1_555
N1A C2A 1_555 1_555
N2A Zn1A 1_555 1_555
N3A Zn2A 1_555 1_555
N4A Zn1 1_555 1_555
O10A Gd1A 1_555 1_555
O11A Gd1A 1_555 1_555
O12A Gd1A 1_555 1_555
O13A Zn2A 1_555 1_555
C1A C2A 1_555 1_555
C2A C4A 1_555 1_555
C3A N1A 1_555 1_555
H1A C3A 1_555 1_555
C4A N2A 1_555 1_555
O14A Gd1A 1_555 1_555
C5A C4A 1_555 1_555
C6A O4A 1_555 1_555
C7A N3A 1_555 1_555
C8A N3A 1_555 1_555
H2A C8A 1_555 1_555
C9A N4A 1_555 1_555
C10A O6A 1_555 1_555
Gd1D O2 1_555 1_555
Gd1E O2A 1_555 1_555
Zn1B O1A 1_555 1_555
Zn1C O1 1_555 1_555
Zn2D O1 1_555 1_555
Zn2E O1A 1_555 1_555
O1B Zn1A 1_555 1_555
O1C Zn1 1_555 1_555
O1D Zn2 1_555 1_555
O1E Zn2A 1_555 1_555
O2D Gd1 1_555 1_555
O2E Gd1A 1_555 1_555
O3D Gd1 1_555 1_555
O3E Gd1A 1_555 1_555
N1B Zn1A 1_555 1_555
N1C Zn1 1_555 1_555
Zn1 O14 1_555 1_555
O3 Gd1D 1_555 1_555
N1 Zn1C 1_555 1_555
N4 Zn1A 1_555 1_555
O14 C5 1_555 1_555
C6 C7 1_555 1_555
C7 C9 1_555 1_555
C9 C10 1_555 1_555
Zn1A O14A 1_555 1_555
O3A Gd1E 1_555 1_555
O5A C6A 1_555 1_555
O7A C10A 1_555 1_555
N1A Zn1B 1_555 1_555
N2A C3A 1_555 1_555
N4A C8A 1_555 1_555
O14A C5A 1_555 1_555
C6A C7A 1_555 1_555
C7A C9A 1_555 1_555
C9A C10A 1_555 1_555
Gd1D O3D 1_555 1_555
Gd1E O3E 1_555 1_555

#END
