
#######################################################################
#
#                 Cambridge Crystallographic Data Centre
#                                CCDC 
#
#######################################################################
#
# If this CIF has been generated from an entry in the Cambridge 
# Structural Database, then it will include bibliographic, chemical, 
# crystal, experimental, refinement or atomic coordinate data resulting 
# from the CCDC's data processing and validation procedures.
#
#######################################################################

data_NUKDAA
_symmetry_cell_setting           monoclinic
_symmetry_space_group_name_H-M   'C 2/c'
_symmetry_Int_Tables_number      15
_space_group_name_Hall           '-C 2yn'
loop_
_symmetry_equiv_pos_site_id
_symmetry_equiv_pos_as_xyz
1 x,y,z
2 -x,y,1/2-z
3 1/2+x,1/2+y,z
4 1/2-x,1/2+y,1/2-z
5 -x,-y,-z
6 x,-y,1/2+z
7 1/2-x,1/2-y,-z
8 1/2+x,1/2-y,1/2+z
_cell_length_a                   25.1944(17)
_cell_length_b                   9.6262(6)
_cell_length_c                   19.9847(12)
_cell_angle_alpha                90
_cell_angle_beta                 128.9050(10)
_cell_angle_gamma                90
_cell_volume                     3771.74
loop_
_atom_site_label
_atom_site_type_symbol
_atom_site_fract_x
_atom_site_fract_y
_atom_site_fract_z
Sm1 Sm 0.014412(3) 0.600617(9) 0.419393(5)
Zn1 Zn -0.215439(8) 0.52767(2) 0.181148(11)
Zn2 Zn 0.137715(9) 0.02978(2) 0.439984(11)
S1 S 0.0000 0.07513(7) 0.2500
O1 O -0.17806(5) 0.06922(14) 0.44852(7)
O2 O -0.08623(5) 0.20037(14) 0.50615(7)
O3 O -0.05369(5) 0.41890(13) 0.43443(7)
O4 O -0.11792(5) 0.53143(13) 0.31178(6)
O5 O 0.09932(5) 0.18298(14) 0.47943(7)
O6 O 0.08964(5) 0.41059(14) 0.48730(7)
O7 O 0.15987(5) 0.65611(14) 0.35468(7)
O8 O 0.04834(6) -0.02024(15) 0.32358(8)
O9 O 0.03632(6) 0.15954(16) 0.22990(8)
N1 N -0.25060(6) 0.20013(16) 0.29869(8)
N2 N -0.22892(6) 0.37589(16) 0.24587(8)
N3 N 0.16951(6) 0.20809(16) 0.42243(8)
N4 N 0.19206(6) 0.38978(16) 0.37372(8)
O10 O -0.02111(6) 0.43567(16) 0.30048(7)
O11 O -0.03771(6) 0.75649(15) 0.29854(7)
O12 O -0.04948(5) 0.77844(15) 0.43138(7)
O13 O 0.19716(7) -0.08982(16) 0.42114(10)
C1 C -0.14604(7) 0.16927(19) 0.44477(9)
C2 C -0.18531(7) 0.24395(18) 0.36203(9)
C3 C -0.27425(7) 0.2821(2) 0.23114(10)
H1 H -0.3180 0.2745 0.1790
C4 C -0.17118(7) 0.35279(18) 0.32974(9)
C5 C -0.11080(7) 0.43820(18) 0.36162(9)
C6 C 0.10827(7) 0.3075(2) 0.46800(9)
C7 C 0.14352(7) 0.32579(19) 0.43107(9)
O14 O 0.09648(5) 0.63190(15) 0.39513(7)
C8 C 0.19787(7) 0.2515(2) 0.38782(10)
H2 H 0.2194 0.1924 0.3748
C9 C 0.15688(7) 0.4369(2) 0.40056(9)
C10 C 0.13636(7) 0.5839(2) 0.38426(10)
O8A O -0.04834(6) -0.02024(15) 0.17642(8)
O9A O -0.03632(6) 0.15954(16) 0.27010(8)
Sm1A Sm -0.014412(3) 0.600617(9) 0.080607(5)
Zn1A Zn 0.215439(8) 0.52767(2) 0.318852(11)
Zn2A Zn -0.137715(9) 0.02978(2) 0.060016(11)
O1A O 0.17806(5) 0.06922(14) 0.05148(7)
O2A O 0.08623(5) 0.20037(14) -0.00615(7)
O3A O 0.05369(5) 0.41890(13) 0.06557(7)
O4A O 0.11792(5) 0.53143(13) 0.18822(6)
O5A O -0.09932(5) 0.18298(14) 0.02057(7)
O6A O -0.08964(5) 0.41059(14) 0.01270(7)
O7A O -0.15987(5) 0.65611(14) 0.14532(7)
N1A N 0.25060(6) 0.20013(16) 0.20131(8)
N2A N 0.22892(6) 0.37589(16) 0.25413(8)
N3A N -0.16951(6) 0.20809(16) 0.07757(8)
N4A N -0.19206(6) 0.38978(16) 0.12628(8)
O10A O 0.02111(6) 0.43567(16) 0.19952(7)
O11A O 0.03771(6) 0.75649(15) 0.20146(7)
O12A O 0.04948(5) 0.77844(15) 0.06862(7)
O13A O -0.19716(7) -0.08982(16) 0.07886(10)
C1A C 0.14604(7) 0.16927(19) 0.05523(9)
C2A C 0.18531(7) 0.24395(18) 0.13797(9)
C3A C 0.27425(7) 0.2821(2) 0.26886(10)
H1A H 0.3180 0.2745 0.3210
C4A C 0.17118(7) 0.35279(18) 0.17026(9)
C5A C 0.11080(7) 0.43820(18) 0.13838(9)
C6A C -0.10827(7) 0.3075(2) 0.03200(9)
C7A C -0.14352(7) 0.32579(19) 0.06893(9)
O14A O -0.09648(5) 0.63190(15) 0.10487(7)
C8A C -0.19787(7) 0.2515(2) 0.11218(10)
H2A H -0.2194 0.1924 0.1252
C9A C -0.15688(7) 0.4369(2) 0.09944(9)
C10A C -0.13636(7) 0.5839(2) 0.11574(10)
Sm1D Sm -0.014412(3) 0.399383(9) 0.580607(5)
Sm1E Sm 0.014412(3) 0.399383(9) -0.080607(5)
Zn1B Zn 0.284561(8) 0.02767(2) 0.181148(11)
Zn1C Zn -0.284561(8) 0.02767(2) 0.318852(11)
Zn2D Zn -0.137715(9) -0.02978(2) 0.560016(11)
Zn2E Zn 0.137715(9) -0.02978(2) -0.060016(11)
O1B O 0.32194(5) 0.56922(14) 0.44852(7)
O1C O -0.32194(5) 0.56922(14) 0.05148(7)
O1D O 0.17806(5) -0.06922(14) 0.55148(7)
O1E O -0.17806(5) -0.06922(14) -0.05148(7)
O2D O 0.08623(5) 0.79963(14) 0.49385(7)
O2E O -0.08623(5) 0.79963(14) 0.00615(7)
O3D O 0.05369(5) 0.58110(13) 0.56557(7)
O3E O -0.05369(5) 0.58110(13) -0.06557(7)
N1B N 0.24940(6) 0.70013(16) 0.29869(8)
N1C N -0.24940(6) 0.70013(16) 0.20131(8)
O15 O 0.94321(8) 0.0535(2) 0.38825(10)
O16 O 0.8291(2) 0.0192(6) 0.2312(3)
loop_
_geom_bond_atom_site_label_1
_geom_bond_atom_site_label_2
_geom_bond_site_symmetry_1
_geom_bond_site_symmetry_2
Sm1 O3 1_555 1_555
Zn1 O4 1_555 1_555
Zn2 O5 1_555 1_555
S1 O8 1_555 1_555
O1 C1 1_555 1_555
O2 C1 1_555 1_555
O3 C5 1_555 1_555
O4 Sm1 1_555 1_555
O5 C6 1_555 1_555
O6 Sm1 1_555 1_555
O7 C10 1_555 1_555
O8 Zn2 1_555 1_555
O9 S1 1_555 1_555
N1 C2 1_555 1_555
N2 Zn1 1_555 1_555
N3 Zn2 1_555 1_555
N4 C8 1_555 1_555
O10 Sm1 1_555 1_555
O11 Sm1 1_555 1_555
O12 Sm1 1_555 1_555
O13 Zn2 1_555 1_555
C1 C2 1_555 1_555
C2 C4 1_555 1_555
C3 N1 1_555 1_555
H1 C3 1_555 1_555
C4 N2 1_555 1_555
C5 O4 1_555 1_555
C6 O6 1_555 1_555
C7 N3 1_555 1_555
O14 Sm1 1_555 1_555
C8 N3 1_555 1_555
H2 C8 1_555 1_555
C9 N4 1_555 1_555
C10 O14 1_555 1_555
O8A S1 1_555 1_555
O9A S1 1_555 1_555
Sm1A O3A 1_555 1_555
Zn1A O7 1_555 1_555
Zn2A O8A 1_555 1_555
O1A C1A 1_555 1_555
O2A C1A 1_555 1_555
O3A C5A 1_555 1_555
O4A Sm1A 1_555 1_555
O5A Zn2A 1_555 1_555
O6A Sm1A 1_555 1_555
O7A Zn1 1_555 1_555
N1A C2A 1_555 1_555
N2A Zn1A 1_555 1_555
N3A Zn2A 1_555 1_555
N4A Zn1 1_555 1_555
O10A Sm1A 1_555 1_555
O11A Sm1A 1_555 1_555
O12A Sm1A 1_555 1_555
O13A Zn2A 1_555 1_555
C1A C2A 1_555 1_555
C2A C4A 1_555 1_555
C3A N1A 1_555 1_555
H1A C3A 1_555 1_555
C4A N2A 1_555 1_555
C5A O4A 1_555 1_555
C6A O5A 1_555 1_555
C7A N3A 1_555 1_555
O14A Sm1A 1_555 1_555
C8A N3A 1_555 1_555
H2A C8A 1_555 1_555
C9A N4A 1_555 1_555
C10A O7A 1_555 1_555
Sm1D O2 1_555 1_555
Sm1E O2A 1_555 1_555
Zn1B O1A 1_555 1_555
Zn1C O1 1_555 1_555
Zn2D O1 1_555 1_555
Zn2E O1A 1_555 1_555
O1B Zn1A 1_555 1_555
O1C Zn1 1_555 1_555
O1D Zn2 1_555 1_555
O1E Zn2A 1_555 1_555
O2D Sm1 1_555 1_555
O2E Sm1A 1_555 1_555
O3D Sm1 1_555 1_555
O3E Sm1A 1_555 1_555
N1B Zn1A 1_555 1_555
N1C Zn1 1_555 1_555
O3 Sm1D 1_555 1_555
N1 Zn1C 1_555 1_555
N2 C3 1_555 1_555
N4 Zn1A 1_555 1_555
C4 C5 1_555 1_555
C6 C7 1_555 1_555
C7 C9 1_555 1_555
C9 C10 1_555 1_555
Zn1A O4A 1_555 1_555
O3A Sm1E 1_555 1_555
O6A C6A 1_555 1_555
N1A Zn1B 1_555 1_555
N2A C3A 1_555 1_555
N4A C8A 1_555 1_555
C4A C5A 1_555 1_555
C6A C7A 1_555 1_555
C7A C9A 1_555 1_555
O14A C10A 1_555 1_555
C9A C10A 1_555 1_555
Sm1D O3D 1_555 1_555
Sm1E O3E 1_555 1_555

#END
