
#######################################################################
#
#                 Cambridge Crystallographic Data Centre
#                                CCDC 
#
#######################################################################
#
# If this CIF has been generated from an entry in the Cambridge 
# Structural Database, then it will include bibliographic, chemical, 
# crystal, experimental, refinement or atomic coordinate data resulting 
# from the CCDC's data processing and validation procedures.
#
#######################################################################

data_NUKDEE
_symmetry_cell_setting           monoclinic
_symmetry_space_group_name_H-M   'C 2/c'
_symmetry_Int_Tables_number      15
_space_group_name_Hall           '-C 2yn'
loop_
_symmetry_equiv_pos_site_id
_symmetry_equiv_pos_as_xyz
1 x,y,z
2 -x,y,1/2-z
3 1/2+x,1/2+y,z
4 1/2-x,1/2+y,1/2-z
5 -x,-y,-z
6 x,-y,1/2+z
7 1/2-x,1/2-y,-z
8 1/2+x,1/2-y,1/2+z
_cell_length_a                   25.1496(13)
_cell_length_b                   9.6309(5)
_cell_length_c                   20.0039(11)
_cell_angle_alpha                90
_cell_angle_beta                 128.9370(10)
_cell_angle_gamma                90
_cell_volume                     3768.79
loop_
_atom_site_label
_atom_site_type_symbol
_atom_site_fract_x
_atom_site_fract_y
_atom_site_fract_z
Eu1 Eu 0.154849(9) 0.84926(2) 0.419562(12)
O1 O 0.23839(14) 0.6703(3) 0.43470(17)
O2 O 0.17931(14) 0.7799(3) 0.31165(17)
O3 O 0.04946(15) 0.8814(3) 0.3965(2)
O4 O 0.14785(14) 0.6590(3) 0.4868(2)
O5 O 0.23018(15) 1.0245(3) 0.4302(2)
O6 O 0.08672(15) 1.0044(3) 0.2995(2)
O7 O 0.07160(15) 0.6855(3) 0.3006(2)
O8 O 0.15818(15) 1.0482(3) 0.49359(18)
C1 C 0.22277(19) 0.6873(4) 0.3617(3)
Zn1 Zn 0.14604(2) 0.77697(5) 0.18078(3)
C2 C -0.0017(2) 0.8336(4) 0.3848(3)
C3 C 0.1100(2) 0.5564(4) 0.4678(3)
C4 C 0.25061(19) 0.6017(4) 0.3292(3)
N1 N 0.22376(17) 0.6232(4) 0.2451(2)
N2 N 0.06773(17) 0.6391(3) 0.1248(2)
O9 O 0.05520(14) 0.9047(3) 0.1464(2)
O10 O 0.12284(15) 0.8208(3) 0.05082(19)
N3 N 0.20154(17) 0.9477(3) 0.2016(2)
C5 C -0.00581(19) 0.6867(4) 0.4016(3)
C6 C 0.0375(2) 0.5744(4) 0.4311(3)
O11 O 0.13028(15) 0.4321(3) 0.4792(2)
C7 C 0.29713(19) 0.4919(4) 0.3619(2)
C8 C 0.34097(18) 0.4199(4) 0.4452(2)
C9 C 0.2537(2) 0.5281(4) 0.2302(3)
C10 C 0.0596(2) 0.5021(4) 0.1109(3)
N4 N 0.00256(16) 0.4578(3) 0.4225(2)
Zn2 Zn 0.05142(2) 0.27878(5) 0.43981(3)
H1 H 0.2443 0.5184 0.1775
H2 H 0.0942 0.4434 0.1235
O12 O 0.02550(17) 0.2296(3) 0.3236(2)
O13 O -0.02702(19) 0.1605(3) 0.4203(3)
S1 S 0.0000 0.32446(15) 0.2500
O14 O -0.05645(18) 0.4089(4) 0.2300(2)
O1F O 0.26161(14) 0.8297(3) 0.56530(17)
Eu1F Eu 0.345151(9) 0.65074(2) 0.580438(12)
O8F O 0.34182(15) 0.4518(3) 0.50641(18)
O9A O -0.05520(14) 0.9047(3) 0.3536(2)
C5A C 0.00581(19) 0.6867(4) 0.0984(3)
C2A C 0.0017(2) 0.8336(4) 0.1152(3)
N2A N -0.06773(17) 0.6391(3) 0.3752(2)
Zn1A Zn -0.14604(2) 0.77697(5) 0.31922(3)
N3C N 0.29846(17) 0.4477(3) 0.2984(2)
O10C O 0.37716(15) 0.3208(3) 0.44918(19)
N4A N -0.00256(16) 0.4578(3) 0.0775(2)
C6A C -0.0375(2) 0.5744(4) 0.0689(3)
O3A O -0.04946(15) 0.8814(3) 0.1035(2)
C10A C -0.0596(2) 0.5021(4) 0.3891(3)
N1A N -0.22376(17) 0.6232(4) 0.2549(2)
O2A O -0.17931(14) 0.7799(3) 0.18835(17)
O10A O -0.12284(15) 0.8208(3) 0.44918(19)
N3A N -0.20154(17) 0.9477(3) 0.2984(2)
O10E O 0.12284(15) 0.1792(3) 0.55082(19)
Zn1C Zn 0.35396(2) 0.27697(5) 0.31922(3)
Zn2F Zn 0.44858(2) 0.22122(5) 0.56019(3)
Zn2A Zn -0.05142(2) 0.27878(5) 0.06019(3)
C3A C -0.1100(2) 0.5564(4) 0.0322(3)
Eu1A Eu -0.154849(9) 0.84926(2) 0.080438(12)
H2A H -0.0942 0.4434 0.3765
C9A C -0.2537(2) 0.5281(4) 0.2698(3)
C4A C -0.25061(19) 0.6017(4) 0.1708(3)
C1A C -0.22277(19) 0.6873(4) 0.1383(3)
O12A O -0.02550(17) 0.2296(3) 0.1764(2)
O11A O -0.13028(15) 0.4321(3) 0.0208(2)
O13A O 0.02702(19) 0.1605(3) 0.0797(3)
O10D O -0.12284(15) 0.1792(3) -0.05082(19)
O4A O -0.14785(14) 0.6590(3) 0.0132(2)
O1A O -0.23839(14) 0.6703(3) 0.06530(17)
O5A O -0.23018(15) 1.0245(3) 0.0698(2)
O6A O -0.08672(15) 1.0044(3) 0.2005(2)
O7A O -0.07160(15) 0.6855(3) 0.1994(2)
O8A O -0.15818(15) 1.0482(3) 0.00641(18)
O1G O -0.26161(14) 0.8297(3) -0.06530(17)
N3B N -0.29846(17) 0.4477(3) 0.2016(2)
H1A H -0.2443 0.5184 0.3225
C7A C -0.29713(19) 0.4919(4) 0.1381(2)
O14A O 0.05645(18) 0.4089(4) 0.2700(2)
Eu1G Eu -0.345151(9) 0.65074(2) -0.080438(12)
Zn1B Zn -0.35396(2) 0.27697(5) 0.18078(3)
C8A C -0.34097(18) 0.4199(4) 0.0548(2)
O8G O -0.34182(15) 0.4518(3) -0.00641(18)
O10B O -0.37716(15) 0.3208(3) 0.05082(19)
Zn2G Zn -0.44858(2) 0.22122(5) -0.06019(3)
O15 O 0.1950(2) 0.3029(4) 0.3921(3)
O16 O 0.8503(4) 0.2672(8) 0.2732(5)
loop_
_geom_bond_atom_site_label_1
_geom_bond_atom_site_label_2
_geom_bond_site_symmetry_1
_geom_bond_site_symmetry_2
Eu1 O1 1_555 1_555
O1 C1 1_555 1_555
O2 Eu1 1_555 1_555
O3 Eu1 1_555 1_555
O4 Eu1 1_555 1_555
O5 Eu1 1_555 1_555
O6 Eu1 1_555 1_555
O7 Eu1 1_555 1_555
O8 Eu1 1_555 1_555
C1 O2 1_555 1_555
Zn1 O2 1_555 1_555
C2 O3 1_555 1_555
C3 O4 1_555 1_555
C4 C1 1_555 1_555
N1 Zn1 1_555 1_555
N2 Zn1 1_555 1_555
O9 Zn1 1_555 1_555
O10 Zn1 1_555 1_555
N3 Zn1 1_555 1_555
C5 C2 1_555 1_555
C6 C3 1_555 1_555
O11 C3 1_555 1_555
C7 C4 1_555 1_555
C8 C7 1_555 1_555
C9 N1 1_555 1_555
C10 N2 1_555 1_555
N4 C6 1_555 1_555
Zn2 O11 1_555 1_555
H1 C9 1_555 1_555
H2 C10 1_555 1_555
O12 Zn2 1_555 1_555
O13 Zn2 1_555 1_555
S1 O12 1_555 1_555
O14 S1 1_555 1_555
O1F Eu1 1_555 1_555
Eu1F O1 1_555 1_555
O8F C8 1_555 1_555
O9A C2 1_555 1_555
C5A N2 1_555 1_555
C2A O9 1_555 1_555
N2A C5 1_555 1_555
Zn1A O9A 1_555 1_555
N3C C7 1_555 1_555
O10C C8 1_555 1_555
N4A C10 1_555 1_555
C6A C5A 1_555 1_555
O3A C2A 1_555 1_555
C10A N4 1_555 1_555
N1A Zn1A 1_555 1_555
O2A Zn1A 1_555 1_555
O10A Zn1A 1_555 1_555
N3A Zn1A 1_555 1_555
O10E Zn2 1_555 1_555
Zn1C N3C 1_555 1_555
Zn2F O10C 1_555 1_555
Zn2A N4A 1_555 1_555
C3A C6A 1_555 1_555
Eu1A O3A 1_555 1_555
H2A C10A 1_555 1_555
C9A N1A 1_555 1_555
C4A N1A 1_555 1_555
C1A O2A 1_555 1_555
O12A S1 1_555 1_555
O11A Zn2A 1_555 1_555
O13A Zn2A 1_555 1_555
O10D Zn2A 1_555 1_555
O4A C3A 1_555 1_555
O1A Eu1A 1_555 1_555
O5A Eu1A 1_555 1_555
O6A Eu1A 1_555 1_555
O7A Eu1A 1_555 1_555
O8A Eu1A 1_555 1_555
O1G Eu1A 1_555 1_555
N3B C9A 1_555 1_555
H1A C9A 1_555 1_555
C7A C4A 1_555 1_555
O14A S1 1_555 1_555
Eu1G O1A 1_555 1_555
Zn1B N3B 1_555 1_555
C8A C7A 1_555 1_555
O8G Eu1G 1_555 1_555
O10B Zn1B 1_555 1_555
Zn2G O10B 1_555 1_555
C4 N1 1_555 1_555
C5 C6 1_555 1_555
C9 N3C 1_555 1_555
N4 Zn2 1_555 1_555
O1F Eu1F 1_555 1_555
Eu1F O8F 1_555 1_555
C5A C2A 1_555 1_555
N2A Zn1A 1_555 1_555
N2A C10A 1_555 1_555
O10C Zn1C 1_555 1_555
N4A C6A 1_555 1_555
O2A Eu1A 1_555 1_555
Zn2A O12A 1_555 1_555
C3A O11A 1_555 1_555
Eu1A O4A 1_555 1_555
C4A C1A 1_555 1_555
C1A O1A 1_555 1_555
O1G Eu1G 1_555 1_555
N3B C7A 1_555 1_555
C8A O8G 1_555 1_555
C8A O10B 1_555 1_555

#END
