
#######################################################################
#
#                 Cambridge Crystallographic Data Centre
#                                CCDC 
#
#######################################################################
#
# If this CIF has been generated from an entry in the Cambridge 
# Structural Database, then it will include bibliographic, chemical, 
# crystal, experimental, refinement or atomic coordinate data resulting 
# from the CCDC's data processing and validation procedures.
#
#######################################################################

data_NUKGUW
_symmetry_cell_setting           triclinic
_symmetry_space_group_name_H-M   'P -1'
_symmetry_Int_Tables_number      2
_space_group_name_Hall           '-P 1'
loop_
_symmetry_equiv_pos_site_id
_symmetry_equiv_pos_as_xyz
1 x,y,z
2 -x,-y,-z
_cell_length_a                   9.340(3)
_cell_length_b                   11.354(5)
_cell_length_c                   11.390(5)
_cell_angle_alpha                102.42(5)
_cell_angle_beta                 111.62(4)
_cell_angle_gamma                112.65(5)
_cell_volume                     942.331
loop_
_atom_site_label
_atom_site_type_symbol
_atom_site_fract_x
_atom_site_fract_y
_atom_site_fract_z
Zn1 Zn 0.77008(19) 0.09850(13) 0.93925(13)
C1 C 0.4279(14) -0.0279(9) 0.9234(9)
O1 O 0.4882(10) -0.0119(8) 0.8415(7)
O2 O 0.2681(10) -0.0879(8) 0.8914(7)
C2 C 0.9243(15) -0.0748(10) 0.9486(10)
O3 O 0.7709(10) -0.0914(7) 0.8784(8)
O4 O 0.9600(10) -0.1713(7) 0.9343(7)
N1 N 0.8025(13) 0.3030(8) 0.9759(8)
N2 N 0.8005(13) 0.3981(9) 1.0723(9)
C3 C 0.7704(15) 0.4835(9) 1.0164(10)
N3 N 0.7491(13) 0.4434(8) 0.8874(8)
C4 C 0.7667(16) 0.3294(10) 0.8633(10)
N4 N 0.7151(16) 0.5053(10) 0.7915(9)
C5 C 0.7519(14) 0.5977(9) 1.0859(10)
N5 N 0.6678(14) 0.6446(9) 1.0013(10)
C6 C 0.647(2) 0.7466(12) 1.0627(13)
H1 H 0.5872 0.7801 1.0068
C7 C 0.7046(18) 0.8039(12) 1.1994(12)
H2 H 0.6878 0.8760 1.2353
C8 C 0.788(3) 0.7555(17) 1.2852(14)
H3 H 0.8288 0.7924 1.3799
C9 C 0.8105(19) 0.6462(12) 1.2229(12)
H4 H 0.8651 0.6085 1.2763
C10 C 0.7502(16) 0.2367(10) 0.7407(10)
N6 N 0.7637(13) 0.1275(9) 0.7550(9)
C11 C 0.747(2) 0.0332(13) 0.6483(13)
H5 H 0.7512 -0.0452 0.6567
C12 C 0.724(2) 0.0494(15) 0.5258(13)
H6 H 0.7137 -0.0164 0.4538
C13 C 0.716(2) 0.1626(15) 0.5144(13)
H7 H 0.7024 0.1760 0.4340
C14 C 0.729(2) 0.2625(13) 0.6237(12)
H8 H 0.7227 0.3409 0.6168
Zn1A Zn 0.22992(19) -0.09850(13) 1.06075(13)
Zn1A_2 Zn 1.22992(19) -0.09850(13) 1.06075(13)
C1A C 0.5721(14) 0.0279(9) 1.0766(9)
O1A O 0.5118(10) 0.0119(8) 1.1585(7)
O2A O 0.7319(10) 0.0879(8) 1.1086(7)
C2A C 1.0757(15) 0.0748(10) 1.0514(10)
O3A O 1.2291(10) 0.0914(7) 1.1216(8)
O3A_2 O 0.2291(10) 0.0914(7) 1.1216(8)
O4A O 1.0400(10) 0.1713(7) 1.0657(7)
O4_2 O -0.0400(10) -0.1713(7) 0.9343(7)
N1A N 0.1975(13) -0.3030(8) 1.0241(8)
N2A N 0.1995(13) -0.3981(9) 0.9277(9)
C3A C 0.2296(15) -0.4835(9) 0.9836(10)
N3A N 0.2509(13) -0.4434(8) 1.1126(8)
C4A C 0.2333(16) -0.3294(10) 1.1367(10)
N4A N 0.2849(16) -0.5053(10) 1.2085(9)
C5A C 0.2481(14) -0.5977(9) 0.9141(10)
N5A N 0.3322(14) -0.6446(9) 0.9987(10)
C6A C 0.353(2) -0.7466(12) 0.9373(13)
H1A H 0.4128 -0.7801 0.9932
C7A C 0.2954(18) -0.8039(12) 0.8006(12)
H2A H 0.3122 -0.8760 0.7647
C8A C 0.212(3) -0.7555(17) 0.7148(14)
H3A H 0.1712 -0.7924 0.6201
C9A C 0.1895(19) -0.6462(12) 0.7771(12)
H4A H 0.1349 -0.6085 0.7237
C10A C 0.2498(16) -0.2367(10) 1.2593(10)
N6A N 0.2363(13) -0.1275(9) 1.2450(9)
C11A C 0.253(2) -0.0332(13) 1.3517(13)
H5A H 0.2488 0.0452 1.3433
C12A C 0.276(2) -0.0494(15) 1.4742(13)
H6A H 0.2863 0.0164 1.5462
C13A C 0.284(2) -0.1626(15) 1.4856(13)
H7A H 0.2976 -0.1760 1.5660
C14A C 0.271(2) -0.2625(13) 1.3763(12)
H8A H 0.2773 -0.3409 1.3832
O5 O -0.016(3) -0.216(2) 0.6143(15)
O6 O 0.146(2) -0.3962(17) 0.6475(17)
O7 O 0.4722(18) -0.3572(12) 0.6678(12)
O8 O 0.640(2) -0.342(2) 0.5080(18)
loop_
_geom_bond_atom_site_label_1
_geom_bond_atom_site_label_2
_geom_bond_site_symmetry_1
_geom_bond_site_symmetry_2
Zn1 O1 1_555 1_555
C1 O1 1_555 1_555
O2 C1 1_555 1_555
C2 O3 1_555 1_555
O3 Zn1 1_555 1_555
O4 C2 1_555 1_555
N1 Zn1 1_555 1_555
N2 N1 1_555 1_555
C3 N2 1_555 1_555
N3 C3 1_555 1_555
C4 N1 1_555 1_555
N4 N3 1_555 1_555
C5 C3 1_555 1_555
N5 C5 1_555 1_555
C6 N5 1_555 1_555
H1 C6 1_555 1_555
C7 C6 1_555 1_555
H2 C7 1_555 1_555
C8 C7 1_555 1_555
H3 C8 1_555 1_555
C9 C5 1_555 1_555
H4 C9 1_555 1_555
C10 C4 1_555 1_555
N6 Zn1 1_555 1_555
C11 N6 1_555 1_555
H5 C11 1_555 1_555
C12 C11 1_555 1_555
H6 C12 1_555 1_555
C13 C12 1_555 1_555
H7 C13 1_555 1_555
C14 C10 1_555 1_555
H8 C14 1_555 1_555
Zn1A O2 1_555 1_555
Zn1A_2 O4 1_555 1_555
C1A C1 1_555 1_555
O1A Zn1A 1_555 1_555
O2A Zn1 1_555 1_555
C2A C2 1_555 1_555
O3A Zn1A_2 1_555 1_555
O3A_2 Zn1A 1_555 1_555
O4A Zn1 1_555 1_555
O4_2 Zn1A 1_555 1_555
N1A Zn1A 1_555 1_555
N2A N1A 1_555 1_555
C3A N2A 1_555 1_555
N3A C3A 1_555 1_555
C4A N1A 1_555 1_555
N4A N3A 1_555 1_555
C5A C3A 1_555 1_555
N5A C5A 1_555 1_555
C6A N5A 1_555 1_555
H1A C6A 1_555 1_555
C7A C6A 1_555 1_555
H2A C7A 1_555 1_555
C8A C7A 1_555 1_555
H3A C8A 1_555 1_555
C9A C5A 1_555 1_555
H4A C9A 1_555 1_555
C10A C4A 1_555 1_555
N6A Zn1A 1_555 1_555
C11A N6A 1_555 1_555
H5A C11A 1_555 1_555
C12A C11A 1_555 1_555
H6A C12A 1_555 1_555
C13A C12A 1_555 1_555
H7A C13A 1_555 1_555
C14A C10A 1_555 1_555
H8A C14A 1_555 1_555
N3 C4 1_555 1_555
C8 C9 1_555 1_555
C10 N6 1_555 1_555
C13 C14 1_555 1_555
C1A O1A 1_555 1_555
C1A O2A 1_555 1_555
C2A O3A 1_555 1_555
C2A O4A 1_555 1_555
N3A C4A 1_555 1_555
C8A C9A 1_555 1_555
C10A N6A 1_555 1_555
C13A C14A 1_555 1_555

#END
