
#######################################################################
#
#                 Cambridge Crystallographic Data Centre
#                                CCDC 
#
#######################################################################
#
# If this CIF has been generated from an entry in the Cambridge 
# Structural Database, then it will include bibliographic, chemical, 
# crystal, experimental, refinement or atomic coordinate data resulting 
# from the CCDC's data processing and validation procedures.
#
#######################################################################

data_NUKGIK
_symmetry_cell_setting           triclinic
_symmetry_space_group_name_H-M   'P -1'
_symmetry_Int_Tables_number      2
_space_group_name_Hall           '-P 1'
loop_
_symmetry_equiv_pos_site_id
_symmetry_equiv_pos_as_xyz
1 x,y,z
2 -x,-y,-z
_cell_length_a                   9.403(2)
_cell_length_b                   11.406(7)
_cell_length_c                   11.397(3)
_cell_angle_alpha                102.81(3)
_cell_angle_beta                 112.32(2)
_cell_angle_gamma                112.52(4)
_cell_volume                     943.191
loop_
_atom_site_label
_atom_site_type_symbol
_atom_site_fract_x
_atom_site_fract_y
_atom_site_fract_z
Fe1 Fe 0.77135(12) 0.10210(8) 0.93958(9)
C1 C 0.4287(7) -0.0260(5) 0.9225(5)
O1 O 0.4897(4) -0.0031(3) 0.8433(3)
O2 O 0.2679(5) -0.0856(4) 0.8900(3)
C2 C 0.9208(7) -0.0765(5) 0.9464(5)
O3 O 0.7716(5) -0.0913(3) 0.8775(4)
O4 O 0.9592(4) -0.1708(3) 0.9367(3)
N1 N 0.8016(5) 0.3057(4) 0.9743(4)
N2 N 0.8044(6) 0.4023(4) 1.0742(4)
C3 C 0.7707(6) 0.4858(5) 1.0174(5)
N3 N 0.7496(5) 0.4446(4) 0.8867(4)
C4 C 0.7652(7) 0.3313(5) 0.8623(5)
N4 N 0.7138(7) 0.5052(4) 0.7911(4)
C5 C 0.7520(6) 0.5990(5) 1.0863(5)
N5 N 0.6645(6) 0.6429(4) 0.9985(5)
C6 C 0.6436(8) 0.7449(5) 1.0591(6)
H1 H 0.5858 0.7786 1.0024
C7 C 0.7010(8) 0.8018(6) 1.1967(7)
H2 H 0.6802 0.8713 1.2319
C8 C 0.7894(10) 0.7577(7) 1.2848(7)
H3 H 0.8325 0.7972 1.3806
C9 C 0.8124(8) 0.6508(5) 1.2248(6)
H4 H 0.8691 0.6156 1.2802
C10 C 0.7503(7) 0.2397(5) 0.7375(5)
N6 N 0.7617(6) 0.1307(4) 0.7520(4)
C11 C 0.7490(8) 0.0399(6) 0.6471(6)
H5 H 0.7535 -0.0381 0.6554
C12 C 0.7297(9) 0.0555(6) 0.5280(7)
H6 H 0.7251 -0.0086 0.4579
C13 C 0.7172(9) 0.1684(7) 0.5138(6)
H7 H 0.7010 0.1809 0.4327
C14 C 0.7292(8) 0.2633(5) 0.6222(5)
H8 H 0.7229 0.3413 0.6161
Fe1A Fe 0.22865(12) -0.10210(8) 1.06042(9)
Fe1A_2 Fe 1.22865(12) -0.10210(8) 1.06042(9)
C1A C 0.5713(7) 0.0260(5) 1.0775(5)
O1A O 0.5103(4) 0.0031(3) 1.1567(3)
O2A O 0.7321(5) 0.0856(4) 1.1100(3)
C2A C 1.0792(7) 0.0765(5) 1.0536(5)
O3A O 1.2284(5) 0.0913(3) 1.1225(4)
O3A_2 O 0.2284(5) 0.0913(3) 1.1225(4)
O4A O 1.0408(4) 0.1708(3) 1.0633(3)
O4_2 O -0.0408(4) -0.1708(3) 0.9367(3)
N1A N 0.1984(5) -0.3057(4) 1.0257(4)
N2A N 0.1956(6) -0.4023(4) 0.9258(4)
C3A C 0.2293(6) -0.4858(5) 0.9826(5)
N3A N 0.2504(5) -0.4446(4) 1.1133(4)
C4A C 0.2348(7) -0.3313(5) 1.1377(5)
N4A N 0.2862(7) -0.5052(4) 1.2089(4)
C5A C 0.2480(6) -0.5990(5) 0.9137(5)
N5A N 0.3355(6) -0.6429(4) 1.0015(5)
C6A C 0.3564(8) -0.7449(5) 0.9409(6)
H1A H 0.4142 -0.7786 0.9976
C7A C 0.2990(8) -0.8018(6) 0.8033(7)
H2A H 0.3198 -0.8713 0.7681
C8A C 0.2106(10) -0.7577(7) 0.7152(7)
H3A H 0.1675 -0.7972 0.6194
C9A C 0.1876(8) -0.6508(5) 0.7752(6)
H4A H 0.1309 -0.6156 0.7198
C10A C 0.2497(7) -0.2397(5) 1.2625(5)
N6A N 0.2383(6) -0.1307(4) 1.2480(4)
C11A C 0.2510(8) -0.0399(6) 1.3529(6)
H5A H 0.2465 0.0381 1.3446
C12A C 0.2703(9) -0.0555(6) 1.4720(7)
H6A H 0.2749 0.0086 1.5421
C13A C 0.2828(9) -0.1684(7) 1.4862(6)
H7A H 0.2990 -0.1809 1.5673
C14A C 0.2708(8) -0.2633(5) 1.3778(5)
H8A H 0.2771 -0.3413 1.3839
O5 O -0.0218(8) -0.2139(8) 0.6163(5)
O6 O 0.1455(8) -0.4002(5) 0.6482(6)
O7 O 0.4643(6) -0.3583(4) 0.6643(4)
O8 O 0.6446(12) -0.3508(8) 0.5112(8)
loop_
_geom_bond_atom_site_label_1
_geom_bond_atom_site_label_2
_geom_bond_site_symmetry_1
_geom_bond_site_symmetry_2
Fe1 O1 1_555 1_555
C1 O1 1_555 1_555
O2 C1 1_555 1_555
C2 O3 1_555 1_555
O3 Fe1 1_555 1_555
O4 C2 1_555 1_555
N1 Fe1 1_555 1_555
N2 N1 1_555 1_555
C3 N2 1_555 1_555
N3 C3 1_555 1_555
C4 N1 1_555 1_555
N4 N3 1_555 1_555
C5 C3 1_555 1_555
N5 C5 1_555 1_555
C6 N5 1_555 1_555
H1 C6 1_555 1_555
C7 C6 1_555 1_555
H2 C7 1_555 1_555
C8 C7 1_555 1_555
H3 C8 1_555 1_555
C9 C5 1_555 1_555
H4 C9 1_555 1_555
C10 C4 1_555 1_555
N6 Fe1 1_555 1_555
C11 N6 1_555 1_555
H5 C11 1_555 1_555
C12 C11 1_555 1_555
H6 C12 1_555 1_555
C13 C12 1_555 1_555
H7 C13 1_555 1_555
C14 C10 1_555 1_555
H8 C14 1_555 1_555
Fe1A O2 1_555 1_555
Fe1A_2 O4 1_555 1_555
C1A C1 1_555 1_555
O1A Fe1A 1_555 1_555
O2A Fe1 1_555 1_555
C2A C2 1_555 1_555
O3A Fe1A_2 1_555 1_555
O3A_2 Fe1A 1_555 1_555
O4A Fe1 1_555 1_555
O4_2 Fe1A 1_555 1_555
N1A Fe1A 1_555 1_555
N2A N1A 1_555 1_555
C3A N2A 1_555 1_555
N3A C3A 1_555 1_555
C4A N1A 1_555 1_555
N4A N3A 1_555 1_555
C5A C3A 1_555 1_555
N5A C5A 1_555 1_555
C6A N5A 1_555 1_555
H1A C6A 1_555 1_555
C7A C6A 1_555 1_555
H2A C7A 1_555 1_555
C8A C7A 1_555 1_555
H3A C8A 1_555 1_555
C9A C5A 1_555 1_555
H4A C9A 1_555 1_555
C10A C4A 1_555 1_555
N6A Fe1A 1_555 1_555
C11A N6A 1_555 1_555
H5A C11A 1_555 1_555
C12A C11A 1_555 1_555
H6A C12A 1_555 1_555
C13A C12A 1_555 1_555
H7A C13A 1_555 1_555
C14A C10A 1_555 1_555
H8A C14A 1_555 1_555
N3 C4 1_555 1_555
C8 C9 1_555 1_555
C10 N6 1_555 1_555
C13 C14 1_555 1_555
C1A O1A 1_555 1_555
C1A O2A 1_555 1_555
C2A O3A 1_555 1_555
C2A O4A 1_555 1_555
N3A C4A 1_555 1_555
C8A C9A 1_555 1_555
C10A N6A 1_555 1_555
C13A C14A 1_555 1_555

#END
