
#######################################################################
#
#                 Cambridge Crystallographic Data Centre
#                                CCDC 
#
#######################################################################
#
# If this CIF has been generated from an entry in the Cambridge 
# Structural Database, then it will include bibliographic, chemical, 
# crystal, experimental, refinement or atomic coordinate data resulting 
# from the CCDC's data processing and validation procedures.
#
#######################################################################

data_NUKHAD
_symmetry_cell_setting           monoclinic
_symmetry_space_group_name_H-M   'P 21/c'
_symmetry_Int_Tables_number      14
_space_group_name_Hall           '-P 2ybc'
loop_
_symmetry_equiv_pos_site_id
_symmetry_equiv_pos_as_xyz
1 x,y,z
2 -x,1/2+y,1/2-z
3 -x,-y,-z
4 x,1/2-y,1/2+z
_cell_length_a                   11.2284(11)
_cell_length_b                   17.8717(17)
_cell_length_c                   7.1353(7)
_cell_angle_alpha                90
_cell_angle_beta                 106.615(2)
_cell_angle_gamma                90
_cell_volume                     1372.06
loop_
_atom_site_label
_atom_site_type_symbol
_atom_site_fract_x
_atom_site_fract_y
_atom_site_fract_z
Cu1 Cu 0.50022(4) 0.93716(3) 0.58954(7)
O1 O 0.6359(3) 0.90471(18) 0.4863(5)
O2 O 0.6324(3) 1.01263(16) 0.3286(4)
O3 O 0.6217(3) 0.98180(16) -0.1838(4)
O4 O 0.6192(3) 1.08985(18) -0.3402(4)
O5 O 0.4580(4) 0.8336(2) 0.7225(5)
H1 H 0.397(6) 0.840(4) 0.754(10)
C1 C 0.6714(4) 0.9482(2) 0.3741(6)
C2 C 0.7653(4) 0.9163(2) 0.2800(6)
C3 C 0.7932(4) 0.8410(3) 0.3015(7)
H2 H 0.7604 0.8123 0.3835
C4 C 0.8686(4) 0.8075(3) 0.2040(7)
H3 H 0.8856 0.7566 0.2192
C5 C 0.9184(5) 0.8493(3) 0.0849(8)
H4 H 0.9696 0.8270 0.0190
C6 C 0.8927(4) 0.9244(3) 0.0627(7)
H5 H 0.9263 0.9522 -0.0198
C7 C 0.8175(4) 0.9601(2) 0.1606(6)
C8 C 0.8087(4) 1.0441(2) 0.1493(6)
C9 C 0.8810(4) 1.0843(3) 0.3094(7)
H6 H 0.9290 1.0582 0.4175
C10 C 0.8835(4) 1.1603(3) 0.3123(7)
H7 H 0.9327 1.1853 0.4214
C11 C 0.8134(4) 1.2006(3) 0.1540(7)
H8 H 0.8136 1.2526 0.1564
C12 C 0.7429(4) 1.1623(3) -0.0078(6)
H9 H 0.6977 1.1892 -0.1166
C13 C 0.7379(4) 1.0846(2) -0.0120(6)
C14 C 0.6538(4) 1.0485(2) -0.1935(6)
C15 C 0.5435(6) 0.8027(4) 0.8856(9)
H10 H 0.5388 0.8285 1.0013
H11 H 0.6258 0.8076 0.8722
H12 H 0.5249 0.7507 0.8958
Cu1B Cu 0.49978(4) 1.06284(3) 0.41046(7)
Cu1_2 Cu 0.50022(4) 0.93716(3) -0.41046(7)
Cu1B_2 Cu 0.49978(4) 1.06284(3) -0.58954(7)
O2B O 0.3676(3) 0.98737(16) 0.6714(4)
O3_2 O 0.6217(3) 0.98180(16) 0.8162(4)
O4B O 0.3808(3) 0.91015(18) 0.3402(4)
loop_
_geom_bond_atom_site_label_1
_geom_bond_atom_site_label_2
_geom_bond_site_symmetry_1
_geom_bond_site_symmetry_2
Cu1 O1 1_555 1_555
O1 C1 1_555 1_555
O2 C1 1_555 1_555
O3 C14 1_555 1_555
O4 C14 1_555 1_555
O5 Cu1 1_555 1_555
H1 O5 1_555 1_555
C1 C2 1_555 1_555
C2 C3 1_555 1_555
C3 H2 1_555 1_555
C4 C3 1_555 1_555
H3 C4 1_555 1_555
C5 C4 1_555 1_555
H4 C5 1_555 1_555
C6 C5 1_555 1_555
H5 C6 1_555 1_555
C7 C2 1_555 1_555
C8 C7 1_555 1_555
C9 C8 1_555 1_555
H6 C9 1_555 1_555
C10 C9 1_555 1_555
H7 C10 1_555 1_555
C11 C10 1_555 1_555
H8 C11 1_555 1_555
C12 C11 1_555 1_555
H9 C12 1_555 1_555
C13 C8 1_555 1_555
C14 C13 1_555 1_555
C15 O5 1_555 1_555
H10 C15 1_555 1_555
H11 C15 1_555 1_555
H12 C15 1_555 1_555
Cu1B Cu1 1_555 1_555
Cu1_2 O3 1_555 1_555
Cu1B_2 O4 1_555 1_555
O2B Cu1 1_555 1_555
O3_2 Cu1 1_555 1_555
O4B Cu1 1_555 1_555
O2 Cu1B 1_555 1_555
C6 C7 1_555 1_555
C12 C13 1_555 1_555
Cu1_2 Cu1B_2 1_555 1_555

#END
