
#######################################################################
#
#                 Cambridge Crystallographic Data Centre
#                                CCDC 
#
#######################################################################
#
# If this CIF has been generated from an entry in the Cambridge 
# Structural Database, then it will include bibliographic, chemical, 
# crystal, experimental, refinement or atomic coordinate data resulting 
# from the CCDC's data processing and validation procedures.
#
#######################################################################

data_NUKHOR
_symmetry_cell_setting           monoclinic
_symmetry_space_group_name_H-M   'P 2/c'
_symmetry_Int_Tables_number      13
_space_group_name_Hall           '-P 2yc'
loop_
_symmetry_equiv_pos_site_id
_symmetry_equiv_pos_as_xyz
1 x,y,z
2 -x,y,1/2-z
3 -x,-y,-z
4 x,-y,1/2+z
_cell_length_a                   13.5732(13)
_cell_length_b                   11.0430(10)
_cell_length_c                   11.9086(11)
_cell_angle_alpha                90
_cell_angle_beta                 112.059(2)
_cell_angle_gamma                90
_cell_volume                     1654.3
loop_
_atom_site_label
_atom_site_type_symbol
_atom_site_fract_x
_atom_site_fract_y
_atom_site_fract_z
Ni1 Ni 1.0000 0.72092(4) 0.2500
O1 O 0.84184(17) 0.73091(18) 0.1806(2)
O2 O 0.8133(2) 0.6266(2) 0.0117(2)
O3 O 0.6804(2) 0.5749(2) 0.2819(2)
O4 O 0.7998(2) 0.6113(2) 0.4644(2)
H1 H 0.7976 0.5374 0.4697
O5 O 1.0046(2) 0.7189(2) 0.0491(2)
H2 H 0.9545 0.6789 0.0038
H3 H 1.0628 0.6874 0.0526
N1 N 1.0000 0.5392(3) 0.2500
N2 N 1.0000 -0.0996(3) 0.2500
C1 C 0.7805(3) 0.6846(3) 0.0815(3)
C2 C 0.6631(3) 0.6982(3) 0.0473(3)
C3 C 0.5974(3) 0.6402(4) -0.0578(3)
H4 H 0.6284 0.5981 -0.1037
C4 C 0.4889(3) 0.6427(4) -0.0964(4)
H5 H 0.4473 0.5999 -0.1652
C5 C 0.4423(3) 0.7091(5) -0.0324(4)
H6 H 0.3687 0.7133 -0.0587
C6 C 0.5048(3) 0.7693(4) 0.0703(4)
H7 H 0.4722 0.8153 0.1120
C7 C 0.6153(3) 0.7639(3) 0.1146(3)
C8 C 0.6700(3) 0.8343(3) 0.2295(3)
C9 C 0.6582(3) 0.9588(3) 0.2244(4)
H8 H 0.6241 0.9957 0.1496
C10 C 0.6957(4) 1.0300(4) 0.3275(4)
H9 H 0.6854 1.1134 0.3217
C11 C 0.7482(3) 0.9771(4) 0.4383(4)
H10 H 0.7750 1.0247 0.5077
C12 C 0.7609(3) 0.8534(3) 0.4463(3)
H11 H 0.7962 0.8179 0.5216
C13 C 0.7219(3) 0.7808(3) 0.3438(3)
C14 C 0.7296(3) 0.6469(3) 0.3571(3)
C15 C 0.9209(3) 0.4761(3) 0.2635(3)
H12 H 0.8652 0.5185 0.2726
C16 C 0.9183(3) 0.3517(3) 0.2644(3)
H13 H 0.8620 0.3116 0.2746
C17 C 1.0000 0.2862(4) 0.2500
C18 C 1.0000 0.1518(4) 0.2500
C19 C 0.9520(3) 0.0870(3) 0.3154(3)
H14 H 0.9200 0.1272 0.3614
C20 C 0.9523(3) -0.0376(3) 0.3111(3)
H15 H 0.9176 -0.0803 0.3528
Ni1_2 Ni 1.0000 -0.27908(4) 0.2500
O1A O 1.15816(17) 0.73091(18) 0.3194(2)
O2A O 1.1867(2) 0.6266(2) 0.4883(2)
O3A O 1.3196(2) 0.5749(2) 0.2181(2)
O4A O 1.2002(2) 0.6113(2) 0.0356(2)
H1A H 1.2024 0.5374 0.0303
O5A O 0.9954(2) 0.7189(2) 0.4509(2)
H2A H 1.0455 0.6789 0.4962
H3A H 0.9372 0.6874 0.4474
N2_2 N 1.0000 0.9004(3) 0.2500
C1A C 1.2195(3) 0.6846(3) 0.4185(3)
C2A C 1.3369(3) 0.6982(3) 0.4527(3)
C3A C 1.4026(3) 0.6402(4) 0.5578(3)
H4A H 1.3716 0.5981 0.6037
C4A C 1.5111(3) 0.6427(4) 0.5964(4)
H5A H 1.5527 0.5999 0.6652
C5A C 1.5577(3) 0.7091(5) 0.5324(4)
H6A H 1.6313 0.7133 0.5587
C6A C 1.4952(3) 0.7693(4) 0.4297(4)
H7A H 1.5278 0.8153 0.3880
C7A C 1.3847(3) 0.7639(3) 0.3854(3)
C8A C 1.3300(3) 0.8343(3) 0.2705(3)
C9A C 1.3418(3) 0.9588(3) 0.2756(4)
H8A H 1.3759 0.9957 0.3504
C10A C 1.3043(4) 1.0300(4) 0.1725(4)
H9A H 1.3146 1.1134 0.1783
C11A C 1.2518(3) 0.9771(4) 0.0617(4)
H10A H 1.2250 1.0247 -0.0077
C12A C 1.2391(3) 0.8534(3) 0.0537(3)
H11A H 1.2038 0.8179 -0.0216
C13A C 1.2781(3) 0.7808(3) 0.1562(3)
C14A C 1.2704(3) 0.6469(3) 0.1429(3)
C15A C 1.0791(3) 0.4761(3) 0.2365(3)
H12A H 1.1348 0.5185 0.2274
C16A C 1.0817(3) 0.3517(3) 0.2356(3)
H13A H 1.1380 0.3116 0.2254
C19A C 1.0480(3) 0.0870(3) 0.1846(3)
H14A H 1.0800 0.1272 0.1386
C20A C 1.0477(3) -0.0376(3) 0.1889(3)
H15A H 1.0824 -0.0803 0.1472
loop_
_geom_bond_atom_site_label_1
_geom_bond_atom_site_label_2
_geom_bond_site_symmetry_1
_geom_bond_site_symmetry_2
Ni1 O1 1_555 1_555
O1 C1 1_555 1_555
O2 C1 1_555 1_555
O3 C14 1_555 1_555
O4 H1 1_555 1_555
O5 Ni1 1_555 1_555
H2 O5 1_555 1_555
H3 O5 1_555 1_555
N1 Ni1 1_555 1_555
N2 C20 1_555 1_555
C1 C2 1_555 1_555
C2 C3 1_555 1_555
C3 H4 1_555 1_555
C4 C3 1_555 1_555
H5 C4 1_555 1_555
C5 C4 1_555 1_555
H6 C5 1_555 1_555
C6 C5 1_555 1_555
H7 C6 1_555 1_555
C7 C2 1_555 1_555
C8 C7 1_555 1_555
C9 C8 1_555 1_555
H8 C9 1_555 1_555
C10 C9 1_555 1_555
H9 C10 1_555 1_555
C11 C10 1_555 1_555
H10 C11 1_555 1_555
C12 C11 1_555 1_555
H11 C12 1_555 1_555
C13 C8 1_555 1_555
C14 O4 1_555 1_555
C15 N1 1_555 1_555
H12 C15 1_555 1_555
C16 C15 1_555 1_555
H13 C16 1_555 1_555
C17 C16 1_555 1_555
C18 C17 1_555 1_555
C19 C18 1_555 1_555
H14 C19 1_555 1_555
C20 C19 1_555 1_555
H15 C20 1_555 1_555
Ni1_2 N2 1_555 1_555
O1A Ni1 1_555 1_555
O2A C1A 1_555 1_555
O3A C14A 1_555 1_555
O4A H1A 1_555 1_555
O5A Ni1 1_555 1_555
H2A O5A 1_555 1_555
H3A O5A 1_555 1_555
N2_2 Ni1 1_555 1_555
C1A O1A 1_555 1_555
C2A C1A 1_555 1_555
C3A C2A 1_555 1_555
H4A C3A 1_555 1_555
C4A C3A 1_555 1_555
H5A C4A 1_555 1_555
C5A C4A 1_555 1_555
H6A C5A 1_555 1_555
C6A C5A 1_555 1_555
H7A C6A 1_555 1_555
C7A C2A 1_555 1_555
C8A C7A 1_555 1_555
C9A C8A 1_555 1_555
H8A C9A 1_555 1_555
C10A C9A 1_555 1_555
H9A C10A 1_555 1_555
C11A C10A 1_555 1_555
H10A C11A 1_555 1_555
C12A C11A 1_555 1_555
H11A C12A 1_555 1_555
C13A C8A 1_555 1_555
C14A O4A 1_555 1_555
C15A N1 1_555 1_555
H12A C15A 1_555 1_555
C16A C17 1_555 1_555
H13A C16A 1_555 1_555
C19A C18 1_555 1_555
H14A C19A 1_555 1_555
C20A N2 1_555 1_555
H15A C20A 1_555 1_555
C6 C7 1_555 1_555
C12 C13 1_555 1_555
C13 C14 1_555 1_555
C6A C7A 1_555 1_555
C12A C13A 1_555 1_555
C13A C14A 1_555 1_555
C15A C16A 1_555 1_555
C19A C20A 1_555 1_555

#END
