
#######################################################################
#
#                 Cambridge Crystallographic Data Centre
#                                CCDC 
#
#######################################################################
#
# If this CIF has been generated from an entry in the Cambridge 
# Structural Database, then it will include bibliographic, chemical, 
# crystal, experimental, refinement or atomic coordinate data resulting 
# from the CCDC's data processing and validation procedures.
#
#######################################################################

data_NUKNOX
_symmetry_cell_setting           triclinic
_symmetry_space_group_name_H-M   'P -1'
_symmetry_Int_Tables_number      2
_space_group_name_Hall           '-P 1'
loop_
_symmetry_equiv_pos_site_id
_symmetry_equiv_pos_as_xyz
1 x,y,z
2 -x,-y,-z
_cell_length_a                   7.7580(9)
_cell_length_b                   9.6172(11)
_cell_length_c                   11.6394(14)
_cell_angle_alpha                85.0730(10)
_cell_angle_beta                 81.5130(10)
_cell_angle_gamma                70.6830(10)
_cell_volume                     809.915
loop_
_atom_site_label
_atom_site_type_symbol
_atom_site_fract_x
_atom_site_fract_y
_atom_site_fract_z
Pb1 Pb 0.539631(15) 0.436190(14) 0.181496(10)
C1 C 0.5759(5) 0.1986(5) 0.4226(4)
H1 H 0.6637 0.1401 0.3679
C2 C 0.5564(6) 0.1413(5) 0.5367(4)
H2 H 0.6327 0.0481 0.5574
C3 C 0.4242(6) 0.2236(5) 0.6172(4)
H3 H 0.4065 0.1856 0.6926
C4 C 0.3154(5) 0.3659(4) 0.5852(3)
C5 C 0.1734(6) 0.4576(5) 0.6658(3)
H4 H 0.1497 0.4224 0.7414
C6 C 0.0746(6) 0.5952(5) 0.6315(4)
H5 H -0.0137 0.6547 0.6853
C7 C 0.1013(5) 0.6515(4) 0.5161(4)
C8 C 0.0007(6) 0.7958(5) 0.4774(5)
H6 H -0.0861 0.8595 0.5293
C9 C 0.0313(7) 0.8407(5) 0.3647(5)
H7 H -0.0374 0.9336 0.3380
C10 C 0.1675(6) 0.7453(4) 0.2892(4)
H8 H 0.1892 0.7779 0.2126
C11 C 0.2365(5) 0.5642(4) 0.4331(3)
C12 C 0.3436(4) 0.4172(4) 0.4695(3)
C13 C 0.2132(5) 0.4592(4) 0.0804(3)
C14 C 0.0470(5) 0.4485(4) 0.0357(3)
H9 H 0.0084 0.3673 0.0586
C15 C 0.8245(5) 0.1251(4) 0.1155(3)
C16 C 0.9141(6) 0.0142(4) 0.0233(4)
H10 H 0.8443 -0.0367 -0.0019
N1 N 0.4753(4) 0.3319(3) 0.3889(3)
N2 N 0.2670(4) 0.6109(3) 0.3216(3)
O1 O 0.2806(4) 0.5585(3) 0.0427(2)
O2 O 0.2811(4) 0.3643(3) 0.1584(3)
O3 O 0.6479(4) 0.1781(3) 0.1234(3)
O4 O 0.9164(4) 0.1619(4) 0.1780(3)
Pb1A Pb -0.539631(15) 0.563810(14) -0.181496(10)
Pb1A_2 Pb 0.460369(15) 0.563810(14) -0.181496(10)
Pb1_2 Pb -0.460369(15) 0.436190(14) 0.181496(10)
Pb1A_3 Pb 1.460369(15) -0.436190(14) -0.181496(10)
C1A C -0.5759(5) 0.8014(5) -0.4226(4)
H1A H -0.6637 0.8599 -0.3679
C2A C -0.5564(6) 0.8587(5) -0.5367(4)
H2A H -0.6327 0.9519 -0.5574
C3A C -0.4242(6) 0.7764(5) -0.6172(4)
H3A H -0.4065 0.8144 -0.6926
C4A C -0.3154(5) 0.6341(4) -0.5852(3)
C5A C -0.1734(6) 0.5424(5) -0.6658(3)
H4A H -0.1497 0.5776 -0.7414
C6A C -0.0746(6) 0.4048(5) -0.6315(4)
H5A H 0.0137 0.3453 -0.6853
C7A C -0.1013(5) 0.3485(4) -0.5161(4)
C8A C -0.0007(6) 0.2042(5) -0.4774(5)
H6A H 0.0861 0.1405 -0.5293
C9A C -0.0313(7) 0.1593(5) -0.3647(5)
H7A H 0.0374 0.0664 -0.3380
C10A C -0.1675(6) 0.2547(4) -0.2892(4)
H8A H -0.1892 0.2221 -0.2126
C11A C -0.2365(5) 0.4358(4) -0.4331(3)
C12A C -0.3436(4) 0.5828(4) -0.4695(3)
C13A C -0.2132(5) 0.5408(4) -0.0804(3)
C14A C -0.0470(5) 0.5515(4) -0.0357(3)
H9A H -0.0084 0.6327 -0.0586
C15A C 1.1755(5) -0.1251(4) -0.1155(3)
C16A C 1.0859(6) -0.0142(4) -0.0233(4)
H10A H 1.1557 0.0367 0.0019
N1A N -0.4753(4) 0.6681(3) -0.3889(3)
N2A N -0.2670(4) 0.3891(3) -0.3216(3)
O1A O -0.2806(4) 0.4415(3) -0.0427(2)
O1A_2 O 0.7194(4) 0.4415(3) -0.0427(2)
O1_2 O -0.7194(4) 0.5585(3) 0.0427(2)
O2A O -0.2811(4) 0.6357(3) -0.1584(3)
O3A O 1.3521(4) -0.1781(3) -0.1234(3)
O3A_2 O -0.6479(4) 0.8219(3) -0.1234(3)
O4A O 1.0836(4) -0.1619(4) -0.1780(3)
O5 O 0.7029(6) 0.9442(4) 0.7802(4)
H11 H 0.7960 0.9190 0.8159
H12 H 0.6632 0.8710 0.7911
O6 O 0.5239(6) 0.7879(6) 0.0952(4)
H13 H 0.4880 0.8013 0.0282
H14 H 0.5740 0.8495 0.0648
loop_
_geom_bond_atom_site_label_1
_geom_bond_atom_site_label_2
_geom_bond_site_symmetry_1
_geom_bond_site_symmetry_2
Pb1 N1 1_555 1_555
C1 H1 1_555 1_555
C2 C1 1_555 1_555
H2 C2 1_555 1_555
C3 C2 1_555 1_555
H3 C3 1_555 1_555
C4 C3 1_555 1_555
C5 C4 1_555 1_555
H4 C5 1_555 1_555
C6 C5 1_555 1_555
H5 C6 1_555 1_555
C7 C6 1_555 1_555
C8 C7 1_555 1_555
H6 C8 1_555 1_555
C9 C8 1_555 1_555
H7 C9 1_555 1_555
C10 C9 1_555 1_555
H8 C10 1_555 1_555
C11 C7 1_555 1_555
C12 C4 1_555 1_555
C13 C14 1_555 1_555
C14 H9 1_555 1_555
C15 C16 1_555 1_555
C16 H10 1_555 1_555
N1 C1 1_555 1_555
N2 Pb1 1_555 1_555
O1 Pb1 1_555 1_555
O2 Pb1 1_555 1_555
O3 Pb1 1_555 1_555
O4 C15 1_555 1_555
O5 H11 1_555 1_555
H12 O5 1_555 1_555
O6 H13 1_555 1_555
H14 O6 1_555 1_555
Pb1A N1A 1_555 1_555
Pb1A_2 O1 1_555 1_555
Pb1_2 O1A 1_555 1_555
Pb1A_3 O3A 1_555 1_555
C1A H1A 1_555 1_555
C2A C1A 1_555 1_555
H2A C2A 1_555 1_555
C3A C2A 1_555 1_555
H3A C3A 1_555 1_555
C4A C3A 1_555 1_555
C5A C4A 1_555 1_555
H4A C5A 1_555 1_555
C6A C5A 1_555 1_555
H5A C6A 1_555 1_555
C7A C6A 1_555 1_555
C8A C7A 1_555 1_555
H6A C8A 1_555 1_555
C9A C8A 1_555 1_555
H7A C9A 1_555 1_555
C10A C9A 1_555 1_555
H8A C10A 1_555 1_555
C11A C7A 1_555 1_555
C12A C4A 1_555 1_555
C13A C14A 1_555 1_555
C14A C14 1_555 1_555
H9A C14A 1_555 1_555
C15A C16A 1_555 1_555
C16A C16 1_555 1_555
H10A C16A 1_555 1_555
N1A C1A 1_555 1_555
N2A Pb1A 1_555 1_555
O1A Pb1A 1_555 1_555
O1A_2 Pb1 1_555 1_555
O1_2 Pb1A 1_555 1_555
O2A Pb1A 1_555 1_555
O3A C15A 1_555 1_555
O3A_2 Pb1A 1_555 1_555
O4A C15A 1_555 1_555
C10 N2 1_555 1_555
C11 C12 1_555 1_555
C11 N2 1_555 1_555
C12 N1 1_555 1_555
C13 O1 1_555 1_555
C13 O2 1_555 1_555
C15 O3 1_555 1_555
Pb1A_2 O1A_2 1_555 1_555
Pb1_2 O1_2 1_555 1_555
C10A N2A 1_555 1_555
C11A C12A 1_555 1_555
C11A N2A 1_555 1_555
C12A N1A 1_555 1_555
C13A O1A 1_555 1_555
C13A O2A 1_555 1_555

#END
