
#######################################################################
#
#                 Cambridge Crystallographic Data Centre
#                                CCDC 
#
#######################################################################
#
# If this CIF has been generated from an entry in the Cambridge 
# Structural Database, then it will include bibliographic, chemical, 
# crystal, experimental, refinement or atomic coordinate data resulting 
# from the CCDC's data processing and validation procedures.
#
#######################################################################

data_NUKNOX01
_symmetry_cell_setting           triclinic
_symmetry_space_group_name_H-M   'P -1'
_symmetry_Int_Tables_number      2
_space_group_name_Hall           '-P 1'
loop_
_symmetry_equiv_pos_site_id
_symmetry_equiv_pos_as_xyz
1 x,y,z
2 -x,-y,-z
_cell_length_a                   7.70980(10)
_cell_length_b                   9.5238(2)
_cell_length_c                   11.5987(2)
_cell_angle_alpha                85.4070(10)
_cell_angle_beta                 81.6780(10)
_cell_angle_gamma                71.1840(10)
_cell_volume                     797.144
loop_
_atom_site_label
_atom_site_type_symbol
_atom_site_fract_x
_atom_site_fract_y
_atom_site_fract_z
Pb1 Pb 0.04077(3) 0.43724(2) 0.18177(2)
N1 N -0.0231(8) 0.3324(6) 0.3882(6)
N2 N -0.2312(8) 0.6120(6) 0.3214(6)
C1 C 0.0776(11) 0.1979(8) 0.4232(8)
H1 H 0.164(12) 0.140(9) 0.352(8)
C2 C 0.0555(11) 0.1421(8) 0.5370(8)
H2 H 0.144(12) 0.032(9) 0.552(8)
C3 C -0.0748(11) 0.2227(8) 0.6171(8)
H3 H -0.097(11) 0.183(9) 0.700(8)
C4 C -0.1862(10) 0.3653(8) 0.5849(7)
C5 C -0.3260(11) 0.4581(9) 0.6652(8)
H4 H -0.352(13) 0.429(10) 0.729(9)
C6 C -0.4313(11) 0.5976(8) 0.6314(8)
H5 H -0.508(12) 0.675(10) 0.693(8)
C7 C -0.3979(10) 0.6521(7) 0.5154(8)
C8 C -0.5007(11) 0.7974(8) 0.4776(9)
H6 H -0.577(13) 0.858(10) 0.531(9)
C9 C -0.4670(12) 0.8424(8) 0.3644(10)
H7 H -0.514(13) 0.935(11) 0.334(9)
C10 C -0.3338(11) 0.7472(8) 0.2891(8)
H8 H -0.290(12) 0.775(9) 0.200(9)
C11 C -0.2648(9) 0.5650(7) 0.4327(7)
C12 C -0.1565(9) 0.4182(7) 0.4696(7)
O1 O -0.2195(7) 0.3645(5) 0.1587(5)
O2 O -0.2182(7) 0.5604(5) 0.0433(5)
C13 C -0.2843(10) 0.4595(7) 0.0801(7)
C14 C -0.4503(11) 0.4472(8) 0.0336(8)
H9 H -0.486(11) 0.362(10) 0.0578
O3 O 0.1461(7) 0.1784(5) 0.1226(6)
O4 O 0.4147(8) 0.1613(6) 0.1799(5)
C15 C 0.3196(11) 0.1242(8) 0.1167(7)
C16 C 0.4116(11) 0.0120(8) 0.0250(8)
H10 H 0.339(11) -0.044(9) -0.001(8)
Pb1A Pb -1.04077(3) 0.56276(2) -0.18177(2)
Pb1A_2 Pb -0.04077(3) 0.56276(2) -0.18177(2)
Pb1_2 Pb -0.95923(3) 0.43724(2) 0.18177(2)
Pb1A_3 Pb 0.95923(3) -0.43724(2) -0.18177(2)
N1A N -0.9769(8) 0.6676(6) -0.3882(6)
N2A N -0.7688(8) 0.3880(6) -0.3214(6)
C1A C -1.0776(11) 0.8021(8) -0.4232(8)
H1A H -1.164(12) 0.860(9) -0.352(8)
C2A C -1.0555(11) 0.8579(8) -0.5370(8)
H2A H -1.144(12) 0.968(9) -0.552(8)
C3A C -0.9252(11) 0.7773(8) -0.6171(8)
H3A H -0.903(11) 0.817(9) -0.700(8)
C4A C -0.8138(10) 0.6347(8) -0.5849(7)
C5A C -0.6740(11) 0.5419(9) -0.6652(8)
H4A H -0.648(13) 0.571(10) -0.729(9)
C6A C -0.5687(11) 0.4024(8) -0.6314(8)
H5A H -0.492(12) 0.325(10) -0.693(8)
C7A C -0.6021(10) 0.3479(7) -0.5154(8)
C8A C -0.4993(11) 0.2026(8) -0.4776(9)
H6A H -0.423(13) 0.142(10) -0.531(9)
C9A C -0.5330(12) 0.1576(8) -0.3644(10)
H7A H -0.486(13) 0.065(11) -0.334(9)
C10A C -0.6662(11) 0.2528(8) -0.2891(8)
H8A H -0.710(12) 0.225(9) -0.200(9)
C11A C -0.7352(9) 0.4350(7) -0.4327(7)
C12A C -0.8435(9) 0.5818(7) -0.4696(7)
O1A O -0.7805(7) 0.6355(5) -0.1587(5)
O2A O -0.7818(7) 0.4396(5) -0.0433(5)
O2A_2 O 0.2182(7) 0.4396(5) -0.0433(5)
O2_2 O -1.2182(7) 0.5604(5) 0.0433(5)
C13A C -0.7157(10) 0.5405(7) -0.0801(7)
C14A C -0.5497(11) 0.5528(8) -0.0336(8)
H9A H -0.514(11) 0.638(10) -0.0578
O3A O 0.8539(7) -0.1784(5) -0.1226(6)
O3A_2 O -1.1461(7) 0.8216(5) -0.1226(6)
O4A O 0.5853(8) -0.1613(6) -0.1799(5)
C15A C 0.6804(11) -0.1242(8) -0.1167(7)
C16A C 0.5884(11) -0.0120(8) -0.0250(8)
H10A H 0.661(11) 0.044(9) 0.001(8)
O5 O 0.7949(9) 0.0573(6) 0.2208(6)
H11 H 0.835(11) 0.128(7) 0.207(9)
H12 H 0.692(7) 0.082(9) 0.198(9)
O6 O 1.0245(11) -0.2054(8) 0.0932(7)
H13 H 0.973(16) -0.200(11) 0.035(7)
H14 H 1.024(17) -0.122(5) 0.106(10)
loop_
_geom_bond_atom_site_label_1
_geom_bond_atom_site_label_2
_geom_bond_site_symmetry_1
_geom_bond_site_symmetry_2
Pb1 N1 1_555 1_555
N1 C1 1_555 1_555
N2 Pb1 1_555 1_555
C1 H1 1_555 1_555
C2 C1 1_555 1_555
H2 C2 1_555 1_555
C3 C2 1_555 1_555
H3 C3 1_555 1_555
C4 C3 1_555 1_555
C5 C4 1_555 1_555
H4 C5 1_555 1_555
C6 C5 1_555 1_555
H5 C6 1_555 1_555
C7 C6 1_555 1_555
C8 C7 1_555 1_555
H6 C8 1_555 1_555
C9 C8 1_555 1_555
H7 C9 1_555 1_555
C10 N2 1_555 1_555
H8 C10 1_555 1_555
C11 N2 1_555 1_555
C12 N1 1_555 1_555
O1 Pb1 1_555 1_555
O2 Pb1 1_555 1_555
C13 O1 1_555 1_555
C14 C13 1_555 1_555
H9 C14 1_555 1_555
O3 Pb1 1_555 1_555
O4 C15 1_555 1_555
C15 O3 1_555 1_555
C16 C15 1_555 1_555
H10 C16 1_555 1_555
O5 H11 1_555 1_555
H12 O5 1_555 1_555
O6 H13 1_555 1_555
H14 O6 1_555 1_555
Pb1A N1A 1_555 1_555
Pb1A_2 O2 1_555 1_555
Pb1_2 O2A 1_555 1_555
Pb1A_3 O3A 1_555 1_555
N1A C1A 1_555 1_555
N2A Pb1A 1_555 1_555
C1A H1A 1_555 1_555
C2A C1A 1_555 1_555
H2A C2A 1_555 1_555
C3A C2A 1_555 1_555
H3A C3A 1_555 1_555
C4A C3A 1_555 1_555
C5A C4A 1_555 1_555
H4A C5A 1_555 1_555
C6A C5A 1_555 1_555
H5A C6A 1_555 1_555
C7A C6A 1_555 1_555
C8A C7A 1_555 1_555
H6A C8A 1_555 1_555
C9A C8A 1_555 1_555
H7A C9A 1_555 1_555
C10A N2A 1_555 1_555
H8A C10A 1_555 1_555
C11A N2A 1_555 1_555
C12A N1A 1_555 1_555
O1A Pb1A 1_555 1_555
O2A Pb1A 1_555 1_555
O2A_2 Pb1 1_555 1_555
O2_2 Pb1A 1_555 1_555
C13A O1A 1_555 1_555
C14A C14 1_555 1_555
H9A C14A 1_555 1_555
O3A C15A 1_555 1_555
O3A_2 Pb1A 1_555 1_555
O4A C15A 1_555 1_555
C15A C16A 1_555 1_555
C16A C16 1_555 1_555
H10A C16A 1_555 1_555
C4 C12 1_555 1_555
C7 C11 1_555 1_555
C9 C10 1_555 1_555
C11 C12 1_555 1_555
O2 C13 1_555 1_555
Pb1A_2 O2A_2 1_555 1_555
Pb1_2 O2_2 1_555 1_555
C4A C12A 1_555 1_555
C7A C11A 1_555 1_555
C9A C10A 1_555 1_555
C11A C12A 1_555 1_555
O2A C13A 1_555 1_555
C13A C14A 1_555 1_555

#END
