
#######################################################################
#
#                 Cambridge Crystallographic Data Centre
#                                CCDC 
#
#######################################################################
#
# If this CIF has been generated from an entry in the Cambridge 
# Structural Database, then it will include bibliographic, chemical, 
# crystal, experimental, refinement or atomic coordinate data resulting 
# from the CCDC's data processing and validation procedures.
#
#######################################################################

data_NUKNEN
_symmetry_cell_setting           monoclinic
_symmetry_space_group_name_H-M   'P 21'
_symmetry_Int_Tables_number      4
_space_group_name_Hall           'P 2yb'
loop_
_symmetry_equiv_pos_site_id
_symmetry_equiv_pos_as_xyz
1 x,y,z
2 -x,1/2+y,-z
_cell_length_a                   9.822(5)
_cell_length_b                   5.298(5)
_cell_length_c                   16.493(5)
_cell_angle_alpha                90
_cell_angle_beta                 98.838(5)
_cell_angle_gamma                90
_cell_volume                     848.055
loop_
_atom_site_label
_atom_site_type_symbol
_atom_site_fract_x
_atom_site_fract_y
_atom_site_fract_z
Cu1 Cu 0.93621(9) 0.75048(18) 0.29408(5)
Cu2 Cu 0.96303(9) 0.28268(17) 0.21894(5)
O1 O 1.7602(6) 0.9748(12) 0.4451(4)
O2 O 0.1705(5) 0.7092(11) 0.0282(3)
O3 O 1.1223(6) 0.8411(12) 0.3364(4)
O4 O 1.9398(6) 1.5152(12) 0.3859(3)
O5 O 0.7479(6) 0.6666(12) 0.2557(4)
O6 O 0.7814(6) 0.3685(12) 0.1629(4)
O7 O 0.0448(6) 0.5008(11) 0.1432(4)
O8 O 1.1491(6) 1.2095(11) 0.2712(4)
C1 C 0.0741(8) 0.8645(16) 0.0635(5)
H1 H -0.0046 0.9011 0.0220
H2 H 0.1178 1.0234 0.0815
O9 O 1.8844(6) 1.1584(10) 0.3164(3)
C2 C 1.5696(8) 1.2077(16) 0.3633(5)
H3 H 1.6262 1.3394 0.3516
C3 C 0.3724(8) 0.4686(16) 0.0485(5)
H4 H 0.3327 0.3675 0.0051
C4 C 1.4296(8) 1.2122(15) 0.3334(5)
H5 H 1.3930 1.3476 0.3014
C5 C 0.5634(9) 0.5676(15) 0.1527(5)
C6 C 1.3428(8) 1.0177(15) 0.3505(5)
C7 C 1.3980(8) 0.8155(15) 0.3980(4)
H6 H 1.3411 0.6835 0.4089
C8 C 1.5374(7) 0.8083(15) 0.4294(5)
H7 H 1.5731 0.6747 0.4626
C9 C 1.1931(8) 1.0265(15) 0.3180(5)
C10 C 1.6245(8) 1.0039(16) 0.4109(5)
C11 C 1.8413(8) 1.1976(15) 0.4565(5)
H8 H 1.9212 1.1647 0.4975
H9 H 1.7877 1.3290 0.4777
C12 C 0.2972(8) 0.6706(15) 0.0742(5)
O10 O -0.0400(6) 0.8681(12) 0.1798(4)
C13 C 0.4865(7) 0.762(2) 0.1795(4)
H10 H 0.5241 0.8590 0.2244
C14 C 1.8906(8) 1.2953(19) 0.3789(5)
C15 C 0.3533(8) 0.8140(17) 0.1397(5)
H11 H 0.3031 0.9458 0.1578
C16 C 0.5056(8) 0.4177(16) 0.0870(5)
H12 H 0.5555 0.2852 0.0691
C17 C 0.0259(7) 0.7349(17) 0.1353(4)
C18 C 0.7072(8) 0.5311(15) 0.1934(5)
Cu1_2 Cu 1.93621(9) 1.75048(18) 0.29408(5)
Cu1_3 Cu 1.93621(9) 0.75048(18) 0.29408(5)
Cu1_4 Cu -0.06379(9) 0.75048(18) 0.29408(5)
Cu2_2 Cu -0.03697(9) 0.28268(17) 0.21894(5)
Cu2_3 Cu 0.96303(9) 1.28268(17) 0.21894(5)
Cu2_4 Cu 1.96303(9) 1.28268(17) 0.21894(5)
Cu2_5 Cu -0.03697(9) 1.28268(17) 0.21894(5)
O4_2 O 0.9398(6) 0.5152(12) 0.3859(3)
O7_2 O 1.0448(6) 0.5008(11) 0.1432(4)
O8_2 O 1.1491(6) 0.2095(11) 0.2712(4)
O9_2 O 0.8844(6) 1.1584(10) 0.3164(3)
O9_3 O 0.8844(6) 0.1584(10) 0.3164(3)
O10_2 O 0.9600(6) 0.8681(12) 0.1798(4)
O10_3 O 0.9600(6) -0.1319(12) 0.1798(4)
loop_
_geom_bond_atom_site_label_1
_geom_bond_atom_site_label_2
_geom_bond_site_symmetry_1
_geom_bond_site_symmetry_2
Cu1 Cu2 1_555 1_555
Cu2 O6 1_555 1_555
O1 C10 1_555 1_555
O2 C1 1_555 1_555
O3 Cu1 1_555 1_555
O4 C14 1_555 1_555
O5 Cu1 1_555 1_555
O6 C18 1_555 1_555
O7 C17 1_555 1_555
O8 C9 1_555 1_555
C1 H1 1_555 1_555
H2 C1 1_555 1_555
O9 C14 1_555 1_555
C2 H3 1_555 1_555
C3 H4 1_555 1_555
C4 C2 1_555 1_555
H5 C4 1_555 1_555
C5 C13 1_555 1_555
C6 C4 1_555 1_555
C7 C6 1_555 1_555
H6 C7 1_555 1_555
C8 C7 1_555 1_555
H7 C8 1_555 1_555
C9 O3 1_555 1_555
C10 C2 1_555 1_555
C11 O1 1_555 1_555
H8 C11 1_555 1_555
H9 C11 1_555 1_555
C12 O2 1_555 1_555
O10 C17 1_555 1_555
C13 H10 1_555 1_555
C14 C11 1_555 1_555
C15 C12 1_555 1_555
H11 C15 1_555 1_555
C16 C3 1_555 1_555
H12 C16 1_555 1_555
C17 C1 1_555 1_555
C18 O5 1_555 1_555
Cu1_2 O4 1_555 1_555
Cu1_3 O9 1_555 1_555
Cu1_4 O10 1_555 1_555
Cu2_2 O7 1_555 1_555
Cu2_3 O8 1_555 1_555
Cu2_4 O9 1_555 1_555
Cu2_5 O10 1_555 1_555
O4_2 Cu1 1_555 1_555
O7_2 Cu2 1_555 1_555
O8_2 Cu2 1_555 1_555
O9_2 Cu1 1_555 1_555
O9_3 Cu2 1_555 1_555
O10_2 Cu1 1_555 1_555
O10_3 Cu2 1_555 1_555
C3 C12 1_555 1_555
C5 C16 1_555 1_555
C5 C18 1_555 1_555
C6 C9 1_555 1_555
C8 C10 1_555 1_555
C13 C15 1_555 1_555
Cu1_2 Cu2_4 1_555 1_555
Cu1_4 Cu2_2 1_555 1_555
Cu2_3 O9_2 1_555 1_555
Cu2_3 O10_2 1_555 1_555

#END
