
#######################################################################
#
#                 Cambridge Crystallographic Data Centre
#                                CCDC 
#
#######################################################################
#
# If this CIF has been generated from an entry in the Cambridge 
# Structural Database, then it will include bibliographic, chemical, 
# crystal, experimental, refinement or atomic coordinate data resulting 
# from the CCDC's data processing and validation procedures.
#
#######################################################################

data_NUKPEO
_symmetry_cell_setting           monoclinic
_symmetry_space_group_name_H-M   'P a'
_symmetry_Int_Tables_number      7
_space_group_name_Hall           'P -2ya'
loop_
_symmetry_equiv_pos_site_id
_symmetry_equiv_pos_as_xyz
1 x,y,z
2 1/2+x,-y,z
_cell_length_a                   14.316(2)
_cell_length_b                   7.871(2)
_cell_length_c                   16.294(4)
_cell_angle_alpha                90
_cell_angle_beta                 91.21(2)
_cell_angle_gamma                90
_cell_volume                     1835.62
loop_
_atom_site_label
_atom_site_type_symbol
_atom_site_fract_x
_atom_site_fract_y
_atom_site_fract_z
N1 N -0.069(1) 0.039(2) -0.236(1)
N2 N -0.010(1) 0.202(2) -0.105(1)
N3 N -0.155(1) 0.043(2) -0.442(1)
N4 N -0.208(1) 0.201(3) -0.574(1)
N5 N -0.176(1) 0.336(2) 0.221(1)
N6 N -0.058(1) 0.333(2) 0.102(1)
C1 C 0.017(2) 0.120(3) -0.248(1)
C2 C 0.045(2) 0.219(4) -0.173(2)
C3 C -0.056(2) -0.071(3) -0.158(1)
C4 C -0.017(2) 0.016(3) -0.089(1)
C5 C -0.137(2) 0.157(3) -0.207(2)
C6 C -0.091(2) 0.258(4) -0.135(2)
C7 C -0.247(1) 0.130(3) -0.430(1)
C8 C -0.279(2) 0.224(4) -0.507(1)
C9 C -0.088(2) 0.181(4) -0.461(2)
C10 C -0.112(2) 0.263(3) -0.546(1)
C11 C -0.171(2) -0.073(3) -0.502(2)
C12 C -0.198(2) 0.021(3) -0.591(1)
C13 C -0.141(3) 0.178(4) 0.208(2)
C14 C -0.072(3) 0.155(3) 0.137(2)
C15 C -0.091(2) 0.401(4) 0.254(1)
C16 C -0.016(2) 0.416(4) 0.178(1)
C17 C -0.207(2) 0.419(5) 0.153(2)
C18 C -0.145(2) 0.433(4) 0.089(1)
C19 C 0.004(2) -0.236(4) -0.371(2)
C20 C 0.042(2) -0.395(3) -0.344(2)
C21 C -0.235(1) -0.237(3) -0.298(1)
C22 C -0.224(1) -0.403(2) -0.263(1)
C23 C -0.284(2) 0.575(3) -0.646(2)
C24 C -0.369(2) 0.630(2) -0.595(1)
C25 C -0.379(2) 0.173(3) -0.719(2)
C26 C -0.462(2) 0.174(3) -0.672(2)
C27 C 0.156(2) 0.186(3) 0.053(1)
C28 C 0.241(2) 0.133(3) 0.007(2)
C29 C 0.060(2) 0.602(3) -0.031(2)
C30 C 0.143(2) 0.662(3) -0.070(2)
Zn1 Zn -0.1130 -0.1414(1) -0.3357
Zn2 Zn -0.2856(3) 0.3445(3) -0.6803(3)
Zn3 Zn 0.0605(3) 0.3470(3) 0.0074(3)
N5_2 N -0.176(1) 0.336(2) -0.779(1)
Zn2_2 Zn -0.2856(3) 0.3445(3) 0.3197(3)
loop_
_geom_bond_atom_site_label_1
_geom_bond_atom_site_label_2
_geom_bond_site_symmetry_1
_geom_bond_site_symmetry_2
N1 C1 1_555 1_555
N2 C2 1_555 1_555
N3 C7 1_555 1_555
N4 C8 1_555 1_555
N5 C13 1_555 1_555
N6 C14 1_555 1_555
C1 C2 1_555 1_555
C3 N1 1_555 1_555
C4 N2 1_555 1_555
C5 N1 1_555 1_555
C6 N2 1_555 1_555
C7 C8 1_555 1_555
C9 N3 1_555 1_555
C10 N4 1_555 1_555
C11 N3 1_555 1_555
C12 N4 1_555 1_555
C13 C14 1_555 1_555
C15 N5 1_555 1_555
C16 N6 1_555 1_555
C17 N5 1_555 1_555
C18 N6 1_555 1_555
C19 C20 1_555 1_555
C21 C22 1_555 1_555
C23 C24 1_555 1_555
C25 C26 1_555 1_555
C27 C28 1_555 1_555
C29 C30 1_555 1_555
Zn1 N1 1_555 1_555
Zn2 N4 1_555 1_555
Zn3 N2 1_555 1_555
N5_2 Zn2 1_555 1_555
Zn2_2 N5 1_555 1_555
N3 Zn1 1_555 1_555
N6 Zn3 1_555 1_555
C3 C4 1_555 1_555
C5 C6 1_555 1_555
C9 C10 1_555 1_555
C11 C12 1_555 1_555
C15 C16 1_555 1_555
C17 C18 1_555 1_555
C19 Zn1 1_555 1_555
C21 Zn1 1_555 1_555
C23 Zn2 1_555 1_555
C25 Zn2 1_555 1_555
C27 Zn3 1_555 1_555
C29 Zn3 1_555 1_555

#END
