
#######################################################################
#
#                 Cambridge Crystallographic Data Centre
#                                CCDC 
#
#######################################################################
#
# If this CIF has been generated from an entry in the Cambridge 
# Structural Database, then it will include bibliographic, chemical, 
# crystal, experimental, refinement or atomic coordinate data resulting 
# from the CCDC's data processing and validation procedures.
#
#######################################################################

data_NULCAZ
_symmetry_cell_setting           triclinic
_symmetry_space_group_name_H-M   'P -1'
_symmetry_Int_Tables_number      2
_space_group_name_Hall           '-P 1'
loop_
_symmetry_equiv_pos_site_id
_symmetry_equiv_pos_as_xyz
1 x,y,z
2 -x,-y,-z
_cell_length_a                   9.740(3)
_cell_length_b                   10.055(3)
_cell_length_c                   11.502(6)
_cell_angle_alpha                110.191(8)
_cell_angle_beta                 99.026(7)
_cell_angle_gamma                108.999(5)
_cell_volume                     952.518
loop_
_atom_site_label
_atom_site_type_symbol
_atom_site_fract_x
_atom_site_fract_y
_atom_site_fract_z
Cd1 Cd -0.17462(4) 0.18664(5) 0.10501(4)
N1 N 0.0094(4) 0.4274(4) 0.1645(4)
N2 N -0.1866(4) 0.3629(4) 0.3002(4)
N3 N 0.2295(5) 0.9689(5) 0.4894(4)
N4 N 0.0750(4) 0.9174(4) 0.6052(4)
H1 H 0.0331 0.9312 0.6663
N5 N 0.2777(6) 1.3997(5) 0.8753(4)
O1 O -0.1109(4) 0.0679(4) -0.0799(3)
O2 O 0.0085(4) -0.0814(4) -0.1590(3)
O3 O -0.3881(4) 0.1547(4) -0.0294(3)
O4 O -0.6373(4) 0.0137(4) -0.1083(4)
C1 C 0.1045(6) 0.4563(6) 0.0973(5)
H2 H 0.0972 0.3746 0.0233
C2 C 0.2160(6) 0.6052(6) 0.1330(5)
H3 H 0.2820 0.6208 0.0840
C3 C 0.2269(6) 0.7258(6) 0.2392(5)
H4 H 0.2986 0.8257 0.2630
C4 C 0.1276(5) 0.6974(6) 0.3129(5)
C5 C 0.1308(6) 0.8149(6) 0.4293(5)
C6 C 0.0346(5) 0.7800(6) 0.4992(5)
C7 C -0.0805(5) 0.6292(6) 0.4592(5)
C8 C -0.1877(6) 0.5881(6) 0.5224(5)
H5 H -0.1890 0.6628 0.5970
C9 C -0.2909(6) 0.4368(6) 0.4735(5)
H6 H -0.3632 0.4083 0.5144
C10 C -0.2870(6) 0.3260(6) 0.3622(5)
H7 H -0.3566 0.2233 0.3304
C11 C -0.0835(5) 0.5123(5) 0.3459(4)
C12 C 0.0198(5) 0.5460(6) 0.2727(5)
C13 C 0.1929(6) 1.0277(6) 0.5966(5)
C14 C 0.2152(6) 1.2504(6) 0.7913(5)
H8 H 0.1316 1.1835 0.8023
C15 C 0.2670(6) 1.1892(6) 0.6893(5)
C16 C 0.3951(6) 1.2910(6) 0.6784(5)
H9 H 0.4371 1.2555 0.6131
C17 C 0.4589(6) 1.4440(7) 0.7650(6)
H10 H 0.5435 1.5139 0.7577
C18 C 0.3984(7) 1.4939(7) 0.8616(5)
H11 H 0.4437 1.5981 0.9202
C19 C -0.0297(5) -0.0039(6) -0.0680(4)
C20 C -0.5089(6) 0.0475(6) -0.0391(5)
Cd1A Cd 0.17462(4) -0.18664(5) -0.10501(4)
Cd1A_2 Cd -0.82538(4) -0.18664(5) -0.10501(4)
N1A N -0.0094(4) -0.4274(4) -0.1645(4)
N2A N 0.1866(4) -0.3629(4) -0.3002(4)
N3A N -0.2295(5) -0.9689(5) -0.4894(4)
N4A N -0.0750(4) -0.9174(4) -0.6052(4)
H1A H -0.0331 -0.9312 -0.6663
N5A N -0.2777(6) -1.3997(5) -0.8753(4)
O1A O 0.1109(4) -0.0679(4) 0.0799(3)
O2A O -0.0085(4) 0.0814(4) 0.1590(3)
O3A O -0.6119(4) -0.1547(4) 0.0294(3)
O3A_2 O 0.3881(4) -0.1547(4) 0.0294(3)
O4A O -0.3627(4) -0.0137(4) 0.1083(4)
O4_2 O 0.3627(4) 0.0137(4) -0.1083(4)
C1A C -0.1045(6) -0.4563(6) -0.0973(5)
H2A H -0.0972 -0.3746 -0.0233
C2A C -0.2160(6) -0.6052(6) -0.1330(5)
H3A H -0.2820 -0.6208 -0.0840
C3A C -0.2269(6) -0.7258(6) -0.2392(5)
H4A H -0.2986 -0.8257 -0.2630
C4A C -0.1276(5) -0.6974(6) -0.3129(5)
C5A C -0.1308(6) -0.8149(6) -0.4293(5)
C6A C -0.0346(5) -0.7800(6) -0.4992(5)
C7A C 0.0805(5) -0.6292(6) -0.4592(5)
C8A C 0.1877(6) -0.5881(6) -0.5224(5)
H5A H 0.1890 -0.6628 -0.5970
C9A C 0.2909(6) -0.4368(6) -0.4735(5)
H6A H 0.3632 -0.4083 -0.5144
C10A C 0.2870(6) -0.3260(6) -0.3622(5)
H7A H 0.3566 -0.2233 -0.3304
C11A C 0.0835(5) -0.5123(5) -0.3459(4)
C12A C -0.0198(5) -0.5460(6) -0.2727(5)
C13A C -0.1929(6) -1.0277(6) -0.5966(5)
C14A C -0.2152(6) -1.2504(6) -0.7913(5)
H8A H -0.1316 -1.1835 -0.8023
C15A C -0.2670(6) -1.1892(6) -0.6893(5)
C16A C -0.3951(6) -1.2910(6) -0.6784(5)
H9A H -0.4371 -1.2555 -0.6131
C17A C -0.4589(6) -1.4440(7) -0.7650(6)
H10A H -0.5435 -1.5139 -0.7577
C18A C -0.3984(7) -1.4939(7) -0.8616(5)
H11A H -0.4437 -1.5981 -0.9202
C19A C 0.0297(5) 0.0039(6) 0.0680(4)
C20A C -0.4911(6) -0.0475(6) 0.0391(5)
O5 O 0.3501(6) 0.1464(5) 0.3396(5)
H12 H 0.327(7) 0.082(5) 0.374(4)
H13 H 0.305(6) 0.089(5) 0.2588(14)
loop_
_geom_bond_atom_site_label_1
_geom_bond_atom_site_label_2
_geom_bond_site_symmetry_1
_geom_bond_site_symmetry_2
Cd1 N1 1_555 1_555
N1 C1 1_555 1_555
N2 Cd1 1_555 1_555
N3 C5 1_555 1_555
N4 H1 1_555 1_555
N5 C14 1_555 1_555
O1 Cd1 1_555 1_555
O2 C19 1_555 1_555
O3 Cd1 1_555 1_555
O4 C20 1_555 1_555
O5 H12 1_555 1_555
C1 H2 1_555 1_555
C2 C1 1_555 1_555
H3 C2 1_555 1_555
C3 C2 1_555 1_555
H4 C3 1_555 1_555
C4 C3 1_555 1_555
C5 C4 1_555 1_555
C6 N4 1_555 1_555
C7 C6 1_555 1_555
C8 C7 1_555 1_555
H5 C8 1_555 1_555
C9 C8 1_555 1_555
H6 C9 1_555 1_555
C10 N2 1_555 1_555
H7 C10 1_555 1_555
C11 N2 1_555 1_555
C12 N1 1_555 1_555
C13 N3 1_555 1_555
C14 H8 1_555 1_555
C15 C13 1_555 1_555
C16 C15 1_555 1_555
H9 C16 1_555 1_555
C17 C16 1_555 1_555
H10 C17 1_555 1_555
C18 N5 1_555 1_555
H11 C18 1_555 1_555
C19 O1 1_555 1_555
C20 O3 1_555 1_555
H13 O5 1_555 1_555
Cd1A O2 1_555 1_555
Cd1A_2 O4 1_555 1_555
N1A Cd1A 1_555 1_555
N2A Cd1A 1_555 1_555
N3A C5A 1_555 1_555
N4A H1A 1_555 1_555
N5A C14A 1_555 1_555
O1A Cd1A 1_555 1_555
O2A Cd1 1_555 1_555
O3A Cd1A_2 1_555 1_555
O3A_2 Cd1A 1_555 1_555
O4A Cd1 1_555 1_555
O4_2 Cd1A 1_555 1_555
C1A N1A 1_555 1_555
H2A C1A 1_555 1_555
C2A C1A 1_555 1_555
H3A C2A 1_555 1_555
C3A C2A 1_555 1_555
H4A C3A 1_555 1_555
C4A C3A 1_555 1_555
C5A C4A 1_555 1_555
C6A N4A 1_555 1_555
C7A C6A 1_555 1_555
C8A C7A 1_555 1_555
H5A C8A 1_555 1_555
C9A C8A 1_555 1_555
H6A C9A 1_555 1_555
C10A N2A 1_555 1_555
H7A C10A 1_555 1_555
C11A N2A 1_555 1_555
C12A N1A 1_555 1_555
C13A N3A 1_555 1_555
C14A H8A 1_555 1_555
C15A C13A 1_555 1_555
C16A C15A 1_555 1_555
H9A C16A 1_555 1_555
C17A C16A 1_555 1_555
H10A C17A 1_555 1_555
C18A N5A 1_555 1_555
H11A C18A 1_555 1_555
C19A C19 1_555 1_555
C20A C20 1_555 1_555
N4 C13 1_555 1_555
C4 C12 1_555 1_555
C5 C6 1_555 1_555
C7 C11 1_555 1_555
C9 C10 1_555 1_555
C11 C12 1_555 1_555
C14 C15 1_555 1_555
C17 C18 1_555 1_555
N4A C13A 1_555 1_555
O1A C19A 1_555 1_555
O2A C19A 1_555 1_555
O3A C20A 1_555 1_555
O4A C20A 1_555 1_555
C4A C12A 1_555 1_555
C5A C6A 1_555 1_555
C7A C11A 1_555 1_555
C9A C10A 1_555 1_555
C11A C12A 1_555 1_555
C14A C15A 1_555 1_555
C17A C18A 1_555 1_555

#END
