
#######################################################################
#
#                 Cambridge Crystallographic Data Centre
#                                CCDC 
#
#######################################################################
#
# If this CIF has been generated from an entry in the Cambridge 
# Structural Database, then it will include bibliographic, chemical, 
# crystal, experimental, refinement or atomic coordinate data resulting 
# from the CCDC's data processing and validation procedures.
#
#######################################################################

data_NULCAZ01
_symmetry_cell_setting           triclinic
_symmetry_space_group_name_H-M   'P -1'
_symmetry_Int_Tables_number      2
_space_group_name_Hall           '-P 1'
loop_
_symmetry_equiv_pos_site_id
_symmetry_equiv_pos_as_xyz
1 x,y,z
2 -x,-y,-z
_cell_length_a                   9.7563(8)
_cell_length_b                   10.0403(9)
_cell_length_c                   11.5126(16)
_cell_angle_alpha                110.127(1)
_cell_angle_beta                 99.056(1)
_cell_angle_gamma                108.849(1)
_cell_volume                     955.211
loop_
_atom_site_label
_atom_site_type_symbol
_atom_site_fract_x
_atom_site_fract_y
_atom_site_fract_z
Cd1 Cd -0.17528(2) -0.31341(2) 0.604574(19)
O1 O -0.3624(2) -0.5125(3) 0.6092(2)
O2 O -0.6108(2) -0.6543(2) 0.5297(2)
O3 O -0.1108(2) -0.4324(3) 0.42027(19)
O4 O 0.0098(2) -0.5798(2) 0.34141(18)
N1 N 0.0095(3) -0.0724(3) 0.6641(2)
N2 N -0.1869(3) -0.1379(3) 0.8000(2)
N3 N 0.2302(3) 0.4695(3) 0.9906(2)
N4 N 0.0730(3) 0.4169(3) 1.1057(2)
H1 H 0.0308 0.4307 1.1664
N5 N 0.2756(4) 0.8994(3) 1.3762(3)
C1 C 0.1058(3) -0.0425(3) 0.5971(3)
H2 H 0.0991 -0.1241 0.5233
C2 C 0.2157(3) 0.1047(3) 0.6323(3)
H3 H 0.2809 0.1207 0.5829
C3 C 0.2270(3) 0.2253(3) 0.7398(3)
H4 H 0.2999 0.3247 0.7646
C4 C 0.1276(3) 0.1981(3) 0.8129(3)
C5 C 0.1312(3) 0.3143(3) 0.9293(3)
C6 C 0.0336(3) 0.2802(3) 0.9989(3)
C7 C -0.1886(3) 0.0876(3) 1.0228(3)
H5 H -0.1898 0.1622 1.0974
C8 C -0.0804(3) 0.1286(3) 0.9593(3)
C9 C -0.2911(4) -0.0621(4) 0.9740(3)
H6 H -0.3637 -0.0903 1.0145
C10 C -0.2870(3) -0.1733(3) 0.8627(3)
H7 H -0.3565 -0.2757 0.8313
C11 C -0.0852(3) 0.0108(3) 0.8456(3)
C12 C 0.0195(3) 0.0457(3) 0.7718(2)
C13 C 0.1923(3) 0.5264(3) 1.0964(3)
C14 C 0.2678(3) 0.6901(3) 1.1907(3)
C15 C 0.2142(4) 0.7507(4) 1.2916(3)
H8 H 0.1298 0.6835 1.3010
C16 C 0.3978(4) 0.9934(4) 1.3613(3)
H9 H 0.4432 1.0975 1.4197
C17 C 0.4594(4) 0.9445(4) 1.2649(3)
H10 H 0.5440 1.0137 1.2575
C18 C 0.3937(4) 0.7911(4) 1.1793(3)
H11 H 0.4343 0.7550 1.1132
C19 C -0.4921(3) -0.5482(3) 0.5402(3)
C20 C -0.0297(3) -0.5032(3) 0.4313(3)
Cd1A Cd -0.82472(2) -0.68659(2) 0.395426(19)
Cd1A_2 Cd 0.17528(2) -0.68659(2) 0.395426(19)
O1A O -0.6376(2) -0.4875(3) 0.3908(2)
O2A O -0.3892(2) -0.3457(2) 0.4703(2)
O3A O 0.1108(2) -0.5676(3) 0.57973(19)
O3A_2 O -0.8892(2) -0.5676(3) 0.57973(19)
O4A O -0.0098(2) -0.4202(2) 0.65859(18)
O4_2 O -0.9902(2) -0.5798(2) 0.34141(18)
N1A N -1.0095(3) -0.9276(3) 0.3359(2)
N2A N -0.8131(3) -0.8621(3) 0.2000(2)
N3A N -1.2302(3) -1.4695(3) 0.0094(2)
N4A N -1.0730(3) -1.4169(3) -0.1057(2)
H1A H -1.0308 -1.4307 -0.1664
N5A N -1.2756(4) -1.8994(3) -0.3762(3)
C1A C -1.1058(3) -0.9575(3) 0.4029(3)
H2A H -1.0991 -0.8759 0.4767
C2A C -1.2157(3) -1.1047(3) 0.3677(3)
H3A H -1.2809 -1.1207 0.4171
C3A C -1.2270(3) -1.2253(3) 0.2602(3)
H4A H -1.2999 -1.3247 0.2354
C4A C -1.1276(3) -1.1981(3) 0.1871(3)
C5A C -1.1312(3) -1.3143(3) 0.0707(3)
C6A C -1.0336(3) -1.2802(3) 0.0011(3)
C7A C -0.8114(3) -1.0876(3) -0.0228(3)
H5A H -0.8102 -1.1622 -0.0974
C8A C -0.9196(3) -1.1286(3) 0.0407(3)
C9A C -0.7089(4) -0.9379(4) 0.0260(3)
H6A H -0.6363 -0.9097 -0.0145
C10A C -0.7130(3) -0.8267(3) 0.1373(3)
H7A H -0.6435 -0.7243 0.1687
C11A C -0.9148(3) -1.0108(3) 0.1544(3)
C12A C -1.0195(3) -1.0457(3) 0.2282(2)
C13A C -1.1923(3) -1.5264(3) -0.0964(3)
C14A C -1.2678(3) -1.6901(3) -0.1907(3)
C15A C -1.2142(4) -1.7507(4) -0.2916(3)
H8A H -1.1298 -1.6835 -0.3010
C16A C -1.3978(4) -1.9934(4) -0.3613(3)
H9A H -1.4432 -2.0975 -0.4197
C17A C -1.4594(4) -1.9445(4) -0.2649(3)
H10A H -1.5440 -2.0137 -0.2575
C18A C -1.3937(4) -1.7911(4) -0.1793(3)
H11A H -1.4343 -1.7550 -0.1132
C19A C -0.5079(3) -0.4518(3) 0.4598(3)
C20A C 0.0297(3) -0.4968(3) 0.5687(3)
O5 O 0.3476(4) 0.6425(4) 0.8390(3)
H12 H 0.344(4) 0.694(4) 0.782(4)
H13 H 0.300(6) 0.570(7) 0.886(6)
loop_
_geom_bond_atom_site_label_1
_geom_bond_atom_site_label_2
_geom_bond_site_symmetry_1
_geom_bond_site_symmetry_2
Cd1 O1 1_555 1_555
O1 C19 1_555 1_555
O2 C19 1_555 1_555
O3 Cd1 1_555 1_555
O4 C20 1_555 1_555
O5 H12 1_555 1_555
N1 Cd1 1_555 1_555
N2 Cd1 1_555 1_555
N3 C5 1_555 1_555
N4 H1 1_555 1_555
N5 C15 1_555 1_555
C1 N1 1_555 1_555
H2 C1 1_555 1_555
C2 C1 1_555 1_555
H3 C2 1_555 1_555
C3 C2 1_555 1_555
H4 C3 1_555 1_555
C4 C3 1_555 1_555
C5 C4 1_555 1_555
C6 N4 1_555 1_555
C7 H5 1_555 1_555
C8 C6 1_555 1_555
C9 C7 1_555 1_555
H6 C9 1_555 1_555
C10 N2 1_555 1_555
H7 C10 1_555 1_555
C11 N2 1_555 1_555
C12 N1 1_555 1_555
C13 N3 1_555 1_555
C14 C13 1_555 1_555
C15 C14 1_555 1_555
H8 C15 1_555 1_555
C16 N5 1_555 1_555
H9 C16 1_555 1_555
C17 C16 1_555 1_555
H10 C17 1_555 1_555
C18 C14 1_555 1_555
H11 C18 1_555 1_555
C19 C19A 1_555 1_555
C20 O3 1_555 1_555
H13 O5 1_555 1_555
Cd1A O2 1_555 1_555
Cd1A_2 O4 1_555 1_555
O1A Cd1A 1_555 1_555
O2A Cd1 1_555 1_555
O3A Cd1A_2 1_555 1_555
O3A_2 Cd1A 1_555 1_555
O4A Cd1 1_555 1_555
O4_2 Cd1A 1_555 1_555
N1A Cd1A 1_555 1_555
N2A Cd1A 1_555 1_555
N3A C5A 1_555 1_555
N4A H1A 1_555 1_555
N5A C15A 1_555 1_555
C1A N1A 1_555 1_555
H2A C1A 1_555 1_555
C2A C1A 1_555 1_555
H3A C2A 1_555 1_555
C3A C2A 1_555 1_555
H4A C3A 1_555 1_555
C4A C3A 1_555 1_555
C5A C4A 1_555 1_555
C6A N4A 1_555 1_555
C7A H5A 1_555 1_555
C8A C6A 1_555 1_555
C9A C7A 1_555 1_555
H6A C9A 1_555 1_555
C10A N2A 1_555 1_555
H7A C10A 1_555 1_555
C11A N2A 1_555 1_555
C12A N1A 1_555 1_555
C13A N3A 1_555 1_555
C14A C13A 1_555 1_555
C15A C14A 1_555 1_555
H8A C15A 1_555 1_555
C16A N5A 1_555 1_555
H9A C16A 1_555 1_555
C17A C16A 1_555 1_555
H10A C17A 1_555 1_555
C18A C14A 1_555 1_555
H11A C18A 1_555 1_555
C19A O1A 1_555 1_555
C20A C20 1_555 1_555
N4 C13 1_555 1_555
C4 C12 1_555 1_555
C5 C6 1_555 1_555
C7 C8 1_555 1_555
C8 C11 1_555 1_555
C9 C10 1_555 1_555
C11 C12 1_555 1_555
C17 C18 1_555 1_555
O2A C19A 1_555 1_555
O3A C20A 1_555 1_555
O4A C20A 1_555 1_555
N4A C13A 1_555 1_555
C4A C12A 1_555 1_555
C5A C6A 1_555 1_555
C7A C8A 1_555 1_555
C8A C11A 1_555 1_555
C9A C10A 1_555 1_555
C11A C12A 1_555 1_555
C17A C18A 1_555 1_555

#END
