
#######################################################################
#
#                 Cambridge Crystallographic Data Centre
#                                CCDC 
#
#######################################################################
#
# If this CIF has been generated from an entry in the Cambridge 
# Structural Database, then it will include bibliographic, chemical, 
# crystal, experimental, refinement or atomic coordinate data resulting 
# from the CCDC's data processing and validation procedures.
#
#######################################################################

data_NULCUT
_symmetry_cell_setting           monoclinic
_symmetry_space_group_name_H-M   'P 21/n'
_symmetry_Int_Tables_number      14
_space_group_name_Hall           '-P 2yn'
loop_
_symmetry_equiv_pos_site_id
_symmetry_equiv_pos_as_xyz
1 x,y,z
2 1/2-x,1/2+y,1/2-z
3 -x,-y,-z
4 1/2+x,1/2-y,1/2+z
_cell_length_a                   9.41530(10)
_cell_length_b                   34.3442(5)
_cell_length_c                   18.6939(3)
_cell_angle_alpha                90
_cell_angle_beta                 99.8780(10)
_cell_angle_gamma                90
_cell_volume                     5955.26
loop_
_atom_site_label
_atom_site_type_symbol
_atom_site_fract_x
_atom_site_fract_y
_atom_site_fract_z
I1 I 0.87205(4) -0.005378(13) -0.41397(2)
I2 I 0.85625(4) 0.092958(13) -0.14790(2)
I3 I 1.42185(4) 0.029040(15) -0.20932(3)
I4 I 0.71720(5) -0.286940(14) -0.35581(4)
I5 I 0.89386(5) -0.119870(13) -0.29550(3)
I6 I 1.29630(4) -0.231390(11) -0.41040(2)
Zn1 Zn 1.32819(7) -0.087480(18) -0.34427(4)
Zn2 Zn 1.37372(6) 0.141570(17) -0.06237(3)
O1 O 1.2038(4) -0.04888(11) -0.3128(2)
O3 O 1.2671(5) -0.00294(13) -0.3857(3)
O4 O 1.2550(4) 0.11103(10) -0.13863(19)
O5 O 1.2139(4) 0.06142(12) -0.0673(2)
O6 O 1.0872(4) -0.31397(10) -0.3771(2)
O7 O 0.9685(5) -0.29266(12) -0.4817(2)
O8 O 1.2652(5) -0.14247(13) -0.3019(3)
O9 O 1.1577(6) -0.12844(17) -0.4106(3)
C1 C 1.2070(6) -0.01436(17) -0.3367(3)
C2 C 1.1249(5) 0.01451(14) -0.2965(3)
C3 C 0.9785(5) 0.02085(14) -0.3176(3)
C4 C 0.8990(5) 0.04555(14) -0.2792(3)
C5 C 0.9752(5) 0.06186(14) -0.2148(3)
C6 C 1.1230(5) 0.05784(13) -0.1939(3)
C7 C 1.1966(5) 0.03442(14) -0.2357(3)
C8 C 1.2035(5) 0.07783(15) -0.1267(3)
C9 C 1.0170(6) -0.28812(15) -0.4172(3)
C10 C 0.9935(5) -0.24930(14) -0.3825(3)
C11 C 0.8645(5) -0.24156(15) -0.3589(3)
C12 C 0.8311(6) -0.20457(16) -0.3337(3)
C13 C 0.9371(6) -0.17552(15) -0.3329(3)
C14 C 1.0687(5) -0.18268(14) -0.3542(3)
C15 C 1.0963(5) -0.21991(14) -0.3784(3)
C16 C 1.1744(6) -0.14835(19) -0.3554(4)
C17 C 1.4546(6) -0.06058(18) -0.4746(3)
H1 H 1.4009 -0.0380 -0.4732
C18 C 1.5468(6) -0.06286(18) -0.5241(3)
H2 H 1.5541 -0.0422 -0.5555
C19 C 1.6281(6) -0.09591(17) -0.5269(3)
C20 C 1.6098(7) -0.12577(18) -0.4799(4)
H3 H 1.6616 -0.1488 -0.4805
C21 C 1.5159(7) -0.12148(18) -0.4327(4)
H4 H 1.5048 -0.1420 -0.4017
C22 C 1.7358(7) -0.0999(2) -0.5789(4)
H5 H 1.7141 -0.1233 -0.6077
H6 H 1.7252 -0.0778 -0.6119
C23 C 1.8893(7) -0.1018(2) -0.5397(4)
H7 H 1.8969 -0.1214 -0.5019
H8 H 1.9155 -0.0769 -0.5166
C24 C 1.9947(8) -0.1116(2) -0.5908(4)
H9 H 1.9819 -0.0928 -0.6302
H10 H 2.0922 -0.1087 -0.5645
C25 C 1.9777(6) -0.15152(18) -0.6222(3)
C26 C 1.9382(7) -0.1581(2) -0.6954(4)
H11 H 1.9176 -0.1372 -0.7271
C27 C 1.9292(8) -0.1953(2) -0.7215(4)
H12 H 1.9030 -0.1988 -0.7714
C28 C 1.9910(10) -0.2201(2) -0.6102(5)
H13 H 2.0089 -0.2415 -0.5796
C29 C 2.0034(8) -0.1838(2) -0.5796(4)
H14 H 2.0295 -0.1811 -0.5296
C30 C 1.6116(6) -0.05208(17) -0.2790(3)
H15 H 1.6056 -0.0430 -0.3263
C31 C 1.7184(6) -0.03801(18) -0.2275(3)
H16 H 1.7833 -0.0199 -0.2402
C32 C 1.7312(6) -0.05033(18) -0.1565(3)
C33 C 1.6374(8) -0.0789(2) -0.1434(4)
H17 H 1.6457 -0.0894 -0.0971
C34 C 1.5300(8) -0.0924(2) -0.1984(4)
H18 H 1.4677 -0.1118 -0.1878
C35 C 1.8368(7) -0.0316(2) -0.0972(4)
H19 H 1.7884 -0.0271 -0.0561
H20 H 1.8626 -0.0063 -0.1144
C36 C 1.9740(8) -0.0538(2) -0.0707(5)
H21 H 1.9515 -0.0814 -0.0720
H22 H 2.0077 -0.0469 -0.0203
C37 C 2.0979(7) -0.0471(2) -0.1131(4)
H23 H 2.0709 -0.0567 -0.1624
H24 H 2.1185 -0.0195 -0.1152
C38 C 2.2298(6) -0.06852(18) -0.0753(4)
C39 C 2.3320(7) -0.05092(18) -0.0234(4)
H25 H 2.3252 -0.0245 -0.0140
C40 C 2.4437(7) -0.07240(19) 0.0141(4)
H26 H 2.5125 -0.0597 0.0477
C41 C 2.3604(6) -0.12761(19) -0.0467(4)
H27 H 2.3689 -0.1541 -0.0553
C42 C 2.2470(7) -0.1074(2) -0.0876(4)
H28 H 2.1829 -0.1202 -0.1233
C43 C 1.2951(8) 0.1786(2) 0.0696(4)
H29 H 1.3942 0.1812 0.0841
C44 C 1.2041(10) 0.1928(3) 0.1139(4)
H30 H 1.2440 0.2044 0.1577
C45 C 1.0603(9) 0.1905(2) 0.0960(4)
C46 C 1.0093(8) 0.1730(2) 0.0309(4)
H31 H 0.9106 0.1704 0.0151
C47 C 1.1050(7) 0.1592(2) -0.0112(4)
H32 H 1.0677 0.1476 -0.0555
C48 C 0.9628(11) 0.2058(3) 0.1461(5)
H33 H 0.9060 0.1840 0.1583
H34 H 1.0243 0.2138 0.1907
C49 C 0.872(2) 0.2347(3) 0.1259(11)
H35 H 0.8392 0.2437 0.1694
H36 H 0.7892 0.2233 0.0951
C50 C 0.9090(15) 0.2687(3) 0.0892(9)
H37 H 0.8203 0.2786 0.0609
H38 H 0.9689 0.2603 0.0547
C51 C 0.9840(9) 0.3026(2) 0.1300(5)
C52 C 0.9388(9) 0.3180(3) 0.1908(5)
H39 H 0.8656 0.3057 0.2099
C53 C 1.0007(9) 0.3509(3) 0.2229(5)
H40 H 0.9685 0.3602 0.2640
C54 C 1.1510(8) 0.3548(3) 0.1428(5)
H41 H 1.2267 0.3672 0.1259
C55 C 1.0969(9) 0.3217(3) 0.1071(5)
H42 H 1.1358 0.3122 0.0680
N1 N 0.7525(5) 0.05222(15) -0.3016(3)
N2 N 0.7000(5) -0.19725(16) -0.3117(3)
N3 N 1.4388(5) -0.08906(13) -0.4288(3)
N4 N 1.9551(7) -0.22638(18) -0.6806(4)
N5 N 1.5143(5) -0.07839(13) -0.2655(3)
N6 N 2.4582(5) -0.11082(13) 0.0048(2)
N7 N 1.2460(5) 0.16134(13) 0.0075(2)
N8 N 1.1055(7) 0.3704(2) 0.1983(4)
Zn2A Zn 1.12628(6) -0.358430(17) -0.43763(3)
Zn2B Zn 2.62628(6) -0.141570(17) 0.06237(3)
O6A O 1.4128(4) 0.18603(10) -0.1229(2)
N6B N 1.5418(5) 0.11082(13) -0.0048(2)
O2 O 0.9622(7) -0.30801(17) 0.2902(3)
loop_
_geom_bond_atom_site_label_1
_geom_bond_atom_site_label_2
_geom_bond_site_symmetry_1
_geom_bond_site_symmetry_2
I1 C3 1_555 1_555
I2 C5 1_555 1_555
I3 C7 1_555 1_555
I4 C11 1_555 1_555
I5 C13 1_555 1_555
I6 C15 1_555 1_555
Zn1 O1 1_555 1_555
Zn2 O4 1_555 1_555
O1 C1 1_555 1_555
O3 C1 1_555 1_555
O4 C8 1_555 1_555
O5 C8 1_555 1_555
O6 C9 1_555 1_555
O7 C9 1_555 1_555
O8 Zn1 1_555 1_555
O9 Zn1 1_555 1_555
C1 C2 1_555 1_555
C2 C3 1_555 1_555
C3 C4 1_555 1_555
C4 C5 1_555 1_555
C5 C6 1_555 1_555
C6 C7 1_555 1_555
C7 C2 1_555 1_555
C8 C6 1_555 1_555
C9 C10 1_555 1_555
C10 C11 1_555 1_555
C11 C12 1_555 1_555
C12 C13 1_555 1_555
C13 C14 1_555 1_555
C14 C15 1_555 1_555
C15 C10 1_555 1_555
C16 O8 1_555 1_555
C17 H1 1_555 1_555
C18 C17 1_555 1_555
H2 C18 1_555 1_555
C19 C18 1_555 1_555
C20 C19 1_555 1_555
H3 C20 1_555 1_555
C21 C20 1_555 1_555
H4 C21 1_555 1_555
C22 C19 1_555 1_555
H5 C22 1_555 1_555
H6 C22 1_555 1_555
C23 C22 1_555 1_555
H7 C23 1_555 1_555
H8 C23 1_555 1_555
C24 C23 1_555 1_555
H9 C24 1_555 1_555
H10 C24 1_555 1_555
C25 C24 1_555 1_555
C26 C25 1_555 1_555
H11 C26 1_555 1_555
C27 C26 1_555 1_555
H12 C27 1_555 1_555
C28 H13 1_555 1_555
C29 C25 1_555 1_555
H14 C29 1_555 1_555
C30 H15 1_555 1_555
C31 C30 1_555 1_555
H16 C31 1_555 1_555
C32 C31 1_555 1_555
C33 C32 1_555 1_555
H17 C33 1_555 1_555
C34 C33 1_555 1_555
H18 C34 1_555 1_555
C35 C32 1_555 1_555
H19 C35 1_555 1_555
H20 C35 1_555 1_555
C36 C35 1_555 1_555
H21 C36 1_555 1_555
H22 C36 1_555 1_555
C37 C36 1_555 1_555
H23 C37 1_555 1_555
H24 C37 1_555 1_555
C38 C37 1_555 1_555
C39 C38 1_555 1_555
H25 C39 1_555 1_555
C40 C39 1_555 1_555
H26 C40 1_555 1_555
C41 H27 1_555 1_555
C42 C38 1_555 1_555
H28 C42 1_555 1_555
C43 H29 1_555 1_555
C44 C43 1_555 1_555
H30 C44 1_555 1_555
C45 C44 1_555 1_555
C46 C45 1_555 1_555
H31 C46 1_555 1_555
C47 C46 1_555 1_555
H32 C47 1_555 1_555
C48 C45 1_555 1_555
H33 C48 1_555 1_555
H34 C48 1_555 1_555
C49 C48 1_555 1_555
H35 C49 1_555 1_555
H36 C49 1_555 1_555
C50 C49 1_555 1_555
H37 C50 1_555 1_555
H38 C50 1_555 1_555
C51 C50 1_555 1_555
C52 C51 1_555 1_555
H39 C52 1_555 1_555
C53 C52 1_555 1_555
H40 C53 1_555 1_555
C54 H41 1_555 1_555
C55 C51 1_555 1_555
H42 C55 1_555 1_555
N1 C4 1_555 1_555
N2 C12 1_555 1_555
N3 Zn1 1_555 1_555
N4 C27 1_555 1_555
N5 Zn1 1_555 1_555
N6 C40 1_555 1_555
N7 Zn2 1_555 1_555
N8 C53 1_555 1_555
Zn2A O6 1_555 1_555
Zn2B N6 1_555 1_555
O6A Zn2 1_555 1_555
N6B Zn2 1_555 1_555
O9 C16 1_555 1_555
C14 C16 1_555 1_555
C17 N3 1_555 1_555
C21 N3 1_555 1_555
C28 C29 1_555 1_555
C28 N4 1_555 1_555
C30 N5 1_555 1_555
C34 N5 1_555 1_555
C41 C42 1_555 1_555
C41 N6 1_555 1_555
C43 N7 1_555 1_555
C47 N7 1_555 1_555
C54 C55 1_555 1_555
C54 N8 1_555 1_555

#END
