
#######################################################################
#
#                 Cambridge Crystallographic Data Centre
#                                CCDC 
#
#######################################################################
#
# If this CIF has been generated from an entry in the Cambridge 
# Structural Database, then it will include bibliographic, chemical, 
# crystal, experimental, refinement or atomic coordinate data resulting 
# from the CCDC's data processing and validation procedures.
#
#######################################################################

data_NULDEE
_symmetry_cell_setting           monoclinic
_symmetry_space_group_name_H-M   'P 21/n'
_symmetry_Int_Tables_number      14
_space_group_name_Hall           '-P 2yn'
loop_
_symmetry_equiv_pos_site_id
_symmetry_equiv_pos_as_xyz
1 x,y,z
2 1/2-x,1/2+y,1/2-z
3 -x,-y,-z
4 1/2+x,1/2-y,1/2+z
_cell_length_a                   9.2478(5)
_cell_length_b                   15.2758(9)
_cell_length_c                   20.3701(12)
_cell_angle_alpha                90
_cell_angle_beta                 91.7550(10)
_cell_angle_gamma                90
_cell_volume                     2876.28
loop_
_atom_site_label
_atom_site_type_symbol
_atom_site_fract_x
_atom_site_fract_y
_atom_site_fract_z
Zn1 Zn 1.01951(7) 0.17504(4) 0.32180(3)
I1 I 1.25330(5) 0.33401(3) 0.14911(3)
I2 I 0.88004(6) 0.63744(3) 0.05799(2)
I3 I 0.64150(4) 0.36465(3) 0.23832(2)
O2 O 0.9937(4) 0.2889(2) 0.27773(18)
O3 O 0.9362(5) 0.2088(3) 0.1897(2)
O4 O 0.6455(5) 0.5991(3) 0.1820(2)
O5 O 0.5451(5) 0.5089(3) 0.1073(2)
C4 C 0.9565(6) 0.2797(4) 0.2177(3)
C5 C 0.9388(6) 0.3642(3) 0.1796(2)
C6 C 0.8075(6) 0.4089(4) 0.1783(3)
C7 C 0.7891(6) 0.4856(3) 0.1423(2)
C8 C 0.6466(7) 0.5339(4) 0.1430(3)
C9 C 0.9061(6) 0.5177(4) 0.1084(2)
C10 C 1.0432(7) 0.4770(4) 0.1098(3)
C11 C 1.0516(6) 0.3983(4) 0.1448(3)
C12 C 1.0696(7) 0.1732(4) 0.4690(3)
H8 H 1.0713 0.1127 0.4643
C13 C 1.0819(6) 0.2078(4) 0.5311(3)
H9 H 1.0937 0.1706 0.5670
C14 C 1.0769(6) 0.2968(4) 0.5409(3)
C15 C 1.0617(9) 0.3470(4) 0.4852(3)
H10 H 1.0584 0.4076 0.4890
C16 C 1.0511(8) 0.3094(4) 0.4243(3)
H11 H 1.0406 0.3455 0.3877
C17 C 1.0871(8) 0.3353(4) 0.6094(3)
H12 H 1.0121 0.3088 0.6351
H13 H 1.1794 0.3183 0.6293
C18 C 1.0733(7) 0.4333(4) 0.6151(3)
H14 H 0.9829 0.4516 0.5940
H15 H 1.1515 0.4607 0.5920
C19 C 1.0776(7) 0.4653(4) 0.6860(3)
H16 H 1.1648 0.4437 0.7082
H17 H 1.0812 0.5288 0.6864
C20 C 0.9487(6) 0.4353(4) 0.7223(3)
C21 C 0.9546(7) 0.3650(4) 0.7656(3)
H18 H 1.0422 0.3370 0.7748
C22 C 0.8311(7) 0.3370(4) 0.7945(3)
H19 H 0.8375 0.2890 0.8225
C23 C 0.6952(7) 0.4430(4) 0.7442(3)
H20 H 0.6065 0.4704 0.7366
C24 C 0.8136(7) 0.4746(4) 0.7130(3)
H21 H 0.8037 0.5228 0.6853
N2 N 1.1592(6) 0.5141(4) 0.0787(3)
N3 N 1.0552(5) 0.2225(3) 0.4153(2)
N4 N 0.7014(5) 0.3749(3) 0.7848(2)
Zn1A Zn 0.48049(7) 0.67504(4) 0.17820(3)
Zn1C Zn 0.51951(7) 0.32496(4) 0.82180(3)
O4A O 0.8545(5) 0.0991(3) 0.3180(2)
N4C N 1.2014(5) 0.1251(3) 0.2848(2)
O1 O 1.4207(17) 0.3705(10) 0.3980(10)
C1 C 1.4584(18) 0.3429(9) 0.5304(7)
H1 H 1.3770 0.3212 0.5050
H2 H 1.4268 0.3878 0.5597
H3 H 1.5015 0.2959 0.5554
C2 C 1.707(2) 0.4216(18) 0.5260(10)
H4 H 1.7682 0.4423 0.4921
H5 H 1.7576 0.3786 0.5521
H6 H 1.6799 0.4698 0.5533
N1 N 1.5543(11) 0.3756(6) 0.4908(6)
C3 C 1.585(2) 0.3933(14) 0.4343(11)
H7 H 1.6704 0.4130 0.4167
loop_
_geom_bond_atom_site_label_1
_geom_bond_atom_site_label_2
_geom_bond_site_symmetry_1
_geom_bond_site_symmetry_2
O1 C3 1_555 1_555
C1 H1 1_555 1_555
H2 C1 1_555 1_555
H3 C1 1_555 1_555
C2 H4 1_555 1_555
H5 C2 1_555 1_555
H6 C2 1_555 1_555
N1 C1 1_555 1_555
C3 N1 1_555 1_555
H7 C3 1_555 1_555
Zn1 O2 1_555 1_555
I1 C11 1_555 1_555
I2 C9 1_555 1_555
I3 C6 1_555 1_555
O2 C4 1_555 1_555
O3 C4 1_555 1_555
O4 C8 1_555 1_555
O5 C8 1_555 1_555
C4 C5 1_555 1_555
C5 C6 1_555 1_555
C6 C7 1_555 1_555
C7 C8 1_555 1_555
C9 C7 1_555 1_555
C10 C9 1_555 1_555
C11 C5 1_555 1_555
C12 H8 1_555 1_555
C13 C12 1_555 1_555
H9 C13 1_555 1_555
C14 C13 1_555 1_555
C15 C14 1_555 1_555
H10 C15 1_555 1_555
C16 C15 1_555 1_555
H11 C16 1_555 1_555
C17 C14 1_555 1_555
H12 C17 1_555 1_555
H13 C17 1_555 1_555
C18 C17 1_555 1_555
H14 C18 1_555 1_555
H15 C18 1_555 1_555
C19 C18 1_555 1_555
H16 C19 1_555 1_555
H17 C19 1_555 1_555
C20 C19 1_555 1_555
C21 C20 1_555 1_555
H18 C21 1_555 1_555
C22 C21 1_555 1_555
H19 C22 1_555 1_555
C23 H20 1_555 1_555
C24 C20 1_555 1_555
H21 C24 1_555 1_555
N2 C10 1_555 1_555
N3 Zn1 1_555 1_555
N4 C22 1_555 1_555
Zn1A O4 1_555 1_555
Zn1C N4 1_555 1_555
O4A Zn1 1_555 1_555
N4C Zn1 1_555 1_555
C2 N1 1_555 1_555
C10 C11 1_555 1_555
C12 N3 1_555 1_555
C16 N3 1_555 1_555
C23 C24 1_555 1_555
C23 N4 1_555 1_555

#END
