
#######################################################################
#
#                 Cambridge Crystallographic Data Centre
#                                CCDC 
#
#######################################################################
#
# If this CIF has been generated from an entry in the Cambridge 
# Structural Database, then it will include bibliographic, chemical, 
# crystal, experimental, refinement or atomic coordinate data resulting 
# from the CCDC's data processing and validation procedures.
#
#######################################################################

data_NULDAA
_symmetry_cell_setting           triclinic
_symmetry_space_group_name_H-M   'P -1'
_symmetry_Int_Tables_number      2
_space_group_name_Hall           '-P 1'
loop_
_symmetry_equiv_pos_site_id
_symmetry_equiv_pos_as_xyz
1 x,y,z
2 -x,-y,-z
_cell_length_a                   8.5532(8)
_cell_length_b                   18.2032(18)
_cell_length_c                   19.583(3)
_cell_angle_alpha                113.997(2)
_cell_angle_beta                 95.211(3)
_cell_angle_gamma                99.150(2)
_cell_volume                     2708.83
loop_
_atom_site_label
_atom_site_type_symbol
_atom_site_fract_x
_atom_site_fract_y
_atom_site_fract_z
O2 O 0.4518(13) 0.9837(6) 0.3509(6)
O4 O 0.756(2) 0.7988(14) 0.8842(14)
O7 O 0.870(4) 0.0193(14) 0.216(3)
I1 I 0.59655(8) 0.66664(5) 0.47289(4)
I2 I 1.27204(9) 0.87262(5) 0.54344(4)
I3 I 0.96420(9) 0.64897(6) 0.21885(4)
I4 I 0.85379(13) 0.12849(7) -0.16758(5)
I5 I 0.84410(13) 0.30390(7) 0.16730(5)
I6 I 0.32736(10) 0.30915(6) -0.06049(5)
Zn1 Zn 0.46350(15) 0.47549(8) 0.20506(7)
Zn2 Zn 0.50102(13) 0.75027(7) 0.29697(6)
O1 O 0.6604(8) 0.5416(4) 0.2828(4)
O3 O 0.5649(8) 0.6415(4) 0.2719(4)
O5 O 1.3260(8) 0.7278(5) 0.3474(4)
O6 O 1.2640(10) 0.8422(6) 0.3568(5)
O8 O 0.5746(10) 0.2619(5) -0.1968(4)
O9 O 0.4543(11) 0.1353(5) -0.2152(5)
O10 O 0.6091(11) 0.4380(6) 0.1149(5)
O11 O 0.4594(12) 0.3466(6) 0.1401(5)
N1 N 0.9258(11) 0.7974(6) 0.5671(5)
N2 N 0.9519(14) 0.1925(8) 0.0102(7)
N3 N 0.3107(11) 0.4632(6) 0.2776(5)
N4 N -0.3179(14) 0.3945(7) 0.4677(6)
N5 N 0.2949(11) 0.4924(6) 0.1345(5)
N6 N 0.6814(9) 0.8432(5) 0.3702(5)
C1 C 0.6667(11) 0.6151(6) 0.2997(5)
C2 C 0.8117(11) 0.6745(6) 0.3579(5)
C3 C 0.8046(10) 0.7057(6) 0.4352(5)
C4 C 0.9332(12) 0.7651(6) 0.4908(5)
C5 C 1.0728(12) 0.7866(6) 0.4630(5)
C6 C 1.0865(11) 0.7537(6) 0.3878(5)
C7 C 1.2379(11) 0.7779(7) 0.3622(6)
C8 C 0.9533(11) 0.6977(6) 0.3346(5)
C9 C 0.5393(14) 0.2044(8) -0.1759(6)
C10 C 0.6093(13) 0.2256(7) -0.0952(6)
C11 C 0.7476(13) 0.1995(7) -0.0796(6)
C12 C 0.8170(14) 0.2199(7) -0.0045(6)
C13 C 0.7429(15) 0.2718(8) 0.0535(6)
C14 C 0.6080(14) 0.2986(7) 0.0396(6)
C15 C 0.5563(15) 0.3645(9) 0.1018(7)
C16 C 0.5420(13) 0.2732(7) -0.0367(6)
C17 C 0.2824(14) 0.3959(8) 0.2913(7)
H1 H 0.3447 0.3569 0.2731
C18 C 0.1650(14) 0.3825(8) 0.3311(6)
H2 H 0.1505 0.3357 0.3402
C19 C 0.0695(12) 0.4383(7) 0.3573(6)
C20 C 0.0999(14) 0.5078(7) 0.3438(6)
H3 H 0.0369 0.5469 0.3600
C21 C 0.2247(15) 0.5190(8) 0.3062(6)
H4 H 0.2486 0.5678 0.3008
C22 C -0.0689(13) 0.4238(7) 0.3959(6)
C23 C -0.0621(15) 0.3782(7) 0.4362(7)
H5 H 0.0267 0.3555 0.4396
C24 C -0.1861(17) 0.3665(8) 0.4712(8)
H6 H -0.1778 0.3366 0.4997
C25 C -0.3182(15) 0.4420(9) 0.4323(8)
H7 H -0.4048 0.4673 0.4333
C26 C -0.2021(14) 0.4570(8) 0.3944(7)
H8 H -0.2120 0.4889 0.3680
C27 C 0.3262(15) 0.5425(8) 0.1022(8)
H9 H 0.4283 0.5763 0.1159
C28 C 0.2184(15) 0.5479(8) 0.0502(9)
H10 H 0.2476 0.5847 0.0295
C29 C 0.0613(12) 0.4975(7) 0.0273(6)
C30 C 0.0286(16) 0.4476(9) 0.0630(8)
H11 H -0.0742 0.4155 0.0533
C31 C 0.1514(16) 0.4448(10) 0.1147(8)
H12 H 0.1292 0.4075 0.1357
C32 C 0.6700(13) 0.8802(7) 0.4426(6)
H13 H 0.5767 0.8649 0.4589
C33 C 0.7910(14) 0.9397(7) 0.4932(6)
H14 H 0.7802 0.9630 0.5440
C34 C 0.9314(11) 0.9677(5) 0.4725(5)
C35 C 0.9399(12) 0.9285(7) 0.3960(6)
H15 H 1.0311 0.9427 0.3778
C36 C 0.8112(13) 0.8682(7) 0.3475(6)
H16 H 0.8164 0.8439 0.2960
I1_2 I -0.40345(8) 0.66664(5) 0.47289(4)
I2_2 I 0.27204(9) 0.87262(5) 0.54344(4)
I3_2 I -0.03580(9) 0.64897(6) 0.21885(4)
I4A I 0.14621(13) 0.87151(7) 0.16758(5)
I5A I 0.15590(13) 0.69610(7) -0.16730(5)
I6A I 0.67264(10) 0.69085(6) 0.06049(5)
Zn1A Zn -0.46350(15) 0.52451(8) -0.20506(7)
Zn1_2 Zn -0.53650(15) 0.47549(8) 0.20506(7)
Zn1A_2 Zn 0.53650(15) 0.52451(8) -0.20506(7)
Zn2_2 Zn 1.50102(13) 0.75027(7) 0.29697(6)
Zn2A Zn 0.49898(13) 0.24973(7) -0.29697(6)
Zn2A_2 Zn 1.49898(13) 1.24973(7) 0.70303(6)
Zn2_3 Zn -0.49898(13) 0.75027(7) 0.29697(6)
O1_2 O -0.3396(8) 0.5416(4) 0.2828(4)
O1A O -0.6604(8) 0.4584(4) -0.2828(4)
O3_2 O -0.4351(8) 0.6415(4) 0.2719(4)
O3_3 O 1.5649(8) 0.6415(4) 0.2719(4)
O5_2 O 0.3260(8) 0.7278(5) 0.3474(4)
O6_2 O 0.2640(10) 0.8422(6) 0.3568(5)
O8A O 0.4254(10) 0.7381(5) 0.1968(4)
O8A_2 O 1.4254(10) 0.7381(5) 0.1968(4)
O9A O 0.5457(11) 0.8647(5) 0.2152(5)
O10A O 0.3909(11) 0.5620(6) -0.1149(5)
O10A_2 O -0.6091(11) 0.5620(6) -0.1149(5)
O11A O 0.5406(12) 0.6534(6) -0.1401(5)
O11A_2 O -0.4594(12) 0.6534(6) -0.1401(5)
N1_2 N -0.0742(11) 0.7974(6) 0.5671(5)
N2A N 0.0481(14) 0.8075(8) -0.0102(7)
N3A N -0.3107(11) 0.5368(6) -0.2776(5)
N4A N 0.3179(14) 0.6055(7) -0.4677(6)
N5A N -0.2949(11) 0.5076(6) -0.1345(5)
N6A N 1.3186(9) 1.1568(5) 0.6298(5)
N6_2 N 1.6814(9) 0.8432(5) 0.3702(5)
C1_2 C -0.3333(11) 0.6151(6) 0.2997(5)
C2_2 C -0.1883(11) 0.6745(6) 0.3579(5)
C3_2 C -0.1954(10) 0.7057(6) 0.4352(5)
C4_2 C -0.0668(12) 0.7651(6) 0.4908(5)
C5_2 C 0.0728(12) 0.7866(6) 0.4630(5)
C6_2 C 0.0865(11) 0.7537(6) 0.3878(5)
C7_2 C 0.2379(11) 0.7779(7) 0.3622(6)
C8_2 C -0.0467(11) 0.6977(6) 0.3346(5)
C9A C 0.4607(14) 0.7956(8) 0.1759(6)
C10A C 0.3907(13) 0.7744(7) 0.0952(6)
C11A C 0.2524(13) 0.8005(7) 0.0796(6)
C12A C 0.1830(14) 0.7801(7) 0.0045(6)
C13A C 0.2571(15) 0.7282(8) -0.0535(6)
C14A C 0.3920(14) 0.7014(7) -0.0396(6)
C15A C 0.4437(15) 0.6355(9) -0.1018(7)
C16A C 0.4580(13) 0.7268(7) 0.0367(6)
C17A C -0.2824(14) 0.6041(8) -0.2913(7)
H1A H -0.3447 0.6431 -0.2731
C18A C -0.1650(14) 0.6175(8) -0.3311(6)
H2A H -0.1505 0.6643 -0.3402
C19A C -0.0695(12) 0.5617(7) -0.3573(6)
C20A C -0.0999(14) 0.4922(7) -0.3438(6)
H3A H -0.0369 0.4531 -0.3600
C21A C -0.2247(15) 0.4810(8) -0.3062(6)
H4A H -0.2486 0.4322 -0.3008
C22A C 0.0689(13) 0.5762(7) -0.3959(6)
C23A C 0.0621(15) 0.6218(7) -0.4362(7)
H5A H -0.0267 0.6445 -0.4396
C24A C 0.1861(17) 0.6335(8) -0.4712(8)
H6A H 0.1778 0.6634 -0.4997
C25A C 0.3182(15) 0.5580(9) -0.4323(8)
H7A H 0.4048 0.5327 -0.4333
C26A C 0.2021(14) 0.5430(8) -0.3944(7)
H8A H 0.2120 0.5111 -0.3680
C27A C -0.3262(15) 0.4575(8) -0.1022(8)
H9A H -0.4283 0.4237 -0.1159
C28A C -0.2184(15) 0.4521(8) -0.0502(9)
H10A H -0.2476 0.4153 -0.0295
C29A C -0.0613(12) 0.5025(7) -0.0273(6)
C30A C -0.0286(16) 0.5524(9) -0.0630(8)
H11A H 0.0742 0.5845 -0.0533
C31A C -0.1514(16) 0.5552(10) -0.1147(8)
H12A H -0.1292 0.5925 -0.1357
C32A C 1.3300(13) 1.1198(7) 0.5574(6)
H13A H 1.4233 1.1351 0.5411
C33A C 1.2090(14) 1.0603(7) 0.5068(6)
H14A H 1.2198 1.0370 0.4560
C34A C 1.0686(11) 1.0323(5) 0.5275(5)
C35A C 1.0601(12) 1.0715(7) 0.6040(6)
H15A H 0.9689 1.0573 0.6222
C36A C 1.1888(13) 1.1318(7) 0.6525(6)
H16A H 1.1836 1.1561 0.7040
loop_
_geom_bond_atom_site_label_1
_geom_bond_atom_site_label_2
_geom_bond_site_symmetry_1
_geom_bond_site_symmetry_2
I1 C3 1_555 1_555
I2 C5 1_555 1_555
I3 C8 1_555 1_555
I4 C11 1_555 1_555
I5 C13 1_555 1_555
I6 C16 1_555 1_555
Zn1 O1 1_555 1_555
Zn2 O3 1_555 1_555
O1 C1 1_555 1_555
O3 C1 1_555 1_555
O5 C7 1_555 1_555
O6 C7 1_555 1_555
O8 C9 1_555 1_555
O9 C9 1_555 1_555
O10 Zn1 1_555 1_555
O11 Zn1 1_555 1_555
N1 C4 1_555 1_555
N2 C12 1_555 1_555
N3 Zn1 1_555 1_555
N4 C24 1_555 1_555
N5 Zn1 1_555 1_555
N6 Zn2 1_555 1_555
C1 C2 1_555 1_555
C2 C3 1_555 1_555
C3 C4 1_555 1_555
C4 C5 1_555 1_555
C5 C6 1_555 1_555
C6 C7 1_555 1_555
C8 C2 1_555 1_555
C9 C10 1_555 1_555
C10 C11 1_555 1_555
C11 C12 1_555 1_555
C12 C13 1_555 1_555
C13 C14 1_555 1_555
C14 C15 1_555 1_555
C15 O10 1_555 1_555
C16 C10 1_555 1_555
C17 N3 1_555 1_555
H1 C17 1_555 1_555
C18 C17 1_555 1_555
H2 C18 1_555 1_555
C19 C18 1_555 1_555
C20 C19 1_555 1_555
H3 C20 1_555 1_555
C21 N3 1_555 1_555
H4 C21 1_555 1_555
C22 C19 1_555 1_555
C23 C22 1_555 1_555
H5 C23 1_555 1_555
C24 C23 1_555 1_555
H6 C24 1_555 1_555
C25 N4 1_555 1_555
H7 C25 1_555 1_555
C26 C22 1_555 1_555
H8 C26 1_555 1_555
C27 N5 1_555 1_555
H9 C27 1_555 1_555
C28 C27 1_555 1_555
H10 C28 1_555 1_555
C29 C28 1_555 1_555
C30 C29 1_555 1_555
H11 C30 1_555 1_555
C31 N5 1_555 1_555
H12 C31 1_555 1_555
C32 N6 1_555 1_555
H13 C32 1_555 1_555
C33 C32 1_555 1_555
H14 C33 1_555 1_555
C34 C33 1_555 1_555
C35 C34 1_555 1_555
H15 C35 1_555 1_555
C36 N6 1_555 1_555
H16 C36 1_555 1_555
I1_2 C3_2 1_555 1_555
I2_2 C5_2 1_555 1_555
I3_2 C8_2 1_555 1_555
I4A C11A 1_555 1_555
I5A C13A 1_555 1_555
I6A C16A 1_555 1_555
Zn1A O1A 1_555 1_555
Zn1_2 O1_2 1_555 1_555
Zn1A_2 O10A 1_555 1_555
Zn2_2 O5 1_555 1_555
Zn2A O8 1_555 1_555
Zn2A_2 N6A 1_555 1_555
Zn2_3 O3_2 1_555 1_555
O1_2 C1_2 1_555 1_555
O3_2 C1_2 1_555 1_555
O3_3 Zn2_2 1_555 1_555
O5_2 Zn2 1_555 1_555
O6_2 C7_2 1_555 1_555
O8A Zn2 1_555 1_555
O8A_2 Zn2_2 1_555 1_555
O9A C9A 1_555 1_555
O10A C15A 1_555 1_555
O10A_2 Zn1A 1_555 1_555
O11A Zn1A_2 1_555 1_555
O11A_2 Zn1A 1_555 1_555
N1_2 C4_2 1_555 1_555
N2A C12A 1_555 1_555
N3A Zn1A 1_555 1_555
N4A C24A 1_555 1_555
N5A Zn1A 1_555 1_555
N6A C32A 1_555 1_555
N6_2 Zn2_2 1_555 1_555
C1_2 C2_2 1_555 1_555
C2_2 C3_2 1_555 1_555
C3_2 C4_2 1_555 1_555
C4_2 C5_2 1_555 1_555
C5_2 C6_2 1_555 1_555
C6_2 C7_2 1_555 1_555
C7_2 O5_2 1_555 1_555
C8_2 C2_2 1_555 1_555
C9A O8A 1_555 1_555
C10A C9A 1_555 1_555
C11A C10A 1_555 1_555
C12A C11A 1_555 1_555
C13A C12A 1_555 1_555
C14A C13A 1_555 1_555
C15A O11A 1_555 1_555
C16A C10A 1_555 1_555
C17A N3A 1_555 1_555
H1A C17A 1_555 1_555
C18A C17A 1_555 1_555
H2A C18A 1_555 1_555
C19A C18A 1_555 1_555
C20A C19A 1_555 1_555
H3A C20A 1_555 1_555
C21A N3A 1_555 1_555
H4A C21A 1_555 1_555
C22A C19A 1_555 1_555
C23A C22A 1_555 1_555
H5A C23A 1_555 1_555
C24A C23A 1_555 1_555
H6A C24A 1_555 1_555
C25A N4A 1_555 1_555
H7A C25A 1_555 1_555
C26A C22A 1_555 1_555
H8A C26A 1_555 1_555
C27A N5A 1_555 1_555
H9A C27A 1_555 1_555
C28A C27A 1_555 1_555
H10A C28A 1_555 1_555
C29A C29 1_555 1_555
C30A C29A 1_555 1_555
H11A C30A 1_555 1_555
C31A N5A 1_555 1_555
H12A C31A 1_555 1_555
C32A H13A 1_555 1_555
C33A C32A 1_555 1_555
H14A C33A 1_555 1_555
C34A C34 1_555 1_555
C35A C34A 1_555 1_555
H15A C35A 1_555 1_555
C36A N6A 1_555 1_555
H16A C36A 1_555 1_555
O11 C15 1_555 1_555
C6 C8 1_555 1_555
C14 C16 1_555 1_555
C20 C21 1_555 1_555
C25 C26 1_555 1_555
C30 C31 1_555 1_555
C35 C36 1_555 1_555
C6_2 C8_2 1_555 1_555
C14A C15A 1_555 1_555
C14A C16A 1_555 1_555
C20A C21A 1_555 1_555
C25A C26A 1_555 1_555
C28A C29A 1_555 1_555
C30A C31A 1_555 1_555
C33A C34A 1_555 1_555
C35A C36A 1_555 1_555

#END
