
#######################################################################
#
#                 Cambridge Crystallographic Data Centre
#                                CCDC 
#
#######################################################################
#
# If this CIF has been generated from an entry in the Cambridge 
# Structural Database, then it will include bibliographic, chemical, 
# crystal, experimental, refinement or atomic coordinate data resulting 
# from the CCDC's data processing and validation procedures.
#
#######################################################################

data_NULGIL
_symmetry_cell_setting           trigonal
_symmetry_space_group_name_H-M   'P -3'
_symmetry_Int_Tables_number      147
_space_group_name_Hall           '-P 3'
loop_
_symmetry_equiv_pos_site_id
_symmetry_equiv_pos_as_xyz
1 x,y,z
2 -y,x-y,z
3 -x+y,-x,z
4 -x,-y,-z
5 y,-x+y,-z
6 x-y,x,-z
_cell_length_a                   13.5996(3)
_cell_length_b                   13.5996(3)
_cell_length_c                   9.2379(4)
_cell_angle_alpha                90
_cell_angle_beta                 90
_cell_angle_gamma                120
_cell_volume                     1479.64
loop_
_atom_site_label
_atom_site_type_symbol
_atom_site_fract_x
_atom_site_fract_y
_atom_site_fract_z
Fe1 Fe 0.6667 0.3333 0.13695(4)
N1 N 0.53715(13) 0.21667(12) 0.02966(16)
N2 N 0.54428(12) 0.32951(12) 0.25334(15)
N3 N 0.36159(15) 0.24595(18) 0.2965(2)
H1 H 0.2897 0.2003 0.2887
C1 C 0.6667 0.3333 -0.2755(4)
H2 H 0.6667 0.3333 -0.3816
C2 C 0.5593(2) 0.21935(19) -0.2414(2)
H3 H 0.4953 0.2319 -0.2496
H4 H 0.5512 0.1673 -0.3183
C3 C 0.54489(18) 0.15660(17) -0.0981(2)
H5 H 0.4767 0.0827 -0.1037
H6 H 0.6088 0.1443 -0.0858
C4 C 0.43923(15) 0.18465(17) 0.0848(2)
H7 H 0.3723 0.1252 0.0475
C5 C 0.44258(15) 0.24901(17) 0.2095(2)
C6 C 0.52691(18) 0.37947(18) 0.3714(2)
H8 H 0.5834 0.4391 0.4245
C7 C 0.4135(2) 0.3277(2) 0.3986(3)
H9 H 0.3785 0.3450 0.4727
N1A N 0.78333(12) 0.32048(18) 0.02966(16)
N1B N 0.67952(18) 0.46285(13) 0.02966(16)
N2A N 0.67049(12) 0.21477(17) 0.25334(15)
N2B N 0.78523(17) 0.45572(12) 0.25334(15)
N3A N 0.75405(18) 0.11564(23) 0.2965(2)
N3B N 0.88436(23) 0.63841(15) 0.2965(2)
H1A H 0.7997 0.0894 0.2887
H1B H 0.9106 0.7103 0.2887
C2A C 0.78065(19) 0.33995(28) -0.2414(2)
C2B C 0.66005(28) 0.4407(2) -0.2414(2)
H3A H 0.7681 0.2634 -0.2496
H3B H 0.7366 0.5047 -0.2496
H4A H 0.8327 0.3839 -0.3183
H4B H 0.6161 0.4488 -0.3183
C3A C 0.84340(17) 0.38829(25) -0.0981(2)
C3B C 0.61171(25) 0.45511(18) -0.0981(2)
H5A H 0.9173 0.3940 -0.1037
H5B H 0.6060 0.5233 -0.1037
H6A H 0.8557 0.4645 -0.0858
H6B H 0.5355 0.3912 -0.0858
C4A C 0.81535(17) 0.25458(23) 0.0848(2)
C4B C 0.74542(23) 0.56077(15) 0.0848(2)
H7A H 0.8748 0.2471 0.0475
H7B H 0.7529 0.6277 0.0475
C5A C 0.75099(17) 0.19357(23) 0.2095(2)
C5B C 0.80643(23) 0.55742(15) 0.2095(2)
C6A C 0.62053(18) 0.14744(25) 0.3714(2)
C6B C 0.85256(25) 0.47309(18) 0.3714(2)
H8A H 0.5609 0.1443 0.4245
H8B H 0.8557 0.4166 0.4245
C7A C 0.6723(2) 0.0858(3) 0.3986(3)
C7B C 0.9142(3) 0.5865(2) 0.3986(3)
H9A H 0.6550 0.0335 0.4727
H9B H 0.9665 0.6215 0.4727
Cl1 Cl 0.15783(4) -0.07284(4) 0.25440(5)
K1 K 0.0000 0.0000 0.5000
K2 K 0.0000 0.0000 0.0000
O1 O 0.27345(15) -0.04470(17) 0.2477(2)
O2 O 0.09356(19) -0.14264(18) 0.1347(2)
O3 O 0.14989(14) 0.02920(13) 0.2504(2)
O4 O 0.10643(16) -0.13257(16) 0.38503(19)
Cl1A Cl 0.07284(4) 0.23067(6) 0.25440(5)
Cl1B Cl -0.23067(6) -0.15783(4) 0.25440(5)
Cl1C Cl -0.15783(4) 0.07284(4) 0.74560(5)
Cl1D Cl -0.07284(4) -0.23067(6) 0.74560(5)
Cl1E Cl 0.23067(6) 0.15783(4) 0.74560(5)
K2_2 K 0.0000 0.0000 1.0000
O1A O 0.04470(17) 0.31815(23) 0.2477(2)
O1B O -0.31815(23) -0.27345(15) 0.2477(2)
O1C O -0.27345(15) 0.04470(17) 0.7523(2)
O1D O -0.04470(17) -0.31815(23) 0.7523(2)
O1E O 0.31815(23) 0.27345(15) 0.7523(2)
O2A O 0.14264(18) 0.23620(26) 0.1347(2)
O2B O -0.23620(26) -0.09356(19) 0.1347(2)
O2C O -0.09356(19) 0.14264(18) 0.8653(2)
O2D O -0.14264(18) -0.23620(26) 0.8653(2)
O2E O 0.23620(26) 0.09356(19) 0.8653(2)
O2C_2 O -0.09356(19) 0.14264(18) -0.1347(2)
O2D_2 O -0.14264(18) -0.23620(26) -0.1347(2)
O2E_2 O 0.23620(26) 0.09356(19) -0.1347(2)
O3A O -0.02920(13) 0.12069(19) 0.2504(2)
O3B O -0.12069(19) -0.14989(14) 0.2504(2)
O3C O -0.14989(14) -0.02920(13) 0.7496(2)
O3D O 0.02920(13) -0.12069(19) 0.7496(2)
O3E O 0.12069(19) 0.14989(14) 0.7496(2)
O3C_2 O -0.14989(14) -0.02920(13) -0.2504(2)
O3D_2 O 0.02920(13) -0.12069(19) -0.2504(2)
O3E_2 O 0.12069(19) 0.14989(14) -0.2504(2)
O4A O 0.13257(16) 0.23900(23) 0.38503(19)
O4B O -0.23900(23) -0.10643(16) 0.38503(19)
O4C O -0.10643(16) 0.13257(16) 0.61497(19)
O4D O -0.13257(16) -0.23900(23) 0.61497(19)
O4E O 0.23900(23) 0.10643(16) 0.61497(19)
loop_
_geom_bond_atom_site_label_1
_geom_bond_atom_site_label_2
_geom_bond_site_symmetry_1
_geom_bond_site_symmetry_2
Fe1 N1 1_555 1_555
Cl1 O1 1_555 1_555
K1 O3 1_555 1_555
K2 O2 1_555 1_555
O2 Cl1 1_555 1_555
O3 Cl1 1_555 1_555
O4 Cl1 1_555 1_555
N1 C3 1_555 1_555
N2 Fe1 1_555 1_555
N3 H1 1_555 1_555
C1 H2 1_555 1_555
C2 C1 1_555 1_555
H3 C2 1_555 1_555
H4 C2 1_555 1_555
C3 C2 1_555 1_555
H5 C3 1_555 1_555
H6 C3 1_555 1_555
C4 N1 1_555 1_555
H7 C4 1_555 1_555
C5 N2 1_555 1_555
C6 N2 1_555 1_555
H8 C6 1_555 1_555
C7 N3 1_555 1_555
H9 C7 1_555 1_555
Cl1A O1A 1_555 1_555
Cl1B O1B 1_555 1_555
Cl1C O1C 1_555 1_555
Cl1D O1D 1_555 1_555
Cl1E O1E 1_555 1_555
K2_2 O2C 1_555 1_555
O2A K2 1_555 1_555
O2B K2 1_555 1_555
O2C Cl1C 1_555 1_555
O2D Cl1D 1_555 1_555
O2E Cl1E 1_555 1_555
O2C_2 K2 1_555 1_555
O2D_2 K2 1_555 1_555
O2E_2 K2 1_555 1_555
O3A K1 1_555 1_555
O3B K1 1_555 1_555
O3C K1 1_555 1_555
O3D K1 1_555 1_555
O3E K1 1_555 1_555
O3C_2 K2 1_555 1_555
O3D_2 K2 1_555 1_555
O3E_2 K2 1_555 1_555
O4A K1 1_555 1_555
O4B K1 1_555 1_555
O4C K1 1_555 1_555
O4D K1 1_555 1_555
O4E K1 1_555 1_555
N1A Fe1 1_555 1_555
N1B Fe1 1_555 1_555
N2A Fe1 1_555 1_555
N2B Fe1 1_555 1_555
N3A H1A 1_555 1_555
N3B H1B 1_555 1_555
C2A C1 1_555 1_555
C2B C1 1_555 1_555
H3A C2A 1_555 1_555
H3B C2B 1_555 1_555
H4A C2A 1_555 1_555
H4B C2B 1_555 1_555
C3A N1A 1_555 1_555
C3B N1B 1_555 1_555
H5A C3A 1_555 1_555
H5B C3B 1_555 1_555
H6A C3A 1_555 1_555
H6B C3B 1_555 1_555
C4A N1A 1_555 1_555
C4B N1B 1_555 1_555
H7A C4A 1_555 1_555
H7B C4B 1_555 1_555
C5A N2A 1_555 1_555
C5B N2B 1_555 1_555
C6A N2A 1_555 1_555
C6B N2B 1_555 1_555
H8A C6A 1_555 1_555
H8B C6B 1_555 1_555
C7A N3A 1_555 1_555
C7B N3B 1_555 1_555
H9A C7A 1_555 1_555
H9B C7B 1_555 1_555
K1 O4 1_555 1_555
K2 O3 1_555 1_555
K2 O3A 1_555 1_555
K2 O3B 1_555 1_555
N3 C5 1_555 1_555
C4 C5 1_555 1_555
C6 C7 1_555 1_555
Cl1A O2A 1_555 1_555
Cl1A O3A 1_555 1_555
Cl1A O4A 1_555 1_555
Cl1B O2B 1_555 1_555
Cl1B O3B 1_555 1_555
Cl1B O4B 1_555 1_555
Cl1C O3C 1_555 1_555
Cl1C O4C 1_555 1_555
Cl1D O3D 1_555 1_555
Cl1D O4D 1_555 1_555
Cl1E O3E 1_555 1_555
Cl1E O4E 1_555 1_555
K2_2 O2D 1_555 1_555
K2_2 O2E 1_555 1_555
K2_2 O3C 1_555 1_555
K2_2 O3D 1_555 1_555
K2_2 O3E 1_555 1_555
N3A C5A 1_555 1_555
N3B C5B 1_555 1_555
C2A C3A 1_555 1_555
C2B C3B 1_555 1_555
C4A C5A 1_555 1_555
C4B C5B 1_555 1_555
C6A C7A 1_555 1_555
C6B C7B 1_555 1_555

#END
