
#######################################################################
#
#                 Cambridge Crystallographic Data Centre
#                                CCDC 
#
#######################################################################
#
# If this CIF has been generated from an entry in the Cambridge 
# Structural Database, then it will include bibliographic, chemical, 
# crystal, experimental, refinement or atomic coordinate data resulting 
# from the CCDC's data processing and validation procedures.
#
#######################################################################

data_NULGUX
_symmetry_cell_setting           monoclinic
_symmetry_space_group_name_H-M   'C 2/c'
_symmetry_Int_Tables_number      15
_space_group_name_Hall           '-C 2yn'
loop_
_symmetry_equiv_pos_site_id
_symmetry_equiv_pos_as_xyz
1 x,y,z
2 -x,y,1/2-z
3 1/2+x,1/2+y,z
4 1/2-x,1/2+y,1/2-z
5 -x,-y,-z
6 x,-y,1/2+z
7 1/2-x,1/2-y,-z
8 1/2+x,1/2-y,1/2+z
_cell_length_a                   22.038(5)
_cell_length_b                   8.7018(18)
_cell_length_c                   23.130(5)
_cell_angle_alpha                90
_cell_angle_beta                 98.678(2)
_cell_angle_gamma                90
_cell_volume                     4384.87
loop_
_atom_site_label
_atom_site_type_symbol
_atom_site_fract_x
_atom_site_fract_y
_atom_site_fract_z
Pr1 Pr 0.190350(7) -0.196510(18) 0.245690(6)
P1 P 0.15334(3) -0.57146(9) 0.17286(3)
S1 S -0.10556(3) -0.13094(9) 0.40627(3)
N1 N 0.26875(11) -0.3213(3) 0.05745(10)
H1 H 0.2340 -0.3056 0.0735
C1 C 0.10220(14) -0.2436(4) 0.32974(13)
O1 O 0.16051(10) -0.2661(3) 0.34334(10)
N2 N 0.05668(11) -0.7008(3) 0.22383(11)
H2 H 0.0853 -0.6995 0.2566
P2 P 0.31758(3) -0.32746(9) 0.17534(3)
C2 C 0.06528(13) -0.2474(4) 0.37877(13)
O2 O 0.07818(10) -0.2174(3) 0.27857(10)
C3 C 0.09203(15) -0.2913(4) 0.43549(14)
O3 O 0.15161(11) -0.3316(3) 0.44882(11)
H3 H 0.1686 -0.3212 0.4199
C4 C 0.05699(16) -0.2926(5) 0.48078(15)
H4 H 0.0745 -0.3248 0.5179
O4 O -0.12377(10) -0.0995(3) 0.34398(9)
C5 C -0.00318(16) -0.2466(5) 0.47090(15)
H5 H -0.0262 -0.2457 0.5015
O5 O -0.14240(10) -0.2535(3) 0.42785(10)
C6 C -0.03009(13) -0.2008(4) 0.41481(13)
O6 O -0.10573(11) 0.0057(3) 0.44170(11)
C7 C 0.00336(13) -0.2034(3) 0.36891(13)
H6 H -0.0152 -0.1760 0.3315
O7 O 0.25127(9) -0.2820(3) 0.17532(9)
C8 C 0.31414(14) -0.4076(4) 0.10138(12)
H7 H 0.3545 -0.4023 0.0897
H8 H 0.3023 -0.5149 0.1017
O8 O 0.34066(9) -0.4557(2) 0.21676(9)
C9 C 0.29304(15) -0.1678(4) 0.04236(13)
H9 H 0.3314 -0.1820 0.0272
H10 H 0.3013 -0.1056 0.0775
O9 O 0.36059(10) -0.1896(3) 0.18111(9)
C10 C 0.25220(15) -0.4150(4) 0.00268(12)
H11 H 0.2345 -0.5120 0.0125
H12 H 0.2891 -0.4374 -0.0139
O10 O 0.21120(9) -0.6564(3) 0.19462(10)
C11 C 0.08883(14) -0.7058(4) 0.17096(13)
H13 H 0.0591 -0.6837 0.1366
H14 H 0.1039 -0.8093 0.1668
O11 O 0.15262(11) -0.5419(3) 0.10526(9)
H15 H 0.1495 -0.4495 0.0986
C12 C 0.01776(13) -0.8425(3) 0.22446(14)
H16 H 0.0439 -0.9327 0.2267
H17 H -0.0108 -0.8481 0.1882
O12 O 0.13908(9) -0.4287(2) 0.20411(9)
C13 C 0.01642(13) -0.5612(4) 0.22372(14)
H18 H -0.0134 -0.5601 0.1883
H19 H 0.0413 -0.4692 0.2241
O13 O 0.25657(10) 0.0376(2) 0.20378(9)
H20 H 0.2333 0.0692 0.1734
H21 H 0.2860 -0.0084 0.1912
Pr1A Pr -0.190350(7) -0.196510(18) 0.254310(6)
Pr1C Pr 0.309650(7) -0.696510(18) 0.254310(6)
Pr1C_2 Pr 0.309650(7) 0.303490(18) 0.254310(6)
Pr1F Pr 0.309650(7) -0.303490(18) -0.245690(6)
Pr1E Pr 0.190350(7) 0.196510(18) -0.254310(6)
Pr1B Pr -0.309650(7) -0.696510(18) 0.245690(6)
P1A P -0.15334(3) -0.57146(9) 0.32714(3)
S1A S 0.10556(3) -0.13094(9) 0.09373(3)
N1F N 0.23125(11) -0.1787(3) -0.05745(10)
H1F H 0.2660 -0.1944 -0.0735
C1A C -0.10220(14) -0.2436(4) 0.17026(13)
O1A O -0.16051(10) -0.2661(3) 0.15666(10)
N2A N -0.05668(11) -0.7008(3) 0.27617(11)
H2A H -0.0853 -0.6995 0.2434
P2F P 0.18242(3) -0.17254(9) -0.17534(3)
C2A C -0.06528(13) -0.2474(4) 0.12123(13)
O2A O -0.07818(10) -0.2174(3) 0.22143(10)
C3A C -0.09203(15) -0.2913(4) 0.06451(14)
O3A O -0.15161(11) -0.3316(3) 0.05118(11)
H3A H -0.1686 -0.3212 0.0801
C4A C -0.05699(16) -0.2926(5) 0.01922(15)
H4A H -0.0745 -0.3248 -0.0179
O4A O 0.12377(10) -0.0995(3) 0.15602(9)
C5A C 0.00318(16) -0.2466(5) 0.02910(15)
H5A H 0.0262 -0.2457 -0.0015
O5A O 0.14240(10) -0.2535(3) 0.07215(10)
C6A C 0.03009(13) -0.2008(4) 0.08519(13)
O6A O 0.10573(11) 0.0057(3) 0.05830(11)
C7A C -0.00336(13) -0.2034(3) 0.13109(13)
H6A H 0.0152 -0.1760 0.1685
O7F O 0.24873(9) -0.2180(3) -0.17532(9)
O7A O -0.25127(9) -0.2820(3) 0.32468(9)
C8F C 0.18586(14) -0.0924(4) -0.10138(12)
H7F H 0.1455 -0.0977 -0.0897
H8F H 0.1977 0.0149 -0.1017
O8F O 0.15934(9) -0.0443(2) -0.21676(9)
O8C O 0.15934(9) 0.0443(2) 0.28324(9)
O8B O -0.15934(9) 0.0443(2) 0.21676(9)
C9F C 0.20696(15) -0.3322(4) -0.04236(13)
H9F H 0.1686 -0.3180 -0.0272
H10F H 0.1987 -0.3944 -0.0775
O9F O 0.13941(10) -0.3104(3) -0.18111(9)
C10F C 0.24780(15) -0.0850(4) -0.00268(12)
H11F H 0.2655 0.0120 -0.0125
H12F H 0.2109 -0.0626 0.0139
O10B O -0.28880(9) -0.1564(3) 0.19462(10)
O10C O 0.28880(9) -0.1564(3) 0.30538(10)
O10A O -0.21120(9) -0.6564(3) 0.30538(10)
C11A C -0.08883(14) -0.7058(4) 0.32904(13)
H13A H -0.0591 -0.6837 0.3634
H14A H -0.1039 -0.8093 0.3332
O11A O -0.15262(11) -0.5419(3) 0.39474(9)
H15A H -0.1495 -0.4495 0.4014
C12A C -0.01776(13) -0.8425(3) 0.27554(14)
H16A H -0.0439 -0.9327 0.2733
H17A H 0.0108 -0.8481 0.3118
O12A O -0.13908(9) -0.4287(2) 0.29589(9)
C13A C -0.01642(13) -0.5612(4) 0.27628(14)
H18A H 0.0134 -0.5601 0.3117
H19A H -0.0413 -0.4692 0.2759
O13C O 0.24343(10) -0.4624(2) 0.29622(9)
O13A O -0.25657(10) 0.0376(2) 0.29622(9)
O13B O -0.24343(10) -0.4624(2) 0.20378(9)
H20C H 0.2667 -0.4308 0.3266
H20A H -0.2333 0.0692 0.3266
H20B H -0.2667 -0.4308 0.1734
H21C H 0.2140 -0.5084 0.3088
H21A H -0.2860 -0.0084 0.3088
H21B H -0.2140 -0.5084 0.1912
O14 O 0.21964(13) 0.1515(3) 0.08826(12)
H22 H 0.2014 0.2356 0.0929
H23 H 0.1884 0.0946 0.0785
O15 O -0.0611(3) -0.6576(9) 0.0949(3)
loop_
_geom_bond_atom_site_label_1
_geom_bond_atom_site_label_2
_geom_bond_site_symmetry_1
_geom_bond_site_symmetry_2
Pr1 O1 1_555 1_555
P1 O10 1_555 1_555
S1 O4 1_555 1_555
N1 H1 1_555 1_555
C1 O1 1_555 1_555
N2 H2 1_555 1_555
P2 O7 1_555 1_555
C2 C1 1_555 1_555
O2 Pr1 1_555 1_555
C3 C2 1_555 1_555
O3 C3 1_555 1_555
H3 O3 1_555 1_555
C4 C3 1_555 1_555
H4 C4 1_555 1_555
O4 Pr1A 1_555 1_555
C5 C4 1_555 1_555
H5 C5 1_555 1_555
O5 S1 1_555 1_555
C6 S1 1_555 1_555
O6 S1 1_555 1_555
C7 C2 1_555 1_555
H6 C7 1_555 1_555
O7 Pr1 1_555 1_555
C8 N1 1_555 1_555
H7 C8 1_555 1_555
H8 C8 1_555 1_555
O8 P2 1_555 1_555
C9 N1 1_555 1_555
H9 C9 1_555 1_555
H10 C9 1_555 1_555
O9 P2 1_555 1_555
C10 N1 1_555 1_555
H11 C10 1_555 1_555
H12 C10 1_555 1_555
O10 Pr1C 1_555 1_555
C11 P1 1_555 1_555
H13 C11 1_555 1_555
H14 C11 1_555 1_555
O11 P1 1_555 1_555
H15 O11 1_555 1_555
C12 N2 1_555 1_555
H16 C12 1_555 1_555
H17 C12 1_555 1_555
O12 Pr1 1_555 1_555
C13 N2 1_555 1_555
H18 C13 1_555 1_555
H19 C13 1_555 1_555
O13 Pr1 1_555 1_555
H20 O13 1_555 1_555
H21 O13 1_555 1_555
O14 H22 1_555 1_555
H23 O14 1_555 1_555
Pr1A O1A 1_555 1_555
Pr1C O8 1_555 1_555
Pr1C_2 O13 1_555 1_555
Pr1F O7F 1_555 1_555
Pr1E O8F 1_555 1_555
Pr1B O10A 1_555 1_555
P1A O10A 1_555 1_555
S1A O4A 1_555 1_555
N1F H1F 1_555 1_555
C1A O1A 1_555 1_555
N2A H2A 1_555 1_555
P2F O7F 1_555 1_555
C2A C1A 1_555 1_555
O2A Pr1A 1_555 1_555
C3A C2A 1_555 1_555
O3A C3A 1_555 1_555
H3A O3A 1_555 1_555
C4A C3A 1_555 1_555
H4A C4A 1_555 1_555
O4A Pr1 1_555 1_555
C5A C4A 1_555 1_555
H5A C5A 1_555 1_555
O5A S1A 1_555 1_555
C6A S1A 1_555 1_555
O6A S1A 1_555 1_555
C7A C2A 1_555 1_555
H6A C7A 1_555 1_555
O7A Pr1A 1_555 1_555
C8F N1F 1_555 1_555
H7F C8F 1_555 1_555
H8F C8F 1_555 1_555
O8F P2F 1_555 1_555
O8C Pr1 1_555 1_555
O8B Pr1A 1_555 1_555
C9F C10 1_555 1_555
H9F C9F 1_555 1_555
H10F C9F 1_555 1_555
O9F P2F 1_555 1_555
C10F C9 1_555 1_555
H11F C10F 1_555 1_555
H12F C10F 1_555 1_555
O10B Pr1A 1_555 1_555
O10C Pr1 1_555 1_555
C11A P1A 1_555 1_555
H13A C11A 1_555 1_555
H14A C11A 1_555 1_555
O11A P1A 1_555 1_555
H15A O11A 1_555 1_555
C12A C12 1_555 1_555
H16A C12A 1_555 1_555
H17A C12A 1_555 1_555
O12A Pr1A 1_555 1_555
C13A C13 1_555 1_555
H18A C13A 1_555 1_555
H19A C13A 1_555 1_555
O13C Pr1 1_555 1_555
O13A Pr1A 1_555 1_555
O13B Pr1A 1_555 1_555
H20C O13C 1_555 1_555
H20A O13A 1_555 1_555
H20B O13B 1_555 1_555
H21C O13C 1_555 1_555
H21A O13A 1_555 1_555
H21B O13B 1_555 1_555
P1 O12 1_555 1_555
C1 O2 1_555 1_555
N2 C11 1_555 1_555
P2 C8 1_555 1_555
C5 C6 1_555 1_555
C6 C7 1_555 1_555
Pr1C O13C 1_555 1_555
Pr1B O13B 1_555 1_555
P1A O12A 1_555 1_555
N1F C9F 1_555 1_555
N1F C10F 1_555 1_555
C1A O2A 1_555 1_555
N2A C11A 1_555 1_555
N2A C12A 1_555 1_555
N2A C13A 1_555 1_555
P2F C8F 1_555 1_555
C5A C6A 1_555 1_555
C6A C7A 1_555 1_555

#END
