
#######################################################################
#
#                 Cambridge Crystallographic Data Centre
#                                CCDC 
#
#######################################################################
#
# If this CIF has been generated from an entry in the Cambridge 
# Structural Database, then it will include bibliographic, chemical, 
# crystal, experimental, refinement or atomic coordinate data resulting 
# from the CCDC's data processing and validation procedures.
#
#######################################################################

data_NULHEJ
_symmetry_cell_setting           trigonal
_symmetry_space_group_name_H-M   'P 3'
_symmetry_Int_Tables_number      143
_space_group_name_Hall           'P 3'
loop_
_symmetry_equiv_pos_site_id
_symmetry_equiv_pos_as_xyz
1 x,y,z
2 -y,x-y,z
3 -x+y,-x,z
_cell_length_a                   13.0601(3)
_cell_length_b                   13.0601(3)
_cell_length_c                   5.8637(3)
_cell_angle_alpha                90
_cell_angle_beta                 90
_cell_angle_gamma                120
_cell_volume                     866.155
loop_
_atom_site_label
_atom_site_type_symbol
_atom_site_fract_x
_atom_site_fract_y
_atom_site_fract_z
Ho1 Ho 0.0000 0.0000 1.10937(2)
Co1 Co 0.3333 0.6667 0.90106(16)
C1 C 0.1818(3) 0.4317(3) 0.8398(7)
C2 C 0.0898(3) 0.3253(3) 0.7618(7)
C3 C 0.0286(4) 0.3257(4) 0.5679(7)
H1 H -0.0330 0.2554 0.5104
C4 C 0.0611(4) 0.4334(4) 0.4605(7)
H2 H 0.0213 0.4360 0.3312
C5 C 0.1532(3) 0.5351(3) 0.5500(7)
H3 H 0.1746 0.6068 0.4793
C6 C 0.2567(4) 0.4444(3) 1.0510(7)
C7 C 0.0561(3) 0.2116(4) 0.8854(8)
N1 N 0.2131(3) 0.5349(3) 0.7351(6)
O1 O 0.3363(2) 0.5512(2) 1.0869(5)
O2 O 0.2426(2) 0.3577(2) 1.1567(5)
O3 O 0.1002(3) 0.1486(2) 0.8191(5)
O4 O -0.0170(2) 0.1793(2) 1.0478(5)
O5 O -0.1384(3) -0.0022(3) 1.3699(6)
H4 H -0.1655 -0.0628 1.4527
H5 H -0.1940 -0.0023 1.2973
C1A C -0.4317(3) -0.2499(4) 0.8398(7)
C2A C -0.3253(3) -0.2355(4) 0.7618(7)
C3A C -0.3257(4) -0.2971(6) 0.5679(7)
H1A H -0.2554 -0.2884 0.5104
C4A C -0.4334(4) -0.3723(6) 0.4605(7)
H2A H -0.4360 -0.4147 0.3312
C5A C -0.5351(3) -0.3819(4) 0.5500(7)
H3A H -0.6068 -0.4322 0.4793
C6A C -0.4444(3) -0.1877(5) 1.0510(7)
C7A C -0.2116(4) -0.1555(5) 0.8854(8)
N1A N -0.5349(3) -0.3218(4) 0.7351(6)
O1A O -0.5512(2) -0.2149(3) 1.0869(5)
O2A O -0.3577(2) -0.1151(3) 1.1567(5)
O3A O -0.1486(2) -0.0484(4) 0.8191(5)
O4A O -0.1793(2) -0.1963(3) 1.0478(5)
O5A O 0.0022(3) -0.1362(4) 1.3699(6)
H4A H 0.0628 -0.1027 1.4527
H5A H 0.0023 -0.1917 1.2973
C1B C 0.2499(4) -0.1818(3) 0.8398(7)
C2B C 0.2355(4) -0.0898(3) 0.7618(7)
C3B C 0.2971(6) -0.0286(4) 0.5679(7)
H1B H 0.2884 0.0330 0.5104
C4B C 0.3723(6) -0.0611(4) 0.4605(7)
H2B H 0.4147 -0.0213 0.3312
C5B C 0.3819(4) -0.1532(3) 0.5500(7)
H3B H 0.4322 -0.1746 0.4793
C6B C 0.1877(5) -0.2567(4) 1.0510(7)
C7B C 0.1555(5) -0.0561(3) 0.8854(8)
N1B N 0.3218(4) -0.2131(3) 0.7351(6)
O1B O 0.2149(3) -0.3363(2) 1.0869(5)
O2B O 0.1151(3) -0.2426(2) 1.1567(5)
O3B O 0.0484(4) -0.1002(3) 0.8191(5)
O4B O 0.1963(3) 0.0170(2) 1.0478(5)
O5B O 0.1362(4) 0.1384(3) 1.3699(6)
H4B H 0.1027 0.1655 1.4527
H5B H 0.1917 0.1940 1.2973
Co1_2 Co -0.6667 -0.3333 0.90106(16)
Co1_3 Co 0.3333 -0.3333 0.90106(16)
N1A_2 N 0.4651(3) 0.6782(4) 0.7351(6)
N1B_2 N 0.3218(4) 0.7869(3) 0.7351(6)
O1A_2 O 0.4488(2) 0.7851(3) 1.0869(5)
O1B_2 O 0.2149(3) 0.6637(2) 1.0869(5)
loop_
_geom_bond_atom_site_label_1
_geom_bond_atom_site_label_2
_geom_bond_site_symmetry_1
_geom_bond_site_symmetry_2
Ho1 O3 1_555 1_555
Co1 N1 1_555 1_555
C1 C2 1_555 1_555
C2 C3 1_555 1_555
C3 H1 1_555 1_555
C4 C3 1_555 1_555
H2 C4 1_555 1_555
C5 C4 1_555 1_555
H3 C5 1_555 1_555
C6 C1 1_555 1_555
C7 C2 1_555 1_555
N1 C1 1_555 1_555
O1 Co1 1_555 1_555
O2 C6 1_555 1_555
O3 C7 1_555 1_555
O4 Ho1 1_555 1_555
O5 Ho1 1_555 1_555
H4 O5 1_555 1_555
H5 O5 1_555 1_555
C1A C2A 1_555 1_555
C2A C3A 1_555 1_555
C3A H1A 1_555 1_555
C4A C3A 1_555 1_555
H2A C4A 1_555 1_555
C5A C4A 1_555 1_555
H3A C5A 1_555 1_555
C6A C1A 1_555 1_555
C7A C2A 1_555 1_555
N1A C1A 1_555 1_555
O1A C6A 1_555 1_555
O2A C6A 1_555 1_555
O3A Ho1 1_555 1_555
O4A Ho1 1_555 1_555
O5A Ho1 1_555 1_555
H4A O5A 1_555 1_555
H5A O5A 1_555 1_555
C1B C2B 1_555 1_555
C2B C3B 1_555 1_555
C3B H1B 1_555 1_555
C4B C3B 1_555 1_555
H2B C4B 1_555 1_555
C5B C4B 1_555 1_555
H3B C5B 1_555 1_555
C6B C1B 1_555 1_555
C7B C2B 1_555 1_555
N1B C1B 1_555 1_555
O1B C6B 1_555 1_555
O2B C6B 1_555 1_555
O3B Ho1 1_555 1_555
O4B Ho1 1_555 1_555
O5B Ho1 1_555 1_555
H4B O5B 1_555 1_555
H5B O5B 1_555 1_555
Co1_2 N1A 1_555 1_555
Co1_3 N1B 1_555 1_555
N1A_2 Co1 1_555 1_555
N1B_2 Co1 1_555 1_555
O1A_2 Co1 1_555 1_555
O1B_2 Co1 1_555 1_555
C5 N1 1_555 1_555
C6 O1 1_555 1_555
C7 O4 1_555 1_555
C5A N1A 1_555 1_555
C7A O3A 1_555 1_555
C7A O4A 1_555 1_555
O1A Co1_2 1_555 1_555
C5B N1B 1_555 1_555
C7B O3B 1_555 1_555
C7B O4B 1_555 1_555
O1B Co1_3 1_555 1_555

#END
