
#######################################################################
#
#                 Cambridge Crystallographic Data Centre
#                                CCDC 
#
#######################################################################
#
# If this CIF has been generated from an entry in the Cambridge 
# Structural Database, then it will include bibliographic, chemical, 
# crystal, experimental, refinement or atomic coordinate data resulting 
# from the CCDC's data processing and validation procedures.
#
#######################################################################

data_NULHOT
_symmetry_cell_setting           trigonal
_symmetry_space_group_name_H-M   'P 3'
_symmetry_Int_Tables_number      143
_space_group_name_Hall           'P 3'
loop_
_symmetry_equiv_pos_site_id
_symmetry_equiv_pos_as_xyz
1 x,y,z
2 -y,x-y,z
3 -x+y,-x,z
_cell_length_a                   13.0373(3)
_cell_length_b                   13.0373(3)
_cell_length_c                   5.8491(3)
_cell_angle_alpha                90
_cell_angle_beta                 90
_cell_angle_gamma                120
_cell_volume                     860.984
loop_
_atom_site_label
_atom_site_type_symbol
_atom_site_fract_x
_atom_site_fract_y
_atom_site_fract_z
Tm1 Tm 1.0000 1.0000 -0.1094
Co1 Co 0.6667 0.3333 0.09869(15)
C1 C 0.8181(4) 0.5685(4) 0.1589(7)
C2 C 0.9093(4) 0.6731(4) 0.2342(7)
C3 C 0.9705(4) 0.6746(4) 0.4340(7)
H1 H 1.0305 0.7455 0.4937
C4 C 0.9393(4) 0.5681(5) 0.5386(8)
H2 H 0.9801 0.5653 0.6666
C5 C 0.8464(4) 0.4659(4) 0.4494(7)
H3 H 0.8244 0.3940 0.5208
C6 C 0.7429(4) 0.5556(4) -0.0479(7)
C7 C 0.9436(4) 0.7898(4) 0.1124(8)
N1 N 0.7870(3) 0.4664(3) 0.2645(6)
O1 O 0.6618(3) 0.4490(3) -0.0882(5)
O2 O 0.7576(3) 0.6426(3) -0.1582(5)
O3 O 0.8998(3) 0.8527(3) 0.1794(5)
O4 O 1.0166(3) 0.8223(3) -0.0497(5)
O5 O 1.1364(3) 1.0041(3) -0.3669(6)
H4 H 1.1636 1.0647 -0.4497
H5 H 1.1921 1.0042 -0.2943
C1A C 0.4315(4) 0.2496(6) 0.1589(7)
C2A C 0.3269(4) 0.2362(6) 0.2342(7)
C3A C 0.3254(4) 0.2959(6) 0.4340(7)
H1A H 0.2545 0.2850 0.4937
C4A C 0.4319(5) 0.3712(6) 0.5386(8)
H2A H 0.4347 0.4148 0.6666
C5A C 0.5341(4) 0.3805(6) 0.4494(7)
H3A H 0.6060 0.4304 0.5208
C6A C 0.4444(4) 0.1873(6) -0.0479(7)
C7A C 0.2102(4) 0.1538(6) 0.1124(8)
N1A N 0.5336(3) 0.3206(4) 0.2645(6)
O1A O 0.5510(3) 0.2128(4) -0.0882(5)
O2A O 0.3574(3) 0.1150(4) -0.1582(5)
O3A O 0.1473(3) 0.0471(4) 0.1794(5)
O4A O 0.1777(3) 0.1943(4) -0.0497(5)
C1B C 0.7504(6) 0.1819(4) 0.1589(7)
C2B C 0.7638(6) 0.0907(4) 0.2342(7)
C3B C 0.7041(6) 0.0295(4) 0.4340(7)
H1B H 0.7150 -0.0305 0.4937
C4B C 0.6288(6) 0.0607(4) 0.5386(8)
H2B H 0.5852 0.0199 0.6666
C5B C 0.6195(6) 0.1536(4) 0.4494(7)
H3B H 0.5696 0.1756 0.5208
C6B C 0.8127(6) 0.2571(4) -0.0479(7)
C7B C 0.8462(6) 0.0564(4) 0.1124(8)
N1B N 0.6794(4) 0.2130(3) 0.2645(6)
O1B O 0.7872(4) 0.3382(3) -0.0882(5)
O2B O 0.8850(4) 0.2424(3) -0.1582(5)
O3B O 0.9529(4) 0.1002(3) 0.1794(5)
O4B O 0.8057(4) -0.0166(3) -0.0497(5)
O5A O 0.9959(3) 1.1323(4) -0.3669(6)
H4A H 0.9353 1.0989 -0.4497
H5A H 0.9958 1.1879 -0.2943
O5B O 0.8677(4) 0.8636(3) -0.3669(6)
H4B H 0.9011 0.8364 -0.4497
H5B H 0.8121 0.8079 -0.2943
Tm1_2 Tm 0.0000 0.0000 -0.1094
Tm1_3 Tm 1.0000 0.0000 -0.1094
O3A_2 O 1.1473(3) 1.0471(4) 0.1794(5)
O3B_2 O 0.9529(4) 1.1002(3) 0.1794(5)
O4A_2 O 1.1777(3) 1.1943(4) -0.0497(5)
O4B_2 O 0.8057(4) 0.9834(3) -0.0497(5)
loop_
_geom_bond_atom_site_label_1
_geom_bond_atom_site_label_2
_geom_bond_site_symmetry_1
_geom_bond_site_symmetry_2
Tm1 O3 1_555 1_555
Co1 N1 1_555 1_555
C1 C2 1_555 1_555
C2 C3 1_555 1_555
C3 H1 1_555 1_555
C4 C3 1_555 1_555
H2 C4 1_555 1_555
C5 C4 1_555 1_555
H3 C5 1_555 1_555
C6 C1 1_555 1_555
C7 C2 1_555 1_555
N1 C1 1_555 1_555
O1 Co1 1_555 1_555
O2 C6 1_555 1_555
O3 C7 1_555 1_555
O4 Tm1 1_555 1_555
O5 Tm1 1_555 1_555
H4 O5 1_555 1_555
H5 O5 1_555 1_555
C1A C2A 1_555 1_555
C2A C3A 1_555 1_555
C3A H1A 1_555 1_555
C4A C3A 1_555 1_555
H2A C4A 1_555 1_555
C5A C4A 1_555 1_555
H3A C5A 1_555 1_555
C6A C1A 1_555 1_555
C7A C2A 1_555 1_555
N1A Co1 1_555 1_555
O1A Co1 1_555 1_555
O2A C6A 1_555 1_555
O3A C7A 1_555 1_555
O4A C7A 1_555 1_555
C1B C2B 1_555 1_555
C2B C3B 1_555 1_555
C3B H1B 1_555 1_555
C4B C3B 1_555 1_555
H2B C4B 1_555 1_555
C5B C4B 1_555 1_555
H3B C5B 1_555 1_555
C6B C1B 1_555 1_555
C7B C2B 1_555 1_555
N1B Co1 1_555 1_555
O1B Co1 1_555 1_555
O2B C6B 1_555 1_555
O3B C7B 1_555 1_555
O4B C7B 1_555 1_555
O5A Tm1 1_555 1_555
H4A O5A 1_555 1_555
H5A O5A 1_555 1_555
O5B Tm1 1_555 1_555
H4B O5B 1_555 1_555
H5B O5B 1_555 1_555
Tm1_2 O3A 1_555 1_555
Tm1_3 O3B 1_555 1_555
O3A_2 Tm1 1_555 1_555
O3B_2 Tm1 1_555 1_555
O4A_2 Tm1 1_555 1_555
O4B_2 Tm1 1_555 1_555
C5 N1 1_555 1_555
C6 O1 1_555 1_555
C7 O4 1_555 1_555
C1A N1A 1_555 1_555
C5A N1A 1_555 1_555
C6A O1A 1_555 1_555
O4A Tm1_2 1_555 1_555
C1B N1B 1_555 1_555
C5B N1B 1_555 1_555
C6B O1B 1_555 1_555
O4B Tm1_3 1_555 1_555

#END
