
#######################################################################
#
#                 Cambridge Crystallographic Data Centre
#                                CCDC 
#
#######################################################################
#
# If this CIF has been generated from an entry in the Cambridge 
# Structural Database, then it will include bibliographic, chemical, 
# crystal, experimental, refinement or atomic coordinate data resulting 
# from the CCDC's data processing and validation procedures.
#
#######################################################################

data_NULHOS
_symmetry_cell_setting           monoclinic
_symmetry_space_group_name_H-M   'C 2/c'
_symmetry_Int_Tables_number      15
_space_group_name_Hall           '-C 2yn'
loop_
_symmetry_equiv_pos_site_id
_symmetry_equiv_pos_as_xyz
1 x,y,z
2 -x,y,1/2-z
3 1/2+x,1/2+y,z
4 1/2-x,1/2+y,1/2-z
5 -x,-y,-z
6 x,-y,1/2+z
7 1/2-x,1/2-y,-z
8 1/2+x,1/2-y,1/2+z
_cell_length_a                   22.0735(9)
_cell_length_b                   8.7489(3)
_cell_length_c                   23.1978(11)
_cell_angle_alpha                90
_cell_angle_beta                 98.749(3)
_cell_angle_gamma                90
_cell_volume                     4427.8
loop_
_atom_site_label
_atom_site_type_symbol
_atom_site_fract_x
_atom_site_fract_y
_atom_site_fract_z
La1 La 0.30997(3) -0.30319(8) 0.25412(3)
S1 S 0.39439(15) -0.3666(4) 0.40741(15)
P1 P 0.18129(15) -0.1742(4) 0.32512(14)
O1 O 0.4225(5) -0.2802(13) 0.2197(5)
N1 N 0.2296(5) -0.1789(11) 0.4433(4)
H1 H 0.2647 -0.1917 0.4278
P2 P 0.34803(15) 0.0729(4) 0.32742(14)
O2 O 0.3415(5) -0.2325(13) 0.1546(5)
N2 N 0.4437(4) 0.2007(10) 0.2774(5)
H2 H 0.4149 0.2002 0.2448
O3 O 0.3477(5) -0.1665(17) 0.0505(5)
H3 H 0.3305 -0.1755 0.0793
O4 O 0.3764(4) -0.4009(12) 0.3458(4)
O5 O 0.3577(6) -0.2435(14) 0.4266(4)
O6 O 0.3950(5) -0.5046(13) 0.4429(5)
O7 O 0.1572(5) -0.0466(11) 0.2846(4)
O8 O 0.1398(5) -0.3125(12) 0.3196(4)
O9 O 0.2476(4) -0.2172(11) 0.3258(4)
O10 O 0.2900(4) 0.1545(12) 0.3065(4)
O11 O 0.3503(5) 0.0426(13) 0.3954(5)
H4 H 0.3529 -0.0495 0.4018
O12 O 0.3624(4) -0.0701(11) 0.2968(4)
O13 O 0.2569(5) -0.0369(11) 0.2043(4)
H5 H 0.2339 -0.0678 0.1738
H6 H 0.2864 0.0092 0.1921
C1 C 0.3970(6) -0.2570(15) 0.1685(7)
C2 C 0.4356(5) -0.2490(18) 0.1195(5)
C3 C 0.4067(6) -0.2096(19) 0.0640(5)
C4 C 0.4421(5) -0.206(2) 0.0191(5)
H9 H 0.4251 -0.1701 -0.0175
C5 C 0.4982(5) -0.256(2) 0.4714(5)
H10 H 0.4764 -0.2610 0.5026
C6 C 0.4698(6) -0.2985(18) 0.4160(5)
C7 C 0.4961(5) -0.2954(17) 0.1294(5)
H11 H 0.5141 -0.3246 0.1667
C8 C 0.1857(7) -0.0968(16) 0.3998(5)
H12 H 0.1976 0.0099 0.3995
H13 H 0.1454 -0.1017 0.4113
C9 C 0.2451(7) -0.0861(15) 0.4973(5)
H14 H 0.2082 -0.0667 0.5140
H15 H 0.2618 0.0115 0.4876
C10 C 0.2081(6) -0.3320(14) 0.4578(6)
H16 H 0.2005 -0.3930 0.4225
H17 H 0.1698 -0.3221 0.4730
C11 C 0.4126(7) 0.2039(18) 0.3293(5)
H18 H 0.3980 0.3071 0.3342
H19 H 0.4424 0.1802 0.3633
C12 C 0.4833(5) 0.3403(12) 0.2763(4)
H20 H 0.5130 0.3437 0.3117
H21 H 0.4579 0.4310 0.2753
C13 C 0.4837(5) 0.0624(12) 0.2765(4)
H22 H 0.4589 -0.0290 0.2762
H23 H 0.5139 0.0607 0.3116
La1C La 0.19003(3) 0.19681(8) 0.24588(3)
La1E La 0.30997(3) -0.69681(8) 0.75412(3)
La1F La 0.19003(3) -0.19681(8) 0.74588(3)
La1B La 0.80997(3) 0.19681(8) 0.25412(3)
La1A La 0.69003(3) -0.30319(8) 0.24588(3)
La1C_2 La 0.19003(3) -0.80319(8) 0.24588(3)
S1A S 0.60561(15) -0.3666(4) 0.09259(15)
P1F P 0.31871(15) -0.3258(4) 0.67488(14)
O1A O 0.5775(5) -0.2802(13) 0.2803(5)
N1F N 0.2704(5) -0.3211(11) 0.5567(4)
H1F H 0.2353 -0.3083 0.5722
P2A P 0.65197(15) 0.0729(4) 0.17258(14)
O2A O 0.6585(5) -0.2325(13) 0.3454(5)
N2A N 0.5563(4) 0.2007(10) 0.2226(5)
H2A H 0.5851 0.2002 0.2552
O3A O 0.6523(5) -0.1665(17) 0.4495(5)
H3A H 0.6695 -0.1755 0.4207
O4A O 0.6236(4) -0.4009(12) 0.1542(4)
O5A O 0.6423(6) -0.2435(14) 0.0734(4)
O6A O 0.6050(5) -0.5046(13) 0.0571(5)
O7F O 0.3428(5) -0.4534(11) 0.7154(4)
O7C O 0.3428(5) -0.5466(11) 0.2154(4)
O7B O 0.6572(5) -0.5466(11) 0.2846(4)
O8F O 0.3602(5) -0.1875(12) 0.6804(4)
O9F O 0.2524(4) -0.2828(11) 0.6742(4)
O9A O 0.7524(4) -0.2172(11) 0.1742(4)
O10A O 0.7100(4) 0.1545(12) 0.1935(4)
O10C O 0.2100(4) -0.3455(12) 0.1935(4)
O10B O 0.7900(4) -0.3455(12) 0.3065(4)
O11A O 0.6497(5) 0.0426(13) 0.1046(5)
H4A H 0.6471 -0.0495 0.0982
O12A O 0.6376(4) -0.0701(11) 0.2032(4)
O13C O 0.2431(5) -0.5369(11) 0.2957(4)
O13A O 0.7431(5) -0.0369(11) 0.2957(4)
O13B O 0.7569(5) -0.5369(11) 0.2043(4)
H5C H 0.2661 -0.5678 0.3262
H5A H 0.7661 -0.0678 0.3262
H5B H 0.7339 -0.5678 0.1738
H6C H 0.2136 -0.4908 0.3079
H6A H 0.7136 0.0092 0.3079
H6B H 0.7864 -0.4908 0.1921
C1A C 0.6030(6) -0.2570(15) 0.3315(7)
C2A C 0.5644(5) -0.2490(18) 0.3805(5)
C3A C 0.5933(6) -0.2096(19) 0.4360(5)
C4A C 0.5579(5) -0.206(2) 0.4809(5)
H9A H 0.5749 -0.1701 0.5175
C5A C 0.5018(5) -0.256(2) 0.0286(5)
H10A H 0.5236 -0.2610 -0.0026
C6A C 0.5302(6) -0.2985(18) 0.0840(5)
C7A C 0.5039(5) -0.2954(17) 0.3706(5)
H11A H 0.4859 -0.3246 0.3333
C8F C 0.3143(7) -0.4032(16) 0.6002(5)
H12F H 0.3024 -0.5099 0.6005
H13F H 0.3546 -0.3983 0.5887
C9F C 0.2549(7) -0.4139(15) 0.5027(5)
H14F H 0.2918 -0.4333 0.4860
H15F H 0.2382 -0.5115 0.5124
C10F C 0.2919(6) -0.1680(14) 0.5422(6)
H16F H 0.2995 -0.1070 0.5775
H17F H 0.3302 -0.1779 0.5270
C11A C 0.5874(7) 0.2039(18) 0.1707(5)
H18A H 0.6020 0.3071 0.1658
H19A H 0.5576 0.1802 0.1367
C12A C 0.5167(5) 0.3403(12) 0.2237(4)
H20A H 0.4870 0.3437 0.1883
H21A H 0.5421 0.4310 0.2247
C13A C 0.5163(5) 0.0624(12) 0.2235(4)
H22A H 0.5411 -0.0290 0.2238
H23A H 0.4861 0.0607 0.1884
O14 O 0.2202(5) 0.8480(15) 0.0873(5)
H7 H 0.1855 0.8861 0.0741
H8 H 0.2453 0.8744 0.0647
O15 O 0.4404(13) 0.158(3) 0.0982(13)
loop_
_geom_bond_atom_site_label_1
_geom_bond_atom_site_label_2
_geom_bond_site_symmetry_1
_geom_bond_site_symmetry_2
La1 O1 1_555 1_555
S1 O4 1_555 1_555
P1 O7 1_555 1_555
O1 C1 1_555 1_555
N1 H1 1_555 1_555
P2 O10 1_555 1_555
O2 La1 1_555 1_555
N2 H2 1_555 1_555
O3 H3 1_555 1_555
O4 La1 1_555 1_555
O5 S1 1_555 1_555
O6 S1 1_555 1_555
O7 La1C 1_555 1_555
O8 P1 1_555 1_555
O9 La1 1_555 1_555
O10 La1C 1_555 1_555
O11 P2 1_555 1_555
H4 O11 1_555 1_555
O12 La1 1_555 1_555
O13 La1 1_555 1_555
H5 O13 1_555 1_555
H6 O13 1_555 1_555
O14 H7 1_555 1_555
H8 O14 1_555 1_555
C1 O2 1_555 1_555
C2 C1 1_555 1_555
C3 O3 1_555 1_555
C4 C3 1_555 1_555
H9 C4 1_555 1_555
C5 H10 1_555 1_555
C6 S1 1_555 1_555
C7 C2 1_555 1_555
H11 C7 1_555 1_555
C8 P1 1_555 1_555
H12 C8 1_555 1_555
H13 C8 1_555 1_555
C9 N1 1_555 1_555
H14 C9 1_555 1_555
H15 C9 1_555 1_555
C10 N1 1_555 1_555
H16 C10 1_555 1_555
H17 C10 1_555 1_555
C11 P2 1_555 1_555
H18 C11 1_555 1_555
H19 C11 1_555 1_555
C12 N2 1_555 1_555
H20 C12 1_555 1_555
H21 C12 1_555 1_555
C13 N2 1_555 1_555
H22 C13 1_555 1_555
H23 C13 1_555 1_555
La1C O13 1_555 1_555
La1E O7F 1_555 1_555
La1F O9F 1_555 1_555
La1B O10A 1_555 1_555
La1A O1A 1_555 1_555
La1C_2 O13C 1_555 1_555
S1A O4A 1_555 1_555
P1F O7F 1_555 1_555
O1A C1A 1_555 1_555
N1F H1F 1_555 1_555
P2A O10A 1_555 1_555
O2A La1A 1_555 1_555
N2A H2A 1_555 1_555
O3A H3A 1_555 1_555
O4A La1A 1_555 1_555
O5A S1A 1_555 1_555
O6A S1A 1_555 1_555
O7C La1 1_555 1_555
O7B La1A 1_555 1_555
O8F P1F 1_555 1_555
O9F P1F 1_555 1_555
O9A La1A 1_555 1_555
O10C La1 1_555 1_555
O10B La1A 1_555 1_555
O11A P2A 1_555 1_555
H4A O11A 1_555 1_555
O12A La1A 1_555 1_555
O13C La1 1_555 1_555
O13A La1B 1_555 1_555
O13B La1A 1_555 1_555
H5C O13C 1_555 1_555
H5A O13A 1_555 1_555
H5B O13B 1_555 1_555
H6C O13C 1_555 1_555
H6A O13A 1_555 1_555
H6B O13B 1_555 1_555
C1A O2A 1_555 1_555
C2A C1A 1_555 1_555
C3A O3A 1_555 1_555
C4A C5 1_555 1_555
H9A C4A 1_555 1_555
C5A C4 1_555 1_555
H10A C5A 1_555 1_555
C6A C7 1_555 1_555
C7A C6 1_555 1_555
H11A C7A 1_555 1_555
C8F P1F 1_555 1_555
H12F C8F 1_555 1_555
H13F C8F 1_555 1_555
C9F C10 1_555 1_555
H14F C9F 1_555 1_555
H15F C9F 1_555 1_555
C10F C9 1_555 1_555
H16F C10F 1_555 1_555
H17F C10F 1_555 1_555
C11A P2A 1_555 1_555
H18A C11A 1_555 1_555
H19A C11A 1_555 1_555
C12A C12 1_555 1_555
H20A C12A 1_555 1_555
H21A C12A 1_555 1_555
C13A C13 1_555 1_555
H22A C13A 1_555 1_555
H23A C13A 1_555 1_555
P1 O9 1_555 1_555
N1 C8 1_555 1_555
P2 O12 1_555 1_555
N2 C11 1_555 1_555
C2 C3 1_555 1_555
C5 C6 1_555 1_555
La1A O13A 1_555 1_555
S1A C6A 1_555 1_555
N1F C8F 1_555 1_555
N1F C9F 1_555 1_555
N1F C10F 1_555 1_555
P2A O12A 1_555 1_555
N2A C11A 1_555 1_555
N2A C12A 1_555 1_555
N2A C13A 1_555 1_555
C2A C3A 1_555 1_555
C2A C7A 1_555 1_555
C3A C4A 1_555 1_555
C5A C6A 1_555 1_555

#END
