
#######################################################################
#
#                 Cambridge Crystallographic Data Centre
#                                CCDC 
#
#######################################################################
#
# If this CIF has been generated from an entry in the Cambridge 
# Structural Database, then it will include bibliographic, chemical, 
# crystal, experimental, refinement or atomic coordinate data resulting 
# from the CCDC's data processing and validation procedures.
#
#######################################################################

data_NULHIM
_symmetry_cell_setting           monoclinic
_symmetry_space_group_name_H-M   'C 2/c'
_symmetry_Int_Tables_number      15
_space_group_name_Hall           '-C 2yn'
loop_
_symmetry_equiv_pos_site_id
_symmetry_equiv_pos_as_xyz
1 x,y,z
2 -x,y,1/2-z
3 1/2+x,1/2+y,z
4 1/2-x,1/2+y,1/2-z
5 -x,-y,-z
6 x,-y,1/2+z
7 1/2-x,1/2-y,-z
8 1/2+x,1/2-y,1/2+z
_cell_length_a                   21.9438(11)
_cell_length_b                   8.6446(4)
_cell_length_c                   23.0146(13)
_cell_angle_alpha                90
_cell_angle_beta                 98.649(2)
_cell_angle_gamma                90
_cell_volume                     4316.12
loop_
_atom_site_label
_atom_site_type_symbol
_atom_site_fract_x
_atom_site_fract_y
_atom_site_fract_z
Eu1 Eu 0.190702(6) 0.696183(17) 0.245152(6)
P1 P 0.15499(3) 1.06996(9) 0.17413(3)
S1 S -0.10534(3) 0.62957(9) 0.40480(3)
N1 N 0.05732(11) 1.1999(3) 0.22433(11)
H1 H 0.0857 1.1984 0.2575
O1 O 0.16135(10) 0.7673(3) 0.34032(10)
C1 C 0.10276(13) 0.7429(4) 0.32704(13)
P2 P 0.31645(3) 0.83010(9) 0.17611(3)
O2 O 0.07876(10) 0.7146(3) 0.27593(9)
N2 N 0.26818(11) 0.8231(3) 0.05769(10)
H2 H 0.2332 0.8060 0.0735
C2 C 0.06605(13) 0.7477(4) 0.37659(13)
O3 O 0.15298(11) 0.8314(3) 0.44665(11)
H3 H 0.1699 0.8214 0.4174
C3 C 0.09318(15) 0.7912(4) 0.43348(14)
O4 O -0.12464(10) 0.6016(3) 0.34206(9)
C4 C 0.05801(17) 0.7928(5) 0.47933(15)
H4 H 0.0756 0.8255 0.5166
O5 O -0.14206(10) 0.7509(3) 0.42793(9)
C5 C -0.00254(16) 0.7462(5) 0.46924(15)
H5 H -0.0257 0.7453 0.5000
O6 O -0.10434(12) 0.4897(3) 0.43931(11)
C6 C -0.02953(14) 0.7000(4) 0.41293(13)
O7 O 0.15456(11) 1.0393(3) 0.10623(9)
H6 H 0.1506 0.9464 0.0996
C7 C 0.00383(13) 0.7036(4) 0.36669(13)
H7 H -0.0149 0.6769 0.3291
O8 O 0.14057(9) 0.9270(2) 0.20562(9)
C8 C 0.08987(14) 1.2042(4) 0.17147(13)
H8 H 0.1048 1.3085 0.1670
H9 H 0.0603 1.1809 0.1369
O9 O 0.21300(9) 1.1563(3) 0.19571(10)
C9 C 0.01644(13) 1.0596(3) 0.22359(14)
H10 H -0.0135 1.0599 0.1880
H11 H 0.0412 0.9666 0.2236
O10 O 0.25010(9) 0.7817(2) 0.17626(9)
C10 C 0.01793(13) 1.3425(3) 0.22458(13)
H12 H 0.0440 1.4335 0.2269
H13 H -0.0105 1.3477 0.1880
O11 O 0.33932(9) 0.9589(2) 0.21774(9)
C11 C 0.31239(14) 0.9115(4) 0.10186(12)
H14 H 0.2993 1.0186 0.1022
H15 H 0.3531 0.9091 0.0903
O12 O 0.36026(10) 0.6923(2) 0.18130(9)
C12 C 0.25135(15) 0.9159(4) 0.00259(12)
H16 H 0.2885 0.9395 -0.0139
H17 H 0.2330 1.0129 0.0122
O13 O 0.25485(10) 0.4626(3) 0.20432(9)
H18 H 0.2840 0.5084 0.1908
H19 H 0.2309 0.4299 0.1743
C13 C 0.29345(14) 0.6690(4) 0.04285(12)
H20 H 0.3018 0.6067 0.0782
H21 H 0.3320 0.6844 0.0279
Eu1A Eu -0.190702(6) 0.696183(17) 0.254848(6)
Eu1C Eu 0.309298(6) 1.196183(17) 0.254848(6)
Eu1C_2 Eu 0.309298(6) 0.196183(17) 0.254848(6)
Eu1B Eu -0.309298(6) 1.196183(17) 0.245152(6)
Eu1F Eu 0.309298(6) 0.803817(17) -0.245152(6)
Eu1E Eu 0.190702(6) 0.303817(17) -0.254848(6)
P1A P -0.15499(3) 1.06996(9) 0.32587(3)
S1A S 0.10534(3) 0.62957(9) 0.09520(3)
N1A N -0.05732(11) 1.1999(3) 0.27567(11)
H1A H -0.0857 1.1984 0.2425
O1A O -0.16135(10) 0.7673(3) 0.15968(10)
C1A C -0.10276(13) 0.7429(4) 0.17296(13)
P2F P 0.18355(3) 0.66990(9) -0.17611(3)
O2A O -0.07876(10) 0.7146(3) 0.22407(9)
N2F N 0.23182(11) 0.6769(3) -0.05769(10)
H2F H 0.2668 0.6940 -0.0735
C2A C -0.06605(13) 0.7477(4) 0.12341(13)
O3A O -0.15298(11) 0.8314(3) 0.05335(11)
H3A H -0.1699 0.8214 0.0826
C3A C -0.09318(15) 0.7912(4) 0.06652(14)
O4A O 0.12464(10) 0.6016(3) 0.15794(9)
C4A C -0.05801(17) 0.7928(5) 0.02067(15)
H4A H -0.0756 0.8255 -0.0166
O5A O 0.14206(10) 0.7509(3) 0.07207(9)
C5A C 0.00254(16) 0.7462(5) 0.03076(15)
H5A H 0.0257 0.7453 0.0000
O6A O 0.10434(12) 0.4897(3) 0.06069(11)
C6A C 0.02953(14) 0.7000(4) 0.08707(13)
O7A O -0.15456(11) 1.0393(3) 0.39377(9)
H6A H -0.1506 0.9464 0.4004
C7A C -0.00383(13) 0.7036(4) 0.13331(13)
H7A H 0.0149 0.6769 0.1709
O8A O -0.14057(9) 0.9270(2) 0.29438(9)
C8A C -0.08987(14) 1.2042(4) 0.32853(13)
H8A H -0.1048 1.3085 0.3330
H9A H -0.0603 1.1809 0.3631
O9A O -0.21300(9) 1.1563(3) 0.30429(10)
O9C O 0.28700(9) 0.6563(3) 0.30429(10)
O9B O -0.28700(9) 0.6563(3) 0.19571(10)
C9A C -0.01644(13) 1.0596(3) 0.27641(14)
H10A H 0.0135 1.0599 0.3120
H11A H -0.0412 0.9666 0.2764
O10F O 0.24990(9) 0.7183(2) -0.17626(9)
O10A O -0.25010(9) 0.7817(2) 0.32374(9)
C10A C -0.01793(13) 1.3425(3) 0.27542(13)
H12A H -0.0440 1.4335 0.2731
H13A H 0.0105 1.3477 0.3120
O11F O 0.16068(9) 0.5411(2) -0.21774(9)
O11C O 0.16068(9) 0.4589(2) 0.28226(9)
O11B O -0.16068(9) 0.4589(2) 0.21774(9)
C11F C 0.18761(14) 0.5885(4) -0.10186(12)
H14F H 0.2007 0.4814 -0.1022
H15F H 0.1469 0.5909 -0.0903
O12F O 0.13974(10) 0.8077(2) -0.18130(9)
C12F C 0.24865(15) 0.5841(4) -0.00259(12)
H16F H 0.2115 0.5605 0.0139
H17F H 0.2670 0.4871 -0.0122
O13C O 0.24515(10) 0.9626(3) 0.29568(9)
O13A O -0.25485(10) 0.4626(3) 0.29568(9)
O13B O -0.24515(10) 0.9626(3) 0.20432(9)
H18C H 0.2160 1.0084 0.3092
H18A H -0.2840 0.5084 0.3092
H18B H -0.2160 1.0084 0.1908
H19C H 0.2691 0.9299 0.3257
H19A H -0.2309 0.4299 0.3257
H19B H -0.2691 0.9299 0.1743
C13F C 0.20655(14) 0.8310(4) -0.04285(12)
H20F H 0.1982 0.8933 -0.0782
H21F H 0.1680 0.8156 -0.0279
O14 O 0.21901(14) 0.3455(4) 0.08768(13)
H22 H 0.2012 0.2604 0.0928
H23 H 0.1873 0.4022 0.0787
O15 O 0.4399(4) 0.6624(12) 0.0947(4)
loop_
_geom_bond_atom_site_label_1
_geom_bond_atom_site_label_2
_geom_bond_site_symmetry_1
_geom_bond_site_symmetry_2
Eu1 O1 1_555 1_555
P1 O7 1_555 1_555
S1 O4 1_555 1_555
N1 H1 1_555 1_555
O1 C1 1_555 1_555
C1 O2 1_555 1_555
P2 O10 1_555 1_555
O2 Eu1 1_555 1_555
N2 H2 1_555 1_555
C2 C1 1_555 1_555
O3 H3 1_555 1_555
C3 C2 1_555 1_555
O4 Eu1A 1_555 1_555
C4 C3 1_555 1_555
H4 C4 1_555 1_555
O5 S1 1_555 1_555
C5 C4 1_555 1_555
H5 C5 1_555 1_555
O6 S1 1_555 1_555
C6 S1 1_555 1_555
O7 H6 1_555 1_555
C7 C2 1_555 1_555
H7 C7 1_555 1_555
O8 Eu1 1_555 1_555
C8 P1 1_555 1_555
H8 C8 1_555 1_555
H9 C8 1_555 1_555
O9 P1 1_555 1_555
C9 N1 1_555 1_555
H10 C9 1_555 1_555
H11 C9 1_555 1_555
O10 Eu1 1_555 1_555
C10 N1 1_555 1_555
H12 C10 1_555 1_555
H13 C10 1_555 1_555
O11 P2 1_555 1_555
C11 P2 1_555 1_555
H14 C11 1_555 1_555
H15 C11 1_555 1_555
O12 P2 1_555 1_555
C12 N2 1_555 1_555
H16 C12 1_555 1_555
H17 C12 1_555 1_555
O13 Eu1 1_555 1_555
H18 O13 1_555 1_555
H19 O13 1_555 1_555
C13 N2 1_555 1_555
H20 C13 1_555 1_555
H21 C13 1_555 1_555
O14 H22 1_555 1_555
H23 O14 1_555 1_555
Eu1A O1A 1_555 1_555
Eu1C O9 1_555 1_555
Eu1C_2 O13 1_555 1_555
Eu1B O9A 1_555 1_555
Eu1F O10F 1_555 1_555
Eu1E O11F 1_555 1_555
P1A O7A 1_555 1_555
S1A O4A 1_555 1_555
N1A H1A 1_555 1_555
O1A C1A 1_555 1_555
C1A O2A 1_555 1_555
P2F O10F 1_555 1_555
O2A Eu1A 1_555 1_555
N2F H2F 1_555 1_555
C2A C1A 1_555 1_555
O3A H3A 1_555 1_555
C3A C2A 1_555 1_555
O4A Eu1 1_555 1_555
C4A C3A 1_555 1_555
H4A C4A 1_555 1_555
O5A S1A 1_555 1_555
C5A C4A 1_555 1_555
H5A C5A 1_555 1_555
O6A S1A 1_555 1_555
C6A S1A 1_555 1_555
O7A H6A 1_555 1_555
C7A C2A 1_555 1_555
H7A C7A 1_555 1_555
O8A Eu1A 1_555 1_555
C8A P1A 1_555 1_555
H8A C8A 1_555 1_555
H9A C8A 1_555 1_555
O9A P1A 1_555 1_555
O9C Eu1 1_555 1_555
O9B Eu1A 1_555 1_555
C9A C9 1_555 1_555
H10A C9A 1_555 1_555
H11A C9A 1_555 1_555
O10A Eu1A 1_555 1_555
C10A C10 1_555 1_555
H12A C10A 1_555 1_555
H13A C10A 1_555 1_555
O11F P2F 1_555 1_555
O11C Eu1 1_555 1_555
O11B Eu1A 1_555 1_555
C11F P2F 1_555 1_555
H14F C11F 1_555 1_555
H15F C11F 1_555 1_555
O12F P2F 1_555 1_555
C12F C13 1_555 1_555
H16F C12F 1_555 1_555
H17F C12F 1_555 1_555
O13C Eu1 1_555 1_555
O13A Eu1A 1_555 1_555
O13B Eu1A 1_555 1_555
H18C O13C 1_555 1_555
H18A O13A 1_555 1_555
H18B O13B 1_555 1_555
H19C O13C 1_555 1_555
H19A O13A 1_555 1_555
H19B O13B 1_555 1_555
C13F C12 1_555 1_555
H20F C13F 1_555 1_555
H21F C13F 1_555 1_555
P1 O8 1_555 1_555
N1 C8 1_555 1_555
N2 C11 1_555 1_555
O3 C3 1_555 1_555
C5 C6 1_555 1_555
C6 C7 1_555 1_555
O11 Eu1C 1_555 1_555
Eu1C O13C 1_555 1_555
Eu1B O13B 1_555 1_555
P1A O8A 1_555 1_555
N1A C8A 1_555 1_555
N1A C9A 1_555 1_555
N1A C10A 1_555 1_555
N2F C11F 1_555 1_555
N2F C12F 1_555 1_555
N2F C13F 1_555 1_555
O3A C3A 1_555 1_555
C5A C6A 1_555 1_555
C6A C7A 1_555 1_555

#END
