
#######################################################################
#
#                 Cambridge Crystallographic Data Centre
#                                CCDC 
#
#######################################################################
#
# If this CIF has been generated from an entry in the Cambridge 
# Structural Database, then it will include bibliographic, chemical, 
# crystal, experimental, refinement or atomic coordinate data resulting 
# from the CCDC's data processing and validation procedures.
#
#######################################################################

data_NULHIN
_symmetry_cell_setting           trigonal
_symmetry_space_group_name_H-M   'P 3'
_symmetry_Int_Tables_number      143
_space_group_name_Hall           'P 3'
loop_
_symmetry_equiv_pos_site_id
_symmetry_equiv_pos_as_xyz
1 x,y,z
2 -y,x-y,z
3 -x+y,-x,z
_cell_length_a                   13.0479(3)
_cell_length_b                   13.0479(3)
_cell_length_c                   5.8596(2)
_cell_angle_alpha                90
_cell_angle_beta                 90
_cell_angle_gamma                120
_cell_volume                     863.933
loop_
_atom_site_label
_atom_site_type_symbol
_atom_site_fract_x
_atom_site_fract_y
_atom_site_fract_z
Er1 Er 0.0000 0.0000 1.109370(11)
Co1 Co 0.3333 0.6667 0.90212(15)
C1 C 0.1828(3) 0.4318(3) 0.8404(6)
C2 C 0.0915(4) 0.3272(4) 0.7644(7)
C3 C 0.0305(4) 0.3266(4) 0.5676(7)
H1 H -0.0305 0.2559 0.5098
C4 C 0.0617(4) 0.4315(4) 0.4617(7)
H2 H 0.0218 0.4335 0.3319
C5 C 0.1537(4) 0.5342(4) 0.5508(7)
H3 H 0.1752 0.6059 0.4799
C6 C 0.2569(4) 0.4433(4) 1.0498(7)
C7 C 0.0567(4) 0.2104(4) 0.8870(7)
N1 N 0.2128(3) 0.5334(3) 0.7371(5)
O1 O 0.3378(2) 0.5509(2) 1.0899(5)
O2 O 0.2425(3) 0.3574(3) 1.1588(5)
O3 O 0.1003(3) 0.1473(3) 0.8196(5)
O4 O -0.0160(3) 0.1774(3) 1.0495(5)
O5 O -0.1368(3) -0.0034(3) 1.3682(5)
H4 H -0.1640 -0.0640 1.4510
H5 H -0.1925 -0.0035 1.2956
C1A C -0.4318(3) -0.2490(4) 0.8404(6)
C2A C -0.3272(4) -0.2357(6) 0.7644(7)
C3A C -0.3266(4) -0.2961(6) 0.5676(7)
H1A H -0.2559 -0.2864 0.5098
C4A C -0.4315(4) -0.3698(6) 0.4617(7)
H2A H -0.4335 -0.4117 0.3319
C5A C -0.5342(4) -0.3805(6) 0.5508(7)
H3A H -0.6059 -0.4307 0.4799
C6A C -0.4433(4) -0.1864(6) 1.0498(7)
C7A C -0.2104(4) -0.1537(6) 0.8870(7)
N1A N -0.5334(3) -0.3206(4) 0.7371(5)
O1A O -0.5509(2) -0.2131(3) 1.0899(5)
O2A O -0.3574(3) -0.1149(4) 1.1588(5)
O3A O -0.1473(3) -0.0470(4) 0.8196(5)
O4A O -0.1774(3) -0.1934(4) 1.0495(5)
O5A O 0.0034(3) -0.1334(4) 1.3682(5)
H4A H 0.0640 -0.1000 1.4510
H5A H 0.0035 -0.1890 1.2956
C1B C 0.2490(4) -0.1828(3) 0.8404(6)
C2B C 0.2357(6) -0.0915(4) 0.7644(7)
C3B C 0.2961(6) -0.0305(4) 0.5676(7)
H1B H 0.2864 0.0305 0.5098
C4B C 0.3698(6) -0.0617(4) 0.4617(7)
H2B H 0.4117 -0.0218 0.3319
C5B C 0.3805(6) -0.1537(4) 0.5508(7)
H3B H 0.4307 -0.1752 0.4799
C6B C 0.1864(6) -0.2569(4) 1.0498(7)
C7B C 0.1537(6) -0.0567(4) 0.8870(7)
N1B N 0.3206(4) -0.2128(3) 0.7371(5)
O1B O 0.2131(3) -0.3378(2) 1.0899(5)
O2B O 0.1149(4) -0.2425(3) 1.1588(5)
O3B O 0.0470(4) -0.1003(3) 0.8196(5)
O4B O 0.1934(4) 0.0160(3) 1.0495(5)
O5B O 0.1334(4) 0.1368(3) 1.3682(5)
H4B H 0.1000 0.1640 1.4510
H5B H 0.1890 0.1925 1.2956
Co1_2 Co -0.6667 -0.3333 0.90212(15)
Co1_3 Co 0.3333 -0.3333 0.90212(15)
N1A_2 N 0.4666(3) 0.6794(4) 0.7371(5)
N1B_2 N 0.3206(4) 0.7872(3) 0.7371(5)
O1A_2 O 0.4491(2) 0.7869(3) 1.0899(5)
O1B_2 O 0.2131(3) 0.6622(2) 1.0899(5)
loop_
_geom_bond_atom_site_label_1
_geom_bond_atom_site_label_2
_geom_bond_site_symmetry_1
_geom_bond_site_symmetry_2
Er1 O3 1_555 1_555
Co1 N1 1_555 1_555
C1 C2 1_555 1_555
C2 C3 1_555 1_555
C3 H1 1_555 1_555
C4 C3 1_555 1_555
H2 C4 1_555 1_555
C5 C4 1_555 1_555
H3 C5 1_555 1_555
C6 C1 1_555 1_555
C7 C2 1_555 1_555
N1 C1 1_555 1_555
O1 Co1 1_555 1_555
O2 C6 1_555 1_555
O3 C7 1_555 1_555
O4 Er1 1_555 1_555
O5 Er1 1_555 1_555
H4 O5 1_555 1_555
H5 O5 1_555 1_555
C1A C2A 1_555 1_555
C2A C3A 1_555 1_555
C3A H1A 1_555 1_555
C4A C3A 1_555 1_555
H2A C4A 1_555 1_555
C5A C4A 1_555 1_555
H3A C5A 1_555 1_555
C6A C1A 1_555 1_555
C7A C2A 1_555 1_555
N1A C1A 1_555 1_555
O1A C6A 1_555 1_555
O2A C6A 1_555 1_555
O3A Er1 1_555 1_555
O4A Er1 1_555 1_555
O5A Er1 1_555 1_555
H4A O5A 1_555 1_555
H5A O5A 1_555 1_555
C1B C2B 1_555 1_555
C2B C3B 1_555 1_555
C3B H1B 1_555 1_555
C4B C3B 1_555 1_555
H2B C4B 1_555 1_555
C5B C4B 1_555 1_555
H3B C5B 1_555 1_555
C6B C1B 1_555 1_555
C7B C2B 1_555 1_555
N1B C1B 1_555 1_555
O1B C6B 1_555 1_555
O2B C6B 1_555 1_555
O3B Er1 1_555 1_555
O4B Er1 1_555 1_555
O5B Er1 1_555 1_555
H4B O5B 1_555 1_555
H5B O5B 1_555 1_555
Co1_2 N1A 1_555 1_555
Co1_3 N1B 1_555 1_555
N1A_2 Co1 1_555 1_555
N1B_2 Co1 1_555 1_555
O1A_2 Co1 1_555 1_555
O1B_2 Co1 1_555 1_555
C5 N1 1_555 1_555
C6 O1 1_555 1_555
C7 O4 1_555 1_555
C5A N1A 1_555 1_555
C7A O3A 1_555 1_555
C7A O4A 1_555 1_555
O1A Co1_2 1_555 1_555
C5B N1B 1_555 1_555
C7B O3B 1_555 1_555
C7B O4B 1_555 1_555
O1B Co1_3 1_555 1_555

#END
