
#######################################################################
#
#                 Cambridge Crystallographic Data Centre
#                                CCDC 
#
#######################################################################
#
# If this CIF has been generated from an entry in the Cambridge 
# Structural Database, then it will include bibliographic, chemical, 
# crystal, experimental, refinement or atomic coordinate data resulting 
# from the CCDC's data processing and validation procedures.
#
#######################################################################

data_NULHAE
_symmetry_cell_setting           monoclinic
_symmetry_space_group_name_H-M   'C 2/c'
_symmetry_Int_Tables_number      15
_space_group_name_Hall           '-C 2yn'
loop_
_symmetry_equiv_pos_site_id
_symmetry_equiv_pos_as_xyz
1 x,y,z
2 -x,y,1/2-z
3 1/2+x,1/2+y,z
4 1/2-x,1/2+y,1/2-z
5 -x,-y,-z
6 x,-y,1/2+z
7 1/2-x,1/2-y,-z
8 1/2+x,1/2-y,1/2+z
_cell_length_a                   22.017(5)
_cell_length_b                   8.6870(18)
_cell_length_c                   23.106(5)
_cell_angle_alpha                90
_cell_angle_beta                 98.628(2)
_cell_angle_gamma                90
_cell_volume                     4369.28
loop_
_atom_site_label
_atom_site_type_symbol
_atom_site_fract_x
_atom_site_fract_y
_atom_site_fract_z
Nd1 Nd 0.190476(6) 0.803587(18) 0.245680(6)
P1 P 0.15386(3) 0.42908(9) 0.17327(3)
S1 S -0.10564(3) 0.86955(9) 0.40570(3)
P2 P 0.31737(3) 0.67231(9) 0.17548(3)
N1 N 0.05705(10) 0.2998(3) 0.22409(11)
H1 H 0.0856 0.3013 0.2569
N2 N 0.26883(11) 0.6782(3) 0.05749(10)
H2 H 0.2340 0.6945 0.0734
C1 C 0.10230(13) 0.7571(4) 0.32902(13)
C2 C 0.06540(13) 0.7526(4) 0.37807(13)
C3 C 0.09245(14) 0.7094(4) 0.43488(14)
C4 C 0.05710(16) 0.7079(5) 0.48032(15)
H3 H 0.0744 0.6753 0.5175
C5 C -0.00304(15) 0.7543(5) 0.47022(15)
H4 H -0.0261 0.7551 0.5008
C6 C -0.03001(13) 0.8004(4) 0.41436(13)
C7 C 0.00342(13) 0.7966(4) 0.36808(13)
H5 H -0.0152 0.8230 0.3306
C8 C 0.08923(13) 0.2953(4) 0.17099(13)
H6 H 0.0595 0.3182 0.1367
H7 H 0.1041 0.1915 0.1665
C9 C 0.01778(13) 0.1579(3) 0.22468(14)
H8 H -0.0107 0.1524 0.1884
H9 H 0.0438 0.0673 0.2270
C10 C 0.01647(13) 0.4390(4) 0.22372(14)
H10 H -0.0134 0.4393 0.1883
H11 H 0.0412 0.5315 0.2239
C11 C 0.31351(14) 0.5914(4) 0.10152(12)
H12 H 0.3540 0.5951 0.0898
H13 H 0.3010 0.4844 0.1020
C12 C 0.29315(14) 0.8319(4) 0.04228(13)
H14 H 0.3315 0.8175 0.0271
H15 H 0.3015 0.8943 0.0774
C13 C 0.25203(14) 0.5849(4) 0.00281(12)
H16 H 0.2342 0.4880 0.0126
H17 H 0.2889 0.5621 -0.0138
O1 O 0.16076(10) 0.7339(3) 0.34266(10)
O2 O 0.07832(10) 0.7834(3) 0.27780(9)
O3 O 0.15186(10) 0.6689(3) 0.44814(11)
H18 H 0.1689 0.6790 0.4191
O4 O -0.12422(9) 0.8998(3) 0.34324(9)
O5 O -0.14250(9) 0.7475(3) 0.42766(9)
O6 O -0.10534(11) 1.0077(3) 0.44075(11)
O7 O 0.13940(9) 0.5722(2) 0.20435(9)
O8 O 0.21172(9) 0.3439(3) 0.19496(10)
O9 O 0.15335(11) 0.4591(3) 0.10568(9)
H19 H 0.1499 0.5517 0.0990
O10 O 0.25105(9) 0.7186(3) 0.17556(9)
O11 O 0.34033(9) 0.5441(2) 0.21692(9)
O12 O 0.36065(10) 0.8103(3) 0.18111(9)
O13 O 0.24369(10) 0.5381(3) 0.29602(9)
H20 H 0.2143 0.4921 0.3088
H21 H 0.2671 0.5699 0.3263
Nd1A Nd -0.190476(6) 0.803587(18) 0.254320(6)
Nd1C Nd 0.309524(6) 0.303587(18) 0.254320(6)
Nd1B Nd -0.309524(6) 0.303587(18) 0.245680(6)
Nd1F Nd 0.309524(6) 0.696413(18) -0.245680(6)
Nd1E Nd 0.190476(6) 1.196413(18) -0.254320(6)
Nd1C_2 Nd 0.309524(6) 1.303587(18) 0.254320(6)
P1A P -0.15386(3) 0.42908(9) 0.32673(3)
S1A S 0.10564(3) 0.86955(9) 0.09430(3)
P2F P 0.18263(3) 0.82769(9) -0.17548(3)
N1A N -0.05705(10) 0.2998(3) 0.27591(11)
H1A H -0.0856 0.3013 0.2431
N2F N 0.23117(11) 0.8218(3) -0.05749(10)
H2F H 0.2660 0.8055 -0.0734
C1A C -0.10230(13) 0.7571(4) 0.17098(13)
C2A C -0.06540(13) 0.7526(4) 0.12193(13)
C3A C -0.09245(14) 0.7094(4) 0.06512(14)
C4A C -0.05710(16) 0.7079(5) 0.01968(15)
H3A H -0.0744 0.6753 -0.0175
C5A C 0.00304(15) 0.7543(5) 0.02978(15)
H4A H 0.0261 0.7551 -0.0008
C6A C 0.03001(13) 0.8004(4) 0.08564(13)
C7A C -0.00342(13) 0.7966(4) 0.13192(13)
H5A H 0.0152 0.8230 0.1694
C8A C -0.08923(13) 0.2953(4) 0.32901(13)
H6A H -0.0595 0.3182 0.3633
H7A H -0.1041 0.1915 0.3335
C9A C -0.01778(13) 0.1579(3) 0.27532(14)
H8A H 0.0107 0.1524 0.3116
H9A H -0.0438 0.0673 0.2730
C10A C -0.01647(13) 0.4390(4) 0.27628(14)
H10A H 0.0134 0.4393 0.3117
H11A H -0.0412 0.5315 0.2761
C11F C 0.18649(14) 0.9086(4) -0.10152(12)
H12F H 0.1460 0.9049 -0.0898
H13F H 0.1990 1.0156 -0.1020
C12F C 0.20685(14) 0.6681(4) -0.04228(13)
H14F H 0.1685 0.6825 -0.0271
H15F H 0.1985 0.6057 -0.0774
C13F C 0.24797(14) 0.9151(4) -0.00281(12)
H16F H 0.2658 1.0120 -0.0126
H17F H 0.2111 0.9379 0.0138
O1A O -0.16076(10) 0.7339(3) 0.15734(10)
O2A O -0.07832(10) 0.7834(3) 0.22220(9)
O3A O -0.15186(10) 0.6689(3) 0.05186(11)
H18A H -0.1689 0.6790 0.0809
O4A O 0.12422(9) 0.8998(3) 0.15676(9)
O5A O 0.14250(9) 0.7475(3) 0.07234(9)
O6A O 0.10534(11) 1.0077(3) 0.05925(11)
O7A O -0.13940(9) 0.5722(2) 0.29565(9)
O8A O -0.21172(9) 0.3439(3) 0.30504(10)
O8C O 0.28828(9) 0.8439(3) 0.30504(10)
O8B O -0.28828(9) 0.8439(3) 0.19496(10)
O9A O -0.15335(11) 0.4591(3) 0.39432(9)
H19A H -0.1499 0.5517 0.4010
O10F O 0.24895(9) 0.7814(3) -0.17556(9)
O10A O -0.25105(9) 0.7186(3) 0.32444(9)
O11F O 0.15967(9) 0.9559(2) -0.21692(9)
O11C O 0.15967(9) 1.0441(2) 0.28308(9)
O11B O -0.15967(9) 1.0441(2) 0.21692(9)
O12F O 0.13935(10) 0.6897(3) -0.18111(9)
O13C O 0.25631(10) 1.0381(3) 0.20398(9)
O13A O -0.24369(10) 0.5381(3) 0.20398(9)
O13B O -0.25631(10) 1.0381(3) 0.29602(9)
H20C H 0.2857 0.9921 0.1912
H20A H -0.2143 0.4921 0.1912
H20B H -0.2857 0.9921 0.3088
H21C H 0.2329 1.0699 0.1737
H21A H -0.2671 0.5699 0.1737
H21B H -0.2329 1.0699 0.3263
O14 O 0.21952(13) 1.1525(4) 0.08807(12)
H22 H 0.2014 1.2370 0.0929
H23 H 0.1881 1.0959 0.0786
O15 O 0.4394(3) 0.8409(9) 0.0950(3)
loop_
_geom_bond_atom_site_label_1
_geom_bond_atom_site_label_2
_geom_bond_site_symmetry_1
_geom_bond_site_symmetry_2
Nd1 O1 1_555 1_555
P1 C8 1_555 1_555
S1 C6 1_555 1_555
P2 C11 1_555 1_555
N1 H1 1_555 1_555
N2 H2 1_555 1_555
C1 C2 1_555 1_555
C2 C3 1_555 1_555
C3 C4 1_555 1_555
C4 H3 1_555 1_555
C5 C4 1_555 1_555
H4 C5 1_555 1_555
C6 C5 1_555 1_555
C7 C2 1_555 1_555
H5 C7 1_555 1_555
C8 N1 1_555 1_555
H6 C8 1_555 1_555
H7 C8 1_555 1_555
C9 N1 1_555 1_555
H8 C9 1_555 1_555
H9 C9 1_555 1_555
C10 N1 1_555 1_555
H10 C10 1_555 1_555
H11 C10 1_555 1_555
C11 N2 1_555 1_555
H12 C11 1_555 1_555
H13 C11 1_555 1_555
C12 N2 1_555 1_555
H14 C12 1_555 1_555
H15 C12 1_555 1_555
C13 N2 1_555 1_555
H16 C13 1_555 1_555
H17 C13 1_555 1_555
O1 C1 1_555 1_555
O2 Nd1 1_555 1_555
O3 C3 1_555 1_555
H18 O3 1_555 1_555
O4 S1 1_555 1_555
O5 S1 1_555 1_555
O6 S1 1_555 1_555
O7 Nd1 1_555 1_555
O8 P1 1_555 1_555
O9 P1 1_555 1_555
H19 O9 1_555 1_555
O10 Nd1 1_555 1_555
O11 P2 1_555 1_555
O12 P2 1_555 1_555
O13 Nd1 1_555 1_555
H20 O13 1_555 1_555
H21 O13 1_555 1_555
O14 H22 1_555 1_555
H23 O14 1_555 1_555
Nd1A O4 1_555 1_555
Nd1C O8 1_555 1_555
Nd1B O8A 1_555 1_555
Nd1F O10F 1_555 1_555
Nd1E O11F 1_555 1_555
Nd1C_2 O13C 1_555 1_555
P1A C8A 1_555 1_555
S1A C6A 1_555 1_555
P2F C11F 1_555 1_555
N1A H1A 1_555 1_555
N2F H2F 1_555 1_555
C1A C2A 1_555 1_555
C2A C3A 1_555 1_555
C3A C4A 1_555 1_555
C4A H3A 1_555 1_555
C5A C4A 1_555 1_555
H4A C5A 1_555 1_555
C6A C5A 1_555 1_555
C7A C2A 1_555 1_555
H5A C7A 1_555 1_555
C8A N1A 1_555 1_555
H6A C8A 1_555 1_555
H7A C8A 1_555 1_555
C9A C9 1_555 1_555
H8A C9A 1_555 1_555
H9A C9A 1_555 1_555
C10A C10 1_555 1_555
H10A C10A 1_555 1_555
H11A C10A 1_555 1_555
C11F N2F 1_555 1_555
H12F C11F 1_555 1_555
H13F C11F 1_555 1_555
C12F C13 1_555 1_555
H14F C12F 1_555 1_555
H15F C12F 1_555 1_555
C13F C12 1_555 1_555
H16F C13F 1_555 1_555
H17F C13F 1_555 1_555
O1A Nd1A 1_555 1_555
O2A Nd1A 1_555 1_555
O3A C3A 1_555 1_555
H18A O3A 1_555 1_555
O4A Nd1 1_555 1_555
O5A S1A 1_555 1_555
O6A S1A 1_555 1_555
O7A Nd1A 1_555 1_555
O8A P1A 1_555 1_555
O8C Nd1 1_555 1_555
O8B Nd1A 1_555 1_555
O9A P1A 1_555 1_555
H19A O9A 1_555 1_555
O10F P2F 1_555 1_555
O10A Nd1A 1_555 1_555
O11F P2F 1_555 1_555
O11C Nd1 1_555 1_555
O11B Nd1A 1_555 1_555
O12F P2F 1_555 1_555
O13C Nd1 1_555 1_555
O13A Nd1A 1_555 1_555
O13B Nd1A 1_555 1_555
H20C O13C 1_555 1_555
H20A O13A 1_555 1_555
H20B O13B 1_555 1_555
H21C O13C 1_555 1_555
H21A O13A 1_555 1_555
H21B O13B 1_555 1_555
P1 O7 1_555 1_555
P2 O10 1_555 1_555
C1 O2 1_555 1_555
C6 C7 1_555 1_555
O11 Nd1C 1_555 1_555
O13 Nd1C 1_555 1_555
Nd1B O13A 1_555 1_555
P1A O7A 1_555 1_555
S1A O4A 1_555 1_555
N1A C9A 1_555 1_555
N1A C10A 1_555 1_555
N2F C12F 1_555 1_555
N2F C13F 1_555 1_555
C1A O1A 1_555 1_555
C1A O2A 1_555 1_555
C6A C7A 1_555 1_555

#END
