
#######################################################################
#
#                 Cambridge Crystallographic Data Centre
#                                CCDC 
#
#######################################################################
#
# If this CIF has been generated from an entry in the Cambridge 
# Structural Database, then it will include bibliographic, chemical, 
# crystal, experimental, refinement or atomic coordinate data resulting 
# from the CCDC's data processing and validation procedures.
#
#######################################################################

data_NULHAF
_symmetry_cell_setting           trigonal
_symmetry_space_group_name_H-M   'P 3'
_symmetry_Int_Tables_number      143
_space_group_name_Hall           'P 3'
loop_
_symmetry_equiv_pos_site_id
_symmetry_equiv_pos_as_xyz
1 x,y,z
2 -y,x-y,z
3 -x+y,-x,z
_cell_length_a                   13.1350(10)
_cell_length_b                   13.1350(10)
_cell_length_c                   5.8794(12)
_cell_angle_alpha                90
_cell_angle_beta                 90
_cell_angle_gamma                120
_cell_volume                     878.464
loop_
_atom_site_label
_atom_site_type_symbol
_atom_site_fract_x
_atom_site_fract_y
_atom_site_fract_z
Dy1 Dy 0.6667 0.3333 1.1094
Co1 Co 1.0000 1.0000 0.90702(16)
C1 C 0.9144(4) 0.7639(4) 0.8477(7)
C2 C 0.8993(4) 0.6580(4) 0.7703(7)
C3 C 0.9611(5) 0.6587(4) 0.5770(8)
H1 H 0.9533 0.5888 0.5217
C4 C 1.0336(5) 0.7633(5) 0.4680(8)
H2 H 1.0730 0.7645 0.3357
C5 C 1.0470(4) 0.8673(4) 0.5596(8)
H3 H 1.0987 0.9384 0.4903
C6 C 0.8509(4) 0.7769(4) 1.0571(8)
C7 C 0.8192(4) 0.5447(4) 0.8902(8)
N1 N 0.9884(3) 0.8680(3) 0.7421(6)
O1 O 0.8809(3) 0.8856(3) 1.0942(5)
O2 O 0.7811(3) 0.6924(3) 1.1626(6)
O3 O 0.7132(3) 0.4807(3) 0.8232(6)
O4 O 0.8602(3) 0.5116(3) 1.0518(6)
O5 O 0.7984(4) 0.3290(4) 1.3702(6)
H4 H 0.7629 0.2675 1.4515
H5 H 0.8544 0.3283 1.2991
C1A C 0.2361(4) 0.1505(6) 0.8477(7)
C2A C 0.3420(4) 0.2413(6) 0.7703(7)
C3A C 0.3413(4) 0.3024(6) 0.5770(8)
H1A H 0.4112 0.3645 0.5217
C4A C 0.2367(5) 0.2703(7) 0.4680(8)
H2A H 0.2355 0.3085 0.3357
C5A C 0.1327(4) 0.1797(6) 0.5596(8)
H3A H 0.0616 0.1603 0.4903
C6A C 0.2231(4) 0.0740(6) 1.0571(8)
C7A C 0.4553(4) 0.2745(6) 0.8902(8)
N1A N 0.1320(3) 0.1204(4) 0.7421(6)
O1A O 0.1144(3) -0.0047(4) 1.0942(5)
O2A O 0.3076(3) 0.0887(4) 1.1626(6)
O3A O 0.5193(3) 0.2325(4) 0.8232(6)
O4A O 0.4884(3) 0.3486(4) 1.0518(6)
O5A O 0.6710(4) 0.4694(6) 1.3702(6)
H4A H 0.7325 0.4954 1.4515
H5A H 0.6717 0.5261 1.2991
C1B C 0.8495(6) 0.0856(4) 0.8477(7)
C2B C 0.7587(6) 0.1007(4) 0.7703(7)
C3B C 0.6976(6) 0.0389(5) 0.5770(8)
H1B H 0.6355 0.0467 0.5217
C4B C 0.7297(7) -0.0336(5) 0.4680(8)
H2B H 0.6915 -0.0730 0.3357
C5B C 0.8203(6) -0.0470(4) 0.5596(8)
H3B H 0.8397 -0.0987 0.4903
C6B C 0.9260(6) 0.1491(4) 1.0571(8)
C7B C 0.7255(6) 0.1808(4) 0.8902(8)
N1B N 0.8796(4) 0.0116(3) 0.7421(6)
O1B O 1.0047(4) 0.1191(3) 1.0942(5)
O2B O 0.9113(4) 0.2189(3) 1.1626(6)
O3B O 0.7675(4) 0.2868(3) 0.8232(6)
O4B O 0.6514(4) 0.1398(3) 1.0518(6)
O5B O 0.5306(6) 0.2016(4) 1.3702(6)
H4B H 0.5046 0.2371 1.4515
H5B H 0.4739 0.1456 1.2991
Co1_2 Co 0.0000 0.0000 0.90702(16)
Co1_3 Co 1.0000 0.0000 0.90702(16)
N1A_2 N 1.1320(3) 1.1204(4) 0.7421(6)
N1B_2 N 0.8796(4) 1.0116(3) 0.7421(6)
O1A_2 O 1.1144(3) 0.9953(4) 1.0942(5)
O1B_2 O 1.0047(4) 1.1191(3) 1.0942(5)
loop_
_geom_bond_atom_site_label_1
_geom_bond_atom_site_label_2
_geom_bond_site_symmetry_1
_geom_bond_site_symmetry_2
Dy1 O3 1_555 1_555
Co1 N1 1_555 1_555
C1 C2 1_555 1_555
C2 C3 1_555 1_555
C3 H1 1_555 1_555
C4 C3 1_555 1_555
H2 C4 1_555 1_555
C5 C4 1_555 1_555
H3 C5 1_555 1_555
C6 C1 1_555 1_555
C7 C2 1_555 1_555
N1 C1 1_555 1_555
O1 Co1 1_555 1_555
O2 C6 1_555 1_555
O3 C7 1_555 1_555
O4 Dy1 1_555 1_555
O5 Dy1 1_555 1_555
H4 O5 1_555 1_555
H5 O5 1_555 1_555
C1A C2A 1_555 1_555
C2A C3A 1_555 1_555
C3A H1A 1_555 1_555
C4A C3A 1_555 1_555
H2A C4A 1_555 1_555
C5A C4A 1_555 1_555
H3A C5A 1_555 1_555
C6A C1A 1_555 1_555
C7A C2A 1_555 1_555
N1A C1A 1_555 1_555
O1A C6A 1_555 1_555
O2A C6A 1_555 1_555
O3A Dy1 1_555 1_555
O4A Dy1 1_555 1_555
O5A Dy1 1_555 1_555
H4A O5A 1_555 1_555
H5A O5A 1_555 1_555
C1B C2B 1_555 1_555
C2B C3B 1_555 1_555
C3B H1B 1_555 1_555
C4B C3B 1_555 1_555
H2B C4B 1_555 1_555
C5B C4B 1_555 1_555
H3B C5B 1_555 1_555
C6B C1B 1_555 1_555
C7B C2B 1_555 1_555
N1B C1B 1_555 1_555
O1B C6B 1_555 1_555
O2B C6B 1_555 1_555
O3B Dy1 1_555 1_555
O4B Dy1 1_555 1_555
O5B Dy1 1_555 1_555
H4B O5B 1_555 1_555
H5B O5B 1_555 1_555
Co1_2 N1A 1_555 1_555
Co1_3 N1B 1_555 1_555
N1A_2 Co1 1_555 1_555
N1B_2 Co1 1_555 1_555
O1A_2 Co1 1_555 1_555
O1B_2 Co1 1_555 1_555
C5 N1 1_555 1_555
C6 O1 1_555 1_555
C7 O4 1_555 1_555
C5A N1A 1_555 1_555
C7A O3A 1_555 1_555
C7A O4A 1_555 1_555
O1A Co1_2 1_555 1_555
C5B N1B 1_555 1_555
C7B O3B 1_555 1_555
C7B O4B 1_555 1_555
O1B Co1_3 1_555 1_555

#END
