
#######################################################################
#
#                 Cambridge Crystallographic Data Centre
#                                CCDC 
#
#######################################################################
#
# If this CIF has been generated from an entry in the Cambridge 
# Structural Database, then it will include bibliographic, chemical, 
# crystal, experimental, refinement or atomic coordinate data resulting 
# from the CCDC's data processing and validation procedures.
#
#######################################################################

data_NULMEN
_symmetry_cell_setting           monoclinic
_symmetry_space_group_name_H-M   'P 21/c'
_symmetry_Int_Tables_number      14
_space_group_name_Hall           '-P 2ybc'
loop_
_symmetry_equiv_pos_site_id
_symmetry_equiv_pos_as_xyz
1 x,y,z
2 -x,1/2+y,1/2-z
3 -x,-y,-z
4 x,1/2-y,1/2+z
_cell_length_a                   7.0526(11)
_cell_length_b                   29.865(4)
_cell_length_c                   16.523(2)
_cell_angle_alpha                90
_cell_angle_beta                 96.943(2)
_cell_angle_gamma                90
_cell_volume                     3454.65
loop_
_atom_site_label
_atom_site_type_symbol
_atom_site_fract_x
_atom_site_fract_y
_atom_site_fract_z
C1 C 0.0919(9) 0.6102(2) 0.4845(4)
C2 C 0.1536(10) 0.6593(3) 0.3595(4)
C3 C 0.2284(10) 0.7271(3) 0.4521(4)
C4 C 0.1752(9) 0.6778(2) 0.5804(4)
C5 C 0.4179(9) 0.6003(2) 0.4164(4)
C6 C 0.5226(9) 0.6816(2) 0.3992(3)
C7 C 0.5218(9) 0.6981(2) 0.5528(4)
C8 C 0.4514(9) 0.6136(2) 0.5719(4)
C9 C 0.1403(9) 0.5182(3) 0.6668(4)
H1 H 0.1140 0.5504 0.6635
C10 C 0.2756(11) 0.5108(3) 0.7444(4)
H2 H 0.3876 0.5296 0.7434
H3 H 0.3174 0.4798 0.7469
C11 C 0.1798(14) 0.5217(4) 0.8200(5)
H4 H 0.2631 0.5123 0.8680
H5 H 0.1643 0.5539 0.8233
C12 C -0.0064(14) 0.5005(4) 0.8208(5)
H6 H -0.0655 0.5122 0.8665
H7 H 0.0120 0.4686 0.8292
C13 C -0.1405(11) 0.5079(3) 0.7432(5)
H8 H -0.2546 0.4899 0.7449
H9 H -0.1785 0.5391 0.7397
C14 C -0.0476(10) 0.4955(3) 0.6683(4)
H10 H -0.0232 0.4631 0.6708
C15 C 0.5647(11) 0.6453(3) 0.1599(6)
H11 H 0.5363 0.6330 0.2121
C16 C 0.6315(11) 0.6061(3) 0.1134(5)
H12 H 0.7349 0.5911 0.1469
H13 H 0.6808 0.6170 0.0647
C17 C 0.4693(16) 0.5721(4) 0.0887(7)
H14 H 0.5100 0.5516 0.0487
H15 H 0.4471 0.5548 0.1363
C18 C 0.2913(15) 0.5930(4) 0.0550(7)
H16 H 0.1915 0.5705 0.0512
H17 H 0.3043 0.6029 0.0000
C19 C 0.2281(11) 0.6320(3) 0.1015(5)
H18 H 0.1827 0.6213 0.1512
H19 H 0.1227 0.6469 0.0692
C20 C 0.3878(11) 0.6651(3) 0.1230(6)
H20 H 0.4160 0.6776 0.0710
C21 C 0.7636(9) 0.8047(3) 0.3194(4)
H21 H 0.7525 0.7912 0.3726
C22 C 0.9082(11) 0.8438(3) 0.3343(5)
H22 H 1.0308 0.8321 0.3580
H23 H 0.9254 0.8576 0.2826
C23 C 0.8397(13) 0.8787(3) 0.3908(5)
H24 H 0.8380 0.8658 0.4446
H25 H 0.9279 0.9037 0.3956
C24 C 0.6433(13) 0.8951(3) 0.3595(6)
H26 H 0.6499 0.9119 0.3097
H27 H 0.5995 0.9152 0.3993
C25 C 0.4978(11) 0.8571(3) 0.3422(5)
H28 H 0.4739 0.8433 0.3931
H29 H 0.3781 0.8692 0.3160
C26 C 0.5712(10) 0.8226(3) 0.2881(4)
H30 H 0.5825 0.8370 0.2356
Cu1 Cu 0.0000 0.5000 0.5000
Cu2 Cu 0.58116(11) 0.73385(3) 0.22345(5)
N1 N -0.0210(9) 0.5834(2) 0.4880(4)
N2 N 0.0725(9) 0.6624(3) 0.2967(4)
N3 N 0.1927(12) 0.7634(3) 0.4397(5)
N4 N 0.1077(8) 0.6909(2) 0.6367(4)
N5 N 0.4709(9) 0.5699(2) 0.3855(4)
N6 N 0.6192(9) 0.6958(2) 0.3562(3)
N7 N 0.6221(9) 0.7217(2) 0.5943(4)
N8 N 0.5214(10) 0.5892(2) 0.6194(4)
N9 N 0.2163(7) 0.50584(19) 0.5911(3)
H31 H 0.2796 0.4797 0.5979
H32 H 0.2989 0.5269 0.5783
N10 N -0.1687(7) 0.50464(19) 0.5899(3)
H33 H -0.2198 0.5322 0.5906
H34 H -0.2644 0.4846 0.5819
N11 N 0.8175(7) 0.76865(19) 0.2659(3)
H35 H 0.9030 0.7504 0.2940
H36 H 0.8714 0.7804 0.2240
N12 N 0.4401(7) 0.78416(19) 0.2716(3)
H37 H 0.3382 0.7923 0.2366
H38 H 0.3983 0.7750 0.3183
N13 N 0.3364(7) 0.7038(2) 0.1722(3)
H39 H 0.2675 0.6945 0.2115
H40 H 0.2654 0.7235 0.1402
N14 N 0.7092(7) 0.68007(19) 0.1811(3)
H41 H 0.7647 0.6876 0.1367
H42 H 0.8003 0.6697 0.2194
W1 W 0.31863(3) 0.658253(8) 0.478166(14)
C1B C -0.0919(9) 0.3898(2) 0.5155(4)
C2B C -0.1536(10) 0.3407(3) 0.6405(4)
C3B C -0.2284(10) 0.2729(3) 0.5479(4)
C4B C -0.1752(9) 0.3222(2) 0.4196(4)
C5B C -0.4179(9) 0.3997(2) 0.5836(4)
C6B C -0.5226(9) 0.3184(2) 0.6008(3)
C7B C -0.5218(9) 0.3019(2) 0.4472(4)
C8B C -0.4514(9) 0.3864(2) 0.4281(4)
C9B C -0.1403(9) 0.4818(3) 0.3332(4)
H1B H -0.1140 0.4496 0.3365
C10B C -0.2756(11) 0.4892(3) 0.2556(4)
H2B H -0.3876 0.4704 0.2566
H3B H -0.3174 0.5202 0.2531
C11B C -0.1798(14) 0.4783(4) 0.1800(5)
H4B H -0.2631 0.4877 0.1320
H5B H -0.1643 0.4461 0.1767
C12B C 0.0064(14) 0.4995(4) 0.1792(5)
H6B H 0.0655 0.4878 0.1335
H7B H -0.0120 0.5314 0.1708
C13B C 0.1405(11) 0.4921(3) 0.2568(5)
H8B H 0.2546 0.5101 0.2551
H9B H 0.1785 0.4609 0.2603
C14B C 0.0476(10) 0.5045(3) 0.3317(4)
H10B H 0.0232 0.5369 0.3292
C15B C -0.5647(11) 0.3547(3) 0.8401(6)
H11B H -0.5363 0.3670 0.7879
C16B C -0.6315(11) 0.3939(3) 0.8866(5)
H12B H -0.7349 0.4089 0.8531
H13B H -0.6808 0.3830 0.9353
C17B C -0.4693(16) 0.4279(4) 0.9113(7)
H14B H -0.5100 0.4484 0.9513
H15B H -0.4471 0.4452 0.8637
C18B C -0.2913(15) 0.4070(4) 0.9450(7)
H16B H -0.1915 0.4295 0.9488
H17B H -0.3043 0.3971 1.0000
C19B C -0.2281(11) 0.3680(3) 0.8985(5)
H18B H -0.1827 0.3787 0.8488
H19B H -0.1227 0.3531 0.9308
C20B C -0.3878(11) 0.3349(3) 0.8770(6)
H20B H -0.4160 0.3224 0.9290
C21B C -0.7636(9) 0.1953(3) 0.6806(4)
H21B H -0.7525 0.2088 0.6274
C22B C -0.9082(11) 0.1562(3) 0.6657(5)
H22B H -1.0308 0.1679 0.6420
H23B H -0.9254 0.1424 0.7174
C23B C -0.8397(13) 0.1213(3) 0.6092(5)
H24B H -0.8380 0.1342 0.5554
H25B H -0.9279 0.0963 0.6044
C24B C -0.6433(13) 0.1049(3) 0.6405(6)
H26B H -0.6499 0.0881 0.6903
H27B H -0.5995 0.0848 0.6007
C25B C -0.4978(11) 0.1429(3) 0.6578(5)
H28B H -0.4739 0.1567 0.6069
H29B H -0.3781 0.1308 0.6840
C26B C -0.5712(10) 0.1774(3) 0.7119(4)
H30B H -0.5825 0.1630 0.7644
Cu2B Cu -0.58116(11) 0.26615(3) 0.77655(5)
Cu2C Cu 0.58116(11) 0.76615(3) 0.72345(5)
Cu2A Cu -0.58116(11) 0.23385(3) 0.27655(5)
N1B N 0.0210(9) 0.4166(2) 0.5120(4)
N2B N -0.0725(9) 0.3376(3) 0.7033(4)
N3B N -0.1927(12) 0.2366(3) 0.5603(5)
N4B N -0.1077(8) 0.3091(2) 0.3633(4)
N5B N -0.4709(9) 0.4301(2) 0.6145(4)
N6B N -0.6192(9) 0.3042(2) 0.6438(3)
N7B N -0.6221(9) 0.2783(2) 0.4057(4)
N7C N 0.6221(9) 0.7783(2) 0.0943(4)
N7A N -0.6221(9) 0.2217(2) 0.9057(4)
N8B N -0.5214(10) 0.4108(2) 0.3806(4)
N9B N -0.2163(7) 0.49416(19) 0.4089(3)
H31B H -0.2796 0.5203 0.4021
H32B H -0.2989 0.4731 0.4217
N10B N 0.1687(7) 0.49536(19) 0.4101(3)
H33B H 0.2198 0.4678 0.4094
H34B H 0.2644 0.5154 0.4181
N11B N -0.8175(7) 0.23135(19) 0.7341(3)
H35B H -0.9030 0.2496 0.7060
H36B H -0.8714 0.2196 0.7760
N12B N -0.4401(7) 0.21584(19) 0.7284(3)
H37B H -0.3382 0.2077 0.7634
H38B H -0.3983 0.2250 0.6817
N13B N -0.3364(7) 0.2962(2) 0.8278(3)
H39B H -0.2675 0.3055 0.7885
H40B H -0.2654 0.2765 0.8598
N14B N -0.7092(7) 0.31993(19) 0.8189(3)
H41B H -0.7647 0.3124 0.8633
H42B H -0.8003 0.3303 0.7806
W1B W -0.31863(3) 0.341747(8) 0.521834(14)
O1 O 0.8902(11) 0.7858(2) 0.5411(5)
H43 H 0.9720 0.7757 0.5120
H44 H 0.8197 0.7644 0.5531
loop_
_geom_bond_atom_site_label_1
_geom_bond_atom_site_label_2
_geom_bond_site_symmetry_1
_geom_bond_site_symmetry_2
C1 N1 1_555 1_555
C2 N2 1_555 1_555
C3 N3 1_555 1_555
C4 N4 1_555 1_555
C5 N5 1_555 1_555
C6 N6 1_555 1_555
C7 N7 1_555 1_555
C8 N8 1_555 1_555
C9 H1 1_555 1_555
C10 C9 1_555 1_555
H2 C10 1_555 1_555
H3 C10 1_555 1_555
C11 C10 1_555 1_555
H4 C11 1_555 1_555
H5 C11 1_555 1_555
C12 C11 1_555 1_555
H6 C12 1_555 1_555
H7 C12 1_555 1_555
C13 C12 1_555 1_555
H8 C13 1_555 1_555
H9 C13 1_555 1_555
C14 C9 1_555 1_555
H10 C14 1_555 1_555
C15 H11 1_555 1_555
C16 C15 1_555 1_555
H12 C16 1_555 1_555
H13 C16 1_555 1_555
C17 C16 1_555 1_555
H14 C17 1_555 1_555
H15 C17 1_555 1_555
C18 C17 1_555 1_555
H16 C18 1_555 1_555
H17 C18 1_555 1_555
C19 C18 1_555 1_555
H18 C19 1_555 1_555
H19 C19 1_555 1_555
C20 C15 1_555 1_555
H20 C20 1_555 1_555
C21 H21 1_555 1_555
C22 C21 1_555 1_555
H22 C22 1_555 1_555
H23 C22 1_555 1_555
C23 C22 1_555 1_555
H24 C23 1_555 1_555
H25 C23 1_555 1_555
C24 C23 1_555 1_555
H26 C24 1_555 1_555
H27 C24 1_555 1_555
C25 C24 1_555 1_555
H28 C25 1_555 1_555
H29 C25 1_555 1_555
C26 C21 1_555 1_555
H30 C26 1_555 1_555
Cu1 N1 1_555 1_555
Cu2 N6 1_555 1_555
N7 Cu2C 1_555 1_555
N9 C9 1_555 1_555
H31 N9 1_555 1_555
H32 N9 1_555 1_555
N10 C14 1_555 1_555
H33 N10 1_555 1_555
H34 N10 1_555 1_555
N11 C21 1_555 1_555
H35 N11 1_555 1_555
H36 N11 1_555 1_555
N12 C26 1_555 1_555
H37 N12 1_555 1_555
H38 N12 1_555 1_555
N13 C20 1_555 1_555
H39 N13 1_555 1_555
H40 N13 1_555 1_555
N14 C15 1_555 1_555
H41 N14 1_555 1_555
H42 N14 1_555 1_555
O1 H43 1_555 1_555
H44 O1 1_555 1_555
W1 C1 1_555 1_555
C1B N1B 1_555 1_555
C2B N2B 1_555 1_555
C3B N3B 1_555 1_555
C4B N4B 1_555 1_555
C5B N5B 1_555 1_555
C6B N6B 1_555 1_555
C7B N7B 1_555 1_555
C8B N8B 1_555 1_555
C9B H1B 1_555 1_555
C10B C9B 1_555 1_555
H2B C10B 1_555 1_555
H3B C10B 1_555 1_555
C11B C10B 1_555 1_555
H4B C11B 1_555 1_555
H5B C11B 1_555 1_555
C12B C11B 1_555 1_555
H6B C12B 1_555 1_555
H7B C12B 1_555 1_555
C13B C12B 1_555 1_555
H8B C13B 1_555 1_555
H9B C13B 1_555 1_555
C14B C9B 1_555 1_555
H10B C14B 1_555 1_555
C15B H11B 1_555 1_555
C16B C15B 1_555 1_555
H12B C16B 1_555 1_555
H13B C16B 1_555 1_555
C17B C16B 1_555 1_555
H14B C17B 1_555 1_555
H15B C17B 1_555 1_555
C18B C17B 1_555 1_555
H16B C18B 1_555 1_555
H17B C18B 1_555 1_555
C19B C18B 1_555 1_555
H18B C19B 1_555 1_555
H19B C19B 1_555 1_555
C20B C15B 1_555 1_555
H20B C20B 1_555 1_555
C21B H21B 1_555 1_555
C22B C21B 1_555 1_555
H22B C22B 1_555 1_555
H23B C22B 1_555 1_555
C23B C22B 1_555 1_555
H24B C23B 1_555 1_555
H25B C23B 1_555 1_555
C24B C23B 1_555 1_555
H26B C24B 1_555 1_555
H27B C24B 1_555 1_555
C25B C24B 1_555 1_555
H28B C25B 1_555 1_555
H29B C25B 1_555 1_555
C26B C21B 1_555 1_555
H30B C26B 1_555 1_555
Cu2B N6B 1_555 1_555
Cu2A N7B 1_555 1_555
N1B Cu1 1_555 1_555
N7C Cu2 1_555 1_555
N7A Cu2B 1_555 1_555
N9B Cu1 1_555 1_555
H31B N9B 1_555 1_555
H32B N9B 1_555 1_555
N10B Cu1 1_555 1_555
H33B N10B 1_555 1_555
H34B N10B 1_555 1_555
N11B C21B 1_555 1_555
H35B N11B 1_555 1_555
H36B N11B 1_555 1_555
N12B C26B 1_555 1_555
H37B N12B 1_555 1_555
H38B N12B 1_555 1_555
N13B C20B 1_555 1_555
H39B N13B 1_555 1_555
H40B N13B 1_555 1_555
N14B C15B 1_555 1_555
H41B N14B 1_555 1_555
H42B N14B 1_555 1_555
W1B C1B 1_555 1_555
C2 W1 1_555 1_555
C3 W1 1_555 1_555
C4 W1 1_555 1_555
C5 W1 1_555 1_555
C6 W1 1_555 1_555
C7 W1 1_555 1_555
C8 W1 1_555 1_555
C13 C14 1_555 1_555
C19 C20 1_555 1_555
C25 C26 1_555 1_555
Cu1 N9 1_555 1_555
Cu1 N10 1_555 1_555
Cu2 N11 1_555 1_555
Cu2 N12 1_555 1_555
Cu2 N13 1_555 1_555
Cu2 N14 1_555 1_555
C2B W1B 1_555 1_555
C3B W1B 1_555 1_555
C4B W1B 1_555 1_555
C5B W1B 1_555 1_555
C6B W1B 1_555 1_555
C7B W1B 1_555 1_555
C8B W1B 1_555 1_555
C9B N9B 1_555 1_555
C13B C14B 1_555 1_555
C14B N10B 1_555 1_555
C19B C20B 1_555 1_555
C25B C26B 1_555 1_555
Cu2B N11B 1_555 1_555
Cu2B N12B 1_555 1_555
Cu2B N13B 1_555 1_555
Cu2B N14B 1_555 1_555

#END
