
#######################################################################
#
#                 Cambridge Crystallographic Data Centre
#                                CCDC 
#
#######################################################################
#
# If this CIF has been generated from an entry in the Cambridge 
# Structural Database, then it will include bibliographic, chemical, 
# crystal, experimental, refinement or atomic coordinate data resulting 
# from the CCDC's data processing and validation procedures.
#
#######################################################################

data_NULMIR
_symmetry_cell_setting           monoclinic
_symmetry_space_group_name_H-M   'P 21/c'
_symmetry_Int_Tables_number      14
_space_group_name_Hall           '-P 2ybc'
loop_
_symmetry_equiv_pos_site_id
_symmetry_equiv_pos_as_xyz
1 x,y,z
2 -x,1/2+y,1/2-z
3 -x,-y,-z
4 x,1/2-y,1/2+z
_cell_length_a                   7.0610(14)
_cell_length_b                   29.885(6)
_cell_length_c                   16.526(3)
_cell_angle_alpha                90
_cell_angle_beta                 96.87(3)
_cell_angle_gamma                90
_cell_volume                     3462.24
loop_
_atom_site_label
_atom_site_type_symbol
_atom_site_fract_x
_atom_site_fract_y
_atom_site_fract_z
C1 C 0.0923(8) 0.39061(18) 0.4827(3)
C2 C 0.1559(7) 0.34070(17) 0.3583(3)
C3 C 0.2329(8) 0.27490(17) 0.4520(3)
C4 C 0.1707(8) 0.32234(19) 0.5785(3)
C5 C 0.4186(8) 0.40052(16) 0.4156(3)
C6 C 0.5204(8) 0.31791(18) 0.3996(3)
C7 C 0.5182(8) 0.30134(16) 0.5519(3)
C8 C 0.4486(8) 0.38631(18) 0.5729(3)
C9 C -0.1377(8) 0.51888(17) 0.3325(3)
H1 H -0.1126 0.5511 0.3352
C10 C -0.2736(8) 0.51040(18) 0.2569(3)
H2 H -0.3887 0.5279 0.2589
H3 H -0.3088 0.4790 0.2543
C11 C -0.1832(8) 0.52293(19) 0.1813(3)
H4 H -0.2684 0.5144 0.1334
H5 H -0.1669 0.5551 0.1800
C12 C 0.0037(8) 0.50121(19) 0.1784(3)
H6 H 0.0609 0.5131 0.1323
H7 H -0.0161 0.4694 0.1693
C13 C 0.1437(7) 0.50792(17) 0.2564(3)
H8 H 0.2548 0.4891 0.2543
H9 H 0.1859 0.5388 0.2599
C14 C 0.0474(8) 0.49614(17) 0.3308(3)
H10 H 0.0212 0.4639 0.3281
C15 C 0.5689(7) 0.17833(18) 0.2856(3)
H11 H 0.5804 0.1640 0.2331
C16 C 0.4963(8) 0.14266(17) 0.3408(3)
H12 H 0.4747 0.1561 0.3923
H13 H 0.3758 0.1309 0.3153
C17 C 0.6388(8) 0.10483(16) 0.3563(3)
H14 H 0.6430 0.0882 0.3062
H15 H 0.5963 0.0846 0.3963
C18 C 0.8378(9) 0.1214(2) 0.3866(4)
H16 H 0.8388 0.1331 0.4413
H17 H 0.9261 0.0964 0.3890
C19 C 0.9040(8) 0.15732(18) 0.3322(3)
H18 H 0.9254 0.1442 0.2804
H19 H 1.0244 0.1694 0.3573
C20 C 0.7603(8) 0.19500(18) 0.3172(3)
H20 H 0.7486 0.2084 0.3705
C21 C 0.5703(8) 0.35559(18) 0.1568(3)
H21 H 0.5450 0.3680 0.2093
C22 C 0.6335(7) 0.39564(16) 0.1126(3)
H22 H 0.7350 0.4106 0.1471
H23 H 0.6852 0.3857 0.0638
C23 C 0.4802(8) 0.42766(17) 0.0894(3)
H24 H 0.4607 0.4451 0.1373
H25 H 0.5228 0.4482 0.0498
C24 C 0.2988(7) 0.40956(17) 0.0558(3)
H26 H 0.3069 0.4011 -0.0004
H27 H 0.2035 0.4330 0.0554
C25 C 0.2314(8) 0.36946(17) 0.1002(3)
H28 H 0.1814 0.3798 0.1491
H29 H 0.1276 0.3553 0.0657
C26 C 0.3808(8) 0.33558(18) 0.1235(3)
H30 H 0.4051 0.3225 0.0713
Cu1 Cu 0.0000 0.5000 0.5000
Cu2 Cu 0.57964(9) 0.26688(2) 0.22208(4)
Mo1 Mo 0.31820(6) 0.341989(13) 0.47725(2)
N1 N -0.0151(6) 0.41776(15) 0.4886(3)
N2 N 0.0688(7) 0.33855(14) 0.2968(3)
N3 N 0.1896(6) 0.23791(15) 0.4397(3)
N4 N 0.1035(6) 0.30986(14) 0.6343(3)
N5 N 0.4691(6) 0.43109(15) 0.3842(3)
N6 N 0.6203(6) 0.30472(14) 0.3555(3)
N7 N 0.6141(8) 0.27787(15) 0.5919(2)
N8 N 0.5196(6) 0.41009(14) 0.6195(3)
N9 N -0.2175(6) 0.50630(14) 0.4075(3)
H31 H -0.2809 0.4802 0.4001
H32 H -0.2999 0.5274 0.4202
N10 N 0.1673(6) 0.50454(14) 0.4100(2)
H33 H 0.2199 0.5320 0.4099
H34 H 0.2618 0.4842 0.4176
N11 N 0.4382(6) 0.21678(14) 0.2689(3)
H35 H 0.3950 0.2258 0.3153
H36 H 0.3373 0.2087 0.2334
N12 N 0.8169(6) 0.23114(14) 0.2653(3)
H37 H 0.8718 0.2197 0.2235
H38 H 0.9020 0.2491 0.2943
N13 N 0.7088(6) 0.32031(13) 0.1803(2)
H39 H 0.7982 0.3306 0.2192
H40 H 0.7671 0.3124 0.1369
N14 N 0.3383(6) 0.29699(12) 0.1719(2)
H41 H 0.2675 0.2773 0.1400
H42 H 0.2698 0.3058 0.2116
C1B C -0.0923(8) 0.60939(18) 0.5173(3)
C2B C -0.1559(7) 0.65930(17) 0.6417(3)
C3B C -0.2329(8) 0.72510(17) 0.5480(3)
C4B C -0.1707(8) 0.67766(19) 0.4215(3)
C5B C -0.4186(8) 0.59948(16) 0.5844(3)
C6B C -0.5204(8) 0.68209(18) 0.6004(3)
C7B C -0.5182(8) 0.69866(16) 0.4481(3)
C8B C -0.4486(8) 0.61369(18) 0.4271(3)
C9B C 0.1377(8) 0.48112(17) 0.6675(3)
H1B H 0.1126 0.4489 0.6648
C10B C 0.2736(8) 0.48960(18) 0.7431(3)
H2B H 0.3887 0.4721 0.7411
H3B H 0.3088 0.5210 0.7457
C11B C 0.1832(8) 0.47707(19) 0.8187(3)
H4B H 0.2684 0.4856 0.8666
H5B H 0.1669 0.4449 0.8200
C12B C -0.0037(8) 0.49879(19) 0.8216(3)
H6B H -0.0609 0.4869 0.8677
H7B H 0.0161 0.5306 0.8307
C13B C -0.1437(7) 0.49208(17) 0.7436(3)
H8B H -0.2548 0.5109 0.7457
H9B H -0.1859 0.4612 0.7401
C14B C -0.0474(8) 0.50386(17) 0.6692(3)
H10B H -0.0212 0.5361 0.6719
C15B C -0.5689(7) 0.82167(18) 0.7144(3)
H11B H -0.5804 0.8360 0.7669
C16B C -0.4963(8) 0.85734(17) 0.6592(3)
H12B H -0.4747 0.8439 0.6077
H13B H -0.3758 0.8691 0.6847
C17B C -0.6388(8) 0.89517(16) 0.6437(3)
H14B H -0.6430 0.9118 0.6938
H15B H -0.5963 0.9154 0.6037
C18B C -0.8378(9) 0.8786(2) 0.6134(4)
H16B H -0.8388 0.8669 0.5587
H17B H -0.9261 0.9036 0.6110
C19B C -0.9040(8) 0.84268(18) 0.6678(3)
H18B H -0.9254 0.8558 0.7196
H19B H -1.0244 0.8306 0.6427
C20B C -0.7603(8) 0.80500(18) 0.6828(3)
H20B H -0.7486 0.7916 0.6295
C21B C -0.5703(8) 0.64441(18) 0.8432(3)
H21B H -0.5450 0.6320 0.7907
C22B C -0.6335(7) 0.60436(16) 0.8874(3)
H22B H -0.7350 0.5894 0.8529
H23B H -0.6852 0.6143 0.9362
C23B C -0.4802(8) 0.57234(17) 0.9106(3)
H24B H -0.4607 0.5549 0.8627
H25B H -0.5228 0.5518 0.9502
C24B C -0.2988(7) 0.59044(17) 0.9442(3)
H26B H -0.3069 0.5989 1.0004
H27B H -0.2035 0.5670 0.9446
C25B C -0.2314(8) 0.63054(17) 0.8998(3)
H28B H -0.1814 0.6202 0.8509
H29B H -0.1276 0.6447 0.9343
C26B C -0.3808(8) 0.66442(18) 0.8765(3)
H30B H -0.4051 0.6775 0.9287
Cu2B Cu -0.57964(9) 0.73312(2) 0.77792(4)
Cu2C Cu 0.57964(9) 0.23312(2) 0.72208(4)
Cu2A Cu -0.57964(9) 0.76688(2) 0.27792(4)
Mo1B Mo -0.31820(6) 0.658011(13) 0.52275(2)
N1B N 0.0151(6) 0.58224(15) 0.5114(3)
N2B N -0.0688(7) 0.66145(14) 0.7032(3)
N3B N -0.1896(6) 0.76209(15) 0.5603(3)
N4B N -0.1035(6) 0.69014(14) 0.3657(3)
N5B N -0.4691(6) 0.56891(15) 0.6158(3)
N6B N -0.6203(6) 0.69528(14) 0.6445(3)
N7B N -0.6141(8) 0.72213(15) 0.4081(2)
N7C N 0.6141(8) 0.22213(15) 0.0919(2)
N7A N -0.6141(8) 0.77787(15) 0.9081(2)
N8B N -0.5196(6) 0.58991(14) 0.3805(3)
N9B N 0.2175(6) 0.49370(14) 0.5925(3)
H31B H 0.2809 0.5198 0.5999
H32B H 0.2999 0.4726 0.5798
N10B N -0.1673(6) 0.49546(14) 0.5900(2)
H33B H -0.2199 0.4680 0.5901
H34B H -0.2618 0.5158 0.5824
N11B N -0.4382(6) 0.78322(14) 0.7311(3)
H35B H -0.3950 0.7742 0.6847
H36B H -0.3373 0.7913 0.7666
N12B N -0.8169(6) 0.76886(14) 0.7347(3)
H37B H -0.8718 0.7803 0.7765
H38B H -0.9020 0.7509 0.7057
N13B N -0.7088(6) 0.67969(13) 0.8197(2)
H39B H -0.7982 0.6694 0.7808
H40B H -0.7671 0.6876 0.8631
N14B N -0.3383(6) 0.70301(12) 0.8281(2)
H41B H -0.2675 0.7227 0.8600
H42B H -0.2698 0.6942 0.7884
O1 O 0.8900(5) 0.28422(12) 0.0389(2)
H43 H 1.0074 0.2892 0.0542
H44 H 0.8729 0.2563 0.0310
loop_
_geom_bond_atom_site_label_1
_geom_bond_atom_site_label_2
_geom_bond_site_symmetry_1
_geom_bond_site_symmetry_2
C1 Mo1 1_555 1_555
C2 Mo1 1_555 1_555
C3 Mo1 1_555 1_555
C4 Mo1 1_555 1_555
C5 Mo1 1_555 1_555
C6 Mo1 1_555 1_555
C7 Mo1 1_555 1_555
C8 Mo1 1_555 1_555
C9 H1 1_555 1_555
C10 C9 1_555 1_555
H2 C10 1_555 1_555
H3 C10 1_555 1_555
C11 C10 1_555 1_555
H4 C11 1_555 1_555
H5 C11 1_555 1_555
C12 C11 1_555 1_555
H6 C12 1_555 1_555
H7 C12 1_555 1_555
C13 C12 1_555 1_555
H8 C13 1_555 1_555
H9 C13 1_555 1_555
C14 C9 1_555 1_555
H10 C14 1_555 1_555
C15 H11 1_555 1_555
C16 C15 1_555 1_555
H12 C16 1_555 1_555
H13 C16 1_555 1_555
C17 C16 1_555 1_555
H14 C17 1_555 1_555
H15 C17 1_555 1_555
C18 C17 1_555 1_555
H16 C18 1_555 1_555
H17 C18 1_555 1_555
C19 C18 1_555 1_555
H18 C19 1_555 1_555
H19 C19 1_555 1_555
C20 C15 1_555 1_555
H20 C20 1_555 1_555
C21 H21 1_555 1_555
C22 C21 1_555 1_555
H22 C22 1_555 1_555
H23 C22 1_555 1_555
C23 C22 1_555 1_555
H24 C23 1_555 1_555
H25 C23 1_555 1_555
C24 C23 1_555 1_555
H26 C24 1_555 1_555
H27 C24 1_555 1_555
C25 C24 1_555 1_555
H28 C25 1_555 1_555
H29 C25 1_555 1_555
C26 C21 1_555 1_555
H30 C26 1_555 1_555
Cu1 N1 1_555 1_555
Cu2 N6 1_555 1_555
N1 C1 1_555 1_555
N2 C2 1_555 1_555
N3 C3 1_555 1_555
N4 C4 1_555 1_555
N5 C5 1_555 1_555
N6 C6 1_555 1_555
N7 C7 1_555 1_555
N8 C8 1_555 1_555
N9 C9 1_555 1_555
H31 N9 1_555 1_555
H32 N9 1_555 1_555
N10 C14 1_555 1_555
H33 N10 1_555 1_555
H34 N10 1_555 1_555
N11 C15 1_555 1_555
H35 N11 1_555 1_555
H36 N11 1_555 1_555
N12 C20 1_555 1_555
H37 N12 1_555 1_555
H38 N12 1_555 1_555
N13 C21 1_555 1_555
H39 N13 1_555 1_555
H40 N13 1_555 1_555
N14 C26 1_555 1_555
H41 N14 1_555 1_555
H42 N14 1_555 1_555
O1 H43 1_555 1_555
H44 O1 1_555 1_555
C1B Mo1B 1_555 1_555
C2B Mo1B 1_555 1_555
C3B Mo1B 1_555 1_555
C4B Mo1B 1_555 1_555
C5B Mo1B 1_555 1_555
C6B Mo1B 1_555 1_555
C7B Mo1B 1_555 1_555
C8B Mo1B 1_555 1_555
C9B H1B 1_555 1_555
C10B C9B 1_555 1_555
H2B C10B 1_555 1_555
H3B C10B 1_555 1_555
C11B C10B 1_555 1_555
H4B C11B 1_555 1_555
H5B C11B 1_555 1_555
C12B C11B 1_555 1_555
H6B C12B 1_555 1_555
H7B C12B 1_555 1_555
C13B C12B 1_555 1_555
H8B C13B 1_555 1_555
H9B C13B 1_555 1_555
C14B C9B 1_555 1_555
H10B C14B 1_555 1_555
C15B H11B 1_555 1_555
C16B C15B 1_555 1_555
H12B C16B 1_555 1_555
H13B C16B 1_555 1_555
C17B C16B 1_555 1_555
H14B C17B 1_555 1_555
H15B C17B 1_555 1_555
C18B C17B 1_555 1_555
H16B C18B 1_555 1_555
H17B C18B 1_555 1_555
C19B C18B 1_555 1_555
H18B C19B 1_555 1_555
H19B C19B 1_555 1_555
C20B C15B 1_555 1_555
H20B C20B 1_555 1_555
C21B H21B 1_555 1_555
C22B C21B 1_555 1_555
H22B C22B 1_555 1_555
H23B C22B 1_555 1_555
C23B C22B 1_555 1_555
H24B C23B 1_555 1_555
H25B C23B 1_555 1_555
C24B C23B 1_555 1_555
H26B C24B 1_555 1_555
H27B C24B 1_555 1_555
C25B C24B 1_555 1_555
H28B C25B 1_555 1_555
H29B C25B 1_555 1_555
C26B C21B 1_555 1_555
H30B C26B 1_555 1_555
Cu2B N6B 1_555 1_555
Cu2C N7 1_555 1_555
Cu2A N7B 1_555 1_555
N1B Cu1 1_555 1_555
N2B C2B 1_555 1_555
N3B C3B 1_555 1_555
N4B C4B 1_555 1_555
N5B C5B 1_555 1_555
N6B C6B 1_555 1_555
N7B C7B 1_555 1_555
N7C Cu2 1_555 1_555
N7A Cu2B 1_555 1_555
N8B C8B 1_555 1_555
N9B Cu1 1_555 1_555
H31B N9B 1_555 1_555
H32B N9B 1_555 1_555
N10B Cu1 1_555 1_555
H33B N10B 1_555 1_555
H34B N10B 1_555 1_555
N11B C15B 1_555 1_555
H35B N11B 1_555 1_555
H36B N11B 1_555 1_555
N12B C20B 1_555 1_555
H37B N12B 1_555 1_555
H38B N12B 1_555 1_555
N13B C21B 1_555 1_555
H39B N13B 1_555 1_555
H40B N13B 1_555 1_555
N14B C26B 1_555 1_555
H41B N14B 1_555 1_555
H42B N14B 1_555 1_555
C13 C14 1_555 1_555
C19 C20 1_555 1_555
C25 C26 1_555 1_555
Cu1 N9 1_555 1_555
Cu1 N10 1_555 1_555
Cu2 N11 1_555 1_555
Cu2 N12 1_555 1_555
Cu2 N13 1_555 1_555
Cu2 N14 1_555 1_555
C1B N1B 1_555 1_555
C9B N9B 1_555 1_555
C13B C14B 1_555 1_555
C14B N10B 1_555 1_555
C19B C20B 1_555 1_555
C25B C26B 1_555 1_555
Cu2B N11B 1_555 1_555
Cu2B N12B 1_555 1_555
Cu2B N13B 1_555 1_555
Cu2B N14B 1_555 1_555

#END
