
#######################################################################
#
#                 Cambridge Crystallographic Data Centre
#                                CCDC 
#
#######################################################################
#
# If this CIF has been generated from an entry in the Cambridge 
# Structural Database, then it will include bibliographic, chemical, 
# crystal, experimental, refinement or atomic coordinate data resulting 
# from the CCDC's data processing and validation procedures.
#
#######################################################################

data_NULMOX
_symmetry_cell_setting           rhombohedral
_symmetry_space_group_name_H-M   'R -3'
_symmetry_Int_Tables_number      148
_space_group_name_Hall           '-R 3'
loop_
_symmetry_equiv_pos_site_id
_symmetry_equiv_pos_as_xyz
1 x,y,z
2 -y,x-y,z
3 -x+y,-x,z
4 2/3+x,1/3+y,1/3+z
5 2/3-y,1/3+x-y,1/3+z
6 2/3-x+y,1/3-x,1/3+z
7 1/3+x,2/3+y,2/3+z
8 1/3-y,2/3+x-y,2/3+z
9 1/3-x+y,2/3-x,2/3+z
10 -x,-y,-z
11 y,-x+y,-z
12 x-y,x,-z
13 1/3-x,2/3-y,2/3-z
14 1/3+y,2/3-x+y,2/3-z
15 1/3+x-y,2/3+x,2/3-z
16 2/3-x,1/3-y,1/3-z
17 2/3+y,1/3-x+y,1/3-z
18 2/3+x-y,1/3+x,1/3-z
_cell_length_a                   29.241(1)
_cell_length_b                   29.241(1)
_cell_length_c                   27.242(3)
_cell_angle_alpha                90
_cell_angle_beta                 90
_cell_angle_gamma                120
_cell_volume                     20172.2
loop_
_atom_site_label
_atom_site_type_symbol
_atom_site_fract_x
_atom_site_fract_y
_atom_site_fract_z
C21 C 0.22989(18) 0.09713(19) 0.70576(18)
H21 H 0.2306 0.0658 0.6942
C22 C 0.18816(18) 0.07683(19) 0.74446(17)
H22 H 0.1866 0.1056 0.7607
H23 H 0.1944 0.0564 0.7688
C23 C 0.13764(19) 0.0422(2) 0.71571(18)
H24 H 0.1078 0.0284 0.7381
H25 H 0.1393 0.0123 0.7022
C24 C 0.12818(19) 0.07149(18) 0.67362(17)
H26 H 0.0928 0.0508 0.6603
H27 H 0.1336 0.1055 0.6844
C25 C 0.16997(18) 0.0779(2) 0.63622(17)
H28 H 0.1706 0.0453 0.6318
H29 H 0.1644 0.0898 0.6047
C26 C 0.21995(19) 0.1199(2) 0.66065(18)
H30 H 0.2160 0.1503 0.6695
Cu2 Cu 0.3333 0.1667 0.6667
N13 N 0.28461(15) 0.13340(17) 0.72345(14)
H49 H 0.2958 0.1152 0.7417
H50 H 0.2848 0.1587 0.7425
N14 N 0.26587(14) 0.13716(15) 0.62551(13)
H51 H 0.2677 0.1621 0.6050
H52 H 0.2617 0.1095 0.6075
O2 O 0.3364(4) 0.2565(5) 0.6799(4)
H59 H 0.3607 0.2863 0.6902
H60 H 0.3098 0.2451 0.6988
C21O C 0.43678(18) 0.23620(19) 0.62757(18)
H21O H 0.4361 0.2675 0.6391
C22O C 0.47851(18) 0.25650(19) 0.58887(17)
H22O H 0.4801 0.2277 0.5726
H23O H 0.4723 0.2769 0.5645
C23O C 0.52903(19) 0.2911(2) 0.61762(18)
H24O H 0.5589 0.3049 0.5952
H25O H 0.5274 0.3210 0.6311
C24O C 0.53849(19) 0.26184(18) 0.65971(17)
H26O H 0.5739 0.2825 0.6730
H27O H 0.5331 0.2278 0.6489
C25O C 0.49670(18) 0.2554(2) 0.69711(17)
H28O H 0.4961 0.2880 0.7015
H29O H 0.5023 0.2435 0.7286
C26O C 0.44672(19) 0.2134(2) 0.67268(18)
H30O H 0.4507 0.1830 0.6638
N13O N 0.38206(15) 0.19993(17) 0.60988(14)
H49O H 0.3709 0.2181 0.5916
H50O H 0.3819 0.1746 0.5908
N14O N 0.40080(14) 0.19617(15) 0.70782(13)
H51O H 0.3990 0.1712 0.7283
H52O H 0.4050 0.2238 0.7258
O2O O 0.3303(4) 0.0768(5) 0.6534(4)
H59O H 0.3060 0.0470 0.6431
H60O H 0.3569 0.0882 0.6345
O1 O 0.4233(4) 0.0889(4) 0.6765(4)
H57 H 0.4101 0.0822 0.6478
H58 H 0.3987 0.0759 0.6977
O3 O 0.4705(3) 0.0580(3) 0.3703(3)
H61 H 0.4488 0.0268 0.3608
H62 H 0.4656 0.0800 0.3539
O4 O 0.2518(3) 0.1964(3) 0.2953(2)
H63 H 0.2494 0.1980 0.2643
H64 H 0.2213 0.1767 0.3074
O5 O 0.6667 0.3333 0.14534(19)
O6 O 0.6667 0.3333 0.33333(19)
C1 C 0.32327(18) 0.03741(18) 0.46291(18)
C2 C 0.37601(19) 0.07183(19) 0.54038(18)
C3 C 0.3890(2) 0.00449(17) 0.48294(17)
C4 C 0.36874(19) -0.00819(19) 0.58158(17)
C5 C 0.31187(19) -0.0855(2) 0.51270(18)
C6 C 0.26528(19) -0.06235(18) 0.57743(17)
C7 C 0.2532(2) -0.0563(2) 0.48050(18)
C8 C 0.2740(2) 0.0225(2) 0.54838(18)
C9 C 0.43732(19) 0.2133(2) 0.42330(19)
H1 H 0.4384 0.2450 0.4101
C10 C 0.49024(18) 0.22946(19) 0.44716(18)
H2 H 0.4899 0.1982 0.4596
H3 H 0.4954 0.2525 0.4748
C11 C 0.53675(19) 0.25832(19) 0.41097(17)
H4 H 0.5382 0.2902 0.3989
H5 H 0.5699 0.2680 0.4273
C12 C 0.52780(19) 0.2207(2) 0.36841(17)
H6 H 0.5286 0.1899 0.3805
H7 H 0.5558 0.2382 0.3444
C13 C 0.47423(17) 0.20358(19) 0.34422(16)
H8 H 0.4689 0.1797 0.3173
H9 H 0.4744 0.2344 0.3307
C14 C 0.42823(19) 0.17596(19) 0.38110(18)
H10 H 0.4282 0.1447 0.3941
C15 C 0.22507(18) 0.12007(19) 0.44988(16)
H11 H 0.2299 0.1539 0.4384
C16 C 0.17933(17) 0.09551(19) 0.48685(17)
H12 H 0.1761 0.0628 0.4989
H13 H 0.1883 0.1193 0.5146
C17 C 0.12558(19) 0.0837(2) 0.46718(18)
H14 H 0.1257 0.1161 0.4593
H15 H 0.0980 0.0640 0.4910
C18 C 0.11752(19) 0.0508(2) 0.42099(18)
H16 H 0.1128 0.0168 0.4307
H17 H 0.0853 0.0445 0.4049
C19 C 0.16227(18) 0.0758(2) 0.38439(18)
H18 H 0.1666 0.1093 0.3735
H19 H 0.1538 0.0530 0.3559
C20 C 0.2145(2) 0.0847(2) 0.40769(17)
H20 H 0.2109 0.0511 0.4185
C27 C 0.46834(19) -0.10674(18) 0.46964(17)
H31 H 0.4979 -0.1058 0.4875
C28 C 0.44987(19) -0.15128(18) 0.43341(18)
H32 H 0.4252 -0.1499 0.4106
H33 H 0.4798 -0.1478 0.4148
C29 C 0.4234(2) -0.20353(19) 0.46010(18)
H34 H 0.4065 -0.2318 0.4363
H35 H 0.4501 -0.2080 0.4770
C30 C 0.38267(19) -0.20796(18) 0.49694(18)
H36 H 0.3540 -0.2074 0.4796
H37 H 0.3683 -0.2415 0.5139
C31 C 0.4054(2) -0.16352(18) 0.53457(17)
H38 H 0.4325 -0.1652 0.5538
H39 H 0.3779 -0.1671 0.5567
C32 C 0.4286(2) -0.11195(19) 0.50828(18)
H40 H 0.3994 -0.1120 0.4906
Cu1 Cu 0.32599(2) 0.14502(2) 0.41555(2)
Cu3 Cu 0.5000 0.0000 0.5000
Mo1 Mo 0.320980(17) -0.008850(18) 0.524620(16)
N1 N 0.32374(16) 0.06076(17) 0.42900(15)
N2 N 0.40831(17) 0.11579(16) 0.55190(15)
N3 N 0.42587(17) 0.01222(16) 0.46048(16)
N4 N 0.39559(15) -0.00875(16) 0.61271(16)
N5 N 0.30359(16) -0.12971(16) 0.50923(15)
N6 N 0.23559(17) -0.09380(17) 0.60598(15)
N7 N 0.21592(16) -0.08379(16) 0.45672(14)
N8 N 0.25006(16) 0.04274(15) 0.56341(14)
N9 N 0.38984(14) 0.18550(16) 0.45681(14)
H41 H 0.3866 0.2093 0.4751
H42 H 0.3939 0.1635 0.4771
N10 N 0.37503(15) 0.15933(15) 0.36042(14)
H43 H 0.3639 0.1301 0.3420
H44 H 0.3764 0.1851 0.3413
N11 N 0.27464(15) 0.12862(16) 0.47354(13)
H45 H 0.2692 0.0995 0.4897
H46 H 0.2872 0.1559 0.4947
N12 N 0.25767(15) 0.11058(15) 0.37006(14)
H47 H 0.2548 0.1353 0.3528
H48 H 0.2578 0.0867 0.3493
N15 N 0.49013(16) -0.05238(15) 0.44562(14)
H53 H 0.5212 -0.0427 0.4309
H54 H 0.4674 -0.0533 0.4229
N16 N 0.45184(15) -0.06359(15) 0.54204(14)
H55 H 0.4259 -0.0595 0.5552
H56 H 0.4703 -0.0674 0.5665
C1I C 0.67673(18) -0.03741(18) 0.53709(18)
C1J C 0.03741(18) -0.28586(25) 0.53709(18)
C1A C 0.96259(18) 0.28586(25) 0.46291(18)
C1K C 0.28586(25) 0.32327(18) 0.53709(18)
C1B C 0.71414(25) -0.32327(18) 0.46291(18)
C2I C 0.62399(19) -0.07183(19) 0.45962(18)
C2J C 0.07183(19) -0.30418(27) 0.45962(18)
C2A C 0.92817(19) 0.30418(27) 0.54038(18)
C2K C 0.30418(27) 0.37601(19) 0.45962(18)
C2B C 0.69582(27) -0.37601(19) 0.54038(18)
C3I C 0.6110(2) -0.00449(17) 0.51706(17)
C3J C 0.00449(17) -0.38451(26) 0.51706(17)
C3A C 0.99551(17) 0.38451(26) 0.48294(17)
C3K C 0.38451(26) 0.3890(2) 0.51706(17)
C3B C 0.61549(26) -0.3890(2) 0.48294(17)
C4I C 0.63126(19) 0.00819(19) 0.41842(17)
C4J C -0.00819(19) -0.37693(27) 0.41842(17)
C4A C 1.00819(19) 0.37693(27) 0.58158(17)
C4K C 0.37693(27) 0.36874(19) 0.41842(17)
C4B C 0.62307(27) -0.36874(19) 0.58158(17)
C5I C 0.68813(19) 0.0855(2) 0.48730(18)
C5J C -0.0855(2) -0.39737(28) 0.48730(18)
C5A C 1.0855(2) 0.39737(28) 0.51270(18)
C5K C 0.39737(28) 0.31187(19) 0.48730(18)
C5B C 0.60263(28) -0.31187(19) 0.51270(18)
C6I C 0.73472(19) 0.06235(18) 0.42257(17)
C6K C 0.32763(26) 0.26528(19) 0.42257(17)
C6B C 0.67237(26) -0.26528(19) 0.57743(17)
C6J C -0.06235(18) -0.32763(26) 0.42257(17)
C6A C 1.06235(18) 0.32763(26) 0.57743(17)
C7I C 0.7468(2) 0.0563(2) 0.51950(18)
C7J C -0.0563(2) -0.3095(3) 0.51950(18)
C7A C 1.0563(2) 0.3095(3) 0.48050(18)
C7K C 0.3095(3) 0.2532(2) 0.51950(18)
C7B C 0.6905(3) -0.2532(2) 0.48050(18)
C8I C 0.7260(2) -0.0225(2) 0.45162(18)
C8J C 0.0225(2) -0.2515(3) 0.45162(18)
C8A C 0.9775(2) 0.2515(3) 0.54838(18)
C8K C 0.2515(3) 0.2740(2) 0.45162(18)
C8B C 0.7485(3) -0.2740(2) 0.54838(18)
C9I C 0.56268(19) -0.2133(2) 0.57670(19)
C9J C 0.2133(2) -0.22402(28) 0.57670(19)
C9A C 0.7867(2) 0.22402(28) 0.42330(19)
C9K C 0.22402(28) 0.43732(19) 0.57670(19)
C9B C 0.77598(28) -0.43732(19) 0.42330(19)
H1I H 0.5616 -0.2450 0.5899
H1J H 0.2450 -0.1934 0.5899
H1A H 0.7550 0.1934 0.4101
H1K H 0.1934 0.4384 0.5899
H1B H 0.8066 -0.4384 0.4101
C10I C 0.50976(18) -0.22946(19) 0.55284(18)
C10J C 0.22946(19) -0.26078(26) 0.55284(18)
C10A C 0.77054(19) 0.26078(26) 0.44716(18)
C10K C 0.26078(26) 0.49024(18) 0.55284(18)
C10B C 0.73922(26) -0.49024(18) 0.44716(18)
H2I H 0.5101 -0.1982 0.5404
H2J H 0.1982 -0.2917 0.5404
H2A H 0.8018 0.2917 0.4596
H2K H 0.2917 0.4899 0.5404
H2B H 0.7083 -0.4899 0.4596
H3I H 0.5046 -0.2525 0.5252
H3J H 0.2525 -0.2429 0.5252
H3A H 0.7475 0.2429 0.4748
H3K H 0.2429 0.4954 0.5252
H3B H 0.7571 -0.4954 0.4748
C11I C 0.46325(19) -0.25832(19) 0.58903(17)
C11J C 0.25832(19) -0.27843(27) 0.58903(17)
C11A C 0.74168(19) 0.27843(27) 0.41097(17)
C11K C 0.27843(27) 0.53675(19) 0.58903(17)
C11B C 0.72157(27) -0.53675(19) 0.41097(17)
H4I H 0.4618 -0.2902 0.6011
H4J H 0.2902 -0.2480 0.6011
H4A H 0.7098 0.2480 0.3989
H4K H 0.2480 0.5382 0.6011
H4B H 0.7520 -0.5382 0.3989
H5I H 0.4301 -0.2680 0.5727
H5J H 0.2680 -0.3019 0.5727
H5A H 0.7320 0.3019 0.4273
H5K H 0.3019 0.5699 0.5727
H5B H 0.6981 -0.5699 0.4273
C12I C 0.47220(19) -0.2207(2) 0.63159(17)
C12J C 0.2207(2) -0.30710(28) 0.63159(17)
C12A C 0.7793(2) 0.30710(28) 0.36841(17)
C12K C 0.30710(28) 0.52780(19) 0.63159(17)
C12B C 0.69290(28) -0.52780(19) 0.36841(17)
H6I H 0.4714 -0.1899 0.6195
H6J H 0.1899 -0.3387 0.6195
H6A H 0.8101 0.3387 0.3805
H6K H 0.3387 0.5286 0.6195
H6B H 0.6613 -0.5286 0.3805
H7I H 0.4442 -0.2382 0.6556
H7J H 0.2382 -0.3176 0.6556
H7A H 0.7618 0.3176 0.3444
H7K H 0.3176 0.5558 0.6556
H7B H 0.6824 -0.5558 0.3444
C13I C 0.52577(17) -0.20358(19) 0.65578(16)
C13J C 0.20358(19) -0.27065(25) 0.65578(16)
C13A C 0.79642(19) 0.27065(25) 0.34422(16)
C13K C 0.27065(25) 0.47423(17) 0.65578(16)
C13B C 0.72935(25) -0.47423(17) 0.34422(16)
H8I H 0.5311 -0.1797 0.6827
H8J H 0.1797 -0.2892 0.6827
H8A H 0.8203 0.2892 0.3173
H8K H 0.2892 0.4689 0.6827
H8B H 0.7108 -0.4689 0.3173
H9I H 0.5256 -0.2344 0.6693
H9J H 0.2344 -0.2400 0.6693
H9A H 0.7656 0.2400 0.3307
H9K H 0.2400 0.4744 0.6693
H9B H 0.7600 -0.4744 0.3307
C14I C 0.57177(19) -0.17596(19) 0.61890(18)
C14J C 0.17596(19) -0.25227(27) 0.61890(18)
C14A C 0.82404(19) 0.25227(27) 0.38110(18)
C14K C 0.25227(27) 0.42823(19) 0.61890(18)
C14B C 0.74773(27) -0.42823(19) 0.38110(18)
H10I H 0.5718 -0.1447 0.6059
H10J H 0.1447 -0.2835 0.6059
H10A H 0.8553 0.2835 0.3941
H10K H 0.2835 0.4282 0.6059
H10B H 0.7165 -0.4282 0.3941
C15I C 0.77493(18) -0.12007(19) 0.55012(16)
C15J C 0.12007(19) -0.10500(26) 0.55012(16)
C15A C 0.87993(19) 0.10500(26) 0.44988(16)
C15K C 0.10500(26) 0.22507(18) 0.55012(16)
C15B C 0.89500(26) -0.22507(18) 0.44988(16)
H11I H 0.7701 -0.1539 0.5616
H11J H 0.1539 -0.0760 0.5616
H11A H 0.8461 0.0760 0.4384
H11K H 0.0760 0.2299 0.5616
H11B H 0.9240 -0.2299 0.4384
C16I C 0.82067(17) -0.09551(19) 0.51315(17)
C16J C 0.09551(19) -0.08382(25) 0.51315(17)
C16A C 0.90449(19) 0.08382(25) 0.48685(17)
C16K C 0.08382(25) 0.17933(17) 0.51315(17)
C16B C 0.91618(25) -0.17933(17) 0.48685(17)
H12I H 0.8239 -0.0628 0.5011
H12J H 0.0628 -0.1133 0.5011
H12A H 0.9372 0.1133 0.4989
H12K H 0.1133 0.1761 0.5011
H12B H 0.8867 -0.1761 0.4989
H13I H 0.8117 -0.1193 0.4854
H13J H 0.1193 -0.0690 0.4854
H13A H 0.8807 0.0690 0.5146
H13K H 0.0690 0.1883 0.4854
H13B H 0.9310 -0.1883 0.5146
C17I C 0.87442(19) -0.0837(2) 0.53282(18)
C17J C 0.0837(2) -0.04188(28) 0.53282(18)
C17A C 0.9163(2) 0.04188(28) 0.46718(18)
C17K C 0.04188(28) 0.12558(19) 0.53282(18)
C17B C 0.95812(28) -0.12558(19) 0.46718(18)
H14I H 0.8743 -0.1161 0.5407
H14J H 0.1161 -0.0096 0.5407
H14A H 0.8839 0.0096 0.4593
H14K H 0.0096 0.1257 0.5407
H14B H 0.9904 -0.1257 0.4593
H15I H 0.9020 -0.0640 0.5090
H15J H 0.0640 -0.0340 0.5090
H15A H 0.9360 0.0340 0.4910
H15K H 0.0340 0.0980 0.5090
H15B H 0.9660 -0.0980 0.4910
C18I C 0.88248(19) -0.0508(2) 0.57901(18)
C18J C 0.0508(2) -0.06672(28) 0.57901(18)
C18A C 0.9492(2) 0.06672(28) 0.42099(18)
C18K C 0.06672(28) 0.11752(19) 0.57901(18)
C18B C 0.93328(28) -0.11752(19) 0.42099(18)
H16I H 0.8872 -0.0168 0.5693
H16J H 0.0168 -0.0960 0.5693
H16A H 0.9832 0.0960 0.4307
H16K H 0.0960 0.1128 0.5693
H16B H 0.9040 -0.1128 0.4307
H17I H 0.9147 -0.0445 0.5951
H17J H 0.0445 -0.0408 0.5951
H17A H 0.9555 0.0408 0.4049
H17K H 0.0408 0.0853 0.5951
H17B H 0.9592 -0.0853 0.4049
C19I C 0.83773(18) -0.0758(2) 0.61561(18)
C19J C 0.0758(2) -0.08647(27) 0.61561(18)
C19A C 0.9242(2) 0.08647(27) 0.38439(18)
C19K C 0.08647(27) 0.16227(18) 0.61561(18)
C19B C 0.91353(27) -0.16227(18) 0.38439(18)
H18I H 0.8334 -0.1093 0.6265
H18J H 0.1093 -0.0573 0.6265
H18A H 0.8907 0.0573 0.3735
H18K H 0.0573 0.1666 0.6265
H18B H 0.9427 -0.1666 0.3735
H19I H 0.8462 -0.0530 0.6441
H19J H 0.0530 -0.1008 0.6441
H19A H 0.9470 0.1008 0.3559
H19K H 0.1008 0.1538 0.6441
H19B H 0.8992 -0.1538 0.3559
C20I C 0.7855(2) -0.0847(2) 0.59231(17)
C20J C 0.0847(2) -0.1298(3) 0.59231(17)
C20A C 0.9153(2) 0.1298(3) 0.40769(17)
C20K C 0.1298(3) 0.2145(2) 0.59231(17)
C20B C 0.8702(3) -0.2145(2) 0.40769(17)
H20I H 0.7891 -0.0511 0.5815
H20J H 0.0511 -0.1598 0.5815
H20A H 0.9489 0.1598 0.4185
H20K H 0.1598 0.2109 0.5815
H20B H 0.8402 -0.2109 0.4185
C27I C 0.53166(19) 0.10674(18) 0.53036(17)
C27J C -0.10674(18) -0.57508(26) 0.53036(17)
C27A C 0.10674(18) -0.42492(26) 0.46964(17)
C27A_2 C 1.10674(18) 0.57508(26) 0.46964(17)
C27J_2 C 0.89326(18) 0.42492(26) 0.53036(17)
H31I H 0.5021 0.1058 0.5125
H31J H -0.1058 -0.6037 0.5125
H31A H 0.1058 -0.3963 0.4875
H31A_2 H 1.1058 0.6037 0.4875
H31J_2 H 0.8942 0.3963 0.5125
C28I C 0.55013(19) 0.15128(18) 0.56659(18)
C28J C -0.15128(18) -0.60115(26) 0.56659(18)
C28A C 0.15128(18) -0.39885(26) 0.43341(18)
C28A_2 C 1.15128(18) 0.60115(26) 0.43341(18)
C28J_2 C 0.84872(18) 0.39885(26) 0.56659(18)
H32I H 0.5748 0.1499 0.5894
H32J H -0.1499 -0.5751 0.5894
H32A H 0.1499 -0.4249 0.4106
H32A_2 H 1.1499 0.5751 0.4106
H32J_2 H 0.8501 0.4249 0.5894
H33I H 0.5202 0.1478 0.5852
H33J H -0.1478 -0.6276 0.5852
H33A H 0.1478 -0.3724 0.4148
H33A_2 H 1.1478 0.6276 0.4148
H33J_2 H 0.8522 0.3724 0.5852
C29I C 0.5766(2) 0.20353(19) 0.53990(18)
C29J C -0.20353(19) -0.62693(28) 0.53990(18)
C29A C 0.20353(19) -0.37307(28) 0.46010(18)
C29A_2 C 1.20353(19) 0.62693(28) 0.46010(18)
C29J_2 C 0.79647(19) 0.37307(28) 0.53990(18)
H34I H 0.5935 0.2318 0.5637
H34J H -0.2318 -0.6383 0.5637
H34A H 0.2318 -0.3617 0.4363
H34A_2 H 1.2318 0.6383 0.4363
H34J_2 H 0.7682 0.3617 0.5637
H35I H 0.5499 0.2080 0.5230
H35J H -0.2080 -0.6581 0.5230
H35A H 0.2080 -0.3419 0.4770
H35A_2 H 1.2080 0.6581 0.4770
H35J_2 H 0.7920 0.3419 0.5230
C30I C 0.61733(19) 0.20796(18) 0.50306(18)
C30J C -0.20796(18) -0.59063(26) 0.50306(18)
C30A C 0.20796(18) -0.40937(26) 0.49694(18)
C30A_2 C 1.20796(18) 0.59063(26) 0.49694(18)
C30J_2 C 0.79204(18) 0.40937(26) 0.50306(18)
H36I H 0.6460 0.2074 0.5204
H36J H -0.2074 -0.5614 0.5204
H36A H 0.2074 -0.4386 0.4796
H36A_2 H 1.2074 0.5614 0.4796
H36J_2 H 0.7926 0.4386 0.5204
H37I H 0.6317 0.2415 0.4861
H37J H -0.2415 -0.6098 0.4861
H37A H 0.2415 -0.3902 0.5139
H37A_2 H 1.2415 0.6098 0.5139
H37J_2 H 0.7585 0.3902 0.4861
C31I C 0.5946(2) 0.16352(18) 0.46543(17)
C31J C -0.16352(18) -0.56892(27) 0.46543(17)
C31A C 0.16352(18) -0.43108(27) 0.53457(17)
C31A_2 C 1.16352(18) 0.56892(27) 0.53457(17)
C31J_2 C 0.83648(18) 0.43108(27) 0.46543(17)
H38I H 0.5675 0.1652 0.4462
H38J H -0.1652 -0.5977 0.4462
H38A H 0.1652 -0.4023 0.5538
H38A_2 H 1.1652 0.5977 0.5538
H38J_2 H 0.8348 0.4023 0.4462
H39I H 0.6221 0.1671 0.4433
H39J H -0.1671 -0.5450 0.4433
H39A H 0.1671 -0.4550 0.5567
H39A_2 H 1.1671 0.5450 0.5567
H39J_2 H 0.8329 0.4550 0.4433
C32I C 0.5714(2) 0.11195(19) 0.49172(18)
C32J C -0.11195(19) -0.54055(28) 0.49172(18)
C32A C 0.11195(19) -0.45945(28) 0.50828(18)
C32A_2 C 1.11195(19) 0.54055(28) 0.50828(18)
C32J_2 C 0.88805(19) 0.45945(28) 0.49172(18)
H40I H 0.6006 0.1120 0.5094
H40J H -0.1120 -0.5114 0.5094
H40A H 0.1120 -0.4886 0.4906
H40A_2 H 1.1120 0.5114 0.4906
H40J_2 H 0.8880 0.4886 0.5094
Cu1I Cu 0.67401(2) -0.14502(2) 0.58445(2)
Cu1J Cu 0.14502(2) -0.18097(3) 0.58445(2)
Cu1A Cu 0.85498(2) 0.18097(3) 0.41555(2)
Cu1K Cu 0.18097(3) 0.32599(2) 0.58445(2)
Cu1B Cu 0.81903(3) -0.32599(2) 0.41555(2)
Cu1B_2 Cu -0.18097(3) -0.32599(2) 0.41555(2)
Cu1K_2 Cu 1.18097(3) 0.32599(2) 0.58445(2)
Cu3A Cu 0.0000 -0.5000 0.5000
Cu3A_2 Cu 1.0000 0.5000 0.5000
Cu3B Cu 0.5000 0.5000 0.5000
Cu3B_2 Cu 0.5000 -0.5000 0.5000
Mo1I Mo 0.679020(17) 0.008850(18) 0.475380(16)
Mo1J Mo -0.008850(18) -0.329830(25) 0.475380(16)
Mo1A Mo 1.008850(18) 0.329830(25) 0.524620(16)
Mo1K Mo 0.329830(25) 0.320980(17) 0.475380(16)
Mo1B Mo 0.670170(25) -0.320980(17) 0.524620(16)
N1I N 0.67626(16) -0.06076(17) 0.57100(15)
N1J N 0.06076(17) -0.26298(23) 0.57100(15)
N1A N 0.93924(17) 0.26298(23) 0.42900(15)
N1K N 0.26298(23) 0.32374(16) 0.57100(15)
N1B N 0.73702(23) -0.32374(16) 0.42900(15)
N2I N 0.59169(17) -0.11579(16) 0.44810(15)
N2J N 0.11579(16) -0.29252(23) 0.44810(15)
N2A N 0.88421(16) 0.29252(23) 0.55190(15)
N2K N 0.29252(23) 0.40831(17) 0.44810(15)
N2B N 0.70748(23) -0.40831(17) 0.55190(15)
N3I N 0.57413(17) -0.01222(16) 0.53952(16)
N3J N 0.01222(16) -0.41365(23) 0.53952(16)
N3A N 0.98778(16) 0.41365(23) 0.46048(16)
N3K N 0.41365(23) 0.42587(17) 0.53952(16)
N3B N 0.58635(23) -0.42587(17) 0.46048(16)
N3A_2 N -0.01222(16) -0.58635(23) 0.46048(16)
N3J_2 N 1.01222(16) 0.58635(23) 0.53952(16)
N4I N 0.60441(15) 0.00875(16) 0.38729(16)
N4J N -0.00875(16) -0.40434(22) 0.38729(16)
N4A N 1.00875(16) 0.40434(22) 0.61271(16)
N4K N 0.40434(22) 0.39559(15) 0.38729(16)
N4B N 0.59566(22) -0.39559(15) 0.61271(16)
N5I N 0.69641(16) 0.12971(16) 0.49077(15)
N5J N -0.12971(16) -0.43330(23) 0.49077(15)
N5A N 1.12971(16) 0.43330(23) 0.50923(15)
N5K N 0.43330(23) 0.30359(16) 0.49077(15)
N5B N 0.56670(23) -0.30359(16) 0.50923(15)
N6I N 0.76441(17) 0.09380(17) 0.39402(15)
N6K N 0.32939(24) 0.23559(17) 0.39402(15)
N6B N 0.67061(24) -0.23559(17) 0.60598(15)
N6J N -0.09380(17) -0.32939(24) 0.39402(15)
N6A N 1.09380(17) 0.32939(24) 0.60598(15)
N6A_2 N 0.09380(17) 0.32939(24) 0.60598(15)
N6J_2 N 0.90620(17) -0.32939(24) 0.39402(15)
N7I N 0.78408(16) 0.08379(16) 0.54328(14)
N7J N -0.08379(16) -0.29971(23) 0.54328(14)
N7A N 1.08379(16) 0.29971(23) 0.45672(14)
N7K N 0.29971(23) 0.21592(16) 0.54328(14)
N7B N 0.70029(23) -0.21592(16) 0.45672(14)
N8I N 0.74994(16) -0.04274(15) 0.43659(14)
N8J N 0.04274(15) -0.20732(22) 0.43659(14)
N8A N 0.95726(15) 0.20732(22) 0.56341(14)
N8K N 0.20732(22) 0.25006(16) 0.43659(14)
N8B N 0.79268(22) -0.25006(16) 0.56341(14)
N9I N 0.61016(14) -0.18550(16) 0.54319(14)
N9J N 0.18550(16) -0.20434(21) 0.54319(14)
N9A N 0.81450(16) 0.20434(21) 0.45681(14)
N9K N 0.20434(21) 0.38984(14) 0.54319(14)
N9B N 0.79566(21) -0.38984(14) 0.45681(14)
H41I H 0.6134 -0.2093 0.5249
H41J H 0.2093 -0.1773 0.5249
H41A H 0.7907 0.1773 0.4751
H41K H 0.1773 0.3866 0.5249
H41B H 0.8227 -0.3866 0.4751
H42I H 0.6061 -0.1635 0.5229
H42J H 0.1635 -0.2304 0.5229
H42A H 0.8365 0.2304 0.4771
H42K H 0.2304 0.3939 0.5229
H42B H 0.7696 -0.3939 0.4771
N10I N 0.62497(15) -0.15933(15) 0.63958(14)
N10J N 0.15933(15) -0.21570(21) 0.63958(14)
N10A N 0.84067(15) 0.21570(21) 0.36042(14)
N10K N 0.21570(21) 0.37503(15) 0.63958(14)
N10B N 0.78430(21) -0.37503(15) 0.36042(14)
H43I H 0.6361 -0.1301 0.6580
H43J H 0.1301 -0.2338 0.6580
H43A H 0.8699 0.2338 0.3420
H43K H 0.2338 0.3639 0.6580
H43B H 0.7662 -0.3639 0.3420
H44I H 0.6236 -0.1851 0.6587
H44J H 0.1851 -0.1913 0.6587
H44A H 0.8149 0.1913 0.3413
H44K H 0.1913 0.3764 0.6587
H44B H 0.8087 -0.3764 0.3413
N11I N 0.72536(15) -0.12862(16) 0.52646(13)
N11J N 0.12862(16) -0.14602(22) 0.52646(13)
N11A N 0.87138(16) 0.14602(22) 0.47354(13)
N11K N 0.14602(22) 0.27464(15) 0.52646(13)
N11B N 0.85398(22) -0.27464(15) 0.47354(13)
H45I H 0.7308 -0.0995 0.5103
H45J H 0.0995 -0.1697 0.5103
H45A H 0.9005 0.1697 0.4897
H45K H 0.1697 0.2692 0.5103
H45B H 0.8303 -0.2692 0.4897
H46I H 0.7128 -0.1559 0.5053
H46J H 0.1559 -0.1313 0.5053
H46A H 0.8441 0.1313 0.4947
H46K H 0.1313 0.2872 0.5053
H46B H 0.8687 -0.2872 0.4947
N12I N 0.74233(15) -0.11058(15) 0.62994(14)
N12J N 0.11058(15) -0.14709(21) 0.62994(14)
N12A N 0.88942(15) 0.14709(21) 0.37006(14)
N12K N 0.14709(21) 0.25767(15) 0.62994(14)
N12B N 0.85291(21) -0.25767(15) 0.37006(14)
H47I H 0.7452 -0.1353 0.6472
H47J H 0.1353 -0.1195 0.6472
H47A H 0.8647 0.1195 0.3528
H47K H 0.1195 0.2548 0.6472
H47B H 0.8805 -0.2548 0.3528
H48I H 0.7422 -0.0867 0.6507
H48J H 0.0867 -0.1711 0.6507
H48A H 0.9133 0.1711 0.3493
H48K H 0.1711 0.2578 0.6507
H48B H 0.8289 -0.2578 0.3493
N15I N 0.50987(16) 0.05238(15) 0.55438(14)
N15J N -0.05238(15) -0.54251(22) 0.55438(14)
N15A N 0.05238(15) -0.45749(22) 0.44562(14)
N15A_2 N 1.05238(15) 0.54251(22) 0.44562(14)
N15J_2 N 0.94762(15) 0.45749(22) 0.55438(14)
H53I H 0.4788 0.0427 0.5691
H53J H -0.0427 -0.5639 0.5691
H53A H 0.0427 -0.4361 0.4309
H53A_2 H 1.0427 0.5639 0.4309
H53J_2 H 0.9573 0.4361 0.5691
H54I H 0.5326 0.0533 0.5771
H54J H -0.0533 -0.5207 0.5771
H54A H 0.0533 -0.4793 0.4229
H54A_2 H 1.0533 0.5207 0.4229
H54J_2 H 0.9467 0.4793 0.5771
N16I N 0.54816(15) 0.06359(15) 0.45796(14)
N16J N -0.06359(15) -0.51543(21) 0.45796(14)
N16A N 0.06359(15) -0.48457(21) 0.54204(14)
N16A_2 N 1.06359(15) 0.51543(21) 0.54204(14)
N16J_2 N 0.93641(15) 0.48457(21) 0.45796(14)
H55I H 0.5741 0.0595 0.4448
H55J H -0.0595 -0.4854 0.4448
H55A H 0.0595 -0.5146 0.5552
H55A_2 H 1.0595 0.4854 0.5552
H55J_2 H 0.9405 0.5146 0.4448
H56I H 0.5297 0.0674 0.4335
H56J H -0.0674 -0.5377 0.4335
H56A H 0.0674 -0.4623 0.5665
H56A_2 H 1.0674 0.5377 0.5665
H56J_2 H 0.9326 0.4623 0.4335
H65? H 0.6412 0.3390 0.1405
H66? H 0.6694 0.3205 0.1183
H67? H 0.6572 0.3143 0.3591
H68? H 0.6396 0.3266 0.3165
loop_
_geom_bond_atom_site_label_1
_geom_bond_atom_site_label_2
_geom_bond_site_symmetry_1
_geom_bond_site_symmetry_2
C1 Mo1 1_555 1_555
C2 Mo1 1_555 1_555
C3 Mo1 1_555 1_555
C4 Mo1 1_555 1_555
C5 Mo1 1_555 1_555
C6 Mo1 1_555 1_555
C7 Mo1 1_555 1_555
C8 Mo1 1_555 1_555
C9 H1 1_555 1_555
C10 C9 1_555 1_555
H2 C10 1_555 1_555
H3 C10 1_555 1_555
C11 C10 1_555 1_555
H4 C11 1_555 1_555
H5 C11 1_555 1_555
C12 C11 1_555 1_555
H6 C12 1_555 1_555
H7 C12 1_555 1_555
C13 C12 1_555 1_555
H8 C13 1_555 1_555
H9 C13 1_555 1_555
C14 C9 1_555 1_555
H10 C14 1_555 1_555
C15 H11 1_555 1_555
C16 C15 1_555 1_555
H12 C16 1_555 1_555
H13 C16 1_555 1_555
C17 C16 1_555 1_555
H14 C17 1_555 1_555
H15 C17 1_555 1_555
C18 C17 1_555 1_555
H16 C18 1_555 1_555
H17 C18 1_555 1_555
C19 C18 1_555 1_555
H18 C19 1_555 1_555
H19 C19 1_555 1_555
C20 C15 1_555 1_555
H20 C20 1_555 1_555
C21 H21 1_555 1_555
C22 C21 1_555 1_555
H22 C22 1_555 1_555
H23 C22 1_555 1_555
C23 C22 1_555 1_555
H24 C23 1_555 1_555
H25 C23 1_555 1_555
C24 C23 1_555 1_555
H26 C24 1_555 1_555
H27 C24 1_555 1_555
C25 C24 1_555 1_555
H28 C25 1_555 1_555
H29 C25 1_555 1_555
C26 C21 1_555 1_555
H30 C26 1_555 1_555
C27 H31 1_555 1_555
C28 C27 1_555 1_555
H32 C28 1_555 1_555
H33 C28 1_555 1_555
C29 C28 1_555 1_555
H34 C29 1_555 1_555
H35 C29 1_555 1_555
C30 C29 1_555 1_555
H36 C30 1_555 1_555
H37 C30 1_555 1_555
C31 C30 1_555 1_555
H38 C31 1_555 1_555
H39 C31 1_555 1_555
C32 C27 1_555 1_555
H40 C32 1_555 1_555
Cu1 N1 1_555 1_555
Cu2 N13 1_555 1_555
Cu3 N3 1_555 1_555
N1 C1 1_555 1_555
N2 C2 1_555 1_555
N3 C3 1_555 1_555
N4 C4 1_555 1_555
N5 C5 1_555 1_555
N6 C6 1_555 1_555
N7 C7 1_555 1_555
N8 C8 1_555 1_555
N9 C9 1_555 1_555
H41 N9 1_555 1_555
H42 N9 1_555 1_555
N10 C14 1_555 1_555
H43 N10 1_555 1_555
H44 N10 1_555 1_555
N11 C15 1_555 1_555
H45 N11 1_555 1_555
H46 N11 1_555 1_555
N12 C20 1_555 1_555
H47 N12 1_555 1_555
H48 N12 1_555 1_555
N13 C21 1_555 1_555
H49 N13 1_555 1_555
H50 N13 1_555 1_555
N14 C26 1_555 1_555
H51 N14 1_555 1_555
H52 N14 1_555 1_555
N15 C27 1_555 1_555
H53 N15 1_555 1_555
H54 N15 1_555 1_555
N16 C32 1_555 1_555
H55 N16 1_555 1_555
H56 N16 1_555 1_555
O1 H57 1_555 1_555
H58 O1 1_555 1_555
O2 Cu2 1_555 1_555
H59 O2 1_555 1_555
H60 O2 1_555 1_555
O3 H61 1_555 1_555
H62 O3 1_555 1_555
O4 H63 1_555 1_555
H64 O4 1_555 1_555
C1I Mo1I 1_555 1_555
C1J Mo1J 1_555 1_555
C1A Mo1A 1_555 1_555
C1K Mo1K 1_555 1_555
C1B Mo1B 1_555 1_555
C2I Mo1I 1_555 1_555
C2J Mo1J 1_555 1_555
C2A Mo1A 1_555 1_555
C2K Mo1K 1_555 1_555
C2B Mo1B 1_555 1_555
C3I Mo1I 1_555 1_555
C3J Mo1J 1_555 1_555
C3A Mo1A 1_555 1_555
C3K Mo1K 1_555 1_555
C3B Mo1B 1_555 1_555
C4I Mo1I 1_555 1_555
C4J Mo1J 1_555 1_555
C4A Mo1A 1_555 1_555
C4K Mo1K 1_555 1_555
C4B Mo1B 1_555 1_555
C5I Mo1I 1_555 1_555
C5J Mo1J 1_555 1_555
C5A Mo1A 1_555 1_555
C5K Mo1K 1_555 1_555
C5B Mo1B 1_555 1_555
C6I Mo1I 1_555 1_555
C6K Mo1K 1_555 1_555
C6B Mo1B 1_555 1_555
C6J Mo1J 1_555 1_555
C6A Mo1A 1_555 1_555
C7I Mo1I 1_555 1_555
C7J Mo1J 1_555 1_555
C7A Mo1A 1_555 1_555
C7K Mo1K 1_555 1_555
C7B Mo1B 1_555 1_555
C8I Mo1I 1_555 1_555
C8J Mo1J 1_555 1_555
C8A Mo1A 1_555 1_555
C8K Mo1K 1_555 1_555
C8B Mo1B 1_555 1_555
C9I H1I 1_555 1_555
C9J H1J 1_555 1_555
C9A H1A 1_555 1_555
C9K H1K 1_555 1_555
C9B H1B 1_555 1_555
C10I C9I 1_555 1_555
C10J C9J 1_555 1_555
C10A C9A 1_555 1_555
C10K C9K 1_555 1_555
C10B C9B 1_555 1_555
H2I C10I 1_555 1_555
H2J C10J 1_555 1_555
H2A C10A 1_555 1_555
H2K C10K 1_555 1_555
H2B C10B 1_555 1_555
H3I C10I 1_555 1_555
H3J C10J 1_555 1_555
H3A C10A 1_555 1_555
H3K C10K 1_555 1_555
H3B C10B 1_555 1_555
C11I C10I 1_555 1_555
C11J C10J 1_555 1_555
C11A C10A 1_555 1_555
C11K C10K 1_555 1_555
C11B C10B 1_555 1_555
H4I C11I 1_555 1_555
H4J C11J 1_555 1_555
H4A C11A 1_555 1_555
H4K C11K 1_555 1_555
H4B C11B 1_555 1_555
H5I C11I 1_555 1_555
H5J C11J 1_555 1_555
H5A C11A 1_555 1_555
H5K C11K 1_555 1_555
H5B C11B 1_555 1_555
C12I C11I 1_555 1_555
C12J C11J 1_555 1_555
C12A C11A 1_555 1_555
C12K C11K 1_555 1_555
C12B C11B 1_555 1_555
H6I C12I 1_555 1_555
H6J C12J 1_555 1_555
H6A C12A 1_555 1_555
H6K C12K 1_555 1_555
H6B C12B 1_555 1_555
H7I C12I 1_555 1_555
H7J C12J 1_555 1_555
H7A C12A 1_555 1_555
H7K C12K 1_555 1_555
H7B C12B 1_555 1_555
C13I C12I 1_555 1_555
C13J C12J 1_555 1_555
C13A C12A 1_555 1_555
C13K C12K 1_555 1_555
C13B C12B 1_555 1_555
H8I C13I 1_555 1_555
H8J C13J 1_555 1_555
H8A C13A 1_555 1_555
H8K C13K 1_555 1_555
H8B C13B 1_555 1_555
H9I C13I 1_555 1_555
H9J C13J 1_555 1_555
H9A C13A 1_555 1_555
H9K C13K 1_555 1_555
H9B C13B 1_555 1_555
C14I C9I 1_555 1_555
C14J C9J 1_555 1_555
C14A C9A 1_555 1_555
C14K C9K 1_555 1_555
C14B C9B 1_555 1_555
H10I C14I 1_555 1_555
H10J C14J 1_555 1_555
H10A C14A 1_555 1_555
H10K C14K 1_555 1_555
H10B C14B 1_555 1_555
C15I H11I 1_555 1_555
C15J H11J 1_555 1_555
C15A H11A 1_555 1_555
C15K H11K 1_555 1_555
C15B H11B 1_555 1_555
C16I C15I 1_555 1_555
C16J C15J 1_555 1_555
C16A C15A 1_555 1_555
C16K C15K 1_555 1_555
C16B C15B 1_555 1_555
H12I C16I 1_555 1_555
H12J C16J 1_555 1_555
H12A C16A 1_555 1_555
H12K C16K 1_555 1_555
H12B C16B 1_555 1_555
H13I C16I 1_555 1_555
H13J C16J 1_555 1_555
H13A C16A 1_555 1_555
H13K C16K 1_555 1_555
H13B C16B 1_555 1_555
C17I C16I 1_555 1_555
C17J C16J 1_555 1_555
C17A C16A 1_555 1_555
C17K C16K 1_555 1_555
C17B C16B 1_555 1_555
H14I C17I 1_555 1_555
H14J C17J 1_555 1_555
H14A C17A 1_555 1_555
H14K C17K 1_555 1_555
H14B C17B 1_555 1_555
H15I C17I 1_555 1_555
H15J C17J 1_555 1_555
H15A C17A 1_555 1_555
H15K C17K 1_555 1_555
H15B C17B 1_555 1_555
C18I C17I 1_555 1_555
C18J C17J 1_555 1_555
C18A C17A 1_555 1_555
C18K C17K 1_555 1_555
C18B C17B 1_555 1_555
H16I C18I 1_555 1_555
H16J C18J 1_555 1_555
H16A C18A 1_555 1_555
H16K C18K 1_555 1_555
H16B C18B 1_555 1_555
H17I C18I 1_555 1_555
H17J C18J 1_555 1_555
H17A C18A 1_555 1_555
H17K C18K 1_555 1_555
H17B C18B 1_555 1_555
C19I C18I 1_555 1_555
C19J C18J 1_555 1_555
C19A C18A 1_555 1_555
C19K C18K 1_555 1_555
C19B C18B 1_555 1_555
H18I C19I 1_555 1_555
H18J C19J 1_555 1_555
H18A C19A 1_555 1_555
H18K C19K 1_555 1_555
H18B C19B 1_555 1_555
H19I C19I 1_555 1_555
H19J C19J 1_555 1_555
H19A C19A 1_555 1_555
H19K C19K 1_555 1_555
H19B C19B 1_555 1_555
C20I C15I 1_555 1_555
C20J C15J 1_555 1_555
C20A C15A 1_555 1_555
C20K C15K 1_555 1_555
C20B C15B 1_555 1_555
H20I C20I 1_555 1_555
H20J C20J 1_555 1_555
H20A C20A 1_555 1_555
H20K C20K 1_555 1_555
H20B C20B 1_555 1_555
C21O H21O 1_555 1_555
C22O C21O 1_555 1_555
H22O C22O 1_555 1_555
H23O C22O 1_555 1_555
C23O C22O 1_555 1_555
H24O C23O 1_555 1_555
H25O C23O 1_555 1_555
C24O C23O 1_555 1_555
H26O C24O 1_555 1_555
H27O C24O 1_555 1_555
C25O C24O 1_555 1_555
H28O C25O 1_555 1_555
H29O C25O 1_555 1_555
C26O C21O 1_555 1_555
H30O C26O 1_555 1_555
C27I H31I 1_555 1_555
C27J H31J 1_555 1_555
C27A H31A 1_555 1_555
C27A_2 H31A_2 1_555 1_555
C27J_2 H31J_2 1_555 1_555
C28I C27I 1_555 1_555
C28J C27J 1_555 1_555
C28A C27A 1_555 1_555
C28A_2 C27A_2 1_555 1_555
C28J_2 C27J_2 1_555 1_555
H32I C28I 1_555 1_555
H32J C28J 1_555 1_555
H32A C28A 1_555 1_555
H32A_2 C28A_2 1_555 1_555
H32J_2 C28J_2 1_555 1_555
H33I C28I 1_555 1_555
H33J C28J 1_555 1_555
H33A C28A 1_555 1_555
H33A_2 C28A_2 1_555 1_555
H33J_2 C28J_2 1_555 1_555
C29I C28I 1_555 1_555
C29J C28J 1_555 1_555
C29A C28A 1_555 1_555
C29A_2 C28A_2 1_555 1_555
C29J_2 C28J_2 1_555 1_555
H34I C29I 1_555 1_555
H34J C29J 1_555 1_555
H34A C29A 1_555 1_555
H34A_2 C29A_2 1_555 1_555
H34J_2 C29J_2 1_555 1_555
H35I C29I 1_555 1_555
H35J C29J 1_555 1_555
H35A C29A 1_555 1_555
H35A_2 C29A_2 1_555 1_555
H35J_2 C29J_2 1_555 1_555
C30I C29I 1_555 1_555
C30J C29J 1_555 1_555
C30A C29A 1_555 1_555
C30A_2 C29A_2 1_555 1_555
C30J_2 C29J_2 1_555 1_555
H36I C30I 1_555 1_555
H36J C30J 1_555 1_555
H36A C30A 1_555 1_555
H36A_2 C30A_2 1_555 1_555
H36J_2 C30J_2 1_555 1_555
H37I C30I 1_555 1_555
H37J C30J 1_555 1_555
H37A C30A 1_555 1_555
H37A_2 C30A_2 1_555 1_555
H37J_2 C30J_2 1_555 1_555
C31I C30I 1_555 1_555
C31J C30J 1_555 1_555
C31A C30A 1_555 1_555
C31A_2 C30A_2 1_555 1_555
C31J_2 C30J_2 1_555 1_555
H38I C31I 1_555 1_555
H38J C31J 1_555 1_555
H38A C31A 1_555 1_555
H38A_2 C31A_2 1_555 1_555
H38J_2 C31J_2 1_555 1_555
H39I C31I 1_555 1_555
H39J C31J 1_555 1_555
H39A C31A 1_555 1_555
H39A_2 C31A_2 1_555 1_555
H39J_2 C31J_2 1_555 1_555
C32I C27I 1_555 1_555
C32J C27J 1_555 1_555
C32A C27A 1_555 1_555
C32A_2 C27A_2 1_555 1_555
C32J_2 C27J_2 1_555 1_555
H40I C32I 1_555 1_555
H40J C32J 1_555 1_555
H40A C32A 1_555 1_555
H40A_2 C32A_2 1_555 1_555
H40J_2 C32J_2 1_555 1_555
Cu1I N1I 1_555 1_555
Cu1J N6 1_555 1_555
Cu1A N1A 1_555 1_555
Cu1K N1K 1_555 1_555
Cu1B N1B 1_555 1_555
Cu1B_2 N6J 1_555 1_555
Cu1K_2 N6A 1_555 1_555
Cu3A N3J 1_555 1_555
Cu3A_2 N3A 1_555 1_555
Cu3B N3K 1_555 1_555
Cu3B_2 N3B 1_555 1_555
N1I C1I 1_555 1_555
N1J C1J 1_555 1_555
N1A C1A 1_555 1_555
N1K C1K 1_555 1_555
N1B C1B 1_555 1_555
N2I C2I 1_555 1_555
N2J C2J 1_555 1_555
N2A C2A 1_555 1_555
N2K C2K 1_555 1_555
N2B C2B 1_555 1_555
N3I Cu3 1_555 1_555
N3J C3J 1_555 1_555
N3A C3A 1_555 1_555
N3K C3K 1_555 1_555
N3B C3B 1_555 1_555
N3A_2 Cu3A 1_555 1_555
N3J_2 Cu3A_2 1_555 1_555
N4I C4I 1_555 1_555
N4J C4J 1_555 1_555
N4A C4A 1_555 1_555
N4K C4K 1_555 1_555
N4B C4B 1_555 1_555
N5I C5I 1_555 1_555
N5J C5J 1_555 1_555
N5A C5A 1_555 1_555
N5K C5K 1_555 1_555
N5B C5B 1_555 1_555
N6I C6I 1_555 1_555
N6K Cu1 1_555 1_555
N6B C6B 1_555 1_555
N6J C6J 1_555 1_555
N6A C6A 1_555 1_555
N6A_2 Cu1K 1_555 1_555
N6J_2 Cu1B 1_555 1_555
N7I C7I 1_555 1_555
N7J C7J 1_555 1_555
N7A C7A 1_555 1_555
N7K C7K 1_555 1_555
N7B C7B 1_555 1_555
N8I C8I 1_555 1_555
N8J C8J 1_555 1_555
N8A C8A 1_555 1_555
N8K C8K 1_555 1_555
N8B C8B 1_555 1_555
N9I C9I 1_555 1_555
N9J C9J 1_555 1_555
N9A C9A 1_555 1_555
N9K C9K 1_555 1_555
N9B C9B 1_555 1_555
H41I N9I 1_555 1_555
H41J N9J 1_555 1_555
H41A N9A 1_555 1_555
H41K N9K 1_555 1_555
H41B N9B 1_555 1_555
H42I N9I 1_555 1_555
H42J N9J 1_555 1_555
H42A N9A 1_555 1_555
H42K N9K 1_555 1_555
H42B N9B 1_555 1_555
N10I C14I 1_555 1_555
N10J C14J 1_555 1_555
N10A C14A 1_555 1_555
N10K C14K 1_555 1_555
N10B C14B 1_555 1_555
H43I N10I 1_555 1_555
H43J N10J 1_555 1_555
H43A N10A 1_555 1_555
H43K N10K 1_555 1_555
H43B N10B 1_555 1_555
H44I N10I 1_555 1_555
H44J N10J 1_555 1_555
H44A N10A 1_555 1_555
H44K N10K 1_555 1_555
H44B N10B 1_555 1_555
N11I C15I 1_555 1_555
N11J C15J 1_555 1_555
N11A C15A 1_555 1_555
N11K C15K 1_555 1_555
N11B C15B 1_555 1_555
H45I N11I 1_555 1_555
H45J N11J 1_555 1_555
H45A N11A 1_555 1_555
H45K N11K 1_555 1_555
H45B N11B 1_555 1_555
H46I N11I 1_555 1_555
H46J N11J 1_555 1_555
H46A N11A 1_555 1_555
H46K N11K 1_555 1_555
H46B N11B 1_555 1_555
N12I C20I 1_555 1_555
N12J C20J 1_555 1_555
N12A C20A 1_555 1_555
N12K C20K 1_555 1_555
N12B C20B 1_555 1_555
H47I N12I 1_555 1_555
H47J N12J 1_555 1_555
H47A N12A 1_555 1_555
H47K N12K 1_555 1_555
H47B N12B 1_555 1_555
H48I N12I 1_555 1_555
H48J N12J 1_555 1_555
H48A N12A 1_555 1_555
H48K N12K 1_555 1_555
H48B N12B 1_555 1_555
N13O Cu2 1_555 1_555
H49O N13O 1_555 1_555
H50O N13O 1_555 1_555
N14O Cu2 1_555 1_555
H51O N14O 1_555 1_555
H52O N14O 1_555 1_555
N15I Cu3 1_555 1_555
N15J C27J 1_555 1_555
N15A C27A 1_555 1_555
N15A_2 C27A_2 1_555 1_555
N15J_2 C27J_2 1_555 1_555
H53I N15I 1_555 1_555
H53J N15J 1_555 1_555
H53A N15A 1_555 1_555
H53A_2 N15A_2 1_555 1_555
H53J_2 N15J_2 1_555 1_555
H54I N15I 1_555 1_555
H54J N15J 1_555 1_555
H54A N15A 1_555 1_555
H54A_2 N15A_2 1_555 1_555
H54J_2 N15J_2 1_555 1_555
N16I Cu3 1_555 1_555
N16J C32J 1_555 1_555
N16A C32A 1_555 1_555
N16A_2 C32A_2 1_555 1_555
N16J_2 C32J_2 1_555 1_555
H55I N16I 1_555 1_555
H55J N16J 1_555 1_555
H55A N16A 1_555 1_555
H55A_2 N16A_2 1_555 1_555
H55J_2 N16J_2 1_555 1_555
H56I N16I 1_555 1_555
H56J N16J 1_555 1_555
H56A N16A 1_555 1_555
H56A_2 N16A_2 1_555 1_555
H56J_2 N16J_2 1_555 1_555
O2O Cu2 1_555 1_555
H59O O2O 1_555 1_555
H60O O2O 1_555 1_555
C13 C14 1_555 1_555
C19 C20 1_555 1_555
C25 C26 1_555 1_555
C31 C32 1_555 1_555
Cu1 N9 1_555 1_555
Cu1 N10 1_555 1_555
Cu1 N11 1_555 1_555
Cu1 N12 1_555 1_555
Cu2 N14 1_555 1_555
Cu3 N15 1_555 1_555
Cu3 N16 1_555 1_555
C3I N3I 1_555 1_555
C6K N6K 1_555 1_555
C13I C14I 1_555 1_555
C13J C14J 1_555 1_555
C13A C14A 1_555 1_555
C13K C14K 1_555 1_555
C13B C14B 1_555 1_555
C19I C20I 1_555 1_555
C19J C20J 1_555 1_555
C19A C20A 1_555 1_555
C19K C20K 1_555 1_555
C19B C20B 1_555 1_555
C21O N13O 1_555 1_555
C25O C26O 1_555 1_555
C26O N14O 1_555 1_555
C27I N15I 1_555 1_555
C31I C32I 1_555 1_555
C31J C32J 1_555 1_555
C31A C32A 1_555 1_555
C31A_2 C32A_2 1_555 1_555
C31J_2 C32J_2 1_555 1_555
C32I N16I 1_555 1_555
Cu1I N6B 1_555 1_555
Cu1I N9I 1_555 1_555
Cu1I N10I 1_555 1_555
Cu1I N11I 1_555 1_555
Cu1I N12I 1_555 1_555
Cu1J N1J 1_555 1_555
Cu1J N9J 1_555 1_555
Cu1J N10J 1_555 1_555
Cu1J N11J 1_555 1_555
Cu1J N12J 1_555 1_555
Cu1A N6I 1_555 1_555
Cu1A N9A 1_555 1_555
Cu1A N10A 1_555 1_555
Cu1A N11A 1_555 1_555
Cu1A N12A 1_555 1_555
Cu1K N9K 1_555 1_555
Cu1K N10K 1_555 1_555
Cu1K N11K 1_555 1_555
Cu1K N12K 1_555 1_555
Cu1B N9B 1_555 1_555
Cu1B N10B 1_555 1_555
Cu1B N11B 1_555 1_555
Cu1B N12B 1_555 1_555
Cu3A N15J 1_555 1_555
Cu3A N15A 1_555 1_555
Cu3A N16J 1_555 1_555
Cu3A N16A 1_555 1_555
Cu3A_2 N15A_2 1_555 1_555
Cu3A_2 N15J_2 1_555 1_555
Cu3A_2 N16A_2 1_555 1_555
Cu3A_2 N16J_2 1_555 1_555

#END
