
#######################################################################
#
#                 Cambridge Crystallographic Data Centre
#                                CCDC 
#
#######################################################################
#
# If this CIF has been generated from an entry in the Cambridge 
# Structural Database, then it will include bibliographic, chemical, 
# crystal, experimental, refinement or atomic coordinate data resulting 
# from the CCDC's data processing and validation procedures.
#
#######################################################################

data_NULPOA
_symmetry_cell_setting           monoclinic
_symmetry_space_group_name_H-M   'C 2/c'
_symmetry_Int_Tables_number      15
_space_group_name_Hall           '-C 2yn'
loop_
_symmetry_equiv_pos_site_id
_symmetry_equiv_pos_as_xyz
1 x,y,z
2 -x,y,1/2-z
3 1/2+x,1/2+y,z
4 1/2-x,1/2+y,1/2-z
5 -x,-y,-z
6 x,-y,1/2+z
7 1/2-x,1/2-y,-z
8 1/2+x,1/2-y,1/2+z
_cell_length_a                   25.9917(17)
_cell_length_b                   15.4631(10)
_cell_length_c                   16.6617(11)
_cell_angle_alpha                90
_cell_angle_beta                 111.3720(10)
_cell_angle_gamma                90
_cell_volume                     6236.05
loop_
_atom_site_label
_atom_site_type_symbol
_atom_site_fract_x
_atom_site_fract_y
_atom_site_fract_z
F1 F -0.0639(2) 0.8124(6) 0.3967(3)
Co1 Co 0.115028(15) 0.74972(2) 0.60459(2)
S1 S 0.25508(6) 0.74426(9) 0.72154(14)
N1 N 0.11016(10) 0.65719(13) 0.50617(14)
N2 N 0.12010(10) 0.84860(13) 0.51682(14)
N3 N 0.12045(10) 1.15508(14) 0.20040(14)
C1 C 0.12196(13) 1.03394(17) 0.32636(18)
C2 C 0.15191(14) 1.16632(19) 0.28336(19)
H1 H 0.1737 1.2157 0.2988
C3 C 0.15369(14) 1.10862(19) 0.34720(19)
H2 H 0.1761 1.1196 0.4041
C4 C 0.09053(14) 1.08242(18) 0.17994(19)
H3 H 0.0690 1.0725 0.1224
C5 C 0.09010(14) 1.02175(18) 0.24011(19)
H4 H 0.0684 0.9724 0.2228
C6 C 0.07957(13) 0.91051(19) 0.37642(19)
H5 H 0.0508 0.9097 0.3230
C7 C 0.12157(13) 0.97094(17) 0.39295(17)
C8 C 0.14863(13) 0.59945(18) 0.40686(19)
H6 H 0.1768 0.6012 0.3849
C9 C 0.10621(12) 0.54057(17) 0.37494(18)
C10 C 0.06860(13) 0.60035(18) 0.47470(19)
H7 H 0.0409 0.6004 0.4975
C11 C 0.14932(13) 0.65591(18) 0.47163(19)
H8 H 0.1784 0.6949 0.4922
C12 C 0.06488(14) 0.54201(19) 0.4104(2)
H9 H 0.0352 0.5039 0.3907
C13 C 0.07551(12) 0.40008(18) 0.29714(19)
H10 H 0.0545 0.3892 0.3308
C14 C 0.10503(12) 0.47679(17) 0.30755(18)
C15 C 0.07730(12) 0.34016(17) 0.23732(18)
H11 H 0.0569 0.2896 0.2312
C16 C 0.13468(13) 0.42608(17) 0.19570(19)
H12 H 0.1547 0.4357 0.1603
C17 C 0.13496(13) 0.48969(18) 0.25397(19)
H13 H 0.1548 0.5405 0.2575
N4 N 0.10721(10) 0.35135(13) 0.18731(14)
C18 C 0.08037(13) 0.85171(19) 0.43902(18)
H14 H 0.0516 0.8120 0.4262
C19 C 0.16346(14) 0.9678(2) 0.47457(19)
H15 H 0.1929 1.0063 0.4891
C20 C 0.16058(14) 0.90677(18) 0.53341(18)
H16 H 0.1884 0.9062 0.5877
O3 O 0.02793(9) 0.76897(13) 0.55276(14)
O4 O -0.0330(2) 0.7854(3) 0.6332(3)
O5 O -0.04571(15) 0.6681(2) 0.5332(2)
O6 O 0.20154(9) 0.73140(14) 0.65663(14)
O7 O 0.27802(12) 0.82732(18) 0.7225(2)
O8 O 0.2574(3) 0.7077(4) 0.8036(3)
S2 S -0.02701(7) 0.75548(12) 0.55699(11)
C21 C 0.2970(4) 0.6691(6) 0.6890(5)
C22 C -0.0693(4) 0.8257(8) 0.4732(5)
F2 F -0.05090(18) 0.9072(3) 0.4936(3)
F3 F -0.11989(13) 0.8255(3) 0.4704(3)
F4 F 0.34761(12) 0.6684(3) 0.7456(2)
F5 F 0.27754(14) 0.58928(19) 0.6872(3)
F6 F 0.2967(2) 0.6938(4) 0.6106(3)
Co1E Co 0.115028(15) 1.25028(2) 0.10459(2)
Co1E_2 Co 0.115028(15) 0.25028(2) 0.10459(2)
N3E N 0.12045(10) 0.84492(14) 0.70040(14)
N4E N 0.10721(10) 0.64865(13) 0.68731(14)
O10 O 0.2976(5) 0.8361(9) 0.0158(9)
O1? O 0.0201(4) 1.2466(10) 0.7379(7)
O2? O 0.3100(4) 0.9000(6) -0.0566(7)
O9? O 0.2627(4) 0.8812(7) 0.0357(5)
C23? C -0.0646(5) 0.8287(8) 0.5172(9)
C24? C 0.2934(5) 0.6624(11) 0.7383(9)
F7? F -0.0495(6) 0.8500(8) 0.6012(9)
F8? F 0.2854(4) 0.6590(8) 0.8117(6)
O11? O -0.0422(5) 0.7443(7) 0.4198(5)
O12? O 0.2676(4) 0.7457(6) 0.5934(5)
S3? S -0.02598(12) 0.74294(19) 0.5151(3)
S4? S 0.25682(8) 0.75135(12) 0.67027(16)
loop_
_geom_bond_atom_site_label_1
_geom_bond_atom_site_label_2
_geom_bond_site_symmetry_1
_geom_bond_site_symmetry_2
F1 C22 1_555 1_555
Co1 N1 1_555 1_555
S1 O6 1_555 1_555
N1 C10 1_555 1_555
N2 Co1 1_555 1_555
N3 C2 1_555 1_555
C1 C3 1_555 1_555
C2 H1 1_555 1_555
C3 C2 1_555 1_555
H2 C3 1_555 1_555
C4 N3 1_555 1_555
H3 C4 1_555 1_555
C5 C1 1_555 1_555
H4 C5 1_555 1_555
C6 H5 1_555 1_555
C7 C1 1_555 1_555
C8 H6 1_555 1_555
C9 C8 1_555 1_555
C10 H7 1_555 1_555
C11 N1 1_555 1_555
H8 C11 1_555 1_555
C12 C9 1_555 1_555
H9 C12 1_555 1_555
C13 H10 1_555 1_555
C14 C9 1_555 1_555
C15 C13 1_555 1_555
H11 C15 1_555 1_555
C16 H12 1_555 1_555
C17 C14 1_555 1_555
H13 C17 1_555 1_555
N4 C15 1_555 1_555
C18 N2 1_555 1_555
H14 C18 1_555 1_555
C19 C7 1_555 1_555
H15 C19 1_555 1_555
C20 N2 1_555 1_555
H16 C20 1_555 1_555
O3 Co1 1_555 1_555
O4 S2 1_555 1_555
O5 S2 1_555 1_555
O6 Co1 1_555 1_555
O7 S1 1_555 1_555
O8 S1 1_555 1_555
S2 O3 1_555 1_555
C21 S1 1_555 1_555
C22 S2 1_555 1_555
F2 C22 1_555 1_555
F3 C22 1_555 1_555
F4 C21 1_555 1_555
F5 C21 1_555 1_555
F6 C21 1_555 1_555
Co1E N3 1_555 1_555
Co1E_2 N4 1_555 1_555
N3E Co1 1_555 1_555
N4E Co1 1_555 1_555
C4 C5 1_555 1_555
C6 C7 1_555 1_555
C6 C18 1_555 1_555
C8 C11 1_555 1_555
C10 C12 1_555 1_555
C13 C14 1_555 1_555
C16 C17 1_555 1_555
C16 N4 1_555 1_555
C19 C20 1_555 1_555

#END
