
#######################################################################
#
#                 Cambridge Crystallographic Data Centre
#                                CCDC 
#
#######################################################################
#
# If this CIF has been generated from an entry in the Cambridge 
# Structural Database, then it will include bibliographic, chemical, 
# crystal, experimental, refinement or atomic coordinate data resulting 
# from the CCDC's data processing and validation procedures.
#
#######################################################################

data_NULRUH
_symmetry_cell_setting           tetragonal
_symmetry_space_group_name_H-M   'P -4 n 2'
_symmetry_Int_Tables_number      118
_space_group_name_Hall           'P -4 -2n'
loop_
_symmetry_equiv_pos_site_id
_symmetry_equiv_pos_as_xyz
1 x,y,z
2 y,-x,-z
3 1/2-x,1/2+y,1/2+z
4 -x,-y,z
5 1/2+y,1/2+x,1/2-z
6 -y,x,-z
7 1/2+x,1/2-y,1/2+z
8 1/2-y,1/2-x,1/2-z
_cell_length_a                   10.4187(6)
_cell_length_b                   10.4187(6)
_cell_length_c                   10.0232(7)
_cell_angle_alpha                90
_cell_angle_beta                 90
_cell_angle_gamma                90
_cell_volume                     1088.01
loop_
_atom_site_label
_atom_site_type_symbol
_atom_site_fract_x
_atom_site_fract_y
_atom_site_fract_z
P1 P -0.5000 0.0000 -0.2500
F1 F -0.5857(9) -0.0753(12) -0.1528(5)
F2 F -0.4698(30) -0.1327(15) -0.1599(13)
F3 F -0.6074(11) 0.0487(28) -0.1665(14)
F1C F -0.4143(9) 0.0753(12) -0.1528(5)
F2C F -0.5302(30) 0.1327(15) -0.1599(13)
F1D F -0.5753(12) -0.0857(9) -0.3472(5)
F2D F -0.6327(15) 0.0302(30) -0.3401(13)
F1G F -0.4247(12) 0.0857(9) -0.3472(5)
F2G F -0.3673(15) -0.0302(30) -0.3401(13)
F3C F -0.3926(11) -0.0487(28) -0.1665(14)
F3D F -0.4513(28) -0.1074(11) -0.3335(14)
F3G F -0.5487(28) 0.1074(11) -0.3335(14)
Cu1 Cu 0.0000 0.0000 0.0000
N1 N 0.0247(2) -0.1466(2) -0.1345(2)
C1 C -0.0794(2) -0.3205(2) -0.2505(3)
C2 C -0.0628(2) -0.2408(2) -0.1410(2)
C3 C 0.1019(2) -0.1301(3) -0.2408(3)
C4 C 0.0920(3) -0.2049(3) -0.3537(3)
C5 C 0.0009(2) -0.3002(3) -0.3596(3)
H1 H -0.1157(2) -0.2535(2) -0.0674(2)
H2 H 0.1641(2) -0.0661(3) -0.2379(3)
H3 H 0.1468(3) -0.1911(3) -0.4255(3)
H4 H -0.0070(2) -0.3506(3) -0.4357(3)
C1G C -0.1795(2) -0.4206(2) -0.2495(3)
C2G C -0.2592(2) -0.4372(2) -0.3590(2)
N1G N -0.3534(2) -0.5247(2) -0.3655(2)
C3G C -0.3699(3) -0.6019(2) -0.2592(3)
C4G C -0.2951(3) -0.5920(3) -0.1463(3)
C5G C -0.1998(3) -0.5009(2) -0.1404(3)
H4G H -0.1494(3) -0.4930(2) -0.0643(3)
H3G H -0.3089(3) -0.6468(3) -0.0745(3)
H2G H -0.4339(3) -0.6641(2) -0.2621(3)
H1G H -0.2465(2) -0.3843(2) -0.4326(2)
N1A N -0.1466(2) -0.0247(2) 0.1345(2)
C1A C -0.3205(2) 0.0794(2) 0.2505(3)
C2A C -0.2408(2) 0.0628(2) 0.1410(2)
C3A C -0.1301(3) -0.1019(2) 0.2408(3)
C4A C -0.2049(3) -0.0920(3) 0.3537(3)
C5A C -0.3002(3) -0.0009(2) 0.3596(3)
H1A H -0.2535(2) 0.1157(2) 0.0674(2)
H2A H -0.0661(3) -0.1641(2) 0.2379(3)
H3A H -0.1911(3) -0.1468(3) 0.4255(3)
H4A H -0.3506(3) 0.0070(2) 0.4357(3)
C1B C -0.4206(2) 0.1795(2) 0.2495(3)
C2B C -0.4372(2) 0.2592(2) 0.3590(2)
N1B N -0.5247(2) 0.3534(2) 0.3655(2)
C3B C -0.6019(2) 0.3699(3) 0.2592(3)
C4B C -0.5920(3) 0.2951(3) 0.1463(3)
C5B C -0.5009(2) 0.1998(3) 0.1404(3)
H4B H -0.4930(2) 0.1494(3) 0.0643(3)
H3B H -0.6468(3) 0.3089(3) 0.0745(3)
H2B H -0.6641(2) 0.4339(3) 0.2621(3)
H1B H -0.3843(2) 0.2465(2) 0.4326(2)
N1C N -0.0247(2) 0.1466(2) -0.1345(2)
N1E N 0.1466(2) 0.0247(2) 0.1345(2)
Cu1G Cu -0.5000 -0.5000 -0.5000
Cu1B Cu -0.5000 0.5000 0.5000
loop_
_geom_bond_atom_site_label_1
_geom_bond_atom_site_label_2
_geom_bond_site_symmetry_1
_geom_bond_site_symmetry_2
Cu1 N1 1_555 1_555
P1 F1 1_555 1_555
F1 F2 1_555 1_555
F2 P1 1_555 1_555
F3 P1 1_555 1_555
N1 C2 1_555 1_555
C1 C2 1_555 1_555
C2 H1 1_555 1_555
C3 N1 1_555 1_555
C4 C3 1_555 1_555
C5 C1 1_555 1_555
H2 C3 1_555 1_555
H3 C4 1_555 1_555
H4 C5 1_555 1_555
F1C P1 1_555 1_555
F2C P1 1_555 1_555
F1D P1 1_555 1_555
F2D P1 1_555 1_555
F1G P1 1_555 1_555
F2G P1 1_555 1_555
F3C P1 1_555 1_555
F3D P1 1_555 1_555
F3G P1 1_555 1_555
C1G C1 1_555 1_555
C2G C1G 1_555 1_555
N1G C2G 1_555 1_555
C3G N1G 1_555 1_555
C4G C3G 1_555 1_555
C5G C1G 1_555 1_555
H4G C5G 1_555 1_555
H3G C4G 1_555 1_555
H2G C3G 1_555 1_555
H1G C2G 1_555 1_555
N1A Cu1 1_555 1_555
C1A C2A 1_555 1_555
C2A N1A 1_555 1_555
C3A N1A 1_555 1_555
C4A C3A 1_555 1_555
C5A C1A 1_555 1_555
H1A C2A 1_555 1_555
H2A C3A 1_555 1_555
H3A C4A 1_555 1_555
H4A C5A 1_555 1_555
C1B C1A 1_555 1_555
C2B C1B 1_555 1_555
N1B C2B 1_555 1_555
C3B N1B 1_555 1_555
C4B C3B 1_555 1_555
C5B C1B 1_555 1_555
H4B C5B 1_555 1_555
H3B C4B 1_555 1_555
H2B C3B 1_555 1_555
H1B C2B 1_555 1_555
N1C Cu1 1_555 1_555
N1E Cu1 1_555 1_555
Cu1G N1G 1_555 1_555
Cu1B N1B 1_555 1_555
F1 F3 1_555 1_555
F2 F3C 1_555 1_555
F3 F2C 1_555 1_555
C4 C5 1_555 1_555
F1C F2C 1_555 1_555
F1C F3C 1_555 1_555
F1D F2D 1_555 1_555
F1D F3D 1_555 1_555
F2D F3G 1_555 1_555
F1G F2G 1_555 1_555
F1G F3G 1_555 1_555
F2G F3D 1_555 1_555
C4G C5G 1_555 1_555
C4A C5A 1_555 1_555
C4B C5B 1_555 1_555

#END
