
#######################################################################
#
#                 Cambridge Crystallographic Data Centre
#                                CCDC 
#
#######################################################################
#
# If this CIF has been generated from an entry in the Cambridge 
# Structural Database, then it will include bibliographic, chemical, 
# crystal, experimental, refinement or atomic coordinate data resulting 
# from the CCDC's data processing and validation procedures.
#
#######################################################################

data_NULTAQ
_symmetry_cell_setting           triclinic
_symmetry_space_group_name_H-M   'P -1'
_symmetry_Int_Tables_number      2
_space_group_name_Hall           '-P 1'
loop_
_symmetry_equiv_pos_site_id
_symmetry_equiv_pos_as_xyz
1 x,y,z
2 -x,-y,-z
_cell_length_a                   10.6952(7)
_cell_length_b                   11.4831(7)
_cell_length_c                   11.7638(7)
_cell_angle_alpha                101.558(2)
_cell_angle_beta                 116.757(2)
_cell_angle_gamma                95.574(2)
_cell_volume                     1234.58
loop_
_atom_site_label
_atom_site_type_symbol
_atom_site_fract_x
_atom_site_fract_y
_atom_site_fract_z
Zn1 Zn 0.65431(4) 0.55301(3) 0.87295(4)
Zn2 Zn 0.5000 0.5000 0.5000
O1 O 0.8255(3) 0.5564(2) 0.8456(3)
O2 O 0.7190(3) 0.5340(3) 0.6272(3)
O3 O 0.5306(3) 0.4865(2) 0.3288(3)
O4 O 0.5721(3) 0.4755(2) 0.1627(3)
O5 O 0.7382(3) 0.5847(3) 1.0747(3)
H1 H 0.784(6) 0.642(5) 1.148(4)
H2 H 0.677(5) 0.548(5) 1.091(5)
N1 N 0.6643(4) 0.7451(3) 0.8867(3)
C1 C 0.5585(5) 0.7971(4) 0.8903(5)
H3 H 0.4867 0.7519 0.8974
C2 C 0.5525(5) 0.9165(3) 0.8837(5)
H4 H 0.4757 0.9482 0.8836
C3 C 0.6599(4) 0.9882(3) 0.8774(4)
C4 C 0.7696(5) 0.9334(4) 0.8746(5)
H5 H 0.8437 0.9770 0.8691
C5 C 0.7679(5) 0.8136(4) 0.8799(5)
H6 H 0.8427 0.7792 0.8787
C6 C 0.5275(5) 1.1550(4) 0.8267(5)
H7 H 0.4416 1.1012 0.7977
C7 C 0.6559(4) 1.1157(3) 0.8718(4)
C8 C 0.7796(5) 1.2013(4) 0.9146(5)
H8 H 0.8680 1.1792 0.9465
N2 N 0.5075(4) 0.6932(3) 0.5174(3)
C9 C 0.3953(5) 0.7427(4) 0.5069(6)
H9 H 0.3178 0.6949 0.5036
C10 C 0.3891(5) 0.8611(4) 0.5007(6)
H10 H 0.3088 0.8907 0.4936
C11 C 0.5021(4) 0.9364(3) 0.5048(4)
C12 C 0.6195(4) 0.8852(4) 0.5189(5)
H11 H 0.6988 0.9312 0.5232
C13 C 0.6186(4) 0.7672(4) 0.5264(5)
H12 H 0.6999 0.7368 0.5385
C14 C 0.7711(5) 1.3203(4) 0.9097(5)
H13 H 0.8554 1.3762 0.9389
N3 N 0.6482(4) 1.3585(3) 0.8654(3)
C15 C 0.5294(5) 1.2764(4) 0.8255(5)
H14 H 0.4427 1.3015 0.7951
C16 C 0.8233(4) 0.5342(3) 0.7354(4)
C17 C 0.9580(5) 0.5065(7) 0.7350(5)
H15 H 1.0199 0.5808 0.7501
H16 H 0.9336 0.4526 0.6509
H17 H 1.0062 0.4685 0.8039
C18 C 0.6197(4) 0.4903(3) 0.2853(4)
C19 C 0.7768(4) 0.5100(5) 0.3764(5)
H18 H 0.8290 0.5531 0.3436
H19 H 0.7995 0.5567 0.4632
H20 H 0.8030 0.4327 0.3808
Zn1A Zn 0.34569(4) 0.44699(3) 0.12705(4)
Zn1_2 Zn 0.65431(4) 1.55301(3) 0.87295(4)
Zn1A_2 Zn 0.34569(4) 1.44699(3) 0.12705(4)
Zn2_2 Zn 0.5000 1.5000 0.5000
O1A O 0.1745(3) 0.4436(2) 0.1544(3)
O2A O 0.2810(3) 0.4660(3) 0.3728(3)
O3A O 0.4694(3) 0.5135(2) 0.6712(3)
O4A O 0.4279(3) 0.5245(2) 0.8373(3)
O5A O 0.2618(3) 0.4153(3) -0.0747(3)
H1A H 0.216(6) 0.358(5) -0.148(4)
H2A H 0.323(5) 0.452(5) -0.091(5)
N1A N 0.3357(4) 0.2549(3) 0.1133(3)
N1A_2 N 0.3357(4) 1.2549(3) 0.1133(3)
C1A C 0.4415(5) 1.2029(4) 0.1097(5)
H3A H 0.5133 1.2481 0.1026
C2A C 0.4475(5) 1.0835(3) 0.1163(5)
H4A H 0.5243 1.0518 0.1164
C3A C 0.3401(4) 1.0118(3) 0.1226(4)
C4A C 0.2304(5) 1.0666(4) 0.1254(5)
H5A H 0.1563 1.0230 0.1309
C5A C 0.2321(5) 1.1864(4) 0.1201(5)
H6A H 0.1573 1.2208 0.1213
C6A C 0.4725(5) 0.8450(4) 0.1733(5)
H7A H 0.5584 0.8988 0.2023
C7A C 0.3441(4) 0.8843(3) 0.1282(4)
C8A C 0.2204(5) 0.7987(4) 0.0854(5)
H8A H 0.1320 0.8208 0.0535
N2A N 0.4925(4) 1.3068(3) 0.4826(3)
N2A_2 N 0.4925(4) 0.3068(3) 0.4826(3)
C9A C 0.6047(5) 1.2573(4) 0.4931(6)
H9A H 0.6822 1.3051 0.4964
C10A C 0.6109(5) 1.1389(4) 0.4993(6)
H10A H 0.6912 1.1093 0.5064
C11A C 0.4979(4) 1.0636(3) 0.4952(4)
C12A C 0.3805(4) 1.1148(4) 0.4811(5)
H11A H 0.3012 1.0688 0.4768
C13A C 0.3814(4) 1.2328(4) 0.4736(5)
H12A H 0.3001 1.2632 0.4615
C14A C 0.2289(5) 0.6797(4) 0.0903(5)
H13A H 0.1446 0.6238 0.0611
N3_2 N 0.6482(4) 0.3585(3) 0.8654(3)
N3A N 0.3518(4) 0.6415(3) 0.1346(3)
C15A C 0.4706(5) 0.7236(4) 0.1745(5)
H14A H 0.5573 0.6985 0.2049
C16A C 0.1767(4) 0.4658(3) 0.2646(4)
C17A C 0.0420(5) 0.4935(7) 0.2650(5)
H15A H -0.0199 0.4192 0.2499
H16A H 0.0664 0.5474 0.3491
H17A H -0.0062 0.5315 0.1961
C18A C 0.3803(4) 0.5097(3) 0.7147(4)
C19A C 0.2232(4) 0.4900(5) 0.6236(5)
H18A H 0.1710 0.4469 0.6564
H19A H 0.2005 0.4433 0.5368
H20A H 0.1970 0.5673 0.6192
P1 P 0.91405(15) 0.13517(15) 0.31417(16)
F1 F 1.0268(10) 0.2322(11) 0.3146(15)
F2 F 0.7993(12) 0.0444(11) 0.3212(14)
F3 F 0.7894(17) 0.1727(15) 0.1991(11)
F4 F 1.0404(14) 0.0999(12) 0.4283(10)
F5 F 0.9189(14) 0.0359(12) 0.2112(11)
F6 F 0.9043(14) 0.2358(12) 0.4241(12)
O6 O 0.0766(15) 0.2094(14) 0.7187(19)
F7? F 0.9881(13) 0.1573(15) 0.2266(14)
F8? F 0.8460(15) 0.0925(15) 0.3932(13)
F9? F 0.8014(19) 0.2112(14) 0.2547(16)
F10? F 1.0244(13) 0.0483(12) 0.3635(14)
F11? F 0.8045(12) 0.0179(10) 0.1966(11)
F12? F 1.0138(16) 0.2430(12) 0.4235(15)
O7? O 0.1534(13) 0.2104(13) 0.7201(16)
loop_
_geom_bond_atom_site_label_1
_geom_bond_atom_site_label_2
_geom_bond_site_symmetry_1
_geom_bond_site_symmetry_2
Zn1 O1 1_555 1_555
Zn2 O2 1_555 1_555
O1 C16 1_555 1_555
O2 C16 1_555 1_555
O3 Zn2 1_555 1_555
O4 C18 1_555 1_555
O5 Zn1 1_555 1_555
H1 O5 1_555 1_555
H2 O5 1_555 1_555
N1 Zn1 1_555 1_555
C1 N1 1_555 1_555
H3 C1 1_555 1_555
C2 C1 1_555 1_555
H4 C2 1_555 1_555
C3 C2 1_555 1_555
C4 C3 1_555 1_555
H5 C4 1_555 1_555
C5 N1 1_555 1_555
H6 C5 1_555 1_555
C6 H7 1_555 1_555
C7 C3 1_555 1_555
C8 C7 1_555 1_555
H8 C8 1_555 1_555
N2 Zn2 1_555 1_555
C9 N2 1_555 1_555
H9 C9 1_555 1_555
C10 C9 1_555 1_555
H10 C10 1_555 1_555
C11 C10 1_555 1_555
C12 C11 1_555 1_555
H11 C12 1_555 1_555
C13 N2 1_555 1_555
H12 C13 1_555 1_555
C14 C8 1_555 1_555
H13 C14 1_555 1_555
N3 C14 1_555 1_555
C15 C6 1_555 1_555
H14 C15 1_555 1_555
C16 C17 1_555 1_555
C17 H15 1_555 1_555
H16 C17 1_555 1_555
H17 C17 1_555 1_555
C18 O3 1_555 1_555
C19 C18 1_555 1_555
H18 C19 1_555 1_555
H19 C19 1_555 1_555
H20 C19 1_555 1_555
P1 F1 1_555 1_555
F2 P1 1_555 1_555
F3 P1 1_555 1_555
F4 P1 1_555 1_555
F5 P1 1_555 1_555
F6 P1 1_555 1_555
Zn1A O3 1_555 1_555
Zn1_2 N3 1_555 1_555
Zn1A_2 N1A_2 1_555 1_555
Zn2_2 N2A 1_555 1_555
O1A Zn1A 1_555 1_555
O2A Zn2 1_555 1_555
O3A Zn1 1_555 1_555
O4A Zn1 1_555 1_555
O5A Zn1A 1_555 1_555
H1A O5A 1_555 1_555
H2A O5A 1_555 1_555
N1A Zn1A 1_555 1_555
N1A_2 C1A 1_555 1_555
C1A H3A 1_555 1_555
C2A C1A 1_555 1_555
H4A C2A 1_555 1_555
C3A C2A 1_555 1_555
C4A C3A 1_555 1_555
H5A C4A 1_555 1_555
C5A N1A_2 1_555 1_555
H6A C5A 1_555 1_555
C6A H7A 1_555 1_555
C7A C3A 1_555 1_555
C8A C7A 1_555 1_555
H8A C8A 1_555 1_555
N2A C9A 1_555 1_555
N2A_2 Zn2 1_555 1_555
C9A H9A 1_555 1_555
C10A C9A 1_555 1_555
H10A C10A 1_555 1_555
C11A C11 1_555 1_555
C12A C11A 1_555 1_555
H11A C12A 1_555 1_555
C13A N2A 1_555 1_555
H12A C13A 1_555 1_555
C14A C8A 1_555 1_555
H13A C14A 1_555 1_555
N3_2 Zn1 1_555 1_555
N3A Zn1A 1_555 1_555
C15A C6A 1_555 1_555
H14A C15A 1_555 1_555
C16A O1A 1_555 1_555
C17A C16A 1_555 1_555
H15A C17A 1_555 1_555
H16A C17A 1_555 1_555
H17A C17A 1_555 1_555
C18A O3A 1_555 1_555
C19A C18A 1_555 1_555
H18A C19A 1_555 1_555
H19A C19A 1_555 1_555
H20A C19A 1_555 1_555
Zn2 O3A 1_555 1_555
O4 Zn1A 1_555 1_555
C4 C5 1_555 1_555
C6 C7 1_555 1_555
C12 C13 1_555 1_555
N3 C15 1_555 1_555
O2A C16A 1_555 1_555
O4A C18A 1_555 1_555
C4A C5A 1_555 1_555
C6A C7A 1_555 1_555
C10A C11A 1_555 1_555
C12A C13A 1_555 1_555
C14A N3A 1_555 1_555
N3A C15A 1_555 1_555

#END
