
#######################################################################
#
#                 Cambridge Crystallographic Data Centre
#                                CCDC 
#
#######################################################################
#
# If this CIF has been generated from an entry in the Cambridge 
# Structural Database, then it will include bibliographic, chemical, 
# crystal, experimental, refinement or atomic coordinate data resulting 
# from the CCDC's data processing and validation procedures.
#
#######################################################################

data_NULTEU
_symmetry_cell_setting           monoclinic
_symmetry_space_group_name_H-M   'P 21/c'
_symmetry_Int_Tables_number      14
_space_group_name_Hall           '-P 2ybc'
loop_
_symmetry_equiv_pos_site_id
_symmetry_equiv_pos_as_xyz
1 x,y,z
2 -x,1/2+y,1/2-z
3 -x,-y,-z
4 x,1/2-y,1/2+z
_cell_length_a                   18.506(4)
_cell_length_b                   18.838(4)
_cell_length_c                   25.568(5)
_cell_angle_alpha                90
_cell_angle_beta                 119.90(3)
_cell_angle_gamma                90
_cell_volume                     7727.01
loop_
_atom_site_label
_atom_site_type_symbol
_atom_site_fract_x
_atom_site_fract_y
_atom_site_fract_z
Zn1 Zn 0.25019(2) 0.51906(2) 0.249809(15)
Zn2 Zn 0.26135(2) 0.71940(2) 0.252056(15)
Zn3 Zn 0.23604(2) 0.31864(2) 0.248070(15)
N1 N 0.34439(17) 0.51683(15) 0.34488(11)
C1 C 0.3246(2) 0.5065(2) 0.38775(15)
H1 H 0.2684 0.5034 0.3763
C2 C 0.3829(2) 0.5001(2) 0.44844(15)
H2 H 0.3654 0.4930 0.4764
C3 C 0.46733(19) 0.50405(18) 0.46754(13)
C4 C 0.4874(2) 0.5159(2) 0.42287(15)
H3 H 0.5430 0.5197 0.4330
C5 C 0.4251(2) 0.5222(2) 0.36325(14)
H4 H 0.4407 0.5308 0.3344
N2 N 0.15508(17) 0.51415(15) 0.15543(11)
C6 C 0.0752(2) 0.5059(2) 0.13768(14)
H5 H 0.0598 0.5045 0.1671
C7 C 0.0133(2) 0.4991(2) 0.07815(15)
H6 H -0.0417 0.4924 0.0688
C8 C 0.0325(2) 0.50231(19) 0.03246(13)
C9 C 0.1157(2) 0.5117(3) 0.05076(15)
H7 H 0.1326 0.5148 0.0221
C10 C 0.1742(2) 0.5166(3) 0.11150(15)
H8 H 0.2299 0.5219 0.1223
N3 N 0.36166(18) 0.71544(16) 0.34694(11)
C11 C 0.3437(3) 0.7071(3) 0.39064(16)
H9 H 0.2878 0.7048 0.3801
C12 C 0.4028(2) 0.7016(3) 0.45077(16)
H10 H 0.3864 0.6953 0.4794
C13 C 0.4861(2) 0.70538(19) 0.46846(13)
C14 C 0.5053(2) 0.7158(2) 0.42362(15)
H11 H 0.5607 0.7199 0.4332
C15 C 0.4418(2) 0.7201(2) 0.36392(15)
H12 H 0.4564 0.7266 0.3343
C16 C 0.5511(2) 0.69926(19) 0.53278(14)
C17 C 0.5308(2) 0.6751(2) 0.57525(15)
H13 H 0.4761 0.6629 0.5634
C18 C 0.5917(2) 0.6695(2) 0.63455(15)
H14 H 0.5765 0.6529 0.6619
N4 N 0.67112(17) 0.68628(15) 0.65534(11)
C19 C 0.6910(2) 0.7086(2) 0.61455(15)
H15 H 0.7464 0.7196 0.6275
C20 C 0.6332(2) 0.7160(2) 0.55394(15)
H16 H 0.6500 0.7324 0.5274
N5 N 0.16316(17) 0.72075(15) 0.15668(11)
C21 C 0.0902(2) 0.6898(2) 0.13860(14)
H17 H 0.0794 0.6719 0.1679
C22 C 0.0294(2) 0.68252(19) 0.07920(14)
H18 H -0.0209 0.6605 0.0690
C23 C 0.0443(2) 0.70862(18) 0.03451(13)
C24 C 0.1195(2) 0.7422(2) 0.05290(14)
H19 H 0.1313 0.7614 0.0245
C25 C 0.1769(2) 0.7471(2) 0.11346(15)
H20 H 0.2275 0.7695 0.1250
C26 C -0.0194(2) 0.70036(19) -0.03000(13)
C27 C -0.1037(2) 0.6997(2) -0.04924(15)
H21 H -0.1218 0.7052 -0.0215
C28 C -0.1609(2) 0.6910(2) -0.10954(15)
H22 H -0.2172 0.6903 -0.1214
N6 N -0.13903(17) 0.68360(15) -0.15197(11)
C29 C -0.0578(2) 0.6839(2) -0.13314(14)
H23 H -0.0413 0.6782 -0.1618
C30 C 0.0034(2) 0.6921(2) -0.07369(14)
H24 H 0.0594 0.6921 -0.0630
O1 O 0.17729(15) 0.69836(13) 0.27753(10)
O2 O 0.17229(15) 0.58032(12) 0.27109(10)
C31 C 0.1535(2) 0.63794(19) 0.28492(13)
C32 C 0.0980(3) 0.6358(2) 0.3124(2)
H25 H 0.0458 0.6136 0.2835
H26 H 0.1241 0.6052 0.3475
C33 C 0.0785(4) 0.7037(3) 0.3309(3)
H27 H 0.0427 0.6954 0.3475
H28 H 0.0508 0.7344 0.2965
H29 H 0.1292 0.7257 0.3608
O3 O 0.35283(14) 0.71199(13) 0.22302(10)
O4 O 0.30059(14) 0.61430(12) 0.23578(10)
C34 C 0.3488(2) 0.64614(19) 0.22081(14)
C35 C 0.3984(3) 0.6045(2) 0.1999(2)
H30 H 0.4286 0.5677 0.2293
H31 H 0.3600 0.5812 0.1623
C36 C 0.4587(4) 0.6461(3) 0.1903(3)
H32 H 0.4875 0.6150 0.1770
H33 H 0.4982 0.6684 0.2274
H34 H 0.4295 0.6817 0.1602
O5 O 0.32364(14) 0.34209(13) 0.22706(10)
O6 O 0.32992(15) 0.45995(13) 0.23128(11)
C37 C 0.3528(2) 0.40091(19) 0.22302(13)
C38 C 0.4201(3) 0.3999(2) 0.2071(2)
H35 H 0.4651 0.4299 0.2357
H36 H 0.3983 0.4217 0.1677
C39 C 0.4561(4) 0.3309(3) 0.2055(3)
H37 H 0.4983 0.3378 0.1946
H38 H 0.4803 0.3090 0.2445
H39 H 0.4131 0.3008 0.1762
O7 O 0.19690(14) 0.42413(12) 0.26334(9)
O8 O 0.13801(14) 0.32748(13) 0.27069(10)
C40 C 0.1440(2) 0.39368(19) 0.27370(13)
C41 C 0.0893(3) 0.4359(2) 0.28979(19)
H40 H 0.1136 0.4355 0.3333
H41 H 0.0883 0.4847 0.2775
C42 C 0.0016(3) 0.4091(3) 0.2615(2)
H42 H -0.0296 0.4385 0.2738
H43 H -0.0235 0.4106 0.2184
H44 H 0.0018 0.3611 0.2742
N7 N 0.26067(18) 0.83192(16) 0.25471(12)
C43 C 0.3036(2) 0.8702(2) 0.23566(16)
H45 H 0.3357 0.8466 0.2224
C44 C 0.3025(2) 0.9436(2) 0.23477(17)
H46 H 0.3330 0.9684 0.2209
C45 C 0.2557(2) 0.97992(18) 0.25458(15)
C46 C 0.2121(2) 0.9396(2) 0.27484(16)
H47 H 0.1803 0.9617 0.2890
C47 C 0.2157(2) 0.8668(2) 0.27394(17)
H48 H 0.1855 0.8407 0.2874
C48 C 0.2506(2) 1.05909(19) 0.25283(15)
C49 C 0.3125(3) 1.1000(2) 0.2532(2)
H49 H 0.3592 1.0786 0.2553
C50 C 0.3051(3) 1.1728(2) 0.25033(19)
H50 H 0.3474 1.1994 0.2502
N8 N 0.24084(18) 1.20685(15) 0.24778(12)
C51 C 0.1808(2) 1.1673(2) 0.24763(17)
H51 H 0.1352 1.1902 0.2461
C52 C 0.1830(3) 1.0945(2) 0.24962(18)
H52 H 0.1394 1.0692 0.2488
Zn1B Zn 0.74981(2) 0.48094(2) 0.750191(15)
Zn1B_2 Zn -0.25019(2) 0.48094(2) -0.249809(15)
Zn2B Zn 0.73865(2) 0.28060(2) 0.747944(15)
Zn2B_2 Zn -0.26135(2) 0.28060(2) -0.252056(15)
Zn2_2 Zn 0.26135(2) -0.28060(2) 0.252056(15)
Zn3B Zn -0.23604(2) 0.68136(2) -0.248070(15)
Zn3B_2 Zn 0.76396(2) 0.68136(2) 0.751930(15)
Zn3_2 Zn 0.23604(2) 1.31864(2) 0.248070(15)
N1B N 0.65561(17) 0.48317(15) 0.65512(11)
C1B C 0.6754(2) 0.4935(2) 0.61225(15)
H1B H 0.7316 0.4966 0.6237
C2B C 0.6171(2) 0.4999(2) 0.55156(15)
H2B H 0.6346 0.5070 0.5236
C3B C 0.53267(19) 0.49595(18) 0.53246(13)
C4B C 0.5126(2) 0.4841(2) 0.57713(15)
H3B H 0.4570 0.4803 0.5670
C5B C 0.5749(2) 0.4778(2) 0.63675(14)
H4B H 0.5593 0.4692 0.6656
N2B N -0.15508(17) 0.48585(15) -0.15543(11)
N2B_2 N 0.84492(17) 0.48585(15) 0.84457(11)
C6B C -0.0752(2) 0.4941(2) -0.13768(14)
H5B H -0.0598 0.4955 -0.1671
C7B C -0.0133(2) 0.5009(2) -0.07815(15)
H6B H 0.0417 0.5076 -0.0688
C8B C -0.0325(2) 0.49769(19) -0.03246(13)
C9B C -0.1157(2) 0.4883(3) -0.05076(15)
H7B H -0.1326 0.4852 -0.0221
C10B C -0.1742(2) 0.4834(3) -0.11150(15)
H8B H -0.2299 0.4781 -0.1223
N3B N 0.63834(18) 0.28456(16) 0.65306(11)
C11B C 0.6563(3) 0.2929(3) 0.60936(16)
H9B H 0.7122 0.2952 0.6199
C12B C 0.5972(2) 0.2984(3) 0.54923(16)
H10B H 0.6136 0.3047 0.5206
C13B C 0.5139(2) 0.29462(19) 0.53154(13)
C14B C 0.4947(2) 0.2842(2) 0.57638(15)
H11B H 0.4393 0.2801 0.5668
C15B C 0.5582(2) 0.2799(2) 0.63608(15)
H12B H 0.5436 0.2734 0.6657
C16B C 0.4489(2) 0.30074(19) 0.46722(14)
C17B C 0.4692(2) 0.3249(2) 0.42475(15)
H13B H 0.5239 0.3371 0.4366
C18B C 0.4083(2) 0.3305(2) 0.36545(15)
H14B H 0.4235 0.3471 0.3381
N4B N 0.32888(17) 0.31372(15) 0.34466(11)
N4_2 N -0.32888(17) 0.68628(15) -0.34466(11)
C19B C 0.3090(2) 0.2914(2) 0.38545(15)
H15B H 0.2536 0.2804 0.3725
C20B C 0.3668(2) 0.2840(2) 0.44606(15)
H16B H 0.3500 0.2676 0.4726
N5B N -0.16316(17) 0.27925(15) -0.15668(11)
N5B_2 N 0.83684(17) 0.27925(15) 0.84332(11)
C21B C -0.0902(2) 0.3102(2) -0.13860(14)
H17B H -0.0794 0.3281 -0.1679
C22B C -0.0294(2) 0.31748(19) -0.07920(14)
H18B H 0.0209 0.3395 -0.0690
C23B C -0.0443(2) 0.29138(18) -0.03451(13)
C24B C -0.1195(2) 0.2578(2) -0.05290(14)
H19B H -0.1313 0.2386 -0.0245
C25B C -0.1769(2) 0.2529(2) -0.11346(15)
H20B H -0.2275 0.2305 -0.1250
C26B C 0.0194(2) 0.29964(19) 0.03000(13)
C27B C 0.1037(2) 0.3003(2) 0.04924(15)
H21B H 0.1218 0.2948 0.0215
C28B C 0.1609(2) 0.3090(2) 0.10954(15)
H22B H 0.2172 0.3097 0.1214
N6B N 0.13903(17) 0.31640(15) 0.15197(11)
C29B C 0.0578(2) 0.3161(2) 0.13314(14)
H23B H 0.0413 0.3218 0.1618
C30B C -0.0034(2) 0.3079(2) 0.07369(14)
H24B H -0.0594 0.3079 0.0630
O1B O 0.82271(15) 0.30164(13) 0.72247(10)
O2B O 0.82771(15) 0.41968(12) 0.72891(10)
C31B C 0.8465(2) 0.36206(19) 0.71508(13)
C32B C 0.9020(3) 0.3642(2) 0.6876(2)
H25B H 0.9542 0.3864 0.7165
H26B H 0.8759 0.3948 0.6525
C33B C 0.9215(4) 0.2963(3) 0.6691(3)
H27B H 0.9573 0.3046 0.6525
H28B H 0.9492 0.2656 0.7035
H29B H 0.8708 0.2743 0.6392
O3B O 0.64717(14) 0.28801(13) 0.77698(10)
O4B O 0.69941(14) 0.38570(12) 0.76422(10)
C34B C 0.6512(2) 0.35386(19) 0.77919(14)
C35B C 0.6016(3) 0.3955(2) 0.8001(2)
H30B H 0.5714 0.4323 0.7707
H31B H 0.6400 0.4188 0.8377
C36B C 0.5413(4) 0.3539(3) 0.8097(3)
H32B H 0.5125 0.3850 0.8230
H33B H 0.5018 0.3316 0.7726
H34B H 0.5705 0.3183 0.8398
O5B O 0.67636(14) 0.65791(13) 0.77294(10)
O5B_2 O -0.32364(14) 0.65791(13) -0.22706(10)
O6B O 0.67008(15) 0.54005(13) 0.76872(11)
C37B C 0.6472(2) 0.59909(19) 0.77698(13)
C38B C 0.5799(3) 0.6001(2) 0.7929(2)
H35B H 0.5349 0.5701 0.7643
H36B H 0.6017 0.5783 0.8323
C39B C 0.5439(4) 0.6691(3) 0.7945(3)
H37B H 0.5017 0.6622 0.8054
H38B H 0.5197 0.6910 0.7555
H39B H 0.5869 0.6992 0.8238
O7B O 0.80310(14) 0.57587(12) 0.73666(9)
O7B_2 O -0.19690(14) 0.57587(12) -0.26334(9)
O8B O 0.86199(14) 0.67252(13) 0.72931(10)
O8B_2 O -0.13801(14) 0.67252(13) -0.27069(10)
C40B C 0.8560(2) 0.60632(19) 0.72630(13)
C41B C 0.9107(3) 0.5641(2) 0.71021(19)
H40B H 0.8864 0.5645 0.6667
H41B H 0.9117 0.5153 0.7225
C42B C 0.9984(3) 0.5909(3) 0.7385(2)
H42B H 1.0296 0.5615 0.7262
H43B H 1.0235 0.5894 0.7816
H44B H 0.9982 0.6389 0.7258
N7_2 N 0.26067(18) -0.16808(16) 0.25471(12)
N7B N 0.73933(18) 0.16808(16) 0.74529(12)
C43_2 C 0.3036(2) -0.1298(2) 0.23566(16)
H45_2 H 0.3357 -0.1534 0.2224
C44_2 C 0.3025(2) -0.0564(2) 0.23477(17)
H46_2 H 0.3330 -0.0316 0.2209
C45_2 C 0.2557(2) -0.02008(18) 0.25458(15)
C46_2 C 0.2121(2) -0.0604(2) 0.27484(16)
H47_2 H 0.1803 -0.0383 0.2890
C47_2 C 0.2157(2) -0.1332(2) 0.27394(17)
H48_2 H 0.1855 -0.1593 0.2874
C48_2 C 0.2506(2) 0.05909(19) 0.25283(15)
C49_2 C 0.3125(3) 0.1000(2) 0.2532(2)
H49_2 H 0.3592 0.0786 0.2553
C50_2 C 0.3051(3) 0.1728(2) 0.25033(19)
H50_2 H 0.3474 0.1994 0.2502
N8_2 N 0.24084(18) 0.20685(15) 0.24778(12)
N8B N -0.24084(18) 0.79315(15) -0.24778(12)
C51_2 C 0.1808(2) 0.1673(2) 0.24763(17)
H51_2 H 0.1352 0.1902 0.2461
C52_2 C 0.1830(3) 0.0945(2) 0.24962(18)
H52_2 H 0.1394 0.0692 0.2488
N9 N 0.7917(4) 0.1312(4) 0.5186(3)
C53 C 0.7213(5) 0.1655(4) 0.4818(4)
H53 H 0.7217 0.1974 0.4542
C54 C 0.6481(4) 0.1561(3) 0.4827(3)
H54 H 0.6008 0.1817 0.4563
C55 C 0.6449(3) 0.1089(3) 0.5225(2)
C56 C 0.7173(3) 0.0728(3) 0.5595(3)
H55 H 0.7184 0.0393 0.5866
C57 C 0.7880(4) 0.0862(4) 0.5565(3)
H56 H 0.8364 0.0618 0.5830
C58 C 0.5688(3) 0.0992(2) 0.5265(2)
C59 C 0.4902(3) 0.1063(3) 0.4781(3)
H57 H 0.4829 0.1176 0.4403
C60 C 0.4215(4) 0.0967(3) 0.4855(4)
H58 H 0.3688 0.1015 0.4517
N10 N 0.4261(4) 0.0812(3) 0.5369(3)
C61 C 0.5011(5) 0.0740(4) 0.5827(3)
H59 H 0.5059 0.0625 0.6197
C62 C 0.5728(4) 0.0819(3) 0.5809(3)
H60 H 0.6241 0.0758 0.6157
N11 N -0.1721(3) -0.1610(3) 0.0515(2)
C63 C -0.1905(4) -0.0944(4) 0.0305(3)
H61 H -0.2464 -0.0819 0.0077
C64 C -0.1316(3) -0.0435(3) 0.0405(2)
H62 H -0.1481 0.0024 0.0260
C65 C -0.0476(3) -0.0608(3) 0.07239(19)
C66 C -0.0280(3) -0.1294(3) 0.0949(2)
H63 H 0.0274 -0.1436 0.1172
C67 C -0.0912(4) -0.1761(3) 0.0840(3)
H64 H -0.0764 -0.2214 0.1005
C68 C 0.0171(3) -0.0086(3) 0.08114(18)
C69 C 0.0051(4) 0.0642(3) 0.0821(2)
H65 H -0.0448 0.0816 0.0775
C70 C 0.0672(4) 0.1102(3) 0.0898(2)
H66 H 0.0569 0.1585 0.0901
N12 N 0.1405(3) 0.0916(3) 0.09692(18)
C71 C 0.1520(3) 0.0219(3) 0.0967(2)
H67 H 0.2027 0.0062 0.1017
C72 C 0.0940(3) -0.0284(3) 0.08946(19)
H68 H 0.1066 -0.0763 0.0902
Cl1 Cl 0.70511(11) 0.38385(8) 0.44627(9)
O9 O 0.6477(8) 0.3328(7) 0.4115(6)
O10 O 0.7663(7) 0.3863(5) 0.4312(6)
O11 O 0.6716(9) 0.4521(5) 0.4371(5)
O12 O 0.7371(9) 0.3691(7) 0.5084(3)
Cl2 Cl 0.13617(8) 0.10674(8) 0.37453(6)
O13 O 0.0704(6) 0.1510(6) 0.3364(6)
O14 O 0.2115(5) 0.1343(7) 0.3848(7)
O15 O 0.1225(8) 0.0399(5) 0.3462(6)
O16 O 0.1372(12) 0.0960(11) 0.4299(5)
O17 O 0.3028(3) 0.1539(3) 0.1250(2)
H69 H 0.301(4) 0.184(3) 0.100(3)
H70 H 0.2545(18) 0.144(4) 0.118(3)
O18 O 0.4102(3) 0.0373(3) 0.1711(2)
H71 H 0.393(6) 0.074(2) 0.150(3)
H72 H 0.389(5) 0.001(2) 0.149(3)
O19 O 0.2807(3) 0.4051(3) 0.0461(2)
H73 H 0.322(3) 0.422(4) 0.045(3)
H74 H 0.238(2) 0.407(5) 0.0119(16)
O20 O 0.2903(3) 0.2559(2) 0.04160(18)
H75 H 0.252(3) 0.240(3) 0.0084(15)
H76 H 0.292(4) 0.3004(6) 0.041(3)
O21? O 0.2155(4) 0.0926(6) 0.3843(5)
O22? O 0.0828(6) 0.0546(6) 0.3328(6)
O23? O 0.1334(12) 0.1012(11) 0.4286(5)
O24? O 0.6662(8) 0.3243(6) 0.4503(6)
O25? O 0.6821(11) 0.3906(8) 0.3847(4)
O26? O 0.6826(9) 0.4452(6) 0.4630(6)
O27? O 0.7919(4) 0.3755(7) 0.4786(7)
O28? O 0.1059(8) 0.1725(5) 0.3471(7)
loop_
_geom_bond_atom_site_label_1
_geom_bond_atom_site_label_2
_geom_bond_site_symmetry_1
_geom_bond_site_symmetry_2
Zn1 N1 1_555 1_555
Zn2 N3 1_555 1_555
Zn3 O5 1_555 1_555
N1 C1 1_555 1_555
C1 H1 1_555 1_555
C2 C1 1_555 1_555
H2 C2 1_555 1_555
C3 C2 1_555 1_555
C4 C3 1_555 1_555
H3 C4 1_555 1_555
C5 N1 1_555 1_555
H4 C5 1_555 1_555
N2 Zn1 1_555 1_555
C6 N2 1_555 1_555
H5 C6 1_555 1_555
C7 C6 1_555 1_555
H6 C7 1_555 1_555
C8 C7 1_555 1_555
C9 C8 1_555 1_555
H7 C9 1_555 1_555
C10 N2 1_555 1_555
H8 C10 1_555 1_555
N3 C11 1_555 1_555
C11 H9 1_555 1_555
C12 C11 1_555 1_555
H10 C12 1_555 1_555
C13 C12 1_555 1_555
C14 C13 1_555 1_555
H11 C14 1_555 1_555
C15 N3 1_555 1_555
H12 C15 1_555 1_555
C16 C13 1_555 1_555
C17 C16 1_555 1_555
H13 C17 1_555 1_555
C18 C17 1_555 1_555
H14 C18 1_555 1_555
N4 C18 1_555 1_555
C19 N4 1_555 1_555
H15 C19 1_555 1_555
C20 C16 1_555 1_555
H16 C20 1_555 1_555
N5 Zn2 1_555 1_555
C21 N5 1_555 1_555
H17 C21 1_555 1_555
C22 C21 1_555 1_555
H18 C22 1_555 1_555
C23 C22 1_555 1_555
C24 C23 1_555 1_555
H19 C24 1_555 1_555
C25 N5 1_555 1_555
H20 C25 1_555 1_555
C26 C23 1_555 1_555
C27 C26 1_555 1_555
H21 C27 1_555 1_555
C28 C27 1_555 1_555
H22 C28 1_555 1_555
N6 C28 1_555 1_555
C29 N6 1_555 1_555
H23 C29 1_555 1_555
C30 C26 1_555 1_555
H24 C30 1_555 1_555
O1 Zn2 1_555 1_555
O2 Zn1 1_555 1_555
C31 O1 1_555 1_555
C32 C31 1_555 1_555
H25 C32 1_555 1_555
H26 C32 1_555 1_555
C33 C32 1_555 1_555
H27 C33 1_555 1_555
H28 C33 1_555 1_555
H29 C33 1_555 1_555
O3 Zn2 1_555 1_555
O4 Zn1 1_555 1_555
C34 O3 1_555 1_555
C35 C34 1_555 1_555
H30 C35 1_555 1_555
H31 C35 1_555 1_555
C36 C35 1_555 1_555
H32 C36 1_555 1_555
H33 C36 1_555 1_555
H34 C36 1_555 1_555
O5 C37 1_555 1_555
O6 Zn1 1_555 1_555
C37 O6 1_555 1_555
C38 C37 1_555 1_555
H35 C38 1_555 1_555
H36 C38 1_555 1_555
C39 C38 1_555 1_555
H37 C39 1_555 1_555
H38 C39 1_555 1_555
H39 C39 1_555 1_555
O7 Zn1 1_555 1_555
O8 Zn3 1_555 1_555
C40 O7 1_555 1_555
C41 C40 1_555 1_555
H40 C41 1_555 1_555
H41 C41 1_555 1_555
C42 C41 1_555 1_555
H42 C42 1_555 1_555
H43 C42 1_555 1_555
H44 C42 1_555 1_555
N7 Zn2 1_555 1_555
C43 N7 1_555 1_555
H45 C43 1_555 1_555
C44 C43 1_555 1_555
H46 C44 1_555 1_555
C45 C44 1_555 1_555
C46 C45 1_555 1_555
H47 C46 1_555 1_555
C47 N7 1_555 1_555
H48 C47 1_555 1_555
C48 C45 1_555 1_555
C49 C48 1_555 1_555
H49 C49 1_555 1_555
C50 C49 1_555 1_555
H50 C50 1_555 1_555
N8 C50 1_555 1_555
C51 N8 1_555 1_555
H51 C51 1_555 1_555
C52 C48 1_555 1_555
H52 C52 1_555 1_555
N9 C53 1_555 1_555
C53 H53 1_555 1_555
C54 C53 1_555 1_555
H54 C54 1_555 1_555
C55 C54 1_555 1_555
C56 C55 1_555 1_555
H55 C56 1_555 1_555
C57 N9 1_555 1_555
H56 C57 1_555 1_555
C58 C55 1_555 1_555
C59 C58 1_555 1_555
H57 C59 1_555 1_555
C60 C59 1_555 1_555
H58 C60 1_555 1_555
N10 C60 1_555 1_555
C61 N10 1_555 1_555
H59 C61 1_555 1_555
C62 C58 1_555 1_555
H60 C62 1_555 1_555
N11 C63 1_555 1_555
C63 H61 1_555 1_555
C64 C63 1_555 1_555
H62 C64 1_555 1_555
C65 C64 1_555 1_555
C66 C65 1_555 1_555
H63 C66 1_555 1_555
C67 N11 1_555 1_555
H64 C67 1_555 1_555
C68 C65 1_555 1_555
C69 C68 1_555 1_555
H65 C69 1_555 1_555
C70 C69 1_555 1_555
H66 C70 1_555 1_555
N12 C70 1_555 1_555
C71 N12 1_555 1_555
H67 C71 1_555 1_555
C72 C68 1_555 1_555
H68 C72 1_555 1_555
Cl1 O9 1_555 1_555
O10 Cl1 1_555 1_555
O11 Cl1 1_555 1_555
O12 Cl1 1_555 1_555
Cl2 O13 1_555 1_555
O14 Cl2 1_555 1_555
O15 Cl2 1_555 1_555
O16 Cl2 1_555 1_555
O17 H69 1_555 1_555
H70 O17 1_555 1_555
O18 H71 1_555 1_555
H72 O18 1_555 1_555
O19 H73 1_555 1_555
H74 O19 1_555 1_555
O20 H75 1_555 1_555
H76 O20 1_555 1_555
Zn1B N1B 1_555 1_555
Zn1B_2 N2B 1_555 1_555
Zn2B N3B 1_555 1_555
Zn2B_2 N5B 1_555 1_555
Zn2_2 N7_2 1_555 1_555
Zn3B N6 1_555 1_555
Zn3B_2 N4 1_555 1_555
Zn3_2 N8 1_555 1_555
N1B C1B 1_555 1_555
C1B H1B 1_555 1_555
C2B C1B 1_555 1_555
H2B C2B 1_555 1_555
C3B C3 1_555 1_555
C4B C3B 1_555 1_555
H3B C4B 1_555 1_555
C5B N1B 1_555 1_555
H4B C5B 1_555 1_555
N2B C6B 1_555 1_555
N2B_2 Zn1B 1_555 1_555
C6B H5B 1_555 1_555
C7B C6B 1_555 1_555
H6B C7B 1_555 1_555
C8B C8 1_555 1_555
C9B C8B 1_555 1_555
H7B C9B 1_555 1_555
C10B N2B 1_555 1_555
H8B C10B 1_555 1_555
N3B C11B 1_555 1_555
C11B H9B 1_555 1_555
C12B C11B 1_555 1_555
H10B C12B 1_555 1_555
C13B C12B 1_555 1_555
C14B C13B 1_555 1_555
H11B C14B 1_555 1_555
C15B N3B 1_555 1_555
H12B C15B 1_555 1_555
C16B C13B 1_555 1_555
C17B C16B 1_555 1_555
H13B C17B 1_555 1_555
C18B C17B 1_555 1_555
H14B C18B 1_555 1_555
N4B Zn3 1_555 1_555
N4_2 Zn3B 1_555 1_555
C19B N4B 1_555 1_555
H15B C19B 1_555 1_555
C20B C16B 1_555 1_555
H16B C20B 1_555 1_555
N5B C21B 1_555 1_555
N5B_2 Zn2B 1_555 1_555
C21B H17B 1_555 1_555
C22B C21B 1_555 1_555
H18B C22B 1_555 1_555
C23B C22B 1_555 1_555
C24B C23B 1_555 1_555
H19B C24B 1_555 1_555
C25B N5B 1_555 1_555
H20B C25B 1_555 1_555
C26B C23B 1_555 1_555
C27B C26B 1_555 1_555
H21B C27B 1_555 1_555
C28B C27B 1_555 1_555
H22B C28B 1_555 1_555
N6B Zn3 1_555 1_555
C29B N6B 1_555 1_555
H23B C29B 1_555 1_555
C30B C26B 1_555 1_555
H24B C30B 1_555 1_555
O1B Zn2B 1_555 1_555
O2B Zn1B 1_555 1_555
C31B O1B 1_555 1_555
C32B C31B 1_555 1_555
H25B C32B 1_555 1_555
H26B C32B 1_555 1_555
C33B C32B 1_555 1_555
H27B C33B 1_555 1_555
H28B C33B 1_555 1_555
H29B C33B 1_555 1_555
O3B Zn2B 1_555 1_555
O4B Zn1B 1_555 1_555
C34B O3B 1_555 1_555
C35B C34B 1_555 1_555
H30B C35B 1_555 1_555
H31B C35B 1_555 1_555
C36B C35B 1_555 1_555
H32B C36B 1_555 1_555
H33B C36B 1_555 1_555
H34B C36B 1_555 1_555
O5B Zn3B_2 1_555 1_555
O5B_2 Zn3B 1_555 1_555
O6B Zn1B 1_555 1_555
C37B O5B 1_555 1_555
C38B C37B 1_555 1_555
H35B C38B 1_555 1_555
H36B C38B 1_555 1_555
C39B C38B 1_555 1_555
H37B C39B 1_555 1_555
H38B C39B 1_555 1_555
H39B C39B 1_555 1_555
O7B Zn1B 1_555 1_555
O7B_2 Zn1B_2 1_555 1_555
O8B Zn3B_2 1_555 1_555
O8B_2 Zn3B 1_555 1_555
C40B O7B 1_555 1_555
C41B C40B 1_555 1_555
H40B C41B 1_555 1_555
H41B C41B 1_555 1_555
C42B C41B 1_555 1_555
H42B C42B 1_555 1_555
H43B C42B 1_555 1_555
H44B C42B 1_555 1_555
N7_2 C43_2 1_555 1_555
N7B Zn2B 1_555 1_555
C43_2 H45_2 1_555 1_555
C44_2 C43_2 1_555 1_555
H46_2 C44_2 1_555 1_555
C45_2 C44_2 1_555 1_555
C46_2 C45_2 1_555 1_555
H47_2 C46_2 1_555 1_555
C47_2 N7_2 1_555 1_555
H48_2 C47_2 1_555 1_555
C48_2 C45_2 1_555 1_555
C49_2 C48_2 1_555 1_555
H49_2 C49_2 1_555 1_555
C50_2 C49_2 1_555 1_555
H50_2 C50_2 1_555 1_555
N8_2 Zn3 1_555 1_555
N8B Zn3B 1_555 1_555
C51_2 N8_2 1_555 1_555
H51_2 C51_2 1_555 1_555
C52_2 C48_2 1_555 1_555
H52_2 C52_2 1_555 1_555
Zn2 O4 1_555 1_555
Zn3 O7 1_555 1_555
C4 C5 1_555 1_555
C9 C10 1_555 1_555
C14 C15 1_555 1_555
C19 C20 1_555 1_555
C24 C25 1_555 1_555
C29 C30 1_555 1_555
O2 C31 1_555 1_555
O4 C34 1_555 1_555
O8 C40 1_555 1_555
C46 C47 1_555 1_555
C51 C52 1_555 1_555
C56 C57 1_555 1_555
C61 C62 1_555 1_555
C66 C67 1_555 1_555
C71 C72 1_555 1_555
Zn2B O4B 1_555 1_555
Zn3B O7B_2 1_555 1_555
Zn3B_2 O7B 1_555 1_555
C2B C3B 1_555 1_555
C4B C5B 1_555 1_555
C7B C8B 1_555 1_555
C9B C10B 1_555 1_555
C14B C15B 1_555 1_555
C18B N4B 1_555 1_555
C19B C20B 1_555 1_555
C24B C25B 1_555 1_555
C28B N6B 1_555 1_555
C29B C30B 1_555 1_555
O2B C31B 1_555 1_555
O4B C34B 1_555 1_555
O6B C37B 1_555 1_555
O8B C40B 1_555 1_555
C46_2 C47_2 1_555 1_555
C50_2 N8_2 1_555 1_555
C51_2 C52_2 1_555 1_555

#END
