
#######################################################################
#
#                 Cambridge Crystallographic Data Centre
#                                CCDC 
#
#######################################################################
#
# If this CIF has been generated from an entry in the Cambridge 
# Structural Database, then it will include bibliographic, chemical, 
# crystal, experimental, refinement or atomic coordinate data resulting 
# from the CCDC's data processing and validation procedures.
#
#######################################################################

data_NULWUN
_symmetry_cell_setting           monoclinic
_symmetry_space_group_name_H-M   'C 2/c'
_symmetry_Int_Tables_number      15
_space_group_name_Hall           '-C 2yn'
loop_
_symmetry_equiv_pos_site_id
_symmetry_equiv_pos_as_xyz
1 x,y,z
2 -x,y,1/2-z
3 1/2+x,1/2+y,z
4 1/2-x,1/2+y,1/2-z
5 -x,-y,-z
6 x,-y,1/2+z
7 1/2-x,1/2-y,-z
8 1/2+x,1/2-y,1/2+z
_cell_length_a                   20.090(2)
_cell_length_b                   6.0758(7)
_cell_length_c                   20.626(2)
_cell_angle_alpha                90
_cell_angle_beta                 111.267(2)
_cell_angle_gamma                90
_cell_volume                     2346.22
loop_
_atom_site_label
_atom_site_type_symbol
_atom_site_fract_x
_atom_site_fract_y
_atom_site_fract_z
C1 C 0.24612(9) -0.0221(3) 0.60175(9)
C2 C 0.29639(9) 0.0273(3) 0.67407(9)
C3 C 0.29584(12) -0.1220(4) 0.72523(10)
H1 H 0.2665 -0.2454 0.7130
C4 C 0.33895(11) -0.0873(4) 0.79443(10)
H2 H 0.3389 -0.1887 0.8282
C5 C 0.38178(12) 0.0967(4) 0.81311(11)
H3 H 0.4099 0.1206 0.8596
C6 C 0.38313(11) 0.2462(4) 0.76280(10)
H4 H 0.4124 0.3696 0.7758
C7 C 0.34081(10) 0.2136(3) 0.69247(9)
C8 C 0.34655(10) 0.3714(3) 0.63894(9)
C9 C 0.50068(9) -0.3880(3) 0.48230(9)
Ce1 Ce 0.362865(5) -0.330688(16) 0.533921(5)
H5 H 0.368(2) 0.074(7) 0.471(2)
H6 H 0.3051(16) 0.066(5) 0.4550(15)
H7 H 0.4559(13) 0.057(4) 0.5947(13)
H8 H 0.4693(12) -0.067(4) 0.6549(12)
O1 O 0.26755(7) -0.1423(2) 0.56235(7)
O2 O 0.18230(7) 0.0403(2) 0.58196(7)
O3 O 0.30488(8) 0.3510(2) 0.57615(7)
O4 O 0.39255(8) 0.5228(3) 0.65694(7)
O5 O 0.45667(7) -0.2477(3) 0.48428(8)
O6 O 0.54751(7) -0.3660(2) 0.45461(8)
O7 O 0.33664(8) 0.0109(3) 0.46355(9)
O8 O 0.44272(9) -0.0480(3) 0.61296(8)
C1_2 C 0.24612(9) -1.0221(3) 0.60175(9)
C2_2 C 0.29639(9) -0.9727(3) 0.67407(9)
C3_2 C 0.29584(12) -1.1220(4) 0.72523(10)
H1_2 H 0.2665 -1.2454 0.7130
C4_2 C 0.33895(11) -1.0873(4) 0.79443(10)
H2_2 H 0.3389 -1.1887 0.8282
C5_2 C 0.38178(12) -0.9033(4) 0.81311(11)
H3_2 H 0.4099 -0.8794 0.8596
C6_2 C 0.38313(11) -0.7538(4) 0.76280(10)
H4_2 H 0.4124 -0.6304 0.7758
C7_2 C 0.34081(10) -0.7864(3) 0.69247(9)
C8_2 C 0.34655(10) -0.6286(3) 0.63894(9)
C9D C 0.49932(9) -0.6120(3) 0.51770(9)
Ce1_2 Ce 0.362865(5) -1.330688(16) 0.533921(5)
Ce1F Ce 0.137135(5) -0.169312(16) 0.466079(5)
Ce1_3 Ce 0.362865(5) 0.669312(16) 0.533921(5)
Ce1D Ce 0.637135(5) -0.669312(16) 0.466079(5)
Ce1F_2 Ce 0.137135(5) -1.169312(16) 0.466079(5)
H5_2 H 0.368(2) -0.926(7) 0.471(2)
H6_2 H 0.3051(16) -0.934(5) 0.4550(15)
H7_2 H 0.4559(13) -0.943(4) 0.5947(13)
H8_2 H 0.4693(12) -1.067(4) 0.6549(12)
O1_2 O 0.26755(7) -1.1423(2) 0.56235(7)
O1F O 0.23245(7) -0.3577(2) 0.43765(7)
O1F_2 O 0.23245(7) -1.3577(2) 0.43765(7)
O2_2 O 0.18230(7) -0.9597(2) 0.58196(7)
O2F O 0.31770(7) -0.5403(2) 0.41804(7)
O2F_2 O 0.31770(7) -1.5403(2) 0.41804(7)
O3_2 O 0.30488(8) -0.6490(2) 0.57615(7)
O3_3 O 0.30488(8) -1.6490(2) 0.57615(7)
O4_2 O 0.39255(8) -0.4772(3) 0.65694(7)
O4_3 O 0.39255(8) -1.4772(3) 0.65694(7)
O5D O 0.54333(7) -0.7523(3) 0.51572(8)
O5_2 O 0.45667(7) -1.2477(3) 0.48428(8)
O6D O 0.45249(7) -0.6340(2) 0.54539(8)
O6D_2 O 0.45249(7) -1.6340(2) 0.54539(8)
O7_2 O 0.33664(8) -0.9891(3) 0.46355(9)
O8_2 O 0.44272(9) -1.0480(3) 0.61296(8)
H9 H 0.4622(4) 0.7098(17) 0.7342(19)
O9 O 0.5000 0.7879(4) 0.7500
H9A H 0.5378(4) 0.7098(17) 0.7658(19)
loop_
_geom_bond_atom_site_label_1
_geom_bond_atom_site_label_2
_geom_bond_site_symmetry_1
_geom_bond_site_symmetry_2
C1 C2 1_555 1_555
C2 C3 1_555 1_555
C3 H1 1_555 1_555
C4 C3 1_555 1_555
H2 C4 1_555 1_555
C5 C4 1_555 1_555
H3 C5 1_555 1_555
C6 C5 1_555 1_555
H4 C6 1_555 1_555
C7 C2 1_555 1_555
C8 C7 1_555 1_555
C9 O5 1_555 1_555
Ce1 O1 1_555 1_555
H5 O7 1_555 1_555
H6 O7 1_555 1_555
H7 O8 1_555 1_555
H8 O8 1_555 1_555
H9 O9 1_555 1_555
O1 C1 1_555 1_555
O2 C1 1_555 1_555
O3 C8 1_555 1_555
O4 C8 1_555 1_555
O5 Ce1 1_555 1_555
O6 C9 1_555 1_555
O7 Ce1 1_555 1_555
O8 Ce1 1_555 1_555
O9 H9A 1_555 1_555
C1_2 C2_2 1_555 1_555
C2_2 C3_2 1_555 1_555
C3_2 H1_2 1_555 1_555
C4_2 C3_2 1_555 1_555
H2_2 C4_2 1_555 1_555
C5_2 C4_2 1_555 1_555
H3_2 C5_2 1_555 1_555
C6_2 C5_2 1_555 1_555
H4_2 C6_2 1_555 1_555
C7_2 C2_2 1_555 1_555
C8_2 C7_2 1_555 1_555
C9D C9 1_555 1_555
Ce1_2 O1_2 1_555 1_555
Ce1F O1 1_555 1_555
Ce1_3 O3 1_555 1_555
Ce1D O6 1_555 1_555
Ce1F_2 O1_2 1_555 1_555
H5_2 O7_2 1_555 1_555
H6_2 O7_2 1_555 1_555
H7_2 O8_2 1_555 1_555
H8_2 O8_2 1_555 1_555
O1_2 C1_2 1_555 1_555
O1F Ce1 1_555 1_555
O1F_2 Ce1_2 1_555 1_555
O2_2 C1_2 1_555 1_555
O2F Ce1 1_555 1_555
O2F_2 Ce1_2 1_555 1_555
O3_2 Ce1 1_555 1_555
O3_3 Ce1_2 1_555 1_555
O4_2 Ce1 1_555 1_555
O4_3 Ce1_2 1_555 1_555
O5D C9D 1_555 1_555
O5_2 Ce1_2 1_555 1_555
O6D Ce1 1_555 1_555
O6D_2 Ce1_2 1_555 1_555
O7_2 Ce1_2 1_555 1_555
O8_2 Ce1_2 1_555 1_555
C6 C7 1_555 1_555
O2 Ce1F 1_555 1_555
O4 Ce1_3 1_555 1_555
C6_2 C7_2 1_555 1_555
C8_2 O3_2 1_555 1_555
C8_2 O4_2 1_555 1_555
C9D O6D 1_555 1_555
Ce1F O1F 1_555 1_555
Ce1D O5D 1_555 1_555
Ce1F_2 O1F_2 1_555 1_555
Ce1F_2 O2_2 1_555 1_555

#END
