
#######################################################################
#
#                 Cambridge Crystallographic Data Centre
#                                CCDC 
#
#######################################################################
#
# If this CIF has been generated from an entry in the Cambridge 
# Structural Database, then it will include bibliographic, chemical, 
# crystal, experimental, refinement or atomic coordinate data resulting 
# from the CCDC's data processing and validation procedures.
#
#######################################################################

data_NULXUO
_symmetry_cell_setting           monoclinic
_symmetry_space_group_name_H-M   'C 2/c'
_symmetry_Int_Tables_number      15
_space_group_name_Hall           '-C 2yn'
loop_
_symmetry_equiv_pos_site_id
_symmetry_equiv_pos_as_xyz
1 x,y,z
2 -x,y,1/2-z
3 1/2+x,1/2+y,z
4 1/2-x,1/2+y,1/2-z
5 -x,-y,-z
6 x,-y,1/2+z
7 1/2-x,1/2-y,-z
8 1/2+x,1/2-y,1/2+z
_cell_length_a                   19.556(4)
_cell_length_b                   5.9957(12)
_cell_length_c                   20.412(4)
_cell_angle_alpha                90
_cell_angle_beta                 110.82(3)
_cell_angle_gamma                90
_cell_volume                     2237.06
loop_
_atom_site_label
_atom_site_type_symbol
_atom_site_fract_x
_atom_site_fract_y
_atom_site_fract_z
C1 C -0.2970(2) 0.0316(6) -0.17249(19)
C2 C -0.3420(2) 0.2204(7) -0.1902(2)
C3 C -0.3842(2) 0.2589(7) -0.2606(2)
H1 H -0.4135 0.3853 -0.2730
C4 C -0.3826(2) 0.1104(8) -0.3120(2)
H2 H -0.4102 0.1388 -0.3587
C5 C -0.3399(2) -0.0806(8) -0.2941(2)
H3 H -0.3400 -0.1826 -0.3284
C6 C -0.2970(2) -0.1180(7) -0.2240(2)
H4 H -0.2679 -0.2451 -0.2118
C7 C -0.2461(2) -0.0223(6) -0.09970(18)
C8 C -0.3472(2) 0.3791(6) -0.1356(2)
C9 C -0.50101(19) 0.6118(6) 0.01800(18)
Gd1 Gd -0.362670(9) 0.67065(3) -0.032110(8)
H5 H -0.364(5) 1.101(14) 0.037(4)
H6 H -0.301(3) 1.068(10) 0.040(3)
H7 H -0.465(3) 0.911(10) -0.146(3)
H8 H -0.454(4) 1.069(7) -0.096(4)
O1 O -0.18058(15) 0.0374(5) -0.07966(15)
O2 O -0.39310(16) 0.5373(5) -0.15292(15)
O3 O -0.30621(15) 0.3546(4) -0.07186(14)
O4 O -0.45565(15) 0.7551(5) 0.01714(16)
O5 O -0.54915(16) 0.6323(5) 0.04569(16)
O6 O -0.33596(18) 1.0031(5) 0.03649(17)
O7 O -0.26824(15) -0.1467(4) -0.06073(14)
O8 O -0.44156(19) 0.9445(5) -0.10854(17)
C1_2 C -0.2970(2) 1.0316(6) -0.17249(19)
C2_2 C -0.3420(2) 1.2204(7) -0.1902(2)
C3_2 C -0.3842(2) 1.2589(7) -0.2606(2)
H1_2 H -0.4135 1.3853 -0.2730
C4_2 C -0.3826(2) 1.1104(8) -0.3120(2)
H2_2 H -0.4102 1.1388 -0.3587
C5_2 C -0.3399(2) 0.9194(8) -0.2941(2)
H3_2 H -0.3400 0.8174 -0.3284
C6_2 C -0.2970(2) 0.8820(7) -0.2240(2)
H4_2 H -0.2679 0.7549 -0.2118
C7_2 C -0.2461(2) 0.9777(6) -0.09970(18)
C8_2 C -0.3472(2) 1.3791(6) -0.1356(2)
C9D C -0.49899(19) 0.3882(6) -0.01800(18)
Gd1F Gd -0.137330(9) -0.17065(3) 0.032110(8)
Gd1D Gd -0.637330(9) 0.32935(3) 0.032110(8)
Gd1F_2 Gd -0.137330(9) 0.82935(3) 0.032110(8)
Gd1_2 Gd -0.362670(9) -0.32935(3) -0.032110(8)
Gd1_3 Gd -0.362670(9) 1.67065(3) -0.032110(8)
H5_2 H -0.364(5) 0.101(14) 0.037(4)
H6_2 H -0.301(3) 0.068(10) 0.040(3)
H7_2 H -0.465(3) -0.089(10) -0.146(3)
H8_2 H -0.454(4) 0.069(7) -0.096(4)
O1F O -0.31942(15) 0.4626(5) 0.07966(15)
O1_2 O -0.18058(15) 1.0374(5) -0.07966(15)
O1F_2 O -0.31942(15) -0.5374(5) 0.07966(15)
O2_2 O -0.39310(16) -0.4627(5) -0.15292(15)
O2_3 O -0.39310(16) 1.5373(5) -0.15292(15)
O3_2 O -0.30621(15) -0.6454(4) -0.07186(14)
O3_3 O -0.30621(15) 1.3546(4) -0.07186(14)
O4D O -0.54435(15) 0.2449(5) -0.01714(16)
O4_2 O -0.45565(15) -0.2449(5) 0.01714(16)
O5D O -0.45085(16) 0.3677(5) -0.04569(16)
O5D_2 O -0.45085(16) -0.6323(5) -0.04569(16)
O6_2 O -0.33596(18) 0.0031(5) 0.03649(17)
O7F O -0.23176(15) 0.6467(4) 0.06073(14)
O7_2 O -0.26824(15) 0.8533(4) -0.06073(14)
O7F_2 O -0.23176(15) -0.3533(4) 0.06073(14)
O8_2 O -0.44156(19) -0.0555(5) -0.10854(17)
H9 H -0.962(3) 0.772(12) 0.269(4)
O9 O -1.0000 0.7000(9) 0.2500
H9A H -1.038(3) 0.772(12) 0.231(4)
loop_
_geom_bond_atom_site_label_1
_geom_bond_atom_site_label_2
_geom_bond_site_symmetry_1
_geom_bond_site_symmetry_2
C1 C2 1_555 1_555
C2 C3 1_555 1_555
C3 H1 1_555 1_555
C4 C3 1_555 1_555
H2 C4 1_555 1_555
C5 C4 1_555 1_555
H3 C5 1_555 1_555
C6 C1 1_555 1_555
H4 C6 1_555 1_555
C7 C1 1_555 1_555
C8 C2 1_555 1_555
C9 O4 1_555 1_555
Gd1 O2 1_555 1_555
H5 O6 1_555 1_555
H6 O6 1_555 1_555
H7 O8 1_555 1_555
H8 O8 1_555 1_555
H9 O9 1_555 1_555
O1 C7 1_555 1_555
O2 C8 1_555 1_555
O3 C8 1_555 1_555
O4 Gd1 1_555 1_555
O5 C9 1_555 1_555
O6 Gd1 1_555 1_555
O7 C7 1_555 1_555
O8 Gd1 1_555 1_555
O9 H9A 1_555 1_555
C1_2 C2_2 1_555 1_555
C2_2 C3_2 1_555 1_555
C3_2 H1_2 1_555 1_555
C4_2 C3_2 1_555 1_555
H2_2 C4_2 1_555 1_555
C5_2 C4_2 1_555 1_555
H3_2 C5_2 1_555 1_555
C6_2 C1_2 1_555 1_555
H4_2 C6_2 1_555 1_555
C7_2 C1_2 1_555 1_555
C8_2 C2_2 1_555 1_555
C9D C9 1_555 1_555
Gd1F O1 1_555 1_555
Gd1D O5 1_555 1_555
Gd1F_2 O1_2 1_555 1_555
Gd1_2 O7 1_555 1_555
Gd1_3 O2_3 1_555 1_555
H5_2 O6_2 1_555 1_555
H6_2 O6_2 1_555 1_555
H7_2 O8_2 1_555 1_555
H8_2 O8_2 1_555 1_555
O1F Gd1 1_555 1_555
O1_2 C7_2 1_555 1_555
O1F_2 Gd1_2 1_555 1_555
O2_2 Gd1_2 1_555 1_555
O2_3 C8_2 1_555 1_555
O3_2 Gd1_2 1_555 1_555
O3_3 C8_2 1_555 1_555
O4D C9D 1_555 1_555
O4_2 Gd1_2 1_555 1_555
O5D Gd1 1_555 1_555
O5D_2 Gd1_2 1_555 1_555
O6_2 Gd1_2 1_555 1_555
O7F Gd1 1_555 1_555
O7_2 Gd1 1_555 1_555
O7F_2 Gd1F 1_555 1_555
O8_2 Gd1_2 1_555 1_555
C5 C6 1_555 1_555
Gd1 O3 1_555 1_555
O7 Gd1F 1_555 1_555
C5_2 C6_2 1_555 1_555
C7_2 O7_2 1_555 1_555
C9D O5D 1_555 1_555
Gd1D O4D 1_555 1_555
Gd1F_2 O7F 1_555 1_555
Gd1F_2 O7_2 1_555 1_555
Gd1_2 O7F_2 1_555 1_555
Gd1_3 O3_3 1_555 1_555

#END
