
#######################################################################
#
#                 Cambridge Crystallographic Data Centre
#                                CCDC 
#
#######################################################################
#
# If this CIF has been generated from an entry in the Cambridge 
# Structural Database, then it will include bibliographic, chemical, 
# crystal, experimental, refinement or atomic coordinate data resulting 
# from the CCDC's data processing and validation procedures.
#
#######################################################################

data_NULXEY01
_symmetry_cell_setting           monoclinic
_symmetry_space_group_name_H-M   'C 2/c'
_symmetry_Int_Tables_number      15
_space_group_name_Hall           '-C 2yn'
loop_
_symmetry_equiv_pos_site_id
_symmetry_equiv_pos_as_xyz
1 x,y,z
2 -x,y,1/2-z
3 1/2+x,1/2+y,z
4 1/2-x,1/2+y,1/2-z
5 -x,-y,-z
6 x,-y,1/2+z
7 1/2-x,1/2-y,-z
8 1/2+x,1/2-y,1/2+z
_cell_length_a                   19.6994(7)
_cell_length_b                   6.0136(2)
_cell_length_c                   20.4762(7)
_cell_angle_alpha                90
_cell_angle_beta                 110.9530(10)
_cell_angle_gamma                90
_cell_volume                     2265.3
loop_
_atom_site_label
_atom_site_type_symbol
_atom_site_fract_x
_atom_site_fract_y
_atom_site_fract_z
Nd1 Nd 0.137359(15) 0.32995(5) 0.467473(15)
C1 C 0.1530(3) 0.6231(10) 0.3634(3)
C2 C 0.1585(3) 0.7807(11) 0.3093(3)
C3 C 0.1162(3) 0.7451(12) 0.2393(3)
H1 H 0.0862 0.6207 0.2269
C4 C 0.1179(4) 0.8925(13) 0.1876(3)
H2 H 0.0905 0.8642 0.1409
C5 C 0.1604(4) 1.0804(12) 0.2059(3)
H3 H 0.1604 1.1826 0.1718
C6 C 0.2034(3) 1.1172(11) 0.2756(3)
H4 H 0.2325 1.2435 0.2877
C7 C 0.2034(3) 0.9683(10) 0.3270(3)
C8 C 0.2538(3) 1.0241(10) 0.3996(3)
C9 C -0.0011(3) 0.3872(10) 0.5170(3)
O1 O 0.2319(2) 1.1465(7) 0.4386(2)
O2 O 0.3191(2) 0.9634(7) 0.4193(2)
O3 O 0.1067(2) 0.4672(8) 0.3460(2)
O4 O 0.1942(2) 0.6474(7) 0.4270(2)
O5 O 0.0444(2) 0.2451(7) 0.5171(2)
O6 O -0.0485(2) 0.3665(7) 0.5454(2)
O7 O 0.1636(2) -0.0048(8) 0.5365(2)
H5 H 0.202(3) -0.077(15) 0.540(5)
H6 H 0.136(5) -0.115(13) 0.536(6)
O8 O 0.0580(3) 0.0550(9) 0.3898(3)
H7 H 0.030(4) 0.080(18) 0.347(2)
H8 H 0.049(6) -0.071(9) 0.404(5)
Nd1_2 Nd 0.137359(15) -0.67005(5) 0.467473(15)
Nd1_3 Nd 0.137359(15) 1.32995(5) 0.467473(15)
Nd1F Nd 0.362641(15) 1.17005(5) 0.532527(15)
Nd1D Nd -0.137359(15) 0.67005(5) 0.532527(15)
Nd1F_2 Nd 0.362641(15) 0.17005(5) 0.532527(15)
C1_2 C 0.1530(3) -0.3769(10) 0.3634(3)
C2_2 C 0.1585(3) -0.2193(11) 0.3093(3)
C3_2 C 0.1162(3) -0.2549(12) 0.2393(3)
H1_2 H 0.0862 -0.3793 0.2269
C4_2 C 0.1179(4) -0.1075(13) 0.1876(3)
H2_2 H 0.0905 -0.1358 0.1409
C5_2 C 0.1604(4) 0.0804(12) 0.2059(3)
H3_2 H 0.1604 0.1826 0.1718
C6_2 C 0.2034(3) 0.1172(11) 0.2756(3)
H4_2 H 0.2325 0.2435 0.2877
C7_2 C 0.2034(3) -0.0317(10) 0.3270(3)
C8_2 C 0.2538(3) 0.0241(10) 0.3996(3)
C9D C 0.0011(3) 0.6128(10) 0.4830(3)
O1_2 O 0.2319(2) 0.1465(7) 0.4386(2)
O1F O 0.2681(2) 0.3535(7) 0.5614(2)
O1_3 O 0.2319(2) -0.8535(7) 0.4386(2)
O1F_2 O 0.2681(2) -0.6465(7) 0.5614(2)
O2_2 O 0.3191(2) -0.0366(7) 0.4193(2)
O2F O 0.1809(2) 0.5366(7) 0.5807(2)
O2F_2 O 0.1809(2) -0.4634(7) 0.5807(2)
O3_2 O 0.1067(2) -0.5328(8) 0.3460(2)
O4_2 O 0.1942(2) -0.3526(7) 0.4270(2)
O5D O -0.0444(2) 0.7549(7) 0.4829(2)
O5_2 O 0.0444(2) -0.7549(7) 0.5171(2)
O6D O 0.0485(2) 0.6335(7) 0.4546(2)
O6D_2 O 0.0485(2) -0.3665(7) 0.4546(2)
O7_2 O 0.1636(2) -1.0048(8) 0.5365(2)
H5_2 H 0.202(3) -1.077(15) 0.540(5)
H6_2 H 0.136(5) -1.115(13) 0.536(6)
O8_2 O 0.0580(3) -0.9450(9) 0.3898(3)
H7_2 H 0.030(4) -0.920(18) 0.347(2)
H8_2 H 0.049(6) -1.071(9) 0.404(5)
O9 O 0.0000 0.2021(15) 0.2500
H9 H 0.036(6) 0.28(2) 0.262(7)
H9A H -0.036(6) 0.28(2) 0.238(7)
loop_
_geom_bond_atom_site_label_1
_geom_bond_atom_site_label_2
_geom_bond_site_symmetry_1
_geom_bond_site_symmetry_2
Nd1 O3 1_555 1_555
C1 C2 1_555 1_555
C2 C3 1_555 1_555
C3 H1 1_555 1_555
C4 C3 1_555 1_555
H2 C4 1_555 1_555
C5 C4 1_555 1_555
H3 C5 1_555 1_555
C6 C5 1_555 1_555
H4 C6 1_555 1_555
C7 C2 1_555 1_555
C8 C7 1_555 1_555
C9 O5 1_555 1_555
O1 C8 1_555 1_555
O2 C8 1_555 1_555
O3 C1 1_555 1_555
O4 Nd1 1_555 1_555
O5 Nd1 1_555 1_555
O6 C9 1_555 1_555
O7 Nd1 1_555 1_555
H5 O7 1_555 1_555
H6 O7 1_555 1_555
O8 Nd1 1_555 1_555
H7 O8 1_555 1_555
H8 O8 1_555 1_555
O9 H9 1_555 1_555
Nd1_2 O1_3 1_555 1_555
Nd1_3 O1 1_555 1_555
Nd1F O1 1_555 1_555
Nd1D O6 1_555 1_555
Nd1F_2 O1_2 1_555 1_555
C1_2 C2_2 1_555 1_555
C2_2 C3_2 1_555 1_555
C3_2 H1_2 1_555 1_555
C4_2 C3_2 1_555 1_555
H2_2 C4_2 1_555 1_555
C5_2 C4_2 1_555 1_555
H3_2 C5_2 1_555 1_555
C6_2 C5_2 1_555 1_555
H4_2 C6_2 1_555 1_555
C7_2 C2_2 1_555 1_555
C8_2 C7_2 1_555 1_555
C9D C9 1_555 1_555
O1_2 Nd1 1_555 1_555
O1F Nd1 1_555 1_555
O1F_2 Nd1_2 1_555 1_555
O2_2 Nd1F_2 1_555 1_555
O2F Nd1 1_555 1_555
O2F_2 Nd1_2 1_555 1_555
O3_2 Nd1_2 1_555 1_555
O4_2 Nd1_2 1_555 1_555
O5D Nd1D 1_555 1_555
O5_2 Nd1_2 1_555 1_555
O6D Nd1 1_555 1_555
O6D_2 Nd1_2 1_555 1_555
O7_2 Nd1_2 1_555 1_555
H5_2 O7_2 1_555 1_555
H6_2 O7_2 1_555 1_555
O8_2 Nd1_2 1_555 1_555
H7_2 O8_2 1_555 1_555
H8_2 O8_2 1_555 1_555
H9A O9 1_555 1_555
C1 O4 1_555 1_555
C6 C7 1_555 1_555
O2 Nd1F 1_555 1_555
Nd1F_2 O1F 1_555 1_555
C1_2 O3_2 1_555 1_555
C1_2 O4_2 1_555 1_555
C6_2 C7_2 1_555 1_555
C8_2 O1_2 1_555 1_555
C8_2 O2_2 1_555 1_555
C9D O5D 1_555 1_555
C9D O6D 1_555 1_555

#END
