
#######################################################################
#
#                 Cambridge Crystallographic Data Centre
#                                CCDC 
#
#######################################################################
#
# If this CIF has been generated from an entry in the Cambridge 
# Structural Database, then it will include bibliographic, chemical, 
# crystal, experimental, refinement or atomic coordinate data resulting 
# from the CCDC's data processing and validation procedures.
#
#######################################################################

data_NULXOI
_symmetry_cell_setting           monoclinic
_symmetry_space_group_name_H-M   'C 2/c'
_symmetry_Int_Tables_number      15
_space_group_name_Hall           '-C 2yn'
loop_
_symmetry_equiv_pos_site_id
_symmetry_equiv_pos_as_xyz
1 x,y,z
2 -x,y,1/2-z
3 1/2+x,1/2+y,z
4 1/2-x,1/2+y,1/2-z
5 -x,-y,-z
6 x,-y,1/2+z
7 1/2-x,1/2-y,-z
8 1/2+x,1/2-y,1/2+z
_cell_length_a                   19.6326(12)
_cell_length_b                   6.0048(4)
_cell_length_c                   20.4684(17)
_cell_angle_alpha                90
_cell_angle_beta                 110.895(4)
_cell_angle_gamma                90
_cell_volume                     2254.33
loop_
_atom_site_label
_atom_site_type_symbol
_atom_site_fract_x
_atom_site_fract_y
_atom_site_fract_z
C1 C 0.2537(3) 0.0226(8) 0.4001(2)
C2 C 0.2031(3) -0.0312(8) 0.3276(3)
C3 C 0.2030(3) 0.1179(9) 0.2753(3)
H1 H 0.2319 0.2449 0.2871
C4 C 0.1603(3) 0.0795(10) 0.2060(3)
H2 H 0.1604 0.1805 0.1716
C5 C 0.1176(3) -0.1096(11) 0.1883(3)
H3 H 0.0896 -0.1379 0.1418
C6 C 0.1164(3) -0.2563(10) 0.2398(3)
H4 H 0.0869 -0.3818 0.2273
C7 C 0.1583(3) -0.2217(9) 0.3098(3)
C8 C 0.1533(3) -0.3779(8) 0.3643(3)
C9 C 0.0007(3) 0.6133(9) 0.4823(3)
Eu1 Eu 0.137337(12) 0.32964(4) 0.467693(12)
H5 H 0.136(4) -0.097(10) 0.545(4)
H6 H 0.193(5) -0.060(18) 0.575(3)
H7 H 0.045(5) -0.062(9) 0.405(5)
H8 H 0.037(4) 0.083(13) 0.345(4)
O1 O 0.31905(19) -0.0384(6) 0.4200(2)
O2 O 0.2320(2) 0.1454(6) 0.4390(2)
O3 O 0.1937(2) -0.3537(5) 0.4278(2)
O4 O 0.1070(2) -0.5361(6) 0.3469(2)
O5 O -0.0444(2) 0.7536(6) 0.4830(2)
O6 O 0.0488(2) 0.6311(6) 0.4545(2)
O7 O 0.1641(2) -0.0049(7) 0.5364(2)
O8 O 0.0574(2) 0.0562(7) 0.3898(2)
C1_2 C 0.2537(3) 1.0226(8) 0.4001(2)
C2_2 C 0.2031(3) 0.9688(8) 0.3276(3)
C3_2 C 0.2030(3) 1.1179(9) 0.2753(3)
H1_2 H 0.2319 1.2449 0.2871
C4_2 C 0.1603(3) 1.0795(10) 0.2060(3)
H2_2 H 0.1604 1.1805 0.1716
C5_2 C 0.1176(3) 0.8904(11) 0.1883(3)
H3_2 H 0.0896 0.8621 0.1418
C6_2 C 0.1164(3) 0.7437(10) 0.2398(3)
H4_2 H 0.0869 0.6182 0.2273
C7_2 C 0.1583(3) 0.7783(9) 0.3098(3)
C8_2 C 0.1533(3) 0.6221(8) 0.3643(3)
C9D C -0.0007(3) 0.3867(9) 0.5177(3)
Eu1F Eu 0.362663(12) 0.17036(4) 0.532307(12)
Eu1F_2 Eu 0.362663(12) 1.17036(4) 0.532307(12)
Eu1D Eu -0.137337(12) 0.67036(4) 0.532307(12)
Eu1_2 Eu 0.137337(12) -0.67036(4) 0.467693(12)
Eu1_3 Eu 0.137337(12) 1.32964(4) 0.467693(12)
H5_2 H 0.136(4) 0.903(10) 0.545(4)
H6_2 H 0.193(5) 0.940(18) 0.575(3)
H7_2 H 0.045(5) 0.938(9) 0.405(5)
H8_2 H 0.037(4) 1.083(13) 0.345(4)
O1F O 0.18095(19) 0.5384(6) 0.5800(2)
O1_2 O 0.31905(19) 0.9616(6) 0.4200(2)
O1F_2 O 0.18095(19) 1.5384(6) 0.5800(2)
O2F O 0.2680(2) 0.3546(6) 0.5610(2)
O2F_2 O 0.2680(2) 1.3546(6) 0.5610(2)
O2_2 O 0.2320(2) 1.1454(6) 0.4390(2)
O3_2 O 0.1937(2) 0.6463(5) 0.4278(2)
O3_3 O 0.1937(2) 1.6463(5) 0.4278(2)
O4_2 O 0.1070(2) 0.4639(6) 0.3469(2)
O4_3 O 0.1070(2) 1.4639(6) 0.3469(2)
O5D O 0.0444(2) 0.2464(6) 0.5170(2)
O5D_2 O 0.0444(2) 1.2464(6) 0.5170(2)
O6D O -0.0488(2) 0.3689(6) 0.5455(2)
O6_2 O 0.0488(2) 1.6311(6) 0.4545(2)
O7_2 O 0.1641(2) 0.9951(7) 0.5364(2)
O8_2 O 0.0574(2) 1.0562(7) 0.3898(2)
H9 H 0.033(4) 0.256(13) 0.268(4)
O9 O 0.0000 0.1989(12) 0.2500
H9A H -0.033(4) 0.256(13) 0.232(4)
loop_
_geom_bond_atom_site_label_1
_geom_bond_atom_site_label_2
_geom_bond_site_symmetry_1
_geom_bond_site_symmetry_2
C1 C2 1_555 1_555
C2 C3 1_555 1_555
C3 H1 1_555 1_555
C4 C3 1_555 1_555
H2 C4 1_555 1_555
C5 C4 1_555 1_555
H3 C5 1_555 1_555
C6 C5 1_555 1_555
H4 C6 1_555 1_555
C7 C2 1_555 1_555
C8 C7 1_555 1_555
C9 O5 1_555 1_555
Eu1 O2 1_555 1_555
H5 O7 1_555 1_555
H6 O7 1_555 1_555
H7 O8 1_555 1_555
H8 O8 1_555 1_555
H9 O9 1_555 1_555
O1 C1 1_555 1_555
O2 C1 1_555 1_555
O3 C8 1_555 1_555
O4 C8 1_555 1_555
O5 Eu1D 1_555 1_555
O6 C9 1_555 1_555
O7 Eu1 1_555 1_555
O8 Eu1 1_555 1_555
O9 H9A 1_555 1_555
C1_2 C2_2 1_555 1_555
C2_2 C3_2 1_555 1_555
C3_2 H1_2 1_555 1_555
C4_2 C3_2 1_555 1_555
H2_2 C4_2 1_555 1_555
C5_2 C4_2 1_555 1_555
H3_2 C5_2 1_555 1_555
C6_2 C5_2 1_555 1_555
H4_2 C6_2 1_555 1_555
C7_2 C2_2 1_555 1_555
C8_2 C7_2 1_555 1_555
C9D C9 1_555 1_555
Eu1F O1 1_555 1_555
Eu1F_2 O1_2 1_555 1_555
Eu1D O6D 1_555 1_555
Eu1_2 O3 1_555 1_555
Eu1_3 O1F_2 1_555 1_555
H5_2 O7_2 1_555 1_555
H6_2 O7_2 1_555 1_555
H7_2 O8_2 1_555 1_555
H8_2 O8_2 1_555 1_555
O1F Eu1 1_555 1_555
O1_2 C1_2 1_555 1_555
O2F Eu1 1_555 1_555
O2F_2 Eu1F_2 1_555 1_555
O2_2 C1_2 1_555 1_555
O3_2 Eu1 1_555 1_555
O3_3 Eu1_3 1_555 1_555
O4_2 Eu1 1_555 1_555
O4_3 Eu1_3 1_555 1_555
O5D Eu1 1_555 1_555
O5D_2 Eu1_3 1_555 1_555
O6D C9D 1_555 1_555
O6_2 Eu1_3 1_555 1_555
O7_2 Eu1_3 1_555 1_555
O8_2 Eu1_3 1_555 1_555
C6 C7 1_555 1_555
Eu1 O6 1_555 1_555
O2 Eu1F 1_555 1_555
O4 Eu1_2 1_555 1_555
C6_2 C7_2 1_555 1_555
C8_2 O3_2 1_555 1_555
C8_2 O4_2 1_555 1_555
C9D O5D 1_555 1_555
Eu1F O2F 1_555 1_555
Eu1F_2 O2_2 1_555 1_555
Eu1_3 O2F_2 1_555 1_555
Eu1_3 O2_2 1_555 1_555

#END
