
#######################################################################
#
#                 Cambridge Crystallographic Data Centre
#                                CCDC 
#
#######################################################################
#
# If this CIF has been generated from an entry in the Cambridge 
# Structural Database, then it will include bibliographic, chemical, 
# crystal, experimental, refinement or atomic coordinate data resulting 
# from the CCDC's data processing and validation procedures.
#
#######################################################################

data_NULYEZ
_symmetry_cell_setting           triclinic
_symmetry_space_group_name_H-M   'P -1'
_symmetry_Int_Tables_number      2
_space_group_name_Hall           '-P 1'
loop_
_symmetry_equiv_pos_site_id
_symmetry_equiv_pos_as_xyz
1 x,y,z
2 -x,-y,-z
_cell_length_a                   6.6560(2)
_cell_length_b                   7.5778(3)
_cell_length_c                   10.9904(3)
_cell_angle_alpha                100.325(2)
_cell_angle_beta                 103.827(2)
_cell_angle_gamma                106.904(2)
_cell_volume                     496.213
loop_
_atom_site_label
_atom_site_type_symbol
_atom_site_fract_x
_atom_site_fract_y
_atom_site_fract_z
C1 C 0.1008(7) 0.5145(6) 0.6312(4)
C2 C 0.0639(7) 0.6733(6) 0.5942(4)
C3 C 0.0352(7) 0.3425(6) 0.5352(4)
H1 H 0.0586 0.2366 0.5589
C4 C 0.2101(8) 0.5222(6) 0.7705(4)
C5 C 0.1358(7) 0.8651(6) 0.6914(4)
C6 C 0.4679(7) 0.5622(6) 1.4552(4)
C7 C 0.0169(8) 0.9019(6) 0.9933(4)
H2 H 0.161(10) 0.805(9) 1.304(6)
H3 H 0.346(9) 0.832(7) 1.368(5)
K1 K 0.3660(2) 0.62577(18) 1.10313(12)
O1 O 0.1157(7) 0.3973(5) 0.8179(3)
O2 O 0.3939(5) 0.6537(5) 0.8330(3)
O3 O 0.3388(5) 0.9606(5) 0.7373(3)
O4 O -0.0129(5) 0.9217(5) 0.7152(3)
O5 O 0.4945(5) 0.7309(4) 1.5114(3)
O6 O 0.3952(5) 0.4855(4) 1.3362(3)
O7 O 0.1909(5) 0.9015(5) 1.0682(3)
O8 O -0.1321(6) 0.7628(5) 0.9092(3)
O9 O 0.2850(6) 0.8669(5) 1.3178(4)
Dy1 Dy 0.63606(3) 0.84399(3) 0.743752(19)
C1A C -0.1008(7) 0.4855(6) 0.3688(4)
C2A C -0.0639(7) 0.3267(6) 0.4058(4)
C3A C -0.0352(7) 0.6575(6) 0.4648(4)
H1A H -0.0586 0.7634 0.4411
C4A C -0.2101(8) 0.4778(6) 0.2295(4)
C5A C -0.1358(7) 0.1349(6) 0.3086(4)
C6A C 0.5321(7) 0.4378(6) 1.5448(4)
C7A C -0.0169(8) 1.0981(6) 1.0067(4)
H2A H 0.839(10) 1.195(9) 0.696(6)
H2A_2 H -0.161(10) 0.195(9) -0.304(6)
H2_2 H -0.839(10) -0.195(9) 0.304(6)
H3A H 0.654(9) 1.168(7) 0.632(5)
H3A_2 H -0.346(9) 0.168(7) -0.368(5)
H3_2 H -0.654(9) -0.168(7) 0.368(5)
K1A K -0.3660(2) 0.37423(18) -0.10313(12)
K1A_2 K 0.6340(2) 0.37423(18) 0.89687(12)
K1A_3 K 0.6340(2) 1.37423(18) 0.89687(12)
K1A_4 K -0.3660(2) 0.37423(18) 0.89687(12)
K1_2 K -0.6340(2) -0.37423(18) 0.10313(12)
K1_3 K -0.6340(2) 0.62577(18) 0.10313(12)
K1A_5 K 0.6340(2) 0.37423(18) 1.89687(12)
K1A_6 K -0.3660(2) 1.37423(18) 0.89687(12)
K1_4 K 0.3660(2) 1.62577(18) 1.10313(12)
O1A O -0.1157(7) 0.6027(5) 0.1821(3)
O2A O -0.3939(5) 0.3463(5) 0.1670(3)
O2A_2 O 0.6061(5) 0.3463(5) 1.1670(3)
O2_2 O -0.6061(5) 0.6537(5) -0.1670(3)
O3A O -0.3388(5) 0.0394(5) 0.2627(3)
O3A_2 O 0.6612(5) 1.0394(5) 1.2627(3)
O3_2 O -0.6612(5) -0.0394(5) -0.2627(3)
O4A O 0.0129(5) 0.0783(5) 0.2848(3)
O4_2 O 0.9871(5) 0.9217(5) 0.7152(3)
O4A_2 O -0.9871(5) 0.0783(5) 0.2848(3)
O5A O 0.5055(5) 0.2691(4) 1.4886(3)
O5_2 O 0.4945(5) 0.7309(4) 0.5114(3)
O5A_2 O -0.4945(5) 0.2691(4) 0.4886(3)
O6A O 0.6048(5) 0.5145(4) 1.6638(3)
O6A_2 O 0.6048(5) 0.5145(4) 0.6638(3)
O6A_3 O -0.3952(5) 0.5145(4) -0.3362(3)
O6_2 O -0.6048(5) 0.4855(4) 0.3362(3)
O7A O -0.1909(5) 1.0985(5) 0.9318(3)
O7A_2 O 0.8091(5) 1.0985(5) 0.9318(3)
O7A_3 O -0.1909(5) 0.0985(5) -0.0682(3)
O7_2 O -0.8091(5) -0.0985(5) 0.0682(3)
O8A O 0.1321(6) 1.2372(5) 1.0908(3)
O8A_2 O 0.1321(6) 0.2372(5) 1.0908(3)
O8_2 O 0.8679(6) 0.7628(5) 0.9092(3)
O8_3 O -0.1321(6) 0.7628(5) -0.0908(3)
O8A_3 O -0.8679(6) 0.2372(5) 0.0908(3)
O9A O 0.7150(6) 1.1331(5) 0.6822(4)
O9A_2 O -0.2850(6) 0.1331(5) -0.3178(4)
O9_2 O -0.7150(6) -0.1331(5) 0.3178(4)
Dy1A Dy -0.63606(3) 0.15601(3) 0.256248(19)
Dy1A_2 Dy 0.36394(3) 1.15601(3) 1.256248(19)
Dy1_2 Dy -0.36394(3) 0.84399(3) 0.743752(19)
Dy1_3 Dy 0.63606(3) 0.84399(3) 1.743752(19)
Dy1A_3 Dy 0.36394(3) 0.15601(3) 1.256248(19)
Dy1A_4 Dy 0.36394(3) 0.15601(3) 0.256248(19)
loop_
_geom_bond_atom_site_label_1
_geom_bond_atom_site_label_2
_geom_bond_site_symmetry_1
_geom_bond_site_symmetry_2
C1 C2 1_555 1_555
C2 C5 1_555 1_555
C3 C1 1_555 1_555
H1 C3 1_555 1_555
C4 C1 1_555 1_555
C5 O3 1_555 1_555
C6 O5 1_555 1_555
C7 O7 1_555 1_555
H2 O9 1_555 1_555
H3 O9 1_555 1_555
K1 O1 1_555 1_555
O1 C4 1_555 1_555
O2 C4 1_555 1_555
O3 Dy1 1_555 1_555
O4 C5 1_555 1_555
O5 Dy1_3 1_555 1_555
O6 C6 1_555 1_555
O7 K1 1_555 1_555
O8 C7 1_555 1_555
O9 K1 1_555 1_555
Dy1 O2 1_555 1_555
C1A C2A 1_555 1_555
C2A C3 1_555 1_555
C3A C2 1_555 1_555
H1A C3A 1_555 1_555
C4A C1A 1_555 1_555
C5A C2A 1_555 1_555
C6A C6 1_555 1_555
C7A C7 1_555 1_555
H2A O9A 1_555 1_555
H2A_2 O9A_2 1_555 1_555
H2_2 O9_2 1_555 1_555
H3A O9A 1_555 1_555
H3A_2 O9A_2 1_555 1_555
H3_2 O9_2 1_555 1_555
K1A O1A 1_555 1_555
K1A_2 O2 1_555 1_555
K1A_3 O3 1_555 1_555
K1A_4 O8 1_555 1_555
K1_2 O3A 1_555 1_555
K1_3 O2A 1_555 1_555
K1A_5 O6A 1_555 1_555
K1A_6 O7A 1_555 1_555
K1_4 O8A 1_555 1_555
O1A C4A 1_555 1_555
O2A C4A 1_555 1_555
O2A_2 K1 1_555 1_555
O2_2 K1A 1_555 1_555
O3A C5A 1_555 1_555
O3A_2 K1 1_555 1_555
O3_2 K1A 1_555 1_555
O4A C5A 1_555 1_555
O4_2 Dy1 1_555 1_555
O4A_2 Dy1A 1_555 1_555
O5A C6A 1_555 1_555
O5_2 Dy1 1_555 1_555
O5A_2 Dy1A 1_555 1_555
O6A C6A 1_555 1_555
O6A_2 Dy1 1_555 1_555
O6A_3 K1A 1_555 1_555
O6_2 K1_3 1_555 1_555
O7A C7A 1_555 1_555
O7A_2 Dy1 1_555 1_555
O7A_3 K1A 1_555 1_555
O7_2 K1_2 1_555 1_555
O8A C7A 1_555 1_555
O8A_2 K1 1_555 1_555
O8_2 Dy1 1_555 1_555
O8_3 K1A 1_555 1_555
O8A_3 K1_3 1_555 1_555
O9A Dy1 1_555 1_555
O9A_2 K1A 1_555 1_555
O9_2 K1_2 1_555 1_555
Dy1A O2A 1_555 1_555
Dy1A_2 O7 1_555 1_555
Dy1_2 O4 1_555 1_555
Dy1_3 O6A 1_555 1_555
Dy1A_3 O6 1_555 1_555
Dy1A_4 O4A 1_555 1_555
K1 O2 1_555 1_555
K1 O6 1_555 1_555
O8 Dy1_2 1_555 1_555
O9 Dy1A_2 1_555 1_555
C1A C3A 1_555 1_555
K1A O2A 1_555 1_555
K1A_2 O2A_2 1_555 1_555
K1A_2 O6A_2 1_555 1_555
K1A_2 O8_2 1_555 1_555
K1A_3 O7A_2 1_555 1_555
K1A_3 O9A 1_555 1_555
K1_3 O2_2 1_555 1_555
O2A_2 Dy1A_3 1_555 1_555
O3A Dy1A 1_555 1_555
O3A_2 Dy1A_2 1_555 1_555
O5A Dy1A_3 1_555 1_555
O6_2 Dy1A 1_555 1_555
O7A Dy1_2 1_555 1_555
O7_2 Dy1A 1_555 1_555
O8A Dy1A_2 1_555 1_555
O8A_2 Dy1A_3 1_555 1_555
O8A_3 Dy1A 1_555 1_555
O9_2 Dy1A 1_555 1_555

#END
