
#######################################################################
#
#                 Cambridge Crystallographic Data Centre
#                                CCDC 
#
#######################################################################
#
# If this CIF has been generated from an entry in the Cambridge 
# Structural Database, then it will include bibliographic, chemical, 
# crystal, experimental, refinement or atomic coordinate data resulting 
# from the CCDC's data processing and validation procedures.
#
#######################################################################

data_NULYID
_symmetry_cell_setting           triclinic
_symmetry_space_group_name_H-M   'P -1'
_symmetry_Int_Tables_number      2
_space_group_name_Hall           '-P 1'
loop_
_symmetry_equiv_pos_site_id
_symmetry_equiv_pos_as_xyz
1 x,y,z
2 -x,-y,-z
_cell_length_a                   10.4541(7)
_cell_length_b                   11.7756(8)
_cell_length_c                   12.3649(9)
_cell_angle_alpha                93.8060(10)
_cell_angle_beta                 112.6500(10)
_cell_angle_gamma                98.5580(10)
_cell_volume                     1376.3
loop_
_atom_site_label
_atom_site_type_symbol
_atom_site_fract_x
_atom_site_fract_y
_atom_site_fract_z
C1 C 0.4637(4) 0.6879(3) 0.4085(3)
C2 C 0.5361(4) 0.8063(3) 0.4086(3)
C3 C 0.5367(4) 0.8410(3) 0.3028(3)
H1 H 0.4945 0.7889 0.2335
C4 C 0.5994(5) 0.9518(3) 0.3006(4)
C5 C 0.6683(6) 1.0280(4) 0.4059(4)
H2 H 0.7113 1.1027 0.4049
C6 C 0.6729(7) 0.9931(5) 0.5112(4)
H3 H 0.7217 1.0433 0.5814
C7 C 0.6052(6) 0.8835(4) 0.5126(4)
H4 H 0.6058 0.8612 0.5835
C8 C 0.5918(4) 0.9903(3) 0.1852(3)
C9 C 0.8860(4) 0.7766(3) 1.0988(3)
C10 C 0.9628(4) 0.8974(3) 1.1570(3)
C11 C 1.0760(4) 0.9508(3) 1.1331(3)
H5 H 1.1090 0.9094 1.0859
C12 C 1.1398(4) 1.0663(3) 1.1799(3)
C13 C 1.0917(5) 1.1261(4) 1.2532(4)
H6 H 1.1330 1.2031 1.2841
C14 C 0.9827(5) 1.0719(4) 1.2803(5)
H7 H 0.9526 1.1121 1.3306
C15 C 0.9189(5) 0.9585(4) 1.2328(4)
H8 H 0.8460 0.9225 1.2514
C16 C 1.2598(4) 1.1222(3) 1.1508(3)
C17 C 0.2793(4) 0.6668(3) 0.7110(3)
C18 C 0.1525(4) 0.6598(3) 0.5998(3)
C19 C 0.0180(4) 0.6332(3) 0.6006(3)
H9 H 0.0087 0.6205 0.6709
C20 C -0.1016(4) 0.6257(3) 0.4974(3)
C21 C -0.0873(4) 0.6482(4) 0.3924(4)
H10 H -0.1673 0.6431 0.3230
C22 C 0.0449(4) 0.6778(4) 0.3915(4)
H11 H 0.0541 0.6955 0.3224
C23 C 0.1643(4) 0.6810(4) 0.4941(4)
H12 H 0.2532 0.6976 0.4922
C24 C -0.2434(4) 0.5866(3) 0.5000(3)
C25 C 0.5252(4) 0.4808(3) 0.9507(3)
Ce1 Ce 0.578686(19) 0.575448(16) 0.688348(16)
Ce2 Ce 0.52108(2) 0.771246(16) 0.939807(16)
K1 K 0.79029(10) 0.33869(9) 0.90276(9)
O1 O 0.4816(3) 0.6515(3) 0.5051(3)
O2 O 0.3859(3) 0.6274(2) 0.3089(3)
O3 O 0.5619(4) 0.9124(3) 0.1002(3)
O4 O 0.6158(3) 1.0964(2) 0.1800(3)
O5 O 0.7574(3) 0.7493(3) 1.0794(3)
O6 O 0.9555(3) 0.7077(3) 1.0723(3)
O7 O 1.3134(3) 1.2298(2) 1.1893(3)
O8 O 1.3026(3) 1.0665(3) 1.0873(3)
O9 O 0.2668(3) 0.6574(3) 0.8073(2)
O10 O 0.4020(3) 0.6872(2) 0.7087(2)
O11 O -0.2512(3) 0.5897(3) 0.5987(3)
O12 O -0.3460(3) 0.5498(2) 0.4013(3)
O13 O 0.5444(3) 0.5572(2) 0.8889(2)
O14 O 0.5428(3) 0.3787(2) 0.9419(2)
O15 O 0.8191(3) 0.5682(3) 0.8539(3)
O16 O 0.9174(4) 0.4749(3) 1.1205(3)
O17 O 0.7331(5) 0.1723(3) 1.0186(3)
C1A C -0.4637(4) 0.3121(3) 0.5915(3)
C2A C -0.5361(4) 0.1937(3) 0.5914(3)
C3A C -0.5367(4) 0.1590(3) 0.6972(3)
H1A H -0.4945 0.2111 0.7665
C4A C -0.5994(5) 0.0482(3) 0.6994(4)
C5A C -0.6683(6) -0.0280(4) 0.5941(4)
H2A H -0.7113 -0.1027 0.5951
C6A C -0.6729(7) 0.0069(5) 0.4888(4)
H3A H -0.7217 -0.0433 0.4186
C7A C -0.6052(6) 0.1165(4) 0.4874(4)
H4A H -0.6058 0.1388 0.4165
C8A C -0.5918(4) 0.0097(3) 0.8148(3)
C9A C -0.8860(4) 0.2234(3) -0.0988(3)
C10A C -0.9628(4) 0.1026(3) -0.1570(3)
C11A C -1.0760(4) 0.0492(3) -0.1331(3)
H5A H -1.1090 0.0906 -0.0859
C12A C -1.1398(4) -0.0663(3) -0.1799(3)
C13A C -1.0917(5) -0.1261(4) -0.2532(4)
H6A H -1.1330 -0.2031 -0.2841
C14A C -0.9827(5) -0.0719(4) -0.2803(5)
H7A H -0.9526 -0.1121 -0.3306
C15A C -0.9189(5) 0.0415(4) -0.2328(4)
H8A H -0.8460 0.0775 -0.2514
C16A C -1.2598(4) -0.1222(3) -0.1508(3)
C17A C -0.2793(4) 0.3332(3) 0.2890(3)
C18A C -0.1525(4) 0.3402(3) 0.4002(3)
C19A C -0.0180(4) 0.3668(3) 0.3994(3)
H9A H -0.0087 0.3795 0.3291
C20A C 0.1016(4) 0.3743(3) 0.5026(3)
C21A C 0.0873(4) 0.3518(4) 0.6076(4)
H10A H 0.1673 0.3569 0.6770
C22A C -0.0449(4) 0.3222(4) 0.6085(4)
H11A H -0.0541 0.3045 0.6776
C23A C -0.1643(4) 0.3190(4) 0.5059(4)
H12A H -0.2532 0.3024 0.5078
C24A C 0.2434(4) 0.4134(3) 0.5000(3)
C25A C 0.4748(4) 0.5192(3) 1.0493(3)
Ce1A Ce -0.578686(19) 0.424552(16) 0.311652(16)
Ce1_2 Ce -1.421314(19) -0.424552(16) -0.311652(16)
Ce1_3 Ce -0.421314(19) 0.575448(16) 0.688348(16)
Ce1A_2 Ce 0.421314(19) 0.424552(16) 0.311652(16)
Ce1A_3 Ce 0.421314(19) 0.424552(16) 1.311652(16)
Ce1A_4 Ce 1.421314(19) 1.424552(16) 1.311652(16)
Ce2A Ce -0.52108(2) 0.228754(16) 0.060193(16)
Ce2_2 Ce -1.47892(2) -0.228754(16) -0.060193(16)
Ce2_3 Ce -0.47892(2) -0.228754(16) 0.939807(16)
Ce2_4 Ce 0.52108(2) 0.771246(16) -0.060193(16)
Ce2A_2 Ce -0.52108(2) 0.228754(16) 1.060193(16)
Ce2A_3 Ce 0.47892(2) 0.228754(16) 1.060193(16)
Ce2A_4 Ce 0.47892(2) 1.228754(16) 0.060193(16)
Ce2A_5 Ce 1.47892(2) 1.228754(16) 1.060193(16)
K1A K -0.79029(10) 0.66131(9) 0.09724(9)
K1_2 K -1.20971(10) 0.33869(9) -0.09724(9)
K1_3 K -0.20971(10) 0.33869(9) 0.90276(9)
K1A_2 K 0.20971(10) 0.66131(9) 0.09724(9)
K1A_3 K 0.20971(10) 0.66131(9) 1.09724(9)
K1A_4 K 1.20971(10) 0.66131(9) 1.09724(9)
O1A O -0.4816(3) 0.3485(3) 0.4949(3)
O2A O -0.3859(3) 0.3726(2) 0.6911(3)
O2_2 O -0.6141(3) 0.6274(2) 0.3089(3)
O2A_2 O 0.6141(3) 0.3726(2) 0.6911(3)
O3A O -0.5619(4) 0.0876(3) 0.8998(3)
O3_2 O 0.5619(4) 0.9124(3) 1.1002(3)
O3A_2 O -0.5619(4) 0.0876(3) -0.1002(3)
O4A O -0.6158(3) -0.0964(2) 0.8200(3)
O4_2 O -0.3842(3) 0.0964(2) 0.1800(3)
O4A_2 O 0.3842(3) 0.9036(2) 0.8200(3)
O5A O -0.7574(3) 0.2507(3) -0.0794(3)
O6A O -0.9555(3) 0.2923(3) -0.0723(3)
O6_2 O -1.0445(3) 0.7077(3) 0.0723(3)
O6A_2 O 1.0445(3) 0.2923(3) 0.9277(3)
O7A O -1.3134(3) -0.2298(2) -0.1893(3)
O7_2 O -0.6866(3) 0.2298(2) 0.1893(3)
O7A_2 O 0.6866(3) 0.7702(2) 0.8107(3)
O8A O -1.3026(3) -0.0665(3) -0.0873(3)
O8_2 O -0.6974(3) 0.0665(3) 0.0873(3)
O8A_2 O 0.6974(3) 0.9335(3) 0.9127(3)
O9A O -0.2668(3) 0.3426(3) 0.1927(2)
O10A O -0.4020(3) 0.3128(2) 0.2913(2)
O11A O 0.2512(3) 0.4103(3) 0.4013(3)
O11_2 O 0.7488(3) 0.5897(3) 0.5987(3)
O11A_2 O -0.7488(3) 0.4103(3) 0.4013(3)
O12A O 0.3460(3) 0.4502(2) 0.5987(3)
O13A O 0.4556(3) 0.4428(2) 1.1111(2)
O13A_2 O -0.5444(3) 0.4428(2) 0.1111(2)
O14A O 0.4572(3) 0.6213(2) 1.0581(2)
O14_2 O -0.4572(3) 0.3787(2) -0.0581(2)
O14A_2 O -0.5428(3) 0.6213(2) 0.0581(2)
O15A O -0.8191(3) 0.4318(3) 0.1461(3)
O16A O -0.9174(4) 0.5251(3) -0.1205(3)
O17A O -0.7331(5) 0.8277(3) -0.0186(3)
loop_
_geom_bond_atom_site_label_1
_geom_bond_atom_site_label_2
_geom_bond_site_symmetry_1
_geom_bond_site_symmetry_2
C1 C2 1_555 1_555
C2 C3 1_555 1_555
C3 H1 1_555 1_555
C4 C3 1_555 1_555
C5 C4 1_555 1_555
H2 C5 1_555 1_555
C6 C5 1_555 1_555
H3 C6 1_555 1_555
C7 C2 1_555 1_555
H4 C7 1_555 1_555
C8 C4 1_555 1_555
C9 C10 1_555 1_555
C10 C11 1_555 1_555
C11 H5 1_555 1_555
C12 C11 1_555 1_555
C13 C12 1_555 1_555
H6 C13 1_555 1_555
C14 C13 1_555 1_555
H7 C14 1_555 1_555
C15 C10 1_555 1_555
H8 C15 1_555 1_555
C16 C12 1_555 1_555
C17 C18 1_555 1_555
C18 C19 1_555 1_555
C19 H9 1_555 1_555
C20 C19 1_555 1_555
C21 C20 1_555 1_555
H10 C21 1_555 1_555
C22 C21 1_555 1_555
H11 C22 1_555 1_555
C23 C18 1_555 1_555
H12 C23 1_555 1_555
C24 C20 1_555 1_555
C25 O13 1_555 1_555
Ce1 O1 1_555 1_555
Ce2 O5 1_555 1_555
K1 O14 1_555 1_555
O1 C1 1_555 1_555
O2 C1 1_555 1_555
O3 C8 1_555 1_555
O4 C8 1_555 1_555
O5 C9 1_555 1_555
O6 C9 1_555 1_555
O7 C16 1_555 1_555
O8 C16 1_555 1_555
O9 C17 1_555 1_555
O10 C17 1_555 1_555
O11 C24 1_555 1_555
O12 C24 1_555 1_555
O13 Ce1 1_555 1_555
O14 C25 1_555 1_555
O15 Ce1 1_555 1_555
O16 K1 1_555 1_555
O17 K1 1_555 1_555
C1A C2A 1_555 1_555
C2A C3A 1_555 1_555
C3A H1A 1_555 1_555
C4A C3A 1_555 1_555
C5A C4A 1_555 1_555
H2A C5A 1_555 1_555
C6A C5A 1_555 1_555
H3A C6A 1_555 1_555
C7A C2A 1_555 1_555
H4A C7A 1_555 1_555
C8A C4A 1_555 1_555
C9A C10A 1_555 1_555
C10A C11A 1_555 1_555
C11A H5A 1_555 1_555
C12A C11A 1_555 1_555
C13A C12A 1_555 1_555
H6A C13A 1_555 1_555
C14A C13A 1_555 1_555
H7A C14A 1_555 1_555
C15A C10A 1_555 1_555
H8A C15A 1_555 1_555
C16A C12A 1_555 1_555
C17A C18A 1_555 1_555
C18A C19A 1_555 1_555
C19A H9A 1_555 1_555
C20A C19A 1_555 1_555
C21A C20A 1_555 1_555
H10A C21A 1_555 1_555
C22A C21A 1_555 1_555
H11A C22A 1_555 1_555
C23A C18A 1_555 1_555
H12A C23A 1_555 1_555
C24A C20A 1_555 1_555
C25A C25 1_555 1_555
Ce1A O12 1_555 1_555
Ce1_2 O7A 1_555 1_555
Ce1_3 O11 1_555 1_555
Ce1A_2 O2 1_555 1_555
Ce1A_3 O13A 1_555 1_555
Ce1A_4 O7 1_555 1_555
Ce2A O3A_2 1_555 1_555
Ce2_2 O7A 1_555 1_555
Ce2_3 O4A 1_555 1_555
Ce2_4 O3 1_555 1_555
Ce2A_2 O3A 1_555 1_555
Ce2A_3 O14 1_555 1_555
Ce2A_4 O4 1_555 1_555
Ce2A_5 O7 1_555 1_555
K1A O2_2 1_555 1_555
K1_2 O6A 1_555 1_555
K1_3 O2A 1_555 1_555
K1A_2 O2 1_555 1_555
K1A_3 O14A 1_555 1_555
K1A_4 O6 1_555 1_555
O1A C1A 1_555 1_555
O2A C1A 1_555 1_555
O2_2 Ce1A 1_555 1_555
O2A_2 Ce1 1_555 1_555
O3A C8A 1_555 1_555
O3_2 Ce2 1_555 1_555
O4A C8A 1_555 1_555
O4_2 Ce2A 1_555 1_555
O4A_2 Ce2 1_555 1_555
O5A C9A 1_555 1_555
O6A C9A 1_555 1_555
O6_2 K1A 1_555 1_555
O6A_2 K1 1_555 1_555
O7A C16A 1_555 1_555
O7_2 Ce1A 1_555 1_555
O7A_2 Ce1 1_555 1_555
O8A C16A 1_555 1_555
O8_2 Ce2A 1_555 1_555
O8A_2 Ce2 1_555 1_555
O9A C17A 1_555 1_555
O10A C17A 1_555 1_555
O11A C24A 1_555 1_555
O11_2 Ce1 1_555 1_555
O11A_2 Ce1A 1_555 1_555
O12A Ce1 1_555 1_555
O13A C25A 1_555 1_555
O13A_2 Ce1A 1_555 1_555
O14A Ce2 1_555 1_555
O14_2 Ce2A 1_555 1_555
O14A_2 K1A 1_555 1_555
O15A Ce1A 1_555 1_555
O16A K1A 1_555 1_555
O17A K1A 1_555 1_555
C6 C7 1_555 1_555
C14 C15 1_555 1_555
C22 C23 1_555 1_555
Ce1 O10 1_555 1_555
Ce2 O9 1_555 1_555
Ce2 O10 1_555 1_555
Ce2 O13 1_555 1_555
Ce2 O7A_2 1_555 1_555
K1 O15 1_555 1_555
K1 O2A_2 1_555 1_555
O8 Ce2A_5 1_555 1_555
C6A C7A 1_555 1_555
C14A C15A 1_555 1_555
C22A C23A 1_555 1_555
C24A O12A 1_555 1_555
C25A O14A 1_555 1_555
Ce1A O1A 1_555 1_555
Ce1A O10A 1_555 1_555
Ce1_3 O2A 1_555 1_555
Ce1A_2 O11A 1_555 1_555
Ce2A O5A 1_555 1_555
Ce2A O7_2 1_555 1_555
Ce2A O9A 1_555 1_555
Ce2A O10A 1_555 1_555
Ce2A O13A_2 1_555 1_555
Ce2_2 O8A 1_555 1_555
Ce2A_3 O13A 1_555 1_555
K1A O15A 1_555 1_555

#END
