
#######################################################################
#
#                 Cambridge Crystallographic Data Centre
#                                CCDC 
#
#######################################################################
#
# If this CIF has been generated from an entry in the Cambridge 
# Structural Database, then it will include bibliographic, chemical, 
# crystal, experimental, refinement or atomic coordinate data resulting 
# from the CCDC's data processing and validation procedures.
#
#######################################################################

data_NULYAV
_symmetry_cell_setting           triclinic
_symmetry_space_group_name_H-M   'P -1'
_symmetry_Int_Tables_number      2
_space_group_name_Hall           '-P 1'
loop_
_symmetry_equiv_pos_site_id
_symmetry_equiv_pos_as_xyz
1 x,y,z
2 -x,-y,-z
_cell_length_a                   6.6743(4)
_cell_length_b                   7.6033(5)
_cell_length_c                   11.0030(6)
_cell_angle_alpha                100.210(4)
_cell_angle_beta                 103.892(4)
_cell_angle_gamma                106.921(4)
_cell_volume                     499.87
loop_
_atom_site_label
_atom_site_type_symbol
_atom_site_fract_x
_atom_site_fract_y
_atom_site_fract_z
C1 C 0.8999(8) 0.4863(7) 0.3697(4)
C2 C 0.9359(7) 0.3268(7) 0.4062(4)
C3 C 0.9653(8) 0.6560(7) 0.4642(5)
H1 H 0.9423 0.7614 0.4400
C4 C 0.7919(8) 0.4784(7) 0.2288(5)
C5 C 0.8668(8) 0.1356(7) 0.3098(5)
C6 C 0.5310(7) 0.4378(7) -0.4552(4)
C7 C 0.9842(8) 0.0975(7) 0.0070(4)
H2 H 0.850(11) 0.205(9) -0.291(6)
H3 H 0.628(12) 0.157(9) -0.376(6)
K1 K 0.6351(3) 0.3747(2) -0.10294(13)
O1 O 0.8873(7) 0.6005(6) 0.1819(4)
O2 O 0.6076(6) 0.3473(5) 0.1668(3)
O3 O 0.6626(6) 0.0394(5) 0.2635(4)
O4 O 1.0140(6) 0.0800(5) 0.2863(4)
O5 O 0.5063(6) 0.2700(5) -0.5107(3)
O6 O 0.6021(6) 0.5145(5) -0.3362(3)
O7 O 0.8109(6) 0.1001(5) -0.0671(3)
O8 O 1.1325(6) 0.2372(5) 0.0896(3)
O9 O 0.7139(7) 0.1331(6) -0.3188(4)
Tb1 Tb 0.36549(3) 0.15624(3) 0.256321(19)
C1A C 1.1001(8) 0.5137(7) 0.6303(4)
C2A C 1.0641(7) 0.6732(7) 0.5938(4)
C3A C 1.0347(8) 0.3440(7) 0.5358(5)
H1A H 1.0577 0.2386 0.5600
C4A C 1.2081(8) 0.5216(7) 0.7712(5)
C5A C 1.1332(8) 0.8644(7) 0.6902(5)
C6A C 0.4690(7) 0.5622(7) -0.5448(4)
C7A C 1.0158(8) -0.0975(7) -0.0070(4)
H2A H 0.150(11) -0.205(9) 0.291(6)
H2A_2 H 1.150(11) 0.795(9) 1.291(6)
H2_2 H 1.850(11) 1.205(9) 0.709(6)
H3A H 0.372(12) -0.157(9) 0.376(6)
H3A_2 H 1.372(12) 0.843(9) 1.376(6)
H3_2 H 1.628(12) 1.157(9) 0.624(6)
K1A K 1.3649(3) 0.6253(2) 1.10294(13)
K1A_2 K 0.3649(3) 0.6253(2) 0.10294(13)
K1A_3 K 0.3649(3) -0.3747(2) 0.10294(13)
K1A_4 K 1.3649(3) 0.6253(2) 0.10294(13)
K1_2 K 1.6351(3) 1.3747(2) 0.89706(13)
K1_3 K 1.6351(3) 0.3747(2) 0.89706(13)
K1A_5 K 0.3649(3) 0.6253(2) -0.89706(13)
K1A_6 K 1.3649(3) -0.3747(2) 0.10294(13)
K1_4 K 0.6351(3) -0.6253(2) -0.10294(13)
O1A O 1.1127(7) 0.3995(6) 0.8181(4)
O2A O 1.3924(6) 0.6527(5) 0.8332(3)
O2A_2 O 0.3924(6) 0.6527(5) -0.1668(3)
O2_2 O 1.6076(6) 0.3473(5) 1.1668(3)
O3A O 1.3374(6) 0.9606(5) 0.7365(4)
O3A_2 O 0.3374(6) -0.0394(5) -0.2635(4)
O3_2 O 1.6626(6) 1.0394(5) 1.2635(4)
O4A O 0.9860(6) 0.9200(5) 0.7137(4)
O4_2 O 0.0140(6) 0.0800(5) 0.2863(4)
O4A_2 O 1.9860(6) 0.9200(5) 0.7137(4)
O5A O 0.4937(6) 0.7300(5) -0.4893(3)
O5_2 O 0.5063(6) 0.2700(5) 0.4893(3)
O5A_2 O 1.4937(6) 0.7300(5) 0.5107(3)
O6A O 0.3979(6) 0.4855(5) -0.6638(3)
O6A_2 O 0.3979(6) 0.4855(5) 0.3362(3)
O6A_3 O 1.3979(6) 0.4855(5) 1.3362(3)
O6_2 O 1.6021(6) 0.5145(5) 0.6638(3)
O7A O 1.1891(6) -0.1001(5) 0.0671(3)
O7A_2 O 0.1891(6) -0.1001(5) 0.0671(3)
O7A_3 O 1.1891(6) 0.8999(5) 1.0671(3)
O7_2 O 1.8109(6) 1.1001(5) 0.9329(3)
O8A O 0.8675(6) -0.2372(5) -0.0896(3)
O8A_2 O 0.8675(6) 0.7628(5) -0.0896(3)
O8_2 O 0.1325(6) 0.2372(5) 0.0896(3)
O8_3 O 1.1325(6) 0.2372(5) 1.0896(3)
O8A_3 O 1.8675(6) 0.7628(5) 0.9104(3)
O9A O 0.2861(7) -0.1331(6) 0.3188(4)
O9A_2 O 1.2861(7) 0.8669(6) 1.3188(4)
O9_2 O 1.7139(7) 1.1331(6) 0.6812(4)
Tb1A Tb 1.63451(3) 0.84376(3) 0.743679(19)
Tb1_2 Tb 1.36549(3) 0.15624(3) 0.256321(19)
Tb1_3 Tb 0.36549(3) 0.15624(3) -0.743679(19)
Tb1A_2 Tb 0.63451(3) 0.84376(3) -0.256321(19)
Tb1A_3 Tb 0.63451(3) -0.15624(3) -0.256321(19)
Tb1A_4 Tb 0.63451(3) 0.84376(3) 0.743679(19)
loop_
_geom_bond_atom_site_label_1
_geom_bond_atom_site_label_2
_geom_bond_site_symmetry_1
_geom_bond_site_symmetry_2
C1 C2 1_555 1_555
C2 C5 1_555 1_555
C3 C1 1_555 1_555
H1 C3 1_555 1_555
C4 C1 1_555 1_555
C5 O3 1_555 1_555
C6 O5 1_555 1_555
C7 O7 1_555 1_555
H2 O9 1_555 1_555
H3 O9 1_555 1_555
K1 O1 1_555 1_555
O1 C4 1_555 1_555
O2 C4 1_555 1_555
O3 Tb1 1_555 1_555
O4 C5 1_555 1_555
O5 Tb1_3 1_555 1_555
O6 C6 1_555 1_555
O7 K1 1_555 1_555
O8 C7 1_555 1_555
O9 K1 1_555 1_555
Tb1 O2 1_555 1_555
C1A C2A 1_555 1_555
C2A C3 1_555 1_555
C3A C2 1_555 1_555
H1A C3A 1_555 1_555
C4A C1A 1_555 1_555
C5A C2A 1_555 1_555
C6A C6 1_555 1_555
C7A C7 1_555 1_555
H2A O9A 1_555 1_555
H2A_2 O9A_2 1_555 1_555
H2_2 O9_2 1_555 1_555
H3A O9A 1_555 1_555
H3A_2 O9A_2 1_555 1_555
H3_2 O9_2 1_555 1_555
K1A O1A 1_555 1_555
K1A_2 O2 1_555 1_555
K1A_3 O3 1_555 1_555
K1A_4 O8 1_555 1_555
K1_2 O3A 1_555 1_555
K1_3 O2A 1_555 1_555
K1A_5 O6A 1_555 1_555
K1A_6 O7A 1_555 1_555
K1_4 O8A 1_555 1_555
O1A C4A 1_555 1_555
O2A C4A 1_555 1_555
O2A_2 K1 1_555 1_555
O2_2 K1A 1_555 1_555
O3A C5A 1_555 1_555
O3A_2 K1 1_555 1_555
O3_2 K1A 1_555 1_555
O4A C5A 1_555 1_555
O4_2 Tb1 1_555 1_555
O4A_2 Tb1A 1_555 1_555
O5A C6A 1_555 1_555
O5_2 Tb1 1_555 1_555
O5A_2 Tb1A 1_555 1_555
O6A C6A 1_555 1_555
O6A_2 Tb1 1_555 1_555
O6A_3 K1A 1_555 1_555
O6_2 K1_3 1_555 1_555
O7A C7A 1_555 1_555
O7A_2 Tb1 1_555 1_555
O7A_3 K1A 1_555 1_555
O7_2 K1_2 1_555 1_555
O8A C7A 1_555 1_555
O8A_2 K1 1_555 1_555
O8_2 Tb1 1_555 1_555
O8_3 K1A 1_555 1_555
O8A_3 K1_3 1_555 1_555
O9A Tb1 1_555 1_555
O9A_2 K1A 1_555 1_555
O9_2 K1_2 1_555 1_555
Tb1A O2A 1_555 1_555
Tb1_2 O4 1_555 1_555
Tb1_3 O6A 1_555 1_555
Tb1A_2 O6 1_555 1_555
Tb1A_3 O7 1_555 1_555
Tb1A_4 O4A 1_555 1_555
K1 O2 1_555 1_555
K1 O6 1_555 1_555
O8 Tb1_2 1_555 1_555
O9 Tb1A_3 1_555 1_555
C1A C3A 1_555 1_555
K1A O2A 1_555 1_555
K1A_2 O2A_2 1_555 1_555
K1A_2 O6A_2 1_555 1_555
K1A_2 O8_2 1_555 1_555
K1A_3 O7A_2 1_555 1_555
K1A_3 O9A 1_555 1_555
K1_3 O2_2 1_555 1_555
O2A_2 Tb1A_2 1_555 1_555
O3A Tb1A 1_555 1_555
O3A_2 Tb1A_3 1_555 1_555
O5A Tb1A_2 1_555 1_555
O6_2 Tb1A 1_555 1_555
O7A Tb1_2 1_555 1_555
O7_2 Tb1A 1_555 1_555
O8A Tb1A_3 1_555 1_555
O8A_2 Tb1A_2 1_555 1_555
O8A_3 Tb1A 1_555 1_555
O9_2 Tb1A 1_555 1_555

#END
