
#######################################################################
#
#                 Cambridge Crystallographic Data Centre
#                                CCDC 
#
#######################################################################
#
# If this CIF has been generated from an entry in the Cambridge 
# Structural Database, then it will include bibliographic, chemical, 
# crystal, experimental, refinement or atomic coordinate data resulting 
# from the CCDC's data processing and validation procedures.
#
#######################################################################

data_NULZAX
_symmetry_cell_setting           monoclinic
_symmetry_space_group_name_H-M   'C 2/c'
_symmetry_Int_Tables_number      15
_space_group_name_Hall           '-C 2yn'
loop_
_symmetry_equiv_pos_site_id
_symmetry_equiv_pos_as_xyz
1 x,y,z
2 -x,y,1/2-z
3 1/2+x,1/2+y,z
4 1/2-x,1/2+y,1/2-z
5 -x,-y,-z
6 x,-y,1/2+z
7 1/2-x,1/2-y,-z
8 1/2+x,1/2-y,1/2+z
_cell_length_a                   19.750(4)
_cell_length_b                   11.345(2)
_cell_length_c                   23.820(5)
_cell_angle_alpha                90
_cell_angle_beta                 91.95(3)
_cell_angle_gamma                90
_cell_volume                     5334.11
loop_
_atom_site_label
_atom_site_type_symbol
_atom_site_fract_x
_atom_site_fract_y
_atom_site_fract_z
Nd1 Nd 0.091141(12) 0.49127(2) 0.042606(9)
S1 S 0.00274(6) 0.60873(10) 0.20727(5)
S2 S 0.10377(7) 0.36325(12) 0.24750(5)
S3 S 0.11089(7) 0.35413(11) 0.33296(5)
O1 O 0.00453(17) 0.5970(3) 0.09270(14)
O2 O -0.09538(17) 0.6065(3) 0.04553(13)
O3 O 0.1067(2) 0.4098(3) 0.13785(15)
O4 O 0.14415(19) 0.2958(3) 0.07162(14)
O5 O 0.12115(17) 0.3381(3) 0.46167(15)
O6 O 0.01490(16) 0.3846(3) 0.47367(13)
N1 N 0.1505(2) 0.6758(4) 0.08763(18)
N2 N 0.2365(3) 0.7971(4) 0.0966(2)
H1 H 0.2762 0.8267 0.0930
N3 N 0.2211(2) 0.5065(4) 0.03019(18)
N4 N 0.3150(2) 0.6101(5) 0.0289(2)
H2 H 0.3431 0.6670 0.0346
C1 C 0.1403(3) 0.3205(4) 0.1226(2)
C2 C 0.1764(2) 0.2484(4) 0.1667(2)
C3 C 0.2253(3) 0.1694(4) 0.1497(2)
H3 H 0.2318 0.1596 0.1115
C4 C 0.2646(3) 0.1049(5) 0.1877(3)
H4 H 0.2976 0.0534 0.1753
C5 C 0.2545(3) 0.1178(5) 0.2437(3)
H5 H 0.2806 0.0748 0.2696
C6 C 0.2056(3) 0.1945(5) 0.2622(2)
H6 H 0.1985 0.2012 0.3004
C7 C 0.1668(2) 0.2614(4) 0.2244(2)
C8 C 0.0597(2) 0.3250(4) 0.44926(19)
C9 C 0.0375(2) 0.2333(4) 0.4083(2)
C10 C -0.0040(3) 0.1433(5) 0.4260(2)
H7 H -0.0190 0.1428 0.4626
C11 C -0.0233(3) 0.0538(5) 0.3892(3)
H8 H -0.0511 -0.0067 0.4011
C12 C -0.0016(3) 0.0541(5) 0.3353(3)
H9 H -0.0146 -0.0061 0.3107
C13 C 0.0398(3) 0.1437(5) 0.3173(2)
H10 H 0.0546 0.1435 0.2807
C14 C 0.0591(2) 0.2335(4) 0.3536(2)
C15 C -0.0552(2) 0.6339(4) 0.08564(18)
C16 C -0.0808(2) 0.7180(4) 0.12845(19)
C17 C -0.1298(3) 0.8008(5) 0.1107(2)
H11 H -0.143(3) 0.802(5) 0.071(2)
C18 C -0.1554(3) 0.8805(5) 0.1476(3)
H12 H -0.195(3) 0.935(5) 0.134(2)
C19 C -0.1344(3) 0.8779(5) 0.2036(3)
H13 H -0.152(3) 0.930(5) 0.229(2)
C20 C -0.0868(3) 0.7964(4) 0.2218(2)
H14 H -0.072(3) 0.795(4) 0.258(2)
C21 C -0.0587(2) 0.7155(4) 0.18474(18)
C22 C 0.2144(3) 0.6930(5) 0.0761(2)
C23 C 0.1310(3) 0.7722(5) 0.1182(2)
H15 H 0.0883 0.7842 0.1324
C24 C 0.1843(4) 0.8468(6) 0.1240(3)
H16 H 0.1852 0.9183 0.1431
C25 C 0.2509(2) 0.6063(5) 0.0449(2)
C26 C 0.2694(3) 0.4442(6) 0.0030(3)
H17 H 0.2632 0.3696 -0.0124
C27 C 0.3274(3) 0.5069(6) 0.0019(3)
H18 H 0.3677 0.4843 -0.0141
S1A S -0.00274(6) 0.60873(10) 0.29273(5)
O1A O -0.00453(17) 0.5970(3) 0.40730(14)
O2A O 0.09538(17) 0.6065(3) 0.45447(13)
C15A C 0.0552(2) 0.6339(4) 0.41436(18)
C16A C 0.0808(2) 0.7180(4) 0.37155(19)
C17A C 0.1298(3) 0.8008(5) 0.3893(2)
H11A H 0.143(3) 0.802(5) 0.429(2)
C18A C 0.1554(3) 0.8805(5) 0.3524(3)
H12A H 0.195(3) 0.935(5) 0.366(2)
C19A C 0.1344(3) 0.8779(5) 0.2964(3)
H13A H 0.152(3) 0.930(5) 0.271(2)
C20A C 0.0868(3) 0.7964(4) 0.2782(2)
H14A H 0.072(3) 0.795(4) 0.242(2)
C21A C 0.0587(2) 0.7155(4) 0.31526(18)
Nd1A Nd -0.091141(12) 0.49127(2) 0.457394(9)
S2A S -0.10377(7) 0.36325(12) 0.25250(5)
S3A S -0.11089(7) 0.35413(11) 0.16704(5)
O3A O -0.1067(2) 0.4098(3) 0.36215(15)
O4A O -0.14415(19) 0.2958(3) 0.42838(14)
O5A O -0.12115(17) 0.3381(3) 0.03833(15)
O6A O -0.01490(16) 0.3846(3) 0.02633(13)
N1A N -0.1505(2) 0.6758(4) 0.41237(18)
N2A N -0.2365(3) 0.7971(4) 0.4034(2)
H1A H -0.2762 0.8267 0.4070
N3A N -0.2211(2) 0.5065(4) 0.46981(18)
N4A N -0.3150(2) 0.6101(5) 0.4711(2)
H2A H -0.3431 0.6670 0.4654
C1A C -0.1403(3) 0.3205(4) 0.3774(2)
C2A C -0.1764(2) 0.2484(4) 0.3333(2)
C3A C -0.2253(3) 0.1694(4) 0.3503(2)
H3A H -0.2318 0.1596 0.3885
C4A C -0.2646(3) 0.1049(5) 0.3123(3)
H4A H -0.2976 0.0534 0.3247
C5A C -0.2545(3) 0.1178(5) 0.2563(3)
H5A H -0.2806 0.0748 0.2304
C6A C -0.2056(3) 0.1945(5) 0.2378(2)
H6A H -0.1985 0.2012 0.1996
C7A C -0.1668(2) 0.2614(4) 0.2756(2)
C8A C -0.0597(2) 0.3250(4) 0.05074(19)
C9A C -0.0375(2) 0.2333(4) 0.0917(2)
C10A C 0.0040(3) 0.1433(5) 0.0740(2)
H7A H 0.0190 0.1428 0.0374
C11A C 0.0233(3) 0.0538(5) 0.1108(3)
H8A H 0.0511 -0.0067 0.0989
C12A C 0.0016(3) 0.0541(5) 0.1647(3)
H9A H 0.0146 -0.0061 0.1893
C13A C -0.0398(3) 0.1437(5) 0.1827(2)
H10A H -0.0546 0.1435 0.2193
C14A C -0.0591(2) 0.2335(4) 0.1464(2)
C22A C -0.2144(3) 0.6930(5) 0.4239(2)
C23A C -0.1310(3) 0.7722(5) 0.3818(2)
H15A H -0.0883 0.7842 0.3676
C24A C -0.1843(4) 0.8468(6) 0.3760(3)
H16A H -0.1852 0.9183 0.3569
C25A C -0.2509(2) 0.6063(5) 0.4551(2)
C26A C -0.2694(3) 0.4442(6) 0.4970(3)
H17A H -0.2632 0.3696 0.5124
C27A C -0.3274(3) 0.5069(6) 0.4981(3)
H18A H -0.3677 0.4843 0.5141
Nd1D Nd -0.091141(12) 0.50873(2) -0.042606(9)
Nd1E Nd 0.091141(12) 0.50873(2) 0.542606(9)
O2D O 0.09538(17) 0.3935(3) -0.04553(13)
O2E O -0.09538(17) 0.3935(3) 0.54553(13)
O5D O -0.12115(17) 0.6619(3) 0.53833(15)
O5E O 0.12115(17) 0.6619(3) -0.03833(15)
O6D O -0.01490(16) 0.6154(3) 0.52633(13)
O6E O 0.01490(16) 0.6154(3) -0.02633(13)
loop_
_geom_bond_atom_site_label_1
_geom_bond_atom_site_label_2
_geom_bond_site_symmetry_1
_geom_bond_site_symmetry_2
Nd1 O1 1_555 1_555
S1 C21 1_555 1_555
S2 S3 1_555 1_555
S3 C14 1_555 1_555
O1 C15 1_555 1_555
O2 C15 1_555 1_555
O3 Nd1 1_555 1_555
O4 Nd1 1_555 1_555
O5 C8 1_555 1_555
O6 C8 1_555 1_555
N1 Nd1 1_555 1_555
N2 H1 1_555 1_555
N3 Nd1 1_555 1_555
N4 H2 1_555 1_555
C1 O3 1_555 1_555
C2 C1 1_555 1_555
C3 C2 1_555 1_555
H3 C3 1_555 1_555
C4 C3 1_555 1_555
H4 C4 1_555 1_555
C5 C4 1_555 1_555
H5 C5 1_555 1_555
C6 C5 1_555 1_555
H6 C6 1_555 1_555
C7 S2 1_555 1_555
C8 C9 1_555 1_555
C9 C10 1_555 1_555
C10 H7 1_555 1_555
C11 C10 1_555 1_555
H8 C11 1_555 1_555
C12 C11 1_555 1_555
H9 C12 1_555 1_555
C13 C12 1_555 1_555
H10 C13 1_555 1_555
C14 C9 1_555 1_555
C15 C16 1_555 1_555
C16 C17 1_555 1_555
C17 H11 1_555 1_555
C18 C17 1_555 1_555
H12 C18 1_555 1_555
C19 C18 1_555 1_555
H13 C19 1_555 1_555
C20 C19 1_555 1_555
H14 C20 1_555 1_555
C21 C16 1_555 1_555
C22 N1 1_555 1_555
C23 N1 1_555 1_555
H15 C23 1_555 1_555
C24 N2 1_555 1_555
H16 C24 1_555 1_555
C25 N3 1_555 1_555
C26 N3 1_555 1_555
H17 C26 1_555 1_555
C27 N4 1_555 1_555
H18 C27 1_555 1_555
S1A S1 1_555 1_555
O1A C15A 1_555 1_555
O2A C15A 1_555 1_555
C15A C16A 1_555 1_555
C16A C17A 1_555 1_555
C17A H11A 1_555 1_555
C18A C17A 1_555 1_555
H12A C18A 1_555 1_555
C19A C18A 1_555 1_555
H13A C19A 1_555 1_555
C20A C19A 1_555 1_555
H14A C20A 1_555 1_555
C21A S1A 1_555 1_555
Nd1A O6 1_555 1_555
S2A S3A 1_555 1_555
S3A C14A 1_555 1_555
O3A Nd1A 1_555 1_555
O4A Nd1A 1_555 1_555
O5A C8A 1_555 1_555
O6A Nd1 1_555 1_555
N1A Nd1A 1_555 1_555
N2A H1A 1_555 1_555
N3A Nd1A 1_555 1_555
N4A H2A 1_555 1_555
C1A O3A 1_555 1_555
C2A C1A 1_555 1_555
C3A C2A 1_555 1_555
H3A C3A 1_555 1_555
C4A C3A 1_555 1_555
H4A C4A 1_555 1_555
C5A C4A 1_555 1_555
H5A C5A 1_555 1_555
C6A C5A 1_555 1_555
H6A C6A 1_555 1_555
C7A S2A 1_555 1_555
C8A O6A 1_555 1_555
C9A C8A 1_555 1_555
C10A C9A 1_555 1_555
H7A C10A 1_555 1_555
C11A C10A 1_555 1_555
H8A C11A 1_555 1_555
C12A C11A 1_555 1_555
H9A C12A 1_555 1_555
C13A C12A 1_555 1_555
H10A C13A 1_555 1_555
C14A C9A 1_555 1_555
C22A N1A 1_555 1_555
C23A N1A 1_555 1_555
H15A C23A 1_555 1_555
C24A N2A 1_555 1_555
H16A C24A 1_555 1_555
C25A N3A 1_555 1_555
C26A N3A 1_555 1_555
H17A C26A 1_555 1_555
C27A N4A 1_555 1_555
H18A C27A 1_555 1_555
Nd1D O2 1_555 1_555
Nd1E O5 1_555 1_555
O2D Nd1 1_555 1_555
O2E Nd1A 1_555 1_555
O5D Nd1A 1_555 1_555
O5E Nd1 1_555 1_555
O6D Nd1A 1_555 1_555
O6E Nd1 1_555 1_555
O4 C1 1_555 1_555
O6 Nd1E 1_555 1_555
N2 C22 1_555 1_555
N4 C25 1_555 1_555
C2 C7 1_555 1_555
C6 C7 1_555 1_555
C13 C14 1_555 1_555
C20 C21 1_555 1_555
C22 C25 1_555 1_555
C23 C24 1_555 1_555
C26 C27 1_555 1_555
O1A Nd1A 1_555 1_555
O2A Nd1E 1_555 1_555
C16A C21A 1_555 1_555
C20A C21A 1_555 1_555
O4A C1A 1_555 1_555
O5A Nd1D 1_555 1_555
O6A Nd1D 1_555 1_555
N2A C22A 1_555 1_555
N4A C25A 1_555 1_555
C2A C7A 1_555 1_555
C6A C7A 1_555 1_555
C13A C14A 1_555 1_555
C22A C25A 1_555 1_555
C23A C24A 1_555 1_555
C26A C27A 1_555 1_555
Nd1D O6E 1_555 1_555
Nd1E O6D 1_555 1_555

#END
