
#######################################################################
#
#                 Cambridge Crystallographic Data Centre
#                                CCDC 
#
#######################################################################
#
# If this CIF has been generated from an entry in the Cambridge 
# Structural Database, then it will include bibliographic, chemical, 
# crystal, experimental, refinement or atomic coordinate data resulting 
# from the CCDC's data processing and validation procedures.
#
#######################################################################

data_NULZOL
_symmetry_cell_setting           triclinic
_symmetry_space_group_name_H-M   'P -1'
_symmetry_Int_Tables_number      2
_space_group_name_Hall           '-P 1'
loop_
_symmetry_equiv_pos_site_id
_symmetry_equiv_pos_as_xyz
1 x,y,z
2 -x,-y,-z
_cell_length_a                   8.9435(18)
_cell_length_b                   10.941(2)
_cell_length_c                   15.688(3)
_cell_angle_alpha                94.36(3)
_cell_angle_beta                 92.60(3)
_cell_angle_gamma                110.03(3)
_cell_volume                     1433.87
loop_
_atom_site_label
_atom_site_type_symbol
_atom_site_fract_x
_atom_site_fract_y
_atom_site_fract_z
Yb1 Yb 0.0000 0.0000 0.5000
Yb2 Yb -0.5000 0.0000 0.5000
S1 S 0.1910(2) 0.41073(16) 0.43831(12)
S2 S 0.3568(2) 0.59556(16) 0.44541(11)
S3 S -0.9247(2) 0.13233(17) 0.26809(11)
S4 S -0.9624(2) 0.23456(17) 0.17111(11)
O1 O -0.2996(6) 0.1257(4) 0.4380(3)
O2 O -0.0355(6) 0.1807(4) 0.4604(3)
O3 O 0.5826(5) 0.8378(4) 0.4624(3)
O4 O 0.8122(5) 0.8703(5) 0.4018(3)
O5 O -0.6389(6) -0.0613(5) 0.3700(3)
O6 O -0.8386(5) 0.0096(5) 0.3973(3)
O7 O -0.9957(6) 0.4002(5) 0.0654(3)
O8 O -1.2133(7) 0.4478(6) 0.0315(4)
H1 H -1.1504 0.5002 0.0039
C1 C -0.1595(8) 0.2028(6) 0.4344(4)
C2 C -0.1364(8) 0.3267(7) 0.3937(4)
C3 C -0.2732(8) 0.3405(7) 0.3543(4)
H2 H -0.3709 0.2729 0.3530
C4 C -0.2644(9) 0.4535(8) 0.3172(5)
H3 H -0.3553 0.4614 0.2907
C5 C -0.1191(10) 0.5544(8) 0.3200(6)
H4 H -0.1123 0.6313 0.2963
C6 C 0.0152(8) 0.5406(7) 0.3578(5)
H5 H 0.1124 0.6088 0.3586
C7 C 0.0102(8) 0.4279(6) 0.3948(5)
C8 C 0.4330(8) 0.6134(7) 0.3421(4)
C9 C 0.3539(8) 0.5266(7) 0.2695(5)
H6 H 0.2602 0.4576 0.2753
C10 C 0.4141(8) 0.5432(7) 0.1905(5)
H7 H 0.3587 0.4863 0.1434
C11 C 0.5565(9) 0.6436(7) 0.1792(5)
H8 H 0.5959 0.6537 0.1253
C12 C 0.6374(8) 0.7273(7) 0.2494(5)
H9 H 0.7337 0.7933 0.2430
C13 C 0.5764(8) 0.7145(6) 0.3307(4)
C14 C 0.6638(8) 0.8136(6) 0.4031(4)
C15 C -0.7645(8) -0.0410(6) 0.3475(4)
C16 C -0.8340(8) -0.0848(7) 0.2577(4)
C17 C -0.8184(9) -0.1966(7) 0.2165(4)
H10 H -0.7585 -0.2393 0.2435
C18 C -0.8925(10) -0.2445(7) 0.1348(5)
H11 H -0.8868 -0.3215 0.1083
C19 C -0.9752(10) -0.1765(8) 0.0931(5)
H12 H -1.0223 -0.2069 0.0379
C20 C -0.9877(8) -0.0638(7) 0.1333(4)
H13 H -1.0428 -0.0190 0.1046
C21 C -0.9194(8) -0.0165(7) 0.2158(4)
C22 C -1.1747(8) 0.1921(7) 0.1600(4)
C23 C -1.2749(9) 0.0887(7) 0.1982(5)
H14 H -1.2321 0.0375 0.2289
C24 C -1.4392(10) 0.0601(8) 0.1914(6)
H15 H -1.5049 -0.0094 0.2181
C25 C -1.5048(11) 0.1331(10) 0.1457(7)
H16 H -1.6149 0.1120 0.1403
C26 C -1.4060(10) 0.2397(9) 0.1072(6)
H17 H -1.4504 0.2914 0.0779
C27 C -1.2404(9) 0.2688(7) 0.1126(5)
C28 C -1.1406(9) 0.3778(7) 0.0687(5)
S1A S -1.1910(2) -0.41073(16) 0.56169(12)
S2A S -1.3568(2) -0.59556(16) 0.55459(11)
S3A S -0.0753(2) -0.13233(17) 0.73191(11)
S4A S -0.0376(2) -0.23456(17) 0.82889(11)
O1A O -0.7004(6) -0.1257(4) 0.5620(3)
O2A O -0.9645(6) -0.1807(4) 0.5396(3)
O3A O -1.5826(5) -0.8378(4) 0.5376(3)
O4A O -1.8122(5) -0.8703(5) 0.5982(3)
O5A O -0.3611(6) 0.0613(5) 0.6300(3)
O6A O -0.1614(5) -0.0096(5) 0.6027(3)
O7A O -0.0043(6) -0.4002(5) 0.9346(3)
O8A O 0.2133(7) -0.4478(6) 0.9685(4)
H1A H 0.1504 -0.5002 0.9961
C1A C -0.8405(8) -0.2028(6) 0.5656(4)
C2A C -0.8636(8) -0.3267(7) 0.6063(4)
C3A C -0.7268(8) -0.3405(7) 0.6457(4)
H2A H -0.6291 -0.2729 0.6470
C4A C -0.7356(9) -0.4535(8) 0.6828(5)
H3A H -0.6447 -0.4614 0.7093
C5A C -0.8809(10) -0.5544(8) 0.6800(6)
H4A H -0.8877 -0.6313 0.7037
C6A C -1.0152(8) -0.5406(7) 0.6422(5)
H5A H -1.1124 -0.6088 0.6414
C7A C -1.0102(8) -0.4279(6) 0.6052(5)
C8A C -1.4330(8) -0.6134(7) 0.6579(4)
C9A C -1.3539(8) -0.5266(7) 0.7305(5)
H6A H -1.2602 -0.4576 0.7247
C10A C -1.4141(8) -0.5432(7) 0.8095(5)
H7A H -1.3587 -0.4863 0.8566
C11A C -1.5565(9) -0.6436(7) 0.8208(5)
H8A H -1.5959 -0.6537 0.8747
C12A C -1.6374(8) -0.7273(7) 0.7506(5)
H9A H -1.7337 -0.7933 0.7570
C13A C -1.5764(8) -0.7145(6) 0.6693(4)
C14A C -1.6638(8) -0.8136(6) 0.5969(4)
C15A C -0.2355(8) 0.0410(6) 0.6525(4)
C16A C -0.1660(8) 0.0848(7) 0.7423(4)
C17A C -0.1816(9) 0.1966(7) 0.7835(4)
H10A H -0.2415 0.2393 0.7565
C18A C -0.1075(10) 0.2445(7) 0.8652(5)
H11A H -0.1132 0.3215 0.8917
C19A C -0.0248(10) 0.1765(8) 0.9069(5)
H12A H 0.0223 0.2069 0.9621
C20A C -0.0123(8) 0.0638(7) 0.8667(4)
H13A H 0.0428 0.0190 0.8954
C21A C -0.0806(8) 0.0165(7) 0.7842(4)
C22A C 0.1747(8) -0.1921(7) 0.8400(4)
C23A C 0.2749(9) -0.0887(7) 0.8018(5)
H14A H 0.2321 -0.0375 0.7711
C24A C 0.4392(10) -0.0601(8) 0.8086(6)
H15A H 0.5049 0.0094 0.7819
C25A C 0.5048(11) -0.1331(10) 0.8543(7)
H16A H 0.6149 -0.1120 0.8597
C26A C 0.4060(10) -0.2397(9) 0.8928(6)
H17A H 0.4504 -0.2914 0.9221
C27A C 0.2404(9) -0.2688(7) 0.8874(5)
C28A C 0.1406(9) -0.3778(7) 0.9313(5)
Yb1_2 Yb -2.0000 -1.0000 0.5000
Yb1_3 Yb -1.0000 0.0000 0.5000
Yb1_4 Yb 1.0000 1.0000 0.5000
Yb2_2 Yb -1.5000 -1.0000 0.5000
Yb2_3 Yb 0.5000 1.0000 0.5000
O2A_2 O 0.0355(6) -0.1807(4) 0.5396(3)
O3_2 O -0.4174(5) -0.1622(4) 0.4624(3)
O3A_2 O -0.5826(5) 0.1622(4) 0.5376(3)
O4_2 O -0.1878(5) -0.1297(5) 0.4018(3)
O4A_2 O 0.1878(5) 0.1297(5) 0.5982(3)
O6_2 O 0.1614(5) 0.0096(5) 0.3973(3)
loop_
_geom_bond_atom_site_label_1
_geom_bond_atom_site_label_2
_geom_bond_site_symmetry_1
_geom_bond_site_symmetry_2
Yb1 O2 1_555 1_555
Yb2 O1 1_555 1_555
S1 S2 1_555 1_555
S2 C8 1_555 1_555
S3 S4 1_555 1_555
S4 C22 1_555 1_555
O1 C1 1_555 1_555
O2 C1 1_555 1_555
O3 C14 1_555 1_555
O4 C14 1_555 1_555
O5 Yb2 1_555 1_555
O6 C15 1_555 1_555
O7 C28 1_555 1_555
O8 H1 1_555 1_555
C1 C2 1_555 1_555
C2 C3 1_555 1_555
C3 H2 1_555 1_555
C4 C3 1_555 1_555
H3 C4 1_555 1_555
C5 C4 1_555 1_555
H4 C5 1_555 1_555
C6 C5 1_555 1_555
H5 C6 1_555 1_555
C7 S1 1_555 1_555
C8 C9 1_555 1_555
C9 H6 1_555 1_555
C10 C9 1_555 1_555
H7 C10 1_555 1_555
C11 C10 1_555 1_555
H8 C11 1_555 1_555
C12 C11 1_555 1_555
H9 C12 1_555 1_555
C13 C8 1_555 1_555
C14 C13 1_555 1_555
C15 O5 1_555 1_555
C16 C15 1_555 1_555
C17 C16 1_555 1_555
H10 C17 1_555 1_555
C18 C17 1_555 1_555
H11 C18 1_555 1_555
C19 C18 1_555 1_555
H12 C19 1_555 1_555
C20 C19 1_555 1_555
H13 C20 1_555 1_555
C21 S3 1_555 1_555
C22 C23 1_555 1_555
C23 H14 1_555 1_555
C24 C23 1_555 1_555
H15 C24 1_555 1_555
C25 C24 1_555 1_555
H16 C25 1_555 1_555
C26 C25 1_555 1_555
H17 C26 1_555 1_555
C27 C22 1_555 1_555
C28 O8 1_555 1_555
S1A S2A 1_555 1_555
S2A C8A 1_555 1_555
S3A S4A 1_555 1_555
S4A C22A 1_555 1_555
O1A Yb2 1_555 1_555
O2A C1A 1_555 1_555
O3A C14A 1_555 1_555
O4A C14A 1_555 1_555
O5A Yb2 1_555 1_555
O6A Yb1 1_555 1_555
O7A C28A 1_555 1_555
O8A H1A 1_555 1_555
C1A O1A 1_555 1_555
C2A C1A 1_555 1_555
C3A C2A 1_555 1_555
H2A C3A 1_555 1_555
C4A C3A 1_555 1_555
H3A C4A 1_555 1_555
C5A C4A 1_555 1_555
H4A C5A 1_555 1_555
C6A C5A 1_555 1_555
H5A C6A 1_555 1_555
C7A S1A 1_555 1_555
C8A C9A 1_555 1_555
C9A H6A 1_555 1_555
C10A C9A 1_555 1_555
H7A C10A 1_555 1_555
C11A C10A 1_555 1_555
H8A C11A 1_555 1_555
C12A C11A 1_555 1_555
H9A C12A 1_555 1_555
C13A C8A 1_555 1_555
C14A C13A 1_555 1_555
C15A O5A 1_555 1_555
C16A C15A 1_555 1_555
C17A C16A 1_555 1_555
H10A C17A 1_555 1_555
C18A C17A 1_555 1_555
H11A C18A 1_555 1_555
C19A C18A 1_555 1_555
H12A C19A 1_555 1_555
C20A C19A 1_555 1_555
H13A C20A 1_555 1_555
C21A S3A 1_555 1_555
C22A C23A 1_555 1_555
C23A H14A 1_555 1_555
C24A C23A 1_555 1_555
H15A C24A 1_555 1_555
C25A C24A 1_555 1_555
H16A C25A 1_555 1_555
C26A C25A 1_555 1_555
H17A C26A 1_555 1_555
C27A C22A 1_555 1_555
C28A O8A 1_555 1_555
Yb1_2 O4A 1_555 1_555
Yb1_3 O6 1_555 1_555
Yb1_4 O4 1_555 1_555
Yb2_2 O3A 1_555 1_555
Yb2_3 O3 1_555 1_555
O2A_2 Yb1 1_555 1_555
O3_2 Yb2 1_555 1_555
O3A_2 Yb2 1_555 1_555
O4_2 Yb1 1_555 1_555
O4A_2 Yb1 1_555 1_555
O6_2 Yb1 1_555 1_555
C2 C7 1_555 1_555
C6 C7 1_555 1_555
C12 C13 1_555 1_555
C16 C21 1_555 1_555
C20 C21 1_555 1_555
C26 C27 1_555 1_555
C27 C28 1_555 1_555
O2A Yb1_3 1_555 1_555
O6A C15A 1_555 1_555
C2A C7A 1_555 1_555
C6A C7A 1_555 1_555
C12A C13A 1_555 1_555
C16A C21A 1_555 1_555
C20A C21A 1_555 1_555
C26A C27A 1_555 1_555
C27A C28A 1_555 1_555

#END
