
#######################################################################
#
#                 Cambridge Crystallographic Data Centre
#                                CCDC 
#
#######################################################################
#
# If this CIF has been generated from an entry in the Cambridge 
# Structural Database, then it will include bibliographic, chemical, 
# crystal, experimental, refinement or atomic coordinate data resulting 
# from the CCDC's data processing and validation procedures.
#
#######################################################################

data_NULZIF
_symmetry_cell_setting           monoclinic
_symmetry_space_group_name_H-M   'C 2/c'
_symmetry_Int_Tables_number      15
_space_group_name_Hall           '-C 2yn'
loop_
_symmetry_equiv_pos_site_id
_symmetry_equiv_pos_as_xyz
1 x,y,z
2 -x,y,1/2-z
3 1/2+x,1/2+y,z
4 1/2-x,1/2+y,1/2-z
5 -x,-y,-z
6 x,-y,1/2+z
7 1/2-x,1/2-y,-z
8 1/2+x,1/2-y,1/2+z
_cell_length_a                   19.641(4)
_cell_length_b                   11.347(2)
_cell_length_c                   23.770(5)
_cell_angle_alpha                90
_cell_angle_beta                 92.22(3)
_cell_angle_gamma                90
_cell_volume                     5293.56
loop_
_atom_site_label
_atom_site_type_symbol
_atom_site_fract_x
_atom_site_fract_y
_atom_site_fract_z
Sm1 Sm 0.090452(11) 0.00819(2) 0.042644(9)
S1 S 0.10342(7) 0.13631(12) 0.24743(5)
S2 S 0.11085(7) 0.14587(11) 0.33321(5)
S3 S -0.00288(6) 0.10771(10) -0.20716(5)
O1 O 0.1072(2) 0.0874(3) 0.13742(14)
O2 O 0.14234(18) 0.2025(3) 0.07072(14)
O3 O 0.12147(16) 0.1619(3) 0.46209(14)
O4 O 0.01488(15) 0.1147(3) 0.47395(13)
O5 O 0.09600(16) 0.1045(3) -0.04477(13)
O6 O -0.00468(16) 0.0959(3) -0.09203(13)
N1 N 0.2196(2) -0.0057(4) 0.03040(17)
N2 N 0.3139(2) -0.1096(5) 0.0291(2)
H1 H 0.3424 -0.1664 0.0347
N3 N 0.1480(2) -0.1745(4) 0.08770(17)
N4 N 0.2352(3) -0.2962(4) 0.0974(2)
H2 H 0.2753 -0.3253 0.0944
C1 C 0.1391(2) 0.1772(4) 0.1220(2)
C2 C 0.1755(2) 0.2514(4) 0.1661(2)
C3 C 0.2243(3) 0.3319(4) 0.1488(2)
H3 H 0.2304 0.3425 0.1106
C4 C 0.2637(3) 0.3961(5) 0.1871(2)
H4 H 0.2965 0.4480 0.1746
C5 C 0.2541(3) 0.3831(5) 0.2434(3)
H5 H 0.2805 0.4261 0.2694
C6 C 0.2053(3) 0.3062(5) 0.2616(2)
H6 H 0.1983 0.2996 0.3000
C7 C 0.1665(2) 0.2387(4) 0.2240(2)
C8 C 0.0594(2) 0.2667(4) 0.3535(2)
C9 C 0.0392(3) 0.3571(5) 0.3174(2)
H7 H 0.0531 0.3571 0.2804
C10 C -0.0014(3) 0.4468(5) 0.3360(3)
H8 H -0.0137 0.5082 0.3118
C11 C -0.0237(3) 0.4465(5) 0.3900(3)
H9 H -0.0517 0.5068 0.4019
C12 C -0.0046(3) 0.3566(5) 0.4266(2)
H10 H -0.0197 0.3565 0.4632
C13 C 0.0369(2) 0.2670(4) 0.40855(19)
C14 C 0.0594(2) 0.1745(4) 0.45001(18)
C15 C 0.0556(2) 0.1330(4) -0.08489(18)
C16 C 0.0815(2) 0.2160(4) -0.12768(19)
C17 C 0.1303(3) 0.2988(4) -0.1097(2)
H11 H 0.1454 0.2999 -0.0721
C18 C 0.1564(3) 0.3790(5) -0.1468(2)
H12 H 0.1881 0.4347 -0.1342
C19 C 0.1351(3) 0.3761(5) -0.2025(2)
H13 H 0.1531 0.4293 -0.2277
C20 C 0.0874(3) 0.2952(4) -0.2211(2)
H14 H 0.0737 0.2939 -0.2590
C21 C 0.0592(2) 0.2150(4) -0.18435(18)
C22 C 0.2677(3) 0.0570(5) 0.0028(2)
H15 H 0.2612 0.1317 -0.0126
C23 C 0.3260(3) -0.0058(6) 0.0015(3)
H16 H 0.3662 0.0167 -0.0149
C24 C 0.2492(2) -0.1059(5) 0.0457(2)
C25 C 0.2128(3) -0.1925(4) 0.0767(2)
C26 C 0.1823(4) -0.3467(5) 0.1242(3)
H17 H 0.1828 -0.4186 0.1430
C27 C 0.1291(3) -0.2720(5) 0.1181(2)
H18 H 0.0862 -0.2843 0.1322
S3A S 0.00288(6) 0.10771(10) -0.29284(5)
O5A O -0.09600(16) 0.1045(3) -0.45523(13)
O6A O 0.00468(16) 0.0959(3) -0.40797(13)
C15A C -0.0556(2) 0.1330(4) -0.41511(18)
C16A C -0.0815(2) 0.2160(4) -0.37232(19)
C17A C -0.1303(3) 0.2988(4) -0.3903(2)
H11A H -0.1454 0.2999 -0.4279
C18A C -0.1564(3) 0.3790(5) -0.3532(2)
H12A H -0.1881 0.4347 -0.3658
C19A C -0.1351(3) 0.3761(5) -0.2975(2)
H13A H -0.1531 0.4293 -0.2723
C20A C -0.0874(3) 0.2952(4) -0.2789(2)
H14A H -0.0737 0.2939 -0.2410
C21A C -0.0592(2) 0.2150(4) -0.31565(18)
Sm1A Sm -0.090452(11) 0.00819(2) -0.542644(9)
S1A S -0.10342(7) 0.13631(12) -0.74743(5)
S2A S -0.11085(7) 0.14587(11) -0.83321(5)
O1A O -0.1072(2) 0.0874(3) -0.63742(14)
O2A O -0.14234(18) 0.2025(3) -0.57072(14)
O3A O -0.12147(16) 0.1619(3) -0.96209(14)
O4A O -0.01488(15) 0.1147(3) -0.97395(13)
N1A N -0.2196(2) -0.0057(4) -0.53040(17)
N2A N -0.3139(2) -0.1096(5) -0.5291(2)
H1A H -0.3424 -0.1664 -0.5347
N3A N -0.1480(2) -0.1745(4) -0.58770(17)
N4A N -0.2352(3) -0.2962(4) -0.5974(2)
H2A H -0.2753 -0.3253 -0.5944
C1A C -0.1391(2) 0.1772(4) -0.6220(2)
C2A C -0.1755(2) 0.2514(4) -0.6661(2)
C3A C -0.2243(3) 0.3319(4) -0.6488(2)
H3A H -0.2304 0.3425 -0.6106
C4A C -0.2637(3) 0.3961(5) -0.6871(2)
H4A H -0.2965 0.4480 -0.6746
C5A C -0.2541(3) 0.3831(5) -0.7434(3)
H5A H -0.2805 0.4261 -0.7694
C6A C -0.2053(3) 0.3062(5) -0.7616(2)
H6A H -0.1983 0.2996 -0.8000
C7A C -0.1665(2) 0.2387(4) -0.7240(2)
C8A C -0.0594(2) 0.2667(4) -0.8535(2)
C9A C -0.0392(3) 0.3571(5) -0.8174(2)
H7A H -0.0531 0.3571 -0.7804
C10A C 0.0014(3) 0.4468(5) -0.8360(3)
H8A H 0.0137 0.5082 -0.8118
C11A C 0.0237(3) 0.4465(5) -0.8900(3)
H9A H 0.0517 0.5068 -0.9019
C12A C 0.0046(3) 0.3566(5) -0.9266(2)
H10A H 0.0197 0.3565 -0.9632
C13A C -0.0369(2) 0.2670(4) -0.90855(19)
C14A C -0.0594(2) 0.1745(4) -0.95001(18)
C22A C -0.2677(3) 0.0570(5) -0.5028(2)
H15A H -0.2612 0.1317 -0.4874
C23A C -0.3260(3) -0.0058(6) -0.5015(3)
H16A H -0.3662 0.0167 -0.4851
C24A C -0.2492(2) -0.1059(5) -0.5457(2)
C25A C -0.2128(3) -0.1925(4) -0.5767(2)
C26A C -0.1823(4) -0.3467(5) -0.6242(3)
H17A H -0.1828 -0.4186 -0.6430
C27A C -0.1291(3) -0.2720(5) -0.6181(2)
H18A H -0.0862 -0.2843 -0.6322
Sm1_2 Sm 0.090452(11) 0.00819(2) -0.957356(9)
Sm1A_2 Sm -0.090452(11) 0.00819(2) 0.457356(9)
Sm1D Sm -0.090452(11) -0.00819(2) -1.042644(9)
Sm1D_2 Sm -0.090452(11) -0.00819(2) -0.042644(9)
Sm1E Sm 0.090452(11) -0.00819(2) -0.457356(9)
Sm1E_2 Sm 0.090452(11) -0.00819(2) 0.542644(9)
O3D O -0.12147(16) -0.1619(3) -0.46209(14)
O3E O 0.12147(16) -0.1619(3) -0.03791(14)
O4_2 O 0.01488(15) 0.1147(3) -0.52605(13)
O4A_2 O -0.01488(15) 0.1147(3) 0.02605(13)
O4D O -0.01488(15) -0.1147(3) -0.47395(13)
O4E O 0.01488(15) -0.1147(3) -0.02605(13)
O6D O 0.00468(16) -0.0959(3) 0.09203(13)
O6E O -0.00468(16) -0.0959(3) -0.59203(13)
loop_
_geom_bond_atom_site_label_1
_geom_bond_atom_site_label_2
_geom_bond_site_symmetry_1
_geom_bond_site_symmetry_2
Sm1 O1 1_555 1_555
S1 S2 1_555 1_555
S2 C8 1_555 1_555
S3 C21 1_555 1_555
O1 C1 1_555 1_555
O2 Sm1 1_555 1_555
O3 C14 1_555 1_555
O4 C14 1_555 1_555
O5 Sm1 1_555 1_555
O6 C15 1_555 1_555
N1 Sm1 1_555 1_555
N2 H1 1_555 1_555
N3 Sm1 1_555 1_555
N4 H2 1_555 1_555
C1 O2 1_555 1_555
C2 C1 1_555 1_555
C3 C2 1_555 1_555
H3 C3 1_555 1_555
C4 C3 1_555 1_555
H4 C4 1_555 1_555
C5 C4 1_555 1_555
H5 C5 1_555 1_555
C6 C5 1_555 1_555
H6 C6 1_555 1_555
C7 S1 1_555 1_555
C8 C9 1_555 1_555
C9 H7 1_555 1_555
C10 C9 1_555 1_555
H8 C10 1_555 1_555
C11 C10 1_555 1_555
H9 C11 1_555 1_555
C12 C11 1_555 1_555
H10 C12 1_555 1_555
C13 C8 1_555 1_555
C14 C13 1_555 1_555
C15 O5 1_555 1_555
C16 C15 1_555 1_555
C17 C16 1_555 1_555
H11 C17 1_555 1_555
C18 C17 1_555 1_555
H12 C18 1_555 1_555
C19 C18 1_555 1_555
H13 C19 1_555 1_555
C20 C19 1_555 1_555
H14 C20 1_555 1_555
C21 C16 1_555 1_555
C22 N1 1_555 1_555
H15 C22 1_555 1_555
C23 N2 1_555 1_555
H16 C23 1_555 1_555
C24 N1 1_555 1_555
C25 N3 1_555 1_555
C26 N4 1_555 1_555
H17 C26 1_555 1_555
C27 N3 1_555 1_555
H18 C27 1_555 1_555
S3A S3 1_555 1_555
O5A C15A 1_555 1_555
O6A C15A 1_555 1_555
C15A C16A 1_555 1_555
C16A C17A 1_555 1_555
C17A H11A 1_555 1_555
C18A C17A 1_555 1_555
H12A C18A 1_555 1_555
C19A C18A 1_555 1_555
H13A C19A 1_555 1_555
C20A C19A 1_555 1_555
H14A C20A 1_555 1_555
C21A S3A 1_555 1_555
Sm1A O5A 1_555 1_555
S1A S2A 1_555 1_555
S2A C8A 1_555 1_555
O1A Sm1A 1_555 1_555
O2A Sm1A 1_555 1_555
O3A C14A 1_555 1_555
O4A C14A 1_555 1_555
N1A Sm1A 1_555 1_555
N2A H1A 1_555 1_555
N3A Sm1A 1_555 1_555
N4A H2A 1_555 1_555
C1A O1A 1_555 1_555
C2A C1A 1_555 1_555
C3A C2A 1_555 1_555
H3A C3A 1_555 1_555
C4A C3A 1_555 1_555
H4A C4A 1_555 1_555
C5A C4A 1_555 1_555
H5A C5A 1_555 1_555
C6A C5A 1_555 1_555
H6A C6A 1_555 1_555
C7A S1A 1_555 1_555
C8A C9A 1_555 1_555
C9A H7A 1_555 1_555
C10A C9A 1_555 1_555
H8A C10A 1_555 1_555
C11A C10A 1_555 1_555
H9A C11A 1_555 1_555
C12A C11A 1_555 1_555
H10A C12A 1_555 1_555
C13A C8A 1_555 1_555
C14A C13A 1_555 1_555
C22A N1A 1_555 1_555
H15A C22A 1_555 1_555
C23A N2A 1_555 1_555
H16A C23A 1_555 1_555
C24A N1A 1_555 1_555
C25A N3A 1_555 1_555
C26A N4A 1_555 1_555
H17A C26A 1_555 1_555
C27A N3A 1_555 1_555
H18A C27A 1_555 1_555
Sm1_2 O4A 1_555 1_555
Sm1A_2 O4 1_555 1_555
Sm1D O3A 1_555 1_555
Sm1D_2 O6 1_555 1_555
Sm1E O6A 1_555 1_555
Sm1E_2 O3 1_555 1_555
O3D Sm1A 1_555 1_555
O3E Sm1 1_555 1_555
O4_2 Sm1A 1_555 1_555
O4A_2 Sm1 1_555 1_555
O4D Sm1A 1_555 1_555
O4E Sm1 1_555 1_555
O6D Sm1 1_555 1_555
O6E Sm1A 1_555 1_555
O4 Sm1E_2 1_555 1_555
N2 C24 1_555 1_555
N4 C25 1_555 1_555
C2 C7 1_555 1_555
C6 C7 1_555 1_555
C12 C13 1_555 1_555
C20 C21 1_555 1_555
C22 C23 1_555 1_555
C24 C25 1_555 1_555
C26 C27 1_555 1_555
C16A C21A 1_555 1_555
C20A C21A 1_555 1_555
O2A C1A 1_555 1_555
O4A Sm1D 1_555 1_555
N2A C24A 1_555 1_555
N4A C25A 1_555 1_555
C2A C7A 1_555 1_555
C6A C7A 1_555 1_555
C12A C13A 1_555 1_555
C22A C23A 1_555 1_555
C24A C25A 1_555 1_555
C26A C27A 1_555 1_555
Sm1D_2 O4A_2 1_555 1_555
Sm1D_2 O4E 1_555 1_555
Sm1E O4_2 1_555 1_555
Sm1E O4D 1_555 1_555

#END
