
#######################################################################
#
#                 Cambridge Crystallographic Data Centre
#                                CCDC 
#
#######################################################################
#
# If this CIF has been generated from an entry in the Cambridge 
# Structural Database, then it will include bibliographic, chemical, 
# crystal, experimental, refinement or atomic coordinate data resulting 
# from the CCDC's data processing and validation procedures.
#
#######################################################################

data_NULZEB
_symmetry_cell_setting           monoclinic
_symmetry_space_group_name_H-M   'C 2/c'
_symmetry_Int_Tables_number      15
_space_group_name_Hall           '-C 2yn'
loop_
_symmetry_equiv_pos_site_id
_symmetry_equiv_pos_as_xyz
1 x,y,z
2 -x,y,1/2-z
3 1/2+x,1/2+y,z
4 1/2-x,1/2+y,1/2-z
5 -x,-y,-z
6 x,-y,1/2+z
7 1/2-x,1/2-y,-z
8 1/2+x,1/2-y,1/2+z
_cell_length_a                   19.714(7)
_cell_length_b                   11.312(4)
_cell_length_c                   23.775(10)
_cell_angle_alpha                90
_cell_angle_beta                 91.97(2)
_cell_angle_gamma                90
_cell_volume                     5298.8
loop_
_atom_site_label
_atom_site_type_symbol
_atom_site_fract_x
_atom_site_fract_y
_atom_site_fract_z
Pr1 Pr 0.09117(2) 0.50871(5) 0.04257(2)
S1 S 0.00297(13) 0.3910(2) 0.20718(11)
S2 S 0.11104(14) 0.3541(2) -0.16723(12)
S3 S 0.10395(14) 0.3630(3) -0.25220(12)
O1 O -0.0953(3) 0.3943(6) 0.0453(3)
O2 O 0.0049(3) 0.4026(7) 0.0924(3)
O3 O 0.1216(3) 0.3388(7) -0.0389(3)
O4 O 0.0147(3) 0.3843(6) -0.0264(3)
O5 O 0.1437(3) 0.2958(7) -0.4281(3)
O6 O 0.1066(4) 0.4092(7) -0.3626(3)
N1 N 0.2206(4) 0.4939(7) 0.0301(4)
N2 N 0.3146(5) 0.3900(11) 0.0294(5)
H1 H 0.3439 0.3327 0.0361
N3 N 0.2356(6) 0.2021(9) 0.0972(5)
H2 H 0.2760 0.1711 0.0928
N4 N 0.1494(5) 0.3247(8) 0.0877(4)
C1 C -0.0544(5) 0.3671(9) 0.0856(4)
C2 C -0.0801(5) 0.2818(9) 0.1280(5)
C3 C -0.1291(5) 0.1987(10) 0.1113(5)
H3 H -0.1443 0.1961 0.0730
C4 C -0.1563(6) 0.1195(9) 0.1492(5)
H4 H -0.1901 0.0644 0.1369
C5 C -0.1342(6) 0.1215(9) 0.2043(6)
H5 H -0.1513 0.0659 0.2303
C6 C -0.0873(6) 0.2042(10) 0.2219(5)
H6 H -0.0741 0.2082 0.2606
C7 C -0.0585(5) 0.2829(9) 0.1840(4)
C8 C 0.0587(5) 0.3258(9) -0.0494(4)
C9 C 0.0381(5) 0.2318(8) -0.0920(5)
C10 C 0.0589(4) 0.2330(10) -0.1463(5)
C11 C 0.0394(5) 0.1452(10) -0.1831(5)
H7 H 0.0540 0.1456 -0.2208
C12 C -0.0025(7) 0.0546(11) -0.1639(7)
H8 H -0.0165 -0.0064 -0.1892
C13 C -0.0238(7) 0.0517(13) -0.1104(8)
H9 H -0.0513 -0.0114 -0.0978
C14 C -0.0048(6) 0.1411(10) -0.0749(5)
H10 H -0.0211 0.1420 -0.0378
C15 C 0.1665(5) 0.2608(9) -0.2763(5)
C16 C 0.2052(5) 0.1937(11) -0.2382(5)
H11 H 0.1975 0.2009 -0.1991
C17 C 0.2548(6) 0.1164(10) -0.2560(6)
H12 H 0.2817 0.0727 -0.2294
C18 C 0.2643(6) 0.1041(10) -0.3128(6)
H13 H 0.2984 0.0523 -0.3257
C19 C 0.2247(5) 0.1663(10) -0.3509(5)
H14 H 0.2306 0.1534 -0.3899
C20 C 0.1762(5) 0.2481(9) -0.3346(5)
C21 C 0.1391(5) 0.3201(10) -0.3766(5)
C22 C 0.3259(7) 0.4927(14) 0.0014(7)
H15 H 0.3665 0.5145 -0.0163
C23 C 0.2690(6) 0.5572(12) 0.0034(6)
H16 H 0.2632 0.6347 -0.0114
C24 C 0.2509(5) 0.3936(10) 0.0447(5)
C25 C 0.2141(5) 0.3067(10) 0.0770(5)
C26 C 0.1845(8) 0.1521(13) 0.1256(6)
H17 H 0.1856 0.0793 0.1455
C27 C 0.1315(6) 0.2279(10) 0.1196(6)
H18 H 0.0882 0.2163 0.1351
S1A S -0.00297(13) 0.3910(2) 0.29282(11)
O1A O 0.0953(3) 0.3943(6) 0.4547(3)
O2A O -0.0049(3) 0.4026(7) 0.4076(3)
C1A C 0.0544(5) 0.3671(9) 0.4144(4)
C2A C 0.0801(5) 0.2818(9) 0.3720(5)
C3A C 0.1291(5) 0.1987(10) 0.3887(5)
H3A H 0.1443 0.1961 0.4270
C4A C 0.1563(6) 0.1195(9) 0.3508(5)
H4A H 0.1901 0.0644 0.3631
C5A C 0.1342(6) 0.1215(9) 0.2957(6)
H5A H 0.1513 0.0659 0.2697
C6A C 0.0873(6) 0.2042(10) 0.2781(5)
H6A H 0.0741 0.2082 0.2394
C7A C 0.0585(5) 0.2829(9) 0.3160(4)
Pr1A Pr -0.09117(2) 0.50871(5) 0.45743(2)
S2A S -0.11104(14) 0.3541(2) 0.66723(12)
S3A S -0.10395(14) 0.3630(3) 0.75220(12)
O3A O -0.1216(3) 0.3388(7) 0.5389(3)
O4A O -0.0147(3) 0.3843(6) 0.5264(3)
O5A O -0.1437(3) 0.2958(7) 0.9281(3)
O6A O -0.1066(4) 0.4092(7) 0.8626(3)
N1A N -0.2206(4) 0.4939(7) 0.4699(4)
N2A N -0.3146(5) 0.3900(11) 0.4706(5)
H1A H -0.3439 0.3327 0.4639
N3A N -0.2356(6) 0.2021(9) 0.4028(5)
H2A H -0.2760 0.1711 0.4072
N4A N -0.1494(5) 0.3247(8) 0.4123(4)
C8A C -0.0587(5) 0.3258(9) 0.5494(4)
C9A C -0.0381(5) 0.2318(8) 0.5920(5)
C10A C -0.0589(4) 0.2330(10) 0.6463(5)
C11A C -0.0394(5) 0.1452(10) 0.6831(5)
H7A H -0.0540 0.1456 0.7208
C12A C 0.0025(7) 0.0546(11) 0.6639(7)
H8A H 0.0165 -0.0064 0.6892
C13A C 0.0238(7) 0.0517(13) 0.6104(8)
H9A H 0.0513 -0.0114 0.5978
C14A C 0.0048(6) 0.1411(10) 0.5749(5)
H10A H 0.0211 0.1420 0.5378
C15A C -0.1665(5) 0.2608(9) 0.7763(5)
C16A C -0.2052(5) 0.1937(11) 0.7382(5)
H11A H -0.1975 0.2009 0.6991
C17A C -0.2548(6) 0.1164(10) 0.7560(6)
H12A H -0.2817 0.0727 0.7294
C18A C -0.2643(6) 0.1041(10) 0.8128(6)
H13A H -0.2984 0.0523 0.8257
C19A C -0.2247(5) 0.1663(10) 0.8509(5)
H14A H -0.2306 0.1534 0.8899
C20A C -0.1762(5) 0.2481(9) 0.8346(5)
C21A C -0.1391(5) 0.3201(10) 0.8766(5)
C22A C -0.3259(7) 0.4927(14) 0.4986(7)
H15A H -0.3665 0.5145 0.5163
C23A C -0.2690(6) 0.5572(12) 0.4966(6)
H16A H -0.2632 0.6347 0.5114
C24A C -0.2509(5) 0.3936(10) 0.4553(5)
C25A C -0.2141(5) 0.3067(10) 0.4230(5)
C26A C -0.1845(8) 0.1521(13) 0.3744(6)
H17A H -0.1856 0.0793 0.3545
C27A C -0.1315(6) 0.2279(10) 0.3804(6)
H18A H -0.0882 0.2163 0.3649
Pr1D Pr -0.09117(2) 0.49129(5) -0.04257(2)
Pr1D_2 Pr -0.09117(2) 0.49129(5) 0.95743(2)
Pr1E Pr 0.09117(2) 0.49129(5) -0.45743(2)
Pr1E_2 Pr 0.09117(2) 0.49129(5) 0.54257(2)
O1D O 0.0953(3) 0.6057(6) -0.0453(3)
O1E O -0.0953(3) 0.6057(6) 0.5453(3)
O4D O -0.0147(3) 0.6157(6) 0.0264(3)
O4E O 0.0147(3) 0.6157(6) 0.4736(3)
O5D O -0.1437(3) 0.7042(7) 0.4281(3)
O5E O 0.1437(3) 0.7042(7) 0.0719(3)
O6D O -0.1066(4) 0.5908(7) 0.3626(3)
O6E O 0.1066(4) 0.5908(7) 0.1374(3)
loop_
_geom_bond_atom_site_label_1
_geom_bond_atom_site_label_2
_geom_bond_site_symmetry_1
_geom_bond_site_symmetry_2
Pr1 O2 1_555 1_555
S1 C7 1_555 1_555
S2 S3 1_555 1_555
S3 C15 1_555 1_555
O1 C1 1_555 1_555
O2 C1 1_555 1_555
O3 Pr1 1_555 1_555
O4 Pr1 1_555 1_555
O5 C21 1_555 1_555
O6 C21 1_555 1_555
N1 Pr1 1_555 1_555
N2 H1 1_555 1_555
N3 H2 1_555 1_555
N4 Pr1 1_555 1_555
C1 C2 1_555 1_555
C2 C3 1_555 1_555
C3 H3 1_555 1_555
C4 C3 1_555 1_555
H4 C4 1_555 1_555
C5 C4 1_555 1_555
H5 C5 1_555 1_555
C6 C5 1_555 1_555
H6 C6 1_555 1_555
C7 C2 1_555 1_555
C8 O3 1_555 1_555
C9 C8 1_555 1_555
C10 S2 1_555 1_555
C11 C10 1_555 1_555
H7 C11 1_555 1_555
C12 C11 1_555 1_555
H8 C12 1_555 1_555
C13 C12 1_555 1_555
H9 C13 1_555 1_555
C14 C9 1_555 1_555
H10 C14 1_555 1_555
C15 C16 1_555 1_555
C16 H11 1_555 1_555
C17 C16 1_555 1_555
H12 C17 1_555 1_555
C18 C17 1_555 1_555
H13 C18 1_555 1_555
C19 C18 1_555 1_555
H14 C19 1_555 1_555
C20 C15 1_555 1_555
C21 C20 1_555 1_555
C22 N2 1_555 1_555
H15 C22 1_555 1_555
C23 N1 1_555 1_555
H16 C23 1_555 1_555
C24 N1 1_555 1_555
C25 N3 1_555 1_555
C26 N3 1_555 1_555
H17 C26 1_555 1_555
C27 N4 1_555 1_555
H18 C27 1_555 1_555
S1A S1 1_555 1_555
O1A C1A 1_555 1_555
O2A C1A 1_555 1_555
C1A C2A 1_555 1_555
C2A C3A 1_555 1_555
C3A H3A 1_555 1_555
C4A C3A 1_555 1_555
H4A C4A 1_555 1_555
C5A C4A 1_555 1_555
H5A C5A 1_555 1_555
C6A C5A 1_555 1_555
H6A C6A 1_555 1_555
C7A S1A 1_555 1_555
Pr1A O2A 1_555 1_555
S2A S3A 1_555 1_555
S3A C15A 1_555 1_555
O3A Pr1A 1_555 1_555
O4A Pr1A 1_555 1_555
O5A C21A 1_555 1_555
O6A C21A 1_555 1_555
N1A Pr1A 1_555 1_555
N2A H1A 1_555 1_555
N3A H2A 1_555 1_555
N4A Pr1A 1_555 1_555
C8A O3A 1_555 1_555
C9A C8A 1_555 1_555
C10A S2A 1_555 1_555
C11A C10A 1_555 1_555
H7A C11A 1_555 1_555
C12A C11A 1_555 1_555
H8A C12A 1_555 1_555
C13A C12A 1_555 1_555
H9A C13A 1_555 1_555
C14A C9A 1_555 1_555
H10A C14A 1_555 1_555
C15A C16A 1_555 1_555
C16A H11A 1_555 1_555
C17A C16A 1_555 1_555
H12A C17A 1_555 1_555
C18A C17A 1_555 1_555
H13A C18A 1_555 1_555
C19A C18A 1_555 1_555
H14A C19A 1_555 1_555
C20A C15A 1_555 1_555
C21A C20A 1_555 1_555
C22A N2A 1_555 1_555
H15A C22A 1_555 1_555
C23A N1A 1_555 1_555
H16A C23A 1_555 1_555
C24A N1A 1_555 1_555
C25A N3A 1_555 1_555
C26A N3A 1_555 1_555
H17A C26A 1_555 1_555
C27A N4A 1_555 1_555
H18A C27A 1_555 1_555
Pr1D O1 1_555 1_555
Pr1D_2 O5A 1_555 1_555
Pr1E O5 1_555 1_555
Pr1E_2 O1A 1_555 1_555
O1D Pr1 1_555 1_555
O1E Pr1A 1_555 1_555
O4D Pr1 1_555 1_555
O4E Pr1A 1_555 1_555
O5D Pr1A 1_555 1_555
O5E Pr1 1_555 1_555
O6D Pr1A 1_555 1_555
O6E Pr1 1_555 1_555
O4 C8 1_555 1_555
O4 Pr1D 1_555 1_555
O6 Pr1E 1_555 1_555
N2 C24 1_555 1_555
N4 C25 1_555 1_555
C6 C7 1_555 1_555
C9 C10 1_555 1_555
C13 C14 1_555 1_555
C19 C20 1_555 1_555
C22 C23 1_555 1_555
C24 C25 1_555 1_555
C26 C27 1_555 1_555
C2A C7A 1_555 1_555
C6A C7A 1_555 1_555
O4A C8A 1_555 1_555
O4A Pr1E_2 1_555 1_555
O6A Pr1D_2 1_555 1_555
N2A C24A 1_555 1_555
N4A C25A 1_555 1_555
C9A C10A 1_555 1_555
C13A C14A 1_555 1_555
C19A C20A 1_555 1_555
C22A C23A 1_555 1_555
C24A C25A 1_555 1_555
C26A C27A 1_555 1_555
Pr1D O4D 1_555 1_555
Pr1E_2 O4E 1_555 1_555

#END
