
#######################################################################
#
#                 Cambridge Crystallographic Data Centre
#                                CCDC 
#
#######################################################################
#
# If this CIF has been generated from an entry in the Cambridge 
# Structural Database, then it will include bibliographic, chemical, 
# crystal, experimental, refinement or atomic coordinate data resulting 
# from the CCDC's data processing and validation procedures.
#
#######################################################################

data_NUMDEF
_symmetry_cell_setting           monoclinic
_symmetry_space_group_name_H-M   'C 2'
_symmetry_Int_Tables_number      5
_space_group_name_Hall           'C 2y'
loop_
_symmetry_equiv_pos_site_id
_symmetry_equiv_pos_as_xyz
1 x,y,z
2 -x,y,-z
3 1/2+x,1/2+y,z
4 1/2-x,1/2+y,-z
_cell_length_a                   20.652(3)
_cell_length_b                   6.798(1)
_cell_length_c                   9.954(1)
_cell_angle_alpha                90
_cell_angle_beta                 92.145(6)
_cell_angle_gamma                90
_cell_volume                     1396.49
loop_
_atom_site_label
_atom_site_type_symbol
_atom_site_fract_x
_atom_site_fract_y
_atom_site_fract_z
V1 V 0.7365(1) 0.8169(11) 0.9505(3)
O1 O 0.7157(2) 0.8300(4) 1.1372(6)
O2 O 0.8232(4) 0.7962(7) 1.039(1)
O3 O 0.7332(5) 1.1524(2) 1.2024(6)
O4 O 0.8470(3) 1.1689(3) 1.059(1)
O5 O 0.7544(7) 0.5662(38) 1.0189(10)
C1 C 0.7200(7) 0.940(5) 1.2318(4)
C2 C 0.6923(1) 0.8826(2) 1.363(1)
C3 C 0.6890(1) 0.6698(2) 1.402(1)
C4 C 0.6668(1) 0.6237(3) 1.507(1)
C5 C 0.6439(1) 0.768(1) 1.5925(1)
C6 C 0.6468(1) 0.959(3) 1.5574(8)
C7 C 0.6691(1) 1.005(3) 1.4523(8)
C8 C 0.870(1) 0.960(1) 1.070(2)
C9 C 0.9265(4) 0.921(1) 1.1255(5)
C10 C 0.9483(4) 0.7241(9) 1.135(1)
C11 C 1.0136(5) 0.679(1) 1.200(1)
C12 C 1.0558(5) 0.843(2) 1.2530(6)
C13 C 1.0354(4) 1.027(3) 1.244(1)
C14 C 0.9701(4) 1.072(3) 1.180(1)
V1C V 0.7635(1) 1.3169(11) 1.0495(3)
V1C_2 V 0.7635(1) 0.3169(11) 1.0495(3)
O3C O 0.7668(5) 0.6524(2) 0.7976(6)
O4C O 0.6530(3) 0.6689(3) 0.941(1)
O5C O 0.7456(7) 1.0662(38) 0.9811(10)
loop_
_geom_bond_atom_site_label_1
_geom_bond_atom_site_label_2
_geom_bond_site_symmetry_1
_geom_bond_site_symmetry_2
V1 O1 1_555 1_555
O1 C1 1_555 1_555
O2 V1 1_555 1_555
O3 C1 1_555 1_555
O4 C8 1_555 1_555
O5 V1 1_555 1_555
C1 C2 1_555 1_555
C2 C3 1_555 1_555
C3 C4 1_555 1_555
C4 C5 1_555 1_555
C5 C6 1_555 1_555
C6 C7 1_555 1_555
C7 C2 1_555 1_555
C8 O2 1_555 1_555
C9 C8 1_555 1_555
C10 C9 1_555 1_555
C11 C10 1_555 1_555
C12 C11 1_555 1_555
C13 C12 1_555 1_555
C14 C9 1_555 1_555
V1C O3 1_555 1_555
V1C_2 O5 1_555 1_555
O3C V1 1_555 1_555
O4C V1 1_555 1_555
O5C V1 1_555 1_555
O4 V1C 1_555 1_555
C13 C14 1_555 1_555
V1C O5C 1_555 1_555

#END
