
#######################################################################
#
#                 Cambridge Crystallographic Data Centre
#                                CCDC 
#
#######################################################################
#
# If this CIF has been generated from an entry in the Cambridge 
# Structural Database, then it will include bibliographic, chemical, 
# crystal, experimental, refinement or atomic coordinate data resulting 
# from the CCDC's data processing and validation procedures.
#
#######################################################################

data_NUMHUY
_symmetry_cell_setting           monoclinic
_symmetry_space_group_name_H-M   'C 2/c'
_symmetry_Int_Tables_number      15
_space_group_name_Hall           '-C 2yn'
loop_
_symmetry_equiv_pos_site_id
_symmetry_equiv_pos_as_xyz
1 x,y,z
2 -x,y,1/2-z
3 1/2+x,1/2+y,z
4 1/2-x,1/2+y,1/2-z
5 -x,-y,-z
6 x,-y,1/2+z
7 1/2-x,1/2-y,-z
8 1/2+x,1/2-y,1/2+z
_cell_length_a                   9.834(5)
_cell_length_b                   23.172(11)
_cell_length_c                   7.994(3)
_cell_angle_alpha                90
_cell_angle_beta                 105.33(3)
_cell_angle_gamma                90
_cell_volume                     1756.81
loop_
_atom_site_label
_atom_site_type_symbol
_atom_site_fract_x
_atom_site_fract_y
_atom_site_fract_z
O8 O 0.8890(3) 0.52951(13) 1.0453(4)
C3 C 1.0044(5) 0.5600(2) 1.0100(8)
C4 C 0.8650(5) 0.4765(2) 0.9495(6)
H7 H 1.0135(52) 0.5934(21) 1.0835(61)
H8 H 0.9799(52) 0.5643(21) 0.9155(67)
H9 H 0.8474(76) 0.4839(35) 0.8272(91)
H10 H 0.7965(68) 0.4589(29) 1.0181(88)
C4D C 1.1350(5) 0.5235(2) 1.0505(6)
O8D O 1.1110(3) 0.47049(13) 0.9547(4)
C3D C 0.9956(5) 0.4400(2) 0.9900(8)
H7D H 0.9865(52) 0.4066(21) 0.9165(61)
H8D H 1.0201(52) 0.4357(21) 1.0845(67)
H9D H 1.1526(76) 0.5161(35) 1.1728(91)
H10D H 1.2035(68) 0.5411(29) 0.9819(88)
Nd1 Nd 0.5000 0.63265(1) -0.2500
N1 N 0.2653(4) 0.65477(13) -0.0900(5)
O1 O 0.2426(4) 0.63482(13) -0.2412(5)
O2 O 0.3934(3) 0.65954(14) -0.0067(4)
O3 O 0.1710(4) 0.6698(2) -0.0275(6)
N2 N 0.5000 0.5036(2) -0.2500
O4 O 0.4168(3) 0.53166(10) -0.1852(3)
O5 O 0.5000 0.45001(15) -0.2500
O6 O 0.6201(3) 0.72304(11) -0.0880(3)
C1 C 0.6588(4) 0.7319(2) 0.0988(5)
C2 C 0.6831(4) 0.76796(15) -0.1680(5)
O7 O 0.6558(3) 0.59633(12) 0.0249(4)
H1 H 0.6318(46) 0.7687(19) 0.1442(53)
H2 H 0.6207(67) 0.7008(30) 0.1520(78)
H3 H 0.6403(44) 0.8029(19) -0.1444(49)
H4 H 0.6614(39) 0.7651(15) -0.2718(53)
H5 H 0.6276(80) 0.5787(33) 0.0876(95)
H6 H 0.7272(56) 0.5711(22) 0.0249(60)
O1A O 0.7574(4) 0.63482(13) -0.2588(5)
N1A N 0.7347(4) 0.65477(13) -0.4100(5)
O2A O 0.6066(3) 0.65954(14) -0.4933(4)
O4A O 0.5832(3) 0.53166(10) -0.3148(3)
C2F C 0.8169(4) 0.73204(15) 0.1680(5)
O6F O 0.8799(3) 0.77696(11) 0.0880(3)
Nd1F Nd 1.0000 0.86735(1) 0.2500
C1F C 0.8412(4) 0.7681(2) -0.0988(5)
H3F H 0.8597(44) 0.6971(19) 0.1444(49)
H4F H 0.8386(39) 0.7349(15) 0.2718(53)
O6A O 0.3799(3) 0.72304(11) -0.4120(3)
O7A O 0.3442(3) 0.59633(12) -0.5249(4)
H5A H 0.3724(80) 0.5787(33) -0.5876(95)
H6A H 0.2728(56) 0.5711(22) -0.5249(60)
O3A O 0.8290(4) 0.6698(2) -0.4725(6)
loop_
_geom_bond_atom_site_label_1
_geom_bond_atom_site_label_2
_geom_bond_site_symmetry_1
_geom_bond_site_symmetry_2
Nd1 O1 1_555 1_555
N1 O1 1_555 1_555
O2 Nd1 1_555 1_555
O3 N1 1_555 1_555
N2 O4 1_555 1_555
O4 Nd1 1_555 1_555
O5 N2 1_555 1_555
O6 Nd1 1_555 1_555
C1 O6 1_555 1_555
C2 O6 1_555 1_555
O7 Nd1 1_555 1_555
O8 C3 1_555 1_555
C3 H7 1_555 1_555
C4 O8 1_555 1_555
H1 C1 1_555 1_555
H2 C1 1_555 1_555
H3 C2 1_555 1_555
H4 C2 1_555 1_555
H5 O7 1_555 1_555
H6 O7 1_555 1_555
H8 C3 1_555 1_555
H9 C4 1_555 1_555
H10 C4 1_555 1_555
O1A Nd1 1_555 1_555
N1A O1A 1_555 1_555
O2A Nd1 1_555 1_555
O4A Nd1 1_555 1_555
C2F C1 1_555 1_555
O6F C2F 1_555 1_555
Nd1F O6F 1_555 1_555
C1F C2 1_555 1_555
H3F C2F 1_555 1_555
H4F C2F 1_555 1_555
O6A Nd1 1_555 1_555
O7A Nd1 1_555 1_555
H5A O7A 1_555 1_555
H6A O7A 1_555 1_555
O3A N1A 1_555 1_555
C4D C3 1_555 1_555
O8D C4D 1_555 1_555
C3D C4 1_555 1_555
H7D C3D 1_555 1_555
H8D C3D 1_555 1_555
H9D C4D 1_555 1_555
H10D C4D 1_555 1_555
N1 O2 1_555 1_555
N2 O4A 1_555 1_555
N1A O2A 1_555 1_555
O6F C1F 1_555 1_555
O8D C3D 1_555 1_555

#END
