
#######################################################################
#
#                 Cambridge Crystallographic Data Centre
#                                CCDC 
#
#######################################################################
#
# If this CIF has been generated from an entry in the Cambridge 
# Structural Database, then it will include bibliographic, chemical, 
# crystal, experimental, refinement or atomic coordinate data resulting 
# from the CCDC's data processing and validation procedures.
#
#######################################################################

data_NUMLIQ
_symmetry_cell_setting           monoclinic
_symmetry_space_group_name_H-M   'C 2/c'
_symmetry_Int_Tables_number      15
_space_group_name_Hall           '-C 2yn'
loop_
_symmetry_equiv_pos_site_id
_symmetry_equiv_pos_as_xyz
1 x,y,z
2 -x,y,1/2-z
3 1/2+x,1/2+y,z
4 1/2-x,1/2+y,1/2-z
5 -x,-y,-z
6 x,-y,1/2+z
7 1/2-x,1/2-y,-z
8 1/2+x,1/2-y,1/2+z
_cell_length_a                   13.526(2)
_cell_length_b                   10.981(1)
_cell_length_c                   14.513(2)
_cell_angle_alpha                90
_cell_angle_beta                 101.93(2)
_cell_angle_gamma                90
_cell_volume                     2109.04
loop_
_atom_site_label
_atom_site_type_symbol
_atom_site_fract_x
_atom_site_fract_y
_atom_site_fract_z
O1 O 0.4018(1) 0.7414(2) 0.6341(1)
O2 O 0.2604(7) 0.7167(2) 0.4221(1)
O3 O 0.7487(2) 0.9258(4) 0.6087(2)
O4 O 0.6326(2) 0.9762(4) 0.4852(2)
C1 C 0.6919(2) 0.8378(3) 0.7642(2)
C2 C 0.3172(2) 0.7842(3) 0.6427(2)
C3 C 0.5776(2) 0.8709(3) 0.6074(2)
C4 C 0.6562(2) 0.9326(3) 0.5619(2)
C5 C 0.5571(2) 0.9875(3) 0.7533(2)
C6 C 0.5906(3) 1.1022(3) 0.7089(3)
C7 C 0.5575(3) 1.2162(3) 0.7544(3)
C8 C 0.4277(2) 0.6140(3) 0.7971(2)
N1 N 0.5884(2) 0.8698(2) 0.7122(1)
N2 N 0.3832(3) 0.5417(3) 0.8288(3)
Co1 Co 0.5000 0.73821(5) 0.7500
H1 H 0.805(4) 0.954(5) 0.570(4)
H2 H 0.2500 0.75000 0.5000
H3 H 0.260(3) 0.910(3) 0.726(2)
H4 H 0.276(3) 0.776(3) 0.769(2)
H5 H 0.578(3) 0.781(4) 0.580(3)
H6 H 0.508(3) 0.907(3) 0.576(2)
H7 H 0.407(2) 0.985(3) 0.676(2)
H8 H 0.443(3) 1.103(4) 0.863(3)
H9 H 0.331(3) 1.096(4) 0.782(3)
H10 H 0.403(4) 1.219(5) 0.668(4)
H11 H 0.422(4) 1.294(5) 0.777(4)
O2F O 0.2396(7) 0.7833(2) 0.5779(1)
O1A O 0.5982(1) 0.7414(2) 0.8659(1)
C2A C 0.6828(2) 0.7842(3) 0.8573(2)
O2G O 0.7604(7) 0.7833(2) 0.9221(1)
H2G H 0.7500 0.75000 1.0000
C5A C 0.4429(2) 0.9875(3) 0.7467(2)
C7A C 0.4425(3) 1.2162(3) 0.7456(3)
C6A C 0.4094(3) 1.1022(3) 0.7911(3)
N1A N 0.4116(2) 0.8698(2) 0.7878(1)
C1A C 0.3081(2) 0.8378(3) 0.7358(2)
C3A C 0.4224(2) 0.8709(3) 0.8926(2)
C4A C 0.3438(2) 0.9326(3) 0.9381(2)
O3A O 0.2513(2) 0.9258(4) 0.8913(2)
H1A H 0.195(4) 0.954(5) 0.930(4)
O4A O 0.3674(2) 0.9762(4) 1.0148(2)
H5A H 0.422(3) 0.781(4) 0.920(3)
H6A H 0.492(3) 0.907(3) 0.924(2)
C8A C 0.5723(2) 0.6140(3) 0.7029(2)
N2A N 0.6168(3) 0.5417(3) 0.6712(3)
H10A H 0.597(4) 1.219(5) 0.832(4)
H11A H 0.578(4) 1.294(5) 0.723(4)
H8A H 0.557(3) 1.103(4) 0.637(3)
H9A H 0.669(3) 1.096(4) 0.718(3)
H7A H 0.593(2) 0.985(3) 0.824(2)
H3A H 0.740(3) 0.910(3) 0.774(2)
H4A H 0.724(3) 0.776(3) 0.731(2)
O5 O 0.3885(2) 0.5060(4) 0.0264(2)
loop_
_geom_bond_atom_site_label_1
_geom_bond_atom_site_label_2
_geom_bond_site_symmetry_1
_geom_bond_site_symmetry_2
O1 C2 1_555 1_555
O2 H2 1_555 1_555
O3 C4 1_555 1_555
O4 C4 1_555 1_555
C1 N1 1_555 1_555
C2 O2F 1_555 1_555
C3 C4 1_555 1_555
C5 C6 1_555 1_555
C6 C7 1_555 1_555
C7 C7A 1_555 1_555
C8 N2 1_555 1_555
N1 C3 1_555 1_555
Co1 O1 1_555 1_555
H1 O3 1_555 1_555
H2 O2F 1_555 1_555
H3 C1A 1_555 1_555
H4 C1A 1_555 1_555
H5 C3 1_555 1_555
H6 C3 1_555 1_555
H7 C5A 1_555 1_555
H8 C6A 1_555 1_555
H9 C6A 1_555 1_555
H10 C7A 1_555 1_555
H11 C7A 1_555 1_555
O1A Co1 1_555 1_555
C2A C1 1_555 1_555
O2G C2A 1_555 1_555
H2G O2G 1_555 1_555
C5A C5 1_555 1_555
C7A C6A 1_555 1_555
C6A C5A 1_555 1_555
N1A Co1 1_555 1_555
C1A C2 1_555 1_555
C3A N1A 1_555 1_555
C4A C3A 1_555 1_555
O3A C4A 1_555 1_555
H1A O3A 1_555 1_555
O4A C4A 1_555 1_555
H5A C3A 1_555 1_555
H6A C3A 1_555 1_555
C8A Co1 1_555 1_555
N2A C8A 1_555 1_555
H10A C7 1_555 1_555
H11A C7 1_555 1_555
H8A C6 1_555 1_555
H9A C6 1_555 1_555
H7A C5 1_555 1_555
H3A C1 1_555 1_555
H4A C1 1_555 1_555
C5 N1 1_555 1_555
C8 Co1 1_555 1_555
N1 Co1 1_555 1_555
O1A C2A 1_555 1_555
C5A N1A 1_555 1_555
N1A C1A 1_555 1_555

#END
