
#######################################################################
#
#                 Cambridge Crystallographic Data Centre
#                                CCDC 
#
#######################################################################
#
# If this CIF has been generated from an entry in the Cambridge 
# Structural Database, then it will include bibliographic, chemical, 
# crystal, experimental, refinement or atomic coordinate data resulting 
# from the CCDC's data processing and validation procedures.
#
#######################################################################

data_NUMLUD
_symmetry_cell_setting           monoclinic
_symmetry_space_group_name_H-M   'P 21/n'
_symmetry_Int_Tables_number      14
_space_group_name_Hall           '-P 2yn'
loop_
_symmetry_equiv_pos_site_id
_symmetry_equiv_pos_as_xyz
1 x,y,z
2 1/2-x,1/2+y,1/2-z
3 -x,-y,-z
4 1/2+x,1/2-y,1/2+z
_cell_length_a                   6.5603(7)
_cell_length_b                   29.053(3)
_cell_length_c                   10.6938(11)
_cell_angle_alpha                90
_cell_angle_beta                 92.3690(10)
_cell_angle_gamma                90
_cell_volume                     2036.46
loop_
_atom_site_label
_atom_site_type_symbol
_atom_site_fract_x
_atom_site_fract_y
_atom_site_fract_z
Ho1 Ho 0.740528(18) 0.421347(4) 0.538413(12)
O1 O 0.9084(3) 0.36386(7) 0.6707(2)
O2 O 0.5748(3) 0.36131(7) 0.6571(2)
O3 O 0.9208(3) 0.47441(7) 0.6823(2)
O4 O 0.5902(3) 0.46974(7) 0.6889(2)
O5 O 0.7094(4) 0.36645(8) 0.3795(2)
O6 O 0.4026(3) 0.42811(7) 0.4661(2)
O7 O 0.7424(3) 0.47838(8) 0.3884(2)
H1 H 0.848(5) 0.4918(14) 0.356(4)
H2 H 0.636(4) 0.4937(11) 0.359(3)
O8 O 0.0666(3) 0.42150(7) 0.4634(2)
C1 C 0.7570(4) 0.48797(9) 0.7300(3)
C2 C 0.7569(4) 0.52217(10) 0.8316(3)
C3 C 0.5756(5) 0.53521(11) 0.8836(3)
H3 H 0.4531 0.5240 0.8488
C4 C 0.5718(5) 0.56424(12) 0.9850(3)
H4 H 0.4473 0.5725 1.0170
C5 C 0.7518(5) 0.58139(10) 1.0404(3)
C6 C 0.9344(5) 0.56921(12) 0.9872(4)
H5 H 1.0570 0.5808 1.0209
C7 C 0.9356(5) 0.54017(12) 0.8849(3)
H6 H 1.0595 0.5325 0.8511
C8 C 0.7417(4) 0.34467(10) 0.6997(3)
C9 C 0.7428(4) 0.30395(10) 0.7827(3)
C10 C 0.5611(5) 0.28209(11) 0.8107(3)
H7 H 0.4384 0.2932 0.7761
C11 C 0.5596(5) 0.24441(10) 0.8885(3)
H8 H 0.4362 0.2301 0.9037
C12 C 0.7392(5) 0.22714(11) 0.9452(3)
C13 C 0.9235(5) 0.24946(10) 0.9172(3)
H9 H 1.0461 0.2388 0.9531
C14 C 0.9242(5) 0.28662(10) 0.8377(3)
H10 H 1.0475 0.3005 0.8202
C15 C 0.7537(8) 0.3231(2) 0.1533(5)
H11 H 0.8628 0.3348 0.2069
H12 H 0.7618 0.3365 0.0715
H13 H 0.7649 0.2903 0.1474
C16 C 0.3753(7) 0.32062(15) 0.1366(4)
H14 H 0.2595 0.3313 0.1803
H15 H 0.3714 0.2876 0.1310
H16 H 0.3718 0.3335 0.0539
C17 C 0.5573(6) 0.35629(12) 0.3100(4)
H17 H 0.4298 0.3649 0.3370
C18 C 0.2365(4) 0.42293(10) 0.5173(3)
N1 N 0.7496(4) 0.61017(10) 1.1417(3)
H18 H 0.6355 0.6180 1.1724
H19 H 0.8624 0.6204 1.1748
N2 N 0.7371(4) 0.19144(10) 1.0262(3)
H20 H 0.6233 0.1788 1.0438
H21 H 0.8496 0.1814 1.0601
N3 N 0.5626(5) 0.33488(10) 0.2042(3)
H22 H 0.248(6) 0.4191(11) 0.614(4)
Ho1_2 Ho -0.259472(18) 0.421347(4) 0.538413(12)
O8_2 O 1.0666(3) 0.42150(7) 0.4634(2)
loop_
_geom_bond_atom_site_label_1
_geom_bond_atom_site_label_2
_geom_bond_site_symmetry_1
_geom_bond_site_symmetry_2
Ho1 O1 1_555 1_555
O1 C8 1_555 1_555
O2 Ho1 1_555 1_555
O3 Ho1 1_555 1_555
O4 Ho1 1_555 1_555
O5 Ho1 1_555 1_555
O6 Ho1 1_555 1_555
O7 Ho1 1_555 1_555
H1 O7 1_555 1_555
H2 O7 1_555 1_555
O8 C18 1_555 1_555
C1 O3 1_555 1_555
C2 C1 1_555 1_555
C3 C2 1_555 1_555
H3 C3 1_555 1_555
C4 C3 1_555 1_555
H4 C4 1_555 1_555
C5 C4 1_555 1_555
C6 C5 1_555 1_555
H5 C6 1_555 1_555
C7 C2 1_555 1_555
H6 C7 1_555 1_555
C8 O2 1_555 1_555
C9 C8 1_555 1_555
C10 C9 1_555 1_555
H7 C10 1_555 1_555
C11 C10 1_555 1_555
H8 C11 1_555 1_555
C12 C11 1_555 1_555
C13 C12 1_555 1_555
H9 C13 1_555 1_555
C14 C9 1_555 1_555
H10 C14 1_555 1_555
C15 H11 1_555 1_555
H12 C15 1_555 1_555
H13 C15 1_555 1_555
C16 H14 1_555 1_555
H15 C16 1_555 1_555
H16 C16 1_555 1_555
C17 O5 1_555 1_555
H17 C17 1_555 1_555
C18 O6 1_555 1_555
N1 C5 1_555 1_555
H18 N1 1_555 1_555
H19 N1 1_555 1_555
N2 C12 1_555 1_555
H20 N2 1_555 1_555
H21 N2 1_555 1_555
N3 C15 1_555 1_555
H22 C18 1_555 1_555
Ho1_2 O8 1_555 1_555
O8_2 Ho1 1_555 1_555
O4 C1 1_555 1_555
C6 C7 1_555 1_555
C13 C14 1_555 1_555
C16 N3 1_555 1_555
C17 N3 1_555 1_555

#END
