
#######################################################################
#
#                 Cambridge Crystallographic Data Centre
#                                CCDC 
#
#######################################################################
#
# If this CIF has been generated from an entry in the Cambridge 
# Structural Database, then it will include bibliographic, chemical, 
# crystal, experimental, refinement or atomic coordinate data resulting 
# from the CCDC's data processing and validation procedures.
#
#######################################################################

data_NUMMEO
_symmetry_cell_setting           monoclinic
_symmetry_space_group_name_H-M   'P 21/n'
_symmetry_Int_Tables_number      14
_space_group_name_Hall           '-P 2yn'
loop_
_symmetry_equiv_pos_site_id
_symmetry_equiv_pos_as_xyz
1 x,y,z
2 1/2-x,1/2+y,1/2-z
3 -x,-y,-z
4 1/2+x,1/2-y,1/2+z
_cell_length_a                   6.5093(6)
_cell_length_b                   28.984(3)
_cell_length_c                   10.7074(10)
_cell_angle_alpha                90
_cell_angle_beta                 92.5130(10)
_cell_angle_gamma                90
_cell_volume                     2018.17
loop_
_atom_site_label
_atom_site_type_symbol
_atom_site_fract_x
_atom_site_fract_y
_atom_site_fract_z
Yb1 Yb 0.74128(3) 0.421070(6) 0.53818(2)
O1 O 0.9235(5) 0.47393(11) 0.6797(3)
O2 O 0.5908(5) 0.46877(11) 0.6851(3)
O3 O 0.9094(5) 0.36499(12) 0.6703(4)
O4 O 0.5750(5) 0.36193(11) 0.6541(4)
O5 O 0.7138(6) 0.36693(13) 0.3812(4)
O6 O 1.4051(5) 0.42748(11) 0.4664(3)
O7 O 0.7409(5) 0.47801(11) 0.3929(3)
H1 H 0.8594 0.4841 0.3504
H2 H 0.6224 0.4952 0.3759
O8 O 1.0648(5) 0.42133(11) 0.4648(3)
C1 C 0.7582(7) 0.48732(15) 0.7269(5)
C2 C 0.7569(7) 0.52162(16) 0.8284(5)
C3 C 0.5748(8) 0.53447(18) 0.8801(5)
H3 H 0.4515 0.5230 0.8456
C4 C 0.5705(8) 0.5637(2) 0.9812(6)
H4 H 0.4449 0.5723 1.0122
C5 C 0.7521(7) 0.58055(16) 1.0377(5)
C6 C 0.9348(8) 0.5684(2) 0.9846(6)
H5 H 1.0585 0.5799 1.0185
C7 C 0.9356(8) 0.53984(19) 0.8826(6)
H6 H 1.0606 0.5324 0.8489
C8 C 0.7421(7) 0.34549(16) 0.6986(5)
C9 C 0.7443(7) 0.30470(16) 0.7816(5)
C10 C 0.5597(8) 0.28298(17) 0.8096(5)
H7 H 0.4362 0.2944 0.7751
C11 C 0.5579(8) 0.24518(17) 0.8869(5)
H8 H 0.4334 0.2309 0.9015
C12 C 0.7376(8) 0.22779(17) 0.9437(5)
C13 C 0.9250(8) 0.25017(17) 0.9168(5)
H9 H 1.0482 0.2397 0.9539
C14 C 0.9262(7) 0.28698(17) 0.8369(5)
H10 H 1.0510 0.3005 0.8189
C15 C 0.7644(12) 0.3244(3) 0.1552(8)
H11 H 0.8731 0.3361 0.2098
H12 H 0.7723 0.3384 0.0742
H13 H 0.7783 0.2916 0.1476
C16 C 0.3807(11) 0.3201(3) 0.1373(7)
H14 H 0.2635 0.3299 0.1817
H15 H 0.3799 0.2871 0.1303
H16 H 0.3750 0.3336 0.0553
C17 C 0.5612(9) 0.3563(2) 0.3117(6)
H17 H 0.4318 0.3643 0.3382
C18 C 1.2380(7) 0.42250(15) 0.5186(5)
N1 N 0.7355(7) 0.19190(15) 1.0241(5)
H18 H 0.6208 0.1792 1.0413
H19 H 0.8489 0.1818 1.0581
N2 N 0.7483(7) 0.60894(15) 1.1404(4)
H20 H 0.8613 0.6197 1.1733
H21 H 0.6330 0.6160 1.1717
N3 N 0.5703(8) 0.33505(17) 0.2056(5)
H22 H 1.245(9) 0.4188(18) 0.611(6)
Yb1_2 Yb 1.74128(3) 0.421070(6) 0.53818(2)
O6_2 O 0.4051(5) 0.42748(11) 0.4664(3)
loop_
_geom_bond_atom_site_label_1
_geom_bond_atom_site_label_2
_geom_bond_site_symmetry_1
_geom_bond_site_symmetry_2
Yb1 O1 1_555 1_555
O1 C1 1_555 1_555
O2 Yb1 1_555 1_555
O3 Yb1 1_555 1_555
O4 Yb1 1_555 1_555
O5 Yb1 1_555 1_555
O6 C18 1_555 1_555
O7 Yb1 1_555 1_555
H1 O7 1_555 1_555
H2 O7 1_555 1_555
O8 Yb1 1_555 1_555
C1 O2 1_555 1_555
C2 C1 1_555 1_555
C3 C2 1_555 1_555
H3 C3 1_555 1_555
C4 C3 1_555 1_555
H4 C4 1_555 1_555
C5 C4 1_555 1_555
C6 C5 1_555 1_555
H5 C6 1_555 1_555
C7 C2 1_555 1_555
H6 C7 1_555 1_555
C8 O3 1_555 1_555
C9 C8 1_555 1_555
C10 C9 1_555 1_555
H7 C10 1_555 1_555
C11 C10 1_555 1_555
H8 C11 1_555 1_555
C12 C11 1_555 1_555
C13 C12 1_555 1_555
H9 C13 1_555 1_555
C14 C9 1_555 1_555
H10 C14 1_555 1_555
C15 H11 1_555 1_555
H12 C15 1_555 1_555
H13 C15 1_555 1_555
C16 H14 1_555 1_555
H15 C16 1_555 1_555
H16 C16 1_555 1_555
C17 O5 1_555 1_555
H17 C17 1_555 1_555
C18 O8 1_555 1_555
N1 C12 1_555 1_555
H18 N1 1_555 1_555
H19 N1 1_555 1_555
N2 C5 1_555 1_555
H20 N2 1_555 1_555
H21 N2 1_555 1_555
N3 C15 1_555 1_555
H22 C18 1_555 1_555
Yb1_2 O6 1_555 1_555
O6_2 Yb1 1_555 1_555
O4 C8 1_555 1_555
C6 C7 1_555 1_555
C13 C14 1_555 1_555
C16 N3 1_555 1_555
C17 N3 1_555 1_555

#END
