
#######################################################################
#
#                 Cambridge Crystallographic Data Centre
#                                CCDC 
#
#######################################################################
#
# If this CIF has been generated from an entry in the Cambridge 
# Structural Database, then it will include bibliographic, chemical, 
# crystal, experimental, refinement or atomic coordinate data resulting 
# from the CCDC's data processing and validation procedures.
#
#######################################################################

data_NUMNIT01
_symmetry_cell_setting           monoclinic
_symmetry_space_group_name_H-M   'C 2/c'
_symmetry_Int_Tables_number      15
_space_group_name_Hall           '-C 2yn'
loop_
_symmetry_equiv_pos_site_id
_symmetry_equiv_pos_as_xyz
1 x,y,z
2 -x,y,1/2-z
3 1/2+x,1/2+y,z
4 1/2-x,1/2+y,1/2-z
5 -x,-y,-z
6 x,-y,1/2+z
7 1/2-x,1/2-y,-z
8 1/2+x,1/2-y,1/2+z
_cell_length_a                   24.2997(18)
_cell_length_b                   8.9285(7)
_cell_length_c                   15.1958(12)
_cell_angle_alpha                90
_cell_angle_beta                 107.665(2)
_cell_angle_gamma                90
_cell_volume                     3141.42
loop_
_atom_site_label
_atom_site_type_symbol
_atom_site_fract_x
_atom_site_fract_y
_atom_site_fract_z
Cd1 Cd 0.134542(10) 0.15183(3) -0.029643(17)
O1 O 0.07853(11) -0.0498(3) -0.0695(2)
O2 O 0.14375(11) -0.2045(3) 0.01957(19)
O3 O 0.19002(10) 0.3601(3) -0.05397(16)
O4 O 0.14570(10) 0.2359(3) -0.18128(17)
O5 O 0.20940(10) -0.0111(3) -0.03716(16)
H1 H 0.1988 -0.0790 -0.0003
H2 H 0.2417 0.0224 -0.0006
N1 N -0.04097(12) -0.6854(3) -0.1702(2)
H3 H -0.0771 -0.6954 -0.2156
N2 N 0.04857(12) -0.7239(3) -0.0796(2)
N3 N 0.17136(12) 0.8382(3) -0.37206(19)
N4 N 0.17630(12) 0.8905(3) -0.2272(2)
H4 H 0.1763 0.9500 -0.1750
C1 C -0.00018(16) -0.7857(4) -0.1296(3)
H5 H -0.0057 -0.8887 -0.1360
C2 C 0.03830(14) -0.5699(4) -0.0879(2)
C3 C 0.07440(15) -0.4509(4) -0.0513(2)
H6 H 0.1117 -0.4679 -0.0126
C4 C 0.05438(15) -0.3066(4) -0.0728(3)
C5 C -0.00200(16) -0.2828(4) -0.1310(3)
H7 H -0.0149 -0.1850 -0.1452
C6 C -0.03913(15) -0.3999(4) -0.1679(3)
H8 H -0.0766 -0.3828 -0.2058
C7 C -0.01795(14) -0.5440(4) -0.1458(2)
C8 C 0.09545(16) -0.1774(4) -0.0371(3)
C9 C 0.16974(15) 0.9439(4) -0.3121(2)
H9 H 0.1646 1.0449 -0.3273
C10 C 0.18272(13) 0.7368(4) -0.2305(2)
C11 C 0.18475(14) 0.6226(4) -0.1668(2)
H10 H 0.1868 0.6434 -0.1059
C12 C 0.18353(14) 0.4766(4) -0.1985(2)
C13 C 0.18462(14) 0.4460(4) -0.2885(2)
H11 H 0.1853 0.3470 -0.3072
C14 C 0.18465(14) 0.5590(4) -0.3493(2)
H12 H 0.1873 0.5381 -0.4079
C15 C 0.18071(14) 0.7052(4) -0.3215(2)
C16 C 0.17367(14) 0.3480(4) -0.1407(2)
Cd1_2 Cd 0.134542(10) -0.84817(3) -0.029643(17)
Cd1E Cd 0.134542(10) 0.84817(3) -0.529643(17)
N2_2 N 0.04857(12) 0.2761(3) -0.0796(2)
N3E N 0.17136(12) 0.1618(3) 0.12794(19)
loop_
_geom_bond_atom_site_label_1
_geom_bond_atom_site_label_2
_geom_bond_site_symmetry_1
_geom_bond_site_symmetry_2
Cd1 O1 1_555 1_555
O1 C8 1_555 1_555
O2 C8 1_555 1_555
O3 Cd1 1_555 1_555
O4 Cd1 1_555 1_555
O5 Cd1 1_555 1_555
H1 O5 1_555 1_555
H2 O5 1_555 1_555
N1 H3 1_555 1_555
N2 C1 1_555 1_555
N3 C9 1_555 1_555
N4 H4 1_555 1_555
C1 N1 1_555 1_555
H5 C1 1_555 1_555
C2 N2 1_555 1_555
C3 C2 1_555 1_555
H6 C3 1_555 1_555
C4 C3 1_555 1_555
C5 C4 1_555 1_555
H7 C5 1_555 1_555
C6 C5 1_555 1_555
H8 C6 1_555 1_555
C7 N1 1_555 1_555
C8 C4 1_555 1_555
C9 N4 1_555 1_555
H9 C9 1_555 1_555
C10 N4 1_555 1_555
C11 C10 1_555 1_555
H10 C11 1_555 1_555
C12 C11 1_555 1_555
C13 C12 1_555 1_555
H11 C13 1_555 1_555
C14 C13 1_555 1_555
H12 C14 1_555 1_555
C15 N3 1_555 1_555
C16 O3 1_555 1_555
Cd1_2 N2 1_555 1_555
Cd1E N3 1_555 1_555
N2_2 Cd1 1_555 1_555
N3E Cd1 1_555 1_555
O4 C16 1_555 1_555
C2 C7 1_555 1_555
C6 C7 1_555 1_555
C10 C15 1_555 1_555
C12 C16 1_555 1_555
C14 C15 1_555 1_555

#END
