
#######################################################################
#
#                 Cambridge Crystallographic Data Centre
#                                CCDC 
#
#######################################################################
#
# If this CIF has been generated from an entry in the Cambridge 
# Structural Database, then it will include bibliographic, chemical, 
# crystal, experimental, refinement or atomic coordinate data resulting 
# from the CCDC's data processing and validation procedures.
#
#######################################################################

data_NUMPUH
_symmetry_cell_setting           monoclinic
_symmetry_space_group_name_H-M   'P 21/n'
_symmetry_Int_Tables_number      14
_space_group_name_Hall           '-P 2yn'
loop_
_symmetry_equiv_pos_site_id
_symmetry_equiv_pos_as_xyz
1 x,y,z
2 1/2-x,1/2+y,1/2-z
3 -x,-y,-z
4 1/2+x,1/2-y,1/2+z
_cell_length_a                   10.020(4)
_cell_length_b                   17.544(7)
_cell_length_c                   12.088(5)
_cell_angle_alpha                90
_cell_angle_beta                 94.271(5)
_cell_angle_gamma                90
_cell_volume                     2119.06
loop_
_atom_site_label
_atom_site_type_symbol
_atom_site_fract_x
_atom_site_fract_y
_atom_site_fract_z
Br1 Br 0.65349(5) 0.12739(3) 0.60878(4)
C1 C 0.3043(4) 0.1205(3) 0.2539(4)
C2 C 0.3836(4) 0.1678(3) 0.3372(3)
C3 C 0.4726(4) 0.1333(3) 0.4166(4)
H1 H 0.4878 0.0810 0.4142
C4 C 0.5376(4) 0.1771(3) 0.4985(4)
C5 C 0.5175(5) 0.2549(3) 0.5059(4)
H2 H 0.5603 0.2831 0.5632
C6 C 0.4312(5) 0.2901(3) 0.4251(4)
C7 C 0.3666(4) 0.2453(3) 0.3419(4)
H3 H 0.3101 0.2688 0.2878
C8 C 0.4026(4) 0.3739(3) 0.4284(4)
C9 C 0.3369(5) 0.1339(3) -0.0255(4)
H4 H 0.3092 0.1761 0.0134
C10 C 0.3482(5) 0.0224(3) -0.0940(4)
H5 H 0.3288 -0.0284 -0.1107
C11 C 0.4488(5) 0.0624(3) -0.1333(4)
H6 H 0.5106 0.0451 -0.1813
C12 C 0.5293(5) 0.1981(3) -0.1090(4)
H7 H 0.4801 0.2339 -0.1577
H8 H 0.6047 0.1798 -0.1474
C13 C 0.5820(4) 0.2396(3) -0.0051(4)
C14 C 0.6083(5) 0.2038(3) 0.0959(4)
H9 H 0.5875 0.1525 0.1039
C15 C 0.6659(5) 0.2446(3) 0.1851(4)
H10 H 0.6812 0.2207 0.2536
C16 C 0.7006(5) 0.3197(3) 0.1742(4)
H11 H 0.7419 0.3460 0.2341
C17 C 0.6740(5) 0.3556(3) 0.0741(4)
C18 C 0.6141(4) 0.3165(3) -0.0149(4)
H12 H 0.5949 0.3415 -0.0821
C19 C 0.7094(5) 0.4388(3) 0.0618(4)
H13 H 0.8054 0.4448 0.0759
H14 H 0.6858 0.4545 -0.0141
C20 C 0.5373(5) 0.4723(3) 0.1975(4)
H15 H 0.4923 0.4259 0.1945
C21 C 0.5965(5) 0.5865(3) 0.2385(4)
H16 H 0.5982 0.6349 0.2701
C22 C 0.6794(5) 0.5613(3) 0.1648(4)
H17 H 0.7498 0.5883 0.1375
Cd1 Cd 0.14641(3) 0.03108(2) 0.10930(3)
N1 N 0.2788(4) 0.0671(2) -0.0258(3)
N2 N 0.4420(4) 0.1335(3) -0.0887(3)
N3 N 0.6416(4) 0.4894(3) 0.1373(3)
N4 N 0.5081(4) 0.5289(2) 0.2599(3)
O1 O 0.2108(3) 0.15247(19) 0.1954(3)
O2 O 0.3314(3) 0.05016(19) 0.2457(3)
O3 O 0.3213(3) 0.40223(19) 0.3556(3)
O4 O 0.4599(3) 0.41463(19) 0.5038(3)
Cd1A Cd 0.35359(3) 0.53108(2) 0.39070(3)
Cd1C Cd 0.64641(3) 0.46892(2) 0.60930(3)
N4A N -0.0081(4) 0.0289(2) 0.2401(3)
O3A O 0.1787(3) -0.09777(19) 0.1444(3)
O4A O 0.0401(3) -0.08537(19) -0.0038(3)
O4C O -0.0401(3) 0.08537(19) 0.0038(3)
loop_
_geom_bond_atom_site_label_1
_geom_bond_atom_site_label_2
_geom_bond_site_symmetry_1
_geom_bond_site_symmetry_2
Br1 C4 1_555 1_555
C1 C2 1_555 1_555
C2 C3 1_555 1_555
C3 H1 1_555 1_555
C4 C3 1_555 1_555
C5 C4 1_555 1_555
H2 C5 1_555 1_555
C6 C5 1_555 1_555
C7 C2 1_555 1_555
H3 C7 1_555 1_555
C8 C6 1_555 1_555
C9 H4 1_555 1_555
C10 H5 1_555 1_555
C11 C10 1_555 1_555
H6 C11 1_555 1_555
C12 H7 1_555 1_555
H8 C12 1_555 1_555
C13 C12 1_555 1_555
C14 C13 1_555 1_555
H9 C14 1_555 1_555
C15 C14 1_555 1_555
H10 C15 1_555 1_555
C16 C15 1_555 1_555
H11 C16 1_555 1_555
C17 C16 1_555 1_555
C18 C13 1_555 1_555
H12 C18 1_555 1_555
C19 C17 1_555 1_555
H13 C19 1_555 1_555
H14 C19 1_555 1_555
C20 H15 1_555 1_555
C21 H16 1_555 1_555
C22 C21 1_555 1_555
H17 C22 1_555 1_555
Cd1 N1 1_555 1_555
N1 C9 1_555 1_555
N2 C9 1_555 1_555
N3 C19 1_555 1_555
N4 C20 1_555 1_555
O1 C1 1_555 1_555
O2 C1 1_555 1_555
O3 C8 1_555 1_555
O4 C8 1_555 1_555
Cd1A N4 1_555 1_555
Cd1C O4 1_555 1_555
N4A Cd1 1_555 1_555
O3A Cd1 1_555 1_555
O4A Cd1 1_555 1_555
O4C Cd1 1_555 1_555
C6 C7 1_555 1_555
C10 N1 1_555 1_555
C11 N2 1_555 1_555
C12 N2 1_555 1_555
C17 C18 1_555 1_555
C20 N3 1_555 1_555
C21 N4 1_555 1_555
C22 N3 1_555 1_555
Cd1 O1 1_555 1_555
Cd1 O2 1_555 1_555
O3 Cd1A 1_555 1_555
O4 Cd1A 1_555 1_555

#END
