
#######################################################################
#
#                 Cambridge Crystallographic Data Centre
#                                CCDC 
#
#######################################################################
#
# If this CIF has been generated from an entry in the Cambridge 
# Structural Database, then it will include bibliographic, chemical, 
# crystal, experimental, refinement or atomic coordinate data resulting 
# from the CCDC's data processing and validation procedures.
#
#######################################################################

data_NUMQIX
_symmetry_cell_setting           triclinic
_symmetry_space_group_name_H-M   'P -1'
_symmetry_Int_Tables_number      2
_space_group_name_Hall           '-P 1'
loop_
_symmetry_equiv_pos_site_id
_symmetry_equiv_pos_as_xyz
1 x,y,z
2 -x,-y,-z
_cell_length_a                   8.0140(4)
_cell_length_b                   9.9694(5)
_cell_length_c                   12.6696(8)
_cell_angle_alpha                79.229(5)
_cell_angle_beta                 77.426(5)
_cell_angle_gamma                69.261(5)
_cell_volume                     917.232
loop_
_atom_site_label
_atom_site_type_symbol
_atom_site_fract_x
_atom_site_fract_y
_atom_site_fract_z
Cd1 Cd 0.16418(3) 0.06360(3) 0.05690(2)
O1 O 0.1044(4) 0.8382(3) 0.0229(2)
O2 O 0.1723(4) 0.2994(3) 0.0587(3)
O3 O 0.3649(4) 0.8732(3) -0.0372(2)
O4 O 0.3914(4) 0.0052(3) 0.1655(2)
O5 O 0.2934(4) 0.1979(3) -0.0921(3)
C1 C 0.3346(5) 0.6607(4) -0.0792(3)
C2 C 0.2577(5) 0.3013(4) -0.0357(4)
C3 C 0.2591(5) 0.5522(4) -0.0387(3)
H1 H 0.1632 0.5650 0.0192
C4 C 0.3279(5) 0.4242(4) -0.0854(3)
C5 C 0.4682(5) 0.4073(4) -0.1732(3)
H2 H 0.5110 0.3220 -0.2050
C6 C 0.5467(6) 0.5141(4) -0.2151(3)
N1 N -0.0271(5) 0.0416(4) 0.2190(3)
C7 C -0.1258(6) -0.0449(5) 0.2326(3)
H3 H -0.1067 -0.1029 0.1786
C8 C -0.2845(6) 0.0281(5) 0.4065(3)
C9 C -0.2552(6) -0.0526(5) 0.3232(3)
H4 H -0.3233 -0.1128 0.3279
C10 C -0.4245(6) 0.0244(6) 0.5069(3)
H5 H -0.4766 0.1203 0.5296
H6 H -0.3645 -0.0398 0.5649
C11 C 0.7054(7) 0.4928(5) -0.3107(4)
C12 C -0.0560(7) 0.1216(6) 0.2986(4)
H7 H 0.0109 0.1834 0.2908
C13 C -0.1805(8) 0.1168(7) 0.3917(4)
H8 H -0.1948 0.1739 0.4454
C14 C 0.2646(5) 0.7984(4) -0.0291(3)
C15 C 0.4800(5) 0.6396(4) -0.1650(3)
H9 H 0.5335 0.7112 -0.1893
C16 C 0.7559(16) 0.3539(11) -0.3536(9)
H10 H 0.6520 0.3452 -0.3739
H11 H 0.7997 0.2762 -0.2985
H12 H 0.8491 0.3498 -0.4162
C17 C 0.8785(12) 0.4719(16) -0.2653(7)
H13 H 0.9727 0.4816 -0.3246
H14 H 0.9166 0.3774 -0.2254
H15 H 0.8534 0.5437 -0.2178
C18 C 0.6843(17) 0.6173(11) -0.3882(9)
H16 H 0.7984 0.6116 -0.4341
H17 H 0.6426 0.7019 -0.3512
H18 H 0.5975 0.6230 -0.4319
N1A N -0.9729(5) -0.0416(4) 0.7810(3)
C7A C -0.8742(6) 0.0449(5) 0.7674(3)
H3A H -0.8933 0.1029 0.8214
C8A C -0.7155(6) -0.0281(5) 0.5935(3)
C9A C -0.7448(6) 0.0526(5) 0.6768(3)
H4A H -0.6767 0.1128 0.6721
C10A C -0.5755(6) -0.0244(6) 0.4931(3)
H5A H -0.5234 -0.1203 0.4704
H6A H -0.6355 0.0398 0.4351
C12A C -0.9440(7) -0.1216(6) 0.7014(4)
H7A H -1.0109 -0.1834 0.7092
C13A C -0.8195(8) -0.1168(7) 0.6083(4)
H8A H -0.8052 -0.1739 0.5546
Cd1A Cd -1.16418(3) -0.06360(3) 0.94310(2)
O1A O -1.1044(4) -0.8382(3) 0.9771(2)
O2A O -1.1723(4) -0.2994(3) 0.9413(3)
O3A O -1.3649(4) -0.8732(3) 1.0372(2)
O4A O -1.3914(4) -0.0052(3) 0.8345(2)
O5A O -1.2934(4) -0.1979(3) 1.0921(3)
C1A C -1.3346(5) -0.6607(4) 1.0792(3)
C2A C -1.2577(5) -0.3013(4) 1.0357(4)
C3A C -1.2591(5) -0.5522(4) 1.0387(3)
H1A H -1.1632 -0.5650 0.9808
C4A C -1.3279(5) -0.4242(4) 1.0854(3)
C5A C -1.4682(5) -0.4073(4) 1.1732(3)
H2A H -1.5110 -0.3220 1.2050
C6A C -1.5467(6) -0.5141(4) 1.2151(3)
C11A C -1.7054(7) -0.4928(5) 1.3107(4)
C14A C -1.2646(5) -0.7984(4) 1.0291(3)
C15A C -1.4800(5) -0.6396(4) 1.1650(3)
H9A H -1.5335 -0.7112 1.1893
C16A C -1.7559(16) -0.3539(11) 1.3536(9)
H10A H -1.6520 -0.3452 1.3739
H11A H -1.7997 -0.2762 1.2985
H12A H -1.8491 -0.3498 1.4162
C17A C -1.8785(12) -0.4719(16) 1.2653(7)
H13A H -1.9727 -0.4816 1.3246
H14A H -1.9166 -0.3774 1.2254
H15A H -1.8534 -0.5437 1.2178
C18A C -1.6843(17) -0.6173(11) 1.3882(9)
H16A H -1.7984 -0.6116 1.4341
H17A H -1.6426 -0.7019 1.3512
H18A H -1.5975 -0.6230 1.4319
Cd1_2 Cd -0.83582(3) -0.93640(3) 1.05690(2)
Cd1_3 Cd 0.16418(3) 1.06360(3) 0.05690(2)
Cd1A_2 Cd -1.16418(3) -1.06360(3) 0.94310(2)
Cd1A_3 Cd -0.16418(3) 0.93640(3) -0.05690(2)
O1_2 O -0.8956(4) -0.1618(3) 1.0229(2)
O1_3 O 0.1044(4) -0.1618(3) 0.0229(2)
O1A_2 O -1.1044(4) 0.1618(3) 0.9771(2)
O1A_3 O -0.1044(4) 0.1618(3) -0.0229(2)
O3_2 O 0.3649(4) -0.1268(3) -0.0372(2)
O3A_2 O -1.3649(4) 0.1268(3) 1.0372(2)
loop_
_geom_bond_atom_site_label_1
_geom_bond_atom_site_label_2
_geom_bond_site_symmetry_1
_geom_bond_site_symmetry_2
Cd1 O2 1_555 1_555
O1 C14 1_555 1_555
O2 C2 1_555 1_555
O3 C14 1_555 1_555
O4 Cd1 1_555 1_555
O5 Cd1 1_555 1_555
C1 C3 1_555 1_555
C2 O5 1_555 1_555
C3 H1 1_555 1_555
C4 C2 1_555 1_555
C5 C4 1_555 1_555
H2 C5 1_555 1_555
C6 C5 1_555 1_555
N1 Cd1 1_555 1_555
C7 N1 1_555 1_555
H3 C7 1_555 1_555
C8 C9 1_555 1_555
C9 C7 1_555 1_555
H4 C9 1_555 1_555
C10 C8 1_555 1_555
H5 C10 1_555 1_555
H6 C10 1_555 1_555
C11 C6 1_555 1_555
C12 N1 1_555 1_555
H7 C12 1_555 1_555
C13 C8 1_555 1_555
H8 C13 1_555 1_555
C14 C1 1_555 1_555
C15 C1 1_555 1_555
H9 C15 1_555 1_555
C16 C11 1_555 1_555
H10 C16 1_555 1_555
H11 C16 1_555 1_555
H12 C16 1_555 1_555
C17 C11 1_555 1_555
H13 C17 1_555 1_555
H14 C17 1_555 1_555
H15 C17 1_555 1_555
C18 C11 1_555 1_555
H16 C18 1_555 1_555
H17 C18 1_555 1_555
H18 C18 1_555 1_555
N1A C7A 1_555 1_555
C7A H3A 1_555 1_555
C8A C9A 1_555 1_555
C9A C7A 1_555 1_555
H4A C9A 1_555 1_555
C10A C10 1_555 1_555
H5A C10A 1_555 1_555
H6A C10A 1_555 1_555
C12A N1A 1_555 1_555
H7A C12A 1_555 1_555
C13A C8A 1_555 1_555
H8A C13A 1_555 1_555
Cd1A N1A 1_555 1_555
O1A C14A 1_555 1_555
O2A Cd1A 1_555 1_555
O3A C14A 1_555 1_555
O4A Cd1A 1_555 1_555
O5A Cd1A 1_555 1_555
C1A C3A 1_555 1_555
C2A O2A 1_555 1_555
C3A H1A 1_555 1_555
C4A C2A 1_555 1_555
C5A C4A 1_555 1_555
H2A C5A 1_555 1_555
C6A C5A 1_555 1_555
C11A C6A 1_555 1_555
C14A C1A 1_555 1_555
C15A C1A 1_555 1_555
H9A C15A 1_555 1_555
C16A C11A 1_555 1_555
H10A C16A 1_555 1_555
H11A C16A 1_555 1_555
H12A C16A 1_555 1_555
C17A C11A 1_555 1_555
H13A C17A 1_555 1_555
H14A C17A 1_555 1_555
H15A C17A 1_555 1_555
C18A C11A 1_555 1_555
H16A C18A 1_555 1_555
H17A C18A 1_555 1_555
H18A C18A 1_555 1_555
Cd1_2 O1A 1_555 1_555
Cd1_3 O1 1_555 1_555
Cd1A_2 O1A 1_555 1_555
Cd1A_3 O1 1_555 1_555
O1_2 Cd1A 1_555 1_555
O1_3 Cd1 1_555 1_555
O1A_2 Cd1A 1_555 1_555
O1A_3 Cd1 1_555 1_555
O3_2 Cd1 1_555 1_555
O3A_2 Cd1A 1_555 1_555
O3 Cd1_3 1_555 1_555
C3 C4 1_555 1_555
C6 C15 1_555 1_555
C12 C13 1_555 1_555
C8A C10A 1_555 1_555
C12A C13A 1_555 1_555
O3A Cd1A_2 1_555 1_555
O5A C2A 1_555 1_555
C3A C4A 1_555 1_555
C6A C15A 1_555 1_555

#END
