
#######################################################################
#
#                 Cambridge Crystallographic Data Centre
#                                CCDC 
#
#######################################################################
#
# If this CIF has been generated from an entry in the Cambridge 
# Structural Database, then it will include bibliographic, chemical, 
# crystal, experimental, refinement or atomic coordinate data resulting 
# from the CCDC's data processing and validation procedures.
#
#######################################################################

data_NUMSET
_symmetry_cell_setting           orthorhombic
_symmetry_space_group_name_H-M   'P 21 21 21'
_symmetry_Int_Tables_number      19
_space_group_name_Hall           'P 2ac 2ab'
loop_
_symmetry_equiv_pos_site_id
_symmetry_equiv_pos_as_xyz
1 x,y,z
2 1/2-x,-y,1/2+z
3 -x,1/2+y,1/2-z
4 1/2+x,1/2-y,-z
_cell_length_a                   6.5338(2)
_cell_length_b                   12.5664(3)
_cell_length_c                   21.5537(5)
_cell_angle_alpha                90
_cell_angle_beta                 90
_cell_angle_gamma                90
_cell_volume                     1769.7
loop_
_atom_site_label
_atom_site_type_symbol
_atom_site_fract_x
_atom_site_fract_y
_atom_site_fract_z
Rb1 Rb 0.58560(8) -0.21221(5) -0.06858(2)
P1 P 0.0858(2) -0.30162(11) -0.08969(5)
Si1 Si 0.6986(2) -0.03438(13) 0.10468(6)
C1 C 0.4920(10) 0.0639(5) 0.1237(3)
H1 H 0.3847(10) 0.0588(5) 0.0935(3)
H2 H 0.5479(10) 0.1345(5) 0.1233(3)
H3 H 0.4377(10) 0.0486(5) 0.1641(3)
C2 C 0.8240(11) 0.0120(6) 0.0302(3)
H4 H 0.9311(11) -0.0366(6) 0.0190(3)
H5 H 0.8808(11) 0.0817(6) 0.0363(3)
H6 H 0.7238(11) 0.0144(6) -0.0023(3)
C3 C 0.9019(11) -0.0193(5) 0.1660(3)
H7 H 1.0112(11) -0.0684(5) 0.1579(3)
H8 H 0.8440(11) -0.0338(5) 0.2060(3)
H9 H 0.9542(11) 0.0521(5) 0.1652(3)
Si2 Si 0.5713(2) -0.26079(11) 0.18538(6)
C4 C 0.4452(10) -0.1725(5) 0.2445(2)
H10 H 0.3145(10) -0.1496(5) 0.2292(2)
H11 H 0.5301(10) -0.1115(5) 0.2521(2)
H12 H 0.4267(10) -0.2113(5) 0.2825(2)
C5 C 0.8249(8) -0.3013(6) 0.2195(3)
H13 H 0.8956(8) -0.3467(6) 0.1909(3)
H14 H 0.8024(8) -0.3387(6) 0.2577(3)
H15 H 0.9058(8) -0.2389(6) 0.2273(3)
C6 C 0.4148(10) -0.3885(4) 0.1846(3)
H16 H 0.4723(10) -0.4372(4) 0.1550(3)
H17 H 0.2761(10) -0.3726(4) 0.1732(3)
H18 H 0.4172(10) -0.4203(4) 0.2251(3)
O1 O -0.0221(7) -0.5053(4) 0.0993(2)
C7 C -0.1942(11) -0.5386(6) 0.0649(4)
H19 H -0.1892(11) -0.5089(6) 0.0234(4)
H20 H -0.3190(11) -0.5145(6) 0.0848(4)
C8 C -0.1901(22) -0.6555(7) 0.0620(5)
H21 H -0.3220(22) -0.6846(7) 0.0738(5)
H22 H -0.1580(22) -0.6792(7) 0.0203(5)
C9 C -0.0324(14) -0.6900(5) 0.1053(4)
H23 H 0.0761(14) -0.7272(5) 0.0835(4)
H24 H -0.0898(14) -0.7375(5) 0.1363(4)
C10 C 0.0474(15) -0.5931(6) 0.1348(4)
H25 H -0.0021(15) -0.5877(6) 0.1771(4)
H26 H 0.1958(15) -0.5946(6) 0.1357(4)
P1_2 P 1.0858(2) -0.30162(11) -0.08969(5)
Rb1_2 Rb -0.41440(8) -0.21221(5) -0.06858(2)
Rb1C Rb 0.08560(8) -0.28779(5) 0.06858(2)
P1C P -0.4142(2) -0.19838(11) 0.08969(5)
P1C_2 P 0.5858(2) -0.19838(11) 0.08969(5)
Rb1C_2 Rb 1.08560(8) -0.28779(5) 0.06858(2)
Si1C Si 0.1986(2) -0.46562(13) -0.10468(6)
C1C C -0.0080(10) -0.5639(5) -0.1237(3)
H1C H -0.1153(10) -0.5588(5) -0.0935(3)
H2C H 0.0479(10) -0.6345(5) -0.1233(3)
H3C H -0.0623(10) -0.5486(5) -0.1641(3)
C2C C 0.3240(11) -0.5120(6) -0.0302(3)
H4C H 0.4311(11) -0.4634(6) -0.0190(3)
H5C H 0.3808(11) -0.5817(6) -0.0363(3)
H6C H 0.2238(11) -0.5144(6) 0.0023(3)
C3C C 0.4019(11) -0.4807(5) -0.1660(3)
H7C H 0.5112(11) -0.4316(5) -0.1579(3)
H8C H 0.3440(11) -0.4662(5) -0.2060(3)
H9C H 0.4542(11) -0.5521(5) -0.1652(3)
Si2C Si 0.0713(2) -0.23921(11) -0.18538(6)
C4C C -0.0548(10) -0.3275(5) -0.2445(2)
H10C H -0.1855(10) -0.3504(5) -0.2292(2)
H11C H 0.0301(10) -0.3885(5) -0.2521(2)
H12C H -0.0733(10) -0.2887(5) -0.2825(2)
C5C C 0.3249(8) -0.1987(6) -0.2195(3)
H13C H 0.3956(8) -0.1533(6) -0.1909(3)
H14C H 0.3024(8) -0.1613(6) -0.2577(3)
H15C H 0.4058(8) -0.2611(6) -0.2273(3)
C6C C -0.0852(10) -0.1115(4) -0.1846(3)
H16C H -0.0277(10) -0.0628(4) -0.1550(3)
H17C H -0.2239(10) -0.1274(4) -0.1732(3)
H18C H -0.0828(10) -0.0797(4) -0.2251(3)
O1C O 0.4779(7) 0.0053(4) -0.0993(2)
C7C C 0.3058(11) 0.0386(6) -0.0649(4)
H19C H 0.3108(11) 0.0089(6) -0.0234(4)
H20C H 0.1810(11) 0.0145(6) -0.0848(4)
C8C C 0.3099(22) 0.1555(7) -0.0620(5)
H21C H 0.1780(22) 0.1846(7) -0.0738(5)
H22C H 0.3420(22) 0.1792(7) -0.0203(5)
C9C C 0.4676(14) 0.1900(5) -0.1053(4)
H23C H 0.5761(14) 0.2272(5) -0.0835(4)
H24C H 0.4102(14) 0.2375(5) -0.1363(4)
C10C C 0.5474(15) 0.0931(6) -0.1348(4)
H25C H 0.4979(15) 0.0877(6) -0.1771(4)
H26C H 0.6958(15) 0.0946(6) -0.1357(4)
loop_
_geom_bond_atom_site_label_1
_geom_bond_atom_site_label_2
_geom_bond_site_symmetry_1
_geom_bond_site_symmetry_2
Rb1 P1 1_555 1_555
P1 Rb1_2 1_555 1_555
Si1 C1 1_555 1_555
C1 H1 1_555 1_555
H2 C1 1_555 1_555
H3 C1 1_555 1_555
C2 Si1 1_555 1_555
H4 C2 1_555 1_555
H5 C2 1_555 1_555
H6 C2 1_555 1_555
C3 Si1 1_555 1_555
H7 C3 1_555 1_555
H8 C3 1_555 1_555
H9 C3 1_555 1_555
Si2 C4 1_555 1_555
C4 H10 1_555 1_555
H11 C4 1_555 1_555
H12 C4 1_555 1_555
C5 Si2 1_555 1_555
H13 C5 1_555 1_555
H14 C5 1_555 1_555
H15 C5 1_555 1_555
C6 Si2 1_555 1_555
H16 C6 1_555 1_555
H17 C6 1_555 1_555
H18 C6 1_555 1_555
O1 C7 1_555 1_555
C7 H19 1_555 1_555
H20 C7 1_555 1_555
C8 C7 1_555 1_555
H21 C8 1_555 1_555
H22 C8 1_555 1_555
C9 C8 1_555 1_555
H23 C9 1_555 1_555
H24 C9 1_555 1_555
C10 O1 1_555 1_555
H25 C10 1_555 1_555
H26 C10 1_555 1_555
P1_2 Rb1 1_555 1_555
Rb1_2 P1C 1_555 1_555
Rb1C P1 1_555 1_555
P1C Rb1C 1_555 1_555
P1C_2 Rb1 1_555 1_555
Rb1C_2 P1_2 1_555 1_555
Si1C P1 1_555 1_555
C1C Si1C 1_555 1_555
H1C C1C 1_555 1_555
H2C C1C 1_555 1_555
H3C C1C 1_555 1_555
C2C Si1C 1_555 1_555
H4C C2C 1_555 1_555
H5C C2C 1_555 1_555
H6C C2C 1_555 1_555
C3C Si1C 1_555 1_555
H7C C3C 1_555 1_555
H8C C3C 1_555 1_555
H9C C3C 1_555 1_555
Si2C P1 1_555 1_555
C4C Si2C 1_555 1_555
H10C C4C 1_555 1_555
H11C C4C 1_555 1_555
H12C C4C 1_555 1_555
C5C Si2C 1_555 1_555
H13C C5C 1_555 1_555
H14C C5C 1_555 1_555
H15C C5C 1_555 1_555
C6C Si2C 1_555 1_555
H16C C6C 1_555 1_555
H17C C6C 1_555 1_555
H18C C6C 1_555 1_555
O1C Rb1 1_555 1_555
C7C O1C 1_555 1_555
H19C C7C 1_555 1_555
H20C C7C 1_555 1_555
C8C C7C 1_555 1_555
H21C C8C 1_555 1_555
H22C C8C 1_555 1_555
C9C C8C 1_555 1_555
H23C C9C 1_555 1_555
H24C C9C 1_555 1_555
C10C O1C 1_555 1_555
H25C C10C 1_555 1_555
H26C C10C 1_555 1_555
Si1 P1C_2 1_555 1_555
Si2 P1C_2 1_555 1_555
O1 Rb1C 1_555 1_555
C9 C10 1_555 1_555
Rb1C P1C_2 1_555 1_555
P1C_2 Rb1C_2 1_555 1_555
C9C C10C 1_555 1_555

#END
