
#######################################################################
#
#                 Cambridge Crystallographic Data Centre
#                                CCDC 
#
#######################################################################
#
# If this CIF has been generated from an entry in the Cambridge 
# Structural Database, then it will include bibliographic, chemical, 
# crystal, experimental, refinement or atomic coordinate data resulting 
# from the CCDC's data processing and validation procedures.
#
#######################################################################

data_NUMSIX
_symmetry_cell_setting           monoclinic
_symmetry_space_group_name_H-M   'P 21/c'
_symmetry_Int_Tables_number      14
_space_group_name_Hall           '-P 2ybc'
loop_
_symmetry_equiv_pos_site_id
_symmetry_equiv_pos_as_xyz
1 x,y,z
2 x,1/2-y,1/2+z
3 -x,-y,-z
4 -x,1/2+y,1/2-z
_cell_length_a                   11.35150(10)
_cell_length_b                   22.3445(3)
_cell_length_c                   7.25010(10)
_cell_angle_alpha                90
_cell_angle_beta                 96.0170(10)
_cell_angle_gamma                90
_cell_volume                     1828.81
loop_
_atom_site_label
_atom_site_type_symbol
_atom_site_fract_x
_atom_site_fract_y
_atom_site_fract_z
Cs1 Cs 0.25338(3) 0.178326(13) 0.21350(4)
P1 P 0.22674(12) 0.16195(5) -0.2924(2)
Si1 Si 0.03890(13) 0.13627(6) -0.3166(2)
Si2 Si 0.31523(13) 0.07449(6) -0.2946(2)
C1 C -0.0261(5) 0.1173(3) -0.5608(8)
H1 H 0.0152(5) 0.0825(3) -0.6054(8)
H2 H -0.0167(5) 0.1515(3) -0.6424(8)
H3 H -0.1105(5) 0.1080(3) -0.5609(8)
C2 C -0.0483(6) 0.2033(3) -0.2493(10)
H4 H -0.0297(6) 0.2379(3) -0.3243(10)
H5 H -0.0272(6) 0.2123(3) -0.1177(10)
H6 H -0.1332(6) 0.1945(3) -0.2711(10)
C3 C -0.0033(6) 0.0727(3) -0.1648(9)
H7 H 0.0398(6) 0.0364(3) -0.1941(9)
H8 H -0.0887(6) 0.0654(3) -0.1876(9)
H9 H 0.0173(6) 0.0832(3) -0.0342(9)
C4 C 0.3339(6) 0.0369(3) -0.0603(8)
H10 H 0.2558(6) 0.0298(3) -0.0182(8)
H11 H 0.3804(6) 0.0628(3) 0.0289(8)
H12 H 0.3751(6) -0.0013(3) -0.0699(8)
C5 C 0.4679(5) 0.0862(3) -0.3624(9)
H13 H 0.5097(5) 0.1156(3) -0.2790(9)
H14 H 0.4630(5) 0.1010(3) -0.4902(9)
H15 H 0.5112(5) 0.0482(3) -0.3536(9)
C6 C 0.2458(5) 0.0179(2) -0.4634(8)
H16 H 0.1648(5) 0.0096(2) -0.4356(8)
H17 H 0.2923(5) -0.0191(2) -0.4531(8)
H18 H 0.2441(5) 0.0337(2) -0.5897(8)
O1 O 0.5203(4) 0.1796(2) 0.1866(6)
C7 C 0.6210(6) 0.1420(3) 0.2270(9)
H19 H 0.5958(6) 0.0999(3) 0.2394(9)
H20 H 0.6665(6) 0.1544(3) 0.3447(9)
C8 C 0.6947(7) 0.1480(4) 0.0709(10)
H21 H 0.6790(7) 0.1146(4) -0.0181(10)
H22 H 0.7799(7) 0.1480(4) 0.1170(10)
C9 C 0.6596(5) 0.2067(3) -0.0195(9)
H23 H 0.6613(5) 0.2045(3) -0.1556(9)
H24 H 0.7129(5) 0.2393(3) 0.0303(9)
C10 C 0.5353(5) 0.2165(3) 0.0295(7)
H25 H 0.5233(5) 0.2591(3) 0.0598(7)
H26 H 0.4771(5) 0.2053(3) -0.0762(7)
P1_2 P 0.22674(12) 0.16195(5) 0.7076(2)
P1A P 0.22674(12) 0.33805(5) 0.2076(2)
Cs1A Cs 0.25338(3) 0.321674(13) 0.71350(4)
Cs1_2 Cs 0.25338(3) 0.178326(13) -0.78650(4)
Cs1A_2 Cs 0.25338(3) 0.321674(13) -0.28650(4)
Si1A Si 0.03890(13) 0.36373(6) 0.1834(2)
Si2A Si 0.31523(13) 0.42551(6) 0.2054(2)
P1A_2 P 0.22674(12) 0.33805(5) -0.7924(2)
O1A O 0.5203(4) 0.3204(2) -0.3134(6)
C1A C -0.0261(5) 0.3827(3) -0.0608(8)
C2A C -0.0483(6) 0.2967(3) 0.2507(10)
C3A C -0.0033(6) 0.4273(3) 0.3352(9)
C4A C 0.3339(6) 0.4631(3) 0.4397(8)
C5A C 0.4679(5) 0.4138(3) 0.1376(9)
C6A C 0.2458(5) 0.4821(2) 0.0366(8)
C7A C 0.6210(6) 0.3580(3) -0.2730(9)
C10A C 0.5353(5) 0.2835(3) -0.4705(7)
H1A H 0.0152(5) 0.4175(3) -0.1054(8)
H2A H -0.0167(5) 0.3485(3) -0.1424(8)
H3A H -0.1105(5) 0.3920(3) -0.0609(8)
H4A H -0.0297(6) 0.2621(3) 0.1757(10)
H5A H -0.0272(6) 0.2877(3) 0.3823(10)
H6A H -0.1332(6) 0.3055(3) 0.2289(10)
H7A H 0.0398(6) 0.4636(3) 0.3059(9)
H8A H -0.0887(6) 0.4346(3) 0.3124(9)
H9A H 0.0173(6) 0.4168(3) 0.4658(9)
H10A H 0.2558(6) 0.4702(3) 0.4818(8)
H11A H 0.3804(6) 0.4372(3) 0.5289(8)
H12A H 0.3751(6) 0.5013(3) 0.4301(8)
H13A H 0.5097(5) 0.3844(3) 0.2210(9)
H14A H 0.4630(5) 0.3990(3) 0.0098(9)
H15A H 0.5112(5) 0.4518(3) 0.1464(9)
H16A H 0.1648(5) 0.4904(2) 0.0644(8)
H17A H 0.2923(5) 0.5191(2) 0.0469(8)
H18A H 0.2441(5) 0.4663(2) -0.0897(8)
H19A H 0.5958(6) 0.4001(3) -0.2606(9)
H20A H 0.6665(6) 0.3456(3) -0.1553(9)
C8A C 0.6947(7) 0.3520(4) -0.4291(10)
C9A C 0.6596(5) 0.2933(3) -0.5195(9)
H25A H 0.5233(5) 0.2409(3) -0.4402(7)
H26A H 0.4771(5) 0.2947(3) -0.5762(7)
H21A H 0.6790(7) 0.3854(4) -0.5181(10)
H22A H 0.7799(7) 0.3520(4) -0.3830(10)
H23A H 0.6613(5) 0.2955(3) -0.6556(9)
H24A H 0.7129(5) 0.2607(3) -0.4697(9)
loop_
_geom_bond_atom_site_label_1
_geom_bond_atom_site_label_2
_geom_bond_site_symmetry_1
_geom_bond_site_symmetry_2
Cs1 P1 1_555 1_555
P1 Si1 1_555 1_555
Si1 C1 1_555 1_555
Si2 P1 1_555 1_555
C1 H1 1_555 1_555
H2 C1 1_555 1_555
H3 C1 1_555 1_555
C2 Si1 1_555 1_555
H4 C2 1_555 1_555
H5 C2 1_555 1_555
H6 C2 1_555 1_555
C3 Si1 1_555 1_555
H7 C3 1_555 1_555
H8 C3 1_555 1_555
H9 C3 1_555 1_555
C4 Si2 1_555 1_555
H10 C4 1_555 1_555
H11 C4 1_555 1_555
H12 C4 1_555 1_555
C5 Si2 1_555 1_555
H13 C5 1_555 1_555
H14 C5 1_555 1_555
H15 C5 1_555 1_555
C6 Si2 1_555 1_555
H16 C6 1_555 1_555
H17 C6 1_555 1_555
H18 C6 1_555 1_555
O1 Cs1 1_555 1_555
C7 O1 1_555 1_555
H19 C7 1_555 1_555
H20 C7 1_555 1_555
C8 C7 1_555 1_555
H21 C8 1_555 1_555
H22 C8 1_555 1_555
C9 C8 1_555 1_555
H23 C9 1_555 1_555
H24 C9 1_555 1_555
C10 O1 1_555 1_555
H25 C10 1_555 1_555
H26 C10 1_555 1_555
P1_2 Cs1 1_555 1_555
P1A Cs1 1_555 1_555
Cs1A P1_2 1_555 1_555
Cs1_2 P1 1_555 1_555
Cs1A_2 P1 1_555 1_555
Si1A P1A 1_555 1_555
Si2A P1A 1_555 1_555
P1A_2 Cs1_2 1_555 1_555
O1A Cs1A_2 1_555 1_555
C1A Si1A 1_555 1_555
C2A Si1A 1_555 1_555
C3A Si1A 1_555 1_555
C4A Si2A 1_555 1_555
C5A Si2A 1_555 1_555
C6A Si2A 1_555 1_555
C7A O1A 1_555 1_555
C10A O1A 1_555 1_555
H1A C1A 1_555 1_555
H2A C1A 1_555 1_555
H3A C1A 1_555 1_555
H4A C2A 1_555 1_555
H5A C2A 1_555 1_555
H6A C2A 1_555 1_555
H7A C3A 1_555 1_555
H8A C3A 1_555 1_555
H9A C3A 1_555 1_555
H10A C4A 1_555 1_555
H11A C4A 1_555 1_555
H12A C4A 1_555 1_555
H13A C5A 1_555 1_555
H14A C5A 1_555 1_555
H15A C5A 1_555 1_555
H16A C6A 1_555 1_555
H17A C6A 1_555 1_555
H18A C6A 1_555 1_555
H19A C7A 1_555 1_555
H20A C7A 1_555 1_555
C8A C7A 1_555 1_555
C9A C10A 1_555 1_555
H25A C10A 1_555 1_555
H26A C10A 1_555 1_555
H21A C8A 1_555 1_555
H22A C8A 1_555 1_555
H23A C9A 1_555 1_555
H24A C9A 1_555 1_555
C9 C10 1_555 1_555
P1A Cs1A 1_555 1_555
P1A Cs1A_2 1_555 1_555
Cs1A_2 P1A_2 1_555 1_555
C8A C9A 1_555 1_555

#END
