
#######################################################################
#
#                 Cambridge Crystallographic Data Centre
#                                CCDC 
#
#######################################################################
#
# If this CIF has been generated from an entry in the Cambridge 
# Structural Database, then it will include bibliographic, chemical, 
# crystal, experimental, refinement or atomic coordinate data resulting 
# from the CCDC's data processing and validation procedures.
#
#######################################################################

data_NUMSAP
_symmetry_cell_setting           orthorhombic
_symmetry_space_group_name_H-M   'P 21 21 21'
_symmetry_Int_Tables_number      19
_space_group_name_Hall           'P 2ac 2ab'
loop_
_symmetry_equiv_pos_site_id
_symmetry_equiv_pos_as_xyz
1 x,y,z
2 1/2-x,-y,1/2+z
3 -x,1/2+y,1/2-z
4 1/2+x,1/2-y,-z
_cell_length_a                   6.4261(2)
_cell_length_b                   12.4119(2)
_cell_length_c                   21.5447(4)
_cell_angle_alpha                90
_cell_angle_beta                 90
_cell_angle_gamma                90
_cell_volume                     1718.41
loop_
_atom_site_label
_atom_site_type_symbol
_atom_site_fract_x
_atom_site_fract_y
_atom_site_fract_z
K1 K 1.59009(8) -0.22015(4) -0.06669(2)
P1 P 1.09183(10) -0.30727(4) -0.08646(2)
Si1 Si 1.19763(10) -0.47451(4) -0.10343(3)
C1 C 0.9834(4) -0.57271(17) -0.12191(12)
H1 H 1.0431 -0.6444 -0.1287
H2 H 0.9102 -0.5493 -0.1595
H3 H 0.8852 -0.5756 -0.0871
C2 C 1.3301(5) -0.5240(2) -0.03062(12)
H4 H 1.3785 -0.5981 -0.0369
H5 H 1.2314 -0.5220 0.0040
H6 H 1.4493 -0.4775 -0.0212
C3 C 1.3975(5) -0.49087(17) -0.16638(12)
H7 H 1.4343 -0.5672 -0.1704
H8 H 1.5221 -0.4492 -0.1558
H9 H 1.3404 -0.4647 -0.2058
Si2 Si 1.07507(10) -0.24398(4) -0.18226(3)
C4 C 0.9401(5) -0.33322(17) -0.24050(10)
H10 H 0.9409 -0.2982 -0.2813
H11 H 0.7961 -0.3455 -0.2273
H12 H 1.0132 -0.4024 -0.2432
C5 C 1.3329(4) -0.2075(2) -0.21780(12)
H13 H 1.3108 -0.1803 -0.2600
H14 H 1.4221 -0.2714 -0.2193
H15 H 1.4000 -0.1516 -0.1927
C6 C 0.9224(5) -0.11423(15) -0.18143(11)
H16 H 0.9137 -0.0854 -0.2237
H17 H 0.9923 -0.0619 -0.1545
H18 H 0.7818 -0.1281 -0.1657
O1 O 1.4861(3) -0.00917(12) -0.09707(8)
C7 C 1.3128(5) 0.0211(2) -0.05917(14)
H19 H 1.3399 0.0027 -0.0152
H20 H 1.1854 -0.0171 -0.0728
C8 C 1.2870(10) 0.1391(3) -0.0665(2)
H21 H 1.1505 0.1555 -0.0856
H22 H 1.2938 0.1751 -0.0255
C9 C 1.4538(6) 0.1770(2) -0.10601(16)
H23 H 1.5632 0.2129 -0.0812
H24 H 1.4005 0.2285 -0.1373
C10 C 1.5373(7) 0.0781(2) -0.13660(14)
H25 H 1.4730 0.0682 -0.1780
H26 H 1.6900 0.0835 -0.1418
K1_2 K 0.59009(8) -0.22015(4) -0.06669(2)
P1C P 0.59183(10) -0.19273(4) 0.08646(2)
K1C K 1.09009(8) -0.27985(4) 0.06669(2)
P1_2 P 2.09183(10) -0.30727(4) -0.08646(2)
P1C_2 P 1.59183(10) -0.19273(4) 0.08646(2)
K1C_2 K 2.09009(8) -0.27985(4) 0.06669(2)
Si1C Si 1.69763(10) -0.02549(4) 0.10343(3)
C1C C 1.4834(4) 0.07271(17) 0.12191(12)
H1C H 1.5431 0.1444 0.1287
H2C H 1.4102 0.0493 0.1595
H3C H 1.3852 0.0756 0.0871
C2C C 1.8301(5) 0.0240(2) 0.03062(12)
H4C H 1.8785 0.0981 0.0369
H5C H 1.7314 0.0220 -0.0040
H6C H 1.9493 -0.0225 0.0212
C3C C 1.8975(5) -0.00913(17) 0.16638(12)
H7C H 1.9343 0.0672 0.1704
H8C H 2.0221 -0.0508 0.1558
H9C H 1.8404 -0.0353 0.2058
Si2C Si 1.57507(10) -0.25602(4) 0.18226(3)
C4C C 1.4401(5) -0.16678(17) 0.24050(10)
H10C H 1.4409 -0.2018 0.2813
H11C H 1.2961 -0.1545 0.2273
H12C H 1.5132 -0.0976 0.2432
C5C C 1.8329(4) -0.2925(2) 0.21780(12)
H13C H 1.8108 -0.3197 0.2600
H14C H 1.9221 -0.2286 0.2193
H15C H 1.9000 -0.3484 0.1927
C6C C 1.4224(5) -0.38577(15) 0.18143(11)
H16C H 1.4137 -0.4146 0.2237
H17C H 1.4923 -0.4381 0.1545
H18C H 1.2818 -0.3719 0.1657
O1C O 0.9861(3) -0.49083(12) 0.09707(8)
C7C C 0.8128(5) -0.5211(2) 0.05917(14)
H19C H 0.8399 -0.5027 0.0152
H20C H 0.6854 -0.4829 0.0728
C8C C 0.7870(10) -0.6391(3) 0.0665(2)
H21C H 0.6505 -0.6555 0.0856
H22C H 0.7938 -0.6751 0.0255
C9C C 0.9538(6) -0.6770(2) 0.10601(16)
H23C H 1.0632 -0.7129 0.0812
H24C H 0.9005 -0.7285 0.1373
C10C C 1.0373(7) -0.5781(2) 0.13660(14)
H25C H 0.9730 -0.5682 0.1780
H26C H 1.1900 -0.5835 0.1418
loop_
_geom_bond_atom_site_label_1
_geom_bond_atom_site_label_2
_geom_bond_site_symmetry_1
_geom_bond_site_symmetry_2
K1 P1 1_555 1_555
P1 Si1 1_555 1_555
Si1 C1 1_555 1_555
C1 H1 1_555 1_555
H2 C1 1_555 1_555
H3 C1 1_555 1_555
C2 Si1 1_555 1_555
H4 C2 1_555 1_555
H5 C2 1_555 1_555
H6 C2 1_555 1_555
C3 Si1 1_555 1_555
H7 C3 1_555 1_555
H8 C3 1_555 1_555
H9 C3 1_555 1_555
Si2 P1 1_555 1_555
C4 Si2 1_555 1_555
H10 C4 1_555 1_555
H11 C4 1_555 1_555
H12 C4 1_555 1_555
C5 Si2 1_555 1_555
H13 C5 1_555 1_555
H14 C5 1_555 1_555
H15 C5 1_555 1_555
C6 Si2 1_555 1_555
H16 C6 1_555 1_555
H17 C6 1_555 1_555
H18 C6 1_555 1_555
O1 K1 1_555 1_555
C7 O1 1_555 1_555
H19 C7 1_555 1_555
H20 C7 1_555 1_555
C8 C7 1_555 1_555
H21 C8 1_555 1_555
H22 C8 1_555 1_555
C9 C8 1_555 1_555
H23 C9 1_555 1_555
H24 C9 1_555 1_555
C10 O1 1_555 1_555
H25 C10 1_555 1_555
H26 C10 1_555 1_555
K1_2 P1 1_555 1_555
P1C K1_2 1_555 1_555
K1C P1 1_555 1_555
P1_2 K1 1_555 1_555
P1C_2 K1 1_555 1_555
K1C_2 P1_2 1_555 1_555
Si1C P1C_2 1_555 1_555
C1C Si1C 1_555 1_555
H1C C1C 1_555 1_555
H2C C1C 1_555 1_555
H3C C1C 1_555 1_555
C2C Si1C 1_555 1_555
H4C C2C 1_555 1_555
H5C C2C 1_555 1_555
H6C C2C 1_555 1_555
C3C Si1C 1_555 1_555
H7C C3C 1_555 1_555
H8C C3C 1_555 1_555
H9C C3C 1_555 1_555
Si2C P1C_2 1_555 1_555
C4C Si2C 1_555 1_555
H10C C4C 1_555 1_555
H11C C4C 1_555 1_555
H12C C4C 1_555 1_555
C5C Si2C 1_555 1_555
H13C C5C 1_555 1_555
H14C C5C 1_555 1_555
H15C C5C 1_555 1_555
C6C Si2C 1_555 1_555
H16C C6C 1_555 1_555
H17C C6C 1_555 1_555
H18C C6C 1_555 1_555
O1C K1C 1_555 1_555
C7C O1C 1_555 1_555
H19C C7C 1_555 1_555
H20C C7C 1_555 1_555
C8C C7C 1_555 1_555
H21C C8C 1_555 1_555
H22C C8C 1_555 1_555
C9C C8C 1_555 1_555
H23C C9C 1_555 1_555
H24C C9C 1_555 1_555
C10C O1C 1_555 1_555
H25C C10C 1_555 1_555
H26C C10C 1_555 1_555
C9 C10 1_555 1_555
P1C K1C 1_555 1_555
K1C P1C_2 1_555 1_555
P1C_2 K1C_2 1_555 1_555
C9C C10C 1_555 1_555

#END
