
#######################################################################
#
#                 Cambridge Crystallographic Data Centre
#                                CCDC 
#
#######################################################################
#
# If this CIF has been generated from an entry in the Cambridge 
# Structural Database, then it will include bibliographic, chemical, 
# crystal, experimental, refinement or atomic coordinate data resulting 
# from the CCDC's data processing and validation procedures.
#
#######################################################################

data_NUMVIA
_symmetry_cell_setting           triclinic
_symmetry_space_group_name_H-M   'P -1'
_symmetry_Int_Tables_number      2
_space_group_name_Hall           '-P 1'
loop_
_symmetry_equiv_pos_site_id
_symmetry_equiv_pos_as_xyz
1 x,y,z
2 -x,-y,-z
_cell_length_a                   7.4060(10)
_cell_length_b                   12.386(2)
_cell_length_c                   12.409(3)
_cell_angle_alpha                105.90(2)
_cell_angle_beta                 101.60(2)
_cell_angle_gamma                91.27(2)
_cell_volume                     1068.77
loop_
_atom_site_label
_atom_site_type_symbol
_atom_site_fract_x
_atom_site_fract_y
_atom_site_fract_z
S1 S 0.9929(2) 0.83631(11) 1.07184(11)
C1 C 0.9218(7) 0.7123(4) 0.9636(5)
N1 N 0.9204(8) 0.7066(4) 0.8562(4)
N2 N 0.8654(8) 0.6225(4) 0.9874(4)
O1 O 0.9510(5) 1.0915(3) 1.1855(3)
O2 O 0.6779(5) 1.0137(3) 1.1785(3)
C2 C 0.8309(8) 1.0670(4) 1.2352(4)
C3 C 0.8692(8) 1.1014(4) 1.3631(5)
C4 C 0.7702(9) 1.0601(5) 1.4270(5)
F1 F 0.6257(7) 0.9831(4) 1.3750(4)
C5 C 0.8086(11) 1.0918(6) 1.5447(6)
H1 H 0.7367(11) 1.0611(6) 1.5842(6)
C6 C 0.9540(11) 1.1689(6) 1.6029(6)
H2 H 0.9827(11) 1.1911(6) 1.6827(6)
C7 C 1.0588(12) 1.2141(6) 1.5429(6)
H3 H 1.1573(12) 1.2673(6) 1.5825(6)
C8 C 1.0180(10) 1.1807(5) 1.4251(5)
H4 H 1.0902(10) 1.2111(5) 1.3857(5)
S2 S 0.5542(2) 1.19548(11) 1.05501(11)
C9 C 0.5519(7) 1.2574(4) 0.9459(5)
N3 N 0.4798(7) 1.2039(4) 0.8376(4)
N4 N 0.6225(7) 1.3622(4) 0.9704(4)
Pb1 Pb 0.74721(3) 0.98569(2) 0.99037(2)
H5 H 0.9600 0.7619 0.8400
H6 H 0.9013 0.6558 0.7977
H7 H 0.8389 0.5679 0.9172
H8 H 0.8854 0.6217 1.0573
H9 H 0.4160 1.1388 0.8242
H10 H 0.4811 1.2322 0.7844
H11 H 0.6939 1.3986 1.0364
H12 H 0.6185 1.3967 0.9160
S1A S 1.0071(2) 1.16369(11) 0.92816(11)
Pb1A Pb 1.25279(3) 1.01431(2) 1.00963(2)
S2A S 0.4458(2) 0.80452(11) 0.94499(11)
Pb1A_2 Pb 0.25279(3) 1.01431(2) 1.00963(2)
O3 O 0.7948(8) 0.4559(4) 0.7758(4)
O4 O 0.5086(8) 0.3757(5) 0.7298(5)
C10 C 0.6485(9) 0.4109(5) 0.7045(5)
C11 C 0.6436(8) 0.3950(5) 0.5799(5)
C12 C 0.7464(10) 0.4669(6) 0.5428(6)
F2 F 0.8540(8) 0.5564(4) 0.6213(4)
C13 C 0.7421(14) 0.4564(7) 0.4300(7)
H13 H 0.8117(14) 0.5074(7) 0.4088(7)
C14 C 0.6375(14) 0.3729(8) 0.3522(7)
H14 H 0.6352(14) 0.3652(8) 0.2752(7)
C15 C 0.5325(13) 0.2973(8) 0.3793(7)
H15 H 0.4601(13) 0.2390(8) 0.3218(7)
C16 C 0.5344(11) 0.3082(7) 0.4968(7)
H16 H 0.4628(11) 0.2574(7) 0.5170(7)
O5 O 0.8046(7) 0.5437(4) 1.1794(4)
H17 H 0.7096 0.5726 1.1965
H18 H 0.9219 0.5515 1.2176
loop_
_geom_bond_atom_site_label_1
_geom_bond_atom_site_label_2
_geom_bond_site_symmetry_1
_geom_bond_site_symmetry_2
S1 C1 1_555 1_555
C1 N1 1_555 1_555
N1 H5 1_555 1_555
N2 C1 1_555 1_555
O1 C2 1_555 1_555
O2 C2 1_555 1_555
C2 C3 1_555 1_555
C3 C4 1_555 1_555
C4 F1 1_555 1_555
C5 C4 1_555 1_555
H1 C5 1_555 1_555
C6 C5 1_555 1_555
H2 C6 1_555 1_555
C7 C6 1_555 1_555
H3 C7 1_555 1_555
C8 C3 1_555 1_555
H4 C8 1_555 1_555
S2 C9 1_555 1_555
C9 N3 1_555 1_555
N3 H9 1_555 1_555
N4 C9 1_555 1_555
Pb1 S1 1_555 1_555
H6 N1 1_555 1_555
H7 N2 1_555 1_555
H8 N2 1_555 1_555
H10 N3 1_555 1_555
H11 N4 1_555 1_555
H12 N4 1_555 1_555
O3 C10 1_555 1_555
O4 C10 1_555 1_555
C10 C11 1_555 1_555
C11 C12 1_555 1_555
C12 F2 1_555 1_555
C13 C12 1_555 1_555
H13 C13 1_555 1_555
C14 C13 1_555 1_555
H14 C14 1_555 1_555
C15 C14 1_555 1_555
H15 C15 1_555 1_555
C16 C11 1_555 1_555
H16 C16 1_555 1_555
O5 H17 1_555 1_555
H18 O5 1_555 1_555
S1A Pb1 1_555 1_555
Pb1A S1 1_555 1_555
S2A Pb1 1_555 1_555
Pb1A_2 S2 1_555 1_555
O1 Pb1 1_555 1_555
O2 Pb1 1_555 1_555
C7 C8 1_555 1_555
S2 Pb1 1_555 1_555
C15 C16 1_555 1_555
S1A Pb1A 1_555 1_555
S2A Pb1A_2 1_555 1_555

#END
