
#######################################################################
#
#                 Cambridge Crystallographic Data Centre
#                                CCDC 
#
#######################################################################
#
# If this CIF has been generated from an entry in the Cambridge 
# Structural Database, then it will include bibliographic, chemical, 
# crystal, experimental, refinement or atomic coordinate data resulting 
# from the CCDC's data processing and validation procedures.
#
#######################################################################

data_NUMZOL
_symmetry_cell_setting           orthorhombic
_symmetry_space_group_name_H-M   'P b c m'
_symmetry_Int_Tables_number      57
_space_group_name_Hall           '-P 2c 2b'
loop_
_symmetry_equiv_pos_site_id
_symmetry_equiv_pos_as_xyz
1 x,y,z
2 -x,-y,1/2+z
3 x,1/2-y,-z
4 -x,1/2+y,1/2-z
5 -x,-y,-z
6 x,y,1/2-z
7 -x,1/2+y,z
8 x,1/2-y,1/2+z
_cell_length_a                   15.2500(5)
_cell_length_b                   17.8880(6)
_cell_length_c                   6.4355(2)
_cell_angle_alpha                90
_cell_angle_beta                 90
_cell_angle_gamma                90
_cell_volume                     1755.55
loop_
_atom_site_label
_atom_site_type_symbol
_atom_site_fract_x
_atom_site_fract_y
_atom_site_fract_z
Ag1 Ag 0.17896(5) 0.2500 0.5000
Ag2 Ag 0.38017(6) 0.20636(5) 0.2500
S1 S 0.04549(14) 0.12228(12) 0.2500
S2 S 0.47013(16) 0.12404(14) 0.7500
O1 O 0.0560(3) 0.1664(3) 0.4363(11)
O2 O -0.0343(4) 0.0781(4) 0.2500
O3 O 0.2428(4) 0.1525(3) 0.2500
O4 O 0.4665(5) 0.1693(6) 0.568(2)
O5 O 0.5395(5) 0.0712(5) 0.7500
O6 O 0.2788(5) 0.1844(4) 0.7500
N1 N 0.1774(5) -0.0675(4) 0.2500
H1 H 0.1638 -0.1142 0.2500
N2 N 0.3027(6) -0.0444(5) 0.7500
H2 H 0.3071 -0.0923 0.7500
C1 C 0.1326(5) 0.0583(5) 0.2500
C2 C 0.1128(6) -0.0161(5) 0.2500
H3 H 0.0545 -0.0313 0.2500
C3 C 0.2629(7) -0.0477(5) 0.2500
H4 H 0.3060 -0.0845 0.2500
C4 C 0.2867(5) 0.0267(5) 0.2500
H5 H 0.3458 0.0397 0.2500
C5 C 0.2221(6) 0.0834(5) 0.2500
C6 C 0.3717(6) 0.0758(5) 0.7500
C7 C 0.3771(7) -0.0018(6) 0.7500
H6 H 0.4318 -0.0249 0.7500
C8 C 0.2227(6) -0.0125(6) 0.7500
H7 H 0.1730 -0.0427 0.7500
C9 C 0.2133(7) 0.0635(7) 0.7500
H8 H 0.1573 0.0841 0.7500
C10 C 0.2881(6) 0.1122(5) 0.7500
Ag1E Ag 0.17896(5) 0.2500 0.0000
Ag1E_2 Ag 0.17896(5) 0.2500 1.0000
Ag2B Ag 0.38017(6) 0.29364(5) 0.7500
Ag2_2 Ag 0.38017(6) 0.20636(5) 1.2500
O1E O 0.0560(3) 0.1664(3) 0.0637(11)
O1B O 0.0560(3) 0.3336(3) 0.5637(11)
O3B O 0.2428(4) 0.3475(3) 0.7500
O4E O 0.4665(5) 0.1693(6) 0.932(2)
O4B O 0.4665(5) 0.3307(6) 0.432(2)
O4G O 0.4665(5) 0.3307(6) 0.068(2)
O4E_2 O 0.4665(5) 0.1693(6) -0.068(2)
O6B O 0.2788(5) 0.3156(4) 0.2500
O7 O 0.0689(4) -0.2500 0.0000
O8 O 0.4161(6) -0.2500 1.0000
O9? O 0.0778(10) -0.1987(8) 0.2500
O10? O 0.387(2) -0.1881(18) 0.7500
loop_
_geom_bond_atom_site_label_1
_geom_bond_atom_site_label_2
_geom_bond_site_symmetry_1
_geom_bond_site_symmetry_2
Ag1 O1 1_555 1_555
Ag2 O3 1_555 1_555
S1 O1 1_555 1_555
S2 O4 1_555 1_555
O2 S1 1_555 1_555
O3 Ag1 1_555 1_555
O4 Ag2 1_555 1_555
O5 S2 1_555 1_555
O6 Ag1 1_555 1_555
N1 H1 1_555 1_555
N2 H2 1_555 1_555
C1 S1 1_555 1_555
C2 N1 1_555 1_555
H3 C2 1_555 1_555
C3 N1 1_555 1_555
H4 C3 1_555 1_555
C4 C3 1_555 1_555
H5 C4 1_555 1_555
C5 O3 1_555 1_555
C6 S2 1_555 1_555
C7 N2 1_555 1_555
H6 C7 1_555 1_555
C8 N2 1_555 1_555
H7 C8 1_555 1_555
C9 C8 1_555 1_555
H8 C9 1_555 1_555
C10 O6 1_555 1_555
Ag1E O3 1_555 1_555
Ag1E_2 O6 1_555 1_555
Ag2B O4 1_555 1_555
Ag2_2 O4E 1_555 1_555
O1E S1 1_555 1_555
O1B Ag1 1_555 1_555
O3B Ag1 1_555 1_555
O4E S2 1_555 1_555
O4B Ag2 1_555 1_555
O4G Ag2 1_555 1_555
O4E_2 Ag2 1_555 1_555
O6B Ag1 1_555 1_555
Ag2 O6B 1_555 1_555
O6 Ag2B 1_555 1_555
C1 C2 1_555 1_555
C1 C5 1_555 1_555
C4 C5 1_555 1_555
C6 C7 1_555 1_555
C6 C10 1_555 1_555
C9 C10 1_555 1_555
Ag1E O1E 1_555 1_555
Ag1E O6B 1_555 1_555
Ag1E_2 O3B 1_555 1_555
Ag2B O3B 1_555 1_555
Ag2B O4E 1_555 1_555
Ag2B O4B 1_555 1_555

#END
