
#######################################################################
#
#                 Cambridge Crystallographic Data Centre
#                                CCDC 
#
#######################################################################
#
# If this CIF has been generated from an entry in the Cambridge 
# Structural Database, then it will include bibliographic, chemical, 
# crystal, experimental, refinement or atomic coordinate data resulting 
# from the CCDC's data processing and validation procedures.
#
#######################################################################

data_NUNFUZ
_symmetry_cell_setting           triclinic
_symmetry_space_group_name_H-M   'P -1'
_symmetry_Int_Tables_number      2
_space_group_name_Hall           '-P 1'
loop_
_symmetry_equiv_pos_site_id
_symmetry_equiv_pos_as_xyz
1 x,y,z
2 -x,-y,-z
_cell_length_a                   9.8558(5)
_cell_length_b                   12.1424(6)
_cell_length_c                   12.7113(6)
_cell_angle_alpha                116.010(5)
_cell_angle_beta                 96.509(4)
_cell_angle_gamma                92.511(4)
_cell_volume                     1350.85
loop_
_atom_site_label
_atom_site_type_symbol
_atom_site_fract_x
_atom_site_fract_y
_atom_site_fract_z
Dy1 Dy -0.25001(3) -0.79387(2) -0.27374(2)
Cu1 Cu -0.47234(7) -0.61537(6) -0.49357(6)
Cu2 Cu -0.23360(7) -1.17134(6) -0.39594(6)
Cu3 Cu -0.18138(7) -1.39359(6) -0.37035(6)
O1 O -0.2355(4) -1.0060(3) -0.2817(3)
O2 O -0.1422(4) -1.4275(3) -0.2404(3)
O3 O -0.4260(4) -0.6529(3) -0.3657(3)
O4 O -0.2863(4) -1.1423(3) -0.5289(4)
O5 O -0.2077(4) -0.8435(3) -0.1120(3)
O6 O -0.1921(4) -1.5614(3) -0.4861(3)
C1 C -0.1899(5) -1.0320(5) -0.1004(5)
C2 C -0.1308(5) -1.3544(5) -0.1292(5)
O7 O -0.2694(4) -1.1631(4) -0.7050(4)
C3 C -0.4151(5) -0.5805(5) -0.2543(5)
C4 C -0.1756(5) -1.1608(5) -0.1563(5)
O8 O -0.4715(4) -0.4430(3) -0.3916(3)
C5 C -0.1789(6) -1.5832(5) -0.7793(5)
H1 H -0.1576 -1.6642 -0.8133
C6 C -0.1509(6) -1.1539(5) 0.0377(5)
H2 H -0.1384 -1.1945 0.0849
C7 C -0.2195(5) -1.4020(5) -0.6075(5)
C8 C -0.1515(5) -1.2207(5) -0.0849(5)
C9 C -0.2125(5) -0.9581(5) -0.1680(5)
C10 C -0.4789(5) -0.3867(5) -0.2752(5)
C11 C -0.2655(5) -1.2078(5) -0.6347(5)
C12 C -0.1851(6) -1.5241(5) -0.6577(5)
C13 C -0.4541(5) -0.4512(5) -0.2065(5)
C14 C -0.1853(6) -0.9706(5) 0.0201(5)
H3 H -0.1939 -0.8865 0.0551
O9 O -0.2336(4) -1.3441(3) -0.4916(3)
C15 C -0.1568(6) -1.5972(5) -0.5909(5)
O10 O -0.1048(7) -1.6925(5) -0.6372(5)
C16 C -0.1683(6) -1.0298(5) 0.0904(5)
H4 H -0.1685 -0.9875 0.1716
O11 O -0.1861(4) -1.2223(3) -0.2742(3)
C17 C -0.2370(5) -1.3407(5) -0.6788(5)
O12 O -0.1041(4) -1.3955(3) -0.0560(3)
O13 O -0.3692(4) -0.6208(3) -0.1837(3)
C18 C -0.5041(5) -0.2614(5) -0.2186(5)
C19 C -0.4603(5) -0.3922(5) -0.0854(5)
H5 H -0.4432 -0.4345 -0.0402
C20 C -0.2293(6) -1.4055(6) -0.7987(5)
H6 H -0.2426 -1.3655 -0.8463
C21 C -0.2031(6) -1.5254(6) -0.8492(5)
H7 H -0.2017 -1.5673 -0.9302
O14 O -0.0882(4) -0.6389(3) -0.1283(3)
H8 H -0.0678 -0.6557 -0.0701
H9 H -0.1224 -0.5700 -0.1037
O15 O -0.1268(4) -0.6840(3) -0.3580(3)
H10 H -0.0823 -0.6146 -0.3024
H11 H -0.1838 -0.6655 -0.4051
O16 O -0.5197(4) -0.0676(3) -0.2161(3)
O17 O -0.4656(4) -0.8837(3) -0.2722(4)
H12 H -0.4607 -0.9593 -0.2889
H13 H -0.5247 -0.8783 -0.3236
O18 O -0.3163(4) -0.9009(4) -0.4799(3)
H14 H -0.3986 -0.8870 -0.4992
H15 H -0.3151 -0.9794 -0.5032
C22 C -0.5172(5) -0.1777(5) -0.2771(5)
C23 C -0.4918(6) -0.2717(5) -0.0314(5)
H16 H -0.5003 -0.2344 0.0486
C24 C -0.5103(6) -0.2075(5) -0.0977(5)
H17 H -0.5276 -0.1254 -0.0603
O19 O -0.5221(4) -0.2198(3) -0.3920(3)
O20 O -0.0313(4) -0.8797(4) -0.3200(4)
H18 H 0.0266 -0.8239 -0.3167
H19 H -0.0434 -0.9394 -0.3893
O21 O 0.0140(5) -1.1255(4) -0.4159(4)
H20 H 0.0412 -1.1575 -0.4831
H21 H 0.0405 -1.1644 -0.3770
Cu1_2 Cu -0.47234(7) -1.61537(6) -0.49357(6)
Cu1A Cu -0.52766(7) -0.38463(6) -0.50643(6)
O6_2 O -0.1921(4) -0.5614(3) -0.4861(3)
O8A O -0.5285(4) -0.5570(3) -0.6084(3)
O19A O -0.4779(4) -0.7802(3) -0.6080(3)
loop_
_geom_bond_atom_site_label_1
_geom_bond_atom_site_label_2
_geom_bond_site_symmetry_1
_geom_bond_site_symmetry_2
Dy1 O1 1_555 1_555
Cu1 O3 1_555 1_555
Cu2 O1 1_555 1_555
Cu3 O2 1_555 1_555
O1 C9 1_555 1_555
O2 C2 1_555 1_555
O3 C3 1_555 1_555
O4 Cu2 1_555 1_555
O5 Dy1 1_555 1_555
O6 Cu3 1_555 1_555
C1 C4 1_555 1_555
C2 C8 1_555 1_555
O7 C11 1_555 1_555
C3 C13 1_555 1_555
C4 C8 1_555 1_555
O8 Cu1 1_555 1_555
C5 H1 1_555 1_555
C6 H2 1_555 1_555
C7 C12 1_555 1_555
C8 C6 1_555 1_555
C9 O5 1_555 1_555
C10 O8 1_555 1_555
C11 O4 1_555 1_555
C12 C5 1_555 1_555
C13 C10 1_555 1_555
C14 C1 1_555 1_555
H3 C14 1_555 1_555
O9 Cu2 1_555 1_555
C15 O6 1_555 1_555
O10 C15 1_555 1_555
C16 C6 1_555 1_555
H4 C16 1_555 1_555
O11 Cu2 1_555 1_555
C17 C7 1_555 1_555
O12 C2 1_555 1_555
O13 Dy1 1_555 1_555
C18 C10 1_555 1_555
C19 C13 1_555 1_555
H5 C19 1_555 1_555
C20 C17 1_555 1_555
H6 C20 1_555 1_555
C21 C5 1_555 1_555
H7 C21 1_555 1_555
O14 Dy1 1_555 1_555
H8 O14 1_555 1_555
H9 O14 1_555 1_555
O15 Dy1 1_555 1_555
H10 O15 1_555 1_555
H11 O15 1_555 1_555
O16 C22 1_555 1_555
O17 Dy1 1_555 1_555
H12 O17 1_555 1_555
H13 O17 1_555 1_555
O18 Dy1 1_555 1_555
H14 O18 1_555 1_555
H15 O18 1_555 1_555
C22 C18 1_555 1_555
C23 C19 1_555 1_555
H16 C23 1_555 1_555
C24 C18 1_555 1_555
H17 C24 1_555 1_555
O19 C22 1_555 1_555
O20 Dy1 1_555 1_555
H18 O20 1_555 1_555
H19 O20 1_555 1_555
O21 Cu2 1_555 1_555
H20 O21 1_555 1_555
H21 O21 1_555 1_555
Cu1_2 O6 1_555 1_555
Cu1A O8 1_555 1_555
O6_2 Cu1 1_555 1_555
O8A Cu1 1_555 1_555
O19A Cu1 1_555 1_555
Cu3 O9 1_555 1_555
Cu3 O11 1_555 1_555
C1 C9 1_555 1_555
C3 O13 1_555 1_555
C4 O11 1_555 1_555
C7 O9 1_555 1_555
C11 C17 1_555 1_555
C12 C15 1_555 1_555
C14 C16 1_555 1_555
C20 C21 1_555 1_555
C23 C24 1_555 1_555
O19 Cu1A 1_555 1_555
Cu1A O8A 1_555 1_555

#END
