
#######################################################################
#
#                 Cambridge Crystallographic Data Centre
#                                CCDC 
#
#######################################################################
#
# If this CIF has been generated from an entry in the Cambridge 
# Structural Database, then it will include bibliographic, chemical, 
# crystal, experimental, refinement or atomic coordinate data resulting 
# from the CCDC's data processing and validation procedures.
#
#######################################################################

data_NUNGAG
_symmetry_cell_setting           triclinic
_symmetry_space_group_name_H-M   'P -1'
_symmetry_Int_Tables_number      2
_space_group_name_Hall           '-P 1'
loop_
_symmetry_equiv_pos_site_id
_symmetry_equiv_pos_as_xyz
1 x,y,z
2 -x,-y,-z
_cell_length_a                   11.5374(4)
_cell_length_b                   12.9882(4)
_cell_length_c                   14.0916(5)
_cell_angle_alpha                62.648(4)
_cell_angle_beta                 83.193(3)
_cell_angle_gamma                80.362(3)
_cell_volume                     1846.99
loop_
_atom_site_label
_atom_site_type_symbol
_atom_site_fract_x
_atom_site_fract_y
_atom_site_fract_z
Eu1 Eu 0.54128(2) 0.23662(3) 0.05037(2)
Eu2 Eu 0.45029(2) -0.23168(3) 0.44589(2)
Cu1 Cu 1.06233(6) 0.48201(6) 0.10613(6)
Cu2 Cu 0.81872(6) 0.41947(6) 0.15004(6)
Cu3 Cu 0.17616(6) -0.38151(6) 0.35120(6)
Cu4 Cu -0.06898(6) -0.44270(6) 0.38729(6)
O1 O -0.2162(3) -0.3669(4) 0.4090(3)
O2 O -0.1286(3) -0.5699(4) 0.3876(3)
O3 O 0.5341(3) 0.1287(3) 0.2451(3)
O4 O 0.7437(3) 0.1660(4) 0.0918(3)
O5 O 0.4787(3) -0.0323(4) 0.3859(3)
C1 C 0.8026(5) 0.2240(5) 0.1153(5)
O6 O 0.4982(3) 0.0435(3) 0.1127(3)
O7 O 0.2476(3) -0.1361(4) 0.4215(3)
C2 C 0.8663(5) 0.6365(5) 0.1459(4)
C3 C 0.1899(5) -0.1906(5) 0.3942(5)
O8 O 0.4465(3) -0.1189(3) 0.2524(3)
C4 C 0.9462(5) 0.7090(5) 0.1467(5)
C5 C 0.1315(5) -0.6020(5) 0.3553(5)
C6 C 1.2306(5) 0.3014(5) 0.0922(5)
C7 C 1.0142(5) 0.2656(5) 0.1094(4)
C8 C 1.1355(5) 0.2276(5) 0.1077(5)
C9 C -0.1456(5) -0.1911(5) 0.3915(5)
C10 C 0.6518(5) 0.6070(5) 0.1451(5)
C11 C 0.9019(5) 0.8154(5) 0.1455(5)
H1 H 0.9556 0.8638 0.1449
C12 C 1.1730(5) 0.1154(5) 0.1180(5)
H2 H 1.2550 0.0891 0.1183
C13 C 0.7826(5) 0.8542(5) 0.1450(5)
H3 H 0.7546 0.9277 0.1441
C14 C -0.0224(5) -0.2296(5) 0.3900(4)
C15 C -0.1046(5) -0.0155(5) 0.3955(5)
H4 H -0.1322 0.0572 0.3965
C16 C 1.0772(5) 0.6803(5) 0.1432(4)
C17 C 0.4793(5) -0.0198(5) 0.2110(5)
C18 C 0.0576(5) -0.1584(5) 0.3918(5)
C19 C 0.9746(5) 0.0820(5) 0.1265(5)
H5 H 0.9197 0.0328 0.1309
C20 C 0.0138(5) -0.0549(5) 0.3967(5)
H6 H 0.0675 -0.0094 0.4010
C21 C -0.2405(5) -0.2623(6) 0.3977(5)
C22 C 0.9332(5) 0.1911(5) 0.1189(5)
C23 C 0.3431(5) -0.5749(5) 0.3658(5)
C24 C 1.0940(5) 0.0414(5) 0.1279(5)
H7 H 1.1207 -0.0352 0.1355
C25 C 0.4990(5) 0.0298(5) 0.2881(5)
O9 O 0.9735(3) 0.3741(3) 0.0980(3)
O10 O 1.1280(3) 0.6015(3) 0.1143(3)
O11 O 0.9069(3) 0.5365(3) 0.1423(3)
O12 O 0.0182(3) -0.3316(4) 0.3892(3)
O13 O 0.2446(3) -0.2705(3) 0.3698(3)
O14 O -0.3443(3) -0.2155(4) 0.3959(3)
O15 O 0.0901(3) -0.5022(3) 0.3633(3)
O16 O 1.3343(3) 0.2559(3) 0.0910(3)
O17 O 0.6713(3) 0.4976(4) 0.1744(3)
O18 O -0.1377(3) -0.7002(3) 0.3301(3)
O19 O 0.7488(3) 0.3076(3) 0.1348(3)
O20 O 1.2077(3) 0.4079(3) 0.0772(3)
O21 O 0.3245(3) -0.4634(3) 0.3349(3)
O22 O 0.5528(3) 0.6636(4) 0.1154(3)
O23 O 0.4388(3) -0.6325(3) 0.4012(3)
C26 C 0.2528(5) -0.6383(5) 0.3542(5)
C27 C 0.2178(5) -0.8105(5) 0.3422(5)
H8 H 0.2469 -0.8813 0.3382
C28 C -0.1830(5) -0.0847(5) 0.3927(5)
H9 H -0.2649 -0.0579 0.3915
C29 C 0.0534(5) -0.6710(5) 0.3484(5)
C30 C 0.2938(5) -0.7435(5) 0.3488(5)
H10 H 0.3760 -0.7690 0.3498
C31 C 0.0991(5) -0.7736(5) 0.3414(5)
H11 H 0.0466 -0.8194 0.3359
C32 C -0.0788(5) -0.6462(5) 0.3561(5)
C33 C 0.7439(5) 0.6751(5) 0.1480(5)
C34 C 0.7055(5) 0.7831(5) 0.1457(5)
H12 H 0.6234 0.8092 0.1447
O24 O 0.5035(3) 0.3852(3) 0.1135(3)
H13 H 0.4546 0.4445 0.0717
H14 H 0.5698 0.4105 0.1131
O25 O 0.6397(4) 0.4041(3) -0.0888(3)
H15 H 0.6264 0.4157 -0.1540
O26 O 0.5036(3) -0.3757(3) 0.3819(4)
O27 O 0.3534(3) -0.4043(4) 0.5774(4)
O28 O 1.1381(3) 0.7363(3) 0.1664(3)
O29 O 0.6455(3) 0.1672(4) -0.0794(4)
O30 O 0.3748(4) -0.1935(4) 0.6026(4)
H16 H 0.2985 -0.1742 0.5953
H17 H 0.4135 -0.1467 0.6018
H18 H 0.562(4) -0.428(4) 0.404(5)
H19 H 0.453(3) -0.400(4) 0.360(6)
H20 H 0.715(3) 0.183(6) -0.104(4)
H21 H 0.610(3) 0.162(7) -0.126(4)
H22 H 0.366(5) -0.414(6) 0.6396(19)
H23 H 0.2798(13) -0.388(5) 0.569(4)
H24 H 0.7084(17) 0.398(9) -0.081(5)
Eu1_2 Eu 1.54128(2) 0.23662(3) 0.05037(2)
Eu1A Eu 0.45872(2) 0.76338(3) -0.05037(2)
Eu2_2 Eu -0.54971(2) -0.23168(3) 0.44589(2)
Eu2A Eu 0.54971(2) -0.76832(3) 0.55411(2)
Cu1A Cu 0.93767(6) 0.51799(6) -0.10613(6)
Cu2_2 Cu -0.18128(6) -0.58053(6) 0.15004(6)
Cu3_2 Cu 1.17616(6) 0.61849(6) 0.35120(6)
O9A O 1.0265(3) 0.6259(3) -0.0980(3)
O14_2 O 0.6557(3) -0.2155(4) 0.3959(3)
O16_2 O 0.3343(3) 0.2559(3) 0.0910(3)
O18_2 O 0.8623(3) 0.2998(3) 0.3301(3)
O22A O 0.4472(3) 0.3364(4) -0.1154(3)
O23A O 0.5612(3) -0.3675(3) 0.5988(3)
O28_2 O 0.1381(3) -0.2637(3) 0.1664(3)
loop_
_geom_bond_atom_site_label_1
_geom_bond_atom_site_label_2
_geom_bond_site_symmetry_1
_geom_bond_site_symmetry_2
Eu1 O3 1_555 1_555
Eu2 O5 1_555 1_555
Cu1 O9 1_555 1_555
Cu2 O9 1_555 1_555
Cu3 O12 1_555 1_555
Cu4 O1 1_555 1_555
O1 C21 1_555 1_555
O2 Cu4 1_555 1_555
O3 C25 1_555 1_555
O4 Eu1 1_555 1_555
O5 C25 1_555 1_555
C1 O4 1_555 1_555
O6 Eu1 1_555 1_555
O7 Eu2 1_555 1_555
C2 C4 1_555 1_555
C3 O7 1_555 1_555
O8 Eu2 1_555 1_555
C4 C11 1_555 1_555
C5 O15 1_555 1_555
C6 C8 1_555 1_555
C7 C8 1_555 1_555
C8 C12 1_555 1_555
C9 C14 1_555 1_555
C10 O17 1_555 1_555
C11 H1 1_555 1_555
C12 H2 1_555 1_555
C13 C11 1_555 1_555
H3 C13 1_555 1_555
C14 C18 1_555 1_555
C15 H4 1_555 1_555
C16 C4 1_555 1_555
C17 O6 1_555 1_555
C18 C3 1_555 1_555
C19 H5 1_555 1_555
C20 C15 1_555 1_555
H6 C20 1_555 1_555
C21 C9 1_555 1_555
C22 C1 1_555 1_555
C23 O21 1_555 1_555
C24 C12 1_555 1_555
H7 C24 1_555 1_555
C25 C17 1_555 1_555
O9 C7 1_555 1_555
O10 Cu1 1_555 1_555
O11 Cu1 1_555 1_555
O12 Cu4 1_555 1_555
O13 Cu3 1_555 1_555
O14 C21 1_555 1_555
O15 Cu3 1_555 1_555
O16 C6 1_555 1_555
O17 Cu2 1_555 1_555
O18 C32 1_555 1_555
O19 Cu2 1_555 1_555
O20 Cu1 1_555 1_555
O21 Cu3 1_555 1_555
O22 C10 1_555 1_555
O23 C23 1_555 1_555
C26 C5 1_555 1_555
C27 H8 1_555 1_555
C28 C9 1_555 1_555
H9 C28 1_555 1_555
C29 C5 1_555 1_555
C30 C26 1_555 1_555
H10 C30 1_555 1_555
C31 C27 1_555 1_555
H11 C31 1_555 1_555
C32 O2 1_555 1_555
C33 C2 1_555 1_555
C34 C13 1_555 1_555
H12 C34 1_555 1_555
O24 Eu1 1_555 1_555
H13 O24 1_555 1_555
H14 O24 1_555 1_555
O25 Eu1 1_555 1_555
H15 O25 1_555 1_555
O26 Eu2 1_555 1_555
O27 Eu2 1_555 1_555
O28 C16 1_555 1_555
O29 Eu1 1_555 1_555
O30 Eu2 1_555 1_555
H16 O30 1_555 1_555
H17 O30 1_555 1_555
H18 O26 1_555 1_555
H19 O26 1_555 1_555
H20 O29 1_555 1_555
H21 O29 1_555 1_555
H22 O27 1_555 1_555
H23 O27 1_555 1_555
H24 O25 1_555 1_555
Eu1_2 O16 1_555 1_555
Eu1A O22 1_555 1_555
Eu2_2 O14 1_555 1_555
Eu2A O23 1_555 1_555
Cu1A O9 1_555 1_555
Cu2_2 O18 1_555 1_555
Cu3_2 O28 1_555 1_555
O9A Cu1 1_555 1_555
O14_2 Eu2 1_555 1_555
O16_2 Eu1 1_555 1_555
O18_2 Cu2 1_555 1_555
O22A Eu1 1_555 1_555
O23A Eu2 1_555 1_555
O28_2 Cu3 1_555 1_555
Cu2 O11 1_555 1_555
Cu4 O15 1_555 1_555
C1 O19 1_555 1_555
C2 O11 1_555 1_555
C3 O13 1_555 1_555
O8 C17 1_555 1_555
C6 O20 1_555 1_555
C7 C22 1_555 1_555
C10 C33 1_555 1_555
C14 O12 1_555 1_555
C15 C28 1_555 1_555
C16 O10 1_555 1_555
C18 C20 1_555 1_555
C19 C22 1_555 1_555
C19 C24 1_555 1_555
C23 C26 1_555 1_555
C27 C30 1_555 1_555
C29 C31 1_555 1_555
C29 C32 1_555 1_555
C33 C34 1_555 1_555
Cu1A O9A 1_555 1_555

#END
