
#######################################################################
#
#                 Cambridge Crystallographic Data Centre
#                                CCDC 
#
#######################################################################
#
# If this CIF has been generated from an entry in the Cambridge 
# Structural Database, then it will include bibliographic, chemical, 
# crystal, experimental, refinement or atomic coordinate data resulting 
# from the CCDC's data processing and validation procedures.
#
#######################################################################

data_NUNGEK
_symmetry_cell_setting           triclinic
_symmetry_space_group_name_H-M   'P -1'
_symmetry_Int_Tables_number      2
_space_group_name_Hall           '-P 1'
loop_
_symmetry_equiv_pos_site_id
_symmetry_equiv_pos_as_xyz
1 x,y,z
2 -x,-y,-z
_cell_length_a                   9.8540(8)
_cell_length_b                   12.1938(8)
_cell_length_c                   12.7115(8)
_cell_angle_alpha                116.079(6)
_cell_angle_beta                 96.789(6)
_cell_angle_gamma                92.058(6)
_cell_volume                     1355.63
loop_
_atom_site_label
_atom_site_type_symbol
_atom_site_fract_x
_atom_site_fract_y
_atom_site_fract_z
Gd1 Gd 0.24825(4) 0.70653(3) 0.22452(3)
Cu1 Cu 0.31677(9) 0.10625(7) 0.12953(7)
Cu2 Cu 0.26465(9) 0.32850(7) 0.10296(7)
O1 O 0.2634(5) 0.4936(3) 0.2171(4)
O2 O 0.3563(5) 0.0725(3) 0.2594(3)
O3 O 0.2109(5) 0.3559(4) -0.0317(4)
O4 O 0.2637(5) 0.1554(4) 0.0067(3)
O5 O 0.3947(5) 0.1048(4) 0.4443(4)
O6 O 0.3068(5) -0.0613(4) 0.0138(4)
C1 C 0.3484(6) 0.2788(5) 0.4151(5)
C2 C 0.3696(7) 0.1470(6) 0.3717(6)
O7 O 0.2331(5) 0.3344(4) -0.2072(4)
C3 C 0.2353(6) 0.2894(6) -0.1369(6)
O8 O 0.3113(5) 0.2775(3) 0.2242(3)
C4 C 0.3090(6) 0.4670(5) 0.3966(5)
C5 C 0.2628(7) 0.1580(5) -0.1794(5)
C6 C 0.3159(6) -0.0248(5) -0.1573(5)
O9 O 0.2924(5) 0.6557(4) 0.3874(4)
C7 C 0.3501(7) 0.3454(6) 0.5368(6)
H1 H 0.3638(7) 0.3057(6) 0.5845(6)
C8 C 0.3444(8) -0.0965(6) -0.0893(6)
C9 C 0.3228(6) 0.3385(5) 0.3435(5)
C10 C 0.3150(7) 0.5285(5) 0.5194(5)
H2 H 0.3072(7) 0.6124(5) 0.5549(5)
C11 C 0.2805(7) 0.0973(5) -0.1082(5)
C12 C 0.2878(7) 0.5412(6) 0.3322(5)
O10 O 0.0765(5) 0.8482(3) 0.1369(4)
O11 O 0.1280(5) 0.8829(4) 0.3197(4)
C13 C 0.2710(7) 0.0938(6) -0.2994(5)
H3 H 0.2581(7) 0.1335(6) -0.3473(5)
C14 C 0.0441(6) 1.0500(5) 0.2931(5)
C15 C 0.3219(7) -0.0840(6) -0.2777(6)
H4 H 0.3431(7) -0.1649(6) -0.3109(6)
C16 C 0.0855(7) 0.9220(5) 0.2475(6)
C17 C 0.3319(8) 0.4698(6) 0.5887(6)
H5 H 0.3312(8) 0.5122(6) 0.6699(6)
C18 C 0.2978(7) -0.0276(6) -0.3493(6)
H6 H 0.2994(7) -0.0703(6) -0.4303(6)
Cu3 Cu 0.02947(9) 0.88549(7) 0.00752(7)
O12 O 0.4119(5) 0.8627(4) 0.3725(4)
O13 O 0.3757(5) 0.8140(4) 0.1399(4)
O14 O 0.0278(5) 1.0573(3) 0.1088(3)
O15 O 0.4682(6) 0.6198(5) 0.1784(5)
C19 C 0.0063(8) 1.2302(6) 0.4664(6)
H7 H -0.0018(8) 1.2686(6) 0.5465(6)
C20 C 0.0372(7) 1.1103(5) 0.4150(6)
H8 H 0.0536(7) 1.0691(5) 0.4611(6)
C21 C -0.0060(7) 1.2391(5) 0.2798(5)
C22 C 0.0200(6) 1.1139(5) 0.2252(5)
C23 C -0.0126(7) 1.2931(6) 0.4004(5)
H9 H -0.0305(7) 1.3748(6) 0.4375(5)
O16 O -0.0222(5) 1.4319(4) 0.2823(4)
C24 C -0.0186(7) 1.3216(6) 0.2197(6)
O17 O 0.0311(5) 0.6152(4) 0.2241(5)
O18 O -0.0257(5) 1.2783(4) 0.1069(4)
O19 O 0.1805(6) 0.5976(4) 0.0163(4)
O20 O 0.5098(6) 0.3718(5) 0.0830(5)
O21 O 0.4008(8) -0.1908(5) -0.1348(5)
H10 H 0.026(5) 0.555(3) 0.239(4)
H11 H 0.180(7) 0.5202(12) -0.023(5)
H12 H 0.334(6) 0.838(5) 0.092(4)
H13 H 0.543(8) 0.322(6) 0.106(6)
H14 H 0.464(5) 0.853(5) 0.426(4)
H15 H 0.542(7) 0.368(6) 0.023(4)
H16 H -0.047(3) 0.642(5) 0.220(7)
H17 H 0.461(6) 0.5419(11) 0.141(6)
H18 H 0.123(7) 0.625(6) -0.019(6)
H19 H 0.552(2) 0.647(5) 0.201(6)
H20 H 0.395(9) 0.937(2) 0.396(5)
H21 H 0.423(7) 0.874(4) 0.199(4)
O6_2 O 0.3068(5) 0.9387(4) 0.0138(4)
Cu3_2 Cu 0.02947(9) -0.11451(7) 0.00752(7)
Cu3A Cu -0.02947(9) 1.11451(7) -0.00752(7)
O14A O -0.0278(5) 0.9427(3) -0.1088(3)
O18A O 0.0257(5) 0.7217(4) -0.1069(4)
loop_
_geom_bond_atom_site_label_1
_geom_bond_atom_site_label_2
_geom_bond_site_symmetry_1
_geom_bond_site_symmetry_2
Gd1 O1 1_555 1_555
Cu1 O2 1_555 1_555
Cu2 O1 1_555 1_555
O1 C12 1_555 1_555
O2 C2 1_555 1_555
O3 Cu2 1_555 1_555
O4 Cu1 1_555 1_555
O5 C2 1_555 1_555
O6 Cu1 1_555 1_555
C1 C2 1_555 1_555
O7 C3 1_555 1_555
C3 O3 1_555 1_555
O8 Cu1 1_555 1_555
C4 C9 1_555 1_555
C5 C3 1_555 1_555
C6 C8 1_555 1_555
O9 Gd1 1_555 1_555
C7 C1 1_555 1_555
H1 C7 1_555 1_555
C8 O6 1_555 1_555
C9 C1 1_555 1_555
C10 C4 1_555 1_555
H2 C10 1_555 1_555
C11 O4 1_555 1_555
C12 C4 1_555 1_555
O10 C16 1_555 1_555
O11 Gd1 1_555 1_555
C13 C5 1_555 1_555
H3 C13 1_555 1_555
C14 C16 1_555 1_555
C15 C6 1_555 1_555
H4 C15 1_555 1_555
C16 O11 1_555 1_555
C17 C7 1_555 1_555
H5 C17 1_555 1_555
C18 C13 1_555 1_555
H6 C18 1_555 1_555
Cu3 O10 1_555 1_555
O12 Gd1 1_555 1_555
O13 Gd1 1_555 1_555
O14 Cu3 1_555 1_555
O15 Gd1 1_555 1_555
C19 H7 1_555 1_555
C20 C14 1_555 1_555
H8 C20 1_555 1_555
C21 C22 1_555 1_555
C22 C14 1_555 1_555
C23 C19 1_555 1_555
H9 C23 1_555 1_555
O16 C24 1_555 1_555
C24 C21 1_555 1_555
O17 Gd1 1_555 1_555
O18 C24 1_555 1_555
O19 Gd1 1_555 1_555
O20 Cu2 1_555 1_555
O21 C8 1_555 1_555
H10 O17 1_555 1_555
H11 O19 1_555 1_555
H12 O13 1_555 1_555
H13 O20 1_555 1_555
H14 O12 1_555 1_555
H15 O20 1_555 1_555
H16 O17 1_555 1_555
H17 O15 1_555 1_555
H18 O19 1_555 1_555
H19 O15 1_555 1_555
H20 O12 1_555 1_555
H21 O13 1_555 1_555
O6_2 Cu3 1_555 1_555
Cu3_2 O6 1_555 1_555
Cu3A O14 1_555 1_555
O14A Cu3 1_555 1_555
O18A Cu3 1_555 1_555
Cu2 O4 1_555 1_555
Cu2 O8 1_555 1_555
O8 C9 1_555 1_555
C5 C11 1_555 1_555
C6 C11 1_555 1_555
O9 C12 1_555 1_555
C10 C17 1_555 1_555
C15 C18 1_555 1_555
O14 C22 1_555 1_555
C19 C20 1_555 1_555
C21 C23 1_555 1_555
O18 Cu3A 1_555 1_555
Cu3A O14A 1_555 1_555

#END
