
#######################################################################
#
#                 Cambridge Crystallographic Data Centre
#                                CCDC 
#
#######################################################################
#
# If this CIF has been generated from an entry in the Cambridge 
# Structural Database, then it will include bibliographic, chemical, 
# crystal, experimental, refinement or atomic coordinate data resulting 
# from the CCDC's data processing and validation procedures.
#
#######################################################################

data_NUNGIO
_symmetry_cell_setting           triclinic
_symmetry_space_group_name_H-M   'P -1'
_symmetry_Int_Tables_number      2
_space_group_name_Hall           '-P 1'
loop_
_symmetry_equiv_pos_site_id
_symmetry_equiv_pos_as_xyz
1 x,y,z
2 -x,-y,-z
_cell_length_a                   11.5654(16)
_cell_length_b                   13.0337(17)
_cell_length_c                   14.192(2)
_cell_angle_alpha                63.048(2)
_cell_angle_beta                 83.259(3)
_cell_angle_gamma                80.009(2)
_cell_volume                     1876.2
loop_
_atom_site_label
_atom_site_type_symbol
_atom_site_fract_x
_atom_site_fract_y
_atom_site_fract_z
Sm1 Sm 0.040328(19) 0.73591(2) 0.04760(2)
Sm2 Sm -0.051485(19) 0.27364(2) 0.443581(19)
Cu1 Cu 0.56272(5) 0.98559(5) 0.10650(5)
Cu2 Cu 0.32003(5) 0.92634(5) 0.14958(5)
Cu3 Cu -0.32582(5) 0.12433(5) 0.35461(5)
Cu4 Cu -0.57039(5) 0.06687(5) 0.38665(5)
O1 O -0.4849(3) 0.1793(3) 0.3863(3)
O2 O -0.7180(3) 0.1459(3) 0.4025(3)
O3 O 0.4077(3) 1.0423(3) 0.1417(3)
O4 O 0.4737(3) 0.8798(3) 0.0969(3)
O5 O -0.4118(3) 0.0033(3) 0.3694(3)
O6 O 0.2504(3) 0.8143(3) 0.1356(3)
O7 O -0.2591(3) 0.2382(3) 0.3702(3)
O8 O -0.1775(3) 0.0391(3) 0.3435(3)
O9 O 0.1731(3) 1.0083(3) 0.1694(3)
O10 O 0.6303(3) 1.1022(3) 0.1175(3)
O11 O -0.2556(3) 0.3711(3) 0.4215(3)
O12 O -0.0270(3) 0.4761(3) 0.3802(3)
O13 O -0.6303(3) -0.0604(3) 0.3887(3)
C1 C 0.3020(4) 0.7311(4) 0.1154(4)
O14 O -0.0556(3) 0.3839(3) 0.2501(3)
O15 O 0.2421(3) 0.6755(3) 0.0916(3)
O16 O -0.0032(3) 0.5424(3) 0.1122(3)
O17 O 0.0311(3) 0.6318(3) 0.2411(3)
C2 C 0.7308(4) 0.8043(4) 0.0918(4)
C3 C -0.3148(4) 0.3167(4) 0.3953(4)
C4 C 0.6359(4) 0.7321(4) 0.1080(4)
C5 C -0.6483(4) 0.3193(4) 0.3895(4)
C6 C 0.3691(4) 1.1433(4) 0.1455(4)
C7 C -0.5251(4) 0.2809(4) 0.3892(3)
C8 C -0.7419(4) 0.2498(5) 0.3944(4)
C9 C -0.3690(4) -0.0964(4) 0.3594(4)
C10 C -0.6854(4) 0.4245(5) 0.3926(4)
H1 H -0.7656 0.4502 0.3930
C11 C 0.5137(4) 0.7706(4) 0.1096(3)
C12 C -0.4895(4) 0.4539(4) 0.3971(4)
H2 H -0.4372 0.4980 0.4018
C13 C -0.4019(4) -0.2642(4) 0.3416(4)
H3 H -0.4528 -0.3084 0.3353
C14 C -0.4495(4) -0.1619(4) 0.3504(4)
C15 C -0.4453(4) 0.3490(4) 0.3925(4)
C16 C 0.4324(4) 0.6972(4) 0.1186(4)
C17 C 0.6717(4) 0.6187(4) 0.1193(4)
H4 H 0.7516 0.5913 0.1202
C18 C 0.4734(4) 0.5864(4) 0.1282(4)
H5 H 0.4198 0.5379 0.1343
C19 C 0.4482(4) 1.2130(4) 0.1456(4)
C20 C 0.5796(4) 1.1833(4) 0.1435(4)
C21 C -0.6081(4) 0.4934(5) 0.3950(4)
H6 H -0.6357 0.5647 0.3952
C22 C -0.0226(4) 0.4815(4) 0.2085(4)
C23 C 0.5922(4) 0.5468(5) 0.1291(5)
H7 H 0.6183 0.4722 0.1361
C24 C -0.0043(4) 0.5338(4) 0.2849(4)
O18 O 0.7075(3) 0.9098(3) 0.0782(3)
O19 O 0.6395(3) 1.2374(3) 0.1674(3)
O20 O -0.6384(3) -0.1874(3) 0.3291(3)
C25 C -0.2495(4) -0.1322(4) 0.3582(4)
C26 C 0.2471(4) 1.1816(4) 0.1460(4)
C27 C -0.1589(4) -0.0717(4) 0.3722(4)
C28 C -0.5798(4) -0.1347(4) 0.3552(4)
C29 C 0.1530(4) 1.1177(5) 0.1438(4)
C30 C 0.2081(4) 1.2916(5) 0.1427(4)
H8 H 0.1281 1.3187 0.1408
C31 C -0.2079(4) -0.2360(4) 0.3504(4)
H9 H -0.1275 -0.2610 0.3510
C32 C 0.4053(5) 1.3216(4) 0.1441(4)
H10 H 0.4578 1.3680 0.1444
C33 C -0.2837(4) -0.3014(4) 0.3419(4)
H11 H -0.2552 -0.3699 0.3365
C34 C 0.2873(5) 1.3597(5) 0.1421(5)
H12 H 0.2603 1.4320 0.1404
O21 O 0.8335(3) 0.7603(3) 0.0870(3)
O22 O -0.8466(3) 0.2956(3) 0.3935(3)
O23 O 0.0533(3) 1.1727(3) 0.1181(3)
O24 O 0.1495(3) 0.6611(4) -0.0766(3)
H13 H 0.2158 0.6913 -0.1042
H14 H 0.1184 0.6465 -0.1204
O25 O 0.0061(3) 0.8855(3) 0.1100(3)
H15 H -0.0650 0.9208 0.1208
H16 H 0.0624 0.9141 0.1262
O26 O 0.1374(3) 0.9038(3) -0.0928(3)
H17 H 0.2046 0.9233 -0.1155
H18 H 0.0974 0.9081 -0.1410
O27 O -0.0627(3) -0.1299(3) 0.4079(3)
O28 O -0.1165(6) 0.3177(7) 0.5965(5)
H19 H -0.081(9) 0.272(8) 0.653(5)
H20 H -0.080(9) 0.377(7) 0.564(8)
O29 O -0.1466(4) 0.1031(5) 0.5716(4)
H21 H -0.2225 0.1193 0.5726
H22 H -0.1233 0.0818 0.6344
O30 O 0.0075(4) 0.1282(4) 0.3799(4)
H23 H 0.061(4) 0.071(4) 0.395(5)
H24 H -0.049(4) 0.122(5) 0.350(5)
Sm1_2 Sm 1.040328(19) 0.73591(2) 0.04760(2)
Sm1A Sm -0.040328(19) 1.26409(2) -0.04760(2)
Sm2_2 Sm -1.051485(19) 0.27364(2) 0.443581(19)
Sm2A Sm 0.051485(19) -0.27364(2) 0.556419(19)
Cu1A Cu 0.43728(5) 1.01441(5) -0.10650(5)
Cu2_2 Cu -0.67997(5) -0.07366(5) 0.14958(5)
Cu3_2 Cu 0.67418(5) 1.12433(5) 0.35461(5)
O4A O 0.5263(3) 1.1202(3) -0.0969(3)
O19_2 O -0.3605(3) 0.2374(3) 0.1674(3)
O20_2 O 0.3616(3) 0.8126(3) 0.3291(3)
O21_2 O -0.1665(3) 0.7603(3) 0.0870(3)
O22_2 O 0.1534(3) 0.2956(3) 0.3935(3)
O23A O -0.0533(3) 0.8273(3) -0.1181(3)
O27A O 0.0627(3) 0.1299(3) 0.5921(3)
loop_
_geom_bond_atom_site_label_1
_geom_bond_atom_site_label_2
_geom_bond_site_symmetry_1
_geom_bond_site_symmetry_2
Sm1 O15 1_555 1_555
Sm2 O7 1_555 1_555
Cu1 O3 1_555 1_555
Cu2 O3 1_555 1_555
Cu3 O1 1_555 1_555
Cu4 O1 1_555 1_555
O1 C7 1_555 1_555
O2 Cu4 1_555 1_555
O3 C6 1_555 1_555
O4 Cu1 1_555 1_555
O5 Cu3 1_555 1_555
O6 Cu2 1_555 1_555
O7 Cu3 1_555 1_555
O8 Cu3 1_555 1_555
O9 Cu2 1_555 1_555
O10 Cu1 1_555 1_555
O11 Sm2 1_555 1_555
O12 Sm2 1_555 1_555
O13 Cu4 1_555 1_555
C1 O6 1_555 1_555
O14 Sm2 1_555 1_555
O15 C1 1_555 1_555
O16 Sm1 1_555 1_555
O17 Sm1 1_555 1_555
C2 C4 1_555 1_555
C3 O7 1_555 1_555
C4 C11 1_555 1_555
C5 C7 1_555 1_555
C6 C19 1_555 1_555
C7 C15 1_555 1_555
C8 O2 1_555 1_555
C9 O5 1_555 1_555
C10 C5 1_555 1_555
H1 C10 1_555 1_555
C11 O4 1_555 1_555
C12 H2 1_555 1_555
C13 H3 1_555 1_555
C14 C9 1_555 1_555
C15 C3 1_555 1_555
C16 C1 1_555 1_555
C17 C4 1_555 1_555
H4 C17 1_555 1_555
C18 C16 1_555 1_555
H5 C18 1_555 1_555
C19 C20 1_555 1_555
C20 O10 1_555 1_555
C21 C10 1_555 1_555
H6 C21 1_555 1_555
C22 O14 1_555 1_555
C23 C17 1_555 1_555
H7 C23 1_555 1_555
C24 O12 1_555 1_555
O18 Cu1 1_555 1_555
O19 C20 1_555 1_555
O20 C28 1_555 1_555
C25 C9 1_555 1_555
C26 C6 1_555 1_555
C27 O8 1_555 1_555
C28 O13 1_555 1_555
C29 O9 1_555 1_555
C30 C26 1_555 1_555
H8 C30 1_555 1_555
C31 C25 1_555 1_555
H9 C31 1_555 1_555
C32 C19 1_555 1_555
H10 C32 1_555 1_555
C33 C13 1_555 1_555
H11 C33 1_555 1_555
C34 C30 1_555 1_555
H12 C34 1_555 1_555
O21 C2 1_555 1_555
O22 C8 1_555 1_555
O23 C29 1_555 1_555
O24 Sm1 1_555 1_555
H13 O24 1_555 1_555
H14 O24 1_555 1_555
O25 Sm1 1_555 1_555
H15 O25 1_555 1_555
H16 O25 1_555 1_555
O26 Sm1 1_555 1_555
H17 O26 1_555 1_555
H18 O26 1_555 1_555
O27 C27 1_555 1_555
O28 Sm2 1_555 1_555
H19 O28 1_555 1_555
H20 O28 1_555 1_555
O29 Sm2 1_555 1_555
H21 O29 1_555 1_555
H22 O29 1_555 1_555
O30 Sm2 1_555 1_555
H23 O30 1_555 1_555
H24 O30 1_555 1_555
Sm1_2 O21 1_555 1_555
Sm1A O23 1_555 1_555
Sm2_2 O22 1_555 1_555
Sm2A O27 1_555 1_555
Cu1A O4 1_555 1_555
Cu2_2 O20 1_555 1_555
Cu3_2 O19 1_555 1_555
O4A Cu1 1_555 1_555
O19_2 Cu3 1_555 1_555
O20_2 Cu2 1_555 1_555
O21_2 Sm1 1_555 1_555
O22_2 Sm2 1_555 1_555
O23A Sm1 1_555 1_555
O27A Sm2 1_555 1_555
Cu2 O4 1_555 1_555
Cu4 O5 1_555 1_555
O11 C3 1_555 1_555
O16 C22 1_555 1_555
O17 C24 1_555 1_555
C2 O18 1_555 1_555
C5 C8 1_555 1_555
C11 C16 1_555 1_555
C12 C15 1_555 1_555
C12 C21 1_555 1_555
C13 C14 1_555 1_555
C14 C28 1_555 1_555
C18 C23 1_555 1_555
C22 C24 1_555 1_555
C25 C27 1_555 1_555
C26 C29 1_555 1_555
C31 C33 1_555 1_555
C32 C34 1_555 1_555
Cu1A O4A 1_555 1_555

#END
