
#######################################################################
#
#                 Cambridge Crystallographic Data Centre
#                                CCDC 
#
#######################################################################
#
# If this CIF has been generated from an entry in the Cambridge 
# Structural Database, then it will include bibliographic, chemical, 
# crystal, experimental, refinement or atomic coordinate data resulting 
# from the CCDC's data processing and validation procedures.
#
#######################################################################

data_NUNNUH
_symmetry_cell_setting           tetragonal
_symmetry_space_group_name_H-M   'P 41 21 2'
_symmetry_Int_Tables_number      92
_space_group_name_Hall           'P 4abw 2nw'
loop_
_symmetry_equiv_pos_site_id
_symmetry_equiv_pos_as_xyz
1 x,y,z
2 -x,-y,1/2+z
3 1/2+x,1/2-y,3/4-z
4 1/2-x,1/2+y,1/4-z
5 -y,-x,1/2-z
6 y,x,-z
7 1/2+y,1/2-x,3/4+z
8 1/2-y,1/2+x,1/4+z
_cell_length_a                   11.1813(4)
_cell_length_b                   11.1813(4)
_cell_length_c                   31.5520(13)
_cell_angle_alpha                90
_cell_angle_beta                 90
_cell_angle_gamma                90
_cell_volume                     3944.68
loop_
_atom_site_label
_atom_site_type_symbol
_atom_site_fract_x
_atom_site_fract_y
_atom_site_fract_z
Ni1 Ni 1.300509(18) 0.699491(18) 0.7500
C1 C 1.08804(15) 0.86952(15) 0.65144(5)
C2 C 1.10120(15) 0.95329(16) 0.61925(5)
H1 H 1.1756 0.9880 0.6146
C3 C 1.00444(15) 0.98601(15) 0.59386(5)
C4 C 0.89318(15) 0.93447(16) 0.60082(5)
H2 H 0.8278 0.9575 0.5846
C5 C 0.87993(16) 0.84763(16) 0.63244(5)
C6 C 0.97692(15) 0.81608(16) 0.65762(5)
H3 H 0.9675 0.7589 0.6788
C7 C 1.19298(16) 0.84175(15) 0.68010(5)
C8 C 1.02493(15) 1.07796(15) 0.55959(5)
C9 C 0.75935(15) 0.79186(17) 0.63906(5)
O1 O 1.17961(10) 0.75733(11) 0.70607(4)
O2 O 1.42976(12) 0.82716(11) 0.73439(4)
H4 H 1.388(2) 0.860(2) 0.7137(8)
H5 H 1.479(3) 0.785(3) 0.7219(8)
O3 O 1.28413(11) 0.90650(12) 0.67608(4)
O4 O 1.12936(10) 1.08488(11) 0.54518(4)
O5 O 0.93786(11) 1.14247(12) 0.54787(4)
O6 O 0.67146(11) 0.81857(14) 0.61893(4)
O7 O 0.76090(12) 0.71043(13) 0.66939(4)
H6 H 0.686(3) 0.683(3) 0.6765(9)
C1D C 1.13048(15) 0.91196(15) 0.84856(5)
C2D C 1.04671(16) 0.89880(15) 0.88075(5)
H1D H 1.0120 0.8244 0.8854
C3D C 1.01399(15) 0.99556(15) 0.90614(5)
C4D C 1.06553(16) 1.10682(15) 0.89918(5)
H2D H 1.0425 1.1722 0.9154
C5D C 1.15237(16) 1.12007(16) 0.86756(5)
C6D C 1.18392(16) 1.02308(15) 0.84238(5)
H3D H 1.2411 1.0325 0.8212
C7D C 1.15825(15) 0.80702(16) 0.81990(5)
C8D C 0.92204(15) 0.97507(15) 0.94041(5)
C9D C 1.20814(17) 1.24065(15) 0.86094(5)
O1D O 1.24267(11) 0.82039(10) 0.79393(4)
O2D O 1.17284(11) 0.57024(12) 0.76561(4)
H4D H 1.140(2) 0.612(2) 0.7863(8)
H5D H 1.215(3) 0.521(3) 0.7781(8)
O3D O 1.09350(12) 0.71587(11) 0.82392(4)
O4D O 0.91512(11) 0.87064(10) 0.95482(4)
O5D O 0.85753(12) 1.06214(11) 0.95213(4)
O6D O 1.18143(14) 1.32854(11) 0.88107(4)
O7D O 1.28957(13) 1.23910(12) 0.83061(4)
H6D H 1.317(3) 1.314(3) 0.8235(9)
Ni1B Ni 0.800509(18) 0.800509(18) 1.0000
Ni1C Ni 1.199491(18) 1.199491(18) 0.5000
O4C O 1.37064(10) 0.58488(11) 0.70482(4)
O4G O 1.41512(11) 0.62936(10) 0.79518(4)
N1 N 1.37503(15) 0.86306(15) 0.56852(5)
N2 N 1.24794(16) 0.74042(15) 0.54078(5)
C10 C 1.43032(19) 0.97489(18) 0.58282(6)
H7 H 1.3873 1.0416 0.5712
H8 H 1.5119 0.9777 0.5734
H9 H 1.4280 0.9787 0.6132
C11 C 1.27600(17) 0.85456(17) 0.54563(6)
H10 H 1.2330 0.9187 0.5347
C12 C 1.4123(2) 0.7496(2) 0.57878(9)
H11 H 1.4792 0.7295 0.5947
C13 C 1.3335(2) 0.6735(2) 0.56141(8)
H12 H 1.3363 0.5905 0.5630
C14 C 1.14210(19) 0.6938(2) 0.51844(6)
H13 H 1.1656 0.6251 0.5016
H14 H 1.1127 0.7547 0.4991
C15 C 1.04235(19) 0.6577(2) 0.54792(6)
H15 H 1.0197 0.7256 0.5653
H16 H 1.0702 0.5947 0.5666
C16 C 0.9337(2) 0.6138(2) 0.52337(8)
H17 H 0.9037 0.6788 0.5060
H18 H 0.9586 0.5500 0.5045
C17 C 0.8339(3) 0.5685(4) 0.55100(11)
H19 H 0.7688 0.5422 0.5335
H20 H 0.8071 0.6317 0.5693
H21 H 0.8622 0.5028 0.5678
loop_
_geom_bond_atom_site_label_1
_geom_bond_atom_site_label_2
_geom_bond_site_symmetry_1
_geom_bond_site_symmetry_2
Ni1 O1 1_555 1_555
C1 C2 1_555 1_555
C2 H1 1_555 1_555
C3 C2 1_555 1_555
C4 C3 1_555 1_555
H2 C4 1_555 1_555
C5 C4 1_555 1_555
C6 C1 1_555 1_555
H3 C6 1_555 1_555
C7 C1 1_555 1_555
C8 C3 1_555 1_555
C9 C5 1_555 1_555
O1 C7 1_555 1_555
O2 Ni1 1_555 1_555
H4 O2 1_555 1_555
H5 O2 1_555 1_555
O3 C7 1_555 1_555
O4 C8 1_555 1_555
O5 C8 1_555 1_555
O6 C9 1_555 1_555
O7 C9 1_555 1_555
H6 O7 1_555 1_555
N1 C10 1_555 1_555
N2 C11 1_555 1_555
C10 H7 1_555 1_555
H8 C10 1_555 1_555
H9 C10 1_555 1_555
C11 N1 1_555 1_555
H10 C11 1_555 1_555
C12 N1 1_555 1_555
H11 C12 1_555 1_555
C13 N2 1_555 1_555
H12 C13 1_555 1_555
C14 N2 1_555 1_555
H13 C14 1_555 1_555
H14 C14 1_555 1_555
C15 C14 1_555 1_555
H15 C15 1_555 1_555
H16 C15 1_555 1_555
C16 C15 1_555 1_555
H17 C16 1_555 1_555
H18 C16 1_555 1_555
C17 C16 1_555 1_555
H19 C17 1_555 1_555
H20 C17 1_555 1_555
H21 C17 1_555 1_555
C1D C2D 1_555 1_555
C2D H1D 1_555 1_555
C3D C2D 1_555 1_555
C4D C3D 1_555 1_555
H2D C4D 1_555 1_555
C5D C4D 1_555 1_555
C6D C1D 1_555 1_555
H3D C6D 1_555 1_555
C7D C1D 1_555 1_555
C8D C3D 1_555 1_555
C9D C5D 1_555 1_555
O1D Ni1 1_555 1_555
O2D Ni1 1_555 1_555
H4D O2D 1_555 1_555
H5D O2D 1_555 1_555
O3D C7D 1_555 1_555
O4D C8D 1_555 1_555
O5D C8D 1_555 1_555
O6D C9D 1_555 1_555
O7D C9D 1_555 1_555
H6D O7D 1_555 1_555
Ni1B O4D 1_555 1_555
Ni1C O4 1_555 1_555
O4C Ni1 1_555 1_555
O4G Ni1 1_555 1_555
C5 C6 1_555 1_555
C12 C13 1_555 1_555
C5D C6D 1_555 1_555
C7D O1D 1_555 1_555

#END
