
#######################################################################
#
#                 Cambridge Crystallographic Data Centre
#                                CCDC 
#
#######################################################################
#
# If this CIF has been generated from an entry in the Cambridge 
# Structural Database, then it will include bibliographic, chemical, 
# crystal, experimental, refinement or atomic coordinate data resulting 
# from the CCDC's data processing and validation procedures.
#
#######################################################################

data_NUNPOC
_symmetry_cell_setting           triclinic
_symmetry_space_group_name_H-M   'P -1'
_symmetry_Int_Tables_number      2
_space_group_name_Hall           '-P 1'
loop_
_symmetry_equiv_pos_site_id
_symmetry_equiv_pos_as_xyz
1 x,y,z
2 -x,-y,-z
_cell_length_a                   5.5844(11)
_cell_length_b                   6.6770(13)
_cell_length_c                   18.631(4)
_cell_angle_alpha                81.34(3)
_cell_angle_beta                 86.77(3)
_cell_angle_gamma                68.36(3)
_cell_volume                     638.37
loop_
_atom_site_label
_atom_site_type_symbol
_atom_site_fract_x
_atom_site_fract_y
_atom_site_fract_z
Na1 Na 1.28244(19) 0.41119(18) 0.44136(5)
Na2 Na 0.70103(18) 0.05082(15) 0.05556(5)
N1 N 1.2379(4) 0.4267(3) 0.29938(10)
C1 C 1.1039(4) 0.3240(4) 0.27451(12)
C2 C 1.0250(4) 0.3696(4) 0.20111(12)
C3 C 1.0921(4) 0.5287(4) 0.15822(12)
H1 H 1.0392 0.5653 0.1100
C4 C 1.2339(4) 0.6372(4) 0.18300(12)
C5 C 1.3080(4) 0.5774(4) 0.25638(12)
C6 C 1.0527(5) 0.1626(4) 0.33584(13)
O1 O 1.1267(4) 0.1553(3) 0.39697(9)
O2 O 0.9322(4) 0.0429(3) 0.32087(10)
C7 C 0.8762(5) 0.2689(4) 0.16184(13)
O3 O 0.7999(4) 0.1219(3) 0.19559(9)
H2 H 0.8543 0.0954 0.2396
O4 O 0.8325(3) 0.3309(3) 0.09639(9)
C8 C 1.2832(4) 0.8074(4) 0.12553(12)
O5 O 1.1680(3) 0.8518(3) 0.06780(9)
O6 O 1.4448(3) 0.8925(3) 0.13981(9)
C9 C 1.4680(5) 0.6635(4) 0.29836(13)
O7 O 1.5562(4) 0.8069(3) 0.26636(10)
H3 H 1.5260 0.8359 0.2205
O8 O 1.5129(4) 0.5911(3) 0.36238(9)
O9 O 1.6891(4) 0.2384(3) 0.49492(11)
H4 H 1.8156 0.2081 0.4655
H5 H 1.7251 0.1117 0.5202
O10 O 0.8582(4) 0.6942(3) 0.43369(10)
H6 H 0.8616 0.8205 0.4131
H7 H 0.7414 0.6720 0.4094
O11 O 0.2943(3) 0.2647(3) 0.00399(9)
H8 H 0.2605 0.3963 -0.0208
H9 H 0.1455 0.2949 0.0272
Na1A Na 1.71756(19) 0.58881(18) 0.55864(5)
Na1A_2 Na 0.71756(19) 0.58881(18) 0.55864(5)
Na2_2 Na 0.70103(18) 1.05082(15) 0.05556(5)
Na2A Na 1.29897(18) 0.94918(15) -0.05556(5)
Na2_3 Na 1.70103(18) 1.05082(15) 0.05556(5)
Na2A_2 Na 0.29897(18) -0.05082(15) -0.05556(5)
O5_2 O 1.1680(3) -0.1482(3) 0.06780(9)
O5A O 0.8320(3) 0.1482(3) -0.06780(9)
O6_2 O 0.4448(3) -0.1075(3) 0.13981(9)
O9A O 1.3109(4) 0.7616(3) 0.50508(11)
H4A H 1.1844 0.7919 0.5345
H5A H 1.2749 0.8883 0.4798
O10A O 1.1418(4) 0.3058(3) 0.56631(10)
H6A H 1.1384 0.1795 0.5869
H7A H 1.2586 0.3280 0.5906
O11A O 0.7057(3) -0.2647(3) -0.00399(9)
H8A H 0.7395 -0.3963 0.0208
H9A H 0.8545 -0.2949 -0.0272
loop_
_geom_bond_atom_site_label_1
_geom_bond_atom_site_label_2
_geom_bond_site_symmetry_1
_geom_bond_site_symmetry_2
Na1 N1 1_555 1_555
Na2 O3 1_555 1_555
N1 C1 1_555 1_555
C1 C2 1_555 1_555
C2 C3 1_555 1_555
C3 H1 1_555 1_555
C4 C3 1_555 1_555
C5 N1 1_555 1_555
C6 C1 1_555 1_555
O1 Na1 1_555 1_555
O2 C6 1_555 1_555
C7 C2 1_555 1_555
O3 C7 1_555 1_555
H2 O3 1_555 1_555
O4 Na2 1_555 1_555
C8 C4 1_555 1_555
O5 C8 1_555 1_555
O6 C8 1_555 1_555
C9 C5 1_555 1_555
O7 C9 1_555 1_555
H3 O7 1_555 1_555
O8 Na1 1_555 1_555
O9 Na1 1_555 1_555
H4 O9 1_555 1_555
H5 O9 1_555 1_555
O10 Na1 1_555 1_555
H6 O10 1_555 1_555
H7 O10 1_555 1_555
O11 Na2 1_555 1_555
H8 O11 1_555 1_555
H9 O11 1_555 1_555
Na1A O9 1_555 1_555
Na1A_2 O10 1_555 1_555
Na2_2 O5 1_555 1_555
Na2A O5 1_555 1_555
Na2_3 O6 1_555 1_555
Na2A_2 O11 1_555 1_555
O5_2 Na2 1_555 1_555
O5A Na2 1_555 1_555
O6_2 Na2 1_555 1_555
O9A Na1 1_555 1_555
H4A O9A 1_555 1_555
H5A O9A 1_555 1_555
O10A Na1 1_555 1_555
H6A O10A 1_555 1_555
H7A O10A 1_555 1_555
O11A Na2 1_555 1_555
H8A O11A 1_555 1_555
H9A O11A 1_555 1_555
C4 C5 1_555 1_555
C6 O1 1_555 1_555
C7 O4 1_555 1_555
C9 O8 1_555 1_555
Na1A O9A 1_555 1_555
Na1A_2 O10A 1_555 1_555
Na2A_2 O11A 1_555 1_555

#END
