
#######################################################################
#
#                 Cambridge Crystallographic Data Centre
#                                CCDC 
#
#######################################################################
#
# If this CIF has been generated from an entry in the Cambridge 
# Structural Database, then it will include bibliographic, chemical, 
# crystal, experimental, refinement or atomic coordinate data resulting 
# from the CCDC's data processing and validation procedures.
#
#######################################################################

data_NUNROF
_symmetry_cell_setting           monoclinic
_symmetry_space_group_name_H-M   'P 21/n'
_symmetry_Int_Tables_number      14
_space_group_name_Hall           '-P 2yn'
loop_
_symmetry_equiv_pos_site_id
_symmetry_equiv_pos_as_xyz
1 x,y,z
2 1/2-x,1/2+y,1/2-z
3 -x,-y,-z
4 1/2+x,1/2-y,1/2+z
_cell_length_a                   9.7157(5)
_cell_length_b                   10.1084(4)
_cell_length_c                   19.1032(8)
_cell_angle_alpha                90
_cell_angle_beta                 94.253(4)
_cell_angle_gamma                90
_cell_volume                     1870.96
loop_
_atom_site_label
_atom_site_type_symbol
_atom_site_fract_x
_atom_site_fract_y
_atom_site_fract_z
Ag1 Ag 0.60743(5) 0.90392(5) 0.75850(2)
N1 N 0.4776(5) 1.0892(5) 0.7031(2)
N2 N 0.6289(4) 0.8967(4) 0.6414(2)
H1 H 0.551(3) 0.857(5) 0.635(3)
N3 N 0.8485(5) 0.4548(4) 0.6222(2)
H2 H 0.764(2) 0.430(6) 0.615(3)
N4 N 0.9795(5) 0.2258(4) 0.6775(2)
C1 C 0.5250(6) 1.1200(5) 0.6425(3)
C2 C 0.4805(7) 1.2325(6) 0.6057(3)
H3 H 0.5137 1.2512 0.5623
C3 C 0.3882(8) 1.3151(7) 0.6333(5)
H4 H 0.3597 1.3921 0.6098
C4 C 0.3385(7) 1.2833(7) 0.6956(4)
H5 H 0.2744 1.3373 0.7154
C5 C 0.3847(6) 1.1701(7) 0.7286(3)
H6 H 0.3497 1.1482 0.7711
C6 C 0.6295(6) 1.0296(6) 0.6132(3)
H7 H 0.6116 1.0252 0.5626
H8 H 0.7208 1.0673 0.6230
C7 C 0.7311(6) 0.8140(6) 0.6104(3)
H9 H 0.8218 0.8524 0.6207
H10 H 0.7124 0.8135 0.5598
C8 C 0.7326(6) 0.6724(6) 0.6369(3)
H11 H 0.7531 0.6713 0.6873
H12 H 0.6425 0.6325 0.6266
C9 C 0.8386(7) 0.5954(5) 0.6023(3)
H13 H 0.8188 0.6010 0.5519
H14 H 0.9278 0.6364 0.6134
C10 C 0.9617(6) 0.3952(5) 0.5882(3)
H15 H 1.0434 0.4493 0.5977
H16 H 0.9393 0.3957 0.5379
C11 C 0.9944(6) 0.2577(5) 0.6107(3)
C12 C 1.0454(6) 0.1685(6) 0.5646(3)
H17 H 1.0518 0.1917 0.5178
C13 C 1.0863(7) 0.0462(7) 0.5877(4)
H18 H 1.1243 -0.0138 0.5576
C14 C 1.0703(7) 0.0137(6) 0.6561(3)
H19 H 1.0954 -0.0697 0.6733
C15 C 1.0176(8) 0.1045(6) 0.6982(3)
H20 H 1.0072 0.0811 0.7446
Ag1A Ag 0.89257(5) 0.40392(5) 0.74150(2)
N3A N 0.6515(5) 0.9548(4) 0.8778(2)
N4A N 0.5205(5) 0.7258(4) 0.8225(2)
Cl1 Cl 0.29820(15) 0.70366(14) 0.57588(7)
O1 O 0.3454(6) 0.8258(6) 0.5514(3)
O2 O 0.3663(6) 0.6820(8) 0.6410(3)
O3 O 0.3282(7) 0.6034(6) 0.5282(3)
O4 O 0.1568(5) 0.7124(6) 0.5832(3)
loop_
_geom_bond_atom_site_label_1
_geom_bond_atom_site_label_2
_geom_bond_site_symmetry_1
_geom_bond_site_symmetry_2
Ag1 N1 1_555 1_555
N1 C1 1_555 1_555
N2 Ag1 1_555 1_555
H1 N2 1_555 1_555
N3 H2 1_555 1_555
N4 C11 1_555 1_555
C1 C2 1_555 1_555
C2 H3 1_555 1_555
C3 C2 1_555 1_555
H4 C3 1_555 1_555
C4 C3 1_555 1_555
H5 C4 1_555 1_555
C5 N1 1_555 1_555
H6 C5 1_555 1_555
C6 N2 1_555 1_555
H7 C6 1_555 1_555
H8 C6 1_555 1_555
C7 N2 1_555 1_555
H9 C7 1_555 1_555
H10 C7 1_555 1_555
C8 C7 1_555 1_555
H11 C8 1_555 1_555
H12 C8 1_555 1_555
C9 N3 1_555 1_555
H13 C9 1_555 1_555
H14 C9 1_555 1_555
C10 N3 1_555 1_555
H15 C10 1_555 1_555
H16 C10 1_555 1_555
C11 C10 1_555 1_555
C12 C11 1_555 1_555
H17 C12 1_555 1_555
C13 C12 1_555 1_555
H18 C13 1_555 1_555
C14 C13 1_555 1_555
H19 C14 1_555 1_555
C15 N4 1_555 1_555
H20 C15 1_555 1_555
Cl1 O1 1_555 1_555
O2 Cl1 1_555 1_555
O3 Cl1 1_555 1_555
O4 Cl1 1_555 1_555
Ag1A N3 1_555 1_555
N3A Ag1 1_555 1_555
N4A Ag1 1_555 1_555
N4 Ag1A 1_555 1_555
C1 C6 1_555 1_555
C4 C5 1_555 1_555
C8 C9 1_555 1_555
C14 C15 1_555 1_555

#END
