
#######################################################################
#
#                 Cambridge Crystallographic Data Centre
#                                CCDC 
#
#######################################################################
#
# If this CIF has been generated from an entry in the Cambridge 
# Structural Database, then it will include bibliographic, chemical, 
# crystal, experimental, refinement or atomic coordinate data resulting 
# from the CCDC's data processing and validation procedures.
#
#######################################################################

data_NUNRAQ
_symmetry_cell_setting           triclinic
_symmetry_space_group_name_H-M   'P -1'
_symmetry_Int_Tables_number      2
_space_group_name_Hall           '-P 1'
loop_
_symmetry_equiv_pos_site_id
_symmetry_equiv_pos_as_xyz
1 x,y,z
2 -x,-y,-z
_cell_length_a                   7.3983(15)
_cell_length_b                   9.6391(19)
_cell_length_c                   10.228(2)
_cell_angle_alpha                96.79(3)
_cell_angle_beta                 98.15(3)
_cell_angle_gamma                90.45(3)
_cell_volume                     716.733
loop_
_atom_site_label
_atom_site_type_symbol
_atom_site_fract_x
_atom_site_fract_y
_atom_site_fract_z
Cd1 Cd 0.64998(2) 0.967293(18) 0.872095(16)
Cl1 Cl 0.63872(9) 0.88042(7) 1.09623(6)
N1 N 0.4927(3) 0.82344(19) 0.70445(18)
N2 N 0.3205(3) 0.7493(2) 0.51282(19)
H1 H 0.2596 0.7510 0.4349
O1 O 0.8449(2) 1.1502(2) 0.94761(18)
O2 O 0.7646(3) 1.1554(2) 0.73532(18)
O3 O 0.8976(2) 0.8247(2) 0.84264(18)
H2 H 0.9727 0.8331 0.9104
C1 C 0.4503(3) 0.6812(2) 0.7024(2)
C2 C 0.4968(4) 0.5910(3) 0.7977(3)
H3 H 0.5683 0.6214 0.8785
C3 C 0.4331(5) 0.4555(3) 0.7678(4)
H4 H 0.4624 0.3927 0.8295
C4 C 0.3255(5) 0.4095(3) 0.6473(4)
H5 H 0.2849 0.3167 0.6308
C5 C 0.2775(4) 0.4969(3) 0.5522(3)
H6 H 0.2052 0.4660 0.4718
C6 C 0.3430(3) 0.6343(2) 0.5826(2)
C7 C 0.4119(3) 0.8581(2) 0.5898(2)
C8 C 0.4232(3) 0.9973(2) 0.5432(2)
H7 H 0.4464 1.0686 0.6192
H8 H 0.3076 1.0166 0.4917
C9 C 0.8471(3) 1.2083(3) 0.8436(3)
C10 C 0.9492(5) 1.3457(3) 0.8554(4)
H9 H 0.9396 1.3780 0.7695
H10 H 1.0754 1.3337 0.8886
H11 H 0.8977 1.4130 0.9156
C11 C 0.9830(5) 0.8087(5) 0.7288(3)
H12 H 1.0811 0.7447 0.7404
H13 H 1.0306 0.8976 0.7142
H14 H 0.8960 0.7727 0.6534
Cd1A Cd 0.35002(2) 1.032707(18) 1.127905(16)
Cd1A_2 Cd 0.35002(2) 1.032707(18) 0.127905(16)
Cl1A Cl 0.36128(9) 1.11958(7) 0.90377(6)
N1A N 0.5073(3) 1.17656(19) 0.29555(18)
N1A_2 N 0.5073(3) 1.17656(19) 1.29555(18)
N2A N 0.6795(3) 1.2507(2) 0.48718(19)
H1A H 0.7404 1.2490 0.5651
O1A O 0.1551(2) 0.8498(2) 1.05239(18)
O2A O 0.2354(3) 0.8446(2) 1.26468(18)
O3A O 0.1024(2) 1.1753(2) 1.15736(18)
H2A H 0.0273 1.1669 1.0896
C1A C 0.5497(3) 1.3188(2) 0.2976(2)
C2A C 0.5032(4) 1.4090(3) 0.2023(3)
H3A H 0.4317 1.3786 0.1215
C3A C 0.5669(5) 1.5445(3) 0.2322(4)
H4A H 0.5376 1.6073 0.1705
C4A C 0.6745(5) 1.5905(3) 0.3527(4)
H5A H 0.7151 1.6833 0.3692
C5A C 0.7225(4) 1.5031(3) 0.4478(3)
H6A H 0.7948 1.5340 0.5282
C6A C 0.6570(3) 1.3657(2) 0.4174(2)
C7A C 0.5881(3) 1.1419(2) 0.4102(2)
C8A C 0.5768(3) 1.0027(2) 0.4568(2)
H7A H 0.5536 0.9314 0.3808
H8A H 0.6924 0.9834 0.5083
C9A C 0.1529(3) 0.7917(3) 1.1564(3)
C10A C 0.0508(5) 0.6543(3) 1.1446(4)
H9A H 0.0604 0.6220 1.2305
H10A H -0.0754 0.6663 1.1114
H11A H 0.1023 0.5870 1.0844
C11A C 0.0170(5) 1.1913(5) 1.2712(3)
H12A H -0.0811 1.2553 1.2596
H13A H -0.0306 1.1024 1.2858
H14A H 0.1040 1.2273 1.3466
loop_
_geom_bond_atom_site_label_1
_geom_bond_atom_site_label_2
_geom_bond_site_symmetry_1
_geom_bond_site_symmetry_2
Cd1 Cl1 1_555 1_555
Cl1 Cd1A 1_555 1_555
N1 Cd1 1_555 1_555
N2 H1 1_555 1_555
O1 Cd1 1_555 1_555
O2 Cd1 1_555 1_555
O3 Cd1 1_555 1_555
H2 O3 1_555 1_555
C1 N1 1_555 1_555
C2 C1 1_555 1_555
H3 C2 1_555 1_555
C3 C2 1_555 1_555
H4 C3 1_555 1_555
C4 C3 1_555 1_555
H5 C4 1_555 1_555
C5 C4 1_555 1_555
H6 C5 1_555 1_555
C6 N2 1_555 1_555
C7 N1 1_555 1_555
C8 C7 1_555 1_555
H7 C8 1_555 1_555
H8 C8 1_555 1_555
C9 O1 1_555 1_555
C10 C9 1_555 1_555
H9 C10 1_555 1_555
H10 C10 1_555 1_555
H11 C10 1_555 1_555
C11 O3 1_555 1_555
H12 C11 1_555 1_555
H13 C11 1_555 1_555
H14 C11 1_555 1_555
Cd1A Cl1A 1_555 1_555
Cd1A_2 N1A 1_555 1_555
Cl1A Cd1 1_555 1_555
N1A C1A 1_555 1_555
N1A_2 Cd1A 1_555 1_555
N2A H1A 1_555 1_555
O1A Cd1A 1_555 1_555
O2A Cd1A 1_555 1_555
O3A Cd1A 1_555 1_555
H2A O3A 1_555 1_555
C1A C2A 1_555 1_555
C2A H3A 1_555 1_555
C3A C2A 1_555 1_555
H4A C3A 1_555 1_555
C4A C3A 1_555 1_555
H5A C4A 1_555 1_555
C5A C4A 1_555 1_555
H6A C5A 1_555 1_555
C6A N2A 1_555 1_555
C7A N1A 1_555 1_555
C8A C8 1_555 1_555
H7A C8A 1_555 1_555
H8A C8A 1_555 1_555
C9A O1A 1_555 1_555
C10A C9A 1_555 1_555
H9A C10A 1_555 1_555
H10A C10A 1_555 1_555
H11A C10A 1_555 1_555
C11A O3A 1_555 1_555
H12A C11A 1_555 1_555
H13A C11A 1_555 1_555
H14A C11A 1_555 1_555
N2 C7 1_555 1_555
O2 C9 1_555 1_555
C1 C6 1_555 1_555
C5 C6 1_555 1_555
N2A C7A 1_555 1_555
O2A C9A 1_555 1_555
C1A C6A 1_555 1_555
C5A C6A 1_555 1_555
C7A C8A 1_555 1_555

#END
