
#######################################################################
#
#                 Cambridge Crystallographic Data Centre
#                                CCDC 
#
#######################################################################
#
# If this CIF has been generated from an entry in the Cambridge 
# Structural Database, then it will include bibliographic, chemical, 
# crystal, experimental, refinement or atomic coordinate data resulting 
# from the CCDC's data processing and validation procedures.
#
#######################################################################

data_NUNRUL
_symmetry_cell_setting           monoclinic
_symmetry_space_group_name_H-M   'P 21/n'
_symmetry_Int_Tables_number      14
_space_group_name_Hall           '-P 2yn'
loop_
_symmetry_equiv_pos_site_id
_symmetry_equiv_pos_as_xyz
1 x,y,z
2 1/2-x,1/2+y,1/2-z
3 -x,-y,-z
4 1/2+x,1/2-y,1/2+z
_cell_length_a                   10.1494(8)
_cell_length_b                   10.3138(7)
_cell_length_c                   17.0067(11)
_cell_angle_alpha                90
_cell_angle_beta                 95.884(6)
_cell_angle_gamma                90
_cell_volume                     1770.86
loop_
_atom_site_label
_atom_site_type_symbol
_atom_site_fract_x
_atom_site_fract_y
_atom_site_fract_z
Ag1 Ag 0.49724(4) 0.76298(3) 0.399318(17)
N1 N 0.3677(3) 0.6443(3) 0.47463(18)
N2 N 0.3952(3) 0.3571(3) 0.69411(17)
H1 H 0.3164(18) 0.326(4) 0.690(2)
N3 N 0.5881(3) 0.0887(3) 0.69844(17)
H2 H 0.529(3) 0.029(3) 0.689(2)
N4 N 0.6507(3) -0.1095(3) 0.48035(19)
C1 C 0.4075(4) 0.6099(3) 0.5488(2)
H3 H 0.4871 0.6438 0.5720
C2 C 0.3383(4) 0.5275(3) 0.5934(2)
C3 C 0.2216(5) 0.4770(5) 0.5584(2)
H4 H 0.1725 0.4195 0.5857
C4 C 0.1787(5) 0.5129(5) 0.4820(3)
H5 H 0.0991 0.4809 0.4576
C5 C 0.2537(5) 0.5959(5) 0.4424(2)
H6 H 0.2236 0.6193 0.3908
C6 C 0.3903(4) 0.4973(3) 0.6774(2)
H7 H 0.4787 0.5332 0.6881
H8 H 0.3342 0.5390 0.7128
C7 C 0.4456(4) 0.3355(4) 0.7775(2)
H9 H 0.3854 0.3758 0.8109
H10 H 0.5309 0.3779 0.7879
C8 C 0.4610(5) 0.1946(4) 0.7997(2)
H11 H 0.3869 0.1472 0.7729
H12 H 0.4552 0.1868 0.8560
C9 C 0.5878(5) 0.1299(4) 0.7806(2)
H13 H 0.6607 0.1897 0.7932
H14 H 0.6037 0.0547 0.8145
C10 C 0.7169(4) 0.0303(4) 0.6854(2)
H15 H 0.7279 -0.0500 0.7150
H16 H 0.7874 0.0887 0.7054
C11 C 0.6454(4) -0.0819(4) 0.5568(2)
H17 H 0.5805 -0.1229 0.5826
C12 C 0.7293(4) 0.0029(3) 0.6002(2)
C13 C 0.8238(4) 0.0637(4) 0.5613(2)
H18 H 0.8828 0.1216 0.5881
C14 C 0.8308(5) 0.0385(5) 0.4823(3)
H19 H 0.8937 0.0797 0.4549
C15 C 0.7437(5) -0.0482(5) 0.4447(2)
H20 H 0.7497 -0.0651 0.3915
Ag1_2 Ag 0.49724(4) -0.23702(3) 0.399318(17)
Ag1B Ag 0.50276(4) 0.23702(3) 0.600682(17)
N2B N 0.6048(3) 0.6429(3) 0.30589(17)
N3B N 0.4119(3) 0.9113(3) 0.30156(17)
N4_2 N 0.6507(3) 0.8905(3) 0.48035(19)
O1 O 0.3822(4) -0.1301(4) 0.7251(3)
O2 O 0.5668(4) -0.2221(3) 0.7535(3)
O3 O 0.4070(4) -0.2554(3) 0.8247(2)
N5 N 0.4539(4) -0.2017(3) 0.7690(2)
loop_
_geom_bond_atom_site_label_1
_geom_bond_atom_site_label_2
_geom_bond_site_symmetry_1
_geom_bond_site_symmetry_2
Ag1 N1 1_555 1_555
N1 C1 1_555 1_555
N2 H1 1_555 1_555
N3 H2 1_555 1_555
N4 C11 1_555 1_555
C1 H3 1_555 1_555
C2 C1 1_555 1_555
C3 C2 1_555 1_555
H4 C3 1_555 1_555
C4 C3 1_555 1_555
H5 C4 1_555 1_555
C5 N1 1_555 1_555
H6 C5 1_555 1_555
C6 N2 1_555 1_555
H7 C6 1_555 1_555
H8 C6 1_555 1_555
C7 N2 1_555 1_555
H9 C7 1_555 1_555
H10 C7 1_555 1_555
C8 C7 1_555 1_555
H11 C8 1_555 1_555
H12 C8 1_555 1_555
C9 N3 1_555 1_555
H13 C9 1_555 1_555
H14 C9 1_555 1_555
C10 N3 1_555 1_555
H15 C10 1_555 1_555
H16 C10 1_555 1_555
C11 H17 1_555 1_555
C12 C10 1_555 1_555
C13 C12 1_555 1_555
H18 C13 1_555 1_555
C14 C13 1_555 1_555
H19 C14 1_555 1_555
C15 N4 1_555 1_555
H20 C15 1_555 1_555
O1 N5 1_555 1_555
O2 N5 1_555 1_555
O3 N5 1_555 1_555
Ag1_2 N4 1_555 1_555
Ag1B N2 1_555 1_555
N2B Ag1 1_555 1_555
N3B Ag1 1_555 1_555
N4_2 Ag1 1_555 1_555
N3 Ag1B 1_555 1_555
C2 C6 1_555 1_555
C4 C5 1_555 1_555
C8 C9 1_555 1_555
C11 C12 1_555 1_555
C14 C15 1_555 1_555

#END
