
#######################################################################
#
#                 Cambridge Crystallographic Data Centre
#                                CCDC 
#
#######################################################################
#
# If this CIF has been generated from an entry in the Cambridge 
# Structural Database, then it will include bibliographic, chemical, 
# crystal, experimental, refinement or atomic coordinate data resulting 
# from the CCDC's data processing and validation procedures.
#
#######################################################################

data_NUNSAS
_symmetry_cell_setting           monoclinic
_symmetry_space_group_name_H-M   'P 21/n'
_symmetry_Int_Tables_number      14
_space_group_name_Hall           '-P 2yn'
loop_
_symmetry_equiv_pos_site_id
_symmetry_equiv_pos_as_xyz
1 x,y,z
2 1/2-x,1/2+y,1/2-z
3 -x,-y,-z
4 1/2+x,1/2-y,1/2+z
_cell_length_a                   9.8204(5)
_cell_length_b                   11.0676(4)
_cell_length_c                   17.5147(4)
_cell_angle_alpha                90
_cell_angle_beta                 93.162(3)
_cell_angle_gamma                90
_cell_volume                     1900.74
loop_
_atom_site_label
_atom_site_type_symbol
_atom_site_fract_x
_atom_site_fract_y
_atom_site_fract_z
Ag1 Ag 0.52040(5) 0.24016(4) 0.59211(2)
N1 N 0.6425(5) 0.3726(4) 0.5245(2)
N2 N 0.5993(4) 0.6503(3) 0.31425(19)
H1 H 0.680(2) 0.679(5) 0.317(3)
N3 N 0.4079(4) 0.9016(3) 0.3131(2)
H2 H 0.477(4) 0.950(4) 0.319(3)
N4 N 0.3566(5) 1.1120(4) 0.5230(2)
C1 C 0.6055(5) 0.4049(4) 0.4528(2)
H3 H 0.5339 0.3626 0.4283
C2 C 0.6642(6) 0.4948(4) 0.4125(3)
C3 C 0.7691(8) 0.5559(7) 0.4492(3)
H4 H 0.8134 0.6176 0.4243
C4 C 0.8091(9) 0.5252(8) 0.5236(4)
H5 H 0.8788 0.5674 0.5500
C5 C 0.7446(8) 0.4319(7) 0.5578(3)
H6 H 0.7747 0.4095 0.6070
C6 C 0.6151(6) 0.5213(4) 0.3317(2)
H7 H 0.6791 0.4867 0.2976
H8 H 0.5280 0.4816 0.3215
C7 C 0.5482(6) 0.6670(4) 0.2347(2)
H9 H 0.4612 0.6260 0.2273
H10 H 0.6112 0.6287 0.2014
C8 C 0.5299(6) 0.7974(5) 0.2106(3)
H11 H 0.6069 0.8433 0.2323
H12 H 0.5332 0.8014 0.1554
C9 C 0.4006(6) 0.8586(5) 0.2329(2)
H13 H 0.3819 0.9268 0.1992
H14 H 0.3253 0.8022 0.2258
C10 C 0.2844(5) 0.9710(4) 0.3289(2)
H15 H 0.2044 0.9251 0.3116
H16 H 0.2840 1.0461 0.3003
C11 C 0.3571(6) 1.0858(4) 0.4486(3)
H17 H 0.4154 1.1296 0.4190
C12 C 0.2773(5) 0.9986(4) 0.4129(3)
C13 C 0.1926(7) 0.9335(6) 0.4569(3)
H18 H 0.1366 0.8736 0.4351
C14 C 0.1920(8) 0.9585(7) 0.5337(3)
H19 H 0.1375 0.9136 0.5649
C15 C 0.2717(7) 1.0494(6) 0.5640(3)
H20 H 0.2662 1.0682 0.6155
Ag1_2 Ag 0.52040(5) 1.24016(4) 0.59211(2)
Ag1B Ag 0.47960(5) 0.75984(4) 0.40789(2)
N2B N 0.4007(4) 0.3497(3) 0.68575(19)
N3B N 0.5921(4) 0.0984(3) 0.6869(2)
N4_2 N 0.3566(5) 0.1120(4) 0.5230(2)
Cl1 Cl 0.96647(15) 0.70926(12) 0.26582(7)
O1 O 0.8927(9) 0.6071(7) 0.2399(7)
O2 O 1.0424(10) 0.7624(7) 0.2078(5)
O3 O 1.0729(14) 0.6752(12) 0.3195(6)
O4 O 0.880(3) 0.8040(15) 0.2941(11)
O5? O 0.9554(18) 0.5942(14) 0.3034(13)
O6? O 0.9066(17) 0.7012(15) 0.1930(8)
O7? O 1.103(3) 0.725(2) 0.2665(14)
O8? O 0.898(6) 0.777(3) 0.314(2)
loop_
_geom_bond_atom_site_label_1
_geom_bond_atom_site_label_2
_geom_bond_site_symmetry_1
_geom_bond_site_symmetry_2
Ag1 N1 1_555 1_555
N1 C1 1_555 1_555
N2 H1 1_555 1_555
N3 H2 1_555 1_555
N4 C11 1_555 1_555
C1 H3 1_555 1_555
C2 C1 1_555 1_555
C3 C2 1_555 1_555
H4 C3 1_555 1_555
C4 C3 1_555 1_555
H5 C4 1_555 1_555
C5 N1 1_555 1_555
H6 C5 1_555 1_555
C6 N2 1_555 1_555
H7 C6 1_555 1_555
H8 C6 1_555 1_555
C7 N2 1_555 1_555
H9 C7 1_555 1_555
H10 C7 1_555 1_555
C8 C7 1_555 1_555
H11 C8 1_555 1_555
H12 C8 1_555 1_555
C9 N3 1_555 1_555
H13 C9 1_555 1_555
H14 C9 1_555 1_555
C10 N3 1_555 1_555
H15 C10 1_555 1_555
H16 C10 1_555 1_555
C11 H17 1_555 1_555
C12 C10 1_555 1_555
C13 C12 1_555 1_555
H18 C13 1_555 1_555
C14 C13 1_555 1_555
H19 C14 1_555 1_555
C15 N4 1_555 1_555
H20 C15 1_555 1_555
Cl1 O1 1_555 1_555
O2 Cl1 1_555 1_555
O3 Cl1 1_555 1_555
O4 Cl1 1_555 1_555
Ag1_2 N4 1_555 1_555
Ag1B N2 1_555 1_555
N2B Ag1 1_555 1_555
N3B Ag1 1_555 1_555
N4_2 Ag1 1_555 1_555
N3 Ag1B 1_555 1_555
C2 C6 1_555 1_555
C4 C5 1_555 1_555
C8 C9 1_555 1_555
C11 C12 1_555 1_555
C14 C15 1_555 1_555

#END
