
#######################################################################
#
#                 Cambridge Crystallographic Data Centre
#                                CCDC 
#
#######################################################################
#
# If this CIF has been generated from an entry in the Cambridge 
# Structural Database, then it will include bibliographic, chemical, 
# crystal, experimental, refinement or atomic coordinate data resulting 
# from the CCDC's data processing and validation procedures.
#
#######################################################################

data_NUNSOG
_symmetry_cell_setting           orthorhombic
_symmetry_space_group_name_H-M   'F d d d'
_symmetry_Int_Tables_number      70
_space_group_name_Hall           '-F 2uv 2vw'
loop_
_symmetry_equiv_pos_site_id
_symmetry_equiv_pos_as_xyz
1 x,y,z
2 1/4-x,1/4-y,z
3 x,1/4-y,1/4-z
4 1/4-x,y,1/4-z
5 x,1/2+y,1/2+z
6 1/4-x,3/4-y,1/2+z
7 x,3/4-y,3/4-z
8 1/4-x,1/2+y,3/4-z
9 1/2+x,y,1/2+z
10 3/4-x,1/4-y,1/2+z
11 1/2+x,1/4-y,3/4-z
12 3/4-x,y,3/4-z
13 1/2+x,1/2+y,z
14 3/4-x,3/4-y,z
15 1/2+x,3/4-y,1/4-z
16 3/4-x,1/2+y,1/4-z
17 -x,-y,-z
18 3/4+x,3/4+y,-z
19 -x,3/4+y,3/4+z
20 3/4+x,-y,3/4+z
21 -x,1/2-y,1/2-z
22 3/4+x,1/4+y,1/2-z
23 -x,1/4+y,1/4+z
24 3/4+x,1/2-y,1/4+z
25 1/2-x,-y,1/2-z
26 1/4+x,3/4+y,1/2-z
27 1/2-x,3/4+y,1/4+z
28 1/4+x,-y,1/4+z
29 1/2-x,1/2-y,-z
30 1/4+x,1/4+y,-z
31 1/2-x,1/4+y,3/4+z
32 1/4+x,1/2-y,3/4+z
_cell_length_a                   24.3650(18)
_cell_length_b                   8.6123(7)
_cell_length_c                   36.092(3)
_cell_angle_alpha                90
_cell_angle_beta                 90
_cell_angle_gamma                90
_cell_volume                     7573.5
loop_
_atom_site_label
_atom_site_type_symbol
_atom_site_fract_x
_atom_site_fract_y
_atom_site_fract_z
Ag1 Ag -0.3750 -0.3750 0.042628(15)
N1 N -0.32501(18) -0.1713(6) 0.01329(13)
N2 N -0.18506(15) 0.0609(4) -0.07107(10)
H1 H -0.2075(16) 0.016(5) -0.0861(11)
C1 C -0.3362(2) -0.1149(7) -0.02036(17)
H2 H -0.3681 -0.1483 -0.0320
C2 C -0.3034(2) -0.0106(7) -0.03887(15)
H3 H -0.3135 0.0254 -0.0622
C3 C -0.25578(19) 0.0399(5) -0.02263(14)
C4 C -0.2443(2) -0.0155(6) 0.01227(14)
H4 H -0.2126 0.0171 0.0244
C5 C -0.2792(2) -0.1189(6) 0.02932(15)
H5 H -0.2705 -0.1537 0.0530
C6 C -0.2177(2) 0.1485(6) -0.04327(15)
H6 H -0.2390 0.2283 -0.0556
H7 H -0.1932 0.1990 -0.0259
C7 C -0.1543(2) 0.1665(5) -0.09569(14)
H8 H -0.1278 0.2253 -0.0813
H9 H -0.1793 0.2393 -0.1073
C8 C -0.1250 0.0741(8) -0.1250
H10 H -0.1515 0.0082 -0.1369
N1K N 0.07501(18) -0.1713(6) -0.26329(13)
N2K N -0.06494(15) 0.0609(4) -0.17893(10)
H1K H -0.0425(16) 0.016(5) -0.1639(11)
C1K C 0.0862(2) -0.1149(7) -0.22964(17)
H2K H 0.1181 -0.1483 -0.2180
C2K C 0.0534(2) -0.0106(7) -0.21113(15)
H3K H 0.0635 0.0254 -0.1878
C3K C 0.00578(19) 0.0399(5) -0.22737(14)
C4K C -0.0057(2) -0.0155(6) -0.26227(14)
H4K H -0.0374 0.0171 -0.2744
C5K C 0.0292(2) -0.1189(6) -0.27932(15)
H5K H 0.0205 -0.1537 -0.3030
C6K C -0.0323(2) 0.1485(6) -0.20673(15)
H6K H -0.0110 0.2283 -0.1944
H7K H -0.0568 0.1990 -0.2241
C7K C -0.0957(2) 0.1665(5) -0.15431(14)
H8K H -0.1222 0.2253 -0.1687
H9K H -0.0707 0.2393 -0.1427
H10K H -0.0985 0.0082 -0.1131
Ag1J Ag 0.1250 -0.3750 -0.292628(15)
Ag1BA Ag -0.1250 -0.1250 -0.042628(15)
Ag1DA Ag -0.1250 -0.1250 -0.207372(15)
N1A N -0.42499(18) -0.5787(6) 0.01329(13)
N2Q N -0.43506(15) -0.1891(4) 0.07107(10)
N2BA N -0.31494(15) -0.5609(4) 0.07107(10)
Cl1 Cl -0.31484(16) -0.6250 -0.1250
O1 O -0.2799(5) -0.483(3) -0.1133(4)
O2 O -0.3410(6) -0.6726(15) -0.0971(3)
O1F O -0.2799(5) -0.767(3) -0.1367(4)
O2F O -0.3410(6) -0.5774(15) -0.1529(3)
O3 O -0.2641(4) -0.1250 -0.1250
H11 H -0.2843 -0.2047 -0.1225
H11F H -0.2843 -0.0453 -0.1275
loop_
_geom_bond_atom_site_label_1
_geom_bond_atom_site_label_2
_geom_bond_site_symmetry_1
_geom_bond_site_symmetry_2
Ag1 N1 1_555 1_555
N1 C1 1_555 1_555
N2 H1 1_555 1_555
C1 H2 1_555 1_555
C2 C1 1_555 1_555
H3 C2 1_555 1_555
C3 C2 1_555 1_555
C4 C3 1_555 1_555
H4 C4 1_555 1_555
C5 N1 1_555 1_555
H5 C5 1_555 1_555
C6 N2 1_555 1_555
H6 C6 1_555 1_555
H7 C6 1_555 1_555
C7 N2 1_555 1_555
H8 C7 1_555 1_555
H9 C7 1_555 1_555
C8 C7 1_555 1_555
H10 C8 1_555 1_555
Cl1 O1 1_555 1_555
O2 Cl1 1_555 1_555
O3 H11 1_555 1_555
N1K C1K 1_555 1_555
N2K H1K 1_555 1_555
C1K H2K 1_555 1_555
C2K C1K 1_555 1_555
H3K C2K 1_555 1_555
C3K C2K 1_555 1_555
C4K C3K 1_555 1_555
H4K C4K 1_555 1_555
C5K N1K 1_555 1_555
H5K C5K 1_555 1_555
C6K N2K 1_555 1_555
H6K C6K 1_555 1_555
H7K C6K 1_555 1_555
C7K C8 1_555 1_555
H8K C7K 1_555 1_555
H9K C7K 1_555 1_555
H10K C8 1_555 1_555
Ag1J N1K 1_555 1_555
Ag1BA N2 1_555 1_555
Ag1DA N2K 1_555 1_555
N1A Ag1 1_555 1_555
N2Q Ag1 1_555 1_555
N2BA Ag1 1_555 1_555
O1F Cl1 1_555 1_555
O2F Cl1 1_555 1_555
H11F O3 1_555 1_555
C3 C6 1_555 1_555
C4 C5 1_555 1_555
N2K C7K 1_555 1_555
C3K C6K 1_555 1_555
C4K C5K 1_555 1_555

#END
