
#######################################################################
#
#                 Cambridge Crystallographic Data Centre
#                                CCDC 
#
#######################################################################
#
# If this CIF has been generated from an entry in the Cambridge 
# Structural Database, then it will include bibliographic, chemical, 
# crystal, experimental, refinement or atomic coordinate data resulting 
# from the CCDC's data processing and validation procedures.
#
#######################################################################

data_NUNSUM
_symmetry_cell_setting           monoclinic
_symmetry_space_group_name_H-M   'P 21/c'
_symmetry_Int_Tables_number      14
_space_group_name_Hall           '-P 2ybc'
loop_
_symmetry_equiv_pos_site_id
_symmetry_equiv_pos_as_xyz
1 x,y,z
2 -x,1/2+y,1/2-z
3 -x,-y,-z
4 x,1/2-y,1/2+z
_cell_length_a                   14.966(2)
_cell_length_b                   13.205(2)
_cell_length_c                   23.389(3)
_cell_angle_alpha                90
_cell_angle_beta                 118.964(9)
_cell_angle_gamma                90
_cell_volume                     4044.14
loop_
_atom_site_label
_atom_site_type_symbol
_atom_site_fract_x
_atom_site_fract_y
_atom_site_fract_z
Ag1 Ag 0.5000 -0.5000 0.0000
Ag2 Ag 0.27409(4) -0.41764(4) -0.31683(2)
Ag3 Ag 0.21736(4) -0.01751(4) -0.19315(2)
Ag4 Ag 0.0000 0.0000 -0.5000
Cl1 Cl -0.00726(10) -0.04048(13) -0.17063(7)
O1 O -0.0539(6) -0.0330(6) -0.2390(3)
O2 O -0.0044(5) 0.0561(5) -0.1437(3)
O3 O 0.0920(4) -0.0775(6) -0.1460(3)
O4 O -0.0635(4) -0.1073(4) -0.1523(3)
N1 N 0.4520(4) -0.5572(5) -0.0956(3)
N2 N 0.2733(3) -0.5895(4) -0.3421(2)
H1 H 0.219(3) -0.614(5) -0.344(3)
N3 N 0.1422(4) -0.3925(4) -0.4253(2)
H2 H 0.089(3) -0.409(5) -0.423(3)
N4 N 0.1743(4) -0.0982(4) -0.2852(2)
N5 N 0.3161(4) -0.3393(4) -0.2232(2)
N6 N 0.3479(4) -0.0400(5) -0.0855(2)
H3 H 0.399(3) -0.021(5) -0.090(3)
N7 N 0.2128(4) 0.1538(4) -0.1731(2)
H4 H 0.256(4) 0.181(5) -0.183(3)
N8 N 0.0349(5) 0.0864(5) -0.4144(3)
C1 C 0.3550(5) -0.5734(6) -0.1392(3)
H5 H 0.3060 -0.5655 -0.1259
C2 C 0.3227(4) -0.6015(5) -0.2033(3)
H6 H 0.2537 -0.6132 -0.2317
C3 C 0.3931(4) -0.6122(5) -0.2248(3)
C4 C 0.4937(5) -0.5945(7) -0.1795(4)
H7 H 0.5444 -0.6003 -0.1914
C5 C 0.5188(5) -0.5685(8) -0.1169(4)
H8 H 0.5874 -0.5580 -0.0873
C6 C 0.3648(4) -0.6404(5) -0.2937(3)
H9 H 0.4212 -0.6235 -0.3015
H10 H 0.3544 -0.7130 -0.2990
C7 C 0.2529(5) -0.6106(5) -0.4095(3)
H11 H 0.2534 -0.6833 -0.4154
H12 H 0.3074 -0.5817 -0.4155
C8 C 0.1531(5) -0.5690(5) -0.4605(3)
H13 H 0.1020 -0.5843 -0.4476
H14 H 0.1338 -0.6050 -0.5010
C9 C 0.1483(5) -0.4573(5) -0.4744(3)
H15 H 0.2085 -0.4384 -0.4775
H16 H 0.0891 -0.4442 -0.5166
C10 C 0.1229(5) -0.2862(5) -0.4477(3)
H17 H 0.0534 -0.2795 -0.4831
H18 H 0.1689 -0.2671 -0.4642
C11 C 0.2445(5) -0.1095(6) -0.3038(3)
H19 H 0.3068 -0.0765 -0.2803
C12 C 0.2290(5) -0.1680(6) -0.3566(3)
H20 H 0.2806 -0.1743 -0.3677
C13 C 0.1387(4) -0.2166(5) -0.3925(3)
C14 C 0.0645(4) -0.2019(5) -0.3748(3)
H21 H 0.0004 -0.2309 -0.3993
C15 C 0.0849(5) -0.1445(5) -0.3212(3)
H22 H 0.0343 -0.1374 -0.3093
C16 C 0.2431(5) -0.3235(5) -0.2070(3)
H23 H 0.1800 -0.3545 -0.2318
C17 C 0.2571(5) -0.2631(6) -0.1551(3)
H24 H 0.2035 -0.2532 -0.1463
C18 C 0.3489(5) -0.2180(5) -0.1167(3)
C19 C 0.4264(5) -0.2377(6) -0.1312(3)
H25 H 0.4911 -0.2105 -0.1057
C20 C 0.4061(5) -0.2982(6) -0.1842(3)
H26 H 0.4593 -0.3111 -0.1931
C21 C 0.3625(5) -0.1457(6) -0.0623(3)
H27 H 0.3132 -0.1619 -0.0479
H28 H 0.4304 -0.1537 -0.0253
C22 C 0.3426(5) 0.0299(6) -0.0376(3)
H29 H 0.4026 0.0192 0.0045
H30 H 0.2833 0.0122 -0.0333
C23 C 0.3364(5) 0.1404(6) -0.0544(3)
H31 H 0.3868 0.1540 -0.0682
H32 H 0.3562 0.1789 -0.0147
C24 C 0.2344(5) 0.1809(6) -0.1066(3)
H33 H 0.1806 0.1543 -0.0991
H34 H 0.2341 0.2541 -0.1030
C25 C 0.1176(5) 0.1999(6) -0.2230(3)
H35 H 0.1254 0.2730 -0.2214
H36 H 0.0628 0.1838 -0.2136
C26 C -0.0310(5) 0.0925(7) -0.3915(4)
H37 H -0.0976 0.0706 -0.4183
C27 C -0.0069(5) 0.1287(7) -0.3315(3)
H38 H -0.0565 0.1301 -0.3184
C28 C 0.0895(5) 0.1634(5) -0.2901(3)
C29 C 0.1571(5) 0.1600(6) -0.3139(3)
H39 H 0.2232 0.1840 -0.2883
C30 C 0.1292(6) 0.1221(6) -0.3742(3)
H40 H 0.1775 0.1207 -0.3884
Ag2B Ag -0.27409(4) 0.41764(4) -0.68317(2)
Ag3B Ag -0.21736(4) 0.01751(4) -0.80685(2)
Cl1B Cl 0.00726(10) 0.04048(13) -0.82937(7)
O1B O 0.0539(6) 0.0330(6) -0.7610(3)
O2B O 0.0044(5) -0.0561(5) -0.8563(3)
O3B O -0.0920(4) 0.0775(6) -0.8540(3)
O4B O 0.0635(4) 0.1073(4) -0.8477(3)
N1B N -0.4520(4) 0.5572(5) -0.9044(3)
N2B N -0.2733(3) 0.5895(4) -0.6579(2)
H1B H -0.219(3) 0.614(5) -0.656(3)
N3B N -0.1422(4) 0.3925(4) -0.5747(2)
H2B H -0.089(3) 0.409(5) -0.577(3)
N4B N -0.1743(4) 0.0982(4) -0.7148(2)
N5B N -0.3161(4) 0.3393(4) -0.7768(2)
N6B N -0.3479(4) 0.0400(5) -0.9145(2)
H3B H -0.399(3) 0.021(5) -0.910(3)
N7B N -0.2128(4) -0.1538(4) -0.8269(2)
H4B H -0.256(4) -0.181(5) -0.817(3)
N8B N -0.0349(5) -0.0864(5) -0.5856(3)
C1B C -0.3550(5) 0.5734(6) -0.8608(3)
H5B H -0.3060 0.5655 -0.8741
C2B C -0.3227(4) 0.6015(5) -0.7967(3)
H6B H -0.2537 0.6132 -0.7683
C3B C -0.3931(4) 0.6122(5) -0.7752(3)
C4B C -0.4937(5) 0.5945(7) -0.8205(4)
H7B H -0.5444 0.6003 -0.8086
C5B C -0.5188(5) 0.5685(8) -0.8831(4)
H8B H -0.5874 0.5580 -0.9127
C6B C -0.3648(4) 0.6404(5) -0.7063(3)
H9B H -0.4212 0.6235 -0.6985
H10B H -0.3544 0.7130 -0.7010
C7B C -0.2529(5) 0.6106(5) -0.5905(3)
H11B H -0.2534 0.6833 -0.5846
H12B H -0.3074 0.5817 -0.5845
C8B C -0.1531(5) 0.5690(5) -0.5395(3)
H13B H -0.1020 0.5843 -0.5524
H14B H -0.1338 0.6050 -0.4990
C9B C -0.1483(5) 0.4573(5) -0.5256(3)
H15B H -0.2085 0.4384 -0.5225
H16B H -0.0891 0.4442 -0.4834
C10B C -0.1229(5) 0.2862(5) -0.5523(3)
H17B H -0.0534 0.2795 -0.5169
H18B H -0.1689 0.2671 -0.5358
C11B C -0.2445(5) 0.1095(6) -0.6962(3)
H19B H -0.3068 0.0765 -0.7197
C12B C -0.2290(5) 0.1680(6) -0.6434(3)
H20B H -0.2806 0.1743 -0.6323
C13B C -0.1387(4) 0.2166(5) -0.6075(3)
C14B C -0.0645(4) 0.2019(5) -0.6252(3)
H21B H -0.0004 0.2309 -0.6007
C15B C -0.0849(5) 0.1445(5) -0.6788(3)
H22B H -0.0343 0.1374 -0.6907
C16B C -0.2431(5) 0.3235(5) -0.7930(3)
H23B H -0.1800 0.3545 -0.7682
C17B C -0.2571(5) 0.2631(6) -0.8449(3)
H24B H -0.2035 0.2532 -0.8537
C18B C -0.3489(5) 0.2180(5) -0.8833(3)
C19B C -0.4264(5) 0.2377(6) -0.8688(3)
H25B H -0.4911 0.2105 -0.8943
C20B C -0.4061(5) 0.2982(6) -0.8158(3)
H26B H -0.4593 0.3111 -0.8069
C21B C -0.3625(5) 0.1457(6) -0.9377(3)
H27B H -0.3132 0.1619 -0.9521
H28B H -0.4304 0.1537 -0.9747
C22B C -0.3426(5) -0.0299(6) -0.9624(3)
H29B H -0.4026 -0.0192 -1.0045
H30B H -0.2833 -0.0122 -0.9667
C23B C -0.3364(5) -0.1404(6) -0.9456(3)
H31B H -0.3868 -0.1540 -0.9318
H32B H -0.3562 -0.1789 -0.9853
C24B C -0.2344(5) -0.1809(6) -0.8934(3)
H33B H -0.1806 -0.1543 -0.9009
H34B H -0.2341 -0.2541 -0.8970
C25B C -0.1176(5) -0.1999(6) -0.7770(3)
H35B H -0.1254 -0.2730 -0.7786
H36B H -0.0628 -0.1838 -0.7864
C26B C 0.0310(5) -0.0925(7) -0.6085(4)
H37B H 0.0976 -0.0706 -0.5817
C27B C 0.0069(5) -0.1287(7) -0.6685(3)
H38B H 0.0565 -0.1301 -0.6816
C28B C -0.0895(5) -0.1634(5) -0.7099(3)
C29B C -0.1571(5) -0.1600(6) -0.6861(3)
H39B H -0.2232 -0.1840 -0.7117
C30B C -0.1292(6) -0.1221(6) -0.6258(3)
H40B H -0.1775 -0.1207 -0.6116
Ag1_2 Ag -0.5000 0.5000 -1.0000
N1B_2 N 0.5480(4) -0.4428(5) 0.0956(3)
Cl2 Cl 0.50432(12) -0.39768(15) -0.33282(9)
O5 O 0.4121(7) -0.3591(10) -0.3663(9)
O6 O 0.5030(14) -0.3958(12) -0.2783(7)
O7 O 0.5044(6) -0.4970(6) -0.3540(5)
O8 O 0.5802(6) -0.3404(6) -0.3277(5)
Cl3 Cl -0.25185(15) -0.09163(17) -0.50982(12)
O9 O -0.3376(6) -0.1438(8) -0.5504(7)
O10 O -0.2748(11) -0.0541(10) -0.4669(6)
O11 O -0.1707(5) -0.1578(6) -0.4867(4)
O12 O -0.2305(5) -0.0079(5) -0.5382(4)
loop_
_geom_bond_atom_site_label_1
_geom_bond_atom_site_label_2
_geom_bond_site_symmetry_1
_geom_bond_site_symmetry_2
Ag1 N1 1_555 1_555
Ag2 N2 1_555 1_555
Ag3 O3 1_555 1_555
Ag4 N8 1_555 1_555
Cl1 O1 1_555 1_555
O2 Cl1 1_555 1_555
O3 Cl1 1_555 1_555
O4 Cl1 1_555 1_555
N1 C1 1_555 1_555
N2 H1 1_555 1_555
N3 Ag2 1_555 1_555
H2 N3 1_555 1_555
N4 Ag3 1_555 1_555
N5 Ag2 1_555 1_555
N6 Ag3 1_555 1_555
H3 N6 1_555 1_555
N7 Ag3 1_555 1_555
H4 N7 1_555 1_555
N8 C26 1_555 1_555
C1 H5 1_555 1_555
C2 C1 1_555 1_555
H6 C2 1_555 1_555
C3 C2 1_555 1_555
C4 C3 1_555 1_555
H7 C4 1_555 1_555
C5 N1 1_555 1_555
H8 C5 1_555 1_555
C6 N2 1_555 1_555
H9 C6 1_555 1_555
H10 C6 1_555 1_555
C7 N2 1_555 1_555
H11 C7 1_555 1_555
H12 C7 1_555 1_555
C8 C7 1_555 1_555
H13 C8 1_555 1_555
H14 C8 1_555 1_555
C9 N3 1_555 1_555
H15 C9 1_555 1_555
H16 C9 1_555 1_555
C10 N3 1_555 1_555
H17 C10 1_555 1_555
H18 C10 1_555 1_555
C11 N4 1_555 1_555
H19 C11 1_555 1_555
C12 C11 1_555 1_555
H20 C12 1_555 1_555
C13 C10 1_555 1_555
C14 C13 1_555 1_555
H21 C14 1_555 1_555
C15 N4 1_555 1_555
H22 C15 1_555 1_555
C16 N5 1_555 1_555
H23 C16 1_555 1_555
C17 C16 1_555 1_555
H24 C17 1_555 1_555
C18 C17 1_555 1_555
C19 C18 1_555 1_555
H25 C19 1_555 1_555
C20 N5 1_555 1_555
H26 C20 1_555 1_555
C21 N6 1_555 1_555
H27 C21 1_555 1_555
H28 C21 1_555 1_555
C22 N6 1_555 1_555
H29 C22 1_555 1_555
H30 C22 1_555 1_555
C23 C22 1_555 1_555
H31 C23 1_555 1_555
H32 C23 1_555 1_555
C24 N7 1_555 1_555
H33 C24 1_555 1_555
H34 C24 1_555 1_555
C25 N7 1_555 1_555
H35 C25 1_555 1_555
H36 C25 1_555 1_555
C26 H37 1_555 1_555
C27 C26 1_555 1_555
H38 C27 1_555 1_555
C28 C25 1_555 1_555
C29 C28 1_555 1_555
H39 C29 1_555 1_555
C30 N8 1_555 1_555
H40 C30 1_555 1_555
Cl2 O5 1_555 1_555
O6 Cl2 1_555 1_555
O7 Cl2 1_555 1_555
O8 Cl2 1_555 1_555
Cl3 O9 1_555 1_555
O10 Cl3 1_555 1_555
O11 Cl3 1_555 1_555
O12 Cl3 1_555 1_555
Ag2B N2B 1_555 1_555
Ag3B O3B 1_555 1_555
Cl1B O1B 1_555 1_555
O2B Cl1B 1_555 1_555
O3B Cl1B 1_555 1_555
O4B Cl1B 1_555 1_555
N1B C1B 1_555 1_555
N2B H1B 1_555 1_555
N3B Ag2B 1_555 1_555
H2B N3B 1_555 1_555
N4B Ag3B 1_555 1_555
N5B Ag2B 1_555 1_555
N6B Ag3B 1_555 1_555
H3B N6B 1_555 1_555
N7B Ag3B 1_555 1_555
H4B N7B 1_555 1_555
N8B Ag4 1_555 1_555
C1B H5B 1_555 1_555
C2B C1B 1_555 1_555
H6B C2B 1_555 1_555
C3B C2B 1_555 1_555
C4B C3B 1_555 1_555
H7B C4B 1_555 1_555
C5B N1B 1_555 1_555
H8B C5B 1_555 1_555
C6B N2B 1_555 1_555
H9B C6B 1_555 1_555
H10B C6B 1_555 1_555
C7B N2B 1_555 1_555
H11B C7B 1_555 1_555
H12B C7B 1_555 1_555
C8B C7B 1_555 1_555
H13B C8B 1_555 1_555
H14B C8B 1_555 1_555
C9B N3B 1_555 1_555
H15B C9B 1_555 1_555
H16B C9B 1_555 1_555
C10B N3B 1_555 1_555
H17B C10B 1_555 1_555
H18B C10B 1_555 1_555
C11B N4B 1_555 1_555
H19B C11B 1_555 1_555
C12B C11B 1_555 1_555
H20B C12B 1_555 1_555
C13B C10B 1_555 1_555
C14B C13B 1_555 1_555
H21B C14B 1_555 1_555
C15B N4B 1_555 1_555
H22B C15B 1_555 1_555
C16B N5B 1_555 1_555
H23B C16B 1_555 1_555
C17B C16B 1_555 1_555
H24B C17B 1_555 1_555
C18B C17B 1_555 1_555
C19B C18B 1_555 1_555
H25B C19B 1_555 1_555
C20B N5B 1_555 1_555
H26B C20B 1_555 1_555
C21B N6B 1_555 1_555
H27B C21B 1_555 1_555
H28B C21B 1_555 1_555
C22B N6B 1_555 1_555
H29B C22B 1_555 1_555
H30B C22B 1_555 1_555
C23B C22B 1_555 1_555
H31B C23B 1_555 1_555
H32B C23B 1_555 1_555
C24B N7B 1_555 1_555
H33B C24B 1_555 1_555
H34B C24B 1_555 1_555
C25B N7B 1_555 1_555
H35B C25B 1_555 1_555
H36B C25B 1_555 1_555
C26B N8B 1_555 1_555
H37B C26B 1_555 1_555
C27B C26B 1_555 1_555
H38B C27B 1_555 1_555
C28B C25B 1_555 1_555
C29B C28B 1_555 1_555
H39B C29B 1_555 1_555
C30B N8B 1_555 1_555
H40B C30B 1_555 1_555
Ag1_2 N1B 1_555 1_555
N1B_2 Ag1 1_555 1_555
C3 C6 1_555 1_555
C4 C5 1_555 1_555
C8 C9 1_555 1_555
C12 C13 1_555 1_555
C14 C15 1_555 1_555
C18 C21 1_555 1_555
C19 C20 1_555 1_555
C23 C24 1_555 1_555
C27 C28 1_555 1_555
C29 C30 1_555 1_555
C3B C6B 1_555 1_555
C4B C5B 1_555 1_555
C8B C9B 1_555 1_555
C12B C13B 1_555 1_555
C14B C15B 1_555 1_555
C18B C21B 1_555 1_555
C19B C20B 1_555 1_555
C23B C24B 1_555 1_555
C27B C28B 1_555 1_555
C29B C30B 1_555 1_555

#END
