
#######################################################################
#
#                 Cambridge Crystallographic Data Centre
#                                CCDC 
#
#######################################################################
#
# If this CIF has been generated from an entry in the Cambridge 
# Structural Database, then it will include bibliographic, chemical, 
# crystal, experimental, refinement or atomic coordinate data resulting 
# from the CCDC's data processing and validation procedures.
#
#######################################################################

data_NUNVEY
_symmetry_cell_setting           monoclinic
_symmetry_space_group_name_H-M   'P 21/c'
_symmetry_Int_Tables_number      14
_space_group_name_Hall           '-P 2ybc'
loop_
_symmetry_equiv_pos_site_id
_symmetry_equiv_pos_as_xyz
1 x,y,z
2 -x,1/2+y,1/2-z
3 -x,-y,-z
4 x,1/2-y,1/2+z
_cell_length_a                   12.1421(12)
_cell_length_b                   12.4034(8)
_cell_length_c                   12.8701(13)
_cell_angle_alpha                90
_cell_angle_beta                 96.138(12)
_cell_angle_gamma                90
_cell_volume                     1927.17
loop_
_atom_site_label
_atom_site_type_symbol
_atom_site_fract_x
_atom_site_fract_y
_atom_site_fract_z
Ni1 Ni 0.24621(2) 0.59939(2) 0.31901(2)
N1 N 0.15403(15) 0.73037(15) 0.35699(14)
N2 N 0.12272(15) 0.50121(15) 0.36286(14)
N3 N -0.01512(15) 0.63520(17) 0.32761(16)
H1 H -0.0882(3) 0.644(2) 0.317(2)
C1 C 0.2063(2) 0.82458(19) 0.38251(18)
H2 H 0.2833 0.8248 0.3912
C2 C 0.1523(2) 0.9199(2) 0.3963(2)
H3 H 0.1917 0.9827 0.4141
C3 C 0.0372(2) 0.9198(2) 0.3831(2)
H4 H -0.0020 0.9835 0.3898
C4 C -0.0179(2) 0.8252(2) 0.35992(19)
H5 H -0.0949 0.8236 0.3519
C5 C 0.04309(19) 0.73020(19) 0.34832(18)
C6 C 0.01564(18) 0.53059(19) 0.35449(18)
C7 C -0.0681(2) 0.4572(2) 0.37210(19)
H6 H -0.1419 0.4787 0.3649
C8 C -0.0401(2) 0.3536(2) 0.4000(2)
H7 H -0.0949 0.3038 0.4111
C9 C 0.0702(2) 0.3232(2) 0.4115(2)
H8 H 0.0909 0.2535 0.4318
C10 C 0.14803(19) 0.3986(2) 0.39222(18)
H9 H 0.2221 0.3782 0.3997
C11 C 0.35852(19) 0.41929(18) 0.21127(18)
C12 C 0.4552(2) 0.34435(19) 0.2153(2)
H10 H 0.4647 0.3038 0.1561
C13 C 0.52676(19) 0.33281(19) 0.29733(19)
H11 H 0.5169 0.3725 0.3569
C14 C 0.62389(18) 0.25874(18) 0.30000(18)
O1 O 0.34712(13) 0.47257(12) 0.29159(12)
O2 O 0.29572(18) 0.42549(19) 0.12676(16)
O3 O 0.62735(13) 0.19567(13) 0.22420(13)
O4 O 0.69566(14) 0.26425(15) 0.37811(13)
O5 O 0.33762(13) 0.59538(13) 0.46659(12)
H12 H 0.3240 0.6366 0.5164
H13 H 0.3568 0.5360 0.4962
O6 O 0.17160(12) 0.59825(13) 0.16421(12)
H14 H 0.2057 0.6510 0.1403
H15 H 0.2005 0.5428 0.1393
Ni1A Ni 0.75379(2) 0.09939(2) 0.18099(2)
O3A O 0.37265(13) 0.69567(13) 0.27580(13)
O7 O 0.25446(19) 0.1566(3) 0.2196(3)
H16 H 0.3002 0.1105 0.2475
H17 H 0.2680 0.1597 0.1562
O8 O 0.4461(4) 0.5742(5) 0.0058(5)
O9 O 0.6567(2) 0.6997(2) 0.04168(19)
H18 H 0.6851 0.6769 -0.0117
H19 H 0.6224 0.6455 0.0627
O10 O 0.58881(17) 0.89674(18) -0.0632(2)
H20 H 0.5219 0.8939 -0.0903
H21 H 0.5919 0.8526 -0.0124
O11? O 0.5592(5) 0.5821(4) 0.1705(5)
loop_
_geom_bond_atom_site_label_1
_geom_bond_atom_site_label_2
_geom_bond_site_symmetry_1
_geom_bond_site_symmetry_2
Ni1 N1 1_555 1_555
N1 C1 1_555 1_555
N2 Ni1 1_555 1_555
N3 H1 1_555 1_555
C1 H2 1_555 1_555
C2 C1 1_555 1_555
H3 C2 1_555 1_555
C3 C2 1_555 1_555
H4 C3 1_555 1_555
C4 C3 1_555 1_555
H5 C4 1_555 1_555
C5 N1 1_555 1_555
C6 N2 1_555 1_555
C7 C6 1_555 1_555
H6 C7 1_555 1_555
C8 C7 1_555 1_555
H7 C8 1_555 1_555
C9 C8 1_555 1_555
H8 C9 1_555 1_555
C10 N2 1_555 1_555
H9 C10 1_555 1_555
C11 C12 1_555 1_555
C12 H10 1_555 1_555
C13 C12 1_555 1_555
H11 C13 1_555 1_555
C14 C13 1_555 1_555
O1 Ni1 1_555 1_555
O2 C11 1_555 1_555
O3 C14 1_555 1_555
O4 C14 1_555 1_555
O5 Ni1 1_555 1_555
H12 O5 1_555 1_555
H13 O5 1_555 1_555
O6 Ni1 1_555 1_555
H14 O6 1_555 1_555
H15 O6 1_555 1_555
O7 H16 1_555 1_555
H17 O7 1_555 1_555
O9 H18 1_555 1_555
H19 O9 1_555 1_555
O10 H20 1_555 1_555
H21 O10 1_555 1_555
Ni1A O3 1_555 1_555
O3A Ni1 1_555 1_555
N3 C5 1_555 1_555
N3 C6 1_555 1_555
C4 C5 1_555 1_555
C9 C10 1_555 1_555
C11 O1 1_555 1_555

#END
