
#######################################################################
#
#                 Cambridge Crystallographic Data Centre
#                                CCDC 
#
#######################################################################
#
# If this CIF has been generated from an entry in the Cambridge 
# Structural Database, then it will include bibliographic, chemical, 
# crystal, experimental, refinement or atomic coordinate data resulting 
# from the CCDC's data processing and validation procedures.
#
#######################################################################

data_NUNXUQ
_symmetry_cell_setting           monoclinic
_symmetry_space_group_name_H-M   'P 21/c'
_symmetry_Int_Tables_number      14
_space_group_name_Hall           '-P 2ybc'
loop_
_symmetry_equiv_pos_site_id
_symmetry_equiv_pos_as_xyz
1 x,y,z
2 -x,1/2+y,1/2-z
3 -x,-y,-z
4 x,1/2-y,1/2+z
_cell_length_a                   12.7770(18)
_cell_length_b                   10.8304(15)
_cell_length_c                   18.522(3)
_cell_angle_alpha                90
_cell_angle_beta                 95.007(2)
_cell_angle_gamma                90
_cell_volume                     2553.29
loop_
_atom_site_label
_atom_site_type_symbol
_atom_site_fract_x
_atom_site_fract_y
_atom_site_fract_z
C1 C 0.83100(17) 0.53070(18) -0.16646(13)
C2 C 0.86797(18) 0.41005(19) -0.19581(12)
C3 C 0.8300(2) 0.3700(2) -0.26403(13)
H1 H 0.7817 0.4180 -0.2921
C4 C 0.8635(3) 0.2588(2) -0.29070(15)
H2 H 0.8373 0.2319 -0.3364
C5 C 0.9362(2) 0.1874(2) -0.24938(14)
H3 H 0.9596 0.1136 -0.2679
C6 C 0.9740(2) 0.2256(2) -0.18067(14)
C7 C 0.93982(18) 0.33745(19) -0.15452(12)
H4 H 0.9655 0.3641 -0.1086
C8 C 1.0543(2) 0.1491(2) -0.13545(15)
H5 H 1.1135 0.1331 -0.1635
H6 H 1.0799 0.1964 -0.0930
C9 C 0.91692(18) -0.0199(2) -0.12756(13)
H7 H 0.8618 0.0210 -0.1536
C10 C 1.00732(18) -0.1589(2) -0.06694(12)
C11 C 1.0459(2) -0.2654(2) -0.03163(14)
H8 H 1.0041 -0.3352 -0.0285
C12 C 1.1482(2) -0.2631(2) -0.00163(15)
H9 H 1.1758 -0.3327 0.0225
C13 C 1.2117(2) -0.1596(3) -0.00641(14)
H10 H 1.2804 -0.1619 0.0147
C14 C 1.1756(2) -0.0534(2) -0.04155(13)
H11 H 1.2179 0.0158 -0.0448
C15 C 1.07229(18) -0.0563(2) -0.07173(12)
C16 C 0.3714(2) 0.26785(19) 0.00888(14)
C17 C 0.4421(2) 0.2698(2) -0.05285(15)
C18 C 0.5278(2) 0.3489(2) -0.05053(14)
H12 H 0.5422 0.4006 -0.0108
C19 C 0.5914(2) 0.3515(3) -0.10666(16)
H13 H 0.6482 0.4055 -0.1050
C20 C 0.5714(2) 0.2740(3) -0.16554(17)
H14 H 0.6151 0.2756 -0.2031
C21 C 0.48641(19) 0.1940(2) -0.16893(13)
C22 C 0.42172(19) 0.1939(2) -0.11322(13)
H15 H 0.3634 0.1423 -0.1159
C23 C 0.4668(2) 0.1052(3) -0.23165(14)
H16 H 0.4598 0.1509 -0.2769
H17 H 0.4017 0.0608 -0.2272
C24 C 0.5878(2) -0.0601(2) -0.17843(14)
H18 H 0.5535 -0.0692 -0.1365
C25 C 0.69864(18) -0.0798(2) -0.25785(13)
C26 C 0.7816(2) -0.1123(2) -0.29766(14)
H19 H 0.8324 -0.1688 -0.2800
C27 C 0.7856(2) -0.0575(3) -0.36398(15)
H20 H 0.8405 -0.0771 -0.3918
C28 C 0.7097(2) 0.0266(3) -0.39098(15)
H21 H 0.7147 0.0605 -0.4367
C29 C 0.6277(2) 0.0612(2) -0.35230(14)
H22 H 0.5773 0.1179 -0.3702
C30 C 0.62442(18) 0.0064(2) -0.28477(12)
Cd1 Cd 0.763200(14) -0.255370(14) -0.112670(10)
N1 N 0.90940(15) -0.13374(17) -0.10222(10)
N2 N 1.01240(15) 0.03038(16) -0.11170(10)
N3 N 0.55414(16) 0.01678(19) -0.23252(11)
N4 N 0.67327(16) -0.12095(18) -0.19014(11)
O1 O 0.84916(15) 0.55239(15) -0.10022(10)
O2 O 0.78223(15) 0.60416(16) -0.20854(10)
O3 O 0.39869(16) 0.3211(2) 0.06556(11)
O4 O 0.28585(17) 0.2123(2) -0.00157(11)
Cd1_2 Cd 0.763200(14) 0.744630(14) -0.112670(10)
Cd1B Cd 0.236800(14) 0.255370(14) 0.112670(10)
O1_2 O 0.84916(15) -0.44761(15) -0.10022(10)
O2_2 O 0.78223(15) -0.39584(16) -0.20854(10)
O3B O 0.60131(16) -0.3211(2) -0.06556(11)
O4B O 0.71415(17) -0.2123(2) 0.00157(11)
O5 O 0.593(5) 0.141(6) 0.104(3)
H23 H 0.6060 0.1156 0.0620
H24 H 0.6303 0.2043 0.1160
O6? O 0.540(8) 0.031(8) 0.020(3)
H25? H 0.5317 0.0676 -0.0208
H26? H 0.5297 -0.0465 0.0190
loop_
_geom_bond_atom_site_label_1
_geom_bond_atom_site_label_2
_geom_bond_site_symmetry_1
_geom_bond_site_symmetry_2
C1 C2 1_555 1_555
C2 C3 1_555 1_555
C3 H1 1_555 1_555
C4 C3 1_555 1_555
H2 C4 1_555 1_555
C5 C4 1_555 1_555
H3 C5 1_555 1_555
C6 C5 1_555 1_555
C7 C2 1_555 1_555
H4 C7 1_555 1_555
C8 C6 1_555 1_555
H5 C8 1_555 1_555
H6 C8 1_555 1_555
C9 H7 1_555 1_555
C10 C11 1_555 1_555
C11 H8 1_555 1_555
C12 C11 1_555 1_555
H9 C12 1_555 1_555
C13 C12 1_555 1_555
H10 C13 1_555 1_555
C14 C13 1_555 1_555
H11 C14 1_555 1_555
C15 C10 1_555 1_555
C16 C17 1_555 1_555
C17 C18 1_555 1_555
C18 H12 1_555 1_555
C19 C18 1_555 1_555
H13 C19 1_555 1_555
C20 C19 1_555 1_555
H14 C20 1_555 1_555
C21 C20 1_555 1_555
C22 C17 1_555 1_555
H15 C22 1_555 1_555
C23 C21 1_555 1_555
H16 C23 1_555 1_555
H17 C23 1_555 1_555
C24 H18 1_555 1_555
C25 C26 1_555 1_555
C26 H19 1_555 1_555
C27 C26 1_555 1_555
H20 C27 1_555 1_555
C28 C27 1_555 1_555
H21 C28 1_555 1_555
C29 C28 1_555 1_555
H22 C29 1_555 1_555
C30 C25 1_555 1_555
Cd1 N1 1_555 1_555
N1 C9 1_555 1_555
N2 C8 1_555 1_555
N3 C23 1_555 1_555
N4 C24 1_555 1_555
O1 C1 1_555 1_555
O2 C1 1_555 1_555
O3 C16 1_555 1_555
O4 C16 1_555 1_555
O5 H23 1_555 1_555
H24 O5 1_555 1_555
Cd1_2 O1 1_555 1_555
Cd1B O3 1_555 1_555
O1_2 Cd1 1_555 1_555
O2_2 Cd1 1_555 1_555
O3B Cd1 1_555 1_555
O4B Cd1 1_555 1_555
C6 C7 1_555 1_555
C9 N2 1_555 1_555
C10 N1 1_555 1_555
C14 C15 1_555 1_555
C15 N2 1_555 1_555
C21 C22 1_555 1_555
C24 N3 1_555 1_555
C25 N4 1_555 1_555
C29 C30 1_555 1_555
C30 N3 1_555 1_555
Cd1 N4 1_555 1_555
O2 Cd1_2 1_555 1_555
O4 Cd1B 1_555 1_555

#END
