
#######################################################################
#
#                 Cambridge Crystallographic Data Centre
#                                CCDC 
#
#######################################################################
#
# If this CIF has been generated from an entry in the Cambridge 
# Structural Database, then it will include bibliographic, chemical, 
# crystal, experimental, refinement or atomic coordinate data resulting 
# from the CCDC's data processing and validation procedures.
#
#######################################################################

data_NUNXEA
_symmetry_cell_setting           monoclinic
_symmetry_space_group_name_H-M   'C 2/c'
_symmetry_Int_Tables_number      15
_space_group_name_Hall           '-C 2yn'
loop_
_symmetry_equiv_pos_site_id
_symmetry_equiv_pos_as_xyz
1 x,y,z
2 -x,y,1/2-z
3 1/2+x,1/2+y,z
4 1/2-x,1/2+y,1/2-z
5 -x,-y,-z
6 x,-y,1/2+z
7 1/2-x,1/2-y,-z
8 1/2+x,1/2-y,1/2+z
_cell_length_a                   21.4560(4)
_cell_length_b                   15.3590(4)
_cell_length_c                   18.4910(6)
_cell_angle_alpha                90
_cell_angle_beta                 97.74(2)
_cell_angle_gamma                90
_cell_volume                     6038.06
loop_
_atom_site_label
_atom_site_type_symbol
_atom_site_fract_x
_atom_site_fract_y
_atom_site_fract_z
C1 C 0.76965(12) 0.52259(18) 0.58609(14)
H1 H 0.7463 0.4882 0.6180
H2 H 0.7520 0.5126 0.5351
H3 H 0.7664 0.5845 0.5977
C2 C 0.83728(11) 0.49578(16) 0.59738(12)
C3 C 0.87223(11) 0.44383(15) 0.55608(12)
C4 C 0.93294(11) 0.43713(15) 0.59578(12)
C5 C 0.98757(11) 0.38947(16) 0.57328(13)
H4 H 1.0132 0.4296 0.5485
H5 H 0.9724 0.3421 0.5400
H6 H 1.0131 0.3653 0.6165
C6 C 0.97077(12) 0.35740(16) 0.37061(14)
H7 H 0.9845 0.3431 0.3236
H8 H 0.9494 0.3070 0.3885
H9 H 1.0075 0.3725 0.4059
C7 C 0.92668(11) 0.43281(15) 0.36128(12)
C8 C 0.87522(11) 0.45220(15) 0.39826(12)
C9 C 0.84777(11) 0.52685(16) 0.36613(12)
C10 C 0.78973(12) 0.57463(17) 0.37889(14)
H10 H 0.7855 0.6274 0.3489
H11 H 0.7926 0.5906 0.4305
H12 H 0.7530 0.5372 0.3656
N1 N 0.87644(9) 0.51791(13) 0.65756(10)
H28 H 0.8655 0.5510 0.6926
N2 N 0.93546(9) 0.48303(13) 0.65830(10)
N3 N 0.93111(9) 0.49421(12) 0.30991(10)
N4 N 0.88268(9) 0.55081(13) 0.31437(10)
H29 H 0.8752 0.5973 0.2867
O1 O 1.0000 0.33717(15) 0.7500
H30 H 0.9810 0.3047 0.7736
Cu1 Cu 1.0000 0.48181(3) 0.7500
Se1 Se 0.841882(11) 0.382203(16) 0.468941(12)
C1A C 1.23035(12) 0.52259(18) 0.91391(14)
H1A H 1.2537 0.4882 0.8820
H2A H 1.2480 0.5126 0.9649
H3A H 1.2336 0.5845 0.9023
C2A C 1.16272(11) 0.49578(16) 0.90262(12)
C3A C 1.12777(11) 0.44383(15) 0.94392(12)
C4A C 1.06706(11) 0.43713(15) 0.90422(12)
C5A C 1.01243(11) 0.38947(16) 0.92672(13)
H4A H 0.9868 0.4296 0.9515
H5A H 1.0276 0.3421 0.9600
H6A H 0.9869 0.3653 0.8835
C6A C 1.02923(12) 0.35740(16) 1.12939(14)
H7A H 1.0155 0.3431 1.1764
H8A H 1.0506 0.3070 1.1115
H9A H 0.9925 0.3725 1.0941
C7A C 1.07332(11) 0.43281(15) 1.13872(12)
C8A C 1.12478(11) 0.45220(15) 1.10174(12)
C9A C 1.15223(11) 0.52685(16) 1.13387(12)
C10A C 1.21027(12) 0.57463(17) 1.12111(14)
H10A H 1.2145 0.6274 1.1511
H11A H 1.2074 0.5906 1.0695
H12A H 1.2470 0.5372 1.1344
N1A N 1.12356(9) 0.51791(13) 0.84244(10)
H28A H 1.1345 0.5510 0.8074
N2A N 1.06454(9) 0.48303(13) 0.84170(10)
N3A N 1.06889(9) 0.49421(12) 1.19009(10)
N3D N 1.06889(9) 0.50579(12) 0.69009(10)
N3E N 0.93111(9) 0.50579(12) 0.80991(10)
N4A N 1.11732(9) 0.55081(13) 1.18563(10)
H29A H 1.1248 0.5973 1.2133
H30A H 1.0190 0.3047 0.7264
Cu1D Cu 1.0000 0.51819(3) 0.2500
Cu1D_2 Cu 1.0000 0.51819(3) 1.2500
Se1A Se 1.158118(11) 0.382203(16) 1.031059(12)
C11 C 0.93216(12) 0.04009(16) 0.84170(13)
C12 C 0.97655(13) -0.02714(16) 0.84964(13)
H13 H 1.0177 -0.0166 0.8740
C13 C 0.96033(14) -0.10957(17) 0.82184(15)
H14 H 0.9906 -0.1551 0.8269
C14 C 0.90039(15) -0.12532(19) 0.78687(15)
H15 H 0.8894 -0.1818 0.7683
C15 C 0.85628(15) -0.0592(2) 0.77881(15)
H16 H 0.8151 -0.0704 0.7547
C16 C 0.87171(13) 0.02374(18) 0.80581(14)
H17 H 0.8413 0.0690 0.7999
C17 C 0.89479(12) 0.09403(16) 0.99831(13)
H18 H 0.9065 0.0365 0.9869
C18 C 0.86575(12) 0.10921(18) 1.06015(14)
H19 H 0.8580 0.0620 1.0909
C19 C 0.84825(13) 0.19234(19) 1.07704(15)
H20 H 0.8285 0.2024 1.1193
C20 C 0.90673(11) 0.16311(15) 0.95319(13)
C21 C 1.07652(13) 0.14666(17) 0.86366(15)
H21 H 1.0631 0.1465 0.8126
C22 C 1.11652(13) 0.14863(17) 1.01317(15)
H22 H 1.1304 0.1496 1.0642
C23 C 1.05261(12) 0.14969(16) 0.98780(13)
H23 H 1.0228 0.1510 1.0215
C24 C 1.03194(12) 0.14881(15) 0.91255(13)
C25 C 1.16016(13) 0.14610(17) 0.96428(16)
H24 H 1.2038 0.1453 0.9819
C26 C 0.88851(13) 0.24716(17) 0.97001(15)
H25 H 0.8959 0.2945 0.9392
C27 C 0.85963(14) 0.26146(19) 1.03183(16)
H26 H 0.8476 0.3188 1.0434
C28 C 1.14020(13) 0.14472(19) 0.88991(16)
H27 H 1.1703 0.1424 0.8567
O2 O 0.93330(8) 0.21702(11) 0.81896(9)
P1 P 0.94959(3) 0.14841(4) 0.87644(3)
O3 O 0.84524(9) 0.31134(11) 0.72590(10)
H31 H 0.8041 0.2973 0.7207
H32 H 0.8687 0.2652 0.7505
B1 B 0.71450(15) 0.1759(2) 0.75026(17)
F1 F 0.65217(8) 0.17089(10) 0.76495(9)
F2 F 0.75223(9) 0.21024(12) 0.81081(10)
F3 F 0.73540(9) 0.09284(12) 0.73760(10)
F4 F 0.71809(9) 0.22853(14) 0.68996(10)
loop_
_geom_bond_atom_site_label_1
_geom_bond_atom_site_label_2
_geom_bond_site_symmetry_1
_geom_bond_site_symmetry_2
C1 H1 1_555 1_555
H2 C1 1_555 1_555
H3 C1 1_555 1_555
C2 C1 1_555 1_555
C3 C2 1_555 1_555
C4 C3 1_555 1_555
C5 C4 1_555 1_555
H4 C5 1_555 1_555
H5 C5 1_555 1_555
H6 C5 1_555 1_555
C6 H7 1_555 1_555
H8 C6 1_555 1_555
H9 C6 1_555 1_555
C7 C6 1_555 1_555
C8 C7 1_555 1_555
C9 C8 1_555 1_555
C10 C9 1_555 1_555
H10 C10 1_555 1_555
H11 C10 1_555 1_555
H12 C10 1_555 1_555
C11 C12 1_555 1_555
C12 H13 1_555 1_555
C13 C12 1_555 1_555
H14 C13 1_555 1_555
C14 C13 1_555 1_555
H15 C14 1_555 1_555
C15 C14 1_555 1_555
H16 C15 1_555 1_555
C16 C11 1_555 1_555
H17 C16 1_555 1_555
C17 H18 1_555 1_555
C18 C17 1_555 1_555
H19 C18 1_555 1_555
C19 C18 1_555 1_555
H20 C19 1_555 1_555
C20 C17 1_555 1_555
C21 H21 1_555 1_555
C22 H22 1_555 1_555
C23 C22 1_555 1_555
H23 C23 1_555 1_555
C24 C21 1_555 1_555
C25 C22 1_555 1_555
H24 C25 1_555 1_555
C26 C20 1_555 1_555
H25 C26 1_555 1_555
C27 C19 1_555 1_555
H26 C27 1_555 1_555
C28 C21 1_555 1_555
H27 C28 1_555 1_555
N1 C2 1_555 1_555
H28 N1 1_555 1_555
N2 C4 1_555 1_555
N3 C7 1_555 1_555
N4 C9 1_555 1_555
H29 N4 1_555 1_555
O1 H30 1_555 1_555
O2 P1 1_555 1_555
O3 H31 1_555 1_555
H32 O3 1_555 1_555
Cu1 N2 1_555 1_555
Se1 C3 1_555 1_555
P1 C11 1_555 1_555
B1 F1 1_555 1_555
F2 B1 1_555 1_555
F3 B1 1_555 1_555
F4 B1 1_555 1_555
C1A H1A 1_555 1_555
H2A C1A 1_555 1_555
H3A C1A 1_555 1_555
C2A C1A 1_555 1_555
C3A C2A 1_555 1_555
C4A C3A 1_555 1_555
C5A C4A 1_555 1_555
H4A C5A 1_555 1_555
H5A C5A 1_555 1_555
H6A C5A 1_555 1_555
C6A H7A 1_555 1_555
H8A C6A 1_555 1_555
H9A C6A 1_555 1_555
C7A C6A 1_555 1_555
C8A C7A 1_555 1_555
C9A C8A 1_555 1_555
C10A C9A 1_555 1_555
H10A C10A 1_555 1_555
H11A C10A 1_555 1_555
H12A C10A 1_555 1_555
N1A C2A 1_555 1_555
H28A N1A 1_555 1_555
N2A Cu1 1_555 1_555
N3A C7A 1_555 1_555
N3D Cu1 1_555 1_555
N3E Cu1 1_555 1_555
N4A C9A 1_555 1_555
H29A N4A 1_555 1_555
H30A O1 1_555 1_555
Cu1D N3 1_555 1_555
Cu1D_2 N3A 1_555 1_555
Se1A C3A 1_555 1_555
C8 Se1 1_555 1_555
C15 C16 1_555 1_555
C20 P1 1_555 1_555
C23 C24 1_555 1_555
C24 P1 1_555 1_555
C25 C28 1_555 1_555
C26 C27 1_555 1_555
N1 N2 1_555 1_555
N3 N4 1_555 1_555
O1 Cu1 1_555 1_555
C4A N2A 1_555 1_555
C8A Se1A 1_555 1_555
N1A N2A 1_555 1_555
N3A N4A 1_555 1_555

#END
