
#######################################################################
#
#                 Cambridge Crystallographic Data Centre
#                                CCDC 
#
#######################################################################
#
# If this CIF has been generated from an entry in the Cambridge 
# Structural Database, then it will include bibliographic, chemical, 
# crystal, experimental, refinement or atomic coordinate data resulting 
# from the CCDC's data processing and validation procedures.
#
#######################################################################

data_NUNYUS
_symmetry_cell_setting           monoclinic
_symmetry_space_group_name_H-M   'P 21/n'
_symmetry_Int_Tables_number      14
_space_group_name_Hall           '-P 2yn'
loop_
_symmetry_equiv_pos_site_id
_symmetry_equiv_pos_as_xyz
1 x,y,z
2 1/2-x,1/2+y,1/2-z
3 -x,-y,-z
4 1/2+x,1/2-y,1/2+z
_cell_length_a                   10.271(5)
_cell_length_b                   18.615(3)
_cell_length_c                   10.814(5)
_cell_angle_alpha                90
_cell_angle_beta                 105.695(5)
_cell_angle_gamma                90
_cell_volume                     1990.49
loop_
_atom_site_label
_atom_site_type_symbol
_atom_site_fract_x
_atom_site_fract_y
_atom_site_fract_z
Co1 Co 0.30006(6) 0.12955(3) -0.12955(5)
O1 O 0.3042(3) 0.10231(18) -0.3121(3)
O2 O 0.3941(3) 0.20576(18) -0.2366(3)
O3 O 0.7168(3) 0.29752(18) -0.5129(3)
O4 O 0.5993(3) 0.31856(19) -0.7105(3)
O5 O 0.2065(3) 0.14334(19) -0.7883(3)
H1 H 0.2212 0.1588 -0.8542
N1 N 0.2287(4) 0.0327(2) -0.0728(4)
N2 N 0.4598(4) 0.1068(2) 0.0381(4)
C1 C 0.3603(4) 0.1611(3) -0.3270(4)
C2 C 0.3833(4) 0.1771(3) -0.4548(4)
C3 C 0.4878(4) 0.2230(2) -0.4663(4)
H2 H 0.5488 0.2412 -0.3931
C4 C 0.4996(4) 0.2409(2) -0.5861(4)
C5 C 0.6099(5) 0.2875(3) -0.6048(4)
C6 C 0.4041(4) 0.2157(3) -0.6968(4)
H3 H 0.4100 0.2292 -0.7779
C7 C 0.3004(5) 0.1701(3) -0.6841(4)
C8 C 0.2917(4) 0.1498(2) -0.5636(4)
H4 H 0.2248 0.1180 -0.5555
C9 C 0.1241(5) -0.0073(3) -0.1328(5)
C10 C 0.0813(6) -0.0655(3) -0.0689(6)
H5 H 0.0078 -0.0933 -0.1120
C11 C 0.1470(6) -0.0810(3) 0.0548(6)
H6 H 0.1167 -0.1186 0.0964
C12 C 0.2589(5) -0.0414(3) 0.1197(5)
C13 C 0.3348(6) -0.0547(3) 0.2501(5)
H7 H 0.3056 -0.0899 0.2975
C14 C 0.4472(6) -0.0172(3) 0.3044(5)
H8 H 0.4944 -0.0266 0.3891
C15 C 0.4957(5) 0.0371(3) 0.2345(5)
C16 C 0.6172(5) 0.0747(3) 0.2856(5)
H9 H 0.6709 0.0642 0.3676
C17 C 0.6552(5) 0.1262(3) 0.2142(5)
H10 H 0.7357 0.1510 0.2474
C18 C 0.5743(5) 0.1425(3) 0.0911(5)
C19 C 0.4205(5) 0.0540(3) 0.1086(4)
C20 C 0.3001(5) 0.0146(3) 0.0497(5)
C21 C 0.0510(5) 0.0108(3) -0.2689(5)
H11 H 0.0935 0.0514 -0.2965
H12 H -0.0415 0.0222 -0.2742
H13 H 0.0543 -0.0296 -0.3232
C22 C 0.6162(5) 0.2020(3) 0.0174(5)
H14 H 0.5512 0.2068 -0.0647
H15 H 0.7033 0.1913 0.0052
H16 H 0.6211 0.2461 0.0644
Co1C Co 0.80006(6) 0.37045(3) -0.62955(5)
O3C O 0.2168(3) 0.20248(18) -0.0129(3)
O4C O 0.0993(3) 0.18144(19) -0.2105(3)
O6 O 0.1476(5) -0.1509(3) 0.4374(5)
loop_
_geom_bond_atom_site_label_1
_geom_bond_atom_site_label_2
_geom_bond_site_symmetry_1
_geom_bond_site_symmetry_2
Co1 O1 1_555 1_555
O1 C1 1_555 1_555
O2 Co1 1_555 1_555
O3 C5 1_555 1_555
O4 C5 1_555 1_555
O5 H1 1_555 1_555
N1 Co1 1_555 1_555
N2 Co1 1_555 1_555
C1 O2 1_555 1_555
C2 C1 1_555 1_555
C3 C2 1_555 1_555
H2 C3 1_555 1_555
C4 C3 1_555 1_555
C5 C4 1_555 1_555
C6 C4 1_555 1_555
H3 C6 1_555 1_555
C7 O5 1_555 1_555
C8 C2 1_555 1_555
H4 C8 1_555 1_555
C9 N1 1_555 1_555
C10 C9 1_555 1_555
H5 C10 1_555 1_555
C11 C10 1_555 1_555
H6 C11 1_555 1_555
C12 C11 1_555 1_555
C13 C12 1_555 1_555
H7 C13 1_555 1_555
C14 C13 1_555 1_555
H8 C14 1_555 1_555
C15 C14 1_555 1_555
C16 C15 1_555 1_555
H9 C16 1_555 1_555
C17 C16 1_555 1_555
H10 C17 1_555 1_555
C18 N2 1_555 1_555
C19 N2 1_555 1_555
C20 N1 1_555 1_555
C21 C9 1_555 1_555
H11 C21 1_555 1_555
H12 C21 1_555 1_555
H13 C21 1_555 1_555
C22 C18 1_555 1_555
H14 C22 1_555 1_555
H15 C22 1_555 1_555
H16 C22 1_555 1_555
Co1C O3 1_555 1_555
O3C Co1 1_555 1_555
O4C Co1 1_555 1_555
O4 Co1C 1_555 1_555
C6 C7 1_555 1_555
C7 C8 1_555 1_555
C12 C20 1_555 1_555
C15 C19 1_555 1_555
C17 C18 1_555 1_555
C19 C20 1_555 1_555

#END
