
#######################################################################
#
#                 Cambridge Crystallographic Data Centre
#                                CCDC 
#
#######################################################################
#
# If this CIF has been generated from an entry in the Cambridge 
# Structural Database, then it will include bibliographic, chemical, 
# crystal, experimental, refinement or atomic coordinate data resulting 
# from the CCDC's data processing and validation procedures.
#
#######################################################################

data_NUNZON
_symmetry_cell_setting           monoclinic
_symmetry_space_group_name_H-M   'P 21/n'
_symmetry_Int_Tables_number      14
_space_group_name_Hall           '-P 2yn'
loop_
_symmetry_equiv_pos_site_id
_symmetry_equiv_pos_as_xyz
1 x,y,z
2 1/2-x,1/2+y,1/2-z
3 -x,-y,-z
4 1/2+x,1/2-y,1/2+z
_cell_length_a                   14.8543(14)
_cell_length_b                   12.3149(11)
_cell_length_c                   26.163(3)
_cell_angle_alpha                90
_cell_angle_beta                 106.126(2)
_cell_angle_gamma                90
_cell_volume                     4597.66
loop_
_atom_site_label
_atom_site_type_symbol
_atom_site_fract_x
_atom_site_fract_y
_atom_site_fract_z
Cd1 Cd 0.08563(5) 0.73393(5) 0.23680(2)
N1 N -0.1367(5) 1.0042(5) -0.0140(2)
N2 N 0.0309(5) 0.8478(5) 0.1636(3)
N3 N -0.3367(5) 0.8762(5) -0.1919(3)
N4 N -0.1048(7) 1.6438(7) -0.1281(4)
O1 O -0.0574(5) 0.6555(6) 0.2342(3)
O2 O -0.0621(4) 0.5059(5) 0.1757(3)
O3 O -0.1810(5) 0.5313(6) 0.2221(3)
O4 O -0.1782(5) 0.6494(6) 0.1512(3)
O5 O 0.1088(4) 0.6041(4) 0.1780(2)
H1 H 0.0642 0.5620 0.1793
H2 H 0.1598 0.5684 0.1863
O6 O 0.2211(4) 0.8322(5) 0.2511(3)
H3 H 0.2721 0.7971 0.2563
H4 H 0.2316 0.8907 0.2690
O7 O 0.0528(5) 0.8552(5) 0.2986(2)
H5 H 0.0508 0.9241 0.2968
H6 H -0.0006 0.8321 0.2996
S1 S -0.12083(17) 0.58559(19) 0.19480(9)
C1 C -0.0882(6) 1.0560(6) 0.0302(3)
C2 C -0.0828(6) 1.1684(6) 0.0329(3)
H7 H -0.0472 1.2020 0.0638
C3 C -0.1306(6) 1.2309(6) -0.0104(3)
C4 C -0.1817(6) 1.1769(6) -0.0567(3)
H8 H -0.2138 1.2156 -0.0867
C5 C -0.1830(5) 1.0630(6) -0.0564(3)
C6 C -0.0214(6) 0.8080(7) 0.1170(3)
H9 H -0.0339 0.7339 0.1143
C7 C -0.0575(6) 0.8731(7) 0.0729(3)
H10 H -0.0913 0.8420 0.0409
C8 C -0.0433(5) 0.9855(6) 0.0762(3)
C9 C 0.0116(6) 1.0249(7) 0.1246(3)
H11 H 0.0243 1.0988 0.1289
C10 C 0.0472(6) 0.9543(6) 0.1663(3)
H12 H 0.0846 0.9827 0.1980
C11 C -0.3373(6) 0.9835(7) -0.1925(3)
H13 H -0.3723 1.0180 -0.2233
C12 C -0.2899(6) 1.0474(7) -0.1508(3)
H14 H -0.2938 1.1227 -0.1536
C13 C -0.2359(6) 0.9993(6) -0.1044(3)
C14 C -0.2348(6) 0.8866(7) -0.1031(3)
H15 H -0.2008 0.8502 -0.0727
C15 C -0.2843(7) 0.8290(7) -0.1470(3)
H16 H -0.2813 0.7536 -0.1457
C16 C -0.1279(6) 1.3529(6) -0.0083(3)
C17 C -0.1248(6) 1.4140(7) -0.0520(3)
H17 H -0.1254 1.3798 -0.0838
C18 C -0.1209(6) 1.5272(7) -0.0484(4)
C19 C -0.1220(7) 1.5785(7) -0.0017(4)
H18 H -0.1205 1.6540 0.0001
C20 C -0.1255(7) 1.5184(7) 0.0427(4)
H19 H -0.1262 1.5534 0.0741
C21 C -0.1279(6) 1.4058(7) 0.0398(3)
H20 H -0.1296 1.3651 0.0694
C22 C -0.1134(7) 1.5910(7) -0.0935(4)
Cd1C Cd -0.41437(5) 0.76607(5) -0.26320(2)
N3C N 0.1633(5) 0.6238(5) 0.3081(3)
Cd2 Cd 0.57288(5) 0.70133(5) 0.22817(2)
N5 N 0.3582(5) 1.0000(5) -0.0175(2)
N6 N 0.5251(5) 0.8206(6) 0.1559(3)
N7 N 0.1545(5) 0.9014(6) -0.1982(3)
N8 N 0.3766(9) 1.6672(9) -0.0969(5)
O8 O 0.4464(4) 0.5845(4) 0.2072(2)
O9 O 0.3553(5) 0.6888(7) 0.2514(3)
O10 O 0.2905(4) 0.5309(5) 0.2015(3)
O11 O 0.3173(5) 0.6878(5) 0.1550(3)
O12 O 0.6329(5) 0.5879(6) 0.1727(3)
H21 H 0.6727 0.5535 0.1969
H22 H 0.6630 0.6220 0.1545
O13 O 0.7007(5) 0.8197(5) 0.2516(3)
H23 H 0.7572 0.8026 0.2669
H24 H 0.6925 0.8854 0.2591
O14 O 0.5182(5) 0.8042(6) 0.2862(3)
H25 H 0.4619 0.7815 0.2770
H26 H 0.5188 0.8692 0.2972
S2 S 0.35127(16) 0.62500(17) 0.20252(9)
C23 C 0.4083(6) 1.0437(7) 0.0283(3)
C24 C 0.4162(6) 1.1546(7) 0.0359(3)
H27 H 0.4545 1.1826 0.0675
C25 C 0.3669(6) 1.2243(7) -0.0039(3)
C26 C 0.3131(6) 1.1788(6) -0.0515(3)
H28 H 0.2786 1.2227 -0.0790
C27 C 0.3124(6) 1.0647(6) -0.0570(3)
C28 C 0.4775(7) 0.7861(8) 0.1083(4)
H29 H 0.4669 0.7120 0.1030
C29 C 0.4424(6) 0.8562(7) 0.0654(3)
H30 H 0.4113 0.8281 0.0322
C30 C 0.4535(6) 0.9662(7) 0.0721(3)
C31 C 0.5042(7) 1.0004(7) 0.1219(4)
H31 H 0.5159 1.0741 0.1281
C32 C 0.5375(7) 0.9288(8) 0.1622(3)
H32 H 0.5701 0.9554 0.1954
C33 C 0.1632(6) 1.0084(7) -0.1973(3)
H33 H 0.1345 1.0468 -0.2281
C34 C 0.2127(6) 1.0662(7) -0.1532(3)
H34 H 0.2162 1.1415 -0.1544
C35 C 0.2570(5) 1.0105(6) -0.1071(3)
C36 C 0.2484(6) 0.8982(7) -0.1077(3)
H35 H 0.2767 0.8577 -0.0775
C37 C 0.1968(6) 0.8471(7) -0.1539(3)
H36 H 0.1917 0.7719 -0.1540
C38 C 0.3690(6) 1.3441(7) 0.0051(4)
C39 C 0.3694(6) 1.4163(7) -0.0356(3)
H37 H 0.3702 1.3911 -0.0690
C40 C 0.3687(6) 1.5282(7) -0.0253(4)
C41 C 0.3649(8) 1.5660(8) 0.0243(5)
H38 H 0.3612 1.6401 0.0302
C42 C 0.3668(8) 1.4943(8) 0.0636(4)
H39 H 0.3670 1.5196 0.0971
C43 C 0.3684(7) 1.3859(8) 0.0549(4)
H40 H 0.3692 1.3382 0.0825
C44 C 0.3712(8) 1.6042(9) -0.0671(5)
Cd2C Cd 0.07288(5) 0.79867(5) -0.27183(2)
N7C N 0.6545(5) 0.5986(6) 0.3018(3)
O15 O 0.8823(6) 0.7742(8) 0.3010(4)
H41 H 0.9136 0.7255 0.2906
H42 H 0.8957 0.7724 0.3348
loop_
_geom_bond_atom_site_label_1
_geom_bond_atom_site_label_2
_geom_bond_site_symmetry_1
_geom_bond_site_symmetry_2
Cd1 N2 1_555 1_555
N1 C1 1_555 1_555
N2 C6 1_555 1_555
N3 C11 1_555 1_555
N4 C22 1_555 1_555
O1 Cd1 1_555 1_555
O2 S1 1_555 1_555
O3 S1 1_555 1_555
O4 S1 1_555 1_555
O5 Cd1 1_555 1_555
H1 O5 1_555 1_555
H2 O5 1_555 1_555
O6 Cd1 1_555 1_555
H3 O6 1_555 1_555
H4 O6 1_555 1_555
O7 Cd1 1_555 1_555
H5 O7 1_555 1_555
H6 O7 1_555 1_555
S1 O1 1_555 1_555
C1 C2 1_555 1_555
C2 H7 1_555 1_555
C3 C2 1_555 1_555
C4 C3 1_555 1_555
H8 C4 1_555 1_555
C5 N1 1_555 1_555
C6 H9 1_555 1_555
C7 C6 1_555 1_555
H10 C7 1_555 1_555
C8 C1 1_555 1_555
C9 C8 1_555 1_555
H11 C9 1_555 1_555
C10 N2 1_555 1_555
H12 C10 1_555 1_555
C11 H13 1_555 1_555
C12 C11 1_555 1_555
H14 C12 1_555 1_555
C13 C5 1_555 1_555
C14 C13 1_555 1_555
H15 C14 1_555 1_555
C15 N3 1_555 1_555
H16 C15 1_555 1_555
C16 C3 1_555 1_555
C17 C16 1_555 1_555
H17 C17 1_555 1_555
C18 C17 1_555 1_555
C19 C18 1_555 1_555
H18 C19 1_555 1_555
C20 C19 1_555 1_555
H19 C20 1_555 1_555
C21 C16 1_555 1_555
H20 C21 1_555 1_555
C22 C18 1_555 1_555
Cd2 N6 1_555 1_555
N5 C23 1_555 1_555
N6 C28 1_555 1_555
N7 C33 1_555 1_555
N8 C44 1_555 1_555
O8 Cd2 1_555 1_555
O9 S2 1_555 1_555
O10 S2 1_555 1_555
O11 S2 1_555 1_555
O12 Cd2 1_555 1_555
H21 O12 1_555 1_555
H22 O12 1_555 1_555
O13 Cd2 1_555 1_555
H23 O13 1_555 1_555
H24 O13 1_555 1_555
O14 Cd2 1_555 1_555
H25 O14 1_555 1_555
H26 O14 1_555 1_555
S2 O8 1_555 1_555
C23 C24 1_555 1_555
C24 H27 1_555 1_555
C25 C24 1_555 1_555
C26 C25 1_555 1_555
H28 C26 1_555 1_555
C27 N5 1_555 1_555
C28 H29 1_555 1_555
C29 C28 1_555 1_555
H30 C29 1_555 1_555
C30 C23 1_555 1_555
C31 C30 1_555 1_555
H31 C31 1_555 1_555
C32 N6 1_555 1_555
H32 C32 1_555 1_555
C33 H33 1_555 1_555
C34 C33 1_555 1_555
H34 C34 1_555 1_555
C35 C27 1_555 1_555
C36 C35 1_555 1_555
H35 C36 1_555 1_555
C37 N7 1_555 1_555
H36 C37 1_555 1_555
C38 C25 1_555 1_555
C39 C38 1_555 1_555
H37 C39 1_555 1_555
C40 C39 1_555 1_555
C41 C40 1_555 1_555
H38 C41 1_555 1_555
C42 C41 1_555 1_555
H39 C42 1_555 1_555
C43 C38 1_555 1_555
H40 C43 1_555 1_555
C44 C40 1_555 1_555
O15 H41 1_555 1_555
H42 O15 1_555 1_555
Cd1C N3 1_555 1_555
N3C Cd1 1_555 1_555
Cd2C N7 1_555 1_555
N7C Cd2 1_555 1_555
C4 C5 1_555 1_555
C7 C8 1_555 1_555
C9 C10 1_555 1_555
C12 C13 1_555 1_555
C14 C15 1_555 1_555
C20 C21 1_555 1_555
C26 C27 1_555 1_555
C29 C30 1_555 1_555
C31 C32 1_555 1_555
C34 C35 1_555 1_555
C36 C37 1_555 1_555
C42 C43 1_555 1_555

#END
