
#######################################################################
#
#                 Cambridge Crystallographic Data Centre
#                                CCDC 
#
#######################################################################
#
# If this CIF has been generated from an entry in the Cambridge 
# Structural Database, then it will include bibliographic, chemical, 
# crystal, experimental, refinement or atomic coordinate data resulting 
# from the CCDC's data processing and validation procedures.
#
#######################################################################

data_NUPBAC
_symmetry_cell_setting           orthorhombic
_symmetry_space_group_name_H-M   'P b c a'
_symmetry_Int_Tables_number      61
_space_group_name_Hall           '-P 2ac 2ab'
loop_
_symmetry_equiv_pos_site_id
_symmetry_equiv_pos_as_xyz
1 x,y,z
2 1/2-x,-y,1/2+z
3 1/2+x,1/2-y,-z
4 -x,1/2+y,1/2-z
5 -x,-y,-z
6 1/2+x,y,1/2-z
7 1/2-x,1/2+y,z
8 x,1/2-y,1/2+z
_cell_length_a                   13.553(3)
_cell_length_b                   9.1756(18)
_cell_length_c                   14.264(3)
_cell_angle_alpha                90
_cell_angle_beta                 90
_cell_angle_gamma                90
_cell_volume                     1773.83
loop_
_atom_site_label
_atom_site_type_symbol
_atom_site_fract_x
_atom_site_fract_y
_atom_site_fract_z
Cu1 Cu 0.5000 0.0000 0.5000
N1 N 0.59857(12) -0.00319(14) 0.60945(11)
N2 N 0.56419(11) -0.28834(17) 0.84880(11)
C1 C 0.65844(12) -0.10775(18) 0.75282(13)
C2 C 0.64349(13) -0.20742(19) 0.83251(12)
N3 N 0.58665(10) -0.36067(17) 0.92804(11)
N4 N 0.71285(12) -0.2276(2) 0.89803(12)
C3 C 0.58640(13) -0.08875(19) 0.68502(12)
H1 H 0.5267 -0.1376 0.6922
C4 C 0.68442(14) 0.0690(2) 0.60139(14)
H2 H 0.6935 0.1299 0.5500
C5 C 0.75937(16) 0.0566(3) 0.66588(14)
H3 H 0.8178 0.1081 0.6579
N5 N 0.67567(12) -0.32495(19) 0.95772(12)
C6 C 0.74698(14) -0.0331(3) 0.74253(13)
H4 H 0.7970 -0.0434 0.7866
O1 O 0.58452(9) 0.21181(15) 0.42449(11)
H5 H 0.6426 0.2084 0.4085
C7 C 0.5580(2) 0.3571(3) 0.4431(3)
H6 H 0.4874 0.3658 0.4430
H7 H 0.5853 0.4194 0.3956
H8 H 0.5832 0.3853 0.5033
Cu1C Cu 0.5000 -0.5000 1.0000
Cu1C_2 Cu 0.5000 0.5000 0.0000
N1D N 0.40143(12) 0.00319(14) 0.39055(11)
N2D N 0.43581(11) 0.28834(17) 0.15120(11)
C1D C 0.34156(12) 0.10775(18) 0.24718(13)
C2D C 0.35651(13) 0.20742(19) 0.16749(12)
N3D N 0.41335(10) 0.36067(17) 0.07196(11)
N3C N 0.41335(10) 0.13933(17) 0.57196(11)
N3G N 0.58665(10) -0.13933(17) 0.42804(11)
N4D N 0.28715(12) 0.2276(2) 0.10197(12)
C3D C 0.41360(13) 0.08875(19) 0.31498(12)
H1D H 0.4733 0.1376 0.3078
C4D C 0.31558(14) -0.0690(2) 0.39861(14)
H2D H 0.3065 -0.1299 0.4500
C5D C 0.24063(16) -0.0566(3) 0.33412(14)
H3D H 0.1822 -0.1081 0.3421
N5D N 0.32433(12) 0.32495(19) 0.04228(12)
C6D C 0.25302(14) 0.0331(3) 0.25747(13)
H4D H 0.2030 0.0434 0.2134
O1D O 0.41548(9) -0.21181(15) 0.57551(11)
H5D H 0.3574 -0.2084 0.5915
C7D C 0.4420(2) -0.3571(3) 0.5569(3)
H6D H 0.5126 -0.3658 0.5570
H7D H 0.4147 -0.4194 0.6044
H8D H 0.4168 -0.3853 0.4967
loop_
_geom_bond_atom_site_label_1
_geom_bond_atom_site_label_2
_geom_bond_site_symmetry_1
_geom_bond_site_symmetry_2
Cu1 N1 1_555 1_555
N1 C3 1_555 1_555
N2 C2 1_555 1_555
C1 C2 1_555 1_555
C2 N4 1_555 1_555
N3 N2 1_555 1_555
N4 N5 1_555 1_555
C3 C1 1_555 1_555
H1 C3 1_555 1_555
C4 N1 1_555 1_555
H2 C4 1_555 1_555
C5 C4 1_555 1_555
H3 C5 1_555 1_555
N5 N3 1_555 1_555
C6 C1 1_555 1_555
H4 C6 1_555 1_555
O1 Cu1 1_555 1_555
H5 O1 1_555 1_555
C7 O1 1_555 1_555
H6 C7 1_555 1_555
H7 C7 1_555 1_555
H8 C7 1_555 1_555
Cu1C N3 1_555 1_555
Cu1C_2 N3D 1_555 1_555
N1D Cu1 1_555 1_555
N2D C2D 1_555 1_555
C1D C2D 1_555 1_555
C2D N4D 1_555 1_555
N3D N2D 1_555 1_555
N3C Cu1 1_555 1_555
N3G Cu1 1_555 1_555
N4D N5D 1_555 1_555
C3D N1D 1_555 1_555
H1D C3D 1_555 1_555
C4D N1D 1_555 1_555
H2D C4D 1_555 1_555
C5D C4D 1_555 1_555
H3D C5D 1_555 1_555
N5D N3D 1_555 1_555
C6D C1D 1_555 1_555
H4D C6D 1_555 1_555
O1D Cu1 1_555 1_555
H5D O1D 1_555 1_555
C7D O1D 1_555 1_555
H6D C7D 1_555 1_555
H7D C7D 1_555 1_555
H8D C7D 1_555 1_555
C5 C6 1_555 1_555
C1D C3D 1_555 1_555
C5D C6D 1_555 1_555

#END
