
#######################################################################
#
#                 Cambridge Crystallographic Data Centre
#                                CCDC 
#
#######################################################################
#
# If this CIF has been generated from an entry in the Cambridge 
# Structural Database, then it will include bibliographic, chemical, 
# crystal, experimental, refinement or atomic coordinate data resulting 
# from the CCDC's data processing and validation procedures.
#
#######################################################################

data_NUPCIM
_symmetry_cell_setting           monoclinic
_symmetry_space_group_name_H-M   'C 2/c'
_symmetry_Int_Tables_number      15
_space_group_name_Hall           '-C 2yn'
loop_
_symmetry_equiv_pos_site_id
_symmetry_equiv_pos_as_xyz
1 x,y,z
2 -x,y,1/2-z
3 1/2+x,1/2+y,z
4 1/2-x,1/2+y,1/2-z
5 -x,-y,-z
6 x,-y,1/2+z
7 1/2-x,1/2-y,-z
8 1/2+x,1/2-y,1/2+z
_cell_length_a                   8.8373(8)
_cell_length_b                   13.3995(8)
_cell_length_c                   13.4110(10)
_cell_angle_alpha                90
_cell_angle_beta                 91.947(2)
_cell_angle_gamma                90
_cell_volume                     1587.15
loop_
_atom_site_label
_atom_site_type_symbol
_atom_site_fract_x
_atom_site_fract_y
_atom_site_fract_z
C1 C 0.8117(5) 0.0689(4) 0.0478(3)
C2 C 0.7337(5) -0.0185(3) 0.0508(3)
C3 C 0.6429(6) -0.1469(4) -0.0763(4)
H1 H 0.5430 -0.1283 -0.0997
H2 H 0.6359 -0.1919 -0.0209
H3 H 0.6950 -0.1790 -0.1291
C4 C 0.7949(5) 0.0055(3) -0.1053(4)
H4 H 0.8038 -0.0031 -0.1736
C5 C 0.9225(5) 0.1670(4) -0.1001(3)
H5 H 1.0301 0.1620 -0.0888
H6 H 0.8870 0.2284 -0.0723
H7 H 0.8991 0.1659 -0.1706
C6 C 0.8572(5) 0.1387(3) 0.1313(3)
Cd1 Cd 1.0000 0.29624(3) 0.2500
N1 N 0.8477(4) 0.0821(3) -0.0521(3)
N2 N 0.7271(4) -0.0568(3) -0.0441(3)
O1 O 0.9462(4) 0.2086(2) 0.1103(3)
O2 O 0.8016(4) 0.1220(3) 0.2134(3)
O3 O 0.7298(4) -0.1319(3) 0.1887(3)
O4 O 0.5138(4) -0.0666(3) 0.1313(3)
C7 C 0.6537(5) -0.0751(3) 0.1321(3)
C1A C 1.1883(5) 0.0689(4) 0.4522(3)
C2A C 1.2663(5) -0.0185(3) 0.4492(3)
C3A C 1.3571(6) -0.1469(4) 0.5763(4)
H1A H 1.4570 -0.1283 0.5997
H2A H 1.3641 -0.1919 0.5209
H3A H 1.3050 -0.1790 0.6291
C4A C 1.2051(5) 0.0055(3) 0.6053(4)
H4A H 1.1962 -0.0031 0.6736
C5A C 1.0775(5) 0.1670(4) 0.6001(3)
H5A H 0.9699 0.1620 0.5888
H6A H 1.1130 0.2284 0.5723
H7A H 1.1009 0.1659 0.6706
C6A C 1.1428(5) 0.1387(3) 0.3687(3)
N1A N 1.1523(4) 0.0821(3) 0.5521(3)
N2A N 1.2729(4) -0.0568(3) 0.5441(3)
O1A O 1.0538(4) 0.2086(2) 0.3897(3)
O2A O 1.1984(4) 0.1220(3) 0.2866(3)
O3A O 1.2702(4) -0.1319(3) 0.3113(3)
O4A O 1.4862(4) -0.0666(3) 0.3687(3)
C7A C 1.3463(5) -0.0751(3) 0.3679(3)
Cd1B Cd 0.5000 -0.20376(3) 0.2500
Cd1B_2 Cd 1.5000 -0.20376(3) 0.2500
O3B O 1.2298(4) 0.3681(3) 0.1887(3)
O3C O 0.7702(4) 0.3681(3) 0.3113(3)
O4B O 1.0138(4) 0.4334(3) 0.1313(3)
O4C O 0.9862(4) 0.4334(3) 0.3687(3)
loop_
_geom_bond_atom_site_label_1
_geom_bond_atom_site_label_2
_geom_bond_site_symmetry_1
_geom_bond_site_symmetry_2
C1 C2 1_555 1_555
C2 N2 1_555 1_555
C3 H1 1_555 1_555
H2 C3 1_555 1_555
H3 C3 1_555 1_555
C4 H4 1_555 1_555
C5 H5 1_555 1_555
H6 C5 1_555 1_555
H7 C5 1_555 1_555
C6 C1 1_555 1_555
Cd1 O1 1_555 1_555
N1 C1 1_555 1_555
N2 C3 1_555 1_555
O1 C6 1_555 1_555
O2 C6 1_555 1_555
O3 C7 1_555 1_555
O4 C7 1_555 1_555
C7 C2 1_555 1_555
C1A C2A 1_555 1_555
C2A N2A 1_555 1_555
C3A H1A 1_555 1_555
H2A C3A 1_555 1_555
H3A C3A 1_555 1_555
C4A H4A 1_555 1_555
C5A H5A 1_555 1_555
H6A C5A 1_555 1_555
H7A C5A 1_555 1_555
C6A C1A 1_555 1_555
N1A C1A 1_555 1_555
N2A C3A 1_555 1_555
O1A Cd1 1_555 1_555
O2A C6A 1_555 1_555
O3A C7A 1_555 1_555
O4A C7A 1_555 1_555
C7A C2A 1_555 1_555
Cd1B O3 1_555 1_555
Cd1B_2 O3A 1_555 1_555
O3B Cd1 1_555 1_555
O3C Cd1 1_555 1_555
O4B Cd1 1_555 1_555
O4C Cd1 1_555 1_555
C4 N1 1_555 1_555
C4 N2 1_555 1_555
C5 N1 1_555 1_555
O4 Cd1B 1_555 1_555
C4A N1A 1_555 1_555
C4A N2A 1_555 1_555
C5A N1A 1_555 1_555
C6A O1A 1_555 1_555
O4A Cd1B_2 1_555 1_555

#END
