
#######################################################################
#
#                 Cambridge Crystallographic Data Centre
#                                CCDC 
#
#######################################################################
#
# If this CIF has been generated from an entry in the Cambridge 
# Structural Database, then it will include bibliographic, chemical, 
# crystal, experimental, refinement or atomic coordinate data resulting 
# from the CCDC's data processing and validation procedures.
#
#######################################################################

data_NUPCUX
_symmetry_cell_setting           monoclinic
_symmetry_space_group_name_H-M   'P 21/c'
_symmetry_Int_Tables_number      14
_space_group_name_Hall           '-P 2ybc'
loop_
_symmetry_equiv_pos_site_id
_symmetry_equiv_pos_as_xyz
1 x,y,z
2 -x,1/2+y,1/2-z
3 -x,-y,-z
4 x,1/2-y,1/2+z
_cell_length_a                   15.512(3)
_cell_length_b                   14.761(3)
_cell_length_c                   10.470(2)
_cell_angle_alpha                90
_cell_angle_beta                 92.00(3)
_cell_angle_gamma                90
_cell_volume                     2395.88
loop_
_atom_site_label
_atom_site_type_symbol
_atom_site_fract_x
_atom_site_fract_y
_atom_site_fract_z
Cu1 Cu 0.23318(2) 0.97904(2) 0.20082(3)
V1 V 0.08531(3) 1.05781(3) 0.42475(4)
V2 V 0.31303(3) 1.19857(3) 0.31446(4)
V3 V 0.25041(3) 1.35680(3) 0.10425(4)
O1 O 0.14691(13) 0.98560(13) 0.3484(2)
O2 O 0.0000 1.0000 0.5000
O3 O 0.04662(16) 1.13047(15) 0.3236(2)
O4 O 0.27773(15) 1.10202(14) 0.2580(2)
O5 O 0.41332(14) 1.21072(16) 0.2836(2)
O6 O 0.25003(15) 1.28957(15) 0.2414(2)
O7 O 0.30503(16) 1.20006(18) 0.4860(2)
O8 O 0.14570(16) 1.12151(18) 0.5470(2)
O9 O 0.2978(2) 1.44903(19) 0.1372(3)
N1 N 0.17768(16) 0.86159(15) 0.1249(2)
N2 N 0.15122(14) 1.03192(15) 0.0616(2)
N3 N 0.32645(15) 0.91624(15) 0.3159(2)
N4 N 0.33465(15) 0.96215(17) 0.0718(2)
C1 C 0.1889(2) 0.7771(2) 0.1683(3)
C2 C 0.1533(3) 0.7026(2) 0.1050(4)
C3 C 0.1052(3) 0.7157(2) -0.0051(4)
C4 C 0.0924(2) 0.8026(2) -0.0504(4)
C5 C 0.12893(18) 0.87492(19) 0.0171(3)
C6 C 0.11711(17) 0.97065(19) -0.0214(3)
C7 C 0.0741(2) 0.9974(3) -0.1329(3)
C8 C 0.0654(2) 1.0887(3) -0.1598(3)
C9 C 0.0985(2) 1.1508(2) -0.0744(3)
C10 C 0.14073(19) 1.1201(2) 0.0355(3)
C11 C 0.3215(2) 0.9033(2) 0.4409(3)
C12 C 0.3903(3) 0.8710(3) 0.5148(4)
C13 C 0.4660(3) 0.8537(3) 0.4584(4)
C14 C 0.4726(2) 0.8668(3) 0.3293(4)
C15 C 0.40065(19) 0.8971(2) 0.2594(3)
C16 C 0.40090(19) 0.9128(2) 0.1201(3)
C17 C 0.4643(2) 0.8791(3) 0.0428(4)
C18 C 0.4617(3) 0.8992(3) -0.0851(4)
C19 C 0.3964(2) 0.9526(3) -0.1333(3)
C20 C 0.3348(2) 0.9822(3) -0.0522(3)
H1 H 0.299(2) 1.013(2) -0.078(3)
H2 H 0.387(2) 0.969(3) -0.223(4)
H3 H 0.508(3) 0.880(2) -0.129(4)
H4 H 0.498(2) 0.846(3) 0.078(4)
H5 H 0.522(3) 0.856(2) 0.292(3)
H6 H 0.510(3) 0.835(3) 0.498(4)
H7 H 0.384(3) 0.867(3) 0.598(4)
H8 H 0.272(2) 0.916(2) 0.474(3)
H9 H 0.1628(19) 1.159(2) 0.094(3)
H10 H 0.091(2) 1.207(3) -0.088(3)
H11 H 0.034(3) 1.110(3) -0.245(4)
H12 H 0.056(2) 0.956(3) -0.177(4)
H13 H 0.065(3) 0.813(3) -0.128(4)
H14 H 0.077(3) 0.658(3) -0.049(4)
H15 H 0.164(3) 0.651(3) 0.129(4)
H16 H 0.223(2) 0.772(2) 0.247(3)
Cu1B Cu -0.23318(2) 1.02096(2) 0.79918(3)
V1B V -0.08531(3) 0.94219(3) 0.57525(4)
V1C V 0.08531(3) 1.44219(3) -0.07525(4)
V2C V 0.31303(3) 1.30143(3) 0.81446(4)
V2C_2 V 0.31303(3) 1.30143(3) -0.18554(4)
V2B V -0.31303(3) 0.80143(3) 0.68554(4)
V3C V 0.25041(3) 1.14320(3) 0.60425(4)
O1B O -0.14691(13) 1.01440(13) 0.6516(2)
O3B O -0.04662(16) 0.86953(15) 0.6764(2)
O4B O -0.27773(15) 0.89798(14) 0.7420(2)
O4C O 0.27773(15) 1.39798(14) 0.7580(2)
O5C O 0.41332(14) 1.28928(16) 0.7836(2)
O6C O 0.25003(15) 1.21043(15) 0.7414(2)
O7C O 0.30503(16) 1.29994(18) -0.0140(2)
O7C_2 O 0.30503(16) 1.29994(18) 0.9860(2)
O8C O 0.14570(16) 1.37849(18) 0.0470(2)
O8B O -0.14570(16) 0.87849(18) 0.4530(2)
O9C O 0.2978(2) 1.05097(19) 0.6372(3)
N1B N -0.17768(16) 1.13841(15) 0.8751(2)
N2B N -0.15122(14) 0.96808(15) 0.9384(2)
N3B N -0.32645(15) 1.08376(15) 0.6841(2)
N4B N -0.33465(15) 1.03785(17) 0.9282(2)
C1B C -0.1889(2) 1.2229(2) 0.8317(3)
C2B C -0.1533(3) 1.2974(2) 0.8950(4)
C3B C -0.1052(3) 1.2843(2) 1.0051(4)
C4B C -0.0924(2) 1.1974(2) 1.0504(4)
C5B C -0.12893(18) 1.12508(19) 0.9829(3)
C6B C -0.11711(17) 1.02935(19) 1.0214(3)
C7B C -0.0741(2) 1.0026(3) 1.1329(3)
C8B C -0.0654(2) 0.9113(3) 1.1598(3)
C9B C -0.0985(2) 0.8492(2) 1.0744(3)
C10B C -0.14073(19) 0.8799(2) 0.9645(3)
C11B C -0.3215(2) 1.0967(2) 0.5591(3)
C12B C -0.3903(3) 1.1290(3) 0.4852(4)
C13B C -0.4660(3) 1.1463(3) 0.5416(4)
C14B C -0.4726(2) 1.1332(3) 0.6707(4)
C15B C -0.40065(19) 1.1029(2) 0.7406(3)
C16B C -0.40090(19) 1.0872(2) 0.8799(3)
C17B C -0.4643(2) 1.1209(3) 0.9572(4)
C18B C -0.4617(3) 1.1008(3) 1.0851(4)
C19B C -0.3964(2) 1.0474(3) 1.1333(3)
C20B C -0.3348(2) 1.0178(3) 1.0522(3)
H1B H -0.299(2) 0.987(2) 1.078(3)
H2B H -0.387(2) 1.031(3) 1.223(4)
H3B H -0.508(3) 1.120(2) 1.129(4)
H4B H -0.498(2) 1.154(3) 0.922(4)
H5B H -0.522(3) 1.144(2) 0.708(3)
H6B H -0.510(3) 1.165(3) 0.502(4)
H7B H -0.384(3) 1.133(3) 0.402(4)
H8B H -0.272(2) 1.084(2) 0.526(3)
H9B H -0.1628(19) 0.841(2) 0.906(3)
H10B H -0.091(2) 0.793(3) 1.088(3)
H11B H -0.034(3) 0.890(3) 1.245(4)
H12B H -0.056(2) 1.044(3) 1.177(4)
H13B H -0.065(3) 1.187(3) 1.128(4)
H14B H -0.077(3) 1.342(3) 1.049(4)
H15B H -0.164(3) 1.349(3) 0.871(4)
H16B H -0.223(2) 1.228(2) 0.753(3)
loop_
_geom_bond_atom_site_label_1
_geom_bond_atom_site_label_2
_geom_bond_site_symmetry_1
_geom_bond_site_symmetry_2
Cu1 O1 1_555 1_555
V1 O1 1_555 1_555
V2 O4 1_555 1_555
V3 O6 1_555 1_555
O2 V1 1_555 1_555
O3 V1 1_555 1_555
O4 Cu1 1_555 1_555
O5 V2 1_555 1_555
O6 V2 1_555 1_555
O7 V2 1_555 1_555
O8 V1 1_555 1_555
O9 V3 1_555 1_555
N1 Cu1 1_555 1_555
N2 Cu1 1_555 1_555
N3 Cu1 1_555 1_555
N4 Cu1 1_555 1_555
C1 N1 1_555 1_555
C2 C1 1_555 1_555
C3 C2 1_555 1_555
C4 C3 1_555 1_555
C5 N1 1_555 1_555
C6 N2 1_555 1_555
C7 C6 1_555 1_555
C8 C7 1_555 1_555
C9 C8 1_555 1_555
C10 N2 1_555 1_555
C11 N3 1_555 1_555
C12 C11 1_555 1_555
C13 C12 1_555 1_555
C14 C13 1_555 1_555
C15 N3 1_555 1_555
C16 N4 1_555 1_555
C17 C16 1_555 1_555
C18 C17 1_555 1_555
C19 C18 1_555 1_555
C20 N4 1_555 1_555
H1 C20 1_555 1_555
H2 C19 1_555 1_555
H3 C18 1_555 1_555
H4 C17 1_555 1_555
H5 C14 1_555 1_555
H6 C13 1_555 1_555
H7 C12 1_555 1_555
H8 C11 1_555 1_555
H9 C10 1_555 1_555
H10 C9 1_555 1_555
H11 C8 1_555 1_555
H12 C7 1_555 1_555
H13 C4 1_555 1_555
H14 C3 1_555 1_555
H15 C2 1_555 1_555
H16 C1 1_555 1_555
Cu1B O1B 1_555 1_555
V1B O2 1_555 1_555
V1C O8C 1_555 1_555
V2C O4C 1_555 1_555
V2C_2 O7C 1_555 1_555
V2B O4B 1_555 1_555
V3C O7 1_555 1_555
O1B V1B 1_555 1_555
O3B V1B 1_555 1_555
O4B Cu1B 1_555 1_555
O5C V2C 1_555 1_555
O6C V2C 1_555 1_555
O7C V3 1_555 1_555
O7C_2 V2C 1_555 1_555
O8C V3 1_555 1_555
O8B V1B 1_555 1_555
O9C V3C 1_555 1_555
N1B Cu1B 1_555 1_555
N2B Cu1B 1_555 1_555
N3B Cu1B 1_555 1_555
N4B Cu1B 1_555 1_555
C1B N1B 1_555 1_555
C2B C1B 1_555 1_555
C3B C2B 1_555 1_555
C4B C3B 1_555 1_555
C5B N1B 1_555 1_555
C6B N2B 1_555 1_555
C7B C6B 1_555 1_555
C8B C7B 1_555 1_555
C9B C8B 1_555 1_555
C10B N2B 1_555 1_555
C11B N3B 1_555 1_555
C12B C11B 1_555 1_555
C13B C12B 1_555 1_555
C14B C13B 1_555 1_555
C15B N3B 1_555 1_555
C16B N4B 1_555 1_555
C17B C16B 1_555 1_555
C18B C17B 1_555 1_555
C19B C18B 1_555 1_555
C20B N4B 1_555 1_555
H1B C20B 1_555 1_555
H2B C19B 1_555 1_555
H3B C18B 1_555 1_555
H4B C17B 1_555 1_555
H5B C14B 1_555 1_555
H6B C13B 1_555 1_555
H7B C12B 1_555 1_555
H8B C11B 1_555 1_555
H9B C10B 1_555 1_555
H10B C9B 1_555 1_555
H11B C8B 1_555 1_555
H12B C7B 1_555 1_555
H13B C4B 1_555 1_555
H14B C3B 1_555 1_555
H15B C2B 1_555 1_555
H16B C1B 1_555 1_555
O8 V3C 1_555 1_555
C4 C5 1_555 1_555
C5 C6 1_555 1_555
C9 C10 1_555 1_555
C14 C15 1_555 1_555
C15 C16 1_555 1_555
C19 C20 1_555 1_555
V3C O6C 1_555 1_555
C4B C5B 1_555 1_555
C5B C6B 1_555 1_555
C9B C10B 1_555 1_555
C14B C15B 1_555 1_555
C15B C16B 1_555 1_555
C19B C20B 1_555 1_555

#END
