
#######################################################################
#
#                 Cambridge Crystallographic Data Centre
#                                CCDC 
#
#######################################################################
#
# If this CIF has been generated from an entry in the Cambridge 
# Structural Database, then it will include bibliographic, chemical, 
# crystal, experimental, refinement or atomic coordinate data resulting 
# from the CCDC's data processing and validation procedures.
#
#######################################################################

data_NUPCEH
_symmetry_cell_setting           monoclinic
_symmetry_space_group_name_H-M   'C 2/c'
_symmetry_Int_Tables_number      15
_space_group_name_Hall           '-C 2yn'
loop_
_symmetry_equiv_pos_site_id
_symmetry_equiv_pos_as_xyz
1 x,y,z
2 -x,y,1/2-z
3 1/2+x,1/2+y,z
4 1/2-x,1/2+y,1/2-z
5 -x,-y,-z
6 x,-y,1/2+z
7 1/2-x,1/2-y,-z
8 1/2+x,1/2-y,1/2+z
_cell_length_a                   19.086(4)
_cell_length_b                   10.057(2)
_cell_length_c                   7.8451(16)
_cell_angle_alpha                90
_cell_angle_beta                 101.80(3)
_cell_angle_gamma                90
_cell_volume                     1474.03
loop_
_atom_site_label
_atom_site_type_symbol
_atom_site_fract_x
_atom_site_fract_y
_atom_site_fract_z
C1 C 0.3791(2) 0.7656(5) 1.0047(5)
H1 H 0.3615 0.6825 0.9652
C2 C 0.3413(3) 0.8765(5) 0.9329(6)
C3 C 0.2732(3) 0.8623(8) 0.7991(8)
H2 H 0.2792 0.9020 0.6917
H3 H 0.2350 0.9062 0.8395
H4 H 0.2619 0.7698 0.7807
C4 C 0.3706(3) 0.9988(5) 0.9920(6)
H5 H 0.3478 1.0767 0.9473
C5 C 0.4327(3) 1.0059(5) 1.1151(6)
H6 H 0.4521 1.0881 1.1531
C6 C 0.4666(2) 0.8885(4) 1.1833(5)
N1 N 0.43894(18) 0.7698(3) 1.1264(4)
Cd1 Cd 0.5000 0.57933(4) 1.2500
I1 I 0.407345(14) 0.39302(3) 1.03947(3)
C1A C 0.6209(2) 0.7656(5) 1.4953(5)
H1A H 0.6385 0.6825 1.5348
C2A C 0.6587(3) 0.8765(5) 1.5671(6)
C3A C 0.7268(3) 0.8623(8) 1.7009(8)
H2A H 0.7208 0.9020 1.8083
H3A H 0.7650 0.9062 1.6605
H4A H 0.7381 0.7698 1.7193
C4A C 0.6294(3) 0.9988(5) 1.5080(6)
H5A H 0.6522 1.0767 1.5527
C5A C 0.5673(3) 1.0059(5) 1.3849(6)
H6A H 0.5479 1.0881 1.3469
C6A C 0.5334(2) 0.8885(4) 1.3167(5)
N1A N 0.56106(18) 0.7698(3) 1.3736(4)
Cd1D Cd 0.5000 0.42067(4) 0.7500
Cd1D_2 Cd 0.5000 0.42067(4) 1.7500
I1A I 0.592655(14) 0.39302(3) 1.46053(3)
I1D I 0.592655(14) 0.60698(3) 0.96053(3)
I1E I 0.407345(14) 0.60698(3) 1.53947(3)
loop_
_geom_bond_atom_site_label_1
_geom_bond_atom_site_label_2
_geom_bond_site_symmetry_1
_geom_bond_site_symmetry_2
C1 H1 1_555 1_555
C2 C1 1_555 1_555
C3 C2 1_555 1_555
H2 C3 1_555 1_555
H3 C3 1_555 1_555
H4 C3 1_555 1_555
C4 C2 1_555 1_555
H5 C4 1_555 1_555
C5 C4 1_555 1_555
H6 C5 1_555 1_555
C6 C5 1_555 1_555
N1 C1 1_555 1_555
Cd1 N1 1_555 1_555
I1 Cd1 1_555 1_555
C1A H1A 1_555 1_555
C2A C1A 1_555 1_555
C3A C2A 1_555 1_555
H2A C3A 1_555 1_555
H3A C3A 1_555 1_555
H4A C3A 1_555 1_555
C4A C2A 1_555 1_555
H5A C4A 1_555 1_555
C5A C4A 1_555 1_555
H6A C5A 1_555 1_555
C6A C6 1_555 1_555
N1A Cd1 1_555 1_555
Cd1D I1 1_555 1_555
Cd1D_2 I1A 1_555 1_555
I1A Cd1 1_555 1_555
I1D Cd1 1_555 1_555
I1E Cd1 1_555 1_555
C6 N1 1_555 1_555
C1A N1A 1_555 1_555
C5A C6A 1_555 1_555
C6A N1A 1_555 1_555
Cd1D I1D 1_555 1_555
Cd1D_2 I1E 1_555 1_555

#END
