
#######################################################################
#
#                 Cambridge Crystallographic Data Centre
#                                CCDC 
#
#######################################################################
#
# If this CIF has been generated from an entry in the Cambridge 
# Structural Database, then it will include bibliographic, chemical, 
# crystal, experimental, refinement or atomic coordinate data resulting 
# from the CCDC's data processing and validation procedures.
#
#######################################################################

data_NUPGUA
_symmetry_cell_setting           triclinic
_symmetry_space_group_name_H-M   'P -1'
_symmetry_Int_Tables_number      2
_space_group_name_Hall           '-P 1'
loop_
_symmetry_equiv_pos_site_id
_symmetry_equiv_pos_as_xyz
1 x,y,z
2 -x,-y,-z
_cell_length_a                   9.741(8)
_cell_length_b                   12.751(13)
_cell_length_c                   19.970(21)
_cell_angle_alpha                71.06(1)
_cell_angle_beta                 83.70(1)
_cell_angle_gamma                84.09(1)
_cell_volume                     2325.97
loop_
_atom_site_label
_atom_site_type_symbol
_atom_site_fract_x
_atom_site_fract_y
_atom_site_fract_z
C1 C 0.1422(8) 0.6144(8) 0.8334(5)
C2 C 0.0903(9) 0.5948(11) 0.9002(6)
C3 C 0.0560(10) 0.6817(11) 0.9330(6)
C4 C 0.0877(9) 0.7920(10) 0.8903(6)
C5 C 0.1421(8) 0.8189(8) 0.8238(6)
C6 C 0.1712(8) 0.7278(8) 0.7916(6)
C7 C 0.1715(8) 0.9334(9) 0.7772(6)
C8 C 0.3240(8) 0.9465(8) 0.7591(5)
C9 C 0.4068(8) 0.9427(8) 0.8104(5)
C10 C 0.5486(9) 0.9491(9) 0.7994(6)
C11 C 0.6053(8) 0.9573(8) 0.7330(6)
C12 C 0.5270(8) 0.9646(7) 0.6768(5)
C13 C 0.3875(8) 0.9601(6) 0.6921(5)
C14 C 0.6011(9) 0.9721(8) 0.6039(5)
C15 C 0.6860(8) 0.8651(7) 0.6089(5)
C16 C 0.8177(8) 0.8483(9) 0.6157(6)
C17 C 0.8950(8) 0.7385(9) 0.6245(6)
C18 C 0.8201(8) 0.6503(8) 0.6237(6)
C19 C 0.6859(8) 0.6596(8) 0.6179(5)
C20 C 0.6113(7) 0.7725(7) 0.6067(5)
C21 C 0.6021(9) 0.5658(9) 0.6250(6)
C22 C 0.5297(8) 0.5258(7) 0.6963(5)
C23 C 0.6110(9) 0.4820(8) 0.7528(5)
C24 C 0.5561(10) 0.4507(9) 0.8210(6)
C25 C 0.4148(9) 0.4679(7) 0.8334(5)
C26 C 0.3281(8) 0.5102(7) 0.7808(6)
C27 C 0.3897(8) 0.5405(7) 0.7119(5)
C28 C 0.1759(9) 0.5307(9) 0.7971(7)
O1 O 0.0013(9) 0.6629(8) 0.9927(5)
C29 C 0.6385(10) 0.9400(14) 0.8598(7)
C30 C 0.7661(16) 0.9971(19) 0.8325(10)
C31 C 0.5635(17) 0.9725(33) 0.9149(13)
C32 C 0.6994(27) 0.8246(20) 0.8873(12)
O2 O 1.0191(6) 0.7277(7) 0.6330(5)
C33 C 0.6498(11) 0.4038(12) 0.8859(7)
C34 C 0.5816(26) 0.3683(40) 0.9455(13)
C35 C 0.7318(50) 0.4959(34) 0.8792(25)
C36 C 0.7539(39) 0.3234(33) 0.8733(15)
O3 O 0.2186(8) 0.7501(6) 0.7312(5)
O4 O 0.3068(5) 0.9585(4) 0.6367(3)
C37 C 0.2362(9) 1.0647(7) 0.6028(5)
C38 C 0.1332(7) 1.0393(8) 0.5609(5)
N1 N 0.0290(7) 1.1144(7) 0.5433(5)
O5 O 0.1470(6) 0.9546(5) 0.5428(4)
O6 O 0.4896(6) 0.7851(6) 0.5967(4)
O7 O 0.3086(6) 0.5930(5) 0.6553(4)
C39 C 0.2674(10) 0.5227(9) 0.6180(6)
C40 C 0.2201(10) 0.5926(9) 0.5507(6)
N2 N 0.1619(13) 0.5390(9) 0.5138(6)
O8 O 0.2359(9) 0.6918(6) 0.5263(5)
Na1 Na 1.2513(3) 0.7873(3) 0.6094(2)
H1 H 0.0751(9) 0.5219(11) 0.9274(6)
H2 H 0.0688(9) 0.8484(10) 0.9107(6)
H3 H 0.1332(8) 0.9865(9) 0.8009(6)
H4 H 0.1262(8) 0.9500(9) 0.7336(6)
H5 H 0.3654(8) 0.9354(8) 0.8557(5)
H6 H 0.7010(8) 0.9582(8) 0.7244(6)
H7 H 0.5336(9) 0.9854(8) 0.5692(5)
H8 H 0.6606(9) 1.0335(8) 0.5886(5)
H9 H 0.8663(8) 0.9078(9) 0.6150(6)
H10 H 0.8680(8) 0.5820(8) 0.6274(6)
H11 H 0.6619(9) 0.5054(9) 0.6159(6)
H12 H 0.5347(9) 0.5894(9) 0.5897(6)
H13 H 0.7065(9) 0.4738(8) 0.7436(5)
H14 H 0.3770(9) 0.4496(7) 0.8802(5)
H15 H 0.1309(9) 0.5547(9) 0.7531(7)
H16 H 0.1388(9) 0.4614(9) 0.8267(7)
H17 H 0.8277(55) 0.9546(54) 0.8085(57)
H18 H 0.8099(70) 1.0048(96) 0.8712(13)
H19 H 0.7440(21) 1.0694(43) 0.7998(52)
H20 H 0.485(15) 0.929(13) 0.9324(86)
H21 H 0.532(22) 1.0496(49) 0.8972(39)
H22 H 0.6219(82) 0.961(21) 0.9527(63)
H23 H 0.731(18) 0.8123(52) 0.9333(45)
H24 H 0.776(12) 0.8128(51) 0.8554(53)
H25 H 0.6306(59) 0.7737(20) 0.8911(96)
H26 H 0.496(17) 0.413(18) 0.9454(64)
H27 H 0.635(16) 0.373(27) 0.9822(24)
H28 H 0.563(30) 0.2924(98) 0.9541(81)
H29 H 0.825(16) 0.480(21) 0.863(29)
H30 H 0.731(48) 0.507(30) 0.9247(70)
H31 H 0.693(36) 0.562(11) 0.846(23)
H32 H 0.833(17) 0.3605(45) 0.846(20)
H33 H 0.718(14) 0.282(23) 0.848(19)
H34 H 0.782(33) 0.273(22) 0.9179(17)
H35 H 0.3006(9) 1.1160(7) 0.5719(5)
H36 H 0.1900(9) 1.0970(7) 0.6378(5)
H37 H -0.0326(7) 1.1055(7) 0.5183(5)
H38 H 0.0226(7) 1.1724(7) 0.5568(5)
H39 H 0.1937(10) 0.4781(9) 0.6460(6)
H40 H 0.3453(10) 0.4729(9) 0.6103(6)
H41 H 0.1353(13) 0.5750(9) 0.4723(6)
H42 H 0.1515(13) 0.4689(9) 0.5318(6)
Na1_2 Na 0.2513(3) 0.7873(3) 0.6094(2)
O2_2 O 0.0191(6) 0.7277(7) 0.6330(5)
Cl1 Cl 0.0279(3) 0.7068(2) 0.3323(2)
O9 O 0.0125(27) 0.6320(21) 0.2998(14)
O10 O 0.0306(20) 0.8123(11) 0.2983(9)
O11 O -0.0530(12) 0.6909(9) 0.3974(7)
O12 O 0.1655(22) 0.6669(25) 0.3471(13)
C41 C 0.4862(44) 0.7369(41) 0.3685(20)
O13 O 0.5100(37) 0.7434(34) 0.4393(17)
H43 H 0.476(46) 0.803(18) 0.443(11)
O14 O -0.0127(59) 0.9629(57) 0.0493(57)
C42 C -0.1560(58) 0.9848(52) 0.0457(36)
H44 H 0.016(30) 0.92(10) 0.027(72)
H45 H -0.1973(83) 0.918(10) 0.049(25)
H46 H -0.1747(58) 1.041(26) 0.001(12)
H47 H -0.1944(84) 1.011(36) 0.084(13)
O15? O 0.5021(43) 0.6855(49) 0.4241(29)
C43? C 0.6426(52) 0.6908(55) 0.4397(36)
O16? O -0.1051(71) 0.8714(59) 0.1351(37)
C44? C -0.2002(70) 0.7879(60) 0.1492(45)
H48? H 0.5030(76) 0.680(63) 0.384(16)
H49? H 0.653(14) 0.763(12) 0.443(23)
H50? H 0.7063(57) 0.678(36) 0.402(12)
H51? H 0.661(15) 0.635(23) 0.484(12)
H52? H -0.070(73) 0.866(46) 0.172(12)
H53? H -0.155(17) 0.7165(77) 0.172(26)
H54? H -0.233(41) 0.788(29) 0.1054(46)
H55? H -0.277(25) 0.803(24) 0.180(23)
loop_
_geom_bond_atom_site_label_1
_geom_bond_atom_site_label_2
_geom_bond_site_symmetry_1
_geom_bond_site_symmetry_2
C1 C2 1_555 1_555
C2 C3 1_555 1_555
C3 C4 1_555 1_555
C4 C5 1_555 1_555
C5 C6 1_555 1_555
C6 C1 1_555 1_555
C7 C5 1_555 1_555
C8 C7 1_555 1_555
C9 C8 1_555 1_555
C10 C9 1_555 1_555
C11 C10 1_555 1_555
C12 C11 1_555 1_555
C13 C8 1_555 1_555
C14 C12 1_555 1_555
C15 C14 1_555 1_555
C16 C15 1_555 1_555
C17 C16 1_555 1_555
C18 C17 1_555 1_555
C19 C18 1_555 1_555
C20 C15 1_555 1_555
C21 C19 1_555 1_555
C22 C21 1_555 1_555
C23 C22 1_555 1_555
C24 C23 1_555 1_555
C25 C24 1_555 1_555
C26 C25 1_555 1_555
C27 C22 1_555 1_555
C28 C1 1_555 1_555
O1 C3 1_555 1_555
C29 C10 1_555 1_555
C30 C29 1_555 1_555
C31 C29 1_555 1_555
C32 C29 1_555 1_555
O2 C17 1_555 1_555
C33 C24 1_555 1_555
C34 C33 1_555 1_555
C35 C33 1_555 1_555
C36 C33 1_555 1_555
O3 C6 1_555 1_555
O4 C13 1_555 1_555
C37 O4 1_555 1_555
C38 C37 1_555 1_555
N1 C38 1_555 1_555
O5 C38 1_555 1_555
O6 C20 1_555 1_555
O7 C27 1_555 1_555
C39 O7 1_555 1_555
C40 C39 1_555 1_555
N2 C40 1_555 1_555
O8 C40 1_555 1_555
Na1 O2 1_555 1_555
H1 C2 1_555 1_555
H2 C4 1_555 1_555
H3 C7 1_555 1_555
H4 C7 1_555 1_555
H5 C9 1_555 1_555
H6 C11 1_555 1_555
H7 C14 1_555 1_555
H8 C14 1_555 1_555
H9 C16 1_555 1_555
H10 C18 1_555 1_555
H11 C21 1_555 1_555
H12 C21 1_555 1_555
H13 C23 1_555 1_555
H14 C25 1_555 1_555
H15 C28 1_555 1_555
H16 C28 1_555 1_555
H17 C30 1_555 1_555
H18 C30 1_555 1_555
H19 C30 1_555 1_555
H20 C31 1_555 1_555
H21 C31 1_555 1_555
H22 C31 1_555 1_555
H23 C32 1_555 1_555
H24 C32 1_555 1_555
H25 C32 1_555 1_555
H26 C34 1_555 1_555
H27 C34 1_555 1_555
H28 C34 1_555 1_555
H29 C35 1_555 1_555
H30 C35 1_555 1_555
H31 C35 1_555 1_555
H32 C36 1_555 1_555
H33 C36 1_555 1_555
H34 C36 1_555 1_555
H35 C37 1_555 1_555
H36 C37 1_555 1_555
H37 N1 1_555 1_555
H38 N1 1_555 1_555
H39 C39 1_555 1_555
H40 C39 1_555 1_555
H41 N2 1_555 1_555
H42 N2 1_555 1_555
Cl1 O9 1_555 1_555
O10 Cl1 1_555 1_555
O11 Cl1 1_555 1_555
O12 Cl1 1_555 1_555
C41 O13 1_555 1_555
O13 H43 1_555 1_555
O14 C42 1_555 1_555
C42 H45 1_555 1_555
H44 O14 1_555 1_555
H46 C42 1_555 1_555
H47 C42 1_555 1_555
Na1_2 O3 1_555 1_555
O2_2 Na1_2 1_555 1_555
C12 C13 1_555 1_555
C19 C20 1_555 1_555
C26 C27 1_555 1_555
C26 C28 1_555 1_555
O4 Na1_2 1_555 1_555
O5 Na1_2 1_555 1_555
O6 Na1_2 1_555 1_555
O7 Na1_2 1_555 1_555
O8 Na1_2 1_555 1_555

#END
