
#######################################################################
#
#                 Cambridge Crystallographic Data Centre
#                                CCDC 
#
#######################################################################
#
# If this CIF has been generated from an entry in the Cambridge 
# Structural Database, then it will include bibliographic, chemical, 
# crystal, experimental, refinement or atomic coordinate data resulting 
# from the CCDC's data processing and validation procedures.
#
#######################################################################

data_NUPTIB
_symmetry_cell_setting           orthorhombic
_symmetry_space_group_name_H-M   'C 2 2 21'
_symmetry_Int_Tables_number      20
_space_group_name_Hall           'C 2n 2'
loop_
_symmetry_equiv_pos_site_id
_symmetry_equiv_pos_as_xyz
1 x,y,z
2 -x,-y,1/2+z
3 x,-y,-z
4 -x,y,1/2-z
5 1/2+x,1/2+y,z
6 1/2-x,1/2-y,1/2+z
7 1/2+x,1/2-y,-z
8 1/2-x,1/2+y,1/2-z
_cell_length_a                   10.260(2)
_cell_length_b                   16.622(2)
_cell_length_c                   11.6090(10)
_cell_angle_alpha                90
_cell_angle_beta                 90
_cell_angle_gamma                90
_cell_volume                     1979.82
loop_
_atom_site_label
_atom_site_type_symbol
_atom_site_fract_x
_atom_site_fract_y
_atom_site_fract_z
Cu1 Cu 1.0000 0.8083(1) 0.2500
Mg1 Mg 0.5000 0.8950(1) 0.2500
N1 N 0.8632(3) 0.7890(2) 0.1330(2)
O1 O 1.1188(2) 0.8055(2) 0.1190(2)
O2 O 1.1241(2) 0.8090(1) -0.0722(2)
O3 O 0.6287(2) 0.8915(2) 0.1112(2)
O4 O 0.5041(2) 0.8920(1) -0.0463(1)
O5 O 1.0000 0.9432(2) 0.2500
O6 O 0.5000 0.7697(2) 0.2500
O7 O 0.5000 1.0193(2) 0.2500
O8 O 0.6531(2) 0.8979(2) 0.3691(2)
C1 C 1.0634(3) 0.8070(2) 0.0199(2)
C2 C 0.9146(3) 0.8087(2) 0.0179(2)
C3 C 0.8680(3) 0.8912(2) -0.0237(3)
C4 C 0.7313(3) 0.8937(2) -0.0753(2)
C5 C 0.6143(3) 0.8921(2) 0.0032(3)
H1 H 0.8128(31) 0.8165(20) 0.1428(25)
H2 H 0.8474(42) 0.7425(29) 0.1220(35)
H3 H 0.8912(26) 0.7744(18) -0.0356(24)
H4 H 0.8743(30) 0.9271(21) 0.0365(26)
H5 H 0.9325(31) 0.9082(21) -0.0858(24)
H6 H 0.7102(35) 0.8538(21) -0.1211(30)
H7 H 0.7173(34) 0.9486(22) -0.1158(29)
H8 H 0.9477(44) 0.9627(29) 0.2862(34)
H9 H 0.5483(34) 0.7427(23) 0.2071(28)
H10 H 0.4994(48) 1.0427(19) 0.3006(22)
H11 H 0.5987(55) 0.8889(40) 0.4520(42)
H12 H 0.7132(39) 0.8660(22) 0.3710(33)
N1C N 1.1368(3) 0.7890(2) 0.3670(2)
O1C O 0.8812(2) 0.8055(2) 0.3810(2)
H8C H 1.0523(44) 0.9627(29) 0.2138(34)
H1C H 1.1872(31) 0.8165(20) 0.3572(25)
H2C H 1.1526(42) 0.7425(29) 0.3780(35)
O3C O 0.3713(2) 0.8915(2) 0.3888(2)
C5C C 0.3857(3) 0.8921(2) 0.4968(3)
O4C O 0.4959(2) 0.8920(1) 0.5463(1)
C4C C 0.2687(3) 0.8937(2) 0.5753(2)
C3C C 0.1320(3) 0.8912(2) 0.5237(3)
C2C C 0.0854(3) 0.8087(2) 0.4821(2)
N1C_2 N 0.1368(3) 0.7890(2) 0.3670(2)
Cu1C Cu 0.0000 0.8083(1) 0.2500
H1C_2 H 0.1872(31) 0.8165(20) 0.3572(25)
H2C_2 H 0.1526(42) 0.7425(29) 0.3780(35)
C1C C -0.0634(3) 0.8070(2) 0.4801(2)
O1C_2 O -0.1188(2) 0.8055(2) 0.3810(2)
O2C O -0.1241(2) 0.8090(1) 0.5722(2)
H3C H 0.1088(26) 0.7744(18) 0.5356(24)
H4C H 0.1257(30) 0.9271(21) 0.4635(26)
H5C H 0.0675(31) 0.9082(21) 0.5858(24)
H6C H 0.2898(35) 0.8538(21) 0.6211(30)
H7C H 0.2827(34) 0.9486(22) 0.6158(29)
O8C O 0.3469(2) 0.8979(2) 0.1309(2)
H11C H 0.4013(55) 0.8889(40) 0.0480(42)
H12C H 0.2868(39) 0.8660(22) 0.1290(33)
H9C H 0.4517(34) 0.7427(23) 0.2929(28)
H10C H 0.5006(48) 1.0427(19) 0.1994(22)
O9 O 0.1849(3) 1.0362(2) 0.1527(4)
loop_
_geom_bond_atom_site_label_1
_geom_bond_atom_site_label_2
_geom_bond_site_symmetry_1
_geom_bond_site_symmetry_2
Cu1 N1 1_555 1_555
Mg1 O3 1_555 1_555
N1 C2 1_555 1_555
O1 Cu1 1_555 1_555
O2 C1 1_555 1_555
O3 C5 1_555 1_555
O4 C5 1_555 1_555
O5 Cu1 1_555 1_555
O6 Mg1 1_555 1_555
O7 Mg1 1_555 1_555
O8 Mg1 1_555 1_555
C1 O1 1_555 1_555
C2 C1 1_555 1_555
C3 C2 1_555 1_555
C4 C3 1_555 1_555
C5 C4 1_555 1_555
H1 N1 1_555 1_555
H2 N1 1_555 1_555
H3 C2 1_555 1_555
H4 C3 1_555 1_555
H5 C3 1_555 1_555
H6 C4 1_555 1_555
H7 C4 1_555 1_555
H8 O5 1_555 1_555
H9 O6 1_555 1_555
H10 O7 1_555 1_555
H11 O8 1_555 1_555
H12 O8 1_555 1_555
N1C Cu1 1_555 1_555
O1C Cu1 1_555 1_555
H8C O5 1_555 1_555
H1C N1C 1_555 1_555
H2C N1C 1_555 1_555
O3C Mg1 1_555 1_555
C5C O3C 1_555 1_555
O4C C5C 1_555 1_555
C4C C5C 1_555 1_555
C3C C4C 1_555 1_555
C2C C3C 1_555 1_555
N1C_2 C2C 1_555 1_555
Cu1C N1C_2 1_555 1_555
H1C_2 N1C_2 1_555 1_555
H2C_2 N1C_2 1_555 1_555
C1C C2C 1_555 1_555
O1C_2 Cu1C 1_555 1_555
O2C C1C 1_555 1_555
H3C C2C 1_555 1_555
H4C C3C 1_555 1_555
H5C C3C 1_555 1_555
H6C C4C 1_555 1_555
H7C C4C 1_555 1_555
O8C Mg1 1_555 1_555
H11C O8C 1_555 1_555
H12C O8C 1_555 1_555
H9C O6 1_555 1_555
H10C O7 1_555 1_555
C1C O1C_2 1_555 1_555

#END
