
#######################################################################
#
#                 Cambridge Crystallographic Data Centre
#                                CCDC 
#
#######################################################################
#
# If this CIF has been generated from an entry in the Cambridge 
# Structural Database, then it will include bibliographic, chemical, 
# crystal, experimental, refinement or atomic coordinate data resulting 
# from the CCDC's data processing and validation procedures.
#
#######################################################################

data_NUPWIG
_symmetry_cell_setting           monoclinic
_symmetry_space_group_name_H-M   'C 2/c'
_symmetry_Int_Tables_number      15
_space_group_name_Hall           '-C 2yn'
loop_
_symmetry_equiv_pos_site_id
_symmetry_equiv_pos_as_xyz
1 x,y,z
2 -x,y,1/2-z
3 1/2+x,1/2+y,z
4 1/2-x,1/2+y,1/2-z
5 -x,-y,-z
6 x,-y,1/2+z
7 1/2-x,1/2-y,-z
8 1/2+x,1/2-y,1/2+z
_cell_length_a                   39.641(3)
_cell_length_b                   4.3302(3)
_cell_length_c                   12.8607(8)
_cell_angle_alpha                90
_cell_angle_beta                 98.404(5)
_cell_angle_gamma                90
_cell_volume                     2183.88
loop_
_atom_site_label
_atom_site_type_symbol
_atom_site_fract_x
_atom_site_fract_y
_atom_site_fract_z
Rb1 Rb 0.53252(1) 0.71425(8) 0.41106(2)
Cl1 Cl 0.66575(3) 1.1071(2) 0.31320(7)
Cl2 Cl 0.72802(2) 0.4700(3) 0.64713(9)
O1 O 0.50000 0.2897(8) 0.25000
O2 O 0.59805(6) 0.4938(6) 0.54449(18)
O3 O 0.53789(6) 0.2205(5) 0.5570(2)
O4 O 0.55505(6) 0.0734(6) 0.72371(19)
C1 C 0.63017(8) 0.5832(8) 0.5286(3)
C2 C 0.63168(10) 0.7780(8) 0.4420(3)
C3 C 0.66324(10) 0.8701(8) 0.4215(3)
C4 C 0.69371(11) 0.7828(8) 0.4829(3)
C5 C 0.69102(9) 0.5914(9) 0.5678(3)
C6 C 0.66010(8) 0.4923(8) 0.5924(3)
C7 C 0.59553(9) 0.3198(8) 0.6376(3)
C8 C 0.55928(9) 0.1991(8) 0.6381(3)
H1 H 0.4832(8) 0.172(8) 0.266(4)
H2 H 0.61150 0.84410 0.39880
H3 H 0.71520 0.85090 0.46730
H4 H 0.65920 0.36420 0.65190
H5 H 0.60210 0.45220 0.70000
H6 H 0.61160 0.14340 0.64200
H1A H 0.5168(8) 0.172(8) 0.234(4)
Rb1A Rb 0.46748(1) 0.71425(8) 0.08894(2)
Cl1A Cl 0.33425(3) 1.1071(2) 0.18680(7)
Cl2A Cl 0.27198(2) 0.4700(3) -0.14713(9)
O2A O 0.40195(6) 0.4938(6) -0.04449(18)
O3A O 0.46211(6) 0.2205(5) -0.0570(2)
O4A O 0.44495(6) 0.0734(6) -0.22371(19)
C1A C 0.36983(8) 0.5832(8) -0.0286(3)
C2A C 0.36832(10) 0.7780(8) 0.0580(3)
C3A C 0.33676(10) 0.8701(8) 0.0785(3)
C4A C 0.30629(11) 0.7828(8) 0.0171(3)
C5A C 0.30898(9) 0.5914(9) -0.0678(3)
C6A C 0.33990(8) 0.4923(8) -0.0924(3)
C7A C 0.40447(9) 0.3198(8) -0.1376(3)
C8A C 0.44072(9) 0.1991(8) -0.1381(3)
H2A H 0.38850 0.84410 0.10120
H3A H 0.28480 0.85090 0.03270
H4A H 0.34080 0.36420 -0.15190
H5A H 0.39790 0.45220 -0.20000
H6A H 0.38840 0.14340 -0.14200
Rb1_2 Rb 0.53252(1) -0.28575(8) 0.41106(2)
Rb1A_2 Rb 0.46748(1) -0.28575(8) 0.08894(2)
Rb1D Rb 0.46748(1) 0.28575(8) -0.41106(2)
Rb1D_2 Rb 0.46748(1) 0.28575(8) 0.58894(2)
Rb1E Rb 0.53252(1) 0.28575(8) -0.08894(2)
Rb1E_2 Rb 0.53252(1) 0.28575(8) 0.91106(2)
O1_2 O 0.50000 1.2897(8) 0.25000
O3_2 O 0.53789(6) 1.2205(5) 0.5570(2)
O3A_2 O 0.46211(6) 1.2205(5) -0.0570(2)
O3D O 0.46211(6) 0.7795(5) 0.4430(2)
O3E O 0.53789(6) 0.7795(5) 0.0570(2)
O4D O 0.44495(6) 0.9266(6) 0.27629(19)
O4E O 0.55505(6) 0.9266(6) 0.22371(19)
loop_
_geom_bond_atom_site_label_1
_geom_bond_atom_site_label_2
_geom_bond_site_symmetry_1
_geom_bond_site_symmetry_2
Rb1 O1 1_555 1_555
Cl1 C3 1_555 1_555
Cl2 C5 1_555 1_555
O1 H1 1_555 1_555
O2 Rb1 1_555 1_555
O3 Rb1 1_555 1_555
O4 C8 1_555 1_555
C1 O2 1_555 1_555
C2 C1 1_555 1_555
C3 C2 1_555 1_555
C4 C3 1_555 1_555
C5 C4 1_555 1_555
C6 C1 1_555 1_555
C7 O2 1_555 1_555
C8 O3 1_555 1_555
H2 C2 1_555 1_555
H3 C4 1_555 1_555
H4 C6 1_555 1_555
H5 C7 1_555 1_555
H6 C7 1_555 1_555
H1A O1 1_555 1_555
Rb1A O1 1_555 1_555
Cl1A C3A 1_555 1_555
Cl2A C5A 1_555 1_555
O2A Rb1A 1_555 1_555
O3A Rb1A 1_555 1_555
O4A C8A 1_555 1_555
C1A O2A 1_555 1_555
C2A C1A 1_555 1_555
C3A C2A 1_555 1_555
C4A C3A 1_555 1_555
C5A C4A 1_555 1_555
C6A C1A 1_555 1_555
C7A O2A 1_555 1_555
C8A O3A 1_555 1_555
H2A C2A 1_555 1_555
H3A C4A 1_555 1_555
H4A C6A 1_555 1_555
H5A C7A 1_555 1_555
H6A C7A 1_555 1_555
Rb1_2 O1 1_555 1_555
Rb1A_2 O1 1_555 1_555
Rb1D O4A 1_555 1_555
Rb1D_2 O3 1_555 1_555
Rb1E O3A 1_555 1_555
Rb1E_2 O4 1_555 1_555
O1_2 Rb1 1_555 1_555
O3_2 Rb1 1_555 1_555
O3A_2 Rb1A 1_555 1_555
O3D Rb1 1_555 1_555
O3E Rb1A 1_555 1_555
O4D Rb1A 1_555 1_555
O4E Rb1 1_555 1_555
O3 Rb1_2 1_555 1_555
C5 C6 1_555 1_555
C7 C8 1_555 1_555
Rb1A O1_2 1_555 1_555
O3A Rb1A_2 1_555 1_555
C5A C6A 1_555 1_555
C7A C8A 1_555 1_555
Rb1D_2 O3D 1_555 1_555
Rb1E O3E 1_555 1_555

#END
