
#######################################################################
#
#                 Cambridge Crystallographic Data Centre
#                                CCDC 
#
#######################################################################
#
# If this CIF has been generated from an entry in the Cambridge 
# Structural Database, then it will include bibliographic, chemical, 
# crystal, experimental, refinement or atomic coordinate data resulting 
# from the CCDC's data processing and validation procedures.
#
#######################################################################

data_NUPXAZ
_symmetry_cell_setting           trigonal
_symmetry_space_group_name_H-M   'P 31 1 2'
_symmetry_Int_Tables_number      151
_space_group_name_Hall           "P 31 2' (0,0,4)"
loop_
_symmetry_equiv_pos_site_id
_symmetry_equiv_pos_as_xyz
1 x,y,z
2 -y,x-y,1/3+z
3 -x+y,-x,2/3+z
4 -y,-x,2/3-z
5 -x+y,y,1/3-z
6 x,x-y,-z
_cell_length_a                   8.7215(3)
_cell_length_b                   8.7215(3)
_cell_length_c                   20.9874(9)
_cell_angle_alpha                90
_cell_angle_beta                 90
_cell_angle_gamma                120
_cell_volume                     1382.52
loop_
_atom_site_label
_atom_site_type_symbol
_atom_site_fract_x
_atom_site_fract_y
_atom_site_fract_z
Ag1 Ag 0.46725(4) 0.05832(4) 0.84789(2)
Mn1 Mn 0.89941(6) -0.05030(3) 1.0000
N1 N 0.2249(4) 0.0953(4) 0.74313(13)
N2 N 1.1424(3) 0.1907(3) 0.96099(11)
N3 N 0.7178(3) -0.0053(4) 0.94131(11)
C1 C 1.3017(3) 0.2186(3) 0.97859(12)
C2 C 1.2821(5) 0.4635(6) 0.9044(3)
H1 H 1.2710 0.5468 0.8803
C3 C 0.3101(5) 0.0826(5) 0.78142(16)
C4 C 0.6284(4) 0.0198(5) 0.90861(14)
C5 C 1.4560(4) 0.3673(4) 0.95830(15)
H2 H 1.5658 0.3828 0.9698
C6 C 1.1344(5) 0.3099(6) 0.9239(2)
H3 H 1.0238 0.2887 0.9106
C7 C 1.4453(4) 0.4911(5) 0.92118(18)
H4 H 1.5474 0.5920 0.9077
N2E N 1.1424(3) -0.0483(4) 1.03901(11)
C1E C 1.3017(3) 0.0831(4) 1.02141(12)
C2E C 1.2821(5) -0.1814(8) 1.0956(3)
H1E H 1.2710 -0.2758 1.1197
C5E C 1.4560(4) 0.0887(6) 1.04170(15)
H2E H 1.5658 0.1830 1.0302
C6E C 1.1344(5) -0.1755(8) 1.0761(2)
H3E H 1.0238 -0.2649 1.0894
C7E C 1.4453(4) -0.0458(6) 1.07882(18)
H4E H 1.5474 -0.0446 1.0923
Ag1E Ag 0.46725(4) -0.59107(6) 1.15211(2)
N1E N 0.2249(4) -0.8704(6) 1.25687(13)
N3E N 0.7178(3) -0.2769(5) 1.05869(11)
C3E C 0.3101(5) -0.7725(7) 1.21858(16)
C4E C 0.6284(4) -0.3914(6) 1.09139(14)
Mn1A Mn 0.05030(3) -1.05029(7) 1.3333
Mn1B Mn 0.05029(7) 0.10059(6) 0.6667
N1A N 0.9047(4) 0.1296(6) 1.07646(13)
N1C N 0.9047(4) -0.2249(4) 0.92354(13)
loop_
_geom_bond_atom_site_label_1
_geom_bond_atom_site_label_2
_geom_bond_site_symmetry_1
_geom_bond_site_symmetry_2
Ag1 C3 1_555 1_555
Mn1 N2 1_555 1_555
N1 C3 1_555 1_555
N2 C1 1_555 1_555
N3 Mn1 1_555 1_555
C1 C5 1_555 1_555
C2 H1 1_555 1_555
C4 Ag1 1_555 1_555
C5 H2 1_555 1_555
C6 N2 1_555 1_555
H3 C6 1_555 1_555
C7 C2 1_555 1_555
H4 C7 1_555 1_555
N2E Mn1 1_555 1_555
C1E C1 1_555 1_555
C2E H1E 1_555 1_555
C5E C1E 1_555 1_555
H2E C5E 1_555 1_555
C6E N2E 1_555 1_555
H3E C6E 1_555 1_555
C7E C2E 1_555 1_555
H4E C7E 1_555 1_555
Ag1E C3E 1_555 1_555
N1E C3E 1_555 1_555
N3E Mn1 1_555 1_555
C4E Ag1E 1_555 1_555
Mn1A N1E 1_555 1_555
Mn1B N1 1_555 1_555
N1A Mn1 1_555 1_555
N1C Mn1 1_555 1_555
N3 C4 1_555 1_555
C2 C6 1_555 1_555
C5 C7 1_555 1_555
N2E C1E 1_555 1_555
C2E C6E 1_555 1_555
C5E C7E 1_555 1_555
N3E C4E 1_555 1_555

#END
