
#######################################################################
#
#                 Cambridge Crystallographic Data Centre
#                                CCDC 
#
#######################################################################
#
# If this CIF has been generated from an entry in the Cambridge 
# Structural Database, then it will include bibliographic, chemical, 
# crystal, experimental, refinement or atomic coordinate data resulting 
# from the CCDC's data processing and validation procedures.
#
#######################################################################

data_NUQGEN
_symmetry_cell_setting           triclinic
_symmetry_space_group_name_H-M   'P -1'
_symmetry_Int_Tables_number      2
_space_group_name_Hall           '-P 1'
loop_
_symmetry_equiv_pos_site_id
_symmetry_equiv_pos_as_xyz
1 x,y,z
2 -x,-y,-z
_cell_length_a                   9.2513(9)
_cell_length_b                   10.0437(10)
_cell_length_c                   17.4014(17)
_cell_angle_alpha                76.912(2)
_cell_angle_beta                 89.341(2)
_cell_angle_gamma                79.841(2)
_cell_volume                     1549.52
loop_
_atom_site_label
_atom_site_type_symbol
_atom_site_fract_x
_atom_site_fract_y
_atom_site_fract_z
Ni1 Ni 0.17041(7) 0.41454(6) 0.21037(4)
Ni2 Ni 0.19341(7) 0.57519(6) 0.36318(4)
N1 N -0.0459(5) 0.4877(4) 0.1659(2)
N2 N -0.2791(5) 0.5079(5) 0.1326(3)
N3 N 0.2832(5) 0.9348(5) 0.4248(3)
N4 N 0.2320(5) 0.7360(5) 0.4099(3)
O1 O 0.2222(4) 0.6020(3) 0.1643(2)
O2 O 0.1516(4) 0.7153(3) 0.2595(2)
O3 O 0.1756(4) 1.2001(3) 0.2262(2)
O4 O 0.2458(4) 1.3235(3) 0.1159(2)
O5 O 0.3777(4) 0.3560(4) 0.2654(2)
O6 O 0.4041(4) 0.5039(4) 0.3412(2)
O7 O 1.1005(3) 0.4316(3) 0.32392(19)
O8 O 0.9456(4) 0.5502(4) 0.3902(2)
Br1 Br 0.33223(12) 0.98321(8) -0.09332(4)
Br2 Br 0.87466(7) -0.02558(6) 0.30424(4)
C1 C -0.1146(7) 0.2952(7) 0.1125(4)
H1 H -0.0534 0.3043 0.0673
H2 H -0.2053 0.2709 0.0991
H3 H -0.0650 0.2239 0.1549
C2 C -0.1455(6) 0.4294(6) 0.1374(3)
C3 C -0.1237(6) 0.6121(6) 0.1770(3)
H4 H -0.0833 0.6774 0.1959
C4 C -0.2660(6) 0.6255(6) 0.1568(3)
H5 H -0.3406 0.6998 0.1589
C5 C -0.4169(6) 0.4774(6) 0.1037(3)
H6 H -0.5000 0.5256 0.1270
H7 H -0.4172 0.3785 0.1202
C6 C -0.4328(6) 0.5221(6) 0.0147(3)
H8 H -0.3455 0.4808 -0.0086
H9 H -0.4422 0.6223 -0.0015
C7 C 0.4437(10) 1.0579(7) 0.4863(6)
H10 H 0.4892 1.1398 0.4740
H11 H 0.3794 1.0671 0.5300
C8 C 0.3481(7) 1.0615(6) 0.4158(4)
H12 H 0.2697 1.1418 0.4085
H13 H 0.4065 1.0717 0.3688
C9 C 0.1715(7) 0.9046(6) 0.4748(3)
H14 H 0.1266 0.9572 0.5090
C10 C 0.1398(6) 0.7828(6) 0.4646(3)
H15 H 0.0671 0.7380 0.4904
C11 C 0.3172(6) 0.8313(6) 0.3868(3)
C12 C 0.4394(7) 0.8219(7) 0.3310(4)
H16 H 0.5316 0.7954 0.3600
H17 H 0.4363 0.9105 0.2952
H18 H 0.4292 0.7536 0.3017
C13 C 0.1966(6) 0.7088(5) 0.1916(3)
C14 C 0.2223(6) 0.8421(5) 0.1384(3)
C15 C 0.2099(6) 0.9601(5) 0.1684(3)
H19 H 0.1831 0.9561 0.2205
C16 C 0.2369(6) 1.0838(5) 0.1219(3)
C17 C 0.2740(7) 1.0922(6) 0.0431(3)
H20 H 0.2920 1.1749 0.0111
C18 C 0.2830(8) 0.9738(6) 0.0145(3)
C19 C 0.2613(7) 0.8491(5) 0.0604(3)
H21 H 0.2724 0.7704 0.0396
C20 C 0.2219(6) 1.2092(5) 0.1562(3)
C21 C 0.4510(5) 0.4066(5) 0.3067(3)
C22 C 0.6125(5) 0.3486(5) 0.3171(3)
C23 C 0.6619(6) 0.2153(5) 0.3051(3)
H22 H 0.5957 0.1648 0.2908
C24 C 0.8095(6) 0.1591(5) 0.3147(3)
C25 C 0.9124(6) 0.2366(5) 0.3301(3)
H23 H 1.0121 0.1995 0.3336
C26 C 0.8630(5) 0.3707(5) 0.3401(3)
C27 C 0.9740(5) 0.4572(5) 0.3530(3)
C28 C 0.7133(5) 0.4232(5) 0.3364(3)
H24 H 0.6804 0.5100 0.3470
O9 O 0.2259(4) 0.4351(4) 0.4758(2)
H25 H 0.170(4) 0.454(7) 0.510(2)
H26 H 0.3129(14) 0.415(2) 0.488(3)
N1A N -0.9541(5) 0.5123(4) -0.1659(2)
N2A N -0.7209(5) 0.4921(5) -0.1326(3)
C1A C -0.8854(7) 0.7048(7) -0.1125(4)
H1A H -0.9466 0.6957 -0.0673
H2A H -0.7947 0.7291 -0.0991
H3A H -0.9350 0.7761 -0.1549
C2A C -0.8545(6) 0.5706(6) -0.1374(3)
C3A C -0.8763(6) 0.3879(6) -0.1770(3)
H4A H -0.9167 0.3226 -0.1959
C4A C -0.7340(6) 0.3745(6) -0.1568(3)
H5A H -0.6594 0.3002 -0.1589
C5A C -0.5831(6) 0.5226(6) -0.1037(3)
H6A H -0.5000 0.4744 -0.1270
H7A H -0.5828 0.6215 -0.1202
C6A C -0.5672(6) 0.4779(6) -0.0147(3)
H8A H -0.6545 0.5192 0.0086
H9A H -0.5578 0.3777 0.0015
N3A N 0.7168(5) 1.0652(5) 0.5752(3)
N4A N 0.7680(5) 1.2640(5) 0.5901(3)
C7A C 0.5563(10) 0.9421(7) 0.5137(6)
H10A H 0.5108 0.8602 0.5260
H11A H 0.6206 0.9329 0.4700
C8A C 0.6519(7) 0.9385(6) 0.5842(4)
H12A H 0.7303 0.8582 0.5915
H13A H 0.5935 0.9283 0.6312
C9A C 0.8285(7) 1.0954(6) 0.5252(3)
H14A H 0.8734 1.0428 0.4910
C10A C 0.8602(6) 1.2172(6) 0.5354(3)
H15A H 0.9329 1.2620 0.5096
C11A C 0.6828(6) 1.1687(6) 0.6132(3)
C12A C 0.5606(7) 1.1781(7) 0.6690(4)
H16A H 0.4684 1.2046 0.6400
H17A H 0.5637 1.0895 0.7048
H18A H 0.5708 1.2464 0.6983
Ni1A Ni -1.17041(7) 0.58546(6) -0.21037(4)
Ni2A Ni -1.19341(7) 0.42481(6) -0.36318(4)
O1A O -1.2222(4) 0.3980(3) -0.1643(2)
O2A O -1.1516(4) 0.2847(3) -0.2595(2)
O3A O -1.1756(4) -0.2001(3) -0.2262(2)
O4A O -1.2458(4) -0.3235(3) -0.1159(2)
O5A O -1.3777(4) 0.6440(4) -0.2654(2)
O6A O -1.4041(4) 0.4961(4) -0.3412(2)
O7A O -2.1005(3) 0.5684(3) -0.32392(19)
O8A O -1.9456(4) 0.4498(4) -0.3902(2)
Br1A Br -1.33223(12) 0.01679(8) 0.09332(4)
Br2A Br -1.87466(7) 1.02558(6) -0.30424(4)
C13A C -1.1966(6) 0.2912(5) -0.1916(3)
C14A C -1.2223(6) 0.1579(5) -0.1384(3)
C15A C -1.2099(6) 0.0399(5) -0.1684(3)
H19A H -1.1831 0.0439 -0.2205
C16A C -1.2369(6) -0.0838(5) -0.1219(3)
C17A C -1.2740(7) -0.0922(6) -0.0431(3)
H20A H -1.2920 -0.1749 -0.0111
C18A C -1.2830(8) 0.0262(6) -0.0145(3)
C19A C -1.2613(7) 0.1509(5) -0.0604(3)
H21A H -1.2724 0.2296 -0.0396
C20A C -1.2219(6) -0.2092(5) -0.1562(3)
C21A C -1.4510(5) 0.5934(5) -0.3067(3)
C22A C -1.6125(5) 0.6514(5) -0.3171(3)
C23A C -1.6619(6) 0.7847(5) -0.3051(3)
H22A H -1.5957 0.8352 -0.2908
C24A C -1.8095(6) 0.8409(5) -0.3147(3)
C25A C -1.9124(6) 0.7634(5) -0.3301(3)
H23A H -2.0121 0.8005 -0.3336
C26A C -1.8630(5) 0.6293(5) -0.3401(3)
C27A C -1.9740(5) 0.5428(5) -0.3530(3)
C28A C -1.7133(5) 0.5768(5) -0.3364(3)
H24A H -1.6804 0.4900 -0.3470
O9A O -1.2259(4) 0.5649(4) -0.4758(2)
H25A H -1.170(4) 0.546(7) -0.510(2)
H26A H -1.3129(14) 0.585(2) -0.488(3)
Ni1_2 Ni 0.17041(7) 1.41454(6) 0.21037(4)
Ni1_3 Ni 1.17041(7) 0.41454(6) 0.21037(4)
Ni1A_2 Ni -2.17041(7) 0.58546(6) -0.21037(4)
Ni1A_3 Ni -1.17041(7) -0.41454(6) -0.21037(4)
Ni2_2 Ni 1.19341(7) 0.57519(6) 0.36318(4)
Ni2A_2 Ni -2.19341(7) 0.42481(6) -0.36318(4)
Ni2A_3 Ni 0.80659(7) 1.42481(6) 0.63682(4)
N4A_2 N -1.2320(5) 0.2640(5) -0.4099(3)
O3_2 O 0.1756(4) 0.2001(3) 0.2262(2)
O3A_2 O -1.1756(4) 0.7999(3) -0.2262(2)
O4_2 O 0.2458(4) 0.3235(3) 0.1159(2)
O4A_2 O -1.2458(4) 0.6765(3) -0.1159(2)
O7_2 O 0.1005(3) 0.4316(3) 0.32392(19)
O7A_2 O -1.1005(3) 0.5684(3) -0.32392(19)
O8_2 O -0.0544(4) 0.5502(4) 0.3902(2)
O8A_2 O -0.9456(4) 0.4498(4) -0.3902(2)
O10 O 0.5000 0.5000 0.5000
H27? H 0.509(16) 0.52(2) 0.4519(15)
H28? H 0.449(5) 0.563(15) 0.517(14)
loop_
_geom_bond_atom_site_label_1
_geom_bond_atom_site_label_2
_geom_bond_site_symmetry_1
_geom_bond_site_symmetry_2
Ni1 N1 1_555 1_555
Ni2 N4 1_555 1_555
N1 C2 1_555 1_555
N2 C2 1_555 1_555
N3 C8 1_555 1_555
N4 C10 1_555 1_555
O1 Ni1 1_555 1_555
O2 Ni2 1_555 1_555
O3 C20 1_555 1_555
O4 C20 1_555 1_555
O5 Ni1 1_555 1_555
O6 Ni2 1_555 1_555
O7 C27 1_555 1_555
O8 C27 1_555 1_555
Br1 C18 1_555 1_555
Br2 C24 1_555 1_555
C1 H1 1_555 1_555
H2 C1 1_555 1_555
H3 C1 1_555 1_555
C2 C1 1_555 1_555
C3 N1 1_555 1_555
H4 C3 1_555 1_555
C4 N2 1_555 1_555
H5 C4 1_555 1_555
C5 N2 1_555 1_555
H6 C5 1_555 1_555
H7 C5 1_555 1_555
C6 C5 1_555 1_555
H8 C6 1_555 1_555
H9 C6 1_555 1_555
C7 H10 1_555 1_555
H11 C7 1_555 1_555
C8 C7 1_555 1_555
H12 C8 1_555 1_555
H13 C8 1_555 1_555
C9 N3 1_555 1_555
H14 C9 1_555 1_555
C10 C9 1_555 1_555
H15 C10 1_555 1_555
C11 N3 1_555 1_555
C12 C11 1_555 1_555
H16 C12 1_555 1_555
H17 C12 1_555 1_555
H18 C12 1_555 1_555
C13 O1 1_555 1_555
C14 C13 1_555 1_555
C15 C14 1_555 1_555
H19 C15 1_555 1_555
C16 C15 1_555 1_555
C17 C16 1_555 1_555
H20 C17 1_555 1_555
C18 C17 1_555 1_555
C19 C14 1_555 1_555
H21 C19 1_555 1_555
C20 C16 1_555 1_555
C21 O5 1_555 1_555
C22 C21 1_555 1_555
C23 C22 1_555 1_555
H22 C23 1_555 1_555
C24 C23 1_555 1_555
C25 C24 1_555 1_555
H23 C25 1_555 1_555
C26 C25 1_555 1_555
C27 C26 1_555 1_555
C28 C22 1_555 1_555
H24 C28 1_555 1_555
O9 Ni2 1_555 1_555
H25 O9 1_555 1_555
H26 O9 1_555 1_555
N1A C2A 1_555 1_555
N2A C2A 1_555 1_555
C1A H1A 1_555 1_555
H2A C1A 1_555 1_555
H3A C1A 1_555 1_555
C2A C1A 1_555 1_555
C3A N1A 1_555 1_555
H4A C3A 1_555 1_555
C4A N2A 1_555 1_555
H5A C4A 1_555 1_555
C5A N2A 1_555 1_555
H6A C5A 1_555 1_555
H7A C5A 1_555 1_555
C6A C6 1_555 1_555
H8A C6A 1_555 1_555
H9A C6A 1_555 1_555
N3A C8A 1_555 1_555
N4A C10A 1_555 1_555
C7A C7 1_555 1_555
H10A C7A 1_555 1_555
H11A C7A 1_555 1_555
C8A C7A 1_555 1_555
H12A C8A 1_555 1_555
H13A C8A 1_555 1_555
C9A N3A 1_555 1_555
H14A C9A 1_555 1_555
C10A C9A 1_555 1_555
H15A C10A 1_555 1_555
C11A N3A 1_555 1_555
C12A C11A 1_555 1_555
H16A C12A 1_555 1_555
H17A C12A 1_555 1_555
H18A C12A 1_555 1_555
Ni1A N1A 1_555 1_555
Ni2A O2A 1_555 1_555
O1A Ni1A 1_555 1_555
O2A C13A 1_555 1_555
O3A C20A 1_555 1_555
O4A C20A 1_555 1_555
O5A Ni1A 1_555 1_555
O6A Ni2A 1_555 1_555
O7A C27A 1_555 1_555
O8A C27A 1_555 1_555
Br1A C18A 1_555 1_555
Br2A C24A 1_555 1_555
C13A O1A 1_555 1_555
C14A C13A 1_555 1_555
C15A C14A 1_555 1_555
H19A C15A 1_555 1_555
C16A C15A 1_555 1_555
C17A C16A 1_555 1_555
H20A C17A 1_555 1_555
C18A C17A 1_555 1_555
C19A C14A 1_555 1_555
H21A C19A 1_555 1_555
C20A C16A 1_555 1_555
C21A O5A 1_555 1_555
C22A C21A 1_555 1_555
C23A C22A 1_555 1_555
H22A C23A 1_555 1_555
C24A C23A 1_555 1_555
C25A C24A 1_555 1_555
H23A C25A 1_555 1_555
C26A C25A 1_555 1_555
C27A C26A 1_555 1_555
C28A C22A 1_555 1_555
H24A C28A 1_555 1_555
O9A Ni2A 1_555 1_555
H25A O9A 1_555 1_555
H26A O9A 1_555 1_555
Ni1_2 O3 1_555 1_555
Ni1_3 O7 1_555 1_555
Ni1A_2 O7A 1_555 1_555
Ni1A_3 O3A 1_555 1_555
Ni2_2 O7 1_555 1_555
Ni2A_2 O7A 1_555 1_555
Ni2A_3 N4A 1_555 1_555
N4A_2 Ni2A 1_555 1_555
O3_2 Ni1 1_555 1_555
O3A_2 Ni1A 1_555 1_555
O4_2 Ni1 1_555 1_555
O4A_2 Ni1A 1_555 1_555
O7_2 Ni1 1_555 1_555
O7A_2 Ni1A 1_555 1_555
O8_2 Ni2 1_555 1_555
O8A_2 Ni2A 1_555 1_555
Ni2 O7_2 1_555 1_555
N4 C11 1_555 1_555
O2 C13 1_555 1_555
O4 Ni1_2 1_555 1_555
O6 C21 1_555 1_555
O8 Ni2_2 1_555 1_555
C3 C4 1_555 1_555
C18 C19 1_555 1_555
C26 C28 1_555 1_555
C3A C4A 1_555 1_555
C5A C6A 1_555 1_555
N4A C11A 1_555 1_555
Ni2A O7A_2 1_555 1_555
O4A Ni1A_3 1_555 1_555
O6A C21A 1_555 1_555
O8A Ni2A_2 1_555 1_555
C18A C19A 1_555 1_555
C26A C28A 1_555 1_555

#END
