
#######################################################################
#
#                 Cambridge Crystallographic Data Centre
#                                CCDC 
#
#######################################################################
#
# If this CIF has been generated from an entry in the Cambridge 
# Structural Database, then it will include bibliographic, chemical, 
# crystal, experimental, refinement or atomic coordinate data resulting 
# from the CCDC's data processing and validation procedures.
#
#######################################################################

data_NUQNOC01
_symmetry_cell_setting           monoclinic
_symmetry_space_group_name_H-M   'P 21/n'
_symmetry_Int_Tables_number      14
_space_group_name_Hall           '-P 2yn'
loop_
_symmetry_equiv_pos_site_id
_symmetry_equiv_pos_as_xyz
1 x,y,z
2 1/2+x,1/2-y,1/2+z
3 -x,-y,-z
4 1/2-x,1/2+y,1/2-z
_cell_length_a                   12.300(2)
_cell_length_b                   12.1233(18)
_cell_length_c                   15.1545(19)
_cell_angle_alpha                90
_cell_angle_beta                 102.464(12)
_cell_angle_gamma                90
_cell_volume                     2206.53
loop_
_atom_site_label
_atom_site_type_symbol
_atom_site_fract_x
_atom_site_fract_y
_atom_site_fract_z
Cu1 Cu 0.0000 0.0000 0.0000
Cu2 Cu 0.0000 0.5000 0.0000
O1 O -0.1147(2) 0.0926(2) 0.04080(18)
O2 O 0.0449(2) -0.0637(2) 0.1295(2)
O3 O 0.1305(2) 0.5835(2) 0.06322(18)
O4 O -0.0289(2) 0.4443(2) 0.11449(18)
N1 N 0.1125(3) 0.1413(3) 0.0221(2)
N2 N 0.1147(3) 0.3349(3) -0.0067(2)
C1 C -0.1463(3) 0.0831(3) 0.1133(3)
C2 C -0.1055(4) 0.0129(3) 0.1848(3)
C3 C -0.0145(4) -0.0565(3) 0.1859(3)
C4 C -0.2450(4) 0.1558(4) 0.1190(3)
C5 C 0.0159(5) -0.1389(5) 0.2640(4)
C6 C 0.1671(3) 0.5834(3) 0.1465(3)
C7 C 0.1254(4) 0.5296(4) 0.2117(3)
C8 C 0.0297(3) 0.4662(3) 0.1909(3)
C9 C 0.2702(4) 0.6545(4) 0.1749(3)
C10 C -0.0153(4) 0.4114(5) 0.2680(3)
C11 C 0.0676(4) 0.2444(3) 0.0110(3)
C12 C 0.2181(4) 0.1330(4) 0.0178(3)
C13 C 0.2782(3) 0.2223(4) -0.0012(3)
C14 C 0.3911(4) 0.2125(6) -0.0112(4)
C15 C 0.4419(4) 0.2996(6) -0.0355(4)
C16 C 0.3862(5) 0.4017(6) -0.0523(4)
C17 C 0.2781(4) 0.4173(4) -0.0427(3)
C18 C 0.2250(3) 0.3251(3) -0.0168(2)
F1 F -0.3361(2) 0.1142(3) 0.0684(3)
F2 F -0.2635(3) 0.1647(3) 0.2008(2)
F3 F -0.2325(3) 0.2564(2) 0.0898(3)
F4 F -0.0355(4) -0.1231(3) 0.3286(2)
F5 F -0.0062(5) -0.2385(3) 0.2357(3)
F6 F 0.1234(4) -0.1374(4) 0.2992(3)
F7 F 0.3532(3) 0.6159(3) 0.1431(3)
F8 F 0.3079(3) 0.6618(3) 0.2622(2)
F9 F 0.2542(3) 0.7545(2) 0.1436(3)
F10 F 0.0437(3) 0.4345(4) 0.3483(2)
F11 F -0.1185(3) 0.4382(3) 0.2637(2)
F12 F -0.0141(3) 0.3031(3) 0.2606(2)
H1 H -0.132(4) 0.014(3) 0.233(3)
H2 H 0.156(5) 0.536(4) 0.265(4)
H3 H -0.004(4) 0.249(3) 0.021(3)
H4 H 0.263(4) 0.063(4) 0.024(3)
H5 H 0.421(3) 0.139(3) 0.003(3)
H6 H 0.522(4) 0.295(4) -0.039(3)
H7 H 0.407(5) 0.471(5) -0.067(4)
H8 H 0.231(5) 0.486(4) -0.051(4)
O1B O 0.1147(2) -0.0926(2) -0.04080(18)
O2B O -0.0449(2) 0.0637(2) -0.1295(2)
C1B C 0.1463(3) -0.0831(3) -0.1133(3)
C2B C 0.1055(4) -0.0129(3) -0.1848(3)
C3B C 0.0145(4) 0.0565(3) -0.1859(3)
C4B C 0.2450(4) -0.1558(4) -0.1190(3)
C5B C -0.0159(5) 0.1389(5) -0.2640(4)
F1B F 0.3361(2) -0.1142(3) -0.0684(3)
F2B F 0.2635(3) -0.1647(3) -0.2008(2)
F3B F 0.2325(3) -0.2564(2) -0.0898(3)
F4B F 0.0355(4) 0.1231(3) -0.3286(2)
F5B F 0.0062(5) 0.2385(3) -0.2357(3)
F6B F -0.1234(4) 0.1374(4) -0.2992(3)
H1B H 0.132(4) -0.014(3) -0.233(3)
N1B N -0.1125(3) -0.1413(3) -0.0221(2)
N2B N -0.1147(3) -0.3349(3) 0.0067(2)
C11B C -0.0676(4) -0.2444(3) -0.0110(3)
C12B C -0.2181(4) -0.1330(4) -0.0178(3)
C13B C -0.2782(3) -0.2223(4) 0.0012(3)
C14B C -0.3911(4) -0.2125(6) 0.0112(4)
C15B C -0.4419(4) -0.2996(6) 0.0355(4)
C16B C -0.3862(5) -0.4017(6) 0.0523(4)
C17B C -0.2781(4) -0.4173(4) 0.0427(3)
C18B C -0.2250(3) -0.3251(3) 0.0168(2)
H3B H 0.004(4) -0.249(3) -0.021(3)
H4B H -0.263(4) -0.063(4) -0.024(3)
H5B H -0.421(3) -0.139(3) -0.003(3)
H6B H -0.522(4) -0.295(4) 0.039(3)
H7B H -0.407(5) -0.471(5) 0.067(4)
H8B H -0.231(5) -0.486(4) 0.051(4)
O3B O -0.1305(2) 0.4165(2) -0.06322(18)
O4B O 0.0289(2) 0.5557(2) -0.11449(18)
C6B C -0.1671(3) 0.4166(3) -0.1465(3)
C7B C -0.1254(4) 0.4704(4) -0.2117(3)
C8B C -0.0297(3) 0.5338(3) -0.1909(3)
C9B C -0.2702(4) 0.3455(4) -0.1749(3)
C10B C 0.0153(4) 0.5886(5) -0.2680(3)
F7B F -0.3532(3) 0.3841(3) -0.1431(3)
F8B F -0.3079(3) 0.3382(3) -0.2622(2)
F9B F -0.2542(3) 0.2455(2) -0.1436(3)
F10B F -0.0437(3) 0.5655(4) -0.3483(2)
F11B F 0.1185(3) 0.5618(3) -0.2637(2)
F12B F 0.0141(3) 0.6969(3) -0.2606(2)
H2B H -0.156(5) 0.464(4) -0.265(4)
N2B_2 N -0.1147(3) 0.6651(3) 0.0067(2)
Cu2_2 Cu 0.0000 -0.5000 0.0000
loop_
_geom_bond_atom_site_label_1
_geom_bond_atom_site_label_2
_geom_bond_site_symmetry_1
_geom_bond_site_symmetry_2
Cu1 O1 1_555 1_555
Cu2 O3 1_555 1_555
O1 C1 1_555 1_555
O2 Cu1 1_555 1_555
O3 C6 1_555 1_555
O4 Cu2 1_555 1_555
N1 Cu1 1_555 1_555
N2 Cu2 1_555 1_555
C1 C2 1_555 1_555
C2 C3 1_555 1_555
C3 O2 1_555 1_555
C4 C1 1_555 1_555
C5 C3 1_555 1_555
C6 C7 1_555 1_555
C7 C8 1_555 1_555
C8 O4 1_555 1_555
C9 C6 1_555 1_555
C10 C8 1_555 1_555
C11 N1 1_555 1_555
C12 N1 1_555 1_555
C13 C12 1_555 1_555
C14 C13 1_555 1_555
C15 C14 1_555 1_555
C16 C15 1_555 1_555
C17 C16 1_555 1_555
C18 N2 1_555 1_555
F1 C4 1_555 1_555
F2 C4 1_555 1_555
F3 C4 1_555 1_555
F4 C5 1_555 1_555
F5 C5 1_555 1_555
F6 C5 1_555 1_555
F7 C9 1_555 1_555
F8 C9 1_555 1_555
F9 C9 1_555 1_555
F10 C10 1_555 1_555
F11 C10 1_555 1_555
F12 C10 1_555 1_555
H1 C2 1_555 1_555
H2 C7 1_555 1_555
H3 C11 1_555 1_555
H4 C12 1_555 1_555
H5 C14 1_555 1_555
H6 C15 1_555 1_555
H7 C16 1_555 1_555
H8 C17 1_555 1_555
O1B Cu1 1_555 1_555
O2B Cu1 1_555 1_555
C1B O1B 1_555 1_555
C2B C1B 1_555 1_555
C3B O2B 1_555 1_555
C4B C1B 1_555 1_555
C5B C3B 1_555 1_555
F1B C4B 1_555 1_555
F2B C4B 1_555 1_555
F3B C4B 1_555 1_555
F4B C5B 1_555 1_555
F5B C5B 1_555 1_555
F6B C5B 1_555 1_555
H1B C2B 1_555 1_555
N1B Cu1 1_555 1_555
N2B C11B 1_555 1_555
C11B N1B 1_555 1_555
C12B N1B 1_555 1_555
C13B C12B 1_555 1_555
C14B C13B 1_555 1_555
C15B C14B 1_555 1_555
C16B C15B 1_555 1_555
C17B C16B 1_555 1_555
C18B N2B 1_555 1_555
H3B C11B 1_555 1_555
H4B C12B 1_555 1_555
H5B C14B 1_555 1_555
H6B C15B 1_555 1_555
H7B C16B 1_555 1_555
H8B C17B 1_555 1_555
O3B Cu2 1_555 1_555
O4B Cu2 1_555 1_555
C6B O3B 1_555 1_555
C7B C6B 1_555 1_555
C8B O4B 1_555 1_555
C9B C6B 1_555 1_555
C10B C8B 1_555 1_555
F7B C9B 1_555 1_555
F8B C9B 1_555 1_555
F9B C9B 1_555 1_555
F10B C10B 1_555 1_555
F11B C10B 1_555 1_555
F12B C10B 1_555 1_555
H2B C7B 1_555 1_555
N2B_2 Cu2 1_555 1_555
Cu2_2 N2B 1_555 1_555
N2 C11 1_555 1_555
C13 C18 1_555 1_555
C17 C18 1_555 1_555
C2B C3B 1_555 1_555
C13B C18B 1_555 1_555
C17B C18B 1_555 1_555
C7B C8B 1_555 1_555

#END
