
#######################################################################
#
#                 Cambridge Crystallographic Data Centre
#                                CCDC 
#
#######################################################################
#
# If this CIF has been generated from an entry in the Cambridge 
# Structural Database, then it will include bibliographic, chemical, 
# crystal, experimental, refinement or atomic coordinate data resulting 
# from the CCDC's data processing and validation procedures.
#
#######################################################################

data_NUQNIW01
_symmetry_cell_setting           tetragonal
_symmetry_space_group_name_H-M   'I 41 c d'
_symmetry_Int_Tables_number      110
_space_group_name_Hall           'I 4bw -2c'
loop_
_symmetry_equiv_pos_site_id
_symmetry_equiv_pos_as_xyz
1 x,y,z
2 -x,y,1/2+z
3 y,1/2-x,1/4+z
4 y,1/2+x,3/4+z
5 -x,-y,z
6 x,-y,1/2+z
7 -y,1/2+x,1/4+z
8 -y,1/2-x,3/4+z
9 1/2+x,1/2+y,1/2+z
10 1/2-x,1/2+y,z
11 1/2+y,-x,3/4+z
12 1/2+y,x,1/4+z
13 1/2-x,1/2-y,1/2+z
14 1/2+x,1/2-y,z
15 1/2-y,x,3/4+z
16 1/2-y,-x,1/4+z
_cell_length_a                   18.586(3)
_cell_length_b                   18.586(3)
_cell_length_c                   22.345(4)
_cell_angle_alpha                90
_cell_angle_beta                 90
_cell_angle_gamma                90
_cell_volume                     7718.84
loop_
_atom_site_label
_atom_site_type_symbol
_atom_site_fract_x
_atom_site_fract_y
_atom_site_fract_z
Cu1 Cu 0.16527(4) 0.25089(6) 0.00128(7)
O1 O 0.1678(3) 0.3512(3) 0.0278(3)
O2 O 0.0719(4) 0.2854(4) -0.0620(3)
O3 O 0.0821(3) 0.2297(3) 0.0554(3)
O4 O 0.1689(3) 0.1504(3) -0.0223(3)
N1 N 0.2396(4) 0.2703(4) -0.0660(3)
N2 N 0.2700(4) 0.2456(4) -0.1662(3)
C1 C 0.1182(5) 0.3979(4) 0.0219(3)
C2 C 0.0589(5) 0.3979(4) -0.0119(4)
H1 H 0.0286 0.4377 -0.0099
C3 C 0.0395(5) 0.3411(5) -0.0501(4)
C4 C 0.1355(5) 0.4668(5) 0.0575(5)
C5 C -0.0323(7) 0.3529(8) -0.0858(8)
C6 C 0.0421(5) 0.1759(5) 0.0498(4)
C7 C 0.0545(5) 0.1143(5) 0.0158(4)
H2 H 0.0193 0.0788 0.0137
C8 C 0.1195(5) 0.1054(4) -0.0153(3)
C9 C -0.0296(6) 0.1800(7) 0.0826(6)
C10 C 0.1320(6) 0.0340(5) -0.0467(5)
C11 C 0.2293(5) 0.2379(5) -0.1196(5)
H3 H 0.1897 0.2077 -0.1232
C12 C 0.3261(5) 0.2930(5) -0.1621(4)
H4 H 0.3548 0.3014 -0.1954
C13 C 0.3403(5) 0.3278(4) -0.1107(5)
H5 H 0.3801 0.3577 -0.1072
C14 C 0.2926(4) 0.3172(4) -0.0623(4)
H6 H 0.2988 0.3436 -0.0273
F1 F 0.1896(6) 0.4995(6) 0.0355(6)
F2 F 0.0803(4) 0.5057(5) 0.0685(5)
F3 F 0.1571(5) 0.4532(4) 0.1116(4)
F4 F -0.0500(6) 0.4154(5) -0.0925(5)
F5 F -0.0864(4) 0.3266(9) -0.0483(5)
F6 F -0.0362(6) 0.3161(7) -0.1310(5)
F7 F -0.0620(5) 0.2384(6) 0.0703(7)
F8 F -0.0204(6) 0.1868(6) 0.1422(4)
F9 F -0.0707(5) 0.1272(6) 0.0755(6)
F10 F 0.1541(6) 0.0424(5) -0.1024(4)
F11 F 0.1796(6) -0.0037(5) -0.0209(4)
F12 F 0.0778(5) -0.0095(4) -0.0473(5)
N2B N 0.2456(4) 0.2300(4) 0.0838(3)
Cu1N Cu 0.24911(6) 0.16527(4) -0.24872(7)
loop_
_geom_bond_atom_site_label_1
_geom_bond_atom_site_label_2
_geom_bond_site_symmetry_1
_geom_bond_site_symmetry_2
Cu1 O1 1_555 1_555
O1 C1 1_555 1_555
O2 Cu1 1_555 1_555
O3 Cu1 1_555 1_555
O4 Cu1 1_555 1_555
N1 Cu1 1_555 1_555
N2 C11 1_555 1_555
C1 C2 1_555 1_555
C2 H1 1_555 1_555
C3 O2 1_555 1_555
C4 C1 1_555 1_555
C5 C3 1_555 1_555
C6 O3 1_555 1_555
C7 C6 1_555 1_555
H2 C7 1_555 1_555
C8 O4 1_555 1_555
C9 C6 1_555 1_555
C10 C8 1_555 1_555
C11 N1 1_555 1_555
H3 C11 1_555 1_555
C12 N2 1_555 1_555
H4 C12 1_555 1_555
C13 C12 1_555 1_555
H5 C13 1_555 1_555
C14 N1 1_555 1_555
H6 C14 1_555 1_555
F1 C4 1_555 1_555
F2 C4 1_555 1_555
F3 C4 1_555 1_555
F4 C5 1_555 1_555
F5 C5 1_555 1_555
F6 C5 1_555 1_555
F7 C9 1_555 1_555
F8 C9 1_555 1_555
F9 C9 1_555 1_555
F10 C10 1_555 1_555
F11 C10 1_555 1_555
F12 C10 1_555 1_555
N2B Cu1 1_555 1_555
Cu1N N2 1_555 1_555
C2 C3 1_555 1_555
C7 C8 1_555 1_555
C13 C14 1_555 1_555

#END
