
#######################################################################
#
#                 Cambridge Crystallographic Data Centre
#                                CCDC 
#
#######################################################################
#
# If this CIF has been generated from an entry in the Cambridge 
# Structural Database, then it will include bibliographic, chemical, 
# crystal, experimental, refinement or atomic coordinate data resulting 
# from the CCDC's data processing and validation procedures.
#
#######################################################################

data_NUQNOC02
_symmetry_cell_setting           monoclinic
_symmetry_space_group_name_H-M   'P 21/n'
_symmetry_Int_Tables_number      14
_space_group_name_Hall           '-P 2yn'
loop_
_symmetry_equiv_pos_site_id
_symmetry_equiv_pos_as_xyz
1 x,y,z
2 1/2+x,1/2-y,1/2+z
3 -x,-y,-z
4 1/2-x,1/2+y,1/2-z
_cell_length_a                   12.023(5)
_cell_length_b                   11.920(4)
_cell_length_c                   15.065(4)
_cell_angle_alpha                90
_cell_angle_beta                 102.42(2)
_cell_angle_gamma                90
_cell_volume                     2108.5
loop_
_atom_site_label
_atom_site_type_symbol
_atom_site_fract_x
_atom_site_fract_y
_atom_site_fract_z
Cu1 Cu 0.0000 0.0000 0.0000
Cu2 Cu 0.0000 0.5000 0.0000
O1 O -0.1137(2) 0.0949(2) 0.04625(16)
O2 O 0.0570(2) -0.0620(2) 0.13912(18)
O3 O 0.1354(2) 0.5798(2) 0.06508(16)
O4 O -0.0306(2) 0.4385(2) 0.11364(16)
N1 N 0.1065(2) 0.1354(2) 0.01374(19)
N2 N 0.1122(2) 0.3328(3) -0.0132(2)
C1 C -0.1447(3) 0.0818(3) 0.1211(2)
C2 C -0.1025(3) 0.0101(3) 0.1920(2)
C3 C -0.0077(3) -0.0594(3) 0.1937(2)
C4 C -0.2475(3) 0.1548(3) 0.1271(3)
C5 C 0.0211(4) -0.1471(4) 0.2689(3)
C6 C 0.1716(3) 0.5785(3) 0.1501(2)
C7 C 0.1268(3) 0.5225(3) 0.2149(2)
C8 C 0.0284(3) 0.4581(3) 0.1917(2)
C9 C 0.2788(3) 0.6502(3) 0.1806(2)
C10 C -0.0195(3) 0.4032(3) 0.2677(2)
C11 C 0.0610(3) 0.2406(3) 0.0030(2)
C12 C 0.2161(3) 0.1267(3) 0.0131(2)
C13 C 0.2800(3) 0.2179(3) -0.0050(2)
C14 C 0.3964(3) 0.2078(4) -0.0124(3)
C15 C 0.4497(3) 0.2979(4) -0.0368(2)
C16 C 0.3932(3) 0.4021(4) -0.0536(3)
C17 C 0.2828(3) 0.4156(3) -0.0452(2)
C18 C 0.2258(3) 0.3235(3) -0.0205(2)
F1 F -0.34185(18) 0.1096(2) 0.07497(18)
F2 F -0.2660(2) 0.1635(2) 0.21069(17)
F3 F -0.2377(2) 0.25792(19) 0.09613(18)
F4 F -0.0354(2) -0.1334(2) 0.33494(16)
F5 F -0.0048(3) -0.2489(2) 0.23493(19)
F6 F 0.1313(2) -0.1476(3) 0.3079(2)
F7 F 0.36645(18) 0.6025(2) 0.15218(16)
F8 F 0.31109(19) 0.6608(2) 0.27025(15)
F9 F 0.2652(2) 0.75166(19) 0.14478(18)
F10 F 0.0400(2) 0.4280(2) 0.35088(15)
F11 F -0.12655(19) 0.4355(2) 0.26282(16)
F12 F -0.01985(18) 0.29210(18) 0.25943(15)
H1 H -0.137(3) 0.010(3) 0.241(3)
H2 H 0.164(3) 0.528(3) 0.273(3)
H3 H -0.021(3) 0.248(3) 0.009(3)
H4 H 0.254(3) 0.050(3) 0.023(2)
H5 H 0.427(3) 0.138(3) 0.002(2)
H6 H 0.528(3) 0.289(3) -0.041(3)
H7 H 0.431(4) 0.469(4) -0.071(3)
H8 H 0.240(3) 0.485(3) -0.054(3)
O1B O 0.1137(2) -0.0949(2) -0.04625(16)
O2B O -0.0570(2) 0.0620(2) -0.13912(18)
C1B C 0.1447(3) -0.0818(3) -0.1211(2)
C2B C 0.1025(3) -0.0101(3) -0.1920(2)
C3B C 0.0077(3) 0.0594(3) -0.1937(2)
C4B C 0.2475(3) -0.1548(3) -0.1271(3)
C5B C -0.0211(4) 0.1471(4) -0.2689(3)
F1B F 0.34185(18) -0.1096(2) -0.07497(18)
F2B F 0.2660(2) -0.1635(2) -0.21069(17)
F3B F 0.2377(2) -0.25792(19) -0.09613(18)
F4B F 0.0354(2) 0.1334(2) -0.33494(16)
F5B F 0.0048(3) 0.2489(2) -0.23493(19)
F6B F -0.1313(2) 0.1476(3) -0.3079(2)
H1B H 0.137(3) -0.010(3) -0.241(3)
N1B N -0.1065(2) -0.1354(2) -0.01374(19)
N2B N -0.1122(2) -0.3328(3) 0.0132(2)
C11B C -0.0610(3) -0.2406(3) -0.0030(2)
C12B C -0.2161(3) -0.1267(3) -0.0131(2)
C13B C -0.2800(3) -0.2179(3) 0.0050(2)
C14B C -0.3964(3) -0.2078(4) 0.0124(3)
C15B C -0.4497(3) -0.2979(4) 0.0368(2)
C16B C -0.3932(3) -0.4021(4) 0.0536(3)
C17B C -0.2828(3) -0.4156(3) 0.0452(2)
C18B C -0.2258(3) -0.3235(3) 0.0205(2)
H3B H 0.021(3) -0.248(3) -0.009(3)
H4B H -0.254(3) -0.050(3) -0.023(2)
H5B H -0.427(3) -0.138(3) -0.002(2)
H6B H -0.528(3) -0.289(3) 0.041(3)
H7B H -0.431(4) -0.469(4) 0.071(3)
H8B H -0.240(3) -0.485(3) 0.054(3)
O3B O -0.1354(2) 0.4202(2) -0.06508(16)
O4B O 0.0306(2) 0.5615(2) -0.11364(16)
C6B C -0.1716(3) 0.4215(3) -0.1501(2)
C7B C -0.1268(3) 0.4775(3) -0.2149(2)
C8B C -0.0284(3) 0.5419(3) -0.1917(2)
C9B C -0.2788(3) 0.3498(3) -0.1806(2)
C10B C 0.0195(3) 0.5968(3) -0.2677(2)
F7B F -0.36645(18) 0.3975(2) -0.15218(16)
F8B F -0.31109(19) 0.3392(2) -0.27025(15)
F9B F -0.2652(2) 0.24834(19) -0.14478(18)
F10B F -0.0400(2) 0.5720(2) -0.35088(15)
F11B F 0.12655(19) 0.5645(2) -0.26282(16)
F12B F 0.01985(18) 0.70790(18) -0.25943(15)
H2B H -0.164(3) 0.472(3) -0.273(3)
N2B_2 N -0.1122(2) 0.6672(3) 0.0132(2)
Cu2_2 Cu 0.0000 -0.5000 0.0000
loop_
_geom_bond_atom_site_label_1
_geom_bond_atom_site_label_2
_geom_bond_site_symmetry_1
_geom_bond_site_symmetry_2
Cu1 O1 1_555 1_555
Cu2 O3 1_555 1_555
O1 C1 1_555 1_555
O2 Cu1 1_555 1_555
O3 C6 1_555 1_555
O4 Cu2 1_555 1_555
N1 Cu1 1_555 1_555
N2 Cu2 1_555 1_555
C1 C2 1_555 1_555
C2 C3 1_555 1_555
C3 O2 1_555 1_555
C4 C1 1_555 1_555
C5 C3 1_555 1_555
C6 C7 1_555 1_555
C7 C8 1_555 1_555
C8 O4 1_555 1_555
C9 C6 1_555 1_555
C10 C8 1_555 1_555
C11 N1 1_555 1_555
C12 N1 1_555 1_555
C13 C12 1_555 1_555
C14 C13 1_555 1_555
C15 C14 1_555 1_555
C16 C15 1_555 1_555
C17 C16 1_555 1_555
C18 N2 1_555 1_555
F1 C4 1_555 1_555
F2 C4 1_555 1_555
F3 C4 1_555 1_555
F4 C5 1_555 1_555
F5 C5 1_555 1_555
F6 C5 1_555 1_555
F7 C9 1_555 1_555
F8 C9 1_555 1_555
F9 C9 1_555 1_555
F10 C10 1_555 1_555
F11 C10 1_555 1_555
F12 C10 1_555 1_555
H1 C2 1_555 1_555
H2 C7 1_555 1_555
H3 C11 1_555 1_555
H4 C12 1_555 1_555
H5 C14 1_555 1_555
H6 C15 1_555 1_555
H7 C16 1_555 1_555
H8 C17 1_555 1_555
O1B Cu1 1_555 1_555
O2B Cu1 1_555 1_555
C1B O1B 1_555 1_555
C2B C1B 1_555 1_555
C3B O2B 1_555 1_555
C4B C1B 1_555 1_555
C5B C3B 1_555 1_555
F1B C4B 1_555 1_555
F2B C4B 1_555 1_555
F3B C4B 1_555 1_555
F4B C5B 1_555 1_555
F5B C5B 1_555 1_555
F6B C5B 1_555 1_555
H1B C2B 1_555 1_555
N1B Cu1 1_555 1_555
N2B C11B 1_555 1_555
C11B N1B 1_555 1_555
C12B N1B 1_555 1_555
C13B C12B 1_555 1_555
C14B C13B 1_555 1_555
C15B C14B 1_555 1_555
C16B C15B 1_555 1_555
C17B C16B 1_555 1_555
C18B N2B 1_555 1_555
H3B C11B 1_555 1_555
H4B C12B 1_555 1_555
H5B C14B 1_555 1_555
H6B C15B 1_555 1_555
H7B C16B 1_555 1_555
H8B C17B 1_555 1_555
O3B Cu2 1_555 1_555
O4B Cu2 1_555 1_555
C6B O3B 1_555 1_555
C7B C6B 1_555 1_555
C8B O4B 1_555 1_555
C9B C6B 1_555 1_555
C10B C8B 1_555 1_555
F7B C9B 1_555 1_555
F8B C9B 1_555 1_555
F9B C9B 1_555 1_555
F10B C10B 1_555 1_555
F11B C10B 1_555 1_555
F12B C10B 1_555 1_555
H2B C7B 1_555 1_555
N2B_2 Cu2 1_555 1_555
Cu2_2 N2B 1_555 1_555
N2 C11 1_555 1_555
C13 C18 1_555 1_555
C17 C18 1_555 1_555
C2B C3B 1_555 1_555
C13B C18B 1_555 1_555
C17B C18B 1_555 1_555
C7B C8B 1_555 1_555

#END
