
#######################################################################
#
#                 Cambridge Crystallographic Data Centre
#                                CCDC 
#
#######################################################################
#
# If this CIF has been generated from an entry in the Cambridge 
# Structural Database, then it will include bibliographic, chemical, 
# crystal, experimental, refinement or atomic coordinate data resulting 
# from the CCDC's data processing and validation procedures.
#
#######################################################################

data_NUQPUM
_symmetry_cell_setting           monoclinic
_symmetry_space_group_name_H-M   'P 21/c'
_symmetry_Int_Tables_number      14
_space_group_name_Hall           '-P 2ybc'
loop_
_symmetry_equiv_pos_site_id
_symmetry_equiv_pos_as_xyz
1 x,y,z
2 -x,1/2+y,1/2-z
3 -x,-y,-z
4 x,1/2-y,1/2+z
_cell_length_a                   11.1506(11)
_cell_length_b                   16.0135(16)
_cell_length_c                   16.0539(12)
_cell_angle_alpha                90
_cell_angle_beta                 124.571(5)
_cell_angle_gamma                90
_cell_volume                     2360.42
loop_
_atom_site_label
_atom_site_type_symbol
_atom_site_fract_x
_atom_site_fract_y
_atom_site_fract_z
Ni1 Ni 0.13870(8) 0.37730(5) 0.81654(6)
N1 N 0.1498(6) 0.4548(3) 0.9250(4)
N2 N 0.1434(6) 0.5600(4) 1.0105(5)
N3 N 0.1647(7) 0.9018(4) 1.1883(5)
N4 N 0.1403(6) 1.0251(3) 1.2351(4)
O1 O -0.6402(4) 0.1606(3) 0.4177(3)
O2 O -0.8158(4) 0.2322(3) 0.4060(3)
O3 O -0.1371(5) 0.2788(4) 0.6148(4)
O4 O -0.0846(4) 0.3738(3) 0.7317(3)
O5 O 0.1428(5) 0.2921(3) 0.7164(4)
Br1 Br -0.59439(9) 0.52110(5) 0.61495(7)
C1 C -0.3306(6) 0.3423(4) 0.6082(5)
C2 C -0.4313(6) 0.2833(4) 0.5433(5)
H1 H -0.3993 0.2365 0.5269
C3 C -0.5777(6) 0.2919(4) 0.5023(5)
C4 C -0.6276(7) 0.3639(4) 0.5233(5)
H2 H -0.7261 0.3714 0.4958
C5 C -0.5263(7) 0.4231(4) 0.5859(5)
C6 C -0.3806(7) 0.4134(4) 0.6302(5)
H3 H -0.3152 0.4536 0.6745
C7 C -0.1713(7) 0.3298(4) 0.6549(5)
C8 C -0.6856(7) 0.2238(4) 0.4370(5)
C9 C 0.2467(7) 0.4410(4) 1.0276(5)
H4 H 0.3052 0.3939 1.0558
C10 C 0.2452(8) 0.5044(5) 1.0807(6)
H5 H 0.3013 0.5100 1.1507
C11 C 0.0880(7) 0.5278(4) 0.9164(6)
C12 C -0.0263(8) 0.5703(5) 0.8211(6)
H6 H -0.0671 0.5314 0.7660
H7 H 0.0162 0.6164 0.8083
H8 H -0.1016 0.5905 0.8277
C13 C 0.1041(10) 0.6397(5) 1.0317(7)
H9 H 0.0436 0.6297 1.0564
H10 H 0.0467 0.6711 0.9692
C14 C 0.2325(11) 0.6913(6) 1.1078(7)
H11 H 0.2965 0.7027 1.0863
H12 H 0.2876 0.6648 1.1738
C15 C 0.1545(10) 0.7716(6) 1.1079(7)
H13 H 0.1338 0.8062 1.0515
H14 H 0.0617 0.7554 1.0952
C16 C 0.2292(11) 0.8219(6) 1.1970(7)
H15 H 0.3280 0.8308 1.2165
H16 H 0.2351 0.7910 1.2512
C17 C 0.0395(8) 0.9354(5) 1.1057(6)
H17 H -0.0229 0.9105 1.0429
C18 C 0.0257(8) 1.0116(5) 1.1345(5)
H18 H -0.0485 1.0494 1.0938
C19 C 0.2220(7) 0.9587(5) 1.2644(5)
C20 C 0.3588(9) 0.9472(5) 1.3660(6)
H19 H 0.4294 0.9194 1.3595
H20 H 0.3397 0.9141 1.4070
H21 H 0.3959 1.0008 1.3972
C21 C 0.2259(9) 0.2985(6) 0.6739(7)
H22 H 0.1653 0.2815 0.6035
H23 H 0.2528 0.3564 0.6759
C22 C 0.3554(10) 0.2486(8) 0.7252(8)
H24 H 0.4162 0.2648 0.7950
H25 H 0.4072 0.2566 0.6943
H26 H 0.3296 0.1907 0.7207
H27 H 0.054(3) 0.284(8) 0.681(9)
Ni1C Ni -0.86130(8) 0.12270(5) 0.31654(6)
Ni1C_2 Ni 0.13870(8) 1.12270(5) 1.31654(6)
N4C N 0.1403(6) 0.4749(3) 0.7351(4)
O1C O 0.3598(4) 0.3394(3) 0.9177(3)
O2C O 0.1842(4) 0.2678(3) 0.9060(3)
loop_
_geom_bond_atom_site_label_1
_geom_bond_atom_site_label_2
_geom_bond_site_symmetry_1
_geom_bond_site_symmetry_2
Ni1 N1 1_555 1_555
N1 C9 1_555 1_555
N2 C10 1_555 1_555
N3 C16 1_555 1_555
N4 C18 1_555 1_555
O1 C8 1_555 1_555
O2 C8 1_555 1_555
O3 C7 1_555 1_555
O4 Ni1 1_555 1_555
O5 Ni1 1_555 1_555
Br1 C5 1_555 1_555
C1 C2 1_555 1_555
C2 H1 1_555 1_555
C3 C2 1_555 1_555
C4 C3 1_555 1_555
H2 C4 1_555 1_555
C5 C4 1_555 1_555
C6 C1 1_555 1_555
H3 C6 1_555 1_555
C7 O4 1_555 1_555
C8 C3 1_555 1_555
C9 H4 1_555 1_555
C10 C9 1_555 1_555
H5 C10 1_555 1_555
C11 N1 1_555 1_555
C12 C11 1_555 1_555
H6 C12 1_555 1_555
H7 C12 1_555 1_555
H8 C12 1_555 1_555
C13 N2 1_555 1_555
H9 C13 1_555 1_555
H10 C13 1_555 1_555
C14 C13 1_555 1_555
H11 C14 1_555 1_555
H12 C14 1_555 1_555
C15 C14 1_555 1_555
H13 C15 1_555 1_555
H14 C15 1_555 1_555
C16 C15 1_555 1_555
H15 C16 1_555 1_555
H16 C16 1_555 1_555
C17 N3 1_555 1_555
H17 C17 1_555 1_555
C18 C17 1_555 1_555
H18 C18 1_555 1_555
C19 N3 1_555 1_555
C20 C19 1_555 1_555
H19 C20 1_555 1_555
H20 C20 1_555 1_555
H21 C20 1_555 1_555
C21 O5 1_555 1_555
H22 C21 1_555 1_555
H23 C21 1_555 1_555
C22 C21 1_555 1_555
H24 C22 1_555 1_555
H25 C22 1_555 1_555
H26 C22 1_555 1_555
H27 O5 1_555 1_555
Ni1C O1 1_555 1_555
Ni1C_2 N4 1_555 1_555
N4C Ni1 1_555 1_555
O1C Ni1 1_555 1_555
O2C Ni1 1_555 1_555
N2 C11 1_555 1_555
N4 C19 1_555 1_555
O2 Ni1C 1_555 1_555
C1 C7 1_555 1_555
C5 C6 1_555 1_555

#END
