
#######################################################################
#
#                 Cambridge Crystallographic Data Centre
#                                CCDC 
#
#######################################################################
#
# If this CIF has been generated from an entry in the Cambridge 
# Structural Database, then it will include bibliographic, chemical, 
# crystal, experimental, refinement or atomic coordinate data resulting 
# from the CCDC's data processing and validation procedures.
#
#######################################################################

data_NUQPAS
_symmetry_cell_setting           monoclinic
_symmetry_space_group_name_H-M   'C 2/c'
_symmetry_Int_Tables_number      15
_space_group_name_Hall           '-C 2yn'
loop_
_symmetry_equiv_pos_site_id
_symmetry_equiv_pos_as_xyz
1 x,y,z
2 1/2+x,1/2+y,z
3 -x,y,1/2-z
4 1/2-x,1/2+y,1/2-z
5 -x,-y,-z
6 1/2-x,1/2-y,-z
7 x,-y,1/2+z
8 1/2+x,1/2-y,1/2+z
_cell_length_a                   18.3160(14)
_cell_length_b                   12.2002(9)
_cell_length_c                   9.5032(7)
_cell_angle_alpha                90
_cell_angle_beta                 114.0860(10)
_cell_angle_gamma                90
_cell_volume                     1938.68
loop_
_atom_site_label
_atom_site_type_symbol
_atom_site_fract_x
_atom_site_fract_y
_atom_site_fract_z
O5 O 0.6180(6) -0.1216(6) 0.5477(11)
H7 H 0.5768 -0.1610 0.5153
H8 H 0.6553 -0.1559 0.5374
Eu1 Eu 0.5000 0.36567(2) 0.7500
O1 O 0.5437(2) 0.2034(3) 0.6331(5)
O2 O 0.6410(2) 0.3009(4) 0.7937(6)
O3 O 0.9129(2) 0.1225(3) 0.9780(4)
O4 O 0.9406(2) 0.0208(3) 0.8143(4)
C1 C 0.6166(3) 0.2286(4) 0.6953(5)
C2 C 0.6762(2) 0.1690(4) 0.6502(5)
C3 C 0.7543(3) 0.1556(3) 0.7615(5)
H1 H 0.7686 0.1857 0.8591
C4 C 0.8112(2) 0.0973(4) 0.7281(5)
C5 C 0.7897(3) 0.0560(5) 0.5803(6)
H2 H 0.8271 0.0179 0.5562
C6 C 0.7129(3) 0.0710(5) 0.4685(6)
H3 H 0.6997 0.0445 0.3694
C7 C 0.6550(3) 0.1255(4) 0.5029(5)
C8 C 0.8945(2) 0.0781(3) 0.8502(5)
C9 C 0.5363(2) 0.2320(4) 0.3137(5)
H4 H 0.5604 0.2981 0.3572
C10 C 0.5733(3) 0.1335(4) 0.3764(6)
N1 N 0.5360(3) 0.0395(4) 0.3128(6)
H5 H 0.5583 -0.0235 0.3528
O1B O 0.4563(2) 0.2034(3) -0.1331(5)
O2B O 0.3590(2) 0.3009(4) -0.2937(6)
O3B O 0.0871(2) 0.1225(3) -0.4780(4)
O4B O 0.0594(2) 0.0208(3) -0.3143(4)
C1B C 0.3834(3) 0.2286(4) -0.1953(5)
C2B C 0.3238(2) 0.1690(4) -0.1502(5)
C3B C 0.2457(3) 0.1556(3) -0.2615(5)
H1B H 0.2314 0.1857 -0.3591
C4B C 0.1888(2) 0.0973(4) -0.2281(5)
C5B C 0.2103(3) 0.0560(5) -0.0803(6)
H2B H 0.1729 0.0179 -0.0562
C6B C 0.2871(3) 0.0710(5) 0.0315(6)
H3B H 0.3003 0.0445 0.1306
C7B C 0.3450(3) 0.1255(4) -0.0029(5)
C8B C 0.1055(2) 0.0781(3) -0.3502(5)
C9B C 0.4637(2) 0.2320(4) 0.1863(5)
H4B H 0.4396 0.2981 0.1428
C10B C 0.4267(3) 0.1335(4) 0.1236(6)
N1B N 0.4640(3) 0.0395(4) 0.1872(6)
H5B H 0.4417 -0.0235 0.1472
Eu1_2 Eu 0.5000 0.36567(2) -0.2500
Eu1A Eu 0.0000 -0.13433(2) -0.2500
Eu1A_2 Eu 1.0000 -0.13433(2) 0.7500
Eu1G Eu 0.0000 0.13433(2) -0.7500
Eu1G_2 Eu 1.0000 0.13433(2) 1.2500
O1B_2 O 0.4563(2) 0.2034(3) 0.8669(5)
O2B_2 O 0.3590(2) 0.3009(4) 0.7063(6)
O3G O 0.4129(2) 0.3775(3) 0.4780(4)
O3E O 0.5871(2) 0.3775(3) 1.0220(4)
O4A O 0.4406(2) 0.5208(3) 0.8143(4)
O4C O 0.5594(2) 0.5208(3) 0.6857(4)
C11? C 0.5360(3) 0.0395(4) 0.3128(6)
H6? H 0.5596 -0.0271 0.3551
loop_
_geom_bond_atom_site_label_1
_geom_bond_atom_site_label_2
_geom_bond_site_symmetry_1
_geom_bond_site_symmetry_2
Eu1 O1 1_555 1_555
O1 C1 1_555 1_555
O2 Eu1 1_555 1_555
O3 C8 1_555 1_555
O4 C8 1_555 1_555
C1 O2 1_555 1_555
C2 C1 1_555 1_555
C3 C2 1_555 1_555
H1 C3 1_555 1_555
C4 C3 1_555 1_555
C5 C4 1_555 1_555
H2 C5 1_555 1_555
C6 C5 1_555 1_555
H3 C6 1_555 1_555
C7 C2 1_555 1_555
C8 C4 1_555 1_555
C9 H4 1_555 1_555
C10 C7 1_555 1_555
N1 C10 1_555 1_555
H5 N1 1_555 1_555
O5 H7 1_555 1_555
H8 O5 1_555 1_555
O1B C1B 1_555 1_555
O2B C1B 1_555 1_555
O3B C8B 1_555 1_555
O4B C8B 1_555 1_555
C1B C2B 1_555 1_555
C2B C3B 1_555 1_555
C3B H1B 1_555 1_555
C4B C3B 1_555 1_555
C5B C4B 1_555 1_555
H2B C5B 1_555 1_555
C6B C5B 1_555 1_555
H3B C6B 1_555 1_555
C7B C2B 1_555 1_555
C8B C4B 1_555 1_555
C9B C9 1_555 1_555
H4B C9B 1_555 1_555
C10B C7B 1_555 1_555
N1B N1 1_555 1_555
H5B N1B 1_555 1_555
Eu1_2 O1B 1_555 1_555
Eu1A O4B 1_555 1_555
Eu1A_2 O4 1_555 1_555
Eu1G O3B 1_555 1_555
Eu1G_2 O3 1_555 1_555
O1B_2 Eu1 1_555 1_555
O2B_2 Eu1 1_555 1_555
O3G Eu1 1_555 1_555
O3E Eu1 1_555 1_555
O4A Eu1 1_555 1_555
O4C Eu1 1_555 1_555
C6 C7 1_555 1_555
C9 C10 1_555 1_555
O2B Eu1_2 1_555 1_555
C6B C7B 1_555 1_555
C9B C10B 1_555 1_555
C10B N1B 1_555 1_555

#END
