
#######################################################################
#
#                 Cambridge Crystallographic Data Centre
#                                CCDC 
#
#######################################################################
#
# If this CIF has been generated from an entry in the Cambridge 
# Structural Database, then it will include bibliographic, chemical, 
# crystal, experimental, refinement or atomic coordinate data resulting 
# from the CCDC's data processing and validation procedures.
#
#######################################################################

data_NUQYIH
_symmetry_cell_setting           monoclinic
_symmetry_space_group_name_H-M   'C 2/c'
_symmetry_Int_Tables_number      15
_space_group_name_Hall           '-C 2yn'
loop_
_symmetry_equiv_pos_site_id
_symmetry_equiv_pos_as_xyz
1 x,y,z
2 -x,y,1/2-z
3 1/2+x,1/2+y,z
4 1/2-x,1/2+y,1/2-z
5 -x,-y,-z
6 x,-y,1/2+z
7 1/2-x,1/2-y,-z
8 1/2+x,1/2-y,1/2+z
_cell_length_a                   24.963(5)
_cell_length_b                   5.0490(10)
_cell_length_c                   19.511(4)
_cell_angle_alpha                90
_cell_angle_beta                 126.45(3)
_cell_angle_gamma                90
_cell_volume                     1978.07
loop_
_atom_site_label
_atom_site_type_symbol
_atom_site_fract_x
_atom_site_fract_y
_atom_site_fract_z
Sr1 Sr 0.07423(1) 0.34844(6) -0.76272(2)
N1 N 0.14729(12) 0.1656(7) -0.43206(15)
O1 O 0.31458(12) 0.3999(6) -0.3338(2)
O2 O 0.21487(14) 0.5420(6) -0.4419(2)
O3 O 0.04999(11) 0.1478(6) -0.66184(13)
O4 O 0.04007(12) 0.3743(6) -0.57236(15)
O5 O 0.12560(15) 0.4401(5) -0.3339(2)
O6 O 0.07015(14) 0.1167(6) -0.3234(2)
C1 C 0.22074(15) 0.1650(8) -0.3653(2)
C2 C 0.2525(2) 0.3894(7) -0.3826(2)
C3 C 0.1285(2) 0.0638(8) -0.5156(2)
C4 C 0.06808(15) 0.2087(6) -0.5881(2)
C5 C 0.1093(2) 0.0311(8) -0.4052(2)
C6 C 0.1014(2) 0.2118(7) -0.3492(2)
O7 O 0.15067(14) 0.6304(7) -0.6266(2)
O8 O 0.0000 0.6729(8) -0.7500
H1 H 0.136(2) 0.33(1) -0.441(2)
H2 H 0.238(2) -0.01(1) -0.366(3)
H3 H 0.231(2) 0.189(9) -0.307(3)
H4 H 0.120(2) -0.12(1) -0.518(3)
H5 H 0.166(2) 0.092(8) -0.518(2)
H6 H 0.066(2) -0.012(9) -0.453(3)
H7 H 0.131(2) -0.12(1) -0.378(3)
H8 H -0.018(4) 0.77(1) -0.786(4)
H9 H 0.161(3) 0.77(2) -0.634(4)
H10 H 0.176(2) 0.61(1) -0.572(3)
O1F O 0.18542(12) 0.1001(6) -0.6662(2)
Sr1F Sr 0.42577(1) 0.15156(6) -0.23728(2)
Sr1E Sr 0.07423(1) -0.34844(6) -0.26272(2)
Sr1E_2 Sr 0.07423(1) 0.65156(6) -0.26272(2)
Sr1A Sr -0.07423(1) 0.34844(6) -0.73728(2)
N1A N -0.14729(12) 0.1656(7) -1.06794(15)
O1A O -0.31458(12) 0.3999(6) -1.1662(2)
O2A O -0.21487(14) 0.5420(6) -1.0581(2)
O3A O -0.04999(11) 0.1478(6) -0.83816(13)
O4A O -0.04007(12) 0.3743(6) -0.92764(15)
O5A O -0.12560(15) 0.4401(5) -1.1661(2)
O6A O -0.07015(14) 0.1167(6) -1.1766(2)
C1A C -0.22074(15) 0.1650(8) -1.1347(2)
C2A C -0.2525(2) 0.3894(7) -1.1174(2)
C3A C -0.1285(2) 0.0638(8) -0.9844(2)
C4A C -0.06808(15) 0.2087(6) -0.9119(2)
C5A C -0.1093(2) 0.0311(8) -1.0948(2)
C6A C -0.1014(2) 0.2118(7) -1.1508(2)
H1A H -0.136(2) 0.33(1) -1.059(2)
H2A H -0.238(2) -0.01(1) -1.134(3)
H3A H -0.231(2) 0.189(9) -1.193(3)
H4A H -0.120(2) -0.12(1) -0.982(3)
H5A H -0.166(2) 0.092(8) -0.982(2)
H6A H -0.066(2) -0.012(9) -1.047(3)
H7A H -0.131(2) -0.12(1) -1.122(3)
O5E O 0.12560(15) 0.5599(5) -0.8339(2)
O6E O 0.07015(14) 0.8833(6) -0.8234(2)
O6E_2 O 0.07015(14) -0.1167(6) -0.8234(2)
H8A H 0.018(4) 0.77(1) -0.714(4)
Sr1G Sr -0.42577(1) 0.15156(6) -1.26272(2)
Sr1D Sr -0.07423(1) 0.65156(6) -1.23728(2)
Sr1D_2 Sr -0.07423(1) -0.34844(6) -1.23728(2)
O1G O -0.18542(12) 0.1001(6) -0.8338(2)
O5D O -0.12560(15) 0.5599(5) -0.6661(2)
O6D O -0.07015(14) -0.1167(6) -0.6766(2)
O6D_2 O -0.07015(14) 0.8833(6) -0.6766(2)
O7A O -0.15067(14) 0.6304(7) -0.8734(2)
H9A H -0.161(3) 0.77(2) -0.866(4)
H10A H -0.176(2) 0.61(1) -0.928(3)
loop_
_geom_bond_atom_site_label_1
_geom_bond_atom_site_label_2
_geom_bond_site_symmetry_1
_geom_bond_site_symmetry_2
Sr1 O3 1_555 1_555
N1 C1 1_555 1_555
O1 C2 1_555 1_555
O2 C2 1_555 1_555
O3 C4 1_555 1_555
O4 C4 1_555 1_555
O5 C6 1_555 1_555
O6 C6 1_555 1_555
C1 C2 1_555 1_555
C3 N1 1_555 1_555
C4 C3 1_555 1_555
C5 N1 1_555 1_555
C6 C5 1_555 1_555
O7 Sr1 1_555 1_555
O8 Sr1 1_555 1_555
H1 N1 1_555 1_555
H2 C1 1_555 1_555
H3 C1 1_555 1_555
H4 C3 1_555 1_555
H5 C3 1_555 1_555
H6 C5 1_555 1_555
H7 C5 1_555 1_555
H8 O8 1_555 1_555
H9 O7 1_555 1_555
H10 O7 1_555 1_555
O1F Sr1 1_555 1_555
Sr1F O1 1_555 1_555
Sr1E O6 1_555 1_555
Sr1E_2 O5 1_555 1_555
Sr1A O3 1_555 1_555
N1A C1A 1_555 1_555
O1A C2A 1_555 1_555
O2A C2A 1_555 1_555
O3A Sr1 1_555 1_555
O4A Sr1 1_555 1_555
O5A C6A 1_555 1_555
O6A C6A 1_555 1_555
C1A C2A 1_555 1_555
C3A N1A 1_555 1_555
C4A O3A 1_555 1_555
C5A N1A 1_555 1_555
C6A C5A 1_555 1_555
H1A N1A 1_555 1_555
H2A C1A 1_555 1_555
H3A C1A 1_555 1_555
H4A C3A 1_555 1_555
H5A C3A 1_555 1_555
H6A C5A 1_555 1_555
H7A C5A 1_555 1_555
O5E Sr1 1_555 1_555
O6E Sr1 1_555 1_555
O6E_2 Sr1 1_555 1_555
H8A O8 1_555 1_555
Sr1G O1A 1_555 1_555
Sr1D O5A 1_555 1_555
Sr1D_2 O6A 1_555 1_555
O1G Sr1A 1_555 1_555
O5D Sr1A 1_555 1_555
O6D Sr1A 1_555 1_555
O6D_2 Sr1A 1_555 1_555
O7A Sr1A 1_555 1_555
H9A O7A 1_555 1_555
H10A O7A 1_555 1_555
O4 Sr1A 1_555 1_555
O6 Sr1E_2 1_555 1_555
O8 Sr1A 1_555 1_555
Sr1A O3A 1_555 1_555
O4A C4A 1_555 1_555
O6A Sr1D 1_555 1_555
C3A C4A 1_555 1_555

#END
