
#######################################################################
#
#                 Cambridge Crystallographic Data Centre
#                                CCDC 
#
#######################################################################
#
# If this CIF has been generated from an entry in the Cambridge 
# Structural Database, then it will include bibliographic, chemical, 
# crystal, experimental, refinement or atomic coordinate data resulting 
# from the CCDC's data processing and validation procedures.
#
#######################################################################

data_NURCUA
_symmetry_cell_setting           triclinic
_symmetry_space_group_name_H-M   'P -1'
_symmetry_Int_Tables_number      2
_space_group_name_Hall           '-P 1'
loop_
_symmetry_equiv_pos_site_id
_symmetry_equiv_pos_as_xyz
1 x,y,z
2 -x,-y,-z
_cell_length_a                   9.3219(6)
_cell_length_b                   10.5274(6)
_cell_length_c                   11.1369(7)
_cell_angle_alpha                64.340(1)
_cell_angle_beta                 80.881(1)
_cell_angle_gamma                82.009(1)
_cell_volume                     969.641
loop_
_atom_site_label
_atom_site_type_symbol
_atom_site_fract_x
_atom_site_fract_y
_atom_site_fract_z
Nd1 Nd 0.17063(2) 0.59794(2) 0.506025(18)
O1 O 0.3891(3) 0.7507(3) 0.4082(3)
O2 O 0.1723(3) 0.8597(4) 0.3817(4)
O3 O 0.0647(3) 1.2847(4) 0.4565(4)
O4 O 0.2463(3) 1.3974(3) 0.4583(3)
O5 O 0.9904(3) 0.5878(3) 0.3411(3)
O6 O 1.2042(4) 0.6667(4) 0.2536(3)
O7 O 1.1884(4) 0.6338(4) -0.3048(3)
O8 O 1.3218(4) 0.5058(5) -0.1421(4)
O9 O 0.3815(4) 0.4511(4) 0.6270(3)
H1 H 0.4252 0.4032 0.5865
H2 H 0.3510 0.3966 0.7054
N1 N 0.5835(4) 0.8977(4) 0.1800(4)
H3 H 0.4954 0.9000 0.1706
C1 C 0.3045(5) 0.8619(5) 0.3813(4)
C2 C 0.3607(4) 0.9984(4) 0.3579(4)
C3 C 0.2628(4) 1.0890(4) 0.3955(4)
H4 H 0.1659 1.0680 0.4212
C4 C 0.3033(4) 1.2092(4) 0.3962(4)
C5 C 0.4462(5) 1.2411(5) 0.3590(6)
H5 H 0.4763 1.3200 0.3624
C6 C 0.5438(5) 1.1546(6) 0.3166(6)
H6 H 0.6398 1.1779 0.2891
C7 C 0.5047(5) 1.0341(5) 0.3134(5)
C8 C 0.1950(4) 1.3045(4) 0.4411(4)
C9 C 0.6179(5) 0.9581(5) 0.2564(4)
C10 C 0.6825(5) 0.8355(5) 0.1199(4)
H7 H 0.6520 0.7942 0.0705
C11 C 0.8265(5) 0.8299(5) 0.1276(4)
C12 C 0.8680(5) 0.8904(5) 0.2031(4)
H8 H 0.9662 0.8885 0.2109
C13 C 0.7645(5) 0.9538(5) 0.2670(5)
H9 H 0.7936 0.9941 0.3180
C14 C 0.9276(5) 0.7632(5) 0.0528(4)
C15 C 0.9043(6) 0.7934(6) -0.0766(5)
H10 H 0.8244 0.8538 -0.1133
C16 C 0.9973(5) 0.7358(6) -0.1522(4)
H11 H 0.9791 0.7564 -0.2387
C17 C 1.1169(5) 0.6480(5) -0.1004(4)
C18 C 1.1424(5) 0.6175(5) 0.0283(4)
H12 H 1.2234 0.5582 0.0636
C19 C 1.0505(5) 0.6732(5) 0.1045(4)
C20 C 1.0826(5) 0.6393(5) 0.2429(4)
C21 C 1.2159(5) 0.5883(5) -0.1863(4)
Nd1_2 Nd 0.17063(2) 1.59794(2) 0.506025(18)
Nd1_3 Nd 1.17063(2) 0.59794(2) -0.493975(18)
Nd1_4 Nd 1.17063(2) 0.59794(2) 0.506025(18)
Nd1A Nd -0.17063(2) 1.40206(2) 0.493975(18)
Nd1A_2 Nd 0.82937(2) 0.40206(2) 0.493975(18)
O3A O -0.0647(3) 0.7153(4) 0.5435(4)
O4_2 O 0.2463(3) 0.3974(3) 0.4583(3)
O5_2 O -0.0096(3) 0.5878(3) 0.3411(3)
O5A O 0.0096(3) 0.4122(3) 0.6589(3)
O6_2 O 0.2042(4) 0.6667(4) 0.2536(3)
O7_2 O 0.1884(4) 0.6338(4) 0.6952(3)
loop_
_geom_bond_atom_site_label_1
_geom_bond_atom_site_label_2
_geom_bond_site_symmetry_1
_geom_bond_site_symmetry_2
Nd1 O1 1_555 1_555
O1 C1 1_555 1_555
O2 Nd1 1_555 1_555
O3 C8 1_555 1_555
O4 C8 1_555 1_555
O5 C20 1_555 1_555
O6 C20 1_555 1_555
O7 C21 1_555 1_555
O8 C21 1_555 1_555
O9 Nd1 1_555 1_555
H1 O9 1_555 1_555
H2 O9 1_555 1_555
N1 H3 1_555 1_555
C1 O2 1_555 1_555
C2 C1 1_555 1_555
C3 C2 1_555 1_555
H4 C3 1_555 1_555
C4 C3 1_555 1_555
C5 C4 1_555 1_555
H5 C5 1_555 1_555
C6 C5 1_555 1_555
H6 C6 1_555 1_555
C7 C2 1_555 1_555
C8 C4 1_555 1_555
C9 N1 1_555 1_555
C10 N1 1_555 1_555
H7 C10 1_555 1_555
C11 C10 1_555 1_555
C12 C11 1_555 1_555
H8 C12 1_555 1_555
C13 C9 1_555 1_555
H9 C13 1_555 1_555
C14 C11 1_555 1_555
C15 C14 1_555 1_555
H10 C15 1_555 1_555
C16 C15 1_555 1_555
H11 C16 1_555 1_555
C17 C16 1_555 1_555
C18 C17 1_555 1_555
H12 C18 1_555 1_555
C19 C14 1_555 1_555
C20 C19 1_555 1_555
C21 C17 1_555 1_555
Nd1_2 O4 1_555 1_555
Nd1_3 O7 1_555 1_555
Nd1_4 O5 1_555 1_555
Nd1A O3 1_555 1_555
Nd1A_2 O5 1_555 1_555
O3A Nd1 1_555 1_555
O4_2 Nd1 1_555 1_555
O5_2 Nd1 1_555 1_555
O5A Nd1 1_555 1_555
O6_2 Nd1 1_555 1_555
O7_2 Nd1 1_555 1_555
O6 Nd1_4 1_555 1_555
C6 C7 1_555 1_555
C7 C9 1_555 1_555
C12 C13 1_555 1_555
C18 C19 1_555 1_555

#END
