
#######################################################################
#
#                 Cambridge Crystallographic Data Centre
#                                CCDC 
#
#######################################################################
#
# If this CIF has been generated from an entry in the Cambridge 
# Structural Database, then it will include bibliographic, chemical, 
# crystal, experimental, refinement or atomic coordinate data resulting 
# from the CCDC's data processing and validation procedures.
#
#######################################################################

data_NURCAG
_symmetry_cell_setting           monoclinic
_symmetry_space_group_name_H-M   'P 21/m'
_symmetry_Int_Tables_number      11
_space_group_name_Hall           '-P 2yb'
loop_
_symmetry_equiv_pos_site_id
_symmetry_equiv_pos_as_xyz
1 x,y,z
2 -x,1/2+y,-z
3 -x,-y,-z
4 x,1/2-y,z
_cell_length_a                   8.8813(18)
_cell_length_b                   17.915(4)
_cell_length_c                   17.223(3)
_cell_angle_alpha                90
_cell_angle_beta                 96.942(4)
_cell_angle_gamma                90
_cell_volume                     2720.24
loop_
_atom_site_label
_atom_site_type_symbol
_atom_site_fract_x
_atom_site_fract_y
_atom_site_fract_z
Ni1 Ni 0.45842(10) 0.49829(5) 0.25951(5)
N1 N 0.6662(7) 0.4876(3) 0.2215(4)
N2 N 0.8662(7) 0.5083(4) 0.1599(4)
N3 N 0.7047(7) 0.5106(4) 0.4814(4)
N4 N 0.5520(7) 0.4946(4) 0.3732(3)
O1 O 0.4066(6) 0.3862(3) 0.2575(3)
O2 O 0.3339(6) 0.4494(3) 0.1498(3)
O3 O 0.2413(6) 0.5520(3) 0.2845(3)
O4 O 0.4279(6) 0.6110(2) 0.2408(3)
Br1 Br 0.0431(3) 0.2500 -0.05528(11)
Br2 Br -0.23669(18) 0.7500 0.24030(11)
C1 C 0.6246(10) 0.5654(5) 0.0991(5)
H1 H 0.6686 0.6140 0.0953
H2 H 0.5242 0.5704 0.1138
H3 H 0.6195 0.5406 0.0494
C2 C 0.7192(9) 0.5210(4) 0.1589(4)
C3 C 0.7865(9) 0.4526(5) 0.2606(4)
H4 H 0.7850 0.4247 0.3060
C4 C 0.9121(9) 0.4648(5) 0.2228(5)
H5 H 1.0096 0.4468 0.2374
C5 C 0.9632(10) 0.5331(5) 0.1037(5)
H6 H 1.0679 0.5300 0.1272
H7 H 0.9412 0.5851 0.0913
C6 C 0.9453(9) 0.4883(4) 0.0283(4)
H8 H 0.9611 0.4359 0.0408
H9 H 0.8423 0.4940 0.0030
C7 C 0.9684(14) 0.5016(8) 0.5347(6)
H10 H 1.0197 0.4796 0.5792
C8 C 0.8189(10) 0.5398(6) 0.5406(5)
H11 H 0.7883 0.5314 0.5920
H12 H 0.8297 0.5932 0.5333
C9 C 0.6460(11) 0.4403(6) 0.4838(5)
H13 H 0.6668 0.4053 0.5236
C10 C 0.5531(9) 0.4321(5) 0.4178(5)
H14 H 0.4966 0.3893 0.4040
C11 C 0.6482(8) 0.5410(5) 0.4135(5)
C12 C 0.6859(12) 0.6166(5) 0.3911(5)
H15 H 0.6647 0.6219 0.3354
H16 H 0.7916 0.6259 0.4070
H17 H 0.6261 0.6518 0.4162
C13 C 0.3455(10) 0.3903(4) 0.1866(5)
C14 C 0.2966(9) 0.3176(4) 0.1488(5)
C15 C 0.2119(10) 0.3169(4) 0.0754(5)
H18 H 0.1840 0.3614 0.0499
C16 C 0.1701(17) 0.2500 0.0412(7)
C17 C 0.3417(12) 0.2500 0.1847(6)
H19 H 0.4021 0.2500 0.2327
C18 C 0.2983(9) 0.6101(4) 0.2637(4)
C19 C 0.2113(8) 0.6825(4) 0.2642(4)
C20 C 0.0579(9) 0.6824(4) 0.2621(4)
H20 H 0.0059 0.6374 0.2616
C21 C -0.0228(12) 0.7500 0.2606(7)
C22 C 0.2862(11) 0.7500 0.2633(6)
H21 H 0.3906 0.7500 0.2620
N1B N 1.3338(7) 0.5124(3) -0.2215(4)
N2B N 1.1338(7) 0.4917(4) -0.1599(4)
C1B C 1.3754(10) 0.4346(5) -0.0991(5)
H1B H 1.3314 0.3860 -0.0953
H2B H 1.4758 0.4296 -0.1138
H3B H 1.3805 0.4594 -0.0494
C2B C 1.2808(9) 0.4790(4) -0.1589(4)
C3B C 1.2135(9) 0.5474(5) -0.2606(4)
H4B H 1.2150 0.5753 -0.3060
C4B C 1.0879(9) 0.5352(5) -0.2228(5)
H5B H 0.9904 0.5532 -0.2374
C5B C 1.0368(10) 0.4669(5) -0.1037(5)
H6B H 0.9321 0.4700 -0.1272
H7B H 1.0588 0.4149 -0.0913
C6B C 1.0547(9) 0.5117(4) -0.0283(4)
H8B H 1.0389 0.5641 -0.0408
H9B H 1.1577 0.5060 -0.0030
N3B N 1.2953(7) 0.4894(4) 0.5186(4)
N4B N 1.4480(7) 0.5054(4) 0.6268(3)
C7B C 1.0316(14) 0.4984(8) 0.4653(6)
H10B H 0.9803 0.5204 0.4208
C8B C 1.1811(10) 0.4602(6) 0.4594(5)
H11B H 1.2117 0.4686 0.4080
H12B H 1.1703 0.4068 0.4667
C9B C 1.3540(11) 0.5597(6) 0.5162(5)
H13B H 1.3332 0.5947 0.4764
C10B C 1.4469(9) 0.5679(5) 0.5822(5)
H14B H 1.5034 0.6107 0.5960
C11B C 1.3518(8) 0.4590(5) 0.5865(5)
C12B C 1.3141(12) 0.3834(5) 0.6089(5)
H15B H 1.3353 0.3781 0.6646
H16B H 1.2084 0.3741 0.5930
H17B H 1.3739 0.3482 0.5838
O1C O 0.4066(6) 0.1138(3) 0.2575(3)
O2C O 0.3339(6) 0.0506(3) 0.1498(3)
C13C C 0.3455(10) 0.1097(4) 0.1866(5)
C14C C 0.2966(9) 0.1824(4) 0.1488(5)
C15C C 0.2119(10) 0.1831(4) 0.0754(5)
H18C H 0.1840 0.1386 0.0499
O3C O 0.2413(6) 0.9480(3) 0.2845(3)
O4C O 0.4279(6) 0.8890(2) 0.2408(3)
C18C C 0.2983(9) 0.8899(4) 0.2637(4)
C19C C 0.2113(8) 0.8175(4) 0.2642(4)
C20C C 0.0579(9) 0.8176(4) 0.2621(4)
H20C H 0.0059 0.8626 0.2616
Ni1B Ni 1.54158(10) 0.50171(5) -0.25951(5)
Ni1B_2 Ni 1.54158(10) 0.50171(5) 0.74049(5)
Ni1C Ni 0.45842(10) 0.00171(5) 0.25951(5)
Ni1C_2 Ni 0.45842(10) 1.00171(5) 0.25951(5)
N4B_2 N 1.4480(7) 0.5054(4) -0.3732(3)
O1B O 1.5934(6) 0.6138(3) -0.2575(3)
O2B O 1.6661(6) 0.5506(3) -0.1498(3)
O3B O 1.7587(6) 0.4480(3) -0.2845(3)
O4B O 1.5721(6) 0.3890(2) -0.2408(3)
loop_
_geom_bond_atom_site_label_1
_geom_bond_atom_site_label_2
_geom_bond_site_symmetry_1
_geom_bond_site_symmetry_2
Ni1 N1 1_555 1_555
N1 C2 1_555 1_555
N2 C2 1_555 1_555
N3 C8 1_555 1_555
N4 Ni1 1_555 1_555
O1 Ni1 1_555 1_555
O2 Ni1 1_555 1_555
O3 Ni1 1_555 1_555
O4 Ni1 1_555 1_555
Br1 C16 1_555 1_555
Br2 C21 1_555 1_555
C1 H1 1_555 1_555
H2 C1 1_555 1_555
H3 C1 1_555 1_555
C2 C1 1_555 1_555
C3 N1 1_555 1_555
H4 C3 1_555 1_555
C4 N2 1_555 1_555
H5 C4 1_555 1_555
C5 N2 1_555 1_555
H6 C5 1_555 1_555
H7 C5 1_555 1_555
C6 C5 1_555 1_555
H8 C6 1_555 1_555
H9 C6 1_555 1_555
C7 H10 1_555 1_555
C8 C7 1_555 1_555
H11 C8 1_555 1_555
H12 C8 1_555 1_555
C9 N3 1_555 1_555
H13 C9 1_555 1_555
C10 N4 1_555 1_555
H14 C10 1_555 1_555
C11 N3 1_555 1_555
C12 C11 1_555 1_555
H15 C12 1_555 1_555
H16 C12 1_555 1_555
H17 C12 1_555 1_555
C13 O1 1_555 1_555
C14 C13 1_555 1_555
C15 C14 1_555 1_555
H18 C15 1_555 1_555
C16 C15 1_555 1_555
C17 C14 1_555 1_555
H19 C17 1_555 1_555
C18 O3 1_555 1_555
C19 C18 1_555 1_555
C20 C19 1_555 1_555
H20 C20 1_555 1_555
C21 C20 1_555 1_555
C22 C19 1_555 1_555
H21 C22 1_555 1_555
N1B C2B 1_555 1_555
N2B C2B 1_555 1_555
C1B H1B 1_555 1_555
H2B C1B 1_555 1_555
H3B C1B 1_555 1_555
C2B C1B 1_555 1_555
C3B N1B 1_555 1_555
H4B C3B 1_555 1_555
C4B N2B 1_555 1_555
H5B C4B 1_555 1_555
C5B N2B 1_555 1_555
H6B C5B 1_555 1_555
H7B C5B 1_555 1_555
C6B C6 1_555 1_555
H8B C6B 1_555 1_555
H9B C6B 1_555 1_555
N3B C8B 1_555 1_555
N4B C10B 1_555 1_555
C7B C7 1_555 1_555
H10B C7B 1_555 1_555
C8B C7B 1_555 1_555
H11B C8B 1_555 1_555
H12B C8B 1_555 1_555
C9B N3B 1_555 1_555
H13B C9B 1_555 1_555
C10B C9B 1_555 1_555
H14B C10B 1_555 1_555
C11B N3B 1_555 1_555
C12B C11B 1_555 1_555
H15B C12B 1_555 1_555
H16B C12B 1_555 1_555
H17B C12B 1_555 1_555
O1C C13C 1_555 1_555
O2C C13C 1_555 1_555
C13C C14C 1_555 1_555
C14C C17 1_555 1_555
C15C C16 1_555 1_555
H18C C15C 1_555 1_555
O3C C18C 1_555 1_555
O4C C18C 1_555 1_555
C18C C19C 1_555 1_555
C19C C22 1_555 1_555
C20C C21 1_555 1_555
H20C C20C 1_555 1_555
Ni1B N1B 1_555 1_555
Ni1B_2 N4B 1_555 1_555
Ni1C O1C 1_555 1_555
Ni1C_2 O3C 1_555 1_555
N4B_2 Ni1B 1_555 1_555
O1B Ni1B 1_555 1_555
O2B Ni1B 1_555 1_555
O3B Ni1B 1_555 1_555
O4B Ni1B 1_555 1_555
N4 C11 1_555 1_555
O2 C13 1_555 1_555
O4 C18 1_555 1_555
C3 C4 1_555 1_555
C9 C10 1_555 1_555
C3B C4B 1_555 1_555
C5B C6B 1_555 1_555
N4B C11B 1_555 1_555
O2C Ni1C 1_555 1_555
C14C C15C 1_555 1_555
O4C Ni1C_2 1_555 1_555
C19C C20C 1_555 1_555

#END
