
#######################################################################
#
#                 Cambridge Crystallographic Data Centre
#                                CCDC 
#
#######################################################################
#
# If this CIF has been generated from an entry in the Cambridge 
# Structural Database, then it will include bibliographic, chemical, 
# crystal, experimental, refinement or atomic coordinate data resulting 
# from the CCDC's data processing and validation procedures.
#
#######################################################################

data_NURHIS
_symmetry_cell_setting           triclinic
_symmetry_space_group_name_H-M   'P 1'
_symmetry_Int_Tables_number      1
_space_group_name_Hall           'P 1'
loop_
_symmetry_equiv_pos_site_id
_symmetry_equiv_pos_as_xyz
1 x,y,z
_cell_length_a                   9.2122(16)
_cell_length_b                   10.0610(17)
_cell_length_c                   19.077(3)
_cell_angle_alpha                97.466(3)
_cell_angle_beta                 100.634(4)
_cell_angle_gamma                99.365(3)
_cell_volume                     1691.11
loop_
_atom_site_label
_atom_site_type_symbol
_atom_site_fract_x
_atom_site_fract_y
_atom_site_fract_z
Cl1 Cl 0.1043(6) 0.1801(5) 0.3373(3)
O9 O 0.091(2) 0.0628(15) 0.3647(11)
O10 O 0.191(3) 0.2819(19) 0.3906(9)
O11 O -0.043(2) 0.200(2) 0.3123(13)
O12 O 0.174(2) 0.1758(19) 0.2797(9)
Cl2 Cl 0.3394(6) 0.2142(5) 0.0528(3)
O13 O 0.383(3) 0.189(2) 0.1233(8)
O14 O 0.4484(16) 0.1754(17) 0.0114(7)
O15 O 0.202(2) 0.142(3) 0.0193(10)
O16 O 0.327(2) 0.3495(13) 0.0521(8)
Cl3 Cl 0.9484(7) 0.8642(5) 0.5582(3)
O17 O 1.042(3) 0.767(3) 0.5547(18)
O18 O 0.992(2) 0.9562(19) 0.6251(9)
O19 O 0.954(3) 0.935(2) 0.4992(9)
O20 O 0.7984(19) 0.798(2) 0.5503(13)
Cl4 Cl 0.7415(10) 0.8376(9) 0.8531(5)
O21 O 0.719(3) 0.878(3) 0.7820(11)
O22 O 0.6243(19) 0.8896(18) 0.8885(10)
O23 O 0.8757(17) 0.8928(18) 0.8985(10)
O24 O 0.681(3) 0.6874(17) 0.8274(11)
O25 O 0.449(4) 0.499(3) 0.9547(19)
Cu1 Cu 0.7415(2) 0.49318(18) 0.72479(11)
Cu2 Cu -0.0949(2) 0.82885(18) 0.27269(10)
N1 N 0.6663(18) 0.6164(15) 0.6584(8)
H1 H 0.7198 0.7042 0.6737
H2 H 0.6775 0.5874 0.6123
O1 O 0.5275(14) 0.4089(12) 0.7112(6)
N2 N -0.0219(14) 0.7707(14) 0.3667(7)
H3 H -0.0164 0.8392 0.4045
H4 H -0.0857 0.6942 0.3722
O2 O 0.0683(13) 0.7581(10) 0.2413(6)
C1 C 0.5065(17) 0.6123(18) 0.6591(9)
H5 H 0.5056 0.6808 0.7019
C2 C 0.404(2) 0.6526(15) 0.5944(9)
H6 H 0.4527 0.7405 0.5834
H7 H 0.3067 0.6639 0.6067
S1 S 0.3745(6) 0.5219(5) 0.5179(3)
C3 C 0.1367(18) 0.7391(16) 0.3642(9)
H8 H 0.2098 0.8241 0.3893
C4 C 0.1709(17) 0.6268(15) 0.4097(9)
H9 H 0.1172 0.5367 0.3819
H10 H 0.1316 0.6419 0.4544
S2 S 0.3630(6) 0.6239(6) 0.4331(3)
C5 C 0.439(2) 0.4769(16) 0.6758(9)
O3 O 0.2967(13) 0.4353(12) 0.6607(7)
C6 C 0.1618(18) 0.7158(15) 0.2897(9)
O4 O 0.2691(13) 0.6665(12) 0.2800(6)
N3 N 0.9558(9) 0.5799(9) 0.7507(6)
C7 C 1.0271(12) 0.6761(11) 0.7158(6)
H11 H 0.9706 0.7081 0.6768
C8 C 1.1810(12) 0.7255(12) 0.7381(7)
H12 H 1.2297 0.7912 0.7142
C9 C 1.2637(9) 0.6787(13) 0.7952(7)
H13 H 1.3689 0.7124 0.8103
C10 C 1.1924(11) 0.5825(13) 0.8300(6)
H14 H 1.2489 0.5505 0.8690
C11 C 1.0384(12) 0.5331(10) 0.8078(6)
N4 N 0.8020(11) 0.4013(10) 0.8086(5)
C12 C 0.7045(11) 0.3105(13) 0.8356(6)
H15 H 0.6007 0.2873 0.8131
C13 C 0.7588(16) 0.2536(15) 0.8954(7)
H16 H 0.6922 0.1915 0.9138
C14 C 0.9107(17) 0.2875(14) 0.9282(6)
H17 H 0.9478 0.2486 0.9691
C15 C 1.0082(11) 0.3783(14) 0.9013(6)
H18 H 1.1120 0.4015 0.9237
C16 C 0.9539(11) 0.4352(12) 0.8415(6)
N5 N -0.2745(8) 0.8974(8) 0.2942(5)
C17 C -0.3393(12) 0.8824(10) 0.3537(5)
H19 H -0.2907 0.8439 0.3923
C18 C -0.4751(12) 0.9237(13) 0.3567(6)
H20 H -0.5194 0.9135 0.3974
C19 C -0.5462(10) 0.9801(12) 0.3002(7)
H21 H -0.6391 1.0083 0.3022
C20 C -0.4815(11) 0.9951(11) 0.2407(6)
H22 H -0.5301 1.0336 0.2020
C21 C -0.3456(11) 0.9538(10) 0.2377(5)
N6 N -0.1390(11) 0.9154(9) 0.1866(4)
C22 C -0.0517(11) 0.9273(11) 0.1348(5)
H23 H 0.0412 0.8962 0.1408
C23 C -0.1001(13) 0.9848(13) 0.0744(5)
H24 H -0.0403 0.9930 0.0390
C24 C -0.2359(14) 1.0304(12) 0.0657(5)
H25 H -0.2690 1.0697 0.0244
C25 C -0.3233(11) 1.0184(12) 0.1175(6)
H26 H -0.4161 1.0495 0.1116
C26 C -0.2749(11) 0.9609(11) 0.1780(5)
Cu3 Cu 0.1650(2) 0.2213(2) 0.63820(11)
Cu4 Cu 0.3063(2) 0.54816(18) 0.17042(11)
N7 N 1.0746(18) 0.2623(19) 0.5438(8)
H27 H 1.1480 0.3133 0.5263
H28 H 1.0391 0.1816 0.5119
O5 O 0.9876(13) 0.2760(13) 0.6666(7)
N8 N 0.3644(16) 0.4228(13) 0.2367(8)
H29 H 0.2922 0.4043 0.2634
H30 H 0.3735 0.3418 0.2109
O6 O 0.5182(13) 0.6118(11) 0.1870(7)
C27 C 0.9554(18) 0.334(2) 0.5462(8)
H31 H 0.9967 0.4328 0.5474
C28 C 0.826(2) 0.286(2) 0.4782(10)
H32 H 0.7741 0.1923 0.4780
H33 H 0.8673 0.2878 0.4337
S3 S 0.6969(8) 0.4046(7) 0.4820(3)
C29 C 0.5052(18) 0.4866(14) 0.2836(9)
H34 H 0.4866 0.5501 0.3244
C30 C 0.601(2) 0.388(2) 0.3145(11)
H35 H 0.6602 0.3546 0.2798
H36 H 0.5381 0.3091 0.3271
S4 S 0.7259(9) 0.4964(8) 0.3962(4)
C31 C 0.912(2) 0.3195(19) 0.6203(9)
O7 O 0.7912(14) 0.3602(13) 0.6304(6)
C32 C 0.599(2) 0.5736(17) 0.2359(10)
H37 H 0.6074 0.4897 0.2037
O8 O 0.7358(13) 0.6051(10) 0.2584(6)
N9 N 0.3331(11) 0.1374(10) 0.6120(6)
C33 C 0.3796(14) 0.1410(12) 0.5468(6)
H38 H 0.3213 0.1734 0.5086
C34 C 0.5113(17) 0.0969(15) 0.5377(8)
H39 H 0.5431 0.0994 0.4932
C35 C 0.5965(13) 0.0494(15) 0.5937(10)
H40 H 0.6866 0.0193 0.5875
C36 C 0.5500(14) 0.0459(14) 0.6589(9)
H41 H 0.6083 0.0134 0.6971
C37 C 0.4183(14) 0.0899(12) 0.6680(6)
N10 N 0.2231(12) 0.1512(10) 0.7264(5)
C38 C 0.1514(12) 0.1514(13) 0.7845(6)
H42 H 0.0632 0.1894 0.7832
C39 C 0.2088(17) 0.0962(15) 0.8443(5)
H43 H 0.1599 0.0963 0.8840
C40 C 0.3379(17) 0.0406(13) 0.8462(6)
H44 H 0.3771 0.0029 0.8871
C41 C 0.4095(13) 0.0404(14) 0.7881(8)
H45 H 0.4977 0.0024 0.7893
C42 C 0.3521(12) 0.0957(12) 0.7282(7)
N11 N 0.0870(8) 0.4856(9) 0.1397(5)
C43 C 0.0004(11) 0.3947(9) 0.1717(5)
H46 H 0.0479 0.3457 0.2056
C44 C -0.1557(11) 0.3755(11) 0.1540(7)
H47 H -0.2148 0.3133 0.1758
C45 C -0.2252(8) 0.4471(13) 0.1043(7)
H48 H -0.3318 0.4340 0.0922
C46 C -0.1386(11) 0.5381(12) 0.0723(6)
H49 H -0.1861 0.5871 0.0384
C47 C 0.0175(11) 0.5573(10) 0.0900(5)
N12 N 0.2665(12) 0.6540(9) 0.0933(5)
C48 C 0.3763(9) 0.7373(11) 0.0692(6)
H50 H 0.4796 0.7453 0.0908
C49 C 0.3352(12) 0.8087(12) 0.0134(6)
H51 H 0.4102 0.8656 -0.0031
C50 C 0.1842(13) 0.7969(12) -0.0183(6)
H52 H 0.1560 0.8457 -0.0565
C51 C 0.0743(10) 0.7136(13) 0.0058(6)
H53 H -0.0289 0.7056 -0.0159
C52 C 0.1155(10) 0.6422(11) 0.0616(6)
Cu3_2 Cu 1.1650(2) 0.2213(2) 0.63820(11)
N7_2 N 0.0746(18) 0.2623(19) 0.5438(8)
H27_2 H 0.1480 0.3133 0.5263
H28_2 H 0.0391 0.1816 0.5119
O5_2 O -0.0124(13) 0.2760(13) 0.6666(7)
Cl5? Cl 0.7187(11) 0.7945(10) 0.8869(5)
O26? O 0.702(5) 0.715(3) 0.9448(16)
O27? O 0.801(4) 0.906(3) 0.7284(17)
H54? H 0.7074 0.4369 0.3275
H55? H 0.5946 0.3114 0.2751
O28? O 0.876(4) 0.724(2) 0.5399(19)
O29? O 0.880(5) 0.942(4) 0.5097(18)
O30? O 1.103(2) 0.870(6) 0.564(3)
O31? O 0.908(4) 0.894(3) 0.6276(11)
O32? O 0.492(5) 0.447(4) 0.924(2)
S5? S 0.5605(17) 0.318(2) 0.3896(10)
loop_
_geom_bond_atom_site_label_1
_geom_bond_atom_site_label_2
_geom_bond_site_symmetry_1
_geom_bond_site_symmetry_2
Cu1 N1 1_555 1_555
Cu2 N2 1_555 1_555
N1 H1 1_555 1_555
H2 N1 1_555 1_555
O1 Cu1 1_555 1_555
N2 H3 1_555 1_555
H4 N2 1_555 1_555
O2 Cu2 1_555 1_555
C1 N1 1_555 1_555
H5 C1 1_555 1_555
C2 C1 1_555 1_555
H6 C2 1_555 1_555
H7 C2 1_555 1_555
S1 C2 1_555 1_555
C3 N2 1_555 1_555
H8 C3 1_555 1_555
C4 C3 1_555 1_555
H9 C4 1_555 1_555
H10 C4 1_555 1_555
S2 S1 1_555 1_555
C5 O1 1_555 1_555
O3 C5 1_555 1_555
C6 O2 1_555 1_555
O4 C6 1_555 1_555
N3 Cu1 1_555 1_555
C7 N3 1_555 1_555
H11 C7 1_555 1_555
C8 C7 1_555 1_555
H12 C8 1_555 1_555
C9 C8 1_555 1_555
H13 C9 1_555 1_555
C10 C9 1_555 1_555
H14 C10 1_555 1_555
C11 N3 1_555 1_555
N4 Cu1 1_555 1_555
C12 N4 1_555 1_555
H15 C12 1_555 1_555
C13 C12 1_555 1_555
H16 C13 1_555 1_555
C14 C13 1_555 1_555
H17 C14 1_555 1_555
C15 C14 1_555 1_555
H18 C15 1_555 1_555
C16 C11 1_555 1_555
N5 Cu2 1_555 1_555
C17 N5 1_555 1_555
H19 C17 1_555 1_555
C18 C17 1_555 1_555
H20 C18 1_555 1_555
C19 C18 1_555 1_555
H21 C19 1_555 1_555
C20 C19 1_555 1_555
H22 C20 1_555 1_555
C21 N5 1_555 1_555
N6 Cu2 1_555 1_555
C22 N6 1_555 1_555
H23 C22 1_555 1_555
C23 C22 1_555 1_555
H24 C23 1_555 1_555
C24 C23 1_555 1_555
H25 C24 1_555 1_555
C25 C24 1_555 1_555
H26 C25 1_555 1_555
C26 C21 1_555 1_555
Cu3 O3 1_555 1_555
Cu4 O4 1_555 1_555
N7 H27 1_555 1_555
H28 N7 1_555 1_555
O5 C31 1_555 1_555
N8 Cu4 1_555 1_555
H29 N8 1_555 1_555
H30 N8 1_555 1_555
O6 Cu4 1_555 1_555
C27 N7 1_555 1_555
H31 C27 1_555 1_555
C28 C27 1_555 1_555
H32 C28 1_555 1_555
H33 C28 1_555 1_555
S3 C28 1_555 1_555
C29 N8 1_555 1_555
H34 C29 1_555 1_555
C30 C29 1_555 1_555
H35 C30 1_555 1_555
H36 C30 1_555 1_555
S4 S3 1_555 1_555
C31 C27 1_555 1_555
O7 Cu1 1_555 1_555
C32 O6 1_555 1_555
H37 C32 1_555 1_555
O8 C32 1_555 1_555
N9 Cu3 1_555 1_555
C33 N9 1_555 1_555
H38 C33 1_555 1_555
C34 C33 1_555 1_555
H39 C34 1_555 1_555
C35 C34 1_555 1_555
H40 C35 1_555 1_555
C36 C35 1_555 1_555
H41 C36 1_555 1_555
C37 N9 1_555 1_555
N10 Cu3 1_555 1_555
C38 N10 1_555 1_555
H42 C38 1_555 1_555
C39 C38 1_555 1_555
H43 C39 1_555 1_555
C40 C39 1_555 1_555
H44 C40 1_555 1_555
C41 C40 1_555 1_555
H45 C41 1_555 1_555
C42 C37 1_555 1_555
N11 Cu4 1_555 1_555
C43 N11 1_555 1_555
H46 C43 1_555 1_555
C44 C43 1_555 1_555
H47 C44 1_555 1_555
C45 C44 1_555 1_555
H48 C45 1_555 1_555
C46 C45 1_555 1_555
H49 C46 1_555 1_555
C47 N11 1_555 1_555
N12 Cu4 1_555 1_555
C48 N12 1_555 1_555
H50 C48 1_555 1_555
C49 C48 1_555 1_555
H51 C49 1_555 1_555
C50 C49 1_555 1_555
H52 C50 1_555 1_555
C51 C50 1_555 1_555
H53 C51 1_555 1_555
C52 C47 1_555 1_555
Cl1 O9 1_555 1_555
O10 Cl1 1_555 1_555
O11 Cl1 1_555 1_555
O12 Cl1 1_555 1_555
Cl2 O13 1_555 1_555
O14 Cl2 1_555 1_555
O15 Cl2 1_555 1_555
O16 Cl2 1_555 1_555
Cl3 O17 1_555 1_555
O18 Cl3 1_555 1_555
O19 Cl3 1_555 1_555
O20 Cl3 1_555 1_555
Cl4 O21 1_555 1_555
O22 Cl4 1_555 1_555
O23 Cl4 1_555 1_555
O24 Cl4 1_555 1_555
Cu3_2 N7 1_555 1_555
N7_2 Cu3 1_555 1_555
H27_2 N7_2 1_555 1_555
H28_2 N7_2 1_555 1_555
O5_2 Cu3 1_555 1_555
C1 C5 1_555 1_555
C3 C6 1_555 1_555
C4 S2 1_555 1_555
C10 C11 1_555 1_555
N4 C16 1_555 1_555
C15 C16 1_555 1_555
C20 C21 1_555 1_555
N6 C26 1_555 1_555
C25 C26 1_555 1_555
O5 Cu3_2 1_555 1_555
C29 C32 1_555 1_555
C30 S4 1_555 1_555
C31 O7 1_555 1_555
C36 C37 1_555 1_555
N10 C42 1_555 1_555
C41 C42 1_555 1_555
C46 C47 1_555 1_555
N12 C52 1_555 1_555
C51 C52 1_555 1_555

#END
