
#######################################################################
#
#                 Cambridge Crystallographic Data Centre
#                                CCDC 
#
#######################################################################
#
# If this CIF has been generated from an entry in the Cambridge 
# Structural Database, then it will include bibliographic, chemical, 
# crystal, experimental, refinement or atomic coordinate data resulting 
# from the CCDC's data processing and validation procedures.
#
#######################################################################

data_NURMOD
_symmetry_cell_setting           triclinic
_symmetry_space_group_name_H-M   'P -1'
_symmetry_Int_Tables_number      2
_space_group_name_Hall           '-P 1'
loop_
_symmetry_equiv_pos_site_id
_symmetry_equiv_pos_as_xyz
1 x,y,z
2 -x,-y,-z
_cell_length_a                   10.770(7)
_cell_length_b                   12.245(8)
_cell_length_c                   13.514(9)
_cell_angle_alpha                102.829(8)
_cell_angle_beta                 107.734(8)
_cell_angle_gamma                98.833(9)
_cell_volume                     1607.52
loop_
_atom_site_label
_atom_site_type_symbol
_atom_site_fract_x
_atom_site_fract_y
_atom_site_fract_z
Co1 Co 0.09326(10) 0.06915(8) 0.42005(8)
Co2 Co 0.35223(10) 0.43376(8) 0.50086(8)
N1 N 0.2521(6) 0.0085(5) 0.5033(5)
N2 N 0.4543(6) 0.0227(5) 0.6174(5)
N3 N 0.7635(6) 0.1659(6) 1.2242(5)
N4 N 0.9413(6) 0.1439(5) 1.3395(5)
N5 N 0.2419(6) 0.5209(5) 0.4134(5)
N6 N 0.1673(7) 0.6203(5) 0.3006(5)
O1 O 0.2308(6) 0.4260(4) 0.5975(4)
O2 O 0.4123(6) 0.3629(4) 0.6515(4)
O3 O 0.1225(5) 0.1816(4) 0.5613(4)
O4 O 0.0306(6) 0.0840(4) 0.6511(4)
O5 O 0.1722(5) 0.0922(4) 1.3052(4)
O6 O 0.2748(5) 0.2601(4) 1.4208(4)
O7 O 0.5745(6) 0.3252(5) 1.3146(5)
O8 O 0.4804(5) 0.4330(4) 1.4092(4)
C1 C 0.3059(9) 0.3803(6) 0.6598(6)
C2 C 0.2693(7) 0.3605(5) 0.7519(6)
C3 C 0.3294(7) 0.4415(6) 0.8527(6)
H1 H 0.3838 0.5105 0.8572
C4 C 0.3142(8) 0.4267(6) 0.9444(6)
H2 H 0.3530 0.4866 1.0084
C5 C 0.2403(7) 0.3216(6) 0.9446(6)
C6 C 0.1748(7) 0.2403(6) 0.8446(6)
H3 H 0.1213 0.1711 0.8406
C7 C 0.1873(7) 0.2599(6) 0.7493(5)
C8 C 0.1091(7) 0.1670(6) 0.6461(6)
C9 C 0.2303(7) 0.1939(6) 1.3272(6)
C10 C 0.2363(7) 0.2341(6) 1.2340(6)
C11 C 0.1262(8) 0.1903(6) 1.1377(6)
H4 H 0.0522 0.1382 1.1356
C12 C 0.1236(8) 0.2220(6) 1.0452(6)
H5 H 0.0469 0.1936 0.9833
C13 C 0.2348(7) 0.2962(6) 1.0433(6)
C14 C 0.3434(8) 0.3369(6) 1.1386(6)
H6 H 0.4191 0.3853 1.1389
C15 C 0.3479(7) 0.3113(6) 1.2328(5)
C16 C 0.4774(7) 0.3566(6) 1.3251(6)
C17 C 0.3702(8) 0.0759(6) 0.5644(6)
H7 H 0.3928 0.1541 0.5701
C18 C 0.3856(9) -0.0919(7) 0.5884(7)
H8 H 0.4174 -0.1519 0.6113
C19 C 0.2647(9) -0.0966(7) 0.5210(7)
H9 H 0.1961 -0.1634 0.4892
C20 C 0.5908(9) 0.0766(7) 0.6915(7)
H10 H 0.6206 0.1491 0.6782
H11 H 0.6490 0.0271 0.6765
C21 C 0.6053(8) 0.0994(7) 0.8095(7)
C22 C 0.5309(9) 0.1641(7) 0.8516(7)
H12 H 0.4709 0.1963 0.8083
C23 C 0.5465(9) 0.1809(7) 0.9606(7)
H13 H 0.4984 0.2273 0.9901
C24 C 0.6323(8) 0.1304(7) 1.0276(6)
C25 C 0.7089(8) 0.0664(7) 0.9855(7)
H14 H 0.7682 0.0333 1.0283
C26 C 0.6950(8) 0.0523(7) 0.8759(6)
H15 H 0.7472 0.0103 0.8470
C27 C 0.6320(8) 0.1386(7) 1.1410(6)
H16 H 0.5854 0.1971 1.1604
H17 H 0.5813 0.0655 1.1404
C28 C 0.8278(8) 0.0941(7) 1.2572(6)
H18 H 0.7978 0.0147 1.2265
C29 C 0.9496(9) 0.2528(7) 1.3589(7)
H19 H 1.0188 0.3098 1.4137
C30 C 0.8394(9) 0.2721(7) 1.2858(7)
H20 H 0.8215 0.3428 1.2802
C31 C 0.2626(8) 0.5665(6) 0.3356(6)
H21 H 0.3333 0.5609 0.3104
C32 C 0.1299(8) 0.5535(7) 0.4238(7)
H22 H 0.0922 0.5370 0.4738
C33 C 0.0803(9) 0.6120(7) 0.3542(8)
H23 H 0.0035 0.6405 0.3449
C34 C 0.1513(10) 0.6591(7) 0.2086(7)
H24 H 0.2399 0.6892 0.2084
H25 H 0.1086 0.7232 0.2161
C35 C -0.0131(10) 0.4806(7) 0.0900(7)
H26 H -0.0258 0.4658 0.1512
C36 C 0.0734(9) 0.5754(7) 0.1015(8)
C37 C 0.0854(9) 0.5972(7) 0.0100(8)
H27 H 0.1426 0.6649 0.0150
Co1A Co -0.09326(10) -0.06915(8) 0.57995(8)
Co1_2 Co 0.09326(10) 0.06915(8) 1.42005(8)
Co1_3 Co 1.09326(10) 0.06915(8) 1.42005(8)
Co1A_2 Co -1.09326(10) -0.06915(8) -0.42005(8)
Co1A_3 Co -0.09326(10) -0.06915(8) -0.42005(8)
Co2A Co -0.35223(10) -0.43376(8) 0.49914(8)
Co2_2 Co -0.64777(10) -0.56624(8) -0.49914(8)
Co2_3 Co 0.35223(10) 0.43376(8) 1.50086(8)
Co2A_2 Co -0.35223(10) -0.43376(8) -0.50086(8)
Co2A_3 Co -0.35223(10) 0.56624(8) -0.50086(8)
Co2A_4 Co 0.64777(10) 0.56624(8) 1.49914(8)
N1A N -0.2521(6) -0.0085(5) 0.4967(5)
N2A N -0.4543(6) -0.0227(5) 0.3826(5)
N3A N -0.7635(6) -0.1659(6) -0.2242(5)
N4A N -0.9413(6) -0.1439(5) -0.3395(5)
N4_2 N -0.0587(6) 0.1439(5) 0.3395(5)
N4A_2 N 0.0587(6) -0.1439(5) 0.6605(5)
N5A N -0.2419(6) 0.4791(5) -0.4134(5)
N5A_2 N -0.2419(6) -0.5209(5) 0.5866(5)
N6A N -0.1673(7) 0.3797(5) -0.3006(5)
O1A O -0.2308(6) -0.4260(4) 0.4025(4)
O2A O -0.4123(6) -0.3629(4) 0.3485(4)
O3A O -0.1225(5) -0.1816(4) 0.4387(4)
O4A O -0.0306(6) -0.0840(4) 0.3489(4)
O5A O -0.1722(5) -0.0922(4) -0.3052(4)
O5_2 O 0.1722(5) 0.0922(4) 0.3052(4)
O5A_2 O -0.1722(5) -0.0922(4) 0.6948(4)
O6A O -0.2748(5) -0.2601(4) -0.4208(4)
O6_2 O 0.2748(5) 0.2601(4) 0.4208(4)
O6A_2 O -0.2748(5) -0.2601(4) 0.5792(4)
O7A O -0.5745(6) -0.3252(5) -0.3146(5)
O8A O -0.4804(5) -0.4330(4) -0.4092(4)
O8_2 O -0.5196(5) -0.5670(4) 0.4092(4)
O8_3 O 0.4804(5) 0.4330(4) 0.4092(4)
O8A_2 O -0.4804(5) -0.4330(4) 0.5908(4)
O8A_3 O 0.5196(5) 0.5670(4) 0.5908(4)
C1A C -0.3059(9) -0.3803(6) 0.3402(6)
C2A C -0.2693(7) -0.3605(5) 0.2481(6)
C3A C -0.3294(7) -0.4415(6) 0.1473(6)
H1A H -0.3838 -0.5105 0.1428
C4A C -0.3142(8) -0.4267(6) 0.0556(6)
H2A H -0.3530 -0.4866 -0.0084
C5A C -0.2403(7) -0.3216(6) 0.0554(6)
C6A C -0.1748(7) -0.2403(6) 0.1554(6)
H3A H -0.1213 -0.1711 0.1594
C7A C -0.1873(7) -0.2599(6) 0.2507(5)
C8A C -0.1091(7) -0.1670(6) 0.3539(6)
C9A C -0.2303(7) -0.1939(6) -0.3272(6)
C10A C -0.2363(7) -0.2341(6) -0.2340(6)
C11A C -0.1262(8) -0.1903(6) -0.1377(6)
H4A H -0.0522 -0.1382 -0.1356
C12A C -0.1236(8) -0.2220(6) -0.0452(6)
H5A H -0.0469 -0.1936 0.0167
C13A C -0.2348(7) -0.2962(6) -0.0433(6)
C14A C -0.3434(8) -0.3369(6) -0.1386(6)
H6A H -0.4191 -0.3853 -0.1389
C15A C -0.3479(7) -0.3113(6) -0.2328(5)
C16A C -0.4774(7) -0.3566(6) -0.3251(6)
C17A C -0.3702(8) -0.0759(6) 0.4356(6)
H7A H -0.3928 -0.1541 0.4299
C18A C -0.3856(9) 0.0919(7) 0.4116(7)
H8A H -0.4174 0.1519 0.3887
C19A C -0.2647(9) 0.0966(7) 0.4790(7)
H9A H -0.1961 0.1634 0.5108
C20A C -0.5908(9) -0.0766(7) 0.3085(7)
H10A H -0.6206 -0.1491 0.3218
H11A H -0.6490 -0.0271 0.3235
C21A C -0.6053(8) -0.0994(7) 0.1905(7)
C22A C -0.5309(9) -0.1641(7) 0.1484(7)
H12A H -0.4709 -0.1963 0.1917
C23A C -0.5465(9) -0.1809(7) 0.0394(7)
H13A H -0.4984 -0.2273 0.0099
C24A C -0.6323(8) -0.1304(7) -0.0276(6)
C25A C -0.7089(8) -0.0664(7) 0.0145(7)
H14A H -0.7682 -0.0333 -0.0283
C26A C -0.6950(8) -0.0523(7) 0.1241(6)
H15A H -0.7472 -0.0103 0.1530
C27A C -0.6320(8) -0.1386(7) -0.1410(6)
H16A H -0.5854 -0.1971 -0.1604
H17A H -0.5813 -0.0655 -0.1404
C28A C -0.8278(8) -0.0941(7) -0.2572(6)
H18A H -0.7978 -0.0147 -0.2265
C29A C -0.9496(9) -0.2528(7) -0.3589(7)
H19A H -1.0188 -0.3098 -0.4137
C30A C -0.8394(9) -0.2721(7) -0.2858(7)
H20A H -0.8215 -0.3428 -0.2802
C31A C -0.2626(8) 0.4335(6) -0.3356(6)
H21A H -0.3333 0.4391 -0.3104
C32A C -0.1299(8) 0.4465(7) -0.4238(7)
H22A H -0.0922 0.4630 -0.4738
C33A C -0.0803(9) 0.3880(7) -0.3542(8)
H23A H -0.0035 0.3595 -0.3449
C34A C -0.1513(10) 0.3409(7) -0.2086(7)
H24A H -0.2399 0.3108 -0.2084
H25A H -0.1086 0.2768 -0.2161
C35A C 0.0131(10) 0.5194(7) -0.0900(7)
H26A H 0.0258 0.5342 -0.1512
C36A C -0.0734(9) 0.4246(7) -0.1015(8)
C37A C -0.0854(9) 0.4028(7) -0.0100(8)
H27A H -0.1426 0.3351 -0.0150
loop_
_geom_bond_atom_site_label_1
_geom_bond_atom_site_label_2
_geom_bond_site_symmetry_1
_geom_bond_site_symmetry_2
Co1 N1 1_555 1_555
Co2 N5 1_555 1_555
N1 C17 1_555 1_555
N2 C17 1_555 1_555
N3 C27 1_555 1_555
N4 C28 1_555 1_555
N5 C31 1_555 1_555
N6 C31 1_555 1_555
O1 Co2 1_555 1_555
O2 Co2 1_555 1_555
O3 Co1 1_555 1_555
O4 C8 1_555 1_555
O5 C9 1_555 1_555
O6 C9 1_555 1_555
O7 C16 1_555 1_555
O8 C16 1_555 1_555
C1 O1 1_555 1_555
C2 C1 1_555 1_555
C3 C2 1_555 1_555
H1 C3 1_555 1_555
C4 C3 1_555 1_555
H2 C4 1_555 1_555
C5 C4 1_555 1_555
C6 C5 1_555 1_555
H3 C6 1_555 1_555
C7 C2 1_555 1_555
C8 O3 1_555 1_555
C9 C10 1_555 1_555
C10 C11 1_555 1_555
C11 H4 1_555 1_555
C12 C11 1_555 1_555
H5 C12 1_555 1_555
C13 C5 1_555 1_555
C14 C13 1_555 1_555
H6 C14 1_555 1_555
C15 C10 1_555 1_555
C16 C15 1_555 1_555
C17 H7 1_555 1_555
C18 N2 1_555 1_555
H8 C18 1_555 1_555
C19 N1 1_555 1_555
H9 C19 1_555 1_555
C20 N2 1_555 1_555
H10 C20 1_555 1_555
H11 C20 1_555 1_555
C21 C20 1_555 1_555
C22 C21 1_555 1_555
H12 C22 1_555 1_555
C23 C22 1_555 1_555
H13 C23 1_555 1_555
C24 C23 1_555 1_555
C25 C24 1_555 1_555
H14 C25 1_555 1_555
C26 C21 1_555 1_555
H15 C26 1_555 1_555
C27 C24 1_555 1_555
H16 C27 1_555 1_555
H17 C27 1_555 1_555
C28 N3 1_555 1_555
H18 C28 1_555 1_555
C29 N4 1_555 1_555
H19 C29 1_555 1_555
C30 N3 1_555 1_555
H20 C30 1_555 1_555
C31 H21 1_555 1_555
C32 N5 1_555 1_555
H22 C32 1_555 1_555
C33 N6 1_555 1_555
H23 C33 1_555 1_555
C34 N6 1_555 1_555
H24 C34 1_555 1_555
H25 C34 1_555 1_555
C35 H26 1_555 1_555
C36 C34 1_555 1_555
C37 C36 1_555 1_555
H27 C37 1_555 1_555
Co1A O4 1_555 1_555
Co1_2 O5 1_555 1_555
Co1_3 N4 1_555 1_555
Co1A_2 N4A 1_555 1_555
Co1A_3 O5A 1_555 1_555
Co2A N5A_2 1_555 1_555
Co2_2 O8A 1_555 1_555
Co2_3 O6 1_555 1_555
Co2A_2 O6A 1_555 1_555
Co2A_3 N5A 1_555 1_555
Co2A_4 O8 1_555 1_555
N1A Co1A 1_555 1_555
N2A C17A 1_555 1_555
N3A C27A 1_555 1_555
N4A C28A 1_555 1_555
N4_2 Co1 1_555 1_555
N4A_2 Co1A 1_555 1_555
N5A C31A 1_555 1_555
N6A C31A 1_555 1_555
O1A Co2A 1_555 1_555
O2A Co2A 1_555 1_555
O3A Co1A 1_555 1_555
O4A Co1 1_555 1_555
O5A C9A 1_555 1_555
O5_2 Co1 1_555 1_555
O5A_2 Co1A 1_555 1_555
O6A C9A 1_555 1_555
O6_2 Co2 1_555 1_555
O6A_2 Co2A 1_555 1_555
O7A C16A 1_555 1_555
O8A Co2A_2 1_555 1_555
O8_2 Co2A 1_555 1_555
O8_3 Co2 1_555 1_555
O8A_2 Co2A 1_555 1_555
O8A_3 Co2 1_555 1_555
C1A O1A 1_555 1_555
C2A C1A 1_555 1_555
C3A C2A 1_555 1_555
H1A C3A 1_555 1_555
C4A C3A 1_555 1_555
H2A C4A 1_555 1_555
C5A C4A 1_555 1_555
C6A C5A 1_555 1_555
H3A C6A 1_555 1_555
C7A C2A 1_555 1_555
C8A O3A 1_555 1_555
C9A C10A 1_555 1_555
C10A C11A 1_555 1_555
C11A H4A 1_555 1_555
C12A C11A 1_555 1_555
H5A C12A 1_555 1_555
C13A C5A 1_555 1_555
C14A C13A 1_555 1_555
H6A C14A 1_555 1_555
C15A C10A 1_555 1_555
C16A O8A 1_555 1_555
C17A N1A 1_555 1_555
H7A C17A 1_555 1_555
C18A N2A 1_555 1_555
H8A C18A 1_555 1_555
C19A N1A 1_555 1_555
H9A C19A 1_555 1_555
C20A N2A 1_555 1_555
H10A C20A 1_555 1_555
H11A C20A 1_555 1_555
C21A C20A 1_555 1_555
C22A C21A 1_555 1_555
H12A C22A 1_555 1_555
C23A C22A 1_555 1_555
H13A C23A 1_555 1_555
C24A C23A 1_555 1_555
C25A C24A 1_555 1_555
H14A C25A 1_555 1_555
C26A C21A 1_555 1_555
H15A C26A 1_555 1_555
C27A C24A 1_555 1_555
H16A C27A 1_555 1_555
H17A C27A 1_555 1_555
C28A N3A 1_555 1_555
H18A C28A 1_555 1_555
C29A N4A 1_555 1_555
H19A C29A 1_555 1_555
C30A N3A 1_555 1_555
H20A C30A 1_555 1_555
C31A H21A 1_555 1_555
C32A N5A 1_555 1_555
H22A C32A 1_555 1_555
C33A N6A 1_555 1_555
H23A C33A 1_555 1_555
C34A N6A 1_555 1_555
H24A C34A 1_555 1_555
H25A C34A 1_555 1_555
C35A C37 1_555 1_555
H26A C35A 1_555 1_555
C36A C34A 1_555 1_555
C37A C35 1_555 1_555
H27A C37A 1_555 1_555
O2 C1 1_555 1_555
O8 Co2_3 1_555 1_555
C6 C7 1_555 1_555
C7 C8 1_555 1_555
C12 C13 1_555 1_555
C14 C15 1_555 1_555
C18 C19 1_555 1_555
C25 C26 1_555 1_555
C29 C30 1_555 1_555
C32 C33 1_555 1_555
C35 C36 1_555 1_555
O2A C1A 1_555 1_555
O4A C8A 1_555 1_555
C6A C7A 1_555 1_555
C7A C8A 1_555 1_555
C12A C13A 1_555 1_555
C14A C15A 1_555 1_555
C15A C16A 1_555 1_555
C18A C19A 1_555 1_555
C25A C26A 1_555 1_555
C29A C30A 1_555 1_555
C32A C33A 1_555 1_555
C35A C36A 1_555 1_555
C36A C37A 1_555 1_555

#END
