
#######################################################################
#
#                 Cambridge Crystallographic Data Centre
#                                CCDC 
#
#######################################################################
#
# If this CIF has been generated from an entry in the Cambridge 
# Structural Database, then it will include bibliographic, chemical, 
# crystal, experimental, refinement or atomic coordinate data resulting 
# from the CCDC's data processing and validation procedures.
#
#######################################################################

data_NURQAT
_symmetry_cell_setting           monoclinic
_symmetry_space_group_name_H-M   'C 2/c'
_symmetry_Int_Tables_number      15
_space_group_name_Hall           '-C 2yn'
loop_
_symmetry_equiv_pos_site_id
_symmetry_equiv_pos_as_xyz
1 x,y,z
2 -x,y,1/2-z
3 1/2+x,1/2+y,z
4 1/2-x,1/2+y,1/2-z
5 -x,-y,-z
6 x,-y,1/2+z
7 1/2-x,1/2-y,-z
8 1/2+x,1/2-y,1/2+z
_cell_length_a                   52.421(10)
_cell_length_b                   7.5388(15)
_cell_length_c                   16.478(3)
_cell_angle_alpha                90
_cell_angle_beta                 106.12(3)
_cell_angle_gamma                90
_cell_volume                     6255.93
loop_
_atom_site_label
_atom_site_type_symbol
_atom_site_fract_x
_atom_site_fract_y
_atom_site_fract_z
Mn1 Mn 0.757881(14) 0.03765(13) 0.47873(5)
O1 O 0.79328(7) 0.1309(6) 0.4415(3)
O2 O 0.75385(8) -0.1341(7) 0.3701(3)
H1 H 0.7415 -0.2058 0.3694
H2 H 0.7587 -0.1398 0.3257
O3 O 0.78971(7) 0.3304(7) 0.3384(3)
H3 H 0.7741 0.3310 0.3382
O4 O 0.99873(7) 0.2438(7) 0.4861(3)
H4 H 1.0017 0.2313 0.4402
O5 O 0.77904(6) -0.1536(6) 0.5673(2)
O6 O 0.98772(7) -0.2227(8) 0.6666(3)
H5 H 0.9917 -0.2158 0.6219
O7 O 0.73888(7) 0.3379(7) 0.2896(2)
O8 O 0.73630(6) 0.2719(5) 0.4178(2)
O9 O 0.52804(7) 0.2536(7) 0.1519(3)
H6 H 0.5224 0.2847 0.1024
C1 C 0.83216(9) 0.2334(9) 0.4108(4)
C2 C 0.84889(10) 0.1417(9) 0.4769(4)
H7 H 0.8418 0.0752 0.5129
C3 C 0.87604(10) 0.1474(9) 0.4901(4)
H8 H 0.8869 0.0837 0.5348
C4 C 0.88757(10) 0.2466(9) 0.4381(4)
C5 C 0.87052(10) 0.3372(9) 0.3711(4)
H9 H 0.8775 0.4026 0.3345
C6 C 0.84330(10) 0.3315(9) 0.3579(4)
H10 H 0.8323 0.3942 0.3130
C7 C 0.91684(10) 0.2495(8) 0.4517(4)
C8 C 0.93435(10) 0.1906(9) 0.5268(4)
H11 H 0.9277 0.1518 0.5704
C9 C 0.96135(10) 0.1886(10) 0.5377(4)
H12 H 0.9726 0.1480 0.5883
C10 C 0.97174(10) 0.2458(10) 0.4749(4)
C11 C 0.95501(10) 0.3093(10) 0.4017(4)
H13 H 0.9620 0.3526 0.3595
C12 C 0.92791(10) 0.3100(10) 0.3898(4)
H14 H 0.9169 0.3519 0.3391
C13 C 0.80308(10) 0.2275(9) 0.3986(4)
C14 C 0.82035(9) -0.2725(8) 0.5642(3)
C15 C 0.83538(9) -0.1921(9) 0.6363(4)
H15 H 0.8271 -0.1405 0.6734
C16 C 0.86274(10) -0.1867(9) 0.6544(4)
H16 H 0.8726 -0.1340 0.7043
C17 C 0.87583(9) -0.2581(8) 0.5998(3)
C18 C 0.86030(10) -0.3376(9) 0.5255(4)
H17 H 0.8684 -0.3845 0.4868
C19 C 0.83299(10) -0.3468(9) 0.5093(4)
H18 H 0.8230 -0.4038 0.4608
C20 C 0.90541(10) -0.2496(8) 0.6182(3)
C21 C 0.92059(10) -0.1414(9) 0.6818(4)
H19 H 0.9123 -0.0740 0.7142
C22 C 0.94800(10) -0.1323(10) 0.6975(4)
H20 H 0.9579 -0.0588 0.7400
C23 C 0.96030(10) -0.2330(10) 0.6498(4)
C24 C 0.94597(11) -0.3392(10) 0.5870(4)
H21 H 0.9545 -0.4056 0.5548
C25 C 0.91867(10) -0.3484(9) 0.5710(4)
H22 H 0.9090 -0.4218 0.5281
O10 O 0.77971(6) -0.4274(6) 0.5148(3)
C26 C 0.69645(9) 0.2789(9) 0.3072(3)
C27 C 0.68278(10) 0.3308(9) 0.2256(4)
H23 H 0.6921 0.3725 0.1890
C28 C 0.65527(10) 0.3205(9) 0.1988(4)
H24 H 0.6465 0.3588 0.1446
C29 C 0.64051(9) 0.2554(8) 0.2498(3)
C30 C 0.65471(10) 0.1966(9) 0.3295(4)
H25 H 0.6456 0.1464 0.3649
C31 C 0.68202(9) 0.2110(9) 0.3572(4)
H26 H 0.6908 0.1733 0.4115
C32 C 0.61110(9) 0.2509(8) 0.2232(4)
C33 C 0.59633(10) 0.3248(9) 0.1473(4)
H27 H 0.6052 0.3753 0.1113
C34 C 0.56885(10) 0.3253(10) 0.1238(4)
H28 H 0.5595 0.3768 0.0729
C35 C 0.55541(10) 0.2509(10) 0.1748(4)
C36 C 0.56912(10) 0.1737(10) 0.2501(4)
H29 H 0.5600 0.1226 0.2852
C37 C 0.59654(10) 0.1731(9) 0.2727(4)
H30 H 0.6056 0.1186 0.3231
C38 C 0.72550(10) 0.3000(9) 0.3381(4)
C39 C 0.79099(10) -0.2868(9) 0.5466(3)
Mn1F Mn 0.742119(14) -0.53765(13) 0.52127(5)
Mn1F_2 Mn 0.742119(14) 0.46235(13) 0.52127(5)
Mn1_2 Mn 0.757881(14) -0.96235(13) 0.47873(5)
O1F O 0.70672(7) -0.6309(6) 0.5585(3)
O2F O 0.74615(8) -0.3659(7) 0.6299(3)
H1F H 0.7585 -0.2942 0.6306
H2F H 0.7413 -0.3602 0.6743
O3F O 0.71029(7) -0.8304(7) 0.6616(3)
H3F H 0.7259 -0.8310 0.6618
O4F O 0.50127(7) -0.7438(7) 0.5139(3)
H4F H 0.4983 -0.7313 0.5598
O5F O 0.72096(6) -0.3464(6) 0.4327(2)
O6F O 0.51228(7) -0.2773(8) 0.3334(3)
H5F H 0.5083 -0.2842 0.3781
O7F O 0.76112(7) -0.8379(7) 0.7104(2)
O8F O 0.76370(6) 0.2281(5) 0.5822(2)
O8F_2 O 0.76370(6) -0.7719(5) 0.5822(2)
O8_2 O 0.73630(6) -0.7281(5) 0.4178(2)
O9F O 0.97196(7) -0.7536(7) 0.8481(3)
H6F H 0.9776 -0.7847 0.8976
C1F C 0.66784(9) -0.7334(9) 0.5892(4)
C2F C 0.65111(10) -0.6417(9) 0.5231(4)
H7F H 0.6582 -0.5752 0.4871
C3F C 0.62396(10) -0.6474(9) 0.5099(4)
H8F H 0.6131 -0.5837 0.4652
C4F C 0.61243(10) -0.7466(9) 0.5619(4)
C5F C 0.62948(10) -0.8372(9) 0.6289(4)
H9F H 0.6225 -0.9026 0.6655
C6F C 0.65670(10) -0.8315(9) 0.6421(4)
H10F H 0.6677 -0.8942 0.6870
C7F C 0.58316(10) -0.7495(8) 0.5483(4)
C8F C 0.56565(10) -0.6906(9) 0.4732(4)
H11F H 0.5723 -0.6518 0.4296
C9F C 0.53865(10) -0.6886(10) 0.4623(4)
H12F H 0.5274 -0.6480 0.4117
C10F C 0.52826(10) -0.7458(10) 0.5251(4)
C11F C 0.54499(10) -0.8093(10) 0.5983(4)
H13F H 0.5380 -0.8526 0.6405
C12F C 0.57209(10) -0.8100(10) 0.6102(4)
H14F H 0.5831 -0.8519 0.6609
C13F C 0.69692(10) -0.7275(9) 0.6014(4)
C14F C 0.67965(9) -0.2275(8) 0.4358(3)
C15F C 0.66462(9) -0.3079(9) 0.3637(4)
H15F H 0.6729 -0.3595 0.3266
C16F C 0.63726(10) -0.3133(9) 0.3456(4)
H16F H 0.6274 -0.3660 0.2957
C17F C 0.62417(9) -0.2419(8) 0.4002(3)
C18F C 0.63970(10) -0.1624(9) 0.4745(4)
H17F H 0.6316 -0.1155 0.5132
C19F C 0.66701(10) -0.1532(9) 0.4907(4)
H18F H 0.6770 -0.0962 0.5392
C20F C 0.59459(10) -0.2504(8) 0.3818(3)
C21F C 0.57941(10) -0.3586(9) 0.3182(4)
H19F H 0.5877 -0.4260 0.2858
C22F C 0.55200(10) -0.3677(10) 0.3025(4)
H20F H 0.5421 -0.4412 0.2600
C23F C 0.53970(10) -0.2670(10) 0.3502(4)
C24F C 0.55403(11) -0.1608(10) 0.4130(4)
H21F H 0.5455 -0.0944 0.4452
C25F C 0.58133(10) -0.1516(9) 0.4290(4)
H22F H 0.5910 -0.0782 0.4719
O10F O 0.72029(6) -0.0726(6) 0.4852(3)
C26F C 0.80355(9) -0.7789(9) 0.6928(3)
C27F C 0.81722(10) -0.8308(9) 0.7744(4)
H23F H 0.8079 -0.8725 0.8110
C28F C 0.84473(10) -0.8205(9) 0.8012(4)
H24F H 0.8535 -0.8588 0.8554
C29F C 0.85949(9) -0.7554(8) 0.7502(3)
C30F C 0.84529(10) -0.6966(9) 0.6705(4)
H25F H 0.8544 -0.6464 0.6351
C31F C 0.81798(9) -0.7110(9) 0.6428(4)
H26F H 0.8092 -0.6733 0.5885
C32F C 0.88890(9) -0.7509(8) 0.7768(4)
C33F C 0.90367(10) -0.8248(9) 0.8527(4)
H27F H 0.8948 -0.8753 0.8887
C34F C 0.93115(10) -0.8253(10) 0.8762(4)
H28F H 0.9405 -0.8768 0.9271
C35F C 0.94459(10) -0.7509(10) 0.8252(4)
C36F C 0.93088(10) -0.6737(10) 0.7499(4)
H29F H 0.9400 -0.6226 0.7148
C37F C 0.90346(10) -0.6731(9) 0.7273(4)
H30F H 0.8944 -0.6186 0.6769
C38F C 0.77450(10) -0.8000(9) 0.6619(4)
C39F C 0.70901(10) -0.2132(9) 0.4534(3)
O11 O 1.0000 0.3909(13) 0.7500
H31 H 0.9922 0.3204 0.7745
H31A H 1.0078 0.3204 0.7255
loop_
_geom_bond_atom_site_label_1
_geom_bond_atom_site_label_2
_geom_bond_site_symmetry_1
_geom_bond_site_symmetry_2
Mn1 O1 1_555 1_555
O1 C13 1_555 1_555
O2 Mn1 1_555 1_555
H1 O2 1_555 1_555
H2 O2 1_555 1_555
O3 H3 1_555 1_555
O4 H4 1_555 1_555
O5 Mn1 1_555 1_555
O6 H5 1_555 1_555
O7 C38 1_555 1_555
O8 Mn1 1_555 1_555
O9 H6 1_555 1_555
C1 C2 1_555 1_555
C2 H7 1_555 1_555
C3 C2 1_555 1_555
H8 C3 1_555 1_555
C4 C3 1_555 1_555
C5 C4 1_555 1_555
H9 C5 1_555 1_555
C6 C1 1_555 1_555
H10 C6 1_555 1_555
C7 C4 1_555 1_555
C8 C7 1_555 1_555
H11 C8 1_555 1_555
C9 C8 1_555 1_555
H12 C9 1_555 1_555
C10 O4 1_555 1_555
C11 C10 1_555 1_555
H13 C11 1_555 1_555
C12 C7 1_555 1_555
H14 C12 1_555 1_555
C13 O3 1_555 1_555
C14 C15 1_555 1_555
C15 H15 1_555 1_555
C16 C15 1_555 1_555
H16 C16 1_555 1_555
C17 C16 1_555 1_555
C18 C17 1_555 1_555
H17 C18 1_555 1_555
C19 C14 1_555 1_555
H18 C19 1_555 1_555
C20 C17 1_555 1_555
C21 C20 1_555 1_555
H19 C21 1_555 1_555
C22 C21 1_555 1_555
H20 C22 1_555 1_555
C23 O6 1_555 1_555
C24 C23 1_555 1_555
H21 C24 1_555 1_555
C25 C20 1_555 1_555
H22 C25 1_555 1_555
O10 C39 1_555 1_555
C26 C27 1_555 1_555
C27 H23 1_555 1_555
C28 C27 1_555 1_555
H24 C28 1_555 1_555
C29 C28 1_555 1_555
C30 C29 1_555 1_555
H25 C30 1_555 1_555
C31 C26 1_555 1_555
H26 C31 1_555 1_555
C32 C29 1_555 1_555
C33 C32 1_555 1_555
H27 C33 1_555 1_555
C34 C33 1_555 1_555
H28 C34 1_555 1_555
C35 O9 1_555 1_555
C36 C35 1_555 1_555
H29 C36 1_555 1_555
C37 C32 1_555 1_555
H30 C37 1_555 1_555
C38 O8 1_555 1_555
O11 H31 1_555 1_555
C39 O5 1_555 1_555
Mn1F O10 1_555 1_555
Mn1F_2 O8 1_555 1_555
Mn1_2 O8F_2 1_555 1_555
O1F Mn1F 1_555 1_555
O2F Mn1F 1_555 1_555
H1F O2F 1_555 1_555
H2F O2F 1_555 1_555
O3F H3F 1_555 1_555
O4F H4F 1_555 1_555
O5F Mn1F 1_555 1_555
O6F H5F 1_555 1_555
O7F C38F 1_555 1_555
O8F Mn1 1_555 1_555
O8F_2 Mn1F 1_555 1_555
O8_2 Mn1F 1_555 1_555
O9F H6F 1_555 1_555
C1F C2F 1_555 1_555
C2F H7F 1_555 1_555
C3F C2F 1_555 1_555
H8F C3F 1_555 1_555
C4F C3F 1_555 1_555
C5F C4F 1_555 1_555
H9F C5F 1_555 1_555
C6F C1F 1_555 1_555
H10F C6F 1_555 1_555
C7F C4F 1_555 1_555
C8F C7F 1_555 1_555
H11F C8F 1_555 1_555
C9F C8F 1_555 1_555
H12F C9F 1_555 1_555
C10F O4F 1_555 1_555
C11F C10F 1_555 1_555
H13F C11F 1_555 1_555
C12F C7F 1_555 1_555
H14F C12F 1_555 1_555
C13F O1F 1_555 1_555
C14F C15F 1_555 1_555
C15F H15F 1_555 1_555
C16F C15F 1_555 1_555
H16F C16F 1_555 1_555
C17F C16F 1_555 1_555
C18F C17F 1_555 1_555
H17F C18F 1_555 1_555
C19F C14F 1_555 1_555
H18F C19F 1_555 1_555
C20F C17F 1_555 1_555
C21F C20F 1_555 1_555
H19F C21F 1_555 1_555
C22F C21F 1_555 1_555
H20F C22F 1_555 1_555
C23F O6F 1_555 1_555
C24F C23F 1_555 1_555
H21F C24F 1_555 1_555
C25F C20F 1_555 1_555
H22F C25F 1_555 1_555
O10F Mn1 1_555 1_555
C26F C27F 1_555 1_555
C27F H23F 1_555 1_555
C28F C27F 1_555 1_555
H24F C28F 1_555 1_555
C29F C28F 1_555 1_555
C30F C29F 1_555 1_555
H25F C30F 1_555 1_555
C31F C26F 1_555 1_555
H26F C31F 1_555 1_555
C32F C29F 1_555 1_555
C33F C32F 1_555 1_555
H27F C33F 1_555 1_555
C34F C33F 1_555 1_555
H28F C34F 1_555 1_555
C35F O9F 1_555 1_555
C36F C35F 1_555 1_555
H29F C36F 1_555 1_555
C37F C32F 1_555 1_555
H30F C37F 1_555 1_555
C38F O8F_2 1_555 1_555
H31A O11 1_555 1_555
C39F O5F 1_555 1_555
C1 C13 1_555 1_555
C5 C6 1_555 1_555
C9 C10 1_555 1_555
C11 C12 1_555 1_555
C14 C39 1_555 1_555
C18 C19 1_555 1_555
C22 C23 1_555 1_555
C24 C25 1_555 1_555
C26 C38 1_555 1_555
C30 C31 1_555 1_555
C34 C35 1_555 1_555
C36 C37 1_555 1_555
Mn1F_2 O8F 1_555 1_555
Mn1_2 O8_2 1_555 1_555
O3F C13F 1_555 1_555
C1F C13F 1_555 1_555
C5F C6F 1_555 1_555
C9F C10F 1_555 1_555
C11F C12F 1_555 1_555
C14F C39F 1_555 1_555
C18F C19F 1_555 1_555
C22F C23F 1_555 1_555
C24F C25F 1_555 1_555
O10F C39F 1_555 1_555
C26F C38F 1_555 1_555
C30F C31F 1_555 1_555
C34F C35F 1_555 1_555
C36F C37F 1_555 1_555

#END
