
#######################################################################
#
#                 Cambridge Crystallographic Data Centre
#                                CCDC 
#
#######################################################################
#
# If this CIF has been generated from an entry in the Cambridge 
# Structural Database, then it will include bibliographic, chemical, 
# crystal, experimental, refinement or atomic coordinate data resulting 
# from the CCDC's data processing and validation procedures.
#
#######################################################################

data_NURXOO
_symmetry_cell_setting           triclinic
_symmetry_space_group_name_H-M   'P -1'
_symmetry_Int_Tables_number      2
_space_group_name_Hall           '-P 1'
loop_
_symmetry_equiv_pos_site_id
_symmetry_equiv_pos_as_xyz
1 x,y,z
2 -x,-y,-z
_cell_length_a                   7.3124(4)
_cell_length_b                   12.3476(7)
_cell_length_c                   15.8104(9)
_cell_angle_alpha                89.9800(10)
_cell_angle_beta                 78.7500(10)
_cell_angle_gamma                79.6570(10)
_cell_volume                     1376.46
loop_
_atom_site_label
_atom_site_type_symbol
_atom_site_fract_x
_atom_site_fract_y
_atom_site_fract_z
C1 C 0.2555(5) 0.4305(2) 0.34863(19)
C2 C 0.3797(5) 0.4677(3) 0.3938(2)
H1 H 0.5036 0.4258 0.3899
C3 C 0.3272(6) 0.5641(3) 0.4440(2)
H2 H 0.4161 0.5873 0.4731
C4 C 0.1470(6) 0.6275(3) 0.4526(2)
H3 H 0.1106 0.6927 0.4884
C5 C 0.0226(6) 0.5934(3) 0.4080(2)
H4 H -0.1003 0.6368 0.4125
C6 C 0.0716(5) 0.4960(2) 0.35570(19)
C7 C -0.0665(5) 0.4715(2) 0.3087(2)
H5 H -0.1819 0.5230 0.3149
C8 C -0.1970(4) 0.3761(3) 0.2111(2)
H6 H -0.1608 0.3984 0.1508
H7 H -0.3181 0.4238 0.2384
C9 C -0.2180(4) 0.2565(3) 0.2128(2)
H8 H -0.2792 0.2383 0.2713
H9 H -0.2969 0.2414 0.1715
C10 C -0.0019(4) 0.1001(2) 0.14509(19)
H10 H -0.1107 0.0813 0.1286
C11 C 0.1750(4) 0.0240(2) 0.11883(19)
C12 C 0.1727(5) -0.0681(3) 0.0662(2)
H11 H 0.0558 -0.0784 0.0527
C13 C 0.3346(5) -0.1433(3) 0.0340(2)
H12 H 0.3314 -0.2037 -0.0026
C14 C 0.5039(5) -0.1281(3) 0.0567(2)
H13 H 0.6174 -0.1790 0.0350
C15 C 0.5096(4) -0.0411(2) 0.10983(19)
H14 H 0.6265 -0.0343 0.1251
C16 C 0.3466(4) 0.0380(2) 0.14216(18)
C17 C 0.0687(4) 0.1098(2) 0.40602(19)
C18 C 0.5388(5) -0.1922(3) 0.5138(3)
H15 H 0.5425 -0.2284 0.4582
H16 H 0.5331 -0.2465 0.5591
H17 H 0.6532 -0.1603 0.5108
C19 C 0.3684(4) -0.1035(3) 0.5343(2)
C20 C 0.3354(5) -0.0405(3) 0.6110(2)
H18 H 0.4156 -0.0632 0.6508
C21 C 0.1956(5) 0.0525(3) 0.6341(2)
C22 C 0.1934(6) 0.1231(3) 0.7121(2)
H19 H 0.0866 0.1850 0.7186
H20 H 0.3124 0.1512 0.7049
H21 H 0.1799 0.0789 0.7637
C23 C 0.3721(4) 0.3910(2) 0.07968(18)
C24 C 0.4149(5) 0.6871(3) 0.2377(2)
H22 H 0.5519 0.6723 0.2357
H23 H 0.3499 0.6573 0.2903
H24 H 0.3699 0.7668 0.2378
C25 C 0.3734(4) 0.6333(2) 0.16002(18)
C26 C 0.1853(4) 0.6442(2) 0.1499(2)
H25 H 0.0886 0.6652 0.1996
C27 C 0.1284(4) 0.6268(2) 0.0730(2)
C28 C -0.0736(5) 0.6623(3) 0.0654(2)
H26 H -0.0882 0.6437 0.0072
H27 H -0.1110 0.7420 0.0765
H28 H -0.1544 0.6243 0.1077
Fe1 Fe 0.18902(6) 0.25227(3) 0.23784(3)
N1 N -0.0481(4) 0.3862(2) 0.25927(16)
N2 N -0.0252(3) 0.1904(2) 0.18840(16)
N3 N 0.0962(4) 0.1710(2) 0.35215(16)
N4 N 0.2929(4) 0.3342(2) 0.12464(15)
O1 O 0.3131(3) 0.33747(16) 0.30169(13)
O2 O 0.3614(3) 0.12113(16) 0.19148(13)
O3 O 0.0657(3) 0.08966(17) 0.59191(13)
O4 O 0.2638(3) -0.08982(17) 0.47735(14)
O5 O 0.2395(3) 0.58662(16) 0.00236(13)
O6 O 0.5173(3) 0.58672(16) 0.10529(12)
Ru1 Ru 0.0000 0.0000 0.5000
Ru2 Ru 0.5000 0.5000 0.0000
C1A C -0.2555(5) -0.4305(2) 0.65137(19)
C2A C -0.3797(5) -0.4677(3) 0.6062(2)
H1A H -0.5036 -0.4258 0.6101
C3A C -0.3272(6) -0.5641(3) 0.5560(2)
H2A H -0.4161 -0.5873 0.5269
C4A C -0.1470(6) -0.6275(3) 0.5474(2)
H3A H -0.1106 -0.6927 0.5116
C5A C -0.0226(6) -0.5934(3) 0.5920(2)
H4A H 0.1003 -0.6368 0.5875
C6A C -0.0716(5) -0.4960(2) 0.64430(19)
C7A C 0.0665(5) -0.4715(2) 0.6913(2)
H5A H 0.1819 -0.5230 0.6851
C8A C 0.1970(4) -0.3761(3) 0.7889(2)
H6A H 0.1608 -0.3984 0.8492
H7A H 0.3181 -0.4238 0.7616
C9A C 0.2180(4) -0.2565(3) 0.7872(2)
H8A H 0.2792 -0.2383 0.7287
H9A H 0.2969 -0.2414 0.8285
C10A C 0.0019(4) -0.1001(2) 0.85491(19)
H10A H 0.1107 -0.0813 0.8714
C11A C -0.1750(4) -0.0240(2) 0.88117(19)
C12A C -0.1727(5) 0.0681(3) 0.9338(2)
H11A H -0.0558 0.0784 0.9473
C13A C -0.3346(5) 0.1433(3) 0.9660(2)
H12A H -0.3314 0.2037 1.0026
C14A C -0.5039(5) 0.1281(3) 0.9433(2)
H13A H -0.6174 0.1790 0.9650
C15A C -0.5096(4) 0.0411(2) 0.89017(19)
H14A H -0.6265 0.0343 0.8749
C16A C -0.3466(4) -0.0380(2) 0.85784(18)
C17A C -0.0687(4) -0.1098(2) 0.59398(19)
C18A C -0.5388(5) 0.1922(3) 0.4862(3)
H15A H -0.5425 0.2284 0.5418
H16A H -0.5331 0.2465 0.4409
H17A H -0.6532 0.1603 0.4892
C19A C -0.3684(4) 0.1035(3) 0.4657(2)
C20A C -0.3354(5) 0.0405(3) 0.3890(2)
H18A H -0.4156 0.0632 0.3492
C21A C -0.1956(5) -0.0525(3) 0.3659(2)
C22A C -0.1934(6) -0.1231(3) 0.2879(2)
H19A H -0.0866 -0.1850 0.2814
H20A H -0.3124 -0.1512 0.2951
H21A H -0.1799 -0.0789 0.2363
C23A C 0.6279(4) 0.6090(2) -0.07968(18)
C24A C 0.5851(5) 0.3129(3) -0.2377(2)
H22A H 0.4481 0.3277 -0.2357
H23A H 0.6501 0.3427 -0.2903
H24A H 0.6301 0.2332 -0.2378
C25A C 0.6266(4) 0.3667(2) -0.16002(18)
C26A C 0.8147(4) 0.3558(2) -0.1499(2)
H25A H 0.9114 0.3348 -0.1996
C27A C 0.8716(4) 0.3732(2) -0.0730(2)
C28A C 1.0736(5) 0.3377(3) -0.0654(2)
H26A H 1.0882 0.3563 -0.0072
H27A H 1.1110 0.2580 -0.0765
H28A H 1.1544 0.3757 -0.1077
Fe1A Fe -0.18902(6) -0.25227(3) 0.76216(3)
Fe1A_2 Fe 0.81098(6) 0.74773(3) -0.23784(3)
N1A N 0.0481(4) -0.3862(2) 0.74073(16)
N2A N 0.0252(3) -0.1904(2) 0.81160(16)
N3A N -0.0962(4) -0.1710(2) 0.64785(16)
N4A N -0.2929(4) -0.3342(2) 0.87536(15)
N4A_2 N 0.7071(4) 0.6658(2) -0.12464(15)
O1A O -0.3131(3) -0.33747(16) 0.69831(13)
O2A O -0.3614(3) -0.12113(16) 0.80852(13)
O3A O -0.0657(3) -0.08966(17) 0.40809(13)
O4A O -0.2638(3) 0.08982(17) 0.52265(14)
O5A O 0.7605(3) 0.41338(16) -0.00236(13)
O6A O 0.4827(3) 0.41328(16) -0.10529(12)
loop_
_geom_bond_atom_site_label_1
_geom_bond_atom_site_label_2
_geom_bond_site_symmetry_1
_geom_bond_site_symmetry_2
C1 C2 1_555 1_555
C2 H1 1_555 1_555
C3 C2 1_555 1_555
H2 C3 1_555 1_555
C4 C3 1_555 1_555
H3 C4 1_555 1_555
C5 C4 1_555 1_555
H4 C5 1_555 1_555
C6 C1 1_555 1_555
C7 C6 1_555 1_555
H5 C7 1_555 1_555
C8 H6 1_555 1_555
H7 C8 1_555 1_555
C9 C8 1_555 1_555
H8 C9 1_555 1_555
H9 C9 1_555 1_555
C10 H10 1_555 1_555
C11 C10 1_555 1_555
C12 C11 1_555 1_555
H11 C12 1_555 1_555
C13 C12 1_555 1_555
H12 C13 1_555 1_555
C14 C13 1_555 1_555
H13 C14 1_555 1_555
C15 C14 1_555 1_555
H14 C15 1_555 1_555
C16 C11 1_555 1_555
C17 N3 1_555 1_555
C18 H15 1_555 1_555
H16 C18 1_555 1_555
H17 C18 1_555 1_555
C19 C18 1_555 1_555
C20 C19 1_555 1_555
H18 C20 1_555 1_555
C21 C20 1_555 1_555
C22 C21 1_555 1_555
H19 C22 1_555 1_555
H20 C22 1_555 1_555
H21 C22 1_555 1_555
C23 N4 1_555 1_555
C24 H22 1_555 1_555
H23 C24 1_555 1_555
H24 C24 1_555 1_555
C25 C24 1_555 1_555
C26 C25 1_555 1_555
H25 C26 1_555 1_555
C27 C26 1_555 1_555
C28 C27 1_555 1_555
H26 C28 1_555 1_555
H27 C28 1_555 1_555
H28 C28 1_555 1_555
Fe1 N1 1_555 1_555
N1 C7 1_555 1_555
N2 C9 1_555 1_555
N3 Fe1 1_555 1_555
N4 Fe1 1_555 1_555
O1 C1 1_555 1_555
O2 C16 1_555 1_555
O3 C21 1_555 1_555
O4 C19 1_555 1_555
O5 C27 1_555 1_555
O6 C25 1_555 1_555
Ru1 C17 1_555 1_555
Ru2 C23 1_555 1_555
C1A C2A 1_555 1_555
C2A H1A 1_555 1_555
C3A C2A 1_555 1_555
H2A C3A 1_555 1_555
C4A C3A 1_555 1_555
H3A C4A 1_555 1_555
C5A C4A 1_555 1_555
H4A C5A 1_555 1_555
C6A C1A 1_555 1_555
C7A C6A 1_555 1_555
H5A C7A 1_555 1_555
C8A H6A 1_555 1_555
H7A C8A 1_555 1_555
C9A C8A 1_555 1_555
H8A C9A 1_555 1_555
H9A C9A 1_555 1_555
C10A H10A 1_555 1_555
C11A C10A 1_555 1_555
C12A C11A 1_555 1_555
H11A C12A 1_555 1_555
C13A C12A 1_555 1_555
H12A C13A 1_555 1_555
C14A C13A 1_555 1_555
H13A C14A 1_555 1_555
C15A C14A 1_555 1_555
H14A C15A 1_555 1_555
C16A C11A 1_555 1_555
C17A Ru1 1_555 1_555
C18A H15A 1_555 1_555
H16A C18A 1_555 1_555
H17A C18A 1_555 1_555
C19A C18A 1_555 1_555
C20A C19A 1_555 1_555
H18A C20A 1_555 1_555
C21A C20A 1_555 1_555
C22A C21A 1_555 1_555
H19A C22A 1_555 1_555
H20A C22A 1_555 1_555
H21A C22A 1_555 1_555
C23A Ru2 1_555 1_555
C24A H22A 1_555 1_555
H23A C24A 1_555 1_555
H24A C24A 1_555 1_555
C25A C24A 1_555 1_555
C26A C25A 1_555 1_555
H25A C26A 1_555 1_555
C27A C26A 1_555 1_555
C28A C27A 1_555 1_555
H26A C28A 1_555 1_555
H27A C28A 1_555 1_555
H28A C28A 1_555 1_555
Fe1A N1A 1_555 1_555
Fe1A_2 N4A_2 1_555 1_555
N1A C7A 1_555 1_555
N2A C9A 1_555 1_555
N3A C17A 1_555 1_555
N4A Fe1A 1_555 1_555
N4A_2 C23A 1_555 1_555
O1A C1A 1_555 1_555
O2A C16A 1_555 1_555
O3A Ru1 1_555 1_555
O4A Ru1 1_555 1_555
O5A Ru2 1_555 1_555
O6A Ru2 1_555 1_555
C5 C6 1_555 1_555
C8 N1 1_555 1_555
C10 N2 1_555 1_555
C15 C16 1_555 1_555
Fe1 N2 1_555 1_555
Fe1 O1 1_555 1_555
Fe1 O2 1_555 1_555
O3 Ru1 1_555 1_555
O4 Ru1 1_555 1_555
O5 Ru2 1_555 1_555
O6 Ru2 1_555 1_555
C5A C6A 1_555 1_555
C8A N1A 1_555 1_555
C10A N2A 1_555 1_555
C15A C16A 1_555 1_555
C19A O4A 1_555 1_555
C21A O3A 1_555 1_555
C25A O6A 1_555 1_555
C27A O5A 1_555 1_555
Fe1A N2A 1_555 1_555
Fe1A N3A 1_555 1_555
Fe1A O1A 1_555 1_555
Fe1A O2A 1_555 1_555

#END
