
#######################################################################
#
#                 Cambridge Crystallographic Data Centre
#                                CCDC 
#
#######################################################################
#
# If this CIF has been generated from an entry in the Cambridge 
# Structural Database, then it will include bibliographic, chemical, 
# crystal, experimental, refinement or atomic coordinate data resulting 
# from the CCDC's data processing and validation procedures.
#
#######################################################################

data_NURYOO01
_symmetry_cell_setting           orthorhombic
_symmetry_space_group_name_H-M   'P n a 21'
_symmetry_Int_Tables_number      33
_space_group_name_Hall           'P 2c -2n'
loop_
_symmetry_equiv_pos_site_id
_symmetry_equiv_pos_as_xyz
1 x,y,z
2 -x,-y,1/2+z
3 1/2-x,1/2+y,1/2+z
4 1/2+x,1/2-y,z
_cell_length_a                   6.9391(10)
_cell_length_b                   12.945(2)
_cell_length_c                   7.9714(10)
_cell_angle_alpha                90
_cell_angle_beta                 90
_cell_angle_gamma                90
_cell_volume                     716.044
loop_
_atom_site_label
_atom_site_type_symbol
_atom_site_fract_x
_atom_site_fract_y
_atom_site_fract_z
Cd1 Cd 0.82893(6) 0.72845(3) 0.8492(4)
Cl1 Cl 0.5940(8) 0.8072(4) 1.0744(3)
Cl2 Cl 0.5951(8) 0.8102(4) 0.6266(2)
O1 O 0.9558(9) 0.8964(4) 0.837(3)
O2 O 1.2522(8) 0.9415(4) 0.8818(18)
N1 N 0.6682(9) 1.0377(7) 0.7906(12)
H1 H 0.5496 1.0491 0.8288
H2 H 0.6784 1.0620 0.6866
H3 H 0.6918 0.9701 0.7907
C1 C 1.0803(9) 0.9629(4) 0.845(2)
C2 C 1.0127(10) 1.0746(5) 0.843(2)
H4 H 1.0252 1.1009 0.7293
H5 H 1.0974 1.1150 0.9139
C3 C 0.8092(12) 1.0906(8) 0.8999(13)
H6 H 0.7812 1.1640 0.9013
H7 H 0.7957 1.0648 1.0136
Cl1C Cl 1.0940(8) 0.6928(4) 1.0744(3)
Cl2C Cl 1.0951(8) 0.6898(4) 0.6266(2)
O2C O 0.7522(8) 0.5585(4) 0.8818(18)
Cd1C Cd 0.32893(6) 0.77155(3) 0.8492(4)
Cd1C_2 Cd 1.32893(6) 0.77155(3) 0.8492(4)
loop_
_geom_bond_atom_site_label_1
_geom_bond_atom_site_label_2
_geom_bond_site_symmetry_1
_geom_bond_site_symmetry_2
Cd1 Cl1 1_555 1_555
Cl1 Cd1C 1_555 1_555
Cl2 Cd1 1_555 1_555
O1 Cd1 1_555 1_555
O2 C1 1_555 1_555
N1 H1 1_555 1_555
H2 N1 1_555 1_555
H3 N1 1_555 1_555
C1 O1 1_555 1_555
C2 C1 1_555 1_555
H4 C2 1_555 1_555
H5 C2 1_555 1_555
C3 N1 1_555 1_555
H6 C3 1_555 1_555
H7 C3 1_555 1_555
Cl1C Cd1 1_555 1_555
Cl2C Cd1 1_555 1_555
O2C Cd1 1_555 1_555
Cd1C Cl2 1_555 1_555
Cd1C_2 O2 1_555 1_555
C2 C3 1_555 1_555
Cl1C Cd1C_2 1_555 1_555
Cl2C Cd1C_2 1_555 1_555

#END
