
#######################################################################
#
#                 Cambridge Crystallographic Data Centre
#                                CCDC 
#
#######################################################################
#
# If this CIF has been generated from an entry in the Cambridge 
# Structural Database, then it will include bibliographic, chemical, 
# crystal, experimental, refinement or atomic coordinate data resulting 
# from the CCDC's data processing and validation procedures.
#
#######################################################################

data_NURYOO
_symmetry_cell_setting           orthorhombic
_symmetry_space_group_name_H-M   'P n m a'
_symmetry_Int_Tables_number      62
_space_group_name_Hall           '-P 2ac 2n'
loop_
_symmetry_equiv_pos_site_id
_symmetry_equiv_pos_as_xyz
1 x,y,z
2 1/2+x,y,1/2-z
3 x,1/2-y,z
4 1/2-x,1/2+y,1/2+z
5 -x,-y,-z
6 1/2-x,-y,1/2+z
7 -x,1/2+y,-z
8 1/2+x,1/2-y,1/2-z
_cell_length_a                   6.944(1)
_cell_length_b                   7.963(2)
_cell_length_c                   12.931(3)
_cell_angle_alpha                90
_cell_angle_beta                 90
_cell_angle_gamma                90
_cell_volume                     715.021
loop_
_atom_site_label
_atom_site_type_symbol
_atom_site_fract_x
_atom_site_fract_y
_atom_site_fract_z
Cd1 Cd 0.17129(7) 0.2500 0.22855(3)
Cl1 Cl 0.4058(2) 0.4741(2) 0.30861(12)
O1 O 0.0444(9) 0.2500 0.3971(4)
O2 O -0.2526(9) 0.2500 0.4420(4)
C1 C -0.0800(11) 0.2500 0.4623(5)
C2 C -0.0166(10) 0.2500 0.5736(5)
H1 H -0.0720(10) 0.3470 0.6061(5)
C3 C 0.1845(11) 0.2500 0.5960(8)
H2 H 0.2024(11) 0.3460 0.6399(8)
N1 N 0.3395(11) 0.2500 0.5354(7)
H3 H 0.4468(11) 0.2500 0.5744(7)
H4 H 0.3379(11) 0.3423 0.4952(7)
H1B H -0.0720(10) 0.1530 0.6061(5)
H2B H 0.2024(11) 0.1540 0.6399(8)
H4B H 0.3379(11) 0.1577 0.4952(7)
Cl1A Cl -0.0942(2) 0.4741(2) 0.19139(12)
Cl1G Cl -0.0942(2) 0.0259(2) 0.19139(12)
Cl1B Cl 0.4058(2) 0.0259(2) 0.30861(12)
O2A O 0.2474(9) 0.2500 0.0580(4)
Cd1A Cd -0.32871(7) 0.2500 0.27145(3)
Cd1A_2 Cd 0.67129(7) 0.2500 0.27145(3)
loop_
_geom_bond_atom_site_label_1
_geom_bond_atom_site_label_2
_geom_bond_site_symmetry_1
_geom_bond_site_symmetry_2
Cd1 Cl1 1_555 1_555
Cl1 Cd1A_2 1_555 1_555
O1 Cd1 1_555 1_555
O2 C1 1_555 1_555
C1 O1 1_555 1_555
C2 C1 1_555 1_555
H1 C2 1_555 1_555
C3 C2 1_555 1_555
H2 C3 1_555 1_555
N1 C3 1_555 1_555
H3 N1 1_555 1_555
H4 N1 1_555 1_555
H1B C2 1_555 1_555
H2B C3 1_555 1_555
H4B N1 1_555 1_555
Cl1A Cd1 1_555 1_555
Cl1G Cd1 1_555 1_555
Cl1B Cd1 1_555 1_555
O2A Cd1 1_555 1_555
Cd1A O2 1_555 1_555
Cd1A_2 Cl1B 1_555 1_555
Cl1A Cd1A 1_555 1_555
Cl1G Cd1A 1_555 1_555

#END
