
#######################################################################
#
#                 Cambridge Crystallographic Data Centre
#                                CCDC 
#
#######################################################################
#
# If this CIF has been generated from an entry in the Cambridge 
# Structural Database, then it will include bibliographic, chemical, 
# crystal, experimental, refinement or atomic coordinate data resulting 
# from the CCDC's data processing and validation procedures.
#
#######################################################################

data_NUSDUA
_symmetry_cell_setting           triclinic
_symmetry_space_group_name_H-M   'P -1'
_symmetry_Int_Tables_number      2
_space_group_name_Hall           '-P 1'
loop_
_symmetry_equiv_pos_site_id
_symmetry_equiv_pos_as_xyz
1 x,y,z
2 -x,-y,-z
_cell_length_a                   7.119(2)
_cell_length_b                   8.220(2)
_cell_length_c                   8.761(2)
_cell_angle_alpha                64.01(3)
_cell_angle_beta                 89.90(3)
_cell_angle_gamma                88.32(3)
_cell_volume                     460.598
loop_
_atom_site_label
_atom_site_type_symbol
_atom_site_fract_x
_atom_site_fract_y
_atom_site_fract_z
Na1 Na -0.16913(12) 0.35117(11) 0.46128(10)
O1 O -0.1556(2) 0.4818(2) 0.6477(2)
O2 O -0.3963(3) 0.7523(2) 1.1698(2)
O3 O -0.1701(2) 0.2840(2) 1.2180(2)
N1 N -0.1843(2) 0.3754(2) 0.9328(2)
N2 N -0.2875(2) 0.6757(2) 0.7384(2)
N3 N -0.3214(3) 0.6023(2) 1.1851(2)
N4 N -0.4038(3) 0.8709(3) 0.8388(3)
H1 H -0.4227(35) 0.9479(35) 0.7390(36)
H2 H -0.4355(42) 0.8922(39) 0.9240(40)
C1 C -0.2085(3) 0.5131(3) 0.7669(2)
C2 C -0.2119(3) 0.4035(3) 1.0754(2)
C3 C -0.2926(3) 0.5809(3) 1.0442(2)
C4 C -0.3293(3) 0.7113(3) 0.8697(2)
C5 C -0.1158(4) 0.1954(3) 0.9565(3)
H3 H -0.1931(56) 0.1021(55) 1.0534(54)
H4 H 0.0152(59) 0.1689(54) 0.9983(52)
H5 H -0.1327(53) 0.1828(49) 0.8712(49)
O4 O -0.4622(2) 0.2186(2) 0.5514(2)
H6 H -0.5124(49) 0.2522(46) 0.6121(46)
H7 H -0.5400(45) 0.2399(40) 0.4732(42)
O5 O 0.0515(4) 0.1122(3) 0.5984(4)
H8 H 0.0521(83) 0.0147(81) 0.6487(73)
H9 H 0.122(12) 0.125(12) 0.560(12)
O1A O 0.1556(2) 0.5182(2) 0.3523(2)
O3_2 O -0.1701(2) 0.2840(2) 0.2180(2)
N3_2 N -0.3214(3) 0.6023(2) 0.1851(2)
Na1A Na 0.16913(12) 0.64883(11) 0.53872(10)
Na1_2 Na -0.16913(12) 0.35117(11) 1.46128(10)
loop_
_geom_bond_atom_site_label_1
_geom_bond_atom_site_label_2
_geom_bond_site_symmetry_1
_geom_bond_site_symmetry_2
Na1 O1 1_555 1_555
O1 C1 1_555 1_555
O2 N3 1_555 1_555
O3 C2 1_555 1_555
N1 C1 1_555 1_555
N2 C1 1_555 1_555
N3 C3 1_555 1_555
N4 H1 1_555 1_555
H2 N4 1_555 1_555
C2 N1 1_555 1_555
C3 C2 1_555 1_555
C4 N2 1_555 1_555
C5 N1 1_555 1_555
H3 C5 1_555 1_555
H4 C5 1_555 1_555
H5 C5 1_555 1_555
O4 Na1 1_555 1_555
H6 O4 1_555 1_555
H7 O4 1_555 1_555
O5 Na1 1_555 1_555
H8 O5 1_555 1_555
H9 O5 1_555 1_555
O1A Na1 1_555 1_555
O3_2 Na1 1_555 1_555
N3_2 Na1 1_555 1_555
Na1A O1 1_555 1_555
Na1_2 O3 1_555 1_555
N3 Na1_2 1_555 1_555
N4 C4 1_555 1_555
C3 C4 1_555 1_555
O1A Na1A 1_555 1_555

#END
