
#######################################################################
#
#                 Cambridge Crystallographic Data Centre
#                                CCDC 
#
#######################################################################
#
# If this CIF has been generated from an entry in the Cambridge 
# Structural Database, then it will include bibliographic, chemical, 
# crystal, experimental, refinement or atomic coordinate data resulting 
# from the CCDC's data processing and validation procedures.
#
#######################################################################

data_NUSJER
_symmetry_cell_setting           monoclinic
_symmetry_space_group_name_H-M   'P 21/c'
_symmetry_Int_Tables_number      14
_space_group_name_Hall           '-P 2ybc'
loop_
_symmetry_equiv_pos_site_id
_symmetry_equiv_pos_as_xyz
1 x,y,z
2 -x,1/2+y,1/2-z
3 -x,-y,-z
4 x,1/2-y,1/2+z
_cell_length_a                   12.8949(4)
_cell_length_b                   10.3117(3)
_cell_length_c                   28.4092(8)
_cell_angle_alpha                90
_cell_angle_beta                 112.419(2)
_cell_angle_gamma                90
_cell_volume                     3492.02
loop_
_atom_site_label
_atom_site_type_symbol
_atom_site_fract_x
_atom_site_fract_y
_atom_site_fract_z
La1 La 0.471439(14) 0.491026(14) 0.279122(6)
O1 O 0.5616(2) 0.4328(2) 0.37241(8)
O2 O 0.4901(2) 0.5215(2) 0.42475(9)
O3 O 0.37267(19) 0.3683(2) 0.20137(8)
O4 O 0.55603(19) 0.5579(2) 0.21315(8)
O5 O 0.61652(18) 0.3315(2) 0.28794(9)
O6 O 0.3560(2) 0.3022(2) 0.29322(10)
O7 O 0.3615(3) 0.5888(3) 0.32903(11)
O8 O 0.38830(19) 0.1608(2) 0.18454(8)
O9 O 0.67575(18) 0.1404(2) 0.27472(9)
O10 O 0.2664(2) 0.3033(3) -0.14197(9)
N1 N 0.5182(2) 0.5217(2) 0.16477(10)
N2 N 0.3057(2) 0.3353(3) -0.09379(10)
C1 C 0.2602(2) 0.2915(3) 0.11983(11)
C2 C 0.2362(3) 0.1933(3) 0.08392(12)
C3 C 0.2096(3) 0.4116(3) 0.10537(13)
H1 H 0.2227 0.4777 0.1292
C4 C 0.5626(3) 0.4575(3) 0.41585(11)
C5 C 0.6610(3) 0.4048(3) 0.46050(11)
C6 C 0.7522(3) 0.3537(3) 0.45277(15)
C7 C 0.6609(3) 0.4070(3) 0.50909(12)
C8 C 0.7514(4) 0.3566(4) 0.54945(15)
C9 C 0.8417(4) 0.3061(4) 0.54187(19)
C10 C 0.3459(2) 0.2714(3) 0.17277(11)
C11 C 0.1387(3) 0.4327(4) 0.05449(17)
H2 H 0.1047 0.5130 0.0445
C12 C 0.5425(3) 0.4032(3) 0.15146(12)
C13 C 0.4355(3) 0.4462(3) 0.06289(11)
C14 C 0.4137(3) 0.5686(3) 0.07831(12)
C15 C 0.4540(3) 0.6045(3) 0.12814(12)
C16 C 0.3897(2) 0.4068(3) 0.00903(11)
C17 C 0.3309(3) 0.4933(3) -0.03001(13)
C18 C 0.2907(3) 0.4575(4) -0.07990(13)
C19 C 0.4021(3) 0.2814(3) -0.00665(13)
C20 C 0.3603(3) 0.2480(3) -0.05729(13)
H3 H 0.3698 0.1637 -0.0666
C21 C 0.6926(2) 0.2512(3) 0.29362(10)
C22 C 0.8108(2) 0.2897(3) 0.32530(11)
C23 C 0.8360(3) 0.4133(4) 0.34493(13)
H4 H 0.7793 0.4748 0.3378
C24 C 0.5025(3) 0.3650(3) 0.10169(12)
C25 C 0.1664(3) 0.2165(4) 0.03439(14)
H5 H 0.1508 0.1500 0.0106
C26 C 0.1195(3) 0.3352(5) 0.01960(15)
H6 H 0.0743 0.3501 -0.0144
C27 C 0.8418(4) 0.3053(4) 0.4932(2)
C28 C 0.8963(3) 0.2004(4) 0.33608(16)
H7 H 0.8810 0.1165 0.3233
C29 C 1.0057(4) 0.2366(6) 0.3663(2)
H8 H 1.0637 0.1766 0.3738
C30 C 1.0277(4) 0.3592(6) 0.3849(2)
H9 H 1.1010 0.3834 0.4046
C31 C 0.9442(4) 0.4460(5) 0.37495(19)
H10 H 0.9599 0.5291 0.3886
H18 H 0.602(3) 0.442(3) 0.5148(12)
H19 H 0.753(3) 0.356(3) 0.4169(14)
H20 H 0.745(4) 0.351(4) 0.5786(17)
H21 H 0.901(4) 0.273(4) 0.4878(15)
H22 H 0.908(4) 0.267(4) 0.5692(16)
H23 H 0.524(2) 0.291(3) 0.0957(11)
H24 H 0.588(2) 0.353(3) 0.1786(11)
H25 H 0.371(2) 0.634(3) 0.0545(11)
H26 H 0.440(3) 0.679(3) 0.1407(11)
H27 H 0.258(3) 0.522(3) -0.1060(15)
H28 H 0.317(3) 0.578(3) -0.0232(12)
H29 H 0.439(3) 0.217(3) 0.0155(12)
H30 H 0.273(3) 0.108(3) 0.0933(12)
H31 H 0.394(4) 0.565(5) 0.3635(18)
H32 H 0.301(3) 0.626(3) 0.3220(13)
H33 H 0.378(3) 0.241(3) 0.2845(13)
H34 H 0.337(4) 0.279(4) 0.3196(17)
La1A La 0.528561(14) -0.008974(14) 0.220878(6)
O8A O 0.61170(19) 0.6608(2) 0.31546(8)
O9A O 0.32425(18) 0.6404(2) 0.22528(9)
O11 O 0.8179(4) 0.2519(5) 0.17726(16)
N3 N 0.9840(5) 0.3453(5) 0.22009(16)
C32 C 0.8842(6) 0.3098(9) 0.2088(3)
H11 H 0.8566 0.3387 0.2328
C33 C 1.0570(8) 0.4189(10) 0.2614(3)
H12 H 1.0252 0.5032 0.2612
H13 H 1.1282 0.4279 0.2582
H14 H 1.0673 0.3756 0.2927
C34 C 1.0483(9) 0.2888(12) 0.1933(5)
H15 H 1.0272 0.1996 0.1857
H16 H 1.1268 0.2939 0.2142
H17 H 1.0337 0.3354 0.1622
loop_
_geom_bond_atom_site_label_1
_geom_bond_atom_site_label_2
_geom_bond_site_symmetry_1
_geom_bond_site_symmetry_2
La1 O1 1_555 1_555
O1 C4 1_555 1_555
O2 C4 1_555 1_555
O3 La1 1_555 1_555
O4 La1 1_555 1_555
O5 La1 1_555 1_555
O6 La1 1_555 1_555
O7 La1 1_555 1_555
O8 C10 1_555 1_555
O9 C21 1_555 1_555
O10 N2 1_555 1_555
N1 O4 1_555 1_555
N2 C18 1_555 1_555
C1 C2 1_555 1_555
C2 C25 1_555 1_555
C3 C1 1_555 1_555
H1 C3 1_555 1_555
C4 C5 1_555 1_555
C5 C6 1_555 1_555
C6 C27 1_555 1_555
C7 C5 1_555 1_555
C8 C7 1_555 1_555
C9 C8 1_555 1_555
C10 O3 1_555 1_555
C11 C3 1_555 1_555
H2 C11 1_555 1_555
C12 N1 1_555 1_555
C13 C14 1_555 1_555
C14 C15 1_555 1_555
C15 N1 1_555 1_555
C16 C13 1_555 1_555
C17 C16 1_555 1_555
C18 C17 1_555 1_555
C19 C16 1_555 1_555
C20 N2 1_555 1_555
H3 C20 1_555 1_555
C21 O5 1_555 1_555
C22 C21 1_555 1_555
C23 C22 1_555 1_555
H4 C23 1_555 1_555
C24 C12 1_555 1_555
C25 H5 1_555 1_555
C26 C11 1_555 1_555
H6 C26 1_555 1_555
C27 C9 1_555 1_555
C28 C22 1_555 1_555
H7 C28 1_555 1_555
C29 C28 1_555 1_555
H8 C29 1_555 1_555
C30 C29 1_555 1_555
H9 C30 1_555 1_555
C31 C23 1_555 1_555
H10 C31 1_555 1_555
O11 C32 1_555 1_555
N3 C32 1_555 1_555
C32 H11 1_555 1_555
C33 N3 1_555 1_555
H12 C33 1_555 1_555
H13 C33 1_555 1_555
H14 C33 1_555 1_555
C34 N3 1_555 1_555
H15 C34 1_555 1_555
H16 C34 1_555 1_555
H17 C34 1_555 1_555
H18 C7 1_555 1_555
H19 C6 1_555 1_555
H20 C8 1_555 1_555
H21 C27 1_555 1_555
H22 C9 1_555 1_555
H23 C24 1_555 1_555
H24 C12 1_555 1_555
H25 C14 1_555 1_555
H26 C15 1_555 1_555
H27 C18 1_555 1_555
H28 C17 1_555 1_555
H29 C19 1_555 1_555
H30 C2 1_555 1_555
H31 O7 1_555 1_555
H32 O7 1_555 1_555
H33 O6 1_555 1_555
H34 O6 1_555 1_555
La1A O8 1_555 1_555
O8A La1 1_555 1_555
O9A La1 1_555 1_555
O9 La1A 1_555 1_555
C1 C10 1_555 1_555
C13 C24 1_555 1_555
C19 C20 1_555 1_555
C25 C26 1_555 1_555
C30 C31 1_555 1_555

#END
