
#######################################################################
#
#                 Cambridge Crystallographic Data Centre
#                                CCDC 
#
#######################################################################
#
# If this CIF has been generated from an entry in the Cambridge 
# Structural Database, then it will include bibliographic, chemical, 
# crystal, experimental, refinement or atomic coordinate data resulting 
# from the CCDC's data processing and validation procedures.
#
#######################################################################

data_NUSJIW
_symmetry_cell_setting           triclinic
_symmetry_space_group_name_H-M   'P -1'
_symmetry_Int_Tables_number      2
_space_group_name_Hall           '-P 1'
loop_
_symmetry_equiv_pos_site_id
_symmetry_equiv_pos_as_xyz
1 x,y,z
2 -x,-y,-z
_cell_length_a                   8.7495(17)
_cell_length_b                   9.901(2)
_cell_length_c                   11.930(2)
_cell_angle_alpha                78.31(3)
_cell_angle_beta                 73.72(3)
_cell_angle_gamma                77.59(3)
_cell_volume                     957.625
loop_
_atom_site_label
_atom_site_type_symbol
_atom_site_fract_x
_atom_site_fract_y
_atom_site_fract_z
Na1 Na 0.13014(12) 0.53590(10) 0.89519(9)
Na2 Na 0.16889(13) 0.54368(11) 0.19521(9)
O1 O -0.2502(3) 1.05233(19) 0.0784(2)
O2 O -0.3364(3) 1.06079(19) -0.0786(2)
O3 O -0.1754(2) 0.63297(18) -0.08114(18)
O4 O 0.0030(2) 0.66020(17) 0.06151(17)
O5 O 0.3039(3) 0.3970(3) 0.6724(2)
O6 O 0.0994(3) 0.5641(3) 0.70406(19)
O7 O 0.0963(3) 0.6630(2) 0.35166(19)
O8 O 0.3391(2) 0.4415(2) 0.32113(17)
C1 C -0.1707(7) 1.0776(5) 0.2454(4)
H1 H -0.1061 1.0295 0.2991
H2 H -0.2812 1.0991 0.2885
H3 H -0.1320 1.1627 0.2054
C2 C -0.1595(4) 0.9867(3) 0.1569(3)
C3 C -0.2619(3) 0.9861(3) -0.0112(3)
C4 C -0.1885(3) 0.8421(2) -0.0121(2)
C5 C -0.2194(3) 0.7616(3) -0.0900(2)
C6 C -0.3089(4) 0.8310(3) -0.1826(3)
H4 H -0.3181 0.7620 -0.2254
H5 H -0.2510 0.8999 -0.2362
H6 H -0.4148 0.8754 -0.1455
C7 C -0.0840(3) 0.7794(2) 0.0642(2)
C8 C -0.0764(3) 0.8573(3) 0.1500(3)
H7 H -0.0121 0.8173 0.2024
C9 C 0.5197(6) 0.2064(6) 0.6701(5)
H8 H 0.5968 0.1472 0.6185
H9 H 0.4531 0.1505 0.7319
H10 H 0.5756 0.2545 0.7041
C10 C 0.4170(4) 0.3100(4) 0.6018(3)
C11 C 0.1971(4) 0.5035(4) 0.6269(3)
C12 C 0.2104(3) 0.5287(3) 0.5031(2)
C13 C 0.1099(3) 0.6483(3) 0.4528(3)
C14 C 0.0206(6) 0.7637(4) 0.5232(4)
H11 H -0.0397 0.8340 0.4766
H12 H 0.0964 0.8046 0.5445
H13 H -0.0521 0.7262 0.5935
C15 C 0.3230(3) 0.4341(3) 0.4298(2)
C16 C 0.4279(4) 0.3248(3) 0.4849(3)
H14 H 0.5042 0.2634 0.4394
O9 O 0.3900(3) 0.6565(2) 0.0655(2)
O10 O 0.3847(3) 0.5786(4) 0.8564(3)
H15 H 0.382(7) 0.607(6) 0.885(5)
H16 H 0.389(5) 0.721(4) 0.070(4)
H17 H 0.473(5) 0.601(4) 0.792(4)
H18 H 0.476(6) 0.599(5) 0.097(4)
Na1_2 Na 0.13014(12) 0.53590(10) -0.10481(9)
Na1A Na -0.13014(12) 0.46410(10) 0.10481(9)
Na2A Na -0.16889(13) 0.45632(11) -0.19521(9)
Na2A_2 Na -0.16889(13) 0.45632(11) 0.80479(9)
O3_2 O -0.1754(2) 0.63297(18) 0.91886(18)
O3A O 0.1754(2) 0.36703(18) 0.08114(18)
O3A_2 O 0.1754(2) 0.36703(18) 1.08114(18)
O4_2 O 0.0030(2) 0.66020(17) 1.06151(17)
O4A O -0.0030(2) 0.33980(17) 0.93849(17)
O6A O -0.0994(3) 0.4359(3) 0.29594(19)
loop_
_geom_bond_atom_site_label_1
_geom_bond_atom_site_label_2
_geom_bond_site_symmetry_1
_geom_bond_site_symmetry_2
Na1 O6 1_555 1_555
Na2 O4 1_555 1_555
O1 C2 1_555 1_555
O2 C3 1_555 1_555
O3 C5 1_555 1_555
O4 C7 1_555 1_555
O5 C10 1_555 1_555
O6 C11 1_555 1_555
O7 Na2 1_555 1_555
O8 Na2 1_555 1_555
C1 H1 1_555 1_555
H2 C1 1_555 1_555
H3 C1 1_555 1_555
C2 C1 1_555 1_555
C3 O1 1_555 1_555
C4 C3 1_555 1_555
C5 C4 1_555 1_555
C6 C5 1_555 1_555
H4 C6 1_555 1_555
H5 C6 1_555 1_555
H6 C6 1_555 1_555
C7 C4 1_555 1_555
C8 C2 1_555 1_555
H7 C8 1_555 1_555
C9 H8 1_555 1_555
H9 C9 1_555 1_555
H10 C9 1_555 1_555
C10 C9 1_555 1_555
C11 O5 1_555 1_555
C12 C11 1_555 1_555
C13 O7 1_555 1_555
C14 C13 1_555 1_555
H11 C14 1_555 1_555
H12 C14 1_555 1_555
H13 C14 1_555 1_555
C15 O8 1_555 1_555
C16 C10 1_555 1_555
H14 C16 1_555 1_555
O9 Na2 1_555 1_555
O10 Na1 1_555 1_555
H15 O10 1_555 1_555
H16 O9 1_555 1_555
H17 O10 1_555 1_555
H18 O9 1_555 1_555
Na1_2 O3 1_555 1_555
Na1A O3 1_555 1_555
Na2A O3 1_555 1_555
Na2A_2 O6 1_555 1_555
O3_2 Na1 1_555 1_555
O3A Na2 1_555 1_555
O3A_2 Na1 1_555 1_555
O4_2 Na1 1_555 1_555
O4A Na1 1_555 1_555
O6A Na2 1_555 1_555
O4 Na1_2 1_555 1_555
O4 Na1A 1_555 1_555
C7 C8 1_555 1_555
C12 C13 1_555 1_555
C12 C15 1_555 1_555
C15 C16 1_555 1_555
Na1_2 O3A 1_555 1_555
Na1A O3A 1_555 1_555
Na1A O6A 1_555 1_555
Na2A_2 O3_2 1_555 1_555
Na2A_2 O4A 1_555 1_555

#END
