
#######################################################################
#
#                 Cambridge Crystallographic Data Centre
#                                CCDC 
#
#######################################################################
#
# If this CIF has been generated from an entry in the Cambridge 
# Structural Database, then it will include bibliographic, chemical, 
# crystal, experimental, refinement or atomic coordinate data resulting 
# from the CCDC's data processing and validation procedures.
#
#######################################################################

data_NUSLAP
_symmetry_cell_setting           monoclinic
_symmetry_space_group_name_H-M   'P 21/n'
_symmetry_Int_Tables_number      14
_space_group_name_Hall           '-P 2yn'
loop_
_symmetry_equiv_pos_site_id
_symmetry_equiv_pos_as_xyz
1 x,y,z
2 1/2-x,1/2+y,1/2-z
3 -x,-y,-z
4 1/2+x,1/2-y,1/2+z
_cell_length_a                   10.162(4)
_cell_length_b                   19.405(7)
_cell_length_c                   32.041(12)
_cell_angle_alpha                90
_cell_angle_beta                 94.893(5)
_cell_angle_gamma                90
_cell_volume                     6295.25
loop_
_atom_site_label
_atom_site_type_symbol
_atom_site_fract_x
_atom_site_fract_y
_atom_site_fract_z
Ni1 Ni 0.02525(6) 0.21197(3) 0.59027(2)
Mn1 Mn 0.52699(7) 0.24002(4) 0.59461(2)
Cl1 Cl 0.27924(14) 0.47742(8) 0.43130(4)
Cl2 Cl 0.73392(19) -0.05458(11) 0.72313(7)
O1 O 0.4956(3) 0.24717(17) 0.53513(10)
O2 O 0.5410(3) 0.14204(18) 0.59237(10)
O3 O 0.3141(3) 0.24013(16) 0.59600(10)
O4 O -0.2603(3) 0.23910(18) 0.59980(10)
N1 N 0.5148(3) 0.3418(2) 0.60232(12)
N2 N 0.5551(3) 0.2436(2) 0.65728(12)
N3 N 0.2230(3) 0.1926(2) 0.59902(12)
N4 N 0.0223(3) 0.1048(2) 0.59881(12)
N5 N -0.1718(3) 0.2243(2) 0.57287(12)
N6 N 0.0238(3) 0.2037(2) 0.52535(12)
N7 N 0.0559(3) 0.31845(19) 0.59146(11)
N8 N 0.0084(3) 0.2329(2) 0.65404(12)
C1 C 0.4454(4) 0.3003(2) 0.51340(15)
C2 C 0.4064(5) 0.2907(2) 0.47002(16)
C3 C 0.3536(5) 0.3442(3) 0.44523(17)
C4 C 0.3427(4) 0.4100(2) 0.46292(16)
C5 C 0.3817(4) 0.4215(2) 0.50418(15)
C6 C 0.4328(4) 0.3675(2) 0.53046(15)
C7 C 0.4710(4) 0.3844(2) 0.57351(14)
C8 C 0.5622(4) 0.3684(2) 0.64545(14)
C9 C 0.4992(5) 0.4382(2) 0.65519(17)
C10 C 0.7122(4) 0.3772(2) 0.64612(15)
C11 C 0.5247(4) 0.3113(2) 0.67735(14)
C12 C 0.3743(4) 0.3109(2) 0.68238(16)
C13 C 0.5994(5) 0.3211(3) 0.72036(15)
C14 C 0.6014(4) 0.1923(2) 0.67955(16)
C15 C 0.6202(4) 0.1225(2) 0.66467(17)
C16 C 0.6657(5) 0.0733(3) 0.6952(2)
C17 C 0.6758(6) 0.0047(3) 0.6850(2)
C18 C 0.6353(5) -0.0174(3) 0.6449(2)
C19 C 0.5908(5) 0.0285(2) 0.6147(2)
C20 C 0.5840(4) 0.1003(2) 0.62327(18)
C21 C 0.2523(5) 0.1282(2) 0.60639(19)
C22 C 0.1448(5) 0.0795(2) 0.60699(16)
C23 C 0.1676(6) 0.0092(2) 0.61471(19)
C24 C 0.0634(5) -0.0355(2) 0.61489(19)
C25 C -0.0620(6) -0.0097(3) 0.6056(2)
C26 C -0.0802(5) 0.0608(2) 0.5979(2)
C27 C -0.2042(5) 0.2220(2) 0.53284(15)
C28 C -0.0992(5) 0.2102(2) 0.50575(15)
C29 C -0.1217(5) 0.2074(2) 0.46244(15)
C30 C -0.0176(5) 0.1981(2) 0.43845(15)
C31 C 0.1083(5) 0.1911(3) 0.45762(16)
C32 C 0.1244(5) 0.1935(2) 0.50105(16)
C33 C 0.0857(4) 0.3581(2) 0.55955(15)
C34 C 0.1073(5) 0.4289(2) 0.56453(17)
C35 C 0.1042(4) 0.4590(2) 0.60341(16)
C36 C 0.0763(4) 0.4174(2) 0.63768(15)
C37 C 0.0530(4) 0.3468(2) 0.62987(14)
C38 C 0.0699(4) 0.4432(2) 0.67922(16)
C39 C 0.0406(5) 0.4005(2) 0.71091(15)
C40 C 0.0194(4) 0.3276(2) 0.70418(15)
C41 C 0.0254(4) 0.3010(2) 0.66388(14)
C42 C -0.0061(5) 0.2809(2) 0.73615(15)
C43 C -0.0240(5) 0.2121(2) 0.72650(15)
C44 C -0.0178(4) 0.1906(2) 0.68514(14)
H1 H 0.4169 0.2467 0.4578
H2 H 0.3251 0.3365 0.4166
H3 H 0.3743 0.4665 0.5154
H4 H 0.4632 0.4313 0.5815
H5 H 0.4142 0.4415 0.6405
H6 H 0.5534 0.4746 0.6466
H7 H 0.4912 0.4417 0.6844
H8 H 0.7350 0.3886 0.6188
H9 H 0.7545 0.3354 0.6550
H10 H 0.7401 0.4132 0.6650
H11 H 0.3455 0.2649 0.6860
H12 H 0.3283 0.3301 0.6581
H13 H 0.3570 0.3376 0.7062
H14 H 0.6811 0.2975 0.7214
H15 H 0.5478 0.3038 0.7413
H16 H 0.6157 0.3692 0.7254
H17 H 0.6253 0.2009 0.7084
H18 H 0.6896 0.0878 0.7231
H19 H 0.6385 -0.0651 0.6383
H20 H 0.5638 0.0124 0.5876
H21 H 0.3416 0.1137 0.6112
H22 H 0.2554 -0.0074 0.6198
H23 H 0.0772 -0.0829 0.6212
H24 H -0.1361 -0.0398 0.6045
H25 H -0.1672 0.0780 0.5919
H26 H -0.2932 0.2277 0.5217
H27 H -0.2087 0.2126 0.4494
H28 H -0.0322 0.1965 0.4088
H29 H 0.1818 0.1848 0.4416
H30 H 0.2108 0.1877 0.5144
H31 H 0.0924 0.3378 0.5329
H32 H 0.1242 0.4564 0.5410
H33 H 0.1204 0.5070 0.6071
H34 H 0.0861 0.4906 0.6848
H35 H 0.0341 0.4191 0.7381
H36 H -0.0110 0.2966 0.7641
H37 H -0.0402 0.1798 0.7477
H38 H -0.0332 0.1434 0.6788
Mn1_2 Mn -0.47301(7) 0.24002(4) 0.59461(2)
O4_2 O 0.7397(3) 0.23910(18) 0.59980(10)
O5 O 0.273(2) -0.0015(13) 0.4864(6)
C70 C 0.270(5) -0.0038(10) 0.5177(6)
H62 H 0.2948 0.0397 0.5296
H63 H 0.3305 -0.0380 0.5288
H64 H 0.1837 -0.0152 0.5243
O6 O 0.4734(12) 0.1075(4) 0.4939(2)
C69 C 0.469(3) 0.1067(7) 0.4564(6)
H59 H 0.4278 0.1475 0.4455
H60 H 0.4207 0.0676 0.4461
H61 H 0.5567 0.1043 0.4480
C45 C 0.5322(4) 0.1935(2) 0.83139(14)
C46 C 0.6037(4) 0.2544(2) 0.83678(15)
C47 C 0.7421(5) 0.2583(2) 0.83474(15)
C48 C 0.8129(5) 0.1998(3) 0.82711(16)
C49 C 0.7446(5) 0.1381(3) 0.82121(17)
C50 C 0.6102(4) 0.1349(2) 0.82295(16)
C51 C 0.3049(4) 0.1357(2) 0.79818(15)
C52 C 0.3518(5) 0.1386(3) 0.75848(17)
C53 C 0.2980(5) 0.1016(3) 0.72408(18)
C54 C 0.1920(6) 0.0585(2) 0.72801(17)
C55 C 0.1425(6) 0.0540(2) 0.76641(18)
C56 C 0.1975(5) 0.0917(2) 0.80089(16)
C57 C 0.3563(4) 0.1511(2) 0.88416(15)
C58 C 0.4679(4) 0.1368(2) 0.91236(14)
C59 C 0.4589(5) 0.1113(2) 0.95275(15)
C60 C 0.3380(5) 0.1001(2) 0.96788(16)
C61 C 0.2250(5) 0.1125(2) 0.94134(16)
C62 C 0.2357(4) 0.1369(2) 0.90081(16)
C63 C 0.2961(4) 0.2600(2) 0.83240(14)
C64 C 0.2027(4) 0.2852(2) 0.85875(14)
C65 C 0.1398(5) 0.3494(2) 0.85231(15)
C66 C 0.1677(5) 0.3910(2) 0.81944(16)
C67 C 0.2584(5) 0.3685(2) 0.79283(16)
C68 C 0.3209(4) 0.3044(2) 0.79922(15)
B1 B 0.3721(5) 0.1849(2) 0.83718(17)
H39 H 0.5573 0.2956 0.8421
H40 H 0.7862 0.3013 0.8386
H41 H 0.9060 0.2016 0.8259
H42 H 0.7918 0.0972 0.8159
H43 H 0.5673 0.0918 0.8183
H44 H 0.4250 0.1677 0.7548
H45 H 0.3343 0.1059 0.6978
H46 H 0.1542 0.0328 0.7048
H47 H 0.0690 0.0249 0.7699
H48 H 0.1604 0.0872 0.8270
H49 H 0.5533 0.1454 0.9035
H50 H 0.5373 0.1015 0.9700
H51 H 0.3319 0.0843 0.9957
H52 H 0.1403 0.1044 0.9508
H53 H 0.1566 0.1443 0.8834
H54 H 0.1815 0.2578 0.8818
H55 H 0.0773 0.3641 0.8709
H56 H 0.1253 0.4344 0.8152
H57 H 0.2787 0.3966 0.7700
H58 H 0.3827 0.2904 0.7803
loop_
_geom_bond_atom_site_label_1
_geom_bond_atom_site_label_2
_geom_bond_site_symmetry_1
_geom_bond_site_symmetry_2
Ni1 N3 1_555 1_555
Mn1 O1 1_555 1_555
Cl1 C4 1_555 1_555
Cl2 C17 1_555 1_555
O1 C1 1_555 1_555
O2 Mn1 1_555 1_555
O3 Mn1 1_555 1_555
O4 N5 1_555 1_555
O5 C70 1_555 1_555
O6 C69 1_555 1_555
N1 Mn1 1_555 1_555
N2 Mn1 1_555 1_555
N3 O3 1_555 1_555
N4 Ni1 1_555 1_555
N5 Ni1 1_555 1_555
N6 Ni1 1_555 1_555
N7 Ni1 1_555 1_555
N8 Ni1 1_555 1_555
C1 C2 1_555 1_555
C2 C3 1_555 1_555
C3 C4 1_555 1_555
C4 C5 1_555 1_555
C5 C6 1_555 1_555
C6 C1 1_555 1_555
C7 N1 1_555 1_555
C8 N1 1_555 1_555
C9 C8 1_555 1_555
C10 C8 1_555 1_555
C11 N2 1_555 1_555
C12 C11 1_555 1_555
C13 C11 1_555 1_555
C14 N2 1_555 1_555
C15 C14 1_555 1_555
C16 C15 1_555 1_555
C17 C16 1_555 1_555
C18 C17 1_555 1_555
C19 C18 1_555 1_555
C20 O2 1_555 1_555
C21 N3 1_555 1_555
C22 N4 1_555 1_555
C23 C22 1_555 1_555
C24 C23 1_555 1_555
C25 C24 1_555 1_555
C26 N4 1_555 1_555
C27 N5 1_555 1_555
C28 N6 1_555 1_555
C29 C28 1_555 1_555
C30 C29 1_555 1_555
C31 C30 1_555 1_555
C32 N6 1_555 1_555
C33 N7 1_555 1_555
C34 C33 1_555 1_555
C35 C34 1_555 1_555
C36 C35 1_555 1_555
C37 N7 1_555 1_555
C38 C36 1_555 1_555
C39 C38 1_555 1_555
C40 C39 1_555 1_555
C41 N8 1_555 1_555
C42 C40 1_555 1_555
C43 C42 1_555 1_555
C44 N8 1_555 1_555
C45 C46 1_555 1_555
C46 C47 1_555 1_555
C47 C48 1_555 1_555
C48 C49 1_555 1_555
C49 C50 1_555 1_555
C50 C45 1_555 1_555
C51 C52 1_555 1_555
C52 C53 1_555 1_555
C53 C54 1_555 1_555
C54 C55 1_555 1_555
C55 C56 1_555 1_555
C56 C51 1_555 1_555
C57 C58 1_555 1_555
C58 C59 1_555 1_555
C59 C60 1_555 1_555
C60 C61 1_555 1_555
C61 C62 1_555 1_555
C62 C57 1_555 1_555
C63 C64 1_555 1_555
C64 C65 1_555 1_555
C65 C66 1_555 1_555
C66 C67 1_555 1_555
C67 C68 1_555 1_555
C68 C63 1_555 1_555
C69 H59 1_555 1_555
C70 H62 1_555 1_555
B1 C45 1_555 1_555
H1 C2 1_555 1_555
H2 C3 1_555 1_555
H3 C5 1_555 1_555
H4 C7 1_555 1_555
H5 C9 1_555 1_555
H6 C9 1_555 1_555
H7 C9 1_555 1_555
H8 C10 1_555 1_555
H9 C10 1_555 1_555
H10 C10 1_555 1_555
H11 C12 1_555 1_555
H12 C12 1_555 1_555
H13 C12 1_555 1_555
H14 C13 1_555 1_555
H15 C13 1_555 1_555
H16 C13 1_555 1_555
H17 C14 1_555 1_555
H18 C16 1_555 1_555
H19 C18 1_555 1_555
H20 C19 1_555 1_555
H21 C21 1_555 1_555
H22 C23 1_555 1_555
H23 C24 1_555 1_555
H24 C25 1_555 1_555
H25 C26 1_555 1_555
H26 C27 1_555 1_555
H27 C29 1_555 1_555
H28 C30 1_555 1_555
H29 C31 1_555 1_555
H30 C32 1_555 1_555
H31 C33 1_555 1_555
H32 C34 1_555 1_555
H33 C35 1_555 1_555
H34 C38 1_555 1_555
H35 C39 1_555 1_555
H36 C42 1_555 1_555
H37 C43 1_555 1_555
H38 C44 1_555 1_555
H39 C46 1_555 1_555
H40 C47 1_555 1_555
H41 C48 1_555 1_555
H42 C49 1_555 1_555
H43 C50 1_555 1_555
H44 C52 1_555 1_555
H45 C53 1_555 1_555
H46 C54 1_555 1_555
H47 C55 1_555 1_555
H48 C56 1_555 1_555
H49 C58 1_555 1_555
H50 C59 1_555 1_555
H51 C60 1_555 1_555
H52 C61 1_555 1_555
H53 C62 1_555 1_555
H54 C64 1_555 1_555
H55 C65 1_555 1_555
H56 C66 1_555 1_555
H57 C67 1_555 1_555
H58 C68 1_555 1_555
H60 C69 1_555 1_555
H61 C69 1_555 1_555
H63 C70 1_555 1_555
H64 C70 1_555 1_555
Mn1_2 O4 1_555 1_555
O4_2 Mn1 1_555 1_555
C6 C7 1_555 1_555
C8 C11 1_555 1_555
C15 C20 1_555 1_555
C19 C20 1_555 1_555
C21 C22 1_555 1_555
C25 C26 1_555 1_555
C27 C28 1_555 1_555
C31 C32 1_555 1_555
C36 C37 1_555 1_555
C37 C41 1_555 1_555
C40 C41 1_555 1_555
C43 C44 1_555 1_555
C51 B1 1_555 1_555
C57 B1 1_555 1_555
C63 B1 1_555 1_555

#END
