
#######################################################################
#
#                 Cambridge Crystallographic Data Centre
#                                CCDC 
#
#######################################################################
#
# If this CIF has been generated from an entry in the Cambridge 
# Structural Database, then it will include bibliographic, chemical, 
# crystal, experimental, refinement or atomic coordinate data resulting 
# from the CCDC's data processing and validation procedures.
#
#######################################################################

data_NUSMOD
_symmetry_cell_setting           monoclinic
_symmetry_space_group_name_H-M   'P 21'
_symmetry_Int_Tables_number      4
_space_group_name_Hall           'P 2yb'
loop_
_symmetry_equiv_pos_site_id
_symmetry_equiv_pos_as_xyz
1 x,y,z
2 -x,1/2+y,-z
_cell_length_a                   9.1237(8)
_cell_length_b                   5.5531(14)
_cell_length_c                   12.4390(10)
_cell_angle_alpha                90
_cell_angle_beta                 91.182(8)
_cell_angle_gamma                90
_cell_volume                     630.086
loop_
_atom_site_label
_atom_site_type_symbol
_atom_site_fract_x
_atom_site_fract_y
_atom_site_fract_z
Ag1 Ag 0.18223(3) -0.47880(5) 0.04459(2)
S1 S 0.08515(8) 0.0035(3) 0.18311(6)
O1 O 0.0116(3) -0.1172(6) 0.0926(2)
O2 O 0.2248(3) -0.1052(6) 0.2091(2)
O3 O 0.0919(3) 0.2634(5) 0.1692(2)
C1 C -0.0290(3) -0.0437(6) 0.2944(3)
C2 C -0.0160(4) -0.2553(8) 0.3519(3)
H1 H 0.0560(4) -0.3668(8) 0.3348(3)
C3 C -0.1112(4) -0.3010(8) 0.4356(3)
H2 H -0.1012(4) -0.4423(8) 0.4752(3)
C4 C -0.2213(4) -0.1371(10) 0.4607(3)
C5 C -0.3234(5) -0.1894(17) 0.5520(4)
H3 H -0.2809(5) -0.3109(17) 0.5978(4)
H4 H -0.4158(5) -0.2454(17) 0.5233(4)
H5 H -0.3384(5) -0.0450(17) 0.5928(4)
C6 C -0.2321(4) 0.0726(9) 0.4014(3)
H6 H -0.3046(4) 0.1839(9) 0.4174(3)
C7 C -0.1371(4) 0.1204(7) 0.3186(3)
H7 H -0.1462(4) 0.2625(7) 0.2794(3)
N1 N 0.3185(3) -0.2484(6) -0.0625(2)
C8 C 0.4512(4) -0.3054(7) -0.1013(3)
H8 H 0.4943(4) -0.4500(7) -0.0799(3)
C9 C 0.5248(4) -0.1616(9) -0.1702(3)
H9 H 0.6145(4) -0.2104(9) -0.1970(3)
C10 C 0.4644(4) 0.0611(10) -0.2005(3)
H10 H 0.5143(4) 0.1663(10) -0.2449(3)
C11 C 0.3284(4) 0.1182(8) -0.1620(3)
H11 H 0.2830(4) 0.2617(8) -0.1822(3)
C12 C 0.2599(4) -0.0380(6) -0.0935(3)
H12 H 0.1686(4) 0.0045(6) -0.0676(3)
Ag1A Ag -0.18223(3) 0.02120(5) -0.04459(2)
Ag1_2 Ag 0.18223(3) 0.52120(5) 0.04459(2)
O3_2 O 0.0919(3) -0.7366(5) 0.1692(2)
O1A O -0.0116(3) -0.6172(6) -0.0926(2)
loop_
_geom_bond_atom_site_label_1
_geom_bond_atom_site_label_2
_geom_bond_site_symmetry_1
_geom_bond_site_symmetry_2
Ag1 O1 1_555 1_555
S1 O1 1_555 1_555
O1 Ag1A 1_555 1_555
O2 S1 1_555 1_555
O3 S1 1_555 1_555
C1 S1 1_555 1_555
C2 C1 1_555 1_555
H1 C2 1_555 1_555
C3 C2 1_555 1_555
H2 C3 1_555 1_555
C4 C3 1_555 1_555
C5 C4 1_555 1_555
H3 C5 1_555 1_555
H4 C5 1_555 1_555
H5 C5 1_555 1_555
C6 C4 1_555 1_555
H6 C6 1_555 1_555
C7 C1 1_555 1_555
H7 C7 1_555 1_555
N1 Ag1 1_555 1_555
C8 N1 1_555 1_555
H8 C8 1_555 1_555
C9 C8 1_555 1_555
H9 C9 1_555 1_555
C10 C9 1_555 1_555
H10 C10 1_555 1_555
C11 C10 1_555 1_555
H11 C11 1_555 1_555
C12 N1 1_555 1_555
H12 C12 1_555 1_555
Ag1_2 O3 1_555 1_555
O3_2 Ag1 1_555 1_555
O1A Ag1 1_555 1_555
C6 C7 1_555 1_555
C11 C12 1_555 1_555

#END
