
#######################################################################
#
#                 Cambridge Crystallographic Data Centre
#                                CCDC 
#
#######################################################################
#
# If this CIF has been generated from an entry in the Cambridge 
# Structural Database, then it will include bibliographic, chemical, 
# crystal, experimental, refinement or atomic coordinate data resulting 
# from the CCDC's data processing and validation procedures.
#
#######################################################################

data_NUSNEU
_symmetry_cell_setting           monoclinic
_symmetry_space_group_name_H-M   'C 2/c'
_symmetry_Int_Tables_number      15
_space_group_name_Hall           '-C 2yn'
loop_
_symmetry_equiv_pos_site_id
_symmetry_equiv_pos_as_xyz
1 x,y,z
2 -x,y,1/2-z
3 1/2+x,1/2+y,z
4 1/2-x,1/2+y,1/2-z
5 -x,-y,-z
6 x,-y,1/2+z
7 1/2-x,1/2-y,-z
8 1/2+x,1/2-y,1/2+z
_cell_length_a                   21.312(6)
_cell_length_b                   10.6500(10)
_cell_length_c                   17.565(5)
_cell_angle_alpha                90
_cell_angle_beta                 110.580(10)
_cell_angle_gamma                90
_cell_volume                     3732.35
loop_
_atom_site_label
_atom_site_type_symbol
_atom_site_fract_x
_atom_site_fract_y
_atom_site_fract_z
N1 N 0.0311(2) 0.1801(4) 0.2049(2)
C1 C 0.0000 0.1208(6) 0.2500
C2 C 0.0000 0.3717(7) 0.2500
H1 H 0.0000 0.4590(7) 0.2500
C3 C 0.0301(2) 0.3054(5) 0.2049(3)
N2 N 0.0000 -0.0042(5) 0.2500
H2 H 0.0193 -0.0446(5) 0.2220
H3 H -0.0193 -0.0446(5) 0.2780
C4 C 0.0635(3) 0.3715(5) 0.1544(4)
H4 H 0.1111(3) 0.3582(5) 0.1775(4)
H5 H 0.0542(3) 0.4598(5) 0.1534(4)
H6 H 0.0468(3) 0.3389(5) 0.1000(4)
N3 N 0.1966(2) 0.1093(4) 0.1506(2)
C5 C 0.2170(2) 0.1693(5) 0.0950(3)
N4 N 0.2819(2) 0.1973(4) 0.1069(2)
C6 C 0.3272(2) 0.1714(5) 0.1785(3)
C7 C 0.3098(3) 0.1153(5) 0.2397(3)
H7 H 0.3417(3) 0.1012(5) 0.2910(3)
C8 C 0.2441(3) 0.0812(4) 0.2220(3)
N5 N 0.1717(2) 0.2026(6) 0.0244(3)
H8 H 0.1840(2) 0.2403(6) -0.0114(3)
H9 H 0.1300(2) 0.1866(6) 0.0144(3)
C9 C 0.3983(2) 0.2033(6) 0.1895(3)
H10 H 0.4139(2) 0.1485(6) 0.1565(3)
H11 H 0.4259(2) 0.1930(6) 0.2456(3)
H12 H 0.4007(2) 0.2888(6) 0.1735(3)
C10 C 0.2222(3) 0.0028(6) 0.2797(4)
H13 H 0.2580(3) -0.0023(6) 0.3313(4)
H14 H 0.2107(3) -0.0800(6) 0.2577(4)
H15 H 0.1838(3) 0.0410(6) 0.2868(4)
C11 C 0.0808(2) -0.2445(4) 0.0135(3)
C12 C 0.1013(2) -0.1451(5) -0.0234(3)
H16 H 0.0871(2) -0.0637(5) -0.0193(3)
C13 C 0.1431(3) -0.1696(5) -0.0665(3)
H17 H 0.1568(3) -0.1034(5) -0.0915(3)
C14 C 0.1649(2) -0.2888(5) -0.0736(3)
C15 C 0.1437(3) -0.3858(5) -0.0367(4)
H18 H 0.1580(3) -0.4672(5) -0.0410(4)
C16 C 0.1015(3) -0.3640(5) 0.0067(3)
H19 H 0.0873(3) -0.4305(5) 0.0309(3)
S1 S 0.02567(6) -0.21417(11) 0.06746(7)
O1 O 0.0628(2) -0.1362(4) 0.1374(2)
O2 O 0.0306(2) 0.1448(4) -0.0118(2)
O3 O 0.0076(2) -0.3338(3) 0.0909(2)
C17 C 0.2104(3) -0.3131(7) -0.1219(4)
H20 H 0.2289(3) -0.3961(7) -0.1103(4)
H21 H 0.1851(3) -0.3058(7) -0.1789(4)
H22 H 0.2462(3) -0.2526(7) -0.1069(4)
Ag1 Ag 0.08701(2) 0.08179(4) 0.13342(3)
N1A N -0.0311(2) 0.1801(4) 0.2951(2)
C3A C -0.0301(2) 0.3054(5) 0.2951(3)
O2D O -0.0306(2) -0.1448(4) 0.0118(2)
Ag1D Ag -0.08701(2) -0.08179(4) -0.13342(3)
N1D N -0.0311(2) -0.1801(4) -0.2049(2)
N3D N -0.1966(2) -0.1093(4) -0.1506(2)
C5D C -0.2170(2) -0.1693(5) -0.0950(3)
N4D N -0.2819(2) -0.1973(4) -0.1069(2)
C6D C -0.3272(2) -0.1714(5) -0.1785(3)
C7D C -0.3098(3) -0.1153(5) -0.2397(3)
H7D H -0.3417(3) -0.1012(5) -0.2910(3)
C8D C -0.2441(3) -0.0812(4) -0.2220(3)
C10D C -0.2222(3) -0.0028(6) -0.2797(4)
H13D H -0.2580(3) 0.0023(6) -0.3313(4)
H14D H -0.2107(3) 0.0800(6) -0.2577(4)
H15D H -0.1838(3) -0.0410(6) -0.2868(4)
C9D C -0.3983(2) -0.2033(6) -0.1895(3)
H10D H -0.4139(2) -0.1485(6) -0.1565(3)
H11D H -0.4259(2) -0.1930(6) -0.2456(3)
H12D H -0.4007(2) -0.2888(6) -0.1735(3)
N5D N -0.1717(2) -0.2026(6) -0.0244(3)
H8D H -0.1840(2) -0.2403(6) 0.0114(3)
H9D H -0.1300(2) -0.1866(6) -0.0144(3)
O1D O -0.0628(2) 0.1362(4) -0.1374(2)
S1D S -0.02567(6) 0.21417(11) -0.06746(7)
C11D C -0.0808(2) 0.2445(4) -0.0135(3)
C12D C -0.1013(2) 0.1451(5) 0.0234(3)
H16D H -0.0871(2) 0.0637(5) 0.0193(3)
C13D C -0.1431(3) 0.1696(5) 0.0665(3)
H17D H -0.1568(3) 0.1034(5) 0.0915(3)
C14D C -0.1649(2) 0.2888(5) 0.0736(3)
C15D C -0.1437(3) 0.3858(5) 0.0367(4)
H18D H -0.1580(3) 0.4672(5) 0.0410(4)
C16D C -0.1015(3) 0.3640(5) -0.0067(3)
H19D H -0.0873(3) 0.4305(5) -0.0309(3)
C17D C -0.2104(3) 0.3131(7) 0.1219(4)
H20D H -0.2289(3) 0.3961(7) 0.1103(4)
H21D H -0.1851(3) 0.3058(7) 0.1789(4)
H22D H -0.2462(3) 0.2526(7) 0.1069(4)
O3D O -0.0076(2) 0.3338(3) -0.0909(2)
C4A C -0.0635(3) 0.3715(5) 0.3456(4)
H4A H -0.1111(3) 0.3582(5) 0.3225(4)
H5A H -0.0542(3) 0.4598(5) 0.3466(4)
H6A H -0.0468(3) 0.3389(5) 0.4000(4)
Ag1A Ag -0.08701(2) 0.08179(4) 0.36658(3)
loop_
_geom_bond_atom_site_label_1
_geom_bond_atom_site_label_2
_geom_bond_site_symmetry_1
_geom_bond_site_symmetry_2
N1 C1 1_555 1_555
C1 N2 1_555 1_555
C2 H1 1_555 1_555
C3 N1 1_555 1_555
N2 H2 1_555 1_555
H3 N2 1_555 1_555
C4 C3 1_555 1_555
H4 C4 1_555 1_555
H5 C4 1_555 1_555
H6 C4 1_555 1_555
N3 C5 1_555 1_555
C5 N4 1_555 1_555
N4 C6 1_555 1_555
C6 C7 1_555 1_555
C7 H7 1_555 1_555
C8 N3 1_555 1_555
N5 C5 1_555 1_555
H8 N5 1_555 1_555
H9 N5 1_555 1_555
C9 C6 1_555 1_555
H10 C9 1_555 1_555
H11 C9 1_555 1_555
H12 C9 1_555 1_555
C10 C8 1_555 1_555
H13 C10 1_555 1_555
H14 C10 1_555 1_555
H15 C10 1_555 1_555
C11 C12 1_555 1_555
C12 H16 1_555 1_555
C13 C12 1_555 1_555
H17 C13 1_555 1_555
C14 C13 1_555 1_555
C15 C14 1_555 1_555
H18 C15 1_555 1_555
C16 C11 1_555 1_555
H19 C16 1_555 1_555
S1 C11 1_555 1_555
O1 S1 1_555 1_555
O2 Ag1 1_555 1_555
O3 S1 1_555 1_555
C17 C14 1_555 1_555
H20 C17 1_555 1_555
H21 C17 1_555 1_555
H22 C17 1_555 1_555
Ag1 N1 1_555 1_555
N1A C1 1_555 1_555
C3A C2 1_555 1_555
O2D S1 1_555 1_555
Ag1D O2D 1_555 1_555
N1D Ag1D 1_555 1_555
N3D Ag1D 1_555 1_555
C5D N3D 1_555 1_555
N4D C5D 1_555 1_555
C6D N4D 1_555 1_555
C7D C6D 1_555 1_555
H7D C7D 1_555 1_555
C8D N3D 1_555 1_555
C10D C8D 1_555 1_555
H13D C10D 1_555 1_555
H14D C10D 1_555 1_555
H15D C10D 1_555 1_555
C9D C6D 1_555 1_555
H10D C9D 1_555 1_555
H11D C9D 1_555 1_555
H12D C9D 1_555 1_555
N5D C5D 1_555 1_555
H8D N5D 1_555 1_555
H9D N5D 1_555 1_555
O1D Ag1D 1_555 1_555
S1D O2 1_555 1_555
C11D S1D 1_555 1_555
C12D C11D 1_555 1_555
H16D C12D 1_555 1_555
C13D C12D 1_555 1_555
H17D C13D 1_555 1_555
C14D C13D 1_555 1_555
C15D C14D 1_555 1_555
H18D C15D 1_555 1_555
C16D C11D 1_555 1_555
H19D C16D 1_555 1_555
C17D C14D 1_555 1_555
H20D C17D 1_555 1_555
H21D C17D 1_555 1_555
H22D C17D 1_555 1_555
O3D S1D 1_555 1_555
C4A C3A 1_555 1_555
H4A C4A 1_555 1_555
H5A C4A 1_555 1_555
H6A C4A 1_555 1_555
Ag1A N1A 1_555 1_555
C2 C3 1_555 1_555
N3 Ag1 1_555 1_555
C7 C8 1_555 1_555
C15 C16 1_555 1_555
O1 Ag1 1_555 1_555
N1A C3A 1_555 1_555
C7D C8D 1_555 1_555
O1D S1D 1_555 1_555
C15D C16D 1_555 1_555

#END
