
#######################################################################
#
#                 Cambridge Crystallographic Data Centre
#                                CCDC 
#
#######################################################################
#
# If this CIF has been generated from an entry in the Cambridge 
# Structural Database, then it will include bibliographic, chemical, 
# crystal, experimental, refinement or atomic coordinate data resulting 
# from the CCDC's data processing and validation procedures.
#
#######################################################################

data_NUSNAQ
_symmetry_cell_setting           monoclinic
_symmetry_space_group_name_H-M   'P 21/n'
_symmetry_Int_Tables_number      14
_space_group_name_Hall           '-P 2yn'
loop_
_symmetry_equiv_pos_site_id
_symmetry_equiv_pos_as_xyz
1 x,y,z
2 1/2-x,1/2+y,1/2-z
3 -x,-y,-z
4 1/2+x,1/2-y,1/2+z
_cell_length_a                   6.535(2)
_cell_length_b                   7.3440(8)
_cell_length_c                   26.134(12)
_cell_angle_alpha                90
_cell_angle_beta                 90.440(10)
_cell_angle_gamma                90
_cell_volume                     1254.21
loop_
_atom_site_label
_atom_site_type_symbol
_atom_site_fract_x
_atom_site_fract_y
_atom_site_fract_z
S1 S 0.4651(5) 0.0942(4) 0.09785(12)
O1 O 0.3367(16) 0.0815(16) 0.0517(4)
O2 O 0.6007(16) 0.2523(14) 0.0973(4)
O3 O 0.5734(16) -0.0737(14) 0.1080(4)
C1 C 0.2968(20) 0.1251(17) 0.1498(4)
C2 C 0.0958(19) 0.0640(17) 0.1455(5)
H1 H 0.0482(19) 0.0117(17) 0.1153(5)
C3 C -0.0330(21) 0.0831(19) 0.1877(5)
H2 H -0.1676(21) 0.0427(19) 0.1853(5)
C4 C 0.0368(22) 0.1616(19) 0.2331(5)
C5 C -0.1055(28) 0.1796(27) 0.2774(6)
H3 H -0.195(12) 0.0762(78) 0.2783(26)
H4 H -0.185(12) 0.2888(82) 0.2736(23)
H5 H -0.0275(29) 0.185(16) 0.3086(7)
C6 C 0.2319(26) 0.2224(21) 0.2356(6)
H6 H 0.2784(26) 0.2782(21) 0.2654(6)
C7 C 0.3661(21) 0.2033(19) 0.1941(5)
H7 H 0.5007(21) 0.2435(19) 0.1968(5)
N1 N 0.1138(14) 0.3193(14) -0.0504(4)
C8 C -0.0675(17) 0.3060(16) -0.0249(4)
N2 N -0.0625(16) 0.2382(16) 0.0213(4)
N3 N -0.2488(14) 0.3582(15) -0.0451(4)
C9 C -0.2507(19) 0.4282(18) -0.0921(5)
H8 H -0.3739(19) 0.4688(18) -0.1060(5)
C10 C -0.0728(20) 0.4426(19) -0.1211(5)
H9 H -0.0755(20) 0.4881(19) -0.1543(5)
C11 C 0.1072(20) 0.3857(18) -0.0981(5)
H10 H 0.2283(20) 0.3940(18) -0.1164(5)
H11 H 0.048(31) 0.175(29) 0.0358(75)
H12 H -0.157(20) 0.232(16) 0.0484(51)
Ag1 Ag 0.43846(14) 0.2717(2) -0.01915(4)
N3_2 N 0.7512(14) 0.3582(15) -0.0451(4)
Ag1_2 Ag -0.56154(14) 0.2717(2) -0.01915(4)
loop_
_geom_bond_atom_site_label_1
_geom_bond_atom_site_label_2
_geom_bond_site_symmetry_1
_geom_bond_site_symmetry_2
S1 O1 1_555 1_555
O1 Ag1 1_555 1_555
O2 S1 1_555 1_555
O3 S1 1_555 1_555
C1 S1 1_555 1_555
C2 C1 1_555 1_555
H1 C2 1_555 1_555
C3 C2 1_555 1_555
H2 C3 1_555 1_555
C4 C3 1_555 1_555
C5 C4 1_555 1_555
H3 C5 1_555 1_555
H4 C5 1_555 1_555
H5 C5 1_555 1_555
C6 C4 1_555 1_555
H6 C6 1_555 1_555
C7 C1 1_555 1_555
H7 C7 1_555 1_555
N1 C8 1_555 1_555
C8 N2 1_555 1_555
N2 H11 1_555 1_555
N3 C8 1_555 1_555
C9 N3 1_555 1_555
H8 C9 1_555 1_555
C10 C9 1_555 1_555
H9 C10 1_555 1_555
C11 N1 1_555 1_555
H10 C11 1_555 1_555
H12 N2 1_555 1_555
Ag1 N1 1_555 1_555
N3_2 Ag1 1_555 1_555
Ag1_2 N3 1_555 1_555
C6 C7 1_555 1_555
C10 C11 1_555 1_555

#END
