
#######################################################################
#
#                 Cambridge Crystallographic Data Centre
#                                CCDC 
#
#######################################################################
#
# If this CIF has been generated from an entry in the Cambridge 
# Structural Database, then it will include bibliographic, chemical, 
# crystal, experimental, refinement or atomic coordinate data resulting 
# from the CCDC's data processing and validation procedures.
#
#######################################################################

data_NUSQUN
_symmetry_cell_setting           triclinic
_symmetry_space_group_name_H-M   'P -1'
_symmetry_Int_Tables_number      2
_space_group_name_Hall           '-P 1'
loop_
_symmetry_equiv_pos_site_id
_symmetry_equiv_pos_as_xyz
1 x,y,z
2 -x,-y,-z
_cell_length_a                   9.547(2)
_cell_length_b                   11.191(2)
_cell_length_c                   12.667(3)
_cell_angle_alpha                74.19(3)
_cell_angle_beta                 76.16(3)
_cell_angle_gamma                77.62(3)
_cell_volume                     1248.11
loop_
_atom_site_label
_atom_site_type_symbol
_atom_site_fract_x
_atom_site_fract_y
_atom_site_fract_z
Mn1 Mn 0.5000 0.0000 -0.5000
Mn2 Mn 0.35866(8) 0.08591(6) -0.76391(5)
Mn3 Mn 0.58898(8) 0.14418(6) -1.05269(5)
Cl1 Cl 0.3263(2) -0.07498(12) -0.58040(10)
Cl2 Cl 0.51668(15) 0.17322(11) -0.67945(9)
Cl3 Cl 0.38156(13) 0.26033(10) -0.94195(9)
Cl4 Cl 0.57934(12) -0.04028(9) -0.87673(8)
Cl5 Cl 0.20671(12) -0.02014(11) -0.84069(9)
O1 O 0.3159(4) 0.1198(3) -0.4191(3)
O2 O 0.1560(4) 0.2059(3) -0.7011(3)
O3 O 0.5788(4) 0.3098(3) -1.1967(3)
O4 O 0.7470(4) 0.2320(3) -1.0105(3)
C1 C 0.1874(7) 0.0792(6) -0.3475(5)
C2 C 0.1106(9) 0.1813(8) -0.2948(8)
C3 C 0.1772(9) 0.2889(7) -0.3475(8)
C4 C 0.3235(8) 0.2411(6) -0.4092(7)
C5 C 0.1453(9) 0.3333(6) -0.7059(8)
C6 C -0.0058(10) 0.3785(8) -0.6671(9)
C7 C -0.0818(9) 0.2743(8) -0.6232(9)
C8 C 0.0211(6) 0.1649(6) -0.6472(6)
C9 C 0.6992(6) 0.3365(5) -1.2882(5)
C10 C 0.6366(8) 0.4301(7) -1.3770(5)
C11 C 0.4903(8) 0.4833(6) -1.3300(5)
C12 C 0.4595(7) 0.4065(6) -1.2143(5)
C13 C 0.8835(6) 0.1716(5) -0.9777(5)
C14 C 0.9630(8) 0.2739(7) -0.9879(8)
C15 C 0.8496(8) 0.3833(6) -0.9714(9)
C16 C 0.720 0.358 -0.996
H1 H 0.2126 0.0040 -0.2913
H2 H 0.1265 0.0603 -0.3902
H3 H 0.0088 0.1991 -0.3018
H4 H 0.1147 0.1576 -0.2158
H5 H 0.1876 0.3306 -0.2926
H6 H 0.1197 0.3479 -0.3988
H7 H 0.3458 0.2964 -0.4826
H8 H 0.3991 0.2365 -0.3682
H9 H 0.1778 0.3786 -0.7820
H10 H 0.2054 0.3449 -0.6588
H11 H -0.0145 0.4233 -0.6095
H12 H -0.0474 0.4361 -0.7284
H13 H -0.1653 0.2868 -0.6583
H14 H -0.1162 0.2638 -0.5432
H15 H 0.0320 0.1021 -0.5785
H16 H -0.0132 0.1279 -0.6954
H17 H 0.7469 0.2608 -1.3135
H18 H 0.7704 0.3693 -1.2653
H19 H 0.6965 0.4959 -1.4091
H20 H 0.6332 0.3910 -1.4357
H21 H 0.4205 0.4781 -1.3724
H22 H 0.4857 0.5708 -1.3301
H23 H 0.4441 0.4589 -1.1616
H24 H 0.3716 0.3707 -1.2027
H25 H 0.9378 0.1168 -1.0263
H26 H 0.8675 0.1221 -0.9013
H27 H 1.0252 0.2922 -1.0612
H28 H 1.0233 0.2514 -0.9315
H29 H 0.8374 0.3957 -0.8967
H30 H 0.8758 0.4591 -1.0253
H31 H 0.6417 0.3559 -0.9209
H32 H 0.6817 0.4165 -1.0496
Cl1A Cl 0.6737(2) 0.07498(12) -0.41960(10)
Cl2A Cl 0.48332(15) -0.17322(11) -0.32055(9)
O1A O 0.6841(4) -0.1198(3) -0.5809(3)
C1A C 0.8126(7) -0.0792(6) -0.6525(5)
C2A C 0.8894(9) -0.1813(8) -0.7052(8)
C3A C 0.8228(9) -0.2889(7) -0.6525(8)
C4A C 0.6765(8) -0.2411(6) -0.5908(7)
H1A H 0.7874 -0.0040 -0.7087
H2A H 0.8735 -0.0603 -0.6098
H3A H 0.9912 -0.1991 -0.6982
H4A H 0.8853 -0.1576 -0.7842
H5A H 0.8124 -0.3306 -0.7074
H6A H 0.8803 -0.3479 -0.6012
H7A H 0.6542 -0.2964 -0.5174
H8A H 0.6009 -0.2365 -0.6318
Mn2A Mn 0.64134(8) -0.08591(6) -0.23609(5)
Cl3A Cl 0.61844(13) -0.26033(10) -0.05805(9)
Cl4A Cl 0.42066(12) 0.04028(9) -0.12327(8)
Cl5A Cl 0.79329(12) 0.02014(11) -0.15931(9)
O2A O 0.8440(4) -0.2059(3) -0.2989(3)
C5A C 0.8547(9) -0.3333(6) -0.2941(8)
C6A C 1.0058(10) -0.3785(8) -0.3329(9)
C7A C 1.0818(9) -0.2743(8) -0.3768(9)
C8A C 0.9789(6) -0.1649(6) -0.3528(6)
H9A H 0.8222 -0.3786 -0.2180
H10A H 0.7946 -0.3449 -0.3412
H11A H 1.0145 -0.4233 -0.3905
H12A H 1.0474 -0.4361 -0.2716
H13A H 1.1653 -0.2868 -0.3417
H14A H 1.1162 -0.2638 -0.4568
H15A H 0.9680 -0.1021 -0.4215
H16A H 1.0132 -0.1279 -0.3046
Mn3A Mn 0.41102(8) -0.14418(6) 0.05269(5)
O3A O 0.4212(4) -0.3098(3) 0.1967(3)
C9A C 0.3008(6) -0.3365(5) 0.2882(5)
C10A C 0.3634(8) -0.4301(7) 0.3770(5)
C11A C 0.5097(8) -0.4833(6) 0.3300(5)
C12A C 0.5405(7) -0.4065(6) 0.2143(5)
H17A H 0.2531 -0.2608 0.3135
H18A H 0.2296 -0.3693 0.2653
H19A H 0.3035 -0.4959 0.4091
H20A H 0.3668 -0.3910 0.4357
H21A H 0.5795 -0.4781 0.3724
H22A H 0.5143 -0.5708 0.3301
H23A H 0.5559 -0.4589 0.1616
H24A H 0.6284 -0.3707 0.2027
O4A O 0.2530(4) -0.2320(3) 0.0105(3)
C13A C 0.1165(6) -0.1716(5) -0.0223(5)
C14A C 0.0370(8) -0.2739(7) -0.0121(8)
C15A C 0.1504(8) -0.3833(6) -0.0286(9)
C16A C 0.280 -0.358 -0.004
H25A H 0.0622 -0.1168 0.0263
H26A H 0.1325 -0.1221 -0.0987
H27A H -0.0252 -0.2922 0.0612
H28A H -0.0233 -0.2514 -0.0685
H29A H 0.1626 -0.3957 -0.1033
H30A H 0.1242 -0.4591 0.0253
H31A H 0.3583 -0.3559 -0.0791
H32A H 0.3183 -0.4165 0.0496
Cl4A_2 Cl 0.42066(12) 0.04028(9) -1.12327(8)
Cl5A_2 Cl 0.79329(12) 0.02014(11) -1.15931(9)
Mn3A_2 Mn 0.41102(8) -0.14418(6) -0.94731(5)
Mn3_2 Mn 0.58898(8) 0.14418(6) -0.05269(5)
Cl4_2 Cl 0.57934(12) -0.04028(9) 0.12327(8)
Cl5_2 Cl 0.20671(12) -0.02014(11) 0.15931(9)
loop_
_geom_bond_atom_site_label_1
_geom_bond_atom_site_label_2
_geom_bond_site_symmetry_1
_geom_bond_site_symmetry_2
Mn1 Cl1 1_555 1_555
Mn2 Cl1 1_555 1_555
Mn3 Cl3 1_555 1_555
Cl2 Mn1 1_555 1_555
Cl3 Mn2 1_555 1_555
Cl4 Mn2 1_555 1_555
Cl5 Mn2 1_555 1_555
O1 Mn1 1_555 1_555
O2 Mn2 1_555 1_555
O3 Mn3 1_555 1_555
O4 Mn3 1_555 1_555
C1 O1 1_555 1_555
C2 C1 1_555 1_555
C3 C2 1_555 1_555
C4 O1 1_555 1_555
C5 O2 1_555 1_555
C6 C5 1_555 1_555
C7 C6 1_555 1_555
C8 O2 1_555 1_555
C9 O3 1_555 1_555
C10 C9 1_555 1_555
C11 C10 1_555 1_555
C12 O3 1_555 1_555
C13 O4 1_555 1_555
C14 C13 1_555 1_555
C15 C14 1_555 1_555
C16 O4 1_555 1_555
H1 C1 1_555 1_555
H2 C1 1_555 1_555
H3 C2 1_555 1_555
H4 C2 1_555 1_555
H5 C3 1_555 1_555
H6 C3 1_555 1_555
H7 C4 1_555 1_555
H8 C4 1_555 1_555
H9 C5 1_555 1_555
H10 C5 1_555 1_555
H11 C6 1_555 1_555
H12 C6 1_555 1_555
H13 C7 1_555 1_555
H14 C7 1_555 1_555
H15 C8 1_555 1_555
H16 C8 1_555 1_555
H17 C9 1_555 1_555
H18 C9 1_555 1_555
H19 C10 1_555 1_555
H20 C10 1_555 1_555
H21 C11 1_555 1_555
H22 C11 1_555 1_555
H23 C12 1_555 1_555
H24 C12 1_555 1_555
H25 C13 1_555 1_555
H26 C13 1_555 1_555
H27 C14 1_555 1_555
H28 C14 1_555 1_555
H29 C15 1_555 1_555
H30 C15 1_555 1_555
H31 C16 1_555 1_555
H32 C16 1_555 1_555
Cl1A Mn1 1_555 1_555
Cl2A Mn1 1_555 1_555
O1A Mn1 1_555 1_555
C1A O1A 1_555 1_555
C2A C1A 1_555 1_555
C3A C2A 1_555 1_555
C4A O1A 1_555 1_555
H1A C1A 1_555 1_555
H2A C1A 1_555 1_555
H3A C2A 1_555 1_555
H4A C2A 1_555 1_555
H5A C3A 1_555 1_555
H6A C3A 1_555 1_555
H7A C4A 1_555 1_555
H8A C4A 1_555 1_555
Mn2A Cl1A 1_555 1_555
Cl3A Mn2A 1_555 1_555
Cl4A Mn2A 1_555 1_555
Cl5A Mn2A 1_555 1_555
O2A Mn2A 1_555 1_555
C5A O2A 1_555 1_555
C6A C5A 1_555 1_555
C7A C6A 1_555 1_555
C8A O2A 1_555 1_555
H9A C5A 1_555 1_555
H10A C5A 1_555 1_555
H11A C6A 1_555 1_555
H12A C6A 1_555 1_555
H13A C7A 1_555 1_555
H14A C7A 1_555 1_555
H15A C8A 1_555 1_555
H16A C8A 1_555 1_555
Mn3A Cl3A 1_555 1_555
O3A Mn3A 1_555 1_555
C9A O3A 1_555 1_555
C10A C9A 1_555 1_555
C11A C10A 1_555 1_555
C12A O3A 1_555 1_555
H17A C9A 1_555 1_555
H18A C9A 1_555 1_555
H19A C10A 1_555 1_555
H20A C10A 1_555 1_555
H21A C11A 1_555 1_555
H22A C11A 1_555 1_555
H23A C12A 1_555 1_555
H24A C12A 1_555 1_555
O4A Mn3A 1_555 1_555
C13A O4A 1_555 1_555
C14A C13A 1_555 1_555
C15A C14A 1_555 1_555
C16A O4A 1_555 1_555
H25A C13A 1_555 1_555
H26A C13A 1_555 1_555
H27A C14A 1_555 1_555
H28A C14A 1_555 1_555
H29A C15A 1_555 1_555
H30A C15A 1_555 1_555
H31A C16A 1_555 1_555
H32A C16A 1_555 1_555
Cl4A_2 Mn3 1_555 1_555
Cl5A_2 Mn3 1_555 1_555
Mn3A_2 Cl4 1_555 1_555
Mn3_2 Cl4A 1_555 1_555
Cl4_2 Mn3A 1_555 1_555
Cl5_2 Mn3A 1_555 1_555
Mn2 Cl2 1_555 1_555
Mn3 Cl4 1_555 1_555
Cl5 Mn3A_2 1_555 1_555
C3 C4 1_555 1_555
C7 C8 1_555 1_555
C11 C12 1_555 1_555
C15 C16 1_555 1_555
Cl2A Mn2A 1_555 1_555
C3A C4A 1_555 1_555
Cl4A Mn3A 1_555 1_555
Cl5A Mn3_2 1_555 1_555
C7A C8A 1_555 1_555
C11A C12A 1_555 1_555
C15A C16A 1_555 1_555
Cl4A_2 Mn3A_2 1_555 1_555
Mn3_2 Cl4_2 1_555 1_555

#END
