
#######################################################################
#
#                 Cambridge Crystallographic Data Centre
#                                CCDC 
#
#######################################################################
#
# If this CIF has been generated from an entry in the Cambridge 
# Structural Database, then it will include bibliographic, chemical, 
# crystal, experimental, refinement or atomic coordinate data resulting 
# from the CCDC's data processing and validation procedures.
#
#######################################################################

data_NUSRUP
_symmetry_cell_setting           triclinic
_symmetry_space_group_name_H-M   'P -1'
_symmetry_Int_Tables_number      2
_space_group_name_Hall           '-P 1'
loop_
_symmetry_equiv_pos_site_id
_symmetry_equiv_pos_as_xyz
1 x,y,z
2 -x,-y,-z
_cell_length_a                   8.3817(17)
_cell_length_b                   10.928(2)
_cell_length_c                   16.550(3)
_cell_angle_alpha                81.095(3)
_cell_angle_beta                 75.774(3)
_cell_angle_gamma                83.425(3)
_cell_volume                     1447.07
loop_
_atom_site_label
_atom_site_type_symbol
_atom_site_fract_x
_atom_site_fract_y
_atom_site_fract_z
Hg1 Hg -0.08639(4) -0.11202(2) 0.666418(19)
Na1 Na 0.1527(3) -0.7153(2) 0.77420(17)
Na2 Na 0.0833(4) 0.4571(3) 0.59271(18)
N1 N -0.0541(9) 0.2678(7) 0.6663(6)
N2 N 0.0191(9) -0.5014(6) 0.7490(4)
N3 N -0.1567(8) -0.4028(6) 0.5543(4)
N4 N 0.2369(9) -0.3555(6) 0.5601(4)
O1 O 0.2038(8) -0.6823(5) 0.9058(3)
O2 O 0.3884(6) -0.5915(5) 0.7712(3)
O3 O 0.3349(6) -0.6745(5) 0.6311(3)
O4 O 0.2630(6) -0.9086(5) 0.7209(3)
O5 O 0.1006(6) -0.8997(4) 0.8892(3)
S1 S -0.2302(2) 0.06221(18) 0.74753(14)
S2 S -0.0060(4) -0.26136(19) 0.79159(14)
S3 S -0.3317(2) -0.20270(19) 0.63360(14)
S4 S 0.1529(3) -0.0991(2) 0.54286(16)
C1 C 0.2658(9) -0.5744(7) 0.9137(4)
C2 C 0.2380(9) -0.5182(7) 0.9846(5)
H1 H 0.1711 -0.5532 1.0344
C3 C 0.3103(9) -0.4074(7) 0.9826(5)
C4 C 0.2874(11) -0.3477(9) 1.0547(6)
H2 H 0.2241 -0.3829 1.1056
C5 C 0.3566(12) -0.2390(9) 1.0511(7)
H3 H 0.3379 -0.1990 1.0987
C6 C 0.4562(12) -0.1887(8) 0.9748(8)
H4 H 0.5050 -0.1156 0.9727
C7 C 0.4834(10) -0.2433(7) 0.9045(6)
H5 H 0.5491 -0.2070 0.8548
C8 C 0.4129(9) -0.3554(6) 0.9055(5)
C9 C 0.4373(9) -0.4150(7) 0.8327(5)
H6 H 0.5016 -0.3800 0.7821
C10 C 0.3680(8) -0.5229(6) 0.8360(4)
C11 C 0.4673(10) -0.5359(8) 0.6892(4)
H7 H 0.5727 -0.5082 0.6899
H8 H 0.3988 -0.4648 0.6704
C12 C 0.4917(10) -0.6330(9) 0.6318(5)
H9 H 0.5460 -0.5990 0.5753
H10 H 0.5621 -0.7029 0.6505
C13 C 0.3545(10) -0.7849(7) 0.5905(5)
H11 H 0.4428 -0.7763 0.5401
H12 H 0.2536 -0.7929 0.5737
C14 C 0.3931(9) -0.9000(7) 0.6462(5)
H13 H 0.4006 -0.9723 0.6177
H14 H 0.4979 -0.8960 0.6603
C15 C 0.2921(10) -1.0087(7) 0.7820(5)
H15 H 0.3876 -0.9963 0.8022
H16 H 0.3132 -1.0860 0.7578
C16 C 0.1400(10) -1.0138(7) 0.8537(6)
H17 H 0.0472 -1.0318 0.8334
H18 H 0.1582 -1.0808 0.8971
C17 C 0.1830(10) -0.8936(8) 0.9532(5)
H19 H 0.3013 -0.9090 0.9324
H20 H 0.1465 -0.9559 1.0008
C18 C 0.1433(9) -0.7657(7) 0.9796(4)
H21 H 0.0251 -0.7491 0.9999
H22 H 0.1973 -0.7575 1.0238
C19 C -0.1243(9) 0.1826(7) 0.6979(6)
C20 C 0.0060(9) -0.4013(7) 0.7642(5)
C21 C -0.2244(9) -0.3212(7) 0.5871(4)
C22 C 0.2030(9) -0.2522(8) 0.5545(5)
Na2_2 Na 0.0833(4) -0.5429(3) 0.59271(18)
Na2A Na -0.0833(4) -0.4571(3) 0.40729(18)
N2_2 N 0.0191(9) 0.4986(6) 0.7490(4)
N3_2 N -0.1567(8) 0.5972(6) 0.5543(4)
N3A N 0.1567(8) 0.4028(6) 0.4457(4)
N4_2 N 0.2369(9) 0.6445(6) 0.5601(4)
O3_2 O 0.3349(6) 0.3255(5) 0.6311(3)
loop_
_geom_bond_atom_site_label_1
_geom_bond_atom_site_label_2
_geom_bond_site_symmetry_1
_geom_bond_site_symmetry_2
Hg1 S1 1_555 1_555
Na1 N2 1_555 1_555
Na2 N1 1_555 1_555
N1 C19 1_555 1_555
N2 C20 1_555 1_555
N3 C21 1_555 1_555
N4 C22 1_555 1_555
O1 Na1 1_555 1_555
O2 Na1 1_555 1_555
O3 Na1 1_555 1_555
O4 Na1 1_555 1_555
O5 Na1 1_555 1_555
S1 C19 1_555 1_555
S2 Hg1 1_555 1_555
S3 Hg1 1_555 1_555
S4 Hg1 1_555 1_555
C1 O1 1_555 1_555
C2 C1 1_555 1_555
H1 C2 1_555 1_555
C3 C2 1_555 1_555
C4 C3 1_555 1_555
H2 C4 1_555 1_555
C5 C4 1_555 1_555
H3 C5 1_555 1_555
C6 C5 1_555 1_555
H4 C6 1_555 1_555
C7 C6 1_555 1_555
H5 C7 1_555 1_555
C8 C3 1_555 1_555
C9 C8 1_555 1_555
H6 C9 1_555 1_555
C10 O2 1_555 1_555
C11 O2 1_555 1_555
H7 C11 1_555 1_555
H8 C11 1_555 1_555
C12 O3 1_555 1_555
H9 C12 1_555 1_555
H10 C12 1_555 1_555
C13 O3 1_555 1_555
H11 C13 1_555 1_555
H12 C13 1_555 1_555
C14 O4 1_555 1_555
H13 C14 1_555 1_555
H14 C14 1_555 1_555
C15 O4 1_555 1_555
H15 C15 1_555 1_555
H16 C15 1_555 1_555
C16 O5 1_555 1_555
H17 C16 1_555 1_555
H18 C16 1_555 1_555
C17 O5 1_555 1_555
H19 C17 1_555 1_555
H20 C17 1_555 1_555
C18 O1 1_555 1_555
H21 C18 1_555 1_555
H22 C18 1_555 1_555
C20 S2 1_555 1_555
C21 S3 1_555 1_555
C22 S4 1_555 1_555
Na2_2 N2 1_555 1_555
Na2A N3 1_555 1_555
N2_2 Na2 1_555 1_555
N3_2 Na2 1_555 1_555
N3A Na2 1_555 1_555
N4_2 Na2 1_555 1_555
O3_2 Na2 1_555 1_555
N3 Na2_2 1_555 1_555
N4 Na2_2 1_555 1_555
O3 Na2_2 1_555 1_555
C1 C10 1_555 1_555
C7 C8 1_555 1_555
C9 C10 1_555 1_555
C11 C12 1_555 1_555
C13 C14 1_555 1_555
C15 C16 1_555 1_555
C17 C18 1_555 1_555

#END
