
#######################################################################
#
#                 Cambridge Crystallographic Data Centre
#                                CCDC 
#
#######################################################################
#
# If this CIF has been generated from an entry in the Cambridge 
# Structural Database, then it will include bibliographic, chemical, 
# crystal, experimental, refinement or atomic coordinate data resulting 
# from the CCDC's data processing and validation procedures.
#
#######################################################################

data_NUSSUQ
_symmetry_cell_setting           triclinic
_symmetry_space_group_name_H-M   'P -1'
_symmetry_Int_Tables_number      2
_space_group_name_Hall           '-P 1'
loop_
_symmetry_equiv_pos_site_id
_symmetry_equiv_pos_as_xyz
1 x,y,z
2 -x,-y,-z
_cell_length_a                   6.5387(2)
_cell_length_b                   6.8051(3)
_cell_length_c                   19.2000(9)
_cell_angle_alpha                81.615(4)
_cell_angle_beta                 89.757(3)
_cell_angle_gamma                70.064(4)
_cell_volume                     793.601
loop_
_atom_site_label
_atom_site_type_symbol
_atom_site_fract_x
_atom_site_fract_y
_atom_site_fract_z
Na1 Na 0.92756(9) 0.27721(9) 0.47035(3)
O1 O 1.08807(16) -0.05076(17) 0.42675(6)
H1 H 0.9862 -0.0138 0.3917
H2 H 1.2167 -0.0934 0.4084
O2 O 1.24838(17) 0.36568(18) 0.49350(6)
H3 H 1.3256 0.2925 0.5372
H4 H 1.3565 0.3566 0.4627
C1 C 0.3832(2) 0.3027(2) 0.30451(7)
C2 C 0.3587(2) 0.1957(2) 0.24943(8)
C3 C 0.1563(2) 0.2622(3) 0.21249(9)
H5 H 0.1384 0.1935 0.1758
C4 C -0.0138(2) 0.4256(3) 0.22963(10)
H6 H -0.1472 0.4660 0.2049
C5 C 0.0081(2) 0.5321(3) 0.28291(10)
H7 H -0.1090 0.6447 0.2941
C6 C 0.2058(2) 0.4702(2) 0.31966(8)
H8 H 0.2207 0.5427 0.3557
C7 C 0.5915(2) 0.2410(2) 0.34756(7)
O3 O 0.59912(16) 0.34370(16) 0.39673(5)
O4 O 0.74919(16) 0.08895(18) 0.33411(6)
N1 N 0.5299(2) 0.0289(2) 0.23231(8)
H9 H 0.6637 0.0236 0.2494
C8 C 0.5272(2) -0.0866(2) 0.17694(8)
C9 C 0.6609(2) -0.0829(2) 0.12113(8)
C10 C 0.6687(3) -0.2114(2) 0.07019(9)
C11 C 0.5392(3) -0.3351(3) 0.07648(11)
H10 H 0.5438 -0.4213 0.0427
C12 C 0.4049(3) -0.3346(3) 0.13072(12)
H11 H 0.3171 -0.4178 0.1333
C13 C 0.3990(3) -0.2111(3) 0.18168(10)
H12 H 0.3087 -0.2115 0.2192
C14 C 0.7959(3) 0.0568(3) 0.11555(13)
H13 H 0.7370 0.1667 0.1438
H14 H 0.7945 0.1189 0.0673
H15 H 0.9429 -0.0255 0.1320
C15 C 0.8159(4) -0.2175(4) 0.00976(11)
H16 H 0.7988 -0.3133 -0.0199
H17 H 0.9644 -0.2645 0.0276
H18 H 0.7786 -0.0784 -0.0171
Na1A Na 1.07244(9) -0.27721(9) 0.52965(3)
Na1_2 Na 0.92756(9) -0.72279(9) 0.47035(3)
Na1A_2 Na 1.07244(9) 0.72279(9) 0.52965(3)
O1A O 0.91193(16) 0.05076(17) 0.57325(6)
H1A H 1.0138 0.0138 0.6083
H2A H 0.7833 0.0934 0.5916
O2A O 0.75162(17) -0.36568(18) 0.50650(6)
O2_2 O 1.24838(17) -0.63432(18) 0.49350(6)
O2A_2 O 0.75162(17) 0.63432(18) 0.50650(6)
H3A H 0.6744 -0.2925 0.4628
H3_2 H 1.3256 -0.7075 0.5372
H3A_2 H 0.6744 0.7075 0.4628
H4A H 0.6435 -0.3566 0.5373
H4_2 H 1.3565 -0.6434 0.4627
H4A_2 H 0.6435 0.6434 0.5373
C1A C 1.6168(2) -0.3027(2) 0.69549(7)
C2A C 1.6413(2) -0.1957(2) 0.75057(8)
C3A C 1.8437(2) -0.2622(3) 0.78751(9)
H5A H 1.8616 -0.1935 0.8242
C4A C 2.0138(2) -0.4256(3) 0.77037(10)
H6A H 2.1472 -0.4660 0.7951
C5A C 1.9919(2) -0.5321(3) 0.71709(10)
H7A H 2.1090 -0.6447 0.7059
C6A C 1.7942(2) -0.4702(2) 0.68034(8)
H8A H 1.7793 -0.5427 0.6443
C7A C 1.4085(2) -0.2410(2) 0.65244(7)
O3A O 1.40088(16) -0.34370(16) 0.60327(5)
O4A O 1.25081(16) -0.08895(18) 0.66589(6)
N1A N 1.4701(2) -0.0289(2) 0.76769(8)
H9A H 1.3363 -0.0236 0.7506
C8A C 1.4728(2) 0.0866(2) 0.82306(8)
C9A C 1.3391(2) 0.0829(2) 0.87887(8)
C10A C 1.3313(3) 0.2114(2) 0.92981(9)
C11A C 1.4608(3) 0.3351(3) 0.92352(11)
H10A H 1.4562 0.4213 0.9573
C12A C 1.5951(3) 0.3346(3) 0.86928(12)
H11A H 1.6829 0.4178 0.8667
C13A C 1.6010(3) 0.2111(3) 0.81832(10)
H12A H 1.6913 0.2115 0.7808
C14A C 1.2041(3) -0.0568(3) 0.88445(13)
H13A H 1.2630 -0.1667 0.8562
H14A H 1.2055 -0.1189 0.9327
H15A H 1.0571 0.0255 0.8680
C15A C 1.1841(4) 0.2175(4) 0.99024(11)
H16A H 1.2012 0.3133 1.0199
H17A H 1.0356 0.2645 0.9724
H18A H 1.2214 0.0784 1.0171
O5 O 0.49380(17) 0.22887(16) 0.61900(6)
H19 H 0.4643 0.3572 0.6243
H20 H 0.4485 0.1701 0.6603
loop_
_geom_bond_atom_site_label_1
_geom_bond_atom_site_label_2
_geom_bond_site_symmetry_1
_geom_bond_site_symmetry_2
Na1 O1 1_555 1_555
O1 H1 1_555 1_555
H2 O1 1_555 1_555
O2 Na1 1_555 1_555
H3 O2 1_555 1_555
H4 O2 1_555 1_555
C1 C2 1_555 1_555
C2 C3 1_555 1_555
C3 H5 1_555 1_555
C4 C3 1_555 1_555
H6 C4 1_555 1_555
C5 C4 1_555 1_555
H7 C5 1_555 1_555
C6 C1 1_555 1_555
H8 C6 1_555 1_555
C7 C1 1_555 1_555
O3 Na1 1_555 1_555
O4 C7 1_555 1_555
N1 C2 1_555 1_555
H9 N1 1_555 1_555
C8 N1 1_555 1_555
C9 C8 1_555 1_555
C10 C9 1_555 1_555
C11 C10 1_555 1_555
H10 C11 1_555 1_555
C12 C11 1_555 1_555
H11 C12 1_555 1_555
C13 C8 1_555 1_555
H12 C13 1_555 1_555
C14 C9 1_555 1_555
H13 C14 1_555 1_555
H14 C14 1_555 1_555
H15 C14 1_555 1_555
C15 C10 1_555 1_555
H16 C15 1_555 1_555
H17 C15 1_555 1_555
H18 C15 1_555 1_555
O5 H19 1_555 1_555
H20 O5 1_555 1_555
Na1A O1 1_555 1_555
Na1_2 O2A 1_555 1_555
Na1A_2 O2 1_555 1_555
O1A Na1 1_555 1_555
H1A O1A 1_555 1_555
H2A O1A 1_555 1_555
O2A Na1A 1_555 1_555
O2_2 Na1A 1_555 1_555
O2A_2 Na1 1_555 1_555
H3A O2A 1_555 1_555
H3_2 O2_2 1_555 1_555
H3A_2 O2A_2 1_555 1_555
H4A O2A 1_555 1_555
H4_2 O2_2 1_555 1_555
H4A_2 O2A_2 1_555 1_555
C1A C2A 1_555 1_555
C2A C3A 1_555 1_555
C3A H5A 1_555 1_555
C4A C3A 1_555 1_555
H6A C4A 1_555 1_555
C5A C4A 1_555 1_555
H7A C5A 1_555 1_555
C6A C1A 1_555 1_555
H8A C6A 1_555 1_555
C7A C1A 1_555 1_555
O3A Na1A 1_555 1_555
O4A C7A 1_555 1_555
N1A C2A 1_555 1_555
H9A N1A 1_555 1_555
C8A N1A 1_555 1_555
C9A C8A 1_555 1_555
C10A C9A 1_555 1_555
C11A C10A 1_555 1_555
H10A C11A 1_555 1_555
C12A C11A 1_555 1_555
H11A C12A 1_555 1_555
C13A C8A 1_555 1_555
H12A C13A 1_555 1_555
C14A C9A 1_555 1_555
H13A C14A 1_555 1_555
H14A C14A 1_555 1_555
H15A C14A 1_555 1_555
C15A C10A 1_555 1_555
H16A C15A 1_555 1_555
H17A C15A 1_555 1_555
H18A C15A 1_555 1_555
C5 C6 1_555 1_555
C7 O3 1_555 1_555
C12 C13 1_555 1_555
Na1A O1A 1_555 1_555
Na1_2 O2_2 1_555 1_555
Na1A_2 O2A_2 1_555 1_555
C5A C6A 1_555 1_555
C7A O3A 1_555 1_555
C12A C13A 1_555 1_555

#END
