
#######################################################################
#
#                 Cambridge Crystallographic Data Centre
#                                CCDC 
#
#######################################################################
#
# If this CIF has been generated from an entry in the Cambridge 
# Structural Database, then it will include bibliographic, chemical, 
# crystal, experimental, refinement or atomic coordinate data resulting 
# from the CCDC's data processing and validation procedures.
#
#######################################################################

data_NUSSAW
_symmetry_cell_setting           triclinic
_symmetry_space_group_name_H-M   'P -1'
_symmetry_Int_Tables_number      2
_space_group_name_Hall           '-P 1'
loop_
_symmetry_equiv_pos_site_id
_symmetry_equiv_pos_as_xyz
1 x,y,z
2 -x,-y,-z
_cell_length_a                   10.5402(18)
_cell_length_b                   11.4834(19)
_cell_length_c                   11.7018(19)
_cell_angle_alpha                90.877(2)
_cell_angle_beta                 107.684(2)
_cell_angle_gamma                108.050(2)
_cell_volume                     1273.62
loop_
_atom_site_label
_atom_site_type_symbol
_atom_site_fract_x
_atom_site_fract_y
_atom_site_fract_z
Cd1 Cd 0.03490(2) 0.755542(18) 0.976612(18)
Na1 Na -0.20723(11) 0.62763(9) 1.26759(9)
S1 S 0.07333(9) 0.68214(7) 1.18896(7)
S2 S 0.25654(9) 0.80390(7) 0.91569(8)
S3 S -0.18506(8) 0.79690(7) 0.83761(7)
N1 N 0.0749(3) 0.4456(2) 1.1273(2)
N2 N 0.2250(3) 0.5777(2) 0.7955(2)
N3 N -0.1364(3) 1.0393(2) 0.9272(2)
O1 O -0.0332(2) 0.67583(17) 1.46926(16)
O2 O -0.08733(19) 0.84497(17) 1.33517(16)
O3 O -0.28867(19) 0.75536(17) 1.11826(16)
O4 O -0.4612(2) 0.56206(18) 1.19512(17)
O5 O -0.3137(2) 0.55748(18) 1.43178(18)
C1 C 0.0737(3) 0.7888(2) 1.4926(2)
C2 C 0.2015(3) 0.8122(3) 1.5795(2)
H1 H 0.2176 0.7525 1.6294
C3 C 0.3102(3) 0.9266(3) 1.5944(2)
C4 C 0.4450(3) 0.9536(3) 1.6831(3)
H2 H 0.4622 0.8965 1.7359
C5 C 0.5489(3) 1.0617(3) 1.6917(3)
H3 H 0.6371 1.0775 1.7496
C6 C 0.5247(3) 1.1491(3) 1.6144(3)
H4 H 0.5972 1.2225 1.6206
C7 C 0.3946(3) 1.1283(3) 1.5290(3)
H5 H 0.3791 1.1880 1.4789
C8 C 0.2842(3) 1.0157(3) 1.5175(2)
C9 C 0.1496(3) 0.9898(3) 1.4282(2)
H6 H 0.1316 1.0484 1.3774
C10 C 0.0472(3) 0.8796(2) 1.4170(2)
C11 C -0.1220(3) 0.9290(3) 1.2519(3)
H7 H -0.1078 1.0073 1.2949
H8 H -0.0633 0.9436 1.2003
C12 C -0.2741(3) 0.8696(3) 1.1781(3)
H9 H -0.3038 0.9227 1.1194
H10 H -0.3324 0.8560 1.2300
C13 C -0.4299(3) 0.6902(3) 1.0425(3)
H11 H -0.4667 0.7465 0.9924
H12 H -0.4287 0.6251 0.9895
C14 C -0.5265(3) 0.6345(3) 1.1145(3)
H13 H -0.6181 0.5832 1.0609
H14 H -0.5393 0.6991 1.1596
C15 C -0.5313(3) 0.5146(3) 1.2784(3)
H15 H -0.5484 0.5802 1.3181
H16 H -0.6214 0.4522 1.2365
C16 C -0.4405(3) 0.4594(3) 1.3698(3)
H17 H -0.4197 0.3961 1.3303
H18 H -0.4880 0.4225 1.4261
C17 C -0.2100(3) 0.5216(3) 1.5176(3)
H19 H -0.2446 0.4885 1.5823
H20 H -0.1876 0.4583 1.4797
C18 C -0.0816(3) 0.6331(3) 1.5669(3)
H21 H -0.0089 0.6122 1.6279
H22 H -0.1043 0.6968 1.6038
C19 C 0.0725(3) 0.5422(3) 1.1510(2)
C20 C 0.2354(3) 0.6690(3) 0.8457(2)
C21 C -0.1568(3) 0.9396(3) 0.8913(2)
Cd1A Cd -0.03490(2) 0.244458(18) 1.023388(18)
Cd1A_2 Cd -0.03490(2) 1.244458(18) 1.023388(18)
Na1A Na 0.20723(11) 0.37237(9) 0.73241(9)
N1A N -0.0749(3) 0.5544(2) 0.8727(2)
N2A N -0.2250(3) 0.4223(2) 1.2045(2)
N3A N 0.1364(3) 0.9607(2) 1.0728(2)
loop_
_geom_bond_atom_site_label_1
_geom_bond_atom_site_label_2
_geom_bond_site_symmetry_1
_geom_bond_site_symmetry_2
Cd1 S1 1_555 1_555
Na1 S1 1_555 1_555
S1 C19 1_555 1_555
S2 Cd1 1_555 1_555
S3 Cd1 1_555 1_555
N1 C19 1_555 1_555
N2 C20 1_555 1_555
N3 C21 1_555 1_555
O1 Na1 1_555 1_555
O2 Na1 1_555 1_555
O3 Na1 1_555 1_555
O4 Na1 1_555 1_555
O5 Na1 1_555 1_555
C1 O1 1_555 1_555
C2 C1 1_555 1_555
H1 C2 1_555 1_555
C3 C2 1_555 1_555
C4 C3 1_555 1_555
H2 C4 1_555 1_555
C5 C4 1_555 1_555
H3 C5 1_555 1_555
C6 C5 1_555 1_555
H4 C6 1_555 1_555
C7 C6 1_555 1_555
H5 C7 1_555 1_555
C8 C3 1_555 1_555
C9 C8 1_555 1_555
H6 C9 1_555 1_555
C10 O2 1_555 1_555
C11 O2 1_555 1_555
H7 C11 1_555 1_555
H8 C11 1_555 1_555
C12 O3 1_555 1_555
H9 C12 1_555 1_555
H10 C12 1_555 1_555
C13 O3 1_555 1_555
H11 C13 1_555 1_555
H12 C13 1_555 1_555
C14 O4 1_555 1_555
H13 C14 1_555 1_555
H14 C14 1_555 1_555
C15 O4 1_555 1_555
H15 C15 1_555 1_555
H16 C15 1_555 1_555
C16 O5 1_555 1_555
H17 C16 1_555 1_555
H18 C16 1_555 1_555
C17 O5 1_555 1_555
H19 C17 1_555 1_555
H20 C17 1_555 1_555
C18 O1 1_555 1_555
H21 C18 1_555 1_555
H22 C18 1_555 1_555
C20 S2 1_555 1_555
C21 S3 1_555 1_555
Cd1A N1 1_555 1_555
Cd1A_2 N3 1_555 1_555
Na1A N2 1_555 1_555
N1A Cd1 1_555 1_555
N2A Na1 1_555 1_555
N3A Cd1 1_555 1_555
C1 C10 1_555 1_555
C7 C8 1_555 1_555
C9 C10 1_555 1_555
C11 C12 1_555 1_555
C13 C14 1_555 1_555
C15 C16 1_555 1_555
C17 C18 1_555 1_555

#END
