
#######################################################################
#
#                 Cambridge Crystallographic Data Centre
#                                CCDC 
#
#######################################################################
#
# If this CIF has been generated from an entry in the Cambridge 
# Structural Database, then it will include bibliographic, chemical, 
# crystal, experimental, refinement or atomic coordinate data resulting 
# from the CCDC's data processing and validation procedures.
#
#######################################################################

data_NUSTEB
_symmetry_cell_setting           triclinic
_symmetry_space_group_name_H-M   'P -1'
_symmetry_Int_Tables_number      2
_space_group_name_Hall           '-P 1'
loop_
_symmetry_equiv_pos_site_id
_symmetry_equiv_pos_as_xyz
1 x,y,z
2 -x,-y,-z
_cell_length_a                   7.7226(2)
_cell_length_b                   10.8220(3)
_cell_length_c                   18.4199(5)
_cell_angle_alpha                97.231(2)
_cell_angle_beta                 91.459(2)
_cell_angle_gamma                106.269(3)
_cell_volume                     1463.04
loop_
_atom_site_label
_atom_site_type_symbol
_atom_site_fract_x
_atom_site_fract_y
_atom_site_fract_z
Ca1 Ca 0.6824(3) 0.4093(2) 0.51733(14)
O1 O 0.4288(12) 0.2404(8) 0.4589(6)
H1 H 0.3597 0.2804 0.4467
H2 H 0.3508 0.1815 0.4810
O2 O 0.7989(18) 0.2511(12) 0.5782(7)
H3 H 0.8616 0.1934 0.5883
H4 H 0.7252 0.2478 0.6139
O3 O 0.5987(11) 0.5211(8) 0.4281(5)
C1 C 0.5757(16) 0.5695(12) 0.3717(8)
O4 O 0.4496(11) 0.6244(9) 0.3669(5)
C2 C 0.6851(15) 0.5582(10) 0.3082(7)
C3 C 0.6377(16) 0.5822(10) 0.2386(7)
C4 C 0.7526(16) 0.5679(11) 0.1825(7)
H5 H 0.7236 0.5811 0.1353
C5 C 0.9101(17) 0.5342(12) 0.1971(9)
H6 H 0.9864 0.5280 0.1594
C6 C 0.9567(19) 0.5095(13) 0.2658(10)
H7 H 1.0607 0.4849 0.2745
C7 C 0.8422(16) 0.5229(11) 0.3211(8)
H8 H 0.8709 0.5080 0.3679
N1 N 0.4853(13) 0.6224(9) 0.2259(6)
H9 H 0.4368 0.6486 0.2642
C8 C 0.4007(16) 0.6252(12) 0.1577(6)
C9 C 0.3197(16) 0.7247(10) 0.1517(7)
C10 C 0.2247(18) 0.7216(12) 0.0865(7)
C11 C 0.2152(19) 0.6249(14) 0.0285(7)
H10 H 0.1545 0.6255 -0.0157
C12 C 0.294(2) 0.5291(13) 0.0358(8)
H11 H 0.2846 0.4635 -0.0032
C13 C 0.3861(17) 0.5281(11) 0.0989(7)
H12 H 0.4399 0.4622 0.1030
C14 C 0.334(2) 0.8290(13) 0.2142(8)
H13 H 0.3545 0.9111 0.1962
H14 H 0.4329 0.8322 0.2477
H15 H 0.2237 0.8110 0.2390
C15 C 0.131(2) 0.8224(15) 0.0790(9)
H16 H 0.0167 0.7994 0.1008
H17 H 0.1115 0.8280 0.0280
H18 H 0.2041 0.9049 0.1034
O5 O 0.8903(13) 0.3486(8) 0.4494(5)
C16 C 1.0094(15) 0.3201(11) 0.4116(6)
O6 O 1.1709(11) 0.3880(8) 0.4141(5)
C17 C 0.9621(15) 0.1923(11) 0.3626(7)
C18 C 1.0635(15) 0.1604(10) 0.3038(7)
C19 C 1.0083(17) 0.0365(12) 0.2646(7)
H19 H 1.0732 0.0153 0.2255
C20 C 0.860(2) -0.0550(12) 0.2826(9)
H20 H 0.8295 -0.1385 0.2567
C21 C 0.7563(19) -0.0280(13) 0.3364(8)
H21 H 0.6539 -0.0912 0.3466
C22 C 0.8056(16) 0.0998(12) 0.3781(8)
H22 H 0.7342 0.1206 0.4149
N2 N 1.2141(13) 0.2519(9) 0.2859(6)
H23 H 1.2410 0.3295 0.3091
C23 C 1.3266(16) 0.2226(10) 0.2304(7)
C24 C 1.2716(17) 0.2066(11) 0.1569(8)
C25 C 1.3965(18) 0.1771(11) 0.1053(7)
C26 C 1.562(2) 0.1744(14) 0.1285(10)
H24 H 1.6414 0.1580 0.0937
C27 C 1.6187(19) 0.1949(13) 0.2012(9)
H25 H 1.7344 0.1934 0.2155
C28 C 1.4967(16) 0.2187(12) 0.2549(9)
H26 H 1.5302 0.2311 0.3047
C29 C 1.0899(18) 0.2134(14) 0.1314(9)
H27 H 1.0342 0.2487 0.1719
H28 H 1.0156 0.1278 0.1124
H29 H 1.1030 0.2683 0.0936
C30 C 1.346(2) 0.1549(15) 0.0237(8)
H30 H 1.4275 0.1145 -0.0018
H31 H 1.3549 0.2368 0.0069
H32 H 1.2248 0.0995 0.0142
Ca1A Ca 0.3176(3) 0.5907(2) 0.48267(14)
Ca1A_2 Ca 1.3176(3) 0.5907(2) 0.48267(14)
O3A O 0.4013(11) 0.4789(8) 0.5719(5)
O4A O 0.5504(11) 0.3756(9) 0.6331(5)
O6A O 0.8291(11) 0.6120(8) 0.5859(5)
O7 O 1.078(2) 0.1430(16) 0.5436(9)
H33 H 1.1565 0.1867 0.5307
H34 H 1.0055 0.1806 0.5434
loop_
_geom_bond_atom_site_label_1
_geom_bond_atom_site_label_2
_geom_bond_site_symmetry_1
_geom_bond_site_symmetry_2
Ca1 O1 1_555 1_555
O1 H1 1_555 1_555
H2 O1 1_555 1_555
O2 Ca1 1_555 1_555
H3 O2 1_555 1_555
H4 O2 1_555 1_555
O3 Ca1 1_555 1_555
C1 O3 1_555 1_555
O4 C1 1_555 1_555
C2 C1 1_555 1_555
C3 C2 1_555 1_555
C4 C3 1_555 1_555
H5 C4 1_555 1_555
C5 C4 1_555 1_555
H6 C5 1_555 1_555
C6 C5 1_555 1_555
H7 C6 1_555 1_555
C7 C2 1_555 1_555
H8 C7 1_555 1_555
N1 C3 1_555 1_555
H9 N1 1_555 1_555
C8 N1 1_555 1_555
C9 C8 1_555 1_555
C10 C9 1_555 1_555
C11 C10 1_555 1_555
H10 C11 1_555 1_555
C12 C11 1_555 1_555
H11 C12 1_555 1_555
C13 C8 1_555 1_555
H12 C13 1_555 1_555
C14 C9 1_555 1_555
H13 C14 1_555 1_555
H14 C14 1_555 1_555
H15 C14 1_555 1_555
C15 C10 1_555 1_555
H16 C15 1_555 1_555
H17 C15 1_555 1_555
H18 C15 1_555 1_555
O5 Ca1 1_555 1_555
C16 O5 1_555 1_555
O6 C16 1_555 1_555
C17 C16 1_555 1_555
C18 C17 1_555 1_555
C19 C18 1_555 1_555
H19 C19 1_555 1_555
C20 C19 1_555 1_555
H20 C20 1_555 1_555
C21 C20 1_555 1_555
H21 C21 1_555 1_555
C22 C17 1_555 1_555
H22 C22 1_555 1_555
N2 C18 1_555 1_555
H23 N2 1_555 1_555
C23 N2 1_555 1_555
C24 C23 1_555 1_555
C25 C24 1_555 1_555
C26 C25 1_555 1_555
H24 C26 1_555 1_555
C27 C26 1_555 1_555
H25 C27 1_555 1_555
C28 C23 1_555 1_555
H26 C28 1_555 1_555
C29 C24 1_555 1_555
H27 C29 1_555 1_555
H28 C29 1_555 1_555
H29 C29 1_555 1_555
C30 C25 1_555 1_555
H30 C30 1_555 1_555
H31 C30 1_555 1_555
H32 C30 1_555 1_555
O7 H33 1_555 1_555
H34 O7 1_555 1_555
Ca1A O3 1_555 1_555
Ca1A_2 O6 1_555 1_555
O3A Ca1 1_555 1_555
O4A Ca1 1_555 1_555
O6A Ca1 1_555 1_555
O4 Ca1A 1_555 1_555
C6 C7 1_555 1_555
C12 C13 1_555 1_555
C21 C22 1_555 1_555
C27 C28 1_555 1_555
Ca1A O3A 1_555 1_555

#END
