
#######################################################################
#
#                 Cambridge Crystallographic Data Centre
#                                CCDC 
#
#######################################################################
#
# If this CIF has been generated from an entry in the Cambridge 
# Structural Database, then it will include bibliographic, chemical, 
# crystal, experimental, refinement or atomic coordinate data resulting 
# from the CCDC's data processing and validation procedures.
#
#######################################################################

data_NUSTOL
_symmetry_cell_setting           monoclinic
_symmetry_space_group_name_H-M   'C 2/c'
_symmetry_Int_Tables_number      15
_space_group_name_Hall           '-C 2yn'
loop_
_symmetry_equiv_pos_site_id
_symmetry_equiv_pos_as_xyz
1 x,y,z
2 -x,y,1/2-z
3 1/2+x,1/2+y,z
4 1/2-x,1/2+y,1/2-z
5 -x,-y,-z
6 x,-y,1/2+z
7 1/2-x,1/2-y,-z
8 1/2+x,1/2-y,1/2+z
_cell_length_a                   19.756(4)
_cell_length_b                   11.117(2)
_cell_length_c                   18.520(3)
_cell_angle_alpha                90
_cell_angle_beta                 100.60(3)
_cell_angle_gamma                90
_cell_volume                     3998.09
loop_
_atom_site_label
_atom_site_type_symbol
_atom_site_fract_x
_atom_site_fract_y
_atom_site_fract_z
Cu1 Cu 0.0000 0.40330(3) -0.2500
Cl1 Cl -0.50409(3) 0.30554(5) 0.00041(4)
O1 O 0.11403(7) 0.41524(13) -0.17284(8)
H1 H 0.1472 0.4518 -0.1828
H2 H 0.1291 0.3987 -0.1297
N1 N 0.0000 0.2212(2) -0.2500
N2 N 0.0000 -0.41345(19) -0.2500
N3 N -0.04644(8) 0.40445(14) -0.16217(9)
N4 N -0.02210(8) 0.47572(15) -0.10126(9)
N5 N -0.12629(8) 0.41130(15) -0.09607(9)
N6 N -0.18754(8) 0.40996(15) -0.06829(9)
C1 C 0.04854(13) 0.1588(2) -0.20595(14)
H3 H 0.0831 0.2016 -0.1736
C2 C 0.05075(13) 0.0352(2) -0.20525(15)
H4 H 0.0871 -0.0056 -0.1741
C3 C 0.0000 -0.0291(2) -0.2500
C4 C 0.0000 -0.1631(2) -0.2500
C5 C 0.05723(10) -0.22701(18) -0.26226(11)
H5 H 0.0973 -0.1860 -0.2703
C6 C 0.05491(10) -0.35101(18) -0.26250(11)
H6 H 0.0939 -0.3942 -0.2719
C7 C -0.23182(10) 0.33096(19) -0.09528(11)
H7 H -0.2220 0.2753 -0.1309
C8 C -0.29821(10) 0.32725(19) -0.07047(11)
C9 C -0.31585(11) 0.4118(2) -0.02132(12)
H8 H -0.2844 0.4741 -0.0030
C10 C -0.37904(11) 0.4051(2) 0.00071(13)
H9 H -0.3911 0.4620 0.0345
C11 C -0.40819(11) 0.2284(2) -0.07535(12)
H10 H -0.4397 0.1660 -0.0932
C12 C -0.42443(10) 0.3142(2) -0.02725(12)
C13 C -0.34426(10) 0.2358(2) -0.09698(11)
H11 H -0.3321 0.1780 -0.1301
C14 C -0.10843(10) 0.36590(18) -0.15779(11)
H12 H -0.1361 0.3147 -0.1922
C15 C -0.07126(10) 0.47840(18) -0.06336(11)
H13 H -0.0692 0.5215 -0.0187
Cu1_2 Cu 0.0000 -0.59670(3) -0.2500
Cl1A Cl 0.50409(3) 0.30554(5) -0.50041(4)
O1A O -0.11403(7) 0.41524(13) -0.32716(8)
H1A H -0.1472 0.4518 -0.3172
H2A H -0.1291 0.3987 -0.3703
N2_2 N 0.0000 0.58655(19) -0.2500
N3A N 0.04644(8) 0.40445(14) -0.33783(9)
N4A N 0.02210(8) 0.47572(15) -0.39874(9)
N5A N 0.12629(8) 0.41130(15) -0.40393(9)
N6A N 0.18754(8) 0.40996(15) -0.43171(9)
C1A C -0.04854(13) 0.1588(2) -0.29405(14)
H3A H -0.0831 0.2016 -0.3264
C2A C -0.05075(13) 0.0352(2) -0.29475(15)
H4A H -0.0871 -0.0056 -0.3259
C5A C -0.05723(10) -0.22701(18) -0.23774(11)
H5A H -0.0973 -0.1860 -0.2297
C6A C -0.05491(10) -0.35101(18) -0.23750(11)
H6A H -0.0939 -0.3942 -0.2281
C7A C 0.23182(10) 0.33096(19) -0.40472(11)
H7A H 0.2220 0.2753 -0.3691
C8A C 0.29821(10) 0.32725(19) -0.42953(11)
C9A C 0.31585(11) 0.4118(2) -0.47868(12)
H8A H 0.2844 0.4741 -0.4970
C10A C 0.37904(11) 0.4051(2) -0.50071(13)
H9A H 0.3911 0.4620 -0.5345
C11A C 0.40819(11) 0.2284(2) -0.42465(12)
H10A H 0.4397 0.1660 -0.4068
C12A C 0.42443(10) 0.3142(2) -0.47275(12)
C13A C 0.34426(10) 0.2358(2) -0.40302(11)
H11A H 0.3321 0.1780 -0.3699
C14A C 0.10843(10) 0.36590(18) -0.34221(11)
H12A H 0.1361 0.3147 -0.3078
C15A C 0.07126(10) 0.47840(18) -0.43664(11)
H13A H 0.0692 0.5215 -0.4813
N7 N -0.34432(10) 0.1984(2) -0.52989(12)
C16 C -0.32197(12) 0.2128(2) -0.46931(14)
C17 C -0.29391(17) 0.2279(3) -0.39206(15)
H14 H -0.2776 0.3107 -0.3830
H15 H -0.2554 0.1721 -0.3777
H16 H -0.3297 0.2111 -0.3632
B1 B -0.22541(14) 0.0348(2) -0.22225(16)
F1 F -0.19725(8) 0.14511(13) -0.23297(9)
F2 F -0.29424(8) 0.03492(17) -0.25925(13)
F3 F -0.19435(11) -0.05922(17) -0.25038(13)
F4 F -0.2298(2) 0.0173(2) -0.14931(12)
F5? F -0.2659(8) 0.0373(14) -0.1779(11)
F6? F -0.2377(9) -0.0227(13) -0.2778(9)
F7? F -0.1638(8) -0.0181(12) -0.1766(8)
loop_
_geom_bond_atom_site_label_1
_geom_bond_atom_site_label_2
_geom_bond_site_symmetry_1
_geom_bond_site_symmetry_2
Cu1 O1 1_555 1_555
Cl1 C12 1_555 1_555
O1 H1 1_555 1_555
H2 O1 1_555 1_555
N1 Cu1 1_555 1_555
N2 C6 1_555 1_555
N3 Cu1 1_555 1_555
N4 N3 1_555 1_555
N5 N6 1_555 1_555
N6 C7 1_555 1_555
C1 N1 1_555 1_555
H3 C1 1_555 1_555
C2 C1 1_555 1_555
H4 C2 1_555 1_555
C3 C2 1_555 1_555
C4 C3 1_555 1_555
C5 C4 1_555 1_555
H5 C5 1_555 1_555
C6 C5 1_555 1_555
H6 C6 1_555 1_555
C7 H7 1_555 1_555
C8 C7 1_555 1_555
C9 C8 1_555 1_555
H8 C9 1_555 1_555
C10 C9 1_555 1_555
H9 C10 1_555 1_555
C11 H10 1_555 1_555
C12 C10 1_555 1_555
C13 C8 1_555 1_555
H11 C13 1_555 1_555
C14 N3 1_555 1_555
H12 C14 1_555 1_555
C15 N4 1_555 1_555
H13 C15 1_555 1_555
N7 C16 1_555 1_555
C16 C17 1_555 1_555
C17 H14 1_555 1_555
H15 C17 1_555 1_555
H16 C17 1_555 1_555
B1 F1 1_555 1_555
F2 B1 1_555 1_555
F3 B1 1_555 1_555
F4 B1 1_555 1_555
Cu1_2 N2 1_555 1_555
Cl1A C12A 1_555 1_555
O1A Cu1 1_555 1_555
H1A O1A 1_555 1_555
H2A O1A 1_555 1_555
N2_2 Cu1 1_555 1_555
N3A Cu1 1_555 1_555
N4A N3A 1_555 1_555
N5A N6A 1_555 1_555
N6A C7A 1_555 1_555
C1A N1 1_555 1_555
H3A C1A 1_555 1_555
C2A C3 1_555 1_555
H4A C2A 1_555 1_555
C5A C4 1_555 1_555
H5A C5A 1_555 1_555
C6A N2 1_555 1_555
H6A C6A 1_555 1_555
C7A H7A 1_555 1_555
C8A C7A 1_555 1_555
C9A C8A 1_555 1_555
H8A C9A 1_555 1_555
C10A C9A 1_555 1_555
H9A C10A 1_555 1_555
C11A H10A 1_555 1_555
C12A C10A 1_555 1_555
C13A C8A 1_555 1_555
H11A C13A 1_555 1_555
C14A N3A 1_555 1_555
H12A C14A 1_555 1_555
C15A N4A 1_555 1_555
H13A C15A 1_555 1_555
N5 C14 1_555 1_555
N5 C15 1_555 1_555
C11 C12 1_555 1_555
C11 C13 1_555 1_555
N5A C14A 1_555 1_555
N5A C15A 1_555 1_555
C1A C2A 1_555 1_555
C5A C6A 1_555 1_555
C11A C12A 1_555 1_555
C11A C13A 1_555 1_555

#END
