
#######################################################################
#
#                 Cambridge Crystallographic Data Centre
#                                CCDC 
#
#######################################################################
#
# If this CIF has been generated from an entry in the Cambridge 
# Structural Database, then it will include bibliographic, chemical, 
# crystal, experimental, refinement or atomic coordinate data resulting 
# from the CCDC's data processing and validation procedures.
#
#######################################################################

data_NUSTIF
_symmetry_cell_setting           monoclinic
_symmetry_space_group_name_H-M   'C 2/c'
_symmetry_Int_Tables_number      15
_space_group_name_Hall           '-C 2yn'
loop_
_symmetry_equiv_pos_site_id
_symmetry_equiv_pos_as_xyz
1 x,y,z
2 -x,y,1/2-z
3 1/2+x,1/2+y,z
4 1/2-x,1/2+y,1/2-z
5 -x,-y,-z
6 x,-y,1/2+z
7 1/2-x,1/2-y,-z
8 1/2+x,1/2-y,1/2+z
_cell_length_a                   19.755(9)
_cell_length_b                   11.163(5)
_cell_length_c                   18.722(4)
_cell_angle_alpha                90
_cell_angle_beta                 99.45(3)
_cell_angle_gamma                90
_cell_volume                     4072.64
loop_
_atom_site_label
_atom_site_type_symbol
_atom_site_fract_x
_atom_site_fract_y
_atom_site_fract_z
Cu1 Cu 0.0000 0.40471(4) -0.2500
Cl1 Cl -0.50532(4) 0.30206(8) -0.00356(5)
O1 O 0.11331(11) 0.4152(2) -0.17578(12)
H1 H 0.1473 0.4521 -0.1833
H2 H 0.1280 0.3998 -0.1332
N1 N 0.0000 0.2229(3) -0.2500
N2 N 0.0000 -0.4125(3) -0.2500
N3 N -0.04550(12) 0.4056(2) -0.16146(13)
N4 N -0.02194(13) 0.4767(2) -0.10074(14)
N5 N -0.12569(12) 0.4118(2) -0.09486(13)
N6 N -0.18710(13) 0.4099(2) -0.06731(14)
C1 C 0.0382(2) 0.1604(3) -0.19673(19)
H3 H 0.0652 0.2031 -0.1583
C2 C 0.0402(2) 0.0367(3) -0.1954(2)
H4 H 0.0688 -0.0042 -0.1573
C3 C 0.0000 -0.0268(4) -0.2500
C4 C 0.0000 -0.1613(4) -0.2500
C5 C 0.05638(16) -0.2254(3) -0.26371(16)
H5 H 0.0963 -0.1847 -0.2730
C6 C 0.05414(16) -0.3491(3) -0.26380(16)
H6 H 0.0930 -0.3916 -0.2742
C7 C -0.23106(16) 0.3311(3) -0.09467(17)
H7 H -0.2203 0.2765 -0.1301
C8 C -0.29765(15) 0.3260(3) -0.07088(16)
C9 C -0.31664(16) 0.4091(3) -0.02180(17)
H8 H -0.2856 0.4705 -0.0027
C10 C -0.38064(16) 0.4020(3) -0.00104(18)
H9 H -0.3939 0.4583 0.0321
C11 C -0.40711(16) 0.2259(3) -0.07736(17)
H10 H -0.4378 0.1633 -0.0953
C12 C -0.42503(16) 0.3111(3) -0.02944(17)
C13 C -0.34357(16) 0.2351(3) -0.09790(17)
H11 H -0.3306 0.1785 -0.1311
C14 C -0.10741(15) 0.3668(3) -0.15692(16)
H12 H -0.1348 0.3162 -0.1909
C15 C -0.07131(15) 0.4786(3) -0.06273(17)
H13 H -0.0698 0.5208 -0.0184
Cu1_2 Cu 0.0000 -0.59529(4) -0.2500
Cl1A Cl 0.50532(4) 0.30206(8) -0.49644(5)
O1A O -0.11331(11) 0.4152(2) -0.32422(12)
H1A H -0.1473 0.4521 -0.3167
H2A H -0.1280 0.3998 -0.3668
N2_2 N 0.0000 0.5875(3) -0.2500
N3A N 0.04550(12) 0.4056(2) -0.33854(13)
N4A N 0.02194(13) 0.4767(2) -0.39926(14)
N5A N 0.12569(12) 0.4118(2) -0.40514(13)
N6A N 0.18710(13) 0.4099(2) -0.43269(14)
C1A C -0.0382(2) 0.1604(3) -0.30327(19)
H3A H -0.0652 0.2031 -0.3417
C2A C -0.0402(2) 0.0367(3) -0.3046(2)
H4A H -0.0688 -0.0042 -0.3427
C5A C -0.05638(16) -0.2254(3) -0.23629(16)
H5A H -0.0963 -0.1847 -0.2270
C6A C -0.05414(16) -0.3491(3) -0.23620(16)
H6A H -0.0930 -0.3916 -0.2258
C7A C 0.23106(16) 0.3311(3) -0.40533(17)
H7A H 0.2203 0.2765 -0.3699
C8A C 0.29765(15) 0.3260(3) -0.42912(16)
C9A C 0.31664(16) 0.4091(3) -0.47820(17)
H8A H 0.2856 0.4705 -0.4973
C10A C 0.38064(16) 0.4020(3) -0.49896(18)
H9A H 0.3939 0.4583 -0.5321
C11A C 0.40711(16) 0.2259(3) -0.42264(17)
H10A H 0.4378 0.1633 -0.4047
C12A C 0.42503(16) 0.3111(3) -0.47056(17)
C13A C 0.34357(16) 0.2351(3) -0.40210(17)
H11A H 0.3306 0.1785 -0.3689
C14A C 0.10741(15) 0.3668(3) -0.34308(16)
H12A H 0.1348 0.3162 -0.3091
C15A C 0.07131(15) 0.4786(3) -0.43727(17)
H13A H 0.0698 0.5208 -0.4816
N7 N -0.34493(16) 0.1997(3) -0.53376(18)
C16 C -0.32417(18) 0.2140(3) -0.4739(2)
C17 C -0.2983(2) 0.2305(4) -0.3963(2)
H14 H -0.2490 0.2130 -0.3865
H15 H -0.3225 0.1760 -0.3681
H16 H -0.3061 0.3134 -0.3826
Cl2 Cl -0.22070(4) 0.03902(7) -0.22761(5)
O2 O -0.29365(15) 0.0380(3) -0.2549(2)
O3 O -0.19329(18) -0.0574(3) -0.26174(19)
O4 O -0.2126(3) 0.0253(3) -0.15209(18)
O5 O -0.19518(16) 0.1521(3) -0.24575(17)
loop_
_geom_bond_atom_site_label_1
_geom_bond_atom_site_label_2
_geom_bond_site_symmetry_1
_geom_bond_site_symmetry_2
Cu1 O1 1_555 1_555
Cl1 C12 1_555 1_555
O1 H1 1_555 1_555
H2 O1 1_555 1_555
N1 Cu1 1_555 1_555
N2 C6 1_555 1_555
N3 Cu1 1_555 1_555
N4 N3 1_555 1_555
N5 N6 1_555 1_555
N6 C7 1_555 1_555
C1 N1 1_555 1_555
H3 C1 1_555 1_555
C2 C1 1_555 1_555
H4 C2 1_555 1_555
C3 C2 1_555 1_555
C4 C3 1_555 1_555
C5 C4 1_555 1_555
H5 C5 1_555 1_555
C6 C5 1_555 1_555
H6 C6 1_555 1_555
C7 H7 1_555 1_555
C8 C7 1_555 1_555
C9 C8 1_555 1_555
H8 C9 1_555 1_555
C10 C9 1_555 1_555
H9 C10 1_555 1_555
C11 H10 1_555 1_555
C12 C10 1_555 1_555
C13 C8 1_555 1_555
H11 C13 1_555 1_555
C14 N3 1_555 1_555
H12 C14 1_555 1_555
C15 N4 1_555 1_555
H13 C15 1_555 1_555
N7 C16 1_555 1_555
C16 C17 1_555 1_555
C17 H14 1_555 1_555
H15 C17 1_555 1_555
H16 C17 1_555 1_555
Cl2 O2 1_555 1_555
O3 Cl2 1_555 1_555
O4 Cl2 1_555 1_555
O5 Cl2 1_555 1_555
Cu1_2 N2 1_555 1_555
Cl1A C12A 1_555 1_555
O1A Cu1 1_555 1_555
H1A O1A 1_555 1_555
H2A O1A 1_555 1_555
N2_2 Cu1 1_555 1_555
N3A Cu1 1_555 1_555
N4A N3A 1_555 1_555
N5A N6A 1_555 1_555
N6A C7A 1_555 1_555
C1A N1 1_555 1_555
H3A C1A 1_555 1_555
C2A C3 1_555 1_555
H4A C2A 1_555 1_555
C5A C4 1_555 1_555
H5A C5A 1_555 1_555
C6A N2 1_555 1_555
H6A C6A 1_555 1_555
C7A H7A 1_555 1_555
C8A C7A 1_555 1_555
C9A C8A 1_555 1_555
H8A C9A 1_555 1_555
C10A C9A 1_555 1_555
H9A C10A 1_555 1_555
C11A H10A 1_555 1_555
C12A C10A 1_555 1_555
C13A C8A 1_555 1_555
H11A C13A 1_555 1_555
C14A N3A 1_555 1_555
H12A C14A 1_555 1_555
C15A N4A 1_555 1_555
H13A C15A 1_555 1_555
N5 C14 1_555 1_555
N5 C15 1_555 1_555
C11 C12 1_555 1_555
C11 C13 1_555 1_555
N5A C14A 1_555 1_555
N5A C15A 1_555 1_555
C1A C2A 1_555 1_555
C5A C6A 1_555 1_555
C11A C12A 1_555 1_555
C11A C13A 1_555 1_555

#END
