
#######################################################################
#
#                 Cambridge Crystallographic Data Centre
#                                CCDC 
#
#######################################################################
#
# If this CIF has been generated from an entry in the Cambridge 
# Structural Database, then it will include bibliographic, chemical, 
# crystal, experimental, refinement or atomic coordinate data resulting 
# from the CCDC's data processing and validation procedures.
#
#######################################################################

data_NUSTUR
_symmetry_cell_setting           monoclinic
_symmetry_space_group_name_H-M   'P 21'
_symmetry_Int_Tables_number      4
_space_group_name_Hall           'P 2yb'
loop_
_symmetry_equiv_pos_site_id
_symmetry_equiv_pos_as_xyz
1 x,y,z
2 -x,1/2+y,-z
_cell_length_a                   7.895(2)
_cell_length_b                   7.800(2)
_cell_length_c                   12.873(3)
_cell_angle_alpha                90
_cell_angle_beta                 100.06(3)
_cell_angle_gamma                90
_cell_volume                     780.544
loop_
_atom_site_label
_atom_site_type_symbol
_atom_site_fract_x
_atom_site_fract_y
_atom_site_fract_z
Cu1 Cu 0.38700(4) 0.69209(5) 0.78931(2)
O1 O 0.5076(2) 0.8343(3) 0.69962(16)
H1 H 0.4354 0.9068 0.6632
H2 H 0.5637 0.7742 0.6597
N2 N 0.3479(3) 0.5894(3) 0.9850(2)
O5 O 0.4554(2) 0.7070(4) 0.99987(16)
O6 O 0.2764(3) 0.5546(3) 0.88831(16)
O7 O 0.3047(3) 0.5030(3) 1.05665(18)
N3 N 0.1917(4) 0.5414(4) 0.6605(2)
N4 N 0.2160(3) 0.8791(3) 0.79572(19)
C1 C 0.2648(4) 1.0397(4) 0.8243(2)
H3 H 0.3843 1.0644 0.8399
C2 C 0.1502(3) 1.1709(5) 0.8321(2)
H4 H 0.1905 1.2821 0.8539
C3 C -0.0267(4) 1.1371(4) 0.8073(2)
C4 C -0.0768(4) 0.9702(4) 0.7795(2)
H5 H -0.1956 0.9420 0.7636
C5 C 0.0448(4) 0.8457(4) 0.7751(2)
H6 H 0.0077 0.7321 0.7569
C6 C -0.4378(4) 1.3849(4) 0.7340(3)
H7 H -0.5417 1.3743 0.6845
C7 C -0.3129(4) 1.2608(4) 0.7348(3)
H8 H -0.3314 1.1673 0.6869
C8 C -0.1594(4) 1.2739(4) 0.8066(2)
C9 C -0.1386(4) 1.4148(4) 0.8745(2)
H9 H -0.0356 1.4291 0.9243
C10 C -0.2712(4) 1.5343(4) 0.8683(2)
H10 H -0.2561 1.6301 0.9145
N5 N -0.4196(3) 1.5196(3) 0.7995(2)
C11 C 0.0994(4) 0.4499(5) 0.6060(3)
C12 C -0.0096(4) 0.3360(5) 0.5379(3)
H11 H 0.0582 0.2752 0.4926
H12 H -0.1011 0.4016 0.4940
H13 H -0.0608 0.2528 0.5804
Cu1_2 Cu -0.61300(4) 1.69209(5) 0.78931(2)
N5_2 N 0.5804(3) 0.5196(3) 0.7995(2)
N1 N 0.6130(3) 0.6081(4) 0.4992(2)
O2 O 0.7064(3) 0.6720(4) 0.57927(16)
O3 O 0.4591(3) 0.5790(4) 0.4978(2)
O4 O 0.6777(3) 0.5783(4) 0.4176(2)
loop_
_geom_bond_atom_site_label_1
_geom_bond_atom_site_label_2
_geom_bond_site_symmetry_1
_geom_bond_site_symmetry_2
Cu1 O1 1_555 1_555
O1 H1 1_555 1_555
H2 O1 1_555 1_555
N1 O2 1_555 1_555
O3 N1 1_555 1_555
O4 N1 1_555 1_555
N2 O5 1_555 1_555
O6 Cu1 1_555 1_555
O7 N2 1_555 1_555
N3 Cu1 1_555 1_555
N4 Cu1 1_555 1_555
C1 N4 1_555 1_555
H3 C1 1_555 1_555
C2 C1 1_555 1_555
H4 C2 1_555 1_555
C3 C2 1_555 1_555
C4 C3 1_555 1_555
H5 C4 1_555 1_555
C5 N4 1_555 1_555
H6 C5 1_555 1_555
C6 H7 1_555 1_555
C7 C6 1_555 1_555
H8 C7 1_555 1_555
C8 C3 1_555 1_555
C9 C8 1_555 1_555
H9 C9 1_555 1_555
C10 C9 1_555 1_555
H10 C10 1_555 1_555
N5 C6 1_555 1_555
C11 N3 1_555 1_555
C12 C11 1_555 1_555
H11 C12 1_555 1_555
H12 C12 1_555 1_555
H13 C12 1_555 1_555
Cu1_2 N5 1_555 1_555
N5_2 Cu1 1_555 1_555
N2 O6 1_555 1_555
C4 C5 1_555 1_555
C7 C8 1_555 1_555
C10 N5 1_555 1_555

#END
