
#######################################################################
#
#                 Cambridge Crystallographic Data Centre
#                                CCDC 
#
#######################################################################
#
# If this CIF has been generated from an entry in the Cambridge 
# Structural Database, then it will include bibliographic, chemical, 
# crystal, experimental, refinement or atomic coordinate data resulting 
# from the CCDC's data processing and validation procedures.
#
#######################################################################

data_NUSYUW
_symmetry_cell_setting           triclinic
_symmetry_space_group_name_H-M   'P -1'
_symmetry_Int_Tables_number      2
_space_group_name_Hall           '-P 1'
loop_
_symmetry_equiv_pos_site_id
_symmetry_equiv_pos_as_xyz
1 x,y,z
2 -x,-y,-z
_cell_length_a                   8.4076(7)
_cell_length_b                   10.0247(11)
_cell_length_c                   12.0437(10)
_cell_angle_alpha                74.826(2)
_cell_angle_beta                 72.0690(10)
_cell_angle_gamma                65.2300(10)
_cell_volume                     866.511
loop_
_atom_site_label
_atom_site_type_symbol
_atom_site_fract_x
_atom_site_fract_y
_atom_site_fract_z
Ni1 Ni 0.03857(4) 0.00841(3) 0.79398(2)
O1 O 0.1341(2) 0.12995(18) 0.84840(14)
O2 O 0.1594(3) 0.2978(2) 0.68625(14)
O3 O 0.3703(4) 0.3554(3) 1.1875(2)
O4 O 0.4468(3) 0.1408(2) 1.14124(17)
O5 O -0.1726(2) 0.05162(19) 0.94078(13)
H1 H -0.1558 -0.0218 0.9922
H2 H -0.1698 0.1140 0.9725
N1 N 0.2128(3) -0.0284(2) 0.63407(16)
N2 N -0.1117(3) 0.1751(2) 0.68550(17)
N3 N 0.3819(3) 0.2758(3) 1.12219(19)
C1 C 0.1749(3) 0.5700(3) 0.89102(19)
C2 C 0.1485(3) 0.4850(3) 0.82946(19)
H3 H 0.0927 0.5319 0.7664
C3 C 0.1634(3) 0.2472(2) 0.79013(19)
C4 C -0.0270(3) 0.1842(3) 0.5706(2)
C5 C 0.2033(3) 0.3315(3) 0.85941(19)
C6 C 0.2568(3) 0.5006(3) 0.9861(2)
H4 H 0.2758 0.5555 1.0287
C7 C 0.2857(3) 0.2611(3) 0.9544(2)
H5 H 0.3238 0.1584 0.9761
C8 C 0.3090(3) 0.3481(3) 1.0155(2)
C9 C 0.1481(3) 0.0616(3) 0.5406(2)
C10 C 0.3723(3) -0.1395(3) 0.6146(2)
H6 H 0.4170 -0.2019 0.6792
C11 C 0.4053(4) -0.0744(3) 0.4067(2)
H7 H 0.4697 -0.0904 0.3302
C12 C -0.2681(4) 0.2838(3) 0.7187(2)
H8 H -0.3283 0.2769 0.7977
C13 C 0.2413(3) 0.0401(3) 0.4255(2)
H9 H 0.1935 0.1024 0.3621
C14 C 0.4736(4) -0.1655(3) 0.5020(2)
H10 H 0.5851 -0.2426 0.4910
C15 C -0.2570(4) 0.4146(3) 0.5239(3)
H11 H -0.3054 0.4958 0.4696
C16 C -0.0980(4) 0.3024(3) 0.4882(2)
H12 H -0.0384 0.3059 0.4090
C17 C -0.3440(4) 0.4054(3) 0.6411(3)
H13 H -0.4522 0.4802 0.6674
O6 O -0.0014(2) 0.80226(18) 0.79411(14)
C18 C 0.1126(3) 0.7356(3) 0.85683(19)
O7 O 0.1794(2) 0.80625(18) 0.89045(14)
Ni1_2 Ni 0.03857(4) 1.00841(3) 0.79398(2)
O6_2 O -0.0014(2) -0.19774(18) 0.79411(14)
O7_2 O 0.1794(2) -0.19375(18) 0.89045(14)
loop_
_geom_bond_atom_site_label_1
_geom_bond_atom_site_label_2
_geom_bond_site_symmetry_1
_geom_bond_site_symmetry_2
Ni1 O1 1_555 1_555
O1 C3 1_555 1_555
O2 C3 1_555 1_555
O3 N3 1_555 1_555
O4 N3 1_555 1_555
O5 Ni1 1_555 1_555
H1 O5 1_555 1_555
H2 O5 1_555 1_555
N1 Ni1 1_555 1_555
N2 Ni1 1_555 1_555
N3 C8 1_555 1_555
C1 C2 1_555 1_555
C2 H3 1_555 1_555
C3 C5 1_555 1_555
C4 N2 1_555 1_555
C5 C2 1_555 1_555
C6 C1 1_555 1_555
H4 C6 1_555 1_555
C7 C5 1_555 1_555
H5 C7 1_555 1_555
C8 C6 1_555 1_555
C9 N1 1_555 1_555
C10 N1 1_555 1_555
H6 C10 1_555 1_555
C11 H7 1_555 1_555
C12 N2 1_555 1_555
H8 C12 1_555 1_555
C13 C9 1_555 1_555
H9 C13 1_555 1_555
C14 C10 1_555 1_555
H10 C14 1_555 1_555
C15 H11 1_555 1_555
C16 C4 1_555 1_555
H12 C16 1_555 1_555
C17 C12 1_555 1_555
H13 C17 1_555 1_555
O6 C18 1_555 1_555
C18 C1 1_555 1_555
O7 C18 1_555 1_555
Ni1_2 O6 1_555 1_555
O6_2 Ni1 1_555 1_555
O7_2 Ni1 1_555 1_555
C4 C9 1_555 1_555
C7 C8 1_555 1_555
C11 C13 1_555 1_555
C11 C14 1_555 1_555
C15 C16 1_555 1_555
C15 C17 1_555 1_555
O7 Ni1_2 1_555 1_555

#END
