
#######################################################################
#
#                 Cambridge Crystallographic Data Centre
#                                CCDC 
#
#######################################################################
#
# If this CIF has been generated from an entry in the Cambridge 
# Structural Database, then it will include bibliographic, chemical, 
# crystal, experimental, refinement or atomic coordinate data resulting 
# from the CCDC's data processing and validation procedures.
#
#######################################################################

data_NUSZAD
_symmetry_cell_setting           triclinic
_symmetry_space_group_name_H-M   'P -1'
_symmetry_Int_Tables_number      2
_space_group_name_Hall           '-P 1'
loop_
_symmetry_equiv_pos_site_id
_symmetry_equiv_pos_as_xyz
1 x,y,z
2 -x,-y,-z
_cell_length_a                   7.439(2)
_cell_length_b                   9.750(2)
_cell_length_c                   15.670(4)
_cell_angle_alpha                78.11(3)
_cell_angle_beta                 80.67(4)
_cell_angle_gamma                69.68(3)
_cell_volume                     1037.86
loop_
_atom_site_label
_atom_site_type_symbol
_atom_site_fract_x
_atom_site_fract_y
_atom_site_fract_z
O1 O -0.2820(9) 1.2558(5) 0.2022(3)
C1 C -0.1883(16) 1.1303(8) 0.2395(4)
Ni1 Ni 0.48275(18) 0.38980(9) 0.25993(5)
N1 N 0.6155(9) 0.3971(5) 0.3620(2)
C2 C 0.7482(10) 0.4691(6) 0.3599(3)
H1 H 0.7834 0.5232 0.3077
C3 C 0.8284(9) 0.4604(6) 0.4359(4)
H2 H 0.9172 0.5086 0.4345
C4 C 0.7757(10) 0.3795(6) 0.5139(3)
H3 H 0.8294 0.3736 0.5647
C5 C 0.6430(10) 0.3075(6) 0.5160(2)
H4 H 0.6078 0.2534 0.5682
C6 C 0.5629(9) 0.3162(5) 0.4400(3)
N2 N 0.2491(10) 1.0561(6) -0.0332(4)
N3 N 0.3800(7) 0.2495(5) 0.3519(2)
C7 C 0.4245(8) 0.2458(5) 0.4353(3)
C8 C 0.3456(10) 0.1692(6) 0.5078(2)
H5 H 0.3753 0.1668 0.5636
C9 C 0.2222(9) 0.0963(6) 0.4969(3)
H6 H 0.1694 0.0451 0.5454
C10 C 0.1777(8) 0.1000(6) 0.4135(4)
H7 H 0.0951 0.0512 0.4062
C11 C 0.2566(9) 0.1766(6) 0.3410(3)
H8 H 0.2268 0.1791 0.2852
C12 C 0.3786(16) 0.3880(8) 0.0837(5)
H9 H 0.5114 0.3504 0.0710
C13 C 0.2708(14) 0.4279(8) 0.0197(4)
H10 H 0.3294 0.4231 -0.0372
C14 C 0.0646(15) 0.4791(7) 0.0338(4)
C15 C -0.0011(16) 0.4870(8) 0.1213(4)
H11 H -0.1326 0.5201 0.1385
C16 C 0.1269(18) 0.4466(9) 0.1814(5)
H12 H 0.0772 0.4552 0.2392
C17 C 0.3545(13) 0.6597(7) 0.2198(4)
C18 C 0.2454(15) 0.8135(7) 0.1801(4)
C19 C 0.2954(15) 0.8646(8) 0.0939(5)
H13 H 0.3986 0.8066 0.0610
C20 C 0.1872(13) 1.0043(7) 0.0585(4)
C21 C 0.0413(15) 1.0930(7) 0.1014(4)
H14 H -0.0191 1.1896 0.0752
C22 C -0.0222(13) 1.0408(8) 0.1867(4)
C23 C 0.0882(14) 0.9015(7) 0.2242(4)
H15 H 0.0537 0.8663 0.2821
N4 N 0.3086(11) 0.3982(6) 0.1661(3)
O2 O 0.1644(10) 1.1777(5) -0.0657(3)
O3 O 0.3792(12) 0.9735(6) -0.0730(3)
O4 O 0.5182(9) 0.5917(5) 0.1853(3)
O5 O 0.2704(9) 0.5998(5) 0.2840(3)
O7 O -0.2270(12) 1.0740(6) 0.3134(4)
O1_2 O 0.7180(9) 0.2558(5) 0.2022(3)
O1A O -0.7180(9) 0.7442(5) -0.2022(3)
C1_2 C 0.8117(16) 0.1303(8) 0.2395(4)
Ni1A Ni -0.48275(18) 0.61020(9) -0.25993(5)
Ni1_2 Ni -0.51725(18) 1.38980(9) 0.25993(5)
Ni1_3 Ni 1.48275(18) -0.61020(9) 0.25993(5)
N1A N -0.6155(9) 0.6029(5) -0.3620(2)
C2A C -0.7482(10) 0.5309(6) -0.3599(3)
H1A H -0.7834 0.4768 -0.3077
C3A C -0.8284(9) 0.5396(6) -0.4359(4)
H2A H -0.9172 0.4914 -0.4345
C4A C -0.7757(10) 0.6205(6) -0.5139(3)
H3A H -0.8294 0.6264 -0.5647
C5A C -0.6430(10) 0.6925(6) -0.5160(2)
H4A H -0.6078 0.7466 -0.5682
C6A C -0.5629(9) 0.6838(5) -0.4400(3)
N2_2 N 1.2491(10) 0.0561(6) -0.0332(4)
N3A N -0.3800(7) 0.7505(5) -0.3519(2)
C7A C -0.4245(8) 0.7542(5) -0.4353(3)
C8A C -0.3456(10) 0.8308(6) -0.5078(2)
H5A H -0.3753 0.8332 -0.5636
C9A C -0.2222(9) 0.9037(6) -0.4969(3)
H6A H -0.1694 0.9549 -0.5454
C10A C -0.1777(8) 0.9000(6) -0.4135(4)
H7A H -0.0951 0.9488 -0.4062
C11A C -0.2566(9) 0.8234(6) -0.3410(3)
H8A H -0.2268 0.8209 -0.2852
C12A C -0.3786(16) 0.6120(8) -0.0837(5)
H9A H -0.5114 0.6496 -0.0710
C13A C -0.2708(14) 0.5721(8) -0.0197(4)
H10A H -0.3294 0.5769 0.0372
C14A C -0.0646(15) 0.5209(7) -0.0338(4)
C15A C 0.0011(16) 0.5130(8) -0.1213(4)
H11A H 0.1326 0.4799 -0.1385
C16A C -0.1269(18) 0.5534(9) -0.1814(5)
H12A H -0.0772 0.5448 -0.2392
C17_2 C 1.3545(13) -0.3403(7) 0.2198(4)
C18_2 C 1.2454(15) -0.1865(7) 0.1801(4)
C19_2 C 1.2954(15) -0.1354(8) 0.0939(5)
H13_2 H 1.3986 -0.1934 0.0610
C20_2 C 1.1872(13) 0.0043(7) 0.0585(4)
C21_2 C 1.0413(15) 0.0930(7) 0.1014(4)
H14_2 H 0.9809 0.1896 0.0752
C22_2 C 0.9778(13) 0.0408(8) 0.1867(4)
C23_2 C 1.0882(14) -0.0985(7) 0.2242(4)
H15_2 H 1.0537 -0.1337 0.2821
N4A N -0.3086(11) 0.6018(6) -0.1661(3)
O2_2 O 1.1644(10) 0.1777(5) -0.0657(3)
O3_2 O 1.3792(12) -0.0265(6) -0.0730(3)
O4_2 O 1.5182(9) -0.4083(5) 0.1853(3)
O4A O -0.5182(9) 0.4083(5) -0.1853(3)
O5_2 O 1.2704(9) -0.4002(5) 0.2840(3)
O5A O -0.2704(9) 0.4002(5) -0.2840(3)
O7_2 O 0.7730(12) 0.0740(6) 0.3134(4)
O6 O 0.617(2) 0.8390(11) 0.2825(6)
H16 H 0.5332 0.9031 0.2548
H17 H 0.7145 0.8589 0.2841
loop_
_geom_bond_atom_site_label_1
_geom_bond_atom_site_label_2
_geom_bond_site_symmetry_1
_geom_bond_site_symmetry_2
O1 C1 1_555 1_555
C1 C22 1_555 1_555
Ni1 N1 1_555 1_555
N1 C2 1_555 1_555
C2 H1 1_555 1_555
C3 C2 1_555 1_555
H2 C3 1_555 1_555
C4 C3 1_555 1_555
H3 C4 1_555 1_555
C5 C4 1_555 1_555
H4 C5 1_555 1_555
C6 N1 1_555 1_555
N2 C20 1_555 1_555
N3 Ni1 1_555 1_555
C7 C6 1_555 1_555
C8 C7 1_555 1_555
H5 C8 1_555 1_555
C9 C8 1_555 1_555
H6 C9 1_555 1_555
C10 C9 1_555 1_555
H7 C10 1_555 1_555
C11 N3 1_555 1_555
H8 C11 1_555 1_555
C12 H9 1_555 1_555
C13 C12 1_555 1_555
H10 C13 1_555 1_555
C14 C13 1_555 1_555
C15 C14 1_555 1_555
H11 C15 1_555 1_555
C16 C15 1_555 1_555
H12 C16 1_555 1_555
C17 C18 1_555 1_555
C18 C19 1_555 1_555
C19 H13 1_555 1_555
C20 C19 1_555 1_555
C21 C20 1_555 1_555
H14 C21 1_555 1_555
C22 C21 1_555 1_555
C23 C18 1_555 1_555
H15 C23 1_555 1_555
N4 Ni1 1_555 1_555
O2 N2 1_555 1_555
O3 N2 1_555 1_555
O4 Ni1 1_555 1_555
O5 Ni1 1_555 1_555
O6 H16 1_555 1_555
H17 O6 1_555 1_555
O7 C1 1_555 1_555
O1_2 Ni1 1_555 1_555
O1A Ni1A 1_555 1_555
C1_2 O1_2 1_555 1_555
Ni1A N1A 1_555 1_555
Ni1_2 O1 1_555 1_555
Ni1_3 O4_2 1_555 1_555
N1A C2A 1_555 1_555
C2A H1A 1_555 1_555
C3A C2A 1_555 1_555
H2A C3A 1_555 1_555
C4A C3A 1_555 1_555
H3A C4A 1_555 1_555
C5A C4A 1_555 1_555
H4A C5A 1_555 1_555
C6A N1A 1_555 1_555
N2_2 C20_2 1_555 1_555
N3A Ni1A 1_555 1_555
C7A C6A 1_555 1_555
C8A C7A 1_555 1_555
H5A C8A 1_555 1_555
C9A C8A 1_555 1_555
H6A C9A 1_555 1_555
C10A C9A 1_555 1_555
H7A C10A 1_555 1_555
C11A N3A 1_555 1_555
H8A C11A 1_555 1_555
C12A H9A 1_555 1_555
C13A C12A 1_555 1_555
H10A C13A 1_555 1_555
C14A C14 1_555 1_555
C15A C14A 1_555 1_555
H11A C15A 1_555 1_555
C16A C15A 1_555 1_555
H12A C16A 1_555 1_555
C17_2 C18_2 1_555 1_555
C18_2 C19_2 1_555 1_555
C19_2 H13_2 1_555 1_555
C20_2 C19_2 1_555 1_555
C21_2 C20_2 1_555 1_555
H14_2 C21_2 1_555 1_555
C22_2 C1_2 1_555 1_555
C23_2 C18_2 1_555 1_555
H15_2 C23_2 1_555 1_555
N4A Ni1A 1_555 1_555
O2_2 N2_2 1_555 1_555
O3_2 N2_2 1_555 1_555
O4_2 C17_2 1_555 1_555
O4A Ni1A 1_555 1_555
O5_2 Ni1_3 1_555 1_555
O5A Ni1A 1_555 1_555
O7_2 C1_2 1_555 1_555
C5 C6 1_555 1_555
N3 C7 1_555 1_555
C10 C11 1_555 1_555
C12 N4 1_555 1_555
C16 N4 1_555 1_555
C17 O4 1_555 1_555
C17 O5 1_555 1_555
C22 C23 1_555 1_555
C5A C6A 1_555 1_555
N3A C7A 1_555 1_555
C10A C11A 1_555 1_555
C12A N4A 1_555 1_555
C13A C14A 1_555 1_555
C16A N4A 1_555 1_555
C17_2 O5_2 1_555 1_555
C21_2 C22_2 1_555 1_555
C22_2 C23_2 1_555 1_555

#END
