
#######################################################################
#
#                 Cambridge Crystallographic Data Centre
#                                CCDC 
#
#######################################################################
#
# If this CIF has been generated from an entry in the Cambridge 
# Structural Database, then it will include bibliographic, chemical, 
# crystal, experimental, refinement or atomic coordinate data resulting 
# from the CCDC's data processing and validation procedures.
#
#######################################################################

data_NUTBUZ
_symmetry_cell_setting           orthorhombic
_symmetry_space_group_name_H-M   'I 2 c m'
_symmetry_Int_Tables_number      46
_space_group_name_Hall           'I -2c 2'
loop_
_symmetry_equiv_pos_site_id
_symmetry_equiv_pos_as_xyz
1 x,y,z
2 x,y,1/2-z
3 x,-y,-z
4 x,-y,1/2+z
5 1/2+x,1/2+y,1/2+z
6 1/2+x,1/2+y,-z
7 1/2+x,1/2-y,1/2-z
8 1/2+x,1/2-y,z
_cell_length_a                   7.65200(20)
_cell_length_b                   11.7135(4)
_cell_length_c                   20.1711(7)
_cell_angle_alpha                90
_cell_angle_beta                 90
_cell_angle_gamma                90
_cell_volume                     1807.97
loop_
_atom_site_label
_atom_site_type_symbol
_atom_site_fract_x
_atom_site_fract_y
_atom_site_fract_z
Ag1 Ag 0.07965 0.15674(4) 0.2500
S1 S 0.25159(21) -0.65456(12) 0.2500
S2 S 0.27429(25) -0.01806(14) 0.2500
C1 C 0.1955(7) -0.5557(4) 0.18385(21)
C2 C 0.2102(6) -0.4389(4) 0.21547(21)
C3 C 0.2172(7) -0.3369(3) 0.18032(23)
C4 C 0.2213(6) -0.2342(4) 0.21526(22)
C5 C 0.2229(7) -0.1170(4) 0.18292(24)
C6 C 0.1035(20) 0.1567(6) -0.0062(4)
N1 N 0.1042(18) 0.1581(4) 0.1220(3)
C7 C 0.0994(17) 0.1595(4) 0.0669(4)
H1 H 0.079 -0.569 0.337
H2 H 0.271 -0.572 0.356
H3 H 0.313 -0.113 0.353
H4 H 0.105 -0.099 0.336
H5 H 0.223 -0.340 0.369
H6 H 0.185 0.100 -0.026
H7 H 0.138 0.234 -0.023
H8 H -0.017 0.138 -0.022
S1F S -0.24841(21) 0.15456(12) 0.2500
S1_2 S 0.25159(21) 0.34544(12) 0.2500
Ag1F Ag 0.57965 -0.65674(4) 0.2500
Ag1_2 Ag 0.07965 -0.84326(4) 0.2500
C1A C 0.1955(7) -0.5557(4) 0.31615(21)
C2A C 0.2102(6) -0.4389(4) 0.28453(21)
C3A C 0.2172(7) -0.3369(3) 0.31968(23)
C4A C 0.2213(6) -0.2342(4) 0.28474(22)
C5A C 0.2229(7) -0.1170(4) 0.31708(24)
H1A H 0.079 -0.569 0.163
H2A H 0.271 -0.572 0.144
H5A H 0.223 -0.340 0.131
H3A H 0.313 -0.113 0.147
H4A H 0.105 -0.099 0.164
N1A N 0.1042(18) 0.1581(4) 0.3780(3)
C7A C 0.0994(17) 0.1595(4) 0.4331(4)
C6A C 0.1035(20) 0.1567(6) 0.5062(4)
H6A H 0.185 0.100 0.526
H7A H 0.138 0.234 0.523
H8A H -0.017 0.138 0.522
B1 B 0.5724(23) 0.00000 0.5000
F1 F 0.4885(9) -0.0306(6) 0.44905(23)
F2 F 0.6935(13) 0.0818(7) 0.4820(4)
F1B F 0.4885(9) 0.0306(6) 0.55095(23)
F2B F 0.6935(13) -0.0818(7) 0.5180(4)
loop_
_geom_bond_atom_site_label_1
_geom_bond_atom_site_label_2
_geom_bond_site_symmetry_1
_geom_bond_site_symmetry_2
Ag1 S2 1_555 1_555
S1 C1 1_555 1_555
S2 C5 1_555 1_555
C1 C2 1_555 1_555
C2 C3 1_555 1_555
C3 C4 1_555 1_555
C4 C5 1_555 1_555
C5 H3A 1_555 1_555
C6 C7 1_555 1_555
N1 Ag1 1_555 1_555
C7 N1 1_555 1_555
B1 F1 1_555 1_555
F2 B1 1_555 1_555
H1 C1A 1_555 1_555
H2 C1A 1_555 1_555
H3 C5A 1_555 1_555
H4 C5A 1_555 1_555
H5 C3A 1_555 1_555
H6 C6 1_555 1_555
H7 C6 1_555 1_555
H8 C6 1_555 1_555
S1F Ag1 1_555 1_555
S1_2 Ag1 1_555 1_555
Ag1F S1 1_555 1_555
Ag1_2 S1 1_555 1_555
C1A S1 1_555 1_555
C2A C2 1_555 1_555
C3A C2A 1_555 1_555
C4A C4 1_555 1_555
C5A S2 1_555 1_555
H1A C1 1_555 1_555
H2A C1 1_555 1_555
H5A C3 1_555 1_555
H4A C5 1_555 1_555
N1A Ag1 1_555 1_555
C7A N1A 1_555 1_555
C6A C7A 1_555 1_555
H6A C6A 1_555 1_555
H7A C6A 1_555 1_555
H8A C6A 1_555 1_555
F1B B1 1_555 1_555
F2B B1 1_555 1_555
C1A C2A 1_555 1_555
C3A C4A 1_555 1_555
C4A C5A 1_555 1_555

#END
