
#######################################################################
#
#                 Cambridge Crystallographic Data Centre
#                                CCDC 
#
#######################################################################
#
# If this CIF has been generated from an entry in the Cambridge 
# Structural Database, then it will include bibliographic, chemical, 
# crystal, experimental, refinement or atomic coordinate data resulting 
# from the CCDC's data processing and validation procedures.
#
#######################################################################

data_NUTCAG
_symmetry_cell_setting           monoclinic
_symmetry_space_group_name_H-M   'P 21/c'
_symmetry_Int_Tables_number      14
_space_group_name_Hall           '-P 2ybc'
loop_
_symmetry_equiv_pos_site_id
_symmetry_equiv_pos_as_xyz
1 x,y,z
2 -x,1/2+y,1/2-z
3 -x,-y,-z
4 x,1/2-y,1/2+z
_cell_length_a                   10.1909(5)
_cell_length_b                   27.780(1)
_cell_length_c                   8.6870(5)
_cell_angle_alpha                90
_cell_angle_beta                 94.96(1)
_cell_angle_gamma                90
_cell_volume                     2450.11
loop_
_atom_site_label
_atom_site_type_symbol
_atom_site_fract_x
_atom_site_fract_y
_atom_site_fract_z
S1 S -1.79961(10) -0.24224(4) 0.36018(13)
S2 S -1.16445(10) -0.24770(4) -0.01012(13)
N1 N -1.0656(4) -0.15484(15) 0.3100(5)
C1 C -1.7085(5) -0.19508(20) 0.2720(7)
C2 C -1.5949(4) -0.21955(16) 0.2040(5)
C3 C -1.4954(4) -0.19523(18) 0.1388(5)
C4 C -1.3954(4) -0.22121(16) 0.0771(5)
C5 C -1.2834(4) -0.19852(16) -0.0001(6)
C6 C -1.2848(5) -0.29532(18) 0.0121(6)
C7 C -1.3964(4) -0.27090(14) 0.0820(5)
C8 C -1.4976(4) -0.29505(17) 0.1463(5)
C9 C -1.5969(4) -0.26946(14) 0.2077(5)
C10 C -1.7122(5) -0.29155(19) 0.2767(7)
C11 C -1.0110(5) -0.11909(19) 0.3266(6)
C12 C -0.9459(5) -0.07309(16) 0.3466(6)
C13 C -0.9585(6) -0.03979(20) 0.2292(8)
C14 C -0.8991(8) 0.00402(24) 0.2519(12)
C15 C -0.8282(7) 0.01443(25) 0.3857(11)
C16 C -0.8154(7) -0.0179(3) 0.5012(10)
C17 C -0.8747(6) -0.06272(23) 0.4818(7)
H1 H -1.310(3) -0.1840(12) -0.117(5)
H2 H -1.229(4) -0.1718(13) 0.058(4)
H3 H -1.236(4) -0.3201(14) 0.094(5)
H4 H -1.676(5) -0.1730(16) 0.349(6)
H5 H -1.497(3) -0.3273(14) 0.148(4)
H6 H -0.998(5) -0.0469(16) 0.142(5)
H7 H -1.756(5) -0.1837(17) 0.202(6)
H8 H -1.690(4) -0.3092(15) 0.350(6)
H9 H -1.493(4) -0.1656(14) 0.130(5)
H10 H -0.870(4) -0.0801(13) 0.551(5)
H12 H -1.767(5) -0.3025(16) 0.188(5)
H17 H -0.772(6) -0.0127(20) 0.583(7)
H18 H -0.789(5) 0.0434(18) 0.400(6)
H19 H -0.904(6) 0.0196(21) 0.183(7)
H20 H -1.306(4) -0.3094(14) -0.066(5)
Ag1 Ag -1.03009(3) -0.240490(13) 0.23953(4)
S1_2 S -0.79961(10) -0.24224(4) 0.36018(13)
S2C S -1.16445(10) -0.25230(4) 0.48988(13)
Ag1_2 Ag -2.03009(3) -0.240490(13) 0.23953(4)
Ag1C Ag -1.03009(3) -0.259510(13) -0.26047(4)
F1 F 0.0953(3) -0.89038(10) 0.0791(4)
F2 F 0.0227(4) -0.84606(11) 0.2738(4)
F3 F -0.0545(3) -0.83211(10) 0.0288(3)
F4 F -0.1087(3) -0.90041(10) 0.1489(4)
B1 B -0.0117(6) -0.86757(21) 0.1324(7)
N2 N -0.4864(9) -0.92274(21) 0.3419(8)
C18 C -0.4938(8) -0.92700(22) 0.2161(9)
C19 C -0.5051(6) -0.93109(16) 0.0516(7)
C20 C -0.6287(6) -0.93145(18) -0.0308(9)
C21 C -0.6391(8) -0.93460(21) -0.1879(10)
C22 C -0.5293(10) -0.93773(21) -0.2654(9)
C23 C -0.4073(8) -0.93759(20) -0.1888(10)
C24 C -0.3946(6) -0.93430(19) -0.0309(10)
H11 H -0.321(4) -0.9330(16) 0.014(5)
H13 H -0.721(5) -0.9310(18) -0.245(6)
H14 H -0.699(5) -0.9267(19) 0.029(6)
H15 H -0.320(6) -0.9422(18) -0.238(7)
H16 H -0.540(6) -0.9400(21) -0.378(8)
loop_
_geom_bond_atom_site_label_1
_geom_bond_atom_site_label_2
_geom_bond_site_symmetry_1
_geom_bond_site_symmetry_2
S1 C1 1_555 1_555
S2 C5 1_555 1_555
F1 B1 1_555 1_555
F2 B1 1_555 1_555
F3 B1 1_555 1_555
F4 B1 1_555 1_555
N1 C11 1_555 1_555
N2 C18 1_555 1_555
C1 C2 1_555 1_555
C2 C3 1_555 1_555
C3 C4 1_555 1_555
C4 C5 1_555 1_555
C5 H1 1_555 1_555
C6 S2 1_555 1_555
C7 C4 1_555 1_555
C8 C7 1_555 1_555
C9 C2 1_555 1_555
C10 S1 1_555 1_555
C11 C12 1_555 1_555
C12 C13 1_555 1_555
C13 C14 1_555 1_555
C14 C15 1_555 1_555
C15 C16 1_555 1_555
C16 C17 1_555 1_555
C17 C12 1_555 1_555
C18 C19 1_555 1_555
C19 C20 1_555 1_555
C20 C21 1_555 1_555
C21 C22 1_555 1_555
C22 C23 1_555 1_555
C23 C24 1_555 1_555
C24 C19 1_555 1_555
H2 C5 1_555 1_555
H3 C6 1_555 1_555
H4 C1 1_555 1_555
H5 C8 1_555 1_555
H6 C13 1_555 1_555
H7 C1 1_555 1_555
H8 C10 1_555 1_555
H9 C3 1_555 1_555
H10 C17 1_555 1_555
H11 C24 1_555 1_555
H12 C10 1_555 1_555
H13 C21 1_555 1_555
H14 C20 1_555 1_555
H15 C23 1_555 1_555
H16 C22 1_555 1_555
H17 C16 1_555 1_555
H18 C15 1_555 1_555
H19 C14 1_555 1_555
H20 C6 1_555 1_555
Ag1 S2 1_555 1_555
S1_2 Ag1 1_555 1_555
S2C Ag1 1_555 1_555
Ag1_2 S1 1_555 1_555
Ag1C S2 1_555 1_555
N1 Ag1 1_555 1_555
C6 C7 1_555 1_555
C8 C9 1_555 1_555
C9 C10 1_555 1_555

#END
