
#######################################################################
#
#                 Cambridge Crystallographic Data Centre
#                                CCDC 
#
#######################################################################
#
# If this CIF has been generated from an entry in the Cambridge 
# Structural Database, then it will include bibliographic, chemical, 
# crystal, experimental, refinement or atomic coordinate data resulting 
# from the CCDC's data processing and validation procedures.
#
#######################################################################

data_NUTFAK
_symmetry_cell_setting           monoclinic
_symmetry_space_group_name_H-M   'P 21/m'
_symmetry_Int_Tables_number      11
_space_group_name_Hall           '-P 2yb'
loop_
_symmetry_equiv_pos_site_id
_symmetry_equiv_pos_as_xyz
1 x,y,z
2 -x,1/2+y,-z
3 -x,-y,-z
4 x,1/2-y,z
_cell_length_a                   11.409(2)
_cell_length_b                   36.635(7)
_cell_length_c                   14.032(3)
_cell_angle_alpha                90
_cell_angle_beta                 93.88(3)
_cell_angle_gamma                90
_cell_volume                     5851.49
loop_
_atom_site_label
_atom_site_type_symbol
_atom_site_fract_x
_atom_site_fract_y
_atom_site_fract_z
Ag1 Ag 1.05378(3) 0.503113(14) 0.87254(3)
C39 C 0.6823(3) 0.47325(11) 0.8655(3)
H25 H 0.6429 0.4511 0.8594
C40 C 0.8023(3) 0.47393(13) 0.8637(4)
H26 H 0.8415 0.4520 0.8564
C41 C 0.8050(3) 0.53524(13) 0.8813(4)
H27 H 0.8464 0.5571 0.8867
C42 C 0.6847(3) 0.53651(11) 0.8832(3)
H28 H 0.6474 0.5589 0.8893
C43 C 0.6191(3) 0.50506(10) 0.8762(3)
C44 C 0.3049(3) 0.53497(12) 0.8908(3)
H29 H 0.2645 0.5566 0.9004
C45 C 0.4251(3) 0.53644(11) 0.8926(3)
H30 H 0.4637 0.5585 0.9038
C46 C 0.4892(3) 0.50497(10) 0.8775(3)
C47 C 0.4240(3) 0.47327(11) 0.8640(3)
H31 H 0.4622 0.4512 0.8552
C48 C 0.3038(3) 0.47405(12) 0.8636(3)
H32 H 0.2629 0.4523 0.8539
N1 N 0.8653(3) 0.50451(10) 0.8721(3)
N2 N 0.2423(3) 0.50450(10) 0.8763(2)
Ag1_2 Ag 0.05378(3) 0.503113(14) 0.87254(3)
N2_2 N 1.2423(3) 0.50450(10) 0.8763(2)
Ag2 Ag 1.01404(3) 0.7500 0.93006(5)
C55 C 0.2643(3) 0.71901(12) 0.9315(3)
H37 H 0.2237 0.6970 0.9324
C56 C 0.3847(3) 0.71800(11) 0.9297(3)
H38 H 0.4231 0.6956 0.9287
C57 C 0.4489(4) 0.7500 0.9294(4)
C58 C 0.5797(4) 0.7500 0.9282(4)
C59 C 0.6435(3) 0.71843(12) 0.9278(4)
H39 H 0.6051 0.6960 0.9274
C60 C 0.7638(3) 0.71953(13) 0.9281(4)
H40 H 0.8043 0.6975 0.9276
N3 N 0.8250(4) 0.7500 0.9289(4)
N4 N 0.2029(3) 0.7500 0.9320(4)
Ag2_2 Ag 0.01404(3) 0.7500 0.93006(5)
C55C C 0.2643(3) 0.78099(12) 0.9315(3)
H37C H 0.2237 0.8030 0.9324
C56C C 0.3847(3) 0.78200(11) 0.9297(3)
H38C H 0.4231 0.8044 0.9287
C59C C 0.6435(3) 0.78157(12) 0.9278(4)
H39C H 0.6051 0.8040 0.9274
C60C C 0.7638(3) 0.78047(13) 0.9281(4)
H40C H 0.8043 0.8025 0.9276
N4_2 N 1.2029(3) 0.7500 0.9320(4)
Ag3 Ag 0.76917(3) 0.7500 0.42336(4)
C23 C 0.5183(3) 0.71883(11) 0.4213(3)
H13 H 0.5592 0.6969 0.4209
C24 C 0.3979(3) 0.71773(11) 0.4219(3)
H14 H 0.3594 0.6954 0.4211
C25 C 0.3335(4) 0.7500 0.4238(4)
C26 C 0.2038(4) 0.7500 0.4269(4)
C27 C 0.1402(3) 0.71810(11) 0.4286(3)
H15 H 0.1789 0.6958 0.4276
C28 C 0.0198(3) 0.71895(11) 0.4317(3)
H16 H -0.0205 0.6969 0.4335
N5 N 0.5792(3) 0.7500 0.4211(4)
N6 N -0.0419(3) 0.7500 0.4323(4)
O12 O 0.7607(3) 0.67819(8) 0.3833(3)
H51 H 0.7516 0.6580 0.4115
H52 H 0.8000 0.6722 0.3364
Ag3_2 Ag -0.23083(3) 0.7500 0.42336(4)
C23C C 0.5183(3) 0.78117(11) 0.4213(3)
H13C H 0.5592 0.8031 0.4209
C24C C 0.3979(3) 0.78227(11) 0.4219(3)
H14C H 0.3594 0.8046 0.4211
C27C C 0.1402(3) 0.78190(11) 0.4286(3)
H15C H 0.1789 0.8042 0.4276
C28C C 0.0198(3) 0.78105(11) 0.4317(3)
H16C H -0.0205 0.8031 0.4335
N6_2 N 0.9581(3) 0.7500 0.4323(4)
O12C O 0.7607(3) 0.82181(8) 0.3833(3)
H51C H 0.7516 0.8420 0.4115
H52C H 0.8000 0.8278 0.3364
Ag4 Ag 1.02760(4) 0.7500 0.69236(5)
C49 C 0.2774(3) 0.71909(11) 0.6765(4)
H33 H 0.2370 0.6971 0.6782
C50 C 0.3972(3) 0.71791(11) 0.6716(3)
H34 H 0.4352 0.6955 0.6695
C51 C 0.4616(4) 0.7500 0.6696(4)
C52 C 0.5914(4) 0.7500 0.6693(4)
C53 C 0.6557(4) 0.71914(12) 0.6701(5)
H35 H 0.6176 0.6967 0.6690
C54 C 0.7757(4) 0.72006(13) 0.6726(5)
H36 H 0.8159 0.6980 0.6730
N7 N 0.8370(4) 0.7500 0.6744(4)
N8 N 0.2158(4) 0.7500 0.6791(4)
Ag4_2 Ag 0.02760(4) 0.7500 0.69236(5)
C49C C 0.2774(3) 0.78091(11) 0.6765(4)
H33C H 0.2370 0.8029 0.6782
C50C C 0.3972(3) 0.78209(11) 0.6716(3)
H34C H 0.4352 0.8045 0.6695
C53C C 0.6557(4) 0.78086(12) 0.6701(5)
H35C H 0.6176 0.8033 0.6690
C54C C 0.7757(4) 0.77994(13) 0.6726(5)
H36C H 0.8159 0.8020 0.6730
N8_2 N 1.2158(4) 0.7500 0.6791(4)
Ag5 Ag -0.08499(2) 0.506834(10) 0.36998(3)
C29 C 0.2856(3) 0.47516(10) 0.3734(3)
H17 H 0.3241 0.4530 0.3666
C30 C 0.1655(3) 0.47564(11) 0.3748(3)
H18 H 0.1247 0.4537 0.3693
C31 C 0.1664(3) 0.53748(12) 0.3919(4)
H19 H 0.1257 0.5593 0.3977
C32 C 0.2862(3) 0.53870(11) 0.3920(3)
H20 H 0.3249 0.5610 0.3988
C33 C 0.3503(3) 0.50698(10) 0.3818(3)
C34 C 0.6633(3) 0.47718(10) 0.3601(3)
H21 H 0.7031 0.4556 0.3486
C35 C 0.5430(3) 0.47602(10) 0.3618(3)
H22 H 0.5036 0.4540 0.3511
C36 C 0.4799(3) 0.50749(9) 0.3794(3)
C37 C 0.5457(3) 0.53921(10) 0.3942(3)
H23 H 0.5083 0.5611 0.4065
C38 C 0.6653(3) 0.53833(11) 0.3906(3)
H24 H 0.7067 0.5600 0.4000
N9 N 0.1051(2) 0.50647(9) 0.3840(3)
N10 N 0.7259(2) 0.50798(8) 0.3743(2)
O14 O -0.0881(2) 0.43651(8) 0.3178(3)
H53 H -0.1049 0.4195 0.3557
H54 H -0.0892 0.4300 0.2595
Ag5_2 Ag -1.08499(2) 0.506834(10) 0.36998(3)
Ag5_3 Ag 0.91501(2) 0.506834(10) 0.36998(3)
C29_2 C -0.7144(3) 0.47516(10) 0.3734(3)
H17_2 H -0.6759 0.4530 0.3666
C30_2 C -0.8345(3) 0.47564(11) 0.3748(3)
H18_2 H -0.8753 0.4537 0.3693
C31_2 C -0.8336(3) 0.53748(12) 0.3919(4)
H19_2 H -0.8743 0.5593 0.3977
C32_2 C -0.7138(3) 0.53870(11) 0.3920(3)
H20_2 H -0.6751 0.5610 0.3988
C33_2 C -0.6497(3) 0.50698(10) 0.3818(3)
C34_2 C -0.3367(3) 0.47718(10) 0.3601(3)
H21_2 H -0.2969 0.4556 0.3486
C35_2 C -0.4570(3) 0.47602(10) 0.3618(3)
H22_2 H -0.4964 0.4540 0.3511
C36_2 C -0.5201(3) 0.50749(9) 0.3794(3)
C37_2 C -0.4543(3) 0.53921(10) 0.3942(3)
H23_2 H -0.4917 0.5611 0.4065
C38_2 C -0.3347(3) 0.53833(11) 0.3906(3)
H24_2 H -0.2933 0.5600 0.4000
N9_2 N -0.8949(2) 0.50647(9) 0.3840(3)
N10_2 N -0.2741(2) 0.50798(8) 0.3743(2)
N10_3 N -1.2741(2) 0.50798(8) 0.3743(2)
O14_2 O -1.0881(2) 0.43651(8) 0.3178(3)
H53_2 H -1.1049 0.4195 0.3557
H54_2 H -1.0892 0.4300 0.2595
Ag6 Ag -0.09508(3) 0.7500 0.18359(4)
C17 C 0.6544(3) 0.71903(10) 0.1793(3)
H9 H 0.6950 0.6970 0.1803
C18 C 0.5335(3) 0.71798(10) 0.1766(3)
H10 H 0.4950 0.6956 0.1747
C19 C 0.4690(4) 0.7500 0.1766(4)
C20 C 0.3388(4) 0.7500 0.1759(4)
C21 C 0.2744(3) 0.71786(10) 0.1761(3)
H11 H 0.3128 0.6955 0.1757
C22 C 0.1537(3) 0.71900(10) 0.1770(3)
H12 H 0.1131 0.6970 0.1778
N11 N 0.0919(3) 0.7500 0.1767(3)
N12 N 0.7167(3) 0.7500 0.1807(3)
Ag6_2 Ag 0.90492(3) 0.7500 0.18359(4)
C17C C 0.6544(3) 0.78097(10) 0.1793(3)
H9C H 0.6950 0.8030 0.1803
C18C C 0.5335(3) 0.78202(10) 0.1766(3)
H10C H 0.4950 0.8044 0.1747
C21C C 0.2744(3) 0.78214(10) 0.1761(3)
H11C H 0.3128 0.8045 0.1757
C22C C 0.1537(3) 0.78100(10) 0.1770(3)
H12C H 0.1131 0.8030 0.1778
N12_2 N -0.2833(3) 0.7500 0.1807(3)
C1 C 0.6238(3) 0.62336(10) 0.1899(3)
H1 H 0.6994 0.6230 0.2192
C2 C 0.5282(3) 0.62188(10) 0.2449(3)
H2 H 0.5398 0.6205 0.3110
C3 C 0.4148(3) 0.62245(10) 0.2022(3)
H3 H 0.3508 0.6218 0.2398
C4 C 0.3968(3) 0.62407(9) 0.1027(3)
C5 C 0.4940(3) 0.62533(9) 0.0488(3)
H4 H 0.4828 0.6262 -0.0174
C6 C 0.6079(3) 0.62531(9) 0.0909(3)
C7 C 0.2747(3) 0.62460(11) 0.0527(3)
C8 C 0.7097(3) 0.62809(10) 0.0276(3)
O1 O 0.1898(2) 0.62760(12) 0.1010(3)
O3 O 0.2675(2) 0.62274(9) -0.0362(2)
O5 O 0.8104(2) 0.63365(9) 0.0682(2)
O7 O 0.6874(2) 0.62517(9) -0.0596(2)
C9 C 0.3321(3) 0.62258(10) 0.6805(3)
H5 H 0.2571 0.6224 0.7026
C10 C 0.4293(3) 0.62233(10) 0.7448(3)
H6 H 0.4191 0.6222 0.8100
C11 C 0.5418(3) 0.62235(10) 0.7134(3)
H7 H 0.6065 0.6221 0.7575
C12 C 0.5579(3) 0.62276(9) 0.6165(3)
C13 C 0.4594(3) 0.62345(9) 0.5522(3)
H8 H 0.4697 0.6242 0.4871
C14 C 0.3461(3) 0.62308(10) 0.5829(3)
C15 C 0.6800(3) 0.62233(11) 0.5791(3)
C16 C 0.2418(3) 0.62343(10) 0.5095(4)
O9 O 0.7656(2) 0.62443(10) 0.6383(2)
O11 O 0.6870(2) 0.62000(9) 0.4910(2)
O13 O 0.2613(2) 0.62997(8) 0.4258(2)
O15 O 0.1429(2) 0.61587(9) 0.5397(2)
O2 O 0.9682(3) 0.57337(10) 0.0655(3)
H41 H 0.9987 0.5767 0.0126
H42 H 0.9120 0.5882 0.0529
O4 O 0.9186(3) 0.59179(11) 0.4511(3)
H43 H 0.9802 0.6007 0.4795
H44 H 0.8618 0.6031 0.4741
O6 O 0.0727(3) 0.59092(9) 0.8683(3)
H45 H 0.0142 0.6054 0.8644
H46 H 0.1243 0.6033 0.9009
O8 O 0.9035(2) 0.67061(8) 0.2300(2)
H47 H 0.8725 0.6593 0.1818
H48 H 0.9632 0.6578 0.2476
O10 O 0.0116(2) 0.66958(9) -0.0043(2)
H49 H -0.0541 0.6604 0.0082
H50 H 0.0713 0.6576 0.0176
O16 O 0.0964(2) 0.62726(9) 0.2749(2)
H55 H 0.1387 0.6274 0.3272
H56 H 0.1359 0.6251 0.2260
O17 O 0.8652(2) 0.62618(9) 0.8228(2)
H57 H 0.8347 0.6270 0.7659
H58 H 0.8110 0.6253 0.8615
O18 O 0.9029(3) 0.56935(10) 0.2625(3)
H59 H 0.9051 0.5808 0.3153
H60 H 0.9362 0.5750 0.2122
O19 O 0.0484(3) 0.68701(9) 0.7980(3)
H61 H 0.0269 0.6780 0.8499
H62 H 0.0343 0.6761 0.7450
O20 O 0.9802(3) 0.66059(10) 0.6206(3)
H63 H 1.0348 0.6472 0.6017
H64 H 0.9276 0.6441 0.6182
loop_
_geom_bond_atom_site_label_1
_geom_bond_atom_site_label_2
_geom_bond_site_symmetry_1
_geom_bond_site_symmetry_2
Ag1 N1 1_555 1_555
Ag2 N3 1_555 1_555
Ag3 N5 1_555 1_555
Ag4 N7 1_555 1_555
Ag5 N9 1_555 1_555
Ag6 N11 1_555 1_555
C1 H1 1_555 1_555
C2 C1 1_555 1_555
H2 C2 1_555 1_555
C3 C2 1_555 1_555
H3 C3 1_555 1_555
C4 C3 1_555 1_555
C5 C4 1_555 1_555
H4 C5 1_555 1_555
C6 C1 1_555 1_555
C7 C4 1_555 1_555
C8 C6 1_555 1_555
C9 H5 1_555 1_555
C10 C9 1_555 1_555
H6 C10 1_555 1_555
C11 C10 1_555 1_555
H7 C11 1_555 1_555
C12 C11 1_555 1_555
C13 C12 1_555 1_555
H8 C13 1_555 1_555
C14 C9 1_555 1_555
C15 C12 1_555 1_555
C16 C14 1_555 1_555
C17 H9 1_555 1_555
C18 C17 1_555 1_555
H10 C18 1_555 1_555
C19 C18 1_555 1_555
C20 C19 1_555 1_555
C21 C20 1_555 1_555
H11 C21 1_555 1_555
C22 C21 1_555 1_555
H12 C22 1_555 1_555
C23 H13 1_555 1_555
C24 C23 1_555 1_555
H14 C24 1_555 1_555
C25 C24 1_555 1_555
C26 C25 1_555 1_555
C27 C26 1_555 1_555
H15 C27 1_555 1_555
C28 C27 1_555 1_555
H16 C28 1_555 1_555
C29 H17 1_555 1_555
C30 C29 1_555 1_555
H18 C30 1_555 1_555
C31 H19 1_555 1_555
C32 C31 1_555 1_555
H20 C32 1_555 1_555
C33 C29 1_555 1_555
C34 H21 1_555 1_555
C35 C34 1_555 1_555
H22 C35 1_555 1_555
C36 C33 1_555 1_555
C37 C36 1_555 1_555
H23 C37 1_555 1_555
C38 C37 1_555 1_555
H24 C38 1_555 1_555
C39 H25 1_555 1_555
C40 C39 1_555 1_555
H26 C40 1_555 1_555
C41 H27 1_555 1_555
C42 C41 1_555 1_555
H28 C42 1_555 1_555
C43 C39 1_555 1_555
C44 H29 1_555 1_555
C45 C44 1_555 1_555
H30 C45 1_555 1_555
C46 C43 1_555 1_555
C47 C46 1_555 1_555
H31 C47 1_555 1_555
C48 C47 1_555 1_555
H32 C48 1_555 1_555
C49 H33 1_555 1_555
C50 C49 1_555 1_555
H34 C50 1_555 1_555
C51 C50 1_555 1_555
C52 C51 1_555 1_555
C53 C52 1_555 1_555
H35 C53 1_555 1_555
C54 C53 1_555 1_555
H36 C54 1_555 1_555
C55 H37 1_555 1_555
C56 C55 1_555 1_555
H38 C56 1_555 1_555
C57 C56 1_555 1_555
C58 C57 1_555 1_555
C59 C58 1_555 1_555
H39 C59 1_555 1_555
C60 C59 1_555 1_555
H40 C60 1_555 1_555
N1 C40 1_555 1_555
N2 C44 1_555 1_555
N3 C60 1_555 1_555
N4 C55 1_555 1_555
N5 C23 1_555 1_555
N6 C28 1_555 1_555
N7 C54 1_555 1_555
N8 C49 1_555 1_555
N9 C30 1_555 1_555
N10 C34 1_555 1_555
N11 C22 1_555 1_555
N12 C17 1_555 1_555
O1 C7 1_555 1_555
O2 H41 1_555 1_555
H42 O2 1_555 1_555
O3 C7 1_555 1_555
O4 H43 1_555 1_555
H44 O4 1_555 1_555
O5 C8 1_555 1_555
O6 H45 1_555 1_555
H46 O6 1_555 1_555
O7 C8 1_555 1_555
O8 H47 1_555 1_555
H48 O8 1_555 1_555
O9 C15 1_555 1_555
O10 H49 1_555 1_555
H50 O10 1_555 1_555
O11 C15 1_555 1_555
O12 Ag3 1_555 1_555
H51 O12 1_555 1_555
H52 O12 1_555 1_555
O13 C16 1_555 1_555
O14 Ag5 1_555 1_555
H53 O14 1_555 1_555
H54 O14 1_555 1_555
O15 C16 1_555 1_555
O16 H55 1_555 1_555
H56 O16 1_555 1_555
O17 H57 1_555 1_555
H58 O17 1_555 1_555
O18 H59 1_555 1_555
H60 O18 1_555 1_555
O19 H61 1_555 1_555
H62 O19 1_555 1_555
O20 H63 1_555 1_555
H64 O20 1_555 1_555
Ag1_2 N2 1_555 1_555
Ag2_2 N4 1_555 1_555
Ag3_2 N6 1_555 1_555
Ag4_2 N8 1_555 1_555
Ag5_2 N9_2 1_555 1_555
Ag5_3 N10 1_555 1_555
Ag6_2 N12 1_555 1_555
C17C N12 1_555 1_555
H9C C17C 1_555 1_555
C18C C19 1_555 1_555
H10C C18C 1_555 1_555
C21C C20 1_555 1_555
H11C C21C 1_555 1_555
C22C N11 1_555 1_555
H12C C22C 1_555 1_555
C23C N5 1_555 1_555
H13C C23C 1_555 1_555
C24C C25 1_555 1_555
H14C C24C 1_555 1_555
C27C C26 1_555 1_555
H15C C27C 1_555 1_555
C28C N6 1_555 1_555
H16C C28C 1_555 1_555
C29_2 H17_2 1_555 1_555
C30_2 C29_2 1_555 1_555
H18_2 C30_2 1_555 1_555
C31_2 H19_2 1_555 1_555
C32_2 C31_2 1_555 1_555
H20_2 C32_2 1_555 1_555
C33_2 C29_2 1_555 1_555
C34_2 H21_2 1_555 1_555
C35_2 C34_2 1_555 1_555
H22_2 C35_2 1_555 1_555
C36_2 C33_2 1_555 1_555
C37_2 C36_2 1_555 1_555
H23_2 C37_2 1_555 1_555
C38_2 C37_2 1_555 1_555
H24_2 C38_2 1_555 1_555
C49C N8 1_555 1_555
H33C C49C 1_555 1_555
C50C C51 1_555 1_555
H34C C50C 1_555 1_555
C53C C52 1_555 1_555
H35C C53C 1_555 1_555
C54C N7 1_555 1_555
H36C C54C 1_555 1_555
C55C N4 1_555 1_555
H37C C55C 1_555 1_555
C56C C57 1_555 1_555
H38C C56C 1_555 1_555
C59C C58 1_555 1_555
H39C C59C 1_555 1_555
C60C N3 1_555 1_555
H40C C60C 1_555 1_555
N2_2 Ag1 1_555 1_555
N4_2 Ag2 1_555 1_555
N6_2 Ag3 1_555 1_555
N8_2 Ag4 1_555 1_555
N9_2 C30_2 1_555 1_555
N10_2 Ag5 1_555 1_555
N10_3 Ag5_2 1_555 1_555
N12_2 Ag6 1_555 1_555
O12C Ag3 1_555 1_555
H51C O12C 1_555 1_555
H52C O12C 1_555 1_555
O14_2 Ag5_2 1_555 1_555
H53_2 O14_2 1_555 1_555
H54_2 O14_2 1_555 1_555
C5 C6 1_555 1_555
C13 C14 1_555 1_555
C31 N9 1_555 1_555
C32 C33 1_555 1_555
C35 C36 1_555 1_555
C38 N10 1_555 1_555
C41 N1 1_555 1_555
C42 C43 1_555 1_555
C45 C46 1_555 1_555
C48 N2 1_555 1_555
C17C C18C 1_555 1_555
C21C C22C 1_555 1_555
C23C C24C 1_555 1_555
C27C C28C 1_555 1_555
C31_2 N9_2 1_555 1_555
C32_2 C33_2 1_555 1_555
C34_2 N10_2 1_555 1_555
C35_2 C36_2 1_555 1_555
C38_2 N10_2 1_555 1_555
C49C C50C 1_555 1_555
C53C C54C 1_555 1_555
C55C C56C 1_555 1_555
C59C C60C 1_555 1_555

#END
