
#######################################################################
#
#                 Cambridge Crystallographic Data Centre
#                                CCDC 
#
#######################################################################
#
# If this CIF has been generated from an entry in the Cambridge 
# Structural Database, then it will include bibliographic, chemical, 
# crystal, experimental, refinement or atomic coordinate data resulting 
# from the CCDC's data processing and validation procedures.
#
#######################################################################

data_NUTFOZ
_symmetry_cell_setting           triclinic
_symmetry_space_group_name_H-M   'P -1'
_symmetry_Int_Tables_number      2
_space_group_name_Hall           '-P 1'
loop_
_symmetry_equiv_pos_site_id
_symmetry_equiv_pos_as_xyz
1 x,y,z
2 -x,-y,-z
_cell_length_a                   9.1548(3)
_cell_length_b                   14.8760(5)
_cell_length_c                   22.3887(7)
_cell_angle_alpha                78.5570(10)
_cell_angle_beta                 84.283(2)
_cell_angle_gamma                81.9150(10)
_cell_volume                     2950.64
loop_
_atom_site_label
_atom_site_type_symbol
_atom_site_fract_x
_atom_site_fract_y
_atom_site_fract_z
Cu1 Cu 0.0000 0.0000 0.5000
Cl1 Cl -0.08533(17) 0.12664(10) 0.54694(8)
N1 N -0.1177(6) 0.0587(3) 0.4291(3)
C1 C -0.2658(7) 0.0769(4) 0.4362(3)
H1 H -0.3131 0.0644 0.4762
Cu2 Cu -0.14575(9) -0.21211(5) 0.50614(4)
Cl2 Cl -0.25057(17) -0.09630(10) 0.55610(8)
O1 O -0.3711(17) -0.0422(10) 0.2070(6)
N2 N -0.0135(19) 0.1253(10) 0.2696(7)
H2 H 0.0786 0.1019 0.2761
C2 C -0.3506(9) 0.1122(5) 0.3886(4)
H3 H -0.4550 0.1240 0.3954
O2 O -0.0479(7) -0.5017(5) 0.7795(4)
N3 N 0.062(2) 0.1702(12) 0.1698(7)
H4 H 0.1541 0.1475 0.1760
C3 C -0.2832(11) 0.1307(5) 0.3302(4)
H5 H -0.3413 0.1531 0.2962
O3 O -0.2443(5) -0.6884(3) 0.6682(2)
N4 N -0.1469(11) -0.1158(7) 0.1742(4)
H6 H -0.0671 -0.1525 0.1863
C4 C -0.1303(12) 0.1162(5) 0.3217(4)
N5 N -0.1919(12) -0.1094(7) 0.2746(5)
H7 H -0.0968 -0.1272 0.2780
C5 C -0.0511(8) 0.0770(5) 0.3728(3)
H8 H 0.0533 0.0630 0.3673
N6 N -0.2745(6) -0.1604(4) 0.4360(3)
C6 C -0.047(4) 0.1690(11) 0.2125(14)
N7 N -0.0433(6) -0.2731(3) 0.5825(3)
C7 C 0.004(3) 0.2175(14) 0.1068(8)
N8 N -0.1704(7) -0.3591(4) 0.7406(3)
H9 H -0.2487 -0.3187 0.7453
C8 C 0.156(3) 0.1900(17) 0.0740(10)
H10 H 0.1881 0.1244 0.0885
H11 H 0.2283 0.2271 0.0830
H12 H 0.1467 0.2013 0.0298
N9 N -0.2563(10) -0.4403(6) 0.8308(3)
H13 H -0.3147 -0.3885 0.8327
N10 N -0.4380(6) -0.5726(4) 0.6666(2)
H14 H -0.4737 -0.5172 0.6480
C9 C -0.087(3) 0.1627(13) 0.0822(9)
N11 N -0.2220(6) -0.5466(4) 0.6089(3)
H15 H -0.2638 -0.4894 0.5981
C10 C -0.208(2) 0.2065(13) 0.0481(8)
H16 H -0.2224 0.2721 0.0377
N12 N 0.0915(6) -0.6734(4) 0.5315(3)
C11 C -0.302(3) 0.1589(15) 0.0303(9)
H17 H -0.3730 0.1911 0.0031
C12 C -0.3008(19) 0.0625(10) 0.0498(7)
H18 H -0.3729 0.0304 0.0383
C13 C -0.1866(19) 0.0160(11) 0.0875(6)
C14 C -0.0860(18) 0.0639(10) 0.1045(6)
H19 H -0.0140 0.0320 0.1315
C15 C -0.1683(14) -0.0908(9) 0.1072(5)
C16 C -0.2984(15) -0.1368(10) 0.0938(6)
H20 H -0.2828 -0.2032 0.1107
H21 H -0.3048 -0.1275 0.0495
H22 H -0.3906 -0.1091 0.1126
C17 C -0.0265(15) -0.1335(11) 0.0752(6)
H23 H 0.0577 -0.1040 0.0823
H24 H -0.0376 -0.1238 0.0312
H25 H -0.0094 -0.1999 0.0917
C18 C -0.2461(13) -0.0839(8) 0.2168(5)
C19 C -0.2912(11) -0.1067(6) 0.3291(4)
C20 C -0.4441(10) -0.0823(5) 0.3380(4)
H26 H -0.5017 -0.0542 0.3047
C21 C -0.5085(8) -0.1007(5) 0.3974(3)
H27 H -0.6123 -0.0868 0.4051
C22 C -0.4215(7) -0.1389(4) 0.4449(3)
H28 H -0.4668 -0.1505 0.4853
C23 C -0.2125(8) -0.1446(5) 0.3791(3)
H29 H -0.1086 -0.1603 0.3728
C24 C 0.1048(7) -0.2917(4) 0.5845(4)
H30 H 0.1665 -0.2762 0.5482
C25 C 0.1692(8) -0.3331(5) 0.6387(4)
H31 H 0.2738 -0.3450 0.6391
C26 C 0.0810(7) -0.3572(4) 0.6923(4)
H32 H 0.1239 -0.3849 0.7295
C27 C -0.0718(7) -0.3396(5) 0.6897(4)
C28 C -0.1290(7) -0.2966(4) 0.6347(3)
H33 H -0.2333 -0.2829 0.6335
C29 C -0.1510(11) -0.4401(7) 0.7849(4)
C30 C -0.2803(15) -0.5213(9) 0.8778(4)
C31 C -0.136(2) -0.5551(11) 0.9135(6)
H34 H -0.0494 -0.5584 0.8841
H35 H -0.1439 -0.6164 0.9386
H36 H -0.1253 -0.5114 0.9398
C32 C -0.415(2) -0.4914(11) 0.9194(6)
H37 H -0.3922 -0.4417 0.9386
H38 H -0.4373 -0.5443 0.9512
H39 H -0.5002 -0.4693 0.8951
C33 C -0.3220(10) -0.6008(7) 0.8508(4)
C34 C -0.2999(10) -0.6931(7) 0.8811(4)
H40 H -0.2496 -0.7086 0.9176
C35 C -0.3503(9) -0.7607(6) 0.8586(4)
H41 H -0.3348 -0.8228 0.8799
C36 C -0.4232(8) -0.7414(5) 0.8057(4)
H42 H -0.4559 -0.7899 0.7906
C37 C -0.4486(8) -0.6505(5) 0.7744(3)
C38 C -0.3959(9) -0.5825(6) 0.7975(3)
H43 H -0.4108 -0.5206 0.7759
C39 C -0.5325(8) -0.6233(5) 0.7163(3)
C40 C -0.6708(8) -0.5546(5) 0.7271(4)
H44 H -0.6409 -0.5005 0.7393
H45 H -0.7374 -0.5847 0.7596
H46 H -0.7219 -0.5350 0.6894
C41 C -0.5818(9) -0.7050(5) 0.6954(4)
H47 H -0.6293 -0.6833 0.6569
H48 H -0.6523 -0.7341 0.7266
H49 H -0.4956 -0.7502 0.6892
C42 C -0.3004(8) -0.6077(5) 0.6488(3)
C43 C -0.0771(8) -0.5711(4) 0.5842(3)
C44 C 0.0322(8) -0.5176(5) 0.5849(3)
H50 H 0.0122 -0.4644 0.6032
C45 C 0.1718(8) -0.5412(5) 0.5588(4)
H51 H 0.2486 -0.5044 0.5585
C46 C 0.1975(8) -0.6200(5) 0.5330(4)
H52 H 0.2941 -0.6369 0.5156
C47 C -0.0451(7) -0.6486(4) 0.5568(3)
H53 H -0.1215 -0.6853 0.5560
O4 O -0.181(2) 0.2153(9) 0.2074(7)
C48 C -0.029(6) 0.316(3) 0.092(2)
H54 H 0.0236 0.3397 0.0532
H55 H 0.0016 0.3436 0.1245
H56 H -0.1362 0.3330 0.0888
N1A N 0.1177(6) -1.0587(3) 0.5709(3)
C1A C 0.2658(7) -1.0769(4) 0.5638(3)
H1A H 0.3131 -1.0644 0.5238
Cu2A Cu 0.14575(9) -0.78789(5) 0.49386(4)
Cl2A Cl 0.25057(17) -0.90370(10) 0.44390(8)
O1A O 0.3711(17) -0.9578(10) 0.7930(6)
N2A N 0.0135(19) -1.1253(10) 0.7304(7)
H2A H -0.0786 -1.1019 0.7239
C2A C 0.3506(9) -1.1122(5) 0.6114(4)
H3A H 0.4550 -1.1240 0.6046
O2A O 0.0479(7) -0.4983(5) 0.2205(4)
N3A N -0.062(2) -1.1702(12) 0.8302(7)
H4A H -0.1541 -1.1475 0.8240
C3A C 0.2832(11) -1.1307(5) 0.6698(4)
H5A H 0.3413 -1.1531 0.7038
O3A O 0.2443(5) -0.3116(3) 0.3318(2)
N4A N 0.1469(11) -0.8842(7) 0.8258(4)
H6A H 0.0671 -0.8475 0.8137
C4A C 0.1303(12) -1.1162(5) 0.6783(4)
N5A N 0.1919(12) -0.8906(7) 0.7254(5)
H7A H 0.0968 -0.8728 0.7220
C5A C 0.0511(8) -1.0770(5) 0.6272(3)
H8A H -0.0533 -1.0630 0.6327
N6A N 0.2745(6) -0.8396(4) 0.5640(3)
C6A C 0.047(4) -1.1690(11) 0.7875(14)
N7A N 0.0433(6) -0.7269(3) 0.4175(3)
C7A C -0.004(3) -1.2175(14) 0.8932(8)
N8A N 0.1704(7) -0.6409(4) 0.2594(3)
H9A H 0.2487 -0.6813 0.2547
C8A C -0.156(3) -1.1900(17) 0.9260(10)
H10A H -0.1881 -1.1244 0.9115
H11A H -0.2283 -1.2271 0.9170
H12A H -0.1467 -1.2013 0.9702
N9A N 0.2563(10) -0.5597(6) 0.1692(3)
H13A H 0.3147 -0.6115 0.1673
N10A N 0.4380(6) -0.4274(4) 0.3334(2)
H14A H 0.4737 -0.4828 0.3520
C9A C 0.087(3) -1.1627(13) 0.9178(9)
N11A N 0.2220(6) -0.4534(4) 0.3911(3)
H15A H 0.2638 -0.5106 0.4019
C10A C 0.208(2) -1.2065(13) 0.9519(8)
H16A H 0.2224 -1.2721 0.9623
N12A N -0.0915(6) -0.3266(4) 0.4685(3)
C11A C 0.302(3) -1.1589(15) 0.9697(9)
H17A H 0.3730 -1.1911 0.9969
C12A C 0.3008(19) -1.0625(10) 0.9502(7)
H18A H 0.3729 -1.0304 0.9617
C13A C 0.1866(19) -1.0160(11) 0.9125(6)
C14A C 0.0860(18) -1.0639(10) 0.8955(6)
H19A H 0.0140 -1.0320 0.8685
C15A C 0.1683(14) -0.9092(9) 0.8928(5)
C16A C 0.2984(15) -0.8632(10) 0.9062(6)
H20A H 0.2828 -0.7968 0.8893
H21A H 0.3048 -0.8725 0.9505
H22A H 0.3906 -0.8909 0.8874
C17A C 0.0265(15) -0.8665(11) 0.9248(6)
H23A H -0.0577 -0.8960 0.9177
H24A H 0.0376 -0.8762 0.9688
H25A H 0.0094 -0.8001 0.9083
C18A C 0.2461(13) -0.9161(8) 0.7832(5)
C19A C 0.2912(11) -0.8933(6) 0.6709(4)
C20A C 0.4441(10) -0.9177(5) 0.6620(4)
H26A H 0.5017 -0.9458 0.6953
C21A C 0.5085(8) -0.8993(5) 0.6026(3)
H27A H 0.6123 -0.9132 0.5949
C22A C 0.4215(7) -0.8611(4) 0.5551(3)
H28A H 0.4668 -0.8495 0.5147
C23A C 0.2125(8) -0.8554(5) 0.6209(3)
H29A H 0.1086 -0.8397 0.6272
C24A C -0.1048(7) -0.7083(4) 0.4155(4)
H30A H -0.1665 -0.7238 0.4518
C25A C -0.1692(8) -0.6669(5) 0.3613(4)
H31A H -0.2738 -0.6550 0.3609
C26A C -0.0810(7) -0.6428(4) 0.3077(4)
H32A H -0.1239 -0.6151 0.2705
C27A C 0.0718(7) -0.6604(5) 0.3103(4)
C28A C 0.1290(7) -0.7034(4) 0.3653(3)
H33A H 0.2333 -0.7171 0.3665
C29A C 0.1510(11) -0.5599(7) 0.2151(4)
C30A C 0.2803(15) -0.4787(9) 0.1222(4)
C31A C 0.136(2) -0.4449(11) 0.0865(6)
H34A H 0.0494 -0.4416 0.1159
H35A H 0.1439 -0.3836 0.0614
H36A H 0.1253 -0.4886 0.0602
C32A C 0.415(2) -0.5086(11) 0.0806(6)
H37A H 0.3922 -0.5583 0.0614
H38A H 0.4373 -0.4557 0.0488
H39A H 0.5002 -0.5307 0.1049
C33A C 0.3220(10) -0.3992(7) 0.1492(4)
C34A C 0.2999(10) -0.3069(7) 0.1189(4)
H40A H 0.2496 -0.2914 0.0824
C35A C 0.3503(9) -0.2393(6) 0.1414(4)
H41A H 0.3348 -0.1772 0.1201
C36A C 0.4232(8) -0.2586(5) 0.1943(4)
H42A H 0.4559 -0.2101 0.2094
C37A C 0.4486(8) -0.3495(5) 0.2256(3)
C38A C 0.3959(9) -0.4175(6) 0.2025(3)
H43A H 0.4108 -0.4794 0.2241
C39A C 0.5325(8) -0.3767(5) 0.2837(3)
C40A C 0.6708(8) -0.4454(5) 0.2729(4)
H44A H 0.6409 -0.4995 0.2607
H45A H 0.7374 -0.4153 0.2404
H46A H 0.7219 -0.4650 0.3106
C41A C 0.5818(9) -0.2950(5) 0.3046(4)
H47A H 0.6293 -0.3167 0.3431
H48A H 0.6523 -0.2659 0.2734
H49A H 0.4956 -0.2498 0.3108
C42A C 0.3004(8) -0.3923(5) 0.3512(3)
C43A C 0.0771(8) -0.4289(4) 0.4158(3)
C44A C -0.0322(8) -0.4824(5) 0.4151(3)
H50A H -0.0122 -0.5356 0.3968
C45A C -0.1718(8) -0.4588(5) 0.4412(4)
H51A H -0.2486 -0.4956 0.4415
C46A C -0.1975(8) -0.3800(5) 0.4670(4)
H52A H -0.2941 -0.3631 0.4844
C47A C 0.0451(7) -0.3514(4) 0.4432(3)
H53A H 0.1215 -0.3147 0.4440
O4A O 0.181(2) -1.2153(9) 0.7926(7)
C48A C 0.029(6) -1.316(3) 0.908(2)
H54A H -0.0236 -1.3397 0.9468
H55A H -0.0016 -1.3436 0.8755
H56A H 0.1362 -1.3330 0.9112
Cl1A Cl 0.08533(17) -0.12664(10) 0.45306(8)
Cu1_2 Cu 0.0000 -1.0000 0.5000
Cl1_2 Cl -0.08533(17) -0.87336(10) 0.54694(8)
N1A_2 N 0.1177(6) -0.0587(3) 0.5709(3)
Cu2A_2 Cu 0.14575(9) 0.21211(5) 0.49386(4)
Cl2A_2 Cl 0.25057(17) 0.09630(10) 0.44390(8)
O6 O -0.341(2) 0.3610(16) 0.1684(11)
O6A O 0.341(2) -1.3610(16) 0.8316(11)
O8 O 0.191(3) -0.531(4) 0.8791(13)
O9 O -0.581(3) 0.2986(17) 0.1219(13)
Cl3 Cl -0.4504(2) -0.35333(14) 0.59401(13)
O10 O 0.2883(10) 0.1282(6) 0.2942(4)
O11 O -0.4957(9) -0.3259(6) 0.7300(4)
O12 O 0.0141(7) -0.3044(6) 0.2460(3)
O13 O 0.1642(9) -0.1245(4) 0.3030(3)
O14 O 0.2624(14) -0.0043(8) 0.1948(5)
O15 O -0.4954(18) 0.1411(9) 0.1997(7)
O5? O -0.2619(16) 0.2481(10) 0.2154(6)
N13? N -0.037(2) 0.2295(14) 0.1675(8)
H57? H 0.0574 0.2066 0.1676
C49? C 0.057(2) 0.2870(17) 0.0690(11)
H58? H 0.0440 0.3144 0.0260
H59? H 0.0852 0.2201 0.0730
H60? H 0.1342 0.3146 0.0836
C50? C -0.329(2) 0.2846(16) 0.0537(9)
H61? H -0.3413 0.3502 0.0449
C51? C -0.430(3) 0.2380(18) 0.0341(11)
H62? H -0.5125 0.2698 0.0130
C52? C -0.142(3) 0.3820(18) 0.1086(11)
H63? H -0.0735 0.4149 0.1244
H64? H -0.2331 0.3797 0.1357
H65? H -0.1662 0.4145 0.0676
C53? C -0.211(3) 0.2400(16) 0.0852(11)
C54? C -0.114(2) 0.2019(18) 0.2121(11)
C55? C -0.293(3) 0.0882(18) 0.0800(12)
N14? N -0.0806(19) 0.1446(14) 0.2641(10)
H66? H 0.0075 0.1142 0.2580
C56? C -0.182(3) 0.1481(16) 0.0965(9)
H67? H -0.0930 0.1192 0.1145
C57? C -0.405(3) 0.1451(18) 0.0468(10)
H68? H -0.4714 0.1138 0.0310
O7? O -0.451(2) 0.0042(14) 0.2080(8)
N15? N -0.232(2) -0.0486(13) 0.1589(8)
H69? H -0.1465 -0.0829 0.1660
C58? C -0.265(3) -0.0128(19) 0.0953(11)
C59? C -0.397(3) -0.060(2) 0.0832(13)
H70? H -0.3749 -0.1270 0.0959
H71? H -0.4125 -0.0449 0.0395
H72? H -0.4861 -0.0375 0.1065
N16? N -0.255(2) -0.0739(13) 0.2640(9)
H73? H -0.1589 -0.0826 0.2560
C60? C -0.131(3) -0.0452(19) 0.0563(12)
H74? H -0.0998 -0.1108 0.0716
H75? H -0.0508 -0.0092 0.0582
H76? H -0.1570 -0.0368 0.0139
C61? C -0.326(3) -0.032(2) 0.2078(14)
C62? C -0.086(3) 0.305(2) 0.1063(9)
O16? O -0.547(2) 0.203(2) 0.1924(8)
loop_
_geom_bond_atom_site_label_1
_geom_bond_atom_site_label_2
_geom_bond_site_symmetry_1
_geom_bond_site_symmetry_2
Cu1 Cl1 1_555 1_555
Cl1 Cu2A_2 1_555 1_555
N1 Cu1 1_555 1_555
C1 N1 1_555 1_555
H1 C1 1_555 1_555
Cu2 Cl2 1_555 1_555
Cl2 Cu1 1_555 1_555
O1 C18 1_555 1_555
N2 H2 1_555 1_555
C2 C1 1_555 1_555
H3 C2 1_555 1_555
O2 C29 1_555 1_555
N3 H4 1_555 1_555
C3 C2 1_555 1_555
H5 C3 1_555 1_555
O3 C42 1_555 1_555
N4 H6 1_555 1_555
C4 N2 1_555 1_555
N5 H7 1_555 1_555
C5 N1 1_555 1_555
H8 C5 1_555 1_555
N6 Cu2 1_555 1_555
C6 N2 1_555 1_555
N7 Cu2 1_555 1_555
C7 N3 1_555 1_555
N8 H9 1_555 1_555
C8 C7 1_555 1_555
H10 C8 1_555 1_555
H11 C8 1_555 1_555
H12 C8 1_555 1_555
N9 H13 1_555 1_555
N10 H14 1_555 1_555
C9 C7 1_555 1_555
N11 H15 1_555 1_555
C10 C9 1_555 1_555
H16 C10 1_555 1_555
N12 C46 1_555 1_555
C11 C10 1_555 1_555
H17 C11 1_555 1_555
C12 C11 1_555 1_555
H18 C12 1_555 1_555
C13 C12 1_555 1_555
C14 C9 1_555 1_555
H19 C14 1_555 1_555
C15 N4 1_555 1_555
C16 C15 1_555 1_555
H20 C16 1_555 1_555
H21 C16 1_555 1_555
H22 C16 1_555 1_555
C17 C15 1_555 1_555
H23 C17 1_555 1_555
H24 C17 1_555 1_555
H25 C17 1_555 1_555
C18 N4 1_555 1_555
C19 N5 1_555 1_555
C20 C19 1_555 1_555
H26 C20 1_555 1_555
C21 C20 1_555 1_555
H27 C21 1_555 1_555
C22 N6 1_555 1_555
H28 C22 1_555 1_555
C23 N6 1_555 1_555
H29 C23 1_555 1_555
C24 N7 1_555 1_555
H30 C24 1_555 1_555
C25 C24 1_555 1_555
H31 C25 1_555 1_555
C26 C25 1_555 1_555
H32 C26 1_555 1_555
C27 N8 1_555 1_555
C28 N7 1_555 1_555
H33 C28 1_555 1_555
C29 N8 1_555 1_555
C30 N9 1_555 1_555
C31 C30 1_555 1_555
H34 C31 1_555 1_555
H35 C31 1_555 1_555
H36 C31 1_555 1_555
C32 C30 1_555 1_555
H37 C32 1_555 1_555
H38 C32 1_555 1_555
H39 C32 1_555 1_555
C33 C30 1_555 1_555
C34 C33 1_555 1_555
H40 C34 1_555 1_555
C35 C34 1_555 1_555
H41 C35 1_555 1_555
C36 C35 1_555 1_555
H42 C36 1_555 1_555
C37 C36 1_555 1_555
C38 C33 1_555 1_555
H43 C38 1_555 1_555
C39 N10 1_555 1_555
C40 C39 1_555 1_555
H44 C40 1_555 1_555
H45 C40 1_555 1_555
H46 C40 1_555 1_555
C41 C39 1_555 1_555
H47 C41 1_555 1_555
H48 C41 1_555 1_555
H49 C41 1_555 1_555
C42 N10 1_555 1_555
C43 N11 1_555 1_555
C44 C43 1_555 1_555
H50 C44 1_555 1_555
C45 C44 1_555 1_555
H51 C45 1_555 1_555
C46 C45 1_555 1_555
H52 C46 1_555 1_555
C47 N12 1_555 1_555
H53 C47 1_555 1_555
O4 C6 1_555 1_555
C48 C7 1_555 1_555
H54 C48 1_555 1_555
H55 C48 1_555 1_555
H56 C48 1_555 1_555
N1A C1A 1_555 1_555
C1A H1A 1_555 1_555
Cu2A N12 1_555 1_555
Cl2A Cu2A 1_555 1_555
O1A C18A 1_555 1_555
N2A H2A 1_555 1_555
C2A C1A 1_555 1_555
H3A C2A 1_555 1_555
O2A C29A 1_555 1_555
N3A H4A 1_555 1_555
C3A C2A 1_555 1_555
H5A C3A 1_555 1_555
O3A C42A 1_555 1_555
N4A H6A 1_555 1_555
C4A N2A 1_555 1_555
N5A H7A 1_555 1_555
C5A N1A 1_555 1_555
H8A C5A 1_555 1_555
N6A Cu2A 1_555 1_555
C6A N2A 1_555 1_555
N7A Cu2A 1_555 1_555
C7A N3A 1_555 1_555
N8A H9A 1_555 1_555
C8A C7A 1_555 1_555
H10A C8A 1_555 1_555
H11A C8A 1_555 1_555
H12A C8A 1_555 1_555
N9A H13A 1_555 1_555
N10A H14A 1_555 1_555
C9A C7A 1_555 1_555
N11A H15A 1_555 1_555
C10A C9A 1_555 1_555
H16A C10A 1_555 1_555
N12A Cu2 1_555 1_555
C11A C10A 1_555 1_555
H17A C11A 1_555 1_555
C12A C11A 1_555 1_555
H18A C12A 1_555 1_555
C13A C12A 1_555 1_555
C14A C9A 1_555 1_555
H19A C14A 1_555 1_555
C15A N4A 1_555 1_555
C16A C15A 1_555 1_555
H20A C16A 1_555 1_555
H21A C16A 1_555 1_555
H22A C16A 1_555 1_555
C17A C15A 1_555 1_555
H23A C17A 1_555 1_555
H24A C17A 1_555 1_555
H25A C17A 1_555 1_555
C18A N4A 1_555 1_555
C19A N5A 1_555 1_555
C20A C19A 1_555 1_555
H26A C20A 1_555 1_555
C21A C20A 1_555 1_555
H27A C21A 1_555 1_555
C22A N6A 1_555 1_555
H28A C22A 1_555 1_555
C23A N6A 1_555 1_555
H29A C23A 1_555 1_555
C24A N7A 1_555 1_555
H30A C24A 1_555 1_555
C25A C24A 1_555 1_555
H31A C25A 1_555 1_555
C26A C25A 1_555 1_555
H32A C26A 1_555 1_555
C27A N8A 1_555 1_555
C28A N7A 1_555 1_555
H33A C28A 1_555 1_555
C29A N8A 1_555 1_555
C30A N9A 1_555 1_555
C31A C30A 1_555 1_555
H34A C31A 1_555 1_555
H35A C31A 1_555 1_555
H36A C31A 1_555 1_555
C32A C30A 1_555 1_555
H37A C32A 1_555 1_555
H38A C32A 1_555 1_555
H39A C32A 1_555 1_555
C33A C30A 1_555 1_555
C34A C33A 1_555 1_555
H40A C34A 1_555 1_555
C35A C34A 1_555 1_555
H41A C35A 1_555 1_555
C36A C35A 1_555 1_555
H42A C36A 1_555 1_555
C37A C36A 1_555 1_555
C38A C33A 1_555 1_555
H43A C38A 1_555 1_555
C39A N10A 1_555 1_555
C40A C39A 1_555 1_555
H44A C40A 1_555 1_555
H45A C40A 1_555 1_555
H46A C40A 1_555 1_555
C41A C39A 1_555 1_555
H47A C41A 1_555 1_555
H48A C41A 1_555 1_555
H49A C41A 1_555 1_555
C42A N10A 1_555 1_555
C43A N11A 1_555 1_555
C44A C43A 1_555 1_555
H50A C44A 1_555 1_555
C45A C44A 1_555 1_555
H51A C45A 1_555 1_555
C46A N12A 1_555 1_555
H52A C46A 1_555 1_555
C47A N12A 1_555 1_555
H53A C47A 1_555 1_555
O4A C6A 1_555 1_555
C48A C7A 1_555 1_555
H54A C48A 1_555 1_555
H55A C48A 1_555 1_555
H56A C48A 1_555 1_555
Cl1A Cu1 1_555 1_555
Cu1_2 N1A 1_555 1_555
Cl1_2 Cu2A 1_555 1_555
N1A_2 Cu1 1_555 1_555
Cu2A_2 Cl2A_2 1_555 1_555
Cl2A_2 Cu1 1_555 1_555
Cu2 Cl1A 1_555 1_555
N3 C6 1_555 1_555
C3 C4 1_555 1_555
C4 C5 1_555 1_555
N5 C18 1_555 1_555
N9 C29 1_555 1_555
N11 C42 1_555 1_555
C13 C14 1_555 1_555
C13 C15 1_555 1_555
C19 C23 1_555 1_555
C21 C22 1_555 1_555
C26 C27 1_555 1_555
C27 C28 1_555 1_555
C37 C38 1_555 1_555
C37 C39 1_555 1_555
C43 C47 1_555 1_555
Cl2A Cu1_2 1_555 1_555
N3A C6A 1_555 1_555
C3A C4A 1_555 1_555
C4A C5A 1_555 1_555
N5A C18A 1_555 1_555
N9A C29A 1_555 1_555
N11A C42A 1_555 1_555
C13A C14A 1_555 1_555
C13A C15A 1_555 1_555
C19A C23A 1_555 1_555
C21A C22A 1_555 1_555
C26A C27A 1_555 1_555
C27A C28A 1_555 1_555
C37A C38A 1_555 1_555
C37A C39A 1_555 1_555
C43A C47A 1_555 1_555
C45A C46A 1_555 1_555
Cu1_2 Cl1_2 1_555 1_555

#END
