
#######################################################################
#
#                 Cambridge Crystallographic Data Centre
#                                CCDC 
#
#######################################################################
#
# If this CIF has been generated from an entry in the Cambridge 
# Structural Database, then it will include bibliographic, chemical, 
# crystal, experimental, refinement or atomic coordinate data resulting 
# from the CCDC's data processing and validation procedures.
#
#######################################################################

data_NUTJIW
_symmetry_cell_setting           monoclinic
_symmetry_space_group_name_H-M   'P 21/c'
_symmetry_Int_Tables_number      14
_space_group_name_Hall           '-P 2ybc'
loop_
_symmetry_equiv_pos_site_id
_symmetry_equiv_pos_as_xyz
1 x,y,z
2 -x,1/2+y,1/2-z
3 -x,-y,-z
4 x,1/2-y,1/2+z
_cell_length_a                   8.2997(17)
_cell_length_b                   17.436(3)
_cell_length_c                   7.8550(16)
_cell_angle_alpha                90
_cell_angle_beta                 108.63(3)
_cell_angle_gamma                90
_cell_volume                     1077.16
loop_
_atom_site_label
_atom_site_type_symbol
_atom_site_fract_x
_atom_site_fract_y
_atom_site_fract_z
N1 N 0.8818(11) 0.1666(4) 0.0798(13)
N2 N 0.9765(9) 0.2360(5) 0.1145(13)
C1 C 0.8733(12) 0.2948(4) 0.0092(14)
C2 C 0.7149(10) 0.2618(5) -0.0906(13)
C3 C 0.7201(10) 0.1826(5) -0.0470(13)
Tb1 Tb 0.72201(8) -0.02231(4) 0.24710(10)
O1 O 0.6981(12) -0.0450(6) 0.5470(14)
O2 O 0.7426(13) -0.1004(6) 0.0040(14)
H1 H 0.6792 -0.0890 -0.0953
H2 H 0.7420 -0.1463 0.0036
O3 O 0.5179(13) -0.0420(6) 0.7059(14)
O4 O 0.9830(13) 0.0176(6) 0.1725(15)
H3 H 1.0756 0.0133 0.2384
H4 H 0.9557 0.0682 0.1411
O5 O 0.6246(13) 0.0623(6) 0.0045(14)
C4 C 0.5626(18) -0.0259(9) 0.571(2)
C5 C 0.5967(18) 0.1216(8) -0.094(2)
O7 O 0.4725(14) 0.1288(6) -0.2304(16)
C6 C 0.9400(17) 0.3714(8) 0.019(2)
O8 O 1.0878(13) 0.3819(6) 0.1230(16)
O9 O 0.8476(14) 0.4204(6) -0.0717(16)
H7 H 1.10(4) 0.233(17) 0.21(4)
H8 H 0.60(3) 0.286(13) -0.21(3)
N1B N 0.1182(11) -0.1666(4) -0.0798(13)
N2B N 0.0235(9) -0.2360(5) -0.1145(13)
C1B C 0.1267(12) -0.2948(4) -0.0092(14)
C2B C 0.2851(10) -0.2618(5) 0.0906(13)
C3B C 0.2799(10) -0.1826(5) 0.0470(13)
Tb1B Tb 0.27799(8) 0.02231(4) 0.75290(10)
Tb1B_2 Tb 0.27799(8) 0.02231(4) -0.24710(10)
Tb1A Tb 1.27799(8) 0.47769(4) 0.25290(10)
Tb1C Tb 0.72201(8) 0.52231(4) -0.25290(10)
Tb1C_2 Tb -0.27799(8) -0.47769(4) -0.25290(10)
Tb1A_2 Tb 0.27799(8) -0.52231(4) 0.25290(10)
O1B O 0.3019(12) 0.0450(6) 0.4530(14)
O2B O 0.2574(13) 0.1004(6) 0.9960(14)
H1B H 0.3208 0.0890 1.0953
H2B H 0.2580 0.1463 0.9964
O3B O 0.4821(13) 0.0420(6) 0.2941(14)
O4B O 0.0170(13) -0.0176(6) 0.8275(15)
H3B H -0.0756 -0.0133 0.7616
H4B H 0.0443 -0.0682 0.8589
O5B O 0.3754(13) -0.0623(6) -0.0045(14)
O5B_2 O 0.3754(13) -0.0623(6) 0.9955(14)
O5_2 O 0.6246(13) 0.0623(6) 1.0045(14)
C4B C 0.4374(18) 0.0259(9) 0.429(2)
C5B C 0.4033(18) -0.1216(8) 0.094(2)
O7B O 0.5275(14) -0.1288(6) 0.2304(16)
O7_2 O 0.4725(14) 0.1288(6) 0.7696(16)
C6B C 0.0600(17) -0.3714(8) -0.019(2)
O8B O -0.0878(13) -0.3819(6) -0.1230(16)
O8A O 0.9122(13) -0.1181(6) 0.3770(16)
O8C O 0.0878(13) 0.1181(6) 0.6230(16)
O9B O 0.1524(14) -0.4204(6) 0.0717(16)
O9C O 0.8476(14) 0.0796(6) 0.4283(16)
O9A O 0.1524(14) -0.0796(6) 0.5717(16)
H7B H -0.10(4) -0.233(17) -0.21(4)
H8B H 0.40(3) -0.286(13) 0.21(3)
O6 O 0.2794(18) 0.2393(8) 0.446(2)
H5 H 0.2365 0.1930 0.4706
H6 H 0.3471 0.2536 0.5364
loop_
_geom_bond_atom_site_label_1
_geom_bond_atom_site_label_2
_geom_bond_site_symmetry_1
_geom_bond_site_symmetry_2
N1 N2 1_555 1_555
N2 C1 1_555 1_555
C1 C2 1_555 1_555
C2 C3 1_555 1_555
C3 N1 1_555 1_555
Tb1 O1 1_555 1_555
O1 C4 1_555 1_555
O2 Tb1 1_555 1_555
H1 O2 1_555 1_555
H2 O2 1_555 1_555
O3 C4 1_555 1_555
O4 Tb1 1_555 1_555
H3 O4 1_555 1_555
H4 O4 1_555 1_555
O5 Tb1 1_555 1_555
C4 C4B 1_555 1_555
C5 C3 1_555 1_555
O6 H5 1_555 1_555
H6 O6 1_555 1_555
O7 C5 1_555 1_555
C6 C1 1_555 1_555
O8 C6 1_555 1_555
O9 C6 1_555 1_555
H7 N2 1_555 1_555
H8 C2 1_555 1_555
N1B N2B 1_555 1_555
N2B C1B 1_555 1_555
C1B C2B 1_555 1_555
C2B C3B 1_555 1_555
C3B N1B 1_555 1_555
Tb1B O3 1_555 1_555
Tb1B_2 O5 1_555 1_555
Tb1A O8 1_555 1_555
Tb1C O9 1_555 1_555
Tb1C_2 O8B 1_555 1_555
Tb1A_2 O9B 1_555 1_555
O1B Tb1B 1_555 1_555
O2B Tb1B 1_555 1_555
H1B O2B 1_555 1_555
H2B O2B 1_555 1_555
O3B Tb1 1_555 1_555
O4B Tb1B 1_555 1_555
H3B O4B 1_555 1_555
H4B O4B 1_555 1_555
O5B Tb1 1_555 1_555
O5B_2 Tb1B 1_555 1_555
O5_2 Tb1B 1_555 1_555
C4B O1B 1_555 1_555
C5B C3B 1_555 1_555
O7B Tb1 1_555 1_555
O7_2 Tb1B 1_555 1_555
C6B C1B 1_555 1_555
O8B C6B 1_555 1_555
O8A Tb1 1_555 1_555
O8C Tb1B 1_555 1_555
O9B C6B 1_555 1_555
O9C Tb1 1_555 1_555
O9A Tb1B 1_555 1_555
H7B N2B 1_555 1_555
H8B C2B 1_555 1_555
O5 C5 1_555 1_555
O7 Tb1B_2 1_555 1_555
Tb1B_2 O5B 1_555 1_555
O3B C4B 1_555 1_555
O5B C5B 1_555 1_555
C5B O7B 1_555 1_555

#END
