
#######################################################################
#
#                 Cambridge Crystallographic Data Centre
#                                CCDC 
#
#######################################################################
#
# If this CIF has been generated from an entry in the Cambridge 
# Structural Database, then it will include bibliographic, chemical, 
# crystal, experimental, refinement or atomic coordinate data resulting 
# from the CCDC's data processing and validation procedures.
#
#######################################################################

data_NUTKES
_symmetry_cell_setting           triclinic
_symmetry_space_group_name_H-M   'P -1'
_symmetry_Int_Tables_number      2
_space_group_name_Hall           '-P 1'
loop_
_symmetry_equiv_pos_site_id
_symmetry_equiv_pos_as_xyz
1 x,y,z
2 -x,-y,-z
_cell_length_a                   14.766(2)
_cell_length_b                   24.223(5)
_cell_length_c                   9.239(1)
_cell_angle_alpha                94.74(1)
_cell_angle_beta                 96.72(1)
_cell_angle_gamma                87.19(1)
_cell_volume                     3268.06
loop_
_atom_site_label
_atom_site_type_symbol
_atom_site_fract_x
_atom_site_fract_y
_atom_site_fract_z
Mn1 Mn 0.70514(3) 0.24089(2) 0.46914(5)
Mn2 Mn 0.71726(4) 0.24487(2) -0.01724(6)
O1 O 0.6552(2) 0.17066(10) 0.3415(2)
O2 O 0.6849(2) 0.1860(1) 0.1213(3)
O3 O 0.5797(2) 0.26032(10) 0.5793(2)
O4 O 0.5840(2) 0.2969(1) 0.3719(3)
O5 O 0.8035(2) 0.2943(1) 0.3874(2)
O6 O 0.7565(2) 0.3242(1) 0.5932(3)
O7 O 0.8128(2) 0.1943(1) -0.1292(2)
O8 O 0.7804(2) 0.2008(1) 0.6350(3)
O9 O 0.6261(2) 0.3089(1) 0.1007(3)
O10 O 0.5841(2) 0.2308(1) -0.1482(3)
O11 O 0.7271(2) 0.3188(1) -0.1321(3)
O12 O 0.8407(2) 0.2737(1) 0.1167(3)
C1 C 0.6514(2) 0.1584(1) 0.2057(4)
C2 C 0.6005(2) 0.1039(1) 0.1458(3)
C3 C 0.5445(2) 0.2908(1) 0.4810(4)
C4 C 0.4541(2) 0.3246(1) 0.5067(3)
C5 C 0.8052(2) 0.3302(1) 0.4953(4)
C6 C 0.8635(2) 0.3822(1) 0.5017(3)
C7 C 0.8308(2) 0.1862(1) -0.2578(4)
C8 C 0.9246(2) 0.1535(1) -0.2809(3)
C9 C 0.5084(2) 0.1050(1) 0.2080(3)
C10 C 0.4536(3) 0.1535(2) 0.2064(5)
C11 C 0.3667(3) 0.1549(2) 0.2487(5)
C12 C 0.3326(3) 0.1086(2) 0.2945(5)
C13 C 0.3862(3) 0.0602(2) 0.2978(5)
C14 C 0.4730(2) 0.0592(2) 0.2545(4)
C15 C 0.5841(2) 0.1006(1) -0.0234(4)
C16 C 0.4979(2) 0.0953(2) -0.1001(4)
C17 C 0.4858(3) 0.0918(2) -0.2523(4)
C18 C 0.5589(3) 0.0932(2) -0.3301(4)
C19 C 0.6457(3) 0.0971(2) -0.2560(4)
C20 C 0.6577(2) 0.1006(2) -0.1051(4)
C21 C 0.6608(2) 0.0530(1) 0.1974(4)
C22 C 0.6931(3) 0.0507(2) 0.3449(4)
C23 C 0.7437(3) 0.0048(2) 0.3945(5)
C24 C 0.7629(3) -0.0396(2) 0.2989(6)
C25 C 0.7295(3) -0.0388(2) 0.1543(5)
C26 C 0.6785(3) 0.0075(2) 0.1036(4)
C27 C 0.3854(2) 0.2915(1) 0.5724(4)
C28 C 0.3121(3) 0.3199(2) 0.6316(4)
C29 C 0.2490(3) 0.2930(2) 0.6946(5)
C30 C 0.2550(3) 0.2364(2) 0.6975(5)
C31 C 0.3241(3) 0.2074(2) 0.6346(6)
C32 C 0.3893(3) 0.2342(2) 0.5729(5)
C33 C 0.4904(2) 0.3733(1) 0.6133(4)
C34 C 0.5333(3) 0.4161(2) 0.5625(4)
C35 C 0.5672(3) 0.4593(2) 0.6576(6)
C36 C 0.5612(3) 0.4598(2) 0.8045(6)
C37 C 0.5217(3) 0.4169(2) 0.8575(5)
C38 C 0.4872(3) 0.3733(2) 0.7630(4)
C39 C 0.4050(2) 0.3439(1) 0.3604(4)
C40 C 0.3592(3) 0.3956(2) 0.3538(4)
C41 C 0.3121(3) 0.4107(2) 0.2227(5)
C42 C 0.3097(3) 0.3760(2) 0.0988(5)
C43 C 0.3530(3) 0.3242(2) 0.1033(4)
C44 C 0.3994(3) 0.3086(2) 0.2340(4)
C45 C 0.8051(2) 0.4278(1) 0.4210(4)
C46 C 0.8270(3) 0.4828(2) 0.4508(4)
C47 C 0.7800(3) 0.5242(2) 0.3746(5)
C48 C 0.7090(3) 0.5113(2) 0.2698(5)
C49 C 0.6857(3) 0.4574(2) 0.2416(5)
C50 C 0.7342(3) 0.4152(2) 0.3147(5)
C51 C 0.9508(2) 0.3680(1) 0.4290(4)
C52 C 1.0004(3) 0.3183(2) 0.4538(5)
C53 C 1.0841(3) 0.3076(2) 0.4010(6)
C54 C 1.1204(3) 0.3442(2) 0.3234(5)
C55 C 1.0723(3) 0.3935(2) 0.2952(5)
C56 C 0.9884(3) 0.4044(2) 0.3483(4)
C57 C 0.8865(3) 0.4036(1) 0.6638(4)
C58 C 0.9742(3) 0.4028(2) 0.7335(5)
C59 C 0.9913(4) 0.4224(3) 0.8796(6)
C60 C 0.9227(5) 0.4433(3) 0.9564(5)
C61 C 0.8346(4) 0.4450(2) 0.8886(5)
C62 C 0.8168(3) 0.4256(2) 0.7428(4)
C63 C 0.9158(2) 0.0932(1) -0.2417(4)
C64 C 0.8940(2) 0.0828(2) -0.1044(4)
C65 C 0.8880(3) 0.0293(2) -0.0647(4)
C66 C 0.9043(3) -0.0154(2) -0.1620(5)
C67 C 0.9284(3) -0.0062(2) -0.2959(5)
C68 C 0.9344(3) 0.0473(2) -0.3358(4)
C69 C 0.9478(2) 0.1545(1) -0.4387(4)
C70 C 0.8840(2) 0.1387(2) -0.5562(4)
C71 C 0.9038(3) 0.1383(2) -0.6981(4)
C72 C 0.9878(3) 0.1527(2) -0.7276(4)
C73 C 1.0534(3) 0.1665(2) -0.6135(5)
C74 C 1.0327(3) 0.1677(2) -0.4700(4)
C75 C 0.9986(2) 0.1820(1) -0.1721(3)
C76 C 1.0720(2) 0.1513(2) -0.1043(4)
C77 C 1.1389(3) 0.1776(2) -0.0092(4)
C78 C 1.1340(3) 0.2338(2) 0.0224(5)
C79 C 1.0626(3) 0.2647(2) -0.0450(5)
C80 C 0.9960(3) 0.2391(2) -0.1419(4)
H1 H 0.6048 0.3090 0.2005
H2 H 0.5823 0.3037 0.0353
H3 H 0.5531 0.1944 -0.1614
H4 H 0.5809 0.2409 -0.2472
H5 H 0.7318 0.3239 -0.2273
H6 H 0.7533 0.3538 -0.0789
H7 H 0.8999 0.2714 0.0779
H8 H 0.8445 0.2872 0.2133
H9 H 0.4763 0.1864 0.1761
H10 H 0.3306 0.1882 0.2462
H11 H 0.2732 0.1099 0.3247
H12 H 0.3637 0.0274 0.3293
H13 H 0.5092 0.0258 0.2566
H14 H 0.4460 0.0937 -0.0477
H15 H 0.4262 0.0874 -0.3026
H16 H 0.5499 0.0913 -0.4342
H17 H 0.6965 0.0980 -0.3097
H18 H 0.7174 0.1035 -0.0555
H19 H 0.6805 0.0812 0.4127
H20 H 0.7647 0.0036 0.4958
H21 H 0.7983 -0.0707 0.3318
H22 H 0.7410 -0.0697 0.0872
H23 H 0.6552 0.0072 0.0027
H24 H 0.3059 0.3591 0.6295
H25 H 0.2011 0.3135 0.7369
H26 H 0.2122 0.2172 0.7427
H27 H 0.3275 0.1682 0.6323
H28 H 0.4367 0.2132 0.5298
H29 H 0.5399 0.4158 0.4610
H30 H 0.5954 0.4889 0.6211
H31 H 0.5840 0.4896 0.8694
H32 H 0.5178 0.4166 0.9597
H33 H 0.4605 0.3433 0.8012
H34 H 0.3601 0.4206 0.4393
H35 H 0.2811 0.4461 0.2190
H36 H 0.2789 0.3876 0.0096
H37 H 0.3507 0.2992 0.0179
H38 H 0.4278 0.2724 0.2371
H39 H 0.8755 0.4924 0.5254
H40 H 0.7977 0.5620 0.3952
H41 H 0.6772 0.5396 0.2172
H42 H 0.6355 0.4483 0.1705
H43 H 0.7177 0.3774 0.2915
H44 H 0.9765 0.2916 0.5073
H45 H 1.1166 0.2736 0.4185
H46 H 1.1782 0.3361 0.2880
H47 H 1.0966 0.4197 0.2401
H48 H 0.9561 0.4383 0.3291
H49 H 1.0237 0.3893 0.6808
H50 H 1.0520 0.4213 0.9263
H51 H 0.9362 0.4576 1.0554
H52 H 0.7866 0.4588 0.9424
H53 H 0.7563 0.4271 0.6967
H54 H 0.8837 0.1133 -0.0358
H55 H 0.8720 0.0234 0.0299
H56 H 0.8977 -0.0521 -0.1365
H57 H 0.9409 -0.0368 -0.3623
H58 H 0.9518 0.0526 -0.4297
H59 H 0.8258 0.1274 -0.5379
H60 H 0.8596 0.1274 -0.7768
H61 H 1.0016 0.1535 -0.8262
H62 H 1.1130 0.1757 -0.6323
H63 H 1.0782 0.1783 -0.3919
H64 H 1.0757 0.1121 -0.1228
H65 H 1.1890 0.1567 0.0347
H66 H 1.1795 0.2519 0.0894
H67 H 1.0589 0.3040 -0.0248
H68 H 0.9463 0.2617 -0.1904
O8_2 O 0.7804(2) 0.2008(1) -0.3650(3)
Mn1_2 Mn 0.70514(3) 0.24089(2) -0.53086(5)
loop_
_geom_bond_atom_site_label_1
_geom_bond_atom_site_label_2
_geom_bond_site_symmetry_1
_geom_bond_site_symmetry_2
Mn1 O1 1_555 1_555
Mn2 O2 1_555 1_555
O1 C1 1_555 1_555
O2 C1 1_555 1_555
O3 Mn1 1_555 1_555
O4 Mn1 1_555 1_555
O5 Mn1 1_555 1_555
O6 Mn1 1_555 1_555
O7 Mn2 1_555 1_555
O8 Mn1 1_555 1_555
O9 Mn2 1_555 1_555
O10 Mn2 1_555 1_555
O11 Mn2 1_555 1_555
O12 Mn2 1_555 1_555
C1 C2 1_555 1_555
C2 C9 1_555 1_555
C3 O3 1_555 1_555
C4 C3 1_555 1_555
C5 O5 1_555 1_555
C6 C5 1_555 1_555
C7 O7 1_555 1_555
C8 C7 1_555 1_555
C9 C10 1_555 1_555
C10 C11 1_555 1_555
C11 C12 1_555 1_555
C12 C13 1_555 1_555
C13 C14 1_555 1_555
C14 C9 1_555 1_555
C15 C2 1_555 1_555
C16 C15 1_555 1_555
C17 C16 1_555 1_555
C18 C17 1_555 1_555
C19 C18 1_555 1_555
C20 C15 1_555 1_555
C21 C2 1_555 1_555
C22 C21 1_555 1_555
C23 C22 1_555 1_555
C24 C23 1_555 1_555
C25 C24 1_555 1_555
C26 C21 1_555 1_555
C27 C4 1_555 1_555
C28 C27 1_555 1_555
C29 C28 1_555 1_555
C30 C29 1_555 1_555
C31 C30 1_555 1_555
C32 C27 1_555 1_555
C33 C4 1_555 1_555
C34 C33 1_555 1_555
C35 C34 1_555 1_555
C36 C35 1_555 1_555
C37 C36 1_555 1_555
C38 C33 1_555 1_555
C39 C4 1_555 1_555
C40 C39 1_555 1_555
C41 C40 1_555 1_555
C42 C41 1_555 1_555
C43 C42 1_555 1_555
C44 C39 1_555 1_555
C45 C6 1_555 1_555
C46 C45 1_555 1_555
C47 C46 1_555 1_555
C48 C47 1_555 1_555
C49 C48 1_555 1_555
C50 C45 1_555 1_555
C51 C6 1_555 1_555
C52 C51 1_555 1_555
C53 C52 1_555 1_555
C54 C53 1_555 1_555
C55 C54 1_555 1_555
C56 C51 1_555 1_555
C57 C6 1_555 1_555
C58 C57 1_555 1_555
C59 C58 1_555 1_555
C60 C59 1_555 1_555
C61 C60 1_555 1_555
C62 C57 1_555 1_555
C63 C8 1_555 1_555
C64 C63 1_555 1_555
C65 C64 1_555 1_555
C66 C65 1_555 1_555
C67 C66 1_555 1_555
C68 C63 1_555 1_555
C69 C8 1_555 1_555
C70 C69 1_555 1_555
C71 C70 1_555 1_555
C72 C71 1_555 1_555
C73 C72 1_555 1_555
C74 C69 1_555 1_555
C75 C8 1_555 1_555
C76 C75 1_555 1_555
C77 C76 1_555 1_555
C78 C77 1_555 1_555
C79 C78 1_555 1_555
C80 C75 1_555 1_555
H1 O9 1_555 1_555
H2 O9 1_555 1_555
H3 O10 1_555 1_555
H4 O10 1_555 1_555
H5 O11 1_555 1_555
H6 O11 1_555 1_555
H7 O12 1_555 1_555
H8 O12 1_555 1_555
H9 C10 1_555 1_555
H10 C11 1_555 1_555
H11 C12 1_555 1_555
H12 C13 1_555 1_555
H13 C14 1_555 1_555
H14 C16 1_555 1_555
H15 C17 1_555 1_555
H16 C18 1_555 1_555
H17 C19 1_555 1_555
H18 C20 1_555 1_555
H19 C22 1_555 1_555
H20 C23 1_555 1_555
H21 C24 1_555 1_555
H22 C25 1_555 1_555
H23 C26 1_555 1_555
H24 C28 1_555 1_555
H25 C29 1_555 1_555
H26 C30 1_555 1_555
H27 C31 1_555 1_555
H28 C32 1_555 1_555
H29 C34 1_555 1_555
H30 C35 1_555 1_555
H31 C36 1_555 1_555
H32 C37 1_555 1_555
H33 C38 1_555 1_555
H34 C40 1_555 1_555
H35 C41 1_555 1_555
H36 C42 1_555 1_555
H37 C43 1_555 1_555
H38 C44 1_555 1_555
H39 C46 1_555 1_555
H40 C47 1_555 1_555
H41 C48 1_555 1_555
H42 C49 1_555 1_555
H43 C50 1_555 1_555
H44 C52 1_555 1_555
H45 C53 1_555 1_555
H46 C54 1_555 1_555
H47 C55 1_555 1_555
H48 C56 1_555 1_555
H49 C58 1_555 1_555
H50 C59 1_555 1_555
H51 C60 1_555 1_555
H52 C61 1_555 1_555
H53 C62 1_555 1_555
H54 C64 1_555 1_555
H55 C65 1_555 1_555
H56 C66 1_555 1_555
H57 C67 1_555 1_555
H58 C68 1_555 1_555
H59 C70 1_555 1_555
H60 C71 1_555 1_555
H61 C72 1_555 1_555
H62 C73 1_555 1_555
H63 C74 1_555 1_555
H64 C76 1_555 1_555
H65 C77 1_555 1_555
H66 C78 1_555 1_555
H67 C79 1_555 1_555
H68 C80 1_555 1_555
O8_2 C7 1_555 1_555
Mn1_2 O8_2 1_555 1_555
O4 C3 1_555 1_555
O6 C5 1_555 1_555
C19 C20 1_555 1_555
C25 C26 1_555 1_555
C31 C32 1_555 1_555
C37 C38 1_555 1_555
C43 C44 1_555 1_555
C49 C50 1_555 1_555
C55 C56 1_555 1_555
C61 C62 1_555 1_555
C67 C68 1_555 1_555
C73 C74 1_555 1_555
C79 C80 1_555 1_555

#END
