
#######################################################################
#
#                 Cambridge Crystallographic Data Centre
#                                CCDC 
#
#######################################################################
#
# If this CIF has been generated from an entry in the Cambridge 
# Structural Database, then it will include bibliographic, chemical, 
# crystal, experimental, refinement or atomic coordinate data resulting 
# from the CCDC's data processing and validation procedures.
#
#######################################################################

data_NUTLUJ
_symmetry_cell_setting           monoclinic
_symmetry_space_group_name_H-M   'P 21/n'
_symmetry_Int_Tables_number      14
_space_group_name_Hall           '-P 2yn'
loop_
_symmetry_equiv_pos_site_id
_symmetry_equiv_pos_as_xyz
1 x,y,z
2 1/2-x,1/2+y,1/2-z
3 -x,-y,-z
4 1/2+x,1/2-y,1/2+z
_cell_length_a                   13.558(4)
_cell_length_b                   7.051(2)
_cell_length_c                   15.482(4)
_cell_angle_alpha                90
_cell_angle_beta                 90.42(2)
_cell_angle_gamma                90
_cell_volume                     1480
loop_
_atom_site_label
_atom_site_type_symbol
_atom_site_fract_x
_atom_site_fract_y
_atom_site_fract_z
Cd1 Cd 0.23522(3) 0.28015(6) 0.63848(3)
S1 S 0.19859(12) -0.0326(2) 0.72062(9)
S2 S 0.16217(10) -0.1981(2) 0.61601(9)
O1 O 0.1753(3) -0.0731(6) 0.5415(2)
O2 O 0.0592(3) -0.2582(6) 0.6262(3)
O3 O 0.2283(3) 0.6376(5) 0.6145(2)
N1 N 0.3990(3) 0.2323(7) 0.5946(3)
N2 N 0.2447(3) 0.3243(6) 0.4886(3)
C1 C 0.4744(4) 0.1906(9) 0.6471(4)
H1 H 0.4617 0.1692 0.7053
C2 C 0.5711(5) 0.1777(10) 0.6188(4)
H2 H 0.6217 0.1486 0.6574
C3 C 0.5911(4) 0.2079(9) 0.5340(4)
H3 H 0.6555 0.1993 0.5141
C4 C 0.5132(4) 0.2525(8) 0.4765(3)
C5 C 0.5290(5) 0.2878(10) 0.3862(4)
H4 H 0.5924 0.2829 0.3639
C6 C 0.4524(5) 0.3276(10) 0.3343(4)
H5 H 0.4637 0.3457 0.2757
C7 C 0.3529(5) 0.3435(8) 0.3662(4)
C8 C 0.2724(5) 0.3952(10) 0.3137(4)
H6 H 0.2816 0.4197 0.2553
C9 C 0.1806(5) 0.4093(11) 0.3489(4)
H7 H 0.1263 0.4431 0.3152
C10 C 0.1705(5) 0.3711(9) 0.4378(4)
H8 H 0.1080 0.3795 0.4618
C11 C 0.3355(4) 0.3108(7) 0.4541(3)
C12 C 0.4170(4) 0.2625(7) 0.5102(3)
O4 O 0.0716(3) 0.3485(7) 0.6350(4)
H9 H 0.024(4) 0.286(8) 0.630(5)
H10 H 0.060(5) 0.458(5) 0.629(5)
Cd1A Cd 0.26478(3) -0.21985(6) 0.86152(3)
Cd1_2 Cd 0.23522(3) -0.71985(6) 0.63848(3)
O3_2 O 0.2283(3) -0.3624(5) 0.6145(2)
S1A S 0.30141(12) 0.4674(2) 0.77938(9)
O5 O -0.0695(4) 0.0744(7) 0.6150(3)
H11 H -0.097(5) 0.108(8) 0.572(3)
H12 H -0.048(5) -0.030(7) 0.609(4)
loop_
_geom_bond_atom_site_label_1
_geom_bond_atom_site_label_2
_geom_bond_site_symmetry_1
_geom_bond_site_symmetry_2
Cd1 S1 1_555 1_555
S1 S2 1_555 1_555
S2 O1 1_555 1_555
O2 S2 1_555 1_555
O3 Cd1 1_555 1_555
N1 Cd1 1_555 1_555
N2 Cd1 1_555 1_555
C1 N1 1_555 1_555
H1 C1 1_555 1_555
C2 C1 1_555 1_555
H2 C2 1_555 1_555
C3 C2 1_555 1_555
H3 C3 1_555 1_555
C4 C3 1_555 1_555
C5 C4 1_555 1_555
H4 C5 1_555 1_555
C6 C5 1_555 1_555
H5 C6 1_555 1_555
C7 C6 1_555 1_555
C8 C7 1_555 1_555
H6 C8 1_555 1_555
C9 C8 1_555 1_555
H7 C9 1_555 1_555
C10 N2 1_555 1_555
H8 C10 1_555 1_555
C11 N2 1_555 1_555
C12 N1 1_555 1_555
O4 Cd1 1_555 1_555
H9 O4 1_555 1_555
H10 O4 1_555 1_555
O5 H11 1_555 1_555
H12 O5 1_555 1_555
Cd1A S1 1_555 1_555
Cd1_2 O3_2 1_555 1_555
O3_2 S2 1_555 1_555
S1A Cd1 1_555 1_555
C4 C12 1_555 1_555
C7 C11 1_555 1_555
C9 C10 1_555 1_555
C11 C12 1_555 1_555

#END
