
#######################################################################
#
#                 Cambridge Crystallographic Data Centre
#                                CCDC 
#
#######################################################################
#
# If this CIF has been generated from an entry in the Cambridge 
# Structural Database, then it will include bibliographic, chemical, 
# crystal, experimental, refinement or atomic coordinate data resulting 
# from the CCDC's data processing and validation procedures.
#
#######################################################################

data_NUTYEH
_symmetry_cell_setting           orthorhombic
_symmetry_space_group_name_H-M   'P b c a'
_symmetry_Int_Tables_number      61
_space_group_name_Hall           '-P 2ac 2ab'
loop_
_symmetry_equiv_pos_site_id
_symmetry_equiv_pos_as_xyz
1 x,y,z
2 1/2-x,-y,1/2+z
3 1/2+x,1/2-y,-z
4 -x,1/2+y,1/2-z
5 -x,-y,-z
6 1/2+x,y,1/2-z
7 1/2-x,1/2+y,z
8 x,1/2-y,1/2+z
_cell_length_a                   13.8850(13)
_cell_length_b                   11.5213(9)
_cell_length_c                   9.7506(8)
_cell_angle_alpha                90
_cell_angle_beta                 90
_cell_angle_gamma                90
_cell_volume                     1559.84
loop_
_atom_site_label
_atom_site_type_symbol
_atom_site_fract_x
_atom_site_fract_y
_atom_site_fract_z
Cd1 Cd 0.136829(10) 0.071373(12) 0.49905(2)
Fe1 Fe 0.0000 0.0000 1.0000
N1 N 0.06134(15) 0.0073(2) 0.6953(2)
N2 N 0.19194(16) 0.15641(19) 0.2928(2)
H1 H 0.1980 0.0983 0.2287
H2 H 0.1448 0.2061 0.2619
N3 N 0.36623(15) 0.39323(19) 0.3933(2)
H3 H 0.3888 0.4035 0.3054
H4 H 0.4101 0.3474 0.4387
N4 N -0.20937(15) 0.05780(18) 0.9262(2)
N5 N 0.05498(15) 0.25825(19) 1.0219(2)
C1 C 0.03764(17) 0.0031(2) 0.8094(3)
C2 C -0.12979(17) 0.0373(2) 0.9539(2)
C3 C 0.03277(15) 0.1619(2) 1.0139(3)
C4 C 0.27424(18) 0.3287(2) 0.3851(2)
H5 H 0.2238 0.3799 0.3464
H6 H 0.2539 0.3058 0.4786
C5 C 0.28382(18) 0.2215(2) 0.2967(3)
H7 H 0.3022 0.2444 0.2024
H8 H 0.3353 0.1711 0.3339
Cd1D Cd -0.136829(10) -0.071373(12) 1.50095(2)
Cd1F Cd 0.363171(10) 0.571373(12) 0.49905(2)
Cd1E Cd -0.363171(10) 0.071373(12) 1.00095(2)
Cd1G Cd 0.136829(10) 0.428627(12) 0.99905(2)
Cd1A Cd 0.363171(10) -0.071373(12) 0.99905(2)
Cd1C Cd -0.136829(10) -0.428627(12) 1.00095(2)
Cd1F_2 Cd 0.363171(10) -0.428627(12) 0.49905(2)
N1D N -0.06134(15) -0.0073(2) 1.3047(2)
N2F N 0.30806(16) -0.34359(19) 0.2928(2)
N2D N -0.19194(16) -0.15641(19) 1.7072(2)
H1F H 0.3020 -0.4017 0.2287
H1D H -0.1980 -0.0983 1.7713
H2F H 0.3552 -0.2939 0.2619
H2D H -0.1448 -0.2061 1.7381
N3F N 0.13377(15) -0.10677(19) 0.3933(2)
N3B N -0.13377(15) 0.10677(19) 1.6067(2)
H3F H 0.1112 -0.0965 0.3054
H3B H -0.1112 0.0965 1.6946
H4F H 0.0899 -0.1526 0.4387
H4B H -0.0899 0.1526 1.5613
N4D N 0.20937(15) -0.05780(18) 1.0738(2)
N4E N 0.29063(15) 0.05780(18) 0.5738(2)
N4A N -0.29063(15) -0.05780(18) 1.4262(2)
N5D N -0.05498(15) -0.25825(19) 0.9781(2)
N5G N 0.05498(15) 0.24175(19) 0.5219(2)
N5C N -0.05498(15) -0.24175(19) 1.4781(2)
C1D C -0.03764(17) -0.0031(2) 1.1906(3)
C2D C 0.12979(17) -0.0373(2) 1.0461(2)
C3D C -0.03277(15) -0.1619(2) 0.9861(3)
C4F C 0.22576(18) -0.1713(2) 0.3851(2)
H5F H 0.2762 -0.1201 0.3464
H6F H 0.2461 -0.1942 0.4786
C5F C 0.21618(18) -0.2785(2) 0.2967(3)
H7F H 0.1978 -0.2556 0.2024
H8F H 0.1647 -0.3289 0.3339
loop_
_geom_bond_atom_site_label_1
_geom_bond_atom_site_label_2
_geom_bond_site_symmetry_1
_geom_bond_site_symmetry_2
Cd1 N1 1_555 1_555
Fe1 C1 1_555 1_555
N1 C1 1_555 1_555
N2 Cd1 1_555 1_555
H1 N2 1_555 1_555
H2 N2 1_555 1_555
N3 H3 1_555 1_555
H4 N3 1_555 1_555
N4 C2 1_555 1_555
N5 C3 1_555 1_555
C2 Fe1 1_555 1_555
C3 Fe1 1_555 1_555
C4 N3 1_555 1_555
H5 C4 1_555 1_555
H6 C4 1_555 1_555
C5 N2 1_555 1_555
H7 C5 1_555 1_555
H8 C5 1_555 1_555
Cd1D N1D 1_555 1_555
Cd1F N3 1_555 1_555
Cd1E N4 1_555 1_555
Cd1G N5 1_555 1_555
Cd1A N4D 1_555 1_555
Cd1C N5D 1_555 1_555
Cd1F_2 N2F 1_555 1_555
N1D C1D 1_555 1_555
N2F H1F 1_555 1_555
N2D Cd1D 1_555 1_555
H1D N2D 1_555 1_555
H2F N2F 1_555 1_555
H2D N2D 1_555 1_555
N3F Cd1 1_555 1_555
N3B Cd1D 1_555 1_555
H3F N3F 1_555 1_555
H3B N3B 1_555 1_555
H4F N3F 1_555 1_555
H4B N3B 1_555 1_555
N4D C2D 1_555 1_555
N4E Cd1 1_555 1_555
N4A Cd1D 1_555 1_555
N5D C3D 1_555 1_555
N5G Cd1 1_555 1_555
N5C Cd1D 1_555 1_555
C1D Fe1 1_555 1_555
C2D Fe1 1_555 1_555
C3D Fe1 1_555 1_555
C4F N3F 1_555 1_555
H5F C4F 1_555 1_555
H6F C4F 1_555 1_555
C5F N2F 1_555 1_555
H7F C5F 1_555 1_555
H8F C5F 1_555 1_555
C4 C5 1_555 1_555
C4F C5F 1_555 1_555

#END
