
#######################################################################
#
#                 Cambridge Crystallographic Data Centre
#                                CCDC 
#
#######################################################################
#
# If this CIF has been generated from an entry in the Cambridge 
# Structural Database, then it will include bibliographic, chemical, 
# crystal, experimental, refinement or atomic coordinate data resulting 
# from the CCDC's data processing and validation procedures.
#
#######################################################################

data_NUVBIR
_symmetry_cell_setting           monoclinic
_symmetry_space_group_name_H-M   'P 21'
_symmetry_Int_Tables_number      4
_space_group_name_Hall           'P 2yb'
loop_
_symmetry_equiv_pos_site_id
_symmetry_equiv_pos_as_xyz
1 x,y,z
2 -x,1/2+y,-z
_cell_length_a                   10.6759(6)
_cell_length_b                   7.0765(4)
_cell_length_c                   14.7557(9)
_cell_angle_alpha                90
_cell_angle_beta                 96.369(4)
_cell_angle_gamma                90
_cell_volume                     1107.88
loop_
_atom_site_label
_atom_site_type_symbol
_atom_site_fract_x
_atom_site_fract_y
_atom_site_fract_z
Cu1 Cu 0.08843(3) 0.55996(11) 0.90871(3)
O1 O 0.5283(2) 0.5368(7) 1.25358(15)
H1 H 0.5910 0.6018 1.2676
O2 O 0.1871(2) 0.5067(4) 1.02224(15)
O3 O 0.2204(2) 0.6574(5) 0.75570(16)
H2 H 0.1454 0.6510 0.7364
O4 O -0.0075(2) 0.6073(5) 0.79481(15)
O5 O -0.0429(2) 0.4192(5) 1.05464(16)
H3 H 0.0308 0.4354 1.0754
O6 O -0.3483(2) 0.7017(5) 0.57195(18)
H4 H -0.4255 0.6987 0.5633
N1 N 0.2353(3) 0.6237(4) 0.84961(19)
N2 N -0.0597(3) 0.4775(5) 0.9631(2)
C1 C 0.3482(3) 0.6515(6) 0.8880(2)
H5 H 0.4087 0.6924 0.8517
C2 C 0.3862(3) 0.6231(5) 0.9830(2)
C3 C 0.5130(3) 0.6673(6) 1.0148(3)
H6 H 0.5652 0.7153 0.9739
C4 C 0.5607(3) 0.6417(6) 1.1036(3)
H7 H 0.6440 0.6734 1.1227
C5 C 0.4847(3) 0.5684(9) 1.1649(2)
C6 C 0.3591(3) 0.5212(6) 1.1367(2)
H8 H 0.3093 0.4702 1.1784
C7 C 0.3077(3) 0.5500(10) 1.0462(2)
C8 C -0.1739(3) 0.4739(6) 0.9258(3)
H9 H -0.2352 0.4318 0.9611
C9 C -0.2144(3) 0.5297(7) 0.8340(2)
C10 C -0.3442(3) 0.5188(6) 0.8023(3)
H10 H -0.3995 0.4725 0.8415
C11 C -0.3914(3) 0.5732(9) 0.7172(2)
H11 H -0.4773 0.5635 0.6988
C12 C -0.3102(3) 0.6441(6) 0.6571(3)
C13 C -0.1811(3) 0.6540(6) 0.6857(3)
H12 H -0.1269 0.7006 0.6458
C14 C -0.1318(3) 0.5957(7) 0.7726(2)
Cu1A Cu -0.08843(3) 0.05996(11) 1.09129(3)
O5A O 0.0429(2) 0.9192(5) 0.94536(16)
N3 N 1.2258(3) 0.1625(6) 0.6985(2)
N4 N 0.5974(3) 0.2096(6) 0.4848(2)
C15 C 0.6220(4) 0.1699(7) 0.5714(3)
H13 H 0.5546 0.1417 0.6040
C16 C 0.7426(4) 0.1672(7) 0.6177(3)
H14 H 0.7544 0.1379 0.6795
C17 C 0.8446(3) 0.2083(6) 0.5715(2)
C18 C 0.8185(4) 0.2545(8) 0.4814(3)
H15 H 0.8836 0.2853 0.4472
C19 C 0.6941(4) 0.2552(9) 0.4410(3)
H16 H 0.6786 0.2896 0.3800
C20 C 0.9771(3) 0.1996(6) 0.6174(2)
C21 C 1.0779(4) 0.2633(8) 0.5747(3)
H17 H 1.0645 0.3207 0.5178
C22 C 1.1999(4) 0.2408(9) 0.6177(3)
H18 H 1.2666 0.2834 0.5877
C23 C 1.1301(4) 0.1046(8) 0.7402(3)
H19 H 1.1469 0.0499 0.7976
C24 C 1.0045(4) 0.1212(7) 0.7027(3)
H20 H 0.9399 0.0796 0.7352
loop_
_geom_bond_atom_site_label_1
_geom_bond_atom_site_label_2
_geom_bond_site_symmetry_1
_geom_bond_site_symmetry_2
Cu1 O2 1_555 1_555
O1 H1 1_555 1_555
O2 C7 1_555 1_555
O3 H2 1_555 1_555
O4 Cu1 1_555 1_555
O5 H3 1_555 1_555
O6 H4 1_555 1_555
N1 Cu1 1_555 1_555
N2 Cu1 1_555 1_555
C1 N1 1_555 1_555
H5 C1 1_555 1_555
C2 C1 1_555 1_555
C3 C2 1_555 1_555
H6 C3 1_555 1_555
C4 C3 1_555 1_555
H7 C4 1_555 1_555
C5 O1 1_555 1_555
C6 C5 1_555 1_555
H8 C6 1_555 1_555
C7 C2 1_555 1_555
C8 N2 1_555 1_555
H9 C8 1_555 1_555
C9 C8 1_555 1_555
C10 C9 1_555 1_555
H10 C10 1_555 1_555
C11 C10 1_555 1_555
H11 C11 1_555 1_555
C12 O6 1_555 1_555
C13 C12 1_555 1_555
H12 C13 1_555 1_555
C14 O4 1_555 1_555
N3 C22 1_555 1_555
N4 C15 1_555 1_555
C15 H13 1_555 1_555
C16 C15 1_555 1_555
H14 C16 1_555 1_555
C17 C16 1_555 1_555
C18 C17 1_555 1_555
H15 C18 1_555 1_555
C19 N4 1_555 1_555
H16 C19 1_555 1_555
C20 C17 1_555 1_555
C21 C20 1_555 1_555
H17 C21 1_555 1_555
C22 C21 1_555 1_555
H18 C22 1_555 1_555
C23 N3 1_555 1_555
H19 C23 1_555 1_555
C24 C20 1_555 1_555
H20 C24 1_555 1_555
Cu1A O5 1_555 1_555
O5A Cu1 1_555 1_555
O3 N1 1_555 1_555
O5 N2 1_555 1_555
C4 C5 1_555 1_555
C6 C7 1_555 1_555
C9 C14 1_555 1_555
C11 C12 1_555 1_555
C13 C14 1_555 1_555
C18 C19 1_555 1_555
C23 C24 1_555 1_555

#END
