
#######################################################################
#
#                 Cambridge Crystallographic Data Centre
#                                CCDC 
#
#######################################################################
#
# If this CIF has been generated from an entry in the Cambridge 
# Structural Database, then it will include bibliographic, chemical, 
# crystal, experimental, refinement or atomic coordinate data resulting 
# from the CCDC's data processing and validation procedures.
#
#######################################################################

data_NUVBOW
_symmetry_cell_setting           orthorhombic
_symmetry_space_group_name_H-M   'F 2 d d'
_symmetry_Int_Tables_number      43
_space_group_name_Hall           'F -2d 2'
loop_
_symmetry_equiv_pos_site_id
_symmetry_equiv_pos_as_xyz
1 x,y,z
2 x,1/2+y,1/2+z
3 1/2+x,y,1/2+z
4 1/2+x,1/2+y,z
5 x,-y,-z
6 x,1/2-y,1/2-z
7 1/2+x,-y,1/2-z
8 1/2+x,1/2-y,-z
9 1/4+x,1/4-y,1/4+z
10 1/4+x,3/4-y,3/4+z
11 3/4+x,1/4-y,3/4+z
12 3/4+x,3/4-y,1/4+z
13 1/4+x,1/4+y,1/4-z
14 1/4+x,3/4+y,3/4-z
15 3/4+x,1/4+y,3/4-z
16 3/4+x,3/4+y,1/4-z
_cell_length_a                   10.3179(3)
_cell_length_b                   17.9469(6)
_cell_length_c                   34.194(2)
_cell_angle_alpha                90
_cell_angle_beta                 90
_cell_angle_gamma                90
_cell_volume                     6331.85
loop_
_atom_site_label
_atom_site_type_symbol
_atom_site_fract_x
_atom_site_fract_y
_atom_site_fract_z
Ag1 Ag 1.21182(8) 0.15541(4) 0.13365(2)
N1 N 1.4070(6) 0.1946(3) 0.1239(2)
C2 C 1.8800(7) 0.2851(4) 0.1358(2)
C3 C 2.0694(7) 0.3237(4) 0.0935(2)
C4 C 1.6631(7) 0.2445(4) 0.1132(2)
C5 C 1.7961(7) 0.2692(4) 0.1073(2)
C7 C 2.0927(8) 0.3232(4) 0.1621(2)
N2 N 2.2694(7) 0.3616(4) 0.1221(2)
C9 C 2.2173(12) 0.3483(4) 0.15742(19)
C11 C 2.0153(7) 0.3103(4) 0.1299(2)
C12 C 1.5803(7) 0.2331(5) 0.0822(2)
C14 C 1.4857(8) 0.2066(5) 0.1547(2)
C15 C 1.6110(8) 0.2309(5) 0.1503(2)
C16 C 1.4543(11) 0.2082(4) 0.0881(2)
C17 C 2.1952(9) 0.3495(4) 0.0911(2)
H8 H 1.855470 0.280510 0.162770
H9 H 2.019690 0.314120 0.070310
H10 H 1.821260 0.272670 0.080350
H11 H 2.059560 0.313570 0.187840
H13 H 2.27116 0.356530 0.179900
H15 H 1.609580 0.242180 0.055960
H16 H 1.454450 0.198150 0.180790
H17 H 1.662260 0.238240 0.173400
H18 H 1.400700 0.200780 0.065470
H19 H 2.23322 0.360700 0.066110
Ag1O Ag -0.03818(8) -0.09459(4) 0.11635(2)
Ag1L Ag 2.46182(8) 0.40541(4) 0.11635(2)
N1O N 0.1570(6) -0.0554(3) 0.1261(2)
C2O C 0.6300(7) 0.0351(4) 0.1142(2)
C3O C 0.8194(7) 0.0737(4) 0.1565(2)
C4O C 0.4131(7) -0.0055(4) 0.1368(2)
C5O C 0.5461(7) 0.0192(4) 0.1427(2)
C7O C 0.8427(8) 0.0732(4) 0.0879(2)
N2O N 1.0194(7) 0.1116(4) 0.1279(2)
N2C N -0.2306(7) -0.1384(4) 0.1221(2)
C9O C 0.9673(12) 0.0983(4) 0.09258(19)
C11O C 0.7653(7) 0.0603(4) 0.1201(2)
C12O C 0.3303(7) -0.0169(5) 0.1678(2)
C14O C 0.2357(8) -0.0434(5) 0.0953(2)
C15O C 0.3610(8) -0.0191(5) 0.0997(2)
C16O C 0.2043(11) -0.0418(4) 0.1619(2)
C17O C 0.9452(9) 0.0995(4) 0.1589(2)
H8O H 0.605470 0.030510 0.087230
H9O H 0.769690 0.064120 0.179690
H10O H 0.571260 0.022670 0.169650
H11O H 0.809560 0.063570 0.062160
H13O H 1.02116 0.106530 0.070100
H15O H 0.359580 -0.007820 0.194040
H16O H 0.204450 -0.051850 0.069210
H17O H 0.412260 -0.011760 0.076600
H18O H 0.150700 -0.049220 0.184530
H19O H 0.98322 0.110700 0.183890
O1 O 0.7732(7) 0.000000 0.000000
O3 O 0.1684(5) -0.0615(3) -0.00276(17)
C1 C 0.2260(11) 0.000000 0.000000
C6 C 0.3689(10) 0.000000 0.000000
C8 C 0.4426(6) 0.0665(3) 0.0011(2)
C10 C 0.5753(7) 0.0673(4) 0.0014(2)
C13 C 0.6475(10) 0.000000 0.000000
H7 H 0.866199 0.000000 0.000000
H12 H 0.398949 0.113791 0.001274
H14 H 0.621118 0.113794 0.003008
O3D O 0.1684(5) 0.0615(3) 0.00276(17)
C8D C 0.4426(6) -0.0665(3) -0.0011(2)
C10D C 0.5753(7) -0.0673(4) -0.0014(2)
H12D H 0.398949 -0.113791 -0.001274
H14D H 0.621118 -0.113794 -0.003008
O2 O 1.1919(6) 0.1598(3) 0.21486(15)
H1 H 1.227293 0.155410 0.189004
H2 H 1.247489 0.155410 0.237248
O4 O 0.6610(6) -0.0279(3) 0.24135(18)
H3 H 0.752591 -0.029084 0.236536
H4 H 0.628878 -0.029084 0.267698
O5 O 0.1874(6) -0.2057(4) -0.0203(2)
H5 H 0.181801 -0.228996 -0.045561
H6 H 0.236106 -0.228996 0.000222
loop_
_geom_bond_atom_site_label_1
_geom_bond_atom_site_label_2
_geom_bond_site_symmetry_1
_geom_bond_site_symmetry_2
Ag1 N1 1_555 1_555
O1 C13 1_555 1_555
O2 H1 1_555 1_555
O3 C1 1_555 1_555
N1 C14 1_555 1_555
C1 C6 1_555 1_555
C2 C5 1_555 1_555
C3 C11 1_555 1_555
O4 H3 1_555 1_555
C4 C5 1_555 1_555
C5 H10 1_555 1_555
C6 C8 1_555 1_555
C7 C9 1_555 1_555
C8 C10 1_555 1_555
N2 C9 1_555 1_555
C9 H13 1_555 1_555
C10 C13 1_555 1_555
O5 H5 1_555 1_555
C11 C2 1_555 1_555
C12 C4 1_555 1_555
C13 C10D 1_555 1_555
C14 C15 1_555 1_555
C15 C4 1_555 1_555
C16 N1 1_555 1_555
C17 C3 1_555 1_555
H2 O2 1_555 1_555
H4 O4 1_555 1_555
H6 O5 1_555 1_555
H7 O1 1_555 1_555
H8 C2 1_555 1_555
H9 C3 1_555 1_555
H11 C7 1_555 1_555
H12 C8 1_555 1_555
H14 C10 1_555 1_555
H15 C12 1_555 1_555
H16 C14 1_555 1_555
H17 C15 1_555 1_555
H18 C16 1_555 1_555
H19 C17 1_555 1_555
Ag1O N1O 1_555 1_555
Ag1L N2 1_555 1_555
O3D C1 1_555 1_555
N1O C14O 1_555 1_555
C2O C5O 1_555 1_555
C3O C11O 1_555 1_555
C4O C5O 1_555 1_555
C5O H10O 1_555 1_555
C7O C9O 1_555 1_555
C8D C6 1_555 1_555
N2O Ag1 1_555 1_555
N2C Ag1O 1_555 1_555
C9O N2O 1_555 1_555
C10D C8D 1_555 1_555
C11O C2O 1_555 1_555
C12O C4O 1_555 1_555
C14O C15O 1_555 1_555
C15O C4O 1_555 1_555
C16O N1O 1_555 1_555
C17O C3O 1_555 1_555
H8O C2O 1_555 1_555
H9O C3O 1_555 1_555
H11O C7O 1_555 1_555
H12D C8D 1_555 1_555
H13O C9O 1_555 1_555
H14D C10D 1_555 1_555
H15O C12O 1_555 1_555
H16O C14O 1_555 1_555
H17O C15O 1_555 1_555
H18O C16O 1_555 1_555
H19O C17O 1_555 1_555
C7 C11 1_555 1_555
N2 C17 1_555 1_555
C12 C16 1_555 1_555
C7O C11O 1_555 1_555
N2O C17O 1_555 1_555
C12O C16O 1_555 1_555

#END
