
#######################################################################
#
#                 Cambridge Crystallographic Data Centre
#                                CCDC 
#
#######################################################################
#
# If this CIF has been generated from an entry in the Cambridge 
# Structural Database, then it will include bibliographic, chemical, 
# crystal, experimental, refinement or atomic coordinate data resulting 
# from the CCDC's data processing and validation procedures.
#
#######################################################################

data_NUVBUC
_symmetry_cell_setting           monoclinic
_symmetry_space_group_name_H-M   'P 21/c'
_symmetry_Int_Tables_number      14
_space_group_name_Hall           '-P 2ybc'
loop_
_symmetry_equiv_pos_site_id
_symmetry_equiv_pos_as_xyz
1 x,y,z
2 -x,1/2+y,1/2-z
3 -x,-y,-z
4 x,1/2-y,1/2+z
_cell_length_a                   14.6739(6)
_cell_length_b                   7.1822(3)
_cell_length_c                   29.3464(13)
_cell_angle_alpha                90
_cell_angle_beta                 102.4352(14)
_cell_angle_gamma                90
_cell_volume                     3020.29
loop_
_atom_site_label
_atom_site_type_symbol
_atom_site_fract_x
_atom_site_fract_y
_atom_site_fract_z
Ag1 Ag 1.31347(19) 0.2636(3) -0.16830(9)
Ag2 Ag 0.8370(2) 0.2411(4) 0.09330(9)
C2 C 1.025(2) 0.256(4) 0.0588(12)
C3 C 0.895(3) 0.243(4) -0.0005(15)
C4 C 1.085(2) 0.253(3) 0.0293(11)
N1 N 0.9291(17) 0.251(3) 0.0459(9)
N2 N 0.4068(19) 0.235(3) 0.2837(10)
C8 C 0.382(2) 0.255(4) 0.2354(12)
C9 C 0.440(2) 0.233(3) 0.2055(10)
C10 C 0.536(2) 0.234(4) 0.2225(12)
N3 N 0.7364(19) 0.229(3) 0.1369(10)
C13 C 0.502(3) 0.268(4) 0.3018(14)
C14 C 1.112(2) 0.250(3) -0.0523(11)
C15 C 0.578(3) 0.242(5) 0.1463(17)
C16 C 0.6038(19) 0.243(3) 0.1934(10)
C17 C 0.950(3) 0.248(4) -0.0328(14)
C18 C 0.565(2) 0.224(4) 0.2730(13)
C20 C 1.052(2) 0.245(3) -0.0171(11)
C21 C 1.203(3) 0.227(4) -0.0394(15)
N4 N 1.222(2) 0.259(3) -0.1185(11)
C22 C 0.645(2) 0.213(4) 0.1210(12)
C23 C 0.765(2) 0.206(4) 0.1824(12)
C24 C 0.696(4) 0.260(5) 0.206(2)
C25 C 1.083(5) 0.227(6) -0.101(2)
C26 C 1.259(3) 0.239(4) -0.0720(14)
C27 C 1.135(3) 0.278(4) -0.1322(13)
H2 H 1.050125 0.252092 0.091796
H3 H 0.829036 0.219369 -0.011325
H4 H 1.150931 0.267108 0.040828
H7 H 0.320504 0.301732 0.222277
H8 H 0.414393 0.196550 0.173848
H10 H 0.520197 0.320112 0.332522
H11 H 0.512875 0.255281 0.131357
H12 H 0.921794 0.260839 -0.065301
H13 H 0.626616 0.178058 0.286070
H14 H 1.230139 0.191908 -0.007786
H15 H 0.621380 0.186001 0.088536
H16 H 0.719557 0.327793 0.233976
H17 H 1.026354 0.157598 -0.111533
H18 H 1.325179 0.235484 -0.061373
H19 H 1.109710 0.340077 -0.161053
H20 H 0.824955 0.153699 0.195162
Ag1C Ag 0.31347(19) 0.2364(3) 0.33170(9)
N2C N 1.4068(19) 0.265(3) -0.2163(10)
C1 C 0.185(3) 0.845(6) 0.1600(15)
O1 O 0.329(3) 1.199(5) 0.0850(16)
C5 C 0.182(4) 0.649(7) 0.1570(19)
C6 C 0.291(3) 0.665(5) 0.1050(14)
C7 C 0.242(3) 0.553(5) 0.1320(14)
C11 C 0.138(6) 0.527(13) 0.183(3)
C12 C 0.2302(18) 0.948(5) 0.1330(16)
O2 O 0.082(4) 0.592(6) 0.207(2)
O3 O 0.144(3) 0.352(7) 0.1770(17)
C19 C 0.290(4) 0.862(6) 0.1070(18)
O4 O 0.389(4) 0.948(7) 0.057(2)
C28 C 0.337000 1.015000 0.082000
H1 H 0.155458 0.908074 0.181794
H5 H 0.325963 0.607059 0.084732
H6 H 0.247558 0.419913 0.133978
H9 H 0.220408 1.080155 0.130876
loop_
_geom_bond_atom_site_label_1
_geom_bond_atom_site_label_2
_geom_bond_site_symmetry_1
_geom_bond_site_symmetry_2
Ag1 N4 1_555 1_555
Ag2 N1 1_555 1_555
C1 C5 1_555 1_555
C2 C4 1_555 1_555
O1 C28 1_555 1_555
C3 N1 1_555 1_555
C4 C20 1_555 1_555
N1 C2 1_555 1_555
C5 C7 1_555 1_555
C6 C7 1_555 1_555
N2 C8 1_555 1_555
C7 H6 1_555 1_555
C8 C9 1_555 1_555
C9 C10 1_555 1_555
C10 C16 1_555 1_555
C11 C5 1_555 1_555
N3 Ag2 1_555 1_555
C12 C1 1_555 1_555
C13 N2 1_555 1_555
C14 C20 1_555 1_555
O2 C11 1_555 1_555
C15 C16 1_555 1_555
C16 C24 1_555 1_555
O3 C11 1_555 1_555
C17 C3 1_555 1_555
C18 C10 1_555 1_555
C19 C6 1_555 1_555
C20 C17 1_555 1_555
C21 C14 1_555 1_555
N4 C26 1_555 1_555
C22 N3 1_555 1_555
C23 N3 1_555 1_555
C24 C23 1_555 1_555
C25 C14 1_555 1_555
O4 C28 1_555 1_555
C26 C21 1_555 1_555
C27 N4 1_555 1_555
C28 C19 1_555 1_555
H1 C1 1_555 1_555
H2 C2 1_555 1_555
H3 C3 1_555 1_555
H4 C4 1_555 1_555
H5 C6 1_555 1_555
H7 C8 1_555 1_555
H8 C9 1_555 1_555
H9 C12 1_555 1_555
H10 C13 1_555 1_555
H11 C15 1_555 1_555
H12 C17 1_555 1_555
H13 C18 1_555 1_555
H14 C21 1_555 1_555
H15 C22 1_555 1_555
H16 C24 1_555 1_555
H17 C25 1_555 1_555
H18 C26 1_555 1_555
H19 C27 1_555 1_555
H20 C23 1_555 1_555
Ag1C N2 1_555 1_555
N2C Ag1 1_555 1_555
C12 C19 1_555 1_555
C13 C18 1_555 1_555
C15 C22 1_555 1_555
C25 C27 1_555 1_555

#END
