
#######################################################################
#
#                 Cambridge Crystallographic Data Centre
#                                CCDC 
#
#######################################################################
#
# If this CIF has been generated from an entry in the Cambridge 
# Structural Database, then it will include bibliographic, chemical, 
# crystal, experimental, refinement or atomic coordinate data resulting 
# from the CCDC's data processing and validation procedures.
#
#######################################################################

data_NUVCAJ
_symmetry_cell_setting           monoclinic
_symmetry_space_group_name_H-M   'P 21/m'
_symmetry_Int_Tables_number      11
_space_group_name_Hall           '-P 2yb'
loop_
_symmetry_equiv_pos_site_id
_symmetry_equiv_pos_as_xyz
1 x,y,z
2 -x,1/2+y,-z
3 -x,-y,-z
4 x,1/2-y,z
_cell_length_a                   8.2975(2)
_cell_length_b                   17.5725(5)
_cell_length_c                   9.9649(3)
_cell_angle_alpha                90
_cell_angle_beta                 103.4862(14)
_cell_angle_gamma                90
_cell_volume                     1412.9
loop_
_atom_site_label
_atom_site_type_symbol
_atom_site_fract_x
_atom_site_fract_y
_atom_site_fract_z
Ag1 Ag 1.324(4) 0.014220 0.561(2)
C1 C 1.868(4) 0.015860 1.138(2)
N1 N 1.510(4) 0.016120 0.753(2)
C2 C 1.746(4) 0.016380 1.007(2)
C3 C 1.952(4) -0.051230 1.194(2)
C4 C 1.659(4) 0.080330 0.954(2)
C5 C 2.039(4) 0.077820 1.336(2)
C6 C 1.917(4) 0.082000 1.212(2)
C7 C 1.709(4) -0.047520 0.924(2)
C10 C 2.070(4) -0.049000 1.318(2)
C12 C 1.595(4) -0.044530 0.800(2)
C16 C 1.544(4) 0.078000 0.829(2)
N3 N 2.118(4) 0.014780 1.385(2)
H1 H 1.922(4) -0.099050 1.148(2)
H2 H 1.679(4) 0.127020 1.005(2)
H3 H 2.070(4) 0.123050 1.390(2)
H4 H 1.863730 0.129230 1.179270
H5 H 1.764840 -0.094430 0.954500
H8 H 2.124970 -0.095040 1.355240
H9 H 1.574770 -0.090930 0.748140
H12 H 1.488090 0.124970 0.799560
Ag1_2 Ag 0.324(4) 0.014220 -0.439(2)
Ag1_3 Ag 2.324(4) 0.014220 1.561(2)
C1_2 C 0.868(4) 0.015860 0.138(2)
N1_2 N 0.510(4) 0.016120 -0.247(2)
C2_2 C 0.746(4) 0.016380 0.007(2)
C3_2 C 0.952(4) -0.051230 0.194(2)
C4_2 C 0.659(4) 0.080330 -0.046(2)
C5_2 C 1.039(4) 0.077820 0.336(2)
C6_2 C 0.917(4) 0.082000 0.212(2)
C7_2 C 0.709(4) -0.047520 -0.076(2)
C10_2 C 1.070(4) -0.049000 0.318(2)
C12_2 C 0.595(4) -0.044530 -0.200(2)
C16_2 C 0.544(4) 0.078000 -0.171(2)
N3_2 N 1.118(4) 0.014780 0.385(2)
N3_3 N 0.118(4) 0.014780 -0.615(2)
H1_2 H 0.922(4) -0.099050 0.148(2)
H2_2 H 0.679(4) 0.127020 0.005(2)
H3_2 H 1.070(4) 0.123050 0.390(2)
H4_2 H 0.863730 0.129230 0.179270
H5_2 H 0.764840 -0.094430 -0.045500
H8_2 H 1.124970 -0.095040 0.355240
H9_2 H 0.574770 -0.090930 -0.251860
H12_2 H 0.488090 0.124970 -0.200440
O1 O 0.731(4) 0.250000 0.125(2)
C8 C 0.311(4) 0.250000 0.198(2)
C9 C 0.150(4) 0.250000 0.140(2)
C11 C 0.445(4) 0.250000 0.127(2)
C13 C 0.224(4) 0.250000 -0.080(2)
C14 C 0.620(4) 0.250000 0.200(2)
C15 C 0.388(4) 0.250000 -0.015(2)
C17 C 0.100(4) 0.250000 -0.010(2)
O2 O 0.657(4) 0.250000 0.330(2)
N2 N -0.052(4) 0.250000 -0.075(2)
H6 H 0.346460 0.250000 0.297210
H7 H 0.069140 0.250000 0.195140
H10 H 0.190380 0.250000 -0.178580
H11 H 0.469990 0.250000 -0.069340
H13 H -0.085140 0.250000 -0.174320
H14 H -0.133620 0.250000 -0.021560
O3 O 1.404(4) -0.130300 0.510(2)
H17 H 1.308400 -0.110300 0.537010
H18 H 1.435050 -0.110300 0.429970
O4 O 0.904(4) 0.250000 0.604(2)
H15 H 1.001300 0.250000 0.571450
H16 H 0.899440 0.250000 0.696730
O5? O 0.406(4) 0.247190 0.622(2)
H19? H 0.519660 0.250000 0.642110
H20? H 0.334920 0.250000 0.680200
loop_
_geom_bond_atom_site_label_1
_geom_bond_atom_site_label_2
_geom_bond_site_symmetry_1
_geom_bond_site_symmetry_2
Ag1 N1 1_555 1_555
C1 C2 1_555 1_555
N1 C12 1_555 1_555
C2 C4 1_555 1_555
O1 C14 1_555 1_555
C3 C1 1_555 1_555
C4 C16 1_555 1_555
C5 C6 1_555 1_555
C6 C1 1_555 1_555
C7 C2 1_555 1_555
C8 C9 1_555 1_555
C9 C17 1_555 1_555
C10 C3 1_555 1_555
C11 C8 1_555 1_555
C12 C7 1_555 1_555
C13 C15 1_555 1_555
C14 C11 1_555 1_555
C15 C11 1_555 1_555
C16 N1 1_555 1_555
C17 C13 1_555 1_555
O2 C14 1_555 1_555
N2 C17 1_555 1_555
N3 C5 1_555 1_555
O3 H17 1_555 1_555
O4 H15 1_555 1_555
H1 C3 1_555 1_555
H2 C4 1_555 1_555
H3 C5 1_555 1_555
H4 C6 1_555 1_555
H5 C7 1_555 1_555
H6 C8 1_555 1_555
H7 C9 1_555 1_555
H8 C10 1_555 1_555
H9 C12 1_555 1_555
H10 C13 1_555 1_555
H11 C15 1_555 1_555
H12 C16 1_555 1_555
H13 N2 1_555 1_555
H14 N2 1_555 1_555
H16 O4 1_555 1_555
H18 O3 1_555 1_555
Ag1_2 N1_2 1_555 1_555
Ag1_3 N3 1_555 1_555
C1_2 C2_2 1_555 1_555
N1_2 C12_2 1_555 1_555
C2_2 C4_2 1_555 1_555
C3_2 C1_2 1_555 1_555
C4_2 C16_2 1_555 1_555
C5_2 C6_2 1_555 1_555
C6_2 C1_2 1_555 1_555
C7_2 C2_2 1_555 1_555
C10_2 C3_2 1_555 1_555
C12_2 C7_2 1_555 1_555
C16_2 N1_2 1_555 1_555
N3_2 Ag1 1_555 1_555
N3_3 Ag1_2 1_555 1_555
H1_2 C3_2 1_555 1_555
H2_2 C4_2 1_555 1_555
H3_2 C5_2 1_555 1_555
H4_2 C6_2 1_555 1_555
H5_2 C7_2 1_555 1_555
H8_2 C10_2 1_555 1_555
H9_2 C12_2 1_555 1_555
H12_2 C16_2 1_555 1_555
C10 N3 1_555 1_555
C5_2 N3_2 1_555 1_555
C10_2 N3_2 1_555 1_555

#END
