
#######################################################################
#
#                 Cambridge Crystallographic Data Centre
#                                CCDC 
#
#######################################################################
#
# If this CIF has been generated from an entry in the Cambridge 
# Structural Database, then it will include bibliographic, chemical, 
# crystal, experimental, refinement or atomic coordinate data resulting 
# from the CCDC's data processing and validation procedures.
#
#######################################################################

data_NUVCUD
_symmetry_cell_setting           trigonal
_symmetry_space_group_name_H-M   'P 32 2 1'
_symmetry_Int_Tables_number      154
_space_group_name_Hall           'P 32 2"'
loop_
_symmetry_equiv_pos_site_id
_symmetry_equiv_pos_as_xyz
1 x,y,z
2 -y,x-y,2/3+z
3 -x+y,-x,1/3+z
4 x-y,-y,1/3-z
5 -x,-x+y,2/3-z
6 y,x,-z
_cell_length_a                   8.9410(5)
_cell_length_b                   8.9410(5)
_cell_length_c                   10.0260(5)
_cell_angle_alpha                90
_cell_angle_beta                 90
_cell_angle_gamma                120
_cell_volume                     694.114
loop_
_atom_site_label
_atom_site_type_symbol
_atom_site_fract_x
_atom_site_fract_y
_atom_site_fract_z
La1 La 0.77449(4) 0.0000 0.1667
O1 O 0.5342(5) -0.2880(6) 0.2411(4)
O2 O 1.0000 0.2491(3) 0.3333
H1 H 0.9345 0.2771 0.3746
C1 C 0.5271 -0.3742(3) 0.3417
N1 N 0.8060 -0.1305(3) 0.4026
C2 C 0.6741 -0.2859(3) 0.4376
N2 N 0.9238 -0.0761(3) 0.5000
O4 O 0.4084 -0.5252(3) 0.3631
La1B La 1.22551(4) 0.22551(4) 0.5000
La1B_2 La 0.22551(4) -0.77449(4) 0.5000
La1E La 1.0000 -0.22551(4) 0.8333
O1E O 0.7120(6) -0.4658(5) 0.7589(4)
O1C O 0.8222(8) 0.2880(6) 0.0922(4)
O2A O 0.7509(3) -0.2491(3) -0.0000
H1D H 1.0655 0.3426 0.2921
H1A H 0.7229 -0.3426 0.0413
H1C H 0.6574 -0.2771 -0.0413
C1E C 0.6258(3) -0.4729 0.6583
N1E N 0.8695(3) -0.1940 0.5974
N1C N 0.9365(3) 0.1305(3) -0.0693
C2E C 0.7141(3) -0.3259 0.5624
N2A N 1.0761(3) -0.0001(3) 0.1667
O4E O 0.4748(3) -0.5916 0.6369
O4A O 0.5252(3) -0.0664(3) 0.0298
O4D O 0.5916 0.0664(3) 0.3036
O3 O 0.1848 -0.4750(3) 0.1739
H2 H 0.2905 -0.4216 0.1970
H3 H 0.1308 -0.5584 0.2279
loop_
_geom_bond_atom_site_label_1
_geom_bond_atom_site_label_2
_geom_bond_site_symmetry_1
_geom_bond_site_symmetry_2
La1 O1 1_555 1_555
O1 C1 1_555 1_555
O2 La1 1_555 1_555
H1 O2 1_555 1_555
C1 C2 1_555 1_555
N1 La1 1_555 1_555
C2 N1 1_555 1_555
O3 H2 1_555 1_555
H3 O3 1_555 1_555
N2 N1 1_555 1_555
O4 C1 1_555 1_555
La1B O2 1_555 1_555
La1B_2 O4 1_555 1_555
La1E O1E 1_555 1_555
O1E C1E 1_555 1_555
O1C La1 1_555 1_555
O2A La1 1_555 1_555
H1D O2 1_555 1_555
H1A O2A 1_555 1_555
H1C O2A 1_555 1_555
C1E C2E 1_555 1_555
N1E N2 1_555 1_555
N1C La1 1_555 1_555
C2E C2 1_555 1_555
N2A La1 1_555 1_555
O4E La1B_2 1_555 1_555
O4A La1 1_555 1_555
O4D La1 1_555 1_555
N2 La1B 1_555 1_555
La1E N1E 1_555 1_555
C1E O4E 1_555 1_555
N1E C2E 1_555 1_555

#END
