
#######################################################################
#
#                 Cambridge Crystallographic Data Centre
#                                CCDC 
#
#######################################################################
#
# If this CIF has been generated from an entry in the Cambridge 
# Structural Database, then it will include bibliographic, chemical, 
# crystal, experimental, refinement or atomic coordinate data resulting 
# from the CCDC's data processing and validation procedures.
#
#######################################################################

data_NUVDIS
_symmetry_cell_setting           trigonal
_symmetry_space_group_name_H-M   'P 32 2 1'
_symmetry_Int_Tables_number      154
_space_group_name_Hall           'P 32 2"'
loop_
_symmetry_equiv_pos_site_id
_symmetry_equiv_pos_as_xyz
1 x,y,z
2 -y,x-y,2/3+z
3 -x+y,-x,1/3+z
4 x-y,-y,1/3-z
5 -x,-x+y,2/3-z
6 y,x,-z
_cell_length_a                   8.8050(9)
_cell_length_b                   8.8050(9)
_cell_length_c                   9.8830(10)
_cell_angle_alpha                90
_cell_angle_beta                 90
_cell_angle_gamma                120
_cell_volume                     663.557
loop_
_atom_site_label
_atom_site_type_symbol
_atom_site_fract_x
_atom_site_fract_y
_atom_site_fract_z
Nd1 Nd 0.77471(6) 0.0000 0.6667
O1 O 1.0000 0.2457(10) 0.8333
H1 H 1.0677 0.3371 0.7881
O2 O 0.2885(9) -0.1777(10) 0.4025(6)
O3 O 0.5286(9) -0.0672(10) 0.5274(6)
C1 C 0.3770(12) -0.0983(11) 0.5058(8)
C2 C 0.2858(11) -0.0403(11) 0.6038(8)
N1 N 0.0728(11) 0.0000 0.6667
N2 N 0.1291(9) -0.0644(10) 0.5688(7)
Nd1B Nd 1.22529(6) 0.22529(6) 1.0000
Nd1A Nd 0.0000 -0.22529(6) 0.3334
Nd1_2 Nd -0.22529(6) 0.0000 0.6667
Nd1D Nd 0.22529(6) 0.22529(6) 1.0000
O1A O 0.7543(10) -0.2457(10) 0.5000
H1D H 0.9323 0.2694 0.8786
H1A H 0.6629 -0.2694 0.4548
H1C H 0.7306 -0.3371 0.5452
O2C O 0.4662(13) 0.1777(10) 0.9308(6)
O2B O 0.5338(13) -0.2885(9) 0.7358(6)
O2E O 0.8223(10) 0.2885(9) 0.5975(6)
O3C O 0.5958(13) 0.0672(10) 0.8059(6)
C1C C 0.4753(16) 0.0983(11) 0.8275(8)
C2C C 0.3261(16) 0.0403(11) 0.7295(8)
N1_2 N 1.0728(11) 0.0000 0.6667
N2C N 0.1935(13) 0.0644(10) 0.7645(7)
N2B N 0.8065(13) -0.1291(9) 0.9021(7)
N2E N 0.9356(10) 0.1291(9) 0.4312(7)
O4 O 1.182(3) 0.534(4) 0.671(3)
H2 H 1.2261 0.4837 0.6256
H3 H 1.1578 0.5807 0.7367
loop_
_geom_bond_atom_site_label_1
_geom_bond_atom_site_label_2
_geom_bond_site_symmetry_1
_geom_bond_site_symmetry_2
Nd1 O1 1_555 1_555
O1 H1 1_555 1_555
O2 C1 1_555 1_555
O3 Nd1 1_555 1_555
C1 O3 1_555 1_555
C2 C1 1_555 1_555
N1 N2 1_555 1_555
N2 C2 1_555 1_555
O4 H2 1_555 1_555
H3 O4 1_555 1_555
Nd1B O1 1_555 1_555
Nd1A O2 1_555 1_555
Nd1_2 N1 1_555 1_555
Nd1D O2C 1_555 1_555
O1A Nd1 1_555 1_555
H1D O1 1_555 1_555
H1A O1A 1_555 1_555
H1C O1A 1_555 1_555
O2C C1C 1_555 1_555
O2B Nd1 1_555 1_555
O2E Nd1 1_555 1_555
O3C Nd1 1_555 1_555
C1C O3C 1_555 1_555
C2C C2 1_555 1_555
N1_2 Nd1 1_555 1_555
N2C N1 1_555 1_555
N2B Nd1 1_555 1_555
N2E Nd1 1_555 1_555
N2 Nd1A 1_555 1_555
Nd1D N2C 1_555 1_555
C1C C2C 1_555 1_555
C2C N2C 1_555 1_555

#END
