
#######################################################################
#
#                 Cambridge Crystallographic Data Centre
#                                CCDC 
#
#######################################################################
#
# If this CIF has been generated from an entry in the Cambridge 
# Structural Database, then it will include bibliographic, chemical, 
# crystal, experimental, refinement or atomic coordinate data resulting 
# from the CCDC's data processing and validation procedures.
#
#######################################################################

data_NUVDEO
_symmetry_cell_setting           trigonal
_symmetry_space_group_name_H-M   'P 32 2 1'
_symmetry_Int_Tables_number      154
_space_group_name_Hall           'P 32 2"'
loop_
_symmetry_equiv_pos_site_id
_symmetry_equiv_pos_as_xyz
1 x,y,z
2 -y,x-y,2/3+z
3 -x+y,-x,1/3+z
4 x-y,-y,1/3-z
5 -x,-x+y,2/3-z
6 y,x,-z
_cell_length_a                   8.841(4)
_cell_length_b                   8.841(4)
_cell_length_c                   9.922(5)
_cell_angle_alpha                90
_cell_angle_beta                 90
_cell_angle_gamma                120
_cell_volume                     671.634
loop_
_atom_site_label
_atom_site_type_symbol
_atom_site_fract_x
_atom_site_fract_y
_atom_site_fract_z
Pr1 Pr 0.22550(4) 0.0000 0.6667
O1 O 0.0000 -0.2461(3) 0.8333
H1 H -0.0795 -0.3411 0.7995
N1 N 0.1939 0.1291(3) 0.9018
N2 N 0.0732 0.0732(3) 1.0000
C1 C 0.3263 0.2856(3) 0.9374
O2 O 0.5942 0.5276(3) 0.8617
O3 O 0.4659 0.2881(3) 0.7375
C2 C 0.4744 0.3759(3) 0.8397
Pr1A Pr 0.0000 0.22550(4) 1.3334
Pr1B Pr -0.22550(4) -0.22550(4) 1.0000
Pr1B_2 Pr 0.77450(4) 0.77450(4) 1.0000
O1A O 0.2461(3) 0.2461(3) 0.5000
H1D H 0.0795 -0.2616 0.8672
N1E N 0.1291(3) 0.1939 1.0982
N1C N 0.0648(3) -0.1291(3) 0.4315
N2A N -0.0732(3) 0.0000(3) 0.6667
C1E C 0.2856(3) 0.3263 1.0626
O2E O 0.5276(3) 0.5942 1.1383
O2A O 0.4724(3) 0.0666(3) 0.5284
O2D O 0.4058 -0.0666(3) 0.8050
O3E O 0.2881(3) 0.4659 1.2625
O3C O 0.1778(3) -0.2881(3) 0.5958
C2E C 0.3759(3) 0.4744 1.1603
O4 O 0.8153 0.4701(3) 0.6731
H2 H 0.7102 0.4184 0.7005
H3 H 0.8376 0.5680 0.6405
loop_
_geom_bond_atom_site_label_1
_geom_bond_atom_site_label_2
_geom_bond_site_symmetry_1
_geom_bond_site_symmetry_2
Pr1 O1 1_555 1_555
O1 H1 1_555 1_555
N1 Pr1 1_555 1_555
N2 N1 1_555 1_555
C1 N1 1_555 1_555
O2 C2 1_555 1_555
O3 Pr1 1_555 1_555
C2 C1 1_555 1_555
O4 H2 1_555 1_555
H3 O4 1_555 1_555
Pr1A N1E 1_555 1_555
Pr1B O1 1_555 1_555
Pr1B_2 O2 1_555 1_555
O1A Pr1 1_555 1_555
H1D O1 1_555 1_555
N1E N2 1_555 1_555
N1C Pr1 1_555 1_555
N2A Pr1 1_555 1_555
C1E C1 1_555 1_555
O2E Pr1B_2 1_555 1_555
O2A Pr1 1_555 1_555
O2D Pr1 1_555 1_555
O3E Pr1A 1_555 1_555
O3C Pr1 1_555 1_555
C2E C1E 1_555 1_555
N2 Pr1B 1_555 1_555
O3 C2 1_555 1_555
N1E C1E 1_555 1_555
O2E C2E 1_555 1_555
O3E C2E 1_555 1_555

#END
