
#######################################################################
#
#                 Cambridge Crystallographic Data Centre
#                                CCDC 
#
#######################################################################
#
# If this CIF has been generated from an entry in the Cambridge 
# Structural Database, then it will include bibliographic, chemical, 
# crystal, experimental, refinement or atomic coordinate data resulting 
# from the CCDC's data processing and validation procedures.
#
#######################################################################

data_NUVFAM
_symmetry_cell_setting           trigonal
_symmetry_space_group_name_H-M   'P 32 2 1'
_symmetry_Int_Tables_number      154
_space_group_name_Hall           'P 32 2"'
loop_
_symmetry_equiv_pos_site_id
_symmetry_equiv_pos_as_xyz
1 x,y,z
2 -y,x-y,2/3+z
3 -x+y,-x,1/3+z
4 x-y,-y,1/3-z
5 -x,-x+y,2/3-z
6 y,x,-z
_cell_length_a                   8.639(5)
_cell_length_b                   8.639(5)
_cell_length_c                   9.772(5)
_cell_angle_alpha                90
_cell_angle_beta                 90
_cell_angle_gamma                120
_cell_volume                     631.598
loop_
_atom_site_label
_atom_site_type_symbol
_atom_site_fract_x
_atom_site_fract_y
_atom_site_fract_z
Gd1 Gd 0.22438(5) 0.0000 0.1667
O1 O 0.2434(3) 0.2434(3) 0.0000
H1 H 0.3003 0.3576 0.0033
N1 N 0.0646(3) -0.1280(3) -0.0664
N2 N -0.0004(3) -0.0709(3) -0.1667
C1 C 0.0411(3) -0.2879(3) -0.1036
O2 O 0.0673(3) -0.5359(3) -0.0243
O3 O 0.1719(3) -0.2925(3) 0.1025
C2 C 0.0960(3) -0.3803(3) -0.0024
Gd1A Gd 0.0000 0.22438(5) -0.1666
Gd1A_2 Gd 0.0000 -0.77562(5) -0.1666
Gd1D Gd -0.22438(5) -0.22438(5) -0.5000
O1B O 0.0000(4) -0.2434(3) 0.3333
H1E H 0.3576 0.3003 -0.0033
H1B H 0.0573 -0.3003 0.3366
H1C H -0.0573 -0.3576 0.3300
N1D N -0.0646(3) -0.1926(4) -0.2669
N1C N 0.1926(4) 0.1280(3) 0.3997
N2B N -0.0705(4) 0.0004(3) 0.1666
C1D C -0.0411(3) -0.3290(4) -0.2297
O2D O -0.0673(3) -0.6032(4) -0.3090
O2B O 0.3968(4) -0.0673(3) 0.3090
O2E O 0.4641(3) 0.0673(3) 0.0243
O3D O -0.1719(3) -0.4644(4) -0.4358
O3C O 0.4644(4) 0.2925(3) 0.2308
C2D C -0.0960(3) -0.4763(4) -0.3309
O4 O 0.1824(3) -0.5259(3) 0.2717
H2 H 0.1328 -0.5035 0.3378
H3 H 0.2050 -0.5909 0.2195
loop_
_geom_bond_atom_site_label_1
_geom_bond_atom_site_label_2
_geom_bond_site_symmetry_1
_geom_bond_site_symmetry_2
Gd1 O1 1_555 1_555
O1 H1 1_555 1_555
N1 Gd1 1_555 1_555
N2 N1 1_555 1_555
C1 N1 1_555 1_555
O2 C2 1_555 1_555
O3 Gd1 1_555 1_555
C2 C1 1_555 1_555
O4 H2 1_555 1_555
H3 O4 1_555 1_555
Gd1A O1 1_555 1_555
Gd1A_2 O2 1_555 1_555
Gd1D N1D 1_555 1_555
O1B Gd1 1_555 1_555
H1E O1 1_555 1_555
H1B O1B 1_555 1_555
H1C O1B 1_555 1_555
N1D N2 1_555 1_555
N1C Gd1 1_555 1_555
N2B Gd1 1_555 1_555
C1D C1 1_555 1_555
O2D Gd1A_2 1_555 1_555
O2B Gd1 1_555 1_555
O2E Gd1 1_555 1_555
O3D Gd1D 1_555 1_555
O3C Gd1 1_555 1_555
C2D C1D 1_555 1_555
N2 Gd1A 1_555 1_555
O3 C2 1_555 1_555
N1D C1D 1_555 1_555
O2D C2D 1_555 1_555
O3D C2D 1_555 1_555

#END
