
#######################################################################
#
#                 Cambridge Crystallographic Data Centre
#                                CCDC 
#
#######################################################################
#
# If this CIF has been generated from an entry in the Cambridge 
# Structural Database, then it will include bibliographic, chemical, 
# crystal, experimental, refinement or atomic coordinate data resulting 
# from the CCDC's data processing and validation procedures.
#
#######################################################################

data_NUVGUH
_symmetry_cell_setting           orthorhombic
_symmetry_space_group_name_H-M   'P n n a'
_symmetry_Int_Tables_number      52
_space_group_name_Hall           '-P 2a 2bc'
loop_
_symmetry_equiv_pos_site_id
_symmetry_equiv_pos_as_xyz
1 x,y,z
2 1/2-x,-y,z
3 1/2-x,1/2+y,1/2-z
4 x,1/2-y,1/2-z
5 -x,-y,-z
6 1/2+x,y,-z
7 1/2+x,1/2-y,1/2+z
8 -x,1/2+y,1/2+z
_cell_length_a                   24.328(5)
_cell_length_b                   31.067(6)
_cell_length_c                   16.658(4)
_cell_angle_alpha                90
_cell_angle_beta                 90
_cell_angle_gamma                90
_cell_volume                     12590.1
loop_
_atom_site_label
_atom_site_type_symbol
_atom_site_fract_x
_atom_site_fract_y
_atom_site_fract_z
O1 O 0.1802(7) -0.6808(4) 0.4567(15)
O3 O 0.1564(14) -0.7234(10) 0.5519(18)
O4 O 0.2336(7) -0.7345(5) 0.5087(14)
O5 O 0.1559(7) -0.7507(4) 0.4367(10)
Cl1 Cl 0.1824(3) -0.7229(2) 0.4860(5)
O2 O 0.1315(15) -0.6342(12) 0.245(2)
O6 O 0.0603(15) -0.4854(11) 0.7016(14)
O7 O -0.0017(6) -0.4344(5) 0.7097(12)
O8 O -0.0110(13) -0.5010(10) 0.7690(19)
O9 O 0.0451(9) -0.4562(6) 0.8199(11)
Cl2 Cl 0.0233(3) -0.46876(19) 0.7505(3)
O10 O 0.2172(11) -0.5242(6) 0.7314(16)
O11 O 0.2191(10) -0.4726(6) 0.8243(14)
Cl3 Cl 0.2500 -0.5000 0.7785(5)
O10A O 0.2828(11) -0.4758(6) 0.7314(16)
O11A O 0.2809(10) -0.5274(6) 0.8243(14)
Ag1 Ag 0.17233(4) -0.61767(3) 0.61738(7)
Ag2 Ag -0.25524(5) -0.43057(5) 0.00443(10)
Si1 Si 0.02034(17) -0.34031(12) 0.4128(3)
Si2 Si -0.5595(3) -0.63882(18) 0.0725(4)
N1 N 0.1324(4) -0.5785(4) 0.5356(8)
N2 N 0.1008(4) -0.5217(4) 0.4738(8)
N3 N -0.1315(5) -0.3636(4) 0.1288(8)
N4 N -0.1926(5) -0.3895(5) 0.0450(10)
N5 N -0.3154(7) -0.4706(5) -0.0416(15)
N6 N -0.3821(7) -0.5166(5) -0.0401(12)
N7 N -0.7255(4) -0.6606(4) -0.1923(7)
N8 N -0.7792(4) -0.6481(4) -0.2935(7)
C1 C 0.1166(5) -0.5383(5) 0.5427(9)
H1 H 0.1165 -0.5232 0.5909
C2 C 0.1278(5) -0.5877(5) 0.4531(14)
H2 H 0.1363 -0.6139 0.4289
C3 C 0.1091(6) -0.5523(6) 0.4151(10)
H3 H 0.1030 -0.5491 0.3603
C4 C 0.0814(6) -0.4784(5) 0.4656(10)
C5 C 0.0457(6) -0.4601(5) 0.5169(8)
H4 H 0.0322 -0.4755 0.5605
C6 C 0.0298(5) -0.4188(5) 0.5039(9)
H5 H 0.0067 -0.4058 0.5412
C7 C 0.0463(6) -0.3954(4) 0.4381(9)
C8 C 0.0838(6) -0.4147(5) 0.3869(9)
H6 H 0.0973 -0.3996 0.3431
C9 C 0.1015(6) -0.4572(5) 0.4009(10)
H7 H 0.1264 -0.4705 0.3665
C10 C 0.0759(6) -0.3050(4) 0.3804(10)
H8 H 0.0947 -0.3178 0.3358
H9 H 0.1012 -0.3008 0.4239
H10 H 0.0609 -0.2777 0.3644
C11 C -0.0146(7) -0.3151(5) 0.4965(8)
H11 H 0.0107 -0.3115 0.5402
H12 H -0.0447 -0.3329 0.5133
H13 H -0.0284 -0.2875 0.4802
C12 C -0.0281(5) -0.3472(5) 0.3285(8)
C13 C -0.0523(5) -0.3144(4) 0.2891(10)
H14 H -0.0451 -0.2868 0.3079
C14 C -0.0853(6) -0.3178(4) 0.2259(9)
H15 H -0.0999 -0.2935 0.2011
C15 C -0.0971(5) -0.3588(5) 0.1984(8)
C16 C -0.0740(5) -0.3932(4) 0.2352(10)
H16 H -0.0814 -0.4208 0.2165
C17 C -0.0395(6) -0.3876(4) 0.3002(9)
H17 H -0.0238 -0.4115 0.3250
C18 C -0.1655(7) -0.3959(5) 0.1094(11)
H18 H -0.1689 -0.4208 0.1401
C19 C -0.1400(6) -0.3342(5) 0.0680(13)
H19 H -0.1233 -0.3074 0.0639
C20 C -0.1766(7) -0.3506(6) 0.0153(12)
H20 H -0.1885 -0.3379 -0.0321
C21 C -0.3483(9) -0.4907(6) 0.0007(11)
H21 H -0.3495 -0.4880 0.0563
C22 C -0.3275(12) -0.4864(10) -0.1170(13)
H22 H -0.3092 -0.4782 -0.1635
C23 C -0.3681(10) -0.5145(8) -0.1158(18)
H23 H -0.3832 -0.5295 -0.1588
C24 C -0.4261(10) -0.5429(6) -0.0112(15)
C25 C -0.4318(8) -0.5813(9) -0.0513(12)
H24 H -0.4095 -0.5884 -0.0946
C26 C -0.4732(10) -0.6095(6) -0.0236(15)
H25 H -0.4783 -0.6353 -0.0507
C27 C -0.5065(7) -0.6007(7) 0.0416(13)
C28 C -0.4986(7) -0.5613(6) 0.0745(11)
H26 H -0.5215 -0.5532 0.1166
C29 C -0.4600(9) -0.5333(6) 0.0504(12)
H27 H -0.4565 -0.5070 0.0764
C30 C -0.5891(11) -0.6228(9) 0.1638(12)
H28 H -0.6169 -0.6432 0.1792
H29 H -0.6055 -0.5949 0.1577
H30 H -0.5613 -0.6216 0.2046
C31 C -0.5252(9) -0.6945(6) 0.0824(15)
H31 H -0.5089 -0.7024 0.0321
H32 H -0.5523 -0.7155 0.0971
H33 H -0.4972 -0.6934 0.1231
C32 C -0.6124(6) -0.6418(5) -0.0085(10)
C33 C -0.6133(7) -0.6173(4) -0.0791(11)
H34 H -0.5865 -0.5962 -0.0861
C34 C -0.6507(6) -0.6227(4) -0.1368(9)
H35 H -0.6510 -0.6047 -0.1814
C35 C -0.6881(5) -0.6543(4) -0.1298(8)
C36 C -0.6904(5) -0.6802(4) -0.0618(9)
H36 H -0.7173 -0.7012 -0.0561
C37 C -0.6529(6) -0.6738(5) -0.0053(9)
H37 H -0.6535 -0.6917 0.0394
C38 C -0.7451(5) -0.6317(5) -0.2436(9)
H38 H -0.7351 -0.6028 -0.2433
C39 C -0.7809(6) -0.6917(5) -0.2765(10)
H39 H -0.8012 -0.7126 -0.3034
C40 C -0.7465(6) -0.6982(5) -0.2120(9)
H40 H -0.7394 -0.7244 -0.1870
Ag1_2 Ag -0.82767(4) -0.61767(3) -0.38262(7)
N8_2 N 0.2208(4) -0.6481(4) 0.7065(7)
Ag3 Ag 0.2500 -0.5000 0.54854(12)
Si3 Si 0.0286(2) -0.2500 0.7500
N9 N 0.2139(6) -0.4391(4) 0.5431(11)
N10 N 0.1716(5) -0.3780(4) 0.5733(8)
C41 C 0.1798(6) -0.4183(7) 0.5917(10)
H41 H 0.1630 -0.4314 0.6355
C42 C 0.2270(6) -0.4104(8) 0.4893(13)
H42 H 0.2495 -0.4157 0.4453
C43 C 0.2026(7) -0.3706(5) 0.5066(12)
H43 H 0.2067 -0.3448 0.4787
C44 C 0.1385(6) -0.3479(5) 0.6160(9)
C45 C 0.1518(6) -0.3054(6) 0.6107(9)
H44 H 0.1821 -0.2964 0.5811
C46 C 0.1215(6) -0.2779(5) 0.6475(10)
H45 H 0.1301 -0.2489 0.6422
C47 C 0.0764(7) -0.2888(5) 0.6950(9)
C48 C 0.0646(5) -0.3341(6) 0.7009(8)
H46 H 0.0356 -0.3439 0.7324
C49 C 0.0967(7) -0.3625(4) 0.6594(9)
H47 H 0.0893 -0.3919 0.6616
C50 C -0.0142(7) -0.2776(5) 0.8310(12)
H48 H -0.0393 -0.2975 0.8063
H49 H -0.0346 -0.2564 0.8604
H50 H 0.0096 -0.2929 0.8670
Ag3B Ag 0.2500 0.0000 0.95146(12)
N9C N 0.2139(6) -0.0609(4) 0.9569(11)
N9A N 0.2861(6) -0.5609(4) 0.5431(11)
N10C N 0.1716(5) -0.1220(4) 0.9267(8)
C41C C 0.1798(6) -0.0817(7) 0.9083(10)
H41C H 0.1630 -0.0686 0.8645
C42C C 0.2270(6) -0.0896(8) 1.0107(13)
H42C H 0.2495 -0.0843 1.0547
C43C C 0.2026(7) -0.1294(5) 0.9934(12)
H43C H 0.2067 -0.1552 1.0213
C44C C 0.1385(6) -0.1521(5) 0.8840(9)
C45C C 0.1518(6) -0.1946(6) 0.8893(9)
H44C H 0.1821 -0.2036 0.9189
C46C C 0.1215(6) -0.2221(5) 0.8525(10)
H45C H 0.1301 -0.2511 0.8578
C47C C 0.0764(7) -0.2112(5) 0.8050(9)
C48C C 0.0646(5) -0.1659(6) 0.7991(8)
H46C H 0.0356 -0.1561 0.7676
C49C C 0.0967(7) -0.1375(4) 0.8406(9)
H47C H 0.0893 -0.1081 0.8384
C50C C -0.0142(7) -0.2224(5) 0.6690(12)
H48C H -0.0393 -0.2025 0.6937
H49C H -0.0346 -0.2436 0.6396
H50C H 0.0096 -0.2071 0.6330
loop_
_geom_bond_atom_site_label_1
_geom_bond_atom_site_label_2
_geom_bond_site_symmetry_1
_geom_bond_site_symmetry_2
O1 Cl1 1_555 1_555
O3 Cl1 1_555 1_555
O4 Cl1 1_555 1_555
O5 Cl1 1_555 1_555
O6 Cl2 1_555 1_555
O7 Cl2 1_555 1_555
O8 Cl2 1_555 1_555
O9 Cl2 1_555 1_555
O10 Cl3 1_555 1_555
O11 Cl3 1_555 1_555
Ag1 N1 1_555 1_555
Ag2 N4 1_555 1_555
Ag3 N9 1_555 1_555
Si1 C7 1_555 1_555
Si2 C27 1_555 1_555
Si3 C47 1_555 1_555
N1 C1 1_555 1_555
N2 C1 1_555 1_555
N3 C15 1_555 1_555
N4 C18 1_555 1_555
N5 Ag2 1_555 1_555
N6 C21 1_555 1_555
N7 C35 1_555 1_555
N8 C38 1_555 1_555
N9 C41 1_555 1_555
N10 C41 1_555 1_555
C1 H1 1_555 1_555
C2 N1 1_555 1_555
H2 C2 1_555 1_555
C3 N2 1_555 1_555
H3 C3 1_555 1_555
C4 N2 1_555 1_555
C5 C4 1_555 1_555
H4 C5 1_555 1_555
C6 C5 1_555 1_555
H5 C6 1_555 1_555
C7 C6 1_555 1_555
C8 C7 1_555 1_555
H6 C8 1_555 1_555
C9 C4 1_555 1_555
H7 C9 1_555 1_555
C10 Si1 1_555 1_555
H8 C10 1_555 1_555
H9 C10 1_555 1_555
H10 C10 1_555 1_555
C11 Si1 1_555 1_555
H11 C11 1_555 1_555
H12 C11 1_555 1_555
H13 C11 1_555 1_555
C12 Si1 1_555 1_555
C13 C12 1_555 1_555
H14 C13 1_555 1_555
C14 C13 1_555 1_555
H15 C14 1_555 1_555
C15 C14 1_555 1_555
C16 C15 1_555 1_555
H16 C16 1_555 1_555
C17 C12 1_555 1_555
H17 C17 1_555 1_555
C18 N3 1_555 1_555
H18 C18 1_555 1_555
C19 N3 1_555 1_555
H19 C19 1_555 1_555
C20 N4 1_555 1_555
H20 C20 1_555 1_555
C21 N5 1_555 1_555
H21 C21 1_555 1_555
C22 N5 1_555 1_555
H22 C22 1_555 1_555
C23 N6 1_555 1_555
H23 C23 1_555 1_555
C24 N6 1_555 1_555
C25 C24 1_555 1_555
H24 C25 1_555 1_555
C26 C25 1_555 1_555
H25 C26 1_555 1_555
C27 C26 1_555 1_555
C28 C27 1_555 1_555
H26 C28 1_555 1_555
C29 C24 1_555 1_555
H27 C29 1_555 1_555
C30 Si2 1_555 1_555
H28 C30 1_555 1_555
H29 C30 1_555 1_555
H30 C30 1_555 1_555
C31 Si2 1_555 1_555
H31 C31 1_555 1_555
H32 C31 1_555 1_555
H33 C31 1_555 1_555
C32 Si2 1_555 1_555
C33 C32 1_555 1_555
H34 C33 1_555 1_555
C34 C33 1_555 1_555
H35 C34 1_555 1_555
C35 C34 1_555 1_555
C36 C35 1_555 1_555
H36 C36 1_555 1_555
C37 C32 1_555 1_555
H37 C37 1_555 1_555
C38 N7 1_555 1_555
H38 C38 1_555 1_555
C39 N8 1_555 1_555
H39 C39 1_555 1_555
C40 N7 1_555 1_555
H40 C40 1_555 1_555
C41 H41 1_555 1_555
C42 N9 1_555 1_555
H42 C42 1_555 1_555
C43 N10 1_555 1_555
H43 C43 1_555 1_555
C44 N10 1_555 1_555
C45 C44 1_555 1_555
H44 C45 1_555 1_555
C46 C45 1_555 1_555
H45 C46 1_555 1_555
C47 C46 1_555 1_555
C48 C47 1_555 1_555
H46 C48 1_555 1_555
C49 C44 1_555 1_555
H47 C49 1_555 1_555
C50 Si3 1_555 1_555
H48 C50 1_555 1_555
H49 C50 1_555 1_555
H50 C50 1_555 1_555
Cl3 O10A 1_555 1_555
O11A Cl3 1_555 1_555
Ag1_2 N8 1_555 1_555
Ag3B N9C 1_555 1_555
N8_2 Ag1 1_555 1_555
N9C C41C 1_555 1_555
N9A Ag3 1_555 1_555
N10C C41C 1_555 1_555
C41C H41C 1_555 1_555
C42C N9C 1_555 1_555
H42C C42C 1_555 1_555
C43C N10C 1_555 1_555
H43C C43C 1_555 1_555
C44C N10C 1_555 1_555
C45C C44C 1_555 1_555
H44C C45C 1_555 1_555
C46C C45C 1_555 1_555
H45C C46C 1_555 1_555
C47C Si3 1_555 1_555
C48C C47C 1_555 1_555
H46C C48C 1_555 1_555
C49C C44C 1_555 1_555
H47C C49C 1_555 1_555
C50C Si3 1_555 1_555
H48C C50C 1_555 1_555
H49C C50C 1_555 1_555
H50C C50C 1_555 1_555
C2 C3 1_555 1_555
C8 C9 1_555 1_555
C16 C17 1_555 1_555
C19 C20 1_555 1_555
C22 C23 1_555 1_555
C28 C29 1_555 1_555
C36 C37 1_555 1_555
C39 C40 1_555 1_555
C42 C43 1_555 1_555
C48 C49 1_555 1_555
C42C C43C 1_555 1_555
C46C C47C 1_555 1_555
C48C C49C 1_555 1_555

#END
