
#######################################################################
#
#                 Cambridge Crystallographic Data Centre
#                                CCDC 
#
#######################################################################
#
# If this CIF has been generated from an entry in the Cambridge 
# Structural Database, then it will include bibliographic, chemical, 
# crystal, experimental, refinement or atomic coordinate data resulting 
# from the CCDC's data processing and validation procedures.
#
#######################################################################

data_NUVHES
_symmetry_cell_setting           triclinic
_symmetry_space_group_name_H-M   'P -1'
_symmetry_Int_Tables_number      2
_space_group_name_Hall           '-P 1'
loop_
_symmetry_equiv_pos_site_id
_symmetry_equiv_pos_as_xyz
1 x,y,z
2 -x,-y,-z
_cell_length_a                   12.584(2)
_cell_length_b                   16.704(3)
_cell_length_c                   17.665(3)
_cell_angle_alpha                90.089(3)
_cell_angle_beta                 105.290(3)
_cell_angle_gamma                106.881(3)
_cell_volume                     3415.16
loop_
_atom_site_label
_atom_site_type_symbol
_atom_site_fract_x
_atom_site_fract_y
_atom_site_fract_z
Co1 Co 0.28705(4) 0.25290(3) 0.94537(2)
Co2 Co 0.20956(4) 0.03939(3) 0.76064(3)
Co3 Co -0.20781(4) -0.53823(3) 0.75047(2)
Co4 Co 0.71183(4) 0.25922(3) 1.55519(2)
O1 O 0.4188(2) 0.32095(14) 1.04755(13)
O2 O 0.2718(2) 0.22043(17) 1.06215(14)
O3 O 0.7173(2) 0.29273(16) 1.43826(14)
O4 O 0.57357(19) 0.18969(14) 1.45468(13)
O5 O 0.14161(19) 0.16723(14) 0.87743(13)
O6 O 0.1113(2) 0.03419(16) 0.83871(16)
O7 O 0.3863(2) 0.17403(17) 0.95459(15)
O8 O 0.35840(19) 0.11059(14) 0.83703(13)
O9 O 0.0797(2) -0.07080(14) 0.69242(14)
O10 O 0.2200(2) -0.08410(15) 0.78997(15)
O11 O -0.2236(2) -0.41445(15) 0.72454(15)
O12 O -0.0814(2) -0.42743(14) 0.82044(14)
O13 O 0.64384(19) 0.38995(14) 1.67277(13)
O14 O 0.6137(2) 0.33921(17) 1.55076(15)
O15 O 0.8900(2) 0.47316(15) 1.67218(14)
O16 O 0.85917(19) 0.34340(14) 1.62226(13)
N1 N 0.2042(2) 0.34783(17) 0.94409(15)
N2 N 0.3226(2) 0.31835(16) 0.84743(15)
N3 N 0.1715(2) 0.13545(16) 0.68849(15)
N4 N 0.3033(2) 0.03842(16) 0.67443(16)
N5 N -0.2997(2) -0.54621(17) 0.83753(16)
N6 N -0.1685(2) -0.63949(17) 0.81461(15)
N7 N 0.6809(2) 0.18471(16) 1.64909(15)
N8 N 0.7969(2) 0.16651(17) 1.54632(15)
C1 C 0.4270(4) 0.2790(2) 1.1788(2)
H1 H 0.4101 0.3241 1.2043
C2 C 0.5529(5) 0.2989(4) 1.1954(3)
H2 H 0.5833 0.3510 1.1734
H3 H 0.5714 0.2547 1.1708
C3 C 0.6100(5) 0.3077(4) 1.2857(3)
H4 H 0.6925 0.3178 1.2954
H5 H 0.5982 0.3558 1.3093
C4 C 0.5620(3) 0.2321(2) 1.3232(2)
H6 H 0.5806 0.1864 1.2999
C5 C 0.4370(4) 0.2075(4) 1.3045(3)
H7 H 0.4139 0.2493 1.3288
H8 H 0.4093 0.1545 1.3259
C6 C 0.3814(4) 0.1984(3) 1.2142(3)
H9 H 0.3985 0.1531 1.1903
H10 H 0.2982 0.1846 1.2035
C7 C 0.3696(3) 0.2731(2) 1.0908(2)
C8 C 0.6200(3) 0.2387(2) 1.41095(19)
C9 C 0.1084(3) 0.0893(2) 0.8856(2)
C10 C 0.0591(3) 0.0625(2) 0.9544(2)
H11 H 0.0670 0.1135 0.9856
C11 C -0.0696(3) 0.0149(3) 0.9247(2)
H12 H -0.0802 -0.0342 0.8908
H13 H -0.1097 0.0507 0.8938
C12 C 0.1219(3) 0.0127(3) 1.0064(2)
H14 H 0.2022 0.0458 1.0271
H15 H 0.1194 -0.0366 0.9761
C13 C 0.3853(3) 0.1146(2) 0.9113(2)
C14 C 0.4198(3) 0.0420(2) 0.95283(19)
H16 H 0.3495 -0.0059 0.9427
C15 C 0.5042(3) 0.0150(2) 0.9189(2)
H17 H 0.5745 0.0614 0.9265
H18 H 0.4707 0.0003 0.8627
C16 C 0.4667(3) 0.0603(2) 1.0417(2)
H19 H 0.4096 0.0742 1.0625
H20 H 0.5356 0.1084 1.0540
C17 C 0.0876(3) -0.2113(2) 0.7172(2)
H21 H 0.1303 -0.2250 0.6826
C18 C 0.1133(3) -0.2582(2) 0.7912(2)
H22 H 0.1024 -0.3164 0.7757
H23 H 0.1933 -0.2335 0.8210
C19 C 0.0364(3) -0.2545(2) 0.8424(2)
H24 H 0.0547 -0.1969 0.8633
H25 H 0.0519 -0.2879 0.8865
C20 C -0.0917(3) -0.2866(2) 0.7981(2)
H26 H -0.1346 -0.2734 0.8328
C21 C -0.1169(3) -0.2397(2) 0.7245(2)
H27 H -0.1971 -0.2640 0.6947
H28 H -0.1054 -0.1815 0.7401
C22 C -0.0405(3) -0.2435(2) 0.6726(2)
H29 H -0.0560 -0.2100 0.6286
H30 H -0.0587 -0.3011 0.6517
C23 C 0.1307(3) -0.1167(2) 0.7352(2)
C24 C -0.1340(3) -0.3818(2) 0.7792(2)
C25 C 0.6098(3) 0.3914(2) 1.5994(2)
C26 C 0.5566(3) 0.4597(2) 1.5667(2)
H31 H 0.5580 0.4956 1.6111
C27 C 0.4315(3) 0.4209(2) 1.5190(2)
H32 H 0.3878 0.3895 1.5528
H33 H 0.4284 0.3819 1.4772
C28 C 0.6248(3) 0.5132(2) 1.5172(2)
H34 H 0.6300 0.4779 1.4756
H35 H 0.7026 0.5411 1.5496
C29 C 0.8877(3) 0.4222(2) 1.61892(19)
C30 C 0.9207(3) 0.45787(19) 1.54635(19)
H36 H 0.8491 0.4447 1.5034
C31 C 0.9733(3) 0.5526(2) 1.5546(2)
H37 H 1.0437 0.5684 1.5976
H38 H 0.9199 0.5787 1.5672
C32 C 0.9995(3) 0.4155(2) 1.5212(2)
H39 H 0.9625 0.3553 1.5132
H40 H 1.0711 0.4262 1.5628
C33 C 0.1511(3) 0.3649(2) 0.9945(2)
H41 H 0.1477 0.3321 1.0368
C34 C 0.0996(3) 0.4295(3) 0.9878(2)
H42 H 0.0652 0.4403 1.0257
C35 C 0.1010(3) 0.4759(2) 0.9252(2)
H43 H 0.0648 0.5177 0.9187
C36 C 0.1570(3) 0.4611(2) 0.8699(2)
C37 C 0.2095(3) 0.3967(2) 0.88324(19)
C38 C 0.1625(4) 0.5065(2) 0.8026(3)
H44 H 0.1252 0.5475 0.7922
C39 C 0.2217(4) 0.4907(2) 0.7532(2)
H45 H 0.2237 0.5209 0.7092
C40 C 0.2809(3) 0.4290(2) 0.7672(2)
C41 C 0.2724(3) 0.3803(2) 0.83108(19)
C42 C 0.3478(3) 0.4125(2) 0.7206(2)
H46 H 0.3569 0.4439 0.6781
C43 C 0.3996(3) 0.3513(2) 0.7369(2)
H47 H 0.4447 0.3408 0.7064
C44 C 0.3834(3) 0.3045(2) 0.8005(2)
H48 H 0.4169 0.2614 0.8105
C45 C 0.1062(3) 0.1835(2) 0.6953(2)
H49 H 0.0725 0.1766 0.7368
C46 C 0.0858(3) 0.2437(2) 0.6436(2)
H50 H 0.0391 0.2757 0.6504
C47 C 0.1353(3) 0.2548(2) 0.5832(2)
H51 H 0.1226 0.2949 0.5482
C48 C 0.2055(3) 0.2060(2) 0.5732(2)
C49 C 0.2211(3) 0.14727(19) 0.62805(18)
C50 C 0.2613(3) 0.2137(2) 0.5117(2)
H52 H 0.2494 0.2519 0.4745
C51 C 0.3305(3) 0.1674(2) 0.5059(2)
H53 H 0.3681 0.1756 0.4665
C52 C 0.3467(3) 0.1059(2) 0.55967(19)
C53 C 0.2926(3) 0.0958(2) 0.62061(18)
C54 C 0.4134(3) 0.0522(2) 0.5544(2)
H54 H 0.4522 0.0573 0.5157
C55 C 0.4202(3) -0.0072(2) 0.6068(2)
H55 H 0.4616 -0.0443 0.6030
C56 C 0.3649(3) -0.0119(2) 0.6659(2)
H56 H 0.3712 -0.0525 0.7014
C57 C -0.1022(3) -0.6849(2) 0.8039(2)
H57 H -0.0676 -0.6737 0.7631
C58 C -0.0819(3) -0.7486(2) 0.8511(2)
H58 H -0.0332 -0.7780 0.8423
C59 C -0.1337(3) -0.7675(2) 0.9100(2)
H59 H -0.1214 -0.8102 0.9416
C60 C -0.2061(3) -0.7220(2) 0.9230(2)
C61 C -0.2204(3) -0.6581(2) 0.87392(18)
C62 C -0.2670(3) -0.7382(3) 0.9825(2)
H60 H -0.2597 -0.7816 1.0144
C63 C -0.3346(3) -0.6916(3) 0.9930(2)
H61 H -0.3737 -0.7038 1.0315
C64 C -0.3466(3) -0.6245(2) 0.9460(2)
C65 C -0.2913(3) -0.6082(2) 0.88582(19)
C66 C -0.4114(3) -0.5709(2) 0.9558(2)
H62 H -0.4488 -0.5784 0.9953
C67 C -0.4194(3) -0.5083(2) 0.9073(3)
H63 H -0.4624 -0.4731 0.9130
C68 C -0.3619(3) -0.4980(2) 0.8489(2)
H64 H -0.3675 -0.4550 0.8162
C69 C 0.8481(3) 0.1557(2) 1.4924(2)
H65 H 0.8511 0.1929 1.4534
C70 C 0.8980(3) 0.0910(2) 1.4910(2)
H66 H 0.9308 0.0845 1.4508
C71 C 0.8977(3) 0.0384(2) 1.5491(2)
H67 H 0.9334 -0.0034 1.5505
C72 C 0.8427(3) 0.0469(2) 1.6079(2)
C73 C 0.7921(3) 0.1117(2) 1.60260(19)
C74 C 0.8366(3) -0.0066(2) 1.6697(2)
H68 H 0.8730 -0.0482 1.6746
C75 C 0.7777(3) 0.0025(2) 1.7217(2)
H69 H 0.7736 -0.0336 1.7616
C76 C 0.7219(3) 0.0663(2) 1.7167(2)
C77 C 0.7302(3) 0.1219(2) 1.65792(18)
C78 C 0.6581(3) 0.0780(2) 1.7676(2)
H70 H 0.6500 0.0425 1.8077
C79 C 0.6078(3) 0.1407(2) 1.7592(2)
H71 H 0.5650 0.1482 1.7928
C80 C 0.6217(3) 0.1934(2) 1.6991(2)
H72 H 0.5881 0.2365 1.6938
Co1A Co -0.28705(4) -0.25290(3) 1.05463(2)
Co1A_2 Co 0.71295(4) -0.25290(3) 1.05463(2)
Co2A Co -0.20956(4) -0.03939(3) 1.23936(3)
Co2A_2 Co 0.79044(4) -0.03939(3) 1.23936(3)
Co3A Co 0.20781(4) 0.53823(3) 1.24953(2)
Co3_2 Co 0.79219(4) 0.46177(3) 1.75047(2)
Co3A_2 Co 1.20781(4) 0.53823(3) 1.24953(2)
Co4A Co 0.28817(4) 0.74078(3) 1.44481(2)
Co4A_2 Co 1.28817(4) 0.74078(3) 1.44481(2)
Co4A_3 Co -0.71183(4) -0.25922(3) 0.44481(2)
O1A O -0.4188(2) -0.32095(14) 0.95245(13)
O2A O -0.2718(2) -0.22043(17) 0.93785(14)
O3A O -0.7173(2) -0.29273(16) 0.56174(14)
O3A_2 O 0.2827(2) 0.70727(16) 1.56174(14)
O4A O -0.57357(19) -0.18969(14) 0.54532(13)
O4A_2 O 0.42643(19) 0.81031(14) 1.54532(13)
O5A O -0.14161(19) -0.16723(14) 1.12257(13)
O6A O -0.1113(2) -0.03419(16) 1.16129(16)
O7A O 0.6137(2) -0.17403(17) 1.04541(15)
O7A_2 O -0.3863(2) -0.17403(17) 1.04541(15)
O8A O 0.64160(19) -0.11059(14) 1.16297(13)
O8A_2 O -0.35840(19) -0.11059(14) 1.16297(13)
O9A O -0.0797(2) 0.07080(14) 1.30758(14)
O10A O -0.2200(2) 0.08410(15) 1.21003(15)
O11A O 0.2236(2) 0.41445(15) 1.27546(15)
O12A O 0.0814(2) 0.42743(14) 1.17956(14)
O13A O 0.35616(19) 0.61005(14) 1.32723(13)
O13_2 O -0.35616(19) -0.61005(14) 0.67277(13)
O14A O 0.3863(2) 0.66079(17) 1.44924(15)
O15A O 1.1100(2) 0.52684(15) 1.32782(14)
O15_2 O -0.1100(2) -0.52684(15) 0.67218(14)
O15A_2 O 0.1100(2) 0.52684(15) 1.32782(14)
O16A O 1.14083(19) 0.65660(14) 1.37774(13)
O16A_2 O 0.14083(19) 0.65660(14) 1.37774(13)
N1A N -0.2042(2) -0.34783(17) 1.05591(15)
N2A N -0.3226(2) -0.31835(16) 1.15257(15)
N3A N -0.1715(2) -0.13545(16) 1.31151(15)
N4A N -0.3033(2) -0.03842(16) 1.32557(16)
N5A N 0.2997(2) 0.54621(17) 1.16247(16)
N6A N 0.1685(2) 0.63949(17) 1.18539(15)
N7A N 0.3191(2) 0.81529(16) 1.35091(15)
N8A N 0.2031(2) 0.83349(17) 1.45368(15)
C1A C -0.4270(4) -0.2790(2) 0.8212(2)
H1A H -0.4101 -0.3241 0.7957
C2A C -0.5529(5) -0.2989(4) 0.8046(3)
H2A H -0.5833 -0.3510 0.8266
H3A H -0.5714 -0.2547 0.8292
C3A C -0.6100(5) -0.3077(4) 0.7143(3)
H4A H -0.6925 -0.3178 0.7046
H5A H -0.5982 -0.3558 0.6907
C4A C -0.5620(3) -0.2321(2) 0.6768(2)
H6A H -0.5806 -0.1864 0.7001
C5A C -0.4370(4) -0.2075(4) 0.6955(3)
H7A H -0.4139 -0.2493 0.6712
H8A H -0.4093 -0.1545 0.6741
C6A C -0.3814(4) -0.1984(3) 0.7858(3)
H9A H -0.3985 -0.1531 0.8097
H10A H -0.2982 -0.1846 0.7965
C7A C -0.3696(3) -0.2731(2) 0.9092(2)
C8A C -0.6200(3) -0.2387(2) 0.58905(19)
C9A C -0.1084(3) -0.0893(2) 1.1144(2)
C10A C -0.0591(3) -0.0625(2) 1.0456(2)
H11A H -0.0670 -0.1135 1.0144
C11A C 0.0696(3) -0.0149(3) 1.0753(2)
H12A H 0.0802 0.0342 1.1092
H13A H 0.1097 -0.0507 1.1062
C12A C -0.1219(3) -0.0127(3) 0.9936(2)
H14A H -0.2022 -0.0458 0.9729
H15A H -0.1194 0.0366 1.0239
C13A C 0.6147(3) -0.1146(2) 1.0887(2)
C14A C 0.5802(3) -0.0420(2) 1.04717(19)
H16A H 0.6505 0.0059 1.0573
C15A C 0.4958(3) -0.0150(2) 1.0811(2)
H17A H 0.4255 -0.0614 1.0735
H18A H 0.5293 -0.0003 1.1373
C16A C 0.5333(3) -0.0603(2) 0.9583(2)
H19A H 0.5904 -0.0742 0.9375
H20A H 0.4644 -0.1084 0.9460
C17A C -0.0876(3) 0.2113(2) 1.2828(2)
H21A H -0.1303 0.2250 1.3174
C18A C -0.1133(3) 0.2582(2) 1.2088(2)
H22A H -0.1024 0.3164 1.2243
H23A H -0.1933 0.2335 1.1790
C19A C -0.0364(3) 0.2545(2) 1.1576(2)
H24A H -0.0547 0.1969 1.1367
H25A H -0.0519 0.2879 1.1135
C20A C 0.0917(3) 0.2866(2) 1.2019(2)
H26A H 0.1346 0.2734 1.1672
C21A C 0.1169(3) 0.2397(2) 1.2755(2)
H27A H 0.1971 0.2640 1.3053
H28A H 0.1054 0.1815 1.2599
C22A C 0.0405(3) 0.2435(2) 1.3274(2)
H29A H 0.0560 0.2100 1.3714
H30A H 0.0587 0.3011 1.3483
C23A C -0.1307(3) 0.1167(2) 1.2648(2)
C24A C 0.1340(3) 0.3818(2) 1.2208(2)
C25A C 0.3902(3) 0.6086(2) 1.4006(2)
C26A C 0.4434(3) 0.5403(2) 1.4333(2)
H31A H 0.4420 0.5044 1.3889
C27A C 0.5685(3) 0.5791(2) 1.4810(2)
H32A H 0.6122 0.6105 1.4472
H33A H 0.5716 0.6181 1.5228
C28A C 0.3752(3) 0.4868(2) 1.4828(2)
H34A H 0.3700 0.5221 1.5244
H35A H 0.2974 0.4589 1.4504
C29A C 1.1123(3) 0.5778(2) 1.38108(19)
C30A C 1.0793(3) 0.54213(19) 1.45365(19)
H36A H 1.1509 0.5553 1.4966
C31A C 1.0267(3) 0.4474(2) 1.4454(2)
H37A H 0.9563 0.4316 1.4024
H38A H 1.0801 0.4213 1.4328
C32A C 1.0005(3) 0.5845(2) 1.4788(2)
H39A H 1.0375 0.6447 1.4868
H40A H 0.9289 0.5738 1.4372
C33A C -0.1511(3) -0.3649(2) 1.0055(2)
H41A H -0.1477 -0.3321 0.9632
C34A C -0.0996(3) -0.4295(3) 1.0122(2)
H42A H -0.0652 -0.4403 0.9743
C35A C -0.1010(3) -0.4759(2) 1.0748(2)
H43A H -0.0648 -0.5177 1.0813
C36A C -0.1570(3) -0.4611(2) 1.1301(2)
C37A C -0.2095(3) -0.3967(2) 1.11676(19)
C38A C -0.1625(4) -0.5065(2) 1.1974(3)
H44A H -0.1252 -0.5475 1.2078
C39A C -0.2217(4) -0.4907(2) 1.2468(2)
H45A H -0.2237 -0.5209 1.2908
C40A C -0.2809(3) -0.4290(2) 1.2328(2)
C41A C -0.2724(3) -0.3803(2) 1.16892(19)
C42A C -0.3478(3) -0.4125(2) 1.2794(2)
H46A H -0.3569 -0.4439 1.3219
C43A C -0.3996(3) -0.3513(2) 1.2631(2)
H47A H -0.4447 -0.3408 1.2936
C44A C -0.3834(3) -0.3045(2) 1.1995(2)
H48A H -0.4169 -0.2614 1.1895
C45A C -0.1062(3) -0.1835(2) 1.3047(2)
H49A H -0.0725 -0.1766 1.2632
C46A C -0.0858(3) -0.2437(2) 1.3564(2)
H50A H -0.0391 -0.2757 1.3496
C47A C -0.1353(3) -0.2548(2) 1.4168(2)
H51A H -0.1226 -0.2949 1.4518
C48A C -0.2055(3) -0.2060(2) 1.4268(2)
C49A C -0.2211(3) -0.14727(19) 1.37195(18)
C50A C -0.2613(3) -0.2137(2) 1.4883(2)
H52A H -0.2494 -0.2519 1.5255
C51A C -0.3305(3) -0.1674(2) 1.4941(2)
H53A H -0.3681 -0.1756 1.5335
C52A C -0.3467(3) -0.1059(2) 1.44033(19)
C53A C -0.2926(3) -0.0958(2) 1.37939(18)
C54A C -0.4134(3) -0.0522(2) 1.4456(2)
H54A H -0.4522 -0.0573 1.4843
C55A C -0.4202(3) 0.0072(2) 1.3932(2)
H55A H -0.4616 0.0443 1.3970
C56A C -0.3649(3) 0.0119(2) 1.3341(2)
H56A H -0.3712 0.0525 1.2986
C57A C 0.1022(3) 0.6849(2) 1.1961(2)
H57A H 0.0676 0.6737 1.2369
C58A C 0.0819(3) 0.7486(2) 1.1489(2)
H58A H 0.0332 0.7780 1.1577
C59A C 0.1337(3) 0.7675(2) 1.0900(2)
H59A H 0.1214 0.8102 1.0584
C60A C 0.2061(3) 0.7220(2) 1.0770(2)
C61A C 0.2204(3) 0.6581(2) 1.12608(18)
C62A C 0.2670(3) 0.7382(3) 1.0175(2)
H60A H 0.2597 0.7816 0.9856
C63A C 0.3346(3) 0.6916(3) 1.0070(2)
H61A H 0.3737 0.7038 0.9685
C64A C 0.3466(3) 0.6245(2) 1.0540(2)
C65A C 0.2913(3) 0.6082(2) 1.11418(19)
C66A C 0.4114(3) 0.5709(2) 1.0442(2)
H62A H 0.4488 0.5784 1.0047
C67A C 0.4194(3) 0.5083(2) 1.0927(3)
H63A H 0.4624 0.4731 1.0870
C68A C 0.3619(3) 0.4980(2) 1.1511(2)
H64A H 0.3675 0.4550 1.1838
C69A C 0.1519(3) 0.8443(2) 1.5076(2)
H65A H 0.1489 0.8071 1.5466
C70A C 0.1020(3) 0.9090(2) 1.5090(2)
H66A H 0.0692 0.9155 1.5492
C71A C 0.1023(3) 0.9616(2) 1.4509(2)
H67A H 0.0666 1.0034 1.4495
C72A C 0.1573(3) 0.9531(2) 1.3921(2)
C73A C 0.2079(3) 0.8883(2) 1.39740(19)
C74A C 0.1634(3) 1.0066(2) 1.3303(2)
H68A H 0.1270 1.0482 1.3254
C75A C 0.2223(3) 0.9975(2) 1.2783(2)
H69A H 0.2264 1.0336 1.2384
C76A C 0.2781(3) 0.9337(2) 1.2833(2)
C77A C 0.2698(3) 0.8781(2) 1.34208(18)
C78A C 0.3419(3) 0.9220(2) 1.2324(2)
H70A H 0.3500 0.9575 1.1923
C79A C 0.3922(3) 0.8593(2) 1.2408(2)
H71A H 0.4350 0.8518 1.2072
C80A C 0.3783(3) 0.8066(2) 1.3009(2)
H72A H 0.4119 0.7635 1.3062
loop_
_geom_bond_atom_site_label_1
_geom_bond_atom_site_label_2
_geom_bond_site_symmetry_1
_geom_bond_site_symmetry_2
Co1 O1 1_555 1_555
Co2 O6 1_555 1_555
Co3 O11 1_555 1_555
Co4 O3 1_555 1_555
O1 C7 1_555 1_555
O2 Co1 1_555 1_555
O3 C8 1_555 1_555
O4 Co4 1_555 1_555
O5 Co1 1_555 1_555
O6 C9 1_555 1_555
O7 Co1 1_555 1_555
O8 Co2 1_555 1_555
O9 Co2 1_555 1_555
O10 Co2 1_555 1_555
O11 C24 1_555 1_555
O12 Co3 1_555 1_555
O13 C25 1_555 1_555
O14 Co4 1_555 1_555
O15 C29 1_555 1_555
O16 Co4 1_555 1_555
N1 Co1 1_555 1_555
N2 Co1 1_555 1_555
N3 Co2 1_555 1_555
N4 Co2 1_555 1_555
N5 Co3 1_555 1_555
N6 Co3 1_555 1_555
N7 Co4 1_555 1_555
N8 Co4 1_555 1_555
C1 H1 1_555 1_555
C2 C1 1_555 1_555
H2 C2 1_555 1_555
H3 C2 1_555 1_555
C3 C2 1_555 1_555
H4 C3 1_555 1_555
H5 C3 1_555 1_555
C4 C3 1_555 1_555
H6 C4 1_555 1_555
C5 C4 1_555 1_555
H7 C5 1_555 1_555
H8 C5 1_555 1_555
C6 C1 1_555 1_555
H9 C6 1_555 1_555
H10 C6 1_555 1_555
C7 O2 1_555 1_555
C8 O4 1_555 1_555
C9 O5 1_555 1_555
C10 C9 1_555 1_555
H11 C10 1_555 1_555
C11 C10 1_555 1_555
H12 C11 1_555 1_555
H13 C11 1_555 1_555
C12 C10 1_555 1_555
H14 C12 1_555 1_555
H15 C12 1_555 1_555
C13 O7 1_555 1_555
C14 C13 1_555 1_555
H16 C14 1_555 1_555
C15 C14 1_555 1_555
H17 C15 1_555 1_555
H18 C15 1_555 1_555
C16 C14 1_555 1_555
H19 C16 1_555 1_555
H20 C16 1_555 1_555
C17 H21 1_555 1_555
C18 C17 1_555 1_555
H22 C18 1_555 1_555
H23 C18 1_555 1_555
C19 C18 1_555 1_555
H24 C19 1_555 1_555
H25 C19 1_555 1_555
C20 C19 1_555 1_555
H26 C20 1_555 1_555
C21 C20 1_555 1_555
H27 C21 1_555 1_555
H28 C21 1_555 1_555
C22 C17 1_555 1_555
H29 C22 1_555 1_555
H30 C22 1_555 1_555
C23 O9 1_555 1_555
C24 O12 1_555 1_555
C25 O14 1_555 1_555
C26 C25 1_555 1_555
H31 C26 1_555 1_555
C27 C26 1_555 1_555
H32 C27 1_555 1_555
H33 C27 1_555 1_555
C28 C26 1_555 1_555
H34 C28 1_555 1_555
H35 C28 1_555 1_555
C29 O16 1_555 1_555
C30 C29 1_555 1_555
H36 C30 1_555 1_555
C31 C30 1_555 1_555
H37 C31 1_555 1_555
H38 C31 1_555 1_555
C32 C30 1_555 1_555
H39 C32 1_555 1_555
H40 C32 1_555 1_555
C33 N1 1_555 1_555
H41 C33 1_555 1_555
C34 C33 1_555 1_555
H42 C34 1_555 1_555
C35 C34 1_555 1_555
H43 C35 1_555 1_555
C36 C35 1_555 1_555
C37 N1 1_555 1_555
C38 C36 1_555 1_555
H44 C38 1_555 1_555
C39 C38 1_555 1_555
H45 C39 1_555 1_555
C40 C39 1_555 1_555
C41 N2 1_555 1_555
C42 C40 1_555 1_555
H46 C42 1_555 1_555
C43 C42 1_555 1_555
H47 C43 1_555 1_555
C44 N2 1_555 1_555
H48 C44 1_555 1_555
C45 N3 1_555 1_555
H49 C45 1_555 1_555
C46 C45 1_555 1_555
H50 C46 1_555 1_555
C47 C46 1_555 1_555
H51 C47 1_555 1_555
C48 C47 1_555 1_555
C49 N3 1_555 1_555
C50 C48 1_555 1_555
H52 C50 1_555 1_555
C51 C50 1_555 1_555
H53 C51 1_555 1_555
C52 C51 1_555 1_555
C53 N4 1_555 1_555
C54 C52 1_555 1_555
H54 C54 1_555 1_555
C55 C54 1_555 1_555
H55 C55 1_555 1_555
C56 N4 1_555 1_555
H56 C56 1_555 1_555
C57 N6 1_555 1_555
H57 C57 1_555 1_555
C58 C57 1_555 1_555
H58 C58 1_555 1_555
C59 C58 1_555 1_555
H59 C59 1_555 1_555
C60 C59 1_555 1_555
C61 N6 1_555 1_555
C62 C60 1_555 1_555
H60 C62 1_555 1_555
C63 C62 1_555 1_555
H61 C63 1_555 1_555
C64 C63 1_555 1_555
C65 N5 1_555 1_555
C66 C64 1_555 1_555
H62 C66 1_555 1_555
C67 C66 1_555 1_555
H63 C67 1_555 1_555
C68 N5 1_555 1_555
H64 C68 1_555 1_555
C69 N8 1_555 1_555
H65 C69 1_555 1_555
C70 C69 1_555 1_555
H66 C70 1_555 1_555
C71 C70 1_555 1_555
H67 C71 1_555 1_555
C72 C71 1_555 1_555
C73 N8 1_555 1_555
C74 C72 1_555 1_555
H68 C74 1_555 1_555
C75 C74 1_555 1_555
H69 C75 1_555 1_555
C76 C75 1_555 1_555
C77 N7 1_555 1_555
C78 C76 1_555 1_555
H70 C78 1_555 1_555
C79 C78 1_555 1_555
H71 C79 1_555 1_555
C80 N7 1_555 1_555
H72 C80 1_555 1_555
Co1A O1A 1_555 1_555
Co1A_2 O7A 1_555 1_555
Co2A O6A 1_555 1_555
Co2A_2 O8A 1_555 1_555
Co3A O11A 1_555 1_555
Co3_2 O13 1_555 1_555
Co3A_2 O15A 1_555 1_555
Co4A O3A_2 1_555 1_555
Co4A_2 O16A 1_555 1_555
Co4A_3 O3A 1_555 1_555
O1A C7A 1_555 1_555
O2A Co1A 1_555 1_555
O3A C8A 1_555 1_555
O4A Co4A_3 1_555 1_555
O4A_2 Co4A 1_555 1_555
O5A Co1A 1_555 1_555
O6A C9A 1_555 1_555
O7A C13A 1_555 1_555
O7A_2 Co1A 1_555 1_555
O8A C13A 1_555 1_555
O8A_2 Co2A 1_555 1_555
O9A Co2A 1_555 1_555
O10A Co2A 1_555 1_555
O11A C24A 1_555 1_555
O12A Co3A 1_555 1_555
O13A Co3A 1_555 1_555
O13_2 Co3 1_555 1_555
O14A Co4A 1_555 1_555
O15A C29A 1_555 1_555
O15_2 Co3 1_555 1_555
O15A_2 Co3A 1_555 1_555
O16A C29A 1_555 1_555
O16A_2 Co4A 1_555 1_555
N1A Co1A 1_555 1_555
N2A Co1A 1_555 1_555
N3A Co2A 1_555 1_555
N4A Co2A 1_555 1_555
N5A Co3A 1_555 1_555
N6A Co3A 1_555 1_555
N7A Co4A 1_555 1_555
N8A Co4A 1_555 1_555
C1A H1A 1_555 1_555
C2A C1A 1_555 1_555
H2A C2A 1_555 1_555
H3A C2A 1_555 1_555
C3A C2A 1_555 1_555
H4A C3A 1_555 1_555
H5A C3A 1_555 1_555
C4A C3A 1_555 1_555
H6A C4A 1_555 1_555
C5A C4A 1_555 1_555
H7A C5A 1_555 1_555
H8A C5A 1_555 1_555
C6A C1A 1_555 1_555
H9A C6A 1_555 1_555
H10A C6A 1_555 1_555
C7A O2A 1_555 1_555
C8A O4A 1_555 1_555
C9A O5A 1_555 1_555
C10A C9A 1_555 1_555
H11A C10A 1_555 1_555
C11A C12 1_555 1_555
H12A C11A 1_555 1_555
H13A C11A 1_555 1_555
C12A C11 1_555 1_555
H14A C12A 1_555 1_555
H15A C12A 1_555 1_555
C13A C14A 1_555 1_555
C14A H16A 1_555 1_555
C15A C16 1_555 1_555
H17A C15A 1_555 1_555
H18A C15A 1_555 1_555
C16A C15 1_555 1_555
H19A C16A 1_555 1_555
H20A C16A 1_555 1_555
C17A H21A 1_555 1_555
C18A C17A 1_555 1_555
H22A C18A 1_555 1_555
H23A C18A 1_555 1_555
C19A C18A 1_555 1_555
H24A C19A 1_555 1_555
H25A C19A 1_555 1_555
C20A C19A 1_555 1_555
H26A C20A 1_555 1_555
C21A C20A 1_555 1_555
H27A C21A 1_555 1_555
H28A C21A 1_555 1_555
C22A C17A 1_555 1_555
H29A C22A 1_555 1_555
H30A C22A 1_555 1_555
C23A O9A 1_555 1_555
C24A O12A 1_555 1_555
C25A O13A 1_555 1_555
C26A C25A 1_555 1_555
H31A C26A 1_555 1_555
C27A C28 1_555 1_555
H32A C27A 1_555 1_555
H33A C27A 1_555 1_555
C28A C27 1_555 1_555
H34A C28A 1_555 1_555
H35A C28A 1_555 1_555
C29A C30A 1_555 1_555
C30A H36A 1_555 1_555
C31A C32 1_555 1_555
H37A C31A 1_555 1_555
H38A C31A 1_555 1_555
C32A C31 1_555 1_555
H39A C32A 1_555 1_555
H40A C32A 1_555 1_555
C33A N1A 1_555 1_555
H41A C33A 1_555 1_555
C34A C33A 1_555 1_555
H42A C34A 1_555 1_555
C35A C34A 1_555 1_555
H43A C35A 1_555 1_555
C36A C35A 1_555 1_555
C37A N1A 1_555 1_555
C38A C36A 1_555 1_555
H44A C38A 1_555 1_555
C39A C38A 1_555 1_555
H45A C39A 1_555 1_555
C40A C39A 1_555 1_555
C41A N2A 1_555 1_555
C42A C40A 1_555 1_555
H46A C42A 1_555 1_555
C43A C42A 1_555 1_555
H47A C43A 1_555 1_555
C44A N2A 1_555 1_555
H48A C44A 1_555 1_555
C45A N3A 1_555 1_555
H49A C45A 1_555 1_555
C46A C45A 1_555 1_555
H50A C46A 1_555 1_555
C47A C46A 1_555 1_555
H51A C47A 1_555 1_555
C48A C47A 1_555 1_555
C49A N3A 1_555 1_555
C50A C48A 1_555 1_555
H52A C50A 1_555 1_555
C51A C50A 1_555 1_555
H53A C51A 1_555 1_555
C52A C51A 1_555 1_555
C53A N4A 1_555 1_555
C54A C52A 1_555 1_555
H54A C54A 1_555 1_555
C55A C54A 1_555 1_555
H55A C55A 1_555 1_555
C56A N4A 1_555 1_555
H56A C56A 1_555 1_555
C57A N6A 1_555 1_555
H57A C57A 1_555 1_555
C58A C57A 1_555 1_555
H58A C58A 1_555 1_555
C59A C58A 1_555 1_555
H59A C59A 1_555 1_555
C60A C59A 1_555 1_555
C61A N6A 1_555 1_555
C62A C60A 1_555 1_555
H60A C62A 1_555 1_555
C63A C62A 1_555 1_555
H61A C63A 1_555 1_555
C64A C63A 1_555 1_555
C65A N5A 1_555 1_555
C66A C64A 1_555 1_555
H62A C66A 1_555 1_555
C67A C66A 1_555 1_555
H63A C67A 1_555 1_555
C68A N5A 1_555 1_555
H64A C68A 1_555 1_555
C69A N8A 1_555 1_555
H65A C69A 1_555 1_555
C70A C69A 1_555 1_555
H66A C70A 1_555 1_555
C71A C70A 1_555 1_555
H67A C71A 1_555 1_555
C72A C71A 1_555 1_555
C73A N8A 1_555 1_555
C74A C72A 1_555 1_555
H68A C74A 1_555 1_555
C75A C74A 1_555 1_555
H69A C75A 1_555 1_555
C76A C75A 1_555 1_555
C77A N7A 1_555 1_555
C78A C76A 1_555 1_555
H70A C78A 1_555 1_555
C79A C78A 1_555 1_555
H71A C79A 1_555 1_555
C80A N7A 1_555 1_555
H72A C80A 1_555 1_555
O8 C13 1_555 1_555
O10 C23 1_555 1_555
O15 Co3_2 1_555 1_555
C1 C7 1_555 1_555
C4 C8 1_555 1_555
C5 C6 1_555 1_555
C17 C23 1_555 1_555
C20 C24 1_555 1_555
C21 C22 1_555 1_555
C36 C37 1_555 1_555
C37 C41 1_555 1_555
C40 C41 1_555 1_555
C43 C44 1_555 1_555
C48 C49 1_555 1_555
C49 C53 1_555 1_555
C52 C53 1_555 1_555
C55 C56 1_555 1_555
C60 C61 1_555 1_555
C61 C65 1_555 1_555
C64 C65 1_555 1_555
C67 C68 1_555 1_555
C72 C73 1_555 1_555
C73 C77 1_555 1_555
C76 C77 1_555 1_555
C79 C80 1_555 1_555
O10A C23A 1_555 1_555
O14A C25A 1_555 1_555
C1A C7A 1_555 1_555
C4A C8A 1_555 1_555
C5A C6A 1_555 1_555
C10A C11A 1_555 1_555
C10A C12A 1_555 1_555
C14A C15A 1_555 1_555
C14A C16A 1_555 1_555
C17A C23A 1_555 1_555
C20A C24A 1_555 1_555
C21A C22A 1_555 1_555
C26A C27A 1_555 1_555
C26A C28A 1_555 1_555
C30A C31A 1_555 1_555
C30A C32A 1_555 1_555
C36A C37A 1_555 1_555
C37A C41A 1_555 1_555
C40A C41A 1_555 1_555
C43A C44A 1_555 1_555
C48A C49A 1_555 1_555
C49A C53A 1_555 1_555
C52A C53A 1_555 1_555
C55A C56A 1_555 1_555
C60A C61A 1_555 1_555
C61A C65A 1_555 1_555
C64A C65A 1_555 1_555
C67A C68A 1_555 1_555
C72A C73A 1_555 1_555
C73A C77A 1_555 1_555
C76A C77A 1_555 1_555
C79A C80A 1_555 1_555

#END
