
#######################################################################
#
#                 Cambridge Crystallographic Data Centre
#                                CCDC 
#
#######################################################################
#
# If this CIF has been generated from an entry in the Cambridge 
# Structural Database, then it will include bibliographic, chemical, 
# crystal, experimental, refinement or atomic coordinate data resulting 
# from the CCDC's data processing and validation procedures.
#
#######################################################################

data_NUVHIW
_symmetry_cell_setting           tetragonal
_symmetry_space_group_name_H-M   'I 4/m'
_symmetry_Int_Tables_number      87
_space_group_name_Hall           '-I 4'
loop_
_symmetry_equiv_pos_site_id
_symmetry_equiv_pos_as_xyz
1 x,y,z
2 -x,-y,z
3 -y,x,z
4 y,-x,z
5 1/2+x,1/2+y,1/2+z
6 1/2-x,1/2-y,1/2+z
7 1/2-y,1/2+x,1/2+z
8 1/2+y,1/2-x,1/2+z
9 -x,-y,-z
10 x,y,-z
11 y,-x,-z
12 -y,x,-z
13 1/2-x,1/2-y,1/2-z
14 1/2+x,1/2+y,1/2-z
15 1/2+y,1/2-x,1/2-z
16 1/2-y,1/2+x,1/2-z
_cell_length_a                   20.3711(5)
_cell_length_b                   20.3711(5)
_cell_length_c                   13.7711(8)
_cell_angle_alpha                90
_cell_angle_beta                 90
_cell_angle_gamma                90
_cell_volume                     5714.75
loop_
_atom_site_label
_atom_site_type_symbol
_atom_site_fract_x
_atom_site_fract_y
_atom_site_fract_z
Br1 Br 0.0000 0.0000 0.0000
Br2 Br 0.0000 0.0000 0.25034(9)
Br3 Br 0.5000 0.5000 0.0000
Cu1 Cu 0.01634(4) 0.11757(5) 0.12555(6)
Cu2 Cu 0.28272(5) 0.21734(5) 0.12290(4)
Cu3 Cu 0.51526(4) 0.38291(6) 0.12822(6)
N1 N 0.1092(3) 0.1241(3) 0.1283(3)
N2 N 0.2111(3) 0.1593(3) 0.1269(3)
N3 N 0.1496(3) 0.0706(3) 0.1250(3)
N4 N 0.3382(3) 0.2906(3) 0.1268(3)
N5 N 0.4279(3) 0.3515(3) 0.1292(3)
N6 N 0.3756(3) 0.3924(3) 0.1273(3)
C7 C 0.1474(4) 0.1756(4) 0.1296(4)
H3 H 0.1322 0.2186 0.1322
C8 C 0.2084(4) 0.0938(4) 0.1253(4)
H4 H 0.2456 0.0673 0.1245
C9 C 0.4042(4) 0.2906(3) 0.1278(4)
H5 H 0.4299 0.2529 0.1274
C10 C 0.3232(4) 0.3539(3) 0.1268(4)
H6 H 0.2803 0.3697 0.1264
Cu1B Cu -0.11757(5) 0.01634(4) 0.12555(6)
Cu1C Cu 0.11757(5) -0.01634(4) 0.12555(6)
Cu1A Cu -0.01634(4) -0.11757(5) 0.12555(6)
Cu1B_2 Cu 0.88243(5) 0.01634(4) 0.12555(6)
Cu1A_2 Cu -0.01634(4) 0.88243(5) 0.12555(6)
Cu1C_2 Cu 0.11757(5) 0.98366(4) 0.12555(6)
Cu1_2 Cu -0.98366(4) 0.11757(5) 0.12555(6)
Cu1_3 Cu 1.01634(4) 0.11757(5) 0.12555(6)
Cu1B_3 Cu -0.11757(5) 1.01634(4) 0.12555(6)
Cu1C_3 Cu -0.88243(5) -0.01634(4) 0.12555(6)
Cu2B Cu -0.21734(5) 0.28272(5) 0.12290(4)
Cu2A Cu -0.28272(5) -0.21734(5) 0.12290(4)
Cu2C Cu 0.21734(5) -0.28272(5) 0.12290(4)
Cu2B_2 Cu 0.78266(5) 0.28272(5) 0.12290(4)
Cu2A_2 Cu -0.28272(5) 0.78266(5) 0.12290(4)
Cu2C_2 Cu 0.21734(5) 0.71728(5) 0.12290(4)
Cu2_2 Cu -0.71728(5) 0.21734(5) 0.12290(4)
Cu3B Cu -0.38291(6) 0.51526(4) 0.12822(6)
Cu3C Cu 0.38291(6) 0.48474(4) 0.12822(6)
Cu3_2 Cu -0.48474(4) 0.38291(6) 0.12822(6)
Cu3B_2 Cu 0.61709(6) 0.51526(4) 0.12822(6)
Cu3A Cu -0.51526(4) -0.38291(6) 0.12822(6)
Cu3C_2 Cu 0.38291(6) -0.51526(4) 0.12822(6)
Cu3A_2 Cu -0.51526(4) 0.61709(6) 0.12822(6)
Cu3B_3 Cu -0.38291(6) -0.48474(4) 0.12822(6)
Cu3A_3 Cu 0.48474(4) -0.38291(6) 0.12822(6)
Cu3A_4 Cu 0.48474(4) 0.61709(6) 0.12822(6)
Cu3C_3 Cu -0.61709(6) 0.48474(4) 0.12822(6)
N1B N -0.1241(3) 0.1092(3) 0.1283(3)
N1A N -0.1092(3) -0.1241(3) 0.1283(3)
N1C N 0.1241(3) -0.1092(3) 0.1283(3)
N1B_2 N 0.8759(3) 0.1092(3) 0.1283(3)
N1A_2 N -0.1092(3) 0.8759(3) 0.1283(3)
N1C_2 N 0.1241(3) 0.8908(3) 0.1283(3)
N1_2 N -0.8908(3) 0.1241(3) 0.1283(3)
N2B N -0.1593(3) 0.2111(3) 0.1269(3)
N2A N -0.2111(3) -0.1593(3) 0.1269(3)
N2C N 0.1593(3) -0.2111(3) 0.1269(3)
N2B_2 N 0.8407(3) 0.2111(3) 0.1269(3)
N2A_2 N -0.2111(3) 0.8407(3) 0.1269(3)
N2C_2 N 0.1593(3) 0.7889(3) 0.1269(3)
N2_2 N -0.7889(3) 0.1593(3) 0.1269(3)
N3B N -0.0706(3) 0.1496(3) 0.1250(3)
N3A N -0.1496(3) -0.0706(3) 0.1250(3)
N3C N 0.0706(3) -0.1496(3) 0.1250(3)
N3B_2 N 0.9294(3) 0.1496(3) 0.1250(3)
N3A_2 N -0.1496(3) 0.9294(3) 0.1250(3)
N3C_2 N 0.0706(3) 0.8504(3) 0.1250(3)
N3_2 N -0.8504(3) 0.0706(3) 0.1250(3)
N3A_3 N 0.8504(3) -0.0706(3) 0.1250(3)
N3_3 N 0.1496(3) 1.0706(3) 0.1250(3)
N3B_3 N -1.0706(3) 0.1496(3) 0.1250(3)
N4B N -0.2906(3) 0.3382(3) 0.1268(3)
N4B_2 N 0.7094(3) 0.3382(3) 0.1268(3)
N4A N -0.3382(3) -0.2906(3) 0.1268(3)
N4C N 0.2906(3) -0.3382(3) 0.1268(3)
N4A_2 N -0.3382(3) 0.7094(3) 0.1268(3)
N4C_2 N 0.2906(3) 0.6618(3) 0.1268(3)
N4_2 N -0.6618(3) 0.2906(3) 0.1268(3)
N5B N -0.3515(3) 0.4279(3) 0.1292(3)
N5B_2 N 0.6485(3) 0.4279(3) 0.1292(3)
N5A N -0.4279(3) -0.3515(3) 0.1292(3)
N5C N 0.3515(3) -0.4279(3) 0.1292(3)
N5A_2 N -0.4279(3) 0.6485(3) 0.1292(3)
N5C_2 N 0.3515(3) 0.5721(3) 0.1292(3)
N5_2 N -0.5721(3) 0.3515(3) 0.1292(3)
N6B N -0.3924(3) 0.3756(3) 0.1273(3)
N6B_2 N 0.6076(3) 0.3756(3) 0.1273(3)
N6A N -0.3756(3) -0.3924(3) 0.1273(3)
N6C N 0.3924(3) -0.3756(3) 0.1273(3)
N6A_2 N -0.3756(3) 0.6076(3) 0.1273(3)
N6C_2 N 0.3924(3) 0.6244(3) 0.1273(3)
N6_2 N -0.6244(3) 0.3924(3) 0.1273(3)
N6A_3 N 0.6244(3) 0.6076(3) 0.1273(3)
N6C_3 N -0.6076(3) -0.3756(3) 0.1273(3)
N6_3 N 0.3756(3) -0.6076(3) 0.1273(3)
N6C_4 N -0.6076(3) 0.6244(3) 0.1273(3)
C7B C -0.1756(4) 0.1474(4) 0.1296(4)
C7A C -0.1474(4) -0.1756(4) 0.1296(4)
C7C C 0.1756(4) -0.1474(4) 0.1296(4)
C7B_2 C 0.8244(4) 0.1474(4) 0.1296(4)
C7A_2 C -0.1474(4) 0.8244(4) 0.1296(4)
C7C_2 C 0.1756(4) 0.8526(4) 0.1296(4)
C7_2 C -0.8526(4) 0.1756(4) 0.1296(4)
H3B H -0.2186 0.1322 0.1322
H3A H -0.1322 -0.2186 0.1322
H3C H 0.2186 -0.1322 0.1322
H3B_2 H 0.7814 0.1322 0.1322
H3A_2 H -0.1322 0.7814 0.1322
H3C_2 H 0.2186 0.8678 0.1322
H3_2 H -0.8678 0.2186 0.1322
C8B C -0.0938(4) 0.2084(4) 0.1253(4)
C8A C -0.2084(4) -0.0938(4) 0.1253(4)
C8C C 0.0938(4) -0.2084(4) 0.1253(4)
C8B_2 C 0.9062(4) 0.2084(4) 0.1253(4)
C8A_2 C -0.2084(4) 0.9062(4) 0.1253(4)
C8C_2 C 0.0938(4) 0.7916(4) 0.1253(4)
C8_2 C -0.7916(4) 0.0938(4) 0.1253(4)
H4B H -0.0673 0.2456 0.1245
H4A H -0.2456 -0.0673 0.1245
H4C H 0.0673 -0.2456 0.1245
H4B_2 H 0.9327 0.2456 0.1245
H4A_2 H -0.2456 0.9327 0.1245
H4C_2 H 0.0673 0.7544 0.1245
H4_2 H -0.7544 0.0673 0.1245
C9B C -0.2906(3) 0.4042(4) 0.1278(4)
C9B_2 C 0.7094(3) 0.4042(4) 0.1278(4)
C9A C -0.4042(4) -0.2906(3) 0.1278(4)
C9C C 0.2906(3) -0.4042(4) 0.1278(4)
C9A_2 C -0.4042(4) 0.7094(3) 0.1278(4)
C9C_2 C 0.2906(3) 0.5958(4) 0.1278(4)
C9_2 C -0.5958(4) 0.2906(3) 0.1278(4)
H5B H -0.2529 0.4299 0.1274
H5B_2 H 0.7471 0.4299 0.1274
H5A H -0.4299 -0.2529 0.1274
H5C H 0.2529 -0.4299 0.1274
H5A_2 H -0.4299 0.7471 0.1274
H5C_2 H 0.2529 0.5701 0.1274
H5_2 H -0.5701 0.2529 0.1274
C10B C -0.3539(3) 0.3232(4) 0.1268(4)
C10B_2 C 0.6461(3) 0.3232(4) 0.1268(4)
C10A C -0.3232(4) -0.3539(3) 0.1268(4)
C10C C 0.3539(3) -0.3232(4) 0.1268(4)
C10A_2 C -0.3232(4) 0.6461(3) 0.1268(4)
C10C_2 C 0.3539(3) 0.6768(4) 0.1268(4)
C10_2 C -0.6768(4) 0.3539(3) 0.1268(4)
H6B H -0.3697 0.2803 0.1264
H6B_2 H 0.6303 0.2803 0.1264
H6A H -0.2803 -0.3697 0.1264
H6C H 0.3697 -0.2803 0.1264
H6A_2 H -0.2803 0.6303 0.1264
H6C_2 H 0.3697 0.7197 0.1264
H6_2 H -0.7197 0.3697 0.1264
O1 O 0.36681(18) 0.1367(2) 0.08034(18)
O2 O 0.57392(18) 0.1264(2) 0.2576(2)
O3 O 0.6682(2) 0.1259(4) 0.1841(3)
C1 C 0.3950(3) 0.1325(2) 0.0000
C2 C 0.4702(3) 0.12960(19) 0.0000
C3 C 0.5053(2) 0.12833(17) 0.0866(3)
H1 H 0.4827 0.1291 0.1453
C4 C 0.5724(2) 0.1260(2) 0.0870(4)
C5 C 0.6062(4) 0.1245(4) 0.0000
H2 H 0.6518 0.1226 0.0000
C6 C 0.6116(3) 0.1244(3) 0.1805(3)
O1I O 0.36681(18) 0.1367(2) -0.08034(18)
O2I O 0.57392(18) 0.1264(2) -0.2576(2)
O3I O 0.6682(2) 0.1259(4) -0.1841(3)
C3I C 0.5053(2) 0.12833(17) -0.0866(3)
H1I H 0.4827 0.1291 -0.1453
C4I C 0.5724(2) 0.1260(2) -0.0870(4)
C6I C 0.6116(3) 0.1244(3) -0.1805(3)
loop_
_geom_bond_atom_site_label_1
_geom_bond_atom_site_label_2
_geom_bond_site_symmetry_1
_geom_bond_site_symmetry_2
Cu1 N1 1_555 1_555
Cu2 N2 1_555 1_555
Cu3 N5 1_555 1_555
O1 C1 1_555 1_555
O2 C6 1_555 1_555
O3 C6 1_555 1_555
N1 N3 1_555 1_555
N2 C7 1_555 1_555
N3 C8 1_555 1_555
N4 Cu2 1_555 1_555
N5 N6 1_555 1_555
N6 C10 1_555 1_555
C1 C2 1_555 1_555
C2 C3 1_555 1_555
C3 H1 1_555 1_555
C4 C3 1_555 1_555
C5 C4 1_555 1_555
H2 C5 1_555 1_555
C6 C4 1_555 1_555
C7 N1 1_555 1_555
H3 C7 1_555 1_555
C8 N2 1_555 1_555
H4 C8 1_555 1_555
C9 N4 1_555 1_555
H5 C9 1_555 1_555
C10 N4 1_555 1_555
H6 C10 1_555 1_555
Cu1B N1B 1_555 1_555
Cu1C N3 1_555 1_555
Cu1A N1A 1_555 1_555
Cu1B_2 N1B_2 1_555 1_555
Cu1A_2 N1A_2 1_555 1_555
Cu1C_2 N1C_2 1_555 1_555
Cu1_2 N1_2 1_555 1_555
Cu1_3 N3B_2 1_555 1_555
Cu1B_3 N3A_2 1_555 1_555
Cu1C_3 N3_2 1_555 1_555
Cu2B N2B 1_555 1_555
Cu2A N2A 1_555 1_555
Cu2C N2C 1_555 1_555
Cu2B_2 N2B_2 1_555 1_555
Cu2A_2 N2A_2 1_555 1_555
Cu2C_2 N2C_2 1_555 1_555
Cu2_2 N2_2 1_555 1_555
Cu3B N5B 1_555 1_555
Cu3C N6 1_555 1_555
Cu3_2 N5_2 1_555 1_555
Cu3B_2 N5B_2 1_555 1_555
Cu3A N5A 1_555 1_555
Cu3C_2 N5C 1_555 1_555
Cu3A_2 N5A_2 1_555 1_555
Cu3B_3 N6A 1_555 1_555
Cu3A_3 N6C 1_555 1_555
Cu3A_4 N6C_2 1_555 1_555
Cu3C_3 N6_2 1_555 1_555
O1I C1 1_555 1_555
O2I C6I 1_555 1_555
O3I C6I 1_555 1_555
N1B N3B 1_555 1_555
N1A N3A 1_555 1_555
N1C Cu1C 1_555 1_555
N1B_2 N3B_2 1_555 1_555
N1A_2 N3A_2 1_555 1_555
N1C_2 N3C_2 1_555 1_555
N1_2 N3_2 1_555 1_555
N2B C7B 1_555 1_555
N2A C7A 1_555 1_555
N2C C7C 1_555 1_555
N2B_2 C7B_2 1_555 1_555
N2A_2 C7A_2 1_555 1_555
N2C_2 C7C_2 1_555 1_555
N2_2 C7_2 1_555 1_555
N3B Cu1 1_555 1_555
N3A Cu1B 1_555 1_555
N3C Cu1A 1_555 1_555
N3B_2 C8B_2 1_555 1_555
N3A_2 C8A_2 1_555 1_555
N3C_2 Cu1A_2 1_555 1_555
N3_2 C8_2 1_555 1_555
N3A_3 Cu1B_2 1_555 1_555
N3_3 Cu1C_2 1_555 1_555
N3B_3 Cu1_2 1_555 1_555
N4B Cu2B 1_555 1_555
N4B_2 Cu2B_2 1_555 1_555
N4A Cu2A 1_555 1_555
N4C Cu2C 1_555 1_555
N4A_2 Cu2A_2 1_555 1_555
N4C_2 Cu2C_2 1_555 1_555
N4_2 Cu2_2 1_555 1_555
N5B N6B 1_555 1_555
N5B_2 N6B_2 1_555 1_555
N5A N6A 1_555 1_555
N5C N6C 1_555 1_555
N5A_2 N6A_2 1_555 1_555
N5C_2 Cu3C 1_555 1_555
N5_2 N6_2 1_555 1_555
N6B Cu3_2 1_555 1_555
N6B_2 Cu3 1_555 1_555
N6A C10A 1_555 1_555
N6C C10C 1_555 1_555
N6A_2 Cu3B 1_555 1_555
N6C_2 N5C_2 1_555 1_555
N6_2 C10_2 1_555 1_555
N6A_3 Cu3B_2 1_555 1_555
N6C_3 Cu3A 1_555 1_555
N6_3 Cu3C_2 1_555 1_555
N6C_4 Cu3A_2 1_555 1_555
C3I C2 1_555 1_555
H1I C3I 1_555 1_555
C4I C5 1_555 1_555
C6I C4I 1_555 1_555
C7B N1B 1_555 1_555
C7A N1A 1_555 1_555
C7C N1C 1_555 1_555
C7B_2 N1B_2 1_555 1_555
C7A_2 N1A_2 1_555 1_555
C7C_2 N1C_2 1_555 1_555
C7_2 N1_2 1_555 1_555
H3B C7B 1_555 1_555
H3A C7A 1_555 1_555
H3C C7C 1_555 1_555
H3B_2 C7B_2 1_555 1_555
H3A_2 C7A_2 1_555 1_555
H3C_2 C7C_2 1_555 1_555
H3_2 C7_2 1_555 1_555
C8B N2B 1_555 1_555
C8A N2A 1_555 1_555
C8C N2C 1_555 1_555
C8B_2 N2B_2 1_555 1_555
C8A_2 N2A_2 1_555 1_555
C8C_2 N2C_2 1_555 1_555
C8_2 N2_2 1_555 1_555
H4B C8B 1_555 1_555
H4A C8A 1_555 1_555
H4C C8C 1_555 1_555
H4B_2 C8B_2 1_555 1_555
H4A_2 C8A_2 1_555 1_555
H4C_2 C8C_2 1_555 1_555
H4_2 C8_2 1_555 1_555
C9B N4B 1_555 1_555
C9B_2 N4B_2 1_555 1_555
C9A N4A 1_555 1_555
C9C N4C 1_555 1_555
C9A_2 N4A_2 1_555 1_555
C9C_2 N4C_2 1_555 1_555
C9_2 N4_2 1_555 1_555
H5B C9B 1_555 1_555
H5B_2 C9B_2 1_555 1_555
H5A C9A 1_555 1_555
H5C C9C 1_555 1_555
H5A_2 C9A_2 1_555 1_555
H5C_2 C9C_2 1_555 1_555
H5_2 C9_2 1_555 1_555
C10B N4B 1_555 1_555
C10B_2 N4B_2 1_555 1_555
C10A N4A 1_555 1_555
C10C N4C 1_555 1_555
C10A_2 N4A_2 1_555 1_555
C10C_2 N4C_2 1_555 1_555
C10_2 N4_2 1_555 1_555
H6B C10B 1_555 1_555
H6B_2 C10B_2 1_555 1_555
H6A C10A 1_555 1_555
H6C C10C 1_555 1_555
H6A_2 C10A_2 1_555 1_555
H6C_2 C10C_2 1_555 1_555
H6_2 C10_2 1_555 1_555
N5 C9 1_555 1_555
N1C N3C 1_555 1_555
N3B C8B 1_555 1_555
N3A C8A 1_555 1_555
N3C C8C 1_555 1_555
N3C_2 C8C_2 1_555 1_555
N5B C9B 1_555 1_555
N5B_2 C9B_2 1_555 1_555
N5A C9A 1_555 1_555
N5C C9C 1_555 1_555
N5A_2 C9A_2 1_555 1_555
N5C_2 C9C_2 1_555 1_555
N5_2 C9_2 1_555 1_555
N6B C10B 1_555 1_555
N6B_2 C10B_2 1_555 1_555
N6A_2 C10A_2 1_555 1_555
N6C_2 C10C_2 1_555 1_555
C3I C4I 1_555 1_555

#END
