
#######################################################################
#
#                 Cambridge Crystallographic Data Centre
#                                CCDC 
#
#######################################################################
#
# If this CIF has been generated from an entry in the Cambridge 
# Structural Database, then it will include bibliographic, chemical, 
# crystal, experimental, refinement or atomic coordinate data resulting 
# from the CCDC's data processing and validation procedures.
#
#######################################################################

data_NUVHOC
_symmetry_cell_setting           tetragonal
_symmetry_space_group_name_H-M   'P 4/n c c'
_symmetry_Int_Tables_number      130
_space_group_name_Hall           '-P 4a 2ac'
loop_
_symmetry_equiv_pos_site_id
_symmetry_equiv_pos_as_xyz
1 x,y,z
2 1/2-x,1/2-y,z
3 1/2-y,x,z
4 y,1/2-x,z
5 -x,1/2+y,1/2-z
6 1/2+x,-y,1/2-z
7 1/2+y,1/2+x,1/2-z
8 -y,-x,1/2-z
9 -x,-y,-z
10 1/2+x,1/2+y,-z
11 1/2+y,-x,-z
12 -y,1/2+x,-z
13 x,1/2-y,1/2+z
14 1/2-x,y,1/2+z
15 1/2-y,1/2-x,1/2+z
16 y,x,1/2+z
_cell_length_a                   20.321(2)
_cell_length_b                   20.321(2)
_cell_length_c                   13.6990(10)
_cell_angle_alpha                90
_cell_angle_beta                 90
_cell_angle_gamma                90
_cell_volume                     5656.91
loop_
_atom_site_label
_atom_site_type_symbol
_atom_site_fract_x
_atom_site_fract_y
_atom_site_fract_z
Cl1 Cl 0.7500 0.7500 -0.0015(4)
Cl2 Cl 0.2500 1.2500 0.2507(4)
O1 O 0.3852(18) 0.8853(17) 0.1730(19)
O3 O 0.1747(5) 0.8793(6) 0.5064(9)
O4 O 0.0805(6) 0.8719(10) 0.4294(12)
O5 O 0.1239(6) 0.9158(10) 0.4393(12)
O6 O 0.1242(5) 0.8203(5) 0.5123(8)
C5 C 0.2815(3) 0.8800(3) 0.2505(8)
C6 C 0.2463(4) 0.8789(5) 0.3374(6)
C7 C 0.1779(4) 0.8760(5) 0.3356(7)
C8 C 0.1449(3) 0.8741(4) 0.2469(9)
C9 C 0.1249(5) 0.8199(5) 0.3401(7)
C10 C 0.2484(4) 0.8781(5) 0.1617(6)
C11 C 0.3562(4) 0.8834(5) 0.2533(16)
C12 C 0.1413(6) 0.8750(9) 0.4299(9)
C13 C 0.1269(6) 0.8545(8) 0.4362(8)
O1F O 0.3853(17) 0.8852(18) 0.3270(19)
O1A O 0.1148(18) 0.6147(17) 0.1730(19)
O1G O 0.1147(17) 0.6148(18) 0.3270(19)
O3F O 0.3793(6) 0.6747(5) -0.0064(9)
O3A O 0.3253(5) 0.6207(6) 0.5064(9)
O3G O 0.1207(6) 0.8253(5) -0.0064(9)
O4F O 0.3719(10) 0.5805(6) 0.0706(12)
O4A O 0.4195(6) 0.6281(10) 0.4294(12)
O4G O 0.1281(10) 0.9195(6) 0.0706(12)
O5F O 0.4158(10) 0.6239(6) 0.0607(12)
O5A O 0.3761(6) 0.5842(10) 0.4393(12)
O5G O 0.0842(10) 0.8761(6) 0.0607(12)
O6F O 0.3203(5) 0.6242(5) -0.0123(8)
O6A O 0.3758(5) 0.6797(5) 0.5123(8)
O6G O 0.1797(5) 0.8758(5) -0.0123(8)
C5F C 0.3800(3) 0.7815(3) 0.2495(8)
C5A C 0.2185(3) 0.6200(3) 0.2505(8)
C5G C 0.1200(3) 0.7185(3) 0.2495(8)
C6F C 0.3789(5) 0.7463(4) 0.1626(6)
C6A C 0.2537(4) 0.6211(5) 0.3374(6)
C6G C 0.1211(5) 0.7537(4) 0.1626(6)
C7F C 0.3760(5) 0.6779(4) 0.1644(7)
C7A C 0.3221(4) 0.6240(5) 0.3356(7)
C7G C 0.1240(5) 0.8221(4) 0.1644(7)
C8F C 0.3741(4) 0.6449(3) 0.2531(9)
C8A C 0.3551(3) 0.6259(4) 0.2469(9)
C8G C 0.1259(4) 0.8551(3) 0.2531(9)
C9F C 0.3199(5) 0.6249(5) 0.1599(7)
C9A C 0.3751(5) 0.6801(5) 0.3401(7)
C9G C 0.1801(5) 0.8751(5) 0.1599(7)
C10A C 0.2516(4) 0.6219(5) 0.1617(6)
C10F C 0.3781(5) 0.7484(4) 0.3383(6)
C10G C 0.1219(5) 0.7516(4) 0.3383(6)
C11F C 0.3834(5) 0.8562(4) 0.2467(16)
C11A C 0.1438(4) 0.6166(5) 0.2533(16)
C11G C 0.1166(5) 0.6438(4) 0.2467(16)
C12F C 0.3750(9) 0.6413(6) 0.0701(9)
C12A C 0.3587(6) 0.6250(9) 0.4299(9)
C12G C 0.1250(9) 0.8587(6) 0.0701(9)
C13F C 0.3545(8) 0.6269(6) 0.0638(8)
C13A C 0.3731(6) 0.6455(8) 0.4362(8)
C13G C 0.1455(8) 0.8731(6) 0.0638(8)
Cu1 Cu 0.63266(5) 0.73511(5) 0.08204(11)
Cu2 Cu 0.46931(6) 0.96885(6) 0.12761(9)
Cu3 Cu 0.36721(5) 1.23534(5) 0.16431(11)
N1 N 0.6014(3) 0.8220(3) 0.0902(6)
N2 N 0.6427(3) 0.8747(3) 0.0913(6)
N3 N 0.5403(3) 0.9109(3) 0.1078(5)
N4 N 0.4126(3) 1.0414(3) 0.1372(6)
N5 N 0.3761(3) 1.1431(3) 0.1553(5)
N6 N 0.3229(3) 1.1021(3) 0.1560(6)
C1 C 0.5419(4) 0.8464(4) 0.1020(7)
H1 H 0.5043 0.8203 0.1059
C2 C 0.6055(4) 0.9271(5) 0.1005(6)
H2 H 0.6214 0.9700 0.1020
C3 C 0.4275(4) 1.1032(4) 0.1440(7)
H3 H 0.4706 1.1185 0.1413
C4 C 0.3474(4) 1.0419(4) 0.1463(7)
H4 H 0.3217 1.0040 0.1460
Cu1B Cu 0.76489(5) 0.63266(5) 0.08204(11)
Cu1C Cu 0.73511(5) 0.86734(5) 0.08204(11)
Cu1A Cu 0.86734(5) 0.76489(5) 0.08204(11)
Cu2B Cu 0.53115(6) 0.46931(6) 0.12761(9)
Cu2A Cu 1.03069(6) 0.53115(6) 0.12761(9)
Cu2C Cu 0.96885(6) 1.03069(6) 0.12761(9)
Cu2B_2 Cu 0.53115(6) 1.46931(6) 0.12761(9)
Cu3B Cu 0.26466(5) 0.36721(5) 0.16431(11)
Cu3C Cu 0.23534(5) 1.13279(5) 0.16431(11)
Cu3_2 Cu 0.36721(5) 0.23534(5) 0.16431(11)
Cu3B_2 Cu 0.26466(5) 1.36721(5) 0.16431(11)
Cu3A Cu 1.13279(5) 0.26466(5) 0.16431(11)
Cu3B_3 Cu 1.26466(5) 0.36721(5) 0.16431(11)
N1B N 0.6780(3) 0.6014(3) 0.0902(6)
N1A N 0.8986(3) 0.6780(3) 0.0902(6)
N1C N 0.8220(3) 0.8986(3) 0.0902(6)
N2B N 0.6253(3) 0.6427(3) 0.0913(6)
N2A N 0.8573(3) 0.6253(3) 0.0913(6)
N2C N 0.8747(3) 0.8573(3) 0.0913(6)
N3B N 0.5891(3) 0.5403(3) 0.1078(5)
N3A N 0.9597(3) 0.5891(3) 0.1078(5)
N3C N 0.9109(3) 0.9597(3) 0.1078(5)
N4B N 0.4586(3) 0.4126(3) 0.1372(6)
N4B_2 N 0.4586(3) 1.4126(3) 0.1372(6)
N4A N 1.0874(3) 0.4586(3) 0.1372(6)
N4C N 1.0414(3) 1.0874(3) 0.1372(6)
N5B N 0.3569(3) 0.3761(3) 0.1553(5)
N5B_2 N 0.3569(3) 1.3761(3) 0.1553(5)
N5A N 1.1239(3) 0.3569(3) 0.1553(5)
N5C N 0.1431(3) 1.1239(3) 0.1553(5)
N5_2 N 0.3761(3) 0.1431(3) 0.1553(5)
N6B N 0.3979(3) 0.3229(3) 0.1560(6)
N6B_2 N 0.3979(3) 1.3229(3) 0.1560(6)
N6A N 1.1771(3) 0.3979(3) 0.1560(6)
N6A_2 N 0.1771(3) 0.3979(3) 0.1560(6)
C1B C 0.6536(4) 0.5419(4) 0.1020(7)
C1A C 0.9581(4) 0.6536(4) 0.1020(7)
C1C C 0.8464(4) 0.9581(4) 0.1020(7)
H1B H 0.6797 0.5043 0.1059
H1A H 0.9957 0.6797 0.1059
H1C H 0.8203 0.9957 0.1059
C2B C 0.5729(5) 0.6055(4) 0.1005(6)
C2A C 0.8945(4) 0.5729(5) 0.1005(6)
C2C C 0.9271(5) 0.8945(4) 0.1005(6)
H2B H 0.5300 0.6214 0.1020
H2A H 0.8786 0.5300 0.1020
H2C H 0.9700 0.8786 0.1020
C3B C 0.3968(4) 0.4275(4) 0.1440(7)
C3B_2 C 0.3968(4) 1.4275(4) 0.1440(7)
C3A C 1.0725(4) 0.3968(4) 0.1440(7)
H3B H 0.3815 0.4706 0.1413
H3B_2 H 0.3815 1.4706 0.1413
H3A H 1.0294 0.3815 0.1413
C4B C 0.4581(4) 0.3474(4) 0.1463(7)
C4B_2 C 0.4581(4) 1.3474(4) 0.1463(7)
C4A C 1.1526(4) 0.4581(4) 0.1463(7)
H4B H 0.4960 0.3217 0.1460
H4B_2 H 0.4960 1.3217 0.1460
H4A H 1.1783 0.4960 0.1460
O2? O 0.381(2) 0.892(2) 0.336(2)
H5? H 0.2684 0.8802 0.3968
H6? H 0.0991 0.8721 0.2457
H7? H 0.2720 0.8788 0.1035
loop_
_geom_bond_atom_site_label_1
_geom_bond_atom_site_label_2
_geom_bond_site_symmetry_1
_geom_bond_site_symmetry_2
Cu1 N1 1_555 1_555
Cu2 N3 1_555 1_555
Cu3 N5 1_555 1_555
N1 N2 1_555 1_555
N2 C2 1_555 1_555
N3 C1 1_555 1_555
N4 Cu2 1_555 1_555
N5 N6 1_555 1_555
N6 C4 1_555 1_555
C1 N1 1_555 1_555
H1 C1 1_555 1_555
C2 N3 1_555 1_555
H2 C2 1_555 1_555
C3 N4 1_555 1_555
H3 C3 1_555 1_555
C4 N4 1_555 1_555
H4 C4 1_555 1_555
O1 C11 1_555 1_555
O3 O5 1_555 1_555
O4 O5 1_555 1_555
O5 C12 1_555 1_555
O6 O3 1_555 1_555
C5 C6 1_555 1_555
C6 C7 1_555 1_555
C7 C8 1_555 1_555
C8 C9 1_555 1_555
C9 C7 1_555 1_555
C10 C5 1_555 1_555
C11 C5 1_555 1_555
C12 O3 1_555 1_555
C13 O3 1_555 1_555
Cu1B N1B 1_555 1_555
Cu1C N2 1_555 1_555
Cu1A N1A 1_555 1_555
Cu2B N3B 1_555 1_555
Cu2A N3A 1_555 1_555
Cu2C N3C 1_555 1_555
Cu2B_2 N4B_2 1_555 1_555
Cu3B N5B 1_555 1_555
Cu3C N6 1_555 1_555
Cu3_2 N5_2 1_555 1_555
Cu3B_2 N5B_2 1_555 1_555
Cu3A N5A 1_555 1_555
Cu3B_3 N6A 1_555 1_555
N1B N2B 1_555 1_555
N1A N2A 1_555 1_555
N1C Cu1C 1_555 1_555
N2B Cu1 1_555 1_555
N2A Cu1B 1_555 1_555
N2C Cu1A 1_555 1_555
N3B C1B 1_555 1_555
N3A C1A 1_555 1_555
N3C C1C 1_555 1_555
N4B Cu2B 1_555 1_555
N4B_2 C3B_2 1_555 1_555
N4A Cu2A 1_555 1_555
N4C Cu2C 1_555 1_555
N5B N6B 1_555 1_555
N5B_2 N6B_2 1_555 1_555
N5A N6A 1_555 1_555
N5C Cu3C 1_555 1_555
N6B Cu3_2 1_555 1_555
N6B_2 Cu3 1_555 1_555
N6A C4A 1_555 1_555
N6A_2 Cu3B 1_555 1_555
C1B N1B 1_555 1_555
C1A N1A 1_555 1_555
C1C N1C 1_555 1_555
H1B C1B 1_555 1_555
H1A C1A 1_555 1_555
H1C C1C 1_555 1_555
C2B N2B 1_555 1_555
C2A N2A 1_555 1_555
C2C N2C 1_555 1_555
H2B C2B 1_555 1_555
H2A C2A 1_555 1_555
H2C C2C 1_555 1_555
C3B N4B 1_555 1_555
C3B_2 N5B_2 1_555 1_555
C3A N4A 1_555 1_555
H3B C3B 1_555 1_555
H3B_2 C3B_2 1_555 1_555
H3A C3A 1_555 1_555
C4B N4B 1_555 1_555
C4B_2 N4B_2 1_555 1_555
C4A N4A 1_555 1_555
H4B C4B 1_555 1_555
H4B_2 C4B_2 1_555 1_555
H4A C4A 1_555 1_555
O1F C11 1_555 1_555
O1A C11A 1_555 1_555
O1G C11A 1_555 1_555
O3F O5F 1_555 1_555
O3A O5A 1_555 1_555
O3G O5G 1_555 1_555
O4F O5F 1_555 1_555
O4A O5A 1_555 1_555
O4G O5G 1_555 1_555
O5F C12F 1_555 1_555
O5A C12A 1_555 1_555
O5G C12G 1_555 1_555
O6F O3F 1_555 1_555
O6A O3A 1_555 1_555
O6G O3G 1_555 1_555
C5F C6F 1_555 1_555
C5A C6A 1_555 1_555
C5G C6G 1_555 1_555
C6F C7F 1_555 1_555
C6A C7A 1_555 1_555
C6G C7G 1_555 1_555
C7F C8F 1_555 1_555
C7A C8F 1_555 1_555
C7G C8 1_555 1_555
C8F C8A 1_555 1_555
C8A C7F 1_555 1_555
C8G C7 1_555 1_555
C9F C7F 1_555 1_555
C9A C7A 1_555 1_555
C9G C8 1_555 1_555
C10A C5A 1_555 1_555
C10F C5F 1_555 1_555
C10G C9 1_555 1_555
C11F O1 1_555 1_555
C11A C5A 1_555 1_555
C11G O1A 1_555 1_555
C12F O3F 1_555 1_555
C12A O3A 1_555 1_555
C12G O3G 1_555 1_555
C13F O3F 1_555 1_555
C13A O3A 1_555 1_555
C13G O3G 1_555 1_555
N5 C3 1_555 1_555
O4 C12 1_555 1_555
O4 C13 1_555 1_555
O5 C13 1_555 1_555
O6 C12 1_555 1_555
O6 C13 1_555 1_555
C7 C12 1_555 1_555
C8 C8G 1_555 1_555
C9 C12 1_555 1_555
C9 C13 1_555 1_555
C9 C8G 1_555 1_555
C10 C9G 1_555 1_555
C11 C11F 1_555 1_555
C12 C13 1_555 1_555
N1C N2C 1_555 1_555
N3B C2B 1_555 1_555
N3A C2A 1_555 1_555
N3C C2C 1_555 1_555
N5B C3B 1_555 1_555
N5A C3A 1_555 1_555
N6B C4B 1_555 1_555
N6B_2 C4B_2 1_555 1_555
O1F C11F 1_555 1_555
O1G C11G 1_555 1_555
O4F C12F 1_555 1_555
O4F C13F 1_555 1_555
O4A C12A 1_555 1_555
O4A C13A 1_555 1_555
O4G C12G 1_555 1_555
O4G C13G 1_555 1_555
O5F C13F 1_555 1_555
O5A C13A 1_555 1_555
O5G C13G 1_555 1_555
O6F C12F 1_555 1_555
O6F C13F 1_555 1_555
O6A C12A 1_555 1_555
O6A C13A 1_555 1_555
O6G C12G 1_555 1_555
O6G C13G 1_555 1_555
C5F C11F 1_555 1_555
C5G C10G 1_555 1_555
C5G C11G 1_555 1_555
C7F C12F 1_555 1_555
C7A C8A 1_555 1_555
C7A C12A 1_555 1_555
C7G C8G 1_555 1_555
C7G C9G 1_555 1_555
C7G C12G 1_555 1_555
C8F C9F 1_555 1_555
C8F C9A 1_555 1_555
C8A C9F 1_555 1_555
C8A C9A 1_555 1_555
C8G C9G 1_555 1_555
C9F C10A 1_555 1_555
C9F C12F 1_555 1_555
C9F C13F 1_555 1_555
C9A C10F 1_555 1_555
C9A C12A 1_555 1_555
C9A C13A 1_555 1_555
C9G C12G 1_555 1_555
C9G C13G 1_555 1_555
C11A C11G 1_555 1_555
C12F C13F 1_555 1_555
C12A C13A 1_555 1_555
C12G C13G 1_555 1_555

#END
