
#######################################################################
#
#                 Cambridge Crystallographic Data Centre
#                                CCDC 
#
#######################################################################
#
# If this CIF has been generated from an entry in the Cambridge 
# Structural Database, then it will include bibliographic, chemical, 
# crystal, experimental, refinement or atomic coordinate data resulting 
# from the CCDC's data processing and validation procedures.
#
#######################################################################

data_NUVROM
_symmetry_cell_setting           triclinic
_symmetry_space_group_name_H-M   'P -1'
_symmetry_Int_Tables_number      2
_space_group_name_Hall           '-P 1'
loop_
_symmetry_equiv_pos_site_id
_symmetry_equiv_pos_as_xyz
1 x,y,z
2 -x,-y,-z
_cell_length_a                   6.866(5)
_cell_length_b                   8.706(6)
_cell_length_c                   11.222(8)
_cell_angle_alpha                81.925(11)
_cell_angle_beta                 86.268(11)
_cell_angle_gamma                86.020(11)
_cell_volume                     661.506
loop_
_atom_site_label
_atom_site_type_symbol
_atom_site_fract_x
_atom_site_fract_y
_atom_site_fract_z
O1 O 0.4116(11) 0.2532(10) 0.1889(7)
O2 O 1.0021(12) 0.3046(8) -0.0950(7)
O3 O 0.8083(12) -0.0415(10) -0.0662(8)
C1 C 0.2447(16) -0.1625(12) 0.4300(9)
H1 H 0.2462 -0.2417 0.3822
C2 C 0.2502(16) -0.0099(12) 0.3798(10)
H2 H 0.2513 0.0155 0.2965
S1 S 0.2602(3) 0.3430(3) 0.2540(2)
O4 O 0.2959(14) 0.5080(9) 0.2432(7)
O5 O 0.5607(11) 0.2161(9) -0.1146(7)
C3 C 0.2371(15) -0.1943(12) 0.5550(10)
H3 H 0.2266 -0.2974 0.5889
O6 O 0.0675(11) 0.3195(9) 0.2139(7)
C4 C 0.2537(14) 0.1097(11) 0.4522(8)
C5 C 0.2609(14) 0.2720(11) 0.4102(9)
Ba1 Ba 0.79312(7) 0.17175(5) 0.11659(4)
N1 N 0.2432(12) -0.0923(9) 0.6291(7)
C6 C 0.2518(13) 0.0609(11) 0.5786(9)
C7 C 0.2673(16) 0.3753(11) 0.4911(9)
H4 H 0.2746 0.4804 0.4624
O7 O 0.7086(14) 0.4840(10) 0.0626(9)
C8 C 0.2558(14) 0.1718(12) 0.6639(8)
C9 C 0.2639(19) 0.3284(12) 0.6144(10)
H5 H 0.2656 0.4028 0.6662
O8 O 0.2525(11) 0.1240(8) 0.7805(6)
H6 H 0.9842 0.4076 -0.1391
H7 H 1.0833 0.2587 -0.1557
H8 H 0.4407 0.2014 -0.1520
H9 H 0.5760 0.3219 -0.1516
O3A O 1.1917(12) 0.0415(10) 0.0662(8)
O6_2 O 1.0675(11) 0.3195(9) 0.2139(7)
Ba1A Ba 1.20688(7) -0.17175(5) -0.11659(4)
Ba1_2 Ba -0.20688(7) 0.17175(5) 0.11659(4)
Ba1A_2 Ba 0.20688(7) -0.17175(5) 0.88341(4)
N1A N 0.7568(12) 0.0923(9) 0.3709(7)
O8A O 0.7475(11) -0.1240(8) 0.2195(6)
loop_
_geom_bond_atom_site_label_1
_geom_bond_atom_site_label_2
_geom_bond_site_symmetry_1
_geom_bond_site_symmetry_2
O1 S1 1_555 1_555
O2 Ba1 1_555 1_555
O3 Ba1 1_555 1_555
C1 H1 1_555 1_555
C2 C1 1_555 1_555
H2 C2 1_555 1_555
S1 O4 1_555 1_555
O5 Ba1 1_555 1_555
C3 C1 1_555 1_555
H3 C3 1_555 1_555
O6 S1 1_555 1_555
C4 C2 1_555 1_555
C5 S1 1_555 1_555
Ba1 O1 1_555 1_555
N1 C3 1_555 1_555
C6 C4 1_555 1_555
C7 C5 1_555 1_555
H4 C7 1_555 1_555
O7 Ba1 1_555 1_555
C8 C6 1_555 1_555
C9 C7 1_555 1_555
H5 C9 1_555 1_555
O8 C8 1_555 1_555
H6 O2 1_555 1_555
H7 O2 1_555 1_555
H8 O5 1_555 1_555
H9 O5 1_555 1_555
O3A Ba1 1_555 1_555
O6_2 Ba1 1_555 1_555
Ba1A O3 1_555 1_555
Ba1_2 O6 1_555 1_555
Ba1A_2 N1 1_555 1_555
N1A Ba1 1_555 1_555
O8A Ba1 1_555 1_555
C4 C5 1_555 1_555
N1 C6 1_555 1_555
C8 C9 1_555 1_555
O8 Ba1A_2 1_555 1_555
O3A Ba1A 1_555 1_555

#END
