
#######################################################################
#
#                 Cambridge Crystallographic Data Centre
#                                CCDC 
#
#######################################################################
#
# If this CIF has been generated from an entry in the Cambridge 
# Structural Database, then it will include bibliographic, chemical, 
# crystal, experimental, refinement or atomic coordinate data resulting 
# from the CCDC's data processing and validation procedures.
#
#######################################################################

data_NUVRIG
_symmetry_cell_setting           triclinic
_symmetry_space_group_name_H-M   'P -1'
_symmetry_Int_Tables_number      2
_space_group_name_Hall           '-P 1'
loop_
_symmetry_equiv_pos_site_id
_symmetry_equiv_pos_as_xyz
1 x,y,z
2 -x,-y,-z
_cell_length_a                   7.446(2)
_cell_length_b                   8.943(2)
_cell_length_c                   9.964(3)
_cell_angle_alpha                96.01(2)
_cell_angle_beta                 98.16(2)
_cell_angle_gamma                113.75(3)
_cell_volume                     591.488
loop_
_atom_site_label
_atom_site_type_symbol
_atom_site_fract_x
_atom_site_fract_y
_atom_site_fract_z
I1 I 1.19836(11) 0.23291(7) 1.36180(7)
Ag1 Ag 1.14240(14) -0.08663(10) 1.23642(9)
S1 S 1.5971(4) 0.8675(3) 1.2169(2)
O1 O 0.9771(11) 0.1678(8) 1.0277(7)
O2 O 1.6696(13) 0.8782(9) 1.3634(8)
O3 O 1.7530(11) 0.9095(8) 1.1357(8)
O4 O 1.4773(12) 0.9610(9) 1.1935(9)
N1 N 1.0707(12) 0.3633(9) 0.8374(8)
C1 C 1.4272(13) 0.6527(11) 1.1567(10)
C2 C 1.1293(14) 0.3191(10) 1.0747(10)
C3 C 1.2548(17) 0.6278(13) 0.7744(11)
H1 H 1.2786 0.6918 0.7055
C4 C 1.1752(13) 0.4269(10) 0.9712(9)
C5 C 1.3612(15) 0.6958(11) 0.9092(11)
H2 H 1.4543 0.8063 0.9312
C6 C 1.3881(14) 0.5462(11) 1.2463(10)
H3 H 1.4602 0.5826 1.3367
C7 C 1.3273(16) 0.5966(11) 1.0117(10)
C8 C 1.2391(15) 0.3788(11) 1.2065(10)
C9 C 1.1126(17) 0.4630(12) 0.7435(11)
H4 H 1.0430 0.4197 0.6529
Ag1A Ag 0.85760(14) 0.08663(10) 0.76358(9)
Ag1_2 Ag 1.14240(14) 0.91337(10) 1.23642(9)
O1A O 1.0229(11) -0.1678(8) 0.9723(7)
O4_2 O 1.4773(12) -0.0390(9) 1.1935(9)
N1A N 0.9293(12) -0.3633(9) 1.1626(8)
O5 O 0.7262(16) 0.1769(12) 0.5338(10)
loop_
_geom_bond_atom_site_label_1
_geom_bond_atom_site_label_2
_geom_bond_site_symmetry_1
_geom_bond_site_symmetry_2
I1 Ag1 1_555 1_555
Ag1 O1A 1_555 1_555
S1 O2 1_555 1_555
O1 C2 1_555 1_555
O3 S1 1_555 1_555
O4 S1 1_555 1_555
N1 C4 1_555 1_555
C1 S1 1_555 1_555
C2 C4 1_555 1_555
C3 H1 1_555 1_555
C4 C7 1_555 1_555
C5 C3 1_555 1_555
H2 C5 1_555 1_555
C6 C1 1_555 1_555
H3 C6 1_555 1_555
C7 C1 1_555 1_555
C8 I1 1_555 1_555
C9 N1 1_555 1_555
H4 C9 1_555 1_555
Ag1A O1 1_555 1_555
Ag1_2 O4 1_555 1_555
O4_2 Ag1 1_555 1_555
N1A Ag1 1_555 1_555
N1 Ag1A 1_555 1_555
C2 C8 1_555 1_555
C3 C9 1_555 1_555
C5 C7 1_555 1_555
C6 C8 1_555 1_555

#END
