
#######################################################################
#
#                 Cambridge Crystallographic Data Centre
#                                CCDC 
#
#######################################################################
#
# If this CIF has been generated from an entry in the Cambridge 
# Structural Database, then it will include bibliographic, chemical, 
# crystal, experimental, refinement or atomic coordinate data resulting 
# from the CCDC's data processing and validation procedures.
#
#######################################################################

data_NUVSAZ
_symmetry_cell_setting           monoclinic
_symmetry_space_group_name_H-M   'P 21/n'
_symmetry_Int_Tables_number      14
_space_group_name_Hall           '-P 2yn'
loop_
_symmetry_equiv_pos_site_id
_symmetry_equiv_pos_as_xyz
1 x,y,z
2 1/2-x,1/2+y,1/2-z
3 -x,-y,-z
4 1/2+x,1/2-y,1/2+z
_cell_length_a                   11.361(5)
_cell_length_b                   7.095(3)
_cell_length_c                   14.575(6)
_cell_angle_alpha                90
_cell_angle_beta                 107.630(4)
_cell_angle_gamma                90
_cell_volume                     1119.66
loop_
_atom_site_label
_atom_site_type_symbol
_atom_site_fract_x
_atom_site_fract_y
_atom_site_fract_z
Cu1 Cu 1.0000 1.0000 1.0000
Cu2 Cu 1.0000 1.0000 0.5000
O1 O 0.9254(2) 0.9607(3) 0.61069(15)
O2 O 0.7268(2) 1.0060(3) 0.52908(16)
O3 O 0.43160(19) 1.1314(4) 0.71446(15)
O4 O 0.4747(2) 0.9935(3) 0.85726(16)
N1 N 0.8523(2) 1.0112(4) 0.87055(19)
C1 C 0.8753(3) 1.0027(4) 0.7862(2)
H1 H 0.9572 0.9979 0.7863
C2 C 0.7834(3) 1.0005(4) 0.6984(2)
C3 C 0.6626(3) 1.0127(4) 0.6982(2)
H2 H 0.5991 1.0129 0.6402
C4 C 0.6353(3) 1.0248(4) 0.7848(2)
C5 C 0.7335(3) 1.0206(4) 0.8691(2)
H3 H 0.7163 1.0244 0.9275
C6 C 0.8148(3) 0.9884(4) 0.6050(2)
C7 C 0.5033(3) 1.0520(5) 0.7849(2)
O5 O 1.0575(2) 0.7576(3) 0.95389(15)
H4 H 1.1248 0.7172 0.9925
H5 H 1.0643 0.7680 0.8976
O6 O 1.1064(2) 1.1644(3) 0.93470(16)
H6 H 1.1488 1.0961 0.9086
H7 H 1.1539 1.2394 0.9746
O7 O 1.15426(19) 1.0954(4) 0.60457(15)
H8 H 1.2191 1.0580 0.5925
H9 H 1.1552 1.0525 0.6592
O8 O 1.0738(2) 0.7338(3) 0.51295(15)
H10 H 1.0418 0.6708 0.4619
H11 H 1.0603 0.6764 0.5600
Cu1_2 Cu 1.0000 1.0000 0.0000
O1B O 1.0746(2) 1.0393(3) 0.38931(15)
O2B O 1.2732(2) 0.9940(3) 0.47092(16)
O3B O 1.56840(19) 0.8686(4) 0.28554(15)
O4B O 1.5253(2) 1.0065(3) 0.14274(16)
N1B N 1.1477(2) 0.9888(4) 1.12945(19)
N1B_2 N 1.1477(2) 0.9888(4) 0.12945(19)
C1B C 1.1247(3) 0.9973(4) 0.2138(2)
H1B H 1.0428 1.0021 0.2137
C2B C 1.2166(3) 0.9995(4) 0.3016(2)
C3B C 1.3374(3) 0.9873(4) 0.3018(2)
H2B H 1.4009 0.9871 0.3598
C4B C 1.3647(3) 0.9752(4) 0.2152(2)
C5B C 1.2665(3) 0.9794(4) 0.1309(2)
H3B H 1.2837 0.9756 0.0725
C6B C 1.1852(3) 1.0116(4) 0.3950(2)
C7B C 1.4967(3) 0.9480(5) 0.2151(2)
O5B O 0.9425(2) 1.2424(3) 1.04611(15)
H4B H 0.8752 1.2828 1.0075
H5B H 0.9357 1.2320 1.1024
O6B O 0.8936(2) 0.8356(3) 1.06530(16)
H6B H 0.8512 0.9039 1.0914
H7B H 0.8461 0.7606 1.0254
O7B O 0.84574(19) 0.9046(4) 0.39543(15)
H8B H 0.7809 0.9420 0.4075
H9B H 0.8448 0.9475 0.3408
O8B O 0.9262(2) 1.2662(3) 0.48705(15)
H10B H 0.9582 1.3292 0.5381
H11B H 0.9397 1.3236 0.4400
O9 O 0.2928(2) 0.4772(4) 0.6996(2)
H12 H 0.2143 0.4760 0.6794
H13 H 0.3182 0.3641 0.7095
loop_
_geom_bond_atom_site_label_1
_geom_bond_atom_site_label_2
_geom_bond_site_symmetry_1
_geom_bond_site_symmetry_2
Cu1 N1 1_555 1_555
Cu2 O1 1_555 1_555
O1 C6 1_555 1_555
O2 C6 1_555 1_555
O3 C7 1_555 1_555
O4 C7 1_555 1_555
N1 C1 1_555 1_555
C1 H1 1_555 1_555
C2 C1 1_555 1_555
C3 C2 1_555 1_555
H2 C3 1_555 1_555
C4 C3 1_555 1_555
C5 N1 1_555 1_555
H3 C5 1_555 1_555
C6 C2 1_555 1_555
C7 C4 1_555 1_555
O5 Cu1 1_555 1_555
H4 O5 1_555 1_555
H5 O5 1_555 1_555
O6 Cu1 1_555 1_555
H6 O6 1_555 1_555
H7 O6 1_555 1_555
O7 Cu2 1_555 1_555
H8 O7 1_555 1_555
H9 O7 1_555 1_555
O8 Cu2 1_555 1_555
H10 O8 1_555 1_555
H11 O8 1_555 1_555
O9 H12 1_555 1_555
H13 O9 1_555 1_555
Cu1_2 N1B_2 1_555 1_555
O1B Cu2 1_555 1_555
O2B C6B 1_555 1_555
O3B C7B 1_555 1_555
O4B C7B 1_555 1_555
N1B Cu1 1_555 1_555
N1B_2 C1B 1_555 1_555
C1B H1B 1_555 1_555
C2B C1B 1_555 1_555
C3B C2B 1_555 1_555
H2B C3B 1_555 1_555
C4B C3B 1_555 1_555
C5B N1B_2 1_555 1_555
H3B C5B 1_555 1_555
C6B O1B 1_555 1_555
C7B C4B 1_555 1_555
O5B Cu1 1_555 1_555
H4B O5B 1_555 1_555
H5B O5B 1_555 1_555
O6B Cu1 1_555 1_555
H6B O6B 1_555 1_555
H7B O6B 1_555 1_555
O7B Cu2 1_555 1_555
H8B O7B 1_555 1_555
H9B O7B 1_555 1_555
O8B Cu2 1_555 1_555
H10B O8B 1_555 1_555
H11B O8B 1_555 1_555
C4 C5 1_555 1_555
C2B C6B 1_555 1_555
C4B C5B 1_555 1_555

#END
