
#######################################################################
#
#                 Cambridge Crystallographic Data Centre
#                                CCDC 
#
#######################################################################
#
# If this CIF has been generated from an entry in the Cambridge 
# Structural Database, then it will include bibliographic, chemical, 
# crystal, experimental, refinement or atomic coordinate data resulting 
# from the CCDC's data processing and validation procedures.
#
#######################################################################

data_NUVXOS
_symmetry_cell_setting           triclinic
_symmetry_space_group_name_H-M   'P -1'
_symmetry_Int_Tables_number      2
_space_group_name_Hall           '-P 1'
loop_
_symmetry_equiv_pos_site_id
_symmetry_equiv_pos_as_xyz
1 x,y,z
2 -x,-y,-z
_cell_length_a                   3.8822(8)
_cell_length_b                   8.0900(17)
_cell_length_c                   10.318(2)
_cell_angle_alpha                96.751(4)
_cell_angle_beta                 91.577(4)
_cell_angle_gamma                93.729(4)
_cell_volume                     320.927
loop_
_atom_site_label
_atom_site_type_symbol
_atom_site_fract_x
_atom_site_fract_y
_atom_site_fract_z
Cu1 Cu 0.1436(2) 0.60477(13) 0.89183(9)
Cu2 Cu -0.4039(3) 0.93090(15) 0.87377(11)
S1 S -0.3153(4) 0.7218(2) 0.98338(15)
Cl1 Cl 0.0249(5) 0.7781(3) 0.70882(16)
N1 N -0.5304(14) 0.8681(8) 1.2098(5)
N2 N -0.2802(14) 0.6070(7) 1.2110(5)
C1 C -0.3810(16) 0.7339(8) 1.1514(6)
C2 C -0.3461(19) 0.6132(9) 1.3402(6)
H1 H -0.2861 0.5257 1.3854
C3 C -0.498(2) 0.7448(10) 1.4054(7)
H2 H -0.5400 0.7486 1.4940
C4 C -0.5871(19) 0.8697(10) 1.3367(7)
H3 H -0.6913 0.9598 1.3798
Cu1_2 Cu -0.8564(2) 0.60477(13) 0.89183(9)
Cu1A Cu -0.1436(2) 0.39523(13) 1.10817(9)
Cu2_2 Cu 0.5961(3) 0.93090(15) 0.87377(11)
Cu2A Cu -0.5961(3) 1.06910(15) 1.12623(11)
S1_2 S 0.6847(4) 0.7218(2) 0.98338(15)
Cl1_2 Cl -0.9751(5) 0.7781(3) 0.70882(16)
N1A N -0.4696(14) 1.1319(8) 0.7902(5)
N2A N 0.2802(14) 0.3930(7) 0.7890(5)
loop_
_geom_bond_atom_site_label_1
_geom_bond_atom_site_label_2
_geom_bond_site_symmetry_1
_geom_bond_site_symmetry_2
Cu1 S1 1_555 1_555
Cu2 S1 1_555 1_555
S1 C1 1_555 1_555
Cl1 Cu1 1_555 1_555
N1 C1 1_555 1_555
N2 C1 1_555 1_555
C2 N2 1_555 1_555
H1 C2 1_555 1_555
C3 C2 1_555 1_555
H2 C3 1_555 1_555
C4 N1 1_555 1_555
H3 C4 1_555 1_555
Cu1_2 S1 1_555 1_555
Cu1A N2 1_555 1_555
Cu2_2 Cl1 1_555 1_555
Cu2A N1 1_555 1_555
S1_2 Cu1 1_555 1_555
Cl1_2 Cu2 1_555 1_555
N1A Cu2 1_555 1_555
N2A Cu1 1_555 1_555
Cu2 Cl1 1_555 1_555
C3 C4 1_555 1_555
Cu1_2 Cl1_2 1_555 1_555
Cu2_2 S1_2 1_555 1_555

#END
