
#######################################################################
#
#                 Cambridge Crystallographic Data Centre
#                                CCDC 
#
#######################################################################
#
# If this CIF has been generated from an entry in the Cambridge 
# Structural Database, then it will include bibliographic, chemical, 
# crystal, experimental, refinement or atomic coordinate data resulting 
# from the CCDC's data processing and validation procedures.
#
#######################################################################

data_NUVXOT
_symmetry_cell_setting           cubic
_symmetry_space_group_name_H-M   'P a -3'
_symmetry_Int_Tables_number      205
_space_group_name_Hall           '-P 2ac 2ab 3'
loop_
_symmetry_equiv_pos_site_id
_symmetry_equiv_pos_as_xyz
1 x,y,z
2 1/2-x,-y,1/2+z
3 -x,1/2+y,1/2-z
4 1/2+x,1/2-y,-z
5 z,x,y
6 1/2+z,1/2-x,-y
7 1/2-z,-x,1/2+y
8 -z,1/2+x,1/2-y
9 y,z,x
10 -y,1/2+z,1/2-x
11 1/2+y,1/2-z,-x
12 1/2-y,-z,1/2+x
13 -x,-y,-z
14 1/2+x,y,1/2-z
15 x,1/2-y,1/2+z
16 1/2-x,1/2+y,z
17 -z,-x,-y
18 1/2-z,1/2+x,y
19 1/2+z,x,1/2-y
20 z,1/2-x,1/2+y
21 -y,-z,-x
22 y,1/2-z,1/2+x
23 1/2-y,1/2+z,x
24 1/2+y,z,1/2-x
_cell_length_a                   20.123(2)
_cell_length_b                   20.123(2)
_cell_length_c                   20.123(2)
_cell_angle_alpha                90
_cell_angle_beta                 90
_cell_angle_gamma                90
_cell_volume                     8148.51
loop_
_atom_site_label
_atom_site_type_symbol
_atom_site_fract_x
_atom_site_fract_y
_atom_site_fract_z
Zn1 Zn 0.35581(3) 0.25061(3) 0.23074(3)
O1 O 0.30003(18) 0.30003(18) 0.30003(18)
O2 O 0.4467(2) 0.2827(3) 0.2423(3)
O3 O 0.4532(3) 0.2072(3) 0.1638(3)
C1 C 0.4796(3) 0.2500(4) 0.1993(4)
C2 C 0.5999(3) 0.2318(3) 0.1578(3)
H1 H 0.5918 0.1973 0.1281
C3 C 0.5513(3) 0.2634(3) 0.1958(4)
C4 C 0.5872(3) 0.3100(4) 0.2319(3)
H2 H 0.5690 0.3391 0.2628
N1 N 0.6510(2) 0.3070(3) 0.2161(3)
N2 N 0.6590(2) 0.2576(3) 0.1698(3)
Zn1D Zn 0.23074(3) 0.35581(3) 0.25061(3)
O2D O 0.2423(3) 0.4467(2) 0.2827(3)
O3D O 0.1638(3) 0.4532(3) 0.2072(3)
C1D C 0.1993(4) 0.4796(3) 0.2500(4)
C2D C 0.1578(3) 0.5999(3) 0.2318(3)
H1D H 0.1281 0.5918 0.1973
C3D C 0.1958(4) 0.5513(3) 0.2634(3)
C4D C 0.2319(3) 0.5872(3) 0.3100(4)
H2D H 0.2628 0.5690 0.3391
N1D N 0.2161(3) 0.6510(2) 0.3070(3)
N2D N 0.1698(3) 0.6590(2) 0.2576(3)
Zn1H Zn 0.25061(3) 0.23074(3) 0.35581(3)
O2H O 0.2827(3) 0.2423(3) 0.4467(2)
O3H O 0.2072(3) 0.1638(3) 0.4532(3)
C1H C 0.2500(4) 0.1993(4) 0.4796(3)
C2H C 0.2318(3) 0.1578(3) 0.5999(3)
H1H H 0.1973 0.1281 0.5918
C3H C 0.2634(3) 0.1958(4) 0.5513(3)
C4H C 0.3100(4) 0.2319(3) 0.5872(3)
H2H H 0.3391 0.2628 0.5690
N1H N 0.3070(3) 0.2161(3) 0.6510(2)
N2H N 0.2576(3) 0.1698(3) 0.6590(2)
Zn1N Zn 0.35581(3) 0.24939(3) 0.73074(3)
Zn1O Zn 0.14419(3) 0.75061(3) 0.23074(3)
Zn1R Zn 0.73074(3) 0.35581(3) 0.24939(3)
Zn1S Zn 0.23074(3) 0.14419(3) 0.75061(3)
Zn1V Zn 0.24939(3) 0.73074(3) 0.35581(3)
Zn1W Zn 0.75061(3) 0.23074(3) 0.14419(3)
N1M N 0.1510(2) 0.3070(3) 0.2839(3)
N1Q N 0.2839(3) 0.1510(2) 0.3070(3)
N1U N 0.3070(3) 0.2839(3) 0.1510(2)
N2M N 0.1590(2) 0.2576(3) 0.3302(3)
N2Q N 0.3302(3) 0.1590(2) 0.2576(3)
N2U N 0.2576(3) 0.3302(3) 0.1590(2)
O4 O 0.5057(9) 0.1850(8) -0.0377(9)
O5 O 0.3760(8) 0.3760(8) 0.3760(8)
O6 O 0.4790(14) 0.1534(13) 0.0629(14)
loop_
_geom_bond_atom_site_label_1
_geom_bond_atom_site_label_2
_geom_bond_site_symmetry_1
_geom_bond_site_symmetry_2
Zn1 O1 1_555 1_555
O1 Zn1D 1_555 1_555
O2 Zn1 1_555 1_555
O3 Zn1 1_555 1_555
C1 O2 1_555 1_555
C2 H1 1_555 1_555
C3 C1 1_555 1_555
C4 C3 1_555 1_555
H2 C4 1_555 1_555
N1 C4 1_555 1_555
N2 C2 1_555 1_555
Zn1D O2D 1_555 1_555
O2D C1D 1_555 1_555
O3D Zn1D 1_555 1_555
C1D O3D 1_555 1_555
C2D H1D 1_555 1_555
C3D C1D 1_555 1_555
C4D C3D 1_555 1_555
H2D C4D 1_555 1_555
N1D C4D 1_555 1_555
N2D C2D 1_555 1_555
Zn1H O1 1_555 1_555
O2H Zn1H 1_555 1_555
O3H Zn1H 1_555 1_555
C1H O2H 1_555 1_555
C2H H1H 1_555 1_555
C3H C1H 1_555 1_555
C4H C3H 1_555 1_555
H2H C4H 1_555 1_555
N1H C4H 1_555 1_555
N2H C2H 1_555 1_555
Zn1N N1H 1_555 1_555
Zn1O N2D 1_555 1_555
Zn1R N1 1_555 1_555
Zn1S N2H 1_555 1_555
Zn1V N1D 1_555 1_555
Zn1W N2 1_555 1_555
N1M Zn1D 1_555 1_555
N1Q Zn1H 1_555 1_555
N1U Zn1 1_555 1_555
N2M Zn1H 1_555 1_555
N2Q Zn1 1_555 1_555
N2U Zn1D 1_555 1_555
O3 C1 1_555 1_555
C2 C3 1_555 1_555
N1 N2 1_555 1_555
C2D C3D 1_555 1_555
N1D N2D 1_555 1_555
O3H C1H 1_555 1_555
C2H C3H 1_555 1_555
N1H N2H 1_555 1_555
N1M N2M 1_555 1_555
N1Q N2Q 1_555 1_555
N1U N2U 1_555 1_555

#END
