
#######################################################################
#
#                 Cambridge Crystallographic Data Centre
#                                CCDC 
#
#######################################################################
#
# If this CIF has been generated from an entry in the Cambridge 
# Structural Database, then it will include bibliographic, chemical, 
# crystal, experimental, refinement or atomic coordinate data resulting 
# from the CCDC's data processing and validation procedures.
#
#######################################################################

data_NUVYAF
_symmetry_cell_setting           monoclinic
_symmetry_space_group_name_H-M   'P 21/n'
_symmetry_Int_Tables_number      14
_space_group_name_Hall           '-P 2yn'
loop_
_symmetry_equiv_pos_site_id
_symmetry_equiv_pos_as_xyz
1 x,y,z
2 1/2-x,1/2+y,1/2-z
3 -x,-y,-z
4 1/2+x,1/2-y,1/2+z
_cell_length_a                   10.4687(16)
_cell_length_b                   7.7318(12)
_cell_length_c                   15.289(2)
_cell_angle_alpha                90
_cell_angle_beta                 95.702(3)
_cell_angle_gamma                90
_cell_volume                     1231.4
loop_
_atom_site_label
_atom_site_type_symbol
_atom_site_fract_x
_atom_site_fract_y
_atom_site_fract_z
I1 I 0.46578(5) 0.23069(7) 0.40480(4)
Cu1 Cu 0.70043(10) 0.25959(13) 0.36198(6)
Cu2 Cu 0.86175(10) -0.04336(13) 0.35605(7)
Cu3 Cu 0.63207(9) -0.03640(13) 0.43226(7)
S1 S 0.83087(17) 0.0003(2) 0.49777(12)
S2 S 0.73388(17) 0.2314(2) 0.22271(12)
N1 N 0.8021(5) 0.3407(8) 0.4709(4)
N2 N 0.9368(6) 0.2527(8) 0.5977(4)
N3 N 0.9616(5) 0.1017(7) 0.2760(4)
N4 N 0.9556(6) 0.2927(8) 0.1534(4)
C1 C 0.8986(6) 0.2101(8) 0.2169(4)
C2 C 1.0807(7) 0.2698(10) 0.1531(6)
H1 H 1.1222 0.3242 0.1096
C3 C 1.1523(7) 0.1699(11) 0.2137(5)
H2 H 1.2409 0.1614 0.2140
C4 C 1.0882(7) 0.0840(9) 0.2732(5)
H3 H 1.1336 0.0107 0.3133
C5 C 0.8601(7) 0.2156(9) 0.5233(5)
C6 C 0.8143(7) 0.5070(10) 0.4973(6)
H4 H 0.7748 0.5945 0.4627
C7 C 0.8862(7) 0.5482(10) 0.5765(5)
H5 H 0.8912 0.6614 0.5971
C8 C 0.9486(7) 0.4173(9) 0.6225(5)
H6 H 1.0014 0.4440 0.6732
Cu2A Cu 0.63825(10) 0.45664(13) 0.14395(7)
Cu3A Cu 0.86793(9) 0.46360(13) 0.06774(7)
S2A S 0.76612(17) -0.2686(2) 0.27729(12)
N4A N 0.5444(6) -0.2073(8) 0.3466(4)
loop_
_geom_bond_atom_site_label_1
_geom_bond_atom_site_label_2
_geom_bond_site_symmetry_1
_geom_bond_site_symmetry_2
I1 Cu1 1_555 1_555
Cu1 S2 1_555 1_555
Cu2 S1 1_555 1_555
Cu3 I1 1_555 1_555
S1 Cu3 1_555 1_555
S2 C1 1_555 1_555
N1 Cu1 1_555 1_555
N2 C5 1_555 1_555
N3 Cu2 1_555 1_555
N4 C1 1_555 1_555
C1 N3 1_555 1_555
C2 N4 1_555 1_555
H1 C2 1_555 1_555
C3 C2 1_555 1_555
H2 C3 1_555 1_555
C4 N3 1_555 1_555
H3 C4 1_555 1_555
C5 S1 1_555 1_555
C6 N1 1_555 1_555
H4 C6 1_555 1_555
C7 C6 1_555 1_555
H5 C7 1_555 1_555
C8 N2 1_555 1_555
H6 C8 1_555 1_555
Cu2A S2 1_555 1_555
Cu3A N4 1_555 1_555
S2A Cu2 1_555 1_555
N4A Cu3 1_555 1_555
N1 C5 1_555 1_555
C3 C4 1_555 1_555
C7 C8 1_555 1_555

#END
