
#######################################################################
#
#                 Cambridge Crystallographic Data Centre
#                                CCDC 
#
#######################################################################
#
# If this CIF has been generated from an entry in the Cambridge 
# Structural Database, then it will include bibliographic, chemical, 
# crystal, experimental, refinement or atomic coordinate data resulting 
# from the CCDC's data processing and validation procedures.
#
#######################################################################

data_NUVYOT
_symmetry_cell_setting           monoclinic
_symmetry_space_group_name_H-M   'C c'
_symmetry_Int_Tables_number      9
_space_group_name_Hall           'C -2yc'
loop_
_symmetry_equiv_pos_site_id
_symmetry_equiv_pos_as_xyz
1 x,y,z
2 x,-y,1/2+z
3 1/2+x,1/2+y,z
4 1/2+x,1/2-y,1/2+z
_cell_length_a                   11.336(3)
_cell_length_b                   19.518(6)
_cell_length_c                   27.059(8)
_cell_angle_alpha                90
_cell_angle_beta                 98.092(5)
_cell_angle_gamma                90
_cell_volume                     5927.36
loop_
_atom_site_label
_atom_site_type_symbol
_atom_site_fract_x
_atom_site_fract_y
_atom_site_fract_z
C1 C 0.3387(9) 1.0911(6) 0.3357(4)
C2 C 0.2280(10) 0.9561(5) 0.3031(4)
C3 C 0.3171(8) 1.0718(5) 0.2822(4)
C4 C 0.3459(11) 1.1177(6) 0.2451(4)
H1 H 0.3812 1.1595 0.2547
C5 C 0.3235(13) 1.1021(6) 0.1976(4)
H2 H 0.3438 1.1334 0.1743
C6 C 0.2709(12) 1.0408(6) 0.1810(4)
H3 H 0.2562 1.0304 0.1471
C7 C 0.2409(10) 0.9957(5) 0.2165(4)
C8 C 0.2644(8) 1.0092(5) 0.2672(4)
C9 C 0.0963(9) 0.9302(5) 0.1626(4)
C10 C -0.0167(14) 0.9405(7) 0.1737(6)
H4 H -0.0294 0.9508 0.2061
C11 C -0.1111(14) 0.9353(8) 0.1356(6)
H5 H -0.1883 0.9414 0.1428
C12 C -0.0941(13) 0.9216(8) 0.0888(7)
H6 H -0.1587 0.9173 0.0636
C13 C 0.0246(10) 0.9137(6) 0.0779(5)
H7 H 0.0381 0.9068 0.0452
C14 C 0.1187(11) 0.9164(6) 0.1155(4)
C15 C 0.2426(9) 0.9071(5) 0.1019(4)
C16 C 0.4648(11) 1.2951(5) 0.5180(4)
C17 C 0.4221(11) 1.3547(6) 0.4926(4)
C18 C 0.4755(16) 1.4177(7) 0.5088(6)
H8 H 0.4486 1.4581 0.4926
C19 C 0.5626(16) 1.4200(6) 0.5462(5)
H9 H 0.5968 1.4623 0.5554
C20 C 0.6053(12) 1.3632(6) 0.5724(5)
H10 H 0.6673 1.3658 0.5988
C21 C 0.5505(9) 1.3010(5) 0.5574(4)
C22 C 0.4114(9) 1.2242(5) 0.5013(4)
C23 C 0.3227(13) 1.3554(6) 0.4487(4)
C24 C 0.7062(9) 1.2377(5) 0.6109(4)
C25 C 0.7956(11) 1.2498(7) 0.5821(5)
H11 H 0.7771 1.2593 0.5482
C26 C 0.9128(10) 1.2474(6) 0.6045(6)
H12 H 0.9744 1.2549 0.5858
C27 C 0.9377(9) 1.2338(6) 0.6549(5)
H13 H 1.0162 1.2334 0.6705
C28 C 0.8474(9) 1.2209(5) 0.6814(4)
H14 H 0.8658 1.2098 0.7150
C29 C 0.7289(8) 1.2235(5) 0.6605(4)
C30 C 0.6380(8) 1.2100(4) 0.6936(4)
C31 C 0.1147(11) 1.0649(6) 0.4150(5)
H15 H 0.1538 1.0250 0.4079
C32 C -0.0038(10) 1.0616(6) 0.4157(5)
H16 H -0.0435 1.0202 0.4087
C33 C -0.0678(9) 1.1192(6) 0.4266(4)
C34 C -0.0020(11) 1.1769(6) 0.4360(6)
H17 H -0.0402 1.2171 0.4434
C35 C 0.1219(10) 1.1784(6) 0.4350(5)
H18 H 0.1636 1.2191 0.4420
C36 C -0.3871(11) 1.1767(6) 0.4240(5)
H19 H -0.4296 1.2176 0.4216
C37 C -0.2615(12) 1.1786(6) 0.4250(6)
H20 H -0.2229 1.2205 0.4238
C38 C -0.1971(9) 1.1189(6) 0.4277(4)
C39 C -0.2623(10) 1.0569(6) 0.4287(4)
H21 H -0.2246 1.0146 0.4293
C40 C -0.3814(10) 1.0619(6) 0.4287(5)
H22 H -0.4229 1.0211 0.4305
C41 C 0.5437(10) 1.3242(6) 0.7889(5)
H23 H 0.6236 1.3246 0.7846
C42 C 0.4847(10) 1.3862(5) 0.7872(5)
H24 H 0.5245 1.4266 0.7817
C43 C 0.3675(10) 1.3879(5) 0.7935(4)
C44 C 0.3117(10) 1.3248(5) 0.8013(5)
H25 H 0.2310 1.3227 0.8042
C45 C 0.3826(11) 1.2652(6) 0.8044(5)
H26 H 0.3482 1.2242 0.8125
C46 C 0.2946(11) 1.5753(6) 0.7939(4)
H27 H 0.3360 1.6162 0.7926
C47 C 0.3574(9) 1.5135(5) 0.7926(5)
H28 H 0.4388 1.5141 0.7912
C48 C 0.2994(10) 1.4533(5) 0.7935(4)
C49 C 0.1780(10) 1.4541(6) 0.7954(5)
H29 H 0.1343 1.4137 0.7950
C50 C 0.1216(10) 1.5205(6) 0.7982(5)
H30 H 0.0407 1.5218 0.8009
C51 C 0.3630(12) 1.3227(6) 0.6476(5)
H31 H 0.4271 1.3150 0.6725
C52 C 0.3006(13) 1.3825(7) 0.6501(5)
H32 H 0.3231 1.4141 0.6754
C53 C 0.2043(11) 1.3945(6) 0.6144(4)
C54 C 0.1787(10) 1.3447(5) 0.5776(5)
H33 H 0.1161 1.3515 0.5520
C55 C 0.2433(10) 1.2871(6) 0.5787(4)
H34 H 0.2211 1.2536 0.5548
C56 C 0.0479(11) 1.5523(5) 0.6500(4)
H35 H 0.0185 1.5693 0.6780
C57 C 0.0970(10) 1.4875(5) 0.6522(5)
H36 H 0.1002 1.4618 0.6813
C58 C 0.1415(11) 1.4607(6) 0.6115(5)
C59 C 0.1285(10) 1.4995(5) 0.5685(4)
H37 H 0.1539 1.4826 0.5396
C60 C 0.0768(9) 1.5646(5) 0.5688(4)
H38 H 0.0671 1.5901 0.5395
N1 N 0.1802(7) 1.1224(5) 0.4241(4)
N2 N -0.4444(8) 1.1187(5) 0.4264(4)
N3 N 0.4941(8) 1.2639(4) 0.7965(4)
N4 N 0.1779(8) 1.5780(4) 0.7970(4)
N5 N 0.3400(8) 1.2757(4) 0.6134(4)
N6 N 0.0409(8) 1.5915(5) 0.6092(3)
O1 O 0.3471(7) 1.1539(4) 0.3483(3)
O2 O 0.3495(6) 1.0466(4) 0.3688(2)
O3 O 0.1316(7) 0.9658(4) 0.3193(3)
O4 O 0.2969(8) 0.9052(4) 0.3134(3)
O5 O 0.1898(8) 0.9320(4) 0.2031(3)
O6 O 0.3050(6) 0.8639(4) 0.1285(3)
O7 O 0.2687(8) 0.9378(4) 0.0661(4)
O8 O 0.3488(9) 1.3724(4) 0.4077(3)
O9 O 0.2211(9) 1.3402(6) 0.4576(4)
O10 O 0.3883(6) 1.2147(4) 0.4555(3)
O11 O 0.4003(6) 1.1816(3) 0.5335(3)
O12 O 0.5874(6) 1.2417(4) 0.5860(3)
O13 O 0.5258(6) 1.2041(4) 0.6772(3)
O14 O 0.6757(6) 1.2041(4) 0.7400(3)
O15 O 0.3782(7) 1.0526(4) 0.4820(3)
H39 H 0.4077 1.0347 0.5097
H40 H 0.3225 1.0265 0.4687
O16 O 0.7384(8) 1.2137(4) 0.8415(3)
H41 H 0.6977 1.2076 0.8653
H42 H 0.7773 1.2508 0.8473
O17 O 0.5373(13) 1.1460(6) 0.8650(4)
H43 H 0.4721 1.1276 0.8519
H44 H 0.5669 1.1234 0.8904
O18 O 0.4479(7) 1.1279(3) 0.7540(3)
H45 H 0.4016 1.1274 0.7767
H46 H 0.4432 1.1644 0.7388
Ni1 Ni 0.36610(10) 1.12136(6) 0.42468(5)
Ni2 Ni 0.44457(10) 1.18496(6) 0.60804(5)
Ni3 Ni 0.59157(11) 1.17272(6) 0.79743(5)
N2_2 N 0.5556(8) 1.1187(5) 0.4264(4)
N4B N 0.6779(8) 1.0780(4) 0.7970(4)
N6B N 0.5409(8) 1.0915(5) 0.6092(3)
O6A O 0.3050(6) 1.1361(4) 0.6285(3)
Ni1_2 Ni -0.63390(10) 1.12136(6) 0.42468(5)
Ni2B Ni -0.05543(10) 1.68496(6) 0.60804(5)
Ni2A Ni 0.44457(10) 0.81504(6) 0.10804(5)
Ni3B Ni 0.09157(11) 1.67272(6) 0.79743(5)
O19 O 0.5726(15) 0.6370(7) -0.1159(6)
H47 H 0.5325 0.6373 -0.1454
H48 H 0.5999 0.5967 -0.1096
O20 O 0.0377(19) 0.7550(13) 0.3104(9)
loop_
_geom_bond_atom_site_label_1
_geom_bond_atom_site_label_2
_geom_bond_site_symmetry_1
_geom_bond_site_symmetry_2
C1 C3 1_555 1_555
C2 C8 1_555 1_555
C3 C4 1_555 1_555
C4 H1 1_555 1_555
C5 C4 1_555 1_555
H2 C5 1_555 1_555
C6 C5 1_555 1_555
H3 C6 1_555 1_555
C7 C6 1_555 1_555
C8 C3 1_555 1_555
C9 C10 1_555 1_555
C10 H4 1_555 1_555
C11 C10 1_555 1_555
H5 C11 1_555 1_555
C12 C11 1_555 1_555
H6 C12 1_555 1_555
C13 C12 1_555 1_555
H7 C13 1_555 1_555
C14 C9 1_555 1_555
C15 C14 1_555 1_555
C16 C17 1_555 1_555
C17 C18 1_555 1_555
C18 H8 1_555 1_555
C19 C18 1_555 1_555
H9 C19 1_555 1_555
C20 C19 1_555 1_555
H10 C20 1_555 1_555
C21 C16 1_555 1_555
C22 C16 1_555 1_555
C23 C17 1_555 1_555
C24 C25 1_555 1_555
C25 H11 1_555 1_555
C26 C25 1_555 1_555
H12 C26 1_555 1_555
C27 C26 1_555 1_555
H13 C27 1_555 1_555
C28 C27 1_555 1_555
H14 C28 1_555 1_555
C29 C24 1_555 1_555
C30 C29 1_555 1_555
C31 H15 1_555 1_555
C32 C31 1_555 1_555
H16 C32 1_555 1_555
C33 C32 1_555 1_555
C34 C33 1_555 1_555
H17 C34 1_555 1_555
C35 C34 1_555 1_555
H18 C35 1_555 1_555
C36 H19 1_555 1_555
C37 C36 1_555 1_555
H20 C37 1_555 1_555
C38 C33 1_555 1_555
C39 C38 1_555 1_555
H21 C39 1_555 1_555
C40 C39 1_555 1_555
H22 C40 1_555 1_555
C41 H23 1_555 1_555
C42 C41 1_555 1_555
H24 C42 1_555 1_555
C43 C42 1_555 1_555
C44 C43 1_555 1_555
H25 C44 1_555 1_555
C45 C44 1_555 1_555
H26 C45 1_555 1_555
C46 H27 1_555 1_555
C47 C46 1_555 1_555
H28 C47 1_555 1_555
C48 C43 1_555 1_555
C49 C48 1_555 1_555
H29 C49 1_555 1_555
C50 C49 1_555 1_555
H30 C50 1_555 1_555
C51 H31 1_555 1_555
C52 C51 1_555 1_555
H32 C52 1_555 1_555
C53 C52 1_555 1_555
C54 C53 1_555 1_555
H33 C54 1_555 1_555
C55 C54 1_555 1_555
H34 C55 1_555 1_555
C56 H35 1_555 1_555
C57 C56 1_555 1_555
H36 C57 1_555 1_555
C58 C53 1_555 1_555
C59 C58 1_555 1_555
H37 C59 1_555 1_555
C60 C59 1_555 1_555
H38 C60 1_555 1_555
N1 C31 1_555 1_555
N2 C36 1_555 1_555
N3 C41 1_555 1_555
N4 C46 1_555 1_555
N5 C51 1_555 1_555
N6 C56 1_555 1_555
O1 C1 1_555 1_555
O2 C1 1_555 1_555
O3 C2 1_555 1_555
O4 C2 1_555 1_555
O5 C7 1_555 1_555
O6 C15 1_555 1_555
O7 C15 1_555 1_555
O8 C23 1_555 1_555
O9 C23 1_555 1_555
O10 C22 1_555 1_555
O11 C22 1_555 1_555
O12 C21 1_555 1_555
O13 C30 1_555 1_555
O14 C30 1_555 1_555
O15 H39 1_555 1_555
H40 O15 1_555 1_555
O16 H41 1_555 1_555
H42 O16 1_555 1_555
O17 H43 1_555 1_555
H44 O17 1_555 1_555
O18 H45 1_555 1_555
H46 O18 1_555 1_555
O19 H47 1_555 1_555
H48 O19 1_555 1_555
Ni1 N1 1_555 1_555
Ni2 N5 1_555 1_555
Ni3 N3 1_555 1_555
N2_2 Ni1 1_555 1_555
N4B Ni3 1_555 1_555
N6B Ni2 1_555 1_555
O6A Ni2 1_555 1_555
Ni1_2 N2 1_555 1_555
Ni2B N6 1_555 1_555
Ni2A O6 1_555 1_555
Ni3B N4 1_555 1_555
C7 C8 1_555 1_555
C9 O5 1_555 1_555
C13 C14 1_555 1_555
C20 C21 1_555 1_555
C24 O12 1_555 1_555
C28 C29 1_555 1_555
C35 N1 1_555 1_555
C37 C38 1_555 1_555
C40 N2 1_555 1_555
C45 N3 1_555 1_555
C47 C48 1_555 1_555
C50 N4 1_555 1_555
C55 N5 1_555 1_555
C57 C58 1_555 1_555
C60 N6 1_555 1_555
O1 Ni1 1_555 1_555
O2 Ni1 1_555 1_555
O10 Ni1 1_555 1_555
O11 Ni2 1_555 1_555
O12 Ni2 1_555 1_555
O13 Ni2 1_555 1_555
O14 Ni3 1_555 1_555
O15 Ni1 1_555 1_555
O16 Ni3 1_555 1_555
O17 Ni3 1_555 1_555
O18 Ni3 1_555 1_555

#END
