
#######################################################################
#
#                 Cambridge Crystallographic Data Centre
#                                CCDC 
#
#######################################################################
#
# If this CIF has been generated from an entry in the Cambridge 
# Structural Database, then it will include bibliographic, chemical, 
# crystal, experimental, refinement or atomic coordinate data resulting 
# from the CCDC's data processing and validation procedures.
#
#######################################################################

data_NUVYUZ
_symmetry_cell_setting           monoclinic
_symmetry_space_group_name_H-M   'P 21/c'
_symmetry_Int_Tables_number      14
_space_group_name_Hall           '-P 2ybc'
loop_
_symmetry_equiv_pos_site_id
_symmetry_equiv_pos_as_xyz
1 x,y,z
2 -x,1/2+y,1/2-z
3 -x,-y,-z
4 x,1/2-y,1/2+z
_cell_length_a                   9.990(3)
_cell_length_b                   22.497(7)
_cell_length_c                   14.764(5)
_cell_angle_alpha                90
_cell_angle_beta                 100.521(5)
_cell_angle_gamma                90
_cell_volume                     3262.35
loop_
_atom_site_label
_atom_site_type_symbol
_atom_site_fract_x
_atom_site_fract_y
_atom_site_fract_z
C1 C -0.2193(3) 0.43675(16) 0.3682(2)
C2 C -0.4887(3) 0.37308(14) 0.36245(19)
C3 C -0.3311(3) 0.43800(15) 0.2836(2)
C4 C -0.3105(3) 0.46992(17) 0.2070(2)
H1 H -0.2317 0.4925 0.2101
C5 C -0.4045(4) 0.46872(19) 0.1269(2)
H2 H -0.3889 0.4903 0.0761
C6 C -0.5215(3) 0.43583(17) 0.1212(2)
H3 H -0.5853 0.4349 0.0668
C7 C -0.5431(3) 0.40434(15) 0.1971(2)
C8 C -0.4506(3) 0.40497(14) 0.27957(19)
C9 C -0.7763(3) 0.38419(16) 0.1395(2)
C10 C -0.8415(4) 0.4353(2) 0.1595(3)
H4 H -0.7996 0.4608 0.2057
C11 C -0.9692(4) 0.4482(2) 0.1104(3)
H5 H -1.0126 0.4833 0.1218
C12 C -1.0324(4) 0.4091(2) 0.0447(3)
H6 H -1.1200 0.4171 0.0133
C13 C -0.9668(3) 0.3581(2) 0.0249(3)
H7 H -1.0105 0.3320 -0.0197
C14 C -0.8352(3) 0.34540(16) 0.0714(2)
C15 C -0.7630(3) 0.29124(16) 0.04620(19)
C16 C -0.0665(3) 0.45035(16) 0.6764(2)
H8 H 0.0279 0.4492 0.6925
C17 C -0.1412(3) 0.42433(16) 0.7348(2)
H9 H -0.0978 0.4067 0.7893
C18 C -0.2820(3) 0.42462(15) 0.7118(2)
C19 C -0.3394(3) 0.45416(19) 0.6326(2)
H10 H -0.4336 0.4565 0.6154
C20 C -0.2567(3) 0.48029(19) 0.5791(2)
H11 H -0.2975 0.5013 0.5271
C21 C -0.4334(3) 0.35944(15) 0.9053(2)
H12 H -0.4380 0.3676 0.9664
C22 C -0.3662(3) 0.39944(16) 0.8583(2)
H13 H -0.3243 0.4330 0.8876
C23 C -0.3630(3) 0.38820(14) 0.76587(19)
C24 C -0.4296(3) 0.33919(15) 0.7268(2)
H14 H -0.4341 0.3316 0.6644
C25 C -0.4901(3) 0.30097(15) 0.7792(2)
H15 H -0.5320 0.2670 0.7515
C26 C -1.2623(3) 0.27719(17) 0.5265(2)
H16 H -1.2671 0.2998 0.4732
C27 C -1.1404(3) 0.27424(18) 0.5871(2)
H17 H -1.0648 0.2946 0.5745
C28 C -1.1303(3) 0.24077(15) 0.6674(2)
C29 C -1.2452(3) 0.21089(16) 0.6811(2)
H18 H -1.2427 0.1876 0.7334
C30 C -1.3632(3) 0.21558(16) 0.6175(2)
H19 H -1.4393 0.1947 0.6278
C31 C -0.7999(3) 0.28677(16) 0.8126(2)
H20 H -0.7500 0.3216 0.8254
C32 C -0.9222(3) 0.28941(16) 0.7519(2)
H21 H -0.9516 0.3251 0.7232
C33 C -1.0008(3) 0.23887(15) 0.7341(2)
C34 C -0.9509(3) 0.18787(16) 0.7793(2)
H22 H -1.0018 0.1530 0.7715
C35 C -0.8252(3) 0.18851(16) 0.8364(2)
H23 H -0.7917 0.1530 0.8639
N1 N -0.1211(2) 0.47711(13) 0.59786(17)
N2 N -0.4915(2) 0.31026(12) 0.86825(15)
N3 N -1.3742(2) 0.24891(12) 0.54105(16)
N4 N -0.7496(2) 0.23690(12) 0.85401(16)
O1 O -0.1629(2) 0.48610(10) 0.39295(14)
O2 O -0.1875(2) 0.38809(12) 0.40443(17)
O3 O -0.5326(3) 0.40547(11) 0.41853(16)
O4 O -0.4788(2) 0.31764(9) 0.36415(13)
O5 O -0.6545(2) 0.36774(11) 0.19449(14)
O6 O -0.65149(19) 0.30187(11) 0.01968(14)
O7 O -0.8178(2) 0.24220(12) 0.04941(18)
O8 O -0.6112(2) 0.17314(10) 1.02821(14)
H24 H -0.6040 0.1437 0.9941
H25 H -0.6927 0.1823 1.0281
O9 O -0.0614(2) 0.58773(11) 0.50737(15)
H26 H -0.1071 0.6041 0.4603
H27 H 0.0189 0.6016 0.5185
Ni1 Ni 0.0000 0.5000 0.5000
Ni2 Ni -0.55900(3) 0.241960(18) 0.94658(2)
C1B C 0.2193(3) 0.56325(16) 0.6318(2)
C2B C 0.4887(3) 0.62692(14) 0.63755(19)
C3B C 0.3311(3) 0.56200(15) 0.7164(2)
C4B C 0.3105(3) 0.53008(17) 0.7930(2)
H1B H 0.2317 0.5075 0.7899
C5B C 0.4045(4) 0.53128(19) 0.8731(2)
H2B H 0.3889 0.5097 0.9239
C6B C 0.5215(3) 0.56417(17) 0.8788(2)
H3B H 0.5853 0.5651 0.9332
C7B C 0.5431(3) 0.59566(15) 0.8029(2)
C8B C 0.4506(3) 0.59503(14) 0.72043(19)
C9B C 0.7763(3) 0.61581(16) 0.8605(2)
C10B C 0.8415(4) 0.5647(2) 0.8405(3)
H4B H 0.7996 0.5392 0.7943
C11B C 0.9692(4) 0.5518(2) 0.8896(3)
H5B H 1.0126 0.5167 0.8782
C12B C 1.0324(4) 0.5909(2) 0.9553(3)
H6B H 1.1200 0.5829 0.9867
C13B C 0.9668(3) 0.6419(2) 0.9751(3)
H7B H 1.0105 0.6680 1.0197
C14B C 0.8352(3) 0.65460(16) 0.9286(2)
C15B C 0.7630(3) 0.70876(16) 0.95380(19)
C16B C 0.0665(3) 0.54965(16) 0.3236(2)
H8B H -0.0279 0.5508 0.3075
C17B C 0.1412(3) 0.57567(16) 0.2652(2)
H9B H 0.0978 0.5933 0.2107
C18B C 0.2820(3) 0.57538(15) 0.2882(2)
C19B C 0.3394(3) 0.54584(19) 0.3674(2)
H10B H 0.4336 0.5435 0.3846
C20B C 0.2567(3) 0.51971(19) 0.4209(2)
H11B H 0.2975 0.4987 0.4729
C21B C 0.4334(3) 0.64056(15) 0.0947(2)
H12B H 0.4380 0.6324 0.0336
C22B C 0.3662(3) 0.60056(16) 0.1417(2)
H13B H 0.3243 0.5670 0.1124
C23B C 0.3630(3) 0.61180(14) 0.23413(19)
C24B C 0.4296(3) 0.66081(15) 0.2732(2)
H14B H 0.4341 0.6684 0.3356
C25B C 0.4901(3) 0.69903(15) 0.2208(2)
H15B H 0.5320 0.7330 0.2485
C26C C -0.2623(3) 0.22281(17) 1.0265(2)
H16C H -0.2671 0.2002 0.9732
C27C C -0.1404(3) 0.22576(18) 1.0871(2)
H17C H -0.0648 0.2054 1.0745
C28C C -0.1303(3) 0.25923(15) 1.1674(2)
C29C C -0.2452(3) 0.28911(16) 1.1811(2)
H18C H -0.2427 0.3124 1.2334
C30C C -0.3632(3) 0.28442(16) 1.1175(2)
H19C H -0.4393 0.3053 1.1278
C31C C 0.2001(3) 0.21323(16) 1.3126(2)
H20C H 0.2500 0.1784 1.3254
C32C C 0.0778(3) 0.21059(16) 1.2519(2)
H21C H 0.0484 0.1749 1.2232
C33C C -0.0008(3) 0.26113(15) 1.2341(2)
C34C C 0.0491(3) 0.31213(16) 1.2793(2)
H22C H -0.0018 0.3470 1.2715
C35C C 0.1748(3) 0.31149(16) 1.3364(2)
H23C H 0.2083 0.3470 1.3639
N1B N 0.1211(2) 0.52289(13) 0.40214(17)
N2B N 0.4915(2) 0.68974(12) 0.13175(15)
N3C N -0.3742(2) 0.25109(12) 1.04105(16)
N3A N 0.3742(2) 0.74891(12) -0.04105(16)
N4C N 0.2504(2) 0.26310(12) 1.35401(16)
N4B N 0.7496(2) 0.76310(12) 0.14599(16)
O1B O 0.1629(2) 0.51390(10) 0.60705(14)
O2B O 0.1875(2) 0.61191(12) 0.59557(17)
O3B O 0.5326(3) 0.59453(11) 0.58147(16)
O4B O 0.4788(2) 0.68236(9) 0.63585(13)
O4C O -0.4788(2) 0.18236(9) 0.86415(13)
O4A O 0.4788(2) 0.81764(9) 0.13585(13)
O5B O 0.6545(2) 0.63226(11) 0.80551(14)
O6B O 0.65149(19) 0.69813(11) 0.98032(14)
O6_2 O -0.65149(19) 0.30187(11) 1.01968(14)
O6B_2 O 0.65149(19) 0.69813(11) -0.01968(14)
O7B O 0.8178(2) 0.75780(12) 0.95059(18)
O8B O 0.6112(2) 0.82686(10) -0.02821(14)
H24B H 0.6040 0.8563 0.0059
H25B H 0.6927 0.8177 -0.0281
O9B O 0.0614(2) 0.41227(11) 0.49263(15)
H26B H 0.1071 0.3959 0.5397
H27B H -0.0189 0.3984 0.4815
Ni2B Ni 0.55900(3) 0.758040(18) 0.05342(2)
Ni2C Ni -1.55900(3) 0.258040(18) 0.44658(2)
Ni2C_2 Ni -0.55900(3) 0.258040(18) 0.44658(2)
Ni2_2 Ni -0.55900(3) 0.241960(18) -0.05342(2)
Ni2A Ni 0.55900(3) 0.741960(18) 0.55342(2)
Ni2B_2 Ni 0.55900(3) 0.758040(18) 1.05342(2)
Ni2C_3 Ni 0.44100(3) 0.258040(18) 1.44658(2)
O10 O 0.2432(3) 0.39751(14) 0.66252(19)
H28 H 0.2527 0.4335 0.6468
H29 H 0.3091 0.3768 0.6490
loop_
_geom_bond_atom_site_label_1
_geom_bond_atom_site_label_2
_geom_bond_site_symmetry_1
_geom_bond_site_symmetry_2
C1 C3 1_555 1_555
C2 C8 1_555 1_555
C3 C4 1_555 1_555
C4 H1 1_555 1_555
C5 C4 1_555 1_555
H2 C5 1_555 1_555
C6 C5 1_555 1_555
H3 C6 1_555 1_555
C7 C6 1_555 1_555
C8 C3 1_555 1_555
C9 C10 1_555 1_555
C10 H4 1_555 1_555
C11 C10 1_555 1_555
H5 C11 1_555 1_555
C12 C11 1_555 1_555
H6 C12 1_555 1_555
C13 C12 1_555 1_555
H7 C13 1_555 1_555
C14 C9 1_555 1_555
C15 C14 1_555 1_555
C16 H8 1_555 1_555
C17 C16 1_555 1_555
H9 C17 1_555 1_555
C18 C17 1_555 1_555
C19 C18 1_555 1_555
H10 C19 1_555 1_555
C20 C19 1_555 1_555
H11 C20 1_555 1_555
C21 H12 1_555 1_555
C22 C21 1_555 1_555
H13 C22 1_555 1_555
C23 C18 1_555 1_555
C24 C23 1_555 1_555
H14 C24 1_555 1_555
C25 C24 1_555 1_555
H15 C25 1_555 1_555
C26 H16 1_555 1_555
C27 C26 1_555 1_555
H17 C27 1_555 1_555
C28 C27 1_555 1_555
C29 C28 1_555 1_555
H18 C29 1_555 1_555
C30 C29 1_555 1_555
H19 C30 1_555 1_555
C31 H20 1_555 1_555
C32 C31 1_555 1_555
H21 C32 1_555 1_555
C33 C28 1_555 1_555
C34 C33 1_555 1_555
H22 C34 1_555 1_555
C35 C34 1_555 1_555
H23 C35 1_555 1_555
N1 C16 1_555 1_555
N2 C21 1_555 1_555
N3 C26 1_555 1_555
N4 C31 1_555 1_555
O1 C1 1_555 1_555
O2 C1 1_555 1_555
O3 C2 1_555 1_555
O4 C2 1_555 1_555
O5 C7 1_555 1_555
O6 C15 1_555 1_555
O7 C15 1_555 1_555
O8 H24 1_555 1_555
H25 O8 1_555 1_555
O9 H26 1_555 1_555
H27 O9 1_555 1_555
O10 H28 1_555 1_555
H29 O10 1_555 1_555
Ni1 N1 1_555 1_555
Ni2 N2 1_555 1_555
C1B C3B 1_555 1_555
C2B C8B 1_555 1_555
C3B C4B 1_555 1_555
C4B H1B 1_555 1_555
C5B C4B 1_555 1_555
H2B C5B 1_555 1_555
C6B C5B 1_555 1_555
H3B C6B 1_555 1_555
C7B C6B 1_555 1_555
C8B C3B 1_555 1_555
C9B C10B 1_555 1_555
C10B H4B 1_555 1_555
C11B C10B 1_555 1_555
H5B C11B 1_555 1_555
C12B C11B 1_555 1_555
H6B C12B 1_555 1_555
C13B C12B 1_555 1_555
H7B C13B 1_555 1_555
C14B C9B 1_555 1_555
C15B C14B 1_555 1_555
C16B H8B 1_555 1_555
C17B C16B 1_555 1_555
H9B C17B 1_555 1_555
C18B C17B 1_555 1_555
C19B C18B 1_555 1_555
H10B C19B 1_555 1_555
C20B C19B 1_555 1_555
H11B C20B 1_555 1_555
C21B H12B 1_555 1_555
C22B C21B 1_555 1_555
H13B C22B 1_555 1_555
C23B C18B 1_555 1_555
C24B C23B 1_555 1_555
H14B C24B 1_555 1_555
C25B C24B 1_555 1_555
H15B C25B 1_555 1_555
C26C H16C 1_555 1_555
C27C C26C 1_555 1_555
H17C C27C 1_555 1_555
C28C C27C 1_555 1_555
C29C C28C 1_555 1_555
H18C C29C 1_555 1_555
C30C C29C 1_555 1_555
H19C C30C 1_555 1_555
C31C H20C 1_555 1_555
C32C C31C 1_555 1_555
H21C C32C 1_555 1_555
C33C C28C 1_555 1_555
C34C C33C 1_555 1_555
H22C C34C 1_555 1_555
C35C C34C 1_555 1_555
H23C C35C 1_555 1_555
N1B Ni1 1_555 1_555
N2B C21B 1_555 1_555
N3C Ni2 1_555 1_555
N3A Ni2B 1_555 1_555
N4C C31C 1_555 1_555
N4B Ni2B 1_555 1_555
O1B Ni1 1_555 1_555
O2B C1B 1_555 1_555
O3B C2B 1_555 1_555
O4B C2B 1_555 1_555
O4C Ni2 1_555 1_555
O4A Ni2B 1_555 1_555
O5B C7B 1_555 1_555
O6B C15B 1_555 1_555
O6_2 Ni2 1_555 1_555
O6B_2 Ni2B 1_555 1_555
O7B C15B 1_555 1_555
O8B H24B 1_555 1_555
H25B O8B 1_555 1_555
O9B Ni1 1_555 1_555
H26B O9B 1_555 1_555
H27B O9B 1_555 1_555
Ni2B N2B 1_555 1_555
Ni2C N3 1_555 1_555
Ni2C_2 O4 1_555 1_555
Ni2_2 O6 1_555 1_555
Ni2A O4B 1_555 1_555
Ni2B_2 O6B 1_555 1_555
Ni2C_3 N4C 1_555 1_555
C7 C8 1_555 1_555
C9 O5 1_555 1_555
C13 C14 1_555 1_555
C20 N1 1_555 1_555
C22 C23 1_555 1_555
C25 N2 1_555 1_555
C30 N3 1_555 1_555
C32 C33 1_555 1_555
C35 N4 1_555 1_555
N4 Ni2 1_555 1_555
O1 Ni1 1_555 1_555
O8 Ni2 1_555 1_555
O9 Ni1 1_555 1_555
C1B O1B 1_555 1_555
C7B C8B 1_555 1_555
C9B O5B 1_555 1_555
C13B C14B 1_555 1_555
C16B N1B 1_555 1_555
C20B N1B 1_555 1_555
C22B C23B 1_555 1_555
C25B N2B 1_555 1_555
C26C N3C 1_555 1_555
C30C N3C 1_555 1_555
C32C C33C 1_555 1_555
C35C N4C 1_555 1_555
O8B Ni2B 1_555 1_555

#END
