
#######################################################################
#
#                 Cambridge Crystallographic Data Centre
#                                CCDC 
#
#######################################################################
#
# If this CIF has been generated from an entry in the Cambridge 
# Structural Database, then it will include bibliographic, chemical, 
# crystal, experimental, refinement or atomic coordinate data resulting 
# from the CCDC's data processing and validation procedures.
#
#######################################################################

data_NUVZOU
_symmetry_cell_setting           monoclinic
_symmetry_space_group_name_H-M   'P 21/n'
_symmetry_Int_Tables_number      14
_space_group_name_Hall           '-P 2yn'
loop_
_symmetry_equiv_pos_site_id
_symmetry_equiv_pos_as_xyz
1 x,y,z
2 1/2-x,1/2+y,1/2-z
3 -x,-y,-z
4 1/2+x,1/2-y,1/2+z
_cell_length_a                   12.324(5)
_cell_length_b                   25.863(10)
_cell_length_c                   12.630(5)
_cell_angle_alpha                90
_cell_angle_beta                 109.861(5)
_cell_angle_gamma                90
_cell_volume                     3786.18
loop_
_atom_site_label
_atom_site_type_symbol
_atom_site_fract_x
_atom_site_fract_y
_atom_site_fract_z
Cd1 Cd 0.73612(3) 0.039706(14) 0.08175(3)
C1 C 0.7085(5) 0.1625(2) 0.1079(5)
H1 H 0.6590 0.1529 0.1460
O1 O 0.6194(3) 0.04800(14) -0.1111(3)
N1 N 0.7676(4) 0.12556(16) 0.0792(4)
Cd2 Cd 0.65142(3) 0.508940(14) 0.10214(3)
C2 C 0.7155(5) 0.2146(2) 0.0849(5)
H2 H 0.6709 0.2387 0.1064
O3 O 0.6949(3) -0.02831(13) -0.0552(3)
N2 N 0.8040(5) 0.28024(17) -0.0036(4)
H3 H 0.836(5) 0.282(2) -0.056(4)
C3 C 0.7893(5) 0.2305(2) 0.0296(5)
O5 O 0.9403(3) 0.02529(13) 0.1171(3)
N3 N 0.7161(4) 0.42843(16) 0.0749(4)
C4 C 0.8534(5) 0.1916(2) 0.0004(5)
H4 H 0.9050 0.2002 -0.0361
O6 O 0.8511(3) -0.02046(14) 0.2099(3)
N4 N 0.6630(6) 0.8847(2) 0.0486(6)
C5 C 0.8401(5) 0.1413(2) 0.0256(5)
H5 H 0.8832 0.1163 0.0047
O7 O 0.4241(3) -0.03079(19) -0.1195(4)
N5 N 0.5395(5) 0.75263(18) 0.1474(5)
C6 C 0.7722(5) 0.3280(2) 0.0264(5)
O8 O 0.3362(3) -0.03348(18) -0.3035(4)
N6 N 0.6066(4) 0.59445(17) 0.1212(4)
C7 C 0.7286(6) 0.3375(2) 0.1107(5)
H6 H 0.7153 0.3102 0.1527
O9 O 1.2032(3) -0.04316(17) 0.4192(3)
C8 C 0.7042(6) 0.3877(2) 0.1333(5)
H7 H 0.6778 0.3932 0.1932
O10 O 1.0377(3) -0.00945(15) 0.4137(3)
C9 C 0.7622(5) 0.4195(2) -0.0053(5)
H8 H 0.7761 0.4476 -0.0449
C10 C 0.7900(5) 0.3712(2) -0.0319(6)
H9 H 0.8208 0.3671 -0.0892
C11 C 0.7275(7) 0.8406(3) 0.0635(7)
H10 H 0.7987 0.8411 0.0532
C12 C 0.6869(7) 0.7957(3) 0.0936(7)
H11 H 0.7285 0.7652 0.0992
C13 C 0.5843(5) 0.7954(2) 0.1156(5)
C14 C 0.5349(5) 0.8434(2) 0.1181(6)
H12 H 0.4734 0.8459 0.1448
C15 C 0.5740(5) 0.8866(2) 0.0825(6)
H13 H 0.5371 0.9180 0.0822
C16 C 0.5644(5) 0.7002(2) 0.1355(5)
C17 C 0.5097(5) 0.6635(2) 0.1782(5)
H14 H 0.4581 0.6735 0.2138
C18 C 0.6333(8) 0.6817(3) 0.0772(8)
H15 H 0.6658 0.7047 0.0397
C19 C 0.6538(7) 0.6299(2) 0.0747(8)
H16 H 0.7038 0.6189 0.0382
C20 C 0.5318(5) 0.6119(2) 0.1680(5)
H17 H 0.4920 0.5878 0.1954
C21 C 0.6231(4) 0.0005(2) -0.1285(4)
C22 C 0.5408(5) -0.0225(2) -0.2370(5)
C23 C 0.5774(5) -0.0773(3) -0.2591(6)
H18 H 0.5234 -0.0904 -0.3281
H19 H 0.5786 -0.0997 -0.1980
H20 H 0.6529 -0.0760 -0.2651
C24 C 0.5273(6) 0.0134(3) -0.3362(5)
H21 H 0.4746 -0.0017 -0.4035
H22 H 0.6009 0.0184 -0.3450
H23 H 0.4977 0.0461 -0.3227
C25 C 0.4227(4) -0.02899(19) -0.2193(5)
C26 C 0.9417(4) -0.01041(19) 0.1854(4)
C27 C 1.0519(4) -0.0431(2) 0.2382(4)
C28 C 1.1014(4) -0.03115(19) 0.3660(4)
C29 C 1.1430(5) -0.0300(2) 0.1868(5)
H24 H 1.1608 0.0062 0.1965
H25 H 1.1146 -0.0382 0.1079
H26 H 1.2114 -0.0498 0.2233
C30 C 1.0229(5) -0.1007(2) 0.2235(5)
H27 H 0.9654 -0.1086 0.2567
H28 H 1.0912 -0.1206 0.2598
H29 H 0.9938 -0.1090 0.1447
H35 H 0.489(8) 0.759(4) 0.182(9)
H36 H 0.666(10) 0.913(3) 0.010(9)
Cd1B Cd 0.26388(3) -0.039706(14) -0.08175(3)
Cd2A Cd 0.84858(3) 0.008940(14) 0.39786(3)
Cd2C Cd 0.15142(3) -0.008940(14) -0.39786(3)
Cd2C_2 Cd 1.15142(3) -0.008940(14) 0.60214(3)
O6A O 0.6489(3) 0.47954(14) 0.2901(3)
O7B O 0.5759(3) 0.03079(19) 0.1195(4)
O8C O 0.8362(3) 0.53348(18) 0.1965(4)
O9C O 0.7032(3) 0.54316(17) -0.0808(3)
O10A O 0.4623(3) 0.49055(15) 0.0863(3)
O10C O 0.5377(3) 0.50945(15) -0.0863(3)
O2 O 0.1147(4) 0.08674(17) 0.0730(4)
Cl1 Cl 0.49560(15) 0.23250(7) 0.27839(16)
O11 O 0.5875(6) 0.1990(3) 0.2955(8)
O12 O 0.4095(5) 0.2113(3) 0.3152(6)
O13 O 0.5324(9) 0.2765(3) 0.3354(12)
O14 O 0.4512(12) 0.2388(8) 0.1665(9)
O4 O 0.1797(6) 0.1840(3) 0.1685(7)
O15 O 1.1039(6) 0.2745(2) 0.2271(6)
C31 C 1.1613(11) 0.3184(5) 0.2049(10)
H30 H 1.1549 0.3457 0.2551
H31 H 1.2426 0.3097 0.2266
C32 C 1.1294(11) 0.3387(6) 0.1002(10)
H32 H 1.1753 0.3687 0.1007
H33 H 1.0494 0.3483 0.0765
H34 H 1.1407 0.3135 0.0491
H37 H 1.133(11) 0.247(3) 0.205(11)
loop_
_geom_bond_atom_site_label_1
_geom_bond_atom_site_label_2
_geom_bond_site_symmetry_1
_geom_bond_site_symmetry_2
Cd1 O1 1_555 1_555
C1 H1 1_555 1_555
O1 C21 1_555 1_555
N1 Cd1 1_555 1_555
Cl1 O11 1_555 1_555
Cd2 N3 1_555 1_555
C2 C1 1_555 1_555
H2 C2 1_555 1_555
O3 Cd1 1_555 1_555
N2 H3 1_555 1_555
C3 C2 1_555 1_555
O5 Cd1 1_555 1_555
N3 C8 1_555 1_555
C4 C3 1_555 1_555
H4 C4 1_555 1_555
O6 Cd1 1_555 1_555
N4 C11 1_555 1_555
C5 N1 1_555 1_555
H5 C5 1_555 1_555
O7 C25 1_555 1_555
N5 C13 1_555 1_555
C6 N2 1_555 1_555
O8 C25 1_555 1_555
N6 Cd2 1_555 1_555
C7 C6 1_555 1_555
H6 C7 1_555 1_555
O9 C28 1_555 1_555
C8 C7 1_555 1_555
H7 C8 1_555 1_555
O10 C28 1_555 1_555
C9 N3 1_555 1_555
H8 C9 1_555 1_555
C10 C6 1_555 1_555
H9 C10 1_555 1_555
C11 H10 1_555 1_555
O12 Cl1 1_555 1_555
C12 C11 1_555 1_555
H11 C12 1_555 1_555
O13 Cl1 1_555 1_555
C13 C12 1_555 1_555
O14 Cl1 1_555 1_555
C14 C13 1_555 1_555
H12 C14 1_555 1_555
O15 C31 1_555 1_555
C15 N4 1_555 1_555
H13 C15 1_555 1_555
C16 N5 1_555 1_555
C17 C16 1_555 1_555
H14 C17 1_555 1_555
C18 C16 1_555 1_555
H15 C18 1_555 1_555
C19 N6 1_555 1_555
H16 C19 1_555 1_555
C20 N6 1_555 1_555
H17 C20 1_555 1_555
C21 O3 1_555 1_555
C22 C21 1_555 1_555
C23 C22 1_555 1_555
H18 C23 1_555 1_555
H19 C23 1_555 1_555
H20 C23 1_555 1_555
C24 C22 1_555 1_555
H21 C24 1_555 1_555
H22 C24 1_555 1_555
H23 C24 1_555 1_555
C25 C22 1_555 1_555
C26 O5 1_555 1_555
C27 C26 1_555 1_555
C28 C27 1_555 1_555
C29 C27 1_555 1_555
H24 C29 1_555 1_555
H25 C29 1_555 1_555
H26 C29 1_555 1_555
C30 C27 1_555 1_555
H27 C30 1_555 1_555
H28 C30 1_555 1_555
H29 C30 1_555 1_555
C31 H30 1_555 1_555
H31 C31 1_555 1_555
C32 C31 1_555 1_555
H32 C32 1_555 1_555
H33 C32 1_555 1_555
H34 C32 1_555 1_555
H35 N5 1_555 1_555
H36 N4 1_555 1_555
H37 O15 1_555 1_555
Cd1B O7 1_555 1_555
Cd2A O6 1_555 1_555
Cd2C O8 1_555 1_555
Cd2C_2 O9 1_555 1_555
O6A Cd2 1_555 1_555
O7B Cd1 1_555 1_555
O8C Cd2 1_555 1_555
O9C Cd2 1_555 1_555
O10A Cd2 1_555 1_555
O10C Cd2 1_555 1_555
C1 N1 1_555 1_555
N2 C3 1_555 1_555
C4 C5 1_555 1_555
O6 C26 1_555 1_555
O10 Cd2A 1_555 1_555
O10 Cd2C_2 1_555 1_555
C9 C10 1_555 1_555
C14 C15 1_555 1_555
C17 C20 1_555 1_555
C18 C19 1_555 1_555

#END
