
#######################################################################
#
#                 Cambridge Crystallographic Data Centre
#                                CCDC 
#
#######################################################################
#
# If this CIF has been generated from an entry in the Cambridge 
# Structural Database, then it will include bibliographic, chemical, 
# crystal, experimental, refinement or atomic coordinate data resulting 
# from the CCDC's data processing and validation procedures.
#
#######################################################################

data_NUVZEK
_symmetry_cell_setting           orthorhombic
_symmetry_space_group_name_H-M   'P c a 21'
_symmetry_Int_Tables_number      29
_space_group_name_Hall           'P 2c -2ac'
loop_
_symmetry_equiv_pos_site_id
_symmetry_equiv_pos_as_xyz
1 x,y,z
2 -x,-y,1/2+z
3 1/2+x,-y,z
4 1/2-x,y,1/2+z
_cell_length_a                   20.258(3)
_cell_length_b                   4.7728(6)
_cell_length_c                   21.145(3)
_cell_angle_alpha                90
_cell_angle_beta                 90
_cell_angle_gamma                90
_cell_volume                     2044.45
loop_
_atom_site_label
_atom_site_type_symbol
_atom_site_fract_x
_atom_site_fract_y
_atom_site_fract_z
Cu1 Cu 0.046480(13) 1.00665(7) 0.22680(3)
O1 O 0.10191(11) 1.0601(5) 0.30102(11)
O3 O 0.19134(11) 1.2115(5) 0.34952(10)
O4 O 0.12533(10) 1.0427(4) 0.17245(10)
O5 O 0.22465(10) 1.2115(5) 0.15113(11)
O6 O -0.00262(10) 0.8357(4) 0.15569(10)
O7 O 0.01540(11) 0.4366(4) 0.20625(10)
O8 O -0.15293(13) 0.5641(6) 0.15785(13)
H3 H -0.1893(14) 0.660(8) 0.152(2)
O9 O -0.13463(14) 0.7042(6) 0.05905(13)
N1 N -0.02755(12) 0.9176(5) 0.28655(12)
N2 N -0.18745(12) 0.6301(6) 0.39350(13)
H4 H -0.2242(12) 0.683(8) 0.3753(16)
N3 N -0.20954(15) 0.1328(7) 0.55124(14)
H5 H -0.214(2) 0.032(8) 0.582(2)
C1 C -0.08845(15) 1.0249(6) 0.28070(15)
H6 H -0.0957 1.1666 0.2499
C2 C -0.14083(15) 0.9391(6) 0.31721(15)
H7 H -0.1831 1.0222 0.3118
C3 C -0.13168(14) 0.7293(6) 0.36231(14)
C4 C -0.06790(15) 0.6179(7) 0.36916(15)
H8 H -0.0590 0.4752 0.3993
C5 C -0.01855(15) 0.7215(7) 0.33088(14)
H9 H 0.0247 0.6488 0.3363
C6 C -0.25942(16) 0.1620(8) 0.50927(17)
H10 H -0.2999 0.0661 0.5161
C7 C -0.25224(16) 0.3270(7) 0.45747(15)
H11 H -0.2880 0.3490 0.4288
C8 C -0.19239(16) 0.4651(6) 0.44609(15)
C9 C -0.14259(16) 0.4348(8) 0.49157(16)
H12 H -0.1019 0.5309 0.4866
C10 C -0.15261(17) 0.2673(8) 0.54286(16)
H13 H -0.1184 0.2461 0.5732
C11 C 0.15416(14) 1.2065(6) 0.30287(14)
C12 C 0.17054(14) 1.3857(6) 0.24427(13)
H14 H 0.1321 1.5140 0.2379
C13 C 0.17405(13) 1.2011(6) 0.18563(14)
C14 C 0.23064(15) 1.5731(7) 0.25352(16)
H15 H 0.2252 1.6838 0.2922
H16 H 0.2351 1.6992 0.2172
H17 H 0.2703 1.4568 0.2571
C15 C -0.01038(12) 0.5720(6) 0.16261(14)
C16 C -0.05294(14) 0.4253(7) 0.11362(15)
H18 H -0.0633 0.2334 0.1298
C17 C -0.11744(15) 0.5813(7) 0.10593(16)
C18 C -0.01491(19) 0.3933(9) 0.05221(18)
H19 H 0.0259 0.2887 0.0601
H20 H -0.0041 0.5790 0.0354
H21 H -0.0420 0.2915 0.0215
Cu1_2 Cu 0.046480(13) 0.00665(7) 0.22680(3)
O7_2 O 0.01540(11) 1.4366(4) 0.20625(10)
O2 O -0.0565(3) 0.8340(17) -0.0660(2)
H1 H -0.093(2) 0.865(9) -0.0389(19)
H2 H -0.0688 0.9827 -0.0902
loop_
_geom_bond_atom_site_label_1
_geom_bond_atom_site_label_2
_geom_bond_site_symmetry_1
_geom_bond_site_symmetry_2
Cu1 O1 1_555 1_555
O1 C11 1_555 1_555
O2 H1 1_555 1_555
H2 O2 1_555 1_555
O3 C11 1_555 1_555
O4 Cu1 1_555 1_555
O5 C13 1_555 1_555
O6 Cu1 1_555 1_555
O7 C15 1_555 1_555
O8 H3 1_555 1_555
O9 C17 1_555 1_555
N1 Cu1 1_555 1_555
N2 H4 1_555 1_555
N3 H5 1_555 1_555
C1 N1 1_555 1_555
H6 C1 1_555 1_555
C2 C1 1_555 1_555
H7 C2 1_555 1_555
C3 N2 1_555 1_555
C4 C3 1_555 1_555
H8 C4 1_555 1_555
C5 N1 1_555 1_555
H9 C5 1_555 1_555
C6 N3 1_555 1_555
H10 C6 1_555 1_555
C7 C6 1_555 1_555
H11 C7 1_555 1_555
C8 N2 1_555 1_555
C9 C8 1_555 1_555
H12 C9 1_555 1_555
C10 N3 1_555 1_555
H13 C10 1_555 1_555
C11 C12 1_555 1_555
C12 H14 1_555 1_555
C13 O4 1_555 1_555
C14 C12 1_555 1_555
H15 C14 1_555 1_555
H16 C14 1_555 1_555
H17 C14 1_555 1_555
C15 O6 1_555 1_555
C16 C15 1_555 1_555
H18 C16 1_555 1_555
C17 O8 1_555 1_555
C18 C16 1_555 1_555
H19 C18 1_555 1_555
H20 C18 1_555 1_555
H21 C18 1_555 1_555
Cu1_2 O7 1_555 1_555
O7_2 Cu1 1_555 1_555
C2 C3 1_555 1_555
C4 C5 1_555 1_555
C7 C8 1_555 1_555
C9 C10 1_555 1_555
C12 C13 1_555 1_555
C16 C17 1_555 1_555

#END
