
#######################################################################
#
#                 Cambridge Crystallographic Data Centre
#                                CCDC 
#
#######################################################################
#
# If this CIF has been generated from an entry in the Cambridge 
# Structural Database, then it will include bibliographic, chemical, 
# crystal, experimental, refinement or atomic coordinate data resulting 
# from the CCDC's data processing and validation procedures.
#
#######################################################################

data_NUWBOW
_symmetry_cell_setting           triclinic
_symmetry_space_group_name_H-M   'P -1'
_symmetry_Int_Tables_number      2
_space_group_name_Hall           '-P 1'
loop_
_symmetry_equiv_pos_site_id
_symmetry_equiv_pos_as_xyz
1 x,y,z
2 -x,-y,-z
_cell_length_a                   9.110(3)
_cell_length_b                   18.178(5)
_cell_length_c                   18.268(4)
_cell_angle_alpha                90.66
_cell_angle_beta                 92.32
_cell_angle_gamma                101.44
_cell_volume                     2962.09
loop_
_atom_site_label
_atom_site_type_symbol
_atom_site_fract_x
_atom_site_fract_y
_atom_site_fract_z
Si1 Si 0.0955(2) 0.4299(1) 0.8563(1)
Si2 Si 0.3452(2) 0.3477(1) 0.8885(1)
Si3 Si 0.1856(1) 0.4247(1) 0.5956(1)
Si4 Si 0.3582(1) 0.3028(1) 0.6247(1)
O1 O 0.6965(4) 0.6593(2) 0.7521(2)
O2 O 0.5229(4) 0.5135(2) 0.7509(2)
O3 O -0.0333(3) 0.2398(2) 0.7302(2)
O4 O -0.2809(4) 0.1200(2) 0.7269(2)
N1 N 0.2295(4) 0.3833(2) 0.8296(2)
N2 N 0.2627(4) 0.3687(2) 0.6537(2)
C1 C 0.2772(6) 0.2462(3) 0.9088(3)
C2 C 0.3827(8) 0.3962(4) 0.9806(3)
C3 C 0.5354(5) 0.3534(3) 0.8516(3)
C4 C -0.0035(7) 0.3942(3) 0.9408(3)
C5 C -0.0587(6) 0.4214(3) 0.7835(3)
C6 C 0.1662(8) 0.5328(3) 0.8714(3)
C7 C 0.3476(6) 0.2263(3) 0.6932(3)
C8 C 0.2859(6) 0.2531(3) 0.5365(3)
C9 C 0.5614(5) 0.3425(3) 0.6136(3)
C10 C -0.0134(5) 0.3855(3) 0.5677(3)
C11 C 0.2844(6) 0.4471(3) 0.5081(3)
C12 C 0.1882(7) 0.5189(3) 0.6385(3)
C13 C 0.5826(8) 0.5538(3) 0.8178(3)
C14 C 0.6079(8) 0.6304(3) 0.8117(3)
C15 C 0.6359(8) 0.6201(3) 0.6860(3)
C16 C 0.6148(7) 0.5413(3) 0.6907(3)
C17 C -0.0846(7) 0.2019(4) 0.7948(3)
C18 C -0.23738 0.1663(4) 0.7887(3)
C19 C -0.2315(7) 0.1576(4) 0.6647(3)
C20 C -0.0783(6) 0.1926(3) 0.6673(3)
Li1 Li 0.3537(8) 0.4290(4) 0.7454(4)
Li2 Li 0.1396(8) 0.3239(4) 0.7379(4)
H1 H 0.1793(6) 0.2399(3) 0.9283(3)
H2 H 0.2720(6) 0.2164(3) 0.8647(3)
H3 H 0.3450(6) 0.2305(3) 0.9441(3)
H4 H 0.2891(8) 0.3954(4) 1.0032(3)
H5 H 0.4450(8) 0.3714(4) 1.0114(3)
H6 H 0.4324(8) 0.4472(4) 0.9740(3)
H7 H 0.5255(5) 0.3287(3) 0.8044(3)
H8 H 0.5827(5) 0.4051(3) 0.8468(3)
H9 H 0.5953(5) 0.3293(3) 0.8843(3)
H10 H 0.0698(7) 0.3967(3) 0.9805(3)
H11 H -0.0750(7) 0.4243(3) 0.9531(3)
H12 H -0.0543(7) 0.3431(3) 0.9325(3)
H13 H -0.0172(6) 0.4393(3) 0.7380(3)
H14 H -0.1086(6) 0.3699(3) 0.7774(3)
H15 H -0.1293(6) 0.4510(3) 0.7980(3)
H16 H 0.2462(8) 0.5402(3) 0.9083(3)
H17 H 0.2032(8) 0.5547(3) 0.8265(3)
H18 H 0.0872(8) 0.5564(3) 0.8873(3)
H19 H 0.3825(6) 0.2469(3) 0.7408(3)
H20 H 0.2455(6) 0.2000(3) 0.6952(3)
H21 H 0.4089(6) 0.1921(3) 0.6780(3)
H22 H 0.2878(6) 0.2892(3) 0.4984(3)
H23 H 0.3484(6) 0.2184(3) 0.5242(3)
H24 H 0.1849(6) 0.2262(3) 0.5413(3)
H25 H 0.6035(5) 0.3687(3) 0.6579(3)
H26 H 0.6135(5) 0.3028(3) 0.6034(3)
H27 H 0.5713(5) 0.3768(3) 0.5737(3)
H28 H -0.0190(5) 0.3372(3) 0.5448(3)
H29 H -0.0741(5) 0.3802(3) 0.6098(3)
H30 H -0.0494(5) 0.4183(3) 0.5335(3)
H31 H 0.2888(6) 0.4015(3) 0.4819(3)
H32 H 0.2305(6) 0.4770(3) 0.4784(3)
H33 H 0.3844(6) 0.4746(3) 0.5190(3)
H34 H 0.2888(7) 0.5418(3) 0.6544(3)
H35 H 0.1505(7) 0.5505(3) 0.6037(3)
H36 H 0.1258(7) 0.5125(3) 0.6800(3)
H37 H 0.6792(8) 0.5421(3) 0.8289(3)
H38 H 0.5184(8) 0.5363(3) 0.8570(3)
H39 H 0.5105(8) 0.6421(3) 0.8034(3)
H40 H 0.6512(8) 0.6551(3) 0.8565(3)
H41 H 0.6953(8) 0.6387(3) 0.6454(3)
H42 H 0.5374(8) 0.6305(3) 0.6775(3)
H43 H 0.5727(7) 0.5164(3) 0.6458(3)
H44 H 0.7127(7) 0.5303(3) 0.6999(3)
H45 H -0.0627(7) 0.2361(4) 0.8361(3)
H46 H -0.0308(7) 0.1621(4) 0.8024(3)
H47 H -0.2685(8) 0.1396(4) 0.8322(3)
H48 H -0.2904(8) 0.2068(4) 0.7841(3)
H49 H -0.2874(7) 0.1966(4) 0.6569(3)
H50 H -0.2536(7) 0.1230(4) 0.6237(3)
H51 H -0.0219(6) 0.1533(3) 0.6680(3)
H52 H -0.0538(6) 0.2216(3) 0.6242(3)
Si5 Si 0.1871(2) 0.8209(1) 0.9091(1)
Si6 Si 0.2429(1) 0.9877(1) 0.8808(1)
Si7 Si 0.2134(1) 0.7827(1) 0.6478(1)
Si8 Si 0.1990(2) 0.9418(1) 0.6173(1)
O5 O -0.1405(3) 0.8687(2) 0.7627(2)
O6 O -0.4335(3) 0.8995(2) 0.7631(2)
N3 N 0.2170(4) 0.8960(2) 0.8540(2)
N4 N 0.2112(4) 0.8720(2) 0.6763(2)
C21 C 0.0450(5) 0.7418(3) 0.8679(3)
C22 C 0.1107(9) 0.8373(3) 1.0005(3)
C23 C 0.3603(6) 0.7837(3) 0.9305(3)
C24 C 0.3942(5) 1.0452(3) 0.8283(3)
C25 C 0.2989(6) 1.0120(3) 0.9798(3)
C26 C 0.0694(5) 1.0275(3) 0.8673(3)
C27 C 0.3144(6) 0.7736(3) 0.5612(3)
C28 C 0.0227(5) 0.7241(3) 0.6352(3)
C29 C 0.3130(5) 0.7337(3) 0.7183(3)
C30 C 0.0892(8) 0.9103(3) 0.5297(3)
C31 C 0.1001(6) 1.0134(3) 0.6571(2)
C32 C 0.3845(6) 0.9958(3) 0.5911(3)
C33 C -0.2236(5) 0.8642(3) 0.8284(2)
C34 C -0.3314(5) 0.9166(3) 0.8253(2)
C35 C -0.3507(5) 0.9045(3) 0.6978(2)
C36 C -0.2425(5) 0.8518(3) 0.7000(2)
Li3 Li 0.0774(7) 0.8759(4) 0.7630(4)
Li4 Li 0.3492(7) 0.8922(4) 0.7666(4)
H53 H 0.0753(5) 0.7287(3) 0.8206(3)
H54 H 0.0363(5) 0.6992(3) 0.8991(3)
H55 H -0.0501(5) 0.7568(3) 0.8628(3)
H56 H 0.0207(9) 0.8567(3) 0.9931(3)
H57 H 0.0889(9) 0.7915(3) 1.0271(3)
H58 H 0.1843(9) 0.8734(3) 1.0279(3)
H59 H 0.4030(6) 0.7732(3) 0.8854(3)
H60 H 0.4313(6) 0.8204(3) 0.9587(3)
H61 H 0.3360(6) 0.7385(3) 0.9579(3)
H62 H 0.3730(5) 1.0356(3) 0.7767(3)
H63 H 0.3992(5) 1.0974(3) 0.8391(3)
H64 H 0.4885(5) 1.0320(3) 0.8420(3)
H65 H 0.3877(6) 0.9935(3) 0.9932(3)
H66 H 0.3175(6) 1.0654(3) 0.9875(3)
H67 H 0.2184(6) 0.9888(3) 1.0094(3)
H68 H 0.0330(5) 1.0185(3) 0.8173(3)
H69 H -0.0062(5) 1.0039(3) 0.8994(3)
H70 H 0.0928(5) 1.0805(3) 0.8775(3)
H71 H 0.2687(6) 0.7976(3) 0.5223(3)
H72 H 0.4177(6) 0.7979(3) 0.5684(3)
H73 H 0.3081(6) 0.7217(3) 0.5485(3)
H74 H -0.0313(5) 0.7269(3) 0.6789(3)
H75 H -0.0286(5) 0.7427(3) 0.5947(3)
H76 H 0.0288(5) 0.6728(3) 0.6253(3)
H77 H 0.2673(5) 0.7354(3) 0.7646(3)
H78 H 0.3068(5) 0.6824(3) 0.7032(3)
H79 H 0.4164(5) 0.7586(3) 0.7232(3)
H80 H 0.1342(8) 0.8736(3) 0.5057(3)
H81 H -0.0119(8) 0.8881(3) 0.5408(3)
H82 H 0.0889(8) 0.9521(3) 0.4981(3)
H83 H 0.1506(6) 1.0332(3) 0.7024(2)
H84 H 0.0996(6) 1.0536(3) 0.6234(2)
H85 H -0.0011(6) 0.9896(3) 0.6661(2)
H86 H 0.4446(6) 1.0139(3) 0.6344(3)
H87 H 0.4348(6) 0.9641(3) 0.5631(3)
H88 H 0.3693(6) 1.0376(3) 0.5621(3)
H89 H -0.1541(5) 0.8765(3) 0.8697(2)
H90 H -0.2789(5) 0.8140(3) 0.8340(2)
H91 H -0.3862(5) 0.9136(3) 0.8693(2)
H92 H -0.2754(5) 0.9669(3) 0.8216(2)
H93 H -0.2947(5) 0.9548(3) 0.6933(2)
H94 H -0.4194(5) 0.8933(3) 0.6561(2)
H95 H -0.2984(5) 0.8013(3) 0.7026(2)
H96 H -0.1862(5) 0.8558(3) 0.6565(2)
Li4_2 Li -0.6508(7) 0.8922(4) 0.7666(4)
O6_2 O 0.5665(3) 0.8995(2) 0.7631(2)
loop_
_geom_bond_atom_site_label_1
_geom_bond_atom_site_label_2
_geom_bond_site_symmetry_1
_geom_bond_site_symmetry_2
Si1 N1 1_555 1_555
Si2 N1 1_555 1_555
Si3 N2 1_555 1_555
Si4 N2 1_555 1_555
Si5 N3 1_555 1_555
Si6 N3 1_555 1_555
Si7 N4 1_555 1_555
Si8 N4 1_555 1_555
O1 C14 1_555 1_555
O2 C13 1_555 1_555
O3 C17 1_555 1_555
O4 C18 1_555 1_555
O5 C33 1_555 1_555
O6 C34 1_555 1_555
N1 Li1 1_555 1_555
N2 Li1 1_555 1_555
N3 Li3 1_555 1_555
N4 Li3 1_555 1_555
C1 Si2 1_555 1_555
C2 Si2 1_555 1_555
C3 Si2 1_555 1_555
C4 Si1 1_555 1_555
C5 Si1 1_555 1_555
C6 Si1 1_555 1_555
C7 Si4 1_555 1_555
C8 Si4 1_555 1_555
C9 Si4 1_555 1_555
C10 Si3 1_555 1_555
C11 Si3 1_555 1_555
C12 Si3 1_555 1_555
C13 C14 1_555 1_555
C14 H39 1_555 1_555
C15 O1 1_555 1_555
C16 O2 1_555 1_555
C17 C18 1_555 1_555
C18 H47 1_555 1_555
C19 O4 1_555 1_555
C20 O3 1_555 1_555
C21 Si5 1_555 1_555
C22 Si5 1_555 1_555
C23 Si5 1_555 1_555
C24 Si6 1_555 1_555
C25 Si6 1_555 1_555
C26 Si6 1_555 1_555
C27 Si7 1_555 1_555
C28 Si7 1_555 1_555
C29 Si7 1_555 1_555
C30 Si8 1_555 1_555
C31 Si8 1_555 1_555
C32 Si8 1_555 1_555
C33 C34 1_555 1_555
C34 H91 1_555 1_555
C35 O6 1_555 1_555
C36 O5 1_555 1_555
Li1 O2 1_555 1_555
Li2 O3 1_555 1_555
Li3 O5 1_555 1_555
Li4 N3 1_555 1_555
H1 C1 1_555 1_555
H2 C1 1_555 1_555
H3 C1 1_555 1_555
H4 C2 1_555 1_555
H5 C2 1_555 1_555
H6 C2 1_555 1_555
H7 C3 1_555 1_555
H8 C3 1_555 1_555
H9 C3 1_555 1_555
H10 C4 1_555 1_555
H11 C4 1_555 1_555
H12 C4 1_555 1_555
H13 C5 1_555 1_555
H14 C5 1_555 1_555
H15 C5 1_555 1_555
H16 C6 1_555 1_555
H17 C6 1_555 1_555
H18 C6 1_555 1_555
H19 C7 1_555 1_555
H20 C7 1_555 1_555
H21 C7 1_555 1_555
H22 C8 1_555 1_555
H23 C8 1_555 1_555
H24 C8 1_555 1_555
H25 C9 1_555 1_555
H26 C9 1_555 1_555
H27 C9 1_555 1_555
H28 C10 1_555 1_555
H29 C10 1_555 1_555
H30 C10 1_555 1_555
H31 C11 1_555 1_555
H32 C11 1_555 1_555
H33 C11 1_555 1_555
H34 C12 1_555 1_555
H35 C12 1_555 1_555
H36 C12 1_555 1_555
H37 C13 1_555 1_555
H38 C13 1_555 1_555
H40 C14 1_555 1_555
H41 C15 1_555 1_555
H42 C15 1_555 1_555
H43 C16 1_555 1_555
H44 C16 1_555 1_555
H45 C17 1_555 1_555
H46 C17 1_555 1_555
H48 C18 1_555 1_555
H49 C19 1_555 1_555
H50 C19 1_555 1_555
H51 C20 1_555 1_555
H52 C20 1_555 1_555
H53 C21 1_555 1_555
H54 C21 1_555 1_555
H55 C21 1_555 1_555
H56 C22 1_555 1_555
H57 C22 1_555 1_555
H58 C22 1_555 1_555
H59 C23 1_555 1_555
H60 C23 1_555 1_555
H61 C23 1_555 1_555
H62 C24 1_555 1_555
H63 C24 1_555 1_555
H64 C24 1_555 1_555
H65 C25 1_555 1_555
H66 C25 1_555 1_555
H67 C25 1_555 1_555
H68 C26 1_555 1_555
H69 C26 1_555 1_555
H70 C26 1_555 1_555
H71 C27 1_555 1_555
H72 C27 1_555 1_555
H73 C27 1_555 1_555
H74 C28 1_555 1_555
H75 C28 1_555 1_555
H76 C28 1_555 1_555
H77 C29 1_555 1_555
H78 C29 1_555 1_555
H79 C29 1_555 1_555
H80 C30 1_555 1_555
H81 C30 1_555 1_555
H82 C30 1_555 1_555
H83 C31 1_555 1_555
H84 C31 1_555 1_555
H85 C31 1_555 1_555
H86 C32 1_555 1_555
H87 C32 1_555 1_555
H88 C32 1_555 1_555
H89 C33 1_555 1_555
H90 C33 1_555 1_555
H92 C34 1_555 1_555
H93 C35 1_555 1_555
H94 C35 1_555 1_555
H95 C36 1_555 1_555
H96 C36 1_555 1_555
Li4_2 O6 1_555 1_555
O6_2 Li4 1_555 1_555
N1 Li2 1_555 1_555
N2 Li2 1_555 1_555
N4 Li4 1_555 1_555
C15 C16 1_555 1_555
C19 C20 1_555 1_555
C35 C36 1_555 1_555

#END
