
#######################################################################
#
#                 Cambridge Crystallographic Data Centre
#                                CCDC 
#
#######################################################################
#
# If this CIF has been generated from an entry in the Cambridge 
# Structural Database, then it will include bibliographic, chemical, 
# crystal, experimental, refinement or atomic coordinate data resulting 
# from the CCDC's data processing and validation procedures.
#
#######################################################################

data_NUWCAK
_symmetry_cell_setting           monoclinic
_symmetry_space_group_name_H-M   'C 2/m'
_symmetry_Int_Tables_number      12
_space_group_name_Hall           '-C 2y'
loop_
_symmetry_equiv_pos_site_id
_symmetry_equiv_pos_as_xyz
1 x,y,z
2 -x,y,-z
3 1/2+x,1/2+y,z
4 1/2-x,1/2+y,-z
5 -x,-y,-z
6 x,-y,z
7 1/2-x,1/2-y,-z
8 1/2+x,1/2-y,z
_cell_length_a                   22.8333(6)
_cell_length_b                   25.7253(6)
_cell_length_c                   6.42264(16)
_cell_angle_alpha                90
_cell_angle_beta                 105.895(3)
_cell_angle_gamma                90
_cell_volume                     3628.37
loop_
_atom_site_label
_atom_site_type_symbol
_atom_site_fract_x
_atom_site_fract_y
_atom_site_fract_z
Cu1 Cu 0.5000 0.5000 0.5000
N1 N 0.43868(15) 0.5000 0.6703(6)
N2 N 0.5000 0.42264(12) 0.5000
C1 C 0.36790(15) 0.47393(12) 0.8460(6)
H1 H 0.3435 0.4520 0.9072
C2 C 0.41178(13) 0.45730(11) 0.7362(5)
C3 C 0.42295(12) 0.40594(10) 0.6956(4)
C4 C 0.46452(12) 0.38982(10) 0.5858(4)
C5 C 0.47813(13) 0.33663(10) 0.5527(5)
H2 H 0.4599 0.3069 0.5967
N3 N 0.31118(11) 0.29311(9) 0.8962(4)
C6 C 0.30210(15) 0.30601(13) 0.6874(5)
H3 H 0.2694 0.2902 0.5825
C7 C 0.33830(14) 0.34125(13) 0.6185(5)
H4 H 0.3305 0.3489 0.4686
C8 C 0.38592(12) 0.36541(10) 0.7666(5)
C9 C 0.39614(14) 0.35106(12) 0.9818(5)
H5 H 0.4290 0.3659 1.0893
C10 C 0.35848(14) 0.31524(12) 1.0394(5)
H6 H 0.3664 0.3058 1.1876
Cu2 Cu 0.2500 0.2500 1.0000
F1 F 0.43824(10) 0.21308(9) 1.4893(4)
F2 F 0.37255(12) 0.19441(13) 1.6512(4)
F3 F 0.41929(15) 0.13432(10) 1.5337(5)
F4 F 0.28664(15) 0.09520(11) 0.5958(5)
F5 F 0.2378(2) 0.06595(12) 0.8067(6)
F6 F 0.3355(2) 0.05589(12) 0.8791(6)
O1 O 0.31709(10) 0.22635(8) 1.2485(3)
O2 O 0.26454(11) 0.17557(9) 0.8295(4)
C11 C 0.39346(18) 0.18097(14) 1.4910(7)
C12 C 0.34433(15) 0.18307(13) 1.2741(6)
C13 C 0.33669(18) 0.14084(13) 1.1377(6)
H7 H 0.3599 0.1105 1.1882
C14 C 0.29695(18) 0.13998(14) 0.9301(6)
C15 C 0.2900(3) 0.08786(17) 0.8041(8)
N1A N 0.56132(15) 0.5000 0.3297(6)
N2D N 0.5000 0.57736(12) 0.5000
C1E C 0.36790(15) 0.52607(12) 0.8460(6)
C1A C 0.63210(15) 0.47393(12) 0.1540(6)
C1D C 0.63210(15) 0.52607(12) 0.1540(6)
H1E H 0.3435 0.5480 0.9072
H1A H 0.6565 0.4520 0.0928
H1D H 0.6565 0.5480 0.0928
C2E C 0.41178(13) 0.54270(11) 0.7362(5)
C2D C 0.58822(13) 0.54270(11) 0.2638(5)
C2A C 0.58822(13) 0.45730(11) 0.2638(5)
C3E C 0.42295(12) 0.59406(10) 0.6956(4)
C3D C 0.57705(12) 0.59406(10) 0.3044(4)
C3A C 0.57705(12) 0.40594(10) 0.3044(4)
C4E C 0.46452(12) 0.61018(10) 0.5858(4)
C4D C 0.53548(12) 0.61018(10) 0.4142(4)
C4A C 0.53548(12) 0.38982(10) 0.4142(4)
C5A C 0.52187(13) 0.33663(10) 0.4473(5)
C5D C 0.52187(13) 0.66337(10) 0.4473(5)
C5E C 0.47813(13) 0.66337(10) 0.5527(5)
H2A H 0.5401 0.3069 0.4033
H2D H 0.5401 0.6931 0.4033
H2E H 0.4599 0.6931 0.5967
N3E N 0.31118(11) 0.70689(9) 0.8962(4)
N3A N 0.68882(11) 0.29311(9) 0.1038(4)
N3D N 0.68882(11) 0.70689(9) 0.1038(4)
N3F N 0.18882(11) 0.20689(9) 1.1038(4)
N3C N 0.18882(11) 0.79311(9) 1.1038(4)
C6E C 0.30210(15) 0.69399(13) 0.6874(5)
C6A C 0.69790(15) 0.30601(13) 0.3126(5)
C6D C 0.69790(15) 0.69399(13) 0.3126(5)
H3E H 0.2694 0.7098 0.5825
H3A H 0.7306 0.2902 0.4175
H3D H 0.7306 0.7098 0.4175
C7E C 0.33830(14) 0.65875(13) 0.6185(5)
C7A C 0.66170(14) 0.34125(13) 0.3815(5)
C7D C 0.66170(14) 0.65875(13) 0.3815(5)
H4E H 0.3305 0.6511 0.4686
H4A H 0.6695 0.3489 0.5314
H4D H 0.6695 0.6511 0.5314
C8E C 0.38592(12) 0.63459(10) 0.7666(5)
C8A C 0.61408(12) 0.36541(10) 0.2334(5)
C8D C 0.61408(12) 0.63459(10) 0.2334(5)
C9E C 0.39614(14) 0.64894(12) 0.9818(5)
C9A C 0.60386(14) 0.35106(12) 0.0182(5)
C9D C 0.60386(14) 0.64894(12) 0.0182(5)
H5E H 0.4290 0.6341 1.0893
H5A H 0.5710 0.3659 -0.0893
H5D H 0.5710 0.6341 -0.0893
C10E C 0.35848(14) 0.68476(12) 1.0394(5)
C10A C 0.64152(14) 0.31524(12) -0.0394(5)
C10D C 0.64152(14) 0.68476(12) -0.0394(5)
H6E H 0.3664 0.6942 1.1876
H6A H 0.6336 0.3058 -0.1876
H6D H 0.6336 0.6942 -0.1876
Cu2C Cu 0.2500 0.7500 1.0000
Cu2A Cu 0.7500 0.2500 0.0000
Cu2B Cu 0.7500 0.7500 0.0000
F1F F 0.06176(10) 0.28692(9) 0.5107(4)
F1E F 0.43824(10) 0.78692(9) 1.4893(4)
F1C F 0.06176(10) 0.71308(9) 0.5107(4)
F2F F 0.12745(12) 0.30559(13) 0.3488(4)
F2E F 0.37255(12) 0.80559(13) 1.6512(4)
F2C F 0.12745(12) 0.69441(13) 0.3488(4)
F3F F 0.08071(15) 0.36568(10) 0.4663(5)
F3E F 0.41929(15) 0.86568(10) 1.5337(5)
F3C F 0.08071(15) 0.63432(10) 0.4663(5)
F4F F 0.21336(15) 0.40480(11) 1.4042(5)
F4E F 0.28664(15) 0.90480(11) 0.5958(5)
F4C F 0.21336(15) 0.59520(11) 1.4042(5)
F5F F 0.2622(2) 0.43405(12) 1.1933(6)
F5E F 0.2378(2) 0.93405(12) 0.8067(6)
F5C F 0.2622(2) 0.56595(12) 1.1933(6)
F6F F 0.1645(2) 0.44411(12) 1.1209(6)
F6E F 0.3355(2) 0.94411(12) 0.8791(6)
F6C F 0.1645(2) 0.55589(12) 1.1209(6)
O1F O 0.18291(10) 0.27365(8) 0.7515(3)
O1E O 0.31709(10) 0.77365(8) 1.2485(3)
O1C O 0.18291(10) 0.72635(8) 0.7515(3)
O2F O 0.23546(11) 0.32443(9) 1.1705(4)
O2E O 0.26454(11) 0.82443(9) 0.8295(4)
O2C O 0.23546(11) 0.67557(9) 1.1705(4)
C11F C 0.10654(18) 0.31903(14) 0.5090(7)
C11E C 0.39346(18) 0.81903(14) 1.4910(7)
C11C C 0.10654(18) 0.68097(14) 0.5090(7)
C12F C 0.15567(15) 0.31693(13) 0.7259(6)
C12E C 0.34433(15) 0.81693(13) 1.2741(6)
C12C C 0.15567(15) 0.68307(13) 0.7259(6)
C13F C 0.16331(18) 0.35916(13) 0.8623(6)
C13E C 0.33669(18) 0.85916(13) 1.1377(6)
C13C C 0.16331(18) 0.64084(13) 0.8623(6)
H7F H 0.1401 0.3895 0.8118
H7E H 0.3599 0.8895 1.1882
H7C H 0.1401 0.6105 0.8118
C14F C 0.20305(18) 0.36002(14) 1.0699(6)
C14E C 0.29695(18) 0.86002(14) 0.9301(6)
C14C C 0.20305(18) 0.63998(14) 1.0699(6)
C15F C 0.2100(3) 0.41214(17) 1.1959(8)
C15E C 0.2900(3) 0.91214(17) 0.8041(8)
C15C C 0.2100(3) 0.58786(17) 1.1959(8)
loop_
_geom_bond_atom_site_label_1
_geom_bond_atom_site_label_2
_geom_bond_site_symmetry_1
_geom_bond_site_symmetry_2
Cu1 N1 1_555 1_555
N1 C2 1_555 1_555
N2 Cu1 1_555 1_555
C1 H1 1_555 1_555
C2 C1 1_555 1_555
C3 C2 1_555 1_555
C4 N2 1_555 1_555
C5 C4 1_555 1_555
H2 C5 1_555 1_555
N3 C6 1_555 1_555
C6 H3 1_555 1_555
C7 C6 1_555 1_555
H4 C7 1_555 1_555
C8 C3 1_555 1_555
C9 C8 1_555 1_555
H5 C9 1_555 1_555
C10 N3 1_555 1_555
H6 C10 1_555 1_555
Cu2 N3 1_555 1_555
F1 C11 1_555 1_555
F2 C11 1_555 1_555
F3 C11 1_555 1_555
F4 C15 1_555 1_555
F5 C15 1_555 1_555
F6 C15 1_555 1_555
O1 Cu2 1_555 1_555
O2 Cu2 1_555 1_555
C11 C12 1_555 1_555
C12 O1 1_555 1_555
C13 C12 1_555 1_555
H7 C13 1_555 1_555
C14 O2 1_555 1_555
C15 C14 1_555 1_555
N1A Cu1 1_555 1_555
N2D Cu1 1_555 1_555
C1E C1 1_555 1_555
C1A C1D 1_555 1_555
C1D H1D 1_555 1_555
H1E C1E 1_555 1_555
H1A C1A 1_555 1_555
C2E N1 1_555 1_555
C2D N1A 1_555 1_555
C2A N1A 1_555 1_555
C3E C2E 1_555 1_555
C3D C2D 1_555 1_555
C3A C2A 1_555 1_555
C4E N2D 1_555 1_555
C4D N2D 1_555 1_555
C4A N2 1_555 1_555
C5A C5 1_555 1_555
C5D C4D 1_555 1_555
C5E C4E 1_555 1_555
H2A C5A 1_555 1_555
H2D C5D 1_555 1_555
H2E C5E 1_555 1_555
N3E C6E 1_555 1_555
N3A C6A 1_555 1_555
N3D C6D 1_555 1_555
N3F Cu2 1_555 1_555
N3C Cu2C 1_555 1_555
C6E H3E 1_555 1_555
C6A H3A 1_555 1_555
C6D H3D 1_555 1_555
C7E C6E 1_555 1_555
C7A C6A 1_555 1_555
C7D C6D 1_555 1_555
H4E C7E 1_555 1_555
H4A C7A 1_555 1_555
H4D C7D 1_555 1_555
C8E C3E 1_555 1_555
C8A C3A 1_555 1_555
C8D C3D 1_555 1_555
C9E C8E 1_555 1_555
C9A C8A 1_555 1_555
C9D C8D 1_555 1_555
H5E C9E 1_555 1_555
H5A C9A 1_555 1_555
H5D C9D 1_555 1_555
C10E N3E 1_555 1_555
C10A N3A 1_555 1_555
C10D N3D 1_555 1_555
H6E C10E 1_555 1_555
H6A C10A 1_555 1_555
H6D C10D 1_555 1_555
Cu2C N3E 1_555 1_555
Cu2A N3A 1_555 1_555
Cu2B N3D 1_555 1_555
F1F C11F 1_555 1_555
F1E C11E 1_555 1_555
F1C C11C 1_555 1_555
F2F C11F 1_555 1_555
F2E C11E 1_555 1_555
F2C C11C 1_555 1_555
F3F C11F 1_555 1_555
F3E C11E 1_555 1_555
F3C C11C 1_555 1_555
F4F C15F 1_555 1_555
F4E C15E 1_555 1_555
F4C C15C 1_555 1_555
F5F C15F 1_555 1_555
F5E C15E 1_555 1_555
F5C C15C 1_555 1_555
F6F C15F 1_555 1_555
F6E C15E 1_555 1_555
F6C C15C 1_555 1_555
O1F Cu2 1_555 1_555
O1E Cu2C 1_555 1_555
O1C Cu2C 1_555 1_555
O2F Cu2 1_555 1_555
O2E Cu2C 1_555 1_555
O2C Cu2C 1_555 1_555
C11F C12F 1_555 1_555
C11E C12E 1_555 1_555
C11C C12C 1_555 1_555
C12F O1F 1_555 1_555
C12E O1E 1_555 1_555
C12C O1C 1_555 1_555
C13F C12F 1_555 1_555
C13E C12E 1_555 1_555
C13C C12C 1_555 1_555
H7F C13F 1_555 1_555
H7E C13E 1_555 1_555
H7C C13C 1_555 1_555
C14F O2F 1_555 1_555
C14E O2E 1_555 1_555
C14C O2C 1_555 1_555
C15F C14F 1_555 1_555
C15E C14E 1_555 1_555
C15C C14C 1_555 1_555
C3 C4 1_555 1_555
C7 C8 1_555 1_555
C9 C10 1_555 1_555
C13 C14 1_555 1_555
C1E C2E 1_555 1_555
C1A C2A 1_555 1_555
C1D C2D 1_555 1_555
C3E C4E 1_555 1_555
C3D C4D 1_555 1_555
C3A C4A 1_555 1_555
C4A C5A 1_555 1_555
C5D C5E 1_555 1_555
C7E C8E 1_555 1_555
C7A C8A 1_555 1_555
C7D C8D 1_555 1_555
C9E C10E 1_555 1_555
C9A C10A 1_555 1_555
C9D C10D 1_555 1_555
C13F C14F 1_555 1_555
C13E C14E 1_555 1_555
C13C C14C 1_555 1_555

#END
