
#######################################################################
#
#                 Cambridge Crystallographic Data Centre
#                                CCDC 
#
#######################################################################
#
# If this CIF has been generated from an entry in the Cambridge 
# Structural Database, then it will include bibliographic, chemical, 
# crystal, experimental, refinement or atomic coordinate data resulting 
# from the CCDC's data processing and validation procedures.
#
#######################################################################

data_NUWQOL
_symmetry_cell_setting           monoclinic
_symmetry_space_group_name_H-M   'P 2/c'
_symmetry_Int_Tables_number      13
_space_group_name_Hall           '-P 2yc'
loop_
_symmetry_equiv_pos_site_id
_symmetry_equiv_pos_as_xyz
1 x,y,z
2 -x,y,1/2-z
3 -x,-y,-z
4 x,-y,1/2+z
_cell_length_a                   15.565(2)
_cell_length_b                   7.133(1)
_cell_length_c                   13.533(2)
_cell_angle_alpha                90
_cell_angle_beta                 109.93(1)
_cell_angle_gamma                90
_cell_volume                     1412.52
loop_
_atom_site_label
_atom_site_type_symbol
_atom_site_fract_x
_atom_site_fract_y
_atom_site_fract_z
O1 O 0.0997(2) 0.8531(4) 0.3304(2)
O2 O 0.0645(2) 0.7120(4) 0.1265(2)
O3 O 0.1335(2) 0.9281(4) 0.0607(2)
O4 O 0.1297(1) 0.4394(4) 0.4139(2)
O5 O 0.1833(2) 0.3531(5) 0.1508(2)
O6 O 0.0887(2) 0.2500(4) 0.2313(2)
C1 C 0.1260(2) 0.8318(5) 0.1334(2)
C2 C 0.2025(2) 0.8515(5) 0.2373(2)
C3 C 0.2923(2) 0.8617(6) 0.2407(3)
C4 C 0.3637(3) 0.8691(7) 0.3350(3)
C5 C 0.3433(3) 0.8702(7) 0.4275(3)
C6 C 0.2543(3) 0.8668(6) 0.4228(2)
N2 N 0.1847(2) 0.8554(4) 0.3299(2)
C7 C 0.1623(2) 0.3190(5) 0.2299(2)
C8 C 0.2365(2) 0.3579(5) 0.3336(2)
C9 C 0.3274(2) 0.3374(6) 0.3431(2)
C10 C 0.3961(2) 0.3569(7) 0.4395(3)
C11 C 0.3723(3) 0.4015(7) 0.5260(3)
C12 C 0.2825(2) 0.4283(6) 0.5147(2)
N3 N 0.2149(2) 0.4077(4) 0.4205(2)
Ag1 Ag 0.04154(2) 1.13240(4) 0.38988(2)
Ag2 Ag -0.06936(2) 0.69284(5) -0.00076(7)
Ag3 Ag 0.00000 0.56725(5) 0.25000
O1A O -0.0997(2) 0.8531(4) 0.1696(2)
O2A O -0.0645(2) 0.7120(4) 0.3735(2)
O3A O -0.1335(2) 0.9281(4) 0.4393(2)
C1A C -0.1260(2) 0.8318(5) 0.3666(2)
C2A C -0.2025(2) 0.8515(5) 0.2627(2)
C3A C -0.2923(2) 0.8617(6) 0.2593(3)
C4A C -0.3637(3) 0.8691(7) 0.1650(3)
C5A C -0.3433(3) 0.8702(7) 0.0725(3)
C6A C -0.2543(3) 0.8668(6) 0.0772(2)
N2A N -0.1847(2) 0.8554(4) 0.1701(2)
O4A O -0.1297(1) 0.4394(4) 0.0861(2)
O5A O -0.1833(2) 0.3531(5) 0.3492(2)
O6A O -0.0887(2) 0.2500(4) 0.2687(2)
C7A C -0.1623(2) 0.3190(5) 0.2701(2)
C8A C -0.2365(2) 0.3579(5) 0.1664(2)
C9A C -0.3274(2) 0.3374(6) 0.1569(2)
C10A C -0.3961(2) 0.3569(7) 0.0605(3)
C11A C -0.3723(3) 0.4015(7) -0.0260(3)
C12A C -0.2825(2) 0.4283(6) -0.0147(2)
N3A N -0.2149(2) 0.4077(4) 0.0795(2)
Ag1A Ag -0.04154(2) 1.13240(4) 0.11012(2)
Ag2A Ag 0.06936(2) 0.69284(5) 0.50076(7)
Ag1C Ag 0.04154(2) 0.86760(4) -0.11012(2)
Ag1_2 Ag 0.04154(2) 0.13240(4) 0.38988(2)
Ag2B Ag 0.06936(2) 0.30716(5) 0.00076(7)
Ag1A_2 Ag -0.04154(2) 0.13240(4) 0.11012(2)
O3C O 0.1335(2) 1.0719(4) 0.5607(2)
O4_2 O 0.1297(1) 1.4394(4) 0.4139(2)
O6_2 O 0.0887(2) 1.2500(4) 0.2313(2)
O6A_2 O -0.0887(2) 1.2500(4) 0.2687(2)
Ag2C Ag -0.06936(2) 1.30716(5) 0.49924(7)
O5B O -0.1833(2) 0.6469(5) -0.1508(2)
Ag1B Ag -0.04154(2) 0.86760(4) 0.61012(2)
Ag2C_2 Ag -0.06936(2) 0.30716(5) 0.49924(7)
O3B O -0.1335(2) 1.0719(4) -0.0607(2)
O4A_2 O -0.1297(1) 1.4394(4) 0.0861(2)
Ag2B_2 Ag 0.06936(2) 1.30716(5) 0.00076(7)
O5C O 0.1833(2) 0.6469(5) 0.6508(2)
N1 N 0.50000 0.205(1) 0.25000
O7 O 0.4488(3) 0.122(1) 0.1753(3)
O8 O 0.50000 0.380(1) 0.25000
O7A O 0.5512(3) 0.122(1) 0.3247(3)
loop_
_geom_bond_atom_site_label_1
_geom_bond_atom_site_label_2
_geom_bond_site_symmetry_1
_geom_bond_site_symmetry_2
O1 N2 1_555 1_555
O2 C1 1_555 1_555
O3 C1 1_555 1_555
O4 N3 1_555 1_555
O5 C7 1_555 1_555
O6 C7 1_555 1_555
N1 O7 1_555 1_555
O8 N1 1_555 1_555
C1 C2 1_555 1_555
C2 C3 1_555 1_555
C3 C4 1_555 1_555
C4 C5 1_555 1_555
C5 C6 1_555 1_555
C6 N2 1_555 1_555
N2 C2 1_555 1_555
C7 C8 1_555 1_555
C8 C9 1_555 1_555
C9 C10 1_555 1_555
C10 C11 1_555 1_555
C11 C12 1_555 1_555
C12 N3 1_555 1_555
N3 C8 1_555 1_555
Ag1 O1 1_555 1_555
Ag2 O2 1_555 1_555
Ag3 O1 1_555 1_555
O7A N1 1_555 1_555
O1A Ag3 1_555 1_555
O2A Ag3 1_555 1_555
O3A C1A 1_555 1_555
C1A O2A 1_555 1_555
C2A C1A 1_555 1_555
C3A C2A 1_555 1_555
C4A C3A 1_555 1_555
C5A C4A 1_555 1_555
C6A C5A 1_555 1_555
N2A O1A 1_555 1_555
O4A Ag2 1_555 1_555
O5A C7A 1_555 1_555
O6A C7A 1_555 1_555
C7A C8A 1_555 1_555
C8A C9A 1_555 1_555
C9A C10A 1_555 1_555
C10A C11A 1_555 1_555
C11A C12A 1_555 1_555
C12A N3A 1_555 1_555
N3A O4A 1_555 1_555
Ag1A O1A 1_555 1_555
Ag2A O4 1_555 1_555
Ag1C O3 1_555 1_555
Ag1_2 O4 1_555 1_555
Ag2B O5 1_555 1_555
Ag1A_2 O6 1_555 1_555
O3C Ag1 1_555 1_555
O4_2 Ag1 1_555 1_555
O6_2 Ag1 1_555 1_555
O6A_2 Ag1 1_555 1_555
Ag2C Ag1 1_555 1_555
O5B Ag2 1_555 1_555
Ag1B O3A 1_555 1_555
Ag2C_2 O5A 1_555 1_555
O3B Ag1A 1_555 1_555
O4A_2 Ag1A 1_555 1_555
Ag2B_2 Ag1A 1_555 1_555
O5C Ag2A 1_555 1_555
O2 Ag3 1_555 1_555
O4 Ag3 1_555 1_555
O6 Ag1_2 1_555 1_555
Ag2 Ag1C 1_555 1_555
Ag3 O4A 1_555 1_555
O2A Ag2A 1_555 1_555
C2A N2A 1_555 1_555
C6A N2A 1_555 1_555
O4A Ag1A_2 1_555 1_555
O6A Ag1_2 1_555 1_555
O6A Ag1A_2 1_555 1_555
C8A N3A 1_555 1_555
Ag1A O6_2 1_555 1_555
Ag1A O6A_2 1_555 1_555
Ag2A Ag1B 1_555 1_555
Ag1_2 Ag2C_2 1_555 1_555
Ag2B Ag1A_2 1_555 1_555

#END
