
#######################################################################
#
#                 Cambridge Crystallographic Data Centre
#                                CCDC 
#
#######################################################################
#
# If this CIF has been generated from an entry in the Cambridge 
# Structural Database, then it will include bibliographic, chemical, 
# crystal, experimental, refinement or atomic coordinate data resulting 
# from the CCDC's data processing and validation procedures.
#
#######################################################################

data_NUWRUT01
_symmetry_cell_setting           monoclinic
_symmetry_space_group_name_H-M   'P c'
_symmetry_Int_Tables_number      7
_space_group_name_Hall           'P -2yc'
loop_
_symmetry_equiv_pos_site_id
_symmetry_equiv_pos_as_xyz
1 x,y,z
2 x,-y,1/2+z
_cell_length_a                   9.5281(19)
_cell_length_b                   6.6503(13)
_cell_length_c                   16.125(3)
_cell_angle_alpha                90
_cell_angle_beta                 96.73(3)
_cell_angle_gamma                90
_cell_volume                     1014.72
loop_
_atom_site_label
_atom_site_type_symbol
_atom_site_fract_x
_atom_site_fract_y
_atom_site_fract_z
Dy1 Dy 0.822913(17) 0.17035(4) 0.350792(13)
Dy2 Dy 1.006595(16) 0.32743(4) 0.148820(12)
S1 S 0.82218(16) 0.67176(17) 0.27203(10)
O1 O 0.8390(4) 0.5235(6) 0.3376(2)
O2 O 0.9016(5) 0.8583(6) 0.3000(3)
O3 O 0.6724(4) 0.7213(6) 0.2478(2)
O4 O 0.8848(4) 0.5956(6) 0.1986(2)
O5 O 0.9816(5) 0.2388(6) 0.4613(3)
O6 O 1.0709(4) 0.3859(6) 0.5773(2)
O7 O 1.0420(4) 0.2398(6) 0.3022(2)
O8 O 1.2053(4) 0.4124(6) 0.2492(2)
O9 O 0.6103(5) 0.1806(5) 0.2579(3)
O10 O 0.7982(5) 0.1871(5) 0.1927(3)
O11 O 0.8480(5) 0.3018(6) 0.0385(3)
O12 O 0.7758(4) 0.0824(6) -0.0597(2)
O13 O 1.0519(4) -0.0190(6) 0.1716(2)
H1 H 1.0978 -0.0581 0.2171
H2 H 1.0222 -0.1044 0.1344
N1 N 1.5983(8) 0.3100(8) 0.5779(5)
H3 H 1.6099 0.3107 0.6316
N2 N 1.6567(7) 0.2997(8) 0.4467(4)
N3 N 0.1724(7) 0.2104(8) 0.0460(4)
N4 N 0.2380(8) 0.1878(8) -0.0819(5)
H4 H 0.2323 0.1783 -0.1354
C1 C 1.0829(9) 0.3157(10) 0.5033(5)
C2 C 1.2275(9) 0.3165(10) 0.4777(5)
C3 C 1.3358(9) 0.3205(10) 0.5401(5)
H5 H 1.3151 0.3281 0.5950
C4 C 1.4700(10) 0.3140(10) 0.5261(6)
C5 C 1.5079(9) 0.3088(10) 0.4441(6)
C6 C 1.4036(9) 0.3169(9) 0.3765(5)
H6 H 1.4280 0.3223 0.3224
C7 C 1.2601(9) 0.3169(10) 0.3906(5)
C8 C 1.1643(10) 0.3220(10) 0.3134(6)
C9 C 1.7015(10) 0.3046(9) 0.5260(5)
H7 H 1.7971 0.3044 0.5460
C10 C 0.6659(11) 0.1858(10) 0.1911(6)
C11 C 0.5628(9) 0.1942(10) 0.1087(5)
C12 C 0.4230(9) 0.1994(10) 0.1200(5)
H8 H 0.3973 0.2044 0.1738
C13 C 0.3189(9) 0.1974(10) 0.0524(6)
C14 C 0.3575(10) 0.1877(10) -0.0275(6)
C15 C 0.5033(9) 0.1782(10) -0.0433(5)
H9 H 0.5288 0.1675 -0.0970
C16 C 0.6051(9) 0.1861(10) 0.0282(5)
C17 C 0.7539(9) 0.1863(11) 0.0004(5)
C18 C 0.1286(10) 0.2060(10) -0.0352(5)
H10 H 0.0342 0.2144 -0.0576
Dy1_2 Dy 0.822913(17) 1.17035(4) 0.350792(13)
Dy1_3 Dy 1.822913(17) 0.17035(4) 0.350792(13)
Dy1A Dy 0.822913(17) -0.17035(4) -0.149208(13)
Dy2_2 Dy 0.006595(16) 0.32743(4) 0.148820(12)
Dy2A Dy 1.006595(16) 0.67257(4) 0.648820(12)
O2_2 O 0.9016(5) -0.1417(6) 0.3000(3)
O6A O 1.0709(4) 0.6141(6) 0.0773(2)
O12A O 0.7758(4) -0.0824(6) 0.4403(2)
N2_2 N 0.6567(7) 0.2997(8) 0.4467(4)
N3_2 N 1.1724(7) 0.2104(8) 0.0460(4)
O14 O 0.3601(4) 0.7738(7) 0.2578(3)
H11 H 0.358(5) 0.6448(16) 0.260(4)
H12 H 0.436(3) 0.837(5) 0.276(4)
loop_
_geom_bond_atom_site_label_1
_geom_bond_atom_site_label_2
_geom_bond_site_symmetry_1
_geom_bond_site_symmetry_2
Dy1 O1 1_555 1_555
Dy2 O4 1_555 1_555
S1 O1 1_555 1_555
O2 S1 1_555 1_555
O3 S1 1_555 1_555
O4 S1 1_555 1_555
O5 Dy1 1_555 1_555
O6 C1 1_555 1_555
O7 Dy1 1_555 1_555
O8 Dy2 1_555 1_555
O9 Dy1 1_555 1_555
O10 Dy1 1_555 1_555
O11 Dy2 1_555 1_555
O12 C17 1_555 1_555
O13 Dy2 1_555 1_555
H1 O13 1_555 1_555
H2 O13 1_555 1_555
N1 H3 1_555 1_555
N2 C5 1_555 1_555
N3 C13 1_555 1_555
N4 H4 1_555 1_555
C1 O5 1_555 1_555
C2 C1 1_555 1_555
C3 C2 1_555 1_555
H5 C3 1_555 1_555
C4 N1 1_555 1_555
C5 C4 1_555 1_555
C6 C5 1_555 1_555
H6 C6 1_555 1_555
C7 C2 1_555 1_555
C8 O7 1_555 1_555
C9 N1 1_555 1_555
H7 C9 1_555 1_555
C10 O9 1_555 1_555
C11 C10 1_555 1_555
C12 C11 1_555 1_555
H8 C12 1_555 1_555
C13 C12 1_555 1_555
C14 N4 1_555 1_555
C15 C14 1_555 1_555
H9 C15 1_555 1_555
C16 C11 1_555 1_555
C17 O11 1_555 1_555
C18 N3 1_555 1_555
H10 C18 1_555 1_555
O14 H11 1_555 1_555
H12 O14 1_555 1_555
Dy1_2 O2 1_555 1_555
Dy1_3 N2 1_555 1_555
Dy1A O12 1_555 1_555
Dy2_2 N3 1_555 1_555
Dy2A O6 1_555 1_555
O2_2 Dy1 1_555 1_555
O6A Dy2 1_555 1_555
O12A Dy1 1_555 1_555
N2_2 Dy1 1_555 1_555
N3_2 Dy2 1_555 1_555
Dy2 O7 1_555 1_555
Dy2 O10 1_555 1_555
O8 C8 1_555 1_555
O10 C10 1_555 1_555
N2 C9 1_555 1_555
N4 C18 1_555 1_555
C3 C4 1_555 1_555
C6 C7 1_555 1_555
C7 C8 1_555 1_555
C13 C14 1_555 1_555
C15 C16 1_555 1_555
C16 C17 1_555 1_555

#END
