
#######################################################################
#
#                 Cambridge Crystallographic Data Centre
#                                CCDC 
#
#######################################################################
#
# If this CIF has been generated from an entry in the Cambridge 
# Structural Database, then it will include bibliographic, chemical, 
# crystal, experimental, refinement or atomic coordinate data resulting 
# from the CCDC's data processing and validation procedures.
#
#######################################################################

data_NUWSUT
_symmetry_cell_setting           triclinic
_symmetry_space_group_name_H-M   'P -1'
_symmetry_Int_Tables_number      2
_space_group_name_Hall           '-P 1'
loop_
_symmetry_equiv_pos_site_id
_symmetry_equiv_pos_as_xyz
1 x,y,z
2 -x,-y,-z
_cell_length_a                   7.1266(8)
_cell_length_b                   8.1056(8)
_cell_length_c                   14.523(4)
_cell_angle_alpha                73.76(2)
_cell_angle_beta                 80.29(2)
_cell_angle_gamma                82.58(1)
_cell_volume                     790.929
loop_
_atom_site_label
_atom_site_type_symbol
_atom_site_fract_x
_atom_site_fract_y
_atom_site_fract_z
Sn1 Sn 0.5211(1) 0.2059(1) -0.0856(1)
O1 O 0.4617(5) -0.0424(4) -0.0697(2)
O2 O 0.5175(5) -0.2419(4) 0.2306(2)
O3 O 0.4265(5) 0.4463(4) 0.1700(3)
N1 N 0.3219(6) -0.0371(5) 0.4163(3)
C1 C 0.3641(6) -0.1596(6) 0.3695(3)
C2 C 0.4676(6) -0.1182(5) 0.2765(3)
C3 C 0.5240(6) 0.0462(6) 0.2351(3)
C4 C 0.4729(7) 0.1724(6) 0.2865(3)
C5 C 0.3720(7) 0.1247(6) 0.3785(3)
C6 C 0.5245(8) 0.3552(6) 0.2472(4)
C7 C 0.3015(8) -0.3337(6) 0.4195(4)
C8 C 0.6382(7) 0.0824(6) 0.1362(3)
C9 C 0.1792(7) -0.2025(7) 0.1054(4)
C10 C 0.7340(7) -0.3342(7) 0.0359(4)
H1 H 0.2552 -0.0617 0.4796
H2 H 0.2824 0.4266 0.1858
H3 H 0.3353 0.1978 0.4185
H4 H 0.6667 0.3684 0.2215
H5 H 0.5260 0.4067 0.3060
H6 H 0.2290 -0.3536 0.4869
H7 H 0.3843 -0.4044 0.4002
H8 H 0.2201 -0.3826 0.3735
H9 H 0.7614 0.0054 0.1419
H10 H 0.6861 0.1983 0.1160
H11 H 0.1243 -0.1100 0.1339
H12 H 0.1399 -0.3067 0.1474
H13 H 0.1353 -0.1824 0.0449
H14 H 0.8183 -0.2517 0.0048
H15 H 0.7152 -0.3779 -0.0155
H16 H 0.7749 -0.4263 0.1013
Sn1A Sn 0.4789(1) -0.2059(1) 0.0856(1)
O1A O 0.5383(5) 0.0424(4) 0.0697(2)
Sn1A_2 Sn 0.4789(1) 0.7941(1) 0.0856(1)
O3_2 O 0.4265(5) -0.5537(4) 0.1700(3)
H2_2 H 0.2824 -0.5734 0.1858
N2 N 0.1065(6) -0.0062(6) -0.3634(3)
O4 O 0.1324(6) -0.1317(5) -0.3969(3)
O5 O 0.0266(6) -0.0189(6) -0.2788(3)
O6 O 0.1620(6) 0.1324(5) -0.4142(3)
O7 O 0.0584(6) -0.6103(5) 0.2210(3)
H17 H 0.0023 -0.5374 0.2608
O8 O 0.8340(6) -0.4076(5) 0.3308(3)
H18 H 0.7611 -0.4144 0.3026
H19 H 0.8137 -0.3273 0.3540
loop_
_geom_bond_atom_site_label_1
_geom_bond_atom_site_label_2
_geom_bond_site_symmetry_1
_geom_bond_site_symmetry_2
Sn1 O1 1_555 1_555
O1 Sn1A 1_555 1_555
O2 C2 1_555 1_555
O3 C6 1_555 1_555
N1 C1 1_555 1_555
C1 C2 1_555 1_555
C2 C3 1_555 1_555
C3 C4 1_555 1_555
C4 C5 1_555 1_555
C5 N1 1_555 1_555
C6 C4 1_555 1_555
C7 C1 1_555 1_555
C8 C3 1_555 1_555
C9 H11 1_555 1_555
C10 H14 1_555 1_555
N2 O4 1_555 1_555
O5 N2 1_555 1_555
O6 N2 1_555 1_555
O7 H17 1_555 1_555
O8 H18 1_555 1_555
H1 N1 1_555 1_555
H2 O3 1_555 1_555
H3 C5 1_555 1_555
H4 C6 1_555 1_555
H5 C6 1_555 1_555
H6 C7 1_555 1_555
H7 C7 1_555 1_555
H8 C7 1_555 1_555
H9 C8 1_555 1_555
H10 C8 1_555 1_555
H12 C9 1_555 1_555
H13 C9 1_555 1_555
H15 C10 1_555 1_555
H16 C10 1_555 1_555
H19 O8 1_555 1_555
Sn1A O2 1_555 1_555
O1A Sn1 1_555 1_555
Sn1A_2 O3 1_555 1_555
O3_2 Sn1A 1_555 1_555
H2_2 O3_2 1_555 1_555
C8 O1A 1_555 1_555
C9 Sn1A 1_555 1_555
C10 Sn1A 1_555 1_555
Sn1A O1A 1_555 1_555

#END
