
#######################################################################
#
#                 Cambridge Crystallographic Data Centre
#                                CCDC 
#
#######################################################################
#
# If this CIF has been generated from an entry in the Cambridge 
# Structural Database, then it will include bibliographic, chemical, 
# crystal, experimental, refinement or atomic coordinate data resulting 
# from the CCDC's data processing and validation procedures.
#
#######################################################################

data_NUWSOO
_symmetry_cell_setting           triclinic
_symmetry_space_group_name_H-M   'P -1'
_symmetry_Int_Tables_number      2
_space_group_name_Hall           '-P 1'
loop_
_symmetry_equiv_pos_site_id
_symmetry_equiv_pos_as_xyz
1 x,y,z
2 -x,-y,-z
_cell_length_a                   9.5697(13)
_cell_length_b                   9.9532(13)
_cell_length_c                   14.288(2)
_cell_angle_alpha                91.200(2)
_cell_angle_beta                 107.652(2)
_cell_angle_gamma                118.4730(10)
_cell_volume                     1117.5
loop_
_atom_site_label
_atom_site_type_symbol
_atom_site_fract_x
_atom_site_fract_y
_atom_site_fract_z
C1 C 0.7858(10) 0.1240(9) 0.2559(6)
C2 C 0.6646(10) -0.0448(9) 0.2103(6)
C3 C 0.5426(10) -0.0813(9) 0.1158(6)
H1 H 0.5275 -0.0048 0.0860
C4 C 0.4445(10) -0.2371(10) 0.0680(6)
C5 C 0.2759(12) -0.4636(11) -0.0346(7)
H2 H 0.1950 -0.5386 -0.0918
C6 C 0.4652(10) -0.3519(10) 0.1116(6)
C7 C 0.5896(10) -0.3152(10) 0.2075(6)
H3 H 0.6053 -0.3921 0.2364
C8 C 0.6871(10) -0.1609(9) 0.2567(6)
C9 C 0.8195(9) -0.1285(8) 0.3562(5)
C10 C 0.4133(8) 0.0405(9) 0.3560(5)
C11 C 0.3166(9) 0.0004(9) 0.2457(6)
C12 C 0.3523(11) 0.1242(10) 0.1968(6)
H4 H 0.4286 0.2265 0.2314
C13 C 0.2696(10) 0.0898(10) 0.0935(6)
C14 C 0.1571(11) 0.0843(10) -0.0654(6)
H5 H 0.1330 0.1195 -0.1248
C15 C 0.1608(10) -0.0649(10) 0.0404(6)
C16 C 0.1286(10) -0.1894(9) 0.0898(6)
H6 H 0.0581 -0.2918 0.0545
C17 C 0.2047(10) -0.1560(10) 0.1934(6)
C18 C 0.1591(10) -0.2867(10) 0.2469(6)
N1 N 0.3223(9) -0.3112(8) -0.0262(5)
H7 H 0.2834 -0.2688 -0.0707
N2 N 0.3554(10) -0.4950(9) 0.0451(6)
N3 N 0.0905(9) -0.0636(8) -0.0609(5)
N4 N 0.2634(9) 0.1807(9) 0.0234(5)
H8 H 0.3176 0.2809 0.0343
O1 O 0.8120(8) 0.2251(7) 0.2018(4)
O2 O 0.8742(7) 0.1631(6) 0.3489(4)
O3 O 0.7899(7) -0.1045(7) 0.4354(4)
O4 O 0.9490(7) -0.1294(7) 0.3582(4)
O5 O 0.3523(7) 0.0652(7) 0.4165(4)
O6 O 0.5506(7) 0.0382(7) 0.3839(4)
O7 O 0.1892(7) -0.2646(7) 0.3408(4)
O8 O 0.0862(8) -0.4254(7) 0.1986(4)
O9 O 0.7774(7) 0.3673(7) 0.4868(4)
O10 O 0.8589(8) 0.4616(8) 0.3449(4)
O11 O 0.6160(7) 0.4561(7) 0.3660(4)
O12 O 0.9000(7) 0.6361(7) 0.4835(4)
O13 O 0.8416(8) 0.6704(8) 0.7961(5)
H9 H 0.8073 0.6012 0.8307
H10 H 0.9294 0.7527 0.8343
O14 O 0.7568(10) 0.7162(9) 0.5955(5)
H11 H 0.7836 0.7596 0.5482
H12 H 0.7834 0.7807 0.6467
O15 O 0.5842(8) 0.3964(8) 0.6168(6)
H13 H 0.5277 0.4004 0.5592
H14 H 0.5805 0.4464 0.6641
Pr1 Pr 0.82305(5) 0.13701(5) 0.51085(3)
Pr2 Pr 0.90053(5) 0.56440(5) 0.65929(3)
S1 S 0.7833(2) 0.4778(2) 0.41654(14)
O1A O 1.1880(8) 0.7749(7) 0.7982(4)
O2A O 1.1258(7) 0.8369(6) 0.6511(4)
O4A O 1.0510(7) 0.1294(7) 0.6418(4)
O5A O 0.6477(7) -0.0652(7) 0.5835(4)
O7A O 0.8108(7) 0.2646(7) 0.6592(4)
O8A O 0.9138(8) 0.4254(7) 0.8014(4)
O10A O 1.1411(8) 0.5384(8) 0.6551(4)
O12A O 1.1000(7) 0.3639(7) 0.5165(4)
Pr1A Pr 1.17695(5) -0.13701(5) 0.48915(3)
Pr1A_2 Pr 0.17695(5) -0.13701(5) 0.48915(3)
Pr1A_3 Pr 1.17695(5) 0.86299(5) 0.48915(3)
Pr2A Pr 1.09947(5) 0.43560(5) 0.34071(3)
Pr2A_2 Pr 0.09947(5) -0.56440(5) 0.34071(3)
loop_
_geom_bond_atom_site_label_1
_geom_bond_atom_site_label_2
_geom_bond_site_symmetry_1
_geom_bond_site_symmetry_2
C1 C2 1_555 1_555
C2 C3 1_555 1_555
C3 H1 1_555 1_555
C4 C3 1_555 1_555
C5 H2 1_555 1_555
C6 C4 1_555 1_555
C7 C6 1_555 1_555
H3 C7 1_555 1_555
C8 C2 1_555 1_555
C9 C8 1_555 1_555
C10 C11 1_555 1_555
C11 C12 1_555 1_555
C12 H4 1_555 1_555
C13 C12 1_555 1_555
C14 H5 1_555 1_555
C15 C13 1_555 1_555
C16 C15 1_555 1_555
H6 C16 1_555 1_555
C17 C11 1_555 1_555
C18 C17 1_555 1_555
N1 C4 1_555 1_555
H7 N1 1_555 1_555
N2 C5 1_555 1_555
N3 C14 1_555 1_555
N4 C13 1_555 1_555
H8 N4 1_555 1_555
O1 C1 1_555 1_555
O2 C1 1_555 1_555
O3 C9 1_555 1_555
O4 C9 1_555 1_555
O5 C10 1_555 1_555
O6 C10 1_555 1_555
O7 C18 1_555 1_555
O8 C18 1_555 1_555
O9 Pr1 1_555 1_555
O10 S1 1_555 1_555
O11 S1 1_555 1_555
O12 Pr2 1_555 1_555
O13 H9 1_555 1_555
H10 O13 1_555 1_555
O14 H11 1_555 1_555
H12 O14 1_555 1_555
O15 H13 1_555 1_555
H14 O15 1_555 1_555
Pr1 O2 1_555 1_555
Pr2 O9 1_555 1_555
S1 O9 1_555 1_555
O1A Pr2 1_555 1_555
O2A Pr2 1_555 1_555
O4A Pr1 1_555 1_555
O5A Pr1 1_555 1_555
O7A Pr1 1_555 1_555
O8A Pr2 1_555 1_555
O10A Pr2 1_555 1_555
O12A Pr1 1_555 1_555
Pr1A O4 1_555 1_555
Pr1A_2 O5 1_555 1_555
Pr1A_3 O12 1_555 1_555
Pr2A O1 1_555 1_555
Pr2A_2 O7 1_555 1_555
C5 N1 1_555 1_555
C6 N2 1_555 1_555
C7 C8 1_555 1_555
C14 N4 1_555 1_555
C15 N3 1_555 1_555
C16 C17 1_555 1_555
O2 Pr2A 1_555 1_555
O3 Pr1 1_555 1_555
O6 Pr1 1_555 1_555
O7 Pr1A_2 1_555 1_555
O8 Pr2A_2 1_555 1_555
O10 Pr2A 1_555 1_555
O12 S1 1_555 1_555
O13 Pr2 1_555 1_555
O14 Pr2 1_555 1_555
O15 Pr2 1_555 1_555
Pr2 O7A 1_555 1_555
O2A Pr1A_3 1_555 1_555
O12A Pr2A 1_555 1_555

#END
