
#######################################################################
#
#                 Cambridge Crystallographic Data Centre
#                                CCDC 
#
#######################################################################
#
# If this CIF has been generated from an entry in the Cambridge 
# Structural Database, then it will include bibliographic, chemical, 
# crystal, experimental, refinement or atomic coordinate data resulting 
# from the CCDC's data processing and validation procedures.
#
#######################################################################

data_NUWSEE
_symmetry_cell_setting           triclinic
_symmetry_space_group_name_H-M   'P -1'
_symmetry_Int_Tables_number      2
_space_group_name_Hall           '-P 1'
loop_
_symmetry_equiv_pos_site_id
_symmetry_equiv_pos_as_xyz
1 x,y,z
2 -x,-y,-z
_cell_length_a                   9.4361(15)
_cell_length_b                   9.8459(15)
_cell_length_c                   14.246(2)
_cell_angle_alpha                91.443(2)
_cell_angle_beta                 107.665(2)
_cell_angle_gamma                118.251(2)
_cell_volume                     1088.22
loop_
_atom_site_label
_atom_site_type_symbol
_atom_site_fract_x
_atom_site_fract_y
_atom_site_fract_z
C1 C 0.8462(7) 0.2904(7) 0.7479(4)
C2 C 0.7998(7) 0.1579(6) 0.8024(4)
C3 C 0.8752(7) 0.1943(7) 0.9072(4)
H1 H 0.9458 0.2981 0.9421
C4 C 0.8412(7) 0.0702(7) 0.9574(4)
C5 C 0.8434(8) -0.0792(7) 1.0642(4)
H2 H 0.8690 -0.1136 1.1240
C6 C 0.7299(7) -0.0859(6) 0.9036(4)
C7 C 0.6474(7) -0.1231(6) 0.8001(4)
H3 H 0.5706 -0.2268 0.7660
C8 C 0.6846(7) 0.0013(6) 0.7497(4)
C9 C 0.5882(7) -0.0372(6) 0.6398(4)
C10 C 0.8229(7) -0.1238(6) 0.3600(4)
C11 C 0.6881(7) -0.1607(7) 0.2584(4)
C12 C 0.5901(8) -0.3161(7) 0.2077(4)
H4 H 0.6057 -0.3938 0.2370
C13 C 0.4680(8) -0.3539(7) 0.1123(4)
C14 C 0.2766(8) -0.4653(7) -0.0361(5)
H5 H 0.1958 -0.5403 -0.0942
C15 C 0.4434(7) -0.2370(7) 0.0684(4)
C16 C 0.5419(7) -0.0809(7) 0.1172(4)
H6 H 0.5263 -0.0038 0.0872
C17 C 0.6635(7) -0.0430(6) 0.2110(4)
C18 C 0.7882(7) 0.1258(6) 0.2579(4)
Gd1 Gd 0.82355(3) 0.13818(3) 0.509433(19)
Gd2 Gd 1.09627(3) 0.43382(3) 0.34318(2)
N1 N 0.9098(7) 0.0710(6) 1.0585(4)
N2 N 0.7357(6) -0.1765(6) 0.9754(4)
H7 H 0.6800 -0.2776 0.9649
N3 N 0.3580(7) -0.4984(6) 0.0448(4)
N4 N 0.3213(6) -0.3138(6) -0.0264(4)
H8 H 0.2811 -0.2715 -0.0712
O1 O 0.9167(6) 0.4297(5) 0.7951(3)
O2 O 0.8151(5) 0.2654(5) 0.6536(3)
O3 O 0.6500(5) -0.0631(4) 0.5786(3)
O4 O 0.4464(5) -0.0426(5) 0.6135(3)
O5 O 0.7947(5) -0.0984(4) 0.4387(3)
O6 O 0.9519(5) -0.1320(5) 0.3607(3)
O7 O 0.8769(5) 0.1684(4) 0.3524(3)
O8 O 0.8169(5) 0.2276(5) 0.2039(3)
O9 O 0.9047(5) 0.6372(5) 0.4836(3)
O10 O 0.8574(5) 0.4578(5) 0.3436(3)
O11 O 0.6153(5) 0.4570(5) 0.3675(3)
O12 O 0.7789(5) 0.3683(5) 0.4873(3)
O13 O 1.1615(6) 0.3338(5) 0.2104(3)
H9 H 1.0942 0.3282 0.1531
H10 H 1.1467 0.2428 0.2163
O14 O 1.4063(6) 0.6008(5) 0.3829(4)
H11 H 1.4397 0.6924 0.4125
H12 H 1.4588 0.5614 0.4212
O15 O 1.2408(7) 0.2871(6) 0.4061(4)
H13 H 1.2385 0.2348 0.3568
H14 H 1.1889 0.2244 0.4398
S1 S 0.78397(17) 0.47771(15) 0.41631(10)
Gd1A Gd 0.17645(3) -0.13818(3) 0.490567(19)
Gd1A_2 Gd 1.17645(3) -0.13818(3) 0.490567(19)
Gd1A_3 Gd 1.17645(3) 0.86182(3) 0.490567(19)
Gd2A Gd 0.90373(3) 0.56618(3) 0.65682(2)
O1A O 1.0833(6) 0.5703(5) 0.2049(3)
O2A O 1.1849(5) 0.7346(5) 0.3464(3)
O4A O 0.5536(5) 0.0426(5) 0.3865(3)
O6A O 1.0481(5) 0.1320(5) 0.6393(3)
O9A O 1.0953(5) 0.3628(5) 0.5164(3)
O12A O 1.2211(5) 0.6317(5) 0.5127(3)
loop_
_geom_bond_atom_site_label_1
_geom_bond_atom_site_label_2
_geom_bond_site_symmetry_1
_geom_bond_site_symmetry_2
C1 C2 1_555 1_555
C2 C3 1_555 1_555
C3 H1 1_555 1_555
C4 C3 1_555 1_555
C5 H2 1_555 1_555
C6 C4 1_555 1_555
C7 C6 1_555 1_555
H3 C7 1_555 1_555
C8 C2 1_555 1_555
C9 C8 1_555 1_555
C10 C11 1_555 1_555
C11 C12 1_555 1_555
C12 H4 1_555 1_555
C13 C12 1_555 1_555
C14 H5 1_555 1_555
C15 C13 1_555 1_555
C16 C15 1_555 1_555
H6 C16 1_555 1_555
C17 C11 1_555 1_555
C18 C17 1_555 1_555
Gd1 O2 1_555 1_555
Gd2 O7 1_555 1_555
N1 C4 1_555 1_555
N2 C5 1_555 1_555
H7 N2 1_555 1_555
N3 C13 1_555 1_555
N4 C14 1_555 1_555
H8 N4 1_555 1_555
O1 C1 1_555 1_555
O2 C1 1_555 1_555
O3 C9 1_555 1_555
O4 C9 1_555 1_555
O5 C10 1_555 1_555
O6 C10 1_555 1_555
O7 C18 1_555 1_555
O8 C18 1_555 1_555
O9 S1 1_555 1_555
O10 Gd2 1_555 1_555
O11 S1 1_555 1_555
O12 Gd1 1_555 1_555
O13 Gd2 1_555 1_555
H9 O13 1_555 1_555
H10 O13 1_555 1_555
O14 Gd2 1_555 1_555
H11 O14 1_555 1_555
H12 O14 1_555 1_555
O15 Gd2 1_555 1_555
H13 O15 1_555 1_555
H14 O15 1_555 1_555
S1 O10 1_555 1_555
Gd1A O4 1_555 1_555
Gd1A_2 O6 1_555 1_555
Gd1A_3 O9 1_555 1_555
Gd2A O1 1_555 1_555
O1A Gd2 1_555 1_555
O2A Gd2 1_555 1_555
O4A Gd1 1_555 1_555
O6A Gd1 1_555 1_555
O9A Gd1 1_555 1_555
O12A Gd2 1_555 1_555
C5 N1 1_555 1_555
C6 N2 1_555 1_555
C7 C8 1_555 1_555
C14 N3 1_555 1_555
C15 N4 1_555 1_555
C16 C17 1_555 1_555
Gd1 O3 1_555 1_555
Gd1 O5 1_555 1_555
Gd1 O7 1_555 1_555
Gd2 O8 1_555 1_555
Gd2 O9A 1_555 1_555
O2 Gd2A 1_555 1_555
O9 Gd2A 1_555 1_555
O12 S1 1_555 1_555
O12 Gd2A 1_555 1_555
Gd1A_3 O2A 1_555 1_555
Gd1A_3 O12A 1_555 1_555

#END
