
#######################################################################
#
#                 Cambridge Crystallographic Data Centre
#                                CCDC 
#
#######################################################################
#
# If this CIF has been generated from an entry in the Cambridge 
# Structural Database, then it will include bibliographic, chemical, 
# crystal, experimental, refinement or atomic coordinate data resulting 
# from the CCDC's data processing and validation procedures.
#
#######################################################################

data_NUWSAA
_symmetry_cell_setting           monoclinic
_symmetry_space_group_name_H-M   'P 21/c'
_symmetry_Int_Tables_number      14
_space_group_name_Hall           '-P 2ybc'
loop_
_symmetry_equiv_pos_site_id
_symmetry_equiv_pos_as_xyz
1 x,y,z
2 -x,1/2+y,1/2-z
3 -x,-y,-z
4 x,1/2-y,1/2+z
_cell_length_a                   9.5378(8)
_cell_length_b                   6.6828(5)
_cell_length_c                   16.1310(13)
_cell_angle_alpha                90
_cell_angle_beta                 96.7490(10)
_cell_angle_gamma                90
_cell_volume                     1021.05
loop_
_atom_site_label
_atom_site_type_symbol
_atom_site_fract_x
_atom_site_fract_y
_atom_site_fract_z
Er1 Er 0.40934(5) -0.42155(8) 0.60137(3)
S1 S 0.4066(7) 0.0815(9) 0.5218(4)
O1 O 0.2027(11) -0.378(2) 0.5058(6)
O2 O 0.3786(11) -0.4790(17) 0.4469(6)
O3 O 0.4347(9) -0.5300(15) 0.2889(6)
O4 O 0.3534(9) -0.3409(17) 0.1828(6)
O5 O 0.5008(19) -0.132(3) 0.5498(11)
O6 O 0.3998(17) 0.2316(18) 0.5862(7)
O7 O 0.257(2) 0.046(3) 0.4963(12)
N1 N -0.1783(11) -0.4359(17) 0.1717(7)
H3 H -0.1860 -0.4333 0.1181
N2 N -0.2421(10) -0.4529(17) 0.3015(6)
C1 C 0.2516(12) -0.4313(18) 0.4397(7)
C2 C 0.1518(13) -0.4387(19) 0.3606(8)
C3 C 0.0114(12) -0.4398(19) 0.3744(8)
H4 H -0.0132 -0.4386 0.4285
C4 C -0.0943(12) -0.4429(18) 0.3054(8)
C5 C -0.0551(13) -0.4310(18) 0.2251(8)
C6 C 0.0857(13) -0.4262(19) 0.2089(8)
H5 H 0.1090 -0.4205 0.1546
C7 C 0.1885(13) -0.4301(18) 0.2761(8)
C8 C 0.3354(12) -0.4287(17) 0.2485(7)
C9 C -0.2888(13) -0.4457(19) 0.2215(9)
H6 H -0.3839 -0.4470 0.2005
Er1B Er 0.59066(5) -0.57845(8) 0.39863(3)
Er1C Er 0.40934(5) -0.07845(8) 0.10137(3)
Er1_2 Er 0.40934(5) 0.57845(8) 0.60137(3)
Er1B_2 Er -0.40934(5) -0.57845(8) 0.39863(3)
Er1B_3 Er 0.59066(5) 0.42155(8) 0.39863(3)
Er1A Er 0.59066(5) -0.92155(8) 0.89863(3)
Er1_3 Er 1.40934(5) -0.42155(8) 0.60137(3)
S1B S 0.5934(7) -0.0815(9) 0.4782(4)
O1B O 0.7973(11) -0.622(2) 0.4942(6)
O2B O 0.6214(11) -0.5210(17) 0.5531(6)
O3B O 0.5653(9) -0.4700(15) 0.7111(6)
O4B O 0.6466(9) -0.6591(17) 0.8172(6)
O4C O 0.3534(9) -0.1591(17) 0.6828(6)
O4A O 0.6466(9) -0.8409(17) 0.3172(6)
O5B O 0.4992(19) 0.132(3) 0.4502(11)
O5B_2 O 0.4992(19) -0.868(3) 0.4502(11)
O6B O 0.6002(17) -0.2316(18) 0.4138(7)
O6_2 O 0.3998(17) -0.7684(18) 0.5862(7)
O7B O 0.743(2) -0.046(3) 0.5037(12)
N1B N 1.1783(11) -0.5641(17) 0.8283(7)
H3B H 1.1860 -0.5667 0.8819
N2B N 1.2421(10) -0.5471(17) 0.6985(6)
N2B_2 N 0.2421(10) -0.5471(17) 0.6985(6)
N2_2 N 0.7579(10) -0.4529(17) 0.3015(6)
C1B C 0.7484(12) -0.5687(18) 0.5603(7)
C2B C 0.8482(13) -0.5613(19) 0.6394(8)
C3B C 0.9886(12) -0.5602(19) 0.6256(8)
H4B H 1.0132 -0.5614 0.5715
C4B C 1.0943(12) -0.5571(18) 0.6946(8)
C5B C 1.0551(13) -0.5690(18) 0.7749(8)
C6B C 0.9143(13) -0.5738(19) 0.7911(8)
H5B H 0.8910 -0.5795 0.8454
C7B C 0.8115(13) -0.5699(18) 0.7239(8)
C8B C 0.6646(12) -0.5713(17) 0.7515(7)
C9B C 1.2888(13) -0.5543(19) 0.7785(9)
H6B H 1.3839 -0.5530 0.7995
O8 O 0.060(3) 0.024(6) 0.4953(16)
O8B O -0.060(3) -0.024(6) 0.5047(16)
H1? H 0.0114 0.1116 0.4670
H2? H 0.0250 -0.0915 0.4842
loop_
_geom_bond_atom_site_label_1
_geom_bond_atom_site_label_2
_geom_bond_site_symmetry_1
_geom_bond_site_symmetry_2
Er1 O1 1_555 1_555
S1 O5 1_555 1_555
O1 C1 1_555 1_555
O2 Er1 1_555 1_555
O3 C8 1_555 1_555
O4 C8 1_555 1_555
O5 Er1 1_555 1_555
O6 S1 1_555 1_555
O7 S1 1_555 1_555
O8 O8B 1_555 1_555
N1 H3 1_555 1_555
N2 C4 1_555 1_555
C1 O2 1_555 1_555
C2 C1 1_555 1_555
C3 C2 1_555 1_555
H4 C3 1_555 1_555
C4 C3 1_555 1_555
C5 N1 1_555 1_555
C6 C5 1_555 1_555
H5 C6 1_555 1_555
C7 C2 1_555 1_555
C8 C7 1_555 1_555
C9 N1 1_555 1_555
H6 C9 1_555 1_555
Er1B O2 1_555 1_555
Er1C O4 1_555 1_555
Er1_2 O6 1_555 1_555
Er1B_2 N2 1_555 1_555
Er1B_3 O5B 1_555 1_555
Er1A O4B 1_555 1_555
Er1_3 N2B 1_555 1_555
S1B O5 1_555 1_555
O1B Er1B 1_555 1_555
O2B Er1 1_555 1_555
O3B Er1 1_555 1_555
O4B C8B 1_555 1_555
O4C Er1 1_555 1_555
O4A Er1B 1_555 1_555
O5B S1 1_555 1_555
O5B_2 Er1B 1_555 1_555
O6B Er1B 1_555 1_555
O6_2 Er1 1_555 1_555
O7B S1B 1_555 1_555
N1B H3B 1_555 1_555
N2B C4B 1_555 1_555
N2B_2 Er1 1_555 1_555
N2_2 Er1B 1_555 1_555
C1B O1B 1_555 1_555
C2B C1B 1_555 1_555
C3B C2B 1_555 1_555
H4B C3B 1_555 1_555
C4B C3B 1_555 1_555
C5B N1B 1_555 1_555
C6B C5B 1_555 1_555
H5B C6B 1_555 1_555
C7B C2B 1_555 1_555
C8B O3B 1_555 1_555
C9B N1B 1_555 1_555
H6B C9B 1_555 1_555
O3 Er1B 1_555 1_555
N2 C9 1_555 1_555
C4 C5 1_555 1_555
C6 C7 1_555 1_555
Er1B O2B 1_555 1_555
S1B O5B 1_555 1_555
S1B O6B 1_555 1_555
O2B C1B 1_555 1_555
N2B C9B 1_555 1_555
C4B C5B 1_555 1_555
C6B C7B 1_555 1_555
C7B C8B 1_555 1_555

#END
