
#######################################################################
#
#                 Cambridge Crystallographic Data Centre
#                                CCDC 
#
#######################################################################
#
# If this CIF has been generated from an entry in the Cambridge 
# Structural Database, then it will include bibliographic, chemical, 
# crystal, experimental, refinement or atomic coordinate data resulting 
# from the CCDC's data processing and validation procedures.
#
#######################################################################

data_NUWTAB
_symmetry_cell_setting           triclinic
_symmetry_space_group_name_H-M   'P -1'
_symmetry_Int_Tables_number      2
_space_group_name_Hall           '-P 1'
loop_
_symmetry_equiv_pos_site_id
_symmetry_equiv_pos_as_xyz
1 x,y,z
2 -x,-y,-z
_cell_length_a                   9.4730(11)
_cell_length_b                   9.8689(11)
_cell_length_c                   14.2483(16)
_cell_angle_alpha                91.4250(10)
_cell_angle_beta                 107.6770(10)
_cell_angle_gamma                118.2570(10)
_cell_volume                     1095.11
loop_
_atom_site_label
_atom_site_type_symbol
_atom_site_fract_x
_atom_site_fract_y
_atom_site_fract_z
C1 C 0.2873(6) 0.6250(5) -0.2434(3)
C2 C 0.1641(6) 0.4567(5) -0.2889(3)
C3 C 0.0422(6) 0.4192(5) -0.3835(4)
H1 H 0.0263 0.4959 -0.4136
C4 C -0.0556(6) 0.2625(6) -0.4318(3)
C5 C -0.2241(7) 0.0329(6) -0.5355(4)
H2 H -0.3045 -0.0427 -0.5933
C6 C -0.0322(6) 0.1461(6) -0.3874(4)
C7 C 0.0896(6) 0.1830(6) -0.2932(4)
H3 H 0.1064 0.1057 -0.2645
C8 C 0.1864(6) 0.3380(5) -0.2424(3)
C9 C 0.3222(6) 0.3753(5) -0.1410(3)
C10 C -0.0877(6) 0.5361(5) -0.1403(3)
C11 C -0.1838(6) 0.4993(5) -0.2512(4)
C12 C -0.1475(6) 0.6236(5) -0.3011(4)
H4 H -0.0704 0.7269 -0.2668
C13 C -0.2312(6) 0.5867(6) -0.4041(4)
C14 C -0.3441(6) 0.5808(6) -0.5645(4)
H5 H -0.3699 0.6158 -0.6239
C15 C -0.3406(6) 0.4316(6) -0.4578(4)
C16 C -0.3751(6) 0.3058(6) -0.4083(4)
H6 H -0.4455 0.2023 -0.4434
C17 C -0.2997(6) 0.3420(5) -0.3043(3)
C18 C -0.3464(6) 0.2090(5) -0.2500(3)
N1 N -0.1792(6) 0.1856(5) -0.5262(3)
H7 H -0.2201 0.2274 -0.5709
N2 N -0.1426(6) 0.0021(5) -0.4546(4)
N3 N -0.4092(6) 0.4328(5) -0.5589(3)
N4 N -0.2359(5) 0.6770(5) -0.4751(3)
H8 H -0.1793 0.7779 -0.4643
O1 O 0.3155(5) 0.7262(4) -0.2968(2)
O2 O 0.3767(4) 0.6667(4) -0.1491(2)
O3 O 0.2927(4) 0.3997(4) -0.0633(2)
O4 O 0.4518(4) 0.3696(4) -0.1402(3)
O5 O -0.1488(4) 0.5641(4) -0.0800(3)
O6 O 0.0527(4) 0.5401(4) -0.1145(3)
O7 O -0.3149(4) 0.2340(4) -0.1553(2)
O8 O -0.4155(5) 0.0716(4) -0.2970(3)
O9 O 0.7221(4) 1.1324(4) 0.0131(3)
O10 O 0.6426(4) 1.0412(4) 0.1560(3)
O11 O 0.8846(4) 1.0435(4) 0.1327(3)
O12 O 0.5975(4) 0.8645(4) 0.0163(3)
O13 O -0.3392(5) -0.1685(5) -0.2914(3)
H9 H -0.4278 -0.2496 -0.3316
H10 H -0.2977 -0.0938 -0.3213
O14 O -0.2556(6) -0.2119(5) -0.0938(3)
H11 H -0.2845 -0.2581 -0.0475
H12 H -0.2786 -0.2745 -0.1453
O15 O -0.0897(5) 0.1014(5) -0.1156(3)
H13 H -0.0451 0.2005 -0.1076
H14 H -0.0867 0.0518 -0.1639
S1 S 0.71670(14) 1.02270(12) 0.08372(8)
Sm1 Sm 0.32338(3) 0.63780(2) 0.009784(16)
Sm2 Sm -0.40250(3) -0.06522(3) -0.157470(17)
O1_2 O -0.6845(5) -0.2738(4) -0.2968(2)
O2_2 O -0.6233(4) -0.3333(4) -0.1491(2)
O4A O 0.5482(4) 0.6304(4) 0.1402(3)
O5A O 0.1488(4) 0.4359(4) 0.0800(3)
O7A O 0.3149(4) 0.7660(4) 0.1553(2)
O9A O 0.2779(4) 0.8676(4) -0.0131(3)
O9_2 O -0.2779(4) 0.1324(4) 0.0131(3)
O10A O -0.6426(4) -0.0412(4) -0.1560(3)
O12_2 O -0.4025(4) -0.1355(4) 0.0163(3)
Sm1A Sm 0.67662(3) 0.36220(2) -0.009784(16)
Sm1A_2 Sm -0.32338(3) 0.36220(2) -0.009784(16)
Sm1A_3 Sm 0.67662(3) 1.36220(2) -0.009784(16)
Sm2_2 Sm 0.59750(3) 0.93478(3) -0.157470(17)
Sm2A Sm 0.40250(3) 1.06522(3) 0.157470(17)
loop_
_geom_bond_atom_site_label_1
_geom_bond_atom_site_label_2
_geom_bond_site_symmetry_1
_geom_bond_site_symmetry_2
C1 C2 1_555 1_555
C2 C3 1_555 1_555
C3 H1 1_555 1_555
C4 C3 1_555 1_555
C5 H2 1_555 1_555
C6 C4 1_555 1_555
C7 C6 1_555 1_555
H3 C7 1_555 1_555
C8 C2 1_555 1_555
C9 C8 1_555 1_555
C10 C11 1_555 1_555
C11 C12 1_555 1_555
C12 H4 1_555 1_555
C13 C12 1_555 1_555
C14 H5 1_555 1_555
C15 C13 1_555 1_555
C16 C15 1_555 1_555
H6 C16 1_555 1_555
C17 C11 1_555 1_555
C18 C17 1_555 1_555
N1 C4 1_555 1_555
H7 N1 1_555 1_555
N2 C5 1_555 1_555
N3 C14 1_555 1_555
N4 C13 1_555 1_555
H8 N4 1_555 1_555
O1 C1 1_555 1_555
O2 C1 1_555 1_555
O3 C9 1_555 1_555
O4 C9 1_555 1_555
O5 C10 1_555 1_555
O6 C10 1_555 1_555
O7 C18 1_555 1_555
O8 C18 1_555 1_555
O9 S1 1_555 1_555
O10 S1 1_555 1_555
O11 S1 1_555 1_555
O12 S1 1_555 1_555
O13 H9 1_555 1_555
H10 O13 1_555 1_555
O14 H11 1_555 1_555
H12 O14 1_555 1_555
O15 H13 1_555 1_555
H14 O15 1_555 1_555
Sm1 O2 1_555 1_555
Sm2 O7 1_555 1_555
O1_2 Sm2 1_555 1_555
O2_2 Sm2 1_555 1_555
O4A Sm1 1_555 1_555
O5A Sm1 1_555 1_555
O7A Sm1 1_555 1_555
O9A Sm1 1_555 1_555
O9_2 Sm2 1_555 1_555
O10A Sm2 1_555 1_555
O12_2 Sm2 1_555 1_555
Sm1A O4 1_555 1_555
Sm1A_2 O5 1_555 1_555
Sm1A_3 O9 1_555 1_555
Sm2_2 O1 1_555 1_555
Sm2A O10 1_555 1_555
C5 N1 1_555 1_555
C6 N2 1_555 1_555
C7 C8 1_555 1_555
C14 N4 1_555 1_555
C15 N3 1_555 1_555
C16 C17 1_555 1_555
O2 Sm2_2 1_555 1_555
O3 Sm1 1_555 1_555
O6 Sm1 1_555 1_555
O7 Sm1A_2 1_555 1_555
O8 Sm2 1_555 1_555
O9 Sm2_2 1_555 1_555
O12 Sm1 1_555 1_555
O12 Sm2_2 1_555 1_555
O13 Sm2 1_555 1_555
O14 Sm2 1_555 1_555
O15 Sm2 1_555 1_555
O7A Sm2A 1_555 1_555
O9A Sm2A 1_555 1_555
O9_2 Sm1A_2 1_555 1_555

#END
