
#######################################################################
#
#                 Cambridge Crystallographic Data Centre
#                                CCDC 
#
#######################################################################
#
# If this CIF has been generated from an entry in the Cambridge 
# Structural Database, then it will include bibliographic, chemical, 
# crystal, experimental, refinement or atomic coordinate data resulting 
# from the CCDC's data processing and validation procedures.
#
#######################################################################

data_NUWVOS
_symmetry_cell_setting           tetragonal
_symmetry_space_group_name_H-M   'I 41/a c d'
_symmetry_Int_Tables_number      142
_space_group_name_Hall           '-I 4bd 2c'
loop_
_symmetry_equiv_pos_site_id
_symmetry_equiv_pos_as_xyz
1 x,y,z
2 1/2-x,-y,1/2+z
3 1/4-y,3/4+x,1/4+z
4 1/4+y,1/4-x,3/4+z
5 1/2-x,y,-z
6 x,-y,1/2-z
7 1/4+y,3/4+x,3/4-z
8 1/4-y,1/4-x,1/4-z
9 1/2+x,1/2+y,1/2+z
10 -x,1/2-y,z
11 3/4-y,1/4+x,3/4+z
12 3/4+y,3/4-x,1/4+z
13 -x,1/2+y,1/2-z
14 1/2+x,1/2-y,-z
15 3/4+y,1/4+x,1/4-z
16 3/4-y,3/4-x,3/4-z
17 -x,-y,-z
18 1/2+x,y,1/2-z
19 3/4+y,1/4-x,3/4-z
20 3/4-y,3/4+x,1/4-z
21 1/2+x,-y,z
22 -x,y,1/2+z
23 3/4-y,1/4-x,1/4+z
24 3/4+y,3/4+x,3/4+z
25 1/2-x,1/2-y,1/2-z
26 x,1/2+y,-z
27 1/4+y,3/4-x,1/4-z
28 1/4-y,1/4+x,3/4-z
29 x,1/2-y,1/2+z
30 1/2-x,1/2+y,z
31 1/4-y,3/4-x,3/4+z
32 1/4+y,1/4+x,1/4+z
_cell_length_a                   15.2355(8)
_cell_length_b                   15.2355(8)
_cell_length_c                   39.1054(19)
_cell_angle_alpha                90
_cell_angle_beta                 90
_cell_angle_gamma                90
_cell_volume                     9077.16
loop_
_atom_site_label
_atom_site_type_symbol
_atom_site_fract_x
_atom_site_fract_y
_atom_site_fract_z
Zn1 Zn 0.5000 0.2500 0.217422(8)
O1 O 0.28886(11) 0.29301(12) 0.20191(4)
O2 O 0.40711(10) 0.21631(10) 0.18604(4)
N1 N 0.09343(12) 0.20788(11) 0.00045(4)
N2 N 0.11475(12) 0.12175(11) 0.00405(4)
H1 H 0.0944 0.0851 -0.0117
C1 C 0.33110(14) 0.24846(14) 0.18107(5)
C2 C 0.28989(15) 0.23077(15) 0.14680(5)
C3 C 0.33132(16) 0.17922(17) 0.12253(5)
H2 H 0.3861 0.1525 0.1277
C4 C 0.29280(16) 0.16638(17) 0.09057(5)
H3 H 0.3220 0.1313 0.0740
C5 C 0.21255(15) 0.20396(14) 0.08260(5)
C6 C 0.17151(17) 0.25474(17) 0.10714(6)
H4 H 0.1163 0.2807 0.1022
C7 C 0.20974(18) 0.26836(18) 0.13882(7)
H5 H 0.1807 0.3039 0.1553
C8 C 0.16974(15) 0.18819(14) 0.04905(5)
C9 C 0.12660(17) 0.24882(14) 0.02800(5)
C10 C 0.16080(15) 0.10723(15) 0.03304(5)
C11 C 0.1142(2) 0.34578(17) 0.03215(7)
H6 H 0.1161 0.3741 0.0097
H7 H 0.1611 0.3695 0.0466
H8 H 0.0572 0.3572 0.0429
C12 C 0.19131(16) 0.01929(15) 0.04287(5)
H9 H 0.1555 -0.0252 0.0313
H10 H 0.1859 0.0122 0.0677
H11 H 0.2529 0.0122 0.0361
O1I O 0.71114(11) 0.20699(12) 0.20191(4)
O2I O 0.59289(10) 0.28369(10) 0.18604(4)
N1I N 0.90657(12) 0.29212(11) 0.00045(4)
N2I N 0.88525(12) 0.37825(11) 0.00405(4)
H1I H 0.9056 0.4149 -0.0117
C1I C 0.66890(14) 0.25154(14) 0.18107(5)
C2I C 0.71011(15) 0.26923(15) 0.14680(5)
C3I C 0.66868(16) 0.32078(17) 0.12253(5)
H2I H 0.6139 0.3475 0.1277
C4I C 0.70720(16) 0.33362(17) 0.09057(5)
H3I H 0.6780 0.3687 0.0740
C5I C 0.78745(15) 0.29604(14) 0.08260(5)
C6I C 0.82849(17) 0.24526(17) 0.10714(6)
H4I H 0.8837 0.2193 0.1022
C7I C 0.79026(18) 0.23164(18) 0.13882(7)
H5I H 0.8193 0.1961 0.1553
C8I C 0.83026(15) 0.31181(14) 0.04905(5)
C9I C 0.87340(17) 0.25118(14) 0.02800(5)
C10I C 0.83920(15) 0.39277(15) 0.03304(5)
C11I C 0.8858(2) 0.15422(17) 0.03215(7)
H6I H 0.8839 0.1259 0.0097
H7I H 0.8389 0.1305 0.0466
H8I H 0.9428 0.1428 0.0429
C12I C 0.80869(16) 0.48071(15) 0.04287(5)
H9I H 0.8445 0.5252 0.0313
H10I H 0.8141 0.4878 0.0677
H11I H 0.7471 0.4878 0.0361
Zn1W Zn 0.0000 0.2500 -0.032578(8)
Zn1W_2 Zn 1.0000 0.2500 -0.032578(8)
N1V N 0.54212(11) 0.15657(12) 0.25045(4)
N1EA N 0.45788(11) 0.34343(12) 0.25045(4)
loop_
_geom_bond_atom_site_label_1
_geom_bond_atom_site_label_2
_geom_bond_site_symmetry_1
_geom_bond_site_symmetry_2
Zn1 O2 1_555 1_555
O1 C1 1_555 1_555
O2 C1 1_555 1_555
N1 N2 1_555 1_555
N2 H1 1_555 1_555
C1 C2 1_555 1_555
C2 C3 1_555 1_555
C3 H2 1_555 1_555
C4 C3 1_555 1_555
H3 C4 1_555 1_555
C5 C4 1_555 1_555
C6 C5 1_555 1_555
H4 C6 1_555 1_555
C7 C2 1_555 1_555
H5 C7 1_555 1_555
C8 C5 1_555 1_555
C9 N1 1_555 1_555
C10 N2 1_555 1_555
C11 C9 1_555 1_555
H6 C11 1_555 1_555
H7 C11 1_555 1_555
H8 C11 1_555 1_555
C12 C10 1_555 1_555
H9 C12 1_555 1_555
H10 C12 1_555 1_555
H11 C12 1_555 1_555
O1I C1I 1_555 1_555
O2I Zn1 1_555 1_555
N1I N2I 1_555 1_555
N2I H1I 1_555 1_555
C1I O2I 1_555 1_555
C2I C1I 1_555 1_555
C3I C2I 1_555 1_555
H2I C3I 1_555 1_555
C4I C3I 1_555 1_555
H3I C4I 1_555 1_555
C5I C4I 1_555 1_555
C6I C5I 1_555 1_555
H4I C6I 1_555 1_555
C7I C2I 1_555 1_555
H5I C7I 1_555 1_555
C8I C5I 1_555 1_555
C9I N1I 1_555 1_555
C10I N2I 1_555 1_555
C11I C9I 1_555 1_555
H6I C11I 1_555 1_555
H7I C11I 1_555 1_555
H8I C11I 1_555 1_555
C12I C10I 1_555 1_555
H9I C12I 1_555 1_555
H10I C12I 1_555 1_555
H11I C12I 1_555 1_555
Zn1W N1 1_555 1_555
Zn1W_2 N1I 1_555 1_555
N1V Zn1 1_555 1_555
N1EA Zn1 1_555 1_555
C6 C7 1_555 1_555
C8 C9 1_555 1_555
C8 C10 1_555 1_555
C6I C7I 1_555 1_555
C8I C9I 1_555 1_555
C8I C10I 1_555 1_555

#END
