
#######################################################################
#
#                 Cambridge Crystallographic Data Centre
#                                CCDC 
#
#######################################################################
#
# If this CIF has been generated from an entry in the Cambridge 
# Structural Database, then it will include bibliographic, chemical, 
# crystal, experimental, refinement or atomic coordinate data resulting 
# from the CCDC's data processing and validation procedures.
#
#######################################################################

data_NUWVUX
_symmetry_cell_setting           triclinic
_symmetry_space_group_name_H-M   'P -1'
_symmetry_Int_Tables_number      2
_space_group_name_Hall           '-P 1'
loop_
_symmetry_equiv_pos_site_id
_symmetry_equiv_pos_as_xyz
1 x,y,z
2 -x,-y,-z
_cell_length_a                   8.4850(17)
_cell_length_b                   9.878(2)
_cell_length_c                   11.724(2)
_cell_angle_alpha                89.78(3)
_cell_angle_beta                 84.81(3)
_cell_angle_gamma                69.71(3)
_cell_volume                     917.494
loop_
_atom_site_label
_atom_site_type_symbol
_atom_site_fract_x
_atom_site_fract_y
_atom_site_fract_z
Zn1 Zn 0.45254(5) -0.15981(4) 0.40415(3)
C1 C 0.3822(4) 0.1453(3) 0.3704(3)
C2 C 0.3800(4) 0.2603(3) 0.2877(3)
C3 C 0.3842(5) 0.2369(4) 0.1719(3)
H1 H 0.3842 0.1487 0.1444
C4 C 0.3885(6) 0.3424(4) 0.0959(3)
H2 H 0.3904 0.3257 0.0177
C5 C 0.3898(5) 0.4726(4) 0.1362(3)
H3 H 0.3916 0.5445 0.0852
C6 C 0.3885(4) 0.4966(3) 0.2511(3)
C7 C 0.3838(4) 0.3907(3) 0.3270(3)
H4 H 0.3832 0.4072 0.4051
C8 C 0.3977(5) 0.6337(4) 0.2953(3)
C9 C 0.2448(5) -0.2407(4) 0.5962(3)
H5 H 0.3109 -0.3322 0.5671
C10 C 0.1475(5) -0.2300(4) 0.6972(3)
H6 H 0.1513 -0.3124 0.7371
C11 C 0.0435(5) -0.0960(4) 0.7394(3)
C12 C 0.0429(5) 0.0216(4) 0.6768(3)
H7 H -0.0286 0.1137 0.7010
C13 C 0.1489(5) 0.0022(4) 0.5778(3)
H8 H 0.1498 0.0832 0.5375
C14 C -0.0552(5) -0.0873(4) 0.8485(3)
C15 C -0.1470(5) -0.1339(4) 1.0085(3)
C16 C -0.1639(5) -0.2130(4) 1.1116(3)
C17 C -0.0415(5) -0.3415(5) 1.1320(4)
H9 H 0.0522 -0.3809 1.0792
C18 C -0.0587(6) -0.4117(5) 1.2314(4)
H10 H 0.0232 -0.4990 1.2470
C19 C -0.1960(5) -0.3519(4) 1.3058(3)
H11 H -0.2059 -0.3989 1.3734
C20 C -0.3014(5) -0.1607(4) 1.1915(3)
H12 H -0.3858 -0.0742 1.1776
N1 N 0.2499(4) -0.1263(3) 0.5369(2)
N2 N -0.0265(4) -0.1916(3) 0.9227(2)
N3 N -0.1862(4) 0.0260(4) 0.8884(3)
N4 N -0.2492(4) -0.0020(3) 0.9916(3)
N5 N -0.3192(4) -0.2277(3) 1.2870(2)
O1 O 0.3751(3) 0.0302(2) 0.3312(2)
O2 O 0.3904(3) 0.1677(3) 0.47358(19)
O3 O 0.4608(4) 0.6315(3) 0.3875(2)
O4 O 0.3461(4) 0.7455(3) 0.2407(3)
H13 H -0.237(6) 0.099(6) 0.857(4)
Zn1_2 Zn -0.54746(5) -0.15981(4) 1.40415(3)
Zn1A Zn 0.54746(5) 0.15981(4) 0.59585(3)
Zn1_3 Zn 0.45254(5) 0.84019(4) 0.40415(3)
N5_2 N 0.6808(4) -0.2277(3) 0.2870(2)
O2A O 0.6096(3) -0.1677(3) 0.52642(19)
O3_2 O 0.4608(4) -0.3685(3) 0.3875(2)
O4_2 O 0.3461(4) -0.2545(3) 0.2407(3)
loop_
_geom_bond_atom_site_label_1
_geom_bond_atom_site_label_2
_geom_bond_site_symmetry_1
_geom_bond_site_symmetry_2
Zn1 N1 1_555 1_555
C1 C2 1_555 1_555
C2 C3 1_555 1_555
C3 H1 1_555 1_555
C4 C3 1_555 1_555
H2 C4 1_555 1_555
C5 C4 1_555 1_555
H3 C5 1_555 1_555
C6 C5 1_555 1_555
C7 C2 1_555 1_555
H4 C7 1_555 1_555
C8 C6 1_555 1_555
C9 H5 1_555 1_555
C10 C9 1_555 1_555
H6 C10 1_555 1_555
C11 C10 1_555 1_555
C12 C11 1_555 1_555
H7 C12 1_555 1_555
C13 C12 1_555 1_555
H8 C13 1_555 1_555
C14 C11 1_555 1_555
C15 C16 1_555 1_555
C16 C17 1_555 1_555
C17 H9 1_555 1_555
C18 C17 1_555 1_555
H10 C18 1_555 1_555
C19 C18 1_555 1_555
H11 C19 1_555 1_555
C20 C16 1_555 1_555
H12 C20 1_555 1_555
N1 C9 1_555 1_555
N2 C14 1_555 1_555
N3 C14 1_555 1_555
N4 C15 1_555 1_555
N5 C19 1_555 1_555
O1 Zn1 1_555 1_555
O2 C1 1_555 1_555
O3 C8 1_555 1_555
O4 C8 1_555 1_555
H13 N3 1_555 1_555
Zn1_2 N5 1_555 1_555
Zn1A O2 1_555 1_555
Zn1_3 O3 1_555 1_555
N5_2 Zn1 1_555 1_555
O2A Zn1 1_555 1_555
O3_2 Zn1 1_555 1_555
O4_2 Zn1 1_555 1_555
C1 O1 1_555 1_555
C6 C7 1_555 1_555
C13 N1 1_555 1_555
C15 N2 1_555 1_555
C20 N5 1_555 1_555
N3 N4 1_555 1_555
O4 Zn1_3 1_555 1_555

#END
