
#######################################################################
#
#                 Cambridge Crystallographic Data Centre
#                                CCDC 
#
#######################################################################
#
# If this CIF has been generated from an entry in the Cambridge 
# Structural Database, then it will include bibliographic, chemical, 
# crystal, experimental, refinement or atomic coordinate data resulting 
# from the CCDC's data processing and validation procedures.
#
#######################################################################

data_NUWVIM
_symmetry_cell_setting           orthorhombic
_symmetry_space_group_name_H-M   'F d d 2'
_symmetry_Int_Tables_number      43
_space_group_name_Hall           'F 2 -2d'
loop_
_symmetry_equiv_pos_site_id
_symmetry_equiv_pos_as_xyz
1 x,y,z
2 -x,-y,z
3 1/4+x,1/4-y,1/4+z
4 1/4-x,1/4+y,1/4+z
5 x,1/2+y,1/2+z
6 -x,1/2-y,1/2+z
7 1/4+x,3/4-y,3/4+z
8 1/4-x,3/4+y,3/4+z
9 1/2+x,y,1/2+z
10 1/2-x,-y,1/2+z
11 3/4+x,1/4-y,3/4+z
12 3/4-x,1/4+y,3/4+z
13 1/2+x,1/2+y,z
14 1/2-x,1/2-y,z
15 3/4+x,3/4-y,1/4+z
16 3/4-x,3/4+y,1/4+z
_cell_length_a                   22.694(2)
_cell_length_b                   29.694(3)
_cell_length_c                   33.408(3)
_cell_angle_alpha                90
_cell_angle_beta                 90
_cell_angle_gamma                90
_cell_volume                     22512.8
loop_
_atom_site_label
_atom_site_type_symbol
_atom_site_fract_x
_atom_site_fract_y
_atom_site_fract_z
Zn1 Zn 0.5000 0.0000 0.76288(5)
O1 O 0.5392(3) 0.0403(2) 0.7994(2)
O2 O 0.6072(4) 0.0712(3) 0.7586(2)
N1 N 0.6927(4) 0.2217(3) 0.9732(3)
N2 N 0.6536(4) 0.2501(3) 0.9554(3)
H1 H 0.6461 0.2773 0.9645
C1 C 0.5827(5) 0.0669(4) 0.7913(4)
C2 C 0.6026(4) 0.0972(3) 0.8261(3)
C3 C 0.6365(4) 0.1345(4) 0.8175(3)
H2 H 0.6499 0.1393 0.7909
C4 C 0.6513(4) 0.1649(4) 0.8469(3)
H3 H 0.6724 0.1914 0.8399
C5 C 0.6358(4) 0.1576(3) 0.8863(3)
C6 C 0.6043(5) 0.1194(3) 0.8948(4)
H4 H 0.5944 0.1125 0.9217
C7 C 0.5863(5) 0.0903(4) 0.8639(3)
H5 H 0.5621 0.0651 0.8701
C8 C 0.6501(4) 0.1906(4) 0.9193(4)
C9 C 0.6911(5) 0.1847(3) 0.9494(3)
C10 C 0.6281(5) 0.2334(3) 0.9234(3)
C11 C 0.7282(5) 0.1454(3) 0.9594(4)
H6 H 0.7499 0.1515 0.9842
H7 H 0.7561 0.1399 0.9376
H8 H 0.7031 0.1189 0.9631
C12 C 0.5819(7) 0.2593(4) 0.8992(5)
H9 H 0.5927 0.2913 0.8983
H10 H 0.5433 0.2561 0.9120
H11 H 0.5802 0.2473 0.8720
O1A O 0.4608(3) -0.0403(2) 0.7994(2)
O2A O 0.3928(4) -0.0712(3) 0.7586(2)
N1A N 0.3073(4) -0.2217(3) 0.9732(3)
N2A N 0.3464(4) -0.2501(3) 0.9554(3)
H1A H 0.3539 -0.2773 0.9645
C1A C 0.4173(5) -0.0669(4) 0.7913(4)
C2A C 0.3974(4) -0.0972(3) 0.8261(3)
C3A C 0.3635(4) -0.1345(4) 0.8175(3)
H2A H 0.3501 -0.1393 0.7909
C4A C 0.3487(4) -0.1649(4) 0.8469(3)
H3A H 0.3276 -0.1914 0.8399
C5A C 0.3642(4) -0.1576(3) 0.8863(3)
C6A C 0.3957(5) -0.1194(3) 0.8948(4)
H4A H 0.4056 -0.1125 0.9217
C7A C 0.4137(5) -0.0903(4) 0.8639(3)
H5A H 0.4379 -0.0651 0.8701
C8A C 0.3499(4) -0.1906(4) 0.9193(4)
C9A C 0.3089(5) -0.1847(3) 0.9494(3)
C10A C 0.3719(5) -0.2334(3) 0.9234(3)
C11A C 0.2718(5) -0.1454(3) 0.9594(4)
H6A H 0.2501 -0.1515 0.9842
H7A H 0.2439 -0.1399 0.9376
H8A H 0.2969 -0.1189 0.9631
C12A C 0.4181(7) -0.2593(4) 0.8992(5)
H9A H 0.4073 -0.2913 0.8983
H10A H 0.4567 -0.2561 0.9120
H11A H 0.4198 -0.2473 0.8720
Zn1B Zn 0.7500 0.2500 1.01288(5)
Zn1N Zn 0.2500 -0.2500 1.01288(5)
N1G N 0.5573(4) -0.0283(3) 0.7232(3)
N1J N 0.4427(4) 0.0283(3) 0.7232(3)
Zn2 Zn 0.49759(5) 0.25455(3) 0.71821(4)
O3 O 0.5374(3) 0.2935(2) 0.7556(2)
O4 O 0.6187(4) 0.2530(3) 0.7677(3)
O5 O 0.4565(3) 0.2952(2) 0.6814(2)
O6 O 0.3714(3) 0.2606(3) 0.6699(2)
N3 N 0.6504(4) 0.4471(3) 0.9542(3)
H12 H 0.6376 0.4552 0.9780
N4 N 0.6994(3) 0.4639(3) 0.9369(3)
N5 N 0.3672(4) 0.4630(3) 0.4864(3)
H13 H 0.3819 0.4774 0.4656
N6 N 0.3094(4) 0.4677(3) 0.4987(3)
C13 C 0.5869(6) 0.2870(4) 0.7729(3)
C14 C 0.6070(5) 0.3218(4) 0.8028(3)
C15 C 0.5708(5) 0.3570(3) 0.8144(3)
H14 H 0.5336 0.3605 0.8016
C16 C 0.5867(4) 0.3866(4) 0.8434(3)
H15 H 0.5605 0.4101 0.8508
C17 C 0.6417(5) 0.3828(4) 0.8623(4)
C18 C 0.6800(5) 0.3475(4) 0.8508(4)
H16 H 0.7171 0.3441 0.8635
C19 C 0.6627(5) 0.3174(4) 0.8201(4)
H17 H 0.6888 0.2944 0.8114
C20 C 0.6548(5) 0.4128(4) 0.8969(3)
C21 C 0.7043(4) 0.4424(3) 0.9016(4)
C22 C 0.6233(5) 0.4165(4) 0.9307(4)
C23 C 0.7543(4) 0.4502(4) 0.8739(4)
H18 H 0.7899 0.4571 0.8894
H19 H 0.7451 0.4756 0.8562
H20 H 0.7611 0.4231 0.8578
C24 C 0.5697(6) 0.3926(6) 0.9449(4)
H21 H 0.5541 0.3738 0.9232
H22 H 0.5399 0.4147 0.9529
H23 H 0.5798 0.3736 0.9678
C25 C 0.4076(5) 0.2904(4) 0.6641(4)
C26 C 0.3968(5) 0.3235(4) 0.6312(3)
C27 C 0.4366(5) 0.3584(4) 0.6234(3)
H24 H 0.4722 0.3604 0.6383
C28 C 0.4243(5) 0.3902(4) 0.5938(3)
H25 H 0.4515 0.4138 0.5888
C29 C 0.3716(5) 0.3877(4) 0.5711(4)
C30 C 0.3323(5) 0.3507(4) 0.5793(4)
H26 H 0.2975 0.3472 0.5638
C31 C 0.3442(6) 0.3212(4) 0.6086(4)
H27 H 0.3166 0.2981 0.6144
C32 C 0.3599(5) 0.4197(4) 0.5392(4)
C33 C 0.3057(5) 0.4412(4) 0.5307(4)
C34 C 0.3985(5) 0.4348(4) 0.5086(4)
C35 C 0.2493(5) 0.4371(5) 0.5534(5)
H28 H 0.2291 0.4662 0.5536
H29 H 0.2578 0.4278 0.5809
H30 H 0.2241 0.4145 0.5405
C36 C 0.4603(6) 0.4258(6) 0.5009(4)
H31 H 0.4694 0.4330 0.4730
H32 H 0.4684 0.3938 0.5058
H33 H 0.4846 0.4442 0.5187
Zn2C Zn 0.75241(5) 0.50455(3) 0.96821(4)
Zn2K Zn 0.25241(5) 0.50455(3) 0.46821(4)
N4G N 0.5506(3) 0.2139(3) 0.6869(3)
N6O N 0.4406(4) 0.2177(3) 0.7487(3)
Zn3 Zn 0.7500 0.2500 0.54552(6)
O7 O 0.7875(4) 0.2053(4) 0.5783(3)
O8 O 0.8724(4) 0.2390(4) 0.5885(3)
N7 N 0.8857(4) 0.0372(3) 0.7730(3)
H34 H 0.8705 0.0218 0.7930
N8 N 0.9435(3) 0.0355(3) 0.7624(3)
C37 C 0.8374(6) 0.2089(4) 0.5955(4)
C38 C 0.8515(5) 0.1745(4) 0.6272(3)
C39 C 0.8152(5) 0.1366(5) 0.6349(4)
H35 H 0.7804 0.1326 0.6196
C40 C 0.8295(5) 0.1054(5) 0.6642(4)
H36 H 0.8061 0.0791 0.6679
C41 C 0.8794(5) 0.1134(4) 0.6886(4)
C42 C 0.9178(6) 0.1476(4) 0.6804(4)
H37 H 0.9533 0.1508 0.6952
C43 C 0.9034(5) 0.1783(4) 0.6493(4)
H38 H 0.9299 0.2021 0.6434
C44 C 0.8935(5) 0.0812(4) 0.7208(4)
C45 C 0.9485(5) 0.0613(5) 0.7314(4)
C46 C 0.8557(5) 0.0639(4) 0.7507(3)
C47 C 1.0072(5) 0.0667(6) 0.7096(4)
H39 H 1.0377 0.0492 0.7234
H40 H 1.0185 0.0986 0.7093
H41 H 1.0033 0.0559 0.6820
C48 C 0.7898(5) 0.0729(5) 0.7566(4)
H42 H 0.7813 0.0759 0.7852
H43 H 0.7671 0.0478 0.7455
H44 H 0.7789 0.1008 0.7428
O7M O 0.7125(4) 0.2947(4) 0.5783(3)
O8M O 0.6276(4) 0.2610(4) 0.5885(3)
N7M N 0.6143(4) 0.4628(3) 0.7730(3)
H34M H 0.6295 0.4782 0.7930
N8M N 0.5565(3) 0.4645(3) 0.7624(3)
C37M C 0.6626(6) 0.2911(4) 0.5955(4)
C38M C 0.6485(5) 0.3255(4) 0.6272(3)
C39M C 0.6848(5) 0.3634(5) 0.6349(4)
H35M H 0.7196 0.3674 0.6196
C40M C 0.6705(5) 0.3946(5) 0.6642(4)
H36M H 0.6939 0.4209 0.6679
C41M C 0.6206(5) 0.3866(4) 0.6886(4)
C42M C 0.5822(6) 0.3524(4) 0.6804(4)
H37M H 0.5467 0.3492 0.6952
C43M C 0.5966(5) 0.3217(4) 0.6493(4)
H38M H 0.5701 0.2979 0.6434
C44M C 0.6065(5) 0.4188(4) 0.7208(4)
C45M C 0.5515(5) 0.4387(5) 0.7314(4)
C46M C 0.6443(5) 0.4361(4) 0.7507(3)
C47M C 0.4928(5) 0.4333(6) 0.7096(4)
H39M H 0.4623 0.4508 0.7234
H40M H 0.4815 0.4014 0.7093
H41M H 0.4967 0.4441 0.6820
C48M C 0.7102(5) 0.4271(5) 0.7566(4)
H42M H 0.7187 0.4241 0.7852
H43M H 0.7329 0.4522 0.7455
H44M H 0.7211 0.3992 0.7428
Zn3B Zn 1.0000 0.0000 0.79552(6)
Zn3C Zn 0.5000 0.5000 0.79552(6)
N8J N 0.6935(3) 0.2145(3) 0.5124(3)
N8K N 0.8065(3) 0.2855(3) 0.5124(3)
O9 O 0.8228(10) -0.0441(8) 0.6813(8)
H45 H 0.8256 -0.0601 0.7024
H46 H 0.8396 -0.0275 0.6640
H47 H 0.9141 0.0078 0.6150
O10 O 0.8779(14) 0.0992(11) 0.5250(10)
H48 H 0.8458 0.0977 0.5126
C49 C 0.8814(18) 0.0626(14) 0.5539(12)
H49 H 0.8740 0.0373 0.5353
H50 H 0.8429 0.0674 0.5671
C50 C 0.911(2) 0.0362(16) 0.5872(13)
H51 H 0.9194 0.0563 0.6099
H52 H 0.9486 0.0237 0.5773
C51 C 0.8041(18) -0.0576(14) 0.7671(12)
H53 H 0.8085 -0.0283 0.7533
H54 H 0.8358 -0.0574 0.7875
C52 C 0.7519(15) -0.0463(17) 0.7940(12)
H55 H 0.7596 -0.0180 0.8081
H56 H 0.7462 -0.0706 0.8135
H57 H 0.7163 -0.0432 0.7776
O11 O 0.8317(11) -0.0868(9) 0.7374(8)
H58 H 0.8638 -0.0754 0.7300
O12 O 0.7353(11) 0.2177(8) 0.7506(7)
H59 H 0.7010 0.2278 0.7553
H60 H 0.7711 0.2248 0.7546
O13 O 1.0000 0.0000 0.588(3)
H61 H 0.9661 0.0029 0.5983
H61A H 1.0339 -0.0029 0.5983
O14? O 0.2500 0.2500 0.6814(15)
H62? H 0.2869 0.2532 0.6781
O15? O 0.7500 0.2500 0.704(2)
H63? H 0.7185 0.2507 0.7173
O16? O 0.880(2) 0.0104(16) 0.6257(16)
H64? H 0.8625 -0.0060 0.6427
H65? H 0.8856 0.0116 0.5960
loop_
_geom_bond_atom_site_label_1
_geom_bond_atom_site_label_2
_geom_bond_site_symmetry_1
_geom_bond_site_symmetry_2
Zn1 O1 1_555 1_555
O1 C1 1_555 1_555
O2 C1 1_555 1_555
N1 N2 1_555 1_555
N2 H1 1_555 1_555
C1 C2 1_555 1_555
C2 C3 1_555 1_555
C3 H2 1_555 1_555
C4 C3 1_555 1_555
H3 C4 1_555 1_555
C5 C4 1_555 1_555
C6 C5 1_555 1_555
H4 C6 1_555 1_555
C7 C2 1_555 1_555
H5 C7 1_555 1_555
C8 C5 1_555 1_555
C9 N1 1_555 1_555
C10 N2 1_555 1_555
C11 C9 1_555 1_555
H6 C11 1_555 1_555
H7 C11 1_555 1_555
H8 C11 1_555 1_555
C12 C10 1_555 1_555
H9 C12 1_555 1_555
H10 C12 1_555 1_555
H11 C12 1_555 1_555
Zn2 O3 1_555 1_555
O3 C13 1_555 1_555
O4 C13 1_555 1_555
O5 Zn2 1_555 1_555
O6 C25 1_555 1_555
N3 H12 1_555 1_555
N4 N3 1_555 1_555
N5 H13 1_555 1_555
N6 N5 1_555 1_555
C13 C14 1_555 1_555
C14 C15 1_555 1_555
C15 H14 1_555 1_555
C16 C15 1_555 1_555
H15 C16 1_555 1_555
C17 C16 1_555 1_555
C18 C17 1_555 1_555
H16 C18 1_555 1_555
C19 C14 1_555 1_555
H17 C19 1_555 1_555
C20 C17 1_555 1_555
C21 N4 1_555 1_555
C22 N3 1_555 1_555
C23 C21 1_555 1_555
H18 C23 1_555 1_555
H19 C23 1_555 1_555
H20 C23 1_555 1_555
C24 C22 1_555 1_555
H21 C24 1_555 1_555
H22 C24 1_555 1_555
H23 C24 1_555 1_555
C25 O5 1_555 1_555
C26 C25 1_555 1_555
C27 C26 1_555 1_555
H24 C27 1_555 1_555
C28 C27 1_555 1_555
H25 C28 1_555 1_555
C29 C28 1_555 1_555
C30 C29 1_555 1_555
H26 C30 1_555 1_555
C31 C26 1_555 1_555
H27 C31 1_555 1_555
C32 C29 1_555 1_555
C33 N6 1_555 1_555
C34 N5 1_555 1_555
C35 C33 1_555 1_555
H28 C35 1_555 1_555
H29 C35 1_555 1_555
H30 C35 1_555 1_555
C36 C34 1_555 1_555
H31 C36 1_555 1_555
H32 C36 1_555 1_555
H33 C36 1_555 1_555
Zn3 O7 1_555 1_555
O7 C37 1_555 1_555
O8 C37 1_555 1_555
N7 H34 1_555 1_555
N8 N7 1_555 1_555
C37 C38 1_555 1_555
C38 C39 1_555 1_555
C39 H35 1_555 1_555
C40 C39 1_555 1_555
H36 C40 1_555 1_555
C41 C40 1_555 1_555
C42 C41 1_555 1_555
H37 C42 1_555 1_555
C43 C38 1_555 1_555
H38 C43 1_555 1_555
C44 C41 1_555 1_555
C45 N8 1_555 1_555
C46 N7 1_555 1_555
C47 C45 1_555 1_555
H39 C47 1_555 1_555
H40 C47 1_555 1_555
H41 C47 1_555 1_555
C48 C46 1_555 1_555
H42 C48 1_555 1_555
H43 C48 1_555 1_555
H44 C48 1_555 1_555
O9 H45 1_555 1_555
H46 O9 1_555 1_555
H47 C50 1_555 1_555
O10 H48 1_555 1_555
C49 O10 1_555 1_555
H49 C49 1_555 1_555
H50 C49 1_555 1_555
C50 C49 1_555 1_555
H51 C50 1_555 1_555
H52 C50 1_555 1_555
C51 H53 1_555 1_555
H54 C51 1_555 1_555
C52 C51 1_555 1_555
H55 C52 1_555 1_555
H56 C52 1_555 1_555
H57 C52 1_555 1_555
O11 C51 1_555 1_555
H58 O11 1_555 1_555
O12 H59 1_555 1_555
H60 O12 1_555 1_555
O13 H61 1_555 1_555
O1A Zn1 1_555 1_555
O2A C1A 1_555 1_555
N1A N2A 1_555 1_555
N2A H1A 1_555 1_555
C1A O1A 1_555 1_555
C2A C1A 1_555 1_555
C3A C2A 1_555 1_555
H2A C3A 1_555 1_555
C4A C3A 1_555 1_555
H3A C4A 1_555 1_555
C5A C4A 1_555 1_555
C6A C5A 1_555 1_555
H4A C6A 1_555 1_555
C7A C2A 1_555 1_555
H5A C7A 1_555 1_555
C8A C5A 1_555 1_555
C9A N1A 1_555 1_555
C10A N2A 1_555 1_555
C11A C9A 1_555 1_555
H6A C11A 1_555 1_555
H7A C11A 1_555 1_555
H8A C11A 1_555 1_555
C12A C10A 1_555 1_555
H9A C12A 1_555 1_555
H10A C12A 1_555 1_555
H11A C12A 1_555 1_555
Zn1B N1 1_555 1_555
Zn1N N1A 1_555 1_555
N1G Zn1 1_555 1_555
N1J Zn1 1_555 1_555
Zn2C N4 1_555 1_555
Zn2K N6 1_555 1_555
N4G Zn2 1_555 1_555
N6O Zn2 1_555 1_555
O7M Zn3 1_555 1_555
O8M C37M 1_555 1_555
N7M H34M 1_555 1_555
N8M N7M 1_555 1_555
C37M O7M 1_555 1_555
C38M C37M 1_555 1_555
C39M C38M 1_555 1_555
H35M C39M 1_555 1_555
C40M C39M 1_555 1_555
H36M C40M 1_555 1_555
C41M C40M 1_555 1_555
C42M C41M 1_555 1_555
H37M C42M 1_555 1_555
C43M C38M 1_555 1_555
H38M C43M 1_555 1_555
C44M C41M 1_555 1_555
C45M N8M 1_555 1_555
C46M N7M 1_555 1_555
C47M C45M 1_555 1_555
H39M C47M 1_555 1_555
H40M C47M 1_555 1_555
H41M C47M 1_555 1_555
C48M C46M 1_555 1_555
H42M C48M 1_555 1_555
H43M C48M 1_555 1_555
H44M C48M 1_555 1_555
Zn3B N8 1_555 1_555
Zn3C N8M 1_555 1_555
N8J Zn3 1_555 1_555
N8K Zn3 1_555 1_555
H61A O13 1_555 1_555
C6 C7 1_555 1_555
C8 C9 1_555 1_555
C8 C10 1_555 1_555
C18 C19 1_555 1_555
C20 C21 1_555 1_555
C20 C22 1_555 1_555
C30 C31 1_555 1_555
C32 C33 1_555 1_555
C32 C34 1_555 1_555
C42 C43 1_555 1_555
C44 C45 1_555 1_555
C44 C46 1_555 1_555
C6A C7A 1_555 1_555
C8A C9A 1_555 1_555
C8A C10A 1_555 1_555
C42M C43M 1_555 1_555
C44M C45M 1_555 1_555
C44M C46M 1_555 1_555

#END
