
#######################################################################
#
#                 Cambridge Crystallographic Data Centre
#                                CCDC 
#
#######################################################################
#
# If this CIF has been generated from an entry in the Cambridge 
# Structural Database, then it will include bibliographic, chemical, 
# crystal, experimental, refinement or atomic coordinate data resulting 
# from the CCDC's data processing and validation procedures.
#
#######################################################################

data_NUWWAE
_symmetry_cell_setting           monoclinic
_symmetry_space_group_name_H-M   'P 21/c'
_symmetry_Int_Tables_number      14
_space_group_name_Hall           '-P 2ybc'
loop_
_symmetry_equiv_pos_site_id
_symmetry_equiv_pos_as_xyz
1 x,y,z
2 -x,1/2+y,1/2-z
3 -x,-y,-z
4 x,1/2-y,1/2+z
_cell_length_a                   7.2690(15)
_cell_length_b                   11.546(2)
_cell_length_c                   21.291(4)
_cell_angle_alpha                90
_cell_angle_beta                 90.82(3)
_cell_angle_gamma                90
_cell_volume                     1786.73
loop_
_atom_site_label
_atom_site_type_symbol
_atom_site_fract_x
_atom_site_fract_y
_atom_site_fract_z
Zn1 Zn 0.34559(5) 0.03505(3) 0.236367(16)
C1 C 0.7091(4) -0.0879(3) 0.23683(15)
C2 C 0.7267(4) -0.0886(3) 0.16669(14)
C3 C 0.5754(5) -0.1163(3) 0.12912(16)
H1 H 0.4644 -0.1352 0.1478
C4 C 0.5873(5) -0.1161(4) 0.06450(17)
H2 H 0.4846 -0.1343 0.0399
C5 C 0.7498(6) -0.0892(4) 0.03675(17)
H3 H 0.7572 -0.0879 -0.0068
C6 C 0.9029(5) -0.0640(4) 0.07312(17)
H4 H 1.0139 -0.0472 0.0539
C7 C 0.8931(4) -0.0635(3) 0.13791(15)
C8 C 1.0647(6) -0.0369(6) 0.1738(2)
C9 C 0.3741(5) 0.0484(3) 0.37500(16)
H5 H 0.4888 0.0152 0.3685
C10 C 0.3199(5) 0.0689(4) 0.43539(16)
H6 H 0.3979 0.0507 0.4690
C11 C 0.1489(5) 0.1168(3) 0.44623(15)
C12 C 0.0403(5) 0.1447(3) 0.39478(16)
H7 H -0.0748 0.1782 0.4001
C13 C 0.1042(5) 0.1224(3) 0.33547(16)
H8 H 0.0299 0.1416 0.3011
C14 C 0.0856(5) 0.1384(3) 0.51028(15)
C15 C -0.0790(5) 0.1885(3) 0.58518(15)
C16 C -0.2273(5) 0.2353(3) 0.62372(15)
C17 C -0.3904(5) 0.2701(4) 0.59569(16)
H9 H -0.4105 0.2583 0.5529
C18 C -0.5223(5) 0.3220(4) 0.63120(16)
H10 H -0.6317 0.3447 0.6116
C19 C -0.3482(5) 0.3011(3) 0.72014(15)
H11 H -0.3346 0.3097 0.7634
C20 C -0.2096(5) 0.2473(3) 0.68792(15)
H12 H -0.1059 0.2195 0.7091
H13 H 0.124(6) 0.133(4) 0.649(2)
N1 N 0.2685(4) 0.0742(2) 0.32498(12)
N2 N 0.1870(4) 0.1113(3) 0.56032(13)
N3 N 0.0794(4) 0.1452(3) 0.60801(13)
N4 N -0.0803(4) 0.1859(3) 0.52301(13)
N5 N -0.5011(4) 0.3416(2) 0.69256(12)
O1 O 0.5540(3) -0.0668(2) 0.26041(10)
O2 O 0.8472(3) -0.1086(3) 0.26878(12)
O3 O 1.0976(4) 0.0671(4) 0.18888(15)
O4 O 1.1801(4) -0.1112(4) 0.18559(15)
Zn1C Zn -0.65441(5) 0.46495(3) 0.736367(16)
Zn1_2 Zn 1.34559(5) 0.03505(3) 0.236367(16)
N5C N 0.4989(4) 0.1584(2) 0.19256(12)
O3_2 O 0.0976(4) 0.0671(4) 0.18888(15)
O4_2 O 0.1801(4) -0.1112(4) 0.18559(15)
loop_
_geom_bond_atom_site_label_1
_geom_bond_atom_site_label_2
_geom_bond_site_symmetry_1
_geom_bond_site_symmetry_2
Zn1 N1 1_555 1_555
C1 C2 1_555 1_555
C2 C3 1_555 1_555
C3 H1 1_555 1_555
C4 C3 1_555 1_555
H2 C4 1_555 1_555
C5 C4 1_555 1_555
H3 C5 1_555 1_555
C6 C5 1_555 1_555
H4 C6 1_555 1_555
C7 C2 1_555 1_555
C8 C7 1_555 1_555
C9 H5 1_555 1_555
C10 C9 1_555 1_555
H6 C10 1_555 1_555
C11 C10 1_555 1_555
C12 C11 1_555 1_555
H7 C12 1_555 1_555
C13 C12 1_555 1_555
H8 C13 1_555 1_555
C14 C11 1_555 1_555
C15 C16 1_555 1_555
C16 C17 1_555 1_555
C17 H9 1_555 1_555
C18 C17 1_555 1_555
H10 C18 1_555 1_555
C19 H11 1_555 1_555
C20 C16 1_555 1_555
H12 C20 1_555 1_555
H13 N3 1_555 1_555
N1 C9 1_555 1_555
N2 C14 1_555 1_555
N3 C15 1_555 1_555
N4 C14 1_555 1_555
N5 C18 1_555 1_555
O1 Zn1 1_555 1_555
O2 C1 1_555 1_555
O3 C8 1_555 1_555
O4 C8 1_555 1_555
Zn1C N5 1_555 1_555
Zn1_2 O3 1_555 1_555
N5C Zn1 1_555 1_555
O3_2 Zn1 1_555 1_555
O4_2 Zn1 1_555 1_555
C1 O1 1_555 1_555
C6 C7 1_555 1_555
C13 N1 1_555 1_555
C15 N4 1_555 1_555
C19 C20 1_555 1_555
C19 N5 1_555 1_555
N2 N3 1_555 1_555
O4 Zn1_2 1_555 1_555

#END
