
#######################################################################
#
#                 Cambridge Crystallographic Data Centre
#                                CCDC 
#
#######################################################################
#
# If this CIF has been generated from an entry in the Cambridge 
# Structural Database, then it will include bibliographic, chemical, 
# crystal, experimental, refinement or atomic coordinate data resulting 
# from the CCDC's data processing and validation procedures.
#
#######################################################################

data_NUWWIM
_symmetry_cell_setting           triclinic
_symmetry_space_group_name_H-M   'P -1'
_symmetry_Int_Tables_number      2
_space_group_name_Hall           '-P 1'
loop_
_symmetry_equiv_pos_site_id
_symmetry_equiv_pos_as_xyz
1 x,y,z
2 -x,-y,-z
_cell_length_a                   8.0460(16)
_cell_length_b                   9.5890(19)
_cell_length_c                   19.618(4)
_cell_angle_alpha                85.37(3)
_cell_angle_beta                 87.38(3)
_cell_angle_gamma                70.57(3)
_cell_volume                     1422.44
loop_
_atom_site_label
_atom_site_type_symbol
_atom_site_fract_x
_atom_site_fract_y
_atom_site_fract_z
Zn1 Zn 0.59160(7) -0.24288(5) 0.40044(3)
Zn2 Zn 1.50166(6) 0.10508(5) 0.91655(3)
C1 C 0.4483(5) 0.0217(4) 0.3246(2)
C2 C 0.4241(5) 0.1813(4) 0.3044(2)
C3 C 0.3258(5) 0.2507(5) 0.2475(2)
H1 H 0.2781 0.1976 0.2212
C4 C 0.2990(6) 0.3991(5) 0.2300(2)
H2 H 0.2331 0.4458 0.1919
C5 C 0.3699(6) 0.4778(5) 0.2689(2)
H3 H 0.3517 0.5774 0.2568
C6 C 0.4683(5) 0.4100(4) 0.3262(2)
C7 C 0.4960(5) 0.2606(4) 0.3436(2)
H4 H 0.5627 0.2137 0.3815
C8 C 0.5393(5) 0.4984(5) 0.3696(2)
C9 C 0.7952(7) -0.1535(5) 0.4979(3)
H5 H 0.7628 -0.0674 0.4691
C10 C 0.8917(7) -0.1587(5) 0.5547(2)
H6 H 0.9244 -0.0776 0.5634
C11 C 0.9399(5) -0.2838(5) 0.5985(2)
C12 C 0.8916(5) -0.4023(5) 0.5819(2)
H7 H 0.9240 -0.4899 0.6098
C13 C 0.7959(6) -0.3906(5) 0.5244(2)
H8 H 0.7644 -0.4713 0.5141
C14 C 1.0287(5) -0.2881(4) 0.6626(2)
C15 C 1.1311(5) -0.2247(4) 0.7467(2)
C16 C 1.1990(5) -0.1441(4) 0.7929(2)
C17 C 1.1659(6) 0.0057(5) 0.7808(2)
H9 H 1.0893 0.0589 0.7465
C18 C 1.2471(6) 0.0765(5) 0.8197(2)
H10 H 1.2268 0.1773 0.8101
C19 C 1.3808(5) -0.1378(5) 0.8847(2)
H11 H 1.4514 -0.1868 0.9213
C20 C 1.3078(5) -0.2171(5) 0.8467(2)
H12 H 1.3311 -0.3181 0.8571
C21 C 1.2909(5) 0.4080(4) 0.9242(2)
C22 C 1.1935(5) 0.5390(4) 0.9640(2)
C23 C 1.0449(5) 0.6471(4) 0.9366(2)
H13 H 1.0045 0.6356 0.8945
C24 C 0.9570(5) 0.7712(4) 0.9712(2)
C25 C 0.7986(5) 0.8848(5) 0.9382(2)
C26 C 1.0196(5) 0.7910(5) 1.0324(2)
H14 H 0.9617 0.8757 1.0552
C27 C 1.1682(6) 0.6858(5) 1.0604(2)
H15 H 1.2106 0.7000 1.1017
C28 C 1.2539(5) 0.5583(5) 1.0263(2)
H16 H 1.3520 0.4861 1.0454
N1 N 0.7462(5) -0.2670(4) 0.48253(18)
N2 N 1.0556(4) -0.1706(4) 0.68717(17)
N3 N 1.0836(4) -0.4118(4) 0.70328(17)
N4 N 1.1479(4) -0.3682(4) 0.75736(17)
N5 N 1.3539(4) 0.0060(4) 0.87077(17)
O1 O 0.5360(4) -0.0318(3) 0.37814(16)
O2 O 0.3821(4) -0.0478(3) 0.29021(16)
O3 O 0.6132(4) 0.4435(3) 0.42420(16)
O4 O 0.5152(4) 0.6311(3) 0.34646(16)
O5 O 1.3876(4) 0.2937(3) 0.95830(14)
O6 O 1.2741(4) 0.4162(3) 0.86094(15)
O7 O 0.6885(4) 0.9779(3) 0.97620(15)
O8 O 0.7799(5) 0.8870(4) 0.87670(18)
O9 O 0.3583(5) -0.2206(4) 0.47309(18)
O10 O 0.8298(4) -0.2856(4) 0.32984(18)
O11 O 1.5882(4) 0.1913(4) 0.82693(17)
H17 H 1.162(10) -0.434(7) 0.796(3)
H18 H 0.916(5) -0.259(5) 0.338(3)
H19 H 0.374(7) -0.289(5) 0.505(2)
H20 H 1.604(7) 0.127(4) 0.800(2)
H21 H 0.266(5) -0.221(6) 0.455(2)
H22 H 1.489(4) 0.252(5) 0.822(3)
H23 H 0.867(4) -0.3615(17) 0.3102(14)
Zn1_2 Zn 0.59160(7) 0.75712(5) 0.40044(3)
Zn2_2 Zn 0.50166(6) 1.10508(5) 0.91655(3)
O4_2 O 0.5152(4) -0.3689(3) 0.34646(16)
O7_2 O 1.6885(4) -0.0221(3) 0.97620(15)
O12 O 0.1139(5) 0.8356(4) 0.35591(19)
H24 H 0.0679 0.9256 0.3483
H25 H 0.2202 0.8253 0.3303
loop_
_geom_bond_atom_site_label_1
_geom_bond_atom_site_label_2
_geom_bond_site_symmetry_1
_geom_bond_site_symmetry_2
Zn1 N1 1_555 1_555
Zn2 N5 1_555 1_555
C1 C2 1_555 1_555
C2 C3 1_555 1_555
C3 H1 1_555 1_555
C4 C3 1_555 1_555
H2 C4 1_555 1_555
C5 C4 1_555 1_555
H3 C5 1_555 1_555
C6 C5 1_555 1_555
C7 C2 1_555 1_555
H4 C7 1_555 1_555
C8 C6 1_555 1_555
C9 H5 1_555 1_555
C10 C9 1_555 1_555
H6 C10 1_555 1_555
C11 C10 1_555 1_555
C12 C11 1_555 1_555
H7 C12 1_555 1_555
C13 C12 1_555 1_555
H8 C13 1_555 1_555
C14 C11 1_555 1_555
C15 C16 1_555 1_555
C16 C17 1_555 1_555
C17 H9 1_555 1_555
C18 C17 1_555 1_555
H10 C18 1_555 1_555
C19 H11 1_555 1_555
C20 C16 1_555 1_555
H12 C20 1_555 1_555
C21 C22 1_555 1_555
C22 C23 1_555 1_555
C23 H13 1_555 1_555
C24 C23 1_555 1_555
C25 C24 1_555 1_555
C26 C24 1_555 1_555
H14 C26 1_555 1_555
C27 C26 1_555 1_555
H15 C27 1_555 1_555
C28 C22 1_555 1_555
H16 C28 1_555 1_555
N1 C9 1_555 1_555
N2 C14 1_555 1_555
N3 C14 1_555 1_555
N4 C15 1_555 1_555
N5 C18 1_555 1_555
O1 Zn1 1_555 1_555
O2 C1 1_555 1_555
O3 C8 1_555 1_555
O4 C8 1_555 1_555
O5 Zn2 1_555 1_555
O6 C21 1_555 1_555
O7 C25 1_555 1_555
O8 C25 1_555 1_555
O9 Zn1 1_555 1_555
O10 Zn1 1_555 1_555
O11 Zn2 1_555 1_555
O12 H24 1_555 1_555
H17 N4 1_555 1_555
H18 O10 1_555 1_555
H19 O9 1_555 1_555
H20 O11 1_555 1_555
H21 O9 1_555 1_555
H22 O11 1_555 1_555
H23 O10 1_555 1_555
H25 O12 1_555 1_555
Zn1_2 O4 1_555 1_555
Zn2_2 O7 1_555 1_555
O4_2 Zn1 1_555 1_555
O7_2 Zn2 1_555 1_555
C1 O1 1_555 1_555
C6 C7 1_555 1_555
C13 N1 1_555 1_555
C15 N2 1_555 1_555
C19 C20 1_555 1_555
C19 N5 1_555 1_555
C21 O5 1_555 1_555
C27 C28 1_555 1_555
N3 N4 1_555 1_555

#END
