
#######################################################################
#
#                 Cambridge Crystallographic Data Centre
#                                CCDC 
#
#######################################################################
#
# If this CIF has been generated from an entry in the Cambridge 
# Structural Database, then it will include bibliographic, chemical, 
# crystal, experimental, refinement or atomic coordinate data resulting 
# from the CCDC's data processing and validation procedures.
#
#######################################################################

data_NUWWUY
_symmetry_cell_setting           monoclinic
_symmetry_space_group_name_H-M   'P 21/c'
_symmetry_Int_Tables_number      14
_space_group_name_Hall           '-P 2ybc'
loop_
_symmetry_equiv_pos_site_id
_symmetry_equiv_pos_as_xyz
1 x,y,z
2 -x,1/2+y,1/2-z
3 -x,-y,-z
4 x,1/2-y,1/2+z
_cell_length_a                   7.2690(15)
_cell_length_b                   16.820(3)
_cell_length_c                   22.264(5)
_cell_angle_alpha                90
_cell_angle_beta                 98.04(3)
_cell_angle_gamma                90
_cell_volume                     2695.34
loop_
_atom_site_label
_atom_site_type_symbol
_atom_site_fract_x
_atom_site_fract_y
_atom_site_fract_z
Zn1 Zn -0.09789(10) 0.21448(4) 0.23016(3)
Zn2 Zn 0.52839(10) -0.26742(4) 0.71102(3)
C1 C 0.1006(8) 0.2346(4) 0.1428(3)
C2 C 0.2193(8) 0.2249(4) 0.0929(3)
C3 C 0.4149(8) 0.2135(4) 0.1047(3)
C4 C 0.5200(8) 0.2236(4) 0.1673(3)
C5 C 0.5125(10) 0.1970(4) 0.0562(3)
H1 H 0.6403 0.1892 0.0638
C6 C 0.4223(11) 0.1919(5) -0.0029(3)
H2 H 0.4890 0.1812 -0.0347
C7 C 0.2336(11) 0.2028(4) -0.0137(3)
H3 H 0.1723 0.1983 -0.0531
C8 C 0.1325(9) 0.2204(4) 0.0331(3)
H4 H 0.0053 0.2293 0.0244
C9 C -0.1551(8) 0.3416(4) 0.3140(3)
C10 C -0.0663(9) 0.4109(4) 0.3508(3)
C11 C 0.1191(9) 0.4328(4) 0.3501(3)
C12 C 0.2562(9) 0.3863(4) 0.3178(3)
C13 C 0.1894(10) 0.4987(4) 0.3848(4)
H5 H 0.3118 0.5145 0.3844
C14 C 0.0781(12) 0.5402(5) 0.4193(4)
H6 H 0.1269 0.5833 0.4425
C15 C -0.1062(11) 0.5182(5) 0.4199(4)
H7 H -0.1810 0.5461 0.4432
C16 C -0.1759(10) 0.4543(4) 0.3852(3)
H8 H -0.2995 0.4399 0.3849
C17 C 0.4242(9) -0.1426(4) 0.6227(3)
H9 H 0.3825 -0.1881 0.6014
C18 C 0.3948(8) -0.0691(4) 0.5935(3)
C19 C 0.4556(9) -0.0009(4) 0.6264(3)
H10 H 0.4364 0.0492 0.6089
C20 C 0.5451(9) -0.0089(4) 0.6856(3)
H11 H 0.5888 0.0356 0.7079
C21 C 0.5684(8) -0.0844(4) 0.7110(3)
H12 H 0.6267 -0.0892 0.7508
C22 C 0.2964(8) -0.0658(4) 0.5309(3)
C23 C 0.1614(8) -0.0231(4) 0.4469(3)
C24 C 0.0856(8) 0.0291(4) 0.3958(3)
C25 C -0.0095(9) 0.0015(4) 0.3406(3)
H13 H -0.0311 -0.0526 0.3345
C26 C -0.0712(8) 0.0556(4) 0.2949(3)
H14 H -0.1338 0.0365 0.2585
C27 C 0.0455(9) 0.1607(4) 0.3553(3)
H15 H 0.0650 0.2151 0.3605
C28 C 0.1089(8) 0.1108(4) 0.4028(3)
H16 H 0.1670 0.1316 0.4393
N1 N 0.5101(7) -0.1510(3) 0.6804(2)
N2 N 0.2526(7) 0.0027(3) 0.4998(2)
N3 N 0.1527(8) -0.1030(3) 0.4468(3)
N4 N 0.2396(8) -0.1321(3) 0.5010(2)
N5 N -0.0437(7) 0.1347(3) 0.3016(2)
O1 O 0.1195(6) 0.1871(3) 0.1873(2)
O2 O -0.0283(6) 0.2853(3) 0.1368(2)
O3 O 0.4604(6) 0.2749(3) 0.2012(2)
O4 O 0.6657(6) 0.1816(3) 0.1813(2)
O5 O -0.0892(6) 0.3220(3) 0.2661(2)
O6 O -0.2899(6) 0.3077(3) 0.3331(2)
O7 O 0.2797(6) 0.3125(3) 0.3324(2)
O8 O 0.3458(7) 0.4206(3) 0.2827(2)
H17 H 0.1168 -0.1344 0.4202
Zn1_2 Zn 0.90211(10) 0.21448(4) 0.23016(3)
Zn2B Zn 0.47161(10) 0.26742(4) 0.28898(3)
Zn2B_2 Zn -0.52839(10) 0.26742(4) 0.28898(3)
O3B O 0.5396(6) -0.2749(3) 0.7988(2)
O4_2 O -0.3343(6) 0.1816(3) 0.1813(2)
O6B O 0.2899(6) -0.3077(3) 0.6669(2)
O7B O 0.7203(6) -0.3125(3) 0.6676(2)
loop_
_geom_bond_atom_site_label_1
_geom_bond_atom_site_label_2
_geom_bond_site_symmetry_1
_geom_bond_site_symmetry_2
Zn1 N5 1_555 1_555
Zn2 N1 1_555 1_555
C1 C2 1_555 1_555
C2 C3 1_555 1_555
C3 C4 1_555 1_555
C4 O3 1_555 1_555
C5 C3 1_555 1_555
H1 C5 1_555 1_555
C6 C5 1_555 1_555
H2 C6 1_555 1_555
C7 C6 1_555 1_555
H3 C7 1_555 1_555
C8 C2 1_555 1_555
H4 C8 1_555 1_555
C9 C10 1_555 1_555
C10 C11 1_555 1_555
C11 C12 1_555 1_555
C12 O7 1_555 1_555
C13 C11 1_555 1_555
H5 C13 1_555 1_555
C14 C13 1_555 1_555
H6 C14 1_555 1_555
C15 C14 1_555 1_555
H7 C15 1_555 1_555
C16 C10 1_555 1_555
H8 C16 1_555 1_555
C17 H9 1_555 1_555
C18 C17 1_555 1_555
C19 C18 1_555 1_555
H10 C19 1_555 1_555
C20 C19 1_555 1_555
H11 C20 1_555 1_555
C21 C20 1_555 1_555
H12 C21 1_555 1_555
C22 C18 1_555 1_555
C23 C24 1_555 1_555
C24 C25 1_555 1_555
C25 H13 1_555 1_555
C26 C25 1_555 1_555
H14 C26 1_555 1_555
C27 H15 1_555 1_555
C28 C24 1_555 1_555
H16 C28 1_555 1_555
N1 C17 1_555 1_555
N2 C22 1_555 1_555
N3 C23 1_555 1_555
N4 C22 1_555 1_555
N5 C26 1_555 1_555
O1 Zn1 1_555 1_555
O2 C1 1_555 1_555
O3 Zn2B 1_555 1_555
O4 C4 1_555 1_555
O5 Zn1 1_555 1_555
O6 C9 1_555 1_555
O7 Zn2B 1_555 1_555
O8 C12 1_555 1_555
H17 N3 1_555 1_555
Zn1_2 O4 1_555 1_555
Zn2B_2 O6 1_555 1_555
O3B Zn2 1_555 1_555
O4_2 Zn1 1_555 1_555
O6B Zn2 1_555 1_555
O7B Zn2 1_555 1_555
C1 O1 1_555 1_555
C7 C8 1_555 1_555
C9 O5 1_555 1_555
C15 C16 1_555 1_555
C21 N1 1_555 1_555
C23 N2 1_555 1_555
C27 C28 1_555 1_555
C27 N5 1_555 1_555
N3 N4 1_555 1_555

#END
