
#######################################################################
#
#                 Cambridge Crystallographic Data Centre
#                                CCDC 
#
#######################################################################
#
# If this CIF has been generated from an entry in the Cambridge 
# Structural Database, then it will include bibliographic, chemical, 
# crystal, experimental, refinement or atomic coordinate data resulting 
# from the CCDC's data processing and validation procedures.
#
#######################################################################

data_NUWWOS
_symmetry_cell_setting           monoclinic
_symmetry_space_group_name_H-M   'P 21/n'
_symmetry_Int_Tables_number      14
_space_group_name_Hall           '-P 2yn'
loop_
_symmetry_equiv_pos_site_id
_symmetry_equiv_pos_as_xyz
1 x,y,z
2 1/2-x,1/2+y,1/2-z
3 -x,-y,-z
4 1/2+x,1/2-y,1/2+z
_cell_length_a                   12.683(3)
_cell_length_b                   11.980(2)
_cell_length_c                   13.597(3)
_cell_angle_alpha                90
_cell_angle_beta                 97.70(3)
_cell_angle_gamma                90
_cell_volume                     2047.33
loop_
_atom_site_label
_atom_site_type_symbol
_atom_site_fract_x
_atom_site_fract_y
_atom_site_fract_z
Zn1 Zn 0.90460(2) 1.03293(2) -0.13289(2)
C1 C 0.94273(19) 0.81923(19) 0.01084(18)
C2 C 0.89669(18) 0.70413(19) -0.00280(17)
C3 C 0.82582(19) 0.6804(2) -0.08681(18)
H1 H 0.8030 0.7370 -0.1315
C4 C 0.7888(2) 0.5724(2) -0.10445(19)
C5 C 0.7170(2) 0.5464(2) -0.1984(2)
C6 C 0.8215(2) 0.4894(2) -0.0365(2)
H2 H 0.7984 0.4164 -0.0489
C7 C 0.8879(2) 0.5141(2) 0.0493(2)
H3 H 0.9068 0.4587 0.0963
C8 C 0.9265(2) 0.6211(2) 0.06571(19)
H4 H 0.9727 0.6373 0.1230
C9 C 0.7315(3) 1.1892(2) -0.0726(2)
H5 H 0.7606 1.2379 -0.1150
C10 C 0.6511(3) 1.2266(3) -0.0238(3)
H6 H 0.6260 1.2993 -0.0335
C11 C 0.6070(3) 1.1560(3) 0.0400(3)
H7 H 0.5528 1.1803 0.0746
C12 C 0.6456(2) 1.0485(2) 0.0509(2)
C13 C 0.7262(2) 1.0169(2) -0.0020(2)
H8 H 0.7510 0.9439 0.0046
C14 C 0.6062(2) 0.9631(2) 0.1139(2)
C15 C 0.5828(2) 0.8122(2) 0.1848(2)
C16 C 0.5922(2) 0.6937(2) 0.2114(2)
C17 C 0.6691(3) 0.6280(3) 0.1788(3)
H9 H 0.7172 0.6583 0.1403
H10 H 0.5038 1.0299 0.1813
C18 C 0.6740(3) 0.5159(3) 0.2041(3)
H13 H 0.7258 0.4700 0.1831
C19 C 0.6013(3) 0.4736(3) 0.2604(3)
H14 H 0.6047 0.3983 0.2775
C20 C 0.5225(2) 0.6443(2) 0.2674(2)
H15 H 0.4701 0.6884 0.2895
N1 N 0.77043(19) 1.08508(19) -0.06172(17)
N2 N 0.6411(2) 0.8594(2) 0.11965(19)
N3 N 0.5319(2) 0.97689(19) 0.17289(19)
N4 N 0.5145(2) 0.8801(2) 0.21954(19)
N5 N 0.52627(18) 0.53663(18) 0.29145(17)
O1 O 0.91103(16) 0.89139(15) -0.05096(15)
O2 O 1.01123(16) 0.83330(15) 0.08507(15)
O3 O 0.65922(15) 0.62349(17) -0.23902(14)
O4 O 0.71650(16) 0.45105(17) -0.23475(16)
Zn1C Zn 0.40460(2) 0.46707(2) 0.36711(2)
Zn1B Zn 1.09540(2) 0.96707(2) 0.13289(2)
Zn1A Zn 0.59540(2) 0.53293(2) -0.36711(2)
N5C N 1.02627(18) 0.96337(18) -0.20855(17)
O2B O 0.98877(16) 1.16670(15) -0.08507(15)
O3A O 0.84078(15) 1.12349(17) -0.26098(14)
O4A O 0.78350(16) 0.95105(17) -0.26525(16)
H11 H 0.6048 0.7822 0.7902
H12 H 0.6586 0.8799 0.7740
O5 O 0.60424(18) 0.85153(18) 0.79430(19)
loop_
_geom_bond_atom_site_label_1
_geom_bond_atom_site_label_2
_geom_bond_site_symmetry_1
_geom_bond_site_symmetry_2
Zn1 N1 1_555 1_555
C1 C2 1_555 1_555
C2 C3 1_555 1_555
C3 H1 1_555 1_555
C4 C3 1_555 1_555
C5 C4 1_555 1_555
C6 C4 1_555 1_555
H2 C6 1_555 1_555
C7 C6 1_555 1_555
H3 C7 1_555 1_555
C8 C2 1_555 1_555
H4 C8 1_555 1_555
C9 H5 1_555 1_555
C10 C9 1_555 1_555
H6 C10 1_555 1_555
C11 C10 1_555 1_555
H7 C11 1_555 1_555
C12 C11 1_555 1_555
C13 C12 1_555 1_555
H8 C13 1_555 1_555
C14 C12 1_555 1_555
C15 C16 1_555 1_555
C16 C17 1_555 1_555
C17 H9 1_555 1_555
H10 N3 1_555 1_555
H11 O5 1_555 1_555
H12 O5 1_555 1_555
C18 C17 1_555 1_555
H13 C18 1_555 1_555
C19 C18 1_555 1_555
H14 C19 1_555 1_555
C20 C16 1_555 1_555
H15 C20 1_555 1_555
N1 C9 1_555 1_555
N2 C14 1_555 1_555
N3 C14 1_555 1_555
N4 C15 1_555 1_555
N5 C19 1_555 1_555
O1 Zn1 1_555 1_555
O2 C1 1_555 1_555
O3 C5 1_555 1_555
O4 C5 1_555 1_555
Zn1C N5 1_555 1_555
Zn1B O2 1_555 1_555
Zn1A O3 1_555 1_555
N5C Zn1 1_555 1_555
O2B Zn1 1_555 1_555
O3A Zn1 1_555 1_555
O4A Zn1 1_555 1_555
C1 O1 1_555 1_555
C7 C8 1_555 1_555
C13 N1 1_555 1_555
C15 N2 1_555 1_555
C20 N5 1_555 1_555
N3 N4 1_555 1_555
O4 Zn1A 1_555 1_555

#END
