
#######################################################################
#
#                 Cambridge Crystallographic Data Centre
#                                CCDC 
#
#######################################################################
#
# If this CIF has been generated from an entry in the Cambridge 
# Structural Database, then it will include bibliographic, chemical, 
# crystal, experimental, refinement or atomic coordinate data resulting 
# from the CCDC's data processing and validation procedures.
#
#######################################################################

data_NUWXEJ
_symmetry_cell_setting           monoclinic
_symmetry_space_group_name_H-M   'P 21/c'
_symmetry_Int_Tables_number      14
_space_group_name_Hall           '-P 2ybc'
loop_
_symmetry_equiv_pos_site_id
_symmetry_equiv_pos_as_xyz
1 x,y,z
2 -x,1/2+y,1/2-z
3 -x,-y,-z
4 x,1/2-y,1/2+z
_cell_length_a                   12.400(2)
_cell_length_b                   27.660(5)
_cell_length_c                   11.555(2)
_cell_angle_alpha                90
_cell_angle_beta                 109.462(3)
_cell_angle_gamma                90
_cell_volume                     3736.73
loop_
_atom_site_label
_atom_site_type_symbol
_atom_site_fract_x
_atom_site_fract_y
_atom_site_fract_z
Ag1 Ag 0.270166(19) 0.375226(8) 0.20833(2)
Ag2 Ag 0.30991(2) 0.316727(8) 0.00307(2)
P1 P 0.10065(7) 0.33007(3) 0.11621(8)
P2 P 0.38239(7) 0.39506(3) -0.01512(7)
C1 C -0.0031(3) 0.33022(11) 0.1960(3)
C2 C -0.1171(3) 0.31715(12) 0.1388(3)
H1 H -0.1429 0.3079 0.0548
C3 C -0.1920(3) 0.31751(13) 0.2030(4)
H2 H -0.2699 0.3091 0.1630
C4 C -0.1549(3) 0.33003(12) 0.3263(3)
H3 H -0.2065 0.3292 0.3713
C5 C -0.0425(3) 0.34370(13) 0.3836(3)
H4 H -0.0172 0.3529 0.4676
C6 C 0.0330(3) 0.34400(12) 0.3186(3)
H5 H 0.1101 0.3537 0.3580
C7 C 0.0142(3) 0.34218(11) -0.0424(3)
C8 C -0.0010(3) 0.39035(12) -0.0789(3)
H6 H 0.0397 0.4150 -0.0245
C9 C -0.0751(3) 0.40258(13) -0.1940(3)
H7 H -0.0864 0.4356 -0.2178
C10 C -0.1327(3) 0.36697(13) -0.2744(3)
H8 H -0.1825 0.3754 -0.3539
C11 C -0.1182(3) 0.31879(13) -0.2393(3)
H9 H -0.1585 0.2943 -0.2946
C12 C -0.0446(3) 0.30628(12) -0.1232(3)
H10 H -0.0345 0.2733 -0.0991
C13 C 0.1424(3) 0.26634(11) 0.1179(3)
C14 C 0.1054(3) 0.23129(11) 0.1798(3)
H11 H 0.0504 0.2388 0.2178
C15 C 0.1488(3) 0.18459(12) 0.1865(3)
H12 H 0.1247 0.1600 0.2298
C16 C 0.2268(3) 0.17492(12) 0.1295(3)
H13 H 0.2576 0.1433 0.1321
C17 C 0.2606(3) 0.21189(11) 0.0675(3)
H14 H 0.3143 0.2049 0.0274
N1 N 0.2202(2) 0.25714(9) 0.0623(2)
C18 C 0.4594(3) 0.40054(11) -0.1226(3)
C19 C 0.5262(3) 0.36158(12) -0.1326(3)
H15 H 0.5310 0.3338 -0.0828
C20 C 0.5857(3) 0.36289(13) -0.2144(4)
H16 H 0.6322 0.3363 -0.2200
C21 C 0.5776(3) 0.40278(13) -0.2878(3)
H17 H 0.6181 0.4035 -0.3446
C22 C 0.5108(3) 0.44184(13) -0.2797(3)
H18 H 0.5049 0.4692 -0.3313
C23 C 0.4528(3) 0.44095(11) -0.1962(3)
H19 H 0.4083 0.4680 -0.1891
C24 C 0.2864(3) 0.44705(11) -0.0444(3)
C25 C 0.2010(3) 0.45007(12) -0.1591(3)
H20 H 0.1935 0.4252 -0.2179
C26 C 0.1276(3) 0.48895(12) -0.1875(3)
H21 H 0.0707 0.4911 -0.2663
C27 C 0.1363(3) 0.52489(12) -0.1020(3)
H22 H 0.0848 0.5515 -0.1212
C28 C 0.2199(3) 0.52198(13) 0.0112(3)
H23 H 0.2261 0.5467 0.0702
C29 C 0.2953(3) 0.48320(11) 0.0402(3)
H24 H 0.3532 0.4816 0.1186
C30 C 0.4868(3) 0.40895(10) 0.1353(3)
C31 C 0.5989(3) 0.42193(11) 0.1535(3)
H25 H 0.6266 0.4241 0.0863
C32 C 0.6702(3) 0.43169(11) 0.2722(3)
H26 H 0.7481 0.4400 0.2876
C33 C 0.6270(3) 0.42922(11) 0.3669(3)
H27 H 0.6741 0.4365 0.4485
C34 C 0.5139(3) 0.41601(11) 0.3422(3)
H28 H 0.4842 0.4145 0.4081
N2 N 0.4449(2) 0.40536(9) 0.2291(2)
S1 S 0.22453(7) 0.46805(3) 0.35843(8)
O1 O 0.2761(2) 0.42104(8) 0.3901(2)
O2 O 0.1313(2) 0.46909(10) 0.2442(2)
O3 O 0.3026(3) 0.50742(10) 0.3799(3)
C35 C 0.1569(3) 0.47630(12) 0.4736(3)
F1 F 0.11299(18) 0.52077(7) 0.4681(2)
F2 F 0.2308(2) 0.47083(8) 0.58679(19)
F3 F 0.0718(2) 0.44508(9) 0.4585(2)
S2 S 0.44573(7) 0.28156(3) 0.35410(7)
O4 O 0.3957(2) 0.23664(8) 0.3738(2)
O5 O 0.3961(2) 0.32386(8) 0.3896(2)
O6 O 0.4674(2) 0.28546(8) 0.2402(2)
C36 C 0.5882(3) 0.27983(12) 0.4695(3)
F4 F 0.64241(18) 0.32162(7) 0.4762(2)
F5 F 0.65317(17) 0.24588(7) 0.4428(2)
F6 F 0.58424(19) 0.27003(8) 0.57994(19)
Ag2C Ag 0.30991(2) 0.183273(8) 0.50307(2)
O4C O 0.3957(2) 0.26336(8) -0.1262(2)
loop_
_geom_bond_atom_site_label_1
_geom_bond_atom_site_label_2
_geom_bond_site_symmetry_1
_geom_bond_site_symmetry_2
Ag1 P1 1_555 1_555
Ag2 P2 1_555 1_555
P1 C1 1_555 1_555
P2 C18 1_555 1_555
C1 C2 1_555 1_555
C2 H1 1_555 1_555
C3 C2 1_555 1_555
H2 C3 1_555 1_555
C4 C3 1_555 1_555
H3 C4 1_555 1_555
C5 C4 1_555 1_555
H4 C5 1_555 1_555
C6 C1 1_555 1_555
H5 C6 1_555 1_555
C7 P1 1_555 1_555
C8 C7 1_555 1_555
H6 C8 1_555 1_555
C9 C8 1_555 1_555
H7 C9 1_555 1_555
C10 C9 1_555 1_555
H8 C10 1_555 1_555
C11 C10 1_555 1_555
H9 C11 1_555 1_555
C12 C7 1_555 1_555
H10 C12 1_555 1_555
C13 P1 1_555 1_555
C14 C13 1_555 1_555
H11 C14 1_555 1_555
C15 C14 1_555 1_555
H12 C15 1_555 1_555
C16 C15 1_555 1_555
H13 C16 1_555 1_555
C17 C16 1_555 1_555
H14 C17 1_555 1_555
N1 Ag2 1_555 1_555
C18 C19 1_555 1_555
C19 H15 1_555 1_555
C20 C19 1_555 1_555
H16 C20 1_555 1_555
C21 C20 1_555 1_555
H17 C21 1_555 1_555
C22 C21 1_555 1_555
H18 C22 1_555 1_555
C23 C18 1_555 1_555
H19 C23 1_555 1_555
C24 P2 1_555 1_555
C25 C24 1_555 1_555
H20 C25 1_555 1_555
C26 C25 1_555 1_555
H21 C26 1_555 1_555
C27 C26 1_555 1_555
H22 C27 1_555 1_555
C28 C27 1_555 1_555
H23 C28 1_555 1_555
C29 C24 1_555 1_555
H24 C29 1_555 1_555
C30 P2 1_555 1_555
C31 C30 1_555 1_555
H25 C31 1_555 1_555
C32 C31 1_555 1_555
H26 C32 1_555 1_555
C33 C32 1_555 1_555
H27 C33 1_555 1_555
C34 C33 1_555 1_555
H28 C34 1_555 1_555
N2 Ag1 1_555 1_555
S1 O1 1_555 1_555
O1 Ag1 1_555 1_555
O2 S1 1_555 1_555
O3 S1 1_555 1_555
C35 S1 1_555 1_555
F1 C35 1_555 1_555
F2 C35 1_555 1_555
F3 C35 1_555 1_555
S2 O4 1_555 1_555
O4 Ag2C 1_555 1_555
O5 Ag1 1_555 1_555
O6 S2 1_555 1_555
C36 S2 1_555 1_555
F4 C36 1_555 1_555
F5 C36 1_555 1_555
F6 C36 1_555 1_555
O4C Ag2 1_555 1_555
C5 C6 1_555 1_555
C11 C12 1_555 1_555
C13 N1 1_555 1_555
C17 N1 1_555 1_555
C22 C23 1_555 1_555
C28 C29 1_555 1_555
C30 N2 1_555 1_555
C34 N2 1_555 1_555
S2 O5 1_555 1_555

#END
