
#######################################################################
#
#                 Cambridge Crystallographic Data Centre
#                                CCDC 
#
#######################################################################
#
# If this CIF has been generated from an entry in the Cambridge 
# Structural Database, then it will include bibliographic, chemical, 
# crystal, experimental, refinement or atomic coordinate data resulting 
# from the CCDC's data processing and validation procedures.
#
#######################################################################

data_NUWXAF
_symmetry_cell_setting           monoclinic
_symmetry_space_group_name_H-M   'P 21/n'
_symmetry_Int_Tables_number      14
_space_group_name_Hall           '-P 2yn'
loop_
_symmetry_equiv_pos_site_id
_symmetry_equiv_pos_as_xyz
1 x,y,z
2 1/2-x,1/2+y,1/2-z
3 -x,-y,-z
4 1/2+x,1/2-y,1/2+z
_cell_length_a                   17.498(4)
_cell_length_b                   10.193(2)
_cell_length_c                   23.340(5)
_cell_angle_alpha                90
_cell_angle_beta                 90.47(3)
_cell_angle_gamma                90
_cell_volume                     4162.71
loop_
_atom_site_label
_atom_site_type_symbol
_atom_site_fract_x
_atom_site_fract_y
_atom_site_fract_z
Zn1 Zn 0.61783(5) 0.72656(8) 0.73159(3)
Zn2 Zn 0.97582(5) 0.74696(8) 0.36122(3)
C1 C 0.9906(5) 0.7905(8) 1.1328(3)
H1 H 0.9915 0.8787 1.1429
C2 C 1.0328(5) 0.5836(8) 1.1458(3)
H2 H 1.0643 0.5247 1.1651
C3 C 0.6191(6) 0.5522(9) -0.0108(4)
H3 H 0.6313 0.4644 -0.0048
C4 C 0.6424(4) 0.6455(7) 0.0271(3)
C5 C 0.6861(4) 0.6093(8) 0.0791(3)
C6 C 0.5747(4) 0.9610(7) 0.7940(3)
C7 C 0.5778(4) 1.3176(7) 0.7512(3)
H4 H 0.5987 1.3696 0.7226
C8 C 0.5608(4) 1.1060(7) 0.7943(3)
C9 C 0.5010(4) 1.2955(7) 0.8352(3)
H5 H 0.4706 1.3326 0.8634
C10 C 0.5203(4) 1.5200(6) 0.7937(3)
C11 C 0.5323(4) 1.3744(7) 0.7929(3)
C12 C 0.8007(4) 0.6381(8) 0.2027(3)
C13 C 0.5148(4) 1.1626(7) 0.8356(3)
H6 H 0.4932 1.1104 0.8638
C14 C 0.9417(4) 0.6213(8) 1.0717(3)
C15 C 0.7816(4) 0.6021(7) 0.8983(3)
C16 C 0.6242(5) 0.7720(8) 0.0151(3)
H7 H 0.6394 0.8386 0.0400
C17 C 0.7153(4) 0.5519(7) 0.8119(3)
H8 H 0.6998 0.4890 0.7854
C18 C 0.8286(5) 0.5437(8) 0.2397(3)
H9 H 0.8163 0.4559 0.2341
C19 C 0.8535(5) 0.6917(8) 0.5424(3)
H10 H 0.8998 0.7360 0.5453
C20 C 0.8652(4) 0.7949(8) 0.2603(3)
H11 H 0.8771 0.8823 0.2675
C21 C 0.8747(5) 0.5798(8) 0.2849(3)
H12 H 0.8929 0.5150 0.3095
C22 C 0.8931(4) 0.5778(8) 1.0247(3)
C23 C 0.6857(5) 0.6085(8) 0.6366(3)
C24 C 0.8823(4) 0.6530(8) 0.4405(3)
C25 C 0.7381(4) 0.6144(7) 0.5864(3)
C26 C 0.7577(4) 0.5115(8) 0.8586(3)
H13 H 0.7700 0.4233 0.8632
C27 C 0.8319(4) 0.6370(7) 0.4913(3)
C28 C 0.7519(5) 0.6011(8) 0.1533(3)
C29 C 0.8181(5) 0.7669(8) 0.2139(3)
H14 H 0.7987 0.8338 0.1909
C30 C 0.5770(6) 0.5896(9) -0.0584(4)
H15 H 0.5605 0.5247 -0.0837
C31 C 0.8240(4) 0.5657(8) 0.9498(3)
C32 C 0.7633(4) 0.7312(8) 0.8874(3)
H16 H 0.7799 0.7964 0.9124
C33 C 0.7209(5) 0.7644(8) 0.8399(3)
H17 H 0.7095 0.8524 0.8336
C34 C 0.9873(5) 0.5360(8) 1.1017(3)
H18 H 0.9878 0.4472 1.0925
C35 C 0.7644(5) 0.5671(9) 0.4878(3)
H19 H 0.7504 0.5269 0.4535
C36 C 0.9437(5) 0.7518(8) 1.0876(4)
H20 H 0.9139 0.8132 1.0681
C37 C 0.5834(5) 0.8020(8) -0.0337(3)
H21 H 0.5727 0.8897 -0.0414
C38 C 0.7175(5) 0.5567(8) 0.5351(3)
H22 H 0.6718 0.5104 0.5323
H23 H 0.6233 1.1481 0.7244
C39 C 0.5922(4) 1.1851(7) 0.7521(3)
C40 C 0.8064(4) 0.6814(8) 0.5903(3)
H24 H 0.8211 0.7197 0.6248
N1 N 0.6954(3) 0.6764(6) 0.8027(2)
N2 N 0.8642(3) 0.6507(6) 0.9830(3)
N3 N 0.8263(4) 0.4437(7) 0.9686(3)
N4 N 0.8697(4) 0.4533(7) 1.0167(3)
N5 N 1.0340(4) 0.7080(6) 1.1622(3)
N6 N 0.8944(3) 0.7047(6) 0.2948(3)
N7 N 0.7249(4) 0.6865(6) 0.1140(3)
N8 N 0.7331(4) 0.4769(7) 0.1452(3)
N9 N 0.6909(4) 0.4835(7) 0.0966(3)
N10 N 0.5589(3) 0.7130(6) -0.0699(2)
O1 O 0.6967(3) 0.6946(6) 0.6751(2)
O2 O 0.6345(4) 0.5242(6) 0.6384(3)
O3 O 0.9101(4) 0.5580(6) 0.4171(3)
O4 O 0.8959(3) 0.7686(5) 0.4244(2)
O5 O 0.6159(3) 0.9160(5) 0.7547(2)
O6 O 0.5453(3) 0.8945(5) 0.8327(2)
O7 O 0.5450(3) 1.5858(5) 0.7534(2)
O8 O 0.4857(3) 1.5652(4) 0.83667(19)
H31 H 0.8806 0.3798 1.0380
H32 H 0.6620 0.4240 0.0899
Zn1C Zn 1.11783(5) 0.77344(8) 1.23159(3)
Zn1_2 Zn 0.61783(5) 1.72656(8) 0.73159(3)
Zn2C Zn 0.47582(5) 0.75304(8) -0.13878(3)
Zn2C_2 Zn 0.47582(5) 0.75304(8) 0.86122(3)
Zn2C_3 Zn 0.47582(5) 1.75304(8) 0.86122(3)
N5C N 0.5340(4) 0.7920(6) 0.6622(3)
N10C N 1.0589(3) 0.7870(6) 0.4301(2)
O6C O 1.0453(3) 0.6055(5) 0.3327(2)
O7_2 O 0.5450(3) 0.5858(5) 0.7534(2)
O8C O 0.9857(3) 0.9348(4) 0.33667(19)
C41 C 0.8841(12) 0.240(2) 0.1390(7)
H25 H 0.8415 0.3003 0.1412
H26 H 0.9268 0.2817 0.1583
C42 C 0.8639(12) 0.130(2) 0.1738(9)
H27 H 0.8568 0.1588 0.2125
H28 H 0.9041 0.0660 0.1727
H29 H 0.8174 0.0919 0.1595
O10 O 0.9030(4) 0.2340(7) 0.0832(3)
H30 H 0.9459 0.2028 0.0801
O9 O 0.0455(5) 0.1401(10) 0.0723(4)
H33 H 0.0735 0.1943 0.0549
H34 H 0.0745 0.0823 0.0911
loop_
_geom_bond_atom_site_label_1
_geom_bond_atom_site_label_2
_geom_bond_site_symmetry_1
_geom_bond_site_symmetry_2
Zn1 N1 1_555 1_555
Zn2 N6 1_555 1_555
C1 H1 1_555 1_555
C2 H2 1_555 1_555
C3 H3 1_555 1_555
C4 C3 1_555 1_555
C5 C4 1_555 1_555
C6 C8 1_555 1_555
C7 H4 1_555 1_555
C8 C13 1_555 1_555
C9 H5 1_555 1_555
C10 C11 1_555 1_555
C11 C7 1_555 1_555
C12 C18 1_555 1_555
C13 C9 1_555 1_555
H6 C13 1_555 1_555
C14 C22 1_555 1_555
C15 C26 1_555 1_555
C16 C4 1_555 1_555
H7 C16 1_555 1_555
C17 H8 1_555 1_555
C18 H9 1_555 1_555
C19 H10 1_555 1_555
C20 H11 1_555 1_555
C21 C18 1_555 1_555
H12 C21 1_555 1_555
C22 N2 1_555 1_555
C23 C25 1_555 1_555
C24 C27 1_555 1_555
C25 C38 1_555 1_555
C26 C17 1_555 1_555
H13 C26 1_555 1_555
C27 C19 1_555 1_555
C28 C12 1_555 1_555
C29 C12 1_555 1_555
H14 C29 1_555 1_555
C30 C3 1_555 1_555
H15 C30 1_555 1_555
C31 C15 1_555 1_555
C32 C15 1_555 1_555
H16 C32 1_555 1_555
C33 C32 1_555 1_555
H17 C33 1_555 1_555
C34 C2 1_555 1_555
H18 C34 1_555 1_555
C35 C27 1_555 1_555
H19 C35 1_555 1_555
C36 C1 1_555 1_555
H20 C36 1_555 1_555
C37 C16 1_555 1_555
H21 C37 1_555 1_555
C38 C35 1_555 1_555
H22 C38 1_555 1_555
H23 C39 1_555 1_555
C39 C7 1_555 1_555
C40 C19 1_555 1_555
H24 C40 1_555 1_555
C41 H25 1_555 1_555
H26 C41 1_555 1_555
C42 C41 1_555 1_555
H27 C42 1_555 1_555
H28 C42 1_555 1_555
H29 C42 1_555 1_555
N1 C17 1_555 1_555
N2 C31 1_555 1_555
N3 C31 1_555 1_555
N4 C22 1_555 1_555
N5 C1 1_555 1_555
N6 C20 1_555 1_555
N7 C5 1_555 1_555
N8 C28 1_555 1_555
N9 C5 1_555 1_555
N10 C30 1_555 1_555
O1 Zn1 1_555 1_555
O2 C23 1_555 1_555
O3 C24 1_555 1_555
O4 Zn2 1_555 1_555
O5 Zn1 1_555 1_555
O6 C6 1_555 1_555
O7 C10 1_555 1_555
O8 C10 1_555 1_555
O9 H33 1_555 1_555
O10 C41 1_555 1_555
H30 O10 1_555 1_555
H31 N4 1_555 1_555
H32 N9 1_555 1_555
H34 O9 1_555 1_555
Zn1C N5 1_555 1_555
Zn1_2 O7 1_555 1_555
Zn2C N10 1_555 1_555
Zn2C_2 O6 1_555 1_555
Zn2C_3 O8 1_555 1_555
N5C Zn1 1_555 1_555
N10C Zn2 1_555 1_555
O6C Zn2 1_555 1_555
O7_2 Zn1 1_555 1_555
O8C Zn2 1_555 1_555
C2 N5 1_555 1_555
C6 O5 1_555 1_555
C8 C39 1_555 1_555
C9 C11 1_555 1_555
C14 C34 1_555 1_555
C14 C36 1_555 1_555
C20 C29 1_555 1_555
C21 N6 1_555 1_555
C23 O1 1_555 1_555
C24 O4 1_555 1_555
C25 C40 1_555 1_555
C28 N7 1_555 1_555
C33 N1 1_555 1_555
C37 N10 1_555 1_555
N3 N4 1_555 1_555
N8 N9 1_555 1_555

#END
