
#######################################################################
#
#                 Cambridge Crystallographic Data Centre
#                                CCDC 
#
#######################################################################
#
# If this CIF has been generated from an entry in the Cambridge 
# Structural Database, then it will include bibliographic, chemical, 
# crystal, experimental, refinement or atomic coordinate data resulting 
# from the CCDC's data processing and validation procedures.
#
#######################################################################

data_NUWZAG01
_symmetry_cell_setting           orthorhombic
_symmetry_space_group_name_H-M   'P b c a'
_symmetry_Int_Tables_number      61
_space_group_name_Hall           '-P 2ac 2ab'
loop_
_symmetry_equiv_pos_site_id
_symmetry_equiv_pos_as_xyz
1 x,y,z
2 1/2+x,y,1/2-z
3 x,1/2-y,1/2+z
4 1/2-x,1/2+y,z
5 -x,-y,-z
6 1/2-x,-y,1/2+z
7 -x,1/2+y,1/2-z
8 1/2+x,1/2-y,-z
_cell_length_a                   9.105(3)
_cell_length_b                   15.957(4)
_cell_length_c                   19.814(5)
_cell_angle_alpha                90
_cell_angle_beta                 90
_cell_angle_gamma                90
_cell_volume                     2878.75
loop_
_atom_site_label
_atom_site_type_symbol
_atom_site_fract_x
_atom_site_fract_y
_atom_site_fract_z
Mn1 Mn 0.11638(3) -0.151360(13) 0.343560(11)
N1 N -0.09186(15) -0.11884(9) 0.40307(7)
C1 C -0.22182(19) -0.10117(11) 0.37438(9)
H1 H -0.2307 -0.1062 0.3268
C2 C -0.3438(2) -0.07593(14) 0.41115(10)
H2 H -0.4342 -0.0640 0.3892
C3 C -0.3308(2) -0.06854(13) 0.48045(10)
H3 H -0.4125 -0.0514 0.5069
C4 C -0.1965(2) -0.08647(11) 0.51109(9)
H4 H -0.1855 -0.0815 0.5586
C5 C -0.07924(18) -0.11161(10) 0.47120(8)
C6 C 0.06732(19) -0.13406(10) 0.50000(8)
C7 C 0.0924(2) -0.13736(14) 0.56973(10)
H5 H 0.0161 -0.1241 0.6007
C8 C 0.2307(3) -0.16038(14) 0.59280(10)
H6 H 0.2501 -0.1634 0.6398
C9 C 0.3402(2) -0.17889(12) 0.54657(10)
H7 H 0.4361 -0.1938 0.5612
C10 C 0.3064(2) -0.17511(10) 0.47854(9)
H8 H 0.3809 -0.1888 0.4468
N2 N 0.17330(16) -0.15306(7) 0.45519(7)
O1 O -0.00252(14) -0.24840(7) 0.28214(6)
O2 O 0.15911(14) -0.29845(7) 0.35371(6)
C11 C 0.06618(18) -0.30906(9) 0.30778(8)
C12 C 0.03502(17) -0.39642(9) 0.28372(8)
H9 H 0.0883 -0.4414 0.3033
C13 C -0.06297(17) -0.41371(9) 0.23658(8)
H10 H -0.1190 -0.3689 0.2184
C14 C -0.09023(17) -0.50001(9) 0.21038(8)
O3 O -0.16665(14) -0.50821(7) 0.15750(5)
O4 O -0.03591(13) -0.56271(6) 0.24043(6)
O5 O 0.34390(14) -0.15816(8) 0.31080(7)
H11 H 0.378(2) -0.1972(14) 0.2893(12)
H12 H 0.388(2) -0.1166(13) 0.2959(12)
O3F O 0.16665(14) -0.00821(7) 0.34250(5)
O4F O 0.03591(13) -0.06271(6) 0.25957(6)
Mn1F Mn -0.11638(3) -0.651360(13) 0.156440(11)
loop_
_geom_bond_atom_site_label_1
_geom_bond_atom_site_label_2
_geom_bond_site_symmetry_1
_geom_bond_site_symmetry_2
Mn1 N1 1_555 1_555
N1 C1 1_555 1_555
C1 H1 1_555 1_555
C2 C1 1_555 1_555
H2 C2 1_555 1_555
C3 C2 1_555 1_555
H3 C3 1_555 1_555
C4 C3 1_555 1_555
H4 C4 1_555 1_555
C5 N1 1_555 1_555
C6 C5 1_555 1_555
C7 C6 1_555 1_555
H5 C7 1_555 1_555
C8 C7 1_555 1_555
H6 C8 1_555 1_555
C9 C8 1_555 1_555
H7 C9 1_555 1_555
C10 C9 1_555 1_555
H8 C10 1_555 1_555
N2 Mn1 1_555 1_555
O1 Mn1 1_555 1_555
O2 Mn1 1_555 1_555
C11 O1 1_555 1_555
C12 C11 1_555 1_555
H9 C12 1_555 1_555
C13 C12 1_555 1_555
H10 C13 1_555 1_555
C14 C13 1_555 1_555
O3 C14 1_555 1_555
O4 C14 1_555 1_555
O5 Mn1 1_555 1_555
H11 O5 1_555 1_555
H12 O5 1_555 1_555
O3F Mn1 1_555 1_555
O4F Mn1 1_555 1_555
Mn1F O3 1_555 1_555
C4 C5 1_555 1_555
C6 N2 1_555 1_555
C10 N2 1_555 1_555
O2 C11 1_555 1_555
O4 Mn1F 1_555 1_555

#END
