
#######################################################################
#
#                 Cambridge Crystallographic Data Centre
#                                CCDC 
#
#######################################################################
#
# If this CIF has been generated from an entry in the Cambridge 
# Structural Database, then it will include bibliographic, chemical, 
# crystal, experimental, refinement or atomic coordinate data resulting 
# from the CCDC's data processing and validation procedures.
#
#######################################################################

data_NUXGIY
_symmetry_cell_setting           triclinic
_symmetry_space_group_name_H-M   'P -1'
_symmetry_Int_Tables_number      2
_space_group_name_Hall           '-P 1'
loop_
_symmetry_equiv_pos_site_id
_symmetry_equiv_pos_as_xyz
1 x,y,z
2 -x,-y,-z
_cell_length_a                   8.221(3)
_cell_length_b                   9.012(3)
_cell_length_c                   15.966(5)
_cell_angle_alpha                80.724(10)
_cell_angle_beta                 88.677(10)
_cell_angle_gamma                68.189(9)
_cell_volume                     1082.97
loop_
_atom_site_label
_atom_site_type_symbol
_atom_site_fract_x
_atom_site_fract_y
_atom_site_fract_z
S1 S 0.37434(8) -0.26474(6) 0.82023(4)
S2 S 0.27004(8) -0.40788(6) 0.69916(4)
Na1 Na 0.29890(12) 0.16440(9) 0.74890(6)
F1 F 0.1798(3) -0.14443(19) 0.94275(12)
F2 F 0.0819(3) -0.2888(3) 0.88033(12)
F3 F 0.3033(3) -0.40210(19) 0.96658(10)
F4 F 0.3573(3) -0.19481(18) 0.59562(11)
F5 F 0.5413(3) -0.4360(3) 0.60476(12)
F6 F 0.2992(3) -0.3641(3) 0.53573(11)
O1 O 0.2067(3) 0.16347(19) 0.60292(12)
O2 O -0.0232(3) 0.26205(18) 0.73534(12)
O3 O 0.1492(3) 0.3146(2) 0.86469(12)
O4 O 0.4940(3) 0.10638(18) 0.87392(11)
O5 O 0.6037(3) 0.0503(2) 0.71242(13)
O6 O 0.2868(3) -0.10771(18) 0.77185(12)
O7 O 0.5376(3) -0.2979(3) 0.86329(12)
O8 O 0.0971(3) -0.2890(3) 0.69303(13)
O9 O 0.2948(3) -0.5704(2) 0.69298(12)
N1 N 0.3924(3) -0.4123(2) 0.77476(12)
C1 C 0.2170(5) 0.2798(4) 0.53450(19)
C2 C 0.0388(4) 0.1517(3) 0.60865(19)
C3 C -0.0885(4) 0.2820(4) 0.65125(19)
C4 C -0.1062(4) 0.3983(3) 0.7770(2)
C5 C -0.0348(4) 0.3530(4) 0.86651(19)
C6 C 0.2372(5) 0.2434(3) 0.94467(17)
C7 C 0.4275(4) 0.2147(3) 0.93415(18)
C8 C 0.6622(4) 0.1003(4) 0.84702(19)
C9 C 0.7218(4) -0.0127(3) 0.78392(19)
C10 C 0.6582(5) -0.0473(4) 0.6477(3)
C11 C 0.2261(4) -0.2764(3) 0.90669(16)
C12 C 0.3736(4) -0.3472(3) 0.60399(16)
H1 H 0.1820 0.2567 0.4820
H2 H 0.3366 0.2756 0.5312
H3 H 0.1395 0.3869 0.5434
H4 H 0.0509 0.0456 0.6407
H5 H -0.0075 0.1595 0.5514
H6 H -0.1007 0.3890 0.6203
H7 H -0.2039 0.2734 0.6520
H8 H -0.2335 0.4268 0.7759
H9 H -0.0819 0.4921 0.7483
H10 H -0.0898 0.4434 0.8975
H11 H -0.0592 0.2593 0.8952
H12 H 0.2226 0.1406 0.9649
H13 H 0.1888 0.3158 0.9863
H14 H 0.4418 0.3175 0.9138
H15 H 0.4924 0.1670 0.9888
H16 H 0.7456 0.0620 0.8959
H17 H 0.6557 0.2087 0.8211
H18 H 0.8403 -0.0233 0.7667
H19 H 0.7246 -0.1202 0.8093
H20 H 0.6754 -0.1585 0.6711
H21 H 0.7674 -0.0426 0.6257
H22 H 0.5689 -0.0074 0.6021
Na1_2 Na 0.29890(12) -0.83560(9) 0.74890(6)
O9_2 O 0.2948(3) 0.4296(2) 0.69298(12)
loop_
_geom_bond_atom_site_label_1
_geom_bond_atom_site_label_2
_geom_bond_site_symmetry_1
_geom_bond_site_symmetry_2
S1 O6 1_555 1_555
S2 O8 1_555 1_555
Na1 O1 1_555 1_555
F1 C11 1_555 1_555
F2 C11 1_555 1_555
F3 C11 1_555 1_555
F4 C12 1_555 1_555
F5 C12 1_555 1_555
F6 C12 1_555 1_555
O1 C1 1_555 1_555
O2 Na1 1_555 1_555
O3 Na1 1_555 1_555
O4 Na1 1_555 1_555
O5 Na1 1_555 1_555
O6 Na1 1_555 1_555
O7 S1 1_555 1_555
O9 S2 1_555 1_555
N1 S1 1_555 1_555
C1 H1 1_555 1_555
C2 O1 1_555 1_555
C3 O2 1_555 1_555
C4 O2 1_555 1_555
C5 O3 1_555 1_555
C6 O3 1_555 1_555
C7 O4 1_555 1_555
C8 O4 1_555 1_555
C9 O5 1_555 1_555
C10 O5 1_555 1_555
C11 S1 1_555 1_555
C12 S2 1_555 1_555
H2 C1 1_555 1_555
H3 C1 1_555 1_555
H4 C2 1_555 1_555
H5 C2 1_555 1_555
H6 C3 1_555 1_555
H7 C3 1_555 1_555
H8 C4 1_555 1_555
H9 C4 1_555 1_555
H10 C5 1_555 1_555
H11 C5 1_555 1_555
H12 C6 1_555 1_555
H13 C6 1_555 1_555
H14 C7 1_555 1_555
H15 C7 1_555 1_555
H16 C8 1_555 1_555
H17 C8 1_555 1_555
H18 C9 1_555 1_555
H19 C9 1_555 1_555
H20 C10 1_555 1_555
H21 C10 1_555 1_555
H22 C10 1_555 1_555
Na1_2 O9 1_555 1_555
O9_2 Na1 1_555 1_555
S2 N1 1_555 1_555
C2 C3 1_555 1_555
C4 C5 1_555 1_555
C6 C7 1_555 1_555
C8 C9 1_555 1_555

#END
