
#######################################################################
#
#                 Cambridge Crystallographic Data Centre
#                                CCDC 
#
#######################################################################
#
# If this CIF has been generated from an entry in the Cambridge 
# Structural Database, then it will include bibliographic, chemical, 
# crystal, experimental, refinement or atomic coordinate data resulting 
# from the CCDC's data processing and validation procedures.
#
#######################################################################

data_NUXKUN
_symmetry_cell_setting           monoclinic
_symmetry_space_group_name_H-M   'P 21/c'
_symmetry_Int_Tables_number      14
_space_group_name_Hall           '-P 2ybc'
loop_
_symmetry_equiv_pos_site_id
_symmetry_equiv_pos_as_xyz
1 x,y,z
2 -x,1/2+y,1/2-z
3 -x,-y,-z
4 x,1/2-y,1/2+z
_cell_length_a                   7.4685(12)
_cell_length_b                   18.677(3)
_cell_length_c                   21.713(3)
_cell_angle_alpha                90
_cell_angle_beta                 105.671(4)
_cell_angle_gamma                90
_cell_volume                     2916.15
loop_
_atom_site_label
_atom_site_type_symbol
_atom_site_fract_x
_atom_site_fract_y
_atom_site_fract_z
Cd1 Cd 0.91280(6) 0.94114(2) 0.870285(19)
Cd2 Cd 1.33757(6) 1.03183(2) 0.888393(18)
O1 O 1.2197(5) 0.9481(2) 0.94110(17)
O2 O 1.4703(5) 0.9229(2) 1.01929(17)
O3 O 1.1479(6) 0.9639(2) 1.07858(19)
O4 O 0.9221(6) 0.9019(2) 1.1054(2)
O5 O 1.0973(5) 0.5223(2) 1.30565(17)
O6 O 1.0667(7) 0.6399(2) 1.3029(2)
O7 O 1.4841(5) 0.5486(2) 1.33837(17)
O8 O 1.6810(6) 0.5433(3) 1.2790(2)
O9 O 0.9598(7) 0.5870(2) 0.99019(19)
O10 O 0.7826(6) 0.6496(2) 1.0553(2)
N1 N 0.7901(6) 0.8391(3) 0.8929(2)
N2 N 0.6842(7) 0.7296(3) 0.8808(2)
N3 N 0.4312(7) 0.6924(3) 0.7164(2)
N4 N 0.5742(7) 0.6257(3) 0.6618(2)
S1 S 0.9560(2) 0.63545(8) 1.04107(7)
C1 C 1.3065(7) 0.9122(3) 0.9894(2)
C2 C 1.2102(7) 0.8463(3) 1.0043(2)
C3 C 1.2247(8) 0.7858(3) 0.9687(3)
H1 H 1.2868 0.7888 0.9370
C4 C 1.1488(8) 0.7216(3) 0.9796(3)
H2 H 1.1596 0.6814 0.9556
C5 C 1.0579(8) 0.7175(3) 1.0257(2)
C6 C 1.0289(8) 0.7769(3) 1.0593(3)
H3 H 0.9579 0.7735 1.0883
C7 C 1.1069(7) 0.8424(3) 1.0494(2)
C8 C 1.0522(9) 0.9083(3) 1.0802(2)
C9 C 1.1171(7) 0.5841(3) 1.2835(3)
C10 C 1.1915(8) 0.5856(3) 1.2258(2)
C11 C 1.0633(8) 0.6067(3) 1.1685(3)
H4 H 0.9442 0.6214 1.1683
C12 C 1.1175(9) 0.6053(3) 1.1120(2)
C13 C 1.2933(9) 0.5845(3) 1.1108(3)
H5 H 1.3256 0.5823 1.0723
C14 C 1.4205(8) 0.5671(3) 1.1676(3)
H6 H 1.5412 0.5549 1.1676
C15 C 1.3717(8) 0.5675(3) 1.2252(3)
C16 C 1.5226(8) 0.5512(3) 1.2858(3)
C17 C 0.7802(8) 0.7798(3) 0.8604(3)
H7 H 0.8340 0.7735 0.8268
C18 C 0.6914(8) 0.8266(3) 0.9366(3)
H8 H 0.6707 0.8598 0.9659
C19 C 0.6297(8) 0.7592(3) 0.9306(3)
H9 H 0.5626 0.7366 0.9554
C20 C 0.6478(9) 0.6558(3) 0.8581(3)
H10 H 0.7333 0.6242 0.8873
H11 H 0.6722 0.6517 0.8165
C21 C 0.4535(8) 0.6318(3) 0.8525(3)
C22 C 0.4291(11) 0.5808(4) 0.8961(3)
H12 H 0.5308 0.5646 0.9280
C23 C 0.2498(13) 0.5536(4) 0.8921(5)
H13 H 0.2314 0.5207 0.9219
C24 C 0.1074(14) 0.5761(4) 0.8446(5)
H14 H -0.0099 0.5569 0.8411
C25 C 0.1263(9) 0.6263(4) 0.8006(4)
H15 H 0.0236 0.6406 0.7680
C26 C 0.3005(9) 0.6557(3) 0.8051(3)
C27 C 0.3142(10) 0.7136(4) 0.7580(3)
H16 H 0.1904 0.7249 0.7316
H17 H 0.3655 0.7565 0.7813
C28 C 0.4553(8) 0.6263(3) 0.6968(3)
H18 H 0.3958 0.5859 0.7067
C29 C 0.6202(11) 0.6954(4) 0.6581(4)
H19 H 0.7005 0.7121 0.6352
C30 C 0.5359(12) 0.7368(4) 0.6915(4)
H20 H 0.5468 0.7862 0.6967
Cd1B Cd 1.08720(6) 1.05886(2) 1.129715(19)
Cd1C Cd 0.91280(6) 0.55886(2) 1.370285(19)
Cd1C_2 Cd 1.91280(6) 0.55886(2) 1.370285(19)
Cd2B Cd 1.66243(6) 0.96817(2) 1.111607(18)
Cd2B_2 Cd 0.66243(6) 0.96817(2) 1.111607(18)
Cd2C Cd 1.33757(6) 0.46817(2) 1.388393(18)
Cd2A Cd 0.66243(6) 0.53183(2) 0.611607(18)
O2B O 1.5297(5) 1.0771(2) 0.98071(17)
O3B O 0.8521(6) 1.0361(2) 0.92142(19)
O4B O 1.0779(6) 1.0981(2) 0.8946(2)
O5C O 1.0973(5) 0.9777(2) 0.80565(17)
O6C O 1.0667(7) 0.8601(2) 0.8029(2)
O7C O 1.4841(5) 0.9514(2) 0.83837(17)
O8C O 0.6810(6) 0.9567(3) 0.7790(2)
N4A N 1.4258(7) 1.1257(3) 0.8382(2)
loop_
_geom_bond_atom_site_label_1
_geom_bond_atom_site_label_2
_geom_bond_site_symmetry_1
_geom_bond_site_symmetry_2
Cd1 O1 1_555 1_555
Cd2 O1 1_555 1_555
O1 C1 1_555 1_555
O2 C1 1_555 1_555
O3 C8 1_555 1_555
O4 C8 1_555 1_555
O5 C9 1_555 1_555
O6 C9 1_555 1_555
O7 C16 1_555 1_555
O8 C16 1_555 1_555
O9 S1 1_555 1_555
O10 S1 1_555 1_555
N1 Cd1 1_555 1_555
N2 C17 1_555 1_555
N3 C27 1_555 1_555
N4 C28 1_555 1_555
S1 C5 1_555 1_555
C1 C2 1_555 1_555
C2 C3 1_555 1_555
C3 H1 1_555 1_555
C4 C3 1_555 1_555
H2 C4 1_555 1_555
C5 C4 1_555 1_555
C6 C5 1_555 1_555
H3 C6 1_555 1_555
C7 C2 1_555 1_555
C8 C7 1_555 1_555
C9 C10 1_555 1_555
C10 C11 1_555 1_555
C11 H4 1_555 1_555
C12 S1 1_555 1_555
C13 C12 1_555 1_555
H5 C13 1_555 1_555
C14 C13 1_555 1_555
H6 C14 1_555 1_555
C15 C10 1_555 1_555
C16 C15 1_555 1_555
C17 N1 1_555 1_555
H7 C17 1_555 1_555
C18 N1 1_555 1_555
H8 C18 1_555 1_555
C19 N2 1_555 1_555
H9 C19 1_555 1_555
C20 N2 1_555 1_555
H10 C20 1_555 1_555
H11 C20 1_555 1_555
C21 C20 1_555 1_555
C22 C21 1_555 1_555
H12 C22 1_555 1_555
C23 C22 1_555 1_555
H13 C23 1_555 1_555
C24 C23 1_555 1_555
H14 C24 1_555 1_555
C25 C24 1_555 1_555
H15 C25 1_555 1_555
C26 C21 1_555 1_555
C27 C26 1_555 1_555
H16 C27 1_555 1_555
H17 C27 1_555 1_555
C28 N3 1_555 1_555
H18 C28 1_555 1_555
C29 N4 1_555 1_555
H19 C29 1_555 1_555
C30 N3 1_555 1_555
H20 C30 1_555 1_555
Cd1B O3 1_555 1_555
Cd1C O5 1_555 1_555
Cd1C_2 O8 1_555 1_555
Cd2B O2 1_555 1_555
Cd2B_2 O4 1_555 1_555
Cd2C O5 1_555 1_555
Cd2A N4 1_555 1_555
O2B Cd2 1_555 1_555
O3B Cd1 1_555 1_555
O4B Cd2 1_555 1_555
O5C Cd1 1_555 1_555
O6C Cd1 1_555 1_555
O7C Cd2 1_555 1_555
O8C Cd1 1_555 1_555
N4A Cd2 1_555 1_555
Cd2 O5C 1_555 1_555
O6 Cd1C 1_555 1_555
O7 Cd2C 1_555 1_555
C6 C7 1_555 1_555
C11 C12 1_555 1_555
C14 C15 1_555 1_555
C18 C19 1_555 1_555
C25 C26 1_555 1_555
C29 C30 1_555 1_555

#END
