
#######################################################################
#
#                 Cambridge Crystallographic Data Centre
#                                CCDC 
#
#######################################################################
#
# If this CIF has been generated from an entry in the Cambridge 
# Structural Database, then it will include bibliographic, chemical, 
# crystal, experimental, refinement or atomic coordinate data resulting 
# from the CCDC's data processing and validation procedures.
#
#######################################################################

data_NUXLIC
_symmetry_cell_setting           monoclinic
_symmetry_space_group_name_H-M   'C c'
_symmetry_Int_Tables_number      9
_space_group_name_Hall           'C -2yc'
loop_
_symmetry_equiv_pos_site_id
_symmetry_equiv_pos_as_xyz
1 x,y,z
2 x,-y,1/2+z
3 1/2+x,1/2+y,z
4 1/2+x,1/2-y,1/2+z
_cell_length_a                   6.039(3)
_cell_length_b                   29.302(15)
_cell_length_c                   17.045(8)
_cell_angle_alpha                90
_cell_angle_beta                 98.896(7)
_cell_angle_gamma                90
_cell_volume                     2979.91
loop_
_atom_site_label
_atom_site_type_symbol
_atom_site_fract_x
_atom_site_fract_y
_atom_site_fract_z
Co1 Co 0.52170(10) 0.05326(2) 1.00708(5)
N1 N 0.2726(7) 0.03312(15) 0.9214(2)
N2 N -0.0244(7) 0.03109(15) 0.8278(3)
N3 N -0.3337(7) 0.40162(14) 0.6776(3)
N4 N -0.1140(7) 0.43752(15) 0.6067(2)
O1 O 0.7053(6) 0.10812(12) 0.9907(2)
O2 O 0.3628(6) 0.13694(13) 0.9802(2)
O3 O 0.2140(6) 0.50006(12) 0.9953(2)
O4 O 0.3937(7) 0.50287(14) 1.1190(2)
O5 O 0.9776(7) 0.34069(13) 0.8865(2)
O6 O 1.1542(6) 0.33187(13) 1.0267(2)
S1 S 0.9543(2) 0.33211(5) 0.96802(9)
C1 C 0.5703(10) 0.14235(18) 0.9834(3)
C2 C 0.6619(8) 0.18912(17) 0.9797(3)
C3 C 0.8575(9) 0.19722(19) 0.9483(3)
H1 H 0.9362 0.1729 0.9307
C4 C 0.9356(9) 0.24178(19) 0.9430(3)
H2 H 1.0628 0.2472 0.9198
C5 C 0.8250(9) 0.27794(18) 0.9721(3)
C6 C 0.6351(9) 0.27011(18) 1.0042(3)
H3 H 0.5624 0.2942 1.0250
C7 C 0.5508(11) 0.22610(17) 1.0059(4)
H4 H 0.4165 0.2214 1.0250
C8 C 0.3612(9) 0.48619(19) 1.0531(4)
C9 C 0.5027(8) 0.44609(17) 1.0324(3)
C10 C 0.6997(9) 0.4351(2) 1.0818(3)
H5 H 0.7435 0.4519 1.1278
C11 C 0.8326(9) 0.39916(19) 1.0632(3)
H6 H 0.9651 0.3923 1.0967
C12 C 0.7698(8) 0.37387(17) 0.9959(3)
C13 C 0.5730(9) 0.38431(19) 0.9459(3)
H7 H 0.5289 0.3671 0.9003
C14 C 0.4420(10) 0.42060(19) 0.9644(4)
H8 H 0.3112 0.4278 0.9303
C15 C 0.0802(8) 0.05343(18) 0.8913(3)
H9 H 0.0258 0.0798 0.9119
C16 C 0.2864(9) -0.00361(19) 0.8721(3)
H10 H 0.4036 -0.0245 0.8781
C17 C 0.1075(9) -0.0053(2) 0.8137(3)
H11 H 0.0797 -0.0265 0.7728
C18 C -0.2473(9) 0.04014(18) 0.7815(4)
H12 H -0.3614 0.0275 0.8094
H13 H -0.2584 0.0249 0.7305
C19 C -0.2911(9) 0.0903(2) 0.7681(3)
C20 C -0.1454(9) 0.1171(2) 0.7343(3)
H14 H -0.0162 0.1042 0.7205
C21 C -0.1873(9) 0.1630(2) 0.7205(3)
H15 H -0.0843 0.1806 0.6985
C22 C -0.3793(8) 0.18336(19) 0.7389(3)
C23 C -0.5263(9) 0.1559(2) 0.7736(3)
H16 H -0.6554 0.1686 0.7881
C24 C -0.4811(9) 0.10997(19) 0.7867(3)
H17 H -0.5829 0.0921 0.8087
C25 C -0.3101(9) 0.41734(19) 0.6071(3)
H18 H -0.4191 0.4146 0.5624
C26 C -0.0088(10) 0.43469(18) 0.6850(3)
H19 H 0.1320 0.4466 0.7041
C27 C -0.1409(9) 0.4121(2) 0.7295(3)
H20 H -0.1088 0.4052 0.7833
C28 C -0.5278(10) 0.37687(19) 0.6959(3)
H21 H -0.6520 0.3817 0.6533
H22 H -0.5703 0.3893 0.7442
C29 C -0.4892(9) 0.32661(19) 0.7065(3)
C30 C -0.3564(12) 0.3031(2) 0.6639(4)
H23 H -0.2826 0.3186 0.6280
C31 C -0.3277(13) 0.2564(2) 0.6727(5)
H24 H -0.2400 0.2411 0.6409
C32 C -0.4239(9) 0.23237(19) 0.7264(3)
C33 C -0.5647(11) 0.2564(2) 0.7683(4)
H25 H -0.6391 0.2408 0.8040
C34 C -0.5983(10) 0.3030(2) 0.7588(4)
H26 H -0.6942 0.3182 0.7877
Co1B Co 0.02170(10) 0.55326(2) 1.00708(5)
Co1C Co 0.02170(10) 0.44674(2) 0.50708(5)
N4C N 0.3860(7) 0.06248(15) 1.1067(2)
O3B O 0.7140(6) 0.00006(12) 0.9953(2)
loop_
_geom_bond_atom_site_label_1
_geom_bond_atom_site_label_2
_geom_bond_site_symmetry_1
_geom_bond_site_symmetry_2
Co1 N1 1_555 1_555
N1 C15 1_555 1_555
N2 C15 1_555 1_555
N3 C25 1_555 1_555
N4 C25 1_555 1_555
O1 Co1 1_555 1_555
O2 C1 1_555 1_555
O3 C8 1_555 1_555
O4 C8 1_555 1_555
O5 S1 1_555 1_555
O6 S1 1_555 1_555
S1 C5 1_555 1_555
C1 O1 1_555 1_555
C2 C1 1_555 1_555
C3 C2 1_555 1_555
H1 C3 1_555 1_555
C4 C3 1_555 1_555
H2 C4 1_555 1_555
C5 C4 1_555 1_555
C6 C5 1_555 1_555
H3 C6 1_555 1_555
C7 C2 1_555 1_555
H4 C7 1_555 1_555
C8 C9 1_555 1_555
C9 C10 1_555 1_555
C10 H5 1_555 1_555
C11 C10 1_555 1_555
H6 C11 1_555 1_555
C12 S1 1_555 1_555
C13 C12 1_555 1_555
H7 C13 1_555 1_555
C14 C9 1_555 1_555
H8 C14 1_555 1_555
C15 H9 1_555 1_555
C16 N1 1_555 1_555
H10 C16 1_555 1_555
C17 N2 1_555 1_555
H11 C17 1_555 1_555
C18 N2 1_555 1_555
H12 C18 1_555 1_555
H13 C18 1_555 1_555
C19 C18 1_555 1_555
C20 C19 1_555 1_555
H14 C20 1_555 1_555
C21 C20 1_555 1_555
H15 C21 1_555 1_555
C22 C21 1_555 1_555
C23 C22 1_555 1_555
H16 C23 1_555 1_555
C24 C19 1_555 1_555
H17 C24 1_555 1_555
C25 H18 1_555 1_555
C26 N4 1_555 1_555
H19 C26 1_555 1_555
C27 N3 1_555 1_555
H20 C27 1_555 1_555
C28 N3 1_555 1_555
H21 C28 1_555 1_555
H22 C28 1_555 1_555
C29 C28 1_555 1_555
C30 C29 1_555 1_555
H23 C30 1_555 1_555
C31 C30 1_555 1_555
H24 C31 1_555 1_555
C32 C22 1_555 1_555
C33 C32 1_555 1_555
H25 C33 1_555 1_555
C34 C29 1_555 1_555
H26 C34 1_555 1_555
Co1B O3 1_555 1_555
Co1C N4 1_555 1_555
N4C Co1 1_555 1_555
O3B Co1 1_555 1_555
C6 C7 1_555 1_555
C11 C12 1_555 1_555
C13 C14 1_555 1_555
C16 C17 1_555 1_555
C23 C24 1_555 1_555
C26 C27 1_555 1_555
C31 C32 1_555 1_555
C33 C34 1_555 1_555

#END
