
#######################################################################
#
#                 Cambridge Crystallographic Data Centre
#                                CCDC 
#
#######################################################################
#
# If this CIF has been generated from an entry in the Cambridge 
# Structural Database, then it will include bibliographic, chemical, 
# crystal, experimental, refinement or atomic coordinate data resulting 
# from the CCDC's data processing and validation procedures.
#
#######################################################################

data_NUXLOI
_symmetry_cell_setting           orthorhombic
_symmetry_space_group_name_H-M   'P 21 21 21'
_symmetry_Int_Tables_number      19
_space_group_name_Hall           'P 2ac 2ab'
loop_
_symmetry_equiv_pos_site_id
_symmetry_equiv_pos_as_xyz
1 x,y,z
2 1/2-x,-y,1/2+z
3 -x,1/2+y,1/2-z
4 1/2+x,1/2-y,-z
_cell_length_a                   8.7329(2)
_cell_length_b                   11.2712(3)
_cell_length_c                   27.1832(7)
_cell_angle_alpha                90
_cell_angle_beta                 90
_cell_angle_gamma                90
_cell_volume                     2675.65
loop_
_atom_site_label
_atom_site_type_symbol
_atom_site_fract_x
_atom_site_fract_y
_atom_site_fract_z
Co1 Co 0.56714(6) 0.50343(5) 0.131536(18)
N1 N 0.7119(4) 0.3703(3) 0.11768(13)
N2 N 0.8056(5) 0.1898(3) 0.12365(15)
N3 N 0.8816(4) -0.2190(3) 0.13431(16)
N4 N 0.7030(4) -0.3516(3) 0.12091(13)
O1 O 0.4015(4) 0.5367(3) 0.08676(12)
O2 O 0.3572(4) 0.3427(3) 0.08728(13)
O3 O -0.0537(3) 0.4771(3) -0.29773(10)
O4 O 0.0168(4) 0.6647(3) -0.28687(11)
O5 O -0.2786(4) 0.6358(3) -0.04581(10)
O6 O -0.3132(3) 0.4202(3) -0.05502(11)
S1 S -0.21600(12) 0.52243(10) -0.05877(4)
C1 C 0.3298(5) 0.4436(5) 0.07266(17)
C2 C 0.2013(5) 0.4633(4) 0.03584(14)
C3 C 0.1321(5) 0.3678(4) 0.01267(15)
H1 H 0.1711 0.2917 0.0170
C4 C 0.0061(5) 0.3852(4) -0.01663(15)
H2 H -0.0415 0.3212 -0.0319
C5 C -0.0490(4) 0.4987(4) -0.02316(12)
C6 C 0.0212(5) 0.5949(4) -0.00178(16)
H3 H -0.0159 0.6711 -0.0073
C7 C 0.1472(5) 0.5773(4) 0.02793(17)
H4 H 0.1956 0.6417 0.0426
C8 C -0.0285(5) 0.5690(4) -0.27136(15)
C9 C -0.0647(5) 0.5529(4) -0.21770(15)
C10 C -0.1136(5) 0.4431(4) -0.19913(16)
H5 H -0.1173 0.3769 -0.2195
C11 C -0.1567(5) 0.4341(4) -0.14990(15)
H6 H -0.1893 0.3618 -0.1373
C12 C -0.1506(4) 0.5332(4) -0.11988(13)
C13 C -0.0987(5) 0.6415(4) -0.13672(15)
H7 H -0.0925 0.7066 -0.1158
C14 C -0.0560(5) 0.6504(4) -0.18589(15)
H8 H -0.0208 0.7227 -0.1979
C15 C 0.8668(6) 0.3757(5) 0.10902(18)
H9 H 0.9225 0.4440 0.1020
C16 C 0.9249(7) 0.2633(5) 0.11260(19)
H10 H 1.0267 0.2412 0.1083
C17 C 0.6814(5) 0.2576(4) 0.12692(19)
H11 H 0.5845 0.2292 0.1348
C18 C 0.8151(7) 0.0630(4) 0.1337(2)
H12 H 0.8955 0.0287 0.1136
H13 H 0.7193 0.0258 0.1244
C19 C 0.8475(5) 0.0363(4) 0.18698(19)
C20 C 0.7890(6) 0.1086(4) 0.22384(19)
H14 H 0.7363 0.1778 0.2161
C21 C 0.8107(7) 0.0753(6) 0.2722(2)
H15 H 0.7693 0.1226 0.2969
C22 C 0.8897(7) -0.0234(6) 0.2853(2)
H16 H 0.9028 -0.0426 0.3183
C23 C 0.9479(7) -0.0921(5) 0.2505(2)
H17 H 1.0023 -0.1596 0.2595
C24 C 0.9297(5) -0.0659(4) 0.2000(2)
C25 C 0.9968(5) -0.1464(4) 0.1603(2)
H18 H 1.0503 -0.0978 0.1364
H19 H 1.0713 -0.1989 0.1753
C26 C 0.7908(5) -0.3020(4) 0.15421(17)
H20 H 0.7902 -0.3219 0.1874
C27 C 0.7416(6) -0.2978(4) 0.07799(17)
H21 H 0.6983 -0.3148 0.0475
C28 C 0.8512(7) -0.2166(4) 0.08580(19)
H22 H 0.8971 -0.1682 0.0623
Co1_2 Co 0.56714(6) -0.49657(5) 0.131536(18)
Co1A Co -0.06714(6) 0.49657(5) -0.368464(18)
N4_2 N 0.7030(4) 0.6484(3) 0.12091(13)
O3A O 0.5537(3) 0.5229(3) 0.20227(10)
loop_
_geom_bond_atom_site_label_1
_geom_bond_atom_site_label_2
_geom_bond_site_symmetry_1
_geom_bond_site_symmetry_2
Co1 N1 1_555 1_555
N1 C15 1_555 1_555
N2 C16 1_555 1_555
N3 C25 1_555 1_555
N4 C26 1_555 1_555
O1 Co1 1_555 1_555
O2 C1 1_555 1_555
O3 C8 1_555 1_555
O4 C8 1_555 1_555
O5 S1 1_555 1_555
O6 S1 1_555 1_555
S1 C5 1_555 1_555
C1 O1 1_555 1_555
C2 C1 1_555 1_555
C3 C2 1_555 1_555
H1 C3 1_555 1_555
C4 C3 1_555 1_555
H2 C4 1_555 1_555
C5 C4 1_555 1_555
C6 C5 1_555 1_555
H3 C6 1_555 1_555
C7 C2 1_555 1_555
H4 C7 1_555 1_555
C8 C9 1_555 1_555
C9 C10 1_555 1_555
C10 H5 1_555 1_555
C11 C10 1_555 1_555
H6 C11 1_555 1_555
C12 S1 1_555 1_555
C13 C12 1_555 1_555
H7 C13 1_555 1_555
C14 C9 1_555 1_555
H8 C14 1_555 1_555
C15 H9 1_555 1_555
C16 C15 1_555 1_555
H10 C16 1_555 1_555
C17 N1 1_555 1_555
H11 C17 1_555 1_555
C18 N2 1_555 1_555
H12 C18 1_555 1_555
H13 C18 1_555 1_555
C19 C18 1_555 1_555
C20 C19 1_555 1_555
H14 C20 1_555 1_555
C21 C20 1_555 1_555
H15 C21 1_555 1_555
C22 C21 1_555 1_555
H16 C22 1_555 1_555
C23 C22 1_555 1_555
H17 C23 1_555 1_555
C24 C19 1_555 1_555
C25 C24 1_555 1_555
H18 C25 1_555 1_555
H19 C25 1_555 1_555
C26 N3 1_555 1_555
H20 C26 1_555 1_555
C27 N4 1_555 1_555
H21 C27 1_555 1_555
C28 N3 1_555 1_555
H22 C28 1_555 1_555
Co1_2 N4 1_555 1_555
Co1A O3 1_555 1_555
N4_2 Co1 1_555 1_555
O3A Co1 1_555 1_555
N2 C17 1_555 1_555
C6 C7 1_555 1_555
C11 C12 1_555 1_555
C13 C14 1_555 1_555
C23 C24 1_555 1_555
C27 C28 1_555 1_555

#END
