
#######################################################################
#
#                 Cambridge Crystallographic Data Centre
#                                CCDC 
#
#######################################################################
#
# If this CIF has been generated from an entry in the Cambridge 
# Structural Database, then it will include bibliographic, chemical, 
# crystal, experimental, refinement or atomic coordinate data resulting 
# from the CCDC's data processing and validation procedures.
#
#######################################################################

data_NUXLUO
_symmetry_cell_setting           triclinic
_symmetry_space_group_name_H-M   'P -1'
_symmetry_Int_Tables_number      2
_space_group_name_Hall           '-P 1'
loop_
_symmetry_equiv_pos_site_id
_symmetry_equiv_pos_as_xyz
1 x,y,z
2 -x,-y,-z
_cell_length_a                   10.383(4)
_cell_length_b                   10.589(4)
_cell_length_c                   13.430(5)
_cell_angle_alpha                97.769(4)
_cell_angle_beta                 91.815(4)
_cell_angle_gamma                92.824(4)
_cell_volume                     1460.14
loop_
_atom_site_label
_atom_site_type_symbol
_atom_site_fract_x
_atom_site_fract_y
_atom_site_fract_z
Co1 Co 0.76100(8) 0.75885(8) 0.52585(6)
S1 S 0.79764(19) 0.56705(17) 1.01090(14)
O1 O 0.8873(5) 0.7601(4) 0.6523(3)
O2 O 0.8536(5) 0.9537(5) 0.7315(4)
O3 O 1.1488(5) 0.9294(6) 0.7407(4)
H1 H 1.2111 0.9697 0.7225
O4 O 1.2221(10) 1.0170(11) 0.8913(6)
O5 O 0.8718(6) 0.5154(6) 1.0864(4)
O6 O 0.7370(6) 0.4837(5) 0.9272(4)
O7 O 0.3136(5) 0.9276(6) 1.1612(4)
H2 H 0.2401 0.8952 1.1607
O8 O 0.3773(5) 0.8822(5) 1.3123(4)
O9 O 0.6343(4) 0.7543(4) 1.3947(3)
O10 O 0.6694(5) 0.9493(4) 1.3490(3)
O11 O 0.7704(6) 0.9528(4) 0.5334(4)
H3 H 0.7145 1.0053 0.5477
H4 H 0.8371 0.9705 0.5693
N1 N 0.9069(5) 0.7082(5) 0.4209(4)
N2 N 0.7506(5) 0.5617(5) 0.5084(4)
N3 N 0.6053(5) 0.7109(5) 0.6206(4)
C1 C 0.9801(7) 0.7898(7) 0.3757(5)
H5 H 0.9733 0.8771 0.3937
C2 C 1.0658(7) 0.7474(8) 0.3029(6)
H6 H 1.1144 0.8057 0.2717
C3 C 1.0781(8) 0.6202(8) 0.2776(6)
H7 H 1.1372 0.5910 0.2304
C4 C 1.0026(7) 0.5346(7) 0.3222(6)
H8 H 1.0084 0.4472 0.3043
C5 C 0.9177(6) 0.5815(6) 0.3944(5)
C6 C 0.8311(6) 0.4978(6) 0.4457(5)
C7 C 0.8280(7) 0.3651(7) 0.4330(6)
H9 H 0.8841 0.3205 0.3903
C8 C 0.7399(8) 0.3016(7) 0.4852(7)
H10 H 0.7358 0.2129 0.4771
C9 C 0.6573(7) 0.3672(7) 0.5495(6)
H11 H 0.5979 0.3237 0.5846
C10 C 0.6650(7) 0.4996(6) 0.5605(5)
C11 C 0.5859(6) 0.5862(6) 0.6257(5)
C12 C 0.4962(8) 0.5409(8) 0.6901(6)
H12 H 0.4831 0.4539 0.6924
C13 C 0.4272(8) 0.6287(9) 0.7503(6)
H13 H 0.3678 0.6015 0.7943
C14 C 0.4480(8) 0.7559(9) 0.7440(6)
H14 H 0.4030 0.8160 0.7839
C15 C 0.5365(7) 0.7947(7) 0.6777(6)
H15 H 0.5485 0.8812 0.6726
C16 C 0.8920(6) 0.8436(6) 0.7289(5)
C17 C 0.9392(6) 0.8049(6) 0.8261(5)
C18 C 0.8623(6) 0.7161(6) 0.8674(5)
H16 H 0.7885 0.6786 0.8321
C19 C 0.8950(7) 0.6827(7) 0.9617(5)
C20 C 1.0023(7) 0.7407(8) 1.0169(6)
H17 H 1.0213 0.7212 1.0810
C21 C 1.0806(7) 0.8275(8) 0.9758(6)
H18 H 1.1537 0.8654 1.0118
C22 C 1.0509(6) 0.8588(7) 0.8806(5)
C23 C 1.1480(8) 0.9459(8) 0.8395(6)
C24 C 0.6359(6) 0.8297(7) 1.3307(5)
C25 C 0.6034(6) 0.7762(6) 1.2231(5)
C26 C 0.6947(6) 0.7030(6) 1.1739(5)
H19 H 0.7689 0.6853 1.2088
C27 C 0.6761(7) 0.6558(6) 1.0726(5)
C28 C 0.5672(8) 0.6813(8) 1.0192(6)
H20 H 0.5554 0.6497 0.9513
C29 C 0.4762(8) 0.7544(8) 1.0679(6)
H21 H 0.4026 0.7728 1.0326
C30 C 0.4936(7) 0.8009(7) 1.1697(5)
C31 C 0.3894(7) 0.8738(7) 1.2220(5)
Co1_2 Co 0.76100(8) 0.75885(8) 1.52585(6)
O9_2 O 0.6343(4) 0.7543(4) 0.3947(3)
loop_
_geom_bond_atom_site_label_1
_geom_bond_atom_site_label_2
_geom_bond_site_symmetry_1
_geom_bond_site_symmetry_2
Co1 O1 1_555 1_555
S1 O5 1_555 1_555
O1 C16 1_555 1_555
O2 C16 1_555 1_555
O3 H1 1_555 1_555
O4 C23 1_555 1_555
O6 S1 1_555 1_555
O7 H2 1_555 1_555
O8 C31 1_555 1_555
O9 C24 1_555 1_555
O10 C24 1_555 1_555
O11 Co1 1_555 1_555
H3 O11 1_555 1_555
H4 O11 1_555 1_555
N1 Co1 1_555 1_555
N2 Co1 1_555 1_555
N3 Co1 1_555 1_555
C1 N1 1_555 1_555
H5 C1 1_555 1_555
C2 C1 1_555 1_555
H6 C2 1_555 1_555
C3 C2 1_555 1_555
H7 C3 1_555 1_555
C4 C3 1_555 1_555
H8 C4 1_555 1_555
C5 N1 1_555 1_555
C6 N2 1_555 1_555
C7 C6 1_555 1_555
H9 C7 1_555 1_555
C8 C7 1_555 1_555
H10 C8 1_555 1_555
C9 C8 1_555 1_555
H11 C9 1_555 1_555
C10 N2 1_555 1_555
C11 N3 1_555 1_555
C12 C11 1_555 1_555
H12 C12 1_555 1_555
C13 C12 1_555 1_555
H13 C13 1_555 1_555
C14 C13 1_555 1_555
H14 C14 1_555 1_555
C15 N3 1_555 1_555
H15 C15 1_555 1_555
C16 C17 1_555 1_555
C17 C18 1_555 1_555
C18 H16 1_555 1_555
C19 S1 1_555 1_555
C20 C19 1_555 1_555
H17 C20 1_555 1_555
C21 C20 1_555 1_555
H18 C21 1_555 1_555
C22 C17 1_555 1_555
C23 O3 1_555 1_555
C24 C25 1_555 1_555
C25 C26 1_555 1_555
C26 H19 1_555 1_555
C27 S1 1_555 1_555
C28 C27 1_555 1_555
H20 C28 1_555 1_555
C29 C28 1_555 1_555
H21 C29 1_555 1_555
C30 C25 1_555 1_555
C31 O7 1_555 1_555
Co1_2 O9 1_555 1_555
O9_2 Co1 1_555 1_555
C4 C5 1_555 1_555
C5 C6 1_555 1_555
C9 C10 1_555 1_555
C10 C11 1_555 1_555
C14 C15 1_555 1_555
C18 C19 1_555 1_555
C21 C22 1_555 1_555
C22 C23 1_555 1_555
C26 C27 1_555 1_555
C29 C30 1_555 1_555
C30 C31 1_555 1_555

#END
