
#######################################################################
#
#                 Cambridge Crystallographic Data Centre
#                                CCDC 
#
#######################################################################
#
# If this CIF has been generated from an entry in the Cambridge 
# Structural Database, then it will include bibliographic, chemical, 
# crystal, experimental, refinement or atomic coordinate data resulting 
# from the CCDC's data processing and validation procedures.
#
#######################################################################

data_NUXMID
_symmetry_cell_setting           monoclinic
_symmetry_space_group_name_H-M   'P 21/c'
_symmetry_Int_Tables_number      14
_space_group_name_Hall           '-P 2ybc'
loop_
_symmetry_equiv_pos_site_id
_symmetry_equiv_pos_as_xyz
1 x,y,z
2 -x,1/2+y,1/2-z
3 -x,-y,-z
4 x,1/2-y,1/2+z
_cell_length_a                   12.826(3)
_cell_length_b                   38.750(8)
_cell_length_c                   7.3476(14)
_cell_angle_alpha                90
_cell_angle_beta                 94.165(2)
_cell_angle_gamma                90
_cell_volume                     3642.17
loop_
_atom_site_label
_atom_site_type_symbol
_atom_site_fract_x
_atom_site_fract_y
_atom_site_fract_z
Mn1 Mn 0.26254(4) 0.046826(12) -0.21950(6)
Mn2 Mn 0.09295(3) 0.149819(11) -0.08389(6)
S1 S 0.56718(5) 0.187876(19) 0.59364(10)
O1 O 0.12047(16) 0.15011(5) 0.2093(3)
H1 H 0.0691 0.1567 0.2627
H2 H 0.1424 0.1313 0.2494
O2 O 0.12158(16) 0.04848(6) -0.4147(3)
H3 H 0.0634 0.0529 -0.3753
H4 H 0.1380 0.0635 -0.4873
O3 O 0.13786(18) 0.04428(6) -0.0285(3)
H5 H 0.0946 0.0602 -0.0293
H6 H 0.1390 0.0334 0.0690
O5 O 0.23759(15) 0.12279(6) -0.0862(3)
O6 O 0.34180(17) 0.07867(5) -0.0110(3)
O7 O 0.20307(15) 0.08919(5) 0.3398(3)
O8 O 0.32480(16) 0.07808(6) 0.5658(3)
O9 O 0.60552(16) 0.21847(6) 0.5113(3)
O10 O 0.51016(16) 0.19064(6) 0.7540(3)
O11 O 0.95139(17) 0.16572(7) 0.3878(3)
O12 O 1.04098(15) 0.14461(6) 0.6322(3)
O13 O 0.99608(16) 0.10294(6) 0.9347(3)
O14 O 0.93444(18) 0.06574(6) 0.7213(4)
N1 N 0.4227(2) 0.02096(7) -0.2295(4)
N2 N 0.2425(2) -0.01228(7) -0.2335(4)
N3 N 0.15867(18) 0.20293(7) -0.1497(3)
N4 N -0.03176(18) 0.19047(6) -0.0344(3)
C1 C 0.5111(3) 0.03889(9) -0.2268(5)
H9 H 0.5077 0.0627 -0.2104
C2 C 0.6073(3) 0.02432(10) -0.2470(5)
H10 H 0.6672 0.0379 -0.2443
C3 C 0.6125(3) -0.01058(11) -0.2711(5)
H11 H 0.6764 -0.0213 -0.2849
C4 C 0.5220(3) -0.02963(10) -0.2746(5)
H12 H 0.5241 -0.0534 -0.2905
C5 C 0.4277(3) -0.01323(8) -0.2545(4)
C6 C 0.3264(3) -0.03178(8) -0.2575(4)
C7 C 0.3170(4) -0.06730(9) -0.2825(5)
H13 H 0.3757 -0.0807 -0.2992
C8 C 0.2201(4) -0.08241(11) -0.2821(5)
H14 H 0.2129 -0.1061 -0.2990
C9 C 0.1346(4) -0.06257(11) -0.2570(5)
H15 H 0.0685 -0.0724 -0.2562
C10 C 0.1485(3) -0.02749(10) -0.2328(5)
H16 H 0.0905 -0.0138 -0.2152
C11 C 0.2571(2) 0.20869(9) -0.1900(5)
H17 H 0.3005 0.1898 -0.2035
C12 C 0.2976(3) 0.24121(10) -0.2126(5)
H18 H 0.3667 0.2441 -0.2402
C13 C 0.2340(3) 0.26920(9) -0.1936(5)
H19 H 0.2596 0.2915 -0.2065
C14 C 0.1314(3) 0.26395(9) -0.1551(5)
H20 H 0.0867 0.2826 -0.1435
C15 C 0.0958(2) 0.23046(8) -0.1340(4)
C16 C -0.0133(2) 0.22295(8) -0.0907(4)
C17 C -0.0923(3) 0.24728(9) -0.1080(5)
H21 H -0.0788 0.2695 -0.1487
C18 C -0.1914(3) 0.23825(10) -0.0641(6)
H22 H -0.2460 0.2540 -0.0798
C19 C -0.2089(3) 0.20589(10) 0.0031(5)
H23 H -0.2743 0.1997 0.0394
C20 C -0.1273(2) 0.18276(9) 0.0153(4)
H24 H -0.1391 0.1608 0.0602
C21 C 0.3081(2) 0.10839(8) 0.0142(4)
C22 C 0.3652(2) 0.12872(7) 0.1665(4)
C23 C 0.3620(2) 0.12061(7) 0.3513(4)
C24 C 0.4237(2) 0.13927(7) 0.4798(4)
H25 H 0.4217 0.1341 0.6031
C25 C 0.4880(2) 0.16542(8) 0.4260(4)
C26 C 0.4917(2) 0.17372(9) 0.2434(4)
H26 H 0.5348 0.1914 0.2074
C27 C 0.4302(2) 0.15532(8) 0.1156(4)
H27 H 0.4322 0.1608 -0.0074
C28 C 0.2908(2) 0.09348(7) 0.4235(4)
C29 C 0.6739(2) 0.15974(8) 0.6470(4)
C30 C 0.6623(2) 0.13287(8) 0.7689(4)
H28 H 0.5986 0.1292 0.8187
C31 C 0.7463(2) 0.11167(8) 0.8153(4)
H29 H 0.7382 0.0932 0.8938
C32 C 0.8432(2) 0.11753(7) 0.7464(4)
C33 C 0.8544(2) 0.14458(7) 0.6236(4)
C34 C 0.7679(2) 0.16519(8) 0.5720(4)
H30 H 0.7739 0.1827 0.4867
C35 C 0.9327(2) 0.09352(8) 0.8039(4)
C36 C 0.9574(2) 0.15220(8) 0.5420(4)
Mn1_2 Mn 0.26254(4) 0.046826(12) 0.78050(6)
Mn2_2 Mn 1.09295(3) 0.149819(11) 0.91611(6)
O8_2 O 0.32480(16) 0.07808(6) -0.4342(3)
O12_2 O 0.04098(15) 0.14461(6) -0.3678(3)
O13_2 O -0.00392(16) 0.10294(6) -0.0653(3)
O4 O 0.1268(3) 1.00313(7) 0.2757(4)
H7 H 0.1226 1.0106 0.3816
H8 H 0.1080 0.9825 0.2687
loop_
_geom_bond_atom_site_label_1
_geom_bond_atom_site_label_2
_geom_bond_site_symmetry_1
_geom_bond_site_symmetry_2
Mn1 O2 1_555 1_555
Mn2 O1 1_555 1_555
S1 O9 1_555 1_555
O1 H1 1_555 1_555
H2 O1 1_555 1_555
O2 H3 1_555 1_555
H4 O2 1_555 1_555
O3 Mn1 1_555 1_555
H5 O3 1_555 1_555
H6 O3 1_555 1_555
O4 H7 1_555 1_555
H8 O4 1_555 1_555
O5 Mn2 1_555 1_555
O6 Mn1 1_555 1_555
O7 C28 1_555 1_555
O8 C28 1_555 1_555
O10 S1 1_555 1_555
O11 C36 1_555 1_555
O12 C36 1_555 1_555
O13 C35 1_555 1_555
O14 C35 1_555 1_555
N1 Mn1 1_555 1_555
N2 Mn1 1_555 1_555
N3 Mn2 1_555 1_555
N4 Mn2 1_555 1_555
C1 N1 1_555 1_555
H9 C1 1_555 1_555
C2 C1 1_555 1_555
H10 C2 1_555 1_555
C3 C2 1_555 1_555
H11 C3 1_555 1_555
C4 C3 1_555 1_555
H12 C4 1_555 1_555
C5 N1 1_555 1_555
C6 N2 1_555 1_555
C7 C6 1_555 1_555
H13 C7 1_555 1_555
C8 C7 1_555 1_555
H14 C8 1_555 1_555
C9 C8 1_555 1_555
H15 C9 1_555 1_555
C10 N2 1_555 1_555
H16 C10 1_555 1_555
C11 N3 1_555 1_555
H17 C11 1_555 1_555
C12 C11 1_555 1_555
H18 C12 1_555 1_555
C13 C12 1_555 1_555
H19 C13 1_555 1_555
C14 C13 1_555 1_555
H20 C14 1_555 1_555
C15 N3 1_555 1_555
C16 N4 1_555 1_555
C17 C16 1_555 1_555
H21 C17 1_555 1_555
C18 C17 1_555 1_555
H22 C18 1_555 1_555
C19 C18 1_555 1_555
H23 C19 1_555 1_555
C20 N4 1_555 1_555
H24 C20 1_555 1_555
C21 O5 1_555 1_555
C22 C21 1_555 1_555
C23 C22 1_555 1_555
C24 C23 1_555 1_555
H25 C24 1_555 1_555
C25 S1 1_555 1_555
C26 C25 1_555 1_555
H26 C26 1_555 1_555
C27 C22 1_555 1_555
H27 C27 1_555 1_555
C28 C23 1_555 1_555
C29 S1 1_555 1_555
C30 C29 1_555 1_555
H28 C30 1_555 1_555
C31 C30 1_555 1_555
H29 C31 1_555 1_555
C32 C31 1_555 1_555
C33 C32 1_555 1_555
C34 C29 1_555 1_555
H30 C34 1_555 1_555
C35 C32 1_555 1_555
C36 C33 1_555 1_555
Mn1_2 O8 1_555 1_555
Mn2_2 O12 1_555 1_555
O8_2 Mn1 1_555 1_555
O12_2 Mn2 1_555 1_555
O13_2 Mn2 1_555 1_555
O6 C21 1_555 1_555
O13 Mn2_2 1_555 1_555
C4 C5 1_555 1_555
C5 C6 1_555 1_555
C9 C10 1_555 1_555
C14 C15 1_555 1_555
C15 C16 1_555 1_555
C19 C20 1_555 1_555
C24 C25 1_555 1_555
C26 C27 1_555 1_555
C33 C34 1_555 1_555

#END
