
#######################################################################
#
#                 Cambridge Crystallographic Data Centre
#                                CCDC 
#
#######################################################################
#
# If this CIF has been generated from an entry in the Cambridge 
# Structural Database, then it will include bibliographic, chemical, 
# crystal, experimental, refinement or atomic coordinate data resulting 
# from the CCDC's data processing and validation procedures.
#
#######################################################################

data_NUXMAV
_symmetry_cell_setting           triclinic
_symmetry_space_group_name_H-M   'P -1'
_symmetry_Int_Tables_number      2
_space_group_name_Hall           '-P 1'
loop_
_symmetry_equiv_pos_site_id
_symmetry_equiv_pos_as_xyz
1 x,y,z
2 -x,-y,-z
_cell_length_a                   7.7399(9)
_cell_length_b                   14.1982(17)
_cell_length_c                   18.887(2)
_cell_angle_alpha                92.863(2)
_cell_angle_beta                 100.801(2)
_cell_angle_gamma                93.957(2)
_cell_volume                     2029.72
loop_
_atom_site_label
_atom_site_type_symbol
_atom_site_fract_x
_atom_site_fract_y
_atom_site_fract_z
Co1 Co 0.20689(7) -0.27710(4) 0.95253(3)
Co2 Co 0.41330(7) 0.40769(4) 0.70234(3)
S1 S 0.37032(16) -0.07888(8) 0.63931(6)
N1 N 0.2392(5) -0.1273(3) 0.9770(2)
N2 N 0.0869(5) -0.2628(3) 1.0429(2)
N3 N 0.2602(5) 0.3177(3) 0.6130(2)
N4 N 0.3825(5) 0.4997(3) 0.61556(19)
O1 O 0.3417(4) -0.2744(2) 0.86741(16)
O2 O 0.6194(4) -0.2960(2) 0.91842(16)
O3 O 0.9822(4) -0.2511(2) 0.88013(16)
O4 O 0.8614(4) -0.3920(2) 0.82883(17)
O5 O 0.2047(4) -0.0788(2) 0.66396(18)
O6 O 0.3703(5) -0.1091(2) 0.56539(16)
O7 O 0.4444(4) 0.3180(2) 0.78497(16)
O8 O 0.5201(4) 0.1985(2) 0.85203(16)
O9 O 0.6638(4) 0.3883(2) 0.69129(17)
O10 O 0.9010(4) 0.3137(2) 0.68198(19)
O11 O 0.4386(4) -0.3083(2) 1.02510(17)
O12 O 0.1418(5) -0.4257(2) 0.93349(19)
O13 O 0.1750(4) 0.4391(2) 0.7296(2)
O14 O 0.5192(4) 0.5237(2) 0.77826(17)
C1 C 0.5063(6) -0.2729(3) 0.8680(2)
C2 C 0.5667(5) -0.2377(3) 0.8018(2)
C3 C 0.4544(6) -0.1856(3) 0.7550(2)
H1 H 0.3423 -0.1759 0.7635
C4 C 0.5089(6) -0.1486(3) 0.6963(2)
C5 C 0.6759(6) -0.1632(3) 0.6824(2)
H2 H 0.7123 -0.1386 0.6424
C6 C 0.7861(6) -0.2146(3) 0.7288(2)
H3 H 0.8977 -0.2246 0.7197
C7 C 0.7342(5) -0.2518(3) 0.7887(2)
C8 C 0.8677(6) -0.3037(3) 0.8382(2)
C9 C 0.5028(5) 0.2380(3) 0.7946(2)
C10 C 0.5436(5) 0.1822(3) 0.7295(2)
C11 C 0.4674(5) 0.0889(3) 0.7171(2)
H4 H 0.4081 0.0627 0.7508
C12 C 0.4798(6) 0.0358(3) 0.6555(2)
C13 C 0.5732(6) 0.0713(3) 0.6070(3)
H5 H 0.5791 0.0354 0.5651
C14 C 0.6584(6) 0.1602(3) 0.6203(2)
H6 H 0.7277 0.1825 0.5885
C15 C 0.6434(5) 0.2174(3) 0.6802(2)
C16 C 0.7436(6) 0.3149(3) 0.6868(2)
C17 C 0.2991(6) -0.0604(4) 0.9395(3)
H7 H 0.3383 -0.0777 0.8974
C18 C 0.3053(8) 0.0364(4) 0.9613(5)
H8 H 0.3463 0.0821 0.9336
C19 C 0.2512(8) 0.0621(5) 1.0231(5)
H9 H 0.2551 0.1258 1.0379
C20 C 0.1895(8) -0.0067(4) 1.0647(4)
C21 C 0.1284(8) 0.0133(5) 1.1303(5)
H10 H 0.1370 0.0755 1.1492
C22 C 0.0592(9) -0.0551(6) 1.1654(4)
H11 H 0.0229 -0.0399 1.2085
C23 C 0.0407(7) -0.1511(5) 1.1369(3)
C24 C -0.0403(9) -0.2257(6) 1.1680(3)
H12 H -0.0836 -0.2142 1.2101
C25 C -0.0552(10) -0.3132(6) 1.1371(4)
H13 H -0.1093 -0.3626 1.1577
C26 C 0.0099(7) -0.3310(4) 1.0743(3)
H14 H -0.0010 -0.3926 1.0538
C27 C 0.1021(6) -0.1740(4) 1.0736(3)
C28 C 0.1800(6) -0.1022(3) 1.0375(3)
C29 C 0.1928(6) 0.2291(3) 0.6119(3)
H15 H 0.2141 0.1980 0.6545
C30 C 0.0922(7) 0.1798(4) 0.5509(3)
H16 H 0.0491 0.1174 0.5530
C31 C 0.0572(7) 0.2242(4) 0.4875(3)
H17 H -0.0073 0.1921 0.4458
C32 C 0.1206(6) 0.3193(4) 0.4869(3)
C33 C 0.0850(7) 0.3724(5) 0.4237(3)
H18 H 0.0181 0.3434 0.3812
C34 C 0.1469(7) 0.4631(4) 0.4253(3)
H19 H 0.1217 0.4961 0.3837
C35 C 0.2503(6) 0.5102(4) 0.4892(3)
C36 C 0.3152(7) 0.6054(4) 0.4950(3)
H20 H 0.2932 0.6417 0.4551
C37 C 0.4093(7) 0.6447(4) 0.5583(3)
H21 H 0.4533 0.7078 0.5621
C38 C 0.4399(7) 0.5899(3) 0.6178(3)
H22 H 0.5037 0.6181 0.6612
C39 C 0.2876(6) 0.4599(3) 0.5524(2)
C40 C 0.2227(6) 0.3628(3) 0.5504(2)
H23 H 0.466(7) -0.272(3) 1.0636(17)
H24 H 0.519(5) -0.302(4) 1.000(3)
H25 H 0.208(6) -0.466(3) 0.922(3)
H26 H 0.063(5) -0.430(4) 0.8953(18)
H27 H 0.166(7) 0.4981(10) 0.734(3)
H28 H 0.080(4) 0.405(3) 0.712(3)
H29 H 0.6292(19) 0.539(4) 0.787(3)
H30 H 0.506(7) 0.507(4) 0.8195(14)
Co1_2 Co 1.20689(7) -0.27710(4) 0.95253(3)
O3_2 O -0.0178(4) -0.2511(2) 0.88013(16)
O15 O 0.1282(5) 0.6251(3) 0.7420(2)
H31 H 0.208(6) 0.655(3) 0.775(2)
H32 H 0.044(5) 0.623(4) 0.766(3)
O16 O 0.4500(10) 0.4856(4) 0.9131(4)
H33 H 0.519(6) 0.461(4) 0.946(2)
H34 H 0.400(9) 0.434(3) 0.892(4)
loop_
_geom_bond_atom_site_label_1
_geom_bond_atom_site_label_2
_geom_bond_site_symmetry_1
_geom_bond_site_symmetry_2
Co1 N1 1_555 1_555
Co2 N3 1_555 1_555
S1 O5 1_555 1_555
N1 C17 1_555 1_555
N2 Co1 1_555 1_555
N3 C29 1_555 1_555
N4 Co2 1_555 1_555
O1 Co1 1_555 1_555
O2 C1 1_555 1_555
O3 C8 1_555 1_555
O4 C8 1_555 1_555
O6 S1 1_555 1_555
O7 Co2 1_555 1_555
O8 C9 1_555 1_555
O9 Co2 1_555 1_555
O10 C16 1_555 1_555
O11 Co1 1_555 1_555
O12 Co1 1_555 1_555
O13 Co2 1_555 1_555
O14 Co2 1_555 1_555
O15 H31 1_555 1_555
O16 H33 1_555 1_555
C1 O1 1_555 1_555
C2 C1 1_555 1_555
C3 C2 1_555 1_555
H1 C3 1_555 1_555
C4 S1 1_555 1_555
C5 C4 1_555 1_555
H2 C5 1_555 1_555
C6 C5 1_555 1_555
H3 C6 1_555 1_555
C7 C2 1_555 1_555
C8 C7 1_555 1_555
C9 O7 1_555 1_555
C10 C9 1_555 1_555
C11 C10 1_555 1_555
H4 C11 1_555 1_555
C12 S1 1_555 1_555
C13 C12 1_555 1_555
H5 C13 1_555 1_555
C14 C13 1_555 1_555
H6 C14 1_555 1_555
C15 C10 1_555 1_555
C16 O9 1_555 1_555
C17 H7 1_555 1_555
C18 C17 1_555 1_555
H8 C18 1_555 1_555
C19 C18 1_555 1_555
H9 C19 1_555 1_555
C20 C19 1_555 1_555
C21 C20 1_555 1_555
H10 C21 1_555 1_555
C22 C21 1_555 1_555
H11 C22 1_555 1_555
C23 C22 1_555 1_555
C24 C23 1_555 1_555
H12 C24 1_555 1_555
C25 C24 1_555 1_555
H13 C25 1_555 1_555
C26 N2 1_555 1_555
H14 C26 1_555 1_555
C27 N2 1_555 1_555
C28 N1 1_555 1_555
C29 H15 1_555 1_555
C30 C29 1_555 1_555
H16 C30 1_555 1_555
C31 C30 1_555 1_555
H17 C31 1_555 1_555
C32 C31 1_555 1_555
C33 C32 1_555 1_555
H18 C33 1_555 1_555
C34 C33 1_555 1_555
H19 C34 1_555 1_555
C35 C34 1_555 1_555
C36 C35 1_555 1_555
H20 C36 1_555 1_555
C37 C36 1_555 1_555
H21 C37 1_555 1_555
C38 N4 1_555 1_555
H22 C38 1_555 1_555
C39 N4 1_555 1_555
C40 N3 1_555 1_555
H23 O11 1_555 1_555
H24 O11 1_555 1_555
H25 O12 1_555 1_555
H26 O12 1_555 1_555
H27 O13 1_555 1_555
H28 O13 1_555 1_555
H29 O14 1_555 1_555
H30 O14 1_555 1_555
H32 O15 1_555 1_555
H34 O16 1_555 1_555
Co1_2 O3 1_555 1_555
O3_2 Co1 1_555 1_555
C3 C4 1_555 1_555
C6 C7 1_555 1_555
C11 C12 1_555 1_555
C14 C15 1_555 1_555
C15 C16 1_555 1_555
C20 C28 1_555 1_555
C23 C27 1_555 1_555
C25 C26 1_555 1_555
C27 C28 1_555 1_555
C32 C40 1_555 1_555
C35 C39 1_555 1_555
C37 C38 1_555 1_555
C39 C40 1_555 1_555

#END
