
#######################################################################
#
#                 Cambridge Crystallographic Data Centre
#                                CCDC 
#
#######################################################################
#
# If this CIF has been generated from an entry in the Cambridge 
# Structural Database, then it will include bibliographic, chemical, 
# crystal, experimental, refinement or atomic coordinate data resulting 
# from the CCDC's data processing and validation procedures.
#
#######################################################################

data_NUXRII
_symmetry_cell_setting           monoclinic
_symmetry_space_group_name_H-M   'P 21/n'
_symmetry_Int_Tables_number      14
_space_group_name_Hall           '-P 2yn'
loop_
_symmetry_equiv_pos_site_id
_symmetry_equiv_pos_as_xyz
1 x,y,z
2 1/2-x,1/2+y,1/2-z
3 -x,-y,-z
4 1/2+x,1/2-y,1/2+z
_cell_length_a                   8.0730(4)
_cell_length_b                   11.0940(5)
_cell_length_c                   17.0940(13)
_cell_angle_alpha                90
_cell_angle_beta                 94.966(5)
_cell_angle_gamma                90
_cell_volume                     1525.22
loop_
_atom_site_label
_atom_site_type_symbol
_atom_site_fract_x
_atom_site_fract_y
_atom_site_fract_z
Ga1 Ga 0.82053(3) 0.12864(2) 0.321267(12)
Ga2 Ga 0.69561(3) 0.12596(2) 0.173026(11)
C1 C 0.8456(3) 0.26820(19) 0.23301(12)
C2 C 0.7664(2) 0.3786(2) 0.24697(11)
H1 H 0.6578 0.3764 0.2644
C3 C 0.8403(3) 0.4922(2) 0.23629(12)
C4 C 1.0026(3) 0.4915(2) 0.21104(13)
H2 H 1.0571 0.5662 0.2040
C5 C 1.0845(3) 0.3854(2) 0.19626(12)
H3 H 1.1929 0.3876 0.1786
C6 C 1.0073(3) 0.2756(2) 0.20744(12)
H4 H 1.0649 0.2032 0.1976
C7 C 0.7021(3) 0.1968(2) 0.40746(13)
H5 H 0.7623 0.2689 0.4290
H6 H 0.5892 0.2223 0.3867
C8 C 0.6889(4) 0.1047(2) 0.47273(14)
H7 H 0.6221 0.0359 0.4524
H8 H 0.6357 0.1420 0.5161
H9 H 0.8004 0.0768 0.4917
C9 C 1.0441(3) 0.0584(2) 0.34331(14)
H10 H 1.0351 -0.0187 0.3718
H11 H 1.0919 0.0410 0.2931
C10 C 1.1602(3) 0.1432(2) 0.39239(14)
H12 H 1.1773 0.2168 0.3624
H13 H 1.2674 0.1032 0.4053
H14 H 1.1106 0.1639 0.4409
C11 C 0.4731(3) 0.1942(2) 0.14097(14)
H15 H 0.4222 0.2231 0.1882
H16 H 0.4857 0.2644 0.1062
C12 C 0.3582(3) 0.1027(3) 0.09833(15)
H17 H 0.4108 0.0706 0.0532
H18 H 0.2530 0.1418 0.0801
H19 H 0.3366 0.0368 0.1342
C13 C 0.8377(3) 0.0523(2) 0.09743(13)
H20 H 0.9484 0.0343 0.1245
H21 H 0.7875 -0.0248 0.0782
C14 C 0.8589(3) 0.1352(2) 0.02733(13)
H22 H 0.7501 0.1501 -0.0011
H23 H 0.9324 0.0966 -0.0079
H24 H 0.9076 0.2119 0.0462
Ga1A Ga 0.67947(3) 0.62864(2) 0.178733(12)
Ga2A Ga 0.80439(3) 0.62596(2) 0.326974(11)
C3A C 0.6597(3) -0.0078(2) 0.26371(12)
loop_
_geom_bond_atom_site_label_1
_geom_bond_atom_site_label_2
_geom_bond_site_symmetry_1
_geom_bond_site_symmetry_2
Ga1 C1 1_555 1_555
Ga2 C1 1_555 1_555
C1 C2 1_555 1_555
C2 H1 1_555 1_555
C3 C2 1_555 1_555
C4 C3 1_555 1_555
H2 C4 1_555 1_555
C5 C4 1_555 1_555
H3 C5 1_555 1_555
C6 C1 1_555 1_555
H4 C6 1_555 1_555
C7 Ga1 1_555 1_555
H5 C7 1_555 1_555
H6 C7 1_555 1_555
C8 C7 1_555 1_555
H7 C8 1_555 1_555
H8 C8 1_555 1_555
H9 C8 1_555 1_555
C9 Ga1 1_555 1_555
H10 C9 1_555 1_555
H11 C9 1_555 1_555
C10 C9 1_555 1_555
H12 C10 1_555 1_555
H13 C10 1_555 1_555
H14 C10 1_555 1_555
C11 Ga2 1_555 1_555
H15 C11 1_555 1_555
H16 C11 1_555 1_555
C12 C11 1_555 1_555
H17 C12 1_555 1_555
H18 C12 1_555 1_555
H19 C12 1_555 1_555
C13 Ga2 1_555 1_555
H20 C13 1_555 1_555
H21 C13 1_555 1_555
C14 C13 1_555 1_555
H22 C14 1_555 1_555
H23 C14 1_555 1_555
H24 C14 1_555 1_555
Ga1A C3 1_555 1_555
Ga2A C3 1_555 1_555
C3A Ga1 1_555 1_555
Ga2 C3A 1_555 1_555
C5 C6 1_555 1_555

#END
