
#######################################################################
#
#                 Cambridge Crystallographic Data Centre
#                                CCDC 
#
#######################################################################
#
# If this CIF has been generated from an entry in the Cambridge 
# Structural Database, then it will include bibliographic, chemical, 
# crystal, experimental, refinement or atomic coordinate data resulting 
# from the CCDC's data processing and validation procedures.
#
#######################################################################

data_NUXRUV
_symmetry_cell_setting           monoclinic
_symmetry_space_group_name_H-M   'P 21/n'
_symmetry_Int_Tables_number      14
_space_group_name_Hall           '-P 2yn'
loop_
_symmetry_equiv_pos_site_id
_symmetry_equiv_pos_as_xyz
1 x,y,z
2 1/2-x,1/2+y,1/2-z
3 -x,-y,-z
4 1/2+x,1/2-y,1/2+z
_cell_length_a                   11.750(3)
_cell_length_b                   10.503(2)
_cell_length_c                   22.465(5)
_cell_angle_alpha                90
_cell_angle_beta                 105.16
_cell_angle_gamma                90
_cell_volume                     2675.93
loop_
_atom_site_label
_atom_site_type_symbol
_atom_site_fract_x
_atom_site_fract_y
_atom_site_fract_z
Rh1 Rh 0.532005(18) 0.231633(18) 0.235784(9)
P1 P 0.51096(6) 0.13875(6) 0.32252(3)
P2 P 0.50316(6) 0.24865(6) 0.13349(3)
S1 S 0.56260(6) 0.45224(6) 0.25989(3)
O1 O 0.52537(16) -0.01827(16) 0.31368(8)
C1 C 0.5178(2) 0.0471(2) 0.21069(12)
O2 O 0.49928(16) 0.10093(16) 0.10535(8)
C2 C 0.3612(2) 0.1451(3) 0.33362(13)
H1 H 0.3576 0.0830 0.3668
C3 C 0.3353(3) 0.2775(3) 0.35521(17)
H2 H 0.3415 0.3408 0.3242
H3 H 0.3923 0.2974 0.3944
H4 H 0.2553 0.2790 0.3609
C4 C 0.2700(2) 0.1048(3) 0.27503(13)
H5 H 0.1916 0.1032 0.2827
H6 H 0.2895 0.0196 0.2628
H7 H 0.2702 0.1655 0.2419
C5 C 0.5193(2) -0.0522(2) 0.25299(12)
C6 C 0.5047(2) 0.0072(2) 0.14990(12)
C7 C 0.6070(2) 0.3230(3) 0.09501(12)
H8 H 0.5995 0.4173 0.0989
C8 C 0.5830(3) 0.2931(3) 0.02619(13)
H9 H 0.6434 0.3336 0.0097
H10 H 0.5051 0.3257 0.0044
H11 H 0.5852 0.2007 0.0204
C9 C 0.7332(2) 0.2875(3) 0.12935(13)
H12 H 0.7426 0.1948 0.1287
H13 H 0.7495 0.3169 0.1722
H14 H 0.7884 0.3280 0.1092
C10 C 0.3589(2) 0.3093(3) 0.08910(13)
H15 H 0.3486 0.2882 0.0446
C11 C 0.3548(2) 0.4545(3) 0.09558(13)
H16 H 0.2743 0.4847 0.0774
H17 H 0.4085 0.4939 0.0742
H18 H 0.3790 0.4776 0.1394
C12 C 0.2585(3) 0.2459(3) 0.11073(16)
H19 H 0.2636 0.2715 0.1533
H20 H 0.2656 0.1532 0.1087
H21 H 0.1824 0.2728 0.0840
C13 C 0.4961(2) -0.1192(2) 0.13161(13)
H22 H 0.4870 -0.1414 0.0896
C14 C 0.5011(2) -0.2129(3) 0.17601(13)
H23 H 0.4970 -0.3001 0.1644
C15 C 0.5121(2) -0.1803(3) 0.23715(13)
H24 H 0.5145 -0.2441 0.2674
C16 C 0.6083(2) 0.1544(3) 0.40104(12)
H25 H 0.6030 0.2445 0.4143
C17 C 0.7356(2) 0.1313(3) 0.39859(13)
H26 H 0.7887 0.1424 0.4399
H27 H 0.7565 0.1922 0.3701
H28 H 0.7432 0.0444 0.3842
C18 C 0.5751(3) 0.0681(3) 0.44940(13)
H29 H 0.5724 -0.0208 0.4358
H30 H 0.4975 0.0930 0.4541
H31 H 0.6341 0.0772 0.4890
C19 C 0.6023(2) 0.4819(2) 0.34117(12)
C20 C 0.7133(2) 0.4485(2) 0.37823(13)
H32 H 0.7686 0.4086 0.3601
C21 C 0.7441(3) 0.4728(3) 0.44120(14)
H33 H 0.8198 0.4487 0.4657
C22 C 0.6653(3) 0.5316(3) 0.46834(14)
H34 H 0.6859 0.5470 0.5115
C23 C 0.5561(3) 0.5679(3) 0.43194(14)
H35 H 0.5024 0.6105 0.4502
C24 C 0.5239(3) 0.5431(3) 0.36936(13)
H36 H 0.4480 0.5677 0.3452
Na1 Na 0.76254(10) 0.12015(12) 0.24846(6)
S1A S 0.93740(6) -0.04776(6) 0.24011(3)
Na1A Na 0.73746(10) 0.62015(12) 0.25154(6)
loop_
_geom_bond_atom_site_label_1
_geom_bond_atom_site_label_2
_geom_bond_site_symmetry_1
_geom_bond_site_symmetry_2
Rh1 P1 1_555 1_555
P1 O1 1_555 1_555
P2 Rh1 1_555 1_555
S1 Rh1 1_555 1_555
O1 C5 1_555 1_555
C1 Rh1 1_555 1_555
O2 P2 1_555 1_555
C2 P1 1_555 1_555
H1 C2 1_555 1_555
C3 C2 1_555 1_555
H2 C3 1_555 1_555
H3 C3 1_555 1_555
H4 C3 1_555 1_555
C4 C2 1_555 1_555
H5 C4 1_555 1_555
H6 C4 1_555 1_555
H7 C4 1_555 1_555
C5 C1 1_555 1_555
C6 C1 1_555 1_555
C7 P2 1_555 1_555
H8 C7 1_555 1_555
C8 C7 1_555 1_555
H9 C8 1_555 1_555
H10 C8 1_555 1_555
H11 C8 1_555 1_555
C9 C7 1_555 1_555
H12 C9 1_555 1_555
H13 C9 1_555 1_555
H14 C9 1_555 1_555
C10 P2 1_555 1_555
H15 C10 1_555 1_555
C11 C10 1_555 1_555
H16 C11 1_555 1_555
H17 C11 1_555 1_555
H18 C11 1_555 1_555
C12 C10 1_555 1_555
H19 C12 1_555 1_555
H20 C12 1_555 1_555
H21 C12 1_555 1_555
C13 C6 1_555 1_555
H22 C13 1_555 1_555
C14 C13 1_555 1_555
H23 C14 1_555 1_555
C15 C5 1_555 1_555
H24 C15 1_555 1_555
C16 P1 1_555 1_555
H25 C16 1_555 1_555
C17 C16 1_555 1_555
H26 C17 1_555 1_555
H27 C17 1_555 1_555
H28 C17 1_555 1_555
C18 C16 1_555 1_555
H29 C18 1_555 1_555
H30 C18 1_555 1_555
H31 C18 1_555 1_555
C19 S1 1_555 1_555
C20 C19 1_555 1_555
H32 C20 1_555 1_555
C21 C20 1_555 1_555
H33 C21 1_555 1_555
C22 C21 1_555 1_555
H34 C22 1_555 1_555
C23 C22 1_555 1_555
H35 C23 1_555 1_555
C24 C19 1_555 1_555
H36 C24 1_555 1_555
Na1 C1 1_555 1_555
S1A Na1 1_555 1_555
Na1A S1 1_555 1_555
O2 C6 1_555 1_555
C14 C15 1_555 1_555
C23 C24 1_555 1_555

#END
