
#######################################################################
#
#                 Cambridge Crystallographic Data Centre
#                                CCDC 
#
#######################################################################
#
# If this CIF has been generated from an entry in the Cambridge 
# Structural Database, then it will include bibliographic, chemical, 
# crystal, experimental, refinement or atomic coordinate data resulting 
# from the CCDC's data processing and validation procedures.
#
#######################################################################

data_NUXVUY
_symmetry_cell_setting           monoclinic
_symmetry_space_group_name_H-M   'C 2/c'
_symmetry_Int_Tables_number      15
_space_group_name_Hall           '-C 2yn'
loop_
_symmetry_equiv_pos_site_id
_symmetry_equiv_pos_as_xyz
1 x,y,z
2 -x,y,1/2-z
3 1/2+x,1/2+y,z
4 1/2-x,1/2+y,1/2-z
5 -x,-y,-z
6 x,-y,1/2+z
7 1/2-x,1/2-y,-z
8 1/2+x,1/2-y,1/2+z
_cell_length_a                   23.163(5)
_cell_length_b                   18.211(4)
_cell_length_c                   14.460(3)
_cell_angle_alpha                90
_cell_angle_beta                 100.45(3)
_cell_angle_gamma                90
_cell_volume                     5998.37
loop_
_atom_site_label
_atom_site_type_symbol
_atom_site_fract_x
_atom_site_fract_y
_atom_site_fract_z
C1 C 0.8260(3) 0.1640(2) 0.3454(4)
C2 C 0.7968(2) 0.1520(2) 0.2462(3)
C3 C 0.7388(2) 0.1333(3) 0.2242(4)
H1 H 0.7166 0.1304 0.2717
C4 C 0.7125(3) 0.1188(3) 0.1326(4)
H2 H 0.6728 0.1074 0.1181
C5 C 0.7458(2) 0.1214(3) 0.0627(4)
C6 C 0.8045(3) 0.1397(3) 0.0840(4)
H3 H 0.8267 0.1421 0.0366
C7 C 0.8298(3) 0.1544(3) 0.1756(4)
H4 H 0.8695 0.1661 0.1902
C8 C 0.7486(2) 0.1050(3) -0.0993(3)
C9 C 0.7698(3) 0.0412(3) -0.1270(4)
H5 H 0.7656 -0.0023 -0.0951
C10 C 0.7975(3) 0.0415(3) -0.2031(4)
H6 H 0.8117 -0.0023 -0.2231
C11 C 0.8049(2) 0.1059(2) -0.2506(3)
C12 C 0.7833(2) 0.1692(2) -0.2214(3)
H7 H 0.7877 0.2127 -0.2531
C13 C 0.7549(2) 0.1701(3) -0.1456(4)
H8 H 0.7403 0.2138 -0.1258
C14 C 0.8354(2) 0.1035(3) -0.3332(3)
C15 C 0.80946(19) 0.3255(2) 0.4795(3)
H9 H 0.7763 0.2986 0.4535
C16 C 0.8049(2) 0.4003(3) 0.4822(3)
H10 H 0.7693 0.4231 0.4593
C17 C 0.8531(2) 0.4414(3) 0.5188(3)
H11 H 0.8510 0.4924 0.5201
C18 C 0.90546(19) 0.4051(3) 0.5543(3)
C19 C 0.90600(18) 0.3295(3) 0.5497(3)
C20 C 0.9585(2) 0.2871(4) 0.5858(3)
C21 C 1.0019(3) 0.1718(5) 0.6075(7)
H12 H 1.0011 0.1213 0.5977
C22 C 1.0539(4) 0.2069(9) 0.6585(8)
H13 H 1.0849 0.1779 0.6881
C23 C 1.0588(3) 0.2805(7) 0.6643(6)
H14 H 1.0943 0.3020 0.6911
C24 C 1.0094(2) 0.3251(5) 0.6292(4)
C25 C 1.0105(2) 0.4034(5) 0.6324(3)
C26 C 0.9598(2) 0.4434(4) 0.5944(3)
C27 C 1.0589(2) 0.5123(3) 0.6715(3)
C28 C 1.00912(19) 0.5513(3) 0.6310(3)
C29 C 1.0101(2) 0.6276(3) 0.6304(3)
H15 H 0.9768 0.6537 0.6033
C30 C 1.0609(3) 0.6649(3) 0.6704(4)
H16 H 1.0615 0.7160 0.6700
C31 C 1.1106(2) 0.6259(4) 0.7109(3)
H17 H 1.1446 0.6509 0.7377
C32 C 1.10966(19) 0.5496(4) 0.7115(3)
H18 H 1.1430 0.5236 0.7386
N1 N 0.85835(15) 0.2895(2) 0.5117(2)
N2 N 0.9547(2) 0.2129(3) 0.5744(4)
N3 N 1.0598(2) 0.4382(5) 0.6716(3)
N4 N 0.9584(2) 0.5163(3) 0.5920(3)
O1 O 0.87977(17) 0.1818(2) 0.3643(2)
O2 O 0.79791(16) 0.15561(18) 0.4111(2)
O3 O 0.9034(2) 0.0698(2) 0.5094(3)
O4 O 0.8501(3) 0.0443(2) -0.3604(4)
O5 O 0.84222(15) 0.16236(17) -0.3729(2)
O6 O 0.71662(17) 0.1051(2) -0.0262(2)
Ni1 Ni 0.87435(3) 0.17748(4) 0.50859(4)
O5_2 O 0.84222(15) 0.16236(17) 0.6271(2)
Ni1_2 Ni 0.87435(3) 0.17748(4) -0.49141(4)
O7 O 0.9407(5) 0.0056(6) 0.3506(11)
loop_
_geom_bond_atom_site_label_1
_geom_bond_atom_site_label_2
_geom_bond_site_symmetry_1
_geom_bond_site_symmetry_2
C1 C2 1_555 1_555
C2 C3 1_555 1_555
C3 H1 1_555 1_555
C4 C3 1_555 1_555
H2 C4 1_555 1_555
C5 C4 1_555 1_555
C6 C5 1_555 1_555
H3 C6 1_555 1_555
C7 C2 1_555 1_555
H4 C7 1_555 1_555
C8 C9 1_555 1_555
C9 H5 1_555 1_555
C10 C9 1_555 1_555
H6 C10 1_555 1_555
C11 C10 1_555 1_555
C12 C11 1_555 1_555
H7 C12 1_555 1_555
C13 C8 1_555 1_555
H8 C13 1_555 1_555
C14 C11 1_555 1_555
C15 H9 1_555 1_555
C16 C15 1_555 1_555
H10 C16 1_555 1_555
C17 C16 1_555 1_555
H11 C17 1_555 1_555
C18 C17 1_555 1_555
C19 C18 1_555 1_555
C20 C19 1_555 1_555
C21 H12 1_555 1_555
C22 C21 1_555 1_555
H13 C22 1_555 1_555
C23 C22 1_555 1_555
H14 C23 1_555 1_555
C24 C20 1_555 1_555
C25 C24 1_555 1_555
C26 C18 1_555 1_555
C27 C28 1_555 1_555
C28 C29 1_555 1_555
C29 H15 1_555 1_555
C30 C29 1_555 1_555
H16 C30 1_555 1_555
C31 C30 1_555 1_555
H17 C31 1_555 1_555
C32 C27 1_555 1_555
H18 C32 1_555 1_555
N1 C15 1_555 1_555
N2 C20 1_555 1_555
N3 C25 1_555 1_555
N4 C26 1_555 1_555
O1 C1 1_555 1_555
O2 C1 1_555 1_555
O3 Ni1 1_555 1_555
O4 C14 1_555 1_555
O5 C14 1_555 1_555
O6 C5 1_555 1_555
Ni1 N1 1_555 1_555
O5_2 Ni1 1_555 1_555
Ni1_2 O5 1_555 1_555
C6 C7 1_555 1_555
C8 O6 1_555 1_555
C12 C13 1_555 1_555
C19 N1 1_555 1_555
C21 N2 1_555 1_555
C23 C24 1_555 1_555
C25 C26 1_555 1_555
C27 N3 1_555 1_555
C28 N4 1_555 1_555
C31 C32 1_555 1_555
N2 Ni1 1_555 1_555
O1 Ni1 1_555 1_555
O2 Ni1 1_555 1_555

#END
