
#######################################################################
#
#                 Cambridge Crystallographic Data Centre
#                                CCDC 
#
#######################################################################
#
# If this CIF has been generated from an entry in the Cambridge 
# Structural Database, then it will include bibliographic, chemical, 
# crystal, experimental, refinement or atomic coordinate data resulting 
# from the CCDC's data processing and validation procedures.
#
#######################################################################

data_NUXXUA
_symmetry_cell_setting           triclinic
_symmetry_space_group_name_H-M   'P -1'
_symmetry_Int_Tables_number      2
_space_group_name_Hall           '-P 1'
loop_
_symmetry_equiv_pos_site_id
_symmetry_equiv_pos_as_xyz
1 x,y,z
2 -x,-y,-z
_cell_length_a                   11.308(5)
_cell_length_b                   11.926(5)
_cell_length_c                   12.873(5)
_cell_angle_alpha                67.243(5)
_cell_angle_beta                 84.721(5)
_cell_angle_gamma                70.474(5)
_cell_volume                     1507.44
loop_
_atom_site_label
_atom_site_type_symbol
_atom_site_fract_x
_atom_site_fract_y
_atom_site_fract_z
Cu1 Cu 0.76706(4) 0.49018(4) 0.26124(3)
V1 V 1.04377(6) 0.17900(6) 0.34194(5)
V2 V 1.06672(9) 0.06267(7) 0.62902(6)
N1 N 0.8472(3) 0.6133(3) 0.1507(3)
N2 N 0.8971(4) 0.7780(3) 0.0307(3)
N3 N 0.6634(3) 0.3860(3) 0.3616(3)
N4 N 0.5943(3) 0.2290(3) 0.4689(3)
N5 N 0.7918(3) 0.5403(3) 0.3884(3)
N6 N 0.8525(3) 0.5061(3) 0.5582(3)
N7 N 0.6526(3) 0.4918(4) 0.9628(3)
N8 N 0.7227(3) 0.4547(3) 1.1300(3)
C1 C 0.9817(4) 0.6710(4) 0.0202(4)
H1 H 1.0480 0.6681 -0.0281
C2 C 0.9499(4) 0.5693(4) 0.0943(3)
H2 H 0.9912 0.4836 0.1052
C3 C 0.8183(4) 0.7389(4) 0.1103(3)
H3 H 0.7519 0.7937 0.1338
C4 C 0.9005(5) 0.9100(5) -0.0264(4)
H4 H 0.8194 0.9704 -0.0222
H5 H 0.9172 0.9266 -0.1053
C5 C 1.0007(5) 0.9298(4) 0.0274(4)
H6 H 1.0823 0.8729 0.0193
H7 H 0.9869 0.9081 0.1073
C6 C 0.6878(4) 0.2604(4) 0.4065(4)
H8 H 0.7610 0.2012 0.3961
C7 C 0.5478(4) 0.4372(4) 0.3977(3)
H9 H 0.5058 0.5244 0.3794
C8 C 0.5043(4) 0.3419(4) 0.4638(4)
H10 H 0.4281 0.3508 0.4992
C9 C 0.5874(5) 0.0990(4) 0.5290(4)
H11 H 0.5572 0.0908 0.6038
H12 H 0.6710 0.0371 0.5378
C10 C 0.5018(4) 0.0685(4) 0.4682(4)
H13 H 0.5312 0.0777 0.3930
H14 H 0.4177 0.1292 0.4607
C11 C 0.8278(4) 0.4537(4) 0.4909(3)
H15 H 0.8352 0.3674 0.5136
C12 C 0.7945(4) 0.6540(4) 0.3911(4)
H16 H 0.7738 0.7327 0.3305
C13 C 0.8320(4) 0.6330(4) 0.4954(4)
H17 H 0.8419 0.6935 0.5197
C14 C 0.8953(4) 0.4371(5) 0.6779(3)
H18 H 0.9475 0.4778 0.6958
H19 H 0.9463 0.3493 0.6900
C15 C 0.7867(4) 0.4357(4) 0.7569(3)
H20 H 0.7282 0.4066 0.7319
H21 H 0.8189 0.3743 0.8319
C16 C 0.7164(4) 0.5660(5) 0.7630(4)
H22 H 0.6834 0.6272 0.6881
H23 H 0.7749 0.5955 0.7874
C17 C 0.6084(4) 0.5636(6) 0.8432(4)
H24 H 0.5581 0.6512 0.8327
H25 H 0.5552 0.5243 0.8247
C18 C 0.6805(4) 0.5433(5) 1.0291(3)
H26 H 0.6713 0.6299 1.0071
C19 C 0.7221(4) 0.3409(5) 1.1272(4)
H27 H 0.7477 0.2612 1.1864
C20 C 0.6778(4) 0.3645(5) 1.0233(4)
H28 H 0.6670 0.3046 0.9987
O1 O 0.9554(3) 0.3296(3) 0.3039(3)
O2 O 1.1609(4) 0.1637(4) 0.2595(4)
O3 O 1.1053(4) 0.1166(3) 0.4835(3)
O4 O 0.9408(7) 0.1603(5) 0.6499(5)
O5 O 1.1776(7) 0.0531(6) 0.7054(4)
O6 O 0.9460(3) 0.0930(3) 0.3303(3)
Cu1A Cu 1.23294(4) 1.50982(4) -0.26124(3)
Cu1_2 Cu 0.76706(4) 0.49018(4) 1.26124(3)
Cu1A_2 Cu 0.23294(4) -0.49018(4) 0.73876(3)
Cu1_3 Cu 0.76706(4) 0.49018(4) -0.73876(3)
V1A V 0.95623(6) 1.82100(6) -0.34194(5)
V1A_2 V 0.95623(6) -0.17900(6) 0.65806(5)
V2A V 0.93328(9) -0.06267(7) 0.37098(6)
V2A_2 V 0.93328(9) 1.93733(7) -0.62902(6)
N1A N 1.1528(3) 1.3867(3) -0.1507(3)
N2A N 1.1029(4) 1.2220(3) -0.0307(3)
N3A N 0.3366(3) -0.3860(3) 0.6384(3)
N3A_2 N 1.3366(3) 1.6140(3) -0.3616(3)
N4A N 0.4057(3) -0.2290(3) 0.5311(3)
N5_2 N 0.7918(3) 0.5403(3) -0.6116(3)
N5A N 1.2082(3) 1.4597(3) -0.3884(3)
N6_2 N 0.8525(3) 0.5061(3) -0.4418(3)
N7_2 N 0.6526(3) 0.4918(4) -0.0372(3)
N8_2 N 0.7227(3) 0.4547(3) 0.1300(3)
N8A N 1.2773(3) 1.5453(3) -0.1300(3)
C1A C 1.0183(4) 1.3290(4) -0.0202(4)
H1A H 0.9520 1.3319 0.0281
C2A C 1.0501(4) 1.4307(4) -0.0943(3)
H2A H 1.0088 1.5164 -0.1052
C3A C 1.1817(4) 1.2611(4) -0.1103(3)
H3A H 1.2481 1.2063 -0.1338
C4A C 1.0995(5) 1.0900(5) 0.0264(4)
H4A H 1.1806 1.0296 0.0222
H5A H 1.0828 1.0734 0.1053
C5A C 0.9993(5) 1.0702(4) -0.0274(4)
H6A H 0.9177 1.1271 -0.0193
H7A H 1.0131 1.0919 -0.1073
C6A C 0.3122(4) -0.2604(4) 0.5935(4)
H8A H 0.2390 -0.2012 0.6039
C7A C 0.4522(4) -0.4372(4) 0.6023(3)
H9A H 0.4942 -0.5244 0.6206
C8A C 0.4957(4) -0.3419(4) 0.5362(4)
H10A H 0.5719 -0.3508 0.5008
C9A C 0.4126(5) -0.0990(4) 0.4710(4)
H11A H 0.4428 -0.0908 0.3962
H12A H 0.3290 -0.0371 0.4622
C10A C 0.4982(4) -0.0685(4) 0.5318(4)
H13A H 0.4688 -0.0777 0.6070
H14A H 0.5823 -0.1292 0.5393
C11_2 C 0.8278(4) 0.4537(4) -0.5091(3)
H15_2 H 0.8352 0.3674 -0.4864
C12_2 C 0.7945(4) 0.6540(4) -0.6089(4)
H16_2 H 0.7738 0.7327 -0.6695
C13_2 C 0.8320(4) 0.6330(4) -0.5046(4)
H17_2 H 0.8419 0.6935 -0.4803
C14_2 C 0.8953(4) 0.4371(5) -0.3221(3)
H18_2 H 0.9475 0.4778 -0.3042
H19_2 H 0.9463 0.3493 -0.3100
C15_2 C 0.7867(4) 0.4357(4) -0.2431(3)
H20_2 H 0.7282 0.4066 -0.2681
H21_2 H 0.8189 0.3743 -0.1681
C16_2 C 0.7164(4) 0.5660(5) -0.2370(4)
H22_2 H 0.6834 0.6272 -0.3119
H23_2 H 0.7749 0.5955 -0.2126
C17_2 C 0.6084(4) 0.5636(6) -0.1568(4)
H24_2 H 0.5581 0.6512 -0.1673
H25_2 H 0.5552 0.5243 -0.1753
C18_2 C 0.6805(4) 0.5433(5) 0.0291(3)
H26_2 H 0.6713 0.6299 0.0071
C19_2 C 0.7221(4) 0.3409(5) 0.1272(4)
H27_2 H 0.7477 0.2612 0.1864
C20_2 C 0.6778(4) 0.3645(5) 0.0233(4)
H28_2 H 0.6670 0.3046 -0.0013
O1A O 1.0446(3) 1.6704(3) -0.3039(3)
O2A O 0.8391(4) 1.8363(4) -0.2595(4)
O3A O 0.8947(4) 1.8834(3) -0.4835(3)
O3A_2 O 0.8947(4) -0.1166(3) 0.5165(3)
O4A O 1.0592(7) -0.1603(5) 0.3501(5)
O5A O 0.8224(7) -0.0531(6) 0.2946(4)
O6A O 1.0540(3) -0.0930(3) 0.6697(3)
O6A_2 O 1.0540(3) 1.9070(3) -0.3303(3)
O7 O 0.6289(7) 0.8638(7) 0.8546(6)
O8 O 0.7214(7) 0.1345(7) 0.7315(7)
O9 O 1.3787(11) 0.0135(11) 0.8112(10)
O10 O 0.5274(16) 0.7407(16) 0.2149(14)
O11? O 1.4650(18) -0.023(2) 1.0080(18)
loop_
_geom_bond_atom_site_label_1
_geom_bond_atom_site_label_2
_geom_bond_site_symmetry_1
_geom_bond_site_symmetry_2
Cu1 N1 1_555 1_555
V1 O1 1_555 1_555
V2 O3 1_555 1_555
N1 C2 1_555 1_555
N2 C1 1_555 1_555
N3 Cu1 1_555 1_555
N4 C6 1_555 1_555
N5 Cu1 1_555 1_555
N6 C11 1_555 1_555
N7 C17 1_555 1_555
N8 C18 1_555 1_555
C1 H1 1_555 1_555
C2 C1 1_555 1_555
H2 C2 1_555 1_555
C3 N1 1_555 1_555
H3 C3 1_555 1_555
C4 N2 1_555 1_555
H4 C4 1_555 1_555
H5 C4 1_555 1_555
C5 C4 1_555 1_555
H6 C5 1_555 1_555
H7 C5 1_555 1_555
C6 N3 1_555 1_555
H8 C6 1_555 1_555
C7 N3 1_555 1_555
H9 C7 1_555 1_555
C8 N4 1_555 1_555
H10 C8 1_555 1_555
C9 N4 1_555 1_555
H11 C9 1_555 1_555
H12 C9 1_555 1_555
C10 C9 1_555 1_555
H13 C10 1_555 1_555
H14 C10 1_555 1_555
C11 N5 1_555 1_555
H15 C11 1_555 1_555
C12 N5 1_555 1_555
H16 C12 1_555 1_555
C13 N6 1_555 1_555
H17 C13 1_555 1_555
C14 N6 1_555 1_555
H18 C14 1_555 1_555
H19 C14 1_555 1_555
C15 C14 1_555 1_555
H20 C15 1_555 1_555
H21 C15 1_555 1_555
C16 C15 1_555 1_555
H22 C16 1_555 1_555
H23 C16 1_555 1_555
C17 C16 1_555 1_555
H24 C17 1_555 1_555
H25 C17 1_555 1_555
C18 N7 1_555 1_555
H26 C18 1_555 1_555
C19 N8 1_555 1_555
H27 C19 1_555 1_555
C20 N7 1_555 1_555
H28 C20 1_555 1_555
O1 Cu1 1_555 1_555
O2 V1 1_555 1_555
O3 V1 1_555 1_555
O4 V2 1_555 1_555
O5 V2 1_555 1_555
O6 V1 1_555 1_555
Cu1A N1A 1_555 1_555
Cu1_2 N8 1_555 1_555
Cu1A_2 N3A 1_555 1_555
Cu1_3 N5_2 1_555 1_555
V1A O1A 1_555 1_555
V1A_2 O3A_2 1_555 1_555
V2A O6 1_555 1_555
V2A_2 O3A 1_555 1_555
N1A C2A 1_555 1_555
N2A C1A 1_555 1_555
N3A C6A 1_555 1_555
N3A_2 Cu1A 1_555 1_555
N4A C6A 1_555 1_555
N5_2 C11_2 1_555 1_555
N5A Cu1A 1_555 1_555
N6_2 C11_2 1_555 1_555
N7_2 C17_2 1_555 1_555
N8_2 Cu1 1_555 1_555
N8A Cu1A 1_555 1_555
C1A H1A 1_555 1_555
C2A C1A 1_555 1_555
H2A C2A 1_555 1_555
C3A N1A 1_555 1_555
H3A C3A 1_555 1_555
C4A N2A 1_555 1_555
H4A C4A 1_555 1_555
H5A C4A 1_555 1_555
C5A C5 1_555 1_555
H6A C5A 1_555 1_555
H7A C5A 1_555 1_555
C6A H8A 1_555 1_555
C7A N3A 1_555 1_555
H9A C7A 1_555 1_555
C8A N4A 1_555 1_555
H10A C8A 1_555 1_555
C9A N4A 1_555 1_555
H11A C9A 1_555 1_555
H12A C9A 1_555 1_555
C10A C10 1_555 1_555
H13A C10A 1_555 1_555
H14A C10A 1_555 1_555
C11_2 H15_2 1_555 1_555
C12_2 N5_2 1_555 1_555
H16_2 C12_2 1_555 1_555
C13_2 N6_2 1_555 1_555
H17_2 C13_2 1_555 1_555
C14_2 N6_2 1_555 1_555
H18_2 C14_2 1_555 1_555
H19_2 C14_2 1_555 1_555
C15_2 C14_2 1_555 1_555
H20_2 C15_2 1_555 1_555
H21_2 C15_2 1_555 1_555
C16_2 C15_2 1_555 1_555
H22_2 C16_2 1_555 1_555
H23_2 C16_2 1_555 1_555
C17_2 C16_2 1_555 1_555
H24_2 C17_2 1_555 1_555
H25_2 C17_2 1_555 1_555
C18_2 N7_2 1_555 1_555
H26_2 C18_2 1_555 1_555
C19_2 N8_2 1_555 1_555
H27_2 C19_2 1_555 1_555
C20_2 N7_2 1_555 1_555
H28_2 C20_2 1_555 1_555
O1A Cu1A 1_555 1_555
O2A V1A 1_555 1_555
O3A V1A 1_555 1_555
O3A_2 V2A 1_555 1_555
O4A V2A 1_555 1_555
O5A V2A 1_555 1_555
O6A V2 1_555 1_555
O6A_2 V1A 1_555 1_555
N2 C3 1_555 1_555
C7 C8 1_555 1_555
C12 C13 1_555 1_555
C19 C20 1_555 1_555
V1A_2 O6A 1_555 1_555
N2A C3A 1_555 1_555
N8_2 C18_2 1_555 1_555
C4A C5A 1_555 1_555
C7A C8A 1_555 1_555
C9A C10A 1_555 1_555
C12_2 C13_2 1_555 1_555
C19_2 C20_2 1_555 1_555

#END
