
#######################################################################
#
#                 Cambridge Crystallographic Data Centre
#                                CCDC 
#
#######################################################################
#
# If this CIF has been generated from an entry in the Cambridge 
# Structural Database, then it will include bibliographic, chemical, 
# crystal, experimental, refinement or atomic coordinate data resulting 
# from the CCDC's data processing and validation procedures.
#
#######################################################################

data_NUXYIQ
_symmetry_cell_setting           triclinic
_symmetry_space_group_name_H-M   'P -1'
_symmetry_Int_Tables_number      2
_space_group_name_Hall           '-P 1'
loop_
_symmetry_equiv_pos_site_id
_symmetry_equiv_pos_as_xyz
1 x,y,z
2 -x,-y,-z
_cell_length_a                   9.0000(18)
_cell_length_b                   15.000(3)
_cell_length_c                   17.000(3)
_cell_angle_alpha                83.00(3)
_cell_angle_beta                 77.00(3)
_cell_angle_gamma                87.00(3)
_cell_volume                     2218.77
loop_
_atom_site_label
_atom_site_type_symbol
_atom_site_fract_x
_atom_site_fract_y
_atom_site_fract_z
C1 C 0.74022(17) -0.02758(10) -0.19191(9)
C2 C 0.76728(18) 0.05278(11) -0.24484(9)
H1 H 0.7097 0.1060 -0.2318
C3 C 0.88102(18) 0.05356(11) -0.31767(9)
H2 H 0.8990 0.1077 -0.3533
C4 C 0.93965(17) -0.10581(10) -0.28507(9)
H3 H 0.9967 -0.1592 -0.2980
C5 C 0.82628(17) -0.10679(10) -0.21294(9)
H4 H 0.8069 -0.1612 -0.1778
C6 C 0.96887(17) -0.02532(10) -0.33846(9)
C7 C 1.25766(17) -0.04089(10) -0.39677(9)
C8 C 1.29031(18) -0.00836(11) -0.32810(10)
H5 H 1.2134 0.0235 -0.2936
C9 C 1.43607(19) -0.02276(11) -0.31024(10)
H6 H 1.4560 -0.0004 -0.2638
C10 C 1.55316(18) -0.06998(11) -0.36055(10)
H7 H 1.6507 -0.0797 -0.3479
C11 C 1.52339(18) -0.10193(11) -0.42884(10)
H8 H 1.6014 -0.1328 -0.4636
C12 C 1.37662(18) -0.08840(10) -0.44656(10)
H9 H 1.3572 -0.1116 -0.4927
C13 C 1.09904(17) -0.02387(10) -0.41313(9)
C14 C 1.07541(17) -0.00736(10) -0.48946(9)
H10 H 1.1628 -0.0050 -0.5330
C15 C 0.62202(18) -0.02722(11) -0.11137(9)
C16 C 0.0895(2) -0.19590(14) -0.06709(12)
H11 H 0.1279 -0.2110 -0.1227
H12 H -0.0223 -0.1943 -0.0546
H13 H 0.1260 -0.2414 -0.0289
C17 C 0.0847(3) -0.02818(15) -0.10385(14)
H14 H 0.1344 0.0257 -0.0962
H15 H -0.0256 -0.0221 -0.0828
H16 H 0.1053 -0.0354 -0.1619
C18 C 0.25269(19) -0.09813(12) -0.01847(10)
H17 H 0.2883 -0.0395 -0.0192
C19 C 0.8008(2) -0.25873(13) 0.09886(11)
H18 H 0.7648 -0.3059 0.0762
C20 C 0.9703(3) -0.21208(16) 0.18025(13)
H19 H 0.9052 -0.1576 0.1799
H20 H 1.0745 -0.1975 0.1509
H21 H 0.9708 -0.2360 0.2365
C21 C 0.9795(3) -0.37154(15) 0.14756(17)
H22 H 0.9354 -0.4096 0.1163
H23 H 0.9585 -0.3968 0.2048
H24 H 1.0901 -0.3689 0.1263
C22 C 0.36903(18) -0.36299(11) 0.75501(9)
C23 C 0.3461(2) -0.43514(11) 0.81734(10)
H25 H 0.3047 -0.4892 0.8087
C24 C 0.3832(2) -0.42822(11) 0.89128(10)
H26 H 0.3654 -0.4769 0.9332
C25 C 0.44740(18) -0.34876(11) 0.90410(10)
C26 C 0.47711(19) -0.27786(11) 0.84147(10)
H27 H 0.5248 -0.2255 0.8491
C27 C 0.43648(19) -0.28418(11) 0.76745(10)
H28 H 0.4543 -0.2354 0.7255
C28 C 0.31024(18) -0.36989(10) 0.67983(9)
C29 C 0.40104(18) -0.35611(10) 0.60342(9)
H29 H 0.3525 -0.3568 0.5593
C30 C 0.56689(18) -0.34028(10) 0.58230(9)
H30 H 0.6170 -0.3440 0.6262
C31 C 0.65547(18) -0.32081(10) 0.50604(9)
C32 C 0.82372(18) -0.30078(10) 0.49029(9)
C33 C 0.88811(19) -0.26191(11) 0.54606(10)
H31 H 0.8245 -0.2465 0.5954
C34 C 1.04655(19) -0.24555(11) 0.52937(10)
H32 H 1.0873 -0.2196 0.5680
C35 C 1.14446(19) -0.26693(11) 0.45700(11)
H33 H 1.2504 -0.2557 0.4466
C36 C 1.08345(19) -0.30489(11) 0.40067(10)
H34 H 1.1480 -0.3199 0.3514
C37 C 0.92463(19) -0.32115(11) 0.41698(10)
H35 H 0.8846 -0.3464 0.3777
C38 C 0.59152(17) -0.31714(10) 0.43107(9)
C39 C 0.53952(18) -0.39528(11) 0.40816(9)
H36 H 0.5376 -0.4503 0.4425
C40 C 0.59212(18) -0.23537(11) 0.37990(9)
H37 H 0.6274 -0.1826 0.3947
C41 C 0.54128(18) -0.23174(11) 0.30788(9)
H38 H 0.5404 -0.1764 0.2742
C42 C 0.49098(19) -0.39218(11) 0.33542(9)
H39 H 0.4579 -0.4452 0.3199
C43 C 0.49116(17) -0.31038(10) 0.28510(9)
C44 C 0.14224(18) -0.39295(11) 0.69572(10)
C45 C 0.0346(2) -0.36405(12) 0.76307(10)
H40 H 0.0686 -0.3290 0.7982
C46 C -0.1215(2) -0.38560(13) 0.77981(12)
H41 H -0.1902 -0.3648 0.8253
C47 C -0.1744(2) -0.43736(12) 0.72946(12)
H42 H -0.2785 -0.4531 0.7407
C48 C -0.0703(2) -0.46570(12) 0.66180(12)
H43 H -0.1056 -0.4998 0.6265
C49 C 0.0870(2) -0.44454(11) 0.64486(11)
H44 H 0.1551 -0.4653 0.5991
C50 C 0.44479(18) -0.30756(11) 0.20481(9)
C51 C 0.47431(19) -0.33877(11) 0.98649(10)
O1 O 0.39296(15) -0.39107(8) 1.04523(7)
Mg1 Mg 0.52523(6) -0.15962(4) 0.05207(3)
N1 N 0.14476(17) -0.10747(10) -0.05975(9)
N2 N 0.91093(18) -0.27962(11) 0.14046(10)
O2 O 0.62807(13) -0.09526(8) -0.05987(7)
O3 O 0.52708(13) 0.03999(8) -0.10226(7)
O4 O 0.42237(17) -0.38435(8) 0.18340(7)
O5 O 0.43369(13) -0.23239(7) 0.16402(6)
O6 O 0.56847(13) -0.28286(8) 0.99516(7)
O7 O 0.30973(14) -0.16196(8) 0.02104(7)
O8 O 0.74122(13) -0.18104(8) 0.08751(7)
C1A C 1.25978(17) 0.02758(10) -0.80809(9)
C2A C 1.23272(18) -0.05278(11) -0.75516(9)
H1A H 1.2903 -0.1060 -0.7682
C3A C 1.11898(18) -0.05356(11) -0.68233(9)
H2A H 1.1010 -0.1077 -0.6467
C4A C 1.06035(17) 0.10581(10) -0.71493(9)
H3A H 1.0033 0.1592 -0.7020
C5A C 1.17372(17) 0.10679(10) -0.78706(9)
H4A H 1.1931 0.1612 -0.8222
C6A C 1.03113(17) 0.02532(10) -0.66154(9)
C7A C 0.74234(17) 0.04089(10) -0.60323(9)
C8A C 0.70969(18) 0.00836(11) -0.67190(10)
H5A H 0.7866 -0.0235 -0.7064
C9A C 0.56393(19) 0.02276(11) -0.68976(10)
H6A H 0.5440 0.0004 -0.7362
C10A C 0.44684(18) 0.06998(11) -0.63945(10)
H7A H 0.3493 0.0797 -0.6521
C11A C 0.47661(18) 0.10193(11) -0.57116(10)
H8A H 0.3986 0.1328 -0.5364
C12A C 0.62338(18) 0.08840(10) -0.55344(10)
H9A H 0.6428 0.1116 -0.5073
C13A C 0.90096(17) 0.02387(10) -0.58687(9)
C14A C 0.92459(17) 0.00736(10) -0.51054(9)
H10A H 0.8372 0.0050 -0.4670
C15A C 1.37798(18) 0.02722(11) -0.88863(9)
O2A O 1.37193(13) 0.09526(8) -0.94013(7)
O3A O 1.47292(13) -0.03999(8) -0.89774(7)
C16A C 0.9105(2) 0.19590(14) 0.06709(12)
H11A H 0.8721 0.2110 0.1227
H12A H 1.0223 0.1943 0.0546
H13A H 0.8740 0.2414 0.0289
C17A C 0.9153(3) 0.02818(15) 0.10385(14)
H14A H 0.8656 -0.0257 0.0962
H15A H 1.0256 0.0221 0.0828
H16A H 0.8947 0.0354 0.1619
C18A C 0.74731(19) 0.09813(12) 0.01847(10)
H17A H 0.7117 0.0395 0.0192
C19A C 0.1992(2) 0.25873(13) -0.09886(11)
H18A H 0.2352 0.3059 -0.0762
C20A C 0.0297(3) 0.21208(16) -0.18025(13)
H19A H 0.0948 0.1576 -0.1799
H20A H -0.0745 0.1975 -0.1509
H21A H 0.0292 0.2360 -0.2365
C21A C 0.0205(3) 0.37154(15) -0.14756(17)
H22A H 0.0646 0.4096 -0.1163
H23A H 0.0415 0.3968 -0.2048
H24A H -0.0901 0.3689 -0.1263
C22A C 0.63097(18) 0.36299(11) -0.75501(9)
C23A C 0.6539(2) 0.43514(11) -0.81734(10)
H25A H 0.6953 0.4892 -0.8087
C24A C 0.6168(2) 0.42822(11) -0.89128(10)
H26A H 0.6346 0.4769 -0.9332
C25A C 0.55260(18) 0.34876(11) -0.90410(10)
C26A C 0.52289(19) 0.27786(11) -0.84147(10)
H27A H 0.4752 0.2255 -0.8491
C27A C 0.56352(19) 0.28418(11) -0.76745(10)
H28A H 0.5457 0.2354 -0.7255
C28A C 0.68976(18) 0.36989(10) -0.67983(9)
C29A C 0.59896(18) 0.35611(10) -0.60342(9)
H29A H 0.6475 0.3568 -0.5593
C30A C 0.43311(18) 0.34028(10) -0.58230(9)
H30A H 0.3830 0.3440 -0.6262
C31A C 0.34453(18) 0.32081(10) -0.50604(9)
C32A C 0.17628(18) 0.30078(10) -0.49029(9)
C33A C 0.11189(19) 0.26191(11) -0.54606(10)
H31A H 0.1755 0.2465 -0.5954
C34A C -0.04655(19) 0.24555(11) -0.52937(10)
H32A H -0.0873 0.2196 -0.5680
C35A C -0.14446(19) 0.26693(11) -0.45700(11)
H33A H -0.2504 0.2557 -0.4466
C36A C -0.08345(19) 0.30489(11) -0.40067(10)
H34A H -0.1480 0.3199 -0.3514
C37A C 0.07537(19) 0.32115(11) -0.41698(10)
H35A H 0.1154 0.3464 -0.3777
C38A C 0.40848(17) 0.31714(10) -0.43107(9)
C39A C 0.46048(18) 0.39528(11) -0.40816(9)
H36A H 0.4624 0.4503 -0.4425
C40A C 0.40788(18) 0.23537(11) -0.37990(9)
H37A H 0.3726 0.1826 -0.3947
C41A C 0.45872(18) 0.23174(11) -0.30788(9)
H38A H 0.4596 0.1764 -0.2742
C42A C 0.50902(19) 0.39218(11) -0.33542(9)
H39A H 0.5421 0.4452 -0.3199
C43A C 0.50884(17) 0.31038(10) -0.28510(9)
C44A C 0.85776(18) 0.39295(11) -0.69572(10)
C45A C 0.9654(2) 0.36405(12) -0.76307(10)
H40A H 0.9314 0.3290 -0.7982
C46A C 1.1215(2) 0.38560(13) -0.77981(12)
H41A H 1.1902 0.3648 -0.8253
C47A C 1.1744(2) 0.43736(12) -0.72946(12)
H42A H 1.2785 0.4531 -0.7407
C48A C 1.0703(2) 0.46570(12) -0.66180(12)
H43A H 1.1056 0.4998 -0.6265
C49A C 0.9130(2) 0.44454(11) -0.64486(11)
H44A H 0.8449 0.4653 -0.5991
C50A C 0.55521(18) 0.30756(11) -0.20481(9)
C51A C 0.52569(19) 0.33877(11) -0.98649(10)
O1A O 0.60704(15) 0.39107(8) -1.04523(7)
Mg1A Mg 0.47477(6) 0.15962(4) -0.05207(3)
N1A N 0.85524(17) 0.10747(10) 0.05975(9)
N2A N 0.08907(18) 0.27962(11) -0.14046(10)
O4A O 0.57763(17) 0.38435(8) -0.18340(7)
O5A O 0.56631(13) 0.23239(7) -0.16402(6)
O6A O 0.43153(13) 0.28286(8) -0.99516(7)
O7A O 0.69027(14) 0.16196(8) -0.02104(7)
O8A O 0.25878(13) 0.18104(8) -0.08751(7)
Mg1_2 Mg 0.52523(6) -0.15962(4) 1.05207(3)
Mg1_3 Mg 1.52523(6) -0.15962(4) -0.94793(3)
Mg1A_2 Mg 0.47477(6) 0.15962(4) -1.05207(3)
Mg1A_3 Mg 1.47477(6) 0.15962(4) -1.05207(3)
O2A_2 O 0.37193(13) 0.09526(8) 0.05987(7)
O3A_2 O 0.47292(13) -0.03999(8) 0.10226(7)
O6_2 O 0.56847(13) -0.28286(8) -0.00484(7)
O6A_2 O 0.43153(13) 0.28286(8) 0.00484(7)
loop_
_geom_bond_atom_site_label_1
_geom_bond_atom_site_label_2
_geom_bond_site_symmetry_1
_geom_bond_site_symmetry_2
C1 C2 1_555 1_555
C2 H1 1_555 1_555
C3 C2 1_555 1_555
H2 C3 1_555 1_555
C4 H3 1_555 1_555
C5 C1 1_555 1_555
H4 C5 1_555 1_555
C6 C3 1_555 1_555
C7 C8 1_555 1_555
C8 H5 1_555 1_555
C9 C8 1_555 1_555
H6 C9 1_555 1_555
C10 C9 1_555 1_555
H7 C10 1_555 1_555
C11 C10 1_555 1_555
H8 C11 1_555 1_555
C12 C7 1_555 1_555
H9 C12 1_555 1_555
C13 C6 1_555 1_555
C14 C13 1_555 1_555
H10 C14 1_555 1_555
C15 C1 1_555 1_555
C16 H11 1_555 1_555
H12 C16 1_555 1_555
H13 C16 1_555 1_555
C17 H14 1_555 1_555
H15 C17 1_555 1_555
H16 C17 1_555 1_555
C18 H17 1_555 1_555
C19 H18 1_555 1_555
C20 H19 1_555 1_555
H20 C20 1_555 1_555
H21 C20 1_555 1_555
C21 H22 1_555 1_555
H23 C21 1_555 1_555
H24 C21 1_555 1_555
C22 C23 1_555 1_555
C23 H25 1_555 1_555
C24 C23 1_555 1_555
H26 C24 1_555 1_555
C25 C24 1_555 1_555
C26 C25 1_555 1_555
H27 C26 1_555 1_555
C27 C22 1_555 1_555
H28 C27 1_555 1_555
C28 C22 1_555 1_555
C29 C28 1_555 1_555
H29 C29 1_555 1_555
C30 C29 1_555 1_555
H30 C30 1_555 1_555
C31 C30 1_555 1_555
C32 C31 1_555 1_555
C33 C32 1_555 1_555
H31 C33 1_555 1_555
C34 C33 1_555 1_555
H32 C34 1_555 1_555
C35 C34 1_555 1_555
H33 C35 1_555 1_555
C36 C35 1_555 1_555
H34 C36 1_555 1_555
C37 C32 1_555 1_555
H35 C37 1_555 1_555
C38 C31 1_555 1_555
C39 C38 1_555 1_555
H36 C39 1_555 1_555
C40 C38 1_555 1_555
H37 C40 1_555 1_555
C41 C40 1_555 1_555
H38 C41 1_555 1_555
C42 C39 1_555 1_555
H39 C42 1_555 1_555
C43 C41 1_555 1_555
C44 C28 1_555 1_555
C45 C44 1_555 1_555
H40 C45 1_555 1_555
C46 C45 1_555 1_555
H41 C46 1_555 1_555
C47 C46 1_555 1_555
H42 C47 1_555 1_555
C48 C47 1_555 1_555
H43 C48 1_555 1_555
C49 C44 1_555 1_555
H44 C49 1_555 1_555
C50 C43 1_555 1_555
C51 C25 1_555 1_555
O1 C51 1_555 1_555
Mg1 O2 1_555 1_555
N1 C16 1_555 1_555
N2 C19 1_555 1_555
O2 C15 1_555 1_555
O3 C15 1_555 1_555
O4 C50 1_555 1_555
O5 C50 1_555 1_555
O6 C51 1_555 1_555
O7 C18 1_555 1_555
O8 C19 1_555 1_555
C1A C2A 1_555 1_555
C2A H1A 1_555 1_555
C3A C2A 1_555 1_555
H2A C3A 1_555 1_555
C4A H3A 1_555 1_555
C5A C1A 1_555 1_555
H4A C5A 1_555 1_555
C6A C3A 1_555 1_555
C7A C8A 1_555 1_555
C8A H5A 1_555 1_555
C9A C8A 1_555 1_555
H6A C9A 1_555 1_555
C10A C9A 1_555 1_555
H7A C10A 1_555 1_555
C11A C10A 1_555 1_555
H8A C11A 1_555 1_555
C12A C7A 1_555 1_555
H9A C12A 1_555 1_555
C13A C6A 1_555 1_555
C14A C14 1_555 1_555
H10A C14A 1_555 1_555
C15A C1A 1_555 1_555
O2A C15A 1_555 1_555
O3A C15A 1_555 1_555
C16A H11A 1_555 1_555
H12A C16A 1_555 1_555
H13A C16A 1_555 1_555
C17A H14A 1_555 1_555
H15A C17A 1_555 1_555
H16A C17A 1_555 1_555
C18A H17A 1_555 1_555
C19A H18A 1_555 1_555
C20A H19A 1_555 1_555
H20A C20A 1_555 1_555
H21A C20A 1_555 1_555
C21A H22A 1_555 1_555
H23A C21A 1_555 1_555
H24A C21A 1_555 1_555
C22A C23A 1_555 1_555
C23A H25A 1_555 1_555
C24A C23A 1_555 1_555
H26A C24A 1_555 1_555
C25A C24A 1_555 1_555
C26A C25A 1_555 1_555
H27A C26A 1_555 1_555
C27A C22A 1_555 1_555
H28A C27A 1_555 1_555
C28A C22A 1_555 1_555
C29A C28A 1_555 1_555
H29A C29A 1_555 1_555
C30A C29A 1_555 1_555
H30A C30A 1_555 1_555
C31A C30A 1_555 1_555
C32A C31A 1_555 1_555
C33A C32A 1_555 1_555
H31A C33A 1_555 1_555
C34A C33A 1_555 1_555
H32A C34A 1_555 1_555
C35A C34A 1_555 1_555
H33A C35A 1_555 1_555
C36A C35A 1_555 1_555
H34A C36A 1_555 1_555
C37A C32A 1_555 1_555
H35A C37A 1_555 1_555
C38A C31A 1_555 1_555
C39A C38A 1_555 1_555
H36A C39A 1_555 1_555
C40A C38A 1_555 1_555
H37A C40A 1_555 1_555
C41A C40A 1_555 1_555
H38A C41A 1_555 1_555
C42A C39A 1_555 1_555
H39A C42A 1_555 1_555
C43A C41A 1_555 1_555
C44A C28A 1_555 1_555
C45A C44A 1_555 1_555
H40A C45A 1_555 1_555
C46A C45A 1_555 1_555
H41A C46A 1_555 1_555
C47A C46A 1_555 1_555
H42A C47A 1_555 1_555
C48A C47A 1_555 1_555
H43A C48A 1_555 1_555
C49A C44A 1_555 1_555
H44A C49A 1_555 1_555
C50A C43A 1_555 1_555
C51A C25A 1_555 1_555
O1A C51A 1_555 1_555
Mg1A O3 1_555 1_555
N1A C16A 1_555 1_555
N2A C19A 1_555 1_555
O4A C50A 1_555 1_555
O5A C50A 1_555 1_555
O6A C51A 1_555 1_555
O7A C18A 1_555 1_555
O8A C19A 1_555 1_555
Mg1_2 O6 1_555 1_555
Mg1_3 O3A 1_555 1_555
Mg1A_2 O6A 1_555 1_555
Mg1A_3 O2A 1_555 1_555
O2A_2 Mg1A 1_555 1_555
O3A_2 Mg1 1_555 1_555
O6_2 Mg1 1_555 1_555
O6A_2 Mg1A 1_555 1_555
C4 C5 1_555 1_555
C4 C6 1_555 1_555
C7 C13 1_555 1_555
C11 C12 1_555 1_555
C17 N1 1_555 1_555
C18 N1 1_555 1_555
C20 N2 1_555 1_555
C21 N2 1_555 1_555
C26 C27 1_555 1_555
C36 C37 1_555 1_555
C42 C43 1_555 1_555
C48 C49 1_555 1_555
Mg1 O5 1_555 1_555
Mg1 O7 1_555 1_555
Mg1 O8 1_555 1_555
C4A C5A 1_555 1_555
C4A C6A 1_555 1_555
C7A C13A 1_555 1_555
C11A C12A 1_555 1_555
C13A C14A 1_555 1_555
C17A N1A 1_555 1_555
C18A N1A 1_555 1_555
C20A N2A 1_555 1_555
C21A N2A 1_555 1_555
C26A C27A 1_555 1_555
C36A C37A 1_555 1_555
C42A C43A 1_555 1_555
C48A C49A 1_555 1_555
Mg1A O5A 1_555 1_555
Mg1A O7A 1_555 1_555
Mg1A O8A 1_555 1_555

#END
