
#######################################################################
#
#                 Cambridge Crystallographic Data Centre
#                                CCDC 
#
#######################################################################
#
# If this CIF has been generated from an entry in the Cambridge 
# Structural Database, then it will include bibliographic, chemical, 
# crystal, experimental, refinement or atomic coordinate data resulting 
# from the CCDC's data processing and validation procedures.
#
#######################################################################

data_NUXYIP
_symmetry_cell_setting           rhombohedral
_symmetry_space_group_name_H-M   'R -3'
_symmetry_Int_Tables_number      148
_space_group_name_Hall           '-R 3'
loop_
_symmetry_equiv_pos_site_id
_symmetry_equiv_pos_as_xyz
1 x,y,z
2 -y,x-y,z
3 -x+y,-x,z
4 2/3+x,1/3+y,1/3+z
5 2/3-y,1/3+x-y,1/3+z
6 2/3-x+y,1/3-x,1/3+z
7 1/3+x,2/3+y,2/3+z
8 1/3-y,2/3+x-y,2/3+z
9 1/3-x+y,2/3-x,2/3+z
10 -x,-y,-z
11 y,-x+y,-z
12 x-y,x,-z
13 1/3-x,2/3-y,2/3-z
14 1/3+y,2/3-x+y,2/3-z
15 1/3+x-y,2/3+x,2/3-z
16 2/3-x,1/3-y,1/3-z
17 2/3+y,1/3-x+y,1/3-z
18 2/3+x-y,1/3+x,1/3-z
_cell_length_a                   28.218(2)
_cell_length_b                   28.218(2)
_cell_length_c                   17.741(1)
_cell_angle_alpha                90
_cell_angle_beta                 90
_cell_angle_gamma                120
_cell_volume                     12233.8
loop_
_atom_site_label
_atom_site_type_symbol
_atom_site_fract_x
_atom_site_fract_y
_atom_site_fract_z
Pb1 Pb 0.185288(16) 0.918598(16) 0.31869(2)
I1 I 0.08100(4) 0.87108(4) 0.51556(4)
I2 I 0.10139(3) 0.76261(3) 0.79575(4)
I3 I 0.27618(4) 0.84096(5) 0.55700(5)
O1 O 0.2192(3) 0.9220(3) 0.4641(3)
O2 O 0.1756(3) 0.8373(3) 0.4215(4)
O3 O 0.0106(3) 0.7613(4) 0.6517(4)
O4 O 0.0414(4) 0.8407(4) 0.7115(5)
N1 N 0.2134(4) 0.7923(4) 0.7117(5)
H3 H 0.2007 0.7760 0.7540
H4 H 0.2442 0.7974 0.6952
N2 N 0.2690(4) 0.9191(4) 0.3091(4)
N3 N 0.3429(4) 0.9348(4) 0.2473(5)
H5 H 0.3659 0.9437 0.2109
N4 N 0.2929(5) 0.9659(4) 0.1124(5)
H6 H 0.3216 0.9668 0.0942
N5 N 0.2292(4) 0.9545(4) 0.1930(5)
C1 C 0.1915(4) 0.8714(4) 0.4745(5)
C2 C 0.1737(4) 0.8500(4) 0.5536(5)
C3 C 0.1252(4) 0.8433(4) 0.5820(5)
C4 C 0.1043(4) 0.8194(4) 0.6505(5)
C5 C 0.1348(4) 0.8031(4) 0.6946(5)
C6 C 0.1843(4) 0.8103(4) 0.6704(5)
C7 C 0.2029(4) 0.8332(4) 0.5981(6)
C8 C 0.0480(5) 0.8061(5) 0.6735(5)
C9 C 0.3012(5) 0.9072(5) 0.3539(7)
H7 H 0.2924 0.8938 0.4029
C10 C 0.3486(5) 0.9178(6) 0.3164(7)
H8 H 0.3775 0.9140 0.3345
C11 C 0.2968(5) 0.9356(4) 0.2443(5)
C12 C 0.2732(5) 0.9509(4) 0.1837(6)
C13 C 0.2597(7) 0.9792(5) 0.0756(7)
H9 H 0.2628 0.9908 0.0259
C14 C 0.2217(6) 0.9722(5) 0.1248(7)
H10 H 0.1931 0.9786 0.1143
Pb1L Pb 0.148045(16) 0.748069(16) 0.34798(2)
Pb1J Pb -0.081402(16) 0.733310(23) 0.68131(2)
O2L O 0.1577(3) 0.8294(3) 0.2452(4)
O3K O 0.2493(5) 1.0106(3) 0.3483(4)
O5 O 0.1156(8) 0.9363(8) 0.7998(11)
H1 H 0.1103 0.9150 0.7652
H2 H 0.1484 0.9589 0.8019
loop_
_geom_bond_atom_site_label_1
_geom_bond_atom_site_label_2
_geom_bond_site_symmetry_1
_geom_bond_site_symmetry_2
Pb1 O1 1_555 1_555
I1 C3 1_555 1_555
I2 C5 1_555 1_555
I3 C7 1_555 1_555
O1 C1 1_555 1_555
O2 Pb1 1_555 1_555
O3 C8 1_555 1_555
O4 C8 1_555 1_555
O5 H1 1_555 1_555
H2 O5 1_555 1_555
N1 H3 1_555 1_555
H4 N1 1_555 1_555
N2 Pb1 1_555 1_555
N3 H5 1_555 1_555
N4 H6 1_555 1_555
N5 Pb1 1_555 1_555
C1 O2 1_555 1_555
C2 C1 1_555 1_555
C3 C2 1_555 1_555
C4 C3 1_555 1_555
C5 C4 1_555 1_555
C6 N1 1_555 1_555
C7 C2 1_555 1_555
C8 C4 1_555 1_555
C9 N2 1_555 1_555
H7 C9 1_555 1_555
C10 N3 1_555 1_555
H8 C10 1_555 1_555
C11 N2 1_555 1_555
C12 N4 1_555 1_555
C13 N4 1_555 1_555
H9 C13 1_555 1_555
C14 N5 1_555 1_555
H10 C14 1_555 1_555
Pb1L O2 1_555 1_555
Pb1J O3 1_555 1_555
O2L Pb1 1_555 1_555
O3K Pb1 1_555 1_555
N3 C11 1_555 1_555
N5 C12 1_555 1_555
C5 C6 1_555 1_555
C6 C7 1_555 1_555
C9 C10 1_555 1_555
C11 C12 1_555 1_555
C13 C14 1_555 1_555
Pb1L O2L 1_555 1_555

#END
