
#######################################################################
#
#                 Cambridge Crystallographic Data Centre
#                                CCDC 
#
#######################################################################
#
# If this CIF has been generated from an entry in the Cambridge 
# Structural Database, then it will include bibliographic, chemical, 
# crystal, experimental, refinement or atomic coordinate data resulting 
# from the CCDC's data processing and validation procedures.
#
#######################################################################

data_NUXYUB
_symmetry_cell_setting           triclinic
_symmetry_space_group_name_H-M   'P -1'
_symmetry_Int_Tables_number      2
_space_group_name_Hall           '-P 1'
loop_
_symmetry_equiv_pos_site_id
_symmetry_equiv_pos_as_xyz
1 x,y,z
2 -x,-y,-z
_cell_length_a                   8.9863(17)
_cell_length_b                   10.0916(18)
_cell_length_c                   11.218(2)
_cell_angle_alpha                90.343(3)
_cell_angle_beta                 108.875(3)
_cell_angle_gamma                109.516(3)
_cell_volume                     899.858
loop_
_atom_site_label
_atom_site_type_symbol
_atom_site_fract_x
_atom_site_fract_y
_atom_site_fract_z
Cu1 Cu 0.0000 0.5000 0.5000
Cu2 Cu 0.5000 0.0000 -0.5000
S1 S 0.18147(13) 0.25142(10) -0.04539(9)
N1 N 0.4054(4) 0.0303(3) -0.3646(3)
N2 N 0.0390(3) 0.3963(3) 0.3622(2)
N3 N 0.1873(4) 0.0731(3) 0.1136(3)
N4 N 0.2308(4) 0.0252(3) 0.0212(3)
O1 O 0.4945(3) 0.8101(2) 0.5467(2)
O2 O 0.2194(3) 0.6971(3) 0.5041(2)
O3 O 0.3989(4) 0.5152(3) 0.8012(2)
O4 O 0.1591(3) 0.4413(2) 0.6393(2)
O5 O 0.2003(4) -0.0915(3) -0.6461(2)
H1 H 0.1561 -0.1498 -0.6046
H2 H 0.2079 -0.1328 -0.7062
C1 C 0.2332(4) 0.1074(3) -0.0687(3)
C2 C 0.1583(4) 0.1911(4) 0.0932(3)
C3 C 0.1142(4) 0.2628(4) 0.1833(3)
C4 C 0.3160(5) 0.5075(4) 0.6879(3)
C5 C 0.0587(5) 0.4567(4) 0.2595(3)
H3 H 0.0465 0.5443 0.2488
C6 C 0.2859(4) 0.0777(4) -0.1751(3)
C7 C 0.3695(4) 0.7035(3) 0.5457(3)
C8 C 0.0909(4) 0.1994(4) 0.2894(3)
H4 H 0.1014 0.1115 0.3023
C9 C 0.3683(4) -0.0166(4) -0.1659(3)
H5 H 0.3844 -0.0660 -0.0960
C10 C 0.0964(5) 0.3941(4) 0.1691(3)
H6 H 0.1099 0.4392 0.0993
C11 C 0.4270(4) -0.0374(4) -0.2616(3)
H7 H 0.4836 -0.1007 -0.2541
C12 C 0.0526(4) 0.2683(4) 0.3739(3)
H8 H 0.0349 0.2241 0.4433
C13 C 0.4105(4) 0.5773(4) 0.5993(3)
H9 H 0.5305 0.6079 0.6457
H10 H 0.3844 0.5068 0.5292
C14 C 0.2597(5) 0.1464(4) -0.2827(3)
H11 H 0.2022 0.2093 -0.2926
C15 C 0.3204(5) 0.1193(4) -0.3741(3)
H12 H 0.3018 0.1649 -0.4463
Cu2_2 Cu 0.5000 1.0000 0.5000
Cu2_3 Cu -0.5000 1.0000 1.5000
Cu2_4 Cu -0.5000 0.0000 0.5000
S1A S -0.18147(13) 0.74858(10) 1.04539(9)
N1A N -0.4054(4) 0.9697(3) 1.3646(3)
N1A_2 N 0.5946(4) -0.0303(3) -0.6354(3)
N2A N -0.0390(3) 0.6037(3) 0.6378(2)
N3A N -0.1873(4) 0.9269(3) 0.8864(3)
N4A N -0.2308(4) 0.9748(3) 0.9788(3)
O1A O -0.4945(3) 0.1899(2) 0.4533(2)
O1_2 O 0.4945(3) -0.1899(2) -0.4533(2)
O1A_2 O 0.5055(3) 0.1899(2) -0.5467(2)
O2A O -0.2194(3) 0.3029(3) 0.4959(2)
O3A O -0.3989(4) 0.4848(3) 0.1988(2)
O4A O -0.1591(3) 0.5587(2) 0.3607(2)
O5A O 0.7997(4) 0.0915(3) -0.3539(2)
H1A H 0.8439 0.1498 -0.3954
H2A H 0.7921 0.1328 -0.2938
C1A C -0.2332(4) 0.8926(3) 1.0687(3)
C2A C -0.1583(4) 0.8089(4) 0.9068(3)
C3A C -0.1142(4) 0.7372(4) 0.8167(3)
C4A C -0.3160(5) 0.4925(4) 0.3121(3)
C5A C -0.0587(5) 0.5433(4) 0.7405(3)
H3A H -0.0465 0.4557 0.7512
C6A C -0.2859(4) 0.9223(4) 1.1751(3)
C7A C -0.3695(4) 0.2965(3) 0.4543(3)
C8A C -0.0909(4) 0.8006(4) 0.7106(3)
H4A H -0.1014 0.8885 0.6977
C9A C -0.3683(4) 1.0166(4) 1.1659(3)
H5A H -0.3844 1.0660 1.0960
C10A C -0.0964(5) 0.6059(4) 0.8309(3)
H6A H -0.1099 0.5608 0.9007
C11A C -0.4270(4) 1.0374(4) 1.2616(3)
H7A H -0.4836 1.1007 1.2541
C12A C -0.0526(4) 0.7317(4) 0.6261(3)
H8A H -0.0349 0.7759 0.5567
C13A C -0.4105(4) 0.4227(4) 0.4007(3)
H9A H -0.5305 0.3921 0.3543
H10A H -0.3844 0.4932 0.4708
C14A C -0.2597(5) 0.8536(4) 1.2827(3)
H11A H -0.2022 0.7907 1.2926
C15A C -0.3204(5) 0.8807(4) 1.3741(3)
H12A H -0.3018 0.8351 1.4463
O6 O 0.3808(4) 0.6102(3) 0.0346(3)
H13 H 0.3812 0.5839 -0.0359
H14 H 0.4387 0.5758 0.0895
O7 O 0.2089(4) 0.7521(3) 0.1213(3)
H15 H 0.2632 0.7228 0.0876
H16 H 0.1878 0.8190 0.0859
loop_
_geom_bond_atom_site_label_1
_geom_bond_atom_site_label_2
_geom_bond_site_symmetry_1
_geom_bond_site_symmetry_2
Cu1 N2 1_555 1_555
Cu2 N1 1_555 1_555
S1 C1 1_555 1_555
N1 C11 1_555 1_555
N2 C5 1_555 1_555
N3 N4 1_555 1_555
N4 C1 1_555 1_555
O1 C7 1_555 1_555
O2 Cu1 1_555 1_555
O3 C4 1_555 1_555
O4 Cu1 1_555 1_555
O5 Cu2 1_555 1_555
H1 O5 1_555 1_555
H2 O5 1_555 1_555
C1 C6 1_555 1_555
C2 S1 1_555 1_555
C3 C2 1_555 1_555
C4 O4 1_555 1_555
C5 H3 1_555 1_555
C6 C9 1_555 1_555
C7 O2 1_555 1_555
C8 C3 1_555 1_555
H4 C8 1_555 1_555
C9 H5 1_555 1_555
C10 C3 1_555 1_555
H6 C10 1_555 1_555
C11 C9 1_555 1_555
H7 C11 1_555 1_555
C12 N2 1_555 1_555
H8 C12 1_555 1_555
C13 C4 1_555 1_555
H9 C13 1_555 1_555
H10 C13 1_555 1_555
C14 C6 1_555 1_555
H11 C14 1_555 1_555
C15 N1 1_555 1_555
H12 C15 1_555 1_555
O6 H13 1_555 1_555
H14 O6 1_555 1_555
O7 H15 1_555 1_555
H16 O7 1_555 1_555
Cu2_2 O1 1_555 1_555
Cu2_3 N1A 1_555 1_555
Cu2_4 O1A 1_555 1_555
S1A C1A 1_555 1_555
N1A C11A 1_555 1_555
N1A_2 Cu2 1_555 1_555
N2A Cu1 1_555 1_555
N3A N4A 1_555 1_555
N4A C1A 1_555 1_555
O1A C7A 1_555 1_555
O1_2 Cu2 1_555 1_555
O1A_2 Cu2 1_555 1_555
O2A Cu1 1_555 1_555
O3A C4A 1_555 1_555
O4A Cu1 1_555 1_555
O5A Cu2 1_555 1_555
H1A O5A 1_555 1_555
H2A O5A 1_555 1_555
C1A C6A 1_555 1_555
C2A S1A 1_555 1_555
C3A C2A 1_555 1_555
C4A O4A 1_555 1_555
C5A N2A 1_555 1_555
H3A C5A 1_555 1_555
C6A C9A 1_555 1_555
C7A O2A 1_555 1_555
C8A C3A 1_555 1_555
H4A C8A 1_555 1_555
C9A H5A 1_555 1_555
C10A C3A 1_555 1_555
H6A C10A 1_555 1_555
C11A C9A 1_555 1_555
H7A C11A 1_555 1_555
C12A N2A 1_555 1_555
H8A C12A 1_555 1_555
C13A C4A 1_555 1_555
H9A C13A 1_555 1_555
H10A C13A 1_555 1_555
C14A C6A 1_555 1_555
H11A C14A 1_555 1_555
C15A N1A 1_555 1_555
H12A C15A 1_555 1_555
N3 C2 1_555 1_555
C5 C10 1_555 1_555
C7 C13 1_555 1_555
C8 C12 1_555 1_555
C14 C15 1_555 1_555
N3A C2A 1_555 1_555
C5A C10A 1_555 1_555
C7A C13A 1_555 1_555
C8A C12A 1_555 1_555
C14A C15A 1_555 1_555

#END
