
#######################################################################
#
#                 Cambridge Crystallographic Data Centre
#                                CCDC 
#
#######################################################################
#
# If this CIF has been generated from an entry in the Cambridge 
# Structural Database, then it will include bibliographic, chemical, 
# crystal, experimental, refinement or atomic coordinate data resulting 
# from the CCDC's data processing and validation procedures.
#
#######################################################################

data_NUXYUC
_symmetry_cell_setting           triclinic
_symmetry_space_group_name_H-M   'P -1'
_symmetry_Int_Tables_number      2
_space_group_name_Hall           '-P 1'
loop_
_symmetry_equiv_pos_site_id
_symmetry_equiv_pos_as_xyz
1 x,y,z
2 -x,-y,-z
_cell_length_a                   6.0000(12)
_cell_length_b                   7.0000(14)
_cell_length_c                   17.422(3)
_cell_angle_alpha                96.72(3)
_cell_angle_beta                 96.87(3)
_cell_angle_gamma                96.00(3)
_cell_volume                     716.248
loop_
_atom_site_label
_atom_site_type_symbol
_atom_site_fract_x
_atom_site_fract_y
_atom_site_fract_z
C1 C 0.3062(3) 0.2175(2) 0.20999(10)
C2 C 0.1981(3) 0.3413(2) 0.25477(10)
H1 H 0.0443 0.3550 0.2386
C3 C 0.3081(3) 0.4476(2) 0.32346(10)
H2 H 0.2292 0.5335 0.3534
C4 C 0.5280(3) 0.4302(2) 0.34854(10)
C5 C 0.6326(3) 0.2999(3) 0.30515(10)
H3 H 0.7837 0.2808 0.3228
C6 C 0.5237(3) 0.1950(2) 0.23598(10)
H4 H 0.6013 0.1070 0.2066
C7 C 0.6515(3) 0.5566(2) 0.41855(10)
C8 C 0.5887(3) 0.5603(2) 0.49014(10)
H5 H 0.6721 0.6525 0.5304
C9 C 0.8402(3) 0.6850(2) 0.40447(11)
C10 C 1.0210(3) 0.7495(3) 0.46230(11)
H6 H 1.0230 0.7053 0.5119
C11 C 1.1927(3) 0.8736(3) 0.44874(13)
H7 H 1.3160 0.9180 0.4885
C12 C 1.1889(4) 0.9351(3) 0.37811(14)
H8 H 1.3102 1.0237 0.3684
C13 C 1.0130(4) 0.8718(3) 0.32043(14)
H9 H 1.0134 0.9163 0.2710
C14 C 0.8401(3) 0.7478(3) 0.33293(12)
H10 H 0.7183 0.7036 0.2926
C15 C 0.3082(3) 0.2439(2) -0.06165(10)
H11 H 0.3902 0.1354 -0.0584
C16 C 0.6120(3) 0.3867(3) -0.11785(13)
H12 H 0.5922 0.3902 -0.1743
H13 H 0.6793 0.2698 -0.1064
H14 H 0.7118 0.5016 -0.0919
C17 C 0.2742(3) 0.5407(3) -0.09783(13)
H15 H 0.1558 0.5371 -0.0636
H16 H 0.2046 0.5335 -0.1521
H17 H 0.3760 0.6617 -0.0833
C18 C 0.1908(3) 0.1238(2) 0.13162(10)
Co1 Co 0.0000 0.0000 0.0000
N1 N 0.3960(3) 0.3843(2) -0.09001(9)
O1 O 0.29629(19) 0.03438(16) 0.08390(7)
O2 O 0.1238(2) 0.23547(17) -0.03765(7)
O3 O -0.01109(19) 0.14202(16) 0.11291(7)
C1A C 0.6938(3) 0.7825(2) 0.79001(10)
C2A C 0.8019(3) 0.6587(2) 0.74523(10)
H1A H 0.9557 0.6450 0.7614
C3A C 0.6919(3) 0.5524(2) 0.67654(10)
H2A H 0.7708 0.4665 0.6466
C4A C 0.4720(3) 0.5698(2) 0.65146(10)
C5A C 0.3674(3) 0.7001(3) 0.69485(10)
H3A H 0.2163 0.7192 0.6772
C6A C 0.4763(3) 0.8050(2) 0.76402(10)
H4A H 0.3987 0.8930 0.7934
C7A C 0.3485(3) 0.4434(2) 0.58145(10)
C8A C 0.4113(3) 0.4397(2) 0.50986(10)
H5A H 0.3279 0.3475 0.4696
C9A C 0.1598(3) 0.3150(2) 0.59553(11)
C10A C -0.0210(3) 0.2505(3) 0.53770(11)
H6A H -0.0230 0.2947 0.4881
C11A C -0.1927(3) 0.1264(3) 0.55126(13)
H7A H -0.3160 0.0820 0.5115
C12A C -0.1889(4) 0.0649(3) 0.62189(14)
H8A H -0.3102 -0.0237 0.6316
C13A C -0.0130(4) 0.1282(3) 0.67957(14)
H9A H -0.0134 0.0837 0.7290
C14A C 0.1599(3) 0.2522(3) 0.66707(12)
H10A H 0.2817 0.2964 0.7074
C18A C 0.8092(3) 0.8762(2) 0.86838(10)
O1A O 0.70371(19) 0.96562(16) 0.91610(7)
O3A O 1.01109(19) 0.85798(16) 0.88709(7)
C15A C -0.3082(3) -0.2439(2) 0.06165(10)
H11A H -0.3902 -0.1354 0.0584
C16A C -0.6120(3) -0.3867(3) 0.11785(13)
H12A H -0.5922 -0.3902 0.1743
H13A H -0.6793 -0.2698 0.1064
H14A H -0.7118 -0.5016 0.0919
C17A C -0.2742(3) -0.5407(3) 0.09783(13)
H15A H -0.1558 -0.5371 0.0636
H16A H -0.2046 -0.5335 0.1521
H17A H -0.3760 -0.6617 0.0833
N1A N -0.3960(3) -0.3843(2) 0.09001(9)
O2A O -0.1238(2) -0.23547(17) 0.03765(7)
Co1_2 Co 1.0000 1.0000 1.0000
O1A_2 O -0.29629(19) -0.03438(16) -0.08390(7)
O3A_2 O 0.01109(19) -0.14202(16) -0.11291(7)
loop_
_geom_bond_atom_site_label_1
_geom_bond_atom_site_label_2
_geom_bond_site_symmetry_1
_geom_bond_site_symmetry_2
C1 C2 1_555 1_555
C2 H1 1_555 1_555
C3 C2 1_555 1_555
H2 C3 1_555 1_555
C4 C3 1_555 1_555
C5 C4 1_555 1_555
H3 C5 1_555 1_555
C6 C1 1_555 1_555
H4 C6 1_555 1_555
C7 C4 1_555 1_555
C8 C7 1_555 1_555
H5 C8 1_555 1_555
C9 C7 1_555 1_555
C10 C9 1_555 1_555
H6 C10 1_555 1_555
C11 C10 1_555 1_555
H7 C11 1_555 1_555
C12 C11 1_555 1_555
H8 C12 1_555 1_555
C13 C12 1_555 1_555
H9 C13 1_555 1_555
C14 C9 1_555 1_555
H10 C14 1_555 1_555
C15 H11 1_555 1_555
C16 H12 1_555 1_555
H13 C16 1_555 1_555
H14 C16 1_555 1_555
C17 H15 1_555 1_555
H16 C17 1_555 1_555
H17 C17 1_555 1_555
C18 C1 1_555 1_555
Co1 O1 1_555 1_555
N1 C15 1_555 1_555
O1 C18 1_555 1_555
O2 C15 1_555 1_555
O3 C18 1_555 1_555
C1A C2A 1_555 1_555
C2A H1A 1_555 1_555
C3A C2A 1_555 1_555
H2A C3A 1_555 1_555
C4A C3A 1_555 1_555
C5A C4A 1_555 1_555
H3A C5A 1_555 1_555
C6A C1A 1_555 1_555
H4A C6A 1_555 1_555
C7A C4A 1_555 1_555
C8A C8 1_555 1_555
H5A C8A 1_555 1_555
C9A C7A 1_555 1_555
C10A C9A 1_555 1_555
H6A C10A 1_555 1_555
C11A C10A 1_555 1_555
H7A C11A 1_555 1_555
C12A C11A 1_555 1_555
H8A C12A 1_555 1_555
C13A C12A 1_555 1_555
H9A C13A 1_555 1_555
C14A C9A 1_555 1_555
H10A C14A 1_555 1_555
C18A C1A 1_555 1_555
O1A C18A 1_555 1_555
O3A C18A 1_555 1_555
C15A H11A 1_555 1_555
C16A H12A 1_555 1_555
H13A C16A 1_555 1_555
H14A C16A 1_555 1_555
C17A H15A 1_555 1_555
H16A C17A 1_555 1_555
H17A C17A 1_555 1_555
N1A C15A 1_555 1_555
O2A Co1 1_555 1_555
Co1_2 O1A 1_555 1_555
O1A_2 Co1 1_555 1_555
O3A_2 Co1 1_555 1_555
C5 C6 1_555 1_555
C13 C14 1_555 1_555
C16 N1 1_555 1_555
C17 N1 1_555 1_555
Co1 O2 1_555 1_555
Co1 O3 1_555 1_555
C5A C6A 1_555 1_555
C7A C8A 1_555 1_555
C13A C14A 1_555 1_555
O3A Co1_2 1_555 1_555
C15A O2A 1_555 1_555
C16A N1A 1_555 1_555
C17A N1A 1_555 1_555

#END
