
#######################################################################
#
#                 Cambridge Crystallographic Data Centre
#                                CCDC 
#
#######################################################################
#
# If this CIF has been generated from an entry in the Cambridge 
# Structural Database, then it will include bibliographic, chemical, 
# crystal, experimental, refinement or atomic coordinate data resulting 
# from the CCDC's data processing and validation procedures.
#
#######################################################################

data_NUXYOW
_symmetry_cell_setting           triclinic
_symmetry_space_group_name_H-M   'P -1'
_symmetry_Int_Tables_number      2
_space_group_name_Hall           '-P 1'
loop_
_symmetry_equiv_pos_site_id
_symmetry_equiv_pos_as_xyz
1 x,y,z
2 -x,-y,-z
_cell_length_a                   6.0000(12)
_cell_length_b                   7.0000(14)
_cell_length_c                   17.544(3)
_cell_angle_alpha                97.67(3)
_cell_angle_beta                 96.82(3)
_cell_angle_gamma                96.00(3)
_cell_volume                     719.643
loop_
_atom_site_label
_atom_site_type_symbol
_atom_site_fract_x
_atom_site_fract_y
_atom_site_fract_z
C1 C 0.8074(3) 0.9483(3) 0.32264(11)
H1 H 0.7289 1.0348 0.3528
C2 C 1.1311(3) 0.7999(3) 0.30402(11)
H2 H 1.2820 0.7804 0.3214
C3 C 1.0212(3) 0.6947(3) 0.23454(11)
H3 H 1.0982 0.6056 0.2050
C4 C 0.8037(3) 0.7181(2) 0.20841(10)
C5 C 0.6970(3) 0.8424(3) 0.25384(11)
H4 H 0.5434 0.8566 0.2379
C6 C 0.6871(3) 0.6246(2) 0.13006(11)
C7 C 1.5220(3) 1.2503(3) 0.46219(12)
H5 H 1.5237 1.2069 0.5113
C8 C 1.6941(4) 1.3745(3) 0.44877(14)
H6 H 1.8177 1.4198 0.4884
C9 C 1.6906(4) 1.4356(3) 0.37781(15)
H7 H 1.8127 1.5237 0.3686
C10 C 1.5144(4) 1.3722(3) 0.31977(15)
H8 H 1.5146 1.4162 0.2708
C11 C 1.3416(4) 1.2475(3) 0.33239(12)
H9 H 1.2197 1.2021 0.2922
C12 C 1.3411(3) 1.1852(3) 0.40402(11)
C13 C 1.1518(3) 1.0568(3) 0.41807(11)
C14 C 1.0275(3) 0.9304(3) 0.34778(10)
C15 C 1.0889(3) 1.0602(3) 0.49018(11)
H10 H 1.1734 1.1525 0.5306
C16 C -0.1101(3) 0.1166(3) 0.11661(13)
H11 H -0.1765 0.2339 0.1059
H12 H -0.0915 0.1128 0.1726
H13 H -0.2100 0.0016 0.0898
C17 C 0.2282(4) -0.0375(3) 0.09749(13)
H14 H 0.3488 -0.0346 0.0644
H15 H 0.1263 -0.1590 0.0820
H16 H 0.2947 -0.0294 0.1518
C18 C 0.1978(3) 0.2589(3) 0.06084(11)
H17 H 0.1160 0.3671 0.0572
N1 N 0.1075(3) 0.1188(2) 0.08939(10)
Ni1 Ni 0.5000 0.5000 0.0000
O1 O 0.3832(2) 0.26661(18) 0.03736(8)
O2 O 0.4857(2) 0.64331(17) 0.11106(7)
O3 O 0.7914(2) 0.53336(17) 0.08188(7)
C1A C 1.1926(3) 1.0517(3) 0.67736(11)
H1A H 1.2711 0.9652 0.6472
C2A C 0.8689(3) 1.2001(3) 0.69598(11)
H2A H 0.7180 1.2196 0.6786
C3A C 0.9788(3) 1.3053(3) 0.76546(11)
H3A H 0.9018 1.3944 0.7950
C4A C 1.1963(3) 1.2819(2) 0.79159(10)
C5A C 1.3030(3) 1.1576(3) 0.74616(11)
H4A H 1.4566 1.1434 0.7621
C6A C 1.3129(3) 1.3754(2) 0.86994(11)
C7A C 0.4780(3) 0.7497(3) 0.53781(12)
H5A H 0.4763 0.7931 0.4887
C8A C 0.3059(4) 0.6255(3) 0.55123(14)
H6A H 0.1823 0.5802 0.5116
C9A C 0.3094(4) 0.5644(3) 0.62219(15)
H7A H 0.1873 0.4763 0.6314
C10A C 0.4856(4) 0.6278(3) 0.68023(15)
H8A H 0.4854 0.5838 0.7292
C11A C 0.6584(4) 0.7525(3) 0.66761(12)
H9A H 0.7803 0.7979 0.7078
C12A C 0.6589(3) 0.8148(3) 0.59598(11)
C13A C 0.8482(3) 0.9432(3) 0.58193(11)
C14A C 0.9725(3) 1.0696(3) 0.65222(10)
C15A C 0.9111(3) 0.9398(3) 0.50982(11)
H10A H 0.8266 0.8475 0.4694
O2A O 1.5143(2) 1.35669(17) 0.88894(7)
O3A O 1.2086(2) 1.46664(17) 0.91812(7)
C16A C 1.1101(3) 0.8834(3) -0.11661(13)
H11A H 1.1765 0.7661 -0.1059
H12A H 1.0915 0.8872 -0.1726
H13A H 1.2100 0.9984 -0.0898
C17A C 0.7718(4) 1.0375(3) -0.09749(13)
H14A H 0.6512 1.0346 -0.0644
H15A H 0.8737 1.1590 -0.0820
H16A H 0.7053 1.0294 -0.1518
C18A C 0.8022(3) 0.7411(3) -0.06084(11)
H17A H 0.8840 0.6329 -0.0572
N1A N 0.8925(3) 0.8812(2) -0.08939(10)
O1A O 0.6168(2) 0.73339(18) -0.03736(8)
Ni1_2 Ni 1.5000 1.5000 1.0000
O2A_2 O 0.5143(2) 0.35669(17) -0.11106(7)
O3A_2 O 0.2086(2) 0.46664(17) -0.08188(7)
loop_
_geom_bond_atom_site_label_1
_geom_bond_atom_site_label_2
_geom_bond_site_symmetry_1
_geom_bond_site_symmetry_2
C1 H1 1_555 1_555
C2 H2 1_555 1_555
C3 C2 1_555 1_555
H3 C3 1_555 1_555
C4 C3 1_555 1_555
C5 C1 1_555 1_555
H4 C5 1_555 1_555
C6 C4 1_555 1_555
C7 H5 1_555 1_555
C8 C7 1_555 1_555
H6 C8 1_555 1_555
C9 C8 1_555 1_555
H7 C9 1_555 1_555
C10 C9 1_555 1_555
H8 C10 1_555 1_555
C11 C10 1_555 1_555
H9 C11 1_555 1_555
C12 C7 1_555 1_555
C13 C12 1_555 1_555
C14 C1 1_555 1_555
C15 C13 1_555 1_555
H10 C15 1_555 1_555
C16 H11 1_555 1_555
H12 C16 1_555 1_555
H13 C16 1_555 1_555
C17 H14 1_555 1_555
H15 C17 1_555 1_555
H16 C17 1_555 1_555
C18 H17 1_555 1_555
N1 C16 1_555 1_555
Ni1 O1 1_555 1_555
O1 C18 1_555 1_555
O2 C6 1_555 1_555
O3 C6 1_555 1_555
C1A H1A 1_555 1_555
C2A H2A 1_555 1_555
C3A C2A 1_555 1_555
H3A C3A 1_555 1_555
C4A C3A 1_555 1_555
C5A C1A 1_555 1_555
H4A C5A 1_555 1_555
C6A C4A 1_555 1_555
C7A H5A 1_555 1_555
C8A C7A 1_555 1_555
H6A C8A 1_555 1_555
C9A C8A 1_555 1_555
H7A C9A 1_555 1_555
C10A C9A 1_555 1_555
H8A C10A 1_555 1_555
C11A C10A 1_555 1_555
H9A C11A 1_555 1_555
C12A C7A 1_555 1_555
C13A C12A 1_555 1_555
C14A C1A 1_555 1_555
C15A C15 1_555 1_555
H10A C15A 1_555 1_555
O2A C6A 1_555 1_555
O3A C6A 1_555 1_555
C16A H11A 1_555 1_555
H12A C16A 1_555 1_555
H13A C16A 1_555 1_555
C17A H14A 1_555 1_555
H15A C17A 1_555 1_555
H16A C17A 1_555 1_555
C18A H17A 1_555 1_555
N1A C16A 1_555 1_555
O1A Ni1 1_555 1_555
Ni1_2 O2A 1_555 1_555
O2A_2 Ni1 1_555 1_555
O3A_2 Ni1 1_555 1_555
C2 C14 1_555 1_555
C4 C5 1_555 1_555
C11 C12 1_555 1_555
C13 C14 1_555 1_555
C17 N1 1_555 1_555
C18 N1 1_555 1_555
Ni1 O2 1_555 1_555
Ni1 O3 1_555 1_555
C2A C14A 1_555 1_555
C4A C5A 1_555 1_555
C11A C12A 1_555 1_555
C13A C14A 1_555 1_555
C13A C15A 1_555 1_555
O3A Ni1_2 1_555 1_555
C17A N1A 1_555 1_555
C18A N1A 1_555 1_555
C18A O1A 1_555 1_555

#END
