
#######################################################################
#
#                 Cambridge Crystallographic Data Centre
#                                CCDC 
#
#######################################################################
#
# If this CIF has been generated from an entry in the Cambridge 
# Structural Database, then it will include bibliographic, chemical, 
# crystal, experimental, refinement or atomic coordinate data resulting 
# from the CCDC's data processing and validation procedures.
#
#######################################################################

data_NUXZUC
_symmetry_cell_setting           monoclinic
_symmetry_space_group_name_H-M   'P 21/c'
_symmetry_Int_Tables_number      14
_space_group_name_Hall           '-P 2ybc'
loop_
_symmetry_equiv_pos_site_id
_symmetry_equiv_pos_as_xyz
1 x,y,z
2 -x,1/2+y,1/2-z
3 -x,-y,-z
4 x,1/2-y,1/2+z
_cell_length_a                   10.5795(7)
_cell_length_b                   11.5813(8)
_cell_length_c                   13.6314(9)
_cell_angle_alpha                90
_cell_angle_beta                 105.9360(10)
_cell_angle_gamma                90
_cell_volume                     1605.99
loop_
_atom_site_label
_atom_site_type_symbol
_atom_site_fract_x
_atom_site_fract_y
_atom_site_fract_z
Cd1 Cd 0.431287(13) 0.560688(11) 0.102740(10)
S1 S -0.12771(5) 0.09149(5) 0.04896(4)
N1 N 0.28739(16) 0.39603(15) 0.09780(13)
N2 N -0.42730(16) -0.27520(15) 0.10475(13)
N3 N 0.0624(2) 0.06078(14) 0.20817(16)
N4 N -0.02973(18) -0.01976(17) 0.21377(14)
O1 O 0.37497(14) 0.65189(13) 0.24116(11)
O2 O 0.24901(15) 0.67901(13) 0.08498(11)
O3 O 0.38703(16) 0.94500(12) 0.26025(12)
O4 O 0.40897(15) 0.94435(11) 0.42510(11)
C1 C 0.1568(2) 0.40882(19) 0.06248(18)
H1 H 0.1244 0.4798 0.0347
C2 C 0.0674(2) 0.32217(18) 0.06503(16)
H2 H -0.0224 0.3345 0.0386
C3 C 0.11471(19) 0.21668(17) 0.10790(14)
C4 C 0.25022(19) 0.20042(18) 0.14073(15)
H3 H 0.2852 0.1294 0.1664
C5 C 0.3318(2) 0.29185(17) 0.13442(15)
H4 H 0.4222 0.2804 0.1568
C6 C 0.02656(19) 0.12460(17) 0.12628(16)
C7 C -0.13428(19) -0.01414(17) 0.13630(15)
C8 C -0.4610(2) -0.16406(18) 0.10007(17)
H5 H -0.5491 -0.1459 0.0909
C9 C -0.3727(2) -0.07380(17) 0.10797(19)
H6 H -0.4011 0.0025 0.1028
C10 C -0.24109(19) -0.10061(17) 0.12384(15)
C11 C -0.2045(2) -0.21605(17) 0.13014(15)
H7 H -0.1168 -0.2367 0.1412
C12 C -0.2995(2) -0.29918(17) 0.11988(15)
H8 H -0.2739 -0.3762 0.1236
C13 C 0.27734(19) 0.69744(17) 0.17981(15)
C14 C 0.1867(2) 0.77381(19) 0.21895(16)
H9 H 0.1087 0.7297 0.2189
H10 H 0.1592 0.8375 0.1717
C15 C 0.2438(2) 0.82292(18) 0.32459(15)
H11 H 0.1735 0.8596 0.3463
H12 H 0.2768 0.7596 0.3711
C16 C 0.35247(19) 0.90896(17) 0.33404(15)
Cd1_2 Cd -0.568713(13) -0.439312(11) 0.102740(10)
Cd1A Cd 0.568713(13) 1.060688(11) 0.397260(10)
Cd1C Cd 0.431287(13) 0.939312(11) 0.602740(10)
N2_2 N 0.57270(16) 0.72480(15) 0.10475(13)
O3A O 0.61297(16) 0.44500(12) 0.23975(12)
O4A O 0.59103(15) 0.44435(11) 0.07490(11)
O4C O 0.40897(15) 0.55565(11) -0.07490(11)
loop_
_geom_bond_atom_site_label_1
_geom_bond_atom_site_label_2
_geom_bond_site_symmetry_1
_geom_bond_site_symmetry_2
Cd1 N1 1_555 1_555
S1 C6 1_555 1_555
N1 C1 1_555 1_555
N2 C8 1_555 1_555
N3 N4 1_555 1_555
N4 C7 1_555 1_555
O1 Cd1 1_555 1_555
O2 Cd1 1_555 1_555
O3 C16 1_555 1_555
O4 C16 1_555 1_555
C1 H1 1_555 1_555
C2 C1 1_555 1_555
H2 C2 1_555 1_555
C3 C2 1_555 1_555
C4 C3 1_555 1_555
H3 C4 1_555 1_555
C5 N1 1_555 1_555
H4 C5 1_555 1_555
C6 N3 1_555 1_555
C7 S1 1_555 1_555
C8 H5 1_555 1_555
C9 C8 1_555 1_555
H6 C9 1_555 1_555
C10 C7 1_555 1_555
C11 C10 1_555 1_555
H7 C11 1_555 1_555
C12 N2 1_555 1_555
H8 C12 1_555 1_555
C13 O1 1_555 1_555
C14 C13 1_555 1_555
H9 C14 1_555 1_555
H10 C14 1_555 1_555
C15 C14 1_555 1_555
H11 C15 1_555 1_555
H12 C15 1_555 1_555
C16 C15 1_555 1_555
Cd1_2 N2 1_555 1_555
Cd1A O3 1_555 1_555
Cd1C O4 1_555 1_555
N2_2 Cd1 1_555 1_555
O3A Cd1 1_555 1_555
O4A Cd1 1_555 1_555
O4C Cd1 1_555 1_555
O2 C13 1_555 1_555
O4 Cd1A 1_555 1_555
C3 C6 1_555 1_555
C4 C5 1_555 1_555
C9 C10 1_555 1_555
C11 C12 1_555 1_555

#END
