
#######################################################################
#
#                 Cambridge Crystallographic Data Centre
#                                CCDC 
#
#######################################################################
#
# If this CIF has been generated from an entry in the Cambridge 
# Structural Database, then it will include bibliographic, chemical, 
# crystal, experimental, refinement or atomic coordinate data resulting 
# from the CCDC's data processing and validation procedures.
#
#######################################################################

data_NUXZIQ
_symmetry_cell_setting           orthorhombic
_symmetry_space_group_name_H-M   'P c c a'
_symmetry_Int_Tables_number      54
_space_group_name_Hall           '-P 2a 2ac'
loop_
_symmetry_equiv_pos_site_id
_symmetry_equiv_pos_as_xyz
1 x,y,z
2 1/2-x,-y,z
3 -x,y,1/2-z
4 1/2+x,-y,1/2-z
5 -x,-y,-z
6 1/2+x,y,-z
7 x,-y,1/2+z
8 1/2-x,y,1/2+z
_cell_length_a                   15.945(4)
_cell_length_b                   14.811(4)
_cell_length_c                   15.159(4)
_cell_angle_alpha                90
_cell_angle_beta                 90
_cell_angle_gamma                90
_cell_volume                     3579.97
loop_
_atom_site_label
_atom_site_type_symbol
_atom_site_fract_x
_atom_site_fract_y
_atom_site_fract_z
Cu1 Cu 0.43780(3) 1.17295(4) 0.37258(4)
S1 S 0.47151(8) 0.67317(9) 0.37732(10)
N1 N 0.4360(2) 1.0374(2) 0.3596(2)
N2 N 0.3498(3) 0.7188(3) 0.2781(3)
N3 N 0.3506(3) 0.6267(3) 0.2782(3)
N4 N 0.4344(2) 0.3084(2) 0.3605(2)
O1 O 0.55484(17) 1.1738(2) 0.4107(2)
O2 O 0.60742(19) 1.1734(2) 0.2756(2)
O3 O 0.81856(18) 1.1671(2) 0.5911(2)
O4 O 0.8633(2) 1.2242(3) 0.4643(2)
C1 C 0.4961(3) 0.9809(3) 0.3842(3)
H1 H 0.5445 1.0052 0.4087
C2 C 0.4913(3) 0.8891(3) 0.3758(3)
H2 H 0.5347 0.8525 0.3960
C3 C 0.4208(3) 0.8513(3) 0.3366(3)
C4 C 0.3583(3) 0.9094(3) 0.3093(3)
H3 H 0.3099 0.8873 0.2829
C5 C 0.3689(3) 0.9998(3) 0.3216(3)
H4 H 0.3265 1.0381 0.3022
C6 C 0.4097(3) 0.7522(3) 0.3264(3)
C7 C 0.4095(3) 0.5929(3) 0.3284(3)
C8 C 0.4202(3) 0.4948(3) 0.3411(3)
C9 C 0.4896(3) 0.4568(3) 0.3794(3)
H5 H 0.5329 0.4931 0.4000
C10 C 0.4945(3) 0.3650(3) 0.3872(3)
H6 H 0.5425 0.3405 0.4125
C11 C 0.3667(3) 0.3455(3) 0.3236(3)
H7 H 0.3237 0.3078 0.3047
C12 C 0.3580(3) 0.4360(3) 0.3125(4)
H8 H 0.3101 0.4587 0.2855
C13 C 0.6141(3) 1.1779(3) 0.3565(3)
C14 C 0.7005(3) 1.1907(3) 0.3923(3)
H9 H 0.7427 1.2067 0.3530
C15 C 0.7206(3) 1.1810(3) 0.4754(3)
H10 H 0.6780 1.1661 0.5148
C16 C 0.8082(3) 1.1922(3) 0.5121(4)
Cu1_2 Cu 0.43780(3) 0.17295(4) 0.37258(4)
Cu1B Cu 0.56220(3) 1.17295(4) 0.12742(4)
Cu1E Cu 0.93780(3) 1.17295(4) 0.62742(4)
N4_2 N 0.4344(2) 1.3084(2) 0.3605(2)
O2B O 0.39258(19) 1.1734(2) 0.2244(2)
O3E O 0.31856(18) 1.1671(2) 0.4089(2)
O5 O 0.6704(4) 0.5733(6) 0.9873(5)
H11 H 0.6808 0.5189 0.9769
H12 H 0.7102 0.6036 0.9677
O6 O 0.6699(3) 0.4044(3) 0.9183(3)
H13 H 0.6648 0.3970 0.8663
H14 H 0.6607 0.3533 0.9323
loop_
_geom_bond_atom_site_label_1
_geom_bond_atom_site_label_2
_geom_bond_site_symmetry_1
_geom_bond_site_symmetry_2
Cu1 N1 1_555 1_555
S1 C6 1_555 1_555
N1 C1 1_555 1_555
N2 N3 1_555 1_555
N3 C7 1_555 1_555
N4 C10 1_555 1_555
O1 Cu1 1_555 1_555
O2 C13 1_555 1_555
O3 C16 1_555 1_555
O4 C16 1_555 1_555
C1 H1 1_555 1_555
C2 C1 1_555 1_555
H2 C2 1_555 1_555
C3 C2 1_555 1_555
C4 C3 1_555 1_555
H3 C4 1_555 1_555
C5 N1 1_555 1_555
H4 C5 1_555 1_555
C6 N2 1_555 1_555
C7 S1 1_555 1_555
C8 C7 1_555 1_555
C9 C8 1_555 1_555
H5 C9 1_555 1_555
C10 C9 1_555 1_555
H6 C10 1_555 1_555
C11 N4 1_555 1_555
H7 C11 1_555 1_555
C12 C8 1_555 1_555
H8 C12 1_555 1_555
C13 O1 1_555 1_555
C14 C13 1_555 1_555
H9 C14 1_555 1_555
C15 C14 1_555 1_555
H10 C15 1_555 1_555
C16 C15 1_555 1_555
O5 H11 1_555 1_555
H12 O5 1_555 1_555
O6 H13 1_555 1_555
H14 O6 1_555 1_555
Cu1_2 N4 1_555 1_555
Cu1B O2 1_555 1_555
Cu1E O3 1_555 1_555
N4_2 Cu1 1_555 1_555
O2B Cu1 1_555 1_555
O3E Cu1 1_555 1_555
C3 C6 1_555 1_555
C4 C5 1_555 1_555
C11 C12 1_555 1_555

#END
