
#######################################################################
#
#                 Cambridge Crystallographic Data Centre
#                                CCDC 
#
#######################################################################
#
# If this CIF has been generated from an entry in the Cambridge 
# Structural Database, then it will include bibliographic, chemical, 
# crystal, experimental, refinement or atomic coordinate data resulting 
# from the CCDC's data processing and validation procedures.
#
#######################################################################

data_NUYBIT
_symmetry_cell_setting           triclinic
_symmetry_space_group_name_H-M   'P -1'
_symmetry_Int_Tables_number      2
_space_group_name_Hall           '-P 1'
loop_
_symmetry_equiv_pos_site_id
_symmetry_equiv_pos_as_xyz
1 x,y,z
2 -x,-y,-z
_cell_length_a                   7.1079(15)
_cell_length_b                   7.6454(15)
_cell_length_c                   16.848(3)
_cell_angle_alpha                79.895(3)
_cell_angle_beta                 85.666(4)
_cell_angle_gamma                85.100(4)
_cell_volume                     896.355
loop_
_atom_site_label
_atom_site_type_symbol
_atom_site_fract_x
_atom_site_fract_y
_atom_site_fract_z
Cd1 Cd 0.65415(9) 0.01166(7) 0.58860(3)
S1 S -0.0542(3) 0.2531(3) 0.92811(13)
N1 N 0.4831(10) 0.0740(8) 0.7030(4)
N2 N 0.2592(12) 0.1756(13) 0.9860(5)
N3 N 0.1499(12) 0.2113(13) 1.0489(5)
N4 N -0.4647(13) 0.4017(10) 1.1944(5)
O1 O 0.8396(10) 0.2476(9) 0.6256(5)
O2 O 0.8583(8) 0.1902(8) 0.5015(4)
O3 O 0.5209(9) -0.2607(7) 0.6166(3)
O4 O 0.5887(8) -0.1790(7) 0.4856(3)
O5 O 0.9170(9) -0.1613(8) 0.6406(4)
H1 H 0.8762 -0.2527 0.6676
H2 H 0.9924 -0.1821 0.6037
C1 C 0.5621(12) 0.0656(12) 0.7723(5)
H5 H 0.6914 0.0341 0.7724
C2 C 0.4744(14) 0.0981(13) 0.8432(5)
H6 H 0.5405 0.0851 0.8897
C3 C 0.2793(13) 0.1524(10) 0.8439(5)
C4 C 0.1959(13) 0.1630(13) 0.7727(5)
H7 H 0.0671 0.1962 0.7711
C5 C 0.2908(14) 0.1279(13) 0.7052(5)
H8 H 0.2266 0.1397 0.6582
C6 C 0.1829(12) 0.1881(11) 0.9188(5)
C7 C -0.0275(13) 0.2571(11) 1.0285(5)
C8 C -0.1805(13) 0.3059(11) 1.0854(5)
C9 C -0.1420(15) 0.3254(13) 1.1624(5)
H9 H -0.0189 0.3078 1.1790
C10 C -0.2922(17) 0.3721(14) 1.2147(6)
H10 H -0.2664 0.3824 1.2669
C11 C -0.5010(17) 0.3824(14) 1.1203(6)
H11 H -0.6257 0.4038 1.1060
C12 C -0.3698(12) 0.3338(14) 1.0642(6)
H12 H -0.4035 0.3195 1.0136
C13 C 0.5342(12) -0.2909(10) 0.5462(5)
C14 C 0.4869(12) -0.4718(10) 0.5356(5)
H13 H 0.4374 -0.5480 0.5800
C15 C 0.8955(13) 0.2831(12) 0.5544(7)
C16 C 1.0046(15) 0.4457(14) 0.5299(7)
H14 H 1.0903 0.4640 0.5662
Cd1A Cd 1.34585(9) 0.98834(7) 0.41140(3)
Cd1A_2 Cd 0.34585(9) -0.01166(7) 0.41140(3)
Cd1A_3 Cd 0.34585(9) -1.01166(7) 0.41140(3)
Cd1_2 Cd 0.65415(9) -0.98834(7) 0.58860(3)
S1A S 2.0542(3) 0.7469(3) 0.07189(13)
N1A N 1.5169(10) 0.9260(8) 0.2970(4)
N2A N 1.7408(12) 0.8244(13) 0.0140(5)
N3A N 1.8501(12) 0.7887(13) -0.0489(5)
N4A N 2.4647(13) 0.5983(10) -0.1944(5)
O1A O 1.1604(10) 0.7524(9) 0.3744(5)
O2A O 1.1417(8) 0.8098(8) 0.4985(4)
O3A O 0.4791(9) -0.7393(7) 0.3834(3)
O3A_2 O 1.4791(9) 1.2607(7) 0.3834(3)
O4A O 0.4113(8) -0.8210(7) 0.5144(3)
O4A_2 O 0.4113(8) 0.1790(7) 0.5144(3)
O4A_3 O 1.4113(8) 1.1790(7) 0.5144(3)
O4_2 O 1.5887(8) 0.8210(7) 0.4856(3)
O5A O 1.0830(9) 1.1613(8) 0.3594(4)
H1A H 1.1238 1.2527 0.3324
H2A H 1.0076 1.1821 0.3963
C1A C 1.4379(12) 0.9344(12) 0.2277(5)
H5A H 1.3086 0.9659 0.2276
C2A C 1.5256(14) 0.9019(13) 0.1568(5)
H6A H 1.4595 0.9149 0.1103
C3A C 1.7207(13) 0.8476(10) 0.1561(5)
C4A C 1.8041(13) 0.8370(13) 0.2273(5)
H7A H 1.9329 0.8038 0.2289
C5A C 1.7092(14) 0.8721(13) 0.2948(5)
H8A H 1.7734 0.8603 0.3418
C6A C 1.8171(12) 0.8119(11) 0.0812(5)
C7A C 2.0275(13) 0.7429(11) -0.0285(5)
C8A C 2.1805(13) 0.6941(11) -0.0854(5)
C9A C 2.1420(15) 0.6746(13) -0.1624(5)
H9A H 2.0189 0.6922 -0.1790
C10A C 2.2922(17) 0.6279(14) -0.2147(6)
H10A H 2.2664 0.6176 -0.2669
C11A C 2.5010(17) 0.6176(14) -0.1203(6)
H11A H 2.6257 0.5962 -0.1060
C12A C 2.3698(12) 0.6662(14) -0.0642(6)
H12A H 2.4035 0.6805 -0.0136
C13A C 0.4658(12) -0.7091(10) 0.4538(5)
C14A C 0.5131(12) -0.5282(10) 0.4644(5)
H13A H 0.5626 -0.4520 0.4200
C15A C 1.1045(13) 0.7169(12) 0.4456(7)
C16A C 0.9954(15) 0.5543(14) 0.4701(7)
H14A H 0.9097 0.5360 0.4338
O6 O 0.8260(9) 0.5054(8) 0.7273(4)
H3 H 0.7594 0.4685 0.6966
H4 H 0.7550 0.5498 0.7604
loop_
_geom_bond_atom_site_label_1
_geom_bond_atom_site_label_2
_geom_bond_site_symmetry_1
_geom_bond_site_symmetry_2
Cd1 N1 1_555 1_555
S1 C6 1_555 1_555
N1 C1 1_555 1_555
N2 N3 1_555 1_555
N3 C7 1_555 1_555
N4 C10 1_555 1_555
O1 Cd1 1_555 1_555
O2 Cd1 1_555 1_555
O3 Cd1 1_555 1_555
O4 Cd1 1_555 1_555
O5 Cd1 1_555 1_555
O6 H3 1_555 1_555
H1 O5 1_555 1_555
H2 O5 1_555 1_555
H4 O6 1_555 1_555
C1 H5 1_555 1_555
C2 C1 1_555 1_555
H6 C2 1_555 1_555
C3 C2 1_555 1_555
C4 C3 1_555 1_555
H7 C4 1_555 1_555
C5 N1 1_555 1_555
H8 C5 1_555 1_555
C6 N2 1_555 1_555
C7 S1 1_555 1_555
C8 C7 1_555 1_555
C9 C8 1_555 1_555
H9 C9 1_555 1_555
C10 C9 1_555 1_555
H10 C10 1_555 1_555
C11 N4 1_555 1_555
H11 C11 1_555 1_555
C12 C8 1_555 1_555
H12 C12 1_555 1_555
C13 O3 1_555 1_555
C14 C13 1_555 1_555
H13 C14 1_555 1_555
C15 O1 1_555 1_555
C16 C15 1_555 1_555
H14 C16 1_555 1_555
Cd1A N1A 1_555 1_555
Cd1A_2 O4 1_555 1_555
Cd1A_3 O3A 1_555 1_555
Cd1_2 O4A 1_555 1_555
S1A C6A 1_555 1_555
N1A C1A 1_555 1_555
N2A N3A 1_555 1_555
N3A C7A 1_555 1_555
N4A C10A 1_555 1_555
O1A Cd1A 1_555 1_555
O2A Cd1A 1_555 1_555
O3A C13A 1_555 1_555
O3A_2 Cd1A 1_555 1_555
O4A Cd1A_3 1_555 1_555
O4A_2 Cd1 1_555 1_555
O4A_3 Cd1A 1_555 1_555
O4_2 Cd1A 1_555 1_555
O5A Cd1A 1_555 1_555
H1A O5A 1_555 1_555
H2A O5A 1_555 1_555
C1A H5A 1_555 1_555
C2A C1A 1_555 1_555
H6A C2A 1_555 1_555
C3A C2A 1_555 1_555
C4A C3A 1_555 1_555
H7A C4A 1_555 1_555
C5A N1A 1_555 1_555
H8A C5A 1_555 1_555
C6A N2A 1_555 1_555
C7A S1A 1_555 1_555
C8A C7A 1_555 1_555
C9A C8A 1_555 1_555
H9A C9A 1_555 1_555
C10A C9A 1_555 1_555
H10A C10A 1_555 1_555
C11A N4A 1_555 1_555
H11A C11A 1_555 1_555
C12A C8A 1_555 1_555
H12A C12A 1_555 1_555
C13A O4A 1_555 1_555
C14A C14 1_555 1_555
H13A C14A 1_555 1_555
C15A O1A 1_555 1_555
C16A C16 1_555 1_555
H14A C16A 1_555 1_555
O2 C15 1_555 1_555
O4 C13 1_555 1_555
C3 C6 1_555 1_555
C4 C5 1_555 1_555
C11 C12 1_555 1_555
Cd1A_2 O4A_2 1_555 1_555
O2A C15A 1_555 1_555
C3A C6A 1_555 1_555
C4A C5A 1_555 1_555
C11A C12A 1_555 1_555
C13A C14A 1_555 1_555
C15A C16A 1_555 1_555

#END
