
#######################################################################
#
#                 Cambridge Crystallographic Data Centre
#                                CCDC 
#
#######################################################################
#
# If this CIF has been generated from an entry in the Cambridge 
# Structural Database, then it will include bibliographic, chemical, 
# crystal, experimental, refinement or atomic coordinate data resulting 
# from the CCDC's data processing and validation procedures.
#
#######################################################################

data_NUYBAL
_symmetry_cell_setting           triclinic
_symmetry_space_group_name_H-M   'P -1'
_symmetry_Int_Tables_number      2
_space_group_name_Hall           '-P 1'
loop_
_symmetry_equiv_pos_site_id
_symmetry_equiv_pos_as_xyz
1 x,y,z
2 -x,-y,-z
_cell_length_a                   8.8599(19)
_cell_length_b                   9.647(2)
_cell_length_c                   11.620(3)
_cell_angle_alpha                87.575(4)
_cell_angle_beta                 80.901(4)
_cell_angle_gamma                70.326(3)
_cell_volume                     923.368
loop_
_atom_site_label
_atom_site_type_symbol
_atom_site_fract_x
_atom_site_fract_y
_atom_site_fract_z
Cd1 Cd 0.11166(6) 0.10333(6) -0.10792(5)
S1 S 0.0515(3) 0.6351(2) 0.39047(19)
N1 N 0.1185(7) 0.2290(7) 0.0546(6)
N2 N 0.2986(9) 0.4054(8) 0.3942(8)
N3 N 0.3014(8) 0.4958(8) 0.4801(8)
N4 N 0.1305(8) 0.9420(7) 0.7453(6)
O1 O 0.2428(6) 0.2394(7) -0.2300(6)
O2 O 0.4087(7) 0.0532(7) -0.1504(6)
O3 O 0.8529(7) 0.2687(8) -0.1412(6)
O4 O 0.8387(7) 0.1019(7) -0.0147(6)
C1 C 0.0011(10) 0.3597(9) 0.0975(8)
H1 H -0.0928 0.3954 0.0636
C2 C 0.0165(10) 0.4364(9) 0.1847(7)
H2 H -0.0638 0.5250 0.2092
C3 C 0.1548(9) 0.3824(9) 0.2395(7)
C4 C 0.2678(9) 0.2544(9) 0.2021(8)
H3 H 0.3597 0.2159 0.2379
C5 C 0.2478(9) 0.1802(8) 0.1106(8)
H4 H 0.3279 0.0914 0.0861
C6 C 0.1759(9) 0.4643(9) 0.3402(8)
C7 C 0.1805(10) 0.6216(9) 0.4903(8)
C8 C 0.1633(9) 0.7304(9) 0.5746(7)
C9 C 0.2889(10) 0.7197(11) 0.6365(9)
H5 H 0.3862 0.6416 0.6235
C10 C 0.2644(11) 0.8298(10) 0.7189(8)
H6 H 0.3502 0.8229 0.7582
C11 C 0.0113(9) 0.9533(9) 0.6831(7)
H7 H -0.0827 1.0348 0.6971
C12 C 0.0190(10) 0.8545(8) 0.6020(8)
H8 H -0.0694 0.8670 0.5639
C13 C 0.3832(9) 0.1671(9) -0.2071(7)
C14 C 0.5138(10) 0.2334(11) -0.2502(8)
H9 H 0.4923 0.2845 -0.3226
H10 H 0.6184 0.1559 -0.2649
C15 C 0.5173(11) 0.3439(10) -0.1564(11)
H11 H 0.5785 0.4047 -0.1932
H12 H 0.4070 0.4082 -0.1316
C16 C 0.5889(10) 0.2762(10) -0.0494(9)
H13 H 0.5562 0.3510 0.0115
H14 H 0.5450 0.1993 -0.0215
C17 C 0.7702(9) 0.2122(8) -0.0705(8)
Cd1_2 Cd 0.11166(6) 1.10333(6) 0.89208(5)
Cd1_3 Cd 1.11166(6) 0.10333(6) -0.10792(5)
Cd1A Cd 0.88834(6) -0.10333(6) 0.10792(5)
N4_2 N 0.1305(8) -0.0580(7) -0.2547(6)
O3_2 O -0.1471(7) 0.2687(8) -0.1412(6)
O4_2 O -0.1613(7) 0.1019(7) -0.0147(6)
O4A O 0.1613(7) -0.1019(7) 0.0147(6)
O5 O 0.3369(13) 0.1039(13) 0.5096(10)
loop_
_geom_bond_atom_site_label_1
_geom_bond_atom_site_label_2
_geom_bond_site_symmetry_1
_geom_bond_site_symmetry_2
Cd1 N1 1_555 1_555
S1 C6 1_555 1_555
N1 C1 1_555 1_555
N2 N3 1_555 1_555
N3 C7 1_555 1_555
N4 C10 1_555 1_555
O1 Cd1 1_555 1_555
O2 Cd1 1_555 1_555
O3 C17 1_555 1_555
O4 C17 1_555 1_555
C1 H1 1_555 1_555
C2 C1 1_555 1_555
H2 C2 1_555 1_555
C3 C2 1_555 1_555
C4 C3 1_555 1_555
H3 C4 1_555 1_555
C5 N1 1_555 1_555
H4 C5 1_555 1_555
C6 N2 1_555 1_555
C7 S1 1_555 1_555
C8 C7 1_555 1_555
C9 C8 1_555 1_555
H5 C9 1_555 1_555
C10 C9 1_555 1_555
H6 C10 1_555 1_555
C11 N4 1_555 1_555
H7 C11 1_555 1_555
C12 C8 1_555 1_555
H8 C12 1_555 1_555
C13 O1 1_555 1_555
C14 C13 1_555 1_555
H9 C14 1_555 1_555
H10 C14 1_555 1_555
C15 C14 1_555 1_555
H11 C15 1_555 1_555
H12 C15 1_555 1_555
C16 C15 1_555 1_555
H13 C16 1_555 1_555
H14 C16 1_555 1_555
C17 C16 1_555 1_555
Cd1_2 N4 1_555 1_555
Cd1_3 O3 1_555 1_555
Cd1A O4 1_555 1_555
N4_2 Cd1 1_555 1_555
O3_2 Cd1 1_555 1_555
O4_2 Cd1 1_555 1_555
O4A Cd1 1_555 1_555
O2 C13 1_555 1_555
O4 Cd1_3 1_555 1_555
C3 C6 1_555 1_555
C4 C5 1_555 1_555
C11 C12 1_555 1_555

#END
