
#######################################################################
#
#                 Cambridge Crystallographic Data Centre
#                                CCDC 
#
#######################################################################
#
# If this CIF has been generated from an entry in the Cambridge 
# Structural Database, then it will include bibliographic, chemical, 
# crystal, experimental, refinement or atomic coordinate data resulting 
# from the CCDC's data processing and validation procedures.
#
#######################################################################

data_NUYGIZ
_symmetry_cell_setting           orthorhombic
_symmetry_space_group_name_H-M   'P b c n'
_symmetry_Int_Tables_number      60
_space_group_name_Hall           '-P 2n 2ab'
loop_
_symmetry_equiv_pos_site_id
_symmetry_equiv_pos_as_xyz
1 x,y,z
2 1/2-x,1/2-y,1/2+z
3 1/2+x,1/2-y,-z
4 -x,y,1/2-z
5 -x,-y,-z
6 1/2+x,1/2+y,1/2-z
7 1/2-x,1/2+y,z
8 x,-y,1/2+z
_cell_length_a                   11.697(5)
_cell_length_b                   15.864(5)
_cell_length_c                   10.566(5)
_cell_angle_alpha                90
_cell_angle_beta                 90
_cell_angle_gamma                90
_cell_volume                     1960.64
loop_
_atom_site_label
_atom_site_type_symbol
_atom_site_fract_x
_atom_site_fract_y
_atom_site_fract_z
C1 C 0.3560(6) 0.2947(5) 0.4775(7)
C2 C 0.3082(5) 0.2118(5) 0.4997(7)
C3 C 0.3508(6) 0.1399(5) 0.4365(7)
H1 H 0.3151 0.0879 0.4577
C4 C 0.4658(5) 0.0546(5) 0.3038(7)
C5 C 0.4353(6) -0.0219(5) 0.3607(7)
H2 H 0.3923 -0.0213 0.4370
C6 C 0.4677(5) -0.1007(5) 0.3064(7)
C7 C 0.4336(6) -0.1784(5) 0.3602(7)
H3 H 0.3873 -0.1787 0.4341
C8 C 0.4664(6) -0.2530(5) 0.3070(8)
H4 H 0.4448 -0.3048 0.3451
C9 C 0.3283(6) 0.3702(5) 0.5564(8)
H5 H 0.3898 0.4119 0.5485
H6 H 0.3207 0.3533 0.6452
H7 H 0.2562 0.3951 0.5273
C10 C 0.2173(6) 0.1993(5) 0.5900(7)
C11 C 0.1849(6) 0.1102(5) 0.6301(8)
H8 H 0.1324 0.1128 0.7023
H9 H 0.2540 0.0792 0.6544
H10 H 0.1475 0.0813 0.5594
Fe1 Fe 0.5000 0.23663(9) 0.2500
N1 N 0.4323(5) 0.1355(4) 0.3532(5)
O1 O 0.4299(4) 0.3073(3) 0.3901(5)
O2 O 0.1643(4) 0.2585(3) 0.6402(5)
C1C C 0.6440(6) 0.2947(5) 0.0225(7)
C2C C 0.6918(5) 0.2118(5) 0.0003(7)
C3C C 0.6492(6) 0.1399(5) 0.0635(7)
H1C H 0.6849 0.0879 0.0423
C4C C 0.5342(5) 0.0546(5) 0.1962(7)
C5C C 0.5647(6) -0.0219(5) 0.1393(7)
H2C H 0.6077 -0.0213 0.0630
C6C C 0.5323(5) -0.1007(5) 0.1936(7)
C7C C 0.5664(6) -0.1784(5) 0.1398(7)
H3C H 0.6127 -0.1787 0.0659
C8C C 0.5336(6) -0.2530(5) 0.1930(8)
H4C H 0.5552 -0.3048 0.1549
C9C C 0.6717(6) 0.3702(5) -0.0564(8)
H5C H 0.6102 0.4119 -0.0485
H6C H 0.6793 0.3533 -0.1452
H7C H 0.7438 0.3951 -0.0273
N1C N 0.5677(5) 0.1355(4) 0.1468(5)
O1C O 0.5701(4) 0.3073(3) 0.1099(5)
C10C C 0.7827(6) 0.1993(5) -0.0900(7)
C11C C 0.8151(6) 0.1102(5) -0.1301(8)
H8C H 0.8676 0.1128 -0.2023
H9C H 0.7460 0.0792 -0.1544
H10C H 0.8525 0.0813 -0.0594
O2C O 0.8357(4) 0.2585(3) -0.1402(5)
Fe1A Fe 0.0000 0.26337(9) 0.7500
Fe1A_2 Fe 1.0000 0.26337(9) -0.2500
O2A O 0.3357(4) 0.2415(3) 0.1402(5)
O2B O 0.6643(4) 0.2415(3) 0.3598(5)
loop_
_geom_bond_atom_site_label_1
_geom_bond_atom_site_label_2
_geom_bond_site_symmetry_1
_geom_bond_site_symmetry_2
C1 C2 1_555 1_555
C2 C3 1_555 1_555
C3 H1 1_555 1_555
C4 C5 1_555 1_555
C5 H2 1_555 1_555
C6 C5 1_555 1_555
C7 C6 1_555 1_555
H3 C7 1_555 1_555
C8 C7 1_555 1_555
H4 C8 1_555 1_555
C9 C1 1_555 1_555
H5 C9 1_555 1_555
H6 C9 1_555 1_555
H7 C9 1_555 1_555
C10 C2 1_555 1_555
C11 C10 1_555 1_555
H8 C11 1_555 1_555
H9 C11 1_555 1_555
H10 C11 1_555 1_555
Fe1 N1 1_555 1_555
N1 C3 1_555 1_555
O1 C1 1_555 1_555
O2 C10 1_555 1_555
C1C C2C 1_555 1_555
C2C C3C 1_555 1_555
C3C H1C 1_555 1_555
C4C C4 1_555 1_555
C5C C4C 1_555 1_555
H2C C5C 1_555 1_555
C6C C6 1_555 1_555
C7C C6C 1_555 1_555
H3C C7C 1_555 1_555
C8C C8 1_555 1_555
H4C C8C 1_555 1_555
C9C C1C 1_555 1_555
H5C C9C 1_555 1_555
H6C C9C 1_555 1_555
H7C C9C 1_555 1_555
N1C Fe1 1_555 1_555
O1C Fe1 1_555 1_555
C10C C2C 1_555 1_555
C11C C10C 1_555 1_555
H8C C11C 1_555 1_555
H9C C11C 1_555 1_555
H10C C11C 1_555 1_555
O2C C10C 1_555 1_555
Fe1A O2 1_555 1_555
Fe1A_2 O2C 1_555 1_555
O2A Fe1 1_555 1_555
O2B Fe1 1_555 1_555
C4 N1 1_555 1_555
Fe1 O1 1_555 1_555
C1C O1C 1_555 1_555
C3C N1C 1_555 1_555
C4C N1C 1_555 1_555
C5C C6C 1_555 1_555
C7C C8C 1_555 1_555

#END
