
#######################################################################
#
#                 Cambridge Crystallographic Data Centre
#                                CCDC 
#
#######################################################################
#
# If this CIF has been generated from an entry in the Cambridge 
# Structural Database, then it will include bibliographic, chemical, 
# crystal, experimental, refinement or atomic coordinate data resulting 
# from the CCDC's data processing and validation procedures.
#
#######################################################################

data_NUYMIE
_symmetry_cell_setting           monoclinic
_symmetry_space_group_name_H-M   'C 2/c'
_symmetry_Int_Tables_number      15
_space_group_name_Hall           '-C 2yn'
loop_
_symmetry_equiv_pos_site_id
_symmetry_equiv_pos_as_xyz
1 x,y,z
2 -x,y,1/2-z
3 1/2+x,1/2+y,z
4 1/2-x,1/2+y,1/2-z
5 -x,-y,-z
6 x,-y,1/2+z
7 1/2-x,1/2-y,-z
8 1/2+x,1/2-y,1/2+z
_cell_length_a                   15.0906(16)
_cell_length_b                   13.9216(14)
_cell_length_c                   13.7673(14)
_cell_angle_alpha                90
_cell_angle_beta                 121.300(2)
_cell_angle_gamma                90
_cell_volume                     2471.36
loop_
_atom_site_label
_atom_site_type_symbol
_atom_site_fract_x
_atom_site_fract_y
_atom_site_fract_z
Cu1 Cu 0.49313(5) 0.09895(5) 0.95707(7)
N1 N 0.3579(4) 0.1743(3) 0.8783(4)
H1 H 0.3723 0.2382 0.8907
N2 N 0.4255(4) 0.1812(3) 0.5897(4)
O1 O 0.4190(4) 0.0143(4) 0.9993(5)
C1 C 0.3124(4) 0.0348(4) 0.9503(7)
H2 H 0.2882 0.0135 0.9997
H3 H 0.2717 0.0032 0.8772
C2 C 0.3043(5) 0.1433(5) 0.9366(6)
H4 H 0.2319 0.1622 0.8926
H5 H 0.3356 0.1737 1.0106
C3 C 0.2902(5) 0.1565(4) 0.7522(5)
H6 H 0.2823 0.0879 0.7383
H7 H 0.2220 0.1834 0.7250
C4 C 0.3350(4) 0.2005(4) 0.6870(5)
C5 C 0.3265(5) 0.2988(4) 0.6625(5)
H8 H 0.2918 0.3389 0.6860
C6 C 0.3694(5) 0.3358(5) 0.6039(5)
H9 H 0.3660 0.4013 0.5895
C7 C 0.4178(4) 0.2748(4) 0.5662(5)
H10 H 0.4452 0.2993 0.5244
C8 C 0.3861(5) 0.1459(4) 0.6475(5)
H11 H 0.3930 0.0804 0.6628
O2 O 0.5718(5) 0.1796(5) 1.1319(6)
N3 N 0.588(2) 0.1341(17) 1.2183(19)
Cu1A Cu 0.50687(5) 0.09895(5) 0.54293(7)
Cu1D Cu 0.50687(5) -0.09895(5) 1.04293(7)
N2A N 0.5745(4) 0.1812(3) 0.9103(4)
O1D O 0.5810(4) -0.0143(4) 1.0007(5)
loop_
_geom_bond_atom_site_label_1
_geom_bond_atom_site_label_2
_geom_bond_site_symmetry_1
_geom_bond_site_symmetry_2
Cu1 N1 1_555 1_555
N1 H1 1_555 1_555
N2 C7 1_555 1_555
O1 Cu1 1_555 1_555
C1 O1 1_555 1_555
H2 C1 1_555 1_555
H3 C1 1_555 1_555
C2 N1 1_555 1_555
H4 C2 1_555 1_555
H5 C2 1_555 1_555
C3 N1 1_555 1_555
H6 C3 1_555 1_555
H7 C3 1_555 1_555
C4 C3 1_555 1_555
C5 C4 1_555 1_555
H8 C5 1_555 1_555
C6 C5 1_555 1_555
H9 C6 1_555 1_555
C7 C6 1_555 1_555
H10 C7 1_555 1_555
C8 N2 1_555 1_555
H11 C8 1_555 1_555
O2 Cu1 1_555 1_555
N3 O2 1_555 1_555
Cu1A N2 1_555 1_555
Cu1D O1 1_555 1_555
N2A Cu1 1_555 1_555
O1D Cu1 1_555 1_555
C1 C2 1_555 1_555
C4 C8 1_555 1_555
Cu1D O1D 1_555 1_555

#END
