
#######################################################################
#
#                 Cambridge Crystallographic Data Centre
#                                CCDC 
#
#######################################################################
#
# If this CIF has been generated from an entry in the Cambridge 
# Structural Database, then it will include bibliographic, chemical, 
# crystal, experimental, refinement or atomic coordinate data resulting 
# from the CCDC's data processing and validation procedures.
#
#######################################################################

data_NUYSOQ
_symmetry_cell_setting           monoclinic
_symmetry_space_group_name_H-M   'C 2/c'
_symmetry_Int_Tables_number      15
_space_group_name_Hall           '-C 2yn'
loop_
_symmetry_equiv_pos_site_id
_symmetry_equiv_pos_as_xyz
1 x,y,z
2 -x,y,1/2-z
3 1/2+x,1/2+y,z
4 1/2-x,1/2+y,1/2-z
5 -x,-y,-z
6 x,-y,1/2+z
7 1/2-x,1/2-y,-z
8 1/2+x,1/2-y,1/2+z
_cell_length_a                   19.5036(18)
_cell_length_b                   5.9798(5)
_cell_length_c                   20.4223(18)
_cell_angle_alpha                90
_cell_angle_beta                 110.8680(10)
_cell_angle_gamma                90
_cell_volume                     2225.57
loop_
_atom_site_label
_atom_site_type_symbol
_atom_site_fract_x
_atom_site_fract_y
_atom_site_fract_z
Tb1 Tb 0.362790(10) 0.82901(3) 0.031933(10)
C1 C 0.2466(2) 0.5234(7) 0.0996(2)
C2 C 0.2972(2) 0.4667(8) 0.1721(2)
C3 C 0.2973(3) 0.6176(8) 0.2245(2)
H1 H 0.2679 0.7437 0.2128
C4 C 0.3397(3) 0.5761(9) 0.2937(2)
H2 H 0.3393 0.6771 0.3281
C5 C 0.3830(3) 0.3864(9) 0.3114(2)
H3 H 0.4108 0.3583 0.3581
C6 C 0.3842(3) 0.2396(8) 0.2602(2)
H4 H 0.4137 0.1138 0.2724
C7 C 0.3422(2) 0.2766(8) 0.1894(2)
C8 C 0.3475(2) 0.1203(7) 0.1351(2)
C9 C 0.4989(2) 1.1114(7) 0.0181(2)
O1 O 0.4418(2) 0.5581(6) 0.10769(18)
H5 H 0.4567 0.6097 0.1492
H6 H 0.455(3) 0.453(11) 0.100(3)
O2 O 0.26882(16) 0.6478(5) 0.06051(15)
O3 O 0.33587(17) 0.4986(6) -0.03635(17)
H7 H 0.2906 0.4645 -0.0465
H8 H 0.363(3) 0.402(8) -0.034(3)
O4 O 0.18025(16) 0.4648(5) 0.07896(15)
O6 O 0.39357(16) -0.0391(5) 0.15224(16)
O7 O 0.30659(16) 0.1453(5) 0.07135(15)
O8 O 0.45065(17) 1.1321(5) 0.04567(16)
O9 O 0.54464(17) 1.2549(6) 0.01742(16)
Tb1F Tb 0.137210(10) 0.67099(3) -0.031933(10)
Tb1_2 Tb 0.362790(10) -0.17099(3) 0.031933(10)
Tb1D Tb 0.637210(10) 1.17099(3) -0.031933(10)
Tb1F_2 Tb 0.137210(10) 1.67099(3) -0.031933(10)
Tb1_3 Tb 0.362790(10) 1.82901(3) 0.031933(10)
C1_2 C 0.2466(2) 1.5234(7) 0.0996(2)
C2_2 C 0.2972(2) 1.4667(8) 0.1721(2)
C3_2 C 0.2973(3) 1.6176(8) 0.2245(2)
H1_2 H 0.2679 1.7437 0.2128
C4_2 C 0.3397(3) 1.5761(9) 0.2937(2)
H2_2 H 0.3393 1.6771 0.3281
C5_2 C 0.3830(3) 1.3864(9) 0.3114(2)
H3_2 H 0.4108 1.3583 0.3581
C6_2 C 0.3842(3) 1.2396(8) 0.2602(2)
H4_2 H 0.4137 1.1138 0.2724
C7_2 C 0.3422(2) 1.2766(8) 0.1894(2)
C8_2 C 0.3475(2) 1.1203(7) 0.1351(2)
C9D C 0.5011(2) 0.8886(7) -0.0181(2)
O1_2 O 0.4418(2) 1.5581(6) 0.10769(18)
H5_2 H 0.4567 1.6097 0.1492
H6_2 H 0.455(3) 1.453(11) 0.100(3)
O2F O 0.23118(16) 0.8522(5) -0.06051(15)
O2_2 O 0.26882(16) 1.6478(5) 0.06051(15)
O2F_2 O 0.23118(16) 1.8522(5) -0.06051(15)
O3_2 O 0.33587(17) 1.4986(6) -0.03635(17)
H7_2 H 0.2906 1.4645 -0.0465
H8_2 H 0.363(3) 1.402(8) -0.034(3)
O4F O 0.31975(16) 1.0352(5) -0.07896(15)
O4_2 O 0.18025(16) 1.4648(5) 0.07896(15)
O4F_2 O 0.31975(16) 2.0352(5) -0.07896(15)
O6_2 O 0.39357(16) 0.9609(5) 0.15224(16)
O6_3 O 0.39357(16) 1.9609(5) 0.15224(16)
O7_2 O 0.30659(16) 1.1453(5) 0.07135(15)
O7_3 O 0.30659(16) 2.1453(5) 0.07135(15)
O8D O 0.54935(17) 0.8679(5) -0.04567(16)
O8_2 O 0.45065(17) 2.1321(5) 0.04567(16)
O9D O 0.45536(17) 0.7451(6) -0.01742(16)
O9D_2 O 0.45536(17) 1.7451(6) -0.01742(16)
O5 O 0.5000 0.6938(10) 0.2500
H9 H 0.535(3) 0.775(11) 0.271(3)
H9A H 0.465(3) 0.775(11) 0.229(3)
loop_
_geom_bond_atom_site_label_1
_geom_bond_atom_site_label_2
_geom_bond_site_symmetry_1
_geom_bond_site_symmetry_2
Tb1 O1 1_555 1_555
C1 C2 1_555 1_555
C2 C3 1_555 1_555
C3 H1 1_555 1_555
C4 C3 1_555 1_555
H2 C4 1_555 1_555
C5 C4 1_555 1_555
H3 C5 1_555 1_555
C6 C5 1_555 1_555
H4 C6 1_555 1_555
C7 C2 1_555 1_555
C8 C7 1_555 1_555
C9 O8 1_555 1_555
O1 H5 1_555 1_555
H6 O1 1_555 1_555
O2 Tb1 1_555 1_555
O3 Tb1 1_555 1_555
H7 O3 1_555 1_555
H8 O3 1_555 1_555
O4 C1 1_555 1_555
O5 H9 1_555 1_555
O6 C8 1_555 1_555
O7 C8 1_555 1_555
O8 Tb1 1_555 1_555
O9 C9 1_555 1_555
Tb1F O2 1_555 1_555
Tb1_2 O6 1_555 1_555
Tb1D O9 1_555 1_555
Tb1F_2 O2_2 1_555 1_555
Tb1_3 O1_2 1_555 1_555
C1_2 C2_2 1_555 1_555
C2_2 C3_2 1_555 1_555
C3_2 H1_2 1_555 1_555
C4_2 C3_2 1_555 1_555
H2_2 C4_2 1_555 1_555
C5_2 C4_2 1_555 1_555
H3_2 C5_2 1_555 1_555
C6_2 C5_2 1_555 1_555
H4_2 C6_2 1_555 1_555
C7_2 C2_2 1_555 1_555
C8_2 C7_2 1_555 1_555
C9D C9 1_555 1_555
O1_2 H5_2 1_555 1_555
H6_2 O1_2 1_555 1_555
O2F Tb1 1_555 1_555
O2_2 Tb1_3 1_555 1_555
O2F_2 Tb1F_2 1_555 1_555
O3_2 Tb1_3 1_555 1_555
H7_2 O3_2 1_555 1_555
H8_2 O3_2 1_555 1_555
O4F Tb1 1_555 1_555
O4_2 Tb1F_2 1_555 1_555
O4F_2 Tb1_3 1_555 1_555
H9A O5 1_555 1_555
O6_2 Tb1 1_555 1_555
O6_3 Tb1_3 1_555 1_555
O7_2 Tb1 1_555 1_555
O7_3 Tb1_3 1_555 1_555
O8D Tb1D 1_555 1_555
O8_2 Tb1_3 1_555 1_555
O9D Tb1 1_555 1_555
O9D_2 Tb1_3 1_555 1_555
C1 O2 1_555 1_555
C6 C7 1_555 1_555
O4 Tb1F 1_555 1_555
O7 Tb1_2 1_555 1_555
Tb1F O2F 1_555 1_555
Tb1_3 O2F_2 1_555 1_555
C1_2 O2_2 1_555 1_555
C1_2 O4_2 1_555 1_555
C6_2 C7_2 1_555 1_555
C8_2 O6_2 1_555 1_555
C8_2 O7_2 1_555 1_555
C9D O8D 1_555 1_555
C9D O9D 1_555 1_555

#END
