
#######################################################################
#
#                 Cambridge Crystallographic Data Centre
#                                CCDC 
#
#######################################################################
#
# If this CIF has been generated from an entry in the Cambridge 
# Structural Database, then it will include bibliographic, chemical, 
# crystal, experimental, refinement or atomic coordinate data resulting 
# from the CCDC's data processing and validation procedures.
#
#######################################################################

data_NUYTAD
_symmetry_cell_setting           monoclinic
_symmetry_space_group_name_H-M   'P 21/n'
_symmetry_Int_Tables_number      14
_space_group_name_Hall           '-P 2yn'
loop_
_symmetry_equiv_pos_site_id
_symmetry_equiv_pos_as_xyz
1 x,y,z
2 1/2-x,1/2+y,1/2-z
3 -x,-y,-z
4 1/2+x,1/2-y,1/2+z
_cell_length_a                   11.673(2)
_cell_length_b                   5.9691(12)
_cell_length_c                   18.456(4)
_cell_angle_alpha                90
_cell_angle_beta                 97.65(3)
_cell_angle_gamma                90
_cell_volume                     1274.52
loop_
_atom_site_label
_atom_site_type_symbol
_atom_site_fract_x
_atom_site_fract_y
_atom_site_fract_z
Eu1 Eu 0.84709(2) 0.91280(4) 0.040451(15)
C1 C 0.9674(5) 0.6226(9) 0.1450(3)
C2 C 1.0280(6) 0.4689(10) 0.2014(3)
C3 C 1.0241(7) 0.5114(11) 0.2754(4)
H1 H 0.9850 0.6372 0.2889
C4 C 1.0772(7) 0.3698(12) 0.3291(4)
H2 H 1.0753 0.4020 0.3782
C5 C 1.1335(7) 0.1794(12) 0.3089(4)
H3 H 1.1675 0.0813 0.3446
C6 C 1.1391(6) 0.1351(11) 0.2359(4)
H4 H 1.1774 0.0078 0.2228
C7 C 1.0880(5) 0.2796(10) 0.1820(3)
C8 C 1.1033(5) 0.2208(9) 0.1043(3)
C9 C 0.6262(5) 0.7073(10) 0.0208(4)
C10 C 0.5104(6) 0.6070(11) -0.0019(5)
H5 H 0.445(7) 0.716(14) -0.027(4)
O1 O 0.9852(4) 0.6072(7) 0.0788(2)
O2 O 0.8104(4) 1.2495(8) -0.0301(3)
H6 H 0.873(3) 1.282(11) -0.041(4)
H7 H 0.784(8) 1.331(13) -0.002(4)
O3 O 0.7823(6) 1.1794(9) 0.1242(4)
H8 H 0.792(8) 1.177(14) 0.164(5)
H9 H 0.743(9) 1.266(17) 0.109(5)
O4 O 0.8980(4) 0.7661(7) 0.1637(2)
O6 O 1.0284(4) 0.1001(7) 0.0657(2)
O7 O 1.1927(4) 0.2806(7) 0.0796(2)
O8 O 0.6382(4) 0.9140(7) 0.0096(3)
O9 O 0.7107(4) 0.5894(7) 0.0497(3)
Eu1_2 Eu 0.84709(2) 1.91280(4) 0.040451(15)
Eu1_3 Eu 0.84709(2) -0.08720(4) 0.040451(15)
Eu1B Eu 1.15291(2) 0.08720(4) -0.040451(15)
Eu1B_2 Eu 0.15291(2) 0.08720(4) -0.040451(15)
Eu1B_3 Eu 1.15291(2) 1.08720(4) -0.040451(15)
C1_2 C 0.9674(5) 1.6226(9) 0.1450(3)
C2_2 C 1.0280(6) 1.4689(10) 0.2014(3)
C3_2 C 1.0241(7) 1.5114(11) 0.2754(4)
H1_2 H 0.9850 1.6372 0.2889
C4_2 C 1.0772(7) 1.3698(12) 0.3291(4)
H2_2 H 1.0753 1.4020 0.3782
C5_2 C 1.1335(7) 1.1794(12) 0.3089(4)
H3_2 H 1.1675 1.0813 0.3446
C6_2 C 1.1391(6) 1.1351(11) 0.2359(4)
H4_2 H 1.1774 1.0078 0.2228
C7_2 C 1.0880(5) 1.2796(10) 0.1820(3)
C8_2 C 1.1033(5) 1.2208(9) 0.1043(3)
C9B C 0.3738(5) 0.2927(10) -0.0208(4)
C10B C 0.4896(6) 0.3930(11) 0.0019(5)
H5B H 0.555(7) 0.284(14) 0.027(4)
O1_2 O 0.9852(4) 1.6072(7) 0.0788(2)
O2_2 O 0.8104(4) 2.2495(8) -0.0301(3)
H6_2 H 0.873(3) 2.282(11) -0.041(4)
H7_2 H 0.784(8) 2.331(13) -0.002(4)
O3_2 O 0.7823(6) 2.1794(9) 0.1242(4)
H8_2 H 0.792(8) 2.177(14) 0.164(5)
H9_2 H 0.743(9) 2.266(17) 0.109(5)
O4_2 O 0.8980(4) 1.7661(7) 0.1637(2)
O6_2 O 1.0284(4) 1.1001(7) 0.0657(2)
O6B O 0.9716(4) 0.8999(7) -0.0657(2)
O6_3 O 1.0284(4) 2.1001(7) 0.0657(2)
O6B_2 O 0.9716(4) 1.8999(7) -0.0657(2)
O7_2 O 1.1927(4) 1.2806(7) 0.0796(2)
O7B O 0.8073(4) 0.7194(7) -0.0796(2)
O7B_2 O 0.8073(4) 1.7194(7) -0.0796(2)
O8B O 0.3618(4) 0.0860(7) -0.0096(3)
O8_2 O 0.6382(4) 1.9140(7) 0.0096(3)
O9B O 0.2893(4) 0.4106(7) -0.0497(3)
O9_2 O 0.7107(4) 1.5894(7) 0.0497(3)
O5 O 0.7988(6) 0.1157(10) 0.2710(3)
loop_
_geom_bond_atom_site_label_1
_geom_bond_atom_site_label_2
_geom_bond_site_symmetry_1
_geom_bond_site_symmetry_2
Eu1 O1 1_555 1_555
C1 C2 1_555 1_555
C2 C3 1_555 1_555
C3 H1 1_555 1_555
C4 C3 1_555 1_555
H2 C4 1_555 1_555
C5 C4 1_555 1_555
H3 C5 1_555 1_555
C6 C5 1_555 1_555
H4 C6 1_555 1_555
C7 C2 1_555 1_555
C8 C7 1_555 1_555
C9 C10 1_555 1_555
C10 H5 1_555 1_555
O1 C1 1_555 1_555
O2 Eu1 1_555 1_555
H6 O2 1_555 1_555
H7 O2 1_555 1_555
O3 Eu1 1_555 1_555
H8 O3 1_555 1_555
H9 O3 1_555 1_555
O4 Eu1 1_555 1_555
O6 C8 1_555 1_555
O7 C8 1_555 1_555
O8 Eu1 1_555 1_555
O9 Eu1 1_555 1_555
Eu1_2 O1_2 1_555 1_555
Eu1_3 O6 1_555 1_555
Eu1B O6 1_555 1_555
Eu1B_2 O8B 1_555 1_555
Eu1B_3 O6_2 1_555 1_555
C1_2 C2_2 1_555 1_555
C2_2 C3_2 1_555 1_555
C3_2 H1_2 1_555 1_555
C4_2 C3_2 1_555 1_555
H2_2 C4_2 1_555 1_555
C5_2 C4_2 1_555 1_555
H3_2 C5_2 1_555 1_555
C6_2 C5_2 1_555 1_555
H4_2 C6_2 1_555 1_555
C7_2 C2_2 1_555 1_555
C8_2 C7_2 1_555 1_555
C9B C10B 1_555 1_555
C10B C10 1_555 1_555
H5B C10B 1_555 1_555
O1_2 C1_2 1_555 1_555
O2_2 Eu1_2 1_555 1_555
H6_2 O2_2 1_555 1_555
H7_2 O2_2 1_555 1_555
O3_2 Eu1_2 1_555 1_555
H8_2 O3_2 1_555 1_555
H9_2 O3_2 1_555 1_555
O4_2 Eu1_2 1_555 1_555
O6_2 Eu1 1_555 1_555
O6B Eu1 1_555 1_555
O6_3 Eu1_2 1_555 1_555
O6B_2 Eu1_2 1_555 1_555
O7_2 Eu1B_3 1_555 1_555
O7B Eu1 1_555 1_555
O7B_2 Eu1_2 1_555 1_555
O8B C9B 1_555 1_555
O8_2 Eu1_2 1_555 1_555
O9B Eu1B_2 1_555 1_555
O9_2 Eu1_2 1_555 1_555
C1 O4 1_555 1_555
C6 C7 1_555 1_555
C9 O8 1_555 1_555
C9 O9 1_555 1_555
O7 Eu1B 1_555 1_555
Eu1B_3 O6B 1_555 1_555
C1_2 O4_2 1_555 1_555
C6_2 C7_2 1_555 1_555
C8_2 O6_2 1_555 1_555
C8_2 O7_2 1_555 1_555
C9B O9B 1_555 1_555

#END
