
#######################################################################
#
#                 Cambridge Crystallographic Data Centre
#                                CCDC 
#
#######################################################################
#
# If this CIF has been generated from an entry in the Cambridge 
# Structural Database, then it will include bibliographic, chemical, 
# crystal, experimental, refinement or atomic coordinate data resulting 
# from the CCDC's data processing and validation procedures.
#
#######################################################################

data_NUYTUX
_symmetry_cell_setting           monoclinic
_symmetry_space_group_name_H-M   'P 21/n'
_symmetry_Int_Tables_number      14
_space_group_name_Hall           '-P 2yn'
loop_
_symmetry_equiv_pos_site_id
_symmetry_equiv_pos_as_xyz
1 x,y,z
2 1/2-x,1/2+y,1/2-z
3 -x,-y,-z
4 1/2+x,1/2-y,1/2+z
_cell_length_a                   13.354(9)
_cell_length_b                   5.977(4)
_cell_length_c                   15.640(10)
_cell_angle_alpha                90
_cell_angle_beta                 93.532(9)
_cell_angle_gamma                90
_cell_volume                     1245.96
loop_
_atom_site_label
_atom_site_type_symbol
_atom_site_fract_x
_atom_site_fract_y
_atom_site_fract_z
Sm1 Sm 0.86952(4) 0.91968(9) 0.41936(3)
C1 C 1.0970(8) 0.3002(18) 0.3084(6)
C2 C 1.0501(9) 0.4873(18) 0.2713(6)
C3 C 1.0629(9) 0.534(2) 0.1869(8)
H1 H 1.0295 0.6561 0.1618
C4 C 1.1233(10) 0.407(2) 0.1379(7)
H2 H 1.1333 0.4456 0.0815
C5 C 1.1688(9) 0.218(2) 0.1749(7)
H3 H 1.2083 0.1261 0.1428
C6 C 1.1555(9) 0.1679(19) 0.2585(7)
H4 H 1.1865 0.0416 0.2827
C7 C 1.0952(9) 0.2401(19) 0.4012(7)
C8 C 0.9880(9) 0.6383(18) 0.3230(7)
C9 C 0.6821(9) 0.696(2) 0.4004(7)
C10 C 0.5930(10) 0.549(2) 0.4116(8)
H5 H 0.6145 0.3940 0.4090
H6 H 0.5444 0.5739 0.3639
C11 C 0.5416(9) 0.5835(19) 0.4941(7)
H7 H 0.5139 0.7336 0.4945
H8 H 0.5910 0.5713 0.5420
O1 O 0.9893(6) 0.6151(12) 0.4032(5)
O2 O 0.9350(7) 0.7889(14) 0.2847(5)
O3 O 1.0275(6) 0.1104(13) 0.4269(5)
O4 O 1.1662(6) 0.2976(14) 0.4516(5)
O5 O 0.8360(7) 1.2489(15) 0.5054(6)
H9 H 0.819(11) 1.373(12) 0.483(9)
H10 H 0.891(6) 1.28(3) 0.533(8)
O6 O 0.8039(7) 1.1948(14) 0.3161(5)
H11 H 0.8152 1.1512 0.2658
H12 H 0.8330 1.3194 0.3260
O7 O 0.7571(6) 0.6186(14) 0.3647(6)
O8 O 0.6849(6) 0.8957(13) 0.4293(5)
Sm1B Sm 1.13048(4) 0.08032(9) 0.58064(3)
Sm1_2 Sm 0.86952(4) -0.08032(9) 0.41936(3)
Sm1B_2 Sm 0.13048(4) 0.08032(9) 0.58064(3)
Sm1B_3 Sm 1.13048(4) 1.08032(9) 0.58064(3)
Sm1_3 Sm 0.86952(4) 1.91968(9) 0.41936(3)
C1_2 C 1.0970(8) 1.3002(18) 0.3084(6)
C2_2 C 1.0501(9) 1.4873(18) 0.2713(6)
C3_2 C 1.0629(9) 1.534(2) 0.1869(8)
H1_2 H 1.0295 1.6561 0.1618
C4_2 C 1.1233(10) 1.407(2) 0.1379(7)
H2_2 H 1.1333 1.4456 0.0815
C5_2 C 1.1688(9) 1.218(2) 0.1749(7)
H3_2 H 1.2083 1.1261 0.1428
C6_2 C 1.1555(9) 1.1679(19) 0.2585(7)
H4_2 H 1.1865 1.0416 0.2827
C7_2 C 1.0952(9) 1.2401(19) 0.4012(7)
C8_2 C 0.9880(9) 1.6383(18) 0.3230(7)
C9B C 0.3179(9) 0.304(2) 0.5996(7)
C10B C 0.4070(10) 0.451(2) 0.5884(8)
H5B H 0.3855 0.6060 0.5910
H6B H 0.4556 0.4261 0.6361
C11B C 0.4584(9) 0.4165(19) 0.5059(7)
H7B H 0.4861 0.2664 0.5055
H8B H 0.4090 0.4287 0.4580
O1_2 O 0.9893(6) 1.6151(12) 0.4032(5)
O2_2 O 0.9350(7) 1.7889(14) 0.2847(5)
O3B O 0.9725(6) 0.8896(13) 0.5731(5)
O3_2 O 1.0275(6) 1.1104(13) 0.4269(5)
O3B_2 O 0.9725(6) 1.8896(13) 0.5731(5)
O3_3 O 1.0275(6) 2.1104(13) 0.4269(5)
O4B O 0.8338(6) 0.7024(14) 0.5484(5)
O4_2 O 1.1662(6) 1.2976(14) 0.4516(5)
O4B_2 O 0.8338(6) 1.7024(14) 0.5484(5)
O5_2 O 0.8360(7) 2.2489(15) 0.5054(6)
H9_2 H 0.819(11) 2.373(12) 0.483(9)
H10_2 H 0.891(6) 2.28(3) 0.533(8)
O6_2 O 0.8039(7) 2.1948(14) 0.3161(5)
H11_2 H 0.8152 2.1512 0.2658
H12_2 H 0.8330 2.3194 0.3260
O7B O 0.2429(6) 0.3814(14) 0.6353(6)
O7_2 O 0.7571(6) 1.6186(14) 0.3647(6)
O8B O 0.3151(6) 0.1043(13) 0.5707(5)
O8_2 O 0.6849(6) 1.8957(13) 0.4293(5)
loop_
_geom_bond_atom_site_label_1
_geom_bond_atom_site_label_2
_geom_bond_site_symmetry_1
_geom_bond_site_symmetry_2
Sm1 O1 1_555 1_555
C1 C2 1_555 1_555
C2 C3 1_555 1_555
C3 H1 1_555 1_555
C4 C3 1_555 1_555
H2 C4 1_555 1_555
C5 C4 1_555 1_555
H3 C5 1_555 1_555
C6 C1 1_555 1_555
H4 C6 1_555 1_555
C7 C1 1_555 1_555
C8 C2 1_555 1_555
C9 C10 1_555 1_555
C10 H5 1_555 1_555
H6 C10 1_555 1_555
C11 C10 1_555 1_555
H7 C11 1_555 1_555
H8 C11 1_555 1_555
O1 C8 1_555 1_555
O2 Sm1 1_555 1_555
O3 C7 1_555 1_555
O4 C7 1_555 1_555
O5 Sm1 1_555 1_555
H9 O5 1_555 1_555
H10 O5 1_555 1_555
O6 Sm1 1_555 1_555
H11 O6 1_555 1_555
H12 O6 1_555 1_555
O7 Sm1 1_555 1_555
O8 Sm1 1_555 1_555
Sm1B O3 1_555 1_555
Sm1_2 O3 1_555 1_555
Sm1B_2 O7B 1_555 1_555
Sm1B_3 O3B 1_555 1_555
Sm1_3 O1_2 1_555 1_555
C1_2 C2_2 1_555 1_555
C2_2 C3_2 1_555 1_555
C3_2 H1_2 1_555 1_555
C4_2 C3_2 1_555 1_555
H2_2 C4_2 1_555 1_555
C5_2 C4_2 1_555 1_555
H3_2 C5_2 1_555 1_555
C6_2 C1_2 1_555 1_555
H4_2 C6_2 1_555 1_555
C7_2 C1_2 1_555 1_555
C8_2 C2_2 1_555 1_555
C9B C10B 1_555 1_555
C10B H5B 1_555 1_555
H6B C10B 1_555 1_555
C11B C11 1_555 1_555
H7B C11B 1_555 1_555
H8B C11B 1_555 1_555
O1_2 C8_2 1_555 1_555
O2_2 Sm1_3 1_555 1_555
O3B Sm1 1_555 1_555
O3_2 Sm1 1_555 1_555
O3B_2 Sm1_3 1_555 1_555
O3_3 Sm1_3 1_555 1_555
O4B Sm1 1_555 1_555
O4_2 Sm1B_3 1_555 1_555
O4B_2 Sm1_3 1_555 1_555
O5_2 Sm1_3 1_555 1_555
H9_2 O5_2 1_555 1_555
H10_2 O5_2 1_555 1_555
O6_2 Sm1_3 1_555 1_555
H11_2 O6_2 1_555 1_555
H12_2 O6_2 1_555 1_555
O7B C9B 1_555 1_555
O7_2 Sm1_3 1_555 1_555
O8B Sm1B_2 1_555 1_555
O8_2 Sm1_3 1_555 1_555
C5 C6 1_555 1_555
C8 O2 1_555 1_555
C9 O7 1_555 1_555
C9 O8 1_555 1_555
O4 Sm1B 1_555 1_555
Sm1B_3 O3_2 1_555 1_555
C5_2 C6_2 1_555 1_555
C7_2 O3_2 1_555 1_555
C7_2 O4_2 1_555 1_555
C8_2 O2_2 1_555 1_555
C9B O8B 1_555 1_555
C10B C11B 1_555 1_555

#END
