
#######################################################################
#
#                 Cambridge Crystallographic Data Centre
#                                CCDC 
#
#######################################################################
#
# If this CIF has been generated from an entry in the Cambridge 
# Structural Database, then it will include bibliographic, chemical, 
# crystal, experimental, refinement or atomic coordinate data resulting 
# from the CCDC's data processing and validation procedures.
#
#######################################################################

data_NUYTIL
_symmetry_cell_setting           triclinic
_symmetry_space_group_name_H-M   'P -1'
_symmetry_Int_Tables_number      2
_space_group_name_Hall           '-P 1'
loop_
_symmetry_equiv_pos_site_id
_symmetry_equiv_pos_as_xyz
1 x,y,z
2 -x,-y,-z
_cell_length_a                   11.542(2)
_cell_length_b                   13.199(3)
_cell_length_c                   13.687(3)
_cell_angle_alpha                115.50(3)
_cell_angle_beta                 91.29(3)
_cell_angle_gamma                115.05(3)
_cell_volume                     1650.63
loop_
_atom_site_label
_atom_site_type_symbol
_atom_site_fract_x
_atom_site_fract_y
_atom_site_fract_z
H1 H 0.276(6) 0.374(10) 0.661(8)
Pr1 Pr 0.64622(2) 0.14788(2) 0.47707(2)
Pr2 Pr 0.00014(2) 0.14928(2) 0.39867(2)
Pr3 Pr 0.45345(2) 0.33002(2) 0.51112(2)
C1 C 0.4640(5) 0.0822(4) 0.2796(4)
C2 C 0.3707(5) 0.0293(5) 0.1714(4)
C3 C 0.3858(6) -0.0561(5) 0.0753(5)
H2 H 0.4537 -0.0753 0.0805
C4 C 0.3008(7) -0.1133(6) -0.0285(5)
H3 H 0.3157 -0.1663 -0.0924
C5 C 0.1953(6) -0.0924(6) -0.0375(5)
H4 H 0.1369 -0.1329 -0.1066
C6 C 0.1776(5) -0.0099(5) 0.0581(4)
H5 H 0.1054 0.0035 0.0526
C7 C 0.2634(5) 0.0529(4) 0.1612(4)
C8 C 0.2427(5) 0.1493(5) 0.2566(4)
C9 C 1.0406(4) 0.1546(4) 0.6540(4)
C10 C 1.0133(5) 0.2123(4) 0.7642(4)
C11 C 0.9176(5) 0.2526(5) 0.7770(4)
C12 C 0.9031(6) 0.3173(6) 0.8832(5)
H6 H 0.8398 0.3444 0.8919
C13 C 0.9831(7) 0.3413(6) 0.9762(5)
H7 H 0.9735 0.3849 1.0472
C14 C 1.0771(6) 0.3006(6) 0.9640(5)
H8 H 1.1313 0.3175 1.0264
C15 C 1.0897(6) 0.2343(5) 0.8576(5)
H9 H 1.1505 0.2041 0.8491
C16 C 0.8252(5) 0.2188(5) 0.6769(4)
C17 C 0.7311(5) -0.0423(4) 0.2580(4)
C18 C 0.4957(4) -0.1828(4) 0.3343(4)
C19 C 0.5081(5) -0.2308(4) 0.2157(4)
C20 C 0.6097(5) -0.1641(4) 0.1792(4)
C21 C 0.6066(6) -0.2151(5) 0.0660(4)
H10 H 0.688(6) -0.165(5) 0.032(5)
C22 C 0.5026(7) -0.3331(6) -0.0113(5)
H11 H 0.4993 -0.3666 -0.0872
C23 C 0.4035(7) -0.4000(6) 0.0265(6)
H12 H 0.3340 -0.4796 -0.0246
C24 C 0.4064(6) -0.3506(5) 0.1385(5)
H13 H 0.3400 -0.3976 0.1625
C25 C 0.8909(5) 0.3152(4) 0.3884(4)
C26 C 0.8247(5) 0.3905(5) 0.3836(5)
H14 H 0.7554 0.3382 0.3149
H15 H 0.8891 0.4652 0.3807
C27 C 0.7644(5) 0.4348(5) 0.4823(4)
H16 H 0.8334 0.4800 0.5512
C28 C 0.7246(5) 0.5307(4) 0.4796(4)
O1 O 0.4274(3) 0.1131(3) 0.3704(3)
O2 O 0.2254(4) 0.1281(3) 0.4720(3)
H17 H 0.232(6) 0.068(6) 0.447(5)
H18 H 0.214(6) 0.124(5) 0.527(5)
O3 O 0.5749(3) 0.0902(3) 0.2769(3)
O4 O 0.3425(4) 0.3691(4) 0.6798(4)
H19 H 0.409(4) 0.425(5) 0.733(4)
O5 O 0.6110(4) 0.5269(3) 0.6944(3)
H20 H 0.6226 0.5918 0.6928
H21 H 0.6793 0.5239 0.7056
O6 O 0.3405(3) 0.2562(3) 0.3233(3)
O8 O 0.1250(4) 0.1207(4) 0.2638(3)
O9 O 1.0475(4) 0.2074(3) 0.5940(3)
O10 O 1.0652(4) 0.0632(3) 0.6260(3)
O11 O 0.7794(3) 0.1091(3) 0.5927(3)
O12 O 0.7916(3) 0.2989(3) 0.6780(3)
O13 O 0.7406(3) 0.0082(3) 0.3626(3)
O14 O 0.8260(4) 0.0035(3) 0.2200(3)
O15 O 0.4858(3) -0.2489(3) 0.3797(3)
O16 O 0.4836(3) -0.0832(3) 0.3835(3)
O17 O 0.8690(3) 0.2705(3) 0.4567(3)
O18 O 0.9643(3) 0.2944(3) 0.3256(3)
O19 O 0.6591(3) 0.3356(3) 0.4862(3)
O20 O 0.6031(3) 0.4966(3) 0.4619(3)
O21 O 0.8110(3) 0.6378(3) 0.4973(3)
Pr1A Pr 0.35378(2) -0.14788(2) 0.52293(2)
Pr2_2 Pr 1.00014(2) 0.14928(2) 0.39867(2)
Pr2A Pr 0.99986(2) -0.14928(2) 0.60133(2)
Pr2A_2 Pr 0.99986(2) 0.85072(2) 0.60133(2)
Pr3A Pr 0.54655(2) -0.33002(2) 0.48888(2)
Pr3A_2 Pr 0.54655(2) 0.66998(2) 0.48888(2)
O9_2 O 0.0475(4) 0.2074(3) 0.5940(3)
O10A O -0.0652(4) -0.0632(3) 0.3740(3)
O13_2 O -0.2594(3) 0.0082(3) 0.3626(3)
O14_2 O -0.1740(4) 0.0035(3) 0.2200(3)
O15A O 0.5142(3) 0.2489(3) 0.6203(3)
O16A O 0.5164(3) 0.0832(3) 0.6165(3)
O17_2 O -0.1310(3) 0.2705(3) 0.4567(3)
O18_2 O -0.0357(3) 0.2944(3) 0.3256(3)
O20A O 0.3969(3) 0.5034(3) 0.5381(3)
O21A O 0.1890(3) 0.3622(3) 0.5027(3)
O7 O 0.8535(4) 0.5553(4) 0.7635(3)
H22 H 0.866(7) 0.491(4) 0.735(5)
H23 H 0.920(4) 0.606(5) 0.752(6)
loop_
_geom_bond_atom_site_label_1
_geom_bond_atom_site_label_2
_geom_bond_site_symmetry_1
_geom_bond_site_symmetry_2
H1 O4 1_555 1_555
Pr1 O1 1_555 1_555
Pr2 O8 1_555 1_555
Pr3 O1 1_555 1_555
C1 C2 1_555 1_555
C2 C3 1_555 1_555
C3 H2 1_555 1_555
C4 C3 1_555 1_555
H3 C4 1_555 1_555
C5 C4 1_555 1_555
H4 C5 1_555 1_555
C6 C5 1_555 1_555
H5 C6 1_555 1_555
C7 C2 1_555 1_555
C8 C7 1_555 1_555
C9 C10 1_555 1_555
C10 C11 1_555 1_555
C11 C12 1_555 1_555
C12 H6 1_555 1_555
C13 C12 1_555 1_555
H7 C13 1_555 1_555
C14 C13 1_555 1_555
H8 C14 1_555 1_555
C15 C10 1_555 1_555
H9 C15 1_555 1_555
C16 C11 1_555 1_555
C17 C20 1_555 1_555
C18 C19 1_555 1_555
C19 C20 1_555 1_555
C20 C21 1_555 1_555
C21 H10 1_555 1_555
C22 C21 1_555 1_555
H11 C22 1_555 1_555
C23 C22 1_555 1_555
H12 C23 1_555 1_555
C24 C19 1_555 1_555
H13 C24 1_555 1_555
C25 C26 1_555 1_555
C26 H14 1_555 1_555
H15 C26 1_555 1_555
C27 C26 1_555 1_555
H16 C27 1_555 1_555
C28 C27 1_555 1_555
O1 C1 1_555 1_555
O2 Pr3 1_555 1_555
H17 O2 1_555 1_555
H18 O2 1_555 1_555
O3 Pr1 1_555 1_555
O4 Pr3 1_555 1_555
H19 O4 1_555 1_555
O5 Pr3 1_555 1_555
H20 O5 1_555 1_555
H21 O5 1_555 1_555
O6 Pr3 1_555 1_555
O7 H22 1_555 1_555
H23 O7 1_555 1_555
O8 C8 1_555 1_555
O9 C9 1_555 1_555
O10 C9 1_555 1_555
O11 Pr1 1_555 1_555
O12 Pr1 1_555 1_555
O13 Pr1 1_555 1_555
O14 C17 1_555 1_555
O15 C18 1_555 1_555
O16 Pr1 1_555 1_555
O17 Pr1 1_555 1_555
O18 C25 1_555 1_555
O19 Pr1 1_555 1_555
O20 Pr3 1_555 1_555
O21 C28 1_555 1_555
Pr1A O15 1_555 1_555
Pr2_2 O9 1_555 1_555
Pr2A O10 1_555 1_555
Pr2A_2 O21 1_555 1_555
Pr3A O15 1_555 1_555
Pr3A_2 O20 1_555 1_555
O9_2 Pr2 1_555 1_555
O10A Pr2 1_555 1_555
O13_2 Pr2 1_555 1_555
O14_2 Pr2 1_555 1_555
O15A Pr1 1_555 1_555
O16A Pr1 1_555 1_555
O17_2 Pr2 1_555 1_555
O18_2 Pr2 1_555 1_555
O20A Pr3 1_555 1_555
O21A Pr2 1_555 1_555
Pr3 O19 1_555 1_555
Pr3 O15A 1_555 1_555
C1 O3 1_555 1_555
C6 C7 1_555 1_555
C8 O6 1_555 1_555
C14 C15 1_555 1_555
C16 O11 1_555 1_555
C16 O12 1_555 1_555
C17 O13 1_555 1_555
C18 O16 1_555 1_555
C23 C24 1_555 1_555
C25 O17 1_555 1_555
C27 O19 1_555 1_555
C28 O20 1_555 1_555
O13 Pr2_2 1_555 1_555
O14 Pr2_2 1_555 1_555
O16 Pr1A 1_555 1_555
O17 Pr2_2 1_555 1_555
O18 Pr2_2 1_555 1_555
Pr1A O16A 1_555 1_555
Pr3A_2 O20A 1_555 1_555

#END
