
#######################################################################
#
#                 Cambridge Crystallographic Data Centre
#                                CCDC 
#
#######################################################################
#
# If this CIF has been generated from an entry in the Cambridge 
# Structural Database, then it will include bibliographic, chemical, 
# crystal, experimental, refinement or atomic coordinate data resulting 
# from the CCDC's data processing and validation procedures.
#
#######################################################################

data_NUYVUZ
_symmetry_cell_setting           monoclinic
_symmetry_space_group_name_H-M   'P 21/c'
_symmetry_Int_Tables_number      14
_space_group_name_Hall           '-P 2ybc'
loop_
_symmetry_equiv_pos_site_id
_symmetry_equiv_pos_as_xyz
1 x,y,z
2 -x,1/2+y,1/2-z
3 -x,-y,-z
4 x,1/2-y,1/2+z
_cell_length_a                   14.8550(7)
_cell_length_b                   18.3497(9)
_cell_length_c                   17.3074(8)
_cell_angle_alpha                90
_cell_angle_beta                 109.7860(10)
_cell_angle_gamma                90
_cell_volume                     4439.22
loop_
_atom_site_label
_atom_site_type_symbol
_atom_site_fract_x
_atom_site_fract_y
_atom_site_fract_z
Cd1 Cd 0.960061(14) 0.751726(11) 1.105374(13)
Cd2 Cd 0.513737(14) 0.490902(10) 0.668421(12)
O1 O 0.97498(17) 0.64952(12) 1.19184(15)
O2 O 0.85238(16) 0.65389(12) 1.07730(14)
O3 O 1.04324(17) 0.41291(13) 1.33637(17)
O4 O 0.93333(15) 0.32631(11) 1.30939(14)
O5 O 0.64498(14) 0.44485(13) 1.09739(14)
H1 H 0.6257 0.4161 1.1246
O6 O 0.49944(15) 0.61972(10) 0.69617(12)
O7 O 0.53782(15) 0.59072(10) 0.58792(12)
O8 O 0.49312(17) 0.87621(11) 0.77660(13)
O9 O 0.52477(15) 0.96467(10) 0.70419(12)
O10 O 0.59602(19) 0.83031(12) 0.47311(13)
H2 H 0.5932 0.8747 0.4671
O11 O 0.8341(2) 0.80311(16) 1.1462(2)
H3 H 0.8557 0.8462 1.1482
O12 O 0.55839(18) 0.42179(12) 0.57583(13)
H4 H 0.5259 0.4221 0.5249
H5 H 0.5883 0.3828 0.5954
N1 N 1.08613(17) 0.69566(14) 1.06806(16)
N2 N 0.67109(18) 0.51058(14) 0.75844(15)
N3 N 0.87886(16) 0.80696(13) 0.98197(15)
N4 N 1.34960(17) 0.99633(13) 1.09453(15)
C1 C 1.0768(2) 0.64149(18) 1.01349(19)
C2 C 1.1748(2) 0.7148(2) 1.1158(2)
H6 H 1.1815 0.7516 1.1542
C3 C 1.2559(2) 0.6826(3) 1.1106(3)
H7 H 1.3161 0.6980 1.1442
C4 C 1.2467(3) 0.6273(3) 1.0548(3)
H8 H 1.3004 0.6042 1.0502
C5 C 1.1568(2) 0.6070(2) 1.0062(2)
H9 H 1.1491 0.5698 0.9680
C6 C 0.9794(2) 0.62163(18) 0.9626(2)
H10 H 0.9307 0.6526 0.9646
C7 C 0.9539(2) 0.5645(2) 0.9146(2)
H11 H 1.0025 0.5334 0.9125
C8 C 0.8559(2) 0.54517(19) 0.8638(2)
C9 C 0.7758(2) 0.57842(18) 0.8719(2)
H12 H 0.7822 0.6130 0.9127
C10 C 0.6861(2) 0.55954(18) 0.81868(19)
H13 H 0.6332 0.5823 0.8252
C11 C 0.7478(2) 0.4762(2) 0.7536(2)
H14 H 0.7391 0.4404 0.7137
C12 C 0.8390(2) 0.4909(2) 0.8044(3)
H15 H 0.8900 0.4643 0.7993
C13 C 0.9142(2) 0.85772(16) 0.94395(18)
C14 C 0.7873(2) 0.78630(17) 0.9474(2)
H16 H 0.7631 0.7514 0.9741
C15 C 0.7278(2) 0.81424(19) 0.8746(2)
H17 H 0.6645 0.7991 0.8527
C16 C 0.7640(2) 0.8652(2) 0.8345(2)
H18 H 0.7259 0.8842 0.7843
C17 C 0.8568(2) 0.88720(19) 0.8696(2)
H19 H 0.8818 0.9222 0.8435
C18 C 1.0135(2) 0.88087(17) 0.98595(19)
H20 H 1.0463 0.8567 1.0346
C19 C 1.0616(2) 0.93166(17) 0.96307(19)
H21 H 1.0308 0.9557 0.9139
C20 C 1.1607(2) 0.95342(16) 1.00942(18)
C21 C 1.2078(2) 0.93262(18) 1.09004(19)
H22 H 1.1770 0.9035 1.1173
C22 C 1.3002(2) 0.95514(18) 1.12943(19)
H23 H 1.3300 0.9408 1.1837
C23 C 1.3045(2) 1.01703(17) 1.01706(19)
H24 H 1.3373 1.0460 0.9914
C24 C 1.2115(2) 0.99754(17) 0.9734(2)
H25 H 1.1828 1.0139 0.9198
C25 C 0.8992(2) 0.62285(16) 1.14281(19)
C26 C 0.8641(2) 0.55077(15) 1.16320(17)
C27 C 0.9242(2) 0.50639(15) 1.22313(18)
H26 H 0.9859 0.5219 1.2529
C28 C 0.8925(2) 0.43872(15) 1.23886(17)
C29 C 0.9625(2) 0.38910(17) 1.29936(18)
C30 C 0.7988(2) 0.41731(16) 1.19811(18)
H27 H 0.7770 0.3725 1.2096
C31 C 0.73779(19) 0.46323(16) 1.14005(18)
C32 C 0.7713(2) 0.52932(15) 1.12088(18)
H28 H 0.7314 0.5589 1.0798
C33 C 0.5227(2) 0.63765(15) 0.63557(17)
C34 C 0.53370(19) 0.71703(14) 0.61913(17)
C35 C 0.51867(19) 0.76882(15) 0.67253(17)
H29 H 0.5014 0.7543 0.7170
C36 C 0.52982(18) 0.84260(15) 0.65857(16)
C37 C 0.51454(18) 0.89809(14) 0.71654(16)
C38 C 0.5559(2) 0.86377(15) 0.59216(17)
H30 H 0.5638 0.9130 0.5832
C39 C 0.5704(2) 0.81209(16) 0.53912(18)
C40 C 0.5597(2) 0.73863(15) 0.55321(18)
H31 H 0.5701 0.7038 0.5181
C41 C 0.8010(4) 0.7813(4) 1.2074(4)
H32 H 0.7679 0.7358 1.1926
H33 H 0.7580 0.8175 1.2150
H34 H 0.8540 0.7754 1.2576
Cd1A Cd 1.039939(14) 0.251726(11) 1.394626(13)
Cd2A Cd 0.486263(14) 0.990902(10) 0.831579(12)
Cd2C Cd 1.513737(14) 1.009098(10) 1.168421(12)
O4A O 1.06667(15) 0.82631(11) 1.19061(14)
O8A O 0.50688(17) 0.37621(11) 0.72340(13)
O9A O 0.47523(15) 0.46467(10) 0.79581(12)
N4C N 0.34960(17) 0.50367(13) 0.59453(15)
O13 O 0.57876(16) 0.52451(11) 0.94782(13)
H35 H 0.5511 0.5103 0.8987
H36 H 0.5940 0.4920 0.9850
O14 O 0.5851(2) 0.34738(17) 0.18463(18)
H37 H 0.5843 0.3037 0.1681
H38 H 0.5569 0.3559 0.2190
O15 O 0.6358(5) 0.2046(3) 0.1645(4)
O16 O 0.1508(7) 0.6798(5) 0.3189(5)
O17? O 0.692(2) 0.1932(12) 0.1138(18)
O18? O 0.1376(13) 0.7226(9) 0.3648(9)
loop_
_geom_bond_atom_site_label_1
_geom_bond_atom_site_label_2
_geom_bond_site_symmetry_1
_geom_bond_site_symmetry_2
Cd1 O1 1_555 1_555
Cd2 O6 1_555 1_555
O1 C25 1_555 1_555
O2 Cd1 1_555 1_555
O3 C29 1_555 1_555
O4 C29 1_555 1_555
O5 H1 1_555 1_555
O6 C33 1_555 1_555
O7 Cd2 1_555 1_555
O8 C37 1_555 1_555
O9 C37 1_555 1_555
O10 H2 1_555 1_555
O11 Cd1 1_555 1_555
H3 O11 1_555 1_555
O12 Cd2 1_555 1_555
H4 O12 1_555 1_555
H5 O12 1_555 1_555
N1 Cd1 1_555 1_555
N2 Cd2 1_555 1_555
N3 Cd1 1_555 1_555
N4 C22 1_555 1_555
C1 N1 1_555 1_555
C2 N1 1_555 1_555
H6 C2 1_555 1_555
C3 C2 1_555 1_555
H7 C3 1_555 1_555
C4 C3 1_555 1_555
H8 C4 1_555 1_555
C5 C1 1_555 1_555
H9 C5 1_555 1_555
C6 C1 1_555 1_555
H10 C6 1_555 1_555
C7 C6 1_555 1_555
H11 C7 1_555 1_555
C8 C7 1_555 1_555
C9 C8 1_555 1_555
H12 C9 1_555 1_555
C10 N2 1_555 1_555
H13 C10 1_555 1_555
C11 N2 1_555 1_555
H14 C11 1_555 1_555
C12 C8 1_555 1_555
H15 C12 1_555 1_555
C13 N3 1_555 1_555
C14 N3 1_555 1_555
H16 C14 1_555 1_555
C15 C14 1_555 1_555
H17 C15 1_555 1_555
C16 C15 1_555 1_555
H18 C16 1_555 1_555
C17 C13 1_555 1_555
H19 C17 1_555 1_555
C18 C13 1_555 1_555
H20 C18 1_555 1_555
C19 C18 1_555 1_555
H21 C19 1_555 1_555
C20 C19 1_555 1_555
C21 C20 1_555 1_555
H22 C21 1_555 1_555
C22 C21 1_555 1_555
H23 C22 1_555 1_555
C23 N4 1_555 1_555
H24 C23 1_555 1_555
C24 C20 1_555 1_555
H25 C24 1_555 1_555
C25 O2 1_555 1_555
C26 C25 1_555 1_555
C27 C26 1_555 1_555
H26 C27 1_555 1_555
C28 C27 1_555 1_555
C29 C28 1_555 1_555
C30 C28 1_555 1_555
H27 C30 1_555 1_555
C31 O5 1_555 1_555
C32 C26 1_555 1_555
H28 C32 1_555 1_555
C33 O7 1_555 1_555
C34 C33 1_555 1_555
C35 C34 1_555 1_555
H29 C35 1_555 1_555
C36 C35 1_555 1_555
C37 C36 1_555 1_555
C38 C36 1_555 1_555
H30 C38 1_555 1_555
C39 O10 1_555 1_555
C40 C34 1_555 1_555
H31 C40 1_555 1_555
C41 O11 1_555 1_555
H32 C41 1_555 1_555
H33 C41 1_555 1_555
H34 C41 1_555 1_555
O13 H35 1_555 1_555
H36 O13 1_555 1_555
O14 H37 1_555 1_555
H38 O14 1_555 1_555
Cd1A O4 1_555 1_555
Cd2A O8 1_555 1_555
Cd2C N4 1_555 1_555
O4A Cd1 1_555 1_555
O8A Cd2 1_555 1_555
O9A Cd2 1_555 1_555
N4C Cd2 1_555 1_555
O9 Cd2A 1_555 1_555
C4 C5 1_555 1_555
C9 C10 1_555 1_555
C11 C12 1_555 1_555
C16 C17 1_555 1_555
C23 C24 1_555 1_555
C30 C31 1_555 1_555
C31 C32 1_555 1_555
C38 C39 1_555 1_555
C39 C40 1_555 1_555

#END
