
#######################################################################
#
#                 Cambridge Crystallographic Data Centre
#                                CCDC 
#
#######################################################################
#
# If this CIF has been generated from an entry in the Cambridge 
# Structural Database, then it will include bibliographic, chemical, 
# crystal, experimental, refinement or atomic coordinate data resulting 
# from the CCDC's data processing and validation procedures.
#
#######################################################################

data_NUYVAF
_symmetry_cell_setting           triclinic
_symmetry_space_group_name_H-M   'P 1'
_symmetry_Int_Tables_number      1
_space_group_name_Hall           'P 1'
loop_
_symmetry_equiv_pos_site_id
_symmetry_equiv_pos_as_xyz
1 x,y,z
_cell_length_a                   6.2994(13)
_cell_length_b                   8.9181(18)
_cell_length_c                   12.448(3)
_cell_angle_alpha                77.22(3)
_cell_angle_beta                 78.95(3)
_cell_angle_gamma                71.00(3)
_cell_volume                     639.381
loop_
_atom_site_label
_atom_site_type_symbol
_atom_site_fract_x
_atom_site_fract_y
_atom_site_fract_z
Pr1 Pr 0.93107(4) 0.53387(3) 0.22824(3)
Pr2 Pr 0.70656(4) 0.99538(3) 0.03310(2)
C1 C 0.746(2) 0.6016(15) 0.0069(11)
C2 C 0.639(2) 0.6161(15) -0.0892(11)
C3 C 0.7759(14) 0.5674(12) -0.1874(7)
H1 H 0.9311 0.5201 -0.1873
C4 C 0.680(2) 0.5899(14) -0.2838(9)
H2 H 0.7695 0.5573 -0.3480
C5 C 0.4487(15) 0.6618(12) -0.2825(7)
H3 H 0.3847 0.6793 -0.3473
C6 C 0.3118(15) 0.7077(10) -0.1884(6)
H4 H 0.1576 0.7574 -0.1904
C7 C 0.4021(13) 0.6803(8) -0.0901(6)
C8 C 0.2361(12) 0.7090(8) 0.0140(5)
C9 C 1.2334(12) 0.1122(9) 0.2421(6)
C10 C 1.1211(13) 0.0380(9) 0.3505(6)
C11 C 1.1779(14) 0.0569(9) 0.4447(6)
H5 H 1.2700 0.1213 0.4412
C12 C 1.0951(19) -0.0234(12) 0.5513(7)
H6 H 1.1370 -0.0144 0.6167
C13 C 0.952(2) -0.1136(14) 0.5531(9)
H7 H 0.8985 -0.1667 0.6206
C14 C 0.8910(15) -0.1254(12) 0.4586(7)
H8 H 0.7916 -0.1842 0.4615
C15 C 0.975(2) -0.0499(15) 0.3551(9)
C16 C 0.884(2) -0.0473(16) 0.2488(10)
C17 C 1.108(3) 0.4728(19) 0.4360(11)
C18 C 1.209(3) 0.407(2) 0.5476(11)
H9 H 1.1695 0.4955 0.5878
H10 H 1.1321 0.3300 0.5909
C19 C 1.4607(14) 0.3257(11) 0.5449(7)
H11 H 1.5407 0.4036 0.5091
H12 H 1.5056 0.2405 0.5009
C20 C 1.5285(16) 0.2552(11) 0.6604(7)
H13 H 1.6921 0.2257 0.6553
H14 H 1.4653 0.3377 0.7066
C21 C 1.453(3) 0.1102(17) 0.7164(11)
H15 H 1.2895 0.1386 0.7250
H16 H 1.5144 0.0264 0.6710
C22 C 1.533(3) 0.051(2) 0.8255(13)
O1 O 0.5282(10) 0.6831(7) 0.3061(6)
H17 H 0.438(13) 0.635(11) 0.315(7)
H18 H 0.515(17) 0.773(5) 0.274(7)
O2 O 0.6946(10) 0.7124(6) 0.0646(4)
O3 O 0.6837(16) 0.3615(11) 0.2630(8)
H19 H 0.558(8) 0.381(12) 0.296(9)
H20 H 0.70(3) 0.35(2) 0.327(5)
O4 O 0.8930(11) 0.4673(7) 0.0410(5)
O5 O 0.4774(18) 1.2853(11) 0.0215(9)
H21 H 0.374(14) 1.296(15) 0.070(7)
H22 H 0.46(2) 1.376(5) -0.008(9)
O6 O 0.2532(9) 0.5983(7) 0.0973(4)
O7 O 0.9436(15) 1.1828(11) -0.0509(7)
H23 H 1.0780 1.1308 -0.0567
H24 H 0.91(2) 1.244(12) -0.007(8)
O8 O 0.0830(13) 0.8392(9) 0.0060(6)
O9 O 1.1848(15) 0.2606(10) 0.2204(7)
O10 O 1.3737(9) 0.0118(7) 0.1854(4)
O11 O 0.8345(11) 0.0768(8) 0.1865(5)
O12 O 0.8635(11) -0.1804(8) 0.2369(5)
O13 O 1.2363(13) 0.4984(11) 0.3476(6)
O14 O 0.9129(12) 0.4711(9) 0.4355(6)
O15 O 1.7471(12) -0.0191(10) 0.8313(6)
O16 O 1.4020(17) 0.0545(12) 0.9157(8)
Pr1_2 Pr -0.06893(4) 0.53387(3) 0.22824(3)
Pr1_3 Pr 0.93107(4) -0.46613(3) 0.22824(3)
Pr2_2 Pr -0.29344(4) 0.99538(3) 0.03310(2)
Pr2_3 Pr 1.70656(4) -0.00462(3) 0.03310(2)
Pr2_4 Pr 0.70656(4) -0.00462(3) 0.03310(2)
Pr2_5 Pr 1.70656(4) -0.00462(3) 1.03310(2)
O6_2 O 1.2532(9) 0.5983(7) 0.0973(4)
O8_2 O 1.0830(13) 0.8392(9) 0.0060(6)
O10_2 O 0.3737(9) 1.0118(7) 0.1854(4)
O11_2 O 0.8345(11) 1.0768(8) 0.1865(5)
O12_2 O 0.8635(11) 0.8196(8) 0.2369(5)
O15_2 O 0.7471(12) 0.9809(10) -0.1687(6)
O16_2 O 0.4020(17) 1.0545(12) -0.0843(8)
loop_
_geom_bond_atom_site_label_1
_geom_bond_atom_site_label_2
_geom_bond_site_symmetry_1
_geom_bond_site_symmetry_2
Pr1 O1 1_555 1_555
Pr2 O2 1_555 1_555
C1 C2 1_555 1_555
C2 C3 1_555 1_555
C3 H1 1_555 1_555
C4 C3 1_555 1_555
H2 C4 1_555 1_555
C5 C4 1_555 1_555
H3 C5 1_555 1_555
C6 C5 1_555 1_555
H4 C6 1_555 1_555
C7 C2 1_555 1_555
C8 C7 1_555 1_555
C9 C10 1_555 1_555
C10 C11 1_555 1_555
C11 H5 1_555 1_555
C12 C11 1_555 1_555
H6 C12 1_555 1_555
C13 C12 1_555 1_555
H7 C13 1_555 1_555
C14 C13 1_555 1_555
H8 C14 1_555 1_555
C15 C10 1_555 1_555
C16 C15 1_555 1_555
C17 C18 1_555 1_555
C18 H9 1_555 1_555
H10 C18 1_555 1_555
C19 C18 1_555 1_555
H11 C19 1_555 1_555
H12 C19 1_555 1_555
C20 C19 1_555 1_555
H13 C20 1_555 1_555
H14 C20 1_555 1_555
C21 C20 1_555 1_555
H15 C21 1_555 1_555
H16 C21 1_555 1_555
C22 C21 1_555 1_555
O1 H17 1_555 1_555
H18 O1 1_555 1_555
O2 Pr1 1_555 1_555
O3 Pr1 1_555 1_555
H19 O3 1_555 1_555
H20 O3 1_555 1_555
O4 Pr1 1_555 1_555
O5 Pr2 1_555 1_555
H21 O5 1_555 1_555
H22 O5 1_555 1_555
O6 C8 1_555 1_555
O7 Pr2 1_555 1_555
H23 O7 1_555 1_555
H24 O7 1_555 1_555
O8 C8 1_555 1_555
O9 Pr1 1_555 1_555
O10 C9 1_555 1_555
O11 C16 1_555 1_555
O12 C16 1_555 1_555
O13 Pr1 1_555 1_555
O14 Pr1 1_555 1_555
O15 C22 1_555 1_555
O16 C22 1_555 1_555
Pr1_2 O6 1_555 1_555
Pr1_3 O12 1_555 1_555
Pr2_2 O8 1_555 1_555
Pr2_3 O10 1_555 1_555
Pr2_4 O11 1_555 1_555
Pr2_5 O15 1_555 1_555
O6_2 Pr1 1_555 1_555
O8_2 Pr2 1_555 1_555
O10_2 Pr2 1_555 1_555
O11_2 Pr2 1_555 1_555
O12_2 Pr1 1_555 1_555
O15_2 Pr2 1_555 1_555
O16_2 Pr2 1_555 1_555
Pr2 O12_2 1_555 1_555
C1 O2 1_555 1_555
C1 O4 1_555 1_555
C6 C7 1_555 1_555
C9 O9 1_555 1_555
C14 C15 1_555 1_555
C17 O13 1_555 1_555
C17 O14 1_555 1_555
O12 Pr2_4 1_555 1_555
O16 Pr2_5 1_555 1_555

#END
