
#######################################################################
#
#                 Cambridge Crystallographic Data Centre
#                                CCDC 
#
#######################################################################
#
# If this CIF has been generated from an entry in the Cambridge 
# Structural Database, then it will include bibliographic, chemical, 
# crystal, experimental, refinement or atomic coordinate data resulting 
# from the CCDC's data processing and validation procedures.
#
#######################################################################

data_NUYVIN
_symmetry_cell_setting           monoclinic
_symmetry_space_group_name_H-M   'P 21/c'
_symmetry_Int_Tables_number      14
_space_group_name_Hall           '-P 2ybc'
loop_
_symmetry_equiv_pos_site_id
_symmetry_equiv_pos_as_xyz
1 x,y,z
2 -x,1/2+y,1/2-z
3 -x,-y,-z
4 x,1/2-y,1/2+z
_cell_length_a                   14.9647(17)
_cell_length_b                   18.433(2)
_cell_length_c                   17.2557(19)
_cell_angle_alpha                90
_cell_angle_beta                 111.517(2)
_cell_angle_gamma                90
_cell_volume                     4428.16
loop_
_atom_site_label
_atom_site_type_symbol
_atom_site_fract_x
_atom_site_fract_y
_atom_site_fract_z
Cd1 Cd 0.03938(2) 0.250877(18) 0.38962(2)
Cd2 Cd 0.48154(2) -0.017599(17) 0.82811(2)
O1 O 0.5227(2) -0.04546(17) 0.7051(2)
O2 O 0.4888(2) -0.13406(17) 0.7755(2)
O3 O 0.5099(2) -0.38884(16) 0.7018(2)
O4 O 0.5417(2) -0.41793(16) 0.59069(19)
O5 O 0.1606(2) 0.15564(17) 0.4299(2)
O6 O 0.0372(3) 0.14825(18) 0.3115(2)
O7 O -0.0372(3) -0.08417(19) 0.1671(2)
O8 O 0.0680(2) -0.17404(18) 0.1985(2)
O9 O 0.1601(3) 0.3081(2) 0.3512(3)
H1 H 0.1946 0.3457 0.3849
O10 O 0.4416(3) -0.08439(18) 0.9227(2)
H2 H 0.4641 -0.0840 0.9756
H3 H 0.4069 -0.1204 0.8990
N1 N 0.3233(3) 0.0000(2) 0.7343(2)
N2 N -0.0888(3) 0.1972(2) 0.4227(3)
N3 N -0.3538(3) 0.49987(19) 0.4016(2)
N4 N 0.1178(2) 0.3069(2) 0.5163(2)
C1 C 0.1379(3) 0.0424(3) 0.6317(3)
C2 C 0.2178(3) 0.0674(3) 0.6182(3)
H4 H 0.2114 0.0995 0.5749
C3 C 0.3072(3) 0.0439(3) 0.6697(3)
H5 H 0.3601 0.0600 0.6585
C4 C 0.2456(4) -0.0255(3) 0.7453(4)
H6 H 0.2541 -0.0574 0.7892
C5 C 0.1541(4) -0.0075(4) 0.6954(4)
H7 H 0.1023 -0.0288 0.7042
C6 C 0.0399(3) 0.0665(3) 0.5825(3)
H8 H -0.0103 0.0404 0.5885
C7 C 0.0170(3) 0.1214(3) 0.5308(3)
H9 H 0.0673 0.1484 0.5263
C8 C -0.0808(3) 0.1446(3) 0.4792(3)
C9 C -0.1769(4) 0.2176(3) 0.3735(4)
H10 H -0.1827 0.2527 0.3332
C10 C -0.2597(4) 0.1896(4) 0.3790(4)
H11 H -0.3197 0.2065 0.3444
C11 C -0.2519(4) 0.1364(4) 0.4363(4)
H12 H -0.3066 0.1156 0.4405
C12 C -0.1620(4) 0.1140(3) 0.4877(4)
H13 H -0.1553 0.0788 0.5280
C13 C -0.1640(3) 0.4537(3) 0.4866(3)
C14 C -0.2146(3) 0.4343(3) 0.4039(3)
H14 H -0.1860 0.4052 0.3755
C15 C -0.3078(4) 0.4587(3) 0.3643(3)
H15 H -0.3402 0.4458 0.3089
C16 C -0.3054(3) 0.5180(3) 0.4804(3)
H16 H -0.3362 0.5464 0.5076
C17 C -0.2127(3) 0.4971(3) 0.5238(3)
H17 H -0.1820 0.5120 0.5787
C18 C -0.0652(3) 0.4305(3) 0.5326(3)
H18 H -0.0326 0.4536 0.5830
C19 C -0.0174(3) 0.3798(3) 0.5092(3)
H19 H -0.0504 0.3561 0.4593
C20 C 0.0816(3) 0.3572(3) 0.5540(3)
C21 C 0.2096(3) 0.2871(3) 0.5533(3)
H20 H 0.2341 0.2526 0.5270
C22 C 0.2707(3) 0.3153(3) 0.6291(3)
H21 H 0.3346 0.3008 0.6526
C23 C 0.2335(3) 0.3650(3) 0.6680(3)
H22 H 0.2715 0.3838 0.7196
C24 C 0.1398(3) 0.3868(3) 0.6303(3)
H23 H 0.1149 0.4216 0.6557
C25 C 0.5127(3) -0.1123(2) 0.7173(3)
C26 C 0.5335(3) -0.1670(2) 0.6621(3)
C27 C 0.5669(4) -0.1474(3) 0.5998(3)
H24 H 0.5746 -0.0985 0.5906
C28 C 0.5888(4) -0.1982(3) 0.5514(3)
H25 H 0.6124 -0.1836 0.5110
C29 C 0.5759(4) -0.2710(3) 0.5627(3)
H26 H 0.5898 -0.3054 0.5294
C30 C 0.5420(3) -0.2929(2) 0.6243(3)
C31 C 0.5216(3) -0.2405(2) 0.6735(3)
H27 H 0.4995 -0.2550 0.7150
C32 C 0.5301(3) -0.3712(2) 0.6397(3)
C33 C 0.1148(3) 0.1233(3) 0.3642(3)
C34 C 0.1484(3) 0.0510(2) 0.3464(3)
C35 C 0.0871(3) 0.0064(2) 0.2846(3)
H28 H 0.0258 0.0229 0.2529
C36 C 0.1153(3) -0.0622(2) 0.2693(3)
C37 C 0.2086(3) -0.0851(3) 0.3143(3)
H29 H 0.2293 -0.1303 0.3039
C38 C 0.2707(3) -0.0400(3) 0.3749(3)
H30 H 0.3336 -0.0549 0.4037
C39 C 0.2406(3) 0.0261(3) 0.3928(3)
H31 H 0.2816 0.0543 0.4358
C40 C 0.0425(3) -0.1096(3) 0.2072(3)
C41 C 0.1831(6) 0.2899(5) 0.2829(5)
H32 H 0.2091 0.2417 0.2898
H33 H 0.2299 0.3235 0.2782
H34 H 0.1263 0.2920 0.2333
Cd1A Cd -0.03938(2) -0.249123(18) 0.11038(2)
Cd2A Cd 0.51846(2) -0.517599(17) 0.67189(2)
Cd2C Cd -0.51846(2) 0.517599(17) 0.32811(2)
O3A O 0.4901(2) 0.11116(16) 0.7982(2)
O4A O 0.4583(2) 0.08207(16) 0.90931(19)
O8A O -0.0680(2) 0.32596(18) 0.3015(2)
N3C N 0.6462(3) 0.00013(19) 0.9016(2)
O11 O 0.4669(6) 0.6543(3) 0.8403(4)
H35 H 0.5254 0.6654 0.8513
H36 H 0.4268 0.6890 0.8291
O12 O 0.5313(3) 0.9682(2) 0.4414(2)
H37 H 0.5149 0.9863 0.3929
H38 H 0.5790 0.9395 0.4566
O13 O 0.3707(5) 0.7810(4) 0.8505(5)
O14 O 0.1463(13) 0.8088(10) 0.8576(11)
O15? O 0.306(3) 0.7708(16) 0.918(2)
O16? O 0.1910(19) 0.7842(15) 0.8202(16)
loop_
_geom_bond_atom_site_label_1
_geom_bond_atom_site_label_2
_geom_bond_site_symmetry_1
_geom_bond_site_symmetry_2
Cd1 O5 1_555 1_555
Cd2 O1 1_555 1_555
O1 C25 1_555 1_555
O2 Cd2 1_555 1_555
O3 C32 1_555 1_555
O4 C32 1_555 1_555
O5 C33 1_555 1_555
O6 Cd1 1_555 1_555
O7 C40 1_555 1_555
O8 C40 1_555 1_555
O9 Cd1 1_555 1_555
H1 O9 1_555 1_555
O10 Cd2 1_555 1_555
H2 O10 1_555 1_555
H3 O10 1_555 1_555
N1 Cd2 1_555 1_555
N2 Cd1 1_555 1_555
N3 C15 1_555 1_555
N4 Cd1 1_555 1_555
C1 C2 1_555 1_555
C2 H4 1_555 1_555
C3 N1 1_555 1_555
H5 C3 1_555 1_555
C4 N1 1_555 1_555
H6 C4 1_555 1_555
C5 C1 1_555 1_555
H7 C5 1_555 1_555
C6 C1 1_555 1_555
H8 C6 1_555 1_555
C7 C6 1_555 1_555
H9 C7 1_555 1_555
C8 N2 1_555 1_555
C9 N2 1_555 1_555
H10 C9 1_555 1_555
C10 C9 1_555 1_555
H11 C10 1_555 1_555
C11 C10 1_555 1_555
H12 C11 1_555 1_555
C12 C8 1_555 1_555
H13 C12 1_555 1_555
C13 C14 1_555 1_555
C14 H14 1_555 1_555
C15 C14 1_555 1_555
H15 C15 1_555 1_555
C16 N3 1_555 1_555
H16 C16 1_555 1_555
C17 C13 1_555 1_555
H17 C17 1_555 1_555
C18 C13 1_555 1_555
H18 C18 1_555 1_555
C19 C18 1_555 1_555
H19 C19 1_555 1_555
C20 N4 1_555 1_555
C21 N4 1_555 1_555
H20 C21 1_555 1_555
C22 C21 1_555 1_555
H21 C22 1_555 1_555
C23 C22 1_555 1_555
H22 C23 1_555 1_555
C24 C20 1_555 1_555
H23 C24 1_555 1_555
C25 O2 1_555 1_555
C26 C25 1_555 1_555
C27 C26 1_555 1_555
H24 C27 1_555 1_555
C28 C27 1_555 1_555
H25 C28 1_555 1_555
C29 C28 1_555 1_555
H26 C29 1_555 1_555
C30 C29 1_555 1_555
C31 C26 1_555 1_555
H27 C31 1_555 1_555
C32 C30 1_555 1_555
C33 O6 1_555 1_555
C34 C33 1_555 1_555
C35 C34 1_555 1_555
H28 C35 1_555 1_555
C36 C35 1_555 1_555
C37 C36 1_555 1_555
H29 C37 1_555 1_555
C38 C37 1_555 1_555
H30 C38 1_555 1_555
C39 C34 1_555 1_555
H31 C39 1_555 1_555
C40 C36 1_555 1_555
C41 O9 1_555 1_555
H32 C41 1_555 1_555
H33 C41 1_555 1_555
H34 C41 1_555 1_555
O11 H35 1_555 1_555
H36 O11 1_555 1_555
O12 H37 1_555 1_555
H38 O12 1_555 1_555
Cd1A O8 1_555 1_555
Cd2A O3 1_555 1_555
Cd2C N3 1_555 1_555
O3A Cd2 1_555 1_555
O4A Cd2 1_555 1_555
O8A Cd1 1_555 1_555
N3C Cd2 1_555 1_555
O4 Cd2A 1_555 1_555
C2 C3 1_555 1_555
C4 C5 1_555 1_555
C7 C8 1_555 1_555
C11 C12 1_555 1_555
C16 C17 1_555 1_555
C19 C20 1_555 1_555
C23 C24 1_555 1_555
C30 C31 1_555 1_555
C38 C39 1_555 1_555

#END
