
#######################################################################
#
#                 Cambridge Crystallographic Data Centre
#                                CCDC 
#
#######################################################################
#
# If this CIF has been generated from an entry in the Cambridge 
# Structural Database, then it will include bibliographic, chemical, 
# crystal, experimental, refinement or atomic coordinate data resulting 
# from the CCDC's data processing and validation procedures.
#
#######################################################################

data_NUYVEJ
_symmetry_cell_setting           triclinic
_symmetry_space_group_name_H-M   'P -1'
_symmetry_Int_Tables_number      2
_space_group_name_Hall           '-P 1'
loop_
_symmetry_equiv_pos_site_id
_symmetry_equiv_pos_as_xyz
1 x,y,z
2 -x,-y,-z
_cell_length_a                   10.241(3)
_cell_length_b                   10.613(3)
_cell_length_c                   15.096(4)
_cell_angle_alpha                108.329(3)
_cell_angle_beta                 107.359(3)
_cell_angle_gamma                96.187(3)
_cell_volume                     1449.3
loop_
_atom_site_label
_atom_site_type_symbol
_atom_site_fract_x
_atom_site_fract_y
_atom_site_fract_z
Zn1 Zn 0.12518(3) 0.35826(3) 0.45779(2)
N1 N 0.0491(7) 0.3920(6) 0.3200(3)
C1 C -0.0068(7) 0.2800(5) 0.2312(4)
H1 H -0.0039 0.1928 0.2316
C2 C -0.0670(6) 0.2982(4) 0.1418(3)
H2 H -0.1044 0.2232 0.0823
C3 C -0.0713(3) 0.4284(5) 0.1412(3)
C4 C -0.0154(6) 0.5404(4) 0.2300(3)
H3 H -0.0182 0.6275 0.2296
C5 C 0.0448(7) 0.5222(5) 0.3194(3)
H4 H 0.0822 0.5971 0.3789
C6 C -0.1334(5) 0.4554(7) 0.0499(3)
H5 H -0.1346 0.5461 0.0591
C7 C -0.1869(6) 0.3711(7) -0.0417(3)
H6 H -0.1893 0.2796 -0.0518
C8 C -0.2438(5) 0.4033(6) -0.1310(3)
C9 C -0.2714(8) 0.5309(6) -0.1235(4)
H7 H -0.2537 0.5969 -0.0612
C10 C -0.3254(11) 0.5599(7) -0.2092(6)
H8 H -0.3438 0.6453 -0.2042
C11 C -0.3518(11) 0.4613(10) -0.3023(4)
H9 H -0.3879 0.4807 -0.3596
C12 C -0.3243(12) 0.3336(9) -0.3098(3)
H10 H -0.3420 0.2677 -0.3721
N2 N -0.2703(9) 0.3046(6) -0.2242(4)
O1 O 0.20520(19) 0.1562(2) 0.38786(16)
O2 O 0.33246(19) 0.3649(2) 0.45878(14)
O3 O 0.82627(18) 0.44102(17) 0.45406(14)
O4 O 0.92519(17) 0.26321(18) 0.43176(14)
C13 C 0.3206(3) 0.2397(3) 0.42013(19)
C14 C 0.4504(2) 0.1867(2) 0.41363(17)
C15 C 0.5713(2) 0.2749(2) 0.42838(16)
H11 H 0.5726 0.3667 0.4414
C16 C 0.6912(2) 0.2262(2) 0.42384(16)
C17 C 0.6882(3) 0.0895(3) 0.4065(2)
H12 H 0.7684 0.0569 0.4047
C18 C 0.5684(3) 0.0012(3) 0.3921(2)
H13 H 0.5671 -0.0905 0.3801
C19 C 0.4489(3) 0.0514(3) 0.3958(2)
H14 H 0.3674 -0.0074 0.3860
C20 C 0.8242(2) 0.3188(2) 0.43849(16)
N3 N 0.1793(4) 0.3041(4) 0.58884(19)
C21 C 0.2974(3) 0.3825(4) 0.6710(2)
H15 H 0.3514 0.4574 0.6692
C22 C 0.3347(3) 0.3491(4) 0.75575(19)
H16 H 0.4138 0.4016 0.8107
C23 C 0.2540(3) 0.2373(3) 0.7584(2)
C24 C 0.1359(4) 0.1588(3) 0.6762(3)
H17 H 0.0819 0.0840 0.6780
C25 C 0.0986(4) 0.1922(4) 0.5915(2)
H18 H 0.0196 0.1398 0.5365
C26 C 0.2883(5) 0.1951(4) 0.8460(3)
H19 H 0.2229 0.1259 0.8446
C27 C 0.4043(4) 0.2477(5) 0.9260(3)
H20 H 0.4699 0.3180 0.9288
C28 C 0.4344(4) 0.2014(3) 1.00947(19)
C29 C 0.5658(3) 0.2478(5) 1.0844(3)
H21 H 0.6350 0.3090 1.0815
C30 C 0.5936(4) 0.2026(6) 1.1638(3)
H22 H 0.6816 0.2336 1.2139
C31 C 0.4901(5) 0.1111(5) 1.1682(2)
H23 H 0.5087 0.0809 1.2212
C32 C 0.3587(4) 0.0648(4) 1.0932(3)
H24 H 0.2894 0.0035 1.0961
N4 N 0.3308(3) 0.1099(4) 1.0139(2)
Zn1A Zn 0.87482(3) 0.64174(3) 0.54221(2)
Zn1_2 Zn 1.12518(3) 0.35826(3) 0.45779(2)
O3A O 0.17373(18) 0.55898(17) 0.54594(14)
O4_2 O -0.07481(17) 0.26321(18) 0.43176(14)
O5 O 0.1124(4) 0.9059(4) 0.2245(3)
O6 O 0.0311(6) 0.0848(7) 0.9511(3)
H25 H -0.0365 0.0388 0.8969
H26 H 0.1133 0.0742 0.9527
C33? C 0.0156(10) 0.2430(6) 0.2302(5)
C34? C -0.3089(13) 0.5771(8) -0.2201(6)
C35? C -0.3455(11) 0.4561(10) -0.3017(4)
C36? C -0.3277(11) 0.3352(8) -0.2871(4)
C37? C 0.3165(15) 0.4222(13) 0.6810(10)
C38? C 0.3690(12) 0.3967(12) 0.7683(9)
C39? C 0.3030(9) 0.2832(9) 0.7784(6)
C40? C 0.1844(10) 0.1952(9) 0.7011(7)
C41? C 0.1318(11) 0.2208(11) 0.6138(7)
C42? C 0.3590(14) 0.2579(14) 0.8685(9)
C43? C 0.3165(14) 0.1860(14) 0.9118(8)
C44? C -0.0440(8) 0.2428(6) 0.1344(4)
C45? C 0.3723(12) 0.1475(10) 0.9941(7)
C46? C 0.5125(12) 0.1981(14) 1.0552(9)
C47? C 0.5662(15) 0.1591(18) 1.1361(10)
C48? C 0.480(2) 0.0695(18) 1.1559(11)
C49? C 0.3395(19) 0.019(2) 1.0948(14)
C50? C -0.0776(4) 0.3606(6) 0.1209(3)
C51? C -0.0515(7) 0.4785(6) 0.2032(4)
C52? C 0.0081(8) 0.4787(7) 0.2989(4)
C53? C -0.1411(7) 0.3575(8) 0.0180(5)
C54? C -0.1789(8) 0.4578(9) -0.0071(6)
C55? C -0.2367(6) 0.4563(7) -0.1094(4)
C56? C -0.2545(10) 0.5772(6) -0.1240(5)
H27? H 0.0381 0.1643 0.2392
H28? H -0.3208 0.6580 -0.2298
H29? H -0.3819 0.4561 -0.3660
H30? H -0.3522 0.2542 -0.3417
H31? H 0.3607 0.4981 0.6743
H32? H 0.4484 0.4555 0.8200
H33? H 0.1402 0.1193 0.7079
H34? H 0.0525 0.1619 0.5622
H35? H 0.4508 0.3073 0.9050
H36? H 0.2210 0.1476 0.8799
H37? H -0.0614 0.1639 0.0794
H38? H 0.5703 0.2581 1.0420
H39? H 0.6599 0.1930 1.1771
H40? H 0.5156 0.0434 1.2100
H41? H 0.2817 -0.0410 1.1080
H42? H -0.0740 0.5573 0.1941
H43? H 0.0255 0.5577 0.3539
H44? H -0.1553 0.2755 -0.0336
H45? H -0.1684 0.5386 0.0445
H46? H -0.2300 0.6582 -0.0694
N5? N 0.0417(8) 0.3610(8) 0.3124(4)
N6? N -0.2733(9) 0.3353(6) -0.1910(5)
N7? N 0.1979(14) 0.3343(13) 0.6038(8)
N8? N 0.2858(13) 0.0579(17) 1.0138(12)
loop_
_geom_bond_atom_site_label_1
_geom_bond_atom_site_label_2
_geom_bond_site_symmetry_1
_geom_bond_site_symmetry_2
Zn1 N1 1_555 1_555
N1 C1 1_555 1_555
C1 H1 1_555 1_555
C2 C1 1_555 1_555
H2 C2 1_555 1_555
C3 C2 1_555 1_555
C4 C3 1_555 1_555
H3 C4 1_555 1_555
C5 N1 1_555 1_555
H4 C5 1_555 1_555
C6 C3 1_555 1_555
H5 C6 1_555 1_555
C7 C6 1_555 1_555
H6 C7 1_555 1_555
C8 C7 1_555 1_555
C9 C8 1_555 1_555
H7 C9 1_555 1_555
C10 C9 1_555 1_555
H8 C10 1_555 1_555
C11 C10 1_555 1_555
H9 C11 1_555 1_555
C12 C11 1_555 1_555
H10 C12 1_555 1_555
N2 C8 1_555 1_555
O1 Zn1 1_555 1_555
O2 Zn1 1_555 1_555
O3 C20 1_555 1_555
O4 C20 1_555 1_555
C13 O1 1_555 1_555
C14 C13 1_555 1_555
C15 C14 1_555 1_555
H11 C15 1_555 1_555
C16 C15 1_555 1_555
C17 C16 1_555 1_555
H12 C17 1_555 1_555
C18 C17 1_555 1_555
H13 C18 1_555 1_555
C19 C14 1_555 1_555
H14 C19 1_555 1_555
C20 C16 1_555 1_555
N3 Zn1 1_555 1_555
C21 N3 1_555 1_555
H15 C21 1_555 1_555
C22 C21 1_555 1_555
H16 C22 1_555 1_555
C23 C22 1_555 1_555
C24 C23 1_555 1_555
H17 C24 1_555 1_555
C25 N3 1_555 1_555
H18 C25 1_555 1_555
C26 C23 1_555 1_555
H19 C26 1_555 1_555
C27 C26 1_555 1_555
H20 C27 1_555 1_555
C28 C27 1_555 1_555
C29 C28 1_555 1_555
H21 C29 1_555 1_555
C30 C29 1_555 1_555
H22 C30 1_555 1_555
C31 C30 1_555 1_555
H23 C31 1_555 1_555
C32 C31 1_555 1_555
H24 C32 1_555 1_555
N4 C28 1_555 1_555
O6 H25 1_555 1_555
H26 O6 1_555 1_555
Zn1A O3 1_555 1_555
Zn1_2 O4 1_555 1_555
O3A Zn1 1_555 1_555
O4_2 Zn1 1_555 1_555
C4 C5 1_555 1_555
C12 N2 1_555 1_555
O2 C13 1_555 1_555
C18 C19 1_555 1_555
C24 C25 1_555 1_555
C32 N4 1_555 1_555

#END
