
#######################################################################
#
#                 Cambridge Crystallographic Data Centre
#                                CCDC 
#
#######################################################################
#
# If this CIF has been generated from an entry in the Cambridge 
# Structural Database, then it will include bibliographic, chemical, 
# crystal, experimental, refinement or atomic coordinate data resulting 
# from the CCDC's data processing and validation procedures.
#
#######################################################################

data_NUYWIO01
_symmetry_cell_setting           monoclinic
_symmetry_space_group_name_H-M   'C 2/c'
_symmetry_Int_Tables_number      15
_space_group_name_Hall           '-C 2yn'
loop_
_symmetry_equiv_pos_site_id
_symmetry_equiv_pos_as_xyz
1 x,y,z
2 -x,y,1/2-z
3 1/2+x,1/2+y,z
4 1/2-x,1/2+y,1/2-z
5 -x,-y,-z
6 x,-y,1/2+z
7 1/2-x,1/2-y,-z
8 1/2+x,1/2-y,1/2+z
_cell_length_a                   18.803(9)
_cell_length_b                   8.128(4)
_cell_length_c                   16.328(8)
_cell_angle_alpha                90
_cell_angle_beta                 103.930(5)
_cell_angle_gamma                90
_cell_volume                     2422.03
loop_
_atom_site_label
_atom_site_type_symbol
_atom_site_fract_x
_atom_site_fract_y
_atom_site_fract_z
Cd1 Cd 0.5000 0.842406(19) 0.7500
Cd2 Cd 0.5000 0.34569(2) 0.7500
O1 O 0.59182(7) 1.25914(17) 0.85554(8)
O2 O 0.50971(7) 1.05929(17) 0.84499(8)
O3 O 0.50499(8) 0.62346(19) 0.84778(10)
O4 O 0.42138(7) 0.42927(16) 0.82645(9)
N1 N 0.87693(7) 0.69010(18) 1.21886(9)
N2 N 0.77112(7) 0.78489(17) 1.14461(8)
C1 C 0.84477(8) 0.7935(2) 1.15968(10)
H1 H 0.8703 0.8657 1.1310
C2 C 0.82113(11) 0.6096(3) 1.24329(14)
H2 H 0.8276 0.5264 1.2853
C3 C 0.75581(10) 0.6664(3) 1.19874(14)
H3 H 0.7087 0.6319 1.2036
C4 C 0.72038(9) 0.8723(2) 1.07957(10)
C5 C 0.64650(9) 0.8333(2) 1.06133(11)
H4 H 0.6289 0.7518 1.0933
C6 C 0.59825(9) 0.9145(2) 0.99572(11)
H5 H 0.5477 0.8868 0.9826
C7 C 0.62291(9) 1.0349(2) 0.94945(10)
C8 C 0.69703(10) 1.0744(2) 0.96938(12)
H6 H 0.7145 1.1572 0.9381
C9 C 0.74559(9) 0.9942(2) 1.03437(13)
H7 H 0.7961 1.0227 1.0479
C10 C 0.57139(10) 1.1234(2) 0.87858(10)
C11 C 0.44877(9) 0.5583(2) 0.86260(11)
C12 C 0.41313(15) 0.6353(3) 0.92591(18)
H8 H 0.3606 0.6100 0.9111
H9 H 0.4200 0.7548 0.9260
H10 H 0.4354 0.5914 0.9821
O1A O 0.40818(7) 1.25914(17) 0.64446(8)
O2A O 0.49029(7) 1.05929(17) 0.65501(8)
O3A O 0.49501(8) 0.62346(19) 0.65222(10)
O4A O 0.57862(7) 0.42927(16) 0.67355(9)
N1A N 0.12307(7) 0.69010(18) 0.28114(9)
N2A N 0.22888(7) 0.78489(17) 0.35539(8)
C1A C 0.15523(8) 0.7935(2) 0.34032(10)
H1A H 0.1297 0.8657 0.3690
C2A C 0.17887(11) 0.6096(3) 0.25671(14)
H2A H 0.1724 0.5264 0.2147
C3A C 0.24419(10) 0.6664(3) 0.30126(14)
H3A H 0.2913 0.6319 0.2964
C4A C 0.27962(9) 0.8723(2) 0.42043(10)
C5A C 0.35350(9) 0.8333(2) 0.43867(11)
H4A H 0.3711 0.7518 0.4067
C6A C 0.40175(9) 0.9145(2) 0.50428(11)
H5A H 0.4523 0.8868 0.5174
C7A C 0.37709(9) 1.0349(2) 0.55055(10)
C8A C 0.30297(10) 1.0744(2) 0.53062(12)
H6A H 0.2855 1.1572 0.5619
C9A C 0.25441(9) 0.9942(2) 0.46563(13)
H7A H 0.2039 1.0227 0.4521
C10A C 0.42861(10) 1.1234(2) 0.62142(10)
C11A C 0.55123(9) 0.5583(2) 0.63740(11)
C12A C 0.58687(15) 0.6353(3) 0.57409(18)
H8A H 0.6394 0.6100 0.5889
H9A H 0.5800 0.7548 0.5740
H10A H 0.5646 0.5914 0.5179
Cd1F Cd 0.0000 0.657594(19) 0.2500
Cd1F_2 Cd 1.0000 0.657594(19) 1.2500
Cd2_2 Cd 0.5000 1.34569(2) 0.7500
O1_2 O 0.59182(7) 0.25914(17) 0.85554(8)
O1A_2 O 0.40818(7) 0.25914(17) 0.64446(8)
O2_2 O 0.50971(7) 0.05929(17) 0.84499(8)
O2A_2 O 0.49029(7) 0.05929(17) 0.65501(8)
N1F N 0.62307(7) 0.80990(18) 0.78114(9)
N1G N 0.37693(7) 0.80990(18) 0.71886(9)
loop_
_geom_bond_atom_site_label_1
_geom_bond_atom_site_label_2
_geom_bond_site_symmetry_1
_geom_bond_site_symmetry_2
Cd1 O2 1_555 1_555
Cd2 O3 1_555 1_555
O1 C10 1_555 1_555
O2 C10 1_555 1_555
O3 Cd1 1_555 1_555
O4 Cd2 1_555 1_555
N1 C1 1_555 1_555
N2 C1 1_555 1_555
C1 H1 1_555 1_555
C2 N1 1_555 1_555
H2 C2 1_555 1_555
C3 N2 1_555 1_555
H3 C3 1_555 1_555
C4 N2 1_555 1_555
C5 C4 1_555 1_555
H4 C5 1_555 1_555
C6 C5 1_555 1_555
H5 C6 1_555 1_555
C7 C6 1_555 1_555
C8 C7 1_555 1_555
H6 C8 1_555 1_555
C9 C4 1_555 1_555
H7 C9 1_555 1_555
C10 C7 1_555 1_555
C11 O3 1_555 1_555
C12 C11 1_555 1_555
H8 C12 1_555 1_555
H9 C12 1_555 1_555
H10 C12 1_555 1_555
O1A C10A 1_555 1_555
O2A Cd1 1_555 1_555
O3A Cd1 1_555 1_555
O4A Cd2 1_555 1_555
N1A C1A 1_555 1_555
N2A C1A 1_555 1_555
C1A H1A 1_555 1_555
C2A N1A 1_555 1_555
H2A C2A 1_555 1_555
C3A N2A 1_555 1_555
H3A C3A 1_555 1_555
C4A N2A 1_555 1_555
C5A C4A 1_555 1_555
H4A C5A 1_555 1_555
C6A C5A 1_555 1_555
H5A C6A 1_555 1_555
C7A C6A 1_555 1_555
C8A C7A 1_555 1_555
H6A C8A 1_555 1_555
C9A C4A 1_555 1_555
H7A C9A 1_555 1_555
C10A O2A 1_555 1_555
C11A O3A 1_555 1_555
C12A C11A 1_555 1_555
H8A C12A 1_555 1_555
H9A C12A 1_555 1_555
H10A C12A 1_555 1_555
Cd1F N1A 1_555 1_555
Cd1F_2 N1 1_555 1_555
Cd2_2 O1 1_555 1_555
O1_2 Cd2 1_555 1_555
O1A_2 Cd2 1_555 1_555
O2_2 Cd2 1_555 1_555
O2A_2 Cd2 1_555 1_555
N1F Cd1 1_555 1_555
N1G Cd1 1_555 1_555
Cd2 O3A 1_555 1_555
O2 Cd2_2 1_555 1_555
O4 C11 1_555 1_555
C2 C3 1_555 1_555
C8 C9 1_555 1_555
O1A Cd2_2 1_555 1_555
O2A Cd2_2 1_555 1_555
O4A C11A 1_555 1_555
C2A C3A 1_555 1_555
C7A C10A 1_555 1_555
C8A C9A 1_555 1_555

#END
