
#######################################################################
#
#                 Cambridge Crystallographic Data Centre
#                                CCDC 
#
#######################################################################
#
# If this CIF has been generated from an entry in the Cambridge 
# Structural Database, then it will include bibliographic, chemical, 
# crystal, experimental, refinement or atomic coordinate data resulting 
# from the CCDC's data processing and validation procedures.
#
#######################################################################

data_NUYWAG
_symmetry_cell_setting           triclinic
_symmetry_space_group_name_H-M   'P -1'
_symmetry_Int_Tables_number      2
_space_group_name_Hall           '-P 1'
loop_
_symmetry_equiv_pos_site_id
_symmetry_equiv_pos_as_xyz
1 x,y,z
2 -x,-y,-z
_cell_length_a                   10.1817(15)
_cell_length_b                   12.3737(18)
_cell_length_c                   15.970(2)
_cell_angle_alpha                106.586(2)
_cell_angle_beta                 90.654(2)
_cell_angle_gamma                103.408(2)
_cell_volume                     1869.2
loop_
_atom_site_label
_atom_site_type_symbol
_atom_site_fract_x
_atom_site_fract_y
_atom_site_fract_z
Zn1 Zn -0.21954(4) -0.13960(3) -0.18478(2)
Zn2 Zn -0.26661(4) -0.38061(3) -0.39461(2)
O1 O -0.1942(3) -0.0174(2) -0.24040(18)
O2 O -0.3548(4) 0.0360(3) -0.1592(2)
O3 O -0.1522(3) 0.4407(3) -0.4205(2)
O4 O -0.3050(3) 0.5008(2) -0.33410(18)
O5 O -0.3945(2) -0.2510(2) -0.22787(16)
O6 O -0.4216(2) -0.3074(2) -0.37396(15)
O7 O -1.0909(2) -0.2677(2) -0.35704(16)
O8 O -1.0594(2) -0.2035(2) -0.21135(16)
N1 N -0.2688(3) -0.4147(3) -0.52594(18)
C1 C -0.3717(4) -0.4065(4) -0.5749(2)
H1 H -0.4498 -0.3936 -0.5483
C2 C -0.3668(4) -0.4163(4) -0.6626(3)
H2 H -0.4410 -0.4114 -0.6945
C3 C -0.2500(4) -0.4337(4) -0.7036(2)
C4 C -0.1464(4) -0.4451(4) -0.6532(2)
H3 H -0.0682 -0.4600 -0.6785
C5 C -0.1578(4) -0.4345(3) -0.5657(2)
H4 H -0.0858 -0.4413 -0.5329
C6 C -0.2321(5) -0.4378(4) -0.7952(3)
H5 H -0.1578 -0.4634 -0.8190
C7 C -0.3097(5) -0.4094(4) -0.8476(2)
H6 H -0.3880 -0.3879 -0.8275
C8 C -0.3000(7) -0.4091(8) -0.9352(3)
C9 C -0.3904(8) -0.3697(9) -0.9779(4)
H7 H -0.4600 -0.3425 -0.9485
C10 C -0.3767(9) -0.3710(9) -1.0647(4)
H8 H -0.4372 -0.3447 -1.0933
C11 C -0.2727(10) -0.4117(8) -1.1088(3)
H9 H -0.2636 -0.4126 -1.1668
C12 C -0.1824(9) -0.4511(9) -1.0661(4)
H10 H -0.1128 -0.4783 -1.0956
N2 N -0.1960(8) -0.4498(9) -0.9793(4)
N3 N -0.2053(6) -0.1074(8) -0.0532(2)
C13 C -0.0962(6) -0.1306(7) -0.0147(3)
H11 H -0.0272 -0.1521 -0.0483
C14 C -0.0901(4) -0.1219(5) 0.0741(3)
H12 H -0.0170 -0.1374 0.0999
C15 C -0.1932(5) -0.0898(4) 0.12429(19)
C16 C -0.3023(4) -0.0666(5) 0.0857(3)
H13 H -0.3713 -0.0451 0.1193
C17 C -0.3084(5) -0.0753(6) -0.0030(3)
H14 H -0.3815 -0.0598 -0.0288
C18 C -0.1866(6) -0.0910(5) 0.2166(3)
H15 H -0.1071 -0.1014 0.2388
C19 C -0.2830(6) -0.0787(5) 0.2702(3)
H16 H -0.3622 -0.0658 0.2498
C20 C -0.2718(5) -0.0844(5) 0.3592(2)
C21 C -0.3810(4) -0.0834(6) 0.4106(3)
H17 H -0.4613 -0.0727 0.3898
C22 C -0.3703(5) -0.0984(6) 0.4932(3)
H18 H -0.4433 -0.0977 0.5276
C23 C -0.2503(5) -0.1144(5) 0.5244(2)
H19 H -0.2431 -0.1244 0.5796
C24 C -0.1412(4) -0.1154(5) 0.4729(3)
H20 H -0.0609 -0.1261 0.4938
N4 N -0.1519(4) -0.1004(5) 0.3903(2)
C25 C -0.2729(4) 0.0494(4) -0.2141(3)
C26 C -0.2627(4) 0.1474(3) -0.2535(2)
C27 C -0.1760(4) 0.1593(4) -0.3189(3)
H21 H -0.1228 0.1066 -0.3383
C28 C -0.1691(4) 0.2487(4) -0.3547(3)
H22 H -0.1123 0.2550 -0.3991
C29 C -0.2451(4) 0.3300(3) -0.3260(2)
C30 C -0.3298(4) 0.3180(4) -0.2594(3)
H23 H -0.3807 0.3721 -0.2385
C31 C -0.3392(4) 0.2280(4) -0.2244(3)
H24 H -0.3974 0.2208 -0.1808
C32 C -0.2318(4) 0.4301(3) -0.3638(2)
C33 C -0.4634(3) -0.2727(3) -0.2994(2)
C34 C -0.6055(3) -0.2590(3) -0.2961(2)
C35 C -0.6831(3) -0.2752(3) -0.3726(2)
H25 H -0.6460 -0.2924 -0.4264
C36 C -0.8164(3) -0.2657(3) -0.3690(2)
H26 H -0.8679 -0.2760 -0.4205
C37 C -0.8731(3) -0.2412(3) -0.2898(2)
C38 C -0.7947(3) -0.2238(3) -0.2132(2)
H27 H -0.8316 -0.2060 -0.1595
C39 C -0.6615(3) -0.2330(4) -0.2166(2)
H28 H -0.6096 -0.2215 -0.1651
C40 C -1.0183(3) -0.2370(3) -0.2859(2)
Zn1_2 Zn -1.21954(4) -0.13960(3) -0.18478(2)
Zn2_2 Zn -0.26661(4) 0.61939(3) -0.39461(2)
Zn2_3 Zn -1.26661(4) -0.38061(3) -0.39461(2)
O4_2 O -0.3050(3) -0.4992(2) -0.33410(18)
O7_2 O -0.0909(2) -0.2677(2) -0.35704(16)
O8_2 O -0.0594(2) -0.2035(2) -0.21135(16)
O9 O -0.6486(13) -0.2052(13) 0.0013(6)
O10? O -0.7627(19) -0.2821(10) -0.0082(7)
O11? O -0.763(3) -0.198(2) -0.0043(9)
C41? C -0.3263(10) -0.3960(10) -1.0778(3)
C42? C -0.2016(10) -0.4166(8) -1.1020(3)
C43? C -0.1145(8) -0.4342(10) -1.0423(4)
C44? C -0.116(2) -0.117(3) -0.0026(11)
C45? C -0.1288(14) -0.0986(19) 0.0867(10)
C46? C -0.2485(13) -0.0792(15) 0.1217(7)
C47? C -0.3556(14) -0.0780(17) 0.0675(9)
C48? C -0.343(2) -0.096(2) -0.0218(8)
C49? C -0.2707(17) -0.0792(14) 0.2134(8)
C50? C -0.1890(19) -0.0965(18) 0.2711(8)
C51? C -0.2275(15) -0.0943(16) 0.3604(8)
C52? C -0.3575(15) -0.087(2) 0.3823(11)
C53? C -0.3977(15) -0.093(2) 0.4639(12)
C54? C -0.3080(18) -0.1078(18) 0.5237(9)
C55? C -0.1780(16) -0.1155(17) 0.5019(8)
C56? C -0.2768(5) -0.4106(4) -0.9342(2)
C57? C -0.3639(7) -0.3930(9) -0.9939(3)
H29? H -0.3846 -0.3842 -1.1177
H30? H -0.1764 -0.4186 -1.1581
H31? H -0.0310 -0.4480 -1.0585
H32? H -0.0360 -0.1300 -0.0260
H33? H -0.0571 -0.0994 0.1229
H34? H -0.4358 -0.0650 0.0909
H35? H -0.4147 -0.0956 -0.0581
H36? H -0.3526 -0.0652 0.2331
H37? H -0.1056 -0.1104 0.2549
H38? H -0.4175 -0.0770 0.3422
H39? H -0.4847 -0.0882 0.4785
H40? H -0.3349 -0.1123 0.5783
H41? H -0.1180 -0.1251 0.5419
H42? H -0.4474 -0.3792 -0.9777
N5? N -0.1520(6) -0.4312(9) -0.9584(4)
N6? N -0.223(2) -0.116(3) -0.0568(8)
N7? N -0.1377(13) -0.1088(17) 0.4203(9)
loop_
_geom_bond_atom_site_label_1
_geom_bond_atom_site_label_2
_geom_bond_site_symmetry_1
_geom_bond_site_symmetry_2
Zn1 O1 1_555 1_555
Zn2 O6 1_555 1_555
O1 C25 1_555 1_555
O2 C25 1_555 1_555
O3 C32 1_555 1_555
O4 C32 1_555 1_555
O5 Zn1 1_555 1_555
O6 C33 1_555 1_555
O7 C40 1_555 1_555
O8 C40 1_555 1_555
N1 Zn2 1_555 1_555
C1 N1 1_555 1_555
H1 C1 1_555 1_555
C2 C1 1_555 1_555
H2 C2 1_555 1_555
C3 C2 1_555 1_555
C4 C3 1_555 1_555
H3 C4 1_555 1_555
C5 N1 1_555 1_555
H4 C5 1_555 1_555
C6 C3 1_555 1_555
H5 C6 1_555 1_555
C7 C6 1_555 1_555
H6 C7 1_555 1_555
C8 C7 1_555 1_555
C9 C8 1_555 1_555
H7 C9 1_555 1_555
C10 C9 1_555 1_555
H8 C10 1_555 1_555
C11 C10 1_555 1_555
H9 C11 1_555 1_555
C12 C11 1_555 1_555
H10 C12 1_555 1_555
N2 C8 1_555 1_555
N3 Zn1 1_555 1_555
C13 N3 1_555 1_555
H11 C13 1_555 1_555
C14 C13 1_555 1_555
H12 C14 1_555 1_555
C15 C14 1_555 1_555
C16 C15 1_555 1_555
H13 C16 1_555 1_555
C17 N3 1_555 1_555
H14 C17 1_555 1_555
C18 C15 1_555 1_555
H15 C18 1_555 1_555
C19 C18 1_555 1_555
H16 C19 1_555 1_555
C20 C19 1_555 1_555
C21 C20 1_555 1_555
H17 C21 1_555 1_555
C22 C21 1_555 1_555
H18 C22 1_555 1_555
C23 C22 1_555 1_555
H19 C23 1_555 1_555
C24 C23 1_555 1_555
H20 C24 1_555 1_555
N4 C20 1_555 1_555
C25 C26 1_555 1_555
C26 C27 1_555 1_555
C27 H21 1_555 1_555
C28 C27 1_555 1_555
H22 C28 1_555 1_555
C29 C28 1_555 1_555
C30 C29 1_555 1_555
H23 C30 1_555 1_555
C31 C26 1_555 1_555
H24 C31 1_555 1_555
C32 C29 1_555 1_555
C33 O5 1_555 1_555
C34 C33 1_555 1_555
C35 C34 1_555 1_555
H25 C35 1_555 1_555
C36 C35 1_555 1_555
H26 C36 1_555 1_555
C37 C36 1_555 1_555
C38 C37 1_555 1_555
H27 C38 1_555 1_555
C39 C34 1_555 1_555
H28 C39 1_555 1_555
C40 C37 1_555 1_555
Zn1_2 O8 1_555 1_555
Zn2_2 O4 1_555 1_555
Zn2_3 O7 1_555 1_555
O4_2 Zn2 1_555 1_555
O7_2 Zn2 1_555 1_555
O8_2 Zn1 1_555 1_555
C4 C5 1_555 1_555
C12 N2 1_555 1_555
C16 C17 1_555 1_555
C24 N4 1_555 1_555
C30 C31 1_555 1_555
C38 C39 1_555 1_555

#END
