
#######################################################################
#
#                 Cambridge Crystallographic Data Centre
#                                CCDC 
#
#######################################################################
#
# If this CIF has been generated from an entry in the Cambridge 
# Structural Database, then it will include bibliographic, chemical, 
# crystal, experimental, refinement or atomic coordinate data resulting 
# from the CCDC's data processing and validation procedures.
#
#######################################################################

data_NUYWOU
_symmetry_cell_setting           tetragonal
_symmetry_space_group_name_H-M   'P 43 21 2'
_symmetry_Int_Tables_number      96
_space_group_name_Hall           'P 4nw 2abw'
loop_
_symmetry_equiv_pos_site_id
_symmetry_equiv_pos_as_xyz
1 x,y,z
2 -x,-y,1/2+z
3 1/2+x,1/2-y,1/4-z
4 1/2-x,1/2+y,3/4-z
5 -y,-x,1/2-z
6 y,x,-z
7 1/2+y,1/2-x,1/4+z
8 1/2-y,1/2+x,3/4+z
_cell_length_a                   14.865(5)
_cell_length_b                   14.865(5)
_cell_length_c                   13.139(4)
_cell_angle_alpha                90
_cell_angle_beta                 90
_cell_angle_gamma                90
_cell_volume                     2903.3
loop_
_atom_site_label
_atom_site_type_symbol
_atom_site_fract_x
_atom_site_fract_y
_atom_site_fract_z
Cd1 Cd 0.26947(5) 0.26947(5) 0.5000
O1 O 0.1406(5) 0.7180(5) 1.1013(5)
O2 O 0.2554(5) 0.6352(5) 1.1525(5)
N1 N 0.1801(5) 0.3442(6) 0.6128(6)
N2 N 0.1428(5) 0.4234(5) 0.7473(7)
N3 N 0.3802(6) 0.3802(6) 0.5000
C1 C 0.0864(7) 0.3430(7) 0.6239(7)
H1 H 0.0465 0.3130 0.5813
C2 C 0.0632(7) 0.3923(7) 0.7061(8)
H2 H 0.0054 0.4031 0.7301
C3 C 0.2113(6) 0.3927(7) 0.6888(7)
H3 H 0.2718 0.4042 0.7006
C4 C 0.1541(6) 0.4787(6) 0.8359(7)
C5 C 0.0960(7) 0.5501(7) 0.8498(8)
H4 H 0.0496 0.5604 0.8038
C6 C 0.1077(7) 0.6070(7) 0.9340(7)
H5 H 0.0688 0.6551 0.9444
C7 C 0.1775(6) 0.5911(6) 1.0016(8)
C8 C 0.2340(7) 0.5180(7) 0.9868(8)
H6 H 0.2793 0.5062 1.0337
C9 C 0.2237(8) 0.4616(7) 0.9022(8)
H7 H 0.2628 0.4138 0.8911
C10 C 0.1926(7) 0.6518(7) 1.0919(7)
C11 C 0.4636(14) 0.3580(15) 0.525(2)
H8 H 0.4755 0.2987 0.5434
C12 C 0.5377(15) 0.4225(13) 0.526(2)
H9 H 0.5968 0.4073 0.5410
C13 C 0.5099(14) 0.5099(14) 0.5000
H10 H 0.5541 0.5541 0.5000
Cd1C Cd 0.23053(5) 0.76947(5) 1.2500
Cd1B Cd -0.23053(5) 0.23053(5) -0.2500
O1F O 0.2180(5) 0.3594(5) 0.3513(5)
O1C O 0.3594(5) 0.2180(5) 0.6487(5)
O2F O 0.1352(5) 0.2446(5) 0.4025(5)
O2C O 0.2446(5) 0.1352(5) 0.5975(5)
N1F N -0.1558(6) 0.3199(5) -0.1372(6)
N1E N 0.3442(6) 0.1801(5) 0.3872(6)
N2F N -0.0766(5) 0.3572(5) -0.0027(7)
C1F C -0.1570(7) 0.4136(7) -0.1261(7)
H1F H -0.1870 0.4535 -0.1687
C2F C -0.1077(7) 0.4368(7) -0.0439(8)
H2F H -0.0969 0.4946 -0.0199
C3F C -0.1073(7) 0.2887(6) -0.0612(7)
H3F H -0.0958 0.2282 -0.0494
C4F C -0.0213(6) 0.3459(6) 0.0859(7)
C5F C 0.0501(7) 0.4040(7) 0.0998(8)
H4F H 0.0604 0.4504 0.0538
C6F C 0.1070(7) 0.3923(7) 0.1840(7)
H5F H 0.1551 0.4312 0.1944
C7F C 0.0911(6) 0.3225(6) 0.2516(8)
C8F C 0.0180(7) 0.2660(7) 0.2368(8)
H6F H 0.0062 0.2207 0.2837
C9F C -0.0384(7) 0.2763(8) 0.1522(8)
H7F H -0.0862 0.2372 0.1411
C10F C 0.1518(7) 0.3074(7) 0.3419(7)
C11E C 0.3580(15) 0.4636(14) 0.475(2)
H8E H 0.2987 0.4755 0.4566
C12E C 0.4225(13) 0.5377(15) 0.474(2)
H9E H 0.4073 0.5968 0.4590
O3 O 0.4071(7) 0.3536(7) 0.7924(8)
O4 O 0.5837(12) 0.4163(12) 0.7500
loop_
_geom_bond_atom_site_label_1
_geom_bond_atom_site_label_2
_geom_bond_site_symmetry_1
_geom_bond_site_symmetry_2
Cd1 N1 1_555 1_555
O1 C10 1_555 1_555
O2 C10 1_555 1_555
N1 C1 1_555 1_555
N2 C2 1_555 1_555
N3 Cd1 1_555 1_555
C1 H1 1_555 1_555
C2 C1 1_555 1_555
H2 C2 1_555 1_555
C3 N1 1_555 1_555
H3 C3 1_555 1_555
C4 N2 1_555 1_555
C5 C4 1_555 1_555
H4 C5 1_555 1_555
C6 C5 1_555 1_555
H5 C6 1_555 1_555
C7 C6 1_555 1_555
C8 C7 1_555 1_555
H6 C8 1_555 1_555
C9 C4 1_555 1_555
H7 C9 1_555 1_555
C10 C7 1_555 1_555
C11 N3 1_555 1_555
H8 C11 1_555 1_555
C12 C11 1_555 1_555
H9 C12 1_555 1_555
C13 C12 1_555 1_555
H10 C13 1_555 1_555
Cd1C O1 1_555 1_555
Cd1B N1F 1_555 1_555
O1F Cd1 1_555 1_555
O1C Cd1 1_555 1_555
O2F Cd1 1_555 1_555
O2C Cd1 1_555 1_555
N1F C1F 1_555 1_555
N1E Cd1 1_555 1_555
N2F C2F 1_555 1_555
C1F H1F 1_555 1_555
C2F C1F 1_555 1_555
H2F C2F 1_555 1_555
C3F N1F 1_555 1_555
H3F C3F 1_555 1_555
C4F N2F 1_555 1_555
C5F C4F 1_555 1_555
H4F C5F 1_555 1_555
C6F C5F 1_555 1_555
H5F C6F 1_555 1_555
C7F C6F 1_555 1_555
C8F C7F 1_555 1_555
H6F C8F 1_555 1_555
C9F C4F 1_555 1_555
H7F C9F 1_555 1_555
C10F O1F 1_555 1_555
C11E N3 1_555 1_555
H8E C11E 1_555 1_555
C12E C13 1_555 1_555
H9E C12E 1_555 1_555
O2 Cd1C 1_555 1_555
N2 C3 1_555 1_555
C8 C9 1_555 1_555
O2F C10F 1_555 1_555
N2F C3F 1_555 1_555
C7F C10F 1_555 1_555
C8F C9F 1_555 1_555
C11E C12E 1_555 1_555

#END
