
#######################################################################
#
#                 Cambridge Crystallographic Data Centre
#                                CCDC 
#
#######################################################################
#
# If this CIF has been generated from an entry in the Cambridge 
# Structural Database, then it will include bibliographic, chemical, 
# crystal, experimental, refinement or atomic coordinate data resulting 
# from the CCDC's data processing and validation procedures.
#
#######################################################################

data_NUYWIO
_symmetry_cell_setting           monoclinic
_symmetry_space_group_name_H-M   'C 2/c'
_symmetry_Int_Tables_number      15
_space_group_name_Hall           '-C 2yn'
loop_
_symmetry_equiv_pos_site_id
_symmetry_equiv_pos_as_xyz
1 x,y,z
2 -x,y,1/2-z
3 1/2+x,1/2+y,z
4 1/2-x,1/2+y,1/2-z
5 -x,-y,-z
6 x,-y,1/2+z
7 1/2-x,1/2-y,-z
8 1/2+x,1/2-y,1/2+z
_cell_length_a                   18.725(3)
_cell_length_b                   8.100(5)
_cell_length_c                   16.297(4)
_cell_angle_alpha                90
_cell_angle_beta                 103.873(5)
_cell_angle_gamma                90
_cell_volume                     2399.7
loop_
_atom_site_label
_atom_site_type_symbol
_atom_site_fract_x
_atom_site_fract_y
_atom_site_fract_z
Cd1 Cd 0.0000 0.15773(4) 0.2500
Cd2 Cd 0.0000 -0.34514(4) 0.2500
O1 O -0.00973(16) -0.0596(3) 0.15514(18)
O2 O -0.09173(13) -0.2588(3) 0.14487(16)
O3 O -0.07841(14) 0.5716(3) 0.32663(16)
O4 O 0.00488(17) 0.3771(4) 0.3477(2)
N1 N -0.37695(14) 0.3098(4) -0.21888(17)
N2 N -0.27112(13) 0.2145(3) -0.14464(16)
C1 C -0.3212(2) 0.3905(5) -0.2434(3)
H1 H -0.3274 0.4723 -0.2845
C2 C -0.2561(2) 0.3331(5) -0.1987(3)
H2 H -0.2098 0.3669 -0.2034
C3 C -0.34461(16) 0.2062(4) -0.1598(2)
H3 H -0.3697 0.1352 -0.1317
C4 C -0.22017(17) 0.1269(4) -0.0791(2)
C5 C -0.24528(19) 0.0058(4) -0.0339(3)
H4 H -0.2949 -0.0218 -0.0470
C6 C -0.1971(2) -0.0744(4) 0.0306(2)
H5 H -0.2144 -0.1560 0.0611
C7 C -0.12289(16) -0.0346(4) 0.05064(19)
C8 C -0.09843(19) 0.0849(4) 0.0046(2)
H6 H -0.0487 0.1122 0.0176
C9 C -0.14641(18) 0.1661(4) -0.0612(2)
H7 H -0.1291 0.2457 -0.0927
C10 C -0.07160(19) -0.1237(4) 0.1214(2)
C11 C -0.05132(18) 0.4428(4) 0.3628(2)
C12 C -0.0871(3) 0.3655(6) 0.4264(3)
H8 H -0.0827 0.2475 0.4241
H9 H -0.1381 0.3956 0.4139
H10 H -0.0632 0.4037 0.4820
Cd1F Cd -0.5000 0.34227(4) -0.2500
Cd2_2 Cd 0.0000 0.65486(4) 0.2500
Cd2F Cd -0.5000 0.84514(4) -0.2500
O1F O -0.49027(16) 0.5596(3) -0.15514(18)
O1A O 0.00973(16) -0.0596(3) 0.34486(18)
O2F O -0.40827(13) 0.7588(3) -0.14487(16)
O2A O 0.09173(13) -0.2588(3) 0.35513(16)
O3A O 0.07841(14) 0.5716(3) 0.17337(16)
O3_2 O -0.07841(14) -0.4284(3) 0.32663(16)
O3A_2 O 0.07841(14) -0.4284(3) 0.17337(16)
O4A O -0.00488(17) 0.3771(4) 0.1523(2)
O4_2 O 0.00488(17) -0.6229(4) 0.3477(2)
O4A_2 O -0.00488(17) -0.6229(4) 0.1523(2)
N1F N -0.12305(14) 0.1902(4) 0.21888(17)
N1G N 0.12305(14) 0.1902(4) 0.28112(17)
N2F N -0.22888(13) 0.2855(3) 0.14464(16)
C1F C -0.1788(2) 0.1095(5) 0.2434(3)
H1F H -0.1726 0.0277 0.2845
C2F C -0.2439(2) 0.1669(5) 0.1987(3)
H2F H -0.2902 0.1331 0.2034
C3F C -0.15539(16) 0.2938(4) 0.1598(2)
H3F H -0.1303 0.3648 0.1317
C4F C -0.27983(17) 0.3731(4) 0.0791(2)
C5F C -0.25472(19) 0.4942(4) 0.0339(3)
H4F H -0.2051 0.5218 0.0470
C6F C -0.3029(2) 0.5744(4) -0.0306(2)
H5F H -0.2856 0.6560 -0.0611
C7F C -0.37711(16) 0.5346(4) -0.05064(19)
C8F C -0.40157(19) 0.4151(4) -0.0046(2)
H6F H -0.4513 0.3878 -0.0176
C9F C -0.35359(18) 0.3339(4) 0.0612(2)
H7F H -0.3709 0.2543 0.0927
C10F C -0.42840(19) 0.6237(4) -0.1214(2)
C11A C 0.05132(18) 0.4428(4) 0.1372(2)
C12A C 0.0871(3) 0.3655(6) 0.0736(3)
H8A H 0.0827 0.2475 0.0759
H9A H 0.1381 0.3956 0.0861
H10A H 0.0632 0.4037 0.0180
loop_
_geom_bond_atom_site_label_1
_geom_bond_atom_site_label_2
_geom_bond_site_symmetry_1
_geom_bond_site_symmetry_2
Cd1 O1 1_555 1_555
Cd2 O1 1_555 1_555
O1 C10 1_555 1_555
O2 Cd2 1_555 1_555
O3 C11 1_555 1_555
O4 Cd1 1_555 1_555
N1 C1 1_555 1_555
N2 C2 1_555 1_555
C1 H1 1_555 1_555
C2 C1 1_555 1_555
H2 C2 1_555 1_555
C3 N1 1_555 1_555
H3 C3 1_555 1_555
C4 N2 1_555 1_555
C5 C4 1_555 1_555
H4 C5 1_555 1_555
C6 C5 1_555 1_555
H5 C6 1_555 1_555
C7 C6 1_555 1_555
C8 C7 1_555 1_555
H6 C8 1_555 1_555
C9 C4 1_555 1_555
H7 C9 1_555 1_555
C10 O2 1_555 1_555
C11 O4 1_555 1_555
C12 C11 1_555 1_555
H8 C12 1_555 1_555
H9 C12 1_555 1_555
H10 C12 1_555 1_555
Cd1F N1 1_555 1_555
Cd2_2 O3 1_555 1_555
Cd2F O1F 1_555 1_555
O1F Cd1F 1_555 1_555
O1A Cd1 1_555 1_555
O2F Cd2F 1_555 1_555
O2A Cd2 1_555 1_555
O3A Cd2_2 1_555 1_555
O3_2 Cd2 1_555 1_555
O3A_2 Cd2 1_555 1_555
O4A Cd1 1_555 1_555
O4_2 Cd2 1_555 1_555
O4A_2 Cd2 1_555 1_555
N1F Cd1 1_555 1_555
N1G Cd1 1_555 1_555
N2F C2F 1_555 1_555
C1F N1F 1_555 1_555
H1F C1F 1_555 1_555
C2F C1F 1_555 1_555
H2F C2F 1_555 1_555
C3F N1F 1_555 1_555
H3F C3F 1_555 1_555
C4F N2F 1_555 1_555
C5F C4F 1_555 1_555
H4F C5F 1_555 1_555
C6F C5F 1_555 1_555
H5F C6F 1_555 1_555
C7F C6F 1_555 1_555
C8F C7F 1_555 1_555
H6F C8F 1_555 1_555
C9F C4F 1_555 1_555
H7F C9F 1_555 1_555
C10F O1F 1_555 1_555
C11A O3A 1_555 1_555
C12A C11A 1_555 1_555
H8A C12A 1_555 1_555
H9A C12A 1_555 1_555
H10A C12A 1_555 1_555
Cd2 O1A 1_555 1_555
O4 Cd2_2 1_555 1_555
N2 C3 1_555 1_555
C7 C10 1_555 1_555
C8 C9 1_555 1_555
Cd2_2 O4A 1_555 1_555
O2F C10F 1_555 1_555
O4A C11A 1_555 1_555
N2F C3F 1_555 1_555
C7F C10F 1_555 1_555
C8F C9F 1_555 1_555

#END
