
#######################################################################
#
#                 Cambridge Crystallographic Data Centre
#                                CCDC 
#
#######################################################################
#
# If this CIF has been generated from an entry in the Cambridge 
# Structural Database, then it will include bibliographic, chemical, 
# crystal, experimental, refinement or atomic coordinate data resulting 
# from the CCDC's data processing and validation procedures.
#
#######################################################################

data_NUYWUA
_symmetry_cell_setting           orthorhombic
_symmetry_space_group_name_H-M   'A b a 2'
_symmetry_Int_Tables_number      41
_space_group_name_Hall           'A 2 -2ab'
loop_
_symmetry_equiv_pos_site_id
_symmetry_equiv_pos_as_xyz
1 x,y,z
2 -x,-y,z
3 1/2-x,1/2+y,z
4 1/2+x,1/2-y,z
5 x,1/2+y,1/2+z
6 -x,1/2-y,1/2+z
7 1/2-x,y,1/2+z
8 1/2+x,-y,1/2+z
_cell_length_a                   25.391(4)
_cell_length_b                   19.896(5)
_cell_length_c                   7.556(4)
_cell_angle_alpha                90
_cell_angle_beta                 90
_cell_angle_gamma                90
_cell_volume                     3817.14
loop_
_atom_site_label
_atom_site_type_symbol
_atom_site_fract_x
_atom_site_fract_y
_atom_site_fract_z
Zn1 Zn 0.131230(13) 1.438117(16) 0.84296(7)
O1 O 0.07589(11) 1.40811(14) 0.6871(4)
O2 O 0.11314(12) 1.30920(16) 0.6416(5)
O3 O 0.18112(10) 1.49841(11) 0.7282(3)
O4 O 0.12198(11) 1.57983(13) 0.7118(4)
N1 N -0.10017(12) 1.51450(15) 0.0521(4)
N2 N -0.05640(12) 1.43934(14) 0.2065(4)
N3 N 0.18388(12) 1.87485(14) 0.4486(4)
N4 N 0.22835(11) 1.78533(13) 0.5321(4)
C1 C -0.11451(15) 1.5191(2) 0.2278(5)
H1 H -0.1388 1.5496 0.2734
C2 C -0.08832(14) 1.47332(19) 0.3230(6)
H2 H -0.0912 1.4659 0.4442
C3 C -0.06539(15) 1.4654(2) 0.0448(5)
H3 H -0.0492 1.4507 -0.0585
C4 C -0.01857(16) 1.38825(19) 0.2476(5)
C5 C 0.00974(15) 1.39224(19) 0.4034(5)
H4 H 0.0029 1.4267 0.4834
C6 C 0.04782(15) 1.34575(18) 0.4404(5)
C7 C 0.05758(15) 1.29421(19) 0.3231(7)
H5 H 0.0832 1.2622 0.3490
C8 C 0.0293(2) 1.2899(2) 0.1663(7)
H6 H 0.0364 1.2558 0.0856
C9 C -0.01001(19) 1.3370(2) 0.1303(7)
H7 H -0.0301 1.3336 0.0279
C10 C 0.08133(15) 1.3534(2) 0.6025(5)
C11 C 0.23378(15) 1.89311(17) 0.4997(5)
H8 H 0.2466 1.9369 0.4983
C12 C 0.26127(15) 1.83954(17) 0.5515(5)
H9 H 0.2958 1.8390 0.5926
C13 C 0.18230(14) 1.80889(17) 0.4701(5)
H10 H 0.1531 1.7823 0.4454
C14 C 0.24021(14) 1.71677(15) 0.5767(5)
C15 C 0.20033(15) 1.67305(17) 0.6157(5)
H11 H 0.1656 1.6877 0.6132
C16 C 0.21165(14) 1.60647(16) 0.6595(5)
C17 C 0.26359(15) 1.58659(18) 0.6676(5)
H12 H 0.2719 1.5426 0.6988
C18 C 0.30322(15) 1.63149(19) 0.6298(6)
H13 H 0.3381 1.6176 0.6374
C19 C 0.29214(14) 1.6961(2) 0.5813(6)
H14 H 0.3191 1.7257 0.5519
C20 C 0.16743(16) 1.55943(16) 0.7038(5)
Zn1A Zn -0.131230(13) 1.561883(16) -0.15704(7)
Zn1D Zn 0.131230(13) 1.938117(16) 0.34296(7)
N1A N 0.10017(12) 1.48550(15) 1.0521(4)
N3D N 0.18388(12) 1.37485(14) 0.9486(4)
loop_
_geom_bond_atom_site_label_1
_geom_bond_atom_site_label_2
_geom_bond_site_symmetry_1
_geom_bond_site_symmetry_2
Zn1 O1 1_555 1_555
O1 C10 1_555 1_555
O2 C10 1_555 1_555
O3 Zn1 1_555 1_555
O4 C20 1_555 1_555
N1 C1 1_555 1_555
N2 C2 1_555 1_555
N3 C11 1_555 1_555
N4 C12 1_555 1_555
C1 H1 1_555 1_555
C2 C1 1_555 1_555
H2 C2 1_555 1_555
C3 N1 1_555 1_555
H3 C3 1_555 1_555
C4 N2 1_555 1_555
C5 C4 1_555 1_555
H4 C5 1_555 1_555
C6 C5 1_555 1_555
C7 C6 1_555 1_555
H5 C7 1_555 1_555
C8 C7 1_555 1_555
H6 C8 1_555 1_555
C9 C4 1_555 1_555
H7 C9 1_555 1_555
C10 C6 1_555 1_555
C11 H8 1_555 1_555
C12 C11 1_555 1_555
H9 C12 1_555 1_555
C13 N3 1_555 1_555
H10 C13 1_555 1_555
C14 N4 1_555 1_555
C15 C14 1_555 1_555
H11 C15 1_555 1_555
C16 C15 1_555 1_555
C17 C16 1_555 1_555
H12 C17 1_555 1_555
C18 C17 1_555 1_555
H13 C18 1_555 1_555
C19 C14 1_555 1_555
H14 C19 1_555 1_555
C20 O3 1_555 1_555
Zn1A N1 1_555 1_555
Zn1D N3 1_555 1_555
N1A Zn1 1_555 1_555
N3D Zn1 1_555 1_555
N2 C3 1_555 1_555
N4 C13 1_555 1_555
C8 C9 1_555 1_555
C16 C20 1_555 1_555
C18 C19 1_555 1_555

#END
