
#######################################################################
#
#                 Cambridge Crystallographic Data Centre
#                                CCDC 
#
#######################################################################
#
# If this CIF has been generated from an entry in the Cambridge 
# Structural Database, then it will include bibliographic, chemical, 
# crystal, experimental, refinement or atomic coordinate data resulting 
# from the CCDC's data processing and validation procedures.
#
#######################################################################

data_NUYXEL
_symmetry_cell_setting           monoclinic
_symmetry_space_group_name_H-M   'P 21/c'
_symmetry_Int_Tables_number      14
_space_group_name_Hall           '-P 2ybc'
loop_
_symmetry_equiv_pos_site_id
_symmetry_equiv_pos_as_xyz
1 x,y,z
2 -x,1/2+y,1/2-z
3 -x,-y,-z
4 x,1/2-y,1/2+z
_cell_length_a                   11.063(4)
_cell_length_b                   18.938(5)
_cell_length_c                   29.918(2)
_cell_angle_alpha                90
_cell_angle_beta                 99.625(3)
_cell_angle_gamma                90
_cell_volume                     6179.92
loop_
_atom_site_label
_atom_site_type_symbol
_atom_site_fract_x
_atom_site_fract_y
_atom_site_fract_z
Cd1 Cd 0.50278(7) -0.05264(3) 0.61111(2)
Cd2 Cd 0.27156(7) 0.01864(3) 0.27228(2)
Cd3 Cd 0.76300(6) 0.02667(3) 0.95366(2)
O1 O 0.5018(8) -0.0705(3) 0.6839(2)
O2 O 0.4494(7) -0.1758(4) 0.6542(2)
O3 O -0.3181(7) -0.0453(3) 0.0063(2)
O4 O -0.1531(7) 0.0127(4) 0.0365(2)
O5 O 0.4248(6) 0.0586(3) 0.6174(2)
O6 O 0.5198(6) 0.0466(3) 0.5580(2)
O7 O 0.1053(6) 0.0323(3) 0.3147(2)
O8 O 0.2760(6) -0.0212(3) 0.3465(2)
O9 O 0.8067(8) -0.3974(3) 0.2915(3)
O10 O 0.7290(7) -0.3615(3) 0.2226(2)
O11 O 1.0753(8) -0.3805(4) 0.5448(3)
O12 O 1.1855(8) -0.4095(4) 0.6079(3)
N1 N 0.6125(8) -0.0281(4) 0.9026(3)
N2 N 0.4990(8) -0.0952(4) 0.8517(2)
N3 N 0.6450(8) 0.3767(4) 0.4648(3)
N4 N 0.5493(7) 0.2958(4) 0.4991(3)
N5 N 0.1322(8) -0.0615(4) 0.2366(3)
N6 N -0.0318(8) -0.1043(4) 0.1927(3)
N7 N 0.4176(8) -0.0490(4) 0.2488(3)
N8 N 0.5806(8) -0.1158(4) 0.2522(3)
N9 N 0.1842(7) -0.0861(4) 0.5039(2)
N10 N 0.3330(7) -0.0891(4) 0.5627(3)
N11 N 0.6526(7) -0.1105(4) 0.5867(3)
N12 N 0.8239(7) -0.1700(4) 0.5891(2)
C1 C 0.4930(10) -0.0256(5) 0.9094(3)
H2 H 0.4648 0.0004 0.9319
C2 C 0.4215(10) -0.0668(5) 0.8782(3)
H3 H 0.3374 -0.0741 0.8754
C3 C 0.6129(9) -0.0690(5) 0.8677(3)
H4 H 0.6824 -0.0792 0.8552
C4 C 0.4642(9) -0.1406(5) 0.8128(3)
C5 C 0.4792(9) -0.1167(5) 0.7706(3)
H5 H 0.5113 -0.0719 0.7674
C6 C 0.4465(9) -0.1593(5) 0.7331(3)
C7 C 0.3965(9) -0.2251(5) 0.7387(3)
H6 H 0.3734 -0.2538 0.7134
C8 C 0.3800(9) -0.2492(5) 0.7811(3)
H7 H 0.3452 -0.2933 0.7841
C9 C 0.4160(10) -0.2071(5) 0.8190(3)
H8 H 0.4080 -0.2229 0.8478
C10 C 0.4662(9) -0.1343(5) 0.6866(3)
C11 C 0.5947(9) 0.3626(5) 0.5004(3)
H9 H 0.5905 0.3945 0.5238
C12 C 0.6308(9) 0.3163(5) 0.4383(3)
H10 H 0.6577 0.3109 0.4107
C13 C 0.5720(9) 0.2664(5) 0.4588(3)
H11 H 0.5508 0.2212 0.4480
C14 C 0.4856(9) 0.2634(5) 0.5312(3)
C15 C 0.5099(9) 0.1942(5) 0.5431(3)
H12 H 0.5707 0.1698 0.5314
C16 C 0.4438(9) 0.1608(5) 0.5723(3)
C17 C 0.3572(9) 0.1985(5) 0.5912(3)
H13 H 0.3158 0.1771 0.6122
C18 C 0.3331(9) 0.2677(5) 0.5788(3)
H14 H 0.2733 0.2924 0.5908
C19 C 0.3971(9) 0.3010(5) 0.5485(3)
H15 H 0.3805 0.3477 0.5401
C20 C 0.4640(9) 0.0844(5) 0.5832(3)
C21 C -0.2326(10) -0.0338(5) 0.0385(3)
C22 C -0.2262(9) -0.0794(5) 0.0799(3)
C23 C -0.1363(9) -0.0691(5) 0.1176(3)
H16 H -0.0807 -0.0323 0.1178
C24 C -0.1289(9) -0.1133(5) 0.1548(3)
C25 C -0.2110(9) -0.1670(5) 0.1555(3)
H17 H -0.2051 -0.1967 0.1805
C26 C -0.3039(9) -0.1768(5) 0.1182(3)
H18 H -0.3612 -0.2126 0.1186
C27 C -0.3108(9) -0.1336(5) 0.0809(3)
H19 H -0.3725 -0.1407 0.0561
C28 C 0.0599(10) -0.0563(5) 0.1974(3)
H20 H 0.0704 -0.0234 0.1752
C29 C -0.0151(10) -0.1427(5) 0.2322(3)
H21 H -0.0637 -0.1798 0.2392
C30 C 0.0856(10) -0.1163(5) 0.2587(3)
H22 H 0.1184 -0.1327 0.2875
C31 C 0.4192(10) -0.0762(5) 0.2058(3)
H23 H 0.3616 -0.0672 0.1800
C32 C 0.5200(10) -0.1184(5) 0.2078(3)
H24 H 0.5434 -0.1438 0.1841
C33 C 0.5147(9) -0.0746(4) 0.2758(3)
H25 H 0.5345 -0.0653 0.3067
C34 C 0.6808(9) -0.1594(5) 0.2724(3)
C35 C 0.6887(9) -0.2280(5) 0.2567(3)
H26 H 0.6351 -0.2435 0.2312
C36 C 0.7772(9) -0.2731(5) 0.2792(3)
C37 C 0.8596(10) -0.2491(5) 0.3157(3)
H27 H 0.9187 -0.2795 0.3309
C38 C 0.8544(10) -0.1802(5) 0.3295(3)
H28 H 0.9116 -0.1639 0.3536
C39 C 0.7653(9) -0.1347(5) 0.3081(3)
H29 H 0.7625 -0.0880 0.3176
C40 C 0.7732(9) -0.3486(5) 0.2636(3)
C41 C 0.1660(9) -0.0018(5) 0.3462(3)
C42 C 0.1051(9) -0.0209(5) 0.3865(3)
C43 C -0.0230(9) -0.0142(5) 0.3822(3)
H30 H -0.0684 0.0038 0.3557
C44 C -0.0808(10) -0.0344(5) 0.4176(3)
H31 H -0.1656 -0.0314 0.4146
C45 C -0.0130(9) -0.0589(5) 0.4574(3)
H32 H -0.0521 -0.0721 0.4814
C46 C 0.1137(9) -0.0640(5) 0.4618(3)
C47 C 0.1735(9) -0.0465(5) 0.4259(3)
H33 H 0.2579 -0.0520 0.4284
C48 C 0.2961(9) -0.0614(5) 0.5225(3)
H34 H 0.3410 -0.0289 0.5086
C49 C 0.1486(10) -0.1325(5) 0.5353(3)
H35 H 0.0753 -0.1574 0.5326
C50 C 0.2418(10) -0.1339(5) 0.5701(3)
H36 H 0.2440 -0.1616 0.5959
C51 C 0.6762(9) -0.1186(5) 0.5430(3)
H37 H 0.6275 -0.1013 0.5170
C52 C 0.7814(10) -0.1558(5) 0.5441(3)
H38 H 0.8174 -0.1690 0.5194
C53 C 0.7441(9) -0.1422(4) 0.6132(3)
H39 H 0.7521 -0.1448 0.6446
C54 C 0.9338(9) -0.2072(5) 0.6081(3)
C55 C 0.9986(9) -0.1843(5) 0.6489(3)
H40 H 0.9752 -0.1438 0.6628
C56 C 1.1001(9) -0.2236(5) 0.6688(4)
H41 H 1.1448 -0.2095 0.6965
C57 C 1.1343(10) -0.2830(5) 0.6477(4)
H42 H 1.2010 -0.3095 0.6614
C58 C 1.0693(10) -0.3035(5) 0.6058(4)
C59 C 0.9690(10) -0.2656(5) 0.5859(3)
H43 H 0.9254 -0.2791 0.5579
C60 C 1.1112(11) -0.3690(5) 0.5852(4)
O15 O 0.9127(10) -0.0530(5) 0.9437(4)
H54 H 0.980(8) -0.047(7) 0.961(4)
H55 H 0.875(7) -0.086(3) 0.954(3)
Cd2B Cd 0.72844(7) -0.01864(3) 0.72772(2)
Cd2A Cd 0.72844(7) -0.48136(3) 0.22772(2)
Cd3_2 Cd -0.23700(6) 0.02667(3) -0.04634(2)
Cd3A Cd 1.23700(6) -0.47333(3) 0.54634(2)
Cd3C Cd 0.76300(6) 0.47333(3) 0.45366(2)
O1B O 0.4982(8) 0.0705(3) 0.3161(2)
O3_2 O 0.6819(7) -0.0453(3) 1.0063(2)
O4_2 O 0.8469(7) 0.0127(4) 1.0365(2)
O9A O 0.1933(8) 0.1026(3) 0.2085(3)
O10A O 0.2710(7) 0.1385(3) 0.2774(2)
O11A O 0.9247(8) 0.1195(4) 0.9552(3)
O12A O 0.8145(8) 0.0905(4) 0.8921(3)
N3C N 0.6450(8) 0.1233(4) 0.9648(3)
O13 O 0.9459(18) -0.2989(13) 0.4670(7)
C61 C 1.142(2) -0.279(2) 0.4342(11)
H44 H 1.2039 -0.2511 0.4526
H45 H 1.1441 -0.2698 0.4028
H46 H 1.1561 -0.3279 0.4406
C62 C 1.023(2) -0.2592(13) 0.4442(14)
H47 H 1.0357 -0.2150 0.4607
H48 H 0.9738 -0.2477 0.4151
O14 O -0.088(2) 0.0881(9) 0.1828(5)
H1 H -0.0575 0.1248 0.1753
C63 C -0.1839(16) 0.0330(8) 0.2455(6)
H49 H -0.2084 0.0457 0.2737
H50 H -0.1261 -0.0051 0.2503
H51 H -0.2546 0.0185 0.2243
C64 C -0.1239(15) 0.0974(8) 0.2262(5)
H52 H -0.1810 0.1366 0.2242
H53 H -0.0519 0.1106 0.2478
loop_
_geom_bond_atom_site_label_1
_geom_bond_atom_site_label_2
_geom_bond_site_symmetry_1
_geom_bond_site_symmetry_2
Cd1 O1 1_555 1_555
Cd2 O7 1_555 1_555
Cd3 N1 1_555 1_555
O1 C10 1_555 1_555
O2 Cd1 1_555 1_555
O3 C21 1_555 1_555
O4 C21 1_555 1_555
O5 Cd1 1_555 1_555
O6 Cd1 1_555 1_555
O7 C41 1_555 1_555
O8 Cd2 1_555 1_555
O9 C40 1_555 1_555
O10 C40 1_555 1_555
O11 C60 1_555 1_555
O12 C60 1_555 1_555
O13 C62 1_555 1_555
O14 H1 1_555 1_555
N1 C1 1_555 1_555
N2 C2 1_555 1_555
N3 C11 1_555 1_555
N4 C11 1_555 1_555
N5 Cd2 1_555 1_555
N6 C24 1_555 1_555
N7 Cd2 1_555 1_555
N8 C32 1_555 1_555
N9 C46 1_555 1_555
N10 Cd1 1_555 1_555
N11 Cd1 1_555 1_555
N12 C52 1_555 1_555
C1 H2 1_555 1_555
C2 C1 1_555 1_555
H3 C2 1_555 1_555
C3 N1 1_555 1_555
H4 C3 1_555 1_555
C4 N2 1_555 1_555
C5 C4 1_555 1_555
H5 C5 1_555 1_555
C6 C5 1_555 1_555
C7 C6 1_555 1_555
H6 C7 1_555 1_555
C8 C7 1_555 1_555
H7 C8 1_555 1_555
C9 C4 1_555 1_555
H8 C9 1_555 1_555
C10 O2 1_555 1_555
C11 H9 1_555 1_555
C12 N3 1_555 1_555
H10 C12 1_555 1_555
C13 N4 1_555 1_555
H11 C13 1_555 1_555
C14 N4 1_555 1_555
C15 C14 1_555 1_555
H12 C15 1_555 1_555
C16 C15 1_555 1_555
C17 C16 1_555 1_555
H13 C17 1_555 1_555
C18 C17 1_555 1_555
H14 C18 1_555 1_555
C19 C14 1_555 1_555
H15 C19 1_555 1_555
C20 O5 1_555 1_555
C21 C22 1_555 1_555
C22 C23 1_555 1_555
C23 H16 1_555 1_555
C24 C23 1_555 1_555
C25 C24 1_555 1_555
H17 C25 1_555 1_555
C26 C25 1_555 1_555
H18 C26 1_555 1_555
C27 C22 1_555 1_555
H19 C27 1_555 1_555
C28 N5 1_555 1_555
H20 C28 1_555 1_555
C29 N6 1_555 1_555
H21 C29 1_555 1_555
C30 N5 1_555 1_555
H22 C30 1_555 1_555
C31 N7 1_555 1_555
H23 C31 1_555 1_555
C32 C31 1_555 1_555
H24 C32 1_555 1_555
C33 N7 1_555 1_555
H25 C33 1_555 1_555
C34 N8 1_555 1_555
C35 C34 1_555 1_555
H26 C35 1_555 1_555
C36 C35 1_555 1_555
C37 C36 1_555 1_555
H27 C37 1_555 1_555
C38 C37 1_555 1_555
H28 C38 1_555 1_555
C39 C34 1_555 1_555
H29 C39 1_555 1_555
C40 C36 1_555 1_555
C41 O8 1_555 1_555
C42 C41 1_555 1_555
C43 C42 1_555 1_555
H30 C43 1_555 1_555
C44 C43 1_555 1_555
H31 C44 1_555 1_555
C45 C44 1_555 1_555
H32 C45 1_555 1_555
C46 C45 1_555 1_555
C47 C42 1_555 1_555
H33 C47 1_555 1_555
C48 N9 1_555 1_555
H34 C48 1_555 1_555
C49 N9 1_555 1_555
H35 C49 1_555 1_555
C50 N10 1_555 1_555
H36 C50 1_555 1_555
C51 N11 1_555 1_555
H37 C51 1_555 1_555
C52 C51 1_555 1_555
H38 C52 1_555 1_555
C53 N11 1_555 1_555
H39 C53 1_555 1_555
C54 N12 1_555 1_555
C55 C54 1_555 1_555
H40 C55 1_555 1_555
C56 C55 1_555 1_555
H41 C56 1_555 1_555
C57 C56 1_555 1_555
H42 C57 1_555 1_555
C58 C57 1_555 1_555
C59 C54 1_555 1_555
H43 C59 1_555 1_555
C60 C58 1_555 1_555
C61 H44 1_555 1_555
H45 C61 1_555 1_555
H46 C61 1_555 1_555
C62 C61 1_555 1_555
H47 C62 1_555 1_555
H48 C62 1_555 1_555
C63 H49 1_555 1_555
H50 C63 1_555 1_555
H51 C63 1_555 1_555
C64 O14 1_555 1_555
H52 C64 1_555 1_555
H53 C64 1_555 1_555
O15 Cd3 1_555 1_555
H54 O15 1_555 1_555
H55 O15 1_555 1_555
Cd2B O1 1_555 1_555
Cd2A O9 1_555 1_555
Cd3_2 O3 1_555 1_555
Cd3A O11 1_555 1_555
Cd3C N3 1_555 1_555
O1B Cd2 1_555 1_555
O3_2 Cd3 1_555 1_555
O4_2 Cd3 1_555 1_555
O9A Cd2 1_555 1_555
O10A Cd2 1_555 1_555
O11A Cd3 1_555 1_555
O12A Cd3 1_555 1_555
N3C Cd3 1_555 1_555
O4 Cd3_2 1_555 1_555
O6 C20 1_555 1_555
O10 Cd2A 1_555 1_555
O12 Cd3A 1_555 1_555
N2 C3 1_555 1_555
N6 C28 1_555 1_555
N8 C33 1_555 1_555
N10 C48 1_555 1_555
N12 C53 1_555 1_555
C6 C10 1_555 1_555
C8 C9 1_555 1_555
C12 C13 1_555 1_555
C16 C20 1_555 1_555
C18 C19 1_555 1_555
C26 C27 1_555 1_555
C29 C30 1_555 1_555
C38 C39 1_555 1_555
C46 C47 1_555 1_555
C49 C50 1_555 1_555
C58 C59 1_555 1_555
C63 C64 1_555 1_555

#END
