
#######################################################################
#
#                 Cambridge Crystallographic Data Centre
#                                CCDC 
#
#######################################################################
#
# If this CIF has been generated from an entry in the Cambridge 
# Structural Database, then it will include bibliographic, chemical, 
# crystal, experimental, refinement or atomic coordinate data resulting 
# from the CCDC's data processing and validation procedures.
#
#######################################################################

data_NUYYIQ
_symmetry_cell_setting           monoclinic
_symmetry_space_group_name_H-M   'P 21/n'
_symmetry_Int_Tables_number      14
_space_group_name_Hall           '-P 2yn'
loop_
_symmetry_equiv_pos_site_id
_symmetry_equiv_pos_as_xyz
1 x,y,z
2 1/2-x,1/2+y,1/2-z
3 -x,-y,-z
4 1/2+x,1/2-y,1/2+z
_cell_length_a                   12.3892(14)
_cell_length_b                   27.469(3)
_cell_length_c                   30.401(3)
_cell_angle_alpha                90
_cell_angle_beta                 91.307(7)
_cell_angle_gamma                90
_cell_volume                     10343.3
loop_
_atom_site_label
_atom_site_type_symbol
_atom_site_fract_x
_atom_site_fract_y
_atom_site_fract_z
S1 S 0.20835(18) 0.97922(8) 0.07594(6)
S2 S 0.50715(15) 1.11871(6) 0.41048(6)
S3 S -0.00248(15) 1.16968(6) 0.34832(6)
S4 S 0.33502(15) 0.91211(6) 0.35770(6)
S5 S -0.14274(14) 0.96227(6) 0.29953(6)
S6 S 0.40751(18) 1.17348(7) 0.12757(6)
O1 O 0.1016(6) 1.0101(2) 0.2190(2)
O2 O 0.1223(5) 0.8490(2) 0.13755(16)
O3 O 0.1118(4) 0.92882(18) 0.14662(15)
O4 O 0.3030(6) 0.9625(3) 0.1984(2)
O5 O 0.3552(4) 1.19222(19) 0.21563(15)
O6 O 0.5404(6) 1.1582(3) 0.2627(2)
O7 O 0.3289(4) 1.10755(18) 0.29062(17)
O8 O 0.4200(4) 1.25327(17) 0.25171(18)
O9 O 0.2064(3) 0.85601(15) 0.23036(14)
O10 O 0.2271(4) 0.91563(16) 0.27912(13)
O11 O 0.4584(4) 1.18436(16) 0.34672(15)
O12 O 0.5129(4) 1.26118(17) 0.34482(17)
O13 O 0.2796(4) 1.25695(19) 0.3234(2)
O14 O 0.1874(4) 1.1930(2) 0.30474(17)
O15 O -0.0137(4) 0.92090(17) 0.23806(15)
O16 O -0.0382(4) 0.84557(19) 0.2138(2)
Mn1 Mn 0.14313(8) 0.93345(3) 0.21458(3)
Mn2 Mn 0.40509(8) 1.30563(3) 0.30582(3)
Mn3 Mn 0.36465(8) 1.18167(3) 0.28834(3)
C1 C 0.1085(5) 0.8927(3) 0.1236(3)
C2 C 0.1062(10) 1.0381(4) 0.1906(5)
C3 C 0.0878(6) 0.8955(3) 0.0751(2)
C4 C 0.0350(13) 1.1080(5) 0.2296(4)
C5 C 0.0226(6) 0.8598(3) 0.0544(3)
H1 H -0.0032 0.8338 0.0706
C6 C 0.1210(16) 1.1187(5) 0.1527(7)
C7 C -0.0026(7) 0.8632(4) 0.0112(3)
H2 H -0.0458 0.8394 -0.0021
C8 C 0.3691(11) 0.9779(4) 0.2212(6)
C9 C 0.0346(8) 0.9010(4) -0.0134(3)
H3 H 0.0171 0.9029 -0.0433
C10 C 0.5231(10) 1.0286(4) 0.2533(5)
C11 C 0.0966(8) 0.9351(3) 0.0058(3)
H4 H 0.1213 0.9608 -0.0112
C12 C 0.4320(10) 1.0494(4) 0.1798(4)
C13 C 0.1259(5) 0.9337(3) 0.0511(2)
C14 C 0.6268(11) 1.1893(5) 0.2638(6)
C15 C 0.8055(9) 1.2103(4) 0.2500(4)
C16 C 0.2836(7) 1.0004(3) 0.0289(2)
H5 H 0.3071 0.9730 0.0115
H6 H 0.2385 1.0213 0.0104
C17 C 0.3832(7) 1.0294(3) 0.0472(2)
C18 C 0.7149(11) 1.1377(4) 0.2085(4)
C19 C 0.3697(7) 1.0814(3) 0.0521(2)
C20 C 0.2589(8) 1.0748(4) 0.2951(4)
C21 C 0.4634(7) 1.1077(3) 0.0663(2)
C22 C 0.2423(10) 1.0883(6) 0.3735(4)
C23 C 0.5581(7) 1.0840(3) 0.0764(2)
C24 C 0.1346(8) 1.0236(3) 0.3328(4)
C25 C 0.5674(7) 1.0345(3) 0.0729(2)
H7 H 0.6329 1.0194 0.0797
C26 C 0.4780(9) 1.0064(3) 0.0588(3)
C27 C 0.2646(7) 1.1072(3) 0.0419(3)
H8 H 0.2109 1.0838 0.0329
H9 H 0.2748 1.1302 0.0186
H10 H 0.2412 1.1239 0.0677
C28 C 0.6604(7) 1.1117(3) 0.0912(3)
H11 H 0.7186 1.0890 0.0958
H12 H 0.6471 1.1286 0.1182
H13 H 0.6793 1.1347 0.0689
C29 C 0.4893(8) 0.9502(3) 0.0563(3)
H14 H 0.4218 0.9362 0.0467
H15 H 0.5090 0.9377 0.0849
H16 H 0.5443 0.9419 0.0358
C30 C 0.4558(6) 1.1620(3) 0.0717(2)
H17 H 0.4058 1.1756 0.0500
H18 H 0.5259 1.1769 0.0680
C31 C 0.4190(6) 1.2368(2) 0.1322(2)
C32 C 0.4340(6) 1.2662(3) 0.0955(3)
H19 H 0.4335 1.2520 0.0678
C33 C 0.4497(8) 1.3157(3) 0.0992(3)
H20 H 0.4596 1.3345 0.0743
C34 C 0.4506(7) 1.3368(3) 0.1400(3)
H21 H 0.4609 1.3703 0.1425
C35 C 0.4363(6) 1.3089(3) 0.1778(3)
H22 H 0.4393 1.3235 0.2054
C36 C 0.4177(5) 1.2592(2) 0.1740(2)
C37 C 0.3979(6) 1.2340(3) 0.2161(2)
C38 C 0.2449(6) 0.8723(3) 0.2661(3)
C39 C 0.3158(5) 0.8389(3) 0.2952(2)
C40 C 0.3385(6) 0.7933(3) 0.2777(3)
H23 H 0.3117 0.7849 0.2499
C41 C 0.4010(7) 0.7606(3) 0.3017(3)
H24 H 0.4163 0.7301 0.2901
C42 C 0.4394(9) 0.7730(3) 0.3417(4)
H25 H 0.4792 0.7505 0.3581
C43 C 0.4208(8) 0.8183(3) 0.3588(3)
H26 H 0.4496 0.8261 0.3865
C44 C 0.3601(6) 0.8531(2) 0.3360(2)
C45 C 0.4002(6) 0.9096(2) 0.4127(2)
H27 H 0.3676 0.8843 0.4303
H28 H 0.4766 0.9025 0.4103
C46 C 0.3850(5) 0.9579(2) 0.43353(19)
C47 C 0.4601(5) 0.9940(2) 0.43217(19)
C48 C 0.4442(5) 1.0379(2) 0.4544(2)
C49 C 0.3475(6) 1.0468(2) 0.4771(2)
C50 C 0.2737(6) 1.0107(3) 0.4776(2)
H29 H 0.2098 1.0154 0.4925
C51 C 0.2916(6) 0.9654(2) 0.4557(2)
C52 C 0.5598(5) 0.9879(3) 0.4051(2)
H30 H 0.5594 0.9562 0.3918
H31 H 0.6229 0.9914 0.4237
H32 H 0.5604 1.0123 0.3825
C53 C 0.3251(7) 1.0956(2) 0.4984(3)
H33 H 0.3860 1.1167 0.4949
H34 H 0.3128 1.0910 0.5292
H35 H 0.2623 1.1101 0.4847
C54 C 0.1973(6) 0.9269(3) 0.4577(3)
H36 H 0.1400 0.9397 0.4750
H37 H 0.2241 0.8974 0.4708
H38 H 0.1706 0.9202 0.4284
C55 C 0.5318(5) 1.0775(2) 0.4564(2)
H39 H 0.6027 1.0628 0.4544
H40 H 0.5287 1.0950 0.4840
C56 C 0.5893(5) 1.1684(2) 0.4255(2)
C57 C 0.6638(7) 1.1666(3) 0.4603(3)
H41 H 0.6705 1.1374 0.4757
C58 C 0.7275(7) 1.2044(4) 0.4735(3)
H42 H 0.7774 1.2007 0.4966
C59 C 0.7163(6) 1.2491(3) 0.4514(3)
H43 H 0.7551 1.2764 0.4607
C60 C 0.6455(6) 1.2514(3) 0.4154(3)
H44 H 0.6404 1.2806 0.3999
C61 C 0.5814(5) 1.2122(2) 0.4013(2)
C62 C 0.5117(5) 1.2204(3) 0.3617(2)
C63 C 0.1929(6) 1.2356(3) 0.3209(3)
C64 C 0.0961(6) 1.2590(3) 0.3381(2)
C65 C 0.0985(7) 1.3093(3) 0.3434(3)
H45 H 0.1601 1.3262 0.3354
C66 C 0.0143(9) 1.3346(3) 0.3596(3)
H46 H 0.0184 1.3683 0.3627
C67 C -0.0760(8) 1.3105(3) 0.3714(3)
H47 H -0.1347 1.3276 0.3820
C68 C -0.0806(6) 1.2613(3) 0.3676(2)
H48 H -0.1416 1.2451 0.3773
C69 C 0.0017(6) 1.2346(2) 0.3501(2)
C70 C -0.1146(5) 1.1552(3) 0.3846(2)
H49 H -0.1061 1.1725 0.4123
H50 H -0.1829 1.1647 0.3709
C71 C -0.1121(6) 1.1012(2) 0.3922(2)
C72 C -0.1670(5) 1.0699(3) 0.3635(2)
C73 C -0.1665(5) 1.0198(2) 0.3716(2)
C74 C -0.1041(5) 1.0017(3) 0.4064(2)
C75 C -0.0503(5) 1.0342(3) 0.4344(2)
H51 H -0.0108 1.0221 0.4584
C76 C -0.0542(6) 1.0835(3) 0.4274(2)
C77 C -0.2322(6) 1.0885(2) 0.3241(3)
H52 H -0.2653 1.0615 0.3090
H53 H -0.1854 1.1054 0.3046
H54 H -0.2872 1.1103 0.3340
C78 C -0.0996(6) 0.9464(2) 0.4168(2)
H55 H -0.0521 0.9408 0.4417
H56 H -0.0732 0.9291 0.3917
H57 H -0.1707 0.9349 0.4233
C79 C 0.0121(7) 1.1178(3) 0.4587(3)
H58 H 0.0471 1.0989 0.4814
H59 H -0.0355 1.1410 0.4718
H60 H 0.0655 1.1348 0.4422
C80 C -0.2265(5) 0.9850(2) 0.3432(2)
H61 H -0.2896 1.0010 0.3304
H62 H -0.2510 0.9579 0.3609
C81 C -0.2288(6) 0.9168(2) 0.2759(2)
C82 C -0.3346(6) 0.9128(3) 0.2857(3)
H63 H -0.3644 0.9351 0.3049
C83 C -0.4005(7) 0.8760(4) 0.2676(3)
H64 H -0.4728 0.8740 0.2751
C84 C -0.3580(8) 0.8433(3) 0.2392(3)
H65 H -0.4017 0.8194 0.2266
C85 C -0.2519(7) 0.8457(3) 0.2292(3)
H66 H -0.2234 0.8224 0.2106
C86 C -0.1841(6) 0.8823(2) 0.2460(2)
C87 C -0.0686(6) 0.8839(3) 0.2320(2)
N1 N 0.0926(7) 1.0861(3) 0.1913(4)
N2 N 0.4429(6) 1.0140(3) 0.2162(4)
N3 N 0.7121(7) 1.1800(3) 0.2409(3)
N4 N 0.2213(5) 1.0586(2) 0.3291(2)
O2A O 0.3777(5) 1.3490(2) 0.36245(16)
O9A O 0.2936(3) 1.35601(15) 0.26964(14)
O16A O 0.5382(4) 1.34557(19) 0.2862(2)
Mn2A Mn 0.09491(8) 0.80563(3) 0.19418(3)
loop_
_geom_bond_atom_site_label_1
_geom_bond_atom_site_label_2
_geom_bond_site_symmetry_1
_geom_bond_site_symmetry_2
S1 C13 1_555 1_555
S2 C55 1_555 1_555
S3 C69 1_555 1_555
S4 C44 1_555 1_555
S5 C80 1_555 1_555
S6 C30 1_555 1_555
O1 Mn1 1_555 1_555
O2 C1 1_555 1_555
O3 Mn1 1_555 1_555
O4 Mn1 1_555 1_555
O5 Mn3 1_555 1_555
O6 Mn3 1_555 1_555
O7 Mn3 1_555 1_555
O8 Mn2 1_555 1_555
O9 Mn1 1_555 1_555
O10 Mn1 1_555 1_555
O11 Mn3 1_555 1_555
O12 Mn2 1_555 1_555
O13 Mn2 1_555 1_555
O14 Mn3 1_555 1_555
O15 Mn1 1_555 1_555
O16 C87 1_555 1_555
Mn2 O2A 1_555 1_555
Mn3 O8 1_555 1_555
C1 O3 1_555 1_555
C2 O1 1_555 1_555
C3 C1 1_555 1_555
C4 N1 1_555 1_555
C5 C3 1_555 1_555
H1 C5 1_555 1_555
C6 N1 1_555 1_555
C7 C5 1_555 1_555
H2 C7 1_555 1_555
C8 O4 1_555 1_555
C9 C7 1_555 1_555
H3 C9 1_555 1_555
C10 N2 1_555 1_555
C11 C9 1_555 1_555
H4 C11 1_555 1_555
C12 N2 1_555 1_555
C13 C3 1_555 1_555
C14 O6 1_555 1_555
C15 N3 1_555 1_555
C16 S1 1_555 1_555
H5 C16 1_555 1_555
H6 C16 1_555 1_555
C17 C16 1_555 1_555
C18 N3 1_555 1_555
C19 C17 1_555 1_555
C20 O7 1_555 1_555
C21 C19 1_555 1_555
C22 N4 1_555 1_555
C23 C21 1_555 1_555
C24 N4 1_555 1_555
C25 C23 1_555 1_555
H7 C25 1_555 1_555
C26 C17 1_555 1_555
C27 C19 1_555 1_555
H8 C27 1_555 1_555
H9 C27 1_555 1_555
H10 C27 1_555 1_555
C28 C23 1_555 1_555
H11 C28 1_555 1_555
H12 C28 1_555 1_555
H13 C28 1_555 1_555
C29 C26 1_555 1_555
H14 C29 1_555 1_555
H15 C29 1_555 1_555
H16 C29 1_555 1_555
C30 C21 1_555 1_555
H17 C30 1_555 1_555
H18 C30 1_555 1_555
C31 S6 1_555 1_555
C32 C31 1_555 1_555
H19 C32 1_555 1_555
C33 C32 1_555 1_555
H20 C33 1_555 1_555
C34 C33 1_555 1_555
H21 C34 1_555 1_555
C35 C34 1_555 1_555
H22 C35 1_555 1_555
C36 C31 1_555 1_555
C37 O5 1_555 1_555
C38 O9 1_555 1_555
C39 C38 1_555 1_555
C40 C39 1_555 1_555
H23 C40 1_555 1_555
C41 C40 1_555 1_555
H24 C41 1_555 1_555
C42 C41 1_555 1_555
H25 C42 1_555 1_555
C43 C42 1_555 1_555
H26 C43 1_555 1_555
C44 C39 1_555 1_555
C45 S4 1_555 1_555
H27 C45 1_555 1_555
H28 C45 1_555 1_555
C46 C45 1_555 1_555
C47 C46 1_555 1_555
C48 C47 1_555 1_555
C49 C48 1_555 1_555
C50 C49 1_555 1_555
H29 C50 1_555 1_555
C51 C46 1_555 1_555
C52 C47 1_555 1_555
H30 C52 1_555 1_555
H31 C52 1_555 1_555
H32 C52 1_555 1_555
C53 C49 1_555 1_555
H33 C53 1_555 1_555
H34 C53 1_555 1_555
H35 C53 1_555 1_555
C54 C51 1_555 1_555
H36 C54 1_555 1_555
H37 C54 1_555 1_555
H38 C54 1_555 1_555
C55 C48 1_555 1_555
H39 C55 1_555 1_555
H40 C55 1_555 1_555
C56 S2 1_555 1_555
C57 C56 1_555 1_555
H41 C57 1_555 1_555
C58 C57 1_555 1_555
H42 C58 1_555 1_555
C59 C58 1_555 1_555
H43 C59 1_555 1_555
C60 C59 1_555 1_555
H44 C60 1_555 1_555
C61 C56 1_555 1_555
C62 O11 1_555 1_555
C63 O13 1_555 1_555
C64 C63 1_555 1_555
C65 C64 1_555 1_555
H45 C65 1_555 1_555
C66 C65 1_555 1_555
H46 C66 1_555 1_555
C67 C66 1_555 1_555
H47 C67 1_555 1_555
C68 C67 1_555 1_555
H48 C68 1_555 1_555
C69 C64 1_555 1_555
C70 S3 1_555 1_555
H49 C70 1_555 1_555
H50 C70 1_555 1_555
C71 C70 1_555 1_555
C72 C71 1_555 1_555
C73 C72 1_555 1_555
C74 C73 1_555 1_555
C75 C74 1_555 1_555
H51 C75 1_555 1_555
C76 C71 1_555 1_555
C77 C72 1_555 1_555
H52 C77 1_555 1_555
H53 C77 1_555 1_555
H54 C77 1_555 1_555
C78 C74 1_555 1_555
H55 C78 1_555 1_555
H56 C78 1_555 1_555
H57 C78 1_555 1_555
C79 C76 1_555 1_555
H58 C79 1_555 1_555
H59 C79 1_555 1_555
H60 C79 1_555 1_555
C80 C73 1_555 1_555
H61 C80 1_555 1_555
H62 C80 1_555 1_555
C81 S5 1_555 1_555
C82 C81 1_555 1_555
H63 C82 1_555 1_555
C83 C82 1_555 1_555
H64 C83 1_555 1_555
C84 C83 1_555 1_555
H65 C84 1_555 1_555
C85 C84 1_555 1_555
H66 C85 1_555 1_555
C86 C81 1_555 1_555
C87 O15 1_555 1_555
N1 C2 1_555 1_555
N2 C8 1_555 1_555
N3 C14 1_555 1_555
N4 C20 1_555 1_555
O9A Mn2 1_555 1_555
O16A Mn2 1_555 1_555
Mn2A O2 1_555 1_555
O8 C37 1_555 1_555
O9 Mn2A 1_555 1_555
O10 C38 1_555 1_555
O12 C62 1_555 1_555
O14 C63 1_555 1_555
O16 Mn2A 1_555 1_555
C11 C13 1_555 1_555
C25 C26 1_555 1_555
C35 C36 1_555 1_555
C36 C37 1_555 1_555
C43 C44 1_555 1_555
C50 C51 1_555 1_555
C60 C61 1_555 1_555
C61 C62 1_555 1_555
C68 C69 1_555 1_555
C75 C76 1_555 1_555
C85 C86 1_555 1_555
C86 C87 1_555 1_555

#END
