
#######################################################################
#
#                 Cambridge Crystallographic Data Centre
#                                CCDC 
#
#######################################################################
#
# If this CIF has been generated from an entry in the Cambridge 
# Structural Database, then it will include bibliographic, chemical, 
# crystal, experimental, refinement or atomic coordinate data resulting 
# from the CCDC's data processing and validation procedures.
#
#######################################################################

data_NUZKEZ
_symmetry_cell_setting           triclinic
_symmetry_space_group_name_H-M   'P -1'
_symmetry_Int_Tables_number      2
_space_group_name_Hall           '-P 1'
loop_
_symmetry_equiv_pos_site_id
_symmetry_equiv_pos_as_xyz
1 x,y,z
2 -x,-y,-z
_cell_length_a                   3.7606(8)
_cell_length_b                   8.8887(18)
_cell_length_c                   13.649(3)
_cell_angle_alpha                86.21(3)
_cell_angle_beta                 86.88(4)
_cell_angle_gamma                78.56(3)
_cell_volume                     445.802
loop_
_atom_site_label
_atom_site_type_symbol
_atom_site_fract_x
_atom_site_fract_y
_atom_site_fract_z
Cu1 Cu 0.5016(2) 0.49899(8) 0.25004(5)
Cl1 Cl 1.1174(4) 0.39420(16) 0.36525(10)
Cl2 Cl -0.1413(4) 0.61509(16) 0.13428(10)
N1 N 0.4065(14) 0.6872(6) 0.3230(4)
C1 C 0.2096(17) 0.8258(7) 0.3020(5)
H1 H 0.0952 0.8566 0.2416
N2 N 0.5139(14) 0.6906(6) 0.4158(4)
H2 H 0.6470 0.6122 0.4480
C2 C 0.3921(17) 0.8282(7) 0.4522(5)
H3 H 0.4340 0.8575 0.5156
C3 C 0.1932(18) 0.9200(7) 0.3803(5)
H4 H 0.0724 1.0242 0.3838
N3 N 0.5916(14) 0.3110(6) 0.1766(4)
N4 N 0.7197(14) 0.3075(6) 0.0829(4)
H5 H 0.7828 0.3866 0.0492
C4 C 0.5274(17) 0.1710(7) 0.2000(5)
H6 H 0.4313 0.1397 0.2621
C5 C 0.6198(17) 0.0756(7) 0.1211(4)
H7 H 0.6038 -0.0295 0.1191
C6 C 0.7402(17) 0.1696(7) 0.0466(5)
H8 H 0.8217 0.1415 -0.0180
Cu1_2 Cu -0.4984(2) 0.49899(8) 0.25004(5)
Cu1_3 Cu 1.5016(2) 0.49899(8) 0.25004(5)
Cl1_2 Cl 0.1174(4) 0.39420(16) 0.36525(10)
Cl2_2 Cl 0.8587(4) 0.61509(16) 0.13428(10)
loop_
_geom_bond_atom_site_label_1
_geom_bond_atom_site_label_2
_geom_bond_site_symmetry_1
_geom_bond_site_symmetry_2
Cu1 Cl1 1_555 1_555
Cl1 Cu1_3 1_555 1_555
Cl2 Cu1 1_555 1_555
N1 Cu1 1_555 1_555
C1 N1 1_555 1_555
H1 C1 1_555 1_555
N2 N1 1_555 1_555
H2 N2 1_555 1_555
C2 N2 1_555 1_555
H3 C2 1_555 1_555
C3 C1 1_555 1_555
H4 C3 1_555 1_555
N3 Cu1 1_555 1_555
N4 N3 1_555 1_555
H5 N4 1_555 1_555
C4 N3 1_555 1_555
H6 C4 1_555 1_555
C5 C4 1_555 1_555
H7 C5 1_555 1_555
C6 N4 1_555 1_555
H8 C6 1_555 1_555
Cu1_2 Cl2 1_555 1_555
Cu1_3 Cl2_2 1_555 1_555
Cl1_2 Cu1 1_555 1_555
Cl2_2 Cu1 1_555 1_555
C2 C3 1_555 1_555
C5 C6 1_555 1_555
Cu1_2 Cl1_2 1_555 1_555

#END
