
#######################################################################
#
#                 Cambridge Crystallographic Data Centre
#                                CCDC 
#
#######################################################################
#
# If this CIF has been generated from an entry in the Cambridge 
# Structural Database, then it will include bibliographic, chemical, 
# crystal, experimental, refinement or atomic coordinate data resulting 
# from the CCDC's data processing and validation procedures.
#
#######################################################################

data_NUZLUQ
_symmetry_cell_setting           triclinic
_symmetry_space_group_name_H-M   'P -1'
_symmetry_Int_Tables_number      2
_space_group_name_Hall           '-P 1'
loop_
_symmetry_equiv_pos_site_id
_symmetry_equiv_pos_as_xyz
1 x,y,z
2 -x,-y,-z
_cell_length_a                   11.029(4)
_cell_length_b                   13.477(4)
_cell_length_c                   13.514(5)
_cell_angle_alpha                105.498(2)
_cell_angle_beta                 106.501(3)
_cell_angle_gamma                103.129(3)
_cell_volume                     1753.27
loop_
_atom_site_label
_atom_site_type_symbol
_atom_site_fract_x
_atom_site_fract_y
_atom_site_fract_z
Mn1 Mn 0.5000 1.0000 0.5000
Mn2 Mn 0.64673(3) 1.01448(3) 0.30670(3)
S1 S 0.02514(7) 0.30223(5) 0.24399(6)
S2 S -0.19457(6) 0.61029(5) 0.06113(6)
O1 O 0.39043(17) 0.83364(13) 0.45785(14)
O2 O 0.26338(18) 0.83185(13) 0.56051(15)
O3 O 0.34806(18) 0.05368(16) 0.54670(17)
O4 O 0.2029(2) 0.06931(17) 0.62431(16)
O5 O 0.0587(3) 0.26826(16) 0.14840(16)
O6 O -0.1125(2) 0.28674(16) 0.2326(2)
O7 O 0.42158(17) 0.98517(13) 0.32803(13)
O8 O 0.46266(18) 0.86875(15) 0.20306(15)
O9 O -0.4213(3) 0.4434(2) 0.4185(2)
O10 O -0.4707(3) 0.5959(2) 0.4394(2)
O11 O -0.26381(19) 0.67325(19) 0.01280(18)
O12 O -0.20503(19) 0.50501(16) -0.00763(18)
N1 N 0.5712(2) 1.11501(17) 0.20676(17)
N2 N 0.7380(2) 1.00550(16) 0.17559(17)
C1 C 0.3003(2) 0.78720(18) 0.48563(19)
C2 C 0.2320(2) 0.66615(18) 0.4236(2)
C3 C 0.2491(3) 0.6144(2) 0.3285(2)
H1 H 0.3012 0.6549 0.3004
C4 C 0.1894(3) 0.5024(2) 0.2736(2)
H2 H 0.2016 0.4679 0.2095
C5 C 0.1119(2) 0.44358(18) 0.3161(2)
C6 C 0.0959(3) 0.4942(2) 0.4123(3)
H3 H 0.0451 0.4535 0.4411
C7 C 0.1549(3) 0.6048(2) 0.4654(3)
H4 H 0.1433 0.6389 0.5300
C8 C 0.0888(2) 0.23734(18) 0.3355(2)
C9 C 0.2063(3) 0.2164(3) 0.3398(3)
H5 H 0.2511 0.2363 0.2956
C10 C 0.2571(3) 0.1657(3) 0.4100(3)
H6 H 0.3363 0.1512 0.4128
C11 C 0.1917(2) 0.13618(19) 0.4761(2)
C12 C 0.0738(3) 0.1571(2) 0.4707(2)
H7 H 0.0290 0.1374 0.5150
C13 C 0.0216(3) 0.2074(2) 0.3995(3)
H8 H -0.0586 0.2206 0.3952
C14 C 0.2498(2) 0.08360(19) 0.5543(2)
C15 C 0.3842(2) 0.89573(19) 0.24771(19)
C16 C 0.2411(2) 0.82331(19) 0.20486(19)
C17 C 0.1935(3) 0.7304(2) 0.1115(2)
H9 H 0.2505 0.7126 0.0757
C18 C 0.0613(2) 0.6636(2) 0.0711(2)
H10 H 0.0291 0.6016 0.0080
C19 C -0.0223(2) 0.68998(19) 0.1255(2)
C20 C 0.0242(3) 0.7813(2) 0.2208(2)
H11 H -0.0321 0.7971 0.2581
C21 C 0.1558(3) 0.8485(2) 0.2594(2)
H12 H 0.1876 0.9108 0.3222
C22 C -0.2508(2) 0.5929(2) 0.1685(2)
C23 C -0.3258(3) 0.6545(2) 0.2030(3)
H13 H -0.3404 0.7087 0.1752
C24 C -0.3779(3) 0.6343(2) 0.2785(3)
H14 H -0.4277 0.6756 0.3030
C25 C -0.3572(3) 0.5531(2) 0.3188(2)
C26 C -0.2815(3) 0.4925(3) 0.2845(3)
H15 H -0.2674 0.4382 0.3122
C27 C -0.2276(3) 0.5128(3) 0.2098(3)
H16 H -0.1756 0.4730 0.1868
C28 C -0.4202(3) 0.5286(3) 0.3978(3)
C29 C 0.4948(3) 1.1747(2) 0.2303(2)
H17 H 0.4685 1.1742 0.2898
C30 C 0.4530(3) 1.2373(2) 0.1702(3)
H18 H 0.3991 1.2774 0.1884
C31 C 0.4928(3) 1.2388(2) 0.0832(3)
H19 H 0.4667 1.2805 0.0416
C32 C 0.5713(3) 1.1784(2) 0.0584(2)
H20 H 0.5985 1.1781 -0.0008
C33 C 0.6101(2) 1.11734(19) 0.12180(19)
C34 C 0.6993(2) 1.05314(18) 0.10228(19)
C35 C 0.7421(3) 1.0437(2) 0.0145(2)
H21 H 0.7141 1.0774 -0.0353
C36 C 0.8262(3) 0.9841(2) 0.0013(3)
H22 H 0.8551 0.9767 -0.0578
C37 C 0.8670(3) 0.9357(2) 0.0767(3)
H23 H 0.9241 0.8952 0.0699
C38 C 0.8210(3) 0.9489(2) 0.1624(3)
H24 H 0.8491 0.9168 0.2138
H25 H -0.4914 0.5805 0.4945
Mn1_2 Mn 0.5000 0.0000 0.5000
Mn2A Mn 0.35327(3) -0.01448(3) 0.69330(3)
Mn2_2 Mn 0.64673(3) 0.01448(3) 0.30670(3)
Mn2A_2 Mn 0.35327(3) 0.98552(3) 0.69330(3)
S1A S 0.97486(7) 0.69777(5) 0.75601(6)
S2A S 1.19457(6) 0.38971(5) 0.93887(6)
O1A O 0.60957(17) 0.16636(13) 0.54215(14)
O1A_2 O 0.60957(17) 1.16636(13) 0.54215(14)
O2A O 0.73662(18) 0.16815(13) 0.43949(15)
O2_2 O 0.26338(18) -0.16815(13) 0.56051(15)
O2A_2 O 0.73662(18) 1.16815(13) 0.43949(15)
O3A O 0.65194(18) 0.94632(16) 0.45330(17)
O3_2 O 0.34806(18) 1.05368(16) 0.54670(17)
O4A O 0.7971(2) 0.93069(17) 0.37569(16)
O5A O 0.9413(3) 0.73174(16) 0.85160(16)
O6A O 1.1125(2) 0.71326(16) 0.7674(2)
O7A O 0.57842(17) 0.01483(13) 0.67197(13)
O7A_2 O 0.57842(17) 1.01483(13) 0.67197(13)
O8A O 0.53734(18) 0.13125(15) 0.79694(15)
O9A O 1.4213(3) 0.5566(2) 0.5815(2)
O10A O 1.4707(3) 0.4041(2) 0.5606(2)
O11A O 1.26381(19) 0.32675(19) 0.98720(18)
O12A O 1.20503(19) 0.49499(16) 1.00763(18)
N1A N 0.4288(2) -0.11501(17) 0.79324(17)
N2A N 0.2620(2) -0.00550(16) 0.82441(17)
C1A C 0.6997(2) 0.21280(18) 0.51437(19)
C2A C 0.7680(2) 0.33385(18) 0.5764(2)
C3A C 0.7509(3) 0.3856(2) 0.6715(2)
H1A H 0.6988 0.3451 0.6996
C4A C 0.8106(3) 0.4976(2) 0.7264(2)
H2A H 0.7984 0.5321 0.7905
C5A C 0.8881(2) 0.55642(18) 0.6839(2)
C6A C 0.9041(3) 0.5058(2) 0.5877(3)
H3A H 0.9549 0.5465 0.5589
C7A C 0.8451(3) 0.3952(2) 0.5346(3)
H4A H 0.8567 0.3611 0.4700
C8A C 0.9112(2) 0.76266(18) 0.6645(2)
C9A C 0.7937(3) 0.7836(3) 0.6602(3)
H5A H 0.7489 0.7637 0.7044
C10A C 0.7429(3) 0.8343(3) 0.5900(3)
H6A H 0.6637 0.8488 0.5872
C11A C 0.8083(2) 0.86382(19) 0.5239(2)
C12A C 0.9262(3) 0.8429(2) 0.5293(2)
H7A H 0.9710 0.8626 0.4850
C13A C 0.9784(3) 0.7926(2) 0.6005(3)
H8A H 1.0586 0.7794 0.6048
C14A C 0.7502(2) 0.91640(19) 0.4457(2)
C15A C 0.6158(2) 0.10427(19) 0.75229(19)
C16A C 0.7589(2) 0.17669(19) 0.79514(19)
C17A C 0.8065(3) 0.2696(2) 0.8885(2)
H9A H 0.7495 0.2874 0.9243
C18A C 0.9387(2) 0.3364(2) 0.9289(2)
H10A H 0.9709 0.3984 0.9920
C19A C 1.0223(2) 0.31002(19) 0.8745(2)
C20A C 0.9758(3) 0.2187(2) 0.7792(2)
H11A H 1.0321 0.2029 0.7419
C21A C 0.8442(3) 0.1515(2) 0.7406(2)
H12A H 0.8124 0.0892 0.6778
C22A C 1.2508(2) 0.4071(2) 0.8315(2)
C23A C 1.3258(3) 0.3455(2) 0.7970(3)
H13A H 1.3404 0.2913 0.8248
C24A C 1.3779(3) 0.3657(2) 0.7215(3)
H14A H 1.4277 0.3244 0.6970
C25A C 1.3572(3) 0.4469(2) 0.6812(2)
C26A C 1.2815(3) 0.5075(3) 0.7155(3)
H15A H 1.2674 0.5618 0.6878
C27A C 1.2276(3) 0.4872(3) 0.7902(3)
H16A H 1.1756 0.5270 0.8132
C28A C 1.4202(3) 0.4714(3) 0.6022(3)
C29A C 0.5052(3) -0.1747(2) 0.7697(2)
H17A H 0.5315 -0.1742 0.7102
C30A C 0.5470(3) -0.2373(2) 0.8298(3)
H18A H 0.6009 -0.2774 0.8116
C31A C 0.5072(3) -0.2388(2) 0.9168(3)
H19A H 0.5333 -0.2805 0.9584
C32A C 0.4287(3) -0.1784(2) 0.9416(2)
H20A H 0.4015 -0.1781 1.0008
C33A C 0.3899(2) -0.11734(19) 0.87820(19)
C34A C 0.3007(2) -0.05314(18) 0.89772(19)
C35A C 0.2579(3) -0.0437(2) 0.9855(2)
H21A H 0.2859 -0.0774 1.0353
C36A C 0.1738(3) 0.0159(2) 0.9987(3)
H22A H 0.1449 0.0233 1.0578
C37A C 0.1330(3) 0.0643(2) 0.9233(3)
H23A H 0.0759 0.1048 0.9301
C38A C 0.1790(3) 0.0511(2) 0.8376(3)
H24A H 0.1509 0.0832 0.7862
H25A H 1.4914 0.4195 0.5055
loop_
_geom_bond_atom_site_label_1
_geom_bond_atom_site_label_2
_geom_bond_site_symmetry_1
_geom_bond_site_symmetry_2
Mn1 O1 1_555 1_555
Mn2 O8 1_555 1_555
S1 O5 1_555 1_555
S2 O11 1_555 1_555
O1 C1 1_555 1_555
O2 C1 1_555 1_555
O3 C14 1_555 1_555
O4 C14 1_555 1_555
O6 S1 1_555 1_555
O7 Mn1 1_555 1_555
O8 C15 1_555 1_555
O9 C28 1_555 1_555
O10 C28 1_555 1_555
O12 S2 1_555 1_555
N1 Mn2 1_555 1_555
N2 Mn2 1_555 1_555
C1 C2 1_555 1_555
C2 C3 1_555 1_555
C3 H1 1_555 1_555
C4 C3 1_555 1_555
H2 C4 1_555 1_555
C5 S1 1_555 1_555
C6 C5 1_555 1_555
H3 C6 1_555 1_555
C7 C2 1_555 1_555
H4 C7 1_555 1_555
C8 S1 1_555 1_555
C9 C8 1_555 1_555
H5 C9 1_555 1_555
C10 C9 1_555 1_555
H6 C10 1_555 1_555
C11 C10 1_555 1_555
C12 C11 1_555 1_555
H7 C12 1_555 1_555
C13 C8 1_555 1_555
H8 C13 1_555 1_555
C14 C11 1_555 1_555
C15 O7 1_555 1_555
C16 C15 1_555 1_555
C17 C16 1_555 1_555
H9 C17 1_555 1_555
C18 C17 1_555 1_555
H10 C18 1_555 1_555
C19 S2 1_555 1_555
C20 C19 1_555 1_555
H11 C20 1_555 1_555
C21 C16 1_555 1_555
H12 C21 1_555 1_555
C22 S2 1_555 1_555
C23 C22 1_555 1_555
H13 C23 1_555 1_555
C24 C23 1_555 1_555
H14 C24 1_555 1_555
C25 C24 1_555 1_555
C26 C25 1_555 1_555
H15 C26 1_555 1_555
C27 C22 1_555 1_555
H16 C27 1_555 1_555
C28 C25 1_555 1_555
C29 N1 1_555 1_555
H17 C29 1_555 1_555
C30 C29 1_555 1_555
H18 C30 1_555 1_555
C31 C30 1_555 1_555
H19 C31 1_555 1_555
C32 C31 1_555 1_555
H20 C32 1_555 1_555
C33 N1 1_555 1_555
C34 N2 1_555 1_555
C35 C34 1_555 1_555
H21 C35 1_555 1_555
C36 C35 1_555 1_555
H22 C36 1_555 1_555
C37 C36 1_555 1_555
H23 C37 1_555 1_555
C38 N2 1_555 1_555
H24 C38 1_555 1_555
H25 O10 1_555 1_555
Mn1_2 O3 1_555 1_555
Mn2A O3 1_555 1_555
Mn2_2 O2A 1_555 1_555
Mn2A_2 O2 1_555 1_555
S1A O5A 1_555 1_555
S2A O11A 1_555 1_555
O1A Mn1_2 1_555 1_555
O1A_2 Mn1 1_555 1_555
O2A C1A 1_555 1_555
O2_2 Mn2A 1_555 1_555
O2A_2 Mn2 1_555 1_555
O3A Mn1 1_555 1_555
O3_2 Mn1 1_555 1_555
O4A Mn2 1_555 1_555
O6A S1A 1_555 1_555
O7A Mn1_2 1_555 1_555
O7A_2 Mn1 1_555 1_555
O8A Mn2A 1_555 1_555
O9A C28A 1_555 1_555
O10A C28A 1_555 1_555
O12A S2A 1_555 1_555
N1A Mn2A 1_555 1_555
N2A Mn2A 1_555 1_555
C1A O1A 1_555 1_555
C2A C1A 1_555 1_555
C3A C2A 1_555 1_555
H1A C3A 1_555 1_555
C4A C3A 1_555 1_555
H2A C4A 1_555 1_555
C5A S1A 1_555 1_555
C6A C5A 1_555 1_555
H3A C6A 1_555 1_555
C7A C2A 1_555 1_555
H4A C7A 1_555 1_555
C8A S1A 1_555 1_555
C9A C8A 1_555 1_555
H5A C9A 1_555 1_555
C10A C9A 1_555 1_555
H6A C10A 1_555 1_555
C11A C10A 1_555 1_555
C12A C11A 1_555 1_555
H7A C12A 1_555 1_555
C13A C8A 1_555 1_555
H8A C13A 1_555 1_555
C14A O3A 1_555 1_555
C15A O7A 1_555 1_555
C16A C15A 1_555 1_555
C17A C16A 1_555 1_555
H9A C17A 1_555 1_555
C18A C17A 1_555 1_555
H10A C18A 1_555 1_555
C19A S2A 1_555 1_555
C20A C19A 1_555 1_555
H11A C20A 1_555 1_555
C21A C16A 1_555 1_555
H12A C21A 1_555 1_555
C22A S2A 1_555 1_555
C23A C22A 1_555 1_555
H13A C23A 1_555 1_555
C24A C23A 1_555 1_555
H14A C24A 1_555 1_555
C25A C24A 1_555 1_555
C26A C25A 1_555 1_555
H15A C26A 1_555 1_555
C27A C22A 1_555 1_555
H16A C27A 1_555 1_555
C28A C25A 1_555 1_555
C29A N1A 1_555 1_555
H17A C29A 1_555 1_555
C30A C29A 1_555 1_555
H18A C30A 1_555 1_555
C31A C30A 1_555 1_555
H19A C31A 1_555 1_555
C32A C31A 1_555 1_555
H20A C32A 1_555 1_555
C33A N1A 1_555 1_555
C34A N2A 1_555 1_555
C35A C34A 1_555 1_555
H21A C35A 1_555 1_555
C36A C35A 1_555 1_555
H22A C36A 1_555 1_555
C37A C36A 1_555 1_555
H23A C37A 1_555 1_555
C38A N2A 1_555 1_555
H24A C38A 1_555 1_555
H25A O10A 1_555 1_555
Mn2 O3A 1_555 1_555
O4 Mn2A 1_555 1_555
C4 C5 1_555 1_555
C6 C7 1_555 1_555
C12 C13 1_555 1_555
C18 C19 1_555 1_555
C20 C21 1_555 1_555
C26 C27 1_555 1_555
C32 C33 1_555 1_555
C33 C34 1_555 1_555
C37 C38 1_555 1_555
Mn2A_2 O3_2 1_555 1_555
O4A C14A 1_555 1_555
O8A C15A 1_555 1_555
C4A C5A 1_555 1_555
C6A C7A 1_555 1_555
C11A C14A 1_555 1_555
C12A C13A 1_555 1_555
C18A C19A 1_555 1_555
C20A C21A 1_555 1_555
C26A C27A 1_555 1_555
C32A C33A 1_555 1_555
C33A C34A 1_555 1_555
C37A C38A 1_555 1_555

#END
