
#######################################################################
#
#                 Cambridge Crystallographic Data Centre
#                                CCDC 
#
#######################################################################
#
# If this CIF has been generated from an entry in the Cambridge 
# Structural Database, then it will include bibliographic, chemical, 
# crystal, experimental, refinement or atomic coordinate data resulting 
# from the CCDC's data processing and validation procedures.
#
#######################################################################

data_NUZLOK
_symmetry_cell_setting           tetragonal
_symmetry_space_group_name_H-M   'P 43 21 2'
_symmetry_Int_Tables_number      96
_space_group_name_Hall           'P 4nw 2abw'
loop_
_symmetry_equiv_pos_site_id
_symmetry_equiv_pos_as_xyz
1 x,y,z
2 1/2-y,1/2+x,3/4+z
3 -x,-y,1/2+z
4 1/2+y,1/2-x,1/4+z
5 1/2+x,1/2-y,1/4-z
6 1/2-x,1/2+y,3/4-z
7 y,x,-z
8 -y,-x,1/2-z
_cell_length_a                   17.5506(4)
_cell_length_b                   17.5506(4)
_cell_length_c                   15.0396(5)
_cell_angle_alpha                90
_cell_angle_beta                 90
_cell_angle_gamma                90
_cell_volume                     4632.55
loop_
_atom_site_label
_atom_site_type_symbol
_atom_site_fract_x
_atom_site_fract_y
_atom_site_fract_z
Mn1 Mn 0.93888(3) 0.86011(3) 0.10197(3)
S1 S 0.60686(6) 0.85745(6) 0.54439(6)
O1 O 0.85063(16) 0.8625(2) 0.20114(16)
O2 O 0.7440(2) 0.8384(3) 0.12777(19)
O3 O 0.55869(18) 0.48452(16) 0.64155(18)
O4 O 0.64210(17) 0.51949(16) 0.74628(18)
O5 O 0.5303(2) 0.88084(19) 0.5248(2)
O6 O 0.6509(2) 0.90036(17) 0.60700(19)
O7 O 0.84597(15) 0.84597(15) 0.0000
N1 N 1.0231(2) 0.8389(2) 0.2136(2)
N2 N 0.9364(2) 0.72566(18) 0.1016(2)
C1 C 0.7809(2) 0.8513(2) 0.1971(2)
C2 C 0.7374(2) 0.8530(2) 0.2843(2)
C3 C 0.6580(2) 0.8474(3) 0.2840(2)
H1 H 0.6316 0.8431 0.2306
C4 C 0.6187(2) 0.8483(2) 0.3643(2)
H2 H 0.5659 0.8444 0.3647
C5 C 0.6573(2) 0.8551(2) 0.4427(2)
C6 C 0.7359(2) 0.8635(3) 0.4440(2)
H3 H 0.7617 0.8702 0.4975
C7 C 0.7755(2) 0.8617(3) 0.3637(2)
H4 H 0.8283 0.8663 0.3637
C8 C 0.6041(2) 0.7613(2) 0.5819(2)
C9 C 0.6546(2) 0.7390(2) 0.6474(3)
H5 H 0.6901 0.7732 0.6702
C10 C 0.6514(2) 0.6644(2) 0.6789(2)
H6 H 0.6850 0.6491 0.7233
C11 C 0.5996(2) 0.6131(2) 0.6454(2)
C12 C 0.5504(2) 0.6356(2) 0.5786(2)
H7 H 0.5162 0.6008 0.5546
C13 C 0.5517(2) 0.7099(2) 0.5472(3)
H8 H 0.5177 0.7252 0.5033
C14 C 0.6000(2) 0.5320(2) 0.6804(2)
C15 C 1.0048(3) 0.8589(4) 0.2969(3)
H9 H 0.9679 0.8962 0.3057
C16 C 1.0394(4) 0.8258(4) 0.3707(4)
H10 H 1.0263 0.8416 0.4278
C17 C 1.0915(5) 0.7711(4) 0.3588(5)
H11 H 1.1124 0.7457 0.4072
C18 C 1.1136(4) 0.7532(4) 0.2737(5)
H12 H 1.1523 0.7178 0.2642
C19 C 1.0781(3) 0.7878(3) 0.2021(4)
H13 H 1.0932 0.7751 0.1446
C20 C 0.9557(3) 0.6862(2) 0.0301(3)
H14 H 0.9666 0.7127 -0.0219
C21 C 0.9604(3) 0.6075(3) 0.0288(4)
H15 H 0.9740 0.5818 -0.0230
C22 C 0.9447(3) 0.5681(3) 0.1052(4)
H16 H 0.9483 0.5153 0.1063
C23 C 0.9239(3) 0.6066(3) 0.1790(3)
H17 H 0.9117 0.5807 0.2310
C24 C 0.9211(3) 0.6848(3) 0.1757(3)
H18 H 0.9080 0.7110 0.2272
H19 H 0.8001 0.8388 0.0396
Mn1E Mn 0.56112(3) 1.36011(3) 0.64803(3)
Mn1E_2 Mn 0.56112(3) 0.36011(3) 0.64803(3)
Mn1A Mn 0.63989(3) 0.43888(3) 0.85197(3)
Mn1F Mn 0.86011(3) 0.93888(3) -0.10197(3)
S1E S 0.89314(6) 1.35745(6) 0.20561(6)
O1E O 0.64937(16) 1.3625(2) 0.54886(16)
O2E O 0.7560(2) 1.3384(3) 0.62223(19)
O3E O 0.94131(18) 0.98452(16) 0.10845(18)
O3_2 O 0.55869(18) 1.48452(16) 0.64155(18)
O4E O 0.85790(17) 1.01949(16) 0.00372(18)
O4C O 1.01949(16) 0.85790(17) -0.00372(18)
O4G O 0.48051(16) 1.35790(17) 0.75372(18)
O5E O 0.9697(2) 1.38084(19) 0.2252(2)
O6E O 0.8491(2) 1.40036(17) 0.14300(19)
O7A O 0.65403(15) 1.34597(15) 0.7500
N1E N 0.4769(2) 1.3389(2) 0.5364(2)
N2E N 0.5636(2) 1.22566(18) 0.6484(2)
C1E C 0.7191(2) 1.3513(2) 0.5529(2)
C2E C 0.7626(2) 1.3530(2) 0.4657(2)
C3E C 0.8420(2) 1.3474(3) 0.4660(2)
H1E H 0.8684 1.3431 0.5194
C4E C 0.8813(2) 1.3483(2) 0.3857(2)
H2E H 0.9341 1.3444 0.3853
C5E C 0.8427(2) 1.3551(2) 0.3073(2)
C6E C 0.7641(2) 1.3635(3) 0.3060(2)
H3E H 0.7383 1.3702 0.2525
C7E C 0.7245(2) 1.3617(3) 0.3863(2)
H4E H 0.6717 1.3663 0.3863
C8E C 0.8959(2) 1.2613(2) 0.1681(2)
C9E C 0.8454(2) 1.2390(2) 0.1026(3)
H5E H 0.8099 1.2732 0.0798
C10E C 0.8486(2) 1.1644(2) 0.0711(2)
H6E H 0.8150 1.1491 0.0267
C11E C 0.9004(2) 1.1131(2) 0.1046(2)
C12E C 0.9496(2) 1.1356(2) 0.1714(2)
H7E H 0.9838 1.1008 0.1954
C13E C 0.9483(2) 1.2099(2) 0.2028(3)
H8E H 0.9823 1.2252 0.2467
C14E C 0.9000(2) 1.0320(2) 0.0696(2)
C15E C 0.4952(3) 1.3589(4) 0.4531(3)
H9E H 0.5321 1.3962 0.4443
C16E C 0.4606(4) 1.3258(4) 0.3793(4)
H10E H 0.4737 1.3416 0.3222
C17E C 0.4085(5) 1.2711(4) 0.3912(5)
H11E H 0.3876 1.2457 0.3428
C18E C 0.3864(4) 1.2532(4) 0.4763(5)
H12E H 0.3477 1.2178 0.4858
C19E C 0.4219(3) 1.2878(3) 0.5479(4)
H13E H 0.4068 1.2751 0.6054
C20E C 0.5443(3) 1.1862(2) 0.7199(3)
H14E H 0.5334 1.2127 0.7719
C21E C 0.5396(3) 1.1075(3) 0.7212(4)
H15E H 0.5260 1.0818 0.7730
C22E C 0.5553(3) 1.0681(3) 0.6448(4)
H16E H 0.5517 1.0153 0.6437
C23E C 0.5761(3) 1.1066(3) 0.5710(3)
H17E H 0.5883 1.0807 0.5190
C24E C 0.5789(3) 1.1848(3) 0.5743(3)
H18E H 0.5920 1.2110 0.5228
H19F H 0.8388 0.8001 -0.0396
H19E H 0.6999 1.3388 0.7104
H19A H 0.6612 1.3001 0.7896
loop_
_geom_bond_atom_site_label_1
_geom_bond_atom_site_label_2
_geom_bond_site_symmetry_1
_geom_bond_site_symmetry_2
Mn1 O1 1_555 1_555
S1 O5 1_555 1_555
O1 C1 1_555 1_555
O2 C1 1_555 1_555
O3 C14 1_555 1_555
O4 C14 1_555 1_555
O6 S1 1_555 1_555
O7 Mn1 1_555 1_555
N1 Mn1 1_555 1_555
N2 Mn1 1_555 1_555
C1 C2 1_555 1_555
C2 C3 1_555 1_555
C3 H1 1_555 1_555
C4 C3 1_555 1_555
H2 C4 1_555 1_555
C5 S1 1_555 1_555
C6 C5 1_555 1_555
H3 C6 1_555 1_555
C7 C2 1_555 1_555
H4 C7 1_555 1_555
C8 S1 1_555 1_555
C9 C8 1_555 1_555
H5 C9 1_555 1_555
C10 C9 1_555 1_555
H6 C10 1_555 1_555
C11 C10 1_555 1_555
C12 C11 1_555 1_555
H7 C12 1_555 1_555
C13 C8 1_555 1_555
H8 C13 1_555 1_555
C14 C11 1_555 1_555
C15 N1 1_555 1_555
H9 C15 1_555 1_555
C16 C15 1_555 1_555
H10 C16 1_555 1_555
C17 C16 1_555 1_555
H11 C17 1_555 1_555
C18 C17 1_555 1_555
H12 C18 1_555 1_555
C19 N1 1_555 1_555
H13 C19 1_555 1_555
C20 N2 1_555 1_555
H14 C20 1_555 1_555
C21 C20 1_555 1_555
H15 C21 1_555 1_555
C22 C21 1_555 1_555
H16 C22 1_555 1_555
C23 C22 1_555 1_555
H17 C23 1_555 1_555
C24 N2 1_555 1_555
H18 C24 1_555 1_555
H19 O7 1_555 1_555
Mn1E O1E 1_555 1_555
Mn1E_2 O3 1_555 1_555
Mn1A O4 1_555 1_555
Mn1F O7 1_555 1_555
S1E O5E 1_555 1_555
O1E C1E 1_555 1_555
O2E C1E 1_555 1_555
O3E Mn1 1_555 1_555
O3_2 Mn1E 1_555 1_555
O4E Mn1F 1_555 1_555
O4C Mn1 1_555 1_555
O4G Mn1E 1_555 1_555
O6E S1E 1_555 1_555
O7A Mn1E 1_555 1_555
N1E Mn1E 1_555 1_555
N2E Mn1E 1_555 1_555
C1E C2E 1_555 1_555
C2E C3E 1_555 1_555
C3E H1E 1_555 1_555
C4E C3E 1_555 1_555
H2E C4E 1_555 1_555
C5E S1E 1_555 1_555
C6E C5E 1_555 1_555
H3E C6E 1_555 1_555
C7E C2E 1_555 1_555
H4E C7E 1_555 1_555
C8E S1E 1_555 1_555
C9E C8E 1_555 1_555
H5E C9E 1_555 1_555
C10E C9E 1_555 1_555
H6E C10E 1_555 1_555
C11E C10E 1_555 1_555
C12E C11E 1_555 1_555
H7E C12E 1_555 1_555
C13E C8E 1_555 1_555
H8E C13E 1_555 1_555
C14E O3E 1_555 1_555
C15E N1E 1_555 1_555
H9E C15E 1_555 1_555
C16E C15E 1_555 1_555
H10E C16E 1_555 1_555
C17E C16E 1_555 1_555
H11E C17E 1_555 1_555
C18E C17E 1_555 1_555
H12E C18E 1_555 1_555
C19E N1E 1_555 1_555
H13E C19E 1_555 1_555
C20E N2E 1_555 1_555
H14E C20E 1_555 1_555
C21E C20E 1_555 1_555
H15E C21E 1_555 1_555
C22E C21E 1_555 1_555
H16E C22E 1_555 1_555
C23E C22E 1_555 1_555
H17E C23E 1_555 1_555
C24E N2E 1_555 1_555
H18E C24E 1_555 1_555
H19F O7 1_555 1_555
H19E O7A 1_555 1_555
H19A O7A 1_555 1_555
C4 C5 1_555 1_555
C6 C7 1_555 1_555
C12 C13 1_555 1_555
C18 C19 1_555 1_555
C23 C24 1_555 1_555
O4E C14E 1_555 1_555
C4E C5E 1_555 1_555
C6E C7E 1_555 1_555
C11E C14E 1_555 1_555
C12E C13E 1_555 1_555
C18E C19E 1_555 1_555
C23E C24E 1_555 1_555

#END
