
#######################################################################
#
#                 Cambridge Crystallographic Data Centre
#                                CCDC 
#
#######################################################################
#
# If this CIF has been generated from an entry in the Cambridge 
# Structural Database, then it will include bibliographic, chemical, 
# crystal, experimental, refinement or atomic coordinate data resulting 
# from the CCDC's data processing and validation procedures.
#
#######################################################################

data_NUZMAX
_symmetry_cell_setting           triclinic
_symmetry_space_group_name_H-M   'P -1'
_symmetry_Int_Tables_number      2
_space_group_name_Hall           '-P 1'
loop_
_symmetry_equiv_pos_site_id
_symmetry_equiv_pos_as_xyz
1 x,y,z
2 -x,-y,-z
_cell_length_a                   12.440(4)
_cell_length_b                   12.707(4)
_cell_length_c                   14.561(4)
_cell_angle_alpha                91.0810(10)
_cell_angle_beta                 111.994(2)
_cell_angle_gamma                118.943(3)
_cell_volume                     1809.97
loop_
_atom_site_label
_atom_site_type_symbol
_atom_site_fract_x
_atom_site_fract_y
_atom_site_fract_z
Mn1 Mn 0.02812(4) 0.11884(3) 0.13417(3)
S1 S 0.35169(6) 0.92309(5) 0.28022(5)
O1 O 0.1035(2) 0.31346(15) 0.18285(14)
N1 N 0.2919(2) 0.2666(2) 0.56615(16)
C1 C 0.1698(3) 0.3871(2) 0.26885(19)
Mn2 Mn 0.19975(4) 0.20508(3) 0.39911(3)
S2 S 0.79082(7) 0.33907(6) 0.16397(6)
O2 O 0.2100(2) 0.36331(17) 0.35435(14)
C2 C 0.2108(3) 0.5205(2) 0.27216(18)
O3 O 0.9281(2) 1.08711(19) 0.23706(17)
C3 C 0.3024(3) 0.6108(2) 0.3640(2)
H1 H 0.3353 0.5880 0.4236
O4 O 1.0102(2) 1.1471(2) 0.40392(17)
C4 C 0.3446(3) 0.7338(2) 0.3674(2)
H2 H 0.4060 0.7941 0.4287
O5 O 0.26543(19) 0.92904(17) 0.18412(14)
C5 C 0.2935(2) 0.7656(2) 0.27725(18)
O6 O 0.36441(19) 0.98074(16) 0.37326(14)
C6 C 0.2018(3) 0.6771(2) 0.18502(19)
H3 H 0.1683 0.6998 0.1254
O7 O 0.23355(18) 0.17224(17) 0.24202(15)
C7 C 0.1610(3) 0.5541(2) 0.18337(18)
H4 H 0.0997 0.4938 0.1221
O8 O 0.3965(2) 0.26017(19) 0.39982(15)
C8 C 0.5176(2) 0.9847(2) 0.28905(18)
O9 O 0.9823(2) 0.93230(15) 0.15036(13)
C9 C 0.6279(3) 1.0383(3) 0.38452(19)
H5 H 0.6158 1.0470 0.4428
O10 O 0.9140(2) 0.85221(17) -0.01172(14)
C10 C 0.7569(3) 1.0787(3) 0.3919(2)
H6 H 0.8321 1.1156 0.4556
O11 O 0.7338(3) 0.25275(18) 0.06863(18)
C11 C 0.7744(3) 1.0644(2) 0.30486(19)
O12 O 0.9056(2) 0.3527(2) 0.25002(19)
C12 C 0.6626(3) 1.0115(2) 0.2097(2)
H7 H 0.6747 1.0031 0.1513
O13 O -0.1734(2) 0.0872(2) 0.02691(16)
C13 C 0.5325(3) 0.9707(2) 0.20091(19)
H8 H 0.4572 0.9349 0.1372
O14 O 0.1398(2) 0.00602(17) 0.36808(14)
C14 C 0.9145(3) 1.1031(2) 0.3148(2)
C15 C 0.3570(3) 0.2265(2) 0.3054(2)
C16 C 0.4624(2) 0.2524(2) 0.26712(19)
C17 C 0.4254(3) 0.2209(2) 0.1636(2)
H9 H 0.3342 0.1833 0.1165
C18 C 0.5243(3) 0.2456(3) 0.1304(2)
H10 H 0.5003 0.2251 0.0611
C19 C 0.6591(3) 0.3012(2) 0.2020(2)
C20 C 0.6972(3) 0.3313(3) 0.3052(2)
H11 H 0.7881 0.3676 0.3524
C21 C 0.5969(3) 0.3062(3) 0.3373(2)
H12 H 0.6209 0.3258 0.4066
C22 C 0.8347(3) 0.4872(2) 0.1388(2)
C23 C 0.8034(3) 0.4997(2) 0.0399(2)
H13 H 0.7589 0.4308 -0.0139
C24 C 0.8390(3) 0.6161(2) 0.0212(2)
H14 H 0.8192 0.6251 -0.0453
C25 C 0.9041(2) 0.7194(2) 0.10084(18)
C26 C 0.9347(3) 0.7041(2) 0.1999(2)
H15 H 0.9784 0.7726 0.2538
C27 C 0.9012(3) 0.5886(2) 0.2198(2)
H16 H 0.9230 0.5795 0.2864
C28 C 0.9377(2) 0.8446(2) 0.07807(18)
C29 C 0.4053(3) 0.3780(3) 0.6180(2)
H17 H 0.4518 0.4265 0.5829
C30 C 0.4562(4) 0.4238(4) 0.7216(3)
H18 H 0.5352 0.5017 0.7549
C31 C 0.3886(4) 0.3529(4) 0.7754(2)
C32 C 0.2728(4) 0.2372(3) 0.7220(2)
H19 H 0.2257 0.1859 0.7556
C33 C 0.2279(3) 0.1989(2) 0.61872(17)
H20 H 0.1487 0.1215 0.5836
C34 C 0.4386(3) 0.4023(2) 0.88781(17)
H21 H 0.4349 0.4752 0.8974
H22 H 0.5310 0.4228 0.9246
H23 H 0.3814 0.3402 0.9128
H24 H 0.2153 0.0040 0.3781
H25 H -0.2038 0.0750 -0.0399
H26 H 0.0792 -0.0305 0.3015
H27 H -0.1999 0.1375 0.0504
Mn1_2 Mn 1.02812(4) 1.11884(3) 0.13417(3)
Mn1A Mn 0.97188(4) 0.88116(3) -0.13417(3)
Mn2_2 Mn 1.19975(4) 1.20508(3) 0.39911(3)
O3_2 O -0.0719(2) 0.08711(19) 0.23706(17)
O4_2 O 0.0102(2) 0.1471(2) 0.40392(17)
O9_2 O -0.0177(2) -0.06770(15) 0.15036(13)
O10A O 0.0860(2) 0.14779(17) 0.01172(14)
O15 O 0.0622(6) 0.4026(5) 0.5035(4)
loop_
_geom_bond_atom_site_label_1
_geom_bond_atom_site_label_2
_geom_bond_site_symmetry_1
_geom_bond_site_symmetry_2
Mn1 O1 1_555 1_555
S1 O5 1_555 1_555
O1 C1 1_555 1_555
N1 Mn2 1_555 1_555
C1 O2 1_555 1_555
Mn2 O2 1_555 1_555
S2 O11 1_555 1_555
C2 C1 1_555 1_555
O3 C14 1_555 1_555
C3 C2 1_555 1_555
H1 C3 1_555 1_555
O4 C14 1_555 1_555
C4 C3 1_555 1_555
H2 C4 1_555 1_555
C5 S1 1_555 1_555
O6 S1 1_555 1_555
C6 C5 1_555 1_555
H3 C6 1_555 1_555
O7 Mn1 1_555 1_555
C7 C2 1_555 1_555
H4 C7 1_555 1_555
O8 Mn2 1_555 1_555
C8 S1 1_555 1_555
O9 C28 1_555 1_555
C9 C8 1_555 1_555
H5 C9 1_555 1_555
O10 C28 1_555 1_555
C10 C9 1_555 1_555
H6 C10 1_555 1_555
C11 C10 1_555 1_555
O12 S2 1_555 1_555
C12 C11 1_555 1_555
H7 C12 1_555 1_555
O13 Mn1 1_555 1_555
C13 C8 1_555 1_555
H8 C13 1_555 1_555
O14 Mn2 1_555 1_555
C14 C11 1_555 1_555
C15 O7 1_555 1_555
C16 C15 1_555 1_555
C17 C16 1_555 1_555
H9 C17 1_555 1_555
C18 C17 1_555 1_555
H10 C18 1_555 1_555
C19 S2 1_555 1_555
C20 C19 1_555 1_555
H11 C20 1_555 1_555
C21 C16 1_555 1_555
H12 C21 1_555 1_555
C22 S2 1_555 1_555
C23 C22 1_555 1_555
H13 C23 1_555 1_555
C24 C23 1_555 1_555
H14 C24 1_555 1_555
C25 C24 1_555 1_555
C26 C25 1_555 1_555
H15 C26 1_555 1_555
C27 C22 1_555 1_555
H16 C27 1_555 1_555
C28 C25 1_555 1_555
C29 N1 1_555 1_555
H17 C29 1_555 1_555
C30 C29 1_555 1_555
H18 C30 1_555 1_555
C31 C30 1_555 1_555
C32 C31 1_555 1_555
H19 C32 1_555 1_555
C33 N1 1_555 1_555
H20 C33 1_555 1_555
C34 C31 1_555 1_555
H21 C34 1_555 1_555
H22 C34 1_555 1_555
H23 C34 1_555 1_555
H24 O14 1_555 1_555
H25 O13 1_555 1_555
H26 O14 1_555 1_555
H27 O13 1_555 1_555
Mn1_2 O3 1_555 1_555
Mn1A O10 1_555 1_555
Mn2_2 O4 1_555 1_555
O3_2 Mn1 1_555 1_555
O4_2 Mn2 1_555 1_555
O9_2 Mn1 1_555 1_555
O10A Mn1 1_555 1_555
C4 C5 1_555 1_555
C6 C7 1_555 1_555
O8 C15 1_555 1_555
O9 Mn1_2 1_555 1_555
C12 C13 1_555 1_555
C18 C19 1_555 1_555
C20 C21 1_555 1_555
C26 C27 1_555 1_555
C32 C33 1_555 1_555

#END
