
#######################################################################
#
#                 Cambridge Crystallographic Data Centre
#                                CCDC 
#
#######################################################################
#
# If this CIF has been generated from an entry in the Cambridge 
# Structural Database, then it will include bibliographic, chemical, 
# crystal, experimental, refinement or atomic coordinate data resulting 
# from the CCDC's data processing and validation procedures.
#
#######################################################################

data_NUZMEB
_symmetry_cell_setting           orthorhombic
_symmetry_space_group_name_H-M   'P b c a'
_symmetry_Int_Tables_number      61
_space_group_name_Hall           '-P 2ac 2ab'
loop_
_symmetry_equiv_pos_site_id
_symmetry_equiv_pos_as_xyz
1 x,y,z
2 1/2-x,-y,1/2+z
3 1/2+x,1/2-y,-z
4 -x,1/2+y,1/2-z
5 -x,-y,-z
6 1/2+x,y,1/2-z
7 1/2-x,1/2+y,z
8 x,1/2-y,1/2+z
_cell_length_a                   24.436(3)
_cell_length_b                   16.897(2)
_cell_length_c                   26.052(3)
_cell_angle_alpha                90
_cell_angle_beta                 90
_cell_angle_gamma                90
_cell_volume                     10756.7
loop_
_atom_site_label
_atom_site_type_symbol
_atom_site_fract_x
_atom_site_fract_y
_atom_site_fract_z
Mn1 Mn 0.591536(15) 0.97135(2) 0.014213(13)
S1 S 0.78447(3) 0.76924(6) -0.24232(3)
O1 O 0.64122(8) 0.92930(12) -0.04746(8)
N1 N 0.49731(12) 0.70737(17) 0.06084(14)
C1 C 0.65327(11) 0.85837(17) -0.05425(10)
Mn2 Mn 0.569049(17) 0.75793(2) 0.014634(15)
S2 S 0.38656(3) 1.01829(4) 0.29054(2)
O2 O 0.64005(9) 0.80210(14) -0.02591(9)
N2 N 0.4619(3) 0.2713(5) 0.2444(3)
C2 C 0.68746(11) 0.83825(17) -0.10085(10)
O3 O 0.64061(8) 0.57743(12) -0.42349(8)
N3 N 0.61786(12) 0.64363(15) 0.02216(11)
C3 C 0.69368(13) 0.89111(19) -0.14080(11)
H1 H 0.6779 0.9410 -0.1384
O4 O 0.59317(8) 0.68899(14) -0.41566(7)
N4 N 0.63804(11) 0.08337(15) 0.02670(9)
C4 C 0.72306(13) 0.87103(19) -0.18438(11)
H2 H 0.7267 0.9067 -0.2114
O5 O 0.82280(9) 0.70915(19) -0.22720(9)
C5 C 0.74680(11) 0.79737(19) -0.18692(10)
O6 O 0.80448(11) 0.83987(19) -0.26621(10)
C6 C 0.74261(14) 0.7439(2) -0.14712(12)
H3 H 0.7596 0.6947 -0.1492
O7 O 0.53409(7) 0.99921(12) 0.07430(7)
C7 C 0.71272(14) 0.76464(19) -0.10399(12)
H4 H 0.7095 0.7291 -0.0769
O8 O 0.45417(7) 0.95404(11) 0.04463(6)
C8 C 0.73571(12) 0.7257(2) -0.28399(11)
O9 O 0.48916(11) 0.69764(13) 0.40969(9)
C9 C 0.69456(17) 0.7734(2) -0.30265(15)
H5 H 0.6909 0.8252 -0.2911
O10 O 0.53533(11) 0.79353(14) 0.44784(10)
C10 C 0.65871(16) 0.7434(2) -0.33882(15)
H6 H 0.6301 0.7746 -0.3507
O11 O 0.40235(10) 1.09382(12) 0.31087(8)
C11 C 0.66504(11) 0.66737(17) -0.35743(10)
O12 O 0.32920(9) 0.99875(15) 0.28717(8)
C12 C 0.70496(12) 0.61938(18) -0.33635(11)
H7 H 0.7082 0.5672 -0.3473
O13 O 0.52864(7) 0.87224(10) -0.00891(7)
C13 C 0.74010(12) 0.6481(2) -0.29908(11)
H8 H 0.7664 0.6153 -0.2844
C14 C 0.63011(11) 0.64180(17) -0.40213(10)
C15 C 0.48461(11) 0.98165(14) 0.07961(9)
C16 C 0.45972(10) 0.99272(15) 0.13206(9)
C17 C 0.48025(12) 1.04964(17) 0.16524(10)
H9 H 0.5092 1.0818 0.1552
C18 C 0.45708(13) 1.05818(17) 0.21377(10)
H10 H 0.4698 1.0969 0.2362
C19 C 0.41506(11) 1.00856(16) 0.22815(9)
C20 C 0.39472(12) 0.95086(19) 0.19600(10)
H11 H 0.3666 0.9176 0.2066
C21 C 0.41732(12) 0.94369(18) 0.14741(10)
H12 H 0.4039 0.9056 0.1249
C22 C 0.41945(11) 0.94409(16) 0.32726(9)
C23 C 0.45961(14) 0.96662(18) 0.36125(12)
H13 H 0.4691 1.0196 0.3648
C24 C 0.48560(14) 0.90875(18) 0.39005(13)
H14 H 0.5126 0.9232 0.4134
C25 C 0.47190(12) 0.83008(16) 0.38440(10)
C26 C 0.43168(14) 0.80905(18) 0.35021(12)
H15 H 0.4223 0.7560 0.3464
C27 C 0.40488(14) 0.86588(18) 0.32131(12)
H16 H 0.3775 0.8515 0.2983
C28 C 0.50063(13) 0.76807(17) 0.41628(10)
C29 C 0.4869(2) 0.7283(3) 0.1081(2)
H17 H 0.5064 0.7707 0.1216
C30 C 0.4491(2) 0.6920(3) 0.1391(2)
H18 H 0.4452 0.7072 0.1732
C31 C 0.4173(2) 0.6329(3) 0.1190(4)
C32 C 0.4299(2) 0.6072(3) 0.0714(3)
H19 H 0.4122 0.5631 0.0579
C33 C 0.46871(16) 0.6460(2) 0.04271(18)
H20 H 0.4754 0.6288 0.0094
C34 C 0.37746(16) 0.5890(2) 0.15436(18)
H21 H 0.3706 0.6211 0.1845
H22 H 0.3429 0.5820 0.1366
C35 C 0.3958(4) 0.5192(4) 0.1690(4)
H23 H 0.4311 0.5271 0.1852
H24 H 0.4020 0.4878 0.1384
C36 C 0.3593(4) 0.4691(4) 0.2067(3)
H25 H 0.3491 0.5004 0.2363
H26 H 0.3262 0.4514 0.1895
C37 C 0.3934(2) 0.3998(3) 0.2225(2)
C38 C 0.4325(4) 0.4016(5) 0.2609(3)
H27 H 0.4369 0.4475 0.2802
C39 C 0.4645(4) 0.3385(7) 0.2710(3)
H28 H 0.4895 0.3421 0.2978
C40 C 0.4266(3) 0.2688(4) 0.2089(3)
H29 H 0.4234 0.2221 0.1902
C41 C 0.3930(2) 0.3296(4) 0.1963(2)
H30 H 0.3690 0.3235 0.1689
C42 C 0.6311(2) 0.6101(3) 0.06439(15)
H31 H 0.6144 0.6284 0.0942
C43 C 0.6685(2) 0.5482(3) 0.06903(16)
H32 H 0.6771 0.5283 0.1013
C44 C 0.69192(14) 0.51764(19) 0.02735(15)
C45 C 0.67869(17) 0.5514(2) -0.01961(15)
H33 H 0.6945 0.5327 -0.0497
C46 C 0.64155(18) 0.6135(2) -0.02110(14)
H34 H 0.6325 0.6353 -0.0527
C47 C 0.73012(17) 0.4474(2) 0.0311(2)
H35 H 0.7529 0.4528 0.0613
H36 H 0.7538 0.4462 0.0012
C48 C 0.6967(2) 0.3674(2) 0.0343(3)
H37 H 0.6696 0.3720 0.0614
H38 H 0.6773 0.3596 0.0022
C49 C 0.73145(18) 0.2964(2) 0.0445(2)
H39 H 0.7463 0.2996 0.0789
H40 H 0.7618 0.2956 0.0205
C50 C 0.69874(16) 0.2206(2) 0.03904(16)
C51 C 0.6806(2) 0.1780(3) 0.08090(16)
H41 H 0.6880 0.1953 0.1141
C52 C 0.65155(18) 0.1102(2) 0.07284(14)
H42 H 0.6406 0.0810 0.1013
C53 C 0.6536(2) 0.1270(3) -0.01237(14)
H43 H 0.6437 0.1107 -0.0452
C54 C 0.6831(2) 0.1944(3) -0.00767(16)
H44 H 0.6928 0.2229 -0.0369
H45 H 0.5171 0.8580 -0.0425
H46 H 0.4987 0.8967 0.0072
Mn1D Mn 0.408464(15) 1.02865(2) -0.014213(13)
Mn1_2 Mn 0.591536(15) -0.02865(2) 0.014213(13)
Mn1C Mn 0.408464(15) 1.47135(2) 0.485787(13)
Mn1D_2 Mn 0.408464(15) 2.02865(2) -0.014213(13)
Mn1G Mn 0.591536(15) 0.52865(2) -0.485787(13)
S1D S 0.21553(3) 1.23076(6) 0.24232(3)
O1D O 0.35878(8) 1.07070(12) 0.04746(8)
N1D N 0.50269(12) 1.29263(17) -0.06084(14)
C1D C 0.34673(11) 1.14163(17) 0.05425(10)
Mn2D Mn 0.430951(17) 1.24207(2) -0.014634(15)
Mn2C Mn 0.430951(17) 1.25793(2) -0.514634(15)
Mn2C_2 Mn 0.430951(17) 1.25793(2) 0.485366(15)
Mn2G Mn 0.569049(17) 0.74207(2) -0.485366(15)
Mn2G_2 Mn 0.569049(17) 0.74207(2) 0.514634(15)
S2D S 0.61344(3) 0.98171(4) -0.29054(2)
O2D O 0.35995(9) 1.19790(14) 0.02591(9)
N2D N 0.5381(3) 1.7287(5) -0.2444(3)
C2D C 0.31254(11) 1.16175(17) 0.10085(10)
O3D O 0.35939(8) 1.42257(12) 0.42349(8)
O3C O 0.35939(8) 1.07743(12) -0.07651(8)
O3G O 0.64061(8) 0.92257(12) 0.07651(8)
N3D N 0.38214(12) 1.35637(15) -0.02216(11)
C3D C 0.30632(13) 1.10889(19) 0.14080(11)
H1D H 0.3221 1.0590 0.1384
O4D O 0.40683(8) 1.31101(14) 0.41566(7)
O4C O 0.40683(8) 1.18899(14) -0.08434(7)
O4G O 0.59317(8) 0.81101(14) 0.08434(7)
N4D N 0.36196(11) 1.91663(15) -0.02670(9)
N4_2 N 0.63804(11) 1.08337(15) 0.02670(9)
N4D_2 N 0.36196(11) 0.91663(15) -0.02670(9)
C4D C 0.27694(13) 1.12897(19) 0.18438(11)
H2D H 0.2733 1.0933 0.2114
O5D O 0.17720(9) 1.29085(19) 0.22720(9)
C5D C 0.25320(11) 1.20263(19) 0.18692(10)
O6D O 0.19552(11) 1.16013(19) 0.26621(10)
C6D C 0.25739(14) 1.2561(2) 0.14712(12)
H3D H 0.2404 1.3053 0.1492
O7D O 0.46591(7) 1.00079(12) -0.07430(7)
C7D C 0.28728(14) 1.23536(19) 0.10399(12)
H4D H 0.2905 1.2709 0.0769
O8D O 0.54583(7) 1.04596(11) -0.04463(6)
C8D C 0.26429(12) 1.2743(2) 0.28399(11)
O9D O 0.51084(11) 1.30236(13) -0.40969(9)
C9D C 0.30544(17) 1.2266(2) 0.30265(15)
H5D H 0.3091 1.1748 0.2911
O10D O 0.46467(11) 1.20647(14) -0.44784(10)
O10C O 0.46467(11) 1.29353(14) 0.05216(10)
O10G O 0.53533(11) 0.70647(14) -0.05216(10)
C10D C 0.34129(16) 1.2566(2) 0.33882(15)
H6D H 0.3699 1.2254 0.3507
O11D O 0.59765(10) 0.90618(12) -0.31087(8)
C11D C 0.33496(11) 1.33263(17) 0.35743(10)
O12D O 0.67080(9) 1.00125(15) -0.28717(8)
C12D C 0.29504(12) 1.38062(18) 0.33635(11)
H7D H 0.2918 1.4328 0.3473
O13D O 0.47136(7) 1.12776(10) 0.00891(7)
C13D C 0.25990(12) 1.3519(2) 0.29908(11)
H8D H 0.2336 1.3847 0.2844
C14D C 0.36989(11) 1.35820(17) 0.40213(10)
C15D C 0.51539(11) 1.01835(14) -0.07961(9)
C16D C 0.54028(10) 1.00728(15) -0.13206(9)
C17D C 0.51975(12) 0.95036(17) -0.16524(10)
H9D H 0.4908 0.9182 -0.1552
C18D C 0.54292(13) 0.94182(17) -0.21377(10)
H10D H 0.5302 0.9031 -0.2362
C19D C 0.58494(11) 0.99144(16) -0.22815(9)
C20D C 0.60528(12) 1.04914(19) -0.19600(10)
H11D H 0.6334 1.0824 -0.2066
C21D C 0.58268(12) 1.05631(18) -0.14741(10)
H12D H 0.5961 1.0944 -0.1249
C22D C 0.58055(11) 1.05591(16) -0.32726(9)
C23D C 0.54039(14) 1.03338(18) -0.36125(12)
H13D H 0.5309 0.9804 -0.3648
C24D C 0.51440(14) 1.09125(18) -0.39005(13)
H14D H 0.4874 1.0768 -0.4134
C25D C 0.52810(12) 1.16992(16) -0.38440(10)
C26D C 0.56832(14) 1.19095(18) -0.35021(12)
H15D H 0.5777 1.2440 -0.3464
C27D C 0.59512(14) 1.13412(18) -0.32131(12)
H16D H 0.6225 1.1485 -0.2983
C28D C 0.49937(13) 1.23193(17) -0.41628(10)
C29D C 0.5131(2) 1.2717(3) -0.1081(2)
H17D H 0.4936 1.2293 -0.1216
C30D C 0.5509(2) 1.3080(3) -0.1391(2)
H18D H 0.5548 1.2928 -0.1732
C31D C 0.5827(2) 1.3671(3) -0.1190(4)
C32D C 0.5701(2) 1.3928(3) -0.0714(3)
H19D H 0.5878 1.4369 -0.0579
C33D C 0.53129(16) 1.3540(2) -0.04271(18)
H20D H 0.5246 1.3712 -0.0094
C34D C 0.62254(16) 1.4110(2) -0.15436(18)
H21D H 0.6294 1.3789 -0.1845
H22D H 0.6571 1.4180 -0.1366
C35D C 0.6042(4) 1.4808(4) -0.1690(4)
H23D H 0.5689 1.4729 -0.1852
H24D H 0.5980 1.5122 -0.1384
C36D C 0.6407(4) 1.5309(4) -0.2067(3)
H25D H 0.6509 1.4996 -0.2363
H26D H 0.6738 1.5486 -0.1895
C37D C 0.6066(2) 1.6002(3) -0.2225(2)
C38D C 0.5675(4) 1.5984(5) -0.2609(3)
H27D H 0.5631 1.5525 -0.2802
C39D C 0.5355(4) 1.6615(7) -0.2710(3)
H28D H 0.5105 1.6579 -0.2978
C40D C 0.5734(3) 1.7312(4) -0.2089(3)
H29D H 0.5766 1.7779 -0.1902
C41D C 0.6070(2) 1.6704(4) -0.1963(2)
H30D H 0.6310 1.6765 -0.1689
C42D C 0.3689(2) 1.3899(3) -0.06439(15)
H31D H 0.3856 1.3716 -0.0942
C43D C 0.3315(2) 1.4518(3) -0.06903(16)
H32D H 0.3229 1.4717 -0.1013
C44D C 0.30808(14) 1.48236(19) -0.02735(15)
C45D C 0.32131(17) 1.4486(2) 0.01961(15)
H33D H 0.3055 1.4673 0.0497
C46D C 0.35845(18) 1.3865(2) 0.02110(14)
H34D H 0.3675 1.3647 0.0527
C47D C 0.26988(17) 1.5526(2) -0.0311(2)
H35D H 0.2471 1.5472 -0.0613
H36D H 0.2462 1.5538 -0.0012
C48D C 0.3033(2) 1.6326(2) -0.0343(3)
H37D H 0.3304 1.6280 -0.0614
H38D H 0.3227 1.6404 -0.0022
C49D C 0.26855(18) 1.7036(2) -0.0445(2)
H39D H 0.2537 1.7004 -0.0789
H40D H 0.2382 1.7044 -0.0205
C50D C 0.30126(16) 1.7794(2) -0.03904(16)
C51D C 0.3194(2) 1.8220(3) -0.08090(16)
H41D H 0.3120 1.8047 -0.1141
C52D C 0.34845(18) 1.8898(2) -0.07284(14)
H42D H 0.3594 1.9190 -0.1013
C53D C 0.3464(2) 1.8730(3) 0.01237(14)
H43D H 0.3563 1.8893 0.0452
C54D C 0.3169(2) 1.8056(3) 0.00767(16)
H44D H 0.3072 1.7771 0.0369
H45D H 0.4829 1.1420 0.0425
H46D H 0.5013 1.1033 -0.0072
O14 O 0.4355(2) 0.6637(3) 0.25462(16)
loop_
_geom_bond_atom_site_label_1
_geom_bond_atom_site_label_2
_geom_bond_site_symmetry_1
_geom_bond_site_symmetry_2
Mn1 O1 1_555 1_555
S1 O5 1_555 1_555
O1 C1 1_555 1_555
N1 Mn2 1_555 1_555
C1 O2 1_555 1_555
Mn2 O2 1_555 1_555
S2 O11 1_555 1_555
N2 C39 1_555 1_555
C2 C1 1_555 1_555
O3 C14 1_555 1_555
N3 Mn2 1_555 1_555
C3 C2 1_555 1_555
H1 C3 1_555 1_555
O4 C14 1_555 1_555
N4 C52 1_555 1_555
C4 C3 1_555 1_555
H2 C4 1_555 1_555
C5 S1 1_555 1_555
O6 S1 1_555 1_555
C6 C5 1_555 1_555
H3 C6 1_555 1_555
O7 Mn1 1_555 1_555
C7 C2 1_555 1_555
H4 C7 1_555 1_555
O8 C15 1_555 1_555
C8 S1 1_555 1_555
O9 C28 1_555 1_555
C9 C8 1_555 1_555
H5 C9 1_555 1_555
O10 C28 1_555 1_555
C10 C9 1_555 1_555
H6 C10 1_555 1_555
C11 C10 1_555 1_555
O12 S2 1_555 1_555
C12 C11 1_555 1_555
H7 C12 1_555 1_555
O13 Mn1 1_555 1_555
C13 C8 1_555 1_555
H8 C13 1_555 1_555
C14 C11 1_555 1_555
C15 O7 1_555 1_555
C16 C15 1_555 1_555
C17 C16 1_555 1_555
H9 C17 1_555 1_555
C18 C17 1_555 1_555
H10 C18 1_555 1_555
C19 S2 1_555 1_555
C20 C19 1_555 1_555
H11 C20 1_555 1_555
C21 C16 1_555 1_555
H12 C21 1_555 1_555
C22 S2 1_555 1_555
C23 C22 1_555 1_555
H13 C23 1_555 1_555
C24 C23 1_555 1_555
H14 C24 1_555 1_555
C25 C24 1_555 1_555
C26 C25 1_555 1_555
H15 C26 1_555 1_555
C27 C22 1_555 1_555
H16 C27 1_555 1_555
C28 C25 1_555 1_555
C29 N1 1_555 1_555
H17 C29 1_555 1_555
C30 C29 1_555 1_555
H18 C30 1_555 1_555
C31 C30 1_555 1_555
C32 C31 1_555 1_555
H19 C32 1_555 1_555
C33 N1 1_555 1_555
H20 C33 1_555 1_555
C34 C31 1_555 1_555
H21 C34 1_555 1_555
H22 C34 1_555 1_555
C35 C34 1_555 1_555
H23 C35 1_555 1_555
H24 C35 1_555 1_555
C36 C35 1_555 1_555
H25 C36 1_555 1_555
H26 C36 1_555 1_555
C37 C36 1_555 1_555
C38 C37 1_555 1_555
H27 C38 1_555 1_555
C39 C38 1_555 1_555
H28 C39 1_555 1_555
C40 N2 1_555 1_555
H29 C40 1_555 1_555
C41 C37 1_555 1_555
H30 C41 1_555 1_555
C42 N3 1_555 1_555
H31 C42 1_555 1_555
C43 C42 1_555 1_555
H32 C43 1_555 1_555
C44 C43 1_555 1_555
C45 C44 1_555 1_555
H33 C45 1_555 1_555
C46 N3 1_555 1_555
H34 C46 1_555 1_555
C47 C44 1_555 1_555
H35 C47 1_555 1_555
H36 C47 1_555 1_555
C48 C47 1_555 1_555
H37 C48 1_555 1_555
H38 C48 1_555 1_555
C49 C48 1_555 1_555
H39 C49 1_555 1_555
H40 C49 1_555 1_555
C50 C49 1_555 1_555
C51 C50 1_555 1_555
H41 C51 1_555 1_555
C52 C51 1_555 1_555
H42 C52 1_555 1_555
C53 N4 1_555 1_555
H43 C53 1_555 1_555
C54 C50 1_555 1_555
H44 C54 1_555 1_555
H45 O13 1_555 1_555
H46 O13 1_555 1_555
Mn1D O8 1_555 1_555
Mn1_2 N4 1_555 1_555
Mn1C O3D 1_555 1_555
Mn1D_2 N4D 1_555 1_555
Mn1G O3 1_555 1_555
S1D O5D 1_555 1_555
O1D Mn1D 1_555 1_555
N1D Mn2D 1_555 1_555
C1D O1D 1_555 1_555
Mn2D O2D 1_555 1_555
Mn2C O10D 1_555 1_555
Mn2C_2 O4D 1_555 1_555
Mn2G O4 1_555 1_555
Mn2G_2 O10 1_555 1_555
S2D O11D 1_555 1_555
O2D C1D 1_555 1_555
N2D C39D 1_555 1_555
C2D C1D 1_555 1_555
O3D C14D 1_555 1_555
O3C Mn1D 1_555 1_555
O3G Mn1 1_555 1_555
N3D Mn2D 1_555 1_555
C3D C2D 1_555 1_555
H1D C3D 1_555 1_555
O4D C14D 1_555 1_555
O4C Mn2D 1_555 1_555
O4G Mn2 1_555 1_555
N4D C52D 1_555 1_555
N4_2 Mn1 1_555 1_555
N4D_2 Mn1D 1_555 1_555
C4D C3D 1_555 1_555
H2D C4D 1_555 1_555
C5D S1D 1_555 1_555
O6D S1D 1_555 1_555
C6D C5D 1_555 1_555
H3D C6D 1_555 1_555
O7D Mn1D 1_555 1_555
C7D C2D 1_555 1_555
H4D C7D 1_555 1_555
O8D Mn1 1_555 1_555
C8D S1D 1_555 1_555
O9D C28D 1_555 1_555
C9D C8D 1_555 1_555
H5D C9D 1_555 1_555
O10D C28D 1_555 1_555
O10C Mn2D 1_555 1_555
O10G Mn2 1_555 1_555
C10D C9D 1_555 1_555
H6D C10D 1_555 1_555
C11D C10D 1_555 1_555
O12D S2D 1_555 1_555
C12D C11D 1_555 1_555
H7D C12D 1_555 1_555
O13D Mn1D 1_555 1_555
C13D C8D 1_555 1_555
H8D C13D 1_555 1_555
C14D C11D 1_555 1_555
C15D O7D 1_555 1_555
C16D C15D 1_555 1_555
C17D C16D 1_555 1_555
H9D C17D 1_555 1_555
C18D C17D 1_555 1_555
H10D C18D 1_555 1_555
C19D S2D 1_555 1_555
C20D C19D 1_555 1_555
H11D C20D 1_555 1_555
C21D C16D 1_555 1_555
H12D C21D 1_555 1_555
C22D S2D 1_555 1_555
C23D C22D 1_555 1_555
H13D C23D 1_555 1_555
C24D C23D 1_555 1_555
H14D C24D 1_555 1_555
C25D C24D 1_555 1_555
C26D C25D 1_555 1_555
H15D C26D 1_555 1_555
C27D C22D 1_555 1_555
H16D C27D 1_555 1_555
C28D C25D 1_555 1_555
C29D N1D 1_555 1_555
H17D C29D 1_555 1_555
C30D C29D 1_555 1_555
H18D C30D 1_555 1_555
C31D C30D 1_555 1_555
C32D C31D 1_555 1_555
H19D C32D 1_555 1_555
C33D N1D 1_555 1_555
H20D C33D 1_555 1_555
C34D C31D 1_555 1_555
H21D C34D 1_555 1_555
H22D C34D 1_555 1_555
C35D C34D 1_555 1_555
H23D C35D 1_555 1_555
H24D C35D 1_555 1_555
C36D C35D 1_555 1_555
H25D C36D 1_555 1_555
H26D C36D 1_555 1_555
C37D C36D 1_555 1_555
C38D C37D 1_555 1_555
H27D C38D 1_555 1_555
C39D C38D 1_555 1_555
H28D C39D 1_555 1_555
C40D N2D 1_555 1_555
H29D C40D 1_555 1_555
C41D C37D 1_555 1_555
H30D C41D 1_555 1_555
C42D N3D 1_555 1_555
H31D C42D 1_555 1_555
C43D C42D 1_555 1_555
H32D C43D 1_555 1_555
C44D C43D 1_555 1_555
C45D C44D 1_555 1_555
H33D C45D 1_555 1_555
C46D N3D 1_555 1_555
H34D C46D 1_555 1_555
C47D C44D 1_555 1_555
H35D C47D 1_555 1_555
H36D C47D 1_555 1_555
C48D C47D 1_555 1_555
H37D C48D 1_555 1_555
H38D C48D 1_555 1_555
C49D C48D 1_555 1_555
H39D C49D 1_555 1_555
H40D C49D 1_555 1_555
C50D C49D 1_555 1_555
C51D C50D 1_555 1_555
H41D C51D 1_555 1_555
C52D C51D 1_555 1_555
H42D C52D 1_555 1_555
C53D N4D 1_555 1_555
H43D C53D 1_555 1_555
C54D C50D 1_555 1_555
H44D C54D 1_555 1_555
H45D O13D 1_555 1_555
H46D O13D 1_555 1_555
Mn2 O13 1_555 1_555
C4 C5 1_555 1_555
C6 C7 1_555 1_555
C12 C13 1_555 1_555
C18 C19 1_555 1_555
C20 C21 1_555 1_555
C26 C27 1_555 1_555
C32 C33 1_555 1_555
C40 C41 1_555 1_555
C45 C46 1_555 1_555
C53 C54 1_555 1_555
Mn2D O13D 1_555 1_555
C4D C5D 1_555 1_555
C6D C7D 1_555 1_555
O8D C15D 1_555 1_555
C12D C13D 1_555 1_555
C18D C19D 1_555 1_555
C20D C21D 1_555 1_555
C26D C27D 1_555 1_555
C32D C33D 1_555 1_555
C40D C41D 1_555 1_555
C45D C46D 1_555 1_555
C53D C54D 1_555 1_555

#END
