
#######################################################################
#
#                 Cambridge Crystallographic Data Centre
#                                CCDC 
#
#######################################################################
#
# If this CIF has been generated from an entry in the Cambridge 
# Structural Database, then it will include bibliographic, chemical, 
# crystal, experimental, refinement or atomic coordinate data resulting 
# from the CCDC's data processing and validation procedures.
#
#######################################################################

data_NUZREG
_symmetry_cell_setting           monoclinic
_symmetry_space_group_name_H-M   'C m'
_symmetry_Int_Tables_number      8
_space_group_name_Hall           'C -2y'
loop_
_symmetry_equiv_pos_site_id
_symmetry_equiv_pos_as_xyz
1 x,y,z
2 x,-y,z
3 1/2+x,1/2+y,z
4 1/2+x,1/2-y,z
_cell_length_a                   13.3131(12)
_cell_length_b                   21.518(3)
_cell_length_c                   8.2174(10)
_cell_angle_alpha                90
_cell_angle_beta                 122.982(5)
_cell_angle_gamma                90
_cell_volume                     1974.67
loop_
_atom_site_label
_atom_site_type_symbol
_atom_site_fract_x
_atom_site_fract_y
_atom_site_fract_z
Cu1 Cu 0.91822(5) 0.5000 1.99289(6)
N1 N 0.0382(3) 0.56562(16) 0.0295(5)
C1 C 0.0530(4) 0.58171(17) -0.1145(6)
H1 H 0.0049 0.5632 -0.2356
C2 C 0.1362(4) 0.62431(18) -0.0883(6)
H2 H 0.1437 0.6351 -0.1908
C3 C 0.2093(4) 0.65138(18) 0.0913(6)
H3 H 0.2671 0.6803 0.1118
C4 C 0.1953(3) 0.63482(17) 0.2415(6)
C5 C 0.1073(4) 0.59243(17) 0.2044(6)
H4 H 0.0956 0.5822 0.3029
N2 N 0.2682(3) 0.66280(15) 0.4245(5)
H5 H 0.2945 0.6997 0.4294
C6 C 0.2998(4) 0.63438(18) 0.5959(6)
O1 O 0.2715(3) 0.58187(14) 0.6030(5)
C7 C 0.3729(3) 0.67279(18) 0.7752(5)
C8 C 0.3712(3) 0.73646(18) 0.7742(5)
H6 H 0.3259 0.7578 0.6575
C9 C 0.4373(4) 0.76921(17) 0.9481(5)
H7 H 0.4362 0.8124 0.9476
C10 C 0.5053(3) 0.73693(17) 1.1234(5)
H8 H 0.5493 0.7586 1.2398
C11 C 0.5070(3) 0.67287(18) 1.1229(5)
C12 C 0.4412(4) 0.64051(17) 0.9503(5)
H9 H 0.4423 0.5973 0.9506
C13 C 0.5815(3) 0.63611(18) 1.3052(5)
O2 O 0.6254(3) 0.58601(13) 1.3059(4)
N3 N 0.5934(3) 0.66246(15) 1.4656(5)
H10 H 0.5560 0.6970 1.4474
C14 C 0.6596(3) 0.64001(18) 1.6580(5)
C15 C 0.6503(4) 0.67281(18) 1.7944(6)
H11 H 0.6010 0.7075 1.7580
C16 C 0.7155(4) 0.65311(19) 1.9860(6)
H12 H 0.7107 0.6747 2.0796
C17 C 0.7869(4) 0.60181(19) 2.0361(6)
H13 H 0.8311 0.5892 2.1651
N4 N 0.7952(3) 0.56915(15) 1.9057(5)
C18 C 0.7330(4) 0.58787(18) 1.7181(6)
H14 H 0.7395 0.5654 1.6276
O3 O 0.9646(4) 0.5000 2.3025(6)
H15 H 0.9530 0.5347 2.3301
Cu1_2 Cu -0.08178(5) 0.5000 -0.00711(6)
N1A N 0.0382(3) 0.43438(16) 0.0295(5)
N1_2 N 1.0382(3) 0.56562(16) 2.0295(5)
N1A_2 N 1.0382(3) 0.43438(16) 2.0295(5)
C1A C 0.0530(4) 0.41829(17) -0.1145(6)
H1A H 0.0049 0.4368 -0.2356
C2A C 0.1362(4) 0.37569(18) -0.0883(6)
H2A H 0.1437 0.3649 -0.1908
C3A C 0.2093(4) 0.34862(18) 0.0913(6)
H3A H 0.2671 0.3197 0.1118
C4A C 0.1953(3) 0.36518(17) 0.2415(6)
C5A C 0.1073(4) 0.40757(17) 0.2044(6)
H4A H 0.0956 0.4178 0.3029
N2A N 0.2682(3) 0.33720(15) 0.4245(5)
H5A H 0.2945 0.3003 0.4294
C6A C 0.2998(4) 0.36562(18) 0.5959(6)
O1A O 0.2715(3) 0.41813(14) 0.6030(5)
C7A C 0.3729(3) 0.32721(18) 0.7752(5)
C8A C 0.3712(3) 0.26354(18) 0.7742(5)
H6A H 0.3259 0.2422 0.6575
C9A C 0.4373(4) 0.23079(17) 0.9481(5)
H7A H 0.4362 0.1876 0.9476
C10A C 0.5053(3) 0.26307(17) 1.1234(5)
H8A H 0.5493 0.2414 1.2398
C11A C 0.5070(3) 0.32713(18) 1.1229(5)
C12A C 0.4412(4) 0.35949(17) 0.9503(5)
H9A H 0.4423 0.4027 0.9506
C13A C 0.5815(3) 0.36389(18) 1.3052(5)
O2A O 0.6254(3) 0.41399(13) 1.3059(4)
N3A N 0.5934(3) 0.33754(15) 1.4656(5)
H10A H 0.5560 0.3030 1.4474
C14A C 0.6596(3) 0.35999(18) 1.6580(5)
C15A C 0.6503(4) 0.32719(18) 1.7944(6)
H11A H 0.6010 0.2925 1.7580
C16A C 0.7155(4) 0.34689(19) 1.9860(6)
H12A H 0.7107 0.3253 2.0796
C17A C 0.7869(4) 0.39819(19) 2.0361(6)
H13A H 0.8311 0.4108 2.1651
N4A N 0.7952(3) 0.43085(15) 1.9057(5)
C18A C 0.7330(4) 0.41213(18) 1.7181(6)
H14A H 0.7395 0.4346 1.6276
H15A H 0.9530 0.4653 2.3301
N5 N 0.4403(3) 0.19093(15) 0.4522(4)
O4 O 0.5313(4) 0.16892(18) 0.4706(5)
O5 O 0.3683(4) 0.15802(14) 0.4635(5)
O6 O 0.4201(3) 0.24803(12) 0.4205(5)
O7 O 0.3090(4) 0.0000 0.4210(7)
O8 O 0.6470(4) 1.0000 0.6772(7)
loop_
_geom_bond_atom_site_label_1
_geom_bond_atom_site_label_2
_geom_bond_site_symmetry_1
_geom_bond_site_symmetry_2
Cu1 N4 1_555 1_555
N1 C1 1_555 1_555
C1 H1 1_555 1_555
C2 C1 1_555 1_555
H2 C2 1_555 1_555
C3 C2 1_555 1_555
H3 C3 1_555 1_555
C4 C3 1_555 1_555
C5 N1 1_555 1_555
H4 C5 1_555 1_555
N2 C4 1_555 1_555
H5 N2 1_555 1_555
C6 N2 1_555 1_555
O1 C6 1_555 1_555
C7 C6 1_555 1_555
C8 C7 1_555 1_555
H6 C8 1_555 1_555
C9 C8 1_555 1_555
H7 C9 1_555 1_555
C10 C9 1_555 1_555
H8 C10 1_555 1_555
C11 C10 1_555 1_555
C12 C7 1_555 1_555
H9 C12 1_555 1_555
C13 C11 1_555 1_555
O2 C13 1_555 1_555
N3 C13 1_555 1_555
H10 N3 1_555 1_555
C14 N3 1_555 1_555
C15 C14 1_555 1_555
H11 C15 1_555 1_555
C16 C15 1_555 1_555
H12 C16 1_555 1_555
C17 C16 1_555 1_555
H13 C17 1_555 1_555
N4 C17 1_555 1_555
C18 C14 1_555 1_555
H14 C18 1_555 1_555
O3 Cu1 1_555 1_555
H15 O3 1_555 1_555
N5 O4 1_555 1_555
O5 N5 1_555 1_555
O6 N5 1_555 1_555
Cu1_2 N1 1_555 1_555
N1A Cu1_2 1_555 1_555
N1_2 Cu1 1_555 1_555
N1A_2 Cu1 1_555 1_555
C1A N1A 1_555 1_555
H1A C1A 1_555 1_555
C2A C1A 1_555 1_555
H2A C2A 1_555 1_555
C3A C2A 1_555 1_555
H3A C3A 1_555 1_555
C4A C3A 1_555 1_555
C5A N1A 1_555 1_555
H4A C5A 1_555 1_555
N2A C4A 1_555 1_555
H5A N2A 1_555 1_555
C6A N2A 1_555 1_555
O1A C6A 1_555 1_555
C7A C6A 1_555 1_555
C8A C7A 1_555 1_555
H6A C8A 1_555 1_555
C9A C8A 1_555 1_555
H7A C9A 1_555 1_555
C10A C9A 1_555 1_555
H8A C10A 1_555 1_555
C11A C10A 1_555 1_555
C12A C7A 1_555 1_555
H9A C12A 1_555 1_555
C13A C11A 1_555 1_555
O2A C13A 1_555 1_555
N3A C13A 1_555 1_555
H10A N3A 1_555 1_555
C14A N3A 1_555 1_555
C15A C14A 1_555 1_555
H11A C15A 1_555 1_555
C16A C15A 1_555 1_555
H12A C16A 1_555 1_555
C17A C16A 1_555 1_555
H13A C17A 1_555 1_555
N4A Cu1 1_555 1_555
C18A C14A 1_555 1_555
H14A C18A 1_555 1_555
H15A O3 1_555 1_555
C4 C5 1_555 1_555
C11 C12 1_555 1_555
N4 C18 1_555 1_555
C4A C5A 1_555 1_555
C11A C12A 1_555 1_555
C17A N4A 1_555 1_555
N4A C18A 1_555 1_555

#END
