
#######################################################################
#
#                 Cambridge Crystallographic Data Centre
#                                CCDC 
#
#######################################################################
#
# If this CIF has been generated from an entry in the Cambridge 
# Structural Database, then it will include bibliographic, chemical, 
# crystal, experimental, refinement or atomic coordinate data resulting 
# from the CCDC's data processing and validation procedures.
#
#######################################################################

data_NUZRIK
_symmetry_cell_setting           monoclinic
_symmetry_space_group_name_H-M   'P 21/c'
_symmetry_Int_Tables_number      14
_space_group_name_Hall           '-P 2ybc'
loop_
_symmetry_equiv_pos_site_id
_symmetry_equiv_pos_as_xyz
1 x,y,z
2 -x,1/2+y,1/2-z
3 -x,-y,-z
4 x,1/2-y,1/2+z
_cell_length_a                   7.1978(4)
_cell_length_b                   16.6218(10)
_cell_length_c                   20.5689(12)
_cell_angle_alpha                90
_cell_angle_beta                 96.2260(10)
_cell_angle_gamma                90
_cell_volume                     2446.36
loop_
_atom_site_label
_atom_site_type_symbol
_atom_site_fract_x
_atom_site_fract_y
_atom_site_fract_z
Cu1 Cu 0.98602(3) 1.000194(14) 0.237666(12)
N1 N 0.9067(2) 1.01821(10) 0.14155(8)
C1 C 0.9276(3) 1.08892(12) 0.11219(10)
H1 H 0.9852 1.1310 0.1364
C2 C 0.8665(3) 1.10133(12) 0.04713(10)
H2 H 0.8815 1.1515 0.0283
C3 C 0.7827(3) 1.03937(13) 0.00967(10)
H3 H 0.7414 1.0469 -0.0343
C4 C 0.7622(3) 0.96525(12) 0.03992(10)
C5 C 0.8251(3) 0.95773(12) 0.10608(10)
H4 H 0.8098 0.9086 0.1265
N2 N 0.6848(2) 0.89534(10) 0.00880(8)
H5 H 0.6716 0.8543 0.0333
C6 C 0.6290(3) 0.88657(12) -0.05640(10)
O1 O 0.6256(2) 0.94320(8) -0.09481(7)
C7 C 0.5725(3) 0.80382(12) -0.07979(10)
C8 C 0.4645(3) 0.79760(13) -0.14003(10)
H6 H 0.4255 0.8439 -0.1629
C9 C 0.4149(3) 0.72296(13) -0.16585(10)
H7 H 0.3429 0.7192 -0.2061
C10 C 0.4722(3) 0.65380(13) -0.13200(10)
H8 H 0.4390 0.6037 -0.1498
C11 C 0.5793(3) 0.65869(12) -0.07137(10)
C12 C 0.6302(3) 0.73406(12) -0.04554(10)
H9 H 0.7027 0.7379 -0.0054
C13 C 0.6409(3) 0.58095(12) -0.03922(10)
O2 O 0.6240(2) 0.51775(9) -0.06969(7)
N3 N 0.7165(2) 0.58400(10) 0.02460(8)
H10 H 0.7109 0.6293 0.0445
C14 C 0.8029(3) 0.51942(12) 0.06069(10)
C15 C 0.8454(3) 0.44480(12) 0.03489(10)
H11 H 0.8109 0.4329 -0.0089
C16 C 0.9399(3) 0.38905(12) 0.07583(10)
H12 H 0.9692 0.3389 0.0596
C17 C 0.9909(3) 0.40728(12) 0.14053(10)
H13 H 1.0578 0.3696 0.1671
N4 N 0.9466(2) 0.47818(10) 0.16635(8)
C18 C 0.8538(3) 0.53258(12) 0.12679(10)
H14 H 0.8223 0.5815 0.1447
O3 O 1.3021(2) 1.04326(10) 0.22457(9)
O4 O 1.0800(3) 0.89076(10) 0.22044(8)
O5 O 0.6780(2) 0.96016(11) 0.25387(8)
O6 O 0.8998(2) 1.11170(10) 0.25636(8)
H15 H 1.321(4) 1.0852(18) 0.2437(14)
H16 H 1.322(3) 1.0479(15) 0.1875(14)
H17 H 1.142(4) 0.8875(17) 0.1919(15)
H18 H 1.025(4) 0.8560(17) 0.2217(13)
H19 H 0.587(4) 0.9858(16) 0.2490(14)
H20 H 0.657(3) 0.9157(17) 0.2395(12)
H21 H 0.964(4) 1.1514(18) 0.2629(13)
H22 H 0.845(4) 1.1100(18) 0.2840(15)
Cu1A Cu 1.01398(3) 0.500194(14) 0.262334(12)
N4A N 1.0534(2) 0.97818(10) 0.33365(8)
S1 S 0.28433(7) 0.24509(3) 0.32137(2)
O10 O 0.3894(2) 0.31859(8) 0.31136(7)
O11 O 0.3867(2) 0.17350(9) 0.30247(7)
O12 O 0.1012(2) 0.24837(8) 0.28065(7)
O13 O 0.2546(2) 0.23881(9) 0.39127(7)
O7 O 0.2770(3) 0.86171(10) 0.12278(9)
H23 H 0.381(4) 0.8487(16) 0.1383(13)
H24 H 0.234(4) 0.8262(18) 0.1052(15)
O8 O 0.9089(3) 0.23091(11) 0.43840(8)
H25 H 1.006(4) 0.2363(15) 0.4208(14)
H26 H 0.852(4) 0.1959(19) 0.4209(15)
O9 O 0.7060(2) 0.11565(11) 0.36031(8)
H27 H 0.686(3) 0.0764(17) 0.3752(13)
H28 H 0.603(4) 0.1365(16) 0.3476(13)
loop_
_geom_bond_atom_site_label_1
_geom_bond_atom_site_label_2
_geom_bond_site_symmetry_1
_geom_bond_site_symmetry_2
Cu1 N1 1_555 1_555
S1 O10 1_555 1_555
N1 C1 1_555 1_555
C1 H1 1_555 1_555
C2 C1 1_555 1_555
H2 C2 1_555 1_555
C3 C2 1_555 1_555
H3 C3 1_555 1_555
C4 C3 1_555 1_555
C5 N1 1_555 1_555
H4 C5 1_555 1_555
N2 C4 1_555 1_555
H5 N2 1_555 1_555
C6 N2 1_555 1_555
O1 C6 1_555 1_555
C7 C6 1_555 1_555
C8 C7 1_555 1_555
H6 C8 1_555 1_555
C9 C8 1_555 1_555
H7 C9 1_555 1_555
C10 C9 1_555 1_555
H8 C10 1_555 1_555
C11 C10 1_555 1_555
C12 C7 1_555 1_555
H9 C12 1_555 1_555
C13 C11 1_555 1_555
O2 C13 1_555 1_555
N3 C13 1_555 1_555
H10 N3 1_555 1_555
C14 N3 1_555 1_555
C15 C14 1_555 1_555
H11 C15 1_555 1_555
C16 C15 1_555 1_555
H12 C16 1_555 1_555
C17 C16 1_555 1_555
H13 C17 1_555 1_555
N4 C17 1_555 1_555
C18 C14 1_555 1_555
H14 C18 1_555 1_555
O3 Cu1 1_555 1_555
O4 Cu1 1_555 1_555
O5 Cu1 1_555 1_555
O6 Cu1 1_555 1_555
O7 H23 1_555 1_555
O8 H25 1_555 1_555
O9 H27 1_555 1_555
O11 S1 1_555 1_555
O12 S1 1_555 1_555
O13 S1 1_555 1_555
H15 O3 1_555 1_555
H16 O3 1_555 1_555
H17 O4 1_555 1_555
H18 O4 1_555 1_555
H19 O5 1_555 1_555
H20 O5 1_555 1_555
H21 O6 1_555 1_555
H22 O6 1_555 1_555
H24 O7 1_555 1_555
H26 O8 1_555 1_555
H28 O9 1_555 1_555
Cu1A N4 1_555 1_555
N4A Cu1 1_555 1_555
C4 C5 1_555 1_555
C11 C12 1_555 1_555
N4 C18 1_555 1_555

#END
