
#######################################################################
#
#                 Cambridge Crystallographic Data Centre
#                                CCDC 
#
#######################################################################
#
# If this CIF has been generated from an entry in the Cambridge 
# Structural Database, then it will include bibliographic, chemical, 
# crystal, experimental, refinement or atomic coordinate data resulting 
# from the CCDC's data processing and validation procedures.
#
#######################################################################

data_NUZROQ
_symmetry_cell_setting           triclinic
_symmetry_space_group_name_H-M   'P -1'
_symmetry_Int_Tables_number      2
_space_group_name_Hall           '-P 1'
loop_
_symmetry_equiv_pos_site_id
_symmetry_equiv_pos_as_xyz
1 x,y,z
2 -x,-y,-z
_cell_length_a                   8.3270(14)
_cell_length_b                   9.7525(17)
_cell_length_c                   9.9181(17)
_cell_angle_alpha                101.562(2)
_cell_angle_beta                 108.4280(10)
_cell_angle_gamma                100.982(2)
_cell_volume                     720.169
loop_
_atom_site_label
_atom_site_type_symbol
_atom_site_fract_x
_atom_site_fract_y
_atom_site_fract_z
Eu1 Eu 0.59821(2) 0.847487(16) 0.332254(17)
O1 O 0.4530(3) 0.1246(2) -0.0908(2)
O2 O 0.4353(3) 0.6044(2) 0.1759(2)
O3 O 0.1672(3) 0.5530(2) 0.1891(3)
O4 O 0.7919(3) 0.6968(2) 0.3845(2)
O5 O 0.5752(3) 0.0868(2) 0.3945(2)
O6 O 0.5077(3) 0.2747(2) 0.5115(2)
O7 O 0.8759(3) 0.9574(2) 0.3113(2)
O8 O 1.1689(3) 1.0261(2) 0.4304(2)
O9 O 0.2860(3) 0.8402(3) 0.2473(3)
N1 N 0.3648(3) 0.1680(3) -0.0067(3)
N2 N 0.7674(3) 0.5539(3) 0.3397(3)
C1 C 0.2808(4) 0.0707(3) 0.0449(3)
H1 H 0.2822 -0.0281 0.0193
C2 C 0.1926(4) 0.1153(3) 0.1350(3)
H2 H 0.1321 0.0468 0.1705
C3 C 0.1922(4) 0.2595(3) 0.1737(3)
H3 H 0.1315 0.2909 0.2354
C4 C 0.2823(4) 0.3583(3) 0.1205(3)
C5 C 0.3674(4) 0.3092(3) 0.0304(3)
H4 H 0.4290 0.3758 -0.0063
C6 C 0.2944(4) 0.5185(3) 0.1655(3)
C7 C 0.8243(4) 0.5004(3) 0.2320(3)
H5 H 0.8783 0.5648 0.1888
C8 C 0.8049(4) 0.3543(3) 0.1848(3)
H6 H 0.8427 0.3173 0.1075
C9 C 0.7296(4) 0.2603(3) 0.2503(3)
H7 H 0.7199 0.1592 0.2216
C10 C 0.6689(4) 0.3174(3) 0.3583(3)
C11 C 0.6890(4) 0.4650(3) 0.4018(3)
H8 H 0.6473 0.5041 0.4758
C12 C 0.5777(4) 0.2186(3) 0.4269(3)
C13 C 1.0123(4) 0.9950(3) 0.4241(3)
H9 H 0.260(5) 0.892(4) 0.300(4)
H10 H 0.237(5) 0.763(4) 0.236(4)
Eu1A Eu 0.40179(2) 0.152513(16) -0.332254(17)
Eu1_2 Eu 0.59821(2) -0.152513(16) 0.332254(17)
Eu1A_2 Eu 0.40179(2) 0.152513(16) 0.667746(17)
Eu1A_3 Eu 1.40179(2) 1.152513(16) 0.667746(17)
Eu1_3 Eu 0.59821(2) 1.847487(16) 0.332254(17)
Eu1A_4 Eu 0.40179(2) 1.152513(16) 0.667746(17)
O1A O 0.5470(3) 0.8754(2) 0.0908(2)
O2A O 0.5647(3) 0.3956(2) -0.1759(2)
O3A O 0.8328(3) 0.4470(2) -0.1891(3)
O4_2 O 0.7919(3) 1.6968(2) 0.3845(2)
O4A O 0.2081(3) 0.3032(2) -0.3845(2)
O5_2 O 0.5752(3) 1.0868(2) 0.3945(2)
O5A O 0.4248(3) -0.0868(2) -0.3945(2)
O6_2 O 0.5077(3) 1.2747(2) 0.5115(2)
O6A O 0.4923(3) 0.7253(2) 0.4885(2)
O6_3 O 0.5077(3) 0.2747(2) -0.4885(2)
O7A O 1.1241(3) 1.0426(2) 0.6887(2)
O7A_2 O 0.1241(3) 0.0426(2) -0.3113(2)
O8A O 0.8311(3) 0.9739(2) 0.5696(2)
O8_2 O 0.1689(3) 0.0261(2) -0.5696(2)
O9A O 0.7140(3) 0.1598(3) -0.2473(3)
N1A N 0.6352(3) 0.8320(3) 0.0067(3)
N2_2 N 0.7674(3) 1.5539(3) 0.3397(3)
C1A C 0.7192(4) 0.9293(3) -0.0449(3)
H1A H 0.7178 1.0281 -0.0193
C2A C 0.8074(4) 0.8847(3) -0.1350(3)
H2A H 0.8679 0.9532 -0.1705
C3A C 0.8078(4) 0.7405(3) -0.1737(3)
H3A H 0.8685 0.7091 -0.2354
C4A C 0.7177(4) 0.6417(3) -0.1205(3)
C5A C 0.6326(4) 0.6908(3) -0.0304(3)
H4A H 0.5710 0.6242 0.0063
C6A C 0.7056(4) 0.4815(3) -0.1655(3)
C7_2 C 0.8243(4) 1.5004(3) 0.2320(3)
H5_2 H 0.8783 1.5648 0.1888
C8_2 C 0.8049(4) 1.3543(3) 0.1848(3)
H6_2 H 0.8427 1.3173 0.1075
C9_2 C 0.7296(4) 1.2603(3) 0.2503(3)
H7_2 H 0.7199 1.1592 0.2216
C10_2 C 0.6689(4) 1.3174(3) 0.3583(3)
C11_2 C 0.6890(4) 1.4650(3) 0.4018(3)
H8_2 H 0.6473 1.5041 0.4758
C12_2 C 0.5777(4) 1.2186(3) 0.4269(3)
C13A C 0.9877(4) 1.0050(3) 0.5759(3)
H9A H 0.740(5) 0.108(4) -0.300(4)
H10A H 0.763(5) 0.237(4) -0.236(4)
loop_
_geom_bond_atom_site_label_1
_geom_bond_atom_site_label_2
_geom_bond_site_symmetry_1
_geom_bond_site_symmetry_2
Eu1 O2 1_555 1_555
O1 N1 1_555 1_555
O2 C6 1_555 1_555
O3 C6 1_555 1_555
O4 Eu1 1_555 1_555
O5 C12 1_555 1_555
O6 C12 1_555 1_555
O7 Eu1 1_555 1_555
O8 C13 1_555 1_555
O9 Eu1 1_555 1_555
N1 C1 1_555 1_555
N2 O4 1_555 1_555
C1 H1 1_555 1_555
C2 C1 1_555 1_555
H2 C2 1_555 1_555
C3 C2 1_555 1_555
H3 C3 1_555 1_555
C4 C3 1_555 1_555
C5 N1 1_555 1_555
H4 C5 1_555 1_555
C6 C4 1_555 1_555
C7 N2 1_555 1_555
H5 C7 1_555 1_555
C8 C7 1_555 1_555
H6 C8 1_555 1_555
C9 C8 1_555 1_555
H7 C9 1_555 1_555
C10 C9 1_555 1_555
C11 N2 1_555 1_555
H8 C11 1_555 1_555
C12 C10 1_555 1_555
C13 O7 1_555 1_555
H9 O9 1_555 1_555
H10 O9 1_555 1_555
Eu1A O1 1_555 1_555
Eu1_2 O5 1_555 1_555
Eu1A_2 O6 1_555 1_555
Eu1A_3 O8 1_555 1_555
Eu1_3 O4_2 1_555 1_555
Eu1A_4 O6_2 1_555 1_555
O1A Eu1 1_555 1_555
O2A Eu1A 1_555 1_555
O3A C6A 1_555 1_555
O4_2 N2_2 1_555 1_555
O4A Eu1A 1_555 1_555
O5_2 Eu1 1_555 1_555
O5A Eu1A 1_555 1_555
O6_2 C12_2 1_555 1_555
O6A Eu1 1_555 1_555
O6_3 Eu1A 1_555 1_555
O7A Eu1A_3 1_555 1_555
O7A_2 Eu1A 1_555 1_555
O8A Eu1 1_555 1_555
O8_2 Eu1A 1_555 1_555
O9A Eu1A 1_555 1_555
N1A O1A 1_555 1_555
N2_2 C7_2 1_555 1_555
C1A N1A 1_555 1_555
H1A C1A 1_555 1_555
C2A C1A 1_555 1_555
H2A C2A 1_555 1_555
C3A C2A 1_555 1_555
H3A C3A 1_555 1_555
C4A C3A 1_555 1_555
C5A N1A 1_555 1_555
H4A C5A 1_555 1_555
C6A O2A 1_555 1_555
C7_2 H5_2 1_555 1_555
C8_2 C7_2 1_555 1_555
H6_2 C8_2 1_555 1_555
C9_2 C8_2 1_555 1_555
H7_2 C9_2 1_555 1_555
C10_2 C9_2 1_555 1_555
C11_2 N2_2 1_555 1_555
H8_2 C11_2 1_555 1_555
C12_2 O5_2 1_555 1_555
C13A C13 1_555 1_555
H9A O9A 1_555 1_555
H10A O9A 1_555 1_555
C4 C5 1_555 1_555
C10 C11 1_555 1_555
O7A C13A 1_555 1_555
O8A C13A 1_555 1_555
C4A C5A 1_555 1_555
C4A C6A 1_555 1_555
C10_2 C11_2 1_555 1_555
C10_2 C12_2 1_555 1_555

#END
