
#######################################################################
#
#                 Cambridge Crystallographic Data Centre
#                                CCDC 
#
#######################################################################
#
# If this CIF has been generated from an entry in the Cambridge 
# Structural Database, then it will include bibliographic, chemical, 
# crystal, experimental, refinement or atomic coordinate data resulting 
# from the CCDC's data processing and validation procedures.
#
#######################################################################

data_NUZSEH
_symmetry_cell_setting           triclinic
_symmetry_space_group_name_H-M   'P -1'
_symmetry_Int_Tables_number      2
_space_group_name_Hall           '-P 1'
loop_
_symmetry_equiv_pos_site_id
_symmetry_equiv_pos_as_xyz
1 x,y,z
2 -x,-y,-z
_cell_length_a                   8.275(2)
_cell_length_b                   8.484(2)
_cell_length_c                   9.092(3)
_cell_angle_alpha                111.475(2)
_cell_angle_beta                 112.789(3)
_cell_angle_gamma                90.191(2)
_cell_volume                     539.731
loop_
_atom_site_label
_atom_site_type_symbol
_atom_site_fract_x
_atom_site_fract_y
_atom_site_fract_z
N1 N 0.3913(4) 0.1435(4) 0.2023(4)
Eu1 Eu 0.15219(2) 0.26125(2) -0.11172(2)
O1 O 0.2693(3) 0.0687(3) 0.0353(3)
O2 O 0.9172(3) 0.3892(3) 0.7732(3)
O3 O 0.7069(3) 0.5420(3) 0.8136(3)
O4 O 0.1411(3) 0.1965(3) -0.4017(3)
O5 O 0.0010(3) 0.0203(3) -0.6841(3)
O6 O 0.4603(3) 0.2785(3) -0.0558(3)
O7 O 0.7187(3) 0.4638(3) 0.0849(3)
O8 O -0.0651(4) 0.2164(4) 0.0000(4)
C1 C 0.5653(5) 0.1675(5) 0.2373(5)
H1 H 0.6034 0.1237 0.1461
C2 C 0.6874(5) 0.2559(5) 0.4059(5)
H2 H 0.8103 0.2744 0.4315
C3 C 0.6313(5) 0.3182(5) 0.5392(5)
C4 C 0.4534(5) 0.2876(5) 0.4998(5)
H3 H 0.4127 0.3272 0.5894
C5 C 0.3344(5) 0.1990(5) 0.3292(5)
H4 H 0.2112 0.1770 0.3013
C6 C 0.7615(5) 0.4239(5) 0.7231(5)
C7 C 0.0420(5) 0.0629(5) -0.5243(5)
C8 C 0.5523(5) 0.4238(5) 0.0075(5)
H5 H -0.118(4) 0.128(3) -0.010(5)
H6 H -0.122(5) 0.294(3) 0.018(7)
N1A N -0.3913(4) -0.1435(4) -1.2023(4)
Eu1A Eu -0.15219(2) -0.26125(2) -0.88828(2)
Eu1_2 Eu -0.84781(2) -0.73875(2) -2.11172(2)
Eu1_3 Eu 1.15219(2) 0.26125(2) 0.88828(2)
Eu1A_2 Eu -1.15219(2) -0.26125(2) -1.88828(2)
Eu1A_3 Eu 0.84781(2) 0.73875(2) 0.11172(2)
Eu1A_4 Eu 0.84781(2) 0.73875(2) 1.11172(2)
O1A O -0.2693(3) -0.0687(3) -1.0353(3)
O2A O -0.9172(3) -0.3892(3) -1.7732(3)
O2_2 O -0.0828(3) 0.3892(3) -0.2268(3)
O2A_2 O 0.0828(3) -0.3892(3) -0.7732(3)
O3A O -0.7069(3) -0.5420(3) -1.8136(3)
O3_2 O -0.2931(3) -0.4580(3) -1.1864(3)
O3A_2 O 0.2931(3) 0.4580(3) 0.1864(3)
O4A O -0.1411(3) -0.1965(3) -0.5983(3)
O5A O -0.0010(3) -0.0203(3) -0.3159(3)
O6A O 0.5397(3) 0.7215(3) 0.0558(3)
O6A_2 O -0.4603(3) -0.2785(3) -0.9442(3)
O7A O 0.2813(3) 0.5362(3) -0.0849(3)
O7_2 O -0.2813(3) -0.5362(3) -0.9151(3)
O8A O 0.0651(4) -0.2164(4) -1.0000(4)
C1A C -0.5653(5) -0.1675(5) -1.2373(5)
H1A H -0.6034 -0.1237 -1.1461
C2A C -0.6874(5) -0.2559(5) -1.4059(5)
H2A H -0.8103 -0.2744 -1.4315
C3A C -0.6313(5) -0.3182(5) -1.5392(5)
C4A C -0.4534(5) -0.2876(5) -1.4998(5)
H3A H -0.4127 -0.3272 -1.5894
C5A C -0.3344(5) -0.1990(5) -1.3292(5)
H4A H -0.2112 -0.1770 -1.3013
C6A C -0.7615(5) -0.4239(5) -1.7231(5)
C7A C -0.0420(5) -0.0629(5) -0.4757(5)
C8A C 0.4477(5) 0.5762(5) -0.0075(5)
H5A H 0.118(4) -0.128(3) -0.990(5)
H6A H 0.122(5) -0.294(3) -1.018(7)
loop_
_geom_bond_atom_site_label_1
_geom_bond_atom_site_label_2
_geom_bond_site_symmetry_1
_geom_bond_site_symmetry_2
N1 O1 1_555 1_555
Eu1 O1 1_555 1_555
O2 C6 1_555 1_555
O3 C6 1_555 1_555
O4 Eu1 1_555 1_555
O5 C7 1_555 1_555
O6 Eu1 1_555 1_555
O7 C8 1_555 1_555
O8 Eu1 1_555 1_555
C1 N1 1_555 1_555
H1 C1 1_555 1_555
C2 C1 1_555 1_555
H2 C2 1_555 1_555
C3 C2 1_555 1_555
C4 C3 1_555 1_555
H3 C4 1_555 1_555
C5 N1 1_555 1_555
H4 C5 1_555 1_555
C6 C3 1_555 1_555
C7 O4 1_555 1_555
C8 O6 1_555 1_555
H5 O8 1_555 1_555
H6 O8 1_555 1_555
N1A O1A 1_555 1_555
Eu1A O5 1_555 1_555
Eu1_2 O3A 1_555 1_555
Eu1_3 O2 1_555 1_555
Eu1A_2 O2A 1_555 1_555
Eu1A_3 O7 1_555 1_555
Eu1A_4 O3 1_555 1_555
O1A Eu1A 1_555 1_555
O2A C6A 1_555 1_555
O2_2 Eu1 1_555 1_555
O2A_2 Eu1A 1_555 1_555
O3A C6A 1_555 1_555
O3_2 Eu1A 1_555 1_555
O3A_2 Eu1 1_555 1_555
O4A Eu1A 1_555 1_555
O5A Eu1 1_555 1_555
O6A Eu1A_3 1_555 1_555
O6A_2 Eu1A 1_555 1_555
O7A Eu1 1_555 1_555
O7_2 Eu1A 1_555 1_555
O8A Eu1A 1_555 1_555
C1A N1A 1_555 1_555
H1A C1A 1_555 1_555
C2A C1A 1_555 1_555
H2A C2A 1_555 1_555
C3A C2A 1_555 1_555
C4A C3A 1_555 1_555
H3A C4A 1_555 1_555
C5A N1A 1_555 1_555
H4A C5A 1_555 1_555
C6A C3A 1_555 1_555
C7A C7 1_555 1_555
C8A C8 1_555 1_555
H5A O8A 1_555 1_555
H6A O8A 1_555 1_555
C4 C5 1_555 1_555
O4A C7A 1_555 1_555
O5A C7A 1_555 1_555
O6A C8A 1_555 1_555
O7A C8A 1_555 1_555
C4A C5A 1_555 1_555

#END
