
#######################################################################
#
#                 Cambridge Crystallographic Data Centre
#                                CCDC 
#
#######################################################################
#
# If this CIF has been generated from an entry in the Cambridge 
# Structural Database, then it will include bibliographic, chemical, 
# crystal, experimental, refinement or atomic coordinate data resulting 
# from the CCDC's data processing and validation procedures.
#
#######################################################################

data_NUZTEI
_symmetry_cell_setting           monoclinic
_symmetry_space_group_name_H-M   'P 21/c'
_symmetry_Int_Tables_number      14
_space_group_name_Hall           '-P 2ybc'
loop_
_symmetry_equiv_pos_site_id
_symmetry_equiv_pos_as_xyz
1 x,y,z
2 -x,1/2+y,1/2-z
3 -x,-y,-z
4 x,1/2-y,1/2+z
_cell_length_a                   18.373(2)
_cell_length_b                   4.7525(4)
_cell_length_c                   29.191(3)
_cell_angle_alpha                90
_cell_angle_beta                 107.101(3)
_cell_angle_gamma                90
_cell_volume                     2436.2
loop_
_atom_site_label
_atom_site_type_symbol
_atom_site_fract_x
_atom_site_fract_y
_atom_site_fract_z
C1 C 0.6345(4) 0.7466(15) 0.3624(3)
C2 C 0.5646(5) 0.7127(16) 0.3290(3)
H1 H 0.5217 0.8211 0.3300
C3 C 0.5600(5) 0.5110(18) 0.2936(3)
H2 H 0.5123 0.4777 0.2703
C4 C 0.6222(5) 0.3598(18) 0.2914(3)
H3 H 0.6170 0.2267 0.2663
C5 C 0.6919(5) 0.3960(17) 0.3244(3)
H4 H 0.7344 0.2876 0.3226
C6 C 0.6996(5) 0.5955(16) 0.3609(3)
C7 C 0.7627(5) 0.6926(17) 0.4006(3)
C8 C 0.8396(5) 0.6270(19) 0.4174(3)
H5 H 0.8603 0.4844 0.4021
C9 C 0.8858(5) 0.769(2) 0.4561(3)
H6 H 0.9387 0.7266 0.4672
C10 C 0.8551(5) 0.974(2) 0.4789(3)
H7 H 0.8879 1.0696 0.5057
C11 C 0.7785(5) 1.0434(19) 0.4641(3)
H8 H 0.7583 1.1831 0.4802
C12 C 0.7322(5) 0.8997(17) 0.4245(3)
C13 C 0.6048(5) 1.1252(16) 0.4152(3)
H9 H 0.5657 1.1877 0.3857
H10 H 0.6349 1.2928 0.4295
C14 C 0.8310(4) 0.5888(15) 0.6569(3)
C15 C 0.8172(5) 0.6559(18) 0.6092(3)
H11 H 0.7793 0.7898 0.5942
C16 C 0.8597(5) 0.5240(19) 0.5840(3)
H12 H 0.8518 0.5717 0.5513
C17 C 0.9143(5) 0.3213(17) 0.6052(3)
H13 H 0.9424 0.2307 0.5868
C18 C 0.9277(4) 0.2522(17) 0.6533(3)
H14 H 0.9653 0.1166 0.6680
C19 C 0.8851(4) 0.3842(17) 0.6800(3)
C20 C 0.8851(4) 0.3727(16) 0.7287(3)
C21 C 0.9271(5) 0.2160(17) 0.7689(3)
H15 H 0.9638 0.0815 0.7660
C22 C 0.9142(5) 0.2612(18) 0.8119(3)
H16 H 0.9424 0.1563 0.8390
C23 C 0.8609(5) 0.4572(17) 0.8172(3)
H17 H 0.8537 0.4846 0.8478
C24 C 0.8184(5) 0.6121(17) 0.7786(3)
H18 H 0.7819 0.7456 0.7822
C25 C 0.8304(4) 0.5669(16) 0.7345(3)
C26 C 0.7406(4) 0.9186(16) 0.6822(3)
H19 H 0.7533 1.0633 0.6613
H20 H 0.7433 1.0088 0.7132
Mn1 Mn 0.58071(7) 0.5128(2) 0.54004(4)
N1 N 0.6549(4) 0.9287(13) 0.4016(2)
N2 N 0.7974(4) 0.6950(13) 0.6905(2)
O1 O 0.4885(3) 0.8082(10) 0.42782(18)
O2 O 0.5271(3) 1.2586(10) 0.47596(18)
O3 O 0.6111(3) 0.8214(10) 0.49439(16)
O4 O 0.6809(3) 0.2470(12) 0.5515(2)
O5 O 0.5938(3) 1.0558(10) 0.65260(18)
O6 O 0.6284(3) 0.5759(10) 0.68974(19)
O7 O 0.6368(3) 0.6692(11) 0.60686(18)
P1 P 0.55677(11) 0.9986(4) 0.45651(7)
P2 P 0.64427(12) 0.7979(4) 0.65459(7)
H21 H 0.669(4) 0.081(11) 0.540(3)
H22 H 0.728(3) 0.27(2) 0.565(4)
H23 H 0.615(7) 0.404(14) 0.677(4)
H24 H 0.460(4) 0.859(18) 0.397(2)
C1B C 0.3655(4) 0.2534(15) 0.6376(3)
C2B C 0.4354(5) 0.2873(16) 0.6710(3)
H1B H 0.4783 0.1789 0.6700
C3B C 0.4400(5) 0.4890(18) 0.7064(3)
H2B H 0.4877 0.5223 0.7297
C4B C 0.3778(5) 0.6402(18) 0.7086(3)
H3B H 0.3830 0.7733 0.7337
C5B C 0.3081(5) 0.6040(17) 0.6756(3)
H4B H 0.2656 0.7124 0.6774
C6B C 0.3004(5) 0.4045(16) 0.6391(3)
C7B C 0.2373(5) 0.3074(17) 0.5994(3)
C8B C 0.1604(5) 0.3730(19) 0.5826(3)
H5B H 0.1397 0.5156 0.5979
C9B C 0.1142(5) 0.231(2) 0.5439(3)
H6B H 0.0613 0.2734 0.5328
C10B C 0.1449(5) 0.026(2) 0.5211(3)
H7B H 0.1121 -0.0696 0.4943
C11B C 0.2215(5) -0.0434(19) 0.5359(3)
H8B H 0.2417 -0.1831 0.5198
C12B C 0.2678(5) 0.1003(17) 0.5755(3)
C13B C 0.3952(5) -0.1252(16) 0.5848(3)
H9B H 0.4343 -0.1877 0.6143
H10B H 0.3651 -0.2928 0.5705
C14B C 0.1690(4) 0.4112(15) 0.3431(3)
C15B C 0.1828(5) 0.3441(18) 0.3908(3)
H11B H 0.2207 0.2102 0.4058
C16B C 0.1403(5) 0.4760(19) 0.4160(3)
H12B H 0.1482 0.4283 0.4487
C17B C 0.0857(5) 0.6787(17) 0.3948(3)
H13B H 0.0576 0.7693 0.4132
C18B C 0.0723(4) 0.7478(17) 0.3467(3)
H14B H 0.0347 0.8834 0.3320
C19B C 0.1149(4) 0.6158(17) 0.3200(3)
C20B C 0.1149(4) 0.6273(16) 0.2713(3)
C21B C 0.0729(5) 0.7840(17) 0.2311(3)
H15B H 0.0362 0.9185 0.2340
C22B C 0.0858(5) 0.7388(18) 0.1881(3)
H16B H 0.0576 0.8437 0.1610
C23B C 0.1391(5) 0.5428(17) 0.1828(3)
H17B H 0.1463 0.5154 0.1522
C24B C 0.1816(5) 0.3879(17) 0.2214(3)
H18B H 0.2181 0.2544 0.2178
C25B C 0.1696(4) 0.4331(16) 0.2655(3)
C26B C 0.2594(4) 0.0814(16) 0.3178(3)
H19B H 0.2467 -0.0633 0.3387
H20B H 0.2567 -0.0088 0.2868
Mn1B Mn 0.41929(7) 0.4872(2) 0.45996(4)
Mn1_2 Mn 0.58071(7) -0.4872(2) 0.54004(4)
Mn1_3 Mn 0.58071(7) 1.5128(2) 0.54004(4)
Mn1B_2 Mn 0.41929(7) -0.5128(2) 0.45996(4)
Mn1B_3 Mn 0.41929(7) 1.4872(2) 0.45996(4)
N1B N 0.3451(4) 0.0713(13) 0.5984(2)
N2B N 0.2026(4) 0.3050(13) 0.3095(2)
O1B O 0.5115(3) 0.1918(10) 0.57218(18)
O2B O 0.4729(3) -0.2586(10) 0.52404(18)
O2_2 O 0.5271(3) 0.2586(10) 0.47596(18)
O2B_2 O 0.4729(3) 0.7414(10) 0.52404(18)
O3B O 0.3889(3) 0.1786(10) 0.50561(16)
O4B O 0.3191(3) 0.7530(12) 0.4485(2)
O5B O 0.4062(3) -0.0558(10) 0.34740(18)
O6B O 0.3716(3) 0.4241(10) 0.31026(19)
O7B O 0.3632(3) 0.3308(11) 0.39314(18)
P1B P 0.44323(11) 0.0014(4) 0.54349(7)
P2B P 0.35573(12) 0.2021(4) 0.34541(7)
H21B H 0.331(4) 0.919(11) 0.460(3)
H22B H 0.272(3) 0.73(2) 0.435(4)
H23B H 0.385(7) 0.596(14) 0.323(4)
H24B H 0.540(4) 0.141(18) 0.603(2)
loop_
_geom_bond_atom_site_label_1
_geom_bond_atom_site_label_2
_geom_bond_site_symmetry_1
_geom_bond_site_symmetry_2
C1 C2 1_555 1_555
C2 H1 1_555 1_555
C3 C2 1_555 1_555
H2 C3 1_555 1_555
C4 C3 1_555 1_555
H3 C4 1_555 1_555
C5 C4 1_555 1_555
H4 C5 1_555 1_555
C6 C1 1_555 1_555
C7 C6 1_555 1_555
C8 C7 1_555 1_555
H5 C8 1_555 1_555
C9 C8 1_555 1_555
H6 C9 1_555 1_555
C10 C9 1_555 1_555
H7 C10 1_555 1_555
C11 C10 1_555 1_555
H8 C11 1_555 1_555
C12 C7 1_555 1_555
C13 H9 1_555 1_555
H10 C13 1_555 1_555
C14 C15 1_555 1_555
C15 H11 1_555 1_555
C16 C15 1_555 1_555
H12 C16 1_555 1_555
C17 C16 1_555 1_555
H13 C17 1_555 1_555
C18 C17 1_555 1_555
H14 C18 1_555 1_555
C19 C14 1_555 1_555
C20 C19 1_555 1_555
C21 C20 1_555 1_555
H15 C21 1_555 1_555
C22 C21 1_555 1_555
H16 C22 1_555 1_555
C23 C22 1_555 1_555
H17 C23 1_555 1_555
C24 C23 1_555 1_555
H18 C24 1_555 1_555
C25 C20 1_555 1_555
C26 H19 1_555 1_555
H20 C26 1_555 1_555
Mn1 O3 1_555 1_555
N1 C1 1_555 1_555
N2 C14 1_555 1_555
O1 P1 1_555 1_555
O2 P1 1_555 1_555
O3 P1 1_555 1_555
O4 Mn1 1_555 1_555
O5 P2 1_555 1_555
O6 P2 1_555 1_555
O7 Mn1 1_555 1_555
P1 C13 1_555 1_555
P2 C26 1_555 1_555
H21 O4 1_555 1_555
H22 O4 1_555 1_555
H23 O6 1_555 1_555
H24 O1 1_555 1_555
C1B C2B 1_555 1_555
C2B H1B 1_555 1_555
C3B C2B 1_555 1_555
H2B C3B 1_555 1_555
C4B C3B 1_555 1_555
H3B C4B 1_555 1_555
C5B C4B 1_555 1_555
H4B C5B 1_555 1_555
C6B C1B 1_555 1_555
C7B C6B 1_555 1_555
C8B C7B 1_555 1_555
H5B C8B 1_555 1_555
C9B C8B 1_555 1_555
H6B C9B 1_555 1_555
C10B C9B 1_555 1_555
H7B C10B 1_555 1_555
C11B C10B 1_555 1_555
H8B C11B 1_555 1_555
C12B C7B 1_555 1_555
C13B H9B 1_555 1_555
H10B C13B 1_555 1_555
C14B C15B 1_555 1_555
C15B H11B 1_555 1_555
C16B C15B 1_555 1_555
H12B C16B 1_555 1_555
C17B C16B 1_555 1_555
H13B C17B 1_555 1_555
C18B C17B 1_555 1_555
H14B C18B 1_555 1_555
C19B C14B 1_555 1_555
C20B C19B 1_555 1_555
C21B C20B 1_555 1_555
H15B C21B 1_555 1_555
C22B C21B 1_555 1_555
H16B C22B 1_555 1_555
C23B C22B 1_555 1_555
H17B C23B 1_555 1_555
C24B C23B 1_555 1_555
H18B C24B 1_555 1_555
C25B C20B 1_555 1_555
C26B H19B 1_555 1_555
H20B C26B 1_555 1_555
Mn1B O1 1_555 1_555
Mn1_2 O2B 1_555 1_555
Mn1_3 O2 1_555 1_555
Mn1B_2 O2B 1_555 1_555
Mn1B_3 O2 1_555 1_555
N1B C1B 1_555 1_555
N2B C14B 1_555 1_555
O1B Mn1 1_555 1_555
O2B P1B 1_555 1_555
O2_2 Mn1 1_555 1_555
O2B_2 Mn1 1_555 1_555
O3B Mn1B 1_555 1_555
O4B Mn1B 1_555 1_555
O5B P2B 1_555 1_555
O6B P2B 1_555 1_555
O7B Mn1B 1_555 1_555
P1B C13B 1_555 1_555
P2B C26B 1_555 1_555
H21B O4B 1_555 1_555
H22B O4B 1_555 1_555
H23B O6B 1_555 1_555
H24B O1B 1_555 1_555
C5 C6 1_555 1_555
C11 C12 1_555 1_555
C12 N1 1_555 1_555
C13 N1 1_555 1_555
C18 C19 1_555 1_555
C24 C25 1_555 1_555
C25 N2 1_555 1_555
C26 N2 1_555 1_555
O7 P2 1_555 1_555
C5B C6B 1_555 1_555
C11B C12B 1_555 1_555
C12B N1B 1_555 1_555
C13B N1B 1_555 1_555
C18B C19B 1_555 1_555
C24B C25B 1_555 1_555
C25B N2B 1_555 1_555
C26B N2B 1_555 1_555
Mn1B O2_2 1_555 1_555
Mn1B O2B_2 1_555 1_555
O1B P1B 1_555 1_555
O3B P1B 1_555 1_555
O7B P2B 1_555 1_555

#END
