
#######################################################################
#
#                 Cambridge Crystallographic Data Centre
#                                CCDC 
#
#######################################################################
#
# If this CIF has been generated from an entry in the Cambridge 
# Structural Database, then it will include bibliographic, chemical, 
# crystal, experimental, refinement or atomic coordinate data resulting 
# from the CCDC's data processing and validation procedures.
#
#######################################################################

data_NUZXAI
_symmetry_cell_setting           monoclinic
_symmetry_space_group_name_H-M   'P 21/c'
_symmetry_Int_Tables_number      14
_space_group_name_Hall           '-P 2ybc'
loop_
_symmetry_equiv_pos_site_id
_symmetry_equiv_pos_as_xyz
1 x,y,z
2 -x,1/2+y,1/2-z
3 -x,-y,-z
4 x,1/2-y,1/2+z
_cell_length_a                   10.673(5)
_cell_length_b                   19.808(5)
_cell_length_c                   19.284(5)
_cell_angle_alpha                90
_cell_angle_beta                 117.424(16)
_cell_angle_gamma                90
_cell_volume                     3618.7
loop_
_atom_site_label
_atom_site_type_symbol
_atom_site_fract_x
_atom_site_fract_y
_atom_site_fract_z
W1 W 0.205806(11) -0.174208(6) 0.245429(6)
Ce1 Ce 0.212150(16) 0.102920(8) 0.362648(9)
N1 N 0.2111(4) -0.01701(14) 0.30534(18)
C1 C 0.2070(4) -0.07103(16) 0.28413(18)
C2 C 0.1055(5) -0.17331(18) 0.3203(2)
N2 N 0.0502(6) -0.1740(2) 0.3591(3)
C3 C 0.0457(4) -0.25180(16) 0.19664(19)
N3 N -0.0374(3) -0.29398(15) 0.17128(19)
C4 C 0.0185(4) -0.1322(2) 0.1523(2)
N4 N -0.0811(5) -0.1109(2) 0.1027(3)
C5 C 0.4198(4) -0.1552(2) 0.3329(2)
N5 N 0.5321(4) -0.1439(2) 0.3797(3)
C6 C 0.2873(4) -0.2642(2) 0.3157(2)
N6 N 0.3313(5) -0.3123(2) 0.3519(3)
C7 C 0.2695(4) -0.23582(19) 0.1755(2)
N7 N 0.2968(6) -0.2698(2) 0.1363(3)
C8 C 0.2880(5) -0.1095(2) 0.1853(2)
N8 N 0.3326(6) -0.0749(2) 0.1543(3)
O1 O 0.3516(4) 0.20491(16) 0.4063(2)
C9 C 0.4016(6) 0.2594(2) 0.4400(3)
H1 H 0.4442 0.2593 0.4943
N9 N 0.3992(5) 0.31512(19) 0.4065(3)
C10 C 0.3302(11) 0.3187(4) 0.3223(5)
H2 H 0.2657 0.2816 0.3013
H3 H 0.3997 0.3164 0.3039
H4 H 0.2793 0.3604 0.3058
C11 C 0.4536(9) 0.3785(3) 0.4469(4)
H5 H 0.498 0.3709 0.5023
H6 H 0.3773 0.41 0.4329
H7 H 0.5215 0.3965 0.4322
O2 O 0.3201(3) 0.12085(18) 0.27533(17)
C12 C 0.3051(4) 0.0969(2) 0.2135(2)
H8 H 0.2873 0.0508 0.2058
N10 N 0.3121(4) 0.1309(2) 0.1578(2)
C13 C 0.2994(10) 0.0975(5) 0.0881(3)
H9 H 0.2763 0.0508 0.0893
H10 H 0.3872 0.1008 0.0859
H11 H 0.2261 0.1187 0.0428
C14 C 0.3365(9) 0.2022(3) 0.1652(5)
H12 H 0.3792 0.2145 0.2194
H13 H 0.2483 0.2255 0.1376
H14 H 0.3984 0.2143 0.1436
O3 O 0.0282(3) 0.10073(16) 0.22341(15)
C15 C -0.0172(5) 0.1390(3) 0.1659(2)
H15 H -0.0061 0.1852 0.1754
N11 N -0.0789(5) 0.1193(3) 0.0936(2)
C16 C -0.1015(13) 0.0517(5) 0.0725(6)
H16 H -0.1933 0.0385 0.0652
H17 H -0.031 0.0247 0.1131
H18 H -0.0957 0.0451 0.0247
C17 C -0.1338(10) 0.1692(4) 0.0301(4)
H19 H -0.0871 0.2117 0.0491
H20 H -0.2334 0.1747 0.0117
H21 H -0.1166 0.1539 -0.012
O4 O -0.0019(3) 0.05282(14) 0.35913(15)
C18 C -0.1290(4) 0.0621(2) 0.3148(3)
H22 H -0.155 0.1032 0.2886
N12 N -0.2285(4) 0.0188(2) 0.3022(3)
C19 C -0.1948(8) -0.0454(3) 0.3419(5)
H23 H -0.1521 -0.0382 0.3973
H24 H -0.1302 -0.0694 0.3289
H25 H -0.2796 -0.0714 0.3258
C20 C -0.3766(6) 0.0353(4) 0.2504(5)
H26 H -0.3887 0.0834 0.2479
H27 H -0.4354 0.0152 0.2703
H28 H -0.4027 0.018 0.199
C21 C 0.5503(3) 0.01999(15) 0.49164(16)
N13 N 0.6845(3) 0.00064(14) 0.52758(16)
C22 C 0.7753(4) 0.0375(2) 0.5128(2)
H29 H 0.8704 0.0259 0.5366
C23 C 0.7300(4) 0.0922(2) 0.4633(3)
H30 H 0.7933 0.118 0.4539
C24 C 0.5894(4) 0.1074(2) 0.4283(2)
H31 H 0.5572 0.1441 0.3945
N14 N 0.4967(3) 0.07093(14) 0.44146(16)
O5 O 0.2124(3) 0.13285(16) 0.48991(14)
W1B W 0.794194(11) 0.174208(6) 0.754571(6)
Ce1B Ce 0.787850(16) -0.102920(8) 0.637352(9)
Ce1A Ce -0.212150(16) -0.397080(8) 0.137352(9)
Ce1C Ce 1.212150(16) 0.397080(8) 0.862648(9)
N1B N 0.7889(4) 0.01701(14) 0.69466(18)
C1B C 0.7930(4) 0.07103(16) 0.71587(18)
C2B C 0.8945(5) 0.17331(18) 0.6797(2)
N2B N 0.9498(6) 0.1740(2) 0.6409(3)
C3B C 0.9543(4) 0.25180(16) 0.80336(19)
N3B N 1.0374(3) 0.29398(15) 0.82872(19)
N3A N 0.0374(3) 0.20602(15) 0.32872(19)
N3C N 0.9626(3) -0.20602(15) 0.67128(19)
C4B C 0.9815(4) 0.1322(2) 0.8477(2)
N4B N 1.0811(5) 0.1109(2) 0.8973(3)
C5B C 0.5802(4) 0.1552(2) 0.6671(2)
N5B N 0.4679(4) 0.1439(2) 0.6203(3)
C6B C 0.7127(4) 0.2642(2) 0.6843(2)
N6B N 0.6687(5) 0.3123(2) 0.6481(3)
C7B C 0.7305(4) 0.23582(19) 0.8245(2)
N7B N 0.7032(6) 0.2698(2) 0.8637(3)
C8B C 0.7120(5) 0.1095(2) 0.8147(2)
N8B N 0.6674(6) 0.0749(2) 0.8457(3)
O1B O 0.6484(4) -0.20491(16) 0.5937(2)
C9B C 0.5984(6) -0.2594(2) 0.5600(3)
H1B H 0.5558 -0.2593 0.5057
N9B N 0.6008(5) -0.31512(19) 0.5935(3)
C10B C 0.6698(11) -0.3187(4) 0.6777(5)
H2B H 0.7343 -0.2816 0.6987
H3B H 0.6003 -0.3164 0.6961
H4B H 0.7207 -0.3604 0.6942
C11B C 0.5464(9) -0.3785(3) 0.5531(4)
H5B H 0.502 -0.3709 0.4977
H6B H 0.6227 -0.41 0.5671
H7B H 0.4785 -0.3965 0.5678
O2B O 0.6799(3) -0.12085(18) 0.72467(17)
C12B C 0.6949(4) -0.0969(2) 0.7865(2)
H8B H 0.7127 -0.0508 0.7942
N10B N 0.6879(4) -0.1309(2) 0.8422(2)
C13B C 0.7006(10) -0.0975(5) 0.9119(3)
H9B H 0.7237 -0.0508 0.9107
H10B H 0.6128 -0.1008 0.9141
H11B H 0.7739 -0.1187 0.9572
C14B C 0.6635(9) -0.2022(3) 0.8348(5)
H12B H 0.6208 -0.2145 0.7806
H13B H 0.7517 -0.2255 0.8624
H14B H 0.6016 -0.2143 0.8564
O3B O 0.9718(3) -0.10073(16) 0.77659(15)
C15B C 1.0172(5) -0.1390(3) 0.8341(2)
H15B H 1.0061 -0.1852 0.8246
N11B N 1.0789(5) -0.1193(3) 0.9064(2)
C16B C 1.1015(13) -0.0517(5) 0.9275(6)
H16B H 1.1933 -0.0385 0.9348
H17B H 1.031 -0.0247 0.8869
H18B H 1.0957 -0.0451 0.9753
C17B C 1.1338(10) -0.1692(4) 0.9699(4)
H19B H 1.0871 -0.2117 0.9509
H20B H 1.2334 -0.1747 0.9883
H21B H 1.1166 -0.1539 1.012
O4B O 1.0019(3) -0.05282(14) 0.64087(15)
C18B C 1.1290(4) -0.0621(2) 0.6852(3)
H22B H 1.155 -0.1032 0.7114
N12B N 1.2285(4) -0.0188(2) 0.6978(3)
C19B C 1.1948(8) 0.0454(3) 0.6581(5)
H23B H 1.1521 0.0382 0.6027
H24B H 1.1302 0.0694 0.6711
H25B H 1.2796 0.0714 0.6742
C20B C 1.3766(6) -0.0353(4) 0.7496(5)
H26B H 1.3887 -0.0834 0.7521
H27B H 1.4354 -0.0152 0.7297
H28B H 1.4027 -0.018 0.801
C21B C 0.4497(3) -0.01999(15) 0.50836(16)
N13B N 0.3155(3) -0.00064(14) 0.47242(16)
C22B C 0.2247(4) -0.0375(2) 0.4872(2)
H29B H 0.1296 -0.0259 0.4634
C23B C 0.2700(4) -0.0922(2) 0.5367(3)
H30B H 0.2067 -0.118 0.5461
C24B C 0.4106(4) -0.1074(2) 0.5717(2)
H31B H 0.4428 -0.1441 0.6055
N14B N 0.5033(3) -0.07093(14) 0.55854(16)
O5B O 0.7876(3) -0.13285(16) 0.51009(14)
O6 O 0.0290(11) 0.1910(4) 0.5087(4)
loop_
_geom_bond_atom_site_label_1
_geom_bond_atom_site_label_2
_geom_bond_site_symmetry_1
_geom_bond_site_symmetry_2
W1 C1 1_555 1_555
Ce1 N1 1_555 1_555
N1 C1 1_555 1_555
C2 W1 1_555 1_555
N2 C2 1_555 1_555
C3 W1 1_555 1_555
N3 C3 1_555 1_555
C4 W1 1_555 1_555
N4 C4 1_555 1_555
C5 W1 1_555 1_555
N5 C5 1_555 1_555
C6 W1 1_555 1_555
N6 C6 1_555 1_555
C7 W1 1_555 1_555
N7 C7 1_555 1_555
C8 W1 1_555 1_555
N8 C8 1_555 1_555
O1 Ce1 1_555 1_555
C9 O1 1_555 1_555
H1 C9 1_555 1_555
N9 C9 1_555 1_555
C10 N9 1_555 1_555
H2 C10 1_555 1_555
H3 C10 1_555 1_555
H4 C10 1_555 1_555
C11 N9 1_555 1_555
H5 C11 1_555 1_555
H6 C11 1_555 1_555
H7 C11 1_555 1_555
O2 Ce1 1_555 1_555
C12 O2 1_555 1_555
H8 C12 1_555 1_555
N10 C12 1_555 1_555
C13 N10 1_555 1_555
H9 C13 1_555 1_555
H10 C13 1_555 1_555
H11 C13 1_555 1_555
C14 N10 1_555 1_555
H12 C14 1_555 1_555
H13 C14 1_555 1_555
H14 C14 1_555 1_555
O3 Ce1 1_555 1_555
C15 O3 1_555 1_555
H15 C15 1_555 1_555
N11 C15 1_555 1_555
C16 N11 1_555 1_555
H16 C16 1_555 1_555
H17 C16 1_555 1_555
H18 C16 1_555 1_555
C17 N11 1_555 1_555
H19 C17 1_555 1_555
H20 C17 1_555 1_555
H21 C17 1_555 1_555
O4 Ce1 1_555 1_555
C18 O4 1_555 1_555
H22 C18 1_555 1_555
N12 C18 1_555 1_555
C19 N12 1_555 1_555
H23 C19 1_555 1_555
H24 C19 1_555 1_555
H25 C19 1_555 1_555
C20 N12 1_555 1_555
H26 C20 1_555 1_555
H27 C20 1_555 1_555
H28 C20 1_555 1_555
C21 N13 1_555 1_555
N13 C22 1_555 1_555
C22 H29 1_555 1_555
C23 C22 1_555 1_555
H30 C23 1_555 1_555
C24 C23 1_555 1_555
H31 C24 1_555 1_555
N14 Ce1 1_555 1_555
O5 Ce1 1_555 1_555
W1B C1B 1_555 1_555
Ce1B N13 1_555 1_555
Ce1A N3 1_555 1_555
Ce1C N3B 1_555 1_555
N1B Ce1B 1_555 1_555
C1B N1B 1_555 1_555
C2B W1B 1_555 1_555
N2B C2B 1_555 1_555
C3B W1B 1_555 1_555
N3B C3B 1_555 1_555
N3A Ce1 1_555 1_555
N3C Ce1B 1_555 1_555
C4B W1B 1_555 1_555
N4B C4B 1_555 1_555
C5B W1B 1_555 1_555
N5B C5B 1_555 1_555
C6B W1B 1_555 1_555
N6B C6B 1_555 1_555
C7B W1B 1_555 1_555
N7B C7B 1_555 1_555
C8B W1B 1_555 1_555
N8B C8B 1_555 1_555
O1B Ce1B 1_555 1_555
C9B O1B 1_555 1_555
H1B C9B 1_555 1_555
N9B C9B 1_555 1_555
C10B N9B 1_555 1_555
H2B C10B 1_555 1_555
H3B C10B 1_555 1_555
H4B C10B 1_555 1_555
C11B N9B 1_555 1_555
H5B C11B 1_555 1_555
H6B C11B 1_555 1_555
H7B C11B 1_555 1_555
O2B Ce1B 1_555 1_555
C12B O2B 1_555 1_555
H8B C12B 1_555 1_555
N10B C12B 1_555 1_555
C13B N10B 1_555 1_555
H9B C13B 1_555 1_555
H10B C13B 1_555 1_555
H11B C13B 1_555 1_555
C14B N10B 1_555 1_555
H12B C14B 1_555 1_555
H13B C14B 1_555 1_555
H14B C14B 1_555 1_555
O3B Ce1B 1_555 1_555
C15B O3B 1_555 1_555
H15B C15B 1_555 1_555
N11B C15B 1_555 1_555
C16B N11B 1_555 1_555
H16B C16B 1_555 1_555
H17B C16B 1_555 1_555
H18B C16B 1_555 1_555
C17B N11B 1_555 1_555
H19B C17B 1_555 1_555
H20B C17B 1_555 1_555
H21B C17B 1_555 1_555
O4B Ce1B 1_555 1_555
C18B O4B 1_555 1_555
H22B C18B 1_555 1_555
N12B C18B 1_555 1_555
C19B N12B 1_555 1_555
H23B C19B 1_555 1_555
H24B C19B 1_555 1_555
H25B C19B 1_555 1_555
C20B N12B 1_555 1_555
H26B C20B 1_555 1_555
H27B C20B 1_555 1_555
H28B C20B 1_555 1_555
C21B C21 1_555 1_555
N13B Ce1 1_555 1_555
C22B N13B 1_555 1_555
H29B C22B 1_555 1_555
C23B C22B 1_555 1_555
H30B C23B 1_555 1_555
C24B C23B 1_555 1_555
H31B C24B 1_555 1_555
N14B Ce1B 1_555 1_555
O5B Ce1B 1_555 1_555
C21 N14 1_555 1_555
C24 N14 1_555 1_555
C21B N13B 1_555 1_555
C21B N14B 1_555 1_555
C24B N14B 1_555 1_555

#END
