
#######################################################################
#
#                 Cambridge Crystallographic Data Centre
#                                CCDC 
#
#######################################################################
#
# If this CIF has been generated from an entry in the Cambridge 
# Structural Database, then it will include bibliographic, chemical, 
# crystal, experimental, refinement or atomic coordinate data resulting 
# from the CCDC's data processing and validation procedures.
#
#######################################################################

data_NUZZEN
_symmetry_cell_setting           triclinic
_symmetry_space_group_name_H-M   'P 1'
_symmetry_Int_Tables_number      1
_space_group_name_Hall           'P 1'
loop_
_symmetry_equiv_pos_site_id
_symmetry_equiv_pos_as_xyz
1 x,y,z
_cell_length_a                   12.412(3)
_cell_length_b                   12.510(4)
_cell_length_c                   7.383(2)
_cell_angle_alpha                106.69(3)
_cell_angle_beta                 100.44(3)
_cell_angle_gamma                105.38(2)
_cell_volume                     1016.83
loop_
_atom_site_label
_atom_site_type_symbol
_atom_site_fract_x
_atom_site_fract_y
_atom_site_fract_z
Cu1 Cu 0.0000 0.0122 -0.0012
K1 K -0.1223(1) 0.2047(1) 0.3356(2)
K2 K -0.1415(1) 0.1879(1) -0.1623(2)
O1 O 0.0433(3) 0.1799(3) 0.1234(6)
O2 O -0.1546(3) 0.0116(3) 0.0040(6)
O3 O 0.3541(4) 0.0902(4) 0.1220(8)
O4 O -0.1441(3) -0.3398(3) -0.1218(6)
O5 O -0.0511(6) 0.0776(6) 0.5667(10)
O6 O -0.3058(4) 0.1271(5) 0.4650(7)
O7 O -0.3334(6) 0.2003(5) -0.0527(10)
O8 O -0.1100(4) 0.3984(5) 0.2112(8)
O9 O -0.0460(4) 0.3637(4) 0.7069(7)
N1 N 0.1565(4) 0.0136(4) -0.0005(6)
N2 N -0.0480(4) -0.1580(4) -0.1323(7)
N3 N 0.0599(6) -0.0255(5) 0.4543(8)
N4 N -0.4511(5) -0.0404(6) 0.4165(8)
N5 N -0.4612(6) 0.2855(6) -0.1515(9)
N6 N -0.2261(4) 0.5071(4) 0.2968(7)
N7 N 0.1198(6) 0.5004(5) 0.9230(8)
C1 C 0.1513(5) 0.2534(4) 0.2090(8)
C2 C 0.1662(5) 0.3731(5) 0.3136(9)
C3 C 0.2745(5) 0.4561(5) 0.4096(9)
C4 C 0.3740(5) 0.4259(5) 0.4055(9)
C5 C 0.3612(5) 0.3104(5) 0.3068(9)
C6 C 0.2528(4) 0.2222(4) 0.2065(7)
C7 C 0.2565(5) 0.1010(5) 0.1014(8)
C8 C 0.1548(4) -0.1003(4) -0.1179(7)
C9 C 0.2475(4) -0.1281(4) -0.1795(8)
C10 C 0.2323(4) -0.2402(5) -0.3045(8)
C11 C 0.1260(5) -0.3264(5) -0.3727(8)
C12 C 0.0315(5) -0.3029(4) -0.3148(8)
C13 C 0.0445(4) -0.1906(4) -0.1863(7)
C14 C -0.1397(4) -0.2382(4) -0.1145(8)
C15 C -0.2438(4) -0.2016(4) -0.0927(7)
C16 C -0.3479(5) -0.2942(5) -0.1339(9)
C17 C -0.4516(5) -0.2749(5) -0.125(1)
C18 C -0.4529(5) -0.1612(6) -0.0681(9)
C19 C -0.3521(5) -0.0674(5) -0.0299(8)
C20 C -0.2461(4) -0.0850(5) -0.0396(7)
C21 C -0.0443(7) -0.0245(9) 0.465(1)
C22 C 0.1634(9) 0.0803(9) 0.560(1)
C23 C 0.0835(9) -0.1272(8) 0.349(1)
C24 C -0.4086(6) 0.0699(7) 0.422(1)
C25 C -0.3769(9) -0.1034(8) 0.453(1)
C26 C -0.5751(9) -0.097(1) 0.364(2)
C27 C -0.4293(7) 0.2135(7) -0.074(1)
C28 C -0.3824(7) 0.3547(7) -0.234(1)
C29 C -0.5649(8) 0.310(1) -0.148(2)
C30 C -0.1481(6) 0.4784(7) 0.209(1)
C31 C -0.2748(6) 0.4405(7) 0.411(1)
C32 C -0.2604(8) 0.6059(8) 0.292(1)
C33 C 0.0095(7) 0.4614(6) 0.831(1)
C34 C 0.1889(8) 0.4273(9) 0.870(1)
C35 C 0.1728(9) 0.6195(7) 1.069(1)
H1 H 0.0974 0.3968 0.3137
H2 H 0.2848 0.5373 0.4835
H3 H 0.4490 0.4826 0.4760
H4 H 0.4304 0.2899 0.3038
H5 H 0.3244 -0.0680 -0.1343
H6 H 0.2989 -0.2567 -0.3413
H7 H 0.1118 -0.4052 -0.4662
H8 H -0.0432 -0.3646 -0.3599
H9 H -0.3498 -0.3751 -0.1665
H10 H -0.5235 -0.3393 -0.1638
H11 H -0.5235 -0.1456 -0.0466
H12 H -0.3560 0.0126 0.0056
H13 H -0.1112 -0.1005 0.4004
H14 H 0.2117 0.0595 0.6535
H15 H 0.2043 0.0976 0.4706
H16 H 0.1425 0.1431 0.6263
H17 H 0.0594 -0.1888 0.3997
H18 H 0.0380 -0.1576 0.2105
H19 H 0.1625 -0.1112 0.3519
H20 H -0.4667 0.1054 0.3883
H21 H -0.4148 -0.1812 0.4476
H22 H -0.3282 -0.1108 0.3613
H23 H -0.3189 -0.0624 0.5841
H24 H -0.6065 -0.0551 0.4556
H25 H -0.6093 -0.1033 0.2357
H26 H -0.5908 -0.1768 0.3684
H27 H -0.4872 0.1668 -0.0305
H28 H -0.3102 0.4045 -0.1397
H29 H -0.3679 0.3038 -0.3436
H30 H -0.4183 0.4054 -0.2818
H31 H -0.5685 0.3481 -0.0121
H32 H -0.5681 0.3722 -0.2068
H33 H -0.6330 0.2462 -0.2130
H34 H -0.1190 0.5270 0.1338
H35 H -0.2525 0.4922 0.5488
H36 H -0.3556 0.4090 0.3656
H37 H -0.2430 0.3780 0.4092
H38 H -0.1942 0.6739 0.3494
H39 H -0.2933 0.5928 0.1594
H40 H -0.3157 0.6088 0.3640
H41 H -0.0336 0.5154 0.8660
H42 H 0.1630 0.3572 0.8954
H43 H 0.1904 0.4129 0.7394
H44 H 0.2692 0.4715 0.9547
H45 H 0.2524 0.6327 1.1263
H46 H 0.1626 0.6768 1.0213
H47 H 0.1355 0.6223 1.1788
O5_2 O -0.0511(6) 0.0776(6) -0.4333(10)
O6_2 O -0.3058(4) 0.1271(5) -0.5350(7)
O9_2 O -0.0460(4) 0.3637(4) -0.2931(7)
K2_2 K -0.1415(1) 0.1879(1) 0.8377(2)
loop_
_geom_bond_atom_site_label_1
_geom_bond_atom_site_label_2
_geom_bond_site_symmetry_1
_geom_bond_site_symmetry_2
Cu1 O1 1_555 1_555
K1 O1 1_555 1_555
K2 O1 1_555 1_555
O1 C1 1_555 1_555
O2 Cu1 1_555 1_555
O3 C7 1_555 1_555
O4 C14 1_555 1_555
O5 K1 1_555 1_555
O6 K1 1_555 1_555
O7 K2 1_555 1_555
O8 K1 1_555 1_555
O9 K1 1_555 1_555
N1 Cu1 1_555 1_555
N2 Cu1 1_555 1_555
N3 C21 1_555 1_555
N4 C24 1_555 1_555
N5 C27 1_555 1_555
N6 C30 1_555 1_555
N7 C33 1_555 1_555
C1 C2 1_555 1_555
C2 C3 1_555 1_555
C3 C4 1_555 1_555
C4 C5 1_555 1_555
C5 C6 1_555 1_555
C6 C1 1_555 1_555
C7 N1 1_555 1_555
C8 N1 1_555 1_555
C9 C8 1_555 1_555
C10 C9 1_555 1_555
C11 C10 1_555 1_555
C12 C11 1_555 1_555
C13 N2 1_555 1_555
C14 N2 1_555 1_555
C15 C14 1_555 1_555
C16 C15 1_555 1_555
C17 C16 1_555 1_555
C18 C17 1_555 1_555
C19 C18 1_555 1_555
C20 O2 1_555 1_555
C21 O5 1_555 1_555
C22 N3 1_555 1_555
C23 N3 1_555 1_555
C24 O6 1_555 1_555
C25 N4 1_555 1_555
C26 N4 1_555 1_555
C27 O7 1_555 1_555
C28 N5 1_555 1_555
C29 N5 1_555 1_555
C30 O8 1_555 1_555
C31 N6 1_555 1_555
C32 N6 1_555 1_555
C33 O9 1_555 1_555
C34 N7 1_555 1_555
C35 N7 1_555 1_555
H1 C2 1_555 1_555
H2 C3 1_555 1_555
H3 C4 1_555 1_555
H4 C5 1_555 1_555
H5 C9 1_555 1_555
H6 C10 1_555 1_555
H7 C11 1_555 1_555
H8 C12 1_555 1_555
H9 C16 1_555 1_555
H10 C17 1_555 1_555
H11 C18 1_555 1_555
H12 C19 1_555 1_555
H13 C21 1_555 1_555
H14 C22 1_555 1_555
H15 C22 1_555 1_555
H16 C22 1_555 1_555
H17 C23 1_555 1_555
H18 C23 1_555 1_555
H19 C23 1_555 1_555
H20 C24 1_555 1_555
H21 C25 1_555 1_555
H22 C25 1_555 1_555
H23 C25 1_555 1_555
H24 C26 1_555 1_555
H25 C26 1_555 1_555
H26 C26 1_555 1_555
H27 C27 1_555 1_555
H28 C28 1_555 1_555
H29 C28 1_555 1_555
H30 C28 1_555 1_555
H31 C29 1_555 1_555
H32 C29 1_555 1_555
H33 C29 1_555 1_555
H34 C30 1_555 1_555
H35 C31 1_555 1_555
H36 C31 1_555 1_555
H37 C31 1_555 1_555
H38 C32 1_555 1_555
H39 C32 1_555 1_555
H40 C32 1_555 1_555
H41 C33 1_555 1_555
H42 C34 1_555 1_555
H43 C34 1_555 1_555
H44 C34 1_555 1_555
H45 C35 1_555 1_555
H46 C35 1_555 1_555
H47 C35 1_555 1_555
O5_2 K2 1_555 1_555
O6_2 K2 1_555 1_555
O9_2 K2 1_555 1_555
K2_2 O5 1_555 1_555
K1 O2 1_555 1_555
K2 O2 1_555 1_555
O6 K2_2 1_555 1_555
O9 K2_2 1_555 1_555
C6 C7 1_555 1_555
C8 C13 1_555 1_555
C12 C13 1_555 1_555
C15 C20 1_555 1_555
C19 C20 1_555 1_555

#END
