
#######################################################################
#
#                 Cambridge Crystallographic Data Centre
#                                CCDC 
#
#######################################################################
#
# If this CIF has been generated from an entry in the Cambridge 
# Structural Database, then it will include bibliographic, chemical, 
# crystal, experimental, refinement or atomic coordinate data resulting 
# from the CCDC's data processing and validation procedures.
#
#######################################################################

data_OABZCU
_symmetry_cell_setting           monoclinic
_symmetry_space_group_name_H-M   'P 21/c'
_symmetry_Int_Tables_number      14
_space_group_name_Hall           '-P 2ybc'
loop_
_symmetry_equiv_pos_site_id
_symmetry_equiv_pos_as_xyz
1 x,y,z
2 -x,1/2+y,1/2-z
3 -x,-y,-z
4 x,1/2-y,1/2+z
_cell_length_a                   12.95(1)
_cell_length_b                   5.25(1)
_cell_length_c                   9.39(1)
_cell_angle_alpha                90
_cell_angle_beta                 93.3(1)
_cell_angle_gamma                90
_cell_volume                     637.344
loop_
_atom_site_label
_atom_site_type_symbol
_atom_site_fract_x
_atom_site_fract_y
_atom_site_fract_z
Cu1 Cu 0.00000 0.00000 0.00000
C1 C 0.11790 0.17080 0.25680
C2 C 0.21120 0.05360 0.19750
C3 C 0.20370 -0.15960 0.10700
C4 C 0.29050 -0.26120 0.04990
C5 C 0.38710 -0.15200 0.08190
C6 C 0.39570 0.05240 0.17270
C7 C 0.30940 0.15430 0.23120
H1 H 0.11900 -0.37900 0.01000
H2 H 0.07400 -0.30900 0.14600
H3 H 0.28700 -0.39900 -0.01300
H4 H 0.44900 -0.21300 0.03300
H5 H 0.46200 0.13400 0.20200
H6 H 0.31300 0.27500 0.22900
N1 N 0.10320 -0.26690 0.07140
O1 O 0.03400 0.18580 0.17920
O2 O 0.12730 0.25560 0.38060
C1B C -0.11790 -0.17080 -0.25680
C2B C -0.21120 -0.05360 -0.19750
C3B C -0.20370 0.15960 -0.10700
C4B C -0.29050 0.26120 -0.04990
C5B C -0.38710 0.15200 -0.08190
C6B C -0.39570 -0.05240 -0.17270
C7B C -0.30940 -0.15430 -0.23120
H1B H -0.11900 0.37900 -0.01000
H2B H -0.07400 0.30900 -0.14600
H3B H -0.28700 0.39900 0.01300
H4B H -0.44900 0.21300 -0.03300
H5B H -0.46200 -0.13400 -0.20200
H6B H -0.31300 -0.27500 -0.22900
N1B N -0.10320 0.26690 -0.07140
O1B O -0.03400 -0.18580 -0.17920
O2B O -0.12730 -0.25560 -0.38060
O2A O -0.12730 -0.24440 0.11940
O2C O 0.12730 0.24440 -0.11940
Cu1A Cu 0.00000 0.50000 0.50000
Cu1C Cu 0.00000 -0.50000 -0.50000
loop_
_geom_bond_atom_site_label_1
_geom_bond_atom_site_label_2
_geom_bond_site_symmetry_1
_geom_bond_site_symmetry_2
Cu1 N1 1_555 1_555
C1 C2 1_555 1_555
C2 C3 1_555 1_555
C3 C4 1_555 1_555
C4 C5 1_555 1_555
C5 C6 1_555 1_555
C6 C7 1_555 1_555
C7 C2 1_555 1_555
H1 N1 1_555 1_555
H2 N1 1_555 1_555
H3 C4 1_555 1_555
H4 C5 1_555 1_555
H5 C6 1_555 1_555
H6 C7 1_555 1_555
N1 C3 1_555 1_555
O1 Cu1 1_555 1_555
O2 C1 1_555 1_555
C1B C2B 1_555 1_555
C2B C3B 1_555 1_555
C3B C4B 1_555 1_555
C4B C5B 1_555 1_555
C5B C6B 1_555 1_555
C6B C7B 1_555 1_555
C7B C2B 1_555 1_555
H1B N1B 1_555 1_555
H2B N1B 1_555 1_555
H3B C4B 1_555 1_555
H4B C5B 1_555 1_555
H5B C6B 1_555 1_555
H6B C7B 1_555 1_555
N1B Cu1 1_555 1_555
O1B Cu1 1_555 1_555
O2B C1B 1_555 1_555
O2A Cu1 1_555 1_555
O2C Cu1 1_555 1_555
Cu1A O2 1_555 1_555
Cu1C O2B 1_555 1_555
C1 O1 1_555 1_555
C1B O1B 1_555 1_555
C3B N1B 1_555 1_555

#END
