
#######################################################################
#
#                 Cambridge Crystallographic Data Centre
#                                CCDC 
#
#######################################################################
#
# If this CIF has been generated from an entry in the Cambridge 
# Structural Database, then it will include bibliographic, chemical, 
# crystal, experimental, refinement or atomic coordinate data resulting 
# from the CCDC's data processing and validation procedures.
#
#######################################################################

data_OBAPOW
_symmetry_cell_setting           monoclinic
_symmetry_space_group_name_H-M   'I 2/a'
_symmetry_Int_Tables_number      15
_space_group_name_Hall           '-I 2ya'
loop_
_symmetry_equiv_pos_site_id
_symmetry_equiv_pos_as_xyz
1 x,y,z
2 1/2-x,y,-z
3 1/2+x,1/2+y,1/2+z
4 -x,1/2+y,1/2-z
5 -x,-y,-z
6 1/2+x,-y,z
7 1/2-x,1/2-y,1/2-z
8 x,1/2-y,1/2+z
_cell_length_a                   12.5843(7)
_cell_length_b                   13.7147(7)
_cell_length_c                   13.3525(7)
_cell_angle_alpha                90
_cell_angle_beta                 92.887(6)
_cell_angle_gamma                90
_cell_volume                     2301.58
loop_
_atom_site_label
_atom_site_type_symbol
_atom_site_fract_x
_atom_site_fract_y
_atom_site_fract_z
Mn1 Mn 0.0000 -0.5000 0.0000
C1 C 0.1133(1) -0.5400(1) 0.3922(1)
C2 C 0.1263(1) -0.5611(1) 0.4964(1)
C3 C 0.1274(1) -0.4888(1) 0.5665(1)
C4 C 0.1146(1) -0.3893(1) 0.5386(1)
C5 C 0.1009(1) -0.3676(1) 0.4340(1)
C6 C 0.1004(1) -0.4401(1) 0.3639(1)
C7 C 0.1167(1) -0.6152(1) 0.3194(1)
C8 C 0.0930(1) -0.5952(1) 0.2167(1)
N1 N 0.0707(1) -0.5758(1) 0.1348(1)
C9 C 0.1500(1) -0.7117(1) 0.3442(1)
N2 N 0.1792(2) -0.7889(1) 0.3645(1)
C10 C 0.1166(1) -0.3144(1) 0.6121(1)
C11 C 0.1489(1) -0.3338(1) 0.7138(1)
N3 N 0.1774(1) -0.3528(1) 0.7948(1)
C12 C 0.0898(1) -0.2171(1) 0.5857(1)
N4 N 0.0638(1) -0.1402(1) 0.5614(1)
O1 O -0.1453(1) -0.4829(1) 0.0750(1)
H1 H 0.1343(1) -0.6256(1) 0.5171(1)
H2 H 0.1367(1) -0.5050(1) 0.6340(1)
H3 H 0.0920(14) -0.3008(14) 0.4116(14)
H4 H 0.0915(1) -0.4241(1) 0.2963(1)
H5 H -0.1640(22) -0.4325(23) 0.0923(22)
H6 H -0.1691(26) -0.5257(24) 0.1035(24)
N4C N -0.0638(1) -0.6402(1) -0.0614(1)
Mn1C Mn 0.0000 0.0000 0.5000
Mn1C_2 Mn 0.0000 0.0000 -0.5000
N1G N 0.0707(1) 0.0758(1) -0.3652(1)
C8G C 0.0930(1) 0.0952(1) -0.2833(1)
C7G C 0.1167(1) 0.1152(1) -0.1806(1)
C1G C 0.1133(1) 0.0400(1) -0.1078(1)
C2G C 0.1263(1) 0.0611(1) -0.0036(1)
C3G C 0.1274(1) -0.0112(1) 0.0665(1)
C4G C 0.1146(1) -0.1107(1) 0.0386(1)
C5G C 0.1009(1) -0.1324(1) -0.0660(1)
C6G C 0.1004(1) -0.0599(1) -0.1361(1)
H4G H 0.0915(1) -0.0759(1) -0.2037(1)
H3G H 0.0920(14) -0.1992(14) -0.0884(14)
C10G C 0.1166(1) -0.1856(1) 0.1121(1)
C11G C 0.1489(1) -0.1662(1) 0.2138(1)
N3G N 0.1774(1) -0.1472(1) 0.2948(1)
C12G C 0.0898(1) -0.2829(1) 0.0857(1)
N4G N 0.0638(1) -0.3598(1) 0.0614(1)
N1D N -0.0707(1) -0.4242(1) -0.1348(1)
O1D O 0.1453(1) -0.5171(1) -0.0750(1)
H5D H 0.1640(22) -0.5675(23) -0.0923(22)
H6D H 0.1691(26) -0.4743(24) -0.1035(24)
H2G H 0.1367(1) 0.0050(1) 0.1340(1)
H1G H 0.1343(1) 0.1256(1) 0.0171(1)
C9G C 0.1500(1) 0.2117(1) -0.1558(1)
N2G N 0.1792(2) 0.2889(1) -0.1355(1)
loop_
_geom_bond_atom_site_label_1
_geom_bond_atom_site_label_2
_geom_bond_site_symmetry_1
_geom_bond_site_symmetry_2
Mn1 N1 1_555 1_555
C1 C2 1_555 1_555
C2 C3 1_555 1_555
C3 C4 1_555 1_555
C4 C5 1_555 1_555
C5 C6 1_555 1_555
C6 C1 1_555 1_555
C7 C1 1_555 1_555
C8 C7 1_555 1_555
N1 C8 1_555 1_555
C9 C7 1_555 1_555
N2 C9 1_555 1_555
C10 C4 1_555 1_555
C11 C10 1_555 1_555
N3 C11 1_555 1_555
C12 C10 1_555 1_555
N4 C12 1_555 1_555
O1 Mn1 1_555 1_555
H1 C2 1_555 1_555
H2 C3 1_555 1_555
H3 C5 1_555 1_555
H4 C6 1_555 1_555
H5 O1 1_555 1_555
H6 O1 1_555 1_555
N4C Mn1 1_555 1_555
Mn1C N4 1_555 1_555
Mn1C_2 N1G 1_555 1_555
N1G C8G 1_555 1_555
C8G C7G 1_555 1_555
C7G C1G 1_555 1_555
C1G C2G 1_555 1_555
C2G C3G 1_555 1_555
C3G C4G 1_555 1_555
C4G C5G 1_555 1_555
C5G C6G 1_555 1_555
C6G C1G 1_555 1_555
H4G C6G 1_555 1_555
H3G C5G 1_555 1_555
C10G C4G 1_555 1_555
C11G C10G 1_555 1_555
N3G C11G 1_555 1_555
C12G C10G 1_555 1_555
N4G Mn1 1_555 1_555
N1D Mn1 1_555 1_555
O1D Mn1 1_555 1_555
H5D O1D 1_555 1_555
H6D O1D 1_555 1_555
H2G C3G 1_555 1_555
H1G C2G 1_555 1_555
C9G C7G 1_555 1_555
N2G C9G 1_555 1_555
C12G N4G 1_555 1_555

#END
