
#######################################################################
#
#                 Cambridge Crystallographic Data Centre
#                                CCDC 
#
#######################################################################
#
# If this CIF has been generated from an entry in the Cambridge 
# Structural Database, then it will include bibliographic, chemical, 
# crystal, experimental, refinement or atomic coordinate data resulting 
# from the CCDC's data processing and validation procedures.
#
#######################################################################

data_OBECIH
_symmetry_cell_setting           triclinic
_symmetry_space_group_name_H-M   'P -1'
_symmetry_Int_Tables_number      2
_space_group_name_Hall           '-P 1'
loop_
_symmetry_equiv_pos_site_id
_symmetry_equiv_pos_as_xyz
1 x,y,z
2 -x,-y,-z
_cell_length_a                   10.0864(6)
_cell_length_b                   13.6029(10)
_cell_length_c                   13.8822(12)
_cell_angle_alpha                108.743(6)
_cell_angle_beta                 95.063(6)
_cell_angle_gamma                95.4844(5)
_cell_volume                     1781.08
loop_
_atom_site_label
_atom_site_type_symbol
_atom_site_fract_x
_atom_site_fract_y
_atom_site_fract_z
Ag1 Ag -0.70094(6) -0.56506(4) -0.34125(4)
C1 C 0.3178(6) -0.3980(4) 0.4146(4)
C2 C -0.3151(6) -0.4521(4) -0.0868(4)
C3 C -0.3074(6) -0.4983(4) -0.0119(4)
C4 C -0.1964(6) -0.4700(4) 0.0616(4)
C5 C -0.0966(6) -0.3943(4) 0.0607(4)
C6 C -0.1047(6) -0.3479(4) -0.0141(4)
C7 C -0.2146(6) -0.3762(5) -0.0875(5)
C8 C -0.4313(7) -0.4829(5) -0.1628(5)
C9 C 0.0187(6) -0.3667(4) 0.1388(5)
C10 C 0.1098(6) -0.3479(4) 0.2047(4)
C11 C 0.4197(6) -0.3153(4) 0.4412(4)
C12 C 0.9458(6) 0.1503(4) 0.5490(4)
C13 C 0.8630(6) 0.1427(5) 0.4626(4)
C14 C 0.7548(6) 0.0643(4) 0.4291(5)
C15 C 0.7293(6) -0.0052(4) 0.4814(4)
C16 C 0.8141(6) 0.0062(4) 0.5697(4)
C17 C 0.9237(6) 0.0837(4) 0.6043(4)
C18 C 1.0592(7) 0.2301(5) 0.5827(5)
C19 C 0.6174(6) -0.0864(5) 0.4474(4)
C20 C 0.5278(6) -0.1566(5) 0.4212(4)
C21 C 0.4203(6) -0.2421(4) 0.3908(4)
C22 C 0.3189(6) -0.2535(4) 0.3121(4)
C23 C 0.2151(6) -0.3361(4) 0.2863(4)
C24 C 0.2144(6) -0.4079(4) 0.3378(4)
C25 C 0.3210(6) -0.4726(5) 0.4666(5)
H1 H -0.3764(6) -0.5483(4) -0.0108(4)
H2 H -0.1893(6) -0.5020(4) 0.1115(4)
H3 H -0.0359(6) -0.2976(4) -0.0148(4)
H4 H -0.2213(6) -0.3444(5) -0.1375(5)
H5 H 0.4884(6) -0.3086(4) 0.4931(4)
H6 H 0.8792(6) 0.1893(5) 0.4271(4)
H7 H 0.6982(6) 0.0582(4) 0.3703(5)
H8 H 0.7970(6) -0.0390(4) 0.6065(4)
H9 H 0.9807(6) 0.0906(4) 0.6632(4)
H10 H 0.3204(6) -0.2059(4) 0.2767(4)
H11 H 0.1447(6) -0.4628(4) 0.3209(4)
N1 N -0.5241(6) -0.5093(4) -0.2233(4)
N2 N 1.1518(6) 0.2911(4) 0.6127(4)
N3 N 0.3266(6) -0.5335(4) 0.5076(4)
C38 C -0.7909(16) -0.2586(14) -0.1864(15)
F1 F -0.7823(12) -0.1659(5) -0.2000(6)
F2 F -0.8239(13) -0.2506(10) -0.1022(6)
F3 F -0.6638(9) -0.2747(8) -0.2009(10)
O1 O -0.8617(6) -0.4451(4) -0.2720(5)
O2 O -1.0165(8) -0.3303(6) -0.2677(7)
O3 O -0.8458(11) -0.3383(5) -0.3751(5)
S1 S -0.8864(3) -0.3533(2) -0.2871(2)
N2_2 N -0.8482(6) -0.7089(4) -0.3873(4)
N3_2 N -0.6734(6) -0.5335(4) -0.4924(4)
Ag1_2 Ag 1.29906(6) 0.43494(4) 0.65875(4)
Ag1_3 Ag 0.29906(6) -0.56506(4) 0.65875(4)
C26 C -0.4091(8) -0.2341(6) 0.1370(6)
C28 C -0.2913(9) -0.1775(6) 0.1844(6)
C30 C -0.2279(10) -0.1043(7) 0.1502(7)
C32 C -0.2906(10) -0.0893(7) 0.0638(7)
C34 C -0.4080(9) -0.1467(7) 0.0154(6)
C36 C -0.4695(9) -0.2216(6) 0.0500(6)
H12 H -0.4503(8) -0.2823(6) 0.1633(6)
H14 H -0.2515(9) -0.1884(6) 0.2425(6)
H16 H -0.1459(10) -0.0659(7) 0.1835(7)
H18 H -0.2510(10) -0.0392(7) 0.0391(7)
H20 H -0.4485(9) -0.1356(7) -0.0424(6)
H22 H -0.5495(9) -0.2624(6) 0.0154(6)
C27 C 0.2760(11) -0.0352(7) 0.1612(7)
C29 C 0.3891(10) 0.0284(7) 0.2159(7)
C31 C 0.3986(11) 0.1337(8) 0.2715(7)
C33 C 0.2754(11) 0.1741(8) 0.2695(7)
C35 C 0.1695(10) 0.1116(8) 0.2148(7)
C37 C 0.1578(11) 0.0109(9) 0.1595(8)
H13 H 0.2773(11) -0.1061(7) 0.1267(7)
H15 H 0.4677(10) -0.0023(7) 0.2157(7)
H17 H 0.4785(11) 0.1740(8) 0.3068(7)
H19 H 0.2695(11) 0.2437(8) 0.3062(7)
H21 H 0.0909(10) 0.1423(8) 0.2146(7)
H23 H 0.0771(11) -0.0263(9) 0.1224(8)
loop_
_geom_bond_atom_site_label_1
_geom_bond_atom_site_label_2
_geom_bond_site_symmetry_1
_geom_bond_site_symmetry_2
Ag1 N1 1_555 1_555
C1 C11 1_555 1_555
C2 C3 1_555 1_555
C3 C4 1_555 1_555
C4 C5 1_555 1_555
C5 C6 1_555 1_555
C6 C7 1_555 1_555
C7 C2 1_555 1_555
C8 C2 1_555 1_555
C9 C5 1_555 1_555
C10 C9 1_555 1_555
C11 C21 1_555 1_555
C12 C13 1_555 1_555
C13 C14 1_555 1_555
C14 C15 1_555 1_555
C15 C16 1_555 1_555
C16 C17 1_555 1_555
C17 C12 1_555 1_555
C18 C12 1_555 1_555
C19 C15 1_555 1_555
C20 C19 1_555 1_555
C21 C20 1_555 1_555
C22 C21 1_555 1_555
C23 C10 1_555 1_555
C24 C1 1_555 1_555
C25 C1 1_555 1_555
H1 C3 1_555 1_555
H2 C4 1_555 1_555
H3 C6 1_555 1_555
H4 C7 1_555 1_555
H5 C11 1_555 1_555
H6 C13 1_555 1_555
H7 C14 1_555 1_555
H8 C16 1_555 1_555
H9 C17 1_555 1_555
H10 C22 1_555 1_555
H11 C24 1_555 1_555
N1 C8 1_555 1_555
N2 C18 1_555 1_555
N3 C25 1_555 1_555
C26 C28 1_555 1_555
C27 C29 1_555 1_555
C28 C30 1_555 1_555
C29 C31 1_555 1_555
C30 C32 1_555 1_555
C31 C33 1_555 1_555
C32 C34 1_555 1_555
C33 C35 1_555 1_555
C34 C36 1_555 1_555
C35 C37 1_555 1_555
C36 C26 1_555 1_555
C37 C27 1_555 1_555
H12 C26 1_555 1_555
H13 C27 1_555 1_555
H14 C28 1_555 1_555
H15 C29 1_555 1_555
H16 C30 1_555 1_555
H17 C31 1_555 1_555
H18 C32 1_555 1_555
H19 C33 1_555 1_555
H20 C34 1_555 1_555
H21 C35 1_555 1_555
H22 C36 1_555 1_555
H23 C37 1_555 1_555
C38 F1 1_555 1_555
F2 C38 1_555 1_555
F3 C38 1_555 1_555
O1 Ag1 1_555 1_555
O2 S1 1_555 1_555
O3 S1 1_555 1_555
S1 C38 1_555 1_555
N2_2 Ag1 1_555 1_555
N3_2 Ag1 1_555 1_555
Ag1_2 N2 1_555 1_555
Ag1_3 N3 1_555 1_555
C22 C23 1_555 1_555
C23 C24 1_555 1_555
O1 S1 1_555 1_555

#END
