
#######################################################################
#
#                 Cambridge Crystallographic Data Centre
#                                CCDC 
#
#######################################################################
#
# If this CIF has been generated from an entry in the Cambridge 
# Structural Database, then it will include bibliographic, chemical, 
# crystal, experimental, refinement or atomic coordinate data resulting 
# from the CCDC's data processing and validation procedures.
#
#######################################################################

data_OBEGOS
_symmetry_cell_setting           monoclinic
_symmetry_space_group_name_H-M   'P 21/n'
_symmetry_Int_Tables_number      14
_space_group_name_Hall           '-P 2yn'
loop_
_symmetry_equiv_pos_site_id
_symmetry_equiv_pos_as_xyz
1 x,y,z
2 1/2+x,1/2-y,1/2+z
3 -x,-y,-z
4 1/2-x,1/2+y,1/2-z
_cell_length_a                   5.9277(4)
_cell_length_b                   24.5218(15)
_cell_length_c                   11.9096(7)
_cell_angle_alpha                90
_cell_angle_beta                 93.6810(10)
_cell_angle_gamma                90
_cell_volume                     1727.58
loop_
_atom_site_label
_atom_site_type_symbol
_atom_site_fract_x
_atom_site_fract_y
_atom_site_fract_z
Zn1 Zn -0.54899(8) 0.32940(2) -0.01653(4)
O1 O -0.3059(5) 0.28342(13) 0.0555(3)
O2 O 0.0926(5) 0.12300(12) 0.3731(3)
O3 O 0.3176(5) 0.38139(12) 0.0892(3)
O4 O 0.7184(5) 0.22116(13) 0.4145(3)
O5 O 0.5793(6) 0.14356(14) 0.3442(3)
O6 O 0.2603(7) 0.40163(15) 0.2656(3)
O7 O 0.1617(6) 0.10384(14) 0.1967(3)
O8 O -0.1675(5) 0.36209(13) 0.1223(3)
C1 C 0.2698(8) 0.36838(19) 0.1890(4)
C2 C 0.1472(7) 0.13679(18) 0.2750(4)
C3 C 0.5727(7) 0.1937(2) 0.3569(4)
C4 C -0.1578(8) 0.3112(2) 0.1126(4)
C5 C 0.0364(8) 0.28110(18) 0.1717(4)
C6 C 0.2313(8) 0.30859(19) 0.2129(4)
C7 C 0.3988(8) 0.27991(18) 0.2745(4)
H1 H 0.5273 0.2984 0.3026
C8 C 0.3806(8) 0.22487(19) 0.2955(4)
C9 C 0.1856(7) 0.19708(18) 0.2538(4)
C10 C 0.0169(8) 0.22574(19) 0.1926(4)
H2 H -0.1121 0.2073 0.1649
O1A O -0.8059(5) 0.21658(13) -0.4445(3)
O2A O -0.4074(5) 0.37700(12) -0.1269(3)
O3A O -0.1824(5) 0.11861(12) -0.4108(3)
O4A O 0.2184(5) 0.27884(13) -0.0855(3)
O5A O 0.0793(6) 0.35644(14) -0.1558(3)
O6A O -0.2397(7) 0.09837(15) -0.2344(3)
O7A O -0.3383(6) 0.39616(14) -0.3033(3)
O8A O -0.6675(5) 0.13791(13) -0.3777(3)
C1A C -0.2302(8) 0.13162(19) -0.3110(4)
C2A C -0.3528(7) 0.36321(18) -0.2250(4)
C3A C 0.0727(7) 0.3063(2) -0.1431(4)
C4A C -0.6578(8) 0.1888(2) -0.3874(4)
C5A C -0.4636(8) 0.21890(18) -0.3283(4)
C6A C -0.2687(8) 0.19141(19) -0.2871(4)
C7A C -0.1012(8) 0.22009(18) -0.2255(4)
H1A H 0.0273 0.2016 -0.1974
C8A C -0.1194(8) 0.27513(19) -0.2045(4)
C9A C -0.3144(7) 0.30292(18) -0.2462(4)
C10A C -0.4831(8) 0.27426(19) -0.3074(4)
H2A H -0.6121 0.2927 -0.3351
Zn1A Zn -1.04899(8) 0.17060(2) -0.51653(4)
O3_2 O -0.6824(5) 0.38139(12) 0.0892(3)
O4A_2 O -0.7816(5) 0.27884(13) -0.0855(3)
Zn1A_2 Zn -0.04899(8) 0.17060(2) 0.48347(4)
Zn1_2 Zn 0.45101(8) 0.32940(2) -0.01653(4)
Zn1A_3 Zn 0.95101(8) 0.17060(2) 0.48347(4)
Zn1A_4 Zn -0.04899(8) 0.17060(2) -0.51653(4)
O2_2 O -0.9074(5) 0.12300(12) -0.6269(3)
O3A_2 O -1.1824(5) 0.11861(12) -0.4108(3)
O4_2 O -1.2816(5) 0.22116(13) -0.5855(3)
C11 C -0.1056(9) 0.5227(2) 0.0954(4)
H3 H -0.2203 0.5462 0.1240
H4 H -0.0188 0.5069 0.1592
C12 C -0.2158(8) 0.4784(2) 0.0258(4)
H5 H -0.3047 0.4556 0.0729
H6 H -0.3173 0.4944 -0.0323
N1 N 0.0464(6) 0.55535(15) 0.0267(3)
H7 H 0.1178 0.5806 0.0709
H8 H -0.0376 0.5730 -0.0275
N1B N -0.0464(6) 0.44465(15) -0.0267(3)
C11B C 0.1056(9) 0.4773(2) -0.0954(4)
H3B H 0.2203 0.4538 -0.1240
H4B H 0.0188 0.4931 -0.1592
C12B C 0.2158(8) 0.5216(2) -0.0258(4)
H5B H 0.3047 0.5444 -0.0729
H6B H 0.3173 0.5056 0.0323
H7B H -0.1178 0.4194 -0.0709
H8B H 0.0376 0.4270 0.0275
C13 C -0.0357(18) 0.3339(3) -0.5126(7)
H9 H -0.1793 0.3209 -0.5435
H10 H 0.0080 0.3137 -0.4456
H11 H 0.0758 0.3291 -0.5667
N2 N -0.0532(11) 0.3912(3) -0.4853(7)
H12 H -0.1618 0.3961 -0.4368
H13 H -0.0913 0.4104 -0.5481
C14 C 0.1669(18) 0.4111(6) -0.4339(11)
H14 H 0.1536 0.4488 -0.4141
H15 H 0.2811 0.4071 -0.4869
H16 H 0.2081 0.3902 -0.3676
O9 O -0.5188(10) 0.49866(19) 0.2516(6)
O10 O -1.1760(16) 0.4411(4) 0.3272(7)
loop_
_geom_bond_atom_site_label_1
_geom_bond_atom_site_label_2
_geom_bond_site_symmetry_1
_geom_bond_site_symmetry_2
Zn1 O1 1_555 1_555
O1 C4 1_555 1_555
O2 C2 1_555 1_555
O3 C1 1_555 1_555
O4 C3 1_555 1_555
O5 C3 1_555 1_555
O6 C1 1_555 1_555
O7 C2 1_555 1_555
O8 C4 1_555 1_555
C1 C6 1_555 1_555
C2 C9 1_555 1_555
C3 C8 1_555 1_555
C4 C5 1_555 1_555
C5 C6 1_555 1_555
C6 C7 1_555 1_555
C7 H1 1_555 1_555
C8 C7 1_555 1_555
C9 C8 1_555 1_555
C10 C5 1_555 1_555
H2 C10 1_555 1_555
C11 H3 1_555 1_555
H4 C11 1_555 1_555
C12 C11 1_555 1_555
H5 C12 1_555 1_555
H6 C12 1_555 1_555
N1 C11 1_555 1_555
H7 N1 1_555 1_555
H8 N1 1_555 1_555
C13 H9 1_555 1_555
H10 C13 1_555 1_555
H11 C13 1_555 1_555
N2 C13 1_555 1_555
H12 N2 1_555 1_555
H13 N2 1_555 1_555
C14 N2 1_555 1_555
H14 C14 1_555 1_555
H15 C14 1_555 1_555
H16 C14 1_555 1_555
N1B C12 1_555 1_555
C11B N1B 1_555 1_555
H3B C11B 1_555 1_555
H4B C11B 1_555 1_555
C12B N1 1_555 1_555
H5B C12B 1_555 1_555
H6B C12B 1_555 1_555
H7B N1B 1_555 1_555
H8B N1B 1_555 1_555
O1A C4A 1_555 1_555
O2A Zn1 1_555 1_555
O3A C1A 1_555 1_555
O4A C3A 1_555 1_555
O5A C3A 1_555 1_555
O6A C1A 1_555 1_555
O7A C2A 1_555 1_555
O8A C4A 1_555 1_555
C1A C6A 1_555 1_555
C2A O2A 1_555 1_555
C3A C8A 1_555 1_555
C4A C5A 1_555 1_555
C5A C6A 1_555 1_555
C6A C7A 1_555 1_555
C7A H1A 1_555 1_555
C8A C7A 1_555 1_555
C9A C2A 1_555 1_555
C10A C5A 1_555 1_555
H2A C10A 1_555 1_555
Zn1A O1A 1_555 1_555
O3_2 Zn1 1_555 1_555
O4A_2 Zn1 1_555 1_555
Zn1A_2 O2 1_555 1_555
Zn1_2 O3 1_555 1_555
Zn1A_3 O4 1_555 1_555
Zn1A_4 O3A 1_555 1_555
O2_2 Zn1A 1_555 1_555
O3A_2 Zn1A 1_555 1_555
O4_2 Zn1A 1_555 1_555
C9 C10 1_555 1_555
C11B C12B 1_555 1_555
O4A Zn1_2 1_555 1_555
C8A C9A 1_555 1_555
C9A C10A 1_555 1_555

#END
