
#######################################################################
#
#                 Cambridge Crystallographic Data Centre
#                                CCDC 
#
#######################################################################
#
# If this CIF has been generated from an entry in the Cambridge 
# Structural Database, then it will include bibliographic, chemical, 
# crystal, experimental, refinement or atomic coordinate data resulting 
# from the CCDC's data processing and validation procedures.
#
#######################################################################

data_OBEHIN
_symmetry_cell_setting           monoclinic
_symmetry_space_group_name_H-M   'C 2/c'
_symmetry_Int_Tables_number      15
_space_group_name_Hall           '-C 2yn'
loop_
_symmetry_equiv_pos_site_id
_symmetry_equiv_pos_as_xyz
1 x,y,z
2 1/2+x,1/2+y,z
3 x,-y,1/2+z
4 1/2+x,1/2-y,1/2+z
5 -x,-y,-z
6 1/2-x,1/2-y,-z
7 -x,y,1/2-z
8 1/2-x,1/2+y,1/2-z
_cell_length_a                   15.3749(7)
_cell_length_b                   7.1276(4)
_cell_length_c                   9.8948(6)
_cell_angle_alpha                90
_cell_angle_beta                 129.244(2)
_cell_angle_gamma                90
_cell_volume                     839.771
loop_
_atom_site_label
_atom_site_type_symbol
_atom_site_fract_x
_atom_site_fract_y
_atom_site_fract_z
Mn1 Mn 0.5000 0.32946(8) 0.2500
Cl1 Cl 0.35469(5) 0.56650(10) 0.06714(9)
O1 O 0.53552(16) 0.2437(3) 0.0753(2)
O2 O 0.37441(15) 0.1073(3) 0.0706(2)
C1 C 0.4695(2) 0.0920(4) -0.0448(3)
H1 H 0.4617 0.1083 -0.1504
C2 C 0.3555(2) 0.1010(4) -0.0908(3)
H2 H 0.3154 0.2122 -0.1597
H3 H 0.3114 -0.0086 -0.1578
H4 H 0.566(3) 0.301(4) 0.045(4)
H5 H 0.317(2) 0.089(5) 0.055(3)
C1D C 0.5305(2) -0.0920(4) 0.0448(3)
O1D O 0.46448(16) -0.2437(3) -0.0753(2)
H4D H 0.434(3) -0.301(4) -0.045(4)
H1D H 0.5383 -0.1083 0.1504
C2D C 0.6445(2) -0.1010(4) 0.0908(3)
O2D O 0.62559(15) -0.1073(3) -0.0706(2)
H5D H 0.683(2) -0.089(5) -0.055(3)
H2D H 0.6846 -0.2122 0.1597
H3D H 0.6886 0.0086 0.1578
Cl1F Cl 0.64531(5) 0.56650(10) 0.43286(9)
O1F O 0.46448(16) 0.2437(3) 0.4247(2)
O2F O 0.62559(15) 0.1073(3) 0.4294(2)
Mn1B Mn 0.5000 -0.32946(8) -0.2500
H4F H 0.434(3) 0.301(4) 0.455(4)
H5F H 0.683(2) 0.089(5) 0.445(3)
loop_
_geom_bond_atom_site_label_1
_geom_bond_atom_site_label_2
_geom_bond_site_symmetry_1
_geom_bond_site_symmetry_2
Mn1 Cl1 1_555 1_555
O1 Mn1 1_555 1_555
O2 Mn1 1_555 1_555
C1 O1 1_555 1_555
H1 C1 1_555 1_555
C2 O2 1_555 1_555
H2 C2 1_555 1_555
H3 C2 1_555 1_555
H4 O1 1_555 1_555
H5 O2 1_555 1_555
C1D C1 1_555 1_555
O1D C1D 1_555 1_555
H4D O1D 1_555 1_555
H1D C1D 1_555 1_555
C2D C1D 1_555 1_555
O2D C2D 1_555 1_555
H5D O2D 1_555 1_555
H2D C2D 1_555 1_555
H3D C2D 1_555 1_555
Cl1F Mn1 1_555 1_555
O1F Mn1 1_555 1_555
O2F Mn1 1_555 1_555
Mn1B O1D 1_555 1_555
H4F O1F 1_555 1_555
H5F O2F 1_555 1_555
C1 C2 1_555 1_555
O2D Mn1B 1_555 1_555

#END
