
#######################################################################
#
#                 Cambridge Crystallographic Data Centre
#                                CCDC 
#
#######################################################################
#
# If this CIF has been generated from an entry in the Cambridge 
# Structural Database, then it will include bibliographic, chemical, 
# crystal, experimental, refinement or atomic coordinate data resulting 
# from the CCDC's data processing and validation procedures.
#
#######################################################################

data_OBEHAF
_symmetry_cell_setting           triclinic
_symmetry_space_group_name_H-M   'P -1'
_symmetry_Int_Tables_number      2
_space_group_name_Hall           '-P 1'
loop_
_symmetry_equiv_pos_site_id
_symmetry_equiv_pos_as_xyz
1 x,y,z
2 -x,-y,-z
_cell_length_a                   6.2587(2)
_cell_length_b                   7.5076(3)
_cell_length_c                   9.7094(4)
_cell_angle_alpha                104.1589(13)
_cell_angle_beta                 105.6192(14)
_cell_angle_gamma                99.646(2)
_cell_volume                     412.504
loop_
_atom_site_label
_atom_site_type_symbol
_atom_site_fract_x
_atom_site_fract_y
_atom_site_fract_z
Cu1 Cu 0.29635(8) 0.14422(6) 0.09835(5)
Cl1 Cl 0.41380(18) 0.06159(14) 0.30834(12)
Cl2 Cl 0.16476(18) -0.14166(13) -0.07344(12)
O1 O 0.3012(5) 0.2682(4) -0.0597(3)
O2 O 0.3939(5) 0.4174(4) 0.2208(3)
C1 C 0.3721(6) 0.4710(5) -0.0114(4)
H3 H 0.2868 0.5200 -0.0881
C2 C 0.3180(7) 0.5392(6) 0.1321(5)
H4 H 0.3991 0.6708 0.1850
H5 H 0.1548 0.5277 0.1110
H9 H 0.207(7) 0.231(4) -0.143(3)
H10 H 0.363(9) 0.448(6) 0.298(3)
C1A C 0.6279(6) 0.5290(5) 0.0114(4)
O1A O 0.6988(5) 0.7318(4) 0.0597(3)
H9A H 0.793(7) 0.769(4) 0.143(3)
H3A H 0.7132 0.4800 0.0881
C2A C 0.6820(7) 0.4608(6) -0.1321(5)
O2A O 0.6061(5) 0.5826(4) -0.2208(3)
H10A H 0.637(9) 0.552(6) -0.298(3)
H4A H 0.6009 0.3292 -0.1850
H5A H 0.8452 0.4723 -0.1110
Cl2A Cl -0.16476(18) 0.14166(13) 0.07344(12)
Cu1A Cu -0.29635(8) -0.14422(6) -0.09835(5)
Cl1A Cl -0.41380(18) -0.06159(14) -0.30834(12)
Cu1A_2 Cu 0.70365(8) 0.85578(6) -0.09835(5)
O1A_2 O -0.3012(5) -0.2682(4) 0.0597(3)
O2A_2 O -0.3939(5) -0.4174(4) -0.2208(3)
H9A_2 H -0.207(7) -0.231(4) 0.143(3)
H10A_2 H -0.363(9) -0.448(6) -0.298(3)
O3 O -0.2583(5) 0.4388(4) -0.4486(3)
H1 H -0.3409 0.3623 -0.5293
O4 O 0.0181(5) 0.2019(5) -0.3297(3)
H2 H -0.1145 0.1416 -0.3511
C3 C -0.0225(6) 0.4576(6) -0.4402(4)
H6 H 0.0719 0.5471 -0.3420
C4 C 0.0420(7) 0.2712(6) -0.4503(5)
H7 H -0.0546 0.1782 -0.5448
H8 H 0.1996 0.2875 -0.4493
C3A C 0.0225(6) 0.5424(6) -0.5598(4)
O3A O 0.2583(5) 0.5612(4) -0.5514(3)
H1A H 0.3409 0.6377 -0.4707
H6A H -0.0719 0.4529 -0.6580
C4A C -0.0420(7) 0.7288(6) -0.5497(5)
O4A O -0.0181(5) 0.7981(5) -0.6703(3)
H2A H 0.1145 0.8584 -0.6489
H7A H 0.0546 0.8218 -0.4552
H8A H -0.1996 0.7125 -0.5507
loop_
_geom_bond_atom_site_label_1
_geom_bond_atom_site_label_2
_geom_bond_site_symmetry_1
_geom_bond_site_symmetry_2
Cu1 Cl1 1_555 1_555
Cl2 Cu1 1_555 1_555
O1 Cu1 1_555 1_555
O2 Cu1 1_555 1_555
O3 H1 1_555 1_555
O4 H2 1_555 1_555
C1 O1 1_555 1_555
H3 C1 1_555 1_555
C2 O2 1_555 1_555
H4 C2 1_555 1_555
H5 C2 1_555 1_555
C3 O3 1_555 1_555
H6 C3 1_555 1_555
C4 O4 1_555 1_555
H7 C4 1_555 1_555
H8 C4 1_555 1_555
H9 O1 1_555 1_555
H10 O2 1_555 1_555
C1A C1 1_555 1_555
O1A C1A 1_555 1_555
H9A O1A 1_555 1_555
H3A C1A 1_555 1_555
C2A C1A 1_555 1_555
O2A C2A 1_555 1_555
H10A O2A 1_555 1_555
H4A C2A 1_555 1_555
H5A C2A 1_555 1_555
C3A C3 1_555 1_555
O3A C3A 1_555 1_555
H1A O3A 1_555 1_555
H6A C3A 1_555 1_555
C4A C3A 1_555 1_555
O4A C4A 1_555 1_555
H2A O4A 1_555 1_555
H7A C4A 1_555 1_555
H8A C4A 1_555 1_555
Cl2A Cu1 1_555 1_555
Cu1A Cl2 1_555 1_555
Cl1A Cu1A 1_555 1_555
Cu1A_2 O1A 1_555 1_555
O1A_2 Cu1A 1_555 1_555
O2A_2 Cu1A 1_555 1_555
H9A_2 O1A_2 1_555 1_555
H10A_2 O2A_2 1_555 1_555
C1 C2 1_555 1_555
C3 C4 1_555 1_555
O2A Cu1A_2 1_555 1_555
Cl2A Cu1A 1_555 1_555

#END
