
#######################################################################
#
#                 Cambridge Crystallographic Data Centre
#                                CCDC 
#
#######################################################################
#
# If this CIF has been generated from an entry in the Cambridge 
# Structural Database, then it will include bibliographic, chemical, 
# crystal, experimental, refinement or atomic coordinate data resulting 
# from the CCDC's data processing and validation procedures.
#
#######################################################################

data_OBEKOW
_symmetry_cell_setting           monoclinic
_symmetry_space_group_name_H-M   'C 2/c'
_symmetry_Int_Tables_number      15
_space_group_name_Hall           '-C 2yn'
loop_
_symmetry_equiv_pos_site_id
_symmetry_equiv_pos_as_xyz
1 x,y,z
2 1/2+x,1/2+y,z
3 x,-y,1/2+z
4 1/2+x,1/2-y,1/2+z
5 -x,-y,-z
6 1/2-x,1/2-y,-z
7 -x,y,1/2-z
8 1/2-x,1/2+y,1/2-z
_cell_length_a                   42.289(3)
_cell_length_b                   18.2148(13)
_cell_length_c                   11.1327(8)
_cell_angle_alpha                90
_cell_angle_beta                 103.677(2)
_cell_angle_gamma                90
_cell_volume                     8332.2
loop_
_atom_site_label
_atom_site_type_symbol
_atom_site_fract_x
_atom_site_fract_y
_atom_site_fract_z
C38 C 0.2764(6) 0.4694(16) 0.496(2)
H31 H 0.2984 0.4539 0.5223
C39 C 0.2596(6) 0.4886(16) 0.579(2)
H32 H 0.2697 0.4867 0.6651
C40 C 0.2284(6) 0.5104(14) 0.542(2)
H33 H 0.2165 0.5239 0.6006
C41 C 0.2141(5) 0.5130(13) 0.4201(19)
H34 H 0.1921 0.5284 0.3935
C42 C 0.2309(6) 0.4938(13) 0.3364(19)
H35 H 0.2208 0.4956 0.2507
C43 C 0.2621(6) 0.4720(14) 0.374(2)
H36 H 0.2740 0.4584 0.3151
Cl3 Cl 0.0000 0.0503(3) 0.2500
O12 O -0.0012(7) 0.0174(14) 0.1297(17)
O14 O 0.0317(5) 0.0750(14) 0.324(2)
O12F O 0.0012(7) 0.0174(14) 0.3703(17)
O14F O -0.0317(5) 0.0750(14) 0.176(2)
C44 C 0.0204(9) 0.5285(18) 0.104(3)
H37 H 0.0341 0.5501 0.1757
C45 C 0.0315(7) 0.4966(15) 0.009(3)
H38 H 0.0543 0.4920 0.0178
C46 C -0.0138(8) 0.5251(17) 0.082(3)
H39 H -0.0234 0.5416 0.1464
C46D C 0.0138(8) 0.4749(17) -0.082(3)
C44D C -0.0204(9) 0.4715(18) -0.104(3)
H37D H -0.0341 0.4499 -0.1757
C45D C -0.0315(7) 0.5034(15) -0.009(3)
H38D H -0.0543 0.5080 -0.0178
H39D H 0.0234 0.4584 -0.1464
Ag1 Ag 0.361360(17) 0.26795(6) 0.25665(9)
Ag2 Ag 0.14736(3) 0.34621(6) 0.25891(10)
C1 C 0.13018(19) 0.1626(5) -0.0322(8)
C2 C 0.1418(2) 0.1146(5) -0.1094(8)
H1 H 0.1640 0.1074 -0.1104
C3 C 0.1148(2) 0.0785(5) -0.1858(8)
C4 C 0.08651(19) 0.1035(5) -0.1561(8)
H2 H 0.0650 0.0873 -0.1929
C5 C 0.0950(2) 0.1561(5) -0.0634(8)
C6 C 0.1448(2) 0.2124(5) 0.0601(9)
C7 C 0.1807(2) 0.2230(5) 0.0991(8)
C8 C 0.2008(2) 0.1637(6) 0.1340(10)
H3 H 0.1916 0.1161 0.1342
C9 C 0.2341(2) 0.1727(6) 0.1687(10)
H4 H 0.2481 0.1317 0.1929
C10 C 0.2468(2) 0.2426(6) 0.1674(10)
C11 C 0.2270(3) 0.3024(6) 0.1318(11)
H5 H 0.2362 0.3500 0.1314
C12 C 0.1942(2) 0.2934(6) 0.0973(10)
H6 H 0.1804 0.3346 0.0720
C13 C 0.2816(2) 0.2504(7) 0.2001(10)
C14 C 0.0775(2) 0.2020(5) -0.0040(8)
C15 C 0.0414(2) 0.2076(5) -0.0387(8)
C16 C 0.0227(2) 0.1458(5) -0.0397(9)
H7 H 0.0327 0.0994 -0.0185
C17 C -0.0112(2) 0.1518(6) -0.0721(11)
H8 H -0.0244 0.1093 -0.0748
C18 C -0.0253(2) 0.2198(6) -0.1003(9)
C19 C -0.0067(2) 0.2806(6) -0.1010(11)
H9 H -0.0168 0.3268 -0.1231
C20 C 0.0266(2) 0.2754(6) -0.0698(11)
H10 H 0.0396 0.3181 -0.0696
C21 C -0.0602(2) 0.2264(6) -0.1283(10)
C22 C 0.1171(2) 0.0195(5) -0.2816(9)
C23 C 0.0875(3) 0.0242(8) -0.3902(12)
H11 H 0.0844 0.0751 -0.4191
H12 H 0.0681 0.0077 -0.3639
H13 H 0.0908 -0.0072 -0.4576
C24 C 0.1178(4) -0.0545(7) -0.2213(13)
H14 H 0.1153 -0.0930 -0.2844
H15 H 0.0999 -0.0579 -0.1793
H16 H 0.1386 -0.0610 -0.1608
C25 C 0.1471(3) 0.0281(8) -0.3271(12)
H17 H 0.1661 0.0274 -0.2569
H18 H 0.1464 0.0750 -0.3710
H19 H 0.1487 -0.0123 -0.3835
C26 C 0.07644(18) 0.2822(4) 0.1666(7)
C27 C 0.06079(19) 0.2405(4) 0.2376(7)
H20 H 0.0601 0.1886 0.2291
C28 C 0.0462(2) 0.2739(5) 0.3211(8)
H21 H 0.0353 0.2451 0.3702
C29 C 0.0472(2) 0.3489(5) 0.3334(8)
H22 H 0.0371 0.3720 0.3911
C30 C 0.0628(2) 0.3906(4) 0.2624(8)
H23 H 0.0635 0.4425 0.2710
C31 C 0.07746(18) 0.3572(4) 0.1790(7)
H24 H 0.0883 0.3860 0.1298
C32 C 0.1429(4) 0.3055(10) 0.4755(14)
H25 H 0.1228 0.3267 0.4804
C33 C 0.1694(5) 0.3486(9) 0.4825(14)
H26 H 0.1680 0.4002 0.4931
C34 C 0.1984(5) 0.3171(9) 0.4741(16)
H27 H 0.2167 0.3478 0.4764
C35 C 0.2016(4) 0.2446(9) 0.4627(16)
H28 H 0.2221 0.2239 0.4606
C36 C 0.1743(4) 0.1998(10) 0.4540(16)
H29 H 0.1760 0.1483 0.4432
C37 C 0.1454(4) 0.2298(9) 0.4609(14)
H30 H 0.1269 0.1994 0.4558
N1 N 0.3090(2) 0.2569(6) 0.2234(10)
N2 N 0.12728(18) 0.2535(5) 0.1192(8)
N3 N 0.09373(17) 0.2477(4) 0.0861(8)
N4 N -0.0876(2) 0.2332(6) -0.1487(10)
O1 O 0.1554(4) 0.4539(7) 0.1642(15)
Cl1 Cl 0.38882(9) 0.0925(2) 0.1636(4)
O2 O 0.3668(4) 0.1480(7) 0.1345(16)
O3 O 0.3885(6) 0.0793(11) 0.2845(16)
O4 O 0.3800(4) 0.0298(7) 0.0918(15)
O5 O 0.4180(4) 0.1180(14) 0.1570(19)
N4C N 0.4124(2) 0.2668(6) 0.3513(10)
Ag1C Ag -0.138640(17) 0.23205(6) -0.24335(9)
Cl2? Cl 0.26458(17) 0.4895(4) 0.5188(8)
O6? O 0.2778(5) 0.5526(10) 0.5816(19)
O7? O 0.2313(5) 0.5042(18) 0.497(3)
O8? O 0.2717(5) 0.4270(10) 0.5922(18)
O9? O 0.2738(8) 0.4847(16) 0.413(2)
O10? O 0.1932(7) 0.5623(14) 0.293(3)
O11? O 0.0140(5) 0.1231(10) 0.266(2)
O13? O 0.0139(6) 0.0021(13) 0.177(2)
loop_
_geom_bond_atom_site_label_1
_geom_bond_atom_site_label_2
_geom_bond_site_symmetry_1
_geom_bond_site_symmetry_2
Ag1 N1 1_555 1_555
Ag2 C32 1_555 1_555
C1 C2 1_555 1_555
C2 H1 1_555 1_555
C3 C2 1_555 1_555
C4 C3 1_555 1_555
H2 C4 1_555 1_555
C5 C1 1_555 1_555
C6 C1 1_555 1_555
C7 C6 1_555 1_555
C8 C7 1_555 1_555
H3 C8 1_555 1_555
C9 C8 1_555 1_555
H4 C9 1_555 1_555
C10 C9 1_555 1_555
C11 C10 1_555 1_555
H5 C11 1_555 1_555
C12 C7 1_555 1_555
H6 C12 1_555 1_555
C13 C10 1_555 1_555
C14 C5 1_555 1_555
C15 C14 1_555 1_555
C16 C15 1_555 1_555
H7 C16 1_555 1_555
C17 C16 1_555 1_555
H8 C17 1_555 1_555
C18 C17 1_555 1_555
C19 C18 1_555 1_555
H9 C19 1_555 1_555
C20 C15 1_555 1_555
H10 C20 1_555 1_555
C21 C18 1_555 1_555
C22 C3 1_555 1_555
C23 C22 1_555 1_555
H11 C23 1_555 1_555
H12 C23 1_555 1_555
H13 C23 1_555 1_555
C24 C22 1_555 1_555
H14 C24 1_555 1_555
H15 C24 1_555 1_555
H16 C24 1_555 1_555
C25 C22 1_555 1_555
H17 C25 1_555 1_555
H18 C25 1_555 1_555
H19 C25 1_555 1_555
C26 C27 1_555 1_555
C27 H20 1_555 1_555
C28 C27 1_555 1_555
H21 C28 1_555 1_555
C29 C28 1_555 1_555
H22 C29 1_555 1_555
C30 C29 1_555 1_555
H23 C30 1_555 1_555
C31 C26 1_555 1_555
H24 C31 1_555 1_555
C32 H25 1_555 1_555
C33 Ag2 1_555 1_555
H26 C33 1_555 1_555
C34 C33 1_555 1_555
H27 C34 1_555 1_555
C35 C34 1_555 1_555
H28 C35 1_555 1_555
C36 C35 1_555 1_555
H29 C36 1_555 1_555
C37 C32 1_555 1_555
H30 C37 1_555 1_555
N1 C13 1_555 1_555
N2 Ag2 1_555 1_555
N3 C14 1_555 1_555
N4 C21 1_555 1_555
O1 Ag2 1_555 1_555
Cl1 O2 1_555 1_555
O2 Ag1 1_555 1_555
O3 Cl1 1_555 1_555
O4 Cl1 1_555 1_555
O5 Cl1 1_555 1_555
C38 H31 1_555 1_555
C39 C38 1_555 1_555
H32 C39 1_555 1_555
C40 C39 1_555 1_555
H33 C40 1_555 1_555
C41 C40 1_555 1_555
H34 C41 1_555 1_555
C42 C41 1_555 1_555
H35 C42 1_555 1_555
C43 C38 1_555 1_555
H36 C43 1_555 1_555
Cl3 O12 1_555 1_555
O14 Cl3 1_555 1_555
C44 H37 1_555 1_555
C45 C44 1_555 1_555
H38 C45 1_555 1_555
C46 C44 1_555 1_555
H39 C46 1_555 1_555
N4C Ag1 1_555 1_555
Ag1C N4 1_555 1_555
O12F Cl3 1_555 1_555
O14F Cl3 1_555 1_555
C46D C45 1_555 1_555
C44D C46D 1_555 1_555
H37D C44D 1_555 1_555
C45D C46 1_555 1_555
H38D C45D 1_555 1_555
H39D C46D 1_555 1_555
C4 C5 1_555 1_555
C6 N2 1_555 1_555
C11 C12 1_555 1_555
C19 C20 1_555 1_555
C26 N3 1_555 1_555
C30 C31 1_555 1_555
C32 C33 1_555 1_555
C36 C37 1_555 1_555
N2 N3 1_555 1_555
C42 C43 1_555 1_555
C44D C45D 1_555 1_555

#END
