
#######################################################################
#
#                 Cambridge Crystallographic Data Centre
#                                CCDC 
#
#######################################################################
#
# If this CIF has been generated from an entry in the Cambridge 
# Structural Database, then it will include bibliographic, chemical, 
# crystal, experimental, refinement or atomic coordinate data resulting 
# from the CCDC's data processing and validation procedures.
#
#######################################################################

data_OBEKEM
_symmetry_cell_setting           triclinic
_symmetry_space_group_name_H-M   'P -1'
_symmetry_Int_Tables_number      2
_space_group_name_Hall           '-P 1'
loop_
_symmetry_equiv_pos_site_id
_symmetry_equiv_pos_as_xyz
1 x,y,z
2 -x,-y,-z
_cell_length_a                   10.3433(5)
_cell_length_b                   14.3521(7)
_cell_length_c                   15.5484(8)
_cell_angle_alpha                65.4250(10)
_cell_angle_beta                 87.3260(10)
_cell_angle_gamma                72.9880(10)
_cell_volume                     1999.72
loop_
_atom_site_label
_atom_site_type_symbol
_atom_site_fract_x
_atom_site_fract_y
_atom_site_fract_z
Ag1 Ag 0.14527(2) -0.072802(17) 0.643150(15)
C1 C 0.4630(2) 0.60761(18) 0.14432(16)
C2 C 0.4589(2) 0.50301(18) 0.19298(16)
H1 H 0.4039 0.4801 0.2435
C3 C 0.5489(2) 0.43485(18) 0.15668(15)
C4 C 0.6159(2) 0.50336(18) 0.08274(16)
C5 C 0.5607(2) 0.60668(18) 0.07785(16)
H2 H 0.5853 0.6679 0.0357
C6 C 0.5556(2) 0.32794(19) 0.18092(16)
C7 C 0.4843(2) 0.26858(18) 0.26059(16)
C8 C 0.5008(3) 0.2635(2) 0.35037(17)
H3 H 0.5541 0.3021 0.3610
C9 C 0.4396(3) 0.2023(2) 0.42504(18)
H4 H 0.4515 0.1982 0.4869
C10 C 0.3609(2) 0.14702(19) 0.40819(17)
C11 C 0.3431(2) 0.15191(19) 0.31775(17)
H5 H 0.2884 0.1145 0.3066
C12 C 0.4060(2) 0.21190(18) 0.24510(17)
H6 H 0.3960 0.2147 0.1836
C13 C 0.2972(3) 0.0832(2) 0.48540(18)
C14 C 0.7169(2) 0.47217(18) 0.02633(16)
C15 C 0.7949(2) 0.54550(18) -0.03292(16)
C16 C 0.8412(2) 0.60824(18) -0.00101(16)
H7 H 0.8195 0.6077 0.0592
C17 C 0.9185(2) 0.67148(18) -0.05637(17)
H8 H 0.9507 0.7139 -0.0343
C18 C 0.9485(2) 0.67216(18) -0.14443(16)
C19 C 0.9047(2) 0.60870(18) -0.17685(17)
H9 H 0.9262 0.6094 -0.2372
C20 C 0.8299(2) 0.54488(18) -0.12037(16)
H10 H 0.8017 0.4998 -0.1412
C21 C 1.0270(2) 0.74002(19) -0.20349(17)
C22 C 0.3798(2) 0.70623(19) 0.15743(18)
C23 C 0.3164(3) 0.7970(2) 0.06085(19)
H11 H 0.3883 0.8133 0.0191
H12 H 0.2646 0.8612 0.0694
H13 H 0.2557 0.7745 0.0322
C24 C 0.4723(3) 0.7424(2) 0.2027(2)
H14 H 0.5129 0.6845 0.2645
H15 H 0.4191 0.8063 0.2112
H16 H 0.5443 0.7596 0.1613
C25 C 0.2656(3) 0.6825(2) 0.2205(2)
H17 H 0.2069 0.6584 0.1919
H18 H 0.2122 0.7477 0.2268
H19 H 0.3043 0.6259 0.2833
N1 N 0.2473(2) 0.03281(18) 0.54599(16)
N2 N 1.0879(2) 0.79358(17) -0.25038(15)
O1 O 0.61845(17) 0.27287(13) 0.13537(12)
H20 H 0.674(4) 0.316(3) 0.084(2)
O2 O 0.74785(16) 0.38178(12) 0.02286(11)
Cl1 Cl -0.20580(6) 0.11102(5) 0.58474(4)
O3 O -0.11231(19) 0.00400(15) 0.62291(15)
O4 O -0.1746(2) 0.17208(16) 0.62841(15)
O5 O -0.1999(2) 0.16248(17) 0.48462(14)
O6 O -0.33910(19) 0.10139(16) 0.60453(15)
N2_2 N 0.0879(2) -0.20642(17) 0.74962(15)
Ag1_2 Ag 1.14527(2) 0.927198(17) -0.356850(15)
C26 C 0.2242(3) 0.0015(2) 0.7864(2)
H21 H 0.2127 -0.0656 0.8280
C27 C 0.3512(3) 0.0114(3) 0.7718(2)
H22 H 0.4280 -0.0491 0.8030
C28 C 0.3694(3) 0.1082(3) 0.7125(2)
H23 H 0.4583 0.1145 0.7021
C29 C 0.2569(4) 0.1967(3) 0.6679(2)
H24 H 0.2682 0.2643 0.6275
C30 C 0.1288(3) 0.1857(2) 0.6826(2)
H25 H 0.0511 0.2457 0.6521
C31 C 0.1139(3) 0.0877(2) 0.74150(19)
H26 H 0.0255 0.0800 0.7510
C32 C -0.0314(5) 0.4892(3) 0.6494(3)
H27 H -0.0931 0.4516 0.6489
C33 C 0.0841(5) 0.4379(3) 0.7132(3)
H28 H 0.1031 0.3647 0.7570
C34 C 0.1706(4) 0.4965(4) 0.7109(3)
H29 H 0.2501 0.4632 0.7536
C35 C 0.1424(4) 0.6009(4) 0.6483(3)
H30 H 0.2020 0.6405 0.6477
C36 C 0.0321(4) 0.6483(3) 0.5876(2)
H31 H 0.0141 0.7213 0.5437
C37 C -0.0544(4) 0.5944(3) 0.5877(2)
H32 H -0.1329 0.6300 0.5440
C38 C -0.1051(3) 0.8808(2) 0.0362(2)
H33 H -0.0427 0.8581 0.0891
C39 C -0.2346(4) 0.8745(2) 0.0501(2)
H34 H -0.2619 0.8473 0.1127
C40 C -0.3249(3) 0.9075(2) -0.0263(3)
H35 H -0.4151 0.9039 -0.0168
C41 C -0.2836(3) 0.9462(2) -0.1178(2)
H36 H -0.3452 0.9687 -0.1710
C42 C -0.1544(3) 0.9516(2) -0.1305(2)
H37 H -0.1258 0.9776 -0.1928
C43 C -0.0655(3) 0.9198(2) -0.0540(2)
H38 H 0.0240 0.9248 -0.0635
C44 C -0.4892(5) 0.3953(3) 0.5270(3)
H39 H -0.4825 0.3218 0.5462
C45 C -0.3764(4) 0.4269(3) 0.5135(2)
H40 H -0.2898 0.3757 0.5227
C46 C -0.6138(5) 0.4704(4) 0.5125(3)
H41 H -0.6937 0.4488 0.5213
C46A C -0.3862(5) 0.5296(4) 0.4875(3)
C45A C -0.6236(4) 0.5731(3) 0.4865(2)
C44A C -0.5108(5) 0.6047(3) 0.4730(3)
H41A H -0.3063 0.5512 0.4787
H40A H -0.7102 0.6243 0.4773
H39A H -0.5175 0.6782 0.4538
loop_
_geom_bond_atom_site_label_1
_geom_bond_atom_site_label_2
_geom_bond_site_symmetry_1
_geom_bond_site_symmetry_2
Ag1 N1 1_555 1_555
C1 C2 1_555 1_555
C2 H1 1_555 1_555
C3 C2 1_555 1_555
C4 C3 1_555 1_555
C5 C1 1_555 1_555
H2 C5 1_555 1_555
C6 C3 1_555 1_555
C7 C6 1_555 1_555
C8 C7 1_555 1_555
H3 C8 1_555 1_555
C9 C8 1_555 1_555
H4 C9 1_555 1_555
C10 C9 1_555 1_555
C11 C10 1_555 1_555
H5 C11 1_555 1_555
C12 C7 1_555 1_555
H6 C12 1_555 1_555
C13 C10 1_555 1_555
C14 C4 1_555 1_555
C15 C14 1_555 1_555
C16 C15 1_555 1_555
H7 C16 1_555 1_555
C17 C16 1_555 1_555
H8 C17 1_555 1_555
C18 C17 1_555 1_555
C19 C18 1_555 1_555
H9 C19 1_555 1_555
C20 C15 1_555 1_555
H10 C20 1_555 1_555
C21 C18 1_555 1_555
C22 C1 1_555 1_555
C23 C22 1_555 1_555
H11 C23 1_555 1_555
H12 C23 1_555 1_555
H13 C23 1_555 1_555
C24 C22 1_555 1_555
H14 C24 1_555 1_555
H15 C24 1_555 1_555
H16 C24 1_555 1_555
C25 C22 1_555 1_555
H17 C25 1_555 1_555
H18 C25 1_555 1_555
H19 C25 1_555 1_555
N1 C13 1_555 1_555
N2 C21 1_555 1_555
O1 C6 1_555 1_555
H20 O1 1_555 1_555
O2 C14 1_555 1_555
Cl1 O3 1_555 1_555
O3 Ag1 1_555 1_555
O4 Cl1 1_555 1_555
O5 Cl1 1_555 1_555
O6 Cl1 1_555 1_555
C26 H21 1_555 1_555
C27 C26 1_555 1_555
H22 C27 1_555 1_555
C28 C27 1_555 1_555
H23 C28 1_555 1_555
C29 C28 1_555 1_555
H24 C29 1_555 1_555
C30 C29 1_555 1_555
H25 C30 1_555 1_555
C31 C26 1_555 1_555
H26 C31 1_555 1_555
C32 H27 1_555 1_555
C33 C32 1_555 1_555
H28 C33 1_555 1_555
C34 C33 1_555 1_555
H29 C34 1_555 1_555
C35 C34 1_555 1_555
H30 C35 1_555 1_555
C36 C35 1_555 1_555
H31 C36 1_555 1_555
C37 C32 1_555 1_555
H32 C37 1_555 1_555
C38 H33 1_555 1_555
C39 C38 1_555 1_555
H34 C39 1_555 1_555
C40 C39 1_555 1_555
H35 C40 1_555 1_555
C41 C40 1_555 1_555
H36 C41 1_555 1_555
C42 C41 1_555 1_555
H37 C42 1_555 1_555
C43 C38 1_555 1_555
H38 C43 1_555 1_555
C44 H39 1_555 1_555
C45 C44 1_555 1_555
H40 C45 1_555 1_555
C46 C44 1_555 1_555
H41 C46 1_555 1_555
N2_2 Ag1 1_555 1_555
C46A C45 1_555 1_555
C45A C46 1_555 1_555
Ag1_2 N2 1_555 1_555
C44A C46A 1_555 1_555
H41A C46A 1_555 1_555
H40A C45A 1_555 1_555
H39A C44A 1_555 1_555
C4 C5 1_555 1_555
C11 C12 1_555 1_555
C19 C20 1_555 1_555
C30 C31 1_555 1_555
C36 C37 1_555 1_555
C42 C43 1_555 1_555
C45A C44A 1_555 1_555

#END
