
#######################################################################
#
#                 Cambridge Crystallographic Data Centre
#                                CCDC 
#
#######################################################################
#
# If this CIF has been generated from an entry in the Cambridge 
# Structural Database, then it will include bibliographic, chemical, 
# crystal, experimental, refinement or atomic coordinate data resulting 
# from the CCDC's data processing and validation procedures.
#
#######################################################################

data_OBELIR
_symmetry_cell_setting           monoclinic
_symmetry_space_group_name_H-M   'C 2/c'
_symmetry_Int_Tables_number      15
_space_group_name_Hall           '-C 2yn'
loop_
_symmetry_equiv_pos_site_id
_symmetry_equiv_pos_as_xyz
1 x,y,z
2 1/2+x,1/2+y,z
3 x,-y,1/2+z
4 1/2+x,1/2-y,1/2+z
5 -x,-y,-z
6 1/2-x,1/2-y,-z
7 -x,y,1/2-z
8 1/2-x,1/2+y,1/2-z
_cell_length_a                   34.7405(19)
_cell_length_b                   9.1035(5)
_cell_length_c                   31.9219(18)
_cell_angle_alpha                90
_cell_angle_beta                 111.2640(10)
_cell_angle_gamma                90
_cell_volume                     9408.31
loop_
_atom_site_label
_atom_site_type_symbol
_atom_site_fract_x
_atom_site_fract_y
_atom_site_fract_z
Ag1 Ag -0.353790(9) 0.42541(4) -0.598460(12)
C1 C -0.06078(9) -0.1637(4) -0.51752(10)
C2 C -0.06046(10) -0.1885(4) -0.56139(11)
H1 H -0.0441 -0.2577 -0.5684
C3 C -0.08803(10) -0.0951(4) -0.59222(11)
C4 C -0.10672(9) -0.0053(4) -0.56660(11)
C5 C -0.08835(9) -0.0517(4) -0.52113(11)
H2 H -0.0942 -0.0119 -0.4972
C6 C -0.09647(10) -0.0944(4) -0.63953(11)
C7 C -0.06685(10) -0.1650(4) -0.65712(11)
C8 C -0.02462(10) -0.1419(4) -0.63614(12)
H3 H -0.0147 -0.0865 -0.6099
C9 C 0.00279(11) -0.2013(4) -0.65420(13)
C10 C -0.01153(13) -0.2877(5) -0.69252(14)
H4 H 0.0069 -0.3316 -0.7037
C11 C -0.05371(14) -0.3075(5) -0.71386(14)
H5 H -0.0636 -0.3636 -0.7399
C12 C -0.08100(12) -0.2454(5) -0.69699(12)
H6 H -0.1092 -0.2571 -0.7123
C13 C 0.04594(12) -0.1694(5) -0.63238(14)
C14 C -0.13722(10) 0.1011(4) -0.58247(11)
C15 C -0.15148(10) 0.1924(4) -0.55249(11)
C16 C -0.19373(10) 0.2184(4) -0.56559(11)
H7 H -0.2120 0.1776 -0.5920
C17 C -0.20829(11) 0.3051(4) -0.53906(12)
C18 C -0.18168(12) 0.3682(4) -0.49983(13)
H8 H -0.1918 0.4257 -0.4821
C19 C -0.13983(12) 0.3442(4) -0.48751(12)
H9 H -0.1216 0.3872 -0.4615
C20 C -0.12492(11) 0.2576(4) -0.51329(12)
H10 H -0.0966 0.2422 -0.5044
C21 C -0.25249(12) 0.3273(4) -0.55425(13)
C22 C -0.03499(10) -0.2461(4) -0.47564(11)
C23 C 0.01059(11) -0.2221(6) -0.46791(16)
H11 H 0.0161 -0.2550 -0.4938
H12 H 0.0273 -0.2766 -0.4420
H13 H 0.0170 -0.1194 -0.4631
C24 C -0.04482(16) -0.4097(5) -0.48120(16)
H14 H -0.0736 -0.4245 -0.4868
H15 H -0.0286 -0.4606 -0.4543
H16 H -0.0385 -0.4470 -0.5061
C25 C -0.04452(15) -0.1910(6) -0.43512(13)
H17 H -0.0387 -0.0877 -0.4312
H18 H -0.0276 -0.2428 -0.4086
H19 H -0.0731 -0.2079 -0.4402
C26 C -0.30389(11) 0.9115(4) -0.26035(11)
C27 C -0.33748(10) 1.0070(4) -0.26816(11)
H20 H -0.3461 1.0453 -0.2460
C28 C -0.35623(10) 1.0363(4) -0.31439(11)
C29 C -0.33297(11) 0.9536(4) -0.33666(11)
C30 C -0.30140(11) 0.8790(4) -0.30169(11)
H21 H -0.2818 0.8172 -0.3060
C31 C -0.39253(11) 1.1206(4) -0.33410(12)
C32 C -0.41077(11) 1.2084(4) -0.30676(12)
C33 C -0.38714(11) 1.2910(4) -0.26983(12)
H22 H -0.3585 1.2915 -0.2609
C34 C -0.40625(12) 1.3723(4) -0.24646(13)
C35 C -0.44890(13) 1.3751(5) -0.25974(15)
H23 H -0.4615 1.4312 -0.2440
C36 C -0.47235(14) 1.2942(6) -0.29649(17)
H24 H -0.5010 1.2954 -0.3056
C37 C -0.45387(12) 1.2115(5) -0.31994(14)
H25 H -0.4701 1.1572 -0.3447
C38 C -0.38207(14) 1.4502(5) -0.20620(15)
C39 C -0.33980(12) 0.9426(4) -0.38253(12)
C40 C -0.31035(11) 0.8684(4) -0.39963(12)
C41 C -0.32676(12) 0.7901(4) -0.43977(12)
H26 H -0.3552 0.7846 -0.4545
C42 C -0.30084(13) 0.7206(5) -0.45770(13)
C43 C -0.25807(13) 0.7282(5) -0.43635(15)
H27 H -0.2407 0.6791 -0.4481
C44 C -0.24194(13) 0.8103(6) -0.39738(15)
H28 H -0.2135 0.8189 -0.3832
C45 C -0.26769(12) 0.8792(5) -0.37943(13)
H29 H -0.2563 0.9341 -0.3533
C46 C -0.31838(13) 0.6377(5) -0.49890(15)
C47 C -0.27612(12) 0.8574(4) -0.21428(12)
C48 C -0.26188(18) 0.9892(6) -0.18263(15)
H30 H -0.2445 0.9558 -0.1534
H31 H -0.2467 1.0558 -0.1942
H32 H -0.2855 1.0385 -0.1805
C49 C -0.30004(19) 0.7552(9) -0.1962(2)
H33 H -0.3091 0.6721 -0.2158
H34 H -0.2828 0.7223 -0.1668
H35 H -0.3236 0.8056 -0.1943
C50 C -0.23809(14) 0.7839(7) -0.21645(16)
H36 H -0.2460 0.7003 -0.2361
H37 H -0.2232 0.8521 -0.2278
H38 H -0.2208 0.7524 -0.1869
N1 N 0.07977(11) -0.1400(4) -0.61509(14)
N2 N -0.28706(10) 0.3417(4) -0.56768(12)
N3 N -0.36334(13) 1.5081(5) -0.17383(14)
N4 N -0.33240(13) 0.5749(4) -0.53162(14)
O1 O -0.15748(8) 0.1273(4) -0.62475(8)
H39 H -0.1518(16) 0.062(5) -0.6452(18)
O2 O -0.12784(8) -0.0354(3) -0.66793(8)
O3 O -0.41250(9) 1.1238(4) -0.37643(9)
O4 O -0.37210(9) 0.9938(3) -0.41358(8)
H40 H -0.3933(18) 1.042(6) -0.400(2)
Ag1A Ag 0.146210(9) -0.07459(4) -0.598460(12)
N1A N -0.42023(11) 0.3600(4) -0.61509(14)
N3B N -0.36334(13) 0.4919(5) -0.67383(14)
Ag1B Ag -0.353790(9) 1.57459(4) -0.098460(12)
Sb1 Sb 0.110090(9) 0.43227(3) -0.641950(9)
F1 F 0.14646(18) 0.3736(8) -0.58819(16)
F2 F 0.08469(13) 0.2509(4) -0.64995(15)
F3 F 0.07515(11) 0.4986(4) -0.61339(12)
F4 F 0.13458(19) 0.6107(5) -0.6335(2)
F5 F 0.14404(10) 0.3681(4) -0.67193(12)
F6 F 0.07269(17) 0.4904(8) -0.69537(15)
loop_
_geom_bond_atom_site_label_1
_geom_bond_atom_site_label_2
_geom_bond_site_symmetry_1
_geom_bond_site_symmetry_2
Ag1 N2 1_555 1_555
C1 C2 1_555 1_555
C2 H1 1_555 1_555
C3 C2 1_555 1_555
C4 C3 1_555 1_555
C5 C1 1_555 1_555
H2 C5 1_555 1_555
C6 C3 1_555 1_555
C7 C6 1_555 1_555
C8 C7 1_555 1_555
H3 C8 1_555 1_555
C9 C8 1_555 1_555
C10 C9 1_555 1_555
H4 C10 1_555 1_555
C11 C10 1_555 1_555
H5 C11 1_555 1_555
C12 C7 1_555 1_555
H6 C12 1_555 1_555
C13 C9 1_555 1_555
C14 C4 1_555 1_555
C15 C14 1_555 1_555
C16 C15 1_555 1_555
H7 C16 1_555 1_555
C17 C16 1_555 1_555
C18 C17 1_555 1_555
H8 C18 1_555 1_555
C19 C18 1_555 1_555
H9 C19 1_555 1_555
C20 C15 1_555 1_555
H10 C20 1_555 1_555
C21 C17 1_555 1_555
C22 C1 1_555 1_555
C23 C22 1_555 1_555
H11 C23 1_555 1_555
H12 C23 1_555 1_555
H13 C23 1_555 1_555
C24 C22 1_555 1_555
H14 C24 1_555 1_555
H15 C24 1_555 1_555
H16 C24 1_555 1_555
C25 C22 1_555 1_555
H17 C25 1_555 1_555
H18 C25 1_555 1_555
H19 C25 1_555 1_555
C26 C27 1_555 1_555
C27 H20 1_555 1_555
C28 C27 1_555 1_555
C29 C28 1_555 1_555
C30 C26 1_555 1_555
H21 C30 1_555 1_555
C31 C28 1_555 1_555
C32 C31 1_555 1_555
C33 C32 1_555 1_555
H22 C33 1_555 1_555
C34 C33 1_555 1_555
C35 C34 1_555 1_555
H23 C35 1_555 1_555
C36 C35 1_555 1_555
H24 C36 1_555 1_555
C37 C32 1_555 1_555
H25 C37 1_555 1_555
C38 C34 1_555 1_555
C39 C29 1_555 1_555
C40 C39 1_555 1_555
C41 C40 1_555 1_555
H26 C41 1_555 1_555
C42 C41 1_555 1_555
C43 C42 1_555 1_555
H27 C43 1_555 1_555
C44 C43 1_555 1_555
H28 C44 1_555 1_555
C45 C40 1_555 1_555
H29 C45 1_555 1_555
C46 C42 1_555 1_555
C47 C26 1_555 1_555
C48 C47 1_555 1_555
H30 C48 1_555 1_555
H31 C48 1_555 1_555
H32 C48 1_555 1_555
C49 C47 1_555 1_555
H33 C49 1_555 1_555
H34 C49 1_555 1_555
H35 C49 1_555 1_555
C50 C47 1_555 1_555
H36 C50 1_555 1_555
H37 C50 1_555 1_555
H38 C50 1_555 1_555
N1 C13 1_555 1_555
N2 C21 1_555 1_555
N3 C38 1_555 1_555
N4 Ag1 1_555 1_555
O1 C14 1_555 1_555
H39 O1 1_555 1_555
O2 C6 1_555 1_555
O3 C31 1_555 1_555
O4 C39 1_555 1_555
H40 O4 1_555 1_555
Sb1 F1 1_555 1_555
F2 Sb1 1_555 1_555
F3 Sb1 1_555 1_555
F4 Sb1 1_555 1_555
F5 Sb1 1_555 1_555
F6 Sb1 1_555 1_555
Ag1A N1 1_555 1_555
N1A Ag1 1_555 1_555
N3B Ag1 1_555 1_555
Ag1B N3 1_555 1_555
C4 C5 1_555 1_555
C11 C12 1_555 1_555
C19 C20 1_555 1_555
C29 C30 1_555 1_555
C36 C37 1_555 1_555
C44 C45 1_555 1_555
C46 N4 1_555 1_555

#END
