
#######################################################################
#
#                 Cambridge Crystallographic Data Centre
#                                CCDC 
#
#######################################################################
#
# If this CIF has been generated from an entry in the Cambridge 
# Structural Database, then it will include bibliographic, chemical, 
# crystal, experimental, refinement or atomic coordinate data resulting 
# from the CCDC's data processing and validation procedures.
#
#######################################################################

data_OBEMEO
_symmetry_cell_setting           monoclinic
_symmetry_space_group_name_H-M   'C 2/c'
_symmetry_Int_Tables_number      15
_space_group_name_Hall           '-C 2yn'
loop_
_symmetry_equiv_pos_site_id
_symmetry_equiv_pos_as_xyz
1 x,y,z
2 1/2+x,1/2+y,z
3 x,-y,1/2+z
4 1/2+x,1/2-y,1/2+z
5 -x,-y,-z
6 1/2-x,1/2-y,-z
7 -x,y,1/2-z
8 1/2-x,1/2+y,1/2-z
_cell_length_a                   10.944(5)
_cell_length_b                   26.094(12)
_cell_length_c                   12.596(6)
_cell_angle_alpha                90
_cell_angle_beta                 111.541(7)
_cell_angle_gamma                90
_cell_volume                     3345.84
loop_
_atom_site_label
_atom_site_type_symbol
_atom_site_fract_x
_atom_site_fract_y
_atom_site_fract_z
Au1 Au -0.39105(5) 0.128450(18) 0.38339(5)
Co1 Co 0.0000 0.13054(8) 0.2500
O1 O -0.0249(11) -0.1298(3) 0.0622(9)
O2 O -0.2222(10) 0.3886(4) 0.2080(11)
O3 O -0.1171(8) 0.1316(3) 0.0790(8)
H1 H -0.0797 0.1340 0.0309
H2 H -0.2000 0.1330 0.0455
N1 N -0.1635(11) 0.1305(4) 0.2932(10)
N2 N 0.6162(13) 0.1261(5) 0.0247(12)
N3 N 0.0000 0.0467(5) 0.2500
N4 N -0.0155(10) -0.1437(3) 0.1612(9)
N5 N 0.0000 0.2126(5) 0.2500
N6 N -0.1047(10) 0.4040(4) 0.2301(10)
C1 C -0.2479(12) 0.1293(5) 0.3263(12)
C2 C 0.5300(14) 0.1277(5) 0.0543(12)
C3 C 0.0305(19) 0.0208(5) 0.3432(14)
H3 H 0.0542 0.0389 0.4115
C4 C 0.0302(19) -0.0313(5) 0.3480(13)
H4 H 0.0504 -0.0480 0.4175
C5 C 0.0000 -0.0585(6) 0.2500
C6 C 0.0000 -0.1141(6) 0.2500
C7 C -0.0329(13) -0.1988(5) 0.1831(12)
C8 C 0.1825(15) -0.2074(6) 0.3598(15)
H5 H 0.2199 -0.1858 0.3180
H6 H 0.2002 -0.2426 0.3487
H7 H 0.2207 -0.1992 0.4396
C9 C -0.0323(18) -0.2329(6) 0.3778(15)
H8 H 0.0030 -0.2255 0.4581
H9 H -0.0158 -0.2682 0.3658
H10 H -0.1252 -0.2267 0.3482
C10 C -0.1000(13) 0.2395(5) 0.1840(13)
H11 H -0.1730 0.2217 0.1362
C11 C -0.1053(13) 0.2921(5) 0.1800(13)
H12 H -0.1794 0.3087 0.1304
C12 C 0.0000 0.3196(6) 0.2500
C13 C 0.0000 0.3741(6) 0.2500
C14 C -0.0746(14) 0.4599(4) 0.2373(13)
C15 C 0.1127(19) 0.4802(6) 0.1668(15)
H13 H 0.2050 0.4749 0.1850
H14 H 0.0935 0.5161 0.1570
H15 H 0.0639 0.4624 0.0974
C16 C 0.1616(16) 0.4837(6) 0.3732(14)
H16 H 0.1463 0.4675 0.4356
H17 H 0.1421 0.5196 0.3726
H18 H 0.2519 0.4793 0.3821
Au1F Au -0.60895(5) 0.128450(18) 0.11661(5)
O3F O 0.1171(8) 0.1316(3) 0.4210(8)
H1F H 0.0797 0.1340 0.4691
H2F H 0.2000 0.1330 0.4545
N1F N 0.1635(11) 0.1305(4) 0.2068(10)
C1F C 0.2479(12) 0.1293(5) 0.1737(12)
Au1F_2 Au 0.39105(5) 0.128450(18) 0.11661(5)
Au1_2 Au 0.60895(5) 0.128450(18) 0.38339(5)
C4F C -0.0302(19) -0.0313(5) 0.1520(13)
C3F C -0.0305(19) 0.0208(5) 0.1568(14)
H3F H -0.0542 0.0389 0.0885
H4F H -0.0504 -0.0480 0.0825
C7F C 0.0329(13) -0.1988(5) 0.3169(12)
N4F N 0.0155(10) -0.1437(3) 0.3388(9)
O1F O 0.0249(11) -0.1298(3) 0.4378(9)
C8F C -0.1825(15) -0.2074(6) 0.1402(15)
H5F H -0.2199 -0.1858 0.1820
H6F H -0.2002 -0.2426 0.1513
H7F H -0.2207 -0.1992 0.0604
C9F C 0.0323(18) -0.2329(6) 0.1222(15)
H8F H -0.0030 -0.2255 0.0419
H9F H 0.0158 -0.2682 0.1342
H10F H 0.1252 -0.2267 0.1518
C11F C 0.1053(13) 0.2921(5) 0.3200(13)
C10F C 0.1000(13) 0.2395(5) 0.3160(13)
H11F H 0.1730 0.2217 0.3638
H12F H 0.1794 0.3087 0.3696
C14F C 0.0746(14) 0.4599(4) 0.2627(13)
N6F N 0.1047(10) 0.4040(4) 0.2699(10)
O2F O 0.2222(10) 0.3886(4) 0.2920(11)
C15F C -0.1127(19) 0.4802(6) 0.3332(15)
H13F H -0.2050 0.4749 0.3150
H14F H -0.0935 0.5161 0.3430
H15F H -0.0639 0.4624 0.4026
C16F C -0.1616(16) 0.4837(6) 0.1268(14)
H16F H -0.1463 0.4675 0.0644
H17F H -0.1421 0.5196 0.1274
H18F H -0.2519 0.4793 0.1179
C2F C -0.5300(14) 0.1277(5) 0.4457(12)
N2F N -0.6162(13) 0.1261(5) 0.4753(12)
loop_
_geom_bond_atom_site_label_1
_geom_bond_atom_site_label_2
_geom_bond_site_symmetry_1
_geom_bond_site_symmetry_2
Au1 C1 1_555 1_555
Co1 O3 1_555 1_555
O1 N4 1_555 1_555
O2 N6 1_555 1_555
O3 H1 1_555 1_555
H2 O3 1_555 1_555
N1 Co1 1_555 1_555
N2 C2 1_555 1_555
N3 Co1 1_555 1_555
N4 C6 1_555 1_555
N5 Co1 1_555 1_555
N6 C13 1_555 1_555
C1 N1 1_555 1_555
C2 Au1F_2 1_555 1_555
C3 N3 1_555 1_555
H3 C3 1_555 1_555
C4 C3 1_555 1_555
H4 C4 1_555 1_555
C5 C4 1_555 1_555
C6 C5 1_555 1_555
C7 N4 1_555 1_555
C8 H5 1_555 1_555
H6 C8 1_555 1_555
H7 C8 1_555 1_555
C9 H8 1_555 1_555
H9 C9 1_555 1_555
H10 C9 1_555 1_555
C10 N5 1_555 1_555
H11 C10 1_555 1_555
C11 C10 1_555 1_555
H12 C11 1_555 1_555
C12 C11 1_555 1_555
C13 C12 1_555 1_555
C14 N6 1_555 1_555
C15 H13 1_555 1_555
H14 C15 1_555 1_555
H15 C15 1_555 1_555
C16 H16 1_555 1_555
H17 C16 1_555 1_555
H18 C16 1_555 1_555
Au1F Au1 1_555 1_555
O3F Co1 1_555 1_555
H1F O3F 1_555 1_555
H2F O3F 1_555 1_555
N1F Co1 1_555 1_555
C1F N1F 1_555 1_555
Au1F_2 C1F 1_555 1_555
Au1_2 Au1F_2 1_555 1_555
C4F C5 1_555 1_555
C3F N3 1_555 1_555
H3F C3F 1_555 1_555
H4F C4F 1_555 1_555
C7F C7 1_555 1_555
N4F C6 1_555 1_555
O1F N4F 1_555 1_555
C8F C7 1_555 1_555
H5F C8F 1_555 1_555
H6F C8F 1_555 1_555
H7F C8F 1_555 1_555
C9F C7 1_555 1_555
H8F C9F 1_555 1_555
H9F C9F 1_555 1_555
H10F C9F 1_555 1_555
C11F C12 1_555 1_555
C10F N5 1_555 1_555
H11F C10F 1_555 1_555
H12F C11F 1_555 1_555
C14F C14 1_555 1_555
N6F C13 1_555 1_555
O2F N6F 1_555 1_555
C15F C14 1_555 1_555
H13F C15F 1_555 1_555
H14F C15F 1_555 1_555
H15F C15F 1_555 1_555
C16F C14 1_555 1_555
H16F C16F 1_555 1_555
H17F C16F 1_555 1_555
H18F C16F 1_555 1_555
C2F Au1 1_555 1_555
N2F C2F 1_555 1_555
C8 C7F 1_555 1_555
C9 C7F 1_555 1_555
C15 C14F 1_555 1_555
C16 C14F 1_555 1_555
C4F C3F 1_555 1_555
C7F N4F 1_555 1_555
C11F C10F 1_555 1_555
C14F N6F 1_555 1_555

#END
