
#######################################################################
#
#                 Cambridge Crystallographic Data Centre
#                                CCDC 
#
#######################################################################
#
# If this CIF has been generated from an entry in the Cambridge 
# Structural Database, then it will include bibliographic, chemical, 
# crystal, experimental, refinement or atomic coordinate data resulting 
# from the CCDC's data processing and validation procedures.
#
#######################################################################

data_OBEMAJ
_symmetry_cell_setting           monoclinic
_symmetry_space_group_name_H-M   'C 2/c'
_symmetry_Int_Tables_number      15
_space_group_name_Hall           '-C 2yn'
loop_
_symmetry_equiv_pos_site_id
_symmetry_equiv_pos_as_xyz
1 x,y,z
2 -x,y,1/2-z
3 1/2+x,1/2+y,z
4 1/2-x,1/2+y,1/2-z
5 -x,-y,-z
6 x,-y,1/2+z
7 1/2-x,1/2-y,-z
8 1/2+x,1/2-y,1/2+z
_cell_length_a                   22.205(4)
_cell_length_b                   13.774(3)
_cell_length_c                   17.783(4)
_cell_angle_alpha                90
_cell_angle_beta                 114.55(3)
_cell_angle_gamma                90
_cell_volume                     4947.27
loop_
_atom_site_label
_atom_site_type_symbol
_atom_site_fract_x
_atom_site_fract_y
_atom_site_fract_z
Nd1 Nd 0.25634(2) 0.18589(3) 0.27559(2)
Nd2 Nd 0.0000 -0.01799(4) 0.2500
O1 O 0.2483(2) 0.3082(4) 0.3684(3)
O2 O 0.2726(3) 0.3756(4) 0.4903(3)
O3 O 0.3359(2) 0.0525(4) 0.3140(3)
O4 O 0.4104(4) -0.0412(6) 0.4048(4)
O5 O 0.0821(2) 0.1112(4) 0.2702(3)
O6 O 0.1371(2) 0.2133(4) 0.2252(3)
O7 O -0.0888(2) -0.0629(4) 0.1119(3)
O8 O -0.1417(2) -0.0523(4) -0.0251(3)
O9 O 0.0888(2) -0.0990(4) 0.2221(3)
O10 O -0.1432(2) -0.2311(4) 0.2860(3)
O11 O 0.2160(2) 0.0745(4) 0.3584(3)
O12 O 0.1940(3) 0.0310(4) 0.1948(3)
O13 O 0.2581(4) 0.1703(4) 0.1372(4)
O14 O 0.2250(3) 0.3472(4) 0.1978(4)
N2 N 0.3383(3) 0.1752(4) 0.4262(4)
N3 N -0.0055(2) 0.0739(4) 0.1198(3)
N4 N 0.0000 -0.2013(6) 0.2500
C1 C 0.3353(3) 0.2416(5) 0.4818(4)
C2 C 0.3792(4) 0.2359(6) 0.5648(4)
C3 C 0.4259(4) 0.1659(6) 0.5894(5)
C4 C 0.4290(4) 0.0967(7) 0.5342(5)
C5 C 0.3824(3) 0.1045(6) 0.4519(5)
C6 C 0.2816(3) 0.3137(5) 0.4440(4)
C7 C 0.3765(4) 0.0327(6) 0.3852(5)
C8 C 0.0390(3) 0.1422(5) 0.1275(4)
C9 C 0.0387(4) 0.1956(5) 0.0614(4)
C10 C -0.0099(4) 0.1748(6) -0.0158(5)
C11 C -0.0555(3) 0.1040(5) -0.0250(4)
C12 C -0.0519(3) 0.0548(5) 0.0447(4)
C13 C 0.0900(3) 0.1578(5) 0.2151(4)
C14 C -0.0986(3) -0.0262(5) 0.0420(4)
C15 C 0.0474(3) -0.2520(5) 0.2385(4)
C16 C 0.0490(4) -0.3514(6) 0.2387(5)
C17 C 0.0000 -0.4049(8) 0.2500
C18 C 0.0983(3) -0.1886(6) 0.2254(4)
H1 H 0.1660 0.0913 0.3315
H2 H 0.2238 0.0982 0.4121
H3 H 0.1833 0.0347 0.1414
H4 H 0.1454 -0.0064 0.1814
H5 H 0.2411 0.1959 0.0916
H6 H 0.2473 0.1104 0.1259
H7 H 0.2310 0.4064 0.2116
H8 H 0.1860 0.3611 0.1619
H13 H 0.3764 0.2799 0.6029
H14 H 0.4565 0.1638 0.6443
H15 H 0.4606 0.0476 0.5511
H16 H 0.0701 0.2437 0.0688
H17 H -0.0116 0.2090 -0.0617
H18 H -0.0881 0.0890 -0.0769
H19 H 0.0830 -0.3834 0.2312
H20 H 0.0000 -0.4719 0.2500
O5A O -0.0821(2) 0.1112(4) 0.2298(3)
C13A C -0.0900(3) 0.1578(5) 0.2849(4)
O6A O -0.1371(2) 0.2133(4) 0.2748(3)
Nd1A Nd -0.25634(2) 0.18589(3) 0.22441(2)
O1A O -0.2483(2) 0.3082(4) 0.1316(3)
C6A C -0.2816(3) 0.3137(5) 0.0560(4)
O2A O -0.2726(3) 0.3756(4) 0.0097(3)
C1A C -0.3353(3) 0.2416(5) 0.0182(4)
N2A N -0.3383(3) 0.1752(4) 0.0738(4)
O3A O -0.3359(2) 0.0525(4) 0.1860(3)
C7A C -0.3765(4) 0.0327(6) 0.1148(5)
O4A O -0.4104(4) -0.0412(6) 0.0952(4)
C5A C -0.3824(3) 0.1045(6) 0.0481(5)
C4A C -0.4290(4) 0.0967(7) -0.0342(5)
C3A C -0.4259(4) 0.1659(6) -0.0894(5)
C2A C -0.3792(4) 0.2359(6) -0.0648(4)
H13A H -0.3764 0.2799 -0.1029
H14A H -0.4565 0.1638 -0.1443
H15A H -0.4606 0.0476 -0.0511
O10C O -0.3568(2) 0.2689(4) 0.2140(3)
O11A O -0.2160(2) 0.0745(4) 0.1416(3)
H1A H -0.1660 0.0913 0.1685
H2A H -0.2238 0.0982 0.0879
O12A O -0.1940(3) 0.0310(4) 0.3052(3)
H3A H -0.1833 0.0347 0.3586
H4A H -0.1454 -0.0064 0.3186
O13A O -0.2581(4) 0.1703(4) 0.3628(4)
H5A H -0.2411 0.1959 0.4084
H6A H -0.2473 0.1104 0.3741
O14A O -0.2250(3) 0.3472(4) 0.3022(4)
H7A H -0.2310 0.4064 0.2884
H8A H -0.1860 0.3611 0.3381
C8A C -0.0390(3) 0.1422(5) 0.3725(4)
O7A O 0.0888(2) -0.0629(4) 0.3881(3)
O9A O -0.0888(2) -0.0990(4) 0.2779(3)
N3A N 0.0055(2) 0.0739(4) 0.3802(3)
C15A C -0.0474(3) -0.2520(5) 0.2615(4)
C16A C -0.0490(4) -0.3514(6) 0.2613(5)
C12A C 0.0519(3) 0.0548(5) 0.4553(4)
C9A C -0.0387(4) 0.1956(5) 0.4386(4)
H19A H -0.0830 -0.3834 0.2688
C18A C -0.0983(3) -0.1886(6) 0.2746(4)
O10B O 0.3568(2) 0.2689(4) 0.2860(3)
C14A C 0.0986(3) -0.0262(5) 0.4580(4)
O10A O 0.1432(2) -0.2311(4) 0.2140(3)
C11A C 0.0555(3) 0.1040(5) 0.5250(4)
C10A C 0.0099(4) 0.1748(6) 0.5158(5)
H16A H -0.0701 0.2437 0.4312
Nd1B Nd -0.24366(2) -0.31411(3) 0.27559(2)
O8A O 0.1417(2) -0.0523(4) 0.5251(3)
Nd1C Nd 0.24366(2) -0.31411(3) 0.22441(2)
H18A H 0.0881 0.0890 0.5769
H17A H 0.0116 0.2090 0.5617
O15 O 0.0925(5) 0.4024(6) 0.2514(5)
H9 H 0.1023 0.3183 0.2531
H10 H 0.1102 0.4272 0.2115
O16 O 0.3236(4) 0.0066(6) 0.1116(7)
H11 H 0.2994 0.0639 0.0908
H12 H 0.2918 -0.0414 0.1109
O17 O 0.1915(8) -0.1909(12) 0.4270(8)
N1 N 0.3684(13) 0.1350(11) 0.0198(16)
loop_
_geom_bond_atom_site_label_1
_geom_bond_atom_site_label_2
_geom_bond_site_symmetry_1
_geom_bond_site_symmetry_2
Nd1 O1 1_555 1_555
Nd2 O5 1_555 1_555
O1 C6 1_555 1_555
O2 C6 1_555 1_555
O3 Nd1 1_555 1_555
O4 C7 1_555 1_555
O5 C13 1_555 1_555
O6 Nd1 1_555 1_555
O7 Nd2 1_555 1_555
O8 C14 1_555 1_555
O9 Nd2 1_555 1_555
O10 C18A 1_555 1_555
O11 Nd1 1_555 1_555
O12 Nd1 1_555 1_555
O13 Nd1 1_555 1_555
O14 Nd1 1_555 1_555
O15 H9 1_555 1_555
O16 H11 1_555 1_555
N2 Nd1 1_555 1_555
N3 Nd2 1_555 1_555
N4 Nd2 1_555 1_555
C1 N2 1_555 1_555
C2 C1 1_555 1_555
C3 C2 1_555 1_555
C4 C3 1_555 1_555
C5 N2 1_555 1_555
C6 C1 1_555 1_555
C7 O3 1_555 1_555
C8 N3 1_555 1_555
C9 C8 1_555 1_555
C10 C9 1_555 1_555
C11 C10 1_555 1_555
C12 N3 1_555 1_555
C13 O6 1_555 1_555
C14 O7 1_555 1_555
C15 N4 1_555 1_555
C16 C15 1_555 1_555
C17 C16 1_555 1_555
C18 O9 1_555 1_555
H1 O11 1_555 1_555
H2 O11 1_555 1_555
H3 O12 1_555 1_555
H4 O12 1_555 1_555
H5 O13 1_555 1_555
H6 O13 1_555 1_555
H7 O14 1_555 1_555
H8 O14 1_555 1_555
H10 O15 1_555 1_555
H12 O16 1_555 1_555
H13 C2 1_555 1_555
H14 C3 1_555 1_555
H15 C4 1_555 1_555
H16 C9 1_555 1_555
H17 C10 1_555 1_555
H18 C11 1_555 1_555
H19 C16 1_555 1_555
H20 C17 1_555 1_555
O5A Nd2 1_555 1_555
C13A O5A 1_555 1_555
O6A C13A 1_555 1_555
Nd1A O6A 1_555 1_555
O1A Nd1A 1_555 1_555
C6A O1A 1_555 1_555
O2A C6A 1_555 1_555
C1A C6A 1_555 1_555
N2A Nd1A 1_555 1_555
O3A Nd1A 1_555 1_555
C7A O3A 1_555 1_555
O4A C7A 1_555 1_555
C5A N2A 1_555 1_555
C4A C5A 1_555 1_555
C3A C4A 1_555 1_555
C2A C1A 1_555 1_555
H13A C2A 1_555 1_555
H14A C3A 1_555 1_555
H15A C4A 1_555 1_555
O10C Nd1A 1_555 1_555
O11A Nd1A 1_555 1_555
H1A O11A 1_555 1_555
H2A O11A 1_555 1_555
O12A Nd1A 1_555 1_555
H3A O12A 1_555 1_555
H4A O12A 1_555 1_555
O13A Nd1A 1_555 1_555
H5A O13A 1_555 1_555
H6A O13A 1_555 1_555
O14A Nd1A 1_555 1_555
H7A O14A 1_555 1_555
H8A O14A 1_555 1_555
C8A C13A 1_555 1_555
O7A Nd2 1_555 1_555
O9A Nd2 1_555 1_555
N3A Nd2 1_555 1_555
C15A N4 1_555 1_555
C16A C17 1_555 1_555
C12A N3A 1_555 1_555
C9A C8A 1_555 1_555
H19A C16A 1_555 1_555
C18A O9A 1_555 1_555
O10B Nd1 1_555 1_555
C14A O7A 1_555 1_555
O10A C18 1_555 1_555
C11A C12A 1_555 1_555
C10A C9A 1_555 1_555
H16A C9A 1_555 1_555
Nd1B O10 1_555 1_555
O8A C14A 1_555 1_555
Nd1C O10A 1_555 1_555
H18A C11A 1_555 1_555
H17A C10A 1_555 1_555
C4 C5 1_555 1_555
C5 C7 1_555 1_555
C8 C13 1_555 1_555
C11 C12 1_555 1_555
C12 C14 1_555 1_555
C15 C18 1_555 1_555
C1A N2A 1_555 1_555
C7A C5A 1_555 1_555
C3A C2A 1_555 1_555
C8A N3A 1_555 1_555
C15A C18A 1_555 1_555
C15A C16A 1_555 1_555
C12A C14A 1_555 1_555
C11A C10A 1_555 1_555

#END
