
#######################################################################
#
#                 Cambridge Crystallographic Data Centre
#                                CCDC 
#
#######################################################################
#
# If this CIF has been generated from an entry in the Cambridge 
# Structural Database, then it will include bibliographic, chemical, 
# crystal, experimental, refinement or atomic coordinate data resulting 
# from the CCDC's data processing and validation procedures.
#
#######################################################################

data_OBENOZ
_symmetry_cell_setting           triclinic
_symmetry_space_group_name_H-M   'P -1'
_symmetry_Int_Tables_number      2
_space_group_name_Hall           '-P 1'
loop_
_symmetry_equiv_pos_site_id
_symmetry_equiv_pos_as_xyz
1 x,y,z
2 -x,-y,-z
_cell_length_a                   7.451(2)
_cell_length_b                   9.234(3)
_cell_length_c                   11.585(3)
_cell_angle_alpha                73.989(6)
_cell_angle_beta                 71.656(6)
_cell_angle_gamma                79.707(6)
_cell_volume                     723.528
loop_
_atom_site_label
_atom_site_type_symbol
_atom_site_fract_x
_atom_site_fract_y
_atom_site_fract_z
Eu1 Eu -0.39503(8) -0.44534(6) -0.27795(5)
N1 N -0.1756(14) -0.1006(11) 0.2302(9)
O1 O -0.3152(10) -0.2870(7) -0.1791(7)
O2 O -0.0449(11) -0.3860(8) -0.1321(7)
O3 O -0.3836(12) 0.2799(7) -0.2364(7)
O4 O -0.3341(11) 0.3683(8) -0.0943(7)
O5 O -0.1966(15) 0.0092(10) 0.2747(8)
O6 O -0.1257(17) -0.2272(10) 0.2785(9)
C1 C -0.2109(15) -0.1674(12) -0.0650(10)
C2 C -0.2689(15) -0.0203(11) -0.1212(10)
H1 H -0.2942 -0.0021 -0.1979
C3 C -0.2902(15) 0.0994(10) -0.0671(10)
C4 C -0.2623(15) 0.0730(11) 0.0490(9)
H2 H -0.2791 0.1516 0.0885
C5 C -0.2085(15) -0.0742(11) 0.1053(10)
C6 C -0.1780(15) -0.1917(11) 0.0522(9)
H3 H -0.1357 -0.2876 0.0922
C7 C -0.1889(15) -0.2908(11) -0.1290(9)
C8 C -0.3382(15) 0.2573(11) -0.1370(10)
O7 O -0.2780(10) 0.5131(8) -0.4860(6)
O8 O -0.3547(10) 0.4672(9) -0.6424(7)
C9 C -0.3956(14) 0.4938(12) -0.5372(10)
O9 O -0.0628(10) -0.4609(9) -0.3382(7)
H4 H -0.0116 -0.4406 -0.2900
H5 H 0.0135 -0.5090 -0.3895
O10 O -0.6828(10) -0.4213(8) -0.1218(6)
H6 H -0.7940 -0.4027 -0.1322
H7 H -0.6845 -0.4331 -0.0458
O11 O -0.4377(12) -0.1963(8) -0.4013(7)
H8 H -0.4610 -0.1642 -0.4755
H9 H -0.4547 -0.1266 -0.3621
O3_2 O -0.3836(12) -0.7201(7) -0.2364(7)
Eu1_2 Eu -0.39503(8) 0.55466(6) -0.27795(5)
O1_2 O -0.3152(10) 0.7130(7) -0.1791(7)
O4_2 O -0.3341(11) -0.6317(8) -0.0943(7)
O7_2 O -0.2780(10) -0.4869(8) -0.4860(6)
O8A O -0.6453(10) -0.4672(9) -0.3576(7)
Eu1A Eu -0.60497(8) 0.44534(6) -0.72205(5)
O7A O -0.7220(10) 0.4869(8) -0.5140(6)
C9A C -0.6044(14) 0.5062(12) -0.4628(10)
O8A_2 O -0.6453(10) 0.5328(9) -0.3576(7)
O9_2 O -0.0628(10) 0.5391(9) -0.3382(7)
H4_2 H -0.0116 0.5594 -0.2900
H5_2 H 0.0135 0.4910 -0.3895
O10_2 O -0.6828(10) 0.5787(8) -0.1218(6)
H6_2 H -0.7940 0.5973 -0.1322
H7_2 H -0.6845 0.5669 -0.0458
O11_2 O -0.4377(12) 0.8037(8) -0.4013(7)
H8_2 H -0.4610 0.8358 -0.4755
H9_2 H -0.4547 0.8734 -0.3621
C7_2 C -0.1889(15) 0.7092(11) -0.1290(9)
O2_2 O -0.0449(11) 0.6140(8) -0.1321(7)
C1_2 C -0.2109(15) 0.8326(12) -0.0650(10)
C2_2 C -0.2689(15) 0.9797(11) -0.1212(10)
C6_2 C -0.1780(15) 0.8083(11) 0.0522(9)
H1_2 H -0.2942 0.9979 -0.1979
C3_2 C -0.2902(15) 1.0994(10) -0.0671(10)
C5_2 C -0.2085(15) 0.9258(11) 0.1053(10)
H3_2 H -0.1357 0.7124 0.0922
C4_2 C -0.2623(15) 1.0730(11) 0.0490(9)
C8_2 C -0.3382(15) 1.2573(11) -0.1370(10)
N1_2 N -0.1756(14) 0.8994(11) 0.2302(9)
H2_2 H -0.2791 1.1516 0.0885
O3_3 O -0.3836(12) 1.2799(7) -0.2364(7)
O4_3 O -0.3341(11) 1.3683(8) -0.0943(7)
O5_2 O -0.1966(15) 1.0092(10) 0.2747(8)
O6_2 O -0.1257(17) 0.7728(10) 0.2785(9)
Eu1_3 Eu -0.39503(8) 1.55466(6) -0.27795(5)
O12 O -0.3802(14) -0.8825(9) -0.4140(9)
H10 H -0.3901 -0.8493 -0.3513
H11 H -0.2674 -0.9110 -0.4503
O13 O -1.005(3) -0.851(2) -0.503(2)
H12 H -0.8887 -0.8368 -0.5291
H13 H -1.0350 -0.9256 -0.4420
loop_
_geom_bond_atom_site_label_1
_geom_bond_atom_site_label_2
_geom_bond_site_symmetry_1
_geom_bond_site_symmetry_2
Eu1 O1 1_555 1_555
N1 O5 1_555 1_555
O1 C7 1_555 1_555
O2 C7 1_555 1_555
O3 C8 1_555 1_555
O4 C8 1_555 1_555
O6 N1 1_555 1_555
C1 C2 1_555 1_555
C2 H1 1_555 1_555
C3 C2 1_555 1_555
C4 C3 1_555 1_555
H2 C4 1_555 1_555
C5 N1 1_555 1_555
C6 C1 1_555 1_555
H3 C6 1_555 1_555
C7 C1 1_555 1_555
C8 C3 1_555 1_555
O7 C9 1_555 1_555
O8 C9 1_555 1_555
C9 C9A 1_555 1_555
O9 Eu1 1_555 1_555
H4 O9 1_555 1_555
H5 O9 1_555 1_555
O10 Eu1 1_555 1_555
H6 O10 1_555 1_555
H7 O10 1_555 1_555
O11 Eu1 1_555 1_555
H8 O11 1_555 1_555
H9 O11 1_555 1_555
O12 H10 1_555 1_555
H11 O12 1_555 1_555
O13 H12 1_555 1_555
H13 O13 1_555 1_555
O3_2 Eu1 1_555 1_555
Eu1_2 O3 1_555 1_555
O1_2 Eu1_2 1_555 1_555
O4_2 Eu1 1_555 1_555
O7_2 Eu1 1_555 1_555
O8A Eu1 1_555 1_555
Eu1A O8 1_555 1_555
O7A Eu1A 1_555 1_555
C9A O7A 1_555 1_555
O8A_2 Eu1_2 1_555 1_555
O9_2 Eu1_2 1_555 1_555
H4_2 O9_2 1_555 1_555
H5_2 O9_2 1_555 1_555
O10_2 Eu1_2 1_555 1_555
H6_2 O10_2 1_555 1_555
H7_2 O10_2 1_555 1_555
O11_2 Eu1_2 1_555 1_555
H8_2 O11_2 1_555 1_555
H9_2 O11_2 1_555 1_555
C7_2 O1_2 1_555 1_555
O2_2 C7_2 1_555 1_555
C1_2 C7_2 1_555 1_555
C2_2 C1_2 1_555 1_555
C6_2 C1_2 1_555 1_555
H1_2 C2_2 1_555 1_555
C3_2 C2_2 1_555 1_555
C5_2 C6_2 1_555 1_555
H3_2 C6_2 1_555 1_555
C4_2 C3_2 1_555 1_555
C8_2 C3_2 1_555 1_555
N1_2 C5_2 1_555 1_555
H2_2 C4_2 1_555 1_555
O3_3 C8_2 1_555 1_555
O4_3 C8_2 1_555 1_555
O5_2 N1_2 1_555 1_555
O6_2 N1_2 1_555 1_555
Eu1_3 O3_3 1_555 1_555
O4 Eu1_2 1_555 1_555
C4 C5 1_555 1_555
C5 C6 1_555 1_555
O7 Eu1_2 1_555 1_555
C9A O8A_2 1_555 1_555
C5_2 C4_2 1_555 1_555
O4_3 Eu1_3 1_555 1_555

#END
