
#######################################################################
#
#                 Cambridge Crystallographic Data Centre
#                                CCDC 
#
#######################################################################
#
# If this CIF has been generated from an entry in the Cambridge 
# Structural Database, then it will include bibliographic, chemical, 
# crystal, experimental, refinement or atomic coordinate data resulting 
# from the CCDC's data processing and validation procedures.
#
#######################################################################

data_OBENOZ01
_symmetry_cell_setting           triclinic
_symmetry_space_group_name_H-M   'P -1'
_symmetry_Int_Tables_number      2
_space_group_name_Hall           '-P 1'
loop_
_symmetry_equiv_pos_site_id
_symmetry_equiv_pos_as_xyz
1 x,y,z
2 -x,-y,-z
_cell_length_a                   7.503(3)
_cell_length_b                   9.289(4)
_cell_length_c                   11.671(5)
_cell_angle_alpha                73.927(4)
_cell_angle_beta                 71.759(4)
_cell_angle_gamma                79.631(4)
_cell_volume                     738.449
loop_
_atom_site_label
_atom_site_type_symbol
_atom_site_fract_x
_atom_site_fract_y
_atom_site_fract_z
Eu1 Eu 0.60485(2) 0.054977(16) 0.222248(13)
N1 N 0.8232(5) 0.4002(4) 0.7295(3)
O1 O 0.6159(4) 0.7777(3) 0.2651(2)
O2 O 0.6664(4) 0.8675(3) 0.4057(2)
O3 O 0.3553(3) 0.0335(3) 0.1417(2)
O4 O 0.2792(3) -0.0127(3) -0.0144(2)
O5 O 0.9392(3) 0.0390(3) 0.1617(3)
H1 H 0.9826 0.0933 0.1925
H2 H 0.9876 0.0549 0.0836
O6 O 0.5632(4) 0.3059(3) 0.0980(3)
H3 H 0.5565 0.3740 0.1355
H4 H 0.4707 0.3199 0.0675
O7 O 0.3142(3) 0.0821(3) 0.3782(2)
H5 H 0.3347 0.0998 0.4404
H6 H 0.2607 0.0014 0.4022
O8 O 0.6833(3) 0.2121(3) 0.3223(2)
O9 O 0.9540(3) 0.1145(3) 0.3676(2)
O10 O 0.8752(6) 0.2733(4) 0.7786(3)
O11 O 0.8039(5) 0.5077(4) 0.7750(3)
C1 C 0.6601(5) 0.7568(4) 0.3644(3)
C2 C 0.7097(4) 0.5997(4) 0.4326(3)
C3 C 0.7374(5) 0.5725(4) 0.5498(3)
H7 H 0.7191 0.6506 0.5891
C4 C 0.3946(4) 0.0066(4) 0.0372(3)
C5 C 0.8128(5) 0.2089(4) 0.3714(3)
C6 C 0.7890(4) 0.3335(4) 0.4363(3)
C7 C 0.7312(5) 0.4794(4) 0.3785(3)
H8 H 0.7065 0.4966 0.3022
C8 C 0.8233(5) 0.3064(4) 0.5515(3)
H9 H 0.8654 0.2105 0.5906
C9 C 0.7923(5) 0.4278(4) 0.6060(3)
O3A O 0.6447(3) -0.0335(3) -0.1417(2)
C4A C 0.6054(4) -0.0066(4) -0.0372(3)
O4A O 0.7208(3) 0.0127(3) 0.0144(2)
Eu1A Eu 0.39515(2) -0.054977(16) -0.222248(13)
N1A N 0.1768(5) -0.4002(4) -0.7295(3)
O1A O 0.3841(4) -0.7777(3) -0.2651(2)
O2A O 0.3336(4) -0.8675(3) -0.4057(2)
O5A O 0.0608(3) -0.0390(3) -0.1617(3)
H1A H 0.0174 -0.0933 -0.1925
H2A H 0.0124 -0.0549 -0.0836
O6A O 0.4368(4) -0.3059(3) -0.0980(3)
H3A H 0.4435 -0.3740 -0.1355
H4A H 0.5293 -0.3199 -0.0675
O7A O 0.6858(3) -0.0821(3) -0.3782(2)
H5A H 0.6653 -0.0998 -0.4404
H6A H 0.7393 -0.0014 -0.4022
O8A O 0.3167(3) -0.2121(3) -0.3223(2)
O9A O 0.0460(3) -0.1145(3) -0.3676(2)
O10A O 0.1248(6) -0.2733(4) -0.7786(3)
O11A O 0.1961(5) -0.5077(4) -0.7750(3)
C1A C 0.3399(5) -0.7568(4) -0.3644(3)
C2A C 0.2903(4) -0.5997(4) -0.4326(3)
C3A C 0.2626(5) -0.5725(4) -0.5498(3)
H7A H 0.2809 -0.6506 -0.5891
C5A C 0.1872(5) -0.2089(4) -0.3714(3)
C6A C 0.2110(4) -0.3335(4) -0.4363(3)
C7A C 0.2688(5) -0.4794(4) -0.3785(3)
H8A H 0.2935 -0.4966 -0.3022
C8A C 0.1767(5) -0.3064(4) -0.5515(3)
H9A H 0.1346 -0.2105 -0.5906
C9A C 0.2077(5) -0.4278(4) -0.6060(3)
Eu1_2 Eu 0.60485(2) 1.054977(16) 0.222248(13)
Eu1A_2 Eu 0.39515(2) -1.054977(16) -0.222248(13)
O1_2 O 0.6159(4) -0.2223(3) 0.2651(2)
O1A_2 O 0.3841(4) 0.2223(3) -0.2651(2)
O2_2 O 0.6664(4) -0.1325(3) 0.4057(2)
O2A_2 O 0.3336(4) 0.1325(3) -0.4057(2)
O12 O 0.3788(5) 0.3849(4) 0.9133(3)
H10 H 0.4156 0.3412 0.8536
H11 H 0.2615 0.3756 0.9435
O13 O 0.0071(11) 0.3614(10) 0.9963(8)
H12 H -0.0424 0.3489 0.9439
H13 H -0.0280 0.3007 1.0666
loop_
_geom_bond_atom_site_label_1
_geom_bond_atom_site_label_2
_geom_bond_site_symmetry_1
_geom_bond_site_symmetry_2
Eu1 O3 1_555 1_555
N1 O10 1_555 1_555
O1 C1 1_555 1_555
O2 C1 1_555 1_555
O3 C4 1_555 1_555
O4 C4 1_555 1_555
O5 Eu1 1_555 1_555
H1 O5 1_555 1_555
H2 O5 1_555 1_555
O6 Eu1 1_555 1_555
H3 O6 1_555 1_555
H4 O6 1_555 1_555
O7 Eu1 1_555 1_555
H5 O7 1_555 1_555
H6 O7 1_555 1_555
O8 Eu1 1_555 1_555
O9 C5 1_555 1_555
O11 N1 1_555 1_555
C1 C2 1_555 1_555
C2 C3 1_555 1_555
C3 H7 1_555 1_555
C4 C4A 1_555 1_555
C5 O8 1_555 1_555
C6 C5 1_555 1_555
C7 C2 1_555 1_555
H8 C7 1_555 1_555
C8 C6 1_555 1_555
H9 C8 1_555 1_555
C9 N1 1_555 1_555
O12 H10 1_555 1_555
H11 O12 1_555 1_555
O13 H12 1_555 1_555
H13 O13 1_555 1_555
O3A C4A 1_555 1_555
C4A O4A 1_555 1_555
O4A Eu1 1_555 1_555
Eu1A O4 1_555 1_555
N1A O10A 1_555 1_555
O1A C1A 1_555 1_555
O2A C1A 1_555 1_555
O5A Eu1A 1_555 1_555
H1A O5A 1_555 1_555
H2A O5A 1_555 1_555
O6A Eu1A 1_555 1_555
H3A O6A 1_555 1_555
H4A O6A 1_555 1_555
O7A Eu1A 1_555 1_555
H5A O7A 1_555 1_555
H6A O7A 1_555 1_555
O8A Eu1A 1_555 1_555
O9A C5A 1_555 1_555
O11A N1A 1_555 1_555
C1A C2A 1_555 1_555
C2A C3A 1_555 1_555
C3A H7A 1_555 1_555
C5A O8A 1_555 1_555
C6A C5A 1_555 1_555
C7A C2A 1_555 1_555
H8A C7A 1_555 1_555
C8A C6A 1_555 1_555
H9A C8A 1_555 1_555
C9A N1A 1_555 1_555
Eu1_2 O1 1_555 1_555
Eu1A_2 O1A 1_555 1_555
O1_2 Eu1 1_555 1_555
O1A_2 Eu1A 1_555 1_555
O2_2 Eu1 1_555 1_555
O2A_2 Eu1A 1_555 1_555
O2 Eu1_2 1_555 1_555
C3 C9 1_555 1_555
C6 C7 1_555 1_555
C8 C9 1_555 1_555
O3A Eu1A 1_555 1_555
O2A Eu1A_2 1_555 1_555
C3A C9A 1_555 1_555
C6A C7A 1_555 1_555
C8A C9A 1_555 1_555

#END
