
#######################################################################
#
#                 Cambridge Crystallographic Data Centre
#                                CCDC 
#
#######################################################################
#
# If this CIF has been generated from an entry in the Cambridge 
# Structural Database, then it will include bibliographic, chemical, 
# crystal, experimental, refinement or atomic coordinate data resulting 
# from the CCDC's data processing and validation procedures.
#
#######################################################################

data_OBENUF
_symmetry_cell_setting           monoclinic
_symmetry_space_group_name_H-M   'P 21/c'
_symmetry_Int_Tables_number      14
_space_group_name_Hall           '-P 2ybc'
loop_
_symmetry_equiv_pos_site_id
_symmetry_equiv_pos_as_xyz
1 x,y,z
2 x,1/2-y,1/2+z
3 -x,-y,-z
4 -x,1/2+y,1/2-z
_cell_length_a                   13.483(5)
_cell_length_b                   12.814(4)
_cell_length_c                   7.076(2)
_cell_angle_alpha                90
_cell_angle_beta                 104.188(5)
_cell_angle_gamma                90
_cell_volume                     1185.24
loop_
_atom_site_label
_atom_site_type_symbol
_atom_site_fract_x
_atom_site_fract_y
_atom_site_fract_z
Gd1 Gd 0.29878(2) 0.42960(2) -0.38396(5)
O1 O 0.1966(4) 0.3309(4) -0.2354(8)
O2 O 0.2155(4) 0.3345(4) -0.6528(8)
O3 O -0.2837(4) 0.3761(4) -0.5626(8)
O4 O -0.1461(4) 0.4729(4) -0.5161(8)
O5 O 0.3347(4) 0.4916(5) -0.0481(8)
O6 O 0.4025(4) 0.2750(4) -0.3002(9)
O7 O 0.4741(3) 0.4963(4) -0.2711(7)
O8 O 0.3879(4) 0.4454(4) -0.6403(7)
C1 C 0.1605(6) 0.2408(6) -0.2305(11)
C2 C 0.0503(5) 0.2235(5) -0.3205(10)
C3 C 0.0096(6) 0.1218(5) -0.3388(11)
H1 H 0.0523 0.0651 -0.2961
C4 C -0.0935(6) 0.1056(5) -0.4198(11)
H2 H -0.1196 0.0381 -0.4347
C5 C -0.1579(5) 0.1898(5) -0.4786(10)
H3 H -0.2273 0.1788 -0.5323
C6 C -0.1187(5) 0.2916(5) -0.4575(10)
C7 C -0.0145(5) 0.3068(5) -0.3824(10)
H4 H 0.0120 0.3741 -0.3736
C8 C -0.1857(5) 0.3840(6) -0.5154(10)
C9 C 0.5240(5) 0.5147(5) -0.3932(10)
O2A O 0.2155(4) 0.1655(4) -0.1528(8)
Gd1A Gd 0.29878(2) 0.07040(2) 0.11604(5)
O1A O 0.1966(4) 0.1691(4) 0.2646(8)
Gd1B Gd 0.70122(2) 0.57040(2) -0.61604(5)
O7B O 0.5259(3) 0.5037(4) -0.7289(7)
C9B C 0.4760(5) 0.4853(5) -0.6068(10)
O8B O 0.6121(4) 0.5546(4) -0.3597(7)
O3C O 0.2837(4) -0.1239(4) 0.0626(8)
O4C O 0.1461(4) -0.0271(4) 0.0161(8)
O5A O 0.3347(4) 0.0084(5) 0.4519(8)
O6A O 0.4025(4) 0.2250(4) 0.1998(9)
O7A O 0.4741(3) 0.0037(4) 0.2289(7)
O8A O 0.3879(4) 0.0546(4) -0.1403(7)
C1A C 0.1605(6) 0.2592(6) -0.7305(11)
O1A_2 O 0.1966(4) 0.1691(4) -0.7354(8)
C2A C 0.0503(5) 0.2765(5) -0.8205(10)
O3B O 0.2837(4) 0.6239(4) -0.4374(8)
O4B O 0.1461(4) 0.5271(4) -0.4839(8)
Gd1A_2 Gd 0.29878(2) 0.07040(2) -0.88396(5)
C3A C 0.0096(6) 0.3782(5) -0.8388(11)
C7A C -0.0145(5) 0.1932(5) -0.8824(10)
Gd1B_2 Gd -0.29878(2) 0.57040(2) -0.61604(5)
H1A H 0.0523 0.4349 -0.7961
C4A C -0.0935(6) 0.3944(5) -0.9198(11)
C6A C -0.1187(5) 0.2084(5) -0.9575(10)
H4A H 0.0120 0.1259 -0.8736
H2A H -0.1196 0.4619 -0.9347
C5A C -0.1579(5) 0.3102(5) -0.9786(10)
C8A C -0.1857(5) 0.1160(6) -1.0154(10)
H3A H -0.2273 0.3212 -1.0323
O3A O -0.2837(4) 0.1239(4) -1.0626(8)
O4A O -0.1461(4) 0.0271(4) -1.0161(8)
Gd1C Gd -0.29878(2) -0.07040(2) -1.11604(5)
O9 O 0.4050(5) 0.7439(7) -0.6505(13)
H5 H 0.357(5) 0.782(7) -0.732(13)
H6 H 0.368(6) 0.703(7) -0.590(13)
loop_
_geom_bond_atom_site_label_1
_geom_bond_atom_site_label_2
_geom_bond_site_symmetry_1
_geom_bond_site_symmetry_2
Gd1 O1 1_555 1_555
O1 C1 1_555 1_555
O2 Gd1 1_555 1_555
O3 C8 1_555 1_555
O4 C8 1_555 1_555
O5 Gd1 1_555 1_555
O6 Gd1 1_555 1_555
O7 Gd1 1_555 1_555
O8 Gd1 1_555 1_555
C1 C2 1_555 1_555
C2 C3 1_555 1_555
C3 H1 1_555 1_555
C4 C3 1_555 1_555
H2 C4 1_555 1_555
C5 C4 1_555 1_555
H3 C5 1_555 1_555
C6 C5 1_555 1_555
C7 C2 1_555 1_555
H4 C7 1_555 1_555
C8 C6 1_555 1_555
C9 O7 1_555 1_555
O9 H5 1_555 1_555
H6 O9 1_555 1_555
O2A C1 1_555 1_555
Gd1A O2A 1_555 1_555
O1A Gd1A 1_555 1_555
Gd1B O7B 1_555 1_555
O7B C9B 1_555 1_555
C9B O8 1_555 1_555
O8B C9 1_555 1_555
O3C Gd1A 1_555 1_555
O4C Gd1A 1_555 1_555
O5A Gd1A 1_555 1_555
O6A Gd1A 1_555 1_555
O7A Gd1A 1_555 1_555
O8A Gd1A 1_555 1_555
C1A O2 1_555 1_555
O1A_2 C1A 1_555 1_555
C2A C1A 1_555 1_555
O3B Gd1 1_555 1_555
O4B Gd1 1_555 1_555
Gd1A_2 O1A_2 1_555 1_555
C3A C2A 1_555 1_555
C7A C2A 1_555 1_555
Gd1B_2 O3 1_555 1_555
H1A C3A 1_555 1_555
C4A C3A 1_555 1_555
C6A C7A 1_555 1_555
H4A C7A 1_555 1_555
H2A C4A 1_555 1_555
C5A C4A 1_555 1_555
C8A C6A 1_555 1_555
H3A C5A 1_555 1_555
O3A C8A 1_555 1_555
O4A C8A 1_555 1_555
Gd1C O3A 1_555 1_555
O4 Gd1B_2 1_555 1_555
C6 C7 1_555 1_555
C9 C9B 1_555 1_555
Gd1B O8B 1_555 1_555
C6A C5A 1_555 1_555
O4A Gd1C 1_555 1_555

#END
