
#######################################################################
#
#                 Cambridge Crystallographic Data Centre
#                                CCDC 
#
#######################################################################
#
# If this CIF has been generated from an entry in the Cambridge 
# Structural Database, then it will include bibliographic, chemical, 
# crystal, experimental, refinement or atomic coordinate data resulting 
# from the CCDC's data processing and validation procedures.
#
#######################################################################

data_OBEPER
_symmetry_cell_setting           monoclinic
_symmetry_space_group_name_H-M   'P 21/c'
_symmetry_Int_Tables_number      14
_space_group_name_Hall           '-P 2ybc'
loop_
_symmetry_equiv_pos_site_id
_symmetry_equiv_pos_as_xyz
1 x,y,z
2 x,1/2-y,1/2+z
3 -x,-y,-z
4 -x,1/2+y,1/2-z
_cell_length_a                   11.211(4)
_cell_length_b                   12.851(4)
_cell_length_c                   9.689(3)
_cell_angle_alpha                90
_cell_angle_beta                 111.726(5)
_cell_angle_gamma                90
_cell_volume                     1296.76
loop_
_atom_site_label
_atom_site_type_symbol
_atom_site_fract_x
_atom_site_fract_y
_atom_site_fract_z
Tm1 Tm -0.35770(3) 0.65242(2) -0.14470(3)
N1 N -0.1558(5) 0.3889(4) -0.7211(6)
C1 C -0.1440(6) 0.4644(5) -0.3448(7)
C2 C -0.0288(6) 0.4176(4) -0.2552(7)
H1 H 0.0010 0.5764 0.1524
C3 C 0.0445(6) 0.3622(4) -0.3184(7)
C4 C 0.0021(6) 0.3518(5) -0.4720(7)
H2 H 0.0493 0.3138 -0.5158
C5 C -0.1106(6) 0.3986(4) -0.5571(7)
C6 C -0.1861(6) 0.4554(5) -0.4990(7)
H3 H -0.2621 0.4865 -0.5606
C7 C -0.2221(6) 0.5243(4) -0.2759(8)
C8 C 0.1688(6) 0.3121(5) -0.2228(7)
C9 C 0.4944(5) 0.5454(4) 0.0502(7)
O1 O -0.3282(4) 0.5647(3) -0.3602(5)
O2 O -0.1852(4) 0.5323(4) -0.1381(5)
O3 O -0.1995(4) 0.6841(4) 0.0859(5)
O4 O 0.2333(4) 0.2686(4) -0.2874(5)
O5 O -0.0902(5) 0.3380(4) -0.7724(6)
O6 O -0.2530(5) 0.4331(5) -0.7954(6)
O7 O 0.4483(4) 0.5238(3) 0.1460(5)
O8 O 0.5317(4) 0.6319(3) 0.0257(5)
O9 O 0.5499(4) 0.3210(4) 0.3600(5)
H4 H 0.6046 0.2853 0.3387
H5 H 0.5177 0.2822 0.4083
O10 O 0.4431(4) 0.1737(3) 0.1121(5)
H6 H 0.3767 0.1463 0.0479
H7 H 0.4699 0.1343 0.1879
Tm1C Tm 0.35770(3) 0.15242(2) -0.35530(3)
C8B C -0.1688(6) 0.6879(5) 0.2228(7)
C3B C -0.0445(6) 0.6378(4) 0.3184(7)
C2B C 0.0288(6) 0.5824(4) 0.2552(7)
C1B C 0.1440(6) 0.5356(5) 0.3448(7)
C6B C 0.1861(6) 0.5446(5) 0.4990(7)
C5B C 0.1106(6) 0.6014(4) 0.5571(7)
N1B N 0.1558(5) 0.6111(4) 0.7211(6)
O5B O 0.0902(5) 0.6620(4) 0.7724(6)
O6B O 0.2530(5) 0.5669(5) 0.7954(6)
C4B C -0.0021(6) 0.6482(5) 0.4720(7)
H2B H -0.0493 0.6862 0.5158
H3B H 0.2621 0.5135 0.5606
C7B C 0.2221(6) 0.4757(4) 0.2759(8)
O1B O 0.3282(4) 0.4353(3) 0.3602(5)
Tm1B Tm 0.35770(3) 0.34758(2) 0.14470(3)
O2B O 0.1852(4) 0.4677(4) 0.1381(5)
O3B O 0.1995(4) 0.3159(4) -0.0859(5)
O4A O 0.2333(4) 0.2314(4) 0.2126(5)
C9B C 0.5056(5) 0.4546(4) -0.0502(7)
O7B O 0.5517(4) 0.4762(3) -0.1460(5)
Tm1_2 Tm 0.64230(3) 0.65242(2) -0.14470(3)
O8B O 0.4683(4) 0.3681(3) -0.0257(5)
O4B O -0.2333(4) 0.7314(4) 0.2874(5)
Tm1A Tm -0.35770(3) 0.84758(2) 0.35530(3)
O4C O -0.2333(4) 0.7686(4) -0.2126(5)
O7B_2 O -0.4483(4) 0.4762(3) -0.1460(5)
O8_2 O -0.4683(4) 0.6319(3) 0.0257(5)
O9B O -0.5499(4) 0.6790(4) -0.3600(5)
H4B H -0.6046 0.7147 -0.3387
H5B H -0.5177 0.7178 -0.4083
O10B O -0.4431(4) 0.8263(3) -0.1121(5)
H6B H -0.3767 0.8537 -0.0479
H7B H -0.4699 0.8657 -0.1879
H1B H -0.0010 0.4236 -0.1524
O11 O 0.7516(5) -0.6935(4) -0.0979(6)
H8 H 0.8258 -0.7057 -0.0335
H9 H 0.7453 -0.6285 -0.1154
loop_
_geom_bond_atom_site_label_1
_geom_bond_atom_site_label_2
_geom_bond_site_symmetry_1
_geom_bond_site_symmetry_2
Tm1 O1 1_555 1_555
N1 C5 1_555 1_555
C1 C2 1_555 1_555
C2 C3 1_555 1_555
H1 C2B 1_555 1_555
C3 C4 1_555 1_555
C4 H2 1_555 1_555
C5 C4 1_555 1_555
C6 C1 1_555 1_555
H3 C6 1_555 1_555
C7 C1 1_555 1_555
C8 C3 1_555 1_555
C9 O7 1_555 1_555
O1 C7 1_555 1_555
O2 Tm1 1_555 1_555
O3 Tm1 1_555 1_555
O4 C8 1_555 1_555
O5 N1 1_555 1_555
O6 N1 1_555 1_555
O7 Tm1B 1_555 1_555
O8 C9 1_555 1_555
O9 H4 1_555 1_555
H5 O9 1_555 1_555
O10 H6 1_555 1_555
H7 O10 1_555 1_555
O11 H8 1_555 1_555
H9 O11 1_555 1_555
Tm1C O4 1_555 1_555
C8B O3 1_555 1_555
C3B C8B 1_555 1_555
C2B C3B 1_555 1_555
C1B C2B 1_555 1_555
C6B C1B 1_555 1_555
C5B C6B 1_555 1_555
N1B C5B 1_555 1_555
O5B N1B 1_555 1_555
O6B N1B 1_555 1_555
C4B C3B 1_555 1_555
H2B C4B 1_555 1_555
H3B C6B 1_555 1_555
C7B C1B 1_555 1_555
O1B C7B 1_555 1_555
Tm1B O9 1_555 1_555
O2B C7B 1_555 1_555
O3B C8 1_555 1_555
O4A Tm1B 1_555 1_555
C9B C9 1_555 1_555
O7B C9B 1_555 1_555
Tm1_2 O8 1_555 1_555
O8B Tm1B 1_555 1_555
O4B C8B 1_555 1_555
Tm1A O4B 1_555 1_555
O4C Tm1 1_555 1_555
O7B_2 Tm1 1_555 1_555
O8_2 Tm1 1_555 1_555
O9B Tm1 1_555 1_555
H4B O9B 1_555 1_555
H5B O9B 1_555 1_555
O10B Tm1 1_555 1_555
H6B O10B 1_555 1_555
H7B O10B 1_555 1_555
H1B C2 1_555 1_555
C5 C6 1_555 1_555
C7 O2 1_555 1_555
O10 Tm1B 1_555 1_555
C5B C4B 1_555 1_555
O1B Tm1B 1_555 1_555
Tm1B O2B 1_555 1_555
Tm1B O3B 1_555 1_555
C9B O8B 1_555 1_555
O7B Tm1_2 1_555 1_555

#END
