
#######################################################################
#
#                 Cambridge Crystallographic Data Centre
#                                CCDC 
#
#######################################################################
#
# If this CIF has been generated from an entry in the Cambridge 
# Structural Database, then it will include bibliographic, chemical, 
# crystal, experimental, refinement or atomic coordinate data resulting 
# from the CCDC's data processing and validation procedures.
#
#######################################################################

data_OBEVIA
_symmetry_cell_setting           monoclinic
_symmetry_space_group_name_H-M   'P 21/n'
_symmetry_Int_Tables_number      14
_space_group_name_Hall           '-P 2yn'
loop_
_symmetry_equiv_pos_site_id
_symmetry_equiv_pos_as_xyz
1 x,y,z
2 1/2-x,1/2+y,1/2-z
3 -x,-y,-z
4 1/2+x,1/2-y,1/2+z
_cell_length_a                   11.1547(5)
_cell_length_b                   13.4149(6)
_cell_length_c                   15.9633(7)
_cell_angle_alpha                90
_cell_angle_beta                 90.8160(10)
_cell_angle_gamma                90
_cell_volume                     2388.49
loop_
_atom_site_label
_atom_site_type_symbol
_atom_site_fract_x
_atom_site_fract_y
_atom_site_fract_z
Cu1 Cu 0.59563(5) 0.44988(4) 0.27198(3)
Cu2 Cu 1.09372(5) 0.24653(4) 0.05869(3)
N1 N 0.7355(3) 0.4170(2) 0.1985(2)
N2 N 0.9313(3) 0.3402(2) 0.1142(2)
N3 N 0.2394(3) 0.3098(2) 0.1100(2)
N4 N 0.4382(3) 0.3775(2) 0.1981(2)
O1 O 0.6440(3) 0.3279(2) 0.3279(2)
O2 O 0.7823(3) 0.2093(2) 0.3312(2)
O3 O 0.1066(3) 0.1648(2) 0.1586(2)
O4 O 0.2126(3) 0.1369(2) 0.2747(2)
O5 O 0.5013(3) 0.4784(2) 0.3739(2)
H1 H 0.4219(12) 0.4758(32) 0.3648(27)
H2 H 0.5033(40) 0.5384(16) 0.3981(25)
O6 O 0.5517(3) 0.5730(2) 0.2118(2)
H3 H 0.4841(22) 0.6039(29) 0.2241(27)
H4 H 0.6005(32) 0.6239(22) 0.2005(26)
O7 O 0.9740(3) 0.1507(2) 0.0131(2)
H5 H 0.8971(15) 0.1661(35) 0.0032(28)
H6 H 0.9892(42) 0.1061(26) -0.0269(21)
O8 O 1.1016(3) 0.3271(3) -0.0432(2)
H7 H 1.1480(35) 0.3047(33) -0.0842(21)
H8 H 1.0288(20) 0.3432(35) -0.0637(27)
C1 C 0.7788(4) 0.4626(3) 0.1309(3)
H9 H 0.7388(42) 0.5161(33) 0.1104(27)
C2 C 0.8747(4) 0.4226(3) 0.0892(3)
H10 H 0.9045(41) 0.4476(32) 0.0411(30)
C3 C 0.8875(4) 0.2962(3) 0.1823(3)
H11 H 0.9195(41) 0.2417(33) 0.1964(28)
C4 C 0.7904(4) 0.3336(3) 0.2243(2)
C5 C 0.7371(4) 0.2852(3) 0.3000(3)
C6 C 0.3028(4) 0.3863(3) 0.0824(3)
H12 H 0.2858(44) 0.4182(33) 0.0341(31)
C7 C 0.4014(4) 0.4203(3) 0.1275(3)
H13 H 0.4468(43) 0.4721(34) 0.1068(28)
C8 C 0.3743(4) 0.2995(3) 0.2248(3)
H14 H 0.3968(40) 0.2703(31) 0.2791(28)
C9 C 0.2751(4) 0.2655(3) 0.1816(2)
C10 C 0.1948(4) 0.1818(3) 0.2092(3)
N3_2 N 1.2394(3) 0.3098(2) 0.1100(2)
O3_2 O 1.1066(3) 0.1648(2) 0.1586(2)
Cu2_2 Cu 0.09372(5) 0.24653(4) 0.05869(3)
Mo1 Mo 0.12201(3) 0.58586(2) 0.50502(2)
Mo2 Mo 0.11435(3) 0.42958(3) 0.35177(2)
Mo3 Mo 0.11313(3) 0.24642(3) 0.48553(2)
Mo4 Mo 0.11847(3) 0.40843(3) 0.63990(2)
O9 O 0.0910(2) 0.4309(2) 0.4978(2)
O10 O 0.0851(2) 0.5702(2) 0.3860(2)
O11 O 0.0813(3) 0.2944(2) 0.3742(2)
O12 O 0.0951(3) 0.2757(2) 0.6026(2)
O13 O 0.0884(2) 0.5543(2) 0.6213(2)
O14 O 0.2734(3) 0.5892(2) 0.5034(2)
O15 O 0.0796(3) 0.7113(2) 0.5090(2)
O16 O 0.0860(3) 0.4364(2) 0.2471(2)
O17 O 0.2665(3) 0.4318(2) 0.3612(2)
O18 O 0.0836(3) 0.1226(2) 0.4808(2)
O19 O 0.2661(3) 0.2544(2) 0.4828(2)
O20 O 0.2708(3) 0.4189(2) 0.6399(2)
O21 O 0.0836(3) 0.3991(2) 0.7427(2)
O9B O -0.0910(2) 0.5691(2) 0.5022(2)
O13B O -0.0884(2) 0.4457(2) 0.3787(2)
O15B O -0.0796(3) 0.2887(2) 0.4910(2)
O10B O -0.0851(2) 0.4298(2) 0.6140(2)
Mo1B Mo -0.12201(3) 0.41414(2) 0.49498(2)
Mo4B Mo -0.11847(3) 0.59157(3) 0.36010(2)
Mo2B Mo -0.11435(3) 0.57042(3) 0.64823(2)
Mo3B Mo -0.11313(3) 0.75358(3) 0.51447(2)
O11B O -0.0813(3) 0.7056(2) 0.6258(2)
O16B O -0.0860(3) 0.5636(2) 0.7529(2)
O17B O -0.2665(3) 0.5682(2) 0.6388(2)
O12B O -0.0951(3) 0.7243(2) 0.3974(2)
O18B O -0.0836(3) 0.8774(2) 0.5192(2)
O19B O -0.2661(3) 0.7456(2) 0.5172(2)
O20B O -0.2708(3) 0.5811(2) 0.3601(2)
O21B O -0.0836(3) 0.6009(2) 0.2573(2)
O14B O -0.2734(3) 0.4108(2) 0.4966(2)
O22 O 1.4085(3) 0.0894(3) 0.3883(2)
H15 H 1.4249(46) 0.0611(33) 0.3393(16)
H16 H 1.3404(26) 0.1242(33) 0.3859(31)
loop_
_geom_bond_atom_site_label_1
_geom_bond_atom_site_label_2
_geom_bond_site_symmetry_1
_geom_bond_site_symmetry_2
Cu1 N1 1_555 1_555
Cu2 N2 1_555 1_555
N1 C1 1_555 1_555
N2 C2 1_555 1_555
N3 C6 1_555 1_555
N4 Cu1 1_555 1_555
O1 Cu1 1_555 1_555
O2 C5 1_555 1_555
O3 C10 1_555 1_555
O4 C10 1_555 1_555
O5 Cu1 1_555 1_555
H1 O5 1_555 1_555
H2 O5 1_555 1_555
O6 Cu1 1_555 1_555
H3 O6 1_555 1_555
H4 O6 1_555 1_555
O7 Cu2 1_555 1_555
H5 O7 1_555 1_555
H6 O7 1_555 1_555
O8 Cu2 1_555 1_555
H7 O8 1_555 1_555
H8 O8 1_555 1_555
C1 H9 1_555 1_555
C2 C1 1_555 1_555
H10 C2 1_555 1_555
C3 N2 1_555 1_555
H11 C3 1_555 1_555
C4 N1 1_555 1_555
C5 O1 1_555 1_555
C6 H12 1_555 1_555
C7 N4 1_555 1_555
H13 C7 1_555 1_555
C8 N4 1_555 1_555
H14 C8 1_555 1_555
C9 N3 1_555 1_555
C10 C9 1_555 1_555
Mo1 O9 1_555 1_555
Mo2 O9 1_555 1_555
Mo3 O9 1_555 1_555
Mo4 O9 1_555 1_555
O9 Mo1B 1_555 1_555
O10 Mo1 1_555 1_555
O11 Mo2 1_555 1_555
O12 Mo3 1_555 1_555
O13 Mo1 1_555 1_555
O14 Mo1 1_555 1_555
O15 Mo1 1_555 1_555
O16 Mo2 1_555 1_555
O17 Mo2 1_555 1_555
O18 Mo3 1_555 1_555
O19 Mo3 1_555 1_555
O20 Mo4 1_555 1_555
O21 Mo4 1_555 1_555
O22 H15 1_555 1_555
H16 O22 1_555 1_555
N3_2 Cu2 1_555 1_555
O3_2 Cu2 1_555 1_555
Cu2_2 N3 1_555 1_555
O9B Mo1 1_555 1_555
O13B Mo2 1_555 1_555
O15B Mo3 1_555 1_555
O10B Mo4 1_555 1_555
Mo1B O9B 1_555 1_555
Mo4B O10 1_555 1_555
Mo2B O13 1_555 1_555
Mo3B O15 1_555 1_555
O11B Mo2B 1_555 1_555
O16B Mo2B 1_555 1_555
O17B Mo2B 1_555 1_555
O12B Mo4B 1_555 1_555
O18B Mo3B 1_555 1_555
O19B Mo3B 1_555 1_555
O20B Mo4B 1_555 1_555
O21B Mo4B 1_555 1_555
O14B Mo1B 1_555 1_555
O3 Cu2_2 1_555 1_555
C3 C4 1_555 1_555
C4 C5 1_555 1_555
C6 C7 1_555 1_555
C8 C9 1_555 1_555
Mo2 O10 1_555 1_555
Mo3 O11 1_555 1_555
Mo4 O12 1_555 1_555
Mo4 O13 1_555 1_555
O9B Mo4B 1_555 1_555
O9B Mo2B 1_555 1_555
O9B Mo3B 1_555 1_555
O13B Mo1B 1_555 1_555
O13B Mo4B 1_555 1_555
O15B Mo1B 1_555 1_555
O10B Mo1B 1_555 1_555
O10B Mo2B 1_555 1_555
Mo3B O11B 1_555 1_555
Mo3B O12B 1_555 1_555

#END
