
#######################################################################
#
#                 Cambridge Crystallographic Data Centre
#                                CCDC 
#
#######################################################################
#
# If this CIF has been generated from an entry in the Cambridge 
# Structural Database, then it will include bibliographic, chemical, 
# crystal, experimental, refinement or atomic coordinate data resulting 
# from the CCDC's data processing and validation procedures.
#
#######################################################################

data_OBEYEA
_symmetry_cell_setting           monoclinic
_symmetry_space_group_name_H-M   'P n'
_symmetry_Int_Tables_number      7
_space_group_name_Hall           'P -2yac'
loop_
_symmetry_equiv_pos_site_id
_symmetry_equiv_pos_as_xyz
1 x,y,z
2 1/2+x,-y,1/2+z
_cell_length_a                   10.983(4)
_cell_length_b                   13.875(5)
_cell_length_c                   12.709(4)
_cell_angle_alpha                90
_cell_angle_beta                 97.823(5)
_cell_angle_gamma                90
_cell_volume                     1918.69
loop_
_atom_site_label
_atom_site_type_symbol
_atom_site_fract_x
_atom_site_fract_y
_atom_site_fract_z
Cu1 Cu 0.48426(4) -0.29005(3) -0.03572(3)
N1 N 0.5499(3) -0.2904(2) 0.1235(2)
N2 N 0.5723(3) -0.4133(2) -0.0233(2)
N3 N 0.5982(3) -0.4811(2) -0.0957(2)
N4 N 0.6755(3) -0.5283(2) 0.0663(2)
N5 N 0.8801(3) -0.6711(2) 0.3235(2)
C1 C 0.5368(4) -0.2183(3) 0.1922(3)
H1 H 0.4965 -0.1608 0.1659
C2 C 0.5796(4) -0.2247(3) 0.2986(3)
H2 H 0.5691 -0.1727 0.3452
C3 C 0.6386(4) -0.3088(3) 0.3370(3)
H3 H 0.6681 -0.3155 0.4105
C4 C 0.6541(4) -0.3838(3) 0.2655(3)
H4 H 0.6952 -0.4415 0.2899
C5 C 0.6094(3) -0.3728(2) 0.1610(3)
C6 C 0.6201(3) -0.4404(2) 0.0725(3)
C7 C 0.6615(4) -0.5498(3) -0.0414(3)
C8 C 0.7038(3) -0.6359(2) -0.0949(3)
C9 C 0.7155(4) -0.7270(2) -0.0452(3)
H5 H 0.7034 -0.7346 0.0270
C10 C 0.7459(4) -0.8069(3) -0.1060(3)
H6 H 0.7564 -0.8688 -0.0740
C11 C 0.7605(4) -0.7956(3) -0.2113(3)
H7 H 0.7776 -0.8503 -0.2519
C12 C 0.7504(4) -0.7049(3) -0.2592(3)
H8 H 0.7626 -0.6973 -0.3313
C13 C 0.7223(4) -0.6258(3) -0.1996(3)
H9 H 0.7157 -0.5638 -0.2316
C14 C 0.7577(3) -0.6703(2) 0.3133(3)
H10 H 0.7181 -0.7004 0.3666
C15 C 0.6850(4) -0.6265(2) 0.2270(3)
H11 H 0.5978 -0.6278 0.2202
C16 C 0.7455(4) -0.5816(2) 0.1526(3)
C17 C 0.8721(4) -0.5851(2) 0.1581(3)
H12 H 0.9134 -0.5570 0.1047
C18 C 0.9363(4) -0.6318(2) 0.2457(3)
H13 H 1.0232 -0.6362 0.2509
N6 N 0.6160(3) -0.1980(2) -0.1090(2)
N7 N 0.4073(3) -0.1594(2) -0.0349(2)
N8 N 0.3058(3) -0.1251(2) 0.0054(2)
N9 N 0.3880(3) -0.0067(2) -0.0810(2)
N10 N 0.3898(3) 0.2361(2) -0.2840(3)
C19 C 0.7258(4) -0.2220(3) -0.1350(3)
H14 H 0.7536 -0.2864 -0.1232
C20 C 0.8011(4) -0.1570(3) -0.1786(3)
H15 H 0.8795 -0.1760 -0.1948
C21 C 0.7589(4) -0.0633(3) -0.1979(3)
H16 H 0.8084 -0.0177 -0.2283
C22 C 0.6443(4) -0.0363(3) -0.1726(3)
H17 H 0.6141 0.0273 -0.1859
C23 C 0.5751(3) -0.1054(2) -0.1272(3)
C24 C 0.4579(3) -0.0894(2) -0.0856(3)
C25 C 0.2947(3) -0.0327(2) -0.0228(3)
C26 C 0.1949(4) 0.0295(3) 0.0052(3)
C27 C 0.2167(4) 0.1230(3) 0.0465(3)
H18 H 0.2968 0.1499 0.0524
C28 C 0.1200(4) 0.1762(3) 0.0789(3)
H19 H 0.1351 0.2392 0.1069
C29 C 0.0038(4) 0.1383(3) 0.0707(3)
H20 H -0.0614 0.1751 0.0923
C30 C -0.0185(4) 0.0442(3) 0.0298(3)
H21 H -0.0988 0.0175 0.0245
C31 C 0.0764(4) -0.0094(3) -0.0028(3)
H22 H 0.0610 -0.0725 -0.0304
C32 C 0.3532(4) 0.1473(3) -0.3214(3)
H23 H 0.3259 0.1403 -0.3952
C33 C 0.3538(4) 0.0660(3) -0.2565(3)
H24 H 0.3288 0.0049 -0.2853
C34 C 0.3917(3) 0.0774(2) -0.1491(3)
C35 C 0.4306(4) 0.1672(3) -0.1082(3)
H25 H 0.4591 0.1760 -0.0348
C36 C 0.4256(4) 0.2442(3) -0.1808(3)
H26 H 0.4495 0.3062 -0.1538
N5A N 0.3801(3) -0.3289(2) -0.1765(2)
Cu1A Cu 0.98426(4) -0.70995(3) 0.46428(3)
Cl1 Cl 0.09140(10) -0.09310(7) -0.32456(8)
O1 O 0.0195(3) -0.1791(2) -0.3501(2)
O2 O 0.1485(4) -0.0615(3) -0.4112(3)
O3 O 0.0087(5) -0.0175(3) -0.3039(5)
O4 O 0.1739(5) -0.1088(3) -0.2345(4)
Cl2 Cl 0.31657(10) -0.54296(9) 0.07244(9)
O5 O 0.3662(5) -0.6055(5) 0.0039(5)
O6 O 0.4025(3) -0.5268(3) 0.1630(3)
O7 O 0.2033(3) -0.5780(3) 0.1023(3)
O8 O 0.2943(4) -0.4499(4) 0.0219(5)
O9 O 0.3688(3) 0.36996(19) -0.4525(2)
H27 H 0.3722 0.3340 -0.3990
C37 C 0.4873(4) 0.3785(3) -0.4835(4)
H28 H 0.5185 0.3140 -0.4998
H29 H 0.5448 0.4070 -0.4251
C38 C 0.4793(5) 0.4421(4) -0.5808(4)
H30 H 0.4224 0.4133 -0.6384
H31 H 0.5609 0.4482 -0.6031
H32 H 0.4493 0.5060 -0.5639
loop_
_geom_bond_atom_site_label_1
_geom_bond_atom_site_label_2
_geom_bond_site_symmetry_1
_geom_bond_site_symmetry_2
Cu1 N1 1_555 1_555
N1 C1 1_555 1_555
N2 Cu1 1_555 1_555
N3 N2 1_555 1_555
N4 C6 1_555 1_555
N5 C14 1_555 1_555
C1 H1 1_555 1_555
C2 C1 1_555 1_555
H2 C2 1_555 1_555
C3 C2 1_555 1_555
H3 C3 1_555 1_555
C4 C3 1_555 1_555
H4 C4 1_555 1_555
C5 N1 1_555 1_555
C6 N2 1_555 1_555
C7 N3 1_555 1_555
C8 C7 1_555 1_555
C9 C8 1_555 1_555
H5 C9 1_555 1_555
C10 C9 1_555 1_555
H6 C10 1_555 1_555
C11 C10 1_555 1_555
H7 C11 1_555 1_555
C12 C11 1_555 1_555
H8 C12 1_555 1_555
C13 C8 1_555 1_555
H9 C13 1_555 1_555
C14 H10 1_555 1_555
C15 C14 1_555 1_555
H11 C15 1_555 1_555
C16 N4 1_555 1_555
C17 C16 1_555 1_555
H12 C17 1_555 1_555
C18 N5 1_555 1_555
H13 C18 1_555 1_555
N6 Cu1 1_555 1_555
N7 Cu1 1_555 1_555
N8 N7 1_555 1_555
N9 C24 1_555 1_555
N10 C32 1_555 1_555
C19 N6 1_555 1_555
H14 C19 1_555 1_555
C20 C19 1_555 1_555
H15 C20 1_555 1_555
C21 C20 1_555 1_555
H16 C21 1_555 1_555
C22 C21 1_555 1_555
H17 C22 1_555 1_555
C23 N6 1_555 1_555
C24 N7 1_555 1_555
C25 N8 1_555 1_555
C26 C25 1_555 1_555
C27 C26 1_555 1_555
H18 C27 1_555 1_555
C28 C27 1_555 1_555
H19 C28 1_555 1_555
C29 C28 1_555 1_555
H20 C29 1_555 1_555
C30 C29 1_555 1_555
H21 C30 1_555 1_555
C31 C26 1_555 1_555
H22 C31 1_555 1_555
C32 H23 1_555 1_555
C33 C32 1_555 1_555
H24 C33 1_555 1_555
C34 N9 1_555 1_555
C35 C34 1_555 1_555
H25 C35 1_555 1_555
C36 N10 1_555 1_555
H26 C36 1_555 1_555
Cl1 O1 1_555 1_555
O2 Cl1 1_555 1_555
O3 Cl1 1_555 1_555
O4 Cl1 1_555 1_555
Cl2 O5 1_555 1_555
O6 Cl2 1_555 1_555
O7 Cl2 1_555 1_555
O8 Cl2 1_555 1_555
O9 H27 1_555 1_555
C37 O9 1_555 1_555
H28 C37 1_555 1_555
H29 C37 1_555 1_555
C38 C37 1_555 1_555
H30 C38 1_555 1_555
H31 C38 1_555 1_555
H32 C38 1_555 1_555
N5A Cu1 1_555 1_555
Cu1A N5 1_555 1_555
N4 C7 1_555 1_555
C4 C5 1_555 1_555
C5 C6 1_555 1_555
C12 C13 1_555 1_555
C15 C16 1_555 1_555
C17 C18 1_555 1_555
N9 C25 1_555 1_555
C22 C23 1_555 1_555
C23 C24 1_555 1_555
C30 C31 1_555 1_555
C33 C34 1_555 1_555
C35 C36 1_555 1_555

#END
