
#######################################################################
#
#                 Cambridge Crystallographic Data Centre
#                                CCDC 
#
#######################################################################
#
# If this CIF has been generated from an entry in the Cambridge 
# Structural Database, then it will include bibliographic, chemical, 
# crystal, experimental, refinement or atomic coordinate data resulting 
# from the CCDC's data processing and validation procedures.
#
#######################################################################

data_OBEZAX
_symmetry_cell_setting           monoclinic
_symmetry_space_group_name_H-M   'P 21/n'
_symmetry_Int_Tables_number      14
_space_group_name_Hall           '-P 2yn'
loop_
_symmetry_equiv_pos_site_id
_symmetry_equiv_pos_as_xyz
1 x,y,z
2 1/2+x,1/2-y,1/2+z
3 -x,-y,-z
4 1/2-x,1/2+y,1/2-z
_cell_length_a                   18.5929(7)
_cell_length_b                   16.3853(6)
_cell_length_c                   20.5185(8)
_cell_angle_alpha                90.00
_cell_angle_beta                 114.5760(10)
_cell_angle_gamma                90.00
_cell_volume                     5684.69
loop_
_atom_site_label
_atom_site_type_symbol
_atom_site_fract_x
_atom_site_fract_y
_atom_site_fract_z
Co1 Co 0.48578(3) 0.11665(3) 0.74059(2)
C29 C 0.5273(2) -0.0146(2) 0.65767(19)
H29 H 0.4999 -0.0462 0.6774
C30 C 0.55229(19) -0.0508(2) 0.60970(18)
H30 H 0.5405 -0.1054 0.5972
C31 C 0.5948(2) -0.0064(2) 0.58011(18)
C32 C 0.6102(2) 0.0751(2) 0.60064(18)
H31 H 0.6391 0.1073 0.5828
C33 C 0.5819(2) 0.1079(2) 0.64785(19)
H32 H 0.5917 0.1627 0.6601
C34 C 0.6247(2) -0.0458(2) 0.52969(18)
H33 H 0.6293 -0.0043 0.4979
H34 H 0.5861 -0.0856 0.5005
C35 C 0.7053(2) -0.0884(2) 0.56840(18)
H35 H 0.7197 -0.1145 0.5331
H36 H 0.7452 -0.0477 0.5932
C36 C 0.7049(2) -0.1522(2) 0.62223(19)
H37 H 0.6999 -0.1246 0.6620
H38 H 0.6588 -0.1868 0.5994
C37 C 0.7771(2) -0.2051(2) 0.65100(18)
C38 C 0.7720(2) -0.2894(2) 0.64320(19)
H39 H 0.7230 -0.3141 0.6187
C39 C 0.8525(2) -0.1732(2) 0.68701(19)
H40 H 0.8593 -0.1171 0.6932
C40 C 0.3497(2) 0.0010(2) 0.73196(19)
H41 H 0.3818 -0.0057 0.7805
C41 C 0.2755(2) -0.0339(2) 0.7047(2)
H42 H 0.2590 -0.0634 0.7347
C42 C 0.2253(2) -0.0255(2) 0.63269(19)
C43 C 0.2553(2) 0.0187(2) 0.59129(18)
H43 H 0.2248 0.0258 0.5425
C44 C 0.3295(2) 0.0515(2) 0.62226(18)
H44 H 0.3476 0.0807 0.5932
C45 C 0.1426(2) -0.0598(2) 0.60003(19)
H45 H 0.1056 -0.0154 0.5791
H46 H 0.1309 -0.0839 0.6377
C46 C 0.0330(2) -0.3226(2) 0.6264(2)
H47 H -0.0164 -0.3470 0.6037
C47 C 0.0654(2) -0.2854(2) 0.5848(2)
H48 H 0.0376 -0.2845 0.5352
C48 C 0.1391(2) -0.2491(2) 0.6162(2)
C49 C 0.1775(2) -0.2539(2) 0.6907(2)
H49 H 0.2276 -0.2313 0.7146
C50 C 0.1415(2) -0.2919(2) 0.7290(2)
H50 H 0.1685 -0.2946 0.7786
C51 C 0.1728(2) -0.2046(2) 0.5711(2)
H51 H 0.1686 -0.2391 0.5312
H52 H 0.2285 -0.1938 0.5997
C52 C 0.1302(2) -0.1243(2) 0.5423(2)
H53 H 0.0740 -0.1351 0.5171
H54 H 0.1483 -0.1024 0.5078
C53 C 0.4322(2) 0.2367(2) 0.6061(2)
C54 C 0.5665(2) -0.0116(2) 0.8709(2)
C55 C 0.8389(2) -0.3362(2) 0.67160(19)
H55 H 0.8336 -0.3924 0.6657
C56 C 0.9173(2) -0.2241(2) 0.71364(19)
H56 H 0.9672 -0.2008 0.7370
N7 N 0.54093(16) 0.06402(18) 0.67685(15)
N8 N 0.37786(16) 0.04431(18) 0.69190(15)
N9 N 0.06929(17) -0.32539(18) 0.69810(15)
N10 N 0.91184(16) -0.30572(18) 0.70746(15)
N11 N 0.43730(17) 0.20375(18) 0.65822(16)
N12 N 0.53611(17) 0.02738(18) 0.81979(16)
S3 S 0.60916(7) -0.06765(9) 0.94292(7)
S4 S 0.42571(7) 0.28492(7) 0.53384(6)
N9C N 0.43071(17) 0.17461(18) 0.80190(15)
N10C N 0.58816(16) 0.19428(18) 0.79254(15)
Co1C Co 0.01422(3) -0.38335(3) 0.75941(2)
Co1C_2 Co 1.01422(3) -0.38335(3) 0.75941(2)
Co2 Co 0.53432(3) 0.63483(3) 0.76254(3)
C1 C 0.3591(2) 0.5870(2) 0.6688(2)
H1 H 0.3495 0.6419 0.6736
C2 C 0.2978(3) 0.5386(3) 0.6265(3)
H2 H 0.2474 0.5605 0.6030
C3 C 0.3111(3) 0.4561(3) 0.6186(3)
C4 C 0.3854(3) 0.4268(3) 0.6579(2)
H3 H 0.3959 0.3715 0.6566
C5 C 0.4432(3) 0.4774(3) 0.6981(2)
H4 H 0.4933 0.4556 0.7237
C6 C 0.2496(3) 0.3978(3) 0.5670(3)
H5 H 0.2101 0.4280 0.5277
H6 H 0.2747 0.3591 0.5473
C7 C 0.2131(2) 0.3556(4) 0.6072(3)
H7 H 0.1898 0.3952 0.6278
H8 H 0.2533 0.3257 0.6462
C8 C 0.5608(2) 0.5857(2) 0.6299(2)
H9 H 0.5125 0.6123 0.6073
C9 C 0.5945(2) 0.5517(2) 0.5879(2)
H10 H 0.5686 0.5550 0.5382
C10 C 0.6670(2) 0.5124(2) 0.6194(2)
C11 C 0.7022(2) 0.5105(2) 0.6945(2)
H11 H 0.7512 0.4856 0.7185
C12 C 0.6647(2) 0.5452(2) 0.7326(2)
H12 H 0.6894 0.5430 0.7824
C13 C 0.7046(3) 0.4737(3) 0.5746(2)
H13 H 0.7556 0.4514 0.6060
H14 H 0.7134 0.5153 0.5450
C14 C 0.6539(3) 0.4063(3) 0.5269(2)
H15 H 0.6025 0.4287 0.4965
H16 H 0.6782 0.3874 0.4960
C15 C 0.8260(3) 0.2485(3) 0.7176(2)
H17 H 0.8498 0.2494 0.7675
C16 C 0.7552(3) 0.2891(3) 0.6831(2)
H18 H 0.7324 0.3166 0.7095
C17 C 0.7180(2) 0.2886(2) 0.6087(2)
C18 C 0.7564(2) 0.2469(2) 0.5732(2)
H19 H 0.7342 0.2456 0.5234
C19 C 0.8264(2) 0.2080(2) 0.6111(2)
H20 H 0.8504 0.1803 0.5858
C20 C 0.6422(2) 0.3330(3) 0.5679(3)
H21 H 0.6207 0.3518 0.6010
H22 H 0.6042 0.2958 0.5343
C21 C 0.0255(2) 0.2666(2) 0.6659(2)
H23 H -0.0019 0.2999 0.6845
C22 C 0.0628(2) 0.3026(3) 0.6275(3)
H24 H 0.0596 0.3588 0.6202
C23 C 0.1051(2) 0.2547(3) 0.5996(2)
C24 C 0.1070(2) 0.1724(2) 0.6118(2)
H25 H 0.1348 0.1379 0.5946
C25 C 0.0670(2) 0.1409(3) 0.6501(2)
H26 H 0.0682 0.0847 0.6570
C26 C 0.1462(3) 0.2934(3) 0.5578(3)
H27 H 0.1079 0.3224 0.5169
H28 H 0.1701 0.2513 0.5400
C27 C 0.5745(2) 0.4910(2) 0.87829(19)
C28 C 0.4422(2) 0.7726(2) 0.6475(2)
N1 N 0.43287(19) 0.55821(19) 0.70379(16)
N2 N 0.59388(19) 0.5823(2) 0.70173(16)
N3 N 0.86232(19) 0.2077(2) 0.68293(17)
N4 N 0.02688(19) 0.18669(19) 0.67758(16)
N5 N 0.57922(19) 0.5427(2) 0.84026(17)
N6 N 0.4872(2) 0.7256(2) 0.68557(18)
S1 S 0.56741(6) 0.41920(6) 0.92944(5)
S2 S 0.37911(6) 0.83737(7) 0.59442(6)
N3C N 0.63768(19) 0.7077(2) 0.81707(17)
N4C N 0.47312(19) 0.68669(19) 0.82242(16)
Co2C Co 0.96568(3) 0.13483(3) 0.73746(3)
Co2C_2 Co -0.03432(3) 0.13483(3) 0.73746(3)
loop_
_geom_bond_atom_site_label_1
_geom_bond_atom_site_label_2
_geom_bond_site_symmetry_1
_geom_bond_site_symmetry_2
Co1 N7 1_555 1_555
Co2 N1 1_555 1_555
C1 H1 1_555 1_555
C2 C1 1_555 1_555
H2 C2 1_555 1_555
C3 C2 1_555 1_555
C4 C3 1_555 1_555
H3 C4 1_555 1_555
C5 C4 1_555 1_555
H4 C5 1_555 1_555
C6 C3 1_555 1_555
H5 C6 1_555 1_555
H6 C6 1_555 1_555
C7 C6 1_555 1_555
H7 C7 1_555 1_555
H8 C7 1_555 1_555
C8 H9 1_555 1_555
C9 C8 1_555 1_555
H10 C9 1_555 1_555
C10 C9 1_555 1_555
C11 C10 1_555 1_555
H11 C11 1_555 1_555
C12 C11 1_555 1_555
H12 C12 1_555 1_555
C13 C10 1_555 1_555
H13 C13 1_555 1_555
H14 C13 1_555 1_555
C14 C13 1_555 1_555
H15 C14 1_555 1_555
H16 C14 1_555 1_555
C15 H17 1_555 1_555
C16 C15 1_555 1_555
H18 C16 1_555 1_555
C17 C16 1_555 1_555
C18 C17 1_555 1_555
H19 C18 1_555 1_555
C19 C18 1_555 1_555
H20 C19 1_555 1_555
C20 C14 1_555 1_555
H21 C20 1_555 1_555
H22 C20 1_555 1_555
C21 H23 1_555 1_555
C22 C21 1_555 1_555
H24 C22 1_555 1_555
C23 C22 1_555 1_555
C24 C23 1_555 1_555
H25 C24 1_555 1_555
C25 C24 1_555 1_555
H26 C25 1_555 1_555
C26 C7 1_555 1_555
H27 C26 1_555 1_555
H28 C26 1_555 1_555
C27 N5 1_555 1_555
C28 N6 1_555 1_555
C29 H29 1_555 1_555
C30 C29 1_555 1_555
H30 C30 1_555 1_555
C31 C30 1_555 1_555
C32 C31 1_555 1_555
H31 C32 1_555 1_555
C33 C32 1_555 1_555
H32 C33 1_555 1_555
C34 C31 1_555 1_555
H33 C34 1_555 1_555
H34 C34 1_555 1_555
C35 C34 1_555 1_555
H35 C35 1_555 1_555
H36 C35 1_555 1_555
C36 C35 1_555 1_555
H37 C36 1_555 1_555
H38 C36 1_555 1_555
C37 C36 1_555 1_555
C38 C37 1_555 1_555
H39 C38 1_555 1_555
C39 C37 1_555 1_555
H40 C39 1_555 1_555
C40 H41 1_555 1_555
C41 C40 1_555 1_555
H42 C41 1_555 1_555
C42 C41 1_555 1_555
C43 C42 1_555 1_555
H43 C43 1_555 1_555
C44 C43 1_555 1_555
H44 C44 1_555 1_555
C45 C42 1_555 1_555
H45 C45 1_555 1_555
H46 C45 1_555 1_555
C46 H47 1_555 1_555
C47 C46 1_555 1_555
H48 C47 1_555 1_555
C48 C47 1_555 1_555
C49 C48 1_555 1_555
H49 C49 1_555 1_555
C50 C49 1_555 1_555
H50 C50 1_555 1_555
C51 C48 1_555 1_555
H51 C51 1_555 1_555
H52 C51 1_555 1_555
C52 C45 1_555 1_555
H53 C52 1_555 1_555
H54 C52 1_555 1_555
C53 N11 1_555 1_555
C54 N12 1_555 1_555
C55 C38 1_555 1_555
H55 C55 1_555 1_555
C56 C39 1_555 1_555
H56 C56 1_555 1_555
N1 C1 1_555 1_555
N2 Co2 1_555 1_555
N3 C15 1_555 1_555
N4 C21 1_555 1_555
N5 Co2 1_555 1_555
N6 Co2 1_555 1_555
N7 C29 1_555 1_555
N8 Co1 1_555 1_555
N9 C46 1_555 1_555
N10 C55 1_555 1_555
N11 Co1 1_555 1_555
N12 Co1 1_555 1_555
S1 C27 1_555 1_555
S2 C28 1_555 1_555
S3 C54 1_555 1_555
S4 C53 1_555 1_555
N9C Co1 1_555 1_555
N10C Co1 1_555 1_555
N3C Co2 1_555 1_555
N4C Co2 1_555 1_555
Co2C N3 1_555 1_555
Co2C_2 N4 1_555 1_555
Co1C N9 1_555 1_555
Co1C_2 N10 1_555 1_555
C5 N1 1_555 1_555
C8 N2 1_555 1_555
C12 N2 1_555 1_555
C17 C20 1_555 1_555
C19 N3 1_555 1_555
C23 C26 1_555 1_555
C25 N4 1_555 1_555
C33 N7 1_555 1_555
C40 N8 1_555 1_555
C44 N8 1_555 1_555
C50 N9 1_555 1_555
C51 C52 1_555 1_555
C56 N10 1_555 1_555

#END
