
#######################################################################
#
#                 Cambridge Crystallographic Data Centre
#                                CCDC 
#
#######################################################################
#
# If this CIF has been generated from an entry in the Cambridge 
# Structural Database, then it will include bibliographic, chemical, 
# crystal, experimental, refinement or atomic coordinate data resulting 
# from the CCDC's data processing and validation procedures.
#
#######################################################################

data_OBIBUW
_symmetry_cell_setting           monoclinic
_symmetry_space_group_name_H-M   'P 21/n'
_symmetry_Int_Tables_number      14
_space_group_name_Hall           '-P 2yn'
loop_
_symmetry_equiv_pos_site_id
_symmetry_equiv_pos_as_xyz
1 x,y,z
2 1/2+x,1/2-y,1/2+z
3 -x,-y,-z
4 1/2-x,1/2+y,1/2-z
_cell_length_a                   11.829(5)
_cell_length_b                   19.359(5)
_cell_length_c                   14.944(5)
_cell_angle_alpha                90
_cell_angle_beta                 104.900(5)
_cell_angle_gamma                90
_cell_volume                     3307.07
loop_
_atom_site_label
_atom_site_type_symbol
_atom_site_fract_x
_atom_site_fract_y
_atom_site_fract_z
K1 K 0.90714(11) 0.25109(7) 0.4185(1)
O1 O 0.7062(3) 0.32303(19) 0.4453(2)
O2 O 1.1058(3) 0.17183(18) 0.4141(2)
O3 O 0.9326(4) 0.3816(2) 0.5005(3)
O4 O 1.1272(4) 0.2996(2) 0.5075(2)
O5 O 0.8863(3) 0.10795(19) 0.3835(2)
O6 O 0.6872(3) 0.19514(19) 0.3537(2)
O7 O 0.9538(4) 0.3334(2) 0.2866(2)
O8 O 1.1429(5) 0.5010(3) 0.2835(4)
O9 O 0.9619(5) 0.4719(3) 0.2546(3)
O10 O 1.3580(5) 0.3825(3) 0.0981(3)
O11 O 1.3516(4) 0.2708(3) 0.0965(3)
O12 O 0.8998(4) 0.2088(3) 0.2162(3)
O13 O 1.0208(6) 0.1575(3) 0.1525(3)
N1 N 1.0642(6) 0.4593(3) 0.2585(3)
N2 N 1.3146(5) 0.3266(3) 0.1130(3)
N3 N 0.9882(6) 0.2080(3) 0.1866(3)
C1 C 0.7251(6) 0.3975(3) 0.4547(4)
C2 C 0.6001(5) 0.3042(3) 0.3766(4)
C3 C 0.4952(6) 0.3350(3) 0.4033(5)
C4 C 0.5081(6) 0.4137(3) 0.4105(4)
C5 C 0.5143(7) 0.4428(4) 0.3165(5)
C6 C 0.6198(6) 0.4099(3) 0.2896(4)
C7 C 0.7323(6) 0.4266(3) 0.3622(4)
C8 C 0.6207(7) 0.4297(4) 0.4825(4)
C9 C 0.6068(6) 0.3314(3) 0.2829(4)
C10 C 1.2177(5) 0.1974(3) 0.4681(3)
C11 C 1.0961(5) 0.0968(3) 0.4114(3)
C12 C 1.1177(6) 0.0692(3) 0.5099(4)
C13 C 1.2389(6) 0.0916(3) 0.5661(4)
C14 C 1.3354(6) 0.0642(4) 0.5227(5)
C15 C 1.3114(6) 0.0920(3) 0.4231(4)
C16 C 1.3134(6) 0.1707(3) 0.4248(4)
C17 C 1.2405(6) 0.1695(3) 0.5670(4)
C18 C 1.1906(6) 0.0683(3) 0.3678(4)
C19 C 0.8344(6) 0.4074(3) 0.5298(4)
C20 C 1.0404(7) 0.3933(4) 0.5656(5)
C21 C 1.1377(7) 0.3717(3) 0.5242(5)
C22 C 1.2137(6) 0.2752(3) 0.4639(4)
C23 C 0.9786(6) 0.0785(3) 0.3512(4)
C24 C 0.7777(6) 0.0910(3) 0.3227(4)
C25 C 0.6798(6) 0.1213(3) 0.3582(4)
C26 C 0.5921(6) 0.2271(3) 0.3805(4)
C27 C 1.0254(6) 0.3318(3) 0.2389(3)
C28 C 1.0919(6) 0.3924(3) 0.2262(4)
C29 C 1.1850(6) 0.3901(3) 0.1866(4)
C30 C 1.2161(6) 0.3283(3) 0.1536(4)
C31 C 1.1504(6) 0.2692(3) 0.1548(4)
C32 C 1.0579(6) 0.2716(3) 0.1947(4)
H1 H 0.972(4) 0.027(3) 0.344(3)
H2 H 0.966(5) 0.095(3) 0.283(4)
H3 H 0.687(5) 0.107(3) 0.424(4)
H4 H 0.598(7) 0.100(4) 0.313(5)
H5 H 1.329(6) 0.015(4) 0.520(5)
H6 H 1.411(5) 0.080(3) 0.564(4)
H7 H 1.370(7) 0.075(4) 0.400(5)
H8 H 1.167(5) 0.233(3) 0.131(4)
H9 H 1.182(5) 0.016(3) 0.367(4)
H10 H 1.176(5) 0.081(3) 0.310(4)
H11 H 1.228(5) 0.430(3) 0.182(4)
H12 H 1.046(6) 0.091(3) 0.544(4)
H13 H 1.120(5) 0.019(3) 0.504(3)
H14 H 1.193(6) 0.294(3) 0.403(4)
H15 H 1.297(5) 0.295(3) 0.503(4)
H16 H 1.320(5) 0.188(3) 0.605(4)
H17 H 1.185(6) 0.187(3) 0.605(4)
H18 H 0.772(5) 0.108(3) 0.256(4)
H19 H 0.764(4) 0.045(3) 0.323(3)
H20 H 0.673(6) 0.311(4) 0.268(5)
H21 H 0.529(4) 0.320(2) 0.227(3)
H22 H 0.418(6) 0.319(3) 0.352(4)
H23 H 0.489(5) 0.321(3) 0.458(4)
H24 H 0.513(5) 0.209(3) 0.333(4)
H25 H 0.596(5) 0.209(3) 0.441(4)
H26 H 0.831(5) 0.383(3) 0.586(4)
H27 H 0.847(5) 0.457(3) 0.548(4)
H28 H 0.749(5) 0.473(3) 0.367(4)
H29 H 0.797(6) 0.407(3) 0.347(4)
H30 H 0.623(5) 0.411(3) 0.540(4)
H31 H 0.639(5) 0.476(3) 0.486(4)
H32 H 1.304(6) 0.195(3) 0.362(5)
H33 H 1.388(5) 0.187(3) 0.460(4)
H34 H 0.434(6) 0.434(3) 0.426(4)
H35 H 1.226(6) 0.379(3) 0.571(4)
H36 H 1.115(5) 0.395(3) 0.463(4)
H37 H 0.621(5) 0.429(3) 0.227(4)
H38 H 1.261(6) 0.074(3) 0.626(5)
H39 H 1.048(6) 0.438(4) 0.592(5)
H40 H 1.049(6) 0.369(3) 0.619(5)
H41 H 0.441(5) 0.429(3) 0.266(4)
H42 H 0.522(5) 0.497(3) 0.327(4)
O11A O 0.8516(4) 0.2292(3) 0.5965(3)
K1A K 1.40714(11) 0.24891(7) -0.0815(1)
loop_
_geom_bond_atom_site_label_1
_geom_bond_atom_site_label_2
_geom_bond_site_symmetry_1
_geom_bond_site_symmetry_2
K1 O1 1_555 1_555
O1 C1 1_555 1_555
O2 K1 1_555 1_555
O3 K1 1_555 1_555
O4 K1 1_555 1_555
O5 K1 1_555 1_555
O6 K1 1_555 1_555
O7 K1 1_555 1_555
O8 N1 1_555 1_555
O9 N1 1_555 1_555
O10 N2 1_555 1_555
O11 N2 1_555 1_555
O12 N3 1_555 1_555
O13 N3 1_555 1_555
N1 C28 1_555 1_555
N2 C30 1_555 1_555
N3 C32 1_555 1_555
C1 C7 1_555 1_555
C2 O1 1_555 1_555
C3 C2 1_555 1_555
C4 C3 1_555 1_555
C5 C4 1_555 1_555
C6 C5 1_555 1_555
C7 C6 1_555 1_555
C8 C1 1_555 1_555
C9 C2 1_555 1_555
C10 O2 1_555 1_555
C11 O2 1_555 1_555
C12 C11 1_555 1_555
C13 C12 1_555 1_555
C14 C13 1_555 1_555
C15 C14 1_555 1_555
C16 C10 1_555 1_555
C17 C10 1_555 1_555
C18 C11 1_555 1_555
C19 O3 1_555 1_555
C20 O3 1_555 1_555
C21 O4 1_555 1_555
C22 O4 1_555 1_555
C23 O5 1_555 1_555
C24 O5 1_555 1_555
C25 O6 1_555 1_555
C26 O6 1_555 1_555
C27 O7 1_555 1_555
C28 C27 1_555 1_555
C29 C28 1_555 1_555
C30 C29 1_555 1_555
C31 C30 1_555 1_555
C32 C27 1_555 1_555
H1 C23 1_555 1_555
H2 C23 1_555 1_555
H3 C25 1_555 1_555
H4 C25 1_555 1_555
H5 C14 1_555 1_555
H6 C14 1_555 1_555
H7 C15 1_555 1_555
H8 C31 1_555 1_555
H9 C18 1_555 1_555
H10 C18 1_555 1_555
H11 C29 1_555 1_555
H12 C12 1_555 1_555
H13 C12 1_555 1_555
H14 C22 1_555 1_555
H15 C22 1_555 1_555
H16 C17 1_555 1_555
H17 C17 1_555 1_555
H18 C24 1_555 1_555
H19 C24 1_555 1_555
H20 C9 1_555 1_555
H21 C9 1_555 1_555
H22 C3 1_555 1_555
H23 C3 1_555 1_555
H24 C26 1_555 1_555
H25 C26 1_555 1_555
H26 C19 1_555 1_555
H27 C19 1_555 1_555
H28 C7 1_555 1_555
H29 C7 1_555 1_555
H30 C8 1_555 1_555
H31 C8 1_555 1_555
H32 C16 1_555 1_555
H33 C16 1_555 1_555
H34 C4 1_555 1_555
H35 C21 1_555 1_555
H36 C21 1_555 1_555
H37 C6 1_555 1_555
H38 C13 1_555 1_555
H39 C20 1_555 1_555
H40 C20 1_555 1_555
H41 C5 1_555 1_555
H42 C5 1_555 1_555
O11A K1 1_555 1_555
K1A O11 1_555 1_555
C1 C19 1_555 1_555
C2 C26 1_555 1_555
C4 C8 1_555 1_555
C6 C9 1_555 1_555
C10 C22 1_555 1_555
C11 C23 1_555 1_555
C13 C17 1_555 1_555
C15 C16 1_555 1_555
C15 C18 1_555 1_555
C20 C21 1_555 1_555
C24 C25 1_555 1_555
C31 C32 1_555 1_555

#END
