
#######################################################################
#
#                 Cambridge Crystallographic Data Centre
#                                CCDC 
#
#######################################################################
#
# If this CIF has been generated from an entry in the Cambridge 
# Structural Database, then it will include bibliographic, chemical, 
# crystal, experimental, refinement or atomic coordinate data resulting 
# from the CCDC's data processing and validation procedures.
#
#######################################################################

data_OBICOS
_symmetry_cell_setting           monoclinic
_symmetry_space_group_name_H-M   'C 2/c'
_symmetry_Int_Tables_number      15
_space_group_name_Hall           '-C 2yn'
loop_
_symmetry_equiv_pos_site_id
_symmetry_equiv_pos_as_xyz
1 x,y,z
2 1/2+x,1/2+y,z
3 x,-y,1/2+z
4 1/2+x,1/2-y,1/2+z
5 -x,-y,-z
6 1/2-x,1/2-y,-z
7 -x,y,1/2-z
8 1/2-x,1/2+y,1/2-z
_cell_length_a                   16.9697(7)
_cell_length_b                   8.0273(4)
_cell_length_c                   16.3797(8)
_cell_angle_alpha                90
_cell_angle_beta                 117.762(2)
_cell_angle_gamma                90
_cell_volume                     1974.42
loop_
_atom_site_label
_atom_site_type_symbol
_atom_site_fract_x
_atom_site_fract_y
_atom_site_fract_z
Al1 Al 0.17208(5) 0.28123(10) -0.08761(6)
P1 P 0.22021(5) 0.53834(8) 0.06690(5)
O1 O 0.15123(12) 0.4597(2) -0.02323(13)
O2 O 0.28867(13) 0.4091(2) 0.13013(13)
O3 O 0.17532(13) 0.6246(2) 0.11707(14)
C1 C 0.28071(18) 0.6922(3) 0.03922(19)
H1 H 0.3212 0.6366 0.0215
H2 H 0.3161 0.7584 0.0937
F1 F 0.29237(10) 0.33941(18) -0.02287(10)
F2 F 0.15922(11) 0.4069(2) -0.18119(11)
F3 F 0.06272(11) 0.2169(2) -0.13153(12)
C1E C 0.21929(18) 0.8078(3) -0.03922(19)
P1E P 0.27979(5) 0.96166(8) -0.06690(5)
O1E O 0.34877(12) 1.0403(2) 0.02323(13)
O2E O 0.21133(13) 1.0909(2) -0.13013(13)
O3E O 0.32468(13) 0.8754(2) -0.11707(14)
H1E H 0.1788 0.8634 -0.0215
H2E H 0.1839 0.7416 -0.0937
F1E F 0.20763(10) 0.16059(18) 0.02287(10)
Al1E Al 0.32792(5) 1.21877(10) 0.08761(6)
F2E F 0.34078(11) 1.0931(2) 0.18119(11)
F3E F 0.43728(11) 1.2831(2) 0.13153(12)
O2E_2 O 0.21133(13) 0.0909(2) -0.13013(13)
Al1E_2 Al 0.32792(5) 0.21877(10) 0.08761(6)
Al1_2 Al 0.17208(5) 1.28123(10) -0.08761(6)
O2_2 O 0.28867(13) 1.4091(2) 0.13013(13)
F1_2 F 0.29237(10) 1.33941(18) -0.02287(10)
F1E_2 F 0.20763(10) 1.16059(18) 0.02287(10)
O4 O 0.00000 1.0541(4) 0.25000
N1 N 0.04054(16) 1.4887(3) 0.13984(17)
H5 H 0.0661 1.4948 0.2011
H6 H -0.0125 1.5382 0.1159
H7 H 0.0748 1.5395 0.1197
N2 N 0.18818(17) 0.9428(3) 0.18349(17)
H8 H 0.1981 0.9411 0.2418
H9 H 0.2338 0.9918 0.1804
H10 H 0.1824 0.8389 0.1625
C2 C 0.0291(2) 1.3104(4) 0.1110(2)
H11 H 0.0101 1.3036 0.0453
H12 H -0.0169 1.2605 0.1224
C3 C 0.11468(19) 1.2149(4) 0.1628(2)
H13 H 0.1306 1.2125 0.2279
H14 H 0.162 1.2711 0.1563
C4 C 0.1057(2) 1.0366(3) 0.1267(2)
H15 H 0.0556 0.9824 0.129
H16 H 0.0945 1.0382 0.063
H3? H -0.0545 1.0541 0.2377
H4? H 0.0092 0.9672 0.226
loop_
_geom_bond_atom_site_label_1
_geom_bond_atom_site_label_2
_geom_bond_site_symmetry_1
_geom_bond_site_symmetry_2
Al1 O1 1_555 1_555
P1 O1 1_555 1_555
O2 P1 1_555 1_555
O3 P1 1_555 1_555
C1 P1 1_555 1_555
H1 C1 1_555 1_555
H2 C1 1_555 1_555
F1 Al1 1_555 1_555
F2 Al1 1_555 1_555
F3 Al1 1_555 1_555
N1 H5 1_555 1_555
H6 N1 1_555 1_555
H7 N1 1_555 1_555
N2 H8 1_555 1_555
H9 N2 1_555 1_555
H10 N2 1_555 1_555
C2 N1 1_555 1_555
H11 C2 1_555 1_555
H12 C2 1_555 1_555
C3 C2 1_555 1_555
H13 C3 1_555 1_555
H14 C3 1_555 1_555
C4 N2 1_555 1_555
H15 C4 1_555 1_555
H16 C4 1_555 1_555
C1E C1 1_555 1_555
P1E C1E 1_555 1_555
O1E P1E 1_555 1_555
O2E P1E 1_555 1_555
O3E P1E 1_555 1_555
H1E C1E 1_555 1_555
H2E C1E 1_555 1_555
F1E Al1 1_555 1_555
Al1E O1E 1_555 1_555
F2E Al1E 1_555 1_555
F3E Al1E 1_555 1_555
O2E_2 Al1 1_555 1_555
Al1E_2 O2 1_555 1_555
Al1_2 O2E 1_555 1_555
O2_2 Al1E 1_555 1_555
F1_2 Al1E 1_555 1_555
F1E_2 Al1E 1_555 1_555
F1 Al1E_2 1_555 1_555
C3 C4 1_555 1_555
F1E Al1E_2 1_555 1_555
Al1_2 F1_2 1_555 1_555
Al1_2 F1E_2 1_555 1_555

#END
