
#######################################################################
#
#                 Cambridge Crystallographic Data Centre
#                                CCDC 
#
#######################################################################
#
# If this CIF has been generated from an entry in the Cambridge 
# Structural Database, then it will include bibliographic, chemical, 
# crystal, experimental, refinement or atomic coordinate data resulting 
# from the CCDC's data processing and validation procedures.
#
#######################################################################

data_OBICAE
_symmetry_cell_setting           monoclinic
_symmetry_space_group_name_H-M   'P 21/n'
_symmetry_Int_Tables_number      14
_space_group_name_Hall           '-P 2yn'
loop_
_symmetry_equiv_pos_site_id
_symmetry_equiv_pos_as_xyz
1 x,y,z
2 1/2+x,1/2-y,1/2+z
3 -x,-y,-z
4 1/2-x,1/2+y,1/2-z
_cell_length_a                   11.4507(9)
_cell_length_b                   9.1139(5)
_cell_length_c                   16.3485(12)
_cell_angle_alpha                90
_cell_angle_beta                 100.178(6)
_cell_angle_gamma                90
_cell_volume                     1679.29
loop_
_atom_site_label
_atom_site_type_symbol
_atom_site_fract_x
_atom_site_fract_y
_atom_site_fract_z
Co1 Co 0.320286(14) 0.012576(17) 0.380049(10)
O1 O 0.15840(8) 0.11133(10) 0.32159(5)
O2 O 0.30204(9) 0.08761(11) 0.49941(6)
H1 H 0.362(2) 0.103(3) 0.5345(15)
H2 H 0.268(2) 0.167(3) 0.4852(16)
O3 O 0.15941(9) 0.29210(10) 0.41423(6)
O4 O 0.13308(8) 0.42070(10) 0.22927(5)
O5 O 0.00588(8) 0.39164(11) 0.11322(5)
N1 N 0.41434(9) 0.20461(12) 0.36509(6)
N2 N 0.44388(9) 0.41888(12) 0.31096(7)
H3 H 0.4346 0.4936 0.2764
N3 N 0.22442(10) -0.17466(12) 0.40034(7)
N4 N 0.16075(10) -0.40188(12) 0.39990(7)
H4 H 0.1613 -0.4984 0.3985
C1 C 0.37849(11) 0.29558(15) 0.30359(8)
H5 H 0.3144 0.2767 0.2594
C2 C 0.52797(11) 0.40778(14) 0.38207(8)
C3 C 0.50839(11) 0.27401(14) 0.41474(8)
H6 H 0.5529 0.2344 0.4644
C4 C 0.61702(14) 0.52431(17) 0.40925(10)
H7 H 0.6750 0.4888 0.4565
H8 H 0.5770 0.6115 0.4260
H9 H 0.6578 0.5495 0.3633
C5 C 0.25381(12) -0.31400(14) 0.39639(8)
H10 H 0.3308 -0.3478 0.3917
C6 C 0.06471(12) -0.31536(15) 0.40613(8)
C7 C 0.10576(12) -0.17529(15) 0.40657(8)
H11 H 0.0594 -0.0900 0.4106
C8 C -0.05561(14) -0.37545(18) 0.40826(11)
H12 H -0.1098 -0.2948 0.4149
H13 H -0.0514 -0.4436 0.4551
H14 H -0.0849 -0.4275 0.3562
C9 C 0.11171(11) 0.21934(13) 0.35265(7)
C10 C -0.01611(11) 0.25197(13) 0.31698(7)
C11 C -0.09952(12) 0.20446(16) 0.36382(9)
H15 H -0.0738 0.1554 0.4151
C12 C -0.21950(13) 0.22822(18) 0.33623(10)
H16 H -0.2757 0.1951 0.3685
C13 C -0.25760(12) 0.30015(19) 0.26174(10)
H17 H -0.3398 0.3180 0.2433
C14 C -0.17569(11) 0.34609(16) 0.21412(8)
H18 H -0.2022 0.3942 0.1626
C15 C -0.05443(11) 0.32234(14) 0.24112(7)
C16 C 0.03270(11) 0.38054(13) 0.19142(7)
O4C O 0.36692(8) -0.07930(10) 0.27073(5)
Co1C Co 0.179714(14) 0.512576(17) 0.119951(10)
O5C O 0.49412(8) -0.10836(11) 0.38678(5)
loop_
_geom_bond_atom_site_label_1
_geom_bond_atom_site_label_2
_geom_bond_site_symmetry_1
_geom_bond_site_symmetry_2
Co1 O1 1_555 1_555
O1 C9 1_555 1_555
O2 Co1 1_555 1_555
H1 O2 1_555 1_555
H2 O2 1_555 1_555
O3 C9 1_555 1_555
O4 C16 1_555 1_555
O5 C16 1_555 1_555
N1 Co1 1_555 1_555
N2 H3 1_555 1_555
N3 Co1 1_555 1_555
N4 H4 1_555 1_555
C1 N1 1_555 1_555
H5 C1 1_555 1_555
C2 N2 1_555 1_555
C3 N1 1_555 1_555
H6 C3 1_555 1_555
C4 C2 1_555 1_555
H7 C4 1_555 1_555
H8 C4 1_555 1_555
H9 C4 1_555 1_555
C5 N3 1_555 1_555
H10 C5 1_555 1_555
C6 N4 1_555 1_555
C7 N3 1_555 1_555
H11 C7 1_555 1_555
C8 C6 1_555 1_555
H12 C8 1_555 1_555
H13 C8 1_555 1_555
H14 C8 1_555 1_555
C9 C10 1_555 1_555
C10 C11 1_555 1_555
C11 H15 1_555 1_555
C12 C11 1_555 1_555
H16 C12 1_555 1_555
C13 C12 1_555 1_555
H17 C13 1_555 1_555
C14 C13 1_555 1_555
H18 C14 1_555 1_555
C15 C10 1_555 1_555
C16 C15 1_555 1_555
O4C Co1 1_555 1_555
Co1C O4 1_555 1_555
O5C Co1 1_555 1_555
O5 Co1C 1_555 1_555
N2 C1 1_555 1_555
N4 C5 1_555 1_555
C2 C3 1_555 1_555
C6 C7 1_555 1_555
C14 C15 1_555 1_555

#END
