
#######################################################################
#
#                 Cambridge Crystallographic Data Centre
#                                CCDC 
#
#######################################################################
#
# If this CIF has been generated from an entry in the Cambridge 
# Structural Database, then it will include bibliographic, chemical, 
# crystal, experimental, refinement or atomic coordinate data resulting 
# from the CCDC's data processing and validation procedures.
#
#######################################################################

data_OBIFUB
_symmetry_cell_setting           triclinic
_symmetry_space_group_name_H-M   'P -1'
_symmetry_Int_Tables_number      2
_space_group_name_Hall           '-P 1'
loop_
_symmetry_equiv_pos_site_id
_symmetry_equiv_pos_as_xyz
1 x,y,z
2 -x,-y,-z
_cell_length_a                   10.8130(12)
_cell_length_b                   10.8971(14)
_cell_length_c                   18.628(2)
_cell_angle_alpha                95.161(2)
_cell_angle_beta                 94.963(2)
_cell_angle_gamma                111.134(2)
_cell_volume                     2022.23
loop_
_atom_site_label
_atom_site_type_symbol
_atom_site_fract_x
_atom_site_fract_y
_atom_site_fract_z
Eu1 Eu -0.18649(5) 0.30400(5) -0.25949(3)
C1 C -0.5434(18) 0.3232(19) -0.4082(11)
N1 N -0.3414(8) -0.0094(8) -0.3398(5)
O1 O -0.3646(8) 0.2915(8) -0.3475(5)
F1 F -0.5895(12) 0.4057(14) -0.4396(8)
S1 S 0.0336(7) 0.7807(5) -0.2964(3)
C2 C -0.3982(13) 0.3764(14) -0.3753(7)
N2 N -0.8954(9) -0.5837(8) -0.3287(5)
O2 O -0.1279(8) 0.5042(7) -0.3125(4)
F2 F -0.6320(12) 0.256(2) -0.3729(8)
S2 S -0.5414(9) 0.5299(8) -0.0953(4)
C3 C -0.3245(15) 0.5075(14) -0.3759(8)
H1 H -0.3632 0.5600 -0.3984
O3 O -0.3804(8) 0.1554(7) -0.2154(4)
F3 F -0.5694(15) 0.222(2) -0.4583(9)
S3 S 0.1322(5) 0.7198(4) -0.1054(2)
C4 C -0.1914(14) 0.5647(12) -0.3431(7)
O4 O -0.2842(8) 0.4287(8) -0.1906(4)
F4 F -0.6363(11) -0.0320(13) -0.2414(9)
C5 C -0.1191(14) 0.7109(14) -0.3467(7)
O5 O -0.1017(7) 0.1823(7) -0.1832(4)
F5 F -0.6751(12) 0.0464(10) -0.1444(9)
C6 C -0.1591(14) 0.7952(14) -0.3869(8)
H2 H -0.2348 0.7729 -0.4208
O6 O -0.0108(7) 0.4555(7) -0.1751(4)
F6 F -0.5302(12) -0.0351(12) -0.1435(10)
O7 O -0.2361(7) 0.1038(7) -0.3399(4)
F7 F 0.1061(14) 0.1188(10) -0.0536(8)
C7 C -0.056(2) 0.925(2) -0.3641(12)
H3 H -0.0637 1.0011 -0.3801
O8 O -1.0029(7) -0.6925(7) -0.3254(4)
F8 F 0.0448(19) 0.0251(16) -0.1549(8)
C8 C 0.045(2) 0.932(2) -0.3212(12)
H4 H 0.1169 1.0104 -0.3050
C9 C -0.5853(16) 0.0367(16) -0.1792(14)
F9 F -0.0937(12) 0.0096(10) -0.0882(9)
C10 C -0.4744(12) 0.1713(12) -0.1878(7)
C11 C -0.4912(12) 0.2835(13) -0.1650(7)
H6 H -0.5714 0.2784 -0.1484
C12 C -0.3884(13) 0.4126(12) -0.1654(6)
C13 C -0.377(2) 0.565(3) -0.1310(7)
C14 C -0.2829(7) 0.6791(6) -0.1268(4)
H7 H -0.1977 0.7068 -0.1409
C15 C -0.3636(15) 0.7547(17) -0.0893(8)
H8 H -0.3259 0.8467 -0.0788
C16 C -0.4825(16) 0.6912(16) -0.0727(9)
H9 H -0.5309 0.7346 -0.0495
C17 C 0.0148(16) 0.0946(14) -0.1071(9)
C18 C -0.0085(12) 0.2138(11) -0.1314(6)
C19 C 0.0714(12) 0.3400(12) -0.0961(6)
H10 H 0.1351 0.3482 -0.0572
C20 C 0.0576(10) 0.4541(10) -0.1183(6)
C21 C 0.1285(10) 0.5801(11) -0.0713(6)
C22 C 0.1970(8) 0.6056(9) 0.0046(4)
H11 H 0.2085 0.5441 0.0334
C23 C 0.2408(13) 0.7460(17) 0.0228(7)
H12 H 0.2851 0.7876 0.0686
C24 C 0.2159(14) 0.8154(14) -0.0283(8)
H13 H 0.2423 0.9073 -0.0218
C25 C -0.3363(12) -0.0873(12) -0.2899(7)
H14 H -0.2613 -0.0644 -0.2556
C26 C -0.4439(11) -0.2020(11) -0.2899(7)
H15 H -0.4400 -0.2562 -0.2546
C27 C -0.5560(10) -0.2413(10) -0.3386(6)
C28 C -0.6742(10) -0.3626(9) -0.3371(6)
C29 C -0.6849(12) -0.4343(12) -0.2800(7)
H16 H -0.6143 -0.4084 -0.2426
C30 C -0.7960(11) -0.5424(11) -0.2762(7)
H17 H -0.8013 -0.5874 -0.2358
C31 C -0.8883(11) -0.5187(11) -0.3855(6)
H18 H -0.9593 -0.5487 -0.4228
C32 C -0.7786(11) -0.4079(11) -0.3911(6)
H19 H -0.7759 -0.3639 -0.4318
C33 C -0.5539(11) -0.1558(11) -0.3899(6)
H20 H -0.6265 -0.1772 -0.4257
C34 C -0.4457(11) -0.0400(11) -0.3883(6)
H21 H -0.4469 0.0173 -0.4222
O8_2 O -0.0029(7) 0.3075(7) -0.3254(4)
Eu1_2 Eu -1.18649(5) -0.69600(5) -0.25949(3)
O9 O -0.1954(14) 0.2184(14) -0.4789(6)
H5 H -0.2745 0.1754 -0.4769
C35 C -0.137(3) 0.138(3) -0.5036(13)
H22 H -0.0417 0.1846 -0.4981
H23 H -0.1692 0.1063 -0.5541
H24 H -0.1570 0.0633 -0.4765
loop_
_geom_bond_atom_site_label_1
_geom_bond_atom_site_label_2
_geom_bond_site_symmetry_1
_geom_bond_site_symmetry_2
Eu1 O1 1_555 1_555
C1 F1 1_555 1_555
N1 O7 1_555 1_555
O1 C2 1_555 1_555
S1 C5 1_555 1_555
C2 C1 1_555 1_555
N2 O8 1_555 1_555
O2 Eu1 1_555 1_555
F2 C1 1_555 1_555
S2 C13 1_555 1_555
C3 C2 1_555 1_555
H1 C3 1_555 1_555
O3 Eu1 1_555 1_555
F3 C1 1_555 1_555
S3 C21 1_555 1_555
C4 O2 1_555 1_555
O4 Eu1 1_555 1_555
F4 C9 1_555 1_555
C5 C4 1_555 1_555
O5 Eu1 1_555 1_555
F5 C9 1_555 1_555
C6 C5 1_555 1_555
H2 C6 1_555 1_555
O6 Eu1 1_555 1_555
F6 C9 1_555 1_555
O7 Eu1 1_555 1_555
F7 C17 1_555 1_555
C7 C6 1_555 1_555
H3 C7 1_555 1_555
O8 Eu1_2 1_555 1_555
F8 C17 1_555 1_555
C8 S1 1_555 1_555
H4 C8 1_555 1_555
C9 C10 1_555 1_555
O9 H5 1_555 1_555
F9 C17 1_555 1_555
C10 O3 1_555 1_555
C11 C10 1_555 1_555
H6 C11 1_555 1_555
C12 O4 1_555 1_555
C13 C12 1_555 1_555
C14 C13 1_555 1_555
H7 C14 1_555 1_555
C15 C14 1_555 1_555
H8 C15 1_555 1_555
C16 S2 1_555 1_555
H9 C16 1_555 1_555
C17 C18 1_555 1_555
C18 O5 1_555 1_555
C19 C18 1_555 1_555
H10 C19 1_555 1_555
C20 O6 1_555 1_555
C21 C20 1_555 1_555
C22 C21 1_555 1_555
H11 C22 1_555 1_555
C23 C22 1_555 1_555
H12 C23 1_555 1_555
C24 S3 1_555 1_555
H13 C24 1_555 1_555
C25 N1 1_555 1_555
H14 C25 1_555 1_555
C26 C25 1_555 1_555
H15 C26 1_555 1_555
C27 C26 1_555 1_555
C28 C27 1_555 1_555
C29 C28 1_555 1_555
H16 C29 1_555 1_555
C30 N2 1_555 1_555
H17 C30 1_555 1_555
C31 N2 1_555 1_555
H18 C31 1_555 1_555
C32 C28 1_555 1_555
H19 C32 1_555 1_555
C33 C27 1_555 1_555
H20 C33 1_555 1_555
C34 N1 1_555 1_555
H21 C34 1_555 1_555
C35 O9 1_555 1_555
H22 C35 1_555 1_555
H23 C35 1_555 1_555
H24 C35 1_555 1_555
O8_2 Eu1 1_555 1_555
C3 C4 1_555 1_555
C7 C8 1_555 1_555
C11 C12 1_555 1_555
C15 C16 1_555 1_555
C19 C20 1_555 1_555
C23 C24 1_555 1_555
C29 C30 1_555 1_555
C31 C32 1_555 1_555
C33 C34 1_555 1_555

#END
