
#######################################################################
#
#                 Cambridge Crystallographic Data Centre
#                                CCDC 
#
#######################################################################
#
# If this CIF has been generated from an entry in the Cambridge 
# Structural Database, then it will include bibliographic, chemical, 
# crystal, experimental, refinement or atomic coordinate data resulting 
# from the CCDC's data processing and validation procedures.
#
#######################################################################

data_OBIJOZ
_symmetry_cell_setting           triclinic
_symmetry_space_group_name_H-M   'P -1'
_symmetry_Int_Tables_number      2
_space_group_name_Hall           '-P 1'
loop_
_symmetry_equiv_pos_site_id
_symmetry_equiv_pos_as_xyz
1 x,y,z
2 -x,-y,-z
_cell_length_a                   6.7103(3)
_cell_length_b                   9.2963(4)
_cell_length_c                   9.9428(3)
_cell_angle_alpha                104.974(2)
_cell_angle_beta                 100.175(3)
_cell_angle_gamma                98.015(2)
_cell_volume                     578.477
loop_
_atom_site_label
_atom_site_type_symbol
_atom_site_fract_x
_atom_site_fract_y
_atom_site_fract_z
Ag1 Ag 0.15717(3) 0.25714(2) 0.34608(2)
N1 N 0.2316(3) 0.2640(3) 0.1345(2)
H1 H 0.1730 0.1696 0.0721
H2 H 0.1577 0.3307 0.1047
N2 N 0.8164(3) 0.1484(3) 0.3463(2)
H3 H 0.823(4) 0.144(3) 0.437(3)
H4 H 0.780(4) 0.064(3) 0.289(3)
N3 N 0.6948(4) 0.6682(2) 0.4137(2)
H5 H 0.783(5) 0.690(3) 0.377(3)
H6 H 0.606(5) 0.724(3) 0.399(3)
C1 C 0.4414(4) 0.3021(3) 0.1060(3)
H7 H 0.4252 0.2839 0.0007
C2 C 0.5837(4) 0.2007(3) 0.1526(2)
H8 H 0.5102 0.0937 0.1140
H9 H 0.7062 0.2109 0.1105
C3 C 0.6559(3) 0.2373(3) 0.3135(2)
H10 H 0.5360 0.2093 0.3550
C4 C 0.7473(4) 0.4063(3) 0.3802(3)
H11 H 0.7845 0.4283 0.4854
H12 H 0.8753 0.4313 0.3475
C5 C 0.5987(4) 0.5063(3) 0.3418(2)
H13 H 0.4723 0.4821 0.3783
C6 C 0.5343(4) 0.4705(3) 0.1793(2)
H14 H 0.6565 0.4996 0.1420
H15 H 0.4317 0.5320 0.1554
N2_2 N -0.1836(3) 0.1484(3) 0.3463(2)
Ag1_2 Ag 1.15717(3) 0.25714(2) 0.34608(2)
Ag1A Ag 0.84283(3) 0.74286(2) 0.65392(2)
N3A N 0.3052(4) 0.3318(2) 0.5863(2)
H5A H 0.217(5) 0.310(3) 0.623(3)
H6A H 0.394(5) 0.276(3) 0.601(3)
H3_2 H -0.177(4) 0.144(3) 0.437(3)
H4_2 H -0.220(4) 0.064(3) 0.289(3)
P1 P 0.17247(10) -0.18198(8) 0.22356(7)
F1 F 0.1341(3) -0.32370(18) 0.08467(16)
F2 F 0.1950(3) -0.2933(2) 0.32255(17)
F3 F 0.4149(2) -0.1580(2) 0.23144(19)
F4 F 0.1483(2) -0.07095(18) 0.12525(17)
F5 F -0.0711(3) -0.2050(2) 0.2153(2)
F6 F 0.2101(3) -0.04100(19) 0.36372(17)
loop_
_geom_bond_atom_site_label_1
_geom_bond_atom_site_label_2
_geom_bond_site_symmetry_1
_geom_bond_site_symmetry_2
Ag1 N1 1_555 1_555
N1 H1 1_555 1_555
H2 N1 1_555 1_555
N2 H3 1_555 1_555
H4 N2 1_555 1_555
N3 H5 1_555 1_555
H6 N3 1_555 1_555
C1 N1 1_555 1_555
H7 C1 1_555 1_555
C2 C1 1_555 1_555
H8 C2 1_555 1_555
H9 C2 1_555 1_555
C3 N2 1_555 1_555
H10 C3 1_555 1_555
C4 C3 1_555 1_555
H11 C4 1_555 1_555
H12 C4 1_555 1_555
C5 N3 1_555 1_555
H13 C5 1_555 1_555
C6 C1 1_555 1_555
H14 C6 1_555 1_555
H15 C6 1_555 1_555
P1 F1 1_555 1_555
F2 P1 1_555 1_555
F3 P1 1_555 1_555
F4 P1 1_555 1_555
F5 P1 1_555 1_555
F6 P1 1_555 1_555
N2_2 Ag1 1_555 1_555
Ag1_2 N2 1_555 1_555
Ag1A N3 1_555 1_555
N3A Ag1 1_555 1_555
H5A N3A 1_555 1_555
H6A N3A 1_555 1_555
H3_2 N2_2 1_555 1_555
H4_2 N2_2 1_555 1_555
C2 C3 1_555 1_555
C4 C5 1_555 1_555
C5 C6 1_555 1_555

#END
