
#######################################################################
#
#                 Cambridge Crystallographic Data Centre
#                                CCDC 
#
#######################################################################
#
# If this CIF has been generated from an entry in the Cambridge 
# Structural Database, then it will include bibliographic, chemical, 
# crystal, experimental, refinement or atomic coordinate data resulting 
# from the CCDC's data processing and validation procedures.
#
#######################################################################

data_OBIJIT
_symmetry_cell_setting           monoclinic
_symmetry_space_group_name_H-M   'P 21/n'
_symmetry_Int_Tables_number      14
_space_group_name_Hall           '-P 2yn'
loop_
_symmetry_equiv_pos_site_id
_symmetry_equiv_pos_as_xyz
1 x,y,z
2 1/2+x,1/2-y,1/2+z
3 -x,-y,-z
4 1/2-x,1/2+y,1/2-z
_cell_length_a                   8.2530(3)
_cell_length_b                   7.7035(3)
_cell_length_c                   15.8134(4)
_cell_angle_alpha                90
_cell_angle_beta                 104.786(2)
_cell_angle_gamma                90
_cell_volume                     972.076
loop_
_atom_site_label
_atom_site_type_symbol
_atom_site_fract_x
_atom_site_fract_y
_atom_site_fract_z
Ag1 Ag -0.488260(16) 0.576840(17) -0.231360(9)
N1 N -0.48970(19) 0.5938(2) -0.37148(11)
H1 H -0.5577 0.5066 -0.4006
H2 H -0.5391 0.6974 -0.3927
C1 C -0.3269(2) 0.5822(2) -0.39538(12)
H3 H -0.3425 0.6250 -0.4566
C2 C -0.2687(2) 0.3940(2) -0.39041(12)
H4 H -0.3523 0.3235 -0.4326
H5 H -0.2609 0.3482 -0.3310
C3 C -0.0987(2) 0.3774(2) -0.41094(12)
H6 H -0.1100 0.4129 -0.4730
C4 C 0.0308(2) 0.4936(2) -0.35086(12)
H7 H 0.1378 0.4866 -0.3681
H8 H 0.0512 0.4508 -0.2900
C5 C -0.0259(2) 0.6832(2) -0.35439(12)
H9 H -0.0374 0.7277 -0.4150
C6 C -0.1967(2) 0.6947(2) -0.33401(12)
H10 H -0.1857 0.6573 -0.2729
H11 H -0.2350 0.8170 -0.3393
N2 N -0.0421(2) 0.1944(2) -0.39967(11)
H12 H 0.051(3) 0.186(3) -0.4129(14)
H13 H -0.111(3) 0.135(3) -0.4367(15)
N3 N 0.0944(2) 0.7950(2) -0.29281(12)
H14 H 0.180(3) 0.811(3) -0.3130(15)
H15 H 0.121(3) 0.748(3) -0.2396(15)
N2C N -0.4579(2) 0.6944(2) -0.10033(11)
N3C N -0.5944(2) 0.2950(2) -0.20719(12)
Ag1C Ag -0.011740(16) 0.076840(17) -0.268640(9)
Ag1C_2 Ag -0.011740(16) 1.076840(17) -0.268640(9)
H12C H -0.551(3) 0.686(3) -0.0871(14)
H13C H -0.389(3) 0.635(3) -0.0633(15)
H14C H -0.680(3) 0.311(3) -0.1870(15)
H15C H -0.621(3) 0.248(3) -0.2604(15)
N4 N -0.3748(2) -0.0456(2) -0.59031(11)
O1 O -0.2731(2) 0.07853(19) -0.57088(11)
O2 O -0.5258(2) -0.0152(2) -0.61275(17)
O3 O -0.32279(19) -0.19869(18) -0.58912(10)
loop_
_geom_bond_atom_site_label_1
_geom_bond_atom_site_label_2
_geom_bond_site_symmetry_1
_geom_bond_site_symmetry_2
Ag1 N1 1_555 1_555
N1 H1 1_555 1_555
H2 N1 1_555 1_555
C1 N1 1_555 1_555
H3 C1 1_555 1_555
C2 C1 1_555 1_555
H4 C2 1_555 1_555
H5 C2 1_555 1_555
C3 C2 1_555 1_555
H6 C3 1_555 1_555
C4 C3 1_555 1_555
H7 C4 1_555 1_555
H8 C4 1_555 1_555
C5 C4 1_555 1_555
H9 C5 1_555 1_555
C6 C1 1_555 1_555
H10 C6 1_555 1_555
H11 C6 1_555 1_555
N2 C3 1_555 1_555
H12 N2 1_555 1_555
H13 N2 1_555 1_555
N3 C5 1_555 1_555
H14 N3 1_555 1_555
H15 N3 1_555 1_555
N4 O1 1_555 1_555
O2 N4 1_555 1_555
O3 N4 1_555 1_555
N2C Ag1 1_555 1_555
N3C Ag1 1_555 1_555
Ag1C N2 1_555 1_555
Ag1C_2 N3 1_555 1_555
H12C N2C 1_555 1_555
H13C N2C 1_555 1_555
H14C N3C 1_555 1_555
H15C N3C 1_555 1_555
C5 C6 1_555 1_555

#END
