
#######################################################################
#
#                 Cambridge Crystallographic Data Centre
#                                CCDC 
#
#######################################################################
#
# If this CIF has been generated from an entry in the Cambridge 
# Structural Database, then it will include bibliographic, chemical, 
# crystal, experimental, refinement or atomic coordinate data resulting 
# from the CCDC's data processing and validation procedures.
#
#######################################################################

data_OBILER
_symmetry_cell_setting           orthorhombic
_symmetry_space_group_name_H-M   'I b c a'
_symmetry_Int_Tables_number      73
_space_group_name_Hall           '-I 2b 2c'
loop_
_symmetry_equiv_pos_site_id
_symmetry_equiv_pos_as_xyz
1 x,y,z
2 1/2+x,1/2+y,1/2+z
3 1/2+x,y,1/2-z
4 x,1/2-y,1/2+z
5 1/2-x,1/2+y,z
6 x,1/2+y,-z
7 1/2+x,-y,z
8 -x,y,1/2+z
9 -x,-y,-z
10 1/2-x,1/2-y,1/2-z
11 1/2-x,-y,1/2+z
12 -x,1/2+y,1/2-z
13 1/2+x,1/2-y,-z
14 -x,1/2-y,z
15 1/2-x,y,-z
16 x,-y,1/2-z
_cell_length_a                   14.7025(2)
_cell_length_b                   16.2288(2)
_cell_length_c                   35.6620(5)
_cell_angle_alpha                90
_cell_angle_beta                 90
_cell_angle_gamma                90
_cell_volume                     8509.09
loop_
_atom_site_label
_atom_site_type_symbol
_atom_site_fract_x
_atom_site_fract_y
_atom_site_fract_z
Ag1 Ag -0.35758(4) 0.5000 0.2500
Ag2 Ag -0.04641(4) 0.5000 0.2500
Cl1 Cl -0.18937(16) 0.38128(13) 0.19776(7)
O1 O -0.2024(6) 0.4358(6) 0.2323(2)
O2 O -0.2862(5) 0.3653(7) 0.1982(3)
O3 O -0.1446(18) 0.3098(12) 0.2093(8)
O4 O -0.1659(18) 0.4331(15) 0.1679(6)
N1 N -0.3825(3) 0.5455(3) 0.19127(13)
N2 N -0.5264(3) 0.4092(3) 0.20438(13)
C1 C -0.4591(4) 0.4380(3) 0.10585(16)
C2 C -0.3253(4) 0.6034(3) 0.17769(18)
H1 H -0.2944 0.6375 0.1952
C3 C -0.3089(4) 0.6160(4) 0.14036(18)
H2 H -0.2689 0.6587 0.1326
C4 C -0.3511(4) 0.5663(4) 0.11389(17)
H3 H -0.3396 0.5729 0.0878
C5 C -0.4103(4) 0.5070(3) 0.12681(17)
C6 C -0.4251(4) 0.5000(3) 0.16524(16)
C7 C -0.4900(3) 0.4319(3) 0.17187(15)
C8 C -0.5088(3) 0.3951(3) 0.13776(15)
C9 C -0.5672(4) 0.3278(3) 0.13643(16)
H4 H -0.5823 0.3014 0.1135
C10 C -0.6021(4) 0.3013(3) 0.17046(16)
H5 H -0.6405 0.2543 0.1712
C11 C -0.5817(4) 0.3426(3) 0.20347(17)
H6 H -0.6074 0.3233 0.2263
C12 C -0.5237(4) 0.4585(3) 0.07379(16)
C13 C -0.5947(4) 0.5141(3) 0.07336(19)
H7 H -0.6072 0.5480 0.0944
C14 C -0.6479(4) 0.5189(4) 0.04081(19)
H8 H -0.6969 0.5570 0.0397
C15 C -0.6299(4) 0.4685(4) 0.01004(17)
H9 H -0.6669 0.4727 -0.0117
C16 C -0.5588(4) 0.4120(4) 0.01065(17)
H10 H -0.5470 0.3774 -0.0103
C17 C -0.5054(4) 0.4077(3) 0.04282(16)
C18 C -0.4242(4) 0.3573(3) 0.05092(16)
C19 C -0.3770(5) 0.2994(4) 0.02968(17)
H11 H -0.3979 0.2841 0.0055
C20 C -0.2994(4) 0.2650(4) 0.04458(19)
H12 H -0.2682 0.2236 0.0308
C21 C -0.2657(4) 0.2893(4) 0.07911(18)
H13 H -0.2099 0.2670 0.0880
C22 C -0.3124(4) 0.3459(3) 0.10085(17)
H14 H -0.2904 0.3619 0.1248
C23 C -0.3920(4) 0.3782(3) 0.08658(15)
Ag2B Ag -0.54641(4) 0.5000 0.2500
Ag1B Ag 0.14242(4) 0.5000 0.2500
O1O O -0.2024(6) 0.5642(6) 0.2677(2)
N1O N -0.3825(3) 0.4545(3) 0.30873(13)
C2O C -0.3253(4) 0.3966(3) 0.32231(18)
H1O H -0.2944 0.3625 0.3048
C3O C -0.3089(4) 0.3840(4) 0.35964(18)
H2O H -0.2689 0.3413 0.3674
C4O C -0.3511(4) 0.4337(4) 0.38611(17)
H3O H -0.3396 0.4271 0.4122
C5O C -0.4103(4) 0.4930(3) 0.37319(17)
C1O C -0.4591(4) 0.5620(3) 0.39415(16)
C8O C -0.5088(3) 0.6049(3) 0.36224(15)
C7O C -0.4900(3) 0.5681(3) 0.32813(15)
N2O N -0.5264(3) 0.5908(3) 0.29562(13)
C11O C -0.5817(4) 0.6574(3) 0.29653(17)
C10O C -0.6021(4) 0.6987(3) 0.32954(16)
C9O C -0.5672(4) 0.6722(3) 0.36357(16)
H4O H -0.5823 0.6986 0.3865
H5O H -0.6405 0.7457 0.3288
H6O H -0.6074 0.6767 0.2737
C6O C -0.4251(4) 0.5000(3) 0.33476(16)
C12O C -0.5237(4) 0.5415(3) 0.42621(16)
C13O C -0.5947(4) 0.4859(3) 0.42664(19)
H7O H -0.6072 0.4520 0.4056
C14O C -0.6479(4) 0.4811(4) 0.45919(19)
H8O H -0.6969 0.4430 0.4603
C15O C -0.6299(4) 0.5315(4) 0.48996(17)
H9O H -0.6669 0.5273 0.5117
C16O C -0.5588(4) 0.5880(4) 0.48935(17)
H10O H -0.5470 0.6226 0.5103
C17O C -0.5054(4) 0.5923(3) 0.45718(16)
C18O C -0.4242(4) 0.6427(3) 0.44908(16)
C19O C -0.3770(5) 0.7006(4) 0.47032(17)
H11O H -0.3979 0.7159 0.4945
C20O C -0.2994(4) 0.7350(4) 0.45542(19)
H12O H -0.2682 0.7764 0.4692
C21O C -0.2657(4) 0.7107(4) 0.42089(18)
H13O H -0.2099 0.7330 0.4120
C22O C -0.3124(4) 0.6541(3) 0.39915(17)
H14O H -0.2904 0.6381 0.3752
C23O C -0.3920(4) 0.6218(3) 0.41342(15)
Cl1O Cl -0.18937(16) 0.61872(13) 0.30224(7)
O2O O -0.2862(5) 0.6347(7) 0.3018(3)
O3O O -0.1446(18) 0.6902(12) 0.2907(8)
O4O O -0.1659(18) 0.5669(15) 0.3321(6)
N2B N -0.0264(3) 0.4092(3) 0.29562(13)
N2F N -0.0264(3) 0.5908(3) 0.20438(13)
N3 N 0.0000 0.2500 0.0663(3)
C24 C 0.0000 0.2500 0.0980(3)
C25 C 0.0000 0.2500 0.1378(4)
O5? O -0.0939(5) 0.3790(6) 0.2066(3)
O6? O -0.1999(6) 0.3056(5) 0.1760(3)
O7? O -0.2452(8) 0.3793(8) 0.2285(3)
O8? O -0.2007(8) 0.4447(6) 0.1711(3)
H15? H 0.0498 0.2550 0.1481
H16? H -0.0233 0.1971 0.1471
H17? H -0.0389 0.2947 0.1471
loop_
_geom_bond_atom_site_label_1
_geom_bond_atom_site_label_2
_geom_bond_site_symmetry_1
_geom_bond_site_symmetry_2
Ag1 O1 1_555 1_555
Ag2 O1 1_555 1_555
Cl1 O1 1_555 1_555
O2 Cl1 1_555 1_555
O3 Cl1 1_555 1_555
O4 Cl1 1_555 1_555
N1 Ag1 1_555 1_555
N2 C7 1_555 1_555
C1 C5 1_555 1_555
C2 N1 1_555 1_555
H1 C2 1_555 1_555
C3 C2 1_555 1_555
H2 C3 1_555 1_555
C4 C3 1_555 1_555
H3 C4 1_555 1_555
C5 C4 1_555 1_555
C6 N1 1_555 1_555
C7 C6 1_555 1_555
C8 C1 1_555 1_555
C9 C8 1_555 1_555
H4 C9 1_555 1_555
C10 C9 1_555 1_555
H5 C10 1_555 1_555
C11 N2 1_555 1_555
H6 C11 1_555 1_555
C12 C1 1_555 1_555
C13 C12 1_555 1_555
H7 C13 1_555 1_555
C14 C13 1_555 1_555
H8 C14 1_555 1_555
C15 C14 1_555 1_555
H9 C15 1_555 1_555
C16 C15 1_555 1_555
H10 C16 1_555 1_555
C17 C12 1_555 1_555
C18 C17 1_555 1_555
C19 C18 1_555 1_555
H11 C19 1_555 1_555
C20 C19 1_555 1_555
H12 C20 1_555 1_555
C21 C20 1_555 1_555
H13 C21 1_555 1_555
C22 C21 1_555 1_555
H14 C22 1_555 1_555
C23 C1 1_555 1_555
N3 C24 1_555 1_555
C24 C25 1_555 1_555
Ag2B Ag1 1_555 1_555
Ag1B Ag2 1_555 1_555
O1O Ag1 1_555 1_555
N1O Ag1 1_555 1_555
C2O N1O 1_555 1_555
H1O C2O 1_555 1_555
C3O C2O 1_555 1_555
H2O C3O 1_555 1_555
C4O C3O 1_555 1_555
H3O C4O 1_555 1_555
C5O C4O 1_555 1_555
C1O C5O 1_555 1_555
C8O C1O 1_555 1_555
C7O C8O 1_555 1_555
N2O Ag2B 1_555 1_555
C11O N2O 1_555 1_555
C10O C11O 1_555 1_555
C9O C8O 1_555 1_555
H4O C9O 1_555 1_555
H5O C10O 1_555 1_555
H6O C11O 1_555 1_555
C6O N1O 1_555 1_555
C12O C1O 1_555 1_555
C13O C12O 1_555 1_555
H7O C13O 1_555 1_555
C14O C13O 1_555 1_555
H8O C14O 1_555 1_555
C15O C14O 1_555 1_555
H9O C15O 1_555 1_555
C16O C15O 1_555 1_555
H10O C16O 1_555 1_555
C17O C12O 1_555 1_555
C18O C17O 1_555 1_555
C19O C18O 1_555 1_555
H11O C19O 1_555 1_555
C20O C19O 1_555 1_555
H12O C20O 1_555 1_555
C21O C20O 1_555 1_555
H13O C21O 1_555 1_555
C22O C21O 1_555 1_555
H14O C22O 1_555 1_555
C23O C1O 1_555 1_555
Cl1O O1O 1_555 1_555
O2O Cl1O 1_555 1_555
O3O Cl1O 1_555 1_555
O4O Cl1O 1_555 1_555
N2B Ag2 1_555 1_555
N2F Ag2 1_555 1_555
Ag2 O1O 1_555 1_555
N2 Ag2B 1_555 1_555
C5 C6 1_555 1_555
C7 C8 1_555 1_555
C10 C11 1_555 1_555
C16 C17 1_555 1_555
C18 C23 1_555 1_555
C22 C23 1_555 1_555
C5O C6O 1_555 1_555
C7O N2O 1_555 1_555
C7O C6O 1_555 1_555
C10O C9O 1_555 1_555
C16O C17O 1_555 1_555
C18O C23O 1_555 1_555
C22O C23O 1_555 1_555

#END
