
#######################################################################
#
#                 Cambridge Crystallographic Data Centre
#                                CCDC 
#
#######################################################################
#
# If this CIF has been generated from an entry in the Cambridge 
# Structural Database, then it will include bibliographic, chemical, 
# crystal, experimental, refinement or atomic coordinate data resulting 
# from the CCDC's data processing and validation procedures.
#
#######################################################################

data_OBIMUH
_symmetry_cell_setting           monoclinic
_symmetry_space_group_name_H-M   'P 21/c'
_symmetry_Int_Tables_number      14
_space_group_name_Hall           '-P 2ybc'
loop_
_symmetry_equiv_pos_site_id
_symmetry_equiv_pos_as_xyz
1 x,y,z
2 x,1/2-y,1/2+z
3 -x,-y,-z
4 -x,1/2+y,1/2-z
_cell_length_a                   18.547(4)
_cell_length_b                   26.947(5)
_cell_length_c                   21.668(4)
_cell_angle_alpha                90
_cell_angle_beta                 114.19(3)
_cell_angle_gamma                90
_cell_volume                     9878.45
loop_
_atom_site_label
_atom_site_type_symbol
_atom_site_fract_x
_atom_site_fract_y
_atom_site_fract_z
Ru1 Ru 0.23231(7) -0.03259(4) 0.40654(6)
Ru2 Ru -0.05771(8) -0.15257(4) 0.15299(6)
N1 N 0.2552(7) -0.0170(4) 0.3239(5)
N2 N 0.2209(6) 0.0432(4) 0.4146(6)
N3 N 0.2458(6) -0.0426(4) 0.5032(5)
N4 N 0.2692(7) -0.1046(4) 0.4101(6)
N5 N -0.0467(8) -0.1589(4) 0.0643(6)
N6 N 0.0334(8) -0.2023(4) 0.1916(6)
N7 N -0.0904(8) -0.1647(5) 0.2303(6)
N8 N -0.1602(7) -0.1136(4) 0.1081(6)
C1 C 0.2887(8) -0.0499(5) 0.2947(8)
C2 C 0.2706(9) -0.0342(5) 0.2295(7)
H1 H 0.2856 -0.0501 0.1973
C3 C 0.2268(9) 0.0089(5) 0.2194(8)
H2 H 0.2066 0.0281 0.1791
C4 C 0.2176(9) 0.0188(5) 0.2772(7)
C5 C 0.1699(9) 0.0625(4) 0.2885(7)
C6 C 0.2014(8) 0.0776(5) 0.3610(8)
C7 C 0.2132(9) 0.1246(5) 0.3890(8)
H3 H 0.2037 0.1548 0.3645
C8 C 0.2416(9) 0.1202(5) 0.4597(8)
H4 H 0.2555 0.1468 0.4912
C9 C 0.2458(8) 0.0696(6) 0.4752(7)
C10 C 0.2881(9) 0.0460(5) 0.5434(7)
C11 C 0.2561(8) -0.0051(5) 0.5502(7)
C12 C 0.2540(8) -0.0248(5) 0.6096(7)
H5 H 0.2613 -0.0075 0.6499
C13 C 0.2385(8) -0.0764(6) 0.5960(7)
H6 H 0.2321 -0.0999 0.6260
C14 C 0.2341(8) -0.0866(6) 0.5315(8)
C15 C 0.2157(9) -0.1375(5) 0.4938(7)
C16 C 0.2536(9) -0.1431(5) 0.4448(8)
C17 C 0.2776(9) -0.1869(5) 0.4262(8)
H7 H 0.2724 -0.2190 0.4421
C18 C 0.3121(9) -0.1759(5) 0.3784(7)
H8 H 0.3333 -0.1984 0.3565
C19 C 0.3064(9) -0.1228(5) 0.3724(8)
C20 C 0.3445(9) -0.0890(5) 0.3370(7)
C21 C 0.1774(9) 0.1070(4) 0.2457(6)
H9 H 0.1473 0.1353 0.2512
H10 H 0.1564 0.0974 0.1979
H11 H 0.2331 0.1163 0.2611
C22 C 0.0814(8) 0.0520(5) 0.2614(6)
H12 H 0.0720 0.0251 0.2877
H13 H 0.0616 0.0421 0.2138
H14 H 0.0537 0.0820 0.2654
C23 C 0.2837(10) 0.0806(5) 0.5993(7)
H15 H 0.3085 0.0641 0.6434
H16 H 0.2282 0.0877 0.5895
H17 H 0.3115 0.1117 0.6003
C24 C 0.3758(9) 0.0393(5) 0.5579(7)
H18 H 0.3804 0.0194 0.5219
H19 H 0.4028 0.0223 0.6014
H20 H 0.4001 0.0718 0.5598
C25 C 0.1262(8) -0.1432(5) 0.4575(7)
H21 H 0.1045 -0.1158 0.4255
H22 H 0.1029 -0.1426 0.4908
H23 H 0.1136 -0.1748 0.4330
C26 C 0.2456(9) -0.1778(5) 0.5484(8)
H24 H 0.2328 -0.2106 0.5271
H25 H 0.2201 -0.1738 0.5798
H26 H 0.3030 -0.1748 0.5733
C27 C 0.3722(9) -0.1225(5) 0.2912(7)
H27 H 0.3963 -0.1016 0.2678
H28 H 0.3265 -0.1399 0.2578
H29 H 0.4110 -0.1467 0.3195
C28 C 0.4164(8) -0.0652(5) 0.3909(7)
H30 H 0.4400 -0.0418 0.3697
H31 H 0.4551 -0.0909 0.4150
H32 H 0.4008 -0.0473 0.4229
C29 C -0.1044(10) -0.1508(5) 0.0003(8)
C30 C -0.0742(11) -0.1611(6) -0.0470(8)
H33 H -0.1022 -0.1592 -0.0948
C31 C 0.0054(12) -0.1749(6) -0.0119(8)
H34 H 0.0415 -0.1833 -0.0311
C32 C 0.0208(12) -0.1740(5) 0.0566(8)
C33 C 0.1029(10) -0.1813(5) 0.1152(8)
C34 C 0.1006(11) -0.2070(6) 0.1776(8)
C35 C 0.1547(10) -0.2389(6) 0.2248(9)
H35 H 0.2052 -0.2482 0.2274
C36 C 0.1196(15) -0.2544(6) 0.2674(9)
H36 H 0.1422 -0.2767 0.3043
C37 C 0.0448(13) -0.2314(6) 0.2466(10)
C38 C -0.0178(11) -0.2426(7) 0.2718(8)
C39 C -0.0554(10) -0.1984(6) 0.2828(9)
C40 C -0.0730(11) -0.1844(8) 0.3355(9)
H37 H -0.0567 -0.2011 0.3777
C41 C -0.1185(11) -0.1419(7) 0.3173(9)
H38 H -0.1385 -0.1235 0.3443
C42 C -0.1291(10) -0.1317(7) 0.2523(8)
C43 C -0.1777(11) -0.0852(7) 0.2136(8)
C44 C -0.2008(10) -0.0874(6) 0.1393(9)
C45 C -0.2632(11) -0.0629(7) 0.0905(9)
H39 H -0.3002 -0.0418 0.0977
C46 C -0.2618(11) -0.0751(7) 0.0271(9)
H40 H -0.2974 -0.0628 -0.0156
C47 C -0.2014(10) -0.1071(5) 0.0373(8)
C48 C -0.1882(11) -0.1412(5) -0.0131(7)
C49 C 0.1455(9) -0.1302(5) 0.1373(7)
H41 H 0.1563 -0.1163 0.1002
H42 H 0.1954 -0.1349 0.1771
H43 H 0.1115 -0.1074 0.1485
C50 C 0.1555(9) -0.2142(6) 0.0913(7)
H44 H 0.1351 -0.2482 0.0839
H45 H 0.2099 -0.2142 0.1260
H46 H 0.1547 -0.2009 0.0489
C51 C -0.0757(11) -0.2757(6) 0.2172(8)
H47 H -0.1216 -0.2823 0.2274
H48 H -0.0498 -0.3071 0.2156
H49 H -0.0931 -0.2590 0.1732
C52 C 0.0169(12) -0.2752(6) 0.3346(8)
H50 H 0.0588 -0.2571 0.3708
H51 H 0.0390 -0.3054 0.3239
H52 H -0.0247 -0.2842 0.3493
C53 C -0.2512(10) -0.0790(7) 0.2277(8)
H53 H -0.2849 -0.1084 0.2117
H54 H -0.2805 -0.0495 0.2039
H55 H -0.2355 -0.0751 0.2764
C54 C -0.1300(10) -0.0390(6) 0.2401(8)
H56 H -0.1197 -0.0347 0.2879
H57 H -0.1594 -0.0103 0.2142
H58 H -0.0797 -0.0419 0.2357
C55 C -0.2307(10) -0.1910(5) -0.0141(8)
H59 H -0.2136 -0.2035 0.0323
H60 H -0.2174 -0.2153 -0.0413
H61 H -0.2880 -0.1857 -0.0337
C56 C -0.2292(11) -0.1156(6) -0.0826(7)
H62 H -0.2865 -0.1153 -0.0959
H63 H -0.2173 -0.1339 -0.1164
H64 H -0.2099 -0.0815 -0.0795
C57 C 0.1364(8) -0.0514(5) 0.3567(6)
C58 C 0.0721(9) -0.0721(5) 0.3092(7)
H65 H 0.0327 -0.0853 0.3219
C59 C 0.0603(9) -0.0751(5) 0.2378(7)
H66 H 0.0920 -0.0549 0.2228
C60 C 0.0072(9) -0.1049(5) 0.1936(7)
Na1 Na 0.1544(3) -0.15623(18) 0.3036(3)
Na2 Na 0.0940(3) 0.08959(19) 0.4249(3)
O1 O -0.0309(7) 0.1161(4) 0.3474(6)
O2 O 0.0620(8) 0.1634(4) 0.4697(7)
O3 O 0.0392(5) 0.0332(3) 0.4730(5)
C61 C -0.0885(11) 0.0794(8) 0.3086(9)
H67 H -0.1083 0.0620 0.3382
H68 H -0.0638 0.0556 0.2892
H69 H -0.1326 0.0959 0.2721
C62 C -0.0661(13) 0.1474(7) 0.3773(9)
H70 H -0.0813 0.1290 0.4097
H71 H -0.1139 0.1631 0.3427
C63 C -0.0031(15) 0.1866(6) 0.4141(10)
H72 H 0.0164 0.2017 0.3822
H73 H -0.0265 0.2132 0.4316
C64 C 0.1218(13) 0.1987(7) 0.5104(12)
H74 H 0.1544 0.2082 0.4865
H75 H 0.1553 0.1834 0.5538
H76 H 0.0960 0.2282 0.5185
C65 C 0.0442(9) -0.0195(5) 0.4669(7)
H77 H 0.0904 -0.0325 0.5059
H78 H 0.0513 -0.0274 0.4251
C66 C 0.0301(9) 0.0436(5) 0.5356(7)
H79 H 0.0274 0.0799 0.5413
H80 H 0.0763 0.0306 0.5747
Na3 Na -0.1018(4) -0.0306(2) 0.1041(3)
O4 O -0.1553(9) 0.0492(5) 0.0845(8)
O5 O -0.0242(8) -0.0071(5) 0.0529(6)
C67 C -0.217(2) 0.0586(14) 0.0214(17)
H81 H -0.2609 0.0348 0.0135
H82 H -0.1985 0.0542 -0.0149
C68 C -0.2479(19) 0.1120(13) 0.0194(19)
H83 H -0.2586 0.1282 -0.0245
H84 H -0.2964 0.1128 0.0279
C69 C -0.1858(18) 0.1335(10) 0.0707(16)
H85 H -0.2054 0.1565 0.0960
H86 H -0.1538 0.1528 0.0522
C70 C -0.1377(19) 0.0954(9) 0.1155(12)
H87 H -0.0811 0.1030 0.1282
H88 H -0.1470 0.0949 0.1573
C71 C 0.0082(15) 0.0378(7) 0.0453(11)
H89 H 0.0665 0.0368 0.0696
H90 H -0.0121 0.0653 0.0639
C72 C 0.0154(14) -0.0456(8) 0.0303(14)
H91 H -0.0012 -0.0789 0.0386
H92 H 0.0734 -0.0428 0.0553
C66B C -0.0301(9) -0.0436(5) 0.4644(7)
C65B C -0.0442(9) 0.0195(5) 0.5331(7)
C72B C -0.0154(14) 0.0456(8) -0.0303(14)
C71B C -0.0082(15) -0.0378(7) -0.0453(11)
O3B O -0.0392(5) -0.0332(3) 0.5270(5)
H79B H -0.0274 -0.0799 0.4587
H80B H -0.0763 -0.0306 0.4253
H77B H -0.0904 0.0325 0.4941
H78B H -0.0513 0.0274 0.5749
O5B O 0.0242(8) 0.0071(5) -0.0529(6)
H89B H -0.0665 -0.0368 -0.0696
H90B H 0.0121 -0.0653 -0.0639
H91B H 0.0012 0.0789 -0.0386
H92B H -0.0734 0.0428 -0.0553
Na2B Na -0.0940(3) -0.08959(19) 0.5751(3)
Na3B Na 0.1018(4) 0.0306(2) -0.1041(3)
Ru2B Ru 0.05771(8) 0.15257(4) -0.15299(6)
N8B N 0.1602(7) 0.1136(4) -0.1081(6)
C44B C 0.2008(10) 0.0874(6) -0.1393(9)
C45B C 0.2632(11) 0.0629(7) -0.0905(9)
C46B C 0.2618(11) 0.0751(7) -0.0271(9)
C47B C 0.2014(10) 0.1071(5) -0.0373(8)
C60B C -0.0072(9) 0.1049(5) -0.1936(7)
O4B O 0.1553(9) -0.0492(5) -0.0845(8)
C43B C 0.1777(11) 0.0852(7) -0.2136(8)
H39B H 0.3002 0.0418 -0.0977
H40B H 0.2974 0.0628 0.0156
C48B C 0.1882(11) 0.1412(5) 0.0131(7)
C59B C -0.0603(9) 0.0751(5) -0.2378(7)
C67B C 0.217(2) -0.0586(14) -0.0214(17)
C70B C 0.1377(19) -0.0954(9) -0.1155(12)
C42B C 0.1291(10) 0.1317(7) -0.2523(8)
C53B C 0.2512(10) 0.0790(7) -0.2277(8)
C54B C 0.1300(10) 0.0390(6) -0.2401(8)
C29B C 0.1044(10) 0.1508(5) -0.0003(8)
C55B C 0.2307(10) 0.1910(5) 0.0141(8)
C56B C 0.2292(11) 0.1156(6) 0.0826(7)
C58B C -0.0721(9) 0.0721(5) -0.3092(7)
H66B H -0.0920 0.0549 -0.2228
Na1B Na -0.1544(3) 0.15623(18) -0.3036(3)
H81B H 0.2609 -0.0348 -0.0135
H82B H 0.1985 -0.0542 0.0149
C68B C 0.2479(19) -0.1120(13) -0.0194(19)
C69B C 0.1858(18) -0.1335(10) -0.0707(16)
H87B H 0.0811 -0.1030 -0.1282
H88B H 0.1470 -0.0949 -0.1573
N7B N 0.0904(8) 0.1647(5) -0.2303(6)
C41B C 0.1185(11) 0.1419(7) -0.3173(9)
H53B H 0.2849 0.1084 -0.2117
H54B H 0.2805 0.0495 -0.2039
H55B H 0.2355 0.0751 -0.2764
H56B H 0.1197 0.0347 -0.2879
H57B H 0.1594 0.0103 -0.2142
H58B H 0.0797 0.0419 -0.2357
N5B N 0.0467(8) 0.1589(4) -0.0643(6)
C30B C 0.0742(11) 0.1611(6) 0.0470(8)
H59B H 0.2136 0.2035 -0.0323
H60B H 0.2174 0.2153 0.0413
H61B H 0.2880 0.1857 0.0337
H62B H 0.2865 0.1153 0.0959
H63B H 0.2173 0.1339 0.1164
H64B H 0.2099 0.0815 0.0795
C57B C -0.1364(8) 0.0514(5) -0.3567(6)
H65B H -0.0327 0.0853 -0.3219
H83B H 0.2586 -0.1282 0.0245
H84B H 0.2964 -0.1128 -0.0279
H85B H 0.2054 -0.1565 -0.0960
H86B H 0.1538 -0.1528 -0.0522
C39B C 0.0554(10) 0.1984(6) -0.2828(9)
C40B C 0.0730(11) 0.1844(8) -0.3355(9)
H38B H 0.1385 0.1235 -0.3443
C32B C -0.0208(12) 0.1740(5) -0.0566(8)
H33B H 0.1022 0.1592 0.0948
C31B C -0.0054(12) 0.1749(6) 0.0119(8)
Ru1B Ru -0.23231(7) 0.03259(4) -0.40654(6)
C38B C 0.0178(11) 0.2426(7) -0.2718(8)
H37B H 0.0567 0.2011 -0.3777
C33B C -0.1029(10) 0.1813(5) -0.1152(8)
H34B H -0.0415 0.1833 0.0311
C37B C -0.0448(13) 0.2314(6) -0.2466(10)
C51B C 0.0757(11) 0.2757(6) -0.2172(8)
C52B C -0.0169(12) 0.2752(6) -0.3346(8)
C34B C -0.1006(11) 0.2070(6) -0.1776(8)
C49B C -0.1455(9) 0.1302(5) -0.1373(7)
C50B C -0.1555(9) 0.2142(6) -0.0913(7)
N6B N -0.0334(8) 0.2023(4) -0.1916(6)
C36B C -0.1196(15) 0.2544(6) -0.2674(9)
H47B H 0.1216 0.2823 -0.2274
H48B H 0.0498 0.3071 -0.2156
H49B H 0.0931 0.2590 -0.1732
H50B H -0.0588 0.2571 -0.3708
H51B H -0.0390 0.3054 -0.3239
H52B H 0.0247 0.2842 -0.3493
C35B C -0.1547(10) 0.2389(6) -0.2248(9)
H41B H -0.1563 0.1163 -0.1002
H42B H -0.1954 0.1349 -0.1771
H43B H -0.1115 0.1074 -0.1485
H44B H -0.1351 0.2482 -0.0839
H45B H -0.2099 0.2142 -0.1260
H46B H -0.1547 0.2009 -0.0489
H36B H -0.1422 0.2767 -0.3043
H35B H -0.2052 0.2482 -0.2274
N4B N -0.2692(7) 0.1046(4) -0.4101(6)
C16B C -0.2536(9) 0.1431(5) -0.4448(8)
C17B C -0.2776(9) 0.1869(5) -0.4262(8)
C18B C -0.3121(9) 0.1759(5) -0.3784(7)
C19B C -0.3064(9) 0.1228(5) -0.3724(8)
C15B C -0.2157(9) 0.1375(5) -0.4938(7)
H7B H -0.2724 0.2190 -0.4421
H8B H -0.3333 0.1984 -0.3565
C20B C -0.3445(9) 0.0890(5) -0.3370(7)
C14B C -0.2341(8) 0.0866(6) -0.5315(8)
C25B C -0.1262(8) 0.1432(5) -0.4575(7)
C26B C -0.2456(9) 0.1778(5) -0.5484(8)
C1B C -0.2887(8) 0.0499(5) -0.2947(8)
C27B C -0.3722(9) 0.1225(5) -0.2912(7)
C28B C -0.4164(8) 0.0652(5) -0.3909(7)
N3B N -0.2458(6) 0.0426(4) -0.5032(5)
C13B C -0.2385(8) 0.0764(6) -0.5960(7)
H21B H -0.1045 0.1158 -0.4255
H22B H -0.1029 0.1426 -0.4908
H23B H -0.1136 0.1748 -0.4330
H24B H -0.2328 0.2106 -0.5271
H25B H -0.2201 0.1738 -0.5798
H26B H -0.3030 0.1748 -0.5733
N1B N -0.2552(7) 0.0170(4) -0.3239(5)
C2B C -0.2706(9) 0.0342(5) -0.2295(7)
H27B H -0.3963 0.1016 -0.2678
H28B H -0.3265 0.1399 -0.2578
H29B H -0.4110 0.1467 -0.3195
H30B H -0.4400 0.0418 -0.3697
H31B H -0.4551 0.0909 -0.4150
H32B H -0.4008 0.0473 -0.4229
C11B C -0.2561(8) 0.0051(5) -0.5502(7)
C12B C -0.2540(8) 0.0248(5) -0.6096(7)
H6B H -0.2321 0.0999 -0.6260
C4B C -0.2176(9) -0.0188(5) -0.2772(7)
H1B H -0.2856 0.0501 -0.1973
C3B C -0.2268(9) -0.0089(5) -0.2194(8)
C10B C -0.2881(9) -0.0460(5) -0.5434(7)
H5B H -0.2613 0.0075 -0.6499
C5B C -0.1699(9) -0.0625(4) -0.2885(7)
H2B H -0.2066 -0.0281 -0.1791
C9B C -0.2458(8) -0.0696(6) -0.4752(7)
C23B C -0.2837(10) -0.0806(5) -0.5993(7)
C24B C -0.3758(9) -0.0393(5) -0.5579(7)
C6B C -0.2014(8) -0.0776(5) -0.3610(8)
C21B C -0.1774(9) -0.1070(4) -0.2457(6)
C22B C -0.0814(8) -0.0520(5) -0.2614(6)
N2B N -0.2209(6) -0.0432(4) -0.4146(6)
C8B C -0.2416(9) -0.1202(5) -0.4597(8)
Na2B_2 Na -0.0940(3) -0.08959(19) -0.4249(3)
H15B H -0.3085 -0.0641 -0.6434
H16B H -0.2282 -0.0877 -0.5895
H17B H -0.3115 -0.1117 -0.6003
H18B H -0.3804 -0.0194 -0.5219
H19B H -0.4028 -0.0223 -0.6014
H20B H -0.4001 -0.0718 -0.5598
C7B C -0.2132(9) -0.1246(5) -0.3890(8)
H9B H -0.1473 -0.1353 -0.2512
H10B H -0.1564 -0.0974 -0.1979
H11B H -0.2331 -0.1163 -0.2611
H12B H -0.0720 -0.0251 -0.2877
H13B H -0.0616 -0.0421 -0.2138
H14B H -0.0537 -0.0820 -0.2654
H4B H -0.2555 -0.1468 -0.4912
H3B H -0.2037 -0.1548 -0.3645
O1B O 0.0309(7) -0.1161(4) -0.3474(6)
O2B O -0.0620(8) -0.1634(4) -0.4697(7)
O3B_2 O -0.0392(5) -0.0332(3) -0.4730(5)
C61B C 0.0885(11) -0.0794(8) -0.3086(9)
C62B C 0.0661(13) -0.1474(7) -0.3773(9)
C63B C 0.0031(15) -0.1866(6) -0.4141(10)
C64B C -0.1218(13) -0.1987(7) -0.5104(12)
H67B H 0.1083 -0.0620 -0.3382
H68B H 0.0638 -0.0556 -0.2892
H69B H 0.1326 -0.0959 -0.2721
H70B H 0.0813 -0.1290 -0.4097
H71B H 0.1139 -0.1631 -0.3427
H72B H -0.0164 -0.2017 -0.3822
H73B H 0.0265 -0.2132 -0.4316
H74B H -0.1544 -0.2082 -0.4865
H75B H -0.1553 -0.1834 -0.5538
H76B H -0.0960 -0.2282 -0.5185
Na4 Na -0.4230(6) -0.2893(4) 0.1249(5)
O6 O -0.3100(14) -0.2385(8) 0.1718(13)
O7 O -0.3523(15) -0.2869(8) 0.2464(11)
O8 O -0.4632(10) -0.3696(6) 0.0902(7)
O9 O -0.4912(10) -0.4527(6) 0.1559(8)
O10 O -0.4429(9) -0.2720(5) 0.0198(7)
O11 O -0.4772(16) -0.2516(11) -0.1245(14)
C73 C -0.2858(17) -0.2194(10) 0.1210(14)
H93 H -0.3324 -0.2145 0.0785
H94 H -0.2498 -0.2431 0.1138
H95 H -0.2586 -0.1876 0.1362
C74 C -0.2796(19) -0.2446(12) 0.2259(17)
H96 H -0.2555 -0.2116 0.2408
H97 H -0.2352 -0.2657 0.2275
C75 C -0.2863(16) -0.2586(10) 0.2770(13)
H98 H -0.2950 -0.2307 0.3028
H99 H -0.2403 -0.2785 0.3068
C76 C -0.404(2) -0.3066(14) 0.2807(18)
H100 H -0.4489 -0.3249 0.2476
H101 H -0.4234 -0.2787 0.2986
H102 H -0.3726 -0.3288 0.3178
C77 C -0.4130(12) -0.4143(7) 0.1124(10)
H103 H -0.4338 -0.4405 0.0774
H104 H -0.3586 -0.4062 0.1181
C78 C -0.4117(12) -0.4316(7) 0.1728(9)
H105 H -0.4010 -0.4041 0.2058
H106 H -0.3705 -0.4573 0.1924
C79 C -0.5501(13) -0.4104(8) 0.1285(10)
H107 H -0.6043 -0.4230 0.1167
H108 H -0.5389 -0.3847 0.1640
C80 C -0.5457(11) -0.3889(7) 0.0707(9)
H109 H -0.5843 -0.3614 0.0536
H110 H -0.5584 -0.4141 0.0345
C81 C -0.5000(18) -0.2424(11) -0.0241(15)
H111 H -0.5126 -0.2154 0.0008
H112 H -0.5487 -0.2620 -0.0484
C82 C -0.472(3) -0.2214(14) -0.0728(19)
H113 H -0.5018 -0.1907 -0.0921
H114 H -0.4154 -0.2118 -0.0479
C83 C -0.4287(19) -0.2989(11) -0.0869(15)
H115 H -0.4411 -0.3274 -0.1185
H116 H -0.3713 -0.2922 -0.0692
C84 C -0.4515(16) -0.3100(9) -0.0316(12)
H117 H -0.4205 -0.3394 -0.0075
H118 H -0.5077 -0.3202 -0.0520
O12 O -0.5010(16) -0.2311(8) 0.1289(11)
C85 C -0.5827(15) -0.2309(9) 0.1153(11)
H119 H -0.5977 -0.2628 0.1294
H120 H -0.6147 -0.2264 0.0662
C86 C -0.5965(14) -0.1911(10) 0.1521(14)
H121 H -0.6351 -0.1676 0.1207
H122 H -0.6181 -0.2040 0.1838
C87 C -0.5233(18) -0.1668(10) 0.1885(16)
H123 H -0.5099 -0.1680 0.2376
H124 H -0.5269 -0.1316 0.1745
C88 C -0.4643(14) -0.1915(11) 0.1741(16)
H125 H -0.4226 -0.2045 0.2164
H126 H -0.4396 -0.1681 0.1532
O13 O 0.3021(13) -0.1287(10) 0.8308(11)
C89 C 0.3088(14) -0.1764(8) 0.8058(12)
H127 H 0.3319 -0.2002 0.8437
H128 H 0.2560 -0.1887 0.7749
C90 C 0.3585(15) -0.1721(8) 0.7706(12)
H129 H 0.4053 -0.1938 0.7917
H130 H 0.3295 -0.1824 0.7229
C91 C 0.3824(13) -0.1218(9) 0.7739(12)
H131 H 0.3649 -0.1079 0.7277
H132 H 0.4407 -0.1194 0.7966
C92 C 0.3476(14) -0.0950(7) 0.8111(11)
H133 H 0.3133 -0.0682 0.7827
H134 H 0.3892 -0.0797 0.8516
O14 O -0.4577(14) -0.0286(10) 0.2276(14)
C93 C -0.5232(17) -0.0394(8) 0.1659(14)
H135 H -0.5485 -0.0709 0.1700
H136 H -0.5053 -0.0431 0.1288
C94 C -0.5778(13) 0.0004(10) 0.1516(11)
H137 H -0.5862 0.0158 0.1077
H138 H -0.6293 -0.0120 0.1488
C95 C -0.5462(18) 0.0358(9) 0.2045(14)
H139 H -0.5394 0.0681 0.1860
H140 H -0.5825 0.0403 0.2271
C96 C -0.4719(17) 0.0178(11) 0.2515(12)
H141 H -0.4727 0.0138 0.2966
H142 H -0.4296 0.0416 0.2555
loop_
_geom_bond_atom_site_label_1
_geom_bond_atom_site_label_2
_geom_bond_site_symmetry_1
_geom_bond_site_symmetry_2
Ru1 N1 1_555 1_555
Ru2 N5 1_555 1_555
N1 C1 1_555 1_555
N2 Ru1 1_555 1_555
N3 Ru1 1_555 1_555
N4 Ru1 1_555 1_555
N5 C29 1_555 1_555
N6 Ru2 1_555 1_555
N7 Ru2 1_555 1_555
N8 Ru2 1_555 1_555
C1 C2 1_555 1_555
C2 H1 1_555 1_555
C3 C2 1_555 1_555
H2 C3 1_555 1_555
C4 N1 1_555 1_555
C5 C4 1_555 1_555
C6 N2 1_555 1_555
C7 C6 1_555 1_555
H3 C7 1_555 1_555
C8 C7 1_555 1_555
H4 C8 1_555 1_555
C9 N2 1_555 1_555
C10 C9 1_555 1_555
C11 N3 1_555 1_555
C12 C11 1_555 1_555
H5 C12 1_555 1_555
C13 C12 1_555 1_555
H6 C13 1_555 1_555
C14 N3 1_555 1_555
C15 C14 1_555 1_555
C16 N4 1_555 1_555
C17 C16 1_555 1_555
H7 C17 1_555 1_555
C18 C17 1_555 1_555
H8 C18 1_555 1_555
C19 N4 1_555 1_555
C20 C1 1_555 1_555
C21 C5 1_555 1_555
H9 C21 1_555 1_555
H10 C21 1_555 1_555
H11 C21 1_555 1_555
C22 C5 1_555 1_555
H12 C22 1_555 1_555
H13 C22 1_555 1_555
H14 C22 1_555 1_555
C23 C10 1_555 1_555
H15 C23 1_555 1_555
H16 C23 1_555 1_555
H17 C23 1_555 1_555
C24 C10 1_555 1_555
H18 C24 1_555 1_555
H19 C24 1_555 1_555
H20 C24 1_555 1_555
C25 C15 1_555 1_555
H21 C25 1_555 1_555
H22 C25 1_555 1_555
H23 C25 1_555 1_555
C26 C15 1_555 1_555
H24 C26 1_555 1_555
H25 C26 1_555 1_555
H26 C26 1_555 1_555
C27 C20 1_555 1_555
H27 C27 1_555 1_555
H28 C27 1_555 1_555
H29 C27 1_555 1_555
C28 C20 1_555 1_555
H30 C28 1_555 1_555
H31 C28 1_555 1_555
H32 C28 1_555 1_555
C29 C30 1_555 1_555
C30 H33 1_555 1_555
C31 C30 1_555 1_555
H34 C31 1_555 1_555
C32 N5 1_555 1_555
C33 C32 1_555 1_555
C34 N6 1_555 1_555
C35 C34 1_555 1_555
H35 C35 1_555 1_555
C36 C35 1_555 1_555
H36 C36 1_555 1_555
C37 N6 1_555 1_555
C38 C37 1_555 1_555
C39 N7 1_555 1_555
C40 C39 1_555 1_555
H37 C40 1_555 1_555
C41 C40 1_555 1_555
H38 C41 1_555 1_555
C42 N7 1_555 1_555
C43 C42 1_555 1_555
C44 N8 1_555 1_555
C45 C44 1_555 1_555
H39 C45 1_555 1_555
C46 C45 1_555 1_555
H40 C46 1_555 1_555
C47 N8 1_555 1_555
C48 C29 1_555 1_555
C49 C33 1_555 1_555
H41 C49 1_555 1_555
H42 C49 1_555 1_555
H43 C49 1_555 1_555
C50 C33 1_555 1_555
H44 C50 1_555 1_555
H45 C50 1_555 1_555
H46 C50 1_555 1_555
C51 C38 1_555 1_555
H47 C51 1_555 1_555
H48 C51 1_555 1_555
H49 C51 1_555 1_555
C52 C38 1_555 1_555
H50 C52 1_555 1_555
H51 C52 1_555 1_555
H52 C52 1_555 1_555
C53 C43 1_555 1_555
H53 C53 1_555 1_555
H54 C53 1_555 1_555
H55 C53 1_555 1_555
C54 C43 1_555 1_555
H56 C54 1_555 1_555
H57 C54 1_555 1_555
H58 C54 1_555 1_555
C55 C48 1_555 1_555
H59 C55 1_555 1_555
H60 C55 1_555 1_555
H61 C55 1_555 1_555
C56 C48 1_555 1_555
H62 C56 1_555 1_555
H63 C56 1_555 1_555
H64 C56 1_555 1_555
C57 Ru1 1_555 1_555
C58 C57 1_555 1_555
H65 C58 1_555 1_555
C59 C58 1_555 1_555
H66 C59 1_555 1_555
C60 Ru2 1_555 1_555
Na1 N4 1_555 1_555
Na2 N2 1_555 1_555
O1 Na2 1_555 1_555
O2 Na2 1_555 1_555
O3 Na2 1_555 1_555
C61 O1 1_555 1_555
H67 C61 1_555 1_555
H68 C61 1_555 1_555
H69 C61 1_555 1_555
C62 O1 1_555 1_555
H70 C62 1_555 1_555
H71 C62 1_555 1_555
C63 O2 1_555 1_555
H72 C63 1_555 1_555
H73 C63 1_555 1_555
C64 O2 1_555 1_555
H74 C64 1_555 1_555
H75 C64 1_555 1_555
H76 C64 1_555 1_555
C65 O3 1_555 1_555
H77 C65 1_555 1_555
H78 C65 1_555 1_555
C66 O3 1_555 1_555
H79 C66 1_555 1_555
H80 C66 1_555 1_555
Na3 N8 1_555 1_555
O4 Na3 1_555 1_555
O5 Na3 1_555 1_555
C67 O4 1_555 1_555
H81 C67 1_555 1_555
H82 C67 1_555 1_555
C68 C67 1_555 1_555
H83 C68 1_555 1_555
H84 C68 1_555 1_555
C69 C68 1_555 1_555
H85 C69 1_555 1_555
H86 C69 1_555 1_555
C70 O4 1_555 1_555
H87 C70 1_555 1_555
H88 C70 1_555 1_555
C71 O5 1_555 1_555
H89 C71 1_555 1_555
H90 C71 1_555 1_555
C72 O5 1_555 1_555
H91 C72 1_555 1_555
H92 C72 1_555 1_555
Na4 O6 1_555 1_555
O6 C73 1_555 1_555
O7 Na4 1_555 1_555
O8 Na4 1_555 1_555
O9 C78 1_555 1_555
O10 Na4 1_555 1_555
O11 C82 1_555 1_555
C73 H93 1_555 1_555
H94 C73 1_555 1_555
H95 C73 1_555 1_555
C74 O6 1_555 1_555
H96 C74 1_555 1_555
H97 C74 1_555 1_555
C75 O7 1_555 1_555
H98 C75 1_555 1_555
H99 C75 1_555 1_555
C76 O7 1_555 1_555
H100 C76 1_555 1_555
H101 C76 1_555 1_555
H102 C76 1_555 1_555
C77 O8 1_555 1_555
H103 C77 1_555 1_555
H104 C77 1_555 1_555
C78 C77 1_555 1_555
H105 C78 1_555 1_555
H106 C78 1_555 1_555
C79 O9 1_555 1_555
H107 C79 1_555 1_555
H108 C79 1_555 1_555
C80 O8 1_555 1_555
H109 C80 1_555 1_555
H110 C80 1_555 1_555
C81 O10 1_555 1_555
H111 C81 1_555 1_555
H112 C81 1_555 1_555
C82 C81 1_555 1_555
H113 C82 1_555 1_555
H114 C82 1_555 1_555
C83 O11 1_555 1_555
H115 C83 1_555 1_555
H116 C83 1_555 1_555
C84 O10 1_555 1_555
H117 C84 1_555 1_555
H118 C84 1_555 1_555
O12 Na4 1_555 1_555
C85 O12 1_555 1_555
H119 C85 1_555 1_555
H120 C85 1_555 1_555
C86 C85 1_555 1_555
H121 C86 1_555 1_555
H122 C86 1_555 1_555
C87 C86 1_555 1_555
H123 C87 1_555 1_555
H124 C87 1_555 1_555
C88 O12 1_555 1_555
H125 C88 1_555 1_555
H126 C88 1_555 1_555
O13 C89 1_555 1_555
C89 H127 1_555 1_555
H128 C89 1_555 1_555
C90 C89 1_555 1_555
H129 C90 1_555 1_555
H130 C90 1_555 1_555
C91 C90 1_555 1_555
H131 C91 1_555 1_555
H132 C91 1_555 1_555
C92 O13 1_555 1_555
H133 C92 1_555 1_555
H134 C92 1_555 1_555
O14 C93 1_555 1_555
C93 H135 1_555 1_555
H136 C93 1_555 1_555
C94 C93 1_555 1_555
H137 C94 1_555 1_555
H138 C94 1_555 1_555
C95 C94 1_555 1_555
H139 C95 1_555 1_555
H140 C95 1_555 1_555
C96 O14 1_555 1_555
H141 C96 1_555 1_555
H142 C96 1_555 1_555
C66B C65 1_555 1_555
C65B C66 1_555 1_555
C72B C71 1_555 1_555
C71B C72 1_555 1_555
O3B C66B 1_555 1_555
H79B C66B 1_555 1_555
H80B C66B 1_555 1_555
H77B C65B 1_555 1_555
H78B C65B 1_555 1_555
O5B C72B 1_555 1_555
H89B C71B 1_555 1_555
H90B C71B 1_555 1_555
H91B C72B 1_555 1_555
H92B C72B 1_555 1_555
Na2B O3B 1_555 1_555
Na3B O5B 1_555 1_555
Ru2B N8B 1_555 1_555
N8B Na3B 1_555 1_555
C44B Na3B 1_555 1_555
C45B Na3B 1_555 1_555
C46B Na3B 1_555 1_555
C47B Na3B 1_555 1_555
C60B Ru2B 1_555 1_555
O4B Na3B 1_555 1_555
C43B C44B 1_555 1_555
H39B C45B 1_555 1_555
H40B C46B 1_555 1_555
C48B C47B 1_555 1_555
C59B C60B 1_555 1_555
C67B O4B 1_555 1_555
C70B O4B 1_555 1_555
C42B C43B 1_555 1_555
C53B C43B 1_555 1_555
C54B C43B 1_555 1_555
C29B C48B 1_555 1_555
C55B C48B 1_555 1_555
C56B C48B 1_555 1_555
C58B C59B 1_555 1_555
H66B C59B 1_555 1_555
Na1B C59B 1_555 1_555
H81B C67B 1_555 1_555
H82B C67B 1_555 1_555
C68B C67B 1_555 1_555
C69B C70B 1_555 1_555
H87B C70B 1_555 1_555
H88B C70B 1_555 1_555
N7B Ru2B 1_555 1_555
C41B C42B 1_555 1_555
H53B C53B 1_555 1_555
H54B C53B 1_555 1_555
H55B C53B 1_555 1_555
H56B C54B 1_555 1_555
H57B C54B 1_555 1_555
H58B C54B 1_555 1_555
N5B Ru2B 1_555 1_555
C30B C29B 1_555 1_555
H59B C55B 1_555 1_555
H60B C55B 1_555 1_555
H61B C55B 1_555 1_555
H62B C56B 1_555 1_555
H63B C56B 1_555 1_555
H64B C56B 1_555 1_555
C57B C58B 1_555 1_555
H65B C58B 1_555 1_555
H83B C68B 1_555 1_555
H84B C68B 1_555 1_555
H85B C69B 1_555 1_555
H86B C69B 1_555 1_555
C39B N7B 1_555 1_555
C40B C41B 1_555 1_555
H38B C41B 1_555 1_555
C32B N5B 1_555 1_555
H33B C30B 1_555 1_555
C31B C30B 1_555 1_555
Ru1B C57B 1_555 1_555
C38B C39B 1_555 1_555
H37B C40B 1_555 1_555
C33B C32B 1_555 1_555
H34B C31B 1_555 1_555
C37B Na1B 1_555 1_555
C51B C38B 1_555 1_555
C52B C38B 1_555 1_555
C34B Na1B 1_555 1_555
C49B C33B 1_555 1_555
C50B C33B 1_555 1_555
N6B Ru2B 1_555 1_555
C36B Na1B 1_555 1_555
H47B C51B 1_555 1_555
H48B C51B 1_555 1_555
H49B C51B 1_555 1_555
H50B C52B 1_555 1_555
H51B C52B 1_555 1_555
H52B C52B 1_555 1_555
C35B Na1B 1_555 1_555
H41B C49B 1_555 1_555
H42B C49B 1_555 1_555
H43B C49B 1_555 1_555
H44B C50B 1_555 1_555
H45B C50B 1_555 1_555
H46B C50B 1_555 1_555
H36B C36B 1_555 1_555
H35B C35B 1_555 1_555
N4B Na1B 1_555 1_555
C16B Na1B 1_555 1_555
C17B Na1B 1_555 1_555
C18B Na1B 1_555 1_555
C19B Na1B 1_555 1_555
C15B C16B 1_555 1_555
H7B C17B 1_555 1_555
H8B C18B 1_555 1_555
C20B C19B 1_555 1_555
C14B C15B 1_555 1_555
C25B C15B 1_555 1_555
C26B C15B 1_555 1_555
C1B C20B 1_555 1_555
C27B C20B 1_555 1_555
C28B C20B 1_555 1_555
N3B Ru1B 1_555 1_555
C13B C14B 1_555 1_555
H21B C25B 1_555 1_555
H22B C25B 1_555 1_555
H23B C25B 1_555 1_555
H24B C26B 1_555 1_555
H25B C26B 1_555 1_555
H26B C26B 1_555 1_555
N1B Ru1B 1_555 1_555
C2B C1B 1_555 1_555
H27B C27B 1_555 1_555
H28B C27B 1_555 1_555
H29B C27B 1_555 1_555
H30B C28B 1_555 1_555
H31B C28B 1_555 1_555
H32B C28B 1_555 1_555
C11B N3B 1_555 1_555
C12B C13B 1_555 1_555
H6B C13B 1_555 1_555
C4B N1B 1_555 1_555
H1B C2B 1_555 1_555
C3B C2B 1_555 1_555
C10B C11B 1_555 1_555
H5B C12B 1_555 1_555
C5B C4B 1_555 1_555
H2B C3B 1_555 1_555
C9B C10B 1_555 1_555
C23B C10B 1_555 1_555
C24B C10B 1_555 1_555
C6B C5B 1_555 1_555
C21B C5B 1_555 1_555
C22B C5B 1_555 1_555
N2B Ru1B 1_555 1_555
C8B C9B 1_555 1_555
Na2B_2 C9B 1_555 1_555
H15B C23B 1_555 1_555
H16B C23B 1_555 1_555
H17B C23B 1_555 1_555
H18B C24B 1_555 1_555
H19B C24B 1_555 1_555
H20B C24B 1_555 1_555
C7B C6B 1_555 1_555
H9B C21B 1_555 1_555
H10B C21B 1_555 1_555
H11B C21B 1_555 1_555
H12B C22B 1_555 1_555
H13B C22B 1_555 1_555
H14B C22B 1_555 1_555
H4B C8B 1_555 1_555
H3B C7B 1_555 1_555
O1B Na2B_2 1_555 1_555
O2B Na2B_2 1_555 1_555
O3B_2 Na2B_2 1_555 1_555
C61B O1B 1_555 1_555
C62B O1B 1_555 1_555
C63B O2B 1_555 1_555
C64B O2B 1_555 1_555
H67B C61B 1_555 1_555
H68B C61B 1_555 1_555
H69B C61B 1_555 1_555
H70B C62B 1_555 1_555
H71B C62B 1_555 1_555
H72B C63B 1_555 1_555
H73B C63B 1_555 1_555
H74B C64B 1_555 1_555
H75B C64B 1_555 1_555
H76B C64B 1_555 1_555
N6 Na1 1_555 1_555
C3 C4 1_555 1_555
C5 C6 1_555 1_555
C6 Na2 1_555 1_555
C7 Na2 1_555 1_555
C8 C9 1_555 1_555
C8 Na2 1_555 1_555
C9 Na2 1_555 1_555
C10 C11 1_555 1_555
C13 C14 1_555 1_555
C15 C16 1_555 1_555
C16 Na1 1_555 1_555
C17 Na1 1_555 1_555
C18 C19 1_555 1_555
C18 Na1 1_555 1_555
C19 C20 1_555 1_555
C19 Na1 1_555 1_555
C31 C32 1_555 1_555
C33 C34 1_555 1_555
C34 Na1 1_555 1_555
C35 Na1 1_555 1_555
C36 C37 1_555 1_555
C36 Na1 1_555 1_555
C37 Na1 1_555 1_555
C38 C39 1_555 1_555
C41 C42 1_555 1_555
C43 C44 1_555 1_555
C44 Na3 1_555 1_555
C45 Na3 1_555 1_555
C46 C47 1_555 1_555
C46 Na3 1_555 1_555
C47 C48 1_555 1_555
C47 Na3 1_555 1_555
C58 Na1 1_555 1_555
C59 C60 1_555 1_555
C59 Na1 1_555 1_555
C62 C63 1_555 1_555
C69 C70 1_555 1_555
C74 C75 1_555 1_555
C79 C80 1_555 1_555
C83 C84 1_555 1_555
C87 C88 1_555 1_555
C91 C92 1_555 1_555
C95 C96 1_555 1_555
C65B O3B 1_555 1_555
C71B O5B 1_555 1_555
N8B C44B 1_555 1_555
N8B C47B 1_555 1_555
C44B C45B 1_555 1_555
C45B C46B 1_555 1_555
C46B C47B 1_555 1_555
C42B N7B 1_555 1_555
C29B N5B 1_555 1_555
C58B Na1B 1_555 1_555
Na1B N6B 1_555 1_555
C68B C69B 1_555 1_555
C39B C40B 1_555 1_555
C32B C31B 1_555 1_555
Ru1B N4B 1_555 1_555
C38B C37B 1_555 1_555
C33B C34B 1_555 1_555
C37B N6B 1_555 1_555
C37B C36B 1_555 1_555
C34B C35B 1_555 1_555
C34B N6B 1_555 1_555
C36B C35B 1_555 1_555
N4B C16B 1_555 1_555
N4B C19B 1_555 1_555
C16B C17B 1_555 1_555
C17B C18B 1_555 1_555
C18B C19B 1_555 1_555
C14B N3B 1_555 1_555
C1B N1B 1_555 1_555
C11B C12B 1_555 1_555
C4B C3B 1_555 1_555
C9B N2B 1_555 1_555
C6B N2B 1_555 1_555
C6B Na2B_2 1_555 1_555
N2B Na2B_2 1_555 1_555
C8B C7B 1_555 1_555
C8B Na2B_2 1_555 1_555
Na2B_2 C7B 1_555 1_555
C62B C63B 1_555 1_555

#END
