
#######################################################################
#
#                 Cambridge Crystallographic Data Centre
#                                CCDC 
#
#######################################################################
#
# If this CIF has been generated from an entry in the Cambridge 
# Structural Database, then it will include bibliographic, chemical, 
# crystal, experimental, refinement or atomic coordinate data resulting 
# from the CCDC's data processing and validation procedures.
#
#######################################################################

data_OBITOK
_symmetry_cell_setting           monoclinic
_symmetry_space_group_name_H-M   'C 2/c'
_symmetry_Int_Tables_number      15
_space_group_name_Hall           '-C 2yn'
loop_
_symmetry_equiv_pos_site_id
_symmetry_equiv_pos_as_xyz
1 x,y,z
2 -x,y,1/2-z
3 1/2+x,1/2+y,z
4 1/2-x,1/2+y,1/2-z
5 -x,-y,-z
6 x,-y,1/2+z
7 1/2-x,1/2-y,-z
8 1/2+x,1/2-y,1/2+z
_cell_length_a                   9.9266(7)
_cell_length_b                   15.5724(10)
_cell_length_c                   7.8963(6)
_cell_angle_alpha                90
_cell_angle_beta                 93.878(4)
_cell_angle_gamma                90
_cell_volume                     1217.82
loop_
_atom_site_label
_atom_site_type_symbol
_atom_site_fract_x
_atom_site_fract_y
_atom_site_fract_z
Zn1 Zn 0.5000 0.296457(17) 0.7500
Cl1 Cl 0.35267(5) 0.36506(3) 0.57611(6)
N1 N 0.59607(15) 0.20836(9) 0.60337(18)
C1 C 0.77431(19) 0.10656(14) 0.5838(3)
H1 H 0.8584 0.0862 0.6246
C2 C 0.71626(19) 0.17586(13) 0.6597(2)
H2 H 0.7621 0.2011 0.7535
C3 C 0.7061(2) 0.06820(13) 0.4475(2)
H3 H 0.7422 0.0203 0.3966
C4 C 0.58196(18) 0.10157(11) 0.3857(2)
C5 C 0.53146(17) 0.17218(11) 0.4663(2)
H4 H 0.4497 0.1955 0.4242
C6 C 0.5000 0.05441(16) 0.2500
O1 O 0.5000 -0.02376(12) 0.2500
Zn1_2 Zn 0.5000 0.296457(17) -0.2500
Cl1A Cl 0.64733(5) 0.36506(3) 0.92389(6)
N1A N 0.40393(15) 0.20836(9) -0.10337(18)
N1A_2 N 0.40393(15) 0.20836(9) 0.89663(18)
C1A C 0.22569(19) 0.10656(14) -0.0838(3)
H1A H 0.1416 0.0862 -0.1246
C2A C 0.28374(19) 0.17586(13) -0.1597(2)
H2A H 0.2379 0.2011 -0.2535
C3A C 0.2939(2) 0.06820(13) 0.0525(2)
H3A H 0.2578 0.0203 0.1034
C4A C 0.41804(18) 0.10157(11) 0.1143(2)
C5A C 0.46854(17) 0.17218(11) 0.0337(2)
H4A H 0.5503 0.1955 0.0758
loop_
_geom_bond_atom_site_label_1
_geom_bond_atom_site_label_2
_geom_bond_site_symmetry_1
_geom_bond_site_symmetry_2
Zn1 Cl1 1_555 1_555
N1 Zn1 1_555 1_555
C1 H1 1_555 1_555
C2 N1 1_555 1_555
H2 C2 1_555 1_555
C3 C1 1_555 1_555
H3 C3 1_555 1_555
C4 C3 1_555 1_555
C5 N1 1_555 1_555
H4 C5 1_555 1_555
C6 C4 1_555 1_555
O1 C6 1_555 1_555
Zn1_2 N1A 1_555 1_555
Cl1A Zn1 1_555 1_555
N1A C2A 1_555 1_555
N1A_2 Zn1 1_555 1_555
C1A H1A 1_555 1_555
C2A C1A 1_555 1_555
H2A C2A 1_555 1_555
C3A C1A 1_555 1_555
H3A C3A 1_555 1_555
C4A C6 1_555 1_555
C5A N1A 1_555 1_555
H4A C5A 1_555 1_555
C1 C2 1_555 1_555
C4 C5 1_555 1_555
C3A C4A 1_555 1_555
C4A C5A 1_555 1_555

#END
