
#######################################################################
#
#                 Cambridge Crystallographic Data Centre
#                                CCDC 
#
#######################################################################
#
# If this CIF has been generated from an entry in the Cambridge 
# Structural Database, then it will include bibliographic, chemical, 
# crystal, experimental, refinement or atomic coordinate data resulting 
# from the CCDC's data processing and validation procedures.
#
#######################################################################

data_OBIVIG
_symmetry_cell_setting           monoclinic
_symmetry_space_group_name_H-M   'C 2/c'
_symmetry_Int_Tables_number      15
_space_group_name_Hall           '-C 2yn'
loop_
_symmetry_equiv_pos_site_id
_symmetry_equiv_pos_as_xyz
1 x,y,z
2 -x,y,1/2-z
3 1/2+x,1/2+y,z
4 1/2-x,1/2+y,1/2-z
5 -x,-y,-z
6 x,-y,1/2+z
7 1/2-x,1/2-y,-z
8 1/2+x,1/2-y,1/2+z
_cell_length_a                   7.6878(7)
_cell_length_b                   8.2295(8)
_cell_length_c                   22.735(2)
_cell_angle_alpha                90
_cell_angle_beta                 95.7520(10)
_cell_angle_gamma                90
_cell_volume                     1431.13
loop_
_atom_site_label
_atom_site_type_symbol
_atom_site_fract_x
_atom_site_fract_y
_atom_site_fract_z
Cd1 Cd 0.0000 0.211515(18) 0.2500
O1 O 0.0000 0.4900(2) 0.2500
H1 H 0.070(2) 0.552(2) 0.2346(8)
O2 O 0.14213(18) 0.25529(14) 0.16357(5)
O3 O 0.09896(14) 0.00183(13) 0.18665(5)
O4 O 0.27315(15) 0.20049(14) 0.30205(5)
H2 H 0.273(2) 0.158(2) 0.3350(7)
H3 H 0.318(2) 0.2927(18) 0.3066(8)
C1 C 0.1256(2) 0.0255(2) 0.04864(6)
C2 C 0.2569(2) 0.0525(2) 0.10213(7)
H4 H 0.3421 0.1368 0.0931
H5 H 0.3217 -0.0494 0.1121
C3 C 0.0777(2) -0.1308(2) 0.03026(7)
H6 H 0.1305 -0.2215 0.0508
C4 C 0.0466(2) 0.1567(2) 0.01772(7)
H7 H 0.0777 0.2644 0.0295
C5 C 0.1617(2) 0.10626(19) 0.15438(6)
Cd1D Cd 0.0000 -0.211515(18) -0.2500
H1A H -0.070(2) 0.552(2) 0.2654(8)
O2D O -0.14213(18) -0.25529(14) -0.16357(5)
O2A O -0.14213(18) 0.25529(14) 0.33643(5)
O3D O -0.09896(14) -0.00183(13) -0.18665(5)
O3A O -0.09896(14) 0.00183(13) 0.31335(5)
O4A O -0.27315(15) 0.20049(14) 0.19795(5)
H2A H -0.273(2) 0.158(2) 0.1650(7)
H3A H -0.318(2) 0.2927(18) 0.1934(8)
C1D C -0.1256(2) -0.0255(2) -0.04864(6)
C2D C -0.2569(2) -0.0525(2) -0.10213(7)
H4D H -0.3421 -0.1368 -0.0931
H5D H -0.3217 0.0494 -0.1121
C3D C -0.0777(2) 0.1308(2) -0.03026(7)
H6D H -0.1305 0.2215 -0.0508
C4D C -0.0466(2) -0.1567(2) -0.01772(7)
H7D H -0.0777 -0.2644 -0.0295
C5D C -0.1617(2) -0.10626(19) -0.15438(6)
O5 O 0.21682(17) 0.51653(15) 0.09931(5)
H8 H 0.199(3) 0.430(2) 0.1171(8)
H9 H 0.307(2) 0.506(2) 0.0844(8)
loop_
_geom_bond_atom_site_label_1
_geom_bond_atom_site_label_2
_geom_bond_site_symmetry_1
_geom_bond_site_symmetry_2
Cd1 O1 1_555 1_555
O1 H1 1_555 1_555
O2 Cd1 1_555 1_555
O3 Cd1 1_555 1_555
O4 Cd1 1_555 1_555
H2 O4 1_555 1_555
H3 O4 1_555 1_555
C1 C2 1_555 1_555
C2 H4 1_555 1_555
H5 C2 1_555 1_555
C3 C1 1_555 1_555
H6 C3 1_555 1_555
C4 C1 1_555 1_555
H7 C4 1_555 1_555
C5 O2 1_555 1_555
O5 H8 1_555 1_555
H9 O5 1_555 1_555
Cd1D O2D 1_555 1_555
H1A O1 1_555 1_555
O2D C5D 1_555 1_555
O2A Cd1 1_555 1_555
O3D Cd1D 1_555 1_555
O3A Cd1 1_555 1_555
O4A Cd1 1_555 1_555
H2A O4A 1_555 1_555
H3A O4A 1_555 1_555
C1D C2D 1_555 1_555
C2D H4D 1_555 1_555
H5D C2D 1_555 1_555
C3D C4 1_555 1_555
H6D C3D 1_555 1_555
C4D C3 1_555 1_555
H7D C4D 1_555 1_555
C5D O3D 1_555 1_555
O3 C5 1_555 1_555
C2 C5 1_555 1_555
C1D C3D 1_555 1_555
C1D C4D 1_555 1_555
C2D C5D 1_555 1_555

#END
