
#######################################################################
#
#                 Cambridge Crystallographic Data Centre
#                                CCDC 
#
#######################################################################
#
# If this CIF has been generated from an entry in the Cambridge 
# Structural Database, then it will include bibliographic, chemical, 
# crystal, experimental, refinement or atomic coordinate data resulting 
# from the CCDC's data processing and validation procedures.
#
#######################################################################

data_OBIWUT
_symmetry_cell_setting           orthorhombic
_symmetry_space_group_name_H-M   'P n a 21'
_symmetry_Int_Tables_number      33
_space_group_name_Hall           'P 2c -2n'
loop_
_symmetry_equiv_pos_site_id
_symmetry_equiv_pos_as_xyz
1 x,y,z
2 -x,-y,1/2+z
3 1/2-x,1/2+y,1/2+z
4 1/2+x,1/2-y,z
_cell_length_a                   7.9540(3)
_cell_length_b                   13.2187(3)
_cell_length_c                   15.1475(3)
_cell_angle_alpha                90
_cell_angle_beta                 90
_cell_angle_gamma                90
_cell_volume                     1592.63
loop_
_atom_site_label
_atom_site_type_symbol
_atom_site_fract_x
_atom_site_fract_y
_atom_site_fract_z
Co1 Co -0.05451(3) -0.010675(17) 0.25557(2)
Na1 Na -0.07221(11) 0.28100(6) 0.49042(5)
Na2 Na -0.26548(10) 0.06445(7) 0.52208(6)
O1 O -0.24152(18) 0.05370(10) 0.34732(9)
O2 O 0.1115(2) 0.00400(10) 0.14651(11)
O3 O 0.1244(2) -0.00136(10) 0.36280(10)
O4 O -0.21550(19) -0.09844(10) 0.16519(10)
O5 O -0.30854(18) 0.20122(10) 0.41058(9)
O6 O 0.18157(18) 0.10750(11) 0.03583(9)
O7 O 0.23230(19) -0.09423(11) 0.47351(9)
O8 O -0.2541(2) -0.25677(11) 0.11508(9)
O9 O -0.05522(17) 0.44910(11) 0.53885(10)
H1 H -0.0987 0.4988 0.5123
H2 H -0.1164 0.4439 0.5846
O10 O 0.01645(19) 0.11758(10) 0.49835(10)
H3 H 0.0629 0.0876 0.4541
H4 H 0.0745 0.0949 0.5461
N1 N -0.0691(2) 0.13931(12) 0.22358(10)
N2 N -0.0236(2) -0.15690(12) 0.29271(11)
C1 C -0.1490(2) 0.20301(14) 0.27769(12)
C2 C -0.2419(2) 0.14940(15) 0.35081(13)
C3 C -0.1404(2) 0.30715(14) 0.26432(15)
H5 H -0.1946 0.3527 0.3036
C4 C -0.0503(3) 0.34270(15) 0.19181(14)
H6 H -0.0429 0.4134 0.1812
C5 C 0.0285(3) 0.27576(16) 0.13529(14)
H7 H 0.0879 0.2992 0.0849
C6 C 0.0182(3) 0.17334(15) 0.15435(13)
C7 C 0.1110(3) 0.09008(15) 0.10677(13)
C8 C 0.0704(3) -0.17728(16) 0.36365(13)
C9 C 0.1491(3) -0.08438(15) 0.40480(13)
C10 C 0.0974(3) -0.27604(15) 0.39155(14)
H8 H 0.1621 -0.2900 0.4429
C11 C 0.0270(3) -0.35394(15) 0.34216(13)
H9 H 0.0446 -0.4222 0.3594
C12 C -0.0685(2) -0.33259(14) 0.26795(15)
H10 H -0.1161 -0.3854 0.2335
C13 C -0.0928(2) -0.23155(14) 0.24533(14)
C14 C -0.1961(3) -0.19475(15) 0.16881(13)
Na1C Na -0.57221(11) 0.21900(6) 0.49042(5)
Na1B Na -0.42779(11) -0.21900(6) -0.00958(5)
Na2C Na 0.23452(10) 0.43555(7) 0.52208(6)
Na2A Na 0.26548(10) -0.06445(7) 0.02208(6)
Na2B Na -0.23452(10) -0.43555(7) 0.02208(6)
O2A O -0.1115(2) -0.00400(10) 0.64651(11)
O5C O 0.19146(18) 0.29878(10) 0.41058(9)
O6A O -0.18157(18) -0.10750(11) 0.53583(9)
O8B O -0.2459(2) 0.24323(11) 0.61508(9)
O9C O -0.55522(17) 0.05090(11) 0.53885(10)
H1C H -0.5987 0.0012 0.5123
H2C H -0.6164 0.0561 0.5846
loop_
_geom_bond_atom_site_label_1
_geom_bond_atom_site_label_2
_geom_bond_site_symmetry_1
_geom_bond_site_symmetry_2
Co1 O1 1_555 1_555
Na1 O5 1_555 1_555
Na2 O1 1_555 1_555
O1 C2 1_555 1_555
O2 Co1 1_555 1_555
O3 Co1 1_555 1_555
O4 Co1 1_555 1_555
O5 Na2 1_555 1_555
O6 C7 1_555 1_555
O7 C9 1_555 1_555
O8 C14 1_555 1_555
O9 Na1 1_555 1_555
H1 O9 1_555 1_555
H2 O9 1_555 1_555
O10 Na1 1_555 1_555
H3 O10 1_555 1_555
H4 O10 1_555 1_555
N1 Co1 1_555 1_555
N2 Co1 1_555 1_555
C1 N1 1_555 1_555
C2 O5 1_555 1_555
C3 C1 1_555 1_555
H5 C3 1_555 1_555
C4 C3 1_555 1_555
H6 C4 1_555 1_555
C5 C4 1_555 1_555
H7 C5 1_555 1_555
C6 N1 1_555 1_555
C7 O2 1_555 1_555
C8 N2 1_555 1_555
C9 O3 1_555 1_555
C10 C8 1_555 1_555
H8 C10 1_555 1_555
C11 C10 1_555 1_555
H9 C11 1_555 1_555
C12 C11 1_555 1_555
H10 C12 1_555 1_555
C13 N2 1_555 1_555
C14 O4 1_555 1_555
Na1C O5 1_555 1_555
Na1B O8 1_555 1_555
Na2C O9 1_555 1_555
Na2A O2 1_555 1_555
Na2B O8 1_555 1_555
O2A Na2 1_555 1_555
O5C Na1 1_555 1_555
O6A Na2 1_555 1_555
O8B Na1 1_555 1_555
O9C Na2 1_555 1_555
H1C O9C 1_555 1_555
H2C O9C 1_555 1_555
Na2 O10 1_555 1_555
Na2 O8B 1_555 1_555
O6 Na2A 1_555 1_555
C1 C2 1_555 1_555
C5 C6 1_555 1_555
C6 C7 1_555 1_555
C8 C9 1_555 1_555
C12 C13 1_555 1_555
C13 C14 1_555 1_555
Na1C O9C 1_555 1_555
Na2C O5C 1_555 1_555

#END
