
#######################################################################
#
#                 Cambridge Crystallographic Data Centre
#                                CCDC 
#
#######################################################################
#
# If this CIF has been generated from an entry in the Cambridge 
# Structural Database, then it will include bibliographic, chemical, 
# crystal, experimental, refinement or atomic coordinate data resulting 
# from the CCDC's data processing and validation procedures.
#
#######################################################################

data_OBIXOO
_symmetry_cell_setting           monoclinic
_symmetry_space_group_name_H-M   'P 21/c'
_symmetry_Int_Tables_number      14
_space_group_name_Hall           '-P 2ybc'
loop_
_symmetry_equiv_pos_site_id
_symmetry_equiv_pos_as_xyz
1 x,y,z
2 -x,1/2+y,1/2-z
3 -x,-y,-z
4 x,1/2-y,1/2+z
_cell_length_a                   14.6143(11)
_cell_length_b                   14.4920(12)
_cell_length_c                   9.8419(8)
_cell_angle_alpha                90
_cell_angle_beta                 98.2080(10)
_cell_angle_gamma                90
_cell_volume                     2063.07
loop_
_atom_site_label
_atom_site_type_symbol
_atom_site_fract_x
_atom_site_fract_y
_atom_site_fract_z
Cu1 Cu 0.38042(2) 0.23582(2) 0.56377(4)
Cl1 Cl 0.34460(5) 0.08697(5) 0.51189(8)
O1 O 0.26729(14) 0.25754(14) 0.6401(2)
O2 O 0.33639(14) 0.21019(14) 0.8438(2)
O3 O -0.1289(3) 0.1493(3) 0.8971(5)
N1 N 0.51618(16) 0.22377(16) 0.5353(2)
N2 N 0.42648(16) 0.36312(16) 0.6269(2)
C1 C 0.26816(19) 0.24062(19) 0.7671(3)
C2 C 0.1786(2) 0.2630(2) 0.8208(3)
H1 H 0.1808 0.2364 0.9116
H2 H 0.1739 0.3294 0.8298
C3 C 0.0939(2) 0.2285(2) 0.7320(4)
H3 H 0.0985 0.2437 0.6362
C4 C 0.0640(2) 0.1255(3) 0.7399(3)
C5 C 0.0936(3) 0.0622(3) 0.6319(5)
H4 H 0.1598 0.0615 0.6401
H5 H 0.0683 0.0842 0.5423
H6 H 0.0714 0.0010 0.6447
C6 C 0.0917(3) 0.0859(3) 0.8825(4)
H7 H 0.0653 0.0256 0.8872
H8 H 0.0695 0.1255 0.9489
H9 H 0.1578 0.0817 0.9016
C7 C -0.0376(2) 0.1627(3) 0.7195(4)
H10 H -0.0622 0.1633 0.6214
C8 C -0.0020(3) 0.2584(3) 0.7638(5)
H11 H -0.0037 0.2718 0.8600
H12 H -0.0299 0.3079 0.7057
C9 C -0.1054(3) 0.1142(3) 0.7988(5)
C10 C -0.1413(3) 0.0230(4) 0.7437(6)
H13 H -0.1668 -0.0102 0.8139
H14 H -0.0916 -0.0121 0.7153
H15 H -0.1884 0.0326 0.6665
C11 C 0.5589(2) 0.1529(2) 0.4869(3)
H16 H 0.5255 0.0995 0.4619
C12 C 0.6521(2) 0.1559(2) 0.4722(4)
H17 H 0.6801 0.1048 0.4383
C13 C 0.7023(2) 0.2334(2) 0.5073(4)
H18 H 0.7645 0.2358 0.4968
C14 C 0.6600(2) 0.3100(2) 0.5596(3)
C15 C 0.7052(2) 0.3956(2) 0.5989(3)
H19 H 0.7678 0.4019 0.5929
C16 C 0.6593(2) 0.4668(2) 0.6442(3)
H20 H 0.6907 0.5214 0.6695
C17 C 0.5629(2) 0.4600(2) 0.6541(3)
C18 C 0.5098(2) 0.5331(2) 0.6977(3)
H21 H 0.5367 0.5901 0.7208
C19 C 0.4190(2) 0.5183(2) 0.7050(3)
H22 H 0.3831 0.5656 0.7336
C20 C 0.3791(2) 0.4324(2) 0.6697(3)
H23 H 0.3169 0.4236 0.6765
C21 C 0.51761(19) 0.37713(19) 0.6199(3)
C22 C 0.56575(19) 0.3011(2) 0.5705(3)
Cu1C Cu 0.38042(2) 0.26418(2) 1.06377(4)
O2C O 0.33639(14) 0.28981(14) 0.3438(2)
loop_
_geom_bond_atom_site_label_1
_geom_bond_atom_site_label_2
_geom_bond_site_symmetry_1
_geom_bond_site_symmetry_2
Cu1 Cl1 1_555 1_555
O1 Cu1 1_555 1_555
O2 C1 1_555 1_555
O3 C9 1_555 1_555
N1 Cu1 1_555 1_555
N2 Cu1 1_555 1_555
C1 O1 1_555 1_555
C2 C1 1_555 1_555
H1 C2 1_555 1_555
H2 C2 1_555 1_555
C3 C2 1_555 1_555
H3 C3 1_555 1_555
C4 C3 1_555 1_555
C5 C4 1_555 1_555
H4 C5 1_555 1_555
H5 C5 1_555 1_555
H6 C5 1_555 1_555
C6 C4 1_555 1_555
H7 C6 1_555 1_555
H8 C6 1_555 1_555
H9 C6 1_555 1_555
C7 C4 1_555 1_555
H10 C7 1_555 1_555
C8 C3 1_555 1_555
H11 C8 1_555 1_555
H12 C8 1_555 1_555
C9 C7 1_555 1_555
C10 C9 1_555 1_555
H13 C10 1_555 1_555
H14 C10 1_555 1_555
H15 C10 1_555 1_555
C11 N1 1_555 1_555
H16 C11 1_555 1_555
C12 C11 1_555 1_555
H17 C12 1_555 1_555
C13 C12 1_555 1_555
H18 C13 1_555 1_555
C14 C13 1_555 1_555
C15 C14 1_555 1_555
H19 C15 1_555 1_555
C16 C15 1_555 1_555
H20 C16 1_555 1_555
C17 C16 1_555 1_555
C18 C17 1_555 1_555
H21 C18 1_555 1_555
C19 C18 1_555 1_555
H22 C19 1_555 1_555
C20 N2 1_555 1_555
H23 C20 1_555 1_555
C21 N2 1_555 1_555
C22 N1 1_555 1_555
Cu1C O2 1_555 1_555
O2C Cu1 1_555 1_555
C7 C8 1_555 1_555
C14 C22 1_555 1_555
C17 C21 1_555 1_555
C19 C20 1_555 1_555
C21 C22 1_555 1_555

#END
