
#######################################################################
#
#                 Cambridge Crystallographic Data Centre
#                                CCDC 
#
#######################################################################
#
# If this CIF has been generated from an entry in the Cambridge 
# Structural Database, then it will include bibliographic, chemical, 
# crystal, experimental, refinement or atomic coordinate data resulting 
# from the CCDC's data processing and validation procedures.
#
#######################################################################

data_OBIXAA
_symmetry_cell_setting           orthorhombic
_symmetry_space_group_name_H-M   'P m m n'
_symmetry_Int_Tables_number      59
_space_group_name_Hall           '-P 2ab 2a'
loop_
_symmetry_equiv_pos_site_id
_symmetry_equiv_pos_as_xyz
1 x,y,z
2 1/2-x,1/2-y,z
3 1/2+x,-y,-z
4 -x,1/2+y,-z
5 -x,-y,-z
6 1/2+x,1/2+y,-z
7 1/2-x,y,z
8 x,1/2-y,z
_cell_length_a                   7.5222(5)
_cell_length_b                   10.5307(11)
_cell_length_c                   5.5378(4)
_cell_angle_alpha                90
_cell_angle_beta                 90
_cell_angle_gamma                90
_cell_volume                     438.671
loop_
_atom_site_label
_atom_site_type_symbol
_atom_site_fract_x
_atom_site_fract_y
_atom_site_fract_z
Cu1 Cu 0.7500 0.7500 0.37747(6)
N1 N 0.2500 0.7500 0.8017(5)
N2 N 0.5346(3) 0.7500 0.5810(3)
N3 N 0.7500 0.8958(2) 0.1402(3)
C1 C 0.3987(3) 0.7500 0.6779(4)
C2 C 0.7500 1.0397(2) -0.2413(4)
H1 H 0.7500 0.9863 -0.3861
H2 H 0.8562 1.0937 -0.2407
C3 C 0.7500 0.95947(19) -0.0270(4)
Cu1_2 Cu -0.2500 0.7500 0.37747(6)
N2A N -0.0346(3) 0.7500 0.5810(3)
N2A_2 N 0.9654(3) 0.7500 0.5810(3)
N3A N 0.7500 0.6042(2) 0.1402(3)
C1A C 0.1013(3) 0.7500 0.6779(4)
C2A C 0.7500 0.4603(2) -0.2413(4)
H1A H 0.7500 0.5137 -0.3861
H2F H 0.6438 1.0937 -0.2407
H2A H 0.6438 0.4063 -0.2407
H2G H 0.8562 0.4063 -0.2407
C3A C 0.7500 0.54053(19) -0.0270(4)
loop_
_geom_bond_atom_site_label_1
_geom_bond_atom_site_label_2
_geom_bond_site_symmetry_1
_geom_bond_site_symmetry_2
Cu1 N2 1_555 1_555
N1 C1 1_555 1_555
N2 C1 1_555 1_555
N3 Cu1 1_555 1_555
C2 H1 1_555 1_555
H2 C2 1_555 1_555
C3 N3 1_555 1_555
Cu1_2 N2A 1_555 1_555
N2A C1A 1_555 1_555
N2A_2 Cu1 1_555 1_555
N3A Cu1 1_555 1_555
C1A N1 1_555 1_555
C2A H1A 1_555 1_555
H2F C2 1_555 1_555
H2A C2A 1_555 1_555
H2G C2A 1_555 1_555
C3A N3A 1_555 1_555
C2 C3 1_555 1_555
C2A C3A 1_555 1_555

#END
