
#######################################################################
#
#                 Cambridge Crystallographic Data Centre
#                                CCDC 
#
#######################################################################
#
# If this CIF has been generated from an entry in the Cambridge 
# Structural Database, then it will include bibliographic, chemical, 
# crystal, experimental, refinement or atomic coordinate data resulting 
# from the CCDC's data processing and validation procedures.
#
#######################################################################

data_OBIXEE
_symmetry_cell_setting           orthorhombic
_symmetry_space_group_name_H-M   'P n a 21'
_symmetry_Int_Tables_number      33
_space_group_name_Hall           'P 2c -2n'
loop_
_symmetry_equiv_pos_site_id
_symmetry_equiv_pos_as_xyz
1 x,y,z
2 -x,-y,1/2+z
3 1/2+x,1/2-y,z
4 1/2-x,1/2+y,1/2+z
_cell_length_a                   13.064(6)
_cell_length_b                   19.324(9)
_cell_length_c                   5.1989(17)
_cell_angle_alpha                90
_cell_angle_beta                 90
_cell_angle_gamma                90
_cell_volume                     1312.46
loop_
_atom_site_label
_atom_site_type_symbol
_atom_site_fract_x
_atom_site_fract_y
_atom_site_fract_z
Sr1 Sr -0.008465(18) 0.635847(12) 0.49937(9)
S1 S 0.14037(4) 0.47764(3) 0.49983(18)
S2 S 0.64351(5) 0.24848(3) 0.49376(18)
O1 O 0.14590(15) 0.55148(11) 0.5589(4)
O2 O 0.12497(16) 0.43544(11) 0.7268(4)
O3 O 0.06622(16) 0.46443(12) 0.2980(4)
O4 O 0.74894(15) 0.27350(11) 0.5219(6)
O5 O 0.63559(18) 0.19599(11) 0.2968(4)
O6 O 0.59963(17) 0.22808(12) 0.7371(4)
O7 O 0.13881(15) 0.72744(11) 0.5039(7)
H1 H 0.1543 0.7369 0.6567
H2 H 0.1903 0.7113 0.4278
O8 O 0.08346(17) 0.63163(10) 0.0225(6)
H3 H 0.1187 0.5953 0.0242
H4 H 0.1257 0.6644 0.0242
C1 C 0.3192(2) 0.40460(13) 0.4846(8)
H5 H 0.2958 0.3826 0.6325
C2 C 0.2615(2) 0.45518(15) 0.3713(5)
C3 C 0.2939(2) 0.48863(15) 0.1474(6)
H6 H 0.2526 0.5222 0.0717
C4 C 0.3857(2) 0.47221(15) 0.0399(6)
H7 H 0.4072 0.4949 -0.1083
C5 C 0.4485(2) 0.42073(15) 0.1525(6)
C6 C 0.4143(2) 0.38578(15) 0.3764(6)
C7 C 0.4773(2) 0.33370(14) 0.4836(9)
H8 H 0.4555 0.3097 0.6287
C8 C 0.5694(2) 0.31837(15) 0.3767(5)
C9 C 0.6062(3) 0.35484(15) 0.1587(6)
H9 H 0.6707 0.3451 0.0920
C10 C 0.5462(2) 0.40419(15) 0.0481(6)
H10 H 0.5694 0.4274 -0.0974
Sr1A Sr 0.008465(18) 0.364153(12) 0.99937(9)
Sr1A_2 Sr 0.008465(18) 0.364153(12) -0.00063(9)
Sr1C Sr 0.508465(18) 0.135847(12) -0.00063(9)
Sr1C_2 Sr 0.508465(18) 0.135847(12) 0.99937(9)
Sr1_2 Sr -0.008465(18) 0.635847(12) -0.50063(9)
O2A O -0.12497(16) 0.56456(11) 0.2268(4)
O3A O -0.06622(16) 0.53557(12) 0.7980(4)
O5C O -0.13559(18) 0.69599(11) 0.7968(4)
O6C O -0.09963(17) 0.72808(12) 0.2371(4)
O8_2 O 0.08346(17) 0.63163(10) 1.0225(6)
H3_2 H 0.1187 0.5953 1.0242
H4_2 H 0.1257 0.6644 1.0242
loop_
_geom_bond_atom_site_label_1
_geom_bond_atom_site_label_2
_geom_bond_site_symmetry_1
_geom_bond_site_symmetry_2
Sr1 O1 1_555 1_555
S1 O1 1_555 1_555
S2 O4 1_555 1_555
O2 S1 1_555 1_555
O3 S1 1_555 1_555
O5 S2 1_555 1_555
O6 S2 1_555 1_555
O7 Sr1 1_555 1_555
H1 O7 1_555 1_555
H2 O7 1_555 1_555
O8 Sr1 1_555 1_555
H3 O8 1_555 1_555
H4 O8 1_555 1_555
C1 H5 1_555 1_555
C2 S1 1_555 1_555
C3 C2 1_555 1_555
H6 C3 1_555 1_555
C4 C3 1_555 1_555
H7 C4 1_555 1_555
C5 C4 1_555 1_555
C6 C1 1_555 1_555
C7 C6 1_555 1_555
H8 C7 1_555 1_555
C8 S2 1_555 1_555
C9 C8 1_555 1_555
H9 C9 1_555 1_555
C10 C5 1_555 1_555
H10 C10 1_555 1_555
Sr1A O2 1_555 1_555
Sr1A_2 O3 1_555 1_555
Sr1C O5 1_555 1_555
Sr1C_2 O6 1_555 1_555
Sr1_2 O8 1_555 1_555
O2A Sr1 1_555 1_555
O3A Sr1 1_555 1_555
O5C Sr1 1_555 1_555
O6C Sr1 1_555 1_555
O8_2 Sr1 1_555 1_555
H3_2 O8_2 1_555 1_555
H4_2 O8_2 1_555 1_555
C1 C2 1_555 1_555
C5 C6 1_555 1_555
C7 C8 1_555 1_555
C9 C10 1_555 1_555

#END
