
#######################################################################
#
#                 Cambridge Crystallographic Data Centre
#                                CCDC 
#
#######################################################################
#
# If this CIF has been generated from an entry in the Cambridge 
# Structural Database, then it will include bibliographic, chemical, 
# crystal, experimental, refinement or atomic coordinate data resulting 
# from the CCDC's data processing and validation procedures.
#
#######################################################################

data_OBIYIJ
_symmetry_cell_setting           monoclinic
_symmetry_space_group_name_H-M   'P 21/c'
_symmetry_Int_Tables_number      14
_space_group_name_Hall           '-P 2ybc'
loop_
_symmetry_equiv_pos_site_id
_symmetry_equiv_pos_as_xyz
1 x,y,z
2 -x,1/2+y,1/2-z
3 -x,-y,-z
4 x,1/2-y,1/2+z
_cell_length_a                   6.9367(3)
_cell_length_b                   13.9983(3)
_cell_length_c                   11.1446(5)
_cell_angle_alpha                90
_cell_angle_beta                 106.043(2)
_cell_angle_gamma                90
_cell_volume                     1040.02
loop_
_atom_site_label
_atom_site_type_symbol
_atom_site_fract_x
_atom_site_fract_y
_atom_site_fract_z
Co1 Co 0.43042(7) 0.60139(3) 0.71677(4)
Br1 Br 0.21778(6) 0.59962(2) 0.49002(3)
Br2 Br 0.14725(6) 0.61738(3) 0.82087(3)
O1 O 0.6859(4) 0.5836(2) 0.6571(3)
O2 O 0.6433(4) 0.62621(18) 0.8992(2)
O3 O 0.8202(4) 0.7413(2) 1.0224(2)
N1 N 0.4772(4) 0.7525(2) 0.7222(3)
N2 N 0.5569(4) 0.9469(2) 0.7585(3)
C1 C 0.6070(5) 0.7858(2) 0.8275(3)
C2 C 0.6486(5) 0.8823(3) 0.8455(3)
H1 H 0.7426 0.9034 0.9201
C3 C 0.4312(6) 0.9125(3) 0.6539(3)
H2 H 0.3664 0.9558 0.5899
C4 C 0.3927(6) 0.8159(3) 0.6360(3)
H3 H 0.3032 0.7946 0.5599
C5 C 0.6938(5) 0.7099(3) 0.9208(3)
H4 H 0.701(7) 0.527(4) 0.619(5)
H5 H 0.802(5) 0.597(4) 0.700(6)
H6 H 0.854(7) 0.695(4) 1.066(5)
Co1A Co 0.56958(7) 1.10139(3) 0.78323(4)
N2A N 0.4431(4) 0.4469(2) 0.7415(3)
O4 O 0.9753(5) 0.6131(3) 1.1815(3)
H7 H 1.020(9) 0.625(4) 1.249(6)
H8 H 0.952(7) 0.560(4) 1.184(5)
loop_
_geom_bond_atom_site_label_1
_geom_bond_atom_site_label_2
_geom_bond_site_symmetry_1
_geom_bond_site_symmetry_2
Co1 Br1 1_555 1_555
Br2 Co1 1_555 1_555
O1 Co1 1_555 1_555
O2 Co1 1_555 1_555
O3 C5 1_555 1_555
N1 Co1 1_555 1_555
N2 C2 1_555 1_555
C1 N1 1_555 1_555
C2 C1 1_555 1_555
H1 C2 1_555 1_555
C3 N2 1_555 1_555
H2 C3 1_555 1_555
C4 N1 1_555 1_555
H3 C4 1_555 1_555
C5 O2 1_555 1_555
H4 O1 1_555 1_555
H5 O1 1_555 1_555
H6 O3 1_555 1_555
O4 H7 1_555 1_555
H8 O4 1_555 1_555
Co1A N2 1_555 1_555
N2A Co1 1_555 1_555
C1 C5 1_555 1_555
C3 C4 1_555 1_555

#END
