
#######################################################################
#
#                 Cambridge Crystallographic Data Centre
#                                CCDC 
#
#######################################################################
#
# If this CIF has been generated from an entry in the Cambridge 
# Structural Database, then it will include bibliographic, chemical, 
# crystal, experimental, refinement or atomic coordinate data resulting 
# from the CCDC's data processing and validation procedures.
#
#######################################################################

data_OBODAM
_symmetry_cell_setting           monoclinic
_symmetry_space_group_name_H-M   'C 2/c'
_symmetry_Int_Tables_number      15
_space_group_name_Hall           '-C 2yn'
loop_
_symmetry_equiv_pos_site_id
_symmetry_equiv_pos_as_xyz
1 x,y,z
2 -x,y,1/2-z
3 1/2+x,1/2+y,z
4 1/2-x,1/2+y,1/2-z
5 -x,-y,-z
6 x,-y,1/2+z
7 1/2-x,1/2-y,-z
8 1/2+x,1/2-y,1/2+z
_cell_length_a                   15.3065(11)
_cell_length_b                   5.6605(4)
_cell_length_c                   27.536(2)
_cell_angle_alpha                90
_cell_angle_beta                 95.6130(10)
_cell_angle_gamma                90
_cell_volume                     2374.35
loop_
_atom_site_label
_atom_site_type_symbol
_atom_site_fract_x
_atom_site_fract_y
_atom_site_fract_z
Ni1 Ni 0.5000 -0.13748(10) 0.7500
O1 O 0.46495(16) 0.1678(4) 0.79304(9)
O2 O 0.46148(17) 0.5597(5) 0.79161(9)
O3 O 0.8709(3) 0.4212(6) 0.93819(12)
N1 N 0.62123(18) -0.1330(5) 0.78683(10)
N2 N 0.73701(18) -0.0047(5) 0.83297(10)
C1 C 0.6893(2) -0.2891(6) 0.78450(13)
H1 H 0.6865 -0.4274 0.7662
C2 C 0.6534(2) 0.0357(7) 0.81664(12)
H2 H 0.6216 0.1666 0.8252
C3 C 0.7610(2) -0.2127(7) 0.81268(13)
H3 H 0.8155 -0.2863 0.8173
C4 C 0.7933(2) 0.1504(7) 0.86521(13)
H4 H 0.7668 0.3059 0.8657
H5 H 0.8499 0.1668 0.8525
C5 C 0.8066(3) 0.0541(8) 0.91673(13)
H6 H 0.7498 0.0192 0.9279
H7 H 0.8394 -0.0925 0.9166
C6 C 0.8547(3) 0.2235(9) 0.95153(15)
C7 C 0.8814(3) 0.1443(9) 1.00249(14)
C8 C 0.8604(4) -0.0672(11) 1.02023(18)
H8 H 0.8268 -0.1721 1.0002
C9 C 0.8881(5) -0.1321(11) 1.06808(19)
H9 H 0.8725 -0.2788 1.0797
C10 C 0.9371(3) 0.0151(11) 1.09733(17)
H10 H 0.9546 -0.0283 1.1294
C11 C 0.9609(4) 0.2238(12) 1.08058(18)
H11 H 0.9964 0.3247 1.1006
C12 C 0.9326(4) 0.2895(10) 1.03341(16)
H12 H 0.9488 0.4367 1.0222
C13 C 0.4784(2) 0.3633(6) 0.77433(12)
Ni1_2 Ni 0.5000 0.86252(10) 0.7500
O1A O 0.53505(16) 0.1678(4) 0.70696(9)
O2A O 0.53852(17) 0.5597(5) 0.70839(9)
O2_2 O 0.46148(17) -0.4403(5) 0.79161(9)
O2A_2 O 0.53852(17) -0.4403(5) 0.70839(9)
O3A O 0.1291(3) 0.4212(6) 0.56181(12)
N1A N 0.37877(18) -0.1330(5) 0.71317(10)
N2A N 0.26299(18) -0.0047(5) 0.66703(10)
C1A C 0.3107(2) -0.2891(6) 0.71550(13)
H1A H 0.3135 -0.4274 0.7338
C2A C 0.3466(2) 0.0357(7) 0.68336(12)
H2A H 0.3784 0.1666 0.6748
C3A C 0.2390(2) -0.2127(7) 0.68732(13)
H3A H 0.1845 -0.2863 0.6827
C4A C 0.2067(2) 0.1504(7) 0.63479(13)
H4A H 0.2332 0.3059 0.6343
H5A H 0.1501 0.1668 0.6475
C5A C 0.1934(3) 0.0541(8) 0.58327(13)
H6A H 0.2502 0.0192 0.5721
H7A H 0.1606 -0.0925 0.5834
C6A C 0.1453(3) 0.2235(9) 0.54847(15)
C7A C 0.1186(3) 0.1443(9) 0.49751(14)
C8A C 0.1396(4) -0.0672(11) 0.47977(18)
H8A H 0.1732 -0.1721 0.4998
C9A C 0.1119(5) -0.1321(11) 0.43192(19)
H9A H 0.1275 -0.2788 0.4203
C10A C 0.0629(3) 0.0151(11) 0.40267(17)
H10A H 0.0454 -0.0283 0.3706
C11A C 0.0391(4) 0.2238(12) 0.41942(18)
H11A H 0.0036 0.3247 0.3994
C12A C 0.0674(4) 0.2895(10) 0.46659(16)
H12A H 0.0512 0.4367 0.4778
C13A C 0.5216(2) 0.3633(6) 0.72567(12)
loop_
_geom_bond_atom_site_label_1
_geom_bond_atom_site_label_2
_geom_bond_site_symmetry_1
_geom_bond_site_symmetry_2
Ni1 O1 1_555 1_555
O1 C13 1_555 1_555
O2 C13 1_555 1_555
O3 C6 1_555 1_555
N1 Ni1 1_555 1_555
N2 C2 1_555 1_555
C1 N1 1_555 1_555
H1 C1 1_555 1_555
C2 N1 1_555 1_555
H2 C2 1_555 1_555
C3 N2 1_555 1_555
H3 C3 1_555 1_555
C4 N2 1_555 1_555
H4 C4 1_555 1_555
H5 C4 1_555 1_555
C5 C4 1_555 1_555
H6 C5 1_555 1_555
H7 C5 1_555 1_555
C6 C5 1_555 1_555
C7 C6 1_555 1_555
C8 C7 1_555 1_555
H8 C8 1_555 1_555
C9 C8 1_555 1_555
H9 C9 1_555 1_555
C10 C9 1_555 1_555
H10 C10 1_555 1_555
C11 C10 1_555 1_555
H11 C11 1_555 1_555
C12 C7 1_555 1_555
H12 C12 1_555 1_555
C13 C13A 1_555 1_555
Ni1_2 O2 1_555 1_555
O1A Ni1 1_555 1_555
O2A Ni1_2 1_555 1_555
O2_2 Ni1 1_555 1_555
O2A_2 Ni1 1_555 1_555
O3A C6A 1_555 1_555
N1A Ni1 1_555 1_555
N2A C2A 1_555 1_555
C1A N1A 1_555 1_555
H1A C1A 1_555 1_555
C2A N1A 1_555 1_555
H2A C2A 1_555 1_555
C3A N2A 1_555 1_555
H3A C3A 1_555 1_555
C4A N2A 1_555 1_555
H4A C4A 1_555 1_555
H5A C4A 1_555 1_555
C5A C4A 1_555 1_555
H6A C5A 1_555 1_555
H7A C5A 1_555 1_555
C6A C5A 1_555 1_555
C7A C6A 1_555 1_555
C8A C7A 1_555 1_555
H8A C8A 1_555 1_555
C9A C8A 1_555 1_555
H9A C9A 1_555 1_555
C10A C9A 1_555 1_555
H10A C10A 1_555 1_555
C11A C10A 1_555 1_555
H11A C11A 1_555 1_555
C12A C7A 1_555 1_555
H12A C12A 1_555 1_555
C13A O1A 1_555 1_555
C1 C3 1_555 1_555
C11 C12 1_555 1_555
O2A C13A 1_555 1_555
C1A C3A 1_555 1_555
C11A C12A 1_555 1_555

#END
