
#######################################################################
#
#                 Cambridge Crystallographic Data Centre
#                                CCDC 
#
#######################################################################
#
# If this CIF has been generated from an entry in the Cambridge 
# Structural Database, then it will include bibliographic, chemical, 
# crystal, experimental, refinement or atomic coordinate data resulting 
# from the CCDC's data processing and validation procedures.
#
#######################################################################

data_OBODIU
_symmetry_cell_setting           triclinic
_symmetry_space_group_name_H-M   'P -1'
_symmetry_Int_Tables_number      2
_space_group_name_Hall           '-P 1'
loop_
_symmetry_equiv_pos_site_id
_symmetry_equiv_pos_as_xyz
1 x,y,z
2 -x,-y,-z
_cell_length_a                   9.9591(8)
_cell_length_b                   10.0655(11)
_cell_length_c                   13.9890(12)
_cell_angle_alpha                69.3850(10)
_cell_angle_beta                 72.2250(10)
_cell_angle_gamma                75.038(2)
_cell_volume                     1231.86
loop_
_atom_site_label
_atom_site_type_symbol
_atom_site_fract_x
_atom_site_fract_y
_atom_site_fract_z
C1 C -0.5657(19) 1.292(2) 0.007(2)
H1 H -0.6534 1.2537 0.0384
H2 H -0.5268 1.2810 -0.0618
H3 H -0.5841 1.3919 0.0029
C2 C -0.4596(16) 1.2104(15) 0.0749(16)
Sn1 Sn -0.05517(11) 0.58071(10) 0.21992(7)
Sn2 Sn 0.05372(12) 0.02160(10) 0.27985(8)
S1 S 0.3647(5) 0.1708(5) 0.4326(4)
S2 S -0.3972(5) 1.0294(5) 0.0923(4)
O1 O 0.2015(11) 0.1158(10) 0.3134(9)
O2 O -0.2091(11) 0.7772(10) 0.1936(9)
O3 O 0.1153(12) 0.3438(10) 0.2374(9)
C3 C -0.3124(18) 1.1534(15) 0.1843(14)
H4 H -0.2632 1.1724 0.2236
C4 C 0.4377(16) 0.295(2) 0.4463(15)
C5 C 0.1916(14) 0.2509(14) 0.2919(11)
C6 C -0.172(2) 0.4864(19) 0.1640(17)
H5 H -0.1552 0.3837 0.1941
H6 H -0.1417 0.5104 0.0888
H7 H -0.2724 0.5226 0.1840
C7 C -0.2966(15) 1.0243(15) 0.1721(11)
C8 C -0.1981(16) 0.8909(16) 0.2101(12)
C9 C -0.0941(18) 0.5333(18) 0.3835(10)
H8 H -0.1854 0.5857 0.4093
H9 H -0.0206 0.5606 0.4004
H10 H -0.0941 0.4319 0.4158
C10 C 0.2827(15) 0.2953(15) 0.3406(12)
C11 C 0.1179(17) 0.6752(18) 0.1082(11)
H11 H 0.1680 0.7069 0.1426
H12 H 0.0823 0.7560 0.0554
H13 H 0.1820 0.6054 0.0758
C12 C -0.1218(18) 0.097(2) 0.3910(13)
H14 H -0.1401 0.2000 0.3687
H15 H -0.0993 0.0624 0.4585
H16 H -0.2052 0.0612 0.3959
O4 O -0.1108(12) 0.8892(11) 0.2585(9)
C13 C 0.0877(18) 0.120(2) 0.1165(11)
H17 H -0.0009 0.1408 0.0960
H18 H 0.1566 0.0569 0.0806
H19 H 0.1228 0.2085 0.0984
C14 C 0.175(2) -0.1893(17) 0.334(2)
H20 H 0.1702 -0.2493 0.2950
H21 H 0.1350 -0.2312 0.4074
H22 H 0.2724 -0.1816 0.3236
C15 C 0.398(2) 0.4268(19) 0.3810(18)
H23 H 0.4261 0.5099 0.3771
C16 C 0.3110(19) 0.4263(16) 0.3212(14)
H24 H 0.2759 0.5082 0.2726
C17 C -0.4115(16) 1.2583(17) 0.1315(14)
H25 H -0.4397 1.3516 0.1366
C18 C 0.5226(19) 0.261(2) 0.5266(18)
H26 H 0.5870 0.1712 0.5275
H27 H 0.4587 0.2526 0.5947
H28 H 0.5763 0.3361 0.5090
Sn2_2 Sn 0.05372(12) 1.02160(10) 0.27985(8)
O4_2 O -0.1108(12) -0.1108(11) 0.2585(9)
loop_
_geom_bond_atom_site_label_1
_geom_bond_atom_site_label_2
_geom_bond_site_symmetry_1
_geom_bond_site_symmetry_2
C1 H1 1_555 1_555
H2 C1 1_555 1_555
H3 C1 1_555 1_555
C2 C1 1_555 1_555
Sn1 O2 1_555 1_555
Sn2 O1 1_555 1_555
S1 C4 1_555 1_555
S2 C2 1_555 1_555
O1 C5 1_555 1_555
O2 C8 1_555 1_555
O3 Sn1 1_555 1_555
C3 H4 1_555 1_555
C4 C15 1_555 1_555
C5 O3 1_555 1_555
C6 Sn1 1_555 1_555
H5 C6 1_555 1_555
H6 C6 1_555 1_555
H7 C6 1_555 1_555
C7 S2 1_555 1_555
C8 C7 1_555 1_555
C9 Sn1 1_555 1_555
H8 C9 1_555 1_555
H9 C9 1_555 1_555
H10 C9 1_555 1_555
C10 S1 1_555 1_555
C11 Sn1 1_555 1_555
H11 C11 1_555 1_555
H12 C11 1_555 1_555
H13 C11 1_555 1_555
C12 Sn2 1_555 1_555
H14 C12 1_555 1_555
H15 C12 1_555 1_555
H16 C12 1_555 1_555
O4 C8 1_555 1_555
C13 Sn2 1_555 1_555
H17 C13 1_555 1_555
H18 C13 1_555 1_555
H19 C13 1_555 1_555
C14 Sn2 1_555 1_555
H20 C14 1_555 1_555
H21 C14 1_555 1_555
H22 C14 1_555 1_555
C15 H23 1_555 1_555
C16 C10 1_555 1_555
H24 C16 1_555 1_555
C17 C2 1_555 1_555
H25 C17 1_555 1_555
C18 C4 1_555 1_555
H26 C18 1_555 1_555
H27 C18 1_555 1_555
H28 C18 1_555 1_555
Sn2_2 O4 1_555 1_555
O4_2 Sn2 1_555 1_555
C3 C7 1_555 1_555
C3 C17 1_555 1_555
C5 C10 1_555 1_555
C15 C16 1_555 1_555

#END
