
#######################################################################
#
#                 Cambridge Crystallographic Data Centre
#                                CCDC 
#
#######################################################################
#
# If this CIF has been generated from an entry in the Cambridge 
# Structural Database, then it will include bibliographic, chemical, 
# crystal, experimental, refinement or atomic coordinate data resulting 
# from the CCDC's data processing and validation procedures.
#
#######################################################################

data_OBODOA
_symmetry_cell_setting           monoclinic
_symmetry_space_group_name_H-M   'P 21/c'
_symmetry_Int_Tables_number      14
_space_group_name_Hall           '-P 2ybc'
loop_
_symmetry_equiv_pos_site_id
_symmetry_equiv_pos_as_xyz
1 x,y,z
2 -x,1/2+y,1/2-z
3 -x,-y,-z
4 x,1/2-y,1/2+z
_cell_length_a                   9.6239(11)
_cell_length_b                   10.1916(11)
_cell_length_c                   12.1927(13)
_cell_angle_alpha                90
_cell_angle_beta                 95.146(2)
_cell_angle_gamma                90
_cell_volume                     1191.08
loop_
_atom_site_label
_atom_site_type_symbol
_atom_site_fract_x
_atom_site_fract_y
_atom_site_fract_z
C1 C 0.6575(4) 0.3910(3) 0.9523(3)
C2 C 0.6177(4) 0.3912(4) 0.8394(3)
H1 H 0.6037 0.3123 0.8016
C3 C 0.5989(4) 0.5098(3) 0.7836(3)
C4 C 0.6275(4) 0.6274(3) 0.8374(3)
H2 H 0.6188 0.7060 0.7987
C5 C 0.6696(4) 0.6277(3) 0.9507(3)
C6 C 0.6827(4) 0.5094(4) 1.0076(3)
H3 H 0.7084 0.5093 1.0830
C7 C 0.6734(4) 0.2659(4) 1.0171(3)
C8 C 0.6970(4) 0.7532(4) 1.0138(3)
C9 C 0.9582(5) 0.1183(4) 1.2027(4)
H4 H 0.9093 0.1936 1.2188
C10 C 1.0136(5) -0.0654(4) 1.1370(3)
H5 H 1.0093 -0.1433 1.0972
C11 C 1.1245(5) -0.0237(4) 1.2012(4)
H6 H 1.2095 -0.0667 1.2149
N1 N 0.5567(3) 0.5092(3) 0.6679(2)
H7 H 0.4983 0.4405 0.6509
H8 H 0.5065 0.5794 0.6488
N2 N 0.9069(3) 0.0238(3) 1.1382(3)
N3 N 1.0886(4) 0.0935(3) 1.2423(3)
H9 H 1.1418 0.1496 1.2921
O1 O 0.6978(3) 0.2682(2) 1.1177(2)
O2 O 0.6629(3) 0.1581(2) 0.9615(2)
O3 O 0.7375(3) 0.7512(2) 1.1132(2)
O4 O 0.6761(3) 0.8610(2) 0.9600(2)
Zn1 Zn 0.71550(5) 0.01074(4) 1.06385(4)
N1C N 0.5567(3) -0.0092(3) 1.1679(2)
O4_2 O 0.6761(3) -0.1390(2) 0.9600(2)
Zn1_2 Zn 0.71550(5) 1.01074(4) 1.06385(4)
Zn1C Zn 0.71550(5) 0.48926(4) 0.56385(4)
O5 O 0.0000 0.0000 0.5000
H10 H 0.0422 0.0359 0.4495
H10B H -0.0422 -0.0359 0.5505
H11? H -0.0453 -0.0137 0.4380
loop_
_geom_bond_atom_site_label_1
_geom_bond_atom_site_label_2
_geom_bond_site_symmetry_1
_geom_bond_site_symmetry_2
C1 C2 1_555 1_555
C2 H1 1_555 1_555
C3 C2 1_555 1_555
C4 C3 1_555 1_555
H2 C4 1_555 1_555
C5 C4 1_555 1_555
C6 C1 1_555 1_555
H3 C6 1_555 1_555
C7 C1 1_555 1_555
C8 C5 1_555 1_555
C9 H4 1_555 1_555
C10 H5 1_555 1_555
C11 C10 1_555 1_555
H6 C11 1_555 1_555
N1 C3 1_555 1_555
H7 N1 1_555 1_555
H8 N1 1_555 1_555
N2 C9 1_555 1_555
N3 C9 1_555 1_555
H9 N3 1_555 1_555
O1 C7 1_555 1_555
O2 C7 1_555 1_555
O3 C8 1_555 1_555
O4 C8 1_555 1_555
O5 H10 1_555 1_555
Zn1 N2 1_555 1_555
N1C Zn1 1_555 1_555
O4_2 Zn1 1_555 1_555
H10B O5 1_555 1_555
Zn1_2 O4 1_555 1_555
Zn1C N1 1_555 1_555
C5 C6 1_555 1_555
C10 N2 1_555 1_555
C11 N3 1_555 1_555
O2 Zn1 1_555 1_555

#END
