
#######################################################################
#
#                 Cambridge Crystallographic Data Centre
#                                CCDC 
#
#######################################################################
#
# If this CIF has been generated from an entry in the Cambridge 
# Structural Database, then it will include bibliographic, chemical, 
# crystal, experimental, refinement or atomic coordinate data resulting 
# from the CCDC's data processing and validation procedures.
#
#######################################################################

data_OBOGIX
_symmetry_cell_setting           monoclinic
_symmetry_space_group_name_H-M   'C 2/c'
_symmetry_Int_Tables_number      15
_space_group_name_Hall           '-C 2yn'
loop_
_symmetry_equiv_pos_site_id
_symmetry_equiv_pos_as_xyz
1 x,y,z
2 -x,y,1/2-z
3 1/2+x,1/2+y,z
4 1/2-x,1/2+y,1/2-z
5 -x,-y,-z
6 x,-y,1/2+z
7 1/2-x,1/2-y,-z
8 1/2+x,1/2-y,1/2+z
_cell_length_a                   17.950(9)
_cell_length_b                   8.263(4)
_cell_length_c                   10.188(5)
_cell_angle_alpha                90
_cell_angle_beta                 123.888(8)
_cell_angle_gamma                90
_cell_volume                     1254.4
loop_
_atom_site_label
_atom_site_type_symbol
_atom_site_fract_x
_atom_site_fract_y
_atom_site_fract_z
Mn1 Mn 0.0000 0.20755(10) 0.7500
Br1 Br -0.11908(3) 0.41487(5) 0.54940(5)
N1 N 0.07975(19) 0.1437(4) 0.6421(3)
N2 N 0.07926(19) -0.0143(4) 0.4459(3)
C1 C 0.1597(2) 0.2064(5) 0.6848(4)
H1 H 0.1869 0.2857 0.7660
C2 C 0.2028(2) 0.1594(5) 0.6146(4)
H2 H 0.2598 0.2025 0.6478
C3 C 0.1606(2) 0.0473(5) 0.4942(5)
H3 H 0.1892 0.0125 0.4439
C4 C 0.0437(2) 0.0356(4) 0.5240(4)
Mn1D Mn 0.0000 -0.20755(10) 0.2500
Br1A Br 0.11908(3) 0.41487(5) 0.95060(5)
N1D N -0.07975(19) -0.1437(4) 0.3579(3)
N1A N -0.07975(19) 0.1437(4) 0.8579(3)
N2D N -0.07926(19) 0.0143(4) 0.5541(3)
N2E N 0.07926(19) 0.0143(4) 0.9459(3)
C1D C -0.1597(2) -0.2064(5) 0.3152(4)
H1D H -0.1869 -0.2857 0.2340
C2D C -0.2028(2) -0.1594(5) 0.3854(4)
H2D H -0.2598 -0.2025 0.3522
C3D C -0.1606(2) -0.0473(5) 0.5058(5)
H3D H -0.1892 -0.0125 0.5561
C4D C -0.0437(2) -0.0356(4) 0.4760(4)
O1 O 0.0770(2) 0.2654(4) 0.2093(4)
H4 H 0.0833 0.3297 0.1523
H5 H 0.0717 0.3369 0.2623
loop_
_geom_bond_atom_site_label_1
_geom_bond_atom_site_label_2
_geom_bond_site_symmetry_1
_geom_bond_site_symmetry_2
Mn1 Br1 1_555 1_555
N1 Mn1 1_555 1_555
N2 C3 1_555 1_555
C1 N1 1_555 1_555
H1 C1 1_555 1_555
C2 C1 1_555 1_555
H2 C2 1_555 1_555
C3 C2 1_555 1_555
H3 C3 1_555 1_555
C4 N1 1_555 1_555
O1 H4 1_555 1_555
H5 O1 1_555 1_555
Mn1D N2 1_555 1_555
Br1A Mn1 1_555 1_555
N1D Mn1D 1_555 1_555
N1A Mn1 1_555 1_555
N2D Mn1 1_555 1_555
N2E Mn1 1_555 1_555
C1D N1D 1_555 1_555
H1D C1D 1_555 1_555
C2D C1D 1_555 1_555
H2D C2D 1_555 1_555
C3D N2D 1_555 1_555
H3D C3D 1_555 1_555
C4D C4 1_555 1_555
N2 C4 1_555 1_555
N1D C4D 1_555 1_555
N2D C4D 1_555 1_555
C2D C3D 1_555 1_555

#END
