
#######################################################################
#
#                 Cambridge Crystallographic Data Centre
#                                CCDC 
#
#######################################################################
#
# If this CIF has been generated from an entry in the Cambridge 
# Structural Database, then it will include bibliographic, chemical, 
# crystal, experimental, refinement or atomic coordinate data resulting 
# from the CCDC's data processing and validation procedures.
#
#######################################################################

data_OBOHOE
_symmetry_cell_setting           monoclinic
_symmetry_space_group_name_H-M   'P 21/n'
_symmetry_Int_Tables_number      14
_space_group_name_Hall           '-P 2yn'
loop_
_symmetry_equiv_pos_site_id
_symmetry_equiv_pos_as_xyz
1 x,y,z
2 1/2-x,1/2+y,1/2-z
3 -x,-y,-z
4 1/2+x,1/2-y,1/2+z
_cell_length_a                   6.8109(7)
_cell_length_b                   12.0469(13)
_cell_length_c                   9.9191(11)
_cell_angle_alpha                90
_cell_angle_beta                 102.3330(10)
_cell_angle_gamma                90
_cell_volume                     795.083
loop_
_atom_site_label
_atom_site_type_symbol
_atom_site_fract_x
_atom_site_fract_y
_atom_site_fract_z
O1 O 0.2040(3) -0.20134(16) 0.40189(19)
O2 O 0.2816(2) 0.22697(11) 0.83932(14)
O3 O 0.4176(2) 0.09317(12) 0.37610(18)
N1 N 0.2587(3) 0.37894(14) 0.64192(17)
C1 C 0.2491(4) 0.45523(18) 0.5424(2)
Ca1 Ca 0.23561(6) -0.08343(3) 0.59754(4)
O4 O 0.1145(2) 0.06496(11) 0.41707(14)
O5 O 0.3116(2) 0.08934(10) 0.69619(14)
C2 C 0.2677(3) 0.12378(16) 0.41813(19)
C3 C 0.2679(3) 0.27200(15) 0.60607(19)
C4 C 0.2868(3) 0.18869(15) 0.72322(19)
C5 C 0.2662(3) 0.24255(16) 0.46930(19)
N2 N 0.2632(3) 0.31989(14) 0.37173(17)
C6 C 0.2526(4) 0.42579(17) 0.4091(2)
H1 H 0.242(3) 0.526(2) 0.564(2)
H2 H 0.245(3) 0.479(2) 0.336(2)
H3 H 0.212(5) -0.198(3) 0.319(4)
H4 H 0.207(5) -0.260(3) 0.426(4)
O2A O 0.2184(2) -0.27303(11) 0.66068(14)
O3B O 0.5824(2) -0.09317(12) 0.62390(18)
N1A N 0.2413(3) -0.12106(14) 0.85808(17)
Ca1A Ca 0.26439(6) 0.41657(3) 0.90246(4)
Ca1B Ca 0.76439(6) 0.08343(3) 0.40246(4)
Ca1B_2 Ca -0.23561(6) 0.08343(3) 0.40246(4)
O4B O -0.1145(2) -0.06496(11) 0.58293(14)
loop_
_geom_bond_atom_site_label_1
_geom_bond_atom_site_label_2
_geom_bond_site_symmetry_1
_geom_bond_site_symmetry_2
O1 Ca1 1_555 1_555
O2 C4 1_555 1_555
O3 C2 1_555 1_555
N1 C1 1_555 1_555
C1 C6 1_555 1_555
Ca1 O4 1_555 1_555
O4 C2 1_555 1_555
O5 Ca1 1_555 1_555
C2 C5 1_555 1_555
C3 N1 1_555 1_555
C4 O5 1_555 1_555
C5 C3 1_555 1_555
N2 C5 1_555 1_555
C6 N2 1_555 1_555
H1 C1 1_555 1_555
H2 C6 1_555 1_555
H3 O1 1_555 1_555
H4 O1 1_555 1_555
O2A Ca1 1_555 1_555
O3B Ca1 1_555 1_555
N1A Ca1 1_555 1_555
Ca1A O2 1_555 1_555
Ca1B O3 1_555 1_555
Ca1B_2 O4 1_555 1_555
O4B Ca1 1_555 1_555
N1 Ca1A 1_555 1_555
C3 C4 1_555 1_555
Ca1B_2 O4B 1_555 1_555

#END
