
#######################################################################
#
#                 Cambridge Crystallographic Data Centre
#                                CCDC 
#
#######################################################################
#
# If this CIF has been generated from an entry in the Cambridge 
# Structural Database, then it will include bibliographic, chemical, 
# crystal, experimental, refinement or atomic coordinate data resulting 
# from the CCDC's data processing and validation procedures.
#
#######################################################################

data_OBOJEW
_symmetry_cell_setting           monoclinic
_symmetry_space_group_name_H-M   'P 21/c'
_symmetry_Int_Tables_number      14
_space_group_name_Hall           '-P 2ybc'
loop_
_symmetry_equiv_pos_site_id
_symmetry_equiv_pos_as_xyz
1 x,y,z
2 -x,1/2+y,1/2-z
3 -x,-y,-z
4 x,1/2-y,1/2+z
_cell_length_a                   11.0926(11)
_cell_length_b                   9.8735(10)
_cell_length_c                   17.4317(15)
_cell_angle_alpha                90
_cell_angle_beta                 116.533(5)
_cell_angle_gamma                90
_cell_volume                     1708.09
loop_
_atom_site_label
_atom_site_type_symbol
_atom_site_fract_x
_atom_site_fract_y
_atom_site_fract_z
C1 C 0.8386(3) 0.5358(3) 0.59337(16)
C2 C 0.8790(3) 0.5330(3) 0.68135(17)
H1 H 0.8344 0.5858 0.7048
C3 C 0.9868(3) 0.4503(3) 0.73445(16)
C4 C 1.0543(3) 0.3722(3) 0.70059(16)
H2 H 1.1273 0.3195 0.7364
C5 C 1.0122(3) 0.3726(3) 0.61166(16)
C6 C 0.9043(3) 0.4529(3) 0.55925(17)
H3 H 0.8752 0.4514 0.5003
C7 C 1.0840(3) 0.2913(3) 0.57301(17)
C8 C 1.0286(3) 0.4465(3) 0.82983(17)
C9 C 0.6291(3) 0.6616(3) 0.55952(19)
H4 H 0.6685 0.7056 0.6151
H5 H 0.5806 0.5819 0.5630
C10 C 0.5346(3) 0.7568(3) 0.49261(18)
C11 C 0.3962(3) 0.7546(3) 0.4660(2)
H6 H 0.3587 0.6926 0.4894
C12 C 0.3154(3) 0.8459(4) 0.4045(3)
H7 H 0.2226 0.8456 0.3856
C13 C 0.3740(3) 0.9382(4) 0.3709(2)
H8 H 0.3216 1.0010 0.3297
C14 C 0.5124(3) 0.9341(3) 0.4002(2)
H9 H 0.5523 0.9954 0.3781
Co1 Co 1.20146(4) 0.17514(4) 0.49770(2)
N1 N 0.7352(2) 0.6226(2) 0.53540(15)
H10 H 0.6876 0.5862 0.4822
N2 N 0.5908(2) 0.8448(2) 0.45967(15)
O1 O 1.0210(2) 0.2537(2) 0.49556(13)
O2 O 1.2068(2) 0.2644(2) 0.61450(14)
O3 O 1.1274(2) 0.3701(2) 0.87308(12)
O4 O 0.9694(3) 0.5200(3) 0.86000(15)
O5 O 1.1716(2) -0.0155(2) 0.54116(15)
H11 H 1.1069 -0.0587 0.4995
H12 H 1.1367 -0.0012 0.5799
Co1B Co 0.79854(4) 0.82486(4) 0.50230(2)
Co1C Co 1.20146(4) 0.32486(4) 0.99770(2)
N1B N 1.2648(2) 0.3774(2) 0.46460(15)
H10B H 1.3124 0.4138 0.5178
N2B N 1.4092(2) 0.1552(2) 0.54033(15)
O3C O 1.1274(2) 0.1299(2) 0.37308(12)
loop_
_geom_bond_atom_site_label_1
_geom_bond_atom_site_label_2
_geom_bond_site_symmetry_1
_geom_bond_site_symmetry_2
C1 C2 1_555 1_555
C2 H1 1_555 1_555
C3 C2 1_555 1_555
C4 C3 1_555 1_555
H2 C4 1_555 1_555
C5 C4 1_555 1_555
C6 C1 1_555 1_555
H3 C6 1_555 1_555
C7 C5 1_555 1_555
C8 C3 1_555 1_555
C9 H4 1_555 1_555
H5 C9 1_555 1_555
C10 C9 1_555 1_555
C11 C10 1_555 1_555
H6 C11 1_555 1_555
C12 C11 1_555 1_555
H7 C12 1_555 1_555
C13 C12 1_555 1_555
H8 C13 1_555 1_555
C14 C13 1_555 1_555
H9 C14 1_555 1_555
Co1 O1 1_555 1_555
N1 C1 1_555 1_555
H10 N1 1_555 1_555
N2 C10 1_555 1_555
O1 C7 1_555 1_555
O2 C7 1_555 1_555
O3 C8 1_555 1_555
O4 C8 1_555 1_555
O5 Co1 1_555 1_555
H11 O5 1_555 1_555
H12 O5 1_555 1_555
Co1B N1 1_555 1_555
Co1C O3 1_555 1_555
N1B Co1 1_555 1_555
H10B N1B 1_555 1_555
N2B Co1 1_555 1_555
O3C Co1 1_555 1_555
C5 C6 1_555 1_555
C9 N1 1_555 1_555
C14 N2 1_555 1_555
Co1 O2 1_555 1_555
N2 Co1B 1_555 1_555

#END
