
#######################################################################
#
#                 Cambridge Crystallographic Data Centre
#                                CCDC 
#
#######################################################################
#
# If this CIF has been generated from an entry in the Cambridge 
# Structural Database, then it will include bibliographic, chemical, 
# crystal, experimental, refinement or atomic coordinate data resulting 
# from the CCDC's data processing and validation procedures.
#
#######################################################################

data_OBOLOG
_symmetry_cell_setting           monoclinic
_symmetry_space_group_name_H-M   'P 2/n'
_symmetry_Int_Tables_number      13
_space_group_name_Hall           '-P 2yac'
loop_
_symmetry_equiv_pos_site_id
_symmetry_equiv_pos_as_xyz
1 x,y,z
2 1/2+x,-y,1/2+z
3 -x,-y,-z
4 1/2-x,y,1/2-z
_cell_length_a                   8.7151(7)
_cell_length_b                   13.792(1)
_cell_length_c                   10.2996(5)
_cell_angle_alpha                90
_cell_angle_beta                 112.095(5)
_cell_angle_gamma                90
_cell_volume                     1147.08
loop_
_atom_site_label
_atom_site_type_symbol
_atom_site_fract_x
_atom_site_fract_y
_atom_site_fract_z
Co1 Co 0.7500 0.2122(1) 0.2500
Cl1 Cl 0.7659(2) 0.2114(1) 0.0163(2)
N1 N 1.0105(7) 0.1762(4) 0.3386(6)
C1 C 1.1378(9) 0.2376(5) 0.3791(7)
C2 C 1.3014(8) 0.2077(6) 0.4315(7)
C3 C 1.3326(8) 0.1100(6) 0.4425(7)
C4 C 1.2046(9) 0.0448(5) 0.4025(7)
C5 C 1.0430(8) 0.0794(5) 0.3496(7)
C6 C 0.8953(8) 0.0158(5) 0.2988(7)
N2 N 0.7500 0.0637(5) 0.2500
C7 C 0.9005(8) -0.0847(5) 0.3016(7)
C8 C 0.7500 -0.1360(7) 0.2500
C9 C 0.7500 -0.2396(7) 0.2500
C10 C 0.7500 -0.3238(8) 0.2500
C11 C 0.7500 -0.4312(7) 0.2500
N3 N 0.7500 -0.6333(6) 0.2500
C12 C 0.796(2) -0.5825(7) 0.363(1)
C13 C 0.795(2) -0.4823(7) 0.365(1)
H1 H 1.1152 0.3051 0.3717
H2 H 1.3893 0.2535 0.4589
H3 H 1.4436 0.0873 0.4780
H4 H 1.2260 -0.0229 0.4108
H5 H 1.0033 -0.1182 0.3374
H7 H 0.8334 -0.6159 0.4498
H8 H 0.8265 -0.4498 0.4528
C6C C 0.6047(8) 0.0158(5) 0.2012(7)
C5C C 0.4570(8) 0.0794(5) 0.1504(7)
N1C N 0.4895(7) 0.1762(4) 0.1614(6)
C1C C 0.3622(9) 0.2376(5) 0.1209(7)
C2C C 0.1986(8) 0.2077(6) 0.0685(7)
C3C C 0.1674(8) 0.1100(6) 0.0575(7)
C4C C 0.2954(9) 0.0448(5) 0.0975(7)
H4C H 0.2740 -0.0229 0.0892
H3C H 0.0564 0.0873 0.0220
H2C H 0.1107 0.2535 0.0411
H1C H 0.3848 0.3051 0.1283
C7C C 0.5995(8) -0.0847(5) 0.1984(7)
C12C C 0.704(2) -0.5825(7) 0.137(1)
C13C C 0.705(2) -0.4823(7) 0.135(1)
H8C H 0.6735 -0.4498 0.0472
H7C H 0.6666 -0.6159 0.0502
H5C H 0.4967 -0.1182 0.1626
Cl1C Cl 0.7341(2) 0.2114(1) 0.4837(2)
N3_2 N 0.7500 0.3667(6) 0.2500
Co1_2 Co 0.7500 -0.7878(1) 0.2500
C14 C 0.2500 0.627(2) 0.2500
Cl2 Cl 0.107(1) 0.535(1) 0.156(1)
Cl2C Cl 0.393(1) 0.535(1) 0.344(1)
H6? H 0.7500 0.6376 0.2500
loop_
_geom_bond_atom_site_label_1
_geom_bond_atom_site_label_2
_geom_bond_site_symmetry_1
_geom_bond_site_symmetry_2
Co1 Cl1 1_555 1_555
N1 Co1 1_555 1_555
C1 N1 1_555 1_555
C2 C1 1_555 1_555
C3 C2 1_555 1_555
C4 C3 1_555 1_555
C5 N1 1_555 1_555
C6 C5 1_555 1_555
N2 Co1 1_555 1_555
C7 C6 1_555 1_555
C8 C7 1_555 1_555
C9 C8 1_555 1_555
C10 C9 1_555 1_555
C11 C10 1_555 1_555
N3 C12 1_555 1_555
C12 C13 1_555 1_555
C13 C11 1_555 1_555
C14 Cl2 1_555 1_555
H1 C1 1_555 1_555
H2 C2 1_555 1_555
H3 C3 1_555 1_555
H4 C4 1_555 1_555
H5 C7 1_555 1_555
H7 C12 1_555 1_555
H8 C13 1_555 1_555
C6C N2 1_555 1_555
C5C C6C 1_555 1_555
N1C Co1 1_555 1_555
C1C N1C 1_555 1_555
C2C C1C 1_555 1_555
C3C C2C 1_555 1_555
C4C C5C 1_555 1_555
H4C C4C 1_555 1_555
H3C C3C 1_555 1_555
H2C C2C 1_555 1_555
H1C C1C 1_555 1_555
C7C C8 1_555 1_555
C12C N3 1_555 1_555
C13C C11 1_555 1_555
H8C C13C 1_555 1_555
H7C C12C 1_555 1_555
H5C C7C 1_555 1_555
Cl2C C14 1_555 1_555
Cl1C Co1 1_555 1_555
N3_2 Co1 1_555 1_555
Co1_2 N3 1_555 1_555
C4 C5 1_555 1_555
C6 N2 1_555 1_555
C6C C7C 1_555 1_555
C5C N1C 1_555 1_555
C3C C4C 1_555 1_555
C12C C13C 1_555 1_555

#END
