
#######################################################################
#
#                 Cambridge Crystallographic Data Centre
#                                CCDC 
#
#######################################################################
#
# If this CIF has been generated from an entry in the Cambridge 
# Structural Database, then it will include bibliographic, chemical, 
# crystal, experimental, refinement or atomic coordinate data resulting 
# from the CCDC's data processing and validation procedures.
#
#######################################################################

data_OBOMEX
_symmetry_cell_setting           triclinic
_symmetry_space_group_name_H-M   'P 1'
_symmetry_Int_Tables_number      1
_space_group_name_Hall           'P 1'
loop_
_symmetry_equiv_pos_site_id
_symmetry_equiv_pos_as_xyz
1 x,y,z
_cell_length_a                   11.03290(10)
_cell_length_b                   11.8242(2)
_cell_length_c                   15.3874(2)
_cell_angle_alpha                72.2980(10)
_cell_angle_beta                 81.4440(10)
_cell_angle_gamma                84.8620(10)
_cell_volume                     1888.94
loop_
_atom_site_label
_atom_site_type_symbol
_atom_site_fract_x
_atom_site_fract_y
_atom_site_fract_z
N11 N 0.5004(9) 1.0390(8) -0.4896(7)
C51 C 0.5557(15) 1.1583(14) -0.5224(11)
H41 H 0.6117 1.1623 -0.5781
H42 H 0.4906 1.2187 -0.5385
C52 C 0.6211(17) 1.1868(15) -0.4579(11)
H43 H 0.6513 1.2653 -0.4843
H44 H 0.6889 1.1304 -0.4439
H45 H 0.5668 1.1838 -0.4024
C53 C 0.5939(19) 0.9392(18) -0.4386(14)
H46 H 0.5567 0.8632 -0.4108
H47 H 0.6291 0.9622 -0.3927
C54 C 0.7034(13) 0.9389(13) -0.5368(10)
H48 H 0.7681 0.8803 -0.5185
H49 H 0.7371 1.0159 -0.5626
H50 H 0.6637 0.9203 -0.5819
C55 C 0.428(2) 1.0260(18) -0.5553(15)
H51 H 0.4752 1.0535 -0.6157
H52 H 0.3557 1.0783 -0.5546
C56 C 0.3819(17) 0.8836(15) -0.5409(12)
H53 H 0.3370 0.8854 -0.5902
H54 H 0.3304 0.8569 -0.4833
H55 H 0.4527 0.8302 -0.5414
C57 C 0.3966(15) 1.0319(15) -0.4010(12)
H56 H 0.3747 0.9500 -0.3726
H57 H 0.4306 1.0581 -0.3562
C58 C 0.2856(16) 1.1057(14) -0.4266(11)
H58 H 0.2276 1.1000 -0.3725
H59 H 0.2499 1.0782 -0.4693
H60 H 0.3067 1.1869 -0.4546
O3 O 0.360(2) 0.2070(19) -0.2480(14)
I1 I -0.31136(9) 0.63568(8) -0.32104(6)
I2 I -0.69615(7) 1.37530(7) 0.31783(5)
I3 I 1.06648(9) 0.25805(9) -0.06221(7)
Mo1 Mo 0.03917(7) 0.82040(6) -0.27917(5)
Mo2 Mo -1.03880(6) 1.18052(6) 0.27835(5)
Cu1 Cu -0.19516(10) 0.75212(10) -0.25135(8)
Cu2 Cu -0.05514(11) 1.03082(9) -0.26560(8)
Cu3 Cu 0.05464(11) 0.74341(11) -0.09820(9)
Cu4 Cu 0.95473(11) 0.24583(10) 0.09453(8)
Cu5 Cu -0.80458(10) 1.24561(10) 0.25036(8)
Cu6 Cu -0.94104(11) 0.96509(9) 0.27469(8)
S1 S -0.1188(2) 0.9247(2) -0.34962(16)
S2 S 0.1040(2) 0.9272(2) -0.1954(2)
S3 S -0.0324(2) 0.64883(19) -0.18191(18)
S4 S -0.8847(2) 1.0792(2) 0.35629(17)
S5 S 0.8991(2) 0.0675(2) 0.19840(18)
S6 S 1.0368(2) 0.3483(2) 0.17631(18)
O1 O 0.1518(7) 0.7974(7) -0.3567(5)
O2 O -1.1631(7) 1.2144(6) 0.3520(5)
N1 N -0.3381(7) 0.7883(7) -0.1531(5)
N2 N -0.8023(8) 0.9211(6) 0.1783(6)
N3 N -0.0383(8) 1.2016(6) -0.3521(6)
N4 N -0.0453(8) 0.7207(7) 0.0258(6)
N5 N -0.4518(16) 0.5886(18) 0.4310(11)
N6 N 0.2163(8) 0.6421(7) -0.0590(5)
N7 N 0.7831(7) 0.3384(7) 0.0590(5)
N8 N -0.6632(7) 1.1973(7) 0.1544(6)
N9 N -0.1969(7) 1.0683(7) -0.1694(5)
N10 N 0.0328(8) 1.7911(7) -0.6417(5)
C1 C -0.3184(10) 0.7833(10) -0.0732(7)
H1 H -0.2393 0.7628 -0.0579
C2 C -0.4139(10) 0.8082(9) -0.0035(8)
H2 H -0.3968 0.7965 0.0561
C3 C -0.5226(8) 0.8466(7) -0.0253(6)
C4 C -0.6186(10) 0.8697(7) 0.0417(6)
C5 C -0.6186(9) 0.8113(8) 0.1400(7)
H3 H -0.5575 0.7538 0.1601
C6 C -0.7082(10) 0.8402(9) 0.2036(7)
H4 H -0.7042 0.8032 0.2659
C7 C -0.8097(9) 0.9742(7) 0.0876(6)
H5 H -0.8740 1.0292 0.0702
C8 C -0.7215(8) 0.9474(8) 0.0190(6)
H6 H -0.7315 0.9820 -0.0426
C9 C -0.5463(9) 0.8519(8) -0.1112(6)
H7 H -0.6245 0.8737 -0.1281
C10 C -0.4511(9) 0.8240(9) -0.1732(6)
H8 H -0.4677 0.8309 -0.2322
C11 C -0.0203(11) 1.2248(8) -0.4404(6)
H9 H -0.0221 1.1634 -0.4662
C12 C 0.0015(11) 1.3377(8) -0.4976(7)
H10 H 0.0277 1.3481 -0.5598
C13 C -0.0147(10) 1.4384(6) -0.4651(6)
C14 C -0.028(2) 1.4173(10) -0.3705(8)
H11 H -0.0190 1.4781 -0.3457
C15 C -0.0574(15) 1.2985(9) -0.3104(9)
H12 H -0.0868 1.2852 -0.2485
C16 C -0.0682(12) 0.8095(9) 0.0702(10)
H13 H -0.0299 0.8814 0.0473
C17 C -0.1540(11) 0.7833(9) 0.1527(8)
H14 H -0.1762 0.8426 0.1810
C18 C -0.2049(11) 0.6741(9) 0.1918(8)
C19 C -0.3004(11) 0.6443(10) 0.2823(7)
C20 C -0.2782(13) 0.7029(13) 0.3476(10)
H15 H -0.2097 0.7474 0.3393
C21 C -0.3626(16) 0.689(2) 0.4201(14)
H16 H -0.3683 0.7338 0.4607
C22 C -0.4617(18) 0.558(2) 0.3644(14)
H17 H -0.5271 0.5125 0.3662
C23 C -0.3916(16) 0.5836(14) 0.2984(10)
H18 H -0.4056 0.5548 0.2511
C24 C -0.1715(9) 0.5859(8) 0.1476(7)
H19 H -0.2034 0.5109 0.1715
C25 C -0.0937(10) 0.6122(8) 0.0711(7)
H20 H -0.0691 0.5509 0.0453
C26 C 0.3049(10) 0.6101(11) -0.1184(7)
H21 H 0.2914 0.6275 -0.1794
C27 C 0.4086(10) 0.5562(10) -0.0952(8)
H22 H 0.4645 0.5382 -0.1412
C28 C 0.4401(9) 0.5256(8) -0.0132(7)
C29 C 0.5567(8) 0.4658(7) 0.0132(6)
C30 C 0.6602(9) 0.4631(9) -0.0502(7)
H23 H 0.6564 0.5051 -0.1116
C31 C 0.7656(9) 0.4025(9) -0.0266(6)
H24 H 0.8308 0.4055 -0.0730
C32 C 0.6919(9) 0.3379(8) 0.1212(7)
H25 H 0.7021 0.2941 0.1813
C33 C 0.5742(8) 0.3997(8) 0.1057(7)
H26 H 0.5120 0.3968 0.1542
C34 C 0.3515(9) 0.5485(8) 0.0560(7)
H27 H 0.3616 0.5284 0.1179
C35 C 0.2397(12) 0.6091(10) 0.0166(11)
H28 H 0.1768 0.6235 0.0600
C36 C -0.6698(9) 1.2478(9) 0.0621(6)
H29 H -0.7360 1.2992 0.0429
C37 C -0.5840(9) 1.2243(8) 0.0014(6)
H30 H -0.5930 1.2553 -0.0606
C38 C -0.4780(9) 1.1534(8) 0.0266(6)
C39 C -0.3773(9) 1.1245(8) -0.0427(7)
C40 C -0.4049(11) 1.1195(9) -0.1271(6)
H31 H -0.4839 1.1321 -0.1435
C41 C -0.3034(10) 1.0939(10) -0.1843(7)
H32 H -0.3186 1.0967 -0.2428
C42 C -0.1744(10) 1.0740(8) -0.0888(7)
H33 H -0.0936 1.0598 -0.0761
C43 C -0.2591(10) 1.0988(8) -0.0237(8)
H34 H -0.2377 1.0983 0.0326
C44 C -0.4795(11) 1.1068(12) 0.1226(7)
H35 H -0.4107 1.0635 0.1457
C45 C -0.5777(12) 1.1232(10) 0.1819(7)
H36 H -0.5822 1.0793 0.2436
C46 C 0.0139(10) 1.7691(7) -0.5492(7)
H37 H 0.0092 1.8327 -0.5249
C47 C 0.0011(11) 1.6529(8) -0.4881(7)
H38 H -0.0090 1.6406 -0.4249
C48 C 0.0037(10) 1.5628(9) -0.5211(7)
C49 C 0.0309(11) 1.5858(8) -0.6242(8)
H39 H 0.0410 1.5242 -0.6509
C50 C 0.0396(11) 1.7013(8) -0.6754(7)
H40 H 0.0514 1.7178 -0.7390
S5_2 S -1.1009(2) 1.0675(2) 0.19840(18)
S6_2 S -0.9632(2) 1.3483(2) 0.17631(18)
N10_2 N -0.9672(8) 0.7911(7) 0.3583(5)
Mo2_2 Mo 0.96120(6) 0.18052(6) 0.27835(5)
Cu6_2 Cu 1.05896(11) -0.03491(9) 0.27469(8)
Cu5_2 Cu 1.19542(10) 0.24561(10) 0.25036(8)
Cu6_3 Cu 0.05896(11) 1.96509(9) -0.72531(8)
loop_
_geom_bond_atom_site_label_1
_geom_bond_atom_site_label_2
_geom_bond_site_symmetry_1
_geom_bond_site_symmetry_2
I1 Cu1 1_555 1_555
I2 Cu5 1_555 1_555
I3 Cu4 1_555 1_555
Mo1 S1 1_555 1_555
Mo2 S4 1_555 1_555
Cu1 S1 1_555 1_555
Cu2 S1 1_555 1_555
Cu3 S2 1_555 1_555
Cu4 S5 1_555 1_555
Cu5 S4 1_555 1_555
Cu6 S4 1_555 1_555
S2 Mo1 1_555 1_555
S3 Mo1 1_555 1_555
S5 Mo2_2 1_555 1_555
S6 Cu4 1_555 1_555
O1 Mo1 1_555 1_555
O2 Mo2 1_555 1_555
N1 Cu1 1_555 1_555
N2 Cu6 1_555 1_555
N3 Cu2 1_555 1_555
N4 Cu3 1_555 1_555
N5 C21 1_555 1_555
N6 Cu3 1_555 1_555
N7 Cu4 1_555 1_555
N8 Cu5 1_555 1_555
N9 Cu2 1_555 1_555
N10 C46 1_555 1_555
N11 C51 1_555 1_555
C1 N1 1_555 1_555
H1 C1 1_555 1_555
C2 C1 1_555 1_555
H2 C2 1_555 1_555
C3 C2 1_555 1_555
C4 C3 1_555 1_555
C5 C4 1_555 1_555
H3 C5 1_555 1_555
C6 N2 1_555 1_555
H4 C6 1_555 1_555
C7 N2 1_555 1_555
H5 C7 1_555 1_555
C8 C4 1_555 1_555
H6 C8 1_555 1_555
C9 C3 1_555 1_555
H7 C9 1_555 1_555
C10 N1 1_555 1_555
H8 C10 1_555 1_555
C11 N3 1_555 1_555
H9 C11 1_555 1_555
C12 C11 1_555 1_555
H10 C12 1_555 1_555
C13 C12 1_555 1_555
C14 C13 1_555 1_555
H11 C14 1_555 1_555
C15 N3 1_555 1_555
H12 C15 1_555 1_555
C16 N4 1_555 1_555
H13 C16 1_555 1_555
C17 C16 1_555 1_555
H14 C17 1_555 1_555
C18 C17 1_555 1_555
C19 C18 1_555 1_555
C20 C19 1_555 1_555
H15 C20 1_555 1_555
C21 C20 1_555 1_555
H16 C21 1_555 1_555
C22 N5 1_555 1_555
H17 C22 1_555 1_555
C23 C19 1_555 1_555
H18 C23 1_555 1_555
C24 C18 1_555 1_555
H19 C24 1_555 1_555
C25 N4 1_555 1_555
H20 C25 1_555 1_555
C26 N6 1_555 1_555
H21 C26 1_555 1_555
C27 C26 1_555 1_555
H22 C27 1_555 1_555
C28 C27 1_555 1_555
C29 C28 1_555 1_555
C30 C29 1_555 1_555
H23 C30 1_555 1_555
C31 N7 1_555 1_555
H24 C31 1_555 1_555
C32 N7 1_555 1_555
H25 C32 1_555 1_555
C33 C29 1_555 1_555
H26 C33 1_555 1_555
C34 C28 1_555 1_555
H27 C34 1_555 1_555
C35 N6 1_555 1_555
H28 C35 1_555 1_555
C36 N8 1_555 1_555
H29 C36 1_555 1_555
C37 C36 1_555 1_555
H30 C37 1_555 1_555
C38 C37 1_555 1_555
C39 C38 1_555 1_555
C40 C39 1_555 1_555
H31 C40 1_555 1_555
C41 N9 1_555 1_555
H32 C41 1_555 1_555
C42 N9 1_555 1_555
H33 C42 1_555 1_555
C43 C39 1_555 1_555
H34 C43 1_555 1_555
C44 C38 1_555 1_555
H35 C44 1_555 1_555
C45 N8 1_555 1_555
H36 C45 1_555 1_555
C46 H37 1_555 1_555
C47 C46 1_555 1_555
H38 C47 1_555 1_555
C48 C13 1_555 1_555
C49 C48 1_555 1_555
H39 C49 1_555 1_555
C50 N10 1_555 1_555
H40 C50 1_555 1_555
C51 H41 1_555 1_555
H42 C51 1_555 1_555
C52 C51 1_555 1_555
H43 C52 1_555 1_555
H44 C52 1_555 1_555
H45 C52 1_555 1_555
C53 N11 1_555 1_555
H46 C53 1_555 1_555
H47 C53 1_555 1_555
C54 C53 1_555 1_555
H48 C54 1_555 1_555
H49 C54 1_555 1_555
H50 C54 1_555 1_555
C55 N11 1_555 1_555
H51 C55 1_555 1_555
H52 C55 1_555 1_555
C56 C55 1_555 1_555
H53 C56 1_555 1_555
H54 C56 1_555 1_555
H55 C56 1_555 1_555
C57 N11 1_555 1_555
H56 C57 1_555 1_555
H57 C57 1_555 1_555
C58 C57 1_555 1_555
H58 C58 1_555 1_555
H59 C58 1_555 1_555
H60 C58 1_555 1_555
S5_2 Mo2 1_555 1_555
S6_2 Mo2 1_555 1_555
N10_2 Cu6 1_555 1_555
Mo2_2 S6 1_555 1_555
Cu6_2 S5 1_555 1_555
Cu5_2 S6 1_555 1_555
Cu6_3 N10 1_555 1_555
Cu1 S3 1_555 1_555
Cu2 S2 1_555 1_555
Cu3 S3 1_555 1_555
Cu5 S6_2 1_555 1_555
Cu6 S5_2 1_555 1_555
C5 C6 1_555 1_555
C7 C8 1_555 1_555
C9 C10 1_555 1_555
C14 C15 1_555 1_555
C22 C23 1_555 1_555
C24 C25 1_555 1_555
C30 C31 1_555 1_555
C32 C33 1_555 1_555
C34 C35 1_555 1_555
C40 C41 1_555 1_555
C42 C43 1_555 1_555
C44 C45 1_555 1_555
C47 C48 1_555 1_555
C49 C50 1_555 1_555

#END
