
#######################################################################
#
#                 Cambridge Crystallographic Data Centre
#                                CCDC 
#
#######################################################################
#
# If this CIF has been generated from an entry in the Cambridge 
# Structural Database, then it will include bibliographic, chemical, 
# crystal, experimental, refinement or atomic coordinate data resulting 
# from the CCDC's data processing and validation procedures.
#
#######################################################################

data_OBONUO
_symmetry_cell_setting           tetragonal
_symmetry_space_group_name_H-M   'I -4 2 d'
_symmetry_Int_Tables_number      122
_space_group_name_Hall           'I -4 2bw'
loop_
_symmetry_equiv_pos_site_id
_symmetry_equiv_pos_as_xyz
1 x,y,z
2 -x,-y,z
3 x,1/2-y,1/4-z
4 -x,1/2+y,1/4-z
5 y,1/2+x,1/4+z
6 -y,1/2-x,1/4+z
7 -y,x,-z
8 y,-x,-z
9 1/2+x,1/2+y,1/2+z
10 1/2-x,1/2-y,1/2+z
11 1/2+x,-y,3/4-z
12 1/2-x,y,3/4-z
13 1/2+y,x,3/4+z
14 1/2-y,-x,3/4+z
15 1/2-y,1/2+x,1/2-z
16 1/2+y,1/2-x,1/2-z
_cell_length_a                   21.479(2)
_cell_length_b                   21.479(2)
_cell_length_c                   29.303(3)
_cell_angle_alpha                90
_cell_angle_beta                 90
_cell_angle_gamma                90
_cell_volume                     13518.9
loop_
_atom_site_label
_atom_site_type_symbol
_atom_site_fract_x
_atom_site_fract_y
_atom_site_fract_z
O1 O 0.0539(10) 0.4798(10) 0.7986(7)
O2 O -0.0311(17) 0.268(2) 0.6096(12)
O3 O 0.102(2) 0.5660(19) 0.7492(14)
O4 O 0.149(4) 0.574(4) 0.708(3)
O5 O 0.025(3) 0.506(5) 0.901(2)
O6 O 0.345(4) 0.900(4) 0.133(3)
O7 O -0.030(4) 0.328(4) 0.600(3)
O8 O 0.452(4) 0.282(3) 0.119(3)
C1 C 0.1860(9) 0.0237(8) 0.8013(7)
H1 H 0.1476 0.0435 0.7991
C2 C 0.1897(17) -0.0421(11) 0.8106(9)
H2 H 0.1534 -0.0657 0.8109
C3 C 0.2410(17) -0.0682(10) 0.8184(9)
H3 H 0.2420 -0.1103 0.8257
C4 C 0.2986(13) -0.0333(9) 0.8163(8)
H4 H 0.3372 -0.0513 0.8218
C5 C 0.2919(8) 0.0268(7) 0.8056(6)
C6 C 0.3483(8) 0.0704(8) 0.8053(6)
C7 C 0.4087(10) 0.0535(13) 0.8147(11)
H5 H 0.4183 0.0118 0.8196
C8 C 0.4553(11) 0.0979(16) 0.8168(9)
H6 H 0.4940 0.0885 0.8294
N1 N 0.1538(5) 0.1599(5) 0.7793(5)
C9 C 0.1165(7) 0.1681(8) 0.8128(9)
H7 H 0.1331 0.1702 0.8421
C10 C 0.0523(10) 0.1740(10) 0.8078(10)
H8 H 0.0282 0.1801 0.8338
C11 C 0.0233(7) 0.1713(13) 0.7666(10)
C12 C 0.0657(10) 0.1643(13) 0.7291(10)
H9 H 0.0508 0.1655 0.6994
C13 C 0.1303(7) 0.1555(10) 0.7371(8)
H10 H 0.1566 0.1466 0.7127
C14 C -0.0478(8) 0.1708(7) 0.7613(8)
H11 H -0.0594 0.1571 0.7310
H12 H -0.0665 0.1431 0.7836
N2 N -0.2603(5) 0.2414(5) 0.7297(5)
C15 C -0.2437(6) 0.2331(7) 0.7726(6)
H13 H -0.2749 0.2298 0.7946
C16 C -0.1834(7) 0.2290(7) 0.7866(7)
H14 H -0.1737 0.2207 0.8169
C17 C -0.1371(13) 0.2375(7) 0.7548(7)
C18 C -0.1547(19) 0.2402(9) 0.7112(7)
H15 H -0.1249 0.2401 0.6881
C19 C -0.2185(16) 0.2430(8) 0.7001(7)
H16 H -0.2299 0.2462 0.6696
C20 C -0.0691(8) 0.2376(8) 0.7693(8)
H17 H -0.0451 0.2665 0.7510
H18 H -0.0650 0.2490 0.8012
C21 C 0.4434(9) 0.1544(15) 0.8004(8)
H19 H 0.4746 0.1838 0.7959
C22 C 0.3839(6) 0.1663(9) 0.7909(6)
H20 H 0.3748 0.2073 0.7832
N3 N 0.2389(5) 0.0558(4) 0.7960(4)
N4 N 0.3373(4) 0.1283(6) 0.7910(4)
Cl1 Cl 0.2500 0.16475(18) 0.8750
Cu1 Cu 0.24658(7) 0.14836(7) 0.78773(5)
N1N N 0.3401(5) 0.6538(5) 0.7207(5)
C9N C 0.3319(8) 0.6165(7) 0.6872(9)
H7N H 0.3298 0.6331 0.6579
C10N C 0.3260(10) 0.5523(10) 0.6922(10)
H8N H 0.3199 0.5282 0.6662
C11N C 0.3287(13) 0.5233(7) 0.7334(10)
C12N C 0.3357(13) 0.5657(10) 0.7709(10)
H9N H 0.3345 0.5508 0.8006
C13N C 0.3445(10) 0.6303(7) 0.7629(8)
H10N H 0.3534 0.6566 0.7873
C14N C 0.3292(7) 0.4522(8) 0.7387(8)
H11N H 0.3429 0.4406 0.7690
H12N H 0.3569 0.4335 0.7164
N2N N 0.2586(5) 0.2397(5) 0.7703(5)
C15N C 0.2669(7) 0.2563(6) 0.7274(6)
H13N H 0.2702 0.2251 0.7054
C16N C 0.2710(7) 0.3166(7) 0.7134(7)
H14N H 0.2793 0.3263 0.6831
C17N C 0.2625(7) 0.3629(13) 0.7452(7)
C18N C 0.2598(9) 0.3453(19) 0.7888(7)
H15N H 0.2599 0.3751 0.8119
C19N C 0.2570(8) 0.2815(16) 0.7999(7)
H16N H 0.2538 0.2701 0.8304
C20N C 0.2624(8) 0.4309(8) 0.7307(8)
H17N H 0.2335 0.4549 0.7490
H18N H 0.2510 0.4350 0.6988
Cu1N Cu 0.35164(7) 0.74658(7) 0.71227(5)
C1N C 0.4763(8) 0.6860(9) 0.6987(7)
H1N H 0.4565 0.6476 0.7009
C2N C 0.5421(11) 0.6897(17) 0.6894(9)
H2N H 0.5657 0.6534 0.6891
C3N C 0.5682(10) 0.7410(17) 0.6816(9)
H3N H 0.6103 0.7420 0.6743
C4N C 0.5333(9) 0.7986(13) 0.6837(8)
H4N H 0.5513 0.8372 0.6782
C5N C 0.4732(7) 0.7919(8) 0.6944(6)
C6N C 0.4296(8) 0.8483(8) 0.6947(6)
C7N C 0.4465(13) 0.9087(10) 0.6853(11)
H5N H 0.4882 0.9183 0.6804
C8N C 0.4021(16) 0.9553(11) 0.6832(9)
H6N H 0.4115 0.9940 0.6706
C21N C 0.3456(15) 0.9434(9) 0.6996(8)
H19N H 0.3162 0.9746 0.7041
C22N C 0.3337(9) 0.8839(6) 0.7091(6)
H20N H 0.2927 0.8748 0.7168
N3N N 0.4442(4) 0.7389(5) 0.7040(4)
N4N N 0.3717(6) 0.8373(4) 0.7090(4)
Cu1O Cu -0.35164(7) 0.25342(7) 0.71227(5)
Cu1K Cu 0.25342(7) 0.14836(7) 0.96227(5)
N2A N 0.2603(5) 0.7586(5) 0.7297(5)
Cl1M Cl 0.33525(18) 0.7500 0.6250
B1 B 0.3059(7) 0.1082(6) 0.6644(5)
F1 F 0.2619(5) 0.1093(5) 0.6975(4)
F2 F 0.3611(6) 0.0952(6) 0.6856(5)
F3 F 0.3113(7) 0.1643(5) 0.6442(4)
F4 F 0.2916(6) 0.0649(5) 0.6330(4)
B2 B 0.5000 0.0000 0.5673(9)
F5 F 0.5410(6) -0.0309(8) 0.5941(7)
F6 F 0.4693(8) -0.0409(6) 0.5408(7)
F5A F 0.4590(6) 0.0309(8) 0.5941(7)
F6A F 0.5307(8) 0.0409(6) 0.5408(7)
loop_
_geom_bond_atom_site_label_1
_geom_bond_atom_site_label_2
_geom_bond_site_symmetry_1
_geom_bond_site_symmetry_2
C1 H1 1_555 1_555
C2 C1 1_555 1_555
H2 C2 1_555 1_555
C3 C2 1_555 1_555
H3 C3 1_555 1_555
C4 C3 1_555 1_555
H4 C4 1_555 1_555
C5 C4 1_555 1_555
C6 C5 1_555 1_555
C7 C6 1_555 1_555
H5 C7 1_555 1_555
C8 C7 1_555 1_555
H6 C8 1_555 1_555
N1 C9 1_555 1_555
C9 H7 1_555 1_555
C10 C9 1_555 1_555
H8 C10 1_555 1_555
C11 C10 1_555 1_555
C12 C11 1_555 1_555
H9 C12 1_555 1_555
C13 N1 1_555 1_555
H10 C13 1_555 1_555
C14 C11 1_555 1_555
H11 C14 1_555 1_555
H12 C14 1_555 1_555
N2 C15 1_555 1_555
C15 H13 1_555 1_555
C16 C15 1_555 1_555
H14 C16 1_555 1_555
C17 C16 1_555 1_555
C18 C17 1_555 1_555
H15 C18 1_555 1_555
C19 N2 1_555 1_555
H16 C19 1_555 1_555
C20 C14 1_555 1_555
H17 C20 1_555 1_555
H18 C20 1_555 1_555
C21 C8 1_555 1_555
H19 C21 1_555 1_555
C22 C21 1_555 1_555
H20 C22 1_555 1_555
N3 C1 1_555 1_555
N4 C6 1_555 1_555
B1 F1 1_555 1_555
B2 F5 1_555 1_555
F2 B1 1_555 1_555
F3 B1 1_555 1_555
F4 B1 1_555 1_555
F6 B2 1_555 1_555
Cl1 Cu1 1_555 1_555
Cu1 N1 1_555 1_555
F5A B2 1_555 1_555
F6A B2 1_555 1_555
N1N C9N 1_555 1_555
C9N H7N 1_555 1_555
C10N C9N 1_555 1_555
H8N C10N 1_555 1_555
C11N C10N 1_555 1_555
C12N C11N 1_555 1_555
H9N C12N 1_555 1_555
C13N N1N 1_555 1_555
H10N C13N 1_555 1_555
C14N C11N 1_555 1_555
H11N C14N 1_555 1_555
H12N C14N 1_555 1_555
N2N Cu1 1_555 1_555
C15N N2N 1_555 1_555
H13N C15N 1_555 1_555
C16N C15N 1_555 1_555
H14N C16N 1_555 1_555
C17N C16N 1_555 1_555
C18N C17N 1_555 1_555
H15N C18N 1_555 1_555
C19N N2N 1_555 1_555
H16N C19N 1_555 1_555
C20N C14N 1_555 1_555
H17N C20N 1_555 1_555
H18N C20N 1_555 1_555
Cu1N N1N 1_555 1_555
C1N H1N 1_555 1_555
C2N C1N 1_555 1_555
H2N C2N 1_555 1_555
C3N C2N 1_555 1_555
H3N C3N 1_555 1_555
C4N C3N 1_555 1_555
H4N C4N 1_555 1_555
C5N C4N 1_555 1_555
C6N C5N 1_555 1_555
C7N C6N 1_555 1_555
H5N C7N 1_555 1_555
C8N C7N 1_555 1_555
H6N C8N 1_555 1_555
C21N C8N 1_555 1_555
H19N C21N 1_555 1_555
C22N C21N 1_555 1_555
H20N C22N 1_555 1_555
N3N Cu1N 1_555 1_555
N4N Cu1N 1_555 1_555
Cu1O N2 1_555 1_555
Cu1K Cl1 1_555 1_555
N2A Cu1N 1_555 1_555
Cl1M Cu1N 1_555 1_555
C5 N3 1_555 1_555
C12 C13 1_555 1_555
C17 C20 1_555 1_555
C18 C19 1_555 1_555
C22 N4 1_555 1_555
N3 Cu1 1_555 1_555
N4 Cu1 1_555 1_555
C12N C13N 1_555 1_555
C17N C20N 1_555 1_555
C18N C19N 1_555 1_555
C1N N3N 1_555 1_555
C5N N3N 1_555 1_555
C6N N4N 1_555 1_555
C22N N4N 1_555 1_555

#END
