
#######################################################################
#
#                 Cambridge Crystallographic Data Centre
#                                CCDC 
#
#######################################################################
#
# If this CIF has been generated from an entry in the Cambridge 
# Structural Database, then it will include bibliographic, chemical, 
# crystal, experimental, refinement or atomic coordinate data resulting 
# from the CCDC's data processing and validation procedures.
#
#######################################################################

data_OBOPAX
_symmetry_cell_setting           monoclinic
_symmetry_space_group_name_H-M   'P 21/c'
_symmetry_Int_Tables_number      14
_space_group_name_Hall           '-P 2ybc'
loop_
_symmetry_equiv_pos_site_id
_symmetry_equiv_pos_as_xyz
1 x,y,z
2 x,1/2-y,1/2+z
3 -x,-y,-z
4 -x,1/2+y,1/2-z
_cell_length_a                   9.8971(9)
_cell_length_b                   15.5692(14)
_cell_length_c                   8.7255(8)
_cell_angle_alpha                90
_cell_angle_beta                 107.017(2)
_cell_angle_gamma                90
_cell_volume                     1285.65
loop_
_atom_site_label
_atom_site_type_symbol
_atom_site_fract_x
_atom_site_fract_y
_atom_site_fract_z
Cu1 Cu 0.05368(3) 0.892212(18) 0.23214(4)
O1 O 0.20984(18) 0.94846(11) 0.1704(2)
N1 N 0.1671(2) 0.78319(13) 0.2883(3)
C1 C 0.1103(3) 0.70796(15) 0.2270(3)
H1 H 0.0192 0.7085 0.1568
O2 O -0.09234(18) 0.83806(11) 0.3163(2)
N2 N 0.0557(2) 0.50247(13) 0.3225(2)
H2 H -0.0028 0.5435 0.3574
H3 H 0.1377 0.4975 0.4138
C2 C 0.1783(3) 0.62969(15) 0.2613(3)
O3 O 0.2544(2) 0.98998(13) 0.4220(2)
C3 C 0.3141(3) 0.63042(18) 0.3645(4)
H4 H 0.3642 0.5793 0.3910
O4 O -0.2795(2) 0.86276(14) 0.1047(2)
C4 C 0.3752(3) 0.7073(2) 0.4281(4)
H5 H 0.4670 0.7086 0.4967
C5 C 0.2986(3) 0.78168(18) 0.3885(4)
H6 H 0.3397 0.8331 0.4331
O5 O -0.0794(2) 0.84605(12) -0.0522(2)
H7 H -0.1612 0.8481 -0.0215
H8 H -0.0810 0.7965 -0.0976
C6 C 0.1028(3) 0.54772(16) 0.1974(3)
H9 H 0.0215 0.5605 0.1067
H10 H 0.1656 0.5107 0.1603
C7 C 0.2821(3) 0.99102(17) 0.2927(3)
C8 C 0.4049(3) 1.0421(2) 0.2726(4)
H11 H 0.3936 1.1014 0.2965
H12 H 0.4082 1.0370 0.1641
H13 H 0.4912 1.0205 0.3444
C9 C -0.2265(3) 0.84387(15) 0.2476(3)
C10 C -0.3210(3) 0.8264(2) 0.3514(4)
H14 H -0.3811 0.8751 0.3488
H15 H -0.2641 0.8163 0.4596
H16 H -0.3779 0.7767 0.3121
N2C N -0.0557(2) 1.00247(13) 0.1775(2)
Cu1C Cu -0.05368(3) 0.392212(18) 0.26786(4)
H2C H 0.0028 1.0435 0.1426
H3C H -0.1377 0.9975 0.0862
loop_
_geom_bond_atom_site_label_1
_geom_bond_atom_site_label_2
_geom_bond_site_symmetry_1
_geom_bond_site_symmetry_2
Cu1 O1 1_555 1_555
O1 C7 1_555 1_555
N1 Cu1 1_555 1_555
C1 N1 1_555 1_555
H1 C1 1_555 1_555
O2 Cu1 1_555 1_555
N2 H2 1_555 1_555
H3 N2 1_555 1_555
C2 C1 1_555 1_555
O3 C7 1_555 1_555
C3 C2 1_555 1_555
H4 C3 1_555 1_555
O4 C9 1_555 1_555
C4 C3 1_555 1_555
H5 C4 1_555 1_555
C5 N1 1_555 1_555
H6 C5 1_555 1_555
O5 Cu1 1_555 1_555
H7 O5 1_555 1_555
H8 O5 1_555 1_555
C6 N2 1_555 1_555
H9 C6 1_555 1_555
H10 C6 1_555 1_555
C7 C8 1_555 1_555
C8 H11 1_555 1_555
H12 C8 1_555 1_555
H13 C8 1_555 1_555
C9 O2 1_555 1_555
C10 C9 1_555 1_555
H14 C10 1_555 1_555
H15 C10 1_555 1_555
H16 C10 1_555 1_555
N2C Cu1 1_555 1_555
Cu1C N2 1_555 1_555
H2C N2C 1_555 1_555
H3C N2C 1_555 1_555
C2 C6 1_555 1_555
C4 C5 1_555 1_555

#END
