
#######################################################################
#
#                 Cambridge Crystallographic Data Centre
#                                CCDC 
#
#######################################################################
#
# If this CIF has been generated from an entry in the Cambridge 
# Structural Database, then it will include bibliographic, chemical, 
# crystal, experimental, refinement or atomic coordinate data resulting 
# from the CCDC's data processing and validation procedures.
#
#######################################################################

data_OBOPAW
_symmetry_cell_setting           monoclinic
_symmetry_space_group_name_H-M   'C 2/c'
_symmetry_Int_Tables_number      15
_space_group_name_Hall           '-C 2yn'
loop_
_symmetry_equiv_pos_site_id
_symmetry_equiv_pos_as_xyz
1 x,y,z
2 1/2+x,1/2+y,z
3 x,-y,1/2+z
4 1/2+x,1/2-y,1/2+z
5 -x,-y,-z
6 1/2-x,1/2-y,-z
7 -x,y,1/2-z
8 1/2-x,1/2+y,1/2-z
_cell_length_a                   11.457(5)
_cell_length_b                   40.814(17)
_cell_length_c                   14.502(6)
_cell_angle_alpha                90
_cell_angle_beta                 111.424(9)
_cell_angle_gamma                90
_cell_volume                     6312.66
loop_
_atom_site_label
_atom_site_type_symbol
_atom_site_fract_x
_atom_site_fract_y
_atom_site_fract_z
Cu1 Cu 1.06154(7) 0.394730(18) 0.61177(6)
Cl1 Cl 1.0000 0.37344(6) 0.7500
N1 N 1.0271(5) 0.44325(13) 0.6163(4)
C1 C 1.1236(7) 0.46067(17) 0.6789(5)
C2 C 1.1140(9) 0.49376(19) 0.6873(6)
H1 H 1.1820 0.5057 0.7291
C3 C 1.0038(10) 0.5096(2) 0.6340(7)
H2 H 0.9959 0.5321 0.6408
C4 C 0.9064(9) 0.4918(2) 0.5711(7)
H3 H 0.8314 0.5019 0.5333
C5 C 0.9213(7) 0.45971(19) 0.5650(6)
H4 H 0.8541 0.4478 0.5223
N2 N 1.2269(5) 0.40890(15) 0.7130(4)
C6 C 1.2317(6) 0.44105(18) 0.7358(5)
C7 C -0.3327(8) 0.4542(2) -0.3132(7)
H5 H -0.3354 0.4764 -0.3282
C8 C -0.4288(8) 0.4335(3) -0.3673(8)
H6 H -0.4963 0.4416 -0.4204
C9 C -0.4241(8) 0.4013(3) -0.3423(8)
H7 H -0.4900 0.3873 -0.3764
C10 C -0.3201(7) 0.3893(2) -0.2655(6)
H8 H -0.3156 0.3671 -0.2505
N3 N 0.8982(5) 0.38675(14) 0.4987(4)
C11 C 0.7925(7) 0.3796(2) 0.5135(6)
H9 H 0.7954 0.3767 0.5779
C12 C 0.6782(7) 0.3764(3) 0.4351(7)
H10 H 0.6054 0.3722 0.4473
C13 C 0.6737(8) 0.3795(2) 0.3379(6)
C14 C 0.7842(7) 0.3865(2) 0.3254(6)
H11 H 0.7856 0.3888 0.2621
C15 C 0.8911(7) 0.3900(2) 0.4055(6)
H12 H 0.9643 0.3949 0.3947
C16 C 0.5576(7) 0.3774(2) 0.2492(6)
H13 H 0.4343 0.3760 0.3122
C17 C 1.2634(15) 0.2635(2) 0.4979(10)
H14 H 1.1741 0.2332 0.5278
N4 N 1.1267(6) 0.35216(14) 0.5792(5)
C18 C 1.0746(11) 0.3239(2) 0.5894(8)
H15 H 1.0087 0.3237 0.6123
C19 C 1.1198(14) 0.2942(2) 0.5651(9)
H16 H 1.0858 0.2744 0.5749
C20 C 1.2140(12) 0.2942(3) 0.5270(9)
C21 C 1.2178(8) 0.3518(2) 0.5413(7)
H17 H 1.2536 0.3714 0.5328
C22 C 1.2587(10) 0.3231(3) 0.5151(9)
H18 H 1.1795 0.1761 0.5121
Cu1F Cu 0.93846(7) 0.394730(18) 0.88823(6)
C16F C 0.4424(7) 0.3774(2) 0.2508(6)
C13F C 0.3263(8) 0.3795(2) 0.1621(6)
C12F C 0.3218(7) 0.3764(3) 0.0649(7)
C11F C 0.2075(7) 0.3796(2) -0.0135(6)
N3F N 0.1018(5) 0.38675(14) 0.0013(4)
Cu1F_2 Cu -0.06154(7) 0.394730(18) -0.11177(6)
Cl1_2 Cl 0.0000 0.37344(6) -0.2500
N1F N -0.0271(5) 0.44325(13) -0.1163(4)
C1F C -0.1236(7) 0.46067(17) -0.1789(5)
C2F C -0.1140(9) 0.49376(19) -0.1873(6)
H1F H -0.1820 0.5057 -0.2291
C3F C -0.0038(10) 0.5096(2) -0.1340(7)
H2F H 0.0041 0.5321 -0.1408
C4F C 0.0936(9) 0.4918(2) -0.0711(7)
H3F H 0.1686 0.5019 -0.0333
C5F C 0.0787(7) 0.45971(19) -0.0650(6)
H4F H 0.1459 0.4478 -0.0223
C6F C -0.2317(6) 0.44105(18) -0.2358(5)
N2F N -0.2269(5) 0.40890(15) -0.2130(4)
N4F N -0.1267(6) 0.35216(14) -0.0792(5)
C15F C 0.1089(7) 0.3900(2) 0.0945(6)
C14F C 0.2158(7) 0.3865(2) 0.1746(6)
H11F H 0.2144 0.3888 0.2379
H12F H 0.0357 0.3949 0.1053
H9F H 0.2046 0.3767 -0.0779
H10F H 0.3946 0.3722 0.0527
H13F H 0.5657 0.3760 0.1878
C17E C 1.2366(15) 0.2365(2) 0.5021(10)
C20E C 1.2860(12) 0.2058(3) 0.4730(9)
C19E C 1.3802(14) 0.2058(2) 0.4349(9)
C22E C 1.2413(10) 0.1769(3) 0.4849(9)
C21E C 1.2822(8) 0.1482(2) 0.4587(7)
N4E N 1.3733(6) 0.14784(14) 0.4208(5)
Cu1E Cu 1.43846(7) 0.105270(18) 0.38823(6)
C18E C 1.4254(11) 0.1761(2) 0.4106(8)
H15E H 1.4913 0.1763 0.3877
H16E H 1.4142 0.2256 0.4251
H17E H 1.2464 0.1286 0.4672
H14E H 1.3259 0.2668 0.4722
H18E H 1.3205 0.3239 0.4879
C10F C 1.3201(7) 0.3893(2) 0.7655(6)
C9F C 1.4241(8) 0.4013(3) 0.8423(8)
C8F C 1.4288(8) 0.4335(3) 0.8673(8)
C7F C 1.3327(8) 0.4542(2) 0.8132(7)
H5F H 1.3354 0.4764 0.8282
H6F H 1.4963 0.4416 0.9204
H7F H 1.4900 0.3873 0.8764
H8F H 1.3156 0.3671 0.7505
O1 O -0.5000 0.1765(18) 0.7500
O2 O -0.434(4) 0.2087(10) 0.737(4)
O3 O -0.284(4) 0.2049(9) 0.743(3)
O4 O -0.073(4) 0.2096(9) 0.786(3)
B1 B -0.127(2) 0.1974(6) 0.3770(19)
F1 F -0.096(3) 0.2282(5) 0.410(3)
F2 F -0.097(4) 0.1925(9) 0.297(2)
F3 F -0.061(2) 0.1768(6) 0.449(2)
F4 F -0.249(2) 0.1929(7) 0.356(3)
B2 B -0.2429(7) 0.0693(2) 0.9165(6)
F5 F -0.1589(5) 0.09382(13) 0.9288(4)
F6 F -0.3541(7) 0.0774(3) 0.8455(8)
F7 F -0.2650(11) 0.0647(2) 1.0007(6)
F8 F -0.2035(10) 0.0422(2) 0.8874(11)
Cl2 Cl -0.0868(5) 0.01692(17) 0.6500(6)
C23 C 0.0000 0.0405(5) 0.7500
H19 H 0.0560 0.0544 0.7311
H20 H -0.0560 0.0544 0.7689
Cl2F Cl 0.0868(5) 0.01692(17) 0.8500(6)
F9? F 0.657(2) 0.0804(7) 0.934(3)
F10? F 0.811(3) 0.0450(6) 0.981(3)
F11? F 0.721(4) 0.0571(8) 0.8251(16)
loop_
_geom_bond_atom_site_label_1
_geom_bond_atom_site_label_2
_geom_bond_site_symmetry_1
_geom_bond_site_symmetry_2
Cu1 Cl1 1_555 1_555
Cl1 Cu1F 1_555 1_555
N1 Cu1 1_555 1_555
C1 N1 1_555 1_555
C2 C1 1_555 1_555
H1 C2 1_555 1_555
C3 C2 1_555 1_555
H2 C3 1_555 1_555
C4 C3 1_555 1_555
H3 C4 1_555 1_555
C5 N1 1_555 1_555
H4 C5 1_555 1_555
N2 Cu1 1_555 1_555
C6 C1 1_555 1_555
C7 H5 1_555 1_555
C8 C7 1_555 1_555
H6 C8 1_555 1_555
C9 C8 1_555 1_555
H7 C9 1_555 1_555
C10 C9 1_555 1_555
H8 C10 1_555 1_555
N3 Cu1 1_555 1_555
C11 N3 1_555 1_555
H9 C11 1_555 1_555
C12 C11 1_555 1_555
H10 C12 1_555 1_555
C13 C12 1_555 1_555
C14 C13 1_555 1_555
H11 C14 1_555 1_555
C15 N3 1_555 1_555
H12 C15 1_555 1_555
C16 C13 1_555 1_555
H13 C16F 1_555 1_555
C17 C20 1_555 1_555
H14 C17E 1_555 1_555
N4 Cu1 1_555 1_555
C18 N4 1_555 1_555
H15 C18 1_555 1_555
C19 C18 1_555 1_555
H16 C19 1_555 1_555
C20 C19 1_555 1_555
C21 N4 1_555 1_555
H17 C21 1_555 1_555
C22 C20 1_555 1_555
H18 C22E 1_555 1_555
B1 F1 1_555 1_555
F2 B1 1_555 1_555
F3 B1 1_555 1_555
F4 B1 1_555 1_555
B2 F5 1_555 1_555
F6 B2 1_555 1_555
F7 B2 1_555 1_555
F8 B2 1_555 1_555
Cl2 C23 1_555 1_555
C23 H19 1_555 1_555
H20 C23 1_555 1_555
C16F C16 1_555 1_555
C13F C16F 1_555 1_555
C12F C13F 1_555 1_555
C11F C12F 1_555 1_555
N3F C11F 1_555 1_555
Cu1F_2 N3F 1_555 1_555
Cl1_2 Cu1F_2 1_555 1_555
N1F Cu1F_2 1_555 1_555
C1F N1F 1_555 1_555
C2F C1F 1_555 1_555
H1F C2F 1_555 1_555
C3F C2F 1_555 1_555
H2F C3F 1_555 1_555
C4F C3F 1_555 1_555
H3F C4F 1_555 1_555
C5F N1F 1_555 1_555
H4F C5F 1_555 1_555
C6F C7 1_555 1_555
N2F C10 1_555 1_555
N4F Cu1F_2 1_555 1_555
C15F N3F 1_555 1_555
C14F C13F 1_555 1_555
H11F C14F 1_555 1_555
H12F C15F 1_555 1_555
H9F C11F 1_555 1_555
H10F C12F 1_555 1_555
H13F C16 1_555 1_555
C17E C17 1_555 1_555
C20E C17E 1_555 1_555
C19E C20E 1_555 1_555
C22E C20E 1_555 1_555
C21E C22E 1_555 1_555
N4E C21E 1_555 1_555
Cu1E N4E 1_555 1_555
C18E C19E 1_555 1_555
H15E C18E 1_555 1_555
H16E C19E 1_555 1_555
H17E C21E 1_555 1_555
H14E C17 1_555 1_555
H18E C22 1_555 1_555
C10F N2 1_555 1_555
C9F C10F 1_555 1_555
C8F C9F 1_555 1_555
C7F C6 1_555 1_555
H5F C7F 1_555 1_555
H6F C8F 1_555 1_555
H7F C9F 1_555 1_555
H8F C10F 1_555 1_555
Cl2F C23 1_555 1_555
C4 C5 1_555 1_555
N2 C6 1_555 1_555
C14 C15 1_555 1_555
C21 C22 1_555 1_555
Cu1F_2 N2F 1_555 1_555
C1F C6F 1_555 1_555
C4F C5F 1_555 1_555
C6F N2F 1_555 1_555
C15F C14F 1_555 1_555
N4E C18E 1_555 1_555
C8F C7F 1_555 1_555

#END
