
#######################################################################
#
#                 Cambridge Crystallographic Data Centre
#                                CCDC 
#
#######################################################################
#
# If this CIF has been generated from an entry in the Cambridge 
# Structural Database, then it will include bibliographic, chemical, 
# crystal, experimental, refinement or atomic coordinate data resulting 
# from the CCDC's data processing and validation procedures.
#
#######################################################################

data_OBOPAY01
_symmetry_cell_setting           monoclinic
_symmetry_space_group_name_H-M   'P 21/c'
_symmetry_Int_Tables_number      14
_space_group_name_Hall           '-P 2ybc'
loop_
_symmetry_equiv_pos_site_id
_symmetry_equiv_pos_as_xyz
1 x,y,z
2 -x,1/2+y,1/2-z
3 -x,-y,-z
4 x,1/2-y,1/2+z
_cell_length_a                   9.778(2)
_cell_length_b                   13.687(3)
_cell_length_c                   17.395(5)
_cell_angle_alpha                90
_cell_angle_beta                 120.93(2)
_cell_angle_gamma                90
_cell_volume                     1996.95
loop_
_atom_site_label
_atom_site_type_symbol
_atom_site_fract_x
_atom_site_fract_y
_atom_site_fract_z
I1 I 0.08221(4) -0.06843(2) -0.601238(19)
I2 I -0.13869(4) -0.37669(3) -0.63946(2)
Cd1 Cd 0.11879(3) -0.25863(2) -0.547129(17)
N1 N 0.1847(4) -0.2543(2) -0.4031(2)
N2 N 0.1866(4) -0.2019(2) -0.28376(18)
N3 N 0.3212(4) -0.1780(2) -0.05898(18)
N4 N 0.4508(4) -0.0953(2) -0.1118(2)
H1 H 0.4684 -0.0651 -0.1492
C1 C 0.1695(5) -0.1770(3) -0.3628(2)
H2 H 0.1497 -0.1140 -0.3860
C2 C 0.2139(6) -0.3316(3) -0.3470(3)
H3 H 0.2306 -0.3957 -0.3579
C3 C 0.2146(6) -0.3001(3) -0.2732(3)
H4 H 0.2310 -0.3378 -0.2247
C4 C 0.1700(5) -0.1358(3) -0.2226(2)
H5 H 0.0776 -0.1550 -0.2194
H6 H 0.1521 -0.0699 -0.2463
C5 C 0.3139(5) -0.1366(3) -0.1306(2)
C6 C 0.5599(5) -0.1093(3) -0.0218(2)
C7 C 0.7178(5) -0.0829(3) 0.0325(3)
H7 H 0.7710 -0.0472 0.0103
C8 C 0.7934(5) -0.1116(4) 0.1209(3)
H8 H 0.8994 -0.0946 0.1597
C9 C 0.7121(5) -0.1661(4) 0.1528(3)
H9 H 0.7670 -0.1860 0.2124
C10 C 0.5553(5) -0.1915(3) 0.1002(2)
H10 H 0.5028 -0.2271 0.1229
C11 C 0.4771(4) -0.1617(2) 0.0105(2)
Cd1C Cd 0.11879(3) -0.24137(2) -0.047129(17)
N3C N 0.3212(4) -0.3220(2) -0.55898(18)
O1 O 0.5634(5) -0.5037(3) -0.2467(2)
N5 N 0.5720(5) -0.4352(3) -0.1281(2)
C12 C 0.4875(7) -0.5159(5) -0.1163(4)
H11 H 0.4273 -0.5506 -0.1719
H12 H 0.4165 -0.4909 -0.0982
H13 H 0.5630 -0.5594 -0.0711
C13 C 0.6196(9) -0.3557(4) -0.0655(4)
H14 H 0.6596 -0.3031 -0.0850
H15 H 0.7017 -0.3775 -0.0074
H16 H 0.5295 -0.3335 -0.0624
C14 C 0.6020(6) -0.4382(4) -0.1928(3)
H17 H 0.6575 -0.3859 -0.1979
loop_
_geom_bond_atom_site_label_1
_geom_bond_atom_site_label_2
_geom_bond_site_symmetry_1
_geom_bond_site_symmetry_2
I1 Cd1 1_555 1_555
I2 Cd1 1_555 1_555
Cd1 N1 1_555 1_555
N1 C1 1_555 1_555
N2 C1 1_555 1_555
N3 C5 1_555 1_555
N4 H1 1_555 1_555
C1 H2 1_555 1_555
C2 N1 1_555 1_555
H3 C2 1_555 1_555
C3 N2 1_555 1_555
H4 C3 1_555 1_555
C4 N2 1_555 1_555
H5 C4 1_555 1_555
H6 C4 1_555 1_555
C5 N4 1_555 1_555
C6 N4 1_555 1_555
C7 C6 1_555 1_555
H7 C7 1_555 1_555
C8 C7 1_555 1_555
H8 C8 1_555 1_555
C9 C8 1_555 1_555
H9 C9 1_555 1_555
C10 C9 1_555 1_555
H10 C10 1_555 1_555
C11 N3 1_555 1_555
O1 C14 1_555 1_555
N5 C12 1_555 1_555
C12 H11 1_555 1_555
H12 C12 1_555 1_555
H13 C12 1_555 1_555
C13 N5 1_555 1_555
H14 C13 1_555 1_555
H15 C13 1_555 1_555
H16 C13 1_555 1_555
C14 N5 1_555 1_555
H17 C14 1_555 1_555
Cd1C N3 1_555 1_555
N3C Cd1 1_555 1_555
C2 C3 1_555 1_555
C4 C5 1_555 1_555
C6 C11 1_555 1_555
C10 C11 1_555 1_555

#END
