
#######################################################################
#
#                 Cambridge Crystallographic Data Centre
#                                CCDC 
#
#######################################################################
#
# If this CIF has been generated from an entry in the Cambridge 
# Structural Database, then it will include bibliographic, chemical, 
# crystal, experimental, refinement or atomic coordinate data resulting 
# from the CCDC's data processing and validation procedures.
#
#######################################################################

data_OBOQON
_symmetry_cell_setting           orthorhombic
_symmetry_space_group_name_H-M   'P b c a'
_symmetry_Int_Tables_number      61
_space_group_name_Hall           '-P 2ac 2ab'
loop_
_symmetry_equiv_pos_site_id
_symmetry_equiv_pos_as_xyz
1 x,y,z
2 1/2-x,-y,1/2+z
3 -x,1/2+y,1/2-z
4 1/2+x,1/2-y,-z
5 -x,-y,-z
6 1/2+x,y,1/2-z
7 x,1/2-y,1/2+z
8 1/2-x,1/2+y,z
_cell_length_a                   32.132(8)
_cell_length_b                   8.361(2)
_cell_length_c                   34.836(9)
_cell_angle_alpha                90
_cell_angle_beta                 90
_cell_angle_gamma                90
_cell_volume                     9358.89
loop_
_atom_site_label
_atom_site_type_symbol
_atom_site_fract_x
_atom_site_fract_y
_atom_site_fract_z
Cu1 Cu 0.292066(19) 0.21827(8) 0.14667(2)
Cu2 Cu 0.575404(18) 0.29585(8) 0.114668(19)
Cu3 Cu 0.42588(2) 0.44209(8) 0.10509(2)
Cu4 Cu 0.433205(18) 0.12621(9) 0.083800(19)
Cu5 Cu 0.655244(19) -0.20679(9) 0.13454(2)
N1 N 0.39861(11) -0.0545(5) 0.10598(12)
C1 C 0.62665(15) -0.0124(6) 0.13124(14)
N2 N 0.34812(13) 0.2789(5) 0.13178(14)
C2 C 0.36963(14) -0.1127(6) 0.08183(15)
C3 C 0.26205(15) 0.0271(7) 0.15134(16)
C4 C 0.48698(15) 0.6928(6) 0.10595(15)
N3 N 0.60739(13) 0.1016(6) 0.12532(13)
N4 N 0.24077(14) -0.0828(6) 0.15297(15)
N5 N 0.69099(14) -0.2899(5) 0.18068(14)
N6 N 0.40027(12) 0.0642(5) 0.03587(12)
N7 N 0.51846(13) 0.2479(5) 0.10208(12)
N8 N 0.46821(11) 0.5935(5) 0.13071(12)
C5 C 0.39785(15) -0.1030(6) 0.14208(16)
H1 H 0.4184 -0.0640 0.1583
C6 C 0.48546(16) 0.2108(6) 0.09488(14)
C7 C 0.33932(16) -0.2137(7) 0.09461(18)
H2 H 0.3190 -0.2499 0.0777
N9 N 0.71598(12) -0.1934(5) 0.11268(13)
C8 C 0.60120(15) 0.4946(7) 0.11589(19)
C9 C 0.50910(14) 0.7006(6) 0.18255(15)
C10 C 0.47889(15) 0.6003(6) 0.16736(16)
H3 H 0.4651 0.5325 0.1843
C11 C 0.37882(16) 0.3315(6) 0.12120(16)
C12 C 0.37369(15) -0.0561(6) 0.04180(15)
C13 C 0.79813(16) -0.1420(7) 0.09363(19)
H4 H 0.8260 -0.1262 0.0876
N10 N 0.62156(14) 0.6064(7) 0.11873(17)
C14 C 0.74613(16) -0.2244(6) 0.13818(16)
C15 C 0.52808(15) 0.8019(6) 0.15633(16)
H5 H 0.5484 0.8730 0.1647
C16 C 0.81251(16) 0.0388(7) 0.01947(19)
H6 H 0.8310 0.0635 0.0391
C17 C 0.78763(16) -0.1962(7) 0.12873(18)
H7 H 0.8083 -0.2150 0.1469
C18 C 0.76785(15) -0.1092(6) 0.06620(17)
C19 C 0.35257(17) -0.1255(7) 0.01122(18)
H8 H 0.3339 -0.2088 0.0154
C20 C 0.36864(16) -0.2079(6) 0.15779(16)
C21 C 0.51951(16) 0.7017(6) 0.22369(15)
C22 C 0.47349(15) 0.6814(6) 0.06576(15)
C23 C 0.75103(18) -0.0843(7) -0.00283(19)
H9 H 0.7272 -0.1446 0.0018
C24 C 0.72712(14) -0.1379(6) 0.07856(17)
H10 H 0.7059 -0.1159 0.0612
C25 C 0.73229(17) -0.2867(7) 0.17556(17)
C26 C 0.33865(17) -0.2626(6) 0.1325(2)
H11 H 0.3181 -0.3323 0.1410
C27 C 0.82026(18) 0.0917(7) -0.0173(2)
H12 H 0.8439 0.1523 -0.0221
N11 N 0.44479(13) 0.5695(5) 0.05824(13)
C28 C 0.77700(15) -0.0519(6) 0.02745(17)
C29 C 0.5685(2) 0.7490(7) 0.2747(2)
H13 H 0.5950 0.7791 0.2827
C30 C 0.51730(16) 0.7987(6) 0.11825(16)
H14 H 0.5302 0.8671 0.1009
C31 C 0.55874(16) 0.7462(6) 0.23649(18)
H15 H 0.5789 0.7749 0.2186
C32 C 0.43204(17) 0.5525(8) 0.02189(19)
H16 H 0.4118 0.4760 0.0168
C33 C 0.48883(19) 0.7769(8) 0.03678(18)
H17 H 0.5080 0.8566 0.0425
C34 C 0.40649(17) 0.1156(7) 0.00006(18)
H18 H 0.4255 0.1979 -0.0038
C35 C 0.36960(16) -0.2550(7) 0.19858(18)
C36 C 0.38641(19) 0.0541(8) -0.03157(17)
H19 H 0.3909 0.0944 -0.0561
C37 C 0.4762(2) 0.7557(8) -0.00028(19)
H20 H 0.4873 0.8184 -0.0198
C38 C 0.7015(2) -0.4057(9) 0.2428(2)
H21 H 0.6900 -0.4434 0.2656
C39 C 0.35350(19) -0.3999(8) 0.2106(2)
H22 H 0.3417 -0.4694 0.1928
C40 C 0.5390(2) 0.7073(7) 0.30098(19)
H23 H 0.5456 0.7082 0.3270
C41 C 0.7936(2) 0.0564(8) -0.0466(2)
H24 H 0.7993 0.0922 -0.0714
C42 C 0.75837(19) -0.0323(8) -0.03953(19)
H25 H 0.7399 -0.0566 -0.0592
C43 C 0.49049(19) 0.6607(7) 0.25143(18)
H26 H 0.4639 0.6300 0.2439
C44 C 0.3550(3) -0.4413(12) 0.2488(3)
H27 H 0.3438 -0.5383 0.2567
C45 C 0.44699(19) 0.6412(9) -0.00840(18)
H28 H 0.4377 0.6241 -0.0333
C46 C 0.3725(3) -0.3431(14) 0.2749(3)
H29 H 0.3739 -0.3736 0.3006
C47 C 0.67688(19) -0.3510(7) 0.2134(2)
H30 H 0.6482 -0.3572 0.2166
C48 C 0.38697(19) -0.1556(8) 0.22580(19)
H31 H 0.3980 -0.0576 0.2184
C49 C 0.7433(2) -0.4026(10) 0.2372(2)
H32 H 0.7613 -0.4401 0.2562
C50 C 0.5001(2) 0.6645(8) 0.2898(2)
H33 H 0.4801 0.6378 0.3081
C51 C 0.75863(19) -0.3441(9) 0.2037(2)
H34 H 0.7872 -0.3426 0.1996
C52 C 0.3595(2) -0.0700(8) -0.02488(19)
H35 H 0.3457 -0.1171 -0.0455
C53 C 0.3880(2) -0.2005(11) 0.2638(2)
H36 H 0.3996 -0.1320 0.2819
Cu1G Cu 0.207934(19) -0.28173(8) 0.14667(2)
Cu5_2 Cu 0.655244(19) 0.79321(9) 0.13454(2)
N4G N 0.25923(14) 0.4172(6) 0.15297(15)
N10_2 N 0.62156(14) -0.3936(7) 0.11873(17)
loop_
_geom_bond_atom_site_label_1
_geom_bond_atom_site_label_2
_geom_bond_site_symmetry_1
_geom_bond_site_symmetry_2
Cu1 N2 1_555 1_555
Cu2 N3 1_555 1_555
Cu3 Cu4 1_555 1_555
Cu4 N1 1_555 1_555
Cu5 C1 1_555 1_555
N1 C2 1_555 1_555
C1 N3 1_555 1_555
N2 C11 1_555 1_555
C2 C7 1_555 1_555
C3 Cu1 1_555 1_555
C4 N8 1_555 1_555
N4 C3 1_555 1_555
N5 Cu5 1_555 1_555
N6 Cu4 1_555 1_555
N7 Cu2 1_555 1_555
N8 Cu3 1_555 1_555
C5 N1 1_555 1_555
H1 C5 1_555 1_555
C6 Cu4 1_555 1_555
C7 H2 1_555 1_555
N9 Cu5 1_555 1_555
C8 Cu2 1_555 1_555
C9 C10 1_555 1_555
C10 N8 1_555 1_555
H3 C10 1_555 1_555
C11 Cu3 1_555 1_555
C12 C2 1_555 1_555
C13 H4 1_555 1_555
N10 C8 1_555 1_555
C14 N9 1_555 1_555
C15 C9 1_555 1_555
H5 C15 1_555 1_555
C16 H6 1_555 1_555
C17 C13 1_555 1_555
H7 C17 1_555 1_555
C18 C13 1_555 1_555
C19 C12 1_555 1_555
H8 C19 1_555 1_555
C20 C5 1_555 1_555
C21 C9 1_555 1_555
C22 C4 1_555 1_555
C23 H9 1_555 1_555
C24 N9 1_555 1_555
H10 C24 1_555 1_555
C25 N5 1_555 1_555
C26 C7 1_555 1_555
H11 C26 1_555 1_555
C27 C16 1_555 1_555
H12 C27 1_555 1_555
N11 Cu3 1_555 1_555
C28 C16 1_555 1_555
C29 H13 1_555 1_555
C30 C4 1_555 1_555
H14 C30 1_555 1_555
C31 C21 1_555 1_555
H15 C31 1_555 1_555
C32 N11 1_555 1_555
H16 C32 1_555 1_555
C33 C22 1_555 1_555
H17 C33 1_555 1_555
C34 N6 1_555 1_555
H18 C34 1_555 1_555
C35 C20 1_555 1_555
C36 C34 1_555 1_555
H19 C36 1_555 1_555
C37 C33 1_555 1_555
H20 C37 1_555 1_555
C38 H21 1_555 1_555
C39 C35 1_555 1_555
H22 C39 1_555 1_555
C40 C29 1_555 1_555
H23 C40 1_555 1_555
C41 C27 1_555 1_555
H24 C41 1_555 1_555
C42 C23 1_555 1_555
H25 C42 1_555 1_555
C43 C21 1_555 1_555
H26 C43 1_555 1_555
C44 C39 1_555 1_555
H27 C44 1_555 1_555
C45 C32 1_555 1_555
H28 C45 1_555 1_555
C46 C44 1_555 1_555
H29 C46 1_555 1_555
C47 N5 1_555 1_555
H30 C47 1_555 1_555
C48 C35 1_555 1_555
H31 C48 1_555 1_555
C49 C38 1_555 1_555
H32 C49 1_555 1_555
C50 C40 1_555 1_555
H33 C50 1_555 1_555
C51 C25 1_555 1_555
H34 C51 1_555 1_555
C52 C19 1_555 1_555
H35 C52 1_555 1_555
C53 C46 1_555 1_555
H36 C53 1_555 1_555
Cu1G N4 1_555 1_555
Cu5_2 N10 1_555 1_555
N4G Cu1 1_555 1_555
N10_2 Cu5 1_555 1_555
N6 C12 1_555 1_555
N7 C6 1_555 1_555
C14 C17 1_555 1_555
C14 C25 1_555 1_555
C15 C30 1_555 1_555
C18 C24 1_555 1_555
C18 C28 1_555 1_555
C20 C26 1_555 1_555
C22 N11 1_555 1_555
C23 C28 1_555 1_555
C29 C31 1_555 1_555
C36 C52 1_555 1_555
C37 C45 1_555 1_555
C38 C47 1_555 1_555
C41 C42 1_555 1_555
C43 C50 1_555 1_555
C48 C53 1_555 1_555
C49 C51 1_555 1_555

#END
