
#######################################################################
#
#                 Cambridge Crystallographic Data Centre
#                                CCDC 
#
#######################################################################
#
# If this CIF has been generated from an entry in the Cambridge 
# Structural Database, then it will include bibliographic, chemical, 
# crystal, experimental, refinement or atomic coordinate data resulting 
# from the CCDC's data processing and validation procedures.
#
#######################################################################

data_OBOQAX
_symmetry_cell_setting           triclinic
_symmetry_space_group_name_H-M   'P -1'
_symmetry_Int_Tables_number      2
_space_group_name_Hall           '-P 1'
loop_
_symmetry_equiv_pos_site_id
_symmetry_equiv_pos_as_xyz
1 x,y,z
2 -x,-y,-z
_cell_length_a                   9.8152(3)
_cell_length_b                   10.7725(3)
_cell_length_c                   19.7038(6)
_cell_angle_alpha                83.55
_cell_angle_beta                 83.7750(10)
_cell_angle_gamma                65.0920(10)
_cell_volume                     1873.3
loop_
_atom_site_label
_atom_site_type_symbol
_atom_site_fract_x
_atom_site_fract_y
_atom_site_fract_z
Gd1 Gd -0.720780(15) 0.090460(14) 0.246040(7)
Cr1 Cr -0.27663(5) -0.45703(5) 0.22669(2)
O1 O -0.6846(3) 0.2782(2) 0.18243(12)
H1 H -0.7402 0.3213 0.1498
H2 H -0.6414 0.3308 0.1858
O2 O -0.7460(3) -0.0111(3) 0.35578(11)
H3 H -0.7571 -0.0857 0.3627
H4 H -0.7213 0.0041 0.3930
O3 O -0.7221(3) 0.0729(2) 0.12491(11)
H5 H -0.7705 0.1438 0.0993
H6 H -0.7544 0.0148 0.1164
O4 O -0.8655(2) -0.0373(2) 0.23556(11)
H7 H -0.9179 -0.0138 0.2009
H8 H -0.8341 -0.1240 0.2369
N1 N -0.5336(3) -0.1482(3) 0.23103(14)
N2 N -0.3353(4) -0.4980(4) 0.38966(16)
N3 N -0.0370(4) -0.3359(4) 0.24493(18)
N4 N 0.0177(3) -0.7420(3) 0.22867(14)
N5 N -0.1999(4) -0.4207(3) 0.06463(15)
N6 N -0.5132(3) -0.5844(3) 0.20925(15)
N7 N -0.4841(3) 0.0919(3) 0.28584(13)
N8 N -0.7607(3) 0.2599(3) 0.33600(13)
C1 C -0.4468(3) -0.2603(3) 0.22819(16)
C2 C -0.3119(4) -0.4850(3) 0.33161(17)
C3 C -0.1247(3) -0.3766(3) 0.23916(17)
C4 C -0.0933(3) -0.6460(3) 0.22687(15)
C5 C -0.2328(3) -0.4320(3) 0.12181(16)
C6 C -0.4275(3) -0.5410(3) 0.21437(16)
C7 C -0.3467(4) 0.0068(4) 0.26099(18)
H21 H -0.3407 -0.0536 0.2294
C8 C -0.2147(4) 0.0048(4) 0.2798(2)
H22 H -0.1223 -0.0557 0.2612
C9 C -0.2211(4) 0.0926(4) 0.3261(2)
H23 H -0.1333 0.0929 0.3395
C10 C -0.3603(4) 0.1810(4) 0.3527(2)
H24 H -0.3671 0.2414 0.3844
C11 C -0.4912(4) 0.1789(3) 0.33161(16)
C12 C -0.6420(4) 0.2718(3) 0.35828(16)
C13 C -0.6618(5) 0.3667(4) 0.4052(2)
H25 H -0.5788 0.3744 0.4197
C14 C -0.8041(5) 0.4485(4) 0.4299(2)
H26 H -0.8184 0.5122 0.4611
C15 C -0.9259(5) 0.4355(4) 0.40822(18)
H27 H -1.0235 0.4899 0.4243
C16 C -0.8989(4) 0.3396(4) 0.36190(17)
H28 H -0.9808 0.3296 0.3478
N4_2 N -0.9823(3) 0.2580(3) 0.22867(14)
Gd1_2 Gd 0.279220(15) -0.909540(14) 0.246040(7)
O5 O -0.8651(3) 0.3429(2) 0.07120(12)
H9 H -0.8351 0.3573 0.0302
H10 H -0.9535 0.4063 0.0695
O6 O -0.7732(3) -0.3143(2) 0.25937(13)
H11 H -0.7017 -0.3833 0.2423
H12 H -0.8428 -0.3390 0.2541
O7 O -0.5836(7) -0.3845(6) 0.4841(3)
H13 H -0.5677 -0.4499 0.4595
H14 H -0.5773 -0.3998 0.5271
O8 O -0.7875(8) -0.2315(6) 0.3895(3)
H15 H -0.7265 -0.2764 0.4200
H16 H -0.7405 -0.2885 0.3595
N9 N 0.2382(3) -0.1496(3) 0.08792(14)
N10 N -0.0452(3) 0.0378(3) 0.11973(15)
C17 C 0.3781(4) -0.2464(4) 0.08016(17)
H29 H 0.4579 -0.2235 0.0846
C18 C 0.4104(4) -0.3787(4) 0.06589(17)
H30 H 0.5095 -0.4432 0.0605
C19 C 0.2924(4) -0.4127(4) 0.0599(2)
H31 H 0.3107 -0.5012 0.0503
C20 C 0.1467(4) -0.3150(4) 0.06812(19)
H32 H 0.0656 -0.3367 0.0647
C21 C 0.1233(4) -0.1831(4) 0.08162(16)
C22 C -0.0310(4) -0.0709(4) 0.08811(16)
C23 C -0.1529(4) -0.0788(4) 0.0619(2)
H33 H -0.1407 -0.1565 0.0411
C24 C -0.2922(4) 0.0303(5) 0.0673(2)
H34 H -0.3754 0.0265 0.0507
C25 C -0.3066(4) 0.1448(4) 0.09747(19)
H35 H -0.3984 0.2209 0.1004
C26 C -0.1809(4) 0.1430(4) 0.12306(19)
H36 H -0.1909 0.2198 0.1440
N11 N -0.6926(4) 0.0423(3) 0.48325(15)
C27 C -0.8325(5) 0.1163(4) 0.5085(2)
H37 H -0.9123 0.1135 0.4882
C28 C -0.8651(6) 0.1960(4) 0.5627(2)
H38 H -0.9639 0.2435 0.5797
C29 C -0.7465(6) 0.2033(4) 0.5911(2)
H39 H -0.7648 0.2590 0.6268
C30 C -0.6019(5) 0.1284(4) 0.56667(18)
H40 H -0.5214 0.1330 0.5854
C31 C -0.5769(5) 0.0448(4) 0.51318(17)
C31A C -0.4231(5) -0.0448(4) 0.48682(17)
N11A N -0.3074(4) -0.0423(3) 0.51675(15)
C27A C -0.1675(5) -0.1163(4) 0.4915(2)
H37A H -0.0877 -0.1135 0.5118
C28A C -0.1349(6) -0.1960(4) 0.4373(2)
H38A H -0.0361 -0.2435 0.4203
C29A C -0.2535(6) -0.2033(4) 0.4089(2)
H39A H -0.2352 -0.2590 0.3732
C30A C -0.3981(5) -0.1284(4) 0.43333(18)
H40A H -0.4786 -0.1330 0.4146
O9? O 0.1866(13) -0.2482(11) 0.5178(5)
H17? H 0.2334 -0.3158 0.5455
H18? H 0.2670 -0.2555 0.4941
O10? O 0.3195(8) -0.2904(6) 0.3808(3)
H19? H 0.2838 -0.2823 0.4221
H20? H 0.2722 -0.3039 0.3507
loop_
_geom_bond_atom_site_label_1
_geom_bond_atom_site_label_2
_geom_bond_site_symmetry_1
_geom_bond_site_symmetry_2
Gd1 O1 1_555 1_555
Cr1 C1 1_555 1_555
O1 H1 1_555 1_555
H2 O1 1_555 1_555
O2 Gd1 1_555 1_555
H3 O2 1_555 1_555
H4 O2 1_555 1_555
O3 Gd1 1_555 1_555
H5 O3 1_555 1_555
H6 O3 1_555 1_555
O4 Gd1 1_555 1_555
H7 O4 1_555 1_555
H8 O4 1_555 1_555
O5 H9 1_555 1_555
H10 O5 1_555 1_555
O6 H11 1_555 1_555
H12 O6 1_555 1_555
O7 H13 1_555 1_555
H14 O7 1_555 1_555
O8 H15 1_555 1_555
H16 O8 1_555 1_555
N1 Gd1 1_555 1_555
N2 C2 1_555 1_555
N3 C3 1_555 1_555
N4 C4 1_555 1_555
N5 C5 1_555 1_555
N6 C6 1_555 1_555
N7 Gd1 1_555 1_555
N8 Gd1 1_555 1_555
N9 C17 1_555 1_555
N10 C22 1_555 1_555
N11 C27 1_555 1_555
C1 N1 1_555 1_555
C2 Cr1 1_555 1_555
C3 Cr1 1_555 1_555
C4 Cr1 1_555 1_555
C5 Cr1 1_555 1_555
C6 Cr1 1_555 1_555
C7 N7 1_555 1_555
H21 C7 1_555 1_555
C8 C7 1_555 1_555
H22 C8 1_555 1_555
C9 C8 1_555 1_555
H23 C9 1_555 1_555
C10 C9 1_555 1_555
H24 C10 1_555 1_555
C11 N7 1_555 1_555
C12 N8 1_555 1_555
C13 C12 1_555 1_555
H25 C13 1_555 1_555
C14 C13 1_555 1_555
H26 C14 1_555 1_555
C15 C14 1_555 1_555
H27 C15 1_555 1_555
C16 N8 1_555 1_555
H28 C16 1_555 1_555
C17 H29 1_555 1_555
C18 C17 1_555 1_555
H30 C18 1_555 1_555
C19 C18 1_555 1_555
H31 C19 1_555 1_555
C20 C19 1_555 1_555
H32 C20 1_555 1_555
C21 N9 1_555 1_555
C22 C21 1_555 1_555
C23 C22 1_555 1_555
H33 C23 1_555 1_555
C24 C23 1_555 1_555
H34 C24 1_555 1_555
C25 C24 1_555 1_555
H35 C25 1_555 1_555
C26 N10 1_555 1_555
H36 C26 1_555 1_555
C27 H37 1_555 1_555
C28 C27 1_555 1_555
H38 C28 1_555 1_555
C29 C28 1_555 1_555
H39 C29 1_555 1_555
C30 C29 1_555 1_555
H40 C30 1_555 1_555
C31 N11 1_555 1_555
C31A C31 1_555 1_555
N11A C31A 1_555 1_555
C27A N11A 1_555 1_555
H37A C27A 1_555 1_555
C28A C27A 1_555 1_555
H38A C28A 1_555 1_555
C29A C28A 1_555 1_555
H39A C29A 1_555 1_555
C30A C31A 1_555 1_555
H40A C30A 1_555 1_555
N4_2 Gd1 1_555 1_555
Gd1_2 N4 1_555 1_555
C10 C11 1_555 1_555
C11 C12 1_555 1_555
C15 C16 1_555 1_555
C20 C21 1_555 1_555
C25 C26 1_555 1_555
C30 C31 1_555 1_555
C29A C30A 1_555 1_555

#END
