
#######################################################################
#
#                 Cambridge Crystallographic Data Centre
#                                CCDC 
#
#######################################################################
#
# If this CIF has been generated from an entry in the Cambridge 
# Structural Database, then it will include bibliographic, chemical, 
# crystal, experimental, refinement or atomic coordinate data resulting 
# from the CCDC's data processing and validation procedures.
#
#######################################################################

data_OBOREE
_symmetry_cell_setting           monoclinic
_symmetry_space_group_name_H-M   'P 21/n'
_symmetry_Int_Tables_number      14
_space_group_name_Hall           '-P 2yn'
loop_
_symmetry_equiv_pos_site_id
_symmetry_equiv_pos_as_xyz
1 x,y,z
2 1/2-x,1/2+y,1/2-z
3 -x,-y,-z
4 1/2+x,1/2-y,1/2+z
_cell_length_a                   10.8000(12)
_cell_length_b                   14.0816(16)
_cell_length_c                   18.594(2)
_cell_angle_alpha                90
_cell_angle_beta                 95.997(2)
_cell_angle_gamma                90
_cell_volume                     2812.32
loop_
_atom_site_label
_atom_site_type_symbol
_atom_site_fract_x
_atom_site_fract_y
_atom_site_fract_z
C1 C 0.6658(4) 0.8014(4) -0.1567(3)
C2 C 0.7246(5) 0.7596(4) -0.2185(3)
H1 H 0.8133 0.7580 -0.2071
H2 H 0.7041 0.7976 -0.2609
H3 H 0.6941 0.6961 -0.2273
C3 C 0.5891(4) 1.1395(4) -0.0653(2)
C4 C 0.6550(6) 1.1502(5) -0.1300(3)
H4 H 0.6646 1.2165 -0.1402
H5 H 0.6078 1.1202 -0.1704
H6 H 0.7355 1.1210 -0.1218
C5 C 0.6748(5) 0.8859(3) 0.3150(2)
C6 C 0.8781(6) 0.8792(4) 0.3511(3)
H7 H 0.9437 0.8767 0.3876
C7 C 0.9059(5) 0.8780(4) 0.2821(3)
H8 H 0.9879 0.8752 0.2713
C8 C 0.8070(5) 0.8813(3) 0.2277(2)
C9 C 0.8240(4) 0.8842(3) 0.1498(2)
C10 C 0.9383(5) 0.8957(3) 0.1249(3)
H9 H 1.0103 0.8985 0.1570
C11 C 0.9446(5) 0.9032(4) 0.0512(3)
H10 H 1.0212 0.9099 0.0331
C12 C 0.8387(5) 0.9007(3) 0.0058(3)
H11 H 0.8441 0.9079 -0.0435
C13 C 0.7214(4) 0.8809(3) 0.0997(2)
H12 H 0.6438 0.8731 0.1163
C14 C 0.5271(5) 0.9099(4) 0.4283(2)
H13 H 0.5958 0.9520 0.4439
H14 H 0.4511 0.9399 0.4404
H15 H 0.4748 0.7758 0.4556
H16 H 0.6195 0.7861 0.4566
C15 C 0.4022(5) 0.8463(3) 0.5830(2)
C16 C 0.1985(5) 0.8570(4) 0.5474(3)
H17 H 0.1324 0.8566 0.5111
C17 C 0.1719(5) 0.8667(3) 0.6172(3)
H18 H 0.0907 0.8746 0.6286
C18 C 0.2728(5) 0.8643(3) 0.6708(2)
C19 C 0.2573(5) 0.8719(3) 0.7486(2)
C20 C 0.1445(5) 0.8667(3) 0.7764(3)
H19 H 0.0713 0.8598 0.7457
C21 C 0.1409(5) 0.8719(3) 0.8492(3)
H20 H 0.0650 0.8688 0.8685
C22 C 0.2486(5) 0.8814(3) 0.8939(3)
H21 H 0.2441 0.8834 0.9436
C23 C 0.3635(5) 0.8826(3) 0.7981(2)
H22 H 0.4407 0.8862 0.7802
C24 C 0.5447(5) 0.8173(4) 0.4694(3)
Cd1 Cd 0.54604(3) 0.88993(3) -0.053496(16)
N1 N 0.6904(4) 0.8839(3) 0.24501(19)
N2 N 0.7636(4) 0.8836(3) 0.3705(2)
N3 N 0.7268(4) 0.8883(3) 0.0283(2)
N4 N 0.3887(4) 0.8531(3) 0.6531(2)
N5 N 0.3119(4) 0.8480(3) 0.5283(2)
N6 N 0.3595(4) 0.8880(3) 0.86954(19)
O1 O 0.6169(3) 0.7495(2) -0.11385(17)
O2 O 0.6649(3) 0.8906(3) -0.15103(17)
O3 O 0.5654(3) 1.0578(2) -0.04314(15)
O4 O 0.5594(3) 1.2110(3) -0.03123(17)
S1 S 0.51853(13) 0.89534(11) 0.33124(7)
S2 S 0.55806(13) 0.83446(11) 0.56618(7)
Cd1_2 Cd 0.54604(3) 0.88993(3) 0.946504(16)
Cd1B Cd 0.45396(3) 1.11007(3) 0.053496(16)
N6_2 N 0.3595(4) 0.8880(3) -0.13046(19)
O3B O 0.4346(3) 0.9422(2) 0.04314(15)
O4B O 0.4406(3) 0.7890(3) 0.03123(17)
O5 O 0.3481(4) 0.5134(3) 0.2749(2)
H23 H 0.3204 0.5168 0.2305
H24 H 0.2928 0.5397 0.2974
O6 O 0.3059(5) 0.4610(4) 0.1302(2)
H25 H 0.3320 0.5000 0.1002
H26 H 0.3213 0.4025 0.1184
O7 O 0.3543(4) 0.6001(3) 0.0280(2)
H27 H 0.3312 0.5997 -0.0173
H28 H 0.3742 0.6575 0.0380
loop_
_geom_bond_atom_site_label_1
_geom_bond_atom_site_label_2
_geom_bond_site_symmetry_1
_geom_bond_site_symmetry_2
C1 C2 1_555 1_555
C2 H1 1_555 1_555
H2 C2 1_555 1_555
H3 C2 1_555 1_555
C3 C4 1_555 1_555
C4 H4 1_555 1_555
H5 C4 1_555 1_555
H6 C4 1_555 1_555
C5 N1 1_555 1_555
C6 H7 1_555 1_555
C7 C6 1_555 1_555
H8 C7 1_555 1_555
C8 C7 1_555 1_555
C9 C8 1_555 1_555
C10 C9 1_555 1_555
H9 C10 1_555 1_555
C11 C10 1_555 1_555
H10 C11 1_555 1_555
C12 C11 1_555 1_555
H11 C12 1_555 1_555
C13 C9 1_555 1_555
H12 C13 1_555 1_555
C14 H13 1_555 1_555
H14 C14 1_555 1_555
H15 C24 1_555 1_555
H16 C24 1_555 1_555
C15 N4 1_555 1_555
C16 H17 1_555 1_555
C17 C16 1_555 1_555
H18 C17 1_555 1_555
C18 C17 1_555 1_555
C19 C18 1_555 1_555
C20 C19 1_555 1_555
H19 C20 1_555 1_555
C21 C20 1_555 1_555
H20 C21 1_555 1_555
C22 C21 1_555 1_555
H21 C22 1_555 1_555
C23 C19 1_555 1_555
H22 C23 1_555 1_555
C24 C14 1_555 1_555
Cd1 N3 1_555 1_555
N1 C8 1_555 1_555
N2 C5 1_555 1_555
N3 C12 1_555 1_555
N4 C18 1_555 1_555
N5 C15 1_555 1_555
N6 C22 1_555 1_555
O1 C1 1_555 1_555
O2 C1 1_555 1_555
O3 C3 1_555 1_555
O4 C3 1_555 1_555
O5 H23 1_555 1_555
H24 O5 1_555 1_555
O6 H25 1_555 1_555
H26 O6 1_555 1_555
O7 H27 1_555 1_555
H28 O7 1_555 1_555
S1 C5 1_555 1_555
S2 C15 1_555 1_555
Cd1_2 N6 1_555 1_555
Cd1B O3 1_555 1_555
N6_2 Cd1 1_555 1_555
O3B Cd1 1_555 1_555
O4B Cd1 1_555 1_555
C6 N2 1_555 1_555
C13 N3 1_555 1_555
C14 S1 1_555 1_555
C16 N5 1_555 1_555
C23 N6 1_555 1_555
C24 S2 1_555 1_555
Cd1 O1 1_555 1_555
Cd1 O2 1_555 1_555
Cd1 O3 1_555 1_555
O4 Cd1B 1_555 1_555
Cd1B O3B 1_555 1_555

#END
