
#######################################################################
#
#                 Cambridge Crystallographic Data Centre
#                                CCDC 
#
#######################################################################
#
# If this CIF has been generated from an entry in the Cambridge 
# Structural Database, then it will include bibliographic, chemical, 
# crystal, experimental, refinement or atomic coordinate data resulting 
# from the CCDC's data processing and validation procedures.
#
#######################################################################

data_OBORIH
_symmetry_cell_setting           triclinic
_symmetry_space_group_name_H-M   'P -1'
_symmetry_Int_Tables_number      2
_space_group_name_Hall           '-P 1'
loop_
_symmetry_equiv_pos_site_id
_symmetry_equiv_pos_as_xyz
1 x,y,z
2 -x,-y,-z
_cell_length_a                   7.3500(10)
_cell_length_b                   8.508(2)
_cell_length_c                   10.947(2)
_cell_angle_alpha                98.140(10)
_cell_angle_beta                 102.770(10)
_cell_angle_gamma                107.700(10)
_cell_volume                     619.752
loop_
_atom_site_label
_atom_site_type_symbol
_atom_site_fract_x
_atom_site_fract_y
_atom_site_fract_z
Ag1 Ag 0.33427(11) 0.84089(9) 0.81557(8)
Cu1 Cu 0.25172(15) 0.53882(12) 0.99435(9)
O1 O -0.0316(8) 0.7047(7) 0.6597(5)
O2 O 0.4321(8) 0.7734(6) 1.0702(5)
N1 N 0.1060(10) 0.3000(8) 0.9468(6)
O3 O 0.1142(8) 0.5870(7) 0.8463(5)
N2 N 0.3976(10) 0.4897(8) 1.1395(6)
C1 C 0.3525(12) 0.3325(10) 1.1492(7)
C2 C -0.0962(12) 0.2969(11) 0.7401(8)
C3 C 0.1687(13) 0.2112(10) 1.0461(8)
H1 H 0.1980 0.1155 1.0071
H2 H 0.0617 0.1689 1.0845
C4 C -0.0287(12) 0.2174(10) 0.8401(8)
H3 H -0.0851 0.1005 0.8272
C5 C -0.1074(12) 0.5347(11) 0.6433(8)
C6 C -0.0264(12) 0.4707(10) 0.7481(7)
C7 C 0.5490(12) 0.6306(10) 1.2300(7)
H4 H 0.6761 0.6138 1.2431
H5 H 0.5187 0.6431 1.3119
C8 C -0.2402(12) 0.1891(10) 0.6270(8)
H6 H -0.2853 0.0728 0.6205
C9 C -0.3139(12) 0.2528(11) 0.5272(8)
H7 H -0.4098 0.1804 0.4540
C10 C -0.2459(12) 0.4239(10) 0.5356(8)
H8 H -0.2948 0.4661 0.4665
C11 C -0.1131(13) 0.7784(11) 0.5624(8)
H9 H -0.0471 0.8990 0.5857
H10 H -0.2527 0.7523 0.5535
H11 H -0.0947 0.7336 0.4823
O4 O 0.4342(9) 0.2746(7) 1.2367(5)
C12 C 0.5586(13) 0.7882(11) 1.1770(8)
O5 O 0.6914(8) 0.9248(7) 1.2387(6)
O4A O 0.5658(9) 0.7254(7) 0.7633(5)
O5A O 0.3086(8) 1.0752(7) 0.7613(6)
Ag1A Ag 0.66573(11) 0.15911(9) 1.18443(8)
Ag1A_2 Ag 0.66573(11) 1.15911(9) 1.18443(8)
loop_
_geom_bond_atom_site_label_1
_geom_bond_atom_site_label_2
_geom_bond_site_symmetry_1
_geom_bond_site_symmetry_2
Ag1 O1 1_555 1_555
Cu1 O2 1_555 1_555
O1 C5 1_555 1_555
O2 C12 1_555 1_555
N1 Cu1 1_555 1_555
O3 Ag1 1_555 1_555
N2 Cu1 1_555 1_555
C1 N2 1_555 1_555
C2 C4 1_555 1_555
C3 N1 1_555 1_555
H1 C3 1_555 1_555
H2 C3 1_555 1_555
C4 N1 1_555 1_555
H3 C4 1_555 1_555
C5 C6 1_555 1_555
C6 O3 1_555 1_555
C7 N2 1_555 1_555
H4 C7 1_555 1_555
H5 C7 1_555 1_555
C8 C2 1_555 1_555
H6 C8 1_555 1_555
C9 C8 1_555 1_555
H7 C9 1_555 1_555
C10 C5 1_555 1_555
H8 C10 1_555 1_555
C11 O1 1_555 1_555
H9 C11 1_555 1_555
H10 C11 1_555 1_555
H11 C11 1_555 1_555
O4 C1 1_555 1_555
C12 C7 1_555 1_555
O5 C12 1_555 1_555
O4A Ag1 1_555 1_555
O5A Ag1 1_555 1_555
Ag1A O4 1_555 1_555
Ag1A_2 O5 1_555 1_555
Cu1 O3 1_555 1_555
C1 C3 1_555 1_555
C2 C6 1_555 1_555
C9 C10 1_555 1_555

#END
