
#######################################################################
#
#                 Cambridge Crystallographic Data Centre
#                                CCDC 
#
#######################################################################
#
# If this CIF has been generated from an entry in the Cambridge 
# Structural Database, then it will include bibliographic, chemical, 
# crystal, experimental, refinement or atomic coordinate data resulting 
# from the CCDC's data processing and validation procedures.
#
#######################################################################

data_OBOZUA
_symmetry_cell_setting           orthorhombic
_symmetry_space_group_name_H-M   'P n a 21'
_symmetry_Int_Tables_number      33
_space_group_name_Hall           'P 2c -2n'
loop_
_symmetry_equiv_pos_site_id
_symmetry_equiv_pos_as_xyz
1 x,y,z
2 -x,-y,1/2+z
3 1/2+x,1/2-y,z
4 1/2-x,1/2+y,1/2+z
_cell_length_a                   12.953(3)
_cell_length_b                   11.543(2)
_cell_length_c                   13.789(3)
_cell_angle_alpha                90
_cell_angle_beta                 90
_cell_angle_gamma                90
_cell_volume                     2061.68
loop_
_atom_site_label
_atom_site_type_symbol
_atom_site_fract_x
_atom_site_fract_y
_atom_site_fract_z
Hg1 Hg 0.89765(2) 0.02277(3) 0.62325(5)
I1 I 0.85809(4) 0.24914(5) 0.62369(12)
I2 I 0.78625(4) -0.17166(5) 0.62200(18)
N1 N 1.0304(5) -0.0083(5) 0.5088(4)
N2 N 1.9644(9) 0.0125(12) 0.2393(7)
N3 N 1.6136(6) 0.0195(8) 0.3903(6)
N4 N 1.3945(6) -0.0150(9) 0.3612(6)
C1 C 1.1131(8) 0.0693(9) 0.4836(9)
H1 H 1.1138 0.1417 0.5132
C2 C 1.1923(8) 0.0445(10) 0.4183(7)
H2 H 1.2329 0.1029 0.3917
C3 C 1.2071(8) -0.0651(9) 0.3957(7)
C4 C 1.1386(8) -0.1412(11) 0.4174(9)
H3 H 1.1442 -0.2163 0.3934
C5 C 1.0532(9) -0.1104(11) 0.4788(7)
H4 H 1.0102 -0.1703 0.4987
C6 C 1.3003(8) -0.0885(13) 0.3348(7)
H5 H 1.2829 -0.0744 0.2674
H6 H 1.3185 -0.1696 0.3411
C7 C 1.9524(9) 0.1231(10) 0.2771(8)
H7 H 2.0059 0.1767 0.2740
C8 C 1.8635(10) 0.1505(10) 0.3175(10)
H8 H 1.8480 0.2271 0.3322
C9 C 1.7901(8) 0.0587(13) 0.3388(7)
C10 C 1.8088(7) -0.0502(8) 0.3005(6)
H9 H 1.7585 -0.1077 0.3018
C11 C 1.9056(8) -0.0705(12) 0.2601(9)
H10 H 1.9270 -0.1461 0.2484
C12 C 1.6956(10) 0.0953(11) 0.3985(10)
H11 H 1.7154 0.1009 0.4662
H12 H 1.6736 0.1716 0.3774
C13 C 1.5615(7) 0.0441(10) 0.2973(7)
H13 H 1.6097 0.0314 0.2446
H14 H 1.5409 0.1249 0.2959
C14 C 1.4663(7) -0.0322(11) 0.2819(7)
H15 H 1.4333 -0.0122 0.2210
H16 H 1.4868 -0.1129 0.2790
C15 C 1.4435(9) -0.0484(13) 0.4475(8)
H17 H 1.4667 -0.1281 0.4424
H18 H 1.3952 -0.0434 0.5011
C16 C 1.5334(8) 0.0290(15) 0.4659(8)
H19 H 1.5096 0.1086 0.4691
H20 H 1.5635 0.0096 0.5283
N2A N 1.0356(9) -0.0125(12) 0.7393(7)
Hg1A Hg 2.10235(2) -0.02277(3) 0.12325(5)
loop_
_geom_bond_atom_site_label_1
_geom_bond_atom_site_label_2
_geom_bond_site_symmetry_1
_geom_bond_site_symmetry_2
Hg1 I1 1_555 1_555
I2 Hg1 1_555 1_555
N1 Hg1 1_555 1_555
N2 C7 1_555 1_555
N3 C12 1_555 1_555
N4 C6 1_555 1_555
C1 N1 1_555 1_555
H1 C1 1_555 1_555
C2 C1 1_555 1_555
H2 C2 1_555 1_555
C3 C2 1_555 1_555
C4 C3 1_555 1_555
H3 C4 1_555 1_555
C5 N1 1_555 1_555
H4 C5 1_555 1_555
C6 C3 1_555 1_555
H5 C6 1_555 1_555
H6 C6 1_555 1_555
C7 H7 1_555 1_555
C8 C7 1_555 1_555
H8 C8 1_555 1_555
C9 C8 1_555 1_555
C10 C9 1_555 1_555
H9 C10 1_555 1_555
C11 N2 1_555 1_555
H10 C11 1_555 1_555
C12 C9 1_555 1_555
H11 C12 1_555 1_555
H12 C12 1_555 1_555
C13 N3 1_555 1_555
H13 C13 1_555 1_555
H14 C13 1_555 1_555
C14 N4 1_555 1_555
H15 C14 1_555 1_555
H16 C14 1_555 1_555
C15 N4 1_555 1_555
H17 C15 1_555 1_555
H18 C15 1_555 1_555
C16 N3 1_555 1_555
H19 C16 1_555 1_555
H20 C16 1_555 1_555
N2A Hg1 1_555 1_555
Hg1A N2 1_555 1_555
C4 C5 1_555 1_555
C10 C11 1_555 1_555
C13 C14 1_555 1_555
C15 C16 1_555 1_555

#END
