
#######################################################################
#
#                 Cambridge Crystallographic Data Centre
#                                CCDC 
#
#######################################################################
#
# If this CIF has been generated from an entry in the Cambridge 
# Structural Database, then it will include bibliographic, chemical, 
# crystal, experimental, refinement or atomic coordinate data resulting 
# from the CCDC's data processing and validation procedures.
#
#######################################################################

data_OBUFIB
_symmetry_cell_setting           monoclinic
_symmetry_space_group_name_H-M   'C 2/c'
_symmetry_Int_Tables_number      15
_space_group_name_Hall           '-C 2yn'
loop_
_symmetry_equiv_pos_site_id
_symmetry_equiv_pos_as_xyz
1 x,y,z
2 1/2+x,1/2+y,z
3 x,-y,1/2+z
4 1/2+x,1/2-y,1/2+z
5 -x,-y,-z
6 1/2-x,1/2-y,-z
7 -x,y,1/2-z
8 1/2-x,1/2+y,1/2-z
_cell_length_a                   8.5416(11)
_cell_length_b                   25.969(3)
_cell_length_c                   18.225(2)
_cell_angle_alpha                90
_cell_angle_beta                 95.544(14)
_cell_angle_gamma                90
_cell_volume                     4023.7
loop_
_atom_site_label
_atom_site_type_symbol
_atom_site_fract_x
_atom_site_fract_y
_atom_site_fract_z
Zn1 Zn 0.39961(2) 0.223319(7) 0.471134(12)
Zn2 Zn 0.97229(3) -0.162200(8) 0.508360(12)
C1 C 0.2550(3) 0.24318(13) 0.31885(15)
C2 C 0.1895(3) 0.22397(10) 0.24237(16)
H1 H 0.1407 0.1919 0.2407
C3 C 0.1943(2) 0.24666(7) 0.18191(10)
C4 C 0.0922(2) 0.22728(7) 0.11382(10)
C5 C 0.2745(2) 0.29821(8) 0.17038(11)
H2 H 0.1958 0.3252 0.1634
H3 H 0.3449 0.3066 0.2137
C6 C 0.3676(2) 0.29528(7) 0.10263(10)
C7 C 0.7698(3) -0.01980(8) 0.56449(13)
H4 H 0.7333 -0.0061 0.6068
C8 C 0.8428(3) -0.06595(8) 0.56757(12)
H5 H 0.8576 -0.0828 0.6127
C9 C 0.8728(3) -0.06340(7) 0.44671(12)
H6 H 0.9077 -0.0784 0.4049
C10 C 0.8014(3) -0.01643(7) 0.43999(13)
H7 H 0.7885 -0.0003 0.3942
C11 C 0.7490(2) 0.00711(6) 0.49966(11)
C12 C 0.6673(2) 0.05686(7) 0.49394(10)
C13 C 0.5843(2) 0.07666(7) 0.54813(10)
H8 H 0.5811 0.0585 0.5919
C14 C 0.5058(2) 0.12260(7) 0.53931(11)
H9 H 0.4468 0.1339 0.5765
C15 C 0.5928(2) 0.13421(7) 0.42908(12)
H10 H 0.5994 0.1544 0.3873
C16 C 0.6711(3) 0.08756(7) 0.43356(12)
H11 H 0.7269 0.0770 0.3949
N1 N 0.89427(19) -0.08836(6) 0.50910(9)
N2 N 0.51109(18) 0.15124(5) 0.47995(8)
O1 O 0.2541(2) 0.29434(6) 0.32822(8)
O2 O 0.29268(18) 0.20559(5) 0.36589(7)
O3 O 0.07316(17) 0.17902(5) 0.10537(7)
O4 O 0.03469(16) 0.26051(5) 0.07316(7)
O5 O 0.40960(15) 0.25390(5) 0.08071(8)
O6 O 0.39616(16) 0.33822(4) 0.07330(8)
O7 O 0.29229(13) 0.29667(4) 0.47435(6)
O4C O 0.53469(16) 0.23949(5) 0.57316(7)
O5F O 0.59040(15) 0.25390(5) 0.41929(8)
O7E O 0.20771(13) 0.20333(4) 0.52565(6)
O3B O 1.07316(17) -0.17902(5) 0.60537(7)
O6G O 1.10384(16) -0.16178(4) 0.42670(8)
O7A O 0.79229(13) -0.20333(4) 0.47435(6)
Zn2B Zn -0.02771(3) 0.162200(8) 0.008360(12)
Zn1C Zn -0.10039(2) 0.276681(7) -0.028866(12)
Zn1F Zn 0.60039(2) 0.223319(7) 0.028866(12)
Zn2G Zn 0.52771(3) 0.337800(8) -0.008360(12)
Zn1E Zn 0.10039(2) 0.276681(7) 0.528866(12)
Zn2A Zn 0.47229(3) 0.337800(8) 0.508360(12)
O8 O 0.6491(3) 0.11883(9) 0.79153(12)
O9 O 0.8624(5) 0.38525(14) 0.7860(2)
O10 O 0.6075(7) 0.4037(2) 0.7129(3)
O11 O 0.8633(7) 0.07462(18) 0.6954(3)
loop_
_geom_bond_atom_site_label_1
_geom_bond_atom_site_label_2
_geom_bond_site_symmetry_1
_geom_bond_site_symmetry_2
Zn1 N2 1_555 1_555
Zn2 N1 1_555 1_555
C1 C2 1_555 1_555
C2 H1 1_555 1_555
C3 C2 1_555 1_555
C4 C3 1_555 1_555
C5 C3 1_555 1_555
H2 C5 1_555 1_555
H3 C5 1_555 1_555
C6 C5 1_555 1_555
C7 H4 1_555 1_555
C8 C7 1_555 1_555
H5 C8 1_555 1_555
C9 H6 1_555 1_555
C10 C9 1_555 1_555
H7 C10 1_555 1_555
C11 C7 1_555 1_555
C12 C11 1_555 1_555
C13 C12 1_555 1_555
H8 C13 1_555 1_555
C14 C13 1_555 1_555
H9 C14 1_555 1_555
C15 H10 1_555 1_555
C16 C12 1_555 1_555
H11 C16 1_555 1_555
N1 C8 1_555 1_555
N2 C14 1_555 1_555
O1 C1 1_555 1_555
O2 Zn1 1_555 1_555
O3 C4 1_555 1_555
O4 C4 1_555 1_555
O5 C6 1_555 1_555
O6 C6 1_555 1_555
O7 Zn1 1_555 1_555
O4C Zn1 1_555 1_555
O5F Zn1 1_555 1_555
O7E Zn1 1_555 1_555
O3B Zn2 1_555 1_555
O6G Zn2 1_555 1_555
O7A Zn2 1_555 1_555
Zn2B O3 1_555 1_555
Zn1C O4 1_555 1_555
Zn1F O5 1_555 1_555
Zn2G O6 1_555 1_555
Zn1E O7 1_555 1_555
Zn2A O7 1_555 1_555
C1 O2 1_555 1_555
C9 N1 1_555 1_555
C10 C11 1_555 1_555
C15 N2 1_555 1_555
C15 C16 1_555 1_555
O7E Zn1E 1_555 1_555

#END
