
#######################################################################
#
#                 Cambridge Crystallographic Data Centre
#                                CCDC 
#
#######################################################################
#
# If this CIF has been generated from an entry in the Cambridge 
# Structural Database, then it will include bibliographic, chemical, 
# crystal, experimental, refinement or atomic coordinate data resulting 
# from the CCDC's data processing and validation procedures.
#
#######################################################################

data_OBUFUN
_symmetry_cell_setting           monoclinic
_symmetry_space_group_name_H-M   'P 21/c'
_symmetry_Int_Tables_number      14
_space_group_name_Hall           '-P 2ybc'
loop_
_symmetry_equiv_pos_site_id
_symmetry_equiv_pos_as_xyz
1 x,y,z
2 x,1/2-y,1/2+z
3 -x,-y,-z
4 -x,1/2+y,1/2-z
_cell_length_a                   8.836(3)
_cell_length_b                   12.707(5)
_cell_length_c                   13.144(5)
_cell_angle_alpha                90
_cell_angle_beta                 101.383(4)
_cell_angle_gamma                90
_cell_volume                     1446.77
loop_
_atom_site_label
_atom_site_type_symbol
_atom_site_fract_x
_atom_site_fract_y
_atom_site_fract_z
Zn1 Zn 0.30106(2) 0.562816(16) 0.179119(16)
O1 O 0.25944(16) 0.57239(13) 0.02637(11)
H1 H 0.1649(9) 0.5436(12) -0.0098(13)
H2 H 0.3337(9) 0.5595(16) -0.0159(8)
O3 O 0.3391(2) 0.77279(17) 0.16523(16)
O4 O 0.21399(17) 0.67487(11) 0.25722(12)
O5 O 0.01802(17) 1.00968(13) 0.38666(12)
O6 O -0.18671(16) 0.93671(10) 0.28857(12)
O7 O 0.48695(16) 1.03839(12) 0.24754(12)
O8 O 0.44111(19) 0.95130(15) 0.38232(12)
C1 C 0.2483(2) 0.76315(17) 0.22383(16)
C2 C 0.1727(2) 0.85984(15) 0.25703(14)
C3 C 0.0480(2) 0.84962(15) 0.29783(15)
H3 H 0.0155 0.7817 0.3090
C4 C -0.0447(2) 0.93937(15) 0.32736(15)
C5 C 0.2399(2) 0.96297(16) 0.23144(15)
H4 H 0.1723 1.0195 0.2444
H5 H 0.2427 0.9639 0.1580
C6 C 0.4007(2) 0.98398(16) 0.29278(15)
O6C O 0.18671(16) 0.43671(10) 0.21143(12)
O7C O 0.51305(16) 0.53839(12) 0.25246(12)
Zn1C Zn -0.30106(2) 1.062816(16) 0.320881(16)
Zn1C_2 Zn 0.69894(2) 1.062816(16) 0.320881(16)
N1 N 0.6897(2) 0.70385(13) 0.51339(13)
C7 C 0.7019(7) 0.7773(3) 0.6003(4)
H6 H 0.8084 0.7950 0.6253
H7 H 0.6607 0.7452 0.6551
H8 H 0.6446 0.8401 0.5775
C8 C 0.7682(7) 0.6024(3) 0.5355(4)
H9 H 0.7578 0.5625 0.4725
H10 H 0.7224 0.5642 0.5847
H11 H 0.8756 0.6141 0.5637
C10 C 0.7123(7) 0.7342(5) 0.4084(3)
H15 H 0.6962 0.6739 0.3635
H16 H 0.8155 0.7600 0.4128
H17 H 0.6398 0.7883 0.3810
C12 C 0.5225(5) 0.6832(6) 0.4926(7)
H21 H 0.4952 0.6403 0.4316
H22 H 0.4675 0.7487 0.4819
H23 H 0.4957 0.6472 0.5508
O2 O 0.8450(3) 0.1358(2) 0.03574(19)
C9? C 0.8488(5) 0.6792(7) 0.5133(6)
H12? H 0.8547 0.6363 0.4541
H13? H 0.8922 0.6417 0.5757
H14? H 0.9055 0.7432 0.5102
C11? C 0.5872(8) 0.7539(6) 0.4256(5)
H18? H 0.5795 0.7102 0.3652
H19? H 0.6283 0.8213 0.4123
H20? H 0.4866 0.7628 0.4417
C13? C 0.6073(7) 0.6065(4) 0.5326(5)
H24? H 0.5973 0.5610 0.4733
H25? H 0.5066 0.6242 0.5445
H26? H 0.6646 0.5711 0.5925
loop_
_geom_bond_atom_site_label_1
_geom_bond_atom_site_label_2
_geom_bond_site_symmetry_1
_geom_bond_site_symmetry_2
Zn1 O1 1_555 1_555
N1 C7 1_555 1_555
O1 H1 1_555 1_555
H2 O1 1_555 1_555
O3 C1 1_555 1_555
O4 Zn1 1_555 1_555
O5 C4 1_555 1_555
O6 C4 1_555 1_555
O7 C6 1_555 1_555
O8 C6 1_555 1_555
C1 O4 1_555 1_555
C2 C1 1_555 1_555
C3 C2 1_555 1_555
H3 C3 1_555 1_555
C4 C3 1_555 1_555
C5 C2 1_555 1_555
H4 C5 1_555 1_555
H5 C5 1_555 1_555
C6 C5 1_555 1_555
C7 H6 1_555 1_555
H7 C7 1_555 1_555
H8 C7 1_555 1_555
C8 N1 1_555 1_555
H9 C8 1_555 1_555
H10 C8 1_555 1_555
H11 C8 1_555 1_555
C10 N1 1_555 1_555
H15 C10 1_555 1_555
H16 C10 1_555 1_555
H17 C10 1_555 1_555
C12 N1 1_555 1_555
H21 C12 1_555 1_555
H22 C12 1_555 1_555
H23 C12 1_555 1_555
O6C Zn1 1_555 1_555
O7C Zn1 1_555 1_555
Zn1C O6 1_555 1_555
Zn1C_2 O7 1_555 1_555

#END
