
#######################################################################
#
#                 Cambridge Crystallographic Data Centre
#                                CCDC 
#
#######################################################################
#
# If this CIF has been generated from an entry in the Cambridge 
# Structural Database, then it will include bibliographic, chemical, 
# crystal, experimental, refinement or atomic coordinate data resulting 
# from the CCDC's data processing and validation procedures.
#
#######################################################################

data_OBUFOH
_symmetry_cell_setting           monoclinic
_symmetry_space_group_name_H-M   'P 21/c'
_symmetry_Int_Tables_number      14
_space_group_name_Hall           '-P 2ybc'
loop_
_symmetry_equiv_pos_site_id
_symmetry_equiv_pos_as_xyz
1 x,y,z
2 x,1/2-y,1/2+z
3 -x,-y,-z
4 -x,1/2+y,1/2-z
_cell_length_a                   7.6858(14)
_cell_length_b                   29.586(6)
_cell_length_c                   21.514(4)
_cell_angle_alpha                90
_cell_angle_beta                 97.527(2)
_cell_angle_gamma                90
_cell_volume                     4849.96
loop_
_atom_site_label
_atom_site_type_symbol
_atom_site_fract_x
_atom_site_fract_y
_atom_site_fract_z
Zn1 Zn 0.37238(3) -0.049978(10) 0.351151(13)
Zn2 Zn 0.29223(3) 0.030447(10) 0.158507(13)
Zn3 Zn 1.09953(5) 0.249029(11) 0.142361(17)
C1 C 0.8359(4) 0.19877(12) 0.14250(16)
C2 C 0.6767(4) 0.16198(9) 0.15031(14)
C3 C 0.7100(4) 0.13202(9) 0.18992(13)
H1 H 0.8227 0.1304 0.2117
C4 C 0.5765(3) 0.09807(8) 0.20447(12)
C5 C 0.5125(3) 0.16973(9) 0.10791(13)
H2 H 0.4555 0.1408 0.0990
H3 H 0.5426 0.1815 0.0686
C6 C 0.3791(4) 0.20206(10) 0.13178(14)
C7 C 0.5572(3) -0.01993(8) 0.25339(11)
C8 C 0.7151(3) -0.00972(7) 0.22108(11)
H4 H 0.7082 -0.0173 0.1789
C9 C 0.8627(3) 0.00903(8) 0.24735(10)
C10 C 1.0077(3) 0.01529(8) 0.20668(10)
C11 C 0.8967(3) 0.02481(7) 0.31368(10)
H5 H 0.7885 0.0230 0.3323
H6 H 0.9323 0.0563 0.3142
C12 C 1.0383(3) -0.00268(8) 0.35355(11)
C13 C 0.2471(3) -0.11504(9) 0.24104(12)
H7 H 0.2130 -0.0889 0.2186
C14 C 0.2259(4) -0.15595(10) 0.21098(13)
H8 H 0.1757 -0.1577 0.1693
C15 C 0.2798(4) -0.19380(10) 0.24340(15)
H9 H 0.2692 -0.2217 0.2233
C16 C 0.3494(4) -0.19159(10) 0.30498(14)
H10 H 0.3875 -0.2174 0.3275
C17 C 0.3609(3) -0.14915(8) 0.33259(12)
C18 C 0.4380(3) -0.14207(9) 0.39919(12)
C19 C 0.4888(4) -0.17817(10) 0.43884(13)
H11 H 0.4785 -0.2078 0.4244
C20 C 0.5548(4) -0.16889(10) 0.50014(15)
H12 H 0.5892 -0.1923 0.5279
C21 C 0.5691(4) -0.12583(11) 0.51932(14)
H13 H 0.6148 -0.1190 0.5604
C22 C 0.5142(3) -0.09129(9) 0.47674(12)
H14 H 0.5217 -0.0615 0.4908
C23 C 0.9763(4) 0.30759(10) 0.03024(16)
H15 H 0.9485 0.2803 0.0098
C24 C 0.9470(4) 0.34638(11) -0.00356(17)
H16 H 0.8995 0.3461 -0.0456
C25 C 0.9919(4) 0.38644(12) 0.02812(16)
H17 H 0.9748 0.4138 0.0068
C26 C 1.0618(4) 0.38652(10) 0.09087(14)
H18 H 1.0944 0.4132 0.1122
C27 C 1.0803(3) 0.34531(9) 0.11978(13)
C28 C 1.1477(3) 0.34012(9) 0.18882(13)
C29 C 1.1866(4) 0.37555(10) 0.22924(14)
H19 H 1.1714 0.4050 0.2145
C30 C 1.2464(4) 0.36818(12) 0.28969(16)
H20 H 1.2707 0.3922 0.3174
C31 C 1.2701(4) 0.32561(12) 0.30908(17)
H21 H 1.3139 0.3195 0.3506
C32 C 1.2298(4) 0.29104(11) 0.26776(14)
H22 H 1.2463 0.2615 0.2822
C33 C 0.0921(3) 0.10767(8) 0.08188(11)
H23 H 0.0863 0.1205 0.1210
C34 C 0.0258(3) 0.13151(9) 0.02926(13)
H24 H -0.0238 0.1599 0.0325
C35 C 0.0347(3) 0.11223(9) -0.02833(13)
H25 H -0.0075 0.1279 -0.0647
C36 C 0.1056(3) 0.07009(9) -0.03240(12)
H26 H 0.1087 0.0565 -0.0712
C37 C 0.1731(3) 0.04782(8) 0.02254(11)
C38 C 0.2592(3) 0.00251(8) 0.02520(10)
C39 C 0.2659(3) -0.02226(8) -0.03070(11)
H27 H 0.2173 -0.0112 -0.0696
C40 C 0.3496(3) -0.06421(9) -0.02425(13)
H28 H 0.3626 -0.0812 -0.0597
C41 C 0.4132(3) -0.08063(9) 0.03464(12)
H29 H 0.4652 -0.1090 0.0398
C42 C 0.3967(3) -0.05350(8) 0.08486(12)
H30 H 0.4390 -0.0644 0.1245
N1 N 0.3132(2) -0.11130(7) 0.29993(9)
N2 N 0.4522(2) -0.09910(7) 0.41748(8)
N3 N 1.0421(3) 0.30611(7) 0.09063(11)
N4 N 1.1689(3) 0.29744(7) 0.20856(11)
N5 N 0.1647(2) 0.06672(6) 0.07908(8)
N6 N 0.3238(2) -0.01220(6) 0.08118(8)
O1 O 0.8081(3) 0.22177(7) 0.09498(11)
O2 O 0.9610(3) 0.20013(7) 0.18346(10)
O3 O 0.5782(2) 0.09308(6) 0.26173(8)
O4 O 0.4837(2) 0.07702(6) 0.16132(8)
O5 O 0.3890(3) 0.20967(8) 0.18770(11)
O6 O 0.2631(2) 0.21716(6) 0.09173(9)
O7 O 0.58287(19) -0.03547(5) 0.30809(7)
O8 O 0.40700(19) -0.01489(5) 0.22316(7)
O9 O 1.0175(2) -0.01166(6) 0.16258(7)
O10 O 1.11471(19) 0.04755(5) 0.21912(7)
O11 O 1.0460(2) -0.00191(7) 0.41182(7)
O12 O 1.13571(19) -0.02641(5) 0.32369(7)
O13 O 0.4366(2) 0.00523(6) 0.41075(7)
O12_2 O 0.13571(19) -0.02641(5) 0.32369(7)
O9_2 O 0.0175(2) -0.01166(6) 0.16258(7)
O10_2 O 0.11471(19) 0.04755(5) 0.21912(7)
O6_2 O 1.2631(2) 0.21716(6) 0.09173(9)
Zn3_2 Zn 0.09953(5) 0.249029(11) 0.142361(17)
Zn2_2 Zn 1.29223(3) 0.030447(10) 0.158507(13)
Zn1_2 Zn 1.37238(3) -0.049978(10) 0.351151(13)
O14 O 0.2982(4) 0.21243(11) -0.03364(12)
O15 O 0.3203(2) 0.07447(6) 0.32890(9)
O16 O 0.7608(2) 0.01287(7) 0.46928(8)
O17 O 0.9645(5) 0.22801(16) -0.09754(17)
O18 O 0.6455(6) 0.21030(18) -0.0480(2)
O19 O 1.5279(8) 0.19728(19) 0.3109(2)
O20 O 0.1434(8) 0.1657(2) 0.3126(3)
loop_
_geom_bond_atom_site_label_1
_geom_bond_atom_site_label_2
_geom_bond_site_symmetry_1
_geom_bond_site_symmetry_2
Zn1 N1 1_555 1_555
Zn2 N5 1_555 1_555
Zn3 N3 1_555 1_555
C1 C2 1_555 1_555
C2 C3 1_555 1_555
C3 H1 1_555 1_555
C4 C3 1_555 1_555
C5 C2 1_555 1_555
H2 C5 1_555 1_555
H3 C5 1_555 1_555
C6 C5 1_555 1_555
C7 C8 1_555 1_555
C8 H4 1_555 1_555
C9 C8 1_555 1_555
C10 C9 1_555 1_555
C11 C9 1_555 1_555
H5 C11 1_555 1_555
H6 C11 1_555 1_555
C12 C11 1_555 1_555
C13 H7 1_555 1_555
C14 C13 1_555 1_555
H8 C14 1_555 1_555
C15 C14 1_555 1_555
H9 C15 1_555 1_555
C16 C15 1_555 1_555
H10 C16 1_555 1_555
C17 C16 1_555 1_555
C18 C17 1_555 1_555
C19 C18 1_555 1_555
H11 C19 1_555 1_555
C20 C19 1_555 1_555
H12 C20 1_555 1_555
C21 C20 1_555 1_555
H13 C21 1_555 1_555
C22 C21 1_555 1_555
H14 C22 1_555 1_555
C23 H15 1_555 1_555
C24 C23 1_555 1_555
H16 C24 1_555 1_555
C25 C24 1_555 1_555
H17 C25 1_555 1_555
C26 C25 1_555 1_555
H18 C26 1_555 1_555
C27 C26 1_555 1_555
C28 C27 1_555 1_555
C29 C28 1_555 1_555
H19 C29 1_555 1_555
C30 C29 1_555 1_555
H20 C30 1_555 1_555
C31 C30 1_555 1_555
H21 C31 1_555 1_555
C32 C31 1_555 1_555
H22 C32 1_555 1_555
C33 H23 1_555 1_555
C34 C33 1_555 1_555
H24 C34 1_555 1_555
C35 C34 1_555 1_555
H25 C35 1_555 1_555
C36 C35 1_555 1_555
H26 C36 1_555 1_555
C37 C36 1_555 1_555
C38 C37 1_555 1_555
C39 C38 1_555 1_555
H27 C39 1_555 1_555
C40 C39 1_555 1_555
H28 C40 1_555 1_555
C41 C40 1_555 1_555
H29 C41 1_555 1_555
C42 C41 1_555 1_555
H30 C42 1_555 1_555
N1 C13 1_555 1_555
N2 Zn1 1_555 1_555
N3 C23 1_555 1_555
N4 Zn3 1_555 1_555
N5 C33 1_555 1_555
N6 Zn2 1_555 1_555
O1 Zn3 1_555 1_555
O2 Zn3 1_555 1_555
O3 C4 1_555 1_555
O4 Zn2 1_555 1_555
O5 C6 1_555 1_555
O6 C6 1_555 1_555
O7 Zn1 1_555 1_555
O8 Zn2 1_555 1_555
O9 C10 1_555 1_555
O10 C10 1_555 1_555
O11 C12 1_555 1_555
O12 C12 1_555 1_555
O13 Zn1 1_555 1_555
O12_2 Zn1 1_555 1_555
O9_2 Zn2 1_555 1_555
O10_2 Zn2 1_555 1_555
O6_2 Zn3 1_555 1_555
Zn3_2 O6 1_555 1_555
Zn2_2 O9 1_555 1_555
Zn1_2 O12 1_555 1_555
C1 O1 1_555 1_555
C1 O2 1_555 1_555
C4 O4 1_555 1_555
C7 O7 1_555 1_555
C7 O8 1_555 1_555
C17 N1 1_555 1_555
C18 N2 1_555 1_555
C22 N2 1_555 1_555
C27 N3 1_555 1_555
C28 N4 1_555 1_555
C32 N4 1_555 1_555
C37 N5 1_555 1_555
C38 N6 1_555 1_555
C42 N6 1_555 1_555
O10 Zn2_2 1_555 1_555

#END
