
#######################################################################
#
#                 Cambridge Crystallographic Data Centre
#                                CCDC 
#
#######################################################################
#
# If this CIF has been generated from an entry in the Cambridge 
# Structural Database, then it will include bibliographic, chemical, 
# crystal, experimental, refinement or atomic coordinate data resulting 
# from the CCDC's data processing and validation procedures.
#
#######################################################################

data_OBUJEA
_symmetry_cell_setting           monoclinic
_symmetry_space_group_name_H-M   'P 21/c'
_symmetry_Int_Tables_number      14
_space_group_name_Hall           '-P 2ybc'
loop_
_symmetry_equiv_pos_site_id
_symmetry_equiv_pos_as_xyz
1 x,y,z
2 x,1/2-y,1/2+z
3 -x,-y,-z
4 -x,1/2+y,1/2-z
_cell_length_a                   15.528(1)
_cell_length_b                   9.075(1)
_cell_length_c                   8.218(1)
_cell_angle_alpha                90
_cell_angle_beta                 94.16(1)
_cell_angle_gamma                90
_cell_volume                     1155
loop_
_atom_site_label
_atom_site_type_symbol
_atom_site_fract_x
_atom_site_fract_y
_atom_site_fract_z
K1 K -0.45546(4) -0.27119(6) -0.10899(7)
C1 C -0.36421(18) -0.6270(3) -0.1156(3)
C2 C -0.3053(2) -0.6404(3) -0.2538(4)
C3 C -0.27190(18) -0.3760(3) -0.3038(3)
N1 N -0.24554(15) -0.5179(3) -0.2598(3)
C4 C -0.16337(19) -0.5182(3) -0.1785(4)
C5 C -0.13265(19) -0.3628(3) -0.1825(4)
C6 C -0.0559(2) -0.3004(5) -0.1223(5)
C7 C -0.0481(3) -0.1505(5) -0.1388(5)
C8 C -0.1135(3) -0.0641(5) -0.2095(5)
C9 C -0.1906(2) -0.1279(4) -0.2714(5)
C10 C -0.19829(18) -0.2778(3) -0.2563(4)
O1 O -0.35628(14) -0.5163(2) -0.0261(2)
O2 O -0.41682(15) -0.7300(2) -0.1027(3)
O3 O -0.34299(13) -0.3451(2) -0.3647(3)
O4 O -0.12852(16) -0.6250(3) -0.1171(3)
O5 O -0.5692(3) -0.5049(3) -0.2647(4)
H1 H -0.3396(19) -0.648(3) -0.346(4)
H2 H -0.273(2) -0.727(4) -0.240(4)
H3 H -0.018(2) -0.350(4) -0.076(4)
H4 H -0.002(3) -0.116(4) -0.107(5)
H5 H -0.108(2) 0.034(4) -0.220(4)
H6 H -0.234(2) -0.079(4) -0.325(4)
H7 H -0.604(3) -0.499(5) -0.162(6)
H8 H -0.608(3) -0.493(4) -0.313(5)
O2B O -0.58318(15) -0.2700(2) 0.1027(3)
O2C O -0.58318(15) -0.2300(2) -0.3973(3)
O3A O -0.34299(13) -0.1549(2) 0.1353(3)
O5C O -0.4308(3) -0.0049(3) -0.2353(4)
K1B K -0.54454(4) -0.72881(6) 0.10899(7)
K1C K -0.54454(4) -0.77119(6) -0.39101(7)
K1A K -0.45546(4) -0.22881(6) -0.60899(7)
H7C H -0.396(3) 0.001(5) -0.338(6)
H8C H -0.392(3) 0.007(4) -0.187(5)
loop_
_geom_bond_atom_site_label_1
_geom_bond_atom_site_label_2
_geom_bond_site_symmetry_1
_geom_bond_site_symmetry_2
K1 O1 1_555 1_555
C1 C2 1_555 1_555
C2 N1 1_555 1_555
C3 N1 1_555 1_555
N1 C4 1_555 1_555
C4 C5 1_555 1_555
C5 C6 1_555 1_555
C6 C7 1_555 1_555
C7 C8 1_555 1_555
C8 C9 1_555 1_555
C9 C10 1_555 1_555
C10 C3 1_555 1_555
O1 C1 1_555 1_555
O2 C1 1_555 1_555
O3 K1 1_555 1_555
O4 C4 1_555 1_555
O5 K1 1_555 1_555
H1 C2 1_555 1_555
H2 C2 1_555 1_555
H3 C6 1_555 1_555
H4 C7 1_555 1_555
H5 C8 1_555 1_555
H6 C9 1_555 1_555
H7 O5 1_555 1_555
H8 O5 1_555 1_555
O2B K1 1_555 1_555
O2C K1 1_555 1_555
O3A K1 1_555 1_555
O5C K1 1_555 1_555
K1B O2 1_555 1_555
K1C O2 1_555 1_555
K1A O3 1_555 1_555
H7C O5C 1_555 1_555
H8C O5C 1_555 1_555
C3 O3 1_555 1_555
C5 C10 1_555 1_555
O5 K1C 1_555 1_555
O2C K1A 1_555 1_555

#END
