
#######################################################################
#
#                 Cambridge Crystallographic Data Centre
#                                CCDC 
#
#######################################################################
#
# If this CIF has been generated from an entry in the Cambridge 
# Structural Database, then it will include bibliographic, chemical, 
# crystal, experimental, refinement or atomic coordinate data resulting 
# from the CCDC's data processing and validation procedures.
#
#######################################################################

data_OBUNAB
_symmetry_cell_setting           triclinic
_symmetry_space_group_name_H-M   'P -1'
_symmetry_Int_Tables_number      2
_space_group_name_Hall           '-P 1'
loop_
_symmetry_equiv_pos_site_id
_symmetry_equiv_pos_as_xyz
1 x,y,z
2 -x,-y,-z
_cell_length_a                   6.961(2)
_cell_length_b                   10.308(3)
_cell_length_c                   16.944(6)
_cell_angle_alpha                91.567(6)
_cell_angle_beta                 90.365(7)
_cell_angle_gamma                98.385(6)
_cell_volume                     1202.29
loop_
_atom_site_label
_atom_site_type_symbol
_atom_site_fract_x
_atom_site_fract_y
_atom_site_fract_z
Cd1 Cd 0.31087(17) 0.86030(11) 0.14192(7)
Cd2 Cd 0.93409(18) 0.60788(11) 0.65606(7)
N1 N 0.2884(16) 0.6879(10) 0.0520(7)
O1 O 0.2295(15) -0.0104(9) 0.0401(6)
O2 O 0.1928(16) 0.0924(10) 0.1557(6)
C1 C 0.271(2) 0.5692(12) 0.0813(9)
H1 H 0.2759 0.5606 0.1358
C2 C 0.246(2) 0.4555(14) 0.0322(9)
C3 C 0.2394(19) 0.4699(13) -0.0496(9)
H2 H 0.2201 0.3965 -0.0834
C4 C 0.262(2) 0.5939(14) -0.0793(10)
H3 H 0.2591 0.6064 -0.1334
C5 C 0.288(2) 0.6985(14) -0.0268(9)
H4 H 0.3068 0.7823 -0.0470
C6 C 0.234(2) 0.3289(13) 0.0722(9)
H5 H 0.2628 0.3321 0.1260
C7 C 0.1870(19) 0.2105(13) 0.0379(9)
H6 H 0.1433 0.2032 -0.0143
C8 C 0.203(2) 0.0904(16) 0.0820(10)
N2 N 0.8387(17) 0.7940(10) 0.5975(7)
O3 O 0.4738(15) 0.9017(11) 0.2560(6)
O4 O 0.4442(15) 0.6847(11) 0.2412(6)
C9 C 0.769(2) 0.7862(15) 0.5239(9)
H7 H 0.7470 0.7047 0.4978
C10 C 0.729(2) 0.8953(16) 0.4848(8)
C11 C 0.759(2) 1.0165(15) 0.5227(9)
H8 H 0.7298 1.0903 0.4974
C12 C 0.832(2) 1.0268(15) 0.5978(10)
H9 H 0.8576 1.1075 0.6246
C13 C 0.868(2) 0.9134(16) 0.6325(9)
H10 H 0.9159 0.9201 0.6840
C14 C 0.645(2) 0.8868(16) 0.4057(9)
H11 H 0.6320 0.9666 0.3834
C15 C 0.584(2) 0.7812(15) 0.3609(10)
H12 H 0.5956 0.6994 0.3804
C16 C 0.497(2) 0.7872(16) 0.2813(10)
S1 S -0.0355(6) 0.8036(4) 0.2055(3)
N3 N -0.021(2) 0.5622(14) 0.2771(9)
C17 C -0.024(2) 0.6618(16) 0.2479(9)
S2 S 1.2883(6) 0.6623(4) 0.5902(3)
N4 N 1.203(2) 0.5262(13) 0.4469(9)
C18 C 1.233(2) 0.5825(13) 0.5056(10)
O5 O 0.6275(15) 0.9619(10) 0.1049(6)
O6 O 0.6315(14) 0.5674(9) 0.7198(6)
O7 O 1.0461(15) 0.7449(9) 0.7642(6)
O1_2 O 0.2295(15) 0.9896(9) 0.0401(6)
O2_2 O 0.1928(16) 1.0924(10) 0.1557(6)
N3A N 1.021(2) 0.4378(14) 0.7229(9)
N4A N 0.797(2) 0.4738(13) 0.5531(9)
Cd1_2 Cd 0.31087(17) -0.13970(11) 0.14192(7)
Cd2A Cd 0.06591(18) 0.39212(11) 0.34394(7)
Cd2A_2 Cd 1.06591(18) 0.39212(11) 0.34394(7)
O8 O 0.4343(16) 0.8285(10) 0.7495(7)
loop_
_geom_bond_atom_site_label_1
_geom_bond_atom_site_label_2
_geom_bond_site_symmetry_1
_geom_bond_site_symmetry_2
Cd1 N1 1_555 1_555
Cd2 N2 1_555 1_555
N1 C1 1_555 1_555
O1 C8 1_555 1_555
O2 C8 1_555 1_555
C1 H1 1_555 1_555
C2 C1 1_555 1_555
C3 C2 1_555 1_555
H2 C3 1_555 1_555
C4 C3 1_555 1_555
H3 C4 1_555 1_555
C5 N1 1_555 1_555
H4 C5 1_555 1_555
C6 C2 1_555 1_555
H5 C6 1_555 1_555
C7 C6 1_555 1_555
H6 C7 1_555 1_555
C8 C7 1_555 1_555
N2 C9 1_555 1_555
O3 Cd1 1_555 1_555
O4 Cd1 1_555 1_555
C9 H7 1_555 1_555
C10 C9 1_555 1_555
C11 C10 1_555 1_555
H8 C11 1_555 1_555
C12 C11 1_555 1_555
H9 C12 1_555 1_555
C13 N2 1_555 1_555
H10 C13 1_555 1_555
C14 C10 1_555 1_555
H11 C14 1_555 1_555
C15 C14 1_555 1_555
H12 C15 1_555 1_555
C16 O3 1_555 1_555
S1 Cd1 1_555 1_555
N3 C17 1_555 1_555
C17 S1 1_555 1_555
S2 Cd2 1_555 1_555
N4 C18 1_555 1_555
C18 S2 1_555 1_555
O5 Cd1 1_555 1_555
O6 Cd2 1_555 1_555
O7 Cd2 1_555 1_555
O1_2 Cd1 1_555 1_555
O2_2 Cd1 1_555 1_555
N3A Cd2 1_555 1_555
N4A Cd2 1_555 1_555
Cd1_2 O1 1_555 1_555
Cd2A N3 1_555 1_555
Cd2A_2 N4 1_555 1_555
O2 Cd1_2 1_555 1_555
C4 C5 1_555 1_555
O4 C16 1_555 1_555
C12 C13 1_555 1_555
C15 C16 1_555 1_555

#END
