
#######################################################################
#
#                 Cambridge Crystallographic Data Centre
#                                CCDC 
#
#######################################################################
#
# If this CIF has been generated from an entry in the Cambridge 
# Structural Database, then it will include bibliographic, chemical, 
# crystal, experimental, refinement or atomic coordinate data resulting 
# from the CCDC's data processing and validation procedures.
#
#######################################################################

data_OCACUR
_symmetry_cell_setting           monoclinic
_symmetry_space_group_name_H-M   'C c'
_symmetry_Int_Tables_number      9
_space_group_name_Hall           'C -2yc'
loop_
_symmetry_equiv_pos_site_id
_symmetry_equiv_pos_as_xyz
1 x,y,z
2 x,-y,1/2+z
3 1/2+x,1/2+y,z
4 1/2+x,1/2-y,1/2+z
_cell_length_a                   10.789(3)
_cell_length_b                   15.420(4)
_cell_length_c                   11.742(3)
_cell_angle_alpha                90
_cell_angle_beta                 90.555(4)
_cell_angle_gamma                90
_cell_volume                     1953.38
loop_
_atom_site_label
_atom_site_type_symbol
_atom_site_fract_x
_atom_site_fract_y
_atom_site_fract_z
Co1 Co 0.50000(9) 0.61278(6) 0.50000(9)
Co2 Co 0.63640(11) 0.49490(6) 0.31152(10)
O1 O 0.6788(5) 0.5805(4) 0.4349(5)
O2 O 0.8263(8) 0.6258(5) 0.3224(6)
O3 O 0.6003(6) 0.6060(4) 0.6542(5)
O4 O 0.7732(6) 0.5785(4) 0.7469(5)
O5 O 0.9186(6) 0.8785(4) 0.8371(5)
O6 O 1.0570(6) 0.9212(4) 0.7086(5)
O7 O 0.9426(6) 0.9864(3) 0.5144(5)
O8 O 1.0544(6) 0.9014(4) 0.4011(5)
O9 O 0.3380(7) 0.6418(5) 0.5873(6)
O10 O 0.5323(7) 0.7437(4) 0.4912(7)
N1 N 0.2127(8) 0.6114(6) 0.7328(8)
N2 N 0.4572(9) 0.8710(5) 0.5527(7)
C1 C 0.7709(8) 0.6325(5) 0.4096(6)
C2 C 0.7130(8) 0.6213(5) 0.6702(6)
C3 C 0.9620(9) 0.8802(5) 0.7392(7)
C4 C 0.9778(7) 0.9122(5) 0.4799(6)
C5 C 0.8079(8) 0.6989(5) 0.4960(7)
C6 C 0.7842(7) 0.6920(5) 0.6127(6)
C7 C 0.8319(8) 0.7539(5) 0.6879(7)
H1 H 0.8171 0.7481 0.7654
C8 C 0.9010(8) 0.8240(5) 0.6496(7)
C9 C 0.9208(7) 0.8338(5) 0.5317(6)
C10 C 0.8774(7) 0.7693(5) 0.4592(6)
H2 H 0.8957 0.7734 0.3822
C11 C 0.3097(9) 0.5992(6) 0.6718(8)
H3 H 0.3627 0.5545 0.6935
C12 C 0.1287(16) 0.6840(11) 0.7066(14)
H4 H 0.1010 0.7098 0.7763
H5 H 0.0585 0.6630 0.6641
H6 H 0.1718 0.7266 0.6625
C13 C 0.1835(12) 0.5614(10) 0.8294(11)
H7 H 0.1108 0.5273 0.8138
H8 H 0.1683 0.5991 0.8928
H9 H 0.2517 0.5236 0.8475
C14 C 0.4525(12) 0.7985(8) 0.4948(11)
H10 H 0.3808 0.7882 0.4524
C15 C 0.5563(19) 0.8841(12) 0.6271(15)
H11 H 0.5524 0.8427 0.6880
H12 H 0.5524 0.9417 0.6577
H13 H 0.6327 0.8768 0.5869
C16 C 0.3500(16) 0.9272(11) 0.5451(15)
H14 H 0.3701 0.9775 0.5008
H15 H 0.3262 0.9448 0.6202
H16 H 0.2827 0.8966 0.5093
O5C O 0.4186(6) 0.6215(4) 0.3371(5)
O7B O 0.4426(6) 0.4864(3) 0.5144(5)
O4A O 0.7732(6) 0.4215(4) 0.2469(5)
O6C O 0.5570(6) 0.5788(4) 0.2086(5)
O8B O 0.5544(6) 0.4014(4) 0.4011(5)
Co2A Co 0.63640(11) 0.50510(6) 0.81152(10)
Co1C Co 1.00000(9) 0.88722(6) 1.00000(9)
Co2C Co 1.13640(11) 1.00510(6) 0.81152(10)
Co1B Co 1.00000(9) 1.11278(6) 0.50000(9)
Co2B Co 1.13640(11) 0.99490(6) 0.31152(10)
loop_
_geom_bond_atom_site_label_1
_geom_bond_atom_site_label_2
_geom_bond_site_symmetry_1
_geom_bond_site_symmetry_2
Co1 O1 1_555 1_555
Co2 O1 1_555 1_555
O1 C1 1_555 1_555
O2 C1 1_555 1_555
O3 Co1 1_555 1_555
O4 C2 1_555 1_555
O5 C3 1_555 1_555
O6 C3 1_555 1_555
O7 C4 1_555 1_555
O8 C4 1_555 1_555
O9 Co1 1_555 1_555
O10 Co1 1_555 1_555
N1 C11 1_555 1_555
N2 C14 1_555 1_555
C1 C5 1_555 1_555
C2 O3 1_555 1_555
C3 C8 1_555 1_555
C4 C9 1_555 1_555
C5 C6 1_555 1_555
C6 C2 1_555 1_555
C7 C6 1_555 1_555
H1 C7 1_555 1_555
C8 C7 1_555 1_555
C9 C8 1_555 1_555
C10 C5 1_555 1_555
H2 C10 1_555 1_555
C11 O9 1_555 1_555
H3 C11 1_555 1_555
C12 N1 1_555 1_555
H4 C12 1_555 1_555
H5 C12 1_555 1_555
H6 C12 1_555 1_555
C13 N1 1_555 1_555
H7 C13 1_555 1_555
H8 C13 1_555 1_555
H9 C13 1_555 1_555
C14 O10 1_555 1_555
H10 C14 1_555 1_555
C15 N2 1_555 1_555
H11 C15 1_555 1_555
H12 C15 1_555 1_555
H13 C15 1_555 1_555
C16 N2 1_555 1_555
H14 C16 1_555 1_555
H15 C16 1_555 1_555
H16 C16 1_555 1_555
O5C Co1 1_555 1_555
O7B Co1 1_555 1_555
O4A Co2 1_555 1_555
O6C Co2 1_555 1_555
O8B Co2 1_555 1_555
Co2A O4 1_555 1_555
Co1C O5 1_555 1_555
Co2C O6 1_555 1_555
Co1B O7 1_555 1_555
Co2B O8 1_555 1_555
C9 C10 1_555 1_555

#END
