
#######################################################################
#
#                 Cambridge Crystallographic Data Centre
#                                CCDC 
#
#######################################################################
#
# If this CIF has been generated from an entry in the Cambridge 
# Structural Database, then it will include bibliographic, chemical, 
# crystal, experimental, refinement or atomic coordinate data resulting 
# from the CCDC's data processing and validation procedures.
#
#######################################################################

data_OCACIF
_symmetry_cell_setting           monoclinic
_symmetry_space_group_name_H-M   'P 21/c'
_symmetry_Int_Tables_number      14
_space_group_name_Hall           '-P 2ybc'
loop_
_symmetry_equiv_pos_site_id
_symmetry_equiv_pos_as_xyz
1 x,y,z
2 x,1/2-y,1/2+z
3 -x,-y,-z
4 -x,1/2+y,1/2-z
_cell_length_a                   9.350(3)
_cell_length_b                   10.454(3)
_cell_length_c                   18.902(7)
_cell_angle_alpha                90
_cell_angle_beta                 103.764(14)
_cell_angle_gamma                90
_cell_volume                     1794.52
loop_
_atom_site_label
_atom_site_type_symbol
_atom_site_fract_x
_atom_site_fract_y
_atom_site_fract_z
Sn1 Sn 0.52240(2) 0.216965(19) 0.259974(11)
Cl1 Cl 1.05567(11) 0.03579(9) 0.80323(5)
O1 O 0.6218(4) 0.0860(2) 0.34601(13)
O2 O 0.5729(3) -0.1156(2) 0.32051(13)
C1 C 0.6729(4) 0.3517(3) 0.32044(19)
H1 H 0.7712 0.3132 0.3346
H2 H 0.6409 0.3765 0.3642
H3 H 0.6762 0.4276 0.2904
C2 C 0.3099(4) 0.1961(4) 0.2785(2)
H4 H 0.2383 0.1834 0.2319
H5 H 0.2843 0.2732 0.3023
H6 H 0.3083 0.1218 0.3100
C3 C 0.5796(4) 0.1163(3) 0.17309(18)
H7 H 0.6671 0.1555 0.1621
H8 H 0.4975 0.1202 0.1298
H9 H 0.6005 0.0268 0.1872
C4 C 0.6261(4) -0.0309(3) 0.36253(18)
C5 C 0.7055(4) -0.0630(3) 0.44025(16)
C6 C 0.7564(4) 0.0331(3) 0.48548(17)
H10 H 0.7383 0.1162 0.4649
C7 C 0.7179(4) -0.2002(3) 0.46138(16)
C8 C 0.6410(5) -0.2485(3) 0.50984(18)
H11 H 0.5776 -0.1940 0.5287
C9 C 0.6558(6) -0.3751(4) 0.5308(2)
H12 H 0.6021 -0.4072 0.5638
C10 C 0.7471(6) -0.4546(4) 0.5045(2)
H13 H 0.7575 -0.5415 0.5197
C11 C 0.8235(5) -0.4095(4) 0.4564(2)
H14 H 0.8858 -0.4653 0.4377
C12 C 0.8100(4) -0.2822(3) 0.43482(19)
H15 H 0.8639 -0.2510 0.4017
C13 C 0.8365(4) 0.0299(3) 0.56253(17)
C14 C 0.8229(5) 0.1336(3) 0.6056(2)
H16 H 0.7654 0.2048 0.5842
C15 C 0.8915(5) 0.1366(4) 0.67982(19)
H17 H 0.8787 0.2079 0.7088
C16 C 0.9768(4) 0.0362(3) 0.70999(17)
C17 C 0.9988(4) -0.0660(3) 0.66778(18)
H18 H 1.0618 -0.1342 0.6889
C18 C 0.9286(4) -0.0693(3) 0.59430(18)
H19 H 0.9438 -0.1401 0.5654
O2C O 0.4271(3) 0.3844(2) 0.17949(13)
Sn1C Sn 0.47760(2) -0.283035(19) 0.240026(11)
loop_
_geom_bond_atom_site_label_1
_geom_bond_atom_site_label_2
_geom_bond_site_symmetry_1
_geom_bond_site_symmetry_2
Sn1 O1 1_555 1_555
Cl1 C16 1_555 1_555
O1 C4 1_555 1_555
O2 C4 1_555 1_555
C1 Sn1 1_555 1_555
H1 C1 1_555 1_555
H2 C1 1_555 1_555
H3 C1 1_555 1_555
C2 Sn1 1_555 1_555
H4 C2 1_555 1_555
H5 C2 1_555 1_555
H6 C2 1_555 1_555
C3 Sn1 1_555 1_555
H7 C3 1_555 1_555
H8 C3 1_555 1_555
H9 C3 1_555 1_555
C4 C5 1_555 1_555
C5 C6 1_555 1_555
C6 H10 1_555 1_555
C7 C5 1_555 1_555
C8 C7 1_555 1_555
H11 C8 1_555 1_555
C9 C8 1_555 1_555
H12 C9 1_555 1_555
C10 C9 1_555 1_555
H13 C10 1_555 1_555
C11 C10 1_555 1_555
H14 C11 1_555 1_555
C12 C7 1_555 1_555
H15 C12 1_555 1_555
C13 C6 1_555 1_555
C14 C13 1_555 1_555
H16 C14 1_555 1_555
C15 C14 1_555 1_555
H17 C15 1_555 1_555
C16 C15 1_555 1_555
C17 C16 1_555 1_555
H18 C17 1_555 1_555
C18 C13 1_555 1_555
H19 C18 1_555 1_555
O2C Sn1 1_555 1_555
Sn1C O2 1_555 1_555
C11 C12 1_555 1_555
C17 C18 1_555 1_555

#END
