
#######################################################################
#
#                 Cambridge Crystallographic Data Centre
#                                CCDC 
#
#######################################################################
#
# If this CIF has been generated from an entry in the Cambridge 
# Structural Database, then it will include bibliographic, chemical, 
# crystal, experimental, refinement or atomic coordinate data resulting 
# from the CCDC's data processing and validation procedures.
#
#######################################################################

data_OCADIG
_symmetry_cell_setting           triclinic
_symmetry_space_group_name_H-M   'P -1'
_symmetry_Int_Tables_number      2
_space_group_name_Hall           '-P 1'
loop_
_symmetry_equiv_pos_site_id
_symmetry_equiv_pos_as_xyz
1 x,y,z
2 -x,-y,-z
_cell_length_a                   4.9243(10)
_cell_length_b                   5.7865(12)
_cell_length_c                   11.843(2)
_cell_angle_alpha                92.21(3)
_cell_angle_beta                 95.08(3)
_cell_angle_gamma                96.86(3)
_cell_volume                     333.316
loop_
_atom_site_label
_atom_site_type_symbol
_atom_site_fract_x
_atom_site_fract_y
_atom_site_fract_z
Zn1 Zn 0.5000 0.5000 0.5000
O1 O 0.2503(3) 0.5996(3) 0.36260(10)
O2 O 0.5190(3) 0.8944(3) 0.29630(10)
O3 O -0.0975(3) 0.5601(3) 0.18130(10)
O4 O 0.2340(3) 0.1991(3) 0.50130(10)
O5 O 0.2609(3) 0.6764(3) 0.61110(10)
C1 C 0.3072(4) 0.7494(3) 0.2916(2)
C2 C 0.0998(4) 0.7619(4) 0.1888(2)
C3 C -0.2928(4) 0.5388(4) 0.0896(2)
C4 C -0.4777(4) 0.3362(4) 0.0815(2)
C5 C -0.3154(4) 0.7028(4) 0.0074(2)
H1 H 0.261(5) 0.154(6) 0.5680(10)
H2 H 0.069(3) 0.221(6) 0.487(2)
H3 H 0.164(5) 0.591(4) 0.652(2)
H4 H 0.352(5) 0.790(3) 0.648(2)
H5 H 0.0088 0.9006 0.1966
H6 H 0.1938 0.7704 0.1202
H7 H -0.4629 0.2257 0.1360
H8 H -0.1921 0.8385 0.0119
C5A C -0.6846(4) 0.2972(4) -0.0074(2)
C3A C -0.7072(4) 0.4612(4) -0.0896(2)
O3A O -0.9025(3) 0.4399(3) -0.18130(10)
C2A C -1.0998(4) 0.2381(4) -0.1888(2)
C1A C -1.3072(4) 0.2506(3) -0.2916(2)
O1A O -1.2503(3) 0.4004(3) -0.36260(10)
O2A O -1.5190(3) 0.1056(3) -0.29630(10)
H5A H -1.0088 0.0994 -0.1966
H6A H -1.1938 0.2296 -0.1202
C4A C -0.5223(4) 0.6638(4) -0.0815(2)
H7A H -0.5371 0.7743 -0.1360
H8A H -0.8079 0.1615 -0.0119
O4A O 0.7660(3) 0.8009(3) 0.49870(10)
H1A H 0.739(5) 0.846(6) 0.4320(10)
H2A H 0.931(3) 0.779(6) 0.513(2)
O5A O 0.7391(3) 0.3236(3) 0.38890(10)
H3A H 0.836(5) 0.409(4) 0.348(2)
H4A H 0.648(5) 0.210(3) 0.352(2)
O1A_2 O 0.7497(3) 0.4004(3) 0.63740(10)
Zn1_2 Zn -1.5000 0.5000 -0.5000
loop_
_geom_bond_atom_site_label_1
_geom_bond_atom_site_label_2
_geom_bond_site_symmetry_1
_geom_bond_site_symmetry_2
Zn1 O1 1_555 1_555
O1 C1 1_555 1_555
O2 C1 1_555 1_555
O3 C2 1_555 1_555
O4 Zn1 1_555 1_555
O5 Zn1 1_555 1_555
C1 C2 1_555 1_555
C2 H5 1_555 1_555
C3 O3 1_555 1_555
C4 C3 1_555 1_555
C5 C3 1_555 1_555
H1 O4 1_555 1_555
H2 O4 1_555 1_555
H3 O5 1_555 1_555
H4 O5 1_555 1_555
H6 C2 1_555 1_555
H7 C4 1_555 1_555
H8 C5 1_555 1_555
C5A C4 1_555 1_555
C3A C5A 1_555 1_555
O3A C3A 1_555 1_555
C2A O3A 1_555 1_555
C1A C2A 1_555 1_555
O1A C1A 1_555 1_555
O2A C1A 1_555 1_555
H5A C2A 1_555 1_555
H6A C2A 1_555 1_555
C4A C5 1_555 1_555
H7A C4A 1_555 1_555
H8A C5A 1_555 1_555
O4A Zn1 1_555 1_555
H1A O4A 1_555 1_555
H2A O4A 1_555 1_555
O5A Zn1 1_555 1_555
H3A O5A 1_555 1_555
H4A O5A 1_555 1_555
O1A_2 Zn1 1_555 1_555
Zn1_2 O1A 1_555 1_555
C3A C4A 1_555 1_555

#END
