
#######################################################################
#
#                 Cambridge Crystallographic Data Centre
#                                CCDC 
#
#######################################################################
#
# If this CIF has been generated from an entry in the Cambridge 
# Structural Database, then it will include bibliographic, chemical, 
# crystal, experimental, refinement or atomic coordinate data resulting 
# from the CCDC's data processing and validation procedures.
#
#######################################################################

data_OCADOM
_symmetry_cell_setting           triclinic
_symmetry_space_group_name_H-M   'P -1'
_symmetry_Int_Tables_number      2
_space_group_name_Hall           '-P 1'
loop_
_symmetry_equiv_pos_site_id
_symmetry_equiv_pos_as_xyz
1 x,y,z
2 -x,-y,-z
_cell_length_a                   8.0562(18)
_cell_length_b                   8.2506(18)
_cell_length_c                   14.253(3)
_cell_angle_alpha                96.313(3)
_cell_angle_beta                 91.631(3)
_cell_angle_gamma                103.402(3)
_cell_volume                     914.561
loop_
_atom_site_label
_atom_site_type_symbol
_atom_site_fract_x
_atom_site_fract_y
_atom_site_fract_z
Co1 Co 0.23745(6) 0.15653(5) 0.38131(3)
V1 V 0.09244(7) -0.25405(7) 0.46779(4)
V2 V 0.19563(7) -0.43253(7) 0.64109(4)
S1 S 0.68596(12) -0.41363(11) 0.12653(6)
N1 N 0.4249(4) 0.0801(3) 0.29940(18)
N2 N 0.6583(4) -0.1980(4) 0.0162(2)
N3 N 0.7116(4) -0.3198(4) -0.0381(2)
C1 C 0.8823(5) -0.8395(4) -0.0293(3)
H1 H 0.9049 -0.9247 0.0066
O1 O 0.1785(3) -0.0811(3) 0.42268(15)
O2 O -0.0650(3) -0.2329(3) 0.53529(15)
O3 O 0.2475(3) -0.3182(3) 0.53858(16)
O4 O 0.3511(3) -0.5304(3) 0.65283(16)
O5 O 0.1903(3) -0.3036(3) 0.73515(16)
O6 O 0.0145(3) -0.4232(3) 0.37542(15)
C2 C 0.5054(5) -0.0304(4) 0.3291(2)
H2 H 0.5073 -0.0423 0.3953
C3 C 0.5852(5) -0.1293(4) 0.2702(2)
H3 H 0.6435 -0.2061 0.2947
C4 C 0.5805(4) -0.1132(4) 0.1739(2)
C5 C 0.5083(5) 0.0112(4) 0.1437(2)
H4 H 0.5122 0.0322 0.0787
C6 C 0.4323(4) 0.1039(4) 0.2075(2)
H5 H 0.3822 0.1889 0.1857
C7 C 0.6413(4) -0.2272(4) 0.1041(2)
C8 C 0.7318(4) -0.4413(4) 0.0088(2)
C9 C 0.7913(5) -0.5854(4) -0.0348(2)
C10 C 0.8209(5) -0.5973(4) -0.1313(2)
H6 H 0.8015 -0.5136 -0.1693
C11 C 0.8787(5) -0.7333(5) -0.1701(3)
H7 H 0.8966 -0.7432 -0.2365
N4 N 0.9109(4) -0.8529(4) -0.1214(2)
C12 C 0.8231(5) -0.7097(4) 0.0169(2)
H8 H 0.8037 -0.7052 0.0832
O7 O 0.4151(3) 0.2473(3) 0.49621(16)
O8 O 0.0464(3) 0.0856(3) 0.27223(17)
O9 O 0.2934(3) 0.3962(3) 0.33170(16)
H9 H 0.4075 0.4462 0.3431
H10 H 0.5275 0.2806 0.4877
H11 H 0.2439 0.4717 0.3557
H12 H 0.0523 0.0354 0.2207
H13 H -0.0256 0.1544 0.2674
H14 H 0.3891 0.3240 0.5440
O6A O -0.0145(3) -0.5768(3) 0.62458(15)
V1A V -0.09244(7) -0.74595(7) 0.53221(4)
O1A O -0.1785(3) -0.9189(3) 0.57732(15)
O2A O 0.0650(3) -0.7671(3) 0.46471(15)
O3A O -0.2475(3) -0.6818(3) 0.46142(16)
V2A V -0.19563(7) -0.56747(7) 0.35891(4)
O4A O -0.3511(3) -0.4696(3) 0.34717(16)
O5A O -0.1903(3) -0.6964(3) 0.26485(16)
Co1A Co -0.23745(6) -1.15653(5) 0.61869(3)
S1A S -0.68596(12) -0.58637(11) 0.87347(6)
N1A N -0.4249(4) -1.0801(3) 0.70060(18)
N2A N -0.6583(4) -0.8020(4) 0.9838(2)
N3A N -0.7116(4) -0.6802(4) 1.0381(2)
C1A C -0.8823(5) -0.1605(4) 1.0293(3)
H1A H -0.9049 -0.0753 0.9934
C2A C -0.5054(5) -0.9696(4) 0.6709(2)
H2A H -0.5073 -0.9577 0.6047
C3A C -0.5852(5) -0.8707(4) 0.7298(2)
H3A H -0.6435 -0.7939 0.7053
C4A C -0.5805(4) -0.8868(4) 0.8261(2)
C5A C -0.5083(5) -1.0112(4) 0.8563(2)
H4A H -0.5122 -1.0322 0.9213
C6A C -0.4323(4) -1.1039(4) 0.7925(2)
H5A H -0.3822 -1.1889 0.8143
C7A C -0.6413(4) -0.7728(4) 0.8959(2)
C8A C -0.7318(4) -0.5587(4) 0.9912(2)
C9A C -0.7913(5) -0.4146(4) 1.0348(2)
C10A C -0.8209(5) -0.4027(4) 1.1313(2)
H6A H -0.8015 -0.4864 1.1693
C11A C -0.8787(5) -0.2667(5) 1.1701(3)
H7A H -0.8966 -0.2568 1.2365
N4A N -0.9109(4) -0.1471(4) 1.1214(2)
C12A C -0.8231(5) -0.2903(4) 0.9831(2)
H8A H -0.8037 -0.2948 0.9168
O7A O -0.4151(3) -1.2473(3) 0.50379(16)
H10A H -0.5275 -1.2806 0.5123
H14A H -0.3891 -1.3240 0.4560
O8A O -0.0464(3) -1.0856(3) 0.72777(17)
H12A H -0.0523 -1.0354 0.7793
H13A H 0.0256 -1.1544 0.7326
O9A O -0.2934(3) -1.3962(3) 0.66830(16)
H9A H -0.4075 -1.4462 0.6569
H11A H -0.2439 -1.4717 0.6443
O2A_2 O 0.0650(3) 0.2329(3) 0.46471(15)
Co1A_2 Co -0.23745(6) -0.15653(5) 0.61869(3)
Co1_2 Co 0.23745(6) -0.84347(5) 0.38131(3)
O2_2 O -0.0650(3) -1.2329(3) 0.53529(15)
loop_
_geom_bond_atom_site_label_1
_geom_bond_atom_site_label_2
_geom_bond_site_symmetry_1
_geom_bond_site_symmetry_2
Co1 N1 1_555 1_555
V1 O1 1_555 1_555
V2 O3 1_555 1_555
S1 C7 1_555 1_555
N1 C2 1_555 1_555
N2 N3 1_555 1_555
N3 C8 1_555 1_555
C1 H1 1_555 1_555
O1 Co1 1_555 1_555
O2 V1 1_555 1_555
O3 V1 1_555 1_555
O4 V2 1_555 1_555
O5 V2 1_555 1_555
O6 V1 1_555 1_555
C2 H2 1_555 1_555
C3 C2 1_555 1_555
H3 C3 1_555 1_555
C4 C3 1_555 1_555
C5 C4 1_555 1_555
H4 C5 1_555 1_555
C6 N1 1_555 1_555
H5 C6 1_555 1_555
C7 N2 1_555 1_555
C8 S1 1_555 1_555
C9 C8 1_555 1_555
C10 C9 1_555 1_555
H6 C10 1_555 1_555
C11 C10 1_555 1_555
H7 C11 1_555 1_555
N4 C1 1_555 1_555
C12 C1 1_555 1_555
H8 C12 1_555 1_555
O7 Co1 1_555 1_555
O8 Co1 1_555 1_555
O9 Co1 1_555 1_555
H9 O9 1_555 1_555
H10 O7 1_555 1_555
H11 O9 1_555 1_555
H12 O8 1_555 1_555
H13 O8 1_555 1_555
H14 O7 1_555 1_555
O6A V2 1_555 1_555
V1A O6A 1_555 1_555
O1A V1A 1_555 1_555
O2A V1A 1_555 1_555
O3A V1A 1_555 1_555
V2A O6 1_555 1_555
O4A V2A 1_555 1_555
O5A V2A 1_555 1_555
Co1A O1A 1_555 1_555
S1A C7A 1_555 1_555
N1A Co1A 1_555 1_555
N2A N3A 1_555 1_555
N3A C8A 1_555 1_555
C1A H1A 1_555 1_555
C2A N1A 1_555 1_555
H2A C2A 1_555 1_555
C3A C2A 1_555 1_555
H3A C3A 1_555 1_555
C4A C3A 1_555 1_555
C5A C4A 1_555 1_555
H4A C5A 1_555 1_555
C6A N1A 1_555 1_555
H5A C6A 1_555 1_555
C7A N2A 1_555 1_555
C8A S1A 1_555 1_555
C9A C8A 1_555 1_555
C10A C9A 1_555 1_555
H6A C10A 1_555 1_555
C11A C10A 1_555 1_555
H7A C11A 1_555 1_555
N4A C1A 1_555 1_555
C12A C1A 1_555 1_555
H8A C12A 1_555 1_555
O7A Co1A 1_555 1_555
H10A O7A 1_555 1_555
H14A O7A 1_555 1_555
O8A Co1A 1_555 1_555
H12A O8A 1_555 1_555
H13A O8A 1_555 1_555
O9A Co1A 1_555 1_555
H9A O9A 1_555 1_555
H11A O9A 1_555 1_555
O2A_2 Co1 1_555 1_555
Co1A_2 O2 1_555 1_555
Co1_2 O2A 1_555 1_555
O2_2 Co1A 1_555 1_555
C4 C7 1_555 1_555
C5 C6 1_555 1_555
C9 C12 1_555 1_555
C11 N4 1_555 1_555
O3A V2A 1_555 1_555
C4A C7A 1_555 1_555
C5A C6A 1_555 1_555
C9A C12A 1_555 1_555
C11A N4A 1_555 1_555

#END
