
#######################################################################
#
#                 Cambridge Crystallographic Data Centre
#                                CCDC 
#
#######################################################################
#
# If this CIF has been generated from an entry in the Cambridge 
# Structural Database, then it will include bibliographic, chemical, 
# crystal, experimental, refinement or atomic coordinate data resulting 
# from the CCDC's data processing and validation procedures.
#
#######################################################################

data_OCAGOO
_symmetry_cell_setting           triclinic
_symmetry_space_group_name_H-M   'P -1'
_symmetry_Int_Tables_number      2
_space_group_name_Hall           '-P 1'
loop_
_symmetry_equiv_pos_site_id
_symmetry_equiv_pos_as_xyz
1 x,y,z
2 -x,-y,-z
_cell_length_a                   10.6096(5)
_cell_length_b                   11.6951(5)
_cell_length_c                   13.1796(6)
_cell_angle_alpha                71.3690(10)
_cell_angle_beta                 70.7900(10)
_cell_angle_gamma                80.7380(10)
_cell_volume                     1460.49
loop_
_atom_site_label
_atom_site_type_symbol
_atom_site_fract_x
_atom_site_fract_y
_atom_site_fract_z
Cu1 Cu 0.53785(3) 0.61541(3) -0.38049(3)
Cu2 Cu 0.00528(3) -0.11415(3) -0.13727(3)
V1 V -0.10533(5) 0.18253(4) -0.24169(4)
V2 V 0.59613(5) 0.33355(4) -0.23042(4)
P1 P 0.38940(7) 0.38777(6) -0.35771(6)
P2 P 0.11029(7) 0.11212(6) -0.11519(6)
O1 O 0.12429(19) -0.01579(17) -0.12352(17)
O2 O -0.0715(2) 0.04912(18) -0.26507(18)
O3 O 0.1231(2) 0.12193(18) -0.00702(16)
O4 O -0.0227(2) 0.18004(17) -0.13546(16)
O5 O -0.0384(2) 0.28400(18) -0.35617(17)
O6 O 0.7158(2) 0.21199(18) -0.19334(17)
O7 O 0.6657(2) 0.46271(18) -0.30042(19)
O8 O 0.4821(2) 0.3499(2) -0.11789(18)
O9 O 0.51135(19) 0.30742(17) -0.32476(17)
O10 O 0.39575(19) 0.51738(17) -0.36025(17)
O11 O 0.3771(2) 0.37037(18) -0.46221(17)
N1 N -0.0867(2) -0.2446(2) -0.14862(19)
N2 N 0.1405(2) -0.1471(2) -0.2765(2)
N3 N 0.6586(2) 0.7382(2) -0.3920(2)
N4 N 0.4335(2) 0.6630(2) -0.2388(2)
C1 C -0.2033(3) -0.2901(2) -0.0824(2)
H1 H -0.2515 -0.2596 -0.0227
C2 C -0.2553(3) -0.3821(3) -0.1001(3)
H2 H -0.3367 -0.4123 -0.0524
C3 C -0.1854(3) -0.4280(3) -0.1886(3)
H3 H -0.2188 -0.4900 -0.2001
C4 C -0.0633(3) -0.3807(3) -0.2613(3)
C5 C -0.0184(3) -0.2879(2) -0.2373(2)
C6 C 0.0161(3) -0.4178(3) -0.3586(3)
H4 H -0.0118 -0.4795 -0.3750
C7 C 0.1306(3) -0.3649(3) -0.4269(3)
H5 H 0.1794 -0.3902 -0.4897
C8 C 0.1782(3) -0.2697(3) -0.4035(3)
C9 C 0.1036(3) -0.2334(2) -0.3080(2)
C10 C 0.2959(3) -0.2114(3) -0.4692(2)
H6 H 0.3484 -0.2316 -0.5338
C11 C 0.3333(3) -0.1237(3) -0.4372(3)
H7 H 0.4113 -0.0843 -0.4801
C12 C 0.2528(3) -0.0942(3) -0.3394(2)
H8 H 0.2794 -0.0356 -0.3181
C13 C 0.7755(3) 0.7687(2) -0.4677(2)
H9 H 0.8094 0.7300 -0.5236
C14 C 0.8500(3) 0.8570(3) -0.4668(2)
H10 H 0.9312 0.8765 -0.5215
C15 C 0.8013(3) 0.9147(3) -0.3834(3)
H11 H 0.8495 0.9733 -0.3815
C16 C 0.6778(3) 0.8836(2) -0.3015(2)
C17 C 0.6110(3) 0.7937(2) -0.3090(2)
C18 C 0.6171(3) 0.9371(3) -0.2099(3)
H12 H 0.6590 0.9978 -0.2043
C19 C 0.4997(3) 0.8993(3) -0.1324(3)
H13 H 0.4619 0.9353 -0.0747
C20 C 0.4323(3) 0.8048(3) -0.1373(2)
C21 C 0.4887(3) 0.7529(2) -0.2256(2)
C22 C 0.3103(3) 0.7607(3) -0.0589(2)
H14 H 0.2677 0.7929 0.0007
C23 C 0.2562(3) 0.6702(3) -0.0721(2)
H15 H 0.1764 0.6400 -0.0208
C24 C 0.3202(3) 0.6224(3) -0.1629(2)
H16 H 0.2820 0.5601 -0.1698
C25 C 0.2457(3) 0.3250(2) -0.2449(2)
H17 H 0.2474 0.3377 -0.1761
H18 H 0.1647 0.3659 -0.2616
C26 C 0.2451(3) 0.1888(2) -0.2287(2)
H19 H 0.3290 0.1502 -0.2163
H20 H 0.2417 0.1780 -0.2977
O11A O 0.6229(2) 0.62963(18) -0.53779(17)
O3A O -0.1231(2) -0.12193(18) 0.00702(16)
O6_2 O -0.2842(2) 0.21199(18) -0.19334(17)
Cu2A Cu -0.00528(3) 0.11415(3) 0.13727(3)
Cu1A Cu 0.46215(3) 0.38459(3) -0.61951(3)
V1_2 V 0.89467(5) 0.18253(4) -0.24169(4)
loop_
_geom_bond_atom_site_label_1
_geom_bond_atom_site_label_2
_geom_bond_site_symmetry_1
_geom_bond_site_symmetry_2
Cu1 O7 1_555 1_555
Cu2 O1 1_555 1_555
V1 O2 1_555 1_555
V2 O6 1_555 1_555
P1 O9 1_555 1_555
P2 O1 1_555 1_555
O2 Cu2 1_555 1_555
O3 P2 1_555 1_555
O4 V1 1_555 1_555
O5 V1 1_555 1_555
O6 V1_2 1_555 1_555
O7 V2 1_555 1_555
O8 V2 1_555 1_555
O9 V2 1_555 1_555
O10 Cu1 1_555 1_555
O11 P1 1_555 1_555
N1 Cu2 1_555 1_555
N2 Cu2 1_555 1_555
N3 Cu1 1_555 1_555
N4 Cu1 1_555 1_555
C1 N1 1_555 1_555
H1 C1 1_555 1_555
C2 C1 1_555 1_555
H2 C2 1_555 1_555
C3 C2 1_555 1_555
H3 C3 1_555 1_555
C4 C3 1_555 1_555
C5 N1 1_555 1_555
C6 C4 1_555 1_555
H4 C6 1_555 1_555
C7 C6 1_555 1_555
H5 C7 1_555 1_555
C8 C7 1_555 1_555
C9 N2 1_555 1_555
C10 C8 1_555 1_555
H6 C10 1_555 1_555
C11 C10 1_555 1_555
H7 C11 1_555 1_555
C12 N2 1_555 1_555
H8 C12 1_555 1_555
C13 N3 1_555 1_555
H9 C13 1_555 1_555
C14 C13 1_555 1_555
H10 C14 1_555 1_555
C15 C14 1_555 1_555
H11 C15 1_555 1_555
C16 C15 1_555 1_555
C17 N3 1_555 1_555
C18 C16 1_555 1_555
H12 C18 1_555 1_555
C19 C18 1_555 1_555
H13 C19 1_555 1_555
C20 C19 1_555 1_555
C21 N4 1_555 1_555
C22 C20 1_555 1_555
H14 C22 1_555 1_555
C23 C22 1_555 1_555
H15 C23 1_555 1_555
C24 N4 1_555 1_555
H16 C24 1_555 1_555
C25 P1 1_555 1_555
H17 C25 1_555 1_555
H18 C25 1_555 1_555
C26 P2 1_555 1_555
H19 C26 1_555 1_555
H20 C26 1_555 1_555
O11A Cu1 1_555 1_555
O3A Cu2 1_555 1_555
O6_2 V1 1_555 1_555
Cu2A O3 1_555 1_555
Cu1A O11 1_555 1_555
P1 O10 1_555 1_555
P2 O4 1_555 1_555
C4 C5 1_555 1_555
C5 C9 1_555 1_555
C8 C9 1_555 1_555
C11 C12 1_555 1_555
C16 C17 1_555 1_555
C17 C21 1_555 1_555
C20 C21 1_555 1_555
C23 C24 1_555 1_555
C25 C26 1_555 1_555

#END
