
#######################################################################
#
#                 Cambridge Crystallographic Data Centre
#                                CCDC 
#
#######################################################################
#
# If this CIF has been generated from an entry in the Cambridge 
# Structural Database, then it will include bibliographic, chemical, 
# crystal, experimental, refinement or atomic coordinate data resulting 
# from the CCDC's data processing and validation procedures.
#
#######################################################################

data_OCAHAB
_symmetry_cell_setting           monoclinic
_symmetry_space_group_name_H-M   'P 21/n'
_symmetry_Int_Tables_number      14
_space_group_name_Hall           '-P 2yn'
loop_
_symmetry_equiv_pos_site_id
_symmetry_equiv_pos_as_xyz
1 x,y,z
2 1/2+x,1/2-y,1/2+z
3 -x,-y,-z
4 1/2-x,1/2+y,1/2-z
_cell_length_a                   8.3947(3)
_cell_length_b                   16.8401(7)
_cell_length_c                   11.9144(5)
_cell_angle_alpha                90
_cell_angle_beta                 93.9030(10)
_cell_angle_gamma                90
_cell_volume                     1680.4
loop_
_atom_site_label
_atom_site_type_symbol
_atom_site_fract_x
_atom_site_fract_y
_atom_site_fract_z
Cu1 Cu 0.55527(3) 0.219751(17) 0.45533(2)
V1 V 0.47241(10) 0.50943(6) 0.51477(8)
V2 V 0.97077(5) 0.24511(2) 0.39184(3)
P1 P 0.49849(7) 0.34029(3) 0.64886(5)
P2 P 0.27957(7) 0.34607(3) 0.44932(5)
O1 O 0.3843(2) 0.28738(11) 0.39252(15)
O2 O 0.7831(2) 0.27144(10) 0.37602(15)
O3 O 0.6002(2) 0.28093(11) 0.59084(15)
O4 O 0.5379(2) 0.42656(10) 0.62802(14)
O5 O 0.3244(2) 0.43241(10) 0.43497(14)
O6 O 0.10291(19) 0.33462(10) 0.40193(14)
O7 O 0.9993(2) 0.19743(11) 0.50870(15)
O8 O 1.0156(2) 0.17535(10) 0.27771(14)
O9 O 0.3456(3) 0.55895(13) 0.58617(19)
N1 N 0.6690(2) 0.12537(12) 0.52489(17)
N2 N 0.5128(2) 0.14433(12) 0.32689(17)
C1 C 0.7447(3) 0.11807(16) 0.6260(2)
H1 H 0.7444 0.1607 0.6757
C2 C 0.8253(3) 0.04786(17) 0.6604(2)
H2 H 0.8768 0.0443 0.7318
C3 C 0.8272(3) -0.01507(16) 0.5877(2)
H3 H 0.8809 -0.0615 0.6094
C4 C 0.7478(3) -0.00932(16) 0.4802(2)
C5 C 0.6703(3) 0.06259(14) 0.4531(2)
C6 C 0.7389(3) -0.07185(16) 0.3979(3)
H4 H 0.7898 -0.1199 0.4147
C7 C 0.6575(4) -0.06231(16) 0.2958(3)
H5 H 0.6541 -0.1038 0.2442
C8 C 0.5769(3) 0.01088(15) 0.2669(2)
C9 C 0.5856(3) 0.07278(14) 0.3456(2)
C10 C 0.4867(3) 0.02455(16) 0.1641(2)
H6 H 0.4771 -0.0149 0.1095
C11 C 0.4133(3) 0.09677(16) 0.1461(2)
H7 H 0.3535 0.1066 0.0789
C12 C 0.4291(3) 0.15577(15) 0.2294(2)
H8 H 0.3792 0.2045 0.2160
C13 C 0.2932(3) 0.32540(15) 0.5988(2)
H9 H 0.2609 0.2711 0.6124
H10 H 0.2240 0.3609 0.6372
V1B V 0.52759(10) 0.49057(6) 0.48523(8)
O4B O 0.4621(2) 0.57344(10) 0.37198(14)
O5B O 0.6756(2) 0.56759(10) 0.56503(14)
O9B O 0.6544(3) 0.44105(13) 0.41383(19)
O6_2 O 1.10291(19) 0.33462(10) 0.40193(14)
O8A O 0.5156(2) 0.32465(10) 0.77771(14)
V2_2 V -0.02923(5) 0.24511(2) 0.39184(3)
P1A P 0.99849(7) 0.15971(3) 0.14886(5)
loop_
_geom_bond_atom_site_label_1
_geom_bond_atom_site_label_2
_geom_bond_site_symmetry_1
_geom_bond_site_symmetry_2
Cu1 O1 1_555 1_555
V1 O4 1_555 1_555
V2 O2 1_555 1_555
P1 O3 1_555 1_555
P2 O1 1_555 1_555
O2 Cu1 1_555 1_555
O3 Cu1 1_555 1_555
O4 P1 1_555 1_555
O5 V1 1_555 1_555
O6 P2 1_555 1_555
O7 V2 1_555 1_555
O8 V2 1_555 1_555
O9 V1 1_555 1_555
N1 Cu1 1_555 1_555
N2 Cu1 1_555 1_555
C1 N1 1_555 1_555
H1 C1 1_555 1_555
C2 C1 1_555 1_555
H2 C2 1_555 1_555
C3 C2 1_555 1_555
H3 C3 1_555 1_555
C4 C3 1_555 1_555
C5 N1 1_555 1_555
C6 C4 1_555 1_555
H4 C6 1_555 1_555
C7 C6 1_555 1_555
H5 C7 1_555 1_555
C8 C7 1_555 1_555
C9 N2 1_555 1_555
C10 C8 1_555 1_555
H6 C10 1_555 1_555
C11 C10 1_555 1_555
H7 C11 1_555 1_555
C12 N2 1_555 1_555
H8 C12 1_555 1_555
C13 P1 1_555 1_555
H9 C13 1_555 1_555
H10 C13 1_555 1_555
V1B V1 1_555 1_555
O4B V1 1_555 1_555
O5B V1 1_555 1_555
O9B V1 1_555 1_555
O6_2 V2 1_555 1_555
O8A P1 1_555 1_555
V2_2 O6 1_555 1_555
P1A O8 1_555 1_555
P2 O5 1_555 1_555
P2 C13 1_555 1_555
O4 V1B 1_555 1_555
O5 V1B 1_555 1_555
O9 V1B 1_555 1_555
C4 C5 1_555 1_555
C5 C9 1_555 1_555
C8 C9 1_555 1_555
C11 C12 1_555 1_555
V1B O4B 1_555 1_555
V1B O5B 1_555 1_555
V1B O9B 1_555 1_555

#END
