
#######################################################################
#
#                 Cambridge Crystallographic Data Centre
#                                CCDC 
#
#######################################################################
#
# If this CIF has been generated from an entry in the Cambridge 
# Structural Database, then it will include bibliographic, chemical, 
# crystal, experimental, refinement or atomic coordinate data resulting 
# from the CCDC's data processing and validation procedures.
#
#######################################################################

data_OCAMAG
_symmetry_cell_setting           monoclinic
_symmetry_space_group_name_H-M   'C 2/c'
_symmetry_Int_Tables_number      15
_space_group_name_Hall           '-C 2yn'
loop_
_symmetry_equiv_pos_site_id
_symmetry_equiv_pos_as_xyz
1 x,y,z
2 1/2+x,1/2+y,z
3 x,-y,1/2+z
4 1/2+x,1/2-y,1/2+z
5 -x,-y,-z
6 1/2-x,1/2-y,-z
7 -x,y,1/2-z
8 1/2-x,1/2+y,1/2-z
_cell_length_a                   26.175(13)
_cell_length_b                   4.6570(10)
_cell_length_c                   18.542(6)
_cell_angle_alpha                90
_cell_angle_beta                 124.94(2)
_cell_angle_gamma                90
_cell_volume                     1852.82
loop_
_atom_site_label
_atom_site_type_symbol
_atom_site_fract_x
_atom_site_fract_y
_atom_site_fract_z
Mn1 Mn 0.0000 0.0000 0.0000
O1 O -0.05414(11) 0.2579(5) -0.11375(14)
O2 O 0.00304(10) 0.6541(5) -0.07989(14)
O3 O 0.08329(10) 0.2115(6) 0.02890(16)
C1 C -0.04489(14) 0.5062(8) -0.12894(19)
C2 C -0.09672(15) 0.6341(7) -0.2145(2)
C3 C -0.15705(15) 0.5474(7) -0.2504(2)
H1 H -0.1657 0.4024 -0.2220
C4 C -0.20454(15) 0.6748(8) -0.3269(2)
C5 C -0.19446(16) 0.8768(8) -0.3707(2)
H2 H -0.2282 0.9619 -0.4244
C6 C -0.13378(17) 0.9525(7) -0.3337(2)
C7 C -0.08476(15) 0.8402(7) -0.2559(2)
H3 H -0.0430 0.9048 -0.2309
N1 N -0.26841(15) 0.5878(9) -0.3634(2)
O4 O -0.27707(13) 0.3896(9) -0.3304(2)
O5 O -0.30998(14) 0.7174(9) -0.4253(2)
N2 N -0.12063(18) 1.1694(8) -0.3788(2)
O6 O -0.06677(16) 1.2303(8) -0.3467(2)
O7 O -0.16477(16) 1.2798(8) -0.4449(2)
H4 H 0.0700 0.3735 -0.0088
H5 H 0.1283 0.1201 0.0590
O1D O 0.05414(11) -0.2579(5) 0.11375(14)
O2D O -0.00304(10) -0.6541(5) 0.07989(14)
C1D C 0.04489(14) -0.5062(8) 0.12894(19)
C2D C 0.09672(15) -0.6341(7) 0.2145(2)
C3D C 0.15705(15) -0.5474(7) 0.2504(2)
H1D H 0.1657 -0.4024 0.2220
C4D C 0.20454(15) -0.6748(8) 0.3269(2)
C5D C 0.19446(16) -0.8768(8) 0.3707(2)
H2D H 0.2282 -0.9619 0.4244
C6D C 0.13378(17) -0.9525(7) 0.3337(2)
C7D C 0.08476(15) -0.8402(7) 0.2559(2)
H3D H 0.0430 -0.9048 0.2309
N1D N 0.26841(15) -0.5878(9) 0.3634(2)
O4D O 0.27707(13) -0.3896(9) 0.3304(2)
O5D O 0.30998(14) -0.7174(9) 0.4253(2)
N2D N 0.12063(18) -1.1694(8) 0.3788(2)
O6D O 0.06677(16) -1.2303(8) 0.3467(2)
O7D O 0.16477(16) -1.2798(8) 0.4449(2)
O3D O -0.08329(10) -0.2115(6) -0.02890(16)
H4D H -0.0700 -0.3735 0.0088
H5D H -0.1283 -0.1201 -0.0590
O2_2 O 0.00304(10) -0.3459(5) -0.07989(14)
O2D_2 O -0.00304(10) 0.3459(5) 0.07989(14)
Mn1_2 Mn 0.0000 1.0000 0.0000
Mn1_3 Mn 0.0000 -1.0000 0.0000
loop_
_geom_bond_atom_site_label_1
_geom_bond_atom_site_label_2
_geom_bond_site_symmetry_1
_geom_bond_site_symmetry_2
Mn1 O1 1_555 1_555
O1 C1 1_555 1_555
O2 C1 1_555 1_555
O3 Mn1 1_555 1_555
C1 C2 1_555 1_555
C2 C3 1_555 1_555
C3 H1 1_555 1_555
C4 C3 1_555 1_555
C5 C4 1_555 1_555
H2 C5 1_555 1_555
C6 C5 1_555 1_555
C7 C2 1_555 1_555
H3 C7 1_555 1_555
N1 C4 1_555 1_555
O4 N1 1_555 1_555
O5 N1 1_555 1_555
N2 C6 1_555 1_555
O6 N2 1_555 1_555
O7 N2 1_555 1_555
H4 O3 1_555 1_555
H5 O3 1_555 1_555
O1D Mn1 1_555 1_555
O2D C1D 1_555 1_555
C1D O1D 1_555 1_555
C2D C1D 1_555 1_555
C3D C2D 1_555 1_555
H1D C3D 1_555 1_555
C4D C3D 1_555 1_555
C5D C4D 1_555 1_555
H2D C5D 1_555 1_555
C6D C5D 1_555 1_555
C7D C2D 1_555 1_555
H3D C7D 1_555 1_555
N1D C4D 1_555 1_555
O4D N1D 1_555 1_555
O5D N1D 1_555 1_555
N2D C6D 1_555 1_555
O6D N2D 1_555 1_555
O7D N2D 1_555 1_555
O3D Mn1 1_555 1_555
H4D O3D 1_555 1_555
H5D O3D 1_555 1_555
O2_2 Mn1 1_555 1_555
O2D_2 Mn1 1_555 1_555
Mn1_2 O2 1_555 1_555
Mn1_3 O2D 1_555 1_555
C6 C7 1_555 1_555
C6D C7D 1_555 1_555

#END
