
#######################################################################
#
#                 Cambridge Crystallographic Data Centre
#                                CCDC 
#
#######################################################################
#
# If this CIF has been generated from an entry in the Cambridge 
# Structural Database, then it will include bibliographic, chemical, 
# crystal, experimental, refinement or atomic coordinate data resulting 
# from the CCDC's data processing and validation procedures.
#
#######################################################################

data_OCAMAG01
_symmetry_cell_setting           monoclinic
_symmetry_space_group_name_H-M   'C 2/c'
_symmetry_Int_Tables_number      15
_space_group_name_Hall           '-C 2yn'
loop_
_symmetry_equiv_pos_site_id
_symmetry_equiv_pos_as_xyz
1 x,y,z
2 -x,y,1/2-z
3 1/2+x,1/2+y,z
4 1/2-x,1/2+y,1/2-z
5 -x,-y,-z
6 x,-y,1/2+z
7 1/2-x,1/2-y,-z
8 1/2+x,1/2-y,1/2+z
_cell_length_a                   25.907(3)
_cell_length_b                   4.7050(10)
_cell_length_c                   18.312(2)
_cell_angle_alpha                90
_cell_angle_beta                 124.17(3)
_cell_angle_gamma                90
_cell_volume                     1846.78
loop_
_atom_site_label
_atom_site_type_symbol
_atom_site_fract_x
_atom_site_fract_y
_atom_site_fract_z
Mn1 Mn 0.0000 1.0000 0.0000
O1 O -0.00445(5) 0.6553(2) 0.07997(7)
O2 O 0.05268(6) 0.2581(2) 0.11410(7)
O3 O -0.08370(5) 1.2189(3) -0.03010(8)
H1 H -0.0754 1.3626 0.0019
H2 H -0.1205 1.1676 -0.0509
O4 O 0.06685(7) 1.2430(3) 0.34809(10)
O5 O 0.16513(8) 1.2837(3) 0.44686(10)
O6 O 0.27619(7) 0.3708(4) 0.33099(11)
O7 O 0.31088(7) 0.7085(4) 0.42603(12)
N1 N 0.12094(8) 1.1761(3) 0.38001(10)
N2 N 0.26825(7) 0.5768(4) 0.36355(11)
C1 C 0.04320(7) 0.5067(3) 0.12866(10)
C2 C 0.09570(7) 0.6348(3) 0.21452(10)
C3 C 0.08389(8) 0.8456(3) 0.25626(10)
H3 H 0.0426 0.9124 0.2315
C4 C 0.13356(8) 0.9566(3) 0.33480(11)
C5 C 0.19460(8) 0.8773(4) 0.37168(11)
H4 H 0.2282 0.9608 0.4246
C6 C 0.20414(8) 0.6698(4) 0.32732(11)
C7 C 0.15618(8) 0.5429(3) 0.25026(11)
H5 H 0.1646 0.3964 0.2226
Mn1_2 Mn 0.0000 0.0000 0.0000
Mn1_3 Mn 0.0000 2.0000 0.0000
O1D O 0.00445(5) 1.3447(2) -0.07997(7)
O2D O -0.05268(6) 1.7419(2) -0.11410(7)
O2_2 O 0.05268(6) 1.2581(2) 0.11410(7)
O2D_2 O -0.05268(6) 0.7419(2) -0.11410(7)
O3D O 0.08370(5) 0.7811(3) 0.03010(8)
H1D H 0.0754 0.6374 -0.0019
H2D H 0.1205 0.8324 0.0509
O4D O -0.06685(7) 0.7570(3) -0.34809(10)
O5D O -0.16513(8) 0.7163(3) -0.44686(10)
O6D O -0.27619(7) 1.6292(4) -0.33099(11)
O7D O -0.31088(7) 1.2915(4) -0.42603(12)
N1D N -0.12094(8) 0.8239(3) -0.38001(10)
N2D N -0.26825(7) 1.4232(4) -0.36355(11)
C1D C -0.04320(7) 1.4933(3) -0.12866(10)
C2D C -0.09570(7) 1.3652(3) -0.21452(10)
C3D C -0.08389(8) 1.1544(3) -0.25626(10)
H3D H -0.0426 1.0876 -0.2315
C4D C -0.13356(8) 1.0434(3) -0.33480(11)
C5D C -0.19460(8) 1.1227(4) -0.37168(11)
H4D H -0.2282 1.0392 -0.4246
C6D C -0.20414(8) 1.3302(4) -0.32732(11)
C7D C -0.15618(8) 1.4571(3) -0.25026(11)
H5D H -0.1646 1.6036 -0.2226
loop_
_geom_bond_atom_site_label_1
_geom_bond_atom_site_label_2
_geom_bond_site_symmetry_1
_geom_bond_site_symmetry_2
Mn1 O1 1_555 1_555
O1 C1 1_555 1_555
O2 C1 1_555 1_555
O3 Mn1 1_555 1_555
H1 O3 1_555 1_555
H2 O3 1_555 1_555
O4 N1 1_555 1_555
O5 N1 1_555 1_555
O6 N2 1_555 1_555
O7 N2 1_555 1_555
N1 C4 1_555 1_555
N2 C6 1_555 1_555
C1 C2 1_555 1_555
C2 C3 1_555 1_555
C3 H3 1_555 1_555
C4 C3 1_555 1_555
C5 C4 1_555 1_555
H4 C5 1_555 1_555
C6 C5 1_555 1_555
C7 C2 1_555 1_555
H5 C7 1_555 1_555
Mn1_2 O2 1_555 1_555
Mn1_3 O2D 1_555 1_555
O1D Mn1 1_555 1_555
O2D C1D 1_555 1_555
O2_2 Mn1 1_555 1_555
O2D_2 Mn1 1_555 1_555
O3D Mn1 1_555 1_555
H1D O3D 1_555 1_555
H2D O3D 1_555 1_555
O4D N1D 1_555 1_555
O5D N1D 1_555 1_555
O6D N2D 1_555 1_555
O7D N2D 1_555 1_555
N1D C4D 1_555 1_555
N2D C6D 1_555 1_555
C1D O1D 1_555 1_555
C2D C1D 1_555 1_555
C3D C2D 1_555 1_555
H3D C3D 1_555 1_555
C4D C3D 1_555 1_555
C5D C4D 1_555 1_555
H4D C5D 1_555 1_555
C6D C5D 1_555 1_555
C7D C2D 1_555 1_555
H5D C7D 1_555 1_555
C6 C7 1_555 1_555
C6D C7D 1_555 1_555

#END
