
#######################################################################
#
#                 Cambridge Crystallographic Data Centre
#                                CCDC 
#
#######################################################################
#
# If this CIF has been generated from an entry in the Cambridge 
# Structural Database, then it will include bibliographic, chemical, 
# crystal, experimental, refinement or atomic coordinate data resulting 
# from the CCDC's data processing and validation procedures.
#
#######################################################################

data_OCEHOU
_symmetry_cell_setting           tetragonal
_symmetry_space_group_name_H-M   'P 43'
_symmetry_Int_Tables_number      78
_space_group_name_Hall           'P 4cw'
loop_
_symmetry_equiv_pos_site_id
_symmetry_equiv_pos_as_xyz
1 x,y,z
2 -x,-y,1/2+z
3 -y,x,3/4+z
4 y,-x,1/4+z
_cell_length_a                   8.2912(7)
_cell_length_b                   8.2912(7)
_cell_length_c                   15.5200(15)
_cell_angle_alpha                90
_cell_angle_beta                 90
_cell_angle_gamma                90
_cell_volume                     1066.91
loop_
_atom_site_label
_atom_site_type_symbol
_atom_site_fract_x
_atom_site_fract_y
_atom_site_fract_z
Cu1 Cu 0.57261(7) 0.80171(7) 0.74214(5)
O1 O 0.6712(4) 0.5801(3) 0.7599(2)
O2 O 0.7730(5) 0.4339(4) 0.8671(3)
C1 C 0.7096(5) 0.5611(5) 0.8369(3)
O3 O 0.7252(4) 0.6858(4) 0.9769(2)
C2 C 0.6834(5) 0.7014(5) 0.9007(3)
N1 N 0.6193(6) 0.8238(4) 0.8615(3)
C3 C 0.5867(7) 0.9789(6) 0.9017(3)
H1 H 0.6868 1.0312 0.9179
H2 H 0.5214 0.9646 0.9530
C4 C 0.4985(8) 1.0781(7) 0.8369(4)
H3 H 0.3842 1.0541 0.8406
H4 H 0.5129 1.1913 0.8506
N2 N 0.5541(5) 1.0487(5) 0.7471(3)
C5 C 0.4316(11) 1.1093(8) 0.6840(4)
H5 H 0.3323 1.0497 0.6928
H6 H 0.4696 1.0848 0.6264
C6 C 0.3934(13) 1.2871(8) 0.6882(6)
H7 H 0.3152 1.3134 0.6448
H8 H 0.4900 1.3482 0.6785
H9 H 0.3505 1.3128 0.7440
C7 C 0.7173(9) 1.1203(7) 0.7360(5)
H10 H 0.7061 1.2368 0.7348
H11 H 0.7815 1.0932 0.7861
C8 C 0.8060(13) 1.0709(10) 0.6594(7)
H12 H 0.9111 1.1196 0.6599
H13 H 0.7486 1.1049 0.6088
H14 H 0.8169 0.9556 0.6589
O2B O 0.5661(4) 0.7730(5) 0.6171(3)
O3B O 0.3142(4) 0.7252(4) 0.7269(2)
Cu1C Cu 0.80171(7) 0.42739(7) 0.99214(5)
loop_
_geom_bond_atom_site_label_1
_geom_bond_atom_site_label_2
_geom_bond_site_symmetry_1
_geom_bond_site_symmetry_2
Cu1 O1 1_555 1_555
O1 C1 1_555 1_555
O2 C1 1_555 1_555
C1 C2 1_555 1_555
O3 C2 1_555 1_555
C2 N1 1_555 1_555
N1 Cu1 1_555 1_555
C3 N1 1_555 1_555
H1 C3 1_555 1_555
H2 C3 1_555 1_555
C4 C3 1_555 1_555
H3 C4 1_555 1_555
H4 C4 1_555 1_555
N2 Cu1 1_555 1_555
C5 N2 1_555 1_555
H5 C5 1_555 1_555
H6 C5 1_555 1_555
C6 C5 1_555 1_555
H7 C6 1_555 1_555
H8 C6 1_555 1_555
H9 C6 1_555 1_555
C7 N2 1_555 1_555
H10 C7 1_555 1_555
H11 C7 1_555 1_555
C8 C7 1_555 1_555
H12 C8 1_555 1_555
H13 C8 1_555 1_555
H14 C8 1_555 1_555
O2B Cu1 1_555 1_555
O3B Cu1 1_555 1_555
Cu1C O2 1_555 1_555
O3 Cu1C 1_555 1_555
C4 N2 1_555 1_555

#END
