
#######################################################################
#
#                 Cambridge Crystallographic Data Centre
#                                CCDC 
#
#######################################################################
#
# If this CIF has been generated from an entry in the Cambridge 
# Structural Database, then it will include bibliographic, chemical, 
# crystal, experimental, refinement or atomic coordinate data resulting 
# from the CCDC's data processing and validation procedures.
#
#######################################################################

data_OCEPAO01
_symmetry_cell_setting           monoclinic
_symmetry_space_group_name_H-M   'P 21/c'
_symmetry_Int_Tables_number      14
_space_group_name_Hall           '-P 2ybc'
loop_
_symmetry_equiv_pos_site_id
_symmetry_equiv_pos_as_xyz
1 x,y,z
2 -x,1/2+y,1/2-z
3 -x,-y,-z
4 x,1/2-y,1/2+z
_cell_length_a                   10.860(2)
_cell_length_b                   11.329(2)
_cell_length_c                   22.092(4)
_cell_angle_alpha                90
_cell_angle_beta                 94.18(3)
_cell_angle_gamma                90
_cell_volume                     2710.81
loop_
_atom_site_label
_atom_site_type_symbol
_atom_site_fract_x
_atom_site_fract_y
_atom_site_fract_z
C1 C -0.2220(5) 0.5002(5) -0.1359(3)
H1 H -0.1850 0.4634 -0.1675
C2 C -0.3485(4) 0.5020(5) -0.1366(3)
H2 H -0.3952 0.4667 -0.1686
C3 C -0.4081(4) 0.5560(4) -0.0901(2)
C4 C -0.3347(5) 0.6080(5) -0.0444(2)
H3 H -0.3706 0.6466 -0.0130
C5 C -0.2077(5) 0.6031(5) -0.0448(3)
H4 H -0.1600 0.6371 -0.0127
C6 C -0.7404(5) 0.4618(5) -0.1128(3)
H5 H -0.7851 0.3957 -0.1264
C7 C -0.6122(5) 0.4601(5) -0.1141(3)
H6 H -0.5728 0.3959 -0.1305
C8 C -0.5440(4) 0.5560(5) -0.0907(2)
C9 C -0.6093(5) 0.6497(5) -0.0671(3)
H7 H -0.5672 0.7141 -0.0496
C10 C -0.7346(5) 0.6462(6) -0.0699(3)
H8 H -0.7764 0.7106 -0.0553
C11 C -0.7127(4) 0.1983(6) 0.1868(2)
H9 H -0.7590 0.1586 0.1561
C12 C -0.5857(5) 0.1978(5) 0.1865(3)
H10 H -0.5477 0.1578 0.1562
C13 C -0.5146(4) 0.2576(5) 0.2320(2)
C14 C -0.5762(4) 0.3151(6) 0.2760(2)
H11 H -0.5321 0.3563 0.3069
C15 C -0.7030(4) 0.3110(6) 0.2739(2)
H12 H -0.7430 0.3491 0.3042
C16 C -0.1830(5) 0.3562(5) 0.2472(2)
H13 H -0.1381 0.4228 0.2599
C17 C -0.3093(4) 0.3586(5) 0.2492(2)
H14 H -0.3487 0.4257 0.2626
C18 C -0.3769(4) 0.2591(5) 0.2310(2)
C19 C -0.3138(5) 0.1631(5) 0.2111(3)
H15 H -0.3565 0.0954 0.1983
C20 C -0.1873(5) 0.1675(6) 0.2100(3)
H16 H -0.1458 0.1020 0.1963
Cu1 Cu 0.05333(5) 0.26097(8) 0.22618(4)
Cu2 Cu 0.02346(6) 0.54991(8) -0.09148(4)
Mo1 Mo 0.02825(3) 0.12295(4) 0.049000(18)
Mo2 Mo 0.02054(3) 0.18459(4) -0.107090(18)
Mo3 Mo -0.29950(4) 0.12659(4) -0.077550(19)
Mo4 Mo 0.27951(3) 0.06845(4) -0.042890(18)
N1 N -0.7718(4) 0.2542(5) 0.2299(2)
N2 N -0.1219(4) 0.2633(5) 0.22805(19)
N3 N -0.8014(4) 0.5541(5) -0.0927(2)
N4 N -0.1492(4) 0.5503(4) -0.0904(2)
O1 O -0.0052(4) 0.3267(4) -0.1290(2)
O2 O 0.0567(3) 0.1150(4) -0.17203(16)
O3 O -0.1483(3) 0.1240(4) -0.11070(17)
O4 O -0.3991(3) 0.0395(4) -0.12042(17)
O5 O 0.2915(3) -0.0868(3) -0.00317(15)
O6 O 0.1896(3) 0.1019(3) 0.04539(15)
O7 O 0.0119(3) 0.1975(4) 0.11468(17)
O8 O -0.0305(3) 0.2175(3) -0.01000(16)
O9 O -0.0611(3) -0.0137(3) 0.05307(15)
O10 O 0.1830(3) 0.2044(3) -0.06905(15)
O11 O 0.3046(4) 0.0169(4) -0.11225(17)
O12 O 0.4130(3) 0.1342(4) -0.01737(18)
O13 O -0.3576(4) 0.2659(4) -0.0825(2)
Cu1_2 Cu -0.94667(5) 0.26097(8) 0.22618(4)
Cu1C Cu 0.05333(5) 0.23903(8) -0.27382(4)
Cu2_2 Cu -0.97654(6) 0.54991(8) -0.09148(4)
Mo2B Mo -0.02054(3) -0.18459(4) 0.107090(18)
Mo3B Mo 0.29950(4) -0.12659(4) 0.077550(19)
Mo4B Mo -0.27951(3) -0.06845(4) 0.042890(18)
N1_2 N 0.2282(4) 0.2542(5) 0.2299(2)
N3_2 N 0.1986(4) 0.5541(5) -0.0927(2)
O2C O 0.0567(3) 0.3850(4) 0.32797(16)
O5B O -0.2915(3) 0.0868(3) 0.00317(15)
O9B O 0.0611(3) 0.0137(3) -0.05307(15)
loop_
_geom_bond_atom_site_label_1
_geom_bond_atom_site_label_2
_geom_bond_site_symmetry_1
_geom_bond_site_symmetry_2
C1 H1 1_555 1_555
C2 C1 1_555 1_555
H2 C2 1_555 1_555
C3 C2 1_555 1_555
C4 C3 1_555 1_555
H3 C4 1_555 1_555
C5 C4 1_555 1_555
H4 C5 1_555 1_555
C6 H5 1_555 1_555
C7 C6 1_555 1_555
H6 C7 1_555 1_555
C8 C3 1_555 1_555
C9 C8 1_555 1_555
H7 C9 1_555 1_555
C10 C9 1_555 1_555
H8 C10 1_555 1_555
C11 H9 1_555 1_555
C12 C11 1_555 1_555
H10 C12 1_555 1_555
C13 C12 1_555 1_555
C14 C13 1_555 1_555
H11 C14 1_555 1_555
C15 C14 1_555 1_555
H12 C15 1_555 1_555
C16 H13 1_555 1_555
C17 C16 1_555 1_555
H14 C17 1_555 1_555
C18 C13 1_555 1_555
C19 C18 1_555 1_555
H15 C19 1_555 1_555
C20 C19 1_555 1_555
H16 C20 1_555 1_555
Cu1 N2 1_555 1_555
Cu2 N4 1_555 1_555
Mo1 O6 1_555 1_555
Mo2 O1 1_555 1_555
Mo3 O3 1_555 1_555
Mo4 O5 1_555 1_555
N1 C11 1_555 1_555
N2 C16 1_555 1_555
N3 C6 1_555 1_555
N4 C1 1_555 1_555
O1 Cu2 1_555 1_555
O2 Mo2 1_555 1_555
O3 Mo2 1_555 1_555
O4 Mo3 1_555 1_555
O5 Mo3B 1_555 1_555
O6 Mo4 1_555 1_555
O7 Cu1 1_555 1_555
O8 Mo1 1_555 1_555
O9 Mo1 1_555 1_555
O10 Mo2 1_555 1_555
O11 Mo4 1_555 1_555
O12 Mo4 1_555 1_555
O13 Mo3 1_555 1_555
Cu1_2 N1 1_555 1_555
Cu1C O2 1_555 1_555
Cu2_2 N3 1_555 1_555
Mo2B O9 1_555 1_555
Mo4B O9 1_555 1_555
N1_2 Cu1 1_555 1_555
N3_2 Cu2 1_555 1_555
O2C Cu1 1_555 1_555
O5B Mo3 1_555 1_555
O9B Mo2 1_555 1_555
C5 N4 1_555 1_555
C7 C8 1_555 1_555
C10 N3 1_555 1_555
C15 N1 1_555 1_555
C17 C18 1_555 1_555
C20 N2 1_555 1_555
Mo1 O7 1_555 1_555
Mo2 O8 1_555 1_555
Mo4 O10 1_555 1_555
Mo4 O9B 1_555 1_555
Mo4B O5B 1_555 1_555

#END
