
#######################################################################
#
#                 Cambridge Crystallographic Data Centre
#                                CCDC 
#
#######################################################################
#
# If this CIF has been generated from an entry in the Cambridge 
# Structural Database, then it will include bibliographic, chemical, 
# crystal, experimental, refinement or atomic coordinate data resulting 
# from the CCDC's data processing and validation procedures.
#
#######################################################################

data_OCEPAO
_symmetry_cell_setting           monoclinic
_symmetry_space_group_name_H-M   'P 21/c'
_symmetry_Int_Tables_number      14
_space_group_name_Hall           '-P 2ybc'
loop_
_symmetry_equiv_pos_site_id
_symmetry_equiv_pos_as_xyz
1 x,y,z
2 -x,1/2+y,1/2-z
3 -x,-y,-z
4 x,1/2-y,1/2+z
_cell_length_a                   10.8126(3)
_cell_length_b                   11.2959(4)
_cell_length_c                   22.0229(8)
_cell_angle_alpha                90
_cell_angle_beta                 94.110(1)
_cell_angle_gamma                90
_cell_volume                     2682.92
loop_
_atom_site_label
_atom_site_type_symbol
_atom_site_fract_x
_atom_site_fract_y
_atom_site_fract_z
Mo1 Mo -0.02832(10) -0.12284(11) 0.45104(5)
Mo2 Mo -0.02109(10) -0.18431(11) 0.60703(5)
Mo3 Mo 0.29946(10) -0.12620(12) 0.57765(5)
Mo4 Mo 0.27970(10) 0.06814(11) 0.45719(5)
O1 O 0.0294(8) -0.2173(8) 0.5098(4)
O2 O -0.0121(10) -0.1970(10) 0.3843(4)
O3 O 0.0631(8) 0.0128(8) 0.4472(4)
O4 O 0.0048(9) -0.3282(9) 0.6286(5)
O5 O -0.0568(8) -0.1154(9) 0.6725(4)
O6 O 0.1486(8) -0.1251(10) 0.6102(4)
O7 O 0.3560(11) -0.2660(9) 0.5838(5)
O8 O 0.3977(9) -0.0390(10) 0.6204(5)
O9 O 0.2918(8) -0.0867(8) 0.4967(4)
O10 O 0.4140(8) 0.1356(9) 0.4823(5)
O11 O 0.3067(9) 0.0165(9) 0.3873(4)
O12 O -0.1835(8) -0.2033(8) 0.5686(4)
O13 O -0.1894(8) -0.1013(8) 0.4549(4)
O3B O -0.0631(8) -0.0128(8) 0.5528(4)
Mo1B Mo 0.02832(10) 0.12284(11) 0.54896(5)
O1B O -0.0294(8) 0.2173(8) 0.4902(4)
Mo2B Mo 0.02109(10) 0.18431(11) 0.39297(5)
Mo4B Mo -0.27970(10) -0.06814(11) 0.54281(5)
O9B O -0.2918(8) 0.0867(8) 0.5033(4)
Mo3B Mo -0.29946(10) 0.12620(12) 0.42235(5)
O6B O -0.1486(8) 0.1251(10) 0.3898(4)
O4B O -0.0048(9) 0.3282(9) 0.3714(5)
O5B O 0.0568(8) 0.1154(9) 0.3275(4)
O12B O 0.1835(8) 0.2033(8) 0.4314(4)
O10B O -0.4140(8) -0.1356(9) 0.5177(5)
O11B O -0.3067(9) -0.0165(9) 0.6127(4)
O13B O 0.1894(8) 0.1013(8) 0.5451(4)
O2B O 0.0121(10) 0.1970(10) 0.6157(4)
O7B O -0.3560(11) 0.2660(9) 0.4162(5)
O8B O -0.3977(9) 0.0390(10) 0.3796(5)
Cu1 Cu 0.02394(16) -0.0502(2) -0.09156(10)
N1 N 0.1979(10) -0.0544(11) -0.0927(5)
N2 N 0.8498(10) -0.0515(10) -0.0898(6)
C1 C 0.2641(14) -0.1435(14) -0.0686(7)
H1 H 0.2227 -0.2060 -0.0515
C2 C 0.3920(13) -0.1479(14) -0.0678(7)
H2 H 0.4345 -0.2132 -0.0512
C3 C 0.4562(11) -0.0560(12) -0.0913(6)
C4 C 0.3870(12) 0.0403(12) -0.1137(7)
H3 H 0.4260 0.1065 -0.1286
C5 C 0.2593(13) 0.0360(13) -0.1134(7)
H4 H 0.2140 0.1007 -0.1288
C6 C 0.5923(12) -0.0540(12) -0.0907(6)
C7 C 0.6661(12) -0.1087(13) -0.0440(6)
H5 H 0.6306 -0.1480 -0.0125
C8 C 0.7918(13) -0.1025(12) -0.0462(6)
H6 H 0.8403 -0.1370 -0.0144
C9 C 0.7790(12) 0.0011(13) -0.1355(6)
H7 H 0.8173 0.0391 -0.1666
C10 C 0.6516(12) -0.0008(13) -0.1368(6)
H8 H 0.6050 0.0342 -0.1691
N2_2 N -0.1502(10) -0.0515(10) -0.0898(6)
Cu1_2 Cu 1.02394(16) -0.0502(2) -0.09156(10)
Cu2 Cu -0.05427(16) -0.2610(2) 0.27367(10)
N3 N 0.1217(10) -0.2641(12) 0.2716(5)
N4 N 0.7706(10) -0.2574(11) 0.2703(5)
C11 C 0.1833(12) -0.3576(14) 0.2530(6)
H9 H 0.1385 -0.4250 0.2410
C12 C 0.3105(12) -0.3596(13) 0.2505(6)
H10 H 0.3506 -0.4265 0.2370
C13 C 0.3769(12) -0.2593(13) 0.2687(6)
C14 C 0.3154(12) -0.1653(15) 0.2888(7)
H11 H 0.3591 -0.0978 0.3014
C15 C 0.1881(14) -0.1680(13) 0.2908(6)
H12 H 0.1474 -0.1026 0.3055
C16 C 0.5134(11) -0.2588(12) 0.2682(6)
C17 C 0.5748(11) -0.3158(14) 0.2243(6)
H13 H 0.5305 -0.3571 0.1933
C18 C 0.6986(13) -0.3118(15) 0.2262(7)
H14 H 0.7377 -0.3491 0.1951
C19 C 0.7111(14) -0.1990(16) 0.3125(7)
H15 H 0.7576 -0.1582 0.3428
C20 C 0.5838(12) -0.1969(13) 0.3126(6)
H16 H 0.5455 -0.1545 0.3423
N4_2 N -0.2294(10) -0.2574(11) 0.2703(5)
Cu2_2 Cu 0.94573(16) -0.2610(2) 0.27367(10)
loop_
_geom_bond_atom_site_label_1
_geom_bond_atom_site_label_2
_geom_bond_site_symmetry_1
_geom_bond_site_symmetry_2
Mo1 O1 1_555 1_555
Mo2 O1 1_555 1_555
Mo3 O6 1_555 1_555
Mo4 O3 1_555 1_555
Cu1 N1 1_555 1_555
Cu2 N3 1_555 1_555
O2 Mo1 1_555 1_555
O3 Mo1 1_555 1_555
O4 Mo2 1_555 1_555
O5 Mo2 1_555 1_555
O6 Mo2 1_555 1_555
O7 Mo3 1_555 1_555
O8 Mo3 1_555 1_555
O9 Mo3 1_555 1_555
O10 Mo4 1_555 1_555
O11 Mo4 1_555 1_555
O12 Mo2 1_555 1_555
O13 Mo1 1_555 1_555
N1 C1 1_555 1_555
N2 C8 1_555 1_555
N3 C11 1_555 1_555
N4 C18 1_555 1_555
C1 H1 1_555 1_555
C2 C1 1_555 1_555
H2 C2 1_555 1_555
C3 C2 1_555 1_555
C4 C3 1_555 1_555
H3 C4 1_555 1_555
C5 N1 1_555 1_555
H4 C5 1_555 1_555
C6 C3 1_555 1_555
C7 C6 1_555 1_555
H5 C7 1_555 1_555
C8 C7 1_555 1_555
H6 C8 1_555 1_555
C9 N2 1_555 1_555
H7 C9 1_555 1_555
C10 C6 1_555 1_555
H8 C10 1_555 1_555
C11 H9 1_555 1_555
C12 C11 1_555 1_555
H10 C12 1_555 1_555
C13 C12 1_555 1_555
C14 C13 1_555 1_555
H11 C14 1_555 1_555
C15 N3 1_555 1_555
H12 C15 1_555 1_555
C16 C13 1_555 1_555
C17 C16 1_555 1_555
H13 C17 1_555 1_555
C18 C17 1_555 1_555
H14 C18 1_555 1_555
C19 N4 1_555 1_555
H15 C19 1_555 1_555
C20 C16 1_555 1_555
H16 C20 1_555 1_555
O3B Mo2 1_555 1_555
Mo1B O3B 1_555 1_555
O1B Mo1B 1_555 1_555
Mo2B O3 1_555 1_555
Mo4B O12 1_555 1_555
O9B Mo4B 1_555 1_555
Mo3B O9B 1_555 1_555
O6B Mo2B 1_555 1_555
O4B Mo2B 1_555 1_555
O5B Mo2B 1_555 1_555
O12B Mo4 1_555 1_555
O10B Mo4B 1_555 1_555
O11B Mo4B 1_555 1_555
O13B Mo4 1_555 1_555
O2B Mo1B 1_555 1_555
O7B Mo3B 1_555 1_555
O8B Mo3B 1_555 1_555
N2_2 Cu1 1_555 1_555
Cu1_2 N2 1_555 1_555
N4_2 Cu2 1_555 1_555
Cu2_2 N4 1_555 1_555
Mo4 O9 1_555 1_555
O13 Mo4B 1_555 1_555
C4 C5 1_555 1_555
C9 C10 1_555 1_555
C14 C15 1_555 1_555
C19 C20 1_555 1_555
O3B Mo4B 1_555 1_555
Mo1B O13B 1_555 1_555
O1B Mo2B 1_555 1_555
Mo2B O12B 1_555 1_555
Mo3B O6B 1_555 1_555

#END
