
#######################################################################
#
#                 Cambridge Crystallographic Data Centre
#                                CCDC 
#
#######################################################################
#
# If this CIF has been generated from an entry in the Cambridge 
# Structural Database, then it will include bibliographic, chemical, 
# crystal, experimental, refinement or atomic coordinate data resulting 
# from the CCDC's data processing and validation procedures.
#
#######################################################################

data_OCEQOD
_symmetry_cell_setting           triclinic
_symmetry_space_group_name_H-M   'P -1'
_symmetry_Int_Tables_number      2
_space_group_name_Hall           '-P 1'
loop_
_symmetry_equiv_pos_site_id
_symmetry_equiv_pos_as_xyz
1 x,y,z
2 -x,-y,-z
_cell_length_a                   4.8929(4)
_cell_length_b                   10.9883(10)
_cell_length_c                   14.7846(13)
_cell_angle_alpha                99.185(2)
_cell_angle_beta                 95.0680(10)
_cell_angle_gamma                101.354(2)
_cell_volume                     763.427
loop_
_atom_site_label
_atom_site_type_symbol
_atom_site_fract_x
_atom_site_fract_y
_atom_site_fract_z
Pb1 Pb 0.38942(4) 0.672628(18) 0.549888(13)
F1 F 0.7041(9) 0.9000(4) 0.9994(3)
F2 F 0.4195(11) 0.8963(5) 0.1743(3)
O1 O 0.2473(9) 0.6666(4) 0.7038(3)
O2 O -0.1053(9) 0.7107(5) 0.6214(3)
O3 O -0.1293(11) 0.5088(5) 0.8496(4)
O4 O 0.6866(10) 0.6621(5) 1.0397(3)
O5 O 0.0448(9) 0.6102(5) 0.3985(3)
O6 O -0.3953(10) 0.5316(4) 0.4203(3)
O7 O -0.2277(11) 0.8580(5) 0.4451(3)
O8 O 0.5126(11) 1.0778(5) 0.3314(4)
N1 N 0.0628(11) 0.7187(5) 0.8655(3)
N2 N 0.2697(11) 0.5905(5) 0.9472(4)
H1 H 0.2598 0.5177 0.9627
N3 N -0.1303(11) 0.7776(5) 0.3037(3)
N4 N 0.1310(12) 0.9688(5) 0.3845(4)
H2 H 0.1540 1.0282 0.4318
C1 C 0.0187(12) 0.6994(5) 0.6961(4)
C2 C -0.1181(13) 0.7289(7) 0.7842(4)
H3 H -0.1524 0.8137 0.7906
H4 H -0.2975 0.6705 0.7797
C3 C 0.0553(14) 0.6001(6) 0.8843(4)
C4 C 0.4982(13) 0.6827(6) 0.9886(4)
C5 C 0.4882(14) 0.8024(6) 0.9631(4)
C6 C 0.2837(14) 0.8165(6) 0.9026(4)
H5 H 0.2912 0.8946 0.8851
C7 C -0.2108(12) 0.5950(6) 0.3812(4)
C8 C -0.3270(13) 0.6598(6) 0.3074(4)
H6 H -0.3566 0.6042 0.2478
H7 H -0.5066 0.6778 0.3214
C9 C -0.0850(14) 0.8686(6) 0.3813(4)
C10 C 0.3177(14) 0.9864(6) 0.3206(5)
C11 C 0.2513(16) 0.8863(7) 0.2415(5)
C12 C 0.0402(15) 0.7875(6) 0.2349(4)
H8 H 0.0071 0.7240 0.1830
Pb1_2 Pb -0.61058(4) 0.672628(18) 0.549888(13)
Pb1A Pb -0.38942(4) 0.327372(18) 0.450112(13)
Pb1A_2 Pb 0.61058(4) 1.327372(18) 0.450112(13)
O2_2 O 0.8947(9) 0.7107(5) 0.6214(3)
O6_2 O 0.6047(10) 0.5316(4) 0.4203(3)
O6A O 0.3953(10) 0.4684(4) 0.5797(3)
O8A O 0.4874(11) 0.9222(5) 0.6686(4)
loop_
_geom_bond_atom_site_label_1
_geom_bond_atom_site_label_2
_geom_bond_site_symmetry_1
_geom_bond_site_symmetry_2
Pb1 O1 1_555 1_555
F1 C5 1_555 1_555
F2 C11 1_555 1_555
O1 C1 1_555 1_555
O2 Pb1 1_555 1_555
O3 C3 1_555 1_555
O4 C4 1_555 1_555
O5 Pb1 1_555 1_555
O6 C7 1_555 1_555
O7 C9 1_555 1_555
O8 C10 1_555 1_555
N1 C2 1_555 1_555
N2 H1 1_555 1_555
N3 C8 1_555 1_555
N4 H2 1_555 1_555
C1 O2 1_555 1_555
C2 C1 1_555 1_555
H3 C2 1_555 1_555
H4 C2 1_555 1_555
C3 N1 1_555 1_555
C4 N2 1_555 1_555
C5 C4 1_555 1_555
C6 N1 1_555 1_555
H5 C6 1_555 1_555
C7 O5 1_555 1_555
C8 C7 1_555 1_555
H6 C8 1_555 1_555
H7 C8 1_555 1_555
C9 N3 1_555 1_555
C10 N4 1_555 1_555
C11 C10 1_555 1_555
C12 N3 1_555 1_555
H8 C12 1_555 1_555
Pb1_2 O2 1_555 1_555
Pb1A O6 1_555 1_555
Pb1A_2 O8 1_555 1_555
O2_2 Pb1 1_555 1_555
O6_2 Pb1 1_555 1_555
O6A Pb1 1_555 1_555
O8A Pb1 1_555 1_555
O6 Pb1_2 1_555 1_555
N2 C3 1_555 1_555
N4 C9 1_555 1_555
C5 C6 1_555 1_555
C11 C12 1_555 1_555

#END
