
#######################################################################
#
#                 Cambridge Crystallographic Data Centre
#                                CCDC 
#
#######################################################################
#
# If this CIF has been generated from an entry in the Cambridge 
# Structural Database, then it will include bibliographic, chemical, 
# crystal, experimental, refinement or atomic coordinate data resulting 
# from the CCDC's data processing and validation procedures.
#
#######################################################################

data_OCEQIX
_symmetry_cell_setting           orthorhombic
_symmetry_space_group_name_H-M   'F d d 2'
_symmetry_Int_Tables_number      43
_space_group_name_Hall           'F 2 -2d'
loop_
_symmetry_equiv_pos_site_id
_symmetry_equiv_pos_as_xyz
1 x,y,z
2 -x,-y,z
3 1/4+x,1/4-y,1/4+z
4 1/4-x,1/4+y,1/4+z
5 x,1/2+y,1/2+z
6 -x,1/2-y,1/2+z
7 1/4+x,3/4-y,3/4+z
8 1/4-x,3/4+y,3/4+z
9 1/2+x,y,1/2+z
10 1/2-x,-y,1/2+z
11 3/4+x,1/4-y,3/4+z
12 3/4-x,1/4+y,3/4+z
13 1/2+x,1/2+y,z
14 1/2-x,1/2-y,z
15 3/4+x,3/4-y,1/4+z
16 3/4-x,3/4+y,1/4+z
_cell_length_a                   13.373(3)
_cell_length_b                   18.373(4)
_cell_length_c                   10.515(2)
_cell_angle_alpha                90
_cell_angle_beta                 90
_cell_angle_gamma                90
_cell_volume                     2583.56
loop_
_atom_site_label
_atom_site_type_symbol
_atom_site_fract_x
_atom_site_fract_y
_atom_site_fract_z
Co1 Co 1.01848(3) 0.14514(2) 0.80332(3)
N1 N 1.07512(19) 0.24369(13) 0.8357(3)
N2 N 1.16048(19) 0.33425(14) 0.9249(3)
O1 O 0.88473(16) 0.15654(12) 0.7231(2)
O2 O 0.72304(16) 0.16281(14) 0.7057(2)
C1 C 0.8024(2) 0.17930(16) 0.7641(3)
C2 C 0.7959(2) 0.2257(2) 0.8821(3)
H1 H 0.8553 0.2558 0.8881
H2 H 0.7941 0.1944 0.9563
C3 C 1.1158(2) 0.27058(17) 0.9407(3)
H3 H 1.1131 0.2468 1.0187
C4 C 1.1494(3) 0.34854(19) 0.7989(5)
H4 H 1.1742 0.3893 0.7570
C5 C 1.0968(4) 0.2944(2) 0.7440(4)
H5 H 1.0784 0.2919 0.6588
Co1G Co 1.23152(3) -0.10486(2) 0.55332(3)
Co1C Co 1.23152(3) 0.39514(2) 1.05332(3)
Co1J Co 0.76848(3) 0.10486(2) 0.55332(3)
Co1M Co 0.48152(3) 0.35486(2) 0.80332(3)
Co1K Co 0.73152(3) 0.39514(2) 0.55332(3)
N1G N 1.17488(19) -0.00631(13) 0.5857(3)
N2G N 1.08952(19) 0.08425(14) 0.6749(3)
N2D N 1.16048(19) -0.16575(14) 0.4249(3)
O1M O 0.61527(16) 0.34346(12) 0.7231(2)
O1G O 1.36527(16) -0.09346(12) 0.4731(2)
O2M O 0.77696(16) 0.33719(14) 0.7057(2)
O2B O 0.97304(16) 0.08719(14) 0.9557(2)
O2A O 1.27696(16) -0.16281(14) 0.7057(2)
C1M C 0.6976(2) 0.32070(16) 0.7641(3)
C2M C 0.7041(2) 0.2743(2) 0.8821(3)
H1M H 0.6447 0.2442 0.8881
H2M H 0.7059 0.3056 0.9563
C3G C 1.1342(2) 0.02058(17) 0.6907(3)
H3G H 1.1369 -0.0032 0.7687
C4G C 1.1006(3) 0.09854(19) 0.5489(5)
H4G H 1.0758 0.1393 0.5070
C5G C 1.1532(4) 0.0444(2) 0.4940(4)
H5G H 1.1716 0.0419 0.4088
loop_
_geom_bond_atom_site_label_1
_geom_bond_atom_site_label_2
_geom_bond_site_symmetry_1
_geom_bond_site_symmetry_2
Co1 N1 1_555 1_555
N1 C3 1_555 1_555
N2 C3 1_555 1_555
O1 Co1 1_555 1_555
O2 C1 1_555 1_555
C1 O1 1_555 1_555
C2 C1 1_555 1_555
H1 C2 1_555 1_555
H2 C2 1_555 1_555
C3 H3 1_555 1_555
C4 N2 1_555 1_555
H4 C4 1_555 1_555
C5 N1 1_555 1_555
H5 C5 1_555 1_555
Co1G N1G 1_555 1_555
Co1C N2 1_555 1_555
Co1J O2 1_555 1_555
Co1M O1M 1_555 1_555
Co1K O2M 1_555 1_555
N1G C3G 1_555 1_555
N2G Co1 1_555 1_555
N2D Co1G 1_555 1_555
O1M C1M 1_555 1_555
O1G Co1G 1_555 1_555
O2M C1M 1_555 1_555
O2B Co1 1_555 1_555
O2A Co1G 1_555 1_555
C1M C2M 1_555 1_555
C2M C2 1_555 1_555
H1M C2M 1_555 1_555
H2M C2M 1_555 1_555
C3G N2G 1_555 1_555
H3G C3G 1_555 1_555
C4G N2G 1_555 1_555
H4G C4G 1_555 1_555
C5G N1G 1_555 1_555
H5G C5G 1_555 1_555
C4 C5 1_555 1_555
C4G C5G 1_555 1_555

#END
