
#######################################################################
#
#                 Cambridge Crystallographic Data Centre
#                                CCDC 
#
#######################################################################
#
# If this CIF has been generated from an entry in the Cambridge 
# Structural Database, then it will include bibliographic, chemical, 
# crystal, experimental, refinement or atomic coordinate data resulting 
# from the CCDC's data processing and validation procedures.
#
#######################################################################

data_OCEROE
_symmetry_cell_setting           monoclinic
_symmetry_space_group_name_H-M   'P 21/n'
_symmetry_Int_Tables_number      14
_space_group_name_Hall           '-P 2yn'
loop_
_symmetry_equiv_pos_site_id
_symmetry_equiv_pos_as_xyz
1 x,y,z
2 1/2-x,1/2+y,1/2-z
3 -x,-y,-z
4 1/2+x,1/2-y,1/2+z
_cell_length_a                   9.525(2)
_cell_length_b                   8.729(2)
_cell_length_c                   19.187(4)
_cell_angle_alpha                90
_cell_angle_beta                 100.06(3)
_cell_angle_gamma                90
_cell_volume                     1570.75
loop_
_atom_site_label
_atom_site_type_symbol
_atom_site_fract_x
_atom_site_fract_y
_atom_site_fract_z
Co1 Co 0.50653(3) 0.11897(4) 0.376525(16)
O1 O 0.32808(17) 0.1441(2) 0.41387(9)
O2 O 0.38791(18) 0.3802(2) 0.45124(10)
O3 O -0.32615(17) 0.1821(2) 0.44608(9)
O4 O -0.20476(18) 0.0728(2) 0.37160(9)
O5 O -0.0768(2) 0.4759(2) 0.64593(9)
O6 O 0.1484(2) 0.5173(3) 0.65751(10)
N1 N 0.0369(2) 0.4595(3) 0.62679(10)
N2 N 0.49165(19) -0.1082(2) 0.36295(10)
N3 N 0.4609(2) -0.3484(3) 0.38689(12)
H1 H 0.4363 -0.4380 0.4112
N4 N 0.4883(2) 0.2426(2) 0.28695(10)
N5 N 0.5389(2) 0.3790(2) 0.19884(11)
H2 H 0.5932 0.4276 0.1673
C1 C 0.3080(2) 0.2687(3) 0.44552(12)
C2 C 0.1744(2) 0.2733(3) 0.47749(12)
C3 C 0.1701(2) 0.3598(3) 0.53777(12)
H3 H 0.2529 0.4144 0.5608
C4 C 0.0434(2) 0.3659(3) 0.56345(11)
C5 C -0.0805(2) 0.2968(3) 0.53013(12)
H4 H -0.1676 0.3071 0.5484
C6 C -0.0762(2) 0.2125(3) 0.46908(12)
C7 C 0.0524(2) 0.1985(3) 0.44430(12)
H5 H 0.0564 0.1365 0.4034
C8 C -0.2107(2) 0.1477(3) 0.42591(12)
C9 C 0.4470(2) -0.2049(3) 0.40699(13)
H6 H 0.4097 -0.1749 0.4483
C10 C 0.5163(3) -0.3458(3) 0.32658(16)
H7 H 0.5346 -0.4276 0.3010
C11 C 0.5363(3) -0.1969(3) 0.31198(13)
H8 H 0.5761 -0.1588 0.2727
C12 C 0.5909(3) 0.2910(3) 0.25422(12)
H9 H 0.6898 0.2659 0.2686
C13 C 0.3943(3) 0.3882(3) 0.19558(14)
H10 H 0.3323 0.4401 0.1632
C14 C 0.3637(3) 0.3044(3) 0.24955(14)
H11 H 0.2703 0.2904 0.2609
Co1_2 Co -0.49347(3) 0.11897(4) 0.376525(16)
O3_2 O 0.67385(17) 0.1821(2) 0.44608(9)
loop_
_geom_bond_atom_site_label_1
_geom_bond_atom_site_label_2
_geom_bond_site_symmetry_1
_geom_bond_site_symmetry_2
Co1 O1 1_555 1_555
O1 C1 1_555 1_555
O2 C1 1_555 1_555
O3 C8 1_555 1_555
O4 C8 1_555 1_555
O5 N1 1_555 1_555
O6 N1 1_555 1_555
N1 C4 1_555 1_555
N2 Co1 1_555 1_555
N3 H1 1_555 1_555
N4 Co1 1_555 1_555
N5 H2 1_555 1_555
C1 C2 1_555 1_555
C2 C3 1_555 1_555
C3 H3 1_555 1_555
C4 C3 1_555 1_555
C5 C4 1_555 1_555
H4 C5 1_555 1_555
C6 C5 1_555 1_555
C7 C2 1_555 1_555
H5 C7 1_555 1_555
C8 C6 1_555 1_555
C9 N2 1_555 1_555
H6 C9 1_555 1_555
C10 N3 1_555 1_555
H7 C10 1_555 1_555
C11 N2 1_555 1_555
H8 C11 1_555 1_555
C12 N4 1_555 1_555
H9 C12 1_555 1_555
C13 N5 1_555 1_555
H10 C13 1_555 1_555
C14 N4 1_555 1_555
H11 C14 1_555 1_555
Co1_2 O3 1_555 1_555
O3_2 Co1 1_555 1_555
N3 C9 1_555 1_555
N5 C12 1_555 1_555
C6 C7 1_555 1_555
C10 C11 1_555 1_555
C13 C14 1_555 1_555

#END
