
#######################################################################
#
#                 Cambridge Crystallographic Data Centre
#                                CCDC 
#
#######################################################################
#
# If this CIF has been generated from an entry in the Cambridge 
# Structural Database, then it will include bibliographic, chemical, 
# crystal, experimental, refinement or atomic coordinate data resulting 
# from the CCDC's data processing and validation procedures.
#
#######################################################################

data_OCESOF
_symmetry_cell_setting           triclinic
_symmetry_space_group_name_H-M   'P -1'
_symmetry_Int_Tables_number      2
_space_group_name_Hall           '-P 1'
loop_
_symmetry_equiv_pos_site_id
_symmetry_equiv_pos_as_xyz
1 x,y,z
2 -x,-y,-z
_cell_length_a                   7.5340(18)
_cell_length_b                   10.537(3)
_cell_length_c                   11.233(3)
_cell_angle_alpha                84.977(4)
_cell_angle_beta                 77.515(4)
_cell_angle_gamma                84.379(4)
_cell_volume                     864.442
loop_
_atom_site_label
_atom_site_type_symbol
_atom_site_fract_x
_atom_site_fract_y
_atom_site_fract_z
Cu1 Cu 0.91169(9) -0.22000(6) 0.66408(5)
Cu2 Cu 1.39529(10) -0.21109(7) 0.46843(6)
O1 O 1.1083(5) -0.0794(4) 0.6569(3)
O2 O 1.4100(5) -0.1198(4) 0.6078(4)
O3 O 1.7088(5) 0.0578(4) 0.6108(3)
O4 O 1.7056(5) -0.1107(4) 0.7446(3)
O5 O 1.5927(5) 0.3062(4) 0.6750(3)
O6 O 1.8905(5) 0.3214(4) 0.6502(3)
O7 O 1.7290(5) 0.5833(4) 0.6964(3)
O8 O 1.8869(5) 0.6628(4) 0.8122(4)
O9 O 1.6381(5) 0.1386(4) 0.8938(3)
C1 C 1.2856(8) 0.0190(6) 0.7635(5)
C2 C 1.4603(8) 0.0441(5) 0.7826(5)
C3 C 1.4640(8) 0.1188(5) 0.8780(5)
C4 C 1.3101(7) 0.1682(5) 0.9544(5)
H1 H 1.3173 0.2163 1.0186
C5 C 1.1422(8) 0.1431(6) 0.9318(5)
H2 H 1.0354 0.1764 0.9814
C6 C 1.1307(8) 0.0721(5) 0.8403(5)
H3 H 1.0162 0.0581 0.8280
C7 C 1.2647(8) -0.0653(6) 0.6701(5)
C8 C 1.6346(8) -0.0069(5) 0.7071(5)
C9 C 1.6616(8) 0.2561(6) 0.9313(5)
C10 C 1.7075(8) 0.3542(6) 0.8444(5)
C11 C 1.7519(8) 0.4678(5) 0.8819(5)
C12 C 1.7511(8) 0.4805(6) 1.0059(5)
H4 H 1.7852 0.5549 1.0304
C13 C 1.6988(7) 0.3803(5) 1.0906(5)
H5 H 1.6963 0.3882 1.1727
C14 C 1.6508(8) 0.2697(6) 1.0550(5)
H6 H 1.6113 0.2043 1.1128
C15 C 1.7339(8) 0.3273(5) 0.7140(5)
C16 C 1.7892(8) 0.5798(6) 0.7900(5)
O10 O 0.8762(5) -0.1526(4) 0.4987(3)
H7 H 0.7627 -0.1429 0.4989
H8 H 0.9259 -0.2063 0.4468
O11 O 1.1191(5) -0.3359(4) 0.5823(3)
H9 H 1.1069 -0.4118 0.6133
H10 H 1.1203 -0.3331 0.5063
O12 O 1.5330(5) -0.3606(4) 0.5263(4)
H11 H 1.6354 -0.3344 0.5284
H12 H 1.4898 -0.3876 0.5994
Cu1_2 Cu 1.91169(9) -0.22000(6) 0.66408(5)
Cu1_3 Cu 1.91169(9) 0.78000(6) 0.66408(5)
Cu2A Cu 1.60471(10) 0.21109(7) 0.53157(6)
O3A O 1.2912(5) -0.0578(4) 0.3892(3)
O4_2 O 0.7056(5) -0.1107(4) 0.7446(3)
O5A O 1.4073(5) -0.3062(4) 0.3250(3)
O8_2 O 0.8869(5) -0.3372(4) 0.8122(4)
O13 O 0.1989(6) 0.4199(4) 0.6866(4)
H13 H 0.3067 0.4416 0.6592
H14 H 0.1845 0.3556 0.6499
loop_
_geom_bond_atom_site_label_1
_geom_bond_atom_site_label_2
_geom_bond_site_symmetry_1
_geom_bond_site_symmetry_2
Cu1 O1 1_555 1_555
Cu2 O2 1_555 1_555
O1 C7 1_555 1_555
O2 C7 1_555 1_555
O3 C8 1_555 1_555
O4 C8 1_555 1_555
O5 C15 1_555 1_555
O6 C15 1_555 1_555
O7 C16 1_555 1_555
O8 C16 1_555 1_555
O9 C3 1_555 1_555
C1 C2 1_555 1_555
C2 C3 1_555 1_555
C3 C4 1_555 1_555
C4 H1 1_555 1_555
C5 C4 1_555 1_555
H2 C5 1_555 1_555
C6 C1 1_555 1_555
H3 C6 1_555 1_555
C7 C1 1_555 1_555
C8 C2 1_555 1_555
C9 O9 1_555 1_555
C10 C9 1_555 1_555
C11 C10 1_555 1_555
C12 C11 1_555 1_555
H4 C12 1_555 1_555
C13 C12 1_555 1_555
H5 C13 1_555 1_555
C14 C9 1_555 1_555
H6 C14 1_555 1_555
C15 C10 1_555 1_555
C16 C11 1_555 1_555
O10 Cu1 1_555 1_555
H7 O10 1_555 1_555
H8 O10 1_555 1_555
O11 Cu1 1_555 1_555
H9 O11 1_555 1_555
H10 O11 1_555 1_555
O12 Cu2 1_555 1_555
H11 O12 1_555 1_555
H12 O12 1_555 1_555
O13 H13 1_555 1_555
H14 O13 1_555 1_555
Cu1_2 O4 1_555 1_555
Cu1_3 O8 1_555 1_555
Cu2A O3 1_555 1_555
O3A Cu2 1_555 1_555
O4_2 Cu1 1_555 1_555
O5A Cu2 1_555 1_555
O8_2 Cu1 1_555 1_555
O5 Cu2A 1_555 1_555
C5 C6 1_555 1_555
C13 C14 1_555 1_555

#END
