
#######################################################################
#
#                 Cambridge Crystallographic Data Centre
#                                CCDC 
#
#######################################################################
#
# If this CIF has been generated from an entry in the Cambridge 
# Structural Database, then it will include bibliographic, chemical, 
# crystal, experimental, refinement or atomic coordinate data resulting 
# from the CCDC's data processing and validation procedures.
#
#######################################################################

data_OCETEW
_symmetry_cell_setting           triclinic
_symmetry_space_group_name_H-M   'P -1'
_symmetry_Int_Tables_number      2
_space_group_name_Hall           '-P 1'
loop_
_symmetry_equiv_pos_site_id
_symmetry_equiv_pos_as_xyz
1 x,y,z
2 -x,-y,-z
_cell_length_a                   7.474(3)
_cell_length_b                   8.428(3)
_cell_length_c                   14.072(8)
_cell_angle_alpha                87.91(4)
_cell_angle_beta                 88.28(4)
_cell_angle_gamma                64.57(2)
_cell_volume                     799.89
loop_
_atom_site_label
_atom_site_type_symbol
_atom_site_fract_x
_atom_site_fract_y
_atom_site_fract_z
Ag1 Ag 0.00296(9) 0.51955(9) 0.24379(4)
O1 O -0.0617(12) 0.8284(11) 0.2973(6)
O2 O -0.2445(11) 0.8306(9) 0.1866(5)
O3 O -0.3211(15) 1.0565(10) 0.2706(7)
N1 N 0.4025(9) 0.2391(8) 0.0246(4)
N2 N 0.3204(9) 0.2600(8) 0.1107(4)
N3 N 0.2026(9) 0.4313(9) 0.1202(4)
N4 N -0.1383(8) 0.2380(7) 0.4645(4)
N5 N -0.0768(8) 0.2659(8) 0.3786(4)
N6 N -0.1203(8) 0.4319(8) 0.3688(4)
N7 N -0.2088(10) 0.9102(8) 0.2498(5)
C1 C 0.3397(10) 0.3958(9) -0.0258(5)
C2 C 0.3808(11) 0.4407(11) -0.1169(5)
H3 H 0.4701 0.3569 -0.1593
C3 C 0.2817(11) 0.6168(11) -0.1411(5)
H4 H 0.3039 0.6558 -0.2026
C4 C 0.1473(11) 0.7429(10) -0.0776(6)
H5 H 0.0822 0.8623 -0.0986
C5 C 0.1091(10) 0.6976(10) 0.0122(5)
H6 H 0.0213 0.7824 0.0546
C6 C 0.2080(10) 0.5162(10) 0.0390(5)
C7 C 0.5472(10) 0.0619(9) -0.0030(6)
H7 H 0.6621 0.0198 0.0399
H8 H 0.5959 0.0668 -0.0687
C8 C -0.2240(10) 0.3891(9) 0.5130(5)
C9 C -0.3124(10) 0.4312(11) 0.6037(5)
H9 H -0.3218 0.3453 0.6465
C10 C -0.3848(11) 0.6067(11) 0.6263(5)
H10 H -0.4435 0.6413 0.6874
C11 C -0.3754(11) 0.7356(10) 0.5630(6)
H11 H -0.4297 0.8545 0.5818
C12 C -0.2890(11) 0.6927(9) 0.4743(5)
H12 H -0.2819 0.7799 0.4316
C13 C -0.2121(10) 0.5173(9) 0.4492(5)
C14 C -0.1075(11) 0.0587(10) 0.4941(6)
H13 H -0.1627 0.0104 0.4458
H14 H -0.1789 0.0627 0.5551
Ag1A Ag 0.99704(9) -0.51955(9) -0.24379(4)
Ag1A_2 Ag -0.00296(9) -0.51955(9) 0.75621(4)
O1A O 1.0617(12) -0.8284(11) -0.2973(6)
O2A O 1.2445(11) -0.8306(9) -0.1866(5)
O3A O 1.3211(15) -1.0565(10) -0.2706(7)
N1A N 0.5975(9) -0.2391(8) -0.0246(4)
N2A N 0.6796(9) -0.2600(8) -0.1107(4)
N3A N 0.7974(9) -0.4313(9) -0.1202(4)
N4A N 0.1383(8) -0.2380(7) 0.5355(4)
N5A N 0.0768(8) -0.2659(8) 0.6214(4)
N6A N 0.1203(8) -0.4319(8) 0.6312(4)
N6A_2 N 1.1203(8) -0.4319(8) -0.3688(4)
N7A N 1.2088(10) -0.9102(8) -0.2498(5)
C1A C 0.6603(10) -0.3958(9) 0.0258(5)
C2A C 0.6192(11) -0.4407(11) 0.1169(5)
H3A H 0.5299 -0.3569 0.1593
C3A C 0.7183(11) -0.6168(11) 0.1411(5)
H4A H 0.6961 -0.6558 0.2026
C4A C 0.8527(11) -0.7429(10) 0.0776(6)
H5A H 0.9178 -0.8623 0.0986
C5A C 0.8909(10) -0.6976(10) -0.0122(5)
H6A H 0.9787 -0.7824 -0.0546
C6A C 0.7920(10) -0.5162(10) -0.0390(5)
C7A C 0.4528(10) -0.0619(9) 0.0030(6)
H7A H 0.3379 -0.0198 -0.0399
H8A H 0.4041 -0.0668 0.0687
C8A C 0.2240(10) -0.3891(9) 0.4870(5)
C9A C 0.3124(10) -0.4312(11) 0.3963(5)
H9A H 0.3218 -0.3453 0.3535
C10A C 0.3848(11) -0.6067(11) 0.3737(5)
H10A H 0.4435 -0.6413 0.3126
C11A C 0.3754(11) -0.7356(10) 0.4370(6)
H11A H 0.4297 -0.8545 0.4182
C12A C 0.2890(11) -0.6927(9) 0.5257(5)
H12A H 0.2819 -0.7799 0.5684
C13A C 0.2121(10) -0.5173(9) 0.5508(5)
C14A C 0.1075(11) -0.0587(10) 0.5059(6)
H13A H 0.1627 -0.0104 0.5542
H14A H 0.1789 -0.0627 0.4449
O4 O -0.6981(15) 0.9462(12) 0.2602(7)
H1 H -0.792(10) 1.047(7) 0.277(6)
H2 H -0.617(17) 0.959(14) 0.217(9)
loop_
_geom_bond_atom_site_label_1
_geom_bond_atom_site_label_2
_geom_bond_site_symmetry_1
_geom_bond_site_symmetry_2
Ag1 O1 1_555 1_555
O1 N7 1_555 1_555
O2 Ag1 1_555 1_555
O3 N7 1_555 1_555
O4 H1 1_555 1_555
H2 O4 1_555 1_555
N1 N2 1_555 1_555
N2 N3 1_555 1_555
N3 Ag1 1_555 1_555
N4 N5 1_555 1_555
N5 N6 1_555 1_555
N6 Ag1 1_555 1_555
N7 O2 1_555 1_555
C1 N1 1_555 1_555
C2 C1 1_555 1_555
H3 C2 1_555 1_555
C3 C2 1_555 1_555
H4 C3 1_555 1_555
C4 C3 1_555 1_555
H5 C4 1_555 1_555
C5 C4 1_555 1_555
H6 C5 1_555 1_555
C6 N3 1_555 1_555
C7 N1 1_555 1_555
H7 C7 1_555 1_555
H8 C7 1_555 1_555
C8 N4 1_555 1_555
C9 C8 1_555 1_555
H9 C9 1_555 1_555
C10 C9 1_555 1_555
H10 C10 1_555 1_555
C11 C10 1_555 1_555
H11 C11 1_555 1_555
C12 C11 1_555 1_555
H12 C12 1_555 1_555
C13 N6 1_555 1_555
C14 N4 1_555 1_555
H13 C14 1_555 1_555
H14 C14 1_555 1_555
Ag1A O1A 1_555 1_555
Ag1A_2 N6A 1_555 1_555
O1A N7A 1_555 1_555
O2A Ag1A 1_555 1_555
O3A N7A 1_555 1_555
N1A N2A 1_555 1_555
N2A N3A 1_555 1_555
N3A Ag1A 1_555 1_555
N4A N5A 1_555 1_555
N5A N6A 1_555 1_555
N6A C13A 1_555 1_555
N6A_2 Ag1A 1_555 1_555
N7A O2A 1_555 1_555
C1A N1A 1_555 1_555
C2A C1A 1_555 1_555
H3A C2A 1_555 1_555
C3A C2A 1_555 1_555
H4A C3A 1_555 1_555
C4A C3A 1_555 1_555
H5A C4A 1_555 1_555
C5A C4A 1_555 1_555
H6A C5A 1_555 1_555
C6A N3A 1_555 1_555
C7A C7 1_555 1_555
H7A C7A 1_555 1_555
H8A C7A 1_555 1_555
C8A N4A 1_555 1_555
C9A C8A 1_555 1_555
H9A C9A 1_555 1_555
C10A C9A 1_555 1_555
H10A C10A 1_555 1_555
C11A C10A 1_555 1_555
H11A C11A 1_555 1_555
C12A C11A 1_555 1_555
H12A C12A 1_555 1_555
C13A C8A 1_555 1_555
C14A C14 1_555 1_555
H13A C14A 1_555 1_555
H14A C14A 1_555 1_555
C1 C6 1_555 1_555
C5 C6 1_555 1_555
C8 C13 1_555 1_555
C12 C13 1_555 1_555
N1A C7A 1_555 1_555
N4A C14A 1_555 1_555
C1A C6A 1_555 1_555
C5A C6A 1_555 1_555
C12A C13A 1_555 1_555

#END
