
#######################################################################
#
#                 Cambridge Crystallographic Data Centre
#                                CCDC 
#
#######################################################################
#
# If this CIF has been generated from an entry in the Cambridge 
# Structural Database, then it will include bibliographic, chemical, 
# crystal, experimental, refinement or atomic coordinate data resulting 
# from the CCDC's data processing and validation procedures.
#
#######################################################################

data_OCETOG
_symmetry_cell_setting           monoclinic
_symmetry_space_group_name_H-M   'P 21/n'
_symmetry_Int_Tables_number      14
_space_group_name_Hall           '-P 2yn'
loop_
_symmetry_equiv_pos_site_id
_symmetry_equiv_pos_as_xyz
1 x,y,z
2 1/2-x,1/2+y,1/2-z
3 -x,-y,-z
4 1/2+x,1/2-y,1/2+z
_cell_length_a                   14.574(3)
_cell_length_b                   12.967(4)
_cell_length_c                   14.992(3)
_cell_angle_alpha                90
_cell_angle_beta                 101.836(15)
_cell_angle_gamma                90
_cell_volume                     2772.97
loop_
_atom_site_label
_atom_site_type_symbol
_atom_site_fract_x
_atom_site_fract_y
_atom_site_fract_z
Zn1 Zn 0.5000 0.0000 0.0000
Zn2 Zn 0.428460(10) 0.128660(10) -0.197740(9)
Zn3 Zn 0.595514(10) 0.137245(10) 0.188157(9)
C1 C 0.33191(8) 0.25965(9) 0.07214(8)
C2 C 0.27607(8) 0.26968(8) -0.01560(7)
C3 C 0.20090(8) 0.34005(9) -0.02980(8)
C4 C 0.18125(10) 0.39532(10) 0.04337(9)
H1 H 0.1301 0.4398 0.0342
C5 C 0.23624(11) 0.38516(11) 0.12910(9)
H2 H 0.2229 0.4234 0.1774
C6 C 0.31094(10) 0.31837(10) 0.14327(8)
H3 H 0.3482 0.3122 0.2013
C7 C 0.41384(8) 0.18679(9) 0.09107(8)
C8 C 0.29324(8) 0.20156(9) -0.09244(8)
C9 C 0.13901(9) 0.35986(9) -0.12110(8)
O1 O 0.46808(6) 0.19351(6) 0.16928(5)
O2 O 0.42476(6) 0.12546(6) 0.03121(5)
O3 O 0.24743(6) 0.12016(6) -0.10620(6)
O4 O 0.35273(6) 0.23153(6) -0.13735(5)
O5 O 0.17618(6) 0.35152(7) -0.19104(5)
O6 O 0.05742(7) 0.38582(9) -0.12543(7)
C10 C 0.30229(8) -0.23500(9) 0.07358(8)
C11 C 0.24561(8) -0.24849(8) -0.01277(7)
C12 C 0.16033(9) -0.30078(9) -0.02132(8)
C13 C 0.13206(9) -0.33764(9) 0.05569(8)
H4 H 0.0747 -0.3710 0.0499
C14 C 0.18921(10) -0.32487(10) 0.14152(8)
H5 H 0.1701 -0.3499 0.1930
C15 C 0.27396(9) -0.27514(10) 0.15011(8)
H6 H 0.3127 -0.2682 0.2074
C16 C 0.39181(8) -0.17394(9) 0.08748(8)
C17 C 0.27482(9) -0.20344(8) -0.09459(7)
C18 C 0.09758(9) -0.31970(9) -0.11245(8)
O7 O 0.39633(6) -0.09685(6) 0.03876(5)
O8 O 0.45610(6) -0.20500(6) 0.15176(6)
O9 O 0.34978(6) -0.23829(6) -0.11445(5)
O10 O 0.22702(6) -0.13244(6) -0.13699(5)
O11 O 0.13746(6) -0.34863(7) -0.17640(5)
O12 O 0.01147(7) -0.30866(8) -0.12009(6)
Na1 Na 0.33845(4) 0.39409(4) -0.20698(4)
O13 O 0.49115(9) 0.39376(9) -0.23319(9)
O14 O 0.33345(10) 0.57120(8) -0.21999(8)
O15 O 0.59216(6) -0.00125(5) 0.13176(5)
Zn2B Zn 0.571540(10) -0.128660(10) 0.197740(9)
Zn2A Zn 0.071540(10) -0.371340(10) -0.302260(9)
Zn2C Zn 0.928460(10) 0.371340(10) 0.302260(9)
Zn3B Zn 0.404486(10) -0.137245(10) -0.188157(9)
Zn3C Zn 0.095514(10) 0.362755(10) -0.311843(9)
Zn3A Zn 0.904486(10) -0.362755(10) 0.311843(9)
C1B C 0.66809(8) -0.25965(9) -0.07214(8)
C2B C 0.72393(8) -0.26968(8) 0.01560(7)
C3B C 0.79910(8) -0.34005(9) 0.02980(8)
C4B C 0.81875(10) -0.39532(10) -0.04337(9)
H1B H 0.8699 -0.4398 -0.0342
C5B C 0.76376(11) -0.38516(11) -0.12910(9)
H2B H 0.7771 -0.4234 -0.1774
C6B C 0.68906(10) -0.31837(10) -0.14327(8)
H3B H 0.6518 -0.3122 -0.2013
C7B C 0.58616(8) -0.18679(9) -0.09107(8)
C8B C 0.70676(8) -0.20156(9) 0.09244(8)
C9B C 0.86099(9) -0.35986(9) 0.12110(8)
O1B O 0.53192(6) -0.19351(6) -0.16928(5)
O2B O 0.57524(6) -0.12546(6) -0.03121(5)
O3B O 0.75257(6) -0.12016(6) 0.10620(6)
O4B O 0.64727(6) -0.23153(6) 0.13735(5)
O5B O 0.82382(6) -0.35152(7) 0.19104(5)
O5C O 0.67618(6) 0.14848(7) 0.30896(5)
O5A O 0.32382(6) -0.14848(7) -0.30896(5)
O6B O 0.94258(7) -0.38582(9) 0.12543(7)
C10B C 0.69771(8) 0.23500(9) -0.07358(8)
C11B C 0.75439(8) 0.24849(8) 0.01277(7)
C12B C 0.83967(9) 0.30078(9) 0.02132(8)
C13B C 0.86794(9) 0.33764(9) -0.05569(8)
H4B H 0.9253 0.3710 -0.0499
C14B C 0.81079(10) 0.32487(10) -0.14152(8)
H5B H 0.8299 0.3499 -0.1930
C15B C 0.72604(9) 0.27514(10) -0.15011(8)
H6B H 0.6873 0.2682 -0.2074
C16B C 0.60819(8) 0.17394(9) -0.08748(8)
C17B C 0.72518(9) 0.20344(8) 0.09459(7)
C18B C 0.90242(9) 0.31970(9) 0.11245(8)
O7B O 0.60367(6) 0.09685(6) -0.03876(5)
O8B O 0.54390(6) 0.20500(6) -0.15176(6)
O9B O 0.65022(6) 0.23829(6) 0.11445(5)
O10B O 0.77298(6) 0.13244(6) 0.13699(5)
O10A O 0.27298(6) 0.36756(6) -0.36301(5)
O10C O 0.72702(6) -0.36756(6) 0.36301(5)
O11B O 0.86254(6) 0.34863(7) 0.17640(5)
O11A O 0.36254(6) 0.15137(7) -0.32360(5)
O11C O 0.63746(6) -0.15137(7) 0.32360(5)
O12B O 0.98853(7) 0.30866(8) 0.12009(6)
Na1B Na 0.66155(4) -0.39409(4) 0.20698(4)
Na1A Na 0.16155(4) -0.10591(4) -0.29302(4)
Na1C Na 0.83845(4) 0.10591(4) 0.29302(4)
O13B O 0.50885(9) -0.39376(9) 0.23319(9)
O14B O 0.66655(10) -0.57120(8) 0.21999(8)
O15B O 0.40784(6) 0.00125(5) -0.13176(5)
Zn4 Zn 0.0000 0.0000 0.0000
O16 O 0.07889(8) -0.00333(8) 0.13488(7)
O17 O -0.12357(7) 0.01151(7) 0.04839(8)
O18 O 0.02685(8) 0.15983(7) -0.00195(7)
O16B O -0.07889(8) 0.00333(8) -0.13488(7)
O17B O 0.12357(7) -0.01151(7) -0.04839(8)
O18B O -0.02685(8) -0.15983(7) 0.00195(7)
O19 O 0.27072(8) 0.01919(9) 0.14840(8)
O20 O 0.45250(7) -0.02779(7) 0.26287(7)
O21 O -0.01583(10) -0.15369(10) 0.19695(10)
loop_
_geom_bond_atom_site_label_1
_geom_bond_atom_site_label_2
_geom_bond_site_symmetry_1
_geom_bond_site_symmetry_2
Zn1 O2 1_555 1_555
Zn2 O4 1_555 1_555
Zn3 O1 1_555 1_555
C1 C2 1_555 1_555
C2 C3 1_555 1_555
C3 C4 1_555 1_555
C4 H1 1_555 1_555
C5 C4 1_555 1_555
H2 C5 1_555 1_555
C6 C1 1_555 1_555
H3 C6 1_555 1_555
C7 C1 1_555 1_555
C8 C2 1_555 1_555
C9 C3 1_555 1_555
O1 C7 1_555 1_555
O2 C7 1_555 1_555
O3 C8 1_555 1_555
O4 C8 1_555 1_555
O5 C9 1_555 1_555
O6 C9 1_555 1_555
C10 C11 1_555 1_555
C11 C12 1_555 1_555
C12 C13 1_555 1_555
C13 H4 1_555 1_555
C14 C13 1_555 1_555
H5 C14 1_555 1_555
C15 C10 1_555 1_555
H6 C15 1_555 1_555
C16 C10 1_555 1_555
C17 C11 1_555 1_555
C18 C12 1_555 1_555
O7 Zn1 1_555 1_555
O8 C16 1_555 1_555
O9 C17 1_555 1_555
O10 C17 1_555 1_555
O11 C18 1_555 1_555
O12 C18 1_555 1_555
Na1 O4 1_555 1_555
O13 Na1 1_555 1_555
O14 Na1 1_555 1_555
O15 Zn1 1_555 1_555
Zn4 O16 1_555 1_555
O17 Zn4 1_555 1_555
O18 Zn4 1_555 1_555
Zn2B O8 1_555 1_555
Zn2A O11 1_555 1_555
Zn2C O11B 1_555 1_555
Zn3B O9 1_555 1_555
Zn3C O5 1_555 1_555
Zn3A O5B 1_555 1_555
C1B C2B 1_555 1_555
C2B C3B 1_555 1_555
C3B C4B 1_555 1_555
C4B H1B 1_555 1_555
C5B C4B 1_555 1_555
H2B C5B 1_555 1_555
C6B C1B 1_555 1_555
H3B C6B 1_555 1_555
C7B C1B 1_555 1_555
C8B C2B 1_555 1_555
C9B C3B 1_555 1_555
O1B Zn3B 1_555 1_555
O2B Zn1 1_555 1_555
O3B C8B 1_555 1_555
O4B Zn2B 1_555 1_555
O5B C9B 1_555 1_555
O5C Zn3 1_555 1_555
O5A Zn3B 1_555 1_555
O6B C9B 1_555 1_555
C10B C11B 1_555 1_555
C11B C12B 1_555 1_555
C12B C13B 1_555 1_555
C13B H4B 1_555 1_555
C14B C13B 1_555 1_555
H5B C14B 1_555 1_555
C15B C10B 1_555 1_555
H6B C15B 1_555 1_555
C16B C10B 1_555 1_555
C17B C11B 1_555 1_555
C18B C12B 1_555 1_555
O7B Zn1 1_555 1_555
O8B Zn2 1_555 1_555
O9B Zn3 1_555 1_555
O10B C17B 1_555 1_555
O10A Na1 1_555 1_555
O10C Na1B 1_555 1_555
O11B C18B 1_555 1_555
O11A Zn2 1_555 1_555
O11C Zn2B 1_555 1_555
O12B C18B 1_555 1_555
Na1B O4B 1_555 1_555
Na1A O10 1_555 1_555
Na1C O5C 1_555 1_555
O13B Na1B 1_555 1_555
O14B Na1B 1_555 1_555
O15B Zn1 1_555 1_555
O16B Zn4 1_555 1_555
O17B Zn4 1_555 1_555
O18B Zn4 1_555 1_555
Zn2 O15B 1_555 1_555
Zn3 O15 1_555 1_555
C5 C6 1_555 1_555
O5 Na1 1_555 1_555
C14 C15 1_555 1_555
C16 O7 1_555 1_555
O15 Zn2B 1_555 1_555
Zn3B O15B 1_555 1_555
C5B C6B 1_555 1_555
C7B O1B 1_555 1_555
C7B O2B 1_555 1_555
C8B O4B 1_555 1_555
O5B Na1B 1_555 1_555
O5A Na1A 1_555 1_555
C14B C15B 1_555 1_555
C16B O7B 1_555 1_555
C16B O8B 1_555 1_555
C17B O9B 1_555 1_555
O10B Na1C 1_555 1_555

#END
