
#######################################################################
#
#                 Cambridge Crystallographic Data Centre
#                                CCDC 
#
#######################################################################
#
# If this CIF has been generated from an entry in the Cambridge 
# Structural Database, then it will include bibliographic, chemical, 
# crystal, experimental, refinement or atomic coordinate data resulting 
# from the CCDC's data processing and validation procedures.
#
#######################################################################

data_OCETAS
_symmetry_cell_setting           tetragonal
_symmetry_space_group_name_H-M   'P 41 21 2'
_symmetry_Int_Tables_number      92
_space_group_name_Hall           'P 4abw 2nw'
loop_
_symmetry_equiv_pos_site_id
_symmetry_equiv_pos_as_xyz
1 x,y,z
2 -x,-y,1/2+z
3 1/2+x,1/2-y,3/4-z
4 1/2-x,1/2+y,1/4-z
5 -y,-x,1/2-z
6 y,x,-z
7 1/2+y,1/2-x,3/4+z
8 1/2-y,1/2+x,1/4+z
_cell_length_a                   8.7826(4)
_cell_length_b                   8.7826(4)
_cell_length_c                   42.752(2)
_cell_angle_alpha                90
_cell_angle_beta                 90
_cell_angle_gamma                90
_cell_volume                     3297.64
loop_
_atom_site_label
_atom_site_type_symbol
_atom_site_fract_x
_atom_site_fract_y
_atom_site_fract_z
Ag1 Ag 1.43615(4) 1.06571(5) 0.664332(8)
Ag2 Ag 1.40229(5) 0.90412(4) 0.581040(7)
Ag3 Ag 1.92998(4) 1.41013(4) 0.749530(8)
N1 N 1.3351(5) 0.8356(5) 0.65531(8)
N2 N 1.2700(5) 0.8095(4) 0.62724(9)
N3 N 1.1827(5) 0.6892(5) 0.62935(9)
N4 N 1.1882(5) 0.6340(4) 0.65865(9)
N5 N 1.8656(4) 1.3044(5) 0.67620(9)
N6 N 1.8059(4) 1.3034(5) 0.70509(9)
N7 N 1.6855(5) 1.2158(5) 0.70566(9)
N8 N 1.6653(5) 1.1561(5) 0.67677(8)
N9 N 1.3432(4) 1.1230(5) 0.73975(8)
N10 N 1.3205(5) 1.1804(5) 0.71077(9)
N11 N 1.2020(4) 1.2707(5) 0.71155(9)
N12 N 1.1454(4) 1.2739(5) 0.74076(8)
C1 C 1.2844(6) 0.7251(5) 0.67417(10)
C2 C 1.3350(7) 0.7033(7) 0.70730(11)
H1 H 1.2544 0.6543 0.7191
H2 H 1.3549 0.8017 0.7167
C3 C 1.4801(7) 0.6051(9) 0.70883(14)
H3 H 1.5111 0.5936 0.7302
H4 H 1.5600 0.6537 0.6972
H5 H 1.4597 0.5066 0.7000
C4 C 1.7769(5) 1.2118(6) 0.65943(11)
C5 C 1.8055(7) 1.1675(7) 0.62586(11)
H6 H 1.7095 1.1420 0.6160
H7 H 1.8490 1.2534 0.6148
C6 C 1.9119(8) 1.0336(8) 0.62355(15)
H8 H 1.9279 1.0085 0.6019
H9 H 1.8681 0.9478 0.6342
H10 H 2.0076 1.0591 0.6331
C7 C 1.2337(5) 1.1820(5) 0.75766(10)
C8 C 1.2036(6) 1.1381(7) 0.79056(11)
H11 H 1.1727 1.2275 0.8023
H12 H 1.2966 1.0993 0.7999
C9 C 1.0797(8) 1.0173(6) 0.79286(13)
H13 H 1.0650 0.9898 0.8144
H14 H 1.1097 0.9290 0.7812
H15 H 0.9863 1.0570 0.7845
Ag1C Ag 1.06385(4) 0.56571(5) 0.585668(8)
Ag2C Ag 1.09771(5) 0.40412(4) 0.668960(7)
Ag2C_2 Ag 2.09771(5) 1.40412(4) 0.668960(7)
Ag2C_3 Ag 1.09771(5) 1.40412(4) 0.668960(7)
Ag3D Ag 1.58987(4) 1.07002(4) 0.750470(8)
Ag3_2 Ag 0.92998(4) 1.41013(4) 0.749530(8)
N3C N 1.3173(5) 1.1892(5) 0.62065(9)
N4C N 1.3118(5) 1.1340(4) 0.59135(9)
N5C N 1.6344(4) 0.8044(5) 0.57380(9)
N7D N 1.7842(5) 1.3145(5) 0.79434(9)
N9D N 1.8770(5) 1.6568(4) 0.76025(8)
N11C N 1.2980(4) 0.7707(5) 0.53845(9)
N12_2 N 2.1454(4) 1.2739(5) 0.74076(8)
loop_
_geom_bond_atom_site_label_1
_geom_bond_atom_site_label_2
_geom_bond_site_symmetry_1
_geom_bond_site_symmetry_2
Ag1 N1 1_555 1_555
Ag2 N2 1_555 1_555
Ag3 N6 1_555 1_555
N1 N2 1_555 1_555
N2 N3 1_555 1_555
N3 N4 1_555 1_555
N4 C1 1_555 1_555
N5 N6 1_555 1_555
N6 N7 1_555 1_555
N7 N8 1_555 1_555
N8 Ag1 1_555 1_555
N9 N10 1_555 1_555
N10 Ag1 1_555 1_555
N11 N10 1_555 1_555
N12 N11 1_555 1_555
C1 N1 1_555 1_555
C2 C1 1_555 1_555
H1 C2 1_555 1_555
H2 C2 1_555 1_555
C3 C2 1_555 1_555
H3 C3 1_555 1_555
H4 C3 1_555 1_555
H5 C3 1_555 1_555
C4 N5 1_555 1_555
C5 C4 1_555 1_555
H6 C5 1_555 1_555
H7 C5 1_555 1_555
C6 C5 1_555 1_555
H8 C6 1_555 1_555
H9 C6 1_555 1_555
H10 C6 1_555 1_555
C7 N9 1_555 1_555
C8 C7 1_555 1_555
H11 C8 1_555 1_555
H12 C8 1_555 1_555
C9 C8 1_555 1_555
H13 C9 1_555 1_555
H14 C9 1_555 1_555
H15 C9 1_555 1_555
Ag1C N3 1_555 1_555
Ag2C N4 1_555 1_555
Ag2C_2 N5 1_555 1_555
Ag2C_3 N11 1_555 1_555
Ag3D N7 1_555 1_555
Ag3_2 N12 1_555 1_555
N3C Ag1 1_555 1_555
N4C Ag2 1_555 1_555
N5C Ag2 1_555 1_555
N7D Ag3 1_555 1_555
N9D Ag3 1_555 1_555
N11C Ag2 1_555 1_555
N12_2 Ag3 1_555 1_555
N8 C4 1_555 1_555
N9 Ag3D 1_555 1_555
N12 C7 1_555 1_555
N3C N4C 1_555 1_555

#END
