
#######################################################################
#
#                 Cambridge Crystallographic Data Centre
#                                CCDC 
#
#######################################################################
#
# If this CIF has been generated from an entry in the Cambridge 
# Structural Database, then it will include bibliographic, chemical, 
# crystal, experimental, refinement or atomic coordinate data resulting 
# from the CCDC's data processing and validation procedures.
#
#######################################################################

data_OCICIO
_symmetry_cell_setting           triclinic
_symmetry_space_group_name_H-M   'P -1'
_symmetry_Int_Tables_number      2
_space_group_name_Hall           '-P 1'
loop_
_symmetry_equiv_pos_site_id
_symmetry_equiv_pos_as_xyz
1 x,y,z
2 -x,-y,-z
_cell_length_a                   11.3566(9)
_cell_length_b                   13.2652(10)
_cell_length_c                   21.1564(18)
_cell_angle_alpha                93.397(7)
_cell_angle_beta                 104.760(7)
_cell_angle_gamma                97.552(6)
_cell_volume                     3040.93
loop_
_atom_site_label
_atom_site_type_symbol
_atom_site_fract_x
_atom_site_fract_y
_atom_site_fract_z
P1 P 1.00511(9) 1.17684(7) 0.20061(5)
P2 P 1.06188(9) 1.69934(7) 0.32537(5)
S1 S 0.95454(9) 1.37242(7) 0.12782(5)
S2 S 1.08131(10) 1.91642(7) 0.40135(5)
Si1 Si 0.72586(11) 1.07662(8) 0.11905(6)
Si2 Si 0.80171(10) 1.14743(8) 0.27262(6)
Si3 Si 0.85280(11) 1.62035(8) 0.39816(6)
Si4 Si 0.79259(10) 1.64132(8) 0.24352(6)
B1 B 1.0690(5) 1.0534(3) 0.2304(3)
H1 H 1.062(3) 1.048(2) 0.2854(18)
H2 H 1.170(3) 1.068(2) 0.2304(17)
H3 H 1.017(3) 0.980(3) 0.1910(19)
B2 B 1.1013(5) 1.5682(3) 0.2961(3)
H4 H 1.200(3) 1.582(2) 0.2981(16)
H5 H 1.048(3) 1.551(2) 0.2394(18)
H6 H 1.076(3) 1.503(2) 0.3227(16)
Na1 Na 1.14221(12) 1.38040(9) 0.26025(7)
Na2 Na 1.15229(13) 1.88511(9) 0.27153(7)
N1 N 1.3170(3) 1.3445(2) 0.35410(16)
N2 N 1.3244(3) 1.3876(2) 0.21396(17)
N3 N 1.3803(3) 1.9035(2) 0.32563(17)
N4 N 1.2453(3) 1.8193(2) 0.18329(16)
C1 C 0.8335(3) 1.1615(2) 0.19069(18)
H7 H 0.8136 1.2312 0.1811
C2 C 0.7246(4) 1.1280(3) 0.0396(2)
H8 H 0.7134 1.2000 0.0425
H9 H 0.6568 1.0891 0.0050
H10 H 0.8030 1.1223 0.0293
C3 C 0.7614(4) 0.9434(3) 0.1133(2)
H11 H 0.7046 0.9043 0.0742
H12 H 0.7521 0.9110 0.1525
H13 H 0.8463 0.9451 0.1102
C4 C 0.5625(4) 1.0670(3) 0.1239(2)
H14 H 0.5400 1.1356 0.1268
H15 H 0.5541 1.0335 0.1630
H16 H 0.5079 1.0268 0.0846
C5 C 0.6588(4) 1.2030(3) 0.2736(2)
H17 H 0.6564 1.2637 0.2493
H18 H 0.6590 1.2221 0.3191
H19 H 0.5862 1.1522 0.2528
C6 C 0.7803(4) 1.0111(3) 0.2908(2)
H20 H 0.8538 0.9810 0.2890
H21 H 0.7084 0.9730 0.2582
H22 H 0.7674 1.0077 0.3347
C7 C 0.9276(4) 1.2199(3) 0.33930(19)
H23 H 0.9408 1.2914 0.3301
H24 H 1.0034 1.1905 0.3421
H25 H 0.9056 1.2161 0.3811
C8 C 1.0245(3) 1.1855(3) 0.11762(18)
C9 C 1.0681(3) 1.1100(3) 0.0864(2)
H26 H 1.0781 1.0481 0.1061
C10 C 1.0978(3) 1.1207(3) 0.0275(2)
H27 H 1.1285 1.0676 0.0075
C11 C 1.0821(3) 1.2102(3) -0.00192(19)
H28 H 1.1028 1.2194 -0.0422
C12 C 1.0362(3) 1.2862(3) 0.0275(2)
H29 H 1.0234 1.3469 0.0067
C13 C 1.0087(3) 1.2754(2) 0.08653(19)
C14 C 0.9587(4) 1.4773(3) 0.0782(2)
H30 H 0.9070 1.4555 0.0335
H31 H 1.0437 1.4994 0.0768
H32 H 0.9276 1.5341 0.0971
C15 C 1.3278(4) 1.4757(3) 0.1763(2)
H33 H 1.4064 1.4869 0.1647
H34 H 1.3195 1.5362 0.2027
H35 H 1.2599 1.4631 0.1361
C16 C 1.3349(4) 1.2969(3) 0.1737(2)
H36 H 1.4179 1.3031 0.1673
H37 H 1.2740 1.2912 0.1310
H38 H 1.3196 1.2357 0.1960
C17 C 1.4254(4) 1.4074(3) 0.2736(2)
H39 H 1.4270 1.4767 0.2943
H40 H 1.5041 1.4064 0.2617
C18 C 1.4161(3) 1.3314(3) 0.3227(2)
H41 H 1.4008 1.2614 0.3004
H42 H 1.4955 1.3394 0.3569
C19 C 1.3563(4) 1.4285(3) 0.4064(2)
H43 H 1.4294 1.4149 0.4390
H44 H 1.2898 1.4346 0.4274
H45 H 1.3763 1.4924 0.3877
C20 C 1.2852(4) 1.2503(3) 0.3837(2)
H46 H 1.3581 1.2363 0.4163
H47 H 1.2566 1.1930 0.3494
H48 H 1.2197 1.2590 0.4052
C21 C 0.8958(3) 1.6842(2) 0.32812(18)
H49 H 0.8816 1.7561 0.3360
C22 C 0.9171(4) 1.6995(3) 0.4777(2)
H50 H 0.9001 1.7696 0.4726
H51 H 1.0063 1.7000 0.4921
H52 H 0.8788 1.6710 0.5107
C23 C 0.9005(4) 1.4914(3) 0.4071(2)
H53 H 0.9901 1.4975 0.4147
H54 H 0.8599 1.4464 0.3669
H55 H 0.8766 1.4626 0.4444
C24 C 0.6828(4) 1.6031(3) 0.3874(2)
H56 H 0.6536 1.6691 0.3811
H57 H 0.6640 1.5766 0.4266
H58 H 0.6417 1.5547 0.3489
C25 C 0.8618(4) 1.6954(3) 0.1798(2)
H59 H 0.9387 1.6685 0.1812
H60 H 0.8791 1.7700 0.1882
H61 H 0.8041 1.6762 0.1363
C26 C 0.7582(4) 1.5000(3) 0.2253(2)
H62 H 0.8354 1.4720 0.2305
H63 H 0.7070 1.4826 0.1801
H64 H 0.7140 1.4708 0.2558
C27 C 0.6429(4) 1.6921(3) 0.2331(2)
H65 H 0.5937 1.6549 0.2586
H66 H 0.5975 1.6830 0.1866
H67 H 0.6593 1.7649 0.2487
C28 C 1.1520(3) 1.7292(2) 0.41139(18)
C29 C 1.2209(3) 1.6602(3) 0.4439(2)
H68 H 1.2128 1.5932 0.4231
C30 C 1.3015(4) 1.6855(3) 0.5060(2)
H69 H 1.3469 1.6361 0.5273
C31 C 1.3151(4) 1.7822(3) 0.5364(2)
H70 H 1.3713 1.8002 0.5785
C32 C 1.2472(4) 1.8538(3) 0.5058(2)
H71 H 1.2555 1.9202 0.5275
C33 C 1.1675(3) 1.8289(3) 0.4439(2)
C34 C 1.1318(4) 2.0341(2) 0.4550(2)
H72 H 1.1155 2.0234 0.4976
H73 H 1.0870 2.0876 0.4352
H74 H 1.2204 2.0550 0.4612
C35 C 1.1804(4) 1.7188(3) 0.1500(2)
H75 H 1.2256 1.6933 0.1203
H76 H 1.0971 1.7259 0.1248
H77 H 1.1753 1.6706 0.1829
C36 C 1.2437(4) 1.8913(3) 0.1333(2)
H78 H 1.2922 1.8706 0.1039
H79 H 1.2792 1.9601 0.1547
H80 H 1.1585 1.8916 0.1078
C37 C 1.3707(4) 1.8095(3) 0.2189(2)
H81 H 1.4202 1.8028 0.1869
H82 H 1.3689 1.7461 0.2412
C38 C 1.4324(4) 1.8977(3) 0.2687(2)
H83 H 1.5211 1.8923 0.2845
H84 H 1.4257 1.9618 0.2473
C39 C 1.4199(4) 1.8252(3) 0.3680(2)
H85 H 1.5098 1.8304 0.3786
H86 H 1.3821 1.7576 0.3454
H87 H 1.3946 1.8348 0.4086
C40 C 1.4243(4) 2.0036(3) 0.3634(2)
H88 H 1.5144 2.0138 0.3787
H89 H 1.3898 2.0068 0.4013
H90 H 1.3981 2.0573 0.3355
H1_2 H 1.062(3) 2.048(2) 0.2854(18)
H2_2 H 1.170(3) 2.068(2) 0.2304(17)
H3_2 H 1.017(3) 1.980(3) 0.1910(19)
Na2_2 Na 1.15229(13) 0.88511(9) 0.27153(7)
loop_
_geom_bond_atom_site_label_1
_geom_bond_atom_site_label_2
_geom_bond_site_symmetry_1
_geom_bond_site_symmetry_2
P1 B1 1_555 1_555
P2 B2 1_555 1_555
S1 Na1 1_555 1_555
S2 Na2 1_555 1_555
Si1 C1 1_555 1_555
Si2 C1 1_555 1_555
Si3 C21 1_555 1_555
Si4 C21 1_555 1_555
B1 H1 1_555 1_555
H1 Na2_2 1_555 1_555
H2 B1 1_555 1_555
H3 B1 1_555 1_555
B2 H4 1_555 1_555
H5 B2 1_555 1_555
H6 B2 1_555 1_555
Na1 P1 1_555 1_555
Na2 P2 1_555 1_555
N1 Na1 1_555 1_555
N2 Na1 1_555 1_555
N3 Na2 1_555 1_555
N4 Na2 1_555 1_555
C1 P1 1_555 1_555
H7 C1 1_555 1_555
C2 Si1 1_555 1_555
H8 C2 1_555 1_555
H9 C2 1_555 1_555
H10 C2 1_555 1_555
C3 Si1 1_555 1_555
H11 C3 1_555 1_555
H12 C3 1_555 1_555
H13 C3 1_555 1_555
C4 Si1 1_555 1_555
H14 C4 1_555 1_555
H15 C4 1_555 1_555
H16 C4 1_555 1_555
C5 Si2 1_555 1_555
H17 C5 1_555 1_555
H18 C5 1_555 1_555
H19 C5 1_555 1_555
C6 Si2 1_555 1_555
H20 C6 1_555 1_555
H21 C6 1_555 1_555
H22 C6 1_555 1_555
C7 Si2 1_555 1_555
H23 C7 1_555 1_555
H24 C7 1_555 1_555
H25 C7 1_555 1_555
C8 P1 1_555 1_555
C9 C8 1_555 1_555
H26 C9 1_555 1_555
C10 C9 1_555 1_555
H27 C10 1_555 1_555
C11 C10 1_555 1_555
H28 C11 1_555 1_555
C12 C11 1_555 1_555
H29 C12 1_555 1_555
C13 S1 1_555 1_555
C14 S1 1_555 1_555
H30 C14 1_555 1_555
H31 C14 1_555 1_555
H32 C14 1_555 1_555
C15 N2 1_555 1_555
H33 C15 1_555 1_555
H34 C15 1_555 1_555
H35 C15 1_555 1_555
C16 N2 1_555 1_555
H36 C16 1_555 1_555
H37 C16 1_555 1_555
H38 C16 1_555 1_555
C17 N2 1_555 1_555
H39 C17 1_555 1_555
H40 C17 1_555 1_555
C18 N1 1_555 1_555
H41 C18 1_555 1_555
H42 C18 1_555 1_555
C19 N1 1_555 1_555
H43 C19 1_555 1_555
H44 C19 1_555 1_555
H45 C19 1_555 1_555
C20 N1 1_555 1_555
H46 C20 1_555 1_555
H47 C20 1_555 1_555
H48 C20 1_555 1_555
C21 P2 1_555 1_555
H49 C21 1_555 1_555
C22 Si3 1_555 1_555
H50 C22 1_555 1_555
H51 C22 1_555 1_555
H52 C22 1_555 1_555
C23 Si3 1_555 1_555
H53 C23 1_555 1_555
H54 C23 1_555 1_555
H55 C23 1_555 1_555
C24 Si3 1_555 1_555
H56 C24 1_555 1_555
H57 C24 1_555 1_555
H58 C24 1_555 1_555
C25 Si4 1_555 1_555
H59 C25 1_555 1_555
H60 C25 1_555 1_555
H61 C25 1_555 1_555
C26 Si4 1_555 1_555
H62 C26 1_555 1_555
H63 C26 1_555 1_555
H64 C26 1_555 1_555
C27 Si4 1_555 1_555
H65 C27 1_555 1_555
H66 C27 1_555 1_555
H67 C27 1_555 1_555
C28 P2 1_555 1_555
C29 C28 1_555 1_555
H68 C29 1_555 1_555
C30 C29 1_555 1_555
H69 C30 1_555 1_555
C31 C30 1_555 1_555
H70 C31 1_555 1_555
C32 C31 1_555 1_555
H71 C32 1_555 1_555
C33 S2 1_555 1_555
C34 S2 1_555 1_555
H72 C34 1_555 1_555
H73 C34 1_555 1_555
H74 C34 1_555 1_555
C35 N4 1_555 1_555
H75 C35 1_555 1_555
H76 C35 1_555 1_555
H77 C35 1_555 1_555
C36 N4 1_555 1_555
H78 C36 1_555 1_555
H79 C36 1_555 1_555
H80 C36 1_555 1_555
C37 N4 1_555 1_555
H81 C37 1_555 1_555
H82 C37 1_555 1_555
C38 N3 1_555 1_555
H83 C38 1_555 1_555
H84 C38 1_555 1_555
C39 N3 1_555 1_555
H85 C39 1_555 1_555
H86 C39 1_555 1_555
H87 C39 1_555 1_555
C40 N3 1_555 1_555
H88 C40 1_555 1_555
H89 C40 1_555 1_555
H90 C40 1_555 1_555
H1_2 Na2 1_555 1_555
H2_2 Na2 1_555 1_555
H3_2 Na2 1_555 1_555
Na2_2 H2 1_555 1_555
H3 Na2_2 1_555 1_555
H5 Na1 1_555 1_555
H6 Na1 1_555 1_555
C8 C13 1_555 1_555
C12 C13 1_555 1_555
C17 C18 1_555 1_555
C28 C33 1_555 1_555
C32 C33 1_555 1_555
C37 C38 1_555 1_555

#END
