
#######################################################################
#
#                 Cambridge Crystallographic Data Centre
#                                CCDC 
#
#######################################################################
#
# If this CIF has been generated from an entry in the Cambridge 
# Structural Database, then it will include bibliographic, chemical, 
# crystal, experimental, refinement or atomic coordinate data resulting 
# from the CCDC's data processing and validation procedures.
#
#######################################################################

data_OCIHAK
_symmetry_cell_setting           orthorhombic
_symmetry_space_group_name_H-M   'P 21 21 21'
_symmetry_Int_Tables_number      19
_space_group_name_Hall           'P 2ac 2ab'
loop_
_symmetry_equiv_pos_site_id
_symmetry_equiv_pos_as_xyz
1 x,y,z
2 1/2-x,-y,1/2+z
3 -x,1/2+y,1/2-z
4 1/2+x,1/2-y,-z
_cell_length_a                   6.9000(18)
_cell_length_b                   7.404(3)
_cell_length_c                   19.116(5)
_cell_angle_alpha                90
_cell_angle_beta                 90
_cell_angle_gamma                90
_cell_volume                     976.591
loop_
_atom_site_label
_atom_site_type_symbol
_atom_site_fract_x
_atom_site_fract_y
_atom_site_fract_z
Cd1 Cd 0.03317(11) 0.33452(9) 0.25610(4)
Cd2 Cd -0.47326(11) 0.54057(10) 0.22743(4)
O1 O -0.1236(11) 0.2715(12) 0.1553(4)
O2 O -0.4390(11) 0.2500(9) 0.1806(3)
O3 O -0.3460(11) -0.1171(10) 0.1898(3)
O4 O -0.4320(12) -0.3382(11) 0.1191(4)
O5 O -0.2946(10) -0.0326(10) -0.1844(3)
O6 O -0.4524(13) -0.2601(11) -0.1339(4)
O7 O 0.1783(9) 0.0641(10) 0.2270(3)
C1 C -0.3152(15) 0.1268(16) 0.0736(5)
C2 C -0.3638(15) -0.0571(15) 0.0674(5)
C3 C -0.3797(16) -0.1325(14) -0.0004(5)
H1 H -0.4183 -0.2522 -0.0053
C4 C -0.3390(15) -0.0318(15) -0.0589(6)
C5 C -0.2786(16) 0.1491(16) -0.0525(5)
H2 H -0.2424 0.2148 -0.0918
C6 C -0.2736(17) 0.2283(17) 0.0133(6)
H3 H -0.2424 0.3500 0.0176
C7 C -0.2931(16) 0.2201(14) 0.1429(6)
C8 C -0.3858(15) -0.1805(16) 0.1284(6)
C9 C -0.3641(16) -0.1144(16) -0.1296(6)
Cd1B Cd -0.03317(11) -0.16548(9) 0.24390(4)
Cd1C Cd -0.46683(11) 0.16548(9) -0.25610(4)
Cd1A Cd -0.53317(11) -0.33452(9) -0.24390(4)
Cd2B Cd -0.52674(11) 0.04057(10) 0.27257(4)
Cd2_2 Cd -0.47326(11) -0.45943(10) 0.22743(4)
Cd2C Cd 0.02674(11) -0.04057(10) -0.22743(4)
Cd2B_2 Cd 0.47326(11) 0.04057(10) 0.27257(4)
O2B O -0.5610(11) 0.7500(9) 0.3194(3)
O3B O 0.3460(11) 0.3829(10) 0.3102(3)
O3B_2 O -0.6540(11) 0.3829(10) 0.3102(3)
O4_2 O -0.4320(12) 0.6618(11) 0.1191(4)
O5C O 0.2054(10) 0.5326(10) 0.1844(3)
O5C_2 O -0.7946(10) 0.5326(10) 0.1844(3)
O6A O -0.0476(13) 0.2601(11) 0.3661(4)
O7B O -0.1783(9) 0.5641(10) 0.2730(3)
loop_
_geom_bond_atom_site_label_1
_geom_bond_atom_site_label_2
_geom_bond_site_symmetry_1
_geom_bond_site_symmetry_2
Cd1 O1 1_555 1_555
Cd2 O2 1_555 1_555
O1 C7 1_555 1_555
O2 C7 1_555 1_555
O3 C8 1_555 1_555
O4 C8 1_555 1_555
O5 C9 1_555 1_555
O6 C9 1_555 1_555
O7 Cd1 1_555 1_555
C1 C2 1_555 1_555
C2 C3 1_555 1_555
C3 H1 1_555 1_555
C4 C3 1_555 1_555
C5 C4 1_555 1_555
H2 C5 1_555 1_555
C6 C1 1_555 1_555
H3 C6 1_555 1_555
C7 C1 1_555 1_555
C8 C2 1_555 1_555
C9 C4 1_555 1_555
Cd1B O3 1_555 1_555
Cd1C O5 1_555 1_555
Cd1A O6 1_555 1_555
Cd2B O2 1_555 1_555
Cd2_2 O4 1_555 1_555
Cd2C O5 1_555 1_555
Cd2B_2 O7 1_555 1_555
O2B Cd2 1_555 1_555
O3B Cd1 1_555 1_555
O3B_2 Cd2 1_555 1_555
O4_2 Cd2 1_555 1_555
O5C Cd1 1_555 1_555
O5C_2 Cd2 1_555 1_555
O6A Cd1 1_555 1_555
O7B Cd1 1_555 1_555
Cd2 O7B 1_555 1_555
O3 Cd2B 1_555 1_555
O7 Cd1B 1_555 1_555
C5 C6 1_555 1_555

#END
