
#######################################################################
#
#                 Cambridge Crystallographic Data Centre
#                                CCDC 
#
#######################################################################
#
# If this CIF has been generated from an entry in the Cambridge 
# Structural Database, then it will include bibliographic, chemical, 
# crystal, experimental, refinement or atomic coordinate data resulting 
# from the CCDC's data processing and validation procedures.
#
#######################################################################

data_OCINOE
_symmetry_cell_setting           orthorhombic
_symmetry_space_group_name_H-M   'P b c n'
_symmetry_Int_Tables_number      60
_space_group_name_Hall           '-P 2n 2ab'
loop_
_symmetry_equiv_pos_site_id
_symmetry_equiv_pos_as_xyz
1 x,y,z
2 1/2-x,1/2-y,1/2+z
3 -x,y,1/2-z
4 1/2+x,1/2-y,-z
5 -x,-y,-z
6 1/2+x,1/2+y,1/2-z
7 x,-y,1/2+z
8 1/2-x,1/2+y,z
_cell_length_a                   31.930(13)
_cell_length_b                   7.105(3)
_cell_length_c                   14.193(6)
_cell_angle_alpha                90
_cell_angle_beta                 90
_cell_angle_gamma                90
_cell_volume                     3219.86
loop_
_atom_site_label
_atom_site_type_symbol
_atom_site_fract_x
_atom_site_fract_y
_atom_site_fract_z
S1 S 0.075752(14) 1.20955(6) 0.05525(3)
C1 C 0.15819(7) 1.2969(3) 0.02594(14)
H1 H 0.1476 1.3835 -0.0171
C2 C 0.20159(7) 1.2861(3) 0.04052(15)
H2 H 0.2197 1.3658 0.0082
C3 C 0.13322(7) 0.7879(3) 0.25484(14)
H3 H 0.1108 0.7600 0.2989
H4 H 0.1567 0.8367 0.2907
C4 C 0.14623(6) 1.0451(2) 0.13941(13)
C5 C 0.13074(6) 1.1807(3) 0.07454(12)
C6 C 0.16091(6) 0.4632(3) 0.27752(13)
C7 C 0.14659(7) 0.6057(3) 0.20601(14)
H5 H 0.1232 0.5550 0.1705
H6 H 0.1692 0.6319 0.1623
C8 C 0.21694(6) 1.1559(3) 0.10335(15)
H7 H 0.2457 1.1478 0.1135
C9 C 0.19019(6) 1.0366(3) 0.15179(14)
H8 H 0.2014 0.9488 0.1934
C10 C 0.21480(7) 0.3140(3) 0.36789(17)
H9 H 0.2428 0.2975 0.3835
C11 C 0.14265(8) 0.2409(3) 0.38769(16)
H10 H 0.1221 0.1718 0.4186
C12 C 0.18414(8) 0.2104(3) 0.41228(17)
H11 H 0.1911 0.1217 0.4578
N1 N 0.13061(5) 0.3649(2) 0.32167(12)
N2 N 0.11897(5) 0.9322(2) 0.18968(11)
H12 H 0.1025 0.8741 0.1471
H13 H 0.1023 1.0099 0.2227
O1 O 0.07109(5) 1.3802(2) 0.00017(11)
O2 O 0.06232(5) 1.0410(2) 0.00477(10)
O3 O 0.05651(5) 1.2235(2) 0.14734(10)
Na1 Na 0.0000 1.25022(15) 0.2500
O4 O 0.04036(5) 0.9937(2) 0.31597(10)
O5 O -0.04251(4) 1.4862(2) 0.17799(10)
O6 O -0.03851(5) 0.7127(2) 0.39274(11)
C13 C 0.20326(7) 0.4423(3) 0.30002(15)
H14 H 0.2234 0.5143 0.2695
Na2 Na 0.0000 0.73293(16) 0.2500
S1B S -0.075752(14) 1.20955(6) 0.44475(3)
C1B C -0.15819(7) 1.2969(3) 0.47406(14)
H1B H -0.1476 1.3835 0.5171
C2B C -0.20159(7) 1.2861(3) 0.45948(15)
H2B H -0.2197 1.3658 0.4918
C3B C -0.13322(7) 0.7879(3) 0.24516(14)
H3B H -0.1108 0.7600 0.2011
H4B H -0.1567 0.8367 0.2093
C4B C -0.14623(6) 1.0451(2) 0.36059(13)
C5B C -0.13074(6) 1.1807(3) 0.42546(12)
C6B C -0.16091(6) 0.4632(3) 0.22248(13)
C7B C -0.14659(7) 0.6057(3) 0.29399(14)
H5B H -0.1232 0.5550 0.3295
H6B H -0.1692 0.6319 0.3377
C8B C -0.21694(6) 1.1559(3) 0.39665(15)
H7B H -0.2457 1.1478 0.3865
C9B C -0.19019(6) 1.0366(3) 0.34821(14)
H8B H -0.2014 0.9488 0.3066
C10B C -0.21480(7) 0.3140(3) 0.13211(17)
H9B H -0.2428 0.2975 0.1165
C11B C -0.14265(8) 0.2409(3) 0.11231(16)
H10B H -0.1221 0.1718 0.0814
C12B C -0.18414(8) 0.2104(3) 0.08772(17)
H11B H -0.1911 0.1217 0.0422
N1B N -0.13061(5) 0.3649(2) 0.17833(12)
N2B N -0.11897(5) 0.9322(2) 0.31032(11)
H12B H -0.1025 0.8741 0.3529
H13B H -0.1023 1.0099 0.2773
O1B O -0.07109(5) 1.3802(2) 0.49983(11)
O2B O -0.06232(5) 1.0410(2) 0.49523(10)
O3B O -0.05651(5) 1.2235(2) 0.35266(10)
O4B O -0.04036(5) 0.9937(2) 0.18403(10)
O5B O 0.04251(4) 1.4862(2) 0.32201(10)
O5_2 O -0.04251(4) 0.4862(2) 0.17799(10)
O5B_2 O 0.04251(4) 0.4862(2) 0.32201(10)
O6B O 0.03851(5) 0.7127(2) 0.10726(11)
C13B C -0.20326(7) 0.4423(3) 0.19998(15)
H14B H -0.2234 0.5143 0.2305
Na2_2 Na 0.0000 1.73293(16) 0.2500
loop_
_geom_bond_atom_site_label_1
_geom_bond_atom_site_label_2
_geom_bond_site_symmetry_1
_geom_bond_site_symmetry_2
S1 C5 1_555 1_555
C1 H1 1_555 1_555
C2 C1 1_555 1_555
H2 C2 1_555 1_555
C3 H3 1_555 1_555
H4 C3 1_555 1_555
C4 C5 1_555 1_555
C5 C1 1_555 1_555
C6 C7 1_555 1_555
C7 C3 1_555 1_555
H5 C7 1_555 1_555
H6 C7 1_555 1_555
C8 C2 1_555 1_555
H7 C8 1_555 1_555
C9 C4 1_555 1_555
H8 C9 1_555 1_555
C10 H9 1_555 1_555
C11 H10 1_555 1_555
C12 C10 1_555 1_555
H11 C12 1_555 1_555
N1 C6 1_555 1_555
N2 C3 1_555 1_555
H12 N2 1_555 1_555
H13 N2 1_555 1_555
O1 S1 1_555 1_555
O2 S1 1_555 1_555
O3 S1 1_555 1_555
Na1 O3 1_555 1_555
O4 Na1 1_555 1_555
O5 Na1 1_555 1_555
O6 Na2 1_555 1_555
C13 C6 1_555 1_555
H14 C13 1_555 1_555
Na2 O4 1_555 1_555
S1B C5B 1_555 1_555
C1B H1B 1_555 1_555
C2B C1B 1_555 1_555
H2B C2B 1_555 1_555
C3B H3B 1_555 1_555
H4B C3B 1_555 1_555
C4B C5B 1_555 1_555
C5B C1B 1_555 1_555
C6B C7B 1_555 1_555
C7B C3B 1_555 1_555
H5B C7B 1_555 1_555
H6B C7B 1_555 1_555
C8B C2B 1_555 1_555
H7B C8B 1_555 1_555
C9B C4B 1_555 1_555
H8B C9B 1_555 1_555
C10B H9B 1_555 1_555
C11B H10B 1_555 1_555
C12B C10B 1_555 1_555
H11B C12B 1_555 1_555
N1B C6B 1_555 1_555
N2B C3B 1_555 1_555
H12B N2B 1_555 1_555
H13B N2B 1_555 1_555
O1B S1B 1_555 1_555
O2B S1B 1_555 1_555
O3B Na1 1_555 1_555
O4B Na1 1_555 1_555
O5B Na1 1_555 1_555
O5_2 Na2 1_555 1_555
O5B_2 Na2 1_555 1_555
O6B Na2 1_555 1_555
C13B C6B 1_555 1_555
H14B C13B 1_555 1_555
Na2_2 O5 1_555 1_555
C4 N2 1_555 1_555
C8 C9 1_555 1_555
C10 C13 1_555 1_555
C11 C12 1_555 1_555
C11 N1 1_555 1_555
Na2 O4B 1_555 1_555
S1B O3B 1_555 1_555
C4B N2B 1_555 1_555
C8B C9B 1_555 1_555
C10B C13B 1_555 1_555
C11B C12B 1_555 1_555
C11B N1B 1_555 1_555
O5B Na2_2 1_555 1_555

#END
