
#######################################################################
#
#                 Cambridge Crystallographic Data Centre
#                                CCDC 
#
#######################################################################
#
# If this CIF has been generated from an entry in the Cambridge 
# Structural Database, then it will include bibliographic, chemical, 
# crystal, experimental, refinement or atomic coordinate data resulting 
# from the CCDC's data processing and validation procedures.
#
#######################################################################

data_OCIRAU
_symmetry_cell_setting           monoclinic
_symmetry_space_group_name_H-M   'C 2/c'
_symmetry_Int_Tables_number      15
_space_group_name_Hall           '-C 2yn'
loop_
_symmetry_equiv_pos_site_id
_symmetry_equiv_pos_as_xyz
1 x,y,z
2 1/2+x,1/2+y,z
3 -x,y,1/2-z
4 1/2-x,1/2+y,1/2-z
5 -x,-y,-z
6 1/2-x,1/2-y,-z
7 x,-y,1/2+z
8 1/2+x,1/2-y,1/2+z
_cell_length_a                   11.062(2)
_cell_length_b                   21.033(4)
_cell_length_c                   19.263(4)
_cell_angle_alpha                90
_cell_angle_beta                 105.13(3)
_cell_angle_gamma                90
_cell_volume                     4326.51
loop_
_atom_site_label
_atom_site_type_symbol
_atom_site_fract_x
_atom_site_fract_y
_atom_site_fract_z
Er1 Er 0.179360(10) 0.092588(6) 0.515623(6)
O1 O 0.35294(19) 0.16062(11) 0.52923(14)
O2 O 0.3957(2) 0.06112(12) 0.52172(18)
O3 O 0.8408(2) 0.01100(11) 0.50923(14)
O4 O 0.9805(2) 0.08866(10) 0.52724(15)
O5 O 0.8722(2) 0.29445(13) 0.60898(18)
O6 O 0.6859(3) 0.31380(13) 0.61492(19)
O7 O 0.1218(4) 0.09323(11) 0.38670(14)
O8 O 0.0985(2) 0.18099(10) 0.44218(11)
O9 O 0.0081(3) 0.37932(14) 0.30661(14)
N1 N 0.1712(2) 0.17267(13) 0.60992(13)
N2 N 0.2187(3) 0.04959(14) 0.64076(14)
N3 N 0.7628(2) 0.27885(12) 0.60140(14)
N4 N 0.0000 0.35180(19) 0.2500
C1 C 0.1588(3) 0.23432(16) 0.59318(17)
H1 H 0.1606 0.2467 0.5471
C2 C 0.1435(3) 0.28072(17) 0.64131(19)
H2 H 0.1345 0.3233 0.6279
C3 C 0.1420(5) 0.2621(2) 0.7095(2)
H3 H 0.1307 0.2918 0.7429
C4 C 0.1574(5) 0.1985(2) 0.7276(2)
H4 H 0.1580 0.1854 0.7737
C5 C 0.1721(3) 0.15411(17) 0.67691(16)
C6 C 0.1942(4) 0.08538(18) 0.6931(2)
C7 C 0.1905(7) 0.0604(3) 0.7588(2)
H5 H 0.1716 0.0860 0.7938
C8 C 0.2153(9) -0.0030(3) 0.7713(3)
H6 H 0.2140 -0.0209 0.8153
C9 C 0.2418(7) -0.0394(2) 0.7192(3)
H7 H 0.2585 -0.0825 0.7268
C10 C 0.2438(5) -0.0118(2) 0.6551(2)
H8 H 0.2635 -0.0371 0.6199
C11 C 0.4305(3) 0.11806(16) 0.52896(16)
C12 C 0.5661(3) 0.13551(14) 0.54070(15)
C13 C 0.6559(3) 0.09267(13) 0.53163(19)
H9 H 0.6331 0.0509 0.5188
C14 C 0.7798(3) 0.11149(16) 0.54145(16)
C15 C 0.8755(3) 0.06650(14) 0.52538(14)
C16 C 0.8160(3) 0.17294(15) 0.56436(16)
H10 H 0.8989 0.1858 0.5725
C17 C 0.7253(3) 0.21428(14) 0.57473(15)
C18 C 0.6003(3) 0.19845(14) 0.56097(16)
H11 H 0.5407 0.2284 0.5650
C19 C 0.0898(3) 0.15049(15) 0.38496(15)
C20 C 0.0431(3) 0.18439(15) 0.31437(15)
C21 C 0.0000 0.1518(2) 0.2500
H12 H 0.0000 0.1075 0.2500
C22 C 0.0420(3) 0.25031(15) 0.31492(15)
H13 H 0.0687 0.2728 0.3577
C23 C 0.0000 0.2815(2) 0.2500
Er1D Er 0.820640(10) -0.092588(6) 0.484377(6)
Er1_2 Er 1.179360(10) 0.092588(6) 0.515623(6)
Er1B Er -0.179360(10) 0.092588(6) -0.015623(6)
Er1D_2 Er -0.179360(10) -0.092588(6) 0.484377(6)
O1D O 0.64706(19) -0.16062(11) 0.47077(14)
O2D O 0.6043(2) -0.06112(12) 0.47828(18)
O3D O 0.1592(2) -0.01100(11) 0.49077(14)
O4D O 0.0195(2) -0.08866(10) 0.47276(15)
O4_2 O -0.0195(2) 0.08866(10) 0.52724(15)
O4D_2 O 1.0195(2) -0.08866(10) 0.47276(15)
O5D O 0.1278(2) -0.29445(13) 0.39102(18)
O6D O 0.3141(3) -0.31380(13) 0.38508(19)
O7B O -0.1218(4) 0.09323(11) 0.11330(14)
O7D O 0.8782(4) -0.09323(11) 0.61330(14)
O8B O -0.0985(2) 0.18099(10) 0.05782(11)
O8D O 0.9015(2) -0.18099(10) 0.55782(11)
O9B O -0.0081(3) 0.37932(14) 0.19339(14)
N1D N 0.8288(2) -0.17267(13) 0.39008(13)
N2D N 0.7813(3) -0.04959(14) 0.35924(14)
N3D N 0.2372(2) -0.27885(12) 0.39860(14)
C1D C 0.8412(3) -0.23432(16) 0.40682(17)
H1D H 0.8394 -0.2467 0.4529
C2D C 0.8565(3) -0.28072(17) 0.35869(19)
H2D H 0.8655 -0.3233 0.3721
C3D C 0.8580(5) -0.2621(2) 0.2905(2)
H3D H 0.8693 -0.2918 0.2571
C4D C 0.8426(5) -0.1985(2) 0.2724(2)
H4D H 0.8420 -0.1854 0.2263
C5D C 0.8279(3) -0.15411(17) 0.32309(16)
C6D C 0.8058(4) -0.08538(18) 0.3069(2)
C7D C 0.8095(7) -0.0604(3) 0.2412(2)
H5D H 0.8284 -0.0860 0.2062
C8D C 0.7847(9) 0.0030(3) 0.2287(3)
H6D H 0.7860 0.0209 0.1847
C9D C 0.7582(7) 0.0394(2) 0.2808(3)
H7D H 0.7415 0.0825 0.2732
C10D C 0.7562(5) 0.0118(2) 0.3449(2)
H8D H 0.7365 0.0371 0.3801
C11D C 0.5695(3) -0.11806(16) 0.47104(16)
C12D C 0.4339(3) -0.13551(14) 0.45930(15)
C13D C 0.3441(3) -0.09267(13) 0.46837(19)
H9D H 0.3669 -0.0509 0.4812
C14D C 0.2202(3) -0.11149(16) 0.45855(16)
C15D C 0.1245(3) -0.06650(14) 0.47462(14)
C16D C 0.1840(3) -0.17294(15) 0.43564(16)
H10D H 0.1011 -0.1858 0.4275
C17D C 0.2747(3) -0.21428(14) 0.42527(15)
C18D C 0.3997(3) -0.19845(14) 0.43903(16)
H11D H 0.4593 -0.2284 0.4350
C19B C -0.0898(3) 0.15049(15) 0.11504(15)
C20B C -0.0431(3) 0.18439(15) 0.18563(15)
C22B C -0.0420(3) 0.25031(15) 0.18508(15)
H13B H -0.0687 0.2728 0.1423
O10 O 1.0000 0.381(2) 0.7500
H14 H 1.0027 0.4019 0.7123
H14B H 0.9973 0.4019 0.7877
O11 O 0.496(2) 0.9573(15) 0.8839(14)
H15 H 0.4522 0.9729 0.9098
H16 H 0.5001 0.9370 0.8462
H17? H 0.9666 0.3591 0.7133
loop_
_geom_bond_atom_site_label_1
_geom_bond_atom_site_label_2
_geom_bond_site_symmetry_1
_geom_bond_site_symmetry_2
Er1 O1 1_555 1_555
O1 C11 1_555 1_555
O2 Er1 1_555 1_555
O3 C15 1_555 1_555
O4 C15 1_555 1_555
O5 N3 1_555 1_555
O6 N3 1_555 1_555
O7 Er1 1_555 1_555
O8 Er1 1_555 1_555
O9 N4 1_555 1_555
N1 Er1 1_555 1_555
N2 Er1 1_555 1_555
N3 C17 1_555 1_555
N4 C23 1_555 1_555
C1 N1 1_555 1_555
H1 C1 1_555 1_555
C2 C1 1_555 1_555
H2 C2 1_555 1_555
C3 C2 1_555 1_555
H3 C3 1_555 1_555
C4 C3 1_555 1_555
H4 C4 1_555 1_555
C5 N1 1_555 1_555
C6 N2 1_555 1_555
C7 C6 1_555 1_555
H5 C7 1_555 1_555
C8 C7 1_555 1_555
H6 C8 1_555 1_555
C9 C8 1_555 1_555
H7 C9 1_555 1_555
C10 N2 1_555 1_555
H8 C10 1_555 1_555
C11 O2 1_555 1_555
C12 C11 1_555 1_555
C13 C12 1_555 1_555
H9 C13 1_555 1_555
C14 C13 1_555 1_555
C15 C14 1_555 1_555
C16 C14 1_555 1_555
H10 C16 1_555 1_555
C17 C16 1_555 1_555
C18 C12 1_555 1_555
H11 C18 1_555 1_555
C19 O7 1_555 1_555
C20 C19 1_555 1_555
C21 C20 1_555 1_555
H12 C21 1_555 1_555
C22 C20 1_555 1_555
H13 C22 1_555 1_555
C23 C22 1_555 1_555
O10 H14 1_555 1_555
O11 H15 1_555 1_555
H16 O11 1_555 1_555
Er1D O3 1_555 1_555
Er1_2 O4 1_555 1_555
Er1B O7B 1_555 1_555
Er1D_2 O4D 1_555 1_555
O1D Er1D 1_555 1_555
O2D Er1D 1_555 1_555
O3D Er1 1_555 1_555
O4D C15D 1_555 1_555
O4_2 Er1 1_555 1_555
O4D_2 Er1D 1_555 1_555
O5D N3D 1_555 1_555
O6D N3D 1_555 1_555
O7B C19B 1_555 1_555
O7D Er1D 1_555 1_555
O8B Er1B 1_555 1_555
O8D Er1D 1_555 1_555
O9B N4 1_555 1_555
N1D Er1D 1_555 1_555
N2D Er1D 1_555 1_555
N3D C17D 1_555 1_555
C1D N1D 1_555 1_555
H1D C1D 1_555 1_555
C2D C1D 1_555 1_555
H2D C2D 1_555 1_555
C3D C2D 1_555 1_555
H3D C3D 1_555 1_555
C4D C3D 1_555 1_555
H4D C4D 1_555 1_555
C5D N1D 1_555 1_555
C6D N2D 1_555 1_555
C7D C6D 1_555 1_555
H5D C7D 1_555 1_555
C8D C7D 1_555 1_555
H6D C8D 1_555 1_555
C9D C8D 1_555 1_555
H7D C9D 1_555 1_555
C10D N2D 1_555 1_555
H8D C10D 1_555 1_555
C11D O1D 1_555 1_555
C12D C11D 1_555 1_555
C13D C12D 1_555 1_555
H9D C13D 1_555 1_555
C14D C13D 1_555 1_555
C15D O3D 1_555 1_555
C16D C14D 1_555 1_555
H10D C16D 1_555 1_555
C17D C16D 1_555 1_555
C18D C12D 1_555 1_555
H11D C18D 1_555 1_555
C19B O8B 1_555 1_555
C20B C21 1_555 1_555
C22B C23 1_555 1_555
H13B C22B 1_555 1_555
H14B O10 1_555 1_555
O8 C19 1_555 1_555
C4 C5 1_555 1_555
C5 C6 1_555 1_555
C9 C10 1_555 1_555
C17 C18 1_555 1_555
O2D C11D 1_555 1_555
C4D C5D 1_555 1_555
C5D C6D 1_555 1_555
C9D C10D 1_555 1_555
C14D C15D 1_555 1_555
C17D C18D 1_555 1_555
C19B C20B 1_555 1_555
C20B C22B 1_555 1_555

#END
