
#######################################################################
#
#                 Cambridge Crystallographic Data Centre
#                                CCDC 
#
#######################################################################
#
# If this CIF has been generated from an entry in the Cambridge 
# Structural Database, then it will include bibliographic, chemical, 
# crystal, experimental, refinement or atomic coordinate data resulting 
# from the CCDC's data processing and validation procedures.
#
#######################################################################

data_OCISUO
_symmetry_cell_setting           triclinic
_symmetry_space_group_name_H-M   'P -1'
_symmetry_Int_Tables_number      2
_space_group_name_Hall           '-P 1'
loop_
_symmetry_equiv_pos_site_id
_symmetry_equiv_pos_as_xyz
1 x,y,z
2 -x,-y,-z
_cell_length_a                   9.9104(4)
_cell_length_b                   9.9563(4)
_cell_length_c                   11.3623(5)
_cell_angle_alpha                101.345(2)
_cell_angle_beta                 109.658(2)
_cell_angle_gamma                106.442(2)
_cell_volume                     958.259
loop_
_atom_site_label
_atom_site_type_symbol
_atom_site_fract_x
_atom_site_fract_y
_atom_site_fract_z
Nd1 Nd 0.72361(10) 0.29803(8) 0.75735(9)
Cu1 Cu 0.9284(2) 0.9738(2) 0.8393(2)
Cu2 Cu 0.5000 0.5000 0.5000
N1 N 0.7032(15) 0.8704(13) 0.7952(13)
N2 N 0.4437(15) 0.8228(13) 0.7473(13)
H1 H 0.3688 0.8538 0.7281
N3 N 1.1506(15) 0.0855(14) 0.8749(13)
N4 N 1.4074(15) 0.1381(13) 0.8994(13)
H2 H 1.4884 0.1162 0.9190
N5 N 0.2760(14) 0.4051(14) 0.4560(13)
N6 N 0.0126(15) 0.3526(14) 0.3872(13)
H3 H -0.0632 0.3807 0.3582
O1 O 0.9451(12) 0.7943(11) 0.8729(12)
O2 O 0.8008(12) 0.5658(10) 0.8540(11)
O3 O 0.2760(14) 0.6050(12) 0.7312(13)
O4 O 0.5991(12) 1.0447(10) 0.7615(11)
O5 O 0.9029(13) 0.1475(12) 0.8092(12)
O6 O 1.0236(12) 0.3733(12) 0.8217(11)
O7 O 1.5352(14) 0.3288(12) 0.8491(12)
O8 O 1.2810(14) -0.0662(12) 0.9375(12)
O9 O 0.5213(12) 0.3545(11) 0.5815(11)
O10 O 0.3892(14) 0.1357(12) 0.5840(12)
O11 O -0.1574(13) 0.1407(12) 0.3867(12)
O12 O 0.1699(12) 0.5628(11) 0.3824(11)
O13 O 0.8309(14) 0.3334(12) 0.9918(12)
H4 H 0.901(15) 0.304(18) 1.052(14)
H5 H 0.89(2) 0.422(12) 1.067(12)
O14 O 0.6924(15) 0.1456(12) 0.5507(12)
H6 H 0.66(2) 0.054(10) 0.482(12)
H7 H 0.772(10) 0.162(13) 0.520(11)
C1 C 0.8155(18) 0.6907(16) 0.8479(15)
C2 C 0.6783(17) 0.7342(16) 0.8094(15)
C3 C 0.536(2) 0.6385(17) 0.7882(17)
H8 H 0.5232 0.5455 0.7973
C4 C 0.4071(17) 0.6826(15) 0.7521(17)
C5 C 0.5877(17) 0.9232(16) 0.7697(15)
C6 C 1.0270(19) 0.2517(16) 0.8270(15)
C7 C 1.1658(18) 0.2166(16) 0.8508(14)
C8 C 1.289(2) 0.3036(18) 0.8437(17)
H9 H 1.298(15) 0.373(14) 0.818(12)
C9 C 1.4171(18) 0.2595(17) 0.8639(15)
C10 C 1.278(2) 0.0422(18) 0.9080(17)
C11 C 0.3953(18) 0.2460(18) 0.5520(16)
C12 C 0.2516(17) 0.2744(16) 0.4871(15)
C13 C 0.1117(18) 0.1787(18) 0.4635(17)
H10 H 0.1010 0.0904 0.4822
C14 C -0.023(2) 0.2159(17) 0.4084(16)
C15 C 0.1551(18) 0.4465(16) 0.4078(15)
N5A N 0.7240(14) 0.5949(14) 0.5440(13)
N6A N 0.9874(15) 0.6474(14) 0.6128(13)
H3A H 1.0632 0.6193 0.6418
O9A O 0.4787(12) 0.6455(11) 0.4185(11)
O10A O 0.6108(14) 0.8643(12) 0.4160(12)
O11A O 1.1574(13) 0.8593(12) 0.6133(12)
O12A O 0.8301(12) 0.4372(11) 0.6176(11)
C11A C 0.6047(18) 0.7540(18) 0.4480(16)
C12A C 0.7484(17) 0.7256(16) 0.5129(15)
C13A C 0.8883(18) 0.8213(18) 0.5365(17)
H10A H 0.8990 0.9096 0.5178
C14A C 1.023(2) 0.7841(17) 0.5916(16)
C15A C 0.8449(18) 0.5535(16) 0.5922(15)
Nd1A Nd 0.27639(10) 0.70197(8) 0.24265(9)
N1_2 N 0.7032(15) -0.1296(13) 0.7952(13)
N2_2 N 0.4437(15) -0.1772(13) 0.7473(13)
H1_2 H 0.3688 -0.1462 0.7281
O1_2 O 0.9451(12) -0.2057(11) 0.8729(12)
O2_2 O 0.8008(12) -0.4342(10) 0.8540(11)
O3_2 O 0.2760(14) -0.3950(12) 0.7312(13)
O4_2 O 0.5991(12) 0.0447(10) 0.7615(11)
C1_2 C 0.8155(18) -0.3093(16) 0.8479(15)
C2_2 C 0.6783(17) -0.2658(16) 0.8094(15)
C3_2 C 0.536(2) -0.3615(17) 0.7882(17)
H8_2 H 0.5232 -0.4545 0.7973
C4_2 C 0.4071(17) -0.3174(15) 0.7521(17)
C5_2 C 0.5877(17) -0.0768(16) 0.7697(15)
N3_2 N 0.1506(15) 0.0855(14) 0.8749(13)
N4_2 N 0.4074(15) 0.1381(13) 0.8994(13)
H2_2 H 0.4884 0.1162 0.9190
O5_2 O -0.0971(13) 0.1475(12) 0.8092(12)
O6_2 O 0.0236(12) 0.3733(12) 0.8217(11)
O7_2 O 0.5352(14) 0.3288(12) 0.8491(12)
O8_2 O 0.2810(14) -0.0662(12) 0.9375(12)
C6_2 C 0.0270(19) 0.2517(16) 0.8270(15)
C7_2 C 0.1658(18) 0.2166(16) 0.8508(14)
C8_2 C 0.289(2) 0.3036(18) 0.8437(17)
H9_2 H 0.298(15) 0.373(14) 0.818(12)
C9_2 C 0.4171(18) 0.2595(17) 0.8639(15)
C10_2 C 0.278(2) 0.0422(18) 0.9080(17)
O13A O 0.1691(14) 0.6666(12) 0.0082(12)
H4A H 0.099(15) 0.696(18) -0.052(14)
H5A H 0.11(2) 0.578(12) -0.067(12)
O14A O 0.3076(15) 0.8544(12) 0.4493(12)
H6A H 0.34(2) 0.946(10) 0.518(12)
H7A H 0.228(10) 0.838(13) 0.480(11)
Cu1_2 Cu 0.9284(2) -0.0262(2) 0.8393(2)
N3_3 N 1.1506(15) 1.0855(14) 0.8749(13)
O5_3 O 0.9029(13) 1.1475(12) 0.8092(12)
Nd1_2 Nd 0.72361(10) 1.29803(8) 0.75735(9)
Nd1_3 Nd 1.72361(10) 0.29803(8) 0.75735(9)
O2A O 0.1992(12) 0.4342(10) 0.1460(11)
O4A O 0.4009(12) 0.9553(10) 0.2385(11)
O5A O 0.0971(13) 0.8525(12) 0.1908(12)
O6A O -0.0236(12) 0.6267(12) 0.1783(11)
O7A O 0.4648(14) 0.6712(12) 0.1509(12)
Nd1_4 Nd 0.72361(10) -0.70197(8) 0.75735(9)
Cu1_3 Cu -0.0716(2) -0.0262(2) 0.8393(2)
Nd1_5 Nd -0.27639(10) 0.29803(8) 0.75735(9)
loop_
_geom_bond_atom_site_label_1
_geom_bond_atom_site_label_2
_geom_bond_site_symmetry_1
_geom_bond_site_symmetry_2
Nd1 O2 1_555 1_555
Cu1 N1 1_555 1_555
Cu2 N5 1_555 1_555
N1 C2 1_555 1_555
N2 H1 1_555 1_555
N3 C7 1_555 1_555
N4 H2 1_555 1_555
N5 C12 1_555 1_555
N6 H3 1_555 1_555
O1 Cu1 1_555 1_555
O2 C1 1_555 1_555
O3 C4 1_555 1_555
O4 C5 1_555 1_555
O5 Nd1 1_555 1_555
O6 Nd1 1_555 1_555
O7 C9 1_555 1_555
O8 C10 1_555 1_555
O9 Nd1 1_555 1_555
O10 C11 1_555 1_555
O11 C14 1_555 1_555
O12 C15 1_555 1_555
O13 Nd1 1_555 1_555
H4 O13 1_555 1_555
H5 O13 1_555 1_555
O14 Nd1 1_555 1_555
H6 O14 1_555 1_555
H7 O14 1_555 1_555
C1 O1 1_555 1_555
C2 C1 1_555 1_555
C3 C2 1_555 1_555
H8 C3 1_555 1_555
C4 N2 1_555 1_555
C5 N1 1_555 1_555
C6 O5 1_555 1_555
C7 C6 1_555 1_555
C8 C7 1_555 1_555
H9 C8 1_555 1_555
C9 N4 1_555 1_555
C10 N3 1_555 1_555
C11 O9 1_555 1_555
C12 C11 1_555 1_555
C13 C12 1_555 1_555
H10 C13 1_555 1_555
C14 N6 1_555 1_555
C15 N5 1_555 1_555
N5A Cu2 1_555 1_555
N6A H3A 1_555 1_555
O9A Cu2 1_555 1_555
O10A C11A 1_555 1_555
O11A C14A 1_555 1_555
O12A Nd1 1_555 1_555
C11A O9A 1_555 1_555
C12A N5A 1_555 1_555
C13A C12A 1_555 1_555
H10A C13A 1_555 1_555
C14A N6A 1_555 1_555
C15A N5A 1_555 1_555
Nd1A O12 1_555 1_555
N1_2 C2_2 1_555 1_555
N2_2 H1_2 1_555 1_555
O1_2 C1_2 1_555 1_555
O2_2 C1_2 1_555 1_555
O3_2 C4_2 1_555 1_555
O4_2 Nd1 1_555 1_555
C1_2 C2_2 1_555 1_555
C2_2 C3_2 1_555 1_555
C3_2 H8_2 1_555 1_555
C4_2 N2_2 1_555 1_555
C5_2 N1_2 1_555 1_555
N3_2 C7_2 1_555 1_555
N4_2 H2_2 1_555 1_555
O5_2 C6_2 1_555 1_555
O6_2 C6_2 1_555 1_555
O7_2 Nd1 1_555 1_555
O8_2 C10_2 1_555 1_555
C6_2 C7_2 1_555 1_555
C7_2 C8_2 1_555 1_555
C8_2 H9_2 1_555 1_555
C9_2 N4_2 1_555 1_555
C10_2 N3_2 1_555 1_555
O13A Nd1A 1_555 1_555
H4A O13A 1_555 1_555
H5A O13A 1_555 1_555
O14A Nd1A 1_555 1_555
H6A O14A 1_555 1_555
H7A O14A 1_555 1_555
Cu1_2 N3 1_555 1_555
N3_3 Cu1 1_555 1_555
O5_3 Cu1 1_555 1_555
Nd1_2 O4 1_555 1_555
Nd1_3 O7 1_555 1_555
O2A Nd1A 1_555 1_555
O4A Nd1A 1_555 1_555
O5A Nd1A 1_555 1_555
O6A Nd1A 1_555 1_555
O7A Nd1A 1_555 1_555
Nd1_4 O2_2 1_555 1_555
Cu1_3 N3_2 1_555 1_555
Nd1_5 O5_2 1_555 1_555
Cu2 O9 1_555 1_555
N2 C5 1_555 1_555
N4 C10 1_555 1_555
N6 C15 1_555 1_555
O5 Cu1_2 1_555 1_555
O6 C6 1_555 1_555
C3 C4 1_555 1_555
C8 C9 1_555 1_555
C13 C14 1_555 1_555
N6A C15A 1_555 1_555
O9A Nd1A 1_555 1_555
O12A C15A 1_555 1_555
C11A C12A 1_555 1_555
C13A C14A 1_555 1_555
N1_2 Cu1_2 1_555 1_555
N2_2 C5_2 1_555 1_555
O1_2 Cu1_2 1_555 1_555
O4_2 C5_2 1_555 1_555
C3_2 C4_2 1_555 1_555
N4_2 C10_2 1_555 1_555
O5_2 Cu1_3 1_555 1_555
O6_2 Nd1_5 1_555 1_555
O7_2 C9_2 1_555 1_555
C8_2 C9_2 1_555 1_555
O5_3 Nd1_2 1_555 1_555

#END
