
#######################################################################
#
#                 Cambridge Crystallographic Data Centre
#                                CCDC 
#
#######################################################################
#
# If this CIF has been generated from an entry in the Cambridge 
# Structural Database, then it will include bibliographic, chemical, 
# crystal, experimental, refinement or atomic coordinate data resulting 
# from the CCDC's data processing and validation procedures.
#
#######################################################################

data_OCITOL04
_symmetry_cell_setting           monoclinic
_symmetry_space_group_name_H-M   'C 2/m'
_symmetry_Int_Tables_number      12
_space_group_name_Hall           '-C 2y'
loop_
_symmetry_equiv_pos_site_id
_symmetry_equiv_pos_as_xyz
1 x,y,z
2 1/2+x,1/2+y,z
3 -x,y,-z
4 1/2-x,1/2+y,-z
5 -x,-y,-z
6 1/2-x,1/2-y,-z
7 x,-y,z
8 1/2+x,1/2-y,z
_cell_length_a                   13.237(5)
_cell_length_b                   6.935(3)
_cell_length_c                   9.775(3)
_cell_angle_alpha                90
_cell_angle_beta                 107.88(2)
_cell_angle_gamma                90
_cell_volume                     853.992
loop_
_atom_site_label
_atom_site_type_symbol
_atom_site_fract_x
_atom_site_fract_y
_atom_site_fract_z
Cu1 Cu 0.04175(3) 0.0000 0.34227(3)
Cl1 Cl -0.12463(5) 0.0000 0.37025(7)
Cl2 Cl 0.18073(6) 0.0000 0.25847(8)
N1 N 0.0393(1) 0.2978(3) 0.3308(2)
C1 C 0.1050(2) 0.3987(3) 0.4342(2)
C2 C -0.1518(2) 0.3991(3) -0.0202(2)
C3 C -0.0911(2) 0.2994(3) 0.0961(2)
C4 C -0.0261(1) 0.3975(3) 0.2170(2)
H1 H 0.153(2) 0.336(5) 0.512(3)
H2 H -0.191(2) 0.328(4) -0.102(3)
H3 H -0.093(2) 0.162(5) 0.100(3)
Cl1B Cl 0.12463(5) 0.0000 0.62975(7)
N1F N 0.0393(1) -0.2978(3) 0.3308(2)
Cu1B Cu -0.04175(3) 0.0000 0.65773(3)
C1F C 0.1050(2) 0.6013(3) 0.4342(2)
C4F C -0.0261(1) 0.6025(3) 0.2170(2)
C2F C -0.1518(2) 0.6009(3) -0.0202(2)
Cl2B Cl -0.18073(6) 0.0000 0.74153(8)
N1D N -0.0393(1) -0.2978(3) 0.6692(2)
N1B N -0.0393(1) 0.2978(3) 0.6692(2)
N1F_2 N 0.0393(1) 0.7022(3) 0.3308(2)
H1F H 0.153(2) 0.664(5) 0.512(3)
C3F C -0.0911(2) 0.7006(3) 0.0961(2)
H2F H -0.191(2) 0.672(4) -0.102(3)
C1D C -0.1050(2) -0.3987(3) 0.5658(2)
C4D C 0.0261(1) -0.3975(3) 0.7830(2)
H3F H -0.093(2) 0.838(5) 0.100(3)
C1B C -0.1050(2) -0.6013(3) 0.5658(2)
H1D H -0.153(2) -0.336(5) 0.488(3)
C3D C 0.0911(2) -0.2994(3) 0.9039(2)
C4B C 0.0261(1) -0.6025(3) 0.7830(2)
C2D C 0.1518(2) -0.3991(3) 1.0202(2)
H3D H 0.093(2) -0.162(5) 0.900(3)
C2B C 0.1518(2) -0.6009(3) 1.0202(2)
H2D H 0.191(2) -0.328(4) 1.102(3)
Cu1_2 Cu 0.04175(3) 1.0000 0.34227(3)
N1B_2 N -0.0393(1) -0.7022(3) 0.6692(2)
H1B H -0.153(2) -0.664(5) 0.488(3)
C3B C 0.0911(2) -0.7006(3) 0.9039(2)
H2B H 0.191(2) -0.672(4) 1.102(3)
Cu1B_2 Cu -0.04175(3) -1.0000 0.65773(3)
H3B H 0.093(2) -0.838(5) 0.900(3)
loop_
_geom_bond_atom_site_label_1
_geom_bond_atom_site_label_2
_geom_bond_site_symmetry_1
_geom_bond_site_symmetry_2
Cu1 Cl1 1_555 1_555
Cl1 Cu1B 1_555 1_555
Cl2 Cu1 1_555 1_555
N1 Cu1 1_555 1_555
C1 N1 1_555 1_555
C2 C3 1_555 1_555
C3 C4 1_555 1_555
C4 N1 1_555 1_555
H1 C1 1_555 1_555
H2 C2 1_555 1_555
H3 C3 1_555 1_555
Cl1B Cu1 1_555 1_555
N1F Cu1 1_555 1_555
Cu1B Cl1B 1_555 1_555
C1F C1 1_555 1_555
C4F C4 1_555 1_555
C2F C2 1_555 1_555
Cl2B Cu1B 1_555 1_555
N1D Cu1B 1_555 1_555
N1B Cu1B 1_555 1_555
N1F_2 C1F 1_555 1_555
H1F C1F 1_555 1_555
C3F C4F 1_555 1_555
H2F C2F 1_555 1_555
C1D N1D 1_555 1_555
C4D N1D 1_555 1_555
H3F C3F 1_555 1_555
C1B C1D 1_555 1_555
H1D C1D 1_555 1_555
C3D C4D 1_555 1_555
C4B C4D 1_555 1_555
C2D C3D 1_555 1_555
H3D C3D 1_555 1_555
C2B C2D 1_555 1_555
H2D C2D 1_555 1_555
Cu1_2 N1F_2 1_555 1_555
N1B_2 C1B 1_555 1_555
H1B C1B 1_555 1_555
C3B C4B 1_555 1_555
H2B C2B 1_555 1_555
Cu1B_2 N1B_2 1_555 1_555
H3B C3B 1_555 1_555
C4F N1F_2 1_555 1_555
C2F C3F 1_555 1_555
C4B N1B_2 1_555 1_555
C2B C3B 1_555 1_555

#END
