
#######################################################################
#
#                 Cambridge Crystallographic Data Centre
#                                CCDC 
#
#######################################################################
#
# If this CIF has been generated from an entry in the Cambridge 
# Structural Database, then it will include bibliographic, chemical, 
# crystal, experimental, refinement or atomic coordinate data resulting 
# from the CCDC's data processing and validation procedures.
#
#######################################################################

data_OCIWOM
_symmetry_cell_setting           monoclinic
_symmetry_space_group_name_H-M   'P 21/c'
_symmetry_Int_Tables_number      14
_space_group_name_Hall           '-P 2ybc'
loop_
_symmetry_equiv_pos_site_id
_symmetry_equiv_pos_as_xyz
1 x,y,z
2 x,1/2-y,1/2+z
3 -x,-y,-z
4 -x,1/2+y,1/2-z
_cell_length_a                   15.206(3)
_cell_length_b                   8.029(2)
_cell_length_c                   14.338(3)
_cell_angle_alpha                90
_cell_angle_beta                 113.64(3)
_cell_angle_gamma                90
_cell_volume                     1603.61
loop_
_atom_site_label
_atom_site_type_symbol
_atom_site_fract_x
_atom_site_fract_y
_atom_site_fract_z
Cu1 Cu 0.00000 0.00000 0.00000
Cl1 Cl -0.47338(4) 0.30543(7) -0.02303(4)
O1 O -0.12386(9) -0.05828(16) -0.11352(9)
O2 O -0.14437(11) -0.32230(17) -0.07367(11)
O3 O -0.30464(9) -0.06214(16) -0.26480(9)
O4 O -0.00511(10) -0.24527(16) 0.09826(10)
N1 N 0.07019(11) -0.38277(19) 0.42666(11)
C1 C -0.16638(14) -0.1987(2) -0.13067(14)
C2 C -0.25139(14) -0.2169(2) -0.23569(14)
C3 C -0.34166(13) 0.0120(2) -0.20305(14)
C4 C -0.33748(14) -0.0487(3) -0.11064(15)
C5 C -0.37910(15) 0.0409(3) -0.05588(16)
C6 C -0.42371(14) 0.1912(3) -0.09351(15)
C7 C -0.42796(14) 0.2538(3) -0.18455(15)
C8 C -0.38754(14) 0.1638(2) -0.23964(15)
C9 C -0.20999(16) -0.2371(3) -0.31569(16)
C10 C -0.31690(15) -0.3633(3) -0.24104(17)
C11 C 0.04277(13) -0.4106(2) 0.32686(13)
C12 C 0.08578(13) -0.3374(2) 0.26859(13)
C13 C 0.16057(14) -0.2250(2) 0.31693(15)
C14 C 0.18919(15) -0.1950(3) 0.41984(15)
C15 C 0.14373(14) -0.2771(2) 0.47291(14)
C16 C 0.05133(16) -0.3793(3) 0.15752(14)
H1 H -0.3047(16) -0.148(3) -0.0835(16)
H2 H -0.3717(16) 0.006(3) 0.0108(18)
H3 H -0.4587(17) 0.356(3) -0.2105(17)
H4 H -0.3894(15) 0.203(3) -0.3006(16)
H5 H -0.1743(18) -0.335(3) -0.3036(17)
H6 H -0.1678(17) -0.146(3) -0.3132(17)
H7 H -0.2631(17) -0.244(3) -0.3842(18)
H8 H -0.3667(15) -0.371(3) -0.3077(16)
H9 H -0.3458(17) -0.351(3) -0.1945(18)
H10 H -0.2790(17) -0.467(3) -0.2263(17)
H11 H -0.0092(14) -0.487(2) 0.2966(15)
H12 H 0.1893(16) -0.177(3) 0.2773(16)
H13 H 0.2393(17) -0.122(3) 0.4538(17)
H14 H 0.1631(14) -0.263(3) 0.5456(15)
H15 H 0.1076(17) -0.404(3) 0.1408(16)
H16 H 0.0122(16) -0.484(3) 0.1429(17)
H17 H -0.050(2) -0.280(3) 0.043(2)
Cl1B Cl 0.47338(4) -0.30543(7) 0.02303(4)
O1B O 0.12386(9) 0.05828(16) 0.11352(9)
O2B O 0.14437(11) 0.32230(17) 0.07367(11)
O3B O 0.30464(9) 0.06214(16) 0.26480(9)
C1B C 0.16638(14) 0.1987(2) 0.13067(14)
C2B C 0.25139(14) 0.2169(2) 0.23569(14)
C3B C 0.34166(13) -0.0120(2) 0.20305(14)
C4B C 0.33748(14) 0.0487(3) 0.11064(15)
C5B C 0.37910(15) -0.0409(3) 0.05588(16)
C6B C 0.42371(14) -0.1912(3) 0.09351(15)
C7B C 0.42796(14) -0.2538(3) 0.18455(15)
C8B C 0.38754(14) -0.1638(2) 0.23964(15)
C9B C 0.20999(16) 0.2371(3) 0.31569(16)
C10B C 0.31690(15) 0.3633(3) 0.24104(17)
H1B H 0.3047(16) 0.148(3) 0.0835(16)
H2B H 0.3717(16) -0.006(3) -0.0108(18)
H3B H 0.4587(17) -0.356(3) 0.2105(17)
H4B H 0.3894(15) -0.203(3) 0.3006(16)
H5B H 0.1743(18) 0.335(3) 0.3036(17)
H6B H 0.1678(17) 0.146(3) 0.3132(17)
H7B H 0.2631(17) 0.244(3) 0.3842(18)
H8B H 0.3667(15) 0.371(3) 0.3077(16)
H9B H 0.3458(17) 0.351(3) 0.1945(18)
H10B H 0.2790(17) 0.467(3) 0.2263(17)
O4B O 0.00511(10) 0.24527(16) -0.09826(10)
N1B N -0.07019(11) 0.38277(19) -0.42666(11)
C11B C -0.04277(13) 0.4106(2) -0.32686(13)
C12B C -0.08578(13) 0.3374(2) -0.26859(13)
C13B C -0.16057(14) 0.2250(2) -0.31693(15)
C14B C -0.18919(15) 0.1950(3) -0.41984(15)
C15B C -0.14373(14) 0.2771(2) -0.47291(14)
C16B C -0.05133(16) 0.3793(3) -0.15752(14)
H11B H 0.0092(14) 0.487(2) -0.2966(15)
H12B H -0.1893(16) 0.177(3) -0.2773(16)
H13B H -0.2393(17) 0.122(3) -0.4538(17)
H14B H -0.1631(14) 0.263(3) -0.5456(15)
H15B H -0.1076(17) 0.404(3) -0.1408(16)
H16B H -0.0122(16) 0.484(3) -0.1429(17)
H17B H 0.050(2) 0.280(3) -0.043(2)
N1A N 0.07019(11) -0.11723(19) -0.07334(11)
N1C N -0.07019(11) 0.11723(19) 0.07334(11)
Cu1A Cu 0.00000 -0.50000 0.50000
Cu1A_2 Cu 0.00000 0.50000 -0.50000
loop_
_geom_bond_atom_site_label_1
_geom_bond_atom_site_label_2
_geom_bond_site_symmetry_1
_geom_bond_site_symmetry_2
Cu1 O1 1_555 1_555
Cl1 C6 1_555 1_555
O1 C1 1_555 1_555
O2 C1 1_555 1_555
O3 C2 1_555 1_555
O4 Cu1 1_555 1_555
N1 C11 1_555 1_555
C1 C2 1_555 1_555
C2 C9 1_555 1_555
C3 O3 1_555 1_555
C4 C3 1_555 1_555
C5 C4 1_555 1_555
C6 C5 1_555 1_555
C7 C6 1_555 1_555
C8 C3 1_555 1_555
C9 H5 1_555 1_555
C10 C2 1_555 1_555
C11 C12 1_555 1_555
C12 C13 1_555 1_555
C13 C14 1_555 1_555
C14 C15 1_555 1_555
C15 N1 1_555 1_555
C16 O4 1_555 1_555
H1 C4 1_555 1_555
H2 C5 1_555 1_555
H3 C7 1_555 1_555
H4 C8 1_555 1_555
H6 C9 1_555 1_555
H7 C9 1_555 1_555
H8 C10 1_555 1_555
H9 C10 1_555 1_555
H10 C10 1_555 1_555
H11 C11 1_555 1_555
H12 C13 1_555 1_555
H13 C14 1_555 1_555
H14 C15 1_555 1_555
H15 C16 1_555 1_555
H16 C16 1_555 1_555
H17 O4 1_555 1_555
Cl1B C6B 1_555 1_555
O1B Cu1 1_555 1_555
O2B C1B 1_555 1_555
O3B C2B 1_555 1_555
C1B O1B 1_555 1_555
C2B C1B 1_555 1_555
C3B O3B 1_555 1_555
C4B C3B 1_555 1_555
C5B C4B 1_555 1_555
C6B C5B 1_555 1_555
C7B C6B 1_555 1_555
C8B C3B 1_555 1_555
C9B C2B 1_555 1_555
C10B C2B 1_555 1_555
H1B C4B 1_555 1_555
H2B C5B 1_555 1_555
H3B C7B 1_555 1_555
H4B C8B 1_555 1_555
H5B C9B 1_555 1_555
H6B C9B 1_555 1_555
H7B C9B 1_555 1_555
H8B C10B 1_555 1_555
H9B C10B 1_555 1_555
H10B C10B 1_555 1_555
O4B Cu1 1_555 1_555
N1B C11B 1_555 1_555
C11B C12B 1_555 1_555
C12B C13B 1_555 1_555
C13B C14B 1_555 1_555
C14B C15B 1_555 1_555
C15B N1B 1_555 1_555
C16B O4B 1_555 1_555
H11B C11B 1_555 1_555
H12B C13B 1_555 1_555
H13B C14B 1_555 1_555
H14B C15B 1_555 1_555
H15B C16B 1_555 1_555
H16B C16B 1_555 1_555
H17B O4B 1_555 1_555
N1A Cu1 1_555 1_555
N1C Cu1 1_555 1_555
Cu1A N1 1_555 1_555
Cu1A_2 N1B 1_555 1_555
C7 C8 1_555 1_555
C12 C16 1_555 1_555
C7B C8B 1_555 1_555
C12B C16B 1_555 1_555

#END
