
#######################################################################
#
#                 Cambridge Crystallographic Data Centre
#                                CCDC 
#
#######################################################################
#
# If this CIF has been generated from an entry in the Cambridge 
# Structural Database, then it will include bibliographic, chemical, 
# crystal, experimental, refinement or atomic coordinate data resulting 
# from the CCDC's data processing and validation procedures.
#
#######################################################################

data_OCIXIH
_symmetry_cell_setting           monoclinic
_symmetry_space_group_name_H-M   'P 21/c'
_symmetry_Int_Tables_number      14
_space_group_name_Hall           '-P 2ybc'
loop_
_symmetry_equiv_pos_site_id
_symmetry_equiv_pos_as_xyz
1 x,y,z
2 x,1/2-y,1/2+z
3 -x,-y,-z
4 -x,1/2+y,1/2-z
_cell_length_a                   10.805(3)
_cell_length_b                   13.061(5)
_cell_length_c                   19.337(10)
_cell_angle_alpha                90
_cell_angle_beta                 90.20(4)
_cell_angle_gamma                90
_cell_volume                     2728.9
loop_
_atom_site_label
_atom_site_type_symbol
_atom_site_fract_x
_atom_site_fract_y
_atom_site_fract_z
Mo1 Mo 1.16339(10) 0.34412(8) 0.05505(6)
Mo2 Mo 1.17806(10) 0.33530(8) -0.11292(6)
Mo3 Mo 0.89430(10) 0.41784(8) -0.12368(5)
Mo4 Mo 0.88156(10) 0.42497(8) 0.04141(5)
Cu1 Cu 1.5000 0.0000 -0.5000
Cu2 Cu 1.38047(14) -0.25216(11) -0.18610(8)
Cu3 Cu 1.24613(15) 0.05804(12) -0.11978(8)
N1 N 1.4664(9) -0.0926(7) -0.4207(5)
N2 N 1.4263(9) -0.1901(7) -0.2959(5)
N3 N 1.2061(9) -0.2901(8) -0.2100(5)
N4 N 0.9570(10) -0.3099(8) -0.2401(5)
N5 N 1.2186(10) 0.0052(7) -0.0246(5)
N6 N 1.2148(12) -0.0463(9) 0.1129(6)
C1 C 1.5314(11) 0.0626(9) -0.3674(6)
C2 C 1.4861(10) -0.0449(9) -0.3595(6)
C3 C 1.4646(10) -0.0906(9) -0.2968(6)
C4 C 1.4114(11) -0.2400(9) -0.3561(6)
C5 C 1.4301(11) -0.1915(9) -0.4200(6)
C6 C 1.1861(14) -0.1193(10) -0.1700(6)
C7 C 1.1238(12) -0.2141(9) -0.1974(6)
C8 C 1.0014(11) -0.2218(10) -0.2110(6)
C9 C 1.0373(12) -0.3867(10) -0.2518(7)
C10 C 1.1650(12) -0.3793(10) -0.2373(6)
C11 C 1.4049(11) 0.1025(8) -0.0148(7)
C12 C 1.3071(11) 0.0399(9) 0.0202(7)
C13 C 1.3054(13) 0.0120(11) 0.0894(8)
C14 C 1.1268(14) -0.0814(10) 0.0697(8)
C15 C 1.1273(12) -0.0580(9) -0.0010(7)
O1 O 1.1014(8) 0.2241(6) 0.0534(4)
O2 O 1.2730(7) 0.3416(6) 0.1191(4)
O3 O 1.2945(7) 0.3263(6) -0.1723(4)
O4 O 1.1258(7) 0.2112(6) -0.1060(4)
O5 O 1.0262(7) 0.4162(6) 0.1019(4)
O6 O 0.8271(7) 0.3039(6) 0.0454(4)
O7 O 0.8422(8) 0.2958(6) -0.1182(4)
O8 O 0.8106(8) 0.4702(6) -0.1898(4)
O9 O 1.0513(7) 0.3956(6) -0.1677(4)
O10 O 1.2638(7) 0.3421(6) -0.0251(4)
O11 O 1.0273(7) 0.4062(5) -0.0315(4)
O12 O 1.2110(6) 0.5060(6) -0.0990(4)
O13 O 1.1957(7) 0.5232(5) 0.0435(4)
O14 O 1.5375(7) -0.2010(6) -0.1478(4)
O15 O 1.2888(8) 0.1100(6) -0.2121(4)
O16 O 1.5395(7) 0.0988(5) -0.4274(4)
O17 O 1.5597(7) 0.1087(6) -0.3122(4)
O18 O 1.1232(7) -0.0401(6) -0.1562(4)
O19 O 1.3016(7) -0.1223(6) -0.1597(4)
O20 O 1.4936(8) 0.1335(7) 0.0218(4)
O21 O 1.3925(8) 0.1185(6) -0.0786(4)
N1B N 1.5336(9) 0.0926(7) -0.5793(5)
N2B N 1.5737(9) 0.1901(7) -0.7041(5)
C1B C 1.4686(11) -0.0626(9) -0.6326(6)
C2B C 1.5139(10) 0.0449(9) -0.6405(6)
C3B C 1.5354(10) 0.0906(9) -0.7032(6)
C4B C 1.5886(11) 0.2400(9) -0.6439(6)
C5B C 1.5699(11) 0.1915(9) -0.5800(6)
O16B O 1.4605(7) -0.0988(5) -0.5726(4)
O17B O 1.4403(7) -0.1087(6) -0.6878(4)
Cu2B Cu 1.61953(14) 0.25216(11) -0.81390(8)
N3B N 1.7939(9) 0.2901(8) -0.7900(5)
N4B N 2.0430(10) 0.3099(8) -0.7599(5)
C6B C 1.8139(14) 0.1193(10) -0.8300(6)
C7B C 1.8762(12) 0.2141(9) -0.8026(6)
C8B C 1.9986(11) 0.2218(10) -0.7890(6)
C9B C 1.9627(12) 0.3867(10) -0.7482(7)
C10B C 1.8350(12) 0.3793(10) -0.7627(6)
O18B O 1.8768(7) 0.0401(6) -0.8438(4)
O19B O 1.6984(7) 0.1223(6) -0.8403(4)
O14B O 1.4625(7) 0.2010(6) -0.8522(4)
Cu3B Cu 1.75387(15) -0.05804(12) -0.88022(8)
N5B N 1.7814(10) -0.0052(7) -0.9754(5)
N6B N 1.7852(12) 0.0463(9) -1.1129(6)
C11B C 1.5951(11) -0.1025(8) -0.9852(7)
C12B C 1.6929(11) -0.0399(9) -1.0202(7)
C13B C 1.6946(13) -0.0120(11) -1.0894(8)
C14B C 1.8732(14) 0.0814(10) -1.0697(8)
C15B C 1.8727(12) 0.0580(9) -0.9990(7)
O20B O 1.5064(8) -0.1335(7) -1.0218(4)
O21B O 1.6075(8) -0.1185(6) -0.9214(4)
O4B O 1.8742(7) -0.2112(6) -0.8940(4)
O15B O 1.7112(8) -0.1100(6) -0.7879(4)
O5B O 0.9738(7) 0.5838(6) -0.1019(4)
O13B O 0.8043(7) 0.4768(5) -0.0435(4)
O11B O 0.9727(7) 0.5938(5) 0.0315(4)
O12B O 0.7890(6) 0.4940(6) 0.0990(4)
O17C O 1.4403(7) -0.3913(6) -0.1878(4)
Mo3B Mo 1.10570(10) 0.58216(8) 0.12368(5)
Mo4B Mo 1.11844(10) 0.57503(8) -0.04141(5)
Cu2C Cu 1.61953(14) 0.24784(11) -0.31390(8)
Cu2A Cu 1.38047(14) -0.24784(11) -0.68610(8)
O17A O 1.5597(7) 0.3913(6) -0.8122(4)
Mo1B Mo 0.83661(10) 0.65588(8) -0.05505(6)
Mo2B Mo 0.82194(10) 0.66470(8) 0.11292(6)
O7B O 1.1578(8) 0.7042(6) 0.1182(4)
O8B O 1.1894(8) 0.5298(6) 0.1898(4)
O9B O 0.9487(7) 0.6044(6) 0.1677(4)
O6B O 1.1729(7) 0.6961(6) -0.0454(4)
O1B O 0.8986(8) 0.7759(6) -0.0534(4)
O2B O 0.7270(7) 0.6584(6) -0.1191(4)
O10B O 0.7362(7) 0.6579(6) 0.0251(4)
O3B O 0.7055(7) 0.6737(6) 0.1723(4)
O4B_2 O 0.8742(7) 0.7888(6) 0.1060(4)
Cu3B_2 Cu 0.75387(15) 0.94196(12) 0.11978(8)
loop_
_geom_bond_atom_site_label_1
_geom_bond_atom_site_label_2
_geom_bond_site_symmetry_1
_geom_bond_site_symmetry_2
Mo1 O1 1_555 1_555
Mo2 O3 1_555 1_555
Mo3 O7 1_555 1_555
Mo4 O5 1_555 1_555
Cu1 N1 1_555 1_555
Cu2 N2 1_555 1_555
Cu3 N5 1_555 1_555
N1 C2 1_555 1_555
N2 C3 1_555 1_555
N3 Cu2 1_555 1_555
N4 C8 1_555 1_555
N5 C12 1_555 1_555
N6 C13 1_555 1_555
C1 C2 1_555 1_555
C2 C3 1_555 1_555
C4 N2 1_555 1_555
C5 N1 1_555 1_555
C6 C7 1_555 1_555
C7 N3 1_555 1_555
C8 C7 1_555 1_555
C9 N4 1_555 1_555
C10 N3 1_555 1_555
C11 C12 1_555 1_555
C12 C13 1_555 1_555
C14 N6 1_555 1_555
C15 N5 1_555 1_555
O2 Mo1 1_555 1_555
O4 Mo2 1_555 1_555
O5 Mo1 1_555 1_555
O6 Mo4 1_555 1_555
O8 Mo3 1_555 1_555
O9 Mo2 1_555 1_555
O10 Mo1 1_555 1_555
O11 Mo1 1_555 1_555
O12 Mo2 1_555 1_555
O13 Mo1 1_555 1_555
O14 Cu2 1_555 1_555
O15 Cu3 1_555 1_555
O16 Cu1 1_555 1_555
O17 C1 1_555 1_555
O18 Cu3 1_555 1_555
O19 Cu2 1_555 1_555
O20 C11 1_555 1_555
O21 Cu3 1_555 1_555
N1B Cu1 1_555 1_555
N2B C3B 1_555 1_555
C1B C2B 1_555 1_555
C2B N1B 1_555 1_555
C3B C2B 1_555 1_555
C4B N2B 1_555 1_555
C5B N1B 1_555 1_555
O16B Cu1 1_555 1_555
O17B C1B 1_555 1_555
Cu2B N2B 1_555 1_555
N3B Cu2B 1_555 1_555
N4B C8B 1_555 1_555
C6B C7B 1_555 1_555
C7B N3B 1_555 1_555
C8B C7B 1_555 1_555
C9B N4B 1_555 1_555
C10B N3B 1_555 1_555
O18B C6B 1_555 1_555
O19B Cu2B 1_555 1_555
O14B Cu2B 1_555 1_555
Cu3B O18B 1_555 1_555
N5B Cu3B 1_555 1_555
N6B C13B 1_555 1_555
C11B C12B 1_555 1_555
C12B N5B 1_555 1_555
C13B C12B 1_555 1_555
C14B N6B 1_555 1_555
C15B N5B 1_555 1_555
O20B C11B 1_555 1_555
O21B Cu3B 1_555 1_555
O4B Cu3B 1_555 1_555
O15B Cu3B 1_555 1_555
O5B Mo3 1_555 1_555
O13B Mo3 1_555 1_555
O11B Mo4 1_555 1_555
O12B Mo4 1_555 1_555
O17C Cu2 1_555 1_555
Mo3B O5 1_555 1_555
Mo4B O11 1_555 1_555
Cu2C O17 1_555 1_555
Cu2A O17B 1_555 1_555
O17A Cu2B 1_555 1_555
Mo1B O5B 1_555 1_555
Mo2B O11B 1_555 1_555
O7B Mo3B 1_555 1_555
O8B Mo3B 1_555 1_555
O9B Mo3B 1_555 1_555
O6B Mo4B 1_555 1_555
O1B Mo1B 1_555 1_555
O2B Mo1B 1_555 1_555
O10B Mo1B 1_555 1_555
O3B Mo2B 1_555 1_555
O4B_2 Mo2B 1_555 1_555
Cu3B_2 O4B_2 1_555 1_555
Mo2 O10 1_555 1_555
Mo2 O11 1_555 1_555
Mo3 O9 1_555 1_555
Mo3 O11 1_555 1_555
Mo4 O11 1_555 1_555
Mo4 O13B 1_555 1_555
Cu3 O4 1_555 1_555
Cu3 O19 1_555 1_555
C1 O16 1_555 1_555
C4 C5 1_555 1_555
C6 O18 1_555 1_555
C6 O19 1_555 1_555
C9 C10 1_555 1_555
C11 O21 1_555 1_555
C14 C15 1_555 1_555
O12 Mo4B 1_555 1_555
O13 Mo3B 1_555 1_555
O13 Mo4B 1_555 1_555
C1B O16B 1_555 1_555
C4B C5B 1_555 1_555
C6B O19B 1_555 1_555
C9B C10B 1_555 1_555
O19B Cu3B 1_555 1_555
C11B O21B 1_555 1_555
C14B C15B 1_555 1_555
O5B Mo4B 1_555 1_555
O13B Mo1B 1_555 1_555
O11B Mo1B 1_555 1_555
O11B Mo3B 1_555 1_555
O11B Mo4B 1_555 1_555
O12B Mo2B 1_555 1_555
Mo2B O9B 1_555 1_555
Mo2B O10B 1_555 1_555

#END
