
#######################################################################
#
#                 Cambridge Crystallographic Data Centre
#                                CCDC 
#
#######################################################################
#
# If this CIF has been generated from an entry in the Cambridge 
# Structural Database, then it will include bibliographic, chemical, 
# crystal, experimental, refinement or atomic coordinate data resulting 
# from the CCDC's data processing and validation procedures.
#
#######################################################################

data_OCIXON
_symmetry_cell_setting           orthorhombic
_symmetry_space_group_name_H-M   'P n m a'
_symmetry_Int_Tables_number      62
_space_group_name_Hall           '-P 2ac 2n'
loop_
_symmetry_equiv_pos_site_id
_symmetry_equiv_pos_as_xyz
1 x,y,z
2 1/2+x,y,1/2-z
3 x,1/2-y,z
4 1/2-x,1/2+y,1/2+z
5 -x,-y,-z
6 1/2-x,-y,1/2+z
7 -x,1/2+y,-z
8 1/2+x,1/2-y,1/2-z
_cell_length_a                   12.3851(15)
_cell_length_b                   7.6044(9)
_cell_length_c                   12.7880(14)
_cell_angle_alpha                90
_cell_angle_beta                 90
_cell_angle_gamma                90
_cell_volume                     1204.39
loop_
_atom_site_label
_atom_site_type_symbol
_atom_site_fract_x
_atom_site_fract_y
_atom_site_fract_z
Mo1 Mo 0.83827(11) 0.2500 0.51427(9)
Mo2 Mo 1.01236(7) -0.00087(11) 0.63608(6)
Cu1 Cu 0.6135(2) 0.2500 0.32447(14)
Cu2 Cu 0.7371(2) 0.2500 0.7849(2)
O1 O 0.8934(6) 0.0127(8) 0.5082(5)
O2 O 0.9848(7) 0.2500 0.6125(7)
O3 O 1.1234(6) 0.0453(8) 0.7110(5)
O4 O 0.9135(6) -0.0509(8) 0.7268(5)
O5 O 0.7401(9) 0.2500 0.4168(7)
O6 O 0.9642(8) 0.2500 0.3930(6)
O7 O 0.7649(9) 0.2500 0.6289(7)
N1 N 0.4897(11) 0.2500 0.4312(10)
N2 N 0.3383(11) 0.2500 0.5952(10)
C1 C 0.5176(13) 0.2500 0.5332(11)
C2 C 0.3816(14) 0.2500 0.4137(12)
C3 C 0.4427(13) 0.2500 0.6148(12)
C4 C 0.3050(14) 0.2500 0.4933(9)
O1B O 0.8934(6) 0.4873(8) 0.5082(5)
Mo2B Mo 1.01236(7) 0.50087(11) 0.63608(6)
O4C O 0.5865(6) 0.4491(8) 0.2268(5)
O3A O 0.6234(6) 0.0453(8) 0.7890(5)
O1D O 1.1066(6) -0.0127(8) 0.4918(5)
O6D O 1.0358(8) -0.2500 0.6070(6)
O4E O 0.5865(6) 0.0509(8) 0.2268(5)
O3G O 0.6234(6) 0.4547(8) 0.7890(5)
N2A N 0.8383(11) 0.2500 0.9048(10)
Mo2D Mo 0.98764(7) 0.00087(11) 0.36392(6)
Cu2A Cu 1.2371(2) 0.2500 0.7151(2)
Cu1C Cu 0.8865(2) -0.2500 0.82447(14)
Mo2F Mo 0.98764(7) 0.49913(11) 0.36392(6)
Cu2A_2 Cu 0.2371(2) 0.2500 0.7151(2)
O1F O 1.1066(6) 0.5127(8) 0.4918(5)
O3B O 1.1234(6) 0.4547(8) 0.7110(5)
O4B O 0.9135(6) 0.5509(8) 0.7268(5)
O6D_2 O 1.0358(8) 0.7500 0.6070(6)
Mo2C Mo 0.48764(7) 0.49913(11) 0.13608(6)
Mo2A Mo 0.51236(7) -0.00087(11) 0.86392(6)
loop_
_geom_bond_atom_site_label_1
_geom_bond_atom_site_label_2
_geom_bond_site_symmetry_1
_geom_bond_site_symmetry_2
Mo1 O1 1_555 1_555
Mo2 O1 1_555 1_555
Cu1 O5 1_555 1_555
Cu2 O7 1_555 1_555
O1 Mo2D 1_555 1_555
O2 Mo1 1_555 1_555
O3 Mo2 1_555 1_555
O4 Mo2 1_555 1_555
O5 Mo1 1_555 1_555
O6 Mo1 1_555 1_555
O7 Mo1 1_555 1_555
N1 Cu1 1_555 1_555
N2 C3 1_555 1_555
C1 N1 1_555 1_555
C2 N1 1_555 1_555
C3 C1 1_555 1_555
C4 N2 1_555 1_555
O1B Mo1 1_555 1_555
Mo2B O2 1_555 1_555
O4C Cu1 1_555 1_555
O3A Cu2 1_555 1_555
O1D Mo2 1_555 1_555
O6D Mo2 1_555 1_555
O4E Cu1 1_555 1_555
O3G Cu2 1_555 1_555
N2A Cu2 1_555 1_555
Mo2D O6 1_555 1_555
Cu2A O3 1_555 1_555
Cu1C O4 1_555 1_555
Mo2F O6 1_555 1_555
Cu2A_2 N2 1_555 1_555
O1F Mo2B 1_555 1_555
O3B Mo2B 1_555 1_555
O4B Mo2B 1_555 1_555
O6D_2 Mo2B 1_555 1_555
Mo2C O4C 1_555 1_555
Mo2A O3A 1_555 1_555
Mo2 O2 1_555 1_555
C2 C4 1_555 1_555
O1B Mo2B 1_555 1_555
O1B Mo2F 1_555 1_555
O1D Mo2D 1_555 1_555
Cu2A O3B 1_555 1_555
Mo2F O1F 1_555 1_555

#END
