
#######################################################################
#
#                 Cambridge Crystallographic Data Centre
#                                CCDC 
#
#######################################################################
#
# If this CIF has been generated from an entry in the Cambridge 
# Structural Database, then it will include bibliographic, chemical, 
# crystal, experimental, refinement or atomic coordinate data resulting 
# from the CCDC's data processing and validation procedures.
#
#######################################################################

data_OCIXON01
_symmetry_cell_setting           orthorhombic
_symmetry_space_group_name_H-M   'P n m a'
_symmetry_Int_Tables_number      62
_space_group_name_Hall           '-P 2ac 2n'
loop_
_symmetry_equiv_pos_site_id
_symmetry_equiv_pos_as_xyz
1 x,y,z
2 1/2-x,-y,1/2+z
3 -x,1/2+y,-z
4 1/2+x,1/2-y,1/2-z
5 -x,-y,-z
6 1/2+x,y,1/2-z
7 x,1/2-y,z
8 1/2-x,1/2+y,1/2+z
_cell_length_a                   12.3934(13)
_cell_length_b                   7.6160(9)
_cell_length_c                   12.7958(15)
_cell_angle_alpha                90
_cell_angle_beta                 90
_cell_angle_gamma                90
_cell_volume                     1207.77
loop_
_atom_site_label
_atom_site_type_symbol
_atom_site_fract_x
_atom_site_fract_y
_atom_site_fract_z
Cu1 Cu 0.23650(7) 0.7500 0.21498(6)
Cu2 Cu 0.61350(6) 0.7500 -0.17544(6)
Mo1 Mo 0.33800(4) 0.7500 0.48574(4)
Mo2 Mo 0.01236(3) 1.00094(4) 0.13622(3)
N1 N 0.3373(4) 0.7500 0.0941(4)
N2 N 0.4874(4) 0.7500 -0.0681(4)
O1 O 0.4842(3) 0.7500 0.3870(3)
O2 O 0.3936(2) 0.5128(3) 0.49166(18)
O3 O 0.4642(3) 0.7500 0.6067(3)
O4 O 0.2644(3) 0.7500 0.3709(3)
O5 O 0.7403(3) 0.7500 -0.0819(3)
O6 O 0.1241(2) 0.9538(4) 0.2109(2)
O7 O 0.5869(2) 0.9492(4) -0.2738(2)
C1 C 0.4432(5) 0.7500 0.1133(5)
H1 H 0.4675 0.7500 0.1820
C2 C 0.5170(5) 0.7500 0.0326(5)
H2 H 0.5902 0.7500 0.0488
C3 C 0.3816(5) 0.7500 -0.0860(5)
H3 H 0.3574 0.7500 -0.1547
C4 C 0.3067(6) 0.7500 -0.0066(4)
H4 H 0.2335 0.7500 -0.0229
Mo1C Mo 0.83800(4) 0.7500 0.01426(4)
Mo2F Mo 0.01236(3) 0.49906(4) 0.13622(3)
Mo2C Mo 0.51236(3) 0.49906(4) 0.36378(3)
Mo2E Mo 0.51236(3) 1.00094(4) 0.36378(3)
Mo2G Mo 0.48764(3) 0.50094(4) 0.63622(3)
Mo2A Mo 0.48764(3) 0.99906(4) 0.63622(3)
Mo2A_2 Mo 0.48764(3) 0.99906(4) -0.36378(3)
Mo2G_2 Mo 0.48764(3) 0.50094(4) -0.36378(3)
O1C O -0.0158(3) 0.7500 0.1130(3)
O2F O 0.3936(2) 0.9872(3) 0.49166(18)
O2C O -0.1064(2) 0.9872(3) 0.00834(18)
O2G O 0.1064(2) 1.0128(3) -0.00834(18)
O2E O -0.1064(2) 0.5128(3) 0.00834(18)
O2A O 0.1064(2) 0.4872(3) -0.00834(18)
O3A O 0.0358(3) 1.2500 0.1067(3)
O3A_2 O 0.0358(3) 0.2500 0.1067(3)
O5C O 0.2403(3) 0.7500 0.5819(3)
O6F O 0.1241(2) 0.5462(4) 0.2109(2)
O7F O 0.5869(2) 0.5508(4) -0.2738(2)
O7A O -0.0869(2) 1.0508(4) 0.2262(2)
O7G O -0.0869(2) 0.4492(4) 0.2262(2)
loop_
_geom_bond_atom_site_label_1
_geom_bond_atom_site_label_2
_geom_bond_site_symmetry_1
_geom_bond_site_symmetry_2
Cu1 N1 1_555 1_555
Cu2 N2 1_555 1_555
Mo1 O1 1_555 1_555
Mo2 O6 1_555 1_555
N1 C1 1_555 1_555
N2 C2 1_555 1_555
O1 Mo2C 1_555 1_555
O2 Mo1 1_555 1_555
O3 Mo1 1_555 1_555
O4 Cu1 1_555 1_555
O5 Cu2 1_555 1_555
O6 Cu1 1_555 1_555
O7 Cu2 1_555 1_555
C1 H1 1_555 1_555
C2 C1 1_555 1_555
H2 C2 1_555 1_555
C3 N2 1_555 1_555
H3 C3 1_555 1_555
C4 N1 1_555 1_555
H4 C4 1_555 1_555
Mo1C O5 1_555 1_555
Mo2F O1C 1_555 1_555
Mo2C O2 1_555 1_555
Mo2E O1 1_555 1_555
Mo2G O2 1_555 1_555
Mo2A O3 1_555 1_555
Mo2A_2 O7 1_555 1_555
Mo2G_2 O7F 1_555 1_555
O1C Mo2 1_555 1_555
O2F Mo1 1_555 1_555
O2C Mo2 1_555 1_555
O2G Mo2 1_555 1_555
O2E Mo2F 1_555 1_555
O2A Mo2F 1_555 1_555
O3A Mo2 1_555 1_555
O3A_2 Mo2F 1_555 1_555
O5C Mo1 1_555 1_555
O6F Cu1 1_555 1_555
O7F Cu2 1_555 1_555
O7A Mo2 1_555 1_555
O7G Mo2F 1_555 1_555
Mo1 O4 1_555 1_555
O3 Mo2G 1_555 1_555
C3 C4 1_555 1_555
Mo2F O6F 1_555 1_555
Mo2E O2F 1_555 1_555
Mo2A O2F 1_555 1_555

#END
