
#######################################################################
#
#                 Cambridge Crystallographic Data Centre
#                                CCDC 
#
#######################################################################
#
# If this CIF has been generated from an entry in the Cambridge 
# Structural Database, then it will include bibliographic, chemical, 
# crystal, experimental, refinement or atomic coordinate data resulting 
# from the CCDC's data processing and validation procedures.
#
#######################################################################

data_OCIYUW
_symmetry_cell_setting           rhombohedral
_symmetry_space_group_name_H-M   'R -3'
_symmetry_Int_Tables_number      148
_space_group_name_Hall           '-R 3'
loop_
_symmetry_equiv_pos_site_id
_symmetry_equiv_pos_as_xyz
1 x,y,z
2 -y,x-y,z
3 -x+y,-x,z
4 2/3+x,1/3+y,1/3+z
5 2/3-y,1/3+x-y,1/3+z
6 2/3-x+y,1/3-x,1/3+z
7 1/3+x,2/3+y,2/3+z
8 1/3-y,2/3+x-y,2/3+z
9 1/3-x+y,2/3-x,2/3+z
10 -x,-y,-z
11 y,-x+y,-z
12 x-y,x,-z
13 1/3-x,2/3-y,2/3-z
14 1/3+y,2/3-x+y,2/3-z
15 1/3+x-y,2/3+x,2/3-z
16 2/3-x,1/3-y,1/3-z
17 2/3+y,1/3-x+y,1/3-z
18 2/3+x-y,1/3+x,1/3-z
_cell_length_a                   26.0272(3)
_cell_length_b                   26.0272(3)
_cell_length_c                   11.0746(2)
_cell_angle_alpha                90
_cell_angle_beta                 90
_cell_angle_gamma                120
_cell_volume                     6497.01
loop_
_atom_site_label
_atom_site_type_symbol
_atom_site_fract_x
_atom_site_fract_y
_atom_site_fract_z
P1 P 0.43450(3) 0.32088(3) 0.77647(5)
F1 F 0.48859(8) 0.34220(9) 0.86690(15)
F2 F 0.37986(9) 0.30013(9) 0.68593(14)
F3 F 0.47478(10) 0.32509(14) 0.66672(17)
F4 F 0.44935(10) 0.38716(9) 0.7599(2)
F5 F 0.41750(12) 0.25411(9) 0.7951(2)
F6 F 0.39244(8) 0.31493(9) 0.88577(13)
Ag1 Ag 0.446243(7) 0.461321(8) 0.574994(14)
N1 N 0.34357(10) 0.40716(8) 0.63649(16)
C1 C 0.32052(10) 0.38371(9) 0.74263(18)
H1 H 0.3433 0.3795 0.8050
N2 N 0.26278(8) 0.36622(8) 0.75619(14)
C2 C 0.24771(9) 0.37908(9) 0.65010(17)
N3 N 0.19488(8) 0.37029(8) 0.61433(15)
C3 C 0.19196(12) 0.38542(11) 0.5009(2)
H2 H 0.1550 0.3793 0.4718
C4 C 0.24050(12) 0.40990(12) 0.4221(2)
H3 H 0.2360 0.4196 0.3416
C5 C 0.29402(12) 0.41965(11) 0.46134(19)
H4 H 0.3281 0.4368 0.4108
N4 N 0.29612(9) 0.40343(8) 0.57665(15)
O1 O 0.4319(9) 0.5238(9) 0.4635(17)
Ag1I Ag 0.553757(7) 0.538679(8) 0.425006(14)
Ag1D Ag 0.205346(8) 0.318255(11) 0.908327(14)
Ag1P Ag 0.127988(8) 0.348411(11) 0.758339(14)
N2H N 0.43677(11) 0.40389(8) 0.42286(14)
N3Q N 0.49126(11) 0.52821(8) 0.71900(15)
loop_
_geom_bond_atom_site_label_1
_geom_bond_atom_site_label_2
_geom_bond_site_symmetry_1
_geom_bond_site_symmetry_2
Ag1 N1 1_555 1_555
N1 C1 1_555 1_555
C1 H1 1_555 1_555
N2 C1 1_555 1_555
C2 N2 1_555 1_555
N3 C2 1_555 1_555
C3 N3 1_555 1_555
H2 C3 1_555 1_555
C4 C3 1_555 1_555
H3 C4 1_555 1_555
C5 C4 1_555 1_555
H4 C5 1_555 1_555
N4 N1 1_555 1_555
O1 Ag1 1_555 1_555
P1 F1 1_555 1_555
F2 P1 1_555 1_555
F3 P1 1_555 1_555
F4 P1 1_555 1_555
F5 P1 1_555 1_555
F6 P1 1_555 1_555
Ag1I Ag1 1_555 1_555
Ag1D N2 1_555 1_555
Ag1P N3 1_555 1_555
N2H Ag1 1_555 1_555
N3Q Ag1 1_555 1_555
C2 N4 1_555 1_555
C5 N4 1_555 1_555
Ag1D Ag1P 1_555 1_555

#END
