
#######################################################################
#
#                 Cambridge Crystallographic Data Centre
#                                CCDC 
#
#######################################################################
#
# If this CIF has been generated from an entry in the Cambridge 
# Structural Database, then it will include bibliographic, chemical, 
# crystal, experimental, refinement or atomic coordinate data resulting 
# from the CCDC's data processing and validation procedures.
#
#######################################################################

data_OCIZUX
_symmetry_cell_setting           monoclinic
_symmetry_space_group_name_H-M   'P 21/c'
_symmetry_Int_Tables_number      14
_space_group_name_Hall           '-P 2ybc'
loop_
_symmetry_equiv_pos_site_id
_symmetry_equiv_pos_as_xyz
1 x,y,z
2 -x,1/2+y,1/2-z
3 -x,-y,-z
4 x,1/2-y,1/2+z
_cell_length_a                   8.9784(18)
_cell_length_b                   15.352(3)
_cell_length_c                   27.656(6)
_cell_angle_alpha                90
_cell_angle_beta                 97.26(3)
_cell_angle_gamma                90
_cell_volume                     3781.44
loop_
_atom_site_label
_atom_site_type_symbol
_atom_site_fract_x
_atom_site_fract_y
_atom_site_fract_z
N1 N -2.3289(6) -0.4663(3) 0.35618(19)
C1 C -2.3204(8) -0.3870(4) 0.3391(2)
N2 N -2.1777(6) -0.3570(4) 0.3431(2)
C2 C -2.1320(8) -0.2705(5) 0.3333(3)
C3 C -2.2274(10) -0.2127(5) 0.3091(4)
C4 C -2.1840(9) -0.1271(5) 0.3034(4)
C5 C -2.0438(8) -0.0989(5) 0.3207(3)
C6 C -1.9003(11) 0.1663(5) 0.3195(4)
C7 C -2.0149(11) 0.1384(6) 0.2864(4)
H1 H -2.0624 0.1772 0.2636
C8 C -2.0612(11) 0.0520(6) 0.2864(4)
H2 H -2.1388 0.0329 0.2634
C9 C -1.9924(12) -0.0055(5) 0.3206(5)
C10 C -1.8730(11) 0.0238(6) 0.3534(4)
H3 H -1.8221 -0.0148 0.3756
C11 C -1.8298(11) 0.1100(6) 0.3533(3)
H4 H -1.7525 0.1298 0.3762
Ni1 Ni -1.51843(10) 0.45143(5) 0.34898(3)
C12 C -1.7107(8) 0.2844(4) 0.3308(3)
H5 H -1.6273 0.2482 0.3364
C13 C -1.8512(8) 0.3986(5) 0.3225(3)
H6 H -1.8816 0.4565 0.3216
C14 C -1.9443(9) 0.3289(5) 0.3137(3)
H7 H -2.0480 0.3301 0.3055
H8 H -2.4030 -0.3551 0.3259
C15 C -2.1824(8) -0.4893(5) 0.3719(3)
H9 H -2.1523 -0.5427 0.3857
C16 C -2.0891(9) -0.4232(5) 0.3644(3)
H10 H -1.9853 -0.4225 0.3720
H11 H -2.3215 -0.2308 0.2955
H12 H -2.2520 -0.0879 0.2874
C17 C -1.9473(11) -0.1608(6) 0.3395(5)
H13 H -1.8472 -0.1456 0.3482
C18 C -1.9900(10) -0.2457(6) 0.3464(5)
H14 H -1.9196 -0.2859 0.3603
C19 C -1.3098(10) 0.3389(5) 0.4792(3)
H15 H -1.2809 0.3424 0.5126
C20 C -1.3925(10) 0.3971(5) 0.4515(3)
H16 H -1.4317 0.4480 0.4631
C21 C -1.3408(8) 0.2963(4) 0.4037(2)
H17 H -1.3357 0.2629 0.3758
C22 C -1.1933(8) 0.1955(4) 0.4626(3)
C23 C -1.1810(10) 0.1297(5) 0.4302(3)
H18 H -1.2232 0.1358 0.3979
C24 C -1.1059(9) 0.0541(5) 0.4454(3)
H19 H -1.1005 0.0098 0.4227
C25 C -1.0388(9) 0.0412(5) 0.4921(3)
C26 C -1.0517(13) 0.1096(6) 0.5242(4)
H20 H -1.0073 0.1041 0.5563
C27 C -1.1281(12) 0.1859(6) 0.5101(3)
H21 H -1.1354 0.2302 0.5326
N3 N -1.7055(7) 0.3703(3) 0.3331(2)
N4 N -1.8535(7) 0.2562(4) 0.3193(2)
N5 N -1.4111(6) 0.3709(3) 0.40371(19)
N6 N -1.2759(7) 0.2731(4) 0.4490(2)
O1 O -1.4130(6) 0.3977(3) 0.29366(16)
H22 H -1.4656 0.3558 0.2806
H23 H -1.3275 0.3786 0.3058
O2 O -1.6324(5) 0.5403(3) 0.30006(16)
H24 H -1.5843 0.5461 0.2757
H25 H -1.6385 0.5893 0.3139
O3 O -1.6233(5) 0.5162(3) 0.40228(16)
H26 H -1.7064 0.4913 0.4048
H27 H -1.6391 0.5691 0.3940
N1_2 N -1.3289(6) 0.5337(3) 0.35618(19)
N1_3 N -0.3289(6) 1.5337(3) 0.35618(19)
C1_2 C -1.3204(8) 0.6130(4) 0.3391(2)
N2_2 N -1.1777(6) 0.6430(4) 0.3431(2)
C2_2 C -1.1320(8) 0.7295(5) 0.3333(3)
C3_2 C -1.2274(10) 0.7873(5) 0.3091(4)
C4_2 C -1.1840(9) 0.8729(5) 0.3034(4)
C5_2 C -1.0438(8) 0.9011(5) 0.3207(3)
C6_2 C -0.9003(11) 1.1663(5) 0.3195(4)
C7_2 C -1.0149(11) 1.1384(6) 0.2864(4)
H1_2 H -1.0624 1.1772 0.2636
C8_2 C -1.0612(11) 1.0520(6) 0.2864(4)
H2_2 H -1.1388 1.0329 0.2634
C9_2 C -0.9924(12) 0.9945(5) 0.3206(5)
C10_2 C -0.8730(11) 1.0238(6) 0.3534(4)
H3_2 H -0.8221 0.9852 0.3756
C11_2 C -0.8298(11) 1.1100(6) 0.3533(3)
H4_2 H -0.7525 1.1298 0.3762
Ni1_2 Ni -0.51843(10) 1.45143(5) 0.34898(3)
Ni1_3 Ni -2.51843(10) -0.54857(5) 0.34898(3)
Ni1B Ni -0.48157(10) -0.45143(5) 0.65102(3)
C12_2 C -0.7107(8) 1.2844(4) 0.3308(3)
H5_2 H -0.6273 1.2482 0.3364
C13_2 C -0.8512(8) 1.3986(5) 0.3225(3)
H6_2 H -0.8816 1.4565 0.3216
C14_2 C -0.9443(9) 1.3289(5) 0.3137(3)
H7_2 H -1.0480 1.3301 0.3055
H8_2 H -1.4030 0.6449 0.3259
C15_2 C -1.1824(8) 0.5107(5) 0.3719(3)
H9_2 H -1.1523 0.4573 0.3857
C16_2 C -1.0891(9) 0.5768(5) 0.3644(3)
H10_2 H -0.9853 0.5775 0.3720
H11_2 H -1.3215 0.7692 0.2955
H12_2 H -1.2520 0.9121 0.2874
C17_2 C -0.9473(11) 0.8392(6) 0.3395(5)
H13_2 H -0.8472 0.8544 0.3482
C18_2 C -0.9900(10) 0.7543(6) 0.3464(5)
H14_2 H -0.9196 0.7141 0.3603
C19B C -0.6902(10) -0.3389(5) 0.5208(3)
H15B H -0.7191 -0.3424 0.4874
C20B C -0.6075(10) -0.3971(5) 0.5485(3)
H16B H -0.5683 -0.4480 0.5369
C21B C -0.6592(8) -0.2963(4) 0.5963(2)
H17B H -0.6643 -0.2629 0.6242
C22B C -0.8067(8) -0.1955(4) 0.5374(3)
C23B C -0.8190(10) -0.1297(5) 0.5698(3)
H18B H -0.7768 -0.1358 0.6021
C24B C -0.8941(9) -0.0541(5) 0.5546(3)
H19B H -0.8995 -0.0098 0.5773
C25B C -0.9612(9) -0.0412(5) 0.5079(3)
C26B C -0.9483(13) -0.1096(6) 0.4758(4)
H20B H -0.9927 -0.1041 0.4437
C27B C -0.8719(12) -0.1859(6) 0.4899(3)
H21B H -0.8646 -0.2302 0.4674
N3_2 N -0.7055(7) 1.3703(3) 0.3331(2)
N4_2 N -0.8535(7) 1.2562(4) 0.3193(2)
N5B N -0.5889(6) -0.3709(3) 0.59629(19)
N5_2 N -0.4111(6) 1.3709(3) 0.40371(19)
N6B N -0.7241(7) -0.2731(4) 0.5510(2)
O1_2 O -0.4130(6) 1.3977(3) 0.29366(16)
H22_2 H -0.4656 1.3558 0.2806
H23_2 H -0.3275 1.3786 0.3058
O2_2 O -0.6324(5) 1.5403(3) 0.30006(16)
H24_2 H -0.5843 1.5461 0.2757
H25_2 H -0.6385 1.5893 0.3139
O3_2 O -0.6233(5) 1.5162(3) 0.40228(16)
H26_2 H -0.7064 1.4913 0.4048
H27_2 H -0.6391 1.5691 0.3940
C28 C 0.4883(10) 0.5406(5) 1.1802(3)
C29 C 0.5117(9) 0.4741(4) 1.1413(2)
C30 C 0.4940(9) 0.5003(4) 1.0930(2)
H28 H 0.4698 0.5578 1.0849
C31 C 0.5124(9) 0.4408(5) 1.0568(2)
C32 C 0.5474(9) 0.3551(5) 1.0683(2)
H29 H 0.5559 0.3152 1.0435
C33 C 0.6184(8) 0.2352(4) 1.1285(3)
C34 C 0.5700(8) 0.3283(4) 1.1166(2)
C35 C 0.5507(9) 0.3885(4) 1.1527(2)
H30 H 0.5641 0.3711 1.1852
N7 N 0.4910(8) 0.4614(4) 1.0057(2)
O4 O 0.5091(7) 0.5154(3) 1.22392(18)
O5 O 0.4506(7) 0.6166(3) 1.16686(17)
O6 O 0.6317(6) 0.2121(3) 1.17267(16)
O7 O 0.6436(6) 0.1876(3) 1.09393(17)
O8 O 0.4252(18) 0.3926(8) 0.9779(4)
C28B C 0.5117(10) 0.4594(5) 0.8198(3)
C29B C 0.4883(9) 0.5259(4) 0.8587(2)
C30B C 0.5060(9) 0.4997(4) 0.9070(2)
H28B H 0.5302 0.4422 0.9151
C31B C 0.4876(9) 0.5592(5) 0.9432(2)
C32B C 0.4526(9) 0.6449(5) 0.9317(2)
H29B H 0.4441 0.6848 0.9565
C33B C 0.3816(8) 0.7648(4) 0.8715(3)
C34B C 0.4300(8) 0.6717(4) 0.8834(2)
C35B C 0.4493(9) 0.6115(4) 0.8473(2)
H30B H 0.4359 0.6289 0.8148
N7B N 0.5090(8) 0.5386(4) 0.9943(2)
O4B O 0.4909(7) 0.4846(3) 0.77608(18)
O5B O 0.5494(7) 0.3834(3) 0.83314(17)
O6B O 0.3683(6) 0.7879(3) 0.82733(16)
O7B O 0.3564(6) 0.8124(3) 0.90607(17)
O8B O 0.5748(18) 0.6074(8) 1.0221(4)
C36 C 0.2233(14) 0.2097(7) 0.9517(4)
H31 H 0.1684 0.1866 0.9225
H32 H 0.3285 0.2107 0.9484
H33 H 0.1894 0.2678 0.9570
C37 C 0.2448(14) 0.1921(8) 1.0391(3)
H34 H 0.2106 0.1547 1.0633
H35 H 0.2020 0.2491 1.0414
H36 H 0.3523 0.1962 1.0446
C38 C 0.1517(10) 0.0749(6) 0.9852(4)
H37 H 0.1365 0.0437 1.0130
N8 N 0.1993(9) 0.1569(5) 0.9915(3)
O9 O 0.1263(7) 0.0370(5) 0.9463(2)
O10 O 0.6037(14) 0.2641(4) 0.7690(3)
H38 H 0.637(17) 0.273(8) 0.743(3)
H39 H 0.612(17) 0.310(5) 0.784(4)
C39? C 0.916(5) 0.828(2) 0.696(3)
C40? C 1.057(4) 0.850(3) 0.6886(19)
C41? C 1.101(5) 0.938(2) 0.6895(18)
C42? C 1.006(6) 1.0077(18) 0.694(3)
C43? C 0.874(4) 0.977(2) 0.7102(16)
C44? C 0.829(5) 0.891(2) 0.7127(15)
H40? H 1.1262 0.8071 0.6830
H41? H 1.2007 0.9506 0.6867
H42? H 0.8094 1.0189 0.7202
H43? H 0.7420 0.8769 0.7257
loop_
_geom_bond_atom_site_label_1
_geom_bond_atom_site_label_2
_geom_bond_site_symmetry_1
_geom_bond_site_symmetry_2
N1 C1 1_555 1_555
C1 N2 1_555 1_555
N2 C2 1_555 1_555
C2 C3 1_555 1_555
C3 C4 1_555 1_555
C4 C5 1_555 1_555
C5 C9 1_555 1_555
C6 C7 1_555 1_555
C7 H1 1_555 1_555
C8 C7 1_555 1_555
H2 C8 1_555 1_555
C9 C8 1_555 1_555
C10 C9 1_555 1_555
H3 C10 1_555 1_555
C11 C6 1_555 1_555
H4 C11 1_555 1_555
Ni1 N3 1_555 1_555
C12 H5 1_555 1_555
C13 H6 1_555 1_555
C14 C13 1_555 1_555
H7 C14 1_555 1_555
H8 C1 1_555 1_555
C15 N1 1_555 1_555
H9 C15 1_555 1_555
C16 N2 1_555 1_555
H10 C16 1_555 1_555
H11 C3 1_555 1_555
H12 C4 1_555 1_555
C17 C5 1_555 1_555
H13 C17 1_555 1_555
C18 C2 1_555 1_555
H14 C18 1_555 1_555
C19 H15 1_555 1_555
C20 C19 1_555 1_555
H16 C20 1_555 1_555
C21 H17 1_555 1_555
C22 C23 1_555 1_555
C23 H18 1_555 1_555
C24 C23 1_555 1_555
H19 C24 1_555 1_555
C25 C24 1_555 1_555
C26 C25 1_555 1_555
H20 C26 1_555 1_555
C27 C22 1_555 1_555
H21 C27 1_555 1_555
N3 C12 1_555 1_555
N4 C6 1_555 1_555
N5 Ni1 1_555 1_555
N6 C19 1_555 1_555
O1 Ni1 1_555 1_555
H22 O1 1_555 1_555
H23 O1 1_555 1_555
O2 Ni1 1_555 1_555
H24 O2 1_555 1_555
H25 O2 1_555 1_555
O3 Ni1 1_555 1_555
H26 O3 1_555 1_555
H27 O3 1_555 1_555
C28 C29 1_555 1_555
C29 C30 1_555 1_555
C30 H28 1_555 1_555
C31 C30 1_555 1_555
C32 C31 1_555 1_555
H29 C32 1_555 1_555
C33 C34 1_555 1_555
C34 C32 1_555 1_555
C35 C29 1_555 1_555
H30 C35 1_555 1_555
N7 C31 1_555 1_555
O4 C28 1_555 1_555
O5 C28 1_555 1_555
O6 C33 1_555 1_555
O7 C33 1_555 1_555
O8 N7 1_555 1_555
C36 H31 1_555 1_555
H32 C36 1_555 1_555
H33 C36 1_555 1_555
C37 H34 1_555 1_555
H35 C37 1_555 1_555
H36 C37 1_555 1_555
C38 H37 1_555 1_555
N8 C36 1_555 1_555
O9 C38 1_555 1_555
O10 H38 1_555 1_555
H39 O10 1_555 1_555
N1_2 Ni1 1_555 1_555
N1_3 Ni1_2 1_555 1_555
C1_2 N1_2 1_555 1_555
N2_2 C1_2 1_555 1_555
C2_2 N2_2 1_555 1_555
C3_2 C2_2 1_555 1_555
C4_2 C3_2 1_555 1_555
C5_2 C4_2 1_555 1_555
C6_2 C7_2 1_555 1_555
C7_2 H1_2 1_555 1_555
C8_2 C7_2 1_555 1_555
H2_2 C8_2 1_555 1_555
C9_2 C5_2 1_555 1_555
C10_2 C9_2 1_555 1_555
H3_2 C10_2 1_555 1_555
C11_2 C6_2 1_555 1_555
H4_2 C11_2 1_555 1_555
Ni1_2 N3_2 1_555 1_555
Ni1_3 N1 1_555 1_555
Ni1B N5B 1_555 1_555
C12_2 H5_2 1_555 1_555
C13_2 H6_2 1_555 1_555
C14_2 C13_2 1_555 1_555
H7_2 C14_2 1_555 1_555
H8_2 C1_2 1_555 1_555
C15_2 N1_2 1_555 1_555
H9_2 C15_2 1_555 1_555
C16_2 N2_2 1_555 1_555
H10_2 C16_2 1_555 1_555
H11_2 C3_2 1_555 1_555
H12_2 C4_2 1_555 1_555
C17_2 C5_2 1_555 1_555
H13_2 C17_2 1_555 1_555
C18_2 C2_2 1_555 1_555
H14_2 C18_2 1_555 1_555
C19B H15B 1_555 1_555
C20B C19B 1_555 1_555
H16B C20B 1_555 1_555
C21B H17B 1_555 1_555
C22B C23B 1_555 1_555
C23B H18B 1_555 1_555
C24B C23B 1_555 1_555
H19B C24B 1_555 1_555
C25B C25 1_555 1_555
C26B C25B 1_555 1_555
H20B C26B 1_555 1_555
C27B C22B 1_555 1_555
H21B C27B 1_555 1_555
N3_2 C12_2 1_555 1_555
N4_2 C6_2 1_555 1_555
N5B C20B 1_555 1_555
N5_2 Ni1_2 1_555 1_555
N6B C19B 1_555 1_555
O1_2 Ni1_2 1_555 1_555
H22_2 O1_2 1_555 1_555
H23_2 O1_2 1_555 1_555
O2_2 Ni1_2 1_555 1_555
H24_2 O2_2 1_555 1_555
H25_2 O2_2 1_555 1_555
O3_2 Ni1_2 1_555 1_555
H26_2 O3_2 1_555 1_555
H27_2 O3_2 1_555 1_555
C28B C29B 1_555 1_555
C29B C30B 1_555 1_555
C30B H28B 1_555 1_555
C31B C30B 1_555 1_555
C32B C31B 1_555 1_555
H29B C32B 1_555 1_555
C33B C34B 1_555 1_555
C34B C32B 1_555 1_555
C35B C29B 1_555 1_555
H30B C35B 1_555 1_555
N7B N7 1_555 1_555
O4B C28B 1_555 1_555
O5B C28B 1_555 1_555
O6B C33B 1_555 1_555
O7B C33B 1_555 1_555
O8B N7B 1_555 1_555
C10 C11 1_555 1_555
C12 N4 1_555 1_555
C13 N3 1_555 1_555
C14 N4 1_555 1_555
C15 C16 1_555 1_555
C17 C18 1_555 1_555
C20 N5 1_555 1_555
C21 N5 1_555 1_555
C21 N6 1_555 1_555
C22 N6 1_555 1_555
C26 C27 1_555 1_555
C34 C35 1_555 1_555
C37 N8 1_555 1_555
C38 N8 1_555 1_555
C8_2 C9_2 1_555 1_555
C10_2 C11_2 1_555 1_555
C12_2 N4_2 1_555 1_555
C13_2 N3_2 1_555 1_555
C14_2 N4_2 1_555 1_555
C15_2 C16_2 1_555 1_555
C17_2 C18_2 1_555 1_555
C21B N5B 1_555 1_555
C21B N6B 1_555 1_555
C22B N6B 1_555 1_555
C24B C25B 1_555 1_555
C26B C27B 1_555 1_555
C31B N7B 1_555 1_555
C34B C35B 1_555 1_555

#END
