
#######################################################################
#
#                 Cambridge Crystallographic Data Centre
#                                CCDC 
#
#######################################################################
#
# If this CIF has been generated from an entry in the Cambridge 
# Structural Database, then it will include bibliographic, chemical, 
# crystal, experimental, refinement or atomic coordinate data resulting 
# from the CCDC's data processing and validation procedures.
#
#######################################################################

data_OCIZEG
_symmetry_cell_setting           triclinic
_symmetry_space_group_name_H-M   'P -1'
_symmetry_Int_Tables_number      2
_space_group_name_Hall           '-P 1'
loop_
_symmetry_equiv_pos_site_id
_symmetry_equiv_pos_as_xyz
1 x,y,z
2 -x,-y,-z
_cell_length_a                   6.945(3)
_cell_length_b                   10.222(4)
_cell_length_c                   23.282(9)
_cell_angle_alpha                89.000(7)
_cell_angle_beta                 84.880(7)
_cell_angle_gamma                76.499(7)
_cell_volume                     1600.73
loop_
_atom_site_label
_atom_site_type_symbol
_atom_site_fract_x
_atom_site_fract_y
_atom_site_fract_z
Zn1 Zn 0.10347(10) 0.33407(6) 0.25540(3)
O1 O 0.2622(6) 0.4427(4) 0.54666(15)
O2 O 0.7233(6) 0.0732(4) 0.47102(16)
O3 O 0.6723(6) 0.0464(4) -0.00167(16)
O4 O 0.7352(6) 0.4760(4) 0.02610(16)
O5 O -0.0668(5) 0.5134(3) 0.24755(14)
O6 O 0.2103(6) 0.5787(3) 0.25720(16)
O7 O 0.1932(6) 1.0652(3) 0.26540(16)
O8 O -0.0789(5) 1.2152(3) 0.24667(14)
N1 N 0.2248(6) 0.3189(4) 0.33245(16)
N2 N 0.4018(6) 0.3362(4) 0.54201(17)
N3 N 0.6282(6) 0.1664(4) 0.50520(17)
N4 N 0.3168(6) 0.2989(4) 0.18633(16)
N5 N 0.7156(6) 0.1597(4) -0.01001(18)
N6 N 0.7585(6) 0.3587(4) 0.00452(18)
C1 C 0.1157(8) 0.3669(5) 0.3809(2)
H1 H -0.0166 0.4113 0.3789
C2 C 0.1923(7) 0.3528(5) 0.4335(2)
H2 H 0.1117 0.3874 0.4664
C3 C 0.3883(8) 0.2878(5) 0.4381(2)
C4 C 0.4994(8) 0.2403(5) 0.3872(2)
H3 H 0.6324 0.1963 0.3879
C5 C 0.4155(9) 0.2577(5) 0.3360(2)
H4 H 0.4939 0.2257 0.3024
C6 C 0.4705(7) 0.2656(5) 0.4934(2)
C7 C 0.4963(8) 0.2679(5) 0.5934(2)
C8 C 0.5185(9) 0.3712(5) 0.6365(2)
H5 H 0.5869 0.4336 0.6176
H6 H 0.5932 0.3267 0.6669
H7 H 0.3893 0.4188 0.6524
C9 C 0.3568(9) 0.1835(6) 0.6192(2)
H8 H 0.2286 0.2409 0.6300
H9 H 0.4097 0.1375 0.6527
H10 H 0.3441 0.1187 0.5913
C10 C 0.6930(8) 0.1826(5) 0.5638(2)
C11 C 0.8581(8) 0.2574(6) 0.5548(3)
H11 H 0.9689 0.2033 0.5318
H12 H 0.8995 0.2755 0.5915
H13 H 0.8104 0.3408 0.5353
C12 C 0.7689(9) 0.0465(5) 0.5901(2)
H14 H 0.6687 -0.0044 0.5906
H15 H 0.7998 0.0578 0.6288
H16 H 0.8865 -0.0006 0.5676
C13 C 0.4680(8) 0.3614(4) 0.1781(2)
H17 H 0.4898 0.4156 0.2074
C14 C 0.5912(8) 0.3475(5) 0.1275(2)
H18 H 0.6941 0.3920 0.1232
C15 C 0.5623(7) 0.2675(4) 0.0832(2)
C16 C 0.4124(8) 0.1985(5) 0.0933(2)
H19 H 0.3918 0.1399 0.0656
C17 C 0.2961(8) 0.2174(5) 0.1440(2)
H20 H 0.1958 0.1708 0.1497
C18 C 0.6770(7) 0.2606(5) 0.0281(2)
C19 C 0.8932(8) 0.3103(5) -0.0481(2)
C20 C 1.0994(8) 0.2594(5) -0.0272(2)
H21 H 1.1381 0.3318 -0.0091
H22 H 1.1933 0.2262 -0.0594
H23 H 1.0967 0.1883 0.0001
C21 C 0.8929(8) 0.4242(5) -0.0905(2)
H24 H 0.7587 0.4650 -0.0982
H25 H 0.9688 0.3897 -0.1257
H26 H 0.9511 0.4901 -0.0744
C22 C 0.8038(8) 0.1963(5) -0.0670(2)
C23 C 0.9507(8) 0.0755(5) -0.0938(2)
H27 H 1.0472 0.0392 -0.0671
H28 H 1.0167 0.1021 -0.1285
H29 H 0.8817 0.0083 -0.1028
C24 C 0.6298(8) 0.2439(6) -0.1046(2)
H30 H 0.5579 0.1746 -0.1063
H31 H 0.6804 0.2627 -0.1428
H32 H 0.5425 0.3239 -0.0882
C25 C 0.0331(9) 0.6030(5) 0.2499(2)
C26 C -0.0790(8) 0.7464(5) 0.2422(2)
C27 C -0.2702(8) 0.7769(5) 0.2254(2)
H33 H -0.3329 0.7079 0.2194
C28 C -0.3688(8) 0.9083(5) 0.2176(2)
H34 H -0.4966 0.9279 0.2056
C29 C -0.2782(7) 1.0099(5) 0.2274(2)
H35 H -0.3461 1.0985 0.2222
C30 C -0.0866(8) 0.9837(4) 0.24492(19)
C31 C 0.0104(7) 0.8501(5) 0.25210(18)
H36 H 0.1384 0.8300 0.2639
C32 C 0.0210(9) 1.0935(5) 0.2537(2)
Zn1_2 Zn 0.10347(10) 1.33407(6) 0.25540(3)
O8_2 O -0.0789(5) 0.2152(3) 0.24667(14)
loop_
_geom_bond_atom_site_label_1
_geom_bond_atom_site_label_2
_geom_bond_site_symmetry_1
_geom_bond_site_symmetry_2
Zn1 O5 1_555 1_555
O1 N2 1_555 1_555
O2 N3 1_555 1_555
O3 N5 1_555 1_555
O4 N6 1_555 1_555
O5 C25 1_555 1_555
O6 C25 1_555 1_555
O7 C32 1_555 1_555
O8 C32 1_555 1_555
N1 Zn1 1_555 1_555
N2 C6 1_555 1_555
N3 C6 1_555 1_555
N4 Zn1 1_555 1_555
N5 C18 1_555 1_555
N6 C18 1_555 1_555
C1 N1 1_555 1_555
H1 C1 1_555 1_555
C2 C1 1_555 1_555
H2 C2 1_555 1_555
C3 C2 1_555 1_555
C4 C3 1_555 1_555
H3 C4 1_555 1_555
C5 N1 1_555 1_555
H4 C5 1_555 1_555
C6 C3 1_555 1_555
C7 N2 1_555 1_555
C8 C7 1_555 1_555
H5 C8 1_555 1_555
H6 C8 1_555 1_555
H7 C8 1_555 1_555
C9 C7 1_555 1_555
H8 C9 1_555 1_555
H9 C9 1_555 1_555
H10 C9 1_555 1_555
C10 N3 1_555 1_555
C11 C10 1_555 1_555
H11 C11 1_555 1_555
H12 C11 1_555 1_555
H13 C11 1_555 1_555
C12 C10 1_555 1_555
H14 C12 1_555 1_555
H15 C12 1_555 1_555
H16 C12 1_555 1_555
C13 N4 1_555 1_555
H17 C13 1_555 1_555
C14 C13 1_555 1_555
H18 C14 1_555 1_555
C15 C14 1_555 1_555
C16 C15 1_555 1_555
H19 C16 1_555 1_555
C17 N4 1_555 1_555
H20 C17 1_555 1_555
C18 C15 1_555 1_555
C19 N6 1_555 1_555
C20 C19 1_555 1_555
H21 C20 1_555 1_555
H22 C20 1_555 1_555
H23 C20 1_555 1_555
C21 C19 1_555 1_555
H24 C21 1_555 1_555
H25 C21 1_555 1_555
H26 C21 1_555 1_555
C22 N5 1_555 1_555
C23 C22 1_555 1_555
H27 C23 1_555 1_555
H28 C23 1_555 1_555
H29 C23 1_555 1_555
C24 C22 1_555 1_555
H30 C24 1_555 1_555
H31 C24 1_555 1_555
H32 C24 1_555 1_555
C25 C26 1_555 1_555
C26 C27 1_555 1_555
C27 H33 1_555 1_555
C28 C27 1_555 1_555
H34 C28 1_555 1_555
C29 C28 1_555 1_555
H35 C29 1_555 1_555
C30 C29 1_555 1_555
C31 C26 1_555 1_555
H36 C31 1_555 1_555
C32 C30 1_555 1_555
Zn1_2 O8 1_555 1_555
O8_2 Zn1 1_555 1_555
C4 C5 1_555 1_555
C7 C10 1_555 1_555
C16 C17 1_555 1_555
C19 C22 1_555 1_555
C30 C31 1_555 1_555

#END
