
#######################################################################
#
#                 Cambridge Crystallographic Data Centre
#                                CCDC 
#
#######################################################################
#
# If this CIF has been generated from an entry in the Cambridge 
# Structural Database, then it will include bibliographic, chemical, 
# crystal, experimental, refinement or atomic coordinate data resulting 
# from the CCDC's data processing and validation procedures.
#
#######################################################################

data_OCIZIL
_symmetry_cell_setting           orthorhombic
_symmetry_space_group_name_H-M   'P 21 21 2'
_symmetry_Int_Tables_number      18
_space_group_name_Hall           'P 2 2ab'
loop_
_symmetry_equiv_pos_site_id
_symmetry_equiv_pos_as_xyz
1 x,y,z
2 -x,-y,z
3 1/2-x,1/2+y,-z
4 1/2+x,1/2-y,-z
_cell_length_a                   18.167(4)
_cell_length_b                   26.668(5)
_cell_length_c                   12.453(3)
_cell_angle_alpha                90
_cell_angle_beta                 90
_cell_angle_gamma                90
_cell_volume                     6033.2
loop_
_atom_site_label
_atom_site_type_symbol
_atom_site_fract_x
_atom_site_fract_y
_atom_site_fract_z
Zn1 Zn 0.54009(4) 0.26960(3) 0.41939(6)
Zn2 Zn 1.25649(4) 0.53572(3) 1.11658(6)
C1 C 1.2588(4) 0.4496(3) 0.9520(6)
H1 H 1.3102 0.4512 0.9391
C2 C 1.2125(4) 0.4147(3) 0.9086(7)
H2 H 1.2251 0.3885 0.8605
C3 C 1.1526(4) 0.4656(3) 1.0138(6)
H3 H 1.1140 0.4808 1.0536
C4 C 1.0749(4) 0.4017(4) 0.9236(9)
C5 C 1.0704(4) 0.3573(3) 0.8772(7)
H4 H 1.1138 0.3387 0.8622
C6 C 1.0022(4) 0.3381(3) 0.8505(8)
H5 H 1.0002 0.3057 0.8189
C7 C 0.9381(3) 0.3627(3) 0.8669(5)
C8 C 0.9446(4) 0.4073(3) 0.9229(9)
H6 H 0.9014 0.4253 0.9419
C9 C 1.0114(4) 0.4261(4) 0.9513(9)
H7 H 1.0140 0.4566 0.9908
C10 C 0.8639(4) 0.3460(3) 0.8319(6)
C11 C 0.8579(4) 0.3081(3) 0.7582(7)
H8 H 0.8999 0.2890 0.7382
C12 C 0.7889(4) 0.2978(3) 0.7124(7)
H9 H 0.7854 0.2726 0.6587
C13 C 0.7280(4) 0.3223(3) 0.7422(6)
C14 C 0.7337(5) 0.3572(4) 0.8207(8)
H10 H 0.6910 0.3740 0.8461
C15 C 0.8009(4) 0.3683(5) 0.8634(8)
H11 H 0.8034 0.3930 0.9182
C16 C 0.6512(3) 0.2971(2) 0.5866(5)
H12 H 0.6911 0.2863 0.5430
C17 C 0.5425(5) 0.3167(4) 0.6408(6)
H13 H 0.4906 0.3205 0.6429
C18 C 0.5894(4) 0.3291(4) 0.7200(7)
H14 H 0.5771 0.3452 0.7857
C19 C 0.4022(3) 0.3180(2) 0.4038(6)
C20 C 0.3326(3) 0.3276(3) 0.3398(5)
C21 C 0.3348(4) 0.3304(3) 0.2287(5)
H15 H 0.3806 0.3308 0.1920
C22 C 0.2697(4) 0.3324(3) 0.1719(6)
H16 H 0.2704 0.3360 0.0961
C23 C 0.2032(4) 0.3293(2) 0.2259(6)
C24 C 0.2001(4) 0.3277(2) 0.3349(6)
H17 H 0.1541 0.3266 0.3710
C25 C 0.2656(3) 0.3275(2) 0.3924(6)
H18 H 0.2644 0.3274 0.4687
C26 C 0.0769(4) 0.3507(3) 0.1867(6)
C27 C 0.0104(4) 0.3282(3) 0.1563(6)
H19 H 0.0098 0.2948 0.1296
C28 C -0.0538(4) 0.3548(3) 0.1655(6)
H20 H -0.0989 0.3399 0.1436
C29 C -0.0540(4) 0.4037(2) 0.2066(6)
C30 C 0.0119(4) 0.4242(3) 0.2392(6)
H21 H 0.0122 0.4573 0.2673
C31 C 0.0772(4) 0.3985(3) 0.2324(6)
H22 H 0.1216 0.4129 0.2583
C32 C -0.1228(4) 0.4357(3) 0.2031(7)
C33 C 1.1118(4) 0.0683(3) -0.0141(5)
C34 C 1.0558(3) 0.1097(2) 0.0022(5)
C35 C 1.0724(4) 0.1587(3) -0.0209(6)
H23 H 1.1205 0.1669 -0.0451
C36 C 1.0205(4) 0.1967(3) -0.0098(5)
H24 H 1.0326 0.2304 -0.0274
C37 C 0.9505(4) 0.1845(3) 0.0276(5)
C38 C 0.9334(3) 0.1355(2) 0.0520(6)
H25 H 0.8861 0.1271 0.0791
C39 C 0.9863(4) 0.0982(3) 0.0364(5)
H26 H 0.9738 0.0642 0.0499
C40 C 0.8435(3) 0.2232(2) 0.1030(5)
C41 C 0.8517(4) 0.2069(3) 0.2055(6)
H27 H 0.8977 0.1937 0.2284
C42 C 0.7938(4) 0.2095(3) 0.2764(6)
H28 H 0.7999 0.1973 0.3475
C43 C 0.7258(3) 0.2298(2) 0.2455(5)
C44 C 0.7195(4) 0.2466(2) 0.1430(5)
H29 H 0.6738 0.2605 0.1208
C45 C 0.7770(4) 0.2444(2) 0.0687(5)
H30 H 0.7712 0.2568 -0.0024
C46 C 0.6635(3) 0.2340(3) 0.3255(6)
C47 C -0.2231(4) 0.0184(2) 0.6675(5)
H31 H -0.2719 0.0127 0.6429
C48 C -0.1699(4) 0.0426(3) 0.6143(5)
H32 H -0.1739 0.0565 0.5443
C49 C -0.1264(3) 0.0191(2) 0.7704(5)
H33 H -0.0942 0.0142 0.8296
C50 C -0.0374(4) 0.0636(2) 0.6552(5)
C51 C 0.0047(4) 0.0829(2) 0.7353(6)
H34 H -0.0151 0.0858 0.8057
C52 C 0.0767(4) 0.0985(2) 0.7149(5)
H35 H 0.1059 0.1116 0.7717
C53 C 0.1061(3) 0.0951(2) 0.6121(6)
C54 C 0.0598(4) 0.0765(3) 0.5312(6)
H36 H 0.0782 0.0743 0.4600
C55 C -0.0099(4) 0.0616(3) 0.5507(5)
H37 H -0.0401 0.0498 0.4937
C56 C 0.1833(4) 0.1101(2) 0.5908(6)
C57 C 0.2202(4) 0.1437(3) 0.6565(6)
H38 H 0.1957 0.1571 0.7174
C58 C 0.2928(4) 0.1584(3) 0.6352(7)
H39 H 0.3174 0.1814 0.6811
C59 C 0.3282(4) 0.1386(3) 0.5455(6)
C60 C 0.2940(4) 0.1046(3) 0.4824(7)
H40 H 0.3192 0.0906 0.4227
C61 C 0.2220(4) 0.0901(3) 0.5046(6)
H41 H 0.1988 0.0659 0.4599
C62 C 0.4590(4) 0.1263(3) 0.4891(9)
H42 H 0.4603 0.0907 0.4873
C63 C 0.5134(4) 0.1566(3) 0.4635(8)
H43 H 0.5615 0.1462 0.4435
C64 C 0.4225(4) 0.2023(3) 0.5070(6)
H44 H 0.3926 0.2304 0.5236
N1 N 1.2217(3) 0.4809(2) 1.0149(5)
N2 N 1.1442(3) 0.4255(2) 0.9488(5)
N3 N 0.6587(3) 0.3141(2) 0.6878(4)
N4 N 0.5825(3) 0.2974(2) 0.5557(4)
N5 N -0.1941(3) 0.00306(18) 0.7650(4)
N6 N -0.1089(3) 0.04391(18) 0.6785(4)
N7 N 0.4012(3) 0.15488(19) 0.5183(5)
N8 N 0.4901(3) 0.2054(2) 0.4701(5)
O1 O 0.4582(3) 0.30398(17) 0.3504(4)
O2 O 0.3995(3) 0.3220(2) 0.5051(4)
O3 O 0.1409(3) 0.3249(2) 0.1606(4)
O4 O -0.1746(2) 0.41943(17) 0.1422(4)
O5 O -0.1227(3) 0.47619(19) 0.2451(5)
O6 O 1.1732(2) 0.08307(17) -0.0545(4)
O7 O 1.0972(3) 0.02463(18) 0.0073(5)
O8 O 0.9011(3) 0.22365(17) 0.0294(4)
O9 O 0.6077(2) 0.26011(18) 0.2976(4)
O10 O 0.6695(3) 0.2130(2) 0.4120(4)
Zn2C Zn -0.24351(4) -0.03572(3) 0.88342(6)
Zn2A Zn -0.25649(4) 0.46428(3) 0.11658(6)
Zn2B Zn 1.24351(4) 0.03572(3) -0.11658(6)
N5C N 1.3059(3) 0.49694(18) 1.2350(4)
O4A O 1.1746(2) 0.58057(17) 1.1422(4)
O6B O 1.3268(2) 0.58307(17) 1.0545(4)
loop_
_geom_bond_atom_site_label_1
_geom_bond_atom_site_label_2
_geom_bond_site_symmetry_1
_geom_bond_site_symmetry_2
Zn1 N4 1_555 1_555
Zn2 N1 1_555 1_555
C1 H1 1_555 1_555
C2 C1 1_555 1_555
H2 C2 1_555 1_555
C3 H3 1_555 1_555
C4 C5 1_555 1_555
C5 H4 1_555 1_555
C6 C5 1_555 1_555
H5 C6 1_555 1_555
C7 C6 1_555 1_555
C8 C7 1_555 1_555
H6 C8 1_555 1_555
C9 C4 1_555 1_555
H7 C9 1_555 1_555
C10 C7 1_555 1_555
C11 C10 1_555 1_555
H8 C11 1_555 1_555
C12 C11 1_555 1_555
H9 C12 1_555 1_555
C13 C12 1_555 1_555
C14 C13 1_555 1_555
H10 C14 1_555 1_555
C15 C10 1_555 1_555
H11 C15 1_555 1_555
C16 H12 1_555 1_555
C17 H13 1_555 1_555
C18 C17 1_555 1_555
H14 C18 1_555 1_555
C19 C20 1_555 1_555
C20 C21 1_555 1_555
C21 H15 1_555 1_555
C22 C21 1_555 1_555
H16 C22 1_555 1_555
C23 C22 1_555 1_555
C24 C23 1_555 1_555
H17 C24 1_555 1_555
C25 C20 1_555 1_555
H18 C25 1_555 1_555
C26 C27 1_555 1_555
C27 H19 1_555 1_555
C28 C27 1_555 1_555
H20 C28 1_555 1_555
C29 C28 1_555 1_555
C30 C29 1_555 1_555
H21 C30 1_555 1_555
C31 C26 1_555 1_555
H22 C31 1_555 1_555
C32 C29 1_555 1_555
C33 C34 1_555 1_555
C34 C35 1_555 1_555
C35 H23 1_555 1_555
C36 C35 1_555 1_555
H24 C36 1_555 1_555
C37 C36 1_555 1_555
C38 C37 1_555 1_555
H25 C38 1_555 1_555
C39 C34 1_555 1_555
H26 C39 1_555 1_555
C40 C41 1_555 1_555
C41 H27 1_555 1_555
C42 C41 1_555 1_555
H28 C42 1_555 1_555
C43 C42 1_555 1_555
C44 C43 1_555 1_555
H29 C44 1_555 1_555
C45 C40 1_555 1_555
H30 C45 1_555 1_555
C46 C43 1_555 1_555
C47 H31 1_555 1_555
C48 C47 1_555 1_555
H32 C48 1_555 1_555
C49 H33 1_555 1_555
C50 C51 1_555 1_555
C51 H34 1_555 1_555
C52 C51 1_555 1_555
H35 C52 1_555 1_555
C53 C52 1_555 1_555
C54 C53 1_555 1_555
H36 C54 1_555 1_555
C55 C50 1_555 1_555
H37 C55 1_555 1_555
C56 C53 1_555 1_555
C57 C56 1_555 1_555
H38 C57 1_555 1_555
C58 C57 1_555 1_555
H39 C58 1_555 1_555
C59 C58 1_555 1_555
C60 C59 1_555 1_555
H40 C60 1_555 1_555
C61 C56 1_555 1_555
H41 C61 1_555 1_555
C62 H42 1_555 1_555
C63 C62 1_555 1_555
H43 C63 1_555 1_555
C64 H44 1_555 1_555
N1 C1 1_555 1_555
N2 C2 1_555 1_555
N3 C13 1_555 1_555
N4 C16 1_555 1_555
N5 C47 1_555 1_555
N6 C48 1_555 1_555
N7 C59 1_555 1_555
N8 Zn1 1_555 1_555
O1 Zn1 1_555 1_555
O2 C19 1_555 1_555
O3 C23 1_555 1_555
O4 C32 1_555 1_555
O5 C32 1_555 1_555
O6 C33 1_555 1_555
O7 C33 1_555 1_555
O8 C37 1_555 1_555
O9 Zn1 1_555 1_555
O10 C46 1_555 1_555
Zn2C N5 1_555 1_555
Zn2A O4 1_555 1_555
Zn2B O6 1_555 1_555
N5C Zn2 1_555 1_555
O4A Zn2 1_555 1_555
O6B Zn2 1_555 1_555
C3 N1 1_555 1_555
C3 N2 1_555 1_555
C4 N2 1_555 1_555
C8 C9 1_555 1_555
C14 C15 1_555 1_555
C16 N3 1_555 1_555
C17 N4 1_555 1_555
C18 N3 1_555 1_555
C19 O1 1_555 1_555
C24 C25 1_555 1_555
C26 O3 1_555 1_555
C30 C31 1_555 1_555
C38 C39 1_555 1_555
C40 O8 1_555 1_555
C44 C45 1_555 1_555
C46 O9 1_555 1_555
C49 N5 1_555 1_555
C49 N6 1_555 1_555
C50 N6 1_555 1_555
C54 C55 1_555 1_555
C60 C61 1_555 1_555
C62 N7 1_555 1_555
C63 N8 1_555 1_555
C64 N7 1_555 1_555
C64 N8 1_555 1_555

#END
