
#######################################################################
#
#                 Cambridge Crystallographic Data Centre
#                                CCDC 
#
#######################################################################
#
# If this CIF has been generated from an entry in the Cambridge 
# Structural Database, then it will include bibliographic, chemical, 
# crystal, experimental, refinement or atomic coordinate data resulting 
# from the CCDC's data processing and validation procedures.
#
#######################################################################

data_OCIZEH
_symmetry_cell_setting           orthorhombic
_symmetry_space_group_name_H-M   'P n n a'
_symmetry_Int_Tables_number      52
_space_group_name_Hall           '-P 2a 2bc'
loop_
_symmetry_equiv_pos_site_id
_symmetry_equiv_pos_as_xyz
1 x,y,z
2 1/2-x,-y,z
3 1/2-x,1/2+y,1/2-z
4 x,1/2-y,1/2-z
5 -x,-y,-z
6 1/2+x,y,-z
7 1/2+x,1/2-y,1/2+z
8 -x,1/2+y,1/2+z
_cell_length_a                   9.8501(12)
_cell_length_b                   18.1491(18)
_cell_length_c                   15.1858(14)
_cell_angle_alpha                90
_cell_angle_beta                 90
_cell_angle_gamma                90
_cell_volume                     2714.77
loop_
_atom_site_label
_atom_site_type_symbol
_atom_site_fract_x
_atom_site_fract_y
_atom_site_fract_z
C1 C -0.0648(4) 0.8192(2) 0.1447(2)
H1 H -0.0612 0.8594 0.1826
C2 C -0.0146(3) 0.7196(2) 0.0802(2)
H2 H 0.0305 0.6765 0.0643
C3 C -0.1262(4) 0.7471(2) 0.0395(2)
H3 H -0.1748 0.7251 -0.0060
C4 C -0.2648(3) 0.8611(2) 0.0570(2)
C5 C -0.2753(4) 0.8787(2) -0.0296(2)
H4 H -0.2209 0.8565 -0.0720
C6 C -0.3709(4) 0.9314(2) -0.0514(2)
H5 H -0.3825 0.9452 -0.1098
C7 C -0.4530(3) 0.9691(2) 0.0124(2)
C8 C -0.4320(4) 0.9438(2) 0.1012(2)
H6 H -0.4837 0.9659 0.1450
C9 C -0.3355(4) 0.8919(2) 0.1235(2)
H7 H -0.3198 0.8789 0.1818
C10 C 0.3094(3) 0.64888(18) 0.1973(2)
C11 C 0.4322(3) 0.60939(19) 0.1646(2)
C12 C 0.5397(3) 0.6483(2) 0.1285(2)
H8 H 0.5390 0.6995 0.1297
C13 C 0.6490(4) 0.6111(2) 0.0905(2)
H9 H 0.7207 0.6372 0.0658
C14 C 0.6502(4) 0.5366(2) 0.0906(2)
C15 C 0.5463(3) 0.4962(2) 0.1284(2)
H10 H 0.5479 0.4449 0.1273
C16 C 0.4392(4) 0.5336(2) 0.1680(2)
H11 H 0.3718 0.5073 0.1972
Cu1 Cu 0.14662(5) 0.7500 0.2500
N1 N 0.0206(3) 0.76412(16) 0.14698(18)
N2 N -0.1581(2) 0.81058(15) 0.08127(17)
O1 O 0.2441(2) 0.62303(13) 0.26014(13)
O2 O 0.2805(2) 0.70738(13) 0.16271(15)
O3 O 0.7500 0.5000 0.0423(2)
C1D C -0.9352(4) 1.1808(2) -0.1447(2)
H1D H -0.9388 1.1406 -0.1826
C2D C -0.9854(3) 1.2804(2) -0.0802(2)
H2D H -1.0305 1.3235 -0.0643
C3D C -0.8738(4) 1.2529(2) -0.0395(2)
H3D H -0.8252 1.2749 0.0060
C4D C -0.7352(3) 1.1389(2) -0.0570(2)
C5D C -0.7247(4) 1.1213(2) 0.0296(2)
H4D H -0.7791 1.1435 0.0720
C6D C -0.6291(4) 1.0686(2) 0.0514(2)
H5D H -0.6175 1.0548 0.1098
C7D C -0.5470(3) 1.0309(2) -0.0124(2)
C8D C -0.5680(4) 1.0562(2) -0.1012(2)
H6D H -0.5163 1.0341 -0.1450
C9D C -0.6645(4) 1.1081(2) -0.1235(2)
H7D H -0.6802 1.1211 -0.1818
C10A C 1.1906(3) 0.35112(18) 0.1973(2)
C11A C 1.0678(3) 0.39061(19) 0.1646(2)
C12A C 0.9603(3) 0.3517(2) 0.1285(2)
H8A H 0.9610 0.3005 0.1297
C13A C 0.8510(4) 0.3889(2) 0.0905(2)
H9A H 0.7793 0.3628 0.0658
C14A C 0.8498(4) 0.4634(2) 0.0906(2)
C15A C 0.9537(3) 0.5038(2) 0.1284(2)
H10A H 0.9521 0.5551 0.1273
C16A C 1.0608(4) 0.4664(2) 0.1680(2)
H11A H 1.1282 0.4927 0.1972
Cu1D Cu -1.14662(5) 1.2500 -0.2500
Cu1A Cu 1.35338(5) 0.2500 0.2500
N1D N -1.0206(3) 1.23588(16) -0.14698(18)
N1C N 0.0206(3) 0.73588(16) 0.35302(18)
N2D N -0.8419(2) 1.18942(15) -0.08127(17)
O1A O 1.2559(2) 0.37697(13) 0.26014(13)
O2A O 1.2195(2) 0.29262(13) 0.16271(15)
O2C O 0.2805(2) 0.79262(13) 0.33729(15)
loop_
_geom_bond_atom_site_label_1
_geom_bond_atom_site_label_2
_geom_bond_site_symmetry_1
_geom_bond_site_symmetry_2
C1 H1 1_555 1_555
C2 H2 1_555 1_555
C3 C2 1_555 1_555
H3 C3 1_555 1_555
C4 C5 1_555 1_555
C5 H4 1_555 1_555
C6 C5 1_555 1_555
H5 C6 1_555 1_555
C7 C6 1_555 1_555
C8 C7 1_555 1_555
H6 C8 1_555 1_555
C9 C4 1_555 1_555
H7 C9 1_555 1_555
C10 C11 1_555 1_555
C11 C12 1_555 1_555
C12 H8 1_555 1_555
C13 C12 1_555 1_555
H9 C13 1_555 1_555
C14 C13 1_555 1_555
C15 C14 1_555 1_555
H10 C15 1_555 1_555
C16 C11 1_555 1_555
H11 C16 1_555 1_555
Cu1 N1 1_555 1_555
N1 C1 1_555 1_555
N2 C1 1_555 1_555
O1 C10 1_555 1_555
O2 C10 1_555 1_555
O3 C14 1_555 1_555
C1D H1D 1_555 1_555
C2D H2D 1_555 1_555
C3D C2D 1_555 1_555
H3D C3D 1_555 1_555
C4D C5D 1_555 1_555
C5D H4D 1_555 1_555
C6D C5D 1_555 1_555
H5D C6D 1_555 1_555
C7D C7 1_555 1_555
C8D C7D 1_555 1_555
H6D C8D 1_555 1_555
C9D C4D 1_555 1_555
H7D C9D 1_555 1_555
C10A C11A 1_555 1_555
C11A C12A 1_555 1_555
C12A H8A 1_555 1_555
C13A C12A 1_555 1_555
H9A C13A 1_555 1_555
C14A O3 1_555 1_555
C15A C14A 1_555 1_555
H10A C15A 1_555 1_555
C16A C11A 1_555 1_555
H11A C16A 1_555 1_555
Cu1D N1D 1_555 1_555
Cu1A O2A 1_555 1_555
N1D C1D 1_555 1_555
N1C Cu1 1_555 1_555
N2D C1D 1_555 1_555
O1A C10A 1_555 1_555
O2A C10A 1_555 1_555
O2C Cu1 1_555 1_555
C2 N1 1_555 1_555
C3 N2 1_555 1_555
C4 N2 1_555 1_555
C8 C9 1_555 1_555
C15 C16 1_555 1_555
Cu1 O2 1_555 1_555
C2D N1D 1_555 1_555
C3D N2D 1_555 1_555
C4D N2D 1_555 1_555
C6D C7D 1_555 1_555
C8D C9D 1_555 1_555
C13A C14A 1_555 1_555
C15A C16A 1_555 1_555

#END
