
#######################################################################
#
#                 Cambridge Crystallographic Data Centre
#                                CCDC 
#
#######################################################################
#
# If this CIF has been generated from an entry in the Cambridge 
# Structural Database, then it will include bibliographic, chemical, 
# crystal, experimental, refinement or atomic coordinate data resulting 
# from the CCDC's data processing and validation procedures.
#
#######################################################################

data_OCOFUI
_symmetry_cell_setting           triclinic
_symmetry_space_group_name_H-M   'P -1'
_symmetry_Int_Tables_number      2
_space_group_name_Hall           '-P 1'
loop_
_symmetry_equiv_pos_site_id
_symmetry_equiv_pos_as_xyz
1 x,y,z
2 -x,-y,-z
_cell_length_a                   21.846(3)
_cell_length_b                   12.085(2)
_cell_length_c                   11.943(2)
_cell_angle_alpha                82.04(2)
_cell_angle_beta                 80.190(10)
_cell_angle_gamma                84.200(10)
_cell_volume                     3067.31
loop_
_atom_site_label
_atom_site_type_symbol
_atom_site_fract_x
_atom_site_fract_y
_atom_site_fract_z
Cu1 Cu 0.07305(4) 0.98149(7) 0.51578(7)
Cu2 Cu -0.00736(4) 1.13134(7) 0.68156(8)
Br1 Br -0.03603(3) 0.93792(5) 0.66327(5)
Br2 Br 0.10047(3) 1.14832(6) 0.58643(6)
P1 P 0.12653(7) 0.81853(13) 0.54710(12)
P2 P 0.07953(7) 0.73018(12) 0.34871(12)
C1 C 0.1019(3) 0.6981(5) 0.4925(4)
C2 C 0.1263(3) 0.7680(5) 0.6988(5)
C3 C 0.1187(3) 0.8482(6) 0.7738(5)
C4 C 0.1212(4) 0.8163(7) 0.8893(6)
C5 C 0.1301(4) 0.7062(8) 0.9305(6)
C6 C 0.1365(4) 0.6245(7) 0.8578(6)
C7 C 0.1341(3) 0.6564(6) 0.7421(5)
C8 C 0.2092(3) 0.8168(5) 0.4900(5)
C9 C 0.2306(3) 0.9053(6) 0.4138(6)
C10 C 0.2924(4) 0.9049(8) 0.3640(7)
C11 C 0.3333(4) 0.8196(9) 0.3935(7)
C12 C 0.3142(3) 0.7312(7) 0.4693(7)
C13 C 0.2515(3) 0.7286(6) 0.5178(6)
C14 C 0.0589(3) 0.5947(5) 0.3212(5)
C15 C 0.0691(3) 0.4938(6) 0.3860(6)
C16 C 0.0525(3) 0.3948(5) 0.3572(6)
C17 C 0.0244(3) 0.3966(6) 0.2632(7)
C18 C 0.0139(4) 0.4960(7) 0.1988(7)
C19 C 0.0307(4) 0.5940(6) 0.2250(6)
C20 C 0.1538(3) 0.7470(5) 0.2546(5)
C21 C 0.1638(3) 0.8479(5) 0.1863(5)
C22 C 0.2207(4) 0.8639(6) 0.1176(6)
C23 C 0.2684(3) 0.7813(7) 0.1165(6)
C24 C 0.2588(3) 0.6814(6) 0.1829(6)
C25 C 0.2021(3) 0.6623(5) 0.2511(6)
N1 N 0.0119(3) 1.1099(5) 0.8558(5)
C26 C 0.0311(4) 1.1263(6) 0.9325(6)
C27 C 0.0561(5) 1.1521(10) 1.0281(7)
H1 H 0.13523 0.63954 0.49029
H2 H 0.06694 0.66915 0.54513
H3 H 0.11052 0.92749 0.74468
H4 H 0.11811 0.87321 0.94044
H5 H 0.13104 0.68648 1.01225
H6 H 0.14246 0.54534 0.88856
H7 H 0.13714 0.59980 0.69141
H8 H 0.20053 0.96958 0.39499
H9 H 0.30627 0.97070 0.31067
H10 H 0.37692 0.82297 0.35797
H11 H 0.34483 0.66689 0.48789
H12 H 0.23642 0.66534 0.57277
H13 H 0.08813 0.49277 0.45304
H14 H 0.06220 0.32451 0.40409
H15 H 0.01189 0.32848 0.24451
H16 H -0.00674 0.49821 0.13109
H17 H 0.02257 0.66471 0.17938
H18 H 0.12996 0.90793 0.18523
H19 H 0.22689 0.93445 0.07173
H20 H 0.30764 0.79309 0.07053
H21 H 0.29228 0.62237 0.18257
H22 H 0.19606 0.58932 0.29599
H23 H 0.03604 1.11660 1.09866
H24 H 0.10037 1.12888 1.02164
H25 H 0.05230 1.23209 1.03180
Cu1A Cu -0.07305(4) 1.01851(7) 0.48422(7)
Cu2A Cu 0.00736(4) 0.86866(7) 0.31844(8)
Br1A Br 0.03603(3) 1.06208(5) 0.33673(5)
P2A P -0.07953(7) 1.26982(12) 0.65129(12)
Cu3 Cu 0.54734(4) 0.98078(6) 1.08540(6)
Cu4 Cu 0.43678(4) 1.14163(6) 1.17707(7)
Br3 Br 0.42770(3) 0.94810(5) 1.11811(5)
Br4 Br 0.54819(3) 1.14434(5) 1.19179(5)
P3 P 0.59290(7) 0.82055(12) 1.15382(12)
P4 P 0.60824(7) 0.71584(12) 0.92559(12)
C28 C 0.5904(3) 0.6966(5) 1.0826(5)
C29 C 0.5584(3) 0.7712(5) 1.3016(5)
C30 C 0.5208(3) 0.8460(6) 1.3646(5)
C31 C 0.4951(4) 0.8141(8) 1.4773(6)
C32 C 0.5059(4) 0.7080(9) 1.5254(6)
C33 C 0.5414(6) 0.6314(8) 1.4636(7)
C34 C 0.5684(5) 0.6633(6) 1.3517(6)
C35 C 0.6748(3) 0.8252(5) 1.1655(5)
C36 C 0.6986(3) 0.9281(6) 1.1490(6)
C37 C 0.7583(4) 0.9393(7) 1.1653(7)
C38 C 0.7957(4) 0.8477(10) 1.1958(7)
C39 C 0.7742(4) 0.7438(9) 1.2113(8)
C40 C 0.7134(4) 0.7317(7) 1.1955(7)
C41 C 0.5940(3) 0.5797(5) 0.8901(5)
C42 C 0.5853(3) 0.4840(5) 0.9682(5)
C43 C 0.5755(3) 0.3839(5) 0.9339(6)
C44 C 0.5733(3) 0.3779(5) 0.8208(7)
C45 C 0.5810(4) 0.4703(6) 0.7435(6)
C46 C 0.5909(4) 0.5715(5) 0.7768(6)
C47 C 0.6938(3) 0.7147(5) 0.8986(5)
C48 C 0.7191(3) 0.8162(6) 0.8631(6)
C49 C 0.7832(3) 0.8201(7) 0.8390(8)
C50 C 0.8210(3) 0.7232(8) 0.8498(8)
C51 C 0.7970(4) 0.6231(8) 0.8853(8)
C52 C 0.7327(3) 0.6180(6) 0.9103(7)
N2 N 0.3978(3) 1.1109(5) 1.3470(5)
C53 C 0.3770(4) 1.0867(7) 1.4382(7)
C54 C 0.3486(5) 1.0538(10) 1.5574(6)
H26 H 0.61888 0.63711 1.11130
H27 H 0.54896 0.66954 1.10431
H28 H 0.51173 0.92185 1.32902
H29 H 0.46868 0.86791 1.52160
H30 H 0.48770 0.68488 1.60447
H31 H 0.54732 0.55318 1.49727
H32 H 0.59544 0.60911 1.30954
H33 H 0.67264 0.99439 1.12414
H34 H 0.77307 1.01337 1.15570
H35 H 0.83767 0.85833 1.20653
H36 H 0.80257 0.68102 1.23005
H37 H 0.69714 0.65610 1.20806
H38 H 0.58551 0.48716 1.05035
H39 H 0.56993 0.31710 0.99025
H40 H 0.56580 0.30823 0.79850
H41 H 0.57866 0.46641 0.66249
H42 H 0.59581 0.63755 0.72121
H43 H 0.69135 0.88420 0.85305
H44 H 0.80048 0.89215 0.81422
H45 H 0.86694 0.72601 0.83324
H46 H 0.82429 0.55405 0.89417
H47 H 0.71481 0.54615 0.93390
H48 H 0.37932 1.00766 1.59880
H49 H 0.31472 1.00856 1.56106
H50 H 0.33490 1.11627 1.59690
Cu3A Cu 0.45266(4) 1.01922(6) 0.91460(6)
Cu4A Cu 0.56322(4) 0.85837(6) 0.82293(7)
Br3A Br 0.57230(3) 1.05190(5) 0.88189(5)
P4A P 0.39176(7) 1.28416(12) 1.07441(12)
N3 N 0.3346(6) 0.5561(8) -0.2254(11)
C55 C 0.3180(5) 0.6430(9) -0.2178(8)
C56 C 0.2963(5) 0.7566(8) -0.2097(9)
H51 H 0.28634 0.79393 -0.28067
H52 H 0.32716 0.79691 -0.18697
H53 H 0.25910 0.76375 -0.15257
N4 N 0.2065(6) 0.4533(8) -0.4601(11)
C57 C 0.2258(6) 0.3853(10) -0.5105(10)
C58 C 0.2424(7) 0.2951(13) -0.5748(13)
H54 H 0.25934 0.31629 -0.65505
H55 H 0.20473 0.25491 -0.58004
H56 H 0.27076 0.23635 -0.54595
loop_
_geom_bond_atom_site_label_1
_geom_bond_atom_site_label_2
_geom_bond_site_symmetry_1
_geom_bond_site_symmetry_2
Cu1 Br1 1_555 1_555
Cu2 Br1 1_555 1_555
Br1 Cu1A 1_555 1_555
Br2 Cu1 1_555 1_555
P1 Cu1 1_555 1_555
P2 C1 1_555 1_555
C1 P1 1_555 1_555
C2 P1 1_555 1_555
C3 C2 1_555 1_555
C4 C3 1_555 1_555
C5 C4 1_555 1_555
C6 C5 1_555 1_555
C7 C2 1_555 1_555
C8 P1 1_555 1_555
C9 C8 1_555 1_555
C10 C9 1_555 1_555
C11 C10 1_555 1_555
C12 C11 1_555 1_555
C13 C8 1_555 1_555
C14 P2 1_555 1_555
C15 C14 1_555 1_555
C16 C15 1_555 1_555
C17 C16 1_555 1_555
C18 C17 1_555 1_555
C19 C14 1_555 1_555
C20 P2 1_555 1_555
C21 C20 1_555 1_555
C22 C21 1_555 1_555
C23 C22 1_555 1_555
C24 C23 1_555 1_555
C25 C20 1_555 1_555
N1 Cu2 1_555 1_555
C26 N1 1_555 1_555
C27 C26 1_555 1_555
H1 C1 1_555 1_555
H2 C1 1_555 1_555
H3 C3 1_555 1_555
H4 C4 1_555 1_555
H5 C5 1_555 1_555
H6 C6 1_555 1_555
H7 C7 1_555 1_555
H8 C9 1_555 1_555
H9 C10 1_555 1_555
H10 C11 1_555 1_555
H11 C12 1_555 1_555
H12 C13 1_555 1_555
H13 C15 1_555 1_555
H14 C16 1_555 1_555
H15 C17 1_555 1_555
H16 C18 1_555 1_555
H17 C19 1_555 1_555
H18 C21 1_555 1_555
H19 C22 1_555 1_555
H20 C23 1_555 1_555
H21 C24 1_555 1_555
H22 C25 1_555 1_555
H23 C27 1_555 1_555
H24 C27 1_555 1_555
H25 C27 1_555 1_555
Cu3 Br3 1_555 1_555
Cu4 Br3 1_555 1_555
Br3 Cu3A 1_555 1_555
Br4 Cu3 1_555 1_555
P3 Cu3 1_555 1_555
P4 C28 1_555 1_555
C28 P3 1_555 1_555
C29 P3 1_555 1_555
C30 C29 1_555 1_555
C31 C30 1_555 1_555
C32 C31 1_555 1_555
C33 C32 1_555 1_555
C34 C29 1_555 1_555
C35 P3 1_555 1_555
C36 C35 1_555 1_555
C37 C36 1_555 1_555
C38 C37 1_555 1_555
C39 C38 1_555 1_555
C40 C35 1_555 1_555
C41 P4 1_555 1_555
C42 C41 1_555 1_555
C43 C42 1_555 1_555
C44 C43 1_555 1_555
C45 C44 1_555 1_555
C46 C41 1_555 1_555
C47 P4 1_555 1_555
C48 C47 1_555 1_555
C49 C48 1_555 1_555
C50 C49 1_555 1_555
C51 C50 1_555 1_555
C52 C47 1_555 1_555
N2 Cu4 1_555 1_555
C53 N2 1_555 1_555
C54 C53 1_555 1_555
H26 C28 1_555 1_555
H27 C28 1_555 1_555
H28 C30 1_555 1_555
H29 C31 1_555 1_555
H30 C32 1_555 1_555
H31 C33 1_555 1_555
H32 C34 1_555 1_555
H33 C36 1_555 1_555
H34 C37 1_555 1_555
H35 C38 1_555 1_555
H36 C39 1_555 1_555
H37 C40 1_555 1_555
H38 C42 1_555 1_555
H39 C43 1_555 1_555
H40 C44 1_555 1_555
H41 C45 1_555 1_555
H42 C46 1_555 1_555
H43 C48 1_555 1_555
H44 C49 1_555 1_555
H45 C50 1_555 1_555
H46 C51 1_555 1_555
H47 C52 1_555 1_555
H48 C54 1_555 1_555
H49 C54 1_555 1_555
H50 C54 1_555 1_555
N3 C55 1_555 1_555
C55 C56 1_555 1_555
C56 H51 1_555 1_555
H52 C56 1_555 1_555
H53 C56 1_555 1_555
N4 C57 1_555 1_555
C57 C58 1_555 1_555
C58 H54 1_555 1_555
H55 C58 1_555 1_555
H56 C58 1_555 1_555
Cu1A Br1A 1_555 1_555
Cu2A P2 1_555 1_555
Br1A Cu1 1_555 1_555
P2A Cu2 1_555 1_555
Cu3A Br3A 1_555 1_555
Cu4A P4 1_555 1_555
Br3A Cu3 1_555 1_555
P4A Cu4 1_555 1_555
Cu2 Br2 1_555 1_555
C6 C7 1_555 1_555
C12 C13 1_555 1_555
C18 C19 1_555 1_555
C24 C25 1_555 1_555
Cu4 Br4 1_555 1_555
C33 C34 1_555 1_555
C39 C40 1_555 1_555
C45 C46 1_555 1_555
C51 C52 1_555 1_555
Cu2A Br1A 1_555 1_555
Cu4A Br3A 1_555 1_555

#END
