
#######################################################################
#
#                 Cambridge Crystallographic Data Centre
#                                CCDC 
#
#######################################################################
#
# If this CIF has been generated from an entry in the Cambridge 
# Structural Database, then it will include bibliographic, chemical, 
# crystal, experimental, refinement or atomic coordinate data resulting 
# from the CCDC's data processing and validation procedures.
#
#######################################################################

data_OCOFOC
_symmetry_cell_setting           monoclinic
_symmetry_space_group_name_H-M   'C 2/c'
_symmetry_Int_Tables_number      15
_space_group_name_Hall           '-C 2yn'
loop_
_symmetry_equiv_pos_site_id
_symmetry_equiv_pos_as_xyz
1 x,y,z
2 1/2+x,1/2+y,z
3 -x,y,1/2-z
4 1/2-x,1/2+y,1/2-z
5 -x,-y,-z
6 1/2-x,1/2-y,-z
7 x,-y,1/2+z
8 1/2+x,1/2-y,1/2+z
_cell_length_a                   14.303(3)
_cell_length_b                   11.268(2)
_cell_length_c                   20.260(4)
_cell_angle_alpha                90
_cell_angle_beta                 103.37(3)
_cell_angle_gamma                90
_cell_volume                     3176.73
loop_
_atom_site_label
_atom_site_type_symbol
_atom_site_fract_x
_atom_site_fract_y
_atom_site_fract_z
Cu1 Cu 0.71425(3) 0.13243(4) 0.52210(2)
Br1 Br 0.63392(3) 0.26767(3) 0.421647(17)
P1 P 0.60857(6) 0.08447(7) 0.58331(4)
C1 C 0.5198(2) -0.0205(3) 0.53630(15)
C2 C 0.6535(2) 0.0091(3) 0.66449(15)
C3 C 0.6047(3) -0.0814(4) 0.6887(2)
C4 C 0.6436(3) -0.1338(4) 0.7513(2)
C5 C 0.7301(3) -0.0972(5) 0.7889(2)
C6 C 0.7800(3) -0.0083(5) 0.7653(2)
C7 C 0.7417(3) 0.0458(4) 0.70286(18)
C8 C 0.5351(2) 0.2047(3) 0.60527(17)
C9 C 0.5413(3) 0.3157(3) 0.5780(2)
C10 C 0.4872(4) 0.4100(4) 0.5931(2)
C11 C 0.4274(4) 0.3930(5) 0.6353(3)
C12 C 0.4203(4) 0.2845(6) 0.6639(3)
C13 C 0.4738(4) 0.1883(5) 0.6484(3)
N1 N 0.7581(2) -0.0078(3) 0.47327(17)
C14 C 0.7868(3) -0.0871(4) 0.4515(2)
C15 C 0.8269(5) -0.1912(5) 0.4237(4)
H1 H 0.54211 -0.10150 0.54550
H2 H 0.46000 -0.01460 0.55071
H3 H 0.54025 -0.10742 0.66165
H4 H 0.60502 -0.19859 0.76868
H5 H 0.75452 -0.13164 0.83591
H6 H 0.84649 0.01646 0.79227
H7 H 0.77615 0.11174 0.68556
H8 H 0.58475 0.32905 0.54625
H9 H 0.48723 0.49165 0.56974
H10 H 0.39434 0.46445 0.65145
H11 H 0.37127 0.27509 0.69772
H12 H 0.47132 0.10457 0.66998
H13 H 0.83285 -0.17404 0.37807
H14 H 0.78821 -0.25875 0.42278
H15 H 0.89052 -0.20766 0.45029
Cu1E Cu 0.78575(3) 0.36757(4) 0.47790(2)
Cu1D Cu 0.28575(3) -0.13243(4) 0.47790(2)
Br1E Br 0.86608(3) 0.23233(3) 0.578353(17)
P1D P 0.39143(6) -0.08447(7) 0.41669(4)
P1E P 0.89143(6) 0.41553(7) 0.41669(4)
C1D C 0.4802(2) 0.0205(3) 0.46370(15)
C2D C 0.3465(2) -0.0091(3) 0.33551(15)
C3D C 0.3953(3) 0.0814(4) 0.3113(2)
C4D C 0.3564(3) 0.1338(4) 0.2487(2)
C5D C 0.2699(3) 0.0972(5) 0.2111(2)
C6D C 0.2200(3) 0.0083(5) 0.2347(2)
C7D C 0.2583(3) -0.0458(4) 0.29714(18)
C8D C 0.4649(2) -0.2047(3) 0.39473(17)
C9D C 0.4587(3) -0.3157(3) 0.4220(2)
C10D C 0.5128(4) -0.4100(4) 0.4069(2)
C11D C 0.5726(4) -0.3930(5) 0.3647(3)
C12D C 0.5797(4) -0.2845(6) 0.3361(3)
C13D C 0.5262(4) -0.1883(5) 0.3516(3)
N1E N 0.7419(2) 0.5078(3) 0.52673(17)
C14E C 0.7132(3) 0.5871(4) 0.5485(2)
C15E C 0.6731(5) 0.6912(5) 0.5763(4)
H1D H 0.45789 0.10150 0.45450
H2D H 0.54000 0.01460 0.44929
H3D H 0.45975 0.10742 0.33835
H4D H 0.39498 0.19859 0.23132
H5D H 0.24548 0.13164 0.16409
H6D H 0.15351 -0.01646 0.20773
H7D H 0.22385 -0.11174 0.31444
H8D H 0.41525 -0.32905 0.45375
H9D H 0.51277 -0.49165 0.43026
H10D H 0.60566 -0.46445 0.34855
H11D H 0.62873 -0.27509 0.30228
H12D H 0.52868 -0.10457 0.33002
H13E H 0.66715 0.67404 0.62193
H14E H 0.71179 0.75875 0.57722
H15E H 0.60948 0.70766 0.54971
loop_
_geom_bond_atom_site_label_1
_geom_bond_atom_site_label_2
_geom_bond_site_symmetry_1
_geom_bond_site_symmetry_2
Cu1 Br1 1_555 1_555
Br1 Cu1E 1_555 1_555
P1 Cu1 1_555 1_555
C1 P1 1_555 1_555
C2 P1 1_555 1_555
C3 C2 1_555 1_555
C4 C3 1_555 1_555
C5 C4 1_555 1_555
C6 C5 1_555 1_555
C7 C2 1_555 1_555
C8 P1 1_555 1_555
C9 C8 1_555 1_555
C10 C9 1_555 1_555
C11 C10 1_555 1_555
C12 C11 1_555 1_555
C13 C8 1_555 1_555
N1 Cu1 1_555 1_555
C14 N1 1_555 1_555
C15 C14 1_555 1_555
H1 C1 1_555 1_555
H2 C1 1_555 1_555
H3 C3 1_555 1_555
H4 C4 1_555 1_555
H5 C5 1_555 1_555
H6 C6 1_555 1_555
H7 C7 1_555 1_555
H8 C9 1_555 1_555
H9 C10 1_555 1_555
H10 C11 1_555 1_555
H11 C12 1_555 1_555
H12 C13 1_555 1_555
H13 C15 1_555 1_555
H14 C15 1_555 1_555
H15 C15 1_555 1_555
Cu1E Br1E 1_555 1_555
Cu1D P1D 1_555 1_555
Br1E Cu1 1_555 1_555
P1D C1D 1_555 1_555
P1E Cu1E 1_555 1_555
C1D C1 1_555 1_555
C2D P1D 1_555 1_555
C3D C2D 1_555 1_555
C4D C3D 1_555 1_555
C5D C4D 1_555 1_555
C6D C5D 1_555 1_555
C7D C2D 1_555 1_555
C8D P1D 1_555 1_555
C9D C8D 1_555 1_555
C10D C9D 1_555 1_555
C11D C10D 1_555 1_555
C12D C11D 1_555 1_555
C13D C8D 1_555 1_555
N1E Cu1E 1_555 1_555
C14E N1E 1_555 1_555
C15E C14E 1_555 1_555
H1D C1D 1_555 1_555
H2D C1D 1_555 1_555
H3D C3D 1_555 1_555
H4D C4D 1_555 1_555
H5D C5D 1_555 1_555
H6D C6D 1_555 1_555
H7D C7D 1_555 1_555
H8D C9D 1_555 1_555
H9D C10D 1_555 1_555
H10D C11D 1_555 1_555
H11D C12D 1_555 1_555
H12D C13D 1_555 1_555
H13E C15E 1_555 1_555
H14E C15E 1_555 1_555
H15E C15E 1_555 1_555
C6 C7 1_555 1_555
C12 C13 1_555 1_555
C6D C7D 1_555 1_555
C12D C13D 1_555 1_555

#END
