
#######################################################################
#
#                 Cambridge Crystallographic Data Centre
#                                CCDC 
#
#######################################################################
#
# If this CIF has been generated from an entry in the Cambridge 
# Structural Database, then it will include bibliographic, chemical, 
# crystal, experimental, refinement or atomic coordinate data resulting 
# from the CCDC's data processing and validation procedures.
#
#######################################################################

data_OCOGAP
_symmetry_cell_setting           triclinic
_symmetry_space_group_name_H-M   'P -1'
_symmetry_Int_Tables_number      2
_space_group_name_Hall           '-P 1'
loop_
_symmetry_equiv_pos_site_id
_symmetry_equiv_pos_as_xyz
1 x,y,z
2 -x,-y,-z
_cell_length_a                   11.4350(16)
_cell_length_b                   12.4850(18)
_cell_length_c                   12.5990(18)
_cell_angle_alpha                75.900(2)
_cell_angle_beta                 81.396(2)
_cell_angle_gamma                89.975(2)
_cell_volume                     1723.67
loop_
_atom_site_label
_atom_site_type_symbol
_atom_site_fract_x
_atom_site_fract_y
_atom_site_fract_z
Cu1 Cu 0.47404(4) 0.42106(4) 0.43415(4)
Cu2 Cu 0.53569(4) 0.58295(4) 0.22559(4)
Cu3 Cu 0.47656(4) 0.42284(4) 0.10801(4)
I1 I 0.399421(19) 0.628652(18) 0.401602(18)
I2 I 0.61650(2) 0.381197(18) 0.264355(18)
I3 I 0.40005(2) 0.624569(19) 0.069334(18)
Sb1 Sb 0.281462(19) 0.307906(18) 0.496479(18)
Sb2 Sb 0.29373(2) 0.279151(18) 0.794742(18)
C1 C 0.1343(3) 0.3692(3) 0.4153(3)
C2 C 0.0175(3) 0.3321(3) 0.4577(3)
C3 C -0.0735(3) 0.3717(3) 0.3990(3)
C4 C -0.0491(3) 0.4494(3) 0.2993(3)
C5 C 0.0655(3) 0.4888(3) 0.2569(3)
C6 C 0.1570(3) 0.4494(3) 0.3152(3)
C7 C 0.2739(3) 0.1398(3) 0.4849(3)
C8 C 0.1708(3) 0.0713(3) 0.5256(3)
C9 C 0.1706(4) -0.0372(3) 0.5170(3)
C10 C 0.2713(4) -0.0796(3) 0.4698(4)
C11 C 0.3729(4) -0.0122(3) 0.4278(3)
C12 C 0.3741(3) 0.0963(3) 0.4363(3)
C13 C 0.1918(3) 0.2930(3) 0.6622(3)
C14 C 0.1423(3) 0.2631(3) 0.9208(3)
C15 C 0.1160(3) 0.3521(3) 0.9683(3)
C16 C 0.0106(4) 0.3507(3) 1.0401(3)
C17 C -0.0681(4) 0.2609(4) 1.0661(3)
C18 C -0.0414(3) 0.1717(4) 1.0229(3)
C19 C 0.0636(3) 0.1723(3) 0.9499(3)
C20 C 0.3427(3) 0.1119(3) 0.8124(3)
C21 C 0.4449(4) 0.0801(3) 0.8579(4)
C22 C 0.4858(4) -0.0265(4) 0.8659(4)
C23 C 0.4250(4) -0.1012(3) 0.8267(3)
C24 C 0.3254(4) -0.0697(3) 0.7805(3)
C25 C 0.2831(3) 0.0358(3) 0.7732(3)
N1 N 0.3423(3) 0.3121(3) 0.1600(3)
C26 C 0.2651(3) 0.2514(3) 0.1911(3)
C27 C 0.1632(4) 0.1740(4) 0.2324(4)
H1 H 0.00029 0.28033 0.52725
H2 H -0.15249 0.34529 0.42757
H3 H -0.11169 0.47621 0.25936
H4 H 0.08164 0.54251 0.18819
H5 H 0.23577 0.47739 0.28652
H6 H 0.10170 0.09980 0.55872
H7 H 0.10045 -0.08270 0.54362
H8 H 0.27107 -0.15456 0.46589
H9 H 0.44156 -0.04079 0.39326
H10 H 0.44398 0.14169 0.40865
H11 H 0.14132 0.22830 0.68031
H12 H 0.14550 0.35593 0.66051
H13 H 0.17007 0.41364 0.95133
H14 H -0.00811 0.41211 1.07106
H15 H -0.13999 0.26092 1.11447
H16 H -0.09495 0.10915 1.04259
H17 H 0.08114 0.11015 0.92045
H18 H 0.48682 0.13144 0.88377
H19 H 0.55478 -0.04760 0.89814
H20 H 0.45252 -0.17376 0.83179
H21 H 0.28463 -0.12072 0.75247
H22 H 0.21370 0.05594 0.74177
H23 H 0.12714 0.16488 0.17165
H24 H 0.10722 0.20316 0.28104
H25 H 0.18796 0.10502 0.27081
Cu1A Cu 0.52596(4) 0.57894(4) 0.56585(4)
Cu2A Cu 0.46431(4) 0.41705(4) 0.77441(4)
Cu3A Cu 0.52344(4) 0.57716(4) -0.10801(4)
I1A I 0.600579(19) 0.371348(18) 0.598398(18)
I3A I 0.59995(2) 0.375431(19) -0.069334(18)
Sb2A Sb 0.70627(2) 0.720849(18) 0.205258(18)
N2 N 0.9572(3) 0.0750(4) 0.7437(4)
C28 C 0.8776(4) 0.1158(4) 0.7741(4)
C29 C 0.7730(8) 0.1668(9) 0.8138(7)
H26 H 0.78307 0.24586 0.78229
H27 H 0.70726 0.13924 0.79493
H28 H 0.76748 0.15505 0.89258
loop_
_geom_bond_atom_site_label_1
_geom_bond_atom_site_label_2
_geom_bond_site_symmetry_1
_geom_bond_site_symmetry_2
Cu1 I1 1_555 1_555
Cu2 I1 1_555 1_555
Cu3 I2 1_555 1_555
I1 Cu1A 1_555 1_555
I2 Cu1 1_555 1_555
I3 Cu2 1_555 1_555
Sb1 Cu1 1_555 1_555
Sb2 C13 1_555 1_555
C1 Sb1 1_555 1_555
C2 C1 1_555 1_555
C3 C2 1_555 1_555
C4 C3 1_555 1_555
C5 C4 1_555 1_555
C6 C1 1_555 1_555
C7 Sb1 1_555 1_555
C8 C7 1_555 1_555
C9 C8 1_555 1_555
C10 C9 1_555 1_555
C11 C10 1_555 1_555
C12 C7 1_555 1_555
C13 Sb1 1_555 1_555
C14 Sb2 1_555 1_555
C15 C14 1_555 1_555
C16 C15 1_555 1_555
C17 C16 1_555 1_555
C18 C17 1_555 1_555
C19 C14 1_555 1_555
C20 Sb2 1_555 1_555
C21 C20 1_555 1_555
C22 C21 1_555 1_555
C23 C22 1_555 1_555
C24 C23 1_555 1_555
C25 C20 1_555 1_555
N1 Cu3 1_555 1_555
C26 N1 1_555 1_555
C27 C26 1_555 1_555
H1 C2 1_555 1_555
H2 C3 1_555 1_555
H3 C4 1_555 1_555
H4 C5 1_555 1_555
H5 C6 1_555 1_555
H6 C8 1_555 1_555
H7 C9 1_555 1_555
H8 C10 1_555 1_555
H9 C11 1_555 1_555
H10 C12 1_555 1_555
H11 C13 1_555 1_555
H12 C13 1_555 1_555
H13 C15 1_555 1_555
H14 C16 1_555 1_555
H15 C17 1_555 1_555
H16 C18 1_555 1_555
H17 C19 1_555 1_555
H18 C21 1_555 1_555
H19 C22 1_555 1_555
H20 C23 1_555 1_555
H21 C24 1_555 1_555
H22 C25 1_555 1_555
H23 C27 1_555 1_555
H24 C27 1_555 1_555
H25 C27 1_555 1_555
N2 C28 1_555 1_555
C28 C29 1_555 1_555
C29 H26 1_555 1_555
H27 C29 1_555 1_555
H28 C29 1_555 1_555
Cu1A I1A 1_555 1_555
Cu2A Sb2 1_555 1_555
Cu3A I3 1_555 1_555
I1A Cu1 1_555 1_555
I3A Cu3 1_555 1_555
Sb2A Cu2 1_555 1_555
Cu2 I2 1_555 1_555
Cu3 I3 1_555 1_555
C5 C6 1_555 1_555
C11 C12 1_555 1_555
C18 C19 1_555 1_555
C24 C25 1_555 1_555
Cu2A I1A 1_555 1_555
Cu3A I3A 1_555 1_555

#END
