
#######################################################################
#
#                 Cambridge Crystallographic Data Centre
#                                CCDC 
#
#######################################################################
#
# If this CIF has been generated from an entry in the Cambridge 
# Structural Database, then it will include bibliographic, chemical, 
# crystal, experimental, refinement or atomic coordinate data resulting 
# from the CCDC's data processing and validation procedures.
#
#######################################################################

data_OCOHEU
_symmetry_cell_setting           triclinic
_symmetry_space_group_name_H-M   'P -1'
_symmetry_Int_Tables_number      2
_space_group_name_Hall           '-P 1'
loop_
_symmetry_equiv_pos_site_id
_symmetry_equiv_pos_as_xyz
1 x,y,z
2 -x,-y,-z
_cell_length_a                   10.479(2)
_cell_length_b                   10.889(2)
_cell_length_c                   15.191(3)
_cell_angle_alpha                90.935(3)
_cell_angle_beta                 106.893(3)
_cell_angle_gamma                93.564(3)
_cell_volume                     1654.3
loop_
_atom_site_label
_atom_site_type_symbol
_atom_site_fract_x
_atom_site_fract_y
_atom_site_fract_z
Cu1 Cu 0.77175(4) 0.45071(4) 0.52071(3)
Cu2 Cu 0.69026(4) 0.68118(4) 0.41990(3)
Cu3 Cu 0.70216(4) 1.00119(4) -0.04328(3)
Cu4 Cu 0.79806(4) 0.91190(4) 0.14795(3)
N1 N 0.8685(3) 0.3157(2) 0.5020(2)
N2 N 0.6982(3) 0.3439(3) 0.59434(19)
N3 N 0.7710(3) 1.1223(3) -0.1096(2)
N4 N 0.5445(3) 0.9882(3) -0.14344(19)
O1 O 0.8145(2) 0.5484(2) 0.42662(15)
O2 O 0.6779(2) 0.5917(2) 0.52963(16)
O3 O 0.7300(3) 0.7399(2) 0.31124(17)
O4 O 0.8098(3) 0.7465(2) 0.19251(17)
O5 O 0.8532(2) 1.0269(2) 0.06489(15)
O6 O 0.6498(2) 0.8795(2) 0.02999(16)
O7 O 0.9592(3) 0.9581(3) 0.24317(18)
O8 O 1.1348(3) 1.0724(3) 0.32393(18)
O9 O 0.5020(2) 0.2848(2) 0.62339(17)
O10 O 0.3188(3) 0.9574(3) -0.19905(17)
O11 O 0.7828(3) 0.8503(2) 0.49219(18)
C1 C 0.8745(3) 0.5119(3) 0.3650(2)
C2 C 0.8760(3) 0.5835(3) 0.2897(2)
C3 C 0.9519(4) 0.5494(3) 0.2327(2)
H1 H 0.9554 0.5994 0.1843
C4 C 1.0216(4) 0.4455(4) 0.2451(3)
H2 H 1.0731 0.4264 0.2069
C5 C 1.0135(4) 0.3701(3) 0.3154(3)
H3 H 1.0583 0.2981 0.3235
C6 C 0.9390(3) 0.3997(3) 0.3751(2)
C7 C 0.9311(3) 0.3075(3) 0.4415(2)
H4 H 0.9753 0.2363 0.4399
C8 C 0.8572(4) 0.2131(3) 0.5623(2)
H5 H 0.9254 0.2245 0.6212
H6 H 0.8675 0.1353 0.5340
C9 C 0.7186(4) 0.2147(3) 0.5749(3)
H7 H 0.6512 0.1830 0.5195
H8 H 0.7124 0.1641 0.6257
C10 C 0.5883(3) 0.3685(3) 0.6152(2)
C11 C 0.5684(3) 0.5011(3) 0.6348(2)
C12 C 0.4988(4) 0.5225(4) 0.6999(2)
H9 H 0.4760 0.4564 0.7317
C13 C 0.4638(4) 0.6372(4) 0.7178(3)
H10 H 0.4183 0.6488 0.7611
C14 C 0.4969(4) 0.7350(4) 0.6706(3)
H11 H 0.4712 0.8128 0.6811
C15 C 0.5679(4) 0.7194(3) 0.6076(3)
H12 H 0.5904 0.7868 0.5768
C16 C 0.6057(3) 0.6030(3) 0.5903(2)
C17 C 0.8014(3) 0.6981(3) 0.2652(2)
C18 C 0.9596(4) 1.1047(3) 0.0799(2)
C19 C 1.0595(4) 1.1136(3) 0.1662(2)
C20 C 1.1744(4) 1.1907(4) 0.1771(3)
H13 H 1.2399 1.1952 0.2337
C21 C 1.1942(4) 1.2608(4) 0.1069(3)
H14 H 1.2730 1.3098 0.1152
C22 C 1.0956(4) 1.2569(4) 0.0246(3)
H15 H 1.1078 1.3055 -0.0224
C23 C 0.9775(4) 1.1825(3) 0.0089(2)
C24 C 0.8815(4) 1.1857(4) -0.0813(3)
H16 H 0.9031 1.2396 -0.1225
C25 C 0.6831(4) 1.1287(4) -0.2051(3)
H17 H 0.7132 1.0755 -0.2458
H18 H 0.6871 1.2123 -0.2257
C26 C 0.5398(4) 1.0880(4) -0.2084(3)
H19 H 0.4963 1.1567 -0.1913
H20 H 0.4896 1.0590 -0.2702
C27 C 0.4303(4) 0.9315(3) -0.1439(2)
C28 C 0.4306(4) 0.8291(3) -0.0791(2)
C29 C 0.3147(4) 0.7484(4) -0.1016(3)
H21 H 0.2431 0.7651 -0.1517
C30 C 0.3033(5) 0.6453(4) -0.0516(3)
H22 H 0.2262 0.5926 -0.0687
C31 C 0.4080(5) 0.6219(4) 0.0240(3)
H23 H 0.4008 0.5535 0.0586
C32 C 0.5239(4) 0.6990(4) 0.0489(3)
H24 H 0.5945 0.6806 0.0991
C33 C 0.5361(4) 0.8050(3) -0.0008(2)
C34 C 1.0501(4) 1.0444(4) 0.2498(2)
Cu2A Cu 0.30974(4) 0.31882(4) 0.58010(3)
Cu4A Cu 0.20194(4) 1.08810(4) -0.14795(3)
O9A O 0.4980(2) 0.7152(2) 0.37661(17)
O10A O 0.6812(3) 1.0426(3) 0.19905(17)
O12 O 0.8360(3) 1.0235(3) 0.38014(18)
loop_
_geom_bond_atom_site_label_1
_geom_bond_atom_site_label_2
_geom_bond_site_symmetry_1
_geom_bond_site_symmetry_2
Cu1 N1 1_555 1_555
Cu2 O1 1_555 1_555
Cu3 N3 1_555 1_555
Cu4 O4 1_555 1_555
N1 C7 1_555 1_555
N2 Cu1 1_555 1_555
N3 C24 1_555 1_555
N4 Cu3 1_555 1_555
O1 Cu1 1_555 1_555
O2 Cu1 1_555 1_555
O3 Cu2 1_555 1_555
O4 C17 1_555 1_555
O5 Cu3 1_555 1_555
O6 Cu3 1_555 1_555
O7 Cu4 1_555 1_555
O8 C34 1_555 1_555
O9 C10 1_555 1_555
O10 C27 1_555 1_555
O11 Cu2 1_555 1_555
C1 O1 1_555 1_555
C2 C1 1_555 1_555
C3 C2 1_555 1_555
H1 C3 1_555 1_555
C4 C3 1_555 1_555
H2 C4 1_555 1_555
C5 C4 1_555 1_555
H3 C5 1_555 1_555
C6 C1 1_555 1_555
C7 C6 1_555 1_555
H4 C7 1_555 1_555
C8 N1 1_555 1_555
H5 C8 1_555 1_555
H6 C8 1_555 1_555
C9 N2 1_555 1_555
H7 C9 1_555 1_555
H8 C9 1_555 1_555
C10 N2 1_555 1_555
C11 C10 1_555 1_555
C12 C11 1_555 1_555
H9 C12 1_555 1_555
C13 C12 1_555 1_555
H10 C13 1_555 1_555
C14 C13 1_555 1_555
H11 C14 1_555 1_555
C15 C14 1_555 1_555
H12 C15 1_555 1_555
C16 O2 1_555 1_555
C17 O3 1_555 1_555
C18 O5 1_555 1_555
C19 C18 1_555 1_555
C20 C19 1_555 1_555
H13 C20 1_555 1_555
C21 C20 1_555 1_555
H14 C21 1_555 1_555
C22 C21 1_555 1_555
H15 C22 1_555 1_555
C23 C18 1_555 1_555
C24 C23 1_555 1_555
H16 C24 1_555 1_555
C25 N3 1_555 1_555
H17 C25 1_555 1_555
H18 C25 1_555 1_555
C26 N4 1_555 1_555
H19 C26 1_555 1_555
H20 C26 1_555 1_555
C27 N4 1_555 1_555
C28 C27 1_555 1_555
C29 C28 1_555 1_555
H21 C29 1_555 1_555
C30 C29 1_555 1_555
H22 C30 1_555 1_555
C31 C30 1_555 1_555
H23 C31 1_555 1_555
C32 C31 1_555 1_555
H24 C32 1_555 1_555
C33 O6 1_555 1_555
C34 O7 1_555 1_555
Cu2A O9 1_555 1_555
Cu4A O10 1_555 1_555
O9A Cu2 1_555 1_555
O10A Cu4 1_555 1_555
Cu2 O2 1_555 1_555
Cu4 O5 1_555 1_555
Cu4 O6 1_555 1_555
C2 C17 1_555 1_555
C5 C6 1_555 1_555
C8 C9 1_555 1_555
C11 C16 1_555 1_555
C15 C16 1_555 1_555
C19 C34 1_555 1_555
C22 C23 1_555 1_555
C25 C26 1_555 1_555
C28 C33 1_555 1_555
C32 C33 1_555 1_555

#END
