
#######################################################################
#
#                 Cambridge Crystallographic Data Centre
#                                CCDC 
#
#######################################################################
#
# If this CIF has been generated from an entry in the Cambridge 
# Structural Database, then it will include bibliographic, chemical, 
# crystal, experimental, refinement or atomic coordinate data resulting 
# from the CCDC's data processing and validation procedures.
#
#######################################################################

data_OCOKUO
_symmetry_cell_setting           triclinic
_symmetry_space_group_name_H-M   'P -1'
_symmetry_Int_Tables_number      2
_space_group_name_Hall           '-P 1'
loop_
_symmetry_equiv_pos_site_id
_symmetry_equiv_pos_as_xyz
1 x,y,z
2 -x,-y,-z
_cell_length_a                   7.2377(4)
_cell_length_b                   8.2311(4)
_cell_length_c                   13.6273(7)
_cell_angle_alpha                88.635(4)
_cell_angle_beta                 76.583(4)
_cell_angle_gamma                64.240(5)
_cell_volume                     708.448
loop_
_atom_site_label
_atom_site_type_symbol
_atom_site_fract_x
_atom_site_fract_y
_atom_site_fract_z
Ba1 Ba 0.17816(2) 0.18363(2) 0.476699(12)
O1 O 0.5091(3) 0.2942(3) 0.45026(14)
O2 O 0.7758(3) 0.1737(2) 0.52153(13)
O3 O 0.1007(3) 0.0590(3) 0.68356(13)
O4 O 0.4001(3) 0.0743(2) 0.63016(13)
O5 O 0.2258(3) 0.0962(3) 0.28205(15)
H1 H 0.1580 0.0970 0.2483
H2 H 0.3345 0.0676 0.2494
O6 O -0.1202(2) 0.4890(2) 0.61429(13)
H3 H -0.0811 0.4864 0.6629
H4 H -0.2450 0.4859 0.6386
N1 N 0.5289(3) 0.5006(3) 0.30161(16)
N2 N 0.5525(3) 0.5928(3) 0.22209(16)
N3 N 0.7311(3) 0.6075(3) 0.20033(17)
N4 N 0.8335(3) 0.5232(3) 0.26886(17)
N5 N 0.7893(3) 0.3581(3) 0.40538(16)
N6 N 0.6857(3) 0.2766(3) 0.45810(16)
N7 N 0.0490(3) -0.1144(3) 0.84517(16)
N8 N 0.0226(3) -0.1970(3) 0.92877(17)
N9 N 0.1727(4) -0.2381(3) 0.97673(17)
N10 N 0.3078(4) -0.1816(3) 0.92361(17)
N11 N 0.3491(3) -0.0423(3) 0.77459(16)
N12 N 0.2784(3) 0.0294(3) 0.69680(16)
C1 C 0.7089(4) 0.4580(3) 0.32959(19)
C2 C 0.3971(4) 0.6641(4) 0.1607(2)
H5 H 0.3869 0.5655 0.1299
H6 H 0.4410 0.7299 0.1088
H7 H 0.2614 0.7435 0.2031
C3 C 0.2299(4) -0.1069(3) 0.84297(19)
C4 C -0.1566(5) -0.2393(4) 0.9637(2)
H8 H -0.1513 -0.2895 1.0279
H9 H -0.1502 -0.3255 0.9152
H10 H -0.2862 -0.1306 0.9710
Ba1_2 Ba 1.17816(2) 0.18363(2) 0.476699(12)
Ba1A Ba 0.82184(2) -0.18363(2) 0.523301(12)
Ba1A_2 Ba -0.17816(2) 0.81637(2) 0.523301(12)
O2_2 O -0.2242(3) 0.1737(2) 0.52153(13)
O2A O 0.2242(3) -0.1737(2) 0.47847(13)
O4A O 0.5999(3) -0.0743(2) 0.36984(13)
O6A O 0.1202(2) 0.5110(2) 0.38571(13)
H3A H 0.0811 0.5136 0.3371
H4A H 0.2450 0.5141 0.3614
N5_2 N -0.2107(3) 0.3581(3) 0.40538(16)
loop_
_geom_bond_atom_site_label_1
_geom_bond_atom_site_label_2
_geom_bond_site_symmetry_1
_geom_bond_site_symmetry_2
Ba1 O1 1_555 1_555
O1 N6 1_555 1_555
O2 N6 1_555 1_555
O3 Ba1 1_555 1_555
O4 Ba1 1_555 1_555
O5 Ba1 1_555 1_555
H1 O5 1_555 1_555
H2 O5 1_555 1_555
O6 Ba1 1_555 1_555
H3 O6 1_555 1_555
H4 O6 1_555 1_555
N1 N2 1_555 1_555
N2 N3 1_555 1_555
N3 N4 1_555 1_555
N4 C1 1_555 1_555
N5 N6 1_555 1_555
N7 N8 1_555 1_555
N8 N9 1_555 1_555
N9 N10 1_555 1_555
N10 C3 1_555 1_555
N11 N12 1_555 1_555
N12 O3 1_555 1_555
C1 N1 1_555 1_555
C2 N2 1_555 1_555
H5 C2 1_555 1_555
H6 C2 1_555 1_555
H7 C2 1_555 1_555
C3 N7 1_555 1_555
C4 N8 1_555 1_555
H8 C4 1_555 1_555
H9 C4 1_555 1_555
H10 C4 1_555 1_555
Ba1_2 O2 1_555 1_555
Ba1A O2 1_555 1_555
Ba1A_2 O6 1_555 1_555
O2_2 Ba1 1_555 1_555
O2A Ba1 1_555 1_555
O4A Ba1 1_555 1_555
O6A Ba1 1_555 1_555
H3A O6A 1_555 1_555
H4A O6A 1_555 1_555
N5_2 Ba1 1_555 1_555
O4 N12 1_555 1_555
O4 Ba1A 1_555 1_555
N5 C1 1_555 1_555
N5 Ba1_2 1_555 1_555
N11 C3 1_555 1_555
Ba1A O4A 1_555 1_555
Ba1A_2 O6A 1_555 1_555

#END
