
#######################################################################
#
#                 Cambridge Crystallographic Data Centre
#                                CCDC 
#
#######################################################################
#
# If this CIF has been generated from an entry in the Cambridge 
# Structural Database, then it will include bibliographic, chemical, 
# crystal, experimental, refinement or atomic coordinate data resulting 
# from the CCDC's data processing and validation procedures.
#
#######################################################################

data_OCOLAV
_symmetry_cell_setting           monoclinic
_symmetry_space_group_name_H-M   'C 2/c'
_symmetry_Int_Tables_number      15
_space_group_name_Hall           '-C 2yn'
loop_
_symmetry_equiv_pos_site_id
_symmetry_equiv_pos_as_xyz
1 x,y,z
2 -x,y,1/2-z
3 1/2+x,1/2+y,z
4 1/2-x,1/2+y,1/2-z
5 -x,-y,-z
6 x,-y,1/2+z
7 1/2-x,1/2-y,-z
8 1/2+x,1/2-y,1/2+z
_cell_length_a                   20.7022(16)
_cell_length_b                   7.2762(6)
_cell_length_c                   8.5142(5)
_cell_angle_alpha                90
_cell_angle_beta                 96.702(6)
_cell_angle_gamma                90
_cell_volume                     1273.76
loop_
_atom_site_label
_atom_site_type_symbol
_atom_site_fract_x
_atom_site_fract_y
_atom_site_fract_z
O1 O 0.0481(4) 0.6926(14) 0.4507(12)
O2 O 0.1207(5) 0.7450(15) 0.6524(11)
N1 N 0.1777(6) 0.8353(16) 0.1666(13)
N2 N 0.1565(6) 0.8009(18) 0.0168(13)
N3 N 0.1048(6) 0.7016(16) 0.0163(13)
N4 N 0.0919(5) 0.6656(18) 0.1618(14)
N5 N 0.1533(6) 0.7659(17) 0.4223(14)
N6 N 0.1074(5) 0.7309(15) 0.5103(12)
C1 C 0.1376(7) 0.7541(18) 0.2631(18)
C2 C 0.2344(7) 0.952(2) 0.2116(19)
H1 H 0.2737 0.8761 0.2252
H2 H 0.2293 1.0152 0.3111
H3 H 0.2382 1.0434 0.1284
Ba1 Ba 0.0000 0.39059(14) 0.2500
O3 O 0.0000 0.008(2) 0.2500
H4 H 0.042(4) 0.00(4) 0.29(3)
O1D O -0.0481(4) 0.3074(14) 0.5493(12)
O1A O -0.0481(4) 0.6926(14) 0.0493(12)
O1E O 0.0481(4) 0.3074(14) -0.0493(12)
O2D O -0.1207(5) 0.2550(15) 0.3476(11)
O2E O 0.1207(5) 0.2550(15) 0.1524(11)
N1D N -0.1777(6) 0.1647(16) 0.8334(13)
N2D N -0.1565(6) 0.1991(18) 0.9832(13)
N3D N -0.1048(6) 0.2984(16) 0.9837(13)
N3D_2 N -0.1048(6) 0.2984(16) -0.0163(13)
N3E N 0.1048(6) 0.2984(16) 0.5163(13)
N4D N -0.0919(5) 0.3344(18) 0.8382(14)
N4A N -0.0919(5) 0.6656(18) 0.3382(14)
N5D N -0.1533(6) 0.2341(17) 0.5777(14)
N6D N -0.1074(5) 0.2691(15) 0.4897(12)
C1D C -0.1376(7) 0.2459(18) 0.7369(18)
C2D C -0.2344(7) 0.048(2) 0.7884(19)
H1D H -0.2737 0.1239 0.7748
H2D H -0.2293 -0.0152 0.6889
H3D H -0.2382 -0.0434 0.8716
Ba1D Ba 0.0000 0.60941(14) 0.7500
Ba1D_2 Ba 0.0000 0.60941(14) -0.2500
Ba1_2 Ba 0.0000 0.39059(14) 1.2500
H4A H -0.042(4) 0.00(4) 0.21(3)
loop_
_geom_bond_atom_site_label_1
_geom_bond_atom_site_label_2
_geom_bond_site_symmetry_1
_geom_bond_site_symmetry_2
O1 N6 1_555 1_555
O2 N6 1_555 1_555
N1 N2 1_555 1_555
N2 N3 1_555 1_555
N3 N4 1_555 1_555
N4 C1 1_555 1_555
N5 N6 1_555 1_555
C1 N1 1_555 1_555
C2 N1 1_555 1_555
H1 C2 1_555 1_555
H2 C2 1_555 1_555
H3 C2 1_555 1_555
Ba1 O1 1_555 1_555
O3 Ba1 1_555 1_555
H4 O3 1_555 1_555
O1D Ba1 1_555 1_555
O1A Ba1 1_555 1_555
O1E Ba1 1_555 1_555
O2D Ba1 1_555 1_555
O2E Ba1 1_555 1_555
N1D N2D 1_555 1_555
N2D N3D 1_555 1_555
N3D N4D 1_555 1_555
N3D_2 Ba1 1_555 1_555
N3E Ba1 1_555 1_555
N4D C1D 1_555 1_555
N4A Ba1 1_555 1_555
N5D N6D 1_555 1_555
N6D O1D 1_555 1_555
C1D N1D 1_555 1_555
C2D N1D 1_555 1_555
H1D C2D 1_555 1_555
H2D C2D 1_555 1_555
H3D C2D 1_555 1_555
Ba1D O1 1_555 1_555
Ba1D_2 N3 1_555 1_555
Ba1_2 N3D 1_555 1_555
H4A O3 1_555 1_555
O2 Ba1D 1_555 1_555
N4 Ba1 1_555 1_555
N5 C1 1_555 1_555
O1D Ba1D 1_555 1_555
O1A Ba1D_2 1_555 1_555
O1E Ba1D_2 1_555 1_555
O2D N6D 1_555 1_555
N4D Ba1D 1_555 1_555
N5D C1D 1_555 1_555

#END
