
#######################################################################
#
#                 Cambridge Crystallographic Data Centre
#                                CCDC 
#
#######################################################################
#
# If this CIF has been generated from an entry in the Cambridge 
# Structural Database, then it will include bibliographic, chemical, 
# crystal, experimental, refinement or atomic coordinate data resulting 
# from the CCDC's data processing and validation procedures.
#
#######################################################################

data_OCOQUU
_symmetry_cell_setting           monoclinic
_symmetry_space_group_name_H-M   'C 2/c'
_symmetry_Int_Tables_number      15
_space_group_name_Hall           '-C 2yn'
loop_
_symmetry_equiv_pos_site_id
_symmetry_equiv_pos_as_xyz
1 x,y,z
2 -x,y,1/2-z
3 1/2+x,1/2+y,z
4 1/2-x,1/2+y,1/2-z
5 -x,-y,-z
6 x,-y,1/2+z
7 1/2-x,1/2-y,-z
8 1/2+x,1/2-y,1/2+z
_cell_length_a                   16.3062(16)
_cell_length_b                   12.4944(13)
_cell_length_c                   14.9240(15)
_cell_angle_alpha                90
_cell_angle_beta                 118.925(2)
_cell_angle_gamma                90
_cell_volume                     2661.26
loop_
_atom_site_label
_atom_site_type_symbol
_atom_site_fract_x
_atom_site_fract_y
_atom_site_fract_z
Au1 Au 0.272366(11) 0.732817(14) 0.192052(12)
Fe1 Fe 0.5000 0.5000 0.5000
C1 C 0.3682(3) 0.6379(3) 0.2938(3)
C2 C 0.3251(3) 0.3331(4) 0.4013(3)
N1 N 0.4228(2) 0.5859(3) 0.3582(3)
N2 N 0.3825(2) 0.3922(3) 0.4500(3)
N3 N 0.5596(2) 0.3928(3) 0.4294(2)
C3 C 0.5515(3) 0.2865(3) 0.4336(3)
H1 H 0.5189 0.2603 0.4657
C4 C 0.5709(3) 0.0967(3) 0.3958(3)
C5 C 0.5886(3) 0.2128(3) 0.3932(3)
C6 C 0.6465(4) 0.3629(5) 0.3426(4)
H2 H 0.6794 0.3911 0.3116
C7 C 0.6059(4) 0.4300(4) 0.3827(4)
H3 H 0.6108 0.5035 0.3772
C8 C 0.6385(5) 0.2546(4) 0.3483(5)
H4 H 0.6666 0.2090 0.3219
C9 C 0.4826(4) 0.0603(4) 0.3710(4)
H5 H 0.4345 0.1092 0.3552
C10 C 0.6409(4) 0.0216(4) 0.4220(4)
H6 H 0.7012 0.0439 0.4393
C11 C 0.6226(5) -0.0866(5) 0.4227(5)
H7 H 0.6709 -0.1361 0.4420
C12 C 0.5348(5) -0.1207(5) 0.3954(5)
H8 H 0.5224 -0.1935 0.3945
C13 C 0.4647(5) -0.0481(5) 0.3694(5)
H9 H 0.4043 -0.0716 0.3503
Au1D Au 0.727634(11) 0.267183(14) 0.807948(12)
Au1C Au 0.227634(11) 0.232817(14) 0.307948(12)
Au1G Au 0.772366(11) 0.767183(14) 0.692052(12)
C1D C 0.6318(3) 0.3621(3) 0.7062(3)
C2D C 0.6749(3) 0.6669(4) 0.5987(3)
C2C C 0.1749(3) 0.8331(4) 0.0987(3)
C2G C 0.8251(3) 0.1669(4) 0.9013(3)
N1D N 0.5772(2) 0.4141(3) 0.6418(3)
N2D N 0.6175(2) 0.6078(3) 0.5500(3)
N3D N 0.4404(2) 0.6072(3) 0.5706(2)
C3D C 0.4485(3) 0.7135(3) 0.5664(3)
H1D H 0.4811 0.7397 0.5343
C4D C 0.4291(3) 0.9033(3) 0.6042(3)
C5D C 0.4114(3) 0.7872(3) 0.6068(3)
C6D C 0.3535(4) 0.6371(5) 0.6574(4)
H2D H 0.3206 0.6089 0.6884
C7D C 0.3941(4) 0.5700(4) 0.6173(4)
H3D H 0.3892 0.4965 0.6228
C8D C 0.3615(5) 0.7454(4) 0.6517(5)
H4D H 0.3334 0.7910 0.6781
C9D C 0.5174(4) 0.9397(4) 0.6290(4)
H5D H 0.5655 0.8908 0.6448
C10D C 0.3591(4) 0.9784(4) 0.5780(4)
H6D H 0.2988 0.9561 0.5607
C11D C 0.3774(5) 1.0866(5) 0.5773(5)
H7D H 0.3291 1.1361 0.5580
C12D C 0.4652(5) 1.1207(5) 0.6046(5)
H8D H 0.4776 1.1935 0.6055
C13D C 0.5353(5) 1.0481(5) 0.6306(5)
H9D H 0.5957 1.0716 0.6497
loop_
_geom_bond_atom_site_label_1
_geom_bond_atom_site_label_2
_geom_bond_site_symmetry_1
_geom_bond_site_symmetry_2
Au1 C1 1_555 1_555
Fe1 N1 1_555 1_555
C1 N1 1_555 1_555
C2 N2 1_555 1_555
N2 Fe1 1_555 1_555
N3 Fe1 1_555 1_555
C3 N3 1_555 1_555
H1 C3 1_555 1_555
C4 C5 1_555 1_555
C5 C3 1_555 1_555
C6 H2 1_555 1_555
C7 N3 1_555 1_555
H3 C7 1_555 1_555
C8 C5 1_555 1_555
H4 C8 1_555 1_555
C9 C4 1_555 1_555
H5 C9 1_555 1_555
C10 C4 1_555 1_555
H6 C10 1_555 1_555
C11 C10 1_555 1_555
H7 C11 1_555 1_555
C12 C11 1_555 1_555
H8 C12 1_555 1_555
C13 C9 1_555 1_555
H9 C13 1_555 1_555
Au1D C1D 1_555 1_555
Au1C C2 1_555 1_555
Au1G C2D 1_555 1_555
C1D N1D 1_555 1_555
C2D N2D 1_555 1_555
C2C Au1 1_555 1_555
C2G Au1D 1_555 1_555
N1D Fe1 1_555 1_555
N2D Fe1 1_555 1_555
N3D Fe1 1_555 1_555
C3D N3D 1_555 1_555
H1D C3D 1_555 1_555
C4D C5D 1_555 1_555
C5D C3D 1_555 1_555
C6D H2D 1_555 1_555
C7D N3D 1_555 1_555
H3D C7D 1_555 1_555
C8D C5D 1_555 1_555
H4D C8D 1_555 1_555
C9D C4D 1_555 1_555
H5D C9D 1_555 1_555
C10D C4D 1_555 1_555
H6D C10D 1_555 1_555
C11D C10D 1_555 1_555
H7D C11D 1_555 1_555
C12D C11D 1_555 1_555
H8D C12D 1_555 1_555
C13D C9D 1_555 1_555
H9D C13D 1_555 1_555
C6 C7 1_555 1_555
C6 C8 1_555 1_555
C12 C13 1_555 1_555
C6D C7D 1_555 1_555
C6D C8D 1_555 1_555
C12D C13D 1_555 1_555

#END
