
#######################################################################
#
#                 Cambridge Crystallographic Data Centre
#                                CCDC 
#
#######################################################################
#
# If this CIF has been generated from an entry in the Cambridge 
# Structural Database, then it will include bibliographic, chemical, 
# crystal, experimental, refinement or atomic coordinate data resulting 
# from the CCDC's data processing and validation procedures.
#
#######################################################################

data_OCORUV
_symmetry_cell_setting           orthorhombic
_symmetry_space_group_name_H-M   'P n m a'
_symmetry_Int_Tables_number      62
_space_group_name_Hall           '-P 2ac 2n'
loop_
_symmetry_equiv_pos_site_id
_symmetry_equiv_pos_as_xyz
1 x,y,z
2 1/2-x,-y,1/2+z
3 1/2+x,1/2-y,1/2-z
4 -x,1/2+y,-z
5 -x,-y,-z
6 1/2+x,y,1/2-z
7 1/2-x,1/2+y,1/2+z
8 x,1/2-y,z
_cell_length_a                   7.413(4)
_cell_length_b                   25.005(14)
_cell_length_c                   9.696(8)
_cell_angle_alpha                90
_cell_angle_beta                 90
_cell_angle_gamma                90
_cell_volume                     1797.27
loop_
_atom_site_label
_atom_site_type_symbol
_atom_site_fract_x
_atom_site_fract_y
_atom_site_fract_z
V1 V 1.03024(13) 0.2500 0.24190(10)
Cl1 Cl 0.9867(2) 0.13869(5) -0.15317(12)
Cl2 Cl 0.6835(3) -0.02084(5) 0.14088(12)
O1 O 1.2456(6) 0.2500 0.2727(5)
O2 O 1.0127(4) 0.19248(12) 0.1083(4)
N1 N 0.9638(6) 0.19697(15) 0.3964(4)
C1 C 0.8859(6) 0.12233(17) 0.2503(5)
C2 C 0.9416(6) 0.14532(17) 0.1221(5)
C3 C 0.9155(7) 0.11325(19) 0.0049(5)
C4 C 0.8390(8) 0.0635(2) 0.0093(5)
C5 C 0.7840(7) 0.04258(19) 0.1370(5)
C6 C 0.8075(7) 0.07086(18) 0.2559(5)
C7 C 0.9037(6) 0.14952(19) 0.3813(5)
C8 C 0.9628(15) 0.2228(3) 0.5311(6)
H1 H 0.8236 0.0438 -0.0712
H2 H 0.7723 0.0564 0.3401
H3 H 0.8689 0.1311 0.4602
H4 H 0.8559 0.2131 0.5830
H5 H 1.0689 0.2131 0.5840
V1B V 1.53024(13) 0.2500 0.25810(10)
Cl1G Cl 0.9867(2) 0.36131(5) -0.15317(12)
Cl2G Cl 0.6835(3) 0.52084(5) 0.14088(12)
O1B O 0.7456(6) 0.2500 0.2273(5)
O2G O 1.0127(4) 0.30752(12) 0.1083(4)
N1G N 0.9638(6) 0.30303(15) 0.3964(4)
C1G C 0.8859(6) 0.37767(17) 0.2503(5)
C2G C 0.9416(6) 0.35468(17) 0.1221(5)
C3G C 0.9155(7) 0.38675(19) 0.0049(5)
C4G C 0.8390(8) 0.4365(2) 0.0093(5)
C5G C 0.7840(7) 0.45742(19) 0.1370(5)
C6G C 0.8075(7) 0.42914(18) 0.2559(5)
C7G C 0.9037(6) 0.35048(19) 0.3813(5)
C8G C 0.9628(15) 0.2772(3) 0.5311(6)
H1G H 0.8236 0.4562 -0.0712
H2G H 0.7723 0.4436 0.3401
H3G H 0.8689 0.3689 0.4602
H4G H 0.8559 0.2869 0.5830
H5G H 1.0689 0.2869 0.5840
loop_
_geom_bond_atom_site_label_1
_geom_bond_atom_site_label_2
_geom_bond_site_symmetry_1
_geom_bond_site_symmetry_2
V1 O1 1_555 1_555
Cl1 C3 1_555 1_555
Cl2 C5 1_555 1_555
O1 V1B 1_555 1_555
O2 V1 1_555 1_555
N1 V1 1_555 1_555
C1 C2 1_555 1_555
C2 O2 1_555 1_555
C3 C2 1_555 1_555
C4 C3 1_555 1_555
C5 C4 1_555 1_555
C6 C1 1_555 1_555
C7 N1 1_555 1_555
C8 N1 1_555 1_555
H1 C4 1_555 1_555
H2 C6 1_555 1_555
H3 C7 1_555 1_555
H4 C8 1_555 1_555
H5 C8 1_555 1_555
Cl1G C3G 1_555 1_555
Cl2G C5G 1_555 1_555
O1B V1 1_555 1_555
O2G V1 1_555 1_555
N1G V1 1_555 1_555
C1G C2G 1_555 1_555
C2G O2G 1_555 1_555
C3G C2G 1_555 1_555
C4G C3G 1_555 1_555
C5G C4G 1_555 1_555
C6G C1G 1_555 1_555
C7G N1G 1_555 1_555
C8G C8 1_555 1_555
H1G C4G 1_555 1_555
H2G C6G 1_555 1_555
H3G C7G 1_555 1_555
H4G C8G 1_555 1_555
H5G C8G 1_555 1_555
C1 C7 1_555 1_555
C5 C6 1_555 1_555
N1G C8G 1_555 1_555
C1G C7G 1_555 1_555
C5G C6G 1_555 1_555

#END
