
#######################################################################
#
#                 Cambridge Crystallographic Data Centre
#                                CCDC 
#
#######################################################################
#
# If this CIF has been generated from an entry in the Cambridge 
# Structural Database, then it will include bibliographic, chemical, 
# crystal, experimental, refinement or atomic coordinate data resulting 
# from the CCDC's data processing and validation procedures.
#
#######################################################################

data_OCOWUA
_symmetry_cell_setting           monoclinic
_symmetry_space_group_name_H-M   'P 21/c'
_symmetry_Int_Tables_number      14
_space_group_name_Hall           '-P 2ybc'
loop_
_symmetry_equiv_pos_site_id
_symmetry_equiv_pos_as_xyz
1 x,y,z
2 -x,1/2+y,1/2-z
3 -x,-y,-z
4 x,1/2-y,1/2+z
_cell_length_a                   9.4571(2)
_cell_length_b                   16.3096(4)
_cell_length_c                   17.6369(5)
_cell_angle_alpha                90
_cell_angle_beta                 103.704(3)
_cell_angle_gamma                90
_cell_volume                     2642.9
loop_
_atom_site_label
_atom_site_type_symbol
_atom_site_fract_x
_atom_site_fract_y
_atom_site_fract_z
Fe1 Fe 0.44837(3) 0.746850(17) 0.601694(17)
C1 C 0.4134(2) 1.11531(13) 0.97662(12)
N1 N 0.3348(2) 0.94504(11) 0.84023(10)
N2 N 0.36855(18) 0.93043(11) 0.76734(10)
N3 N 0.37592(19) 0.94000(11) 0.64439(10)
N4 N 0.41171(19) 0.86063(11) 0.67028(10)
N5 N 0.22243(19) 0.75679(10) 0.55329(10)
N6 N 0.44032(18) 0.83004(10) 0.50937(9)
O1 O 0.40618(15) 0.68646(9) 0.68784(8)
O2 O 0.65428(15) 0.76870(9) 0.63771(8)
O3 O 0.52232(15) 1.14955(9) 0.95245(8)
C2 C 0.3616(2) 1.14909(14) 1.03811(13)
H1 H 0.3968 1.2008 1.0592
C3 C 0.2602(2) 1.10783(14) 1.06808(13)
H2 H 0.2278 1.1311 1.1104
C4 C 0.2041(2) 1.03269(14) 1.03755(13)
H3 H 0.1367 1.0038 1.0599
C5 C 0.2476(2) 1.00086(13) 0.97461(13)
H4 H 0.2078 0.9503 0.9526
C6 C 0.3500(2) 1.04192(12) 0.94245(12)
C7 C 0.3876(2) 1.01258(13) 0.87240(12)
H5 H 0.4522 1.0437 0.8499
C8 C 0.3497(2) 0.97988(13) 0.70405(12)
H6 H 0.3213 1.0358 0.7031
C9 C 0.4043(2) 0.85698(13) 0.74314(13)
H7 H 0.4217 0.8091 0.7746
C10 C 0.2906(2) 0.64130(13) 0.68952(12)
C11 C 0.3033(2) 0.57839(14) 0.74474(13)
H8 H 0.3957 0.5672 0.7783
C12 C 0.1846(3) 0.53218(14) 0.75157(14)
H9 H 0.1966 0.4891 0.7888
C13 C 0.0472(3) 0.54842(15) 0.70411(14)
H10 H -0.0351 0.5178 0.7098
C14 C 0.0324(2) 0.60916(14) 0.64909(13)
H11 H -0.0614 0.6205 0.6170
C15 C 0.1521(2) 0.65511(13) 0.63882(12)
C16 C 0.1250(2) 0.71498(13) 0.57677(12)
H12 H 0.0263 0.7245 0.5508
C17 C 0.1780(2) 0.82188(13) 0.49304(12)
H13 H 0.1714 0.8746 0.5210
C18 C 0.3011(2) 0.83119(13) 0.45044(12)
H14 H 0.2903 0.8849 0.4223
C19 C 0.3014(2) 0.76225(13) 0.39230(13)
H15 H 0.3747 0.7745 0.3620
H16 H 0.3304 0.7105 0.4212
C20 C 0.1535(2) 0.75047(14) 0.33615(13)
H17 H 0.1291 0.7996 0.3026
H18 H 0.1573 0.7027 0.3020
C21 C 0.0367(2) 0.73669(14) 0.38092(13)
H19 H -0.0592 0.7305 0.3438
H20 H 0.0577 0.6857 0.4120
C22 C 0.0328(2) 0.80900(14) 0.43468(12)
H21 H -0.0439 0.7996 0.4634
H22 H 0.0073 0.8593 0.4029
C23 C 0.5423(2) 0.87928(13) 0.50295(12)
H23 H 0.5211 0.9180 0.4615
C24 C 0.6876(2) 0.88088(13) 0.55368(12)
C25 C 0.7850(2) 0.93952(13) 0.53667(12)
H24 H 0.7516 0.9770 0.4951
C26 C 0.9272(2) 0.94389(14) 0.57862(13)
H25 H 0.9910 0.9843 0.5666
C27 C 0.9765(2) 0.88809(14) 0.63900(12)
H26 H 1.0751 0.8900 0.6678
C28 C 0.8840(2) 0.83025(13) 0.65737(12)
H27 H 0.9201 0.7928 0.6987
C29 C 0.7375(2) 0.82523(12) 0.61648(11)
Fe1A Fe 0.55163(3) 1.246850(17) 0.898306(17)
O3A O 0.47768(15) 0.64955(9) 0.54755(8)
O4 O 0.7502(2) 0.66090(11) 0.76879(11)
C30 C 0.6790(3) 0.69249(18) 0.82181(17)
H28 H 0.5771 0.6749 0.8081
H29 H 0.6836 0.7525 0.8210
H30 H 0.7257 0.6726 0.8742
H31 H 0.7210 0.6964 0.7183
loop_
_geom_bond_atom_site_label_1
_geom_bond_atom_site_label_2
_geom_bond_site_symmetry_1
_geom_bond_site_symmetry_2
Fe1 N4 1_555 1_555
C1 O3 1_555 1_555
N1 N2 1_555 1_555
N2 C8 1_555 1_555
N3 N4 1_555 1_555
N4 C9 1_555 1_555
N5 Fe1 1_555 1_555
N6 Fe1 1_555 1_555
O1 Fe1 1_555 1_555
O2 Fe1 1_555 1_555
O3 Fe1A 1_555 1_555
C2 C1 1_555 1_555
H1 C2 1_555 1_555
C3 C2 1_555 1_555
H2 C3 1_555 1_555
C4 C3 1_555 1_555
H3 C4 1_555 1_555
C5 C4 1_555 1_555
H4 C5 1_555 1_555
C6 C1 1_555 1_555
C7 N1 1_555 1_555
H5 C7 1_555 1_555
C8 N3 1_555 1_555
H6 C8 1_555 1_555
C9 N2 1_555 1_555
H7 C9 1_555 1_555
C10 O1 1_555 1_555
C11 C10 1_555 1_555
H8 C11 1_555 1_555
C12 C11 1_555 1_555
H9 C12 1_555 1_555
C13 C12 1_555 1_555
H10 C13 1_555 1_555
C14 C13 1_555 1_555
H11 C14 1_555 1_555
C15 C10 1_555 1_555
C16 N5 1_555 1_555
H12 C16 1_555 1_555
C17 N5 1_555 1_555
H13 C17 1_555 1_555
C18 N6 1_555 1_555
H14 C18 1_555 1_555
C19 C18 1_555 1_555
H15 C19 1_555 1_555
H16 C19 1_555 1_555
C20 C19 1_555 1_555
H17 C20 1_555 1_555
H18 C20 1_555 1_555
C21 C20 1_555 1_555
H19 C21 1_555 1_555
H20 C21 1_555 1_555
C22 C17 1_555 1_555
H21 C22 1_555 1_555
H22 C22 1_555 1_555
C23 N6 1_555 1_555
H23 C23 1_555 1_555
C24 C23 1_555 1_555
C25 C24 1_555 1_555
H24 C25 1_555 1_555
C26 C25 1_555 1_555
H25 C26 1_555 1_555
C27 C26 1_555 1_555
H26 C27 1_555 1_555
C28 C27 1_555 1_555
H27 C28 1_555 1_555
C29 O2 1_555 1_555
O4 C30 1_555 1_555
C30 H28 1_555 1_555
H29 C30 1_555 1_555
H30 C30 1_555 1_555
H31 O4 1_555 1_555
O3A Fe1 1_555 1_555
C5 C6 1_555 1_555
C6 C7 1_555 1_555
C14 C15 1_555 1_555
C15 C16 1_555 1_555
C17 C18 1_555 1_555
C21 C22 1_555 1_555
C24 C29 1_555 1_555
C28 C29 1_555 1_555

#END
