
#######################################################################
#
#                 Cambridge Crystallographic Data Centre
#                                CCDC 
#
#######################################################################
#
# If this CIF has been generated from an entry in the Cambridge 
# Structural Database, then it will include bibliographic, chemical, 
# crystal, experimental, refinement or atomic coordinate data resulting 
# from the CCDC's data processing and validation procedures.
#
#######################################################################

data_OCOXAH
_symmetry_cell_setting           monoclinic
_symmetry_space_group_name_H-M   'P 21/c'
_symmetry_Int_Tables_number      14
_space_group_name_Hall           '-P 2ybc'
loop_
_symmetry_equiv_pos_site_id
_symmetry_equiv_pos_as_xyz
1 x,y,z
2 -x,1/2+y,1/2-z
3 -x,-y,-z
4 x,1/2-y,1/2+z
_cell_length_a                   11.1674(4)
_cell_length_b                   15.1874(5)
_cell_length_c                   16.4075(6)
_cell_angle_alpha                90
_cell_angle_beta                 105.390(4)
_cell_angle_gamma                90
_cell_volume                     2682.99
loop_
_atom_site_label
_atom_site_type_symbol
_atom_site_fract_x
_atom_site_fract_y
_atom_site_fract_z
Fe1 Fe 0.38966(3) 0.62617(2) 0.305083(19)
O1 O 0.38711(13) 0.52210(9) 0.37490(9)
O2 O 0.42808(14) 0.56321(10) 0.21239(9)
O3 O 0.21366(13) 0.63912(9) 0.26398(9)
N1 N 0.27150(17) 0.59916(12) 0.57698(11)
N2 N 0.35302(16) 0.64946(11) 0.63973(11)
N3 N 0.40342(17) 0.75290(12) 0.73394(11)
N4 N 0.51101(17) 0.70632(12) 0.73413(11)
N5 N 0.57925(16) 0.64195(11) 0.36346(11)
N6 N 0.38730(16) 0.71178(11) 0.40644(11)
C1 C 0.2807(2) 0.48958(14) 0.38441(14)
C2 C 0.2018(2) 0.43905(14) 0.31989(14)
H1 H 0.2268 0.4256 0.2703
C3 C 0.0898(2) 0.40908(15) 0.32785(14)
H2 H 0.0374 0.3760 0.2833
C4 C 0.0519(2) 0.42640(15) 0.40030(14)
H3 H -0.0258 0.4054 0.4054
C5 C 0.1283(2) 0.47434(14) 0.46454(15)
H4 H 0.1029 0.4857 0.5144
C6 C 0.2423(2) 0.50668(14) 0.45794(14)
C7 C 0.3209(2) 0.56009(14) 0.52484(13)
H5 H 0.4072 0.5658 0.5297
C8 C 0.3113(2) 0.71664(14) 0.67752(14)
H6 H 0.2272 0.7352 0.6652
C9 C 0.4774(2) 0.64454(15) 0.67773(14)
H7 H 0.5319 0.6019 0.6648
C10 C 0.5347(2) 0.53286(14) 0.20349(14)
C11 C 0.5356(2) 0.48475(15) 0.13077(14)
H8 H 0.4596 0.4739 0.0895
C12 C 0.6446(2) 0.45303(15) 0.11814(15)
H9 H 0.6428 0.4219 0.0676
C13 C 0.7572(2) 0.46576(15) 0.17815(15)
H10 H 0.8318 0.4421 0.1697
C14 C 0.7591(2) 0.51292(15) 0.24951(15)
H11 H 0.8361 0.5219 0.2905
C15 C 0.6496(2) 0.54874(14) 0.26403(13)
C16 C 0.6655(2) 0.60230(14) 0.33816(13)
H12 H 0.7482 0.6094 0.3723
C17 C 0.6083(2) 0.69732(14) 0.43555(13)
C18 C 0.7277(2) 0.71827(14) 0.48239(14)
H13 H 0.7968 0.6945 0.4664
C19 C 0.7478(2) 0.77289(15) 0.55152(14)
H14 H 0.8302 0.7864 0.5829
C20 C 0.6480(2) 0.80822(15) 0.57544(15)
H15 H 0.6619 0.8456 0.6234
C21 C 0.5282(2) 0.78894(14) 0.52937(14)
H16 H 0.4599 0.8137 0.5457
C22 C 0.5067(2) 0.73389(14) 0.45964(13)
C23 C 0.2869(2) 0.74169(14) 0.42219(14)
H17 H 0.2968 0.7765 0.4716
C24 C 0.1624(2) 0.72695(14) 0.37166(14)
C25 C 0.1304(2) 0.67743(14) 0.29572(14)
C26 C 0.0046(2) 0.67038(15) 0.25250(15)
H18 H -0.0189 0.6363 0.2022
C27 C -0.0860(2) 0.71200(16) 0.28147(16)
H19 H -0.1706 0.7068 0.2505
C28 C -0.0552(2) 0.76125(16) 0.35517(15)
H20 H -0.1180 0.7901 0.3745
C29 C 0.0669(2) 0.76785(16) 0.39989(15)
H21 H 0.0879 0.8006 0.4510
Fe1C Fe 0.38966(3) 0.87383(2) 0.805083(19)
N3C N 0.40342(17) 0.74710(12) 0.23394(11)
O4 O 0.25293(15) 0.59980(11) 0.06191(10)
H22 H 0.3056 0.5905 0.1177
C30 C 0.1668(3) 0.5298(2) 0.0509(2)
H23 H 0.1048 0.5363 -0.0037
H24 H 0.1253 0.5309 0.0965
H25 H 0.2105 0.4737 0.0521
loop_
_geom_bond_atom_site_label_1
_geom_bond_atom_site_label_2
_geom_bond_site_symmetry_1
_geom_bond_site_symmetry_2
Fe1 O1 1_555 1_555
O1 C1 1_555 1_555
O2 Fe1 1_555 1_555
O3 Fe1 1_555 1_555
N1 N2 1_555 1_555
N2 C8 1_555 1_555
N3 N4 1_555 1_555
N4 C9 1_555 1_555
N5 Fe1 1_555 1_555
N6 Fe1 1_555 1_555
C1 C2 1_555 1_555
C2 H1 1_555 1_555
C3 C2 1_555 1_555
H2 C3 1_555 1_555
C4 C3 1_555 1_555
H3 C4 1_555 1_555
C5 C4 1_555 1_555
H4 C5 1_555 1_555
C6 C1 1_555 1_555
C7 N1 1_555 1_555
H5 C7 1_555 1_555
C8 N3 1_555 1_555
H6 C8 1_555 1_555
C9 N2 1_555 1_555
H7 C9 1_555 1_555
C10 O2 1_555 1_555
C11 C10 1_555 1_555
H8 C11 1_555 1_555
C12 C11 1_555 1_555
H9 C12 1_555 1_555
C13 C12 1_555 1_555
H10 C13 1_555 1_555
C14 C13 1_555 1_555
H11 C14 1_555 1_555
C15 C10 1_555 1_555
C16 N5 1_555 1_555
H12 C16 1_555 1_555
C17 N5 1_555 1_555
C18 C17 1_555 1_555
H13 C18 1_555 1_555
C19 C18 1_555 1_555
H14 C19 1_555 1_555
C20 C19 1_555 1_555
H15 C20 1_555 1_555
C21 C20 1_555 1_555
H16 C21 1_555 1_555
C22 N6 1_555 1_555
C23 N6 1_555 1_555
H17 C23 1_555 1_555
C24 C23 1_555 1_555
C25 O3 1_555 1_555
C26 C25 1_555 1_555
H18 C26 1_555 1_555
C27 C26 1_555 1_555
H19 C27 1_555 1_555
C28 C27 1_555 1_555
H20 C28 1_555 1_555
C29 C24 1_555 1_555
H21 C29 1_555 1_555
O4 H22 1_555 1_555
C30 O4 1_555 1_555
H23 C30 1_555 1_555
H24 C30 1_555 1_555
H25 C30 1_555 1_555
Fe1C N3 1_555 1_555
N3C Fe1 1_555 1_555
C5 C6 1_555 1_555
C6 C7 1_555 1_555
C14 C15 1_555 1_555
C15 C16 1_555 1_555
C17 C22 1_555 1_555
C21 C22 1_555 1_555
C24 C25 1_555 1_555
C28 C29 1_555 1_555

#END
