
#######################################################################
#
#                 Cambridge Crystallographic Data Centre
#                                CCDC 
#
#######################################################################
#
# If this CIF has been generated from an entry in the Cambridge 
# Structural Database, then it will include bibliographic, chemical, 
# crystal, experimental, refinement or atomic coordinate data resulting 
# from the CCDC's data processing and validation procedures.
#
#######################################################################

data_OCUBET01
_symmetry_cell_setting           orthorhombic
_symmetry_space_group_name_H-M   'P b c n'
_symmetry_Int_Tables_number      60
_space_group_name_Hall           '-P 2n 2ab'
loop_
_symmetry_equiv_pos_site_id
_symmetry_equiv_pos_as_xyz
1 x,y,z
2 1/2-x,1/2-y,1/2+z
3 -x,y,1/2-z
4 1/2+x,1/2-y,-z
5 -x,-y,-z
6 1/2+x,1/2+y,1/2-z
7 x,-y,1/2+z
8 1/2-x,1/2+y,z
_cell_length_a                   14.180(3)
_cell_length_b                   6.8190(14)
_cell_length_c                   14.008(3)
_cell_angle_alpha                90
_cell_angle_beta                 90
_cell_angle_gamma                90
_cell_volume                     1354.48
loop_
_atom_site_label
_atom_site_type_symbol
_atom_site_fract_x
_atom_site_fract_y
_atom_site_fract_z
I1 I 0.0000 -0.16628(4) 0.2500
Cu1 Cu -0.06003(2) 0.19701(6) 0.18853(3)
O1 O 0.03795(13) 0.2817(3) 0.09919(14)
O2 O 0.14862(14) 0.2840(3) 0.21343(14)
N1 N 0.33897(16) 0.3329(4) -0.08647(17)
C1 C 0.1224(2) 0.2949(4) 0.1271(2)
C2 C 0.19782(19) 0.3180(4) 0.0527(2)
C3 C 0.1755(2) 0.3374(4) -0.0439(2)
H1 H 0.1129 0.3459 -0.0633
C4 C 0.2467(2) 0.3439(4) -0.1100(2)
H2 H 0.2308 0.3564 -0.1741
C5 C 0.35998(19) 0.3220(4) 0.0069(2)
H3 H 0.4232 0.3188 0.0246
C6 C 0.29316(19) 0.3152(4) 0.0773(2)
H4 H 0.3111 0.3089 0.1411
Cu1B Cu 0.06003(2) 0.19701(6) 0.31147(3)
Cu1C Cu 0.43997(2) 0.30299(6) -0.18853(3)
Cu1A Cu -0.43997(2) 0.30299(6) 0.68853(3)
O1B O -0.03795(13) 0.2817(3) 0.40081(14)
O2B O -0.14862(14) 0.2840(3) 0.28657(14)
N1B N -0.33897(16) 0.3329(4) 0.58647(17)
N1C N -0.16103(16) 0.1671(4) 0.08647(17)
N1A N 0.16103(16) 0.1671(4) 0.41353(17)
C1B C -0.1224(2) 0.2949(4) 0.3729(2)
C2B C -0.19782(19) 0.3180(4) 0.4473(2)
C3B C -0.1755(2) 0.3374(4) 0.5439(2)
H1B H -0.1129 0.3459 0.5633
C4B C -0.2467(2) 0.3439(4) 0.6100(2)
H2B H -0.2308 0.3564 0.6741
C5B C -0.35998(19) 0.3220(4) 0.4931(2)
H3B H -0.4232 0.3188 0.4754
C6B C -0.29316(19) 0.3152(4) 0.4227(2)
H4B H -0.3111 0.3089 0.3589
loop_
_geom_bond_atom_site_label_1
_geom_bond_atom_site_label_2
_geom_bond_site_symmetry_1
_geom_bond_site_symmetry_2
I1 Cu1 1_555 1_555
Cu1 O1 1_555 1_555
O1 C1 1_555 1_555
O2 C1 1_555 1_555
N1 C4 1_555 1_555
C1 C2 1_555 1_555
C2 C3 1_555 1_555
C3 H1 1_555 1_555
C4 C3 1_555 1_555
H2 C4 1_555 1_555
C5 N1 1_555 1_555
H3 C5 1_555 1_555
C6 C2 1_555 1_555
H4 C6 1_555 1_555
Cu1B I1 1_555 1_555
Cu1C N1 1_555 1_555
Cu1A N1B 1_555 1_555
O1B Cu1B 1_555 1_555
O2B Cu1 1_555 1_555
N1B C4B 1_555 1_555
N1C Cu1 1_555 1_555
N1A Cu1B 1_555 1_555
C1B O1B 1_555 1_555
C2B C1B 1_555 1_555
C3B C2B 1_555 1_555
H1B C3B 1_555 1_555
C4B C3B 1_555 1_555
H2B C4B 1_555 1_555
C5B N1B 1_555 1_555
H3B C5B 1_555 1_555
C6B C2B 1_555 1_555
H4B C6B 1_555 1_555
Cu1 Cu1B 1_555 1_555
O2 Cu1B 1_555 1_555
C5 C6 1_555 1_555
O2B C1B 1_555 1_555
C5B C6B 1_555 1_555

#END
