
#######################################################################
#
#                 Cambridge Crystallographic Data Centre
#                                CCDC 
#
#######################################################################
#
# If this CIF has been generated from an entry in the Cambridge 
# Structural Database, then it will include bibliographic, chemical, 
# crystal, experimental, refinement or atomic coordinate data resulting 
# from the CCDC's data processing and validation procedures.
#
#######################################################################

data_OCUDAS
_symmetry_cell_setting           monoclinic
_symmetry_space_group_name_H-M   'P 21/c'
_symmetry_Int_Tables_number      14
_space_group_name_Hall           '-P 2ybc'
loop_
_symmetry_equiv_pos_site_id
_symmetry_equiv_pos_as_xyz
1 x,y,z
2 -x,1/2+y,1/2-z
3 -x,-y,-z
4 x,1/2-y,1/2+z
_cell_length_a                   10.7952(13)
_cell_length_b                   5.9308(6)
_cell_length_c                   34.941(5)
_cell_angle_alpha                90
_cell_angle_beta                 90.458(10)
_cell_angle_gamma                90
_cell_volume                     2237
loop_
_atom_site_label
_atom_site_type_symbol
_atom_site_fract_x
_atom_site_fract_y
_atom_site_fract_z
Hg1 Hg -0.61706(3) 0.49430(7) 0.195870(11)
C1 C -0.4939(8) 0.3715(15) 0.1549(3)
C2 C -0.4321(8) 0.1700(16) 0.1568(3)
F1 F -0.4532(5) 0.0242(10) 0.18574(16)
C3 C -0.3460(8) 0.1172(16) 0.1294(3)
F2 F -0.2819(5) -0.0771(9) 0.13222(18)
N1 N -0.3182(6) 0.2459(13) 0.1006(2)
C4 C -0.3782(9) 0.4385(15) 0.0982(3)
F3 F -0.3472(5) 0.5726(10) 0.06889(17)
C5 C -0.4659(8) 0.5047(17) 0.1247(3)
F4 F -0.5214(5) 0.7067(10) 0.11969(17)
C6 C -0.7288(8) 0.6283(16) 0.2392(3)
C7 C -0.7062(8) 0.8308(17) 0.2564(3)
F5 F -0.6115(5) 0.9652(10) 0.24519(18)
C8 C -0.7780(8) 0.9029(17) 0.2864(3)
F6 F -0.7531(5) 1.0975(10) 0.30385(17)
N2 N -0.8721(8) 0.7858(16) 0.2996(2)
C9 C -0.8944(8) 0.5926(18) 0.2824(3)
F7 F -0.9919(6) 0.4755(11) 0.2957(2)
C10 C -0.8272(8) 0.5077(17) 0.2531(3)
F8 F -0.8565(5) 0.3051(10) 0.23824(17)
Hg2 Hg -0.12060(3) 0.09697(7) 0.053340(11)
C11 C -0.2257(8) -0.0397(16) 0.0092(3)
C12 C -0.3264(9) 0.0661(17) -0.0077(3)
F9 F -0.3661(5) 0.2679(10) 0.00582(17)
C13 C -0.3902(9) -0.0326(18) -0.0371(3)
F10 F -0.4889(5) 0.0701(12) -0.05199(19)
N3 N -0.3594(8) -0.2266(15) -0.0526(2)
C14 C -0.2626(9) -0.3285(17) -0.0374(3)
F11 F -0.2312(7) -0.5246(11) -0.0533(2)
C15 C -0.1956(8) -0.2446(17) -0.0070(3)
F12 F -0.0994(5) -0.3624(11) 0.00684(19)
C16 C 0.0036(8) 0.2055(18) 0.0945(3)
C17 C -0.0011(8) 0.4090(17) 0.1138(3)
F13 F -0.0925(5) 0.5580(9) 0.10648(19)
C18 C 0.0860(8) 0.4608(16) 0.1415(3)
F14 F 0.0789(5) 0.6552(10) 0.16024(18)
N4 N 0.1789(7) 0.3297(14) 0.1507(2)
C19 C 0.1867(8) 0.1374(16) 0.1326(3)
F15 F 0.2806(5) 0.0027(10) 0.1426(2)
C20 C 0.1038(8) 0.0687(16) 0.1045(3)
F16 F 0.1211(5) -0.1271(9) 0.08709(18)
Hg1_2 Hg 0.38294(3) 0.49430(7) 0.195870(11)
N4_2 N -0.8211(7) 0.3297(14) 0.1507(2)
loop_
_geom_bond_atom_site_label_1
_geom_bond_atom_site_label_2
_geom_bond_site_symmetry_1
_geom_bond_site_symmetry_2
Hg1 C1 1_555 1_555
C1 C2 1_555 1_555
C2 F1 1_555 1_555
C3 C2 1_555 1_555
F2 C3 1_555 1_555
N1 C3 1_555 1_555
C4 N1 1_555 1_555
F3 C4 1_555 1_555
C5 C1 1_555 1_555
F4 C5 1_555 1_555
C6 Hg1 1_555 1_555
C7 C6 1_555 1_555
F5 C7 1_555 1_555
C8 C7 1_555 1_555
F6 C8 1_555 1_555
N2 C8 1_555 1_555
C9 N2 1_555 1_555
F7 C9 1_555 1_555
C10 C6 1_555 1_555
F8 C10 1_555 1_555
Hg2 N1 1_555 1_555
C11 Hg2 1_555 1_555
C12 C11 1_555 1_555
F9 C12 1_555 1_555
C13 C12 1_555 1_555
F10 C13 1_555 1_555
N3 C13 1_555 1_555
C14 N3 1_555 1_555
F11 C14 1_555 1_555
C15 C11 1_555 1_555
F12 C15 1_555 1_555
C16 Hg2 1_555 1_555
C17 C16 1_555 1_555
F13 C17 1_555 1_555
C18 C17 1_555 1_555
F14 C18 1_555 1_555
N4 C18 1_555 1_555
C19 N4 1_555 1_555
F15 C19 1_555 1_555
C20 C16 1_555 1_555
F16 C20 1_555 1_555
Hg1_2 N4 1_555 1_555
N4_2 Hg1 1_555 1_555
C4 C5 1_555 1_555
C9 C10 1_555 1_555
C14 C15 1_555 1_555
C19 C20 1_555 1_555

#END
