
#######################################################################
#
#                 Cambridge Crystallographic Data Centre
#                                CCDC 
#
#######################################################################
#
# If this CIF has been generated from an entry in the Cambridge 
# Structural Database, then it will include bibliographic, chemical, 
# crystal, experimental, refinement or atomic coordinate data resulting 
# from the CCDC's data processing and validation procedures.
#
#######################################################################

data_OCUMUU01
_symmetry_cell_setting           triclinic
_symmetry_space_group_name_H-M   'P -1'
_symmetry_Int_Tables_number      2
_space_group_name_Hall           '-P 1'
loop_
_symmetry_equiv_pos_site_id
_symmetry_equiv_pos_as_xyz
1 x,y,z
2 -x,-y,-z
_cell_length_a                   7.1410(6)
_cell_length_b                   11.0625(8)
_cell_length_c                   12.0667(9)
_cell_angle_alpha                96.849(4)
_cell_angle_beta                 93.850(4)
_cell_angle_gamma                105.495(4)
_cell_volume                     907.139
loop_
_atom_site_label
_atom_site_type_symbol
_atom_site_fract_x
_atom_site_fract_y
_atom_site_fract_z
C1 C 0.2047(5) 0.0450(3) 0.7327(3)
C2 C 0.2799(5) 0.1647(3) 0.6835(3)
C3 C 0.2367(5) 0.1709(4) 0.5707(3)
H1 H 0.1616 0.0999 0.5228
C4 C 0.3075(6) 0.2845(4) 0.5316(3)
H2 H 0.2807 0.2920 0.4567
C5 C 0.4194(6) 0.3874(4) 0.6061(3)
H3 H 0.4665 0.4658 0.5821
C6 C 0.4608(5) 0.3724(3) 0.7171(3)
C7 C 0.5907(5) 0.4836(3) 0.7984(3)
C8 C 0.0990(5) 0.4231(3) 0.8690(3)
C9 C -0.0336(5) 0.3308(3) 0.7759(3)
C10 C -0.0558(5) 0.3711(4) 0.6718(3)
H4 H 0.0065 0.4534 0.6610
C11 C -0.1726(6) 0.2857(4) 0.5854(3)
H5 H -0.1900 0.3096 0.5149
C12 C -0.2636(5) 0.1642(4) 0.6049(3)
H6 H -0.3418 0.1046 0.5478
C13 C -0.2352(5) 0.1335(3) 0.7117(3)
C14 C -0.3358(5) 0.0039(4) 0.7392(4)
Cs1 Cs 0.50820(5) 0.23293(2) 1.01416(2)
H9 H 0.023(9) -0.121(3) 0.673(6)
H10 H 0.188(7) 0.422(6) 1.028(3)
H11 H -0.502(8) -0.132(6) 0.674(5)
N1 N 0.3926(4) 0.2628(3) 0.7565(2)
N2 N -0.1212(4) 0.2152(3) 0.7964(2)
O1 O 0.2606(5) 0.0330(3) 0.8268(3)
O2 O 0.0773(4) -0.0449(3) 0.6653(3)
O3 O 0.6536(4) 0.4599(3) 0.8904(2)
O4 O 0.1139(5) 0.3772(3) 0.9637(2)
O5 O -0.4465(5) -0.0701(3) 0.6561(3)
O6 O 0.6277(4) 0.5906(3) 0.7669(3)
O7 O -0.3103(5) -0.0250(3) 0.8328(3)
O8 O 0.1840(5) 0.5279(3) 0.8548(3)
O9 O 0.9570(10) 0.1307(4) 1.0150(4)
O10 O 0.6568(5) 0.2964(3) 1.3115(3)
Cs1A Cs 0.49180(5) 0.76707(2) 0.98584(2)
Cs1A_2 Cs -0.50820(5) -0.23293(2) 0.98584(2)
O6A O 0.3723(4) 0.4094(3) 1.2331(3)
O7A O 0.3103(5) 0.0250(3) 1.1672(3)
O8A O 0.8160(5) 0.4721(3) 1.1452(3)
H7 H 0.995(6) 0.695(4) 0.701(3)
H8 H 0.865(6) 0.700(7) 0.771(8)
O11 O 0.9939(5) 0.7529(3) 0.7650(3)
loop_
_geom_bond_atom_site_label_1
_geom_bond_atom_site_label_2
_geom_bond_site_symmetry_1
_geom_bond_site_symmetry_2
C1 C2 1_555 1_555
C2 C3 1_555 1_555
C3 H1 1_555 1_555
C4 C3 1_555 1_555
H2 C4 1_555 1_555
C5 C4 1_555 1_555
H3 C5 1_555 1_555
C6 C5 1_555 1_555
C7 C6 1_555 1_555
C8 C9 1_555 1_555
C9 C10 1_555 1_555
C10 H4 1_555 1_555
C11 C10 1_555 1_555
H5 C11 1_555 1_555
C12 C11 1_555 1_555
H6 C12 1_555 1_555
C13 C12 1_555 1_555
C14 C13 1_555 1_555
Cs1 N1 1_555 1_555
H7 O11 1_555 1_555
H8 O11 1_555 1_555
H9 O2 1_555 1_555
H10 O4 1_555 1_555
H11 O5 1_555 1_555
N1 C2 1_555 1_555
N2 C9 1_555 1_555
O1 C1 1_555 1_555
O2 C1 1_555 1_555
O3 C7 1_555 1_555
O4 C8 1_555 1_555
O5 C14 1_555 1_555
O6 C7 1_555 1_555
O7 C14 1_555 1_555
O8 C8 1_555 1_555
O9 Cs1 1_555 1_555
O10 Cs1 1_555 1_555
Cs1A O6 1_555 1_555
Cs1A_2 O7 1_555 1_555
O6A Cs1 1_555 1_555
O7A Cs1 1_555 1_555
O8A Cs1 1_555 1_555
C6 N1 1_555 1_555
C13 N2 1_555 1_555
Cs1 O1 1_555 1_555
Cs1 O3 1_555 1_555
Cs1 O4 1_555 1_555
O8 Cs1A 1_555 1_555

#END
