
#######################################################################
#
#                 Cambridge Crystallographic Data Centre
#                                CCDC 
#
#######################################################################
#
# If this CIF has been generated from an entry in the Cambridge 
# Structural Database, then it will include bibliographic, chemical, 
# crystal, experimental, refinement or atomic coordinate data resulting 
# from the CCDC's data processing and validation procedures.
#
#######################################################################

data_OCUMUU
_symmetry_cell_setting           triclinic
_symmetry_space_group_name_H-M   'P -1'
_symmetry_Int_Tables_number      2
_space_group_name_Hall           '-P 1'
loop_
_symmetry_equiv_pos_site_id
_symmetry_equiv_pos_as_xyz
1 x,y,z
2 -x,-y,-z
_cell_length_a                   11.00(5)
_cell_length_b                   12.02(5)
_cell_length_c                   7.15(2)
_cell_angle_alpha                94.0(3)
_cell_angle_beta                 105.7(3)
_cell_angle_gamma                97.3(3)
_cell_volume                     897.341
loop_
_atom_site_label
_atom_site_type_symbol
_atom_site_fract_x
_atom_site_fract_y
_atom_site_fract_z
Cs1 Cs 0.23321(5) 0.51416(4) 0.0079(1)
O1 O 0.0330(5) 0.3278(5) -0.2410(9)
O2 O -0.0445(5) 0.1644(5) -0.4230(8)
O3 O 0.4597(4) 0.3896(4) 0.1536(8)
O4 O 0.5904(5) 0.2667(5) 0.1280(8)
O5 O 0.4717(5) 0.6456(4) 0.3152(8)
O6 O 0.6229(5) 0.5365(4) 0.3869(8)
O7 O 1.0252(6) 0.6672(5) 0.8118(9)
O8 O 1.0701(5) 0.8437(4) 0.9466(8)
O9 O 0.2964(5) 0.8115(5) 0.1571(9)
O10 O 0.1315(8) 0.5154(7) 0.453(2)
N1 N 0.2629(5) 0.2564(4) -0.1072(7)
N2 N 0.7851(5) 0.7035(4) 0.6212(7)
C1 C 0.1645(6) 0.1836(5) -0.2195(8)
C2 C 0.1711(6) 0.0711(5) -0.2637(9)
C3 C 0.2839(7) 0.0318(5) -0.192(1)
C4 C 0.3866(6) 0.1067(5) -0.0815(10)
C5 C 0.3721(5) 0.2173(5) -0.0400(8)
C6 C 0.0451(6) 0.2324(6) -0.2956(10)
C7 C 0.4836(6) 0.2992(5) 0.0908(9)
C8 C 0.6690(6) 0.7242(5) 0.5328(8)
C9 C 0.6288(6) 0.8278(5) 0.5557(10)
C10 C 0.7155(7) 0.9141(5) 0.674(1)
C11 C 0.8360(6) 0.8952(5) 0.7639(9)
C12 C 0.8667(6) 0.7888(5) 0.7352(9)
C13 C 0.5775(6) 0.6303(5) 0.4015(9)
C14 C 0.9954(6) 0.7604(6) 0.8358(10)
H1 H 0.0979 0.0218 -0.3425
H2 H 0.2910 -0.0453 -0.2177
H3 H 0.4679 0.0829 -0.0342
H4 H -0.1082 0.1958 -0.4722
H5 H 0.5440 0.8388 0.4922
H6 H 0.6919 0.9864 0.6925
H7 H 0.8974 0.9541 0.8451
H8 H 0.5769 0.4876 0.3202
H9 H 1.1388 0.8186 1.0005
Cs1A Cs -0.23321(5) 0.48584(4) -0.0079(1)
O4A O 0.4096(5) 0.7333(5) -0.1280(8)
O6A O 0.3771(5) 0.4635(4) -0.3869(8)
O7_2 O 0.0252(6) 0.6672(5) -0.1882(9)
Cs1A_2 Cs 0.76679(5) 0.48584(4) -0.0079(1)
Cs1_2 Cs 1.23321(5) 0.51416(4) 1.0079(1)
H8A H 0.4231 0.5124 -0.3202
O11 O 0.7514(6) 0.2635(6) 0.4932(9)
H10 H 0.7009 0.2707 0.3586
H11 H 0.7992 0.3468 0.5340
loop_
_geom_bond_atom_site_label_1
_geom_bond_atom_site_label_2
_geom_bond_site_symmetry_1
_geom_bond_site_symmetry_2
Cs1 O1 1_555 1_555
O1 C6 1_555 1_555
O2 C6 1_555 1_555
O3 Cs1 1_555 1_555
O4 C7 1_555 1_555
O5 Cs1 1_555 1_555
O6 C13 1_555 1_555
O7 C14 1_555 1_555
O8 C14 1_555 1_555
O9 Cs1 1_555 1_555
O10 Cs1 1_555 1_555
O11 H10 1_555 1_555
N1 Cs1 1_555 1_555
N2 C8 1_555 1_555
C1 N1 1_555 1_555
C2 C1 1_555 1_555
C3 C2 1_555 1_555
C4 C3 1_555 1_555
C5 N1 1_555 1_555
C6 C1 1_555 1_555
C7 O3 1_555 1_555
C8 C9 1_555 1_555
C9 C10 1_555 1_555
C10 C11 1_555 1_555
C11 C12 1_555 1_555
C12 N2 1_555 1_555
C13 O5 1_555 1_555
C14 C12 1_555 1_555
H1 C2 1_555 1_555
H2 C3 1_555 1_555
H3 C4 1_555 1_555
H4 O2 1_555 1_555
H5 C9 1_555 1_555
H6 C10 1_555 1_555
H7 C11 1_555 1_555
H8 O6 1_555 1_555
H9 O8 1_555 1_555
H11 O11 1_555 1_555
Cs1A Cs1 1_555 1_555
O4A Cs1 1_555 1_555
O6A Cs1 1_555 1_555
O7_2 Cs1 1_555 1_555
Cs1A_2 O4 1_555 1_555
Cs1_2 O7 1_555 1_555
H8A O6A 1_555 1_555
O6 Cs1A_2 1_555 1_555
C4 C5 1_555 1_555
C5 C7 1_555 1_555
C8 C13 1_555 1_555

#END
