
#######################################################################
#
#                 Cambridge Crystallographic Data Centre
#                                CCDC 
#
#######################################################################
#
# If this CIF has been generated from an entry in the Cambridge 
# Structural Database, then it will include bibliographic, chemical, 
# crystal, experimental, refinement or atomic coordinate data resulting 
# from the CCDC's data processing and validation procedures.
#
#######################################################################

data_OCUNAC
_symmetry_cell_setting           cubic
_symmetry_space_group_name_H-M   'F d -3 m'
_symmetry_Int_Tables_number      227
_space_group_name_Hall           '-F 4vw 2vw 3'
loop_
_symmetry_equiv_pos_site_id
_symmetry_equiv_pos_as_xyz
1 x,y,z
2 -y,1/4+x,1/4+z
3 x,1/4-y,1/4-z
4 z,x,y
5 3/4-x,1/4-y,1/2+z
6 3/4+y,1/4+x,1/2-z
7 -x,1/4+z,1/4+y
8 3/4+y,-x,3/4+z
9 3/4-x,y,3/4-z
10 3/4-z,1/4-x,1/2+y
11 -y,-x,-z
12 3/4+x,-z,3/4+y
13 z,1/4-x,1/4-y
14 -x,-z,-y
15 3/4-z,x,3/4-y
16 3/4+x,1/4+z,1/2-y
17 y,z,x
18 3/4+z,-y,3/4+x
19 1/2-z,3/4+y,1/4+x
20 3/4+z,3/4+y,-x
21 1/2+y,3/4-z,1/4-x
22 -z,-y,-x
23 1/4-y,z,1/4-x
24 3/4-y,3/4-z,x
25 1/4+z,-y,1/4+x
26 x,1/2+y,1/2+z
27 -y,3/4+x,3/4+z
28 x,3/4-y,3/4-z
29 z,1/2+x,1/2+y
30 3/4-x,3/4-y,z
31 3/4+y,3/4+x,-z
32 -x,3/4+z,3/4+y
33 3/4+y,1/2-x,1/4+z
34 3/4-x,1/2+y,1/4-z
35 3/4-z,3/4-x,y
36 -y,1/2-x,1/2-z
37 3/4+x,1/2-z,1/4+y
38 z,3/4-x,3/4-y
39 -x,1/2-z,1/2-y
40 3/4-z,1/2+x,1/4-y
41 3/4+x,3/4+z,-y
42 y,1/2+z,1/2+x
43 3/4+z,1/2-y,1/4+x
44 1/2-z,1/4+y,3/4+x
45 3/4+z,1/4+y,1/2-x
46 1/2+y,1/4-z,3/4-x
47 -z,1/2-y,1/2-x
48 1/4-y,1/2+z,3/4-x
49 3/4-y,1/4-z,1/2+x
50 1/4+z,1/2-y,3/4+x
51 1/2+x,y,1/2+z
52 1/2-y,1/4+x,3/4+z
53 1/2+x,1/4-y,3/4-z
54 1/2+z,x,1/2+y
55 1/4-x,1/4-y,z
56 1/4+y,1/4+x,-z
57 1/2-x,1/4+z,3/4+y
58 1/4+y,-x,1/4+z
59 1/4-x,y,1/4-z
60 1/4-z,1/4-x,y
61 1/2-y,-x,1/2-z
62 1/4+x,-z,1/4+y
63 1/2+z,1/4-x,3/4-y
64 1/2-x,-z,1/2-y
65 1/4-z,x,1/4-y
66 1/4+x,1/4+z,-y
67 1/2+y,z,1/2+x
68 -z,3/4+y,3/4+x
69 1/4+z,3/4+y,1/2-x
70 y,3/4-z,3/4-x
71 1/2-z,-y,1/2-x
72 3/4-y,z,3/4-x
73 1/4-y,3/4-z,1/2+x
74 1/2+x,1/2+y,z
75 1/2-y,3/4+x,1/4+z
76 1/2+x,3/4-y,1/4-z
77 1/2+z,1/2+x,y
78 1/4-x,3/4-y,1/2+z
79 1/4+y,3/4+x,1/2-z
80 1/2-x,3/4+z,1/4+y
81 1/4+y,1/2-x,3/4+z
82 1/4-x,1/2+y,3/4-z
83 1/4-z,3/4-x,1/2+y
84 1/2-y,1/2-x,-z
85 1/4+x,1/2-z,3/4+y
86 1/2+z,3/4-x,1/4-y
87 1/2-x,1/2-z,-y
88 1/4-z,1/2+x,3/4-y
89 1/4+x,3/4+z,1/2-y
90 1/2+y,1/2+z,x
91 -z,1/4+y,1/4+x
92 1/4+z,1/4+y,-x
93 y,1/4-z,1/4-x
94 1/2-z,1/2-y,-x
95 3/4-y,1/2+z,1/4-x
96 1/4-y,1/4-z,x
97 -x,-y,-z
98 y,3/4-x,3/4-z
99 -x,3/4+y,3/4+z
100 -z,-x,-y
101 1/4+x,3/4+y,1/2-z
102 1/4-y,3/4-x,1/2+z
103 x,3/4-z,3/4-y
104 1/4-y,x,1/4-z
105 1/4+x,-y,1/4+z
106 1/4+z,3/4+x,1/2-y
107 y,x,z
108 1/4-x,z,1/4-y
109 -z,3/4+x,3/4+y
110 x,z,y
111 1/4+z,-x,1/4+y
112 1/4-x,3/4-z,1/2+y
113 -y,-z,-x
114 1/4-z,y,1/4-x
115 1/2+z,1/4-y,3/4-x
116 1/4-z,1/4-y,x
117 1/2-y,1/4+z,3/4+x
118 z,y,x
119 3/4+y,-z,3/4+x
120 1/4+y,1/4+z,-x
121 3/4-z,y,3/4-x
122 -x,1/2-y,1/2-z
123 y,1/4-x,1/4-z
124 -x,1/4+y,1/4+z
125 -z,1/2-x,1/2-y
126 1/4+x,1/4+y,-z
127 1/4-y,1/4-x,z
128 x,1/4-z,1/4-y
129 1/4-y,1/2+x,3/4-z
130 1/4+x,1/2-y,3/4+z
131 1/4+z,1/4+x,-y
132 y,1/2+x,1/2+z
133 1/4-x,1/2+z,3/4-y
134 -z,1/4+x,1/4+y
135 x,1/2+z,1/2+y
136 1/4+z,1/2-x,3/4+y
137 1/4-x,1/4-z,y
138 -y,1/2-z,1/2-x
139 1/4-z,1/2+y,3/4-x
140 1/2+z,3/4-y,1/4-x
141 1/4-z,3/4-y,1/2+x
142 1/2-y,3/4+z,1/4+x
143 z,1/2+y,1/2+x
144 3/4+y,1/2-z,1/4+x
145 1/4+y,3/4+z,1/2-x
146 3/4-z,1/2+y,1/4-x
147 1/2-x,-y,1/2-z
148 1/2+y,3/4-x,1/4-z
149 1/2-x,3/4+y,1/4+z
150 1/2-z,-x,1/2-y
151 3/4+x,3/4+y,-z
152 3/4-y,3/4-x,z
153 1/2+x,3/4-z,1/4-y
154 3/4-y,x,3/4-z
155 3/4+x,-y,3/4+z
156 3/4+z,3/4+x,-y
157 1/2+y,x,1/2+z
158 3/4-x,z,3/4-y
159 1/2-z,3/4+x,1/4+y
160 1/2+x,z,1/2+y
161 3/4+z,-x,3/4+y
162 3/4-x,3/4-z,y
163 1/2-y,-z,1/2-x
164 z,1/4-y,1/4-x
165 3/4-z,1/4-y,1/2+x
166 -y,1/4+z,1/4+x
167 1/2+z,y,1/2+x
168 1/4+y,-z,1/4+x
169 3/4+y,1/4+z,1/2-x
170 1/2-x,1/2-y,-z
171 1/2+y,1/4-x,3/4-z
172 1/2-x,1/4+y,3/4+z
173 1/2-z,1/2-x,-y
174 3/4+x,1/4+y,1/2-z
175 3/4-y,1/4-x,1/2+z
176 1/2+x,1/4-z,3/4-y
177 3/4-y,1/2+x,1/4-z
178 3/4+x,1/2-y,1/4+z
179 3/4+z,1/4+x,1/2-y
180 1/2+y,1/2+x,z
181 3/4-x,1/2+z,1/4-y
182 1/2-z,1/4+x,3/4+y
183 1/2+x,1/2+z,y
184 3/4+z,1/2-x,1/4+y
185 3/4-x,1/4-z,1/2+y
186 1/2-y,1/2-z,-x
187 z,3/4-y,3/4-x
188 3/4-z,3/4-y,x
189 -y,3/4+z,3/4+x
190 1/2+z,1/2+y,x
191 1/4+y,1/2-z,3/4+x
192 3/4+y,3/4+z,-x
_cell_length_a                   88.86899
_cell_length_b                   88.86899
_cell_length_c                   88.86899
_cell_angle_alpha                90
_cell_angle_beta                 90
_cell_angle_gamma                90
_cell_volume                     701860
loop_
_atom_site_label
_atom_site_type_symbol
_atom_site_fract_x
_atom_site_fract_y
_atom_site_fract_z
Cr1 Cr 0.09473 -0.07201 0.51291
Cr2 Cr 0.09773 -0.32092 0.57092
Cr3 Cr 0.10795 -0.10795 0.50000
Cr4 Cr 0.12500 -0.10421 0.62500
Cr5 Cr 0.13871 -0.13618 0.61129
Cr6 Cr 0.03368 -0.20068 0.53368
Cr7 Cr 0.07280 -0.20846 0.54246
O1 O 0.07916 -0.32916 0.57915
O2 O 0.04996 -0.20397 0.54996
O3 O 0.12500 -0.12633 0.62500
O4 O 0.09189 -0.09188 0.50000
O5 O 0.10869 -0.31964 0.59018
O6 O 0.07390 -0.22646 0.55587
O7 O 0.08886 -0.30070 0.57263
O8 O 0.07068 -0.22122 0.52416
O9 O 0.04523 -0.21763 0.52195
O10 O 0.07439 -0.07701 0.51956
O11 O 0.05997 -0.08776 0.50308
O12 O 0.10124 -0.08758 0.52721
O13 O 0.11549 -0.10774 0.52253
O14 O 0.12448 -0.10125 0.60189
O15 O 0.13369 -0.12292 0.59307
O16 O 0.07805 -0.19362 0.55911
O17 O 0.12056 -0.14839 0.60378
O18 O 0.02376 -0.18523 0.54621
O19 O 0.03088 -0.18927 0.56945
O20 O -0.00664 -0.11692 0.57278
O21 O 0.00338 -0.12647 0.59525
O22 O 0.11185 -0.31102 0.56102
O23 O 0.09415 -0.21087 0.53873
O24 O 0.01893 -0.20642 0.51893
O25 O 0.14829 -0.15369 0.60171
O26 O 0.12500 -0.08237 0.62500
O27 O 0.12477 -0.12477 0.50000
O28 O 0.09420 -0.05250 0.52526
C1 C 0.12950 -0.31934 0.60929
C2 C 0.10341 -0.31614 0.60342
C3 C 0.11423 -0.31680 0.61423
C4 C 0.08163 -0.25507 0.56200
C5 C 0.06586 -0.23336 0.56586
C6 C 0.07145 -0.24702 0.57145
C7 C 0.08506 -0.27052 0.56530
C8 C 0.07917 -0.29374 0.57917
C9 C 0.07732 -0.27785 0.57732
C10 C 0.04691 -0.23623 0.49748
C11 C 0.05736 -0.22600 0.52033
C12 C 0.05736 -0.23755 0.50940
C13 C 0.07141 -0.24506 0.50632
C14 C 0.05231 -0.07184 0.54077
C15 C 0.06130 -0.08022 0.51544
C16 C 0.05018 -0.08111 0.52741
C17 C 0.03933 -0.09290 0.52803
C18 C 0.10653 -0.09204 0.55816
C19 C 0.11156 -0.09671 0.53092
C20 C 0.11496 -0.09891 0.54596
C21 C 0.11117 -0.09472 0.57310
C22 C 0.12691 -0.11030 0.59071
C23 C 0.12050 -0.10769 0.57589
C24 C 0.12254 -0.11224 0.54836
C25 C 0.12689 -0.11582 0.56350
C26 C 0.07340 -0.19470 0.57340
C27 C 0.08343 -0.18725 0.58343
C28 C 0.10826 -0.15361 0.60826
C29 C 0.09804 -0.16184 0.59804
C30 C 0.09529 -0.17951 0.57678
C31 C 0.10355 -0.16801 0.58485
C32 C 0.01355 -0.15706 0.55429
C33 C 0.02464 -0.18130 0.55984
C34 C 0.01807 -0.16789 0.56482
C35 C 0.00617 -0.14422 0.55924
C36 C 0.00095 -0.12747 0.58082
C37 C 0.00489 -0.14175 0.57478
C38 C 0.01846 -0.16484 0.58032
C39 C 0.01171 -0.15158 0.58542
O5PD O 0.15982 -0.31964 0.64131
C1PD C 0.14071 -0.31934 0.62050
C2FB C 0.14659 -0.31614 0.64658
C3FB C 0.13577 -0.31680 0.63577
O5JF O 0.09018 -0.31964 0.60869
C1JF C 0.10929 -0.31934 0.62950
O5FB O 0.14131 -0.31964 0.65982
C1FB C 0.12050 -0.31934 0.64071
O6JF O 0.05587 -0.22646 0.57390
O7JF O 0.07263 -0.30070 0.58886
C4JF C 0.06200 -0.25507 0.58163
C7JF C 0.06530 -0.27052 0.58506
O8WD O 0.07068 -0.27416 0.47122
C10WD C 0.04691 -0.24748 0.48623
C11WD C 0.05736 -0.27033 0.47600
C12WD C 0.05736 -0.25940 0.48755
C13WD C 0.07141 -0.25632 0.49506
O9WD O 0.04523 -0.27195 0.46763
O10JF O 0.01956 -0.07701 0.57439
C14JF C 0.04077 -0.07184 0.55231
C15JF C 0.01544 -0.08022 0.56130
C16JF C 0.02741 -0.08111 0.55018
C17JF C 0.02803 -0.09290 0.53933
O11JF O 0.00308 -0.08776 0.55997
O16JF O 0.05911 -0.19362 0.57805
O17JF O 0.10378 -0.14839 0.62056
C30JF C 0.07678 -0.17951 0.59529
C31JF C 0.08485 -0.16801 0.60355
Cr1J Cr 0.07201 -0.09473 0.48709
Cr2J Cr 0.32092 -0.09773 0.42908
Cr5J Cr 0.13618 -0.13871 0.38871
Cr6J Cr 0.20068 -0.03368 0.46632
Cr7J Cr 0.20846 -0.07280 0.45754
O2J O 0.20397 -0.04996 0.45004
O6J O 0.22646 -0.07390 0.44413
O7J O 0.30070 -0.08886 0.42737
O8J O 0.22122 -0.07068 0.47584
O9J O 0.21763 -0.04523 0.47805
O10J O 0.07701 -0.07439 0.48044
O11J O 0.08776 -0.05997 0.49692
O12J O 0.08758 -0.10124 0.47279
O13J O 0.10774 -0.11549 0.47747
O14J O 0.10125 -0.12448 0.39811
O15J O 0.12292 -0.13369 0.40693
O16J O 0.19362 -0.07805 0.44089
O17J O 0.14839 -0.12056 0.39622
O18J O 0.18523 -0.02376 0.45379
O19J O 0.18927 -0.03088 0.43055
O20J O 0.11692 0.00664 0.42722
O21J O 0.12647 -0.00338 0.40475
O22J O 0.31102 -0.11185 0.43898
O23J O 0.21087 -0.09415 0.46127
O24J O 0.20642 -0.01893 0.48107
O25J O 0.15369 -0.14829 0.39829
O28J O 0.05250 -0.09420 0.47474
C4J C 0.25507 -0.08163 0.43800
C5J C 0.23336 -0.06586 0.43414
C6J C 0.24702 -0.07145 0.42855
C7J C 0.27052 -0.08506 0.43470
C8J C 0.29374 -0.07917 0.42083
C9J C 0.27785 -0.07732 0.42268
C10J C 0.23623 -0.04691 0.50252
C11J C 0.22600 -0.05736 0.47967
C12J C 0.23755 -0.05736 0.49060
C13J C 0.24506 -0.07141 0.49368
C14J C 0.07184 -0.05231 0.45923
C15J C 0.08022 -0.06130 0.48456
C16J C 0.08111 -0.05018 0.47259
C17J C 0.09290 -0.03933 0.47197
C18J C 0.09204 -0.10653 0.44184
C19J C 0.09671 -0.11156 0.46908
C20J C 0.09891 -0.11496 0.45404
C21J C 0.09472 -0.11117 0.42690
C22J C 0.11030 -0.12691 0.40929
C23J C 0.10769 -0.12050 0.42411
C24J C 0.11224 -0.12254 0.45164
C25J C 0.11582 -0.12689 0.43650
C26J C 0.19470 -0.07340 0.42660
C27J C 0.18725 -0.08343 0.41657
C28J C 0.15361 -0.10826 0.39174
C29J C 0.16184 -0.09804 0.40196
C30J C 0.17951 -0.09529 0.42322
C31J C 0.16801 -0.10355 0.41515
C32J C 0.15706 -0.01355 0.44571
C33J C 0.18130 -0.02464 0.44016
C34J C 0.16789 -0.01807 0.43518
C35J C 0.14422 -0.00617 0.44076
C36J C 0.12747 -0.00095 0.41918
C37J C 0.14175 -0.00489 0.42522
C38J C 0.16484 -0.01846 0.41968
C39J C 0.15158 -0.01171 0.41458
O6GE O 0.22646 -0.05587 0.42610
O7GE O 0.30070 -0.07263 0.41114
C4GE C 0.25507 -0.06200 0.41837
C7GE C 0.27052 -0.06530 0.41494
O8DF O 0.27416 -0.07068 0.52878
C10DF C 0.24748 -0.04691 0.51377
C11DF C 0.27033 -0.05736 0.52400
C12DF C 0.25940 -0.05736 0.51245
C13DF C 0.25632 -0.07141 0.50494
O9DF O 0.27195 -0.04523 0.53237
O10GE O 0.07701 -0.01956 0.42561
C14GE C 0.07184 -0.04077 0.44769
C15GE C 0.08022 -0.01544 0.43870
C16GE C 0.08111 -0.02741 0.44982
C17GE C 0.09290 -0.02803 0.46067
O11GE O 0.08776 -0.00308 0.44003
O16GE O 0.19362 -0.05911 0.42195
O17GE O 0.14839 -0.10378 0.37944
C30GE C 0.17951 -0.07678 0.40471
C31GE C 0.16801 -0.08485 0.39645
Cr1MA Cr 0.23709 -0.40527 0.32201
Cr2MA Cr 0.17908 -0.40227 0.57092
Cr3MA Cr 0.25000 -0.39205 0.35795
Cr4MA Cr 0.12500 -0.37500 0.35421
Cr5MA Cr 0.13871 -0.36129 0.38618
Cr6MA Cr 0.21632 -0.46632 0.45068
Cr7MA Cr 0.20754 -0.42720 0.45846
O1MA O 0.17085 -0.42084 0.57916
O2MA O 0.20004 -0.45004 0.45397
O3MA O 0.12500 -0.37500 0.37633
O4MA O 0.25000 -0.40811 0.34188
O5MA O 0.15982 -0.39131 0.56964
O6MA O 0.19413 -0.42610 0.47646
O7MA O 0.17737 -0.41114 0.55070
O8MA O 0.22584 -0.42932 0.47122
O9MA O 0.22805 -0.45477 0.46763
O10MA O 0.23044 -0.42561 0.32701
O11MA O 0.24692 -0.44003 0.33776
O12MA O 0.22279 -0.39876 0.33758
O13MA O 0.22747 -0.38451 0.35774
O14MA O 0.14811 -0.37552 0.35125
O15MA O 0.15693 -0.36631 0.37292
O16MA O 0.19089 -0.42195 0.44362
O17MA O 0.14622 -0.37944 0.39839
O18MA O 0.20379 -0.47624 0.43523
O19MA O 0.18055 -0.46912 0.43927
O20MA O 0.17722 -0.50664 0.36692
O21MA O 0.15475 -0.49662 0.37647
O22MA O 0.18898 -0.38815 0.56102
O23MA O 0.21127 -0.40585 0.46087
O24MA O 0.23107 -0.48107 0.45642
O25MA O 0.14829 -0.35171 0.40369
O26MA O 0.12500 -0.37500 0.33237
O27MA O 0.25000 -0.37523 0.37477
O28MA O 0.22474 -0.40580 0.30250
C1MA C 0.14071 -0.37050 0.56934
C2MA C 0.14658 -0.39659 0.56614
C3MA C 0.13577 -0.38577 0.56680
C4MA C 0.18800 -0.41837 0.50507
C5MA C 0.18414 -0.43414 0.48336
C6MA C 0.17855 -0.42855 0.49702
C7MA C 0.18470 -0.41494 0.52052
C8MA C 0.17083 -0.42083 0.54374
C9MA C 0.17268 -0.42268 0.52785
C10MA C 0.25252 -0.45309 0.48623
C11MA C 0.22967 -0.44264 0.47600
C12MA C 0.24060 -0.44264 0.48755
C13MA C 0.24368 -0.42859 0.49506
C14MA C 0.20923 -0.44769 0.32184
C15MA C 0.23456 -0.43870 0.33022
C16MA C 0.22259 -0.44982 0.33111
C17MA C 0.22197 -0.46067 0.34290
C18MA C 0.19184 -0.39347 0.34204
C19MA C 0.21908 -0.38844 0.34671
C20MA C 0.20404 -0.38504 0.34891
C21MA C 0.17690 -0.38883 0.34472
C22MA C 0.15929 -0.37309 0.36030
C23MA C 0.17411 -0.37950 0.35769
C24MA C 0.20164 -0.37746 0.36224
C25MA C 0.18650 -0.37311 0.36582
C26MA C 0.17660 -0.42660 0.44470
C27MA C 0.16657 -0.41657 0.43725
C28MA C 0.14174 -0.39174 0.40361
C29MA C 0.15196 -0.40196 0.41184
C30MA C 0.17322 -0.40471 0.42951
C31MA C 0.16515 -0.39645 0.41801
C32MA C 0.19571 -0.48645 0.40706
C33MA C 0.19016 -0.47536 0.43130
C34MA C 0.18518 -0.48193 0.41789
C35MA C 0.19076 -0.49383 0.39422
C36MA C 0.16918 -0.49905 0.37747
C37MA C 0.17522 -0.49511 0.39175
C38MA C 0.16968 -0.48154 0.41484
C39MA C 0.16458 -0.48829 0.40158
O5WD O 0.10869 -0.34018 0.56964
C1WD C 0.12950 -0.35929 0.56934
C2GC C 0.10342 -0.35341 0.56614
C3GC C 0.11423 -0.36423 0.56680
O5CD O 0.14131 -0.40982 0.56964
C1CD C 0.12050 -0.39071 0.56934
O5GC O 0.09018 -0.35869 0.56964
C1GC C 0.10929 -0.37950 0.56934
O6CD O 0.17610 -0.44413 0.47646
O7CD O 0.16114 -0.42737 0.55070
C4CD C 0.16837 -0.43800 0.50507
C7CD C 0.16494 -0.43470 0.52052
O8WF O 0.27878 -0.42932 0.52416
C10WF C 0.26377 -0.45309 0.49748
C11WF C 0.27400 -0.44264 0.52033
C12WF C 0.26245 -0.44264 0.50940
C13WF C 0.25494 -0.42859 0.50632
O9WF O 0.28237 -0.45477 0.52195
O10CD O 0.17561 -0.48044 0.32701
C14CD C 0.19769 -0.45923 0.32184
C15CD C 0.18870 -0.48456 0.33022
C16CD C 0.19982 -0.47259 0.33111
C17CD C 0.21067 -0.47197 0.34290
O11CD O 0.19003 -0.49692 0.33776
O16CD O 0.17195 -0.44089 0.44362
O17CD O 0.12944 -0.39622 0.39839
C30CD C 0.15471 -0.42322 0.42951
C31CD C 0.14645 -0.41515 0.41801
Cr1SA Cr 0.42799 -0.26291 0.65527
Cr2SA Cr 0.17908 -0.32092 0.65227
Cr3SA Cr 0.39205 -0.25000 0.64205
Cr4SA Cr 0.39579 -0.37500 0.62500
Cr5SA Cr 0.36382 -0.36129 0.61129
Cr6SA Cr 0.29932 -0.28368 0.71632
Cr7SA Cr 0.29154 -0.29246 0.67720
O2SA O 0.29603 -0.29996 0.70004
O3SA O 0.37367 -0.37500 0.62500
O4SA O 0.40812 -0.25000 0.65811
O5SA O 0.18036 -0.34018 0.64131
O6SA O 0.27354 -0.30587 0.67610
O7SA O 0.19930 -0.32263 0.66114
O8SA O 0.27878 -0.27416 0.67932
O9SA O 0.28237 -0.27195 0.70477
O10SA O 0.42299 -0.26956 0.67561
O11SA O 0.41224 -0.25308 0.69003
O12SA O 0.41242 -0.27721 0.64876
O13SA O 0.39226 -0.27253 0.63451
O14SA O 0.39875 -0.35189 0.62552
O15SA O 0.37708 -0.34307 0.61631
O16SA O 0.30638 -0.30911 0.67195
O17SA O 0.35161 -0.35378 0.62944
O18SA O 0.31477 -0.29621 0.72624
O19SA O 0.31073 -0.31945 0.71912
O20SA O 0.38308 -0.32278 0.75664
O21SA O 0.37353 -0.34525 0.74662
O22SA O 0.18898 -0.31102 0.63815
O23SA O 0.28913 -0.28873 0.65585
O24SA O 0.29358 -0.26893 0.73107
O25SA O 0.34631 -0.35171 0.60171
O26SA O 0.41763 -0.37500 0.62500
O27SA O 0.37523 -0.25000 0.62523
O28SA O 0.44750 -0.27526 0.65580
C1SA C 0.18066 -0.35929 0.62050
C2SA C 0.18386 -0.35342 0.64659
C3SA C 0.18320 -0.36423 0.63577
C4SA C 0.24493 -0.31200 0.66837
C5SA C 0.26664 -0.31586 0.68414
C6SA C 0.25298 -0.32145 0.67855
C7SA C 0.22948 -0.31530 0.66494
C8SA C 0.20626 -0.32917 0.67083
C9SA C 0.22215 -0.32732 0.67268
C10SA C 0.26377 -0.24748 0.70309
C11SA C 0.27400 -0.27033 0.69264
C12SA C 0.26245 -0.25940 0.69264
C13SA C 0.25494 -0.25632 0.67859
C14SA C 0.42816 -0.29077 0.69769
C15SA C 0.41978 -0.26544 0.68870
C16SA C 0.41889 -0.27741 0.69982
C17SA C 0.40710 -0.27803 0.71067
C18SA C 0.40796 -0.30816 0.64347
C19SA C 0.40329 -0.28092 0.63844
C20SA C 0.40109 -0.29596 0.63504
C21SA C 0.40528 -0.32310 0.63883
C22SA C 0.38970 -0.34071 0.62309
C23SA C 0.39231 -0.32589 0.62950
C24SA C 0.38776 -0.29836 0.62746
C25SA C 0.38418 -0.31350 0.62311
C26SA C 0.30530 -0.32340 0.67660
C27SA C 0.31275 -0.33343 0.66657
C28SA C 0.34639 -0.35826 0.64174
C29SA C 0.33816 -0.34804 0.65196
C30SA C 0.32049 -0.32678 0.65471
C31SA C 0.33199 -0.33485 0.64645
C32SA C 0.34294 -0.30429 0.73645
C33SA C 0.31870 -0.30984 0.72536
C34SA C 0.33211 -0.31482 0.73193
C35SA C 0.35578 -0.30924 0.74383
C36SA C 0.37253 -0.33082 0.74905
C37SA C 0.35825 -0.32478 0.74511
C38SA C 0.33516 -0.33032 0.73154
C39SA C 0.34842 -0.33542 0.73829
O5WF O 0.18036 -0.39131 0.59018
C1WF C 0.18066 -0.37050 0.60929
C2NB C 0.18386 -0.39658 0.60341
C3NB C 0.18320 -0.38577 0.61423
O5QE O 0.18036 -0.35869 0.65982
C1QE C 0.18066 -0.37950 0.64071
O5NB O 0.18036 -0.40982 0.60869
C1NB C 0.18066 -0.39071 0.62950
O6QE O 0.27354 -0.32390 0.69413
O7QE O 0.19930 -0.33886 0.67737
C4QE C 0.24493 -0.33163 0.68800
C7QE C 0.22948 -0.33506 0.68470
O8PD O 0.22584 -0.22122 0.67932
C10PD C 0.25252 -0.23623 0.70309
C11PD C 0.22967 -0.22600 0.69264
C12PD C 0.24060 -0.23755 0.69264
C13PD C 0.24368 -0.24506 0.67859
O9PD O 0.22805 -0.21763 0.70477
O10QE O 0.42299 -0.32439 0.73044
C14QE C 0.42816 -0.30231 0.70923
C15QE C 0.41978 -0.31130 0.73456
C16QE C 0.41889 -0.30018 0.72259
C17QE C 0.40710 -0.28933 0.72197
O11QE O 0.41224 -0.30997 0.74692
O16QE O 0.30638 -0.32805 0.69089
O17QE O 0.35161 -0.37056 0.64622
C30QE C 0.32049 -0.34529 0.67322
C31QE C 0.33199 -0.35355 0.66515
Cr1CD Cr 0.15527 -0.48709 0.32201
Cr2BB Cr 0.15227 -0.42908 0.57092
Cr3CD Cr 0.14205 -0.50000 0.35795
Cr5GC Cr 0.11129 -0.38871 0.38618
Cr7CD Cr 0.17720 -0.45754 0.45846
O4CD O 0.15811 -0.50000 0.34188
O8CD O 0.17932 -0.47584 0.47122
O9CD O 0.20477 -0.47805 0.46763
O12CD O 0.14876 -0.47279 0.33758
O13CD O 0.13451 -0.47747 0.35774
O14CD O 0.12552 -0.39811 0.35125
O15CD O 0.11631 -0.40693 0.37292
O18CD O 0.22624 -0.45379 0.43523
O19CD O 0.21912 -0.43055 0.43927
O20CD O 0.25664 -0.42722 0.36692
O21CD O 0.24662 -0.40475 0.37647
O22BB O 0.13815 -0.43898 0.56102
O23CD O 0.15585 -0.46127 0.46087
O25GC O 0.10171 -0.39829 0.40369
O27CD O 0.12523 -0.50000 0.37477
O28CD O 0.15580 -0.47474 0.30250
C10CD C 0.20309 -0.50252 0.48623
C11CD C 0.19264 -0.47967 0.47600
C12CD C 0.19264 -0.49060 0.48755
C13CD C 0.17859 -0.49368 0.49506
C18CD C 0.14347 -0.44184 0.34204
C19CD C 0.13844 -0.46908 0.34671
C20CD C 0.13504 -0.45404 0.34891
C21CD C 0.13883 -0.42690 0.34472
C22CD C 0.12309 -0.40929 0.36030
C23CD C 0.12950 -0.42411 0.35769
C24CD C 0.12746 -0.45164 0.36224
C25CD C 0.12311 -0.43650 0.36582
C32CD C 0.23645 -0.44571 0.40706
C33CD C 0.22536 -0.44016 0.43130
C34CD C 0.23193 -0.43518 0.41789
C35CD C 0.24383 -0.44076 0.39422
C36CD C 0.24905 -0.41918 0.37747
C37CD C 0.24511 -0.42522 0.39175
C38CD C 0.23154 -0.41968 0.41484
C39CD C 0.23829 -0.41458 0.40158
O8BB O 0.17932 -0.52878 0.52416
C10BB C 0.20309 -0.51377 0.49748
C11BB C 0.19264 -0.52400 0.52033
C12BB C 0.19264 -0.51245 0.50940
C13BB C 0.17859 -0.50494 0.50632
O9BB O 0.20477 -0.53237 0.52195
Cr1PD Cr 0.23709 -0.07201 0.65527
Cr3PD Cr 0.25000 -0.10795 0.64205
Cr6FB Cr 0.21632 -0.20068 0.71632
Cr7PD Cr 0.20754 -0.20846 0.67720
O2FB O 0.20004 -0.20397 0.70004
O4PD O 0.25000 -0.09188 0.65811
O6PD O 0.19413 -0.22646 0.67610
O7PD O 0.17737 -0.30070 0.66114
O10PD O 0.23044 -0.07701 0.67561
O11PD O 0.24692 -0.08776 0.69003
O12PD O 0.22279 -0.08758 0.64876
O13PD O 0.22747 -0.10774 0.63451
O14PD O 0.14811 -0.10125 0.62552
O15PD O 0.15693 -0.12292 0.61631
O16PD O 0.19089 -0.19362 0.67195
O17PD O 0.14622 -0.14839 0.62944
O18PD O 0.20379 -0.18523 0.72624
O19PD O 0.18055 -0.18927 0.71912
O20PD O 0.17722 -0.11692 0.75664
O21PD O 0.15475 -0.12647 0.74662
O23PD O 0.21127 -0.21087 0.65585
O24FB O 0.23107 -0.20642 0.73107
O27PD O 0.25000 -0.12477 0.62523
O28PD O 0.22474 -0.05250 0.65580
C4PD C 0.18800 -0.25507 0.66837
C5FB C 0.18414 -0.23336 0.68414
C6FB C 0.17855 -0.24702 0.67855
C7PD C 0.18470 -0.27052 0.66494
C8FB C 0.17083 -0.29374 0.67083
C9FB C 0.17268 -0.27785 0.67268
C14PD C 0.20923 -0.07184 0.69769
C15PD C 0.23456 -0.08022 0.68870
C16PD C 0.22259 -0.08111 0.69982
C17PD C 0.22197 -0.09290 0.71067
C18PD C 0.19184 -0.09204 0.64347
C19PD C 0.21908 -0.09671 0.63844
C20PD C 0.20404 -0.09891 0.63504
C21PD C 0.17690 -0.09472 0.63883
C22PD C 0.15929 -0.11030 0.62309
C23PD C 0.17411 -0.10769 0.62950
C24PD C 0.20164 -0.11224 0.62746
C25PD C 0.18650 -0.11582 0.62311
C26FB C 0.17660 -0.19470 0.67660
C27FB C 0.16657 -0.18725 0.66657
C28FB C 0.14174 -0.15361 0.64174
C29FB C 0.15196 -0.16184 0.65196
C30PD C 0.17322 -0.17951 0.65471
C31PD C 0.16515 -0.16801 0.64645
C32PD C 0.19571 -0.15706 0.73645
C33PD C 0.19016 -0.18130 0.72536
C34PD C 0.18518 -0.16789 0.73193
C35PD C 0.19076 -0.14422 0.74383
C36PD C 0.16918 -0.12747 0.74905
C37PD C 0.17522 -0.14175 0.74511
C38PD C 0.16968 -0.16484 0.73154
C39PD C 0.16458 -0.15158 0.73829
O6FB O 0.17610 -0.22646 0.69413
O7FB O 0.16114 -0.30070 0.67737
C4FB C 0.16837 -0.25507 0.68800
C7FB C 0.16494 -0.27052 0.68470
O10FB O 0.17561 -0.07701 0.73044
C14FB C 0.19769 -0.07184 0.70923
C15FB C 0.18870 -0.08022 0.73456
C16FB C 0.19982 -0.08111 0.72259
C17FB C 0.21067 -0.09290 0.72197
O11FB O 0.19003 -0.08776 0.74692
O16FB O 0.17195 -0.19362 0.69089
O17FB O 0.12944 -0.14839 0.64622
C30FB C 0.15471 -0.17951 0.67322
C31FB C 0.14645 -0.16801 0.66515
Cr1WD Cr 0.09473 -0.26291 0.32201
Cr3WD Cr 0.10795 -0.25000 0.35795
Cr6GC Cr 0.03368 -0.28368 0.45068
Cr7WD Cr 0.07280 -0.29246 0.45846
O2GC O 0.04996 -0.29996 0.45397
O4WD O 0.09189 -0.25000 0.34188
O6WD O 0.07390 -0.30587 0.47646
O7WD O 0.08886 -0.32263 0.55070
O10WD O 0.07439 -0.26956 0.32701
O11WD O 0.05997 -0.25308 0.33776
O12WD O 0.10124 -0.27721 0.33758
O13WD O 0.11549 -0.27253 0.35774
O14WD O 0.12448 -0.35189 0.35125
O15WD O 0.13369 -0.34307 0.37292
O16WD O 0.07805 -0.30911 0.44362
O17WD O 0.12056 -0.35378 0.39839
O18WD O 0.02376 -0.29621 0.43523
O19WD O 0.03088 -0.31945 0.43927
O20WD O -0.00664 -0.32278 0.36692
O21WD O 0.00338 -0.34525 0.37647
O23WD O 0.09415 -0.28873 0.46087
O24GC O 0.01893 -0.26893 0.45642
O27WD O 0.12477 -0.25000 0.37477
O28WD O 0.09420 -0.27526 0.30250
C4WD C 0.08163 -0.31200 0.50507
C5GC C 0.06586 -0.31586 0.48336
C6GC C 0.07145 -0.32145 0.49702
C7WD C 0.08506 -0.31530 0.52052
C8GC C 0.07917 -0.32917 0.54374
C9GC C 0.07732 -0.32732 0.52785
C14WD C 0.05231 -0.29077 0.32184
C15WD C 0.06130 -0.26544 0.33022
C16WD C 0.05018 -0.27741 0.33111
C17WD C 0.03933 -0.27803 0.34290
C18WD C 0.10653 -0.30816 0.34204
C19WD C 0.11156 -0.28092 0.34671
C20WD C 0.11496 -0.29596 0.34891
C21WD C 0.11117 -0.32310 0.34472
C22WD C 0.12691 -0.34071 0.36030
C23WD C 0.12050 -0.32589 0.35769
C24WD C 0.12254 -0.29836 0.36224
C25WD C 0.12689 -0.31350 0.36582
C26GC C 0.07340 -0.32340 0.44470
C27GC C 0.08343 -0.33343 0.43725
C28GC C 0.10826 -0.35826 0.40361
C29GC C 0.09804 -0.34804 0.41184
C30WD C 0.09529 -0.32678 0.42951
C31WD C 0.10355 -0.33485 0.41801
C32WD C 0.01355 -0.30429 0.40706
C33WD C 0.02464 -0.30984 0.43130
C34WD C 0.01807 -0.31482 0.41789
C35WD C 0.00617 -0.30924 0.39422
C36WD C 0.00095 -0.33082 0.37747
C37WD C 0.00489 -0.32478 0.39175
C38WD C 0.01846 -0.33032 0.41484
C39WD C 0.01171 -0.33542 0.40158
O6GC O 0.05587 -0.32390 0.47646
O7GC O 0.07263 -0.33886 0.55070
C4GC C 0.06200 -0.33163 0.50507
C7GC C 0.06530 -0.33506 0.52052
O10GC O 0.01956 -0.32439 0.32701
C14GC C 0.04077 -0.30231 0.32184
C15GC C 0.01544 -0.31130 0.33022
C16GC C 0.02741 -0.30018 0.33111
C17GC C 0.02803 -0.28933 0.34290
O11GC O 0.00308 -0.30997 0.33776
O16GC O 0.05911 -0.32805 0.44362
O17GC O 0.10378 -0.37056 0.39839
C30GC C 0.07678 -0.34529 0.42951
C31GC C 0.08485 -0.35355 0.41801
Cr2FB Cr 0.15227 -0.32092 0.67908
Cr7FE Cr 0.17720 -0.29246 0.79154
O8FE O 0.17932 -0.27416 0.77878
O9FE O 0.20477 -0.27195 0.78237
O22FB O 0.13815 -0.31102 0.68898
O23FE O 0.15585 -0.28873 0.78913
C10FE C 0.20309 -0.24748 0.76377
C11FE C 0.19264 -0.27033 0.77400
C12FE C 0.19264 -0.25940 0.76245
C13FE C 0.17859 -0.25632 0.75494
O8FB O 0.17932 -0.22122 0.72584
C10FB C 0.20309 -0.23623 0.75252
C11FB C 0.19264 -0.22600 0.72967
C12FB C 0.19264 -0.23755 0.74060
C13FB C 0.17859 -0.24506 0.74368
O9FB O 0.20477 -0.21763 0.72805
Cr1JF Cr 0.01291 -0.07201 0.59473
Cr7JF Cr 0.04246 -0.20846 0.57280
O12JF O 0.02721 -0.08758 0.60124
O13JF O 0.02253 -0.10774 0.61549
O14JF O 0.10189 -0.10125 0.62448
O15JF O 0.09307 -0.12292 0.63369
O18JF O 0.04621 -0.18523 0.52376
O19JF O 0.06945 -0.18927 0.53088
O20JF O 0.07278 -0.11692 0.49336
O21JF O 0.09525 -0.12647 0.50338
O23JF O 0.03873 -0.21087 0.59415
O28JF O 0.02526 -0.05250 0.59420
C18JF C 0.05816 -0.09204 0.60653
C19JF C 0.03092 -0.09671 0.61156
C20JF C 0.04596 -0.09891 0.61496
C21JF C 0.07310 -0.09472 0.61117
C22JF C 0.09071 -0.11030 0.62691
C23JF C 0.07589 -0.10769 0.62050
C24JF C 0.04836 -0.11224 0.62254
C25JF C 0.06350 -0.11582 0.62689
C32JF C 0.05429 -0.15706 0.51355
C33JF C 0.05984 -0.18130 0.52464
C34JF C 0.06482 -0.16789 0.51807
C35JF C 0.05924 -0.14422 0.50617
C36JF C 0.08082 -0.12747 0.50095
C37JF C 0.07478 -0.14175 0.50489
C38JF C 0.08032 -0.16484 0.51846
C39JF C 0.08542 -0.15158 0.51171
Cr1WF Cr 0.42799 -0.40527 0.51291
Cr7WF Cr 0.29154 -0.42720 0.54246
O12WF O 0.41242 -0.39876 0.52721
O13WF O 0.39226 -0.38451 0.52253
O14WF O 0.39875 -0.37552 0.60189
O15WF O 0.37708 -0.36631 0.59307
O23WF O 0.28913 -0.40585 0.53873
O28WF O 0.44750 -0.40580 0.52526
C18WF C 0.40796 -0.39347 0.55816
C19WF C 0.40329 -0.38844 0.53092
C20WF C 0.40109 -0.38504 0.54596
C21WF C 0.40528 -0.38883 0.57310
C22WF C 0.38970 -0.37309 0.59071
C23WF C 0.39231 -0.37950 0.57589
C24WF C 0.38776 -0.37746 0.54836
C25WF C 0.38418 -0.37311 0.56350
Cr1FB Cr 0.15527 -0.07201 0.73709
Cr5FB Cr 0.11129 -0.13618 0.63871
O12FB O 0.14876 -0.08758 0.72279
O13FB O 0.13451 -0.10774 0.72747
O14FB O 0.12552 -0.10125 0.64811
O15FB O 0.11631 -0.12292 0.65693
O25FB O 0.10171 -0.15369 0.64829
O28FB O 0.15580 -0.05250 0.72474
C18FB C 0.14347 -0.09204 0.69184
C19FB C 0.13844 -0.09671 0.71908
C20FB C 0.13504 -0.09891 0.70404
C21FB C 0.13883 -0.09472 0.67690
C22FB C 0.12309 -0.11030 0.65929
C23FB C 0.12950 -0.10769 0.67411
C24FB C 0.12746 -0.11224 0.70164
C25FB C 0.12311 -0.11582 0.68650
Cr1SE Cr -0.01291 -0.09473 0.57201
O12SE O -0.02721 -0.10124 0.58758
O13SE O -0.02253 -0.11549 0.60774
O14SE O -0.10189 -0.12448 0.60125
O15SE O -0.09307 -0.13369 0.62292
O28SE O -0.02526 -0.09420 0.55250
C18SE C -0.05816 -0.10653 0.59204
C19SE C -0.03092 -0.11156 0.59671
C20SE C -0.04596 -0.11496 0.59891
C21SE C -0.07310 -0.11117 0.59472
C22SE C -0.09071 -0.12691 0.61030
C23SE C -0.07589 -0.12050 0.60769
C24SE C -0.04836 -0.12254 0.61224
C25SE C -0.06350 -0.12689 0.61582
Cr1IF Cr 0.07201 -0.23709 0.34473
O12IF O 0.08758 -0.22279 0.35124
O13IF O 0.10774 -0.22747 0.36549
O14IF O 0.10125 -0.14811 0.37448
O15IF O 0.12292 -0.15693 0.38369
O28IF O 0.05250 -0.22474 0.34420
C18IF C 0.09204 -0.19184 0.35653
C19IF C 0.09671 -0.21908 0.36156
C20IF C 0.09891 -0.20404 0.36496
C21IF C 0.09472 -0.17690 0.36117
C22IF C 0.11030 -0.15929 0.37691
C23IF C 0.10769 -0.17411 0.37050
C24IF C 0.11224 -0.20164 0.37254
C25IF C 0.11582 -0.18650 0.37689
O18GE O 0.18523 -0.04621 0.47624
O19GE O 0.18927 -0.06945 0.46912
O20GE O 0.11692 -0.07278 0.50664
O21GE O 0.12647 -0.09525 0.49662
C32GE C 0.15706 -0.05429 0.48645
C33GE C 0.18130 -0.05984 0.47536
C34GE C 0.16789 -0.06482 0.48193
C35GE C 0.14422 -0.05924 0.49383
C36GE C 0.12747 -0.08082 0.49905
C37GE C 0.14175 -0.07478 0.49511
C38GE C 0.16484 -0.08032 0.48154
C39GE C 0.15158 -0.08542 0.48829
O18YD O 0.27376 -0.31477 0.29621
O19YD O 0.28088 -0.31073 0.31945
O20YD O 0.24336 -0.38308 0.32278
O21YD O 0.25338 -0.37353 0.34525
C32YD C 0.26355 -0.34294 0.30429
C33YD C 0.27464 -0.31870 0.30984
C34YD C 0.26807 -0.33211 0.31482
C35YD C 0.25617 -0.35578 0.30924
C36YD C 0.25095 -0.37253 0.33082
C37YD C 0.25489 -0.35825 0.32478
C38YD C 0.26846 -0.33516 0.33032
C39YD C 0.26171 -0.34842 0.33542
O18DD O 0.45379 -0.22624 0.56477
O19DD O 0.43055 -0.21912 0.56073
O20DD O 0.42722 -0.25664 0.63308
O21DD O 0.40475 -0.24662 0.62353
C32DD C 0.44571 -0.23645 0.59294
C33DD C 0.44016 -0.22536 0.56870
C34DD C 0.43518 -0.23193 0.58211
C35DD C 0.44076 -0.24383 0.60578
C36DD C 0.41918 -0.24905 0.62253
C37DD C 0.42522 -0.24511 0.60825
C38DD C 0.41968 -0.23154 0.58516
C39DD C 0.41458 -0.23829 0.59842
O18QE O 0.31477 -0.27376 0.70379
O19QE O 0.31073 -0.28088 0.68055
O20QE O 0.38308 -0.24336 0.67722
O21QE O 0.37353 -0.25338 0.65475
C32QE C 0.34294 -0.26355 0.69571
C33QE C 0.31870 -0.27464 0.69016
C34QE C 0.33211 -0.26807 0.68518
C35QE C 0.35578 -0.25617 0.69076
C36QE C 0.37253 -0.25095 0.66918
C37QE C 0.35825 -0.25489 0.67522
C38QE C 0.33516 -0.26846 0.66968
C39QE C 0.34842 -0.26171 0.66458
Cr7GE Cr 0.20846 -0.04246 0.42720
O23GE O 0.21087 -0.03873 0.40585
Cr7DF Cr 0.29246 -0.07280 0.54154
O23DF O 0.28873 -0.09415 0.53913
Cr1R Cr -0.01291 -0.32201 0.34473
Cr1PA Cr 0.26291 -0.42799 0.34473
Cr1DB Cr 0.40527 -0.23709 0.67799
Cr1EB Cr 0.17799 -0.09473 0.76291
Cr1GC Cr 0.01291 -0.34473 0.32201
Cr1DE Cr 0.09473 0.01291 0.42799
Cr1GE Cr 0.07201 -0.01291 0.40527
Cr1QE Cr 0.42799 -0.34473 0.73709
Cr1RE Cr 0.40527 -0.32201 0.76291
Cr1DF Cr 0.26291 -0.09473 0.67799
Cr1KF Cr 0.17799 -0.51291 0.34473
Cr2HA Cr 0.17908 -0.34773 0.67908
Cr2RA Cr 0.32092 -0.07092 0.40227
Cr2VA Cr 0.07092 -0.32092 0.59773
Cr2NB Cr 0.17908 -0.42908 0.59773
Cr2GC Cr 0.07092 -0.34773 0.57092
Cr3R Cr 0.00000 -0.35795 0.35795
Cr3EB Cr 0.14205 -0.10795 0.75000
Cr3DE Cr 0.10795 0.00000 0.39205
Cr3QE Cr 0.39205 -0.35795 0.75000
Cr3SE Cr 0.00000 -0.10795 0.60795
Cr3MF Cr 0.39205 -0.39205 0.50000
Cr4J Cr 0.10421 -0.12500 0.37500
Cr4O Cr -0.12500 -0.12500 0.60421
Cr5O Cr -0.11129 -0.13871 0.63618
Cr5Z Cr 0.13618 -0.11129 0.36129
Cr5NB Cr 0.36382 -0.38871 0.63871
Cr6HA Cr 0.21632 -0.28368 0.79932
Cr6PA Cr 0.28368 -0.29932 0.28368
Cr6BB Cr 0.21632 -0.54932 0.53368
Cr6DB Cr 0.46632 -0.21632 0.54932
Cr6NB Cr 0.29932 -0.46632 0.53368
Cr6FC Cr 0.28368 -0.03368 0.54932
Cr7PA Cr 0.29246 -0.29154 0.32280
Cr7BB Cr 0.17720 -0.54154 0.54246
Cr7DB Cr 0.42720 -0.20754 0.54154
Cr7FB Cr 0.17720 -0.20846 0.70754
Cr7GC Cr 0.04246 -0.32280 0.45846
Cr7QE Cr 0.29154 -0.32280 0.70754
O1J O 0.32916 -0.07916 0.42085
O1HA O 0.17085 -0.32916 0.67084
O2HA O 0.20004 -0.29996 0.79603
O2NB O 0.29603 -0.45004 0.54996
O2FC O 0.29996 -0.04996 0.54603
O3J O 0.12633 -0.12500 0.37500
O4EB O 0.15812 -0.09189 0.75000
O4SE O 0.00000 -0.09189 0.59188
O4MF O 0.40811 -0.40812 0.50000
O5J O 0.31964 -0.10869 0.40982
O5BB O 0.14131 -0.43036 0.59018
O5FE O 0.14131 -0.34018 0.68036
O5DF O 0.34018 -0.10869 0.43036
O6FE O 0.17610 -0.30587 0.77354
O6DF O 0.30587 -0.07390 0.52354
O6WF O 0.27354 -0.42610 0.55587
O7BB O 0.16114 -0.44930 0.57263
O7FE O 0.16114 -0.32263 0.69930
O7DF O 0.32263 -0.08886 0.44930
O7WF O 0.19930 -0.41114 0.57263
O8GE O 0.22122 -0.02416 0.42932
O8JF O 0.02416 -0.22122 0.57068
O9GC O 0.02195 -0.29523 0.46763
O9GE O 0.21763 -0.02195 0.45477
O9QE O 0.28237 -0.29523 0.72805
O9JF O 0.02195 -0.21763 0.54523
O10SE O -0.01956 -0.07439 0.57701
O10IF O 0.07701 -0.23044 0.32439
O10WF O 0.42299 -0.42561 0.51956
O11PA O 0.25308 -0.41224 0.30997
O11DB O 0.44003 -0.24692 0.66224
O11EB O 0.16224 -0.05997 0.75308
O11SE O -0.00308 -0.05997 0.58776
O11DF O 0.25308 -0.05997 0.66224
O11IF O 0.08776 -0.24692 0.30997
O11KF O 0.16224 -0.50308 0.30997
O11MF O 0.44003 -0.41224 0.49692
O13PA O 0.27253 -0.39226 0.36549
O13DB O 0.38451 -0.22747 0.64226
O13DF O 0.27253 -0.11549 0.64226
O13KF O 0.14226 -0.52253 0.36549
O14NB O 0.39875 -0.39811 0.62448
O14GC O 0.10189 -0.37448 0.35125
O14QE O 0.39875 -0.37448 0.64811
O15GC O 0.09307 -0.38369 0.37292
O16FE O 0.17195 -0.30911 0.80638
O16DF O 0.30911 -0.07805 0.55638
O16WF O 0.30638 -0.42195 0.55911
O17IF O 0.14839 -0.14622 0.37056
O17WF O 0.35161 -0.37944 0.60378
O18FB O 0.22624 -0.18523 0.70379
O18GC O 0.04621 -0.27376 0.43523
O19HA O 0.18055 -0.28088 0.81073
O19FB O 0.21912 -0.18927 0.68055
O19NB O 0.31073 -0.43055 0.53088
O19FC O 0.28088 -0.06945 0.56073
O19GC O 0.06945 -0.28088 0.43927
O20Z O 0.11692 -0.25664 0.32278
O20LA O 0.00664 -0.07278 0.61692
O20TA O 0.42722 -0.38308 0.50664
O20BC O 0.13308 -0.49336 0.32278
O20FC O 0.24336 -0.07278 0.63308
O20GC O 0.07278 -0.24336 0.36692
O20HG O 0.13308 -0.07278 0.74336
O21Z O 0.12647 -0.24662 0.34525
O21FB O 0.24662 -0.12647 0.65475
O21BC O 0.12353 -0.50338 0.34525
O21FC O 0.25338 -0.09525 0.62353
O21GC O 0.09525 -0.25338 0.37647
loop_
_geom_bond_atom_site_label_1
_geom_bond_atom_site_label_2
_geom_bond_site_symmetry_1
_geom_bond_site_symmetry_2
Cr1 O4 1_555 1_555
Cr2 O1 1_555 1_555
Cr3 O4 1_555 1_555
Cr4 O3 1_555 1_555
Cr5 O3 1_555 1_555
Cr6 O2 1_555 1_555
Cr7 O2 1_555 1_555
O1 Cr2VA 1_555 1_555
O2 Cr7JF 1_555 1_555
O3 Cr5FB 1_555 1_555
O4 Cr1J 1_555 1_555
O5 Cr2 1_555 1_555
O6 Cr7 1_555 1_555
O7 Cr2 1_555 1_555
O8 Cr7 1_555 1_555
O9 Cr6 1_555 1_555
O10 Cr1 1_555 1_555
O11 C15 1_555 1_555
O12 Cr1 1_555 1_555
O13 Cr3 1_555 1_555
O14 Cr4 1_555 1_555
O15 Cr5 1_555 1_555
O16 Cr7 1_555 1_555
O17 Cr5 1_555 1_555
O18 Cr6 1_555 1_555
O19 C33 1_555 1_555
O20 C36 1_555 1_555
O21 C36 1_555 1_555
O22 Cr2 1_555 1_555
O23 Cr7 1_555 1_555
O24 Cr6 1_555 1_555
O25 Cr5 1_555 1_555
O26 Cr4 1_555 1_555
O27 Cr3 1_555 1_555
O28 Cr1 1_555 1_555
C1 C3 1_555 1_555
C2 O5 1_555 1_555
C3 C2 1_555 1_555
C4 C6 1_555 1_555
C5 O6 1_555 1_555
C6 C5 1_555 1_555
C7 C4 1_555 1_555
C8 O7 1_555 1_555
C9 C7 1_555 1_555
C10 C12 1_555 1_555
C11 O8 1_555 1_555
C12 C11 1_555 1_555
C13 C12 1_555 1_555
C14 C16 1_555 1_555
C15 O10 1_555 1_555
C16 C15 1_555 1_555
C17 C16 1_555 1_555
C18 C20 1_555 1_555
C19 O12 1_555 1_555
C20 C19 1_555 1_555
C21 C18 1_555 1_555
C22 O14 1_555 1_555
C23 C21 1_555 1_555
C24 C20 1_555 1_555
C25 C23 1_555 1_555
C26 O16 1_555 1_555
C27 C26 1_555 1_555
C28 O17 1_555 1_555
C29 C28 1_555 1_555
C30 C27 1_555 1_555
C31 C29 1_555 1_555
C32 C34 1_555 1_555
C33 O18 1_555 1_555
C34 C33 1_555 1_555
C35 C32 1_555 1_555
C36 C37 1_555 1_555
C37 C35 1_555 1_555
C38 C34 1_555 1_555
C39 C37 1_555 1_555
O5PD C2FB 1_555 1_555
C1PD C1 1_555 1_555
C2FB C3FB 1_555 1_555
C3FB C1PD 1_555 1_555
O5JF C2 1_555 1_555
C1JF C3 1_555 1_555
O5FB C2FB 1_555 1_555
C1FB C3FB 1_555 1_555
O6JF C5 1_555 1_555
O7JF C8 1_555 1_555
C4JF C6 1_555 1_555
C7JF C9 1_555 1_555
O8WD C11WD 1_555 1_555
C10WD C10 1_555 1_555
C11WD C12WD 1_555 1_555
C12WD C10WD 1_555 1_555
C13WD C13 1_555 1_555
O9WD C11WD 1_555 1_555
O10JF C15JF 1_555 1_555
C14JF C14 1_555 1_555
C15JF C16JF 1_555 1_555
C16JF C14JF 1_555 1_555
C17JF C17 1_555 1_555
O11JF C15JF 1_555 1_555
O16JF C26 1_555 1_555
O17JF C28 1_555 1_555
C30JF C27 1_555 1_555
C31JF C29 1_555 1_555
Cr1J O11 1_555 1_555
Cr2J O7J 1_555 1_555
Cr5J O15J 1_555 1_555
Cr6J O2J 1_555 1_555
Cr7J O2J 1_555 1_555
O2J Cr7GE 1_555 1_555
O6J Cr7J 1_555 1_555
O7J C8J 1_555 1_555
O8J Cr7J 1_555 1_555
O9J Cr6J 1_555 1_555
O10J Cr1J 1_555 1_555
O11J Cr1 1_555 1_555
O12J Cr1J 1_555 1_555
O13J Cr3 1_555 1_555
O14J C22J 1_555 1_555
O15J C22J 1_555 1_555
O16J Cr7J 1_555 1_555
O17J Cr5J 1_555 1_555
O18J Cr6J 1_555 1_555
O19J C33J 1_555 1_555
O20J C36J 1_555 1_555
O21J C36J 1_555 1_555
O22J Cr2J 1_555 1_555
O23J Cr7J 1_555 1_555
O24J Cr6J 1_555 1_555
O25J Cr5J 1_555 1_555
O28J Cr1J 1_555 1_555
C4J C6J 1_555 1_555
C5J O6J 1_555 1_555
C6J C5J 1_555 1_555
C7J C4J 1_555 1_555
C8J C9J 1_555 1_555
C9J C7J 1_555 1_555
C10J C12J 1_555 1_555
C11J O8J 1_555 1_555
C12J C11J 1_555 1_555
C13J C12J 1_555 1_555
C14J C16J 1_555 1_555
C15J O10J 1_555 1_555
C16J C15J 1_555 1_555
C17J C16J 1_555 1_555
C18J C20J 1_555 1_555
C19J O12J 1_555 1_555
C20J C19J 1_555 1_555
C21J C18J 1_555 1_555
C22J C23J 1_555 1_555
C23J C21J 1_555 1_555
C24J C20J 1_555 1_555
C25J C23J 1_555 1_555
C26J O16J 1_555 1_555
C27J C26J 1_555 1_555
C28J O17J 1_555 1_555
C29J C28J 1_555 1_555
C30J C27J 1_555 1_555
C31J C29J 1_555 1_555
C32J C34J 1_555 1_555
C33J O18J 1_555 1_555
C34J C33J 1_555 1_555
C35J C32J 1_555 1_555
C36J C37J 1_555 1_555
C37J C35J 1_555 1_555
C38J C34J 1_555 1_555
C39J C37J 1_555 1_555
O6GE C5J 1_555 1_555
O7GE C8J 1_555 1_555
C4GE C6J 1_555 1_555
C7GE C9J 1_555 1_555
O8DF C11DF 1_555 1_555
C10DF C10J 1_555 1_555
C11DF C12DF 1_555 1_555
C12DF C10DF 1_555 1_555
C13DF C13J 1_555 1_555
O9DF C11DF 1_555 1_555
O10GE C15GE 1_555 1_555
C14GE C14J 1_555 1_555
C15GE C16GE 1_555 1_555
C16GE C14GE 1_555 1_555
C17GE C17J 1_555 1_555
O11GE C15GE 1_555 1_555
O16GE C26J 1_555 1_555
O17GE C28J 1_555 1_555
C30GE C27J 1_555 1_555
C31GE C29J 1_555 1_555
Cr1MA O4MA 1_555 1_555
Cr2MA O1MA 1_555 1_555
Cr3MA O4MA 1_555 1_555
Cr4MA O3MA 1_555 1_555
Cr5MA O3MA 1_555 1_555
Cr6MA O2MA 1_555 1_555
Cr7MA O2MA 1_555 1_555
O1MA Cr2BB 1_555 1_555
O2MA Cr7CD 1_555 1_555
O3MA Cr5GC 1_555 1_555
O4MA Cr1PA 1_555 1_555
O5MA Cr2MA 1_555 1_555
O6MA Cr7MA 1_555 1_555
O7MA Cr2MA 1_555 1_555
O8MA Cr7MA 1_555 1_555
O9MA Cr6MA 1_555 1_555
O10MA Cr1MA 1_555 1_555
O11MA C15MA 1_555 1_555
O12MA Cr1MA 1_555 1_555
O13MA Cr3MA 1_555 1_555
O14MA Cr4MA 1_555 1_555
O15MA Cr5MA 1_555 1_555
O16MA Cr7MA 1_555 1_555
O17MA Cr5MA 1_555 1_555
O18MA Cr6MA 1_555 1_555
O19MA C33MA 1_555 1_555
O20MA C36MA 1_555 1_555
O21MA C36MA 1_555 1_555
O22MA Cr2MA 1_555 1_555
O23MA Cr7MA 1_555 1_555
O24MA Cr6MA 1_555 1_555
O25MA Cr5MA 1_555 1_555
O26MA Cr4MA 1_555 1_555
O27MA Cr3MA 1_555 1_555
O28MA Cr1MA 1_555 1_555
C1MA C3MA 1_555 1_555
C2MA O5MA 1_555 1_555
C3MA C2MA 1_555 1_555
C4MA C6MA 1_555 1_555
C5MA O6MA 1_555 1_555
C6MA C5MA 1_555 1_555
C7MA C4MA 1_555 1_555
C8MA O7MA 1_555 1_555
C9MA C7MA 1_555 1_555
C10MA C12MA 1_555 1_555
C11MA O8MA 1_555 1_555
C12MA C11MA 1_555 1_555
C13MA C12MA 1_555 1_555
C14MA C16MA 1_555 1_555
C15MA O10MA 1_555 1_555
C16MA C15MA 1_555 1_555
C17MA C16MA 1_555 1_555
C18MA C20MA 1_555 1_555
C19MA O12MA 1_555 1_555
C20MA C19MA 1_555 1_555
C21MA C18MA 1_555 1_555
C22MA O14MA 1_555 1_555
C23MA C21MA 1_555 1_555
C24MA C20MA 1_555 1_555
C25MA C23MA 1_555 1_555
C26MA O16MA 1_555 1_555
C27MA C26MA 1_555 1_555
C28MA O17MA 1_555 1_555
C29MA C28MA 1_555 1_555
C30MA C27MA 1_555 1_555
C31MA C29MA 1_555 1_555
C32MA C34MA 1_555 1_555
C33MA O18MA 1_555 1_555
C34MA C33MA 1_555 1_555
C35MA C32MA 1_555 1_555
C36MA C37MA 1_555 1_555
C37MA C35MA 1_555 1_555
C38MA C34MA 1_555 1_555
C39MA C37MA 1_555 1_555
O5WD Cr2 1_555 1_555
C1WD C1MA 1_555 1_555
C2GC O5WD 1_555 1_555
C3GC C1WD 1_555 1_555
O5CD C2MA 1_555 1_555
C1CD C3MA 1_555 1_555
O5GC C2GC 1_555 1_555
C1GC C3GC 1_555 1_555
O6CD C5MA 1_555 1_555
O7CD C8MA 1_555 1_555
C4CD C6MA 1_555 1_555
C7CD C9MA 1_555 1_555
O8WF C11WF 1_555 1_555
C10WF C10MA 1_555 1_555
C11WF C12WF 1_555 1_555
C12WF C10WF 1_555 1_555
C13WF C13MA 1_555 1_555
O9WF C11WF 1_555 1_555
O10CD C15CD 1_555 1_555
C14CD C14MA 1_555 1_555
C15CD C16CD 1_555 1_555
C16CD C14CD 1_555 1_555
C17CD C17MA 1_555 1_555
O11CD C15CD 1_555 1_555
O16CD C26MA 1_555 1_555
O17CD C28MA 1_555 1_555
C30CD C27MA 1_555 1_555
C31CD C29MA 1_555 1_555
Cr1SA O4SA 1_555 1_555
Cr2SA O5PD 1_555 1_555
Cr3SA O4SA 1_555 1_555
Cr4SA O3SA 1_555 1_555
Cr5SA O3SA 1_555 1_555
Cr6SA O2SA 1_555 1_555
Cr7SA O2SA 1_555 1_555
O2SA Cr7QE 1_555 1_555
O3SA Cr5NB 1_555 1_555
O4SA Cr1DB 1_555 1_555
O5SA Cr2SA 1_555 1_555
O6SA Cr7SA 1_555 1_555
O7SA Cr2SA 1_555 1_555
O8SA Cr7SA 1_555 1_555
O9SA Cr6SA 1_555 1_555
O10SA Cr1SA 1_555 1_555
O11SA C15SA 1_555 1_555
O12SA Cr1SA 1_555 1_555
O13SA Cr3SA 1_555 1_555
O14SA Cr4SA 1_555 1_555
O15SA Cr5SA 1_555 1_555
O16SA Cr7SA 1_555 1_555
O17SA Cr5SA 1_555 1_555
O18SA Cr6SA 1_555 1_555
O19SA C33SA 1_555 1_555
O20SA C36SA 1_555 1_555
O21SA C36SA 1_555 1_555
O22SA Cr2SA 1_555 1_555
O23SA Cr7SA 1_555 1_555
O24SA Cr6SA 1_555 1_555
O25SA Cr5SA 1_555 1_555
O26SA Cr4SA 1_555 1_555
O27SA Cr3SA 1_555 1_555
O28SA Cr1SA 1_555 1_555
C1SA C3SA 1_555 1_555
C2SA O5SA 1_555 1_555
C3SA C2SA 1_555 1_555
C4SA C6SA 1_555 1_555
C5SA O6SA 1_555 1_555
C6SA C5SA 1_555 1_555
C7SA C4SA 1_555 1_555
C8SA O7SA 1_555 1_555
C9SA C7SA 1_555 1_555
C10SA C12SA 1_555 1_555
C11SA O8SA 1_555 1_555
C12SA C11SA 1_555 1_555
C13SA C12SA 1_555 1_555
C14SA C16SA 1_555 1_555
C15SA O10SA 1_555 1_555
C16SA C15SA 1_555 1_555
C17SA C16SA 1_555 1_555
C18SA C20SA 1_555 1_555
C19SA O12SA 1_555 1_555
C20SA C19SA 1_555 1_555
C21SA C18SA 1_555 1_555
C22SA O14SA 1_555 1_555
C23SA C21SA 1_555 1_555
C24SA C20SA 1_555 1_555
C25SA C23SA 1_555 1_555
C26SA O16SA 1_555 1_555
C27SA C26SA 1_555 1_555
C28SA O17SA 1_555 1_555
C29SA C28SA 1_555 1_555
C30SA C27SA 1_555 1_555
C31SA C29SA 1_555 1_555
C32SA C34SA 1_555 1_555
C33SA O18SA 1_555 1_555
C34SA C33SA 1_555 1_555
C35SA C32SA 1_555 1_555
C36SA C37SA 1_555 1_555
C37SA C35SA 1_555 1_555
C38SA C34SA 1_555 1_555
C39SA C37SA 1_555 1_555
O5WF Cr2MA 1_555 1_555
C1WF C1SA 1_555 1_555
C2NB O5WF 1_555 1_555
C3NB C1WF 1_555 1_555
O5QE C2SA 1_555 1_555
C1QE C3SA 1_555 1_555
O5NB C2NB 1_555 1_555
C1NB C3NB 1_555 1_555
O6QE C5SA 1_555 1_555
O7QE C8SA 1_555 1_555
C4QE C6SA 1_555 1_555
C7QE C9SA 1_555 1_555
O8PD C11PD 1_555 1_555
C10PD C10SA 1_555 1_555
C11PD C12PD 1_555 1_555
C12PD C10PD 1_555 1_555
C13PD C13SA 1_555 1_555
O9PD C11PD 1_555 1_555
O10QE C15QE 1_555 1_555
C14QE C14SA 1_555 1_555
C15QE C16QE 1_555 1_555
C16QE C14QE 1_555 1_555
C17QE C17SA 1_555 1_555
O11QE C15QE 1_555 1_555
O16QE C26SA 1_555 1_555
O17QE C28SA 1_555 1_555
C30QE C27SA 1_555 1_555
C31QE C29SA 1_555 1_555
Cr1CD O10CD 1_555 1_555
Cr2BB O5CD 1_555 1_555
Cr3CD O21MA 1_555 1_555
Cr5GC O17CD 1_555 1_555
Cr7CD O19MA 1_555 1_555
O4CD Cr1CD 1_555 1_555
O8CD Cr7CD 1_555 1_555
O9CD Cr6MA 1_555 1_555
O12CD Cr1CD 1_555 1_555
O13CD Cr3CD 1_555 1_555
O14CD Cr4MA 1_555 1_555
O15CD Cr5GC 1_555 1_555
O18CD Cr6MA 1_555 1_555
O19CD Cr7MA 1_555 1_555
O20CD C36CD 1_555 1_555
O21CD Cr3MA 1_555 1_555
O22BB Cr2BB 1_555 1_555
O23CD Cr7CD 1_555 1_555
O25GC Cr5GC 1_555 1_555
O27CD Cr3CD 1_555 1_555
O28CD Cr1CD 1_555 1_555
C10CD C12CD 1_555 1_555
C11CD O8CD 1_555 1_555
C12CD C11CD 1_555 1_555
C13CD C12CD 1_555 1_555
C18CD C20CD 1_555 1_555
C19CD O12CD 1_555 1_555
C20CD C19CD 1_555 1_555
C21CD C18CD 1_555 1_555
C22CD O14CD 1_555 1_555
C23CD C21CD 1_555 1_555
C24CD C20CD 1_555 1_555
C25CD C23CD 1_555 1_555
C32CD C34CD 1_555 1_555
C33CD O18CD 1_555 1_555
C34CD C33CD 1_555 1_555
C35CD C32CD 1_555 1_555
C36CD O21CD 1_555 1_555
C37CD C35CD 1_555 1_555
C38CD C34CD 1_555 1_555
C39CD C37CD 1_555 1_555
O8BB C11BB 1_555 1_555
C10BB C10CD 1_555 1_555
C11BB C12BB 1_555 1_555
C12BB C10BB 1_555 1_555
C13BB C13CD 1_555 1_555
O9BB C11BB 1_555 1_555
Cr1PD O4PD 1_555 1_555
Cr3PD O4PD 1_555 1_555
Cr6FB O9PD 1_555 1_555
Cr7PD O8PD 1_555 1_555
O2FB Cr6FB 1_555 1_555
O4PD Cr1DF 1_555 1_555
O6PD Cr7PD 1_555 1_555
O7PD Cr2SA 1_555 1_555
O10PD Cr1PD 1_555 1_555
O11PD C15PD 1_555 1_555
O12PD Cr1PD 1_555 1_555
O13PD Cr3PD 1_555 1_555
O14PD Cr4 1_555 1_555
O15PD Cr5 1_555 1_555
O16PD Cr7PD 1_555 1_555
O17PD Cr5 1_555 1_555
O18PD Cr6FB 1_555 1_555
O19PD C33PD 1_555 1_555
O20PD C36PD 1_555 1_555
O21PD C36PD 1_555 1_555
O23PD Cr7PD 1_555 1_555
O24FB Cr6FB 1_555 1_555
O27PD Cr3PD 1_555 1_555
O28PD Cr1PD 1_555 1_555
C4PD C6FB 1_555 1_555
C5FB O6PD 1_555 1_555
C6FB C5FB 1_555 1_555
C7PD C4PD 1_555 1_555
C8FB O7PD 1_555 1_555
C9FB C7PD 1_555 1_555
C14PD C16PD 1_555 1_555
C15PD O10PD 1_555 1_555
C16PD C15PD 1_555 1_555
C17PD C16PD 1_555 1_555
C18PD C20PD 1_555 1_555
C19PD O12PD 1_555 1_555
C20PD C19PD 1_555 1_555
C21PD C18PD 1_555 1_555
C22PD O14PD 1_555 1_555
C23PD C21PD 1_555 1_555
C24PD C20PD 1_555 1_555
C25PD C23PD 1_555 1_555
C26FB O16PD 1_555 1_555
C27FB C26FB 1_555 1_555
C28FB O17PD 1_555 1_555
C29FB C28FB 1_555 1_555
C30PD C27FB 1_555 1_555
C31PD C29FB 1_555 1_555
C32PD C34PD 1_555 1_555
C33PD O18PD 1_555 1_555
C34PD C33PD 1_555 1_555
C35PD C32PD 1_555 1_555
C36PD C37PD 1_555 1_555
C37PD C35PD 1_555 1_555
C38PD C34PD 1_555 1_555
C39PD C37PD 1_555 1_555
O6FB C5FB 1_555 1_555
O7FB C8FB 1_555 1_555
C4FB C6FB 1_555 1_555
C7FB C9FB 1_555 1_555
O10FB C15FB 1_555 1_555
C14FB C14PD 1_555 1_555
C15FB C16FB 1_555 1_555
C16FB C14FB 1_555 1_555
C17FB C17PD 1_555 1_555
O11FB C15FB 1_555 1_555
O16FB C26FB 1_555 1_555
O17FB C28FB 1_555 1_555
C30FB C27FB 1_555 1_555
C31FB C29FB 1_555 1_555
Cr1WD O4WD 1_555 1_555
Cr3WD O4WD 1_555 1_555
Cr6GC O9WD 1_555 1_555
Cr7WD O8WD 1_555 1_555
O2GC Cr6GC 1_555 1_555
O4WD Cr1IF 1_555 1_555
O6WD Cr7WD 1_555 1_555
O7WD Cr2 1_555 1_555
O10WD Cr1WD 1_555 1_555
O11WD C15WD 1_555 1_555
O12WD Cr1WD 1_555 1_555
O13WD Cr3WD 1_555 1_555
O14WD Cr4MA 1_555 1_555
O15WD Cr5MA 1_555 1_555
O16WD Cr7WD 1_555 1_555
O17WD Cr5MA 1_555 1_555
O18WD Cr6GC 1_555 1_555
O19WD C33WD 1_555 1_555
O20WD C36WD 1_555 1_555
O21WD C36WD 1_555 1_555
O23WD Cr7WD 1_555 1_555
O24GC Cr6GC 1_555 1_555
O27WD Cr3WD 1_555 1_555
O28WD Cr1WD 1_555 1_555
C4WD C6GC 1_555 1_555
C5GC O6WD 1_555 1_555
C6GC C5GC 1_555 1_555
C7WD C4WD 1_555 1_555
C8GC O7WD 1_555 1_555
C9GC C7WD 1_555 1_555
C14WD C16WD 1_555 1_555
C15WD O10WD 1_555 1_555
C16WD C15WD 1_555 1_555
C17WD C16WD 1_555 1_555
C18WD C20WD 1_555 1_555
C19WD O12WD 1_555 1_555
C20WD C19WD 1_555 1_555
C21WD C18WD 1_555 1_555
C22WD O14WD 1_555 1_555
C23WD C21WD 1_555 1_555
C24WD C20WD 1_555 1_555
C25WD C23WD 1_555 1_555
C26GC O16WD 1_555 1_555
C27GC C26GC 1_555 1_555
C28GC O17WD 1_555 1_555
C29GC C28GC 1_555 1_555
C30WD C27GC 1_555 1_555
C31WD C29GC 1_555 1_555
C32WD C34WD 1_555 1_555
C33WD O18WD 1_555 1_555
C34WD C33WD 1_555 1_555
C35WD C32WD 1_555 1_555
C36WD C37WD 1_555 1_555
C37WD C35WD 1_555 1_555
C38WD C34WD 1_555 1_555
C39WD C37WD 1_555 1_555
O6GC C5GC 1_555 1_555
O7GC C8GC 1_555 1_555
C4GC C6GC 1_555 1_555
C7GC C9GC 1_555 1_555
O10GC C15GC 1_555 1_555
C14GC C14WD 1_555 1_555
C15GC C16GC 1_555 1_555
C16GC C14GC 1_555 1_555
C17GC C17WD 1_555 1_555
O11GC C15GC 1_555 1_555
O16GC C26GC 1_555 1_555
O17GC Cr5GC 1_555 1_555
C30GC C27GC 1_555 1_555
C31GC C29GC 1_555 1_555
Cr2FB O5FB 1_555 1_555
Cr7FE O8FE 1_555 1_555
O8FE C11FE 1_555 1_555
O9FE C11FE 1_555 1_555
O22FB Cr2FB 1_555 1_555
O23FE Cr7FE 1_555 1_555
C10FE C12FE 1_555 1_555
C11FE C12FE 1_555 1_555
C12FE C13FE 1_555 1_555
C13FE C13FB 1_555 1_555
O8FB C11FB 1_555 1_555
C10FB C10FE 1_555 1_555
C11FB C12FB 1_555 1_555
C12FB C10FB 1_555 1_555
C13FB C12FB 1_555 1_555
O9FB Cr6FB 1_555 1_555
Cr1JF O10JF 1_555 1_555
Cr7JF O19 1_555 1_555
O12JF Cr1JF 1_555 1_555
O13JF C19JF 1_555 1_555
O14JF Cr4 1_555 1_555
O15JF C22JF 1_555 1_555
O18JF Cr6 1_555 1_555
O19JF Cr7 1_555 1_555
O20JF Cr1J 1_555 1_555
O21JF Cr3 1_555 1_555
O23JF Cr7JF 1_555 1_555
O28JF Cr1JF 1_555 1_555
C18JF C20JF 1_555 1_555
C19JF O12JF 1_555 1_555
C20JF C19JF 1_555 1_555
C21JF C18JF 1_555 1_555
C22JF O14JF 1_555 1_555
C23JF C21JF 1_555 1_555
C24JF C20JF 1_555 1_555
C25JF C23JF 1_555 1_555
C32JF C34JF 1_555 1_555
C33JF O18JF 1_555 1_555
C34JF C33JF 1_555 1_555
C35JF C32JF 1_555 1_555
C36JF O20JF 1_555 1_555
C37JF C35JF 1_555 1_555
C38JF C34JF 1_555 1_555
C39JF C37JF 1_555 1_555
Cr1WF O12WF 1_555 1_555
Cr7WF O8WF 1_555 1_555
O12WF C19WF 1_555 1_555
O13WF C19WF 1_555 1_555
O14WF Cr4SA 1_555 1_555
O15WF Cr5SA 1_555 1_555
O23WF Cr7WF 1_555 1_555
O28WF Cr1WF 1_555 1_555
C18WF C20WF 1_555 1_555
C19WF C20WF 1_555 1_555
C20WF C24WF 1_555 1_555
C21WF C18WF 1_555 1_555
C22WF O14WF 1_555 1_555
C23WF C21WF 1_555 1_555
C24WF C25WF 1_555 1_555
C25WF C23WF 1_555 1_555
Cr1FB O10FB 1_555 1_555
Cr5FB O17JF 1_555 1_555
O12FB Cr1FB 1_555 1_555
O13FB C19FB 1_555 1_555
O14FB Cr4 1_555 1_555
O15FB Cr5FB 1_555 1_555
O25FB Cr5FB 1_555 1_555
O28FB Cr1FB 1_555 1_555
C18FB C20FB 1_555 1_555
C19FB O12FB 1_555 1_555
C20FB C19FB 1_555 1_555
C21FB C18FB 1_555 1_555
C22FB O14FB 1_555 1_555
C23FB C21FB 1_555 1_555
C24FB C20FB 1_555 1_555
C25FB C23FB 1_555 1_555
Cr1SE O20 1_555 1_555
O12SE Cr1SE 1_555 1_555
O13SE C19SE 1_555 1_555
O14SE C22SE 1_555 1_555
O15SE C22SE 1_555 1_555
O28SE Cr1SE 1_555 1_555
C18SE C20SE 1_555 1_555
C19SE O12SE 1_555 1_555
C20SE C19SE 1_555 1_555
C21SE C18SE 1_555 1_555
C22SE C23SE 1_555 1_555
C23SE C21SE 1_555 1_555
C24SE C20SE 1_555 1_555
C25SE C23SE 1_555 1_555
Cr1IF O11WD 1_555 1_555
O12IF Cr1IF 1_555 1_555
O13IF Cr3WD 1_555 1_555
O14IF C22IF 1_555 1_555
O15IF Cr5J 1_555 1_555
O28IF Cr1IF 1_555 1_555
C18IF C20IF 1_555 1_555
C19IF O12IF 1_555 1_555
C20IF C19IF 1_555 1_555
C21IF C18IF 1_555 1_555
C22IF O15IF 1_555 1_555
C23IF C21IF 1_555 1_555
C24IF C20IF 1_555 1_555
C25IF C23IF 1_555 1_555
O18GE Cr6J 1_555 1_555
O19GE Cr7J 1_555 1_555
O20GE Cr1 1_555 1_555
O21GE Cr3 1_555 1_555
C32GE C34GE 1_555 1_555
C33GE O18GE 1_555 1_555
C34GE C33GE 1_555 1_555
C35GE C32GE 1_555 1_555
C36GE O20GE 1_555 1_555
C37GE C35GE 1_555 1_555
C38GE C34GE 1_555 1_555
C39GE C37GE 1_555 1_555
O18YD C33YD 1_555 1_555
O19YD C33YD 1_555 1_555
O20YD Cr1MA 1_555 1_555
O21YD Cr3MA 1_555 1_555
C32YD C34YD 1_555 1_555
C33YD C34YD 1_555 1_555
C34YD C38YD 1_555 1_555
C35YD C32YD 1_555 1_555
C36YD O20YD 1_555 1_555
C37YD C35YD 1_555 1_555
C38YD C39YD 1_555 1_555
C39YD C37YD 1_555 1_555
O18DD C33DD 1_555 1_555
O19DD C33DD 1_555 1_555
O20DD Cr1SA 1_555 1_555
O21DD Cr3SA 1_555 1_555
C32DD C34DD 1_555 1_555
C33DD C34DD 1_555 1_555
C34DD C38DD 1_555 1_555
C35DD C32DD 1_555 1_555
C36DD O20DD 1_555 1_555
C37DD C35DD 1_555 1_555
C38DD C39DD 1_555 1_555
C39DD C37DD 1_555 1_555
O18QE Cr6SA 1_555 1_555
O19QE Cr7SA 1_555 1_555
O20QE C36QE 1_555 1_555
O21QE Cr3SA 1_555 1_555
C32QE C34QE 1_555 1_555
C33QE O18QE 1_555 1_555
C34QE C33QE 1_555 1_555
C35QE C32QE 1_555 1_555
C36QE O21QE 1_555 1_555
C37QE C35QE 1_555 1_555
C38QE C34QE 1_555 1_555
C39QE C37QE 1_555 1_555
Cr7GE O19J 1_555 1_555
O23GE Cr7GE 1_555 1_555
Cr7DF O8DF 1_555 1_555
O23DF Cr7DF 1_555 1_555
Cr1R O20WD 1_555 1_555
Cr1PA O11MA 1_555 1_555
Cr1DB O11SA 1_555 1_555
Cr1EB O20PD 1_555 1_555
Cr1GC O10GC 1_555 1_555
Cr1DE O20J 1_555 1_555
Cr1GE O10GE 1_555 1_555
Cr1QE O10QE 1_555 1_555
Cr1RE O20SA 1_555 1_555
Cr1DF O11PD 1_555 1_555
Cr1KF O20MA 1_555 1_555
Cr2HA O5QE 1_555 1_555
Cr2RA O7GE 1_555 1_555
Cr2VA O5JF 1_555 1_555
Cr2NB O1MA 1_555 1_555
Cr2GC O1 1_555 1_555
Cr3R O21WD 1_555 1_555
Cr3EB O21PD 1_555 1_555
Cr3DE O21J 1_555 1_555
Cr3QE O21SA 1_555 1_555
Cr3SE O21 1_555 1_555
Cr3MF O13WF 1_555 1_555
Cr4J O14J 1_555 1_555
Cr4O O14SE 1_555 1_555
Cr5O O15SE 1_555 1_555
Cr5Z O17GE 1_555 1_555
Cr5NB O17QE 1_555 1_555
Cr6HA O9FE 1_555 1_555
Cr6PA O18YD 1_555 1_555
Cr6BB O9BB 1_555 1_555
Cr6DB O18DD 1_555 1_555
Cr6NB O9WF 1_555 1_555
Cr6FC O9DF 1_555 1_555
Cr7PA O19YD 1_555 1_555
Cr7BB O8BB 1_555 1_555
Cr7DB O19DD 1_555 1_555
Cr7FB O2FB 1_555 1_555
Cr7GC O2GC 1_555 1_555
Cr7QE O19SA 1_555 1_555
O1J Cr2J 1_555 1_555
O1HA Cr2SA 1_555 1_555
O2HA Cr7FE 1_555 1_555
O2NB Cr7WF 1_555 1_555
O2FC Cr7DF 1_555 1_555
O3J Cr5J 1_555 1_555
O4EB Cr1FB 1_555 1_555
O4SE Cr1JF 1_555 1_555
O4MF Cr1WF 1_555 1_555
O5J Cr2J 1_555 1_555
O5BB Cr2BB 1_555 1_555
O5FE Cr2FB 1_555 1_555
O5DF Cr2J 1_555 1_555
O6FE Cr7FE 1_555 1_555
O6DF Cr7DF 1_555 1_555
O6WF Cr7WF 1_555 1_555
O7BB Cr2BB 1_555 1_555
O7FE Cr2FB 1_555 1_555
O7DF Cr2J 1_555 1_555
O7WF Cr2MA 1_555 1_555
O8GE Cr7GE 1_555 1_555
O8JF Cr7JF 1_555 1_555
O9GC Cr6GC 1_555 1_555
O9GE Cr6J 1_555 1_555
O9QE Cr6SA 1_555 1_555
O9JF Cr6 1_555 1_555
O10SE Cr1SE 1_555 1_555
O10IF Cr1IF 1_555 1_555
O10WF Cr1WF 1_555 1_555
O11PA Cr1MA 1_555 1_555
O11DB Cr1SA 1_555 1_555
O11EB Cr1FB 1_555 1_555
O11SE Cr1JF 1_555 1_555
O11DF Cr1PD 1_555 1_555
O11IF Cr1WD 1_555 1_555
O11KF Cr1CD 1_555 1_555
O11MF Cr1WF 1_555 1_555
O13PA Cr3MA 1_555 1_555
O13DB Cr3SA 1_555 1_555
O13DF Cr3PD 1_555 1_555
O13KF Cr3CD 1_555 1_555
O14NB Cr4SA 1_555 1_555
O14GC Cr4MA 1_555 1_555
O14QE Cr4SA 1_555 1_555
O15GC Cr5GC 1_555 1_555
O16FE Cr7FE 1_555 1_555
O16DF Cr7DF 1_555 1_555
O16WF Cr7WF 1_555 1_555
O17IF Cr5J 1_555 1_555
O17WF Cr5SA 1_555 1_555
O18FB Cr6FB 1_555 1_555
O18GC Cr6GC 1_555 1_555
O19HA Cr7FE 1_555 1_555
O19FB Cr7PD 1_555 1_555
O19NB Cr7WF 1_555 1_555
O19FC Cr7DF 1_555 1_555
O19GC Cr7WD 1_555 1_555
O20Z Cr1WD 1_555 1_555
O20LA Cr1JF 1_555 1_555
O20TA Cr1WF 1_555 1_555
O20BC Cr1CD 1_555 1_555
O20FC Cr1PD 1_555 1_555
O20GC Cr1IF 1_555 1_555
O20HG Cr1FB 1_555 1_555
O21Z Cr3WD 1_555 1_555
O21FB Cr3PD 1_555 1_555
O21BC Cr3CD 1_555 1_555
O21FC Cr3PD 1_555 1_555
O21GC Cr3WD 1_555 1_555
O9 C11 1_555 1_555
O13 C19 1_555 1_555
O15 C22 1_555 1_555
C8 C9 1_555 1_555
C22 C23 1_555 1_555
C24 C25 1_555 1_555
C30 C31 1_555 1_555
C38 C39 1_555 1_555
C1JF C1FB 1_555 1_555
O6JF Cr7JF 1_555 1_555
O7JF Cr2VA 1_555 1_555
C4JF C7JF 1_555 1_555
C12WD C13WD 1_555 1_555
C16JF C17JF 1_555 1_555
O11JF Cr1SE 1_555 1_555
O16JF Cr7JF 1_555 1_555
C30JF C31JF 1_555 1_555
O9J C11J 1_555 1_555
O11J C15J 1_555 1_555
O13J C19J 1_555 1_555
C24J C25J 1_555 1_555
C30J C31J 1_555 1_555
C38J C39J 1_555 1_555
O6GE Cr7GE 1_555 1_555
C4GE C7GE 1_555 1_555
C12DF C13DF 1_555 1_555
C16GE C17GE 1_555 1_555
O11GE Cr1DE 1_555 1_555
O16GE Cr7GE 1_555 1_555
C30GE C31GE 1_555 1_555
O9MA C11MA 1_555 1_555
O13MA C19MA 1_555 1_555
O15MA C22MA 1_555 1_555
C8MA C9MA 1_555 1_555
C22MA C23MA 1_555 1_555
C24MA C25MA 1_555 1_555
C30MA C31MA 1_555 1_555
C38MA C39MA 1_555 1_555
C2GC C3GC 1_555 1_555
C1CD C1GC 1_555 1_555
O5GC Cr2GC 1_555 1_555
O6CD Cr7CD 1_555 1_555
O7CD Cr2BB 1_555 1_555
C4CD C7CD 1_555 1_555
C12WF C13WF 1_555 1_555
C16CD C17CD 1_555 1_555
O11CD Cr1KF 1_555 1_555
O16CD Cr7CD 1_555 1_555
C30CD C31CD 1_555 1_555
O9SA C11SA 1_555 1_555
O13SA C19SA 1_555 1_555
O15SA C22SA 1_555 1_555
C8SA C9SA 1_555 1_555
C22SA C23SA 1_555 1_555
C24SA C25SA 1_555 1_555
C30SA C31SA 1_555 1_555
C38SA C39SA 1_555 1_555
C2NB C3NB 1_555 1_555
C1QE C1NB 1_555 1_555
O5NB Cr2NB 1_555 1_555
O6QE Cr7QE 1_555 1_555
O7QE Cr2HA 1_555 1_555
C4QE C7QE 1_555 1_555
C12PD C13PD 1_555 1_555
C16QE C17QE 1_555 1_555
O11QE Cr1RE 1_555 1_555
O16QE Cr7QE 1_555 1_555
C30QE C31QE 1_555 1_555
Cr3CD O4CD 1_555 1_555
O4CD Cr1KF 1_555 1_555
O9CD C11CD 1_555 1_555
O13CD C19CD 1_555 1_555
O15CD C22CD 1_555 1_555
O19CD C33CD 1_555 1_555
O20CD Cr1PA 1_555 1_555
C22CD C23CD 1_555 1_555
C24CD C25CD 1_555 1_555
C36CD C37CD 1_555 1_555
C38CD C39CD 1_555 1_555
C12BB C13BB 1_555 1_555
Cr7PD O2FB 1_555 1_555
O13PD C19PD 1_555 1_555
O15PD C22PD 1_555 1_555
O19PD Cr7FB 1_555 1_555
C8FB C9FB 1_555 1_555
C22PD C23PD 1_555 1_555
C24PD C25PD 1_555 1_555
C30PD C31PD 1_555 1_555
C38PD C39PD 1_555 1_555
O6FB Cr7FB 1_555 1_555
O7FB Cr2FB 1_555 1_555
C4FB C7FB 1_555 1_555
C16FB C17FB 1_555 1_555
O11FB Cr1EB 1_555 1_555
O16FB Cr7FB 1_555 1_555
O17FB Cr5FB 1_555 1_555
C30FB C31FB 1_555 1_555
Cr7WD O2GC 1_555 1_555
O13WD C19WD 1_555 1_555
O15WD C22WD 1_555 1_555
O19WD Cr7GC 1_555 1_555
C8GC C9GC 1_555 1_555
C22WD C23WD 1_555 1_555
C24WD C25WD 1_555 1_555
C28GC O17GC 1_555 1_555
C30WD C31WD 1_555 1_555
C38WD C39WD 1_555 1_555
O6GC Cr7GC 1_555 1_555
O7GC Cr2GC 1_555 1_555
C4GC C7GC 1_555 1_555
C16GC C17GC 1_555 1_555
O11GC Cr1R 1_555 1_555
O16GC Cr7GC 1_555 1_555
C30GC C31GC 1_555 1_555
Cr2FB O1HA 1_555 1_555
O8FB Cr7FB 1_555 1_555
C11FB O9FB 1_555 1_555
O13JF Cr3SE 1_555 1_555
O15JF Cr5FB 1_555 1_555
O19JF C33JF 1_555 1_555
O21JF C36JF 1_555 1_555
C22JF C23JF 1_555 1_555
C24JF C25JF 1_555 1_555
C36JF C37JF 1_555 1_555
C38JF C39JF 1_555 1_555
O15WF C22WF 1_555 1_555
C22WF C23WF 1_555 1_555
O13FB Cr3EB 1_555 1_555
O15FB C22FB 1_555 1_555
C22FB C23FB 1_555 1_555
C24FB C25FB 1_555 1_555
Cr1SE O4SE 1_555 1_555
O13SE Cr3SE 1_555 1_555
C24SE C25SE 1_555 1_555
O13IF C19IF 1_555 1_555
O14IF Cr4J 1_555 1_555
C22IF C23IF 1_555 1_555
C24IF C25IF 1_555 1_555
O19GE C33GE 1_555 1_555
O21GE C36GE 1_555 1_555
C36GE C37GE 1_555 1_555
C38GE C39GE 1_555 1_555
O21YD C36YD 1_555 1_555
C36YD C37YD 1_555 1_555
O21DD C36DD 1_555 1_555
C36DD C37DD 1_555 1_555
O19QE C33QE 1_555 1_555
O20QE Cr1DB 1_555 1_555
C36QE C37QE 1_555 1_555
C38QE C39QE 1_555 1_555
Cr1EB O4EB 1_555 1_555
Cr2HA O1HA 1_555 1_555
Cr2RA O1J 1_555 1_555
Cr3EB O4EB 1_555 1_555
Cr3SE O4SE 1_555 1_555
Cr3MF O4MF 1_555 1_555
Cr4J O3J 1_555 1_555
Cr5Z O3J 1_555 1_555
Cr6HA O2HA 1_555 1_555
Cr6NB O2NB 1_555 1_555
Cr6FC O2FC 1_555 1_555

#END
