
#######################################################################
#
#                 Cambridge Crystallographic Data Centre
#                                CCDC 
#
#######################################################################
#
# If this CIF has been generated from an entry in the Cambridge 
# Structural Database, then it will include bibliographic, chemical, 
# crystal, experimental, refinement or atomic coordinate data resulting 
# from the CCDC's data processing and validation procedures.
#
#######################################################################

data_OCUPEI
_symmetry_cell_setting           orthorhombic
_symmetry_space_group_name_H-M   'P 21 21 21'
_symmetry_Int_Tables_number      19
_space_group_name_Hall           'P 2ac 2ab'
loop_
_symmetry_equiv_pos_site_id
_symmetry_equiv_pos_as_xyz
1 x,y,z
2 1/2-x,-y,1/2+z
3 1/2+x,1/2-y,-z
4 -x,1/2+y,1/2-z
_cell_length_a                   9.1967(6)
_cell_length_b                   10.3605(7)
_cell_length_c                   39.933(4)
_cell_angle_alpha                90
_cell_angle_beta                 90
_cell_angle_gamma                90
_cell_volume                     3804.91
loop_
_atom_site_label
_atom_site_type_symbol
_atom_site_fract_x
_atom_site_fract_y
_atom_site_fract_z
C1 C -0.0110(7) -0.3047(5) -0.42637(13)
H1 H 0.0642 -0.3508 -0.4375
C2 C -0.0094(7) -0.3016(5) -0.39189(13)
H2 H 0.0621 -0.3487 -0.3798
C3 C -0.1126(9) -0.2297(6) -0.37485(13)
C4 C -0.2166(7) -0.1665(5) -0.39385(12)
H3 H -0.2894 -0.1157 -0.3833
C5 C -0.2133(7) -0.1782(5) -0.42842(12)
H4 H -0.2865 -0.1356 -0.4410
C6 C -0.1185(9) -0.2271(6) -0.33729(13)
H5 H -0.1691 -0.1485 -0.3294
H6 H -0.0190 -0.2280 -0.3278
C7 C -0.1551(8) -0.3967(6) -0.28389(13)
C8 C -0.0702(8) -0.4962(6) -0.27527(13)
H7 H -0.0370 -0.5558 -0.2916
C9 C -0.1155(8) -0.3752(5) -0.22040(12)
C10 C -0.1162(7) -0.3358(6) -0.18841(12)
C11 C -0.0949(7) -0.3245(5) -0.12415(12)
C12 C -0.1500(8) -0.2739(6) -0.05819(13)
H8 H -0.2515 -0.3057 -0.0575
H9 H -0.1108 -0.2782 -0.0351
C13 C -0.1508(7) -0.1349(6) -0.06940(13)
H10 H -0.0495 -0.1069 -0.0736
H11 H -0.1905 -0.0806 -0.0511
C14 C -0.1766(7) -0.2234(5) -0.13255(13)
C15 C -0.0456(8) -0.1721(6) -0.57629(12)
H12 H 0.0038 -0.1049 -0.5648
C16 C -0.0451(7) -0.1705(5) -0.61067(13)
H13 H 0.0032 -0.1031 -0.6223
C17 C -0.1156(8) -0.2680(5) -0.62842(14)
C18 C -0.1826(7) -0.3638(5) -0.60961(12)
H14 H -0.2302 -0.4333 -0.6206
C19 C -0.1803(7) -0.3585(5) -0.57506(12)
H15 H -0.2286 -0.4243 -0.5628
C20 C -0.1148(9) -0.2713(6) -0.66589(13)
H16 H -0.1583 -0.3528 -0.6740
H17 H -0.0139 -0.2655 -0.6744
C21 C -0.1562(7) -0.1131(6) -0.72126(13)
C22 C -0.0805(7) -0.0099(6) -0.73069(13)
H18 H -0.0522 0.0534 -0.7148
C23 C -0.1196(7) -0.1372(5) -0.78501(12)
C24 C -0.1189(8) -0.1766(6) -0.81685(13)
C25 C -0.1013(7) -0.1869(5) -0.88124(12)
C26 C -0.0810(7) -0.2782(6) -0.94504(13)
H19 H -0.0709 -0.2583 -0.9692
H20 H -0.0029 -0.3397 -0.9390
C27 C -0.2262(7) -0.3417(6) -0.93925(12)
H21 H -0.2400 -0.4097 -0.9564
H22 H -0.3035 -0.2765 -0.9426
C28 C -0.1741(7) -0.2948(6) -0.87256(13)
C29 C -0.1463(7) 0.0503(5) -0.49020(13)
H23 H -0.1888 0.1258 -0.5013
H24 H -0.0405 0.0514 -0.4931
H25 H -0.1697 0.0526 -0.4663
Cl1 Cl -0.36732(15) -0.34365(11) -0.49906(3)
Cl2 Cl -0.02290(15) -0.49554(11) -0.50102(3)
Mn1 Mn -0.10972(9) -0.26681(7) -0.50152(2)
N1 N -0.1118(7) -0.2469(4) -0.44511(12)
N2 N -0.1124(7) -0.2639(4) -0.55804(11)
O1 O -0.2048(4) -0.0651(3) -0.50474(8)
H26 H -0.2926 -0.0562 -0.5170
S1 S -0.2181(2) -0.37151(15) -0.32457(3)
S2 S -0.0223(2) -0.51384(16) -0.23357(4)
S3 S -0.0213(2) -0.41761(15) -0.15665(4)
S4 S -0.0449(2) -0.37933(16) -0.08447(3)
S5 S -0.2567(2) -0.10891(15) -0.10667(3)
S6 S -0.2045(2) -0.19544(16) -0.17549(4)
S7 S -0.2075(2) -0.29108(17) -0.25204(3)
S8 S -0.2212(2) -0.13346(15) -0.68044(3)
S9 S -0.0347(2) 0.00727(16) -0.77245(3)
S10 S -0.0340(2) -0.09000(15) -0.84904(3)
S11 S -0.0569(2) -0.13117(15) -0.92126(3)
S12 S -0.2489(2) -0.41329(14) -0.89845(4)
S13 S -0.1978(2) -0.32254(15) -0.82969(3)
S14 S -0.2013(2) -0.22477(16) -0.75243(3)
Cl1B Cl 0.13268(15) -0.15635(11) -0.50094(3)
Mn1B Mn -0.60972(9) -0.23319(7) -0.49848(2)
loop_
_geom_bond_atom_site_label_1
_geom_bond_atom_site_label_2
_geom_bond_site_symmetry_1
_geom_bond_site_symmetry_2
C1 H1 1_555 1_555
C2 C1 1_555 1_555
H2 C2 1_555 1_555
C3 C2 1_555 1_555
C4 C3 1_555 1_555
H3 C4 1_555 1_555
C5 C4 1_555 1_555
H4 C5 1_555 1_555
C6 C3 1_555 1_555
H5 C6 1_555 1_555
H6 C6 1_555 1_555
C7 C8 1_555 1_555
C8 H7 1_555 1_555
C9 C10 1_555 1_555
C10 S3 1_555 1_555
C11 C14 1_555 1_555
C12 H8 1_555 1_555
H9 C12 1_555 1_555
C13 C12 1_555 1_555
H10 C13 1_555 1_555
H11 C13 1_555 1_555
C14 S5 1_555 1_555
C15 H12 1_555 1_555
C16 C15 1_555 1_555
H13 C16 1_555 1_555
C17 C16 1_555 1_555
C18 C17 1_555 1_555
H14 C18 1_555 1_555
C19 C18 1_555 1_555
H15 C19 1_555 1_555
C20 C17 1_555 1_555
H16 C20 1_555 1_555
H17 C20 1_555 1_555
C21 C22 1_555 1_555
C22 H18 1_555 1_555
C23 C24 1_555 1_555
C24 S10 1_555 1_555
C25 C28 1_555 1_555
C26 H19 1_555 1_555
H20 C26 1_555 1_555
C27 C26 1_555 1_555
H21 C27 1_555 1_555
H22 C27 1_555 1_555
C28 S12 1_555 1_555
C29 H23 1_555 1_555
H24 C29 1_555 1_555
H25 C29 1_555 1_555
Cl1 Mn1 1_555 1_555
Cl2 Mn1 1_555 1_555
Mn1 N1 1_555 1_555
N1 C1 1_555 1_555
N2 C15 1_555 1_555
O1 C29 1_555 1_555
H26 O1 1_555 1_555
S1 C6 1_555 1_555
S2 C8 1_555 1_555
S3 C11 1_555 1_555
S4 C11 1_555 1_555
S5 C13 1_555 1_555
S6 C10 1_555 1_555
S7 C7 1_555 1_555
S8 C20 1_555 1_555
S9 C22 1_555 1_555
S10 C25 1_555 1_555
S11 C25 1_555 1_555
S12 C27 1_555 1_555
S13 C24 1_555 1_555
S14 C21 1_555 1_555
Cl1B Mn1 1_555 1_555
Mn1B Cl1 1_555 1_555
C5 N1 1_555 1_555
C7 S1 1_555 1_555
C9 S2 1_555 1_555
C9 S7 1_555 1_555
C12 S4 1_555 1_555
C14 S6 1_555 1_555
C19 N2 1_555 1_555
C21 S8 1_555 1_555
C23 S9 1_555 1_555
C23 S14 1_555 1_555
C26 S11 1_555 1_555
C28 S13 1_555 1_555
Mn1 N2 1_555 1_555
Mn1 O1 1_555 1_555

#END
