
#######################################################################
#
#                 Cambridge Crystallographic Data Centre
#                                CCDC 
#
#######################################################################
#
# If this CIF has been generated from an entry in the Cambridge 
# Structural Database, then it will include bibliographic, chemical, 
# crystal, experimental, refinement or atomic coordinate data resulting 
# from the CCDC's data processing and validation procedures.
#
#######################################################################

data_OCUPOS
_symmetry_cell_setting           orthorhombic
_symmetry_space_group_name_H-M   'C m c m'
_symmetry_Int_Tables_number      63
_space_group_name_Hall           '-C 2n 2'
loop_
_symmetry_equiv_pos_site_id
_symmetry_equiv_pos_as_xyz
1 x,y,z
2 1/2+x,1/2+y,z
3 -x,-y,1/2+z
4 -x,y,1/2-z
5 x,-y,-z
6 1/2-x,1/2-y,1/2+z
7 1/2-x,1/2+y,1/2-z
8 1/2+x,1/2-y,-z
9 -x,-y,-z
10 1/2-x,1/2-y,-z
11 x,y,1/2-z
12 x,-y,1/2+z
13 -x,y,z
14 1/2+x,1/2+y,1/2-z
15 1/2+x,1/2-y,1/2+z
16 1/2-x,1/2+y,z
_cell_length_a                   7.4362(5)
_cell_length_b                   19.1491(12)
_cell_length_c                   9.3446(6)
_cell_angle_alpha                90
_cell_angle_beta                 90
_cell_angle_gamma                90
_cell_volume                     1330.64
loop_
_atom_site_label
_atom_site_type_symbol
_atom_site_fract_x
_atom_site_fract_y
_atom_site_fract_z
V1 V 0.20583(8) 0.25889(3) -0.2500
P1 P 0.0000 0.18052(4) -0.51552(9)
O1 O 0.0000 0.23467(12) -0.3901(3)
O2 O 0.1724(2) 0.18772(9) -0.60042(18)
O3 O 0.0000 -0.3486(2) -0.7500
O4 O 0.3053(3) 0.18516(14) -0.2500
C1 C 0.0000 0.09621(17) -0.4359(4)
H1 H 0.1073 0.0923 -0.3737
H2 H -0.1073 0.0923 -0.3737
C2 C 0.0000 0.03485(17) -0.5399(4)
H3 H 0.1077 0.0376 -0.6019
H4 H -0.1077 0.0376 -0.6019
H5 H 0.0000 -0.370(3) -0.807(6)
V1H V -0.20583(8) -0.25889(3) -0.7500
V1L V -0.20583(8) 0.25889(3) -0.2500
V1I V 0.29417(8) 0.24111(3) -0.7500
V1N V -0.29417(8) 0.24111(3) -0.7500
V1K V 0.20583(8) -0.25889(3) -0.7500
V1A V -0.29417(8) -0.24111(3) -0.2500
V1O V 0.29417(8) -0.24111(3) -0.2500
P1H P 0.0000 -0.18052(4) -0.48448(9)
O1H O 0.0000 -0.23467(12) -0.6099(3)
O1J O 0.0000 0.23467(12) -0.1099(3)
O1K O 0.0000 -0.23467(12) -0.8901(3)
O2L O -0.1724(2) 0.18772(9) -0.60042(18)
O2H O -0.1724(2) -0.18772(9) -0.39958(18)
O2D O 0.1724(2) -0.18772(9) -0.39958(18)
O2I O 0.3276(2) 0.31228(9) -0.39958(18)
O2E O 0.3276(2) 0.31228(9) -0.10042(18)
O2A O -0.3276(2) -0.31228(9) -0.60042(18)
O2M O -0.3276(2) -0.31228(9) -0.89958(18)
O3K O 0.0000 0.3486(2) -0.2500
O4H O -0.3053(3) -0.18516(14) -0.7500
C1H C 0.0000 -0.09621(17) -0.5641(4)
H1H H -0.1073 -0.0923 -0.6263
H1D H 0.1073 -0.0923 -0.6263
C2H C 0.0000 -0.03485(17) -0.4601(4)
H3H H -0.1077 -0.0376 -0.3981
H3D H 0.1077 -0.0376 -0.3981
H5H H 0.0000 0.370(3) -0.193(6)
H5K H 0.0000 0.370(3) -0.307(6)
H5J H 0.0000 -0.370(3) -0.693(6)
O5 O 0.0000 0.3999(4) -0.5241(6)
O7 O 0.0000 0.528(3) -0.2500
O6? O 0.0000 0.4456(11) -0.463(2)
loop_
_geom_bond_atom_site_label_1
_geom_bond_atom_site_label_2
_geom_bond_site_symmetry_1
_geom_bond_site_symmetry_2
V1 O1 1_555 1_555
P1 O1 1_555 1_555
O1 V1L 1_555 1_555
O2 P1 1_555 1_555
O3 H5 1_555 1_555
O4 V1 1_555 1_555
C1 P1 1_555 1_555
H1 C1 1_555 1_555
H2 C1 1_555 1_555
C2 C1 1_555 1_555
H3 C2 1_555 1_555
H4 C2 1_555 1_555
V1H O3 1_555 1_555
V1L O1J 1_555 1_555
V1I O2 1_555 1_555
V1N O2L 1_555 1_555
V1K O3 1_555 1_555
V1A O2H 1_555 1_555
V1O O2D 1_555 1_555
P1H O1H 1_555 1_555
O1H V1H 1_555 1_555
O1J V1 1_555 1_555
O1K V1H 1_555 1_555
O2L P1 1_555 1_555
O2H P1H 1_555 1_555
O2D P1H 1_555 1_555
O2I V1 1_555 1_555
O2E V1 1_555 1_555
O2A V1H 1_555 1_555
O2M V1H 1_555 1_555
O3K V1 1_555 1_555
O4H V1H 1_555 1_555
C1H P1H 1_555 1_555
H1H C1H 1_555 1_555
H1D C1H 1_555 1_555
C2H C2 1_555 1_555
H3H C2H 1_555 1_555
H3D C2H 1_555 1_555
H5H O3K 1_555 1_555
H5K O3K 1_555 1_555
H5J O3 1_555 1_555
V1L O3K 1_555 1_555
V1K O1H 1_555 1_555
V1K O1K 1_555 1_555
C1H C2H 1_555 1_555

#END
