
#######################################################################
#
#                 Cambridge Crystallographic Data Centre
#                                CCDC 
#
#######################################################################
#
# If this CIF has been generated from an entry in the Cambridge 
# Structural Database, then it will include bibliographic, chemical, 
# crystal, experimental, refinement or atomic coordinate data resulting 
# from the CCDC's data processing and validation procedures.
#
#######################################################################

data_OCURAG
_symmetry_cell_setting           monoclinic
_symmetry_space_group_name_H-M   'C 2/c'
_symmetry_Int_Tables_number      15
_space_group_name_Hall           '-C 2yn'
loop_
_symmetry_equiv_pos_site_id
_symmetry_equiv_pos_as_xyz
1 x,y,z
2 1/2+x,1/2+y,z
3 -x,y,1/2-z
4 1/2-x,1/2+y,1/2-z
5 -x,-y,-z
6 1/2-x,1/2-y,-z
7 x,-y,1/2+z
8 1/2+x,1/2-y,1/2+z
_cell_length_a                   15.6403(11)
_cell_length_b                   10.2112(7)
_cell_length_c                   18.6795(14)
_cell_angle_alpha                90
_cell_angle_beta                 105.4840(10)
_cell_angle_gamma                90
_cell_volume                     2874.96
loop_
_atom_site_label
_atom_site_type_symbol
_atom_site_fract_x
_atom_site_fract_y
_atom_site_fract_z
V1 V 0.16504(4) 0.38063(6) 0.08450(3)
V2 V 0.24827(4) 0.45311(6) 0.28748(3)
P1 P 0.20739(7) 0.37992(9) -0.07875(5)
P2 P -0.16413(6) 0.33230(9) -0.16281(5)
O1 O 0.2074(2) 0.4273(3) -0.00107(15)
O2 O 0.28866(19) 0.2986(3) -0.07871(15)
O3 O 0.0607(2) 0.3543(3) 0.05918(18)
O4 O -0.1716(2) 0.4288(3) -0.10203(14)
O5 O 0.2117(2) 0.3571(3) 0.19244(16)
O6 O -0.1758(2) 0.3985(3) -0.23814(15)
O7 O 0.3460(2) 0.5075(3) 0.29949(19)
O8 O -0.23115(18) 0.2223(3) -0.16566(15)
O9 O 0.20363(19) 0.5034(3) -0.12641(14)
C2 C 0.1100(3) 0.2824(4) -0.1147(2)
H6 H 0.1136 0.2427 -0.1622
H7 H 0.1099 0.2101 -0.0795
C3 C -0.0553(3) 0.2612(4) -0.1385(2)
H8 H -0.0518 0.1977 -0.1776
H9 H -0.0476 0.2115 -0.0917
C4 C 0.0218(3) 0.3569(4) -0.1284(2)
H10 H 0.0131 0.4120 -0.1733
H11 H 0.0234 0.4151 -0.0856
H16 H 0.217(4) 0.290(7) 0.196(4)
V1E V 0.33496(4) 0.11937(6) -0.08450(3)
V1D V -0.16504(4) 0.61937(6) -0.08450(3)
V1A V 0.66504(4) -0.11937(6) 0.08450(3)
V2D V -0.24827(4) 0.54689(6) -0.28748(3)
V2G V -0.25173(4) 0.04689(6) -0.21252(3)
V2F V 0.24827(4) 0.54689(6) -0.21252(3)
V2A V 0.74827(4) -0.04689(6) 0.28748(3)
V2B V 0.75173(4) 0.45311(6) 0.21252(3)
V2C V 0.25173(4) -0.04689(6) 0.21252(3)
V2E V 0.25173(4) 0.04689(6) -0.28748(3)
P1E P 0.29261(7) 0.12008(9) 0.07875(5)
P2E P 0.66413(6) 0.16770(9) 0.16281(5)
O1E O 0.2926(2) 0.0727(3) 0.00107(15)
O2E O 0.21134(19) 0.2014(3) 0.07871(15)
O3E O 0.4393(2) 0.1457(3) -0.05918(18)
O4E O 0.6716(2) 0.0712(3) 0.10203(14)
O4D O 0.1716(2) 0.5712(3) 0.10203(14)
O4A O 0.3284(2) -0.0712(3) -0.10203(14)
O5E O 0.2883(2) 0.1429(3) -0.19244(16)
O5D O -0.2117(2) 0.6429(3) -0.19244(16)
O6E O 0.6758(2) 0.1015(3) 0.23814(15)
O6D O 0.1758(2) 0.6015(3) 0.23814(15)
O7D O -0.3460(2) 0.4925(3) -0.29949(19)
O8E O 0.73115(18) 0.2777(3) 0.16566(15)
O8G O 0.26885(18) 0.2777(3) 0.33434(15)
O8C O -0.26885(18) 0.7223(3) -0.33434(15)
O9E O 0.29637(19) -0.0034(3) 0.12641(14)
O9F O 0.20363(19) 0.4966(3) 0.37359(14)
O9B O -0.20363(19) 0.5034(3) -0.37359(14)
C2E C 0.3900(3) 0.2176(4) 0.1147(2)
H6E H 0.3864 0.2573 0.1622
H7E H 0.3901 0.2899 0.0795
C3E C 0.5553(3) 0.2388(4) 0.1385(2)
H8E H 0.5518 0.3023 0.1776
H9E H 0.5476 0.2885 0.0917
C4E C 0.4782(3) 0.1431(4) 0.1284(2)
H10E H 0.4869 0.0880 0.1733
H11E H 0.4766 0.0849 0.0856
H16E H 0.283(4) 0.210(7) -0.196(4)
H16D H -0.217(4) 0.710(7) -0.196(4)
O10 O 0.5626(10) 0.5383(13) 0.0310(9)
N1 N 0.3611(8) 0.8064(6) 0.0428(4)
H1 H 0.3009 0.7994 0.0275
H2 H 0.3814 0.8416 0.0057
H3 H 0.3767 0.8590 0.0835
C1 C 0.410(2) 0.6444(17) 0.0662(13)
H4 H 0.3658 0.5774 0.0417
H5 H 0.4619 0.6357 0.0462
C5 C 0.4404(10) 0.6150(10) 0.1565(11)
H12 H 0.3875 0.5880 0.1724
H13 H 0.4824 0.5404 0.1659
C6 C 0.4831(9) 0.7274(11) 0.2035(7)
H14 H 0.4413 0.8017 0.1896
H15 H 0.5358 0.7507 0.1863
N1B N 0.6389(8) 0.8064(6) 0.4572(4)
H1B H 0.6991 0.7994 0.4725
H2B H 0.6186 0.8416 0.4943
H3B H 0.6233 0.8590 0.4165
C1B C 0.590(2) 0.6444(17) 0.4338(13)
H4B H 0.6342 0.5774 0.4583
H5B H 0.5381 0.6357 0.4538
C5B C 0.5596(10) 0.6150(10) 0.3435(11)
H12B H 0.6125 0.5880 0.3276
H13B H 0.5176 0.5404 0.3341
C6B C 0.5169(9) 0.7274(11) 0.2965(7)
H14B H 0.5587 0.8017 0.3104
H15B H 0.4642 0.7507 0.3137
loop_
_geom_bond_atom_site_label_1
_geom_bond_atom_site_label_2
_geom_bond_site_symmetry_1
_geom_bond_site_symmetry_2
V1 O1 1_555 1_555
V2 O5 1_555 1_555
P1 O1 1_555 1_555
P2 O4 1_555 1_555
O2 P1 1_555 1_555
O3 V1 1_555 1_555
O4 V1D 1_555 1_555
O5 V1 1_555 1_555
O6 P2 1_555 1_555
O7 V2 1_555 1_555
O8 P2 1_555 1_555
O9 P1 1_555 1_555
N1 H1 1_555 1_555
H2 N1 1_555 1_555
H3 N1 1_555 1_555
C1 N1 1_555 1_555
H4 C1 1_555 1_555
H5 C1 1_555 1_555
C2 P1 1_555 1_555
H6 C2 1_555 1_555
H7 C2 1_555 1_555
C3 P2 1_555 1_555
H8 C3 1_555 1_555
H9 C3 1_555 1_555
C4 C2 1_555 1_555
H10 C4 1_555 1_555
H11 C4 1_555 1_555
C5 C1 1_555 1_555
H12 C5 1_555 1_555
H13 C5 1_555 1_555
C6 C5 1_555 1_555
H14 C6 1_555 1_555
H15 C6 1_555 1_555
H16 O5 1_555 1_555
V1E O2 1_555 1_555
V1D O5D 1_555 1_555
V1A O4E 1_555 1_555
V2D O6 1_555 1_555
V2G O8 1_555 1_555
V2F O9 1_555 1_555
V2A O6E 1_555 1_555
V2B O8E 1_555 1_555
V2C O9E 1_555 1_555
V2E O5E 1_555 1_555
P1E O1E 1_555 1_555
P2E O4E 1_555 1_555
O1E V1E 1_555 1_555
O2E V1 1_555 1_555
O3E V1E 1_555 1_555
O4D V1 1_555 1_555
O4A V1E 1_555 1_555
O5E V1E 1_555 1_555
O5D V2D 1_555 1_555
O6E P2E 1_555 1_555
O6D V2 1_555 1_555
O7D V2D 1_555 1_555
O8E P2E 1_555 1_555
O8G V2 1_555 1_555
O8C V2D 1_555 1_555
O9E P1E 1_555 1_555
O9F V2 1_555 1_555
O9B V2D 1_555 1_555
N1B H1B 1_555 1_555
H2B N1B 1_555 1_555
H3B N1B 1_555 1_555
C1B N1B 1_555 1_555
H4B C1B 1_555 1_555
H5B C1B 1_555 1_555
C2E P1E 1_555 1_555
H6E C2E 1_555 1_555
H7E C2E 1_555 1_555
C3E P2E 1_555 1_555
H8E C3E 1_555 1_555
H9E C3E 1_555 1_555
C4E C2E 1_555 1_555
H10E C4E 1_555 1_555
H11E C4E 1_555 1_555
C5B C1B 1_555 1_555
H12B C5B 1_555 1_555
H13B C5B 1_555 1_555
C6B C6 1_555 1_555
H14B C6B 1_555 1_555
H15B C6B 1_555 1_555
H16E O5E 1_555 1_555
H16D O5D 1_555 1_555
C3 C4 1_555 1_555
P1E O2E 1_555 1_555
C3E C4E 1_555 1_555
C5B C6B 1_555 1_555

#END
