
#######################################################################
#
#                 Cambridge Crystallographic Data Centre
#                                CCDC 
#
#######################################################################
#
# If this CIF has been generated from an entry in the Cambridge 
# Structural Database, then it will include bibliographic, chemical, 
# crystal, experimental, refinement or atomic coordinate data resulting 
# from the CCDC's data processing and validation procedures.
#
#######################################################################

data_OCURUA
_symmetry_cell_setting           monoclinic
_symmetry_space_group_name_H-M   'P 21/c'
_symmetry_Int_Tables_number      14
_space_group_name_Hall           '-P 2ybc'
loop_
_symmetry_equiv_pos_site_id
_symmetry_equiv_pos_as_xyz
1 x,y,z
2 -x,1/2+y,1/2-z
3 -x,-y,-z
4 x,1/2-y,1/2+z
_cell_length_a                   12.2895(15)
_cell_length_b                   13.4657(16)
_cell_length_c                   6.0846(7)
_cell_angle_alpha                90
_cell_angle_beta                 103.401(2)
_cell_angle_gamma                90
_cell_volume                     979.504
loop_
_atom_site_label
_atom_site_type_symbol
_atom_site_fract_x
_atom_site_fract_y
_atom_site_fract_z
V1 V 0.28394(5) 0.36543(5) 1.10959(10)
P1 P 0.38941(8) 0.14523(7) 1.15957(16)
P2 P 0.74906(8) 0.11154(7) 1.47407(17)
O1 O 0.3955(2) 0.2580(2) 1.1687(5)
O2 O 0.3254(2) 0.1039(2) 0.9314(5)
O3 O 0.1677(2) 0.3080(2) 1.0457(5)
O4 O 0.3376(2) 0.0992(2) 1.3432(5)
O5 O 0.7756(2) 0.0060(2) 1.4129(5)
O6 O 0.7881(3) 0.1753(2) 1.2904(5)
H1 H 0.7893 0.2356 1.3263
O7 O 0.8066(3) 0.1421(2) 1.7124(5)
C1 C 0.5311(3) 0.1013(3) 1.2070(7)
H4 H 0.5657 0.1282 1.0879
H5 H 0.5306 0.0280 1.1947
C2 C 0.6025(3) 0.1315(3) 1.4392(7)
H6 H 0.5767 0.0935 1.5570
H7 H 0.5897 0.2028 1.4639
V1C V 0.28394(5) 0.13457(5) 1.60959(10)
V1C_2 V 0.28394(5) 0.13457(5) 0.60959(10)
V1A V 0.71606(5) -0.13457(5) 1.39041(10)
V1_2 V 0.28394(5) 0.36543(5) 2.10959(10)
V1B V 0.71606(5) 0.63457(5) 1.89041(10)
P1C P 0.38941(8) 0.35477(7) 1.65957(16)
P2C P 0.74906(8) 0.38846(7) 1.97407(17)
O1C O 0.3955(2) 0.2420(2) 1.6687(5)
O2C O 0.3254(2) 0.3961(2) 1.4314(5)
O2_2 O 0.3254(2) 0.1039(2) 1.9314(5)
O3C O 0.1677(2) 0.1920(2) 1.5457(5)
O4C O 0.3376(2) 0.4008(2) 1.8432(5)
O4C_2 O 0.3376(2) 0.4008(2) 0.8432(5)
O5C O 0.7756(2) 0.4940(2) 1.9129(5)
O5A O 0.2244(2) 0.5060(2) 1.0871(5)
O5B O 0.2244(2) -0.0060(2) 1.5871(5)
O6C O 0.7881(3) 0.3247(2) 1.7904(5)
H1C H 0.7893 0.2644 1.8263
O7C O 0.8066(3) 0.3579(2) 2.2124(5)
C1C C 0.5311(3) 0.3987(3) 1.7070(7)
H4C H 0.5657 0.3718 1.5879
H5C H 0.5306 0.4720 1.6947
C2C C 0.6025(3) 0.3685(3) 1.9392(7)
H6C H 0.5767 0.4065 2.0570
H7C H 0.5897 0.2972 1.9639
N1 N 0.1057(3) 0.5156(3) 0.4417(6)
H2 H 0.1451 0.5482 0.5681
H3 H 0.1515 0.5093 0.3424
C3 C 0.0049(3) 0.5752(3) 0.3338(7)
H8 H -0.0351 0.5423 0.1926
H9 H 0.0284 0.6419 0.2946
C4 C 0.0731(3) 0.4147(3) 0.5070(7)
H10 H 0.1408 0.3772 0.5821
H11 H 0.0352 0.3776 0.3702
N1B N -0.1057(3) 0.4844(3) 0.5583(6)
H2B H -0.1451 0.4518 0.4319
H3B H -0.1515 0.4907 0.6576
C3B C -0.0049(3) 0.4248(3) 0.6662(7)
H8B H 0.0351 0.4577 0.8074
H9B H -0.0284 0.3581 0.7054
C4B C -0.0731(3) 0.5853(3) 0.4930(7)
H10B H -0.1408 0.6228 0.4179
H11B H -0.0352 0.6224 0.6298
loop_
_geom_bond_atom_site_label_1
_geom_bond_atom_site_label_2
_geom_bond_site_symmetry_1
_geom_bond_site_symmetry_2
V1 O1 1_555 1_555
P1 O1 1_555 1_555
P2 O5 1_555 1_555
O2 P1 1_555 1_555
O3 V1 1_555 1_555
O4 P1 1_555 1_555
O5 V1A 1_555 1_555
O6 P2 1_555 1_555
H1 O6 1_555 1_555
O7 P2 1_555 1_555
N1 H2 1_555 1_555
H3 N1 1_555 1_555
C1 P1 1_555 1_555
H4 C1 1_555 1_555
H5 C1 1_555 1_555
C2 P2 1_555 1_555
H6 C2 1_555 1_555
H7 C2 1_555 1_555
C3 N1 1_555 1_555
H8 C3 1_555 1_555
H9 C3 1_555 1_555
C4 N1 1_555 1_555
H10 C4 1_555 1_555
H11 C4 1_555 1_555
V1C O4 1_555 1_555
V1C_2 O2 1_555 1_555
V1_2 O4C 1_555 1_555
V1B O5C 1_555 1_555
P1C O1C 1_555 1_555
P2C O5C 1_555 1_555
O1C V1C 1_555 1_555
O2C V1 1_555 1_555
O2_2 V1C 1_555 1_555
O3C V1C 1_555 1_555
O4C P1C 1_555 1_555
O4C_2 V1 1_555 1_555
O5A V1 1_555 1_555
O5B V1C 1_555 1_555
O6C P2C 1_555 1_555
H1C O6C 1_555 1_555
O7C P2C 1_555 1_555
N1B H2B 1_555 1_555
H3B N1B 1_555 1_555
C1C P1C 1_555 1_555
H4C C1C 1_555 1_555
H5C C1C 1_555 1_555
C2C P2C 1_555 1_555
H6C C2C 1_555 1_555
H7C C2C 1_555 1_555
C3B C4 1_555 1_555
H8B C3B 1_555 1_555
H9B C3B 1_555 1_555
C4B C3 1_555 1_555
H10B C4B 1_555 1_555
H11B C4B 1_555 1_555
C1 C2 1_555 1_555
P1C O2C 1_555 1_555
N1B C3B 1_555 1_555
N1B C4B 1_555 1_555
C1C C2C 1_555 1_555

#END
