
#######################################################################
#
#                 Cambridge Crystallographic Data Centre
#                                CCDC 
#
#######################################################################
#
# If this CIF has been generated from an entry in the Cambridge 
# Structural Database, then it will include bibliographic, chemical, 
# crystal, experimental, refinement or atomic coordinate data resulting 
# from the CCDC's data processing and validation procedures.
#
#######################################################################

data_OCUSIO
_symmetry_cell_setting           orthorhombic
_symmetry_space_group_name_H-M   'P c m n'
_symmetry_Int_Tables_number      62
_space_group_name_Hall           '-P 2n 2ac'
loop_
_symmetry_equiv_pos_site_id
_symmetry_equiv_pos_as_xyz
1 x,y,z
2 1/2+x,1/2+y,1/2-z
3 1/2-x,y,1/2+z
4 x,1/2-y,z
5 -x,-y,-z
6 1/2-x,1/2-y,1/2+z
7 1/2+x,-y,1/2-z
8 -x,1/2+y,-z
_cell_length_a                   7.290(2)
_cell_length_b                   11.9430(12)
_cell_length_c                   13.452(4)
_cell_angle_alpha                90
_cell_angle_beta                 90
_cell_angle_gamma                90
_cell_volume                     1171.19
loop_
_atom_site_label
_atom_site_type_symbol
_atom_site_fract_x
_atom_site_fract_y
_atom_site_fract_z
Cu1 Cu 0.0000 0.5000 0.0000
O2 O 0.1990(5) 0.5697(3) 0.0860(3)
C1 C -0.0299(8) 0.3490(6) 0.1872(5)
H1 H -0.0444 0.4166 0.2205
N1 N 0.0078(6) 0.3497(4) 0.0896(4)
C5 C 0.0262(10) 0.2500 0.0457(7)
H2 H 0.0545 0.2500 -0.0217
O5 O 0.2102(6) 0.4319(4) -0.0910(4)
C6 C -0.0477(12) 0.2500 0.2391(7)
H3 H -0.0710 0.2500 0.3070
H4 H 0.2905 0.5175 0.1070
H5 H 0.2973 0.4847 -0.1029
H6 H 0.2560 0.6377 0.0713
H7 H 0.1963 0.3771 -0.1415
N1C N 0.0078(6) 0.1503(4) 0.0896(4)
C1C C -0.0299(8) 0.1510(6) 0.1872(5)
H1C H -0.0444 0.0834 0.2205
O2D O -0.1990(5) 0.4303(3) -0.0860(3)
H4D H -0.2905 0.4825 -0.1070
H6D H -0.2560 0.3623 -0.0713
O5D O -0.2102(6) 0.5681(4) 0.0910(4)
H5D H -0.2973 0.5153 0.1029
H7D H -0.1963 0.6229 0.1415
N1D N -0.0078(6) 0.6503(4) -0.0896(4)
Cu1C Cu 0.0000 0.0000 0.0000
O1 O 0.1392(8) 0.2500 0.7962(4)
C2 C -0.0546(9) 0.2500 0.5731(6)
O3 O 0.0098(6) 0.4420(4) 0.6421(3)
O4 O -0.1329(7) 0.2500 0.4893(4)
C3 C 0.0689(10) 0.2500 0.7123(6)
C4 C 0.0086(7) 0.3360(5) 0.6420(4)
C4C C 0.0086(7) 0.1640(5) 0.6420(4)
O3C O 0.0098(6) 0.0580(4) 0.6421(3)
loop_
_geom_bond_atom_site_label_1
_geom_bond_atom_site_label_2
_geom_bond_site_symmetry_1
_geom_bond_site_symmetry_2
Cu1 O2 1_555 1_555
O1 C3 1_555 1_555
O2 H4 1_555 1_555
C1 H1 1_555 1_555
N1 Cu1 1_555 1_555
C2 O4 1_555 1_555
O3 C4 1_555 1_555
C3 C4 1_555 1_555
C4 C2 1_555 1_555
C5 N1 1_555 1_555
H2 C5 1_555 1_555
O5 Cu1 1_555 1_555
C6 C1 1_555 1_555
H3 C6 1_555 1_555
H5 O5 1_555 1_555
H6 O2 1_555 1_555
H7 O5 1_555 1_555
C4C C2 1_555 1_555
O3C C4C 1_555 1_555
N1C C5 1_555 1_555
C1C C6 1_555 1_555
H1C C1C 1_555 1_555
O2D Cu1 1_555 1_555
H4D O2D 1_555 1_555
H6D O2D 1_555 1_555
O5D Cu1 1_555 1_555
H5D O5D 1_555 1_555
H7D O5D 1_555 1_555
N1D Cu1 1_555 1_555
Cu1C N1C 1_555 1_555
C1 N1 1_555 1_555
C3 C4C 1_555 1_555
N1C C1C 1_555 1_555

#END
