
#######################################################################
#
#                 Cambridge Crystallographic Data Centre
#                                CCDC 
#
#######################################################################
#
# If this CIF has been generated from an entry in the Cambridge 
# Structural Database, then it will include bibliographic, chemical, 
# crystal, experimental, refinement or atomic coordinate data resulting 
# from the CCDC's data processing and validation procedures.
#
#######################################################################

data_OCUSUB
_symmetry_cell_setting           monoclinic
_symmetry_space_group_name_H-M   'C 2/c'
_symmetry_Int_Tables_number      15
_space_group_name_Hall           '-C 2yn'
loop_
_symmetry_equiv_pos_site_id
_symmetry_equiv_pos_as_xyz
1 x,y,z
2 1/2+x,1/2+y,z
3 -x,y,1/2-z
4 1/2-x,1/2+y,1/2-z
5 -x,-y,-z
6 1/2-x,1/2-y,-z
7 x,-y,1/2+z
8 1/2+x,1/2-y,1/2+z
_cell_length_a                   15.0877(9)
_cell_length_b                   10.2027(6)
_cell_length_c                   18.6376(11)
_cell_angle_alpha                90
_cell_angle_beta                 102.5210(10)
_cell_angle_gamma                90
_cell_volume                     2800.75
loop_
_atom_site_label
_atom_site_type_symbol
_atom_site_fract_x
_atom_site_fract_y
_atom_site_fract_z
O10 O 0.9727(14) 0.8757(19) 0.2101(17)
O10B O 1.0273(14) 0.8757(19) 0.2899(17)
N1 N 0.8623(6) 0.6975(6) 0.0469(5)
H1 H 0.9046 0.6627 0.0243
H2 H 0.8060 0.6704 0.0234
H3 H 0.8735 0.6705 0.0945
C4 C 0.8667(6) 0.8351(8) 0.0445(6)
H13 H 0.8049 0.8732 0.0353
H14 H 0.8966 0.8636 0.0048
C5 C 0.9193(13) 0.877(2) 0.1158(10)
H15 H 0.9811 0.8995 0.1114
H16 H 0.9219 0.8055 0.1514
H17 H 0.8905 0.9537 0.1326
V1 V 0.16060(3) 0.61538(5) 0.08485(3)
V2 V 0.24829(4) 0.54620(5) 0.28319(3)
P1 P 0.28632(5) 0.87848(7) 0.07721(4)
P2 P 0.66411(5) 0.83098(7) 0.16562(4)
O1 O 0.20149(15) 0.7978(2) 0.07685(12)
O2 O 0.29072(16) 0.9282(2) 0.00058(12)
O3 O 0.05325(16) 0.6327(2) 0.06134(14)
O4 O 0.67506(15) 0.9257(2) 0.10450(12)
O5 O 0.20282(18) 0.6442(2) 0.19135(12)
O6 O 0.73425(15) 0.7218(2) 0.17027(12)
O7 O 0.34801(17) 0.4941(3) 0.28395(14)
O8 O 0.28878(15) 1.0006(2) 0.12552(12)
O9 O 0.67100(16) 0.9001(2) 0.23946(12)
C1 C 0.3840(2) 0.7783(3) 0.11120(17)
H7 H 0.3762 0.7344 0.1568
H8 H 0.3871 0.7092 0.0745
C2 C 0.5539(2) 0.7572(3) 0.14274(18)
H9 H 0.5505 0.7016 0.0987
H10 H 0.5470 0.6990 0.1837
C3 C 0.4739(2) 0.8533(3) 0.12749(18)
H11 H 0.4766 0.9107 0.1707
H12 H 0.4779 0.9094 0.0850
V1E V 0.33940(3) 0.88462(5) -0.08485(3)
V1A V 0.66060(3) 1.11538(5) 0.08485(3)
V1D V -0.16060(3) 0.38462(5) -0.08485(3)
V2B V 0.75171(4) 0.54620(5) 0.21681(3)
V2C V 0.25171(4) 1.04620(5) 0.21681(3)
V2A V 0.74829(4) 1.04620(5) 0.28319(3)
V2G V -0.25171(4) 0.95380(5) -0.21681(3)
V2F V 0.24829(4) 0.45380(5) -0.21681(3)
V2D V -0.24829(4) 0.45380(5) -0.28319(3)
V2E V 0.25171(4) 0.95380(5) -0.28319(3)
P1E P 0.21368(5) 0.62152(7) -0.07721(4)
P2E P -0.16411(5) 0.66902(7) -0.16562(4)
O1E O 0.29851(15) 0.7022(2) -0.07685(12)
O2E O 0.20928(16) 0.5718(2) -0.00058(12)
O3E O 0.44675(16) 0.8673(2) -0.06134(14)
O4E O -0.17506(15) 0.5743(2) -0.10450(12)
O4A O 0.17506(15) 0.4257(2) 0.10450(12)
O4D O 0.32494(15) 1.0743(2) -0.10450(12)
O5E O 0.29718(18) 0.8558(2) -0.19135(12)
O5B O 0.79718(18) 0.6442(2) 0.30865(12)
O6E O -0.23425(15) 0.7782(2) -0.17027(12)
O6B O 0.26575(15) 0.7218(2) 0.32973(12)
O7B O 0.65199(17) 0.4941(3) 0.21605(14)
O8E O 0.21122(15) 0.4994(2) -0.12552(12)
O8C O 0.21122(15) 0.5006(2) 0.37448(12)
O8A O 0.78878(15) 0.5006(2) 0.12552(12)
O9E O -0.17100(16) 0.5999(2) -0.23946(12)
O9A O 0.17100(16) 0.4001(2) 0.23946(12)
O9C O 0.82900(16) 0.4001(2) 0.26054(12)
C1E C 0.1160(2) 0.7217(3) -0.11120(17)
H7E H 0.1238 0.7656 -0.1568
H8E H 0.1129 0.7908 -0.0745
C2E C -0.0539(2) 0.7428(3) -0.14274(18)
H9E H -0.0505 0.7984 -0.0987
H10E H -0.0470 0.8010 -0.1837
C3E C 0.0261(2) 0.6467(3) -0.12749(18)
H11E H 0.0234 0.5893 -0.1707
H12E H 0.0221 0.5906 -0.0850
O11? O 0.9690(14) 0.752(3) 0.2071(16)
N2? N 0.8981(12) 0.7267(13) 0.0988(13)
H4? H 0.9409 0.6777 0.0835
H5? H 0.8501 0.6750 0.1023
H6? H 0.9225 0.7619 0.1437
C6? C 0.9400(10) 0.9208(12) 0.0456(10)
H18? H 0.9501 0.9739 0.0905
H19? H 0.9261 0.9784 0.0026
H20? H 0.9948 0.8698 0.0446
loop_
_geom_bond_atom_site_label_1
_geom_bond_atom_site_label_2
_geom_bond_site_symmetry_1
_geom_bond_site_symmetry_2
V1 O1 1_555 1_555
V2 O5 1_555 1_555
P1 O1 1_555 1_555
P2 O4 1_555 1_555
O2 P1 1_555 1_555
O3 V1 1_555 1_555
O4 V1A 1_555 1_555
O5 V1 1_555 1_555
O6 P2 1_555 1_555
O7 V2 1_555 1_555
O8 P1 1_555 1_555
O9 P2 1_555 1_555
O10 O10B 1_555 1_555
N1 H1 1_555 1_555
H2 N1 1_555 1_555
H3 N1 1_555 1_555
C1 P1 1_555 1_555
H7 C1 1_555 1_555
H8 C1 1_555 1_555
C2 P2 1_555 1_555
H9 C2 1_555 1_555
H10 C2 1_555 1_555
C3 C1 1_555 1_555
H11 C3 1_555 1_555
H12 C3 1_555 1_555
C4 N1 1_555 1_555
H13 C4 1_555 1_555
H14 C4 1_555 1_555
C5 C4 1_555 1_555
H15 C5 1_555 1_555
H16 C5 1_555 1_555
H17 C5 1_555 1_555
V1E O2 1_555 1_555
V1D O4E 1_555 1_555
V2B O6 1_555 1_555
V2C O8 1_555 1_555
V2A O9 1_555 1_555
V2G O6E 1_555 1_555
V2F O8E 1_555 1_555
V2D O9E 1_555 1_555
V2E O5E 1_555 1_555
P1E O1E 1_555 1_555
P2E O4E 1_555 1_555
O1E V1E 1_555 1_555
O2E V1 1_555 1_555
O3E V1E 1_555 1_555
O4A V1 1_555 1_555
O4D V1E 1_555 1_555
O5E V1E 1_555 1_555
O5B V2B 1_555 1_555
O6E P2E 1_555 1_555
O6B V2 1_555 1_555
O7B V2B 1_555 1_555
O8E P1E 1_555 1_555
O8C V2 1_555 1_555
O8A V2B 1_555 1_555
O9E P2E 1_555 1_555
O9A V2 1_555 1_555
O9C V2B 1_555 1_555
C1E P1E 1_555 1_555
H7E C1E 1_555 1_555
H8E C1E 1_555 1_555
C2E P2E 1_555 1_555
H9E C2E 1_555 1_555
H10E C2E 1_555 1_555
C3E C1E 1_555 1_555
H11E C3E 1_555 1_555
H12E C3E 1_555 1_555
C2 C3 1_555 1_555
P1E O2E 1_555 1_555
C2E C3E 1_555 1_555

#END
