
#######################################################################
#
#                 Cambridge Crystallographic Data Centre
#                                CCDC 
#
#######################################################################
#
# If this CIF has been generated from an entry in the Cambridge 
# Structural Database, then it will include bibliographic, chemical, 
# crystal, experimental, refinement or atomic coordinate data resulting 
# from the CCDC's data processing and validation procedures.
#
#######################################################################

data_OCUSUC01
_symmetry_cell_setting           orthorhombic
_symmetry_space_group_name_H-M   'P n m a'
_symmetry_Int_Tables_number      62
_space_group_name_Hall           '-P 2ac 2n'
loop_
_symmetry_equiv_pos_site_id
_symmetry_equiv_pos_as_xyz
1 x,y,z
2 1/2-x,-y,1/2+z
3 -x,1/2+y,-z
4 1/2+x,1/2-y,1/2-z
5 -x,-y,-z
6 1/2+x,y,1/2-z
7 x,1/2-y,z
8 1/2-x,1/2+y,1/2+z
_cell_length_a                   11.022(3)
_cell_length_b                   6.6012(17)
_cell_length_c                   16.254(4)
_cell_angle_alpha                90
_cell_angle_beta                 90
_cell_angle_gamma                90
_cell_volume                     1182.62
loop_
_atom_site_label
_atom_site_type_symbol
_atom_site_fract_x
_atom_site_fract_y
_atom_site_fract_z
Co1 Co 0.49966(6) 1.2500 0.69828(4)
Co2 Co 0.5000 1.0000 0.5000
O1 O 0.3216(3) 0.7500 0.3260(2)
O2 O 0.1827(3) 0.7500 0.2254(2)
O3 O 0.3128(2) 0.9208(5) 0.49577(16)
C1 C -0.0881(5) 0.7500 0.3873(3)
H1 H -0.1679 0.7500 0.3688
O4 O 0.5462(3) 0.7500 0.4290(2)
H2 H 0.6233 0.7500 0.4293
N1 N 0.0481(4) 0.7500 0.5021(3)
N2 N 0.0028(4) 0.7500 0.3331(3)
C2 C 0.2158(5) 0.7500 0.2994(3)
C3 C 0.1389(5) 0.7500 0.4478(3)
N3 N 0.5060(3) 0.9186(5) 0.6908(2)
C4 C 0.2680(5) 0.7500 0.4821(3)
C5 C 0.1168(5) 0.7500 0.3639(3)
C6 C 0.4998(5) 0.7500 0.7346(4)
N4 N 0.5168(3) 0.8473(5) 0.61280(19)
C7 C -0.0641(5) 0.7500 0.4717(3)
H3 H -0.1291 0.7500 0.5081
N5 N 0.4868(7) 0.7500 0.8200(3)
H4 H 0.4824 0.6372 0.8463
O3F O 0.3128(2) 0.5792(5) 0.49577(16)
N3F N 0.5060(3) 0.5814(5) 0.6908(2)
N4F N 0.5168(3) 0.6527(5) 0.61280(19)
H4F H 0.4824 0.8628 0.8463
Co1_2 Co 0.49966(6) 0.2500 0.69828(4)
Co1A Co 0.00034(6) 0.7500 0.19828(4)
Co1B Co 0.50034(6) 0.7500 0.30172(4)
Co2B Co 0.5000 0.5000 0.5000
O1B O 0.6784(3) 1.2500 0.6740(2)
O2A O 0.3173(3) 1.2500 0.7254(2)
O3D O 0.6872(2) 1.0792(5) 0.50423(16)
O4B O 0.4538(3) 1.2500 0.5710(2)
N2A N 0.4972(4) 1.2500 0.8331(3)
N3F_2 N 0.5060(3) 1.5814(5) 0.6908(2)
N4D N 0.4832(3) 1.1527(5) 0.38720(19)
loop_
_geom_bond_atom_site_label_1
_geom_bond_atom_site_label_2
_geom_bond_site_symmetry_1
_geom_bond_site_symmetry_2
Co1 N3 1_555 1_555
Co2 O3 1_555 1_555
O1 C2 1_555 1_555
O2 C2 1_555 1_555
O3 C4 1_555 1_555
C1 H1 1_555 1_555
O4 Co2 1_555 1_555
H2 O4 1_555 1_555
N1 C3 1_555 1_555
N2 C1 1_555 1_555
C2 C5 1_555 1_555
C3 C4 1_555 1_555
N3 C6 1_555 1_555
C4 O3F 1_555 1_555
C5 N2 1_555 1_555
C6 N5 1_555 1_555
N4 Co2 1_555 1_555
C7 C1 1_555 1_555
H3 C7 1_555 1_555
N5 H4 1_555 1_555
O3F Co2B 1_555 1_555
N3F C6 1_555 1_555
N4F N4 1_555 1_555
H4F N5 1_555 1_555
Co1_2 N3F 1_555 1_555
Co1A O2 1_555 1_555
Co1B O1 1_555 1_555
Co2B O4 1_555 1_555
O1B Co1 1_555 1_555
O2A Co1 1_555 1_555
O3D Co2 1_555 1_555
O4B Co1 1_555 1_555
N2A Co1 1_555 1_555
N3F_2 Co1 1_555 1_555
N4D Co2 1_555 1_555
Co2 O4B 1_555 1_555
O4 Co1B 1_555 1_555
N1 C7 1_555 1_555
N2 Co1A 1_555 1_555
C3 C5 1_555 1_555
N3 N4 1_555 1_555
N3F N4F 1_555 1_555
N4F Co2B 1_555 1_555

#END
