
#######################################################################
#
#                 Cambridge Crystallographic Data Centre
#                                CCDC 
#
#######################################################################
#
# If this CIF has been generated from an entry in the Cambridge 
# Structural Database, then it will include bibliographic, chemical, 
# crystal, experimental, refinement or atomic coordinate data resulting 
# from the CCDC's data processing and validation procedures.
#
#######################################################################

data_OCUXOB
_symmetry_cell_setting           monoclinic
_symmetry_space_group_name_H-M   'P 21/n'
_symmetry_Int_Tables_number      14
_space_group_name_Hall           '-P 2yn'
loop_
_symmetry_equiv_pos_site_id
_symmetry_equiv_pos_as_xyz
1 x,y,z
2 1/2-x,1/2+y,1/2-z
3 -x,-y,-z
4 1/2+x,1/2-y,1/2+z
_cell_length_a                   13.5339(1)
_cell_length_b                   26.9360(1)
_cell_length_c                   23.7255(1)
_cell_angle_alpha                90
_cell_angle_beta                 92.3155(2)
_cell_angle_gamma                90
_cell_volume                     8642.05
loop_
_atom_site_label
_atom_site_type_symbol
_atom_site_fract_x
_atom_site_fract_y
_atom_site_fract_z
W1 W 0.13227(2) 0.144520(12) -0.205270(13)
W2 W 0.25201(2) 0.177310(11) -0.318720(13)
W3 W 0.37351(2) 0.120970(11) -0.211340(13)
W4 W 0.08966(2) 0.101180(12) -0.414280(13)
W5 W -0.04143(2) 0.082920(12) -0.306310(14)
W6 W 0.06094(2) 0.013400(12) -0.182490(14)
W7 W 0.30565(2) -0.007820(12) -0.172980(14)
W8 W 0.45215(2) 0.014950(12) -0.298080(14)
W9 W 0.35885(2) 0.077020(12) -0.403390(14)
W10 W 0.03167(2) -0.010350(12) -0.378750(14)
W11 W 0.15922(2) -0.075540(11) -0.259370(14)
W12 W 0.29871(2) -0.038280(12) -0.384250(14)
K1 K 0.18051(18) 0.00987(8) -0.51662(9)
Na1 Na 0.3598(4) -0.07521(19) -0.5884(3)
O1 O 0.0668(4) 0.1836(2) -0.1637(2)
O2 O 0.1716(4) 0.1957(2) -0.2602(2)
O3 O 0.2731(4) 0.2351(2) -0.3461(2)
O4 O 0.3651(4) 0.17549(19) -0.2613(2)
O5 O 0.4657(4) 0.1406(2) -0.1654(2)
O6 O 0.2606(4) 0.1498(2) -0.1721(2)
O7 O 0.1069(4) 0.0825(2) -0.1747(2)
O8 O 0.0283(4) 0.1295(2) -0.2630(2)
O9 O 0.1506(4) 0.1541(2) -0.3657(2)
O10 O 0.4413(4) 0.0795(2) -0.2590(2)
O11 O 0.3342(4) 0.0597(2) -0.1727(2)
O12 O 0.3391(4) 0.1344(2) -0.3621(2)
O13 O 0.2346(4) 0.1079(2) -0.2677(2)
O14 O 0.0594(4) 0.1354(2) -0.4740(2)
O15 O -0.0343(4) 0.1177(2) -0.3756(2)
O16 O -0.1638(4) 0.0984(2) -0.2938(3)
O17 O 0.4784(4) 0.0569(2) -0.3649(2)
O18 O -0.0205(4) 0.0110(2) -0.1296(2)
O19 O 0.1844(4) -0.0001(2) -0.1374(2)
O20 O 0.3783(4) -0.0287(2) -0.1171(3)
O21 O 0.3961(4) -0.01290(19) -0.2345(2)
O22 O 0.5763(4) 0.0028(2) -0.2853(3)
O23 O 0.4118(4) 0.1005(2) -0.4629(3)
O24 O -0.0171(4) 0.0358(2) -0.2432(2)
O25 O 0.0913(4) 0.05523(19) -0.3395(2)
O26 O 0.1877(4) 0.0048(2) -0.2436(2)
O27 O 0.3105(4) 0.0298(2) -0.3371(2)
O28 O 0.0325(4) 0.0402(2) -0.4401(2)
O29 O -0.0815(4) 0.0216(2) -0.3480(2)
O30 O 0.0611(4) -0.0541(2) -0.2043(2)
O31 O 0.2565(4) -0.07400(19) -0.1998(2)
O32 O 0.4297(4) -0.0413(2) -0.3445(2)
O33 O 0.3446(4) 0.00852(19) -0.4369(2)
O34 O 0.0636(4) -0.0490(2) -0.3151(2)
O35 O 0.2497(4) -0.0708(2) -0.3165(2)
O36 O 0.1653(4) -0.0256(2) -0.4024(2)
O37 O -0.0378(4) -0.0531(2) -0.4184(2)
O38 O 0.1303(4) -0.1376(2) -0.2599(2)
O39 O 0.2191(4) 0.0819(2) -0.4286(2)
O40 O 0.3177(4) -0.0910(2) -0.4243(2)
O42 O 0.2795(5) -0.0070(2) -0.6314(3)
O43 O 0.3569(5) -0.1245(2) -0.6704(4)
O44 O 0.1955(5) -0.0862(3) -0.5459(3)
O46 O 0.4012(6) -0.1334(3) -0.5198(4)
O47 O 0.4150(7) -0.0067(3) -0.5393(4)
K1B K -0.18051(18) -0.00987(8) -0.48338(9)
Na1B Na 0.6402(4) 0.07521(19) -0.4116(3)
O17B O 0.5216(4) -0.0569(2) -0.6351(2)
O37B O 0.0378(4) 0.0531(2) -0.5816(2)
Ru1 Ru -0.35458(5) -0.26868(2) -0.46426(3)
N1 N -0.3510(5) -0.3425(2) -0.4865(3)
N2 N -0.4070(5) -0.2658(2) -0.5466(3)
N3 N -0.2050(5) -0.2649(3) -0.4783(3)
N4 N -0.2933(5) -0.2795(2) -0.3842(3)
N5 N -0.5007(5) -0.2629(2) -0.4444(3)
N6 N -0.3621(5) -0.1950(2) -0.4413(3)
C1 C -0.3227(6) -0.3803(3) -0.4521(4)
H1 H -0.3151 -0.3742 -0.4127
C2 C -0.3045(6) -0.4275(3) -0.4720(4)
H2 H -0.2862 -0.4535 -0.4466
C3 C -0.3133(6) -0.4360(3) -0.5289(4)
H3 H -0.2965 -0.4675 -0.5437
C4 C -0.3466(6) -0.3985(3) -0.5645(4)
H4 H -0.3554 -0.4044 -0.6039
C5 C -0.3672(6) -0.3518(3) -0.5425(3)
C6 C -0.4080(6) -0.3098(3) -0.5755(3)
C7 C -0.4484(6) -0.3141(3) -0.6296(3)
H5 H -0.4463 -0.3449 -0.6489
C8 C -0.4923(6) -0.2728(3) -0.6560(4)
H6 H -0.5207 -0.2750 -0.6931
C9 C -0.4933(6) -0.2282(3) -0.6262(4)
H7 H -0.5236 -0.1995 -0.6426
C10 C -0.4495(6) -0.2263(3) -0.5727(3)
H8 H -0.4494 -0.1955 -0.5531
C11 C -0.1663(6) -0.2559(3) -0.5285(3)
H9 H -0.2095 -0.2549 -0.5610
C12 C -0.0678(7) -0.2480(3) -0.5349(4)
H10 H -0.0430 -0.2411 -0.5710
C13 C -0.0037(7) -0.2505(4) -0.4866(4)
H11 H 0.0652 -0.2452 -0.4898
C14 C -0.0413(7) -0.2605(3) -0.4349(4)
H12 H 0.0006 -0.2620 -0.4019
C15 C -0.1446(6) -0.2686(3) -0.4324(4)
C16 C -0.1928(6) -0.2781(3) -0.3793(3)
C17 C -0.1436(6) -0.2863(3) -0.3282(4)
H13 H -0.0736 -0.2842 -0.3251
C18 C -0.1975(7) -0.2978(3) -0.2808(4)
H14 H -0.1645 -0.3042 -0.2455
C19 C -0.2990(7) -0.2997(3) -0.2863(4)
H15 H -0.3373 -0.3077 -0.2549
C20 C -0.3441(7) -0.2899(3) -0.3380(4)
H16 H -0.4143 -0.2906 -0.3413
C21 C -0.5722(6) -0.2977(3) -0.4535(3)
H17 H -0.5543 -0.3288 -0.4689
C22 C -0.6697(6) -0.2897(3) -0.4411(4)
H18 H -0.7177 -0.3150 -0.4479
C23 C -0.6965(6) -0.2451(3) -0.4191(4)
H19 H -0.7633 -0.2391 -0.4103
C24 C -0.6257(6) -0.2089(3) -0.4099(4)
H20 H -0.6430 -0.1778 -0.3944
C25 C -0.5280(6) -0.2186(3) -0.4235(4)
C26 C -0.4483(6) -0.1811(3) -0.4184(3)
C27 C -0.4581(7) -0.1356(3) -0.3913(4)
H21 H -0.5193 -0.1266 -0.3758
C28 C -0.3778(7) -0.1034(3) -0.3870(4)
H22 H -0.3821 -0.0726 -0.3677
C29 C -0.2910(6) -0.1177(3) -0.4118(4)
H23 H -0.2349 -0.0964 -0.4100
C30 C -0.2862(6) -0.1623(3) -0.4389(3)
H24 H -0.2271 -0.1707 -0.4569
Ru2 Ru -0.32821(4) -0.11992(2) -0.13227(3)
N7 N -0.3131(5) -0.1946(2) -0.1176(3)
N8 N -0.4346(5) -0.1479(2) -0.1881(3)
N9 N -0.2324(5) -0.1197(2) -0.1968(3)
N10 N -0.3341(5) -0.0467(2) -0.1569(3)
N11 N -0.2320(5) -0.0963(2) -0.0683(3)
N12 N -0.4199(5) -0.1157(2) -0.0649(3)
C31 C -0.2465(6) -0.2160(3) -0.0817(4)
H25 H -0.2018 -0.1955 -0.0603
C32 C -0.2410(7) -0.2672(3) -0.0751(4)
H26 H -0.1915 -0.2812 -0.0505
C33 C -0.3062(6) -0.2973(3) -0.1037(4)
H27 H -0.3037 -0.3322 -0.0988
C34 C -0.3763(6) -0.2759(3) -0.1400(3)
H28 H -0.4233 -0.2961 -0.1600
C35 C -0.3776(6) -0.2247(3) -0.1470(3)
C36 C -0.4455(6) -0.1979(3) -0.1868(3)
C37 C -0.5181(6) -0.2215(3) -0.2212(4)
H29 H -0.5247 -0.2566 -0.2200
C38 C -0.5792(6) -0.1942(3) -0.2563(4)
H30 H -0.6299 -0.2097 -0.2789
C39 C -0.5652(6) -0.1427(3) -0.2582(4)
H31 H -0.6048 -0.1228 -0.2833
C40 C -0.4938(6) -0.1212(3) -0.2234(3)
H32 H -0.4859 -0.0861 -0.2244
C41 C -0.1954(6) -0.1605(3) -0.2216(3)
H33 H -0.2094 -0.1923 -0.2066
C42 C -0.1372(6) -0.1572(3) -0.2686(4)
H34 H -0.1126 -0.1866 -0.2852
C43 C -0.1149(6) -0.1110(3) -0.2914(4)
H35 H -0.0754 -0.1081 -0.3234
C44 C -0.1531(6) -0.0695(3) -0.2651(3)
H36 H -0.1383 -0.0374 -0.2791
C45 C -0.2120(5) -0.0738(3) -0.2193(3)
C46 C -0.2642(6) -0.0325(3) -0.1931(3)
C47 C -0.2464(6) 0.0172(3) -0.2049(4)
H37 H -0.1932 0.0264 -0.2277
C48 C -0.3073(7) 0.0530(3) -0.1832(4)
H38 H -0.2963 0.0871 -0.1907
C49 C -0.3835(6) 0.0387(3) -0.1507(4)
H39 H -0.4292 0.0626 -0.1380
C50 C -0.3935(6) -0.0111(3) -0.1365(4)
H40 H -0.4435 -0.0204 -0.1116
C51 C -0.1384(6) -0.0810(3) -0.0748(4)
H41 H -0.1125 -0.0814 -0.1114
C52 C -0.0780(6) -0.0643(3) -0.0290(4)
H42 H -0.0129 -0.0527 -0.0347
C53 C -0.1152(6) -0.0650(3) 0.0240(4)
H43 H -0.0745 -0.0555 0.0557
C54 C -0.2113(6) -0.0796(3) 0.0312(4)
H44 H -0.2375 -0.0797 0.0678
C55 C -0.2693(6) -0.0940(3) -0.0152(3)
C56 C -0.3748(6) -0.1067(3) -0.0140(3)
C57 C -0.4268(6) -0.1078(3) 0.0359(4)
H45 H -0.3940 -0.1017 0.0714
C58 C -0.5269(7) -0.1181(3) 0.0323(4)
H46 H -0.5636 -0.1200 0.0655
C59 C -0.5732(6) -0.1256(3) -0.0196(4)
H47 H -0.6425 -0.1313 -0.0223
C60 C -0.5184(6) -0.1248(3) -0.0686(3)
H48 H -0.5504 -0.1307 -0.1043
O41 O -0.6988(4) -0.1646(2) -0.1384(3)
O45 O -0.5765(6) -0.7345(3) -0.1984(3)
O48 O -0.3816(6) -0.3540(4) -0.9601(5)
loop_
_geom_bond_atom_site_label_1
_geom_bond_atom_site_label_2
_geom_bond_site_symmetry_1
_geom_bond_site_symmetry_2
W1 O1 1_555 1_555
W2 O2 1_555 1_555
W3 O4 1_555 1_555
W4 O9 1_555 1_555
W5 O8 1_555 1_555
W6 O7 1_555 1_555
W7 O11 1_555 1_555
W8 O10 1_555 1_555
W9 O12 1_555 1_555
W10 O25 1_555 1_555
W11 O26 1_555 1_555
W12 O27 1_555 1_555
Ru1 N1 1_555 1_555
Ru2 N7 1_555 1_555
K1 O28 1_555 1_555
Na1 O42 1_555 1_555
O2 W1 1_555 1_555
O3 W2 1_555 1_555
O4 W2 1_555 1_555
O5 W3 1_555 1_555
O6 W1 1_555 1_555
O7 W1 1_555 1_555
O8 W1 1_555 1_555
O9 W2 1_555 1_555
O10 W3 1_555 1_555
O11 W3 1_555 1_555
O12 W2 1_555 1_555
O13 W1 1_555 1_555
O14 W4 1_555 1_555
O15 W4 1_555 1_555
O16 W5 1_555 1_555
O17 W8 1_555 1_555
O18 W6 1_555 1_555
O19 W6 1_555 1_555
O20 W7 1_555 1_555
O21 W7 1_555 1_555
O22 W8 1_555 1_555
O23 W9 1_555 1_555
O24 W5 1_555 1_555
O25 W4 1_555 1_555
O26 W6 1_555 1_555
O27 W8 1_555 1_555
O28 W4 1_555 1_555
O29 W5 1_555 1_555
O30 W6 1_555 1_555
O31 W7 1_555 1_555
O32 W8 1_555 1_555
O33 W9 1_555 1_555
O34 W10 1_555 1_555
O35 W11 1_555 1_555
O36 W10 1_555 1_555
O37 W10 1_555 1_555
O38 W11 1_555 1_555
O39 W4 1_555 1_555
O40 W12 1_555 1_555
N1 C1 1_555 1_555
N2 Ru1 1_555 1_555
N3 Ru1 1_555 1_555
N4 Ru1 1_555 1_555
N5 Ru1 1_555 1_555
N6 Ru1 1_555 1_555
N7 C31 1_555 1_555
N8 Ru2 1_555 1_555
N9 Ru2 1_555 1_555
N10 Ru2 1_555 1_555
N11 Ru2 1_555 1_555
N12 Ru2 1_555 1_555
C1 H1 1_555 1_555
C2 C1 1_555 1_555
H2 C2 1_555 1_555
C3 C2 1_555 1_555
H3 C3 1_555 1_555
C4 C3 1_555 1_555
H4 C4 1_555 1_555
C5 N1 1_555 1_555
C6 N2 1_555 1_555
C7 C6 1_555 1_555
H5 C7 1_555 1_555
C8 C7 1_555 1_555
H6 C8 1_555 1_555
C9 C8 1_555 1_555
H7 C9 1_555 1_555
C10 N2 1_555 1_555
H8 C10 1_555 1_555
C11 N3 1_555 1_555
H9 C11 1_555 1_555
C12 C11 1_555 1_555
H10 C12 1_555 1_555
C13 C12 1_555 1_555
H11 C13 1_555 1_555
C14 C13 1_555 1_555
H12 C14 1_555 1_555
C15 N3 1_555 1_555
C16 N4 1_555 1_555
C17 C16 1_555 1_555
H13 C17 1_555 1_555
C18 C17 1_555 1_555
H14 C18 1_555 1_555
C19 C18 1_555 1_555
H15 C19 1_555 1_555
C20 N4 1_555 1_555
H16 C20 1_555 1_555
C21 N5 1_555 1_555
H17 C21 1_555 1_555
C22 C21 1_555 1_555
H18 C22 1_555 1_555
C23 C22 1_555 1_555
H19 C23 1_555 1_555
C24 C23 1_555 1_555
H20 C24 1_555 1_555
C25 N5 1_555 1_555
C26 N6 1_555 1_555
C27 C26 1_555 1_555
H21 C27 1_555 1_555
C28 C27 1_555 1_555
H22 C28 1_555 1_555
C29 C28 1_555 1_555
H23 C29 1_555 1_555
C30 N6 1_555 1_555
H24 C30 1_555 1_555
C31 H25 1_555 1_555
C32 C31 1_555 1_555
H26 C32 1_555 1_555
C33 C32 1_555 1_555
H27 C33 1_555 1_555
C34 C33 1_555 1_555
H28 C34 1_555 1_555
C35 N7 1_555 1_555
C36 N8 1_555 1_555
C37 C36 1_555 1_555
H29 C37 1_555 1_555
C38 C37 1_555 1_555
H30 C38 1_555 1_555
C39 C38 1_555 1_555
H31 C39 1_555 1_555
C40 N8 1_555 1_555
H32 C40 1_555 1_555
C41 N9 1_555 1_555
H33 C41 1_555 1_555
C42 C41 1_555 1_555
H34 C42 1_555 1_555
C43 C42 1_555 1_555
H35 C43 1_555 1_555
C44 C43 1_555 1_555
H36 C44 1_555 1_555
C45 N9 1_555 1_555
C46 N10 1_555 1_555
C47 C46 1_555 1_555
H37 C47 1_555 1_555
C48 C47 1_555 1_555
H38 C48 1_555 1_555
C49 C48 1_555 1_555
H39 C49 1_555 1_555
C50 N10 1_555 1_555
H40 C50 1_555 1_555
C51 N11 1_555 1_555
H41 C51 1_555 1_555
C52 C51 1_555 1_555
H42 C52 1_555 1_555
C53 C52 1_555 1_555
H43 C53 1_555 1_555
C54 C53 1_555 1_555
H44 C54 1_555 1_555
C55 N11 1_555 1_555
C56 N12 1_555 1_555
C57 C56 1_555 1_555
H45 C57 1_555 1_555
C58 C57 1_555 1_555
H46 C58 1_555 1_555
C59 C58 1_555 1_555
H47 C59 1_555 1_555
C60 N12 1_555 1_555
H48 C60 1_555 1_555
O42 K1 1_555 1_555
O43 Na1 1_555 1_555
O44 K1 1_555 1_555
O46 Na1 1_555 1_555
O47 Na1 1_555 1_555
K1B O37 1_555 1_555
Na1B O17 1_555 1_555
O17B Na1 1_555 1_555
O37B K1 1_555 1_555
W2 O13 1_555 1_555
W3 O6 1_555 1_555
W3 O13 1_555 1_555
W5 O15 1_555 1_555
W5 O25 1_555 1_555
W6 O24 1_555 1_555
W7 O19 1_555 1_555
W7 O26 1_555 1_555
W8 O21 1_555 1_555
W9 O17 1_555 1_555
W9 O27 1_555 1_555
W9 O39 1_555 1_555
W10 O28 1_555 1_555
W10 O29 1_555 1_555
W11 O30 1_555 1_555
W11 O31 1_555 1_555
W11 O34 1_555 1_555
W12 O32 1_555 1_555
W12 O33 1_555 1_555
W12 O35 1_555 1_555
W12 O36 1_555 1_555
K1 O33 1_555 1_555
K1 O36 1_555 1_555
K1 O39 1_555 1_555
Na1 O44 1_555 1_555
C4 C5 1_555 1_555
C5 C6 1_555 1_555
C9 C10 1_555 1_555
C14 C15 1_555 1_555
C15 C16 1_555 1_555
C19 C20 1_555 1_555
C24 C25 1_555 1_555
C25 C26 1_555 1_555
C29 C30 1_555 1_555
C34 C35 1_555 1_555
C35 C36 1_555 1_555
C39 C40 1_555 1_555
C44 C45 1_555 1_555
C45 C46 1_555 1_555
C49 C50 1_555 1_555
C54 C55 1_555 1_555
C55 C56 1_555 1_555
C59 C60 1_555 1_555

#END
