
#######################################################################
#
#                 Cambridge Crystallographic Data Centre
#                                CCDC 
#
#######################################################################
#
# If this CIF has been generated from an entry in the Cambridge 
# Structural Database, then it will include bibliographic, chemical, 
# crystal, experimental, refinement or atomic coordinate data resulting 
# from the CCDC's data processing and validation procedures.
#
#######################################################################

data_ODAHIM
_symmetry_cell_setting           monoclinic
_symmetry_space_group_name_H-M   'P 21'
_symmetry_Int_Tables_number      4
_space_group_name_Hall           'P 2yb'
loop_
_symmetry_equiv_pos_site_id
_symmetry_equiv_pos_as_xyz
1 x,y,z
2 -x,1/2+y,-z
_cell_length_a                   6.5512(2)
_cell_length_b                   19.3273(6)
_cell_length_c                   9.6400(3)
_cell_angle_alpha                90
_cell_angle_beta                 98.0370(10)
_cell_angle_gamma                90
_cell_volume                     1208.6
loop_
_atom_site_label
_atom_site_type_symbol
_atom_site_fract_x
_atom_site_fract_y
_atom_site_fract_z
Cu1 Cu -0.50402(4) 0.290325(16) 0.35941(3)
S1 S -0.06485(10) 0.21350(4) 0.56488(6)
N1 N -0.4358(3) 0.39070(12) 0.4038(2)
C1 C -0.2778(4) 0.42285(14) 0.3544(3)
H1 H -0.2034 0.3989 0.2945
C2 C -0.2231(4) 0.49040(14) 0.3902(3)
C3 C -0.3399(4) 0.52655(15) 0.4768(3)
H2 H -0.3087 0.5722 0.5017
C4 C -0.5028(4) 0.49314(16) 0.5248(3)
H3 H -0.5830 0.5165 0.5820
C5 C -0.5465(4) 0.42608(15) 0.4885(3)
H4 H -0.6553 0.4041 0.5229
N2 N -0.0596(4) 0.52642(13) 0.3446(2)
H5 H -0.0363 0.5670 0.3798
C6 C 0.0701(4) 0.50551(15) 0.2503(3)
O1 O 0.0685(3) 0.44672(10) 0.20026(19)
N3 N 0.1935(3) 0.55634(13) 0.2171(2)
H6 H 0.1784 0.5969 0.2508
C7 C 0.3528(4) 0.54633(15) 0.1266(3)
H7 H 0.2897 0.5391 0.0305
H8 H 0.4359 0.5061 0.1567
C8 C 0.4857(4) 0.61058(15) 0.1367(3)
H9 H 0.3978 0.6505 0.1130
H10 H 0.5499 0.6161 0.2330
C9 C 0.6524(4) 0.61011(15) 0.0431(3)
H11 H 0.7362 0.5688 0.0602
H12 H 0.5911 0.6103 -0.0544
N4 N 0.7800(3) 0.67172(13) 0.0741(2)
H13 H 0.7638 0.6958 0.1468
C10 C 0.9206(4) 0.69256(14) -0.0047(3)
O2 O 0.9360(3) 0.66791(11) -0.12232(18)
N5 N 1.0459(3) 0.74488(13) 0.0554(2)
H14 H 1.0125 0.7615 0.1319
C11 C 1.2189(4) 0.77495(13) 0.0104(2)
C12 C 1.2703(4) 0.76921(13) -0.1246(2)
H15 H 1.1864 0.7429 -0.1904
N6 N 1.4377(3) 0.80055(12) -0.16280(19)
C13 C 1.5579(4) 0.83912(16) -0.0703(3)
H16 H 1.6713 0.8615 -0.0979
C14 C 1.5169(4) 0.84661(16) 0.0676(3)
H17 H 1.6032 0.8732 0.1315
C15 C 1.3478(4) 0.81430(15) 0.1072(3)
H18 H 1.3192 0.8187 0.1986
O3 O -0.8422(3) 0.31549(11) 0.3071(2)
O4 O -0.5421(3) 0.27637(10) 0.55801(18)
O5 O -0.5720(3) 0.18886(11) 0.32295(19)
O6 O -0.1475(3) 0.26068(10) 0.45027(17)
O7 O 0.1034(3) 0.24804(11) 0.65813(18)
O8 O 0.0149(3) 0.15055(11) 0.50545(19)
O9 O -0.2286(3) 0.19467(10) 0.64921(17)
H25 H -0.880(4) 0.3540(7) 0.290(3)
H26 H -0.931(3) 0.3050(18) 0.350(3)
H27 H -0.677(4) 0.185(2) 0.269(4)
H28 H -0.491(4) 0.1630(14) 0.296(3)
H29 H -0.452(4) 0.2529(18) 0.598(4)
H30 H -0.657(3) 0.2649(19) 0.568(4)
Cu1A Cu 1.50402(4) 0.790325(16) -0.35941(3)
N6A N -0.4377(3) 0.30055(12) 0.16280(19)
O10 O 0.7665(3) 0.10849(11) 0.2697(2)
H31 H 0.833(5) 0.113(2) 0.345(2)
H32 H 0.820(5) 0.1204(18) 0.204(2)
O11 O 1.1964(4) 0.46089(16) -0.2417(3)
H19 H 1.1917 0.5018 -0.2644
C16 C 0.9920(6) 0.4346(2) -0.2470(4)
H20 H 0.9976 0.3876 -0.2113
H21 H 0.9262 0.4335 -0.3436
C17 C 0.8657(5) 0.4784(2) -0.1622(4)
H22 H 0.9252 0.4770 -0.0654
H23 H 0.7273 0.4608 -0.1718
H24 H 0.8638 0.5253 -0.1952
loop_
_geom_bond_atom_site_label_1
_geom_bond_atom_site_label_2
_geom_bond_site_symmetry_1
_geom_bond_site_symmetry_2
Cu1 N1 1_555 1_555
S1 O6 1_555 1_555
N1 C1 1_555 1_555
C1 H1 1_555 1_555
C2 C1 1_555 1_555
C3 C2 1_555 1_555
H2 C3 1_555 1_555
C4 C3 1_555 1_555
H3 C4 1_555 1_555
C5 N1 1_555 1_555
H4 C5 1_555 1_555
N2 C2 1_555 1_555
H5 N2 1_555 1_555
C6 N2 1_555 1_555
O1 C6 1_555 1_555
N3 C6 1_555 1_555
H6 N3 1_555 1_555
C7 N3 1_555 1_555
H7 C7 1_555 1_555
H8 C7 1_555 1_555
C8 C7 1_555 1_555
H9 C8 1_555 1_555
H10 C8 1_555 1_555
C9 C8 1_555 1_555
H11 C9 1_555 1_555
H12 C9 1_555 1_555
N4 C9 1_555 1_555
H13 N4 1_555 1_555
C10 N4 1_555 1_555
O2 C10 1_555 1_555
N5 C10 1_555 1_555
H14 N5 1_555 1_555
C11 N5 1_555 1_555
C12 C11 1_555 1_555
H15 C12 1_555 1_555
N6 C12 1_555 1_555
C13 N6 1_555 1_555
H16 C13 1_555 1_555
C14 C13 1_555 1_555
H17 C14 1_555 1_555
C15 C11 1_555 1_555
H18 C15 1_555 1_555
O3 Cu1 1_555 1_555
O4 Cu1 1_555 1_555
O5 Cu1 1_555 1_555
O6 Cu1 1_555 1_555
O7 S1 1_555 1_555
O8 S1 1_555 1_555
O9 S1 1_555 1_555
O10 H31 1_555 1_555
O11 H19 1_555 1_555
C16 O11 1_555 1_555
H20 C16 1_555 1_555
H21 C16 1_555 1_555
C17 C16 1_555 1_555
H22 C17 1_555 1_555
H23 C17 1_555 1_555
H24 C17 1_555 1_555
H25 O3 1_555 1_555
H26 O3 1_555 1_555
H27 O5 1_555 1_555
H28 O5 1_555 1_555
H29 O4 1_555 1_555
H30 O4 1_555 1_555
H32 O10 1_555 1_555
Cu1A N6 1_555 1_555
N6A Cu1 1_555 1_555
C4 C5 1_555 1_555
C14 C15 1_555 1_555

#END
