
#######################################################################
#
#                 Cambridge Crystallographic Data Centre
#                                CCDC 
#
#######################################################################
#
# If this CIF has been generated from an entry in the Cambridge 
# Structural Database, then it will include bibliographic, chemical, 
# crystal, experimental, refinement or atomic coordinate data resulting 
# from the CCDC's data processing and validation procedures.
#
#######################################################################

data_ODAHEI
_symmetry_cell_setting           monoclinic
_symmetry_space_group_name_H-M   'P 2/c'
_symmetry_Int_Tables_number      13
_space_group_name_Hall           '-P 2yc'
loop_
_symmetry_equiv_pos_site_id
_symmetry_equiv_pos_as_xyz
1 x,y,z
2 -x,y,1/2-z
3 -x,-y,-z
4 x,-y,1/2+z
_cell_length_a                   17.7573(14)
_cell_length_b                   12.0093(9)
_cell_length_c                   20.5836(13)
_cell_angle_alpha                90
_cell_angle_beta                 119.797(5)
_cell_angle_gamma                90
_cell_volume                     3809.18
loop_
_atom_site_label
_atom_site_type_symbol
_atom_site_fract_x
_atom_site_fract_y
_atom_site_fract_z
Cu1 Cu 0.73441(4) 0.70726(5) 1.00292(4)
S1 S 0.76171(9) 0.44087(11) 0.99359(8)
N1 N 0.6400(3) 0.7071(3) 1.0297(3)
C1 C 0.6492(4) 0.7600(5) 1.0900(3)
H1 H 0.7011 0.7973 1.1199
C2 C 0.5879(4) 0.7628(5) 1.1103(3)
H2 H 0.5980 0.7999 1.1536
C3 C 0.5105(4) 0.7105(5) 1.0664(3)
H3 H 0.4676 0.7104 1.0798
C4 C 0.4966(3) 0.6570(4) 1.0008(3)
C5 C 0.5645(4) 0.6563(4) 0.9861(3)
H4 H 0.5573 0.6187 0.9439
N2 N 0.4164(3) 0.6058(4) 0.9565(3)
H5 H 0.3836 0.5988 0.9760
C6 C 0.3840(3) 0.5650(4) 0.8848(3)
O1 O 0.4222(2) 0.5718(3) 0.8492(2)
N3 N 0.3059(3) 0.5148(4) 0.8580(2)
H6 H 0.2818 0.5119 0.8853
C7 C 0.2619(4) 0.4655(5) 0.7831(3)
H7 H 0.2235 0.4068 0.7815
H8 H 0.3049 0.4320 0.7731
C8 C 0.2103(4) 0.5494(5) 0.7232(3)
H9 H 0.1694 0.5859 0.7345
H10 H 0.2491 0.6057 0.7226
N4 N 0.1632(3) 0.4977(4) 0.6497(3)
H11 H 0.1864 0.4968 0.6216
C9 C 0.0851(4) 0.4517(4) 0.6244(3)
O2 O 0.0425(2) 0.4556(3) 0.6570(2)
N5 N 0.0555(3) 0.3982(4) 0.5562(2)
H12 H 0.0895 0.4011 0.5376
C10 C -0.0224(3) 0.3401(5) 0.5134(3)
C11 C -0.0918(3) 0.3428(4) 0.5261(3)
H13 H -0.0875 0.3843 0.5660
N6 N -0.1653(3) 0.2868(4) 0.4823(3)
C12 C -0.1734(4) 0.2298(5) 0.4244(3)
H14 H -0.2255 0.1937 0.3933
C13 C -0.1062(4) 0.2223(5) 0.4086(4)
H15 H -0.1122 0.1804 0.3683
C14 C -0.0309(4) 0.2782(5) 0.4538(3)
H16 H 0.0150 0.2743 0.4443
N7 N 0.7090(3) 0.8704(4) 0.9803(3)
C15 C 0.7677(4) 0.9472(4) 1.0228(3)
H17 H 0.8217 0.9242 1.0611
C16 C 0.7497(4) 1.0618(5) 1.0107(3)
C17 C 0.6684(4) 1.0932(4) 0.9514(3)
H18 H 0.6541 1.1680 0.9409
C18 C 0.6104(4) 1.0126(5) 0.9095(4)
H19 H 0.5564 1.0325 0.8698
C19 C 0.6313(4) 0.9030(5) 0.9256(3)
H20 H 0.5901 0.8492 0.8975
N8 N 0.8061(3) 1.1482(3) 1.0518(3)
H21 H 0.7906 1.2145 1.0344
C20 C 0.8851(4) 1.1376(5) 1.1183(3)
O3 O 0.9170(3) 1.0466(3) 1.1467(2)
N9 N 0.9227(3) 1.2359(4) 1.1468(3)
H22 H 0.8975 1.2964 1.1242
C21 C 1.0069(4) 1.2412(4) 1.2167(3)
H23 H 1.0375 1.3083 1.2170
H24 H 1.0421 1.1776 1.2195
O4 O 0.7508(2) 0.5442(3) 1.0285(2)
O5 O 0.7275(2) 0.4598(3) 0.9136(2)
O6 O 0.7130(2) 0.3519(3) 1.0050(2)
O7 O 0.8537(2) 0.4099(3) 1.0290(2)
O8 O 0.6403(2) 0.6549(3) 0.8785(2)
O9 O 0.8430(3) 0.7282(4) 1.1387(3)
Cu1C Cu 1.73441(4) 0.29274(5) 1.50292(4)
Cu1C_2 Cu -0.26559(4) 0.29274(5) 0.50292(4)
Cu1A Cu 1.26559(4) 0.70726(5) 1.49708(4)
S1C S 1.76171(9) 0.55913(11) 1.49359(8)
N1C N 1.6400(3) 0.2929(3) 1.5297(3)
C1C C 1.6492(4) 0.2400(5) 1.5900(3)
H1C H 1.7011 0.2027 1.6199
C2C C 1.5879(4) 0.2372(5) 1.6103(3)
H2C H 1.5980 0.2001 1.6536
C3C C 1.5105(4) 0.2895(5) 1.5664(3)
H3C H 1.4676 0.2896 1.5798
C4C C 1.4966(3) 0.3430(4) 1.5008(3)
C5C C 1.5645(4) 0.3437(4) 1.4861(3)
H4C H 1.5573 0.3813 1.4439
N2C N 1.4164(3) 0.3942(4) 1.4565(3)
H5C H 1.3836 0.4012 1.4760
C6C C 1.3840(3) 0.4350(4) 1.3848(3)
O1C O 1.4222(2) 0.4282(3) 1.3492(2)
N3C N 1.3059(3) 0.4852(4) 1.3580(2)
H6C H 1.2818 0.4881 1.3853
C7C C 1.2619(4) 0.5345(5) 1.2831(3)
H7C H 1.2235 0.5932 1.2815
H8C H 1.3049 0.5680 1.2731
C8C C 1.2103(4) 0.4506(5) 1.2232(3)
H9C H 1.1694 0.4141 1.2345
H10C H 1.2491 0.3943 1.2226
N4C N 1.1632(3) 0.5023(4) 1.1497(3)
H11C H 1.1864 0.5032 1.1216
C9C C 1.0851(4) 0.5483(4) 1.1244(3)
O2C O 1.0425(2) 0.5444(3) 1.1570(2)
N5C N 1.0555(3) 0.6018(4) 1.0562(2)
H12C H 1.0895 0.5989 1.0376
C10C C 0.9776(3) 0.6599(5) 1.0134(3)
C11C C 0.9082(3) 0.6572(4) 1.0261(3)
H13C H 0.9125 0.6157 1.0660
N6C N 0.8347(3) 0.7132(4) 0.9823(3)
N6_2 N 1.8347(3) 0.2868(4) 1.4823(3)
C12C C 0.8266(4) 0.7702(5) 0.9244(3)
H14C H 0.7745 0.8063 0.8933
C13C C 0.8938(4) 0.7777(5) 0.9086(4)
H15C H 0.8878 0.8196 0.8683
C14C C 0.9691(4) 0.7218(5) 0.9538(3)
H16C H 1.0150 0.7257 0.9443
N7A N 1.2910(3) 0.8704(4) 1.5197(3)
N7C N 1.7090(3) 0.1296(4) 1.4803(3)
C15A C 1.2323(4) 0.9472(4) 1.4772(3)
H17A H 1.1783 0.9242 1.4389
C16A C 1.2503(4) 1.0618(5) 1.4893(3)
C17A C 1.3316(4) 1.0932(4) 1.5486(3)
H18A H 1.3459 1.1680 1.5591
C18A C 1.3896(4) 1.0126(5) 1.5905(4)
H19A H 1.4436 1.0325 1.6302
C19A C 1.3687(4) 0.9030(5) 1.5744(3)
H20A H 1.4099 0.8492 1.6025
N8A N 1.1939(3) 1.1482(3) 1.4482(3)
H21A H 1.2094 1.2145 1.4656
C20A C 1.1149(4) 1.1376(5) 1.3817(3)
O3A O 1.0830(3) 1.0466(3) 1.3533(2)
N9A N 1.0773(3) 1.2359(4) 1.3532(3)
H22A H 1.1025 1.2964 1.3758
C21A C 0.9931(4) 1.2412(4) 1.2833(3)
H23A H 0.9625 1.3083 1.2830
H24A H 0.9579 1.1776 1.2805
O4C O 1.7508(2) 0.4558(3) 1.5285(2)
O5C O 1.7275(2) 0.5402(3) 1.4136(2)
O6C O 1.7130(2) 0.6481(3) 1.5050(2)
O7C O 1.8537(2) 0.5901(3) 1.5290(2)
O8C O 1.6403(2) 0.3451(3) 1.3785(2)
O9C O 1.8430(3) 0.2718(4) 1.6387(3)
O10 O 0.5717(3) 0.7441(4) 0.7372(3)
O11 O 0.9039(4) 0.5149(5) 1.1911(3)
loop_
_geom_bond_atom_site_label_1
_geom_bond_atom_site_label_2
_geom_bond_site_symmetry_1
_geom_bond_site_symmetry_2
Cu1 N1 1_555 1_555
S1 O4 1_555 1_555
N1 C1 1_555 1_555
C1 H1 1_555 1_555
C2 C1 1_555 1_555
H2 C2 1_555 1_555
C3 C2 1_555 1_555
H3 C3 1_555 1_555
C4 C3 1_555 1_555
C5 N1 1_555 1_555
H4 C5 1_555 1_555
N2 C4 1_555 1_555
H5 N2 1_555 1_555
C6 N2 1_555 1_555
O1 C6 1_555 1_555
N3 C6 1_555 1_555
H6 N3 1_555 1_555
C7 N3 1_555 1_555
H7 C7 1_555 1_555
H8 C7 1_555 1_555
C8 C7 1_555 1_555
H9 C8 1_555 1_555
H10 C8 1_555 1_555
N4 C8 1_555 1_555
H11 N4 1_555 1_555
C9 N4 1_555 1_555
O2 C9 1_555 1_555
N5 C9 1_555 1_555
H12 N5 1_555 1_555
C10 N5 1_555 1_555
C11 C10 1_555 1_555
H13 C11 1_555 1_555
N6 C11 1_555 1_555
C12 N6 1_555 1_555
H14 C12 1_555 1_555
C13 C12 1_555 1_555
H15 C13 1_555 1_555
C14 C10 1_555 1_555
H16 C14 1_555 1_555
N7 Cu1 1_555 1_555
C15 N7 1_555 1_555
H17 C15 1_555 1_555
C16 C15 1_555 1_555
C17 C16 1_555 1_555
H18 C17 1_555 1_555
C18 C17 1_555 1_555
H19 C18 1_555 1_555
C19 N7 1_555 1_555
H20 C19 1_555 1_555
N8 C16 1_555 1_555
H21 N8 1_555 1_555
C20 N8 1_555 1_555
O3 C20 1_555 1_555
N9 C20 1_555 1_555
H22 N9 1_555 1_555
C21 N9 1_555 1_555
H23 C21 1_555 1_555
H24 C21 1_555 1_555
O4 Cu1 1_555 1_555
O5 S1 1_555 1_555
O6 S1 1_555 1_555
O7 S1 1_555 1_555
O8 Cu1 1_555 1_555
O9 Cu1 1_555 1_555
Cu1C N1C 1_555 1_555
Cu1C_2 N6 1_555 1_555
Cu1A N7A 1_555 1_555
S1C O4C 1_555 1_555
N1C C1C 1_555 1_555
C1C H1C 1_555 1_555
C2C C1C 1_555 1_555
H2C C2C 1_555 1_555
C3C C2C 1_555 1_555
H3C C3C 1_555 1_555
C4C C3C 1_555 1_555
C5C N1C 1_555 1_555
H4C C5C 1_555 1_555
N2C C4C 1_555 1_555
H5C N2C 1_555 1_555
C6C N2C 1_555 1_555
O1C C6C 1_555 1_555
N3C C6C 1_555 1_555
H6C N3C 1_555 1_555
C7C N3C 1_555 1_555
H7C C7C 1_555 1_555
H8C C7C 1_555 1_555
C8C C7C 1_555 1_555
H9C C8C 1_555 1_555
H10C C8C 1_555 1_555
N4C C8C 1_555 1_555
H11C N4C 1_555 1_555
C9C N4C 1_555 1_555
O2C C9C 1_555 1_555
N5C C9C 1_555 1_555
H12C N5C 1_555 1_555
C10C N5C 1_555 1_555
C11C C10C 1_555 1_555
H13C C11C 1_555 1_555
N6C Cu1 1_555 1_555
N6_2 Cu1C 1_555 1_555
C12C N6C 1_555 1_555
H14C C12C 1_555 1_555
C13C C12C 1_555 1_555
H15C C13C 1_555 1_555
C14C C10C 1_555 1_555
H16C C14C 1_555 1_555
N7A C15A 1_555 1_555
N7C Cu1C 1_555 1_555
C15A H17A 1_555 1_555
C16A C15A 1_555 1_555
C17A C16A 1_555 1_555
H18A C17A 1_555 1_555
C18A C17A 1_555 1_555
H19A C18A 1_555 1_555
C19A N7A 1_555 1_555
H20A C19A 1_555 1_555
N8A C16A 1_555 1_555
H21A N8A 1_555 1_555
C20A N8A 1_555 1_555
O3A C20A 1_555 1_555
N9A C20A 1_555 1_555
H22A N9A 1_555 1_555
C21A C21 1_555 1_555
H23A C21A 1_555 1_555
H24A C21A 1_555 1_555
O4C Cu1C 1_555 1_555
O5C S1C 1_555 1_555
O6C S1C 1_555 1_555
O7C S1C 1_555 1_555
O8C Cu1C 1_555 1_555
O9C Cu1C 1_555 1_555
C4 C5 1_555 1_555
C13 C14 1_555 1_555
C18 C19 1_555 1_555
C4C C5C 1_555 1_555
C11C N6C 1_555 1_555
C13C C14C 1_555 1_555
C18A C19A 1_555 1_555
N9A C21A 1_555 1_555

#END
