
#######################################################################
#
#                 Cambridge Crystallographic Data Centre
#                                CCDC 
#
#######################################################################
#
# If this CIF has been generated from an entry in the Cambridge 
# Structural Database, then it will include bibliographic, chemical, 
# crystal, experimental, refinement or atomic coordinate data resulting 
# from the CCDC's data processing and validation procedures.
#
#######################################################################

data_ODAHUY
_symmetry_cell_setting           orthorhombic
_symmetry_space_group_name_H-M   'I b a 2'
_symmetry_Int_Tables_number      45
_space_group_name_Hall           'I 2 -2c'
loop_
_symmetry_equiv_pos_site_id
_symmetry_equiv_pos_as_xyz
1 x,y,z
2 -x,-y,z
3 -x,y,1/2+z
4 x,-y,1/2+z
5 1/2+x,1/2+y,1/2+z
6 1/2-x,1/2-y,1/2+z
7 1/2-x,1/2+y,z
8 1/2+x,1/2-y,z
_cell_length_a                   12.47640(10)
_cell_length_b                   14.1541(2)
_cell_length_c                   10.49350(10)
_cell_angle_alpha                90
_cell_angle_beta                 90
_cell_angle_gamma                90
_cell_volume                     1853.07
loop_
_atom_site_label
_atom_site_type_symbol
_atom_site_fract_x
_atom_site_fract_y
_atom_site_fract_z
Dy1 Dy -0.131051(10) 0.249894(7) 0.1025(3)
O1 O 0.02723(14) 0.33861(12) 0.0910(2)
O2 O 0.18750(17) 0.27588(14) 0.05438(19)
O3 O 0.28409(15) 0.37874(13) 0.2237(2)
H1 H 0.316(2) 0.4279(16) 0.230(4)
O4 O 0.11976(16) 0.28358(18) 0.3779(2)
H2 H 0.085(4) 0.251(2) 0.330(4)
O5 O 0.19026(16) 0.39875(13) 0.54743(19)
O6 O 0.1871(2) 0.52377(14) 0.4221(2)
O7 O -0.06251(18) 0.11140(15) 0.0009(2)
H3 H -0.076(3) 0.096(3) -0.075(4)
O8 O 0.00164(16) 0.16825(12) 0.22191(19)
O9 O 0.10596(16) 0.04467(15) 0.2590(2)
O10 O -0.1548(2) 0.31712(15) 0.2999(2)
H4 H -0.166(3) 0.3731(14) 0.311(4)
H5 H -0.160(3) 0.289(2) 0.366(3)
C1 C 0.12527(17) 0.3322(2) 0.1108(3)
C2 C 0.1710(2) 0.39696(18) 0.2128(3)
H6 H 0.1605 0.4628 0.1866
C3 C 0.1156(2) 0.3812(2) 0.3397(3)
H7 H 0.0404 0.4004 0.3319
C4 C 0.1687(2) 0.43996(19) 0.4455(3)
C5 C 0.0449(2) 0.09054(19) 0.1893(3)
C6 C 0.0183(2) 0.05256(18) 0.0572(3)
H8 H 0.0830 0.0573 0.0047
Dy1G Dy -0.631051(10) 0.250106(7) 0.1025(3)
Dy1G_2 Dy 0.368949(10) 0.250106(7) 0.1025(3)
Dy1B Dy 0.131051(10) 0.249894(7) 0.6025(3)
Dy1A Dy 0.131051(10) -0.249894(7) 0.1025(3)
Dy1E Dy -0.368949(10) 0.250106(7) 0.6025(3)
O1G O -0.47277(14) 0.16139(12) 0.0910(2)
O2G O -0.31250(17) 0.22412(14) 0.05438(19)
O2_2 O -0.81250(17) 0.27588(14) 0.05438(19)
O3G O -0.21591(15) 0.12126(13) 0.2237(2)
O3_2 O -0.71591(15) 0.37874(13) 0.2237(2)
H1G H -0.184(2) 0.0721(16) 0.230(4)
H1_2 H -0.684(2) 0.4279(16) 0.230(4)
O4G O -0.38024(16) 0.21642(18) 0.3779(2)
O4B O -0.11976(16) 0.28358(18) -0.1221(2)
O4E O -0.61976(16) 0.21642(18) -0.1221(2)
H2G H -0.415(4) 0.249(2) 0.330(4)
H2B H -0.085(4) 0.251(2) -0.170(4)
H2E H -0.585(4) 0.249(2) -0.170(4)
O5G O -0.30974(16) 0.10125(13) 0.54743(19)
O5B O -0.19026(16) 0.39875(13) 0.04743(19)
O5E O -0.69026(16) 0.10125(13) 0.04743(19)
O6G O -0.3129(2) -0.02377(14) 0.4221(2)
O7A O 0.06251(18) -0.11140(15) 0.0009(2)
O7G O -0.56251(18) 0.38860(15) 0.0009(2)
H3A H 0.076(3) -0.096(3) -0.075(4)
H3G H -0.576(3) 0.404(3) -0.075(4)
O8A O -0.00164(16) -0.16825(12) 0.22191(19)
O8G O -0.49836(16) 0.33175(12) 0.22191(19)
O9A O -0.10596(16) -0.04467(15) 0.2590(2)
O10G O -0.6548(2) 0.18288(15) 0.2999(2)
H4G H -0.666(3) 0.1269(14) 0.311(4)
H5G H -0.660(3) 0.211(2) 0.366(3)
C1G C -0.37473(17) 0.1678(2) 0.1108(3)
C2G C -0.3290(2) 0.10304(18) 0.2128(3)
H6G H -0.3395 0.0372 0.1866
C3G C -0.3844(2) 0.1188(2) 0.3397(3)
H7G H -0.4596 0.0996 0.3319
C4G C -0.3313(2) 0.06004(19) 0.4455(3)
C5A C -0.0449(2) -0.09054(19) 0.1893(3)
C6A C -0.0183(2) -0.05256(18) 0.0572(3)
H8A H -0.0830 -0.0573 0.0047
loop_
_geom_bond_atom_site_label_1
_geom_bond_atom_site_label_2
_geom_bond_site_symmetry_1
_geom_bond_site_symmetry_2
Dy1 O1 1_555 1_555
O1 C1 1_555 1_555
O2 C1 1_555 1_555
O3 H1 1_555 1_555
O4 H2 1_555 1_555
O5 C4 1_555 1_555
O6 C4 1_555 1_555
O7 Dy1 1_555 1_555
H3 O7 1_555 1_555
O8 Dy1 1_555 1_555
O9 C5 1_555 1_555
O10 Dy1 1_555 1_555
H4 O10 1_555 1_555
H5 O10 1_555 1_555
C1 C2 1_555 1_555
C2 O3 1_555 1_555
H6 C2 1_555 1_555
C3 O4 1_555 1_555
H7 C3 1_555 1_555
C4 C3 1_555 1_555
C5 O8 1_555 1_555
C6 O7 1_555 1_555
H8 C6 1_555 1_555
Dy1G O1G 1_555 1_555
Dy1G_2 O2 1_555 1_555
Dy1B O4 1_555 1_555
Dy1A O7A 1_555 1_555
Dy1E O4G 1_555 1_555
O1G C1G 1_555 1_555
O2G Dy1 1_555 1_555
O2_2 Dy1G 1_555 1_555
O3G Dy1 1_555 1_555
O3_2 Dy1G 1_555 1_555
H1G O3G 1_555 1_555
H1_2 O3_2 1_555 1_555
O4G H2G 1_555 1_555
O4B Dy1 1_555 1_555
O4E Dy1G 1_555 1_555
H2B O4B 1_555 1_555
H2E O4E 1_555 1_555
O5G Dy1E 1_555 1_555
O5B Dy1 1_555 1_555
O5E Dy1G 1_555 1_555
O6G C4G 1_555 1_555
O7A H3A 1_555 1_555
O7G Dy1G 1_555 1_555
H3G O7G 1_555 1_555
O8A Dy1A 1_555 1_555
O8G Dy1G 1_555 1_555
O9A C5A 1_555 1_555
O10G Dy1G 1_555 1_555
H4G O10G 1_555 1_555
H5G O10G 1_555 1_555
C1G O2G 1_555 1_555
C2G O3G 1_555 1_555
H6G C2G 1_555 1_555
C3G O4G 1_555 1_555
H7G C3G 1_555 1_555
C4G O5G 1_555 1_555
C5A O8A 1_555 1_555
C6A C6 1_555 1_555
H8A C6A 1_555 1_555
O3 Dy1G_2 1_555 1_555
O5 Dy1B 1_555 1_555
C2 C3 1_555 1_555
C5 C6 1_555 1_555
O7A C6A 1_555 1_555
C1G C2G 1_555 1_555
C2G C3G 1_555 1_555
C3G C4G 1_555 1_555
C5A C6A 1_555 1_555

#END
