
#######################################################################
#
#                 Cambridge Crystallographic Data Centre
#                                CCDC 
#
#######################################################################
#
# If this CIF has been generated from an entry in the Cambridge 
# Structural Database, then it will include bibliographic, chemical, 
# crystal, experimental, refinement or atomic coordinate data resulting 
# from the CCDC's data processing and validation procedures.
#
#######################################################################

data_ODAHAC
_symmetry_cell_setting           monoclinic
_symmetry_space_group_name_H-M   'C 2/c'
_symmetry_Int_Tables_number      15
_space_group_name_Hall           '-C 2yn'
loop_
_symmetry_equiv_pos_site_id
_symmetry_equiv_pos_as_xyz
1 x,y,z
2 1/2+x,1/2+y,z
3 x,-y,1/2+z
4 1/2+x,1/2-y,1/2+z
5 -x,-y,-z
6 1/2-x,1/2-y,-z
7 -x,y,1/2-z
8 1/2-x,1/2+y,1/2-z
_cell_length_a                   22.188(2)
_cell_length_b                   11.4027(12)
_cell_length_c                   13.2209(14)
_cell_angle_alpha                90
_cell_angle_beta                 105.571(2)
_cell_angle_gamma                90
_cell_volume                     3222.17
loop_
_atom_site_label
_atom_site_type_symbol
_atom_site_fract_x
_atom_site_fract_y
_atom_site_fract_z
Zn1 Zn 0.0000 0.32325(4) 0.7500
N1 N 0.0000 0.5123(3) 0.7500
N2 N 0.0000 1.1338(3) 0.7500
N3 N 0.09652(12) 0.3080(2) 0.8397(2)
N4 N 0.07468(13) 0.3149(3) 0.5798(2)
O1 O 0.02082(10) 0.3201(2) 0.59811(17)
O2 O 0.09122(12) 0.2222(2) 0.5477(2)
O3 O 0.10807(12) 0.4030(2) 0.5928(2)
C2 C 0.0000 0.7589(4) 0.7500
C3 C -0.01396(14) 0.5743(3) 0.8275(3)
H3 H -0.0240 0.5327 0.8831
C4 C -0.01445(14) 0.6955(3) 0.8301(2)
H4 H -0.0246 0.7352 0.8865
C5 C 0.0000 0.8884(4) 0.7500
C6 C 0.21785(14) 0.2627(3) 0.9663(2)
C7 C 0.19416(15) 0.2076(3) 0.8703(3)
H5 H 0.2193 0.1533 0.8453
C8 C 0.01405(15) 1.0727(3) 0.8399(3)
H6 H 0.0238 1.1147 0.9044
C9 C 0.01497(15) 0.9517(3) 0.8433(2)
H7 H 0.0257 0.9120 0.9089
C10 C 0.17870(15) 0.3429(3) 0.9956(3)
H8 H 0.1927 0.3841 1.0602
C11 C 0.11935(14) 0.3632(3) 0.9311(3)
H9 H 0.0936 0.4190 0.9528
C15 C 0.13425(15) 0.2315(3) 0.8113(3)
H12 H 0.1190 0.1911 0.7466
C4F C 0.01445(14) 0.6955(3) 0.6699(2)
C3F C 0.01396(14) 0.5743(3) 0.6725(3)
H3F H 0.0240 0.5327 0.6169
H4F H 0.0246 0.7352 0.6135
C8F C -0.01405(15) 1.0727(3) 0.6601(3)
H6F H -0.0238 1.1147 0.5956
C9F C -0.01497(15) 0.9517(3) 0.6567(2)
H7F H -0.0257 0.9120 0.5911
C6E C 0.28215(14) 0.2373(3) 1.0337(2)
C7E C 0.30584(15) 0.2924(3) 1.1297(3)
H5E H 0.2807 0.3467 1.1547
C15E C 0.36575(15) 0.2685(3) 1.1887(3)
N3E N 0.40348(12) 0.1920(2) 1.1603(2)
C11E C 0.38065(14) 0.1368(3) 1.0689(3)
C10E C 0.32130(15) 0.1571(3) 1.0044(3)
H8E H 0.3073 0.1159 0.9398
H9E H 0.4064 0.0810 1.0472
H12E H 0.3810 0.3089 1.2534
N4F N -0.07468(13) 0.3149(3) 0.9202(2)
O1F O -0.02082(10) 0.3201(2) 0.90189(17)
O2F O -0.09122(12) 0.2222(2) 0.9523(2)
O3F O -0.10807(12) 0.4030(2) 0.9072(2)
N2_2 N 0.0000 0.1338(3) 0.7500
N3F N -0.09652(12) 0.3080(2) 0.6603(2)
Zn1_2 Zn 0.0000 1.32325(4) 0.7500
Zn1C Zn 0.5000 0.17675(4) 1.2500
N5 N 0.15184(14) 0.3286(3) 0.3937(2)
H1 H 0.1390 0.3151 0.4578
H2 H 0.1210 0.3049 0.3463
N6 N 0.35215(15) 0.5999(3) 0.3569(3)
O4 O 0.39770(13) 0.6112(3) 0.4326(2)
O5 O 0.34874(17) 0.6488(4) 0.2736(3)
C1 C 0.30079(16) 0.5288(3) 0.3664(3)
C12 C 0.30424(16) 0.4693(3) 0.4594(3)
H10 H 0.3411 0.4740 0.5159
C13 C 0.20070(16) 0.3930(3) 0.3853(3)
C14 C 0.25496(16) 0.4043(3) 0.4698(3)
H11 H 0.2570 0.3661 0.5345
C16 C 0.24774(17) 0.5208(3) 0.2822(3)
H13 H 0.2458 0.5614 0.2187
C17 C 0.19799(17) 0.4537(3) 0.2914(3)
H14 H 0.1616 0.4483 0.2341
loop_
_geom_bond_atom_site_label_1
_geom_bond_atom_site_label_2
_geom_bond_site_symmetry_1
_geom_bond_site_symmetry_2
Zn1 N1 1_555 1_555
N1 C3 1_555 1_555
N2 C8 1_555 1_555
N3 Zn1 1_555 1_555
N4 O1 1_555 1_555
N5 H1 1_555 1_555
H2 N5 1_555 1_555
N6 O4 1_555 1_555
O1 Zn1 1_555 1_555
O2 N4 1_555 1_555
O3 N4 1_555 1_555
O5 N6 1_555 1_555
C1 N6 1_555 1_555
C2 C4 1_555 1_555
C3 H3 1_555 1_555
C4 C3 1_555 1_555
H4 C4 1_555 1_555
C5 C2 1_555 1_555
C6 C7 1_555 1_555
C7 H5 1_555 1_555
C8 H6 1_555 1_555
C9 C5 1_555 1_555
H7 C9 1_555 1_555
C10 C6 1_555 1_555
H8 C10 1_555 1_555
C11 N3 1_555 1_555
H9 C11 1_555 1_555
C12 C1 1_555 1_555
H10 C12 1_555 1_555
C13 N5 1_555 1_555
C14 C12 1_555 1_555
H11 C14 1_555 1_555
C15 N3 1_555 1_555
H12 C15 1_555 1_555
C16 C1 1_555 1_555
H13 C16 1_555 1_555
C17 C13 1_555 1_555
H14 C17 1_555 1_555
C4F C2 1_555 1_555
C3F N1 1_555 1_555
H3F C3F 1_555 1_555
H4F C4F 1_555 1_555
C8F N2 1_555 1_555
H6F C8F 1_555 1_555
C9F C5 1_555 1_555
H7F C9F 1_555 1_555
C6E C6 1_555 1_555
C7E C6E 1_555 1_555
H5E C7E 1_555 1_555
C15E C7E 1_555 1_555
N3E C15E 1_555 1_555
C11E N3E 1_555 1_555
C10E C6E 1_555 1_555
H8E C10E 1_555 1_555
H9E C11E 1_555 1_555
H12E C15E 1_555 1_555
N4F O1F 1_555 1_555
O1F Zn1 1_555 1_555
O2F N4F 1_555 1_555
O3F N4F 1_555 1_555
N2_2 Zn1 1_555 1_555
N3F Zn1 1_555 1_555
Zn1_2 N2 1_555 1_555
Zn1C N3E 1_555 1_555
C7 C15 1_555 1_555
C8 C9 1_555 1_555
C10 C11 1_555 1_555
C13 C14 1_555 1_555
C16 C17 1_555 1_555
C4F C3F 1_555 1_555
C8F C9F 1_555 1_555
C11E C10E 1_555 1_555

#END
