
#######################################################################
#
#                 Cambridge Crystallographic Data Centre
#                                CCDC 
#
#######################################################################
#
# If this CIF has been generated from an entry in the Cambridge 
# Structural Database, then it will include bibliographic, chemical, 
# crystal, experimental, refinement or atomic coordinate data resulting 
# from the CCDC's data processing and validation procedures.
#
#######################################################################

data_ODAHEG
_symmetry_cell_setting           monoclinic
_symmetry_space_group_name_H-M   'C 2/c'
_symmetry_Int_Tables_number      15
_space_group_name_Hall           '-C 2yn'
loop_
_symmetry_equiv_pos_site_id
_symmetry_equiv_pos_as_xyz
1 x,y,z
2 1/2+x,1/2+y,z
3 x,-y,1/2+z
4 1/2+x,1/2-y,1/2+z
5 -x,-y,-z
6 1/2-x,1/2-y,-z
7 -x,y,1/2-z
8 1/2-x,1/2+y,1/2-z
_cell_length_a                   27.7126(11)
_cell_length_b                   15.9918(7)
_cell_length_c                   27.4978(10)
_cell_angle_alpha                90
_cell_angle_beta                 112.206(2)
_cell_angle_gamma                90
_cell_volume                     11282.5
loop_
_atom_site_label
_atom_site_type_symbol
_atom_site_fract_x
_atom_site_fract_y
_atom_site_fract_z
Cu2 Cu 0.27704(2) 0.59814(3) 0.710105(19)
N4 N 0.21542(13) 0.6028(2) 0.73291(12)
C29 C 0.17995(17) 0.5416(3) 0.72048(16)
H41 H 0.1838 0.4966 0.6997
C30 C 0.13831(17) 0.5398(3) 0.73600(16)
H42 H 0.1148 0.4939 0.7265
C31 C 0.13050(18) 0.6045(3) 0.76538(17)
C32 C 0.16736(18) 0.6680(3) 0.77866(17)
H43 H 0.1642 0.7139 0.7992
C33 C 0.20837(17) 0.6649(3) 0.76229(16)
H44 H 0.2331 0.7091 0.7723
C34 C 0.08321(19) 0.6063(3) 0.7804(2)
H45 H 0.0526 0.6228 0.7491
H46 H 0.0887 0.6503 0.8073
C35 C 0.0700(2) 0.5234(3) 0.8021(2)
H49 H 0.0346 0.5277 0.8027
H50 H 0.0698 0.4771 0.7781
C36 C 0.1088(3) 0.5030(4) 0.8572(2)
H51 H 0.1077 0.5480 0.8815
H52 H 0.1444 0.5018 0.8569
C37 C 0.0977(4) 0.4185(5) 0.8780(2)
H53 H 0.1012 0.3732 0.8550
H54 H 0.0613 0.4183 0.8759
C38 C 0.1345(2) 0.3995(4) 0.93542(19)
H55 H 0.1353 0.3383 0.9414
H56 H 0.1703 0.4177 0.9408
C39 C 0.1172(3) 0.4431(4) 0.97505(17)
H57 H 0.0822 0.4227 0.9713
H58 H 0.1148 0.5041 0.9683
C45 C 0.15612(16) 0.4259(3) 1.03100(15)
C46 C 0.15245(17) 0.3610(3) 1.06283(17)
H69 H 0.1255 0.3205 1.0497
C47 C 0.18807(17) 0.3559(3) 1.11356(17)
H70 H 0.1850 0.3109 1.1348
C48 C 0.23079(17) 0.4735(3) 1.10390(16)
H71 H 0.2582 0.5129 1.1177
C49 C 0.19624(17) 0.4824(3) 1.05295(17)
H72 H 0.2000 0.5280 1.0325
N5 N 0.22705(13) 0.4108(2) 1.13492(12)
N6 N 0.32575(13) 0.6103(2) 0.78538(12)
C50 C 0.36605(17) 0.6637(3) 0.80126(17)
H73 H 0.3700 0.7009 0.7761
C51 C 0.40194(17) 0.6678(3) 0.85194(17)
H74 H 0.4299 0.7066 0.8610
C52 C 0.39719(16) 0.6146(2) 0.88994(15)
C53 C 0.35523(17) 0.5596(3) 0.87354(17)
H75 H 0.3501 0.5222 0.8980
C54 C 0.32141(17) 0.5593(3) 0.82222(17)
H76 H 0.2932 0.5208 0.8121
C55 C 0.43597(17) 0.6171(3) 0.94577(15)
H77 H 0.4401 0.6759 0.9580
H78 H 0.4701 0.5981 0.9463
C56 C 0.42191(18) 0.5645(3) 0.98433(16)
H79 H 0.4173 0.5059 0.9719
H80 H 0.3880 0.5842 0.9843
C57 C 0.46201(18) 0.5665(3) 1.04079(16)
H81 H 0.4970 0.5536 1.0408
H82 H 0.4632 0.6233 1.0555
C58 C 0.44852(17) 0.5036(3) 1.07515(16)
H83 H 0.4442 0.4479 1.0583
H84 H 0.4147 0.5194 1.0768
C59 C 0.48904(17) 0.4969(3) 1.13106(16)
H85 H 0.4863 0.5464 1.1515
H86 H 0.5244 0.4966 1.1300
C60 C 0.48155(15) 0.4174(2) 1.15851(16)
H87 H 0.4829 0.3684 1.1371
H88 H 0.5109 0.4125 1.1929
C61 C 0.43121(16) 0.4153(2) 1.16717(15)
C62 C 0.39146(17) 0.3584(3) 1.14183(16)
H89 H 0.3951 0.3206 1.1168
C63 C 0.34715(17) 0.3569(3) 1.15293(15)
H90 H 0.3206 0.3179 1.1347
C64 C 0.37789(17) 0.4639(3) 1.21234(16)
H91 H 0.3735 0.5012 1.2372
C65 C 0.42224(16) 0.4693(2) 1.20257(15)
H92 H 0.4475 0.5106 1.2201
N7 N 0.33949(13) 0.4078(2) 1.18830(11)
N8 N 0.27595(14) 0.8236(2) 0.71306(16)
O1 O 0.28873(13) 0.82850(19) 0.76200(12)
O2 O 0.26167(13) 0.8886(2) 0.68691(12)
O3 O 0.27625(12) 0.7548(2) 0.69212(11)
O10 O 0.27909(14) 0.44511(19) 0.71836(12)
H93 H 0.3088(10) 0.422(3) 0.7356(15)
H94 H 0.2564(14) 0.416(3) 0.7237(18)
N5B N 0.22705(13) 0.5892(2) 0.63492(12)
N7B N 0.33949(13) 0.5922(2) 0.68830(11)
Cu2B Cu 0.27704(2) 0.40186(3) 1.210105(19)
N9 N 0.54486(19) 0.7511(3) 0.9585(2)
O4 O 0.52439(14) 0.7618(2) 0.91024(15)
O5 O 0.52612(14) 0.7866(2) 0.98778(14)
O6 O 0.58373(17) 0.7064(3) 0.97652(17)
Cu1 Cu 0.2500 0.2500 0.5000
N1 N 0.26063(13) 0.3705(2) 0.48291(14)
C1 C 0.28999(17) 0.4226(3) 0.52068(18)
H1 H 0.3022 0.4041 0.5561
C2 C 0.30340(16) 0.5021(2) 0.51039(17)
H2 H 0.3242 0.5369 0.5385
C3 C 0.28667(16) 0.5312(2) 0.45935(17)
C4 C 0.25522(16) 0.4782(3) 0.42072(17)
H3 H 0.2416 0.4960 0.3851
C5 C 0.24345(16) 0.3997(3) 0.43355(17)
H4 H 0.2221 0.3644 0.4061
C6 C 0.30119(18) 0.6158(3) 0.44588(18)
H5 H 0.3026 0.6134 0.4105
H6 H 0.3366 0.6300 0.4711
C7 C 0.26379(19) 0.6854(3) 0.44661(17)
H7 H 0.2710 0.7351 0.4290
H8 H 0.2278 0.6670 0.4256
C8 C 0.26627(18) 0.7114(2) 0.50027(16)
H9 H 0.3030 0.7228 0.5229
H10 H 0.2541 0.6643 0.5161
N2 N 0.29980(16) 0.21436(19) 0.46620(15)
C9 C 0.3510(2) 0.2040(3) 0.49514(18)
H11 H 0.3631 0.2134 0.5319
C10 C 0.38606(18) 0.1804(2) 0.47369(17)
H12 H 0.4218 0.1745 0.4956
C11 C 0.36994(17) 0.1653(2) 0.42058(16)
C12 C 0.31802(18) 0.1775(3) 0.39114(18)
H13 H 0.3052 0.1692 0.3542
C13 C 0.28443(19) 0.2015(3) 0.41461(19)
H14 H 0.2487 0.2094 0.3932
C14 C 0.40794(17) 0.1331(2) 0.39778(17)
H15 H 0.4403 0.1667 0.4114
H16 H 0.3927 0.1393 0.3591
C15 C 0.4208(2) 0.0417(3) 0.41185(19)
H17 H 0.3878 0.0096 0.3980
H18 H 0.4344 0.0369 0.4506
C16 C 0.4598(3) -0.0010(4) 0.3925(3)
C17 C 0.4602(3) -0.0967(4) 0.3995(3)
H23 H 0.4640 -0.1097 0.4359
H24 H 0.4265 -0.1198 0.3756
C18 C 0.5047(3) -0.1394(4) 0.3881(3)
H25 H 0.5002 -0.1284 0.3512
H26 H 0.5384 -0.1152 0.4112
C19 C 0.5052(2) -0.2332(4) 0.3971(3)
H27 H 0.5090 -0.2439 0.4338
H28 H 0.5358 -0.2579 0.3920
C24 C 0.45547(19) -0.2758(2) 0.35969(17)
C25 C 0.45480(19) -0.2928(3) 0.31013(17)
H37 H 0.4826 -0.2749 0.3005
C26 C 0.4129(2) -0.3363(3) 0.27471(18)
H38 H 0.4129 -0.3470 0.2407
C27 C 0.3739(2) -0.3468(3) 0.3335(2)
H39 H 0.3453 -0.3648 0.3419
C28 C 0.4139(2) -0.3049(3) 0.37167(19)
H40 H 0.4131 -0.2960 0.4055
N3 N 0.37262(15) -0.3638(2) 0.28540(16)
N10 N 0.13986(18) 0.1975(3) 0.37312(17)
O7 O 0.09262(17) 0.2062(3) 0.35556(18)
O8 O 0.15875(14) 0.1395(2) 0.35497(12)
O9 O 0.16909(12) 0.24472(19) 0.40653(12)
C8E C 0.23373(18) 0.7886(2) 0.49973(16)
C7E C 0.23621(19) 0.8146(3) 0.55339(17)
C6E C 0.19881(18) 0.8842(3) 0.55412(18)
C3E C 0.21333(16) 0.9688(2) 0.54065(17)
C2E C 0.19660(16) 0.9979(2) 0.48961(17)
C1E C 0.21001(17) 1.0774(3) 0.47932(18)
N1E N 0.23937(13) 1.1295(2) 0.51709(14)
C5E C 0.25655(16) 1.1003(3) 0.56645(17)
C4E C 0.24478(16) 1.0218(3) 0.57928(17)
H3E H 0.2584 1.0040 0.6149
H4E H 0.2779 1.1356 0.5939
H1E H 0.1978 1.0959 0.4439
H2E H 0.1758 0.9631 0.4615
H5E H 0.1974 0.8866 0.5895
H6E H 0.1634 0.8700 0.5289
H7E H 0.2290 0.7649 0.5710
H8E H 0.2722 0.8330 0.5744
H9E H 0.1970 0.7772 0.4771
H10E H 0.2459 0.8357 0.4839
N2E N 0.20020(16) 0.28564(19) 0.53380(15)
C9E C 0.1490(2) 0.2960(3) 0.50486(18)
H11E H 0.1369 0.2866 0.4681
C10E C 0.11394(18) 0.3196(2) 0.52631(17)
H12E H 0.0782 0.3255 0.5044
C11E C 0.13006(17) 0.3347(2) 0.57942(16)
C12E C 0.18198(18) 0.3225(3) 0.60886(18)
H13E H 0.1948 0.3308 0.6458
C13E C 0.21557(19) 0.2985(3) 0.58539(19)
H14E H 0.2513 0.2906 0.6068
C14E C 0.09206(17) 0.3669(2) 0.60222(17)
H15E H 0.0597 0.3333 0.5886
H16E H 0.1073 0.3607 0.6409
C15E C 0.0792(2) 0.4583(3) 0.58815(19)
H17E H 0.1122 0.4904 0.6020
H18E H 0.0656 0.4631 0.5494
C16E C 0.0402(3) 0.5010(4) 0.6075(3)
C17E C 0.0398(3) 0.5967(4) 0.6005(3)
H23E H 0.0360 0.6097 0.5641
H24E H 0.0735 0.6198 0.6244
C18E C -0.0047(3) 0.6394(4) 0.6119(3)
H25E H -0.0002 0.6284 0.6488
H26E H -0.0384 0.6152 0.5888
C19E C -0.0052(2) 0.7332(4) 0.6029(3)
H27E H -0.0090 0.7439 0.5662
H28E H -0.0358 0.7579 0.6080
C24E C 0.04453(19) 0.7758(2) 0.64031(17)
C25E C 0.04520(19) 0.7928(3) 0.68987(17)
H37E H 0.0174 0.7749 0.6995
C26E C 0.0871(2) 0.8363(3) 0.72529(18)
H38E H 0.0871 0.8470 0.7593
C27E C 0.1261(2) 0.8468(3) 0.6665(2)
H39E H 0.1547 0.8648 0.6581
C28E C 0.0861(2) 0.8049(3) 0.62833(19)
H40E H 0.0869 0.7960 0.5945
N3E N 0.12738(15) 0.8638(2) 0.71460(16)
N10E N 0.36014(18) 0.3025(3) 0.62688(17)
O7E O 0.40738(17) 0.2938(3) 0.64444(18)
O8E O 0.34125(14) 0.3605(2) 0.64503(12)
O9E O 0.33091(12) 0.25528(19) 0.59347(12)
N1E_2 N 0.23937(13) 0.1295(2) 0.51709(14)
Cu1_2 Cu 0.2500 1.2500 0.5000
H19? H 0.3945 0.0046 0.3867
H20? H 0.4224 0.0297 0.4477
H21? H 0.4952 0.0213 0.4123
H22? H 0.4506 0.0123 0.3549
C20? C 0.4749(4) 0.0302(6) 0.4084(6)
H29? H 0.4718 0.0437 0.3722
H30? H 0.4994 0.0709 0.4323
C21? C 0.4983(4) -0.0579(5) 0.4223(4)
H31? H 0.5011 -0.0721 0.4583
H32? H 0.5339 -0.0578 0.4220
C22? C 0.4656(5) -0.1256(6) 0.3840(5)
H33? H 0.4294 -0.1239 0.3826
H34? H 0.4647 -0.1138 0.3483
C23? C 0.4882(5) -0.2123(5) 0.4008(5)
H35? H 0.4874 -0.2261 0.4356
H36? H 0.5248 -0.2140 0.4036
H47? H 0.0554 0.5707 0.7558
H48? H 0.0697 0.6642 0.7774
C40? C 0.0969(6) 0.5746(10) 0.8370(4)
H59? H 0.1241 0.6106 0.8621
H60? H 0.0656 0.5763 0.8462
C41? C 0.1165(11) 0.4859(12) 0.8401(7)
H61? H 0.1546 0.4874 0.8487
H62? H 0.1000 0.4596 0.8051
C42? C 0.1060(14) 0.4312(10) 0.8806(4)
H63? H 0.1190 0.3740 0.8789
H64? H 0.0679 0.4277 0.8714
C43? C 0.1325(7) 0.4649(11) 0.9381(5)
H65? H 0.1706 0.4702 0.9477
H66? H 0.1184 0.5208 0.9410
C44? C 0.1211(9) 0.4029(13) 0.9748(3)
H67? H 0.0840 0.4064 0.9704
H68? H 0.1284 0.3451 0.9668
C66? C 0.4574(12) 0.7823(12) 0.7589(9)
H95? H 0.4264 0.7952 0.7271
H96? H 0.4547 0.7238 0.7694
C67? C 0.5074(16) 0.7944(11) 0.748(2)
H97? H 0.5075 0.7554 0.7206
H98? H 0.5379 0.7836 0.7803
H99? H 0.5089 0.8519 0.7364
O11? O 0.4607(3) 0.8381(5) 0.8003(3)
H100? H 0.4473 0.8156 0.8199
loop_
_geom_bond_atom_site_label_1
_geom_bond_atom_site_label_2
_geom_bond_site_symmetry_1
_geom_bond_site_symmetry_2
Cu1 N1 1_555 1_555
N1 C1 1_555 1_555
C1 H1 1_555 1_555
C2 C1 1_555 1_555
H2 C2 1_555 1_555
C3 C2 1_555 1_555
C4 C3 1_555 1_555
H3 C4 1_555 1_555
C5 N1 1_555 1_555
H4 C5 1_555 1_555
C6 C3 1_555 1_555
H5 C6 1_555 1_555
H6 C6 1_555 1_555
C7 C6 1_555 1_555
H7 C7 1_555 1_555
H8 C7 1_555 1_555
C8 C7 1_555 1_555
H9 C8 1_555 1_555
H10 C8 1_555 1_555
Cu2 N4 1_555 1_555
N2 Cu1 1_555 1_555
C9 N2 1_555 1_555
H11 C9 1_555 1_555
C10 C9 1_555 1_555
H12 C10 1_555 1_555
C11 C10 1_555 1_555
C12 C11 1_555 1_555
H13 C12 1_555 1_555
C13 N2 1_555 1_555
H14 C13 1_555 1_555
C14 C11 1_555 1_555
H15 C14 1_555 1_555
H16 C14 1_555 1_555
C15 C14 1_555 1_555
H17 C15 1_555 1_555
H18 C15 1_555 1_555
C16 C15 1_555 1_555
C17 C16 1_555 1_555
H23 C17 1_555 1_555
H24 C17 1_555 1_555
C18 C17 1_555 1_555
H25 C18 1_555 1_555
H26 C18 1_555 1_555
C19 C18 1_555 1_555
H27 C19 1_555 1_555
H28 C19 1_555 1_555
C24 C19 1_555 1_555
C25 C24 1_555 1_555
H37 C25 1_555 1_555
C26 C25 1_555 1_555
H38 C26 1_555 1_555
C27 H39 1_555 1_555
C28 C24 1_555 1_555
H40 C28 1_555 1_555
N3 C26 1_555 1_555
N4 C29 1_555 1_555
C29 H41 1_555 1_555
C30 C29 1_555 1_555
H42 C30 1_555 1_555
C31 C30 1_555 1_555
C32 C31 1_555 1_555
H43 C32 1_555 1_555
C33 N4 1_555 1_555
H44 C33 1_555 1_555
C34 C31 1_555 1_555
H45 C34 1_555 1_555
H46 C34 1_555 1_555
C35 C34 1_555 1_555
H49 C35 1_555 1_555
H50 C35 1_555 1_555
C36 C35 1_555 1_555
H51 C36 1_555 1_555
H52 C36 1_555 1_555
C37 C36 1_555 1_555
H53 C37 1_555 1_555
H54 C37 1_555 1_555
C38 C37 1_555 1_555
H55 C38 1_555 1_555
H56 C38 1_555 1_555
C39 C38 1_555 1_555
H57 C39 1_555 1_555
H58 C39 1_555 1_555
C45 C39 1_555 1_555
C46 C45 1_555 1_555
H69 C46 1_555 1_555
C47 C46 1_555 1_555
H70 C47 1_555 1_555
C48 H71 1_555 1_555
C49 C45 1_555 1_555
H72 C49 1_555 1_555
N5 C47 1_555 1_555
N6 Cu2 1_555 1_555
C50 N6 1_555 1_555
H73 C50 1_555 1_555
C51 C50 1_555 1_555
H74 C51 1_555 1_555
C52 C51 1_555 1_555
C53 C52 1_555 1_555
H75 C53 1_555 1_555
C54 N6 1_555 1_555
H76 C54 1_555 1_555
C55 C52 1_555 1_555
H77 C55 1_555 1_555
H78 C55 1_555 1_555
C56 C55 1_555 1_555
H79 C56 1_555 1_555
H80 C56 1_555 1_555
C57 C56 1_555 1_555
H81 C57 1_555 1_555
H82 C57 1_555 1_555
C58 C57 1_555 1_555
H83 C58 1_555 1_555
H84 C58 1_555 1_555
C59 C58 1_555 1_555
H85 C59 1_555 1_555
H86 C59 1_555 1_555
C60 C59 1_555 1_555
H87 C60 1_555 1_555
H88 C60 1_555 1_555
C61 C60 1_555 1_555
C62 C61 1_555 1_555
H89 C62 1_555 1_555
C63 C62 1_555 1_555
H90 C63 1_555 1_555
C64 H91 1_555 1_555
C65 C61 1_555 1_555
H92 C65 1_555 1_555
N7 C63 1_555 1_555
N8 O1 1_555 1_555
O2 N8 1_555 1_555
O3 Cu2 1_555 1_555
N9 O4 1_555 1_555
O5 N9 1_555 1_555
O6 N9 1_555 1_555
N10 O7 1_555 1_555
O8 N10 1_555 1_555
O9 Cu1 1_555 1_555
O10 Cu2 1_555 1_555
H93 O10 1_555 1_555
H94 O10 1_555 1_555
C8E C8 1_555 1_555
C7E C8E 1_555 1_555
C6E C7E 1_555 1_555
C3E C6E 1_555 1_555
C2E C3E 1_555 1_555
C1E C2E 1_555 1_555
N1E C1E 1_555 1_555
C5E N1E 1_555 1_555
C4E C3E 1_555 1_555
H3E C4E 1_555 1_555
H4E C5E 1_555 1_555
H1E C1E 1_555 1_555
H2E C2E 1_555 1_555
H5E C6E 1_555 1_555
H6E C6E 1_555 1_555
H7E C7E 1_555 1_555
H8E C7E 1_555 1_555
H9E C8E 1_555 1_555
H10E C8E 1_555 1_555
N2E Cu1 1_555 1_555
C9E N2E 1_555 1_555
H11E C9E 1_555 1_555
C10E C9E 1_555 1_555
H12E C10E 1_555 1_555
C11E C10E 1_555 1_555
C12E C11E 1_555 1_555
H13E C12E 1_555 1_555
C13E N2E 1_555 1_555
H14E C13E 1_555 1_555
C14E C11E 1_555 1_555
H15E C14E 1_555 1_555
H16E C14E 1_555 1_555
C15E C14E 1_555 1_555
H17E C15E 1_555 1_555
H18E C15E 1_555 1_555
C16E C15E 1_555 1_555
C17E C16E 1_555 1_555
H23E C17E 1_555 1_555
H24E C17E 1_555 1_555
C18E C17E 1_555 1_555
H25E C18E 1_555 1_555
H26E C18E 1_555 1_555
C19E C18E 1_555 1_555
H27E C19E 1_555 1_555
H28E C19E 1_555 1_555
C24E C19E 1_555 1_555
C25E C24E 1_555 1_555
H37E C25E 1_555 1_555
C26E C25E 1_555 1_555
H38E C26E 1_555 1_555
C27E H39E 1_555 1_555
C28E C24E 1_555 1_555
H40E C28E 1_555 1_555
N3E C26E 1_555 1_555
N10E O7E 1_555 1_555
O8E N10E 1_555 1_555
O9E Cu1 1_555 1_555
N5B Cu2 1_555 1_555
N7B Cu2 1_555 1_555
N1E_2 Cu1 1_555 1_555
Cu2B N5 1_555 1_555
Cu1_2 N1E 1_555 1_555
C4 C5 1_555 1_555
C12 C13 1_555 1_555
C27 N3 1_555 1_555
C27 C28 1_555 1_555
C32 C33 1_555 1_555
C48 N5 1_555 1_555
C48 C49 1_555 1_555
C53 C54 1_555 1_555
C64 N7 1_555 1_555
C64 C65 1_555 1_555
N7 Cu2B 1_555 1_555
N8 O3 1_555 1_555
N10 O9 1_555 1_555
C5E C4E 1_555 1_555
C12E C13E 1_555 1_555
C27E N3E 1_555 1_555
C27E C28E 1_555 1_555
N10E O9E 1_555 1_555

#END
