
#######################################################################
#
#                 Cambridge Crystallographic Data Centre
#                                CCDC 
#
#######################################################################
#
# If this CIF has been generated from an entry in the Cambridge 
# Structural Database, then it will include bibliographic, chemical, 
# crystal, experimental, refinement or atomic coordinate data resulting 
# from the CCDC's data processing and validation procedures.
#
#######################################################################

data_ODAJEI
_symmetry_cell_setting           monoclinic
_symmetry_space_group_name_H-M   'P 21/n'
_symmetry_Int_Tables_number      14
_space_group_name_Hall           '-P 2yn'
loop_
_symmetry_equiv_pos_site_id
_symmetry_equiv_pos_as_xyz
1 x,y,z
2 1/2+x,1/2-y,1/2+z
3 -x,-y,-z
4 1/2-x,1/2+y,1/2-z
_cell_length_a                   15.5291(11)
_cell_length_b                   7.0953(5)
_cell_length_c                   18.9441(12)
_cell_angle_alpha                90
_cell_angle_beta                 99.350(2)
_cell_angle_gamma                90
_cell_volume                     2059.6
loop_
_atom_site_label
_atom_site_type_symbol
_atom_site_fract_x
_atom_site_fract_y
_atom_site_fract_z
K1 K 0.81878(5) 0.14547(10) 0.76177(4)
S1 S 0.90312(5) -0.33575(11) 0.77487(4)
O1 O 0.94459(12) -0.2520(3) 1.02706(9)
O2 O 0.72777(15) -0.3481(3) 1.17407(12)
O3 O 0.60284(15) -0.2379(3) 1.06940(13)
O4 O 0.64199(14) -0.1293(3) 0.94061(12)
H1 H 0.6615 -0.1089 0.9036
O5 O 0.76054(13) -0.1196(3) 0.85625(10)
O6 O 0.92839(13) -0.1697(3) 0.83640(9)
O7 O 0.85355(14) -0.4750(3) 0.80671(10)
O8 O 0.85212(16) -0.2311(3) 0.71755(10)
O9 O 0.98626(15) -0.3982(4) 0.76095(13)
O10 O 1.33192(15) -0.2976(3) 0.97710(13)
O11 O 0.9761(2) 0.2058(5) 0.7252(2)
H2 H 0.9896 0.3169 0.7223
C1 C 0.96918(19) -0.2292(4) 0.96143(14)
C2 C 0.90606(19) -0.1943(4) 0.90358(14)
C3 C 0.8167(2) -0.1652(4) 0.90967(15)
C4 C 0.7074(2) -0.1824(4) 0.99246(16)
C5 C 0.6883(2) -0.2331(4) 1.05877(17)
C6 C 0.7556(2) -0.2930(4) 1.11294(16)
C7 C 0.8413(2) -0.2951(4) 1.10247(15)
H3 H 0.8859 -0.3285 1.1392
C8 C 0.85903(19) -0.2461(4) 1.03565(14)
C9 C 0.79411(19) -0.1940(4) 0.97938(14)
C10 C 0.7903(3) -0.4267(6) 1.22906(18)
H4 H 0.7625 -0.4594 1.2691
H5 H 0.8356 -0.3362 1.2439
H6 H 0.8151 -0.5376 1.2115
C11 C 0.5734(2) -0.0732(6) 1.1001(2)
H7 H 0.5133 -0.0884 1.1052
H8 H 0.5790 0.0328 1.0697
H9 H 0.6079 -0.0521 1.1463
C12 C 1.0252(3) 0.0953(7) 0.6850(3)
H10 H 1.0788 0.1587 0.6812
H11 H 0.9925 0.0756 0.6380
H12 H 1.0377 -0.0242 0.7082
C13 C 1.06340(19) -0.2459(4) 0.96583(14)
C14 C 1.1148(2) -0.3063(4) 1.02968(16)
H13 H 1.0878 -0.3353 1.0687
C15 C 1.2042(2) -0.3237(4) 1.03614(16)
H14 H 1.2369 -0.3634 1.0791
C16 C 1.2450(2) -0.2821(4) 0.97855(17)
C17 C 1.1953(2) -0.2170(4) 0.91541(16)
H15 H 1.2230 -0.1847 0.8772
C18 C 1.1070(2) -0.1998(4) 0.90843(16)
H16 H 1.0752 -0.1574 0.8655
C19 C 1.3875(2) -0.3602(5) 1.0400(2)
H17 H 1.4467 -0.3634 1.0314
H18 H 1.3701 -0.4842 1.0522
H19 H 1.3830 -0.2752 1.0786
O5C O 0.73946(13) 0.3804(3) 0.64375(10)
O7_2 O 0.85355(14) 0.5250(3) 0.80671(10)
O7C O 0.64645(14) 0.0250(3) 0.69329(10)
O8C O 0.64788(16) 0.2689(3) 0.78245(10)
K1C K 0.68122(5) -0.35453(10) 0.73823(4)
K1_2 K 0.81878(5) -0.85453(10) 0.76177(4)
loop_
_geom_bond_atom_site_label_1
_geom_bond_atom_site_label_2
_geom_bond_site_symmetry_1
_geom_bond_site_symmetry_2
K1 O5 1_555 1_555
S1 O6 1_555 1_555
O1 C1 1_555 1_555
O2 C6 1_555 1_555
O3 C5 1_555 1_555
O4 H1 1_555 1_555
O5 C3 1_555 1_555
O6 K1 1_555 1_555
O7 S1 1_555 1_555
O8 K1 1_555 1_555
O9 S1 1_555 1_555
O10 C16 1_555 1_555
O11 K1 1_555 1_555
H2 O11 1_555 1_555
C1 C2 1_555 1_555
C2 O6 1_555 1_555
C3 C2 1_555 1_555
C4 O4 1_555 1_555
C5 C4 1_555 1_555
C6 C5 1_555 1_555
C7 C6 1_555 1_555
H3 C7 1_555 1_555
C8 O1 1_555 1_555
C9 C3 1_555 1_555
C10 O2 1_555 1_555
H4 C10 1_555 1_555
H5 C10 1_555 1_555
H6 C10 1_555 1_555
C11 O3 1_555 1_555
H7 C11 1_555 1_555
H8 C11 1_555 1_555
H9 C11 1_555 1_555
C12 O11 1_555 1_555
H10 C12 1_555 1_555
H11 C12 1_555 1_555
H12 C12 1_555 1_555
C13 C1 1_555 1_555
C14 C13 1_555 1_555
H13 C14 1_555 1_555
C15 C14 1_555 1_555
H14 C15 1_555 1_555
C16 C15 1_555 1_555
C17 C16 1_555 1_555
H15 C17 1_555 1_555
C18 C13 1_555 1_555
H16 C18 1_555 1_555
C19 O10 1_555 1_555
H17 C19 1_555 1_555
H18 C19 1_555 1_555
H19 C19 1_555 1_555
O5C K1 1_555 1_555
O7_2 K1 1_555 1_555
O7C K1 1_555 1_555
O8C K1 1_555 1_555
K1C O5 1_555 1_555
K1_2 O7 1_555 1_555
S1 O8 1_555 1_555
O7 K1C 1_555 1_555
O8 K1C 1_555 1_555
C4 C9 1_555 1_555
C7 C8 1_555 1_555
C8 C9 1_555 1_555
C17 C18 1_555 1_555
O7C K1C 1_555 1_555

#END
