
#######################################################################
#
#                 Cambridge Crystallographic Data Centre
#                                CCDC 
#
#######################################################################
#
# If this CIF has been generated from an entry in the Cambridge 
# Structural Database, then it will include bibliographic, chemical, 
# crystal, experimental, refinement or atomic coordinate data resulting 
# from the CCDC's data processing and validation procedures.
#
#######################################################################

data_ODAJIO
_symmetry_cell_setting           orthorhombic
_symmetry_space_group_name_H-M   'I b a 2'
_symmetry_Int_Tables_number      45
_space_group_name_Hall           'I 2 -2c'
loop_
_symmetry_equiv_pos_site_id
_symmetry_equiv_pos_as_xyz
1 x,y,z
2 -x,-y,z
3 -x,y,1/2+z
4 x,-y,1/2+z
5 1/2+x,1/2+y,1/2+z
6 1/2-x,1/2-y,1/2+z
7 1/2-x,1/2+y,z
8 1/2+x,1/2-y,z
_cell_length_a                   12.5257(2)
_cell_length_b                   14.20850(10)
_cell_length_c                   10.53970(10)
_cell_angle_alpha                90
_cell_angle_beta                 90
_cell_angle_gamma                90
_cell_volume                     1875.77
loop_
_atom_site_label
_atom_site_type_symbol
_atom_site_fract_x
_atom_site_fract_y
_atom_site_fract_z
Eu1 Eu 1.132090(9) 0.750117(6) 0.89768(17)
O1 O 0.97389(11) 0.65911(11) 0.90775(15)
O2 O 0.81482(14) 0.72301(13) 0.94394(15)
O3 O 0.71697(12) 0.61941(11) 0.77783(16)
H1 H 0.684(2) 0.5704(15) 0.767(3)
O4 O 0.88009(12) 0.71556(14) 0.62358(16)
H2 H 0.919(3) 0.7457(16) 0.673(3)
O5 O 0.80735(13) 0.60123(11) 0.45444(14)
O6 O 0.81224(18) 0.47613(13) 0.57791(16)
O7 O 1.05993(14) 0.88878(12) 0.99937(16)
H3 H 1.074(2) 0.904(2) 1.070(3)
O8 O 0.99786(13) 0.83204(10) 0.77842(14)
O9 O 0.89442(13) 0.95544(12) 0.74006(17)
O10 O 1.15406(17) 0.68235(13) 0.69780(16)
H4 H 1.160(3) 0.6261(12) 0.682(3)
H5 H 1.162(3) 0.7127(19) 0.636(2)
C1 C 0.87618(14) 0.66592(18) 0.8885(2)
C2 C 0.82943(16) 0.60136(15) 0.7874(2)
H6 H 0.8404 0.5358 0.8130
C3 C 0.88434(18) 0.61810(17) 0.6607(2)
H7 H 0.9592 0.5988 0.6676
C4 C 0.83002(17) 0.55944(15) 0.5557(2)
C5 C 0.95515(17) 0.90932(15) 0.8099(2)
C6 C 0.98172(16) 0.94802(15) 0.9418(2)
H8 H 0.9167 0.9440 0.9933
Eu1G Eu 1.632090(9) 0.749883(6) 0.89768(17)
Eu1G_2 Eu 0.632090(9) 0.749883(6) 0.89768(17)
Eu1B Eu 0.867910(9) 0.750117(6) 0.39768(17)
Eu1A Eu 0.867910(9) 1.249883(6) 0.89768(17)
Eu1E Eu 1.367910(9) 0.749883(6) 0.39768(17)
O1G O 1.47389(11) 0.84089(11) 0.90775(15)
O2G O 1.31482(14) 0.77699(13) 0.94394(15)
O2_2 O 1.81482(14) 0.72301(13) 0.94394(15)
O3G O 1.21697(12) 0.88059(11) 0.77783(16)
O3_2 O 1.71697(12) 0.61941(11) 0.77783(16)
H1G H 1.184(2) 0.9296(15) 0.767(3)
H1_2 H 1.684(2) 0.5704(15) 0.767(3)
O4G O 1.38009(12) 0.78444(14) 0.62358(16)
O4B O 1.11991(12) 0.71556(14) 1.12358(16)
O4E O 1.61991(12) 0.78444(14) 1.12358(16)
H2G H 1.419(3) 0.7543(16) 0.673(3)
H2B H 1.081(3) 0.7457(16) 1.173(3)
H2E H 1.581(3) 0.7543(16) 1.173(3)
O5G O 1.30735(13) 0.89877(11) 0.45444(14)
O5B O 1.19265(13) 0.60123(11) 0.95444(14)
O5E O 1.69265(13) 0.89877(11) 0.95444(14)
O6G O 1.31224(18) 1.02387(13) 0.57791(16)
O7A O 0.94007(14) 1.11122(12) 0.99937(16)
O7G O 1.55993(14) 0.61122(12) 0.99937(16)
H3A H 0.926(2) 1.096(2) 1.070(3)
H3G H 1.574(2) 0.596(2) 1.070(3)
O8A O 1.00214(13) 1.16796(10) 0.77842(14)
O8G O 1.49786(13) 0.66796(10) 0.77842(14)
O9A O 1.10558(13) 1.04456(12) 0.74006(17)
O10G O 1.65406(17) 0.81765(13) 0.69780(16)
H4G H 1.660(3) 0.8739(12) 0.682(3)
H5G H 1.662(3) 0.7873(19) 0.636(2)
C1G C 1.37618(14) 0.83408(18) 0.8885(2)
C2G C 1.32943(16) 0.89864(15) 0.7874(2)
H6G H 1.3404 0.9642 0.8130
C3G C 1.38434(18) 0.88190(17) 0.6607(2)
H7G H 1.4592 0.9012 0.6676
C4G C 1.33002(17) 0.94056(15) 0.5557(2)
C5A C 1.04485(17) 1.09068(15) 0.8099(2)
C6A C 1.01828(16) 1.05198(15) 0.9418(2)
H8A H 1.0833 1.0560 0.9933
loop_
_geom_bond_atom_site_label_1
_geom_bond_atom_site_label_2
_geom_bond_site_symmetry_1
_geom_bond_site_symmetry_2
Eu1 O1 1_555 1_555
O1 C1 1_555 1_555
O2 C1 1_555 1_555
O3 H1 1_555 1_555
O4 H2 1_555 1_555
O5 C4 1_555 1_555
O6 C4 1_555 1_555
O7 Eu1 1_555 1_555
H3 O7 1_555 1_555
O8 Eu1 1_555 1_555
O9 C5 1_555 1_555
O10 Eu1 1_555 1_555
H4 O10 1_555 1_555
H5 O10 1_555 1_555
C1 C2 1_555 1_555
C2 O3 1_555 1_555
H6 C2 1_555 1_555
C3 O4 1_555 1_555
H7 C3 1_555 1_555
C4 C3 1_555 1_555
C5 O8 1_555 1_555
C6 O7 1_555 1_555
H8 C6 1_555 1_555
Eu1G O1G 1_555 1_555
Eu1G_2 O2 1_555 1_555
Eu1B O4 1_555 1_555
Eu1A O7A 1_555 1_555
Eu1E O4G 1_555 1_555
O1G C1G 1_555 1_555
O2G Eu1 1_555 1_555
O2_2 Eu1G 1_555 1_555
O3G Eu1 1_555 1_555
O3_2 Eu1G 1_555 1_555
H1G O3G 1_555 1_555
H1_2 O3_2 1_555 1_555
O4G H2G 1_555 1_555
O4B Eu1 1_555 1_555
O4E Eu1G 1_555 1_555
H2B O4B 1_555 1_555
H2E O4E 1_555 1_555
O5G Eu1E 1_555 1_555
O5B Eu1 1_555 1_555
O5E Eu1G 1_555 1_555
O6G C4G 1_555 1_555
O7A H3A 1_555 1_555
O7G Eu1G 1_555 1_555
H3G O7G 1_555 1_555
O8A Eu1A 1_555 1_555
O8G Eu1G 1_555 1_555
O9A C5A 1_555 1_555
O10G Eu1G 1_555 1_555
H4G O10G 1_555 1_555
H5G O10G 1_555 1_555
C1G O2G 1_555 1_555
C2G O3G 1_555 1_555
H6G C2G 1_555 1_555
C3G O4G 1_555 1_555
H7G C3G 1_555 1_555
C4G O5G 1_555 1_555
C5A O8A 1_555 1_555
C6A C6 1_555 1_555
H8A C6A 1_555 1_555
O3 Eu1G_2 1_555 1_555
O5 Eu1B 1_555 1_555
C2 C3 1_555 1_555
C5 C6 1_555 1_555
O7A C6A 1_555 1_555
C1G C2G 1_555 1_555
C2G C3G 1_555 1_555
C3G C4G 1_555 1_555
C5A C6A 1_555 1_555

#END
