
#######################################################################
#
#                 Cambridge Crystallographic Data Centre
#                                CCDC 
#
#######################################################################
#
# If this CIF has been generated from an entry in the Cambridge 
# Structural Database, then it will include bibliographic, chemical, 
# crystal, experimental, refinement or atomic coordinate data resulting 
# from the CCDC's data processing and validation procedures.
#
#######################################################################

data_ODAKEL
_symmetry_cell_setting           monoclinic
_symmetry_space_group_name_H-M   'C c'
_symmetry_Int_Tables_number      9
_space_group_name_Hall           'C -2yc'
loop_
_symmetry_equiv_pos_site_id
_symmetry_equiv_pos_as_xyz
1 x,y,z
2 x,-y,1/2+z
3 1/2+x,1/2+y,z
4 1/2+x,1/2-y,1/2+z
_cell_length_a                   19.80(3)
_cell_length_b                   20.20(2)
_cell_length_c                   18.01(3)
_cell_angle_alpha                90
_cell_angle_beta                 108.40(4)
_cell_angle_gamma                90
_cell_volume                     6835.02
loop_
_atom_site_label
_atom_site_type_symbol
_atom_site_fract_x
_atom_site_fract_y
_atom_site_fract_z
Mn1 Mn 0.54253(2) 0.63900(2) 0.87235(2)
Mn2 Mn 0.40491(2) 0.520742(19) 0.79182(3)
Mn3 Mn 0.53585(2) 0.140445(19) 0.76353(2)
Mn4 Mn 0.39696(2) 1.022540(18) 0.74248(2)
O1 O 0.43643(12) 0.67459(11) 0.82027(16)
O2 O 0.57322(13) 0.73790(11) 0.83903(14)
O3 O 0.50898(11) 0.53760(10) 0.89015(12)
O4 O 0.53314(15) 0.66540(13) 0.98522(15)
O5 O 0.34391(12) 0.60697(10) 0.77781(15)
O6 O 0.30796(13) 0.45952(11) 0.73875(17)
O7 O 0.41140(12) 0.41089(11) 0.77753(17)
O8 O 0.42781(12) 0.17200(12) 0.73088(17)
O9 O 0.50276(11) 1.03974(10) 0.71968(12)
O10 O 0.54098(15) 0.17181(13) 0.65015(14)
O11 O 0.64640(12) 0.11488(14) 0.79129(15)
O12 O 0.56608(15) 0.23696(12) 0.81870(15)
O13 O 0.33425(12) 0.10793(10) 0.72008(14)
O14 O 0.41756(12) 0.49999(13) 0.92190(13)
O15 O 0.41025(10) 0.91162(10) 0.75782(14)
O16 O 0.30431(11) 0.95640(10) 0.72027(16)
O17 O 0.45542(12) 0.45527(12) 1.20850(14)
O18 O 0.41002(12) 1.00972(13) 0.62047(13)
O19 O 0.54296(13) 0.90069(11) 0.37454(13)
O20 O 0.65449(12) 0.62375(13) 0.93410(14)
N1 N 0.4841(2) 0.66976(18) 1.0811(2)
N2 N 0.54951(14) 0.81926(13) 0.74771(17)
N3 N 0.5575(4) 0.2993(3) 0.9177(4)
N5 N 0.51307(19) 0.16279(16) 0.51917(17)
N6 N 0.73496(16) 0.08099(18) 0.8956(2)
N8 N 0.77157(16) 0.62975(19) 0.9464(2)
C1 C 0.32471(15) 0.72166(13) 0.75415(18)
C2 C 0.35433(14) 0.78405(13) 0.75737(17)
H1 H 0.4034 0.7894 0.7782
C3 C 0.31150(14) 0.83839(13) 0.72981(18)
C4 C 0.23792(16) 0.83012(15) 0.6976(2)
H2 H 0.2086 0.8664 0.6788
C5 C 0.20900(17) 0.76721(17) 0.6939(3)
H3 H 0.1601 0.7614 0.6724
C6 C 0.25173(16) 0.71345(15) 0.7217(2)
H4 H 0.2318 0.6715 0.7189
C7 C 0.37251(16) 0.66376(14) 0.78650(18)
C8 C 0.34411(14) 0.90591(13) 0.73609(17)
C9 C 0.4841(3) 0.6762(2) 1.0077(3)
H5 H 0.4421 0.6903 0.9709
C10 C 0.4199(3) 0.6895(3) 1.0977(3)
H6 H 0.3855 0.7056 1.0507
H7 H 0.4310 0.7238 1.1365
H8 H 0.4006 0.6521 1.1170
C11 C 0.5375(3) 0.6451(2) 1.1440(4)
H9 H 0.5776 0.6332 1.1278
H10 H 0.5205 0.6067 1.1640
H11 H 0.5515 0.6783 1.1842
C12 C 0.54686(16) 0.75775(15) 0.7711(2)
H12 H 0.5233 0.7269 0.7336
C13 C 0.5847(2) 0.87073(17) 0.8019(3)
H13 H 0.6056 0.8520 0.8530
H14 H 0.5507 0.9039 0.8041
H15 H 0.6213 0.8905 0.7847
C14 C 0.5149(2) 0.83859(19) 0.6668(2)
H16 H 0.4935 0.8004 0.6368
H17 H 0.5495 0.8572 0.6456
H18 H 0.4787 0.8709 0.6646
C15 C 0.53074(15) 0.49841(14) 1.02116(18)
C16 C 0.50253(15) 0.47642(13) 1.07864(18)
H19 H 0.4535 0.4739 1.0680
C17 C 0.54784(16) 0.45826(14) 1.15195(17)
C18 C 0.62041(17) 0.46259(17) 1.1678(2)
H20 H 0.6507 0.4500 1.2166
C19 C 0.64887(17) 0.48580(18) 1.1108(2)
H21 H 0.6979 0.4888 1.1219
C20 C 0.60432(16) 0.50415(16) 1.03841(19)
H22 H 0.6232 0.5204 1.0009
C21 C 0.48233(16) 0.51349(13) 0.94122(18)
C22 C 0.51744(17) 0.43595(14) 1.21473(18)
C23 C 0.30918(15) 0.34228(14) 0.7319(2)
C24 C 0.34978(15) 0.28537(14) 0.73802(18)
H23 H 0.3991 0.2887 0.7548
C25 C 0.31823(15) 0.22344(14) 0.71951(19)
C26 C 0.24448(17) 0.21877(16) 0.6961(2)
H24 H 0.2226 0.1776 0.6846
C27 C 0.20350(19) 0.27519(18) 0.6898(3)
H25 H 0.1542 0.2718 0.6743
C28 C 0.23585(18) 0.33723(16) 0.7067(3)
H26 H 0.2080 0.3751 0.7011
C29 C 0.34490(17) 0.40815(14) 0.7497(2)
C30 C 0.36410(17) 0.16306(14) 0.72410(19)
C31 C 0.52412(15) 1.00401(13) 0.60335(17)
C32 C 0.49489(15) 0.98351(13) 0.52544(17)
H27 H 0.4458 0.9842 0.5017
C33 C 0.53864(15) 0.96214(14) 0.48338(17)
C34 C 0.61211(16) 0.96258(17) 0.51959(19)
H28 H 0.6417 0.9472 0.4923
C35 C 0.64196(17) 0.98549(16) 0.5956(2)
H29 H 0.6911 0.9871 0.6182
C36 C 0.59803(16) 1.00587(15) 0.63746(18)
H30 H 0.6177 1.0209 0.6886
C37 C 0.50697(15) 0.93955(14) 0.40011(17)
C38 C 0.47577(16) 1.01959(13) 0.64915(18)
C39 C 0.4980(2) 0.16505(18) 0.5853(2)
H31 H 0.4504 0.1611 0.5822
C40 C 0.4594(4) 0.1558(3) 0.4452(3)
H32 H 0.4134 0.1555 0.4523
H33 H 0.4665 0.1150 0.4213
H34 H 0.4623 0.1922 0.4120
C41 C 0.5863(3) 0.1641(3) 0.5199(3)
H35 H 0.6172 0.1689 0.5728
H36 H 0.5932 0.2008 0.4892
H37 H 0.5973 0.1236 0.4984
C42 C 0.69252(19) 0.1252(2) 0.8540(2)
H38 H 0.6973 0.1682 0.8732
C43 C 0.7901(2) 0.0951(3) 0.9693(3)
H39 H 0.7878 0.1410 0.9824
H40 H 0.8359 0.0857 0.9642
H41 H 0.7828 0.0680 1.0099
C44 C 0.7311(3) 0.0135(3) 0.8658(4)
H42 H 0.6925 0.0100 0.8177
H43 H 0.7233 -0.0166 0.9035
H44 H 0.7750 0.0025 0.8566
C45 C 0.5524(5) 0.2609(5) 0.8698(6)
H45 H 0.5167 0.2333 0.8754
C46 C 0.5711(6) 0.3631(4) 0.8796(8)
H46 H 0.5903 0.3528 0.8383
H47 H 0.6043 0.3901 0.9180
H48 H 0.5271 0.3868 0.8584
C47 C 0.5270(11) 0.3273(6) 0.9700(9)
H49 H 0.5144 0.2929 1.0000
H50 H 0.4850 0.3514 0.9415
H51 H 0.5604 0.3568 1.0045
C48 C 0.70337(19) 0.63257(18) 0.9066(2)
H52 H 0.6911 0.6420 0.8535
C49 C 0.7949(3) 0.6150(4) 1.0285(3)
H53 H 0.7543 0.6085 1.0458
H54 H 0.8229 0.6512 1.0568
H55 H 0.8233 0.5755 1.0378
C50 C 0.8250(3) 0.6392(4) 0.9086(4)
H56 H 0.8024 0.6486 0.8542
H57 H 0.8530 0.5997 0.9138
H58 H 0.8552 0.6755 0.9327
O23 O 0.55594(12) 0.40020(11) 1.26820(13)
O24 O 0.44629(11) 0.96137(12) 0.36274(13)
Mn1A Mn 0.54253(2) 0.36100(2) 1.37235(2)
Mn2A Mn 0.40491(2) 0.479258(19) 1.29182(3)
Mn3_2 Mn 0.53585(2) 1.140445(19) 0.76353(2)
Mn3A Mn 0.53585(2) 0.859555(19) 0.26353(2)
Mn4_2 Mn 0.39696(2) 0.022540(18) 0.74248(2)
Mn4A Mn 0.39696(2) 0.977460(18) 0.24248(2)
O9_2 O 0.50276(11) 0.03974(10) 0.71968(12)
O13_2 O 0.33425(12) 1.10793(10) 0.72008(14)
O17A O 0.45542(12) 0.54473(12) 0.70850(14)
O19A O 0.54296(13) 0.09931(11) 0.87454(13)
O23A O 0.55594(12) 0.59980(11) 0.76820(13)
O24A O 0.44629(11) 1.03863(12) 0.86274(13)
O21 O 0.9181(4) 0.2208(4) 0.5610(4)
N7 N 0.8287(4) 0.1498(3) 0.5311(3)
C54 C 0.8051(9) 0.1617(7) 0.4509(7)
H66 H 0.8320 0.1973 0.4389
H67 H 0.7555 0.1734 0.4347
H68 H 0.8114 0.1225 0.4237
C55 C 0.7908(4) 0.0991(5) 0.5618(5)
H69 H 0.8064 0.1011 0.6179
H70 H 0.8010 0.0560 0.5454
H71 H 0.7405 0.1071 0.5420
C56 C 0.8848(4) 0.1799(4) 0.5785(4)
H72 H 0.8991 0.1672 0.6307
O22 O 0.2768(4) 0.2330(3) 0.4531(3)
N4 N 0.2595(3) 0.1235(3) 0.4384(4)
C51 C 0.2429(8) 0.0679(5) 0.3889(8)
H59 H 0.2300 0.0821 0.3354
H60 H 0.2037 0.0445 0.3973
H61 H 0.2835 0.0392 0.4003
C52 C 0.2790(5) 0.1092(6) 0.5206(6)
H62 H 0.2887 0.1499 0.5497
H63 H 0.3208 0.0818 0.5355
H64 H 0.2407 0.0865 0.5315
C53 C 0.2575(4) 0.1856(4) 0.4136(4)
H65 H 0.2391 0.1925 0.3599
loop_
_geom_bond_atom_site_label_1
_geom_bond_atom_site_label_2
_geom_bond_site_symmetry_1
_geom_bond_site_symmetry_2
Mn1 O1 1_555 1_555
Mn2 O3 1_555 1_555
Mn3 O8 1_555 1_555
Mn4 O9 1_555 1_555
O1 C7 1_555 1_555
O2 Mn1 1_555 1_555
O3 Mn1 1_555 1_555
O4 Mn1 1_555 1_555
O5 Mn2 1_555 1_555
O6 Mn2 1_555 1_555
O7 Mn2 1_555 1_555
O8 C30 1_555 1_555
O9 C38 1_555 1_555
O10 Mn3 1_555 1_555
O11 Mn3 1_555 1_555
O12 Mn3 1_555 1_555
O13 C30 1_555 1_555
O14 Mn2 1_555 1_555
O15 Mn4 1_555 1_555
O16 Mn4 1_555 1_555
O17 C22 1_555 1_555
O18 Mn4 1_555 1_555
O19 C37 1_555 1_555
O20 Mn1 1_555 1_555
O21 C56 1_555 1_555
O22 C53 1_555 1_555
N1 C9 1_555 1_555
N2 C12 1_555 1_555
N3 C45 1_555 1_555
N4 C51 1_555 1_555
N5 C39 1_555 1_555
N6 C42 1_555 1_555
N7 C54 1_555 1_555
N8 C48 1_555 1_555
C1 C2 1_555 1_555
C2 H1 1_555 1_555
C3 C2 1_555 1_555
C4 C3 1_555 1_555
H2 C4 1_555 1_555
C5 C4 1_555 1_555
H3 C5 1_555 1_555
C6 C1 1_555 1_555
H4 C6 1_555 1_555
C7 O5 1_555 1_555
C8 O15 1_555 1_555
C9 O4 1_555 1_555
H5 C9 1_555 1_555
C10 N1 1_555 1_555
H6 C10 1_555 1_555
H7 C10 1_555 1_555
H8 C10 1_555 1_555
C11 N1 1_555 1_555
H9 C11 1_555 1_555
H10 C11 1_555 1_555
H11 C11 1_555 1_555
C12 O2 1_555 1_555
H12 C12 1_555 1_555
C13 N2 1_555 1_555
H13 C13 1_555 1_555
H14 C13 1_555 1_555
H15 C13 1_555 1_555
C14 N2 1_555 1_555
H16 C14 1_555 1_555
H17 C14 1_555 1_555
H18 C14 1_555 1_555
C15 C16 1_555 1_555
C16 H19 1_555 1_555
C17 C16 1_555 1_555
C18 C17 1_555 1_555
H20 C18 1_555 1_555
C19 C18 1_555 1_555
H21 C19 1_555 1_555
C20 C15 1_555 1_555
H22 C20 1_555 1_555
C21 O3 1_555 1_555
C22 C17 1_555 1_555
C23 C24 1_555 1_555
C24 H23 1_555 1_555
C25 C24 1_555 1_555
C26 C25 1_555 1_555
H24 C26 1_555 1_555
C27 C26 1_555 1_555
H25 C27 1_555 1_555
C28 C23 1_555 1_555
H26 C28 1_555 1_555
C29 O6 1_555 1_555
C30 C25 1_555 1_555
C31 C32 1_555 1_555
C32 H27 1_555 1_555
C33 C32 1_555 1_555
C34 C33 1_555 1_555
H28 C34 1_555 1_555
C35 C34 1_555 1_555
H29 C35 1_555 1_555
C36 C31 1_555 1_555
H30 C36 1_555 1_555
C37 C33 1_555 1_555
C38 O18 1_555 1_555
C39 O10 1_555 1_555
H31 C39 1_555 1_555
C40 N5 1_555 1_555
H32 C40 1_555 1_555
H33 C40 1_555 1_555
H34 C40 1_555 1_555
C41 N5 1_555 1_555
H35 C41 1_555 1_555
H36 C41 1_555 1_555
H37 C41 1_555 1_555
C42 O11 1_555 1_555
H38 C42 1_555 1_555
C43 N6 1_555 1_555
H39 C43 1_555 1_555
H40 C43 1_555 1_555
H41 C43 1_555 1_555
C44 N6 1_555 1_555
H42 C44 1_555 1_555
H43 C44 1_555 1_555
H44 C44 1_555 1_555
C45 O12 1_555 1_555
H45 C45 1_555 1_555
C46 N3 1_555 1_555
H46 C46 1_555 1_555
H47 C46 1_555 1_555
H48 C46 1_555 1_555
C47 N3 1_555 1_555
H49 C47 1_555 1_555
H50 C47 1_555 1_555
H51 C47 1_555 1_555
C48 O20 1_555 1_555
H52 C48 1_555 1_555
C49 N8 1_555 1_555
H53 C49 1_555 1_555
H54 C49 1_555 1_555
H55 C49 1_555 1_555
C50 N8 1_555 1_555
H56 C50 1_555 1_555
H57 C50 1_555 1_555
H58 C50 1_555 1_555
C51 H59 1_555 1_555
H60 C51 1_555 1_555
H61 C51 1_555 1_555
C52 N4 1_555 1_555
H62 C52 1_555 1_555
H63 C52 1_555 1_555
H64 C52 1_555 1_555
C53 N4 1_555 1_555
H65 C53 1_555 1_555
C54 H66 1_555 1_555
H67 C54 1_555 1_555
H68 C54 1_555 1_555
C55 N7 1_555 1_555
H69 C55 1_555 1_555
H70 C55 1_555 1_555
H71 C55 1_555 1_555
C56 N7 1_555 1_555
H72 C56 1_555 1_555
O23 C22 1_555 1_555
O24 C37 1_555 1_555
Mn1A O23 1_555 1_555
Mn2A O17 1_555 1_555
Mn3_2 O9 1_555 1_555
Mn3A O19 1_555 1_555
Mn4_2 O13 1_555 1_555
Mn4A O24 1_555 1_555
O9_2 Mn3 1_555 1_555
O13_2 Mn4 1_555 1_555
O17A Mn2 1_555 1_555
O19A Mn3 1_555 1_555
O23A Mn1 1_555 1_555
O24A Mn4 1_555 1_555
O7 C29 1_555 1_555
O14 C21 1_555 1_555
O16 C8 1_555 1_555
C1 C7 1_555 1_555
C3 C8 1_555 1_555
C5 C6 1_555 1_555
C15 C21 1_555 1_555
C19 C20 1_555 1_555
C23 C29 1_555 1_555
C27 C28 1_555 1_555
C31 C38 1_555 1_555
C35 C36 1_555 1_555
Mn4_2 O9_2 1_555 1_555

#END
