
#######################################################################
#
#                 Cambridge Crystallographic Data Centre
#                                CCDC 
#
#######################################################################
#
# If this CIF has been generated from an entry in the Cambridge 
# Structural Database, then it will include bibliographic, chemical, 
# crystal, experimental, refinement or atomic coordinate data resulting 
# from the CCDC's data processing and validation procedures.
#
#######################################################################

data_ODAPOA
_symmetry_cell_setting           orthorhombic
_symmetry_space_group_name_H-M   'P 21 21 21'
_symmetry_Int_Tables_number      19
_space_group_name_Hall           'P 2ac 2ab'
loop_
_symmetry_equiv_pos_site_id
_symmetry_equiv_pos_as_xyz
1 x,y,z
2 1/2-x,-y,1/2+z
3 1/2+x,1/2-y,-z
4 -x,1/2+y,1/2-z
_cell_length_a                   20.9863(5)
_cell_length_b                   21.8253(4)
_cell_length_c                   30.9669(7)
_cell_angle_alpha                90
_cell_angle_beta                 90
_cell_angle_gamma                90
_cell_volume                     14183.8
loop_
_atom_site_label
_atom_site_type_symbol
_atom_site_fract_x
_atom_site_fract_y
_atom_site_fract_z
Ag1 Ag -0.36220(3) -0.02679(3) -0.22578(2)
Ag2 Ag -0.13734(3) 0.01695(3) -0.27131(2)
Mo1 Mo 0.06774(4) -0.03676(3) -0.23099(3)
Mo2 Mo 0.04239(4) 0.09074(3) -0.19774(3)
Mo3 Mo -0.56584(4) 0.02714(3) -0.26076(2)
Mo4 Mo -0.54353(4) -0.09229(3) -0.30651(3)
Mo5 Mo -0.30231(4) 0.16671(3) -0.29050(2)
Mo6 Mo -0.26372(4) 0.16027(3) -0.19623(2)
Mo7 Mo -0.19970(4) -0.17652(3) -0.20631(2)
Mo8 Mo -0.23478(4) -0.16776(3) -0.30147(2)
P1 P -0.02909(13) 0.02978(11) -0.24190(8)
P2 P 0.05222(13) 0.05511(12) -0.27607(9)
P3 P -0.46873(13) -0.04096(11) -0.25836(8)
P4 P -0.54889(14) -0.07298(12) -0.22532(9)
P5 P -0.22046(12) 0.09893(10) -0.25969(7)
P6 P -0.31266(13) 0.07769(9) -0.23853(7)
P7 P -0.28028(12) -0.10875(10) -0.23790(8)
P8 P -0.18784(13) -0.08664(9) -0.25727(8)
O1 O -0.0038(4) -0.1056(4) -0.3038(3)
O2 O -0.0311(4) -0.0834(3) -0.1617(3)
O3 O 0.1832(4) 0.1189(3) -0.2241(3)
O4 O -0.0065(5) 0.2044(4) -0.2514(4)
O5 O -0.4834(4) 0.0840(3) -0.1862(2)
O6 O -0.4744(4) 0.0845(3) -0.3306(2)
O7 O -0.6826(4) -0.1261(3) -0.2779(3)
O8 O -0.4966(5) -0.2161(4) -0.2703(5)
O9 O -0.3428(4) 0.0620(3) -0.3533(2)
O10 O -0.4443(4) 0.1748(3) -0.2587(2)
O11 O -0.1390(4) 0.2309(3) -0.2231(3)
O12 O -0.1771(4) 0.0640(3) -0.1506(3)
O13 O -0.1681(4) -0.0703(3) -0.1403(2)
O14 O -0.0555(4) -0.1802(3) -0.2329(2)
O15 O -0.3270(4) -0.0762(3) -0.3488(2)
O16 O -0.3576(4) -0.2408(3) -0.2749(2)
N1 N -0.3718(4) -0.0243(3) -0.1509(2)
N2 N -0.3619(4) -0.0113(3) 0.1539(2)
C1 C -0.3062(5) -0.0115(4) 0.1342(3)
C2 C -0.2958(5) -0.0092(4) 0.0894(3)
C3 C -0.3498(6) -0.0083(4) 0.0641(3)
C4 C -0.4109(6) -0.0070(5) 0.0823(4)
C5 C -0.4130(5) -0.0088(4) 0.1279(3)
C6 C -0.3401(5) -0.0085(4) 0.0159(3)
C7 C -0.3861(5) -0.0138(4) -0.0121(3)
C8 C -0.3775(6) -0.0163(4) -0.0608(3)
C9 C -0.3213(6) -0.0119(4) -0.0806(4)
C10 C -0.3200(5) -0.0159(4) -0.1261(3)
C11 C 0.0199(6) -0.0799(5) -0.2769(3)
C12 C 0.1320(6) -0.1206(5) -0.2253(5)
C13 C -0.4283(5) -0.0298(4) -0.1298(3)
C14 C 0.0039(5) -0.0648(4) -0.1878(3)
C15 C 0.1533(6) -0.0849(6) -0.2610(4)
C16 C -0.4328(6) -0.0253(4) -0.0853(3)
C17 C 0.1764(5) -0.0274(5) -0.2446(4)
C18 C 0.1710(5) -0.0294(5) -0.1988(4)
C19 C 0.1429(6) -0.0885(5) -0.1886(4)
C20 C 0.1308(6) 0.1079(4) -0.2158(3)
C21 C -0.0207(6) 0.0655(5) -0.1379(4)
C22 C 0.0113(6) 0.1618(4) -0.2328(4)
C23 C -0.0244(8) 0.1302(5) -0.1453(4)
C24 C 0.0415(7) 0.1529(5) -0.1397(4)
C25 C 0.0780(6) 0.1040(5) -0.1274(3)
C26 C 0.0425(7) 0.0495(5) -0.1267(3)
C27 C -0.5134(5) 0.0643(5) -0.2149(3)
C28 C -0.6328(7) 0.1093(6) -0.2537(5)
C29 C -0.5075(5) 0.0620(4) -0.3037(3)
C30 C -0.6503(5) 0.0677(6) -0.2212(4)
C31 C -0.6753(5) 0.0159(6) -0.2438(4)
C32 C -0.6699(5) 0.0247(5) -0.2880(4)
C33 C -0.6426(6) 0.0835(5) -0.2950(4)
C34 C -0.6304(6) -0.1130(5) -0.2866(4)
C35 C -0.5454(7) -0.1398(6) -0.3728(3)
C36 C -0.5138(5) -0.1702(5) -0.2821(4)
C37 C -0.5868(6) -0.0889(6) -0.3757(3)
C38 C -0.5470(6) -0.0374(6) -0.3726(4)
C39 C -0.4842(6) -0.0555(5) -0.3652(3)
C40 C -0.4836(6) -0.1201(6) -0.3647(4)
C41 C -0.3288(5) 0.0996(4) -0.3301(3)
C42 C -0.2591(6) 0.2668(4) -0.2914(3)
C43 C -0.3924(6) 0.1703(4) -0.2699(3)
C44 C -0.2203(6) 0.2282(5) -0.3166(3)
C45 C -0.2597(6) 0.2083(5) -0.3521(3)
C46 C -0.3196(6) 0.2335(5) -0.3472(3)
C47 C -0.3192(6) 0.2689(4) -0.3101(4)
C48 C -0.1843(6) 0.2038(4) -0.2150(3)
C49 C -0.3624(6) 0.1744(4) -0.1638(3)
C50 C -0.2074(6) 0.0981(4) -0.1679(3)
C51 C -0.3455(5) 0.2324(4) -0.1829(3)
C52 C -0.2912(5) 0.2510(4) -0.1622(3)
C53 C -0.2752(5) 0.2062(4) -0.1302(3)
C54 C -0.3202(5) 0.1600(4) -0.1322(3)
C55 C -0.1799(6) -0.1097(5) -0.1648(3)
C56 C -0.2811(5) -0.2412(4) -0.1819(3)
C57 C -0.1081(5) -0.1772(4) -0.2250(3)
C58 C -0.2493(6) -0.2202(5) -0.1462(3)
C59 C -0.1832(6) -0.2417(5) -0.1492(4)
C60 C -0.1788(5) -0.2779(4) -0.1889(4)
C61 C -0.2403(6) -0.2770(4) -0.2083(4)
C62 C -0.2922(6) -0.1088(4) -0.3305(3)
C63 C -0.1327(5) -0.1789(5) -0.3317(3)
C64 C -0.3129(5) -0.2136(4) -0.2842(3)
C65 C -0.1777(5) -0.1632(5) -0.3643(3)
C66 C -0.2221(5) -0.2110(4) -0.3685(3)
C67 C -0.2065(5) -0.2577(4) -0.3370(3)
C68 C -0.1499(6) -0.2366(4) -0.3151(3)
H1 H -0.26950 -0.01350 0.15200
H2 H -0.25420 -0.00820 0.07740
H3 H -0.44840 -0.00500 0.06510
H4 H -0.45380 -0.00830 0.14120
H5 H -0.42830 -0.01630 -0.00120
H6 H -0.29780 -0.00450 0.00530
H7 H -0.28320 -0.00620 -0.06450
H8 H -0.27990 -0.01240 -0.14020
H9 H 0.11340 -0.16020 -0.22690
H10 H -0.46600 -0.03690 -0.14610
H11 H 0.15240 -0.09700 -0.29040
H12 H -0.47310 -0.02830 -0.07150
H13 H 0.19230 0.00580 -0.26130
H14 H 0.18330 0.00160 -0.17900
H15 H 0.13350 -0.10260 -0.16030
H16 H -0.05530 0.03760 -0.14020
H17 H -0.06120 0.15350 -0.15230
H18 H 0.05590 0.19370 -0.14400
H19 H 0.12190 0.10670 -0.12010
H20 H 0.05800 0.00970 -0.12000
H21 H -0.61670 0.14940 -0.24860
H22 H -0.64640 0.07280 -0.19090
H23 H -0.69300 -0.01940 -0.23050
H24 H -0.68230 -0.00350 -0.30980
H25 H -0.63280 0.10170 -0.32210
H26 H -0.55810 -0.18140 -0.37580
H27 H -0.63180 -0.08940 -0.37900
H28 H -0.56090 0.00390 -0.37510
H29 H -0.44860 -0.02930 -0.36120
H30 H -0.44760 -0.14550 -0.35980
H31 H -0.24630 0.28780 -0.26600
H32 H -0.17710 0.21760 -0.31140
H33 H -0.24660 0.18210 -0.37500
H34 H -0.35480 0.22760 -0.36600
H35 H -0.35460 0.29120 -0.29920
H36 H -0.39780 0.15000 -0.17210
H37 H -0.36740 0.25340 -0.20520
H38 H -0.26810 0.28750 -0.16800
H39 H -0.24000 0.20790 -0.11100
H40 H -0.32130 0.12440 -0.11460
H41 H -0.32460 -0.23290 -0.18810
H42 H -0.26690 -0.19610 -0.12360
H43 H -0.14980 -0.23370 -0.12930
H44 H -0.14200 -0.29820 -0.19960
H45 H -0.25190 -0.29680 -0.23440
H46 H -0.09740 -0.15480 -0.32280
H47 H -0.17770 -0.12630 -0.38060
H48 H -0.25640 -0.21240 -0.38850
H49 H -0.22900 -0.29470 -0.33180
H50 H -0.12790 -0.25820 -0.29310
Ag2A Ag -0.36266(3) -0.01695(3) 0.22869(2)
N2A N -0.1381(4) 0.0113(3) -0.3461(2)
Al1 Al -0.56708(11) -0.77894(9) 0.00053(10)
F1 F -0.5241(3) -0.6430(3) -0.0372(2)
F2 F -0.5847(4) -0.5635(3) -0.0366(2)
F3 F -0.5346(4) -0.5917(3) 0.0236(3)
F4 F -0.7162(3) -0.6485(3) 0.0433(2)
F5 F -0.6642(4) -0.5620(3) 0.0341(2)
F6 F -0.6253(3) -0.6319(3) 0.07597(17)
F7 F -0.7045(4) -0.6095(3) -0.0427(2)
F8 F -0.6350(4) -0.6677(3) -0.07486(18)
F9 F -0.7088(3) -0.7066(3) -0.0306(2)
F10 F -0.6166(6) -0.9408(4) 0.1175(3)
F11 F -0.5240(5) -0.9073(4) 0.1055(3)
F12 F -0.5761(5) -0.9460(3) 0.0539(2)
F13 F -0.6997(4) -0.8011(4) 0.0483(3)
F14 F -0.7170(5) -0.8625(5) 0.0987(3)
F15 F -0.6880(4) -0.9006(5) 0.0388(3)
F16 F -0.6243(6) -0.8306(3) 0.1540(2)
F17 F -0.6306(4) -0.7530(3) 0.1128(2)
F18 F -0.5421(4) -0.7917(4) 0.1276(2)
F19 F -0.4526(4) -0.6930(3) 0.0442(2)
F20 F -0.4344(4) -0.7786(3) 0.0760(2)
F21 F -0.3568(4) -0.7257(3) 0.0505(2)
F22 F -0.3928(4) -0.6827(3) -0.0324(3)
F23 F -0.3238(3) -0.7557(3) -0.0317(2)
F24 F -0.4047(3) -0.7613(3) -0.07432(19)
F25 F -0.3889(3) -0.8676(3) -0.03445(19)
F26 F -0.3473(3) -0.8482(3) 0.0278(2)
F27 F -0.4438(3) -0.8797(3) 0.0237(2)
F28 F -0.6917(4) -0.8930(3) -0.1215(2)
F29 F -0.6865(4) -0.9164(3) -0.0529(2)
F30 F -0.7230(3) -0.8299(3) -0.0725(2)
F31 F -0.6452(3) -0.7692(3) -0.12839(19)
F32 F -0.5462(3) -0.7681(3) -0.1125(2)
F33 F -0.5834(4) -0.8386(3) -0.15355(18)
F34 F -0.5025(3) -0.8777(3) -0.0859(2)
F35 F -0.5572(4) -0.9201(3) -0.0360(2)
F36 F -0.5751(4) -0.9430(3) -0.1028(2)
O17 O -0.5994(3) -0.7082(3) 0.0138(2)
O18 O -0.5737(4) -0.8248(3) 0.0461(2)
O19 O -0.4870(3) -0.7770(3) -0.0137(2)
O20 O -0.6075(4) -0.8078(3) -0.0428(2)
C69 C -0.6219(4) -0.6534(3) 0.0010(3)
C70 C -0.5646(7) -0.6104(5) -0.0124(4)
C71 C -0.6557(7) -0.6231(5) 0.0400(4)
C72 C -0.6686(7) -0.6579(6) -0.0364(4)
C73 C -0.6096(6) -0.8486(5) 0.0784(3)
C74 C -0.5817(7) -0.9118(5) 0.0878(4)
C75 C -0.6805(8) -0.8532(7) 0.0666(4)
C76 C -0.6009(7) -0.8063(4) 0.1183(3)
C77 C -0.4254(4) -0.7763(4) -0.0003(4)
C78 C -0.4153(6) -0.7419(5) 0.0422(4)
C79 C -0.3852(6) -0.7436(5) -0.0359(4)
C80 C -0.4003(4) -0.8441(4) 0.0038(4)
C81 C -0.6087(5) -0.8438(4) -0.0788(3)
C82 C -0.6801(7) -0.8701(5) -0.0812(4)
C83 C -0.5971(6) -0.8050(4) -0.1197(3)
C84 C -0.5605(7) -0.8977(5) -0.0762(3)
Al2 Al -0.03526(12) -0.25245(11) 0.00025(12)
F37 F -0.2349(3) -0.3656(3) 0.0045(5)
F38 F -0.1825(4) -0.3033(4) -0.0349(3)
F39 F -0.2006(4) -0.2817(4) 0.0315(4)
F40 F -0.1320(5) -0.4196(4) -0.0441(3)
F41 F -0.1539(4) -0.4633(3) 0.0162(3)
F42 F -0.0570(3) -0.4420(2) 0.0004(3)
F43 F -0.1772(4) -0.3839(4) 0.0850(4)
F44 F -0.0779(4) -0.4038(3) 0.0810(3)
F45 F -0.1081(5) -0.3107(3) 0.0864(3)
F46 F -0.1493(4) -0.0637(3) 0.0453(2)
F47 F -0.1416(5) -0.1570(3) 0.0672(2)
F48 F -0.0562(4) -0.1027(3) 0.0581(2)
F49 F -0.1809(5) -0.1640(4) -0.0618(2)
F50 F -0.1896(4) -0.0730(3) -0.0371(2)
F51 F -0.2227(3) -0.1513(3) 0.0017(3)
F52 F -0.0691(5) -0.1084(4) -0.0727(2)
F53 F -0.0686(4) -0.0403(3) -0.0224(3)
F54 F -0.0031(3) -0.1166(3) -0.0209(3)
F55 F 0.0622(4) -0.1739(4) -0.0991(3)
F56 F -0.0283(5) -0.2118(4) -0.1241(4)
F57 F 0.0595(5) -0.2423(4) -0.1530(3)
F58 F 0.1120(4) -0.3418(4) -0.1134(3)
F59 F 0.0971(5) -0.3485(4) -0.0461(3)
F60 F 0.1421(5) -0.2669(6) -0.0760(5)
F61 F -0.0119(6) -0.3359(6) -0.1421(3)
F62 F -0.0106(5) -0.3834(4) -0.0790(3)
F63 F -0.0811(5) -0.3113(4) -0.0909(3)
F64 F 0.0834(6) -0.2243(6) 0.1458(4)
F65 F -0.0179(5) -0.2097(4) 0.1278(3)
F66 F 0.0601(4) -0.1391(3) 0.1016(2)
F67 F 0.0209(5) -0.3203(5) 0.1144(3)
F68 F 0.1263(4) -0.3195(4) 0.0995(3)
F69 F 0.0598(3) -0.3419(3) 0.0466(2)
F70 F 0.1631(5) -0.1998(5) 0.0823(4)
F71 F 0.1406(4) -0.2632(5) 0.0223(4)
F72 F 0.1070(4) -0.1618(3) 0.0286(4)
O21 O -0.0715(3) -0.3230(3) 0.0043(3)
O22 O -0.0947(3) -0.1988(3) -0.0053(3)
O23 O 0.0140(6) -0.2548(4) -0.0430(3)
O24 O 0.0069(4) -0.2323(3) 0.0453(3)
C85 C -0.1229(6) -0.3574(5) 0.0180(4)
C86 C -0.1849(6) -0.3249(6) 0.0093(6)
C87 C -0.1174(6) -0.4213(5) -0.0020(6)
C88 C -0.1221(6) -0.3642(6) 0.0683(5)
C89 C -0.1112(5) -0.1385(4) -0.0043(4)
C90 C -0.1143(6) -0.1149(5) 0.0404(4)
C91 C -0.1764(7) -0.1316(6) -0.0256(4)
C92 C -0.0627(7) -0.1016(5) -0.0331(5)
C93 C 0.0337(10) -0.2732(10) -0.0828(5)
C94 C 0.0336(5) -0.2264(6) -0.1154(4)
C95 C 0.0967(7) -0.3098(5) -0.0771(5)
C96 C -0.0166(6) -0.3257(5) -0.0999(4)
C97 C 0.0575(6) -0.2411(5) 0.0707(4)
C98 C 0.0458(8) -0.2012(7) 0.1110(6)
C99 C 0.0697(7) -0.3052(7) 0.0805(4)
C100 C 0.1227(9) -0.2126(7) 0.0483(5)
Cl1 Cl -0.29081(18) -0.45481(16) -0.09530(10)
Cl2 Cl -0.18117(16) -0.43145(13) -0.15158(10)
C101 C -0.2381(6) -0.3992(5) -0.1178(4)
H51 H -0.26320 -0.36890 -0.13440
H52 H -0.21630 -0.37720 -0.09410
Cl3 Cl -0.3747(4) -0.5393(3) 0.0059(3)
Cl4 Cl -0.3141(2) -0.4764(2) 0.07909(15)
C102 C -0.3353(19) -0.4787(16) 0.0213(7)
H53 H -0.36100 -0.44200 0.01450
H54 H -0.29550 -0.47620 0.00420
loop_
_geom_bond_atom_site_label_1
_geom_bond_atom_site_label_2
_geom_bond_site_symmetry_1
_geom_bond_site_symmetry_2
Ag1 P3 1_555 1_555
Ag2 P1 1_555 1_555
Mo1 Mo2 1_555 1_555
Mo2 P1 1_555 1_555
Mo3 Mo4 1_555 1_555
Mo4 P3 1_555 1_555
Mo5 Mo6 1_555 1_555
Mo6 P5 1_555 1_555
Mo7 Mo8 1_555 1_555
Mo8 P7 1_555 1_555
P1 Mo1 1_555 1_555
P2 Mo1 1_555 1_555
P3 Mo3 1_555 1_555
P4 Mo3 1_555 1_555
P5 Ag2 1_555 1_555
P6 Ag1 1_555 1_555
P7 Ag1 1_555 1_555
P8 Ag2 1_555 1_555
O1 C11 1_555 1_555
O2 C14 1_555 1_555
O3 C20 1_555 1_555
O4 C22 1_555 1_555
O5 C27 1_555 1_555
O6 C29 1_555 1_555
O7 C34 1_555 1_555
O8 C36 1_555 1_555
O9 C41 1_555 1_555
O10 C43 1_555 1_555
O11 C48 1_555 1_555
O12 C50 1_555 1_555
O13 C55 1_555 1_555
O14 C57 1_555 1_555
O15 C62 1_555 1_555
O16 C64 1_555 1_555
N1 Ag1 1_555 1_555
N2 C1 1_555 1_555
C1 C2 1_555 1_555
C2 C3 1_555 1_555
C3 C4 1_555 1_555
C4 C5 1_555 1_555
C5 N2 1_555 1_555
C6 C3 1_555 1_555
C7 C6 1_555 1_555
C8 C7 1_555 1_555
C9 C8 1_555 1_555
C10 N1 1_555 1_555
C11 Mo1 1_555 1_555
C12 Mo1 1_555 1_555
C13 N1 1_555 1_555
C14 Mo1 1_555 1_555
C15 Mo1 1_555 1_555
C16 C8 1_555 1_555
C17 Mo1 1_555 1_555
C18 Mo1 1_555 1_555
C19 Mo1 1_555 1_555
C20 Mo2 1_555 1_555
C21 Mo2 1_555 1_555
C22 Mo2 1_555 1_555
C23 Mo2 1_555 1_555
C24 Mo2 1_555 1_555
C25 Mo2 1_555 1_555
C26 Mo2 1_555 1_555
C27 Mo3 1_555 1_555
C28 Mo3 1_555 1_555
C29 Mo3 1_555 1_555
C30 Mo3 1_555 1_555
C31 Mo3 1_555 1_555
C32 Mo3 1_555 1_555
C33 Mo3 1_555 1_555
C34 Mo4 1_555 1_555
C35 Mo4 1_555 1_555
C36 Mo4 1_555 1_555
C37 Mo4 1_555 1_555
C38 Mo4 1_555 1_555
C39 Mo4 1_555 1_555
C40 Mo4 1_555 1_555
C41 Mo5 1_555 1_555
C42 Mo5 1_555 1_555
C43 Mo5 1_555 1_555
C44 Mo5 1_555 1_555
C45 Mo5 1_555 1_555
C46 Mo5 1_555 1_555
C47 Mo5 1_555 1_555
C48 Mo6 1_555 1_555
C49 Mo6 1_555 1_555
C50 Mo6 1_555 1_555
C51 Mo6 1_555 1_555
C52 Mo6 1_555 1_555
C53 Mo6 1_555 1_555
C54 Mo6 1_555 1_555
C55 Mo7 1_555 1_555
C56 Mo7 1_555 1_555
C57 Mo7 1_555 1_555
C58 Mo7 1_555 1_555
C59 Mo7 1_555 1_555
C60 Mo7 1_555 1_555
C61 Mo7 1_555 1_555
C62 Mo8 1_555 1_555
C63 Mo8 1_555 1_555
C64 Mo8 1_555 1_555
C65 Mo8 1_555 1_555
C66 Mo8 1_555 1_555
C67 Mo8 1_555 1_555
C68 Mo8 1_555 1_555
Al1 O17 1_555 1_555
F1 C70 1_555 1_555
F2 C70 1_555 1_555
F3 C70 1_555 1_555
F4 C71 1_555 1_555
F5 C71 1_555 1_555
F6 C71 1_555 1_555
F7 C72 1_555 1_555
F8 C72 1_555 1_555
F9 C72 1_555 1_555
F10 C74 1_555 1_555
F11 C74 1_555 1_555
F12 C74 1_555 1_555
F13 C75 1_555 1_555
F14 C75 1_555 1_555
F15 C75 1_555 1_555
F16 C76 1_555 1_555
F17 C76 1_555 1_555
F18 C76 1_555 1_555
F19 C78 1_555 1_555
F20 C78 1_555 1_555
F21 C78 1_555 1_555
F22 C79 1_555 1_555
F23 C79 1_555 1_555
F24 C79 1_555 1_555
F25 C80 1_555 1_555
F26 C80 1_555 1_555
F27 C80 1_555 1_555
F28 C82 1_555 1_555
F29 C82 1_555 1_555
F30 C82 1_555 1_555
F31 C83 1_555 1_555
F32 C83 1_555 1_555
F33 C83 1_555 1_555
F34 C84 1_555 1_555
F35 C84 1_555 1_555
F36 C84 1_555 1_555
O17 C69 1_555 1_555
O18 Al1 1_555 1_555
O19 Al1 1_555 1_555
O20 Al1 1_555 1_555
C69 C70 1_555 1_555
C71 C69 1_555 1_555
C72 C69 1_555 1_555
C73 O18 1_555 1_555
C74 C73 1_555 1_555
C75 C73 1_555 1_555
C76 C73 1_555 1_555
C77 O19 1_555 1_555
C78 C77 1_555 1_555
C79 C77 1_555 1_555
C80 C77 1_555 1_555
C81 O20 1_555 1_555
C82 C81 1_555 1_555
C83 C81 1_555 1_555
C84 C81 1_555 1_555
Al2 O21 1_555 1_555
F37 C86 1_555 1_555
F38 C86 1_555 1_555
F39 C86 1_555 1_555
F40 C87 1_555 1_555
F41 C87 1_555 1_555
F42 C87 1_555 1_555
F43 C88 1_555 1_555
F44 C88 1_555 1_555
F45 C88 1_555 1_555
F46 C90 1_555 1_555
F47 C90 1_555 1_555
F48 C90 1_555 1_555
F49 C91 1_555 1_555
F50 C91 1_555 1_555
F51 C91 1_555 1_555
F52 C92 1_555 1_555
F53 C92 1_555 1_555
F54 C92 1_555 1_555
F55 C94 1_555 1_555
F56 C94 1_555 1_555
F57 C94 1_555 1_555
F58 C95 1_555 1_555
F59 C95 1_555 1_555
F60 C95 1_555 1_555
F61 C96 1_555 1_555
F62 C96 1_555 1_555
F63 C96 1_555 1_555
F64 C98 1_555 1_555
F65 C98 1_555 1_555
F66 C98 1_555 1_555
F67 C99 1_555 1_555
F68 C99 1_555 1_555
F69 C99 1_555 1_555
F70 C100 1_555 1_555
F71 C100 1_555 1_555
F72 C100 1_555 1_555
O21 C85 1_555 1_555
O22 Al2 1_555 1_555
O23 Al2 1_555 1_555
O24 Al2 1_555 1_555
C85 C86 1_555 1_555
C87 C85 1_555 1_555
C88 C85 1_555 1_555
C89 O22 1_555 1_555
C90 C89 1_555 1_555
C91 C89 1_555 1_555
C92 C89 1_555 1_555
C93 O23 1_555 1_555
C94 C93 1_555 1_555
C95 C93 1_555 1_555
C96 C93 1_555 1_555
C97 O24 1_555 1_555
C98 C97 1_555 1_555
C99 C97 1_555 1_555
C100 C97 1_555 1_555
Cl1 C101 1_555 1_555
Cl2 C101 1_555 1_555
C101 H51 1_555 1_555
Cl3 C102 1_555 1_555
Cl4 C102 1_555 1_555
C102 H53 1_555 1_555
H1 C1 1_555 1_555
H2 C2 1_555 1_555
H3 C4 1_555 1_555
H4 C5 1_555 1_555
H5 C7 1_555 1_555
H6 C6 1_555 1_555
H7 C9 1_555 1_555
H8 C10 1_555 1_555
H9 C12 1_555 1_555
H10 C13 1_555 1_555
H11 C15 1_555 1_555
H12 C16 1_555 1_555
H13 C17 1_555 1_555
H14 C18 1_555 1_555
H15 C19 1_555 1_555
H16 C21 1_555 1_555
H17 C23 1_555 1_555
H18 C24 1_555 1_555
H19 C25 1_555 1_555
H20 C26 1_555 1_555
H21 C28 1_555 1_555
H22 C30 1_555 1_555
H23 C31 1_555 1_555
H24 C32 1_555 1_555
H25 C33 1_555 1_555
H26 C35 1_555 1_555
H27 C37 1_555 1_555
H28 C38 1_555 1_555
H29 C39 1_555 1_555
H30 C40 1_555 1_555
H31 C42 1_555 1_555
H32 C44 1_555 1_555
H33 C45 1_555 1_555
H34 C46 1_555 1_555
H35 C47 1_555 1_555
H36 C49 1_555 1_555
H37 C51 1_555 1_555
H38 C52 1_555 1_555
H39 C53 1_555 1_555
H40 C54 1_555 1_555
H41 C56 1_555 1_555
H42 C58 1_555 1_555
H43 C59 1_555 1_555
H44 C60 1_555 1_555
H45 C61 1_555 1_555
H46 C63 1_555 1_555
H47 C65 1_555 1_555
H48 C66 1_555 1_555
H49 C67 1_555 1_555
H50 C68 1_555 1_555
H52 C101 1_555 1_555
H54 C102 1_555 1_555
Ag2A N2 1_555 1_555
N2A Ag2 1_555 1_555
Mo2 P2 1_555 1_555
Mo4 P4 1_555 1_555
Mo5 P5 1_555 1_555
Mo5 P6 1_555 1_555
Mo6 P6 1_555 1_555
Mo7 P7 1_555 1_555
Mo7 P8 1_555 1_555
Mo8 P8 1_555 1_555
P1 P2 1_555 1_555
P3 P4 1_555 1_555
P5 P6 1_555 1_555
P7 P8 1_555 1_555
C9 C10 1_555 1_555
C12 C15 1_555 1_555
C12 C19 1_555 1_555
C13 C16 1_555 1_555
C15 C17 1_555 1_555
C17 C18 1_555 1_555
C18 C19 1_555 1_555
C21 C23 1_555 1_555
C21 C26 1_555 1_555
C23 C24 1_555 1_555
C24 C25 1_555 1_555
C25 C26 1_555 1_555
C28 C30 1_555 1_555
C28 C33 1_555 1_555
C30 C31 1_555 1_555
C31 C32 1_555 1_555
C32 C33 1_555 1_555
C35 C37 1_555 1_555
C35 C40 1_555 1_555
C37 C38 1_555 1_555
C38 C39 1_555 1_555
C39 C40 1_555 1_555
C42 C44 1_555 1_555
C42 C47 1_555 1_555
C44 C45 1_555 1_555
C45 C46 1_555 1_555
C46 C47 1_555 1_555
C49 C51 1_555 1_555
C49 C54 1_555 1_555
C51 C52 1_555 1_555
C52 C53 1_555 1_555
C53 C54 1_555 1_555
C56 C58 1_555 1_555
C56 C61 1_555 1_555
C58 C59 1_555 1_555
C59 C60 1_555 1_555
C60 C61 1_555 1_555
C63 C65 1_555 1_555
C63 C68 1_555 1_555
C65 C66 1_555 1_555
C66 C67 1_555 1_555
C67 C68 1_555 1_555

#END
