
#######################################################################
#
#                 Cambridge Crystallographic Data Centre
#                                CCDC 
#
#######################################################################
#
# If this CIF has been generated from an entry in the Cambridge 
# Structural Database, then it will include bibliographic, chemical, 
# crystal, experimental, refinement or atomic coordinate data resulting 
# from the CCDC's data processing and validation procedures.
#
#######################################################################

data_ODAQAN
_symmetry_cell_setting           triclinic
_symmetry_space_group_name_H-M   'P -1'
_symmetry_Int_Tables_number      2
_space_group_name_Hall           '-P 1'
loop_
_symmetry_equiv_pos_site_id
_symmetry_equiv_pos_as_xyz
1 x,y,z
2 -x,-y,-z
_cell_length_a                   11.3084(4)
_cell_length_b                   12.5205(3)
_cell_length_c                   14.6913(5)
_cell_angle_alpha                65.995(3)
_cell_angle_beta                 71.303(3)
_cell_angle_gamma                87.705(2)
_cell_volume                     1790.07
loop_
_atom_site_label
_atom_site_type_symbol
_atom_site_fract_x
_atom_site_fract_y
_atom_site_fract_z
Mo1 Mo 0.40152(3) 0.26235(3) 0.44812(2)
Mo2 Mo 0.40846(3) 0.49067(3) 0.26300(2)
Cu1 Cu 0.71344(5) 0.49206(5) 0.40824(4)
P1 P 0.54211(9) 0.45223(8) 0.37323(8)
P2 P 0.35413(9) 0.45223(9) 0.45590(8)
O1 O 0.1142(4) 0.4707(4) 0.3558(3)
O2 O 0.4001(5) 0.7552(3) 0.2241(3)
O3 O 0.4870(4) 0.2137(4) 0.6431(3)
O4 O 0.6666(3) 0.2283(3) 0.3158(3)
N1 N 0.8190(3) 0.6380(3) 0.2837(3)
N2 N 0.8133(3) 0.3529(3) 0.4297(3)
C1 C 0.9206(4) 0.6855(4) 0.2866(3)
C2 C 0.7809(4) 0.6982(4) 0.2004(4)
C3 C 0.8394(4) 0.8048(4) 0.1224(4)
C4 C 0.9435(4) 0.8553(4) 0.1258(3)
C5 C 0.9847(4) 0.7931(4) 0.2108(3)
C6 C 1.0118(4) 0.9699(4) 0.0449(3)
C7 C 0.8903(4) 0.3369(4) 0.3456(4)
C8 C 0.7950(4) 0.2657(4) 0.5239(4)
C9 C 0.9490(4) 0.2367(5) 0.3539(5)
C10 C 0.9297(4) 0.1472(4) 0.4506(5)
C11 C 0.8503(5) 0.1610(4) 0.5381(5)
C12 C 0.9959(5) 0.0406(4) 0.4568(5)
C13 C 0.2425(4) 0.1956(4) 0.4057(4)
C14 C 0.1865(4) 0.2052(4) 0.5034(4)
C15 C 0.2367(4) 0.1255(4) 0.5777(4)
C16 C 0.3253(5) 0.0674(4) 0.5269(4)
C17 C 0.3286(4) 0.1109(4) 0.4200(4)
C18 C 0.4788(6) 0.3789(5) 0.1630(4)
C19 C 0.3779(6) 0.4391(5) 0.1369(4)
C20 C 0.4145(6) 0.5610(5) 0.0919(4)
C21 C 0.5389(6) 0.5763(5) 0.0898(4)
C22 C 0.5786(5) 0.4643(5) 0.1336(4)
C23 C 0.2213(5) 0.4764(4) 0.3241(4)
C24 C 0.4048(5) 0.6578(4) 0.2433(4)
C25 C 0.5717(4) 0.2440(4) 0.3638(4)
C26 C 0.4602(5) 0.2335(4) 0.5694(4)
H1 H 0.95050 0.64330 0.34360
H2 H 0.71020 0.66520 0.19550
H3 H 0.80840 0.84430 0.06560
H4 H 1.05580 0.82400 0.21690
H5 H 1.07620 1.00250 0.05740
H6 H 0.90470 0.39810 0.27720
H7 H 0.74190 0.27480 0.58460
H8 H 1.00280 0.23000 0.29220
H9 H 0.83370 0.10000 0.60690
H10 H 1.03490 0.03170 0.39290
H11 H 0.22520 0.23770 0.34350
H12 H 0.12700 0.25560 0.51570
H13 H 0.21530 0.11300 0.64820
H14 H 0.37320 0.01080 0.55760
H15 H 0.37880 0.08750 0.36880
H16 H 0.47990 0.29780 0.19380
H17 H 0.30060 0.40430 0.14780
H18 H 0.36570 0.62070 0.06800
H19 H 0.58610 0.64790 0.06410
H20 H 0.65670 0.44900 0.14160
Mo1A Mo 0.59848(3) 0.73765(3) 0.55188(2)
Mo2A Mo 0.59154(3) 0.50933(3) 0.73700(2)
Cu1A Cu 0.28656(5) 0.50794(5) 0.59176(4)
Cu1A_2 Cu 1.28656(5) 1.50794(5) -0.40824(4)
Cu1A_3 Cu 1.28656(5) -0.49206(5) 0.59176(4)
P1A P 0.45789(9) 0.54777(8) 0.62677(8)
P2A P 0.64587(9) 0.54777(9) 0.54410(8)
O1A O 0.8858(4) 0.5293(4) 0.6442(3)
O2A O 0.5999(5) 0.2448(3) 0.7759(3)
O3A O 0.5130(4) 0.7863(4) 0.3569(3)
O4A O 0.3334(3) 0.7717(3) 0.6842(3)
N1A N 1.1810(3) 1.3620(3) -0.2837(3)
N1A_2 N 0.1810(3) 0.3620(3) 0.7163(3)
N2A N 0.1867(3) 0.6471(3) 0.5703(3)
N2A_2 N 1.1867(3) -0.3529(3) 0.5703(3)
C1A C 1.0794(4) 1.3145(4) -0.2866(3)
C2A C 1.2191(4) 1.3018(4) -0.2004(4)
C3A C 1.1606(4) 1.1952(4) -0.1224(4)
C4A C 1.0565(4) 1.1447(4) -0.1258(3)
C5A C 1.0153(4) 1.2069(4) -0.2108(3)
C6A C 0.9882(4) 1.0301(4) -0.0449(3)
C7A C 1.1097(4) -0.3369(4) 0.6544(4)
C8A C 1.2050(4) -0.2657(4) 0.4761(4)
C9A C 1.0510(4) -0.2367(5) 0.6461(5)
C10A C 1.0703(4) -0.1472(4) 0.5494(5)
C11A C 1.1497(5) -0.1610(4) 0.4619(5)
C12A C 1.0041(5) -0.0406(4) 0.5432(5)
C13A C 0.7575(4) 0.8044(4) 0.5943(4)
C14A C 0.8135(4) 0.7948(4) 0.4966(4)
C15A C 0.7633(4) 0.8745(4) 0.4223(4)
C16A C 0.6747(5) 0.9326(4) 0.4731(4)
C17A C 0.6714(4) 0.8891(4) 0.5800(4)
C18A C 0.5212(6) 0.6211(5) 0.8370(4)
C19A C 0.6221(6) 0.5609(5) 0.8631(4)
C20A C 0.5855(6) 0.4390(5) 0.9081(4)
C21A C 0.4611(6) 0.4237(5) 0.9102(4)
C22A C 0.4214(5) 0.5357(5) 0.8664(4)
C23A C 0.7787(5) 0.5236(4) 0.6759(4)
C24A C 0.5952(5) 0.3422(4) 0.7567(4)
C25A C 0.4283(4) 0.7560(4) 0.6362(4)
C26A C 0.5398(5) 0.7665(4) 0.4306(4)
H1A H 1.04950 1.35670 -0.34360
H2A H 1.28980 1.33480 -0.19550
H3A H 1.19160 1.15570 -0.06560
H4A H 0.94420 1.17600 -0.21690
H5A H 0.92380 0.99750 -0.05740
H6A H 1.09530 -0.39810 0.72280
H7A H 1.25810 -0.27480 0.41540
H8A H 0.99720 -0.23000 0.70780
H9A H 1.16630 -0.10000 0.39310
H10A H 0.96510 -0.03170 0.60710
H11A H 0.77480 0.76230 0.65650
H12A H 0.87300 0.74440 0.48430
H13A H 0.78470 0.88700 0.35180
H14A H 0.62680 0.98920 0.44240
H15A H 0.62120 0.91250 0.63120
H16A H 0.52010 0.70220 0.80620
H17A H 0.69940 0.59570 0.85220
H18A H 0.63430 0.37930 0.93200
H19A H 0.41390 0.35210 0.93590
H20A H 0.34330 0.55100 0.85840
N3 N 0.9116(12) 0.4388(16) -0.0864(9)
C27 C 0.9200(11) 0.3759(12) -0.0168(9)
C28 C 0.9360(11) 0.2864(13) 0.0759(9)
H21 H 1.01720 0.30380 0.08030
H22 H 0.86840 0.28390 0.13850
H23 H 0.93340 0.21010 0.07230
Cl1 Cl 0.6593(4) 0.1137(3) -0.0138(2)
Cl2 Cl 0.6376(3) 0.0694(2) 0.1997(2)
C29 C 0.5851(9) 0.0293(8) 0.1114(9)
H24 H 0.59910 -0.05360 0.12500
H25 H 0.49380 0.03560 0.12700
F1 F 0.3158(5) 0.0988(6) 0.2123(4)
F2 F 0.3046(4) 0.1491(4) 0.0510(3)
F3 F 0.1392(5) 0.0449(5) 0.1954(4)
F4 F 0.1940(5) 0.2293(5) 0.1582(5)
B1 B 0.2377(6) 0.1278(6) 0.1545(5)
loop_
_geom_bond_atom_site_label_1
_geom_bond_atom_site_label_2
_geom_bond_site_symmetry_1
_geom_bond_site_symmetry_2
Mo1 Mo2 1_555 1_555
Mo2 P1 1_555 1_555
Cu1 P1 1_555 1_555
P1 Mo1 1_555 1_555
P2 Mo1 1_555 1_555
O1 C23 1_555 1_555
O2 C24 1_555 1_555
O3 C26 1_555 1_555
O4 C25 1_555 1_555
N1 Cu1 1_555 1_555
N2 Cu1 1_555 1_555
C1 N1 1_555 1_555
C2 N1 1_555 1_555
C3 C2 1_555 1_555
C4 C3 1_555 1_555
C5 C1 1_555 1_555
C6 C4 1_555 1_555
C7 N2 1_555 1_555
C8 N2 1_555 1_555
C9 C7 1_555 1_555
C10 C9 1_555 1_555
C11 C8 1_555 1_555
C12 C10 1_555 1_555
C13 Mo1 1_555 1_555
C14 Mo1 1_555 1_555
C15 Mo1 1_555 1_555
C16 Mo1 1_555 1_555
C17 Mo1 1_555 1_555
C18 Mo2 1_555 1_555
C19 Mo2 1_555 1_555
C20 Mo2 1_555 1_555
C21 Mo2 1_555 1_555
C22 Mo2 1_555 1_555
C23 Mo2 1_555 1_555
C24 Mo2 1_555 1_555
C25 Mo1 1_555 1_555
C26 Mo1 1_555 1_555
N3 C27 1_555 1_555
C27 C28 1_555 1_555
C28 H21 1_555 1_555
Cl1 C29 1_555 1_555
Cl2 C29 1_555 1_555
C29 H24 1_555 1_555
F1 B1 1_555 1_555
F2 B1 1_555 1_555
F3 B1 1_555 1_555
F4 B1 1_555 1_555
H1 C1 1_555 1_555
H2 C2 1_555 1_555
H3 C3 1_555 1_555
H4 C5 1_555 1_555
H5 C6 1_555 1_555
H6 C7 1_555 1_555
H7 C8 1_555 1_555
H8 C9 1_555 1_555
H9 C11 1_555 1_555
H10 C12 1_555 1_555
H11 C13 1_555 1_555
H12 C14 1_555 1_555
H13 C15 1_555 1_555
H14 C16 1_555 1_555
H15 C17 1_555 1_555
H16 C18 1_555 1_555
H17 C19 1_555 1_555
H18 C20 1_555 1_555
H19 C21 1_555 1_555
H20 C22 1_555 1_555
H22 C28 1_555 1_555
H23 C28 1_555 1_555
H25 C29 1_555 1_555
Mo1A Mo2A 1_555 1_555
Mo2A P1A 1_555 1_555
Cu1A P2 1_555 1_555
Cu1A_2 N1A 1_555 1_555
Cu1A_3 N2A_2 1_555 1_555
P1A Mo1A 1_555 1_555
P2A Cu1 1_555 1_555
O1A C23A 1_555 1_555
O2A C24A 1_555 1_555
O3A C26A 1_555 1_555
O4A C25A 1_555 1_555
N1A C1A 1_555 1_555
N1A_2 Cu1A 1_555 1_555
N2A Cu1A 1_555 1_555
N2A_2 C7A 1_555 1_555
C1A C5A 1_555 1_555
C2A N1A 1_555 1_555
C3A C2A 1_555 1_555
C4A C3A 1_555 1_555
C5A C4A 1_555 1_555
C6A C6 1_555 1_555
C7A C9A 1_555 1_555
C8A N2A_2 1_555 1_555
C9A C10A 1_555 1_555
C10A C11A 1_555 1_555
C11A C8A 1_555 1_555
C12A C12 1_555 1_555
C13A Mo1A 1_555 1_555
C14A Mo1A 1_555 1_555
C15A Mo1A 1_555 1_555
C16A Mo1A 1_555 1_555
C17A Mo1A 1_555 1_555
C18A Mo2A 1_555 1_555
C19A Mo2A 1_555 1_555
C20A Mo2A 1_555 1_555
C21A Mo2A 1_555 1_555
C22A Mo2A 1_555 1_555
C23A Mo2A 1_555 1_555
C24A Mo2A 1_555 1_555
C25A Mo1A 1_555 1_555
C26A Mo1A 1_555 1_555
H1A C1A 1_555 1_555
H2A C2A 1_555 1_555
H3A C3A 1_555 1_555
H4A C5A 1_555 1_555
H5A C6A 1_555 1_555
H6A C7A 1_555 1_555
H7A C8A 1_555 1_555
H8A C9A 1_555 1_555
H9A C11A 1_555 1_555
H10A C12A 1_555 1_555
H11A C13A 1_555 1_555
H12A C14A 1_555 1_555
H13A C15A 1_555 1_555
H14A C16A 1_555 1_555
H15A C17A 1_555 1_555
H16A C18A 1_555 1_555
H17A C19A 1_555 1_555
H18A C20A 1_555 1_555
H19A C21A 1_555 1_555
H20A C22A 1_555 1_555
Mo2 P2 1_555 1_555
P1 P2 1_555 1_555
C4 C5 1_555 1_555
C10 C11 1_555 1_555
C13 C14 1_555 1_555
C13 C17 1_555 1_555
C14 C15 1_555 1_555
C15 C16 1_555 1_555
C16 C17 1_555 1_555
C18 C19 1_555 1_555
C18 C22 1_555 1_555
C19 C20 1_555 1_555
C20 C21 1_555 1_555
C21 C22 1_555 1_555
Mo1A P2A 1_555 1_555
Mo2A P2A 1_555 1_555
Cu1A P1A 1_555 1_555
P1A P2A 1_555 1_555
C4A C6A 1_555 1_555
C10A C12A 1_555 1_555
C13A C14A 1_555 1_555
C13A C17A 1_555 1_555
C14A C15A 1_555 1_555
C15A C16A 1_555 1_555
C16A C17A 1_555 1_555
C18A C19A 1_555 1_555
C18A C22A 1_555 1_555
C19A C20A 1_555 1_555
C20A C21A 1_555 1_555
C21A C22A 1_555 1_555

#END
