
#######################################################################
#
#                 Cambridge Crystallographic Data Centre
#                                CCDC 
#
#######################################################################
#
# If this CIF has been generated from an entry in the Cambridge 
# Structural Database, then it will include bibliographic, chemical, 
# crystal, experimental, refinement or atomic coordinate data resulting 
# from the CCDC's data processing and validation procedures.
#
#######################################################################

data_ODARAN
_symmetry_cell_setting           orthorhombic
_symmetry_space_group_name_H-M   'P b c a'
_symmetry_Int_Tables_number      61
_space_group_name_Hall           '-P 2ac 2ab'
loop_
_symmetry_equiv_pos_site_id
_symmetry_equiv_pos_as_xyz
1 x,y,z
2 1/2-x,-y,1/2+z
3 -x,1/2+y,1/2-z
4 1/2+x,1/2-y,-z
5 -x,-y,-z
6 1/2+x,y,1/2-z
7 x,1/2-y,1/2+z
8 1/2-x,1/2+y,z
_cell_length_a                   13.7859(2)
_cell_length_b                   6.76320(10)
_cell_length_c                   21.6642(3)
_cell_angle_alpha                90
_cell_angle_beta                 90
_cell_angle_gamma                90
_cell_volume                     2019.9
loop_
_atom_site_label
_atom_site_type_symbol
_atom_site_fract_x
_atom_site_fract_y
_atom_site_fract_z
Er1 Er 0.830520(8) 1.015000(17) 0.445212(5)
O1 O 0.86275(16) 1.0358(3) 0.54788(8)
O2 O 1.01196(13) 0.9293(3) 0.56719(8)
C1 C 0.92634(19) 0.9671(4) 0.58343(12)
C2 C 0.89883(19) 0.9265(4) 0.64930(11)
C3 C 0.8056(2) 0.9692(4) 0.66998(14)
H1 H 0.7603 1.0227 0.6429
C4 C 0.7801(2) 0.9326(4) 0.73052(12)
H2 H 0.7177 0.9619 0.7441
C5 C 0.84712(19) 0.8521(4) 0.77131(12)
C6 C 0.81860(19) 0.8050(4) 0.83672(12)
C7 C 0.9399(2) 0.8077(4) 0.75041(12)
H3 H 0.9850 0.7525 0.7773
C8 C 0.9657(2) 0.8450(5) 0.69003(12)
H4 H 1.0280 0.8154 0.6765
O3 O 0.73868(14) 0.8698(3) 0.85617(8)
O4 O 0.87608(14) 0.7007(3) 0.86795(9)
O5 O 0.66753(12) 0.8681(3) 0.45260(9)
O6 O 0.67687(13) 1.1735(3) 0.48322(9)
C9 C 0.6258(2) 1.0257(4) 0.46860(16)
C10 C 0.5158(2) 1.0395(5) 0.46877(16)
H5 H 0.4950 1.1755 0.4636
H6 H 0.4884 0.9605 0.4357
Er1D Er 1.169480(8) 0.985000(17) 0.554788(5)
Er1A Er 0.669480(8) 0.985000(17) 0.945212(5)
Er1F Er 0.830520(8) 0.485000(17) 0.945212(5)
Er1G Er 0.669480(8) 0.515000(17) 0.445212(5)
Er1G_2 Er 0.669480(8) 1.515000(17) 0.445212(5)
Er1D_2 Er 0.169480(8) 0.985000(17) 0.554788(5)
Er1C Er 0.330520(8) 1.485000(17) 0.554788(5)
Er1C_2 Er 0.330520(8) 0.485000(17) 0.554788(5)
Er1E Er 1.330520(8) 1.015000(17) 0.054788(5)
Er1B Er 1.169480(8) 1.515000(17) 0.054788(5)
O1D O 1.13725(16) 0.9642(3) 0.45212(8)
O2D O 0.98804(13) 1.0707(3) 0.43281(8)
C1D C 1.07366(19) 1.0329(4) 0.41657(12)
C2D C 1.10117(19) 1.0735(4) 0.35070(11)
C3D C 1.1944(2) 1.0308(4) 0.33002(14)
H1D H 1.2397 0.9773 0.3571
C4D C 1.2199(2) 1.0674(4) 0.26948(12)
H2D H 1.2823 1.0381 0.2559
C5D C 1.15288(19) 1.1479(4) 0.22869(12)
C6D C 1.18140(19) 1.1950(4) 0.16328(12)
C7D C 1.0601(2) 1.1923(4) 0.24959(12)
H3D H 1.0150 1.2475 0.2227
C8D C 1.0343(2) 1.1550(5) 0.30997(12)
H4D H 0.9720 1.1846 0.3235
O3D O 1.26132(14) 1.1302(3) 0.14383(8)
O3A O 0.76132(14) 1.1302(3) 0.35617(8)
O3E O 1.23868(14) 0.8698(3) 0.64383(8)
O4D O 1.12392(14) 1.2993(3) 0.13205(9)
O4F O 0.87608(14) 0.7993(3) 0.36795(9)
O4B O 1.12392(14) 1.2007(3) 0.63205(9)
O5D O 0.33247(12) 1.1319(3) 0.54740(9)
O5G O 0.83247(12) 1.3681(3) 0.45260(9)
O5D_2 O 1.33247(12) 1.1319(3) 0.54740(9)
O5C O 1.16753(12) 0.6319(3) 0.54740(9)
O6D O 0.32313(13) 0.8265(3) 0.51678(9)
O6G O 0.82313(13) 0.6735(3) 0.48322(9)
O6D_2 O 1.32313(13) 0.8265(3) 0.51678(9)
O6C O 1.17687(13) 1.3265(3) 0.51678(9)
C9D C 0.3742(2) 0.9743(4) 0.53140(16)
C10D C 0.4842(2) 0.9605(5) 0.53123(16)
H5D H 0.5050 0.8245 0.5364
H6D H 0.5116 1.0395 0.5643
loop_
_geom_bond_atom_site_label_1
_geom_bond_atom_site_label_2
_geom_bond_site_symmetry_1
_geom_bond_site_symmetry_2
Er1 O1 1_555 1_555
O1 C1 1_555 1_555
O2 C1 1_555 1_555
C1 C2 1_555 1_555
C2 C3 1_555 1_555
C3 H1 1_555 1_555
C4 C3 1_555 1_555
H2 C4 1_555 1_555
C5 C4 1_555 1_555
C6 C5 1_555 1_555
C7 C5 1_555 1_555
H3 C7 1_555 1_555
C8 C2 1_555 1_555
H4 C8 1_555 1_555
O3 C6 1_555 1_555
O4 C6 1_555 1_555
O5 Er1 1_555 1_555
O6 Er1 1_555 1_555
C9 O5 1_555 1_555
C10 C9 1_555 1_555
H5 C10 1_555 1_555
H6 C10 1_555 1_555
Er1D O2 1_555 1_555
Er1A O3 1_555 1_555
Er1F O4 1_555 1_555
Er1G O5 1_555 1_555
Er1G_2 O6 1_555 1_555
Er1D_2 O5D 1_555 1_555
Er1C O5D 1_555 1_555
Er1C_2 O6D 1_555 1_555
Er1E O3D 1_555 1_555
Er1B O4D 1_555 1_555
O1D Er1D 1_555 1_555
O2D Er1 1_555 1_555
C1D O1D 1_555 1_555
C2D C1D 1_555 1_555
C3D C2D 1_555 1_555
H1D C3D 1_555 1_555
C4D C3D 1_555 1_555
H2D C4D 1_555 1_555
C5D C4D 1_555 1_555
C6D C5D 1_555 1_555
C7D C5D 1_555 1_555
H3D C7D 1_555 1_555
C8D C2D 1_555 1_555
H4D C8D 1_555 1_555
O3D C6D 1_555 1_555
O3A Er1 1_555 1_555
O3E Er1D 1_555 1_555
O4D C6D 1_555 1_555
O4F Er1 1_555 1_555
O4B Er1D 1_555 1_555
O5D C9D 1_555 1_555
O5G Er1 1_555 1_555
O5D_2 Er1D 1_555 1_555
O5C Er1D 1_555 1_555
O6D Er1D_2 1_555 1_555
O6G Er1 1_555 1_555
O6D_2 Er1D 1_555 1_555
O6C Er1D 1_555 1_555
C9D O6D 1_555 1_555
C10D C10 1_555 1_555
H5D C10D 1_555 1_555
H6D C10D 1_555 1_555
C7 C8 1_555 1_555
O6 C9 1_555 1_555
Er1G O6G 1_555 1_555
Er1G_2 O5G 1_555 1_555
O2D C1D 1_555 1_555
C7D C8D 1_555 1_555
C9D C10D 1_555 1_555

#END
