
#######################################################################
#
#                 Cambridge Crystallographic Data Centre
#                                CCDC 
#
#######################################################################
#
# If this CIF has been generated from an entry in the Cambridge 
# Structural Database, then it will include bibliographic, chemical, 
# crystal, experimental, refinement or atomic coordinate data resulting 
# from the CCDC's data processing and validation procedures.
#
#######################################################################

data_ODASIX
_symmetry_cell_setting           triclinic
_symmetry_space_group_name_H-M   'P -1'
_symmetry_Int_Tables_number      2
_space_group_name_Hall           '-P 1'
loop_
_symmetry_equiv_pos_site_id
_symmetry_equiv_pos_as_xyz
1 x,y,z
2 -x,-y,-z
_cell_length_a                   11.9793(11)
_cell_length_b                   12.2319(11)
_cell_length_c                   13.5699(12)
_cell_angle_alpha                112.0820(10)
_cell_angle_beta                 91.7540(10)
_cell_angle_gamma                113.1050(10)
_cell_volume                     1657.32
loop_
_atom_site_label
_atom_site_type_symbol
_atom_site_fract_x
_atom_site_fract_y
_atom_site_fract_z
Cu1 Cu 1.0000 0.5000 0.0000
Cu2 Cu 1.11897(4) 0.54524(4) -0.31474(3)
Cu3 Cu 0.58402(4) 0.71798(4) 0.16909(3)
O1 O 0.9787(2) 0.3927(2) -0.43544(19)
H1 H 1.0034 0.3746 -0.4925
O2 O 0.9596(2) 0.6245(2) -0.03175(17)
O3 O 0.4403(2) 0.6097(3) 0.0464(2)
H2 H 0.3945 0.5442 0.0538
O4 O 1.0010(2) 0.6041(2) -0.24947(19)
O5 O 0.6751(2) 0.8035(2) 0.08067(18)
O6 O 1.5033(2) 0.6260(2) -0.74538(19)
O7 O 0.7831(2) 0.4930(2) -0.15708(18)
O8 O 1.0032(3) 0.7152(3) -0.3482(2)
O9 O 1.2299(2) 0.4742(2) -0.38649(18)
N1 N 1.2608(3) 0.7076(3) -0.2024(2)
O10 O 1.2213(2) 0.5978(2) -0.4684(2)
O11 O 0.8322(2) 0.3600(3) -0.0592(2)
H3 H 0.8017 0.3624 -0.1128
N2 N 0.7338(3) 0.8223(3) 0.2881(2)
O12 O 0.7423(2) 0.6508(2) 0.04997(19)
N3 N 0.8818(3) 1.0657(3) -0.1246(2)
O13 O 1.3108(2) 0.6665(2) -0.64608(19)
H4 H 1.2788 0.6000 -0.7032
C1 C 1.3758(3) 0.5172(3) -0.6098(2)
O14 O 1.4660(3) 0.7488(2) -0.5094(2)
C2 C 0.8700(3) 0.7223(3) -0.1088(2)
C3 C 0.7391(3) 0.7447(3) 0.0362(2)
C4 C 1.3583(3) 0.2748(3) -0.6412(3)
C5 C 0.8115(3) 0.7917(3) -0.0408(2)
C6 C 0.8759(3) 0.9458(3) -0.1191(2)
C7 C 0.8705(3) 0.6024(3) -0.0993(2)
C8 C 0.9808(3) 0.6889(3) -0.2695(3)
C9 C 0.8154(3) 0.9046(3) -0.0464(2)
H5 H 0.7775 0.9514 -0.0015
C10 C 1.3108(3) 0.3364(3) -0.5584(3)
H6 H 1.2740 0.2970 -0.5137
O15 O 0.9501(3) 1.1116(3) -0.1773(2)
C11 C 1.3187(3) 0.4584(3) -0.5426(2)
C12 C 1.4152(3) 0.3302(3) -0.7081(3)
H7 H 1.4475 0.2868 -0.7627
O16 O 0.8156(3) 1.1123(3) -0.0752(3)
C13 C 1.2538(3) 0.5170(3) -0.4597(3)
C14 C 0.9242(3) 0.7628(3) -0.1872(2)
C15 C 0.9282(3) 0.8760(3) -0.1907(2)
H9 H 0.9659 0.9046 -0.2410
N4 N 1.3420(3) 0.1423(3) -0.6616(2)
C16 C 0.9446(3) 0.9628(3) 0.4551(3)
C17 C 1.4499(3) 0.9386(3) -0.0424(3)
C18 C 1.3896(3) 0.6542(3) -0.5848(3)
O17 O 1.2712(3) 0.0846(3) -0.6161(3)
C19 C 1.4236(3) 0.4526(3) -0.6928(2)
O18 O 1.5096(3) 0.4382(3) -0.8481(2)
C20 C 0.7855(3) 0.7612(4) 0.3233(3)
H10 H 0.7490 0.6701 0.2918
O19 O 1.3969(3) 0.0940(3) -0.7252(2)
C21 C 1.4840(3) 0.5081(4) -0.7703(3)
C22 C 0.8907(3) 0.8277(3) 0.4045(3)
H11 H 0.9253 0.7815 0.4251
C23 C 1.4112(4) 0.8196(4) -0.0374(3)
H12 H 1.4486 0.8141 0.0206
C24 C 1.3178(4) 0.7082(4) -0.1170(3)
H13 H 1.2937 0.6296 -0.1104
C25 C 0.8914(5) 1.0245(4) 0.4167(4)
H14 H 0.9253 1.1155 0.4471
C26 C 1.3894(4) 0.9364(4) -0.1325(3)
H15 H 1.4111 1.0137 -0.1410
C27 C 1.2985(4) 0.8223(4) -0.2085(3)
H16 H 1.2606 0.8245 -0.2681
C28 C 0.7882(5) 0.9518(4) 0.3336(4)
H17 H 0.7551 0.9959 0.3082
O21 O 0.4841(4) 0.8556(4) 0.2486(3)
H18 H 0.5213 0.9064 0.3114
H19 H 0.922(4) 0.396(4) -0.438(4)
H24 H 0.421(6) 0.854(7) 0.252(6)
H25 H 0.826(4) 0.291(5) -0.085(4)
H26 H 0.454(3) 0.598(4) -0.002(3)
Cu2A Cu 0.88103(4) 0.45476(4) 0.31474(3)
Cu2A_2 Cu 1.88103(4) 1.45476(4) 0.31474(3)
Cu2_2 Cu 0.11897(4) 0.54524(4) 0.68526(3)
Cu3A Cu 1.41598(4) 0.28202(4) -0.16909(3)
Cu3_2 Cu 1.58402(4) 0.71798(4) -0.83091(3)
Cu3A_2 Cu 1.41598(4) 1.28202(4) 0.83091(3)
O1A O 1.0213(2) 0.6073(2) 0.43544(19)
H1A H 0.9966 0.6254 0.4925
O2A O 1.0404(2) 0.3755(2) 0.03175(17)
O3A O 1.5597(2) 0.3903(3) -0.0464(2)
H2A H 1.6055 0.4558 -0.0538
O4A O 0.9990(2) 0.3959(2) 0.24947(19)
O5A O 1.3249(2) 0.1965(2) -0.08067(18)
O6_2 O 0.5033(2) 0.6260(2) 0.25462(19)
O6A O 1.4967(2) 0.3740(2) -0.25462(19)
O7A O 1.2169(2) 0.5070(2) 0.15708(18)
O8A O 0.9968(3) 0.2848(3) 0.3482(2)
O9_2 O 0.2299(2) 0.4742(2) 0.61351(18)
O9A O 0.7701(2) 0.5258(2) 0.38649(18)
N1A N 1.7392(3) 1.2924(3) 0.2024(2)
N1A_2 N 0.7392(3) 0.2924(3) 0.2024(2)
O10_2 O 0.2213(2) 0.5978(2) 0.5316(2)
O11A O 1.1678(2) 0.6400(3) 0.0592(2)
H3A H 1.1983 0.6376 0.1128
N2A N 1.2662(3) 1.1777(3) 0.7119(2)
N2A_2 N 1.2662(3) 0.1777(3) -0.2881(2)
O12A O 1.2577(2) 0.3492(2) -0.04997(19)
N3A N 1.1182(3) -0.0657(3) 0.1246(2)
O13_2 O 0.3108(2) 0.6665(2) 0.35392(19)
H4_2 H 0.2788 0.6000 0.2968
C1_2 C 0.3758(3) 0.5172(3) 0.3902(2)
O14_2 O 0.4660(3) 0.7488(2) 0.4906(2)
C2A C 1.1300(3) 0.2777(3) 0.1088(2)
C3A C 1.2609(3) 0.2553(3) -0.0362(2)
C4_2 C 0.3583(3) 0.2748(3) 0.3588(3)
C5A C 1.1885(3) 0.2083(3) 0.0408(2)
C6A C 1.1241(3) 0.0542(3) 0.1191(2)
C7A C 1.1295(3) 0.3976(3) 0.0993(2)
C8A C 1.0192(3) 0.3111(3) 0.2695(3)
C9A C 1.1846(3) 0.0954(3) 0.0464(2)
H5A H 1.2225 0.0486 0.0015
C10_2 C 0.3108(3) 0.3364(3) 0.4416(3)
H6_2 H 0.2740 0.2970 0.4863
O15A O 1.0499(3) -0.1116(3) 0.1773(2)
C11_2 C 0.3187(3) 0.4584(3) 0.4574(2)
C12_2 C 0.4152(3) 0.3302(3) 0.2919(3)
H7_2 H 0.4475 0.2868 0.2373
O16A O 1.1844(3) -0.1123(3) 0.0752(3)
C13_2 C 0.2538(3) 0.5170(3) 0.5403(3)
C14A C 1.0758(3) 0.2372(3) 0.1872(2)
C15A C 1.0718(3) 0.1240(3) 0.1907(2)
H9A H 1.0341 0.0954 0.2410
N4_2 N 0.3420(3) 0.1423(3) 0.3384(2)
C16A C 1.0554(3) 1.0372(3) 0.5449(3)
C17A C 1.5501(3) 1.0614(3) 0.0424(3)
C18_2 C 0.3896(3) 0.6542(3) 0.4152(3)
O17_2 O 0.2712(3) 0.0846(3) 0.3839(3)
C19_2 C 0.4236(3) 0.4526(3) 0.3072(2)
O18_2 O 0.5096(3) 0.4382(3) 0.1519(2)
C20A C 1.2145(3) 1.2388(4) 0.6767(3)
H10A H 1.2510 1.3299 0.7082
O19_2 O 0.3969(3) 0.0940(3) 0.2748(2)
C21_2 C 0.4840(3) 0.5081(4) 0.2297(3)
C22A C 1.1093(3) 1.1723(3) 0.5955(3)
H11A H 1.0747 1.2185 0.5749
C23A C 1.5888(4) 1.1804(4) 0.0374(3)
H12A H 1.5514 1.1859 -0.0206
C24A C 1.6822(4) 1.2918(4) 0.1170(3)
H13A H 1.7063 1.3704 0.1104
C25A C 1.1086(5) 0.9755(4) 0.5833(4)
H14A H 1.0747 0.8845 0.5529
C26A C 1.6106(4) 1.0636(4) 0.1325(3)
H15A H 1.5889 0.9863 0.1410
C27A C 1.7015(4) 1.1777(4) 0.2085(3)
H16A H 1.7394 1.1755 0.2681
C28A C 1.2118(5) 1.0482(4) 0.6664(4)
H17A H 1.2449 1.0041 0.6918
O21A O 1.5159(4) 0.1444(4) -0.2486(3)
H18A H 1.4787 0.0936 -0.3114
H19A H 1.078(4) 0.604(4) 0.438(4)
H24A H 1.579(6) 0.146(7) -0.252(6)
H25A H 1.174(4) 0.709(5) 0.085(4)
H26A H 1.546(3) 0.402(4) 0.002(3)
O20 O 0.9342(4) 0.5893(3) 0.1861(3)
H20 H 0.994(4) 0.653(5) 0.225(4)
H22 H 0.894(5) 0.617(5) 0.162(4)
O22 O 0.1713(4) 0.7946(4) 0.3102(4)
H21 H 0.193(7) 0.881(8) 0.321(6)
H23 H 0.217(7) 0.808(7) 0.364(6)
O23 O 0.5789(15) 0.0290(13) 0.4545(7)
H8? H 0.7847 1.1373 -0.1120
loop_
_geom_bond_atom_site_label_1
_geom_bond_atom_site_label_2
_geom_bond_site_symmetry_1
_geom_bond_site_symmetry_2
Cu1 O2 1_555 1_555
Cu2 O1 1_555 1_555
Cu3 O3 1_555 1_555
O1 H1 1_555 1_555
O2 C7 1_555 1_555
O3 H2 1_555 1_555
O4 Cu2 1_555 1_555
O5 Cu3 1_555 1_555
O6 C21 1_555 1_555
O7 C7 1_555 1_555
O8 C8 1_555 1_555
O9 Cu2 1_555 1_555
N1 Cu2 1_555 1_555
O10 C13 1_555 1_555
O11 Cu1 1_555 1_555
H3 O11 1_555 1_555
N2 Cu3 1_555 1_555
O12 C3 1_555 1_555
N3 C6 1_555 1_555
O13 H4 1_555 1_555
C1 C11 1_555 1_555
O14 C18 1_555 1_555
C2 C5 1_555 1_555
C3 O5 1_555 1_555
C4 C10 1_555 1_555
C5 C3 1_555 1_555
C6 C9 1_555 1_555
C7 C2 1_555 1_555
C8 O4 1_555 1_555
C9 C5 1_555 1_555
H5 C9 1_555 1_555
C10 H6 1_555 1_555
O15 N3 1_555 1_555
C11 C10 1_555 1_555
C12 C4 1_555 1_555
H7 C12 1_555 1_555
O16 N3 1_555 1_555
C13 O9 1_555 1_555
C14 C2 1_555 1_555
C15 C6 1_555 1_555
H9 C15 1_555 1_555
N4 C4 1_555 1_555
C16 C22 1_555 1_555
C17 C23 1_555 1_555
C18 O13 1_555 1_555
O17 N4 1_555 1_555
C19 C1 1_555 1_555
O18 C21 1_555 1_555
C20 N2 1_555 1_555
H10 C20 1_555 1_555
O19 N4 1_555 1_555
C21 C19 1_555 1_555
C22 C20 1_555 1_555
H11 C22 1_555 1_555
C23 H12 1_555 1_555
C24 N1 1_555 1_555
H13 C24 1_555 1_555
C25 C16 1_555 1_555
H14 C25 1_555 1_555
C26 C17 1_555 1_555
H15 C26 1_555 1_555
C27 N1 1_555 1_555
H16 C27 1_555 1_555
C28 N2 1_555 1_555
H17 C28 1_555 1_555
O20 H20 1_555 1_555
O21 Cu3 1_555 1_555
H18 O21 1_555 1_555
O22 H21 1_555 1_555
H19 O1 1_555 1_555
H22 O20 1_555 1_555
H23 O22 1_555 1_555
H24 O21 1_555 1_555
H25 O11 1_555 1_555
H26 O3 1_555 1_555
Cu2A O1A 1_555 1_555
Cu2A_2 N1A 1_555 1_555
Cu2_2 O9_2 1_555 1_555
Cu3A O3A 1_555 1_555
Cu3_2 O6 1_555 1_555
Cu3A_2 N2A 1_555 1_555
O1A H1A 1_555 1_555
O2A Cu1 1_555 1_555
O3A H2A 1_555 1_555
O4A Cu2A 1_555 1_555
O5A Cu3A 1_555 1_555
O6_2 Cu3 1_555 1_555
O6A Cu3A 1_555 1_555
O7A C7A 1_555 1_555
O8A C8A 1_555 1_555
O9_2 C13_2 1_555 1_555
O9A Cu2A 1_555 1_555
N1A C24A 1_555 1_555
N1A_2 Cu2A 1_555 1_555
O10_2 C13_2 1_555 1_555
O11A Cu1 1_555 1_555
H3A O11A 1_555 1_555
N2A C20A 1_555 1_555
N2A_2 Cu3A 1_555 1_555
O12A C3A 1_555 1_555
N3A C6A 1_555 1_555
O13_2 H4_2 1_555 1_555
C1_2 C11_2 1_555 1_555
O14_2 C18_2 1_555 1_555
C2A C5A 1_555 1_555
C3A O5A 1_555 1_555
C4_2 C10_2 1_555 1_555
C5A C3A 1_555 1_555
C6A C9A 1_555 1_555
C7A O2A 1_555 1_555
C8A O4A 1_555 1_555
C9A C5A 1_555 1_555
H5A C9A 1_555 1_555
C10_2 H6_2 1_555 1_555
O15A N3A 1_555 1_555
C11_2 C10_2 1_555 1_555
C12_2 C4_2 1_555 1_555
H7_2 C12_2 1_555 1_555
O16A N3A 1_555 1_555
C13_2 C11_2 1_555 1_555
C14A C2A 1_555 1_555
C15A C6A 1_555 1_555
H9A C15A 1_555 1_555
N4_2 C4_2 1_555 1_555
C16A C16 1_555 1_555
C17A C17 1_555 1_555
C18_2 O13_2 1_555 1_555
O17_2 N4_2 1_555 1_555
C19_2 C1_2 1_555 1_555
O18_2 C21_2 1_555 1_555
C20A H10A 1_555 1_555
O19_2 N4_2 1_555 1_555
C21_2 O6_2 1_555 1_555
C22A C16A 1_555 1_555
H11A C22A 1_555 1_555
C23A C17A 1_555 1_555
H12A C23A 1_555 1_555
C24A C23A 1_555 1_555
H13A C24A 1_555 1_555
C25A C16A 1_555 1_555
H14A C25A 1_555 1_555
C26A C17A 1_555 1_555
H15A C26A 1_555 1_555
C27A N1A 1_555 1_555
H16A C27A 1_555 1_555
C28A N2A 1_555 1_555
H17A C28A 1_555 1_555
O21A Cu3A 1_555 1_555
H18A O21A 1_555 1_555
H19A O1A 1_555 1_555
H24A O21A 1_555 1_555
H25A O11A 1_555 1_555
H26A O3A 1_555 1_555
C1 C18 1_555 1_555
C8 C14 1_555 1_555
C11 C13 1_555 1_555
C12 C19 1_555 1_555
C14 C15 1_555 1_555
C23 C24 1_555 1_555
C25 C28 1_555 1_555
C26 C27 1_555 1_555
C1_2 C18_2 1_555 1_555
C2A C7A 1_555 1_555
C8A C14A 1_555 1_555
C12_2 C19_2 1_555 1_555
C14A C15A 1_555 1_555
C19_2 C21_2 1_555 1_555
C20A C22A 1_555 1_555
C25A C28A 1_555 1_555
C26A C27A 1_555 1_555

#END
