
#######################################################################
#
#                 Cambridge Crystallographic Data Centre
#                                CCDC 
#
#######################################################################
#
# If this CIF has been generated from an entry in the Cambridge 
# Structural Database, then it will include bibliographic, chemical, 
# crystal, experimental, refinement or atomic coordinate data resulting 
# from the CCDC's data processing and validation procedures.
#
#######################################################################

data_ODATIY
_symmetry_cell_setting           monoclinic
_symmetry_space_group_name_H-M   'P 21/a'
_symmetry_Int_Tables_number      14
_space_group_name_Hall           '-P 2yab'
loop_
_symmetry_equiv_pos_site_id
_symmetry_equiv_pos_as_xyz
1 x,y,z
2 1/2-x,1/2+y,-z
3 -x,-y,-z
4 1/2+x,1/2-y,z
_cell_length_a                   6.9254(10)
_cell_length_b                   16.768(2)
_cell_length_c                   7.0720(10)
_cell_angle_alpha                90
_cell_angle_beta                 101.235(3)
_cell_angle_gamma                90
_cell_volume                     805.499
loop_
_atom_site_label
_atom_site_type_symbol
_atom_site_fract_x
_atom_site_fract_y
_atom_site_fract_z
Pr1 Pr 0.49109(3) 0.420297(12) 0.24116(3)
O1 O 0.1658(5) 0.41665(19) 0.0237(4)
O2 O 0.8572(4) 0.43049(17) 0.2328(4)
O3 O 1.3162(4) 0.48142(17) 0.4684(4)
O4 O 0.6756(4) 0.34914(17) 0.5060(4)
O5 O 0.6633(5) 0.18580(17) 0.7279(4)
O6 O 0.2678(5) 0.3222(2) 0.3569(5)
C1 C 0.5910(6) 0.3732(2) 0.8302(5)
C2 C 0.6459(6) 0.3325(2) 0.6696(5)
C3 C 0.6430(6) 0.2567(2) 0.7718(5)
C4 C 0.9423(6) 0.4680(2) 0.3780(5)
C5 C 1.1385(6) 0.4900(2) 0.4796(6)
C6 C 0.5938(6) 0.3012(2) 0.9344(5)
O7 O 0.5413(4) 0.44266(16) 0.8805(4)
O8 O 0.5528(4) 0.28904(17) 1.0977(4)
H1 H 0.159(8) 0.393(3) -0.084(4)
H2 H 0.242(7) 0.314(3) 0.468(3)
H3 H 0.208(8) 0.288(3) 0.277(5)
H4 H 0.060(6) 0.411(4) 0.066(8)
Pr1B Pr 0.50891(3) 0.579703(12) 0.75884(3)
Pr1_2 Pr 0.49109(3) 0.420297(12) 1.24116(3)
Pr1_3 Pr 1.49109(3) 0.420297(12) 0.24116(3)
Pr1B_2 Pr 0.50891(3) 0.579703(12) -0.24116(3)
Pr1B_3 Pr 1.50891(3) 0.579703(12) 0.75884(3)
O1B O 0.8342(5) 0.58335(19) 0.9763(4)
O2B O 1.1428(4) 0.56951(17) 0.7672(4)
O2B_2 O 0.1428(4) 0.56951(17) 0.7672(4)
O3B O 0.6838(4) 0.51858(17) 0.5316(4)
O3_2 O 0.3162(4) 0.48142(17) 0.4684(4)
O4B O 0.3244(4) 0.65086(17) 0.4940(4)
O5B O 0.3367(5) 0.81420(17) 0.2721(4)
O6B O 0.7322(5) 0.6778(2) 0.6431(5)
C1B C 0.4090(6) 0.6268(2) 0.1698(5)
C2B C 0.3541(6) 0.6675(2) 0.3304(5)
C3B C 0.3570(6) 0.7433(2) 0.2282(5)
C4B C 1.0577(6) 0.5320(2) 0.6220(5)
C5B C 0.8615(6) 0.5100(2) 0.5204(6)
C6B C 0.4062(6) 0.6988(2) 0.0656(5)
O7B O 0.4587(4) 0.55734(16) 0.1195(4)
O7_2 O 0.5413(4) 0.44266(16) -0.1195(4)
O7B_2 O 0.4587(4) 0.55734(16) 1.1195(4)
O8B O 0.4472(4) 0.71096(17) -0.0977(4)
O8_2 O 0.5528(4) 0.28904(17) 0.0977(4)
O8B_2 O 0.4472(4) 0.71096(17) 0.9023(4)
H1B H 0.841(8) 0.607(3) 1.084(4)
H2B H 0.758(7) 0.686(3) 0.532(3)
H3B H 0.792(8) 0.712(3) 0.723(5)
H4B H 0.940(6) 0.589(4) 0.934(8)
loop_
_geom_bond_atom_site_label_1
_geom_bond_atom_site_label_2
_geom_bond_site_symmetry_1
_geom_bond_site_symmetry_2
Pr1 O1 1_555 1_555
O1 H1 1_555 1_555
O2 Pr1 1_555 1_555
O3 C5 1_555 1_555
O4 Pr1 1_555 1_555
O5 C3 1_555 1_555
O6 Pr1 1_555 1_555
C1 C2 1_555 1_555
C2 O4 1_555 1_555
C3 C2 1_555 1_555
C4 O2 1_555 1_555
C5 C4 1_555 1_555
C6 C1 1_555 1_555
O7 C1 1_555 1_555
O8 C6 1_555 1_555
H2 O6 1_555 1_555
H3 O6 1_555 1_555
H4 O1 1_555 1_555
Pr1B O7 1_555 1_555
Pr1_2 O7 1_555 1_555
Pr1_3 O3 1_555 1_555
Pr1B_2 O7B 1_555 1_555
Pr1B_3 O3 1_555 1_555
O1B Pr1B 1_555 1_555
O2B Pr1B_3 1_555 1_555
O2B_2 Pr1B 1_555 1_555
O3B Pr1 1_555 1_555
O3_2 Pr1 1_555 1_555
O4B Pr1B 1_555 1_555
O5B C3B 1_555 1_555
O6B Pr1B 1_555 1_555
C1B C2B 1_555 1_555
C2B O4B 1_555 1_555
C3B C2B 1_555 1_555
C4B C5 1_555 1_555
C5B C4 1_555 1_555
C6B C1B 1_555 1_555
O7B Pr1 1_555 1_555
O7_2 Pr1 1_555 1_555
O7B_2 Pr1B 1_555 1_555
O8B Pr1B_2 1_555 1_555
O8_2 Pr1 1_555 1_555
O8B_2 Pr1B 1_555 1_555
H1B O1B 1_555 1_555
H2B O6B 1_555 1_555
H3B O6B 1_555 1_555
H4B O1B 1_555 1_555
C3 C6 1_555 1_555
O8 Pr1_2 1_555 1_555
Pr1B O3B 1_555 1_555
Pr1B O3_2 1_555 1_555
Pr1_2 O7B_2 1_555 1_555
Pr1B_2 O7_2 1_555 1_555
O2B C4B 1_555 1_555
O3B C5B 1_555 1_555
C1B O7B 1_555 1_555
C3B C6B 1_555 1_555
C4B C5B 1_555 1_555
C6B O8B 1_555 1_555

#END
