
#######################################################################
#
#                 Cambridge Crystallographic Data Centre
#                                CCDC 
#
#######################################################################
#
# If this CIF has been generated from an entry in the Cambridge 
# Structural Database, then it will include bibliographic, chemical, 
# crystal, experimental, refinement or atomic coordinate data resulting 
# from the CCDC's data processing and validation procedures.
#
#######################################################################

data_ODAVAS
_symmetry_cell_setting           monoclinic
_symmetry_space_group_name_H-M   'P 21/c'
_symmetry_Int_Tables_number      14
_space_group_name_Hall           '-P 2ybc'
loop_
_symmetry_equiv_pos_site_id
_symmetry_equiv_pos_as_xyz
1 x,y,z
2 -x,1/2+y,1/2-z
3 -x,-y,-z
4 x,1/2-y,1/2+z
_cell_length_a                   7.0350(14)
_cell_length_b                   16.677(3)
_cell_length_c                   6.9023(14)
_cell_angle_alpha                90
_cell_angle_beta                 101.89(3)
_cell_angle_gamma                90
_cell_volume                     792.422
loop_
_atom_site_label
_atom_site_type_symbol
_atom_site_fract_x
_atom_site_fract_y
_atom_site_fract_z
Ho1 Ho 0.24053(2) 0.579747(10) 0.48909(2)
O1 O 0.0978(3) 0.71107(15) 0.5468(4)
O2 O -0.1206(3) 0.55722(15) 0.5364(4)
O3 O -0.4975(3) 0.65135(15) 0.6755(4)
O4 O -0.2732(4) 0.81583(15) 0.6615(4)
O5 O 0.2299(4) 0.57036(15) 0.8519(4)
O6 O 0.4648(4) 0.51785(15) 1.3168(4)
O7 O 0.3569(4) 0.67670(16) 0.2673(4)
H1 H 0.468(3) 0.687(3) 0.264(6)
H2 H 0.268(4) 0.700(3) 0.195(6)
O8 O 0.0235(4) 0.58137(15) 0.1651(4)
H3 H -0.081(5) 0.608(2) 0.173(6)
H4 H 0.067(6) 0.589(3) 0.068(6)
C1 C -0.0660(5) 0.6995(2) 0.5898(5)
C2 C -0.1719(5) 0.6265(2) 0.5871(5)
C3 C -0.3328(5) 0.6679(2) 0.6438(5)
C4 C -0.2281(5) 0.7443(2) 0.6408(5)
C5 C 0.3776(5) 0.5330(2) 0.9399(5)
C6 C 0.4768(5) 0.5101(2) 1.1379(5)
Ho1B Ho -0.24053(2) 0.420253(10) 0.51091(2)
Ho1_2 Ho -0.75947(2) 0.579747(10) 0.48909(2)
Ho1_3 Ho 0.24053(2) 0.579747(10) 1.48909(2)
Ho1B_2 Ho 0.75947(2) 0.420253(10) 0.51091(2)
Ho1B_3 Ho 0.75947(2) 0.420253(10) 1.51091(2)
O1B O -0.0978(3) 0.28893(15) 0.4532(4)
O2B O 0.1206(3) 0.44278(15) 0.4636(4)
O3B O 0.4975(3) 0.34865(15) 0.3245(4)
O3_2 O 0.5025(3) 0.65135(15) 0.6755(4)
O3B_2 O -0.5025(3) 0.34865(15) 0.3245(4)
O4B O 0.2732(4) 0.18417(15) 0.3385(4)
O5B O 0.7701(4) 0.42964(15) 1.1481(4)
O5B_2 O -0.2299(4) 0.42964(15) 0.1481(4)
O6B O 0.5352(4) 0.48215(15) 0.6832(4)
O6_2 O -0.5352(4) 0.51785(15) 0.3168(4)
O6_3 O 0.4648(4) 0.51785(15) 0.3168(4)
O6B_2 O -0.4648(4) 0.48215(15) 0.6832(4)
O7B O -0.3569(4) 0.32330(16) 0.7327(4)
H1B H -0.468(3) 0.313(3) 0.736(6)
H2B H -0.268(4) 0.300(3) 0.805(6)
O8B O -0.0235(4) 0.41863(15) 0.8349(4)
H3B H 0.081(5) 0.392(2) 0.827(6)
H4B H -0.067(6) 0.411(3) 0.932(6)
C1B C 0.0660(5) 0.3005(2) 0.4102(5)
C2B C 0.1719(5) 0.3735(2) 0.4129(5)
C3B C 0.3328(5) 0.3321(2) 0.3562(5)
C4B C 0.2281(5) 0.2557(2) 0.3592(5)
C5B C 0.6224(5) 0.4670(2) 1.0601(5)
C6B C 0.5232(5) 0.4899(2) 0.8621(5)
loop_
_geom_bond_atom_site_label_1
_geom_bond_atom_site_label_2
_geom_bond_site_symmetry_1
_geom_bond_site_symmetry_2
Ho1 O1 1_555 1_555
O1 C1 1_555 1_555
O2 Ho1 1_555 1_555
O3 C3 1_555 1_555
O4 C4 1_555 1_555
O5 Ho1 1_555 1_555
O6 C6 1_555 1_555
O7 Ho1 1_555 1_555
H1 O7 1_555 1_555
H2 O7 1_555 1_555
O8 Ho1 1_555 1_555
H3 O8 1_555 1_555
H4 O8 1_555 1_555
C1 C2 1_555 1_555
C2 O2 1_555 1_555
C3 C2 1_555 1_555
C4 C1 1_555 1_555
C5 O5 1_555 1_555
C6 C5 1_555 1_555
Ho1B O2 1_555 1_555
Ho1_2 O3 1_555 1_555
Ho1_3 O6 1_555 1_555
Ho1B_2 O3B 1_555 1_555
Ho1B_3 O6 1_555 1_555
O1B Ho1B 1_555 1_555
O2B Ho1 1_555 1_555
O3B C3B 1_555 1_555
O3_2 Ho1 1_555 1_555
O3B_2 Ho1B 1_555 1_555
O4B C4B 1_555 1_555
O5B Ho1B_3 1_555 1_555
O5B_2 Ho1B 1_555 1_555
O6B Ho1 1_555 1_555
O6_2 Ho1B 1_555 1_555
O6_3 Ho1 1_555 1_555
O6B_2 Ho1B 1_555 1_555
O7B Ho1B 1_555 1_555
H1B O7B 1_555 1_555
H2B O7B 1_555 1_555
O8B Ho1B 1_555 1_555
H3B O8B 1_555 1_555
H4B O8B 1_555 1_555
C1B O1B 1_555 1_555
C2B O2B 1_555 1_555
C3B C2B 1_555 1_555
C4B C1B 1_555 1_555
C5B C6 1_555 1_555
C6B C5 1_555 1_555
C3 C4 1_555 1_555
Ho1B O2B 1_555 1_555
Ho1_2 O6_2 1_555 1_555
Ho1_2 O6B_2 1_555 1_555
Ho1B_2 O6B 1_555 1_555
Ho1B_2 O6_3 1_555 1_555
O5B C5B 1_555 1_555
O6B C6B 1_555 1_555
C1B C2B 1_555 1_555
C3B C4B 1_555 1_555
C5B C6B 1_555 1_555

#END
