
#######################################################################
#
#                 Cambridge Crystallographic Data Centre
#                                CCDC 
#
#######################################################################
#
# If this CIF has been generated from an entry in the Cambridge 
# Structural Database, then it will include bibliographic, chemical, 
# crystal, experimental, refinement or atomic coordinate data resulting 
# from the CCDC's data processing and validation procedures.
#
#######################################################################

data_ODAVOG
_symmetry_cell_setting           monoclinic
_symmetry_space_group_name_H-M   'P 21/n'
_symmetry_Int_Tables_number      14
_space_group_name_Hall           '-P 2yn'
loop_
_symmetry_equiv_pos_site_id
_symmetry_equiv_pos_as_xyz
1 x,y,z
2 1/2-x,1/2+y,1/2-z
3 -x,-y,-z
4 1/2+x,1/2-y,1/2+z
_cell_length_a                   9.5014(19)
_cell_length_b                   9.7030(19)
_cell_length_c                   9.844(2)
_cell_angle_alpha                90
_cell_angle_beta                 118.70(3)
_cell_angle_gamma                90
_cell_volume                     796.044
loop_
_atom_site_label
_atom_site_type_symbol
_atom_site_fract_x
_atom_site_fract_y
_atom_site_fract_z
Tb1 Tb 0.866390(15) 1.053810(14) 0.129683(15)
O1 O 1.0348(2) 0.9186(2) 0.3599(2)
O2 O 1.1022(2) 0.9033(2) 0.0869(2)
O3 O 1.3800(2) 0.6651(2) 0.2589(2)
O4 O 1.3045(2) 0.6822(2) 0.5529(2)
O5 O 0.6577(2) 0.9859(2) 0.1894(2)
O6 O 0.3944(3) 0.9528(2) 0.0959(3)
O7 O 0.8986(2) 1.1742(2) 0.3571(2)
O8 O 0.7754(3) 1.2886(2) 0.0684(3)
C1 C 1.1351(3) 0.8470(3) 0.3408(3)
C2 C 1.1675(3) 0.8390(3) 0.2136(3)
C3 C 1.2908(3) 0.7336(3) 0.2935(3)
C4 C 1.2562(3) 0.7409(3) 0.4251(3)
C5 C 0.5140(3) 0.9821(3) 0.0825(3)
Tb1B Tb 0.133610(15) 0.946190(14) -0.129683(15)
Tb1_2 Tb -0.133610(15) 1.053810(14) 0.129683(15)
Tb1A Tb -0.366390(15) 1.553810(14) -0.629683(15)
Tb1A_2 Tb 1.633610(15) 0.553810(14) 0.370317(15)
Tb1B_2 Tb 1.133610(15) 0.946190(14) -0.129683(15)
Tb1C Tb -0.633610(15) 1.446190(14) -0.370317(15)
Tb1C_2 Tb 1.366390(15) 0.446190(14) 0.629683(15)
O1B O -0.0348(2) 1.0814(2) -0.3599(2)
O2B O -0.1022(2) 1.0967(2) -0.0869(2)
O2_2 O 0.1022(2) 0.9033(2) 0.0869(2)
O2B_2 O 0.8978(2) 1.0967(2) -0.0869(2)
O3B O -0.3800(2) 1.3349(2) -0.2589(2)
O3A O 1.1200(2) 1.1651(2) 0.2411(2)
O3C O -0.1200(2) 0.8349(2) -0.2411(2)
O4B O -0.3045(2) 1.3178(2) -0.5529(2)
O4A O 0.1955(2) 1.1822(2) -0.0529(2)
O4C O 0.8045(2) 0.8178(2) 0.0529(2)
O5B O 0.3423(2) 1.0141(2) -0.1894(2)
O6B O 0.6056(3) 1.0472(2) -0.0959(3)
O7B O 0.1014(2) 0.8258(2) -0.3571(2)
O8B O 0.2246(3) 0.7114(2) -0.0684(3)
C1B C -0.1351(3) 1.1530(3) -0.3408(3)
C2B C -0.1675(3) 1.1610(3) -0.2136(3)
C3B C -0.2908(3) 1.2664(3) -0.2935(3)
C4B C -0.2562(3) 1.2591(3) -0.4251(3)
C5B C 0.4860(3) 1.0179(3) -0.0825(3)
loop_
_geom_bond_atom_site_label_1
_geom_bond_atom_site_label_2
_geom_bond_site_symmetry_1
_geom_bond_site_symmetry_2
Tb1 O1 1_555 1_555
O1 C1 1_555 1_555
O2 Tb1 1_555 1_555
O3 C3 1_555 1_555
O4 C4 1_555 1_555
O5 Tb1 1_555 1_555
O6 C5 1_555 1_555
O7 Tb1 1_555 1_555
O8 Tb1 1_555 1_555
C1 C2 1_555 1_555
C2 O2 1_555 1_555
C3 C2 1_555 1_555
C4 C1 1_555 1_555
C5 O5 1_555 1_555
Tb1B O6 1_555 1_555
Tb1_2 O2B 1_555 1_555
Tb1A O4B 1_555 1_555
Tb1A_2 O3 1_555 1_555
Tb1B_2 O2 1_555 1_555
Tb1C O3B 1_555 1_555
Tb1C_2 O4 1_555 1_555
O1B Tb1B 1_555 1_555
O2B Tb1B 1_555 1_555
O2_2 Tb1B 1_555 1_555
O2B_2 Tb1 1_555 1_555
O3B C3B 1_555 1_555
O3A Tb1 1_555 1_555
O3C Tb1B 1_555 1_555
O4B C4B 1_555 1_555
O4A Tb1B 1_555 1_555
O4C Tb1 1_555 1_555
O5B Tb1B 1_555 1_555
O6B Tb1 1_555 1_555
O7B Tb1B 1_555 1_555
O8B Tb1B 1_555 1_555
C1B O1B 1_555 1_555
C2B O2B 1_555 1_555
C3B C2B 1_555 1_555
C4B C1B 1_555 1_555
C5B C5 1_555 1_555
C3 C4 1_555 1_555
Tb1_2 O2_2 1_555 1_555
Tb1B_2 O2B_2 1_555 1_555
O5B C5B 1_555 1_555
O6B C5B 1_555 1_555
C1B C2B 1_555 1_555
C3B C4B 1_555 1_555

#END
