
#######################################################################
#
#                 Cambridge Crystallographic Data Centre
#                                CCDC 
#
#######################################################################
#
# If this CIF has been generated from an entry in the Cambridge 
# Structural Database, then it will include bibliographic, chemical, 
# crystal, experimental, refinement or atomic coordinate data resulting 
# from the CCDC's data processing and validation procedures.
#
#######################################################################

data_ODAVIY
_symmetry_cell_setting           orthorhombic
_symmetry_space_group_name_H-M   'P 21 21 21'
_symmetry_Int_Tables_number      19
_space_group_name_Hall           'P 2ac 2ab'
loop_
_symmetry_equiv_pos_site_id
_symmetry_equiv_pos_as_xyz
1 x,y,z
2 1/2-x,-y,1/2+z
3 1/2+x,1/2-y,-z
4 -x,1/2+y,1/2-z
_cell_length_a                   14.7487(6)
_cell_length_b                   36.897(2)
_cell_length_c                   7.051(1)
_cell_angle_alpha                90
_cell_angle_beta                 90
_cell_angle_gamma                90
_cell_volume                     3837.03
loop_
_atom_site_label
_atom_site_type_symbol
_atom_site_fract_x
_atom_site_fract_y
_atom_site_fract_z
Ag1 Ag 0.52466(3) 0.37078(1) -0.26844(8)
S1 S 0.6890(1) 0.35797(4) -0.3281(2)
S2 S 0.3624(1) 0.35519(5) -0.1932(3)
S5 S 0.5357(1) 0.40022(5) 0.2708(3)
F1 F 0.4512(3) 0.4629(1) 0.2717(9)
F2 F 0.5289(4) 0.4522(2) 0.020(1)
F3 F 0.4019(3) 0.4257(1) 0.0652(8)
O1 O 0.5632(4) 0.3776(1) 0.1150(9)
O2 O 0.4673(4) 0.3846(2) 0.3902(9)
O3 O 0.6076(4) 0.4181(2) 0.369(1)
C1 C 0.6777(5) 0.3255(2) -0.5201(10)
C2 C 0.5983(5) 0.2988(2) -0.491(1)
C3 C 0.5717(4) 0.2942(2) -0.285(1)
C4 C 0.6485(4) 0.2952(2) -0.1482(10)
C5 C 0.6640(5) 0.2674(2) -0.018(1)
C6 C 0.7384(5) 0.2687(2) 0.102(1)
C7 C 0.7980(5) 0.2977(2) 0.094(1)
C8 C 0.7833(5) 0.3251(2) -0.035(1)
C9 C 0.7091(5) 0.3240(2) -0.1560(10)
C10 C 0.3780(5) 0.3246(2) 0.006(1)
C11 C 0.4572(5) 0.2979(2) -0.021(1)
C12 C 0.4845(4) 0.2931(2) -0.2256(10)
C13 C 0.4079(5) 0.2916(2) -0.362(1)
C14 C 0.3947(5) 0.2623(2) -0.486(1)
C15 C 0.3209(5) 0.2627(2) -0.607(1)
C16 C 0.2595(5) 0.2909(2) -0.604(1)
C17 C 0.2713(5) 0.3201(2) -0.484(1)
C18 C 0.3454(5) 0.3201(2) -0.361(1)
C37 C 0.4767(5) 0.4372(2) 0.151(1)
H1 H 0.6678 0.3384 -0.6349
H2 H 0.7324 0.3120 -0.5294
H3 H 0.5472 0.3075 -0.5589
H4 H 0.6157 0.2758 -0.5394
H5 H 0.6234 0.2474 -0.0124
H6 H 0.7484 0.2497 0.1910
H7 H 0.8489 0.2986 0.1761
H8 H 0.8243 0.3449 -0.0415
H9 H 0.3892 0.3386 0.1161
H10 H 0.3238 0.3110 0.0222
H11 H 0.5081 0.3068 0.0478
H12 H 0.4397 0.2750 0.0286
H13 H 0.4358 0.2424 -0.4869
H14 H 0.3124 0.2433 -0.6939
H15 H 0.2084 0.2902 -0.6863
H16 H 0.2298 0.3398 -0.4842
O2_2 O 0.4673(4) 0.3846(2) -0.6098(9)
Ag1_2 Ag 0.52466(3) 0.37078(1) 0.73156(8)
Ag2 Ag 1.00062(3) 0.37956(1) 0.21568(7)
S3 S 0.8388(1) 0.39594(4) 0.2782(3)
S4 S 1.1648(1) 0.39141(5) 0.1367(3)
S6 S 0.9939(1) 0.35025(4) -0.3292(2)
F4 F 1.0756(4) 0.2875(1) -0.3340(10)
F5 F 0.9956(4) 0.2970(2) -0.088(1)
F6 F 1.1244(3) 0.3230(1) -0.1210(9)
O4 O 0.9677(4) 0.3729(1) -0.1718(8)
O5 O 1.0644(4) 0.3649(2) -0.448(1)
O6 O 0.9200(4) 0.3327(2) -0.428(1)
C19 C 0.8547(5) 0.4282(2) 0.4746(10)
C20 C 0.9351(5) 0.4539(2) 0.445(1)
C21 C 0.9630(4) 0.4575(2) 0.2369(10)
C22 C 0.8858(5) 0.4589(2) 0.102(1)
C23 C 0.8717(5) 0.4870(2) -0.026(1)
C24 C 0.7977(5) 0.4872(2) -0.146(1)
C25 C 0.7368(5) 0.4586(2) -0.143(1)
C26 C 0.7483(5) 0.4303(2) -0.013(1)
C27 C 0.8219(5) 0.4306(2) 0.1064(10)
C28 C 1.1514(5) 0.4236(2) -0.061(1)
C29 C 1.0747(5) 0.4511(2) -0.032(1)
C30 C 1.0491(5) 0.4557(2) 0.1774(9)
C31 C 1.1256(4) 0.4553(2) 0.3119(10)
C32 C 1.1431(5) 0.4830(2) 0.440(1)
C33 C 1.2171(5) 0.4815(2) 0.560(1)
C34 C 1.2750(5) 0.4524(3) 0.553(1)
C35 C 1.2605(5) 0.4239(2) 0.427(1)
C36 C 1.1859(4) 0.4257(2) 0.307(1)
C38 C 1.0495(5) 0.3123(2) -0.211(1)
H17 H 0.8011 0.4423 0.4870
H18 H 0.8645 0.4148 0.5880
H19 H 0.9190 0.4771 0.4913
H20 H 0.9854 0.4449 0.5145
H21 H 0.9136 0.5066 -0.0300
H22 H 0.7887 0.5068 -0.2316
H23 H 0.6871 0.4582 -0.2283
H24 H 0.7056 0.4110 -0.0076
H25 H 1.2066 0.4365 -0.0756
H26 H 1.1390 0.4102 -0.1728
H27 H 1.0938 0.4739 -0.0798
H28 H 1.0228 0.4431 -0.0994
H29 H 1.1036 0.5034 0.4453
H30 H 1.2281 0.5007 0.6464
H31 H 1.3256 0.4516 0.6363
H32 H 1.3006 0.4037 0.4233
O5_2 O 1.0644(4) 0.3649(2) 0.552(1)
Ag2_2 Ag 1.00062(3) 0.37956(1) -0.78432(7)
loop_
_geom_bond_atom_site_label_1
_geom_bond_atom_site_label_2
_geom_bond_site_symmetry_1
_geom_bond_site_symmetry_2
Ag1 S1 1_555 1_555
Ag2 S3 1_555 1_555
S1 C1 1_555 1_555
S2 Ag1 1_555 1_555
S3 C19 1_555 1_555
S4 Ag2 1_555 1_555
S5 O1 1_555 1_555
S6 O4 1_555 1_555
F1 C37 1_555 1_555
F2 C37 1_555 1_555
F3 C37 1_555 1_555
F4 C38 1_555 1_555
F5 C38 1_555 1_555
F6 C38 1_555 1_555
O1 Ag1 1_555 1_555
O2 S5 1_555 1_555
O3 S5 1_555 1_555
O4 Ag2 1_555 1_555
O5 S6 1_555 1_555
O6 S6 1_555 1_555
C1 C2 1_555 1_555
C2 C3 1_555 1_555
C3 C4 1_555 1_555
C4 C5 1_555 1_555
C5 C6 1_555 1_555
C6 C7 1_555 1_555
C7 C8 1_555 1_555
C8 C9 1_555 1_555
C9 S1 1_555 1_555
C10 S2 1_555 1_555
C11 C10 1_555 1_555
C12 C3 1_555 1_555
C13 C12 1_555 1_555
C14 C13 1_555 1_555
C15 C14 1_555 1_555
C16 C15 1_555 1_555
C17 C16 1_555 1_555
C18 S2 1_555 1_555
C19 C20 1_555 1_555
C20 C21 1_555 1_555
C21 C22 1_555 1_555
C22 C23 1_555 1_555
C23 C24 1_555 1_555
C24 C25 1_555 1_555
C25 C26 1_555 1_555
C26 C27 1_555 1_555
C27 S3 1_555 1_555
C28 S4 1_555 1_555
C29 C28 1_555 1_555
C30 C21 1_555 1_555
C31 C30 1_555 1_555
C32 C31 1_555 1_555
C33 C32 1_555 1_555
C34 C33 1_555 1_555
C35 C34 1_555 1_555
C36 S4 1_555 1_555
C37 S5 1_555 1_555
C38 S6 1_555 1_555
H1 C1 1_555 1_555
H2 C1 1_555 1_555
H3 C2 1_555 1_555
H4 C2 1_555 1_555
H5 C5 1_555 1_555
H6 C6 1_555 1_555
H7 C7 1_555 1_555
H8 C8 1_555 1_555
H9 C10 1_555 1_555
H10 C10 1_555 1_555
H11 C11 1_555 1_555
H12 C11 1_555 1_555
H13 C14 1_555 1_555
H14 C15 1_555 1_555
H15 C16 1_555 1_555
H16 C17 1_555 1_555
H17 C19 1_555 1_555
H18 C19 1_555 1_555
H19 C20 1_555 1_555
H20 C20 1_555 1_555
H21 C23 1_555 1_555
H22 C24 1_555 1_555
H23 C25 1_555 1_555
H24 C26 1_555 1_555
H25 C28 1_555 1_555
H26 C28 1_555 1_555
H27 C29 1_555 1_555
H28 C29 1_555 1_555
H29 C32 1_555 1_555
H30 C33 1_555 1_555
H31 C34 1_555 1_555
H32 C35 1_555 1_555
O2_2 Ag1 1_555 1_555
O5_2 Ag2 1_555 1_555
Ag1_2 O2 1_555 1_555
Ag2_2 O5 1_555 1_555
C4 C9 1_555 1_555
C11 C12 1_555 1_555
C13 C18 1_555 1_555
C17 C18 1_555 1_555
C22 C27 1_555 1_555
C29 C30 1_555 1_555
C31 C36 1_555 1_555
C35 C36 1_555 1_555

#END
