
#######################################################################
#
#                 Cambridge Crystallographic Data Centre
#                                CCDC 
#
#######################################################################
#
# If this CIF has been generated from an entry in the Cambridge 
# Structural Database, then it will include bibliographic, chemical, 
# crystal, experimental, refinement or atomic coordinate data resulting 
# from the CCDC's data processing and validation procedures.
#
#######################################################################

data_ODAYID
_symmetry_cell_setting           monoclinic
_symmetry_space_group_name_H-M   'P 21/n'
_symmetry_Int_Tables_number      14
_space_group_name_Hall           '-P 2yn'
loop_
_symmetry_equiv_pos_site_id
_symmetry_equiv_pos_as_xyz
1 x,y,z
2 1/2-x,1/2+y,1/2-z
3 -x,-y,-z
4 1/2+x,1/2-y,1/2+z
_cell_length_a                   7.53130(10)
_cell_length_b                   15.9150(3)
_cell_length_c                   18.2438(4)
_cell_angle_alpha                90
_cell_angle_beta                 98.7100(10)
_cell_angle_gamma                90
_cell_volume                     2161.5
loop_
_atom_site_label
_atom_site_type_symbol
_atom_site_fract_x
_atom_site_fract_y
_atom_site_fract_z
Mn1 Mn 0.46170(5) 0.18102(2) 0.348283(18)
O1 O 0.7363(2) 0.14258(11) 0.38654(10)
O2 O 0.1852(2) 0.22606(11) 0.31148(10)
N1 N 0.3996(2) 0.16494(11) 0.46379(10)
N2 N 0.4137(3) 0.20913(14) 0.52807(12)
N3 N 0.3503(2) 0.04944(11) 0.35380(10)
N4 N 0.5389(3) 0.31321(11) 0.35740(10)
N5 N 0.6814(3) 0.51042(12) 0.20308(11)
N6 N 0.9953(3) 0.67253(11) 0.27041(11)
N7 N 1.0620(3) 0.75295(12) 0.50749(11)
N8 N 0.5960(3) 0.36999(14) 0.56807(12)
N9 N 0.8907(3) 0.61039(14) 0.64377(12)
C1 C 0.0547(4) 0.19807(18) 0.25376(17)
H1 H 0.0862 0.2167 0.2062
H2 H -0.0625 0.2213 0.2601
H3 H 0.0491 0.1366 0.2546
C2 C 0.3471(3) 0.16338(18) 0.58247(13)
H4 H 0.3422 0.1808 0.6319
C3 C 0.2887(3) 0.08684(15) 0.55063(13)
H5 H 0.2361 0.0415 0.5735
C4 C 0.3245(3) 0.09127(13) 0.47784(12)
C5 C 0.2965(3) 0.02806(13) 0.41861(12)
C6 C 0.2229(3) -0.05057(14) 0.42781(14)
H6 H 0.1861 -0.0653 0.4737
C7 C 0.2039(4) -0.10599(17) 0.37083(15)
H7 H 0.1529 -0.1598 0.3764
C8 C 0.2570(3) -0.08479(15) 0.30709(15)
H8 H 0.2444 -0.1232 0.2668
C9 C 0.3286(3) -0.00851(14) 0.30029(13)
H9 H 0.3664 0.0052 0.2544
C10 C 0.7736(3) 0.52744(13) 0.46928(12)
C11 C 0.8349(3) 0.58075(13) 0.41872(11)
C12 C 0.7419(3) 0.50900(13) 0.39434(12)
C13 C 0.6674(3) 0.45790(13) 0.33515(11)
C14 C 0.5963(3) 0.37846(14) 0.34742(11)
C15 C 0.6749(3) 0.48469(13) 0.26173(13)
C16 C 0.9290(3) 0.65334(13) 0.40264(12)
C17 C 0.9668(3) 0.66564(13) 0.33020(12)
C18 C 1.0043(3) 0.70847(13) 0.46041(12)
C19 C 0.7553(3) 0.50784(13) 0.54241(12)
C20 C 0.6680(3) 0.43244(15) 0.55835(12)
C21 C 0.8277(3) 0.56308(15) 0.59948(13)
H10 H 0.469(4) 0.2582(18) 0.5302(15)
H11 H 0.813(3) 0.1747(16) 0.4131(15)
H12 H 0.791(4) 0.1062(16) 0.3648(16)
H13 H 0.159(5) 0.2752(13) 0.3232(19)
Mn1A Mn 1.03830(5) 0.68102(2) 0.151717(18)
N6A N 0.5047(3) 0.17253(11) 0.22959(11)
loop_
_geom_bond_atom_site_label_1
_geom_bond_atom_site_label_2
_geom_bond_site_symmetry_1
_geom_bond_site_symmetry_2
Mn1 O1 1_555 1_555
O1 H11 1_555 1_555
O2 Mn1 1_555 1_555
N1 Mn1 1_555 1_555
N2 N1 1_555 1_555
N3 Mn1 1_555 1_555
N4 Mn1 1_555 1_555
N5 C15 1_555 1_555
N6 C17 1_555 1_555
N7 C18 1_555 1_555
N8 C20 1_555 1_555
N9 C21 1_555 1_555
C1 O2 1_555 1_555
H1 C1 1_555 1_555
H2 C1 1_555 1_555
H3 C1 1_555 1_555
C2 N2 1_555 1_555
H4 C2 1_555 1_555
C3 C2 1_555 1_555
H5 C3 1_555 1_555
C4 N1 1_555 1_555
C5 N3 1_555 1_555
C6 C5 1_555 1_555
H6 C6 1_555 1_555
C7 C6 1_555 1_555
H7 C7 1_555 1_555
C8 C7 1_555 1_555
H8 C8 1_555 1_555
C9 N3 1_555 1_555
H9 C9 1_555 1_555
C10 C11 1_555 1_555
C11 C12 1_555 1_555
C12 C10 1_555 1_555
C13 C12 1_555 1_555
C14 N4 1_555 1_555
C15 C13 1_555 1_555
C16 C11 1_555 1_555
C17 C16 1_555 1_555
C18 C16 1_555 1_555
C19 C10 1_555 1_555
C20 C19 1_555 1_555
C21 C19 1_555 1_555
H10 N2 1_555 1_555
H12 O1 1_555 1_555
H13 O2 1_555 1_555
Mn1A N6 1_555 1_555
N6A Mn1 1_555 1_555
C3 C4 1_555 1_555
C4 C5 1_555 1_555
C8 C9 1_555 1_555
C13 C14 1_555 1_555

#END
