
#######################################################################
#
#                 Cambridge Crystallographic Data Centre
#                                CCDC 
#
#######################################################################
#
# If this CIF has been generated from an entry in the Cambridge 
# Structural Database, then it will include bibliographic, chemical, 
# crystal, experimental, refinement or atomic coordinate data resulting 
# from the CCDC's data processing and validation procedures.
#
#######################################################################

data_ODAZUQ
_symmetry_cell_setting           orthorhombic
_symmetry_space_group_name_H-M   'P 21 21 21'
_symmetry_Int_Tables_number      19
_space_group_name_Hall           'P 2ac 2ab'
loop_
_symmetry_equiv_pos_site_id
_symmetry_equiv_pos_as_xyz
1 x,y,z
2 1/2+x,1/2-y,-z
3 -x,1/2+y,1/2-z
4 1/2-x,-y,1/2+z
_cell_length_a                   9.7822(2)
_cell_length_b                   12.5962(3)
_cell_length_c                   22.6256(4)
_cell_angle_alpha                90
_cell_angle_beta                 90
_cell_angle_gamma                90
_cell_volume                     2787.89
loop_
_atom_site_label
_atom_site_type_symbol
_atom_site_fract_x
_atom_site_fract_y
_atom_site_fract_z
Co1 Co 0.82876(4) 0.34719(3) 0.505031(16)
O1 O 1.12667(18) 0.11596(16) 0.51100(9)
C1 C 1.0219(3) 0.1715(2) 0.51550(11)
O2 O 1.01848(19) 0.27075(18) 0.51850(8)
C2 C 0.8864(3) 0.1091(2) 0.51608(12)
O3 O 0.77794(19) 0.18460(17) 0.52294(9)
C3 C 0.8877(3) 0.0263(3) 0.56491(14)
C4 C 0.8423(4) 0.0495(4) 0.62043(16)
C5 C 0.8530(6) -0.0293(5) 0.66483(19)
C6 C 0.9067(5) -0.1248(5) 0.6524(2)
C7 C 0.9509(5) -0.1468(4) 0.5978(3)
C8 C 0.9403(5) -0.0718(4) 0.5540(2)
N1 N 0.8013(3) 0.3818(2) 0.59772(11)
C9 C 0.6991(4) 0.4411(3) 0.61674(15)
C10 C 0.6797(5) 0.4661(4) 0.67524(17)
C11 C 0.7662(4) 0.4304(4) 0.71750(15)
C12 C 0.7472(6) 0.4574(5) 0.78307(19)
C13 C 0.8674(4) 0.3646(5) 0.69856(16)
C14 C 0.8816(4) 0.3428(4) 0.63980(15)
N2 N 0.9074(2) 0.4998(2) 0.48972(11)
C15 C 0.8604(3) 0.5621(3) 0.44646(14)
C16 C 0.9234(4) 0.6539(3) 0.42934(15)
C17 C 1.0450(4) 0.6851(3) 0.45608(15)
C18 C 1.1216(5) 0.7817(4) 0.43570(19)
C19 C 1.0915(3) 0.6217(3) 0.50195(17)
C20 C 1.0209(4) 0.5332(3) 0.51744(14)
N3 N 0.8611(2) 0.3103(2) 0.41085(11)
C21 C 0.7714(4) 0.2549(3) 0.37974(15)
C22 C 0.7921(4) 0.2258(4) 0.32129(15)
C23 C 0.9099(4) 0.2552(3) 0.29281(15)
C24 C 0.9353(6) 0.2247(5) 0.22946(18)
C25 C 1.0030(4) 0.3118(3) 0.32542(15)
C26 C 0.9755(3) 0.3379(3) 0.38281(13)
H1 H 0.8744 0.0754 0.4767
H2 H 0.8078 0.1163 0.6298
H3 H 0.8209 -0.0164 0.7025
H4 H 0.9148 -0.1758 0.6822
H5 H 0.9900 -0.2128 0.5890
H6 H 0.9698 -0.0885 0.5149
H7 H 0.6356 0.4676 0.5895
H8 H 0.6070 0.5104 0.6861
H9 H 0.7693 0.3980 0.8080
H10 H 0.8073 0.5155 0.7928
H11 H 0.6551 0.4787 0.7915
H12 H 0.9249 0.3306 0.7259
H13 H 0.9508 0.2975 0.6278
H14 H 0.7806 0.5412 0.4276
H15 H 0.8853 0.6962 0.3993
H16 H 1.1617 0.8177 0.4690
H17 H 1.0602 0.8278 0.4162
H18 H 1.1944 0.7590 0.4090
H19 H 1.1730 0.6397 0.5218
H20 H 1.0527 0.4905 0.5491
H21 H 0.6891 0.2343 0.3988
H22 H 0.7231 0.1847 0.3020
H23 H 1.0212 0.2482 0.2160
H24 H 0.9304 0.1488 0.2262
H25 H 0.8646 0.2548 0.2057
H26 H 1.0825 0.3337 0.3083
H27 H 1.0384 0.3770 0.4039
H28 H 0.7041 0.1680 0.5059
Co1A Co 1.32876(4) 0.15281(3) 0.494969(16)
O1A O 0.62667(18) 0.38404(16) 0.48900(9)
Cl1 Cl 0.76185(12) -0.07355(9) 0.34119(4)
O4 O 0.8381(4) -0.0494(4) 0.29053(14)
O5 O 0.6457(5) -0.0102(4) 0.3409(3)
O6 O 0.7228(6) -0.1805(3) 0.3430(3)
O7 O 0.8398(6) -0.0525(5) 0.39174(16)
loop_
_geom_bond_atom_site_label_1
_geom_bond_atom_site_label_2
_geom_bond_site_symmetry_1
_geom_bond_site_symmetry_2
Co1 O2 1_555 1_555
O1 C1 1_555 1_555
C1 O2 1_555 1_555
C2 C1 1_555 1_555
O3 Co1 1_555 1_555
C3 C2 1_555 1_555
C4 C3 1_555 1_555
C5 C4 1_555 1_555
C6 C5 1_555 1_555
C7 C6 1_555 1_555
C8 C3 1_555 1_555
N1 Co1 1_555 1_555
C9 N1 1_555 1_555
C10 C9 1_555 1_555
C11 C10 1_555 1_555
C12 C11 1_555 1_555
C13 C11 1_555 1_555
C14 N1 1_555 1_555
N2 Co1 1_555 1_555
C15 N2 1_555 1_555
C16 C15 1_555 1_555
C17 C16 1_555 1_555
C18 C17 1_555 1_555
C19 C17 1_555 1_555
C20 N2 1_555 1_555
N3 Co1 1_555 1_555
C21 N3 1_555 1_555
C22 C21 1_555 1_555
C23 C22 1_555 1_555
C24 C23 1_555 1_555
C25 C23 1_555 1_555
C26 N3 1_555 1_555
Cl1 O4 1_555 1_555
O5 Cl1 1_555 1_555
O6 Cl1 1_555 1_555
O7 Cl1 1_555 1_555
H1 C2 1_555 1_555
H2 C4 1_555 1_555
H3 C5 1_555 1_555
H4 C6 1_555 1_555
H5 C7 1_555 1_555
H6 C8 1_555 1_555
H7 C9 1_555 1_555
H8 C10 1_555 1_555
H9 C12 1_555 1_555
H10 C12 1_555 1_555
H11 C12 1_555 1_555
H12 C13 1_555 1_555
H13 C14 1_555 1_555
H14 C15 1_555 1_555
H15 C16 1_555 1_555
H16 C18 1_555 1_555
H17 C18 1_555 1_555
H18 C18 1_555 1_555
H19 C19 1_555 1_555
H20 C20 1_555 1_555
H21 C21 1_555 1_555
H22 C22 1_555 1_555
H23 C24 1_555 1_555
H24 C24 1_555 1_555
H25 C24 1_555 1_555
H26 C25 1_555 1_555
H27 C26 1_555 1_555
H28 O3 1_555 1_555
Co1A O1 1_555 1_555
O1A Co1 1_555 1_555
C2 O3 1_555 1_555
C7 C8 1_555 1_555
C13 C14 1_555 1_555
C19 C20 1_555 1_555
C25 C26 1_555 1_555

#END
