
#######################################################################
#
#                 Cambridge Crystallographic Data Centre
#                                CCDC 
#
#######################################################################
#
# If this CIF has been generated from an entry in the Cambridge 
# Structural Database, then it will include bibliographic, chemical, 
# crystal, experimental, refinement or atomic coordinate data resulting 
# from the CCDC's data processing and validation procedures.
#
#######################################################################

data_ODAZOK
_symmetry_cell_setting           orthorhombic
_symmetry_space_group_name_H-M   'P 21 21 21'
_symmetry_Int_Tables_number      19
_space_group_name_Hall           'P 2ac 2ab'
loop_
_symmetry_equiv_pos_site_id
_symmetry_equiv_pos_as_xyz
1 x,y,z
2 1/2+x,1/2-y,-z
3 -x,1/2+y,1/2-z
4 1/2-x,-y,1/2+z
_cell_length_a                   9.6741(5)
_cell_length_b                   12.6754(7)
_cell_length_c                   22.3954(9)
_cell_angle_alpha                90
_cell_angle_beta                 90
_cell_angle_gamma                90
_cell_volume                     2746.19
loop_
_atom_site_label
_atom_site_type_symbol
_atom_site_fract_x
_atom_site_fract_y
_atom_site_fract_z
Ni1 Ni 0.83033(5) 0.34164(3) 0.50422(2)
O1 O 1.1299(2) 0.11658(18) 0.51212(11)
C1 C 1.0246(3) 0.1721(3) 0.51556(14)
O2 O 1.0209(2) 0.2709(2) 0.51858(10)
C2 C 0.8866(3) 0.1099(3) 0.51587(15)
O3 O 0.7783(2) 0.18553(19) 0.52477(11)
C3 C 0.8877(4) 0.0253(3) 0.56383(17)
C4 C 0.8425(5) 0.0459(4) 0.62104(18)
C5 C 0.8546(7) -0.0330(5) 0.6647(2)
C6 C 0.9099(6) -0.1279(5) 0.6515(3)
C7 C 0.9530(6) -0.1481(4) 0.5950(3)
C8 C 0.9430(5) -0.0722(4) 0.5512(2)
N1 N 0.8030(3) 0.3796(2) 0.59534(13)
C9 C 0.7093(6) 0.4496(4) 0.61253(19)
C10 C 0.6889(6) 0.4793(4) 0.6708(2)
C11 C 0.7693(5) 0.4376(4) 0.71521(19)
C12 C 0.7542(8) 0.4696(6) 0.7804(2)
C13 C 0.8617(5) 0.3622(4) 0.69841(19)
C14 C 0.8765(4) 0.3369(4) 0.63899(17)
N2 N 0.9055(3) 0.4908(2) 0.48876(13)
C15 C 0.8563(4) 0.5528(3) 0.44549(16)
C16 C 0.9186(5) 0.6456(4) 0.42867(18)
C17 C 1.0398(5) 0.6770(3) 0.45584(18)
C18 C 1.1168(6) 0.7739(4) 0.4356(2)
C19 C 1.0883(4) 0.6151(3) 0.5018(2)
C20 C 1.0194(4) 0.5245(3) 0.51702(17)
N3 N 0.8611(3) 0.3022(3) 0.41229(13)
C21 C 0.7725(4) 0.2445(4) 0.38084(17)
C22 C 0.7938(5) 0.2141(4) 0.32251(18)
C23 C 0.9144(5) 0.2440(4) 0.29335(18)
C24 C 0.9414(6) 0.2111(5) 0.2302(2)
C25 C 1.0058(5) 0.3041(4) 0.32571(18)
C26 C 0.9763(4) 0.3315(4) 0.38348(15)
H1 H 0.8747 0.0762 0.4765
H2 H 0.8080 0.1127 0.6304
H3 H 0.8226 -0.0201 0.7023
H4 H 0.9180 -0.1788 0.6813
H5 H 0.9921 -0.2142 0.5862
H6 H 0.9724 -0.0890 0.5121
H7 H 0.6458 0.4760 0.5853
H8 H 0.6162 0.5235 0.6816
H9 H 0.7764 0.4102 0.8053
H10 H 0.8144 0.5276 0.7901
H11 H 0.6622 0.4908 0.7888
H12 H 0.9190 0.3281 0.7258
H13 H 0.9457 0.2915 0.6270
H14 H 0.7765 0.5319 0.4266
H15 H 0.8806 0.6880 0.3986
H16 H 1.1568 0.8098 0.4689
H17 H 1.0554 0.8198 0.4161
H18 H 1.1895 0.7510 0.4089
H19 H 1.1699 0.6330 0.5217
H20 H 1.0510 0.4818 0.5487
H21 H 0.6902 0.2239 0.4000
H22 H 0.7249 0.1731 0.3032
H23 H 1.0275 0.2346 0.2167
H24 H 0.9367 0.1351 0.2269
H25 H 0.8708 0.2411 0.2064
H26 H 1.0854 0.3261 0.3086
H27 H 1.0391 0.3705 0.4046
H28 H 0.7045 0.1690 0.5077
Ni1A Ni 1.33033(5) 0.15836(3) 0.49578(2)
O1A O 0.6299(2) 0.38342(18) 0.48788(11)
Cl1 Cl 0.75774(15) -0.08149(10) 0.33936(5)
O4 O 0.8388(5) -0.0575(4) 0.28927(16)
O5 O 0.6388(5) -0.0185(4) 0.3387(3)
O6 O 0.7223(6) -0.1883(4) 0.3414(3)
O7 O 0.8336(7) -0.0581(5) 0.39131(19)
loop_
_geom_bond_atom_site_label_1
_geom_bond_atom_site_label_2
_geom_bond_site_symmetry_1
_geom_bond_site_symmetry_2
Ni1 O2 1_555 1_555
O1 C1 1_555 1_555
C1 O2 1_555 1_555
C2 C1 1_555 1_555
O3 Ni1 1_555 1_555
C3 C2 1_555 1_555
C4 C3 1_555 1_555
C5 C4 1_555 1_555
C6 C5 1_555 1_555
C7 C6 1_555 1_555
C8 C3 1_555 1_555
N1 Ni1 1_555 1_555
C9 N1 1_555 1_555
C10 C9 1_555 1_555
C11 C10 1_555 1_555
C12 C11 1_555 1_555
C13 C11 1_555 1_555
C14 N1 1_555 1_555
N2 Ni1 1_555 1_555
C15 N2 1_555 1_555
C16 C15 1_555 1_555
C17 C16 1_555 1_555
C18 C17 1_555 1_555
C19 C17 1_555 1_555
C20 N2 1_555 1_555
N3 Ni1 1_555 1_555
C21 N3 1_555 1_555
C22 C21 1_555 1_555
C23 C22 1_555 1_555
C24 C23 1_555 1_555
C25 C23 1_555 1_555
C26 N3 1_555 1_555
Cl1 O4 1_555 1_555
O5 Cl1 1_555 1_555
O6 Cl1 1_555 1_555
O7 Cl1 1_555 1_555
H1 C2 1_555 1_555
H2 C4 1_555 1_555
H3 C5 1_555 1_555
H4 C6 1_555 1_555
H5 C7 1_555 1_555
H6 C8 1_555 1_555
H7 C9 1_555 1_555
H8 C10 1_555 1_555
H9 C12 1_555 1_555
H10 C12 1_555 1_555
H11 C12 1_555 1_555
H12 C13 1_555 1_555
H13 C14 1_555 1_555
H14 C15 1_555 1_555
H15 C16 1_555 1_555
H16 C18 1_555 1_555
H17 C18 1_555 1_555
H18 C18 1_555 1_555
H19 C19 1_555 1_555
H20 C20 1_555 1_555
H21 C21 1_555 1_555
H22 C22 1_555 1_555
H23 C24 1_555 1_555
H24 C24 1_555 1_555
H25 C24 1_555 1_555
H26 C25 1_555 1_555
H27 C26 1_555 1_555
H28 O3 1_555 1_555
Ni1A O1 1_555 1_555
O1A Ni1 1_555 1_555
C2 O3 1_555 1_555
C7 C8 1_555 1_555
C13 C14 1_555 1_555
C19 C20 1_555 1_555
C25 C26 1_555 1_555

#END
