
#######################################################################
#
#                 Cambridge Crystallographic Data Centre
#                                CCDC 
#
#######################################################################
#
# If this CIF has been generated from an entry in the Cambridge 
# Structural Database, then it will include bibliographic, chemical, 
# crystal, experimental, refinement or atomic coordinate data resulting 
# from the CCDC's data processing and validation procedures.
#
#######################################################################

data_ODAZIE
_symmetry_cell_setting           orthorhombic
_symmetry_space_group_name_H-M   'P 21 21 21'
_symmetry_Int_Tables_number      19
_space_group_name_Hall           'P 2ac 2ab'
loop_
_symmetry_equiv_pos_site_id
_symmetry_equiv_pos_as_xyz
1 x,y,z
2 1/2+x,1/2-y,-z
3 -x,1/2+y,1/2-z
4 1/2-x,-y,1/2+z
_cell_length_a                   9.74952(19)
_cell_length_b                   12.6069(3)
_cell_length_c                   22.5939(5)
_cell_angle_alpha                90
_cell_angle_beta                 90
_cell_angle_gamma                90
_cell_volume                     2777.04
loop_
_atom_site_label
_atom_site_type_symbol
_atom_site_fract_x
_atom_site_fract_y
_atom_site_fract_z
Co1 Co -0.17193(4) 0.34752(3) -0.494840(16)
O1 O 0.12599(17) 0.11551(16) -0.48925(10)
C1 C 0.0207(3) 0.1716(2) -0.48482(12)
O2 O 0.01782(18) 0.27077(17) -0.48178(8)
C2 C -0.1149(3) 0.1086(2) -0.48415(12)
O3 O -0.22276(19) 0.18515(17) -0.47660(9)
C3 C -0.1136(3) 0.0260(3) -0.43538(14)
C4 C -0.1584(4) 0.0494(3) -0.37949(15)
C5 C -0.1469(5) -0.0299(5) -0.33535(18)
C6 C -0.0926(5) -0.1244(4) -0.3475(2)
C7 C -0.0479(5) -0.1470(4) -0.4027(3)
C8 C -0.0598(5) -0.0720(3) -0.44652(19)
N1 N -0.1993(3) 0.3822(2) -0.40218(11)
C9 C -0.3016(5) 0.4421(3) -0.38287(16)
C10 C -0.3207(5) 0.4672(4) -0.32456(17)
C11 C -0.2346(4) 0.4304(4) -0.28226(15)
C12 C -0.2524(6) 0.4565(5) -0.21652(19)
C13 C -0.1332(4) 0.3628(5) -0.30116(17)
C14 C -0.1188(4) 0.3425(4) -0.36005(16)
N2 N -0.0924(2) 0.4997(2) -0.51035(11)
C15 C -0.1397(3) 0.5626(3) -0.55339(14)
C16 C -0.0756(4) 0.6544(3) -0.57084(15)
C17 C 0.0457(4) 0.6848(3) -0.54392(15)
C18 C 0.1226(5) 0.7812(4) -0.5641(2)
C19 C 0.0923(3) 0.6217(3) -0.49844(17)
C20 C 0.0213(3) 0.5331(3) -0.48260(14)
N3 N -0.1399(2) 0.3106(2) -0.58920(11)
C21 C -0.2297(4) 0.2548(3) -0.62052(15)
C22 C -0.2091(4) 0.2258(4) -0.67858(16)
C23 C -0.0906(4) 0.2551(3) -0.70725(15)
C24 C -0.0664(6) 0.2241(5) -0.77078(19)
C25 C 0.0024(4) 0.3130(3) -0.67441(15)
C26 C -0.0249(3) 0.3378(3) -0.61731(13)
H1 H -0.1245 0.0755 -0.5231
H2 H -0.1913 0.1160 -0.3704
H3 H -0.1797 -0.0162 -0.2977
H4 H -0.0853 -0.1750 -0.3174
H5 H -0.0097 -0.2124 -0.4113
H6 H -0.0311 -0.0884 -0.4848
H7 H -0.3638 0.4683 -0.4104
H8 H -0.3935 0.5096 -0.3141
H9 H -0.2337 0.3973 -0.1921
H10 H -0.1911 0.5137 -0.2069
H11 H -0.3450 0.4800 -0.2088
H12 H -0.0756 0.3297 -0.2745
H13 H -0.0499 0.2974 -0.3722
H14 H -0.2182 0.5416 -0.5726
H15 H -0.1150 0.6965 -0.6007
H16 H 0.1590 0.8189 -0.5311
H17 H 0.0607 0.8267 -0.5847
H18 H 0.1959 0.7598 -0.5899
H19 H 0.1724 0.6396 -0.4785
H20 H 0.0531 0.4905 -0.4508
H21 H -0.3109 0.2345 -0.6011
H22 H -0.2761 0.1845 -0.6976
H23 H 0.0217 0.2471 -0.7835
H24 H -0.0708 0.1491 -0.7742
H25 H -0.1338 0.2560 -0.7949
H26 H 0.0818 0.3340 -0.6917
H27 H 0.0382 0.3777 -0.5962
H28 H -0.2933 0.1689 -0.4939
Co1A Co 0.32807(4) 0.15248(3) -0.505160(16)
O1A O -0.37401(17) 0.38449(16) -0.51075(10)
Cl1 Cl -0.23877(11) -0.07371(9) -0.65878(4)
O4 O -0.1613(4) -0.0498(4) -0.70939(14)
O5 O -0.3562(5) -0.0102(4) -0.6588(3)
O6 O -0.2771(6) -0.1813(3) -0.6569(3)
O7 O -0.1598(6) -0.0530(5) -0.60812(16)
loop_
_geom_bond_atom_site_label_1
_geom_bond_atom_site_label_2
_geom_bond_site_symmetry_1
_geom_bond_site_symmetry_2
Co1 O2 1_555 1_555
O1 C1 1_555 1_555
C1 O2 1_555 1_555
C2 C1 1_555 1_555
O3 Co1 1_555 1_555
C3 C2 1_555 1_555
C4 C3 1_555 1_555
C5 C4 1_555 1_555
C6 C5 1_555 1_555
C7 C6 1_555 1_555
C8 C3 1_555 1_555
N1 Co1 1_555 1_555
C9 N1 1_555 1_555
C10 C9 1_555 1_555
C11 C10 1_555 1_555
C12 C11 1_555 1_555
C13 C11 1_555 1_555
C14 N1 1_555 1_555
N2 Co1 1_555 1_555
C15 N2 1_555 1_555
C16 C15 1_555 1_555
C17 C16 1_555 1_555
C18 C17 1_555 1_555
C19 C17 1_555 1_555
C20 N2 1_555 1_555
N3 Co1 1_555 1_555
C21 N3 1_555 1_555
C22 C21 1_555 1_555
C23 C22 1_555 1_555
C24 C23 1_555 1_555
C25 C23 1_555 1_555
C26 N3 1_555 1_555
Cl1 O4 1_555 1_555
O5 Cl1 1_555 1_555
O6 Cl1 1_555 1_555
O7 Cl1 1_555 1_555
H1 C2 1_555 1_555
H2 C4 1_555 1_555
H3 C5 1_555 1_555
H4 C6 1_555 1_555
H5 C7 1_555 1_555
H6 C8 1_555 1_555
H7 C9 1_555 1_555
H8 C10 1_555 1_555
H9 C12 1_555 1_555
H10 C12 1_555 1_555
H11 C12 1_555 1_555
H12 C13 1_555 1_555
H13 C14 1_555 1_555
H14 C15 1_555 1_555
H15 C16 1_555 1_555
H16 C18 1_555 1_555
H17 C18 1_555 1_555
H18 C18 1_555 1_555
H19 C19 1_555 1_555
H20 C20 1_555 1_555
H21 C21 1_555 1_555
H22 C22 1_555 1_555
H23 C24 1_555 1_555
H24 C24 1_555 1_555
H25 C24 1_555 1_555
H26 C25 1_555 1_555
H27 C26 1_555 1_555
H28 O3 1_555 1_555
Co1A O1 1_555 1_555
O1A Co1 1_555 1_555
C2 O3 1_555 1_555
C7 C8 1_555 1_555
C13 C14 1_555 1_555
C19 C20 1_555 1_555
C25 C26 1_555 1_555

#END
