
#######################################################################
#
#                 Cambridge Crystallographic Data Centre
#                                CCDC 
#
#######################################################################
#
# If this CIF has been generated from an entry in the Cambridge 
# Structural Database, then it will include bibliographic, chemical, 
# crystal, experimental, refinement or atomic coordinate data resulting 
# from the CCDC's data processing and validation procedures.
#
#######################################################################

data_ODEBAC
_symmetry_cell_setting           orthorhombic
_symmetry_space_group_name_H-M   'P 21 21 21'
_symmetry_Int_Tables_number      19
_space_group_name_Hall           'P 2ac 2ab'
loop_
_symmetry_equiv_pos_site_id
_symmetry_equiv_pos_as_xyz
1 x,y,z
2 1/2+x,1/2-y,-z
3 -x,1/2+y,1/2-z
4 1/2-x,-y,1/2+z
_cell_length_a                   9.6643(7)
_cell_length_b                   12.7173(7)
_cell_length_c                   22.3751(12)
_cell_angle_alpha                90
_cell_angle_beta                 90
_cell_angle_gamma                90
_cell_volume                     2749.98
loop_
_atom_site_label
_atom_site_type_symbol
_atom_site_fract_x
_atom_site_fract_y
_atom_site_fract_z
Ni1 Ni 0.83006(3) 0.34174(2) 0.504301(13)
O1 O 1.12960(14) 0.11686(13) 0.51202(8)
C1 C 1.0239(2) 0.17184(19) 0.51570(9)
O2 O 1.02059(15) 0.27107(13) 0.51862(7)
C2 C 0.8862(2) 0.11011(18) 0.51601(10)
O3 O 0.77807(15) 0.18584(13) 0.52485(8)
C3 C 0.8880(2) 0.0263(2) 0.56419(11)
C4 C 0.8424(3) 0.0465(2) 0.62117(12)
C5 C 0.8532(4) -0.0325(3) 0.66453(15)
C6 C 0.9102(4) -0.1276(3) 0.65159(18)
C7 C 0.9539(4) -0.1475(3) 0.59487(19)
C8 C 0.9428(4) -0.0716(3) 0.55112(15)
N1 N 0.8027(2) 0.37940(17) 0.59546(9)
C9 C 0.7087(4) 0.4502(3) 0.61265(14)
C10 C 0.6890(4) 0.4798(3) 0.67080(15)
C11 C 0.7680(4) 0.4373(3) 0.71570(13)
C12 C 0.7524(6) 0.4684(4) 0.78067(17)
C13 C 0.8615(3) 0.3619(3) 0.69840(13)
C14 C 0.8754(3) 0.3354(3) 0.63958(12)
N2 N 0.9054(2) 0.49055(16) 0.48873(9)
C15 C 0.8553(3) 0.5526(2) 0.44531(12)
C16 C 0.9183(3) 0.6452(2) 0.42853(12)
C17 C 1.0403(3) 0.6765(2) 0.45551(12)
C18 C 1.1167(4) 0.7737(3) 0.43566(16)
C19 C 1.0890(3) 0.6145(2) 0.50176(14)
C20 C 1.0196(3) 0.5240(2) 0.51703(11)
N3 N 0.8612(2) 0.30228(18) 0.41200(9)
C21 C 0.7721(3) 0.2442(2) 0.38075(12)
C22 C 0.7940(3) 0.2136(3) 0.32257(13)
C23 C 0.9130(3) 0.2441(3) 0.29341(12)
C24 C 0.9412(5) 0.2118(4) 0.23011(16)
C25 C 1.0058(3) 0.3046(3) 0.32570(12)
C26 C 0.9772(3) 0.3316(3) 0.38361(11)
H1 H 0.8778 0.0782 0.4770
H2 H 0.8074 0.1115 0.6308
H3 H 0.8220 -0.0192 0.7032
H4 H 0.9177 -0.1774 0.6810
H5 H 0.9900 -0.2129 0.5854
H6 H 0.9728 -0.0845 0.5121
H7 H 0.6521 0.4785 0.5841
H8 H 0.6196 0.5272 0.6801
H9 H 0.9157 0.3284 0.7263
H10 H 0.9412 0.2862 0.6286
H11 H 0.7738 0.5308 0.4263
H12 H 0.8793 0.6881 0.3985
H13 H 1.1533 0.8103 0.4693
H14 H 1.0535 0.8210 0.4156
H15 H 1.1907 0.7546 0.4088
H16 H 1.1669 0.6347 0.5223
H17 H 1.0543 0.4822 0.5482
H18 H 0.6907 0.2225 0.4001
H19 H 0.7270 0.1721 0.3038
H20 H 1.0855 0.3272 0.3079
H21 H 1.0402 0.3735 0.4043
H22 H 0.7083 0.1700 0.5077
H23 H 0.7754 0.4125 0.8069
H24 H 0.8125 0.5264 0.7881
H25 H 0.6599 0.4896 0.7882
H26 H 1.0140 0.2514 0.2129
H27 H 0.9654 0.1400 0.2297
H28 H 0.8611 0.2194 0.2061
Ni1A Ni 1.33006(3) 0.15826(2) 0.495699(13)
O1A O 0.62960(14) 0.38314(13) 0.48798(8)
Cl1 Cl 0.75839(10) -0.08115(7) 0.33942(4)
O4 O 0.8412(4) -0.0570(3) 0.28911(12)
O5 O 0.6385(4) -0.0185(3) 0.33836(19)
O6 O 0.7238(5) -0.1884(3) 0.3412(2)
O7 O 0.8348(5) -0.0582(4) 0.39202(13)
loop_
_geom_bond_atom_site_label_1
_geom_bond_atom_site_label_2
_geom_bond_site_symmetry_1
_geom_bond_site_symmetry_2
Ni1 O2 1_555 1_555
O1 C1 1_555 1_555
C1 O2 1_555 1_555
C2 C1 1_555 1_555
O3 Ni1 1_555 1_555
C3 C2 1_555 1_555
C4 C3 1_555 1_555
C5 C4 1_555 1_555
C6 C5 1_555 1_555
C7 C6 1_555 1_555
C8 C3 1_555 1_555
N1 Ni1 1_555 1_555
C9 N1 1_555 1_555
C10 C9 1_555 1_555
C11 C10 1_555 1_555
C12 C11 1_555 1_555
C13 C11 1_555 1_555
C14 N1 1_555 1_555
N2 Ni1 1_555 1_555
C15 N2 1_555 1_555
C16 C15 1_555 1_555
C17 C16 1_555 1_555
C18 C17 1_555 1_555
C19 C17 1_555 1_555
C20 N2 1_555 1_555
N3 Ni1 1_555 1_555
C21 N3 1_555 1_555
C22 C21 1_555 1_555
C23 C22 1_555 1_555
C24 C23 1_555 1_555
C25 C23 1_555 1_555
C26 N3 1_555 1_555
Cl1 O4 1_555 1_555
O5 Cl1 1_555 1_555
O6 Cl1 1_555 1_555
O7 Cl1 1_555 1_555
H1 C2 1_555 1_555
H2 C4 1_555 1_555
H3 C5 1_555 1_555
H4 C6 1_555 1_555
H5 C7 1_555 1_555
H6 C8 1_555 1_555
H7 C9 1_555 1_555
H8 C10 1_555 1_555
H9 C13 1_555 1_555
H10 C14 1_555 1_555
H11 C15 1_555 1_555
H12 C16 1_555 1_555
H13 C18 1_555 1_555
H14 C18 1_555 1_555
H15 C18 1_555 1_555
H16 C19 1_555 1_555
H17 C20 1_555 1_555
H18 C21 1_555 1_555
H19 C22 1_555 1_555
H20 C25 1_555 1_555
H21 C26 1_555 1_555
H22 O3 1_555 1_555
H23 C12 1_555 1_555
H24 C12 1_555 1_555
H25 C12 1_555 1_555
H26 C24 1_555 1_555
H27 C24 1_555 1_555
H28 C24 1_555 1_555
Ni1A O1 1_555 1_555
O1A Ni1 1_555 1_555
C2 O3 1_555 1_555
C7 C8 1_555 1_555
C13 C14 1_555 1_555
C19 C20 1_555 1_555
C25 C26 1_555 1_555

#END
