
#######################################################################
#
#                 Cambridge Crystallographic Data Centre
#                                CCDC 
#
#######################################################################
#
# If this CIF has been generated from an entry in the Cambridge 
# Structural Database, then it will include bibliographic, chemical, 
# crystal, experimental, refinement or atomic coordinate data resulting 
# from the CCDC's data processing and validation procedures.
#
#######################################################################

data_ODEBEF
_symmetry_cell_setting           monoclinic
_symmetry_space_group_name_H-M   'P 21/n'
_symmetry_Int_Tables_number      14
_space_group_name_Hall           '-P 2yn'
loop_
_symmetry_equiv_pos_site_id
_symmetry_equiv_pos_as_xyz
1 x,y,z
2 1/2-x,1/2+y,1/2-z
3 -x,-y,-z
4 1/2+x,1/2-y,1/2+z
_cell_length_a                   8.7573(12)
_cell_length_b                   11.9212(16)
_cell_length_c                   14.758(2)
_cell_angle_alpha                90
_cell_angle_beta                 102.227(2)
_cell_angle_gamma                90
_cell_volume                     1505.75
loop_
_atom_site_label
_atom_site_type_symbol
_atom_site_fract_x
_atom_site_fract_y
_atom_site_fract_z
Pb1 Pb 0.20587(3) 0.38695(2) 1.047674(15)
O1 O 0.0828(6) 0.5947(4) 1.0584(4)
O2 O 0.3353(5) 0.5645(4) 1.0902(3)
O3 O 0.2266(6) 0.2522(4) 0.9060(3)
O4 O 0.2384(5) 0.4369(4) 0.8986(3)
N1 N 0.0864(8) 1.0257(6) 1.1228(5)
H1 H 0.0920 1.0774 1.1678
H2 H -0.0120 1.0116 1.0925
N2 N 0.5426(7) 0.8660(5) 1.3231(5)
H3 H 0.5818 0.9351 1.3355
H4 H 0.6143 0.8141 1.3179
N3 N 0.2130(7) 0.5119(6) 0.5558(4)
H5 H 0.1766 0.5132 0.4938
H6 H 0.2039 0.5790 0.5824
N4 N 0.0095(6) 0.1359(4) 0.5691(4)
H7 H 0.0554 0.0759 0.6006
H8 H 0.0329 0.1343 0.5126
C1 C 0.2200(8) 0.6287(5) 1.0899(5)
C2 C 0.2499(7) 0.7401(6) 1.1348(4)
C3 C 0.1459(7) 0.8300(6) 1.1096(5)
H9 H 0.0541 0.8204 1.0652
C4 C 0.1822(8) 0.9341(6) 1.1520(5)
C5 C 0.3180(8) 0.9466(7) 1.2196(5)
H10 H 0.3423 1.0165 1.2469
C6 C 0.4186(7) 0.8566(6) 1.2473(5)
C7 C 0.3871(7) 0.7535(6) 1.2019(4)
H11 H 0.4571 0.6943 1.2165
C8 C 0.2174(7) 0.3409(6) 0.8598(4)
C9 C 0.1782(7) 0.3356(5) 0.7563(4)
C10 C 0.2086(7) 0.4275(6) 0.7038(5)
H12 H 0.2526 0.4921 0.7337
C11 C 0.1738(8) 0.4236(6) 0.6070(5)
C12 C 0.1064(7) 0.3255(5) 0.5625(4)
H13 H 0.0812 0.3218 0.4981
C13 C 0.0774(7) 0.2335(5) 0.6153(4)
C14 C 0.1112(7) 0.2384(5) 0.7119(4)
H14 H 0.0894 0.1775 0.7464
Pb1B Pb -0.20587(3) 0.61305(2) 0.952326(15)
Pb1C Pb -0.29413(3) 0.11305(2) 0.547674(15)
O1B O -0.0828(6) 0.4053(4) 0.9416(4)
N4C N 0.5095(6) 0.3641(4) 1.0691(4)
H7C H 0.5554 0.4241 1.1006
H8C H 0.5329 0.3657 1.0126
loop_
_geom_bond_atom_site_label_1
_geom_bond_atom_site_label_2
_geom_bond_site_symmetry_1
_geom_bond_site_symmetry_2
Pb1 O1 1_555 1_555
O1 C1 1_555 1_555
O2 Pb1 1_555 1_555
O3 Pb1 1_555 1_555
O4 Pb1 1_555 1_555
N1 H1 1_555 1_555
H2 N1 1_555 1_555
N2 H3 1_555 1_555
H4 N2 1_555 1_555
N3 H5 1_555 1_555
H6 N3 1_555 1_555
N4 H7 1_555 1_555
H8 N4 1_555 1_555
C1 O2 1_555 1_555
C2 C1 1_555 1_555
C3 C2 1_555 1_555
H9 C3 1_555 1_555
C4 N1 1_555 1_555
C5 C4 1_555 1_555
H10 C5 1_555 1_555
C6 N2 1_555 1_555
C7 C2 1_555 1_555
H11 C7 1_555 1_555
C8 O3 1_555 1_555
C9 C8 1_555 1_555
C10 C9 1_555 1_555
H12 C10 1_555 1_555
C11 N3 1_555 1_555
C12 C11 1_555 1_555
H13 C12 1_555 1_555
C13 N4 1_555 1_555
C14 C9 1_555 1_555
H14 C14 1_555 1_555
Pb1B O1 1_555 1_555
Pb1C N4 1_555 1_555
O1B Pb1 1_555 1_555
N4C Pb1 1_555 1_555
H7C N4C 1_555 1_555
H8C N4C 1_555 1_555
O4 C8 1_555 1_555
C3 C4 1_555 1_555
C5 C6 1_555 1_555
C6 C7 1_555 1_555
C10 C11 1_555 1_555
C12 C13 1_555 1_555
C13 C14 1_555 1_555
Pb1B O1B 1_555 1_555

#END
