
#######################################################################
#
#                 Cambridge Crystallographic Data Centre
#                                CCDC 
#
#######################################################################
#
# If this CIF has been generated from an entry in the Cambridge 
# Structural Database, then it will include bibliographic, chemical, 
# crystal, experimental, refinement or atomic coordinate data resulting 
# from the CCDC's data processing and validation procedures.
#
#######################################################################

data_ODEGUA
_symmetry_cell_setting           monoclinic
_symmetry_space_group_name_H-M   'C 2/c'
_symmetry_Int_Tables_number      15
_space_group_name_Hall           '-C 2yn'
loop_
_symmetry_equiv_pos_site_id
_symmetry_equiv_pos_as_xyz
1 x,y,z
2 1/2+x,1/2+y,z
3 -x,y,1/2-z
4 1/2-x,1/2+y,1/2-z
5 -x,-y,-z
6 1/2-x,1/2-y,-z
7 x,-y,1/2+z
8 1/2+x,1/2-y,1/2+z
_cell_length_a                   15.390(5)
_cell_length_b                   15.935(5)
_cell_length_c                   18.839(5)
_cell_angle_alpha                90
_cell_angle_beta                 109.328(5)
_cell_angle_gamma                90
_cell_volume                     4359.68
loop_
_atom_site_label
_atom_site_type_symbol
_atom_site_fract_x
_atom_site_fract_y
_atom_site_fract_z
C1 C 0.7972(2) 0.25337(18) 0.17220(15)
H1 H 0.7753 0.3051 0.1507
C2 C 0.7636(2) 0.18117(18) 0.13070(16)
H2 H 0.7216 0.1851 0.0822
C3 C 0.7927(2) 0.10466(18) 0.16160(15)
H3 H 0.7703 0.0559 0.1346
C4 C 0.85687(17) 0.10006(15) 0.23441(13)
C5 C 0.88930(16) 0.17646(15) 0.27188(12)
C6 C 0.95885(16) 0.17628(15) 0.34628(12)
C7 C 0.99598(17) 0.10059(16) 0.38220(13)
C8 C 1.0624(2) 0.10503(18) 0.45380(15)
H4 H 1.0881 0.0564 0.4795
C9 C 1.0888(2) 0.18174(19) 0.48530(16)
H5 H 1.1335 0.1859 0.5326
C10 C 1.0487(2) 0.25419(19) 0.44656(15)
H6 H 1.0674 0.3060 0.4691
C11 C 0.96138(16) 0.02410(15) 0.34317(13)
C12 C 0.89421(17) 0.02476(15) 0.27339(12)
C13 C 0.93155(17) -0.10420(16) 0.31284(14)
C14 C 0.93247(18) -0.19625(16) 0.31426(14)
C15 C 0.9880(2) -0.23718(19) 0.37842(16)
H7 H 1.0248 -0.2057 0.4188
C16 C 0.9895(3) -0.3234(2) 0.38328(19)
H8 H 1.0258 -0.3499 0.4271
C17 C 0.9372(3) -0.3702(2) 0.3230(2)
H9 H 0.9383 -0.4285 0.3259
C18 C 0.8833(3) -0.3312(2) 0.25854(19)
H10 H 0.8485 -0.3631 0.2177
C19 C 0.8806(2) -0.24444(19) 0.25420(16)
H11 H 0.8435 -0.2184 0.2105
C20 C 0.84171(17) 0.41410(15) 0.41599(12)
C21 C 0.80534(16) 0.43324(15) 0.47878(12)
C22 C 0.85562(16) 0.48345(14) 0.53882(11)
H12 H 0.9107 0.5075 0.5389
C23 C 0.82331(16) 0.49782(14) 0.59892(12)
C24 C 0.87878(16) 0.54917(15) 0.66563(12)
C25 C 0.74077(18) 0.46191(18) 0.59772(13)
H13 H 0.7193 0.4707 0.6378
C26 C 0.69035(19) 0.4133(2) 0.53787(15)
H14 H 0.6348 0.3901 0.5375
C27 C 0.72237(18) 0.39898(19) 0.47794(14)
H15 H 0.6881 0.3664 0.4374
N1 N 0.85880(14) 0.25225(13) 0.24090(11)
N2 N 0.98490(15) 0.25216(13) 0.37894(11)
N3 N 0.87488(14) -0.05861(13) 0.25358(11)
N4 N 0.98414(14) -0.05725(14) 0.36733(11)
H16 H 1.0240 -0.0735 0.4089
O1 O 0.78898(13) 0.38171(12) 0.35566(9)
O2 O 0.92413(13) 0.42863(13) 0.42417(10)
O3 O 0.85046(12) 0.55292(11) 0.72126(9)
O4 O 0.94784(13) 0.58707(12) 0.66173(10)
Mn1 Mn 0.91663(2) 0.36874(2) 0.314549(17)
O3F O 0.85046(12) 0.44708(11) 0.22126(9)
O4D O 1.05216(13) 0.41293(12) 0.33827(10)
Mn1F Mn 0.91663(2) 0.63126(2) 0.814549(17)
Mn1D Mn 1.08337(2) 0.63126(2) 0.685451(17)
loop_
_geom_bond_atom_site_label_1
_geom_bond_atom_site_label_2
_geom_bond_site_symmetry_1
_geom_bond_site_symmetry_2
C1 H1 1_555 1_555
C2 C1 1_555 1_555
H2 C2 1_555 1_555
C3 C2 1_555 1_555
H3 C3 1_555 1_555
C4 C3 1_555 1_555
C5 C4 1_555 1_555
C6 C5 1_555 1_555
C7 C6 1_555 1_555
C8 C7 1_555 1_555
H4 C8 1_555 1_555
C9 C8 1_555 1_555
H5 C9 1_555 1_555
C10 C9 1_555 1_555
H6 C10 1_555 1_555
C11 C7 1_555 1_555
C12 C4 1_555 1_555
C13 C14 1_555 1_555
C14 C15 1_555 1_555
C15 H7 1_555 1_555
C16 C15 1_555 1_555
H8 C16 1_555 1_555
C17 C16 1_555 1_555
H9 C17 1_555 1_555
C18 C17 1_555 1_555
H10 C18 1_555 1_555
C19 C14 1_555 1_555
H11 C19 1_555 1_555
C20 C21 1_555 1_555
C21 C22 1_555 1_555
C22 H12 1_555 1_555
C23 C22 1_555 1_555
C24 C23 1_555 1_555
C25 C23 1_555 1_555
H13 C25 1_555 1_555
C26 C25 1_555 1_555
H14 C26 1_555 1_555
C27 C21 1_555 1_555
H15 C27 1_555 1_555
N1 C1 1_555 1_555
N2 C6 1_555 1_555
N3 C12 1_555 1_555
N4 C11 1_555 1_555
H16 N4 1_555 1_555
O1 C20 1_555 1_555
O2 C20 1_555 1_555
O3 C24 1_555 1_555
O4 C24 1_555 1_555
Mn1 N1 1_555 1_555
O3F Mn1 1_555 1_555
O4D Mn1 1_555 1_555
Mn1F O3 1_555 1_555
Mn1D O4 1_555 1_555
C5 N1 1_555 1_555
C10 N2 1_555 1_555
C11 C12 1_555 1_555
C13 N3 1_555 1_555
C13 N4 1_555 1_555
C18 C19 1_555 1_555
C26 C27 1_555 1_555
N2 Mn1 1_555 1_555
O1 Mn1 1_555 1_555
O2 Mn1 1_555 1_555

#END
