
#######################################################################
#
#                 Cambridge Crystallographic Data Centre
#                                CCDC 
#
#######################################################################
#
# If this CIF has been generated from an entry in the Cambridge 
# Structural Database, then it will include bibliographic, chemical, 
# crystal, experimental, refinement or atomic coordinate data resulting 
# from the CCDC's data processing and validation procedures.
#
#######################################################################

data_ODEJOY
_symmetry_cell_setting           orthorhombic
_symmetry_space_group_name_H-M   'P n n 2'
_symmetry_Int_Tables_number      34
_space_group_name_Hall           'P 2 -2n'
loop_
_symmetry_equiv_pos_site_id
_symmetry_equiv_pos_as_xyz
1 x,y,z
2 -x,-y,z
3 1/2+x,1/2-y,1/2+z
4 1/2-x,1/2+y,1/2+z
_cell_length_a                   12.802(3)
_cell_length_b                   17.411(4)
_cell_length_c                   20.479(5)
_cell_angle_alpha                90
_cell_angle_beta                 90
_cell_angle_gamma                90
_cell_volume                     4564.68
loop_
_atom_site_label
_atom_site_type_symbol
_atom_site_fract_x
_atom_site_fract_y
_atom_site_fract_z
Mn1 Mn 0.28647(5) 0.02320(4) 0.76675(4)
Mn2 Mn 1.0000 0.5000 0.34349(4)
Mn3 Mn 0.5000 -0.5000 1.19444(5)
O1 O 0.4308(3) 0.0965(2) 0.75688(17)
O2 O 0.8241(3) 0.4727(2) 0.37141(15)
O3 O 0.5963(2) 0.06881(18) 0.77548(15)
C1 C 0.7972(4) 0.2429(3) 0.6019(2)
C2 C 0.6903(4) 0.2215(3) 0.6276(2)
O4 O 0.2131(3) 0.1318(2) 0.7656(3)
C3 C 0.7690(4) 0.2988(3) 0.5481(2)
O5 O 0.3918(3) -0.4566(2) 1.13017(17)
C4 C 0.6619(4) 0.3083(3) 0.5433(2)
O6 O 0.1470(3) -0.0351(2) 0.7882(2)
C5 C 0.0916(4) -0.0940(3) 0.7856(2)
C6 C 0.7921(3) 0.3849(3) 0.4582(2)
C7 C 0.8353(4) 0.3367(3) 0.5052(2)
H1 H 0.9072 0.3300 0.5078
C8 C 0.2933(4) -0.4575(3) 1.1270(2)
C9 C 0.5578(4) 0.1604(3) 0.6922(2)
O7 O 0.2334(4) -0.4919(2) 1.16581(19)
C10 C 0.6119(4) 0.2608(3) 0.5936(2)
C11 C 0.1977(4) -0.1615(3) 0.8700(2)
H2 H 0.2514 -0.1262 0.8640
C12 C 0.6633(4) 0.1713(3) 0.6769(2)
H3 H 0.7147 0.1448 0.6997
C13 C 0.2991(4) -0.2395(4) 0.9574(3)
C14 C 0.6849(4) 0.3942(3) 0.4540(2)
H4 H 0.6573 0.4258 0.4217
O8 O 0.0224(3) -0.1019(2) 0.74321(18)
O9 O 0.9593(3) 0.4148(2) 0.41522(15)
C15 C 0.1054(4) -0.1561(3) 0.8346(2)
C16 C 0.8638(4) 0.4265(3) 0.4119(2)
C17 C 0.3045(4) -0.3533(3) 1.0432(2)
H5 H 0.3734 -0.3441 1.0553
N1 N 0.2124(4) 0.2610(3) 0.7584(3)
C18 C 0.2556(4) -0.3100(3) 0.9945(2)
C19 C 0.2075(4) -0.2214(3) 0.9150(2)
C20 C 0.3268(5) -0.1719(4) 1.0037(3)
H6 H 0.3558 -0.1305 0.9777
H7 H 0.3810 -0.1890 1.0335
C21 C 0.1232(4) -0.2724(3) 0.9246(2)
C22 C 0.2441(4) -0.4123(3) 1.0736(2)
C23 C 0.1439(5) -0.4282(3) 1.0541(2)
H8 H 0.1070 -0.4676 1.0743
C24 C 0.8670(4) 0.2801(3) 0.6547(2)
H9 H 0.8838 0.2414 0.6870
H10 H 0.9320 0.2960 0.6344
C25 C 0.1552(4) -0.3273(3) 0.9758(2)
C26 C 0.4813(4) 0.2014(3) 0.6582(3)
H11 H 0.4114 0.1948 0.6691
C27 C 0.5268(4) 0.1051(3) 0.7443(2)
C28 C 0.8068(5) 0.1297(3) 0.5189(3)
H12 H 0.7826 0.1660 0.4863
H13 H 0.7464 0.1021 0.5353
C29 C 0.8562(4) 0.1728(3) 0.5738(2)
H14 H 0.9242 0.1903 0.5592
H15 H 0.8679 0.1369 0.6093
C30 C 0.0968(5) -0.3858(3) 1.0042(3)
H16 H 0.0290 -0.3962 0.9905
C31 C 0.0238(4) -0.2075(3) 0.8452(3)
H17 H -0.0375 -0.2019 0.8213
C32 C 0.8272(9) 0.0280(4) 0.4300(3)
H18 H 0.8768 -0.0071 0.4114
H19 H 0.8042 0.0634 0.3971
H20 H 0.7684 -0.0001 0.4466
C33 C 0.8201(5) 0.3490(4) 0.6895(3)
H21 H 0.7583 0.3324 0.7130
H22 H 0.7981 0.3862 0.6570
C34 C 0.5076(4) 0.2509(3) 0.6092(3)
H23 H 0.4561 0.2776 0.5866
C35 C 0.3965(4) -0.2583(4) 0.9169(3)
H24 H 0.4498 -0.2783 0.9459
H25 H 0.4231 -0.2109 0.8983
C36 C 0.2384(6) 0.1964(5) 0.7834(5)
H26 H 0.2820 0.1988 0.8197
C37 C 0.6177(4) 0.3573(3) 0.4971(2)
H27 H 0.5459 0.3650 0.4952
C38 C 0.3803(5) -0.3148(4) 0.8626(3)
H28 H 0.3535 -0.3623 0.8807
H29 H 0.3285 -0.2947 0.8326
C39 C 0.8801(6) 0.0735(4) 0.4870(3)
H30 H 0.9048 0.0374 0.5196
H31 H 0.9402 0.1010 0.4702
C40 C 0.2377(6) -0.1407(4) 1.0431(3)
H32 H 0.1794 -0.1306 1.0140
H33 H 0.2156 -0.1796 1.0740
C41 C 0.0312(4) -0.2664(3) 0.8899(3)
H34 H -0.0235 -0.3007 0.8964
C42 C 0.8936(6) 0.3881(4) 0.7371(3)
H35 H 0.9157 0.3507 0.7694
H36 H 0.9554 0.4046 0.7135
C43 C 0.4801(6) -0.3313(6) 0.8255(4)
H37 H 0.5310 -0.3528 0.8555
H38 H 0.5081 -0.2833 0.8091
C44 C 0.2634(7) -0.0667(4) 1.0807(4)
H39 H 0.3170 -0.0767 1.1130
H40 H 0.2891 -0.0278 1.0508
C45 C 0.1589(10) -0.0373(6) 1.1157(6)
H41 H 0.1739 0.0084 1.1402
H42 H 0.1070 -0.0262 1.0832
H43 H 0.1334 -0.0764 1.1446
C46 C 0.4663(8) -0.3856(6) 0.7692(4)
H44 H 0.5323 -0.3936 0.7481
H45 H 0.4401 -0.4338 0.7850
H46 H 0.4176 -0.3642 0.7385
C47 C 0.8483(8) 0.4558(5) 0.7717(5)
H47 H 0.8999 0.4776 0.8002
H48 H 0.7890 0.4398 0.7969
H49 H 0.8268 0.4936 0.7403
C48 C 0.1505(8) 0.2606(7) 0.7005(5)
H50 H 0.1394 0.2086 0.6866
H51 H 0.0844 0.2846 0.7092
H52 H 0.1862 0.2885 0.6667
C49 C 0.2347(9) 0.3314(6) 0.7877(9)
H53 H 0.2758 0.3230 0.8263
H54 H 0.2732 0.3630 0.7577
H55 H 0.1707 0.3566 0.7993
Mn1A Mn 1.71353(5) 0.97680(4) 0.76675(4)
Mn1B Mn 0.78647(5) 0.47680(4) 0.26675(4)
Mn1A_2 Mn 0.71353(5) -0.02320(4) 0.76675(4)
Mn1C Mn 0.21353(5) -0.47680(4) 1.26675(4)
Mn1C_2 Mn 1.21353(5) 0.52320(4) 0.26675(4)
Mn1_2 Mn 1.28647(5) 1.02320(4) 0.76675(4)
Mn1C_3 Mn 0.21353(5) 0.52320(4) 0.26675(4)
Mn2B Mn 0.5000 0.0000 0.84349(4)
Mn2B_2 Mn 1.5000 1.0000 0.84349(4)
Mn3B Mn 0.0000 0.0000 0.69444(5)
Mn3_2 Mn 0.5000 0.5000 0.19444(5)
O1A O 1.5692(3) 0.9035(2) 0.75688(17)
O2A O 1.1759(3) 0.5273(2) 0.37141(15)
O2B O 0.3241(3) 0.0273(2) 0.87141(15)
O2C O 1.6759(3) 0.9727(2) 0.87141(15)
O3A O 1.4037(2) 0.93119(18) 0.77548(15)
O3A_2 O 0.4037(2) -0.06881(18) 0.77548(15)
O3B O 1.0963(2) 0.43119(18) 0.27548(15)
O3C O 0.9037(2) 0.56881(18) 0.27548(15)
O3_2 O 1.5963(2) 1.06881(18) 0.77548(15)
C1A C 1.2028(4) 0.7571(3) 0.6019(2)
C2A C 1.3097(4) 0.7785(3) 0.6276(2)
O4A O 1.7869(3) 0.8682(2) 0.7656(3)
C3A C 1.2310(4) 0.7012(3) 0.5481(2)
O5C O 0.1082(3) 0.0434(2) 0.63017(17)
O5A O 0.6082(3) -0.5434(2) 1.13017(17)
C4A C 1.3381(4) 0.6917(3) 0.5433(2)
O6C O 0.3530(3) 0.4649(2) 0.2882(2)
O6A O 1.8530(3) 1.0351(2) 0.7882(2)
C5C C 0.4084(4) 0.4060(3) 0.2856(2)
C6A C 1.2079(3) 0.6151(3) 0.4582(2)
C7A C 1.1647(4) 0.6633(3) 0.5052(2)
H1A H 1.0928 0.6700 0.5078
C8C C 0.2067(4) 0.0425(3) 0.6270(2)
C9A C 1.4422(4) 0.8396(3) 0.6922(2)
O7C O 0.2666(4) 0.0081(2) 0.66581(19)
O7B O 1.7334(4) 0.9919(2) 0.66581(19)
C10A C 1.3881(4) 0.7392(3) 0.5936(2)
C11C C 0.3023(4) 0.3385(3) 0.3700(2)
H2C H 0.2486 0.3738 0.3640
C12A C 1.3367(4) 0.8287(3) 0.6769(2)
H3A H 1.2853 0.8552 0.6997
C13C C 0.2009(4) 0.2605(4) 0.4574(3)
C14A C 1.3151(4) 0.6058(3) 0.4540(2)
H4A H 1.3427 0.5742 0.4217
O8C O 0.4776(3) 0.3981(2) 0.24321(18)
O8C_2 O 0.4776(3) -0.6019(2) 1.24321(18)
O8B O 0.5224(3) -0.3981(2) 1.24321(18)
O9A O 1.0407(3) 0.5852(2) 0.41522(15)
C15C C 0.3946(4) 0.3439(3) 0.3346(2)
C16A C 1.1362(4) 0.5735(3) 0.4119(2)
C17C C 0.1955(4) 0.1467(3) 0.5432(2)
H5C H 0.1266 0.1559 0.5553
N1A N 1.7876(4) 0.7390(3) 0.7584(3)
C18C C 0.2444(4) 0.1900(3) 0.4945(2)
C19C C 0.2925(4) 0.2786(3) 0.4150(2)
C20C C 0.1732(5) 0.3281(4) 0.5037(3)
H6C H 0.1442 0.3695 0.4777
H7C H 0.1190 0.3110 0.5335
C21C C 0.3768(4) 0.2276(3) 0.4246(2)
C22C C 0.2559(4) 0.0877(3) 0.5736(2)
C23C C 0.3561(5) 0.0718(3) 0.5541(2)
H8C H 0.3930 0.0324 0.5743
C24A C 1.1330(4) 0.7199(3) 0.6547(2)
H9A H 1.1162 0.7586 0.6870
H10A H 1.0680 0.7040 0.6344
C25C C 0.3448(4) 0.1727(3) 0.4758(2)
C26A C 1.5187(4) 0.7986(3) 0.6582(3)
H11A H 1.5886 0.8052 0.6691
C27A C 1.4732(4) 0.8949(3) 0.7443(2)
C28A C 1.1932(5) 0.8703(3) 0.5189(3)
H12A H 1.2174 0.8340 0.4863
H13A H 1.2536 0.8979 0.5353
C29A C 1.1438(4) 0.8272(3) 0.5738(2)
H14A H 1.0758 0.8097 0.5592
H15A H 1.1321 0.8631 0.6093
C30C C 0.4032(5) 0.1142(3) 0.5042(3)
H16C H 0.4710 0.1038 0.4905
C31C C 0.4762(4) 0.2925(3) 0.3452(3)
H17C H 0.5375 0.2981 0.3213
C32A C 1.1728(9) 0.9720(4) 0.4300(3)
H18A H 1.1232 1.0071 0.4114
H19A H 1.1958 0.9366 0.3971
H20A H 1.2316 1.0001 0.4466
C33A C 1.1799(5) 0.6510(4) 0.6895(3)
H21A H 1.2417 0.6676 0.7130
H22A H 1.2019 0.6138 0.6570
C34A C 1.4924(4) 0.7491(3) 0.6092(3)
H23A H 1.5439 0.7224 0.5866
C35C C 0.1035(4) 0.2417(4) 0.4169(3)
H24C H 0.0502 0.2217 0.4459
H25C H 0.0769 0.2891 0.3983
C36A C 1.7616(6) 0.8036(5) 0.7834(5)
H26A H 1.7180 0.8012 0.8197
C37A C 1.3823(4) 0.6427(3) 0.4971(2)
H27A H 1.4541 0.6350 0.4952
C38C C 0.1197(5) 0.1852(4) 0.3626(3)
H28C H 0.1465 0.1377 0.3807
H29C H 0.1715 0.2053 0.3326
C39A C 1.1199(6) 0.9265(4) 0.4870(3)
H30A H 1.0952 0.9626 0.5196
H31A H 1.0598 0.8990 0.4702
C40C C 0.2623(6) 0.3593(4) 0.5431(3)
H32C H 0.3206 0.3694 0.5140
H33C H 0.2844 0.3204 0.5740
C41C C 0.4688(4) 0.2336(3) 0.3899(3)
H34C H 0.5235 0.1993 0.3964
C42A C 1.1064(6) 0.6119(4) 0.7371(3)
H35A H 1.0843 0.6493 0.7694
H36A H 1.0446 0.5954 0.7135
C43C C 0.0199(6) 0.1687(6) 0.3255(4)
H37C H -0.0310 0.1472 0.3555
H38C H -0.0081 0.2167 0.3091
C44C C 0.2366(7) 0.4333(4) 0.5807(4)
H39C H 0.1830 0.4233 0.6130
H40C H 0.2109 0.4722 0.5508
C45C C 0.3411(10) 0.4627(6) 0.6157(6)
H41C H 0.3261 0.5084 0.6402
H42C H 0.3930 0.4738 0.5832
H43C H 0.3666 0.4236 0.6446
C46C C 0.0337(8) 0.1144(6) 0.2692(4)
H44C H -0.0323 0.1064 0.2481
H45C H 0.0599 0.0662 0.2850
H46C H 0.0824 0.1358 0.2385
C47A C 1.1517(8) 0.5442(5) 0.7717(5)
H47A H 1.1001 0.5224 0.8002
H48A H 1.2110 0.5602 0.7969
H49A H 1.1732 0.5064 0.7403
C48A C 1.8495(8) 0.7394(7) 0.7005(5)
H50A H 1.8606 0.7914 0.6866
H51A H 1.9156 0.7154 0.7092
H52A H 1.8138 0.7115 0.6667
C49A C 1.7653(9) 0.6686(6) 0.7877(9)
H53A H 1.7242 0.6770 0.8263
H54A H 1.7268 0.6370 0.7577
H55A H 1.8293 0.6434 0.7993
loop_
_geom_bond_atom_site_label_1
_geom_bond_atom_site_label_2
_geom_bond_site_symmetry_1
_geom_bond_site_symmetry_2
Mn1 O1 1_555 1_555
Mn2 O2 1_555 1_555
Mn3 O5 1_555 1_555
O1 C27 1_555 1_555
O2 C16 1_555 1_555
O3 C27 1_555 1_555
C1 C2 1_555 1_555
C2 C10 1_555 1_555
O4 Mn1 1_555 1_555
C3 C1 1_555 1_555
O5 C8 1_555 1_555
C4 C3 1_555 1_555
O6 Mn1 1_555 1_555
C5 O6 1_555 1_555
C6 C7 1_555 1_555
C7 C3 1_555 1_555
H1 C7 1_555 1_555
C8 O7 1_555 1_555
C9 C12 1_555 1_555
O7 Mn1C 1_555 1_555
C10 C4 1_555 1_555
C11 H2 1_555 1_555
C12 C2 1_555 1_555
H3 C12 1_555 1_555
C13 C18 1_555 1_555
C14 C6 1_555 1_555
H4 C14 1_555 1_555
O8 C5 1_555 1_555
O9 Mn2 1_555 1_555
C15 C5 1_555 1_555
C16 C6 1_555 1_555
C17 H5 1_555 1_555
N1 C36 1_555 1_555
C18 C17 1_555 1_555
C19 C11 1_555 1_555
C20 C13 1_555 1_555
H6 C20 1_555 1_555
H7 C20 1_555 1_555
C21 C19 1_555 1_555
C22 C8 1_555 1_555
C23 C22 1_555 1_555
H8 C23 1_555 1_555
C24 C1 1_555 1_555
H9 C24 1_555 1_555
H10 C24 1_555 1_555
C25 C18 1_555 1_555
C26 C9 1_555 1_555
H11 C26 1_555 1_555
C27 C9 1_555 1_555
C28 H12 1_555 1_555
H13 C28 1_555 1_555
C29 C1 1_555 1_555
H14 C29 1_555 1_555
H15 C29 1_555 1_555
C30 C23 1_555 1_555
H16 C30 1_555 1_555
C31 C15 1_555 1_555
H17 C31 1_555 1_555
C32 H18 1_555 1_555
H19 C32 1_555 1_555
H20 C32 1_555 1_555
C33 C24 1_555 1_555
H21 C33 1_555 1_555
H22 C33 1_555 1_555
C34 C10 1_555 1_555
H23 C34 1_555 1_555
C35 C13 1_555 1_555
H24 C35 1_555 1_555
H25 C35 1_555 1_555
C36 O4 1_555 1_555
H26 C36 1_555 1_555
C37 C4 1_555 1_555
H27 C37 1_555 1_555
C38 C35 1_555 1_555
H28 C38 1_555 1_555
H29 C38 1_555 1_555
C39 C28 1_555 1_555
H30 C39 1_555 1_555
H31 C39 1_555 1_555
C40 C20 1_555 1_555
H32 C40 1_555 1_555
H33 C40 1_555 1_555
C41 C21 1_555 1_555
H34 C41 1_555 1_555
C42 C33 1_555 1_555
H35 C42 1_555 1_555
H36 C42 1_555 1_555
C43 C38 1_555 1_555
H37 C43 1_555 1_555
H38 C43 1_555 1_555
C44 C40 1_555 1_555
H39 C44 1_555 1_555
H40 C44 1_555 1_555
C45 C44 1_555 1_555
H41 C45 1_555 1_555
H42 C45 1_555 1_555
H43 C45 1_555 1_555
C46 C43 1_555 1_555
H44 C46 1_555 1_555
H45 C46 1_555 1_555
H46 C46 1_555 1_555
C47 C42 1_555 1_555
H47 C47 1_555 1_555
H48 C47 1_555 1_555
H49 C47 1_555 1_555
C48 N1 1_555 1_555
H50 C48 1_555 1_555
H51 C48 1_555 1_555
H52 C48 1_555 1_555
C49 N1 1_555 1_555
H53 C49 1_555 1_555
H54 C49 1_555 1_555
H55 C49 1_555 1_555
Mn1A O1A 1_555 1_555
Mn1B O2 1_555 1_555
Mn1A_2 O3 1_555 1_555
Mn1C_2 O2A 1_555 1_555
Mn1_2 O3A 1_555 1_555
Mn1C_3 O6C 1_555 1_555
Mn2B O3 1_555 1_555
Mn2B_2 O2C 1_555 1_555
Mn3B O8 1_555 1_555
Mn3_2 O8C 1_555 1_555
O1A C27A 1_555 1_555
O2A Mn2 1_555 1_555
O2B Mn1 1_555 1_555
O2C Mn1A 1_555 1_555
O3A Mn2B_2 1_555 1_555
O3A_2 Mn1 1_555 1_555
O3B Mn2 1_555 1_555
O3C Mn2 1_555 1_555
O3_2 Mn1A 1_555 1_555
C1A C2A 1_555 1_555
C2A C10A 1_555 1_555
O4A Mn1A 1_555 1_555
C3A C1A 1_555 1_555
O5C Mn3B 1_555 1_555
O5A Mn3 1_555 1_555
C4A C3A 1_555 1_555
O6C C5C 1_555 1_555
O6A Mn1A 1_555 1_555
C5C O8C 1_555 1_555
C6A C7A 1_555 1_555
C7A C3A 1_555 1_555
H1A C7A 1_555 1_555
C8C O5C 1_555 1_555
C9A C12A 1_555 1_555
O7C Mn1 1_555 1_555
O7B Mn1A 1_555 1_555
C10A C4A 1_555 1_555
C11C H2C 1_555 1_555
C12A C2A 1_555 1_555
H3A C12A 1_555 1_555
C13C C18C 1_555 1_555
C14A C6A 1_555 1_555
H4A C14A 1_555 1_555
O8C_2 Mn3 1_555 1_555
O8B Mn3 1_555 1_555
O9A Mn2 1_555 1_555
C15C C5C 1_555 1_555
C16A O2A 1_555 1_555
C17C H5C 1_555 1_555
N1A C36A 1_555 1_555
C18C C17C 1_555 1_555
C19C C11C 1_555 1_555
C20C C13C 1_555 1_555
H6C C20C 1_555 1_555
H7C C20C 1_555 1_555
C21C C19C 1_555 1_555
C22C C8C 1_555 1_555
C23C C22C 1_555 1_555
H8C C23C 1_555 1_555
C24A C1A 1_555 1_555
H9A C24A 1_555 1_555
H10A C24A 1_555 1_555
C25C C18C 1_555 1_555
C26A C9A 1_555 1_555
H11A C26A 1_555 1_555
C27A O3A 1_555 1_555
C28A H12A 1_555 1_555
H13A C28A 1_555 1_555
C29A C1A 1_555 1_555
H14A C29A 1_555 1_555
H15A C29A 1_555 1_555
C30C C23C 1_555 1_555
H16C C30C 1_555 1_555
C31C C15C 1_555 1_555
H17C C31C 1_555 1_555
C32A H18A 1_555 1_555
H19A C32A 1_555 1_555
H20A C32A 1_555 1_555
C33A C24A 1_555 1_555
H21A C33A 1_555 1_555
H22A C33A 1_555 1_555
C34A C10A 1_555 1_555
H23A C34A 1_555 1_555
C35C C13C 1_555 1_555
H24C C35C 1_555 1_555
H25C C35C 1_555 1_555
C36A O4A 1_555 1_555
H26A C36A 1_555 1_555
C37A C4A 1_555 1_555
H27A C37A 1_555 1_555
C38C C35C 1_555 1_555
H28C C38C 1_555 1_555
H29C C38C 1_555 1_555
C39A C28A 1_555 1_555
H30A C39A 1_555 1_555
H31A C39A 1_555 1_555
C40C C20C 1_555 1_555
H32C C40C 1_555 1_555
H33C C40C 1_555 1_555
C41C C21C 1_555 1_555
H34C C41C 1_555 1_555
C42A C33A 1_555 1_555
H35A C42A 1_555 1_555
H36A C42A 1_555 1_555
C43C C38C 1_555 1_555
H37C C43C 1_555 1_555
H38C C43C 1_555 1_555
C44C C40C 1_555 1_555
H39C C44C 1_555 1_555
H40C C44C 1_555 1_555
C45C C44C 1_555 1_555
H41C C45C 1_555 1_555
H42C C45C 1_555 1_555
H43C C45C 1_555 1_555
C46C C43C 1_555 1_555
H44C C46C 1_555 1_555
H45C C46C 1_555 1_555
H46C C46C 1_555 1_555
C47A C42A 1_555 1_555
H47A C47A 1_555 1_555
H48A C47A 1_555 1_555
H49A C47A 1_555 1_555
C48A N1A 1_555 1_555
H50A C48A 1_555 1_555
H51A C48A 1_555 1_555
H52A C48A 1_555 1_555
C49A N1A 1_555 1_555
H53A C49A 1_555 1_555
H54A C49A 1_555 1_555
H55A C49A 1_555 1_555
C11 C15 1_555 1_555
C13 C19 1_555 1_555
C14 C37 1_555 1_555
O9 C16 1_555 1_555
C17 C22 1_555 1_555
C21 C25 1_555 1_555
C25 C30 1_555 1_555
C26 C34 1_555 1_555
C28 C29 1_555 1_555
C31 C41 1_555 1_555
C32 C39 1_555 1_555
Mn1B O3C 1_555 1_555
Mn1C_2 O3B 1_555 1_555
Mn2B O2B 1_555 1_555
Mn2B O3A_2 1_555 1_555
Mn2B_2 O3_2 1_555 1_555
C6A C16A 1_555 1_555
C8C O7C 1_555 1_555
C9A C27A 1_555 1_555
C11C C15C 1_555 1_555
C13C C19C 1_555 1_555
C14A C37A 1_555 1_555
O9A C16A 1_555 1_555
C17C C22C 1_555 1_555
C21C C25C 1_555 1_555
C25C C30C 1_555 1_555
C26A C34A 1_555 1_555
C28A C29A 1_555 1_555
C31C C41C 1_555 1_555
C32A C39A 1_555 1_555

#END
