
#######################################################################
#
#                 Cambridge Crystallographic Data Centre
#                                CCDC 
#
#######################################################################
#
# If this CIF has been generated from an entry in the Cambridge 
# Structural Database, then it will include bibliographic, chemical, 
# crystal, experimental, refinement or atomic coordinate data resulting 
# from the CCDC's data processing and validation procedures.
#
#######################################################################

data_ODEJAI
_symmetry_cell_setting           monoclinic
_symmetry_space_group_name_H-M   'P 21/n'
_symmetry_Int_Tables_number      14
_space_group_name_Hall           '-P 2yn'
loop_
_symmetry_equiv_pos_site_id
_symmetry_equiv_pos_as_xyz
1 x,y,z
2 1/2+x,1/2-y,1/2+z
3 -x,-y,-z
4 1/2-x,1/2+y,1/2-z
_cell_length_a                   7.8400(16)
_cell_length_b                   13.884(3)
_cell_length_c                   12.144(2)
_cell_angle_alpha                90
_cell_angle_beta                 91.34(3)
_cell_angle_gamma                90
_cell_volume                     1321.52
loop_
_atom_site_label
_atom_site_type_symbol
_atom_site_fract_x
_atom_site_fract_y
_atom_site_fract_z
I1 I 0.13538(2) 0.503765(12) 0.351014(15)
Zn1 Zn 0.39577(4) 0.56265(2) 0.24520(2)
O1 O 0.3451(2) 0.64092(13) 0.11624(16)
O2 O 0.5749(2) 0.46562(13) 0.26138(16)
O3 O 0.2228(3) 0.52411(14) 0.01605(18)
O4 O 0.4508(3) 0.35021(14) 0.15856(17)
N1 N 0.0156(3) 0.82950(15) -0.16466(18)
N2 N 0.7700(3) 0.16743(17) 0.44553(19)
H1 H 0.8129 0.1246 0.4892
C1 C -0.0232(3) 0.73600(19) -0.1788(2)
H2 H -0.1034 0.7195 -0.2332
C2 C 0.0503(3) 0.66326(19) -0.1165(2)
H3 H 0.0199 0.5994 -0.1290
C3 C 0.1704(3) 0.68674(18) -0.0349(2)
C4 C 0.2099(3) 0.78348(19) -0.0192(2)
H4 H 0.2886 0.8018 0.0353
C5 C 0.1319(4) 0.8517(2) -0.0848(2)
H5 H 0.1604 0.9161 -0.0738
C6 C 0.2538(3) 0.60822(18) 0.0376(2)
C7 C 0.5445(3) 0.37834(18) 0.2339(2)
C8 C 0.6321(3) 0.30392(18) 0.3082(2)
C9 C 0.7367(4) 0.3306(2) 0.3968(2)
H6 H 0.7610 0.3952 0.4097
C10 C 0.8041(4) 0.2607(2) 0.4653(2)
H7 H 0.8733 0.2781 0.5253
C11 C 0.6722(4) 0.1391(2) 0.3607(2)
H8 H 0.6516 0.0739 0.3491
C12 C 0.6015(3) 0.20644(19) 0.2901(2)
H9 H 0.5334 0.1868 0.2305
N1A N 0.5156(3) 0.67050(15) 0.33534(18)
Zn1A Zn -0.10423(4) 0.93735(2) -0.25480(2)
loop_
_geom_bond_atom_site_label_1
_geom_bond_atom_site_label_2
_geom_bond_site_symmetry_1
_geom_bond_site_symmetry_2
I1 Zn1 1_555 1_555
Zn1 O1 1_555 1_555
O1 C6 1_555 1_555
O2 Zn1 1_555 1_555
O3 C6 1_555 1_555
O4 C7 1_555 1_555
N1 C1 1_555 1_555
N2 H1 1_555 1_555
C1 H2 1_555 1_555
C2 C1 1_555 1_555
H3 C2 1_555 1_555
C3 C2 1_555 1_555
C4 C3 1_555 1_555
H4 C4 1_555 1_555
C5 N1 1_555 1_555
H5 C5 1_555 1_555
C6 C3 1_555 1_555
C7 O2 1_555 1_555
C8 C7 1_555 1_555
C9 C8 1_555 1_555
H6 C9 1_555 1_555
C10 N2 1_555 1_555
H7 C10 1_555 1_555
C11 N2 1_555 1_555
H8 C11 1_555 1_555
C12 C8 1_555 1_555
H9 C12 1_555 1_555
N1A Zn1 1_555 1_555
Zn1A N1 1_555 1_555
C4 C5 1_555 1_555
C9 C10 1_555 1_555
C11 C12 1_555 1_555

#END
