
#######################################################################
#
#                 Cambridge Crystallographic Data Centre
#                                CCDC 
#
#######################################################################
#
# If this CIF has been generated from an entry in the Cambridge 
# Structural Database, then it will include bibliographic, chemical, 
# crystal, experimental, refinement or atomic coordinate data resulting 
# from the CCDC's data processing and validation procedures.
#
#######################################################################

data_ODEKOZ
_symmetry_cell_setting           monoclinic
_symmetry_space_group_name_H-M   'C 2/c'
_symmetry_Int_Tables_number      15
_space_group_name_Hall           '-C 2yn'
loop_
_symmetry_equiv_pos_site_id
_symmetry_equiv_pos_as_xyz
1 x,y,z
2 -x,y,1/2-z
3 1/2+x,1/2+y,z
4 1/2-x,1/2+y,1/2-z
5 -x,-y,-z
6 x,-y,1/2+z
7 1/2-x,1/2-y,-z
8 1/2+x,1/2-y,1/2+z
_cell_length_a                   17.998(4)
_cell_length_b                   11.398(2)
_cell_length_c                   19.208(4)
_cell_angle_alpha                90
_cell_angle_beta                 108.57(3)
_cell_angle_gamma                90
_cell_volume                     3735.2
loop_
_atom_site_label
_atom_site_type_symbol
_atom_site_fract_x
_atom_site_fract_y
_atom_site_fract_z
O8 O 0.2370(3) 1.6085(4) -0.0406(3)
H12 H 0.2756 1.6046 -0.0577
H13 H 0.2065 1.6649 -0.0403
N5 N 0.0391(4) 0.6587(4) 0.0602(3)
C15 C -0.0212(3) 0.5728(6) 0.0413(4)
C16 C -0.0778(4) 0.4905(6) 0.0009(4)
C17 C 0.1003(3) 0.6196(6) 0.0341(4)
N5D N -0.0391(4) 0.3413(4) -0.0602(3)
C15D C 0.0212(3) 0.4272(6) -0.0413(4)
C16D C 0.0778(4) 0.5095(6) -0.0009(4)
C17D C -0.1003(3) 0.3804(6) -0.0341(4)
Gd1 Gd 0.5000 1.425507(19) 0.2500
N1 N 0.5000 1.2025(3) 0.2500
Co1 Co 0.7500 1.2500 0.5000
O1 O 0.54008(16) 1.5821(2) 0.34010(16)
O2 O 0.7784(2) 1.0817(2) 0.54044(17)
O3 O 0.66289(13) 1.1725(2) 0.40816(13)
C1 C 0.5575(2) 1.0220(3) 0.30318(19)
H1 H 0.5965 0.9825 0.3392
C2 C 0.5000 0.9611(5) 0.2500
H2 H 0.5000 0.8795 0.2500
O4 O 0.60705(14) 1.3302(2) 0.34369(14)
C3 C 0.55520(18) 1.1434(3) 0.30105(18)
N2 N 0.62436(16) 1.5294(2) 0.25528(16)
O5 O 0.56197(15) 1.3602(2) 0.16249(15)
C4 C 0.61394(18) 1.2214(3) 0.35593(17)
C5 C 0.6645(2) 1.4956(3) 0.2107(2)
C6 C 0.5982(2) 1.6492(3) 0.3477(2)
C7 C 0.6524(2) 1.6138(3) 0.3044(2)
C8 C 0.6238(2) 1.4024(3) 0.1559(2)
O6 O 0.6537(2) 1.3717(3) 0.10887(19)
N3 N 0.6674(2) 1.2578(4) 0.5579(2)
C9 C 0.6674(5) 1.1849(7) 0.6152(4)
H3 H 0.7034 1.1257 0.6353
O7 O 0.6130(2) 1.7383(3) 0.3851(2)
C10 C 0.6081(3) 1.3292(6) 0.5492(3)
H4 H 0.5949 1.3892 0.5146
C11 C 0.7364(3) 1.5439(4) 0.2161(3)
H5 H 0.7637 1.5200 0.1848
C12 C 0.7242(3) 1.6652(5) 0.3129(3)
H6 H 0.7434 1.7238 0.3477
N4 N 0.5690(3) 1.3049(6) 0.5962(4)
H7 H 0.5281 1.3406 0.5994
C13 C 0.7670(3) 1.6282(6) 0.2688(4)
H8 H 0.8162 1.6600 0.2747
C14 C 0.6054(5) 1.2149(8) 0.6369(5)
H9 H 0.5909 1.1788 0.6740
H10 H 0.8179 1.0794 0.5789
H11 H 0.7758 1.0217 0.5134
Co1A Co 0.2500 1.2500 0.0000
O1A O 0.45992(16) 1.5821(2) 0.15990(16)
O2F O 0.7216(2) 1.4183(2) 0.45956(17)
O3A O 0.33711(13) 1.1725(2) 0.09184(13)
O3F O 0.83711(13) 1.3275(2) 0.59184(13)
C1A C 0.4425(2) 1.0220(3) 0.19682(19)
H1A H 0.4035 0.9825 0.1608
O4A O 0.39295(14) 1.3302(2) 0.15631(14)
C3A C 0.44480(18) 1.1434(3) 0.19895(18)
N2A N 0.37564(16) 1.5294(2) 0.24472(16)
O5A O 0.43803(15) 1.3602(2) 0.33751(15)
C4A C 0.38606(18) 1.2214(3) 0.14407(17)
C5A C 0.3355(2) 1.4956(3) 0.2893(2)
C6A C 0.4018(2) 1.6492(3) 0.1523(2)
C7A C 0.3476(2) 1.6138(3) 0.1956(2)
C8A C 0.3762(2) 1.4024(3) 0.3441(2)
O6A O 0.3463(2) 1.3717(3) 0.39113(19)
N3F N 0.8326(2) 1.2422(4) 0.4421(2)
C9F C 0.8326(5) 1.3151(7) 0.3848(4)
H3F H 0.7966 1.3743 0.3647
O7A O 0.3870(2) 1.7383(3) 0.1149(2)
C10F C 0.8919(3) 1.1708(6) 0.4508(3)
H4F H 0.9051 1.1108 0.4854
C11A C 0.2636(3) 1.5439(4) 0.2839(3)
H5A H 0.2363 1.5200 0.3152
C12A C 0.2758(3) 1.6652(5) 0.1871(3)
H6A H 0.2566 1.7238 0.1523
N4F N 0.9310(3) 1.1951(6) 0.4038(4)
H7F H 0.9719 1.1594 0.4006
C13A C 0.2330(3) 1.6282(6) 0.2312(4)
H8A H 0.1838 1.6600 0.2253
C14F C 0.8946(5) 1.2851(8) 0.3631(5)
H9F H 0.9091 1.3212 0.3260
H10F H 0.6821 1.4206 0.4211
H11F H 0.7242 1.4783 0.4866
N6? N 0.0027(5) 0.4806(5) 0.0036(5)
O9? O -0.0872(6) 0.2970(8) -0.0174(4)
loop_
_geom_bond_atom_site_label_1
_geom_bond_atom_site_label_2
_geom_bond_site_symmetry_1
_geom_bond_site_symmetry_2
Gd1 N1 1_555 1_555
N1 C3 1_555 1_555
Co1 O2 1_555 1_555
O1 Gd1 1_555 1_555
O2 H10 1_555 1_555
O3 Co1 1_555 1_555
C1 H1 1_555 1_555
C2 C1 1_555 1_555
H2 C2 1_555 1_555
O4 Gd1 1_555 1_555
C3 C1 1_555 1_555
N2 Gd1 1_555 1_555
O5 Gd1 1_555 1_555
C4 O3 1_555 1_555
C5 N2 1_555 1_555
C6 O1 1_555 1_555
C7 N2 1_555 1_555
C8 O5 1_555 1_555
O6 C8 1_555 1_555
N3 Co1 1_555 1_555
C9 N3 1_555 1_555
H3 C9 1_555 1_555
O7 C6 1_555 1_555
C10 N3 1_555 1_555
H4 C10 1_555 1_555
C11 C5 1_555 1_555
H5 C11 1_555 1_555
C12 C7 1_555 1_555
H6 C12 1_555 1_555
N4 C10 1_555 1_555
H7 N4 1_555 1_555
C13 C11 1_555 1_555
H8 C13 1_555 1_555
O8 H12 1_555 1_555
C14 C9 1_555 1_555
H9 C14 1_555 1_555
N5 C15 1_555 1_555
C15 C16 1_555 1_555
C16 C17D 1_555 1_555
C17 N5 1_555 1_555
H11 O2 1_555 1_555
H13 O8 1_555 1_555
Co1A O3A 1_555 1_555
O1A Gd1 1_555 1_555
O2F Co1 1_555 1_555
O3A C4A 1_555 1_555
O3F Co1 1_555 1_555
C1A C2 1_555 1_555
H1A C1A 1_555 1_555
O4A Gd1 1_555 1_555
C3A N1 1_555 1_555
N2A Gd1 1_555 1_555
O5A Gd1 1_555 1_555
C4A O4A 1_555 1_555
C5A N2A 1_555 1_555
C6A O1A 1_555 1_555
C7A N2A 1_555 1_555
C8A O5A 1_555 1_555
O6A C8A 1_555 1_555
N3F Co1 1_555 1_555
C9F N3F 1_555 1_555
H3F C9F 1_555 1_555
O7A C6A 1_555 1_555
C10F N3F 1_555 1_555
H4F C10F 1_555 1_555
C11A C5A 1_555 1_555
H5A C11A 1_555 1_555
C12A C7A 1_555 1_555
H6A C12A 1_555 1_555
N4F C10F 1_555 1_555
H7F N4F 1_555 1_555
C13A C11A 1_555 1_555
H8A C13A 1_555 1_555
C14F C9F 1_555 1_555
H9F C14F 1_555 1_555
N5D C15D 1_555 1_555
C15D C16D 1_555 1_555
C16D C17 1_555 1_555
C17D N5D 1_555 1_555
H10F O2F 1_555 1_555
H11F O2F 1_555 1_555
O4 C4 1_555 1_555
C3 C4 1_555 1_555
C5 C8 1_555 1_555
C6 C7 1_555 1_555
C12 C13 1_555 1_555
N4 C14 1_555 1_555
C1A C3A 1_555 1_555
C3A C4A 1_555 1_555
C5A C8A 1_555 1_555
C6A C7A 1_555 1_555
C12A C13A 1_555 1_555
N4F C14F 1_555 1_555

#END
