
#######################################################################
#
#                 Cambridge Crystallographic Data Centre
#                                CCDC 
#
#######################################################################
#
# If this CIF has been generated from an entry in the Cambridge 
# Structural Database, then it will include bibliographic, chemical, 
# crystal, experimental, refinement or atomic coordinate data resulting 
# from the CCDC's data processing and validation procedures.
#
#######################################################################

data_ODEKIT
_symmetry_cell_setting           monoclinic
_symmetry_space_group_name_H-M   'C 2/c'
_symmetry_Int_Tables_number      15
_space_group_name_Hall           '-C 2yn'
loop_
_symmetry_equiv_pos_site_id
_symmetry_equiv_pos_as_xyz
1 x,y,z
2 -x,y,1/2-z
3 1/2+x,1/2+y,z
4 1/2-x,1/2+y,1/2-z
5 -x,-y,-z
6 x,-y,1/2+z
7 1/2-x,1/2-y,-z
8 1/2+x,1/2-y,1/2+z
_cell_length_a                   17.888(4)
_cell_length_b                   11.370(2)
_cell_length_c                   19.315(4)
_cell_angle_alpha                90
_cell_angle_beta                 108.71(3)
_cell_angle_gamma                90
_cell_volume                     3720.81
loop_
_atom_site_label
_atom_site_type_symbol
_atom_site_fract_x
_atom_site_fract_y
_atom_site_fract_z
O4 O -0.26461(19) -1.1076(3) -0.0436(2)
H12 H -0.2311 -1.1226 -0.0645
H13 H -0.2724 -1.1763 -0.0304
N5 N 0.0965(5) -0.6225(8) 0.0317(4)
C15 C 0.0764(4) -0.5120(6) 0.0003(4)
N6 N 0.0000 -0.5000 0.0000
C16 C 0.0172(4) -0.4240(6) -0.0415(4)
C17 C 0.0380(3) -0.6544(5) 0.0580(3)
O9 O 0.0871(4) -0.7067(6) 0.0161(3)
N5D N -0.0965(5) -0.3775(8) -0.0317(4)
C15D C -0.0764(4) -0.4880(6) -0.0003(4)
C16D C -0.0172(4) -0.5760(6) 0.0415(4)
C17D C -0.0380(3) -0.3456(5) -0.0580(3)
O9D O -0.0871(4) -0.2933(6) -0.0161(3)
Dy1 Dy 0.0000 -0.923458(14) 0.2500
Co1 Co 0.2500 -0.7500 0.5000
N1 N 0.0000 -0.7028(3) 0.2500
O1 O 0.27840(16) -0.58098(17) 0.53989(13)
O2 O 0.10698(10) -0.83079(16) 0.34299(10)
O3 O 0.16248(10) -0.67347(17) 0.40867(10)
C1 C 0.05524(13) -0.6437(2) 0.30130(13)
C2 C 0.05724(15) -0.5224(2) 0.30317(14)
H1 H 0.0962 -0.4828 0.3394
C3 C 0.11350(13) -0.7221(2) 0.35582(13)
N2 N -0.12345(12) -1.02649(19) 0.24463(12)
C4 C 0.0000 -0.4609(4) 0.2500
H2 H 0.0000 -0.3791 0.2500
C5 C -0.16375(15) -0.9926(2) 0.28883(16)
C6 C -0.15186(16) -1.1112(3) 0.19565(16)
C7 C 0.3915(2) -0.6698(4) 0.4499(2)
H3 H 0.4049 -0.6090 0.4839
N3 N 0.33309(15) -0.7415(2) 0.44230(15)
C8 C 0.3940(4) -0.7850(6) 0.3626(4)
H4 H 0.4081 -0.8213 0.3255
C9 C -0.2364(2) -1.0416(3) 0.2832(2)
H5 H -0.2640 -1.0180 0.3142
C10 C -0.2241(2) -1.1625(3) 0.1868(2)
H6 H -0.2436 -1.2207 0.1518
C11 C -0.2668(2) -1.1261(4) 0.2306(3)
H7 H -0.3162 -1.1585 0.2248
O5 O -0.03906(12) -1.07848(16) 0.16091(12)
C12 C -0.09809(16) -1.1452(3) 0.15229(16)
O6 O -0.11295(15) -1.2342(2) 0.11443(15)
C13 C -0.12312(17) -0.9000(2) 0.34331(16)
O7 O -0.06051(11) -0.85756(18) 0.33680(10)
O8 O -0.15225(15) -0.8696(2) 0.39046(13)
C14 C 0.3331(4) -0.8148(5) 0.3858(3)
H8 H 0.2970 -0.8748 0.3667
N4 N 0.4300(2) -0.6941(4) 0.4028(3)
H9 H 0.4707 -0.6577 0.3991
H10 H 0.2662 -0.5168 0.5191
H11 H 0.3183 -0.5785 0.5754
Co1A Co -0.2500 -0.7500 0.0000
O1F O 0.22160(16) -0.91902(17) 0.46011(13)
O2A O -0.10698(10) -0.83079(16) 0.15701(10)
O3A O -0.16248(10) -0.67347(17) 0.09133(10)
O3F O 0.33752(10) -0.82653(17) 0.59133(10)
C1A C -0.05524(13) -0.6437(2) 0.19870(13)
C2A C -0.05724(15) -0.5224(2) 0.19683(14)
H1A H -0.0962 -0.4828 0.1606
C3A C -0.11350(13) -0.7221(2) 0.14418(13)
N2A N 0.12345(12) -1.02649(19) 0.25537(12)
C5A C 0.16375(15) -0.9926(2) 0.21117(16)
C6A C 0.15186(16) -1.1112(3) 0.30435(16)
C7F C 0.1085(2) -0.8302(4) 0.5501(2)
H3F H 0.0951 -0.8910 0.5161
N3F N 0.16691(15) -0.7585(2) 0.55770(15)
C8F C 0.1060(4) -0.7150(6) 0.6374(4)
H4F H 0.0919 -0.6787 0.6745
C9A C 0.2364(2) -1.0416(3) 0.2168(2)
H5A H 0.2640 -1.0180 0.1858
C10A C 0.2241(2) -1.1625(3) 0.3132(2)
H6A H 0.2436 -1.2207 0.3482
C11A C 0.2668(2) -1.1261(4) 0.2694(3)
H7A H 0.3162 -1.1585 0.2752
O5A O 0.03906(12) -1.07848(16) 0.33909(12)
C12A C 0.09809(16) -1.1452(3) 0.34771(16)
O6A O 0.11295(15) -1.2342(2) 0.38557(15)
C13A C 0.12312(17) -0.9000(2) 0.15669(16)
O7A O 0.06051(11) -0.85756(18) 0.16320(10)
O8A O 0.15225(15) -0.8696(2) 0.10954(13)
C14F C 0.1669(4) -0.6852(5) 0.6142(3)
H8F H 0.2030 -0.6252 0.6333
N4F N 0.0700(2) -0.8059(4) 0.5972(3)
H9F H 0.0293 -0.8423 0.6009
H10F H 0.2338 -0.9832 0.4809
H11F H 0.1817 -0.9215 0.4246
loop_
_geom_bond_atom_site_label_1
_geom_bond_atom_site_label_2
_geom_bond_site_symmetry_1
_geom_bond_site_symmetry_2
Dy1 N1 1_555 1_555
Co1 O1 1_555 1_555
N1 C1 1_555 1_555
O1 H10 1_555 1_555
O2 Dy1 1_555 1_555
O3 Co1 1_555 1_555
C1 C2 1_555 1_555
C2 H1 1_555 1_555
C3 O2 1_555 1_555
N2 Dy1 1_555 1_555
C4 C2 1_555 1_555
H2 C4 1_555 1_555
C5 N2 1_555 1_555
C6 N2 1_555 1_555
C7 H3 1_555 1_555
N3 Co1 1_555 1_555
C8 H4 1_555 1_555
C9 C5 1_555 1_555
H5 C9 1_555 1_555
C10 C6 1_555 1_555
H6 C10 1_555 1_555
C11 C9 1_555 1_555
H7 C11 1_555 1_555
O4 H12 1_555 1_555
O5 Dy1 1_555 1_555
C12 C6 1_555 1_555
O6 C12 1_555 1_555
C13 C5 1_555 1_555
O7 Dy1 1_555 1_555
O8 C13 1_555 1_555
C14 N3 1_555 1_555
H8 C14 1_555 1_555
N4 C7 1_555 1_555
H9 N4 1_555 1_555
N5 C15 1_555 1_555
C15 N6 1_555 1_555
N6 C16 1_555 1_555
C16 C15 1_555 1_555
C17 N5 1_555 1_555
O9 N5 1_555 1_555
H11 O1 1_555 1_555
H13 O4 1_555 1_555
Co1A O3A 1_555 1_555
O1F Co1 1_555 1_555
O2A Dy1 1_555 1_555
O3A C3A 1_555 1_555
O3F Co1 1_555 1_555
C1A N1 1_555 1_555
C2A C4 1_555 1_555
H1A C2A 1_555 1_555
C3A O2A 1_555 1_555
N2A Dy1 1_555 1_555
C5A N2A 1_555 1_555
C6A N2A 1_555 1_555
C7F H3F 1_555 1_555
N3F Co1 1_555 1_555
C8F H4F 1_555 1_555
C9A C5A 1_555 1_555
H5A C9A 1_555 1_555
C10A C6A 1_555 1_555
H6A C10A 1_555 1_555
C11A C9A 1_555 1_555
H7A C11A 1_555 1_555
O5A Dy1 1_555 1_555
C12A C6A 1_555 1_555
O6A C12A 1_555 1_555
C13A C5A 1_555 1_555
O7A Dy1 1_555 1_555
O8A C13A 1_555 1_555
C14F N3F 1_555 1_555
H8F C14F 1_555 1_555
N4F C7F 1_555 1_555
H9F N4F 1_555 1_555
N5D C15D 1_555 1_555
C15D N6 1_555 1_555
C16D N6 1_555 1_555
C17D C16 1_555 1_555
O9D N5D 1_555 1_555
H10F O1F 1_555 1_555
H11F O1F 1_555 1_555
O3 C3 1_555 1_555
C1 C3 1_555 1_555
C7 N3 1_555 1_555
C8 C14 1_555 1_555
C8 N4 1_555 1_555
C10 C11 1_555 1_555
O5 C12 1_555 1_555
C13 O7 1_555 1_555
C17 O9 1_555 1_555
C17 C16D 1_555 1_555
C1A C2A 1_555 1_555
C1A C3A 1_555 1_555
C7F N3F 1_555 1_555
C8F C14F 1_555 1_555
C8F N4F 1_555 1_555
C10A C11A 1_555 1_555
O5A C12A 1_555 1_555
C13A O7A 1_555 1_555
N5D C17D 1_555 1_555
C15D C16D 1_555 1_555
C17D O9D 1_555 1_555

#END
