
#######################################################################
#
#                 Cambridge Crystallographic Data Centre
#                                CCDC 
#
#######################################################################
#
# If this CIF has been generated from an entry in the Cambridge 
# Structural Database, then it will include bibliographic, chemical, 
# crystal, experimental, refinement or atomic coordinate data resulting 
# from the CCDC's data processing and validation procedures.
#
#######################################################################

data_ODEKEP
_symmetry_cell_setting           monoclinic
_symmetry_space_group_name_H-M   'P 21/c'
_symmetry_Int_Tables_number      14
_space_group_name_Hall           '-P 2ybc'
loop_
_symmetry_equiv_pos_site_id
_symmetry_equiv_pos_as_xyz
1 x,y,z
2 -x,1/2+y,1/2-z
3 -x,-y,-z
4 x,1/2-y,1/2+z
_cell_length_a                   13.0899(2)
_cell_length_b                   11.8677(2)
_cell_length_c                   13.3587(3)
_cell_angle_alpha                90
_cell_angle_beta                 108.643(1)
_cell_angle_gamma                90
_cell_volume                     1966.34
loop_
_atom_site_label
_atom_site_type_symbol
_atom_site_fract_x
_atom_site_fract_y
_atom_site_fract_z
C1 C 0.2192(2) 1.1662(2) 0.7083(2)
C2 C 0.3214(3) 1.2139(3) 0.7506(3)
H1 H 0.3836 1.1707 0.7640
C3 C 0.3263(3) 1.3282(3) 0.7720(3)
H2 H 0.3931 1.3622 0.8022
C4 C 0.2323(3) 1.3938(3) 0.7488(3)
H3 H 0.2387 1.4708 0.7622
C5 C 0.1316(3) 1.3482(3) 0.7074(3)
H4 H 0.0698 1.3924 0.6920
C6 C 0.1258(3) 1.2320(3) 0.6892(2)
C7 C 0.0815(2) 1.0566(3) 0.6499(2)
C8 C 0.0252(2) 0.9507(2) 0.6216(2)
C9 C 0.0070(3) 0.7709(3) 0.6035(2)
C10 C 0.0206(3) 0.6544(3) 0.6029(3)
H5 H 0.0887 0.6218 0.6238
C11 C -0.0715(3) 0.5900(3) 0.5702(3)
H6 H -0.0649 0.5120 0.5694
C12 C -0.1742(3) 0.6374(3) 0.5383(3)
H7 H -0.2340 0.5903 0.5173
C13 C -0.1893(3) 0.7520(3) 0.5372(3)
H8 H -0.2578 0.7840 0.5155
C14 C -0.0964(2) 0.8177(3) 0.5703(2)
C15 C 0.4808(2) 0.9381(2) 0.8210(2)
C16 C 0.4723(2) 0.8547(3) 0.9036(2)
H9 H 0.4792 0.8955 0.9684
H10 H 0.5326 0.8029 0.9181
C17 C 0.3682(2) 0.7863(2) 0.8739(2)
C18 C 0.3603(2) 0.7206(3) 0.9697(2)
H11 H 0.4143 0.6615 0.9863
H12 H 0.3771 0.7711 1.0299
C19 C 0.2508(2) 0.6679(3) 0.9543(2)
C20 C 0.3634(2) 0.7057(2) 0.7802(2)
Co1 Co 0.25195(3) 0.89469(3) 0.67575(3)
N1 N 0.1884(2) 1.0555(2) 0.68151(19)
N2 N 0.0401(2) 1.1596(2) 0.6517(2)
H13 H -0.0272 1.1770 0.6330
N3 N 0.0825(2) 0.8572(2) 0.6349(2)
N4 N -0.0824(2) 0.9331(2) 0.5828(2)
H14 H -0.1321 0.9835 0.5688
O1 O 0.41662(17) 0.94362(19) 0.73143(17)
O2 O 0.56330(18) 1.0047(2) 0.85393(18)
H15 H 0.5691 1.0457 0.7970
O3 O 0.28113(17) 0.86601(17) 0.83962(16)
H16 H 0.2223 0.8260 0.8378
O4 O 0.24218(19) 0.59126(17) 1.01607(17)
O5 O 0.17242(19) 0.7025(3) 0.8795(2)
O6 O 0.30131(18) 0.73050(17) 0.68989(16)
O7 O 0.4227(2) 0.62123(19) 0.80062(19)
Co1C Co 0.25195(3) 0.60531(3) 1.17575(3)
O4C O 0.24218(19) 0.90874(17) 0.51607(17)
O8 O 0.5936(8) 0.5830(8) 0.9870(8)
H17 H 0.6220 0.5196 0.9824
H18 H 0.5414 0.5952 0.9308
loop_
_geom_bond_atom_site_label_1
_geom_bond_atom_site_label_2
_geom_bond_site_symmetry_1
_geom_bond_site_symmetry_2
C1 C2 1_555 1_555
C2 H1 1_555 1_555
C3 C2 1_555 1_555
H2 C3 1_555 1_555
C4 C3 1_555 1_555
H3 C4 1_555 1_555
C5 C4 1_555 1_555
H4 C5 1_555 1_555
C6 C1 1_555 1_555
C7 C8 1_555 1_555
C8 N3 1_555 1_555
C9 C10 1_555 1_555
C10 H5 1_555 1_555
C11 C10 1_555 1_555
H6 C11 1_555 1_555
C12 C11 1_555 1_555
H7 C12 1_555 1_555
C13 C12 1_555 1_555
H8 C13 1_555 1_555
C14 C9 1_555 1_555
C15 C16 1_555 1_555
C16 H9 1_555 1_555
H10 C16 1_555 1_555
C17 C16 1_555 1_555
C18 C17 1_555 1_555
H11 C18 1_555 1_555
H12 C18 1_555 1_555
C19 C18 1_555 1_555
C20 C17 1_555 1_555
Co1 N1 1_555 1_555
N1 C1 1_555 1_555
N2 C6 1_555 1_555
H13 N2 1_555 1_555
N3 C9 1_555 1_555
N4 C8 1_555 1_555
H14 N4 1_555 1_555
O1 C15 1_555 1_555
O2 C15 1_555 1_555
H15 O2 1_555 1_555
O3 C17 1_555 1_555
H16 O3 1_555 1_555
O4 C19 1_555 1_555
O5 C19 1_555 1_555
O6 C20 1_555 1_555
O7 C20 1_555 1_555
O8 H17 1_555 1_555
H18 O8 1_555 1_555
Co1C O4 1_555 1_555
O4C Co1 1_555 1_555
C5 C6 1_555 1_555
C7 N1 1_555 1_555
C7 N2 1_555 1_555
C13 C14 1_555 1_555
C14 N4 1_555 1_555
Co1 N3 1_555 1_555
Co1 O1 1_555 1_555
Co1 O3 1_555 1_555
Co1 O6 1_555 1_555

#END
