
#######################################################################
#
#                 Cambridge Crystallographic Data Centre
#                                CCDC 
#
#######################################################################
#
# If this CIF has been generated from an entry in the Cambridge 
# Structural Database, then it will include bibliographic, chemical, 
# crystal, experimental, refinement or atomic coordinate data resulting 
# from the CCDC's data processing and validation procedures.
#
#######################################################################

data_ODEKUF
_symmetry_cell_setting           triclinic
_symmetry_space_group_name_H-M   'P -1'
_symmetry_Int_Tables_number      2
_space_group_name_Hall           '-P 1'
loop_
_symmetry_equiv_pos_site_id
_symmetry_equiv_pos_as_xyz
1 x,y,z
2 -x,-y,-z
_cell_length_a                   10.011(2)
_cell_length_b                   10.525(2)
_cell_length_c                   12.987(3)
_cell_angle_alpha                77.80(3)
_cell_angle_beta                 86.36(3)
_cell_angle_gamma                62.79(3)
_cell_volume                     1188.61
loop_
_atom_site_label
_atom_site_type_symbol
_atom_site_fract_x
_atom_site_fract_y
_atom_site_fract_z
La1 La 0.171822(9) 0.068470(9) 0.430703(6)
O1 O 0.09880(12) -0.09692(12) 0.57437(9)
O2 O 0.17325(14) 0.29403(14) 0.31686(10)
O3 O 0.18228(14) -0.13562(13) 0.34726(9)
C1 C 0.34535(17) -0.28951(17) 0.59092(12)
O4 O 0.44970(13) -0.01826(13) 0.37892(9)
N1 N 0.38294(14) -0.19366(14) 0.52788(10)
N2 N 0.15420(15) 0.10612(15) 0.22107(10)
O5 O 0.00419(15) 0.24311(16) 0.54806(12)
O6 O 0.13172(15) -0.31185(15) 0.66624(11)
O7 O 0.10695(17) 0.46544(15) 0.16997(12)
C2 C 0.18102(17) -0.23167(18) 0.61401(12)
C3 C 0.52797(17) -0.23584(17) 0.50647(12)
C4 C 0.13850(18) 0.34025(18) 0.21984(14)
O8 O 0.1565(2) -0.22709(16) 0.21422(12)
C5 C 0.1117(2) 0.2635(2) 0.05197(14)
H1 H 0.0972 0.3533 0.0115
C6 C 0.64018(19) -0.37426(19) 0.54607(14)
H2 H 0.7402 -0.3994 0.5312
C7 C 0.4507(2) -0.43135(19) 0.63122(14)
H3 H 0.4214 -0.4969 0.6732
C8 C 0.16596(19) -0.13149(19) 0.25056(14)
C9 C 0.13516(18) 0.23308(19) 0.16073(13)
C10 C 0.15174(19) 0.00445(19) 0.17576(13)
C11 C 0.1314(2) 0.0264(2) 0.06732(14)
H4 H 0.1321 -0.0467 0.0373
C12 C 0.6003(2) -0.4742(2) 0.60811(16)
H5 H 0.6729 -0.5692 0.6341
C13 C 0.1103(3) 0.1577(3) 0.00513(15)
H6 H 0.0953 0.1751 -0.0675
O11 O 0.68650(13) -0.12724(14) 0.44068(9)
C20 C 0.55849(17) -0.11921(17) 0.43680(11)
H15 H 0.0337 0.2991 0.5671
H18 H -0.0593 0.2269 0.5883
La1A La -0.171822(9) -0.068470(9) 0.569297(6)
La1A_2 La 0.828178(9) -0.068470(9) 0.569297(6)
La1_2 La -0.828178(9) 0.068470(9) 0.430703(6)
O1A O -0.09880(12) 0.09692(12) 0.42563(9)
O2A O -0.17325(14) -0.29403(14) 0.68314(10)
O3A O -0.18228(14) 0.13562(13) 0.65274(9)
C1A C -0.34535(17) 0.28951(17) 0.40908(12)
O4A O -0.44970(13) 0.01826(13) 0.62108(9)
N1A N -0.38294(14) 0.19366(14) 0.47212(10)
N2A N -0.15420(15) -0.10612(15) 0.77893(10)
O5A O -0.00419(15) -0.24311(16) 0.45194(12)
O6A O -0.13172(15) 0.31185(15) 0.33376(11)
O7A O -0.10695(17) -0.46544(15) 0.83003(12)
C2A C -0.18102(17) 0.23167(18) 0.38599(12)
C3A C -0.52797(17) 0.23584(17) 0.49353(12)
C4A C -0.13850(18) -0.34025(18) 0.78016(14)
O8A O -0.1565(2) 0.22709(16) 0.78578(12)
C5A C -0.1117(2) -0.2635(2) 0.94803(14)
H1A H -0.0972 -0.3533 0.9885
C6A C -0.64018(19) 0.37426(19) 0.45393(14)
H2A H -0.7402 0.3994 0.4688
C7A C -0.4507(2) 0.43135(19) 0.36878(14)
H3A H -0.4214 0.4969 0.3268
C8A C -0.16596(19) 0.13149(19) 0.74944(14)
C9A C -0.13516(18) -0.23308(19) 0.83927(13)
C10A C -0.15174(19) -0.00445(19) 0.82424(13)
C11A C -0.1314(2) -0.0264(2) 0.93268(14)
H4A H -0.1321 0.0467 0.9627
C12A C -0.6003(2) 0.4742(2) 0.39189(16)
H5A H -0.6729 0.5692 0.3659
C13A C -0.1103(3) -0.1577(3) 0.99487(15)
H6A H -0.0953 -0.1751 1.0675
O11A O -0.68650(13) 0.12724(14) 0.55932(9)
O11A_2 O 0.31350(13) 0.12724(14) 0.55932(9)
O11_2 O -0.31350(13) -0.12724(14) 0.44068(9)
C20A C -0.55849(17) 0.11921(17) 0.56320(11)
H15A H -0.0337 -0.2991 0.4329
H18A H 0.0593 -0.2269 0.4117
Co1 Co 0.5000 0.5000 0.0000
N3 N 0.5867(2) 0.13020(19) 0.24019(12)
H7 H 0.5529 0.0797 0.2846
N4 N 0.59028(17) 0.31020(17) 0.12163(11)
O9 O 0.28582(15) 0.59146(15) 0.07441(11)
N5 N 0.58302(18) 0.61482(18) 0.07475(12)
C14 C 0.5062(2) 0.2639(2) 0.18507(15)
H8 H 0.4031 0.3184 0.1904
C15 C 0.7338(2) 0.1989(2) 0.14018(14)
H9 H 0.8187 0.1999 0.1074
C16 C 0.7004(2) 0.5580(2) 0.13996(15)
H10 H 0.7705 0.4600 0.1533
N6 N 0.7064(2) 0.6586(2) 0.18470(15)
H11 H 0.7738 0.6439 0.2299
C17 C 0.7322(3) 0.0872(2) 0.21390(16)
H12 H 0.8143 -0.0013 0.2410
C18 C 0.5122(3) 0.7599(3) 0.0778(2)
H13 H 0.4252 0.8294 0.0390
C19 C 0.5879(3) 0.7872(3) 0.1460(3)
H14 H 0.5630 0.8768 0.1628
H16 H 0.2266 0.5536 0.0919
H17 H 0.2472 0.6532 0.1142
N3A N 0.4133(2) 0.86980(19) -0.24019(12)
H7A H 0.4471 0.9203 -0.2846
N4A N 0.40972(17) 0.68980(17) -0.12163(11)
O9A O 0.71418(15) 0.40854(15) -0.07441(11)
N5A N 0.41698(18) 0.38518(18) -0.07475(12)
C14A C 0.4938(2) 0.7361(2) -0.18507(15)
H8A H 0.5969 0.6816 -0.1904
C15A C 0.2662(2) 0.8011(2) -0.14018(14)
H9A H 0.1813 0.8001 -0.1074
C16A C 0.2996(2) 0.4420(2) -0.13996(15)
H10A H 0.2295 0.5400 -0.1533
N6A N 0.2936(2) 0.3414(2) -0.18470(15)
H11A H 0.2262 0.3561 -0.2299
C17A C 0.2678(3) 0.9128(2) -0.21390(16)
H12A H 0.1857 1.0013 -0.2410
C18A C 0.4878(3) 0.2401(3) -0.0778(2)
H13A H 0.5748 0.1706 -0.0390
C19A C 0.4121(3) 0.2128(3) -0.1460(3)
H14A H 0.4370 0.1232 -0.1628
H16A H 0.7734 0.4464 -0.0919
H17A H 0.7528 0.3468 -0.1142
O10 O 0.0647(2) 0.4146(2) 0.65924(16)
H19 H 0.0394 0.4700 0.5972
H20 H -0.0157 0.4541 0.6928
loop_
_geom_bond_atom_site_label_1
_geom_bond_atom_site_label_2
_geom_bond_site_symmetry_1
_geom_bond_site_symmetry_2
La1 O1 1_555 1_555
O1 C2 1_555 1_555
O2 La1 1_555 1_555
O3 La1 1_555 1_555
C1 N1 1_555 1_555
O4 La1 1_555 1_555
N1 La1 1_555 1_555
N2 La1 1_555 1_555
O5 La1 1_555 1_555
O6 C2 1_555 1_555
O7 C4 1_555 1_555
C2 C1 1_555 1_555
C3 N1 1_555 1_555
C4 O2 1_555 1_555
O8 C8 1_555 1_555
C5 H1 1_555 1_555
C6 C3 1_555 1_555
H2 C6 1_555 1_555
C7 C1 1_555 1_555
H3 C7 1_555 1_555
C8 O3 1_555 1_555
C9 N2 1_555 1_555
C10 N2 1_555 1_555
C11 C10 1_555 1_555
H4 C11 1_555 1_555
C12 C6 1_555 1_555
H5 C12 1_555 1_555
C13 C5 1_555 1_555
H6 C13 1_555 1_555
Co1 N4 1_555 1_555
N3 H7 1_555 1_555
N4 C14 1_555 1_555
O9 Co1 1_555 1_555
N5 Co1 1_555 1_555
C14 N3 1_555 1_555
H8 C14 1_555 1_555
C15 N4 1_555 1_555
H9 C15 1_555 1_555
C16 N5 1_555 1_555
H10 C16 1_555 1_555
N6 C16 1_555 1_555
H11 N6 1_555 1_555
C17 N3 1_555 1_555
H12 C17 1_555 1_555
C18 N5 1_555 1_555
H13 C18 1_555 1_555
C19 N6 1_555 1_555
H14 C19 1_555 1_555
O10 H19 1_555 1_555
O11 C20 1_555 1_555
C20 O4 1_555 1_555
H15 O5 1_555 1_555
H16 O9 1_555 1_555
H17 O9 1_555 1_555
H18 O5 1_555 1_555
H20 O10 1_555 1_555
La1A O1 1_555 1_555
La1A_2 O11 1_555 1_555
La1_2 O11A 1_555 1_555
O1A La1 1_555 1_555
O2A La1A 1_555 1_555
O3A La1A 1_555 1_555
C1A N1A 1_555 1_555
O4A La1A 1_555 1_555
N1A La1A 1_555 1_555
N2A La1A 1_555 1_555
O5A La1A 1_555 1_555
O6A La1 1_555 1_555
O7A C4A 1_555 1_555
C2A O1A 1_555 1_555
C3A N1A 1_555 1_555
C4A O2A 1_555 1_555
O8A C8A 1_555 1_555
C5A H1A 1_555 1_555
C6A C3A 1_555 1_555
H2A C6A 1_555 1_555
C7A C1A 1_555 1_555
H3A C7A 1_555 1_555
C8A O3A 1_555 1_555
C9A N2A 1_555 1_555
C10A N2A 1_555 1_555
C11A C10A 1_555 1_555
H4A C11A 1_555 1_555
C12A C6A 1_555 1_555
H5A C12A 1_555 1_555
C13A C5A 1_555 1_555
H6A C13A 1_555 1_555
N3A H7A 1_555 1_555
N4A Co1 1_555 1_555
O9A Co1 1_555 1_555
N5A Co1 1_555 1_555
C14A N3A 1_555 1_555
H8A C14A 1_555 1_555
C15A N4A 1_555 1_555
H9A C15A 1_555 1_555
C16A N5A 1_555 1_555
H10A C16A 1_555 1_555
N6A C16A 1_555 1_555
H11A N6A 1_555 1_555
C17A N3A 1_555 1_555
H12A C17A 1_555 1_555
C18A N5A 1_555 1_555
H13A C18A 1_555 1_555
C19A N6A 1_555 1_555
H14A C19A 1_555 1_555
O11A C20A 1_555 1_555
O11A_2 La1 1_555 1_555
O11_2 La1A 1_555 1_555
C20A O4A 1_555 1_555
H15A O5A 1_555 1_555
H16A O9A 1_555 1_555
H17A O9A 1_555 1_555
H18A O5A 1_555 1_555
O6 La1A 1_555 1_555
C3 C20 1_555 1_555
C4 C9 1_555 1_555
C5 C9 1_555 1_555
C7 C12 1_555 1_555
C8 C10 1_555 1_555
C11 C13 1_555 1_555
C15 C17 1_555 1_555
C18 C19 1_555 1_555
La1A O1A 1_555 1_555
C1A C2A 1_555 1_555
O6A C2A 1_555 1_555
C3A C20A 1_555 1_555
C4A C9A 1_555 1_555
C5A C9A 1_555 1_555
C7A C12A 1_555 1_555
C8A C10A 1_555 1_555
C11A C13A 1_555 1_555
N4A C14A 1_555 1_555
C15A C17A 1_555 1_555
C18A C19A 1_555 1_555

#END
