
#######################################################################
#
#                 Cambridge Crystallographic Data Centre
#                                CCDC 
#
#######################################################################
#
# If this CIF has been generated from an entry in the Cambridge 
# Structural Database, then it will include bibliographic, chemical, 
# crystal, experimental, refinement or atomic coordinate data resulting 
# from the CCDC's data processing and validation procedures.
#
#######################################################################

data_ODELOA
_symmetry_cell_setting           monoclinic
_symmetry_space_group_name_H-M   'C 2/c'
_symmetry_Int_Tables_number      15
_space_group_name_Hall           '-C 2yn'
loop_
_symmetry_equiv_pos_site_id
_symmetry_equiv_pos_as_xyz
1 x,y,z
2 -x,y,1/2-z
3 1/2+x,1/2+y,z
4 1/2-x,1/2+y,1/2-z
5 -x,-y,-z
6 x,-y,1/2+z
7 1/2-x,1/2-y,-z
8 1/2+x,1/2-y,1/2+z
_cell_length_a                   17.889(4)
_cell_length_b                   11.244(2)
_cell_length_c                   19.702(4)
_cell_angle_alpha                90
_cell_angle_beta                 108.77(3)
_cell_angle_gamma                90
_cell_volume                     3752.18
loop_
_atom_site_label
_atom_site_type_symbol
_atom_site_fract_x
_atom_site_fract_y
_atom_site_fract_z
O8 O 0.2591(2) 1.1134(4) 0.5420(2)
H12 H 0.2280 1.1149 0.5684
H13 H 0.2884 1.1698 0.5600
N5 N 0.0000 0.5000 0.5000
N6 N -0.0423(4) 0.6546(6) 0.4414(3)
C15 C 0.0140(5) 0.5720(6) 0.4573(4)
C16 C -0.0766(5) 0.5138(7) 0.5022(4)
C17 C -0.0981(6) 0.6202(9) 0.4697(5)
C15D C -0.0140(5) 0.4280(6) 0.5427(4)
C16D C 0.0766(5) 0.4862(7) 0.4978(4)
Dy1 Dy 0.0000 0.922932(14) 0.2500
O1 O -0.03965(13) 1.08035(18) 0.16306(13)
Mn1 Mn -0.2500 0.7500 0.0000
N1 N 0.0000 0.7002(3) 0.2500
C1 C -0.05469(13) 0.6401(2) 0.19931(12)
O2 O -0.10699(11) 0.82918(17) 0.15864(10)
O3 O -0.16024(11) 0.67088(19) 0.09279(10)
C2 C -0.05668(16) 0.5175(2) 0.19714(14)
H1 H -0.0951 0.4774 0.1611
C3 C -0.11268(14) 0.7197(2) 0.14531(13)
N2 N -0.12324(12) 1.0275(2) 0.24555(12)
O4 O -0.2832(2) 0.5727(2) -0.04107(16)
O5 O -0.06010(12) 0.8564(2) 0.33529(11)
C4 C 0.0000 0.4556(4) 0.2500
H2 H 0.0000 0.3729 0.2500
C5 C -0.16278(16) 0.9940(3) 0.28949(16)
C6 C -0.12145(18) 0.8996(3) 0.34294(17)
O6 O -0.15066(16) 0.8699(2) 0.38908(14)
C7 C -0.09861(17) 1.1470(3) 0.15468(16)
C8 C -0.15157(17) 1.1131(3) 0.19773(17)
O7 O -0.11426(16) 1.2357(2) 0.11660(16)
N3 N -0.16366(19) 0.7544(3) -0.06008(19)
C9 C -0.2346(2) 1.0442(4) 0.2856(2)
H3 H -0.2614 1.0206 0.3167
C10 C -0.2234(2) 1.1664(4) 0.1903(2)
H4 H -0.2433 1.2255 0.1562
N4 N -0.0668(3) 0.8004(5) -0.1004(3)
H5 H -0.0257 0.8360 -0.1040
C11 C -0.1059(3) 0.8259(5) -0.0557(3)
H6 H -0.0929 0.8896 -0.0239
C12 C -0.1050(4) 0.7062(7) -0.1396(4)
H7 H -0.0919 0.6685 -0.1763
C13 C -0.2651(2) 1.1297(4) 0.2347(3)
H8 H -0.3140 1.1632 0.2301
C14 C -0.1656(4) 0.6773(5) -0.1157(3)
H9 H -0.2021 0.6166 -0.1333
H10 H -0.2739 0.5093 -0.0187
H11 H -0.3259 0.5714 -0.0778
O1A O 0.03965(13) 1.08035(18) 0.33694(13)
C1A C 0.05469(13) 0.6401(2) 0.30069(12)
O2A O 0.10699(11) 0.82918(17) 0.34136(10)
O3F O -0.33976(11) 0.82912(19) -0.09279(10)
C2A C 0.05668(16) 0.5175(2) 0.30286(14)
N2A N 0.12324(12) 1.0275(2) 0.25445(12)
O4F O -0.2168(2) 0.9273(2) 0.04107(16)
O5A O 0.06010(12) 0.8564(2) 0.16471(11)
N3F N -0.33634(19) 0.7456(3) 0.06008(19)
O9? O 0.0875(5) 0.2953(8) 0.5151(4)
loop_
_geom_bond_atom_site_label_1
_geom_bond_atom_site_label_2
_geom_bond_site_symmetry_1
_geom_bond_site_symmetry_2
Dy1 O1 1_555 1_555
O1 C7 1_555 1_555
Mn1 O3 1_555 1_555
N1 Dy1 1_555 1_555
C1 N1 1_555 1_555
O2 Dy1 1_555 1_555
O3 C3 1_555 1_555
C2 C1 1_555 1_555
H1 C2 1_555 1_555
C3 C1 1_555 1_555
N2 Dy1 1_555 1_555
O4 Mn1 1_555 1_555
O5 Dy1 1_555 1_555
C4 C2 1_555 1_555
H2 C4 1_555 1_555
C5 N2 1_555 1_555
C6 O5 1_555 1_555
O6 C6 1_555 1_555
C7 C8 1_555 1_555
C8 N2 1_555 1_555
O7 C7 1_555 1_555
N3 Mn1 1_555 1_555
C9 C5 1_555 1_555
H3 C9 1_555 1_555
C10 C8 1_555 1_555
H4 C10 1_555 1_555
N4 H5 1_555 1_555
C11 N3 1_555 1_555
H6 C11 1_555 1_555
C12 N4 1_555 1_555
H7 C12 1_555 1_555
C13 C9 1_555 1_555
H8 C13 1_555 1_555
C14 N3 1_555 1_555
H9 C14 1_555 1_555
O8 H12 1_555 1_555
N5 C15 1_555 1_555
N6 C15 1_555 1_555
C15 C16D 1_555 1_555
C16 N5 1_555 1_555
C17 N6 1_555 1_555
H10 O4 1_555 1_555
H11 O4 1_555 1_555
H13 O8 1_555 1_555
O1A Dy1 1_555 1_555
C1A N1 1_555 1_555
O2A Dy1 1_555 1_555
O3F Mn1 1_555 1_555
C2A C4 1_555 1_555
N2A Dy1 1_555 1_555
O4F Mn1 1_555 1_555
O5A Dy1 1_555 1_555
N3F Mn1 1_555 1_555
C15D N5 1_555 1_555
C16D N5 1_555 1_555
O2 C3 1_555 1_555
C5 C6 1_555 1_555
C10 C13 1_555 1_555
N4 C11 1_555 1_555
C12 C14 1_555 1_555
C16 C17 1_555 1_555
C16 C15D 1_555 1_555
C1A C2A 1_555 1_555

#END
