
#######################################################################
#
#                 Cambridge Crystallographic Data Centre
#                                CCDC 
#
#######################################################################
#
# If this CIF has been generated from an entry in the Cambridge 
# Structural Database, then it will include bibliographic, chemical, 
# crystal, experimental, refinement or atomic coordinate data resulting 
# from the CCDC's data processing and validation procedures.
#
#######################################################################

data_ODELUG
_symmetry_cell_setting           monoclinic
_symmetry_space_group_name_H-M   'C 2/c'
_symmetry_Int_Tables_number      15
_space_group_name_Hall           '-C 2yn'
loop_
_symmetry_equiv_pos_site_id
_symmetry_equiv_pos_as_xyz
1 x,y,z
2 -x,y,1/2-z
3 1/2+x,1/2+y,z
4 1/2-x,1/2+y,1/2-z
5 -x,-y,-z
6 x,-y,1/2+z
7 1/2-x,1/2-y,-z
8 1/2+x,1/2-y,1/2+z
_cell_length_a                   17.963(4)
_cell_length_b                   11.133(2)
_cell_length_c                   19.367(4)
_cell_angle_alpha                90
_cell_angle_beta                 107.45(3)
_cell_angle_gamma                90
_cell_volume                     3694.81
loop_
_atom_site_label
_atom_site_type_symbol
_atom_site_fract_x
_atom_site_fract_y
_atom_site_fract_z
N5 N 0.3978(8) -0.1363(16) 0.4596(9)
C15 C 0.4137(12) -0.0266(19) 0.4986(8)
C16 C 0.4820(8) 0.0696(13) 0.5426(9)
C17 C 0.4622(8) -0.1629(10) 0.4341(7)
N5D N 0.6022(8) 0.1363(16) 0.5404(9)
C15D C 0.5863(12) 0.0266(19) 0.5014(8)
C16D C 0.5180(8) -0.0696(13) 0.4574(9)
C17D C 0.5378(8) 0.1629(10) 0.5659(7)
O9 O 0.2476(11) -0.1179(16) 0.5304(10)
Pr1 Pr 0.0000 0.05723(4) 0.2500
N1 N -0.1279(3) -0.0517(4) 0.2449(3)
Mn1 Mn -0.2500 0.2500 0.0000
O1 O -0.1060(3) 0.1627(4) 0.1553(3)
O2 O -0.1595(2) 0.3258(4) 0.0937(3)
C1 C -0.1116(3) 0.2738(5) 0.1438(4)
C2 C -0.1029(4) -0.1710(5) 0.1529(3)
O3 O -0.0416(3) -0.1085(5) 0.1616(3)
C3 C -0.1553(4) -0.1361(5) 0.1949(4)
C4 C -0.0557(4) 0.4763(5) 0.1979(4)
H1 H -0.0938 0.5169 0.1623
O4 O -0.0682(4) 0.1191(6) 0.3388(4)
C5 C -0.1682(4) -0.0181(7) 0.2904(5)
O5 O -0.1186(4) -0.2593(6) 0.1136(3)
O6 O -0.2939(4) 0.4345(5) -0.0281(5)
N2 N -0.1715(4) 0.2698(7) -0.0669(4)
C6 C -0.2417(7) -0.0673(8) 0.2821(9)
H2 H -0.2703 -0.0426 0.3123
C7 C -0.1101(5) 0.2134(9) -0.0660(5)
H3 H -0.0914 0.1507 -0.0338
N3 N -0.0738(5) 0.2469(12) -0.1121(6)
H4 H -0.0304 0.2207 -0.1163
O7 O -0.1580(6) 0.0952(9) 0.3940(5)
C8 C -0.2284(5) -0.1884(8) 0.1874(6)
H5 H -0.2473 -0.2485 0.1533
C9 C 0.0000 0.5383(7) 0.2500
H6 H 0.0000 0.6218 0.2500
C10 C -0.0538(3) 0.3518(5) 0.1997(4)
C11 C -0.1809(10) 0.3515(13) -0.1247(8)
H7 H -0.2212 0.4070 -0.1400
C12 C -0.1234(10) 0.3368(19) -0.1537(10)
H8 H -0.1169 0.3775 -0.1934
C13 C -0.2719(7) -0.1501(10) 0.2308(8)
H9 H -0.3215 -0.1812 0.2247
N4 N 0.0000 0.2915(6) 0.2500
C14 C -0.1289(8) 0.0743(9) 0.3460(6)
H10 H -0.2863 0.4683 0.0121
H11 H -0.3402 0.4319 -0.0577
N1A N 0.1279(3) -0.0517(4) 0.2551(3)
Mn1A Mn 0.2500 0.2500 0.5000
O1A O 0.1060(3) 0.1627(4) 0.3447(3)
O2A O 0.1595(2) 0.3258(4) 0.4063(3)
O2F O -0.3405(2) 0.1742(4) -0.0937(3)
C1A C 0.1116(3) 0.2738(5) 0.3562(4)
C2A C 0.1029(4) -0.1710(5) 0.3471(3)
O3A O 0.0416(3) -0.1085(5) 0.3384(3)
C3A C 0.1553(4) -0.1361(5) 0.3051(4)
C4A C 0.0557(4) 0.4763(5) 0.3021(4)
H1A H 0.0938 0.5169 0.3377
O4A O 0.0682(4) 0.1191(6) 0.1612(4)
C5A C 0.1682(4) -0.0181(7) 0.2096(5)
O5A O 0.1186(4) -0.2593(6) 0.3864(3)
O6F O -0.2061(4) 0.0655(5) 0.0281(5)
N2F N -0.3285(4) 0.2302(7) 0.0669(4)
C6A C 0.2417(7) -0.0673(8) 0.2179(9)
H2A H 0.2703 -0.0426 0.1877
C7F C -0.3899(5) 0.2866(9) 0.0660(5)
H3F H -0.4086 0.3493 0.0338
N3F N -0.4262(5) 0.2531(12) 0.1121(6)
H4F H -0.4696 0.2793 0.1163
O7A O 0.1580(6) 0.0952(9) 0.1060(5)
C8A C 0.2284(5) -0.1884(8) 0.3126(6)
H5A H 0.2473 -0.2485 0.3467
C10A C 0.0538(3) 0.3518(5) 0.3003(4)
C11F C -0.3191(10) 0.1485(13) 0.1247(8)
H7F H -0.2788 0.0930 0.1400
C12F C -0.3766(10) 0.1632(19) 0.1537(10)
H8F H -0.3831 0.1225 0.1934
C13A C 0.2719(7) -0.1501(10) 0.2692(8)
H9A H 0.3215 -0.1812 0.2753
C14A C 0.1289(8) 0.0743(9) 0.1540(6)
H10F H -0.2137 0.0317 -0.0121
H11F H -0.1598 0.0681 0.0577
N6? N 0.5119(13) -0.0147(12) 0.5028(10)
O8? O 0.5798(15) 0.204(2) 0.5310(13)
loop_
_geom_bond_atom_site_label_1
_geom_bond_atom_site_label_2
_geom_bond_site_symmetry_1
_geom_bond_site_symmetry_2
Pr1 N1 1_555 1_555
N1 C3 1_555 1_555
Mn1 O2 1_555 1_555
O1 Pr1 1_555 1_555
O2 C1 1_555 1_555
C1 O1 1_555 1_555
C2 O3 1_555 1_555
O3 Pr1 1_555 1_555
C3 C2 1_555 1_555
C4 H1 1_555 1_555
O4 Pr1 1_555 1_555
C5 N1 1_555 1_555
O5 C2 1_555 1_555
O6 Mn1 1_555 1_555
N2 Mn1 1_555 1_555
C6 C5 1_555 1_555
H2 C6 1_555 1_555
C7 N2 1_555 1_555
H3 C7 1_555 1_555
N3 C7 1_555 1_555
H4 N3 1_555 1_555
O7 C14 1_555 1_555
C8 C3 1_555 1_555
H5 C8 1_555 1_555
C9 C4 1_555 1_555
H6 C9 1_555 1_555
C10 C1 1_555 1_555
C11 N2 1_555 1_555
H7 C11 1_555 1_555
C12 N3 1_555 1_555
H8 C12 1_555 1_555
C13 C6 1_555 1_555
H9 C13 1_555 1_555
N4 Pr1 1_555 1_555
C14 O4 1_555 1_555
N5 C15 1_555 1_555
C15 C16 1_555 1_555
C16 C17D 1_555 1_555
C17 N5 1_555 1_555
H10 O6 1_555 1_555
H11 O6 1_555 1_555
N1A Pr1 1_555 1_555
Mn1A O2A 1_555 1_555
O1A Pr1 1_555 1_555
O2A C1A 1_555 1_555
O2F Mn1 1_555 1_555
C1A O1A 1_555 1_555
C2A O3A 1_555 1_555
O3A Pr1 1_555 1_555
C3A N1A 1_555 1_555
C4A C9 1_555 1_555
H1A C4A 1_555 1_555
O4A Pr1 1_555 1_555
C5A N1A 1_555 1_555
O5A C2A 1_555 1_555
O6F Mn1 1_555 1_555
N2F Mn1 1_555 1_555
C6A C5A 1_555 1_555
H2A C6A 1_555 1_555
C7F N2F 1_555 1_555
H3F C7F 1_555 1_555
N3F C7F 1_555 1_555
H4F N3F 1_555 1_555
O7A C14A 1_555 1_555
C8A C3A 1_555 1_555
H5A C8A 1_555 1_555
C10A N4 1_555 1_555
C11F N2F 1_555 1_555
H7F C11F 1_555 1_555
C12F N3F 1_555 1_555
H8F C12F 1_555 1_555
C13A C6A 1_555 1_555
H9A C13A 1_555 1_555
C14A O4A 1_555 1_555
N5D C15D 1_555 1_555
C15D C16D 1_555 1_555
C16D C17 1_555 1_555
C17D N5D 1_555 1_555
H10F O6F 1_555 1_555
H11F O6F 1_555 1_555
C4 C10 1_555 1_555
C5 C14 1_555 1_555
C8 C13 1_555 1_555
C10 N4 1_555 1_555
C11 C12 1_555 1_555
C1A C10A 1_555 1_555
C2A C3A 1_555 1_555
C4A C10A 1_555 1_555
C5A C14A 1_555 1_555
C8A C13A 1_555 1_555
C11F C12F 1_555 1_555

#END
