
#######################################################################
#
#                 Cambridge Crystallographic Data Centre
#                                CCDC 
#
#######################################################################
#
# If this CIF has been generated from an entry in the Cambridge 
# Structural Database, then it will include bibliographic, chemical, 
# crystal, experimental, refinement or atomic coordinate data resulting 
# from the CCDC's data processing and validation procedures.
#
#######################################################################

data_ODELIU
_symmetry_cell_setting           monoclinic
_symmetry_space_group_name_H-M   'C 2/c'
_symmetry_Int_Tables_number      15
_space_group_name_Hall           '-C 2yn'
loop_
_symmetry_equiv_pos_site_id
_symmetry_equiv_pos_as_xyz
1 x,y,z
2 -x,y,1/2-z
3 1/2+x,1/2+y,z
4 1/2-x,1/2+y,1/2-z
5 -x,-y,-z
6 x,-y,1/2+z
7 1/2-x,1/2-y,-z
8 1/2+x,1/2-y,1/2+z
_cell_length_a                   17.954(4)
_cell_length_b                   11.241(2)
_cell_length_c                   19.604(4)
_cell_angle_alpha                90
_cell_angle_beta                 108.51(3)
_cell_angle_gamma                90
_cell_volume                     3751.82
loop_
_atom_site_label
_atom_site_type_symbol
_atom_site_fract_x
_atom_site_fract_y
_atom_site_fract_z
O4 O 0.2437(6) 0.6125(9) 0.4593(5)
H12 H 0.2457 0.6443 0.4994
H13 H 0.1986 0.6489 0.4410
N5 N 0.0000 0.5000 0.0000
C15 C -0.0134(10) 0.4294(17) 0.0428(9)
N6 N 0.0428(8) 0.3436(12) 0.0615(7)
C16 C 0.0980(11) 0.3809(18) 0.0322(10)
C17 C 0.0769(10) 0.4857(17) -0.0003(9)
O9 O 0.0898(11) 0.2959(16) 0.0169(9)
C15D C 0.0134(10) 0.5706(17) -0.0428(9)
N6D N -0.0428(8) 0.6564(12) -0.0615(7)
C16D C -0.0980(11) 0.6191(18) -0.0322(10)
C17D C -0.0769(10) 0.5143(17) 0.0003(9)
O9D O -0.0898(11) 0.7041(16) -0.0169(9)
Gd1 Gd 0.0000 0.07390(4) 0.2500
Mn1 Mn -0.2500 0.2500 0.0000
N1 N 0.0000 0.3002(6) 0.2500
C1 C -0.0542(3) 0.3597(6) 0.1993(3)
C2 C -0.0569(3) 0.4823(6) 0.1974(3)
H1 H -0.0958 0.5223 0.1618
O1 O -0.1068(2) 0.1701(4) 0.1576(2)
N2 N -0.1239(3) -0.0322(4) 0.2457(3)
O2 O -0.1603(2) 0.3287(4) 0.0930(2)
C3 C -0.1122(3) 0.2798(6) 0.1455(3)
O3 O -0.2161(4) 0.0726(5) 0.0400(3)
C4 C 0.0000 0.5439(8) 0.2500
H2 H 0.0000 0.6267 0.2500
C5 C -0.1637(4) 0.0005(6) 0.2900(4)
C6 C -0.1525(4) -0.1172(6) 0.1976(4)
N3 N -0.1641(4) 0.2482(8) -0.0601(4)
C7 C -0.2237(5) -0.1709(8) 0.1905(5)
H3 H -0.2433 -0.2305 0.1567
C8 C -0.2344(5) -0.0494(7) 0.2867(5)
H4 H -0.2605 -0.0266 0.3187
N4 N -0.0667(6) 0.2065(13) -0.1013(7)
H5 H -0.0264 0.1712 -0.1066
C9 C -0.1053(7) 0.1791(13) -0.0553(8)
H6 H -0.0911 0.1163 -0.0229
C10 C -0.2652(5) -0.1329(8) 0.2357(5)
H7 H -0.3144 -0.1650 0.2308
C11 C -0.1656(8) 0.3272(14) -0.1151(8)
H8 H -0.2027 0.3868 -0.1327
C12 C -0.1232(4) 0.0958(6) 0.3432(4)
O5 O -0.0620(3) 0.1395(5) 0.3359(3)
O6 O -0.1516(4) 0.1235(6) 0.3906(3)
C13 C -0.0997(4) -0.1524(6) 0.1544(4)
O7 O -0.0402(3) -0.0837(5) 0.1626(3)
O8 O -0.1153(4) -0.2406(5) 0.1165(3)
C14 C -0.1058(9) 0.3035(15) -0.1382(9)
H9 H -0.0924 0.3454 -0.1735
H10 H -0.2171 0.0382 0.0021
H11 H -0.1856 0.0461 0.0780
Mn1A Mn 0.2500 0.2500 0.5000
C1A C 0.0542(3) 0.3597(6) 0.3007(3)
C2A C 0.0569(3) 0.4823(6) 0.3026(3)
H1A H 0.0958 0.5223 0.3382
O1A O 0.1068(2) 0.1701(4) 0.3424(2)
N2A N 0.1239(3) -0.0322(4) 0.2543(3)
O2A O 0.1603(2) 0.3287(4) 0.4070(2)
O2F O -0.3397(2) 0.1713(4) -0.0930(2)
C3A C 0.1122(3) 0.2798(6) 0.3545(3)
O3F O -0.2839(4) 0.4274(5) -0.0400(3)
C5A C 0.1637(4) 0.0005(6) 0.2100(4)
C6A C 0.1525(4) -0.1172(6) 0.3024(4)
N3F N -0.3359(4) 0.2518(8) 0.0601(4)
C7A C 0.2237(5) -0.1709(8) 0.3095(5)
H3A H 0.2433 -0.2305 0.3433
C8A C 0.2344(5) -0.0494(7) 0.2133(5)
H4A H 0.2605 -0.0266 0.1813
N4F N -0.4333(6) 0.2935(13) 0.1013(7)
H5F H -0.4736 0.3288 0.1066
C9F C -0.3947(7) 0.3209(13) 0.0553(8)
H6F H -0.4089 0.3837 0.0229
C10A C 0.2652(5) -0.1329(8) 0.2643(5)
H7A H 0.3144 -0.1650 0.2692
C11F C -0.3344(8) 0.1728(14) 0.1151(8)
H8F H -0.2973 0.1132 0.1327
C12A C 0.1232(4) 0.0958(6) 0.1568(4)
O5A O 0.0620(3) 0.1395(5) 0.1641(3)
O6A O 0.1516(4) 0.1235(6) 0.1094(3)
C13A C 0.0997(4) -0.1524(6) 0.3456(4)
O7A O 0.0402(3) -0.0837(5) 0.3374(3)
O8A O 0.1153(4) -0.2406(5) 0.3835(3)
C14F C -0.3942(9) 0.1965(15) 0.1382(9)
H9F H -0.4076 0.1546 0.1735
H10F H -0.2829 0.4618 -0.0021
H11F H -0.3144 0.4539 -0.0780
loop_
_geom_bond_atom_site_label_1
_geom_bond_atom_site_label_2
_geom_bond_site_symmetry_1
_geom_bond_site_symmetry_2
Gd1 N1 1_555 1_555
Mn1 O2 1_555 1_555
N1 C1 1_555 1_555
C1 C2 1_555 1_555
C2 H1 1_555 1_555
O1 Gd1 1_555 1_555
N2 Gd1 1_555 1_555
O2 C3 1_555 1_555
C3 C1 1_555 1_555
O3 Mn1 1_555 1_555
C4 C2 1_555 1_555
H2 C4 1_555 1_555
C5 N2 1_555 1_555
C6 N2 1_555 1_555
N3 Mn1 1_555 1_555
C7 C6 1_555 1_555
H3 C7 1_555 1_555
C8 C5 1_555 1_555
H4 C8 1_555 1_555
O4 H12 1_555 1_555
N4 H5 1_555 1_555
C9 N3 1_555 1_555
H6 C9 1_555 1_555
C10 C7 1_555 1_555
H7 C10 1_555 1_555
C11 N3 1_555 1_555
H8 C11 1_555 1_555
C12 C5 1_555 1_555
O5 Gd1 1_555 1_555
O6 C12 1_555 1_555
C13 C6 1_555 1_555
O7 Gd1 1_555 1_555
O8 C13 1_555 1_555
C14 N4 1_555 1_555
H9 C14 1_555 1_555
N5 C15 1_555 1_555
C15 N6 1_555 1_555
N6 C16 1_555 1_555
C16 C17 1_555 1_555
C17 N5 1_555 1_555
O9 N6 1_555 1_555
H10 O3 1_555 1_555
H11 O3 1_555 1_555
H13 O4 1_555 1_555
Mn1A O2A 1_555 1_555
C1A N1 1_555 1_555
C2A C4 1_555 1_555
H1A C2A 1_555 1_555
O1A Gd1 1_555 1_555
N2A Gd1 1_555 1_555
O2A C3A 1_555 1_555
O2F Mn1 1_555 1_555
C3A C1A 1_555 1_555
O3F Mn1 1_555 1_555
C5A N2A 1_555 1_555
C6A N2A 1_555 1_555
N3F Mn1 1_555 1_555
C7A C6A 1_555 1_555
H3A C7A 1_555 1_555
C8A C5A 1_555 1_555
H4A C8A 1_555 1_555
N4F H5F 1_555 1_555
C9F N3F 1_555 1_555
H6F C9F 1_555 1_555
C10A C7A 1_555 1_555
H7A C10A 1_555 1_555
C11F N3F 1_555 1_555
H8F C11F 1_555 1_555
C12A C5A 1_555 1_555
O5A Gd1 1_555 1_555
O6A C12A 1_555 1_555
C13A C6A 1_555 1_555
O7A Gd1 1_555 1_555
O8A C13A 1_555 1_555
C14F N4F 1_555 1_555
H9F C14F 1_555 1_555
C15D N5 1_555 1_555
N6D C15D 1_555 1_555
C16D N6D 1_555 1_555
C17D N5 1_555 1_555
O9D N6D 1_555 1_555
H10F O3F 1_555 1_555
H11F O3F 1_555 1_555
O1 C3 1_555 1_555
C8 C10 1_555 1_555
N4 C9 1_555 1_555
C11 C14 1_555 1_555
C12 O5 1_555 1_555
C13 O7 1_555 1_555
C15 C17D 1_555 1_555
C16 O9 1_555 1_555
C17 C15D 1_555 1_555
C1A C2A 1_555 1_555
O1A C3A 1_555 1_555
C8A C10A 1_555 1_555
N4F C9F 1_555 1_555
C11F C14F 1_555 1_555
C12A O5A 1_555 1_555
C13A O7A 1_555 1_555
C16D C17D 1_555 1_555
C16D O9D 1_555 1_555

#END
