
#######################################################################
#
#                 Cambridge Crystallographic Data Centre
#                                CCDC 
#
#######################################################################
#
# If this CIF has been generated from an entry in the Cambridge 
# Structural Database, then it will include bibliographic, chemical, 
# crystal, experimental, refinement or atomic coordinate data resulting 
# from the CCDC's data processing and validation procedures.
#
#######################################################################

data_ODELAM
_symmetry_cell_setting           monoclinic
_symmetry_space_group_name_H-M   'C 2/c'
_symmetry_Int_Tables_number      15
_space_group_name_Hall           '-C 2yn'
loop_
_symmetry_equiv_pos_site_id
_symmetry_equiv_pos_as_xyz
1 x,y,z
2 -x,y,1/2-z
3 1/2+x,1/2+y,z
4 1/2-x,1/2+y,1/2-z
5 -x,-y,-z
6 x,-y,1/2+z
7 1/2-x,1/2-y,-z
8 1/2+x,1/2-y,1/2+z
_cell_length_a                   17.862(4)
_cell_length_b                   11.206(2)
_cell_length_c                   19.821(4)
_cell_angle_alpha                90
_cell_angle_beta                 108.86(3)
_cell_angle_gamma                90
_cell_volume                     3754.4
loop_
_atom_site_label
_atom_site_type_symbol
_atom_site_fract_x
_atom_site_fract_y
_atom_site_fract_z
O8 O 0.2593(3) 1.1130(5) 0.5437(3)
H12 H 0.2322 1.1183 0.5719
H13 H 0.2961 1.1726 0.5592
N4 N 0.0000 0.5000 0.5000
C15 C -0.0768(7) 0.5127(11) 0.5023(6)
N5 N -0.0995(7) 0.6214(12) 0.4702(7)
C16 C -0.0424(6) 0.6530(9) 0.4422(5)
C17 C 0.0132(7) 0.5719(9) 0.4573(6)
O9 O -0.0866(6) 0.7082(10) 0.4853(5)
C15D C 0.0768(7) 0.4873(11) 0.4977(6)
N5D N 0.0995(7) 0.3786(12) 0.5298(7)
C16D C 0.0424(6) 0.3470(9) 0.5578(5)
C17D C -0.0132(7) 0.4281(9) 0.5427(6)
O9D O 0.0866(6) 0.2918(10) 0.5147(5)
Er1 Er 0.0000 0.921923(19) 0.2500
O1 O -0.0386(2) 1.0782(3) 0.16403(19)
Mn1 Mn -0.2500 0.7500 0.0000
N1 N 0.0000 0.7010(4) 0.2500
C1 C -0.0545(2) 0.6408(3) 0.19924(19)
C2 C -0.0568(2) 0.5178(4) 0.1969(2)
H1 H -0.0951 0.4777 0.1609
O2 O -0.2840(3) 0.5715(3) -0.0402(2)
C3 C 0.0000 0.4556(6) 0.2500
H2 H 0.0000 0.3726 0.2500
O3 O -0.10681(17) 0.8305(3) 0.15886(16)
N2 N -0.1227(2) 1.0257(3) 0.24532(19)
O4 O -0.05916(19) 0.8547(3) 0.33456(17)
O5 O -0.15962(18) 0.6720(3) 0.09236(16)
C4 C -0.1121(2) 0.7207(4) 0.1452(2)
C5 C -0.1621(3) 0.9926(4) 0.2893(2)
O6 O -0.1496(2) 0.8681(4) 0.3885(2)
C6 C -0.1206(3) 0.8977(4) 0.3424(2)
C7 C -0.0981(3) 1.1451(4) 0.1551(2)
O7 O -0.1141(2) 1.2336(4) 0.1164(2)
C8 C -0.1513(3) 1.1116(4) 0.1977(3)
C9 C -0.2345(3) 1.0434(5) 0.2853(3)
H3 H -0.2610 1.0201 0.3165
N3 N -0.1641(3) 0.7543(5) -0.0605(3)
C10 C -0.2235(3) 1.1649(5) 0.1901(3)
H4 H -0.2435 1.2240 0.1561
C11 C -0.2654(4) 1.1277(6) 0.2348(4)
H5 H -0.3146 1.1607 0.2300
C12 C -0.1073(5) 0.7049(8) -0.1419(5)
H6 H -0.0956 0.6678 -0.1793
C13 C -0.1065(4) 0.8261(7) -0.0562(4)
H7 H -0.0930 0.8902 -0.0248
C14 C -0.1671(4) 0.6766(7) -0.1165(4)
H8 H -0.2038 0.6158 -0.1335
N6 N -0.0679(4) 0.7982(6) -0.1022(4)
H9 H -0.0263 0.8326 -0.1058
H10 H -0.2637 0.5138 -0.0089
H11 H -0.3191 0.5952 -0.0754
O1A O 0.0386(2) 1.0782(3) 0.33597(19)
Mn1A Mn 0.2500 0.7500 0.5000
C1A C 0.0545(2) 0.6408(3) 0.30076(19)
C2A C 0.0568(2) 0.5178(4) 0.3031(2)
H1A H 0.0951 0.4777 0.3391
O2F O -0.2160(3) 0.9285(3) 0.0402(2)
O3A O 0.10681(17) 0.8305(3) 0.34114(16)
N2A N 0.1227(2) 1.0257(3) 0.25468(19)
O4A O 0.05916(19) 0.8547(3) 0.16544(17)
O5A O 0.15962(18) 0.6720(3) 0.40764(16)
O5F O -0.34038(18) 0.8280(3) -0.09236(16)
C4A C 0.1121(2) 0.7207(4) 0.3548(2)
C5A C 0.1621(3) 0.9926(4) 0.2107(2)
O6A O 0.1496(2) 0.8681(4) 0.1115(2)
C6A C 0.1206(3) 0.8977(4) 0.1576(2)
C7A C 0.0981(3) 1.1451(4) 0.3449(2)
O7A O 0.1141(2) 1.2336(4) 0.3836(2)
C8A C 0.1513(3) 1.1116(4) 0.3023(3)
C9A C 0.2345(3) 1.0434(5) 0.2147(3)
H3A H 0.2610 1.0201 0.1835
N3F N -0.3359(3) 0.7457(5) 0.0605(3)
C10A C 0.2235(3) 1.1649(5) 0.3099(3)
H4A H 0.2435 1.2240 0.3439
C11A C 0.2654(4) 1.1277(6) 0.2652(4)
H5A H 0.3146 1.1607 0.2700
C12F C -0.3927(5) 0.7951(8) 0.1419(5)
H6F H -0.4044 0.8322 0.1793
C13F C -0.3935(4) 0.6739(7) 0.0562(4)
H7F H -0.4070 0.6098 0.0248
C14F C -0.3329(4) 0.8234(7) 0.1165(4)
H8F H -0.2962 0.8842 0.1335
N6F N -0.4321(4) 0.7018(6) 0.1022(4)
H9F H -0.4737 0.6674 0.1058
H10F H -0.2363 0.9862 0.0089
H11F H -0.1809 0.9048 0.0754
loop_
_geom_bond_atom_site_label_1
_geom_bond_atom_site_label_2
_geom_bond_site_symmetry_1
_geom_bond_site_symmetry_2
Er1 O1 1_555 1_555
O1 C7 1_555 1_555
Mn1 O2 1_555 1_555
N1 Er1 1_555 1_555
C1 N1 1_555 1_555
C2 C1 1_555 1_555
H1 C2 1_555 1_555
O2 H10 1_555 1_555
C3 C2 1_555 1_555
H2 C3 1_555 1_555
O3 Er1 1_555 1_555
N2 Er1 1_555 1_555
O4 Er1 1_555 1_555
O5 Mn1 1_555 1_555
C4 C1 1_555 1_555
C5 N2 1_555 1_555
O6 C6 1_555 1_555
C6 O4 1_555 1_555
C7 O7 1_555 1_555
C8 N2 1_555 1_555
C9 C5 1_555 1_555
H3 C9 1_555 1_555
N3 Mn1 1_555 1_555
C10 C8 1_555 1_555
H4 C10 1_555 1_555
C11 C9 1_555 1_555
H5 C11 1_555 1_555
C12 H6 1_555 1_555
C13 N3 1_555 1_555
H7 C13 1_555 1_555
C14 N3 1_555 1_555
H8 C14 1_555 1_555
O8 H12 1_555 1_555
N4 C15 1_555 1_555
C15 N5 1_555 1_555
N5 C16 1_555 1_555
C16 C17 1_555 1_555
C17 N4 1_555 1_555
O9 N5 1_555 1_555
N6 C12 1_555 1_555
H9 N6 1_555 1_555
H11 O2 1_555 1_555
H13 O8 1_555 1_555
O1A Er1 1_555 1_555
Mn1A O5A 1_555 1_555
C1A N1 1_555 1_555
C2A C3 1_555 1_555
H1A C2A 1_555 1_555
O2F Mn1 1_555 1_555
O3A Er1 1_555 1_555
N2A Er1 1_555 1_555
O4A Er1 1_555 1_555
O5A C4A 1_555 1_555
O5F Mn1 1_555 1_555
C4A C1A 1_555 1_555
C5A N2A 1_555 1_555
O6A C6A 1_555 1_555
C6A O4A 1_555 1_555
C7A O1A 1_555 1_555
O7A C7A 1_555 1_555
C8A N2A 1_555 1_555
C9A C5A 1_555 1_555
H3A C9A 1_555 1_555
N3F Mn1 1_555 1_555
C10A C8A 1_555 1_555
H4A C10A 1_555 1_555
C11A C9A 1_555 1_555
H5A C11A 1_555 1_555
C12F H6F 1_555 1_555
C13F N3F 1_555 1_555
H7F C13F 1_555 1_555
C14F N3F 1_555 1_555
H8F C14F 1_555 1_555
C15D N4 1_555 1_555
N5D C15D 1_555 1_555
C16D N5D 1_555 1_555
C17D N4 1_555 1_555
O9D N5D 1_555 1_555
N6F C12F 1_555 1_555
H9F N6F 1_555 1_555
H10F O2F 1_555 1_555
H11F O2F 1_555 1_555
O3 C4 1_555 1_555
O5 C4 1_555 1_555
C5 C6 1_555 1_555
C7 C8 1_555 1_555
C10 C11 1_555 1_555
C12 C14 1_555 1_555
C13 N6 1_555 1_555
C15 C17D 1_555 1_555
C16 O9 1_555 1_555
C17 C15D 1_555 1_555
C1A C2A 1_555 1_555
O3A C4A 1_555 1_555
C5A C6A 1_555 1_555
C7A C8A 1_555 1_555
C10A C11A 1_555 1_555
C12F C14F 1_555 1_555
C13F N6F 1_555 1_555
C16D C17D 1_555 1_555
C16D O9D 1_555 1_555

#END
