
#######################################################################
#
#                 Cambridge Crystallographic Data Centre
#                                CCDC 
#
#######################################################################
#
# If this CIF has been generated from an entry in the Cambridge 
# Structural Database, then it will include bibliographic, chemical, 
# crystal, experimental, refinement or atomic coordinate data resulting 
# from the CCDC's data processing and validation procedures.
#
#######################################################################

data_ODELEQ
_symmetry_cell_setting           triclinic
_symmetry_space_group_name_H-M   'P -1'
_symmetry_Int_Tables_number      2
_space_group_name_Hall           '-P 1'
loop_
_symmetry_equiv_pos_site_id
_symmetry_equiv_pos_as_xyz
1 x,y,z
2 -x,-y,-z
_cell_length_a                   10.029(2)
_cell_length_b                   10.563(2)
_cell_length_c                   13.052(3)
_cell_angle_alpha                78.18(3)
_cell_angle_beta                 86.46(3)
_cell_angle_gamma                62.68(3)
_cell_volume                     1201.58
loop_
_atom_site_label
_atom_site_type_symbol
_atom_site_fract_x
_atom_site_fract_y
_atom_site_fract_z
La1 La 0.828229(11) 0.431690(11) 0.068822(8)
O1 O 0.68725(16) 0.36999(17) -0.05793(12)
O2 O 0.82608(17) 0.20754(16) 0.18209(12)
O3 O 0.44968(15) 0.48029(16) -0.11883(12)
O4 O 0.81726(17) 0.63600(16) 0.15139(11)
C1 C 0.3443(2) 0.2117(2) 0.09130(16)
O5 O 0.09844(15) 0.40422(15) 0.07434(11)
N1 N 0.38252(17) 0.30659(17) 0.02870(13)
N2 N 0.84453(18) 0.39599(18) 0.27698(13)
O6 O 0.9962(2) 0.2573(2) -0.04717(16)
C2 C 0.1804(2) 0.2703(2) 0.11406(16)
O7 O 0.13051(18) 0.19122(18) 0.16624(14)
C3 C 0.5587(2) 0.3793(2) -0.06151(16)
O8 O 0.8931(2) 0.03724(18) 0.32815(15)
C4 C 0.5272(2) 0.2636(2) 0.00763(16)
C5 C 0.8605(2) 0.1623(2) 0.27867(18)
O9 O 0.8443(2) 0.7274(2) 0.28300(14)
C6 C 0.8639(2) 0.2689(2) 0.33717(17)
C7 C 0.6386(2) 0.1255(2) 0.04681(18)
H1 H 0.7387 0.0997 0.0322
C8 C 0.4491(2) 0.0701(2) 0.13085(18)
H2 H 0.4194 0.0052 0.1722
C9 C 0.8337(2) 0.6320(2) 0.24746(17)
C10 C 0.8861(3) 0.2402(3) 0.44507(19)
H3 H 0.8999 0.1514 0.4854
C11 C 0.8472(2) 0.4973(2) 0.32208(17)
C12 C 0.8665(3) 0.4768(3) 0.42904(18)
H4 H 0.8655 0.5500 0.4589
C13 C 0.5983(2) 0.0263(2) 0.1082(2)
H5 H 0.6705 -0.0684 0.1339
C14 C 0.8874(3) 0.3457(3) 0.49109(19)
H6 H 0.9022 0.3291 0.5632
H16 H 0.969(4) 0.215(4) -0.072(3)
H18 H 1.060(4) 0.270(3) -0.075(3)
La1A La 0.171771(11) 0.568310(11) -0.068822(8)
La1_2 La -0.171771(11) 0.431690(11) 0.068822(8)
La1A_2 La 1.171771(11) 0.568310(11) -0.068822(8)
O1A O 0.31275(16) 0.63001(17) 0.05793(12)
O2A O 0.17392(17) 0.79246(16) -0.18209(12)
O3A O 0.55032(15) 0.51971(16) 0.11883(12)
O4A O 0.18274(17) 0.36400(16) -0.15139(11)
C1A C 0.6557(2) 0.7883(2) -0.09130(16)
O5A O 0.90156(15) 0.59578(15) -0.07434(11)
O5_2 O 1.09844(15) 0.40422(15) 0.07434(11)
O5A_2 O -0.09844(15) 0.59578(15) -0.07434(11)
N1A N 0.61748(17) 0.69341(17) -0.02870(13)
N2A N 0.15547(18) 0.60401(18) -0.27698(13)
O6A O 0.0038(2) 0.7427(2) 0.04717(16)
C2A C 0.8196(2) 0.7297(2) -0.11406(16)
O7A O 0.86949(18) 0.80878(18) -0.16624(14)
O7_2 O 1.13051(18) 0.19122(18) 0.16624(14)
O7A_2 O -0.13051(18) 0.80878(18) -0.16624(14)
C3A C 0.4413(2) 0.6207(2) 0.06151(16)
O8A O 0.1069(2) 0.96276(18) -0.32815(15)
C4A C 0.4728(2) 0.7364(2) -0.00763(16)
C5A C 0.1395(2) 0.8377(2) -0.27867(18)
O9A O 0.1557(2) 0.2726(2) -0.28300(14)
C6A C 0.1361(2) 0.7311(2) -0.33717(17)
C7A C 0.3614(2) 0.8745(2) -0.04681(18)
H1A H 0.2613 0.9003 -0.0322
C8A C 0.5509(2) 0.9299(2) -0.13085(18)
H2A H 0.5806 0.9948 -0.1722
C9A C 0.1663(2) 0.3680(2) -0.24746(17)
C10A C 0.1139(3) 0.7598(3) -0.44507(19)
H3A H 0.1001 0.8486 -0.4854
C11A C 0.1528(2) 0.5027(2) -0.32208(17)
C12A C 0.1335(3) 0.5232(3) -0.42904(18)
H4A H 0.1345 0.4500 -0.4589
C13A C 0.4017(2) 0.9737(2) -0.1082(2)
H5A H 0.3295 1.0684 -0.1339
C14A C 0.1126(3) 0.6543(3) -0.49109(19)
H6A H 0.0978 0.6709 -0.5632
H16A H 0.031(4) 0.785(4) 0.072(3)
H18A H -0.060(4) 0.730(3) 0.075(3)
Mn1 Mn 0.5000 0.0000 0.5000
N3 N 0.4094(3) 0.3764(2) 0.25695(16)
H7 H 0.4439 0.4260 0.2132
O10 O 0.7195(2) -0.0931(2) 0.42211(15)
N4 N 0.4045(2) 0.1976(2) 0.37347(15)
C15 C 0.4883(3) 0.2432(3) 0.3103(2)
H8 H 0.5909 0.1878 0.3042
N5 N 0.4116(2) -0.1214(2) 0.42386(16)
C16 C 0.2622(3) 0.3098(3) 0.35606(19)
H9 H 0.1772 0.3099 0.3889
C17 C 0.4821(3) -0.2662(3) 0.4219(3)
H10 H 0.5676 -0.3353 0.4619
N6 N 0.2925(3) -0.1662(3) 0.31237(19)
H11 H 0.2272 -0.1521 0.2660
C18 C 0.2967(3) -0.0652(3) 0.3570(2)
H12 H 0.2272 0.0327 0.3426
C19 C 0.2643(3) 0.4211(3) 0.2833(2)
H13 H 0.1828 0.5098 0.2570
C20 C 0.4088(4) -0.2939(4) 0.3531(3)
H14 H 0.4339 -0.3838 0.3371
H15 H 0.768(3) -0.060(3) 0.406(2)
H17 H 0.752(3) -0.155(3) 0.383(2)
N3A N 0.5906(3) -0.3764(2) 0.74305(16)
H7A H 0.5561 -0.4260 0.7868
O10A O 0.2805(2) 0.0931(2) 0.57789(15)
N4A N 0.5955(2) -0.1976(2) 0.62653(15)
C15A C 0.5117(3) -0.2432(3) 0.6897(2)
H8A H 0.4091 -0.1878 0.6958
N5A N 0.5884(2) 0.1214(2) 0.57614(16)
C16A C 0.7378(3) -0.3098(3) 0.64394(19)
H9A H 0.8228 -0.3099 0.6111
C17A C 0.5179(3) 0.2662(3) 0.5781(3)
H10A H 0.4324 0.3353 0.5381
N6A N 0.7075(3) 0.1662(3) 0.68763(19)
H11A H 0.7728 0.1521 0.7340
C18A C 0.7033(3) 0.0652(3) 0.6430(2)
H12A H 0.7728 -0.0327 0.6574
C19A C 0.7357(3) -0.4211(3) 0.7167(2)
H13A H 0.8172 -0.5098 0.7430
C20A C 0.5912(4) 0.2939(4) 0.6469(3)
H14A H 0.5661 0.3838 0.6629
H15A H 0.232(3) 0.060(3) 0.594(2)
H17A H 0.248(3) 0.155(3) 0.617(2)
O11 O 0.0605(3) 0.9184(4) 0.1549(3)
H19 H -0.008(4) 0.925(4) 0.200(3)
H20 H 0.035(8) 0.992(8) 0.120(5)
loop_
_geom_bond_atom_site_label_1
_geom_bond_atom_site_label_2
_geom_bond_site_symmetry_1
_geom_bond_site_symmetry_2
La1 O1 1_555 1_555
O1 C3 1_555 1_555
O2 La1 1_555 1_555
O3 C3 1_555 1_555
O4 La1 1_555 1_555
C1 N1 1_555 1_555
O5 C2 1_555 1_555
N1 C4 1_555 1_555
N2 La1 1_555 1_555
O6 La1 1_555 1_555
C2 C1 1_555 1_555
O7 C2 1_555 1_555
C3 C4 1_555 1_555
O8 C5 1_555 1_555
C4 C7 1_555 1_555
C5 O2 1_555 1_555
O9 C9 1_555 1_555
C6 N2 1_555 1_555
C7 H1 1_555 1_555
C8 C1 1_555 1_555
H2 C8 1_555 1_555
C9 O4 1_555 1_555
C10 C6 1_555 1_555
H3 C10 1_555 1_555
C11 N2 1_555 1_555
C12 C11 1_555 1_555
H4 C12 1_555 1_555
C13 C7 1_555 1_555
H5 C13 1_555 1_555
C14 C10 1_555 1_555
H6 C14 1_555 1_555
Mn1 O10 1_555 1_555
N3 H7 1_555 1_555
O10 H15 1_555 1_555
N4 Mn1 1_555 1_555
C15 N3 1_555 1_555
H8 C15 1_555 1_555
N5 Mn1 1_555 1_555
C16 N4 1_555 1_555
H9 C16 1_555 1_555
C17 N5 1_555 1_555
H10 C17 1_555 1_555
N6 H11 1_555 1_555
C18 N5 1_555 1_555
H12 C18 1_555 1_555
C19 N3 1_555 1_555
H13 C19 1_555 1_555
C20 C17 1_555 1_555
H14 C20 1_555 1_555
O11 H19 1_555 1_555
H16 O6 1_555 1_555
H17 O10 1_555 1_555
H18 O6 1_555 1_555
H20 O11 1_555 1_555
La1A O3 1_555 1_555
La1_2 O5 1_555 1_555
La1A_2 O5A 1_555 1_555
O1A La1A 1_555 1_555
O2A La1A 1_555 1_555
O3A La1 1_555 1_555
O4A La1A 1_555 1_555
C1A N1A 1_555 1_555
O5A La1 1_555 1_555
O5_2 La1 1_555 1_555
O5A_2 La1A 1_555 1_555
N1A La1 1_555 1_555
N2A La1A 1_555 1_555
O6A La1A 1_555 1_555
C2A C1A 1_555 1_555
O7A La1A_2 1_555 1_555
O7_2 La1 1_555 1_555
O7A_2 La1A 1_555 1_555
C3A O1A 1_555 1_555
O8A C5A 1_555 1_555
C4A N1A 1_555 1_555
C5A O2A 1_555 1_555
O9A C9A 1_555 1_555
C6A N2A 1_555 1_555
C7A C4A 1_555 1_555
H1A C7A 1_555 1_555
C8A C1A 1_555 1_555
H2A C8A 1_555 1_555
C9A O4A 1_555 1_555
C10A C6A 1_555 1_555
H3A C10A 1_555 1_555
C11A N2A 1_555 1_555
C12A C11A 1_555 1_555
H4A C12A 1_555 1_555
C13A C7A 1_555 1_555
H5A C13A 1_555 1_555
C14A C10A 1_555 1_555
H6A C14A 1_555 1_555
N3A H7A 1_555 1_555
O10A Mn1 1_555 1_555
N4A Mn1 1_555 1_555
C15A N3A 1_555 1_555
H8A C15A 1_555 1_555
N5A Mn1 1_555 1_555
C16A N4A 1_555 1_555
H9A C16A 1_555 1_555
C17A N5A 1_555 1_555
H10A C17A 1_555 1_555
N6A H11A 1_555 1_555
C18A N5A 1_555 1_555
H12A C18A 1_555 1_555
C19A N3A 1_555 1_555
H13A C19A 1_555 1_555
C20A C17A 1_555 1_555
H14A C20A 1_555 1_555
H15A O10A 1_555 1_555
H16A O6A 1_555 1_555
H17A O10A 1_555 1_555
H18A O6A 1_555 1_555
O5 La1A 1_555 1_555
N1 La1A 1_555 1_555
O7 La1_2 1_555 1_555
C5 C6 1_555 1_555
C8 C13 1_555 1_555
C9 C11 1_555 1_555
C12 C14 1_555 1_555
N4 C15 1_555 1_555
C16 C19 1_555 1_555
N6 C18 1_555 1_555
N6 C20 1_555 1_555
La1_2 O5A_2 1_555 1_555
La1A_2 O5_2 1_555 1_555
O3A C3A 1_555 1_555
O5A C2A 1_555 1_555
C2A O7A 1_555 1_555
C3A C4A 1_555 1_555
C5A C6A 1_555 1_555
C8A C13A 1_555 1_555
C9A C11A 1_555 1_555
C12A C14A 1_555 1_555
N4A C15A 1_555 1_555
C16A C19A 1_555 1_555
N6A C18A 1_555 1_555
N6A C20A 1_555 1_555

#END
