
#######################################################################
#
#                 Cambridge Crystallographic Data Centre
#                                CCDC 
#
#######################################################################
#
# If this CIF has been generated from an entry in the Cambridge 
# Structural Database, then it will include bibliographic, chemical, 
# crystal, experimental, refinement or atomic coordinate data resulting 
# from the CCDC's data processing and validation procedures.
#
#######################################################################

data_ODELOZ
_symmetry_cell_setting           orthorhombic
_symmetry_space_group_name_H-M   'C m c m'
_symmetry_Int_Tables_number      63
_space_group_name_Hall           '-C 2n 2'
loop_
_symmetry_equiv_pos_site_id
_symmetry_equiv_pos_as_xyz
1 x,y,z
2 1/2+x,1/2+y,z
3 -x,-y,1/2+z
4 -x,y,1/2-z
5 x,-y,-z
6 1/2-x,1/2-y,1/2+z
7 1/2-x,1/2+y,1/2-z
8 1/2+x,1/2-y,-z
9 -x,-y,-z
10 1/2-x,1/2-y,-z
11 x,y,1/2-z
12 x,-y,1/2+z
13 -x,y,z
14 1/2+x,1/2+y,1/2-z
15 1/2+x,1/2-y,1/2+z
16 1/2-x,1/2+y,z
_cell_length_a                   7.4670(5)
_cell_length_b                   13.8824(9)
_cell_length_c                   9.3289(6)
_cell_angle_alpha                90
_cell_angle_beta                 90
_cell_angle_gamma                90
_cell_volume                     967.033
loop_
_atom_site_label
_atom_site_type_symbol
_atom_site_fract_x
_atom_site_fract_y
_atom_site_fract_z
O5 O 1.0000 0.0395(3) 0.5350(4)
H1 H 0.8995 0.0475 0.5737
O5H O 1.0000 -0.0395(3) 0.4650(4)
H1H H 1.1005 -0.0475 0.4263
H1D H 0.8995 -0.0475 0.4263
H1L H 1.1005 0.0475 0.5737
V1 V 0.20578(5) 0.23916(3) 0.2500
P1 P 0.0000 0.34326(4) 0.51600(5)
O1 O 0.0000 0.26945(10) 0.38945(16)
O2 O 0.0000 0.89074(17) 0.7500
O3 O 0.17151(15) 0.33367(8) 0.60096(12)
O4 O 0.3029(2) 0.34148(12) 0.2500
C1 C 0.0000 0.46123(15) 0.4415(2)
H2 H 0.1072 0.4694 0.3802
H3 H -0.1072 0.4694 0.3802
H4 H 0.0000 0.920(3) 0.808(4)
V1H V -0.20578(5) 0.76084(3) 0.7500
V1L V -0.20578(5) 0.23916(3) 0.2500
V1I V 0.29422(5) 0.26084(3) 0.7500
V1N V -0.29422(5) 0.26084(3) 0.7500
V1K V 0.20578(5) 0.76084(3) 0.7500
V1A V -0.29422(5) 0.73916(3) 0.2500
V1O V 0.29422(5) 0.73916(3) 0.2500
P1H P 0.0000 0.65674(4) 0.48400(5)
O1H O 0.0000 0.73055(10) 0.61055(16)
O1J O 0.0000 0.26945(10) 0.11055(16)
O1K O 0.0000 0.73055(10) 0.88945(16)
O2K O 0.0000 0.10926(17) 0.2500
O3L O -0.17151(15) 0.33367(8) 0.60096(12)
O3H O -0.17151(15) 0.66633(8) 0.39904(12)
O3D O 0.17151(15) 0.66633(8) 0.39904(12)
O3I O 0.32849(15) 0.16633(8) 0.39904(12)
O3E O 0.32849(15) 0.16633(8) 0.10096(12)
O3A O -0.32849(15) 0.83367(8) 0.60096(12)
O3M O -0.32849(15) 0.83367(8) 0.89904(12)
O4H O -0.3029(2) 0.65852(12) 0.7500
C1H C 0.0000 0.53877(15) 0.5585(2)
H2H H -0.1072 0.5306 0.6198
H2D H 0.1072 0.5306 0.6198
H4H H 0.0000 0.080(3) 0.192(4)
H4K H 0.0000 0.080(3) 0.308(4)
H4J H 0.0000 0.920(3) 0.692(4)
loop_
_geom_bond_atom_site_label_1
_geom_bond_atom_site_label_2
_geom_bond_site_symmetry_1
_geom_bond_site_symmetry_2
V1 O1 1_555 1_555
P1 O1 1_555 1_555
O1 V1L 1_555 1_555
O2 H4 1_555 1_555
O3 P1 1_555 1_555
O4 V1 1_555 1_555
O5 H1 1_555 1_555
C1 P1 1_555 1_555
H2 C1 1_555 1_555
H3 C1 1_555 1_555
V1H O2 1_555 1_555
V1L O1J 1_555 1_555
V1I O3 1_555 1_555
V1N O3L 1_555 1_555
V1K O2 1_555 1_555
V1A O3H 1_555 1_555
V1O O3D 1_555 1_555
P1H O1H 1_555 1_555
O1H V1H 1_555 1_555
O1J V1 1_555 1_555
O1K V1H 1_555 1_555
O2K V1 1_555 1_555
O3L P1 1_555 1_555
O3H P1H 1_555 1_555
O3D P1H 1_555 1_555
O3I V1 1_555 1_555
O3E V1 1_555 1_555
O3A V1H 1_555 1_555
O3M V1H 1_555 1_555
O4H V1H 1_555 1_555
O5H O5 1_555 1_555
H1H O5H 1_555 1_555
H1D O5H 1_555 1_555
H1L O5 1_555 1_555
C1H C1 1_555 1_555
H2H C1H 1_555 1_555
H2D C1H 1_555 1_555
H4H O2K 1_555 1_555
H4K O2K 1_555 1_555
H4J O2 1_555 1_555
V1L O2K 1_555 1_555
V1K O1H 1_555 1_555
V1K O1K 1_555 1_555
P1H C1H 1_555 1_555

#END
