
#######################################################################
#
#                 Cambridge Crystallographic Data Centre
#                                CCDC 
#
#######################################################################
#
# If this CIF has been generated from an entry in the Cambridge 
# Structural Database, then it will include bibliographic, chemical, 
# crystal, experimental, refinement or atomic coordinate data resulting 
# from the CCDC's data processing and validation procedures.
#
#######################################################################

data_ODEMER
_symmetry_cell_setting           monoclinic
_symmetry_space_group_name_H-M   'C 2/c'
_symmetry_Int_Tables_number      15
_space_group_name_Hall           '-C 2yn'
loop_
_symmetry_equiv_pos_site_id
_symmetry_equiv_pos_as_xyz
1 x,y,z
2 -x,y,1/2-z
3 1/2+x,1/2+y,z
4 1/2-x,1/2+y,1/2-z
5 -x,-y,-z
6 x,-y,1/2+z
7 1/2-x,1/2-y,-z
8 1/2+x,1/2-y,1/2+z
_cell_length_a                   21.378(4)
_cell_length_b                   10.702(2)
_cell_length_c                   19.664(4)
_cell_angle_alpha                90
_cell_angle_beta                 114.49(3)
_cell_angle_gamma                90
_cell_volume                     4094.13
loop_
_atom_site_label
_atom_site_type_symbol
_atom_site_fract_x
_atom_site_fract_y
_atom_site_fract_z
O8 O 0.2560(3) 0.3552(9) 0.2837(4)
O9 O 0.2928(7) 0.6054(15) 0.3008(12)
N5 N 0.6958(6) 0.6795(14) 0.8788(6)
C15 C 0.7305(7) 0.6686(8) 0.9577(7)
N6 N 0.7487(7) 0.7906(11) 0.9879(5)
C16 C 0.7252(8) 0.8769(9) 0.9276(8)
C17 C 0.6926(6) 0.8083(16) 0.8602(6)
N5F N 0.8042(6) 0.8205(14) 1.1212(6)
C15F C 0.7695(7) 0.8314(8) 1.0423(7)
N6F N 0.7513(7) 0.7094(11) 1.0121(5)
C16F C 0.7748(8) 0.6231(9) 1.0724(8)
C17F C 0.8074(6) 0.6917(16) 1.1398(6)
Pr1 Pr 0.5000 0.43333(4) 0.7500
Co1 Co 0.7500 0.2500 1.0000
O1 O 0.6770(2) 0.3932(5) 0.9830(2)
O2 O 0.4200(2) 0.6020(4) 0.7474(2)
O3 O 0.7043(2) 0.2061(5) 0.8853(2)
C1 C 0.6230(3) 0.4196(6) 0.9282(3)
C2 C 0.4209(3) 0.6634(6) 0.8025(4)
C3 C 0.4207(3) 0.2076(7) 0.8062(3)
O4 O 0.4264(2) 0.3223(4) 0.8015(2)
N1 N 0.5228(2) 0.5477(4) 0.8745(3)
O5 O 0.6034(2) 0.3712(4) 0.8639(2)
N2 N 0.6795(3) 0.1253(6) 1.0136(3)
O6 O 0.3787(3) 0.7459(5) 0.7997(3)
C4 C 0.5883(4) 0.5726(7) 1.0056(4)
H1 H 0.6264 0.5509 1.0488
C5 C 0.4613(3) 0.1273(6) 0.7772(3)
C6 C 0.4592(5) -0.0025(7) 0.7775(5)
H2 H 0.4315 -0.0455 0.7956
O7 O 0.3828(3) 0.1562(5) 0.8315(3)
C7 C 0.6823(4) 0.0724(8) 1.0747(5)
H3 H 0.7173 0.0870 1.1217
C8 C 0.4865(4) 0.6898(7) 0.9440(4)
H4 H 0.4541 0.7470 0.9449
C9 C 0.4793(3) 0.6327(6) 0.8771(3)
C10 C 0.5768(3) 0.5172(6) 0.9373(3)
N3 N 0.6309(4) -0.0032(8) 1.0628(4)
H5 H 0.6252 -0.0503 1.0952
N4 N 0.5000 0.1906(6) 0.7500
C11 C 0.5000 -0.0645(11) 0.7500
H6 H 0.5000 -0.1514 0.7500
C12 C 0.5420(4) 0.6599(8) 1.0077(4)
H7 H 0.5486 0.6983 1.0526
C13 C 0.6192(5) 0.0838(9) 0.9608(5)
H8 H 0.6015 0.1060 0.9106
C14 C 0.5889(6) 0.0070(11) 0.9907(6)
H9 H 0.5466 -0.0321 0.9661
H10 H 0.7278 0.1825 0.8596
H11 H 0.6721 0.2655 0.8586
Co1A Co 0.2500 0.2500 0.5000
O1A O 0.3230(2) 0.3932(5) 0.5170(2)
O1F O 0.8230(2) 0.1068(5) 1.0170(2)
O2A O 0.5800(2) 0.6020(4) 0.7526(2)
O3F O 0.7957(2) 0.2939(5) 1.1147(2)
C1A C 0.3770(3) 0.4196(6) 0.5718(3)
C2A C 0.5791(3) 0.6634(6) 0.6975(4)
C3A C 0.5793(3) 0.2076(7) 0.6938(3)
O4A O 0.5736(2) 0.3223(4) 0.6985(2)
N1A N 0.4772(2) 0.5477(4) 0.6255(3)
O5A O 0.3966(2) 0.3712(4) 0.6361(2)
N2F N 0.8205(3) 0.3747(6) 0.9864(3)
O6A O 0.6213(3) 0.7459(5) 0.7003(3)
C4A C 0.4117(4) 0.5726(7) 0.4944(4)
H1A H 0.3736 0.5509 0.4512
C5A C 0.5387(3) 0.1273(6) 0.7228(3)
C6A C 0.5408(5) -0.0025(7) 0.7225(5)
H2A H 0.5685 -0.0455 0.7044
O7A O 0.6172(3) 0.1562(5) 0.6685(3)
C7F C 0.8177(4) 0.4276(8) 0.9253(5)
H3F H 0.7827 0.4130 0.8783
C8A C 0.5135(4) 0.6898(7) 0.5560(4)
H4A H 0.5459 0.7470 0.5551
C9A C 0.5207(3) 0.6327(6) 0.6229(3)
C10A C 0.4232(3) 0.5172(6) 0.5627(3)
N3F N 0.8691(4) 0.5032(8) 0.9372(4)
H5F H 0.8748 0.5503 0.9048
C12A C 0.4580(4) 0.6599(8) 0.4923(4)
H7A H 0.4514 0.6983 0.4474
C13F C 0.8808(5) 0.4162(9) 1.0392(5)
H8F H 0.8985 0.3940 1.0894
C14F C 0.9111(6) 0.4930(11) 1.0093(6)
H9F H 0.9534 0.5321 1.0339
H10F H 0.7722 0.3175 1.1404
H11F H 0.8279 0.2345 1.1414
loop_
_geom_bond_atom_site_label_1
_geom_bond_atom_site_label_2
_geom_bond_site_symmetry_1
_geom_bond_site_symmetry_2
Pr1 O2 1_555 1_555
Co1 O1 1_555 1_555
O1 C1 1_555 1_555
O2 C2 1_555 1_555
O3 Co1 1_555 1_555
C1 O5 1_555 1_555
C2 O6 1_555 1_555
C3 O4 1_555 1_555
O4 Pr1 1_555 1_555
N1 Pr1 1_555 1_555
O5 Pr1 1_555 1_555
N2 Co1 1_555 1_555
C4 H1 1_555 1_555
C5 C3 1_555 1_555
C6 C5 1_555 1_555
H2 C6 1_555 1_555
O7 C3 1_555 1_555
C7 N2 1_555 1_555
H3 C7 1_555 1_555
C8 H4 1_555 1_555
C9 C2 1_555 1_555
C10 C1 1_555 1_555
N3 C7 1_555 1_555
H5 N3 1_555 1_555
N4 Pr1 1_555 1_555
C11 C6 1_555 1_555
H6 C11 1_555 1_555
C12 C4 1_555 1_555
H7 C12 1_555 1_555
C13 N2 1_555 1_555
H8 C13 1_555 1_555
C14 N3 1_555 1_555
H9 C14 1_555 1_555
N5 C15 1_555 1_555
C15 N6 1_555 1_555
N6 C16 1_555 1_555
C16 C17 1_555 1_555
C17 N5 1_555 1_555
H10 O3 1_555 1_555
H11 O3 1_555 1_555
Co1A O1A 1_555 1_555
O1A C1A 1_555 1_555
O1F Co1 1_555 1_555
O2A Pr1 1_555 1_555
O3F Co1 1_555 1_555
C1A O5A 1_555 1_555
C2A O2A 1_555 1_555
C3A O4A 1_555 1_555
O4A Pr1 1_555 1_555
N1A Pr1 1_555 1_555
O5A Pr1 1_555 1_555
N2F Co1 1_555 1_555
O6A C2A 1_555 1_555
C4A H1A 1_555 1_555
C5A N4 1_555 1_555
C6A C11 1_555 1_555
H2A C6A 1_555 1_555
O7A C3A 1_555 1_555
C7F N2F 1_555 1_555
H3F C7F 1_555 1_555
C8A H4A 1_555 1_555
C9A C2A 1_555 1_555
C10A C1A 1_555 1_555
N3F C7F 1_555 1_555
H5F N3F 1_555 1_555
C12A C4A 1_555 1_555
H7A C12A 1_555 1_555
C13F N2F 1_555 1_555
H8F C13F 1_555 1_555
C14F N3F 1_555 1_555
H9F C14F 1_555 1_555
N5F C15F 1_555 1_555
C15F N6 1_555 1_555
N6F C15 1_555 1_555
C16F N6F 1_555 1_555
C17F N5F 1_555 1_555
H10F O3F 1_555 1_555
H11F O3F 1_555 1_555
N1 C9 1_555 1_555
N1 C10 1_555 1_555
C4 C10 1_555 1_555
C5 N4 1_555 1_555
C8 C9 1_555 1_555
C8 C12 1_555 1_555
C13 C14 1_555 1_555
N6 N6F 1_555 1_555
C3A C5A 1_555 1_555
N1A C9A 1_555 1_555
N1A C10A 1_555 1_555
C4A C10A 1_555 1_555
C5A C6A 1_555 1_555
C8A C9A 1_555 1_555
C8A C12A 1_555 1_555
C13F C14F 1_555 1_555
C15F N6F 1_555 1_555
C16F C17F 1_555 1_555

#END
