
#######################################################################
#
#                 Cambridge Crystallographic Data Centre
#                                CCDC 
#
#######################################################################
#
# If this CIF has been generated from an entry in the Cambridge 
# Structural Database, then it will include bibliographic, chemical, 
# crystal, experimental, refinement or atomic coordinate data resulting 
# from the CCDC's data processing and validation procedures.
#
#######################################################################

data_ODENAO
_symmetry_cell_setting           orthorhombic
_symmetry_space_group_name_H-M   'P b c n'
_symmetry_Int_Tables_number      60
_space_group_name_Hall           '-P 2n 2ab'
loop_
_symmetry_equiv_pos_site_id
_symmetry_equiv_pos_as_xyz
1 x,y,z
2 1/2-x,1/2-y,1/2+z
3 1/2+x,1/2-y,-z
4 -x,y,1/2-z
5 -x,-y,-z
6 1/2+x,1/2+y,1/2-z
7 1/2-x,1/2+y,z
8 x,-y,1/2+z
_cell_length_a                   21.1956(2)
_cell_length_b                   9.89160(10)
_cell_length_c                   15.4139(2)
_cell_angle_alpha                90
_cell_angle_beta                 90
_cell_angle_gamma                90
_cell_volume                     3231.65
loop_
_atom_site_label
_atom_site_type_symbol
_atom_site_fract_x
_atom_site_fract_y
_atom_site_fract_z
Co1 Co 0.080963(14) 0.12627(3) 0.70472(2)
P1 P 0.04200(2) 0.33596(5) 0.55005(3)
O1 O 0.0000 0.2533(2) 0.7500
O2 O 0.08059(7) 0.44279(16) 0.49547(10)
O3 O -0.01029(7) 0.40456(15) 0.60135(9)
O4 O 0.08914(6) 0.26311(15) 0.60507(9)
O5 O 0.07812(7) -0.0095(2) 0.31297(12)
O6 O -0.02106(7) 0.00160(16) 0.36274(10)
N1 N 0.16115(8) 0.02783(18) 0.65033(11)
N2 N 0.15941(8) 0.22833(18) 0.76800(11)
C1 C 0.21301(13) 0.3864(3) 0.86037(17)
C2 C 0.27544(10) 0.0315(2) 0.64359(15)
C3 C 0.33223(11) 0.1879(3) 0.73523(18)
C4 C 0.00688(10) 0.2228(2) 0.47244(13)
C5 C 0.27411(10) 0.2399(2) 0.76956(15)
C6 C 0.15814(11) 0.3257(3) 0.82689(15)
C7 C 0.21765(9) 0.0789(2) 0.67616(13)
C8 C 0.03520(10) 0.0386(2) 0.35999(13)
C9 C 0.16086(11) -0.0682(2) 0.59037(15)
C10 C 0.21664(9) 0.1848(2) 0.73982(13)
C11 C 0.05732(11) 0.1469(3) 0.42286(18)
C12 C 0.27338(11) -0.0714(3) 0.58063(17)
C13 C 0.21644(13) -0.1198(3) 0.55350(17)
C14 C 0.27067(12) 0.3441(3) 0.83105(17)
C15 C 0.33301(11) 0.0885(3) 0.67571(18)
H1 H -0.0189(14) 0.274(3) 0.4341(19)
H2 H -0.0197(13) 0.159(3) 0.5050(17)
H3 H 0.2091(13) 0.459(3) 0.9049(19)
H4 H 0.3095(16) -0.101(3) 0.553(2)
H5 H 0.1211(13) -0.103(3) 0.5746(17)
H6 H 0.3686(15) 0.058(3) 0.654(2)
H7 H 0.1183(15) 0.357(3) 0.847(2)
H8 H 0.0842(17) 0.101(4) 0.462(3)
H9 H 0.3684(16) 0.221(3) 0.754(2)
H10 H 0.2157(14) -0.196(3) 0.514(2)
H11 H 0.3047(15) 0.381(3) 0.854(2)
H12 H 0.0828(17) 0.206(4) 0.392(2)
H13 H 0.0616(19) 0.493(4) 0.460(3)
H14 H 0.0087(15) 0.310(3) 0.7948(18)
Co1C Co -0.080963(14) 0.12627(3) 0.79528(2)
Co1G Co 0.080963(14) -0.12627(3) 0.20472(2)
Co1D Co -0.080963(14) -0.12627(3) 0.29528(2)
Co1G_2 Co 0.080963(14) -0.12627(3) 1.20472(2)
P1G P 0.04200(2) -0.33596(5) 1.05005(3)
O2G O 0.08059(7) -0.44279(16) 0.99547(10)
O3G O -0.01029(7) -0.40456(15) 1.10135(9)
O4G O 0.08914(6) -0.26311(15) 1.10507(9)
O4C O -0.08914(6) 0.26311(15) 0.89493(9)
O5G O 0.07812(7) 0.0095(2) 0.81297(12)
O5D O -0.07812(7) 0.0095(2) 0.68703(12)
O6G O -0.02106(7) -0.00160(16) 0.86274(10)
O6D O 0.02106(7) -0.00160(16) 0.63726(10)
N1C N -0.16115(8) 0.02783(18) 0.84967(11)
N2C N -0.15941(8) 0.22833(18) 0.73200(11)
C1C C -0.21301(13) 0.3864(3) 0.63963(17)
C2C C -0.27544(10) 0.0315(2) 0.85641(15)
C3C C -0.33223(11) 0.1879(3) 0.76477(18)
C4G C 0.00688(10) -0.2228(2) 0.97244(13)
C5C C -0.27411(10) 0.2399(2) 0.73044(15)
C6C C -0.15814(11) 0.3257(3) 0.67311(15)
C7C C -0.21765(9) 0.0789(2) 0.82384(13)
C8G C 0.03520(10) -0.0386(2) 0.85999(13)
C9C C -0.16086(11) -0.0682(2) 0.90963(15)
C10C C -0.21664(9) 0.1848(2) 0.76018(13)
C11G C 0.05732(11) -0.1469(3) 0.92286(18)
C12C C -0.27338(11) -0.0714(3) 0.91937(17)
C13C C -0.21644(13) -0.1198(3) 0.94650(17)
C14C C -0.27067(12) 0.3441(3) 0.66895(17)
C15C C -0.33301(11) 0.0885(3) 0.82429(18)
H1G H -0.0189(14) -0.274(3) 0.9341(19)
H2G H -0.0197(13) -0.159(3) 1.0050(17)
H3C H -0.2091(13) 0.459(3) 0.5951(19)
H4C H -0.3095(16) -0.101(3) 0.947(2)
H5C H -0.1211(13) -0.103(3) 0.9254(17)
H6C H -0.3686(15) 0.058(3) 0.846(2)
H7C H -0.1183(15) 0.357(3) 0.653(2)
H8G H 0.0842(17) -0.101(4) 0.962(3)
H9C H -0.3684(16) 0.221(3) 0.746(2)
H10C H -0.2157(14) -0.196(3) 0.986(2)
H11C H -0.3047(15) 0.381(3) 0.646(2)
H12G H 0.0828(17) -0.206(4) 0.892(2)
H13G H 0.0616(19) -0.493(4) 0.960(3)
H14C H -0.0087(15) 0.310(3) 0.7052(18)
O7 O 0.0000 0.6080(6) 0.7500
H15 H 0.0049(18) 0.572(4) 0.6949(12)
H15C H -0.0049(18) 0.572(4) 0.8051(12)
loop_
_geom_bond_atom_site_label_1
_geom_bond_atom_site_label_2
_geom_bond_site_symmetry_1
_geom_bond_site_symmetry_2
Co1 O1 1_555 1_555
P1 O2 1_555 1_555
O1 H14 1_555 1_555
O2 H13 1_555 1_555
O3 P1 1_555 1_555
O4 Co1 1_555 1_555
O5 C8 1_555 1_555
O6 C8 1_555 1_555
N1 Co1 1_555 1_555
N2 Co1 1_555 1_555
C1 C6 1_555 1_555
C2 C7 1_555 1_555
O7 H15 1_555 1_555
C3 C5 1_555 1_555
C4 P1 1_555 1_555
C5 C10 1_555 1_555
C6 N2 1_555 1_555
C7 N1 1_555 1_555
C8 C11 1_555 1_555
C9 N1 1_555 1_555
C10 N2 1_555 1_555
C11 C4 1_555 1_555
C12 C2 1_555 1_555
C13 C9 1_555 1_555
C14 C1 1_555 1_555
C15 C2 1_555 1_555
H1 C4 1_555 1_555
H2 C4 1_555 1_555
H3 C1 1_555 1_555
H4 C12 1_555 1_555
H5 C9 1_555 1_555
H6 C15 1_555 1_555
H7 C6 1_555 1_555
H8 C11 1_555 1_555
H9 C3 1_555 1_555
H10 C13 1_555 1_555
H11 C14 1_555 1_555
H12 C11 1_555 1_555
Co1C O1 1_555 1_555
Co1G O5 1_555 1_555
Co1D O6 1_555 1_555
Co1G_2 O4G 1_555 1_555
P1G O2G 1_555 1_555
O2G H13G 1_555 1_555
O3G P1G 1_555 1_555
O4G P1G 1_555 1_555
O4C Co1C 1_555 1_555
O5G Co1 1_555 1_555
O5D Co1C 1_555 1_555
O6G Co1C 1_555 1_555
O6D Co1 1_555 1_555
N1C Co1C 1_555 1_555
N2C Co1C 1_555 1_555
C1C C6C 1_555 1_555
C2C C7C 1_555 1_555
C3C C5C 1_555 1_555
C4G P1G 1_555 1_555
C5C C10C 1_555 1_555
C6C N2C 1_555 1_555
C7C N1C 1_555 1_555
C8G O5G 1_555 1_555
C9C N1C 1_555 1_555
C10C N2C 1_555 1_555
C11G C4G 1_555 1_555
C12C C2C 1_555 1_555
C13C C9C 1_555 1_555
C14C C1C 1_555 1_555
C15C C2C 1_555 1_555
H1G C4G 1_555 1_555
H2G C4G 1_555 1_555
H3C C1C 1_555 1_555
H4C C12C 1_555 1_555
H5C C9C 1_555 1_555
H6C C15C 1_555 1_555
H7C C6C 1_555 1_555
H8G C11G 1_555 1_555
H9C C3C 1_555 1_555
H10C C13C 1_555 1_555
H11C C14C 1_555 1_555
H12G C11G 1_555 1_555
H14C O1 1_555 1_555
H15C O7 1_555 1_555
P1 O4 1_555 1_555
C3 C15 1_555 1_555
C5 C14 1_555 1_555
C7 C10 1_555 1_555
C12 C13 1_555 1_555
O6G C8G 1_555 1_555
C3C C15C 1_555 1_555
C5C C14C 1_555 1_555
C7C C10C 1_555 1_555
C8G C11G 1_555 1_555
C12C C13C 1_555 1_555

#END
