
#######################################################################
#
#                 Cambridge Crystallographic Data Centre
#                                CCDC 
#
#######################################################################
#
# If this CIF has been generated from an entry in the Cambridge 
# Structural Database, then it will include bibliographic, chemical, 
# crystal, experimental, refinement or atomic coordinate data resulting 
# from the CCDC's data processing and validation procedures.
#
#######################################################################

data_ODENAO01
_symmetry_cell_setting           orthorhombic
_symmetry_space_group_name_H-M   'P b c n'
_symmetry_Int_Tables_number      60
_space_group_name_Hall           '-P 2n 2ab'
loop_
_symmetry_equiv_pos_site_id
_symmetry_equiv_pos_as_xyz
1 x,y,z
2 1/2-x,1/2-y,1/2+z
3 1/2+x,1/2-y,-z
4 -x,y,1/2-z
5 -x,-y,-z
6 1/2+x,1/2+y,1/2-z
7 1/2-x,1/2+y,z
8 x,-y,1/2+z
_cell_length_a                   21.1057(2)
_cell_length_b                   9.82310(10)
_cell_length_c                   15.42510(10)
_cell_angle_alpha                90
_cell_angle_beta                 90
_cell_angle_gamma                90
_cell_volume                     3197.98
loop_
_atom_site_label
_atom_site_type_symbol
_atom_site_fract_x
_atom_site_fract_y
_atom_site_fract_z
Co1 Co 0.081246(16) 0.87334(3) 0.29479(2)
P1 P 0.04224(3) 0.66243(5) 0.44883(3)
O1 O 0.0000 0.7466(2) 0.2500
O2 O 0.08092(7) 0.55474(16) 0.50375(10)
O3 O -0.01014(7) 0.59330(16) 0.39703(10)
O4 O 0.08983(7) 0.73590(16) 0.39404(9)
O5 O 0.07871(7) 1.00832(19) 0.68699(11)
N1 N 0.15989(9) 0.77048(19) 0.23179(11)
O6 O -0.02126(7) 0.99841(16) 0.63664(10)
C1 C 0.21656(11) 1.1227(2) 0.44607(16)
C2 C 0.33368(11) 0.8110(3) 0.26470(16)
C3 C 0.33418(11) 0.9118(3) 0.32438(16)
N2 N 0.16140(9) 0.97277(19) 0.34907(12)
C4 C 0.27532(10) 0.7591(2) 0.23070(14)
C5 C 0.27632(11) 0.9698(2) 0.35629(15)
C6 C 0.15855(11) 0.6714(2) 0.17281(15)
C7 C 0.00690(10) 0.7764(2) 0.52618(14)
C8 C 0.21392(12) 0.6103(3) 0.13974(15)
C9 C 0.27404(11) 1.0743(3) 0.41941(15)
C10 C 0.03560(10) 0.9608(2) 0.63948(14)
C11 C 0.27190(12) 0.6528(3) 0.16895(16)
C12 C 0.05774(11) 0.8528(3) 0.57552(17)
C13 C 0.21825(11) 0.9214(2) 0.32368(14)
C14 C 0.21754(10) 0.8142(2) 0.25992(14)
C15 C 0.16061(11) 1.0702(2) 0.40908(15)
H1 H 0.2079(13) 0.538(3) 0.0960(18)
H2 H -0.0196(15) 0.727(3) 0.564(2)
H3 H -0.0199(13) 0.836(3) 0.4949(17)
H4 H 0.3112(15) 1.101(3) 0.446(2)
H5 H 0.0844(15) 0.897(3) 0.533(2)
H6 H 0.3693(15) 0.946(3) 0.3454(18)
H7 H 0.1173(13) 1.106(3) 0.4239(18)
H8 H 0.1167(15) 0.639(3) 0.1558(19)
H9 H 0.3703(14) 0.775(3) 0.2452(18)
H10 H 0.0858(15) 0.793(3) 0.606(2)
H11 H 0.2147(14) 1.204(3) 0.488(2)
H12 H 0.3090(18) 0.618(3) 0.145(2)
H13 H 0.0623(19) 0.505(4) 0.540(3)
H14 H -0.007(2) 0.698(4) 0.292(2)
Co1C Co -0.081246(16) 0.87334(3) 0.20521(2)
Co1G Co 0.081246(16) 1.12666(3) 0.79479(2)
Co1D Co -0.081246(16) 1.12666(3) 0.70521(2)
Co1G_2 Co 0.081246(16) 1.12666(3) -0.20521(2)
P1G P 0.04224(3) 1.33757(5) -0.05117(3)
O2G O 0.08092(7) 1.44526(16) 0.00375(10)
O3G O -0.01014(7) 1.40670(16) -0.10297(10)
O4G O 0.08983(7) 1.26410(16) -0.10596(9)
O4C O -0.08983(7) 0.73590(16) 0.10596(9)
O5G O 0.07871(7) 0.99168(19) 0.18699(11)
O5D O -0.07871(7) 0.99168(19) 0.31301(11)
N1C N -0.15989(9) 0.77048(19) 0.26821(11)
O6G O -0.02126(7) 1.00159(16) 0.13664(10)
O6D O 0.02126(7) 1.00159(16) 0.36336(10)
C1C C -0.21656(11) 1.1227(2) 0.05393(16)
C2C C -0.33368(11) 0.8110(3) 0.23530(16)
C3C C -0.33418(11) 0.9118(3) 0.17562(16)
N2C N -0.16140(9) 0.97277(19) 0.15093(12)
C4C C -0.27532(10) 0.7591(2) 0.26930(14)
C5C C -0.27632(11) 0.9698(2) 0.14371(15)
C6C C -0.15855(11) 0.6714(2) 0.32719(15)
C7G C 0.00690(10) 1.2236(2) 0.02618(14)
C8C C -0.21392(12) 0.6103(3) 0.36026(15)
C9C C -0.27404(11) 1.0743(3) 0.08059(15)
C10G C 0.03560(10) 1.0392(2) 0.13948(14)
C11C C -0.27190(12) 0.6528(3) 0.33105(16)
C12G C 0.05774(11) 1.1472(3) 0.07552(17)
C13C C -0.21825(11) 0.9214(2) 0.17632(14)
C14C C -0.21754(10) 0.8142(2) 0.24008(14)
C15C C -0.16061(11) 1.0702(2) 0.09092(15)
H1C H -0.2079(13) 0.538(3) 0.4040(18)
H2G H -0.0196(15) 1.273(3) 0.064(2)
H3G H -0.0199(13) 1.164(3) -0.0051(17)
H4C H -0.3112(15) 1.101(3) 0.054(2)
H5G H 0.0844(15) 1.103(3) 0.033(2)
H6C H -0.3693(15) 0.946(3) 0.1546(18)
H7C H -0.1173(13) 1.106(3) 0.0761(18)
H8C H -0.1167(15) 0.639(3) 0.3442(19)
H9C H -0.3703(14) 0.775(3) 0.2548(18)
H10G H 0.0858(15) 1.207(3) 0.106(2)
H11C H -0.2147(14) 1.204(3) 0.012(2)
H12C H -0.3090(18) 0.618(3) 0.355(2)
H13G H 0.0623(19) 1.495(4) 0.040(3)
H14C H 0.007(2) 0.698(4) 0.208(2)
O7 O 0.0000 0.3891(4) 0.2500
H15 H -0.006(2) 0.439(4) 0.3009(16)
H15C H 0.006(2) 0.439(4) 0.1991(16)
loop_
_geom_bond_atom_site_label_1
_geom_bond_atom_site_label_2
_geom_bond_site_symmetry_1
_geom_bond_site_symmetry_2
Co1 O1 1_555 1_555
P1 O2 1_555 1_555
O1 H14 1_555 1_555
O2 H13 1_555 1_555
O3 P1 1_555 1_555
O4 Co1 1_555 1_555
O5 C10 1_555 1_555
N1 Co1 1_555 1_555
O6 C10 1_555 1_555
C1 C9 1_555 1_555
C2 C3 1_555 1_555
C3 C5 1_555 1_555
N2 Co1 1_555 1_555
C4 C2 1_555 1_555
C5 C9 1_555 1_555
C6 N1 1_555 1_555
C7 P1 1_555 1_555
C8 C6 1_555 1_555
C9 H4 1_555 1_555
C10 C12 1_555 1_555
C11 C4 1_555 1_555
C12 C7 1_555 1_555
C13 N2 1_555 1_555
C14 N1 1_555 1_555
C15 C1 1_555 1_555
O7 H15 1_555 1_555
H1 C8 1_555 1_555
H2 C7 1_555 1_555
H3 C7 1_555 1_555
H5 C12 1_555 1_555
H6 C3 1_555 1_555
H7 C15 1_555 1_555
H8 C6 1_555 1_555
H9 C2 1_555 1_555
H10 C12 1_555 1_555
H11 C1 1_555 1_555
H12 C11 1_555 1_555
Co1C O1 1_555 1_555
Co1G O5 1_555 1_555
Co1D O6 1_555 1_555
Co1G_2 O4G 1_555 1_555
P1G O2G 1_555 1_555
O2G H13G 1_555 1_555
O3G P1G 1_555 1_555
O4G P1G 1_555 1_555
O4C Co1C 1_555 1_555
O5G Co1 1_555 1_555
O5D Co1C 1_555 1_555
N1C Co1C 1_555 1_555
O6G Co1C 1_555 1_555
O6D Co1 1_555 1_555
C1C C9C 1_555 1_555
C2C C3C 1_555 1_555
C3C C5C 1_555 1_555
N2C Co1C 1_555 1_555
C4C C2C 1_555 1_555
C5C C9C 1_555 1_555
C6C N1C 1_555 1_555
C7G P1G 1_555 1_555
C8C C6C 1_555 1_555
C9C H4C 1_555 1_555
C10G O5G 1_555 1_555
C11C C4C 1_555 1_555
C12G C7G 1_555 1_555
C13C N2C 1_555 1_555
C14C N1C 1_555 1_555
C15C C1C 1_555 1_555
H1C C8C 1_555 1_555
H2G C7G 1_555 1_555
H3G C7G 1_555 1_555
H5G C12G 1_555 1_555
H6C C3C 1_555 1_555
H7C C15C 1_555 1_555
H8C C6C 1_555 1_555
H9C C2C 1_555 1_555
H10G C12G 1_555 1_555
H11C C1C 1_555 1_555
H12C C11C 1_555 1_555
H14C O1 1_555 1_555
H15C O7 1_555 1_555
P1 O4 1_555 1_555
N2 C15 1_555 1_555
C4 C14 1_555 1_555
C5 C13 1_555 1_555
C8 C11 1_555 1_555
C13 C14 1_555 1_555
O6G C10G 1_555 1_555
N2C C15C 1_555 1_555
C4C C14C 1_555 1_555
C5C C13C 1_555 1_555
C8C C11C 1_555 1_555
C10G C12G 1_555 1_555
C13C C14C 1_555 1_555

#END
