
#######################################################################
#
#                 Cambridge Crystallographic Data Centre
#                                CCDC 
#
#######################################################################
#
# If this CIF has been generated from an entry in the Cambridge 
# Structural Database, then it will include bibliographic, chemical, 
# crystal, experimental, refinement or atomic coordinate data resulting 
# from the CCDC's data processing and validation procedures.
#
#######################################################################

data_ODENIV
_symmetry_cell_setting           monoclinic
_symmetry_space_group_name_H-M   'P 21/c'
_symmetry_Int_Tables_number      14
_space_group_name_Hall           '-P 2ybc'
loop_
_symmetry_equiv_pos_site_id
_symmetry_equiv_pos_as_xyz
1 x,y,z
2 -x,1/2+y,1/2-z
3 -x,-y,-z
4 x,1/2-y,1/2+z
_cell_length_a                   11.2065(4)
_cell_length_b                   17.4485(3)
_cell_length_c                   11.3728(4)
_cell_angle_alpha                90
_cell_angle_beta                 98.1630(10)
_cell_angle_gamma                90
_cell_volume                     2201.27
loop_
_atom_site_label
_atom_site_type_symbol
_atom_site_fract_x
_atom_site_fract_y
_atom_site_fract_z
Sm1 Sm 0.102796(11) 0.181254(7) 0.774431(10)
Na1 Na 0.08028(12) 0.12142(7) 1.11494(11)
N1 N 0.3268(2) 0.15540(13) 0.78946(18)
O1 O 0.3317(2) 0.14824(14) 0.48054(17)
O2 O 0.18328(19) 0.16788(12) 0.58886(17)
O3 O 0.3800(2) 0.17141(15) 1.10109(19)
O4 O 0.21058(18) 0.16585(13) 0.97242(17)
C1 C 0.2934(3) 0.15591(16) 0.5767(2)
C2 C 0.3796(2) 0.15293(17) 0.6910(2)
C3 C 0.5037(3) 0.1523(2) 0.6958(3)
H1 H 0.5387 0.1488 0.6267
C4 C 0.5747(3) 0.1570(3) 0.8057(3)
H2 H 0.6583 0.1569 0.8112
C5 C 0.5201(3) 0.1618(3) 0.9069(3)
H3 H 0.5661 0.1665 0.9813
C6 C 0.3956(3) 0.15934(18) 0.8955(2)
C7 C 0.3240(3) 0.16562(17) 0.9990(2)
N2 N -0.0648(2) 0.11795(13) 0.63391(19)
O5 O -0.03307(18) 0.26630(11) 0.64738(17)
O6 O -0.2002(2) 0.28990(13) 0.5209(2)
O7 O 0.10578(18) 0.04169(13) 0.76633(17)
O8 O 0.0160(2) -0.07055(12) 0.7216(2)
C8 C -0.1269(2) 0.24589(16) 0.5790(2)
C9 C -0.1463(2) 0.16042(17) 0.5652(2)
C10 C -0.2356(3) 0.12771(19) 0.4838(3)
H4 H -0.2919 0.1581 0.4373
C11 C -0.2390(3) 0.0490(2) 0.4735(3)
H5 H -0.2972 0.0256 0.4187
C12 C -0.1552(3) 0.00475(18) 0.5450(3)
H6 H -0.1564 -0.0484 0.5395
C13 C -0.0693(2) 0.04196(16) 0.6252(2)
C14 C 0.0243(3) -0.00019(15) 0.7095(2)
O9 O -0.0451(2) 0.12687(13) 0.9033(2)
H7 H -0.094 0.1591 0.927
H8 H -0.084 0.0863 0.880
O10 O 0.21951(19) 0.30604(12) 0.75680(18)
H9 H 0.248 0.326 0.8231
H10 H 0.272 0.308 0.710
O11 O 0.03015(19) 0.28534(12) 0.89442(16)
H11 H 0.006 0.3247 0.854
H12 H 0.083 0.2981 0.952
O12 O 0.1904(2) 0.00345(15) 1.1342(2)
H13 H 0.220 -0.006 1.071
H14 H 0.247 0.008 1.192
Na1C Na 0.08028(12) 0.37858(7) 0.61494(11)
Na1B Na -0.08028(12) -0.12142(7) 0.88506(11)
O5C O -0.03307(18) 0.23370(11) 1.14738(17)
O8B O -0.0160(2) 0.07055(12) 1.2784(2)
O10C O 0.21951(19) 0.19396(12) 1.25680(18)
H9C H 0.248 0.174 1.3231
H10C H 0.272 0.192 1.210
O13 O 0.2530(3) -0.05242(17) 0.9220(2)
H15 H 0.231 -0.0993 0.924
H16 H 0.205 -0.029 0.868
O14 O 0.5694(4) 0.4115(4) 0.7266(4)
H17 H 0.517 0.387 0.680
H18 H 0.619 0.432 0.686
O15 O 0.3811(4) 0.4793(2) 0.8188(3)
H19 H 0.390 0.450 0.879
H20 H 0.438 0.471 0.778
loop_
_geom_bond_atom_site_label_1
_geom_bond_atom_site_label_2
_geom_bond_site_symmetry_1
_geom_bond_site_symmetry_2
Sm1 N1 1_555 1_555
Na1 O4 1_555 1_555
N1 C2 1_555 1_555
O1 C1 1_555 1_555
O2 Sm1 1_555 1_555
O3 C7 1_555 1_555
O4 Sm1 1_555 1_555
C1 O2 1_555 1_555
C2 C1 1_555 1_555
C3 C2 1_555 1_555
H1 C3 1_555 1_555
C4 C3 1_555 1_555
H2 C4 1_555 1_555
C5 C4 1_555 1_555
H3 C5 1_555 1_555
C6 N1 1_555 1_555
C7 O4 1_555 1_555
N2 Sm1 1_555 1_555
O5 Sm1 1_555 1_555
O6 C8 1_555 1_555
O7 Sm1 1_555 1_555
O8 C14 1_555 1_555
C8 O5 1_555 1_555
C9 N2 1_555 1_555
C10 C9 1_555 1_555
H4 C10 1_555 1_555
C11 C10 1_555 1_555
H5 C11 1_555 1_555
C12 C11 1_555 1_555
H6 C12 1_555 1_555
C13 N2 1_555 1_555
C14 O7 1_555 1_555
O9 Sm1 1_555 1_555
H7 O9 1_555 1_555
H8 O9 1_555 1_555
O10 Sm1 1_555 1_555
H9 O10 1_555 1_555
H10 O10 1_555 1_555
O11 Sm1 1_555 1_555
H11 O11 1_555 1_555
H12 O11 1_555 1_555
O12 Na1 1_555 1_555
H13 O12 1_555 1_555
H14 O12 1_555 1_555
O13 H15 1_555 1_555
H16 O13 1_555 1_555
O14 H17 1_555 1_555
H18 O14 1_555 1_555
O15 H19 1_555 1_555
H20 O15 1_555 1_555
Na1C O5 1_555 1_555
Na1B O8 1_555 1_555
O5C Na1 1_555 1_555
O8B Na1 1_555 1_555
O10C Na1 1_555 1_555
H9C O10C 1_555 1_555
H10C O10C 1_555 1_555
Na1 O9 1_555 1_555
C5 C6 1_555 1_555
C6 C7 1_555 1_555
C8 C9 1_555 1_555
C12 C13 1_555 1_555
C13 C14 1_555 1_555
O10 Na1C 1_555 1_555

#END
