
#######################################################################
#
#                 Cambridge Crystallographic Data Centre
#                                CCDC 
#
#######################################################################
#
# If this CIF has been generated from an entry in the Cambridge 
# Structural Database, then it will include bibliographic, chemical, 
# crystal, experimental, refinement or atomic coordinate data resulting 
# from the CCDC's data processing and validation procedures.
#
#######################################################################

data_ODEQIX01
_symmetry_cell_setting           tetragonal
_symmetry_space_group_name_H-M   'P -4 b 2'
_symmetry_Int_Tables_number      117
_space_group_name_Hall           'P -4 -2ab'
loop_
_symmetry_equiv_pos_site_id
_symmetry_equiv_pos_as_xyz
1 x,y,z
2 -x,-y,z
3 y,-x,-z
4 -y,x,-z
5 1/2+x,1/2-y,z
6 1/2-x,1/2+y,z
7 1/2+y,1/2+x,-z
8 1/2-y,1/2-x,-z
_cell_length_a                   14.4457(3)
_cell_length_b                   14.4457(3)
_cell_length_c                   3.9345(1)
_cell_angle_alpha                90
_cell_angle_beta                 90
_cell_angle_gamma                90
_cell_volume                     821.045
loop_
_atom_site_label
_atom_site_type_symbol
_atom_site_fract_x
_atom_site_fract_y
_atom_site_fract_z
Cd1 Cd 0.5000 0.0000 0.5000
Br1 Br 0.404720(5) 0.095280(5) 0.0000
N1 N 0.61526(5) 0.11526(5) 0.5000
C1 C 0.59616(8) 0.20127(8) 0.6038(3)
H1 H 0.5349 0.2148 0.6768
C2 C 0.66155(8) 0.27183(8) 0.6101(3)
C3 C 0.75039(6) 0.25039(6) 0.5000
H2 H 0.7969 0.2969 0.5000
C4 C 0.63666(11) 0.36715(9) 0.7325(4)
H3 H 0.6883 0.3928 0.8635
H4 H 0.5815 0.3637 0.8770
H5 H 0.6239 0.4071 0.5368
Cd1_2 Cd 0.5000 0.0000 -0.5000
Br1_2 Br 0.404720(5) 0.095280(5) 1.0000
Br1A Br 0.595280(5) -0.095280(5) 0.0000
Br1A_2 Br 0.595280(5) -0.095280(5) 1.0000
N1A N 0.38474(5) -0.11526(5) 0.5000
C1F C 0.70127(8) 0.09616(8) 0.3962(3)
C1A C 0.40384(8) -0.20127(8) 0.6038(3)
C1G C 0.29873(8) -0.09616(8) 0.3962(3)
H1F H 0.7148 0.0349 0.3232
H1A H 0.4651 -0.2148 0.6768
H1G H 0.2852 -0.0349 0.3232
C2F C 0.77183(8) 0.16155(8) 0.3899(3)
C2A C 0.33845(8) -0.27183(8) 0.6101(3)
C2G C 0.22817(8) -0.16155(8) 0.3899(3)
C3A C 0.24961(6) -0.25039(6) 0.5000
H2A H 0.2031 -0.2969 0.5000
C4F C 0.86715(9) 0.13666(11) 0.2675(4)
C4A C 0.36334(11) -0.36715(9) 0.7325(4)
C4G C 0.13285(9) -0.13666(11) 0.2675(4)
H3F H 0.8928 0.1883 0.1365
H3A H 0.3117 -0.3928 0.8635
H3G H 0.1072 -0.1883 0.1365
H4F H 0.8637 0.0815 0.1230
H4A H 0.4185 -0.3637 0.8770
H4G H 0.1363 -0.0815 0.1230
H5F H 0.9071 0.1239 0.4632
H5A H 0.3761 -0.4071 0.5368
H5G H 0.0929 -0.1239 0.4632
loop_
_geom_bond_atom_site_label_1
_geom_bond_atom_site_label_2
_geom_bond_site_symmetry_1
_geom_bond_site_symmetry_2
Cd1 Br1 1_555 1_555
Br1 Cd1_2 1_555 1_555
N1 Cd1 1_555 1_555
C1 N1 1_555 1_555
H1 C1 1_555 1_555
C2 C1 1_555 1_555
C3 C2 1_555 1_555
H2 C3 1_555 1_555
C4 C2 1_555 1_555
H3 C4 1_555 1_555
H4 C4 1_555 1_555
H5 C4 1_555 1_555
Cd1_2 Br1A 1_555 1_555
Br1_2 Cd1 1_555 1_555
Br1A Cd1 1_555 1_555
Br1A_2 Cd1 1_555 1_555
N1A Cd1 1_555 1_555
C1F N1 1_555 1_555
C1A N1A 1_555 1_555
C1G N1A 1_555 1_555
H1F C1F 1_555 1_555
H1A C1A 1_555 1_555
H1G C1G 1_555 1_555
C2F C3 1_555 1_555
C2A C1A 1_555 1_555
C2G C1G 1_555 1_555
C3A C2A 1_555 1_555
H2A C3A 1_555 1_555
C4F C2F 1_555 1_555
C4A C2A 1_555 1_555
C4G C2G 1_555 1_555
H3F C4F 1_555 1_555
H3A C4A 1_555 1_555
H3G C4G 1_555 1_555
H4F C4F 1_555 1_555
H4A C4A 1_555 1_555
H4G C4G 1_555 1_555
H5F C4F 1_555 1_555
H5A C4A 1_555 1_555
H5G C4G 1_555 1_555
C1F C2F 1_555 1_555
C2G C3A 1_555 1_555

#END
