
#######################################################################
#
#                 Cambridge Crystallographic Data Centre
#                                CCDC 
#
#######################################################################
#
# If this CIF has been generated from an entry in the Cambridge 
# Structural Database, then it will include bibliographic, chemical, 
# crystal, experimental, refinement or atomic coordinate data resulting 
# from the CCDC's data processing and validation procedures.
#
#######################################################################

data_ODEQUJ
_symmetry_cell_setting           monoclinic
_symmetry_space_group_name_H-M   'C 2/m'
_symmetry_Int_Tables_number      12
_space_group_name_Hall           '-C 2y'
loop_
_symmetry_equiv_pos_site_id
_symmetry_equiv_pos_as_xyz
1 x,y,z
2 1/2+x,1/2+y,z
3 x,-y,z
4 1/2+x,1/2-y,z
5 -x,-y,-z
6 1/2-x,1/2-y,-z
7 -x,y,-z
8 1/2-x,1/2+y,-z
_cell_length_a                   20.765(3)
_cell_length_b                   21.233(3)
_cell_length_c                   4.1428(6)
_cell_angle_alpha                90
_cell_angle_beta                 98.296(4)
_cell_angle_gamma                90
_cell_volume                     1807.46
loop_
_atom_site_label
_atom_site_type_symbol
_atom_site_fract_x
_atom_site_fract_y
_atom_site_fract_z
Cd1 Cd 0.0000 0.0000 0.0000
I1 I 0.0000 0.097810(19) -0.5000
Br1 Br 0.25135(3) 0.13301(3) -0.12445(19)
N1 N 0.1188(3) 0.0000 0.0590(14)
C1 C 0.1496(2) 0.0541(2) 0.0229(12)
H1 H 0.1279 0.0940 0.0591
C2 C 0.2110(2) 0.0552(2) -0.0639(12)
C3 C 0.2420(3) 0.0000 -0.1146(17)
H2 H 0.2850 0.0000 -0.1851
C1B C 0.1496(2) -0.0541(2) 0.0229(12)
H1B H 0.1279 -0.0940 0.0591
C2B C 0.2110(2) -0.0552(2) -0.0639(12)
Br1B Br 0.25135(3) -0.13301(3) -0.12445(19)
I1_2 I 0.0000 0.097810(19) 0.5000
Br1D Br -0.25135(3) -0.13301(3) 0.12445(19)
N1D N -0.1188(3) 0.0000 -0.0590(14)
C1D C -0.1496(2) -0.0541(2) -0.0229(12)
H1D H -0.1279 -0.0940 -0.0591
C2D C -0.2110(2) -0.0552(2) 0.0639(12)
C3D C -0.2420(3) 0.0000 0.1146(17)
H2D H -0.2850 0.0000 0.1851
C1F C -0.1496(2) 0.0541(2) -0.0229(12)
H1F H -0.1279 0.0940 -0.0591
C2F C -0.2110(2) 0.0552(2) 0.0639(12)
Br1F Br -0.25135(3) 0.13301(3) 0.12445(19)
I1B I 0.0000 -0.097810(19) -0.5000
I1B_2 I 0.0000 -0.097810(19) 0.5000
Cd1_2 Cd 0.0000 0.0000 -1.0000
Cd1_3 Cd 0.0000 0.0000 1.0000
Cd2 Cd 0.0000 0.5000 0.0000
I2 I -0.10141(2) 0.5000 -0.58237(10)
Br2 Br 0.12982(3) 0.24584(3) 0.32218(18)
N2 N 0.0000 0.3851(2) 0.0000
C4 C 0.0533(2) 0.3530(2) 0.1225(12)
H3 H 0.0928 0.3762 0.2089
C5 C 0.0540(2) 0.2880(2) 0.1304(12)
C6 C 0.0000 0.2542(3) 0.0000
H4 H 0.0000 0.2080 0.0000
C4F C -0.0533(2) 0.3530(2) -0.1225(12)
H3F H -0.0928 0.3762 -0.2089
C5F C -0.0540(2) 0.2880(2) -0.1304(12)
Br2F Br -0.12982(3) 0.24584(3) -0.32218(18)
I2_2 I -0.10141(2) 0.5000 0.41763(10)
Br2B Br 0.12982(3) 0.75416(3) 0.32218(18)
N2B N 0.0000 0.6149(2) 0.0000
C4B C 0.0533(2) 0.6470(2) 0.1225(12)
H3B H 0.0928 0.6238 0.2089
C5B C 0.0540(2) 0.7120(2) 0.1304(12)
C6B C 0.0000 0.7458(3) 0.0000
H4B H 0.0000 0.7920 0.0000
C4D C -0.0533(2) 0.6470(2) -0.1225(12)
H3D H -0.0928 0.6238 -0.2089
C5D C -0.0540(2) 0.7120(2) -0.1304(12)
Br2D Br -0.12982(3) 0.75416(3) -0.32218(18)
I2D I 0.10141(2) 0.5000 -0.41763(10)
I2D_2 I 0.10141(2) 0.5000 0.58237(10)
Cd2_2 Cd 0.0000 0.5000 -1.0000
Cd2_3 Cd 0.0000 0.5000 1.0000
loop_
_geom_bond_atom_site_label_1
_geom_bond_atom_site_label_2
_geom_bond_site_symmetry_1
_geom_bond_site_symmetry_2
Cd1 I1 1_555 1_555
I1 Cd1_2 1_555 1_555
Br1 C2 1_555 1_555
N1 Cd1 1_555 1_555
C1 N1 1_555 1_555
H1 C1 1_555 1_555
C2 C1 1_555 1_555
C3 C2 1_555 1_555
H2 C3 1_555 1_555
Cd2 I2 1_555 1_555
I2 Cd2_2 1_555 1_555
Br2 C5 1_555 1_555
N2 Cd2 1_555 1_555
C4 N2 1_555 1_555
H3 C4 1_555 1_555
C5 C4 1_555 1_555
C6 C5 1_555 1_555
H4 C6 1_555 1_555
C1B N1 1_555 1_555
H1B C1B 1_555 1_555
C2B C3 1_555 1_555
Br1B C2B 1_555 1_555
C4F N2 1_555 1_555
H3F C4F 1_555 1_555
C5F C6 1_555 1_555
Br2F C5F 1_555 1_555
I1_2 Cd1 1_555 1_555
Br1D C2D 1_555 1_555
N1D Cd1 1_555 1_555
C1D N1D 1_555 1_555
H1D C1D 1_555 1_555
C2D C1D 1_555 1_555
C3D C2D 1_555 1_555
H2D C3D 1_555 1_555
C1F N1D 1_555 1_555
H1F C1F 1_555 1_555
C2F C3D 1_555 1_555
Br1F C2F 1_555 1_555
I2_2 Cd2 1_555 1_555
Br2B C5B 1_555 1_555
N2B Cd2 1_555 1_555
C4B N2B 1_555 1_555
H3B C4B 1_555 1_555
C5B C4B 1_555 1_555
C6B C5B 1_555 1_555
H4B C6B 1_555 1_555
C4D N2B 1_555 1_555
H3D C4D 1_555 1_555
C5D C6B 1_555 1_555
Br2D C5D 1_555 1_555
I1B Cd1 1_555 1_555
I1B_2 Cd1 1_555 1_555
Cd1_2 I1B 1_555 1_555
I2D Cd2 1_555 1_555
I2D_2 Cd2 1_555 1_555
Cd2_2 I2D 1_555 1_555
Cd1_3 I1_2 1_555 1_555
Cd2_3 I2_2 1_555 1_555
C1B C2B 1_555 1_555
C4F C5F 1_555 1_555
C1F C2F 1_555 1_555
C4D C5D 1_555 1_555
I1B_2 Cd1_3 1_555 1_555
I2D_2 Cd2_3 1_555 1_555

#END
