
#######################################################################
#
#                 Cambridge Crystallographic Data Centre
#                                CCDC 
#
#######################################################################
#
# If this CIF has been generated from an entry in the Cambridge 
# Structural Database, then it will include bibliographic, chemical, 
# crystal, experimental, refinement or atomic coordinate data resulting 
# from the CCDC's data processing and validation procedures.
#
#######################################################################

data_ODEQOD
_symmetry_cell_setting           tetragonal
_symmetry_space_group_name_H-M   'I 41 m d'
_symmetry_Int_Tables_number      109
_space_group_name_Hall           'I 4bw -2'
loop_
_symmetry_equiv_pos_site_id
_symmetry_equiv_pos_as_xyz
1 x,y,z
2 1/2-x,1/2-y,1/2+z
3 -y,1/2+x,1/4+z
4 1/2+y,-x,3/4+z
5 x,-y,z
6 1/2-x,1/2+y,1/2+z
7 -y,1/2-x,1/4+z
8 1/2+y,x,3/4+z
9 1/2+x,1/2+y,1/2+z
10 -x,-y,z
11 1/2-y,x,3/4+z
12 y,1/2-x,1/4+z
13 1/2+x,1/2-y,1/2+z
14 -x,y,z
15 1/2-y,-x,3/4+z
16 y,1/2+x,1/4+z
_cell_length_a                   20.8191(16)
_cell_length_b                   20.8191(16)
_cell_length_c                   4.1398(5)
_cell_angle_alpha                90
_cell_angle_beta                 90
_cell_angle_gamma                90
_cell_volume                     1794.33
loop_
_atom_site_label
_atom_site_type_symbol
_atom_site_fract_x
_atom_site_fract_y
_atom_site_fract_z
Cd1 Cd 0.0000 0.0000 0.3599(4)
I1 I 0.10022(4) 0.0000 -0.1258(3)
Cl1 Cl -0.12848(17) -0.24846(15) 0.5851(15)
N1 N 0.0000 -0.1164(5) 0.383(5)
C1 C -0.0546(5) -0.1482(5) 0.432(3)
H1 H -0.0954 -0.1257 0.4011
C2 C -0.0555(6) -0.2104(5) 0.524(3)
C3 C 0.0000 -0.2438(7) 0.578(5)
H2 H 0.0000 -0.2887 0.6494
C1M C 0.0546(5) -0.1482(5) 0.432(3)
H1M H 0.0954 -0.1257 0.4011
C2M C 0.0555(6) -0.2104(5) 0.524(3)
Cl1M Cl 0.12848(17) -0.24846(15) 0.5851(15)
I1_2 I 0.10022(4) 0.0000 0.8742(3)
Cl1D Cl -0.12848(17) 0.24846(15) 0.5851(15)
N1D N 0.0000 0.1164(5) 0.383(5)
C1D C -0.0546(5) 0.1482(5) 0.432(3)
H1D H -0.0954 0.1257 0.4011
C2D C -0.0555(6) 0.2104(5) 0.524(3)
C3D C 0.0000 0.2438(7) 0.578(5)
H2D H 0.0000 0.2887 0.6494
C1I C 0.0546(5) 0.1482(5) 0.432(3)
H1I H 0.0954 0.1257 0.4011
C2I C 0.0555(6) 0.2104(5) 0.524(3)
Cl1I Cl 0.12848(17) 0.24846(15) 0.5851(15)
I1I I -0.10022(4) 0.0000 -0.1258(3)
I1I_2 I -0.10022(4) 0.0000 0.8742(3)
Cd1_2 Cd 0.0000 0.0000 -0.6401(4)
Cd1_3 Cd 0.0000 0.0000 1.3599(4)
loop_
_geom_bond_atom_site_label_1
_geom_bond_atom_site_label_2
_geom_bond_site_symmetry_1
_geom_bond_site_symmetry_2
Cd1 I1 1_555 1_555
I1 Cd1_2 1_555 1_555
Cl1 C2 1_555 1_555
N1 Cd1 1_555 1_555
C1 N1 1_555 1_555
H1 C1 1_555 1_555
C2 C1 1_555 1_555
C3 C2 1_555 1_555
H2 C3 1_555 1_555
C1M N1 1_555 1_555
H1M C1M 1_555 1_555
C2M C3 1_555 1_555
Cl1M C2M 1_555 1_555
I1_2 Cd1 1_555 1_555
Cl1D C2D 1_555 1_555
N1D Cd1 1_555 1_555
C1D N1D 1_555 1_555
H1D C1D 1_555 1_555
C2D C1D 1_555 1_555
C3D C2D 1_555 1_555
H2D C3D 1_555 1_555
C1I N1D 1_555 1_555
H1I C1I 1_555 1_555
C2I C3D 1_555 1_555
Cl1I C2I 1_555 1_555
I1I Cd1 1_555 1_555
I1I_2 Cd1 1_555 1_555
Cd1_2 I1I 1_555 1_555
Cd1_3 I1_2 1_555 1_555
C1M C2M 1_555 1_555
C1I C2I 1_555 1_555
I1I_2 Cd1_3 1_555 1_555

#END
