
#######################################################################
#
#                 Cambridge Crystallographic Data Centre
#                                CCDC 
#
#######################################################################
#
# If this CIF has been generated from an entry in the Cambridge 
# Structural Database, then it will include bibliographic, chemical, 
# crystal, experimental, refinement or atomic coordinate data resulting 
# from the CCDC's data processing and validation procedures.
#
#######################################################################

data_ODEQET01
_symmetry_cell_setting           tetragonal
_symmetry_space_group_name_H-M   'P -4 b 2'
_symmetry_Int_Tables_number      117
_space_group_name_Hall           'P -4 -2ab'
loop_
_symmetry_equiv_pos_site_id
_symmetry_equiv_pos_as_xyz
1 x,y,z
2 -x,-y,z
3 y,-x,-z
4 -y,x,-z
5 1/2+x,1/2-y,z
6 1/2-x,1/2+y,z
7 1/2+y,1/2+x,-z
8 1/2-y,1/2-x,-z
_cell_length_a                   14.3513(2)
_cell_length_b                   14.3513(2)
_cell_length_c                   3.9082(1)
_cell_angle_alpha                90
_cell_angle_beta                 90
_cell_angle_gamma                90
_cell_volume                     804.932
loop_
_atom_site_label
_atom_site_type_symbol
_atom_site_fract_x
_atom_site_fract_y
_atom_site_fract_z
Cd1 Cd 0.5000 0.0000 0.5000
Br1 Br 0.405530(7) 0.094470(7) 0.0000
Br2 Br 0.632768(9) 0.393627(8) 0.76783(4)
N1 N 0.61772(6) 0.11772(6) 0.5000
C1 C 0.59743(8) 0.20423(8) 0.6049(3)
H1 H 0.5359 0.2184 0.6775
C2 C 0.66496(8) 0.27374(8) 0.6092(3)
C3 C 0.75516(7) 0.25516(7) 0.5000
H2 H 0.8020 0.3020 0.5000
Cd1_2 Cd 0.5000 0.0000 -0.5000
Br1_2 Br 0.405530(7) 0.094470(7) 1.0000
Br1A Br 0.594470(7) -0.094470(7) 0.0000
Br1A_2 Br 0.594470(7) -0.094470(7) 1.0000
Br2F Br 0.893627(8) 0.132768(9) 0.23217(4)
Br2A Br 0.367232(9) -0.393627(8) 0.76783(4)
Br2G Br 0.106373(8) -0.132768(9) 0.23217(4)
N1A N 0.38228(6) -0.11772(6) 0.5000
C1F C 0.70423(8) 0.09743(8) 0.3951(3)
C1A C 0.40257(8) -0.20423(8) 0.6049(3)
C1G C 0.29577(8) -0.09743(8) 0.3951(3)
H1F H 0.7184 0.0359 0.3225
H1A H 0.4641 -0.2184 0.6775
H1G H 0.2816 -0.0359 0.3225
C2F C 0.77374(8) 0.16496(8) 0.3908(3)
C2A C 0.33504(8) -0.27374(8) 0.6092(3)
C2G C 0.22626(8) -0.16496(8) 0.3908(3)
C3A C 0.24484(7) -0.25516(7) 0.5000
H2A H 0.1980 -0.3020 0.5000
loop_
_geom_bond_atom_site_label_1
_geom_bond_atom_site_label_2
_geom_bond_site_symmetry_1
_geom_bond_site_symmetry_2
Cd1 Br1 1_555 1_555
Br1 Cd1_2 1_555 1_555
Br2 C2 1_555 1_555
N1 Cd1 1_555 1_555
C1 N1 1_555 1_555
H1 C1 1_555 1_555
C2 C1 1_555 1_555
C3 C2 1_555 1_555
H2 C3 1_555 1_555
Cd1_2 Br1A 1_555 1_555
Br1_2 Cd1 1_555 1_555
Br1A Cd1 1_555 1_555
Br1A_2 Cd1 1_555 1_555
Br2F C2F 1_555 1_555
Br2A C2A 1_555 1_555
Br2G C2G 1_555 1_555
N1A Cd1 1_555 1_555
C1F N1 1_555 1_555
C1A N1A 1_555 1_555
C1G N1A 1_555 1_555
H1F C1F 1_555 1_555
H1A C1A 1_555 1_555
H1G C1G 1_555 1_555
C2F C3 1_555 1_555
C2A C1A 1_555 1_555
C2G C1G 1_555 1_555
C3A C2A 1_555 1_555
H2A C3A 1_555 1_555
C1F C2F 1_555 1_555
C2G C3A 1_555 1_555

#END
