
#######################################################################
#
#                 Cambridge Crystallographic Data Centre
#                                CCDC 
#
#######################################################################
#
# If this CIF has been generated from an entry in the Cambridge 
# Structural Database, then it will include bibliographic, chemical, 
# crystal, experimental, refinement or atomic coordinate data resulting 
# from the CCDC's data processing and validation procedures.
#
#######################################################################

data_ODESEW
_symmetry_cell_setting           monoclinic
_symmetry_space_group_name_H-M   'C 2/c'
_symmetry_Int_Tables_number      15
_space_group_name_Hall           '-C 2yn'
loop_
_symmetry_equiv_pos_site_id
_symmetry_equiv_pos_as_xyz
1 x,y,z
2 1/2+x,1/2+y,z
3 -x,y,1/2-z
4 1/2-x,1/2+y,1/2-z
5 -x,-y,-z
6 1/2-x,1/2-y,-z
7 x,-y,1/2+z
8 1/2+x,1/2-y,1/2+z
_cell_length_a                   21.848(6)
_cell_length_b                   16.041(4)
_cell_length_c                   18.444(5)
_cell_angle_alpha                90
_cell_angle_beta                 98.856(5)
_cell_angle_gamma                90
_cell_volume                     6386.89
loop_
_atom_site_label
_atom_site_type_symbol
_atom_site_fract_x
_atom_site_fract_y
_atom_site_fract_z
Ni1 Ni 1.0000 0.26006(5) 0.2500
Mn1 Mn 0.81461(3) 0.20826(4) 0.05226(3)
O1 O 0.78650(11) 0.31992(16) 0.03480(14)
O2 O 0.76277(11) 0.19017(16) 0.12302(13)
O3 O 0.89412(12) 0.25101(17) 0.12200(14)
N1 N 0.86657(13) 0.21473(19) -0.02693(15)
N2 N 0.83519(13) 0.0885(2) 0.04571(16)
N3 N 0.90949(14) 0.2575(2) 0.19440(17)
N4 N 0.95203(15) 0.2631(2) 0.33643(18)
N5 N 0.85965(15) 0.2590(2) 0.37107(18)
N6 N 1.0000 0.1257(3) 0.2500
N7 N 1.0000 0.3922(3) 0.2500
C1 C 0.82463(18) 0.3810(2) 0.0200(2)
C2 C 0.81577(19) 0.4624(2) 0.0435(2)
C3 C 0.8517(2) 0.5279(2) 0.0245(2)
C4 C 0.8975(2) 0.5140(2) -0.0183(2)
C5 C 0.9079(2) 0.4340(2) -0.0419(2)
C6 C 0.87265(18) 0.3667(2) -0.0222(2)
C7 C 0.88622(17) 0.2853(2) -0.0487(2)
C8 C 0.88100(17) 0.1343(2) -0.0614(2)
C9 C 0.82688(18) 0.1184(2) -0.1238(2)
C10 C 0.94112(18) 0.1391(2) -0.0943(2)
C11 C 0.88509(17) 0.0674(2) 0.0000(2)
C12 C 0.87744(19) -0.0211(2) -0.0316(2)
C13 C 0.94624(16) 0.0733(2) 0.0539(2)
C14 C 0.81471(17) 0.0308(2) 0.0849(2)
C15 C 0.77264(18) 0.0418(2) 0.1369(2)
C16 C 0.7550(2) -0.0300(2) 0.1725(2)
C17 C 0.7148(2) -0.0271(3) 0.2223(2)
C18 C 0.6915(2) 0.0505(2) 0.2391(2)
C19 C 0.70787(18) 0.1221(2) 0.2054(2)
C20 C 0.74838(17) 0.1196(2) 0.1538(2)
C21 C 0.86637(19) 0.2618(2) 0.2363(2)
C22 C 0.89121(18) 0.2625(2) 0.3132(2)
C23 C 0.7934(2) 0.2489(3) 0.3692(2)
C24 C 0.9030(2) 0.2588(2) 0.4343(2)
C25 C 0.9593(2) 0.2626(2) 0.4111(2)
C26 C 0.94776(19) 0.0802(2) 0.2524(2)
C27 C 0.9459(2) -0.0047(2) 0.2520(2)
C28 C 1.000000(10) -0.0493(3) 0.250000(10)
C29 C 1.02667(19) 0.4357(2) 0.3089(2)
C30 C 1.02755(19) 0.5224(2) 0.3106(2)
C31 C 1.000000(10) 0.5660(4) 0.250000(10)
H1 H 0.7846 0.4731 0.0729
H2 H 0.8448 0.5826 0.0411
H3 H 0.9216 0.5592 -0.0315
H4 H 0.9391 0.4245 -0.0717
H5 H 0.9120 0.2831 -0.0857
H6 H 0.7955 0.0873 -0.1055
H7 H 0.8103 0.1702 -0.1426
H8 H 0.8414 0.0878 -0.1619
H9 H 0.9321 0.1575 -0.1438
H10 H 0.9687 0.1774 -0.0668
H11 H 0.9598 0.0856 -0.0928
H12 H 0.8999 -0.0592 0.0018
H13 H 0.8929 -0.0230 -0.0770
H14 H 0.8348 -0.0357 -0.0393
H15 H 0.9390 0.0594 0.1019
H16 H 0.9619 0.1286 0.0538
H17 H 0.9756 0.0357 0.0392
H18 H 0.8289 -0.0243 0.0787
H19 H 0.7716 -0.0824 0.1614
H20 H 0.7030 -0.0765 0.2450
H21 H 0.6641 0.0540 0.2742
H22 H 0.6912 0.1741 0.2175
H23 H 0.8233 0.2641 0.2180
H24 H 0.7768 0.2174 0.3272
H25 H 0.7860 0.2205 0.4122
H26 H 0.7742 0.3021 0.3671
H27 H 0.8952 0.2565 0.4835
H28 H 0.9981 0.2647 0.4425
H29 H 0.9103 0.1095 0.2544
H30 H 0.9079 -0.0330 0.2531
H31 H 1.0000 -0.1085 0.2500
H32 H 1.0456 0.4061 0.3510
H33 H 1.0469 0.5512 0.3530
H34 H 1.0000 0.6252 0.2500
Mn1B Mn 1.18539(3) 0.20826(4) 0.44774(3)
Mn1E Mn 0.68539(3) 0.29174(4) -0.05226(3)
O1E O 0.71350(11) 0.18008(16) -0.03480(14)
O1G O 1.28650(11) 0.18008(16) 0.53480(14)
O1B O 1.21350(11) 0.31992(16) 0.46520(14)
O2E O 0.73723(11) 0.30983(16) -0.12302(13)
O2B O 1.23723(11) 0.19017(16) 0.37698(13)
O3B O 1.10588(12) 0.25101(17) 0.37800(14)
N1E N 0.63343(13) 0.28527(19) 0.02693(15)
N1B N 1.13343(13) 0.21473(19) 0.52693(15)
N2E N 0.66481(13) 0.4115(2) -0.04571(16)
N2B N 1.16481(13) 0.0885(2) 0.45429(16)
N3B N 1.09051(14) 0.2575(2) 0.30560(17)
N4B N 1.04797(15) 0.2631(2) 0.16357(18)
N5B N 1.14035(15) 0.2590(2) 0.12893(18)
C1E C 0.67537(18) 0.1190(2) -0.0200(2)
C2E C 0.68423(19) 0.0376(2) -0.0435(2)
C3E C 0.6483(2) -0.0279(2) -0.0245(2)
C4E C 0.6025(2) -0.0140(2) 0.0183(2)
C5E C 0.5921(2) 0.0660(2) 0.0419(2)
C6E C 0.62735(18) 0.1333(2) 0.0222(2)
C7E C 0.61378(17) 0.2147(2) 0.0487(2)
C8E C 0.61900(17) 0.3657(2) 0.0614(2)
C9E C 0.67312(18) 0.3816(2) 0.1238(2)
C10E C 0.55888(18) 0.3609(2) 0.0943(2)
C11E C 0.61491(17) 0.4326(2) 0.0000(2)
C12E C 0.62256(19) 0.5211(2) 0.0316(2)
C13E C 0.55376(16) 0.4267(2) -0.0539(2)
C14E C 0.68529(17) 0.4692(2) -0.0849(2)
C15E C 0.72736(18) 0.4582(2) -0.1369(2)
C16E C 0.7450(2) 0.5300(2) -0.1725(2)
C17E C 0.7852(2) 0.5271(3) -0.2223(2)
C18E C 0.8085(2) 0.4495(2) -0.2391(2)
C19E C 0.79213(18) 0.3779(2) -0.2054(2)
C20E C 0.75162(17) 0.3804(2) -0.1538(2)
C21B C 1.13363(19) 0.2618(2) 0.2637(2)
C22B C 1.10879(18) 0.2625(2) 0.1868(2)
C23B C 1.2066(2) 0.2489(3) 0.1308(2)
C24B C 1.0970(2) 0.2588(2) 0.0657(2)
C25B C 1.0407(2) 0.2626(2) 0.0889(2)
C26B C 1.05224(19) 0.0802(2) 0.2476(2)
C27B C 1.0541(2) -0.0047(2) 0.2480(2)
C29B C 0.97333(19) 0.4357(2) 0.1911(2)
C30B C 0.97245(19) 0.5224(2) 0.1894(2)
H1E H 0.7154 0.0269 -0.0729
H2E H 0.6552 -0.0826 -0.0411
H3E H 0.5784 -0.0592 0.0315
H4E H 0.5609 0.0755 0.0717
H5E H 0.5880 0.2169 0.0857
H6E H 0.7045 0.4127 0.1055
H7E H 0.6897 0.3298 0.1426
H8E H 0.6586 0.4122 0.1619
H9E H 0.5679 0.3425 0.1438
H10E H 0.5313 0.3226 0.0668
H11E H 0.5402 0.4144 0.0928
H12E H 0.6001 0.5592 -0.0018
H13E H 0.6071 0.5230 0.0770
H14E H 0.6652 0.5357 0.0393
H15E H 0.5610 0.4406 -0.1019
H16E H 0.5381 0.3714 -0.0538
H17E H 0.5244 0.4643 -0.0392
H18E H 0.6711 0.5243 -0.0787
H19E H 0.7284 0.5824 -0.1614
H20E H 0.7970 0.5765 -0.2450
H21E H 0.8359 0.4460 -0.2742
H22E H 0.8088 0.3259 -0.2175
H23B H 1.1767 0.2641 0.2820
H24B H 1.2232 0.2174 0.1728
H25B H 1.2140 0.2205 0.0878
H26B H 1.2258 0.3021 0.1329
H27B H 1.1048 0.2565 0.0165
H28B H 1.0019 0.2647 0.0575
H29B H 1.0897 0.1095 0.2456
H30B H 1.0921 -0.0330 0.2469
H32B H 0.9544 0.4061 0.1490
H33B H 0.9531 0.5512 0.1470
P1 P 0.88779(5) -0.23357(8) 0.14923(6)
F1 F 0.91423(14) -0.14481(17) 0.13155(16)
F2 F 0.83734(12) -0.2236(2) 0.07674(14)
F3 F 0.93528(11) -0.27566(18) 0.10322(14)
F4 F 0.86007(16) -0.32208(19) 0.16216(18)
F5 F 0.93678(13) -0.24192(19) 0.22131(14)
F6 F 0.84131(12) -0.19101(19) 0.19694(13)
loop_
_geom_bond_atom_site_label_1
_geom_bond_atom_site_label_2
_geom_bond_site_symmetry_1
_geom_bond_site_symmetry_2
Ni1 N3 1_555 1_555
Mn1 O1 1_555 1_555
O1 C1 1_555 1_555
O2 Mn1 1_555 1_555
O3 Mn1 1_555 1_555
N1 Mn1 1_555 1_555
N2 Mn1 1_555 1_555
N3 O3 1_555 1_555
N4 Ni1 1_555 1_555
N5 C22 1_555 1_555
N6 Ni1 1_555 1_555
N7 Ni1 1_555 1_555
C1 C2 1_555 1_555
C2 C3 1_555 1_555
C3 C4 1_555 1_555
C4 C5 1_555 1_555
C5 C6 1_555 1_555
C6 C1 1_555 1_555
C7 N1 1_555 1_555
C8 N1 1_555 1_555
C9 C8 1_555 1_555
C10 C8 1_555 1_555
C11 N2 1_555 1_555
C12 C11 1_555 1_555
C13 C11 1_555 1_555
C14 N2 1_555 1_555
C15 C14 1_555 1_555
C16 C15 1_555 1_555
C17 C16 1_555 1_555
C18 C17 1_555 1_555
C19 C18 1_555 1_555
C20 O2 1_555 1_555
C21 N3 1_555 1_555
C22 N4 1_555 1_555
C23 N5 1_555 1_555
C24 N5 1_555 1_555
C25 N4 1_555 1_555
C26 N6 1_555 1_555
C27 C26 1_555 1_555
C28 C27 1_555 1_555
C29 N7 1_555 1_555
C30 C29 1_555 1_555
C31 C30 1_555 1_555
H1 C2 1_555 1_555
H2 C3 1_555 1_555
H3 C4 1_555 1_555
H4 C5 1_555 1_555
H5 C7 1_555 1_555
H6 C9 1_555 1_555
H7 C9 1_555 1_555
H8 C9 1_555 1_555
H9 C10 1_555 1_555
H10 C10 1_555 1_555
H11 C10 1_555 1_555
H12 C12 1_555 1_555
H13 C12 1_555 1_555
H14 C12 1_555 1_555
H15 C13 1_555 1_555
H16 C13 1_555 1_555
H17 C13 1_555 1_555
H18 C14 1_555 1_555
H19 C16 1_555 1_555
H20 C17 1_555 1_555
H21 C18 1_555 1_555
H22 C19 1_555 1_555
H23 C21 1_555 1_555
H24 C23 1_555 1_555
H25 C23 1_555 1_555
H26 C23 1_555 1_555
H27 C24 1_555 1_555
H28 C25 1_555 1_555
H29 C26 1_555 1_555
H30 C27 1_555 1_555
H31 C28 1_555 1_555
H32 C29 1_555 1_555
H33 C30 1_555 1_555
H34 C31 1_555 1_555
P1 F1 1_555 1_555
F2 P1 1_555 1_555
F3 P1 1_555 1_555
F4 P1 1_555 1_555
F5 P1 1_555 1_555
F6 P1 1_555 1_555
Mn1B O1G 1_555 1_555
Mn1E O1 1_555 1_555
O1E Mn1 1_555 1_555
O1B Mn1B 1_555 1_555
O2E Mn1E 1_555 1_555
O2B Mn1B 1_555 1_555
O3B Mn1B 1_555 1_555
N1E Mn1E 1_555 1_555
N1B Mn1B 1_555 1_555
N2E Mn1E 1_555 1_555
N2B Mn1B 1_555 1_555
N3B Ni1 1_555 1_555
N4B Ni1 1_555 1_555
N5B C22B 1_555 1_555
C1E O1E 1_555 1_555
C2E C1E 1_555 1_555
C3E C2E 1_555 1_555
C4E C3E 1_555 1_555
C5E C4E 1_555 1_555
C6E C1E 1_555 1_555
C7E N1E 1_555 1_555
C8E N1E 1_555 1_555
C9E C8E 1_555 1_555
C10E C8E 1_555 1_555
C11E N2E 1_555 1_555
C12E C11E 1_555 1_555
C13E C11E 1_555 1_555
C14E N2E 1_555 1_555
C15E C14E 1_555 1_555
C16E C15E 1_555 1_555
C17E C16E 1_555 1_555
C18E C17E 1_555 1_555
C19E C18E 1_555 1_555
C20E O2E 1_555 1_555
C21B N3B 1_555 1_555
C22B N4B 1_555 1_555
C23B N5B 1_555 1_555
C24B N5B 1_555 1_555
C25B N4B 1_555 1_555
C26B N6 1_555 1_555
C27B C28 1_555 1_555
C29B N7 1_555 1_555
C30B C31 1_555 1_555
H1E C2E 1_555 1_555
H2E C3E 1_555 1_555
H3E C4E 1_555 1_555
H4E C5E 1_555 1_555
H5E C7E 1_555 1_555
H6E C9E 1_555 1_555
H7E C9E 1_555 1_555
H8E C9E 1_555 1_555
H9E C10E 1_555 1_555
H10E C10E 1_555 1_555
H11E C10E 1_555 1_555
H12E C12E 1_555 1_555
H13E C12E 1_555 1_555
H14E C12E 1_555 1_555
H15E C13E 1_555 1_555
H16E C13E 1_555 1_555
H17E C13E 1_555 1_555
H18E C14E 1_555 1_555
H19E C16E 1_555 1_555
H20E C17E 1_555 1_555
H21E C18E 1_555 1_555
H22E C19E 1_555 1_555
H23B C21B 1_555 1_555
H24B C23B 1_555 1_555
H25B C23B 1_555 1_555
H26B C23B 1_555 1_555
H27B C24B 1_555 1_555
H28B C25B 1_555 1_555
H29B C26B 1_555 1_555
H30B C27B 1_555 1_555
H32B C29B 1_555 1_555
H33B C30B 1_555 1_555
C6 C7 1_555 1_555
C8 C11 1_555 1_555
C15 C20 1_555 1_555
C19 C20 1_555 1_555
C21 C22 1_555 1_555
C24 C25 1_555 1_555
Mn1E O1E 1_555 1_555
O3B N3B 1_555 1_555
C5E C6E 1_555 1_555
C6E C7E 1_555 1_555
C8E C11E 1_555 1_555
C15E C20E 1_555 1_555
C19E C20E 1_555 1_555
C21B C22B 1_555 1_555
C24B C25B 1_555 1_555
C26B C27B 1_555 1_555
C29B C30B 1_555 1_555

#END
