
#######################################################################
#
#                 Cambridge Crystallographic Data Centre
#                                CCDC 
#
#######################################################################
#
# If this CIF has been generated from an entry in the Cambridge 
# Structural Database, then it will include bibliographic, chemical, 
# crystal, experimental, refinement or atomic coordinate data resulting 
# from the CCDC's data processing and validation procedures.
#
#######################################################################

data_ODEWEA
_symmetry_cell_setting           monoclinic
_symmetry_space_group_name_H-M   'C 2'
_symmetry_Int_Tables_number      5
_space_group_name_Hall           'C 2y'
loop_
_symmetry_equiv_pos_site_id
_symmetry_equiv_pos_as_xyz
1 x,y,z
2 -x,y,-z
3 1/2+x,1/2+y,z
4 1/2-x,1/2+y,-z
_cell_length_a                   9.8306(11)
_cell_length_b                   5.8877(6)
_cell_length_c                   15.5039(17)
_cell_angle_alpha                90
_cell_angle_beta                 104.7320(10)
_cell_angle_gamma                90
_cell_volume                     867.86
loop_
_atom_site_label
_atom_site_type_symbol
_atom_site_fract_x
_atom_site_fract_y
_atom_site_fract_z
Pb1 Pb 0.5000 0.35072(5) 0.0000
N1 N 0.5096(6) 0.6634(10) 0.1042(4)
H1 H 0.4365 0.7612 0.0808
H2 H 0.4957 0.6060 0.1565
O1 O 0.7414(5) 0.4689(9) 0.0687(4)
O2 O 0.8853(5) 0.7377(10) 0.1385(4)
C1 C 0.7666(7) 0.6537(12) 0.1108(5)
C2 C 0.6416(7) 0.7941(11) 0.1253(5)
H3 H 0.6274 0.9209 0.0810
C3 C 0.6728(8) 0.9071(12) 0.2175(6)
H4 H 0.7654 0.9837 0.2292
H5 H 0.6008 1.0249 0.2171
C4 C 0.6744(10) 0.7424(19) 0.2921(6)
C5 C 0.5588(13) 0.704(3) 0.3241(8)
H6 H 0.4761 0.7911 0.3014
C6 C 0.5590(13) 0.534(3) 0.3914(9)
H7 H 0.4753 0.4993 0.4086
C7 C 0.6761(15) 0.431(3) 0.4278(9)
H8 H 0.6765 0.3242 0.4736
C8 C 0.7997(16) 0.468(3) 0.4041(9)
H9 H 0.8832 0.3892 0.4329
C9 C 0.7989(12) 0.625(3) 0.3358(8)
H10 H 0.8834 0.6537 0.3186
Pb1B Pb 1.0000 0.85072(5) 0.0000
Pb1B_2 Pb 0.0000 0.85072(5) 0.0000
N1A N 0.4904(6) 0.6634(10) -0.1042(4)
H1A H 0.5635 0.7612 -0.0808
H2A H 0.5043 0.6060 -0.1565
O1A O 0.2586(5) 0.4689(9) -0.0687(4)
O2A O 0.1147(5) 0.7377(10) -0.1385(4)
O2B O 0.3853(5) 0.2377(10) 0.1385(4)
O2C O 0.6147(5) 0.2377(10) -0.1385(4)
C1A C 0.2334(7) 0.6537(12) -0.1108(5)
C2A C 0.3584(7) 0.7941(11) -0.1253(5)
H3A H 0.3726 0.9209 -0.0810
C3A C 0.3272(8) 0.9071(12) -0.2175(6)
H4A H 0.2346 0.9837 -0.2292
H5A H 0.3992 1.0249 -0.2171
C4A C 0.3256(10) 0.7424(19) -0.2921(6)
C5A C 0.4412(13) 0.704(3) -0.3241(8)
H6A H 0.5239 0.7911 -0.3014
C6A C 0.4410(13) 0.534(3) -0.3914(9)
H7A H 0.5247 0.4993 -0.4086
C7A C 0.3239(15) 0.431(3) -0.4278(9)
H8A H 0.3235 0.3242 -0.4736
C8A C 0.2003(16) 0.468(3) -0.4041(9)
H9A H 0.1168 0.3892 -0.4329
C9A C 0.2011(12) 0.625(3) -0.3358(8)
H10A H 0.1166 0.6537 -0.3186
loop_
_geom_bond_atom_site_label_1
_geom_bond_atom_site_label_2
_geom_bond_site_symmetry_1
_geom_bond_site_symmetry_2
Pb1 N1 1_555 1_555
N1 H1 1_555 1_555
H2 N1 1_555 1_555
O1 Pb1 1_555 1_555
O2 C1 1_555 1_555
C1 O1 1_555 1_555
C2 N1 1_555 1_555
H3 C2 1_555 1_555
C3 C2 1_555 1_555
H4 C3 1_555 1_555
H5 C3 1_555 1_555
C4 C3 1_555 1_555
C5 C4 1_555 1_555
H6 C5 1_555 1_555
C6 C5 1_555 1_555
H7 C6 1_555 1_555
C7 C6 1_555 1_555
H8 C7 1_555 1_555
C8 C7 1_555 1_555
H9 C8 1_555 1_555
C9 C4 1_555 1_555
H10 C9 1_555 1_555
Pb1B O2 1_555 1_555
Pb1B_2 O2A 1_555 1_555
N1A Pb1 1_555 1_555
H1A N1A 1_555 1_555
H2A N1A 1_555 1_555
O1A Pb1 1_555 1_555
O2A C1A 1_555 1_555
O2B Pb1 1_555 1_555
O2C Pb1 1_555 1_555
C1A O1A 1_555 1_555
C2A N1A 1_555 1_555
H3A C2A 1_555 1_555
C3A C2A 1_555 1_555
H4A C3A 1_555 1_555
H5A C3A 1_555 1_555
C4A C3A 1_555 1_555
C5A C4A 1_555 1_555
H6A C5A 1_555 1_555
C6A C5A 1_555 1_555
H7A C6A 1_555 1_555
C7A C6A 1_555 1_555
H8A C7A 1_555 1_555
C8A C7A 1_555 1_555
H9A C8A 1_555 1_555
C9A C4A 1_555 1_555
H10A C9A 1_555 1_555
C1 C2 1_555 1_555
C8 C9 1_555 1_555
C1A C2A 1_555 1_555
C8A C9A 1_555 1_555

#END
