
#######################################################################
#
#                 Cambridge Crystallographic Data Centre
#                                CCDC 
#
#######################################################################
#
# If this CIF has been generated from an entry in the Cambridge 
# Structural Database, then it will include bibliographic, chemical, 
# crystal, experimental, refinement or atomic coordinate data resulting 
# from the CCDC's data processing and validation procedures.
#
#######################################################################

data_ODEWAW
_symmetry_cell_setting           orthorhombic
_symmetry_space_group_name_H-M   'P c a 21'
_symmetry_Int_Tables_number      29
_space_group_name_Hall           'P 2c -2ac'
loop_
_symmetry_equiv_pos_site_id
_symmetry_equiv_pos_as_xyz
1 x,y,z
2 -x,-y,1/2+z
3 1/2-x,y,1/2+z
4 1/2+x,-y,z
_cell_length_a                   19.670(4)
_cell_length_b                   13.5313(19)
_cell_length_c                   21.766(5)
_cell_angle_alpha                90
_cell_angle_beta                 90
_cell_angle_gamma                90
_cell_volume                     5793.25
loop_
_atom_site_label
_atom_site_type_symbol
_atom_site_fract_x
_atom_site_fract_y
_atom_site_fract_z
C1 C -0.4643(4) -0.0236(6) 0.1431(3)
C2 C -0.4771(4) -0.1173(6) 0.1674(4)
H1 H -0.5015 -0.1632 0.1446
C3 C -0.4535(5) -0.1421(8) 0.2254(5)
H2 H -0.4633 -0.2042 0.2415
C4 C -0.4156(5) -0.0758(8) 0.2597(4)
H3 H -0.3993 -0.0934 0.2983
C5 C -0.4025(4) 0.0161(7) 0.2360(4)
H4 H -0.3768 0.0608 0.2588
C6 C -0.4269(4) 0.0439(6) 0.1785(4)
H5 H -0.4185 0.1071 0.1636
C7 C -0.6123(3) 0.0101(6) 0.0328(3)
C8 C -0.6455(4) 0.0907(6) 0.0044(4)
H6 H -0.6216 0.1492 -0.0020
C9 C -0.7126(4) 0.0844(7) -0.0140(4)
H7 H -0.7329 0.1377 -0.0336
C10 C -0.7495(4) -0.0004(8) -0.0034(5)
H8 H -0.7949 -0.0037 -0.0151
C11 C -0.7187(5) -0.0816(8) 0.0251(5)
H9 H -0.7433 -0.1389 0.0331
C12 C -0.6501(4) -0.0748(7) 0.0414(4)
H10 H -0.6290 -0.1297 0.0587
C13 C -0.4460(4) 0.0954(6) -0.0100(4)
C14 C -0.4511(5) 0.0709(7) -0.0720(5)
H11 H -0.4789 0.0185 -0.0837
C15 C -0.4160(6) 0.1226(8) -0.1162(5)
H12 H -0.4204 0.1058 -0.1575
C16 C -0.3743(5) 0.1991(8) -0.0989(7)
H13 H -0.3510 0.2346 -0.1288
C17 C -0.3666(5) 0.2242(8) -0.0379(5)
H14 H -0.3371 0.2747 -0.0266
C18 C -0.4029(4) 0.1736(7) 0.0062(5)
H15 H -0.3988 0.1917 0.0472
C19 C -0.5476(3) -0.2400(6) -0.1799(4)
C20 C -0.5889(4) -0.2852(6) -0.2233(4)
H16 H -0.5693 -0.3178 -0.2565
C21 C -0.6602(4) -0.2821(8) -0.2177(6)
H17 H -0.6874 -0.3153 -0.2458
C22 C -0.6889(4) -0.2308(8) -0.1712(6)
H18 H -0.7360 -0.2270 -0.1690
C23 C -0.6503(4) -0.1838(7) -0.1270(5)
H19 H -0.6709 -0.1499 -0.0949
C24 C -0.5796(4) -0.1885(6) -0.1317(4)
H20 H -0.5531 -0.1569 -0.1023
C25 C -0.3832(4) -0.3767(6) -0.1773(4)
C26 C -0.3979(6) -0.4420(7) -0.1328(4)
H21 H -0.4356 -0.4312 -0.1078
C27 C -0.3581(7) -0.5252(7) -0.1233(5)
H22 H -0.3698 -0.5702 -0.0928
C28 C -0.3015(6) -0.5414(9) -0.1589(6)
H23 H -0.2733 -0.5952 -0.1511
C29 C -0.2871(5) -0.4779(9) -0.2057(7)
H24 H -0.2502 -0.4900 -0.2314
C30 C -0.3274(5) -0.3950(7) -0.2152(6)
H25 H -0.3172 -0.3515 -0.2470
C31 C -0.3789(4) -0.1162(6) -0.2096(4)
C32 C -0.3955(4) -0.0531(6) -0.2595(4)
H26 H -0.4346 -0.0650 -0.2825
C33 C -0.3538(4) 0.0262(7) -0.2743(4)
H27 H -0.3658 0.0681 -0.3063
C34 C -0.2949(4) 0.0433(6) -0.2419(4)
H28 H -0.2662 0.0949 -0.2531
C35 C -0.2787(4) -0.0168(7) -0.1927(5)
H29 H -0.2394 -0.0042 -0.1702
C36 C -0.3202(4) -0.0958(7) -0.1763(4)
H30 H -0.3086 -0.1352 -0.1429
C37 C -0.5366(4) -0.5334(6) -0.0228(4)
C38 C -0.5773(5) -0.4693(7) -0.0572(5)
H31 H -0.5806 -0.4032 -0.0458
C39 C -0.6129(6) -0.5029(10) -0.1076(6)
H32 H -0.6402 -0.4592 -0.1295
C40 C -0.6086(8) -0.5990(11) -0.1261(6)
H33 H -0.6326 -0.6208 -0.1603
C41 C -0.5687(7) -0.6628(8) -0.0935(6)
H34 H -0.5644 -0.7280 -0.1065
C42 C -0.5344(5) -0.6314(8) -0.0413(5)
H35 H -0.5095 -0.6769 -0.0184
C43 C -0.3745(3) -0.5057(6) 0.0640(4)
C44 C -0.3288(4) -0.4559(6) 0.0265(4)
H36 H -0.3456 -0.4152 -0.0044
C45 C -0.2585(4) -0.4649(7) 0.0338(5)
H37 H -0.2293 -0.4307 0.0079
C46 C -0.2329(5) -0.5237(9) 0.0789(6)
H38 H -0.1862 -0.5296 0.0841
C47 C -0.2771(5) -0.5747(10) 0.1168(6)
H39 H -0.2595 -0.6144 0.1478
C48 C -0.3469(5) -0.5681(7) 0.1097(5)
H40 H -0.3755 -0.6045 0.1351
C49 C -0.5353(4) -0.4078(6) 0.1294(4)
C50 C -0.5234(6) -0.4331(7) 0.1908(4)
H41 H -0.4924 -0.4826 0.2003
C51 C -0.5581(7) -0.3840(10) 0.2383(6)
H42 H -0.5476 -0.3972 0.2791
C52 C -0.6080(7) -0.3159(10) 0.2238(6)
H43 H -0.6335 -0.2872 0.2550
C53 C -0.6203(6) -0.2901(7) 0.1631(6)
H44 H -0.6526 -0.2421 0.1539
C54 C -0.5842(4) -0.3365(7) 0.1158(5)
H45 H -0.5929 -0.3197 0.0751
Mo1 Mo -0.43535(3) -0.21940(5) -0.00880(2)
Mo2 Mo -0.44464(3) -0.28108(5) -0.36906(3)
O1 O -0.4921(3) -0.1259(4) 0.0178(3)
O2 O -0.4278(3) -0.2117(4) -0.0897(3)
O3 O -0.4677(3) -0.3364(4) 0.0117(3)
O4 O -0.3567(3) -0.2028(5) 0.0241(3)
O5 O -0.4510(3) -0.2723(5) -0.2883(3)
O6 O -0.5003(3) -0.6243(4) 0.1042(3)
O7 O -0.5294(3) 0.1686(4) 0.0989(3)
O8 O -0.3621(3) -0.3048(5) -0.3894(3)
Sn1 Sn -0.50744(2) 0.02171(3) 0.05681(2)
Sn2 Sn -0.43945(2) -0.24273(4) -0.18893(3)
Sn3 Sn -0.482420(18) -0.48345(4) 0.05657(3)
Mo2A Mo -0.55536(3) -0.71892(5) 0.13094(3)
Mo2A_2 Mo -0.55536(3) 0.28108(5) 0.13094(3)
O6A O -0.4997(3) -0.3757(4) -0.3958(3)
O7A O -0.4706(3) -0.1686(4) -0.4011(3)
C55 C -0.3104(5) -0.3000(7) 0.1631(5)
H46 H -0.3155 -0.3636 0.1443
H47 H -0.3544 -0.2713 0.1699
H48 H -0.2873 -0.3072 0.2018
C56 C -0.2590(5) -0.1341(7) 0.1484(4)
H49 H -0.2325 -0.0950 0.1204
H50 H -0.2354 -0.1397 0.1868
H51 H -0.3022 -0.1028 0.1550
N1 N -0.2698(3) -0.2342(5) 0.1219(3)
H52 H -0.227(4) -0.266(6) 0.116(4)
H53 H -0.295(5) -0.225(7) 0.081(5)
loop_
_geom_bond_atom_site_label_1
_geom_bond_atom_site_label_2
_geom_bond_site_symmetry_1
_geom_bond_site_symmetry_2
C1 C2 1_555 1_555
C2 H1 1_555 1_555
C3 C2 1_555 1_555
H2 C3 1_555 1_555
C4 C3 1_555 1_555
H3 C4 1_555 1_555
C5 C4 1_555 1_555
H4 C5 1_555 1_555
C6 C1 1_555 1_555
H5 C6 1_555 1_555
C7 C8 1_555 1_555
C8 H6 1_555 1_555
C9 C8 1_555 1_555
H7 C9 1_555 1_555
C10 C9 1_555 1_555
H8 C10 1_555 1_555
C11 C10 1_555 1_555
H9 C11 1_555 1_555
C12 C7 1_555 1_555
H10 C12 1_555 1_555
C13 C14 1_555 1_555
C14 H11 1_555 1_555
C15 C14 1_555 1_555
H12 C15 1_555 1_555
C16 C15 1_555 1_555
H13 C16 1_555 1_555
C17 C16 1_555 1_555
H14 C17 1_555 1_555
C18 C13 1_555 1_555
H15 C18 1_555 1_555
C19 C20 1_555 1_555
C20 H16 1_555 1_555
C21 C20 1_555 1_555
H17 C21 1_555 1_555
C22 C21 1_555 1_555
H18 C22 1_555 1_555
C23 C22 1_555 1_555
H19 C23 1_555 1_555
C24 C19 1_555 1_555
H20 C24 1_555 1_555
C25 C26 1_555 1_555
C26 H21 1_555 1_555
C27 C26 1_555 1_555
H22 C27 1_555 1_555
C28 C27 1_555 1_555
H23 C28 1_555 1_555
C29 C28 1_555 1_555
H24 C29 1_555 1_555
C30 C25 1_555 1_555
H25 C30 1_555 1_555
C31 C32 1_555 1_555
C32 H26 1_555 1_555
C33 C32 1_555 1_555
H27 C33 1_555 1_555
C34 C33 1_555 1_555
H28 C34 1_555 1_555
C35 C34 1_555 1_555
H29 C35 1_555 1_555
C36 C31 1_555 1_555
H30 C36 1_555 1_555
C37 C38 1_555 1_555
C38 H31 1_555 1_555
C39 C38 1_555 1_555
H32 C39 1_555 1_555
C40 C39 1_555 1_555
H33 C40 1_555 1_555
C41 C40 1_555 1_555
H34 C41 1_555 1_555
C42 C37 1_555 1_555
H35 C42 1_555 1_555
C43 C44 1_555 1_555
C44 H36 1_555 1_555
C45 C44 1_555 1_555
H37 C45 1_555 1_555
C46 C45 1_555 1_555
H38 C46 1_555 1_555
C47 C46 1_555 1_555
H39 C47 1_555 1_555
C48 C43 1_555 1_555
H40 C48 1_555 1_555
C49 C50 1_555 1_555
C50 H41 1_555 1_555
C51 C50 1_555 1_555
H42 C51 1_555 1_555
C52 C51 1_555 1_555
H43 C52 1_555 1_555
C53 C52 1_555 1_555
H44 C53 1_555 1_555
C54 C49 1_555 1_555
H45 C54 1_555 1_555
C55 H46 1_555 1_555
H47 C55 1_555 1_555
H48 C55 1_555 1_555
C56 H49 1_555 1_555
H50 C56 1_555 1_555
H51 C56 1_555 1_555
Mo1 O1 1_555 1_555
Mo2 O5 1_555 1_555
N1 C55 1_555 1_555
H52 N1 1_555 1_555
H53 N1 1_555 1_555
O1 Sn1 1_555 1_555
O2 Mo1 1_555 1_555
O3 Mo1 1_555 1_555
O4 Mo1 1_555 1_555
O5 Sn2 1_555 1_555
O6 Sn3 1_555 1_555
O7 Sn1 1_555 1_555
O8 Mo2 1_555 1_555
Sn1 C1 1_555 1_555
Sn2 C19 1_555 1_555
Sn3 C37 1_555 1_555
Mo2A O6 1_555 1_555
Mo2A_2 O7 1_555 1_555
O6A Mo2 1_555 1_555
O7A Mo2 1_555 1_555
C5 C6 1_555 1_555
C7 Sn1 1_555 1_555
C11 C12 1_555 1_555
C13 Sn1 1_555 1_555
C17 C18 1_555 1_555
C23 C24 1_555 1_555
C25 Sn2 1_555 1_555
C29 C30 1_555 1_555
C31 Sn2 1_555 1_555
C35 C36 1_555 1_555
C41 C42 1_555 1_555
C43 Sn3 1_555 1_555
C47 C48 1_555 1_555
C49 Sn3 1_555 1_555
C53 C54 1_555 1_555
C56 N1 1_555 1_555
O2 Sn2 1_555 1_555
O3 Sn3 1_555 1_555

#END
