
#######################################################################
#
#                 Cambridge Crystallographic Data Centre
#                                CCDC 
#
#######################################################################
#
# If this CIF has been generated from an entry in the Cambridge 
# Structural Database, then it will include bibliographic, chemical, 
# crystal, experimental, refinement or atomic coordinate data resulting 
# from the CCDC's data processing and validation procedures.
#
#######################################################################

data_ODEWIE
_symmetry_cell_setting           triclinic
_symmetry_space_group_name_H-M   'P -1'
_symmetry_Int_Tables_number      2
_space_group_name_Hall           '-P 1'
loop_
_symmetry_equiv_pos_site_id
_symmetry_equiv_pos_as_xyz
1 x,y,z
2 -x,-y,-z
_cell_length_a                   11.298(7)
_cell_length_b                   11.302(7)
_cell_length_c                   15.554(10)
_cell_angle_alpha                85.333(12)
_cell_angle_beta                 87.600(11)
_cell_angle_gamma                80.082(11)
_cell_volume                     1949.14
loop_
_atom_site_label
_atom_site_type_symbol
_atom_site_fract_x
_atom_site_fract_y
_atom_site_fract_z
Mn1 Mn -0.36734(8) -0.61968(8) -0.11488(6)
Mn2 Mn -0.23528(9) 0.28593(9) -0.32676(6)
S1 S -0.33227(19) -0.11429(15) -0.22788(12)
S2 S -0.85809(15) -0.6325(2) -0.22159(12)
O1 O -0.3893(5) -0.4228(4) -0.1133(3)
O2 O -0.3413(6) -0.3686(5) -0.2502(3)
O3 O -0.3002(6) 0.1400(5) -0.2573(4)
O4 O -0.3530(6) 0.1913(5) -0.1234(4)
O5 O -0.5641(4) -0.5976(6) -0.1111(3)
O6 O -0.6037(5) -0.6086(7) -0.2493(4)
O7 O -1.1035(4) -0.6720(6) -0.2480(4)
O8 O -1.1778(4) -0.6322(6) -0.1161(4)
O9 O -0.3815(5) -0.6288(5) 0.0252(3)
H1 H -0.3718 -0.5616 0.0423
H2 H -0.4571 -0.6263 0.0266
O10 O -0.3765(4) 0.4122(4) -0.2616(3)
H3 H -0.3724 0.4865 -0.2607
H4 H -0.4432 0.4048 -0.2820
O11 O -0.0971(7) 0.1638(7) -0.3957(5)
H5 H -0.0734 0.1211 -0.3502
H6 H -0.1102 0.1184 -0.4340
N1 N -0.2141(7) 0.4434(6) -0.4244(4)
N2 N -0.3551(7) 0.2824(7) -0.4397(4)
C1 C -0.3650(7) -0.3468(6) -0.1736(5)
C2 C -0.3654(7) -0.2222(6) -0.1492(5)
C3 C -0.3882(8) -0.1777(7) -0.0718(5)
H7 H -0.4073 -0.2229 -0.0221
C4 C -0.3797(8) -0.0533(7) -0.0745(5)
H8 H -0.3927 -0.0081 -0.0266
C5 C -0.3504(7) -0.0075(6) -0.1545(5)
C6 C -0.3335(7) 0.1190(6) -0.1805(5)
C7 C -0.6325(6) -0.6057(7) -0.1708(5)
C8 C -0.7596(6) -0.6121(7) -0.1448(5)
C9 C -0.8154(7) -0.6041(8) -0.0661(5)
H9 H -0.7769 -0.5920 -0.0167
C10 C -0.9378(6) -0.6159(8) -0.0666(5)
H10 H -0.9880 -0.6136 -0.0176
C11 C -0.9735(6) -0.6309(7) -0.1456(5)
C12 C -1.0962(6) -0.6455(7) -0.1727(5)
C13 C -0.1400(10) 0.5216(10) -0.4119(7)
H11 H -0.0952 0.5113 -0.3623
C14 C -0.1296(14) 0.6182(11) -0.4727(9)
H12 H -0.0793 0.6727 -0.4634
C15 C -0.1938(14) 0.6302(11) -0.5445(8)
H13 H -0.1888 0.6948 -0.5848
C16 C -0.2639(12) 0.5523(11) -0.5591(6)
H14 H -0.3049 0.5596 -0.6104
C17 C -0.2760(8) 0.4579(8) -0.4961(5)
C18 C -0.3568(9) 0.3698(8) -0.5035(5)
C19 C -0.4321(11) 0.3706(12) -0.5745(7)
H15 H -0.4323 0.4297 -0.6197
C20 C -0.5013(13) 0.2888(13) -0.5768(9)
H16 H -0.5508 0.2917 -0.6236
C21 C -0.5023(13) 0.1992(12) -0.5118(9)
H17 H -0.5519 0.1417 -0.5130
C22 C -0.4243(10) 0.1984(10) -0.4430(7)
H18 H -0.4210 0.1375 -0.3988
Mn1_2 Mn -0.36734(8) 0.38032(8) -0.11488(6)
Mn1_3 Mn -1.36734(8) -0.61968(8) -0.11488(6)
Mn2_2 Mn -1.23528(9) -0.71407(9) -0.32676(6)
Mn2_3 Mn -0.23528(9) -0.71407(9) -0.32676(6)
O4_2 O -0.3530(6) -0.8087(5) -0.1234(4)
O7_2 O -0.1035(4) 0.3280(6) -0.2480(4)
O8_2 O -0.1778(4) -0.6322(6) -0.1161(4)
O10_2 O -0.3765(4) -0.5878(4) -0.2616(3)
H3_2 H -0.3724 -0.5135 -0.2607
H4_2 H -0.4432 -0.5952 -0.2820
O12 O -0.8694(11) -0.9222(13) -0.3446(11)
N3 N -0.735(2) -0.9547(19) -0.2421(17)
C23 C -0.644(3) -0.961(5) -0.294(3)
H19 H -0.5718 -0.9713 -0.2611
H20 H -0.6497 -0.8889 -0.3310
H21 H -0.6409 -1.0292 -0.3276
C24 C -0.704(3) -0.950(3) -0.1511(18)
H22 H -0.6771 -1.0302 -0.1262
H23 H -0.7735 -0.9134 -0.1194
H24 H -0.6409 -0.9032 -0.1486
C25 C -0.850(3) -0.9346(18) -0.2645(17)
H25 H -0.9124 -0.9299 -0.2234
loop_
_geom_bond_atom_site_label_1
_geom_bond_atom_site_label_2
_geom_bond_site_symmetry_1
_geom_bond_site_symmetry_2
Mn1 O1 1_555 1_555
Mn2 O3 1_555 1_555
S1 C2 1_555 1_555
S2 C8 1_555 1_555
O1 C1 1_555 1_555
O2 C1 1_555 1_555
O3 C6 1_555 1_555
O4 C6 1_555 1_555
O5 Mn1 1_555 1_555
O6 C7 1_555 1_555
O7 C12 1_555 1_555
O8 C12 1_555 1_555
O9 Mn1 1_555 1_555
H1 O9 1_555 1_555
H2 O9 1_555 1_555
O10 Mn2 1_555 1_555
H3 O10 1_555 1_555
H4 O10 1_555 1_555
O11 Mn2 1_555 1_555
H5 O11 1_555 1_555
H6 O11 1_555 1_555
O12 C25 1_555 1_555
N1 Mn2 1_555 1_555
N2 Mn2 1_555 1_555
N3 C23 1_555 1_555
C1 C2 1_555 1_555
C2 C3 1_555 1_555
C3 H7 1_555 1_555
C4 C3 1_555 1_555
H8 C4 1_555 1_555
C5 S1 1_555 1_555
C6 C5 1_555 1_555
C7 O5 1_555 1_555
C8 C7 1_555 1_555
C9 C8 1_555 1_555
H9 C9 1_555 1_555
C10 C9 1_555 1_555
H10 C10 1_555 1_555
C11 S2 1_555 1_555
C12 C11 1_555 1_555
C13 N1 1_555 1_555
H11 C13 1_555 1_555
C14 C13 1_555 1_555
H12 C14 1_555 1_555
C15 C14 1_555 1_555
H13 C15 1_555 1_555
C16 C15 1_555 1_555
H14 C16 1_555 1_555
C17 N1 1_555 1_555
C18 N2 1_555 1_555
C19 C18 1_555 1_555
H15 C19 1_555 1_555
C20 C19 1_555 1_555
H16 C20 1_555 1_555
C21 C20 1_555 1_555
H17 C21 1_555 1_555
C22 N2 1_555 1_555
H18 C22 1_555 1_555
C23 H19 1_555 1_555
H20 C23 1_555 1_555
H21 C23 1_555 1_555
C24 N3 1_555 1_555
H22 C24 1_555 1_555
H23 C24 1_555 1_555
H24 C24 1_555 1_555
C25 N3 1_555 1_555
H25 C25 1_555 1_555
Mn1_2 O4 1_555 1_555
Mn1_3 O8 1_555 1_555
Mn2_2 O7 1_555 1_555
Mn2_3 O10_2 1_555 1_555
O4_2 Mn1 1_555 1_555
O7_2 Mn2 1_555 1_555
O8_2 Mn1 1_555 1_555
O10_2 Mn1 1_555 1_555
H3_2 O10_2 1_555 1_555
H4_2 O10_2 1_555 1_555
O10 Mn1_2 1_555 1_555
C4 C5 1_555 1_555
C10 C11 1_555 1_555
C16 C17 1_555 1_555
C17 C18 1_555 1_555
C21 C22 1_555 1_555

#END
