
#######################################################################
#
#                 Cambridge Crystallographic Data Centre
#                                CCDC 
#
#######################################################################
#
# If this CIF has been generated from an entry in the Cambridge 
# Structural Database, then it will include bibliographic, chemical, 
# crystal, experimental, refinement or atomic coordinate data resulting 
# from the CCDC's data processing and validation procedures.
#
#######################################################################

data_ODEZUT
_symmetry_cell_setting           monoclinic
_symmetry_space_group_name_H-M   'P 21/n'
_symmetry_Int_Tables_number      14
_space_group_name_Hall           '-P 2yn'
loop_
_symmetry_equiv_pos_site_id
_symmetry_equiv_pos_as_xyz
1 x,y,z
2 1/2-x,1/2+y,1/2-z
3 -x,-y,-z
4 1/2+x,1/2-y,1/2+z
_cell_length_a                   12.555(6)
_cell_length_b                   14.231(6)
_cell_length_c                   24.006(9)
_cell_angle_alpha                90
_cell_angle_beta                 103.996(13)
_cell_angle_gamma                90
_cell_volume                     4161.82
loop_
_atom_site_label
_atom_site_type_symbol
_atom_site_fract_x
_atom_site_fract_y
_atom_site_fract_z
Ag1 Ag 0.97468(7) 0.48376(6) 0.63804(3)
Ag2 Ag 0.48364(7) 0.21026(7) 0.63059(3)
N1 N 0.8269(7) 0.5856(6) 0.6550(3)
N2 N 1.0122(7) 0.6438(6) 0.6198(3)
N3 N 0.8146(7) 0.4343(6) 0.5762(3)
N4 N 0.7434(8) 0.3605(6) 0.7472(3)
N5 N 0.6296(7) 0.2707(6) 0.6854(3)
N6 N 1.3167(7) 0.1139(6) 0.6270(4)
N7 N 1.3366(8) 0.2901(7) 0.5758(4)
N8 N 1.5085(7) 0.0571(7) 0.5979(3)
N9 N 1.2250(9) 0.3070(9) 0.7392(4)
N10 N 1.1158(7) 0.4126(7) 0.6875(4)
C1 C 0.7679(8) 0.5487(7) 0.6975(4)
H1 H 0.7154 0.4995 0.6789
H2 H 0.7254 0.6003 0.7094
C2 C 0.8461(9) 0.5076(8) 0.7503(4)
H3 H 0.8805 0.5593 0.7760
H4 H 0.9051 0.4726 0.7385
C3 C 0.7871(10) 0.4419(9) 0.7829(4)
H5 H 0.8388 0.4204 0.8186
H6 H 0.7262 0.4759 0.7937
C4 C 0.8713(10) 0.6775(8) 0.6713(4)
H7 H 0.9105 0.6765 0.7124
H8 H 0.8101 0.7230 0.6667
C5 C 0.9484(9) 0.7099(8) 0.6366(4)
C6 C 0.9596(10) 0.8018(9) 0.6224(5)
H9 H 0.9141 0.8480 0.6335
C7 C 1.0350(11) 0.8289(10) 0.5925(5)
H10 H 1.0419 0.8929 0.5827
C8 C 1.0986(9) 0.7621(10) 0.5775(4)
H11 H 1.1524 0.7785 0.5574
C9 C 1.0853(9) 0.6706(8) 0.5915(4)
H12 H 1.1306 0.6242 0.5805
C10 C 0.7529(8) 0.5880(7) 0.5977(4)
H13 H 0.7870 0.6246 0.5715
H14 H 0.6835 0.6194 0.5996
C11 C 0.7287(8) 0.4898(7) 0.5746(3)
C12 C 0.6232(9) 0.4610(9) 0.5519(4)
H15 H 0.5627 0.5013 0.5512
C13 C 0.6080(12) 0.3701(10) 0.5297(5)
H16 H 0.5357 0.3475 0.5142
C14 C 0.6953(12) 0.3134(9) 0.5301(5)
H17 H 0.6859 0.2519 0.5143
C15 C 0.7969(11) 0.3484(8) 0.5541(4)
H18 H 0.8587 0.3093 0.5552
C16 C 0.6386(9) 0.3459(8) 0.7185(4)
H19 H 0.5787 0.3846 0.7217
C17 C 0.7328(10) 0.2366(9) 0.6946(5)
H20 H 0.7528 0.1811 0.6776
C18 C 0.8024(10) 0.2914(9) 0.7307(5)
H21 H 0.8797 0.2835 0.7428
C19 C 1.2567(9) 0.1399(9) 0.6702(5)
H22 H 1.2087 0.0868 0.6749
H23 H 1.2088 0.1942 0.6556
C20 C 1.3272(10) 0.1645(9) 0.7274(5)
H24 H 1.3878 0.2055 0.7222
H25 H 1.3601 0.1064 0.7469
C21 C 1.2649(12) 0.2136(11) 0.7643(5)
H26 H 1.3129 0.2225 0.8032
H27 H 1.2016 0.1745 0.7677
C22 C 1.2533(10) 0.1357(10) 0.5684(5)
H28 H 1.1796 0.1068 0.5617
H29 H 1.2909 0.1093 0.5402
C23 C 1.2421(10) 0.2401(9) 0.5606(4)
C24 C 1.1413(11) 0.2821(11) 0.5406(5)
H30 H 1.0758 0.2460 0.5309
C25 C 1.1391(13) 0.3782(12) 0.5354(5)
H31 H 1.0711 0.4091 0.5206
C26 C 1.2327(13) 0.4300(10) 0.5511(5)
H32 H 1.2310 0.4966 0.5488
C27 C 1.3297(11) 0.3825(10) 0.5705(4)
H33 H 1.3956 0.4180 0.5806
C28 C 1.3490(11) 0.0147(9) 0.6325(6)
H34 H 1.2840 -0.0245 0.6157
H35 H 1.3737 -0.0014 0.6737
C29 C 1.4383(11) -0.0085(9) 0.6036(5)
C30 C 1.4476(12) -0.0995(11) 0.5859(6)
H36 H 1.3942 -0.1453 0.5890
C31 C 1.5374(14) -0.1241(10) 0.5632(5)
H37 H 1.5477 -0.1867 0.5518
C32 C 1.6090(12) -0.0540(11) 0.5583(4)
H38 H 1.6704 -0.0672 0.5429
C33 C 1.5921(10) 0.0358(11) 0.5755(4)
H39 H 1.6419 0.0840 0.5712
C34 C 1.1226(9) 0.3284(9) 0.7115(5)
H40 H 1.0616 0.2879 0.7093
C35 C 1.2212(10) 0.4484(10) 0.7017(5)
H41 H 1.2435 0.5083 0.6912
C36 C 1.2855(13) 0.3840(12) 0.7328(6)
H42 H 1.3623 0.3906 0.7482
Ag2_2 Ag 1.48364(7) 0.21026(7) 0.63059(3)
N6_2 N 0.3167(7) 0.1139(6) 0.6270(4)
N7_2 N 0.3366(8) 0.2901(7) 0.5758(4)
N8_2 N 0.5085(7) 0.0571(7) 0.5979(3)
Cl1 Cl 0.4504(2) 0.6393(3) 0.64793(13)
O1 O 0.5248(13) 0.6898(11) 0.6221(8)
O2 O 0.4748(12) 0.6617(14) 0.7073(4)
O3 O 0.4674(15) 0.5413(7) 0.6416(9)
O4 O 0.3418(8) 0.6646(15) 0.6207(7)
Cl2 Cl 0.8980(4) 0.0896(3) 0.5719(2)
O9 O 0.8136(9) 0.1189(8) 0.5268(4)
O10 O 0.8631(10) 0.0171(9) 0.6011(6)
O11 O 0.9860(10) 0.0604(11) 0.5509(6)
O12 O 0.9324(13) 0.1634(10) 0.6101(6)
O13 O 0.4874(10) 0.4999(8) 0.2184(5)
O5? O 0.496(3) 0.662(3) 0.6009(11)
O6? O 0.475(2) 0.710(2) 0.6902(13)
O7? O 0.495(3) 0.5517(14) 0.6719(15)
O8? O 0.3346(9) 0.629(2) 0.6277(13)
loop_
_geom_bond_atom_site_label_1
_geom_bond_atom_site_label_2
_geom_bond_site_symmetry_1
_geom_bond_site_symmetry_2
Ag1 N1 1_555 1_555
Ag2 N5 1_555 1_555
Cl1 O1 1_555 1_555
Cl2 O9 1_555 1_555
O2 Cl1 1_555 1_555
O3 Cl1 1_555 1_555
O4 Cl1 1_555 1_555
O10 Cl2 1_555 1_555
O11 Cl2 1_555 1_555
O12 Cl2 1_555 1_555
N1 C1 1_555 1_555
N2 Ag1 1_555 1_555
N3 Ag1 1_555 1_555
N4 C3 1_555 1_555
N5 C16 1_555 1_555
N6 C19 1_555 1_555
N7 C23 1_555 1_555
N8 C29 1_555 1_555
N9 C21 1_555 1_555
N10 Ag1 1_555 1_555
C1 H1 1_555 1_555
H2 C1 1_555 1_555
C2 C1 1_555 1_555
H3 C2 1_555 1_555
H4 C2 1_555 1_555
C3 C2 1_555 1_555
H5 C3 1_555 1_555
H6 C3 1_555 1_555
C4 N1 1_555 1_555
H7 C4 1_555 1_555
H8 C4 1_555 1_555
C5 N2 1_555 1_555
C6 C5 1_555 1_555
H9 C6 1_555 1_555
C7 C6 1_555 1_555
H10 C7 1_555 1_555
C8 C7 1_555 1_555
H11 C8 1_555 1_555
C9 N2 1_555 1_555
H12 C9 1_555 1_555
C10 N1 1_555 1_555
H13 C10 1_555 1_555
H14 C10 1_555 1_555
C11 N3 1_555 1_555
C12 C11 1_555 1_555
H15 C12 1_555 1_555
C13 C12 1_555 1_555
H16 C13 1_555 1_555
C14 C13 1_555 1_555
H17 C14 1_555 1_555
C15 N3 1_555 1_555
H18 C15 1_555 1_555
C16 N4 1_555 1_555
H19 C16 1_555 1_555
C17 N5 1_555 1_555
H20 C17 1_555 1_555
C18 N4 1_555 1_555
H21 C18 1_555 1_555
C19 H22 1_555 1_555
H23 C19 1_555 1_555
C20 C19 1_555 1_555
H24 C20 1_555 1_555
H25 C20 1_555 1_555
C21 C20 1_555 1_555
H26 C21 1_555 1_555
H27 C21 1_555 1_555
C22 N6 1_555 1_555
H28 C22 1_555 1_555
H29 C22 1_555 1_555
C23 C22 1_555 1_555
C24 C23 1_555 1_555
H30 C24 1_555 1_555
C25 C24 1_555 1_555
H31 C25 1_555 1_555
C26 C25 1_555 1_555
H32 C26 1_555 1_555
C27 N7 1_555 1_555
H33 C27 1_555 1_555
C28 N6 1_555 1_555
H34 C28 1_555 1_555
H35 C28 1_555 1_555
C29 C28 1_555 1_555
C30 C29 1_555 1_555
H36 C30 1_555 1_555
C31 C30 1_555 1_555
H37 C31 1_555 1_555
C32 C31 1_555 1_555
H38 C32 1_555 1_555
C33 N8 1_555 1_555
H39 C33 1_555 1_555
C34 N9 1_555 1_555
H40 C34 1_555 1_555
C35 N10 1_555 1_555
H41 C35 1_555 1_555
C36 N9 1_555 1_555
H42 C36 1_555 1_555
Ag2_2 N6 1_555 1_555
N6_2 Ag2 1_555 1_555
N7_2 Ag2 1_555 1_555
N8_2 Ag2 1_555 1_555
N7 Ag2_2 1_555 1_555
N8 Ag2_2 1_555 1_555
N10 C34 1_555 1_555
C4 C5 1_555 1_555
C8 C9 1_555 1_555
C10 C11 1_555 1_555
C14 C15 1_555 1_555
C17 C18 1_555 1_555
C26 C27 1_555 1_555
C32 C33 1_555 1_555
C35 C36 1_555 1_555

#END
