
#######################################################################
#
#                 Cambridge Crystallographic Data Centre
#                                CCDC 
#
#######################################################################
#
# If this CIF has been generated from an entry in the Cambridge 
# Structural Database, then it will include bibliographic, chemical, 
# crystal, experimental, refinement or atomic coordinate data resulting 
# from the CCDC's data processing and validation procedures.
#
#######################################################################

data_ODIBAF
_symmetry_cell_setting           monoclinic
_symmetry_space_group_name_H-M   'P 21/c'
_symmetry_Int_Tables_number      14
_space_group_name_Hall           '-P 2ybc'
loop_
_symmetry_equiv_pos_site_id
_symmetry_equiv_pos_as_xyz
1 x,y,z
2 -x,1/2+y,1/2-z
3 -x,-y,-z
4 x,1/2-y,1/2+z
_cell_length_a                   14.516(5)
_cell_length_b                   17.775(6)
_cell_length_c                   20.151(7)
_cell_angle_alpha                90
_cell_angle_beta                 108.509(11)
_cell_angle_gamma                90
_cell_volume                     4930.45
loop_
_atom_site_label
_atom_site_type_symbol
_atom_site_fract_x
_atom_site_fract_y
_atom_site_fract_z
Ag1 Ag 0.21784(6) 0.25416(4) 0.42775(4)
Ag2 Ag 0.23809(6) 0.26251(4) 0.57839(4)
Ag3 Ag -0.25750(6) -0.18556(5) 0.23160(4)
N1 N 0.0795(6) 0.1664(4) 0.4288(4)
N2 N 0.0840(6) 0.3144(5) 0.3726(4)
N3 N 0.0862(6) 0.2935(5) 0.5366(4)
N4 N 0.0151(7) -0.1012(5) 0.3503(4)
N5 N -0.1167(6) -0.1666(5) 0.2967(4)
N6 N 0.3714(5) 0.3560(4) 0.5751(4)
N7 N 0.3654(6) 0.2193(5) 0.4743(4)
N8 N 0.3741(7) 0.2084(5) 0.6369(4)
N9 N 0.4540(7) 0.6278(5) 0.6205(4)
N10 N 0.5962(6) 0.6796(5) 0.6699(4)
C1 C 0.1159(7) 0.0911(5) 0.4205(5)
H1 H 0.1658 0.0772 0.4651
H2 H 0.1487 0.0941 0.3843
C3 C 0.0407(7) 0.0273(5) 0.4002(6)
H3 H 0.0227 0.0116 0.4416
H4 H -0.0188 0.0452 0.3638
C5 C 0.0826(8) -0.0373(6) 0.3732(6)
H5 H 0.1029 -0.0201 0.3332
H6 H 0.1415 -0.0548 0.4103
C7 C 0.0078(7) 0.1905(5) 0.3626(5)
H7 H -0.0569 0.1711 0.3608
H8 H 0.0248 0.1677 0.3233
C8 C 0.0013(8) 0.2746(5) 0.3527(5)
C9 C -0.0873(8) 0.3097(6) 0.3198(5)
H9 H -0.1456 0.2811 0.3049
C10 C -0.0894(11) 0.3871(8) 0.3089(6)
H10 H -0.1489 0.4126 0.2874
C11 C -0.0037(11) 0.4250(7) 0.3300(6)
H11 H -0.0027 0.4778 0.3226
C12 C 0.0793(9) 0.3882(6) 0.3612(6)
H12 H 0.1379 0.4163 0.3760
C13 C 0.0415(7) 0.1691(5) 0.4879(5)
H13 H 0.0916 0.1493 0.5300
H14 H -0.0158 0.1356 0.4778
C14 C 0.0127(8) 0.2464(6) 0.5038(5)
C15 C -0.0824(7) 0.2698(7) 0.4863(5)
H15 H -0.1339 0.2366 0.4633
C16 C -0.1019(10) 0.3421(8) 0.5027(6)
H16 H -0.1674 0.3585 0.4917
C17 C -0.0293(9) 0.3896(7) 0.5341(6)
H17 H -0.0422 0.4400 0.5439
C18 C 0.0647(8) 0.3631(6) 0.5518(5)
H18 H 0.1164 0.3957 0.5758
C19 C -0.0794(9) -0.0994(6) 0.3160(6)
H19 H -0.1164 -0.0543 0.3062
C20 C -0.0389(8) -0.2134(6) 0.3209(6)
H20 H -0.0413 -0.2665 0.3154
C21 C 0.0423(7) -0.1737(6) 0.3538(5)
H21 H 0.1059 -0.1932 0.3750
C22 C 0.3357(7) 0.4330(5) 0.5760(5)
H22 H 0.2975 0.4353 0.6089
H23 H 0.2914 0.4455 0.5288
C23 C 0.4160(8) 0.4924(5) 0.5974(6)
H24 H 0.4577 0.4823 0.6460
H25 H 0.4570 0.4881 0.5666
C24 C 0.3779(8) 0.5692(6) 0.5932(5)
H26 H 0.3314 0.5717 0.6200
H27 H 0.3417 0.5807 0.5438
C25 C 0.4129(7) 0.3469(5) 0.5168(5)
H28 H 0.4723 0.3780 0.5268
H29 H 0.3654 0.3660 0.4731
C26 C 0.4377(8) 0.2674(6) 0.5056(5)
C27 C 0.5346(9) 0.2432(7) 0.5284(5)
H30 H 0.5846 0.2779 0.5509
C28 C 0.5585(9) 0.1704(9) 0.5188(6)
H31 H 0.6242 0.1541 0.5330
C29 C 0.4847(10) 0.1227(7) 0.4884(6)
H32 H 0.4981 0.0713 0.4825
C30 C 0.3922(9) 0.1476(6) 0.4665(5)
H33 H 0.3426 0.1126 0.4440
C31 C 0.4446(7) 0.3358(5) 0.6436(5)
H34 H 0.4268 0.3613 0.6815
H35 H 0.5088 0.3554 0.6444
C32 C 0.4536(8) 0.2529(6) 0.6586(5)
C33 C 0.5448(9) 0.2225(7) 0.6954(5)
H36 H 0.6002 0.2543 0.7104
C34 C 0.5537(11) 0.1465(8) 0.7096(6)
H37 H 0.6147 0.1255 0.7354
C35 C 0.4726(10) 0.1016(7) 0.6858(6)
H38 H 0.4770 0.0490 0.6943
C36 C 0.3860(9) 0.1340(6) 0.6499(6)
H39 H 0.3308 0.1023 0.6330
C37 C 0.5490(9) 0.6146(6) 0.6492(6)
H40 H 0.5787 0.5664 0.6541
C38 C 0.5245(9) 0.7328(6) 0.6536(6)
H41 H 0.5359 0.7851 0.6624
C39 C 0.4359(9) 0.7026(6) 0.6238(5)
H42 H 0.3749 0.7276 0.6086
Ag3C Ag 0.74250(6) 0.68556(5) 0.73160(4)
N10C N -0.4038(6) -0.1796(5) 0.1699(4)
S1 S 0.21961(19) 0.37836(14) 0.75287(13)
F1 F 0.3979(5) 0.4270(4) 0.8071(4)
F2 F 0.2934(5) 0.4925(3) 0.8359(3)
F3 F 0.3042(5) 0.5015(3) 0.7337(3)
O1 O 0.1295(5) 0.4179(4) 0.7308(4)
O2 O 0.2487(5) 0.3437(4) 0.6989(3)
O3 O 0.2332(5) 0.3320(3) 0.8134(3)
C2 C 0.3093(8) 0.4517(6) 0.7839(6)
S2 S 0.2693(2) 0.55088(19) 0.38062(17)
F4 F 0.1113(8) 0.6150(7) 0.3065(6)
F5 F 0.2348(9) 0.6580(6) 0.2886(6)
F6 F 0.2128(8) 0.6857(5) 0.3810(7)
O4 O 0.3649(6) 0.5754(5) 0.4049(6)
O5 O 0.2216(6) 0.5320(4) 0.4298(4)
O6 O 0.2538(8) 0.4937(6) 0.3244(5)
C4 C 0.1984(18) 0.6278(10) 0.3313(10)
S3 S 0.2571(3) 0.5659(2) 0.0640(2)
F7 F 0.3295(8) 0.5444(6) 0.1958(4)
F8 F 0.2688(8) 0.6543(6) 0.1654(5)
F9 F 0.4047(8) 0.6225(6) 0.1548(7)
O7 O 0.2414(8) 0.6334(6) 0.0235(6)
O8 O 0.3268(8) 0.5172(5) 0.0488(5)
O9 O 0.1750(8) 0.5314(8) 0.0714(7)
C6 C 0.3154(14) 0.5985(10) 0.1464(8)
loop_
_geom_bond_atom_site_label_1
_geom_bond_atom_site_label_2
_geom_bond_site_symmetry_1
_geom_bond_site_symmetry_2
Ag1 Ag2 1_555 1_555
Ag2 N3 1_555 1_555
Ag3 N5 1_555 1_555
S1 O1 1_555 1_555
S2 O4 1_555 1_555
S3 O7 1_555 1_555
F1 C2 1_555 1_555
F2 C2 1_555 1_555
F3 C2 1_555 1_555
F4 C4 1_555 1_555
F5 C4 1_555 1_555
F6 C4 1_555 1_555
F7 C6 1_555 1_555
F8 C6 1_555 1_555
F9 C6 1_555 1_555
O2 S1 1_555 1_555
O3 S1 1_555 1_555
O5 S2 1_555 1_555
O6 S2 1_555 1_555
O8 S3 1_555 1_555
O9 S3 1_555 1_555
N1 Ag1 1_555 1_555
N2 Ag1 1_555 1_555
N3 C14 1_555 1_555
N4 C5 1_555 1_555
N5 C19 1_555 1_555
N6 Ag2 1_555 1_555
N7 Ag1 1_555 1_555
N8 Ag2 1_555 1_555
N9 C24 1_555 1_555
N10 C37 1_555 1_555
C1 N1 1_555 1_555
H1 C1 1_555 1_555
H2 C1 1_555 1_555
C2 S1 1_555 1_555
C3 C1 1_555 1_555
H3 C3 1_555 1_555
H4 C3 1_555 1_555
C4 S2 1_555 1_555
C5 C3 1_555 1_555
H5 C5 1_555 1_555
H6 C5 1_555 1_555
C6 S3 1_555 1_555
C7 N1 1_555 1_555
H7 C7 1_555 1_555
H8 C7 1_555 1_555
C8 N2 1_555 1_555
C9 C8 1_555 1_555
H9 C9 1_555 1_555
C10 C9 1_555 1_555
H10 C10 1_555 1_555
C11 C10 1_555 1_555
H11 C11 1_555 1_555
C12 N2 1_555 1_555
H12 C12 1_555 1_555
C13 N1 1_555 1_555
H13 C13 1_555 1_555
H14 C13 1_555 1_555
C14 C13 1_555 1_555
C15 C14 1_555 1_555
H15 C15 1_555 1_555
C16 C15 1_555 1_555
H16 C16 1_555 1_555
C17 C16 1_555 1_555
H17 C17 1_555 1_555
C18 N3 1_555 1_555
H18 C18 1_555 1_555
C19 N4 1_555 1_555
H19 C19 1_555 1_555
C20 N5 1_555 1_555
H20 C20 1_555 1_555
C21 N4 1_555 1_555
H21 C21 1_555 1_555
C22 N6 1_555 1_555
H22 C22 1_555 1_555
H23 C22 1_555 1_555
C23 C22 1_555 1_555
H24 C23 1_555 1_555
H25 C23 1_555 1_555
C24 C23 1_555 1_555
H26 C24 1_555 1_555
H27 C24 1_555 1_555
C25 N6 1_555 1_555
H28 C25 1_555 1_555
H29 C25 1_555 1_555
C26 N7 1_555 1_555
C27 C26 1_555 1_555
H30 C27 1_555 1_555
C28 C27 1_555 1_555
H31 C28 1_555 1_555
C29 C28 1_555 1_555
H32 C29 1_555 1_555
C30 N7 1_555 1_555
H33 C30 1_555 1_555
C31 N6 1_555 1_555
H34 C31 1_555 1_555
H35 C31 1_555 1_555
C32 N8 1_555 1_555
C33 C32 1_555 1_555
H36 C33 1_555 1_555
C34 C33 1_555 1_555
H37 C34 1_555 1_555
C35 C34 1_555 1_555
H38 C35 1_555 1_555
C36 N8 1_555 1_555
H39 C36 1_555 1_555
C37 N9 1_555 1_555
H40 C37 1_555 1_555
C38 N10 1_555 1_555
H41 C38 1_555 1_555
C39 N9 1_555 1_555
H42 C39 1_555 1_555
Ag3C N10 1_555 1_555
N10C Ag3 1_555 1_555
C7 C8 1_555 1_555
C11 C12 1_555 1_555
C17 C18 1_555 1_555
C20 C21 1_555 1_555
C25 C26 1_555 1_555
C29 C30 1_555 1_555
C31 C32 1_555 1_555
C35 C36 1_555 1_555
C38 C39 1_555 1_555

#END
