
#######################################################################
#
#                 Cambridge Crystallographic Data Centre
#                                CCDC 
#
#######################################################################
#
# If this CIF has been generated from an entry in the Cambridge 
# Structural Database, then it will include bibliographic, chemical, 
# crystal, experimental, refinement or atomic coordinate data resulting 
# from the CCDC's data processing and validation procedures.
#
#######################################################################

data_ODIDEM
_symmetry_cell_setting           monoclinic
_symmetry_space_group_name_H-M   'P 21/c'
_symmetry_Int_Tables_number      14
_space_group_name_Hall           '-P 2ybc'
loop_
_symmetry_equiv_pos_site_id
_symmetry_equiv_pos_as_xyz
1 x,y,z
2 -x,1/2+y,1/2-z
3 -x,-y,-z
4 x,1/2-y,1/2+z
_cell_length_a                   14.178(4)
_cell_length_b                   9.481(3)
_cell_length_c                   15.901(4)
_cell_angle_alpha                90
_cell_angle_beta                 105.772(4)
_cell_angle_gamma                90
_cell_volume                     2056.97
loop_
_atom_site_label
_atom_site_type_symbol
_atom_site_fract_x
_atom_site_fract_y
_atom_site_fract_z
Cd1 Cd 0.771640(18) 0.52474(2) 0.551725(15)
Cd2 Cd 0.5000 0.5000 0.5000
C1 C 0.9447(3) 0.4259(4) 0.7264(2)
H1 H 0.8913 0.3833 0.7394
C2 C 1.0369(3) 0.4064(5) 0.7827(3)
H2 H 1.0451 0.3519 0.8328
C3 C 1.1164(3) 0.4688(5) 0.7636(3)
H3 H 1.1790 0.4586 0.8011
C4 C 1.1013(3) 0.5469(5) 0.6875(3)
H4 H 1.1541 0.5871 0.6722
C5 C 1.0074(3) 0.5646(4) 0.6346(2)
C6 C 0.9852(3) 0.6524(3) 0.5533(2)
C7 C 1.0588(3) 0.7247(4) 0.5268(3)
H5 H 1.1241 0.7165 0.5585
C8 C 1.0326(4) 0.8079(5) 0.4532(3)
H6 H 1.0801 0.8560 0.4341
C9 C 0.9349(3) 0.8190(5) 0.4081(3)
H7 H 0.9150 0.8760 0.3588
C10 C 0.8681(3) 0.7440(5) 0.4378(3)
H8 H 0.8023 0.7516 0.4072
C11 C 0.6348(3) 0.7695(3) 0.5818(2)
C12 C 0.6290(2) 0.9069(3) 0.62936(19)
C13 C 0.6224(2) 0.9017(3) 0.71552(19)
C14 C 0.6304(2) 1.0292(3) 0.7621(2)
C15 C 0.6447(2) 1.1574(3) 0.72446(19)
C16 C 0.6522(2) 1.1586(3) 0.63824(19)
C17 C 0.6424(2) 1.0336(3) 0.5888(2)
C18 C 0.6134(3) 0.7614(3) 0.7574(2)
H9 H 0.6748 0.7123 0.7691
H10 H 0.5633 0.7062 0.7186
H11 H 0.5965 0.7766 0.8112
C19 C 0.6334(3) 1.0220(3) 0.8583(2)
C20 C 0.6568(3) 1.2931(3) 0.7774(2)
H12 H 0.6425 1.2755 0.8321
H13 H 0.6127 1.3633 0.7453
H14 H 0.7231 1.3262 0.7881
C21 C 0.6869(2) 1.2899(3) 0.60285(19)
C22 C 0.6486(3) 1.0345(4) 0.4954(2)
H15 H 0.7151 1.0179 0.4945
H16 H 0.6274 1.1245 0.4694
H17 H 0.6072 0.9618 0.4630
N1 N 0.9293(2) 0.5043(3) 0.6533(2)
N2 N 0.8915(2) 0.6606(3) 0.50797(19)
O1 O 0.71997(19) 0.7195(3) 0.59759(19)
O2 O 0.55904(19) 0.7180(2) 0.53426(16)
O3 O 0.71851(19) 1.0169(3) 0.91004(16)
O4 O 0.55527(19) 1.0209(3) 0.87886(16)
O5 O 0.76949(18) 1.2854(2) 0.58802(17)
O6 O 0.63847(17) 1.4037(2) 0.59336(14)
Cd1B Cd 0.228360(18) 0.47526(2) 0.448275(15)
Cd1C Cd 0.771640(18) 0.97526(2) 1.051725(15)
Cd1_2 Cd 0.771640(18) 1.52474(2) 0.551725(15)
Cd1A Cd 0.228360(18) 0.02474(2) -0.051725(15)
Cd1B_2 Cd 0.228360(18) -0.52474(2) 0.448275(15)
Cd2A Cd 0.5000 1.0000 1.0000
Cd2_2 Cd 0.5000 1.5000 0.5000
Cd2A_2 Cd 0.5000 0.0000 0.0000
Cd2_3 Cd 0.5000 -0.5000 0.5000
C1B C 0.0553(3) 0.5741(4) 0.2736(2)
H1B H 0.1087 0.6167 0.2606
C2B C -0.0369(3) 0.5936(5) 0.2173(3)
H2B H -0.0451 0.6481 0.1672
C3B C -0.1164(3) 0.5312(5) 0.2364(3)
H3B H -0.1790 0.5414 0.1989
C4B C -0.1013(3) 0.4531(5) 0.3125(3)
H4B H -0.1541 0.4129 0.3278
C5B C -0.0074(3) 0.4354(4) 0.3654(2)
C6B C 0.0148(3) 0.3476(3) 0.4467(2)
C7B C -0.0588(3) 0.2753(4) 0.4732(3)
H5B H -0.1241 0.2835 0.4415
C8B C -0.0326(4) 0.1921(5) 0.5468(3)
H6B H -0.0801 0.1440 0.5659
C9B C 0.0651(3) 0.1810(5) 0.5919(3)
H7B H 0.0850 0.1240 0.6412
C10B C 0.1319(3) 0.2560(5) 0.5622(3)
H8B H 0.1977 0.2484 0.5928
C11B C 0.3652(3) 0.2305(3) 0.4182(2)
C12B C 0.3710(2) 0.0931(3) 0.37064(19)
C13B C 0.3776(2) 0.0983(3) 0.28448(19)
C14B C 0.3696(2) -0.0292(3) 0.2379(2)
C15B C 0.3553(2) -0.1574(3) 0.27554(19)
C16B C 0.3478(2) -0.1586(3) 0.36176(19)
C17B C 0.3576(2) -0.0336(3) 0.4112(2)
C18B C 0.3866(3) 0.2386(3) 0.2426(2)
H9B H 0.3252 0.2877 0.2309
H10B H 0.4367 0.2938 0.2814
H11B H 0.4035 0.2234 0.1888
C19B C 0.3666(3) -0.0220(3) 0.1417(2)
C20B C 0.3432(3) -0.2931(3) 0.2226(2)
H12B H 0.3575 -0.2755 0.1679
H13B H 0.3873 -0.3633 0.2547
H14B H 0.2769 -0.3262 0.2119
C21B C 0.3131(2) -0.2899(3) 0.39715(19)
C22B C 0.3514(3) -0.0345(4) 0.5046(2)
H15B H 0.2849 -0.0179 0.5055
H16B H 0.3726 -0.1245 0.5306
H17B H 0.3928 0.0382 0.5370
N1B N 0.0707(2) 0.4957(3) 0.3467(2)
N2B N 0.1085(2) 0.3394(3) 0.49203(19)
O1B O 0.28003(19) 0.2805(3) 0.40241(19)
O2B O 0.44096(19) 0.2820(2) 0.46574(16)
O3B O 0.28149(19) -0.0169(3) 0.08996(16)
O3C O 0.71851(19) 0.4831(3) 0.41004(16)
O3A O 0.28149(19) 0.5169(3) 0.58996(16)
O4B O 0.44473(19) -0.0209(3) 0.12114(16)
O4A O 0.44473(19) 0.5209(3) 0.62114(16)
O4C O 0.55527(19) 0.4791(3) 0.37886(16)
O5B O 0.23051(18) -0.2854(2) 0.41198(17)
O5_2 O 0.76949(18) 0.2854(2) 0.58802(17)
O5B_2 O 0.23051(18) 0.7146(2) 0.41198(17)
O6B O 0.36153(17) -0.4037(2) 0.40664(14)
O6_2 O 0.63847(17) 0.4037(2) 0.59336(14)
O6B_2 O 0.36153(17) 0.5963(2) 0.40664(14)
loop_
_geom_bond_atom_site_label_1
_geom_bond_atom_site_label_2
_geom_bond_site_symmetry_1
_geom_bond_site_symmetry_2
Cd1 N1 1_555 1_555
Cd2 O2 1_555 1_555
C1 H1 1_555 1_555
C2 C1 1_555 1_555
H2 C2 1_555 1_555
C3 C2 1_555 1_555
H3 C3 1_555 1_555
C4 C3 1_555 1_555
H4 C4 1_555 1_555
C5 C4 1_555 1_555
C6 C5 1_555 1_555
C7 C6 1_555 1_555
H5 C7 1_555 1_555
C8 C7 1_555 1_555
H6 C8 1_555 1_555
C9 C8 1_555 1_555
H7 C9 1_555 1_555
C10 C9 1_555 1_555
H8 C10 1_555 1_555
C11 C12 1_555 1_555
C12 C13 1_555 1_555
C13 C14 1_555 1_555
C14 C15 1_555 1_555
C15 C16 1_555 1_555
C16 C17 1_555 1_555
C17 C12 1_555 1_555
C18 C13 1_555 1_555
H9 C18 1_555 1_555
H10 C18 1_555 1_555
H11 C18 1_555 1_555
C19 C14 1_555 1_555
C20 C15 1_555 1_555
H12 C20 1_555 1_555
H13 C20 1_555 1_555
H14 C20 1_555 1_555
C21 C16 1_555 1_555
C22 C17 1_555 1_555
H15 C22 1_555 1_555
H16 C22 1_555 1_555
H17 C22 1_555 1_555
N1 C1 1_555 1_555
N2 Cd1 1_555 1_555
O1 Cd1 1_555 1_555
O2 C11 1_555 1_555
O3 C19 1_555 1_555
O4 C19 1_555 1_555
O5 C21 1_555 1_555
O6 C21 1_555 1_555
Cd1B N1B 1_555 1_555
Cd1C O3 1_555 1_555
Cd1_2 O5 1_555 1_555
Cd1A O3B 1_555 1_555
Cd1B_2 O5B 1_555 1_555
Cd2A O4 1_555 1_555
Cd2_2 O6 1_555 1_555
Cd2A_2 O4B 1_555 1_555
Cd2_3 O6B 1_555 1_555
C1B H1B 1_555 1_555
C2B C1B 1_555 1_555
H2B C2B 1_555 1_555
C3B C2B 1_555 1_555
H3B C3B 1_555 1_555
C4B C3B 1_555 1_555
H4B C4B 1_555 1_555
C5B C4B 1_555 1_555
C6B C5B 1_555 1_555
C7B C6B 1_555 1_555
H5B C7B 1_555 1_555
C8B C7B 1_555 1_555
H6B C8B 1_555 1_555
C9B C8B 1_555 1_555
H7B C9B 1_555 1_555
C10B C9B 1_555 1_555
H8B C10B 1_555 1_555
C11B C12B 1_555 1_555
C12B C13B 1_555 1_555
C13B C14B 1_555 1_555
C14B C15B 1_555 1_555
C15B C16B 1_555 1_555
C16B C17B 1_555 1_555
C17B C12B 1_555 1_555
C18B C13B 1_555 1_555
H9B C18B 1_555 1_555
H10B C18B 1_555 1_555
H11B C18B 1_555 1_555
C19B C14B 1_555 1_555
C20B C15B 1_555 1_555
H12B C20B 1_555 1_555
H13B C20B 1_555 1_555
H14B C20B 1_555 1_555
C21B C16B 1_555 1_555
C22B C17B 1_555 1_555
H15B C22B 1_555 1_555
H16B C22B 1_555 1_555
H17B C22B 1_555 1_555
N1B C1B 1_555 1_555
N2B Cd1B 1_555 1_555
O1B Cd1B 1_555 1_555
O2B Cd2 1_555 1_555
O3B C19B 1_555 1_555
O3C Cd1 1_555 1_555
O3A Cd1B 1_555 1_555
O4B C19B 1_555 1_555
O4A Cd2 1_555 1_555
O4C Cd2 1_555 1_555
O5B C21B 1_555 1_555
O5_2 Cd1 1_555 1_555
O5B_2 Cd1B 1_555 1_555
O6B Cd1B_2 1_555 1_555
O6_2 Cd1 1_555 1_555
O6B_2 Cd2 1_555 1_555
Cd2 O6_2 1_555 1_555
C5 N1 1_555 1_555
C6 N2 1_555 1_555
C10 N2 1_555 1_555
C11 O1 1_555 1_555
O6 Cd1_2 1_555 1_555
Cd1B O6B_2 1_555 1_555
C5B N1B 1_555 1_555
C6B N2B 1_555 1_555
C10B N2B 1_555 1_555
C11B O1B 1_555 1_555
C11B O2B 1_555 1_555
C21B O6B 1_555 1_555

#END
