
#######################################################################
#
#                 Cambridge Crystallographic Data Centre
#                                CCDC 
#
#######################################################################
#
# If this CIF has been generated from an entry in the Cambridge 
# Structural Database, then it will include bibliographic, chemical, 
# crystal, experimental, refinement or atomic coordinate data resulting 
# from the CCDC's data processing and validation procedures.
#
#######################################################################

data_ODIJES
_symmetry_cell_setting           triclinic
_symmetry_space_group_name_H-M   'P -1'
_symmetry_Int_Tables_number      2
_space_group_name_Hall           '-P 1'
loop_
_symmetry_equiv_pos_site_id
_symmetry_equiv_pos_as_xyz
1 x,y,z
2 -x,-y,-z
_cell_length_a                   7.6144(15)
_cell_length_b                   8.4800(16)
_cell_length_c                   9.7140(19)
_cell_angle_alpha                99.026(3)
_cell_angle_beta                 112.749(3)
_cell_angle_gamma                103.210(3)
_cell_volume                     541.716
loop_
_atom_site_label
_atom_site_type_symbol
_atom_site_fract_x
_atom_site_fract_y
_atom_site_fract_z
Mo1 Mo 0.05882(4) 0.56618(3) 0.43632(3)
N1 N 0.2382(4) 0.7038(3) 0.2859(3)
O1 O 0.0992(3) 0.3463(3) 0.3319(2)
O2 O -0.0243(3) 0.2083(3) 0.4679(3)
O3 O 0.2288(3) 0.4914(3) 0.7493(3)
O4 O 0.3547(3) 0.6338(3) 0.6165(3)
C1 C 0.0742(5) 0.0557(4) 0.2971(4)
H1 H 0.0308 -0.0356 0.3391
H2 H 0.2155 0.0750 0.3190
H3 H -0.0083 0.0245 0.1847
C2 C 0.0508(5) 0.2134(4) 0.3714(4)
C3 C 0.3769(5) 0.5757(4) 0.7336(4)
C4 C 0.5862(5) 0.6123(5) 0.8574(4)
H4 H 0.5806 0.5606 0.9396
H5 H 0.6500 0.7344 0.9011
H6 H 0.6646 0.5659 0.8121
C5 C 0.1374(5) 0.6998(4) 0.1376(4)
H7 H 0.0003 0.6322 0.0834
C6 C 0.5261(6) 0.8932(5) 0.2887(5)
H8 H 0.6630 0.9606 0.3458
C7 C 0.4192(6) 0.8901(5) 0.1360(5)
C8 C 0.2215(7) 0.7886(5) 0.0586(4)
H9 H 0.1443 0.7800 -0.0476
C9 C 0.4318(5) 0.7977(5) 0.3569(4)
H10 H 0.5086 0.7984 0.4609
C10 C 0.5320(7) 1.0039(5) 0.0735(5)
H11 H 0.6565 1.0859 0.1448
N1A N 0.7618(4) 1.2962(3) -0.2859(3)
C5A C 0.8626(5) 1.3002(4) -0.1376(4)
H7A H 0.9997 1.3678 -0.0834
C6A C 0.4739(6) 1.1068(5) -0.2887(5)
H8A H 0.3370 1.0394 -0.3458
C7A C 0.5808(6) 1.1099(5) -0.1360(5)
C8A C 0.7785(7) 1.2114(5) -0.0586(4)
H9A H 0.8557 1.2200 0.0476
C9A C 0.5682(5) 1.2023(5) -0.3569(4)
H10A H 0.4914 1.2016 -0.4609
C10A C 0.4680(7) 0.9961(5) -0.0735(5)
H11A H 0.3435 0.9141 -0.1448
Mo1A Mo -0.05882(4) 0.43382(3) 0.56368(3)
O1A O -0.0992(3) 0.6537(3) 0.6681(2)
O2A O 0.0243(3) 0.7917(3) 0.5321(3)
O3A O -0.2288(3) 0.5086(3) 0.2507(3)
O4A O -0.3547(3) 0.3662(3) 0.3835(3)
C1A C -0.0742(5) 0.9443(4) 0.7029(4)
H1A H -0.0308 1.0356 0.6609
H2A H -0.2155 0.9250 0.6810
H3A H 0.0083 0.9755 0.8153
C2A C -0.0508(5) 0.7866(4) 0.6286(4)
C3A C -0.3769(5) 0.4243(4) 0.2664(4)
C4A C -0.5862(5) 0.3877(5) 0.1426(4)
H4A H -0.5806 0.4394 0.0604
H5A H -0.6500 0.2656 0.0989
H6A H -0.6646 0.4341 0.1879
Mo1A_2 Mo 0.94118(4) 1.43382(3) -0.43632(3)
N1A_2 N -0.2382(4) 0.2962(3) 0.7141(3)
loop_
_geom_bond_atom_site_label_1
_geom_bond_atom_site_label_2
_geom_bond_site_symmetry_1
_geom_bond_site_symmetry_2
Mo1 N1 1_555 1_555
N1 C5 1_555 1_555
O1 Mo1 1_555 1_555
O2 C2 1_555 1_555
O3 C3 1_555 1_555
O4 Mo1 1_555 1_555
C1 H1 1_555 1_555
H2 C1 1_555 1_555
H3 C1 1_555 1_555
C2 O1 1_555 1_555
C3 O4 1_555 1_555
C4 C3 1_555 1_555
H4 C4 1_555 1_555
H5 C4 1_555 1_555
H6 C4 1_555 1_555
C5 H7 1_555 1_555
C6 H8 1_555 1_555
C7 C6 1_555 1_555
C8 C5 1_555 1_555
H9 C8 1_555 1_555
C9 N1 1_555 1_555
H10 C9 1_555 1_555
C10 C7 1_555 1_555
H11 C10 1_555 1_555
N1A C5A 1_555 1_555
C5A H7A 1_555 1_555
C6A H8A 1_555 1_555
C7A C6A 1_555 1_555
C8A C5A 1_555 1_555
H9A C8A 1_555 1_555
C9A N1A 1_555 1_555
H10A C9A 1_555 1_555
C10A C10 1_555 1_555
H11A C10A 1_555 1_555
Mo1A Mo1 1_555 1_555
O1A Mo1A 1_555 1_555
O2A Mo1 1_555 1_555
O3A Mo1 1_555 1_555
O4A Mo1A 1_555 1_555
C1A H1A 1_555 1_555
H2A C1A 1_555 1_555
H3A C1A 1_555 1_555
C2A O1A 1_555 1_555
C3A O3A 1_555 1_555
C4A C3A 1_555 1_555
H4A C4A 1_555 1_555
H5A C4A 1_555 1_555
H6A C4A 1_555 1_555
Mo1A_2 N1A 1_555 1_555
N1A_2 Mo1A 1_555 1_555
O2 Mo1A 1_555 1_555
O3 Mo1A 1_555 1_555
C1 C2 1_555 1_555
C6 C9 1_555 1_555
C7 C8 1_555 1_555
C6A C9A 1_555 1_555
C7A C8A 1_555 1_555
C7A C10A 1_555 1_555
O2A C2A 1_555 1_555
O4A C3A 1_555 1_555
C1A C2A 1_555 1_555

#END
