
#######################################################################
#
#                 Cambridge Crystallographic Data Centre
#                                CCDC 
#
#######################################################################
#
# If this CIF has been generated from an entry in the Cambridge 
# Structural Database, then it will include bibliographic, chemical, 
# crystal, experimental, refinement or atomic coordinate data resulting 
# from the CCDC's data processing and validation procedures.
#
#######################################################################

data_ODIKET
_symmetry_cell_setting           monoclinic
_symmetry_space_group_name_H-M   'P 21/c'
_symmetry_Int_Tables_number      14
_space_group_name_Hall           '-P 2ybc'
loop_
_symmetry_equiv_pos_site_id
_symmetry_equiv_pos_as_xyz
1 x,y,z
2 -x,1/2+y,1/2-z
3 -x,-y,-z
4 x,1/2-y,1/2+z
_cell_length_a                   13.171(5)
_cell_length_b                   5.1292(18)
_cell_length_c                   11.719(4)
_cell_angle_alpha                90
_cell_angle_beta                 110.745(6)
_cell_angle_gamma                90
_cell_volume                     740.368
loop_
_atom_site_label
_atom_site_type_symbol
_atom_site_fract_x
_atom_site_fract_y
_atom_site_fract_z
Cu1 Cu 0.53790(4) 1.21454(10) 0.56114(5)
O1 O 0.6456(3) 0.3001(6) 0.9839(3)
O2 O 0.5783(3) 0.6603(6) 0.8742(3)
O3 O 0.5687(2) 0.6346(6) 0.5961(3)
O4 O 0.6391(3) 1.0044(6) 0.6915(3)
C1 C 0.7352(4) 0.6121(9) 0.7600(4)
C2 C 0.7381(4) 0.4724(9) 0.8633(4)
C3 C 0.9162(4) 0.3112(11) 0.8853(5)
H1 H 0.9766 0.2104 0.9271
C4 C 0.8294(4) 0.3195(10) 0.9243(5)
H2 H 0.8313 0.2224 0.9920
C5 C 0.8238(4) 0.6020(10) 0.7223(5)
H3 H 0.8225 0.6977 0.6544
C6 C 0.9138(4) 0.4531(11) 0.7835(5)
H4 H 0.9724 0.4478 0.7568
C7 C 0.6395(4) 0.7626(8) 0.6795(4)
C8 C 0.6466(4) 0.4774(9) 0.9093(4)
Cu1_2 Cu 0.53790(4) 0.21454(10) 0.56114(5)
Cu1A Cu 0.46210(4) 0.71454(10) 0.93886(5)
Cu1B Cu 0.46210(4) 0.78546(10) 0.43886(5)
Cu1C Cu 0.53790(4) 0.28546(10) 1.06114(5)
O1C O 0.6456(3) 1.1999(6) 0.4839(3)
O2A O 0.4217(3) 1.1603(6) 0.6258(3)
O3_2 O 0.5687(2) 1.6346(6) 0.5961(3)
O3B O 0.4313(2) 1.3654(6) 0.4039(3)
loop_
_geom_bond_atom_site_label_1
_geom_bond_atom_site_label_2
_geom_bond_site_symmetry_1
_geom_bond_site_symmetry_2
Cu1 O4 1_555 1_555
O1 C8 1_555 1_555
O2 C8 1_555 1_555
O3 C7 1_555 1_555
O4 C7 1_555 1_555
C1 C2 1_555 1_555
C2 C4 1_555 1_555
C3 H1 1_555 1_555
C4 C3 1_555 1_555
H2 C4 1_555 1_555
C5 C1 1_555 1_555
H3 C5 1_555 1_555
C6 C3 1_555 1_555
H4 C6 1_555 1_555
C7 C1 1_555 1_555
C8 C2 1_555 1_555
Cu1_2 O3 1_555 1_555
Cu1A O2 1_555 1_555
Cu1B Cu1 1_555 1_555
Cu1C O1 1_555 1_555
O1C Cu1 1_555 1_555
O2A Cu1 1_555 1_555
O3_2 Cu1 1_555 1_555
O3B Cu1 1_555 1_555
O3 Cu1B 1_555 1_555
C5 C6 1_555 1_555
Cu1A Cu1C 1_555 1_555

#END
