
#######################################################################
#
#                 Cambridge Crystallographic Data Centre
#                                CCDC 
#
#######################################################################
#
# If this CIF has been generated from an entry in the Cambridge 
# Structural Database, then it will include bibliographic, chemical, 
# crystal, experimental, refinement or atomic coordinate data resulting 
# from the CCDC's data processing and validation procedures.
#
#######################################################################

data_ODILIW
_symmetry_cell_setting           monoclinic
_symmetry_space_group_name_H-M   'P 21/c'
_symmetry_Int_Tables_number      14
_space_group_name_Hall           '-P 2ybc'
loop_
_symmetry_equiv_pos_site_id
_symmetry_equiv_pos_as_xyz
1 x,y,z
2 x,1/2-y,1/2+z
3 -x,-y,-z
4 -x,1/2+y,1/2-z
_cell_length_a                   33.373(3)
_cell_length_b                   33.578(3)
_cell_length_c                   8.5066(9)
_cell_angle_alpha                90
_cell_angle_beta                 97.029(3)
_cell_angle_gamma                90
_cell_volume                     9460.84
loop_
_atom_site_label
_atom_site_type_symbol
_atom_site_fract_x
_atom_site_fract_y
_atom_site_fract_z
Cu1 Cu 0.749520(11) 0.091262(9) 0.99218(6)
C1 C 0.80952(9) 0.13054(9) 0.8188(4)
H1 H 0.8075 0.1069 0.7617
C2 C 0.83465(9) 0.16032(10) 0.7734(5)
H2 H 0.8488 0.1566 0.6869
C3 C 0.83835(9) 0.19508(10) 0.8574(5)
C4 C 0.81677(10) 0.19859(9) 0.9848(5)
H3 H 0.8186 0.2217 1.0455
C5 C 0.79255(9) 0.16773(9) 1.0215(5)
H4 H 0.7784 0.1705 1.1085
C6 C 0.86337(10) 0.22738(10) 0.8160(5)
C7 C 0.88325(10) 0.25540(11) 0.7867(5)
C8 C 0.90605(10) 0.29003(11) 0.7563(5)
C9 C 0.94004(10) 0.28607(10) 0.6753(5)
H5 H 0.9474 0.2614 0.6389
C10 C 0.96246(9) 0.32009(10) 0.6507(5)
C11 C 0.95002(10) 0.35684(10) 0.6976(5)
C12 C 0.91558(10) 0.36088(10) 0.7732(5)
H6 H 0.9068 0.3858 0.8020
C13 C 0.89466(11) 0.32632(12) 0.8043(5)
H7 H 0.8723 0.3283 0.8594
C14 C 1.00152(11) 0.32291(10) 0.5761(6)
C15 C 1.03604(13) 0.29897(12) 0.6839(9)
H8 H 1.0298 0.2708 0.6733
H9 H 1.0612 0.3032 0.6404
C16 C 1.04303(17) 0.30827(18) 0.8548(8)
H10 H 1.0509 0.3356 0.8689
H11 H 1.0640 0.2914 0.9052
H12 H 1.0186 0.3038 0.9014
C17 C 0.99633(17) 0.30983(14) 0.4036(8)
H13 H 1.0222 0.3128 0.3636
H14 H 0.9898 0.2817 0.4004
C18 C 0.9651(2) 0.33104(16) 0.2920(7)
H15 H 0.9396 0.3302 0.3333
H16 H 0.9626 0.3182 0.1904
H17 H 0.9730 0.3583 0.2810
C19 C 0.97932(10) 0.38703(10) 0.6606(5)
C20 C 1.00989(11) 0.36787(10) 0.5936(5)
C21 C 1.04255(10) 0.38943(11) 0.5509(5)
H18 H 1.0630 0.3767 0.5051
C22 C 1.04392(11) 0.43005(11) 0.5779(5)
C23 C 1.01260(12) 0.44886(11) 0.6400(5)
H19 H 1.0134 0.4764 0.6532
C24 C 0.98047(10) 0.42812(10) 0.6826(5)
H20 H 0.9598 0.4412 0.7256
C25 C 1.07853(11) 0.45299(11) 0.5465(5)
C26 C 1.10700(11) 0.47274(11) 0.5304(6)
C27 C 1.14121(11) 0.49845(11) 0.5127(5)
C28 C 1.17847(12) 0.49063(11) 0.5929(6)
H21 H 1.1825 0.4675 0.6527
C29 C 1.21026(10) 0.51685(10) 0.5861(6)
H22 H 1.2353 0.5111 0.6419
C30 C 1.16962(10) 0.55699(10) 0.4199(5)
H23 H 1.1661 0.5800 0.3592
C31 C 1.13734(10) 0.53174(11) 0.4208(5)
H24 H 1.1130 0.5373 0.3591
C32 C 0.68955(10) 0.14080(10) 1.1287(5)
H25 H 0.6962 0.1244 1.2160
C33 C 0.66272(9) 0.17175(10) 1.1422(5)
H26 H 0.6517 0.1755 1.2365
C34 C 0.65253(8) 0.19644(9) 1.0187(5)
C35 C 0.66898(9) 0.18864(9) 0.8806(4)
H27 H 0.6623 0.2044 0.7914
C36 C 0.69558(9) 0.15700(9) 0.8763(5)
H28 H 0.7065 0.1522 0.7826
C37 C 0.62542(9) 0.22938(9) 1.0275(4)
C38 C 0.60180(9) 0.25581(9) 1.0325(4)
C39 C 0.57159(9) 0.28630(9) 1.0331(5)
C40 C 0.55869(10) 0.29705(9) 1.1758(5)
H29 H 0.5700 0.2852 1.2696
C41 C 0.52869(10) 0.32562(10) 1.1779(5)
C42 C 0.51197(10) 0.34277(10) 1.0374(5)
C43 C 0.52512(11) 0.33311(11) 0.8975(5)
H30 H 0.5145 0.3457 0.8041
C44 C 0.55485(11) 0.30400(11) 0.8968(5)
H31 H 0.5634 0.2965 0.8011
C45 C 0.50991(12) 0.34089(12) 1.3231(5)
C46 C 0.48848(16) 0.30753(15) 1.4011(6)
H32 H 0.5089 0.2894 1.4504
H33 H 0.4751 0.3191 1.4850
C47 C 0.45810(18) 0.28371(17) 1.2974(9)
H34 H 0.4343 0.2995 1.2691
H35 H 0.4512 0.2603 1.3533
H36 H 0.4693 0.2760 1.2032
C48 C 0.54170(14) 0.36202(15) 1.4417(6)
H37 H 0.5279 0.3740 1.5237
H38 H 0.5598 0.3419 1.4921
C49 C 0.56676(16) 0.39367(16) 1.3755(7)
H39 H 0.5797 0.3827 1.2906
H40 H 0.5869 0.4031 1.4574
H41 H 0.5497 0.4154 1.3364
C50 C 0.48106(12) 0.37141(11) 1.0753(6)
C51 C 0.47963(10) 0.37076(10) 1.2358(6)
C52 C 0.45220(12) 0.39557(12) 1.3020(6)
H42 H 0.4515 0.3953 1.4109
C53 C 0.42703(14) 0.41974(14) 1.2109(7)
C54 C 0.42902(15) 0.41959(16) 1.0533(8)
H43 H 0.4119 0.4366 0.9902
C55 C 0.45562(15) 0.39506(14) 0.9781(6)
H44 H 0.4557 0.3951 0.8688
C56 C 0.39865(14) 0.44573(13) 1.2693(7)
C57 C 0.37462(12) 0.46834(12) 1.3094(6)
C58 C 0.34593(12) 0.49533(11) 1.3637(7)
C59 C 0.35377(11) 0.51740(13) 1.4999(6)
H45 H 0.3778 0.5141 1.5665
C60 C 0.32517(11) 0.54457(10) 1.5358(6)
H46 H 0.3311 0.5600 1.6264
C61 C 0.28234(11) 0.52894(11) 1.3197(6)
H47 H 0.2578 0.5331 1.2573
C62 C 0.30929(14) 0.50038(12) 1.2691(7)
H48 H 0.3028 0.4857 1.1769
N1 N 0.78844(6) 0.13427(7) 0.9387(3)
N2 N 1.20551(7) 0.55033(7) 0.5007(4)
N3 N 0.70621(7) 0.13335(7) 0.9991(4)
N4 N 0.29022(8) 0.54991(7) 1.4502(4)
O1 O 0.72980(7) 0.07892(8) 0.7099(4)
H49 H 0.7041 0.0820 0.6725
H50 H 0.7312 0.0540 0.6746
N5 N 0.7945(3) 0.1031(3) 1.4012(11)
O2 O 0.77148(8) 0.10663(8) 1.2863(4)
O3 O 0.8255(2) 0.1239(3) 1.4311(10)
O4 O 0.7986(3) 0.0675(2) 1.4736(10)
N2C N 0.79449(7) 0.05033(7) 0.9993(4)
N4C N 0.70978(8) 0.04991(7) 1.0498(4)
Cu1C Cu 1.250480(11) 0.591262(9) 0.50782(6)
Cu1C_2 Cu 0.250480(11) 0.591262(9) 1.50782(6)
loop_
_geom_bond_atom_site_label_1
_geom_bond_atom_site_label_2
_geom_bond_site_symmetry_1
_geom_bond_site_symmetry_2
Cu1 N1 1_555 1_555
C1 H1 1_555 1_555
C2 C1 1_555 1_555
H2 C2 1_555 1_555
C3 C2 1_555 1_555
C4 C3 1_555 1_555
H3 C4 1_555 1_555
C5 C4 1_555 1_555
H4 C5 1_555 1_555
C6 C3 1_555 1_555
C7 C6 1_555 1_555
C8 C7 1_555 1_555
C9 C8 1_555 1_555
H5 C9 1_555 1_555
C10 C9 1_555 1_555
C11 C10 1_555 1_555
C12 C11 1_555 1_555
H6 C12 1_555 1_555
C13 C8 1_555 1_555
H7 C13 1_555 1_555
C14 C10 1_555 1_555
C15 C14 1_555 1_555
H8 C15 1_555 1_555
H9 C15 1_555 1_555
C16 C15 1_555 1_555
H10 C16 1_555 1_555
H11 C16 1_555 1_555
H12 C16 1_555 1_555
C17 C14 1_555 1_555
H13 C17 1_555 1_555
H14 C17 1_555 1_555
C18 C17 1_555 1_555
H15 C18 1_555 1_555
H16 C18 1_555 1_555
H17 C18 1_555 1_555
C19 C11 1_555 1_555
C20 C14 1_555 1_555
C21 C20 1_555 1_555
H18 C21 1_555 1_555
C22 C21 1_555 1_555
C23 C22 1_555 1_555
H19 C23 1_555 1_555
C24 C19 1_555 1_555
H20 C24 1_555 1_555
C25 C22 1_555 1_555
C26 C25 1_555 1_555
C27 C26 1_555 1_555
C28 C27 1_555 1_555
H21 C28 1_555 1_555
C29 C28 1_555 1_555
H22 C29 1_555 1_555
C30 H23 1_555 1_555
C31 C27 1_555 1_555
H24 C31 1_555 1_555
C32 H25 1_555 1_555
C33 C32 1_555 1_555
H26 C33 1_555 1_555
C34 C33 1_555 1_555
C35 C34 1_555 1_555
H27 C35 1_555 1_555
C36 C35 1_555 1_555
H28 C36 1_555 1_555
C37 C34 1_555 1_555
C38 C37 1_555 1_555
C39 C38 1_555 1_555
C40 C39 1_555 1_555
H29 C40 1_555 1_555
C41 C40 1_555 1_555
C42 C41 1_555 1_555
C43 C42 1_555 1_555
H30 C43 1_555 1_555
C44 C39 1_555 1_555
H31 C44 1_555 1_555
C45 C41 1_555 1_555
C46 C45 1_555 1_555
H32 C46 1_555 1_555
H33 C46 1_555 1_555
C47 C46 1_555 1_555
H34 C47 1_555 1_555
H35 C47 1_555 1_555
H36 C47 1_555 1_555
C48 C45 1_555 1_555
H37 C48 1_555 1_555
H38 C48 1_555 1_555
C49 C48 1_555 1_555
H39 C49 1_555 1_555
H40 C49 1_555 1_555
H41 C49 1_555 1_555
C50 C42 1_555 1_555
C51 C45 1_555 1_555
C52 C51 1_555 1_555
H42 C52 1_555 1_555
C53 C52 1_555 1_555
C54 C53 1_555 1_555
H43 C54 1_555 1_555
C55 C50 1_555 1_555
H44 C55 1_555 1_555
C56 C53 1_555 1_555
C57 C56 1_555 1_555
C58 C57 1_555 1_555
C59 C58 1_555 1_555
H45 C59 1_555 1_555
C60 C59 1_555 1_555
H46 C60 1_555 1_555
C61 H47 1_555 1_555
C62 C58 1_555 1_555
H48 C62 1_555 1_555
N1 C1 1_555 1_555
N2 C29 1_555 1_555
N3 Cu1 1_555 1_555
N4 C60 1_555 1_555
O1 Cu1 1_555 1_555
H49 O1 1_555 1_555
H50 O1 1_555 1_555
N5 O2 1_555 1_555
O2 Cu1 1_555 1_555
O3 N5 1_555 1_555
O4 N5 1_555 1_555
N2C Cu1 1_555 1_555
N4C Cu1 1_555 1_555
Cu1C N2 1_555 1_555
Cu1C_2 N4 1_555 1_555
C5 N1 1_555 1_555
C12 C13 1_555 1_555
C19 C20 1_555 1_555
C23 C24 1_555 1_555
C30 N2 1_555 1_555
C30 C31 1_555 1_555
C32 N3 1_555 1_555
C36 N3 1_555 1_555
C43 C44 1_555 1_555
C50 C51 1_555 1_555
C54 C55 1_555 1_555
C61 N4 1_555 1_555
C61 C62 1_555 1_555

#END
