
#######################################################################
#
#                 Cambridge Crystallographic Data Centre
#                                CCDC 
#
#######################################################################
#
# If this CIF has been generated from an entry in the Cambridge 
# Structural Database, then it will include bibliographic, chemical, 
# crystal, experimental, refinement or atomic coordinate data resulting 
# from the CCDC's data processing and validation procedures.
#
#######################################################################

data_ODIPAS
_symmetry_cell_setting           trigonal
_symmetry_space_group_name_H-M   'P -3 c 1'
_symmetry_Int_Tables_number      165
_space_group_name_Hall           '-P 3 2"c'
loop_
_symmetry_equiv_pos_site_id
_symmetry_equiv_pos_as_xyz
1 x,y,z
2 -y,x-y,z
3 -x+y,-x,z
4 y,x,1/2-z
5 -x+y,y,1/2+z
6 x,x-y,1/2+z
7 -x,-y,-z
8 y,-x+y,-z
9 x-y,x,-z
10 -y,-x,1/2+z
11 x-y,-y,1/2-z
12 -x,-x+y,1/2-z
_cell_length_a                   30.0763(14)
_cell_length_b                   30.0763(14)
_cell_length_c                   25.7916(16)
_cell_angle_alpha                90
_cell_angle_beta                 90
_cell_angle_gamma                120
_cell_volume                     20204.9
loop_
_atom_site_label
_atom_site_type_symbol
_atom_site_fract_x
_atom_site_fract_y
_atom_site_fract_z
Ag1 Ag -0.49731(3) -0.02615(2) 0.41253(2)
C1 C -0.5735(7) -0.1349(2) 0.4927(2)
C2 C -0.5392(5) -0.0970(3) 0.5306(3)
H1 H -0.5110 -0.0654 0.5192
C3 C -0.5478(14) -0.1071(2) 0.5824(3)
C4 C -0.5953(3) -0.1538(3) 0.5971(3)
H2 H -0.6076 -0.1583 0.6317
C5 C -0.6223(3) -0.1917(3) 0.5594(3)
C6 C -0.6076(3) -0.1817(3) 0.5076(3)
H3 H -0.6221 -0.2088 0.4830
P1 P -0.54441(7) -0.11728(7) 0.42615(8)
C7 C -0.5116(6) -0.1510(5) 0.4096(6)
C8 C -0.4606(5) -0.1223(4) 0.3956(5)
H4 H -0.4442 -0.0859 0.3946
C9 C -0.4330(4) -0.1471(4) 0.3827(5)
H5 H -0.3983 -0.1274 0.3716
C10 C -0.4557(4) -0.1996(4) 0.3859(4)
H6 H -0.4369 -0.2162 0.3773
C11 C -0.5069(4) -0.2285(4) 0.4020(4)
H7 H -0.5229 -0.2648 0.4042
C12 C -0.5336(3) -0.2045(3) 0.4144(3)
H8 H -0.5678 -0.2244 0.4266
C13 C -0.6017(3) -0.1434(3) 0.3871(3)
C14 C -0.6082(4) -0.1704(4) 0.3413(3)
H9 H -0.5846 -0.1816 0.3327
C15 C -0.6486(4) -0.1813(4) 0.3080(4)
H10 H -0.6526 -0.1997 0.2769
C16 C -0.6834(4) -0.1649(4) 0.3206(4)
H11 H -0.7103 -0.1710 0.2973
C17 C -0.6784(5) -0.1398(5) 0.3672(5)
H12 H -0.7024 -0.1292 0.3762
C18 C -0.6392(7) -0.1304(7) 0.4002(7)
H13 H -0.6372 -0.1146 0.4328
P2 P -0.5207(5) -0.05503(8) 0.62842(8)
C19 C -0.5905(7) -0.0595(7) 0.6549(6)
C20 C -0.6370(8) -0.1106(10) 0.6597(6)
H14 H -0.6344 -0.1397 0.6499
C21 C -0.6857(9) -0.1193(11) 0.6782(7)
H15 H -0.7158 -0.1521 0.6797
C22 C -0.6838(12) -0.0744(15) 0.6934(12)
H16 H -0.7128 -0.0766 0.7107
C23 C -0.6373(15) -0.0214(14) 0.6839(14)
H17 H -0.6385 0.0089 0.6911
C24 C -0.5935(9) -0.0191(9) 0.6644(8)
H18 H -0.5644 0.0137 0.6577
C25 C -0.5037(4) -0.0673(3) 0.6813(4)
C26 C -0.5205(5) -0.0742(4) 0.7323(4)
H19 H -0.5518 -0.0754 0.7407
C27 C -0.4918(6) -0.0794(6) 0.7709(5)
H20 H -0.5035 -0.0838 0.8057
C28 C -0.4474(6) -0.0782(6) 0.7603(6)
H21 H -0.4285 -0.0826 0.7874
C29 C -0.4302(6) -0.0710(7) 0.7119(6)
H22 H -0.3970 -0.0662 0.7052
C30 C -0.4591(9) -0.0703(9) 0.6717(9)
H23 H -0.4493 -0.0719 0.6371
P3 P -0.67671(8) -0.25439(8) 0.57671(8)
C31 C -0.7304(3) -0.2508(4) 0.5501(3)
C32 C -0.7787(4) -0.2958(4) 0.5502(4)
H24 H -0.7814 -0.3274 0.5605
C33 C -0.8215(5) -0.2948(5) 0.5358(5)
H25 H -0.8538 -0.3256 0.5362
C34 C -0.8187(5) -0.2499(6) 0.5206(7)
H26 H -0.8491 -0.2498 0.5107
C35 C -0.7722(4) -0.2047(5) 0.5195(7)
H27 H -0.7703 -0.1736 0.5086
C36 C -0.7276(4) -0.2053(5) 0.5346(4)
H28 H -0.6954 -0.1744 0.5343
C37 C -0.6830(3) -0.2476(3) 0.6463(3)
C38 C -0.7149(4) -0.2301(4) 0.6669(4)
H29 H -0.7345 -0.2216 0.6444
C39 C -0.7176(4) -0.2252(4) 0.7197(4)
H30 H -0.7394 -0.2138 0.7335
C40 C -0.6886(4) -0.2370(4) 0.7531(4)
H31 H -0.6905 -0.2334 0.7895
C41 C -0.6572(4) -0.2537(4) 0.7330(4)
H32 H -0.6371 -0.2617 0.7555
C42 C -0.6549(3) -0.2590(3) 0.6798(3)
H33 H -0.6333 -0.2709 0.6663
Ag2 Ag -0.6667 -0.3333 0.56285(3)
C1F C -0.4265(7) 0.1349(2) 0.5073(2)
C2F C -0.4608(5) 0.0970(3) 0.4694(3)
H1F H -0.4890 0.0654 0.4808
C3F C -0.4522(14) 0.1071(2) 0.4176(3)
C4F C -0.4047(3) 0.1538(3) 0.4029(3)
H2F H -0.3924 0.1583 0.3683
C5F C -0.3777(3) 0.1917(3) 0.4406(3)
C6F C -0.3924(3) 0.1817(3) 0.4924(3)
H3F H -0.3779 0.2088 0.5170
P1F P -0.45559(7) 0.11728(7) 0.57385(8)
C7F C -0.4884(6) 0.1510(5) 0.5904(6)
C8F C -0.5394(5) 0.1223(4) 0.6044(5)
H4F H -0.5558 0.0859 0.6054
C9F C -0.5670(4) 0.1471(4) 0.6173(5)
H5F H -0.6017 0.1274 0.6284
C10F C -0.5443(4) 0.1996(4) 0.6141(4)
H6F H -0.5631 0.2162 0.6227
C11F C -0.4931(4) 0.2285(4) 0.5980(4)
H7F H -0.4771 0.2648 0.5958
C12F C -0.4664(3) 0.2045(3) 0.5856(3)
H8F H -0.4322 0.2244 0.5734
C13F C -0.3983(3) 0.1434(3) 0.6129(3)
C14F C -0.3918(4) 0.1704(4) 0.6587(3)
H9F H -0.4154 0.1816 0.6673
C15F C -0.3514(4) 0.1813(4) 0.6920(4)
H10F H -0.3474 0.1997 0.7231
C16F C -0.3166(4) 0.1649(4) 0.6794(4)
H11F H -0.2897 0.1710 0.7027
C17F C -0.3216(5) 0.1398(5) 0.6328(5)
H12F H -0.2976 0.1292 0.6238
C18F C -0.3608(7) 0.1304(7) 0.5998(7)
H13F H -0.3628 0.1146 0.5672
P2F P -0.4793(5) 0.05503(8) 0.37158(8)
C19F C -0.4095(7) 0.0595(7) 0.3451(6)
C20F C -0.3630(8) 0.1106(10) 0.3403(6)
H14F H -0.3656 0.1397 0.3501
C21F C -0.3143(9) 0.1193(11) 0.3218(7)
H15F H -0.2842 0.1521 0.3203
C22F C -0.3162(12) 0.0744(15) 0.3066(12)
H16F H -0.2872 0.0766 0.2893
C23F C -0.3627(15) 0.0214(14) 0.3161(14)
H17F H -0.3615 -0.0089 0.3089
C24F C -0.4065(9) 0.0191(9) 0.3356(8)
H18F H -0.4356 -0.0137 0.3423
C25F C -0.4963(4) 0.0673(3) 0.3187(4)
C26F C -0.4795(5) 0.0742(4) 0.2677(4)
H19F H -0.4482 0.0754 0.2593
C27F C -0.5082(6) 0.0794(6) 0.2291(5)
H20F H -0.4965 0.0838 0.1943
C28F C -0.5526(6) 0.0782(6) 0.2397(6)
H21F H -0.5715 0.0826 0.2126
C29F C -0.5698(6) 0.0710(7) 0.2881(6)
H22F H -0.6030 0.0662 0.2948
C30F C -0.5409(9) 0.0703(9) 0.3283(9)
H23F H -0.5507 0.0719 0.3629
P3F P -0.32329(8) 0.25439(8) 0.42329(8)
C31F C -0.2696(3) 0.2508(4) 0.4499(3)
C32F C -0.2213(4) 0.2958(4) 0.4498(4)
H24F H -0.2186 0.3274 0.4395
C33F C -0.1785(5) 0.2948(5) 0.4642(5)
H25F H -0.1462 0.3256 0.4638
C34F C -0.1813(5) 0.2499(6) 0.4794(7)
H26F H -0.1509 0.2498 0.4893
C35F C -0.2278(4) 0.2047(5) 0.4805(7)
H27F H -0.2297 0.1736 0.4914
C36F C -0.2724(4) 0.2053(5) 0.4654(4)
H28F H -0.3046 0.1744 0.4657
C37F C -0.3170(3) 0.2476(3) 0.3537(3)
C38F C -0.2851(4) 0.2301(4) 0.3331(4)
H29F H -0.2655 0.2216 0.3556
C39F C -0.2824(4) 0.2252(4) 0.2803(4)
H30F H -0.2606 0.2138 0.2665
C40F C -0.3114(4) 0.2370(4) 0.2469(4)
H31F H -0.3095 0.2334 0.2105
C41F C -0.3428(4) 0.2537(4) 0.2670(4)
H32F H -0.3629 0.2617 0.2445
C42F C -0.3451(3) 0.2590(3) 0.3202(3)
H33F H -0.3667 0.2709 0.3337
Ag1F Ag -0.50269(3) 0.02615(2) 0.58747(2)
Ag2F Ag -0.3333 0.3333 0.43715(3)
C1A C -0.8651(2) -0.4386(7) 0.4927(2)
C2A C -0.9030(3) -0.4422(6) 0.5306(3)
H1A H -0.9346 -0.4456 0.5192
C3A C -0.8929(2) -0.4407(14) 0.5824(3)
C4A C -0.8462(3) -0.4415(4) 0.5971(3)
H2A H -0.8417 -0.4493 0.6317
C5A C -0.8083(3) -0.4306(4) 0.5594(3)
C6A C -0.8183(3) -0.4259(4) 0.5076(3)
H3A H -0.7912 -0.4133 0.4830
P1A P -0.88272(7) -0.42713(10) 0.42615(8)
C7A C -0.8490(5) -0.3606(8) 0.4096(6)
C8A C -0.8777(4) -0.3383(6) 0.3956(5)
H4A H -0.9141 -0.3583 0.3946
C9A C -0.8529(4) -0.2859(6) 0.3827(5)
H5A H -0.8726 -0.2709 0.3716
C10A C -0.8004(4) -0.2561(6) 0.3859(4)
H6A H -0.7838 -0.2207 0.3773
C11A C -0.7715(4) -0.2784(6) 0.4020(4)
H7A H -0.7352 -0.2581 0.4042
C12A C -0.7955(3) -0.3291(4) 0.4144(3)
H8A H -0.7756 -0.3434 0.4266
C13A C -0.8566(3) -0.4583(4) 0.3871(3)
C14A C -0.8296(4) -0.4378(6) 0.3413(3)
H9A H -0.8184 -0.4030 0.3327
C15A C -0.8187(4) -0.4673(6) 0.3080(4)
H10A H -0.8003 -0.4529 0.2769
C16A C -0.8351(4) -0.5185(6) 0.3206(4)
H11A H -0.8290 -0.5393 0.2973
C17A C -0.8602(5) -0.5386(7) 0.3672(5)
H12A H -0.8708 -0.5732 0.3762
C18A C -0.8696(7) -0.5088(10) 0.4002(7)
H13A H -0.8854 -0.5226 0.4328
P2A P -0.94497(8) -0.46567(51) 0.62842(8)
C19A C -0.9405(7) -0.5310(10) 0.6549(6)
C20A C -0.8894(10) -0.5264(13) 0.6597(6)
H14A H -0.8603 -0.4947 0.6499
C21A C -0.8807(11) -0.5664(14) 0.6782(7)
H15A H -0.8479 -0.5637 0.6797
C22A C -0.9256(15) -0.6094(19) 0.6934(12)
H16A H -0.9234 -0.6362 0.7107
C23A C -0.9786(14) -0.6159(21) 0.6839(14)
H17A H -1.0089 -0.6474 0.6911
C24A C -0.9809(9) -0.5744(13) 0.6644(8)
H18A H -1.0137 -0.5781 0.6577
C25A C -0.9327(3) -0.4364(5) 0.6813(4)
C26A C -0.9258(4) -0.4463(6) 0.7323(4)
H19A H -0.9246 -0.4764 0.7407
C27A C -0.9206(6) -0.4124(8) 0.7709(5)
H20A H -0.9162 -0.4197 0.8057
C28A C -0.9218(6) -0.3692(8) 0.7603(6)
H21A H -0.9174 -0.3459 0.7874
C29A C -0.9290(7) -0.3592(9) 0.7119(6)
H22A H -0.9338 -0.3308 0.7052
C30A C -0.9297(9) -0.3888(13) 0.6717(9)
H23A H -0.9281 -0.3774 0.6371
P3A P -0.74561(8) -0.42232(11) 0.57671(8)
C31A C -0.7492(4) -0.4796(5) 0.5501(3)
C32A C -0.7042(4) -0.4829(6) 0.5502(4)
H24A H -0.6726 -0.4540 0.5605
C33A C -0.7052(5) -0.5267(7) 0.5358(5)
H25A H -0.6744 -0.5282 0.5362
C34A C -0.7501(6) -0.5688(8) 0.5206(7)
H26A H -0.7502 -0.5993 0.5107
C35A C -0.7953(5) -0.5675(6) 0.5195(7)
H27A H -0.8264 -0.5967 0.5086
C36A C -0.7947(5) -0.5223(6) 0.5346(4)
H28A H -0.8256 -0.5210 0.5343
C37A C -0.7524(3) -0.4354(4) 0.6463(3)
C38A C -0.7699(4) -0.4848(6) 0.6669(4)
H29A H -0.7784 -0.5129 0.6444
C39A C -0.7748(4) -0.4924(6) 0.7197(4)
H30A H -0.7862 -0.5256 0.7335
C40A C -0.7630(4) -0.4516(6) 0.7531(4)
H31A H -0.7666 -0.4571 0.7895
C41A C -0.7463(4) -0.4035(6) 0.7330(4)
H32A H -0.7383 -0.3754 0.7555
C42A C -0.7410(3) -0.3959(4) 0.6798(3)
H33A H -0.7291 -0.3624 0.6663
Ag1A Ag -0.97385(2) -0.47116(4) 0.41253(2)
P3B P -0.57768(11) -0.32329(8) 0.57671(8)
P3G P -0.25439(8) 0.42232(11) 0.42329(8)
P3H P -0.42232(11) 0.32329(8) 0.42329(8)
Ag1G Ag -1.02615(2) -0.52884(4) 0.58747(2)
P2G P -1.05503(8) -0.53433(51) 0.37158(8)
O1 O -0.4460(3) -0.0150(3) 0.4784(5)
O2 O -0.4070(5) 0.0002(4) 0.5604(4)
O3 O -0.4323(4) -0.0782(3) 0.5182(4)
S1 S -0.41728(15) -0.02693(13) 0.51361(13)
C43 C -0.3638(10) 0.0006(12) 0.4862(6)
F1 F -0.3578(5) -0.0193(5) 0.4398(5)
F2 F -0.3370(4) 0.0525(5) 0.4758(6)
F3 F -0.3210(8) -0.0016(17) 0.505(3)
O4 O -0.6715(2) -0.3818(2) 0.4489(3)
S2 S -0.6667 -0.3333 0.43654(10)
C44 C -0.6667 -0.3333 0.3672(4)
F4 F -0.7071(3) -0.3342(3) 0.3482(2)
O4B O -0.7103(3) -0.3285(2) 0.4489(3)
O4A O -0.6182(2) -0.2897(3) 0.4489(3)
F4A F -0.6658(3) -0.3729(4) 0.3482(2)
F4B F -0.6271(4) -0.2929(3) 0.3482(2)
loop_
_geom_bond_atom_site_label_1
_geom_bond_atom_site_label_2
_geom_bond_site_symmetry_1
_geom_bond_site_symmetry_2
Ag1 P1 1_555 1_555
C1 C2 1_555 1_555
C2 H1 1_555 1_555
C3 C2 1_555 1_555
C4 C3 1_555 1_555
H2 C4 1_555 1_555
C5 C4 1_555 1_555
C6 C1 1_555 1_555
H3 C6 1_555 1_555
P1 C1 1_555 1_555
C7 P1 1_555 1_555
C8 C7 1_555 1_555
H4 C8 1_555 1_555
C9 C8 1_555 1_555
H5 C9 1_555 1_555
C10 C9 1_555 1_555
H6 C10 1_555 1_555
C11 C10 1_555 1_555
H7 C11 1_555 1_555
C12 C7 1_555 1_555
H8 C12 1_555 1_555
C13 P1 1_555 1_555
C14 C13 1_555 1_555
H9 C14 1_555 1_555
C15 C14 1_555 1_555
H10 C15 1_555 1_555
C16 C15 1_555 1_555
H11 C16 1_555 1_555
C17 C16 1_555 1_555
H12 C17 1_555 1_555
C18 C13 1_555 1_555
H13 C18 1_555 1_555
P2 C3 1_555 1_555
C19 P2 1_555 1_555
C20 C19 1_555 1_555
H14 C20 1_555 1_555
C21 C20 1_555 1_555
H15 C21 1_555 1_555
C22 C21 1_555 1_555
H16 C22 1_555 1_555
C23 C22 1_555 1_555
H17 C23 1_555 1_555
C24 C19 1_555 1_555
H18 C24 1_555 1_555
C25 P2 1_555 1_555
C26 C25 1_555 1_555
H19 C26 1_555 1_555
C27 C26 1_555 1_555
H20 C27 1_555 1_555
C28 C27 1_555 1_555
H21 C28 1_555 1_555
C29 C28 1_555 1_555
H22 C29 1_555 1_555
C30 C25 1_555 1_555
H23 C30 1_555 1_555
P3 C5 1_555 1_555
C31 P3 1_555 1_555
C32 C31 1_555 1_555
H24 C32 1_555 1_555
C33 C32 1_555 1_555
H25 C33 1_555 1_555
C34 C33 1_555 1_555
H26 C34 1_555 1_555
C35 C34 1_555 1_555
H27 C35 1_555 1_555
C36 C31 1_555 1_555
H28 C36 1_555 1_555
C37 P3 1_555 1_555
C38 C37 1_555 1_555
H29 C38 1_555 1_555
C39 C38 1_555 1_555
H30 C39 1_555 1_555
C40 C39 1_555 1_555
H31 C40 1_555 1_555
C41 C40 1_555 1_555
H32 C41 1_555 1_555
C42 C37 1_555 1_555
H33 C42 1_555 1_555
O1 S1 1_555 1_555
O2 S1 1_555 1_555
O3 S1 1_555 1_555
S1 C43 1_555 1_555
C43 F1 1_555 1_555
F2 C43 1_555 1_555
F3 C43 1_555 1_555
Ag2 P3 1_555 1_555
O4 S2 1_555 1_555
S2 C44 1_555 1_555
C44 F4 1_555 1_555
O4B S2 1_555 1_555
O4A S2 1_555 1_555
F4A C44 1_555 1_555
F4B C44 1_555 1_555
C1F C2F 1_555 1_555
C2F H1F 1_555 1_555
C3F C2F 1_555 1_555
C4F C3F 1_555 1_555
H2F C4F 1_555 1_555
C5F C4F 1_555 1_555
C6F C1F 1_555 1_555
H3F C6F 1_555 1_555
P1F C1F 1_555 1_555
C7F P1F 1_555 1_555
C8F C7F 1_555 1_555
H4F C8F 1_555 1_555
C9F C8F 1_555 1_555
H5F C9F 1_555 1_555
C10F C9F 1_555 1_555
H6F C10F 1_555 1_555
C11F C10F 1_555 1_555
H7F C11F 1_555 1_555
C12F C7F 1_555 1_555
H8F C12F 1_555 1_555
C13F P1F 1_555 1_555
C14F C13F 1_555 1_555
H9F C14F 1_555 1_555
C15F C14F 1_555 1_555
H10F C15F 1_555 1_555
C16F C15F 1_555 1_555
H11F C16F 1_555 1_555
C17F C16F 1_555 1_555
H12F C17F 1_555 1_555
C18F C13F 1_555 1_555
H13F C18F 1_555 1_555
P2F Ag1 1_555 1_555
C19F P2F 1_555 1_555
C20F C19F 1_555 1_555
H14F C20F 1_555 1_555
C21F C20F 1_555 1_555
H15F C21F 1_555 1_555
C22F C21F 1_555 1_555
H16F C22F 1_555 1_555
C23F C22F 1_555 1_555
H17F C23F 1_555 1_555
C24F C19F 1_555 1_555
H18F C24F 1_555 1_555
C25F P2F 1_555 1_555
C26F C25F 1_555 1_555
H19F C26F 1_555 1_555
C27F C26F 1_555 1_555
H20F C27F 1_555 1_555
C28F C27F 1_555 1_555
H21F C28F 1_555 1_555
C29F C28F 1_555 1_555
H22F C29F 1_555 1_555
C30F C25F 1_555 1_555
H23F C30F 1_555 1_555
P3F C5F 1_555 1_555
C31F P3F 1_555 1_555
C32F C31F 1_555 1_555
H24F C32F 1_555 1_555
C33F C32F 1_555 1_555
H25F C33F 1_555 1_555
C34F C33F 1_555 1_555
H26F C34F 1_555 1_555
C35F C34F 1_555 1_555
H27F C35F 1_555 1_555
C36F C31F 1_555 1_555
H28F C36F 1_555 1_555
C37F P3F 1_555 1_555
C38F C37F 1_555 1_555
H29F C38F 1_555 1_555
C39F C38F 1_555 1_555
H30F C39F 1_555 1_555
C40F C39F 1_555 1_555
H31F C40F 1_555 1_555
C41F C40F 1_555 1_555
H32F C41F 1_555 1_555
C42F C37F 1_555 1_555
H33F C42F 1_555 1_555
Ag1F P2 1_555 1_555
Ag2F P3F 1_555 1_555
C1A C2A 1_555 1_555
C2A H1A 1_555 1_555
C3A C2A 1_555 1_555
C4A C3A 1_555 1_555
H2A C4A 1_555 1_555
C5A C4A 1_555 1_555
C6A C1A 1_555 1_555
H3A C6A 1_555 1_555
P1A C1A 1_555 1_555
C7A P1A 1_555 1_555
C8A C7A 1_555 1_555
H4A C8A 1_555 1_555
C9A C8A 1_555 1_555
H5A C9A 1_555 1_555
C10A C9A 1_555 1_555
H6A C10A 1_555 1_555
C11A C10A 1_555 1_555
H7A C11A 1_555 1_555
C12A C7A 1_555 1_555
H8A C12A 1_555 1_555
C13A P1A 1_555 1_555
C14A C13A 1_555 1_555
H9A C14A 1_555 1_555
C15A C14A 1_555 1_555
H10A C15A 1_555 1_555
C16A C15A 1_555 1_555
H11A C16A 1_555 1_555
C17A C16A 1_555 1_555
H12A C17A 1_555 1_555
C18A C13A 1_555 1_555
H13A C18A 1_555 1_555
P2A C3A 1_555 1_555
C19A P2A 1_555 1_555
C20A C19A 1_555 1_555
H14A C20A 1_555 1_555
C21A C20A 1_555 1_555
H15A C21A 1_555 1_555
C22A C21A 1_555 1_555
H16A C22A 1_555 1_555
C23A C22A 1_555 1_555
H17A C23A 1_555 1_555
C24A C19A 1_555 1_555
H18A C24A 1_555 1_555
C25A P2A 1_555 1_555
C26A C25A 1_555 1_555
H19A C26A 1_555 1_555
C27A C26A 1_555 1_555
H20A C27A 1_555 1_555
C28A C27A 1_555 1_555
H21A C28A 1_555 1_555
C29A C28A 1_555 1_555
H22A C29A 1_555 1_555
C30A C25A 1_555 1_555
H23A C30A 1_555 1_555
P3A Ag2 1_555 1_555
C31A P3A 1_555 1_555
C32A C31A 1_555 1_555
H24A C32A 1_555 1_555
C33A C32A 1_555 1_555
H25A C33A 1_555 1_555
C34A C33A 1_555 1_555
H26A C34A 1_555 1_555
C35A C34A 1_555 1_555
H27A C35A 1_555 1_555
C36A C31A 1_555 1_555
H28A C36A 1_555 1_555
C37A P3A 1_555 1_555
C38A C37A 1_555 1_555
H29A C38A 1_555 1_555
C39A C38A 1_555 1_555
H30A C39A 1_555 1_555
C40A C39A 1_555 1_555
H31A C40A 1_555 1_555
C41A C40A 1_555 1_555
H32A C41A 1_555 1_555
C42A C37A 1_555 1_555
H33A C42A 1_555 1_555
Ag1A P1A 1_555 1_555
P3B Ag2 1_555 1_555
P3G Ag2F 1_555 1_555
P3H Ag2F 1_555 1_555
Ag1G P2A 1_555 1_555
P2G Ag1A 1_555 1_555
C5 C6 1_555 1_555
C11 C12 1_555 1_555
C17 C18 1_555 1_555
C23 C24 1_555 1_555
C29 C30 1_555 1_555
C35 C36 1_555 1_555
C41 C42 1_555 1_555
C3F P2F 1_555 1_555
C5F C6F 1_555 1_555
P1F Ag1F 1_555 1_555
C11F C12F 1_555 1_555
C17F C18F 1_555 1_555
C23F C24F 1_555 1_555
C29F C30F 1_555 1_555
C35F C36F 1_555 1_555
C41F C42F 1_555 1_555
C5A C6A 1_555 1_555
C5A P3A 1_555 1_555
C11A C12A 1_555 1_555
C17A C18A 1_555 1_555
C23A C24A 1_555 1_555
C29A C30A 1_555 1_555
C35A C36A 1_555 1_555
C41A C42A 1_555 1_555

#END
