
#######################################################################
#
#                 Cambridge Crystallographic Data Centre
#                                CCDC 
#
#######################################################################
#
# If this CIF has been generated from an entry in the Cambridge 
# Structural Database, then it will include bibliographic, chemical, 
# crystal, experimental, refinement or atomic coordinate data resulting 
# from the CCDC's data processing and validation procedures.
#
#######################################################################

data_ODIPOH
_symmetry_cell_setting           monoclinic
_symmetry_space_group_name_H-M   'C 2/c'
_symmetry_Int_Tables_number      15
_space_group_name_Hall           '-C 2yn'
loop_
_symmetry_equiv_pos_site_id
_symmetry_equiv_pos_as_xyz
1 x,y,z
2 1/2+x,1/2+y,z
3 -x,y,1/2-z
4 1/2-x,1/2+y,1/2-z
5 -x,-y,-z
6 1/2-x,1/2-y,-z
7 x,-y,1/2+z
8 1/2+x,1/2-y,1/2+z
_cell_length_a                   15.493(5)
_cell_length_b                   5.252(5)
_cell_length_c                   12.214(5)
_cell_angle_alpha                90
_cell_angle_beta                 111.418(5)
_cell_angle_gamma                90
_cell_volume                     925.21
loop_
_atom_site_label
_atom_site_type_symbol
_atom_site_fract_x
_atom_site_fract_y
_atom_site_fract_z
Zn1 Zn 1.0000 -0.46688(5) 0.2500
O1 O 0.87777(8) -0.2899(2) 0.17923(10)
O2 O 0.96126(8) -0.1434(2) 0.08040(11)
O3 O 0.72484(8) -0.0737(2) 0.16484(10)
O4 O 1.05616(8) -0.7144(2) 0.17248(11)
C1 C 0.88995(10) -0.1344(3) 0.10439(14)
C2 C 0.81624(10) 0.0606(3) 0.05001(13)
C3 C 0.73880(11) 0.0837(3) 0.08349(13)
C4 C 0.82653(11) 0.2270(3) -0.03351(14)
H1 H 0.7692 -0.1707 0.1844
H2 H 0.8773 0.2140 -0.0563
H3 H 1.1014 -0.6867 0.1668
H4 H 1.0284 -0.8151 0.1289
Zn1G Zn 0.5000 0.96688(5) -0.2500
O1E O 0.62223(8) 0.7899(2) -0.17923(10)
O1B O 1.12223(8) -0.2899(2) 0.32077(10)
O2E O 0.53874(8) 0.6434(2) -0.08040(11)
O3E O 0.77516(8) 0.5737(2) -0.16484(10)
O4B O 0.94384(8) -0.7144(2) 0.32752(11)
C1E C 0.61005(10) 0.6344(3) -0.10439(14)
C2E C 0.68376(10) 0.4394(3) -0.05001(13)
C3E C 0.76120(11) 0.4163(3) -0.08349(13)
C4E C 0.67347(11) 0.2730(3) 0.03351(14)
H1E H 0.7308 0.6707 -0.1844
H2E H 0.6227 0.2860 0.0563
H3B H 0.8986 -0.6867 0.3332
H4B H 0.9716 -0.8151 0.3711
loop_
_geom_bond_atom_site_label_1
_geom_bond_atom_site_label_2
_geom_bond_site_symmetry_1
_geom_bond_site_symmetry_2
Zn1 O1 1_555 1_555
O1 C1 1_555 1_555
O2 C1 1_555 1_555
O3 C3 1_555 1_555
O4 Zn1 1_555 1_555
C1 C2 1_555 1_555
C2 C3 1_555 1_555
C3 C4E 1_555 1_555
C4 C2 1_555 1_555
H1 O3 1_555 1_555
H2 C4 1_555 1_555
H3 O4 1_555 1_555
H4 O4 1_555 1_555
Zn1G O1E 1_555 1_555
O1E C1E 1_555 1_555
O1B Zn1 1_555 1_555
O2E C1E 1_555 1_555
O3E C3E 1_555 1_555
O4B Zn1 1_555 1_555
C1E C2E 1_555 1_555
C2E C3E 1_555 1_555
C3E C4 1_555 1_555
C4E C2E 1_555 1_555
H1E O3E 1_555 1_555
H2E C4E 1_555 1_555
H3B O4B 1_555 1_555
H4B O4B 1_555 1_555

#END
