
#######################################################################
#
#                 Cambridge Crystallographic Data Centre
#                                CCDC 
#
#######################################################################
#
# If this CIF has been generated from an entry in the Cambridge 
# Structural Database, then it will include bibliographic, chemical, 
# crystal, experimental, refinement or atomic coordinate data resulting 
# from the CCDC's data processing and validation procedures.
#
#######################################################################

data_ODIPAS01
_symmetry_cell_setting           trigonal
_symmetry_space_group_name_H-M   'P -3 c 1'
_symmetry_Int_Tables_number      165
_space_group_name_Hall           '-P 3 2"c'
loop_
_symmetry_equiv_pos_site_id
_symmetry_equiv_pos_as_xyz
1 x,y,z
2 -y,x-y,z
3 -x+y,-x,z
4 y,x,1/2-z
5 -x+y,y,1/2+z
6 x,x-y,1/2+z
7 -x,-y,-z
8 y,-x+y,-z
9 x-y,x,-z
10 -y,-x,1/2+z
11 x-y,-y,1/2-z
12 -x,-x+y,1/2-z
_cell_length_a                   29.949(8)
_cell_length_b                   29.949(8)
_cell_length_c                   25.929(10)
_cell_angle_alpha                90
_cell_angle_beta                 90
_cell_angle_gamma                120
_cell_volume                     20141
loop_
_atom_site_label
_atom_site_type_symbol
_atom_site_fract_x
_atom_site_fract_y
_atom_site_fract_z
Ag1 Ag 0.49849(5) 1.02708(5) 0.58564(4)
Ag2 Ag 0.6667 1.3333 0.43461(8)
P1 P 0.54504(16) 1.11903(15) 0.56992(13)
P2 P 0.52227(17) 1.05234(16) 0.37020(13)
P3 P 0.68156(17) 1.25481(16) 0.41943(14)
C1 C 0.5675(6) 1.1361(6) 0.5036(5)
C2 C 0.5400(5) 1.0968(6) 0.4666(5)
H1 H 0.5114 1.0647 0.4766
C3 C 0.5561(6) 1.1065(5) 0.4146(4)
C4 C 0.5997(6) 1.1535(6) 0.4003(5)
H2 H 0.6111 1.1591 0.3656
C5 C 0.6263(5) 1.1923(5) 0.4374(5)
C6 C 0.6107(6) 1.1824(5) 0.4892(5)
H3 H 0.6298 1.2075 0.5147
C7 C 0.6024(6) 1.1442(6) 0.6105(5)
C8 C 0.6395(7) 1.1296(6) 0.5989(6)
H4 H 0.6375 1.1129 0.5671
C9 C 0.6773(7) 1.1391(6) 0.6323(7)
H5 H 0.7013 1.1281 0.6239
C10 C 0.6826(7) 1.1635(7) 0.6771(7)
H6 H 0.7102 1.1701 0.6997
C11 C 0.6473(8) 1.1793(8) 0.6905(6)
H7 H 0.6507 1.1959 0.7226
C12 C 0.6059(7) 1.1706(6) 0.6561(6)
H8 H 0.5823 1.1821 0.6640
C13 C 0.5108(6) 1.1526(6) 0.5856(5)
C14 C 0.5329(6) 1.2049(7) 0.5814(5)
H9 H 0.5675 1.2243 0.5697
C15 C 0.5067(7) 1.2308(7) 0.5936(6)
H10 H 0.5232 1.2672 0.5905
C16 C 0.4558(8) 1.2024(8) 0.6105(6)
H11 H 0.4372 1.2193 0.6192
C17 C 0.4328(7) 1.1496(8) 0.6144(6)
H12 H 0.3980 1.1299 0.6255
C18 C 0.4613(7) 1.1244(6) 0.6016(5)
H13 H 0.4455 1.0880 0.6044
C19 C 0.4706(7) 1.0582(8) 0.3467(6)
C20 C 0.4738(8) 1.1050(9) 0.3384(7)
H14 H 0.5054 1.1354 0.3459
C21 C 0.4329(11) 1.1103(10) 0.3193(8)
H15 H 0.4349 1.1424 0.3122
C22 C 0.3851(10) 1.0582(18) 0.3117(9)
H16 H 0.3534 1.0551 0.3009
C23 C 0.3901(19) 1.0126(12) 0.3217(13)
H17 H 0.3612 0.9802 0.3130
C24 C 0.4267(10) 1.0118(15) 0.3397(10)
H18 H 0.4252 0.9803 0.3487
C25 C 0.5657(7) 1.0660(6) 0.3149(6)
C26 C 0.6124(8) 1.0658(8) 0.3241(7)
H19 H 0.6207 1.0608 0.3582
C27 C 0.6455(9) 1.0728(8) 0.2844(8)
H20 H 0.6773 1.0737 0.2903
C28 C 0.6303(10) 1.0786(8) 0.2342(7)
H21 H 0.6519 1.0823 0.2058
C29 C 0.5854(8) 1.0791(7) 0.2253(6)
H22 H 0.5766 1.0837 0.1913
C30 C 0.5537(7) 1.0730(6) 0.2656(6)
H23 H 0.5227 1.0735 0.2595
C31 C 0.7349(7) 1.2517(7) 0.4455(5)
C32 C 0.7833(8) 1.2954(7) 0.4446(6)
H24 H 0.7862 1.3267 0.4327
C33 C 0.8258(9) 1.2959(7) 0.4595(7)
H25 H 0.8579 1.3272 0.4582
C34 C 0.8238(7) 1.2511(9) 0.4771(6)
H26 H 0.8538 1.2501 0.4872
C35 C 0.7742(10) 1.2074(8) 0.4789(7)
H27 H 0.7708 1.1761 0.4916
C36 C 0.7304(7) 1.2074(8) 0.4632(6)
H28 H 0.6977 1.1768 0.4648
C37 C 0.6884(7) 1.2467(5) 0.3505(6)
C38 C 0.7195(7) 1.2306(7) 0.3303(6)
H29 H 0.7406 1.2236 0.3523
C39 C 0.7209(7) 1.2242(7) 0.2763(7)
H30 H 0.7418 1.2115 0.2624
C40 C 0.6907(8) 1.2368(7) 0.2425(6)
H31 H 0.6918 1.2336 0.2062
C41 C 0.6607(7) 1.2534(6) 0.2643(6)
H32 H 0.6404 1.2617 0.2427
C42 C 0.6585(6) 1.2585(6) 0.3166(6)
H33 H 0.6367 1.2702 0.3303
P1F P 0.45496(16) 0.88097(15) 0.43008(13)
P2F P 0.47773(17) 0.94766(16) 0.62980(13)
P3F P 0.31844(17) 0.74519(16) 0.58057(14)
C1F C 0.4325(6) 0.8639(6) 0.4964(5)
C2F C 0.4600(5) 0.9032(6) 0.5334(5)
H1F H 0.4886 0.9353 0.5234
C3F C 0.4439(6) 0.8935(5) 0.5854(4)
C4F C 0.4003(6) 0.8465(6) 0.5997(5)
H2F H 0.3889 0.8409 0.6344
C5F C 0.3737(5) 0.8077(5) 0.5626(5)
C6F C 0.3893(6) 0.8176(5) 0.5108(5)
H3F H 0.3702 0.7925 0.4853
C7F C 0.3976(6) 0.8558(6) 0.3895(5)
C8F C 0.3605(7) 0.8704(6) 0.4011(6)
H4F H 0.3625 0.8871 0.4329
C9F C 0.3227(7) 0.8609(6) 0.3677(7)
H5F H 0.2987 0.8719 0.3761
C10F C 0.3174(7) 0.8365(7) 0.3229(7)
H6F H 0.2898 0.8299 0.3003
C11F C 0.3527(8) 0.8207(8) 0.3095(6)
H7F H 0.3493 0.8041 0.2774
C12F C 0.3941(7) 0.8294(6) 0.3439(6)
H8F H 0.4177 0.8179 0.3360
C13F C 0.4892(6) 0.8474(6) 0.4144(5)
C14F C 0.4671(6) 0.7951(7) 0.4186(5)
H9F H 0.4325 0.7757 0.4303
C15F C 0.4933(7) 0.7692(7) 0.4064(6)
H10F H 0.4768 0.7328 0.4095
C16F C 0.5442(8) 0.7976(8) 0.3895(6)
H11F H 0.5628 0.7807 0.3808
C17F C 0.5672(7) 0.8504(8) 0.3856(6)
H12F H 0.6020 0.8701 0.3745
C18F C 0.5387(7) 0.8756(6) 0.3984(5)
H13F H 0.5545 0.9120 0.3956
C19F C 0.5294(7) 0.9418(8) 0.6533(6)
C20F C 0.5262(8) 0.8950(9) 0.6616(7)
H14F H 0.4946 0.8646 0.6541
C21F C 0.5671(11) 0.8897(10) 0.6807(8)
H15F H 0.5651 0.8576 0.6878
C22F C 0.6149(10) 0.9418(18) 0.6883(9)
H16F H 0.6466 0.9449 0.6991
C23F C 0.6099(19) 0.9874(12) 0.6783(13)
H17F H 0.6388 1.0198 0.6870
C24F C 0.5733(10) 0.9882(15) 0.6603(10)
H18F H 0.5748 1.0197 0.6513
C25F C 0.4343(7) 0.9340(6) 0.6851(6)
C26F C 0.3876(8) 0.9342(8) 0.6759(7)
H19F H 0.3793 0.9392 0.6418
C27F C 0.3545(9) 0.9272(8) 0.7156(8)
H20F H 0.3227 0.9263 0.7097
C28F C 0.3697(10) 0.9214(8) 0.7658(7)
H21F H 0.3481 0.9177 0.7942
C29F C 0.4146(8) 0.9209(7) 0.7747(6)
H22F H 0.4234 0.9163 0.8087
C30F C 0.4463(7) 0.9270(6) 0.7344(6)
H23F H 0.4773 0.9265 0.7405
C31F C 0.2651(7) 0.7483(7) 0.5545(5)
C32F C 0.2167(8) 0.7046(7) 0.5554(6)
H24F H 0.2138 0.6733 0.5673
C33F C 0.1742(9) 0.7041(7) 0.5405(7)
H25F H 0.1421 0.6728 0.5418
C34F C 0.1762(7) 0.7489(9) 0.5229(6)
H26F H 0.1462 0.7499 0.5128
C35F C 0.2258(10) 0.7926(8) 0.5211(7)
H27F H 0.2292 0.8239 0.5084
C36F C 0.2696(7) 0.7926(8) 0.5368(6)
H28F H 0.3023 0.8232 0.5352
C37F C 0.3116(7) 0.7533(5) 0.6495(6)
C38F C 0.2805(7) 0.7694(7) 0.6697(6)
H29F H 0.2594 0.7764 0.6477
C39F C 0.2791(7) 0.7758(7) 0.7237(7)
H30F H 0.2582 0.7885 0.7376
C40F C 0.3093(8) 0.7632(7) 0.7575(6)
H31F H 0.3082 0.7664 0.7938
C41F C 0.3393(7) 0.7466(6) 0.7357(6)
H32F H 0.3596 0.7383 0.7573
C42F C 0.3415(6) 0.7415(6) 0.6834(6)
H33F H 0.3633 0.7298 0.6697
Ag1F Ag 0.50151(5) 0.97292(5) 0.41436(4)
Ag2F Ag 0.3333 0.6667 0.56539(8)
P1A P 0.88097(15) 1.42601(22) 0.56992(13)
P2A P 0.94766(16) 1.46993(23) 0.37020(13)
P3A P 0.74519(16) 1.42675(23) 0.41943(14)
C1A C 0.8639(6) 1.4314(8) 0.5036(5)
C2A C 0.9032(6) 1.4432(8) 0.4666(5)
H1A H 0.9353 1.4467 0.4766
C3A C 0.8935(5) 1.4496(8) 0.4146(4)
C4A C 0.8465(6) 1.4462(8) 0.4003(5)
H2A H 0.8409 1.4520 0.3656
C5A C 0.8077(5) 1.4340(7) 0.4374(5)
C6A C 0.8176(5) 1.4283(8) 0.4892(5)
H3A H 0.7925 1.4223 0.5147
C7A C 0.8558(6) 1.4582(8) 0.6105(5)
C8A C 0.8704(6) 1.5099(9) 0.5989(6)
H4A H 0.8871 1.5246 0.5671
C9A C 0.8609(6) 1.5382(9) 0.6323(7)
H5A H 0.8719 1.5732 0.6239
C10A C 0.8365(7) 1.5191(10) 0.6771(7)
H6A H 0.8299 1.5401 0.6997
C11A C 0.8207(8) 1.4680(11) 0.6905(6)
H7A H 0.8041 1.4548 0.7226
C12A C 0.8294(6) 1.4353(9) 0.6561(6)
H8A H 0.8179 1.4002 0.6640
C13A C 0.8474(6) 1.3582(8) 0.5856(5)
C14A C 0.7951(7) 1.3280(9) 0.5814(5)
H9A H 0.7757 1.3432 0.5697
C15A C 0.7692(7) 1.2759(10) 0.5936(6)
H10A H 0.7328 1.2560 0.5905
C16A C 0.7976(8) 1.2534(11) 0.6105(6)
H11A H 0.7807 1.2179 0.6192
C17A C 0.8504(8) 1.2832(11) 0.6144(6)
H12A H 0.8701 1.2681 0.6255
C18A C 0.8756(6) 1.3369(9) 0.6016(5)
H13A H 0.9120 1.3575 0.6044
C19A C 0.9418(8) 1.4124(11) 0.3467(6)
C20A C 0.8950(9) 1.3688(12) 0.3384(7)
H14A H 0.8646 1.3700 0.3459
C21A C 0.8897(10) 1.3226(15) 0.3193(8)
H15A H 0.8576 1.2925 0.3122
C22A C 0.9418(18) 1.3269(21) 0.3117(9)
H16A H 0.9449 1.2983 0.3009
C23A C 0.9874(12) 1.3775(22) 0.3217(13)
H17A H 1.0198 1.3810 0.3130
C24A C 0.9882(15) 1.4149(18) 0.3397(10)
H18A H 1.0197 1.4449 0.3487
C25A C 0.9340(6) 1.4997(9) 0.3149(6)
C26A C 0.9342(8) 1.5466(11) 0.3241(7)
H19A H 0.9392 1.5599 0.3582
C27A C 0.9272(8) 1.5727(12) 0.2844(8)
H20A H 0.9263 1.6036 0.2903
C28A C 0.9214(8) 1.5517(13) 0.2342(7)
H21A H 0.9177 1.5696 0.2058
C29A C 0.9209(7) 1.5063(11) 0.2253(6)
H22A H 0.9163 1.4929 0.1913
C30A C 0.9270(6) 1.4807(9) 0.2656(6)
H23A H 0.9265 1.4492 0.2595
C31A C 0.7483(7) 1.4832(10) 0.4455(5)
C32A C 0.7046(7) 1.4879(11) 0.4446(6)
H24A H 0.6733 1.4595 0.4327
C33A C 0.7041(7) 1.5299(11) 0.4595(7)
H25A H 0.6728 1.5307 0.4582
C34A C 0.7489(9) 1.5727(11) 0.4771(6)
H26A H 0.7499 1.6037 0.4872
C35A C 0.7926(8) 1.5668(13) 0.4789(7)
H27A H 0.8239 1.5947 0.4916
C36A C 0.7926(8) 1.5230(11) 0.4632(6)
H28A H 0.8232 1.5209 0.4648
C37A C 0.7533(5) 1.4417(9) 0.3505(6)
C38A C 0.7694(7) 1.4889(10) 0.3303(6)
H29A H 0.7764 1.5170 0.3523
C39A C 0.7758(7) 1.4967(10) 0.2763(7)
H30A H 0.7885 1.5303 0.2624
C40A C 0.7632(7) 1.4539(11) 0.2425(6)
H31A H 0.7664 1.4582 0.2062
C41A C 0.7466(6) 1.4073(9) 0.2643(6)
H32A H 0.7383 1.3787 0.2427
C42A C 0.7415(6) 1.4000(8) 0.3166(6)
H33A H 0.7298 1.3665 0.3303
Ag1A Ag 0.97292(5) 1.47141(7) 0.58564(4)
P3B P 0.57325(23) 1.31844(17) 0.41943(14)
P3G P 0.25481(16) 0.57325(23) 0.58057(14)
P3H P 0.42675(23) 0.68156(17) 0.58057(14)
Ag1G Ag 1.02708(5) 1.52859(7) 0.41436(4)
P2G P 1.05234(16) 1.53007(23) 0.62980(13)
O1 O 0.6513(4) 1.0822(4) 0.4802(4)
O2 O 0.5701(4) 1.0160(4) 0.5170(5)
O3 O 0.6014(5) 1.0014(5) 0.4364(4)
S1 S 0.61372(19) 1.02877(18) 0.48382(17)
C43 C 0.6442(11) 1.0046(10) 0.5207(11)
F1 F 0.6868(6) 1.0080(6) 0.4931(6)
F2 F 0.6627(6) 1.0263(6) 0.5654(5)
F3 F 0.6157(6) 0.9528(6) 0.5293(6)
O4 O 0.3828(4) 0.6718(4) 0.4507(4)
S2 S 0.3333 0.6667 0.4385(2)
F4 F 0.3726(5) 0.7059(5) 0.3495(4)
C44 C 0.3333 0.6667 0.3694(9)
O4B O 0.2890(6) 0.6172(4) 0.4507(4)
O4A O 0.3282(4) 0.7110(6) 0.4507(4)
F4B F 0.3333(7) 0.6274(5) 0.3495(4)
F4A F 0.2941(5) 0.6667(7) 0.3495(4)
loop_
_geom_bond_atom_site_label_1
_geom_bond_atom_site_label_2
_geom_bond_site_symmetry_1
_geom_bond_site_symmetry_2
Ag1 P1 1_555 1_555
Ag2 P3 1_555 1_555
P1 C1 1_555 1_555
P2 C3 1_555 1_555
P3 C5 1_555 1_555
C1 C2 1_555 1_555
C2 H1 1_555 1_555
C3 C2 1_555 1_555
C4 C3 1_555 1_555
H2 C4 1_555 1_555
C5 C4 1_555 1_555
C6 C1 1_555 1_555
H3 C6 1_555 1_555
C7 P1 1_555 1_555
C8 C7 1_555 1_555
H4 C8 1_555 1_555
C9 C8 1_555 1_555
H5 C9 1_555 1_555
C10 C9 1_555 1_555
H6 C10 1_555 1_555
C11 C10 1_555 1_555
H7 C11 1_555 1_555
C12 C7 1_555 1_555
H8 C12 1_555 1_555
C13 P1 1_555 1_555
C14 C13 1_555 1_555
H9 C14 1_555 1_555
C15 C14 1_555 1_555
H10 C15 1_555 1_555
C16 C15 1_555 1_555
H11 C16 1_555 1_555
C17 C16 1_555 1_555
H12 C17 1_555 1_555
C18 C13 1_555 1_555
H13 C18 1_555 1_555
C19 P2 1_555 1_555
C20 C19 1_555 1_555
H14 C20 1_555 1_555
C21 C20 1_555 1_555
H15 C21 1_555 1_555
C22 C21 1_555 1_555
H16 C22 1_555 1_555
C23 C22 1_555 1_555
H17 C23 1_555 1_555
C24 C19 1_555 1_555
H18 C24 1_555 1_555
C25 P2 1_555 1_555
C26 C25 1_555 1_555
H19 C26 1_555 1_555
C27 C26 1_555 1_555
H20 C27 1_555 1_555
C28 C27 1_555 1_555
H21 C28 1_555 1_555
C29 C28 1_555 1_555
H22 C29 1_555 1_555
C30 C25 1_555 1_555
H23 C30 1_555 1_555
C31 P3 1_555 1_555
C32 C31 1_555 1_555
H24 C32 1_555 1_555
C33 C32 1_555 1_555
H25 C33 1_555 1_555
C34 C33 1_555 1_555
H26 C34 1_555 1_555
C35 C34 1_555 1_555
H27 C35 1_555 1_555
C36 C31 1_555 1_555
H28 C36 1_555 1_555
C37 P3 1_555 1_555
C38 C37 1_555 1_555
H29 C38 1_555 1_555
C39 C38 1_555 1_555
H30 C39 1_555 1_555
C40 C39 1_555 1_555
H31 C40 1_555 1_555
C41 C40 1_555 1_555
H32 C41 1_555 1_555
C42 C37 1_555 1_555
H33 C42 1_555 1_555
O1 S1 1_555 1_555
O2 S1 1_555 1_555
O3 S1 1_555 1_555
S1 C43 1_555 1_555
C43 F1 1_555 1_555
F2 C43 1_555 1_555
F3 C43 1_555 1_555
O4 S2 1_555 1_555
S2 C44 1_555 1_555
F4 C44 1_555 1_555
C44 F4B 1_555 1_555
O4B S2 1_555 1_555
O4A S2 1_555 1_555
F4A C44 1_555 1_555
P1F C1F 1_555 1_555
P2F Ag1 1_555 1_555
P3F C5F 1_555 1_555
C1F C2F 1_555 1_555
C2F H1F 1_555 1_555
C3F P2F 1_555 1_555
C4F C3F 1_555 1_555
H2F C4F 1_555 1_555
C5F C4F 1_555 1_555
C6F C1F 1_555 1_555
H3F C6F 1_555 1_555
C7F P1F 1_555 1_555
C8F C7F 1_555 1_555
H4F C8F 1_555 1_555
C9F C8F 1_555 1_555
H5F C9F 1_555 1_555
C10F C9F 1_555 1_555
H6F C10F 1_555 1_555
C11F C10F 1_555 1_555
H7F C11F 1_555 1_555
C12F C7F 1_555 1_555
H8F C12F 1_555 1_555
C13F P1F 1_555 1_555
C14F C13F 1_555 1_555
H9F C14F 1_555 1_555
C15F C14F 1_555 1_555
H10F C15F 1_555 1_555
C16F C15F 1_555 1_555
H11F C16F 1_555 1_555
C17F C16F 1_555 1_555
H12F C17F 1_555 1_555
C18F C13F 1_555 1_555
H13F C18F 1_555 1_555
C19F P2F 1_555 1_555
C20F C19F 1_555 1_555
H14F C20F 1_555 1_555
C21F C20F 1_555 1_555
H15F C21F 1_555 1_555
C22F C21F 1_555 1_555
H16F C22F 1_555 1_555
C23F C22F 1_555 1_555
H17F C23F 1_555 1_555
C24F C19F 1_555 1_555
H18F C24F 1_555 1_555
C25F P2F 1_555 1_555
C26F C25F 1_555 1_555
H19F C26F 1_555 1_555
C27F C26F 1_555 1_555
H20F C27F 1_555 1_555
C28F C27F 1_555 1_555
H21F C28F 1_555 1_555
C29F C28F 1_555 1_555
H22F C29F 1_555 1_555
C30F C25F 1_555 1_555
H23F C30F 1_555 1_555
C31F P3F 1_555 1_555
C32F C31F 1_555 1_555
H24F C32F 1_555 1_555
C33F C32F 1_555 1_555
H25F C33F 1_555 1_555
C34F C33F 1_555 1_555
H26F C34F 1_555 1_555
C35F C34F 1_555 1_555
H27F C35F 1_555 1_555
C36F C31F 1_555 1_555
H28F C36F 1_555 1_555
C37F P3F 1_555 1_555
C38F C37F 1_555 1_555
H29F C38F 1_555 1_555
C39F C38F 1_555 1_555
H30F C39F 1_555 1_555
C40F C39F 1_555 1_555
H31F C40F 1_555 1_555
C41F C40F 1_555 1_555
H32F C41F 1_555 1_555
C42F C37F 1_555 1_555
H33F C42F 1_555 1_555
Ag1F P2 1_555 1_555
Ag2F P3F 1_555 1_555
P1A C1A 1_555 1_555
P2A C3A 1_555 1_555
P3A Ag2 1_555 1_555
C1A C2A 1_555 1_555
C2A H1A 1_555 1_555
C3A C2A 1_555 1_555
C4A C3A 1_555 1_555
H2A C4A 1_555 1_555
C5A P3A 1_555 1_555
C6A C1A 1_555 1_555
H3A C6A 1_555 1_555
C7A P1A 1_555 1_555
C8A C7A 1_555 1_555
H4A C8A 1_555 1_555
C9A C8A 1_555 1_555
H5A C9A 1_555 1_555
C10A C9A 1_555 1_555
H6A C10A 1_555 1_555
C11A C10A 1_555 1_555
H7A C11A 1_555 1_555
C12A C7A 1_555 1_555
H8A C12A 1_555 1_555
C13A P1A 1_555 1_555
C14A C13A 1_555 1_555
H9A C14A 1_555 1_555
C15A C14A 1_555 1_555
H10A C15A 1_555 1_555
C16A C15A 1_555 1_555
H11A C16A 1_555 1_555
C17A C16A 1_555 1_555
H12A C17A 1_555 1_555
C18A C13A 1_555 1_555
H13A C18A 1_555 1_555
C19A P2A 1_555 1_555
C20A C19A 1_555 1_555
H14A C20A 1_555 1_555
C21A C20A 1_555 1_555
H15A C21A 1_555 1_555
C22A C21A 1_555 1_555
H16A C22A 1_555 1_555
C23A C22A 1_555 1_555
H17A C23A 1_555 1_555
C24A C19A 1_555 1_555
H18A C24A 1_555 1_555
C25A P2A 1_555 1_555
C26A C25A 1_555 1_555
H19A C26A 1_555 1_555
C27A C26A 1_555 1_555
H20A C27A 1_555 1_555
C28A C27A 1_555 1_555
H21A C28A 1_555 1_555
C29A C28A 1_555 1_555
H22A C29A 1_555 1_555
C30A C25A 1_555 1_555
H23A C30A 1_555 1_555
C31A P3A 1_555 1_555
C32A C31A 1_555 1_555
H24A C32A 1_555 1_555
C33A C32A 1_555 1_555
H25A C33A 1_555 1_555
C34A C33A 1_555 1_555
H26A C34A 1_555 1_555
C35A C34A 1_555 1_555
H27A C35A 1_555 1_555
C36A C31A 1_555 1_555
H28A C36A 1_555 1_555
C37A P3A 1_555 1_555
C38A C37A 1_555 1_555
H29A C38A 1_555 1_555
C39A C38A 1_555 1_555
H30A C39A 1_555 1_555
C40A C39A 1_555 1_555
H31A C40A 1_555 1_555
C41A C40A 1_555 1_555
H32A C41A 1_555 1_555
C42A C37A 1_555 1_555
H33A C42A 1_555 1_555
Ag1A P1A 1_555 1_555
P3B Ag2 1_555 1_555
P3G Ag2F 1_555 1_555
P3H Ag2F 1_555 1_555
Ag1G P2A 1_555 1_555
P2G Ag1A 1_555 1_555
C5 C6 1_555 1_555
C11 C12 1_555 1_555
C17 C18 1_555 1_555
C23 C24 1_555 1_555
C29 C30 1_555 1_555
C35 C36 1_555 1_555
C41 C42 1_555 1_555
P1F Ag1F 1_555 1_555
C2F C3F 1_555 1_555
C5F C6F 1_555 1_555
C11F C12F 1_555 1_555
C17F C18F 1_555 1_555
C23F C24F 1_555 1_555
C29F C30F 1_555 1_555
C35F C36F 1_555 1_555
C41F C42F 1_555 1_555
C4A C5A 1_555 1_555
C5A C6A 1_555 1_555
C11A C12A 1_555 1_555
C17A C18A 1_555 1_555
C23A C24A 1_555 1_555
C29A C30A 1_555 1_555
C35A C36A 1_555 1_555
C41A C42A 1_555 1_555

#END
