
#######################################################################
#
#                 Cambridge Crystallographic Data Centre
#                                CCDC 
#
#######################################################################
#
# If this CIF has been generated from an entry in the Cambridge 
# Structural Database, then it will include bibliographic, chemical, 
# crystal, experimental, refinement or atomic coordinate data resulting 
# from the CCDC's data processing and validation procedures.
#
#######################################################################

data_ODIQAU
_symmetry_cell_setting           orthorhombic
_symmetry_space_group_name_H-M   'P b n n'
_symmetry_Int_Tables_number      52
_space_group_name_Hall           '-P 2n 2b'
loop_
_symmetry_equiv_pos_site_id
_symmetry_equiv_pos_as_xyz
1 x,y,z
2 1/2-x,1/2-y,1/2+z
3 x,1/2-y,-z
4 1/2-x,y,1/2-z
5 -x,-y,-z
6 1/2+x,1/2+y,1/2-z
7 -x,1/2+y,z
8 1/2+x,-y,1/2+z
_cell_length_a                   8.126(3)
_cell_length_b                   13.037(3)
_cell_length_c                   15.075(3)
_cell_angle_alpha                90
_cell_angle_beta                 90
_cell_angle_gamma                90
_cell_volume                     1597.03
loop_
_atom_site_label
_atom_site_type_symbol
_atom_site_fract_x
_atom_site_fract_y
_atom_site_fract_z
Hg1 Hg 0.2500 0.073293(16) 0.2500
S1 S 0.4946(2) -0.01497(12) 0.30103(12)
N1 N 0.1457(4) 0.2060(2) 0.3391(2)
N2 N 0.5945(8) 0.1240(5) 0.4297(5)
C1 C -0.0170(5) 0.2219(3) 0.3487(3)
H1 H -0.0896 0.1750 0.3236
C2 C -0.0800(6) 0.3041(3) 0.3937(3)
H2 H -0.1934 0.3124 0.3981
C3 C 0.0244(5) 0.3751(3) 0.4330(3)
C4 C 0.1907(6) 0.3574(3) 0.4245(3)
H3 H 0.2657 0.4018 0.4508
C5 C 0.2461(6) 0.2740(3) 0.3772(3)
H4 H 0.3590 0.2645 0.3716
C6 C -0.0429(5) 0.4634(3) 0.4809(3)
H5 H -0.1569 0.4682 0.4846
C7 C 0.5518(7) 0.0677(4) 0.3772(5)
Hg1G Hg -0.2500 0.926707(16) 0.7500
S1C S 0.0054(2) -0.01497(12) 0.19897(12)
N1D N -0.1457(4) 0.7940(2) 0.6609(2)
N1C N 0.3543(4) 0.2060(2) 0.1609(2)
N2C N -0.0945(8) 0.1240(5) 0.0703(5)
C1D C 0.0170(5) 0.7781(3) 0.6513(3)
H1D H 0.0896 0.8250 0.6764
C2D C 0.0800(6) 0.6959(3) 0.6063(3)
H2D H 0.1934 0.6876 0.6019
C3D C -0.0244(5) 0.6249(3) 0.5670(3)
C4D C -0.1907(6) 0.6426(3) 0.5755(3)
H3D H -0.2657 0.5982 0.5492
C5D C -0.2461(6) 0.7260(3) 0.6228(3)
H4D H -0.3590 0.7355 0.6284
C6D C 0.0429(5) 0.5366(3) 0.5191(3)
H5D H 0.1569 0.5318 0.5154
C7C C -0.0518(7) 0.0677(4) 0.1228(5)
loop_
_geom_bond_atom_site_label_1
_geom_bond_atom_site_label_2
_geom_bond_site_symmetry_1
_geom_bond_site_symmetry_2
Hg1 S1 1_555 1_555
S1 C7 1_555 1_555
N1 Hg1 1_555 1_555
N2 C7 1_555 1_555
C1 N1 1_555 1_555
H1 C1 1_555 1_555
C2 C1 1_555 1_555
H2 C2 1_555 1_555
C3 C2 1_555 1_555
C4 C3 1_555 1_555
H3 C4 1_555 1_555
C5 N1 1_555 1_555
H4 C5 1_555 1_555
C6 C3 1_555 1_555
H5 C6 1_555 1_555
Hg1G N1D 1_555 1_555
S1C Hg1 1_555 1_555
N1D C1D 1_555 1_555
N1C Hg1 1_555 1_555
N2C C7C 1_555 1_555
C1D H1D 1_555 1_555
C2D C1D 1_555 1_555
H2D C2D 1_555 1_555
C3D C2D 1_555 1_555
C4D C3D 1_555 1_555
H3D C4D 1_555 1_555
C5D N1D 1_555 1_555
H4D C5D 1_555 1_555
C6D C6 1_555 1_555
H5D C6D 1_555 1_555
C7C S1C 1_555 1_555
C4 C5 1_555 1_555
C3D C6D 1_555 1_555
C4D C5D 1_555 1_555

#END
