
#######################################################################
#
#                 Cambridge Crystallographic Data Centre
#                                CCDC 
#
#######################################################################
#
# If this CIF has been generated from an entry in the Cambridge 
# Structural Database, then it will include bibliographic, chemical, 
# crystal, experimental, refinement or atomic coordinate data resulting 
# from the CCDC's data processing and validation procedures.
#
#######################################################################

data_ODIQOJ
_symmetry_cell_setting           monoclinic
_symmetry_space_group_name_H-M   'P 21/c'
_symmetry_Int_Tables_number      14
_space_group_name_Hall           '-P 2ybc'
loop_
_symmetry_equiv_pos_site_id
_symmetry_equiv_pos_as_xyz
1 x,y,z
2 -x,1/2+y,1/2-z
3 -x,-y,-z
4 x,1/2-y,1/2+z
_cell_length_a                   11.0071(9)
_cell_length_b                   17.5297(15)
_cell_length_c                   13.4570(12)
_cell_angle_alpha                90
_cell_angle_beta                 100.9820(10)
_cell_angle_gamma                90
_cell_volume                     2548.99
loop_
_atom_site_label
_atom_site_type_symbol
_atom_site_fract_x
_atom_site_fract_y
_atom_site_fract_z
Ce1 Ce 0.156767(17) 0.240594(11) 0.093345(14)
N1 N 0.1430(3) 0.37019(17) 0.1833(2)
O1 O 0.1723(3) 0.23880(15) 0.2794(2)
O2 O 0.1279(3) 0.36081(14) -0.01328(19)
O3 O 0.2956(3) 0.13269(18) 0.1614(3)
O4 O 0.0418(2) 0.11283(14) 0.0718(2)
O5 O 0.1720(3) 0.20516(17) -0.0725(2)
O6 O -0.0598(3) 0.25942(15) 0.0723(2)
O7 O 0.3652(3) 0.28519(18) 0.1078(2)
C1 C 0.1418(4) 0.3718(2) 0.2823(3)
C2 C 0.1250(3) 0.4354(2) 0.1310(3)
C3 C 0.1639(4) 0.2958(2) 0.3338(3)
C4 C 0.1355(3) 0.4278(2) 0.0219(3)
H1 H 0.3350 0.1166 0.1170
H2 H 0.3502 0.1362 0.2152
H3 H -0.0323 0.1035 0.0428
H4 H 0.0766 0.0693 0.0788
C5 C -0.1404(3) 0.3119(2) 0.0556(3)
C6 C 0.4654(3) 0.3208(2) 0.1244(3)
C7 C 0.1207(4) 0.4382(2) 0.3318(3)
C8 C 0.1006(4) 0.5034(2) 0.1748(3)
O8 O 0.1532(2) 0.48675(14) -0.02574(19)
O9 O -0.1761(2) 0.35087(15) 0.1210(2)
C9 C -0.2000(3) 0.3260(2) -0.0544(3)
C10 C 0.5307(3) 0.3307(2) 0.2325(3)
O10 O 0.5152(2) 0.34959(14) 0.05698(19)
H5 H 0.1219 0.4382 0.4011
C11 C 0.0980(4) 0.5044(2) 0.2762(3)
H6 H 0.0861 0.5477 0.1363
Ce2 Ce 0.327823(17) 0.542246(11) -0.091341(14)
N2 N -0.2887(3) 0.37870(16) -0.0668(2)
C12 C -0.1656(4) 0.2882(2) -0.1356(3)
N3 N 0.6254(3) 0.37925(16) 0.2443(2)
C13 C 0.4943(4) 0.2941(2) 0.3137(3)
H7 H 0.0810 0.5495 0.3073
O11 O 0.4518(2) 0.51009(14) 0.08468(19)
C14 C -0.3463(3) 0.3952(2) -0.1614(3)
C15 C -0.2269(4) 0.3044(3) -0.2319(3)
H8 H -0.1020 0.2525 -0.1248
C16 C 0.6884(4) 0.3938(2) 0.3374(3)
H9 H 0.4271 0.2609 0.3038
C17 C 0.5611(5) 0.3087(3) 0.4097(3)
O12 O 0.6662(2) 0.60483(15) 0.10821(19)
O13 O 0.7936(2) 0.48769(15) 0.2604(2)
C18 C -0.4423(3) 0.4575(2) -0.1682(3)
C19 C -0.3194(4) 0.3589(2) -0.2452(3)
H10 H -0.2066 0.2792 -0.2873
C20 C 0.6595(4) 0.3592(2) 0.4218(3)
C21 C 0.7889(4) 0.4537(2) 0.3420(3)
H11 H 0.5401 0.2847 0.4657
H12 H 0.7311 0.6291 0.1019
H13 H 0.6099 0.6230 0.0622
O14 O -0.5078(3) 0.47225(19) -0.2505(2)
H14 H -0.3627 0.3707 -0.3096
H15 H 0.7053 0.3695 0.4859
O15 O 0.8567(3) 0.46666(17) 0.4256(2)
O5C O 0.1720(3) 0.29484(17) 0.4275(2)
Ce1C Ce 0.156767(17) 0.259406(11) 0.593345(14)
Ce2B Ce -0.327823(17) 0.457754(11) 0.091341(14)
Ce2B_2 Ce 0.672177(17) 0.457754(11) 0.091341(14)
O11B O 0.5482(2) 0.48991(14) -0.08468(19)
O11B_2 O -0.4518(2) 0.48991(14) -0.08468(19)
O9_2 O 0.8239(2) 0.35087(15) 0.1210(2)
N2_2 N 0.7113(3) 0.37870(16) -0.0668(2)
O8B O 0.8468(2) 0.51325(14) 0.02574(19)
Ce2_2 Ce -0.672177(17) 0.542246(11) -0.091341(14)
O16 O 0.4370(18) 0.0580(8) 0.0374(13)
H16 H 0.4388 0.0310 -0.0147
H17 H 0.5111 0.0573 0.0702
loop_
_geom_bond_atom_site_label_1
_geom_bond_atom_site_label_2
_geom_bond_site_symmetry_1
_geom_bond_site_symmetry_2
Ce1 N1 1_555 1_555
N1 C1 1_555 1_555
O1 Ce1 1_555 1_555
O2 Ce1 1_555 1_555
O3 Ce1 1_555 1_555
O4 Ce1 1_555 1_555
O5 Ce1 1_555 1_555
O6 Ce1 1_555 1_555
O7 Ce1 1_555 1_555
C1 C3 1_555 1_555
C2 N1 1_555 1_555
C3 O1 1_555 1_555
C4 O2 1_555 1_555
H1 O3 1_555 1_555
H2 O3 1_555 1_555
H3 O4 1_555 1_555
H4 O4 1_555 1_555
C5 O6 1_555 1_555
C6 O7 1_555 1_555
C7 C1 1_555 1_555
C8 C2 1_555 1_555
O8 C4 1_555 1_555
O9 C5 1_555 1_555
C9 C5 1_555 1_555
C10 C6 1_555 1_555
O10 C6 1_555 1_555
H5 C7 1_555 1_555
C11 C7 1_555 1_555
H6 C8 1_555 1_555
Ce2 O8 1_555 1_555
N2 C9 1_555 1_555
C12 C9 1_555 1_555
N3 C10 1_555 1_555
C13 C10 1_555 1_555
H7 C11 1_555 1_555
O11 Ce2 1_555 1_555
C14 N2 1_555 1_555
C15 C12 1_555 1_555
H8 C12 1_555 1_555
C16 N3 1_555 1_555
H9 C13 1_555 1_555
C17 C13 1_555 1_555
O12 H12 1_555 1_555
O13 C21 1_555 1_555
C18 C14 1_555 1_555
C19 C14 1_555 1_555
H10 C15 1_555 1_555
C20 C16 1_555 1_555
C21 C16 1_555 1_555
H11 C17 1_555 1_555
H13 O12 1_555 1_555
O14 C18 1_555 1_555
H14 C19 1_555 1_555
H15 C20 1_555 1_555
O15 C21 1_555 1_555
O16 H16 1_555 1_555
H17 O16 1_555 1_555
O5C C3 1_555 1_555
Ce1C O5C 1_555 1_555
Ce2B O9 1_555 1_555
Ce2B_2 O10 1_555 1_555
O11B Ce2 1_555 1_555
O11B_2 C18 1_555 1_555
O9_2 Ce2B_2 1_555 1_555
N2_2 Ce2B_2 1_555 1_555
O8B Ce2B_2 1_555 1_555
Ce2_2 O11B_2 1_555 1_555
C2 C4 1_555 1_555
C8 C11 1_555 1_555
N2 Ce2B 1_555 1_555
N3 Ce2B_2 1_555 1_555
O11 Ce2B_2 1_555 1_555
C15 C19 1_555 1_555
C17 C20 1_555 1_555
O12 Ce2B_2 1_555 1_555
O13 Ce2B_2 1_555 1_555
Ce2B O11B_2 1_555 1_555
Ce2B_2 O11B 1_555 1_555

#END
