
#######################################################################
#
#                 Cambridge Crystallographic Data Centre
#                                CCDC 
#
#######################################################################
#
# If this CIF has been generated from an entry in the Cambridge 
# Structural Database, then it will include bibliographic, chemical, 
# crystal, experimental, refinement or atomic coordinate data resulting 
# from the CCDC's data processing and validation procedures.
#
#######################################################################

data_ODIREA
_symmetry_cell_setting           monoclinic
_symmetry_space_group_name_H-M   'P 21/n'
_symmetry_Int_Tables_number      14
_space_group_name_Hall           '-P 2yn'
loop_
_symmetry_equiv_pos_site_id
_symmetry_equiv_pos_as_xyz
1 x,y,z
2 1/2-x,1/2+y,1/2-z
3 -x,-y,-z
4 1/2+x,1/2-y,1/2+z
_cell_length_a                   14.9164(9)
_cell_length_b                   14.3755(9)
_cell_length_c                   18.9710(13)
_cell_angle_alpha                90
_cell_angle_beta                 101.952(2)
_cell_angle_gamma                90
_cell_volume                     3979.78
loop_
_atom_site_label
_atom_site_type_symbol
_atom_site_fract_x
_atom_site_fract_y
_atom_site_fract_z
Mn1 Mn 0.45907(6) 0.31759(7) 0.11649(5)
Mn2 Mn 0.71115(7) 0.61721(7) 0.30924(5)
O1 O 0.5341(3) 0.4189(3) 0.1607(2)
N1 N 0.4444(3) 0.2692(4) 0.2053(3)
C1 C 0.5711(5) 0.4344(5) 0.2266(4)
O2 O 0.6219(4) 0.5025(4) 0.2419(3)
N2 N 0.3897(4) 0.1985(4) 0.2042(3)
C2 C 0.5538(4) 0.3701(4) 0.2848(3)
O3 O 0.5611(3) 0.2358(3) 0.1238(3)
N3 N 0.3718(3) 0.2237(4) 0.0830(3)
C3 C 0.6008(5) 0.3887(5) 0.3546(4)
H1 H 0.6410 0.4388 0.3623
N4 N 0.3571(4) 0.3964(4) 0.0974(3)
O4 O 0.7093(3) 0.2242(4) 0.1228(3)
C4 C 0.5903(6) 0.3360(6) 0.4122(4)
H2 H 0.6229 0.3509 0.4581
N5 N 0.4692(3) 0.3599(3) 0.0239(3)
O5 O 0.3321(3) 0.2109(3) 0.0171(3)
C5 C 0.5316(5) 0.2608(5) 0.4029(4)
H3 H 0.5241 0.2246 0.4420
N6 N 0.4025(4) 0.4122(4) -0.0101(3)
O6 O 0.3051(3) 0.4129(4) 0.1405(3)
C6 C 0.4846(4) 0.2408(5) 0.3345(3)
H4 H 0.4454 0.1897 0.3277
O7 O 0.6231(3) 0.6262(3) 0.3671(2)
N7 N 0.7910(4) 0.6161(4) 0.2376(3)
C7 C 0.4931(4) 0.2940(4) 0.2748(3)
O8 O 0.7829(3) 0.5272(3) 0.3651(2)
N8 N 0.6487(4) 0.7153(4) 0.2436(3)
C8 C 0.3484(4) 0.1715(4) 0.1372(3)
C9 C 0.2834(5) 0.0926(5) 0.1284(4)
C10 C 0.2560(5) 0.0581(6) 0.1887(4)
H5 H 0.2763 0.0868 0.2330
C11 C 0.1982(6) -0.0194(7) 0.1839(5)
H6 H 0.1805 -0.0421 0.2248
C12 C 0.1681(6) -0.0613(7) 0.1192(6)
H7 H 0.1297 -0.1127 0.1161
C13 C 0.1934(5) -0.0289(6) 0.0585(5)
H8 H 0.1717 -0.0579 0.0144
C14 C 0.2516(4) 0.0473(5) 0.0624(4)
H9 H 0.2695 0.0684 0.0211
C15 C 0.6292(5) 0.2472(5) 0.0938(4)
C16 C 0.6159(5) 0.2864(5) 0.0192(3)
C17 C 0.6829(5) 0.2690(5) -0.0197(4)
H10 H 0.7342 0.2346 0.0016
C18 C 0.6762(6) 0.3009(6) -0.0889(5)
H11 H 0.7210 0.2857 -0.1146
C19 C 0.6024(6) 0.3558(5) -0.1201(4)
H12 H 0.5987 0.3794 -0.1662
C20 C 0.5347(5) 0.3757(5) -0.0832(4)
H13 H 0.4857 0.4131 -0.1043
C21 C 0.5393(4) 0.3398(4) -0.0143(3)
C22 C 0.3373(5) 0.4320(5) 0.0287(4)
C23 C 0.2579(5) 0.4871(5) -0.0052(4)
C24 C 0.2575(5) 0.5306(5) -0.0713(4)
H14 H 0.3082 0.5255 -0.0925
C25 C 0.1812(6) 0.5816(6) -0.1056(5)
H15 H 0.1804 0.6089 -0.1502
C26 C 0.1085(7) 0.5913(7) -0.0737(7)
H16 H 0.0580 0.6258 -0.0965
C27 C 0.1084(6) 0.5509(7) -0.0083(7)
H17 H 0.0580 0.5582 0.0130
C28 C 0.1845(6) 0.4982(6) 0.0268(5)
H18 H 0.1846 0.4712 0.0714
C29 C 0.5446(5) 0.6736(5) 0.3566(4)
C30 C 0.4889(5) 0.6682(6) 0.4080(4)
H19 H 0.5074 0.6313 0.4487
C31 C 0.4076(5) 0.7165(6) 0.3990(4)
H20 H 0.3715 0.7113 0.4333
C32 C 0.3789(5) 0.7732(6) 0.3389(4)
H21 H 0.3241 0.8060 0.3335
C33 C 0.4301(5) 0.7805(5) 0.2891(4)
H22 H 0.4102 0.8185 0.2493
C34 C 0.5147(5) 0.7310(5) 0.2955(4)
C35 C 0.5690(5) 0.7499(5) 0.2436(4)
H23 H 0.5448 0.7907 0.2065
C36 C 0.7006(5) 0.7488(6) 0.1911(4)
H24 H 0.7412 0.7989 0.2117
H25 H 0.6591 0.7721 0.1485
C37 C 0.7549(6) 0.6695(6) 0.1715(4)
H26 H 0.7163 0.6302 0.1362
H27 H 0.8049 0.6925 0.1509
C38 C 0.8699(5) 0.5753(5) 0.2448(4)
H28 H 0.9015 0.5817 0.2077
C39 C 0.9118(5) 0.5202(5) 0.3069(4)
C40 C 1.0032(5) 0.4884(5) 0.3098(5)
H29 H 1.0321 0.5023 0.2721
C41 C 1.0492(6) 0.4373(6) 0.3674(5)
H30 H 1.1090 0.4171 0.3695
C42 C 1.0040(6) 0.4172(6) 0.4217(5)
H31 H 1.0346 0.3824 0.4607
C43 C 0.9146(6) 0.4462(5) 0.4214(4)
H32 H 0.8862 0.4299 0.4590
C44 C 0.8677(5) 0.5007(5) 0.3632(4)
Mn2A Mn 0.78885(7) 0.11721(7) 0.19076(5)
O4A O 0.7907(3) 0.7242(4) 0.3772(3)
loop_
_geom_bond_atom_site_label_1
_geom_bond_atom_site_label_2
_geom_bond_site_symmetry_1
_geom_bond_site_symmetry_2
Mn1 O1 1_555 1_555
Mn2 O2 1_555 1_555
O1 C1 1_555 1_555
N1 Mn1 1_555 1_555
C1 O2 1_555 1_555
N2 N1 1_555 1_555
C2 C1 1_555 1_555
O3 Mn1 1_555 1_555
N3 Mn1 1_555 1_555
C3 C2 1_555 1_555
H1 C3 1_555 1_555
N4 Mn1 1_555 1_555
O4 C15 1_555 1_555
C4 C3 1_555 1_555
H2 C4 1_555 1_555
N5 Mn1 1_555 1_555
O5 N3 1_555 1_555
C5 C4 1_555 1_555
H3 C5 1_555 1_555
N6 N5 1_555 1_555
O6 N4 1_555 1_555
C6 C5 1_555 1_555
H4 C6 1_555 1_555
O7 Mn2 1_555 1_555
N7 Mn2 1_555 1_555
C7 N1 1_555 1_555
O8 Mn2 1_555 1_555
N8 Mn2 1_555 1_555
C8 N2 1_555 1_555
C9 C8 1_555 1_555
C10 C9 1_555 1_555
H5 C10 1_555 1_555
C11 C10 1_555 1_555
H6 C11 1_555 1_555
C12 C11 1_555 1_555
H7 C12 1_555 1_555
C13 C12 1_555 1_555
H8 C13 1_555 1_555
C14 C9 1_555 1_555
H9 C14 1_555 1_555
C15 O3 1_555 1_555
C16 C15 1_555 1_555
C17 C16 1_555 1_555
H10 C17 1_555 1_555
C18 C17 1_555 1_555
H11 C18 1_555 1_555
C19 C18 1_555 1_555
H12 C19 1_555 1_555
C20 C19 1_555 1_555
H13 C20 1_555 1_555
C21 N5 1_555 1_555
C22 N4 1_555 1_555
C23 C22 1_555 1_555
C24 C23 1_555 1_555
H14 C24 1_555 1_555
C25 C24 1_555 1_555
H15 C25 1_555 1_555
C26 C25 1_555 1_555
H16 C26 1_555 1_555
C27 C26 1_555 1_555
H17 C27 1_555 1_555
C28 C23 1_555 1_555
H18 C28 1_555 1_555
C29 O7 1_555 1_555
C30 C29 1_555 1_555
H19 C30 1_555 1_555
C31 C30 1_555 1_555
H20 C31 1_555 1_555
C32 C31 1_555 1_555
H21 C32 1_555 1_555
C33 C32 1_555 1_555
H22 C33 1_555 1_555
C34 C29 1_555 1_555
C35 N8 1_555 1_555
H23 C35 1_555 1_555
C36 N8 1_555 1_555
H24 C36 1_555 1_555
H25 C36 1_555 1_555
C37 N7 1_555 1_555
H26 C37 1_555 1_555
H27 C37 1_555 1_555
C38 N7 1_555 1_555
H28 C38 1_555 1_555
C39 C38 1_555 1_555
C40 C39 1_555 1_555
H29 C40 1_555 1_555
C41 C40 1_555 1_555
H30 C41 1_555 1_555
C42 C41 1_555 1_555
H31 C42 1_555 1_555
C43 C42 1_555 1_555
H32 C43 1_555 1_555
C44 O8 1_555 1_555
Mn2A O4 1_555 1_555
O4A Mn2 1_555 1_555
C2 C7 1_555 1_555
N3 C8 1_555 1_555
N6 C22 1_555 1_555
C6 C7 1_555 1_555
C13 C14 1_555 1_555
C16 C21 1_555 1_555
C20 C21 1_555 1_555
C27 C28 1_555 1_555
C33 C34 1_555 1_555
C34 C35 1_555 1_555
C36 C37 1_555 1_555
C39 C44 1_555 1_555
C43 C44 1_555 1_555

#END
