
#######################################################################
#
#                 Cambridge Crystallographic Data Centre
#                                CCDC 
#
#######################################################################
#
# If this CIF has been generated from an entry in the Cambridge 
# Structural Database, then it will include bibliographic, chemical, 
# crystal, experimental, refinement or atomic coordinate data resulting 
# from the CCDC's data processing and validation procedures.
#
#######################################################################

data_ODIRAW
_symmetry_cell_setting           monoclinic
_symmetry_space_group_name_H-M   'P 21/n'
_symmetry_Int_Tables_number      14
_space_group_name_Hall           '-P 2yn'
loop_
_symmetry_equiv_pos_site_id
_symmetry_equiv_pos_as_xyz
1 x,y,z
2 1/2-x,1/2+y,1/2-z
3 -x,-y,-z
4 1/2+x,1/2-y,1/2+z
_cell_length_a                   16.616(2)
_cell_length_b                   13.6513(19)
_cell_length_c                   17.570(2)
_cell_angle_alpha                90
_cell_angle_beta                 91.525(3)
_cell_angle_gamma                90
_cell_volume                     3983.99
loop_
_atom_site_label
_atom_site_type_symbol
_atom_site_fract_x
_atom_site_fract_y
_atom_site_fract_z
Mn1 Mn 0.24367(6) 0.30779(9) 0.05612(6)
Mn2 Mn 0.10832(7) 0.01437(10) 0.22076(7)
N1 N 0.1630(3) 0.4077(4) 0.0666(3)
N2 N 0.1830(4) 0.4984(5) 0.0444(3)
N3 N 0.2947(4) 0.4129(5) 0.0064(4)
N4 N 0.3225(3) 0.2079(4) 0.0451(3)
N5 N 0.3175(4) 0.1510(5) -0.0176(4)
N6 N 0.2129(4) 0.2586(5) -0.0403(3)
O1 O 0.0879(3) 0.1658(4) 0.1964(3)
O2 O 0.1747(3) 0.2148(4) 0.1101(3)
O3 O 0.3601(4) 0.4075(4) -0.0304(4)
O4 O 0.2955(3) 0.3506(4) 0.1528(3)
O5 O 0.1552(3) 0.2938(4) -0.0850(3)
O6 O 0.3817(3) 0.3612(4) 0.2500(3)
O7 O 0.2160(4) 0.0419(6) 0.2926(4)
O8 O 0.0310(5) 0.0402(5) 0.3158(4)
O9 O 0.0075(4) -0.0252(6) 0.1479(4)
O10 O 0.1884(4) 0.0117(5) 0.1226(4)
C1 C 0.0617(4) 0.3193(6) 0.1381(4)
C2 C 0.0862(4) 0.4029(6) 0.0984(4)
C3 C 0.0320(5) 0.4814(6) 0.0911(4)
H1 H 0.0472 0.5368 0.0642
C4 C -0.0426(6) 0.4790(8) 0.1224(5)
H2 H -0.0771 0.5321 0.1159
C5 C -0.0669(5) 0.3990(8) 0.1633(5)
H3 H -0.1168 0.3984 0.1860
C6 C -0.0154(5) 0.3190(7) 0.1701(5)
H4 H -0.0321 0.2638 0.1965
C7 C 0.1120(5) 0.2266(6) 0.1487(5)
C8 C 0.2542(5) 0.5022(6) 0.0120(4)
C9 C 0.2850(5) 0.5978(7) -0.0141(4)
C10 C 0.3665(6) 0.6183(7) -0.0152(5)
H5 H 0.4037 0.5702 -0.0012
C11 C 0.3936(6) 0.7117(8) -0.0373(6)
H6 H 0.4484 0.7256 -0.0369
C12 C 0.3389(8) 0.7818(8) -0.0592(6)
H7 H 0.3559 0.8431 -0.0754
C13 C 0.2579(7) 0.7598(8) -0.0570(6)
H8 H 0.2205 0.8075 -0.0711
C14 C 0.2307(6) 0.6692(7) -0.0344(5)
H9 H 0.1757 0.6567 -0.0330
C15 C 0.3852(4) 0.1778(5) 0.0960(4)
C16 C 0.4324(4) 0.0965(7) 0.0815(5)
H10 H 0.4228 0.0618 0.0366
C17 C 0.4930(5) 0.0651(7) 0.1308(5)
H11 H 0.5234 0.0103 0.1187
C18 C 0.5088(5) 0.1147(8) 0.1985(5)
H12 H 0.5489 0.0932 0.2324
C19 C 0.4631(5) 0.1977(7) 0.2143(5)
H13 H 0.4744 0.2328 0.2587
C20 C 0.4019(4) 0.2291(6) 0.1660(4)
C21 C 0.3561(5) 0.3193(6) 0.1901(5)
C22 C 0.2571(5) 0.1795(6) -0.0650(4)
C23 C 0.2453(4) 0.1265(6) -0.1379(4)
C24 C 0.2098(5) 0.1672(8) -0.2030(5)
H14 H 0.1923 0.2319 -0.2033
C25 C 0.2008(6) 0.1085(10) -0.2686(5)
H15 H 0.1760 0.1355 -0.3118
C26 C 0.2262(6) 0.0155(9) -0.2716(6)
H16 H 0.2196 -0.0201 -0.3164
C27 C 0.2620(6) -0.0272(8) -0.2087(6)
H17 H 0.2799 -0.0917 -0.2098
C28 C 0.2707(5) 0.0302(7) -0.1426(5)
H18 H 0.2948 0.0018 -0.0996
C29 C 0.2611(9) 0.1232(12) 0.3017(8)
H19 H 0.3045 0.1104 0.3375
H20 H 0.2283 0.1754 0.3205
H21 H 0.2827 0.1419 0.2537
C30 C -0.0031(8) -0.0274(9) 0.3605(8)
H22 H -0.0340 0.0047 0.3985
H23 H 0.0382 -0.0665 0.3848
H24 H -0.0378 -0.0688 0.3300
C31 C 0.2462(10) -0.0561(11) 0.1034(11)
H25 H 0.2701 -0.0372 0.0565
H26 H 0.2216 -0.1194 0.0974
H27 H 0.2870 -0.0590 0.1430
C32 C -0.0519(8) 0.0321(12) 0.1143(11)
H28 H -0.0878 -0.0085 0.0844
H29 H -0.0278 0.0800 0.0821
H30 H -0.0815 0.0646 0.1531
Mn2A Mn 0.39168(7) 0.51437(10) 0.27924(7)
O6A O 0.1183(3) -0.1388(4) 0.2500(3)
O11 O -0.0155(5) -0.2000(8) 0.0943(7)
H31 H -0.0584 -0.2272 0.0842
C33 C 0.0436(8) -0.2397(10) 0.0511(8)
H32 H 0.0660 -0.1897 0.0196
H33 H 0.0210 -0.2907 0.0195
H34 H 0.0851 -0.2665 0.0839
O12 O -0.0538(8) 0.1909(8) 0.3629(9)
H35 H -0.1032 0.1930 0.3623
C34 C -0.0236(8) 0.2829(12) 0.3732(7)
H36 H -0.0369 0.3061 0.4229
H37 H -0.0466 0.3258 0.3352
H38 H 0.0338 0.2814 0.3687
loop_
_geom_bond_atom_site_label_1
_geom_bond_atom_site_label_2
_geom_bond_site_symmetry_1
_geom_bond_site_symmetry_2
Mn1 N1 1_555 1_555
Mn2 O1 1_555 1_555
N1 N2 1_555 1_555
N2 C8 1_555 1_555
N3 Mn1 1_555 1_555
N4 Mn1 1_555 1_555
N5 N4 1_555 1_555
N6 Mn1 1_555 1_555
O1 C7 1_555 1_555
O2 Mn1 1_555 1_555
O3 N3 1_555 1_555
O4 Mn1 1_555 1_555
O5 N6 1_555 1_555
O6 C21 1_555 1_555
O7 Mn2 1_555 1_555
O8 Mn2 1_555 1_555
O9 Mn2 1_555 1_555
O10 Mn2 1_555 1_555
C1 C2 1_555 1_555
C2 N1 1_555 1_555
C3 C2 1_555 1_555
H1 C3 1_555 1_555
C4 C3 1_555 1_555
H2 C4 1_555 1_555
C5 C4 1_555 1_555
H3 C5 1_555 1_555
C6 C1 1_555 1_555
H4 C6 1_555 1_555
C7 O2 1_555 1_555
C8 N3 1_555 1_555
C9 C8 1_555 1_555
C10 C9 1_555 1_555
H5 C10 1_555 1_555
C11 C10 1_555 1_555
H6 C11 1_555 1_555
C12 C11 1_555 1_555
H7 C12 1_555 1_555
C13 C12 1_555 1_555
H8 C13 1_555 1_555
C14 C9 1_555 1_555
H9 C14 1_555 1_555
C15 N4 1_555 1_555
C16 C15 1_555 1_555
H10 C16 1_555 1_555
C17 C16 1_555 1_555
H11 C17 1_555 1_555
C18 C17 1_555 1_555
H12 C18 1_555 1_555
C19 C18 1_555 1_555
H13 C19 1_555 1_555
C20 C15 1_555 1_555
C21 O4 1_555 1_555
C22 N5 1_555 1_555
C23 C22 1_555 1_555
C24 C23 1_555 1_555
H14 C24 1_555 1_555
C25 C24 1_555 1_555
H15 C25 1_555 1_555
C26 C25 1_555 1_555
H16 C26 1_555 1_555
C27 C26 1_555 1_555
H17 C27 1_555 1_555
C28 C23 1_555 1_555
H18 C28 1_555 1_555
C29 O7 1_555 1_555
H19 C29 1_555 1_555
H20 C29 1_555 1_555
H21 C29 1_555 1_555
C30 O8 1_555 1_555
H22 C30 1_555 1_555
H23 C30 1_555 1_555
H24 C30 1_555 1_555
C31 O10 1_555 1_555
H25 C31 1_555 1_555
H26 C31 1_555 1_555
H27 C31 1_555 1_555
C32 O9 1_555 1_555
H28 C32 1_555 1_555
H29 C32 1_555 1_555
H30 C32 1_555 1_555
O11 H31 1_555 1_555
C33 O11 1_555 1_555
H32 C33 1_555 1_555
H33 C33 1_555 1_555
H34 C33 1_555 1_555
O12 H35 1_555 1_555
C34 O12 1_555 1_555
H36 C34 1_555 1_555
H37 C34 1_555 1_555
H38 C34 1_555 1_555
Mn2A O6 1_555 1_555
O6A Mn2 1_555 1_555
N6 C22 1_555 1_555
C1 C7 1_555 1_555
C5 C6 1_555 1_555
C13 C14 1_555 1_555
C19 C20 1_555 1_555
C20 C21 1_555 1_555
C27 C28 1_555 1_555

#END
