
#######################################################################
#
#                 Cambridge Crystallographic Data Centre
#                                CCDC 
#
#######################################################################
#
# If this CIF has been generated from an entry in the Cambridge 
# Structural Database, then it will include bibliographic, chemical, 
# crystal, experimental, refinement or atomic coordinate data resulting 
# from the CCDC's data processing and validation procedures.
#
#######################################################################

data_ODIRAV
_symmetry_cell_setting           monoclinic
_symmetry_space_group_name_H-M   'C 2/c'
_symmetry_Int_Tables_number      15
_space_group_name_Hall           '-C 2yn'
loop_
_symmetry_equiv_pos_site_id
_symmetry_equiv_pos_as_xyz
1 x,y,z
2 1/2+x,1/2+y,z
3 -x,y,1/2-z
4 1/2-x,1/2+y,1/2-z
5 -x,-y,-z
6 1/2-x,1/2-y,-z
7 x,-y,1/2+z
8 1/2+x,1/2-y,1/2+z
_cell_length_a                   23.966(5)
_cell_length_b                   7.6492(15)
_cell_length_c                   10.627(2)
_cell_angle_alpha                90
_cell_angle_beta                 94.63(3)
_cell_angle_gamma                90
_cell_volume                     1941.79
loop_
_atom_site_label
_atom_site_type_symbol
_atom_site_fract_x
_atom_site_fract_y
_atom_site_fract_z
Zn1 Zn 0.23521(3) 0.06514(8) 0.61035(6)
C1 C 0.1399(3) 0.4614(8) 0.6392(6)
C2 C 0.1448(2) 0.6213(8) 0.7041(6)
C3 C 0.1046(2) 0.6680(8) 0.7840(6)
H1 H 0.1082 0.7727 0.8284
C4 C 0.0592(3) 0.5607(7) 0.7987(6)
H2 H 0.0328 0.5934 0.8539
C5 C 0.0523(3) 0.4040(8) 0.7318(6)
C6 C 0.0934(2) 0.3544(8) 0.6547(6)
H3 H 0.0902 0.2480 0.6124
C7 C 0.1822(2) 0.4035(8) 0.5510(6)
C8 C 0.1927(2) 0.7463(7) 0.6920(5)
C9 C 0.0000 0.2910(10) 0.7500
C10 C 0.0155(3) 0.1738(8) 0.8666(6)
F1 F 0.01812(17) 0.2674(6) 0.9714(4)
F2 F -0.02163(18) 0.0441(5) 0.8768(4)
F3 F 0.06563(17) 0.0995(6) 0.8603(4)
O1 O 0.18510(17) 0.2434(5) 0.5238(4)
O2 O 0.21068(18) 0.5174(6) 0.5024(4)
O3 O 0.18051(18) 0.8860(6) 0.6340(5)
O4 O 0.24028(17) 0.7149(6) 0.7458(4)
Zn1B Zn -0.23521(3) 0.06514(8) 0.88965(6)
Zn1E Zn 0.26479(3) 0.43486(8) 0.38965(6)
Zn1_2 Zn 0.23521(3) 1.06514(8) 0.61035(6)
Zn1C Zn 0.26479(3) 0.56514(8) 0.88965(6)
Zn1G Zn -0.26479(3) 0.43486(8) 1.11035(6)
Zn1B_2 Zn -0.23521(3) 1.06514(8) 0.88965(6)
Zn1A Zn -0.26479(3) 0.56514(8) 0.61035(6)
C1B C -0.1399(3) 0.4614(8) 0.8608(6)
C2B C -0.1448(2) 0.6213(8) 0.7959(6)
C3B C -0.1046(2) 0.6680(8) 0.7160(6)
H1B H -0.1082 0.7727 0.6716
C4B C -0.0592(3) 0.5607(7) 0.7013(6)
H2B H -0.0328 0.5934 0.6461
C5B C -0.0523(3) 0.4040(8) 0.7682(6)
C6B C -0.0934(2) 0.3544(8) 0.8453(6)
H3B H -0.0902 0.2480 0.8876
C7B C -0.1822(2) 0.4035(8) 0.9490(6)
C8B C -0.1927(2) 0.7463(7) 0.8080(5)
C10B C -0.0155(3) 0.1738(8) 0.6334(6)
F1B F -0.01812(17) 0.2674(6) 0.5286(4)
F2B F 0.02163(18) 0.0441(5) 0.6232(4)
F3B F -0.06563(17) 0.0995(6) 0.6397(4)
O1B O -0.18510(17) 0.2434(5) 0.9762(4)
O2B O -0.21068(18) 0.5174(6) 0.9976(4)
O2E O 0.28932(18) -0.0174(6) 0.4976(4)
O2G O -0.28932(18) -0.0174(6) 1.0024(4)
O3B O -0.18051(18) 0.8860(6) 0.8660(5)
O3_2 O 0.18051(18) -0.1140(6) 0.6340(5)
O3B_2 O -0.18051(18) -0.1140(6) 0.8660(5)
O4B O -0.24028(17) 0.7149(6) 0.7542(4)
O4C O 0.25972(17) 0.2149(6) 0.7542(4)
O4A O -0.25972(17) 0.2149(6) 0.7458(4)
loop_
_geom_bond_atom_site_label_1
_geom_bond_atom_site_label_2
_geom_bond_site_symmetry_1
_geom_bond_site_symmetry_2
Zn1 O1 1_555 1_555
C1 C2 1_555 1_555
C2 C3 1_555 1_555
C3 H1 1_555 1_555
C4 C3 1_555 1_555
H2 C4 1_555 1_555
C5 C4 1_555 1_555
C6 C1 1_555 1_555
H3 C6 1_555 1_555
C7 C1 1_555 1_555
C8 C2 1_555 1_555
C9 C5 1_555 1_555
C10 C9 1_555 1_555
F1 C10 1_555 1_555
F2 C10 1_555 1_555
F3 C10 1_555 1_555
O1 C7 1_555 1_555
O2 C7 1_555 1_555
O3 C8 1_555 1_555
O4 C8 1_555 1_555
Zn1B O1B 1_555 1_555
Zn1E O2 1_555 1_555
Zn1_2 O3 1_555 1_555
Zn1C O4 1_555 1_555
Zn1G O2B 1_555 1_555
Zn1B_2 O3B 1_555 1_555
Zn1A O4B 1_555 1_555
C1B C2B 1_555 1_555
C2B C3B 1_555 1_555
C3B H1B 1_555 1_555
C4B C3B 1_555 1_555
H2B C4B 1_555 1_555
C5B C9 1_555 1_555
C6B C1B 1_555 1_555
H3B C6B 1_555 1_555
C7B C1B 1_555 1_555
C8B C2B 1_555 1_555
C10B C9 1_555 1_555
F1B C10B 1_555 1_555
F2B C10B 1_555 1_555
F3B C10B 1_555 1_555
O1B C7B 1_555 1_555
O2B C7B 1_555 1_555
O2E Zn1 1_555 1_555
O2G Zn1B 1_555 1_555
O3B C8B 1_555 1_555
O3_2 Zn1 1_555 1_555
O3B_2 Zn1B 1_555 1_555
O4B C8B 1_555 1_555
O4C Zn1 1_555 1_555
O4A Zn1B 1_555 1_555
C5 C6 1_555 1_555
C4B C5B 1_555 1_555
C5B C6B 1_555 1_555

#END
