
#######################################################################
#
#                 Cambridge Crystallographic Data Centre
#                                CCDC 
#
#######################################################################
#
# If this CIF has been generated from an entry in the Cambridge 
# Structural Database, then it will include bibliographic, chemical, 
# crystal, experimental, refinement or atomic coordinate data resulting 
# from the CCDC's data processing and validation procedures.
#
#######################################################################

data_ODIREZ
_symmetry_cell_setting           monoclinic
_symmetry_space_group_name_H-M   'C 2/c'
_symmetry_Int_Tables_number      15
_space_group_name_Hall           '-C 2yn'
loop_
_symmetry_equiv_pos_site_id
_symmetry_equiv_pos_as_xyz
1 x,y,z
2 1/2+x,1/2+y,z
3 -x,y,1/2-z
4 1/2-x,1/2+y,1/2-z
5 -x,-y,-z
6 1/2-x,1/2-y,-z
7 x,-y,1/2+z
8 1/2+x,1/2-y,1/2+z
_cell_length_a                   24.483(5)
_cell_length_b                   7.7834(16)
_cell_length_c                   10.488(2)
_cell_angle_alpha                90
_cell_angle_beta                 90.73(3)
_cell_angle_gamma                90
_cell_volume                     1998.44
loop_
_atom_site_label
_atom_site_type_symbol
_atom_site_fract_x
_atom_site_fract_y
_atom_site_fract_z
Cd1 Cd 0.233834(7) 0.08993(2) 0.646733(17)
C1 C 0.36462(9) 0.0143(3) 0.3755(2)
C2 C 0.36364(10) -0.1423(3) 0.3098(2)
C3 C 0.40268(10) -0.1731(3) 0.2183(2)
H1 H 0.4008 -0.2731 0.1700
C4 C 0.44449(12) -0.0572(4) 0.1976(3)
H2 H 0.4700 -0.0795 0.1348
C5 C 0.44873(10) 0.0931(3) 0.2703(3)
C6 C 0.40726(10) 0.1318(3) 0.3544(2)
H3 H 0.4076 0.2364 0.3973
C7 C 0.32102(10) 0.0626(3) 0.4676(2)
C8 C 0.32279(10) -0.2833(3) 0.3307(2)
C9 C 0.5000 0.2074(4) 0.2500
C10 C 0.48766(10) 0.3238(3) 0.1335(2)
F1 F 0.48455(7) 0.2307(2) 0.02723(14)
F2 F 0.52579(8) 0.4442(3) 0.1167(2)
F3 F 0.44007(8) 0.4053(2) 0.1446(2)
O1 O 0.30948(8) 0.2188(3) 0.48253(19)
O2 O 0.29672(9) -0.0547(3) 0.5287(2)
O3 O 0.33600(9) -0.4042(2) 0.4025(2)
O4 O 0.27892(8) -0.2858(2) 0.26625(19)
O5 O 0.17900(10) 0.1408(4) 0.8237(2)
H4 H 0.1851 0.0545 0.8660
H5 H 0.1823 0.2274 0.8677
Cd1B Cd 0.766166(7) 0.08993(2) -0.146733(17)
Cd1E Cd 0.266166(7) 0.41007(2) 0.353267(17)
Cd1E_2 Cd 0.266166(7) -0.58993(2) 0.353267(17)
Cd1F Cd 0.233834(7) -0.08993(2) 0.146733(17)
Cd1G Cd 0.733834(7) 0.41007(2) 0.146733(17)
Cd1G_2 Cd 0.733834(7) -0.58993(2) 0.146733(17)
Cd1D Cd 0.766166(7) -0.08993(2) 0.353267(17)
C1B C 0.63538(9) 0.0143(3) 0.1245(2)
C2B C 0.63636(10) -0.1423(3) 0.1902(2)
C3B C 0.59732(10) -0.1731(3) 0.2817(2)
H1B H 0.5992 -0.2731 0.3300
C4B C 0.55551(12) -0.0572(4) 0.3024(3)
H2B H 0.5300 -0.0795 0.3652
C5B C 0.55127(10) 0.0931(3) 0.2297(3)
C6B C 0.59274(10) 0.1318(3) 0.1456(2)
H3B H 0.5924 0.2364 0.1027
C7B C 0.67898(10) 0.0626(3) 0.0324(2)
C8B C 0.67721(10) -0.2833(3) 0.1693(2)
C10B C 0.51234(10) 0.3238(3) 0.3665(2)
F1B F 0.51545(7) 0.2307(2) 0.47277(14)
F2B F 0.47421(8) 0.4442(3) 0.3833(2)
F3B F 0.55993(8) 0.4053(2) 0.3554(2)
O1B O 0.69052(8) 0.2188(3) 0.01747(19)
O1E O 0.19052(8) 0.2812(3) 0.51747(19)
O1G O 0.80948(8) 0.2812(3) -0.01747(19)
O2B O 0.70328(9) -0.0547(3) -0.0287(2)
O3B O 0.66400(9) -0.4042(2) 0.0975(2)
O3E O 0.16400(9) -0.0958(2) 0.5975(2)
O3G O 0.83600(9) -0.0958(2) -0.0975(2)
O4B O 0.72108(8) -0.2858(2) 0.23375(19)
O4F O 0.27892(8) 0.2858(2) 0.76625(19)
O4E O 0.22108(8) -0.2142(2) 0.73375(19)
O4G O 0.77892(8) -0.2142(2) -0.23375(19)
O4D O 0.72108(8) 0.2858(2) -0.26625(19)
O5B O 0.82100(10) 0.1408(4) -0.3237(2)
H4B H 0.8149 0.0545 -0.3660
H5B H 0.8177 0.2274 -0.3677
loop_
_geom_bond_atom_site_label_1
_geom_bond_atom_site_label_2
_geom_bond_site_symmetry_1
_geom_bond_site_symmetry_2
Cd1 O1 1_555 1_555
C1 C2 1_555 1_555
C2 C3 1_555 1_555
C3 H1 1_555 1_555
C4 C3 1_555 1_555
H2 C4 1_555 1_555
C5 C4 1_555 1_555
C6 C1 1_555 1_555
H3 C6 1_555 1_555
C7 C1 1_555 1_555
C8 C2 1_555 1_555
C9 C5 1_555 1_555
C10 C9 1_555 1_555
F1 C10 1_555 1_555
F2 C10 1_555 1_555
F3 C10 1_555 1_555
O1 C7 1_555 1_555
O2 Cd1 1_555 1_555
O3 C8 1_555 1_555
O4 C8 1_555 1_555
O5 Cd1 1_555 1_555
H4 O5 1_555 1_555
H5 O5 1_555 1_555
Cd1B O1B 1_555 1_555
Cd1E O1 1_555 1_555
Cd1E_2 O3 1_555 1_555
Cd1F O4 1_555 1_555
Cd1G O1B 1_555 1_555
Cd1G_2 O3B 1_555 1_555
Cd1D O4B 1_555 1_555
C1B C2B 1_555 1_555
C2B C3B 1_555 1_555
C3B H1B 1_555 1_555
C4B C3B 1_555 1_555
H2B C4B 1_555 1_555
C5B C9 1_555 1_555
C6B C1B 1_555 1_555
H3B C6B 1_555 1_555
C7B C1B 1_555 1_555
C8B C2B 1_555 1_555
C10B C9 1_555 1_555
F1B C10B 1_555 1_555
F2B C10B 1_555 1_555
F3B C10B 1_555 1_555
O1B C7B 1_555 1_555
O1E Cd1 1_555 1_555
O1G Cd1B 1_555 1_555
O2B Cd1B 1_555 1_555
O3B C8B 1_555 1_555
O3E Cd1 1_555 1_555
O3G Cd1B 1_555 1_555
O4B Cd1G_2 1_555 1_555
O4F Cd1 1_555 1_555
O4E Cd1 1_555 1_555
O4G Cd1B 1_555 1_555
O4D Cd1B 1_555 1_555
O5B Cd1B 1_555 1_555
H4B O5B 1_555 1_555
H5B O5B 1_555 1_555
C5 C6 1_555 1_555
C7 O2 1_555 1_555
O4 Cd1E_2 1_555 1_555
Cd1E O1E 1_555 1_555
Cd1G O1G 1_555 1_555
C4B C5B 1_555 1_555
C5B C6B 1_555 1_555
C7B O2B 1_555 1_555
C8B O4B 1_555 1_555

#END
