
#######################################################################
#
#                 Cambridge Crystallographic Data Centre
#                                CCDC 
#
#######################################################################
#
# If this CIF has been generated from an entry in the Cambridge 
# Structural Database, then it will include bibliographic, chemical, 
# crystal, experimental, refinement or atomic coordinate data resulting 
# from the CCDC's data processing and validation procedures.
#
#######################################################################

data_ODISUQ
_symmetry_cell_setting           monoclinic
_symmetry_space_group_name_H-M   'C 2/c'
_symmetry_Int_Tables_number      15
_space_group_name_Hall           '-C 2yn'
loop_
_symmetry_equiv_pos_site_id
_symmetry_equiv_pos_as_xyz
1 x,y,z
2 1/2+x,1/2+y,z
3 -x,y,1/2-z
4 1/2-x,1/2+y,1/2-z
5 -x,-y,-z
6 1/2-x,1/2-y,-z
7 x,-y,1/2+z
8 1/2+x,1/2-y,1/2+z
_cell_length_a                   21.676(17)
_cell_length_b                   15.860(11)
_cell_length_c                   18.097(12)
_cell_angle_alpha                90
_cell_angle_beta                 121.50(2)
_cell_angle_gamma                90
_cell_volume                     5304.63
loop_
_atom_site_label
_atom_site_type_symbol
_atom_site_fract_x
_atom_site_fract_y
_atom_site_fract_z
Hg1 Hg 0.0000 0.932793(19) 0.2500
Hg2 Hg 0.616050(13) 0.786964(13) 0.483884(15)
I1 I -0.05264(2) 0.98874(3) 0.34474(3)
I2 I 0.61571(3) 0.91137(2) 0.38573(3)
I3 I 0.65621(3) 0.76876(3) 0.65144(3)
N2 N 0.1617(2) 0.7178(3) 0.3870(2)
N3 N 0.0767(2) 0.8163(3) 0.3337(3)
N4 N 0.3896(2) 0.7050(2) 0.3968(3)
N5 N 0.4932(2) 0.7490(3) 0.4151(3)
N6 N 0.3212(2) 0.4769(2) 0.5187(3)
N7 N 0.3492(3) 0.3429(3) 0.5416(3)
C1 C 0.2274(3) 0.6757(3) 0.4116(3)
C2 C 0.2759(3) 0.7107(3) 0.3922(3)
H1 H 0.2660 0.7635 0.3633
C3 C 0.3391(3) 0.6676(3) 0.4156(3)
C4 C 0.3553(3) 0.5914(3) 0.4577(3)
H2 H 0.3987 0.5625 0.4729
C5 C 0.3067(3) 0.5579(3) 0.4774(3)
C6 C 0.2432(3) 0.5998(3) 0.4558(3)
H3 H 0.2110 0.5768 0.4711
C7 C 0.1412(3) 0.7965(3) 0.3507(3)
H4 H 0.1705 0.8323 0.3394
C8 C 0.0533(3) 0.7475(4) 0.3592(3)
H5 H 0.0077 0.7432 0.3545
C9 C 0.1045(3) 0.6879(3) 0.3916(4)
H6 H 0.1016 0.6346 0.4136
C10 C 0.4621(3) 0.7083(3) 0.4495(4)
H7 H 0.4878 0.6837 0.5056
C11 C 0.4376(3) 0.7726(3) 0.3341(4)
H8 H 0.4437 0.8027 0.2930
C12 C 0.3729(3) 0.7470(3) 0.3212(3)
H9 H 0.3264 0.7559 0.2713
C13 C 0.3440(3) 0.4094(3) 0.4946(4)
H10 H 0.3548 0.4095 0.4501
C14 C 0.3289(3) 0.3698(4) 0.5977(4)
H11 H 0.3276 0.3354 0.6398
C15 C 0.3112(3) 0.4518(4) 0.5845(3)
H12 H 0.2950 0.4856 0.6145
Hg2B Hg -0.616050(13) 0.786964(13) 0.016116(15)
Hg2D Hg 0.383950(13) 0.213036(13) 0.516116(15)
Hg2F Hg -0.383950(13) 0.213036(13) -0.016116(15)
I1B I 0.05264(2) 0.98874(3) 0.15526(3)
I2B I -0.61571(3) 0.91137(2) 0.11427(3)
I3B I -0.65621(3) 0.76876(3) -0.15144(3)
N2B N -0.1617(2) 0.7178(3) 0.1130(2)
N3B N -0.0767(2) 0.8163(3) 0.1663(3)
N4B N -0.3896(2) 0.7050(2) 0.1032(3)
N5B N -0.4932(2) 0.7490(3) 0.0849(3)
N6B N -0.3212(2) 0.4769(2) -0.0187(3)
N7B N -0.3492(3) 0.3429(3) -0.0416(3)
N7D N 0.6508(3) 0.6571(3) 0.4584(3)
N7F N -0.6508(3) 0.6571(3) 0.0416(3)
C1B C -0.2274(3) 0.6757(3) 0.0884(3)
C2B C -0.2759(3) 0.7107(3) 0.1078(3)
H1B H -0.2660 0.7635 0.1367
C3B C -0.3391(3) 0.6676(3) 0.0844(3)
C4B C -0.3553(3) 0.5914(3) 0.0423(3)
H2B H -0.3987 0.5625 0.0271
C5B C -0.3067(3) 0.5579(3) 0.0226(3)
C6B C -0.2432(3) 0.5998(3) 0.0442(3)
H3B H -0.2110 0.5768 0.0289
C7B C -0.1412(3) 0.7965(3) 0.1493(3)
H4B H -0.1705 0.8323 0.1606
C8B C -0.0533(3) 0.7475(4) 0.1408(3)
H5B H -0.0077 0.7432 0.1455
C9B C -0.1045(3) 0.6879(3) 0.1084(4)
H6B H -0.1016 0.6346 0.0864
C10B C -0.4621(3) 0.7083(3) 0.0505(4)
H7B H -0.4878 0.6837 -0.0056
C11B C -0.4376(3) 0.7726(3) 0.1659(4)
H8B H -0.4437 0.8027 0.2070
C12B C -0.3729(3) 0.7470(3) 0.1788(3)
H9B H -0.3264 0.7559 0.2287
C13B C -0.3440(3) 0.4094(3) 0.0054(4)
H10B H -0.3548 0.4095 0.0499
C14B C -0.3289(3) 0.3698(4) -0.0977(4)
H11B H -0.3276 0.3354 -0.1398
C15B C -0.3112(3) 0.4518(4) -0.0845(3)
H12B H -0.2950 0.4856 -0.1145
O1 O 0.2957(3) 0.9103(3) 0.3945(3)
N1 N 0.3527(3) 0.9751(3) 0.3362(3)
C16 C 0.3515(5) 0.9389(4) 0.3986(5)
H13 H 0.3961 0.9331 0.4521
C17 C 0.2869(4) 0.9854(5) 0.2524(5)
H14 H 0.2456 0.9653 0.2554
H15 H 0.2906 0.9527 0.2089
H16 H 0.2802 1.0452 0.2362
C18 C 0.4183(4) 1.0043(4) 0.3418(5)
H17 H 0.4598 0.9922 0.3998
H18 H 0.4150 1.0652 0.3313
H19 H 0.4244 0.9752 0.2983
loop_
_geom_bond_atom_site_label_1
_geom_bond_atom_site_label_2
_geom_bond_site_symmetry_1
_geom_bond_site_symmetry_2
Hg1 I1 1_555 1_555
Hg2 I2 1_555 1_555
I3 Hg2 1_555 1_555
O1 C16 1_555 1_555
N1 C16 1_555 1_555
N2 C1 1_555 1_555
N3 Hg1 1_555 1_555
N4 C3 1_555 1_555
N5 Hg2 1_555 1_555
N6 C5 1_555 1_555
N7 C13 1_555 1_555
C1 C2 1_555 1_555
C2 H1 1_555 1_555
C3 C2 1_555 1_555
C4 C3 1_555 1_555
H2 C4 1_555 1_555
C5 C4 1_555 1_555
C6 C1 1_555 1_555
H3 C6 1_555 1_555
C7 N2 1_555 1_555
H4 C7 1_555 1_555
C8 N3 1_555 1_555
H5 C8 1_555 1_555
C9 N2 1_555 1_555
H6 C9 1_555 1_555
C10 N4 1_555 1_555
H7 C10 1_555 1_555
C11 N5 1_555 1_555
H8 C11 1_555 1_555
C12 N4 1_555 1_555
H9 C12 1_555 1_555
C13 N6 1_555 1_555
H10 C13 1_555 1_555
C14 N7 1_555 1_555
H11 C14 1_555 1_555
C15 N6 1_555 1_555
H12 C15 1_555 1_555
C16 H13 1_555 1_555
C17 N1 1_555 1_555
H14 C17 1_555 1_555
H15 C17 1_555 1_555
H16 C17 1_555 1_555
C18 N1 1_555 1_555
H17 C18 1_555 1_555
H18 C18 1_555 1_555
H19 C18 1_555 1_555
Hg2B I2B 1_555 1_555
Hg2D N7 1_555 1_555
Hg2F N7B 1_555 1_555
I1B Hg1 1_555 1_555
I3B Hg2B 1_555 1_555
N2B C1B 1_555 1_555
N3B Hg1 1_555 1_555
N4B C3B 1_555 1_555
N5B Hg2B 1_555 1_555
N6B C5B 1_555 1_555
N7B C13B 1_555 1_555
N7D Hg2 1_555 1_555
N7F Hg2B 1_555 1_555
C1B C2B 1_555 1_555
C2B H1B 1_555 1_555
C3B C2B 1_555 1_555
C4B C3B 1_555 1_555
H2B C4B 1_555 1_555
C5B C4B 1_555 1_555
C6B C1B 1_555 1_555
H3B C6B 1_555 1_555
C7B N2B 1_555 1_555
H4B C7B 1_555 1_555
C8B N3B 1_555 1_555
H5B C8B 1_555 1_555
C9B N2B 1_555 1_555
H6B C9B 1_555 1_555
C10B N4B 1_555 1_555
H7B C10B 1_555 1_555
C11B N5B 1_555 1_555
H8B C11B 1_555 1_555
C12B N4B 1_555 1_555
H9B C12B 1_555 1_555
C13B N6B 1_555 1_555
H10B C13B 1_555 1_555
C14B N7B 1_555 1_555
H11B C14B 1_555 1_555
C15B N6B 1_555 1_555
H12B C15B 1_555 1_555
N3 C7 1_555 1_555
N5 C10 1_555 1_555
C5 C6 1_555 1_555
C8 C9 1_555 1_555
C11 C12 1_555 1_555
C14 C15 1_555 1_555
N3B C7B 1_555 1_555
N5B C10B 1_555 1_555
C5B C6B 1_555 1_555
C8B C9B 1_555 1_555
C11B C12B 1_555 1_555
C14B C15B 1_555 1_555

#END
