
#######################################################################
#
#                 Cambridge Crystallographic Data Centre
#                                CCDC 
#
#######################################################################
#
# If this CIF has been generated from an entry in the Cambridge 
# Structural Database, then it will include bibliographic, chemical, 
# crystal, experimental, refinement or atomic coordinate data resulting 
# from the CCDC's data processing and validation procedures.
#
#######################################################################

data_ODISEA
_symmetry_cell_setting           monoclinic
_symmetry_space_group_name_H-M   'C 2/c'
_symmetry_Int_Tables_number      15
_space_group_name_Hall           '-C 2yn'
loop_
_symmetry_equiv_pos_site_id
_symmetry_equiv_pos_as_xyz
1 x,y,z
2 1/2+x,1/2+y,z
3 -x,y,1/2-z
4 1/2-x,1/2+y,1/2-z
5 -x,-y,-z
6 1/2-x,1/2-y,-z
7 x,-y,1/2+z
8 1/2+x,1/2-y,1/2+z
_cell_length_a                   25.22(2)
_cell_length_b                   10.017(7)
_cell_length_c                   15.757(11)
_cell_angle_alpha                90
_cell_angle_beta                 103.794(11)
_cell_angle_gamma                90
_cell_volume                     3865.87
loop_
_atom_site_label
_atom_site_type_symbol
_atom_site_fract_x
_atom_site_fract_y
_atom_site_fract_z
Hg1 Hg 0.16989(2) 0.37353(4) 0.22342(3)
I1 I 0.10924(4) 0.53637(8) 0.10257(6)
I2 I 0.20988(5) 0.33987(10) 0.39457(5)
N1 N 0.1263(4) 0.1626(10) 0.1872(6)
N2 N 0.0541(4) 0.0278(8) 0.1503(6)
N3 N -0.2540(4) -0.1651(9) 0.1649(6)
N4 N -0.1963(4) -0.1636(11) 0.0799(6)
C1 C 0.0726(5) 0.1563(11) 0.1623(7)
C2 C 0.1448(5) 0.0318(13) 0.1957(9)
C3 C 0.1006(5) -0.0537(12) 0.1714(8)
C4 C -0.0015(4) -0.0133(10) 0.1191(7)
C5 C -0.0423(5) 0.0706(13) 0.1313(9)
C6 C -0.0954(6) 0.0348(13) 0.0970(10)
C7 C -0.1097(4) -0.0869(13) 0.0505(7)
C8 C -0.0671(5) -0.1737(12) 0.0434(7)
C9 C -0.0120(4) -0.1353(10) 0.0772(7)
C10 C -0.1681(5) -0.123(2) 0.0116(9)
C11 C -0.2394(5) -0.1090(13) 0.0984(7)
C12 C -0.2158(5) -0.2646(12) 0.1932(10)
C13 C -0.1808(6) -0.264(1) 0.1409(12)
H1 H 0.0483(5) 0.2329(11) 0.1536(7)
H2 H 0.1828(5) 0.0051(13) 0.2137(9)
H3 H 0.1011(5) -0.1505(12) 0.1707(8)
H4 H -0.0337(5) 0.1545(13) 0.1622(9)
H5 H -0.1246(6) 0.0935(13) 0.1043(10)
H6 H -0.0759(5) -0.2609(12) 0.0171(7)
H7 H 0.0174(4) -0.1938(10) 0.0704(7)
H8 H -0.1681(5) -0.198(2) -0.0272(9)
H9 H -0.1878(5) -0.049(2) -0.0214(9)
H10 H -0.2600(5) -0.0369(13) 0.0647(7)
H11 H -0.2145(5) -0.3257(12) 0.2413(10)
H12 H -0.1499(6) -0.323(1) 0.1451(12)
Hg1A Hg 0.66989(2) 0.87353(4) 0.22342(3)
Hg1A_2 Hg -0.33011(2) -0.12647(4) 0.22342(3)
I1A I 0.60924(4) 1.03637(8) 0.10257(6)
I2A I 0.70988(5) 0.83987(10) 0.39457(5)
N1A N 0.6263(4) 0.6626(10) 0.1872(6)
N2A N 0.5541(4) 0.5278(8) 0.1503(6)
N3A N 0.2460(4) 0.3349(9) 0.1649(6)
N3_2 N 0.7460(4) 0.8349(9) 0.1649(6)
N4A N 0.3037(4) 0.3364(11) 0.0799(6)
C1A C 0.5726(5) 0.6563(11) 0.1623(7)
C2A C 0.6448(5) 0.5318(13) 0.1957(9)
C3A C 0.6006(5) 0.4463(12) 0.1714(8)
C4A C 0.4985(4) 0.4867(10) 0.1191(7)
C5A C 0.4577(5) 0.5706(13) 0.1313(9)
C6A C 0.4046(6) 0.5348(13) 0.0970(10)
C7A C 0.3903(4) 0.4131(13) 0.0505(7)
C8A C 0.4329(5) 0.3263(12) 0.0434(7)
C9A C 0.4880(4) 0.3647(10) 0.0772(7)
C10A C 0.3319(5) 0.377(2) 0.0116(9)
C11A C 0.2606(5) 0.3910(13) 0.0984(7)
C12A C 0.2842(5) 0.2354(12) 0.1932(10)
C13A C 0.3192(6) 0.236(1) 0.1409(12)
H1A H 0.5483(5) 0.7329(11) 0.1536(7)
H2A H 0.6828(5) 0.5051(13) 0.2137(9)
H3A H 0.6011(5) 0.3495(12) 0.1707(8)
H4A H 0.4663(5) 0.6545(13) 0.1622(9)
H5A H 0.3754(6) 0.5935(13) 0.1043(10)
H6A H 0.4241(5) 0.2391(12) 0.0171(7)
H7A H 0.5174(4) 0.3062(10) 0.0704(7)
H8A H 0.3319(5) 0.302(2) -0.0272(9)
H9A H 0.3122(5) 0.451(2) -0.0214(9)
H10A H 0.2400(5) 0.4631(13) 0.0647(7)
H11A H 0.2855(5) 0.1743(12) 0.2413(10)
H12A H 0.3501(6) 0.177(1) 0.1451(12)
O1 O 0.0000 0.351(2) 0.2500
C14 C 0.0000 0.466(3) 0.2500
C15 C 0.042(2) 0.512(5) 0.325(3)
H13 H 0.029(2) 0.470(5) 0.371(3)
H14 H 0.076(2) 0.470(5) 0.320(3)
H15 H 0.048(2) 0.606(5) 0.338(3)
C15B C -0.042(2) 0.512(5) 0.175(3)
H13B H -0.029(2) 0.470(5) 0.129(3)
H14B H -0.076(2) 0.470(5) 0.180(3)
H15B H -0.048(2) 0.606(5) 0.162(3)
loop_
_geom_bond_atom_site_label_1
_geom_bond_atom_site_label_2
_geom_bond_site_symmetry_1
_geom_bond_site_symmetry_2
Hg1 I1 1_555 1_555
I2 Hg1 1_555 1_555
O1 C14 1_555 1_555
N1 Hg1 1_555 1_555
N2 C1 1_555 1_555
N3 C11 1_555 1_555
N4 C10 1_555 1_555
C1 N1 1_555 1_555
C2 N1 1_555 1_555
C3 N2 1_555 1_555
C4 N2 1_555 1_555
C5 C4 1_555 1_555
C6 C5 1_555 1_555
C7 C6 1_555 1_555
C8 C7 1_555 1_555
C9 C4 1_555 1_555
C10 C7 1_555 1_555
C11 N4 1_555 1_555
C12 N3 1_555 1_555
C13 N4 1_555 1_555
C14 C15 1_555 1_555
C15 H13 1_555 1_555
H1 C1 1_555 1_555
H2 C2 1_555 1_555
H3 C3 1_555 1_555
H4 C5 1_555 1_555
H5 C6 1_555 1_555
H6 C8 1_555 1_555
H7 C9 1_555 1_555
H8 C10 1_555 1_555
H9 C10 1_555 1_555
H10 C11 1_555 1_555
H11 C12 1_555 1_555
H12 C13 1_555 1_555
H14 C15 1_555 1_555
H15 C15 1_555 1_555
Hg1A I1A 1_555 1_555
Hg1A_2 N3 1_555 1_555
I2A Hg1A 1_555 1_555
N1A Hg1A 1_555 1_555
N2A C1A 1_555 1_555
N3A Hg1 1_555 1_555
N3_2 Hg1A 1_555 1_555
N4A C10A 1_555 1_555
C1A N1A 1_555 1_555
C2A N1A 1_555 1_555
C3A N2A 1_555 1_555
C4A N2A 1_555 1_555
C5A C4A 1_555 1_555
C6A C5A 1_555 1_555
C7A C6A 1_555 1_555
C8A C7A 1_555 1_555
C9A C4A 1_555 1_555
C10A C7A 1_555 1_555
C11A N3A 1_555 1_555
C12A N3A 1_555 1_555
C13A N4A 1_555 1_555
C15B C14 1_555 1_555
H1A C1A 1_555 1_555
H2A C2A 1_555 1_555
H3A C3A 1_555 1_555
H4A C5A 1_555 1_555
H5A C6A 1_555 1_555
H6A C8A 1_555 1_555
H7A C9A 1_555 1_555
H8A C10A 1_555 1_555
H9A C10A 1_555 1_555
H10A C11A 1_555 1_555
H11A C12A 1_555 1_555
H12A C13A 1_555 1_555
H13B C15B 1_555 1_555
H14B C15B 1_555 1_555
H15B C15B 1_555 1_555
C2 C3 1_555 1_555
C8 C9 1_555 1_555
C12 C13 1_555 1_555
N4A C11A 1_555 1_555
C2A C3A 1_555 1_555
C8A C9A 1_555 1_555
C12A C13A 1_555 1_555

#END
