
#######################################################################
#
#                 Cambridge Crystallographic Data Centre
#                                CCDC 
#
#######################################################################
#
# If this CIF has been generated from an entry in the Cambridge 
# Structural Database, then it will include bibliographic, chemical, 
# crystal, experimental, refinement or atomic coordinate data resulting 
# from the CCDC's data processing and validation procedures.
#
#######################################################################

data_ODITUR
_symmetry_cell_setting           triclinic
_symmetry_space_group_name_H-M   'P -1'
_symmetry_Int_Tables_number      2
_space_group_name_Hall           '-P 1'
loop_
_symmetry_equiv_pos_site_id
_symmetry_equiv_pos_as_xyz
1 x,y,z
2 -x,-y,-z
_cell_length_a                   7.8585(16)
_cell_length_b                   8.6387(18)
_cell_length_c                   17.281(4)
_cell_angle_alpha                78.394(3)
_cell_angle_beta                 83.515(3)
_cell_angle_gamma                65.892(3)
_cell_volume                     1048.32
loop_
_atom_site_label
_atom_site_type_symbol
_atom_site_fract_x
_atom_site_fract_y
_atom_site_fract_z
Cd1 Cd 0.0000 1.0000 0.0000
N1 N 0.3476(6) 0.8734(5) -0.6003(2)
N2 N 0.4525(6) 0.7512(5) -0.5379(2)
N3 N 0.3227(7) 0.5145(5) -0.1006(3)
N4 N 0.4487(5) 0.5846(5) -0.1021(2)
N5 N 0.2133(6) 0.7326(5) -0.0327(2)
N6 N -0.1889(5) 1.7478(4) -0.7785(2)
N7 N -0.0870(6) 1.8110(5) -0.7456(2)
N8 N -0.0783(5) 1.8797(4) -0.8772(2)
N9 N -0.3037(6) 0.9468(8) -0.0861(3)
C1 C 0.2424(6) 1.0065(5) -0.5710(2)
C2 C 0.1092(6) 1.1691(5) -0.6097(2)
C3 C 0.0973(7) 1.1998(6) -0.6911(3)
H1 H 0.1752 1.1165 -0.7203
C4 C -0.0285(7) 1.3521(6) -0.7285(3)
H2 H -0.0354 1.3711 -0.7832
C5 C -0.1453(6) 1.4781(5) -0.6867(2)
C6 C -0.1334(7) 1.4487(6) -0.6062(3)
H3 H -0.2110 1.5328 -0.5773
C7 C -0.0075(6) 1.2958(6) -0.5679(3)
H4 H -0.0009 1.2774 -0.5132
C8 C -0.2838(6) 1.6466(6) -0.7298(3)
H5 H -0.3583 1.6223 -0.7630
H6 H -0.3673 1.7126 -0.6916
C9 C -0.1822(6) 1.7903(5) -0.8559(3)
H7 H -0.2422 1.7613 -0.8906
C10 C -0.0241(7) 1.8898(6) -0.8070(3)
H8 H 0.0509 1.9477 -0.8031
C11 C 0.4004(6) 0.8217(5) -0.4759(2)
C12 C 0.4599(6) 0.7512(5) -0.3953(3)
C13 C 0.3943(7) 0.8517(5) -0.3371(3)
H9 H 0.3140 0.9667 -0.3498
C14 C 0.4473(7) 0.7822(6) -0.2605(3)
H10 H 0.4040 0.8517 -0.2218
C15 C 0.5635(6) 0.6112(6) -0.2399(3)
C16 C 0.6294(6) 0.5115(6) -0.2980(3)
H11 H 0.7083 0.3961 -0.2849
C17 C 0.5796(6) 0.5805(6) -0.3758(3)
H12 H 0.6268 0.5122 -0.4148
C18 C 0.6147(7) 0.5346(6) -0.1543(3)
H13 H 0.6732 0.4101 -0.1485
H14 H 0.7035 0.5744 -0.1396
C19 C 0.3813(7) 0.7124(6) -0.0617(3)
H15 H 0.4442 0.7791 -0.0547
C20 C 0.1849(8) 0.6077(6) -0.0583(3)
H16 H 0.0754 0.5895 -0.0467
O1 O 0.2664(4) 0.9844(3) -0.49177(16)
O2 O -0.2729(9) 1.0523(10) -0.0678(4)
O3 O -0.2400(11) 0.8062(11) -0.0428(5)
O4 O -0.3886(8) 0.9529(8) -0.1395(3)
Cd1_2 Cd 0.0000 2.0000 -1.0000
Cd1_3 Cd 0.0000 0.0000 1.0000
N1A N -0.3476(6) 1.1266(5) 0.6003(2)
N2A N -0.4525(6) 1.2488(5) 0.5379(2)
N3A N -0.3227(7) 1.4855(5) 0.1006(3)
N4A N -0.4487(5) 1.4154(5) 0.1021(2)
N5A N -0.2133(6) 1.2674(5) 0.0327(2)
N6A N 0.1889(5) 0.2522(4) 0.7785(2)
N7A N 0.0870(6) 0.1890(5) 0.7456(2)
N8A N 0.0783(5) 0.1203(4) 0.8772(2)
N8_2 N -0.0783(5) 0.8797(4) 0.1228(2)
N8A_2 N 0.0783(5) 1.1203(4) -0.1228(2)
N9A N 0.3037(6) 1.0532(8) 0.0861(3)
C1A C -0.2424(6) 0.9935(5) 0.5710(2)
C2A C -0.1092(6) 0.8309(5) 0.6097(2)
C3A C -0.0973(7) 0.8002(6) 0.6911(3)
H1A H -0.1752 0.8835 0.7203
C4A C 0.0285(7) 0.6479(6) 0.7285(3)
H2A H 0.0354 0.6289 0.7832
C5A C 0.1453(6) 0.5219(5) 0.6867(2)
C6A C 0.1334(7) 0.5513(6) 0.6062(3)
H3A H 0.2110 0.4672 0.5773
C7A C 0.0075(6) 0.7042(6) 0.5679(3)
H4A H 0.0009 0.7226 0.5132
C8A C 0.2838(6) 0.3534(6) 0.7298(3)
H5A H 0.3583 0.3777 0.7630
H6A H 0.3673 0.2874 0.6916
C9A C 0.1822(6) 0.2097(5) 0.8559(3)
H7A H 0.2422 0.2387 0.8906
C10A C 0.0241(7) 0.1102(6) 0.8070(3)
H8A H -0.0509 0.0523 0.8031
C11A C -0.4004(6) 1.1783(5) 0.4759(2)
C12A C -0.4599(6) 1.2488(5) 0.3953(3)
C13A C -0.3943(7) 1.1483(5) 0.3371(3)
H9A H -0.3140 1.0333 0.3498
C14A C -0.4473(7) 1.2178(6) 0.2605(3)
H10A H -0.4040 1.1483 0.2218
C15A C -0.5635(6) 1.3888(6) 0.2399(3)
C16A C -0.6294(6) 1.4885(6) 0.2980(3)
H11A H -0.7083 1.6039 0.2849
C17A C -0.5796(6) 1.4195(6) 0.3758(3)
H12A H -0.6268 1.4878 0.4148
C18A C -0.6147(7) 1.4654(6) 0.1543(3)
H13A H -0.6732 1.5899 0.1485
H14A H -0.7035 1.4256 0.1396
C19A C -0.3813(7) 1.2876(6) 0.0617(3)
H15A H -0.4442 1.2209 0.0547
C20A C -0.1849(8) 1.3923(6) 0.0583(3)
H16A H -0.0754 1.4105 0.0467
O1A O -0.2664(4) 1.0156(3) 0.49177(16)
O2A O 0.2729(9) 0.9477(10) 0.0678(4)
O3A O 0.2400(11) 1.1938(11) 0.0428(5)
O4A O 0.3886(8) 1.0471(8) 0.1395(3)
loop_
_geom_bond_atom_site_label_1
_geom_bond_atom_site_label_2
_geom_bond_site_symmetry_1
_geom_bond_site_symmetry_2
Cd1 N5 1_555 1_555
N1 N2 1_555 1_555
N2 C11 1_555 1_555
N3 N4 1_555 1_555
N4 C18 1_555 1_555
N5 C19 1_555 1_555
N6 N7 1_555 1_555
N7 C10 1_555 1_555
N8 C9 1_555 1_555
N9 O2 1_555 1_555
C1 N1 1_555 1_555
C2 C1 1_555 1_555
C3 C2 1_555 1_555
H1 C3 1_555 1_555
C4 C3 1_555 1_555
H2 C4 1_555 1_555
C5 C4 1_555 1_555
C6 C5 1_555 1_555
H3 C6 1_555 1_555
C7 C2 1_555 1_555
H4 C7 1_555 1_555
C8 N6 1_555 1_555
H5 C8 1_555 1_555
H6 C8 1_555 1_555
C9 N6 1_555 1_555
H7 C9 1_555 1_555
C10 N8 1_555 1_555
H8 C10 1_555 1_555
C11 C12 1_555 1_555
C12 C13 1_555 1_555
C13 H9 1_555 1_555
C14 C13 1_555 1_555
H10 C14 1_555 1_555
C15 C14 1_555 1_555
C16 C15 1_555 1_555
H11 C16 1_555 1_555
C17 C12 1_555 1_555
H12 C17 1_555 1_555
C18 C15 1_555 1_555
H13 C18 1_555 1_555
H14 C18 1_555 1_555
C19 N4 1_555 1_555
H15 C19 1_555 1_555
C20 N3 1_555 1_555
H16 C20 1_555 1_555
O1 C1 1_555 1_555
O2 Cd1 1_555 1_555
O3 N9 1_555 1_555
O4 N9 1_555 1_555
Cd1_2 N8 1_555 1_555
Cd1_3 N8A 1_555 1_555
N1A N2A 1_555 1_555
N2A C11A 1_555 1_555
N3A N4A 1_555 1_555
N4A C18A 1_555 1_555
N5A Cd1 1_555 1_555
N6A N7A 1_555 1_555
N7A C10A 1_555 1_555
N8A C9A 1_555 1_555
N8_2 Cd1 1_555 1_555
N8A_2 Cd1 1_555 1_555
N9A O2A 1_555 1_555
C1A N1A 1_555 1_555
C2A C1A 1_555 1_555
C3A C2A 1_555 1_555
H1A C3A 1_555 1_555
C4A C3A 1_555 1_555
H2A C4A 1_555 1_555
C5A C4A 1_555 1_555
C6A C5A 1_555 1_555
H3A C6A 1_555 1_555
C7A C2A 1_555 1_555
H4A C7A 1_555 1_555
C8A N6A 1_555 1_555
H5A C8A 1_555 1_555
H6A C8A 1_555 1_555
C9A N6A 1_555 1_555
H7A C9A 1_555 1_555
C10A N8A 1_555 1_555
H8A C10A 1_555 1_555
C11A C12A 1_555 1_555
C12A C13A 1_555 1_555
C13A H9A 1_555 1_555
C14A C13A 1_555 1_555
H10A C14A 1_555 1_555
C15A C14A 1_555 1_555
C16A C15A 1_555 1_555
H11A C16A 1_555 1_555
C17A C12A 1_555 1_555
H12A C17A 1_555 1_555
C18A C15A 1_555 1_555
H13A C18A 1_555 1_555
H14A C18A 1_555 1_555
C19A N4A 1_555 1_555
H15A C19A 1_555 1_555
C20A N3A 1_555 1_555
H16A C20A 1_555 1_555
O1A C1A 1_555 1_555
O2A Cd1 1_555 1_555
O3A N9A 1_555 1_555
O4A N9A 1_555 1_555
N5 C20 1_555 1_555
C5 C8 1_555 1_555
C6 C7 1_555 1_555
C11 O1 1_555 1_555
C16 C17 1_555 1_555
N5A C19A 1_555 1_555
N5A C20A 1_555 1_555
C5A C8A 1_555 1_555
C6A C7A 1_555 1_555
C11A O1A 1_555 1_555
C16A C17A 1_555 1_555

#END
