
#######################################################################
#
#                 Cambridge Crystallographic Data Centre
#                                CCDC 
#
#######################################################################
#
# If this CIF has been generated from an entry in the Cambridge 
# Structural Database, then it will include bibliographic, chemical, 
# crystal, experimental, refinement or atomic coordinate data resulting 
# from the CCDC's data processing and validation procedures.
#
#######################################################################

data_ODITAX
_symmetry_cell_setting           triclinic
_symmetry_space_group_name_H-M   'P -1'
_symmetry_Int_Tables_number      2
_space_group_name_Hall           '-P 1'
loop_
_symmetry_equiv_pos_site_id
_symmetry_equiv_pos_as_xyz
1 x,y,z
2 -x,-y,-z
_cell_length_a                   8.913(3)
_cell_length_b                   13.306(5)
_cell_length_c                   37.689(11)
_cell_angle_alpha                80.808(12)
_cell_angle_beta                 87.933(12)
_cell_angle_gamma                72.027(13)
_cell_volume                     4196.65
loop_
_atom_site_label
_atom_site_type_symbol
_atom_site_fract_x
_atom_site_fract_y
_atom_site_fract_z
Hg1 Hg 1.09479(7) 0.92333(5) 0.111236(16)
Hg2 Hg 0.54666(7) 0.45572(5) 0.619630(17)
Hg4 Hg 0.6956(5) 0.1453(7) 0.24722(17)
I1 I 0.93504(16) 1.12808(9) 0.11137(3)
I2 I 1.38957(15) 0.79646(15) 0.11434(4)
I3 I 0.85738(13) 0.40041(13) 0.62471(4)
I4 I 0.28821(14) 0.61560(9) 0.62767(3)
I7 I 0.8813(9) 0.2719(9) 0.2345(2)
I8 I 0.7928(13) -0.0623(9) 0.2698(3)
N1 N 0.3564(11) 0.6140(8) 0.0162(3)
N2 N 0.3570(11) 0.6334(8) -0.0471(3)
N3 N 0.2445(12) 0.5126(8) -0.0128(3)
N4 N 0.8697(11) 0.9184(8) 0.0068(3)
N5 N 1.0027(13) 0.8989(9) 0.0560(3)
N6 N 0.1376(18) 0.3037(12) -0.1658(3)
N7 N 0.0453(18) 0.1699(13) -0.1478(3)
N8 N 0.328(2) 0.2501(12) 0.1695(4)
N9 N 0.5276(18) 0.1810(18) 0.2002(4)
N10 N 0.2369(12) 0.0041(9) 0.4847(3)
N11 N 0.1770(12) -0.1406(8) 0.5207(3)
N12 N 0.1031(12) -0.0949(10) 0.4592(3)
N13 N 0.4447(14) 0.1470(9) 0.6420(3)
N14 N 0.4631(14) 0.3072(11) 0.6395(3)
N15 N -0.3763(13) -0.4255(9) 0.4870(3)
N16 N -0.5021(14) -0.4264(10) 0.4401(3)
N17 N 0.251(2) 0.2752(13) 0.3096(4)
N18 N 0.4737(14) 0.2584(12) 0.2882(4)
C1 C 0.3871(14) 0.6598(10) -0.0161(4)
C2 C 0.2857(14) 0.5571(10) -0.0438(3)
C3 C 0.2821(14) 0.5425(10) 0.0169(3)
C4 C 0.4683(14) 0.7450(10) -0.0187(4)
C5 C 0.5340(15) 0.7564(10) 0.0134(4)
H1 H 0.5149 0.7172 0.0356
C6 C 0.6211(15) 0.8203(10) 0.0133(3)
H2 H 0.6678 0.8243 0.0350
C7 C 0.6462(14) 0.8839(10) -0.0195(3)
C8 C 0.5794(14) 0.8718(10) -0.0502(3)
H3 H 0.5953 0.9114 -0.0725
C9 C 0.4890(16) 0.8031(10) -0.0493(3)
H4 H 0.4418 0.7977 -0.0708
C10 C 0.7472(16) 0.9541(11) -0.0212(4)
H5 H 0.7976 0.9571 -0.0450
H6 H 0.6802 1.0274 -0.0189
C11 C 0.8797(16) 0.9553(10) 0.0376(4)
H7 H 0.8041 1.0162 0.0447
C12 C 1.0770(17) 0.8178(11) 0.0373(4)
H8 H 1.1705 0.7611 0.0447
C13 C 0.9942(18) 0.8318(12) 0.0062(4)
H9 H 1.0201 0.7885 -0.0123
C14 C 0.2570(14) 0.5202(9) -0.0766(3)
C15 C 0.2867(18) 0.5647(11) -0.1108(4)
H10 H 0.3282 0.6232 -0.1135
C16 C 0.2586(18) 0.5278(13) -0.1405(4)
H11 H 0.2824 0.5595 -0.1635
C17 C 0.1940(19) 0.4420(11) -0.1374(4)
C18 C 0.1649(17) 0.3970(12) -0.1050(4)
H12 H 0.1229 0.3388 -0.1027
C19 C 0.1957(15) 0.4345(10) -0.0735(4)
H13 H 0.1746 0.4013 -0.0504
C20 C 0.155(2) 0.4091(13) -0.1716(4)
H14 H 0.0564 0.4615 -0.1821
H15 H 0.2407 0.4108 -0.1890
C21 C 0.0144(17) 0.2767(14) -0.1542(4)
H16 H -0.0854 0.3263 -0.1506
C22 C 0.202(2) 0.1276(13) -0.1531(5)
H17 H 0.2603 0.0536 -0.1493
C23 C 0.262(2) 0.2083(18) -0.1646(5)
H18 H 0.3690 0.2018 -0.1707
C24 C 0.2478(13) 0.4872(10) 0.0517(3)
C25 C 0.1748(15) 0.4084(10) 0.0541(3)
H19 H 0.1430 0.3897 0.0329
C26 C 0.1488(16) 0.3575(11) 0.0871(4)
H20 H 0.0986 0.3036 0.0884
C27 C 0.1929(17) 0.3813(11) 0.1188(4)
C28 C 0.2640(17) 0.4572(13) 0.1155(4)
H21 H 0.2984 0.4724 0.1370
C29 C 0.2919(16) 0.5153(11) 0.0838(3)
H22 H 0.3380 0.5710 0.0834
C30 C 0.1680(19) 0.3262(13) 0.1539(4)
H23 H 0.0946 0.2848 0.1517
H24 H 0.1207 0.3788 0.1701
C31 C 0.3957(19) 0.2630(17) 0.1991(5)
H25 H 0.3599 0.3151 0.2146
C33 C 0.578(3) 0.163(4) 0.1687(6)
H27 H 0.6823 0.1390 0.1600
C35 C 0.436(3) 0.188(3) 0.1518(7)
H29 H 0.4182 0.1648 0.1303
C36 C 0.2381(14) -0.0596(11) 0.5158(3)
C37 C 0.1078(15) -0.1548(12) 0.4924(4)
C38 C 0.1678(15) -0.0171(12) 0.4573(4)
C39 C 0.3121(15) -0.0394(10) 0.5474(4)
C40 C 0.3700(15) 0.0448(10) 0.5442(4)
H30 H 0.3743 0.0859 0.5214
C41 C 0.4236(15) 0.0705(11) 0.5754(4)
H31 H 0.4579 0.1319 0.5738
C42 C 0.4265(15) 0.0081(11) 0.6078(3)
C43 C 0.3682(18) -0.0765(12) 0.6107(4)
H32 H 0.3636 -0.1177 0.6335
C44 C 0.3156(16) -0.1015(11) 0.5799(4)
H33 H 0.2815 -0.1631 0.5817
C45 C 0.4837(18) 0.0354(11) 0.6413(4)
H34 H 0.5997 0.0035 0.6433
H35 H 0.4375 0.0024 0.6626
C46 C 0.5423(19) 0.2017(12) 0.6413(4)
H36 H 0.6539 0.1721 0.6420
C47 C 0.3088(19) 0.3138(13) 0.6401(5)
H37 H 0.2240 0.3783 0.6393
C48 C 0.2929(19) 0.2181(13) 0.6419(5)
H38 H 0.1968 0.2010 0.6429
C49 C 0.0312(15) -0.2376(12) 0.4964(4)
C50 C 0.0183(16) -0.2929(10) 0.5310(4)
H39 H 0.0717 -0.2827 0.5509
C51 C -0.0719(16) -0.3621(12) 0.5362(4)
H40 H -0.0816 -0.3986 0.5595
C52 C -0.1482(15) -0.3776(11) 0.5069(4)
C53 C -0.1298(16) -0.3252(12) 0.4722(4)
H41 H -0.1788 -0.3387 0.4523
C54 C -0.0435(17) -0.2561(11) 0.4666(4)
H42 H -0.0333 -0.2207 0.4431
C55 C -0.2479(17) -0.4526(12) 0.5139(5)
H43 H -0.2940 -0.4490 0.5382
H44 H -0.1798 -0.5269 0.5135
C56 C -0.3804(16) -0.4721(11) 0.4583(4)
H45 H -0.2998 -0.5329 0.4527
C57 C -0.5880(18) -0.3377(13) 0.4558(5)
H46 H -0.6856 -0.2871 0.4473
C58 C -0.5057(18) -0.3375(12) 0.4855(4)
H47 H -0.5326 -0.2869 0.5016
C59 C 0.1597(16) 0.0532(14) 0.4224(4)
C60 C 0.0771(19) 0.0419(16) 0.3941(5)
H48 H 0.0291 -0.0134 0.3966
C61 C 0.063(2) 0.113(2) 0.3607(5)
H49 H 0.0084 0.1046 0.3407
C62 C 0.130(2) 0.192(2) 0.3588(5)
C63 C 0.2143(19) 0.2061(13) 0.3866(5)
H50 H 0.2615 0.2617 0.3845
C64 C 0.2255(18) 0.1313(14) 0.4185(4)
H51 H 0.2836 0.1373 0.4383
C65 C 0.107(2) 0.272(2) 0.3240(6)
H52 H 0.0451 0.3437 0.3288
H53 H 0.0477 0.2505 0.3064
C66 C 0.3614(17) 0.2106(16) 0.2915(5)
H54 H 0.3601 0.1472 0.2831
C67 C 0.431(3) 0.3489(17) 0.2996(8)
H55 H 0.4861 0.4000 0.2974
C68 C 0.290(3) 0.356(2) 0.3155(8)
H56 H 0.2318 0.4111 0.3285
Hg1A Hg -0.09479(7) 0.07667(5) -0.111236(16)
Hg2A Hg -0.54666(7) -0.45572(5) 0.380370(17)
N7A N 0.9547(18) 0.8301(13) 0.1478(3)
N16A N 0.5021(14) 0.4264(10) 0.5599(3)
O1 O 0.720(3) 1.002(2) 0.7120(7)
O2 O 0.236(3) 0.5072(17) 0.2118(5)
O3 O 0.756(4) 1.041(3) 0.7722(11)
O5 O 0.012(7) 0.605(4) 0.2589(12)
Hg3? Hg 0.6975(6) 0.1982(5) 0.25827(11)
I5? I 0.8511(13) 0.3363(10) 0.2405(2)
I6? I 0.8298(7) -0.0081(5) 0.28558(16)
C32? C 0.507(5) 0.104(3) 0.1860(16)
H26? H 0.5700 0.0311 0.1894
C34? C 0.376(5) 0.151(2) 0.1650(10)
H28? H 0.3288 0.1174 0.1501
O4? O -0.230(7) 0.642(5) 0.2695(11)
loop_
_geom_bond_atom_site_label_1
_geom_bond_atom_site_label_2
_geom_bond_site_symmetry_1
_geom_bond_site_symmetry_2
Hg1 I1 1_555 1_555
Hg2 I3 1_555 1_555
Hg4 I7 1_555 1_555
I2 Hg1 1_555 1_555
I4 Hg2 1_555 1_555
I8 Hg4 1_555 1_555
N1 C1 1_555 1_555
N2 C1 1_555 1_555
N3 C2 1_555 1_555
N4 C10 1_555 1_555
N5 Hg1 1_555 1_555
N6 C20 1_555 1_555
N7 C21 1_555 1_555
N8 C30 1_555 1_555
N9 Hg4 1_555 1_555
N10 C36 1_555 1_555
N11 C36 1_555 1_555
N12 C37 1_555 1_555
N13 C45 1_555 1_555
N14 Hg2 1_555 1_555
N15 C55 1_555 1_555
N16 C56 1_555 1_555
N17 C65 1_555 1_555
N18 Hg4 1_555 1_555
C1 C4 1_555 1_555
C2 N2 1_555 1_555
C3 N1 1_555 1_555
C4 C5 1_555 1_555
C5 H1 1_555 1_555
C6 C5 1_555 1_555
H2 C6 1_555 1_555
C7 C6 1_555 1_555
C8 C7 1_555 1_555
H3 C8 1_555 1_555
C9 C4 1_555 1_555
H4 C9 1_555 1_555
C10 C7 1_555 1_555
H5 C10 1_555 1_555
H6 C10 1_555 1_555
C11 N4 1_555 1_555
H7 C11 1_555 1_555
C12 N5 1_555 1_555
H8 C12 1_555 1_555
C13 N4 1_555 1_555
H9 C13 1_555 1_555
C14 C2 1_555 1_555
C15 C14 1_555 1_555
H10 C15 1_555 1_555
C16 C15 1_555 1_555
H11 C16 1_555 1_555
C17 C16 1_555 1_555
C18 C17 1_555 1_555
H12 C18 1_555 1_555
C19 C14 1_555 1_555
H13 C19 1_555 1_555
C20 C17 1_555 1_555
H14 C20 1_555 1_555
H15 C20 1_555 1_555
C21 N6 1_555 1_555
H16 C21 1_555 1_555
C22 N7 1_555 1_555
H17 C22 1_555 1_555
C23 N6 1_555 1_555
H18 C23 1_555 1_555
C24 C3 1_555 1_555
C25 C24 1_555 1_555
H19 C25 1_555 1_555
C26 C25 1_555 1_555
H20 C26 1_555 1_555
C27 C26 1_555 1_555
C28 C27 1_555 1_555
H21 C28 1_555 1_555
C29 C24 1_555 1_555
H22 C29 1_555 1_555
C30 C27 1_555 1_555
H23 C30 1_555 1_555
H24 C30 1_555 1_555
C31 N8 1_555 1_555
H25 C31 1_555 1_555
C33 N9 1_555 1_555
H27 C33 1_555 1_555
C35 N8 1_555 1_555
H29 C35 1_555 1_555
C36 C39 1_555 1_555
C37 N11 1_555 1_555
C38 N10 1_555 1_555
C39 C40 1_555 1_555
C40 H30 1_555 1_555
C41 C40 1_555 1_555
H31 C41 1_555 1_555
C42 C41 1_555 1_555
C43 C42 1_555 1_555
H32 C43 1_555 1_555
C44 C39 1_555 1_555
H33 C44 1_555 1_555
C45 C42 1_555 1_555
H34 C45 1_555 1_555
H35 C45 1_555 1_555
C46 N13 1_555 1_555
H36 C46 1_555 1_555
C47 N14 1_555 1_555
H37 C47 1_555 1_555
C48 N13 1_555 1_555
H38 C48 1_555 1_555
C49 C37 1_555 1_555
C50 C49 1_555 1_555
H39 C50 1_555 1_555
C51 C50 1_555 1_555
H40 C51 1_555 1_555
C52 C51 1_555 1_555
C53 C52 1_555 1_555
H41 C53 1_555 1_555
C54 C49 1_555 1_555
H42 C54 1_555 1_555
C55 C52 1_555 1_555
H43 C55 1_555 1_555
H44 C55 1_555 1_555
C56 N15 1_555 1_555
H45 C56 1_555 1_555
C57 N16 1_555 1_555
H46 C57 1_555 1_555
C58 N15 1_555 1_555
H47 C58 1_555 1_555
C59 C38 1_555 1_555
C60 C59 1_555 1_555
H48 C60 1_555 1_555
C61 C60 1_555 1_555
H49 C61 1_555 1_555
C62 C61 1_555 1_555
C63 C62 1_555 1_555
H50 C63 1_555 1_555
C64 C59 1_555 1_555
H51 C64 1_555 1_555
C65 C62 1_555 1_555
H52 C65 1_555 1_555
H53 C65 1_555 1_555
C66 N17 1_555 1_555
H54 C66 1_555 1_555
C67 N18 1_555 1_555
H55 C67 1_555 1_555
C68 N17 1_555 1_555
H56 C68 1_555 1_555
Hg1A N7 1_555 1_555
Hg2A N16 1_555 1_555
N7A Hg1 1_555 1_555
N16A Hg2 1_555 1_555
N3 C3 1_555 1_555
N5 C11 1_555 1_555
N9 C31 1_555 1_555
N12 C38 1_555 1_555
N14 C46 1_555 1_555
N18 C66 1_555 1_555
C8 C9 1_555 1_555
C12 C13 1_555 1_555
C18 C19 1_555 1_555
C22 C23 1_555 1_555
C28 C29 1_555 1_555
C33 C35 1_555 1_555
C43 C44 1_555 1_555
C47 C48 1_555 1_555
C53 C54 1_555 1_555
C57 C58 1_555 1_555
C63 C64 1_555 1_555
C67 C68 1_555 1_555

#END
