
#######################################################################
#
#                 Cambridge Crystallographic Data Centre
#                                CCDC 
#
#######################################################################
#
# If this CIF has been generated from an entry in the Cambridge 
# Structural Database, then it will include bibliographic, chemical, 
# crystal, experimental, refinement or atomic coordinate data resulting 
# from the CCDC's data processing and validation procedures.
#
#######################################################################

data_ODIVII
_symmetry_cell_setting           monoclinic
_symmetry_space_group_name_H-M   'P 21/n'
_symmetry_Int_Tables_number      14
_space_group_name_Hall           '-P 2yn'
loop_
_symmetry_equiv_pos_site_id
_symmetry_equiv_pos_as_xyz
1 x,y,z
2 1/2-x,1/2+y,1/2-z
3 -x,-y,-z
4 1/2+x,1/2-y,1/2+z
_cell_length_a                   12.474(2)
_cell_length_b                   15.002(3)
_cell_length_c                   13.766(3)
_cell_angle_alpha                90
_cell_angle_beta                 98.45(4)
_cell_angle_gamma                90
_cell_volume                     2548.13
loop_
_atom_site_label
_atom_site_type_symbol
_atom_site_fract_x
_atom_site_fract_y
_atom_site_fract_z
C1 C 0.58505(18) 0.31604(15) 1.11517(17)
H1 H 0.5126 0.3066 1.1209
C2 C 0.6421(2) 0.38139(16) 1.17348(18)
H2 H 0.6080 0.4152 1.2166
C3 C 0.74967(19) 0.39505(15) 1.16633(17)
H3 H 0.7894 0.4377 1.2053
C4 C 0.79901(17) 0.34432(13) 1.09992(15)
C5 C 0.73493(16) 0.27999(12) 1.04240(14)
C6 C 0.78080(16) 0.22693(13) 0.96966(14)
C7 C 0.7548(2) 0.11818(17) 0.85028(18)
H4 H 0.7099 0.0759 0.8157
C8 C 0.8594(2) 0.12864(19) 0.82772(19)
H5 H 0.8831 0.0946 0.7786
C9 C 0.9267(2) 0.18998(17) 0.87922(18)
H6 H 0.9970 0.1979 0.8657
C10 C 0.88842(16) 0.24084(14) 0.95267(15)
C11 C 0.95157(17) 0.30701(14) 1.01130(15)
C12 C 0.90843(17) 0.35406(14) 1.08219(15)
C13 C 1.07503(17) 0.39795(15) 1.07310(15)
C14 C 1.17709(17) 0.44873(15) 1.08868(16)
C15 C 1.2634(2) 0.42137(18) 1.04198(18)
H7 H 1.2563 0.3702 1.0034
C16 C 1.3600(2) 0.46938(19) 1.0521(2)
H8 H 1.4165 0.4503 1.0200
C17 C 1.3724(2) 0.54526(18) 1.10959(19)
H9 H 1.4370 0.5771 1.1159
C18 C 1.2894(2) 0.57361(16) 1.15740(18)
H10 H 1.2975 0.6241 1.1970
C19 C 1.19381(18) 0.52582(15) 1.14563(16)
C20 C 0.89138(17) 0.23475(13) 1.34449(15)
C21 C 0.80315(16) 0.17855(13) 1.28761(14)
C22 C 0.70147(17) 0.18752(14) 1.31191(15)
H11 H 0.6910 0.2260 1.3626
C23 C 0.61185(17) 0.14031(14) 1.26272(16)
H12 H 0.5433 0.1487 1.2801
C24 C 0.62627(15) 0.08234(12) 1.18952(13)
C25 C 0.52913(15) 0.03450(12) 1.13391(13)
C26 C 0.73114(15) 0.06766(12) 1.16330(13)
C27 C 0.74788(18) 0.00361(15) 1.09088(15)
H13 H 0.6896 -0.0296 1.0603
C28 C 0.8485(2) -0.00961(17) 1.06575(18)
H14 H 0.8587 -0.0524 1.0191
C29 C 0.93674(19) 0.04149(17) 1.11035(18)
H15 H 1.0048 0.0329 1.0919
C30 C 0.92404(17) 0.10337(15) 1.18027(16)
H16 H 0.9835 0.1368 1.2082
C31 C 0.82152(15) 0.11782(13) 1.21128(14)
N1 N 0.62967(13) 0.26667(11) 1.05177(12)
N2 N 0.71626(15) 0.16537(11) 0.91839(13)
N3 N 1.05569(15) 0.33434(13) 1.00587(14)
N4 N 0.98821(14) 0.41206(12) 1.12163(13)
H17 H 0.9844 0.4500 1.1679
O1 O 0.47618(11) 0.07338(11) 1.06232(10)
O2 O 0.50778(13) -0.04180(9) 1.16420(10)
O3 O 0.87426(14) 0.26672(13) 1.42508(13)
O4 O 0.97758(14) 0.24990(13) 1.31157(14)
F1 F 1.11263(12) 0.55525(10) 1.19249(12)
Cd1 Cd 0.538654(11) 0.157348(9) 0.946542(10)
O2B O 0.49222(13) 0.04180(9) 0.83580(10)
O3C O 0.37426(14) 0.23328(13) 0.92508(13)
O4C O 0.47758(14) 0.25010(13) 0.81157(14)
Cd1B Cd 0.461346(11) -0.157348(9) 1.053458(10)
Cd1C Cd 1.038654(11) 0.342652(9) 1.446542(10)
O5 O 0.7526(7) 0.3198(4) 1.6020(5)
loop_
_geom_bond_atom_site_label_1
_geom_bond_atom_site_label_2
_geom_bond_site_symmetry_1
_geom_bond_site_symmetry_2
C1 H1 1_555 1_555
C2 C1 1_555 1_555
H2 C2 1_555 1_555
C3 C2 1_555 1_555
H3 C3 1_555 1_555
C4 C3 1_555 1_555
C5 C4 1_555 1_555
C6 C5 1_555 1_555
C7 H4 1_555 1_555
C8 C7 1_555 1_555
H5 C8 1_555 1_555
C9 C8 1_555 1_555
H6 C9 1_555 1_555
C10 C6 1_555 1_555
C11 C10 1_555 1_555
C12 C4 1_555 1_555
C13 C14 1_555 1_555
C14 C15 1_555 1_555
C15 H7 1_555 1_555
C16 C15 1_555 1_555
H8 C16 1_555 1_555
C17 C16 1_555 1_555
H9 C17 1_555 1_555
C18 C17 1_555 1_555
H10 C18 1_555 1_555
C19 C14 1_555 1_555
C20 C21 1_555 1_555
C21 C22 1_555 1_555
C22 H11 1_555 1_555
C23 C22 1_555 1_555
H12 C23 1_555 1_555
C24 C23 1_555 1_555
C25 C24 1_555 1_555
C26 C24 1_555 1_555
C27 C26 1_555 1_555
H13 C27 1_555 1_555
C28 C27 1_555 1_555
H14 C28 1_555 1_555
C29 C28 1_555 1_555
H15 C29 1_555 1_555
C30 C29 1_555 1_555
H16 C30 1_555 1_555
C31 C21 1_555 1_555
N1 C1 1_555 1_555
N2 C6 1_555 1_555
N3 C11 1_555 1_555
N4 C12 1_555 1_555
H17 N4 1_555 1_555
O1 C25 1_555 1_555
O2 C25 1_555 1_555
O3 C20 1_555 1_555
O4 C20 1_555 1_555
F1 C19 1_555 1_555
Cd1 N1 1_555 1_555
O2B Cd1 1_555 1_555
O3C Cd1 1_555 1_555
O4C Cd1 1_555 1_555
Cd1B O2 1_555 1_555
Cd1C O3 1_555 1_555
C5 N1 1_555 1_555
C7 N2 1_555 1_555
C9 C10 1_555 1_555
C11 C12 1_555 1_555
C13 N3 1_555 1_555
C13 N4 1_555 1_555
C18 C19 1_555 1_555
C26 C31 1_555 1_555
C30 C31 1_555 1_555
N2 Cd1 1_555 1_555
O1 Cd1 1_555 1_555
O4 Cd1C 1_555 1_555

#END
