
#######################################################################
#
#                 Cambridge Crystallographic Data Centre
#                                CCDC 
#
#######################################################################
#
# If this CIF has been generated from an entry in the Cambridge 
# Structural Database, then it will include bibliographic, chemical, 
# crystal, experimental, refinement or atomic coordinate data resulting 
# from the CCDC's data processing and validation procedures.
#
#######################################################################

data_ODIVON
_symmetry_cell_setting           orthorhombic
_symmetry_space_group_name_H-M   'P 21 21 2'
_symmetry_Int_Tables_number      18
_space_group_name_Hall           'P 2 2ab'
loop_
_symmetry_equiv_pos_site_id
_symmetry_equiv_pos_as_xyz
1 x,y,z
2 -x,-y,z
3 1/2-x,1/2+y,-z
4 1/2+x,1/2-y,-z
_cell_length_a                   10.0177(14)
_cell_length_b                   16.292(2)
_cell_length_c                   5.9802(9)
_cell_angle_alpha                90
_cell_angle_beta                 90
_cell_angle_gamma                90
_cell_volume                     976.019
loop_
_atom_site_label
_atom_site_type_symbol
_atom_site_fract_x
_atom_site_fract_y
_atom_site_fract_z
Zn1 Zn 0.5000 1.0000 1.37686(5)
N1 N 0.26088(19) 0.83181(12) 1.0502(3)
N2 N 0.40375(17) 0.91913(12) 1.1802(3)
N3 N 0.3508(2) 0.84282(13) 0.8822(4)
C1 C 0.4344(2) 0.89608(15) 0.9686(4)
C2 C 0.2936(2) 0.87704(17) 1.2247(5)
C3 C 0.1467(2) 0.77610(16) 1.0201(5)
C4 C 0.0388(2) 0.81476(14) 0.8789(4)
C5 C -0.0338(3) 0.88114(17) 0.9556(5)
C6 C -0.1361(2) 0.91383(16) 0.8300(5)
C7 C -0.1673(2) 0.88073(13) 0.6229(4)
C8 C -0.2808(2) 0.91417(14) 0.4858(4)
C9 C -0.0952(3) 0.81511(15) 0.5451(5)
C10 C 0.0077(3) 0.78183(14) 0.6710(4)
O1 O -0.36078(16) 0.96289(11) 0.5860(3)
O2 O -0.2947(2) 0.89344(13) 0.2903(4)
H1 H 0.510(3) 0.9124(16) 0.884(4)
H2 H 0.241(3) 0.8799(16) 1.349(5)
H3 H -0.008(3) 0.9006(16) 1.094(4)
H4 H -0.183(2) 0.9569(16) 0.870(4)
H5 H -0.121(3) 0.7909(17) 0.419(5)
H6 H 0.054(3) 0.7356(17) 0.620(4)
H7 H 0.110(3) 0.7615(18) 1.172(5)
H8 H 0.187(3) 0.7241(19) 0.961(5)
Zn1_2 Zn -0.5000 1.0000 0.37686(5)
Zn1_3 Zn 1.5000 1.0000 0.37686(5)
N1A N 0.73912(19) 1.16819(12) 1.0502(3)
N2A N 0.59625(17) 1.08087(12) 1.1802(3)
N3A N 0.6492(2) 1.15718(13) 0.8822(4)
C1A C 0.5656(2) 1.10392(15) 0.9686(4)
C2A C 0.7064(2) 1.12296(17) 1.2247(5)
C3A C 0.8533(2) 1.22390(16) 1.0201(5)
C4A C 0.9612(2) 1.18524(14) 0.8789(4)
C5A C 1.0338(3) 1.11886(17) 0.9556(5)
C6A C 1.1361(2) 1.08617(16) 0.8300(5)
C7A C 1.1673(2) 1.11927(13) 0.6229(4)
C8A C 1.2808(2) 1.08583(14) 0.4858(4)
C9A C 1.0952(3) 1.18489(15) 0.5451(5)
C10A C 0.9923(3) 1.21817(14) 0.6710(4)
O1A O 1.36078(16) 1.03711(11) 0.5860(3)
O1_2 O 0.63922(16) 0.96289(11) 1.5860(3)
O1A_2 O 0.36078(16) 1.03711(11) 1.5860(3)
O2A O 1.2947(2) 1.10656(13) 0.2903(4)
H1A H 0.490(3) 1.0876(16) 0.884(4)
H2A H 0.759(3) 1.1201(16) 1.349(5)
H3A H 1.008(3) 1.0994(16) 1.094(4)
H4A H 1.183(2) 1.0431(16) 0.870(4)
H5A H 1.121(3) 1.2091(17) 0.419(5)
H6A H 0.946(3) 1.2644(17) 0.620(4)
H7A H 0.890(3) 1.2385(18) 1.172(5)
H8A H 0.813(3) 1.2759(19) 0.961(5)
loop_
_geom_bond_atom_site_label_1
_geom_bond_atom_site_label_2
_geom_bond_site_symmetry_1
_geom_bond_site_symmetry_2
Zn1 N2 1_555 1_555
N1 N3 1_555 1_555
N2 C1 1_555 1_555
N3 C1 1_555 1_555
C1 H1 1_555 1_555
C2 N1 1_555 1_555
C3 N1 1_555 1_555
C4 C3 1_555 1_555
C5 C4 1_555 1_555
C6 C5 1_555 1_555
C7 C6 1_555 1_555
C8 C7 1_555 1_555
C9 C7 1_555 1_555
C10 C4 1_555 1_555
O1 C8 1_555 1_555
O2 C8 1_555 1_555
H2 C2 1_555 1_555
H3 C5 1_555 1_555
H4 C6 1_555 1_555
H5 C9 1_555 1_555
H6 C10 1_555 1_555
H7 C3 1_555 1_555
H8 C3 1_555 1_555
Zn1_2 O1 1_555 1_555
Zn1_3 O1A 1_555 1_555
N1A N3A 1_555 1_555
N2A Zn1 1_555 1_555
N3A C1A 1_555 1_555
C1A N2A 1_555 1_555
C2A N1A 1_555 1_555
C3A N1A 1_555 1_555
C4A C3A 1_555 1_555
C5A C4A 1_555 1_555
C6A C5A 1_555 1_555
C7A C6A 1_555 1_555
C8A C7A 1_555 1_555
C9A C7A 1_555 1_555
C10A C4A 1_555 1_555
O1A C8A 1_555 1_555
O1_2 Zn1 1_555 1_555
O1A_2 Zn1 1_555 1_555
O2A C8A 1_555 1_555
H1A C1A 1_555 1_555
H2A C2A 1_555 1_555
H3A C5A 1_555 1_555
H4A C6A 1_555 1_555
H5A C9A 1_555 1_555
H6A C10A 1_555 1_555
H7A C3A 1_555 1_555
H8A C3A 1_555 1_555
N2 C2 1_555 1_555
C9 C10 1_555 1_555
N2A C2A 1_555 1_555
C9A C10A 1_555 1_555

#END
