
#######################################################################
#
#                 Cambridge Crystallographic Data Centre
#                                CCDC 
#
#######################################################################
#
# If this CIF has been generated from an entry in the Cambridge 
# Structural Database, then it will include bibliographic, chemical, 
# crystal, experimental, refinement or atomic coordinate data resulting 
# from the CCDC's data processing and validation procedures.
#
#######################################################################

data_ODIVUT
_symmetry_cell_setting           monoclinic
_symmetry_space_group_name_H-M   'C 2/c'
_symmetry_Int_Tables_number      15
_space_group_name_Hall           '-C 2yn'
loop_
_symmetry_equiv_pos_site_id
_symmetry_equiv_pos_as_xyz
1 x,y,z
2 1/2+x,1/2+y,z
3 -x,y,1/2-z
4 1/2-x,1/2+y,1/2-z
5 -x,-y,-z
6 1/2-x,1/2-y,-z
7 x,-y,1/2+z
8 1/2+x,1/2-y,1/2+z
_cell_length_a                   23.024(18)
_cell_length_b                   10.095(8)
_cell_length_c                   8.741(7)
_cell_angle_alpha                90
_cell_angle_beta                 103.054(10)
_cell_angle_gamma                90
_cell_volume                     1979.14
loop_
_atom_site_label
_atom_site_type_symbol
_atom_site_fract_x
_atom_site_fract_y
_atom_site_fract_z
Co1 Co 0.0000 1.0000 0.0000
N1 N -0.08708(9) 0.6658(2) -0.2297(2)
N2 N -0.05670(12) 0.5959(2) -0.1056(3)
N3 N -0.03247(9) 0.8106(2) -0.0803(2)
C1 C -0.38059(11) 0.6250(3) -0.3520(3)
C2 C -0.31526(11) 0.6243(2) -0.3520(3)
C3 C -0.29401(12) 0.5394(3) -0.4503(3)
H1 H -0.3205 0.4848 -0.5184
C4 C -0.23436(13) 0.5344(3) -0.4491(3)
H2 H -0.2209 0.4765 -0.5163
C5 C -0.19381(11) 0.6144(2) -0.3491(3)
C6 C -0.21516(12) 0.7010(3) -0.2519(3)
H3 H -0.1888 0.7569 -0.1854
C7 C -0.27518(12) 0.7052(3) -0.2526(3)
H4 H -0.2888 0.7630 -0.1855
C8 C -0.12934(12) 0.6027(3) -0.3582(3)
H5 H -0.1248 0.6415 -0.4564
H6 H -0.1193 0.5095 -0.3603
C9 C -0.07246(12) 0.7925(3) -0.2131(3)
H7 H -0.0880 0.8589 -0.2843
C10 C -0.02427(15) 0.6877(3) -0.0190(4)
H8 H 0.0020 0.6694 0.0762
O1 O -0.41396(8) 0.5615(2) -0.4626(2)
O2 O -0.39811(9) 0.6847(2) -0.2459(2)
O3 O 0.0000 0.9374(3) 0.2500
H9 H -0.0308(14) 0.890(3) 0.234(4)
Co1G Co -0.5000 0.5000 -0.5000
Co1F Co 0.0000 1.0000 0.5000
Co1G_2 Co 0.5000 1.5000 0.5000
N1D N 0.08708(9) 1.3342(2) 0.2297(2)
N2D N 0.05670(12) 1.4041(2) 0.1056(3)
N3D N 0.03247(9) 1.1894(2) 0.0803(2)
C1D C 0.38059(11) 1.3750(3) 0.3520(3)
C2D C 0.31526(11) 1.3757(2) 0.3520(3)
C3D C 0.29401(12) 1.4606(3) 0.4503(3)
H1D H 0.3205 1.5152 0.5184
C4D C 0.23436(13) 1.4656(3) 0.4491(3)
H2D H 0.2209 1.5235 0.5163
C5D C 0.19381(11) 1.3856(2) 0.3491(3)
C6D C 0.21516(12) 1.2990(3) 0.2519(3)
H3D H 0.1888 1.2431 0.1854
C7D C 0.27518(12) 1.2948(3) 0.2526(3)
H4D H 0.2888 1.2370 0.1855
C8D C 0.12934(12) 1.3973(3) 0.3582(3)
H5D H 0.1248 1.3585 0.4564
H6D H 0.1193 1.4905 0.3603
C9D C 0.07246(12) 1.2075(3) 0.2131(3)
H7D H 0.0880 1.1411 0.2843
C10D C 0.02427(15) 1.3123(3) 0.0190(4)
H8D H -0.0020 1.3306 -0.0762
O1D O 0.41396(8) 1.4385(2) 0.4626(2)
O1G O 0.08604(8) 0.9385(2) 0.0374(2)
O1C O -0.08604(8) 1.0615(2) -0.0374(2)
O2D O 0.39811(9) 1.3153(2) 0.2459(2)
O3F O 0.0000 1.0626(3) -0.2500
H9B H 0.0308(14) 0.890(3) 0.266(4)
H9F H -0.0308(14) 1.110(3) -0.266(4)
H9D H 0.0308(14) 1.110(3) -0.234(4)
loop_
_geom_bond_atom_site_label_1
_geom_bond_atom_site_label_2
_geom_bond_site_symmetry_1
_geom_bond_site_symmetry_2
Co1 N3 1_555 1_555
N1 N2 1_555 1_555
N2 C10 1_555 1_555
N3 C9 1_555 1_555
C1 C2 1_555 1_555
C2 C3 1_555 1_555
C3 H1 1_555 1_555
C4 C3 1_555 1_555
H2 C4 1_555 1_555
C5 C4 1_555 1_555
C6 C5 1_555 1_555
H3 C6 1_555 1_555
C7 C2 1_555 1_555
H4 C7 1_555 1_555
C8 N1 1_555 1_555
H5 C8 1_555 1_555
H6 C8 1_555 1_555
C9 N1 1_555 1_555
H7 C9 1_555 1_555
C10 N3 1_555 1_555
H8 C10 1_555 1_555
O1 C1 1_555 1_555
O2 C1 1_555 1_555
O3 Co1 1_555 1_555
H9 O3 1_555 1_555
Co1G O1 1_555 1_555
Co1F O3 1_555 1_555
Co1G_2 O1D 1_555 1_555
N1D N2D 1_555 1_555
N2D C10D 1_555 1_555
N3D Co1 1_555 1_555
C1D C2D 1_555 1_555
C2D C3D 1_555 1_555
C3D H1D 1_555 1_555
C4D C3D 1_555 1_555
H2D C4D 1_555 1_555
C5D C4D 1_555 1_555
C6D C5D 1_555 1_555
H3D C6D 1_555 1_555
C7D C2D 1_555 1_555
H4D C7D 1_555 1_555
C8D N1D 1_555 1_555
H5D C8D 1_555 1_555
H6D C8D 1_555 1_555
C9D N1D 1_555 1_555
H7D C9D 1_555 1_555
C10D N3D 1_555 1_555
H8D C10D 1_555 1_555
O1D C1D 1_555 1_555
O1G Co1 1_555 1_555
O1C Co1 1_555 1_555
O2D C1D 1_555 1_555
O3F Co1 1_555 1_555
H9B O3 1_555 1_555
H9F O3F 1_555 1_555
H9D O3F 1_555 1_555
C5 C8 1_555 1_555
C6 C7 1_555 1_555
N3D C9D 1_555 1_555
C5D C8D 1_555 1_555
C6D C7D 1_555 1_555

#END
