
#######################################################################
#
#                 Cambridge Crystallographic Data Centre
#                                CCDC 
#
#######################################################################
#
# If this CIF has been generated from an entry in the Cambridge 
# Structural Database, then it will include bibliographic, chemical, 
# crystal, experimental, refinement or atomic coordinate data resulting 
# from the CCDC's data processing and validation procedures.
#
#######################################################################

data_ODIVIH
_symmetry_cell_setting           orthorhombic
_symmetry_space_group_name_H-M   'P 21 21 2'
_symmetry_Int_Tables_number      18
_space_group_name_Hall           'P 2 2ab'
loop_
_symmetry_equiv_pos_site_id
_symmetry_equiv_pos_as_xyz
1 x,y,z
2 -x,-y,z
3 1/2-x,1/2+y,-z
4 1/2+x,1/2-y,-z
_cell_length_a                   10.015(3)
_cell_length_b                   16.303(5)
_cell_length_c                   5.9874(17)
_cell_angle_alpha                90
_cell_angle_beta                 90
_cell_angle_gamma                90
_cell_volume                     977.59
loop_
_atom_site_label
_atom_site_type_symbol
_atom_site_fract_x
_atom_site_fract_y
_atom_site_fract_z
Co1 Co 1.0000 0.5000 -0.37662(7)
N1 N 0.7607(2) 0.33162(15) -0.0506(5)
N2 N 0.8498(3) 0.34288(16) 0.1173(5)
N3 N 0.9040(2) 0.41962(16) -0.1801(4)
O1 O 0.1384(2) 0.46301(15) 0.4139(4)
O2 O 0.2047(3) 0.39319(19) 0.7086(5)
C1 C 0.2186(3) 0.41421(19) 0.5124(5)
C2 C 0.3326(3) 0.38098(18) 0.3771(6)
C3 C 0.3626(3) 0.4133(2) 0.1713(6)
H1 H 0.3129 0.4571 0.1166
C4 C 0.4662(3) 0.3812(2) 0.0435(6)
H2 H 0.4863 0.4041 -0.0949
C5 C 0.5398(3) 0.31492(17) 0.1231(6)
C6 C 0.5081(3) 0.28182(18) 0.3290(5)
H3 H 0.5556 0.2370 0.3828
C7 C 0.4051(3) 0.3154(2) 0.4566(6)
H4 H 0.3853 0.2934 0.5960
C8 C 0.6475(3) 0.27633(19) -0.0206(6)
H5 H 0.6779 0.2260 0.0490
H6 H 0.6103 0.2625 -0.1654
C9 C 0.9342(3) 0.39532(19) 0.0311(6)
H7 H 1.0087 0.4144 0.1080
C10 C 0.7933(3) 0.3766(2) -0.2256(6)
H8 H 0.7465 0.3783 -0.3597
Co1_2 Co 0.0000 0.5000 0.62338(7)
Co1_3 Co 2.0000 0.5000 0.62338(7)
N1A N 1.2393(2) 0.66838(15) -0.0506(5)
N2A N 1.1502(3) 0.65712(16) 0.1173(5)
N3A N 1.0960(2) 0.58038(16) -0.1801(4)
O1A O 1.8616(2) 0.53699(15) 0.4139(4)
O1_2 O 1.1384(2) 0.46301(15) -0.5861(4)
O1A_2 O 0.8616(2) 0.53699(15) -0.5861(4)
O2A O 1.7953(3) 0.60681(19) 0.7086(5)
C1A C 1.7814(3) 0.58579(19) 0.5124(5)
C2A C 1.6674(3) 0.61902(18) 0.3771(6)
C3A C 1.6374(3) 0.5867(2) 0.1713(6)
H1A H 1.6871 0.5429 0.1166
C4A C 1.5338(3) 0.6188(2) 0.0435(6)
H2A H 1.5137 0.5959 -0.0949
C5A C 1.4602(3) 0.68508(17) 0.1231(6)
C6A C 1.4919(3) 0.71818(18) 0.3290(5)
H3A H 1.4444 0.7630 0.3828
C7A C 1.5949(3) 0.6846(2) 0.4566(6)
H4A H 1.6147 0.7066 0.5960
C8A C 1.3525(3) 0.72367(19) -0.0206(6)
H5A H 1.3221 0.7740 0.0490
H6A H 1.3897 0.7375 -0.1654
C9A C 1.0658(3) 0.60468(19) 0.0311(6)
H7A H 0.9913 0.5856 0.1080
C10A C 1.2067(3) 0.6234(2) -0.2256(6)
H8A H 1.2535 0.6217 -0.3597
loop_
_geom_bond_atom_site_label_1
_geom_bond_atom_site_label_2
_geom_bond_site_symmetry_1
_geom_bond_site_symmetry_2
Co1 N3 1_555 1_555
N1 N2 1_555 1_555
N2 C9 1_555 1_555
N3 C9 1_555 1_555
O1 C1 1_555 1_555
O2 C1 1_555 1_555
C1 C2 1_555 1_555
C2 C3 1_555 1_555
C3 H1 1_555 1_555
C4 C3 1_555 1_555
H2 C4 1_555 1_555
C5 C4 1_555 1_555
C6 C5 1_555 1_555
H3 C6 1_555 1_555
C7 C2 1_555 1_555
H4 C7 1_555 1_555
C8 N1 1_555 1_555
H5 C8 1_555 1_555
H6 C8 1_555 1_555
C9 H7 1_555 1_555
C10 N1 1_555 1_555
H8 C10 1_555 1_555
Co1_2 O1 1_555 1_555
Co1_3 O1A 1_555 1_555
N1A N2A 1_555 1_555
N2A C9A 1_555 1_555
N3A Co1 1_555 1_555
O1A C1A 1_555 1_555
O1_2 Co1 1_555 1_555
O1A_2 Co1 1_555 1_555
O2A C1A 1_555 1_555
C1A C2A 1_555 1_555
C2A C3A 1_555 1_555
C3A H1A 1_555 1_555
C4A C3A 1_555 1_555
H2A C4A 1_555 1_555
C5A C4A 1_555 1_555
C6A C5A 1_555 1_555
H3A C6A 1_555 1_555
C7A C2A 1_555 1_555
H4A C7A 1_555 1_555
C8A N1A 1_555 1_555
H5A C8A 1_555 1_555
H6A C8A 1_555 1_555
C9A N3A 1_555 1_555
H7A C9A 1_555 1_555
C10A N1A 1_555 1_555
H8A C10A 1_555 1_555
N3 C10 1_555 1_555
C5 C8 1_555 1_555
C6 C7 1_555 1_555
N3A C10A 1_555 1_555
C5A C8A 1_555 1_555
C6A C7A 1_555 1_555

#END
