
#######################################################################
#
#                 Cambridge Crystallographic Data Centre
#                                CCDC 
#
#######################################################################
#
# If this CIF has been generated from an entry in the Cambridge 
# Structural Database, then it will include bibliographic, chemical, 
# crystal, experimental, refinement or atomic coordinate data resulting 
# from the CCDC's data processing and validation procedures.
#
#######################################################################

data_ODIVED
_symmetry_cell_setting           triclinic
_symmetry_space_group_name_H-M   'P -1'
_symmetry_Int_Tables_number      2
_space_group_name_Hall           '-P 1'
loop_
_symmetry_equiv_pos_site_id
_symmetry_equiv_pos_as_xyz
1 x,y,z
2 -x,-y,-z
_cell_length_a                   7.853(2)
_cell_length_b                   8.349(3)
_cell_length_c                   17.153(5)
_cell_angle_alpha                76.715(5)
_cell_angle_beta                 78.033(5)
_cell_angle_gamma                68.386(5)
_cell_volume                     1008.17
loop_
_atom_site_label
_atom_site_type_symbol
_atom_site_fract_x
_atom_site_fract_y
_atom_site_fract_z
Cu1 Cu 1.0000 1.0000 0.0000
N1 N 2.2689(7) 0.5356(6) -0.4635(3)
N2 N 2.1700(7) 0.6396(7) -0.4040(3)
N3 N 1.3040(6) 1.1498(5) -0.2153(3)
N4 N 1.2286(6) 1.0589(6) -0.2451(3)
N5 N 1.1437(6) 1.0454(5) -0.1113(2)
N6 N 2.3448(6) 0.5251(6) -0.8980(3)
N7 N 2.4720(7) 0.6092(6) -0.9180(3)
N8 N 2.2098(6) 0.7719(6) -0.9708(3)
C1 C 2.1783(7) 0.5949(7) -0.5237(3)
C2 C 2.2242(8) 0.5359(7) -0.6018(3)
C3 C 2.3945(8) 0.4123(8) -0.6202(3)
H1 H 2.4773 0.3643 -0.5825
C4 C 2.4415(8) 0.3601(7) -0.6952(3)
H2 H 2.5571 0.2787 -0.7078
C5 C 2.3216(8) 0.4258(7) -0.7506(3)
C6 C 2.1484(9) 0.5478(8) -0.7318(4)
H3 H 2.0641 0.5922 -0.7688
C7 C 2.1025(9) 0.6027(8) -0.6576(4)
H4 H 1.9878 0.6858 -0.6455
C8 C 2.3716(9) 0.3716(7) -0.8333(3)
H5 H 2.4997 0.2958 -0.8396
H6 H 2.2950 0.3063 -0.8374
C9 C 2.1925(8) 0.6235(7) -0.9296(3)
H7 H 2.0877 0.5924 -0.9237
C10 C 2.3855(8) 0.7540(8) -0.9629(4)
H8 H 2.4395 0.8385 -0.9876
C11 C 2.0266(8) 0.7511(7) -0.4339(3)
C12 C 1.8751(7) 0.8835(7) -0.3958(3)
C13 C 1.7260(8) 0.9953(8) -0.4348(3)
H9 H 1.7238 0.9899 -0.4882
C14 C 1.5812(8) 1.1143(8) -0.3953(4)
H10 H 1.4827 1.1894 -0.4224
C15 C 1.5809(8) 1.1234(7) -0.3161(3)
C16 C 1.7319(8) 1.0130(8) -0.2770(3)
H11 H 1.7348 1.0193 -0.2238
C17 C 1.8757(8) 0.8959(8) -0.3165(3)
H12 H 1.9758 0.8231 -0.2899
C18 C 1.4198(8) 1.2456(7) -0.2703(3)
H13 H 1.4650 1.3011 -0.2391
H14 H 1.3456 1.3363 -0.3082
C19 C 1.1345(8) 0.9992(7) -0.1811(3)
H15 H 1.0660 0.9301 -0.1827
C20 C 1.2546(8) 1.1392(7) -0.1366(3)
H16 H 1.2922 1.1903 -0.1035
Cl1 Cl 0.8239(2) 0.8253(2) -0.05513(9)
O1 O 2.0200(5) 0.7320(5) -0.5101(2)
Cu1_2 Cu 2.0000 1.0000 -1.0000
Cu1_3 Cu 0.0000 1.0000 1.0000
N1A N -0.2689(7) 1.4644(6) 0.4635(3)
N2A N -0.1700(7) 1.3604(7) 0.4040(3)
N3A N 0.6960(6) 0.8502(5) 0.2153(3)
N4A N 0.7714(6) 0.9411(6) 0.2451(3)
N5A N 0.8563(6) 0.9546(5) 0.1113(2)
N6A N -0.3448(6) 1.4749(6) 0.8980(3)
N7A N -0.4720(7) 1.3908(6) 0.9180(3)
N8A N -0.2098(6) 1.2281(6) 0.9708(3)
N8_2 N 1.2098(6) 0.7719(6) 0.0292(3)
N8A_2 N 0.7902(6) 1.2281(6) -0.0292(3)
C1A C -0.1783(7) 1.4051(7) 0.5237(3)
C2A C -0.2242(8) 1.4641(7) 0.6018(3)
C3A C -0.3945(8) 1.5877(8) 0.6202(3)
H1A H -0.4773 1.6357 0.5825
C4A C -0.4415(8) 1.6399(7) 0.6952(3)
H2A H -0.5571 1.7213 0.7078
C5A C -0.3216(8) 1.5742(7) 0.7506(3)
C6A C -0.1484(9) 1.4522(8) 0.7318(4)
H3A H -0.0641 1.4078 0.7688
C7A C -0.1025(9) 1.3973(8) 0.6576(4)
H4A H 0.0122 1.3142 0.6455
C8A C -0.3716(9) 1.6284(7) 0.8333(3)
H5A H -0.4997 1.7042 0.8396
H6A H -0.2950 1.6937 0.8374
C9A C -0.1925(8) 1.3765(7) 0.9296(3)
H7A H -0.0877 1.4076 0.9237
C10A C -0.3855(8) 1.2460(8) 0.9629(4)
H8A H -0.4395 1.1615 0.9876
C11A C -0.0266(8) 1.2489(7) 0.4339(3)
C12A C 0.1249(7) 1.1165(7) 0.3958(3)
C13A C 0.2740(8) 1.0047(8) 0.4348(3)
H9A H 0.2762 1.0101 0.4882
C14A C 0.4188(8) 0.8857(8) 0.3953(4)
H10A H 0.5173 0.8106 0.4224
C15A C 0.4191(8) 0.8766(7) 0.3161(3)
C16A C 0.2681(8) 0.9870(8) 0.2770(3)
H11A H 0.2652 0.9807 0.2238
C17A C 0.1243(8) 1.1041(8) 0.3165(3)
H12A H 0.0242 1.1769 0.2899
C18A C 0.5802(8) 0.7544(7) 0.2703(3)
H13A H 0.5350 0.6989 0.2391
H14A H 0.6544 0.6637 0.3082
C19A C 0.8655(8) 1.0008(7) 0.1811(3)
H15A H 0.9340 1.0699 0.1827
C20A C 0.7454(8) 0.8608(7) 0.1366(3)
H16A H 0.7078 0.8097 0.1035
Cl1A Cl 1.1761(2) 1.1747(2) 0.05513(9)
O1A O -0.0200(5) 1.2680(5) 0.5101(2)
O2 O 0.1552(7) 0.5499(6) 0.8569(3)
H17 H 0.2556 0.5450 0.8703
H18 H 0.0595 0.6327 0.8715
loop_
_geom_bond_atom_site_label_1
_geom_bond_atom_site_label_2
_geom_bond_site_symmetry_1
_geom_bond_site_symmetry_2
Cu1 N5 1_555 1_555
N1 N2 1_555 1_555
N2 C11 1_555 1_555
N3 N4 1_555 1_555
N4 C19 1_555 1_555
N5 C19 1_555 1_555
N6 N7 1_555 1_555
N7 C10 1_555 1_555
N8 C9 1_555 1_555
C1 N1 1_555 1_555
C2 C1 1_555 1_555
C3 C2 1_555 1_555
H1 C3 1_555 1_555
C4 C3 1_555 1_555
H2 C4 1_555 1_555
C5 C4 1_555 1_555
C6 C5 1_555 1_555
H3 C6 1_555 1_555
C7 C2 1_555 1_555
H4 C7 1_555 1_555
C8 N6 1_555 1_555
H5 C8 1_555 1_555
H6 C8 1_555 1_555
C9 N6 1_555 1_555
H7 C9 1_555 1_555
C10 N8 1_555 1_555
H8 C10 1_555 1_555
C11 C12 1_555 1_555
C12 C13 1_555 1_555
C13 H9 1_555 1_555
C14 C13 1_555 1_555
H10 C14 1_555 1_555
C15 C14 1_555 1_555
C16 C15 1_555 1_555
H11 C16 1_555 1_555
C17 C12 1_555 1_555
H12 C17 1_555 1_555
C18 N3 1_555 1_555
H13 C18 1_555 1_555
H14 C18 1_555 1_555
C19 H15 1_555 1_555
C20 N3 1_555 1_555
H16 C20 1_555 1_555
Cl1 Cu1 1_555 1_555
O1 C1 1_555 1_555
O2 H17 1_555 1_555
H18 O2 1_555 1_555
Cu1_2 N8 1_555 1_555
Cu1_3 N8A 1_555 1_555
N1A N2A 1_555 1_555
N2A C11A 1_555 1_555
N3A N4A 1_555 1_555
N4A C19A 1_555 1_555
N5A Cu1 1_555 1_555
N6A N7A 1_555 1_555
N7A C10A 1_555 1_555
N8A C9A 1_555 1_555
N8_2 Cu1 1_555 1_555
N8A_2 Cu1 1_555 1_555
C1A N1A 1_555 1_555
C2A C1A 1_555 1_555
C3A C2A 1_555 1_555
H1A C3A 1_555 1_555
C4A C3A 1_555 1_555
H2A C4A 1_555 1_555
C5A C4A 1_555 1_555
C6A C5A 1_555 1_555
H3A C6A 1_555 1_555
C7A C2A 1_555 1_555
H4A C7A 1_555 1_555
C8A N6A 1_555 1_555
H5A C8A 1_555 1_555
H6A C8A 1_555 1_555
C9A N6A 1_555 1_555
H7A C9A 1_555 1_555
C10A N8A 1_555 1_555
H8A C10A 1_555 1_555
C11A C12A 1_555 1_555
C12A C13A 1_555 1_555
C13A H9A 1_555 1_555
C14A C13A 1_555 1_555
H10A C14A 1_555 1_555
C15A C14A 1_555 1_555
C16A C15A 1_555 1_555
H11A C16A 1_555 1_555
C17A C12A 1_555 1_555
H12A C17A 1_555 1_555
C18A N3A 1_555 1_555
H13A C18A 1_555 1_555
H14A C18A 1_555 1_555
C19A N5A 1_555 1_555
H15A C19A 1_555 1_555
C20A N3A 1_555 1_555
H16A C20A 1_555 1_555
Cl1A Cu1 1_555 1_555
O1A C1A 1_555 1_555
N5 C20 1_555 1_555
C5 C8 1_555 1_555
C6 C7 1_555 1_555
C11 O1 1_555 1_555
C15 C18 1_555 1_555
C16 C17 1_555 1_555
N5A C20A 1_555 1_555
C5A C8A 1_555 1_555
C6A C7A 1_555 1_555
C11A O1A 1_555 1_555
C15A C18A 1_555 1_555
C16A C17A 1_555 1_555

#END
