
#######################################################################
#
#                 Cambridge Crystallographic Data Centre
#                                CCDC 
#
#######################################################################
#
# If this CIF has been generated from an entry in the Cambridge 
# Structural Database, then it will include bibliographic, chemical, 
# crystal, experimental, refinement or atomic coordinate data resulting 
# from the CCDC's data processing and validation procedures.
#
#######################################################################

data_ODIWAB
_symmetry_cell_setting           monoclinic
_symmetry_space_group_name_H-M   'P c'
_symmetry_Int_Tables_number      7
_space_group_name_Hall           'P -2yc'
loop_
_symmetry_equiv_pos_site_id
_symmetry_equiv_pos_as_xyz
1 x,y,z
2 x,-y,1/2+z
_cell_length_a                   8.230(4)
_cell_length_b                   21.274(10)
_cell_length_c                   14.195(7)
_cell_angle_alpha                90
_cell_angle_beta                 105.466(6)
_cell_angle_gamma                90
_cell_volume                     2395.34
loop_
_atom_site_label
_atom_site_type_symbol
_atom_site_fract_x
_atom_site_fract_y
_atom_site_fract_z
Zn1 Zn 0.3160(2) 0.16525(8) 0.43011(11)
Zn2 Zn 0.3824(2) 0.33110(8) 0.40427(11)
Zn3 Zn 0.0991(2) 0.22434(9) -0.00359(11)
Zn4 Zn 0.64556(19) 0.27239(8) 0.82811(11)
C1 C 0.2364(19) 0.1841(8) 0.2137(12)
C2 C 0.229(2) 0.2837(8) 0.2009(12)
C3 C 0.496(2) 0.2131(8) 0.6276(13)
C4 C 0.461(2) 0.3121(8) 0.6206(11)
C5 C 0.462(2) 0.0411(7) 0.4281(12)
C6 C 0.5744(19) -0.0087(7) 0.4830(12)
C7 C 0.585(2) -0.0667(7) 0.4430(12)
H1 H 0.5188 -0.0769 0.3809
C8 C 0.701(2) -0.1110(7) 0.5008(11)
C9 C 0.721(2) -0.1757(8) 0.4596(14)
C10 C 0.7974(19) -0.0968(8) 0.5919(13)
H2 H 0.8743 -0.1262 0.6266
C11 C 0.7818(19) -0.0388(7) 0.6340(12)
C12 C 0.670(2) 0.0037(8) 0.5803(13)
H3 H 0.6567 0.0421 0.6085
C13 C 0.879(2) -0.0233(7) 0.7388(12)
C14 C 0.9216(19) -0.0712(7) 0.8086(12)
H4 H 0.9024 -0.1130 0.7901
C15 C 0.9914(19) -0.0557(7) 0.9038(12)
C16 C 1.031(2) -0.1071(8) 0.9805(14)
C17 C 1.032(2) 0.0057(7) 0.9320(12)
H5 H 1.0818 0.0151 0.9973
C18 C 0.999(2) 0.0525(7) 0.8647(11)
C19 C 1.039(2) 0.1198(7) 0.8918(12)
C20 C 0.921(2) 0.0379(7) 0.7658(11)
H6 H 0.8986 0.0697 0.7191
C21 C 0.641(2) 0.4051(8) 0.3579(13)
C22 C 0.6714(19) 0.4560(7) 0.4343(11)
C23 C 0.629(2) 0.5189(7) 0.4088(12)
H7 H 0.5810 0.5305 0.3442
C24 C 0.661(2) 0.5632(7) 0.4836(11)
C25 C 0.5980(19) 0.6307(7) 0.4563(12)
C26 C 0.735(2) 0.5483(8) 0.5764(12)
H8 H 0.7476 0.5790 0.6244
C27 C 0.796(2) 0.4869(8) 0.6032(12)
C28 C 0.755(2) 0.4416(8) 0.5280(12)
H9 H 0.7870 0.4001 0.5431
C29 C 0.8955(19) 0.4697(7) 0.7024(11)
C30 C 1.0077(19) 0.5140(7) 0.7590(11)
H10 H 1.0194 0.5532 0.7325
C31 C 1.100(2) 0.5003(7) 0.8523(12)
C32 C 1.223(2) 0.5504(9) 0.9100(14)
C33 C 1.0957(19) 0.4412(7) 0.8917(12)
H11 H 1.1651 0.4317 0.9533
C34 C 0.9869(19) 0.3961(7) 0.8384(13)
C35 C 0.9777(19) 0.3309(7) 0.8740(11)
C36 C 0.888(2) 0.4106(7) 0.7437(11)
H12 H 0.8170 0.3802 0.7078
N1 N 0.2855(16) 0.2058(6) 0.3012(10)
N2 N 0.2811(16) 0.2709(6) 0.2921(10)
N3 N 0.1949(16) 0.2306(6) 0.1467(9)
N4 N 0.2243(18) 0.1227(6) 0.1891(10)
H13 H 0.2506 0.0944 0.2339
H14 H 0.1903 0.1118 0.1287
N5 N 0.217(2) 0.3421(7) 0.1647(11)
H15 H 0.2441 0.3737 0.2035
H16 H 0.1811 0.3481 0.1026
N6 N 0.4274(16) 0.2245(6) 0.5347(9)
N7 N 0.4043(16) 0.2914(6) 0.5304(9)
N8 N 0.5244(18) 0.2649(6) 0.6882(10)
N9 N 0.548(2) 0.1548(7) 0.6719(11)
H17 H 0.5361 0.1213 0.6370
H18 H 0.5919 0.1527 0.7340
N10 N 0.466(2) 0.3733(6) 0.6488(11)
H19 H 0.4292 0.4022 0.6060
H20 H 0.5052 0.3831 0.7094
O1 O 0.4480(16) 0.0908(5) 0.4764(9)
O2 O 0.3879(18) 0.0327(6) 0.3418(9)
O3 O 0.6034(13) -0.1914(5) 0.3812(8)
O4 O 0.8312(12) -0.2119(5) 0.5023(8)
O5 O 1.0896(15) -0.1605(5) 0.9571(9)
O6 O 1.0046(17) -0.0985(6) 1.0606(9)
O7 O 1.1125(15) 0.1324(5) 0.9807(8)
O8 O 0.988(2) 0.1631(5) 0.8312(10)
O9 O 0.6072(14) 0.3498(5) 0.3867(9)
O10 O 0.6435(19) 0.4172(6) 0.2736(8)
O11 O 0.5799(15) 0.6461(5) 0.3685(8)
O12 O 0.5816(16) 0.6666(5) 0.5222(8)
O13 O 1.2366(17) 0.5982(6) 0.8589(9)
O14 O 1.2959(18) 0.5419(6) 0.9966(10)
O15 O 1.0628(15) 0.3154(5) 0.9564(8)
O16 O 0.8715(15) 0.2940(5) 0.8164(9)
O17 O 0.3300(16) 0.2376(5) -0.0413(10)
H21 H 0.3842 0.2121 -0.0676
H22 H 0.3767 0.2735 -0.0390
Zn1A Zn 1.3160(2) -0.16525(8) 0.93011(11)
Zn2A Zn 1.3824(2) 0.66890(8) 0.90427(11)
Zn3_2 Zn 1.0991(2) 0.22434(9) 0.99641(11)
Zn3A Zn 1.0991(2) -0.22434(9) 0.49641(11)
Zn4A Zn 0.64556(19) -0.27239(8) 0.32811(11)
Zn4A_2 Zn 0.64556(19) 0.72761(8) 0.32811(11)
O3A O 0.6034(13) 0.1914(5) 0.8812(8)
O4A O -0.1688(12) 0.2119(5) 0.0023(8)
O5A O 0.0896(15) 0.1605(5) 0.4571(9)
O7_2 O 0.1125(15) 0.1324(5) -0.0193(8)
O11A O 0.5799(15) 0.3539(5) 0.8685(8)
O13A O 0.2366(17) 0.4018(6) 0.3589(9)
O15_2 O 0.0628(15) 0.3154(5) -0.0436(8)
C37 C 0.885(3) 0.2937(12) 0.267(2)
H23 H 0.9016 0.3015 0.3360
H24 H 0.9375 0.3266 0.2396
H25 H 0.9356 0.2541 0.2589
C38 C 0.626(3) 0.2293(9) 0.2016(18)
H26 H 0.6723 0.2071 0.1558
H27 H 0.5060 0.2322 0.1765
H28 H 0.6530 0.2071 0.2627
N11 N 0.6973(19) 0.2917(7) 0.2166(11)
H29 H 0.6379 0.3156 0.2552
H30 H 0.6782 0.3123 0.1536
C39 C 1.1278(19) 0.2447(11) 0.6760(16)
H31 H 1.1874 0.2402 0.6268
H32 H 1.1964 0.2292 0.7372
H33 H 1.1027 0.2883 0.6827
C40 C 0.857(3) 0.2458(11) 0.5791(16)
H34 H 0.8504 0.2873 0.6045
H35 H 0.7481 0.2261 0.5661
H36 H 0.8911 0.2484 0.5197
N12 N 0.9753(17) 0.2099(6) 0.6485(10)
H37 H 0.9942 0.1699 0.6204
H38 H 0.9339 0.2018 0.7052
O18 O 0.314(3) 0.0523(14) 0.689(2)
O19 O 0.339(3) 0.5259(8) 0.6640(14)
H39 H 0.3837 0.5569 0.6426
H40 H 0.3371 0.5344 0.7222
loop_
_geom_bond_atom_site_label_1
_geom_bond_atom_site_label_2
_geom_bond_site_symmetry_1
_geom_bond_site_symmetry_2
Zn1 N1 1_555 1_555
Zn2 N2 1_555 1_555
Zn3 N3 1_555 1_555
Zn4 N8 1_555 1_555
C1 N1 1_555 1_555
C2 N2 1_555 1_555
C3 N6 1_555 1_555
C4 N7 1_555 1_555
C5 C6 1_555 1_555
C6 C7 1_555 1_555
C7 H1 1_555 1_555
C8 C7 1_555 1_555
C9 C8 1_555 1_555
C10 C8 1_555 1_555
H2 C10 1_555 1_555
C11 C10 1_555 1_555
C12 C6 1_555 1_555
H3 C12 1_555 1_555
C13 C11 1_555 1_555
C14 C13 1_555 1_555
H4 C14 1_555 1_555
C15 C14 1_555 1_555
C16 C15 1_555 1_555
C17 C15 1_555 1_555
H5 C17 1_555 1_555
C18 C17 1_555 1_555
C19 C18 1_555 1_555
C20 C13 1_555 1_555
H6 C20 1_555 1_555
C21 C22 1_555 1_555
C22 C23 1_555 1_555
C23 H7 1_555 1_555
C24 C23 1_555 1_555
C25 C24 1_555 1_555
C26 C24 1_555 1_555
H8 C26 1_555 1_555
C27 C26 1_555 1_555
C28 C22 1_555 1_555
H9 C28 1_555 1_555
C29 C27 1_555 1_555
C30 C29 1_555 1_555
H10 C30 1_555 1_555
C31 C30 1_555 1_555
C32 C31 1_555 1_555
C33 C31 1_555 1_555
H11 C33 1_555 1_555
C34 C33 1_555 1_555
C35 C34 1_555 1_555
C36 C29 1_555 1_555
H12 C36 1_555 1_555
N1 N2 1_555 1_555
N3 C1 1_555 1_555
N4 C1 1_555 1_555
H13 N4 1_555 1_555
H14 N4 1_555 1_555
N5 C2 1_555 1_555
H15 N5 1_555 1_555
H16 N5 1_555 1_555
N6 Zn1 1_555 1_555
N7 Zn2 1_555 1_555
N8 C3 1_555 1_555
N9 C3 1_555 1_555
H17 N9 1_555 1_555
H18 N9 1_555 1_555
N10 C4 1_555 1_555
H19 N10 1_555 1_555
H20 N10 1_555 1_555
O1 Zn1 1_555 1_555
O2 C5 1_555 1_555
O3 C9 1_555 1_555
O4 C9 1_555 1_555
O5 C16 1_555 1_555
O6 C16 1_555 1_555
O7 C19 1_555 1_555
O8 C19 1_555 1_555
O9 Zn2 1_555 1_555
O10 C21 1_555 1_555
O11 C25 1_555 1_555
O12 C25 1_555 1_555
O13 C32 1_555 1_555
O14 C32 1_555 1_555
O15 C35 1_555 1_555
O16 Zn4 1_555 1_555
O17 Zn3 1_555 1_555
H21 O17 1_555 1_555
H22 O17 1_555 1_555
C37 H23 1_555 1_555
H24 C37 1_555 1_555
H25 C37 1_555 1_555
C38 H26 1_555 1_555
H27 C38 1_555 1_555
H28 C38 1_555 1_555
N11 C37 1_555 1_555
H29 N11 1_555 1_555
H30 N11 1_555 1_555
C39 H31 1_555 1_555
H32 C39 1_555 1_555
H33 C39 1_555 1_555
C40 H34 1_555 1_555
H35 C40 1_555 1_555
H36 C40 1_555 1_555
N12 C39 1_555 1_555
H37 N12 1_555 1_555
H38 N12 1_555 1_555
O19 H39 1_555 1_555
H40 O19 1_555 1_555
Zn1A O5 1_555 1_555
Zn2A O13 1_555 1_555
Zn3_2 O7 1_555 1_555
Zn3A O4 1_555 1_555
Zn4A O3 1_555 1_555
Zn4A_2 O11 1_555 1_555
O3A Zn4 1_555 1_555
O4A Zn3 1_555 1_555
O5A Zn1 1_555 1_555
O7_2 Zn3 1_555 1_555
O11A Zn4 1_555 1_555
O13A Zn2 1_555 1_555
O15_2 Zn3 1_555 1_555
C2 N3 1_555 1_555
C4 N8 1_555 1_555
C5 O1 1_555 1_555
C11 C12 1_555 1_555
C18 C20 1_555 1_555
C21 O9 1_555 1_555
C27 C28 1_555 1_555
C34 C36 1_555 1_555
C35 O16 1_555 1_555
N6 N7 1_555 1_555
O15 Zn3_2 1_555 1_555
C38 N11 1_555 1_555
C40 N12 1_555 1_555

#END
