
#######################################################################
#
#                 Cambridge Crystallographic Data Centre
#                                CCDC 
#
#######################################################################
#
# If this CIF has been generated from an entry in the Cambridge 
# Structural Database, then it will include bibliographic, chemical, 
# crystal, experimental, refinement or atomic coordinate data resulting 
# from the CCDC's data processing and validation procedures.
#
#######################################################################

data_ODIXUW
_symmetry_cell_setting           triclinic
_symmetry_space_group_name_H-M   'P -1'
_symmetry_Int_Tables_number      2
_space_group_name_Hall           '-P 1'
loop_
_symmetry_equiv_pos_site_id
_symmetry_equiv_pos_as_xyz
1 x,y,z
2 -x,-y,-z
_cell_length_a                   10.2669(12)
_cell_length_b                   10.7531(14)
_cell_length_c                   11.8781(15)
_cell_angle_alpha                106.838(2)
_cell_angle_beta                 90.109(2)
_cell_angle_gamma                101.790(2)
_cell_volume                     1226.04
loop_
_atom_site_label
_atom_site_type_symbol
_atom_site_fract_x
_atom_site_fract_y
_atom_site_fract_z
Cu1 Cu 0.70566(6) -0.59825(6) 0.20512(6)
Cu2 Cu -0.08205(6) 0.51179(6) 0.39695(6)
Cu3 Cu -0.16520(6) 0.24332(6) 0.26328(6)
I1 I 0.57536(3) -0.83335(3) 0.18675(3)
I2 I -0.15161(3) 0.32088(3) 0.49799(3)
I3 I -0.03830(3) 0.43905(3) 0.16775(3)
C1 C 0.3829(5) -0.5356(6) 0.2242(5)
H1 H 0.3171 -0.5934 0.1610
H2 H 0.3391 -0.4754 0.2824
H3 H 0.4217 -0.5903 0.2624
C2 C 0.4899(5) -0.4565(5) 0.1736(5)
C3 C 0.6780(5) -0.3754(5) 0.1119(5)
H4 H 0.7695 -0.3603 0.0959
C4 C 0.5891(5) -0.3117(5) 0.0833(5)
H5 H 0.6055 -0.2443 0.0449
C5 C 0.3420(5) -0.3240(5) 0.1116(5)
H6 H 0.2668 -0.3996 0.1079
H7 H 0.3364 -0.2993 0.0380
C6 C 0.3304(5) -0.2052(5) 0.2175(5)
H8 H 0.3421 -0.2286 0.2910
H9 H 0.4033 -0.1287 0.2183
C7 C 0.1980(5) -0.1639(5) 0.2156(5)
H10 H 0.1878 -0.1039 0.2944
H11 H 0.1252 -0.2440 0.2004
C8 C 0.1832(5) -0.0939(5) 0.1237(5)
H12 H 0.2605 -0.0188 0.1334
H13 H 0.1830 -0.1568 0.0441
C9 C 0.1487(5) 0.1773(5) 0.2814(5)
H14 H 0.2134 0.2146 0.2330
H15 H 0.1935 0.1373 0.3304
H16 H 0.1100 0.2482 0.3322
C10 C 0.0418(5) 0.0746(5) 0.2042(4)
C11 C -0.0607(5) -0.1123(5) 0.0719(5)
H17 H -0.0787 -0.1981 0.0159
C12 C -0.1481(5) -0.0305(5) 0.1089(4)
H18 H -0.2394 -0.0506 0.0820
C13 C -0.1111(5) 0.8161(5) 0.3590(5)
H19 H -0.1492 0.8451 0.2978
H20 H -0.0483 0.7602 0.3245
H21 H -0.0640 0.8941 0.4215
C14 C -0.2194(5) 0.7386(5) 0.4092(4)
C15 C -0.3386(5) 0.5904(5) 0.4789(5)
H22 H -0.3661 0.5122 0.5022
C16 C -0.4091(5) 0.6850(5) 0.4899(5)
H23 H -0.4941 0.6862 0.5212
C17 C -0.3668(5) 0.9037(5) 0.4337(5)
H24 H -0.3904 0.8916 0.3498
H25 H -0.2887 0.9788 0.4600
C18 C -0.4832(5) 0.9363(5) 0.5064(5)
H26 H -0.5618 0.8619 0.4796
H27 H -0.4601 0.9479 0.5904
N1 N 0.6169(4) -0.4665(4) 0.1685(4)
N2 N 0.4686(4) -0.3649(4) 0.1212(4)
N3 N -0.0829(4) 0.0866(4) 0.1918(4)
N4 N 0.0598(4) -0.0435(4) 0.1333(4)
N5 N -0.2202(4) 0.6234(4) 0.4288(4)
N6 N -0.3318(4) 0.7817(4) 0.4457(4)
C13A C -0.8889(5) 1.1839(5) 0.6410(5)
H19A H -0.8508 1.1549 0.7022
H20A H -0.9517 1.2398 0.6755
H21A H -0.9360 1.1059 0.5785
C14A C -0.7806(5) 1.2614(5) 0.5908(4)
C15A C -0.6614(5) 1.4096(5) 0.5211(5)
H22A H -0.6339 1.4878 0.4978
C16A C -0.5909(5) 1.3150(5) 0.5101(5)
H23A H -0.5059 1.3138 0.4788
C17A C -0.6332(5) 1.0963(5) 0.5663(5)
H24A H -0.6096 1.1084 0.6502
H25A H -0.7113 1.0212 0.5400
C18A C -0.5168(5) 1.0637(5) 0.4936(5)
H26A H -0.4382 1.1381 0.5204
H27A H -0.5399 1.0521 0.4096
N5A N -0.7798(4) 1.3766(4) 0.5712(4)
N6A N -0.6682(4) 1.2183(4) 0.5543(4)
Cu1A Cu -1.70566(6) 2.59825(6) 0.79488(6)
Cu2A Cu -0.91795(6) 1.48821(6) 0.60305(6)
Cu3A Cu -0.83480(6) 1.75668(6) 0.73672(6)
I1A I -1.57536(3) 2.83335(3) 0.81325(3)
I2A I -0.84839(3) 1.67912(3) 0.50201(3)
I3A I -0.96170(3) 1.56095(3) 0.83225(3)
C1A C -1.3829(5) 2.5356(6) 0.7758(5)
H1A H -1.3171 2.5934 0.8390
H2A H -1.3391 2.4754 0.7176
H3A H -1.4217 2.5903 0.7376
C2A C -1.4899(5) 2.4565(5) 0.8264(5)
C3A C -1.6780(5) 2.3754(5) 0.8881(5)
H4A H -1.7695 2.3603 0.9041
C4A C -1.5891(5) 2.3117(5) 0.9167(5)
H5A H -1.6055 2.2443 0.9551
C5A C -1.3420(5) 2.3240(5) 0.8884(5)
H6A H -1.2668 2.3996 0.8921
H7A H -1.3364 2.2993 0.9620
C6A C -1.3304(5) 2.2052(5) 0.7825(5)
H8A H -1.3421 2.2286 0.7090
H9A H -1.4033 2.1287 0.7817
C7A C -1.1980(5) 2.1639(5) 0.7844(5)
H10A H -1.1878 2.1039 0.7056
H11A H -1.1252 2.2440 0.7996
C8A C -1.1832(5) 2.0939(5) 0.8763(5)
H12A H -1.2605 2.0188 0.8666
H13A H -1.1830 2.1568 0.9559
C9A C -1.1487(5) 1.8227(5) 0.7186(5)
H14A H -1.2134 1.7854 0.7670
H15A H -1.1935 1.8627 0.6696
H16A H -1.1100 1.7518 0.6678
C10A C -1.0418(5) 1.9254(5) 0.7958(4)
C11A C -0.9393(5) 2.1123(5) 0.9281(5)
H17A H -0.9213 2.1981 0.9841
C12A C -0.8519(5) 2.0305(5) 0.8911(4)
H18A H -0.7606 2.0506 0.9180
N1A N -1.6169(4) 2.4665(4) 0.8315(4)
N2A N -1.4686(4) 2.3649(4) 0.8788(4)
N3A N -0.9171(4) 1.9134(4) 0.8082(4)
N4A N -1.0598(4) 2.0435(4) 0.8667(4)
Cu1_2 Cu -0.29434(6) 0.40175(6) 0.20512(6)
Cu1A_2 Cu -0.70566(6) 1.59825(6) 0.79488(6)
Cu2_2 Cu -1.08205(6) 1.51179(6) 0.39695(6)
Cu2A_2 Cu 0.08205(6) 0.48821(6) 0.60305(6)
Cu3_2 Cu 0.83480(6) -0.75668(6) 0.26328(6)
Cu3A_2 Cu -1.83480(6) 2.75668(6) 0.73672(6)
I1_2 I -0.42464(3) 0.16665(3) 0.18675(3)
I1A_2 I -0.57536(3) 1.83335(3) 0.81325(3)
I2_2 I -1.15161(3) 1.32088(3) 0.49799(3)
I2A_2 I 0.15161(3) 0.67912(3) 0.50201(3)
I3_2 I 0.96170(3) -0.56095(3) 0.16775(3)
I3A_2 I -1.96170(3) 2.56095(3) 0.83225(3)
loop_
_geom_bond_atom_site_label_1
_geom_bond_atom_site_label_2
_geom_bond_site_symmetry_1
_geom_bond_site_symmetry_2
Cu1 I1 1_555 1_555
Cu2 I2 1_555 1_555
Cu3 I2 1_555 1_555
I1 Cu3_2 1_555 1_555
I2 Cu2A_2 1_555 1_555
I3 Cu2 1_555 1_555
C1 H1 1_555 1_555
H2 C1 1_555 1_555
H3 C1 1_555 1_555
C2 C1 1_555 1_555
C3 H4 1_555 1_555
C4 C3 1_555 1_555
H5 C4 1_555 1_555
C5 H6 1_555 1_555
H7 C5 1_555 1_555
C6 C5 1_555 1_555
H8 C6 1_555 1_555
H9 C6 1_555 1_555
C7 C6 1_555 1_555
H10 C7 1_555 1_555
H11 C7 1_555 1_555
C8 C7 1_555 1_555
H12 C8 1_555 1_555
H13 C8 1_555 1_555
C9 H14 1_555 1_555
H15 C9 1_555 1_555
H16 C9 1_555 1_555
C10 C9 1_555 1_555
C11 H17 1_555 1_555
C12 C11 1_555 1_555
H18 C12 1_555 1_555
C13 H19 1_555 1_555
H20 C13 1_555 1_555
H21 C13 1_555 1_555
C14 C13 1_555 1_555
C15 H22 1_555 1_555
C16 C15 1_555 1_555
H23 C16 1_555 1_555
C17 H24 1_555 1_555
H25 C17 1_555 1_555
C18 C17 1_555 1_555
H26 C18 1_555 1_555
H27 C18 1_555 1_555
N1 Cu1 1_555 1_555
N2 C2 1_555 1_555
N3 Cu3 1_555 1_555
N4 C8 1_555 1_555
N5 Cu2 1_555 1_555
N6 C14 1_555 1_555
C13A H19A 1_555 1_555
H20A C13A 1_555 1_555
H21A C13A 1_555 1_555
C14A C13A 1_555 1_555
C15A H22A 1_555 1_555
C16A C15A 1_555 1_555
H23A C16A 1_555 1_555
C17A H24A 1_555 1_555
H25A C17A 1_555 1_555
C18A C18 1_555 1_555
H26A C18A 1_555 1_555
H27A C18A 1_555 1_555
N5A C14A 1_555 1_555
N6A C14A 1_555 1_555
Cu1A I1A 1_555 1_555
Cu2A N5A 1_555 1_555
Cu3A I2A 1_555 1_555
I1A Cu3A_2 1_555 1_555
I2A Cu2A 1_555 1_555
I3A Cu2A 1_555 1_555
C1A H1A 1_555 1_555
H2A C1A 1_555 1_555
H3A C1A 1_555 1_555
C2A C1A 1_555 1_555
C3A H4A 1_555 1_555
C4A C3A 1_555 1_555
H5A C4A 1_555 1_555
C5A H6A 1_555 1_555
H7A C5A 1_555 1_555
C6A C5A 1_555 1_555
H8A C6A 1_555 1_555
H9A C6A 1_555 1_555
C7A C6A 1_555 1_555
H10A C7A 1_555 1_555
H11A C7A 1_555 1_555
C8A C7A 1_555 1_555
H12A C8A 1_555 1_555
H13A C8A 1_555 1_555
C9A H14A 1_555 1_555
H15A C9A 1_555 1_555
H16A C9A 1_555 1_555
C10A C9A 1_555 1_555
C11A H17A 1_555 1_555
C12A C11A 1_555 1_555
H18A C12A 1_555 1_555
N1A Cu1A 1_555 1_555
N2A C2A 1_555 1_555
N3A Cu3A 1_555 1_555
N4A C8A 1_555 1_555
Cu1_2 I3 1_555 1_555
Cu1A_2 I3A 1_555 1_555
Cu2_2 I2A 1_555 1_555
Cu2A_2 I2A_2 1_555 1_555
Cu3_2 I3_2 1_555 1_555
Cu3A_2 I3A_2 1_555 1_555
I1_2 Cu3 1_555 1_555
I1A_2 Cu3A 1_555 1_555
I2_2 Cu2A 1_555 1_555
I2A_2 Cu2 1_555 1_555
I3_2 Cu1 1_555 1_555
I3A_2 Cu1A 1_555 1_555
Cu3 I3 1_555 1_555
C2 N1 1_555 1_555
C3 N1 1_555 1_555
C4 N2 1_555 1_555
C5 N2 1_555 1_555
C10 N3 1_555 1_555
C10 N4 1_555 1_555
C11 N4 1_555 1_555
C12 N3 1_555 1_555
C14 N5 1_555 1_555
C15 N5 1_555 1_555
C16 N6 1_555 1_555
C17 N6 1_555 1_555
C15A N5A 1_555 1_555
C16A N6A 1_555 1_555
C17A C18A 1_555 1_555
C17A N6A 1_555 1_555
Cu3A I3A 1_555 1_555
C2A N1A 1_555 1_555
C3A N1A 1_555 1_555
C4A N2A 1_555 1_555
C5A N2A 1_555 1_555
C10A N3A 1_555 1_555
C10A N4A 1_555 1_555
C11A N4A 1_555 1_555
C12A N3A 1_555 1_555
Cu1_2 I1_2 1_555 1_555
Cu1A_2 I1A_2 1_555 1_555
Cu2_2 I2_2 1_555 1_555

#END
