
#######################################################################
#
#                 Cambridge Crystallographic Data Centre
#                                CCDC 
#
#######################################################################
#
# If this CIF has been generated from an entry in the Cambridge 
# Structural Database, then it will include bibliographic, chemical, 
# crystal, experimental, refinement or atomic coordinate data resulting 
# from the CCDC's data processing and validation procedures.
#
#######################################################################

data_ODIXAC
_symmetry_cell_setting           triclinic
_symmetry_space_group_name_H-M   'P -1'
_symmetry_Int_Tables_number      2
_space_group_name_Hall           '-P 1'
loop_
_symmetry_equiv_pos_site_id
_symmetry_equiv_pos_as_xyz
1 x,y,z
2 -x,-y,-z
_cell_length_a                   13.9817(19)
_cell_length_b                   14.1817(19)
_cell_length_c                   14.270(3)
_cell_angle_alpha                115.922(2)
_cell_angle_beta                 113.196(2)
_cell_angle_gamma                97.1440(10)
_cell_volume                     2183.44
loop_
_atom_site_label
_atom_site_type_symbol
_atom_site_fract_x
_atom_site_fract_y
_atom_site_fract_z
Cd1 Cd 0.504891(17) 0.384270(17) 0.185287(18)
Cd2 Cd 0.5000 0.5000 0.0000
Si1 Si 0.76388(6) 0.14398(7) -0.32130(7)
O1 O 0.57825(17) 0.39172(17) 0.06922(18)
O2 O 0.5167(2) 0.21903(19) 0.0284(2)
O3 O 0.5650(2) -0.43483(19) -0.6786(2)
O4 O 1.32815(19) 0.4030(2) -0.0464(2)
C1 C 0.7069(2) 0.1802(2) -0.2163(3)
C2 C 0.9205(2) 0.2009(3) -0.2312(3)
O5 O 0.64816(19) 0.3521(2) -0.6918(2)
C3 C 0.5864(3) 0.3199(3) -0.6583(3)
O6 O 1.32623(18) 0.3209(2) 0.0571(2)
C4 C 0.6182(2) 0.2500(3) -0.0625(3)
C5 C 0.7173(2) 0.2116(2) -0.4098(3)
O7 O 0.48809(18) 0.3184(2) -0.6958(2)
C6 C 0.6196(2) -0.2419(3) -0.6116(3)
C7 C 0.5666(2) 0.2872(3) 0.0156(3)
C8 C 0.6760(3) -0.2057(3) -0.4900(3)
H1 H 0.6844 -0.2590 -0.4669
C9 C 0.7202(2) -0.0916(3) -0.4023(3)
H2 H 0.7592 -0.0678 -0.3197
C10 C 0.5951(3) 0.1362(3) -0.1368(3)
H3 H 0.5501 0.0821 -0.1347
C11 C 0.7082(2) -0.0111(2) -0.4336(3)
C12 C 1.0945(3) 0.3570(3) -0.1230(3)
H4 H 1.1321 0.4313 -0.0983
C13 C 0.6111(3) 0.2191(3) -0.4471(3)
H5 H 0.5669 0.1998 -0.4174
C14 C 1.0989(3) 0.1850(3) -0.1320(3)
H6 H 1.1395 0.1421 -0.1102
C15 C 0.6379(3) 0.1017(3) -0.2144(3)
H7 H 0.6198 0.0238 -0.2667
O8 O 0.5386(2) -0.3862(2) -0.8136(2)
C16 C 0.7391(3) 0.2779(3) -0.5336(3)
H8 H 0.7837 0.2987 -0.5622
C17 C 1.2813(2) 0.3440(3) -0.0217(3)
C18 C 0.6082(3) -0.1634(3) -0.6442(3)
H9 H 0.5706 -0.1875 -0.7270
C19 C 0.5700(3) -0.3645(3) -0.7094(3)
C20 C 1.1556(2) 0.2940(3) -0.0938(3)
C21 C 0.6514(3) -0.0499(3) -0.5567(3)
H10 H 0.6423 0.0027 -0.5806
C22 C 0.9832(3) 0.1382(3) -0.2022(3)
H11 H 0.9461 0.0624 -0.2309
C23 C 0.6326(3) 0.2831(3) -0.5713(3)
C24 C 0.5694(3) 0.2542(3) -0.5267(3)
H12 H 0.4972 0.2586 -0.5509
C25 C 0.6869(3) 0.3292(3) -0.0627(3)
H13 H 0.7034 0.4069 -0.0115
C26 C 0.7315(3) 0.2945(3) -0.1381(3)
H14 H 0.7797 0.3493 -0.1366
C27 C 0.7801(3) 0.2423(3) -0.4545(3)
H15 H 0.8526 0.2387 -0.4299
C28 C 0.9791(3) 0.3117(3) -0.1880(3)
H16 H 0.9386 0.3571 -0.2037
Cd1A Cd 0.495109(17) -0.384270(17) -1.185287(18)
Si1A Si 0.23612(6) -0.14398(7) -0.67870(7)
O1A O 0.42175(17) -0.39172(17) -1.06922(18)
O2A O 0.4833(2) -0.21903(19) -1.0284(2)
O3A O 0.4350(2) 0.43483(19) -0.3214(2)
O4A O -0.32815(19) -0.4030(2) -0.9536(2)
C1A C 0.2931(2) -0.1802(2) -0.7837(3)
C2A C 0.0795(2) -0.2009(3) -0.7688(3)
O5A O 0.35184(19) -0.3521(2) -0.3082(2)
C3A C 0.4136(3) -0.3199(3) -0.3417(3)
O6A O -0.32623(18) -0.3209(2) -1.0571(2)
C4A C 0.3818(2) -0.2500(3) -0.9375(3)
C5A C 0.2827(2) -0.2116(2) -0.5902(3)
O7A O 0.51191(18) -0.3184(2) -0.3042(2)
C6A C 0.3804(2) 0.2419(3) -0.3884(3)
C7A C 0.4334(2) -0.2872(3) -1.0156(3)
C8A C 0.3240(3) 0.2057(3) -0.5100(3)
H1A H 0.3156 0.2590 -0.5331
C9A C 0.2798(2) 0.0916(3) -0.5977(3)
H2A H 0.2408 0.0678 -0.6803
C10A C 0.4049(3) -0.1362(3) -0.8632(3)
H3A H 0.4499 -0.0821 -0.8653
C11A C 0.2918(2) 0.0111(2) -0.5664(3)
C12A C -0.0945(3) -0.3570(3) -0.8770(3)
H4A H -0.1321 -0.4313 -0.9017
C13A C 0.3889(3) -0.2191(3) -0.5529(3)
H5A H 0.4331 -0.1998 -0.5826
C14A C -0.0989(3) -0.1850(3) -0.8680(3)
H6A H -0.1395 -0.1421 -0.8898
C15A C 0.3621(3) -0.1017(3) -0.7856(3)
H7A H 0.3802 -0.0238 -0.7333
O8A O 0.4614(2) 0.3862(2) -0.1864(2)
C16A C 0.2609(3) -0.2779(3) -0.4664(3)
H8A H 0.2163 -0.2987 -0.4378
C17A C -0.2813(2) -0.3440(3) -0.9783(3)
C18A C 0.3918(3) 0.1634(3) -0.3558(3)
H9A H 0.4294 0.1875 -0.2730
C19A C 0.4300(3) 0.3645(3) -0.2906(3)
C20A C -0.1556(2) -0.2940(3) -0.9062(3)
C21A C 0.3486(3) 0.0499(3) -0.4433(3)
H10A H 0.3577 -0.0027 -0.4194
C22A C 0.0168(3) -0.1382(3) -0.7978(3)
H11A H 0.0539 -0.0624 -0.7691
C23A C 0.3674(3) -0.2831(3) -0.4287(3)
C24A C 0.4306(3) -0.2542(3) -0.4733(3)
H12A H 0.5028 -0.2586 -0.4491
C25A C 0.3131(3) -0.3292(3) -0.9373(3)
H13A H 0.2966 -0.4069 -0.9885
C26A C 0.2685(3) -0.2945(3) -0.8619(3)
H14A H 0.2203 -0.3493 -0.8634
C27A C 0.2199(3) -0.2423(3) -0.5455(3)
H15A H 0.1474 -0.2387 -0.5701
C28A C 0.0209(3) -0.3117(3) -0.8120(3)
H16A H 0.0614 -0.3571 -0.7963
Cd1_2 Cd 0.504891(17) -0.615730(17) -0.814713(18)
Cd1_3 Cd 0.504891(17) 0.384270(17) -0.814713(18)
Cd1_4 Cd 1.504891(17) 0.384270(17) 0.185287(18)
Cd1A_2 Cd -0.504891(17) -0.384270(17) -1.185287(18)
Cd1A_3 Cd 0.495109(17) -0.384270(17) -0.185287(18)
Cd1A_4 Cd 0.495109(17) 0.615730(17) -0.185287(18)
Cd2_2 Cd -0.5000 -0.5000 -1.0000
Cd2_3 Cd 0.5000 -0.5000 -1.0000
Cd2_4 Cd 1.5000 0.5000 0.0000
O1A_2 O 0.42175(17) 0.60828(17) -0.06922(18)
O3_2 O 0.5650(2) 0.56517(19) 0.3214(2)
O3A_2 O 0.4350(2) -0.56517(19) -1.3214(2)
O4_2 O 0.32815(19) 0.4030(2) -0.0464(2)
O4A_2 O 0.67185(19) 0.5970(2) 0.0464(2)
O5_2 O 0.64816(19) 0.3521(2) 0.3082(2)
O5A_2 O 0.35184(19) -0.3521(2) -1.3082(2)
O6_2 O 0.32623(18) 0.3209(2) 0.0571(2)
O6A_2 O 0.67377(18) -0.3209(2) -1.0571(2)
O7_2 O 0.48809(18) 0.3184(2) 0.3042(2)
O7A_2 O 0.51191(18) -0.3184(2) -1.3042(2)
O8_2 O 0.5386(2) 0.6138(2) 0.1864(2)
Cd3 Cd 1.0000 0.5000 0.5000
O9 O 0.84655(19) 0.3737(2) 0.3196(2)
O10 O 1.0011(2) 0.6474(2) 0.4720(2)
O11 O 1.1154(2) 0.4478(2) 0.4265(2)
N1 N 1.1997(3) 0.4255(2) 0.3140(3)
C29 C 0.9289(3) 0.6787(3) 0.4210(3)
C30 C 1.1163(3) 0.4382(2) 0.3358(3)
N2 N 0.9498(3) 0.7888(3) 0.4659(3)
C31 C 1.3035(3) 0.4264(3) 0.3942(4)
H17 H 1.3012 0.4335 0.4647
H18 H 1.3654 0.4902 0.4204
H19 H 1.3143 0.3563 0.3519
C32 C 0.8189(3) 0.5941(3) 0.3121(3)
H20 H 0.8273 0.5220 0.2716
H21 H 0.7933 0.6204 0.2567
H22 H 0.7640 0.5846 0.3369
C33 C 1.0224(3) 0.4326(3) 0.2314(3)
H23 H 1.0074 0.5035 0.2579
H24 H 0.9533 0.3696 0.1940
C34 C 1.0510(4) 0.8712(3) 0.5804(4)
H25 H 1.0841 0.8341 0.6219
H26 H 1.0323 0.9301 0.6309
H27 H 1.1043 0.9049 0.5653
C35 C 0.8797(4) 0.8363(4) 0.4072(4)
H28 H 0.8130 0.7755 0.3327
H29 H 0.9214 0.8789 0.3882
H30 H 0.8575 0.8863 0.4613
C36 C 1.0647(4) 0.4144(4) 0.1441(4)
H31 H 1.0143 0.3430 0.0661
H32 H 1.0679 0.4765 0.1296
C37 C 1.1771(4) 0.4104(3) 0.1990(4)
H33 H 1.1793 0.3373 0.1469
H34 H 1.2330 0.4711 0.2109
H35 H 0.839(4) 0.2980(13) 0.269(4)
H36 H 0.7732(19) 0.355(3) 0.309(5)
O9A O 1.15345(19) 0.6263(2) 0.6804(2)
O10A O 0.9989(2) 0.3526(2) 0.5280(2)
O11A O 0.8846(2) 0.5522(2) 0.5735(2)
N1A N 0.8003(3) 0.5745(2) 0.6860(3)
C29A C 1.0711(3) 0.3213(3) 0.5790(3)
C30A C 0.8837(3) 0.5618(2) 0.6642(3)
N2A N 1.0502(3) 0.2112(3) 0.5341(3)
C31A C 0.6965(3) 0.5736(3) 0.6058(4)
H17A H 0.6988 0.5665 0.5353
H18A H 0.6346 0.5098 0.5796
H19A H 0.6857 0.6437 0.6481
C32A C 1.1811(3) 0.4059(3) 0.6879(3)
H20A H 1.1727 0.4780 0.7284
H21A H 1.2067 0.3796 0.7433
H22A H 1.2360 0.4154 0.6631
C33A C 0.9776(3) 0.5674(3) 0.7686(3)
H23A H 0.9926 0.4965 0.7421
H24A H 1.0467 0.6304 0.8060
C34A C 0.9490(4) 0.1288(3) 0.4196(4)
H25A H 0.9159 0.1659 0.3781
H26A H 0.9677 0.0699 0.3691
H27A H 0.8957 0.0951 0.4347
C35A C 1.1203(4) 0.1637(4) 0.5928(4)
H28A H 1.1870 0.2245 0.6673
H29A H 1.0786 0.1211 0.6118
H30A H 1.1425 0.1137 0.5387
C36A C 0.9353(4) 0.5856(4) 0.8559(4)
H31A H 0.9857 0.6570 0.9339
H32A H 0.9321 0.5235 0.8704
C37A C 0.8229(4) 0.5896(3) 0.8010(4)
H33A H 0.8207 0.6627 0.8531
H34A H 0.7670 0.5289 0.7891
H35A H 1.161(4) 0.7020(13) 0.731(4)
H36A H 1.2268(19) 0.645(3) 0.691(5)
O12 O 0.8724(7) 0.1920(6) 0.1700(7)
N3 N 0.7203(6) 0.0278(5) 0.0513(6)
C38 C 0.8195(7) 0.0955(7) 0.0812(7)
C39 C 0.8398(8) 0.0313(8) -0.0213(7)
H37 H 0.9106 0.0756 -0.0047
H38 H 0.7790 0.0171 -0.0963
H39 H 0.8431 -0.0403 -0.0295
C40 C 0.6660(14) 0.0600(12) 0.1177(15)
H40 H 0.7160 0.1309 0.1947
H41 H 0.6453 0.0017 0.1329
H42 H 0.5987 0.0700 0.0721
C41 C 0.6670(8) -0.0741(6) -0.0610(7)
H43 H 0.7184 -0.0861 -0.0922
H44 H 0.6009 -0.0710 -0.1176
H45 H 0.6444 -0.1360 -0.0515
O13? O 0.8567(7) 0.1768(6) 0.1849(7)
N4? N 0.7715(6) 0.0097(6) 0.0095(6)
C42? C 0.7709(8) 0.0883(8) 0.1044(8)
C43? C 0.8718(8) 0.0378(9) -0.0004(8)
H46? H 0.9276 0.1093 0.0724
H47? H 0.8508 0.0443 -0.0709
H48? H 0.9031 -0.0217 -0.0094
C44? C 0.6723(15) 0.0731(12) 0.1271(16)
H49? H 0.6890 0.1403 0.2019
H50? H 0.6610 0.0075 0.1342
H51? H 0.6046 0.0620 0.0597
C45? C 0.6799(8) -0.0934(8) -0.0901(9)
H52? H 0.6177 -0.1000 -0.0749
H53? H 0.7040 -0.1573 -0.0988
H54? H 0.6559 -0.0930 -0.1644
loop_
_geom_bond_atom_site_label_1
_geom_bond_atom_site_label_2
_geom_bond_site_symmetry_1
_geom_bond_site_symmetry_2
Cd1 O1 1_555 1_555
Cd2 O1 1_555 1_555
Si1 C1 1_555 1_555
O1 C7 1_555 1_555
O2 Cd1 1_555 1_555
O3 C19 1_555 1_555
O4 C17 1_555 1_555
C1 C15 1_555 1_555
C2 Si1 1_555 1_555
O5 C3 1_555 1_555
C3 O7 1_555 1_555
O6 C17 1_555 1_555
C4 C7 1_555 1_555
C5 Si1 1_555 1_555
O7 Cd1_3 1_555 1_555
C6 C8 1_555 1_555
C7 O2 1_555 1_555
C8 H1 1_555 1_555
C9 C8 1_555 1_555
H2 C9 1_555 1_555
C10 C4 1_555 1_555
H3 C10 1_555 1_555
C11 Si1 1_555 1_555
C12 H4 1_555 1_555
C13 C5 1_555 1_555
H5 C13 1_555 1_555
C14 H6 1_555 1_555
C15 C10 1_555 1_555
H7 C15 1_555 1_555
O8 C19 1_555 1_555
C16 H8 1_555 1_555
C17 C20 1_555 1_555
C18 C6 1_555 1_555
H9 C18 1_555 1_555
C19 C6 1_555 1_555
C20 C12 1_555 1_555
C21 C11 1_555 1_555
H10 C21 1_555 1_555
C22 C2 1_555 1_555
H11 C22 1_555 1_555
C23 C3 1_555 1_555
C24 C13 1_555 1_555
H12 C24 1_555 1_555
C25 C4 1_555 1_555
H13 C25 1_555 1_555
C26 C1 1_555 1_555
H14 C26 1_555 1_555
C27 C5 1_555 1_555
H15 C27 1_555 1_555
C28 C2 1_555 1_555
H16 C28 1_555 1_555
Cd3 O9 1_555 1_555
O9 H35 1_555 1_555
O10 Cd3 1_555 1_555
O11 Cd3 1_555 1_555
N1 C30 1_555 1_555
C29 O10 1_555 1_555
C30 O11 1_555 1_555
N2 C29 1_555 1_555
C31 N1 1_555 1_555
H17 C31 1_555 1_555
H18 C31 1_555 1_555
H19 C31 1_555 1_555
C32 C29 1_555 1_555
H20 C32 1_555 1_555
H21 C32 1_555 1_555
H22 C32 1_555 1_555
C33 C30 1_555 1_555
H23 C33 1_555 1_555
H24 C33 1_555 1_555
C34 N2 1_555 1_555
H25 C34 1_555 1_555
H26 C34 1_555 1_555
H27 C34 1_555 1_555
C35 N2 1_555 1_555
H28 C35 1_555 1_555
H29 C35 1_555 1_555
H30 C35 1_555 1_555
C36 C33 1_555 1_555
H31 C36 1_555 1_555
H32 C36 1_555 1_555
C37 N1 1_555 1_555
H33 C37 1_555 1_555
H34 C37 1_555 1_555
H36 O9 1_555 1_555
O12 C38 1_555 1_555
N3 C38 1_555 1_555
C38 C39 1_555 1_555
C39 H37 1_555 1_555
H38 C39 1_555 1_555
H39 C39 1_555 1_555
C40 N3 1_555 1_555
H40 C40 1_555 1_555
H41 C40 1_555 1_555
H42 C40 1_555 1_555
C41 N3 1_555 1_555
H43 C41 1_555 1_555
H44 C41 1_555 1_555
H45 C41 1_555 1_555
Cd1A O1A 1_555 1_555
Si1A C1A 1_555 1_555
O1A C7A 1_555 1_555
O2A Cd1A 1_555 1_555
O3A C19A 1_555 1_555
O4A C17A 1_555 1_555
C1A C15A 1_555 1_555
C2A Si1A 1_555 1_555
O5A C3A 1_555 1_555
C3A O7A 1_555 1_555
O6A C17A 1_555 1_555
C4A C7A 1_555 1_555
C5A Si1A 1_555 1_555
O7A Cd1A_3 1_555 1_555
C6A C8A 1_555 1_555
C7A O2A 1_555 1_555
C8A H1A 1_555 1_555
C9A C8A 1_555 1_555
H2A C9A 1_555 1_555
C10A C4A 1_555 1_555
H3A C10A 1_555 1_555
C11A Si1A 1_555 1_555
C12A H4A 1_555 1_555
C13A C5A 1_555 1_555
H5A C13A 1_555 1_555
C14A H6A 1_555 1_555
C15A C10A 1_555 1_555
H7A C15A 1_555 1_555
O8A Cd2 1_555 1_555
C16A H8A 1_555 1_555
C17A C20A 1_555 1_555
C18A C6A 1_555 1_555
H9A C18A 1_555 1_555
C19A C6A 1_555 1_555
C20A C12A 1_555 1_555
C21A C11A 1_555 1_555
H10A C21A 1_555 1_555
C22A C2A 1_555 1_555
H11A C22A 1_555 1_555
C23A C3A 1_555 1_555
C24A C13A 1_555 1_555
H12A C24A 1_555 1_555
C25A C4A 1_555 1_555
H13A C25A 1_555 1_555
C26A C1A 1_555 1_555
H14A C26A 1_555 1_555
C27A C5A 1_555 1_555
H15A C27A 1_555 1_555
C28A C2A 1_555 1_555
H16A C28A 1_555 1_555
Cd1_2 O3 1_555 1_555
Cd1_3 O5 1_555 1_555
Cd1_4 O6 1_555 1_555
Cd1A_2 O6A 1_555 1_555
Cd1A_3 O5A 1_555 1_555
Cd1A_4 O3A 1_555 1_555
Cd2_2 O4A 1_555 1_555
Cd2_3 O8 1_555 1_555
Cd2_4 O4 1_555 1_555
O1A_2 Cd2 1_555 1_555
O3_2 Cd1 1_555 1_555
O3A_2 Cd1A 1_555 1_555
O4_2 Cd2 1_555 1_555
O4A_2 Cd2 1_555 1_555
O5_2 Cd1 1_555 1_555
O5A_2 Cd1A 1_555 1_555
O6_2 Cd1 1_555 1_555
O6A_2 Cd1A 1_555 1_555
O7_2 Cd1 1_555 1_555
O7A_2 Cd1A 1_555 1_555
O8_2 Cd2 1_555 1_555
O9A Cd3 1_555 1_555
O10A Cd3 1_555 1_555
O11A Cd3 1_555 1_555
N1A C30A 1_555 1_555
C29A O10A 1_555 1_555
C30A O11A 1_555 1_555
N2A C29A 1_555 1_555
C31A N1A 1_555 1_555
H17A C31A 1_555 1_555
H18A C31A 1_555 1_555
H19A C31A 1_555 1_555
C32A C29A 1_555 1_555
H20A C32A 1_555 1_555
H21A C32A 1_555 1_555
H22A C32A 1_555 1_555
C33A C30A 1_555 1_555
H23A C33A 1_555 1_555
H24A C33A 1_555 1_555
C34A N2A 1_555 1_555
H25A C34A 1_555 1_555
H26A C34A 1_555 1_555
H27A C34A 1_555 1_555
C35A N2A 1_555 1_555
H28A C35A 1_555 1_555
H29A C35A 1_555 1_555
H30A C35A 1_555 1_555
C36A C33A 1_555 1_555
H31A C36A 1_555 1_555
H32A C36A 1_555 1_555
C37A N1A 1_555 1_555
H33A C37A 1_555 1_555
H34A C37A 1_555 1_555
H35A O9A 1_555 1_555
H36A O9A 1_555 1_555
C9 C11 1_555 1_555
C12 C28 1_555 1_555
C14 C20 1_555 1_555
C14 C22 1_555 1_555
C16 C23 1_555 1_555
C16 C27 1_555 1_555
C18 C21 1_555 1_555
C23 C24 1_555 1_555
C25 C26 1_555 1_555
C36 C37 1_555 1_555
O1A Cd2_3 1_555 1_555
C9A C11A 1_555 1_555
C12A C28A 1_555 1_555
C14A C20A 1_555 1_555
C14A C22A 1_555 1_555
O8A C19A 1_555 1_555
C16A C23A 1_555 1_555
C16A C27A 1_555 1_555
C18A C21A 1_555 1_555
C23A C24A 1_555 1_555
C25A C26A 1_555 1_555
Cd1A_4 O1A_2 1_555 1_555
C36A C37A 1_555 1_555

#END
