
#######################################################################
#
#                 Cambridge Crystallographic Data Centre
#                                CCDC 
#
#######################################################################
#
# If this CIF has been generated from an entry in the Cambridge 
# Structural Database, then it will include bibliographic, chemical, 
# crystal, experimental, refinement or atomic coordinate data resulting 
# from the CCDC's data processing and validation procedures.
#
#######################################################################

data_ODIXUW04
_symmetry_cell_setting           triclinic
_symmetry_space_group_name_H-M   'P -1'
_symmetry_Int_Tables_number      2
_space_group_name_Hall           '-P 1'
loop_
_symmetry_equiv_pos_site_id
_symmetry_equiv_pos_as_xyz
1 x,y,z
2 -x,-y,-z
_cell_length_a                   10.3645(8)
_cell_length_b                   10.7637(9)
_cell_length_c                   12.0346(10)
_cell_angle_alpha                106.9346(12)
_cell_angle_beta                 90.3554(13)
_cell_angle_gamma                101.8012(11)
_cell_volume                     1254.11
loop_
_atom_site_label
_atom_site_type_symbol
_atom_site_fract_x
_atom_site_fract_y
_atom_site_fract_z
Cu1 Cu 0.69874(7) -0.60537(7) 0.19986(6)
Cu2 Cu -0.08300(7) 0.51731(7) 0.40022(7)
Cu3 Cu -0.17000(7) 0.23536(7) 0.26129(7)
I1 I 0.57356(4) -0.83989(4) 0.18529(4)
I2 I -0.15293(3) 0.32128(3) 0.49459(3)
I3 I -0.04570(3) 0.43790(3) 0.17169(3)
C1 C 0.3800(6) -0.5467(7) 0.2197(6)
H1 H 0.3165 -0.6025 0.1578
H2 H 0.3368 -0.4903 0.2775
H3 H 0.4193 -0.6011 0.2544
C2 C 0.4837(5) -0.4639(5) 0.1727(5)
C3 C 0.6684(5) -0.3766(6) 0.1192(5)
H4 H 0.7575 -0.3585 0.1055
C4 C 0.5790(5) -0.3120(6) 0.0939(6)
H5 H 0.5941 -0.2435 0.0599
C5 C 0.3365(6) -0.3269(6) 0.1172(6)
H6 H 0.2634 -0.4006 0.1139
H7 H 0.3317 -0.3047 0.0450
C6 C 0.3238(6) -0.2102(6) 0.2161(6)
H8 H 0.3945 -0.1355 0.2167
H9 H 0.3340 -0.2310 0.2885
C7 C 0.1915(6) -0.1699(6) 0.2105(6)
H10 H 0.1215 -0.2494 0.1914
H11 H 0.1779 -0.1144 0.2871
C8 C 0.1796(5) -0.0957(6) 0.1230(5)
H12 H 0.2544 -0.0211 0.1360
H13 H 0.1811 -0.1543 0.0449
C9 C 0.1412(6) 0.1728(6) 0.2828(5)
H14 H 0.2053 0.2105 0.2378
H15 H 0.1837 0.1335 0.3308
H16 H 0.1023 0.2414 0.3313
C10 C 0.0368(5) 0.0693(5) 0.2034(4)
C11 C -0.0622(5) -0.1141(5) 0.0716(5)
H17 H -0.0787 -0.1974 0.0161
C12 C -0.1495(5) -0.0368(5) 0.1068(5)
H18 H -0.2378 -0.0582 0.0794
C13 C -0.1118(5) 0.8214(6) 0.3642(5)
H19 H -0.1485 0.8497 0.3047
H20 H -0.0506 0.7670 0.3313
H21 H -0.0666 0.8979 0.4251
C14 C -0.2202(5) 0.7429(5) 0.4129(4)
C15 C -0.3381(5) 0.5929(5) 0.4761(5)
H22 H -0.3651 0.5154 0.4970
C16 C -0.4092(5) 0.6867(5) 0.4868(5)
H23 H -0.4924 0.6865 0.5153
C17 C -0.3667(5) 0.9046(5) 0.4380(6)
H24 H -0.3865 0.8955 0.3567
H25 H -0.2914 0.9781 0.4669
C18 C -0.4822(5) 0.9350(5) 0.5047(5)
H26 H -0.4626 0.9439 0.5860
H27 H -0.5577 0.8617 0.4756
N1 N 0.6098(4) -0.4724(4) 0.1677(4)
N2 N 0.4618(4) -0.3679(4) 0.1285(4)
N3 N -0.0882(4) 0.0797(4) 0.1899(4)
N4 N 0.0566(4) -0.0470(4) 0.1333(4)
N5 N -0.2204(4) 0.6272(4) 0.4301(4)
N6 N -0.3327(4) 0.7830(4) 0.4468(4)
C13A C -0.8882(5) 1.1786(6) 0.6358(5)
H19A H -0.8515 1.1503 0.6953
H20A H -0.9494 1.2330 0.6687
H21A H -0.9334 1.1021 0.5749
C14A C -0.7798(5) 1.2571(5) 0.5871(4)
C15A C -0.6619(5) 1.4071(5) 0.5239(5)
H22A H -0.6349 1.4846 0.5030
C16A C -0.5908(5) 1.3133(5) 0.5132(5)
H23A H -0.5076 1.3135 0.4847
C17A C -0.6333(5) 1.0954(5) 0.5620(6)
H24A H -0.6135 1.1045 0.6433
H25A H -0.7086 1.0219 0.5331
C18A C -0.5178(5) 1.0650(5) 0.4953(5)
H26A H -0.5374 1.0561 0.4140
H27A H -0.4423 1.1383 0.5244
N5A N -0.7796(4) 1.3728(4) 0.5699(4)
N6A N -0.6673(4) 1.2170(4) 0.5532(4)
Cu1A Cu -1.69874(7) 2.60537(7) 0.80014(6)
Cu2A Cu -0.91700(7) 1.48269(7) 0.59978(7)
Cu3A Cu -0.83000(7) 1.76464(7) 0.73871(7)
I1A I -1.57356(4) 2.83989(4) 0.81471(4)
I2A I -0.84707(3) 1.67872(3) 0.50541(3)
I3A I -0.95430(3) 1.56210(3) 0.82831(3)
C1A C -1.3800(6) 2.5467(7) 0.7803(6)
H1A H -1.3165 2.6025 0.8422
H2A H -1.3368 2.4903 0.7225
H3A H -1.4193 2.6011 0.7456
C2A C -1.4837(5) 2.4639(5) 0.8273(5)
C3A C -1.6684(5) 2.3766(6) 0.8808(5)
H4A H -1.7575 2.3585 0.8945
C4A C -1.5790(5) 2.3120(6) 0.9061(6)
H5A H -1.5941 2.2435 0.9401
C5A C -1.3365(6) 2.3269(6) 0.8828(6)
H6A H -1.2634 2.4006 0.8861
H7A H -1.3317 2.3047 0.9550
C6A C -1.3238(6) 2.2102(6) 0.7839(6)
H8A H -1.3945 2.1355 0.7833
H9A H -1.3340 2.2310 0.7115
C7A C -1.1915(6) 2.1699(6) 0.7895(6)
H10A H -1.1215 2.2494 0.8086
H11A H -1.1779 2.1144 0.7129
C8A C -1.1796(5) 2.0957(6) 0.8770(5)
H12A H -1.2544 2.0211 0.8640
H13A H -1.1811 2.1543 0.9551
C9A C -1.1412(6) 1.8272(6) 0.7172(5)
H14A H -1.2053 1.7895 0.7622
H15A H -1.1837 1.8665 0.6692
H16A H -1.1023 1.7586 0.6687
C10A C -1.0368(5) 1.9307(5) 0.7966(4)
C11A C -0.9378(5) 2.1141(5) 0.9284(5)
H17A H -0.9213 2.1974 0.9839
C12A C -0.8505(5) 2.0368(5) 0.8932(5)
H18A H -0.7622 2.0582 0.9206
N1A N -1.6098(4) 2.4724(4) 0.8323(4)
N2A N -1.4618(4) 2.3679(4) 0.8715(4)
N3A N -0.9118(4) 1.9203(4) 0.8101(4)
N4A N -1.0566(4) 2.0470(4) 0.8667(4)
Cu1_2 Cu -0.30126(7) 0.39463(7) 0.19986(6)
Cu1A_2 Cu -0.69874(7) 1.60537(7) 0.80014(6)
Cu2_2 Cu -1.08300(7) 1.51731(7) 0.40022(7)
Cu2A_2 Cu 0.08300(7) 0.48269(7) 0.59978(7)
Cu3_2 Cu 0.83000(7) -0.76464(7) 0.26129(7)
Cu3A_2 Cu -1.83000(7) 2.76464(7) 0.73871(7)
I1_2 I -0.42644(4) 0.16011(4) 0.18529(4)
I1A_2 I -0.57356(4) 1.83989(4) 0.81471(4)
I2_2 I -1.15293(3) 1.32128(3) 0.49459(3)
I2A_2 I 0.15293(3) 0.67872(3) 0.50541(3)
I3_2 I 0.95430(3) -0.56210(3) 0.17169(3)
I3A_2 I -1.95430(3) 2.56210(3) 0.82831(3)
loop_
_geom_bond_atom_site_label_1
_geom_bond_atom_site_label_2
_geom_bond_site_symmetry_1
_geom_bond_site_symmetry_2
Cu1 I1 1_555 1_555
Cu2 I2 1_555 1_555
Cu3 I2 1_555 1_555
I1 Cu3_2 1_555 1_555
I2 Cu2A_2 1_555 1_555
I3 Cu2 1_555 1_555
C1 H1 1_555 1_555
H2 C1 1_555 1_555
H3 C1 1_555 1_555
C2 C1 1_555 1_555
C3 H4 1_555 1_555
C4 C3 1_555 1_555
H5 C4 1_555 1_555
C5 H6 1_555 1_555
H7 C5 1_555 1_555
C6 C5 1_555 1_555
H8 C6 1_555 1_555
H9 C6 1_555 1_555
C7 C6 1_555 1_555
H10 C7 1_555 1_555
H11 C7 1_555 1_555
C8 C7 1_555 1_555
H12 C8 1_555 1_555
H13 C8 1_555 1_555
C9 H14 1_555 1_555
H15 C9 1_555 1_555
H16 C9 1_555 1_555
C10 C9 1_555 1_555
C11 H17 1_555 1_555
C12 C11 1_555 1_555
H18 C12 1_555 1_555
C13 H19 1_555 1_555
H20 C13 1_555 1_555
H21 C13 1_555 1_555
C14 C13 1_555 1_555
C15 H22 1_555 1_555
C16 C15 1_555 1_555
H23 C16 1_555 1_555
C17 H24 1_555 1_555
H25 C17 1_555 1_555
C18 C17 1_555 1_555
H26 C18 1_555 1_555
H27 C18 1_555 1_555
N1 Cu1 1_555 1_555
N2 C2 1_555 1_555
N3 Cu3 1_555 1_555
N4 C8 1_555 1_555
N5 Cu2 1_555 1_555
N6 C14 1_555 1_555
C13A H19A 1_555 1_555
H20A C13A 1_555 1_555
H21A C13A 1_555 1_555
C14A C13A 1_555 1_555
C15A H22A 1_555 1_555
C16A C15A 1_555 1_555
H23A C16A 1_555 1_555
C17A H24A 1_555 1_555
H25A C17A 1_555 1_555
C18A C18 1_555 1_555
H26A C18A 1_555 1_555
H27A C18A 1_555 1_555
N5A C14A 1_555 1_555
N6A C14A 1_555 1_555
Cu1A I1A 1_555 1_555
Cu2A N5A 1_555 1_555
Cu3A I2A 1_555 1_555
I1A Cu3A_2 1_555 1_555
I2A Cu2A 1_555 1_555
I3A Cu2A 1_555 1_555
C1A H1A 1_555 1_555
H2A C1A 1_555 1_555
H3A C1A 1_555 1_555
C2A C1A 1_555 1_555
C3A H4A 1_555 1_555
C4A C3A 1_555 1_555
H5A C4A 1_555 1_555
C5A H6A 1_555 1_555
H7A C5A 1_555 1_555
C6A C5A 1_555 1_555
H8A C6A 1_555 1_555
H9A C6A 1_555 1_555
C7A C6A 1_555 1_555
H10A C7A 1_555 1_555
H11A C7A 1_555 1_555
C8A C7A 1_555 1_555
H12A C8A 1_555 1_555
H13A C8A 1_555 1_555
C9A H14A 1_555 1_555
H15A C9A 1_555 1_555
H16A C9A 1_555 1_555
C10A C9A 1_555 1_555
C11A H17A 1_555 1_555
C12A C11A 1_555 1_555
H18A C12A 1_555 1_555
N1A Cu1A 1_555 1_555
N2A C2A 1_555 1_555
N3A Cu3A 1_555 1_555
N4A C8A 1_555 1_555
Cu1_2 Cu3 1_555 1_555
Cu1A_2 Cu3A 1_555 1_555
Cu2_2 I2A 1_555 1_555
Cu2A_2 I2A_2 1_555 1_555
Cu3_2 Cu1 1_555 1_555
Cu3A_2 Cu1A 1_555 1_555
I1_2 Cu3 1_555 1_555
I1A_2 Cu3A 1_555 1_555
I2_2 Cu2A 1_555 1_555
I2A_2 Cu2 1_555 1_555
I3_2 Cu1 1_555 1_555
I3A_2 Cu1A 1_555 1_555
Cu3 I3 1_555 1_555
I3 Cu1_2 1_555 1_555
C2 N1 1_555 1_555
C3 N1 1_555 1_555
C4 N2 1_555 1_555
C5 N2 1_555 1_555
C10 N3 1_555 1_555
C10 N4 1_555 1_555
C11 N4 1_555 1_555
C12 N3 1_555 1_555
C14 N5 1_555 1_555
C15 N5 1_555 1_555
C16 N6 1_555 1_555
C17 N6 1_555 1_555
C15A N5A 1_555 1_555
C16A N6A 1_555 1_555
C17A C18A 1_555 1_555
C17A N6A 1_555 1_555
Cu3A I3A 1_555 1_555
I3A Cu1A_2 1_555 1_555
C2A N1A 1_555 1_555
C3A N1A 1_555 1_555
C4A N2A 1_555 1_555
C5A N2A 1_555 1_555
C10A N3A 1_555 1_555
C10A N4A 1_555 1_555
C11A N4A 1_555 1_555
C12A N3A 1_555 1_555
Cu1_2 I1_2 1_555 1_555
Cu1A_2 I1A_2 1_555 1_555
Cu2_2 I2_2 1_555 1_555
Cu3_2 I3_2 1_555 1_555
Cu3A_2 I3A_2 1_555 1_555

#END
