
#######################################################################
#
#                 Cambridge Crystallographic Data Centre
#                                CCDC 
#
#######################################################################
#
# If this CIF has been generated from an entry in the Cambridge 
# Structural Database, then it will include bibliographic, chemical, 
# crystal, experimental, refinement or atomic coordinate data resulting 
# from the CCDC's data processing and validation procedures.
#
#######################################################################

data_ODIXUW03
_symmetry_cell_setting           monoclinic
_symmetry_space_group_name_H-M   'P 21/n'
_symmetry_Int_Tables_number      14
_space_group_name_Hall           '-P 2yn'
loop_
_symmetry_equiv_pos_site_id
_symmetry_equiv_pos_as_xyz
1 x,y,z
2 1/2-x,1/2+y,1/2-z
3 -x,-y,-z
4 1/2+x,1/2-y,1/2+z
_cell_length_a                   9.9100(7)
_cell_length_b                   16.4571(11)
_cell_length_c                   10.5782(7)
_cell_angle_alpha                90
_cell_angle_beta                 103.5790(10)
_cell_angle_gamma                90
_cell_volume                     1676.97
loop_
_atom_site_label
_atom_site_type_symbol
_atom_site_fract_x
_atom_site_fract_y
_atom_site_fract_z
Cu1 Cu -0.20201(8) 0.36832(5) 0.50300(7)
Cu2 Cu -0.07165(8) 0.44366(6) 0.34918(7)
I1 I 0.06280(4) 0.39076(2) 0.58785(3)
I2 I -0.33850(4) 0.39836(3) 0.27792(4)
C1 C 0.2466(6) 0.4738(4) 0.2780(6)
H1 H 0.2709 0.5252 0.2466
H2 H 0.3260 0.4385 0.2942
H3 H 0.2171 0.4819 0.3573
C2 C 0.1336(6) 0.4369(3) 0.1804(5)
C3 C -0.0653(6) 0.3876(4) 0.0817(6)
H4 H -0.1564 0.3690 0.0660
C4 C 0.0154(6) 0.3865(4) -0.0047(6)
H5 H -0.0094 0.3683 -0.0903
C5 C 0.2600(7) 0.4290(4) 0.0006(6)
H6 H 0.3373 0.4512 0.0652
H7 H 0.2350 0.4681 -0.0695
C6 C 0.3056(6) 0.3520(4) -0.0519(6)
H8 H 0.2286 0.3301 -0.1172
H9 H 0.3295 0.3126 0.0180
C7 C 0.4288(6) 0.3633(4) -0.1117(6)
H10 H 0.4142 0.4107 -0.1679
H11 H 0.5119 0.3723 -0.0436
C8 C 0.4478(6) 0.2896(3) -0.1890(6)
H12 H 0.4520 0.2419 -0.1344
H13 H 0.3675 0.2839 -0.2613
C9 C 0.4751(6) 0.3754(5) -0.4356(6)
H14 H 0.4699 0.4292 -0.4019
H15 H 0.3882 0.3481 -0.4423
H16 H 0.4947 0.3788 -0.5201
C10 C 0.5858(5) 0.3300(3) -0.3481(5)
C11 C 0.7842(6) 0.2754(3) -0.2591(5)
H17 H 0.8765 0.2594 -0.2443
C12 C 0.6988(6) 0.2578(4) -0.1824(6)
H18 H 0.7200 0.2280 -0.1056
N1 N 0.0084(5) 0.4204(3) 0.1965(4)
N2 N 0.1427(5) 0.4179(3) 0.0596(4)
N3 N 0.5731(4) 0.2927(3) -0.2396(4)
N4 N 0.7148(4) 0.3208(3) -0.3633(4)
Cu1_2 Cu 0.79799(8) 0.36832(5) -0.49700(7)
Cu2B Cu 0.07165(8) 0.55634(6) 0.65082(7)
I1B I -0.06280(4) 0.60924(2) 0.41215(3)
N4_2 N -0.2852(4) 0.3208(3) 0.6367(4)
loop_
_geom_bond_atom_site_label_1
_geom_bond_atom_site_label_2
_geom_bond_site_symmetry_1
_geom_bond_site_symmetry_2
Cu1 I1 1_555 1_555
Cu2 I1 1_555 1_555
I1 Cu2B 1_555 1_555
I2 Cu1 1_555 1_555
C1 H1 1_555 1_555
H2 C1 1_555 1_555
H3 C1 1_555 1_555
C2 C1 1_555 1_555
C3 H4 1_555 1_555
C4 C3 1_555 1_555
H5 C4 1_555 1_555
C5 H6 1_555 1_555
H7 C5 1_555 1_555
C6 C5 1_555 1_555
H8 C6 1_555 1_555
H9 C6 1_555 1_555
C7 C6 1_555 1_555
H10 C7 1_555 1_555
H11 C7 1_555 1_555
C8 C7 1_555 1_555
H12 C8 1_555 1_555
H13 C8 1_555 1_555
C9 H14 1_555 1_555
H15 C9 1_555 1_555
H16 C9 1_555 1_555
C10 C9 1_555 1_555
C11 H17 1_555 1_555
C12 C11 1_555 1_555
H18 C12 1_555 1_555
N1 Cu2 1_555 1_555
N2 C2 1_555 1_555
N3 C8 1_555 1_555
N4 C10 1_555 1_555
Cu1_2 N4 1_555 1_555
Cu2B I1B 1_555 1_555
I1B Cu2 1_555 1_555
N4_2 Cu1 1_555 1_555
Cu2 I2 1_555 1_555
C2 N1 1_555 1_555
C3 N1 1_555 1_555
C4 N2 1_555 1_555
C5 N2 1_555 1_555
C10 N3 1_555 1_555
C11 N4 1_555 1_555
C12 N3 1_555 1_555

#END
