
#######################################################################
#
#                 Cambridge Crystallographic Data Centre
#                                CCDC 
#
#######################################################################
#
# If this CIF has been generated from an entry in the Cambridge 
# Structural Database, then it will include bibliographic, chemical, 
# crystal, experimental, refinement or atomic coordinate data resulting 
# from the CCDC's data processing and validation procedures.
#
#######################################################################

data_ODIYAB
_symmetry_cell_setting           triclinic
_symmetry_space_group_name_H-M   'P -1'
_symmetry_Int_Tables_number      2
_space_group_name_Hall           '-P 1'
loop_
_symmetry_equiv_pos_site_id
_symmetry_equiv_pos_as_xyz
1 x,y,z
2 -x,-y,-z
_cell_length_a                   8.2535(17)
_cell_length_b                   12.154(2)
_cell_length_c                   15.348(3)
_cell_angle_alpha                95.34(3)
_cell_angle_beta                 93.38(3)
_cell_angle_gamma                94.37(3)
_cell_volume                     1525.08
loop_
_atom_site_label
_atom_site_type_symbol
_atom_site_fract_x
_atom_site_fract_y
_atom_site_fract_z
Co1 Co 1.00711(7) -0.61264(5) 0.10310(4)
O1 O 1.1089(4) -0.7536(3) 0.1576(2)
O2 O 0.9745(4) -0.6416(3) 0.2416(2)
O3 O 1.1114(4) -0.5271(3) 0.8948(2)
O4 O 1.0772(4) -0.6627(3) 0.9826(2)
O5 O 1.3300(4) -1.1146(3) 0.5822(2)
N1 N 0.7759(5) -0.7059(3) 0.0719(3)
N2 N 1.2228(5) -0.5034(3) 0.1448(3)
C1 C 1.3013(6) -1.0594(4) 0.5091(3)
C2 C 1.2297(6) -0.9604(4) 0.5296(3)
C3 C 1.1798(6) -0.9003(4) 0.4571(3)
C4 C 1.0778(6) -0.8122(4) 0.4633(3)
H1 H 1.0365 -0.7910 0.5168
C5 C 1.0376(6) -0.7562(4) 0.3910(3)
H2 H 0.9710 -0.6980 0.3968
C6 C 1.0977(6) -0.7876(4) 0.3088(3)
C7 C 1.1887(6) -0.8772(4) 0.3002(3)
H3 H 1.2250 -0.8992 0.2456
C8 C 1.2290(6) -0.9373(4) 0.3722(3)
C9 C 1.3114(6) -1.0357(4) 0.3588(3)
H4 H 1.3432 -1.0574 0.3031
C10 C 1.3454(7) -1.0995(4) 0.4260(3)
H5 H 1.3949 -1.1655 0.4168
C11 C 1.0580(6) -0.7243(4) 0.2323(3)
C12 C 1.2224(6) -0.9510(4) 0.6250(3)
C13 C 1.2796(6) -1.0478(4) 0.6508(3)
C14 C 1.2867(6) -1.0785(4) 0.7375(3)
H6 H 1.3240 -1.1457 0.7508
C15 C 1.2363(6) -1.0051(4) 0.8006(3)
H7 H 1.2326 -1.0243 0.8577
C16 C 1.1886(6) -0.8983(4) 0.7809(3)
C17 C 1.1538(6) -0.8193(4) 0.8496(3)
H8 H 1.1491 -0.8404 0.9062
C18 C 1.1268(6) -0.7121(4) 0.8346(3)
C19 C 1.1347(6) -0.6803(4) 0.7488(3)
H9 H 1.1210 -0.6072 0.7386
C20 C 1.1624(6) -0.7554(4) 0.6803(3)
H10 H 1.1655 -0.7325 0.6242
C21 C 1.1866(5) -0.8680(4) 0.6926(3)
C22 C 1.1010(6) -0.6282(4) 0.9096(3)
C23 C 0.7586(7) -0.7959(4) 0.0132(3)
H11 H 0.8483 -0.8165 -0.0165
C24 C 0.6099(7) -0.8594(4) -0.0047(4)
H12 H 0.6001 -0.9205 -0.0465
C25 C 0.4775(7) -0.8300(5) 0.0410(4)
H13 H 0.3782 -0.8723 0.0318
C26 C 0.4957(6) -0.7368(5) 0.1005(4)
H14 H 0.4080 -0.7144 0.1310
C27 C 0.6461(6) -0.6772(4) 0.1140(3)
H15 H 0.6573 -0.6145 0.1542
C28 C 1.3295(6) -0.4680(4) 0.0887(3)
H16 H 1.3230 -0.5029 0.0319
C29 C 1.4484(7) -0.3823(4) 0.1112(4)
H17 H 1.5213 -0.3611 0.0707
C30 C 1.4574(7) -0.3287(5) 0.1943(4)
H18 H 1.5342 -0.2693 0.2108
C31 C 1.3509(8) -0.3649(5) 0.2522(4)
H19 H 1.3550 -0.3309 0.3093
C32 C 1.2362(7) -0.4530(5) 0.2253(3)
H20 H 1.1655 -0.4776 0.2657
O3A O 0.8886(4) -0.4729(3) 0.1052(2)
O4_2 O 1.0772(4) -0.6627(3) -0.0174(2)
Co1A Co 0.99289(7) -0.38736(5) 0.89690(4)
Co1_2 Co 1.00711(7) -0.61264(5) 1.10310(4)
O6 O 0.5025(15) -0.3337(7) 0.4537(5)
N3 N 0.3828(9) -0.4022(6) 0.5648(5)
C33 C 0.5029(14) -0.3433(8) 0.5350(6)
H21 H 0.5874 -0.3090 0.5731
C34 C 0.2463(12) -0.4530(11) 0.5060(10)
H22 H 0.2613 -0.4340 0.4475
H23 H 0.1466 -0.4263 0.5253
H24 H 0.2412 -0.5321 0.5065
C35 C 0.3847(19) -0.4174(13) 0.6524(7)
H25 H 0.4809 -0.3787 0.6823
H26 H 0.3846 -0.4950 0.6594
H27 H 0.2900 -0.3889 0.6767
O7 O 1.1164(6) -0.9643(4) 0.0721(3)
loop_
_geom_bond_atom_site_label_1
_geom_bond_atom_site_label_2
_geom_bond_site_symmetry_1
_geom_bond_site_symmetry_2
Co1 O1 1_555 1_555
O1 C11 1_555 1_555
O2 Co1 1_555 1_555
O3 C22 1_555 1_555
O4 C22 1_555 1_555
O5 C1 1_555 1_555
O6 C33 1_555 1_555
N1 Co1 1_555 1_555
N2 Co1 1_555 1_555
N3 C33 1_555 1_555
C1 C2 1_555 1_555
C2 C3 1_555 1_555
C3 C4 1_555 1_555
C4 H1 1_555 1_555
C5 C4 1_555 1_555
H2 C5 1_555 1_555
C6 C5 1_555 1_555
C7 C6 1_555 1_555
H3 C7 1_555 1_555
C8 C3 1_555 1_555
C9 C8 1_555 1_555
H4 C9 1_555 1_555
C10 C1 1_555 1_555
H5 C10 1_555 1_555
C11 O2 1_555 1_555
C12 C2 1_555 1_555
C13 O5 1_555 1_555
C14 C13 1_555 1_555
H6 C14 1_555 1_555
C15 C14 1_555 1_555
H7 C15 1_555 1_555
C16 C15 1_555 1_555
C17 C16 1_555 1_555
H8 C17 1_555 1_555
C18 C17 1_555 1_555
C19 C18 1_555 1_555
H9 C19 1_555 1_555
C20 C19 1_555 1_555
H10 C20 1_555 1_555
C21 C12 1_555 1_555
C22 C18 1_555 1_555
C23 N1 1_555 1_555
H11 C23 1_555 1_555
C24 C23 1_555 1_555
H12 C24 1_555 1_555
C25 C24 1_555 1_555
H13 C25 1_555 1_555
C26 C25 1_555 1_555
H14 C26 1_555 1_555
C27 N1 1_555 1_555
H15 C27 1_555 1_555
C28 N2 1_555 1_555
H16 C28 1_555 1_555
C29 C28 1_555 1_555
H17 C29 1_555 1_555
C30 C29 1_555 1_555
H18 C30 1_555 1_555
C31 C30 1_555 1_555
H19 C31 1_555 1_555
C32 N2 1_555 1_555
H20 C32 1_555 1_555
C33 H21 1_555 1_555
C34 N3 1_555 1_555
H22 C34 1_555 1_555
H23 C34 1_555 1_555
H24 C34 1_555 1_555
C35 N3 1_555 1_555
H25 C35 1_555 1_555
H26 C35 1_555 1_555
H27 C35 1_555 1_555
O3A Co1 1_555 1_555
O4_2 Co1 1_555 1_555
Co1A O3 1_555 1_555
Co1_2 O4 1_555 1_555
C6 C11 1_555 1_555
C7 C8 1_555 1_555
C9 C10 1_555 1_555
C12 C13 1_555 1_555
C16 C21 1_555 1_555
C20 C21 1_555 1_555
C26 C27 1_555 1_555
C31 C32 1_555 1_555

#END
