
#######################################################################
#
#                 Cambridge Crystallographic Data Centre
#                                CCDC 
#
#######################################################################
#
# If this CIF has been generated from an entry in the Cambridge 
# Structural Database, then it will include bibliographic, chemical, 
# crystal, experimental, refinement or atomic coordinate data resulting 
# from the CCDC's data processing and validation procedures.
#
#######################################################################

data_ODIZOQ
_symmetry_cell_setting           monoclinic
_symmetry_space_group_name_H-M   'C c'
_symmetry_Int_Tables_number      9
_space_group_name_Hall           'C -2yc'
loop_
_symmetry_equiv_pos_site_id
_symmetry_equiv_pos_as_xyz
1 x,y,z
2 x,-y,1/2+z
3 1/2+x,1/2+y,z
4 1/2+x,1/2-y,1/2+z
_cell_length_a                   11.536(2)
_cell_length_b                   21.214(4)
_cell_length_c                   8.5233(17)
_cell_angle_alpha                90
_cell_angle_beta                 130.53(3)
_cell_angle_gamma                90
_cell_volume                     1585.39
loop_
_atom_site_label
_atom_site_type_symbol
_atom_site_fract_x
_atom_site_fract_y
_atom_site_fract_z
Co1 Co 0.46155(6) 0.105370(18) 0.08940(7)
N1 N 0.6468(4) 0.06329(16) 0.3625(5)
N2 N 0.3450(4) 0.14304(15) 0.1762(5)
O1 O 1.3635(3) -0.02494(11) 1.4244(4)
O2 O 1.2292(4) -0.10925(12) 1.2529(5)
O3 O 0.0908(4) 0.29360(14) 0.7102(5)
O4 O 0.0431(4) 0.35246(14) 0.4652(5)
C1 C 0.7703(5) 0.09454(19) 0.5207(7)
H1 H 0.7745 0.1379 0.509
C2 C 0.8920(5) 0.0652(2) 0.7012(7)
H2 H 0.9752 0.0888 0.8081
C3 C 0.8893(4) 0.0009(2) 0.7216(6)
C4 C 0.7628(4) -0.03123(19) 0.5564(6)
H3 H 0.757 -0.0748 0.5626
C5 C 0.6455(4) 0.00113(19) 0.3830(6)
H4 H 0.561 -0.0215 0.2745
C6 C 1.0123(5) -0.0340(2) 0.9067(6)
H5 H 1.0022 -0.0776 0.9
C7 C 1.1344(5) -0.0110(2) 1.0796(7)
H6 H 1.1514 0.0322 1.0902
C8 C 1.2470(5) -0.0515(2) 1.2600(6)
C9 C 0.2545(5) 0.1920(2) 0.0644(7)
H7 H 0.2327 0.2011 -0.0591
C10 C 0.1918(6) 0.2296(2) 0.1251(8)
H8 H 0.131 0.2639 0.0447
C11 C 0.2197(5) 0.21608(19) 0.3053(7)
C12 C 0.3080(5) 0.16374(18) 0.4166(6)
H9 H 0.326 0.1519 0.5359
C13 C 0.3687(4) 0.12940(17) 0.3480(6)
H10 H 0.4295 0.0948 0.4256
C14 C 0.1577(5) 0.2600(2) 0.3691(7)
H11 H 0.1116 0.2965 0.2907
C15 C 0.1610(6) 0.2531(2) 0.5236(7)
H12 H 0.205 0.2173 0.6059
C16 C 0.0946(5) 0.30230(19) 0.5692(7)
O1A O 0.3635(3) 0.02494(11) -0.0756(4)
O2A O 0.2292(4) 0.10925(12) -0.2471(5)
O4C O 0.5431(4) 0.14754(14) -0.0348(5)
Co1A Co 1.46155(6) -0.105370(18) 1.58940(7)
Co1C Co -0.03845(6) 0.394630(18) 0.58940(7)
loop_
_geom_bond_atom_site_label_1
_geom_bond_atom_site_label_2
_geom_bond_site_symmetry_1
_geom_bond_site_symmetry_2
Co1 N1 1_555 1_555
N1 C1 1_555 1_555
N2 Co1 1_555 1_555
O1 C8 1_555 1_555
O2 C8 1_555 1_555
O3 C16 1_555 1_555
O4 C16 1_555 1_555
C1 H1 1_555 1_555
C2 C1 1_555 1_555
H2 C2 1_555 1_555
C3 C2 1_555 1_555
C4 C3 1_555 1_555
H3 C4 1_555 1_555
C5 N1 1_555 1_555
H4 C5 1_555 1_555
C6 C3 1_555 1_555
H5 C6 1_555 1_555
C7 C6 1_555 1_555
H6 C7 1_555 1_555
C8 C7 1_555 1_555
C9 N2 1_555 1_555
H7 C9 1_555 1_555
C10 C9 1_555 1_555
H8 C10 1_555 1_555
C11 C10 1_555 1_555
C12 C11 1_555 1_555
H9 C12 1_555 1_555
C13 N2 1_555 1_555
H10 C13 1_555 1_555
C14 C11 1_555 1_555
H11 C14 1_555 1_555
C15 C14 1_555 1_555
H12 C15 1_555 1_555
C16 C15 1_555 1_555
O1A Co1 1_555 1_555
O2A Co1 1_555 1_555
O4C Co1 1_555 1_555
Co1A O1 1_555 1_555
Co1C O4 1_555 1_555
O2 Co1A 1_555 1_555
C4 C5 1_555 1_555
C12 C13 1_555 1_555

#END
