
#######################################################################
#
#                 Cambridge Crystallographic Data Centre
#                                CCDC 
#
#######################################################################
#
# If this CIF has been generated from an entry in the Cambridge 
# Structural Database, then it will include bibliographic, chemical, 
# crystal, experimental, refinement or atomic coordinate data resulting 
# from the CCDC's data processing and validation procedures.
#
#######################################################################

data_ODIZUW
_symmetry_cell_setting           orthorhombic
_symmetry_space_group_name_H-M   'P b c n'
_symmetry_Int_Tables_number      60
_space_group_name_Hall           '-P 2n 2ab'
loop_
_symmetry_equiv_pos_site_id
_symmetry_equiv_pos_as_xyz
1 x,y,z
2 1/2+x,1/2+y,1/2-z
3 1/2-x,1/2+y,z
4 x,-y,1/2+z
5 -x,-y,-z
6 1/2-x,1/2-y,1/2+z
7 1/2+x,1/2-y,-z
8 -x,y,1/2-z
_cell_length_a                   13.6844(13)
_cell_length_b                   7.5053(8)
_cell_length_c                   15.929(4)
_cell_angle_alpha                90
_cell_angle_beta                 90
_cell_angle_gamma                90
_cell_volume                     1636
loop_
_atom_site_label
_atom_site_type_symbol
_atom_site_fract_x
_atom_site_fract_y
_atom_site_fract_z
Cu1 Cu 0.50000 0.5000 0.50000
N1 N 0.60832(16) 0.5220(3) 0.41567(14)
O1 O 0.91154(14) 0.8947(3) 0.08245(12)
O2 O 0.98588(16) 0.6331(3) 0.10862(15)
O3 O 0.57882(18) 0.2017(3) 0.54537(15)
C1 C 0.5892(2) 0.5771(5) 0.33743(18)
C2 C 0.6608(2) 0.6014(5) 0.27787(18)
C3 C 0.7577(2) 0.5700(4) 0.29801(17)
C4 C 0.7767(2) 0.5088(4) 0.37881(18)
C5 C 0.7017(2) 0.4884(5) 0.43545(17)
C6 C 0.8379(2) 0.6007(4) 0.23862(18)
C7 C 0.8311(2) 0.6981(4) 0.17034(19)
C8 C 0.9175(2) 0.7422(4) 0.11568(17)
H1 H 0.5169 0.601 0.3241
H2 H 0.6485 0.6572 0.2248
H3 H 0.8425 0.4855 0.3979
H4 H 0.72 0.4631 0.4966
H5 H 0.8996 0.538 0.2497
H6 H 0.7682 0.753 0.1557
H7 H 0.5634 0.1633 0.4925
H8 H 0.5568 0.0939 0.5752
N1D N 0.39168(16) 0.4780(3) 0.58433(14)
O1D O 0.08846(14) 0.1053(3) 0.91755(12)
O2D O 0.01412(16) 0.3669(3) 0.89138(15)
C1D C 0.4108(2) 0.4229(5) 0.66257(18)
C2D C 0.3392(2) 0.3986(5) 0.72213(18)
C3D C 0.2423(2) 0.4300(4) 0.70199(17)
C4D C 0.2233(2) 0.4912(4) 0.62119(18)
C5D C 0.2983(2) 0.5116(5) 0.56455(17)
C6D C 0.1621(2) 0.3993(4) 0.76138(18)
C7D C 0.1689(2) 0.3019(4) 0.82966(19)
C8D C 0.0825(2) 0.2578(4) 0.88432(17)
H1D H 0.4831 0.399 0.6759
H2D H 0.3515 0.3428 0.7752
H3D H 0.1575 0.5145 0.6021
H4D H 0.28 0.5369 0.5034
H5D H 0.1004 0.462 0.7503
H6D H 0.2318 0.247 0.8443
O3D O 0.42118(18) 0.7983(3) 0.45463(15)
H7D H 0.4366 0.8367 0.5075
H8D H 0.4432 0.9061 0.4248
O1A O 0.41154(14) 0.3947(3) 0.41755(12)
O1E O 0.58846(14) 0.6053(3) 0.58245(12)
Cu1A Cu 1.00000 1.0000 0.00000
Cu1A_2 Cu 0.00000 0.0000 1.00000
loop_
_geom_bond_atom_site_label_1
_geom_bond_atom_site_label_2
_geom_bond_site_symmetry_1
_geom_bond_site_symmetry_2
Cu1 N1 1_555 1_555
N1 C1 1_555 1_555
O1 C8 1_555 1_555
O2 C8 1_555 1_555
O3 Cu1 1_555 1_555
C1 C2 1_555 1_555
C2 C3 1_555 1_555
C3 C4 1_555 1_555
C4 C5 1_555 1_555
C5 N1 1_555 1_555
C6 C3 1_555 1_555
C7 C6 1_555 1_555
C8 C7 1_555 1_555
H1 C1 1_555 1_555
H2 C2 1_555 1_555
H3 C4 1_555 1_555
H4 C5 1_555 1_555
H5 C6 1_555 1_555
H6 C7 1_555 1_555
H7 O3 1_555 1_555
H8 O3 1_555 1_555
N1D Cu1 1_555 1_555
O1D C8D 1_555 1_555
O2D C8D 1_555 1_555
C1D N1D 1_555 1_555
C2D C1D 1_555 1_555
C3D C2D 1_555 1_555
C4D C3D 1_555 1_555
C5D N1D 1_555 1_555
C6D C3D 1_555 1_555
C7D C6D 1_555 1_555
C8D C7D 1_555 1_555
H1D C1D 1_555 1_555
H2D C2D 1_555 1_555
H3D C4D 1_555 1_555
H4D C5D 1_555 1_555
H5D C6D 1_555 1_555
H6D C7D 1_555 1_555
O3D Cu1 1_555 1_555
H7D O3D 1_555 1_555
H8D O3D 1_555 1_555
O1A Cu1 1_555 1_555
O1E Cu1 1_555 1_555
Cu1A O1 1_555 1_555
Cu1A_2 O1D 1_555 1_555
C4D C5D 1_555 1_555

#END
