
#######################################################################
#
#                 Cambridge Crystallographic Data Centre
#                                CCDC 
#
#######################################################################
#
# If this CIF has been generated from an entry in the Cambridge 
# Structural Database, then it will include bibliographic, chemical, 
# crystal, experimental, refinement or atomic coordinate data resulting 
# from the CCDC's data processing and validation procedures.
#
#######################################################################

data_ODIZOQ01
_symmetry_cell_setting           monoclinic
_symmetry_space_group_name_H-M   'C c'
_symmetry_Int_Tables_number      9
_space_group_name_Hall           'C -2yc'
loop_
_symmetry_equiv_pos_site_id
_symmetry_equiv_pos_as_xyz
1 x,y,z
2 x,-y,1/2+z
3 1/2+x,1/2+y,z
4 1/2+x,1/2-y,1/2+z
_cell_length_a                   11.6910(4)
_cell_length_b                   21.0101(6)
_cell_length_c                   8.5286(2)
_cell_angle_alpha                90
_cell_angle_beta                 130.693(2)
_cell_angle_gamma                90
_cell_volume                     1588.36
loop_
_atom_site_label
_atom_site_type_symbol
_atom_site_fract_x
_atom_site_fract_y
_atom_site_fract_z
C1 C 0.0885(4) 0.55061(18) 0.3756(5)
C2 C -0.0246(4) 0.50986(18) 0.1954(5)
H1 H -0.0084 0.4657 0.2056
C3 C -0.1464(4) 0.53355(18) 0.0224(5)
H2 H -0.1558 0.5781 0.0166
C4 C -0.2699(4) 0.49865(18) -0.1637(5)
C5 C -0.3973(4) 0.53091(18) -0.3251(5)
H3 H -0.4038 0.5752 -0.3163
C6 C -0.5153(4) 0.49854(18) -0.4996(5)
H4 H -0.6011 0.5216 -0.6073
C7 C -0.3894(4) 0.40411(18) -0.3677(6)
H5 H -0.3852 0.3600 -0.3819
C8 C -0.2670(4) 0.43348(19) -0.1877(6)
H6 H -0.1824 0.4094 -0.0822
C9 C 0.4299(4) 0.69704(16) 0.6767(5)
C10 C 0.4968(5) 0.74700(18) 0.6326(6)
H7 H 0.5384 0.7841 0.7139
C11 C 0.4974(5) 0.73912(18) 0.4802(5)
H8 H 0.4537 0.7013 0.4034
C12 C 0.5587(4) 0.78262(18) 0.4169(5)
C13 C 0.6485(4) 0.83536(16) 0.5308(5)
H9 H 0.6671 0.8473 0.6519
C14 C 0.7096(4) 0.86981(16) 0.4628(5)
H10 H 0.7718 0.9047 0.5425
C15 C 0.5931(5) 0.80695(18) 0.1754(5)
H11 H 0.5709 0.7975 0.0503
C16 C 0.5304(5) 0.76988(19) 0.2352(6)
H12 H 0.4677 0.7355 0.1518
N1 N -0.5129(3) 0.43583(15) -0.5219(4)
N2 N 0.6848(3) 0.85610(14) 0.2893(4)
O1 O 0.2042(3) 0.52365(11) 0.5411(4)
O2 O 0.0713(3) 0.60904(11) 0.3675(4)
O3 O 0.3812(3) 0.64619(13) 0.5735(4)
O4 O 0.4229(3) 0.70649(13) 0.8140(4)
Co1 Co 0.30096(5) 0.60605(2) 0.70282(5)
N1A N 0.4871(3) 0.56417(15) 0.9781(4)
N2C N 0.1848(3) 0.64390(14) 0.7893(4)
Co1A Co -0.69904(5) 0.39395(2) -0.79718(5)
Co1C Co 0.80096(5) 0.89395(2) 0.20282(5)
loop_
_geom_bond_atom_site_label_1
_geom_bond_atom_site_label_2
_geom_bond_site_symmetry_1
_geom_bond_site_symmetry_2
C1 C2 1_555 1_555
C2 H1 1_555 1_555
C3 C2 1_555 1_555
H2 C3 1_555 1_555
C4 C3 1_555 1_555
C5 C4 1_555 1_555
H3 C5 1_555 1_555
C6 C5 1_555 1_555
H4 C6 1_555 1_555
C7 H5 1_555 1_555
C8 C4 1_555 1_555
H6 C8 1_555 1_555
C9 C10 1_555 1_555
C10 H7 1_555 1_555
C11 C10 1_555 1_555
H8 C11 1_555 1_555
C12 C11 1_555 1_555
C13 C12 1_555 1_555
H9 C13 1_555 1_555
C14 C13 1_555 1_555
H10 C14 1_555 1_555
C15 H11 1_555 1_555
C16 C12 1_555 1_555
H12 C16 1_555 1_555
N1 C6 1_555 1_555
N2 C14 1_555 1_555
O1 C1 1_555 1_555
O2 C1 1_555 1_555
O3 C9 1_555 1_555
O4 C9 1_555 1_555
Co1 O1 1_555 1_555
N1A Co1 1_555 1_555
N2C Co1 1_555 1_555
Co1A N1 1_555 1_555
Co1C N2 1_555 1_555
C7 C8 1_555 1_555
C7 N1 1_555 1_555
C15 C16 1_555 1_555
C15 N2 1_555 1_555
O2 Co1 1_555 1_555
O3 Co1 1_555 1_555
O4 Co1 1_555 1_555

#END
