
#######################################################################
#
#                 Cambridge Crystallographic Data Centre
#                                CCDC 
#
#######################################################################
#
# If this CIF has been generated from an entry in the Cambridge 
# Structural Database, then it will include bibliographic, chemical, 
# crystal, experimental, refinement or atomic coordinate data resulting 
# from the CCDC's data processing and validation procedures.
#
#######################################################################

data_ODOBAL
_symmetry_cell_setting           monoclinic
_symmetry_space_group_name_H-M   'P c'
_symmetry_Int_Tables_number      7
_space_group_name_Hall           'P -2yc'
loop_
_symmetry_equiv_pos_site_id
_symmetry_equiv_pos_as_xyz
1 x,y,z
2 x,-y,1/2+z
_cell_length_a                   4.889(2)
_cell_length_b                   10.925(4)
_cell_length_c                   15.478(5)
_cell_angle_alpha                90
_cell_angle_beta                 97.62(1)
_cell_angle_gamma                90
_cell_volume                     819.415
loop_
_atom_site_label
_atom_site_type_symbol
_atom_site_fract_x
_atom_site_fract_y
_atom_site_fract_z
Cu1 Cu -0.00099(4) 0.02194(2) 0.00021(3)
N1 N -0.0706(5) -0.1592(2) 0.01071(16)
N2 N -0.3259(7) 0.0079(3) -0.0949(2)
O1 O 0.0693(4) 0.18502(19) -0.03836(13)
O2 O 0.3109(6) 0.3557(2) -0.02997(18)
O3 O 0.7654(4) 0.0880(2) 0.11082(13)
O4 O 0.3564(5) 0.0054(2) 0.06720(18)
C1 C 0.0637(7) -0.2402(3) 0.0638(2)
C2 C -0.0139(9) -0.3636(4) 0.0641(3)
C3 C -0.2367(9) -0.4032(3) 0.0080(3)
C4 C -0.3828(7) -0.3194(3) -0.0493(2)
C5 C -0.6212(8) -0.3500(4) -0.1113(3)
C6 C -0.7492(7) -0.2654(4) -0.1639(2)
C7 C -0.6593(6) -0.1392(3) -0.1621(2)
C8 C -0.7833(7) -0.0457(4) -0.2154(2)
C9 C -0.6762(8) 0.0712(4) -0.2067(2)
C10 C -0.4467(7) 0.0943(3) -0.1458(2)
C11 C -0.4287(6) -0.1075(3) -0.10214(19)
C12 C -0.2924(6) -0.1980(3) -0.04594(19)
C13 C 0.2454(6) 0.2584(3) 0.00241(19)
C14 C 0.3738(6) 0.2224(3) 0.09462(19)
C15 C 0.5106(5) 0.0965(3) 0.09144(17)
C16 C 0.5653(7) 0.3192(3) 0.1391(2)
H1 H 0.4663 0.3947 0.1417
H2 H 0.7175 0.3313 0.1067
H3 H 0.6336 0.2928 0.1972
H4 H 0.206(8) -0.213(3) 0.106(3)
H5 H 0.082(9) -0.416(4) 0.100(3)
H6 H -0.290(11) -0.485(4) 0.005(3)
H7 H -0.691(9) -0.419(4) -0.117(3)
H8 H -0.881(11) -0.288(5) -0.206(4)
H9 H -0.938(10) -0.051(4) -0.254(3)
H10 H -0.744(8) 0.140(4) -0.234(3)
H11 H -0.400(8) 0.174(4) -0.135(3)
H12 H 0.211(8) 0.210(4) 0.125(3)
Cu1_2 Cu 0.99901(4) 0.02194(2) 0.00021(3)
O3_2 O -0.2346(4) 0.0880(2) 0.11082(13)
O5 O 0.0870(9) 0.6306(5) 0.2897(3)
C17 C -0.1808(12) 0.5897(5) 0.2864(4)
H13 H -0.2396 0.5979 0.3429
H14 H -0.1904 0.5053 0.2691
H15 H -0.2989 0.6375 0.2448
H16 H 0.136(10) 0.636(4) 0.338(3)
loop_
_geom_bond_atom_site_label_1
_geom_bond_atom_site_label_2
_geom_bond_site_symmetry_1
_geom_bond_site_symmetry_2
Cu1 N1 1_555 1_555
N1 C1 1_555 1_555
N2 Cu1 1_555 1_555
O1 Cu1 1_555 1_555
O2 C13 1_555 1_555
O3 C15 1_555 1_555
O4 Cu1 1_555 1_555
C1 C2 1_555 1_555
C2 C3 1_555 1_555
C3 C4 1_555 1_555
C4 C5 1_555 1_555
C5 C6 1_555 1_555
C6 C7 1_555 1_555
C7 C8 1_555 1_555
C8 C9 1_555 1_555
C9 C10 1_555 1_555
C10 N2 1_555 1_555
C11 N2 1_555 1_555
C12 N1 1_555 1_555
C13 O1 1_555 1_555
C14 C13 1_555 1_555
C15 O4 1_555 1_555
C16 C14 1_555 1_555
H1 C16 1_555 1_555
H2 C16 1_555 1_555
H3 C16 1_555 1_555
H4 C1 1_555 1_555
H5 C2 1_555 1_555
H6 C3 1_555 1_555
H7 C5 1_555 1_555
H8 C6 1_555 1_555
H9 C8 1_555 1_555
H10 C9 1_555 1_555
H11 C10 1_555 1_555
H12 C14 1_555 1_555
O5 C17 1_555 1_555
C17 H13 1_555 1_555
H14 C17 1_555 1_555
H15 C17 1_555 1_555
H16 O5 1_555 1_555
Cu1_2 O3 1_555 1_555
O3_2 Cu1 1_555 1_555
C4 C12 1_555 1_555
C7 C11 1_555 1_555
C11 C12 1_555 1_555
C14 C15 1_555 1_555

#END
