
#######################################################################
#
#                 Cambridge Crystallographic Data Centre
#                                CCDC 
#
#######################################################################
#
# If this CIF has been generated from an entry in the Cambridge 
# Structural Database, then it will include bibliographic, chemical, 
# crystal, experimental, refinement or atomic coordinate data resulting 
# from the CCDC's data processing and validation procedures.
#
#######################################################################

data_ODOCER
_symmetry_cell_setting           triclinic
_symmetry_space_group_name_H-M   'P -1'
_symmetry_Int_Tables_number      2
_space_group_name_Hall           '-P 1'
loop_
_symmetry_equiv_pos_site_id
_symmetry_equiv_pos_as_xyz
1 x,y,z
2 -x,-y,-z
_cell_length_a                   4.2896(9)
_cell_length_b                   10.405(2)
_cell_length_c                   12.346(3)
_cell_angle_alpha                110.327(3)
_cell_angle_beta                 95.585(3)
_cell_angle_gamma                92.300(3)
_cell_volume                     512.657
loop_
_atom_site_label
_atom_site_type_symbol
_atom_site_fract_x
_atom_site_fract_y
_atom_site_fract_z
Cu1 Cu 0.5277(2) 0.12176(8) 0.84258(7)
Cu2 Cu 0.0138(2) 0.06160(8) 1.14610(7)
I1 I 0.03580(8) 0.19675(4) 0.99751(3)
I2 I 0.43521(9) -0.13729(4) 0.71767(3)
C1 C 0.0633(16) 0.1569(6) 0.6083(5)
H1 H -0.1610 0.1530 0.6174
H2 H 0.1520 0.0736 0.6135
H3 H 0.0901 0.1633 0.5324
C2 C 0.2263(14) 0.2782(6) 0.7010(5)
C3 C 0.5389(14) 0.4109(6) 0.8508(5)
H4 H 0.6953 0.4406 0.9162
C4 C 0.3766(13) 0.4942(6) 0.8080(5)
H5 H 0.3953 0.5919 0.8372
C5 C -0.0392(14) 0.4569(6) 0.6388(5)
H6 H -0.1102 0.5466 0.6855
H7 H -0.2263 0.3903 0.6089
C6 C 0.1108(13) 0.4718(6) 0.5367(5)
H8 H 0.3044 0.5345 0.5664
H9 H 0.1709 0.3810 0.4875
N1 N 0.4431(12) 0.2756(5) 0.7851(4)
N2 N 0.1786(11) 0.4098(5) 0.7136(4)
C1A C -0.0633(16) 0.8431(6) 0.3917(5)
H1A H 0.1610 0.8470 0.3826
H2A H -0.1520 0.9264 0.3865
H3A H -0.0901 0.8367 0.4676
C2A C -0.2263(14) 0.7218(6) 0.2990(5)
C3A C -0.5389(14) 0.5891(6) 0.1492(5)
H4A H -0.6953 0.5594 0.0838
C4A C -0.3766(13) 0.5058(6) 0.1920(5)
H5A H -0.3953 0.4081 0.1628
C5A C 0.0392(14) 0.5431(6) 0.3612(5)
H6A H 0.1102 0.4534 0.3145
H7A H 0.2263 0.6097 0.3911
C6A C -0.1108(13) 0.5282(6) 0.4633(5)
H8A H -0.3044 0.4655 0.4336
H9A H -0.1709 0.6190 0.5125
N1A N -0.4431(12) 0.7244(5) 0.2149(4)
N2A N -0.1786(11) 0.5902(5) 0.2864(4)
Cu1A Cu -0.5277(2) -0.12176(8) 1.15742(7)
Cu2A Cu -0.0138(2) -0.06160(8) 0.85390(7)
I1A I -0.03580(8) -0.19675(4) 1.00249(3)
I2A I -0.43521(9) 0.13729(4) 1.28233(3)
Cu1_2 Cu -0.4723(2) 0.12176(8) 0.84258(7)
Cu1A_2 Cu -0.5277(2) 0.87824(8) 0.15742(7)
Cu1A_3 Cu 0.4723(2) -0.12176(8) 1.15742(7)
Cu2_2 Cu -0.9862(2) 0.06160(8) 1.14610(7)
Cu2A_2 Cu 0.9862(2) -0.06160(8) 0.85390(7)
I1_2 I 1.03580(8) 0.19675(4) 0.99751(3)
I1A_2 I -1.03580(8) -0.19675(4) 1.00249(3)
I2_2 I -0.56479(9) -0.13729(4) 0.71767(3)
I2A_2 I 0.56479(9) 0.13729(4) 1.28233(3)
N1A_2 N -0.4431(12) -0.2756(5) 1.2149(4)
loop_
_geom_bond_atom_site_label_1
_geom_bond_atom_site_label_2
_geom_bond_site_symmetry_1
_geom_bond_site_symmetry_2
Cu1 I1 1_555 1_555
Cu2 I1 1_555 1_555
I1 Cu2A 1_555 1_555
I2 Cu1 1_555 1_555
C1 H1 1_555 1_555
H2 C1 1_555 1_555
H3 C1 1_555 1_555
C2 C1 1_555 1_555
C3 H4 1_555 1_555
C4 C3 1_555 1_555
H5 C4 1_555 1_555
C5 H6 1_555 1_555
H7 C5 1_555 1_555
C6 C5 1_555 1_555
H8 C6 1_555 1_555
H9 C6 1_555 1_555
N1 Cu1 1_555 1_555
N2 C2 1_555 1_555
C1A H1A 1_555 1_555
H2A C1A 1_555 1_555
H3A C1A 1_555 1_555
C2A C1A 1_555 1_555
C3A H4A 1_555 1_555
C4A C3A 1_555 1_555
H5A C4A 1_555 1_555
C5A H6A 1_555 1_555
H7A C5A 1_555 1_555
C6A C6 1_555 1_555
H8A C6A 1_555 1_555
H9A C6A 1_555 1_555
N1A C2A 1_555 1_555
N2A C2A 1_555 1_555
Cu1A I1A 1_555 1_555
Cu2A I2 1_555 1_555
I1A Cu2 1_555 1_555
I2A Cu2 1_555 1_555
Cu1_2 I1 1_555 1_555
Cu1A_2 N1A 1_555 1_555
Cu1A_3 Cu2 1_555 1_555
Cu2_2 Cu1A 1_555 1_555
Cu2A_2 Cu1 1_555 1_555
I1_2 Cu1 1_555 1_555
I1A_2 Cu1A 1_555 1_555
I2_2 Cu2A 1_555 1_555
I2A_2 Cu2 1_555 1_555
N1A_2 Cu1A 1_555 1_555
I2 Cu2A_2 1_555 1_555
C2 N1 1_555 1_555
C3 N1 1_555 1_555
C4 N2 1_555 1_555
C5 N2 1_555 1_555
C3A N1A 1_555 1_555
C4A N2A 1_555 1_555
C5A C6A 1_555 1_555
C5A N2A 1_555 1_555
Cu1A I2A 1_555 1_555
Cu2A I1A 1_555 1_555
Cu2A Cu1_2 1_555 1_555
I1A Cu1A_3 1_555 1_555
I2A Cu2_2 1_555 1_555
Cu1_2 I2_2 1_555 1_555
Cu1A_3 I2A_2 1_555 1_555
Cu2_2 I1A_2 1_555 1_555
Cu2A_2 I1_2 1_555 1_555

#END
