
#######################################################################
#
#                 Cambridge Crystallographic Data Centre
#                                CCDC 
#
#######################################################################
#
# If this CIF has been generated from an entry in the Cambridge 
# Structural Database, then it will include bibliographic, chemical, 
# crystal, experimental, refinement or atomic coordinate data resulting 
# from the CCDC's data processing and validation procedures.
#
#######################################################################

data_ODOCOB01
_symmetry_cell_setting           monoclinic
_symmetry_space_group_name_H-M   'C 2/c'
_symmetry_Int_Tables_number      15
_space_group_name_Hall           '-C 2yn'
loop_
_symmetry_equiv_pos_site_id
_symmetry_equiv_pos_as_xyz
1 x,y,z
2 -x,y,1/2-z
3 1/2+x,1/2+y,z
4 1/2-x,1/2+y,1/2-z
5 -x,-y,-z
6 x,-y,1/2+z
7 1/2-x,1/2-y,-z
8 1/2+x,1/2-y,1/2+z
_cell_length_a                   43.528(14)
_cell_length_b                   4.1804(13)
_cell_length_c                   24.057(7)
_cell_angle_alpha                90
_cell_angle_beta                 115.413(5)
_cell_angle_gamma                90
_cell_volume                     3953.94
loop_
_atom_site_label
_atom_site_type_symbol
_atom_site_fract_x
_atom_site_fract_y
_atom_site_fract_z
Cu1 Cu 0.65071(4) 0.9569(3) 0.30506(6)
Cu2 Cu 0.46293(3) 0.0760(3) 0.31256(6)
Cu3 Cu 0.54340(3) 0.5360(3) 0.27175(6)
Cu4 Cu 0.70032(3) 1.4030(3) 0.36224(6)
I1 I 0.508631(15) 0.55972(14) 0.34103(3)
I2 I 0.653992(16) 1.45354(13) 0.24150(3)
I3 I 0.584361(15) 1.02853(13) 0.30027(3)
I4 I 0.691333(18) 0.90408(14) 0.42104(3)
C1 C 0.4213(2) -0.046(2) 0.3817(4)
H1 H 0.4041 -0.1432 0.3478
C2 C 0.4672(3) 0.195(3) 0.4402(4)
H2 H 0.4881 0.2981 0.4537
C3 C 0.4510(2) 0.135(3) 0.4751(4)
H3 H 0.4582 0.1887 0.5163
C4 C 0.3953(2) -0.133(2) 0.4545(4)
C5 C 0.4049(3) -0.288(2) 0.5107(4)
H4 H 0.4277 -0.3130 0.5373
C6 C 0.3801(3) -0.403(2) 0.5265(4)
H5 H 0.3864 -0.5049 0.5642
C7 C 0.3455(3) -0.370(2) 0.4864(4)
H6 H 0.3289 -0.4557 0.4966
C8 C 0.3364(2) -0.206(2) 0.4312(4)
C9 C 0.3612(2) -0.0913(19) 0.4152(4)
H7 H 0.3551 0.0145 0.3779
C10 C 0.2746(3) -0.196(2) 0.4040(4)
H8 H 0.2761 -0.2944 0.4398
C11 C 0.2889(3) -0.002(3) 0.3354(5)
H9 H 0.3009 0.0626 0.3134
C12 C 0.2550(3) 0.024(2) 0.3178(4)
H10 H 0.2397 0.1157 0.2810
N1 N 0.4484(2) 0.0836(18) 0.3807(3)
N2 N 0.42105(18) -0.0237(17) 0.4377(3)
N3 N 0.30188(19) -0.1442(17) 0.3930(3)
N4 N 0.24614(19) -0.1019(18) 0.3615(3)
Cu1_2 Cu 0.65071(4) 1.9569(3) 0.30506(6)
Cu2_2 Cu 0.46293(3) 1.0760(3) 0.31256(6)
Cu2A Cu 0.53707(3) 0.0760(3) 0.18744(6)
Cu2A_2 Cu 0.53707(3) 1.0760(3) 0.18744(6)
Cu3_2 Cu 0.54340(3) 1.5360(3) 0.27175(6)
Cu3A Cu 0.45660(3) 0.5360(3) 0.22825(6)
Cu4_2 Cu 0.70032(3) 0.4030(3) 0.36224(6)
Cu4B Cu 0.20032(3) -0.0970(3) 0.36224(6)
I1_2 I 0.508631(15) -0.44028(14) 0.34103(3)
I1A I 0.491369(15) 0.55972(14) 0.15897(3)
I2_2 I 0.653992(16) 0.45354(13) 0.24150(3)
I3_2 I 0.584361(15) 0.02853(13) 0.30027(3)
I3A I 0.415639(15) 0.02853(13) 0.19973(3)
I4_2 I 0.691333(18) 1.90408(14) 0.42104(3)
N4B N 0.74614(19) 1.3981(18) 0.3615(3)
loop_
_geom_bond_atom_site_label_1
_geom_bond_atom_site_label_2
_geom_bond_site_symmetry_1
_geom_bond_site_symmetry_2
Cu1 Cu4 1_555 1_555
Cu2 I1 1_555 1_555
Cu3 I1 1_555 1_555
Cu4 I2 1_555 1_555
I1 Cu2_2 1_555 1_555
I2 Cu1 1_555 1_555
I3 Cu1 1_555 1_555
I4 Cu1 1_555 1_555
C1 H1 1_555 1_555
C2 H2 1_555 1_555
C3 C2 1_555 1_555
H3 C3 1_555 1_555
C4 C5 1_555 1_555
C5 H4 1_555 1_555
C6 C5 1_555 1_555
H5 C6 1_555 1_555
C7 C6 1_555 1_555
H6 C7 1_555 1_555
C8 C7 1_555 1_555
C9 C4 1_555 1_555
H7 C9 1_555 1_555
C10 H8 1_555 1_555
C11 H9 1_555 1_555
C12 C11 1_555 1_555
H10 C12 1_555 1_555
N1 Cu2 1_555 1_555
N2 C1 1_555 1_555
N3 C8 1_555 1_555
N4 C10 1_555 1_555
Cu1_2 I2 1_555 1_555
Cu2A Cu3 1_555 1_555
Cu2A_2 I3 1_555 1_555
Cu3_2 I3 1_555 1_555
Cu3A Cu2 1_555 1_555
Cu4_2 I4 1_555 1_555
Cu4B N4 1_555 1_555
I1_2 Cu2 1_555 1_555
I1A Cu3 1_555 1_555
I2_2 Cu1 1_555 1_555
I3_2 Cu3 1_555 1_555
I3A Cu2 1_555 1_555
I4_2 Cu4 1_555 1_555
N4B Cu4 1_555 1_555
Cu3 I3 1_555 1_555
Cu4 I4 1_555 1_555
I1 Cu3A 1_555 1_555
C1 N1 1_555 1_555
C2 N1 1_555 1_555
C3 N2 1_555 1_555
C4 N2 1_555 1_555
C8 C9 1_555 1_555
C10 N3 1_555 1_555
C11 N3 1_555 1_555
C12 N4 1_555 1_555
Cu1_2 I4_2 1_555 1_555
Cu2A I1A 1_555 1_555
Cu2A I3_2 1_555 1_555
Cu2A_2 Cu3_2 1_555 1_555
Cu2A_2 I1A 1_555 1_555
Cu3A I1A 1_555 1_555
Cu3A I3A 1_555 1_555
Cu4_2 I2_2 1_555 1_555

#END
