
#######################################################################
#
#                 Cambridge Crystallographic Data Centre
#                                CCDC 
#
#######################################################################
#
# If this CIF has been generated from an entry in the Cambridge 
# Structural Database, then it will include bibliographic, chemical, 
# crystal, experimental, refinement or atomic coordinate data resulting 
# from the CCDC's data processing and validation procedures.
#
#######################################################################

data_ODODIU
_symmetry_cell_setting           triclinic
_symmetry_space_group_name_H-M   'P -1'
_symmetry_Int_Tables_number      2
_space_group_name_Hall           '-P 1'
loop_
_symmetry_equiv_pos_site_id
_symmetry_equiv_pos_as_xyz
1 x,y,z
2 -x,-y,-z
_cell_length_a                   9.923(2)
_cell_length_b                   12.623(2)
_cell_length_c                   13.111(2)
_cell_angle_alpha                64.26(2)
_cell_angle_beta                 88.79(2)
_cell_angle_gamma                74.25(2)
_cell_volume                     1414.87
loop_
_atom_site_label
_atom_site_type_symbol
_atom_site_fract_x
_atom_site_fract_y
_atom_site_fract_z
Ba1 Ba 0.50000 0.50000 0.50000
C1 C 0.1925(7) 0.4234(8) 0.6343(6)
O1 O 0.3015(5) 0.3718(5) 0.5889(5)
C2 C 0.3049(15) 0.2659(11) 0.5741(10)
H1 H 0.3095(15) 0.1987(11) 0.6489(10)
H2 H 0.2162(15) 0.2824(11) 0.5323(10)
C3 C 0.4090(14) 0.2271(14) 0.5209(18)
H3 H 0.3686(14) 0.2004(14) 0.4728(18)
H4 H 0.4755(14) 0.1545(14) 0.5788(18)
O2 O 0.4873(7) 0.3045(6) 0.4532(6)
C4 C 0.4878(24) 0.3253(14) 0.3396(13)
H5 H 0.5487(24) 0.2511(14) 0.3391(13)
H6 H 0.3932(24) 0.3335(14) 0.3132(13)
C5 C 0.5249(23) 0.4166(22) 0.2635(16)
H7 H 0.4687(23) 0.4439(22) 0.1923(16)
H8 H 0.6220(23) 0.3846(22) 0.2532(16)
O3 O 0.5158(7) 0.5213(7) 0.2794(5)
C6 C 0.4369(15) 0.6281(16) 0.1868(8)
H9 H 0.4899(15) 0.6433(16) 0.1214(8)
H10 H 0.3505(15) 0.6152(16) 0.1681(8)
C7 C 0.4038(17) 0.7289(12) 0.2060(8)
H11 H 0.3346(17) 0.7942(12) 0.1445(8)
H12 H 0.4878(17) 0.7554(12) 0.2018(8)
O4 O 0.3494(6) 0.7167(5) 0.3124(4)
C8 C 0.2043(10) 0.7605(10) 0.3043(8)
H13 H 0.1615(10) 0.7214(10) 0.2700(8)
H14 H 0.1744(10) 0.8483(10) 0.2554(8)
C9 C 0.1563(9) 0.7360(8) 0.4165(9)
H15 H 0.1878(9) 0.7840(8) 0.4468(9)
H16 H 0.0542(9) 0.7590(8) 0.4101(9)
O5 O 0.2138(5) 0.6063(5) 0.4916(5)
C10 C 0.1469(7) 0.5502(8) 0.5855(6)
C11 C 0.0467(9) 0.6100(12) 0.6306(9)
H17 H 0.0187(9) 0.6954(12) 0.5983(9)
C12 C -0.0112(12) 0.5459(15) 0.7211(10)
H18 H -0.0802(12) 0.5880(15) 0.7502(10)
C13 C 0.0270(9) 0.4225(10) 0.7715(5)
H19 H -0.0157(9) 0.3808(10) 0.8343(5)
C14 C 0.1316(9) 0.3557(10) 0.7295(5)
H20 H 0.1591(9) 0.2703(10) 0.7635(5)
C1A C 0.8075(7) 0.5766(8) 0.3657(6)
O1A O 0.6985(5) 0.6282(5) 0.4111(5)
C2A C 0.6951(15) 0.7341(11) 0.4259(10)
H1A H 0.6905(15) 0.8013(11) 0.3511(10)
H2A H 0.7838(15) 0.7176(11) 0.4677(10)
C3A C 0.5910(14) 0.7729(14) 0.4791(18)
H3A H 0.6314(14) 0.7996(14) 0.5272(18)
H4A H 0.5245(14) 0.8455(14) 0.4212(18)
O2A O 0.5127(7) 0.6955(6) 0.5468(6)
C4A C 0.5122(24) 0.6747(14) 0.6604(13)
H5A H 0.4513(24) 0.7489(14) 0.6609(13)
H6A H 0.6068(24) 0.6665(14) 0.6868(13)
C5A C 0.4751(23) 0.5834(22) 0.7365(16)
H7A H 0.5313(23) 0.5561(22) 0.8077(16)
H8A H 0.3780(23) 0.6154(22) 0.7468(16)
O3A O 0.4842(7) 0.4787(7) 0.7206(5)
C6A C 0.5631(15) 0.3719(16) 0.8132(8)
H9A H 0.5101(15) 0.3567(16) 0.8786(8)
H10A H 0.6495(15) 0.3848(16) 0.8319(8)
C7A C 0.5962(17) 0.2711(12) 0.7940(8)
H11A H 0.6654(17) 0.2058(12) 0.8555(8)
H12A H 0.5122(17) 0.2446(12) 0.7982(8)
O4A O 0.6506(6) 0.2833(5) 0.6876(4)
C8A C 0.7957(10) 0.2395(10) 0.6957(8)
H13A H 0.8385(10) 0.2786(10) 0.7300(8)
H14A H 0.8256(10) 0.1517(10) 0.7446(8)
C9A C 0.8437(9) 0.2640(8) 0.5835(9)
H15A H 0.8122(9) 0.2160(8) 0.5532(9)
H16A H 0.9458(9) 0.2410(8) 0.5899(9)
O5A O 0.7862(5) 0.3937(5) 0.5084(5)
C10A C 0.8531(7) 0.4498(8) 0.4145(6)
C11A C 0.9533(9) 0.3900(12) 0.3694(9)
H17A H 0.9813(9) 0.3046(12) 0.4017(9)
C12A C 1.0112(12) 0.4541(15) 0.2789(10)
H18A H 1.0802(12) 0.4120(15) 0.2498(10)
C13A C 0.9730(9) 0.5775(10) 0.2285(5)
H19A H 1.0157(9) 0.6192(10) 0.1657(5)
C14A C 0.8684(9) 0.6443(10) 0.2705(5)
H20A H 0.8409(9) 0.7297(10) 0.2365(5)
I1 I -0.74341(6) 0.11542(6) 1.08994(5)
I2 I -0.43612(5) 0.06494(4) 1.11753(4)
I3 I -0.13277(6) 0.02501(6) 1.13259(5)
I4 I -0.77780(6) 0.05921(5) 1.35682(5)
I5 I -0.18740(6) 0.00545(6) 1.41684(5)
I6 I -0.18281(6) 0.32805(6) 1.06571(5)
I7 I -0.76645(7) 0.42373(6) 1.01265(5)
I5A I -0.81260(6) -0.00545(6) 1.58316(5)
I4A I -0.22220(6) -0.05921(5) 1.64318(5)
I7A I -0.23355(7) 0.57627(6) 0.98735(5)
I6A I -0.81719(6) 0.67195(6) 0.93429(5)
loop_
_geom_bond_atom_site_label_1
_geom_bond_atom_site_label_2
_geom_bond_site_symmetry_1
_geom_bond_site_symmetry_2
Ba1 O1 1_555 1_555
I1 I2 1_555 1_555
I2 I3 1_555 1_555
I3 I5 1_555 1_555
I4 I1 1_555 1_555
I5 I4A 1_555 1_555
I6 I3 1_555 1_555
I7 I1 1_555 1_555
C1 O1 1_555 1_555
O1 C2 1_555 1_555
C2 H1 1_555 1_555
H2 C2 1_555 1_555
C3 C2 1_555 1_555
H3 C3 1_555 1_555
H4 C3 1_555 1_555
O2 Ba1 1_555 1_555
C4 O2 1_555 1_555
H5 C4 1_555 1_555
H6 C4 1_555 1_555
C5 C4 1_555 1_555
H7 C5 1_555 1_555
H8 C5 1_555 1_555
O3 Ba1 1_555 1_555
C6 O3 1_555 1_555
H9 C6 1_555 1_555
H10 C6 1_555 1_555
C7 C6 1_555 1_555
H11 C7 1_555 1_555
H12 C7 1_555 1_555
O4 Ba1 1_555 1_555
C8 O4 1_555 1_555
H13 C8 1_555 1_555
H14 C8 1_555 1_555
C9 C8 1_555 1_555
H15 C9 1_555 1_555
H16 C9 1_555 1_555
O5 Ba1 1_555 1_555
C10 C1 1_555 1_555
C11 C10 1_555 1_555
H17 C11 1_555 1_555
C12 C11 1_555 1_555
H18 C12 1_555 1_555
C13 C12 1_555 1_555
H19 C13 1_555 1_555
C14 C1 1_555 1_555
H20 C14 1_555 1_555
I5A I4 1_555 1_555
I7A I6 1_555 1_555
I6A I7 1_555 1_555
C1A O1A 1_555 1_555
O1A Ba1 1_555 1_555
C2A O1A 1_555 1_555
H1A C2A 1_555 1_555
H2A C2A 1_555 1_555
C3A C2A 1_555 1_555
H3A C3A 1_555 1_555
H4A C3A 1_555 1_555
O2A Ba1 1_555 1_555
C4A O2A 1_555 1_555
H5A C4A 1_555 1_555
H6A C4A 1_555 1_555
C5A C4A 1_555 1_555
H7A C5A 1_555 1_555
H8A C5A 1_555 1_555
O3A Ba1 1_555 1_555
C6A O3A 1_555 1_555
H9A C6A 1_555 1_555
H10A C6A 1_555 1_555
C7A C6A 1_555 1_555
H11A C7A 1_555 1_555
H12A C7A 1_555 1_555
O4A Ba1 1_555 1_555
C8A O4A 1_555 1_555
H13A C8A 1_555 1_555
H14A C8A 1_555 1_555
C9A C8A 1_555 1_555
H15A C9A 1_555 1_555
H16A C9A 1_555 1_555
O5A Ba1 1_555 1_555
C10A C1A 1_555 1_555
C11A C10A 1_555 1_555
H17A C11A 1_555 1_555
C12A C11A 1_555 1_555
H18A C12A 1_555 1_555
C13A C12A 1_555 1_555
H19A C13A 1_555 1_555
C14A C1A 1_555 1_555
H20A C14A 1_555 1_555
C3 O2 1_555 1_555
C5 O3 1_555 1_555
C7 O4 1_555 1_555
C9 O5 1_555 1_555
O5 C10 1_555 1_555
C13 C14 1_555 1_555
C3A O2A 1_555 1_555
C5A O3A 1_555 1_555
C7A O4A 1_555 1_555
C9A O5A 1_555 1_555
O5A C10A 1_555 1_555
C13A C14A 1_555 1_555

#END
