
#######################################################################
#
#                 Cambridge Crystallographic Data Centre
#                                CCDC 
#
#######################################################################
#
# If this CIF has been generated from an entry in the Cambridge 
# Structural Database, then it will include bibliographic, chemical, 
# crystal, experimental, refinement or atomic coordinate data resulting 
# from the CCDC's data processing and validation procedures.
#
#######################################################################

data_ODODAN
_symmetry_cell_setting           monoclinic
_symmetry_space_group_name_H-M   'P 21/c'
_symmetry_Int_Tables_number      14
_space_group_name_Hall           '-P 2ybc'
loop_
_symmetry_equiv_pos_site_id
_symmetry_equiv_pos_as_xyz
1 x,y,z
2 -x,1/2+y,1/2-z
3 -x,-y,-z
4 x,1/2-y,1/2+z
_cell_length_a                   17.5627(6)
_cell_length_b                   12.7625(4)
_cell_length_c                   15.5101(5)
_cell_angle_alpha                90
_cell_angle_beta                 107.838(2)
_cell_angle_gamma                90
_cell_volume                     3309.37
loop_
_atom_site_label
_atom_site_type_symbol
_atom_site_fract_x
_atom_site_fract_y
_atom_site_fract_z
C1 C 0.3425(3) 0.6976(4) 0.1496(3)
H1 H 0.3841 0.7389 0.1848
C2 C 0.2830(3) 0.6508(4) 0.1815(4)
H2 H 0.2785 0.6558 0.2396
C3 C 0.2334(3) 0.5967(4) 0.1096(4)
H3 H 0.1887 0.5576 0.1096
C4 C 0.2633(3) 0.6119(4) 0.0349(3)
C5 C 0.2343(3) 0.5676(3) -0.0519(3)
C6 C 0.2692(3) 0.5796(3) -0.1209(3)
C7 C 0.2470(3) 0.5279(4) -0.2061(3)
H4 H 0.2028 0.4844 -0.2290
C8 C 0.3031(3) 0.5539(4) -0.2490(3)
H5 H 0.3049 0.5313 -0.3053
C9 C 0.3571(3) 0.6229(4) -0.1879(3)
H6 H 0.4015 0.6529 -0.1988
C10 C 0.1628(4) 0.4968(5) -0.0707(6)
C11 C 0.1701(4) 0.3988(5) -0.0411(6)
H7 H 0.2203 0.3752 -0.0067
C12 C 0.1058(4) 0.3298(5) -0.0594(6)
H8 H 0.1135 0.2612 -0.0383
C13 C 0.0338(4) 0.3619(5) -0.1068(6)
C14 C 0.0253(4) 0.4614(5) -0.1418(6)
H9 H -0.0244 0.4844 -0.1782
C15 C 0.0909(4) 0.5275(5) -0.1227(6)
H10 H 0.0846 0.5948 -0.1468
C16 C -0.0332(4) 0.2913(5) -0.1271(5)
C17 C 0.5686(4) 0.8993(5) 0.1922(4)
C18 C 0.5236(3) 0.8578(4) 0.0979(3)
C19 C 0.5561(3) 0.8789(4) 0.0293(4)
H11 H 0.6005 0.9227 0.0405
C20 C 0.5235(3) 0.8354(4) -0.0565(4)
C21 C 0.5691(4) 0.8516(5) -0.1246(4)
C22 C 0.1961(4) 1.0119(5) -0.1200(4)
N1 N 0.3311(2) 0.6748(3) 0.0621(3)
N2 N 0.3367(2) 0.6393(3) -0.1136(3)
N3 N -0.0851(3) 0.2352(4) -0.1418(4)
O1 O 0.4634(2) 0.8032(3) 0.0946(2)
O2 O 0.4622(2) 0.7796(3) -0.0839(2)
O3 O 0.3106(2) 0.8831(3) -0.0554(3)
O4 O 0.2071(3) 0.8954(4) 0.0166(3)
O5 O 0.1795(3) 0.8129(4) -0.1295(4)
F1 F 0.5256(2) 0.8967(3) 0.2477(2)
F2 F 0.6342(2) 0.8439(4) 0.2290(3)
F3 F 0.5921(3) 0.9990(3) 0.1881(3)
F4 F 0.5965(3) 0.9506(3) -0.1211(3)
F5 F 0.6335(2) 0.7895(4) -0.1047(3)
F6 F 0.5263(2) 0.8323(3) -0.2086(2)
F7 F 0.2360(3) 1.0905(3) -0.0693(3)
F8 F 0.1190(2) 1.0307(3) -0.1329(3)
F9 F 0.2084(3) 1.0164(4) -0.1998(3)
S1 S 0.22679(8) 0.88563(10) -0.06541(9)
Cu1 Cu 0.39302(3) 0.73008(4) -0.01272(4)
Ag1 Ag 0.20829(2) 0.82354(3) 0.16351(3)
C1C C 0.3425(3) 0.8024(4) 0.6496(3)
H1C H 0.3841 0.7611 0.6848
C2C C 0.2830(3) 0.8492(4) 0.6815(4)
C2C_2 C 0.2830(3) 0.8492(4) -0.3185(4)
H2C H 0.2785 0.8442 0.7396
H2C_2 H 0.2785 0.8442 -0.2604
C3C C 0.2334(3) 0.9033(4) 0.6096(4)
H3C H 0.1887 0.9424 0.6096
C4C C 0.2633(3) 0.8881(4) 0.5349(3)
C5C C 0.2343(3) 0.9324(3) 0.4481(3)
C6C C 0.2692(3) 0.9204(3) 0.3791(3)
C7C C 0.2470(3) 0.9721(4) 0.2939(3)
H4C H 0.2028 1.0156 0.2710
C8C C 0.3031(3) 0.9461(4) 0.2510(3)
H5C H 0.3049 0.9687 0.1947
C9C C 0.3571(3) 0.8771(4) 0.3121(3)
H6C H 0.4015 0.8471 0.3012
C10C C 0.1628(4) 1.0032(5) 0.4293(6)
C11C C 0.1701(4) 1.1012(5) 0.4589(6)
H7C H 0.2203 1.1248 0.4933
C12C C 0.1058(4) 1.1702(5) 0.4406(6)
H8C H 0.1135 1.2388 0.4617
C13C C 0.0338(4) 1.1381(5) 0.3932(6)
C14C C 0.0253(4) 1.0386(5) 0.3582(6)
H9C H -0.0244 1.0156 0.3218
C15C C 0.0909(4) 0.9725(5) 0.3773(6)
H10C H 0.0846 0.9052 0.3532
C16C C -0.0332(4) 1.2087(5) 0.3729(5)
C17C C 0.5686(4) 0.6007(5) 0.6922(4)
C18C C 0.5236(3) 0.6422(4) 0.5979(3)
C19C C 0.5561(3) 0.6211(4) 0.5293(4)
H11C H 0.6005 0.5773 0.5405
C20C C 0.5235(3) 0.6646(4) 0.4435(4)
C21C C 0.5691(4) 0.6484(5) 0.3754(4)
C22C C 0.1961(4) 0.4881(5) -0.6200(4)
N1C N 0.3311(2) 0.8252(3) 0.5621(3)
N2C N 0.3367(2) 0.8607(3) 0.3864(3)
N3C N -0.0851(3) 1.2648(4) 0.3582(4)
N3B N 0.0851(3) 0.7648(4) 0.1418(4)
N3A N 0.0851(3) 0.7352(4) -0.3582(4)
O1C O 0.4634(2) 0.6968(3) 0.5946(2)
O2C O 0.4622(2) 0.7204(3) 0.4161(2)
O3C O 0.3106(2) 0.6169(3) -0.5554(3)
O3C_2 O 0.3106(2) 0.6169(3) 0.4446(3)
O4C O 0.2071(3) 0.6046(4) -0.4834(3)
O5C O 0.1795(3) 0.6871(4) -0.6295(4)
F1C F 0.5256(2) 0.6033(3) 0.7477(2)
F2C F 0.6342(2) 0.6561(4) 0.7290(3)
F3C F 0.5921(3) 0.5010(3) 0.6881(3)
F4C F 0.5965(3) 0.5494(3) 0.3789(3)
F5C F 0.6335(2) 0.7105(4) 0.3953(3)
F6C F 0.5263(2) 0.6677(3) 0.2914(2)
F7C F 0.2360(3) 0.4095(3) -0.5693(3)
F8C F 0.1190(2) 0.4693(3) -0.6329(3)
F9C F 0.2084(3) 0.4836(4) -0.6998(3)
S1C S 0.22679(8) 0.61437(10) -0.56541(9)
Cu1C Cu 0.39302(3) 0.76992(4) 0.48728(4)
Cu1C_2 Cu 0.39302(3) 0.76992(4) -0.51272(4)
Ag1C Ag 0.20829(2) 0.67646(3) -0.33649(3)
Ag1B Ag -0.20829(2) 0.17646(3) -0.16351(3)
Ag1C_2 Ag 0.20829(2) 0.67646(3) 0.66351(3)
Ag1A Ag -0.20829(2) 1.32354(3) 0.33649(3)
C23 C 0.1102(5) 0.1001(5) 0.0896(5)
H12 H 0.1185 0.0417 0.0578
C24 C 0.1725(5) 0.1659(7) 0.1314(6)
H13 H 0.2233 0.1532 0.1272
C25 C 0.1589(5) 0.2513(6) 0.1796(6)
H14 H 0.2002 0.2975 0.2070
C26 C 0.0854(6) 0.2667(7) 0.1865(6)
H15 H 0.0770 0.3220 0.2216
C27 C 0.0240(5) 0.2049(7) 0.1446(6)
H16 H -0.0266 0.2187 0.1490
C28 C 0.0355(5) 0.1220(6) 0.0957(5)
H17 H -0.0075 0.0796 0.0660
C29 C 0.5544(5) 0.5755(6) 0.0442(6)
H18 H 0.5912 0.6257 0.0747
C30 C 0.4984(6) 0.5366(6) 0.0817(5)
H19 H 0.4972 0.5624 0.1374
C31 C 0.5551(6) 0.5385(7) -0.0397(6)
H20 H 0.5916 0.5647 -0.0668
C29B C 0.4456(5) 0.4245(6) -0.0442(6)
H18B H 0.4088 0.3743 -0.0747
C30B C 0.5016(6) 0.4634(6) -0.0817(5)
H19B H 0.5028 0.4376 -0.1374
C31B C 0.4449(6) 0.4615(7) 0.0397(6)
H20B H 0.4084 0.4353 0.0668
loop_
_geom_bond_atom_site_label_1
_geom_bond_atom_site_label_2
_geom_bond_site_symmetry_1
_geom_bond_site_symmetry_2
C1 H1 1_555 1_555
C2 C1 1_555 1_555
H2 C2 1_555 1_555
C3 C2 1_555 1_555
H3 C3 1_555 1_555
C4 C3 1_555 1_555
C5 C4 1_555 1_555
C6 C5 1_555 1_555
C7 C6 1_555 1_555
H4 C7 1_555 1_555
C8 C7 1_555 1_555
H5 C8 1_555 1_555
C9 C8 1_555 1_555
H6 C9 1_555 1_555
C10 C5 1_555 1_555
C11 C10 1_555 1_555
H7 C11 1_555 1_555
C12 C11 1_555 1_555
H8 C12 1_555 1_555
C13 C12 1_555 1_555
C14 C13 1_555 1_555
H9 C14 1_555 1_555
C15 C10 1_555 1_555
H10 C15 1_555 1_555
C16 C13 1_555 1_555
C17 C18 1_555 1_555
C18 C19 1_555 1_555
C19 H11 1_555 1_555
C20 C19 1_555 1_555
C21 C20 1_555 1_555
C22 F7 1_555 1_555
N1 C1 1_555 1_555
N2 C6 1_555 1_555
N3 C16 1_555 1_555
O1 C18 1_555 1_555
O2 C20 1_555 1_555
O3 S1 1_555 1_555
O4 S1 1_555 1_555
O5 S1 1_555 1_555
F1 C17 1_555 1_555
F2 C17 1_555 1_555
F3 C17 1_555 1_555
F4 C21 1_555 1_555
F5 C21 1_555 1_555
F6 C21 1_555 1_555
F8 C22 1_555 1_555
F9 C22 1_555 1_555
S1 C22 1_555 1_555
Cu1 N1 1_555 1_555
Ag1 C2 1_555 1_555
C23 H12 1_555 1_555
C24 C23 1_555 1_555
H13 C24 1_555 1_555
C25 C24 1_555 1_555
H14 C25 1_555 1_555
C26 C25 1_555 1_555
H15 C26 1_555 1_555
C27 C26 1_555 1_555
H16 C27 1_555 1_555
C28 C23 1_555 1_555
H17 C28 1_555 1_555
C29 H18 1_555 1_555
C30 C29 1_555 1_555
H19 C30 1_555 1_555
C31 C29 1_555 1_555
H20 C31 1_555 1_555
C1C H1C 1_555 1_555
C2C C1C 1_555 1_555
C2C_2 H2C_2 1_555 1_555
H2C C2C 1_555 1_555
C3C C2C 1_555 1_555
H3C C3C 1_555 1_555
C4C C3C 1_555 1_555
C5C C4C 1_555 1_555
C6C C5C 1_555 1_555
C7C Ag1 1_555 1_555
H4C C7C 1_555 1_555
C8C Ag1 1_555 1_555
H5C C8C 1_555 1_555
C9C C8C 1_555 1_555
H6C C9C 1_555 1_555
C10C C5C 1_555 1_555
C11C C10C 1_555 1_555
H7C C11C 1_555 1_555
C12C C11C 1_555 1_555
H8C C12C 1_555 1_555
C13C C12C 1_555 1_555
C14C C13C 1_555 1_555
H9C C14C 1_555 1_555
C15C C10C 1_555 1_555
H10C C15C 1_555 1_555
C16C C13C 1_555 1_555
C17C C18C 1_555 1_555
C18C C19C 1_555 1_555
C19C H11C 1_555 1_555
C20C C19C 1_555 1_555
C21C C20C 1_555 1_555
C22C F7C 1_555 1_555
N1C C1C 1_555 1_555
N2C C6C 1_555 1_555
N3C C16C 1_555 1_555
N3B Ag1 1_555 1_555
N3A Ag1C 1_555 1_555
O1C C18C 1_555 1_555
O2C C20C 1_555 1_555
O3C S1C 1_555 1_555
O3C_2 Cu1C 1_555 1_555
O4C S1C 1_555 1_555
O5C S1C 1_555 1_555
F1C C17C 1_555 1_555
F2C C17C 1_555 1_555
F3C C17C 1_555 1_555
F4C C21C 1_555 1_555
F5C C21C 1_555 1_555
F6C C21C 1_555 1_555
F8C C22C 1_555 1_555
F9C C22C 1_555 1_555
S1C C22C 1_555 1_555
Cu1C N1C 1_555 1_555
Cu1C_2 O3C 1_555 1_555
Ag1C C7 1_555 1_555
Ag1B N3 1_555 1_555
Ag1C_2 C2C 1_555 1_555
Ag1A N3C 1_555 1_555
C29B H18B 1_555 1_555
C30B C31 1_555 1_555
H19B C30B 1_555 1_555
C31B C30 1_555 1_555
H20B C31B 1_555 1_555
C4 N1 1_555 1_555
C8 Ag1C 1_555 1_555
C9 N2 1_555 1_555
C14 C15 1_555 1_555
N2 Cu1 1_555 1_555
O1 Cu1 1_555 1_555
O2 Cu1 1_555 1_555
O3 Cu1 1_555 1_555
O4 Ag1 1_555 1_555
C27 C28 1_555 1_555
C2C_2 Ag1C 1_555 1_555
C4C N1C 1_555 1_555
C6C C7C 1_555 1_555
C7C C8C 1_555 1_555
C9C N2C 1_555 1_555
C14C C15C 1_555 1_555
N2C Cu1C 1_555 1_555
O1C Cu1C 1_555 1_555
O2C Cu1C 1_555 1_555
O4C Ag1C 1_555 1_555
C29B C30B 1_555 1_555
C29B C31B 1_555 1_555

#END
