
#######################################################################
#
#                 Cambridge Crystallographic Data Centre
#                                CCDC 
#
#######################################################################
#
# If this CIF has been generated from an entry in the Cambridge 
# Structural Database, then it will include bibliographic, chemical, 
# crystal, experimental, refinement or atomic coordinate data resulting 
# from the CCDC's data processing and validation procedures.
#
#######################################################################

data_ODOFOC
_symmetry_cell_setting           orthorhombic
_symmetry_space_group_name_H-M   'P 21 21 21'
_symmetry_Int_Tables_number      19
_space_group_name_Hall           'P 2ac 2ab'
loop_
_symmetry_equiv_pos_site_id
_symmetry_equiv_pos_as_xyz
1 x,y,z
2 1/2-x,-y,1/2+z
3 -x,1/2+y,1/2-z
4 1/2+x,1/2-y,-z
_cell_length_a                   4.1128(6)
_cell_length_b                   10.4824(13)
_cell_length_c                   17.985(4)
_cell_angle_alpha                90
_cell_angle_beta                 90
_cell_angle_gamma                90
_cell_volume                     775.37
loop_
_atom_site_label
_atom_site_type_symbol
_atom_site_fract_x
_atom_site_fract_y
_atom_site_fract_z
I1 I 0.58653(9) 0.36074(3) 0.410678(17)
Cu1 Cu 0.5877(2) 0.28167(6) 0.54915(3)
N1 N 0.5756(15) 0.4433(4) 0.6151(2)
C1 C 0.4745(17) 0.4358(6) 0.6849(3)
H1 H 0.4108 0.3573 0.7042
C2 C 0.6708(15) 0.5569(5) 0.5895(3)
H2 H 0.7484 0.5655 0.5412
C3 C 0.6517(18) 0.6618(5) 0.6363(4)
N2 N 0.5498(18) 0.6574(5) 0.7047(3)
C4 C 0.463(2) 0.5425(6) 0.7292(3)
H3 H 0.3911 0.5341 0.7780
Cl1 Cl 0.7769(8) 0.80804(15) 0.60279(13)
Cu1C Cu 0.0877(2) 0.21833(6) 0.45085(3)
Cu1C_2 Cu 1.0877(2) 0.21833(6) 0.45085(3)
I1C I 0.08653(9) 0.13926(3) 0.589322(17)
I1C_2 I 1.08653(9) 0.13926(3) 0.589322(17)
loop_
_geom_bond_atom_site_label_1
_geom_bond_atom_site_label_2
_geom_bond_site_symmetry_1
_geom_bond_site_symmetry_2
I1 Cu1 1_555 1_555
Cu1 N1 1_555 1_555
N1 C1 1_555 1_555
C1 H1 1_555 1_555
C2 N1 1_555 1_555
H2 C2 1_555 1_555
C3 C2 1_555 1_555
N2 C3 1_555 1_555
C4 C1 1_555 1_555
H3 C4 1_555 1_555
Cl1 C3 1_555 1_555
Cu1C I1 1_555 1_555
Cu1C_2 I1 1_555 1_555
I1C Cu1 1_555 1_555
I1C_2 Cu1 1_555 1_555
N2 C4 1_555 1_555
Cu1C I1C 1_555 1_555
Cu1C_2 I1C_2 1_555 1_555

#END
