
#######################################################################
#
#                 Cambridge Crystallographic Data Centre
#                                CCDC 
#
#######################################################################
#
# If this CIF has been generated from an entry in the Cambridge 
# Structural Database, then it will include bibliographic, chemical, 
# crystal, experimental, refinement or atomic coordinate data resulting 
# from the CCDC's data processing and validation procedures.
#
#######################################################################

data_ODOJOH
_symmetry_cell_setting           monoclinic
_symmetry_space_group_name_H-M   'P 21/c'
_symmetry_Int_Tables_number      14
_space_group_name_Hall           '-P 2ybc'
loop_
_symmetry_equiv_pos_site_id
_symmetry_equiv_pos_as_xyz
1 x,y,z
2 -x,1/2+y,1/2-z
3 -x,-y,-z
4 x,1/2-y,1/2+z
_cell_length_a                   13.9243(12)
_cell_length_b                   8.9409(7)
_cell_length_c                   8.9821(8)
_cell_angle_alpha                90
_cell_angle_beta                 95.037(5)
_cell_angle_gamma                90
_cell_volume                     1113.92
loop_
_atom_site_label
_atom_site_type_symbol
_atom_site_fract_x
_atom_site_fract_y
_atom_site_fract_z
Zn1 Zn 0.797321(16) 0.14885(3) 0.96582(2)
K1 K 0.95958(3) 0.50589(5) 0.73330(5)
Cl1 Cl 0.92342(4) 0.30203(6) 1.01709(6)
P1 P 0.81804(3) -0.17672(6) 0.81614(5)
P2 P 0.31827(4) -0.12761(6) 0.73924(5)
O1 O 0.85406(10) -0.03733(17) 0.89990(16)
O2 O 0.88723(10) -0.20610(17) 0.68961(16)
H1 H 0.870(3) -0.194(4) 0.598(4)
O3 O 0.82056(10) -0.31466(16) 0.91586(15)
O4 O 0.30617(10) -0.28289(17) 0.67306(17)
O5 O 0.31783(12) -0.00958(19) 0.61035(17)
H2 H 0.279(2) 0.040(4) 0.606(3)
O6 O 0.24341(10) -0.08152(17) 0.84318(16)
C1 C 0.69956(14) -0.1547(2) 0.7231(2)
H3 H 0.7010(19) -0.069(3) 0.657(3)
H4 H 0.686(2) -0.244(3) 0.651(3)
C2 C 0.61760(14) -0.1403(2) 0.8253(2)
H5 H 0.6237(19) -0.044(3) 0.877(3)
H6 H 0.6211(19) -0.225(3) 0.899(3)
C3 C 0.51920(15) -0.1418(3) 0.7354(2)
H7 H 0.519(2) -0.064(4) 0.660(3)
H8 H 0.512(2) -0.234(4) 0.679(3)
C4 C 0.43674(14) -0.1186(3) 0.8348(2)
H9 H 0.4372(18) -0.197(3) 0.913(3)
H10 H 0.4411(19) -0.024(3) 0.883(3)
Zn1C Zn 0.797321(16) 0.35115(3) 0.46582(2)
Zn1A Zn 0.202679(16) -0.35115(3) 0.53418(2)
Zn1B Zn 0.202679(16) -0.14885(3) 1.03418(2)
K1C K 0.95958(3) -0.00589(5) 1.23330(5)
K1B K 1.04042(3) 0.49411(5) 1.26670(5)
K1A K 1.04042(3) 0.00589(5) 0.76670(5)
K1_2 K 0.95958(3) -0.49411(5) 0.73330(5)
K1A_2 K 0.04042(3) 0.00589(5) 0.76670(5)
Cl1C Cl 0.92342(4) 0.19797(6) 0.51709(6)
Cl1B Cl 1.07658(4) 0.69797(6) 0.98291(6)
O1C O 0.85406(10) 0.53733(17) 0.39990(16)
O1A O 1.14594(10) 0.46267(17) 0.60010(16)
O2_2 O 0.88723(10) 0.79390(17) 0.68961(16)
O2A O 1.11277(10) 0.29390(17) 0.81039(16)
H1_2 H 0.870(3) 0.806(4) 0.598(4)
H1A H 1.130(3) 0.306(4) 0.902(4)
O3_2 O 0.82056(10) 0.68534(16) 0.91586(15)
O4A O 0.69383(10) 0.21711(17) 0.82694(17)
O6B O 0.75659(10) 0.08152(17) 1.15682(16)
O6A O 0.75659(10) 0.41848(17) 0.65682(16)
loop_
_geom_bond_atom_site_label_1
_geom_bond_atom_site_label_2
_geom_bond_site_symmetry_1
_geom_bond_site_symmetry_2
Zn1 Cl1 1_555 1_555
K1 Cl1 1_555 1_555
Cl1 K1C 1_555 1_555
P1 O1 1_555 1_555
P2 O4 1_555 1_555
O1 Zn1 1_555 1_555
O2 P1 1_555 1_555
H1 O2 1_555 1_555
O3 P1 1_555 1_555
O4 Zn1A 1_555 1_555
O5 P2 1_555 1_555
H2 O5 1_555 1_555
O6 P2 1_555 1_555
C1 P1 1_555 1_555
H3 C1 1_555 1_555
H4 C1 1_555 1_555
C2 C1 1_555 1_555
H5 C2 1_555 1_555
H6 C2 1_555 1_555
C3 C2 1_555 1_555
H7 C3 1_555 1_555
H8 C3 1_555 1_555
C4 P2 1_555 1_555
H9 C4 1_555 1_555
H10 C4 1_555 1_555
Zn1C Cl1C 1_555 1_555
Zn1B O6 1_555 1_555
K1C O1 1_555 1_555
K1B Cl1 1_555 1_555
K1A O1 1_555 1_555
K1_2 O2 1_555 1_555
K1A_2 O6 1_555 1_555
Cl1C K1 1_555 1_555
Cl1B K1 1_555 1_555
O1C K1 1_555 1_555
O1A K1 1_555 1_555
O2_2 K1 1_555 1_555
O2A K1 1_555 1_555
H1_2 O2_2 1_555 1_555
H1A O2A 1_555 1_555
O3_2 K1 1_555 1_555
O4A Zn1 1_555 1_555
O6B Zn1 1_555 1_555
O6A K1 1_555 1_555
O2 K1A 1_555 1_555
O3 K1_2 1_555 1_555
C3 C4 1_555 1_555
Zn1C O1C 1_555 1_555
Zn1C O6A 1_555 1_555
K1C O6B 1_555 1_555
K1B Cl1B 1_555 1_555
K1A Cl1C 1_555 1_555
K1A O2A 1_555 1_555

#END
