
#######################################################################
#
#                 Cambridge Crystallographic Data Centre
#                                CCDC 
#
#######################################################################
#
# If this CIF has been generated from an entry in the Cambridge 
# Structural Database, then it will include bibliographic, chemical, 
# crystal, experimental, refinement or atomic coordinate data resulting 
# from the CCDC's data processing and validation procedures.
#
#######################################################################

data_ODOJIB
_symmetry_cell_setting           monoclinic
_symmetry_space_group_name_H-M   'P 21/n'
_symmetry_Int_Tables_number      14
_space_group_name_Hall           '-P 2yn'
loop_
_symmetry_equiv_pos_site_id
_symmetry_equiv_pos_as_xyz
1 x,y,z
2 1/2-x,1/2+y,1/2-z
3 -x,-y,-z
4 1/2+x,1/2-y,1/2+z
_cell_length_a                   14.1400(14)
_cell_length_b                   4.8817(4)
_cell_length_c                   14.4106(14)
_cell_angle_alpha                90
_cell_angle_beta                 91.175(5)
_cell_angle_gamma                90
_cell_volume                     994.515
loop_
_atom_site_label
_atom_site_type_symbol
_atom_site_fract_x
_atom_site_fract_y
_atom_site_fract_z
Zn1 Zn 0.49270(2) 0.20234(8) 0.61223(2)
K1 K 0.17501(5) 0.21659(16) 0.87813(6)
P1 P 0.40717(6) 0.18966(18) 0.81512(6)
P2 P 0.88844(5) 0.19696(16) 0.92514(5)
O1 O 0.34229(17) -0.0530(5) 0.81761(19)
O2 O 0.36373(18) 0.4259(5) 0.87603(16)
H1 H 0.3128 0.4738 0.8532
O3 O 0.42364(17) 0.3107(5) 0.72056(15)
O4 O 0.89227(16) -0.1149(5) 0.91893(17)
O5 O 0.88306(16) 0.2867(5) 1.02632(16)
O6 O 0.97355(16) 0.3190(5) 0.87628(16)
C1 C 0.5181(3) 0.0920(11) 0.8675(3)
H2 H 0.507(4) 0.093(11) 0.928(4)
H3 H 0.529(5) -0.103(15) 0.834(5)
C2 C 0.6030(3) 0.2728(9) 0.8509(3)
H4 H 0.611(3) 0.294(9) 0.785(3)
H5 H 0.587(4) 0.449(13) 0.875(4)
C3 C 0.6922(3) 0.1675(9) 0.8998(3)
H6 H 0.685(3) 0.183(9) 0.965(3)
H7 H 0.697(3) -0.023(11) 0.888(3)
C4 C 0.7817(2) 0.3069(8) 0.8669(2)
H8 H 0.789(3) 0.272(9) 0.799(3)
H9 H 0.776(3) 0.494(11) 0.877(3)
Zn1A Zn 0.00730(2) 0.70234(8) 0.88777(2)
Zn1A_2 Zn 1.00730(2) -0.29766(8) 0.88777(2)
Zn1C Zn 0.99270(2) 0.29766(8) 1.11223(2)
Zn1A_3 Zn 1.00730(2) 0.70234(8) 0.88777(2)
K1A K 0.32499(5) -0.28341(16) 0.62187(6)
K1A_2 K 0.32499(5) 0.71659(16) 0.62187(6)
K1B K 0.82499(5) -0.21659(16) 1.12187(6)
K1B_2 K 0.82499(5) 0.78341(16) 1.12187(6)
K1_2 K 1.17501(5) 0.21659(16) 0.87813(6)
O1A O 0.15771(17) 0.4470(5) 0.68239(19)
O3A O 0.07636(17) -0.1893(5) 0.77944(15)
O4A O 0.60773(16) 0.3851(5) 0.58107(17)
O4B O 0.10773(16) 0.1149(5) 1.08107(17)
O5C O 0.38306(16) 0.2133(5) 0.52632(16)
O5B O 0.11694(16) -0.2867(5) 0.97368(16)
O5B_2 O 0.11694(16) 0.7133(5) 0.97368(16)
O6A O 0.52645(16) -0.1810(5) 0.62372(16)
O6_2 O -0.02645(16) 0.3190(5) 0.87628(16)
loop_
_geom_bond_atom_site_label_1
_geom_bond_atom_site_label_2
_geom_bond_site_symmetry_1
_geom_bond_site_symmetry_2
Zn1 O3 1_555 1_555
K1 O1 1_555 1_555
P1 O1 1_555 1_555
P2 O4 1_555 1_555
O1 K1A 1_555 1_555
O2 K1 1_555 1_555
H1 O2 1_555 1_555
O3 P1 1_555 1_555
O4 Zn1A_2 1_555 1_555
O5 P2 1_555 1_555
O6 P2 1_555 1_555
C1 P1 1_555 1_555
H2 C1 1_555 1_555
H3 C1 1_555 1_555
C2 C1 1_555 1_555
H4 C2 1_555 1_555
H5 C2 1_555 1_555
C3 C2 1_555 1_555
H6 C3 1_555 1_555
H7 C3 1_555 1_555
C4 P2 1_555 1_555
H8 C4 1_555 1_555
H9 C4 1_555 1_555
Zn1A O5B_2 1_555 1_555
Zn1C O5 1_555 1_555
Zn1A_3 O6 1_555 1_555
K1A O5C 1_555 1_555
K1A_2 O3 1_555 1_555
K1B O4 1_555 1_555
K1B_2 O5 1_555 1_555
K1_2 O6 1_555 1_555
O1A K1 1_555 1_555
O3A K1 1_555 1_555
O4A Zn1 1_555 1_555
O4B K1 1_555 1_555
O5C Zn1 1_555 1_555
O5B K1 1_555 1_555
O5B_2 K1 1_555 1_555
O6A Zn1 1_555 1_555
O6_2 K1 1_555 1_555
P1 O2 1_555 1_555
O5 K1B 1_555 1_555
C3 C4 1_555 1_555
Zn1A O6_2 1_555 1_555
K1A O6A 1_555 1_555
K1A_2 O1A 1_555 1_555
K1A_2 O5C 1_555 1_555

#END
