
#######################################################################
#
#                 Cambridge Crystallographic Data Centre
#                                CCDC 
#
#######################################################################
#
# If this CIF has been generated from an entry in the Cambridge 
# Structural Database, then it will include bibliographic, chemical, 
# crystal, experimental, refinement or atomic coordinate data resulting 
# from the CCDC's data processing and validation procedures.
#
#######################################################################

data_ODOJIC
_symmetry_cell_setting           monoclinic
_symmetry_space_group_name_H-M   'P 21/n'
_symmetry_Int_Tables_number      14
_space_group_name_Hall           '-P 2yn'
loop_
_symmetry_equiv_pos_site_id
_symmetry_equiv_pos_as_xyz
1 x,y,z
2 1/2-x,1/2+y,1/2-z
3 -x,-y,-z
4 1/2+x,1/2-y,1/2+z
_cell_length_a                   10.2433(5)
_cell_length_b                   14.7641(9)
_cell_length_c                   13.4621(8)
_cell_angle_alpha                90
_cell_angle_beta                 102.984(3)
_cell_angle_gamma                90
_cell_volume                     1983.86
loop_
_atom_site_label
_atom_site_type_symbol
_atom_site_fract_x
_atom_site_fract_y
_atom_site_fract_z
Co1 Co 0.05037(2) 0.865570(16) 0.013395(17)
O1 O 0.19795(12) 0.95945(9) 0.06266(9)
O2 O 0.14656(11) 1.10203(9) 0.01270(9)
C1 C 0.22532(16) 1.04229(12) 0.05724(12)
C2 C 0.36826(16) 1.07251(12) 0.10369(13)
H1 H 0.4208 1.0676 0.0505
H2 H 0.3659 1.1374 0.1218
C3 C 0.44276(15) 1.02184(12) 0.19699(13)
C4 C 0.47844(16) 1.06600(12) 0.29075(13)
H3 H 0.4493 1.1265 0.2963
C5 C 0.55598(16) 1.02341(12) 0.37660(13)
C6 C 0.59576(16) 0.93345(12) 0.37043(13)
C7 C 0.56028(16) 0.88936(12) 0.27704(13)
H4 H 0.5878 0.8284 0.2718
C8 C 0.48542(16) 0.93243(12) 0.19123(13)
O3 O 0.60229(12) 1.06711(9) 0.46699(10)
H5 H 0.565(2) 1.1160(17) 0.4713(19)
O4 O 0.45892(13) 0.88482(9) 0.10019(10)
H6 H 0.381(2) 0.8911(16) 0.0750(18)
C9 C 0.68108(16) 0.88712(12) 0.46322(14)
H7 H 0.6831 0.9259 0.5236
H8 H 0.7740 0.8826 0.4538
C10 C 0.63429(17) 0.79324(12) 0.48513(13)
O5 O 0.71629(12) 0.72925(9) 0.50419(10)
O6 O 0.51148(12) 0.78025(8) 0.48583(9)
N1 N 0.05343(14) 0.84014(10) 0.16960(11)
C11 C 0.16955(18) 0.84255(14) 0.23991(14)
H9 H 0.2494 0.8555 0.2179
C12 C 0.17904(19) 0.82723(14) 0.34254(14)
H10 H 0.2637 0.8296 0.3891
C13 C 0.06406(19) 0.80841(12) 0.37728(14)
C14 C -0.05567(19) 0.80410(14) 0.30471(15)
H11 H -0.1367 0.7899 0.3245
C15 C -0.05659(17) 0.82062(14) 0.20343(14)
H12 H -0.1399 0.8180 0.1552
C16 C 0.0693(2) 0.79639(13) 0.48958(14)
H13 H 0.1518 0.7632 0.5224
H14 H -0.0089 0.7606 0.4988
C17 C 0.06818(18) 0.88978(13) 0.53927(13)
H15 H 0.1502 0.9228 0.5335
H16 H -0.0096 0.9244 0.5006
C18 C 0.06113(17) 0.88753(12) 0.64995(13)
C19 C 0.15866(19) 0.92866(15) 0.72469(15)
H17 H 0.2326 0.9581 0.7067
C20 C 0.14821(19) 0.92675(15) 0.82476(15)
H18 H 0.2166 0.9552 0.8743
N2 N 0.04711(14) 0.88704(10) 0.85631(11)
C21 C -0.04802(17) 0.84767(13) 0.78391(13)
H19 H -0.1217 0.8198 0.8040
C22 C -0.04431(17) 0.84559(13) 0.68210(13)
H20 H -0.1131 0.8158 0.6342
Co1_2 Co 0.05037(2) 0.865570(16) 1.013395(17)
Co1B Co -0.05037(2) 1.134430(16) -0.013395(17)
Co1C Co 0.55037(2) 0.634430(16) 0.513395(17)
O2B O -0.14656(11) 0.89797(9) -0.01270(9)
O5C O 0.21629(12) 0.77075(9) 0.00419(10)
O6C O 0.01148(12) 0.71975(8) -0.01417(9)
N2_2 N 0.04711(14) 0.88704(10) -0.14369(11)
loop_
_geom_bond_atom_site_label_1
_geom_bond_atom_site_label_2
_geom_bond_site_symmetry_1
_geom_bond_site_symmetry_2
Co1 O1 1_555 1_555
O1 C1 1_555 1_555
O2 C1 1_555 1_555
C1 C2 1_555 1_555
C2 H1 1_555 1_555
H2 C2 1_555 1_555
C3 C2 1_555 1_555
C4 C3 1_555 1_555
H3 C4 1_555 1_555
C5 C4 1_555 1_555
C6 C5 1_555 1_555
C7 C6 1_555 1_555
H4 C7 1_555 1_555
C8 C3 1_555 1_555
O3 C5 1_555 1_555
H5 O3 1_555 1_555
O4 C8 1_555 1_555
H6 O4 1_555 1_555
C9 C6 1_555 1_555
H7 C9 1_555 1_555
H8 C9 1_555 1_555
C10 C9 1_555 1_555
O5 C10 1_555 1_555
O6 C10 1_555 1_555
N1 Co1 1_555 1_555
C11 N1 1_555 1_555
H9 C11 1_555 1_555
C12 C11 1_555 1_555
H10 C12 1_555 1_555
C13 C12 1_555 1_555
C14 C13 1_555 1_555
H11 C14 1_555 1_555
C15 N1 1_555 1_555
H12 C15 1_555 1_555
C16 C13 1_555 1_555
H13 C16 1_555 1_555
H14 C16 1_555 1_555
C17 C16 1_555 1_555
H15 C17 1_555 1_555
H16 C17 1_555 1_555
C18 C17 1_555 1_555
C19 C18 1_555 1_555
H17 C19 1_555 1_555
C20 C19 1_555 1_555
H18 C20 1_555 1_555
N2 C20 1_555 1_555
C21 N2 1_555 1_555
H19 C21 1_555 1_555
C22 C18 1_555 1_555
H20 C22 1_555 1_555
Co1_2 N2 1_555 1_555
Co1B O2 1_555 1_555
Co1C O5 1_555 1_555
O2B Co1 1_555 1_555
O5C Co1 1_555 1_555
O6C Co1 1_555 1_555
N2_2 Co1 1_555 1_555
C7 C8 1_555 1_555
O6 Co1C 1_555 1_555
C14 C15 1_555 1_555
C21 C22 1_555 1_555

#END
