
#######################################################################
#
#                 Cambridge Crystallographic Data Centre
#                                CCDC 
#
#######################################################################
#
# If this CIF has been generated from an entry in the Cambridge 
# Structural Database, then it will include bibliographic, chemical, 
# crystal, experimental, refinement or atomic coordinate data resulting 
# from the CCDC's data processing and validation procedures.
#
#######################################################################

data_ODOJEY
_symmetry_cell_setting           monoclinic
_symmetry_space_group_name_H-M   'P 21/n'
_symmetry_Int_Tables_number      14
_space_group_name_Hall           '-P 2yn'
loop_
_symmetry_equiv_pos_site_id
_symmetry_equiv_pos_as_xyz
1 x,y,z
2 1/2-x,1/2+y,1/2-z
3 -x,-y,-z
4 1/2+x,1/2-y,1/2+z
_cell_length_a                   10.5127(3)
_cell_length_b                   14.4115(5)
_cell_length_c                   13.5983(4)
_cell_angle_alpha                90
_cell_angle_beta                 104.979(2)
_cell_angle_gamma                90
_cell_volume                     1990.19
loop_
_atom_site_label
_atom_site_type_symbol
_atom_site_fract_x
_atom_site_fract_y
_atom_site_fract_z
Co1 Co 0.05788(3) 0.866780(19) 0.00678(2)
O1 O 0.20467(15) 0.96067(11) 0.05650(12)
O2 O 0.13718(15) 1.10654(11) 0.02817(12)
C1 C 0.2229(2) 1.04703(15) 0.06089(15)
C2 C 0.3631(2) 1.08048(15) 0.10563(17)
H1 H 0.4103 1.0764 0.0532
H2 H 0.3599 1.1455 0.1235
C3 C 0.4411(2) 1.02858(15) 0.19865(16)
C4 C 0.4892(2) 0.93950(15) 0.19195(16)
C5 C 0.5667(2) 0.89630(15) 0.27746(16)
H3 H 0.5975 0.8366 0.2717
C6 C 0.5995(2) 0.93996(15) 0.37186(16)
C7 C 0.5534(2) 1.02951(15) 0.37880(16)
C8 C 0.4731(2) 1.07204(15) 0.29328(16)
H4 H 0.4399 1.1310 0.2995
O3 O 0.59614(17) 1.07322(12) 0.47056(12)
H5 H 0.551(3) 1.1216(19) 0.475(2)
O4 O 0.4656(2) 0.89255(13) 0.10013(13)
H6 H 0.394(3) 0.897(3) 0.073(3)
C9 C 0.6870(2) 0.89352(15) 0.46490(17)
H7 H 0.6871 0.9309 0.5242
H8 H 0.7764 0.8923 0.4577
C10 C 0.6468(2) 0.79545(15) 0.48354(16)
O5 O 0.72798(17) 0.73183(11) 0.49952(14)
O6 O 0.52871(16) 0.77966(11) 0.48529(12)
N1 N 0.05212(19) 0.84734(13) 0.16231(13)
C11 C -0.0551(2) 0.81350(17) 0.18505(17)
H9 H -0.1257 0.7956 0.1318
C12 C -0.0666(2) 0.80370(17) 0.28310(17)
H10 H -0.1431 0.7788 0.2946
C13 C 0.0356(2) 0.83085(16) 0.36482(16)
C14 C 0.1478(3) 0.8641(2) 0.34100(18)
H11 H 0.2202 0.8821 0.3928
C15 C 0.1523(3) 0.8706(2) 0.24132(18)
H12 H 0.2294 0.8924 0.2279
C16 C 0.0218(2) 0.82564(17) 0.46936(17)
H13 H -0.0387 0.7837 0.4829
C17 C 0.0901(3) 0.87676(18) 0.54523(18)
H14 H 0.1548 0.9148 0.5314
C18 C 0.0741(2) 0.87951(17) 0.64917(17)
C19 C -0.0280(2) 0.83624(17) 0.67846(16)
H15 H -0.0916 0.8032 0.6312
C20 C -0.0344(2) 0.84260(17) 0.77778(16)
H16 H -0.1048 0.8142 0.7955
N2 N 0.05457(19) 0.88731(13) 0.85077(13)
C21 C 0.1518(3) 0.9292(2) 0.82187(18)
H17 H 0.2147 0.9613 0.8707
C22 C 0.1640(3) 0.9277(2) 0.72417(19)
H18 H 0.2330 0.9593 0.7080
Co1_2 Co 0.05788(3) 0.866780(19) 1.00678(2)
Co1B Co -0.05788(3) 1.133220(19) -0.00678(2)
Co1C Co 0.55788(3) 0.633220(19) 0.50678(2)
O2B O -0.13718(15) 0.89346(11) -0.02817(12)
O5C O 0.22798(17) 0.76817(11) -0.00048(14)
O6C O 0.02871(16) 0.72034(11) -0.01471(12)
N2_2 N 0.05457(19) 0.88731(13) -0.14923(13)
loop_
_geom_bond_atom_site_label_1
_geom_bond_atom_site_label_2
_geom_bond_site_symmetry_1
_geom_bond_site_symmetry_2
Co1 O1 1_555 1_555
O1 C1 1_555 1_555
O2 C1 1_555 1_555
C1 C2 1_555 1_555
C2 H1 1_555 1_555
H2 C2 1_555 1_555
C3 C2 1_555 1_555
C4 C3 1_555 1_555
C5 C4 1_555 1_555
H3 C5 1_555 1_555
C6 C5 1_555 1_555
C7 C6 1_555 1_555
C8 C3 1_555 1_555
H4 C8 1_555 1_555
O3 C7 1_555 1_555
H5 O3 1_555 1_555
O4 C4 1_555 1_555
H6 O4 1_555 1_555
C9 C6 1_555 1_555
H7 C9 1_555 1_555
H8 C9 1_555 1_555
C10 C9 1_555 1_555
O5 C10 1_555 1_555
O6 C10 1_555 1_555
N1 Co1 1_555 1_555
C11 N1 1_555 1_555
H9 C11 1_555 1_555
C12 C11 1_555 1_555
H10 C12 1_555 1_555
C13 C12 1_555 1_555
C14 C13 1_555 1_555
H11 C14 1_555 1_555
C15 N1 1_555 1_555
H12 C15 1_555 1_555
C16 C13 1_555 1_555
H13 C16 1_555 1_555
C17 C16 1_555 1_555
H14 C17 1_555 1_555
C18 C17 1_555 1_555
C19 C18 1_555 1_555
H15 C19 1_555 1_555
C20 C19 1_555 1_555
H16 C20 1_555 1_555
N2 C20 1_555 1_555
C21 N2 1_555 1_555
H17 C21 1_555 1_555
C22 C18 1_555 1_555
H18 C22 1_555 1_555
Co1_2 N2 1_555 1_555
Co1B O2 1_555 1_555
Co1C O5 1_555 1_555
O2B Co1 1_555 1_555
O5C Co1 1_555 1_555
O6C Co1 1_555 1_555
N2_2 Co1 1_555 1_555
C7 C8 1_555 1_555
O6 Co1C 1_555 1_555
C14 C15 1_555 1_555
C21 C22 1_555 1_555

#END
