
#######################################################################
#
#                 Cambridge Crystallographic Data Centre
#                                CCDC 
#
#######################################################################
#
# If this CIF has been generated from an entry in the Cambridge 
# Structural Database, then it will include bibliographic, chemical, 
# crystal, experimental, refinement or atomic coordinate data resulting 
# from the CCDC's data processing and validation procedures.
#
#######################################################################

data_ODOJAT
_symmetry_cell_setting           monoclinic
_symmetry_space_group_name_H-M   'P 21/n'
_symmetry_Int_Tables_number      14
_space_group_name_Hall           '-P 2yn'
loop_
_symmetry_equiv_pos_site_id
_symmetry_equiv_pos_as_xyz
1 x,y,z
2 1/2-x,1/2+y,1/2-z
3 -x,-y,-z
4 1/2+x,1/2-y,1/2+z
_cell_length_a                   5.2813(5)
_cell_length_b                   16.227(2)
_cell_length_c                   8.5998(10)
_cell_angle_alpha                90
_cell_angle_beta                 90.732(5)
_cell_angle_gamma                90
_cell_volume                     736.94
loop_
_atom_site_label
_atom_site_type_symbol
_atom_site_fract_x
_atom_site_fract_y
_atom_site_fract_z
Zn1 Zn 0.09712(5) 0.189641(18) 0.10820(3)
Na1 Na 0.5840(2) 0.15178(7) 0.31914(13)
P1 P 0.11514(12) 0.02406(4) 0.28084(8)
P2 P 0.41316(12) -0.20701(4) 0.08060(7)
O1 O 0.2099(4) 0.07704(11) 0.1490(2)
O2 O -0.1517(3) 0.03962(12) 0.3309(2)
O3 O 0.3058(4) 0.04044(12) 0.4203(2)
H1 H 0.266(8) 0.017(3) 0.504(5)
O4 O 0.2626(3) -0.20185(12) -0.0727(2)
O5 O 0.6877(3) -0.23334(11) 0.0519(2)
O6 O 0.2862(3) -0.26586(11) 0.1928(2)
C1 C 0.1471(5) -0.08175(17) 0.2232(4)
H2 H 0.108(7) -0.113(2) 0.306(4)
H3 H 0.029(7) -0.086(2) 0.145(4)
C2 C 0.4121(5) -0.10625(17) 0.1682(4)
H4 H 0.476(6) -0.068(2) 0.094(4)
H5 H 0.534(7) -0.106(2) 0.255(4)
Zn1B Zn -0.09712(5) -0.189641(18) -0.10820(3)
Zn1B_2 Zn 0.90288(5) -0.189641(18) -0.10820(3)
Zn1A Zn 0.40288(5) -0.310359(18) 0.39180(3)
Na1_2 Na -0.4160(2) 0.15178(7) 0.31914(13)
Na1B Na 0.4160(2) -0.15178(7) -0.31914(13)
Na1A Na 0.9160(2) -0.34822(7) 0.18086(13)
Na1A_2 Na -0.0840(2) -0.34822(7) 0.18086(13)
O2_2 O 0.8483(3) 0.03962(12) 0.3309(2)
O4B O -0.2626(3) 0.20185(12) 0.0727(2)
O4B_2 O 0.7374(3) 0.20185(12) 0.0727(2)
O5B O 0.3123(3) 0.23334(11) -0.0519(2)
O5A O 0.8123(3) 0.26666(11) 0.4481(2)
O6A O 0.2138(3) 0.23414(11) 0.3072(2)
loop_
_geom_bond_atom_site_label_1
_geom_bond_atom_site_label_2
_geom_bond_site_symmetry_1
_geom_bond_site_symmetry_2
Zn1 O1 1_555 1_555
Na1 O1 1_555 1_555
P1 O1 1_555 1_555
P2 O4 1_555 1_555
O2 P1 1_555 1_555
O3 Na1 1_555 1_555
H1 O3 1_555 1_555
O4 Zn1B 1_555 1_555
O5 P2 1_555 1_555
O6 P2 1_555 1_555
C1 P1 1_555 1_555
H2 C1 1_555 1_555
H3 C1 1_555 1_555
C2 P2 1_555 1_555
H4 C2 1_555 1_555
H5 C2 1_555 1_555
Zn1B_2 O5 1_555 1_555
Zn1A O6 1_555 1_555
Na1_2 O2 1_555 1_555
Na1B O4 1_555 1_555
Na1A O5 1_555 1_555
Na1A_2 O6 1_555 1_555
O2_2 Na1 1_555 1_555
O4B Zn1 1_555 1_555
O4B_2 Na1 1_555 1_555
O5B Zn1 1_555 1_555
O5A Na1 1_555 1_555
O6A Zn1 1_555 1_555
Na1 O6A 1_555 1_555
P1 O3 1_555 1_555
C1 C2 1_555 1_555
Na1_2 O4B 1_555 1_555

#END
