
#######################################################################
#
#                 Cambridge Crystallographic Data Centre
#                                CCDC 
#
#######################################################################
#
# If this CIF has been generated from an entry in the Cambridge 
# Structural Database, then it will include bibliographic, chemical, 
# crystal, experimental, refinement or atomic coordinate data resulting 
# from the CCDC's data processing and validation procedures.
#
#######################################################################

data_ODOJOG01
_symmetry_cell_setting           monoclinic
_symmetry_space_group_name_H-M   'P 21/c'
_symmetry_Int_Tables_number      14
_space_group_name_Hall           '-P 2ybc'
loop_
_symmetry_equiv_pos_site_id
_symmetry_equiv_pos_as_xyz
1 x,y,z
2 -x,1/2+y,1/2-z
3 -x,-y,-z
4 x,1/2-y,1/2+z
_cell_length_a                   10.1903(8)
_cell_length_b                   10.8464(8)
_cell_length_c                   10.1079(4)
_cell_angle_alpha                90
_cell_angle_beta                 108.290(5)
_cell_angle_gamma                90
_cell_volume                     1060.77
loop_
_atom_site_label
_atom_site_type_symbol
_atom_site_fract_x
_atom_site_fract_y
_atom_site_fract_z
Mn1 Mn 0.51133(3) 0.13391(2) 0.09996(2)
N1 N 0.36145(14) 0.29884(13) 0.06377(15)
C1 C 0.26282(18) 0.32327(17) 0.12074(18)
H1 H 0.2546 0.2728 0.1946
C2 C 0.17184(18) 0.42099(18) 0.07439(19)
H2 H 0.1026 0.4347 0.1174
N2 N 0.17756(16) 0.49615(15) -0.02763(17)
C3 C 0.27646(19) 0.47040(18) -0.08446(19)
H3 H 0.2848 0.5212 -0.1580
C4 C 0.36719(17) 0.37294(16) -0.04074(17)
C5 C 0.47178(17) 0.33937(16) -0.11261(17)
O1 O 0.54304(13) 0.24455(11) -0.07074(13)
O2 O 0.47571(13) 0.40863(12) -0.21113(12)
N3 N 0.74026(14) 0.17568(13) 0.20349(14)
C6 C 0.79769(19) 0.26347(16) 0.29588(18)
H4 H 0.7425 0.3061 0.3413
C7 C 0.93658(19) 0.29392(17) 0.32712(19)
H5 H 0.9730 0.3586 0.3915
N4 N 1.02043(16) 0.23556(14) 0.26986(16)
C8 C 0.96291(18) 0.14542(16) 0.17924(18)
H6 H 1.0193 0.1004 0.1372
C9 C 0.82387(17) 0.11596(15) 0.14509(17)
C10 C 0.75866(16) 0.01547(15) 0.04146(17)
O3 O 0.63345(11) -0.01012(11) 0.03499(12)
O4 O 0.82506(12) -0.03245(12) -0.02652(13)
O2C O 0.47571(13) 0.09137(12) 0.28887(12)
O3B O 0.36655(11) 0.01012(11) -0.03499(12)
Mn1C Mn 0.51133(3) 0.36609(2) -0.40004(2)
Mn1B Mn 0.48867(3) -0.13391(2) -0.09996(2)
loop_
_geom_bond_atom_site_label_1
_geom_bond_atom_site_label_2
_geom_bond_site_symmetry_1
_geom_bond_site_symmetry_2
Mn1 N1 1_555 1_555
N1 C1 1_555 1_555
C1 H1 1_555 1_555
C2 C1 1_555 1_555
H2 C2 1_555 1_555
N2 C2 1_555 1_555
C3 N2 1_555 1_555
H3 C3 1_555 1_555
C4 N1 1_555 1_555
C5 C4 1_555 1_555
O1 Mn1 1_555 1_555
O2 C5 1_555 1_555
N3 Mn1 1_555 1_555
C6 N3 1_555 1_555
H4 C6 1_555 1_555
C7 C6 1_555 1_555
H5 C7 1_555 1_555
N4 C7 1_555 1_555
C8 N4 1_555 1_555
H6 C8 1_555 1_555
C9 N3 1_555 1_555
C10 C9 1_555 1_555
O3 Mn1 1_555 1_555
O4 C10 1_555 1_555
O2C Mn1 1_555 1_555
O3B Mn1 1_555 1_555
Mn1C O2 1_555 1_555
Mn1B O3 1_555 1_555
C3 C4 1_555 1_555
C5 O1 1_555 1_555
C8 C9 1_555 1_555
C10 O3 1_555 1_555
O3B Mn1B 1_555 1_555

#END
