
#######################################################################
#
#                 Cambridge Crystallographic Data Centre
#                                CCDC 
#
#######################################################################
#
# If this CIF has been generated from an entry in the Cambridge 
# Structural Database, then it will include bibliographic, chemical, 
# crystal, experimental, refinement or atomic coordinate data resulting 
# from the CCDC's data processing and validation procedures.
#
#######################################################################

data_ODOJUN
_symmetry_cell_setting           monoclinic
_symmetry_space_group_name_H-M   'C 2/c'
_symmetry_Int_Tables_number      15
_space_group_name_Hall           '-C 2yn'
loop_
_symmetry_equiv_pos_site_id
_symmetry_equiv_pos_as_xyz
1 x,y,z
2 1/2+x,1/2+y,z
3 -x,y,1/2-z
4 1/2-x,1/2+y,1/2-z
5 -x,-y,-z
6 1/2-x,1/2-y,-z
7 x,-y,1/2+z
8 1/2+x,1/2-y,1/2+z
_cell_length_a                   28.419(5)
_cell_length_b                   8.5688(13)
_cell_length_c                   14.951(2)
_cell_angle_alpha                90
_cell_angle_beta                 100.925(2)
_cell_angle_gamma                90
_cell_volume                     3574.83
loop_
_atom_site_label
_atom_site_type_symbol
_atom_site_fract_x
_atom_site_fract_y
_atom_site_fract_z
Zn1 Zn 0.199019(14) 0.22593(5) 0.22132(3)
Zn2 Zn 0.096280(14) -0.00486(4) 0.16133(3)
Zn3 Zn 0.068330(14) -0.49564(4) 0.44610(3)
P1 P 0.19523(3) -0.12673(10) 0.27132(6)
P2 P 0.13970(3) -0.22085(10) 0.52467(6)
P3 P 0.09865(3) 0.31207(10) 0.26967(6)
P4 P 0.02737(3) 0.70000(9) 0.10383(6)
O1 O 0.20546(10) 0.0427(3) 0.29970(17)
O2 O 0.23699(9) -0.2007(3) 0.23664(18)
O3 O 0.15011(9) -0.1434(3) 0.19701(17)
O4 O 0.18812(9) -0.2035(3) 0.58902(16)
O5 O 0.12499(9) -0.3934(3) 0.51688(16)
O6 O 0.10093(9) -0.1174(3) 0.55243(16)
O7 O 0.14832(9) 0.3523(3) 0.25237(18)
O8 O 0.09170(9) 0.3631(3) 0.36340(16)
O9 O 0.08709(9) 0.1360(3) 0.25815(16)
O10 O 0.04024(9) 0.6549(3) 0.01238(16)
O11 O -0.02515(9) 0.6686(3) 0.10598(17)
O12 O 0.03786(8) 0.8744(3) 0.12283(16)
C1 C 0.18600(13) -0.2292(4) 0.3721(2)
H1 H 0.1776 -0.3369 0.3566
H2 H 0.2155 -0.2288 0.4170
C2 C 0.14581(12) -0.1530(4) 0.4134(2)
H3 H 0.1514 -0.0413 0.4168
H4 H 0.1156 -0.1702 0.3719
C3 C 0.05606(12) 0.4140(4) 0.1857(2)
H5 H 0.0590 0.3786 0.1254
H6 H 0.0239 0.3903 0.1944
C4 C 0.06425(12) 0.5919(4) 0.1926(2)
H7 H 0.0976 0.6134 0.1911
H8 H 0.0581 0.6277 0.2508
Zn1C Zn 0.300981(14) -0.27407(5) 0.27868(3)
Zn1F Zn 0.199019(14) -0.22593(5) 0.72132(3)
Zn2F Zn 0.096280(14) 0.00486(4) 0.66133(3)
Zn2_2 Zn 0.096280(14) 0.99514(4) 0.16133(3)
Zn3_2 Zn 0.068330(14) 0.50436(4) 0.44610(3)
Zn3F Zn 0.068330(14) 0.49564(4) -0.05390(3)
Zn3B Zn -0.068330(14) 0.50436(4) 0.05390(3)
O2C O 0.26301(9) 0.2993(3) 0.26336(18)
O4F O 0.18812(9) 0.2035(3) 0.08902(16)
O6F O 0.10093(9) 0.1174(3) 0.05243(16)
O8_2 O 0.09170(9) -0.6369(3) 0.36340(16)
O10F O 0.04024(9) -0.6549(3) 0.51238(16)
O11B O 0.02515(9) -0.3314(3) 0.39402(17)
O12_2 O 0.03786(8) -0.1256(3) 0.12283(16)
C6 C 0.2186(6) 0.3261(17) 0.4552(10)
C7 C 0.1957(5) 0.295(2) 0.5124(11)
N2 N 0.2599(3) 0.4334(10) 0.4418(6)
N3 N 0.1952(2) 0.3895(6) 0.5860(4)
N1 N 0.54386(11) 1.4397(3) -0.0901(2)
C5? C 0.2727(6) 0.3338(19) 0.4898(10)
loop_
_geom_bond_atom_site_label_1
_geom_bond_atom_site_label_2
_geom_bond_site_symmetry_1
_geom_bond_site_symmetry_2
Zn1 O1 1_555 1_555
Zn2 O3 1_555 1_555
Zn3 O5 1_555 1_555
P1 O1 1_555 1_555
P2 O4 1_555 1_555
P3 O7 1_555 1_555
P4 O10 1_555 1_555
O2 P1 1_555 1_555
O3 P1 1_555 1_555
O4 Zn1F 1_555 1_555
O5 P2 1_555 1_555
O6 P2 1_555 1_555
O7 Zn1 1_555 1_555
O8 P3 1_555 1_555
O9 Zn2 1_555 1_555
O10 Zn3F 1_555 1_555
O11 P4 1_555 1_555
O12 P4 1_555 1_555
C1 P1 1_555 1_555
H1 C1 1_555 1_555
H2 C1 1_555 1_555
C2 P2 1_555 1_555
H3 C2 1_555 1_555
H4 C2 1_555 1_555
C3 P3 1_555 1_555
H5 C3 1_555 1_555
H6 C3 1_555 1_555
C4 P4 1_555 1_555
H7 C4 1_555 1_555
H8 C4 1_555 1_555
C6 C7 1_555 1_555
C7 N3 1_555 1_555
N2 C6 1_555 1_555
Zn1C O2 1_555 1_555
Zn2F O6 1_555 1_555
Zn2_2 O12 1_555 1_555
Zn3_2 O8 1_555 1_555
Zn3B O11 1_555 1_555
O2C Zn1 1_555 1_555
O4F Zn1 1_555 1_555
O6F Zn2 1_555 1_555
O8_2 Zn3 1_555 1_555
O10F Zn3 1_555 1_555
O11B Zn3 1_555 1_555
O12_2 Zn2 1_555 1_555
P3 O9 1_555 1_555
C1 C2 1_555 1_555
C3 C4 1_555 1_555

#END
