
#######################################################################
#
#                 Cambridge Crystallographic Data Centre
#                                CCDC 
#
#######################################################################
#
# If this CIF has been generated from an entry in the Cambridge 
# Structural Database, then it will include bibliographic, chemical, 
# crystal, experimental, refinement or atomic coordinate data resulting 
# from the CCDC's data processing and validation procedures.
#
#######################################################################

data_ODOJIA
_symmetry_cell_setting           orthorhombic
_symmetry_space_group_name_H-M   'P 21 21 21'
_symmetry_Int_Tables_number      19
_space_group_name_Hall           'P 2ac 2ab'
loop_
_symmetry_equiv_pos_site_id
_symmetry_equiv_pos_as_xyz
1 x,y,z
2 1/2-x,-y,1/2+z
3 -x,1/2+y,1/2-z
4 1/2+x,1/2-y,-z
_cell_length_a                   7.7914(2)
_cell_length_b                   9.9662(4)
_cell_length_c                   15.1083(6)
_cell_angle_alpha                90
_cell_angle_beta                 90
_cell_angle_gamma                90
_cell_volume                     1173.17
loop_
_atom_site_label
_atom_site_type_symbol
_atom_site_fract_x
_atom_site_fract_y
_atom_site_fract_z
Co1 Co 0.07608(9) 0.63638(7) 0.58869(4)
O1 O 0.3077(5) 0.7065(4) 0.6314(2)
O2 O 0.4326(5) 0.8700(4) 0.7094(2)
O3 O -0.1495(5) 0.5628(4) 0.5390(2)
O4 O -0.2612(6) 0.4195(5) 0.4414(3)
O5 O 0.0830(6) 0.7689(4) 0.4808(2)
H1 H -0.0080 0.7647 0.4537
H2 H 0.1693 0.8148 0.4758
N1 N -0.0051(6) 0.7945(5) 0.6754(3)
N2 N -0.0486(6) 0.9953(5) 0.8008(3)
N3 N 0.1682(6) 0.4805(5) 0.5055(3)
N4 N 0.2357(7) 0.2952(6) 0.3713(4)
C1 C -0.1613(7) 0.8338(6) 0.7002(4)
H3 H -0.2574 0.7932 0.6754
C2 C -0.1821(8) 0.9350(6) 0.7629(4)
H4 H -0.2925 0.9611 0.7787
C3 C 0.1065(7) 0.9593(5) 0.7729(3)
H5 H 0.2023 1.0035 0.7952
C4 C 0.1294(7) 0.8568(6) 0.7108(3)
C5 C 0.3076(7) 0.8121(5) 0.6836(3)
C6 C 0.3268(8) 0.4404(6) 0.4861(4)
H6 H 0.4184 0.4751 0.5182
C7 C 0.3592(7) 0.3486(6) 0.4194(4)
H7 H 0.4722 0.3238 0.4081
C8 C 0.0750(8) 0.3344(6) 0.3913(4)
H8 H -0.0163 0.2988 0.3594
C9 C 0.0415(8) 0.4249(6) 0.4572(4)
C10 C -0.1402(8) 0.4705(6) 0.4801(4)
N2B N 0.0486(6) 0.4953(5) 0.6992(3)
Co1B Co -0.07608(9) 1.13638(7) 0.91131(4)
loop_
_geom_bond_atom_site_label_1
_geom_bond_atom_site_label_2
_geom_bond_site_symmetry_1
_geom_bond_site_symmetry_2
Co1 O1 1_555 1_555
O1 C5 1_555 1_555
O2 C5 1_555 1_555
O3 Co1 1_555 1_555
O4 C10 1_555 1_555
O5 Co1 1_555 1_555
H1 O5 1_555 1_555
H2 O5 1_555 1_555
N1 Co1 1_555 1_555
N2 C2 1_555 1_555
N3 Co1 1_555 1_555
N4 C7 1_555 1_555
C1 N1 1_555 1_555
H3 C1 1_555 1_555
C2 C1 1_555 1_555
H4 C2 1_555 1_555
C3 N2 1_555 1_555
H5 C3 1_555 1_555
C4 N1 1_555 1_555
C5 C4 1_555 1_555
C6 N3 1_555 1_555
H6 C6 1_555 1_555
C7 C6 1_555 1_555
H7 C7 1_555 1_555
C8 N4 1_555 1_555
H8 C8 1_555 1_555
C9 N3 1_555 1_555
C10 O3 1_555 1_555
N2B Co1 1_555 1_555
Co1B N2 1_555 1_555
C3 C4 1_555 1_555
C8 C9 1_555 1_555
C9 C10 1_555 1_555

#END
