
#######################################################################
#
#                 Cambridge Crystallographic Data Centre
#                                CCDC 
#
#######################################################################
#
# If this CIF has been generated from an entry in the Cambridge 
# Structural Database, then it will include bibliographic, chemical, 
# crystal, experimental, refinement or atomic coordinate data resulting 
# from the CCDC's data processing and validation procedures.
#
#######################################################################

data_ODOKIC
_symmetry_cell_setting           triclinic
_symmetry_space_group_name_H-M   'P -1'
_symmetry_Int_Tables_number      2
_space_group_name_Hall           '-P 1'
loop_
_symmetry_equiv_pos_site_id
_symmetry_equiv_pos_as_xyz
1 x,y,z
2 -x,-y,-z
_cell_length_a                   4.8852(18)
_cell_length_b                   9.986(4)
_cell_length_c                   10.432(4)
_cell_angle_alpha                92.918(4)
_cell_angle_beta                 98.418(6)
_cell_angle_gamma                90.801(6)
_cell_volume                     502.657
loop_
_atom_site_label
_atom_site_type_symbol
_atom_site_fract_x
_atom_site_fract_y
_atom_site_fract_z
Zn1 Zn 0.34556(5) 0.11113(2) 0.12597(2)
P1 P 0.24160(11) 0.25630(5) 0.40458(5)
P2 P 0.18953(10) 0.81422(5) 0.03031(5)
O1 O 0.5034(3) 0.29518(16) 0.50836(15)
H1 H 0.638(7) 0.271(3) 0.492(3)
O2 O 0.0140(3) 0.20465(15) 0.47430(14)
O3 O 0.3318(3) 0.15624(14) 0.30651(14)
O4 O -0.1262(3) 0.80697(14) 0.01559(13)
O5 O 0.3042(3) 0.91575(13) 0.14229(13)
O6 O 0.2787(3) 0.84900(14) -0.09844(13)
C1 C 0.1227(5) 0.4072(2) 0.3307(2)
H2 H 0.083(6) 0.474(3) 0.400(3)
H3 H -0.050(6) 0.386(3) 0.289(3)
C2 C 0.3015(4) 0.4693(2) 0.2390(2)
H4 H 0.497(6) 0.486(3) 0.284(3)
H5 H 0.318(6) 0.406(3) 0.167(3)
C3 C 0.1768(4) 0.5990(2) 0.1883(2)
H6 H -0.007(5) 0.587(2) 0.159(2)
H7 H 0.187(6) 0.664(3) 0.258(3)
C4 C 0.3139(4) 0.65288(19) 0.0779(2)
H8 H 0.520(6) 0.660(2) 0.102(2)
H9 H 0.281(6) 0.596(3) 0.006(3)
Zn1A Zn -0.34556(5) 0.88887(2) -0.12597(2)
Zn1_2 Zn 0.34556(5) 1.11113(2) 0.12597(2)
Zn1A_2 Zn 0.65444(5) 0.88887(2) -0.12597(2)
O4A O 0.1262(3) 0.19303(14) -0.01559(13)
O5_2 O 0.3042(3) -0.08425(13) 0.14229(13)
O6A O 0.7213(3) 0.15100(14) 0.09844(13)
H10 H 0.016(6) 0.069(3) 0.739(3)
H11 H 0.123(6) 0.112(3) 0.624(3)
H12 H 0.148(6) -0.025(3) 0.669(3)
H13 H 0.326(7) 0.077(3) 0.741(3)
N1 N 0.1504(4) 0.05849(19) 0.69296(18)
loop_
_geom_bond_atom_site_label_1
_geom_bond_atom_site_label_2
_geom_bond_site_symmetry_1
_geom_bond_site_symmetry_2
Zn1 O3 1_555 1_555
P1 O1 1_555 1_555
P2 O4 1_555 1_555
O1 H1 1_555 1_555
O2 P1 1_555 1_555
O3 P1 1_555 1_555
O4 Zn1A 1_555 1_555
O5 P2 1_555 1_555
O6 P2 1_555 1_555
C1 P1 1_555 1_555
H2 C1 1_555 1_555
H3 C1 1_555 1_555
C2 C1 1_555 1_555
H4 C2 1_555 1_555
H5 C2 1_555 1_555
C3 C2 1_555 1_555
H6 C3 1_555 1_555
H7 C3 1_555 1_555
C4 P2 1_555 1_555
H8 C4 1_555 1_555
H9 C4 1_555 1_555
H10 N1 1_555 1_555
H11 N1 1_555 1_555
H12 N1 1_555 1_555
H13 N1 1_555 1_555
Zn1_2 O5 1_555 1_555
Zn1A_2 O6 1_555 1_555
O4A Zn1 1_555 1_555
O5_2 Zn1 1_555 1_555
O6A Zn1 1_555 1_555
C3 C4 1_555 1_555

#END
