
#######################################################################
#
#                 Cambridge Crystallographic Data Centre
#                                CCDC 
#
#######################################################################
#
# If this CIF has been generated from an entry in the Cambridge 
# Structural Database, then it will include bibliographic, chemical, 
# crystal, experimental, refinement or atomic coordinate data resulting 
# from the CCDC's data processing and validation procedures.
#
#######################################################################

data_ODOKEY
_symmetry_cell_setting           monoclinic
_symmetry_space_group_name_H-M   'P 21/n'
_symmetry_Int_Tables_number      14
_space_group_name_Hall           '-P 2yn'
loop_
_symmetry_equiv_pos_site_id
_symmetry_equiv_pos_as_xyz
1 x,y,z
2 1/2-x,1/2+y,1/2-z
3 -x,-y,-z
4 1/2+x,1/2-y,1/2+z
_cell_length_a                   11.6226(9)
_cell_length_b                   8.1412(6)
_cell_length_c                   11.8917(9)
_cell_angle_alpha                90
_cell_angle_beta                 96.381(3)
_cell_angle_gamma                90
_cell_volume                     1118.24
loop_
_atom_site_label
_atom_site_type_symbol
_atom_site_fract_x
_atom_site_fract_y
_atom_site_fract_z
Zn1 Zn 0.02592(2) 0.25307(3) 0.02388(2)
P1 P -0.20131(5) 0.44729(7) -0.01475(4)
P2 P -0.51393(5) 0.45418(7) 0.30567(4)
O1 O -0.13227(14) 0.3072(2) 0.04353(14)
O2 O -0.12711(13) 0.56616(19) -0.07667(13)
O3 O -0.29989(14) 0.38285(19) -0.09942(13)
O4 O -0.45613(14) 0.3113(2) 0.37018(13)
O5 O -0.57911(13) 0.57182(19) 0.37532(13)
O6 O -0.60186(14) 0.38397(19) 0.20867(13)
H1 H -0.637(3) 0.470(5) 0.169(3)
C1 C -0.2653(2) 0.5617(3) 0.0916(2)
H2 H -0.206(3) 0.603(4) 0.143(3)
H3 H -0.311(3) 0.654(4) 0.053(3)
C2 C -0.3466(2) 0.4598(3) 0.1558(2)
H4 H -0.403(3) 0.407(4) 0.102(3)
H5 H -0.310(3) 0.378(4) 0.193(3)
C3 C -0.4077(2) 0.5651(3) 0.2382(2)
H6 H -0.347(3) 0.604(4) 0.302(3)
H7 H -0.452(3) 0.654(4) 0.198(3)
Zn1B Zn -0.02592(2) 0.74693(3) -0.02388(2)
Zn1C Zn -0.47408(2) 0.24693(3) 0.52388(2)
Zn1A Zn -0.52592(2) 0.75307(3) 0.47612(2)
Zn1A_2 Zn 0.47408(2) 0.75307(3) -0.52388(2)
Zn1C_2 Zn 0.52592(2) 0.24693(3) -0.47612(2)
P1B P 0.20131(5) 0.55271(7) 0.01475(4)
P2B P 0.51393(5) 0.54582(7) -0.30567(4)
O1B O 0.13227(14) 0.6928(2) -0.04353(14)
O2B O 0.12711(13) 0.43384(19) 0.07667(13)
O3B O 0.29989(14) 0.61715(19) 0.09942(13)
O4B O 0.45613(14) 0.6887(2) -0.37018(13)
O4C O 0.04387(14) 0.1887(2) -0.12982(13)
O4A O -0.04387(14) 0.8113(2) 0.12982(13)
O5B O 0.57911(13) 0.42818(19) -0.37532(13)
O5A O 0.07911(13) 0.07182(19) 0.12468(13)
O5C O -0.07911(13) 0.92818(19) -0.12468(13)
O6B O 0.60186(14) 0.61603(19) -0.20867(13)
H1B H 0.637(3) 0.530(5) -0.169(3)
C1B C 0.2653(2) 0.4383(3) -0.0916(2)
H2B H 0.206(3) 0.397(4) -0.143(3)
H3B H 0.311(3) 0.346(4) -0.053(3)
C2B C 0.3466(2) 0.5402(3) -0.1558(2)
H4B H 0.403(3) 0.593(4) -0.102(3)
H5B H 0.310(3) 0.622(4) -0.193(3)
C3B C 0.4077(2) 0.4349(3) -0.2382(2)
H6B H 0.347(3) 0.396(4) -0.302(3)
H7B H 0.452(3) 0.346(4) -0.198(3)
C4 C -0.4372(2) 0.0030(3) -0.1441(2)
H8 H -0.504(2) 0.062(4) -0.188(2)
H9 H -0.445(2) -0.118(4) -0.165(2)
C5 C -0.4427(2) 0.0296(3) -0.0182(2)
H10 H -0.374(3) -0.038(4) 0.021(3)
H11 H -0.431(3) 0.158(5) 0.003(3)
N1 N -0.32632(18) 0.0661(3) -0.18106(18)
H12 H -0.315(3) 0.181(4) -0.154(3)
H13 H -0.279(3) -0.028(4) -0.159(3)
H14 H -0.332(3) 0.055(4) -0.265(3)
C4B C -0.5628(2) -0.0030(3) 0.1441(2)
H8B H -0.496(2) -0.062(4) 0.188(2)
H9B H -0.555(2) 0.118(4) 0.165(2)
C5B C -0.5573(2) -0.0296(3) 0.0182(2)
H10B H -0.626(3) 0.038(4) -0.021(3)
H11B H -0.569(3) -0.158(5) -0.003(3)
N1B N -0.67368(18) -0.0661(3) 0.18106(18)
H12B H -0.685(3) -0.181(4) 0.154(3)
H13B H -0.721(3) 0.028(4) 0.159(3)
H14B H -0.668(3) -0.055(4) 0.265(3)
loop_
_geom_bond_atom_site_label_1
_geom_bond_atom_site_label_2
_geom_bond_site_symmetry_1
_geom_bond_site_symmetry_2
Zn1 O1 1_555 1_555
P1 O1 1_555 1_555
P2 O4 1_555 1_555
O2 P1 1_555 1_555
O3 P1 1_555 1_555
O4 Zn1C 1_555 1_555
O5 P2 1_555 1_555
O6 P2 1_555 1_555
H1 O6 1_555 1_555
C1 P1 1_555 1_555
H2 C1 1_555 1_555
H3 C1 1_555 1_555
C2 C1 1_555 1_555
H4 C2 1_555 1_555
H5 C2 1_555 1_555
C3 P2 1_555 1_555
H6 C3 1_555 1_555
H7 C3 1_555 1_555
C4 H8 1_555 1_555
H9 C4 1_555 1_555
C5 C4 1_555 1_555
H10 C5 1_555 1_555
H11 C5 1_555 1_555
N1 C4 1_555 1_555
H12 N1 1_555 1_555
H13 N1 1_555 1_555
H14 N1 1_555 1_555
Zn1B O2 1_555 1_555
Zn1A O5 1_555 1_555
Zn1A_2 O4B 1_555 1_555
Zn1C_2 O5B 1_555 1_555
P1B O1B 1_555 1_555
P2B O4B 1_555 1_555
O1B Zn1B 1_555 1_555
O2B Zn1 1_555 1_555
O3B P1B 1_555 1_555
O4C Zn1 1_555 1_555
O4A Zn1B 1_555 1_555
O5B P2B 1_555 1_555
O5A Zn1 1_555 1_555
O5C Zn1B 1_555 1_555
O6B P2B 1_555 1_555
H1B O6B 1_555 1_555
C1B P1B 1_555 1_555
H2B C1B 1_555 1_555
H3B C1B 1_555 1_555
C2B C1B 1_555 1_555
H4B C2B 1_555 1_555
H5B C2B 1_555 1_555
C3B P2B 1_555 1_555
H6B C3B 1_555 1_555
H7B C3B 1_555 1_555
C4B H8B 1_555 1_555
H9B C4B 1_555 1_555
C5B C5 1_555 1_555
H10B C5B 1_555 1_555
H11B C5B 1_555 1_555
N1B C4B 1_555 1_555
H12B N1B 1_555 1_555
H13B N1B 1_555 1_555
H14B N1B 1_555 1_555
C2 C3 1_555 1_555
P1B O2B 1_555 1_555
C2B C3B 1_555 1_555
C4B C5B 1_555 1_555

#END
