
#######################################################################
#
#                 Cambridge Crystallographic Data Centre
#                                CCDC 
#
#######################################################################
#
# If this CIF has been generated from an entry in the Cambridge 
# Structural Database, then it will include bibliographic, chemical, 
# crystal, experimental, refinement or atomic coordinate data resulting 
# from the CCDC's data processing and validation procedures.
#
#######################################################################

data_ODOMEB
_symmetry_cell_setting           monoclinic
_symmetry_space_group_name_H-M   'C 2/c'
_symmetry_Int_Tables_number      15
_space_group_name_Hall           '-C 2yn'
loop_
_symmetry_equiv_pos_site_id
_symmetry_equiv_pos_as_xyz
1 x,y,z
2 -x,y,1/2-z
3 1/2+x,1/2+y,z
4 1/2-x,1/2+y,1/2-z
5 -x,-y,-z
6 x,-y,1/2+z
7 1/2-x,1/2-y,-z
8 1/2+x,1/2-y,1/2+z
_cell_length_a                   31.088(4)
_cell_length_b                   11.2507(13)
_cell_length_c                   19.208(2)
_cell_angle_alpha                90
_cell_angle_beta                 92.060(2)
_cell_angle_gamma                90
_cell_volume                     6713.88
loop_
_atom_site_label
_atom_site_type_symbol
_atom_site_fract_x
_atom_site_fract_y
_atom_site_fract_z
Ag1 Ag 0.17850(2) -0.09239(5) 0.35256(3)
Ag2 Ag 0.39199(2) 0.17297(5) 0.14962(4)
Ag3 Ag 0.39719(2) -0.37493(5) 0.16433(4)
Ag4 Ag 0.27058(2) -0.08886(5) 0.36083(5)
O1 O 0.15169(19) -0.0398(5) 0.2426(3)
O2 O 0.11142(17) -0.2014(4) 0.2294(3)
O3 O 0.18784(17) -0.9035(4) 0.3928(3)
O4 O 0.25443(18) -0.8984(4) 0.3547(3)
O5 O 0.19108(17) -0.2776(4) 0.3865(3)
O6 O 0.26151(17) -0.2829(4) 0.3739(3)
O7 O 0.09553(19) 0.2156(5) -0.0594(3)
O8 O 0.08880(19) 0.0537(4) -0.1230(2)
N1 N 0.37463(19) 0.0052(5) 0.2020(3)
N2 N 0.32923(19) -0.0972(5) 0.2797(3)
N3 N 0.37442(18) -0.2044(5) 0.2031(3)
N4 N 0.3314(2) 0.1063(5) 0.2762(4)
H1 H 0.3125 0.1081 0.3078
H2 H 0.3412 0.1715 0.2598
N5 N 0.3291(2) -0.2988(5) 0.2769(4)
H3 H 0.3096 -0.2984 0.3077
H4 H 0.3384 -0.3653 0.2612
C1 C 0.1270(2) -0.1078(6) 0.2069(4)
C2 C 0.1175(2) -0.0687(6) 0.1326(4)
C3 C 0.0815(2) -0.1086(6) 0.0899(4)
C4 C 0.0521(3) -0.1966(7) 0.1104(4)
H5 H 0.0554 -0.2303 0.1544
C5 C 0.0190(3) -0.2332(9) 0.0672(5)
H6 H 0.0006 -0.2927 0.0819
C6 C 0.0123(3) -0.1825(8) 0.0012(5)
H7 H -0.0105 -0.2083 -0.0278
C7 C 0.0390(3) -0.0956(7) -0.0203(4)
H8 H 0.0340 -0.0612 -0.0638
C8 C 0.0746(2) -0.0560(6) 0.0224(4)
C9 C 0.1024(2) 0.0358(6) -0.0001(3)
C10 C 0.1382(2) 0.0637(7) 0.0399(4)
H9 H 0.1578 0.1188 0.0237
C11 C 0.1457(2) 0.0103(7) 0.1053(4)
H10 H 0.1708 0.0292 0.1308
C12 C 0.0950(2) 0.1060(6) -0.0656(4)
C13 C 0.2260(2) -0.3310(6) 0.3828(4)
C14 C 0.2257(2) -0.4650(6) 0.3885(4)
C15 C 0.2470(2) -0.5297(6) 0.3401(4)
H11 H 0.2623 -0.4901 0.3064
C16 C 0.2462(2) -0.6540(6) 0.3402(4)
H12 H 0.2616 -0.6954 0.3074
C17 C 0.2233(2) -0.7160(6) 0.3877(4)
C18 C 0.2017(2) -0.6530(6) 0.4404(4)
C19 C 0.1784(3) -0.7106(7) 0.4935(4)
H13 H 0.1767 -0.7931 0.4935
C20 C 0.1590(3) -0.6496(8) 0.5433(4)
H14 H 0.1451 -0.6901 0.5781
C21 C 0.1597(3) -0.5246(7) 0.5432(4)
H15 H 0.1456 -0.4827 0.5773
C22 C 0.1810(3) -0.4649(7) 0.4935(4)
H16 H 0.1813 -0.3823 0.4941
C23 C 0.2028(2) -0.5265(6) 0.4405(4)
C24 C 0.2215(2) -0.8499(6) 0.3791(4)
C25 C 0.3452(2) 0.0036(6) 0.2530(4)
C26 C 0.3445(2) -0.1981(6) 0.2539(4)
C27 C 0.3875(2) -0.0999(6) 0.1797(4)
C28 C 0.4184(3) -0.1023(7) 0.1214(4)
H17 H 0.4252 -0.1832 0.1102
H18 H 0.4443 -0.0610 0.1355
H19 H 0.4055 -0.0641 0.0811
Ag5 Ag 0.03853(2) 0.14815(5) -0.20662(4)
O9 O 0.0342(2) -0.0438(5) -0.2314(5)
O10 O -0.02453(18) -0.6603(4) -0.2934(3)
C29 C 0.0000 -0.6112(9) -0.2500
C30 C 0.0000 -0.4773(9) -0.2500
C31 C 0.0257(3) -0.4168(7) -0.2970(5)
C32 C 0.0446(5) -0.4726(14) -0.3417(9)
H20 H 0.0430 -0.5551 -0.3428
C33 C 0.0680(6) -0.413(2) -0.3900(11)
H21 H 0.0819 -0.4546 -0.4246
C34 C 0.0706(6) -0.288(2) -0.3860(10)
H22 H 0.0869 -0.2451 -0.4170
C35 C 0.0491(5) -0.2327(15) -0.3370(9)
H23 H 0.0509 -0.1504 -0.3331
C36 C 0.0264(3) -0.2897(7) -0.2958(5)
C37 C 0.0000 -0.2296(9) -0.2500
C38 C 0.0000 -0.0943(10) -0.2500
O9A O -0.0342(2) -0.0438(5) -0.2686(5)
O10A O 0.02453(18) -0.6603(4) -0.2066(3)
C31A C -0.0257(3) -0.4168(7) -0.2030(5)
C32A C -0.0446(5) -0.4726(14) -0.1583(9)
H20A H -0.0430 -0.5551 -0.1572
C33A C -0.0680(6) -0.413(2) -0.1100(11)
H21A H -0.0819 -0.4546 -0.0754
C34A C -0.0706(6) -0.288(2) -0.1140(10)
H22A H -0.0869 -0.2451 -0.0830
C35A C -0.0491(5) -0.2327(15) -0.1630(9)
H23A H -0.0509 -0.1504 -0.1669
C36A C -0.0264(3) -0.2897(7) -0.2042(5)
Ag1A Ag -0.17850(2) -0.09239(5) -0.85256(3)
Ag2A Ag -0.39199(2) 0.17297(5) -0.64962(4)
Ag3A Ag -0.39719(2) -0.37493(5) -0.66433(4)
Ag4A Ag -0.27058(2) -0.08886(5) -0.86083(5)
O1A O -0.15169(19) -0.0398(5) -0.7426(3)
O2A O -0.11142(17) -0.2014(4) -0.7294(3)
O3A O -0.18784(17) -0.9035(4) -0.8928(3)
O4A O -0.25443(18) -0.8984(4) -0.8547(3)
O5A O -0.19108(17) -0.2776(4) -0.8865(3)
O6A O -0.26151(17) -0.2829(4) -0.8739(3)
O7A O -0.09553(19) 0.2156(5) -0.4406(3)
O8A O -0.08880(19) 0.0537(4) -0.3770(2)
N1A N -0.37463(19) 0.0052(5) -0.7020(3)
N2A N -0.32923(19) -0.0972(5) -0.7797(3)
N3A N -0.37442(18) -0.2044(5) -0.7031(3)
N4A N -0.3314(2) 0.1063(5) -0.7762(4)
H1A H -0.3125 0.1081 -0.8078
H2A H -0.3412 0.1715 -0.7598
N5A N -0.3291(2) -0.2988(5) -0.7769(4)
H3A H -0.3096 -0.2984 -0.8077
H4A H -0.3384 -0.3653 -0.7612
C1A C -0.1270(2) -0.1078(6) -0.7069(4)
C2A C -0.1175(2) -0.0687(6) -0.6326(4)
C3A C -0.0815(2) -0.1086(6) -0.5899(4)
C4A C -0.0521(3) -0.1966(7) -0.6104(4)
H5A H -0.0554 -0.2303 -0.6544
C5A C -0.0190(3) -0.2332(9) -0.5672(5)
H6A H -0.0006 -0.2927 -0.5819
C6A C -0.0123(3) -0.1825(8) -0.5012(5)
H7A H 0.0105 -0.2083 -0.4722
C7A C -0.0390(3) -0.0956(7) -0.4797(4)
H8A H -0.0340 -0.0612 -0.4362
C8A C -0.0746(2) -0.0560(6) -0.5224(4)
C9A C -0.1024(2) 0.0358(6) -0.4999(3)
C10A C -0.1382(2) 0.0637(7) -0.5399(4)
H9A H -0.1578 0.1188 -0.5237
C11A C -0.1457(2) 0.0103(7) -0.6053(4)
H10A H -0.1708 0.0292 -0.6308
C12A C -0.0950(2) 0.1060(6) -0.4344(4)
C13A C -0.2260(2) -0.3310(6) -0.8828(4)
C14A C -0.2257(2) -0.4650(6) -0.8885(4)
C15A C -0.2470(2) -0.5297(6) -0.8401(4)
H11A H -0.2623 -0.4901 -0.8064
C16A C -0.2462(2) -0.6540(6) -0.8402(4)
H12A H -0.2616 -0.6954 -0.8074
C17A C -0.2233(2) -0.7160(6) -0.8877(4)
C18A C -0.2017(2) -0.6530(6) -0.9404(4)
C19A C -0.1784(3) -0.7106(7) -0.9935(4)
H13A H -0.1767 -0.7931 -0.9935
C20A C -0.1590(3) -0.6496(8) -1.0433(4)
H14A H -0.1451 -0.6901 -1.0781
C21A C -0.1597(3) -0.5246(7) -1.0432(4)
H15A H -0.1456 -0.4827 -1.0773
C22A C -0.1810(3) -0.4649(7) -0.9935(4)
H16A H -0.1813 -0.3823 -0.9941
C23A C -0.2028(2) -0.5265(6) -0.9405(4)
C24A C -0.2215(2) -0.8499(6) -0.8791(4)
C25A C -0.3452(2) 0.0036(6) -0.7530(4)
C26A C -0.3445(2) -0.1981(6) -0.7539(4)
C27A C -0.3875(2) -0.0999(6) -0.6797(4)
C28A C -0.4184(3) -0.1023(7) -0.6214(4)
H17A H -0.4252 -0.1832 -0.6102
H18A H -0.4443 -0.0610 -0.6355
H19A H -0.4055 -0.0641 -0.5811
Ag5A Ag -0.03853(2) 0.14815(5) -0.29338(4)
Ag1_2 Ag 0.17850(2) -1.09239(5) 0.35256(3)
Ag1A_2 Ag -0.17850(2) -1.09239(5) -0.85256(3)
Ag2F Ag 0.10801(2) 0.32703(5) -0.14962(4)
Ag2G Ag -0.10801(2) 0.32703(5) -0.35038(4)
Ag3F Ag 0.10281(2) -0.12507(5) -0.16433(4)
Ag3G Ag -0.10281(2) -0.12507(5) -0.33567(4)
Ag4_2 Ag 0.27058(2) -1.08886(5) 0.36083(5)
Ag4A_2 Ag -0.27058(2) -1.08886(5) -0.86083(5)
O3_2 O 0.18784(17) 0.0965(4) 0.3928(3)
O3A_2 O -0.18784(17) 0.0965(4) -0.8928(3)
O4_2 O 0.25443(18) 0.1016(4) 0.3547(3)
O4A_2 O -0.25443(18) 0.1016(4) -0.8547(3)
O7F O 0.40447(19) 0.2844(5) 0.0594(3)
O7G O -0.40447(19) 0.2844(5) -0.5594(3)
O8F O 0.41120(19) -0.5537(4) 0.1230(2)
O8G O -0.41120(19) -0.5537(4) -0.6230(2)
Ag5_2 Ag 0.03853(2) -0.85185(5) -0.20662(4)
Ag5A_2 Ag -0.03853(2) -0.85185(5) -0.29338(4)
O10_2 O -0.02453(18) 0.3397(4) -0.2934(3)
O10A_2 O 0.02453(18) 0.3397(4) -0.2066(3)
loop_
_geom_bond_atom_site_label_1
_geom_bond_atom_site_label_2
_geom_bond_site_symmetry_1
_geom_bond_site_symmetry_2
Ag1 O1 1_555 1_555
Ag2 N1 1_555 1_555
Ag3 N3 1_555 1_555
Ag4 O6 1_555 1_555
O1 C1 1_555 1_555
O2 C1 1_555 1_555
O3 C24 1_555 1_555
O4 C24 1_555 1_555
O5 Ag1 1_555 1_555
O6 C13 1_555 1_555
O7 C12 1_555 1_555
O8 C12 1_555 1_555
N1 C25 1_555 1_555
N2 Ag4 1_555 1_555
N3 C26 1_555 1_555
N4 H1 1_555 1_555
H2 N4 1_555 1_555
N5 H3 1_555 1_555
H4 N5 1_555 1_555
C1 C2 1_555 1_555
C2 C3 1_555 1_555
C3 C4 1_555 1_555
C4 H5 1_555 1_555
C5 C4 1_555 1_555
H6 C5 1_555 1_555
C6 C5 1_555 1_555
H7 C6 1_555 1_555
C7 C6 1_555 1_555
H8 C7 1_555 1_555
C8 C3 1_555 1_555
C9 C8 1_555 1_555
C10 C9 1_555 1_555
H9 C10 1_555 1_555
C11 C2 1_555 1_555
H10 C11 1_555 1_555
C12 C9 1_555 1_555
C13 O5 1_555 1_555
C14 C13 1_555 1_555
C15 C14 1_555 1_555
H11 C15 1_555 1_555
C16 C15 1_555 1_555
H12 C16 1_555 1_555
C17 C16 1_555 1_555
C18 C17 1_555 1_555
C19 C18 1_555 1_555
H13 C19 1_555 1_555
C20 C19 1_555 1_555
H14 C20 1_555 1_555
C21 C20 1_555 1_555
H15 C21 1_555 1_555
C22 C21 1_555 1_555
H16 C22 1_555 1_555
C23 C14 1_555 1_555
C24 C17 1_555 1_555
C25 N2 1_555 1_555
C26 N2 1_555 1_555
C27 N1 1_555 1_555
C28 C27 1_555 1_555
H17 C28 1_555 1_555
H18 C28 1_555 1_555
H19 C28 1_555 1_555
Ag5 O8 1_555 1_555
O9 Ag5 1_555 1_555
O10 C29 1_555 1_555
C29 C30 1_555 1_555
C30 C31 1_555 1_555
C31 C32 1_555 1_555
C32 H20 1_555 1_555
C33 C32 1_555 1_555
H21 C33 1_555 1_555
C34 C33 1_555 1_555
H22 C34 1_555 1_555
C35 C34 1_555 1_555
H23 C35 1_555 1_555
C36 C31 1_555 1_555
C37 C36 1_555 1_555
C38 O9 1_555 1_555
O9A C38 1_555 1_555
O10A C29 1_555 1_555
C31A C30 1_555 1_555
C32A C31A 1_555 1_555
H20A C32A 1_555 1_555
C33A C32A 1_555 1_555
H21A C33A 1_555 1_555
C34A C33A 1_555 1_555
H22A C34A 1_555 1_555
C35A C34A 1_555 1_555
H23A C35A 1_555 1_555
C36A C37 1_555 1_555
Ag1A O1A 1_555 1_555
Ag2A N1A 1_555 1_555
Ag3A N3A 1_555 1_555
Ag4A O6A 1_555 1_555
O1A C1A 1_555 1_555
O2A C1A 1_555 1_555
O3A C24A 1_555 1_555
O4A C24A 1_555 1_555
O5A Ag1A 1_555 1_555
O6A C13A 1_555 1_555
O7A C12A 1_555 1_555
O8A C12A 1_555 1_555
N1A C25A 1_555 1_555
N2A Ag4A 1_555 1_555
N3A C26A 1_555 1_555
N4A H1A 1_555 1_555
H2A N4A 1_555 1_555
N5A H3A 1_555 1_555
H4A N5A 1_555 1_555
C1A C2A 1_555 1_555
C2A C3A 1_555 1_555
C3A C4A 1_555 1_555
C4A H5A 1_555 1_555
C5A C4A 1_555 1_555
H6A C5A 1_555 1_555
C6A C5A 1_555 1_555
H7A C6A 1_555 1_555
C7A C6A 1_555 1_555
H8A C7A 1_555 1_555
C8A C3A 1_555 1_555
C9A C8A 1_555 1_555
C10A C9A 1_555 1_555
H9A C10A 1_555 1_555
C11A C2A 1_555 1_555
H10A C11A 1_555 1_555
C12A C9A 1_555 1_555
C13A O5A 1_555 1_555
C14A C13A 1_555 1_555
C15A C14A 1_555 1_555
H11A C15A 1_555 1_555
C16A C15A 1_555 1_555
H12A C16A 1_555 1_555
C17A C16A 1_555 1_555
C18A C17A 1_555 1_555
C19A C18A 1_555 1_555
H13A C19A 1_555 1_555
C20A C19A 1_555 1_555
H14A C20A 1_555 1_555
C21A C20A 1_555 1_555
H15A C21A 1_555 1_555
C22A C21A 1_555 1_555
H16A C22A 1_555 1_555
C23A C14A 1_555 1_555
C24A C17A 1_555 1_555
C25A N2A 1_555 1_555
C26A N2A 1_555 1_555
C27A N1A 1_555 1_555
C28A C27A 1_555 1_555
H17A C28A 1_555 1_555
H18A C28A 1_555 1_555
H19A C28A 1_555 1_555
Ag5A O9A 1_555 1_555
Ag1_2 O3 1_555 1_555
Ag1A_2 O3A 1_555 1_555
Ag2F O7 1_555 1_555
Ag2G O7A 1_555 1_555
Ag3F O8 1_555 1_555
Ag3G O8A 1_555 1_555
Ag4_2 O4 1_555 1_555
Ag4A_2 O4A 1_555 1_555
O3_2 Ag1 1_555 1_555
O3A_2 Ag1A 1_555 1_555
O4_2 Ag4 1_555 1_555
O4A_2 Ag4A 1_555 1_555
O7F Ag2 1_555 1_555
O7G Ag2A 1_555 1_555
O8F Ag3 1_555 1_555
O8G Ag3A 1_555 1_555
Ag5_2 O10A 1_555 1_555
Ag5A_2 O10 1_555 1_555
O10_2 Ag5A 1_555 1_555
O10A_2 Ag5 1_555 1_555
N3 C27 1_555 1_555
N4 C25 1_555 1_555
N5 C26 1_555 1_555
C7 C8 1_555 1_555
C10 C11 1_555 1_555
C18 C23 1_555 1_555
C22 C23 1_555 1_555
C35 C36 1_555 1_555
C37 C38 1_555 1_555
C31A C36A 1_555 1_555
C35A C36A 1_555 1_555
O8A Ag5A 1_555 1_555
N3A C27A 1_555 1_555
N4A C25A 1_555 1_555
N5A C26A 1_555 1_555
C7A C8A 1_555 1_555
C10A C11A 1_555 1_555
C18A C23A 1_555 1_555
C22A C23A 1_555 1_555

#END
