
#######################################################################
#
#                 Cambridge Crystallographic Data Centre
#                                CCDC 
#
#######################################################################
#
# If this CIF has been generated from an entry in the Cambridge 
# Structural Database, then it will include bibliographic, chemical, 
# crystal, experimental, refinement or atomic coordinate data resulting 
# from the CCDC's data processing and validation procedures.
#
#######################################################################

data_ODONIF
_symmetry_cell_setting           hexagonal
_symmetry_space_group_name_H-M   'P 65 2 2'
_symmetry_Int_Tables_number      179
_space_group_name_Hall           "P 65 2' (0,0,1)"
loop_
_symmetry_equiv_pos_site_id
_symmetry_equiv_pos_as_xyz
1 x,y,z
2 -y,x-y,2/3+z
3 -x+y,-x,1/3+z
4 -x,-y,1/2+z
5 y,-x+y,1/6+z
6 x-y,x,5/6+z
7 y,x,2/3-z
8 x-y,-y,-z
9 -x,-x+y,1/3-z
10 -y,-x,1/6-z
11 -x+y,y,1/2-z
12 x,x-y,5/6-z
_cell_length_a                   12.5764(6)
_cell_length_b                   12.5764(6)
_cell_length_c                   62.941(4)
_cell_angle_alpha                90
_cell_angle_beta                 90
_cell_angle_gamma                120
_cell_volume                     8621.38
loop_
_atom_site_label
_atom_site_type_symbol
_atom_site_fract_x
_atom_site_fract_y
_atom_site_fract_z
C1 C 0.0767(3) 0.4151(3) 0.53100(6)
C2 C 0.0753(3) 0.5265(4) 0.50125(5)
C3 C 0.0408(3) 0.5723(3) 0.53448(5)
C4 C 0.0702(4) 0.2838(4) 0.56027(6)
H1 H 0.0220 0.2020 0.5657
H2 H 0.0223 0.3240 0.5605
C5 C 0.1823(3) 0.3544(3) 0.57399(5)
C6 C 0.0715(4) 0.6412(4) 0.47006(6)
H3 H 0.0964 0.7100 0.4796
H4 H -0.0150 0.6074 0.4669
C7 C 0.1444(4) 0.6858(4) 0.44974(5)
C8 C -0.0053(4) 0.7382(4) 0.53856(7)
H5 H 0.0574 0.7879 0.5282
H6 H -0.0012 0.7921 0.5499
C9 C -0.1306(4) 0.6830(3) 0.52797(6)
C10 C 0.3942(4) 0.8193(4) 0.56761(6)
H7 H 0.4091 0.8429 0.5818
C11 C 0.3733(4) 0.8923(4) 0.55333(7)
H8 H 0.3752 0.9632 0.5581
C12 C 0.3496(4) 0.8594(4) 0.53206(6)
C13 C 0.3514(4) 0.7548(4) 0.52604(6)
H9 H 0.3380 0.7301 0.5119
C14 C 0.3726(4) 0.6871(4) 0.54059(6)
H10 H 0.3727 0.6169 0.5360
C15 C 0.3224(4) 0.9322(4) 0.51651(7)
H11 H 0.3098 0.9917 0.5242
H12 H 0.2465 0.8774 0.5092
C16 C 0.4237(4) 1.0000 0.5000
H13 H 0.4400 0.9414 0.4927
C17 C 0.4390(4) 0.7378(3) 0.37446(5)
H14 H 0.3712 0.7445 0.3706
C18 C 0.5333(4) 0.7781(4) 0.36037(6)
H15 H 0.5287 0.8114 0.3475
C19 C 0.6365(4) 0.7696(4) 0.36521(7)
C20 C 0.6351(4) 0.7139(5) 0.38463(7)
H16 H 0.7005 0.7032 0.3885
C21 C 0.5359(4) 0.6756(4) 0.39786(6)
H17 H 0.5363 0.6381 0.4106
C22 C 0.7437(4) 0.8102(4) 0.34970(7)
H18 H 0.7605 0.8860 0.3428
H19 H 0.8168 0.8252 0.3574
C23 C 0.7123(5) 0.7123(5) 0.3333
H20 H 0.6959 0.6382 0.3406
N1 N 0.0529(3) 0.4828(3) 0.54405(5)
N2 N 0.0911(3) 0.4346(3) 0.50914(4)
N3 N 0.0486(3) 0.5979(3) 0.51328(5)
N4 N 0.0837(3) 0.3196(3) 0.53775(5)
H21 H 0.0968 0.2765 0.5286
N5 N 0.0896(3) 0.5473(3) 0.48047(4)
H22 H 0.1103 0.5038 0.4728
N6 N 0.0218(3) 0.6471(3) 0.54720(5)
H23 H 0.0258 0.6409 0.5607
N7 N 0.3937(3) 0.7172(3) 0.56165(5)
N8 N 0.4373(3) 0.6886(3) 0.39365(4)
Co1 Co 0.40575(3) 0.59425(3) 0.5833
Co2 Co 0.30362(6) 0.65181(3) 0.4167
O1 O 0.2672(2) 0.4517(2) 0.56650(4)
O2 O 0.1794(3) 0.3096(3) 0.59185(4)
O3 O 0.1710(2) 0.6140(2) 0.43995(3)
O4 O 0.1721(4) 0.7929(3) 0.44338(5)
O5 O -0.1430(3) 0.7318(3) 0.51154(5)
H24 H -0.2145 0.6932 0.5075
O6 O -0.2174(3) 0.5888(3) 0.53683(5)
O7 O 0.5348(3) 0.5948(3) 0.56238(4)
H25 H 0.5307 0.5261 0.5644
H26 H 0.6089 0.6510 0.5642
O8 O 0.2967(3) 0.8076(2) 0.40854(4)
H27 H 0.2690 0.8297 0.4189
H28 H 0.2414 0.7835 0.3990
C1I C 0.5849(3) 0.9233(3) 0.63567(6)
C2I C 0.4735(4) 0.9247(3) 0.66542(5)
C3I C 0.4277(3) 0.9592(3) 0.63219(5)
C4I C 0.7162(4) 0.9298(4) 0.60640(6)
H1I H 0.7980 0.9780 0.6010
H2I H 0.6760 0.9777 0.6062
C5I C 0.6456(3) 0.8177(3) 0.59268(5)
C6I C 0.3588(4) 0.9285(4) 0.69661(6)
H3I H 0.2900 0.9036 0.6871
H4I H 0.3926 1.0150 0.6998
C7I C 0.3142(4) 0.8556(4) 0.71693(5)
C8I C 0.2618(4) 1.0053(4) 0.62811(7)
H5I H 0.2121 0.9426 0.6385
H6I H 0.2079 1.0012 0.6168
C9I C 0.3170(3) 1.1306(4) 0.63870(6)
C10G C 0.5749(6) 1.1807(4) 0.43239(6)
H7G H 0.5662 1.1571 0.4182
C11G C 0.4810(6) 1.1077(4) 0.44667(7)
H8G H 0.4120 1.0368 0.4419
C12G C 0.4902(6) 1.1406(4) 0.46794(6)
C13G C 0.5966(6) 1.2452(4) 0.47396(6)
H9G H 0.6079 1.2699 0.4881
C14G C 0.6855(6) 1.3129(4) 0.45941(6)
H10G H 0.7558 1.3831 0.4640
C15G C 0.3902(6) 1.0678(4) 0.48349(7)
H11G H 0.3181 1.0083 0.4758
H12G H 0.3691 1.1226 0.4908
H13G H 0.4986 1.0586 0.5073
C17F C 0.7378(3) 0.4390(4) 0.29221(5)
H14F H 0.7445 0.3712 0.2961
C18F C 0.7781(4) 0.5333(4) 0.30630(6)
H15F H 0.8114 0.5287 0.3192
C19F C 0.7696(4) 0.6365(4) 0.30146(7)
C20F C 0.7139(5) 0.6351(4) 0.28204(7)
H16F H 0.7032 0.7005 0.2782
C21F C 0.6756(4) 0.5359(4) 0.26881(6)
H17F H 0.6381 0.5363 0.2561
C22F C 0.8102(4) 0.7437(4) 0.31697(7)
H18F H 0.8860 0.7605 0.3239
H19F H 0.8252 0.8168 0.3093
H20F H 0.6382 0.6959 0.3261
N1I N 0.5172(3) 0.9471(3) 0.62262(5)
N2I N 0.5654(3) 0.9089(3) 0.65753(4)
N3I N 0.4021(3) 0.9514(3) 0.65339(5)
N4I N 0.6804(3) 0.9163(3) 0.62892(5)
H21I H 0.7235 0.9032 0.6381
N5I N 0.4527(3) 0.9104(3) 0.68620(4)
H22I H 0.4962 0.8897 0.6939
N6I N 0.3529(3) 0.9782(3) 0.61947(5)
H23I H 0.3591 0.9742 0.6060
N7G N 0.6765(4) 1.2828(3) 0.43835(5)
N7I N 0.2828(3) 0.6063(3) 0.60502(5)
N8F N 0.6886(3) 0.4373(3) 0.27302(4)
N8K N 0.4373(3) 0.7487(4) 0.43968(4)
Co1G Co 0.81150(4) 1.40575(3) 0.4167
Co2I Co 0.34819(3) 0.69638(6) 0.7500
Co2E Co 0.65181(7) 0.30362(6) 0.2500
O1I O 0.5483(2) 0.7328(2) 0.60017(4)
O2I O 0.6904(3) 0.8206(3) 0.57482(4)
O3I O 0.3860(2) 0.8290(2) 0.72672(3)
O3K O 0.1710(2) 0.5570(3) 0.39338(3)
O4I O 0.2071(3) 0.8279(4) 0.72329(5)
O5I O 0.2682(3) 1.1430(3) 0.65513(5)
H24I H 0.3068 1.2145 0.6592
O6I O 0.4112(3) 1.2174(3) 0.62984(5)
O7I O 0.4052(3) 0.4652(3) 0.60429(4)
H25I H 0.4739 0.4693 0.6023
H26I H 0.3490 0.3911 0.6025
O8K O 0.2967(3) 0.4891(4) 0.42479(4)
H27K H 0.2690 0.4393 0.4144
H28K H 0.2414 0.4579 0.4343
O9 O 0.0827(9) 1.0000 0.5000
H29 H 0.0207 0.9565 0.4922
H29G H 0.0642 1.0435 0.5078
O10 O 0.0375(6) 0.9043(6) 0.46151(9)
H30 H 0.0757 0.8695 0.4568
H31 H 0.0855 0.9802 0.4591
O11 O 0.0631(5) 0.0575(5) 0.60166(6)
H32 H 0.0802 0.1218 0.5946
H33 H -0.0146 0.0142 0.6008
loop_
_geom_bond_atom_site_label_1
_geom_bond_atom_site_label_2
_geom_bond_site_symmetry_1
_geom_bond_site_symmetry_2
C1 N1 1_555 1_555
C2 N2 1_555 1_555
C3 N1 1_555 1_555
C4 H1 1_555 1_555
H2 C4 1_555 1_555
C5 C4 1_555 1_555
C6 H3 1_555 1_555
H4 C6 1_555 1_555
C7 C6 1_555 1_555
C8 H5 1_555 1_555
H6 C8 1_555 1_555
C9 C8 1_555 1_555
C10 H7 1_555 1_555
C11 C10 1_555 1_555
H8 C11 1_555 1_555
C12 C11 1_555 1_555
C13 C12 1_555 1_555
H9 C13 1_555 1_555
C14 C13 1_555 1_555
H10 C14 1_555 1_555
C15 C12 1_555 1_555
H11 C15 1_555 1_555
H12 C15 1_555 1_555
C16 C15 1_555 1_555
H13 C16 1_555 1_555
C17 H14 1_555 1_555
C18 C17 1_555 1_555
H15 C18 1_555 1_555
C19 C18 1_555 1_555
C20 C19 1_555 1_555
H16 C20 1_555 1_555
C21 C20 1_555 1_555
H17 C21 1_555 1_555
C22 C19 1_555 1_555
H18 C22 1_555 1_555
H19 C22 1_555 1_555
C23 C22 1_555 1_555
H20 C23 1_555 1_555
N2 C1 1_555 1_555
N3 C2 1_555 1_555
N4 C1 1_555 1_555
H21 N4 1_555 1_555
N5 C2 1_555 1_555
H22 N5 1_555 1_555
N6 C3 1_555 1_555
H23 N6 1_555 1_555
N7 C10 1_555 1_555
N8 C17 1_555 1_555
Co1 N7 1_555 1_555
Co2 N8 1_555 1_555
O1 C5 1_555 1_555
O2 C5 1_555 1_555
O3 C7 1_555 1_555
O4 C7 1_555 1_555
O5 C9 1_555 1_555
H24 O5 1_555 1_555
O6 C9 1_555 1_555
O7 Co1 1_555 1_555
H25 O7 1_555 1_555
H26 O7 1_555 1_555
O8 Co2 1_555 1_555
H27 O8 1_555 1_555
H28 O8 1_555 1_555
O9 H29 1_555 1_555
O10 H30 1_555 1_555
H31 O10 1_555 1_555
O11 H32 1_555 1_555
H33 O11 1_555 1_555
C1I N1I 1_555 1_555
C2I N2I 1_555 1_555
C3I N1I 1_555 1_555
C4I H1I 1_555 1_555
H2I C4I 1_555 1_555
C5I C4I 1_555 1_555
C6I H3I 1_555 1_555
H4I C6I 1_555 1_555
C7I C6I 1_555 1_555
C8I H5I 1_555 1_555
H6I C8I 1_555 1_555
C9I C8I 1_555 1_555
C10G H7G 1_555 1_555
C11G C10G 1_555 1_555
H8G C11G 1_555 1_555
C12G C11G 1_555 1_555
C13G C12G 1_555 1_555
H9G C13G 1_555 1_555
C14G C13G 1_555 1_555
H10G C14G 1_555 1_555
C15G C16 1_555 1_555
H11G C15G 1_555 1_555
H12G C15G 1_555 1_555
H13G C16 1_555 1_555
C17F H14F 1_555 1_555
C18F C17F 1_555 1_555
H15F C18F 1_555 1_555
C19F C18F 1_555 1_555
C20F C19F 1_555 1_555
H16F C20F 1_555 1_555
C21F C20F 1_555 1_555
H17F C21F 1_555 1_555
C22F C23 1_555 1_555
H18F C22F 1_555 1_555
H19F C22F 1_555 1_555
H20F C23 1_555 1_555
N2I C1I 1_555 1_555
N3I C2I 1_555 1_555
N4I C1I 1_555 1_555
H21I N4I 1_555 1_555
N5I C2I 1_555 1_555
H22I N5I 1_555 1_555
N6I C3I 1_555 1_555
H23I N6I 1_555 1_555
N7G C10G 1_555 1_555
N7I Co1 1_555 1_555
N8F C17F 1_555 1_555
N8K Co2 1_555 1_555
Co1G N7G 1_555 1_555
Co2I O3I 1_555 1_555
Co2E N8F 1_555 1_555
O1I Co1 1_555 1_555
O2I C5I 1_555 1_555
O3I C7I 1_555 1_555
O3K Co2 1_555 1_555
O4I C7I 1_555 1_555
O5I C9I 1_555 1_555
H24I O5I 1_555 1_555
O6I C9I 1_555 1_555
O7I Co1 1_555 1_555
H25I O7I 1_555 1_555
H26I O7I 1_555 1_555
O8K Co2 1_555 1_555
H27K O8K 1_555 1_555
H28K O8K 1_555 1_555
H29G O9 1_555 1_555
C3 N3 1_555 1_555
C4 N4 1_555 1_555
C6 N5 1_555 1_555
C8 N6 1_555 1_555
C14 N7 1_555 1_555
C21 N8 1_555 1_555
Co1 O1 1_555 1_555
Co2 O3 1_555 1_555
C3I N3I 1_555 1_555
C4I N4I 1_555 1_555
C5I O1I 1_555 1_555
C6I N5I 1_555 1_555
C8I N6I 1_555 1_555
C12G C15G 1_555 1_555
C14G N7G 1_555 1_555
C19F C22F 1_555 1_555
C21F N8F 1_555 1_555

#END
