
#######################################################################
#
#                 Cambridge Crystallographic Data Centre
#                                CCDC 
#
#######################################################################
#
# If this CIF has been generated from an entry in the Cambridge 
# Structural Database, then it will include bibliographic, chemical, 
# crystal, experimental, refinement or atomic coordinate data resulting 
# from the CCDC's data processing and validation procedures.
#
#######################################################################

data_ODOSEH
_symmetry_cell_setting           triclinic
_symmetry_space_group_name_H-M   'P -1'
_symmetry_Int_Tables_number      2
_space_group_name_Hall           '-P 1'
loop_
_symmetry_equiv_pos_site_id
_symmetry_equiv_pos_as_xyz
1 x,y,z
2 -x,-y,-z
_cell_length_a                   8.3805(17)
_cell_length_b                   9.2807(19)
_cell_length_c                   20.013(4)
_cell_angle_alpha                101.83(3)
_cell_angle_beta                 97.32(3)
_cell_angle_gamma                100.05(3)
_cell_volume                     1478.45
loop_
_atom_site_label
_atom_site_type_symbol
_atom_site_fract_x
_atom_site_fract_y
_atom_site_fract_z
Mo1 Mo 0.03795(2) -0.000399(18) 0.252799(8)
S1 S -0.04082(6) -0.21769(6) 0.16063(3)
S2 S 0.21886(6) 0.08318(6) 0.17943(3)
S3 S 0.26107(6) 0.11007(6) 0.34455(3)
S4 S -0.03233(6) -0.16988(5) 0.32361(3)
O1 O -0.10784(18) 0.10807(16) 0.25416(8)
O2 O 0.01070(19) -0.32293(18) -0.10049(8)
O3 O 0.23839(19) -0.08753(18) -0.08394(8)
O4 O 0.39398(18) 0.06362(17) 0.59905(7)
O5 O 0.17019(19) -0.17491(17) 0.58043(7)
C1 C 0.0393(2) -0.1727(2) 0.08798(11)
C2 C -0.0120(3) -0.2693(2) 0.02224(11)
H1 H -0.0929 -0.3586 0.0163
C3 C 0.0536(2) -0.2364(2) -0.03415(11)
C4 C 0.1760(2) -0.1057(2) -0.02511(11)
C5 C 0.2244(2) -0.0089(2) 0.03942(11)
H2 H 0.3050 0.0805 0.0453
C6 C 0.1560(2) -0.0409(2) 0.09624(11)
C7 C -0.1358(3) -0.4370(3) -0.11522(12)
H3 H -0.1207 -0.5129 -0.0888
H4 H -0.1593 -0.4846 -0.1648
H5 H -0.2278 -0.3916 -0.1022
C8 C 0.3491(3) 0.0516(3) -0.07935(12)
H6 H 0.2956 0.1356 -0.0642
H7 H 0.3791 0.0543 -0.1249
H8 H 0.4483 0.0602 -0.0459
C9 C 0.2209(2) 0.0288(2) 0.41510(10)
C10 C 0.3220(2) 0.0863(2) 0.47989(11)
H9 H 0.4062 0.1735 0.4866
C11 C 0.3007(2) 0.0178(2) 0.53392(10)
C12 C 0.1775(2) -0.1126(2) 0.52359(10)
C13 C 0.0751(2) -0.1679(2) 0.46024(11)
H10 H -0.0095 -0.2547 0.4536
C14 C 0.0954(2) -0.0967(2) 0.40574(10)
C15 C 0.5118(3) 0.2024(3) 0.61315(12)
H11 H 0.5885 0.1952 0.5801
H12 H 0.5727 0.2227 0.6604
H13 H 0.4547 0.2844 0.6086
C16 C 0.0513(3) -0.3099(3) 0.57210(12)
H14 H -0.0585 -0.2925 0.5575
H15 H 0.0551 -0.3405 0.6162
H16 H 0.0755 -0.3894 0.5368
Na1 Na -0.17055(10) 0.28252(9) 0.19045(4)
O6 O -0.2996(2) 0.4627(2) 0.14385(9)
C17 C -0.3876(3) 0.4266(3) 0.07536(15)
H17 H -0.4779 0.3399 0.0695
H18 H -0.4323 0.5130 0.0666
H19 H -0.3135 0.4020 0.0426
H20 H -0.237(5) 0.540(4) 0.1483(19)
Na2 Na -0.33325(12) 0.05676(10) 0.31131(4)
O7 O -0.5159(2) -0.11044(19) 0.22554(9)
C18 C -0.5382(4) -0.2611(3) 0.18776(16)
H21 H -0.4326 -0.2930 0.1914
H22 H -0.5810 -0.2684 0.1390
H23 H -0.6166 -0.3263 0.2067
H24 H -0.624(4) -0.069(4) 0.2186(18)
O8 O -0.4059(2) 0.25195(19) 0.25205(9)
C19 C -0.4244(3) 0.3946(3) 0.28961(16)
H25 H -0.3178 0.4510 0.3166
H26 H -0.5032 0.3796 0.3210
H27 H -0.4647 0.4512 0.2571
H28 H -0.487(5) 0.216(4) 0.228(2)
O9 O -0.0076(2) 0.48287(18) 0.27529(9)
C20 C 0.1530(3) 0.4867(3) 0.30947(13)
H29 H 0.1706 0.3838 0.3050
H30 H 0.1645 0.5358 0.3586
H31 H 0.2345 0.5434 0.2884
H32 H -0.023(4) 0.566(4) 0.2821(19)
O2A O -0.01070(19) 0.32293(18) 0.10049(8)
O3A O -0.23839(19) 0.08753(18) 0.08394(8)
O4A O -0.39398(18) -0.06362(17) 0.40095(7)
O5A O -0.17019(19) 0.17491(17) 0.41957(7)
Na1A Na 0.17055(10) -0.28252(9) -0.19045(4)
Na2A Na 0.33325(12) -0.05676(10) 0.68869(4)
loop_
_geom_bond_atom_site_label_1
_geom_bond_atom_site_label_2
_geom_bond_site_symmetry_1
_geom_bond_site_symmetry_2
Mo1 S1 1_555 1_555
S1 C1 1_555 1_555
S2 Mo1 1_555 1_555
S3 Mo1 1_555 1_555
S4 Mo1 1_555 1_555
O1 Mo1 1_555 1_555
O2 C3 1_555 1_555
O3 C4 1_555 1_555
O4 C11 1_555 1_555
O5 C12 1_555 1_555
C1 C2 1_555 1_555
C2 H1 1_555 1_555
C3 C2 1_555 1_555
C4 C3 1_555 1_555
C5 C4 1_555 1_555
H2 C5 1_555 1_555
C6 S2 1_555 1_555
C7 O2 1_555 1_555
H3 C7 1_555 1_555
H4 C7 1_555 1_555
H5 C7 1_555 1_555
C8 O3 1_555 1_555
H6 C8 1_555 1_555
H7 C8 1_555 1_555
H8 C8 1_555 1_555
C9 S3 1_555 1_555
C10 C9 1_555 1_555
H9 C10 1_555 1_555
C11 C10 1_555 1_555
C12 C11 1_555 1_555
C13 C12 1_555 1_555
H10 C13 1_555 1_555
C14 S4 1_555 1_555
C15 O4 1_555 1_555
H11 C15 1_555 1_555
H12 C15 1_555 1_555
H13 C15 1_555 1_555
C16 O5 1_555 1_555
H14 C16 1_555 1_555
H15 C16 1_555 1_555
H16 C16 1_555 1_555
Na1 O1 1_555 1_555
O6 Na1 1_555 1_555
C17 O6 1_555 1_555
H17 C17 1_555 1_555
H18 C17 1_555 1_555
H19 C17 1_555 1_555
H20 O6 1_555 1_555
Na2 O1 1_555 1_555
O7 Na2 1_555 1_555
C18 O7 1_555 1_555
H21 C18 1_555 1_555
H22 C18 1_555 1_555
H23 C18 1_555 1_555
H24 O7 1_555 1_555
O8 Na1 1_555 1_555
C19 O8 1_555 1_555
H25 C19 1_555 1_555
H26 C19 1_555 1_555
H27 C19 1_555 1_555
H28 O8 1_555 1_555
O9 Na1 1_555 1_555
C20 O9 1_555 1_555
H29 C20 1_555 1_555
H30 C20 1_555 1_555
H31 C20 1_555 1_555
H32 O9 1_555 1_555
O2A Na1 1_555 1_555
O3A Na1 1_555 1_555
O4A Na2 1_555 1_555
O5A Na2 1_555 1_555
Na1A O2 1_555 1_555
Na2A O4 1_555 1_555
O3 Na1A 1_555 1_555
O5 Na2A 1_555 1_555
C1 C6 1_555 1_555
C5 C6 1_555 1_555
C9 C14 1_555 1_555
C13 C14 1_555 1_555
Na2 O8 1_555 1_555

#END
