
#######################################################################
#
#                 Cambridge Crystallographic Data Centre
#                                CCDC 
#
#######################################################################
#
# If this CIF has been generated from an entry in the Cambridge 
# Structural Database, then it will include bibliographic, chemical, 
# crystal, experimental, refinement or atomic coordinate data resulting 
# from the CCDC's data processing and validation procedures.
#
#######################################################################

data_ODOWAF
_symmetry_cell_setting           monoclinic
_symmetry_space_group_name_H-M   'C c'
_symmetry_Int_Tables_number      9
_space_group_name_Hall           'C -2yc'
loop_
_symmetry_equiv_pos_site_id
_symmetry_equiv_pos_as_xyz
1 x,y,z
2 x,-y,1/2+z
3 1/2+x,1/2+y,z
4 1/2+x,1/2-y,1/2+z
_cell_length_a                   8.874(2)
_cell_length_b                   17.329(6)
_cell_length_c                   14.646(4)
_cell_angle_alpha                90
_cell_angle_beta                 92.775(4)
_cell_angle_gamma                90
_cell_volume                     2249.58
loop_
_atom_site_label
_atom_site_type_symbol
_atom_site_fract_x
_atom_site_fract_y
_atom_site_fract_z
Li1 Li 0.5320(7) 0.1865(3) 0.8995(4)
B1 B 0.1409(5) -0.0289(2) 0.7466(3)
O1 O 0.2247(3) 0.02422(14) 0.81141(17)
C1 C 0.3144(4) 0.08158(19) 0.7861(3)
O2 O 0.3711(3) 0.12555(15) 0.84507(18)
C2 C 0.3401(4) 0.08800(19) 0.6867(2)
C3 C 0.4262(5) 0.1488(2) 0.6531(3)
H1 H 0.4680 0.1865 0.6940
C4 C 0.4510(5) 0.1540(3) 0.5588(3)
H2 H 0.5070 0.1958 0.5358
C5 C 0.3917(5) 0.0965(3) 0.4992(3)
H3 H 0.4098 0.0996 0.4359
C6 C 0.3077(4) 0.0359(2) 0.5309(3)
H4 H 0.2677 -0.0021 0.4897
C7 C 0.2818(4) 0.0307(2) 0.6256(3)
O3 O 0.2014(3) -0.03020(15) 0.65578(18)
O4 O 0.1646(3) -0.10733(14) 0.78652(18)
C8 C 0.0547(4) -0.1570(2) 0.8048(2)
O5 O 0.0904(3) -0.22310(14) 0.83223(19)
C9 C -0.1023(4) -0.1298(2) 0.7911(2)
C10 C -0.2252(4) -0.1788(2) 0.8108(3)
H5 H -0.2060 -0.2298 0.8323
C11 C -0.3725(4) -0.1531(2) 0.7989(3)
H6 H -0.4540 -0.1859 0.8128
C12 C -0.4007(4) -0.0776(2) 0.7661(3)
H7 H -0.5019 -0.0603 0.7571
C13 C -0.2830(4) -0.0281(2) 0.7464(3)
H8 H -0.3035 0.0227 0.7248
C14 C -0.1318(4) -0.0544(2) 0.7592(2)
O6 O -0.0184(3) -0.00481(15) 0.7418(2)
O7 O 0.4680(3) 0.22784(18) 1.0137(2)
C15 C 0.5177(12) 0.3024(5) 1.0506(6)
H9 H 0.6291 0.3055 1.0499
H10 H 0.4750 0.3441 1.0112
C16 C 0.4731(7) 0.3135(3) 1.1403(4)
H11 H 0.4452 0.3680 1.1508
H12 H 0.5543 0.2984 1.1855
C17 C 0.3351(6) 0.2599(4) 1.1455(4)
H13 H 0.3308 0.2364 1.2070
H14 H 0.2401 0.2885 1.1315
C18 C 0.3611(8) 0.1988(4) 1.0732(5)
H15 H 0.3992 0.1507 1.1026
H16 H 0.2652 0.1870 1.0386
O8 O 0.7126(3) 0.12370(17) 0.9193(2)
C19 C 0.8643(5) 0.1497(3) 0.9050(3)
H17 H 0.8709 0.2066 0.9096
H18 H 0.8962 0.1338 0.8439
C20 C 0.9622(6) 0.1117(3) 0.9799(4)
H19 H 1.0657 0.1028 0.9599
H20 H 0.9673 0.1436 1.0361
C21 C 0.8822(5) 0.0369(3) 0.9951(3)
H21 H 0.9089 -0.0023 0.9495
H22 H 0.9061 0.0165 1.0573
C22 C 0.7184(6) 0.0596(3) 0.9832(4)
H23 H 0.6573 0.0158 0.9586
H24 H 0.6790 0.0754 1.0425
O5B O 0.5904(3) 0.27690(14) 0.83223(19)
Li1B Li 0.0320(7) -0.3135(3) 0.8995(4)
loop_
_geom_bond_atom_site_label_1
_geom_bond_atom_site_label_2
_geom_bond_site_symmetry_1
_geom_bond_site_symmetry_2
Li1 O2 1_555 1_555
B1 O1 1_555 1_555
O1 C1 1_555 1_555
C1 O2 1_555 1_555
C2 C1 1_555 1_555
C3 C2 1_555 1_555
H1 C3 1_555 1_555
C4 C3 1_555 1_555
H2 C4 1_555 1_555
C5 C4 1_555 1_555
H3 C5 1_555 1_555
C6 C5 1_555 1_555
H4 C6 1_555 1_555
C7 C2 1_555 1_555
O3 B1 1_555 1_555
O4 B1 1_555 1_555
C8 O4 1_555 1_555
O5 C8 1_555 1_555
C9 C8 1_555 1_555
C10 C9 1_555 1_555
H5 C10 1_555 1_555
C11 C10 1_555 1_555
H6 C11 1_555 1_555
C12 C11 1_555 1_555
H7 C12 1_555 1_555
C13 C12 1_555 1_555
H8 C13 1_555 1_555
C14 C9 1_555 1_555
O6 B1 1_555 1_555
O7 Li1 1_555 1_555
C15 O7 1_555 1_555
H9 C15 1_555 1_555
H10 C15 1_555 1_555
C16 C15 1_555 1_555
H11 C16 1_555 1_555
H12 C16 1_555 1_555
C17 C16 1_555 1_555
H13 C17 1_555 1_555
H14 C17 1_555 1_555
C18 O7 1_555 1_555
H15 C18 1_555 1_555
H16 C18 1_555 1_555
O8 Li1 1_555 1_555
C19 O8 1_555 1_555
H17 C19 1_555 1_555
H18 C19 1_555 1_555
C20 C19 1_555 1_555
H19 C20 1_555 1_555
H20 C20 1_555 1_555
C21 C20 1_555 1_555
H21 C21 1_555 1_555
H22 C21 1_555 1_555
C22 O8 1_555 1_555
H23 C22 1_555 1_555
H24 C22 1_555 1_555
O5B Li1 1_555 1_555
Li1B O5 1_555 1_555
C6 C7 1_555 1_555
C7 O3 1_555 1_555
C13 C14 1_555 1_555
C14 O6 1_555 1_555
C17 C18 1_555 1_555
C21 C22 1_555 1_555

#END
