
#######################################################################
#
#                 Cambridge Crystallographic Data Centre
#                                CCDC 
#
#######################################################################
#
# If this CIF has been generated from an entry in the Cambridge 
# Structural Database, then it will include bibliographic, chemical, 
# crystal, experimental, refinement or atomic coordinate data resulting 
# from the CCDC's data processing and validation procedures.
#
#######################################################################

data_ODOXAG
_symmetry_cell_setting           monoclinic
_symmetry_space_group_name_H-M   'P 21/c'
_symmetry_Int_Tables_number      14
_space_group_name_Hall           '-P 2ybc'
loop_
_symmetry_equiv_pos_site_id
_symmetry_equiv_pos_as_xyz
1 x,y,z
2 x,1/2-y,1/2+z
3 -x,-y,-z
4 -x,1/2+y,1/2-z
_cell_length_a                   10.1323(2)
_cell_length_b                   19.5669(5)
_cell_length_c                   13.15880(10)
_cell_angle_alpha                90
_cell_angle_beta                 108.9810(10)
_cell_angle_gamma                90
_cell_volume                     2466.98
loop_
_atom_site_label
_atom_site_type_symbol
_atom_site_fract_x
_atom_site_fract_y
_atom_site_fract_z
Cd1 Cd 0.29437(6) 0.70348(3) 0.37280(4)
Cd2 Cd 0.42388(6) 0.62789(3) 0.18568(4)
Cd3 Cd 0.15844(6) 0.79026(3) 0.10899(5)
C1 C 0.7434(9) 0.5793(4) 0.3254(6)
H1 H 0.6947 0.5497 0.3606
H2 H 0.7536 0.6238 0.3596
C2 C 0.8897(9) 0.5492(5) 0.3400(6)
H3 H 0.9611 0.5771 0.3896
H4 H 0.8965 0.5033 0.3688
C3 C 0.7306(9) 0.6371(4) 0.1589(7)
C4 C 0.8839(9) 0.6184(4) 0.1811(7)
H5 H 0.9055 0.6184 0.1145
H6 H 0.9434 0.6517 0.2292
C5 C 0.6580(9) 0.5189(4) 0.1572(7)
H7 H 0.5975 0.5212 0.0830
H8 H 0.6217 0.4843 0.1936
C6 C 0.8065(9) 0.4994(4) 0.1608(8)
H9 H 0.8274 0.4532 0.1881
H10 H 0.8128 0.5007 0.0888
C7 C 0.7937(8) 0.9233(4) 0.3765(6)
C8 C 0.6803(8) 0.8812(4) 0.3716(6)
C9 C 0.9224(9) 0.8944(4) 0.3809(6)
C10 C 0.7762(9) 1.0011(4) 0.3681(6)
C11 C 0.3322(8) 0.4858(4) 0.3847(6)
C12 C 0.4490(8) 0.4511(4) 0.3769(6)
C13 C 0.4592(8) 0.3805(4) 0.3863(6)
C14 C 0.3218(8) 0.5617(4) 0.3775(6)
N1 N 0.6592(7) 0.5863(3) 0.2099(5)
N2 N 0.9102(7) 0.5481(4) 0.2320(6)
O1 O 0.2296(5) 0.6905(3) 0.1881(4)
O2 O 0.4029(6) 0.6327(3) 0.0042(4)
O3 O 0.6603(6) 1.0240(3) 0.3724(5)
O4 O 0.8722(6) 1.0371(3) 0.3543(5)
O5 O 0.4788(6) 0.7730(3) 0.3914(5)
O6 O 0.5612(6) 0.7163(3) 0.2770(5)
O7 O 1.0913(6) 0.7282(3) 0.4135(4)
O8 O 1.1551(6) 0.8221(3) 0.3465(5)
O9 O 0.4207(6) 0.5954(3) 0.3576(4)
O10 O 0.2195(6) 0.5913(3) 0.3911(5)
O11 O 0.6581(6) 0.3703(3) 0.3268(5)
O12 O 0.6295(6) 0.2912(3) 0.4381(4)
O13 O -0.0007(6) 0.3725(3) 0.4169(5)
O14 O 0.0865(6) 0.2744(3) 0.3832(5)
C15 C 0.6930(8) 0.8103(4) 0.3678(6)
C16 C 0.8210(8) 0.7816(4) 0.3726(6)
C17 C 0.9366(8) 0.8238(4) 0.3806(6)
C18 C 0.2227(9) 0.4479(4) 0.3977(6)
C19 C 0.2264(8) 0.3766(4) 0.3998(6)
C20 C 0.3465(8) 0.3426(4) 0.3968(6)
C21 C 0.5690(8) 0.7630(4) 0.3444(6)
C22 C 1.0702(9) 0.7909(4) 0.3792(6)
C23 C 0.5898(9) 0.3458(4) 0.3834(6)
C24 C 0.0964(8) 0.3380(4) 0.4002(6)
H11 H 0.990(8) 0.926(3) 0.381(5)
H12 H 0.140(9) 0.468(4) 0.389(6)
H13 H 0.608(8) 0.902(4) 0.374(6)
H14 H 0.513(9) 0.485(4) 0.365(6)
H15 H 0.347(8) 0.294(4) 0.399(6)
O7_2 O 0.0913(6) 0.7282(3) 0.4135(4)
O12B O 0.3705(6) 0.7088(3) 0.5619(4)
O3C O 0.3397(6) 0.5240(3) 0.1276(5)
O7A O 0.0913(6) 0.7718(3) -0.0865(4)
O11C O 0.3419(6) 0.8703(3) 0.1732(5)
O12C O 0.3705(6) 0.7912(3) 0.0619(4)
O13C O 0.0007(6) 0.8725(3) 0.0831(5)
O14C O -0.0865(6) 0.7744(3) 0.1168(5)
Cd2C Cd 0.57612(6) 1.12789(3) 0.31432(4)
Cd1_2 Cd 1.29437(6) 0.70348(3) 0.37280(4)
Cd3A Cd 1.15844(6) 0.70974(3) 0.60899(5)
Cd3C Cd 0.84156(6) 0.29026(3) 0.39101(5)
Cd1B Cd 0.70563(6) 0.29652(3) 0.62720(4)
Cd3C_2 Cd -0.15844(6) 0.29026(3) 0.39101(5)
loop_
_geom_bond_atom_site_label_1
_geom_bond_atom_site_label_2
_geom_bond_site_symmetry_1
_geom_bond_site_symmetry_2
Cd1 O1 1_555 1_555
Cd2 N1 1_555 1_555
Cd3 O1 1_555 1_555
C1 H1 1_555 1_555
H2 C1 1_555 1_555
C2 C1 1_555 1_555
H3 C2 1_555 1_555
H4 C2 1_555 1_555
C3 C4 1_555 1_555
C4 H5 1_555 1_555
H6 C4 1_555 1_555
C5 H7 1_555 1_555
H8 C5 1_555 1_555
C6 C5 1_555 1_555
H9 C6 1_555 1_555
H10 C6 1_555 1_555
C7 C8 1_555 1_555
C8 C15 1_555 1_555
C9 C7 1_555 1_555
C10 C7 1_555 1_555
C11 C12 1_555 1_555
C12 C13 1_555 1_555
C13 C20 1_555 1_555
C14 C11 1_555 1_555
N1 C1 1_555 1_555
N2 C2 1_555 1_555
O1 Cd2 1_555 1_555
O2 Cd2 1_555 1_555
O3 C10 1_555 1_555
O4 C10 1_555 1_555
O5 Cd1 1_555 1_555
O6 Cd2 1_555 1_555
O7 C22 1_555 1_555
O8 C22 1_555 1_555
O9 Cd1 1_555 1_555
O10 Cd1 1_555 1_555
O11 C23 1_555 1_555
O12 C23 1_555 1_555
O13 C24 1_555 1_555
O14 C24 1_555 1_555
C15 C16 1_555 1_555
C16 C17 1_555 1_555
C17 C9 1_555 1_555
C18 C11 1_555 1_555
C19 C18 1_555 1_555
C20 C19 1_555 1_555
C21 O5 1_555 1_555
C22 C17 1_555 1_555
C23 C13 1_555 1_555
C24 C19 1_555 1_555
H11 C9 1_555 1_555
H12 C18 1_555 1_555
H13 C8 1_555 1_555
H14 C12 1_555 1_555
H15 C20 1_555 1_555
O7_2 Cd1 1_555 1_555
O12B Cd1 1_555 1_555
O3C Cd2 1_555 1_555
O7A Cd3 1_555 1_555
O11C Cd3 1_555 1_555
O12C Cd3 1_555 1_555
O13C Cd3 1_555 1_555
O14C Cd3 1_555 1_555
Cd2C O3 1_555 1_555
Cd1_2 O7 1_555 1_555
Cd3A O7 1_555 1_555
Cd3C O11 1_555 1_555
Cd1B O12 1_555 1_555
Cd3C_2 O13 1_555 1_555
Cd2 O9 1_555 1_555
C3 N1 1_555 1_555
C4 N2 1_555 1_555
C5 N1 1_555 1_555
C6 N2 1_555 1_555
C14 O9 1_555 1_555
C14 O10 1_555 1_555
O6 C21 1_555 1_555
O12 Cd3C 1_555 1_555
O14 Cd3C_2 1_555 1_555
C15 C21 1_555 1_555

#END
