
#######################################################################
#
#                 Cambridge Crystallographic Data Centre
#                                CCDC 
#
#######################################################################
#
# If this CIF has been generated from an entry in the Cambridge 
# Structural Database, then it will include bibliographic, chemical, 
# crystal, experimental, refinement or atomic coordinate data resulting 
# from the CCDC's data processing and validation procedures.
#
#######################################################################

data_ODUFID
_symmetry_cell_setting           orthorhombic
_symmetry_space_group_name_H-M   'P b c a'
_symmetry_Int_Tables_number      61
_space_group_name_Hall           '-P 2ac 2ab'
loop_
_symmetry_equiv_pos_site_id
_symmetry_equiv_pos_as_xyz
1 x,y,z
2 1/2-x,-y,1/2+z
3 1/2+x,1/2-y,-z
4 -x,1/2+y,1/2-z
5 -x,-y,-z
6 1/2+x,y,1/2-z
7 1/2-x,1/2+y,z
8 x,1/2-y,1/2+z
_cell_length_a                   19.6451(4)
_cell_length_b                   43.4403(10)
_cell_length_c                   21.9380(4)
_cell_angle_alpha                90
_cell_angle_beta                 90
_cell_angle_gamma                90
_cell_volume                     18721.6
loop_
_atom_site_label
_atom_site_type_symbol
_atom_site_fract_x
_atom_site_fract_y
_atom_site_fract_z
K1 K 0.26571(8) -0.11187(4) 0.38918(8)
K2 K 0.28160(8) 0.14165(4) 0.35178(8)
O1 O 0.2113(3) 0.01216(17) 0.1864(3)
O2 O 0.3602(3) 0.00073(13) 0.2200(4)
O3 O 0.2852(3) 0.26506(14) 0.5596(2)
O4 O 0.1326(3) 0.25176(12) 0.5329(3)
N1 N 0.3225(3) -0.16983(18) 0.3650(4)
N2 N 0.2929(4) -0.19697(16) 0.4550(4)
N3 N 0.1770(4) -0.06444(19) 0.3613(3)
N4 N 0.2479(4) -0.02807(17) 0.3134(3)
N5 N 0.3186(3) 0.08287(17) 0.3805(4)
N6 N 0.2738(4) 0.05212(18) 0.2993(4)
N7 N 0.1866(4) 0.18643(19) 0.3753(3)
N8 N 0.2456(4) 0.22355(16) 0.4352(3)
C1 C 0.3589(6) -0.17228(19) 0.3107(5)
C2 C 0.3237(5) -0.16862(18) 0.2549(5)
C3 C 0.3587(5) -0.16993(18) 0.2001(4)
H1 H 0.3340 -0.1679 0.1631
C4 C 0.4288(6) -0.17420(18) 0.1975(4)
H2 H 0.4519 -0.1755 0.1596
C5 C 0.4635(4) -0.17640(17) 0.2518(6)
H3 H 0.5115 -0.1791 0.2506
C6 C 0.4315(6) -0.1749(2) 0.3086(5)
C7 C 0.2471(4) -0.16447(18) 0.2545(3)
H4 H 0.2345 -0.1490 0.2234
H5 H 0.2320 -0.1568 0.2947
C8 C 0.2110(3) -0.19492(18) 0.2404(3)
H6 H 0.2238 -0.2019 0.1994
H7 H 0.1616 -0.1919 0.2423
H8 H 0.2246 -0.2105 0.2704
C9 C 0.4749(4) -0.1773(2) 0.3654(4)
H9 H 0.4457 -0.1736 0.4014
H10 H 0.5097 -0.1608 0.3643
C10 C 0.5112(4) -0.2086(2) 0.3732(3)
H11 H 0.4775 -0.2252 0.3718
H12 H 0.5349 -0.2091 0.4125
H13 H 0.5443 -0.2114 0.3402
C11 C 0.2538(5) -0.1709(2) 0.4729(4)
C12 C 0.2790(5) -0.1501(3) 0.5147(4)
C13 C 0.2391(6) -0.1246(2) 0.5335(4)
H14 H 0.2572 -0.1101 0.5616
C14 C 0.1734(5) -0.1209(2) 0.5110(4)
H15 H 0.1466 -0.1036 0.5225
C15 C 0.1481(4) -0.1431(3) 0.4707(4)
H16 H 0.1029 -0.1408 0.4559
C16 C 0.1857(5) -0.1683(2) 0.4514(4)
C17 C 0.3511(4) -0.15183(18) 0.5393(3)
H17 H 0.3677 -0.1733 0.5364
H18 H 0.3512 -0.1458 0.5828
C18 C 0.3990(3) -0.13063(18) 0.5037(3)
H19 H 0.3960 -0.1354 0.4601
H20 H 0.4458 -0.1338 0.5178
H21 H 0.3858 -0.1091 0.5105
C19 C 0.1588(4) -0.19189(18) 0.4086(4)
H22 H 0.1567 -0.2118 0.4304
H23 H 0.1918 -0.1943 0.3748
C20 C 0.0881(3) -0.18531(16) 0.3809(3)
H24 H 0.0552 -0.1819 0.4138
H25 H 0.0736 -0.2030 0.3564
H26 H 0.0906 -0.1669 0.3551
C21 C 0.3232(4) -0.1935(2) 0.4020(5)
H27 H 0.3492 -0.2107 0.3886
C22 C 0.1100(5) -0.0708(2) 0.3807(5)
C23 C 0.0832(5) -0.0614(2) 0.4360(6)
C24 C 0.0193(6) -0.0703(2) 0.4569(4)
H28 H 0.0027 -0.0628 0.4947
C25 C -0.0196(4) -0.0900(2) 0.4227(5)
H29 H -0.0639 -0.0957 0.4357
C26 C 0.0068(5) -0.1014(2) 0.3689(4)
H30 H -0.0193 -0.1157 0.3459
C27 C 0.0707(5) -0.0925(2) 0.3476(5)
C28 C 0.1247(5) -0.0402(2) 0.4785(4)
H31 H 0.1155 -0.0459 0.5214
H32 H 0.1738 -0.0434 0.4708
C29 C 0.1085(4) -0.0072(2) 0.4700(4)
H33 H 0.1235 -0.0006 0.4294
H34 H 0.1320 0.0050 0.5011
H35 H 0.0592 -0.0042 0.4737
C30 C 0.0960(4) -0.10571(19) 0.2879(4)
H36 H 0.1456 -0.1095 0.2912
H37 H 0.0736 -0.1258 0.2809
C31 C 0.0831(4) -0.08542(19) 0.2341(4)
H38 H 0.0339 -0.0824 0.2292
H39 H 0.1016 -0.0951 0.1973
H40 H 0.1052 -0.0655 0.2405
C32 C 0.3023(5) -0.0491(2) 0.3242(5)
C33 C 0.3396(5) -0.0470(2) 0.3784(5)
C34 C 0.3939(5) -0.0681(3) 0.3865(4)
H41 H 0.4187 -0.0677 0.4237
C35 C 0.4121(4) -0.0891(2) 0.3423(5)
H42 H 0.4492 -0.1027 0.3490
C36 C 0.3761(5) -0.0903(2) 0.2885(4)
H43 H 0.3886 -0.1049 0.2582
C37 C 0.3210(5) -0.0704(2) 0.2778(4)
C38 C 0.3229(4) -0.0252(2) 0.4295(4)
H44 H 0.3029 -0.0372 0.4635
H45 H 0.2879 -0.0105 0.4151
C39 C 0.3839(4) -0.00698(17) 0.4537(3)
H46 H 0.4151 -0.0209 0.4749
H47 H 0.3679 0.0088 0.4822
H48 H 0.4077 0.0029 0.4196
C40 C 0.2799(4) -0.07168(18) 0.2202(4)
H49 H 0.2703 -0.0503 0.2071
H50 H 0.2357 -0.0815 0.2296
C41 C 0.3119(3) -0.08865(17) 0.1672(3)
H51 H 0.3552 -0.0789 0.1565
H52 H 0.2811 -0.0880 0.1321
H53 H 0.3201 -0.1101 0.1788
C42 C 0.1893(5) -0.0383(2) 0.3339(4)
H54 H 0.1513 -0.0251 0.3282
C43 C 0.3555(5) 0.07933(18) 0.4344(5)
C44 C 0.3250(5) 0.0839(2) 0.4900(5)
C45 C 0.3596(5) 0.08178(19) 0.5450(4)
H55 H 0.3359 0.0843 0.5824
C46 C 0.4291(6) 0.0759(2) 0.5450(5)
H56 H 0.4537 0.0750 0.5823
C47 C 0.4617(4) 0.0714(2) 0.4901(6)
H57 H 0.5091 0.0670 0.4898
C48 C 0.4270(6) 0.0733(2) 0.4357(5)
C49 C 0.2475(4) 0.09031(19) 0.4930(4)
H58 H 0.2373 0.1034 0.5288
H59 H 0.2330 0.1015 0.4559
C50 C 0.2085(4) 0.06005(19) 0.4980(3)
H60 H 0.2189 0.0471 0.4627
H61 H 0.1596 0.0643 0.4992
H62 H 0.2221 0.0493 0.5354
C51 C 0.4642(4) 0.06862(19) 0.3754(4)
H63 H 0.5012 0.0534 0.3815
H64 H 0.4320 0.0599 0.3452
C52 C 0.4941(4) 0.0977(2) 0.3501(3)
H65 H 0.4578 0.1129 0.3436
H66 H 0.5166 0.0933 0.3111
H67 H 0.5275 0.1061 0.3789
C53 C 0.2521(6) 0.0798(3) 0.2727(5)
C54 C 0.1858(7) 0.0900(3) 0.2849(5)
C55 C 0.1623(5) 0.1160(3) 0.2549(5)
H68 H 0.1167 0.1225 0.2619
C56 C 0.2019(6) 0.1330(2) 0.2153(5)
H69 H 0.1845 0.1511 0.1963
C57 C 0.2679(6) 0.1231(3) 0.2040(4)
H70 H 0.2960 0.1343 0.1766
C58 C 0.2930(6) 0.0969(3) 0.2322(5)
C59 C 0.1391(5) 0.0747(2) 0.3304(4)
H71 H 0.1668 0.0658 0.3637
H72 H 0.1087 0.0904 0.3484
C60 C 0.0967(4) 0.0498(2) 0.3028(4)
H73 H 0.0699 0.0584 0.2692
H74 H 0.0661 0.0414 0.3338
H75 H 0.1264 0.0335 0.2874
C61 C 0.3648(5) 0.0859(2) 0.2209(4)
H76 H 0.3963 0.0994 0.2439
H77 H 0.3692 0.0649 0.2381
C62 C 0.3880(4) 0.08494(19) 0.1559(4)
H78 H 0.3570 0.0720 0.1321
H79 H 0.4341 0.0764 0.1539
H80 H 0.3881 0.1058 0.1391
C63 C 0.3059(4) 0.0566(2) 0.3520(5)
H81 H 0.3219 0.0386 0.3718
C64 C 0.1202(5) 0.1799(2) 0.3507(5)
C65 C 0.1007(5) 0.1905(2) 0.2927(5)
C66 C 0.0377(6) 0.1813(2) 0.2694(4)
H82 H 0.0235 0.1885 0.2305
C67 C -0.0040(5) 0.1620(2) 0.3022(6)
H83 H -0.0465 0.1559 0.2854
C68 C 0.0145(5) 0.1513(2) 0.3592(5)
H84 H -0.0155 0.1382 0.3811
C69 C 0.0772(6) 0.1597(2) 0.3847(5)
C70 C 0.1467(4) 0.2107(2) 0.2549(4)
H85 H 0.1382 0.2068 0.2112
H86 H 0.1948 0.2054 0.2637
C71 C 0.1352(4) 0.24506(19) 0.2683(3)
H87 H 0.0868 0.2499 0.2636
H88 H 0.1619 0.2575 0.2397
H89 H 0.1495 0.2496 0.3101
C72 C 0.0971(4) 0.14704(19) 0.4448(4)
H90 H 0.1472 0.1447 0.4462
H91 H 0.0766 0.1264 0.4499
C73 C 0.0741(3) 0.16791(18) 0.4981(4)
H92 H 0.0940 0.1885 0.4931
H93 H 0.0895 0.1590 0.5367
H94 H 0.0244 0.1695 0.4981
C74 C 0.3057(5) 0.2055(2) 0.4284(5)
C75 C 0.3476(5) 0.2089(2) 0.3777(5)
C76 C 0.4069(5) 0.1909(2) 0.3722(4)
H95 H 0.4352 0.1930 0.3373
C77 C 0.4239(4) 0.1704(2) 0.4174(5)
H96 H 0.4636 0.1581 0.4127
C78 C 0.3852(5) 0.16703(19) 0.4690(4)
H97 H 0.3988 0.1534 0.5005
C79 C 0.3246(5) 0.1844(2) 0.4741(4)
C80 C 0.3280(4) 0.2311(2) 0.3279(4)
H98 H 0.3261 0.2520 0.3456
H99 H 0.2815 0.2259 0.3139
C81 C 0.3741(4) 0.23203(19) 0.2729(4)
H100 H 0.3789 0.2112 0.2561
H101 H 0.4190 0.2398 0.2850
H102 H 0.3545 0.2457 0.2420
C82 C 0.2772(4) 0.18091(17) 0.5284(4)
H103 H 0.2351 0.1704 0.5146
H104 H 0.2642 0.2017 0.5428
C83 C 0.3067(3) 0.16290(18) 0.5823(3)
H105 H 0.3215 0.1425 0.5684
H106 H 0.2718 0.1606 0.6139
H107 H 0.3458 0.1741 0.5991
C84 C 0.1907(5) 0.2120(3) 0.4070(4)
H108 H 0.1500 0.2237 0.4103
C85 C 0.1583(5) -0.0089(2) 0.1680(4)
H109 H 0.1775 -0.0255 0.1424
H110 H 0.1367 -0.0183 0.2043
C86 C 0.1091(5) 0.0085(3) 0.1340(5)
H111 H 0.0690 0.0136 0.1596
H112 H 0.0936 -0.0030 0.0976
C87 C 0.1482(5) 0.0379(3) 0.1156(6)
H113 H 0.1531 0.0389 0.0708
H114 H 0.1233 0.0564 0.1295
C88 C 0.2090(5) 0.0366(2) 0.1419(5)
H115 H 0.2189 0.0565 0.1621
H116 H 0.2443 0.0330 0.1105
C89 C 0.3697(5) -0.0037(2) 0.1560(5)
H117 H 0.3529 0.0144 0.1331
H118 H 0.3445 -0.0221 0.1420
C90 C 0.4446(6) -0.0079(2) 0.1460(5)
H119 H 0.4666 0.0118 0.1343
H120 H 0.4536 -0.0234 0.1140
C91 C 0.4695(5) -0.0188(2) 0.2073(6)
H121 H 0.4632 -0.0413 0.2120
H122 H 0.5181 -0.0137 0.2135
C92 C 0.4253(5) -0.0014(2) 0.2502(4)
H123 H 0.4209 -0.0125 0.2895
H124 H 0.4442 0.0193 0.2581
C93 C 0.2771(4) 0.2869(2) 0.6078(4)
H125 H 0.2681 0.2763 0.6469
H126 H 0.2386 0.3009 0.5990
C94 C 0.3435(4) 0.30482(19) 0.6113(3)
H127 H 0.3553 0.3098 0.6541
H128 H 0.3405 0.3242 0.5877
C95 C 0.3960(4) 0.2828(2) 0.5832(4)
H129 H 0.4188 0.2925 0.5477
H130 H 0.4310 0.2770 0.6135
C96 C 0.3552(4) 0.2552(2) 0.5637(4)
H131 H 0.3713 0.2475 0.5238
H132 H 0.3598 0.2384 0.5940
C97 C 0.1227(4) 0.24057(19) 0.5935(4)
H133 H 0.1589 0.2482 0.6210
H134 H 0.1230 0.2178 0.5942
C98 C 0.0537(4) 0.25282(18) 0.6129(4)
H135 H 0.0321 0.2393 0.6435
H136 H 0.0573 0.2739 0.6296
C99 C 0.0149(4) 0.25254(19) 0.5536(4)
H137 H -0.0224 0.2678 0.5541
H138 H -0.0044 0.2319 0.5453
C100 C 0.0682(4) 0.26093(17) 0.5068(4)
H139 H 0.0599 0.2499 0.4681
H140 H 0.0677 0.2834 0.4987
Li1 Li 0.2681(6) 0.0101(3) 0.2616(6)
Li2 Li 0.2221(6) 0.2610(3) 0.4901(6)
N2F N 0.2071(4) 0.30303(16) 0.4550(4)
Li2F Li 0.2779(6) -0.2390(3) 0.4901(6)
loop_
_geom_bond_atom_site_label_1
_geom_bond_atom_site_label_2
_geom_bond_site_symmetry_1
_geom_bond_site_symmetry_2
K1 N1 1_555 1_555
K2 N5 1_555 1_555
O1 C85 1_555 1_555
O2 C89 1_555 1_555
O3 C93 1_555 1_555
O4 C97 1_555 1_555
N1 C1 1_555 1_555
N2 C11 1_555 1_555
N3 K1 1_555 1_555
N4 C32 1_555 1_555
N5 C43 1_555 1_555
N6 C53 1_555 1_555
N7 K2 1_555 1_555
N8 C74 1_555 1_555
C1 C2 1_555 1_555
C2 C3 1_555 1_555
C3 H1 1_555 1_555
C4 C3 1_555 1_555
H2 C4 1_555 1_555
C5 C4 1_555 1_555
H3 C5 1_555 1_555
C6 C1 1_555 1_555
C7 C2 1_555 1_555
H4 C7 1_555 1_555
H5 C7 1_555 1_555
C8 C7 1_555 1_555
H6 C8 1_555 1_555
H7 C8 1_555 1_555
H8 C8 1_555 1_555
C9 C6 1_555 1_555
H9 C9 1_555 1_555
H10 C9 1_555 1_555
C10 C9 1_555 1_555
H11 C10 1_555 1_555
H12 C10 1_555 1_555
H13 C10 1_555 1_555
C11 K1 1_555 1_555
C12 K1 1_555 1_555
C13 K1 1_555 1_555
H14 C13 1_555 1_555
C14 K1 1_555 1_555
H15 C14 1_555 1_555
C15 K1 1_555 1_555
H16 C15 1_555 1_555
C16 K1 1_555 1_555
C17 C12 1_555 1_555
H17 C17 1_555 1_555
H18 C17 1_555 1_555
C18 C17 1_555 1_555
H19 C18 1_555 1_555
H20 C18 1_555 1_555
H21 C18 1_555 1_555
C19 C16 1_555 1_555
H22 C19 1_555 1_555
H23 C19 1_555 1_555
C20 C19 1_555 1_555
H24 C20 1_555 1_555
H25 C20 1_555 1_555
H26 C20 1_555 1_555
C21 N1 1_555 1_555
H27 C21 1_555 1_555
C22 N3 1_555 1_555
C23 C22 1_555 1_555
C24 C23 1_555 1_555
H28 C24 1_555 1_555
C25 C24 1_555 1_555
H29 C25 1_555 1_555
C26 C25 1_555 1_555
H30 C26 1_555 1_555
C27 C22 1_555 1_555
C28 C23 1_555 1_555
H31 C28 1_555 1_555
H32 C28 1_555 1_555
C29 C28 1_555 1_555
H33 C29 1_555 1_555
H34 C29 1_555 1_555
H35 C29 1_555 1_555
C30 C27 1_555 1_555
H36 C30 1_555 1_555
H37 C30 1_555 1_555
C31 C30 1_555 1_555
H38 C31 1_555 1_555
H39 C31 1_555 1_555
H40 C31 1_555 1_555
C32 K1 1_555 1_555
C33 K1 1_555 1_555
C34 K1 1_555 1_555
H41 C34 1_555 1_555
C35 K1 1_555 1_555
H42 C35 1_555 1_555
C36 K1 1_555 1_555
H43 C36 1_555 1_555
C37 K1 1_555 1_555
C38 C33 1_555 1_555
H44 C38 1_555 1_555
H45 C38 1_555 1_555
C39 C38 1_555 1_555
H46 C39 1_555 1_555
H47 C39 1_555 1_555
H48 C39 1_555 1_555
C40 C37 1_555 1_555
H49 C40 1_555 1_555
H50 C40 1_555 1_555
C41 C40 1_555 1_555
H51 C41 1_555 1_555
H52 C41 1_555 1_555
H53 C41 1_555 1_555
C42 N3 1_555 1_555
H54 C42 1_555 1_555
C43 C44 1_555 1_555
C44 C45 1_555 1_555
C45 H55 1_555 1_555
C46 C45 1_555 1_555
H56 C46 1_555 1_555
C47 C46 1_555 1_555
H57 C47 1_555 1_555
C48 C43 1_555 1_555
C49 C44 1_555 1_555
H58 C49 1_555 1_555
H59 C49 1_555 1_555
C50 C49 1_555 1_555
H60 C50 1_555 1_555
H61 C50 1_555 1_555
H62 C50 1_555 1_555
C51 C48 1_555 1_555
H63 C51 1_555 1_555
H64 C51 1_555 1_555
C52 C51 1_555 1_555
H65 C52 1_555 1_555
H66 C52 1_555 1_555
H67 C52 1_555 1_555
C53 K2 1_555 1_555
C54 K2 1_555 1_555
C55 K2 1_555 1_555
H68 C55 1_555 1_555
C56 K2 1_555 1_555
H69 C56 1_555 1_555
C57 K2 1_555 1_555
H70 C57 1_555 1_555
C58 K2 1_555 1_555
C59 C54 1_555 1_555
H71 C59 1_555 1_555
H72 C59 1_555 1_555
C60 C59 1_555 1_555
H73 C60 1_555 1_555
H74 C60 1_555 1_555
H75 C60 1_555 1_555
C61 C58 1_555 1_555
H76 C61 1_555 1_555
H77 C61 1_555 1_555
C62 C61 1_555 1_555
H78 C62 1_555 1_555
H79 C62 1_555 1_555
H80 C62 1_555 1_555
C63 N5 1_555 1_555
H81 C63 1_555 1_555
C64 N7 1_555 1_555
C65 C64 1_555 1_555
C66 C65 1_555 1_555
H82 C66 1_555 1_555
C67 C66 1_555 1_555
H83 C67 1_555 1_555
C68 C67 1_555 1_555
H84 C68 1_555 1_555
C69 C64 1_555 1_555
C70 C65 1_555 1_555
H85 C70 1_555 1_555
H86 C70 1_555 1_555
C71 C70 1_555 1_555
H87 C71 1_555 1_555
H88 C71 1_555 1_555
H89 C71 1_555 1_555
C72 C69 1_555 1_555
H90 C72 1_555 1_555
H91 C72 1_555 1_555
C73 C72 1_555 1_555
H92 C73 1_555 1_555
H93 C73 1_555 1_555
H94 C73 1_555 1_555
C74 K2 1_555 1_555
C75 K2 1_555 1_555
C76 K2 1_555 1_555
H95 C76 1_555 1_555
C77 K2 1_555 1_555
H96 C77 1_555 1_555
C78 K2 1_555 1_555
H97 C78 1_555 1_555
C79 K2 1_555 1_555
C80 C75 1_555 1_555
H98 C80 1_555 1_555
H99 C80 1_555 1_555
C81 C80 1_555 1_555
H100 C81 1_555 1_555
H101 C81 1_555 1_555
H102 C81 1_555 1_555
C82 C79 1_555 1_555
H103 C82 1_555 1_555
H104 C82 1_555 1_555
C83 C82 1_555 1_555
H105 C83 1_555 1_555
H106 C83 1_555 1_555
H107 C83 1_555 1_555
C84 N7 1_555 1_555
H108 C84 1_555 1_555
C85 H109 1_555 1_555
H110 C85 1_555 1_555
C86 C85 1_555 1_555
H111 C86 1_555 1_555
H112 C86 1_555 1_555
C87 C86 1_555 1_555
H113 C87 1_555 1_555
H114 C87 1_555 1_555
C88 O1 1_555 1_555
H115 C88 1_555 1_555
H116 C88 1_555 1_555
C89 H117 1_555 1_555
H118 C89 1_555 1_555
C90 C89 1_555 1_555
H119 C90 1_555 1_555
H120 C90 1_555 1_555
C91 C90 1_555 1_555
H121 C91 1_555 1_555
H122 C91 1_555 1_555
C92 O2 1_555 1_555
H123 C92 1_555 1_555
H124 C92 1_555 1_555
C93 H125 1_555 1_555
H126 C93 1_555 1_555
C94 C93 1_555 1_555
H127 C94 1_555 1_555
H128 C94 1_555 1_555
C95 C94 1_555 1_555
H129 C95 1_555 1_555
H130 C95 1_555 1_555
C96 O3 1_555 1_555
H131 C96 1_555 1_555
H132 C96 1_555 1_555
C97 H133 1_555 1_555
H134 C97 1_555 1_555
C98 C97 1_555 1_555
H135 C98 1_555 1_555
H136 C98 1_555 1_555
C99 C98 1_555 1_555
H137 C99 1_555 1_555
H138 C99 1_555 1_555
C100 O4 1_555 1_555
H139 C100 1_555 1_555
H140 C100 1_555 1_555
Li1 O1 1_555 1_555
Li2 O3 1_555 1_555
N2F Li2 1_555 1_555
Li2F N2 1_555 1_555
O2 Li1 1_555 1_555
O4 Li2 1_555 1_555
N2 C21 1_555 1_555
N4 C42 1_555 1_555
N4 Li1 1_555 1_555
N6 C63 1_555 1_555
N6 Li1 1_555 1_555
N8 C84 1_555 1_555
N8 Li2 1_555 1_555
C5 C6 1_555 1_555
C11 C12 1_555 1_555
C11 C16 1_555 1_555
C12 C13 1_555 1_555
C13 C14 1_555 1_555
C14 C15 1_555 1_555
C15 C16 1_555 1_555
C26 C27 1_555 1_555
C32 C33 1_555 1_555
C32 C37 1_555 1_555
C33 C34 1_555 1_555
C34 C35 1_555 1_555
C35 C36 1_555 1_555
C36 C37 1_555 1_555
C47 C48 1_555 1_555
C53 C54 1_555 1_555
C53 C58 1_555 1_555
C54 C55 1_555 1_555
C55 C56 1_555 1_555
C56 C57 1_555 1_555
C57 C58 1_555 1_555
C68 C69 1_555 1_555
C74 C75 1_555 1_555
C74 C79 1_555 1_555
C75 C76 1_555 1_555
C76 C77 1_555 1_555
C77 C78 1_555 1_555
C78 C79 1_555 1_555
C87 C88 1_555 1_555
C91 C92 1_555 1_555
C95 C96 1_555 1_555
C99 C100 1_555 1_555

#END
