
#######################################################################
#
#                 Cambridge Crystallographic Data Centre
#                                CCDC 
#
#######################################################################
#
# If this CIF has been generated from an entry in the Cambridge 
# Structural Database, then it will include bibliographic, chemical, 
# crystal, experimental, refinement or atomic coordinate data resulting 
# from the CCDC's data processing and validation procedures.
#
#######################################################################

data_ODUGEA
_symmetry_cell_setting           orthorhombic
_symmetry_space_group_name_H-M   'P 21 21 21'
_symmetry_Int_Tables_number      19
_space_group_name_Hall           'P 2ac 2ab'
loop_
_symmetry_equiv_pos_site_id
_symmetry_equiv_pos_as_xyz
1 x,y,z
2 1/2-x,-y,1/2+z
3 1/2+x,1/2-y,-z
4 -x,1/2+y,1/2-z
_cell_length_a                   12.9687(3)
_cell_length_b                   17.0431(4)
_cell_length_c                   20.3504(6)
_cell_angle_alpha                90
_cell_angle_beta                 90
_cell_angle_gamma                90
_cell_volume                     4497.98
loop_
_atom_site_label
_atom_site_type_symbol
_atom_site_fract_x
_atom_site_fract_y
_atom_site_fract_z
K1 K -0.24425(5) -0.02334(5) 0.51131(4)
K2 K -0.56035(5) -0.02816(5) 0.26064(4)
N1 N -0.4156(2) -0.10943(17) 0.47845(15)
N2 N -0.4609(2) -0.05148(18) 0.37732(16)
N3 N -0.2162(2) 0.09894(17) 0.59919(14)
N4 N -0.0817(2) 0.04497(18) 0.66296(15)
N5 N -0.6442(2) 0.12590(17) 0.24956(15)
N6 N -0.7753(2) -0.00279(16) 0.29912(14)
N7 N -0.7139(2) -0.14061(18) 0.21290(16)
C1 C -0.4482(3) -0.1599(2) 0.52932(18)
C2 C -0.5287(3) -0.1397(2) 0.5723(2)
C3 C -0.5525(3) -0.1889(3) 0.6243(2)
H1 H -0.6075 -0.1751 0.6529
C4 C -0.4987(3) -0.2574(3) 0.6356(2)
H2 H -0.5155 -0.2902 0.6718
C5 C -0.4193(3) -0.2773(2) 0.5928(2)
H3 H -0.3816 -0.3242 0.6003
C6 C -0.3938(3) -0.2305(2) 0.53977(18)
C7 C -0.5876(3) -0.0637(3) 0.5637(2)
H4 H -0.6324 -0.0676 0.5250
H5 H -0.5388 -0.0204 0.5576
H6 H -0.6297 -0.0538 0.6028
C8 C -0.3126(3) -0.2560(2) 0.4918(2)
H7 H -0.2766 -0.3021 0.5091
H8 H -0.2631 -0.2132 0.4852
H9 H -0.3451 -0.2693 0.4498
C9 C -0.3668(3) -0.0089(2) 0.37880(17)
C10 C -0.3657(3) 0.0679(2) 0.40263(19)
C11 C -0.2724(4) 0.1100(2) 0.4004(2)
H10 H -0.2706 0.1624 0.4161
C12 C -0.1849(3) 0.0770(3) 0.3762(2)
H11 H -0.1229 0.1067 0.3745
C13 C -0.1859(3) 0.0005(3) 0.35396(19)
H12 H -0.1239 -0.0223 0.3381
C14 C -0.2758(3) -0.0436(2) 0.35438(17)
C15 C -0.4603(3) 0.1037(3) 0.4324(2)
H13 H -0.5174 0.1006 0.4010
H14 H -0.4468 0.1588 0.4431
H15 H -0.4786 0.0752 0.4725
C16 C -0.2768(3) -0.1262(2) 0.3290(2)
H16 H -0.2062 -0.1427 0.3189
H17 H -0.3188 -0.1288 0.2890
H18 H -0.3062 -0.1610 0.3624
C17 C -0.4775(3) -0.0980(2) 0.4280(2)
H19 H -0.5407 -0.1262 0.4282
C18 C -0.2756(2) 0.1679(2) 0.59146(17)
C19 C -0.3745(3) 0.1719(2) 0.61927(19)
C20 C -0.4353(3) 0.2379(3) 0.6084(2)
H20 H -0.5022 0.2405 0.6274
C21 C -0.4003(3) 0.2995(2) 0.5707(2)
H21 H -0.4425 0.3443 0.5639
C22 C -0.3033(3) 0.2952(2) 0.54278(19)
H22 H -0.2794 0.3372 0.5161
C23 C -0.2402(3) 0.2308(2) 0.55320(17)
C24 C -0.4138(3) 0.1049(3) 0.6611(2)
H23 H -0.4843 0.1163 0.6756
H24 H -0.3692 0.0987 0.6997
H25 H -0.4133 0.0564 0.6353
C25 C -0.1332(3) 0.2281(2) 0.5238(2)
H26 H -0.1232 0.2736 0.4950
H27 H -0.1252 0.1798 0.4981
H28 H -0.0818 0.2291 0.5590
C26 C -0.0846(2) -0.0249(2) 0.62480(17)
C27 C -0.0203(2) -0.0320(2) 0.57033(19)
C28 C -0.0189(3) -0.1021(2) 0.53543(19)
H29 H 0.0253 -0.1070 0.4984
C29 C -0.0799(3) -0.1643(2) 0.5531(2)
H30 H -0.0782 -0.2117 0.5286
C30 C -0.1442(3) -0.1570(2) 0.6073(2)
H31 H -0.1867 -0.2000 0.6197
C31 C -0.1477(3) -0.0877(2) 0.64408(19)
C32 C 0.0493(3) 0.0349(3) 0.5503(2)
H32 H 0.1045 0.0409 0.5829
H33 H 0.0090 0.0835 0.5480
H34 H 0.0795 0.0238 0.5072
C33 C -0.2188(3) -0.0801(3) 0.7019(2)
H35 H -0.2601 -0.1280 0.7062
H36 H -0.2646 -0.0350 0.6954
H37 H -0.1781 -0.0724 0.7420
C34 C -0.1462(3) 0.0998(2) 0.64635(19)
H38 H -0.1426 0.1467 0.6715
C35 C -0.6657(3) 0.1230(3) 0.1795(2)
H39 H -0.7095 0.0776 0.1699
H40 H -0.6007 0.1183 0.1552
H41 H -0.7013 0.1712 0.1662
C36 C -0.5674(3) 0.1872(2) 0.2620(2)
H42 H -0.5060 0.1773 0.2351
H43 H -0.5483 0.1869 0.3086
H44 H -0.5964 0.2385 0.2505
C37 C -0.7372(3) 0.1405(2) 0.2878(2)
H45 H -0.7692 0.1899 0.2724
H46 H -0.7177 0.1479 0.3345
C38 C -0.8159(3) 0.0755(2) 0.2834(2)
H47 H -0.8733 0.0874 0.3139
H48 H -0.8444 0.0745 0.2383
C39 C -0.7563(3) -0.0103(2) 0.36984(19)
H49 H -0.8216 -0.0054 0.3937
H50 H -0.7091 0.0313 0.3841
H51 H -0.7254 -0.0616 0.3790
C40 C -0.8441(3) -0.0649(2) 0.2755(2)
H52 H -0.8751 -0.0483 0.2333
H53 H -0.9008 -0.0720 0.3076
C41 C -0.7900(3) -0.1422(2) 0.2658(2)
H54 H -0.7552 -0.1571 0.3073
H55 H -0.8420 -0.1830 0.2559
C42 C -0.7630(3) -0.1413(3) 0.1490(2)
H56 H -0.8056 -0.1886 0.1448
H57 H -0.7101 -0.1412 0.1146
H58 H -0.8066 -0.0947 0.1443
C43 C -0.6448(4) -0.2086(3) 0.2167(3)
H59 H -0.6847 -0.2569 0.2105
H60 H -0.6114 -0.2097 0.2599
H61 H -0.5922 -0.2047 0.1824
K2A K 0.06035(5) 0.02816(5) 0.76064(4)
N4A N -0.4183(2) -0.04497(18) 0.16296(15)
loop_
_geom_bond_atom_site_label_1
_geom_bond_atom_site_label_2
_geom_bond_site_symmetry_1
_geom_bond_site_symmetry_2
K1 N1 1_555 1_555
K2 N2 1_555 1_555
N1 C1 1_555 1_555
N2 C9 1_555 1_555
N3 K1 1_555 1_555
N4 C26 1_555 1_555
N5 K2 1_555 1_555
N6 K2 1_555 1_555
N7 K2 1_555 1_555
C1 C2 1_555 1_555
C2 C3 1_555 1_555
C3 H1 1_555 1_555
C4 C3 1_555 1_555
H2 C4 1_555 1_555
C5 C4 1_555 1_555
H3 C5 1_555 1_555
C6 C1 1_555 1_555
C7 C2 1_555 1_555
H4 C7 1_555 1_555
H5 C7 1_555 1_555
H6 C7 1_555 1_555
C8 C6 1_555 1_555
H7 C8 1_555 1_555
H8 C8 1_555 1_555
H9 C8 1_555 1_555
C9 K1 1_555 1_555
C10 K1 1_555 1_555
C11 K1 1_555 1_555
H10 C11 1_555 1_555
C12 K1 1_555 1_555
H11 C12 1_555 1_555
C13 K1 1_555 1_555
H12 C13 1_555 1_555
C14 K1 1_555 1_555
C15 C10 1_555 1_555
H13 C15 1_555 1_555
H14 C15 1_555 1_555
H15 C15 1_555 1_555
C16 C14 1_555 1_555
H16 C16 1_555 1_555
H17 C16 1_555 1_555
H18 C16 1_555 1_555
C17 N1 1_555 1_555
H19 C17 1_555 1_555
C18 N3 1_555 1_555
C19 C18 1_555 1_555
C20 C19 1_555 1_555
H20 C20 1_555 1_555
C21 C20 1_555 1_555
H21 C21 1_555 1_555
C22 C21 1_555 1_555
H22 C22 1_555 1_555
C23 C18 1_555 1_555
C24 C19 1_555 1_555
H23 C24 1_555 1_555
H24 C24 1_555 1_555
H25 C24 1_555 1_555
C25 C23 1_555 1_555
H26 C25 1_555 1_555
H27 C25 1_555 1_555
H28 C25 1_555 1_555
C26 K1 1_555 1_555
C27 K1 1_555 1_555
C28 K1 1_555 1_555
H29 C28 1_555 1_555
C29 K1 1_555 1_555
H30 C29 1_555 1_555
C30 K1 1_555 1_555
H31 C30 1_555 1_555
C31 K1 1_555 1_555
C32 C27 1_555 1_555
H32 C32 1_555 1_555
H33 C32 1_555 1_555
H34 C32 1_555 1_555
C33 C31 1_555 1_555
H35 C33 1_555 1_555
H36 C33 1_555 1_555
H37 C33 1_555 1_555
C34 N3 1_555 1_555
H38 C34 1_555 1_555
C35 N5 1_555 1_555
H39 C35 1_555 1_555
H40 C35 1_555 1_555
H41 C35 1_555 1_555
C36 N5 1_555 1_555
H42 C36 1_555 1_555
H43 C36 1_555 1_555
H44 C36 1_555 1_555
C37 N5 1_555 1_555
H45 C37 1_555 1_555
H46 C37 1_555 1_555
C38 N6 1_555 1_555
H47 C38 1_555 1_555
H48 C38 1_555 1_555
C39 N6 1_555 1_555
H49 C39 1_555 1_555
H50 C39 1_555 1_555
H51 C39 1_555 1_555
C40 N6 1_555 1_555
H52 C40 1_555 1_555
H53 C40 1_555 1_555
C41 N7 1_555 1_555
H54 C41 1_555 1_555
H55 C41 1_555 1_555
C42 N7 1_555 1_555
H56 C42 1_555 1_555
H57 C42 1_555 1_555
H58 C42 1_555 1_555
C43 N7 1_555 1_555
H59 C43 1_555 1_555
H60 C43 1_555 1_555
H61 C43 1_555 1_555
K2A N4 1_555 1_555
N4A K2 1_555 1_555
N2 C17 1_555 1_555
N4 C34 1_555 1_555
C5 C6 1_555 1_555
C9 C10 1_555 1_555
C9 C14 1_555 1_555
C10 C11 1_555 1_555
C11 C12 1_555 1_555
C12 C13 1_555 1_555
C13 C14 1_555 1_555
C22 C23 1_555 1_555
C26 C27 1_555 1_555
C26 C31 1_555 1_555
C27 C28 1_555 1_555
C28 C29 1_555 1_555
C29 C30 1_555 1_555
C30 C31 1_555 1_555
C37 C38 1_555 1_555
C40 C41 1_555 1_555

#END
