
#######################################################################
#
#                 Cambridge Crystallographic Data Centre
#                                CCDC 
#
#######################################################################
#
# If this CIF has been generated from an entry in the Cambridge 
# Structural Database, then it will include bibliographic, chemical, 
# crystal, experimental, refinement or atomic coordinate data resulting 
# from the CCDC's data processing and validation procedures.
#
#######################################################################

data_ODUGAW
_symmetry_cell_setting           monoclinic
_symmetry_space_group_name_H-M   'P 21/c'
_symmetry_Int_Tables_number      14
_space_group_name_Hall           '-P 2ybc'
loop_
_symmetry_equiv_pos_site_id
_symmetry_equiv_pos_as_xyz
1 x,y,z
2 -x,1/2+y,1/2-z
3 -x,-y,-z
4 x,1/2-y,1/2+z
_cell_length_a                   19.9794(4)
_cell_length_b                   14.8132(3)
_cell_length_c                   21.6504(5)
_cell_angle_alpha                90
_cell_angle_beta                 116.0430(10)
_cell_angle_gamma                90
_cell_volume                     5757.03
loop_
_atom_site_label
_atom_site_type_symbol
_atom_site_fract_x
_atom_site_fract_y
_atom_site_fract_z
K1 K 0.24653(4) 0.25238(6) 0.66915(3)
K2 K 0.24418(4) 0.49049(5) 0.92131(4)
N1 N 0.35687(17) 0.3105(2) 0.79374(14)
N2 N 0.28463(18) 0.3972(2) 0.83292(15)
N3 N 0.18195(16) 0.2653(2) 0.52659(13)
N4 N 0.20037(16) 0.1155(2) 0.50031(14)
N5 N 0.1088(2) 0.5729(3) 0.83797(19)
N6 N 0.2224(3) 0.6698(3) 0.9637(3)
N7 N 0.3670(2) 0.6117(3) 0.9695(2)
C1 C 0.4294(2) 0.2779(3) 0.8107(2)
C2 C 0.4718(2) 0.3193(4) 0.7817(2)
C3 C 0.5402(3) 0.2818(6) 0.7942(3)
H1 H 0.5688 0.3092 0.7739
C4 C 0.5676(4) 0.2083(8) 0.8337(4)
H2 H 0.6157 0.1862 0.8429
C5 C 0.5261(4) 0.1663(5) 0.8601(4)
H3 H 0.5447 0.1126 0.8859
C6 C 0.4557(3) 0.1995(4) 0.8505(3)
C7 C 0.4442(3) 0.4033(5) 0.7393(2)
H4 H 0.3898 0.3983 0.7106
H5 H 0.4684 0.4090 0.7082
C8 C 0.4604(3) 0.4874(4) 0.7838(3)
H6 H 0.4290 0.4875 0.8082
H7 H 0.4495 0.5412 0.7547
H8 H 0.5129 0.4878 0.8173
C9 C 0.4107(4) 0.1559(4) 0.8877(5)
H9 H 0.3620 0.1871 0.8695
H10 H 0.4003 0.0926 0.8716
C10 C 0.4350(7) 0.1538(17) 0.9520(6)
H11 H 0.4587 0.2117 0.9714
H12 H 0.4717 0.1051 0.9708
H13 H 0.3937 0.1431 0.9638
C11 C 0.2206(2) 0.3800(3) 0.7712(2)
C12 C 0.2007(3) 0.4380(3) 0.7153(2)
C13 C 0.1359(3) 0.4194(5) 0.6544(3)
H14 H 0.1228 0.4574 0.6155
C14 C 0.0918(3) 0.3467(6) 0.6509(4)
H15 H 0.0483 0.3343 0.6098
C15 C 0.1108(3) 0.2930(6) 0.7065(4)
H16 H 0.0789 0.2441 0.7038
C16 C 0.1744(2) 0.3060(4) 0.7670(2)
C17 C 0.2494(3) 0.5163(3) 0.7204(2)
H17 H 0.2977 0.4923 0.7253
H18 H 0.2592 0.5489 0.7635
C18 C 0.2226(5) 0.5852(4) 0.6625(3)
H19 H 0.2083 0.5542 0.6185
H20 H 0.2628 0.6281 0.6699
H21 H 0.1796 0.6178 0.6616
C19 C 0.1969(4) 0.2429(4) 0.8269(3)
H22 H 0.2018 0.2792 0.8671
H23 H 0.2473 0.2199 0.8372
C20 C 0.1490(5) 0.1629(5) 0.8224(3)
H24 H 0.0978 0.1831 0.8094
H25 H 0.1683 0.1328 0.8672
H26 H 0.1495 0.1207 0.7878
C21 C 0.3464(2) 0.3607(3) 0.83868(18)
H27 H 0.3892 0.3718 0.8807
C22 C 0.1498(2) 0.3483(3) 0.49690(17)
C23 C 0.0728(3) 0.3621(4) 0.4641(2)
C24 C 0.0464(3) 0.4483(5) 0.4371(3)
H28 H -0.0059 0.4577 0.4142
C25 C 0.0920(4) 0.5185(4) 0.4420(3)
H29 H 0.0720 0.5752 0.4219
C26 C 0.1660(3) 0.5063(3) 0.4761(2)
H30 H 0.1984 0.5558 0.4814
C27 C 0.1964(2) 0.4224(3) 0.50378(18)
C28 C 0.0200(3) 0.2866(5) 0.4603(4)
H31 H 0.0492 0.2399 0.4941
H32 H -0.0163 0.3113 0.4755
C29 C -0.0177(5) 0.2464(6) 0.4013(5)
H33 H -0.0133 0.2811 0.3647
H34 H -0.0702 0.2424 0.3920
H35 H 0.0023 0.1855 0.4030
C30 C 0.2793(3) 0.4082(3) 0.5401(3)
H36 H 0.2915 0.3847 0.5867
H37 H 0.2921 0.3602 0.5153
C31 C 0.3285(3) 0.4858(4) 0.5479(3)
H38 H 0.3162 0.5121 0.5027
H39 H 0.3805 0.4656 0.5689
H40 H 0.3216 0.5313 0.5774
C32 C 0.2407(2) 0.0966(2) 0.57100(17)
C33 C 0.2059(3) 0.0558(3) 0.6061(2)
C34 C 0.2503(6) 0.0334(4) 0.6764(3)
H41 H 0.2281 0.0030 0.7014
C35 C 0.3232(6) 0.0547(5) 0.7081(3)
H42 H 0.3511 0.0413 0.7555
C36 C 0.3568(3) 0.0943(4) 0.6740(3)
H43 H 0.4082 0.1090 0.6975
C37 C 0.3173(2) 0.1144(3) 0.60400(19)
C38 C 0.1243(4) 0.0358(6) 0.5698(4)
H44 H 0.1049 0.0532 0.5208
H45 H 0.1160 -0.0298 0.5719
C39 C 0.0884(9) 0.0806(13) 0.5985(6)
H46 H 0.0384 0.0550 0.5833
H47 H 0.0844 0.1442 0.5850
H48 H 0.1157 0.0758 0.6486
C41 C 0.3552(2) 0.1565(4) 0.5648(3)
H52 H 0.3650 0.1081 0.5383
H53 H 0.3196 0.1991 0.5311
C42 C 0.4265(3) 0.2059(4) 0.6043(3)
H54 H 0.4208 0.2469 0.6372
H55 H 0.4393 0.2409 0.5725
H56 H 0.4663 0.1625 0.6292
C43 C 0.1743(2) 0.1977(3) 0.48478(17)
H57 H 0.1463 0.2100 0.4372
C44 C 0.0570(3) 0.4965(5) 0.8240(3)
H58 H 0.0060 0.5171 0.7956
H59 H 0.0700 0.4490 0.7997
H60 H 0.0605 0.4726 0.8676
C45 C 0.1019(3) 0.6104(4) 0.7736(3)
H61 H 0.1455 0.6481 0.7822
H62 H 0.0990 0.5612 0.7422
H63 H 0.0567 0.6472 0.7528
C46 C 0.0955(3) 0.6422(5) 0.8798(3)
H64 H 0.0495 0.6755 0.8502
H65 H 0.0865 0.6118 0.9162
C47 C 0.1575(4) 0.7090(4) 0.9130(3)
H66 H 0.1407 0.7578 0.9341
H67 H 0.1693 0.7365 0.8773
C48 C 0.2190(6) 0.6554(6) 1.0266(4)
H68 H 0.1824 0.6080 1.0208
H69 H 0.2680 0.6367 1.0617
H70 H 0.2040 0.7115 1.0412
C49 C 0.2883(5) 0.7276(5) 0.9755(5)
H71 H 0.2922 0.7725 1.0108
H72 H 0.2752 0.7616 0.9324
C50 C 0.3573(7) 0.6948(7) 0.9945(5)
H73 H 0.3853 0.7402 0.9816
H74 H 0.3817 0.6909 1.0454
C51 C 0.4101(9) 0.5888(11) 1.0379(7)
H75 H 0.4604 0.6134 1.0532
H76 H 0.3875 0.6140 1.0662
H77 H 0.4127 0.5229 1.0426
C53 C 0.3899(12) 0.6131(16) 0.9239(9)
H81 H 0.4274 0.6606 0.9345
H82 H 0.4121 0.5545 0.9226
H83 H 0.3480 0.6252 0.8791
K2C K 0.24418(4) 0.00951(5) 0.42131(4)
N4C N 0.20037(16) 0.3845(2) 1.00031(14)
C55 C 0.1933(12) -0.3688(7) 0.2830(10)
C56 C 0.2195(6) -0.3146(5) 0.2517(4)
H87 H 0.1865 -0.2810 0.2129
C57 C 0.2998(7) -0.3056(6) 0.2764(4)
H88 H 0.3288 -0.2688 0.2615
C58 C 0.3269(9) -0.3914(9) 0.3477(11)
C59 C 0.2706(6) -0.4250(4) 0.3488(3)
H89 H 0.2846 -0.4686 0.3845
H90 H 0.1180 -0.4392 0.2967
C61 C 0.3746(10) -0.3545(9) 0.3425(6)
C62 C 0.1309(11) -0.3791(19) 0.2676(15)
H94 H 0.1106 -0.3248 0.2790
H96 H 0.1046 -0.3904 0.2180
C40? C 0.0662(11) 0.013(3) 0.5878(10)
H49? H 0.0863 0.0081 0.6379
H50? H 0.0448 -0.0457 0.5670
H51? H 0.0275 0.0591 0.5708
C52? C 0.4476(7) -0.0570(11) 0.5093(9)
H78? H 0.4886 -0.0971 0.5138
H79? H 0.4543 -0.0381 0.5550
H80? H 0.4474 -0.0037 0.4824
C54? C 0.3661(12) -0.125(2) 0.3978(10)
H84? H 0.3753 -0.0675 0.3810
H85? H 0.3174 -0.1488 0.3654
H86? H 0.4050 -0.1686 0.4019
C60? C 0.1645(19) -0.4167(17) 0.3013(16)
H91? H 0.3607 -0.3434 0.2937
H92? H 0.4197 -0.3918 0.3621
H93? H 0.3841 -0.2968 0.3670
H95? H 0.1244 -0.4309 0.2926
loop_
_geom_bond_atom_site_label_1
_geom_bond_atom_site_label_2
_geom_bond_site_symmetry_1
_geom_bond_site_symmetry_2
K1 N1 1_555 1_555
K2 N2 1_555 1_555
N1 C1 1_555 1_555
N2 C11 1_555 1_555
N3 K1 1_555 1_555
N4 C32 1_555 1_555
N5 K2 1_555 1_555
N6 K2 1_555 1_555
N7 K2 1_555 1_555
C1 C2 1_555 1_555
C2 C3 1_555 1_555
C3 H1 1_555 1_555
C4 C3 1_555 1_555
H2 C4 1_555 1_555
C5 C4 1_555 1_555
H3 C5 1_555 1_555
C6 C1 1_555 1_555
C7 C2 1_555 1_555
H4 C7 1_555 1_555
H5 C7 1_555 1_555
C8 C7 1_555 1_555
H6 C8 1_555 1_555
H7 C8 1_555 1_555
H8 C8 1_555 1_555
C9 C6 1_555 1_555
H9 C9 1_555 1_555
H10 C9 1_555 1_555
C10 C9 1_555 1_555
H11 C10 1_555 1_555
H12 C10 1_555 1_555
H13 C10 1_555 1_555
C11 K1 1_555 1_555
C12 K1 1_555 1_555
C13 K1 1_555 1_555
H14 C13 1_555 1_555
C14 K1 1_555 1_555
H15 C14 1_555 1_555
C15 K1 1_555 1_555
H16 C15 1_555 1_555
C16 K1 1_555 1_555
C17 C12 1_555 1_555
H17 C17 1_555 1_555
H18 C17 1_555 1_555
C18 C17 1_555 1_555
H19 C18 1_555 1_555
H20 C18 1_555 1_555
H21 C18 1_555 1_555
C19 C16 1_555 1_555
H22 C19 1_555 1_555
H23 C19 1_555 1_555
C20 C19 1_555 1_555
H24 C20 1_555 1_555
H25 C20 1_555 1_555
H26 C20 1_555 1_555
C21 N1 1_555 1_555
H27 C21 1_555 1_555
C22 N3 1_555 1_555
C23 C22 1_555 1_555
C24 C23 1_555 1_555
H28 C24 1_555 1_555
C25 C24 1_555 1_555
H29 C25 1_555 1_555
C26 C25 1_555 1_555
H30 C26 1_555 1_555
C27 C22 1_555 1_555
C28 C23 1_555 1_555
H31 C28 1_555 1_555
H32 C28 1_555 1_555
C29 C28 1_555 1_555
H33 C29 1_555 1_555
H34 C29 1_555 1_555
H35 C29 1_555 1_555
C30 C27 1_555 1_555
H36 C30 1_555 1_555
H37 C30 1_555 1_555
C31 C30 1_555 1_555
H38 C31 1_555 1_555
H39 C31 1_555 1_555
H40 C31 1_555 1_555
C32 K1 1_555 1_555
C33 K1 1_555 1_555
C34 K1 1_555 1_555
H41 C34 1_555 1_555
C35 K1 1_555 1_555
H42 C35 1_555 1_555
C36 K1 1_555 1_555
H43 C36 1_555 1_555
C37 K1 1_555 1_555
C38 C33 1_555 1_555
H44 C38 1_555 1_555
H45 C38 1_555 1_555
C39 C38 1_555 1_555
H46 C39 1_555 1_555
H47 C39 1_555 1_555
H48 C39 1_555 1_555
C41 C37 1_555 1_555
H52 C41 1_555 1_555
H53 C41 1_555 1_555
C42 C41 1_555 1_555
H54 C42 1_555 1_555
H55 C42 1_555 1_555
H56 C42 1_555 1_555
C43 N3 1_555 1_555
H57 C43 1_555 1_555
C44 N5 1_555 1_555
H58 C44 1_555 1_555
H59 C44 1_555 1_555
H60 C44 1_555 1_555
C45 N5 1_555 1_555
H61 C45 1_555 1_555
H62 C45 1_555 1_555
H63 C45 1_555 1_555
C46 N5 1_555 1_555
H64 C46 1_555 1_555
H65 C46 1_555 1_555
C47 N6 1_555 1_555
H66 C47 1_555 1_555
H67 C47 1_555 1_555
C48 N6 1_555 1_555
H68 C48 1_555 1_555
H69 C48 1_555 1_555
H70 C48 1_555 1_555
C49 N6 1_555 1_555
H71 C49 1_555 1_555
H72 C49 1_555 1_555
C50 N7 1_555 1_555
H73 C50 1_555 1_555
H74 C50 1_555 1_555
C51 N7 1_555 1_555
H75 C51 1_555 1_555
H76 C51 1_555 1_555
H77 C51 1_555 1_555
C53 N7 1_555 1_555
H81 C53 1_555 1_555
H82 C53 1_555 1_555
H83 C53 1_555 1_555
C55 C56 1_555 1_555
C56 H87 1_555 1_555
C57 C56 1_555 1_555
H88 C57 1_555 1_555
C58 C59 1_555 1_555
C59 C55 1_555 1_555
H89 C59 1_555 1_555
H90 C62 1_555 1_555
C61 C57 1_555 1_555
C62 C55 1_555 1_555
H94 C62 1_555 1_555
H96 C62 1_555 1_555
K2C N4 1_555 1_555
N4C K2 1_555 1_555
N2 C21 1_555 1_555
N4 C43 1_555 1_555
C5 C6 1_555 1_555
C11 C12 1_555 1_555
C11 C16 1_555 1_555
C12 C13 1_555 1_555
C13 C14 1_555 1_555
C14 C15 1_555 1_555
C15 C16 1_555 1_555
C26 C27 1_555 1_555
C32 C33 1_555 1_555
C32 C37 1_555 1_555
C33 C34 1_555 1_555
C34 C35 1_555 1_555
C35 C36 1_555 1_555
C36 C37 1_555 1_555
C46 C47 1_555 1_555
C49 C50 1_555 1_555
C58 C61 1_555 1_555

#END
