
#######################################################################
#
#                 Cambridge Crystallographic Data Centre
#                                CCDC 
#
#######################################################################
#
# If this CIF has been generated from an entry in the Cambridge 
# Structural Database, then it will include bibliographic, chemical, 
# crystal, experimental, refinement or atomic coordinate data resulting 
# from the CCDC's data processing and validation procedures.
#
#######################################################################

data_ODUNIL
_symmetry_cell_setting           tetragonal
_symmetry_space_group_name_H-M   'I 41 2 2'
_symmetry_Int_Tables_number      98
_space_group_name_Hall           'I 4bw 2bw'
loop_
_symmetry_equiv_pos_site_id
_symmetry_equiv_pos_as_xyz
1 x,y,z
2 -y,1/2+x,1/4+z
3 1/2-x,1/2-y,1/2+z
4 1/2+y,-x,3/4+z
5 x,1/2-y,1/4-z
6 1/2+y,1/2+x,1/2-z
7 1/2-x,y,3/4-z
8 -y,-x,-z
9 1/2+x,1/2+y,1/2+z
10 1/2-y,x,3/4+z
11 -x,-y,z
12 y,1/2-x,1/4+z
13 1/2+x,-y,3/4-z
14 y,x,-z
15 -x,1/2+y,1/4-z
16 1/2-y,1/2-x,1/2-z
_cell_length_a                   11.9666(17)
_cell_length_b                   11.9666(17)
_cell_length_c                   15.485(3)
_cell_angle_alpha                90
_cell_angle_beta                 90
_cell_angle_gamma                90
_cell_volume                     2217.44
loop_
_atom_site_label
_atom_site_type_symbol
_atom_site_fract_x
_atom_site_fract_y
_atom_site_fract_z
Pb1 Pb 0.218898(17) -0.218898(17) 0.0000
Cl1 Cl 0.4062(3) -0.2500 0.1250
O1 O 0.2081(5) -0.0143(4) 0.0464(3)
O2 O 0.1308(4) -0.1280(4) 0.1409(2)
C1 C 0.1644(6) -0.0332(5) 0.1170(4)
C2 C 0.1489(6) 0.0590(5) 0.1824(4)
H1 H 0.0702 0.0651 0.1966
H2 H 0.1888 0.0397 0.2348
C3 C 0.2986(6) 0.1976(7) 0.1411(4)
H3 H 0.3610 0.1544 0.1540
C4 C 0.1238(7) 0.2500 0.1250
H4 H 0.0461 0.2500 0.1250
N1 N 0.1887(4) 0.1669(5) 0.1514(3)
Pb1A Pb 0.218898(17) -0.281102(17) 0.2500
Pb1A_2 Pb 0.218898(17) 0.718898(17) 0.2500
Pb1_2 Pb 0.218898(17) 0.781102(17) 0.0000
Cl1C Cl 0.2500 -0.4062(3) -0.1250
O1D O 0.2081(5) 0.5143(4) 0.2036(3)
O1G O 0.0143(4) -0.2081(5) -0.0464(3)
O2D O 0.1308(4) 0.6280(4) 0.1091(2)
O2C O 0.3720(4) -0.1308(4) -0.1091(2)
O2D_2 O 0.1308(4) -0.3720(4) 0.1091(2)
O2G O 0.1280(4) -0.1308(4) -0.1409(2)
C1D C 0.1644(6) 0.5332(5) 0.1330(4)
C2D C 0.1489(6) 0.4410(5) 0.0676(4)
H1D H 0.0702 0.4349 0.0534
H2D H 0.1888 0.4603 0.0152
C3D C 0.2986(6) 0.3024(7) 0.1089(4)
H3D H 0.3610 0.3456 0.0960
N1D N 0.1887(4) 0.3331(5) 0.0986(3)
loop_
_geom_bond_atom_site_label_1
_geom_bond_atom_site_label_2
_geom_bond_site_symmetry_1
_geom_bond_site_symmetry_2
Pb1 Cl1 1_555 1_555
Cl1 Pb1A 1_555 1_555
O1 Pb1 1_555 1_555
O2 Pb1 1_555 1_555
C1 O1 1_555 1_555
C2 C1 1_555 1_555
H1 C2 1_555 1_555
H2 C2 1_555 1_555
C3 H3 1_555 1_555
C4 H4 1_555 1_555
N1 C2 1_555 1_555
Pb1A O2 1_555 1_555
Pb1A_2 O1D 1_555 1_555
Pb1_2 O2D 1_555 1_555
Cl1C Pb1 1_555 1_555
O1D C1D 1_555 1_555
O1G Pb1 1_555 1_555
O2D Pb1A_2 1_555 1_555
O2C Pb1 1_555 1_555
O2D_2 Pb1 1_555 1_555
O2G Pb1 1_555 1_555
C1D O2D 1_555 1_555
C2D C1D 1_555 1_555
H1D C2D 1_555 1_555
H2D C2D 1_555 1_555
C3D C3 1_555 1_555
H3D C3D 1_555 1_555
N1D C4 1_555 1_555
O2 C1 1_555 1_555
C3 N1 1_555 1_555
C4 N1 1_555 1_555
Pb1A O2D_2 1_555 1_555
C2D N1D 1_555 1_555
C3D N1D 1_555 1_555

#END
