
#######################################################################
#
#                 Cambridge Crystallographic Data Centre
#                                CCDC 
#
#######################################################################
#
# If this CIF has been generated from an entry in the Cambridge 
# Structural Database, then it will include bibliographic, chemical, 
# crystal, experimental, refinement or atomic coordinate data resulting 
# from the CCDC's data processing and validation procedures.
#
#######################################################################

data_ODUREK
_symmetry_cell_setting           monoclinic
_symmetry_space_group_name_H-M   'P 21/c'
_symmetry_Int_Tables_number      14
_space_group_name_Hall           '-P 2ybc'
loop_
_symmetry_equiv_pos_site_id
_symmetry_equiv_pos_as_xyz
1 x,y,z
2 x,1/2-y,1/2+z
3 -x,-y,-z
4 -x,1/2+y,1/2-z
_cell_length_a                   19.486(3)
_cell_length_b                   9.7523(13)
_cell_length_c                   20.388(3)
_cell_angle_alpha                90
_cell_angle_beta                 95.638(4)
_cell_angle_gamma                90
_cell_volume                     3855.66
loop_
_atom_site_label
_atom_site_type_symbol
_atom_site_fract_x
_atom_site_fract_y
_atom_site_fract_z
Ag1 Ag 0.287900(17) -0.72585(3) 0.396570(15)
Ag2 Ag 0.232810(18) -0.04807(4) 0.396190(19)
Br1 Br 0.34821(3) -0.96228(5) 0.35973(3)
P1 P 0.18320(5) -0.25360(11) 0.43475(5)
P2 P 0.33967(5) -0.50816(11) 0.35970(5)
P3 P 0.30147(5) -0.67959(11) 0.51694(5)
C1 C 0.4299(2) -0.8005(5) 0.5383(2)
H1 H 0.4400 -0.7482 0.5023
C2 C 0.4278(2) -0.5177(4) 0.33631(17)
C3 C 0.3655(2) -0.7904(4) 0.56068(18)
C4 C 0.2298(2) -0.6755(4) 0.5692(2)
C5 C 0.1647(2) -0.7116(5) 0.5426(2)
H2 H 0.1579 -0.7411 0.4991
C6 C 0.3511(2) -0.8745(5) 0.6118(2)
H3 H 0.3073 -0.8727 0.6262
C7 C 0.5308(2) -0.4133(5) 0.3019(2)
H4 H 0.5546 -0.3353 0.2910
C8 C 0.4640(2) -0.4020(5) 0.3198(2)
H5 H 0.4433 -0.3161 0.3206
C9 C 0.2388(3) -0.6331(5) 0.6348(2)
H6 H 0.2821 -0.6076 0.6540
C10 C 0.1820(4) -0.6294(6) 0.6709(3)
H7 H 0.1878 -0.6024 0.7149
C11 C 0.1090(3) -0.7045(6) 0.5800(3)
H8 H 0.0652 -0.7276 0.5611
C12 C 0.3412(2) -0.5072(4) 0.52958(18)
H9 H 0.3384 -0.4821 0.5753
H10 H 0.3898 -0.5162 0.5236
C13 C 0.3489(2) -0.3705(4) 0.42263(19)
H11 H 0.3978 -0.3588 0.4356
H12 H 0.3326 -0.2861 0.4013
C14 C 0.29033(19) -0.4302(4) 0.28834(18)
C15 C 0.2452(2) -0.5127(5) 0.2493(2)
H13 H 0.2403 -0.6042 0.2609
C16 C 0.2952(2) -0.2930(4) 0.2702(2)
H14 H 0.3248 -0.2347 0.2956
C17 C 0.5614(2) -0.5395(5) 0.3005(2)
H15 H 0.6058 -0.5475 0.2877
C18 C 0.4603(2) -0.6430(5) 0.3353(2)
H16 H 0.4372 -0.7218 0.3465
C19 C 0.5269(2) -0.6530(5) 0.3177(2)
H17 H 0.5482 -0.7382 0.3176
C20 C 0.4643(3) -0.9669(5) 0.6206(3)
H18 H 0.4978 -1.0245 0.6414
C21 C 0.4794(2) -0.8867(5) 0.5683(3)
H19 H 0.5229 -0.8908 0.5532
C22 C 0.2565(3) -0.2427(5) 0.2151(2)
H20 H 0.2602 -0.1509 0.2036
C23 C 0.4002(3) -0.9614(5) 0.6420(2)
H21 H 0.3897 -1.0163 0.6769
C24 C 0.2073(2) -0.4631(6) 0.1938(2)
H22 H 0.1783 -0.5212 0.1677
C25 C 0.2126(2) -0.3275(6) 0.1773(2)
H23 H 0.1864 -0.2930 0.1404
C26 C 0.1181(3) -0.6644(6) 0.6434(4)
H24 H 0.0807 -0.6607 0.6683
C27 C 0.31270(19) -0.3846(4) 0.48650(17)
C28 C 0.3312(2) -0.2550(4) 0.5272(2)
H25 H 0.3804 -0.2479 0.5355
H26 H 0.3112 -0.2602 0.5683
H27 H 0.3136 -0.1758 0.5031
C29 C 0.23437(19) -0.3999(4) 0.4718(2)
H28 H 0.2159 -0.4231 0.5129
H29 H 0.2260 -0.4779 0.4426
Br2 Br 0.15874(2) -0.82879(5) 0.35549(2)
C30 C 0.1287(2) -0.3274(4) 0.36578(19)
C31 C 0.1201(2) -0.2264(5) 0.49466(19)
C32 C 0.1111(2) -0.4642(5) 0.3588(2)
H30 H 0.1293 -0.5265 0.3904
C33 C 0.1009(3) -0.2388(5) 0.3168(2)
H31 H 0.1114 -0.1458 0.3195
C34 C 0.1056(3) -0.0969(5) 0.5147(2)
H32 H 0.1290 -0.0223 0.4992
C35 C 0.0679(3) -0.5108(6) 0.3068(2)
H33 H 0.0573 -0.6036 0.3036
C36 C 0.0846(2) -0.3349(5) 0.5192(2)
H34 H 0.0942 -0.4239 0.5064
C37 C 0.0403(3) -0.4229(6) 0.2595(2)
H35 H 0.0101 -0.4546 0.2246
C38 C 0.0577(3) -0.2875(6) 0.2641(3)
H36 H 0.0402 -0.2271 0.2313
C39 C 0.0214(3) -0.1839(7) 0.5805(2)
H37 H -0.0126 -0.1689 0.6087
C40 C 0.0561(3) -0.0767(6) 0.5583(3)
H38 H 0.0467 0.0115 0.5722
C41 C 0.0357(3) -0.3135(7) 0.5619(3)
H39 H 0.0125 -0.3875 0.5781
Ag2_2 Ag 0.232810(18) -1.04807(4) 0.396190(19)
Br1_2 Br 0.34821(3) 0.03772(5) 0.35973(3)
Br2_2 Br 0.15874(2) 0.17121(5) 0.35549(2)
loop_
_geom_bond_atom_site_label_1
_geom_bond_atom_site_label_2
_geom_bond_site_symmetry_1
_geom_bond_site_symmetry_2
Ag1 Br1 1_555 1_555
Ag2 P1 1_555 1_555
Br1 Ag2_2 1_555 1_555
P1 C29 1_555 1_555
P2 Ag1 1_555 1_555
P3 Ag1 1_555 1_555
C1 H1 1_555 1_555
C2 P2 1_555 1_555
C3 P3 1_555 1_555
C4 P3 1_555 1_555
C5 C4 1_555 1_555
H2 C5 1_555 1_555
C6 C3 1_555 1_555
H3 C6 1_555 1_555
C7 H4 1_555 1_555
C8 C2 1_555 1_555
H5 C8 1_555 1_555
C9 C4 1_555 1_555
H6 C9 1_555 1_555
C10 C9 1_555 1_555
H7 C10 1_555 1_555
C11 C5 1_555 1_555
H8 C11 1_555 1_555
C12 P3 1_555 1_555
H9 C12 1_555 1_555
H10 C12 1_555 1_555
C13 P2 1_555 1_555
H11 C13 1_555 1_555
H12 C13 1_555 1_555
C14 P2 1_555 1_555
C15 C14 1_555 1_555
H13 C15 1_555 1_555
C16 C14 1_555 1_555
H14 C16 1_555 1_555
C17 C7 1_555 1_555
H15 C17 1_555 1_555
C18 C2 1_555 1_555
H16 C18 1_555 1_555
C19 C17 1_555 1_555
H17 C19 1_555 1_555
C20 H18 1_555 1_555
C21 C1 1_555 1_555
H19 C21 1_555 1_555
C22 C16 1_555 1_555
H20 C22 1_555 1_555
C23 C6 1_555 1_555
H21 C23 1_555 1_555
C24 C15 1_555 1_555
H22 C24 1_555 1_555
C25 C22 1_555 1_555
H23 C25 1_555 1_555
C26 C10 1_555 1_555
H24 C26 1_555 1_555
C27 C12 1_555 1_555
C28 C27 1_555 1_555
H25 C28 1_555 1_555
H26 C28 1_555 1_555
H27 C28 1_555 1_555
C29 C27 1_555 1_555
H28 C29 1_555 1_555
H29 C29 1_555 1_555
Br2 Ag1 1_555 1_555
C30 P1 1_555 1_555
C31 P1 1_555 1_555
C32 C30 1_555 1_555
H30 C32 1_555 1_555
C33 C30 1_555 1_555
H31 C33 1_555 1_555
C34 C31 1_555 1_555
H32 C34 1_555 1_555
C35 C32 1_555 1_555
H33 C35 1_555 1_555
C36 C31 1_555 1_555
H34 C36 1_555 1_555
C37 C35 1_555 1_555
H35 C37 1_555 1_555
C38 C33 1_555 1_555
H36 C38 1_555 1_555
C39 H37 1_555 1_555
C40 C34 1_555 1_555
H38 C40 1_555 1_555
C41 C36 1_555 1_555
H39 C41 1_555 1_555
Ag2_2 Br2 1_555 1_555
Br1_2 Ag2 1_555 1_555
Br2_2 Ag2 1_555 1_555
C1 C3 1_555 1_555
C7 C8 1_555 1_555
C11 C26 1_555 1_555
C13 C27 1_555 1_555
C18 C19 1_555 1_555
C20 C21 1_555 1_555
C20 C23 1_555 1_555
C24 C25 1_555 1_555
C37 C38 1_555 1_555
C39 C40 1_555 1_555
C39 C41 1_555 1_555

#END
