
#######################################################################
#
#                 Cambridge Crystallographic Data Centre
#                                CCDC 
#
#######################################################################
#
# If this CIF has been generated from an entry in the Cambridge 
# Structural Database, then it will include bibliographic, chemical, 
# crystal, experimental, refinement or atomic coordinate data resulting 
# from the CCDC's data processing and validation procedures.
#
#######################################################################

data_ODURIO
_symmetry_cell_setting           monoclinic
_symmetry_space_group_name_H-M   'P 21/c'
_symmetry_Int_Tables_number      14
_space_group_name_Hall           '-P 2ybc'
loop_
_symmetry_equiv_pos_site_id
_symmetry_equiv_pos_as_xyz
1 x,y,z
2 x,1/2-y,1/2+z
3 -x,-y,-z
4 -x,1/2+y,1/2-z
_cell_length_a                   13.926(4)
_cell_length_b                   19.209(5)
_cell_length_c                   19.642(5)
_cell_angle_alpha                90
_cell_angle_beta                 98.190(5)
_cell_angle_gamma                90
_cell_volume                     5200.74
loop_
_atom_site_label
_atom_site_type_symbol
_atom_site_fract_x
_atom_site_fract_y
_atom_site_fract_z
S1 S 0.2056(8) 0.6971(5) -0.5262(5)
O1 O 0.2490(17) 0.7223(12) -0.5835(13)
C1 C 0.179(3) 0.6114(17) -0.549(2)
H1 H 0.2383 0.5860 -0.5496
H2 H 0.1417 0.6101 -0.5942
H3 H 0.1424 0.5907 -0.5166
C2 C 0.086(2) 0.7307(16) -0.5295(17)
H4 H 0.0888 0.7793 -0.5182
H5 H 0.0527 0.7062 -0.4971
H6 H 0.0512 0.7247 -0.5750
S2 S 0.5733(11) 0.7950(8) -0.3062(8)
O2 O 0.4875(17) 0.7659(12) -0.2750(12)
C3 C 0.628(4) 0.848(3) -0.240(3)
H7 H 0.5860 0.8865 -0.2340
H8 H 0.6883 0.8659 -0.2522
H9 H 0.6410 0.8219 -0.1985
C4 C 0.653(3) 0.736(2) -0.311(3)
H10 H 0.6289 0.7037 -0.3462
H11 H 0.6653 0.7124 -0.2674
H12 H 0.7113 0.7573 -0.3210
S3 S 0.5885(17) 0.7256(12) -0.5470(12)
O3 O 0.470(5) 0.695(4) -0.605(4)
C5 C 0.620(12) 0.683(8) -0.502(8)
H13 H 0.6420 0.6421 -0.5224
H14 H 0.5701 0.6715 -0.4749
H15 H 0.6739 0.7039 -0.4721
C6 C 0.505(6) 0.788(5) -0.564(4)
H16 H 0.5056 0.8041 -0.6106
H17 H 0.5200 0.8256 -0.5329
H18 H 0.4425 0.7692 -0.5600
I1 I -0.14499(13) -0.07811(9) -0.37867(9)
I2 I -0.08609(14) -0.09920(10) -0.16544(10)
Ag1 Ag -0.14650(17) 0.01162(11) -0.26088(12)
Ag2 Ag -0.00673(15) 0.37797(14) -0.22050(13)
P1 P -0.1773(4) 0.3628(3) -0.2142(3)
P2 P -0.3011(5) 0.0732(3) -0.2474(3)
P3 P -0.0397(5) 0.1226(4) -0.2502(4)
C7 C -0.1124(18) 0.1989(11) -0.2669(12)
H19 H -0.0705 0.2385 -0.2540
H20 H -0.1313 0.2014 -0.3163
C8 C -0.3170(19) 0.0056(16) -0.1262(14)
H21 H -0.2827 -0.0296 -0.1447
C9 C -0.4230(18) 0.1042(16) -0.0706(17)
H22 H -0.4585 0.1378 -0.0510
C10 C 0.0334(18) 0.1366(19) -0.1643(16)
C11 C -0.4087(18) 0.0534(12) -0.3055(15)
C12 C -0.2932(17) 0.1670(10) -0.2651(12)
H23 H -0.2969 0.1720 -0.3146
H24 H -0.3511 0.1884 -0.2524
C13 C -0.3386(16) 0.0666(14) -0.1621(13)
C14 C -0.347(2) -0.0028(19) -0.0617(17)
H25 H -0.3275 -0.0420 -0.0355
C15 C -0.407(3) 0.0090(18) -0.3554(19)
H26 H -0.3496 -0.0142 -0.3584
C16 C -0.501(2) 0.0780(18) -0.295(2)
H27 H -0.5074 0.1010 -0.2545
C17 C 0.036(2) 0.0852(18) -0.1173(19)
H28 H 0.0013 0.0446 -0.1287
C18 C -0.402(3) 0.043(2) -0.0381(18)
H29 H -0.4267 0.0333 0.0022
C19 C -0.2424(15) 0.2855(9) -0.2508(11)
H30 H -0.3079 0.2890 -0.2397
H31 H -0.2475 0.2899 -0.3004
C20 C -0.2078(15) 0.2103(11) -0.2329(12)
C21 C -0.3913(19) 0.1166(16) -0.1341(15)
H32 H -0.4059 0.1585 -0.1570
C22 C -0.1861(17) 0.2002(13) -0.1555(13)
H33 H -0.1308 0.2277 -0.1375
H34 H -0.1726 0.1519 -0.1455
H35 H -0.2412 0.2144 -0.1347
C23 C 0.0452(17) 0.1348(18) -0.3148(15)
C24 C 0.094(3) 0.1933(16) -0.3209(16)
H36 H 0.0842 0.2317 -0.2938
C25 C 0.057(3) 0.0854(19) -0.361(2)
H37 H 0.0224 0.0442 -0.3592
C26 C 0.112(4) 0.091(2) -0.405(3)
H38 H 0.1196 0.0539 -0.4337
C27 C 0.079(2) 0.1967(17) -0.1463(19)
H39 H 0.0730 0.2332 -0.1778
C28 C 0.090(3) 0.0912(18) -0.0530(16)
H40 H 0.0955 0.0547 -0.0215
C29 C 0.135(2) 0.155(2) -0.0381(16)
H41 H 0.1676 0.1622 0.0061
C30 C -0.573(3) 0.022(2) -0.394(2)
H42 H -0.6273 0.0068 -0.4231
C31 C -0.484(4) -0.0055(19) -0.402(2)
H43 H -0.4770 -0.0334 -0.4401
C32 C 0.160(3) 0.197(2) -0.369(2)
H44 H 0.2033 0.2341 -0.3696
C33 C 0.134(3) 0.207(3) -0.083(2)
H45 H 0.1685 0.2475 -0.0719
C34 C -0.583(3) 0.069(2) -0.345(2)
H46 H -0.6405 0.0933 -0.3446
C35 C 0.157(3) 0.146(2) -0.4110(19)
H47 H 0.1910 0.1499 -0.4485
C36 C -0.2445(16) 0.4324(12) -0.2644(12)
C37 C -0.295(2) 0.3536(13) -0.1090(14)
H48 H -0.3415 0.3343 -0.1421
C38 C -0.313(3) 0.3609(17) -0.043(2)
H49 H -0.3711 0.3443 -0.0311
C39 C -0.206(2) 0.3749(14) -0.1270(17)
C40 C -0.248(3) 0.3918(18) 0.007(2)
H50 H -0.2629 0.3988 0.0513
C41 C -0.202(2) 0.4878(15) -0.2862(18)
H51 H -0.1348 0.4932 -0.2748
C42 C -0.349(2) 0.5360(15) -0.3429(17)
H52 H -0.3811 0.5716 -0.3687
C43 C -0.394(2) 0.4824(16) -0.3223(19)
H53 H -0.4612 0.4801 -0.3338
C44 C -0.347(2) 0.4289(14) -0.2840(17)
H54 H -0.3818 0.3909 -0.2711
C45 C -0.163(3) 0.4116(17) -0.0100(17)
H55 H -0.1166 0.4307 0.0233
C46 C -0.143(2) 0.4039(15) -0.0788(14)
H56 H -0.0838 0.4195 -0.0899
C47 C -0.254(3) 0.5370(16) -0.325(2)
H57 H -0.2204 0.5743 -0.3406
Ag2C Ag 0.00673(15) -0.12203(14) -0.27950(13)
I1C I 0.14499(13) 0.42189(9) -0.12133(9)
I2C I 0.08609(14) 0.40080(10) -0.33456(10)
loop_
_geom_bond_atom_site_label_1
_geom_bond_atom_site_label_2
_geom_bond_site_symmetry_1
_geom_bond_site_symmetry_2
S1 O1 1_555 1_555
C1 S1 1_555 1_555
H1 C1 1_555 1_555
H2 C1 1_555 1_555
H3 C1 1_555 1_555
C2 S1 1_555 1_555
H4 C2 1_555 1_555
H5 C2 1_555 1_555
H6 C2 1_555 1_555
S2 O2 1_555 1_555
C3 S2 1_555 1_555
H7 C3 1_555 1_555
H8 C3 1_555 1_555
H9 C3 1_555 1_555
C4 S2 1_555 1_555
H10 C4 1_555 1_555
H11 C4 1_555 1_555
H12 C4 1_555 1_555
S3 O3 1_555 1_555
C5 S3 1_555 1_555
H13 C5 1_555 1_555
H14 C5 1_555 1_555
H15 C5 1_555 1_555
C6 S3 1_555 1_555
H16 C6 1_555 1_555
H17 C6 1_555 1_555
H18 C6 1_555 1_555
I1 Ag1 1_555 1_555
I2 Ag1 1_555 1_555
Ag1 P2 1_555 1_555
Ag2 P1 1_555 1_555
P1 C19 1_555 1_555
P2 C11 1_555 1_555
P3 Ag1 1_555 1_555
C7 P3 1_555 1_555
H19 C7 1_555 1_555
H20 C7 1_555 1_555
C8 H21 1_555 1_555
C9 H22 1_555 1_555
C10 P3 1_555 1_555
C11 C15 1_555 1_555
C12 P2 1_555 1_555
H23 C12 1_555 1_555
H24 C12 1_555 1_555
C13 P2 1_555 1_555
C14 C8 1_555 1_555
H25 C14 1_555 1_555
C15 H26 1_555 1_555
C16 C11 1_555 1_555
H27 C16 1_555 1_555
C17 C10 1_555 1_555
H28 C17 1_555 1_555
C18 C9 1_555 1_555
H29 C18 1_555 1_555
C19 H30 1_555 1_555
H31 C19 1_555 1_555
C20 C7 1_555 1_555
C21 C9 1_555 1_555
H32 C21 1_555 1_555
C22 C20 1_555 1_555
H33 C22 1_555 1_555
H34 C22 1_555 1_555
H35 C22 1_555 1_555
C23 P3 1_555 1_555
C24 C23 1_555 1_555
H36 C24 1_555 1_555
C25 C23 1_555 1_555
H37 C25 1_555 1_555
C26 C25 1_555 1_555
H38 C26 1_555 1_555
C27 C10 1_555 1_555
H39 C27 1_555 1_555
C28 C17 1_555 1_555
H40 C28 1_555 1_555
C29 C28 1_555 1_555
H41 C29 1_555 1_555
C30 H42 1_555 1_555
C31 C15 1_555 1_555
H43 C31 1_555 1_555
C32 C24 1_555 1_555
H44 C32 1_555 1_555
C33 C27 1_555 1_555
H45 C33 1_555 1_555
C34 C16 1_555 1_555
H46 C34 1_555 1_555
C35 C26 1_555 1_555
H47 C35 1_555 1_555
C36 P1 1_555 1_555
C37 H48 1_555 1_555
C38 C37 1_555 1_555
H49 C38 1_555 1_555
C39 P1 1_555 1_555
C40 C38 1_555 1_555
H50 C40 1_555 1_555
C41 C36 1_555 1_555
H51 C41 1_555 1_555
C42 H52 1_555 1_555
C43 C42 1_555 1_555
H53 C43 1_555 1_555
C44 C36 1_555 1_555
H54 C44 1_555 1_555
C45 C40 1_555 1_555
H55 C45 1_555 1_555
C46 C39 1_555 1_555
H56 C46 1_555 1_555
C47 C41 1_555 1_555
H57 C47 1_555 1_555
Ag2C I1 1_555 1_555
I1C Ag2 1_555 1_555
I2C Ag2 1_555 1_555
I2 Ag2C 1_555 1_555
C8 C13 1_555 1_555
C12 C20 1_555 1_555
C13 C21 1_555 1_555
C14 C18 1_555 1_555
C19 C20 1_555 1_555
C29 C33 1_555 1_555
C30 C31 1_555 1_555
C30 C34 1_555 1_555
C32 C35 1_555 1_555
C37 C39 1_555 1_555
C42 C47 1_555 1_555
C43 C44 1_555 1_555
C45 C46 1_555 1_555

#END
