
#######################################################################
#
#                 Cambridge Crystallographic Data Centre
#                                CCDC 
#
#######################################################################
#
# If this CIF has been generated from an entry in the Cambridge 
# Structural Database, then it will include bibliographic, chemical, 
# crystal, experimental, refinement or atomic coordinate data resulting 
# from the CCDC's data processing and validation procedures.
#
#######################################################################

data_ODUREL
_symmetry_cell_setting           orthorhombic
_symmetry_space_group_name_H-M   'P b c a'
_symmetry_Int_Tables_number      61
_space_group_name_Hall           '-P 2ac 2ab'
loop_
_symmetry_equiv_pos_site_id
_symmetry_equiv_pos_as_xyz
1 x,y,z
2 1/2-x,-y,1/2+z
3 -x,1/2+y,1/2-z
4 1/2+x,1/2-y,-z
5 -x,-y,-z
6 1/2+x,y,1/2-z
7 x,1/2-y,1/2+z
8 1/2-x,1/2+y,z
_cell_length_a                   12.2599(9)
_cell_length_b                   12.1377(9)
_cell_length_c                   21.1716(16)
_cell_angle_alpha                90
_cell_angle_beta                 90
_cell_angle_gamma                90
_cell_volume                     3150.48
loop_
_atom_site_label
_atom_site_type_symbol
_atom_site_fract_x
_atom_site_fract_y
_atom_site_fract_z
Cu1 Cu 1.02855(3) 0.48036(3) 0.062035(15)
F1 F 0.85043(15) 1.12329(14) 0.09953(9)
F2 F 1.06064(15) 1.06272(16) 0.11976(9)
F3 F 0.78259(14) 0.78668(15) -0.00229(8)
F4 F 1.13014(14) 0.86084(15) 0.08326(9)
O1 O 1.01964(18) 0.64242(18) 0.06583(10)
O2 O 0.62948(17) 0.97451(18) 0.08081(10)
O3 O 0.67277(17) 1.00595(17) -0.02125(10)
O4 O 0.97654(18) 0.67508(17) -0.03596(10)
N1 N 1.1062(2) 0.4695(2) 0.15413(11)
C1 C 0.6946(2) 0.9829(2) 0.03491(14)
C2 C 0.8131(2) 0.9554(2) 0.04746(13)
C3 C 0.8842(3) 1.0240(2) 0.07916(14)
C4 C 0.9917(3) 0.9932(2) 0.09018(14)
C5 C 0.9896(2) 0.7024(2) 0.02070(14)
C6 C 0.9587(2) 0.8188(2) 0.03815(13)
C7 C 0.8532(2) 0.8552(2) 0.02714(13)
C8 C 1.0270(2) 0.8903(3) 0.07075(14)
C9 C 1.1861(3) 0.5408(3) 0.16359(15)
H1 H 1.1992 0.5950 0.1321
C10 C 1.2528(3) 0.5410(3) 0.21770(16)
H2 H 1.3085 0.5948 0.2225
C11 C 1.2366(3) 0.4630(3) 0.26326(15)
H3 H 1.2813 0.4616 0.2999
C12 C 1.1527(3) 0.3843(3) 0.25531(14)
C13 C 1.1296(3) 0.3001(3) 0.29990(15)
H4 H 1.1732 0.2939 0.3368
C14 C 1.0465(4) 0.2287(3) 0.29077(16)
H5 H 1.0315 0.1737 0.3215
C15 C 0.9823(3) 0.2356(3) 0.23594(16)
H6 H 0.9240 0.1851 0.2302
C16 C 1.0019(3) 0.3134(3) 0.19074(15)
H7 H 0.9584 0.3159 0.1536
C17 C 1.0873(3) 0.3903(3) 0.19958(13)
Cu1G Cu 0.47145(3) 0.98036(3) 0.062035(15)
Cu1C Cu 0.52855(3) 1.01964(3) -0.062035(15)
Cu1D Cu 0.97145(3) 0.51964(3) -0.062035(15)
O2G O 0.87052(17) 0.47451(18) 0.08081(10)
O3C O 1.17277(17) 0.49405(17) 0.02125(10)
O4D O 1.02346(18) 0.32492(17) 0.03596(10)
loop_
_geom_bond_atom_site_label_1
_geom_bond_atom_site_label_2
_geom_bond_site_symmetry_1
_geom_bond_site_symmetry_2
Cu1 O1 1_555 1_555
F1 C3 1_555 1_555
F2 C4 1_555 1_555
F3 C7 1_555 1_555
F4 C8 1_555 1_555
O1 C5 1_555 1_555
O2 C1 1_555 1_555
O3 C1 1_555 1_555
O4 C5 1_555 1_555
N1 Cu1 1_555 1_555
C1 C2 1_555 1_555
C2 C3 1_555 1_555
C3 C4 1_555 1_555
C4 C8 1_555 1_555
C5 C6 1_555 1_555
C6 C7 1_555 1_555
C7 C2 1_555 1_555
C8 C6 1_555 1_555
C9 N1 1_555 1_555
H1 C9 1_555 1_555
C10 C9 1_555 1_555
H2 C10 1_555 1_555
C11 C10 1_555 1_555
H3 C11 1_555 1_555
C12 C11 1_555 1_555
C13 C12 1_555 1_555
H4 C13 1_555 1_555
C14 C13 1_555 1_555
H5 C14 1_555 1_555
C15 C14 1_555 1_555
H6 C15 1_555 1_555
C16 C15 1_555 1_555
H7 C16 1_555 1_555
C17 N1 1_555 1_555
Cu1G O2 1_555 1_555
Cu1C O3 1_555 1_555
Cu1D O4 1_555 1_555
O2G Cu1 1_555 1_555
O3C Cu1 1_555 1_555
O4D Cu1 1_555 1_555
C12 C17 1_555 1_555
C16 C17 1_555 1_555

#END
