
#######################################################################
#
#                 Cambridge Crystallographic Data Centre
#                                CCDC 
#
#######################################################################
#
# If this CIF has been generated from an entry in the Cambridge 
# Structural Database, then it will include bibliographic, chemical, 
# crystal, experimental, refinement or atomic coordinate data resulting 
# from the CCDC's data processing and validation procedures.
#
#######################################################################

data_ODUROV
_symmetry_cell_setting           triclinic
_symmetry_space_group_name_H-M   'P -1'
_symmetry_Int_Tables_number      2
_space_group_name_Hall           '-P 1'
loop_
_symmetry_equiv_pos_site_id
_symmetry_equiv_pos_as_xyz
1 x,y,z
2 -x,-y,-z
_cell_length_a                   11.3895(11)
_cell_length_b                   12.7032(12)
_cell_length_c                   13.2957(13)
_cell_angle_alpha                89.200(2)
_cell_angle_beta                 69.464(2)
_cell_angle_gamma                78.878(2)
_cell_volume                     1764.56
loop_
_atom_site_label
_atom_site_type_symbol
_atom_site_fract_x
_atom_site_fract_y
_atom_site_fract_z
Cl1 Cl 0.6577(2) -0.65847(19) -0.1927(2)
C35 C 0.5746(5) -0.5708(4) -0.0878(4)
C36 C 0.5487(5) -0.6052(4) 0.0157(4)
H15 H 0.5829 -0.6769 0.0267
C37 C 0.5273(6) -0.4651(5) -0.1034(4)
H16 H 0.5470 -0.4409 -0.1742
Cl1A Cl 0.3423(2) -0.34153(19) 0.1927(2)
C35A C 0.4254(5) -0.4292(4) 0.0878(4)
C36A C 0.4513(5) -0.3948(4) -0.0157(4)
H15A H 0.4171 -0.3231 -0.0267
C37A C 0.4727(6) -0.5349(5) 0.1034(4)
H16A H 0.4530 -0.5591 0.1742
Cu1 Cu 0.12630(4) -0.54353(4) -0.51821(3)
Cu2 Cu -0.12692(4) -0.00616(3) 0.02940(3)
F1 F -0.0196(2) -0.23874(17) -0.26123(17)
F2 F 0.1424(3) -0.1700(2) -0.62830(18)
F3 F 0.1941(3) 0.0173(2) -0.57614(19)
F4 F 0.1391(3) 0.07786(19) -0.36820(19)
F5 F -0.0088(2) 0.26755(18) -0.23706(18)
F6 F -0.1807(3) 0.63197(17) -0.11896(18)
F7 F -0.2357(3) 0.5794(2) 0.0883(2)
F8 F -0.1795(3) 0.3691(2) 0.13273(19)
O1 O 0.1311(3) -0.3903(2) -0.4978(2)
O2 O -0.1532(3) 0.5205(2) -0.3277(2)
O3 O 0.0547(3) 0.4497(2) -0.3604(2)
O4 O -0.0765(3) -0.3192(2) -0.4636(2)
O5 O -0.0796(2) -0.0411(2) -0.1268(2)
O6 O -0.1537(3) 0.1487(2) 0.0001(2)
O7 O 0.1286(2) -0.0328(2) -0.1728(2)
O8 O 0.0537(3) 0.1583(2) -0.0450(2)
N1 N 0.3278(4) -0.5950(3) -0.5427(3)
N2 N -0.3173(3) -0.0402(2) 0.0777(2)
C1 C 0.4056(4) -0.5310(4) -0.6104(4)
H1 H 0.3634 -0.4726 -0.6385
C2 C 0.5368(5) -0.5430(6) -0.6411(5)
H2 H 0.5832 -0.4971 -0.6894
C3 C 0.3862(5) -0.6712(5) -0.4984(5)
C4 C -0.0611(4) 0.4771(3) -0.3008(3)
C5 C 0.0344(4) -0.3152(3) -0.4712(3)
C6 C 0.0581(4) -0.2070(3) -0.4444(3)
C7 C 0.1130(4) -0.1409(3) -0.5226(3)
C8 C 0.1403(4) -0.0460(3) -0.4978(3)
C9 C 0.1118(4) -0.0158(3) -0.3906(3)
C10 C 0.0571(4) -0.0785(3) -0.3084(3)
C11 C 0.0312(4) -0.1732(3) -0.3386(3)
C12 C 0.0325(4) -0.0478(3) -0.1914(3)
C13 C -0.3236(4) -0.1351(3) 0.0423(3)
H3 H -0.2456 -0.1830 0.0040
C14 C -0.4386(4) -0.1690(4) 0.0578(4)
H4 H -0.4377 -0.2388 0.0326
C15 C -0.5520(4) -0.0997(4) 0.1099(3)
H5 H -0.6309 -0.1202 0.1188
C16 C -0.5513(4) 0.0019(3) 0.1502(3)
C17 C -0.4304(4) 0.0294(3) 0.1346(3)
C18 C -0.4269(4) 0.1295(3) 0.1778(3)
H6 H -0.3470 0.1477 0.1693
C19 C -0.5391(4) 0.2007(4) 0.2322(3)
H7 H -0.5358 0.2675 0.2614
C20 C -0.6591(4) 0.1756(4) 0.2452(3)
H8 H -0.7357 0.2256 0.2823
C21 C -0.6648(4) 0.0801(4) 0.2047(3)
H9 H -0.7459 0.0648 0.2126
C22 C -0.0614(4) 0.1963(3) -0.0300(3)
C23 C -0.0915(4) 0.3144(3) -0.0527(3)
C24 C -0.0629(4) 0.3458(3) -0.1569(3)
C25 C -0.0905(4) 0.4505(3) -0.1840(3)
C26 C -0.1507(4) 0.5282(3) -0.0993(3)
C27 C -0.1785(4) 0.5013(3) 0.0071(3)
C28 C -0.1496(4) 0.3940(3) 0.0291(3)
C29 C 0.5235(6) -0.6916(6) -0.5234(6)
C30 C 0.3121(6) -0.7343(5) -0.4265(6)
H10 H 0.2230 -0.7242 -0.4134
C31 C 0.5967(7) -0.6273(5) -0.5962(5)
H11 H 0.6870 -0.6410 -0.6149
C32 C 0.5762(8) -0.7708(8) -0.4706(10)
H12 H 0.6659 -0.7844 -0.4857
C33 C 0.5020(9) -0.8307(9) -0.3963(11)
H13 H 0.5402 -0.8842 -0.3604
C34 C 0.3685(8) -0.8118(7) -0.3744(8)
H14 H 0.3172 -0.8527 -0.3233
Cu1_2 Cu 0.12630(4) 0.45647(4) -0.51821(3)
Cu1A Cu -0.12630(4) 0.54353(4) -0.48179(3)
Cu1A_2 Cu -0.12630(4) -0.45647(4) -0.48179(3)
Cu2A Cu 0.12692(4) 0.00616(3) -0.02940(3)
O2A O 0.1532(3) -0.5205(2) -0.6723(2)
O3_2 O 0.0547(3) -0.5503(2) -0.3604(2)
O4A O 0.0765(3) -0.6808(2) -0.5364(2)
O7A O -0.1286(2) 0.0328(2) 0.1728(2)
O8A O -0.0537(3) -0.1583(2) 0.0450(2)
loop_
_geom_bond_atom_site_label_1
_geom_bond_atom_site_label_2
_geom_bond_site_symmetry_1
_geom_bond_site_symmetry_2
Cu1 O1 1_555 1_555
Cu2 O5 1_555 1_555
F1 C11 1_555 1_555
F2 C7 1_555 1_555
F3 C8 1_555 1_555
F4 C9 1_555 1_555
F5 C24 1_555 1_555
F6 C26 1_555 1_555
F7 C27 1_555 1_555
F8 C28 1_555 1_555
O1 C5 1_555 1_555
O2 C4 1_555 1_555
O3 C4 1_555 1_555
O4 C5 1_555 1_555
O5 C12 1_555 1_555
O6 Cu2 1_555 1_555
O7 C12 1_555 1_555
O8 C22 1_555 1_555
N1 Cu1 1_555 1_555
N2 Cu2 1_555 1_555
C1 N1 1_555 1_555
H1 C1 1_555 1_555
C2 C1 1_555 1_555
H2 C2 1_555 1_555
C3 N1 1_555 1_555
C4 C25 1_555 1_555
C5 C6 1_555 1_555
C6 C7 1_555 1_555
C7 C8 1_555 1_555
C8 C9 1_555 1_555
C9 C10 1_555 1_555
C10 C11 1_555 1_555
C11 C6 1_555 1_555
C12 C10 1_555 1_555
C13 N2 1_555 1_555
H3 C13 1_555 1_555
C14 C13 1_555 1_555
H4 C14 1_555 1_555
C15 C14 1_555 1_555
H5 C15 1_555 1_555
C16 C15 1_555 1_555
C17 N2 1_555 1_555
C18 C17 1_555 1_555
H6 C18 1_555 1_555
C19 C18 1_555 1_555
H7 C19 1_555 1_555
C20 C19 1_555 1_555
H8 C20 1_555 1_555
C21 C16 1_555 1_555
H9 C21 1_555 1_555
C22 O6 1_555 1_555
C23 C22 1_555 1_555
C24 C23 1_555 1_555
C25 C24 1_555 1_555
C26 C25 1_555 1_555
C27 C26 1_555 1_555
C28 C23 1_555 1_555
C29 C3 1_555 1_555
C30 C3 1_555 1_555
H10 C30 1_555 1_555
C31 C2 1_555 1_555
H11 C31 1_555 1_555
C32 C29 1_555 1_555
H12 C32 1_555 1_555
C33 C32 1_555 1_555
H13 C33 1_555 1_555
C34 C30 1_555 1_555
H14 C34 1_555 1_555
Cl1 C35 1_555 1_555
C35 C36 1_555 1_555
C36 H15 1_555 1_555
C37 C35 1_555 1_555
H16 C37 1_555 1_555
Cu1_2 O3 1_555 1_555
Cu1A O2 1_555 1_555
Cu1A_2 O4 1_555 1_555
Cu2A O7 1_555 1_555
O2A Cu1 1_555 1_555
O3_2 Cu1 1_555 1_555
O4A Cu1 1_555 1_555
O7A Cu2 1_555 1_555
O8A Cu2 1_555 1_555
Cl1A C35A 1_555 1_555
C35A C36A 1_555 1_555
C36A C37 1_555 1_555
H15A C36A 1_555 1_555
C37A C36 1_555 1_555
H16A C37A 1_555 1_555
O8 Cu2A 1_555 1_555
C16 C17 1_555 1_555
C20 C21 1_555 1_555
C27 C28 1_555 1_555
C29 C31 1_555 1_555
C33 C34 1_555 1_555
C35A C37A 1_555 1_555

#END
