
#######################################################################
#
#                 Cambridge Crystallographic Data Centre
#                                CCDC 
#
#######################################################################
#
# If this CIF has been generated from an entry in the Cambridge 
# Structural Database, then it will include bibliographic, chemical, 
# crystal, experimental, refinement or atomic coordinate data resulting 
# from the CCDC's data processing and validation procedures.
#
#######################################################################

data_OFABOM
_symmetry_cell_setting           triclinic
_symmetry_space_group_name_H-M   'P -1'
_symmetry_Int_Tables_number      2
_space_group_name_Hall           '-P 1'
loop_
_symmetry_equiv_pos_site_id
_symmetry_equiv_pos_as_xyz
1 x,y,z
2 -x,-y,-z
_cell_length_a                   10.4536(2)
_cell_length_b                   11.8867(2)
_cell_length_c                   13.99810(10)
_cell_angle_alpha                93.0340(10)
_cell_angle_beta                 93.7660(10)
_cell_angle_gamma                105.4680(10)
_cell_volume                     1668.27
loop_
_atom_site_label
_atom_site_type_symbol
_atom_site_fract_x
_atom_site_fract_y
_atom_site_fract_z
Zn1 Zn 0.31926(4) 0.43330(3) 1.07927(3)
Zn2 Zn -0.15900(4) -0.00644(4) 0.59505(3)
V1 V 0.24311(6) 0.40474(5) 0.63661(4)
V2 V 0.28113(6) 0.14980(5) 0.83750(4)
P1 P 0.38821(9) 0.42314(8) 0.85606(6)
P2 P 0.14281(9) 0.12313(8) 0.62113(6)
O1 O 0.0059(2) 0.0954(2) 0.65884(18)
O2 O 0.1567(2) 0.0334(2) 0.54362(16)
O3 O 0.1808(3) 0.2486(2) 0.58587(18)
O4 O 0.3746(3) 0.4702(2) 0.58541(18)
O5 O 0.1315(3) 0.4739(3) 0.61479(19)
O6 O 0.2816(2) 0.4101(2) 0.76948(17)
O7 O 0.4027(2) 0.2967(2) 0.86976(17)
O8 O 0.3474(3) 0.0496(2) 0.87548(18)
O9 O 0.1419(3) 0.1392(2) 0.88649(17)
O10 O 0.2497(2) 0.1248(2) 0.70562(16)
O11 O 0.3367(2) 0.4707(2) 0.94487(16)
O12 O 0.5216(2) 0.5003(2) 0.83160(16)
N1 N 0.3371(4) 0.2572(3) 1.0845(2)
N2 N 0.1262(3) 0.3321(3) 1.0982(2)
N3 N 0.2117(3) 0.5598(3) 1.1207(2)
N4 N -0.1504(3) -0.1752(3) 0.6403(2)
N5 N -0.3500(3) -0.0802(3) 0.63622(19)
N6 N -0.2584(3) 0.1334(3) 0.5859(2)
C1 C 0.4531(5) 0.2280(4) 1.0821(3)
H1 H 0.5310 0.2861 1.0756
C2 C 0.4593(7) 0.1132(5) 1.0889(3)
H2 H 0.5402 0.0948 1.0871
C3 C 0.3436(8) 0.0271(5) 1.0985(3)
H3 H 0.3458 -0.0503 1.1019
C4 C 0.2248(6) 0.0558(4) 1.1029(3)
H4 H 0.1468 -0.0011 1.1116
C5 C 0.2237(5) 0.1720(3) 1.0942(2)
C6 C 0.1017(4) 0.2149(3) 1.0948(2)
C7 C -0.0290(5) 0.1439(4) 1.0948(3)
H5 H -0.0469 0.0629 1.0939
C8 C -0.1311(5) 0.1985(5) 1.0961(3)
H6 H -0.2189 0.1531 1.0935
C9 C -0.1047(4) 0.3188(5) 1.1012(3)
H7 H -0.1734 0.3548 1.1028
C10 C 0.0288(4) 0.3856(4) 1.1039(2)
C11 C 0.0779(4) 0.5149(4) 1.1218(2)
C12 C -0.0045(5) 0.5854(4) 1.1469(3)
H8 H -0.0964 0.5544 1.1431
C13 C 0.0532(5) 0.7026(5) 1.1775(3)
H9 H 0.0003 0.7505 1.1956
C14 C 0.1901(5) 0.7469(4) 1.1808(3)
H10 H 0.2312 0.8238 1.2035
C15 C 0.2647(4) 0.6733(3) 1.1491(3)
H11 H 0.3561 0.7045 1.1476
C16 C -0.0440(4) -0.2187(3) 0.6368(2)
H12 H 0.0375 -0.1682 0.6257
C17 C -0.0505(4) -0.3358(3) 0.6492(3)
H13 H 0.0245 -0.3635 0.6458
C18 C -0.1726(4) -0.4096(3) 0.6666(2)
H14 H -0.1802 -0.4879 0.6757
C19 C -0.2833(4) -0.3669(3) 0.6704(2)
H15 H -0.3654 -0.4162 0.6817
C20 C -0.2698(4) -0.2489(3) 0.6570(2)
C21 C -0.3822(4) -0.1928(3) 0.6591(2)
C22 C -0.5109(4) -0.2492(3) 0.6813(3)
H16 H -0.5328 -0.3265 0.6975
C23 C -0.6059(4) -0.1855(4) 0.6784(3)
H17 H -0.6924 -0.2206 0.6929
C24 C -0.5713(4) -0.0693(3) 0.6538(2)
H18 H -0.6342 -0.0267 0.6518
C25 C -0.4413(4) -0.0185(3) 0.6324(2)
C26 C -0.3893(3) 0.1032(3) 0.6026(2)
C27 C -0.4669(4) 0.1815(3) 0.5921(3)
H19 H -0.5554 0.1610 0.6066
C28 C -0.4091(4) 0.2916(3) 0.5594(3)
H20 H -0.4596 0.3444 0.5502
C29 C -0.2751(4) 0.3214(3) 0.5407(3)
H21 H -0.2353 0.3936 0.5181
C30 C -0.2024(4) 0.2409(3) 0.5566(2)
H22 H -0.1123 0.2617 0.5468
O12A O 0.4784(2) 0.4997(2) 1.16840(16)
O2A O -0.1567(2) -0.0334(2) 0.45638(16)
Zn2A Zn 0.15900(4) 0.00644(4) 0.40495(3)
Zn1A Zn 0.68074(4) 0.56670(3) 0.92073(3)
loop_
_geom_bond_atom_site_label_1
_geom_bond_atom_site_label_2
_geom_bond_site_symmetry_1
_geom_bond_site_symmetry_2
Zn1 O11 1_555 1_555
Zn2 O1 1_555 1_555
V1 O3 1_555 1_555
V2 O7 1_555 1_555
P1 O6 1_555 1_555
P2 O1 1_555 1_555
O2 P2 1_555 1_555
O3 P2 1_555 1_555
O4 V1 1_555 1_555
O5 V1 1_555 1_555
O6 V1 1_555 1_555
O7 P1 1_555 1_555
O8 V2 1_555 1_555
O9 V2 1_555 1_555
O10 V2 1_555 1_555
O11 P1 1_555 1_555
O12 P1 1_555 1_555
N1 Zn1 1_555 1_555
N2 Zn1 1_555 1_555
N3 Zn1 1_555 1_555
N4 Zn2 1_555 1_555
N5 Zn2 1_555 1_555
N6 Zn2 1_555 1_555
C1 N1 1_555 1_555
H1 C1 1_555 1_555
C2 C1 1_555 1_555
H2 C2 1_555 1_555
C3 C2 1_555 1_555
H3 C3 1_555 1_555
C4 C3 1_555 1_555
H4 C4 1_555 1_555
C5 N1 1_555 1_555
C6 N2 1_555 1_555
C7 C6 1_555 1_555
H5 C7 1_555 1_555
C8 C7 1_555 1_555
H6 C8 1_555 1_555
C9 C8 1_555 1_555
H7 C9 1_555 1_555
C10 N2 1_555 1_555
C11 N3 1_555 1_555
C12 C11 1_555 1_555
H8 C12 1_555 1_555
C13 C12 1_555 1_555
H9 C13 1_555 1_555
C14 C13 1_555 1_555
H10 C14 1_555 1_555
C15 N3 1_555 1_555
H11 C15 1_555 1_555
C16 N4 1_555 1_555
H12 C16 1_555 1_555
C17 C16 1_555 1_555
H13 C17 1_555 1_555
C18 C17 1_555 1_555
H14 C18 1_555 1_555
C19 C18 1_555 1_555
H15 C19 1_555 1_555
C20 N4 1_555 1_555
C21 N5 1_555 1_555
C22 C21 1_555 1_555
H16 C22 1_555 1_555
C23 C22 1_555 1_555
H17 C23 1_555 1_555
C24 C23 1_555 1_555
H18 C24 1_555 1_555
C25 N5 1_555 1_555
C26 N6 1_555 1_555
C27 C26 1_555 1_555
H19 C27 1_555 1_555
C28 C27 1_555 1_555
H20 C28 1_555 1_555
C29 C28 1_555 1_555
H21 C29 1_555 1_555
C30 N6 1_555 1_555
H22 C30 1_555 1_555
O12A Zn1 1_555 1_555
O2A Zn2 1_555 1_555
Zn2A O2 1_555 1_555
Zn1A O12 1_555 1_555
P2 O10 1_555 1_555
C4 C5 1_555 1_555
C5 C6 1_555 1_555
C9 C10 1_555 1_555
C10 C11 1_555 1_555
C14 C15 1_555 1_555
C19 C20 1_555 1_555
C20 C21 1_555 1_555
C24 C25 1_555 1_555
C25 C26 1_555 1_555
C29 C30 1_555 1_555

#END
