
#######################################################################
#
#                 Cambridge Crystallographic Data Centre
#                                CCDC 
#
#######################################################################
#
# If this CIF has been generated from an entry in the Cambridge 
# Structural Database, then it will include bibliographic, chemical, 
# crystal, experimental, refinement or atomic coordinate data resulting 
# from the CCDC's data processing and validation procedures.
#
#######################################################################

data_OFABEC
_symmetry_cell_setting           orthorhombic
_symmetry_space_group_name_H-M   'P b c n'
_symmetry_Int_Tables_number      60
_space_group_name_Hall           '-P 2n 2ab'
loop_
_symmetry_equiv_pos_site_id
_symmetry_equiv_pos_as_xyz
1 x,y,z
2 1/2+x,1/2+y,1/2-z
3 1/2-x,1/2+y,z
4 x,-y,1/2+z
5 -x,-y,-z
6 1/2-x,1/2-y,1/2+z
7 1/2+x,1/2-y,-z
8 -x,y,1/2-z
_cell_length_a                   22.4149(7)
_cell_length_b                   7.3152(1)
_cell_length_c                   19.5234(4)
_cell_angle_alpha                90
_cell_angle_beta                 90
_cell_angle_gamma                90
_cell_volume                     3201.24
loop_
_atom_site_label
_atom_site_type_symbol
_atom_site_fract_x
_atom_site_fract_y
_atom_site_fract_z
Ni1 Ni 0.5000 -0.00881(7) 0.2500
Ni2 Ni 0.5000 -0.5000 0.5000
O1 O 0.58927(13) -0.4581(4) 0.51215(14)
H1 H 0.613(2) -0.542(6) 0.5065(18)
H2 H 0.607(2) -0.374(6) 0.500(2)
N3 N 0.50657(12) -0.0041(3) 0.36232(15)
C13 C 0.50342(14) -0.1555(4) 0.39876(17)
N4 N 0.50013(12) -0.2938(4) 0.42720(15)
C14 C 0.51055(15) 0.1517(4) 0.39859(17)
N5 N 0.51364(13) 0.2891(4) 0.42682(15)
N6 N 0.61104(14) 0.4893(3) 0.23081(18)
C15 C 0.58286(15) 0.3358(4) 0.23897(17)
N7 N 0.56300(13) 0.1920(4) 0.24516(13)
C16 C 0.58194(15) 0.6446(5) 0.23895(17)
N8 N 0.56181(13) 0.7883(4) 0.24550(14)
N3G N 0.49343(12) -0.0041(3) 0.13768(15)
C13G C 0.49658(14) -0.1555(4) 0.10124(17)
N4G N 0.49987(12) -0.2938(4) 0.07280(15)
C14G C 0.48945(15) 0.1517(4) 0.10141(17)
N5G N 0.48636(13) 0.2891(4) 0.07318(15)
N6G N 0.38896(14) 0.4893(3) 0.26919(18)
C15G C 0.41714(15) 0.3358(4) 0.26103(17)
N7G N 0.43700(13) 0.1920(4) 0.25484(13)
C16G C 0.41806(15) 0.6446(5) 0.26105(17)
N8G N 0.43819(13) 0.7883(4) 0.25450(14)
O1D O 0.41073(13) -0.5419(4) 0.48785(14)
H1D H 0.387(2) -0.458(6) 0.4935(18)
H2D H 0.393(2) -0.626(6) 0.500(2)
N8_2 N 0.56181(13) -0.2117(4) 0.24550(14)
N8G_2 N 0.43819(13) -0.2117(4) 0.25450(14)
N4D N 0.49987(12) -0.7062(4) 0.57280(15)
N5_2 N 0.51364(13) -0.7109(4) 0.42682(15)
N5D N 0.48636(13) -0.2891(4) 0.57318(15)
Ni2_2 Ni 0.5000 0.5000 0.5000
Ni1_2 Ni 0.5000 0.99119(7) 0.2500
Ni2C Ni 0.5000 -0.5000 0.0000
Ni2C_2 Ni 0.5000 0.5000 0.0000
N1 N 0.70144(13) 0.3684(3) 0.50006(14)
C1 C 0.72499(15) 0.3004(4) 0.44195(17)
C2 C 0.68655(17) 0.2419(4) 0.38832(18)
H3 H 0.6445 0.2481 0.3938
C3 C 0.71032(18) 0.1775(5) 0.32956(19)
H4 H 0.6846 0.1380 0.2938
C4 C 0.77265(18) 0.1678(5) 0.32014(19)
H5 H 0.7881 0.1244 0.2778
C5 C 0.81087(18) 0.2189(4) 0.37026(19)
H6 H 0.8527 0.2092 0.3632
C6 C 0.78856(15) 0.2869(4) 0.43326(18)
N2 N 0.82663(13) 0.3363(4) 0.48350(15)
C7 C 0.80298(15) 0.4037(4) 0.54072(17)
C8 C 0.84113(17) 0.4604(4) 0.59508(19)
H7 H 0.8831 0.4465 0.5909
C9 C 0.81762(18) 0.5343(4) 0.65294(19)
H8 H 0.8434 0.5729 0.6888
C10 C 0.75501(16) 0.5545(4) 0.66038(17)
H9 H 0.7395 0.6082 0.7009
C11 C 0.71730(16) 0.4992(4) 0.61122(17)
H10 H 0.6755 0.5117 0.6177
C12 C 0.73966(15) 0.4220(4) 0.54940(17)
loop_
_geom_bond_atom_site_label_1
_geom_bond_atom_site_label_2
_geom_bond_site_symmetry_1
_geom_bond_site_symmetry_2
Ni1 N3 1_555 1_555
Ni2 O1 1_555 1_555
O1 H1 1_555 1_555
H2 O1 1_555 1_555
N1 C1 1_555 1_555
C1 C2 1_555 1_555
C2 H3 1_555 1_555
C3 C2 1_555 1_555
H4 C3 1_555 1_555
C4 C3 1_555 1_555
H5 C4 1_555 1_555
C5 C4 1_555 1_555
H6 C5 1_555 1_555
C6 C1 1_555 1_555
N2 C6 1_555 1_555
C7 N2 1_555 1_555
C8 C7 1_555 1_555
H7 C8 1_555 1_555
C9 C8 1_555 1_555
H8 C9 1_555 1_555
C10 C9 1_555 1_555
H9 C10 1_555 1_555
C11 C10 1_555 1_555
H10 C11 1_555 1_555
C12 N1 1_555 1_555
N3 C13 1_555 1_555
C13 N4 1_555 1_555
N4 Ni2 1_555 1_555
C14 N3 1_555 1_555
N5 C14 1_555 1_555
N6 C15 1_555 1_555
C15 N7 1_555 1_555
N7 Ni1 1_555 1_555
C16 N6 1_555 1_555
N8 C16 1_555 1_555
N3G Ni1 1_555 1_555
C13G N3G 1_555 1_555
N4G C13G 1_555 1_555
C14G N3G 1_555 1_555
N5G C14G 1_555 1_555
N6G C15G 1_555 1_555
C15G N7G 1_555 1_555
N7G Ni1 1_555 1_555
C16G N6G 1_555 1_555
N8G C16G 1_555 1_555
O1D Ni2 1_555 1_555
H1D O1D 1_555 1_555
H2D O1D 1_555 1_555
N8_2 Ni1 1_555 1_555
N8G_2 Ni1 1_555 1_555
N4D Ni2 1_555 1_555
N5_2 Ni2 1_555 1_555
N5D Ni2 1_555 1_555
Ni2_2 N5 1_555 1_555
Ni1_2 N8 1_555 1_555
Ni2C N4G 1_555 1_555
Ni2C_2 N5G 1_555 1_555
C5 C6 1_555 1_555
C7 C12 1_555 1_555
C11 C12 1_555 1_555
N8G Ni1_2 1_555 1_555

#END
