
#######################################################################
#
#                 Cambridge Crystallographic Data Centre
#                                CCDC 
#
#######################################################################
#
# If this CIF has been generated from an entry in the Cambridge 
# Structural Database, then it will include bibliographic, chemical, 
# crystal, experimental, refinement or atomic coordinate data resulting 
# from the CCDC's data processing and validation procedures.
#
#######################################################################

data_OFABAY
_symmetry_cell_setting           orthorhombic
_symmetry_space_group_name_H-M   'P b c n'
_symmetry_Int_Tables_number      60
_space_group_name_Hall           '-P 2n 2ab'
loop_
_symmetry_equiv_pos_site_id
_symmetry_equiv_pos_as_xyz
1 x,y,z
2 1/2+x,1/2+y,1/2-z
3 1/2-x,1/2+y,z
4 x,-y,1/2+z
5 -x,-y,-z
6 1/2-x,1/2-y,1/2+z
7 1/2+x,1/2-y,-z
8 -x,y,1/2-z
_cell_length_a                   22.3876(4)
_cell_length_b                   7.4110(1)
_cell_length_c                   19.5978(3)
_cell_angle_alpha                90
_cell_angle_beta                 90
_cell_angle_gamma                90
_cell_volume                     3251.56
loop_
_atom_site_label
_atom_site_type_symbol
_atom_site_fract_x
_atom_site_fract_y
_atom_site_fract_z
Co1 Co 0.5000 -0.00761(5) 0.2500
Co2 Co 0.5000 -0.5000 0.5000
O1 O 0.59023(7) -0.4575(2) 0.50696(8)
H1 H 0.6182(14) -0.533(4) 0.5053(13)
H2 H 0.6064(14) -0.367(4) 0.4977(14)
N3 N 0.50574(7) -0.0034(2) 0.36270(8)
C13 C 0.50162(8) -0.1540(3) 0.39848(10)
N4 N 0.49741(8) -0.2902(2) 0.42643(9)
C14 C 0.50939(8) 0.1491(3) 0.39817(9)
N5 N 0.51215(7) 0.2856(2) 0.42640(8)
N6 N 0.61159(8) 0.4911(2) 0.22941(11)
C15 C 0.58359(9) 0.3384(3) 0.23825(10)
N7 N 0.56364(8) 0.1964(2) 0.24506(8)
C16 C 0.58290(9) 0.6428(3) 0.23830(10)
N8 N 0.56278(8) 0.7847(2) 0.24532(8)
N3G N 0.49426(7) -0.0034(2) 0.13730(8)
C13G C 0.49838(8) -0.1540(3) 0.10152(10)
N4G N 0.50259(8) -0.2902(2) 0.07357(9)
C14G C 0.49061(8) 0.1491(3) 0.10183(9)
N5G N 0.48785(7) 0.2856(2) 0.07360(8)
N6G N 0.38841(8) 0.4911(2) 0.27059(11)
C15G C 0.41641(9) 0.3384(3) 0.26175(10)
N7G N 0.43636(8) 0.1964(2) 0.25494(8)
C16G C 0.41710(9) 0.6428(3) 0.26170(10)
N8G N 0.43722(8) 0.7847(2) 0.25468(8)
O1D O 0.40977(7) -0.5425(2) 0.49304(8)
H1D H 0.3818(14) -0.467(4) 0.4947(13)
H2D H 0.3936(14) -0.633(4) 0.5023(14)
N8_2 N 0.56278(8) -0.2153(2) 0.24532(8)
N8G_2 N 0.43722(8) -0.2153(2) 0.25468(8)
N4D N 0.50259(8) -0.7098(2) 0.57357(9)
N5_2 N 0.51215(7) -0.7144(2) 0.42640(8)
N5D N 0.48785(7) -0.2856(2) 0.57360(8)
Co2_2 Co 0.5000 0.5000 0.5000
Co1_2 Co 0.5000 0.99239(5) 0.2500
Co2C Co 0.5000 -0.5000 0.0000
Co2C_2 Co 0.5000 0.5000 0.0000
N1 N 0.70107(7) 0.3675(2) 0.49948(8)
C1 C 0.72442(9) 0.3000(3) 0.44182(10)
C2 C 0.68561(10) 0.2421(3) 0.38811(11)
H3 H 0.6435 0.2493 0.3936
C3 C 0.70919(10) 0.1769(3) 0.32926(11)
H4 H 0.6833 0.1385 0.2937
C4 C 0.77198(10) 0.1653(3) 0.31996(11)
H5 H 0.7874 0.1206 0.2781
C5 C 0.81028(10) 0.2167(3) 0.36972(11)
H6 H 0.8522 0.2075 0.3627
C6 C 0.78779(9) 0.2846(3) 0.43268(10)
N2 N 0.82629(7) 0.3333(2) 0.48235(9)
C7 C 0.80302(9) 0.4020(3) 0.53952(10)
C8 C 0.84139(10) 0.4575(3) 0.59349(11)
H7 H 0.8834 0.4426 0.5892
C9 C 0.81830(10) 0.5319(3) 0.65127(11)
H8 H 0.8444 0.5694 0.6868
C10 C 0.75558(10) 0.5538(3) 0.65897(10)
H9 H 0.7404 0.6081 0.6993
C11 C 0.71708(9) 0.4988(3) 0.60982(10)
H10 H 0.6752 0.5118 0.6163
C12 C 0.73960(8) 0.4212(3) 0.54830(10)
loop_
_geom_bond_atom_site_label_1
_geom_bond_atom_site_label_2
_geom_bond_site_symmetry_1
_geom_bond_site_symmetry_2
Co1 N3 1_555 1_555
Co2 O1 1_555 1_555
O1 H1 1_555 1_555
H2 O1 1_555 1_555
N1 C1 1_555 1_555
C1 C2 1_555 1_555
C2 H3 1_555 1_555
C3 C2 1_555 1_555
H4 C3 1_555 1_555
C4 C3 1_555 1_555
H5 C4 1_555 1_555
C5 C4 1_555 1_555
H6 C5 1_555 1_555
C6 C1 1_555 1_555
N2 C6 1_555 1_555
C7 N2 1_555 1_555
C8 C7 1_555 1_555
H7 C8 1_555 1_555
C9 C8 1_555 1_555
H8 C9 1_555 1_555
C10 C9 1_555 1_555
H9 C10 1_555 1_555
C11 C10 1_555 1_555
H10 C11 1_555 1_555
C12 N1 1_555 1_555
N3 C13 1_555 1_555
C13 N4 1_555 1_555
N4 Co2 1_555 1_555
C14 N3 1_555 1_555
N5 C14 1_555 1_555
N6 C15 1_555 1_555
C15 N7 1_555 1_555
N7 Co1 1_555 1_555
C16 N6 1_555 1_555
N8 C16 1_555 1_555
N3G Co1 1_555 1_555
C13G N3G 1_555 1_555
N4G C13G 1_555 1_555
C14G N3G 1_555 1_555
N5G C14G 1_555 1_555
N6G C15G 1_555 1_555
C15G N7G 1_555 1_555
N7G Co1 1_555 1_555
C16G N6G 1_555 1_555
N8G C16G 1_555 1_555
O1D Co2 1_555 1_555
H1D O1D 1_555 1_555
H2D O1D 1_555 1_555
N8_2 Co1 1_555 1_555
N8G_2 Co1 1_555 1_555
N4D Co2 1_555 1_555
N5_2 Co2 1_555 1_555
N5D Co2 1_555 1_555
Co2_2 N5 1_555 1_555
Co1_2 N8 1_555 1_555
Co2C N4G 1_555 1_555
Co2C_2 N5G 1_555 1_555
C5 C6 1_555 1_555
C7 C12 1_555 1_555
C11 C12 1_555 1_555
N8G Co1_2 1_555 1_555

#END
