
#######################################################################
#
#                 Cambridge Crystallographic Data Centre
#                                CCDC 
#
#######################################################################
#
# If this CIF has been generated from an entry in the Cambridge 
# Structural Database, then it will include bibliographic, chemical, 
# crystal, experimental, refinement or atomic coordinate data resulting 
# from the CCDC's data processing and validation procedures.
#
#######################################################################

data_OFACAB
_symmetry_cell_setting           monoclinic
_symmetry_space_group_name_H-M   'C 2/m'
_symmetry_Int_Tables_number      12
_space_group_name_Hall           '-C 2y'
loop_
_symmetry_equiv_pos_site_id
_symmetry_equiv_pos_as_xyz
1 x,y,z
2 -x,y,-z
3 1/2+x,1/2+y,z
4 1/2-x,1/2+y,-z
5 -x,-y,-z
6 x,-y,z
7 1/2-x,1/2-y,-z
8 1/2+x,1/2-y,z
_cell_length_a                   10.7383(12)
_cell_length_b                   15.1497(16)
_cell_length_c                   10.7339(11)
_cell_angle_alpha                90
_cell_angle_beta                 117.9710(10)
_cell_angle_gamma                90
_cell_volume                     1542.23
loop_
_atom_site_label
_atom_site_type_symbol
_atom_site_fract_x
_atom_site_fract_y
_atom_site_fract_z
Cu1 Cu 0.5000 0.60115(8) 0.5000
Cl1 Cl 0.6972(2) 0.5000 0.6057(2)
N1 N 0.5094(6) 0.6757(3) 0.6629(5)
N2 N 0.5000 0.8133(5) 1.0000
C1 C 0.4376(7) 0.7508(4) 0.6426(6)
H1 H 0.3888 0.7722 0.5509
C2 C 0.4307(7) 0.7989(4) 0.7483(6)
H2 H 0.3794 0.8511 0.7283
C3 C 0.5029(7) 0.7669(4) 0.8865(6)
C4 C 0.5771(7) 0.6894(4) 0.9087(6)
H3 H 0.6257 0.6660 0.9991
C5 C 0.5792(7) 0.6466(4) 0.7969(6)
H4 H 0.6316 0.5950 0.8146
C6 C 0.5000 0.9080(5) 1.0000
C7 C 0.5861(6) 0.9541(4) 0.9585(6)
H5 H 0.6440 0.9236 0.9306
N1A N 0.4906(6) 0.6757(3) 1.3371(5)
C1A C 0.5624(7) 0.7508(4) 1.3574(6)
H1A H 0.6112 0.7722 1.4491
C2A C 0.5693(7) 0.7989(4) 1.2517(6)
H2A H 0.6206 0.8511 1.2717
C3A C 0.4971(7) 0.7669(4) 1.1135(6)
C4A C 0.4229(7) 0.6894(4) 1.0913(6)
H3A H 0.3743 0.6660 1.0009
C5A C 0.4208(7) 0.6466(4) 1.2031(6)
H4A H 0.3684 0.5950 1.1854
C7A C 0.4139(6) 0.9541(4) 1.0415(6)
H5A H 0.3560 0.9236 1.0694
N1D N 0.4906(6) 1.3243(3) 1.3371(5)
N2D N 0.5000 1.1867(5) 1.0000
C1D C 0.5624(7) 1.2492(4) 1.3574(6)
H1D H 0.6112 1.2278 1.4491
C2D C 0.5693(7) 1.2011(4) 1.2517(6)
H2D H 0.6206 1.1489 1.2717
C3D C 0.4971(7) 1.2331(4) 1.1135(6)
C4D C 0.4229(7) 1.3106(4) 1.0913(6)
H3D H 0.3743 1.3340 1.0009
C5D C 0.4208(7) 1.3534(4) 1.2031(6)
H4D H 0.3684 1.4050 1.1854
C6D C 0.5000 1.0920(5) 1.0000
C7D C 0.4139(6) 1.0459(4) 1.0415(6)
H5D H 0.3560 1.0764 1.0694
N1E N 0.5094(6) 1.3243(3) 0.6629(5)
C1E C 0.4376(7) 1.2492(4) 0.6426(6)
H1E H 0.3888 1.2278 0.5509
C2E C 0.4307(7) 1.2011(4) 0.7483(6)
H2E H 0.3794 1.1489 0.7283
C3E C 0.5029(7) 1.2331(4) 0.8865(6)
C4E C 0.5771(7) 1.3106(4) 0.9087(6)
H3E H 0.6257 1.3340 0.9991
C5E C 0.5792(7) 1.3534(4) 0.7969(6)
H4E H 0.6316 1.4050 0.8146
C7E C 0.5861(6) 1.0459(4) 0.9585(6)
H5E H 0.6440 1.0764 0.9306
Cl1A Cl 0.3028(2) 0.5000 0.3943(2)
Cu1D Cu 0.5000 0.39885(8) 0.5000
Cu1_2 Cu 0.5000 0.60115(8) 1.5000
Cu1D_2 Cu 0.5000 1.39885(8) 0.5000
Cu1D_3 Cu 0.5000 1.39885(8) 1.5000
N1A_2 N 0.4906(6) 0.6757(3) 0.3371(5)
N1D_2 N 0.4906(6) 0.3243(3) 0.3371(5)
N1E_2 N 0.5094(6) 0.3243(3) 0.6629(5)
S1 S 0.6778(4) 0.5000 0.2496(4)
O1 O 0.6581(13) 0.5000 0.1007(12)
C8 C 0.7975(12) 0.5851(7) 0.3396(12)
H6 H 0.8833 0.5757 0.3342
H7 H 0.8175 0.5854 0.4366
H8 H 0.7572 0.6408 0.2971
C8E C 0.7975(12) 0.4149(7) 0.3396(12)
H6E H 0.8833 0.4243 0.3342
H7E H 0.8175 0.4146 0.4366
H8E H 0.7572 0.3592 0.2971
loop_
_geom_bond_atom_site_label_1
_geom_bond_atom_site_label_2
_geom_bond_site_symmetry_1
_geom_bond_site_symmetry_2
Cu1 Cl1 1_555 1_555
Cl1 Cu1D 1_555 1_555
N1 Cu1 1_555 1_555
N2 C3 1_555 1_555
C1 N1 1_555 1_555
H1 C1 1_555 1_555
C2 C1 1_555 1_555
H2 C2 1_555 1_555
C3 C2 1_555 1_555
C4 C3 1_555 1_555
H3 C4 1_555 1_555
C5 N1 1_555 1_555
H4 C5 1_555 1_555
C6 N2 1_555 1_555
C7 C6 1_555 1_555
H5 C7 1_555 1_555
S1 O1 1_555 1_555
C8 S1 1_555 1_555
H6 C8 1_555 1_555
H7 C8 1_555 1_555
H8 C8 1_555 1_555
N1A C1A 1_555 1_555
C1A H1A 1_555 1_555
C2A C1A 1_555 1_555
H2A C2A 1_555 1_555
C3A N2 1_555 1_555
C4A C3A 1_555 1_555
H3A C4A 1_555 1_555
C5A N1A 1_555 1_555
H4A C5A 1_555 1_555
C7A C6 1_555 1_555
H5A C7A 1_555 1_555
N1D C1D 1_555 1_555
N2D C3D 1_555 1_555
C1D H1D 1_555 1_555
C2D C1D 1_555 1_555
H2D C2D 1_555 1_555
C3D C2D 1_555 1_555
C4D C3D 1_555 1_555
H3D C4D 1_555 1_555
C5D N1D 1_555 1_555
H4D C5D 1_555 1_555
C6D N2D 1_555 1_555
C7D C7A 1_555 1_555
H5D C7D 1_555 1_555
N1E C1E 1_555 1_555
C1E H1E 1_555 1_555
C2E C1E 1_555 1_555
H2E C2E 1_555 1_555
C3E N2D 1_555 1_555
C4E C3E 1_555 1_555
H3E C4E 1_555 1_555
C5E N1E 1_555 1_555
H4E C5E 1_555 1_555
C7E C7 1_555 1_555
H5E C7E 1_555 1_555
Cl1A Cu1 1_555 1_555
Cu1D Cl1A 1_555 1_555
Cu1_2 N1A 1_555 1_555
Cu1D_2 N1E 1_555 1_555
Cu1D_3 N1D 1_555 1_555
N1A_2 Cu1 1_555 1_555
N1D_2 Cu1D 1_555 1_555
N1E_2 Cu1D 1_555 1_555
C8E S1 1_555 1_555
H6E C8E 1_555 1_555
H7E C8E 1_555 1_555
H8E C8E 1_555 1_555
C4 C5 1_555 1_555
C2A C3A 1_555 1_555
C4A C5A 1_555 1_555
C4D C5D 1_555 1_555
C6D C7D 1_555 1_555
C6D C7E 1_555 1_555
C2E C3E 1_555 1_555
C4E C5E 1_555 1_555

#END
