
#######################################################################
#
#                 Cambridge Crystallographic Data Centre
#                                CCDC 
#
#######################################################################
#
# If this CIF has been generated from an entry in the Cambridge 
# Structural Database, then it will include bibliographic, chemical, 
# crystal, experimental, refinement or atomic coordinate data resulting 
# from the CCDC's data processing and validation procedures.
#
#######################################################################

data_OFACIJ
_symmetry_cell_setting           monoclinic
_symmetry_space_group_name_H-M   'P 21/c'
_symmetry_Int_Tables_number      14
_space_group_name_Hall           '-P 2ybc'
loop_
_symmetry_equiv_pos_site_id
_symmetry_equiv_pos_as_xyz
1 x,y,z
2 -x,1/2+y,1/2-z
3 -x,-y,-z
4 x,1/2-y,1/2+z
_cell_length_a                   10.7980(11)
_cell_length_b                   9.0501(9)
_cell_length_c                   15.7801(15)
_cell_angle_alpha                90
_cell_angle_beta                 102.5500(10)
_cell_angle_gamma                90
_cell_volume                     1505.23
loop_
_atom_site_label
_atom_site_type_symbol
_atom_site_fract_x
_atom_site_fract_y
_atom_site_fract_z
Zn1 Zn 0.88533(11) 0.47409(16) 0.11142(9)
N1 N 0.4497(7) 0.4869(10) 0.3172(5)
N2 N 0.7503(8) 0.4884(10) 0.1843(6)
N3 N 0.0676(8) 0.4835(11) 0.1901(6)
O1 O 0.8395(10) 0.3046(11) 0.0348(7)
O2 O 0.9532(13) 0.1681(12) 0.1291(9)
O3 O 0.8958(8) 0.6518(11) 0.0452(7)
O4 O 0.6955(10) 0.6483(13) -0.0209(7)
C1 C 0.4767(10) 0.4908(12) 0.4098(7)
C2 C 0.5552(12) 0.3911(15) 0.4608(8)
H1 H 0.5942 0.3169 0.4352
C3 C 0.5763(12) 0.4008(15) 0.5498(8)
H2 H 0.6283 0.3312 0.5834
C4 C 0.7691(10) 0.5194(13) 0.2690(8)
H3 H 0.8518 0.5379 0.2988
C5 C 0.6728(9) 0.5259(11) 0.3161(7)
H4 H 0.6896 0.5525 0.3744
C6 C 0.5505(9) 0.4902(12) 0.2708(6)
C7 C 0.5285(8) 0.4583(13) 0.1828(7)
H5 H 0.4470 0.4352 0.1525
C8 C 0.6262(9) 0.4608(12) 0.1409(7)
H6 H 0.6093 0.4436 0.0814
C9 C 0.1488(10) 0.5823(13) 0.1664(7)
H7 H 0.1167 0.6509 0.1234
C10 C 0.2758(10) 0.5847(14) 0.2035(7)
H8 H 0.3300 0.6479 0.1825
C11 C 0.3225(10) 0.4909(12) 0.2731(7)
C12 C 0.2339(10) 0.3945(14) 0.2989(7)
H9 H 0.2604 0.3303 0.3454
C13 C 0.1118(10) 0.3957(14) 0.2564(8)
H10 H 0.0556 0.3315 0.2747
C14 C 0.8877(13) 0.186(2) 0.0551(10)
H11 H 0.8757 0.1088 0.0154
C15 C 0.7993(15) 0.6908(17) -0.0075(9)
H12 H 0.8122 0.7687 -0.0431
N1B N 0.5503(7) 0.5131(10) 0.6828(5)
N2B N 0.2497(8) 0.5116(10) 0.8157(6)
C1B C 0.5233(10) 0.5092(12) 0.5902(7)
C2B C 0.4448(12) 0.6089(15) 0.5392(8)
H1B H 0.4058 0.6831 0.5648
C3B C 0.4237(12) 0.5992(15) 0.4502(8)
H2B H 0.3717 0.6688 0.4166
C4B C 0.2309(10) 0.4806(13) 0.7310(8)
H3B H 0.1482 0.4621 0.7012
C5B C 0.3272(9) 0.4741(11) 0.6839(7)
H4B H 0.3104 0.4475 0.6256
C6B C 0.4495(9) 0.5098(12) 0.7292(6)
C7B C 0.4715(8) 0.5417(13) 0.8172(7)
H5B H 0.5530 0.5648 0.8475
C8B C 0.3738(9) 0.5392(12) 0.8591(7)
H6B H 0.3907 0.5564 0.9186
N3B N 0.9324(8) 0.5165(11) 0.8099(6)
C9B C 0.8512(10) 0.4177(13) 0.8336(7)
H7B H 0.8833 0.3491 0.8766
C10B C 0.7242(10) 0.4153(14) 0.7965(7)
H8B H 0.6700 0.3521 0.8175
C11B C 0.6775(10) 0.5091(12) 0.7269(7)
C12B C 0.7661(10) 0.6055(14) 0.7011(7)
H9B H 0.7396 0.6697 0.6546
C13B C 0.8882(10) 0.6043(14) 0.7436(8)
H10B H 0.9444 0.6685 0.7253
Zn1B Zn 0.11467(11) 0.52591(16) 0.88858(9)
O1B O 0.1605(10) 0.6954(11) 0.9652(7)
O2B O 0.0468(13) 0.8319(12) 0.8709(9)
O3B O 0.1042(8) 0.3482(11) 0.9548(7)
O4B O 0.3045(10) 0.3517(13) 1.0209(7)
C14B C 0.1123(13) 0.814(2) 0.9449(10)
H11B H 0.1243 0.8912 0.9846
C15B C 0.2007(15) 0.3092(17) 1.0075(9)
H12B H 0.1878 0.2313 1.0431
Zn1_2 Zn -0.11467(11) 0.47409(16) 0.11142(9)
Zn1B_2 Zn 1.11467(11) 0.52591(16) 0.88858(9)
N3_2 N 1.0676(8) 0.4835(11) 0.1901(6)
N3B_2 N -0.0676(8) 0.5165(11) 0.8099(6)
loop_
_geom_bond_atom_site_label_1
_geom_bond_atom_site_label_2
_geom_bond_site_symmetry_1
_geom_bond_site_symmetry_2
Zn1 N2 1_555 1_555
N1 C1 1_555 1_555
N2 C4 1_555 1_555
N3 C9 1_555 1_555
O1 Zn1 1_555 1_555
O2 C14 1_555 1_555
O3 Zn1 1_555 1_555
O4 C15 1_555 1_555
C1 C2 1_555 1_555
C2 H1 1_555 1_555
C3 C2 1_555 1_555
H2 C3 1_555 1_555
C4 H3 1_555 1_555
C5 C4 1_555 1_555
H4 C5 1_555 1_555
C6 N1 1_555 1_555
C7 C6 1_555 1_555
H5 C7 1_555 1_555
C8 N2 1_555 1_555
H6 C8 1_555 1_555
C9 H7 1_555 1_555
C10 C9 1_555 1_555
H8 C10 1_555 1_555
C11 N1 1_555 1_555
C12 C11 1_555 1_555
H9 C12 1_555 1_555
C13 N3 1_555 1_555
H10 C13 1_555 1_555
C14 O1 1_555 1_555
H11 C14 1_555 1_555
C15 O3 1_555 1_555
H12 C15 1_555 1_555
N1B C1B 1_555 1_555
N2B C4B 1_555 1_555
C1B C3 1_555 1_555
C2B C1B 1_555 1_555
H1B C2B 1_555 1_555
C3B C1 1_555 1_555
H2B C3B 1_555 1_555
C4B H3B 1_555 1_555
C5B C4B 1_555 1_555
H4B C5B 1_555 1_555
C6B N1B 1_555 1_555
C7B C6B 1_555 1_555
H5B C7B 1_555 1_555
C8B N2B 1_555 1_555
H6B C8B 1_555 1_555
N3B C9B 1_555 1_555
C9B H7B 1_555 1_555
C10B C9B 1_555 1_555
H8B C10B 1_555 1_555
C11B N1B 1_555 1_555
C12B C11B 1_555 1_555
H9B C12B 1_555 1_555
C13B N3B 1_555 1_555
H10B C13B 1_555 1_555
Zn1B N2B 1_555 1_555
O1B Zn1B 1_555 1_555
O2B C14B 1_555 1_555
O3B Zn1B 1_555 1_555
O4B C15B 1_555 1_555
C14B O1B 1_555 1_555
H11B C14B 1_555 1_555
C15B O3B 1_555 1_555
H12B C15B 1_555 1_555
Zn1_2 N3 1_555 1_555
Zn1B_2 N3B 1_555 1_555
N3_2 Zn1 1_555 1_555
N3B_2 Zn1B 1_555 1_555
C5 C6 1_555 1_555
C7 C8 1_555 1_555
C10 C11 1_555 1_555
C12 C13 1_555 1_555
C2B C3B 1_555 1_555
C5B C6B 1_555 1_555
C7B C8B 1_555 1_555
C10B C11B 1_555 1_555
C12B C13B 1_555 1_555

#END
