
#######################################################################
#
#                 Cambridge Crystallographic Data Centre
#                                CCDC 
#
#######################################################################
#
# If this CIF has been generated from an entry in the Cambridge 
# Structural Database, then it will include bibliographic, chemical, 
# crystal, experimental, refinement or atomic coordinate data resulting 
# from the CCDC's data processing and validation procedures.
#
#######################################################################

data_OFACOP
_symmetry_cell_setting           monoclinic
_symmetry_space_group_name_H-M   'P 21/m'
_symmetry_Int_Tables_number      11
_space_group_name_Hall           '-P 2yb'
loop_
_symmetry_equiv_pos_site_id
_symmetry_equiv_pos_as_xyz
1 x,y,z
2 -x,1/2+y,-z
3 -x,-y,-z
4 x,1/2-y,z
_cell_length_a                   11.1740(12)
_cell_length_b                   15.3189(17)
_cell_length_c                   15.2751(15)
_cell_angle_alpha                90
_cell_angle_beta                 93.7650(10)
_cell_angle_gamma                90
_cell_volume                     2609.05
loop_
_atom_site_label
_atom_site_type_symbol
_atom_site_fract_x
_atom_site_fract_y
_atom_site_fract_z
Ag1 Ag 0.12214(14) 0.63553(10) 0.38057(12)
N1 N 0.6215(12) 0.4318(9) 0.3707(9)
N2 N 0.2864(14) 0.5576(9) 0.3523(10)
N3 N 0.9544(14) 0.5553(10) 0.3954(10)
N4 N 0.149(2) 0.7500 0.271(2)
N5 N 0.149(2) 0.7500 0.200(3)
N6 N 0.137(3) 0.7500 0.122(2)
N7 N 0.081(2) 0.7500 0.4729(16)
N8 N 0.027(2) 0.7500 0.5334(18)
N9 N -0.027(3) 0.7500 0.5926(19)
C1 C 0.6207(15) 0.3395(12) 0.3702(11)
C2 C 0.6390(16) 0.2946(11) 0.4459(12)
H1 H 0.6517 0.3246 0.4986
C3 C 0.5953(16) 0.2941(11) 0.2933(12)
H2 H 0.5781 0.3243 0.2412
C4 C 0.3058(17) 0.4775(12) 0.3859(12)
H3 H 0.2414 0.4509 0.4108
C5 C 0.4071(16) 0.4324(12) 0.3872(12)
H4 H 0.4078 0.3734 0.4016
C6 C 0.5129(16) 0.4742(11) 0.3669(12)
C7 C 0.4935(15) 0.5575(10) 0.3299(11)
H5 H 0.5574 0.5872 0.3077
C8 C 0.3870(16) 0.5941(11) 0.3260(12)
H6 H 0.3808 0.6502 0.3029
C9 C 0.9341(18) 0.4701(13) 0.3685(13)
H7 H 1.0013 0.4391 0.3535
C10 C 0.8333(16) 0.4282(12) 0.3616(12)
H8 H 0.8323 0.3694 0.3466
C11 C 0.7265(16) 0.4708(12) 0.3766(11)
C12 C 0.7476(17) 0.5593(12) 0.4078(13)
H9 H 0.6835 0.5916 0.4265
C13 C 0.8556(17) 0.5957(13) 0.4105(13)
H10 H 0.8610 0.6547 0.4243
N1C N 0.6215(12) 0.0682(9) 0.3707(9)
N2C N 0.2864(14) -0.0576(9) 0.3523(10)
N3C N 0.9544(14) -0.0553(10) 0.3954(10)
C1C C 0.6207(15) 0.1605(12) 0.3702(11)
C2C C 0.6390(16) 0.2054(11) 0.4459(12)
H1C H 0.6517 0.1754 0.4986
C3C C 0.5953(16) 0.2059(11) 0.2933(12)
H2C H 0.5781 0.1757 0.2412
C4C C 0.3058(17) 0.0225(12) 0.3859(12)
H3C H 0.2414 0.0491 0.4108
C5C C 0.4071(16) 0.0676(12) 0.3872(12)
H4C H 0.4078 0.1266 0.4016
C6C C 0.5129(16) 0.0258(11) 0.3669(12)
C7C C 0.4935(15) -0.0575(10) 0.3299(11)
H5C H 0.5574 -0.0872 0.3077
C8C C 0.3870(16) -0.0941(11) 0.3260(12)
H6C H 0.3808 -0.1502 0.3029
C9C C 0.9341(18) 0.0299(13) 0.3685(13)
H7C H 1.0013 0.0609 0.3535
C10C C 0.8333(16) 0.0718(12) 0.3616(12)
H8C H 0.8323 0.1306 0.3466
C11C C 0.7265(16) 0.0292(12) 0.3766(11)
C12C C 0.7476(17) -0.0593(12) 0.4078(13)
H9C H 0.6835 -0.0916 0.4265
C13C C 0.8556(17) -0.0957(13) 0.4105(13)
H10C H 0.8610 -0.1547 0.4243
Ag1C Ag 0.12214(14) -0.13553(10) 0.38057(12)
Ag1_2 Ag 1.12214(14) 0.63553(10) 0.38057(12)
Ag1C_2 Ag 0.12214(14) 0.86447(10) 0.38057(12)
Ag1C_3 Ag 1.12214(14) -0.13553(10) 0.38057(12)
N3_2 N -0.0456(14) 0.5553(10) 0.3954(10)
N3C_2 N -0.0456(14) -0.0553(10) 0.3954(10)
N4_2 N 0.149(2) -0.2500 0.271(2)
N7_2 N 0.081(2) -0.2500 0.4729(16)
Ag2 Ag 0.64472(13) 0.63572(10) 0.13034(11)
N10 N 0.1450(12) 0.4320(9) 0.1308(9)
N11 N 0.4751(13) 0.5536(9) 0.1072(10)
N12 N -0.1843(12) 0.5594(8) 0.1481(10)
N13 N 0.662(3) 0.7500 0.239(2)
N14 N 0.644(2) 0.7500 0.305(3)
N15 N 0.617(2) 0.7500 0.3845(19)
N16 N 0.600(2) 0.7500 0.0335(16)
N17 N 0.526(2) 0.7500 -0.0272(18)
N18 N 0.453(3) 0.7500 -0.082(2)
C14 C 0.1399(15) 0.3395(11) 0.1311(12)
C15 C 0.1314(16) 0.2942(11) 0.2084(13)
H11 H 0.1256 0.3245 0.2607
C16 C 0.1554(16) 0.2951(11) 0.0532(13)
H12 H 0.1656 0.3258 0.0017
C17 C 0.4647(16) 0.4704(11) 0.1285(12)
H13 H 0.5352 0.4387 0.1388
C18 C 0.3593(15) 0.4271(11) 0.1365(11)
H14 H 0.3584 0.3681 0.1505
C19 C 0.2547(16) 0.4735(11) 0.1233(12)
C20 C 0.2633(17) 0.5587(11) 0.0969(12)
H15 H 0.1947 0.5915 0.0829
C21 C 0.3750(16) 0.5944(12) 0.0915(13)
H16 H 0.3789 0.6527 0.0751
C22 C -0.0828(15) 0.5975(12) 0.1752(12)
H17 H -0.0848 0.6538 0.1979
C23 C 0.0240(16) 0.5572(10) 0.1710(12)
H18 H 0.0928 0.5847 0.1949
C24 C 0.0344(16) 0.4766(11) 0.1325(12)
C25 C -0.0677(15) 0.4348(11) 0.1097(12)
H19 H -0.0673 0.3774 0.0898
C26 C -0.1737(17) 0.4795(11) 0.1164(12)
H20 H -0.2440 0.4511 0.0970
N10C N 0.1450(12) 0.0680(9) 0.1308(9)
N11C N 0.4751(13) -0.0536(9) 0.1072(10)
N12C N -0.1843(12) -0.0594(8) 0.1481(10)
C14C C 0.1399(15) 0.1605(11) 0.1311(12)
C15C C 0.1314(16) 0.2058(11) 0.2084(13)
H11C H 0.1256 0.1755 0.2607
C16C C 0.1554(16) 0.2049(11) 0.0532(13)
H12C H 0.1656 0.1742 0.0017
C17C C 0.4647(16) 0.0296(11) 0.1285(12)
H13C H 0.5352 0.0613 0.1388
C18C C 0.3593(15) 0.0729(11) 0.1365(11)
H14C H 0.3584 0.1319 0.1505
C19C C 0.2547(16) 0.0265(11) 0.1233(12)
C20C C 0.2633(17) -0.0587(11) 0.0969(12)
H15C H 0.1947 -0.0915 0.0829
C21C C 0.3750(16) -0.0944(12) 0.0915(13)
H16C H 0.3789 -0.1527 0.0751
C22C C -0.0828(15) -0.0975(12) 0.1752(12)
H17C H -0.0848 -0.1538 0.1979
C23C C 0.0240(16) -0.0572(10) 0.1710(12)
H18C H 0.0928 -0.0847 0.1949
C24C C 0.0344(16) 0.0234(11) 0.1325(12)
C25C C -0.0677(15) 0.0652(11) 0.1097(12)
H19C H -0.0673 0.1226 0.0898
C26C C -0.1737(17) 0.0205(11) 0.1164(12)
H20C H -0.2440 0.0489 0.0970
Ag2C Ag 0.64472(13) -0.13572(10) 0.13034(11)
Ag2_2 Ag -0.35528(13) 0.63572(10) 0.13034(11)
Ag2C_2 Ag -0.35528(13) -0.13572(10) 0.13034(11)
Ag2C_3 Ag 0.64472(13) 0.86428(10) 0.13034(11)
N12_2 N 0.8157(12) 0.5594(8) 0.1481(10)
N12C_2 N 0.8157(12) -0.0594(8) 0.1481(10)
N13_2 N 0.662(3) -0.2500 0.239(2)
N16_2 N 0.600(2) -0.2500 0.0335(16)
O1 O 0.715(2) 0.7500 0.5640(15)
H21 H 0.7917 0.7500 0.5685
H22 H 0.6924 0.7500 0.5098
O2 O 0.197(2) 0.7500 0.9419(18)
H23 H 0.1822 0.7500 0.9959
H24 H 0.2721 0.7500 0.9382
loop_
_geom_bond_atom_site_label_1
_geom_bond_atom_site_label_2
_geom_bond_site_symmetry_1
_geom_bond_site_symmetry_2
Ag1 N2 1_555 1_555
N1 C1 1_555 1_555
N2 C4 1_555 1_555
N3 C9 1_555 1_555
N4 Ag1 1_555 1_555
N5 N4 1_555 1_555
N6 N5 1_555 1_555
N7 Ag1 1_555 1_555
N8 N7 1_555 1_555
N9 N8 1_555 1_555
C1 C2 1_555 1_555
C2 H1 1_555 1_555
C3 C1 1_555 1_555
H2 C3 1_555 1_555
C4 H3 1_555 1_555
C5 C4 1_555 1_555
H4 C5 1_555 1_555
C6 N1 1_555 1_555
C7 C6 1_555 1_555
H5 C7 1_555 1_555
C8 N2 1_555 1_555
H6 C8 1_555 1_555
C9 H7 1_555 1_555
C10 C9 1_555 1_555
H8 C10 1_555 1_555
C11 N1 1_555 1_555
C12 C11 1_555 1_555
H9 C12 1_555 1_555
C13 N3 1_555 1_555
H10 C13 1_555 1_555
Ag2 N11 1_555 1_555
N10 C14 1_555 1_555
N11 C17 1_555 1_555
N12 C22 1_555 1_555
N13 Ag2 1_555 1_555
N14 N13 1_555 1_555
N15 N14 1_555 1_555
N16 Ag2 1_555 1_555
N17 N16 1_555 1_555
N18 N17 1_555 1_555
C14 C15 1_555 1_555
C15 H11 1_555 1_555
C16 C14 1_555 1_555
H12 C16 1_555 1_555
C17 H13 1_555 1_555
C18 C17 1_555 1_555
H14 C18 1_555 1_555
C19 N10 1_555 1_555
C20 C19 1_555 1_555
H15 C20 1_555 1_555
C21 N11 1_555 1_555
H16 C21 1_555 1_555
C22 H17 1_555 1_555
C23 C22 1_555 1_555
H18 C23 1_555 1_555
C24 N10 1_555 1_555
C25 C24 1_555 1_555
H19 C25 1_555 1_555
C26 N12 1_555 1_555
H20 C26 1_555 1_555
O1 H21 1_555 1_555
H22 O1 1_555 1_555
O2 H23 1_555 1_555
H24 O2 1_555 1_555
N1C C1C 1_555 1_555
N2C C4C 1_555 1_555
N3C C9C 1_555 1_555
C1C C2C 1_555 1_555
C2C C2 1_555 1_555
H1C C2C 1_555 1_555
C3C C3 1_555 1_555
H2C C3C 1_555 1_555
C4C H3C 1_555 1_555
C5C C4C 1_555 1_555
H4C C5C 1_555 1_555
C6C N1C 1_555 1_555
C7C C6C 1_555 1_555
H5C C7C 1_555 1_555
C8C N2C 1_555 1_555
H6C C8C 1_555 1_555
C9C H7C 1_555 1_555
C10C C9C 1_555 1_555
H8C C10C 1_555 1_555
C11C N1C 1_555 1_555
C12C C11C 1_555 1_555
H9C C12C 1_555 1_555
C13C N3C 1_555 1_555
H10C C13C 1_555 1_555
Ag1C N2C 1_555 1_555
Ag1_2 N3 1_555 1_555
Ag1C_2 N4 1_555 1_555
Ag1C_3 N3C 1_555 1_555
N3_2 Ag1 1_555 1_555
N3C_2 Ag1C 1_555 1_555
N4_2 Ag1C 1_555 1_555
N7_2 Ag1C 1_555 1_555
N10C C14C 1_555 1_555
N11C C17C 1_555 1_555
N12C C22C 1_555 1_555
C14C C15C 1_555 1_555
C15C C15 1_555 1_555
H11C C15C 1_555 1_555
C16C C16 1_555 1_555
H12C C16C 1_555 1_555
C17C H13C 1_555 1_555
C18C C17C 1_555 1_555
H14C C18C 1_555 1_555
C19C N10C 1_555 1_555
C20C C19C 1_555 1_555
H15C C20C 1_555 1_555
C21C N11C 1_555 1_555
H16C C21C 1_555 1_555
C22C H17C 1_555 1_555
C23C C22C 1_555 1_555
H18C C23C 1_555 1_555
C24C N10C 1_555 1_555
C25C C24C 1_555 1_555
H19C C25C 1_555 1_555
C26C N12C 1_555 1_555
H20C C26C 1_555 1_555
Ag2C N11C 1_555 1_555
Ag2_2 N12 1_555 1_555
Ag2C_2 N12C 1_555 1_555
Ag2C_3 N13 1_555 1_555
N12_2 Ag2 1_555 1_555
N12C_2 Ag2C 1_555 1_555
N13_2 Ag2C 1_555 1_555
N16_2 Ag2C 1_555 1_555
N7 Ag1C_2 1_555 1_555
C5 C6 1_555 1_555
C7 C8 1_555 1_555
C10 C11 1_555 1_555
C12 C13 1_555 1_555
N16 Ag2C_3 1_555 1_555
C18 C19 1_555 1_555
C20 C21 1_555 1_555
C23 C24 1_555 1_555
C25 C26 1_555 1_555
C1C C3C 1_555 1_555
C5C C6C 1_555 1_555
C7C C8C 1_555 1_555
C10C C11C 1_555 1_555
C12C C13C 1_555 1_555
C14C C16C 1_555 1_555
C18C C19C 1_555 1_555
C20C C21C 1_555 1_555
C23C C24C 1_555 1_555
C25C C26C 1_555 1_555

#END
