
#######################################################################
#
#                 Cambridge Crystallographic Data Centre
#                                CCDC 
#
#######################################################################
#
# If this CIF has been generated from an entry in the Cambridge 
# Structural Database, then it will include bibliographic, chemical, 
# crystal, experimental, refinement or atomic coordinate data resulting 
# from the CCDC's data processing and validation procedures.
#
#######################################################################

data_OFADOP
_symmetry_cell_setting           triclinic
_symmetry_space_group_name_H-M   'P -1'
_symmetry_Int_Tables_number      2
_space_group_name_Hall           '-P 1'
loop_
_symmetry_equiv_pos_site_id
_symmetry_equiv_pos_as_xyz
1 x,y,z
2 -x,-y,-z
_cell_length_a                   8.165(19)
_cell_length_b                   13.47(4)
_cell_length_c                   17.07(4)
_cell_angle_alpha                105.15(5)
_cell_angle_beta                 96.71(4)
_cell_angle_gamma                107.36(4)
_cell_volume                     1690.49
loop_
_atom_site_label
_atom_site_type_symbol
_atom_site_fract_x
_atom_site_fract_y
_atom_site_fract_z
Sn1 Sn 0.93916(12) 0.46912(10) 0.21965(6)
Br1 Br 0.13454(19) 0.28969(18) 0.44609(12)
Br2 Br 0.1708(2) 0.26084(17) -0.01662(11)
N1 N 0.6602(14) 0.3980(10) 0.5407(7)
N2 N 0.6975(15) 0.4218(10) 0.0766(7)
O1 O 0.8846(11) 0.4553(8) 0.3422(5)
O2 O 0.6228(12) 0.3940(8) 0.2598(6)
O3 O 0.8804(11) 0.4819(8) -0.1284(5)
O4 O 0.6125(12) 0.4152(9) -0.2054(7)
O5 O 1.1935(11) 0.5110(9) 0.2950(6)
C1 C 0.721(2) 0.4103(14) 0.3310(9)
C2 C 0.7307(16) 0.4108(11) 0.4734(8)
H1 H 0.8520 0.4326 0.4796
C3 C 0.6318(17) 0.3933(12) 0.3984(8)
C4 C 0.4566(18) 0.3604(12) 0.3866(9)
H2 H 0.3871 0.3512 0.3363
C5 C 0.3829(15) 0.3405(12) 0.4529(9)
C6 C 0.4885(19) 0.3600(11) 0.5280(8)
H3 H 0.4363 0.3458 0.5714
C7 C 0.717(2) 0.4384(14) -0.1374(9)
C8 C 0.7532(17) 0.4430(11) 0.0119(9)
H4 H 0.8723 0.4810 0.0190
C9 C 0.6492(18) 0.4134(12) -0.0659(9)
C10 C 0.4720(17) 0.3584(11) -0.0747(8)
H5 H 0.3957 0.3359 -0.1259
C11 C 0.4080(18) 0.3367(11) -0.0050(9)
C12 C 0.5291(19) 0.3683(13) 0.0677(9)
H6 H 0.4901 0.3511 0.1131
C13 C 0.903(3) 0.6142(14) 0.2384(14)
H7 H 0.9122 0.6346 0.1882
H8 H 0.7833 0.6038 0.2457
C14 C 1.022(3) 0.7074(17) 0.3090(14)
H9 H 1.1416 0.7113 0.3069
H10 H 0.9984 0.6931 0.3601
C15 C 1.007(3) 0.8197(14) 0.3121(15)
H11 H 1.1083 0.8768 0.3510
H12 H 1.0095 0.8290 0.2577
C16 C 0.845(3) 0.8330(15) 0.3371(16)
H13 H 0.8334 0.8116 0.3867
H14 H 0.7452 0.7835 0.2935
C17 C 0.841(3) 0.9497(16) 0.3542(17)
H15 H 0.9401 1.0000 0.3981
H16 H 0.8507 0.9716 0.3047
C18 C 0.674(3) 0.9556(16) 0.3794(17)
H17 H 0.6599 0.9285 0.4264
H18 H 0.5752 0.9092 0.3339
C19 C 0.673(3) 1.0741(16) 0.4029(17)
H19 H 0.7428 1.1145 0.4586
H20 H 0.7260 1.1098 0.3650
C20 C 0.490(3) 1.0753(18) 0.3993(17)
H21 H 0.4882 1.1457 0.3981
H22 H 0.4510 1.0611 0.4474
H23 H 0.4143 1.0198 0.3502
C21 C 0.899(3) 0.3058(14) 0.1631(12)
H24 H 0.7763 0.2643 0.1578
H25 H 0.9201 0.2972 0.1074
C22 C 1.007(3) 0.2568(15) 0.2050(13)
H26 H 0.9965 0.2734 0.2627
H27 H 1.1285 0.2927 0.2043
C23 C 0.964(2) 0.1339(15) 0.1698(14)
H28 H 0.8651 0.0961 0.1896
H29 H 0.9322 0.1118 0.1097
C24 C 1.119(3) 0.1019(18) 0.1949(13)
H30 H 1.2174 0.1686 0.2232
H31 H 1.0909 0.0635 0.2350
C25 C 1.176(3) 0.0336(17) 0.1299(13)
H32 H 1.1720 0.0600 0.0822
H33 H 1.0930 -0.0406 0.1126
C26 C 1.356(3) 0.0303(17) 0.1535(14)
H34 H 1.3943 0.0593 0.2134
H35 H 1.4362 0.0771 0.1298
C27 C 1.363(3) -0.0846(18) 0.1243(15)
H36 H 1.2477 -0.1388 0.1141
H37 H 1.4417 -0.0957 0.1659
C28 C 1.433(3) -0.0944(18) 0.0432(14)
H38 H 1.4409 -0.1659 0.0225
H39 H 1.5471 -0.0398 0.0543
H40 H 1.3540 -0.0835 0.0027
H41 H 1.207(2) 0.501(3) 0.3395(11)
H42 H 1.280(3) 0.562(4) 0.2908(17)
Sn1A Sn 1.06084(12) 0.53088(10) -0.21965(6)
O3A O 1.1196(11) 0.5181(8) 0.1284(5)
loop_
_geom_bond_atom_site_label_1
_geom_bond_atom_site_label_2
_geom_bond_site_symmetry_1
_geom_bond_site_symmetry_2
Sn1 N2 1_555 1_555
Br1 C5 1_555 1_555
Br2 C11 1_555 1_555
N1 C2 1_555 1_555
N2 C8 1_555 1_555
O1 Sn1 1_555 1_555
O2 Sn1 1_555 1_555
O3 C7 1_555 1_555
O4 C7 1_555 1_555
O5 Sn1 1_555 1_555
C1 O1 1_555 1_555
C2 H1 1_555 1_555
C3 C1 1_555 1_555
C4 C3 1_555 1_555
H2 C4 1_555 1_555
C5 C4 1_555 1_555
C6 N1 1_555 1_555
H3 C6 1_555 1_555
C7 C9 1_555 1_555
C8 H4 1_555 1_555
C9 C8 1_555 1_555
C10 C9 1_555 1_555
H5 C10 1_555 1_555
C11 C10 1_555 1_555
C12 N2 1_555 1_555
H6 C12 1_555 1_555
C13 Sn1 1_555 1_555
H7 C13 1_555 1_555
H8 C13 1_555 1_555
C14 C13 1_555 1_555
H9 C14 1_555 1_555
H10 C14 1_555 1_555
C15 C14 1_555 1_555
H11 C15 1_555 1_555
H12 C15 1_555 1_555
C16 C15 1_555 1_555
H13 C16 1_555 1_555
H14 C16 1_555 1_555
C17 C16 1_555 1_555
H15 C17 1_555 1_555
H16 C17 1_555 1_555
C18 C17 1_555 1_555
H17 C18 1_555 1_555
H18 C18 1_555 1_555
C19 C18 1_555 1_555
H19 C19 1_555 1_555
H20 C19 1_555 1_555
C20 C19 1_555 1_555
H21 C20 1_555 1_555
H22 C20 1_555 1_555
H23 C20 1_555 1_555
C21 Sn1 1_555 1_555
H24 C21 1_555 1_555
H25 C21 1_555 1_555
C22 C21 1_555 1_555
H26 C22 1_555 1_555
H27 C22 1_555 1_555
C23 C22 1_555 1_555
H28 C23 1_555 1_555
H29 C23 1_555 1_555
C24 C23 1_555 1_555
H30 C24 1_555 1_555
H31 C24 1_555 1_555
C25 C24 1_555 1_555
H32 C25 1_555 1_555
H33 C25 1_555 1_555
C26 C25 1_555 1_555
H34 C26 1_555 1_555
H35 C26 1_555 1_555
C27 C26 1_555 1_555
H36 C27 1_555 1_555
H37 C27 1_555 1_555
C28 C27 1_555 1_555
H38 C28 1_555 1_555
H39 C28 1_555 1_555
H40 C28 1_555 1_555
H41 O5 1_555 1_555
H42 O5 1_555 1_555
Sn1A O3 1_555 1_555
O3A Sn1 1_555 1_555
O2 C1 1_555 1_555
C2 C3 1_555 1_555
C5 C6 1_555 1_555
C11 C12 1_555 1_555

#END
