
#######################################################################
#
#                 Cambridge Crystallographic Data Centre
#                                CCDC 
#
#######################################################################
#
# If this CIF has been generated from an entry in the Cambridge 
# Structural Database, then it will include bibliographic, chemical, 
# crystal, experimental, refinement or atomic coordinate data resulting 
# from the CCDC's data processing and validation procedures.
#
#######################################################################

data_OFADAB
_symmetry_cell_setting           monoclinic
_symmetry_space_group_name_H-M   'C 2/c'
_symmetry_Int_Tables_number      15
_space_group_name_Hall           '-C 2yn'
loop_
_symmetry_equiv_pos_site_id
_symmetry_equiv_pos_as_xyz
1 x,y,z
2 1/2+x,1/2+y,z
3 -x,y,1/2-z
4 1/2-x,1/2+y,1/2-z
5 -x,-y,-z
6 1/2-x,1/2-y,-z
7 x,-y,1/2+z
8 1/2+x,1/2-y,1/2+z
_cell_length_a                   25.878(10)
_cell_length_b                   10.267(4)
_cell_length_c                   17.084(7)
_cell_angle_alpha                90
_cell_angle_beta                 129.229(6)
_cell_angle_gamma                90
_cell_volume                     3516.05
loop_
_atom_site_label
_atom_site_type_symbol
_atom_site_fract_x
_atom_site_fract_y
_atom_site_fract_z
Cu1 Cu 0.17423(4) 1.09506(8) 0.38950(7)
O1 O 0.1705(3) 0.8985(5) 0.3948(4)
O2 O 0.0753(3) 0.9537(5) 0.2465(4)
O3 O 0.2171(2) 0.4116(5) 0.4667(4)
O4 O 0.1458(2) 0.2758(4) 0.3409(4)
O5 O -0.0621(4) 0.4357(7) 0.0385(6)
O6 O -0.0780(3) 0.6350(7) 0.0073(5)
N1 N 0.1341(3) 1.1154(6) 0.4579(4)
N2 N 0.2038(3) 1.0822(6) 0.3044(4)
N3 N -0.0451(4) 0.5451(8) 0.0617(6)
C1 C 0.1142(4) 0.8710(7) 0.3097(6)
C2 C 0.0961(3) 0.7284(7) 0.2845(5)
C3 C 0.1369(3) 0.6265(6) 0.3460(5)
H1 H 0.1774 0.6444 0.4091
C4 C 0.1185(3) 0.4976(6) 0.3154(5)
C5 C 0.1651(3) 0.3861(6) 0.3812(5)
C6 C 0.0588(4) 0.4705(7) 0.2225(5)
H2 H 0.0459 0.3849 0.2008
C7 C 0.0187(3) 0.5717(7) 0.1626(5)
C8 C 0.0352(4) 0.7005(7) 0.1910(5)
H3 H 0.0064 0.7670 0.1485
C9 C 0.0715(4) 1.0768(9) 0.4126(6)
H4 H 0.0472 1.0386 0.3491
C10 C 0.0420(4) 1.0909(10) 0.4550(7)
H5 H -0.0016 1.0624 0.4202
C11 C 0.0750(5) 1.1460(9) 0.5477(7)
H6 H 0.0556 1.1544 0.5783
C12 C 0.1389(5) 1.1888(8) 0.5938(6)
H7 H 0.1637 1.2287 0.6568
C13 C 0.1655(4) 1.1726(7) 0.5472(6)
H8 H 0.2085 1.2034 0.5797
C14 C 0.1682(4) 1.1433(7) 0.2146(6)
H9 H 0.1300 1.1889 0.1925
C15 C 0.1861(5) 1.1406(8) 0.1547(7)
H10 H 0.1603 1.1828 0.0925
C16 C 0.2436(5) 1.0738(9) 0.1879(7)
H11 H 0.2572 1.0716 0.1489
C17 C 0.2797(4) 1.0115(8) 0.2792(7)
H12 H 0.3183 0.9662 0.3032
C18 C 0.2582(4) 1.0165(7) 0.3360(6)
H13 H 0.2825 0.9728 0.3975
Cu1E Cu 0.32577(4) 0.40494(8) 0.61050(7)
Cu1_2 Cu 0.17423(4) 0.09506(8) 0.38950(7)
O3E O 0.2829(2) 1.0884(5) 0.5333(4)
O4_2 O 0.1458(2) 1.2758(4) 0.3409(4)
loop_
_geom_bond_atom_site_label_1
_geom_bond_atom_site_label_2
_geom_bond_site_symmetry_1
_geom_bond_site_symmetry_2
Cu1 O1 1_555 1_555
O1 C1 1_555 1_555
O2 Cu1 1_555 1_555
O3 C5 1_555 1_555
O4 C5 1_555 1_555
O5 N3 1_555 1_555
O6 N3 1_555 1_555
N1 Cu1 1_555 1_555
N2 Cu1 1_555 1_555
N3 C7 1_555 1_555
C1 O2 1_555 1_555
C2 C1 1_555 1_555
C3 C2 1_555 1_555
H1 C3 1_555 1_555
C4 C3 1_555 1_555
C5 C4 1_555 1_555
C6 C4 1_555 1_555
H2 C6 1_555 1_555
C7 C6 1_555 1_555
C8 C2 1_555 1_555
H3 C8 1_555 1_555
C9 N1 1_555 1_555
H4 C9 1_555 1_555
C10 C9 1_555 1_555
H5 C10 1_555 1_555
C11 C10 1_555 1_555
H6 C11 1_555 1_555
C12 C11 1_555 1_555
H7 C12 1_555 1_555
C13 N1 1_555 1_555
H8 C13 1_555 1_555
C14 N2 1_555 1_555
H9 C14 1_555 1_555
C15 C14 1_555 1_555
H10 C15 1_555 1_555
C16 C15 1_555 1_555
H11 C16 1_555 1_555
C17 C16 1_555 1_555
H12 C17 1_555 1_555
C18 N2 1_555 1_555
H13 C18 1_555 1_555
Cu1E O3 1_555 1_555
Cu1_2 O4 1_555 1_555
O3E Cu1 1_555 1_555
O4_2 Cu1 1_555 1_555
C7 C8 1_555 1_555
C12 C13 1_555 1_555
C17 C18 1_555 1_555

#END
