
#######################################################################
#
#                 Cambridge Crystallographic Data Centre
#                                CCDC 
#
#######################################################################
#
# If this CIF has been generated from an entry in the Cambridge 
# Structural Database, then it will include bibliographic, chemical, 
# crystal, experimental, refinement or atomic coordinate data resulting 
# from the CCDC's data processing and validation procedures.
#
#######################################################################

data_OFAKUD
_symmetry_cell_setting           triclinic
_symmetry_space_group_name_H-M   'P -1'
_symmetry_Int_Tables_number      2
_space_group_name_Hall           '-P 1'
loop_
_symmetry_equiv_pos_site_id
_symmetry_equiv_pos_as_xyz
1 x,y,z
2 -x,-y,-z
_cell_length_a                   9.866(3)
_cell_length_b                   13.553(4)
_cell_length_c                   15.633(5)
_cell_angle_alpha                74.973(6)
_cell_angle_beta                 86.548(6)
_cell_angle_gamma                74.765(5)
_cell_volume                     1947.85
loop_
_atom_site_label
_atom_site_type_symbol
_atom_site_fract_x
_atom_site_fract_y
_atom_site_fract_z
Ag1 Ag 0.53901(3) 0.939382(16) 0.850555(16)
Ag2 Ag 0.51249(3) 1.055518(16) 0.647586(16)
O1 O 0.7522(3) 0.42621(18) 0.86585(19)
O2 O 0.7997(2) 0.64494(16) 1.21746(14)
O3 O 0.8458(3) 0.64095(17) 0.69750(16)
O4 O 0.7059(3) 0.43563(17) 0.35662(17)
N1 N 0.5224(2) 0.78506(17) 0.83481(15)
N2 N 0.7412(2) 0.56217(16) 1.03052(15)
N3 N 0.4944(2) 0.91340(17) 1.10399(15)
N4 N 0.5258(3) 0.90905(18) 0.61043(15)
N5 N 0.7349(2) 0.56489(16) 0.52075(15)
N6 N 0.4783(2) 0.79187(16) 0.33588(14)
C1 C 0.4067(3) 0.7747(2) 0.80084(19)
H1 H 0.3352 0.8352 0.7795
C2 C 0.3884(3) 0.6797(3) 0.7959(2)
H2 H 0.3072 0.6762 0.7708
C3 C 0.4929(3) 0.5890(2) 0.82913(19)
H3 H 0.4830 0.5234 0.8266
C4 C 0.6131(3) 0.5970(2) 0.86635(18)
C5 C 0.6237(3) 0.69705(19) 0.86677(17)
H4 H 0.7045 0.7033 0.8902
C6 C 0.7244(3) 0.4970(2) 0.9031(2)
C7 C 0.7922(3) 0.4853(2) 0.98966(19)
C8 C 0.8993(3) 0.3957(2) 1.0264(2)
H5 H 0.9337 0.3434 0.9964
C9 C 0.9522(3) 0.3872(2) 1.1079(2)
H6 H 1.0228 0.3282 1.1341
C10 C 0.9007(3) 0.4658(2) 1.1508(2)
H7 H 0.9355 0.4609 1.2062
C11 C 0.7946(3) 0.55320(19) 1.10903(19)
C12 C 0.7398(3) 0.6428(2) 1.15229(18)
C13 C 0.6131(3) 0.7311(2) 1.11481(17)
C14 C 0.5026(3) 0.7205(2) 1.07020(19)
H8 H 0.5039 0.6559 1.0593
C15 C 0.3898(3) 0.8079(2) 1.0420(2)
H9 H 0.3149 0.8030 1.0114
C16 C 0.3909(3) 0.9018(2) 1.06001(18)
H10 H 0.3153 0.9600 1.0405
C17 C 0.6046(3) 0.8287(2) 1.13078(18)
H11 H 0.6780 0.8360 1.1613
C18 C 0.4096(3) 0.8979(2) 0.57757(19)
H12 H 0.3322 0.9560 0.5644
C19 C 0.3999(3) 0.8046(2) 0.56257(19)
H13 H 0.3173 0.7994 0.5405
C20 C 0.5164(3) 0.7178(2) 0.58106(19)
H14 H 0.5128 0.6537 0.5713
C21 C 0.6380(3) 0.72809(19) 0.61418(17)
C22 C 0.6376(3) 0.8253(2) 0.62793(18)
H15 H 0.7187 0.8327 0.6503
C23 C 0.7687(3) 0.6400(2) 0.64073(18)
C24 C 0.8058(3) 0.5516(2) 0.59469(18)
C25 C 0.9140(3) 0.4609(2) 0.6284(2)
H16 H 0.9607 0.4529 0.6807
C26 C 0.9492(3) 0.3842(2) 0.5825(2)
H17 H 1.0208 0.3235 0.6035
C27 C 0.8782(3) 0.3974(2) 0.5050(2)
H18 H 0.9014 0.3466 0.4727
C28 C 0.7707(3) 0.48936(19) 0.47686(19)
C29 C 0.6867(3) 0.5052(2) 0.3951(2)
C30 C 0.5724(3) 0.6049(2) 0.36342(17)
C31 C 0.4558(3) 0.5978(2) 0.32208(19)
H19 H 0.4487 0.5326 0.3168
C32 C 0.3510(3) 0.6876(2) 0.2890(2)
H20 H 0.2719 0.6839 0.2617
C33 C 0.3659(3) 0.7824(2) 0.29733(19)
H21 H 0.2948 0.8430 0.2753
C34 C 0.5803(3) 0.70446(19) 0.36750(17)
H22 H 0.6594 0.7106 0.3931
C35 C -0.1471(4) 0.9138(3) 0.8280(3)
C36 C 0.0091(3) 0.9243(2) 0.8234(2)
C37 C 0.0229(3) 1.0295(2) 0.8393(2)
C38 C 0.0578(3) 1.1107(2) 0.7587(2)
C39 C 0.2020(3) 1.0845(2) 0.7121(2)
O5 O -0.1809(3) 0.8610(2) 0.8987(2)
O6 O -0.2173(3) 0.9616(2) 0.7604(2)
O7 O 0.2057(3) 1.1330(2) 0.63338(18)
O8 O 0.2974(2) 1.02223(18) 0.75934(17)
F1 F 0.0907(2) 0.84366(16) 0.88236(19)
F2 F 0.0636(2) 0.91736(16) 0.74283(16)
F3 F 0.1204(3) 1.0097(2) 0.90287(15)
F4 F -0.1017(2) 1.07725(17) 0.87097(16)
F5 F -0.04811(19) 1.13632(15) 0.69929(14)
F6 F 0.0497(2) 1.19946(15) 0.78581(17)
Ag1A Ag 0.46099(3) 1.060618(16) 1.149445(16)
Ag2A Ag 0.48751(3) 0.944482(16) 0.352414(16)
N3A N 0.5056(2) 1.08660(17) 0.89601(15)
N6A N 0.5217(2) 1.20813(16) 0.66412(14)
O9 O 0.1625(3) 0.9870(3) 0.4202(3)
H23 H 0.1218 0.9339 0.4417
H24 H 0.1683 1.0126 0.3611
O10 O 0.0137(4) 1.1471(2) 0.4981(2)
H25 H 0.0611 1.0969 0.4725
H26 H 0.0751 1.1447 0.5385
loop_
_geom_bond_atom_site_label_1
_geom_bond_atom_site_label_2
_geom_bond_site_symmetry_1
_geom_bond_site_symmetry_2
Ag1 Ag2 1_555 1_555
Ag2 N4 1_555 1_555
O1 C6 1_555 1_555
O2 C12 1_555 1_555
O3 C23 1_555 1_555
O4 C29 1_555 1_555
N1 Ag1 1_555 1_555
N2 C7 1_555 1_555
N3 C16 1_555 1_555
N4 C18 1_555 1_555
N5 C24 1_555 1_555
N6 C33 1_555 1_555
C1 N1 1_555 1_555
H1 C1 1_555 1_555
C2 C1 1_555 1_555
H2 C2 1_555 1_555
C3 C2 1_555 1_555
H3 C3 1_555 1_555
C4 C3 1_555 1_555
C5 N1 1_555 1_555
H4 C5 1_555 1_555
C6 C4 1_555 1_555
C7 C6 1_555 1_555
C8 C7 1_555 1_555
H5 C8 1_555 1_555
C9 C8 1_555 1_555
H6 C9 1_555 1_555
C10 C9 1_555 1_555
H7 C10 1_555 1_555
C11 N2 1_555 1_555
C12 C11 1_555 1_555
C13 C12 1_555 1_555
C14 C13 1_555 1_555
H8 C14 1_555 1_555
C15 C14 1_555 1_555
H9 C15 1_555 1_555
C16 C15 1_555 1_555
H10 C16 1_555 1_555
C17 N3 1_555 1_555
H11 C17 1_555 1_555
C18 H12 1_555 1_555
C19 C18 1_555 1_555
H13 C19 1_555 1_555
C20 C19 1_555 1_555
H14 C20 1_555 1_555
C21 C20 1_555 1_555
C22 N4 1_555 1_555
H15 C22 1_555 1_555
C23 C21 1_555 1_555
C24 C23 1_555 1_555
C25 C24 1_555 1_555
H16 C25 1_555 1_555
C26 C25 1_555 1_555
H17 C26 1_555 1_555
C27 C26 1_555 1_555
H18 C27 1_555 1_555
C28 N5 1_555 1_555
C29 C28 1_555 1_555
C30 C29 1_555 1_555
C31 C30 1_555 1_555
H19 C31 1_555 1_555
C32 C31 1_555 1_555
H20 C32 1_555 1_555
C33 C32 1_555 1_555
H21 C33 1_555 1_555
C34 N6 1_555 1_555
H22 C34 1_555 1_555
C35 C36 1_555 1_555
C36 C37 1_555 1_555
C37 C38 1_555 1_555
C38 C39 1_555 1_555
C39 O7 1_555 1_555
O5 C35 1_555 1_555
O6 C35 1_555 1_555
O8 Ag1 1_555 1_555
F1 C36 1_555 1_555
F2 C36 1_555 1_555
F3 C37 1_555 1_555
F4 C37 1_555 1_555
F5 C38 1_555 1_555
F6 C38 1_555 1_555
O9 H23 1_555 1_555
H24 O9 1_555 1_555
O10 H25 1_555 1_555
H26 O10 1_555 1_555
Ag1A N3 1_555 1_555
Ag2A N6 1_555 1_555
N3A Ag1 1_555 1_555
N6A Ag2 1_555 1_555
C4 C5 1_555 1_555
C10 C11 1_555 1_555
C13 C17 1_555 1_555
C21 C22 1_555 1_555
C27 C28 1_555 1_555
C30 C34 1_555 1_555
C39 O8 1_555 1_555

#END
