
#######################################################################
#
#                 Cambridge Crystallographic Data Centre
#                                CCDC 
#
#######################################################################
#
# If this CIF has been generated from an entry in the Cambridge 
# Structural Database, then it will include bibliographic, chemical, 
# crystal, experimental, refinement or atomic coordinate data resulting 
# from the CCDC's data processing and validation procedures.
#
#######################################################################

data_OFAKOX
_symmetry_cell_setting           monoclinic
_symmetry_space_group_name_H-M   'C 2/c'
_symmetry_Int_Tables_number      15
_space_group_name_Hall           '-C 2yn'
loop_
_symmetry_equiv_pos_site_id
_symmetry_equiv_pos_as_xyz
1 x,y,z
2 -x,y,1/2-z
3 1/2+x,1/2+y,z
4 1/2-x,1/2+y,1/2-z
5 -x,-y,-z
6 x,-y,1/2+z
7 1/2-x,1/2-y,-z
8 1/2+x,1/2-y,1/2+z
_cell_length_a                   17.713(4)
_cell_length_b                   22.890(5)
_cell_length_c                   9.4705(18)
_cell_angle_alpha                90
_cell_angle_beta                 114.930(4)
_cell_angle_gamma                90
_cell_volume                     3482.04
loop_
_atom_site_label
_atom_site_type_symbol
_atom_site_fract_x
_atom_site_fract_y
_atom_site_fract_z
Cu1 Cu 0.72152(3) 0.279940(18) 0.87000(5)
O1 O 0.6483(2) 0.50398(12) 0.6330(3)
N1 N 0.67922(18) 0.32690(13) 0.6492(3)
C1 C 0.6722(2) 0.29985(17) 0.5189(4)
H1 H 0.6837 0.2601 0.5236
C2 C 0.6490(3) 0.32790(18) 0.3789(5)
H2 H 0.6477 0.3079 0.2925
C3 C 0.6275(3) 0.38603(17) 0.3676(4)
H3 H 0.6095 0.4055 0.2729
C4 C 0.6332(2) 0.41515(15) 0.5008(4)
C5 C 0.6615(2) 0.38370(15) 0.6390(4)
H4 H 0.6684 0.4034 0.7295
C6 C 0.6154(2) 0.47850(15) 0.5098(4)
N2 N 0.5000 0.48092(16) 0.2500
C7 C 0.5550(2) 0.51115(14) 0.3695(4)
C8 C 0.5573(2) 0.57218(15) 0.3739(4)
H5 H 0.5967 0.5918 0.4589
C9 C 0.5000 0.6026(2) 0.2500
H6 H 0.5000 0.6432 0.2500
C10 C 0.8188(4) 0.4005(2) 1.2448(7)
H7 H 0.8038 0.4334 1.1755
H8 H 0.8782 0.3993 1.3027
H9 H 0.7929 0.4041 1.3154
C11 C 0.7893(2) 0.34459(17) 1.1508(5)
O2 O 0.7544(2) 0.34881(12) 1.0063(4)
O3 O 0.8040(2) 0.29809(13) 1.2265(3)
C12 C 0.8938(2) 0.24773(19) 1.0025(5)
C13 C 0.9795(3) 0.2474(3) 1.0060(6)
H10 H 1.0172 0.2272 1.0974
H11 H 0.9983 0.2869 1.0079
H12 H 0.9778 0.2279 0.9149
O4 O 0.83659(18) 0.27278(13) 0.8901(3)
O5 O 0.88491(18) 0.22203(12) 1.1113(3)
O1A O 0.3517(2) 0.50398(12) -0.1330(3)
N1A N 0.32078(18) 0.32690(13) -0.1492(3)
C1A C 0.3278(2) 0.29985(17) -0.0189(4)
H1A H 0.3163 0.2601 -0.0236
C2A C 0.3510(3) 0.32790(18) 0.1211(5)
H2A H 0.3523 0.3079 0.2075
C3A C 0.3725(3) 0.38603(17) 0.1324(4)
H3A H 0.3905 0.4055 0.2271
C4A C 0.3668(2) 0.41515(15) -0.0008(4)
C5A C 0.3385(2) 0.38370(15) -0.1390(4)
H4A H 0.3316 0.4034 -0.2295
C6A C 0.3846(2) 0.47850(15) -0.0098(4)
C7A C 0.4450(2) 0.51115(14) 0.1305(4)
C8A C 0.4427(2) 0.57218(15) 0.1261(4)
H5A H 0.4033 0.5918 0.0411
Cu1A Cu 0.27848(3) 0.279940(18) -0.37000(5)
C10A C 0.1812(4) 0.4005(2) -0.7448(7)
H7A H 0.1962 0.4334 -0.6755
H8A H 0.1218 0.3993 -0.8027
H9A H 0.2071 0.4041 -0.8154
C11A C 0.2107(2) 0.34459(17) -0.6508(5)
O2A O 0.2456(2) 0.34881(12) -0.5063(4)
O3A O 0.1960(2) 0.29809(13) -0.7265(3)
C12A C 0.1062(2) 0.24773(19) -0.5025(5)
C13A C 0.0205(3) 0.2474(3) -0.5060(6)
H10A H -0.0172 0.2272 -0.5974
H11A H 0.0017 0.2869 -0.5079
H12A H 0.0222 0.2279 -0.4149
O4A O 0.16341(18) 0.27278(13) -0.3901(3)
O5A O 0.11509(18) 0.22203(12) -0.6113(3)
Cu1F Cu 0.77848(3) 0.220060(18) 1.13000(5)
Cu1G Cu 0.22152(3) 0.220060(18) -0.63000(5)
O3F O 0.6960(2) 0.20191(13) 0.7735(3)
O3G O 0.3040(2) 0.20191(13) -0.2735(3)
O5F O 0.61509(18) 0.27797(12) 0.8887(3)
O5G O 0.38491(18) 0.27797(12) -0.3887(3)
O7 O 1.1074(11) 0.4238(7) 0.706(2)
O7A O 0.8926(11) 0.4238(7) 0.794(2)
O6? O 1.0102(16) 0.4186(9) 0.691(2)
loop_
_geom_bond_atom_site_label_1
_geom_bond_atom_site_label_2
_geom_bond_site_symmetry_1
_geom_bond_site_symmetry_2
Cu1 N1 1_555 1_555
O1 C6 1_555 1_555
N1 C1 1_555 1_555
C1 H1 1_555 1_555
C2 C1 1_555 1_555
H2 C2 1_555 1_555
C3 C2 1_555 1_555
H3 C3 1_555 1_555
C4 C3 1_555 1_555
C5 N1 1_555 1_555
H4 C5 1_555 1_555
C6 C4 1_555 1_555
N2 C7 1_555 1_555
C7 C6 1_555 1_555
C8 C7 1_555 1_555
H5 C8 1_555 1_555
C9 C8 1_555 1_555
H6 C9 1_555 1_555
C10 H7 1_555 1_555
H8 C10 1_555 1_555
H9 C10 1_555 1_555
C11 C10 1_555 1_555
O2 Cu1 1_555 1_555
O3 C11 1_555 1_555
C12 C13 1_555 1_555
C13 H10 1_555 1_555
H11 C13 1_555 1_555
H12 C13 1_555 1_555
O4 Cu1 1_555 1_555
O5 C12 1_555 1_555
O1A C6A 1_555 1_555
N1A C1A 1_555 1_555
C1A H1A 1_555 1_555
C2A C1A 1_555 1_555
H2A C2A 1_555 1_555
C3A C2A 1_555 1_555
H3A C3A 1_555 1_555
C4A C3A 1_555 1_555
C5A N1A 1_555 1_555
H4A C5A 1_555 1_555
C6A C4A 1_555 1_555
C7A N2 1_555 1_555
C8A C9 1_555 1_555
H5A C8A 1_555 1_555
Cu1A N1A 1_555 1_555
C10A H7A 1_555 1_555
H8A C10A 1_555 1_555
H9A C10A 1_555 1_555
C11A C10A 1_555 1_555
O2A Cu1A 1_555 1_555
O3A C11A 1_555 1_555
C12A C13A 1_555 1_555
C13A H10A 1_555 1_555
H11A C13A 1_555 1_555
H12A C13A 1_555 1_555
O4A Cu1A 1_555 1_555
O5A C12A 1_555 1_555
Cu1F Cu1 1_555 1_555
Cu1G Cu1A 1_555 1_555
O3F Cu1 1_555 1_555
O3G Cu1A 1_555 1_555
O5F Cu1 1_555 1_555
O5G Cu1A 1_555 1_555
C4 C5 1_555 1_555
C11 O2 1_555 1_555
O3 Cu1F 1_555 1_555
C12 O4 1_555 1_555
O5 Cu1F 1_555 1_555
C4A C5A 1_555 1_555
C6A C7A 1_555 1_555
C7A C8A 1_555 1_555
C11A O2A 1_555 1_555
O3A Cu1G 1_555 1_555
C12A O4A 1_555 1_555
O5A Cu1G 1_555 1_555

#END
