
#######################################################################
#
#                 Cambridge Crystallographic Data Centre
#                                CCDC 
#
#######################################################################
#
# If this CIF has been generated from an entry in the Cambridge 
# Structural Database, then it will include bibliographic, chemical, 
# crystal, experimental, refinement or atomic coordinate data resulting 
# from the CCDC's data processing and validation procedures.
#
#######################################################################

data_OFALIS
_symmetry_cell_setting           triclinic
_symmetry_space_group_name_H-M   'P -1'
_symmetry_Int_Tables_number      2
_space_group_name_Hall           '-P 1'
loop_
_symmetry_equiv_pos_site_id
_symmetry_equiv_pos_as_xyz
1 x,y,z
2 -x,-y,-z
_cell_length_a                   7.6341(5)
_cell_length_b                   8.3136(5)
_cell_length_c                   14.1367(9)
_cell_angle_alpha                73.1330(10)
_cell_angle_beta                 79.1000(10)
_cell_angle_gamma                72.9470(10)
_cell_volume                     815.543
loop_
_atom_site_label
_atom_site_type_symbol
_atom_site_fract_x
_atom_site_fract_y
_atom_site_fract_z
Ag1 Ag 0.38014(4) 0.36124(5) 0.52113(2)
N1 N 0.5724(4) 0.2651(4) 0.4038(2)
N2 N 0.4269(4) 0.5729(4) 0.1300(2)
N3 N -0.1361(4) 0.5366(4) 0.3865(2)
O1 O 0.9006(4) 0.3890(4) 0.0865(2)
O2 O -0.0311(4) 0.8164(4) 0.1018(2)
C1 C 0.5887(5) 0.3651(5) 0.3106(3)
H1 H 0.5104 0.4761 0.2954
C2 C 0.7182(5) 0.3085(5) 0.2360(3)
C3 C 0.8353(5) 0.1435(5) 0.2597(3)
H2 H 0.9251 0.1027 0.2118
C4 C 0.8168(6) 0.0405(5) 0.3552(3)
H3 H 0.8927 -0.0714 0.3723
C5 C 0.6858(6) 0.1049(5) 0.4242(3)
H4 H 0.6745 0.0346 0.4884
C6 C 0.7509(5) 0.4216(5) 0.1333(3)
C7 C 0.5996(5) 0.5711(5) 0.0877(3)
C8 C 0.6417(5) 0.6941(5) 0.0027(3)
H5 H 0.7635 0.6896 -0.0243
C9 C 0.4994(6) 0.8229(5) -0.0407(3)
H6 H 0.5237 0.9067 -0.0978
C10 C 0.3207(6) 0.8264(5) 0.0013(3)
H7 H 0.2224 0.9119 -0.0270
C11 C 0.2904(5) 0.6988(5) 0.0874(3)
C12 C 0.0976(5) 0.7032(5) 0.1362(3)
C13 C -0.0883(5) 0.6329(5) 0.2963(3)
H8 H -0.1599 0.7458 0.2759
C14 C 0.0615(5) 0.5734(5) 0.2318(3)
C15 C 0.1618(5) 0.4015(5) 0.2605(3)
H9 H 0.2606 0.3546 0.2185
C16 C 0.1112(6) 0.3022(5) 0.3528(3)
H10 H 0.1757 0.1866 0.3733
C17 C -0.0335(5) 0.3729(5) 0.4143(3)
H11 H -0.0616 0.3053 0.4774
N4 N 0.6563(5) 0.1549(5) 0.6846(2)
O3 O 0.5292(6) 0.1009(7) 0.6727(4)
O4 O 0.6937(6) 0.2828(5) 0.6226(3)
O5 O 0.7459(5) 0.0790(6) 0.7551(3)
Ag1A Ag -0.38014(4) 0.63876(5) 0.47887(2)
Ag1A_2 Ag 0.61986(4) 0.63876(5) 0.47887(2)
N3A N 0.1361(4) 0.4634(4) 0.6135(2)
loop_
_geom_bond_atom_site_label_1
_geom_bond_atom_site_label_2
_geom_bond_site_symmetry_1
_geom_bond_site_symmetry_2
Ag1 N1 1_555 1_555
N1 C1 1_555 1_555
N2 C7 1_555 1_555
N3 C13 1_555 1_555
O1 C6 1_555 1_555
O2 C12 1_555 1_555
C1 H1 1_555 1_555
C2 C1 1_555 1_555
C3 C2 1_555 1_555
H2 C3 1_555 1_555
C4 C3 1_555 1_555
H3 C4 1_555 1_555
C5 N1 1_555 1_555
H4 C5 1_555 1_555
C6 C2 1_555 1_555
C7 C6 1_555 1_555
C8 C7 1_555 1_555
H5 C8 1_555 1_555
C9 C8 1_555 1_555
H6 C9 1_555 1_555
C10 C9 1_555 1_555
H7 C10 1_555 1_555
C11 N2 1_555 1_555
C12 C11 1_555 1_555
C13 H8 1_555 1_555
C14 C12 1_555 1_555
C15 C14 1_555 1_555
H9 C15 1_555 1_555
C16 C15 1_555 1_555
H10 C16 1_555 1_555
C17 N3 1_555 1_555
H11 C17 1_555 1_555
N4 O3 1_555 1_555
O3 Ag1 1_555 1_555
O4 N4 1_555 1_555
O5 N4 1_555 1_555
Ag1A N3 1_555 1_555
Ag1A_2 Ag1 1_555 1_555
N3A Ag1 1_555 1_555
C4 C5 1_555 1_555
C10 C11 1_555 1_555
C13 C14 1_555 1_555
C16 C17 1_555 1_555

#END
