
#######################################################################
#
#                 Cambridge Crystallographic Data Centre
#                                CCDC 
#
#######################################################################
#
# If this CIF has been generated from an entry in the Cambridge 
# Structural Database, then it will include bibliographic, chemical, 
# crystal, experimental, refinement or atomic coordinate data resulting 
# from the CCDC's data processing and validation procedures.
#
#######################################################################

data_OFALAK
_symmetry_cell_setting           monoclinic
_symmetry_space_group_name_H-M   'P 21/n'
_symmetry_Int_Tables_number      14
_space_group_name_Hall           '-P 2yn'
loop_
_symmetry_equiv_pos_site_id
_symmetry_equiv_pos_as_xyz
1 x,y,z
2 1/2-x,1/2+y,1/2-z
3 -x,-y,-z
4 1/2+x,1/2-y,1/2+z
_cell_length_a                   11.5749(3)
_cell_length_b                   7.1113(2)
_cell_length_c                   26.7156(7)
_cell_angle_alpha                90
_cell_angle_beta                 95.3410(10)
_cell_angle_gamma                90
_cell_volume                     2189.48
loop_
_atom_site_label
_atom_site_type_symbol
_atom_site_fract_x
_atom_site_fract_y
_atom_site_fract_z
Ag1 Ag 0.57410(4) 0.16743(6) 0.517638(12)
O1 O 0.6629(4) -0.1159(6) 0.75416(15)
O2 O 0.3916(4) 0.7320(6) 0.68950(14)
N1 N 0.6753(3) 0.0690(5) 0.58627(13)
N2 N 0.5347(3) 0.2969(5) 0.70463(12)
N3 N 0.5114(3) 0.6875(5) 0.54848(14)
C1 C 0.7875(4) 0.0199(7) 0.58662(19)
H1 H 0.8221 0.0223 0.5566
C2 C 0.8529(4) -0.0335(8) 0.6298(2)
H2 H 0.9303 -0.0666 0.6288
C3 C 0.8031(4) -0.0378(7) 0.67434(19)
H3 H 0.8463 -0.0743 0.7038
C4 C 0.6874(4) 0.0132(6) 0.67488(15)
C5 C 0.6274(4) 0.0662(6) 0.62982(15)
H4 H 0.5501 0.1017 0.6299
C6 C 0.6319(4) 0.0033(7) 0.72305(16)
C7 C 0.5406(4) 0.1425(6) 0.73304(15)
C8 C 0.4687(5) 0.1149(8) 0.77120(18)
H5 H 0.4726 0.0039 0.7897
C9 C 0.3925(5) 0.2526(9) 0.78118(19)
H6 H 0.3436 0.2366 0.8066
C10 C 0.3886(4) 0.4167(8) 0.75328(17)
H7 H 0.3392 0.5144 0.7603
C11 C 0.4602(4) 0.4318(6) 0.71456(14)
C12 C 0.4541(4) 0.6000(7) 0.68120(16)
C13 C 0.5199(4) 0.6036(6) 0.63544(15)
C14 C 0.6340(4) 0.5420(6) 0.63441(17)
H8 H 0.6755 0.4941 0.6631
C15 C 0.6832(4) 0.5545(7) 0.58944(19)
H9 H 0.7594 0.5154 0.5875
C16 C 0.6203(4) 0.6242(7) 0.54779(19)
H10 H 0.6545 0.6279 0.5177
C17 C 0.4632(4) 0.6767(6) 0.59208(16)
H11 H 0.3879 0.7208 0.5932
C18 C 0.6956(5) -0.1147(9) 0.43430(19)
C19 C 0.7819(5) -0.1419(9) 0.3962(2)
C20 C 0.8578(9) -0.3046(15) 0.3959(5)
C21 C 0.9069(10) -0.3848(16) 0.4399(5)
F1 F 0.8445(5) 0.0098(7) 0.3891(2)
F2 F 0.7282(6) -0.1619(14) 0.35015(19)
F3 F 0.9475(5) -0.2936(9) 0.3660(2)
F4 F 0.7896(8) -0.4870(18) 0.3822(4)
F5 F 0.9756(7) -0.5371(12) 0.4309(4)
F6 F 0.8299(6) -0.4342(12) 0.4710(3)
F7 F 0.9684(6) -0.2171(14) 0.4547(3)
O3 O 0.6083(4) -0.2135(9) 0.42794(18)
O4 O 0.7226(4) 0.0014(8) 0.46600(18)
Ag1B Ag 0.42590(4) -0.16743(6) 0.482362(12)
Ag1B_2 Ag 0.42590(4) 0.83257(6) 0.482362(12)
N3B N 0.4886(3) 0.3125(5) 0.45152(14)
O3B O 0.3917(4) 0.2135(9) 0.57206(18)
loop_
_geom_bond_atom_site_label_1
_geom_bond_atom_site_label_2
_geom_bond_site_symmetry_1
_geom_bond_site_symmetry_2
Ag1 N1 1_555 1_555
O1 C6 1_555 1_555
O2 C12 1_555 1_555
N1 C1 1_555 1_555
N2 C7 1_555 1_555
N3 C16 1_555 1_555
C1 H1 1_555 1_555
C2 C1 1_555 1_555
H2 C2 1_555 1_555
C3 C2 1_555 1_555
H3 C3 1_555 1_555
C4 C3 1_555 1_555
C5 N1 1_555 1_555
H4 C5 1_555 1_555
C6 C4 1_555 1_555
C7 C6 1_555 1_555
C8 C7 1_555 1_555
H5 C8 1_555 1_555
C9 C8 1_555 1_555
H6 C9 1_555 1_555
C10 C9 1_555 1_555
H7 C10 1_555 1_555
C11 N2 1_555 1_555
C12 C11 1_555 1_555
C13 C12 1_555 1_555
C14 C13 1_555 1_555
H8 C14 1_555 1_555
C15 C14 1_555 1_555
H9 C15 1_555 1_555
C16 C15 1_555 1_555
H10 C16 1_555 1_555
C17 N3 1_555 1_555
H11 C17 1_555 1_555
C18 C19 1_555 1_555
C19 C20 1_555 1_555
C20 C21 1_555 1_555
C21 F5 1_555 1_555
F1 C19 1_555 1_555
F2 C19 1_555 1_555
F3 C20 1_555 1_555
F4 C20 1_555 1_555
F6 C21 1_555 1_555
F7 C21 1_555 1_555
O3 C18 1_555 1_555
O4 Ag1 1_555 1_555
Ag1B Ag1 1_555 1_555
Ag1B_2 N3 1_555 1_555
N3B Ag1 1_555 1_555
O3B Ag1 1_555 1_555
C4 C5 1_555 1_555
C10 C11 1_555 1_555
C13 C17 1_555 1_555
C18 O4 1_555 1_555
O3 Ag1B 1_555 1_555

#END
