
#######################################################################
#
#                 Cambridge Crystallographic Data Centre
#                                CCDC 
#
#######################################################################
#
# If this CIF has been generated from an entry in the Cambridge 
# Structural Database, then it will include bibliographic, chemical, 
# crystal, experimental, refinement or atomic coordinate data resulting 
# from the CCDC's data processing and validation procedures.
#
#######################################################################

data_OFALOY
_symmetry_cell_setting           triclinic
_symmetry_space_group_name_H-M   'P -1'
_symmetry_Int_Tables_number      2
_space_group_name_Hall           '-P 1'
loop_
_symmetry_equiv_pos_site_id
_symmetry_equiv_pos_as_xyz
1 x,y,z
2 -x,-y,-z
_cell_length_a                   7.5247(8)
_cell_length_b                   8.8624(9)
_cell_length_c                   14.2218(15)
_cell_angle_alpha                105.569(2)
_cell_angle_beta                 91.994(2)
_cell_angle_gamma                106.493(2)
_cell_volume                     869.67
loop_
_atom_site_label
_atom_site_type_symbol
_atom_site_fract_x
_atom_site_fract_y
_atom_site_fract_z
Ag1 Ag -0.36504(5) 0.38115(5) 0.00575(3)
O1 O -0.0406(5) 0.5864(6) 0.3962(3)
O2 O 0.8879(5) 1.0346(5) 0.4167(3)
N1 N -0.1401(5) 0.5695(5) 0.1069(3)
N2 N 0.4154(4) 0.8072(4) 0.3712(2)
N3 N 0.5616(5) 0.8290(5) 0.0994(3)
C1 C -0.0900(6) 0.5668(5) 0.1978(3)
H1 H -0.1520 0.4753 0.2171
C2 C 0.0471(5) 0.6905(5) 0.2641(3)
C3 C 0.1346(6) 0.8307(5) 0.2365(3)
H2 H 0.2250 0.9192 0.2798
C4 C 0.0834(6) 0.8341(6) 0.1433(4)
H3 H 0.1400 0.9259 0.1230
C5 C -0.0494(6) 0.7041(6) 0.0809(4)
H4 H -0.0789 0.7082 0.0178
C6 C 0.0852(6) 0.6633(6) 0.3615(3)
C7 C 0.2815(6) 0.7205(5) 0.4122(3)
C8 C 0.3180(7) 0.6770(6) 0.4959(3)
H5 H 0.2215 0.6169 0.5228
C9 C 0.4995(7) 0.7244(7) 0.5383(4)
H6 H 0.5278 0.6965 0.5943
C10 C 0.6388(7) 0.8134(6) 0.4972(3)
H7 H 0.7627 0.8469 0.5246
C11 C 0.5898(6) 0.8517(5) 0.4139(3)
C12 C 0.7386(5) 0.9540(5) 0.3687(3)
C13 C 0.7031(5) 0.9572(5) 0.2656(3)
C14 C 0.8081(6) 1.0928(6) 0.2386(4)
H8 H 0.8915 1.1819 0.2852
C15 C 0.7869(7) 1.0930(6) 0.1431(4)
H9 H 0.8555 1.1827 0.1240
C16 C 0.6644(6) 0.9607(6) 0.0752(4)
H10 H 0.6519 0.9621 0.0102
C17 C 0.5817(6) 0.8295(5) 0.1933(3)
H11 H 0.5100 0.7389 0.2106
Cl1 Cl -0.35597(17) 0.64558(15) -0.19151(9)
O3 O -0.3947(11) 0.7978(7) -0.1640(5)
O4 O -0.3338(9) 0.5578(6) -0.1241(4)
O5 O -0.2023(6) 0.6501(7) -0.2567(4)
O6 O -0.5109(5) 0.5263(5) -0.2749(3)
Ag1A Ag -0.63496(5) 0.61885(5) -0.00575(3)
Ag1A_2 Ag 0.36504(5) 0.61885(5) -0.00575(3)
N3A N -0.5616(5) 0.1710(5) -0.0994(3)
loop_
_geom_bond_atom_site_label_1
_geom_bond_atom_site_label_2
_geom_bond_site_symmetry_1
_geom_bond_site_symmetry_2
Ag1 N1 1_555 1_555
O1 C6 1_555 1_555
O2 C12 1_555 1_555
N1 C1 1_555 1_555
N2 C7 1_555 1_555
N3 C16 1_555 1_555
C1 H1 1_555 1_555
C2 C1 1_555 1_555
C3 C2 1_555 1_555
H2 C3 1_555 1_555
C4 C3 1_555 1_555
H3 C4 1_555 1_555
C5 N1 1_555 1_555
H4 C5 1_555 1_555
C6 C2 1_555 1_555
C7 C6 1_555 1_555
C8 C7 1_555 1_555
H5 C8 1_555 1_555
C9 C8 1_555 1_555
H6 C9 1_555 1_555
C10 C9 1_555 1_555
H7 C10 1_555 1_555
C11 N2 1_555 1_555
C12 C11 1_555 1_555
C13 C12 1_555 1_555
C14 C13 1_555 1_555
H8 C14 1_555 1_555
C15 C14 1_555 1_555
H9 C15 1_555 1_555
C16 C15 1_555 1_555
H10 C16 1_555 1_555
C17 N3 1_555 1_555
H11 C17 1_555 1_555
Cl1 O3 1_555 1_555
O4 Ag1 1_555 1_555
O5 Cl1 1_555 1_555
O6 Cl1 1_555 1_555
Ag1A Ag1 1_555 1_555
Ag1A_2 N3 1_555 1_555
N3A Ag1 1_555 1_555
C4 C5 1_555 1_555
C10 C11 1_555 1_555
C13 C17 1_555 1_555
Cl1 O4 1_555 1_555

#END
