
#######################################################################
#
#                 Cambridge Crystallographic Data Centre
#                                CCDC 
#
#######################################################################
#
# If this CIF has been generated from an entry in the Cambridge 
# Structural Database, then it will include bibliographic, chemical, 
# crystal, experimental, refinement or atomic coordinate data resulting 
# from the CCDC's data processing and validation procedures.
#
#######################################################################

data_OFANIU
_symmetry_cell_setting           triclinic
_symmetry_space_group_name_H-M   'P -1'
_symmetry_Int_Tables_number      2
_space_group_name_Hall           '-P 1'
loop_
_symmetry_equiv_pos_site_id
_symmetry_equiv_pos_as_xyz
1 x,y,z
2 -x,-y,-z
_cell_length_a                   10.344(7)
_cell_length_b                   13.377(9)
_cell_length_c                   15.091(10)
_cell_angle_alpha                76.574(9)
_cell_angle_beta                 78.994(8)
_cell_angle_gamma                85.999(8)
_cell_volume                     1993.03
loop_
_atom_site_label
_atom_site_type_symbol
_atom_site_fract_x
_atom_site_fract_y
_atom_site_fract_z
Zn1 Zn 0.93815(12) -0.07625(9) 0.24625(8)
Zn2 Zn 0.56334(12) 0.54371(10) -0.24335(8)
N1 N 0.5597(10) 0.6754(7) -0.3577(6)
N2 N 0.6265(9) 0.4852(7) -0.3617(6)
N3 N 0.5346(9) 0.3984(7) -0.1435(6)
N4 N 0.9551(9) -0.1695(7) 0.1453(6)
N5 N 0.9346(9) -0.1952(7) 0.3632(6)
N6 N 0.8861(10) -0.0006(7) 0.3608(6)
O1 O 0.7925(7) 0.0087(6) 0.1876(5)
O2 O 0.6790(8) -0.1232(6) 0.2775(6)
O3 O 0.1051(7) -0.0067(6) 0.1936(5)
O4 O 0.2052(9) -0.1384(7) 0.2718(7)
O5 O 0.7059(7) -0.4106(6) -0.1927(5)
O6 O 0.8460(9) -0.5107(8) -0.2646(7)
O7 O 1.3883(8) -0.4046(6) -0.1825(5)
O8 O 1.3215(8) -0.4943(6) -0.2677(5)
C1 C 0.6685(12) 0.3868(9) -0.3591(8)
H1 H 0.6704 0.3427 -0.3017
C2 C 0.7085(14) 0.3490(10) -0.4375(10)
H2 H 0.7350 0.2805 -0.4340
C3 C 0.7077(14) 0.4161(11) -0.5212(9)
H3 H 0.7348 0.3936 -0.5758
C4 C 0.6671(12) 0.5169(11) -0.5244(8)
H4 H 0.6658 0.5621 -0.5813
C5 C 0.6283(11) 0.5510(9) -0.4436(7)
C6 C 0.5893(11) 0.6577(8) -0.4405(7)
C7 C 0.5841(12) 0.7344(10) -0.5196(8)
H5 H 0.6053 0.7193 -0.5778
C8 C 0.5472(15) 0.8330(12) -0.5108(11)
H6 H 0.5434 0.8860 -0.5626
C9 C 0.5158(16) 0.8507(10) -0.4225(12)
H7 H 0.4886 0.9160 -0.4135
C10 C 0.5255(15) 0.7705(11) -0.3479(10)
H8 H 0.5076 0.7832 -0.2886
C11 C 1.2995(11) -0.4375(9) -0.2140(7)
C12 C 0.8182(11) -0.4499(8) -0.2130(7)
C13 C 0.9288(10) -0.4175(8) -0.1741(7)
C14 C 1.0559(10) -0.4414(7) -0.2087(7)
H9 H 1.0730 -0.4802 -0.2536
C15 C 1.1598(11) -0.4085(8) -0.1778(8)
C16 C 1.1325(11) -0.3516(8) -0.1104(8)
H10 H 1.2012 -0.3291 -0.0890
C17 C 0.8999(11) -0.3627(9) -0.1066(7)
H11 H 0.8126 -0.3489 -0.0825
C18 C 0.5716(12) 0.3915(9) -0.0615(8)
H12 H 0.6149 0.4466 -0.0537
C19 C 0.5497(12) 0.3106(8) 0.0089(7)
H13 H 0.5774 0.3098 0.0641
C20 C 0.4844(10) 0.2259(7) -0.0005(7)
C21 C 0.4413(12) 0.2311(9) -0.0814(8)
H14 H 0.3960 0.1771 -0.0895
C22 C 0.4670(11) 0.3201(8) -0.1523(8)
H15 H 0.4361 0.3250 -0.2072
C23 C 0.4641(11) 0.1345(8) 0.0765(7)
C24 C 0.3495(11) 0.0827(8) 0.1085(7)
H16 H 0.2765 0.1074 0.0816
C25 C 0.3371(11) -0.0042(8) 0.1786(8)
C26 C 0.4452(10) -0.0462(8) 0.2175(7)
H17 H 0.4385 -0.1059 0.2640
C27 C 0.5664(10) 0.0049(8) 0.1839(7)
C28 C 0.5748(11) 0.0935(8) 0.1147(8)
H18 H 0.6548 0.1263 0.0933
C29 C 0.6880(11) -0.0430(8) 0.2201(7)
C30 C 0.8636(13) 0.1004(9) 0.3523(9)
H19 H 0.8763 0.1436 0.2936
C31 C 0.8222(15) 0.1418(11) 0.4281(11)
H20 H 0.8057 0.2122 0.4215
C32 C 0.8056(14) 0.0770(12) 0.5143(10)
H21 H 0.7784 0.1035 0.5668
C33 C 0.8289(13) -0.0259(10) 0.5232(9)
H22 H 0.8176 -0.0708 0.5811
C34 C 0.8697(11) -0.0612(9) 0.4433(8)
C35 C 0.8996(10) -0.1721(8) 0.4460(7)
C36 C 0.8959(12) -0.2464(10) 0.5260(8)
H23 H 0.8694 -0.2289 0.5831
C37 C 0.9312(13) -0.3470(9) 0.5224(9)
H24 H 0.9282 -0.3984 0.5762
C38 C 0.9703(13) -0.3680(9) 0.4378(9)
H25 H 0.9967 -0.4346 0.4326
C39 C 0.9710(11) -0.2933(8) 0.3614(8)
H26 H 0.9980 -0.3101 0.3041
C40 C 0.2067(11) -0.0586(9) 0.2190(8)
C41 C 1.0379(13) -0.1379(9) 0.0636(8)
H27 H 1.0887 -0.0810 0.0567
C42 C 1.0508(12) -0.1838(9) -0.0079(7)
H28 H 1.1074 -0.1574 -0.0630
C43 C 0.9793(10) -0.2712(7) 0.0005(7)
C44 C 0.8910(11) -0.3030(8) 0.0814(7)
H29 H 0.8386 -0.3591 0.0887
C45 C 0.8804(11) -0.2508(9) 0.1523(7)
H30 H 0.8198 -0.2726 0.2064
C46 C 1.0009(11) -0.3275(8) -0.0740(8)
Zn1_2 Zn -0.06185(12) -0.07625(9) 0.24625(8)
Zn2_2 Zn 0.56334(12) -0.45629(10) -0.24335(8)
Zn2_3 Zn 1.56334(12) -0.45629(10) -0.24335(8)
O3_2 O 1.1051(7) -0.0067(6) 0.1936(5)
O5_2 O 0.7059(7) 0.5894(6) -0.1927(5)
O7_2 O 0.3883(8) 0.5954(6) -0.1825(5)
O9 O 0.813(3) 0.8136(17) 0.7313(14)
loop_
_geom_bond_atom_site_label_1
_geom_bond_atom_site_label_2
_geom_bond_site_symmetry_1
_geom_bond_site_symmetry_2
Zn1 N4 1_555 1_555
Zn2 N1 1_555 1_555
N1 C6 1_555 1_555
N2 Zn2 1_555 1_555
N3 Zn2 1_555 1_555
N4 C41 1_555 1_555
N5 Zn1 1_555 1_555
N6 Zn1 1_555 1_555
O1 Zn1 1_555 1_555
O2 C29 1_555 1_555
O3 C40 1_555 1_555
O4 C40 1_555 1_555
O5 C12 1_555 1_555
O6 C12 1_555 1_555
O7 C11 1_555 1_555
O8 C11 1_555 1_555
C1 N2 1_555 1_555
H1 C1 1_555 1_555
C2 C1 1_555 1_555
H2 C2 1_555 1_555
C3 C2 1_555 1_555
H3 C3 1_555 1_555
C4 C3 1_555 1_555
H4 C4 1_555 1_555
C5 N2 1_555 1_555
C6 C5 1_555 1_555
C7 C6 1_555 1_555
H5 C7 1_555 1_555
C8 C7 1_555 1_555
H6 C8 1_555 1_555
C9 C8 1_555 1_555
H7 C9 1_555 1_555
C10 N1 1_555 1_555
H8 C10 1_555 1_555
C11 C15 1_555 1_555
C12 C13 1_555 1_555
C13 C14 1_555 1_555
C14 H9 1_555 1_555
C15 C14 1_555 1_555
C16 C15 1_555 1_555
H10 C16 1_555 1_555
C17 C13 1_555 1_555
H11 C17 1_555 1_555
C18 N3 1_555 1_555
H12 C18 1_555 1_555
C19 C18 1_555 1_555
H13 C19 1_555 1_555
C20 C19 1_555 1_555
C21 C20 1_555 1_555
H14 C21 1_555 1_555
C22 N3 1_555 1_555
H15 C22 1_555 1_555
C23 C20 1_555 1_555
C24 C23 1_555 1_555
H16 C24 1_555 1_555
C25 C24 1_555 1_555
C26 C25 1_555 1_555
H17 C26 1_555 1_555
C27 C26 1_555 1_555
C28 C23 1_555 1_555
H18 C28 1_555 1_555
C29 O1 1_555 1_555
C30 N6 1_555 1_555
H19 C30 1_555 1_555
C31 C30 1_555 1_555
H20 C31 1_555 1_555
C32 C31 1_555 1_555
H21 C32 1_555 1_555
C33 C32 1_555 1_555
H22 C33 1_555 1_555
C34 N6 1_555 1_555
C35 N5 1_555 1_555
C36 C35 1_555 1_555
H23 C36 1_555 1_555
C37 C36 1_555 1_555
H24 C37 1_555 1_555
C38 C37 1_555 1_555
H25 C38 1_555 1_555
C39 N5 1_555 1_555
H26 C39 1_555 1_555
C40 C25 1_555 1_555
C41 H27 1_555 1_555
C42 C41 1_555 1_555
H28 C42 1_555 1_555
C43 C42 1_555 1_555
C44 C43 1_555 1_555
H29 C44 1_555 1_555
C45 N4 1_555 1_555
H30 C45 1_555 1_555
C46 C16 1_555 1_555
Zn1_2 O3 1_555 1_555
Zn2_2 O5 1_555 1_555
Zn2_3 O7 1_555 1_555
O3_2 Zn1 1_555 1_555
O5_2 Zn2 1_555 1_555
O7_2 Zn2 1_555 1_555
C4 C5 1_555 1_555
C9 C10 1_555 1_555
C17 C46 1_555 1_555
C21 C22 1_555 1_555
C27 C28 1_555 1_555
C27 C29 1_555 1_555
C33 C34 1_555 1_555
C34 C35 1_555 1_555
C38 C39 1_555 1_555
C43 C46 1_555 1_555
C44 C45 1_555 1_555

#END
