
#######################################################################
#
#                 Cambridge Crystallographic Data Centre
#                                CCDC 
#
#######################################################################
#
# If this CIF has been generated from an entry in the Cambridge 
# Structural Database, then it will include bibliographic, chemical, 
# crystal, experimental, refinement or atomic coordinate data resulting 
# from the CCDC's data processing and validation procedures.
#
#######################################################################

data_OFANAK
_symmetry_cell_setting           triclinic
_symmetry_space_group_name_H-M   'P -1'
_symmetry_Int_Tables_number      2
_space_group_name_Hall           '-P 1'
loop_
_symmetry_equiv_pos_site_id
_symmetry_equiv_pos_as_xyz
1 x,y,z
2 -x,-y,-z
_cell_length_a                   13.109(5)
_cell_length_b                   17.629(4)
_cell_length_c                   10.658(5)
_cell_angle_alpha                96.58(3)
_cell_angle_beta                 107.62(4)
_cell_angle_gamma                70.70(2)
_cell_volume                     2215.28
loop_
_atom_site_label
_atom_site_type_symbol
_atom_site_fract_x
_atom_site_fract_y
_atom_site_fract_z
Cu1 Cu 0.17918(6) 0.39583(4) 0.08426(7)
Cu2 Cu 0.30971(6) 0.10773(4) -0.06402(7)
S1 S -0.0716(1) 0.4490(1) 0.1370(2)
S2 S 0.5477(1) 0.0513(1) -0.1470(1)
P1 P 0.3200(1) 0.4250(1) 0.2449(2)
P2 P 0.1692(1) 0.0797(1) -0.2297(2)
F1 F 0.0234(5) 0.4354(3) 0.3880(4)
F2 F -0.0805(4) 0.5543(3) 0.3291(4)
F3 F -0.1550(5) 0.4653(3) 0.3349(5)
F4 F 0.5340(4) -0.0513(2) -0.3426(3)
F5 F 0.6182(4) 0.0314(3) -0.3557(4)
F6 F 0.4402(4) 0.0702(3) -0.3957(3)
O1 O 0.0327(3) 0.4596(2) 0.1358(4)
O2 O 0.4472(3) 0.0401(2) -0.1321(4)
O3 O -0.1680(3) 0.5079(3) 0.0615(4)
O4 O -0.0760(4) 0.3690(3) 0.1242(4)
O5 O 0.5503(4) 0.1320(2) -0.1354(4)
O6 O 0.6508(3) -0.0075(2) -0.0800(4)
C1 C 0.1037(5) 0.3245(4) -0.0637(6)
C2 C 0.2162(5) 0.2845(4) -0.0297(6)
C3 C 0.2760(5) 0.2184(4) 0.0594(6)
C4 C 0.3869(5) 0.1795(3) 0.0757(6)
C5 C 0.2135(6) 0.2036(4) 0.1512(6)
C6 C -0.0735(7) 0.4785(5) 0.3066(8)
C7 C 0.5353(6) 0.0240(4) -0.3187(6)
C8 C 0.2817(5) 0.5328(4) 0.2854(6)
C9 C 0.3446(6) 0.5798(4) 0.2801(7)
C10 C 0.3095(7) 0.6609(4) 0.310(1)
C11 C 0.2109(6) 0.6955(4) 0.3424(8)
C12 C 0.1467(5) 0.6492(4) 0.3493(7)
C13 C 0.1810(5) 0.5676(4) 0.3187(7)
C14 C 0.3605(5) 0.3753(4) 0.4024(6)
C15 C 0.3503(5) 0.4162(4) 0.5187(7)
C16 C 0.3787(7) 0.3734(5) 0.6324(7)
C17 C 0.4198(6) 0.2908(5) 0.6318(8)
C18 C 0.4317(6) 0.2509(4) 0.5160(8)
C19 C 0.4015(6) 0.2920(4) 0.4030(6)
C20 C 0.4529(5) 0.4026(3) 0.2059(6)
C21 C 0.5551(5) 0.3919(4) 0.3021(6)
C22 C 0.6526(5) 0.3779(4) 0.2671(8)
C23 C 0.6504(6) 0.3734(5) 0.138(1)
C24 C 0.5502(7) 0.3829(5) 0.0410(8)
C25 C 0.4516(6) 0.3969(5) 0.0744(7)
C26 C 0.0446(5) 0.0769(4) -0.1902(6)
C27 C -0.0115(5) 0.1442(4) -0.1287(7)
C28 C -0.1064(7) 0.1468(6) -0.0942(9)
C29 C -0.1456(7) 0.0821(7) -0.1227(9)
C30 C -0.0930(7) 0.0159(6) -0.1840(9)
C31 C 0.0018(6) 0.0132(4) -0.2176(7)
C32 C 0.1125(5) 0.1448(3) -0.3713(6)
C33 C 0.0129(5) 0.1454(4) -0.4678(6)
C34 C -0.0248(5) 0.1916(4) -0.5787(6)
C35 C 0.0370(7) 0.2378(5) -0.5948(7)
C36 C 0.1351(7) 0.2386(5) -0.4994(8)
C37 C 0.1723(5) 0.1921(4) -0.3888(7)
C38 C 0.2255(5) -0.0204(4) -0.2972(6)
C39 C 0.2265(5) -0.0353(4) -0.4265(6)
C40 C 0.2732(6) -0.1124(4) -0.4706(7)
C41 C 0.3198(5) -0.1748(4) -0.3833(8)
C42 C 0.3203(6) -0.1614(4) -0.2549(7)
C43 C 0.2734(5) -0.0843(4) -0.2100(6)
H1 H 0.0770 0.3670 -0.1297
H2 H 0.0434 0.3092 -0.0229
H3 H 0.2793 0.2826 -0.0914
H4 H 0.4250 0.1314 0.1291
H5 H 0.4436 0.1984 0.0504
H6 H 0.1539 0.2030 0.1093
H7 H 0.1925 0.2429 0.1934
H8 H 0.2650 0.1507 0.2281
H9 H 0.4126 0.5567 0.2560
H10 H 0.3544 0.6931 0.3073
H11 H 0.1867 0.7516 0.3604
H12 H 0.0794 0.6728 0.3748
H13 H 0.1358 0.5356 0.3204
H14 H 0.3240 0.4732 0.5210
H15 H 0.3696 0.4016 0.7118
H16 H 0.4397 0.2619 0.7101
H17 H 0.4614 0.1939 0.5148
H18 H 0.4087 0.2632 0.3235
H19 H 0.5577 0.3942 0.3925
H20 H 0.7220 0.3714 0.3336
H21 H 0.7182 0.3637 0.1151
H22 H 0.5489 0.3799 -0.0490
H23 H 0.3827 0.4027 0.0073
H24 H 0.0155 0.1893 -0.1099
H25 H -0.1438 0.1930 -0.0511
H26 H -0.2106 0.0837 -0.0991
H27 H -0.1213 -0.0286 -0.2038
H28 H 0.0383 -0.0335 -0.2606
H29 H -0.0297 0.1135 -0.4570
H30 H -0.0930 0.1915 -0.6436
H31 H 0.0120 0.2691 -0.6715
H32 H 0.1770 0.2711 -0.5098
H33 H 0.2402 0.1927 -0.3239
H34 H 0.1946 0.0079 -0.4865
H35 H 0.2732 -0.1221 -0.5602
H36 H 0.3518 -0.2278 -0.4130
H37 H 0.3528 -0.2050 -0.1956
H38 H 0.2741 -0.0751 -0.1202
O3A O 0.1680(3) 0.4921(3) -0.0615(4)
O6A O 0.3492(3) 0.0075(2) 0.0800(4)
Cu1A Cu -0.17918(6) 0.60417(4) -0.08426(7)
Cu2A Cu 0.69029(6) -0.10773(4) 0.06402(7)
loop_
_geom_bond_atom_site_label_1
_geom_bond_atom_site_label_2
_geom_bond_site_symmetry_1
_geom_bond_site_symmetry_2
Cu1 P1 1_555 1_555
Cu2 P2 1_555 1_555
S1 O1 1_555 1_555
S2 O2 1_555 1_555
P1 C8 1_555 1_555
P2 C26 1_555 1_555
F1 C6 1_555 1_555
F2 C6 1_555 1_555
F3 C6 1_555 1_555
F4 C7 1_555 1_555
F5 C7 1_555 1_555
F6 C7 1_555 1_555
O1 Cu1 1_555 1_555
O2 Cu2 1_555 1_555
O3 S1 1_555 1_555
O4 S1 1_555 1_555
O5 S2 1_555 1_555
O6 S2 1_555 1_555
C1 Cu1 1_555 1_555
C2 Cu1 1_555 1_555
C3 Cu2 1_555 1_555
C4 Cu2 1_555 1_555
C5 C3 1_555 1_555
C6 S1 1_555 1_555
C7 S2 1_555 1_555
C8 C9 1_555 1_555
C9 C10 1_555 1_555
C10 C11 1_555 1_555
C11 C12 1_555 1_555
C12 C13 1_555 1_555
C13 C8 1_555 1_555
C14 P1 1_555 1_555
C15 C14 1_555 1_555
C16 C15 1_555 1_555
C17 C16 1_555 1_555
C18 C17 1_555 1_555
C19 C14 1_555 1_555
C20 P1 1_555 1_555
C21 C20 1_555 1_555
C22 C21 1_555 1_555
C23 C22 1_555 1_555
C24 C23 1_555 1_555
C25 C20 1_555 1_555
C26 C27 1_555 1_555
C27 C28 1_555 1_555
C28 C29 1_555 1_555
C29 C30 1_555 1_555
C30 C31 1_555 1_555
C31 C26 1_555 1_555
C32 P2 1_555 1_555
C33 C32 1_555 1_555
C34 C33 1_555 1_555
C35 C34 1_555 1_555
C36 C35 1_555 1_555
C37 C32 1_555 1_555
C38 P2 1_555 1_555
C39 C38 1_555 1_555
C40 C39 1_555 1_555
C41 C40 1_555 1_555
C42 C41 1_555 1_555
C43 C38 1_555 1_555
H1 C1 1_555 1_555
H2 C1 1_555 1_555
H3 C2 1_555 1_555
H4 C4 1_555 1_555
H5 C4 1_555 1_555
H6 C5 1_555 1_555
H7 C5 1_555 1_555
H8 C5 1_555 1_555
H9 C9 1_555 1_555
H10 C10 1_555 1_555
H11 C11 1_555 1_555
H12 C12 1_555 1_555
H13 C13 1_555 1_555
H14 C15 1_555 1_555
H15 C16 1_555 1_555
H16 C17 1_555 1_555
H17 C18 1_555 1_555
H18 C19 1_555 1_555
H19 C21 1_555 1_555
H20 C22 1_555 1_555
H21 C23 1_555 1_555
H22 C24 1_555 1_555
H23 C25 1_555 1_555
H24 C27 1_555 1_555
H25 C28 1_555 1_555
H26 C29 1_555 1_555
H27 C30 1_555 1_555
H28 C31 1_555 1_555
H29 C33 1_555 1_555
H30 C34 1_555 1_555
H31 C35 1_555 1_555
H32 C36 1_555 1_555
H33 C37 1_555 1_555
H34 C39 1_555 1_555
H35 C40 1_555 1_555
H36 C41 1_555 1_555
H37 C42 1_555 1_555
H38 C43 1_555 1_555
O3A Cu1 1_555 1_555
O6A Cu2 1_555 1_555
Cu1A O3 1_555 1_555
Cu2A O6 1_555 1_555
C1 C2 1_555 1_555
C2 C3 1_555 1_555
C3 C4 1_555 1_555
C18 C19 1_555 1_555
C24 C25 1_555 1_555
C36 C37 1_555 1_555
C42 C43 1_555 1_555

#END
