
#######################################################################
#
#                 Cambridge Crystallographic Data Centre
#                                CCDC 
#
#######################################################################
#
# If this CIF has been generated from an entry in the Cambridge 
# Structural Database, then it will include bibliographic, chemical, 
# crystal, experimental, refinement or atomic coordinate data resulting 
# from the CCDC's data processing and validation procedures.
#
#######################################################################

data_OFANUG
_symmetry_cell_setting           monoclinic
_symmetry_space_group_name_H-M   'P 2/c'
_symmetry_Int_Tables_number      13
_space_group_name_Hall           '-P 2yc'
loop_
_symmetry_equiv_pos_site_id
_symmetry_equiv_pos_as_xyz
1 x,y,z
2 -x,y,1/2-z
3 -x,-y,-z
4 x,-y,1/2+z
_cell_length_a                   12.824(9)
_cell_length_b                   10.318(7)
_cell_length_c                   31.48(2)
_cell_angle_alpha                90
_cell_angle_beta                 101.75
_cell_angle_gamma                90
_cell_volume                     4078.09
loop_
_atom_site_label
_atom_site_type_symbol
_atom_site_fract_x
_atom_site_fract_y
_atom_site_fract_z
Co1 Co 0.92408(5) 0.60220(6) 0.131295(19)
N1 N 1.0125(3) 0.6369(4) 0.08126(12)
N2 N 0.8068(3) 0.5747(3) 0.07580(12)
N3 N 0.8270(3) 0.5999(4) 0.17925(12)
O1 O 1.0292(3) 0.7346(3) 0.17012(10)
O2 O 0.8924(3) 0.8205(3) 0.12573(11)
O3 O 0.9874(3) 0.4267(3) 0.14912(10)
C1 C 1.1134(4) 0.6733(5) 0.08418(18)
C2 C 0.9495(4) 0.6336(5) 0.04051(15)
C3 C 0.7055(4) 0.5411(5) 0.07305(16)
C4 C 0.8402(4) 0.5965(4) 0.03859(15)
C5 C 0.7451(4) 0.6820(5) 0.17803(16)
C6 C 0.8590(4) 0.5348(5) 0.21574(16)
C7 C 0.9757(4) 0.8315(4) 0.15294(15)
C8 C 1.1557(4) 0.7070(6) 0.0480(2)
H1 H 1.1578 0.6766 0.1115
C9 C 0.9859(4) 0.6609(5) 0.00308(17)
H2 H 0.6818 0.5254 0.0986
C10 C 0.6341(4) 0.5283(5) 0.03424(17)
C11 C 0.7716(4) 0.5854(5) -0.00263(15)
H3 H 0.7212 0.7287 0.1527
C12 C 0.6946(4) 0.7010(5) 0.21212(16)
C13 C 0.8146(4) 0.5493(5) 0.25231(16)
H4 H 0.9145 0.4759 0.2171
C14 C 1.0172(3) 0.9652(4) 0.16716(15)
C15 C 1.0921(4) 0.6990(6) 0.00725(19)
H5 H 1.2261 0.7344 0.0515
C16 C 0.9146(4) 0.6491(5) -0.03834(16)
H6 H 0.5640 0.5049 0.0341
C17 C 0.6651(4) 0.5497(5) -0.00389(17)
C18 C 0.8134(5) 0.6108(5) -0.04084(17)
H7 H 0.6392 0.7604 0.2097
C19 C 0.7270(4) 0.6310(4) 0.25002(15)
H8 H 0.8429 0.5053 0.2778
C20 C 0.9702(3) 1.0743(4) 0.14432(14)
C21 C 1.0998(3) 0.9798(4) 0.20200(14)
H9 H 1.1193 0.7187 -0.0172
H10 H 0.9387 0.6680 -0.0636
H11 H 0.6171 0.5409 -0.0302
H12 H 0.7693 0.6005 -0.0680
C22 C 0.6740(4) 0.6464(4) 0.28744(15)
C23 C 1.0082(3) 1.1988(4) 0.15700(14)
H13 H 0.9139 1.0640 0.1208
H14 H 1.1297 0.9070 0.2171
C24 C 1.1398(4) 1.1029(4) 0.21519(15)
C25 C 0.6509(4) 0.5385(4) 0.31024(15)
C26 C 0.6463(4) 0.7692(4) 0.30087(15)
C27 C 0.9537(4) 1.3168(4) 0.13354(15)
C28 C 1.0928(4) 1.2100(4) 0.19147(15)
C29 C 1.2283(4) 1.1195(4) 0.25263(16)
H15 H 0.6726 0.4572 0.3027
C30 C 0.5962(4) 0.5484(4) 0.34413(14)
C31 C 0.5955(4) 0.7815(4) 0.33554(14)
H16 H 0.6622 0.8429 0.2864
O4 O 0.8820(3) 1.2999(4) 0.10129(12)
H17 H 1.1199 1.2921 0.1994
C32 C 1.3134(4) 1.2002(5) 0.25097(17)
C33 C 1.2310(4) 1.0527(5) 0.29099(15)
C34 C 0.5653(4) 0.4285(4) 0.36677(15)
C35 C 0.5705(3) 0.6723(4) 0.35664(14)
C36 C 0.5666(4) 0.9147(4) 0.34956(15)
H18 H 1.3168 1.2437 0.2254
C37 C 1.3936(4) 1.2163(5) 0.28740(17)
H19 H 1.1764 0.9955 0.2933
C38 C 1.3140(4) 1.0708(5) 0.32567(16)
O5 O 0.5910(2) 0.3192(3) 0.35255(10)
O6 O 0.5161(3) 0.4435(3) 0.39615(12)
H20 H 0.5358 0.6813 0.3797
O7 O 0.6010(3) 1.0125(3) 0.33202(10)
O8 O 0.5120(3) 0.9265(3) 0.37776(11)
N4 N 1.3952(3) 1.1529(4) 0.32470(12)
H21 H 1.4488 1.2735 0.2859
H22 H 1.3142 1.0242 0.3510
Co2 Co 0.54083(5) 0.14730(6) 0.371521(18)
N5 N 1.4871(3) 1.1699(3) 0.42949(12)
N6 N 1.6828(3) 1.1112(4) 0.41903(13)
C39 C 1.3882(4) 1.2026(5) 0.43470(18)
C40 C 1.5620(4) 1.1485(4) 0.46582(15)
C41 C 1.7791(4) 1.0765(6) 0.41173(19)
C42 C 1.6675(4) 1.1151(4) 0.46018(15)
H23 H 1.3355 1.2205 0.4104
C43 C 1.3637(5) 1.2100(5) 0.4766(2)
C44 C 1.5415(5) 1.1557(5) 0.50847(16)
C45 C 1.8605(5) 1.0426(7) 0.4456(2)
H24 H 1.7907 1.0755 0.3835
C46 C 1.7481(5) 1.0880(5) 0.49665(18)
C47 C 1.4384(5) 1.1877(5) 0.5121(2)
H25 H 1.2948 1.2305 0.4794
C48 C 1.6295(5) 1.1299(5) 0.54427(17)
C49 C 1.8481(5) 1.0481(6) 0.4870(2)
H26 H 1.9253 1.0153 0.4398
C50 C 1.7259(6) 1.0988(6) 0.53879(19)
H27 H 1.4214 1.1937 0.5394
H28 H 1.6177 1.1355 0.5724
H29 H 1.9044 1.0260 0.5095
H30 H 1.7798 1.0839 0.5629
O3_2 O 0.9874(3) 1.4267(3) 0.14912(10)
Co1_2 Co 0.92408(5) 1.60220(6) 0.131295(19)
Co2_2 Co 0.54083(5) 1.14730(6) 0.371521(18)
Co2_3 Co 1.54083(5) 1.14730(6) 0.371521(18)
O8_2 O 1.5120(3) 0.9265(3) 0.37776(11)
O5_2 O 1.5910(2) 1.3192(3) 0.35255(10)
O7_2 O 1.6010(3) 1.0125(3) 0.33202(10)
loop_
_geom_bond_atom_site_label_1
_geom_bond_atom_site_label_2
_geom_bond_site_symmetry_1
_geom_bond_site_symmetry_2
Co1 N1 1_555 1_555
N1 C1 1_555 1_555
N2 Co1 1_555 1_555
N3 Co1 1_555 1_555
O1 Co1 1_555 1_555
O2 Co1 1_555 1_555
O3 Co1 1_555 1_555
C1 C8 1_555 1_555
C2 N1 1_555 1_555
C3 N2 1_555 1_555
C4 N2 1_555 1_555
C5 N3 1_555 1_555
C6 N3 1_555 1_555
C7 O1 1_555 1_555
C8 C15 1_555 1_555
H1 C1 1_555 1_555
C9 C2 1_555 1_555
H2 C3 1_555 1_555
C10 C3 1_555 1_555
C11 C4 1_555 1_555
H3 C5 1_555 1_555
C12 C5 1_555 1_555
C13 C6 1_555 1_555
H4 C6 1_555 1_555
C14 C7 1_555 1_555
C15 C9 1_555 1_555
H5 C8 1_555 1_555
C16 C9 1_555 1_555
H6 C10 1_555 1_555
C17 C10 1_555 1_555
C18 C11 1_555 1_555
H7 C12 1_555 1_555
C19 C12 1_555 1_555
H8 C13 1_555 1_555
C20 C14 1_555 1_555
C21 C14 1_555 1_555
H9 C15 1_555 1_555
H10 C16 1_555 1_555
H11 C17 1_555 1_555
H12 C18 1_555 1_555
C22 C19 1_555 1_555
C23 C20 1_555 1_555
H13 C20 1_555 1_555
H14 C21 1_555 1_555
C24 C21 1_555 1_555
C25 C22 1_555 1_555
C26 C22 1_555 1_555
C27 C23 1_555 1_555
C28 C23 1_555 1_555
C29 C24 1_555 1_555
H15 C25 1_555 1_555
C30 C25 1_555 1_555
C31 C26 1_555 1_555
H16 C26 1_555 1_555
O4 C27 1_555 1_555
H17 C28 1_555 1_555
C32 C29 1_555 1_555
C33 C29 1_555 1_555
C34 C30 1_555 1_555
C35 C30 1_555 1_555
C36 C31 1_555 1_555
H18 C32 1_555 1_555
C37 C32 1_555 1_555
H19 C33 1_555 1_555
C38 C33 1_555 1_555
O5 C34 1_555 1_555
O6 C34 1_555 1_555
H20 C35 1_555 1_555
O7 C36 1_555 1_555
O8 C36 1_555 1_555
N4 C37 1_555 1_555
H21 C37 1_555 1_555
H22 C38 1_555 1_555
Co2 O5 1_555 1_555
N5 C39 1_555 1_555
N6 C41 1_555 1_555
C39 H23 1_555 1_555
C40 N5 1_555 1_555
C41 C45 1_555 1_555
C42 N6 1_555 1_555
C43 C39 1_555 1_555
C44 C40 1_555 1_555
C45 C49 1_555 1_555
H24 C41 1_555 1_555
C46 C42 1_555 1_555
C47 C43 1_555 1_555
H25 C43 1_555 1_555
C48 C44 1_555 1_555
C49 C46 1_555 1_555
H26 C45 1_555 1_555
C50 C46 1_555 1_555
H27 C47 1_555 1_555
H28 C48 1_555 1_555
H29 C49 1_555 1_555
H30 C50 1_555 1_555
O3_2 C27 1_555 1_555
Co1_2 O3_2 1_555 1_555
Co2_2 O7 1_555 1_555
Co2_3 N4 1_555 1_555
O8_2 Co2_3 1_555 1_555
O5_2 Co2_3 1_555 1_555
O7_2 Co2_3 1_555 1_555
O2 C7 1_555 1_555
C2 C4 1_555 1_555
C11 C17 1_555 1_555
C13 C19 1_555 1_555
C16 C18 1_555 1_555
C24 C28 1_555 1_555
C31 C35 1_555 1_555
C38 N4 1_555 1_555
O8 Co2_2 1_555 1_555
N5 Co2_3 1_555 1_555
N6 Co2_3 1_555 1_555
C40 C42 1_555 1_555
C44 C47 1_555 1_555
C48 C50 1_555 1_555

#END
