
#######################################################################
#
#                 Cambridge Crystallographic Data Centre
#                                CCDC 
#
#######################################################################
#
# If this CIF has been generated from an entry in the Cambridge 
# Structural Database, then it will include bibliographic, chemical, 
# crystal, experimental, refinement or atomic coordinate data resulting 
# from the CCDC's data processing and validation procedures.
#
#######################################################################

data_OFANOA
_symmetry_cell_setting           triclinic
_symmetry_space_group_name_H-M   'P -1'
_symmetry_Int_Tables_number      2
_space_group_name_Hall           '-P 1'
loop_
_symmetry_equiv_pos_site_id
_symmetry_equiv_pos_as_xyz
1 x,y,z
2 -x,-y,-z
_cell_length_a                   10.220(15)
_cell_length_b                   13.41(2)
_cell_length_c                   15.08(2)
_cell_angle_alpha                76.59(2)
_cell_angle_beta                 78.429(17)
_cell_angle_gamma                86.24(2)
_cell_volume                     1969.12
loop_
_atom_site_label
_atom_site_type_symbol
_atom_site_fract_x
_atom_site_fract_y
_atom_site_fract_z
Co1 Co -0.05940(13) 0.46524(12) 0.74486(9)
N1 N -0.0625(8) 0.3315(8) 0.8538(6)
N2 N -0.1249(8) 0.5184(8) 0.8641(6)
N3 N -0.0314(7) 0.6026(7) 0.6437(5)
O1 O 0.1098(6) 0.4030(6) 0.6786(5)
O2 O -0.2016(6) 0.4125(6) 0.6937(5)
C1 C -0.0291(11) 0.2373(11) 0.8412(9)
C2 C -0.0884(10) 0.3448(10) 0.9397(8)
C3 C -0.1271(10) 0.4491(10) 0.9448(8)
C4 C -0.1684(10) 0.6140(10) 0.8648(8)
C5 C 0.0326(9) 0.6860(9) 0.6489(7)
C6 C -0.0683(10) 0.6106(9) 0.5611(7)
C7 C 0.1974(10) 0.4384(9) 0.7086(7)
H1 H -0.0115 0.2268 0.7810
C8 C -0.0196(12) 0.1541(11) 0.9146(10)
C9 C -0.0832(11) 0.2675(11) 1.0179(9)
C10 C -0.1706(10) 0.4828(10) 1.0287(8)
C11 C -0.2111(10) 0.6491(10) 0.9452(8)
H2 H -0.1701 0.6596 0.8082
C12 C 0.0585(9) 0.7742(9) 0.5793(7)
H3 H 0.0618 0.6838 0.7039
H4 H -0.1144 0.5562 0.5542
C13 C -0.0439(10) 0.6894(9) 0.4894(7)
O3 O 0.1722(6) 0.4973(6) 0.7620(5)
C14 C 0.3399(9) 0.4099(8) 0.6760(7)
H5 H 0.0059 0.0890 0.9050
C15 C -0.0498(12) 0.1732(12) 1.0016(10)
H6 H -0.1014 0.2796 1.0774
H7 H -0.1725 0.4368 1.0855
C16 C -0.2091(11) 0.5814(11) 1.0262(9)
H8 H -0.2400 0.7166 0.9435
C17 C 0.0166(9) 0.7776(9) 0.4974(7)
H9 H 0.1025 0.8289 0.5877
H10 H -0.0668 0.6868 0.4333
C18 C 0.4425(9) 0.4433(8) 0.7055(7)
C19 C 0.3703(10) 0.3531(8) 0.6092(7)
H11 H -0.0473 0.1186 1.0522
H12 H -0.2348 0.6030 1.0815
C20 C 0.0352(9) 0.8671(8) 0.4225(7)
H13 H 0.4228 0.4840 0.7489
C21 C 0.5737(10) 0.4199(8) 0.6746(7)
C22 C 0.5025(9) 0.3291(8) 0.5716(7)
H14 H 0.3010 0.3298 0.5882
C23 C -0.0749(9) 0.9075(8) 0.3829(7)
C24 C 0.1539(9) 0.9188(9) 0.3880(7)
C25 C 0.6025(10) 0.3623(8) 0.6073(7)
C26 C 0.6859(11) 0.4502(10) 0.7131(8)
C27 C 0.5256(9) 0.2710(8) 0.4997(7)
C28 C -0.0678(9) 0.9951(9) 0.3131(7)
H15 H -0.1559 0.8740 0.4045
C29 C 0.1646(9) 1.0071(9) 0.3167(7)
H16 H 0.2289 0.8940 0.4131
H17 H 0.6911 0.3456 0.5856
O4 O 0.6575(8) 0.5143(7) 0.7625(6)
C30 C 0.4547(10) 0.1826(9) 0.5073(7)
C31 C 0.6141(9) 0.3038(8) 0.4181(7)
C32 C 0.0533(9) 1.0454(9) 0.2802(7)
C33 C -0.1908(10) 1.0395(10) 0.2796(7)
C34 C 0.2956(11) 1.0597(10) 0.2772(8)
H18 H 0.3973 0.1553 0.5627
C35 C 0.4686(10) 0.1369(9) 0.4359(7)
C36 C 0.6238(10) 0.2508(9) 0.3482(7)
H19 H 0.6667 0.3605 0.4099
H20 H 0.0591 1.1049 0.2335
O5 O -0.2960(6) 0.9857(6) 0.3114(5)
O6 O -0.1862(7) 1.1210(6) 0.2217(5)
O7 O 0.3976(6) 1.0136(6) 0.3022(5)
O8 O 0.2974(8) 1.1411(7) 0.2219(6)
N4 N 0.5503(8) 0.1708(7) 0.3525(6)
H21 H 0.4195 0.0784 0.4437
H22 H 0.6864 0.2729 0.2942
Co2 Co -0.42858(13) 1.08488(11) 0.24873(9)
N5 N 0.5685(8) 0.1996(8) 0.1317(6)
N6 N 0.6153(8) 0.0071(8) 0.1385(6)
C37 C 0.6017(10) 0.1733(10) 0.0501(8)
C38 C 0.5325(11) 0.2971(10) 0.1336(8)
C39 C 0.6340(11) -0.0954(11) 0.1501(9)
C40 C 0.6320(10) 0.0653(10) 0.0527(8)
C41 C 0.6014(10) 0.2461(10) -0.0325(8)
C42 C 0.5321(11) 0.3695(10) 0.0568(8)
H23 H 0.5070 0.3148 0.1908
C43 C 0.6754(12) -0.1372(11) 0.0739(9)
H24 H 0.6190 -0.1375 0.2095
C44 C 0.6709(11) 0.0280(11) -0.0241(9)
C45 C 0.5677(11) 0.3465(10) -0.0281(9)
H25 H 0.6235 0.2274 -0.0895
H26 H 0.5071 0.4364 0.0612
C46 C 0.6957(12) -0.0776(11) -0.0129(9)
H27 H 0.6897 -0.2077 0.0822
H28 H 0.6811 0.0711 -0.0829
H29 H 0.5694 0.3974 -0.0820
H30 H 0.7256 -0.1061 -0.0642
O2_2 O 0.7984(6) 0.4125(6) 0.6937(5)
Co1_2 Co 0.94060(13) 0.46524(12) 0.74486(9)
Co2_2 Co 0.57142(13) 1.08488(11) 0.24873(9)
Co2_3 Co 0.57142(13) 0.08488(11) 0.24873(9)
O7_2 O 0.3976(6) 0.0136(6) 0.3022(5)
O5_2 O 0.7040(6) -0.0143(6) 0.3114(5)
O9 O 0.3146(17) 0.8144(14) 0.2275(12)
loop_
_geom_bond_atom_site_label_1
_geom_bond_atom_site_label_2
_geom_bond_site_symmetry_1
_geom_bond_site_symmetry_2
Co1 N1 1_555 1_555
N1 C1 1_555 1_555
N2 Co1 1_555 1_555
N3 Co1 1_555 1_555
O1 Co1 1_555 1_555
O2 Co1 1_555 1_555
C1 H1 1_555 1_555
C2 N1 1_555 1_555
C3 N2 1_555 1_555
C4 N2 1_555 1_555
C5 N3 1_555 1_555
C6 N3 1_555 1_555
C7 O1 1_555 1_555
C8 C1 1_555 1_555
C9 C2 1_555 1_555
C10 C3 1_555 1_555
C11 C4 1_555 1_555
H2 C4 1_555 1_555
C12 C5 1_555 1_555
H3 C5 1_555 1_555
H4 C6 1_555 1_555
C13 C6 1_555 1_555
O3 C7 1_555 1_555
C14 C7 1_555 1_555
H5 C8 1_555 1_555
C15 C8 1_555 1_555
H6 C9 1_555 1_555
H7 C10 1_555 1_555
C16 C10 1_555 1_555
H8 C11 1_555 1_555
C17 C12 1_555 1_555
H9 C12 1_555 1_555
H10 C13 1_555 1_555
C18 C14 1_555 1_555
C19 C14 1_555 1_555
H11 C15 1_555 1_555
H12 C16 1_555 1_555
C20 C17 1_555 1_555
H13 C18 1_555 1_555
C21 C18 1_555 1_555
C22 C19 1_555 1_555
H14 C19 1_555 1_555
C23 C20 1_555 1_555
C24 C20 1_555 1_555
C25 C21 1_555 1_555
C26 C21 1_555 1_555
C27 C22 1_555 1_555
C28 C23 1_555 1_555
H15 C23 1_555 1_555
C29 C24 1_555 1_555
H16 C24 1_555 1_555
H17 C25 1_555 1_555
O4 C26 1_555 1_555
C30 C27 1_555 1_555
C31 C27 1_555 1_555
C32 C28 1_555 1_555
C33 C28 1_555 1_555
C34 C29 1_555 1_555
H18 C30 1_555 1_555
C35 C30 1_555 1_555
C36 C31 1_555 1_555
H19 C31 1_555 1_555
H20 C32 1_555 1_555
O5 C33 1_555 1_555
O6 C33 1_555 1_555
O7 C34 1_555 1_555
O8 C34 1_555 1_555
N4 C35 1_555 1_555
H21 C35 1_555 1_555
H22 C36 1_555 1_555
Co2 O5 1_555 1_555
N5 C37 1_555 1_555
N6 C39 1_555 1_555
C37 C40 1_555 1_555
C38 N5 1_555 1_555
C39 C43 1_555 1_555
C40 N6 1_555 1_555
C41 C37 1_555 1_555
C42 C38 1_555 1_555
H23 C38 1_555 1_555
C43 C46 1_555 1_555
H24 C39 1_555 1_555
C44 C40 1_555 1_555
C45 C41 1_555 1_555
H25 C41 1_555 1_555
H26 C42 1_555 1_555
C46 C44 1_555 1_555
H27 C43 1_555 1_555
H28 C44 1_555 1_555
H29 C45 1_555 1_555
H30 C46 1_555 1_555
O2_2 C26 1_555 1_555
Co1_2 O2_2 1_555 1_555
Co2_2 O7 1_555 1_555
Co2_3 N4 1_555 1_555
O7_2 Co2_3 1_555 1_555
O5_2 Co2_3 1_555 1_555
C2 C3 1_555 1_555
C9 C15 1_555 1_555
C11 C16 1_555 1_555
C13 C17 1_555 1_555
C22 C25 1_555 1_555
C29 C32 1_555 1_555
C36 N4 1_555 1_555
N5 Co2_3 1_555 1_555
N6 Co2_3 1_555 1_555
C42 C45 1_555 1_555

#END
