
#######################################################################
#
#                 Cambridge Crystallographic Data Centre
#                                CCDC 
#
#######################################################################
#
# If this CIF has been generated from an entry in the Cambridge 
# Structural Database, then it will include bibliographic, chemical, 
# crystal, experimental, refinement or atomic coordinate data resulting 
# from the CCDC's data processing and validation procedures.
#
#######################################################################

data_OFANEQ
_symmetry_cell_setting           triclinic
_symmetry_space_group_name_H-M   'P -1'
_symmetry_Int_Tables_number      2
_space_group_name_Hall           '-P 1'
loop_
_symmetry_equiv_pos_site_id
_symmetry_equiv_pos_as_xyz
1 x,y,z
2 -x,-y,-z
_cell_length_a                   7.233(3)
_cell_length_b                   10.039(5)
_cell_length_c                   10.219(5)
_cell_angle_alpha                114.141(5)
_cell_angle_beta                 99.715(5)
_cell_angle_gamma                103.757(6)
_cell_volume                     627.385
loop_
_atom_site_label
_atom_site_type_symbol
_atom_site_fract_x
_atom_site_fract_y
_atom_site_fract_z
Ni1 Ni 0.08554(7) 0.87656(6) -0.11572(5)
O1 O 0.1064(4) 0.6689(3) -0.1390(3)
O2 O 0.3122(4) 0.8747(3) 0.0640(3)
O3 O 0.3071(4) 0.8952(4) -0.2201(3)
H1 H 0.4432 0.9431 -0.1781
H2 H 0.2589 0.8854 -0.3035
O4 O 0.1078(5) 0.1388(3) -0.2306(3)
O5 O 0.1116(4) 0.1049(3) -0.0263(3)
C1 C 0.1464(6) 0.1905(4) -0.0936(4)
C2 C 0.2416(5) 0.3625(4) 0.0074(4)
C3 C 0.2049(5) 0.4631(4) -0.0470(4)
H3 H 0.1260 0.4237 -0.1453
C4 C 0.2867(5) 0.6231(4) 0.0462(4)
C5 C 0.4059(5) 0.6818(4) 0.1921(4)
H4 H 0.4575 0.7886 0.2544
C6 C 0.4495(5) 0.5826(4) 0.2468(4)
C7 C 0.3646(5) 0.4224(4) 0.1530(4)
H5 H 0.3907 0.3549 0.1885
C8 C 0.5880(5) 0.6461(4) 0.3997(4)
C9 C 0.5961(6) 0.7828(5) 0.5182(4)
H6 H 0.5079 0.8331 0.5041
C10 C 0.7352(6) 0.8444(5) 0.6574(4)
H7 H 0.7385 0.9365 0.7346
C11 C 0.8523(7) 0.6413(5) 0.5724(4)
H8 H 0.9380 0.5910 0.5912
C12 C 0.7192(6) 0.5736(5) 0.4311(4)
H9 H 0.7166 0.4798 0.3567
C13 C 0.2363(5) 0.7289(4) -0.0128(4)
N1 N 0.8647(5) 0.7775(4) 0.6855(3)
Ni1_2 Ni 0.08554(7) -0.12344(6) -0.11572(5)
Ni1_3 Ni 1.08554(7) 0.87656(6) 0.88428(5)
Ni1A Ni -0.08554(7) 0.12344(6) 0.11572(5)
O5_2 O 0.1116(4) 1.1049(3) -0.0263(3)
O5A O -0.1116(4) 0.8951(3) 0.0263(3)
N1_2 N -0.1353(5) 0.7775(4) -0.3145(3)
O6 O 0.8231(7) 0.0872(5) 0.4832(5)
H10 H 0.8510 0.2008 0.5627
H11 H 0.8994 0.1010 0.5890
loop_
_geom_bond_atom_site_label_1
_geom_bond_atom_site_label_2
_geom_bond_site_symmetry_1
_geom_bond_site_symmetry_2
Ni1 O1 1_555 1_555
O1 C13 1_555 1_555
O2 Ni1 1_555 1_555
O3 Ni1 1_555 1_555
H1 O3 1_555 1_555
H2 O3 1_555 1_555
O4 C1 1_555 1_555
O5 C1 1_555 1_555
C1 C2 1_555 1_555
C2 C3 1_555 1_555
C3 H3 1_555 1_555
C4 C3 1_555 1_555
C5 C4 1_555 1_555
H4 C5 1_555 1_555
C6 C5 1_555 1_555
C7 C2 1_555 1_555
H5 C7 1_555 1_555
C8 C6 1_555 1_555
C9 C8 1_555 1_555
H6 C9 1_555 1_555
C10 C9 1_555 1_555
H7 C10 1_555 1_555
C11 H8 1_555 1_555
C12 C8 1_555 1_555
H9 C12 1_555 1_555
C13 O2 1_555 1_555
N1 C10 1_555 1_555
O6 H10 1_555 1_555
H11 O6 1_555 1_555
Ni1_2 O5 1_555 1_555
Ni1_3 N1 1_555 1_555
Ni1A O5 1_555 1_555
O5_2 Ni1 1_555 1_555
O5A Ni1 1_555 1_555
N1_2 Ni1 1_555 1_555
C4 C13 1_555 1_555
C6 C7 1_555 1_555
C11 C12 1_555 1_555
C11 N1 1_555 1_555

#END
