
#######################################################################
#
#                 Cambridge Crystallographic Data Centre
#                                CCDC 
#
#######################################################################
#
# If this CIF has been generated from an entry in the Cambridge 
# Structural Database, then it will include bibliographic, chemical, 
# crystal, experimental, refinement or atomic coordinate data resulting 
# from the CCDC's data processing and validation procedures.
#
#######################################################################

data_OFAPES
_symmetry_cell_setting           triclinic
_symmetry_space_group_name_H-M   'P -1'
_symmetry_Int_Tables_number      2
_space_group_name_Hall           '-P 1'
loop_
_symmetry_equiv_pos_site_id
_symmetry_equiv_pos_as_xyz
1 x,y,z
2 -x,-y,-z
_cell_length_a                   8.318(10)
_cell_length_b                   10.274(16)
_cell_length_c                   10.462(11)
_cell_angle_alpha                110.180(10)
_cell_angle_beta                 102.095(11)
_cell_angle_gamma                98.619(13)
_cell_volume                     796.161
loop_
_atom_site_label
_atom_site_type_symbol
_atom_site_fract_x
_atom_site_fract_y
_atom_site_fract_z
Pb1 Pb 1.37978(5) 0.31576(4) 0.56213(4)
N1 N 1.0751(13) 0.1923(11) 0.3684(10)
N2 N 1.2016(12) 0.3572(11) 0.7283(10)
O1 O 0.3348(11) 0.0645(9) -0.4213(9)
O2 O 0.5401(10) 0.2476(8) -0.2611(9)
O3 O 0.3285(12) -0.4250(9) -0.4172(9)
O4 O 0.5230(12) -0.4453(9) -0.2504(9)
C1 C 1.0367(17) 0.3544(17) 0.6997(13)
H1 H 0.9731 0.3111 0.6050
C2 C 0.9520(16) 0.4107(18) 0.7991(14)
H2 H 0.8381 0.4097 0.7698
C3 C 1.0385(15) 0.4685(12) 0.9430(11)
C4 C 1.2069(14) 0.4598(12) 0.9716(11)
H3 H 1.2707 0.4926 1.0658
C5 C 1.2838(17) 0.4044(14) 0.8658(13)
H4 H 1.3963 0.4001 0.8917
C6 C 1.019(2) 0.2697(16) 0.2996(16)
H5 H 1.0604 0.3684 0.3420
C7 C 0.902(2) 0.2113(15) 0.1678(15)
H6 H 0.8647 0.2710 0.1248
C8 C 0.8406(14) 0.0649(12) 0.0988(12)
C9 C 0.8997(19) -0.0140(15) 0.1708(16)
H7 H 0.8606 -0.1130 0.1316
C10 C 1.019(2) 0.0537(15) 0.3038(14)
H8 H 1.0616 -0.0030 0.3487
C11 C 0.7103(14) -0.0011(11) -0.0431(11)
C12 C 0.6492(14) 0.0827(12) -0.1130(12)
H9 H 0.6935 0.1811 -0.0723
C13 C 0.5238(14) 0.0229(12) -0.2420(12)
C14 C 0.4543(14) -0.1245(12) -0.3016(11)
H10 H 0.3662 -0.1650 -0.3853
C15 C 0.5162(14) -0.2104(11) -0.2363(11)
C16 C 0.6419(14) -0.1478(12) -0.1068(11)
H11 H 0.6808 -0.2057 -0.0620
C17 C 0.4610(15) 0.1173(12) -0.3134(12)
C18 C 0.4485(16) -0.3722(12) -0.3057(12)
N2A N 0.7984(12) 0.6428(11) 1.2717(10)
C1A C 0.9633(17) 0.6456(17) 1.3003(13)
H1A H 1.0269 0.6889 1.3950
C2A C 1.0480(16) 0.5893(18) 1.2009(14)
H2A H 1.1619 0.5903 1.2302
C3A C 0.9615(15) 0.5315(12) 1.0570(11)
C4A C 0.7931(14) 0.5402(12) 1.0284(11)
H3A H 0.7293 0.5074 0.9342
C5A C 0.7162(17) 0.5956(14) 1.1342(13)
H4A H 0.6037 0.5999 1.1083
Pb1A Pb 0.62022(5) 0.68424(4) 1.43787(4)
N1A N 0.9249(13) 0.8077(11) 1.6316(10)
O1A O 1.6652(11) 0.9355(9) 2.4213(9)
O2A O 1.4599(10) 0.7524(8) 2.2611(9)
O3A O 1.6715(12) 1.4250(9) 2.4172(9)
O4A O 1.4770(12) 1.4453(9) 2.2504(9)
C6A C 0.981(2) 0.7303(16) 1.7004(16)
H5A H 0.9396 0.6316 1.6580
C7A C 1.098(2) 0.7887(15) 1.8322(15)
H6A H 1.1353 0.7290 1.8752
C8A C 1.1594(14) 0.9351(12) 1.9012(12)
C9A C 1.1003(19) 1.0140(15) 1.8292(16)
H7A H 1.1394 1.1130 1.8684
C10A C 0.981(2) 0.9463(15) 1.6962(14)
H8A H 0.9384 1.0030 1.6513
C11A C 1.2897(14) 1.0011(11) 2.0431(11)
C12A C 1.3508(14) 0.9173(12) 2.1130(12)
H9A H 1.3065 0.8189 2.0723
C13A C 1.4762(14) 0.9771(12) 2.2420(12)
C14A C 1.5457(14) 1.1245(12) 2.3016(11)
H10A H 1.6338 1.1650 2.3853
C15A C 1.4838(14) 1.2104(11) 2.2363(11)
C16A C 1.3581(14) 1.1478(12) 2.1068(11)
H11A H 1.3192 1.2057 2.0620
C17A C 1.5390(15) 0.8827(12) 2.3134(12)
C18A C 1.5515(16) 1.3722(12) 2.3057(12)
Pb1_2 Pb 0.37978(5) -0.68424(4) -0.43787(4)
Pb1_3 Pb 0.37978(5) 0.31576(4) -0.43787(4)
Pb1A_2 Pb 1.62022(5) 0.68424(4) 2.43787(4)
Pb1A_3 Pb 1.62022(5) 1.68424(4) 2.43787(4)
O1_2 O 1.3348(11) 0.0645(9) 0.5787(9)
O1A_2 O 0.6652(11) 0.9355(9) 1.4213(9)
O2_2 O 1.5401(10) 0.2476(8) 0.7389(9)
O2A_2 O 0.4599(10) 0.7524(8) 1.2611(9)
O3_2 O 1.3285(12) 0.5750(9) 0.5828(9)
O3A_2 O 0.6715(12) 0.4250(9) 1.4172(9)
O4_2 O 1.5230(12) 0.5547(9) 0.7496(9)
O4A_2 O 0.4770(12) 0.4453(9) 1.2504(9)
loop_
_geom_bond_atom_site_label_1
_geom_bond_atom_site_label_2
_geom_bond_site_symmetry_1
_geom_bond_site_symmetry_2
Pb1 N1 1_555 1_555
N1 C6 1_555 1_555
N2 Pb1 1_555 1_555
O1 C17 1_555 1_555
O2 C17 1_555 1_555
O3 C18 1_555 1_555
O4 C18 1_555 1_555
C1 N2 1_555 1_555
H1 C1 1_555 1_555
C2 C1 1_555 1_555
H2 C2 1_555 1_555
C3 C2 1_555 1_555
C4 C3 1_555 1_555
H3 C4 1_555 1_555
C5 N2 1_555 1_555
H4 C5 1_555 1_555
C6 H5 1_555 1_555
C7 C6 1_555 1_555
H6 C7 1_555 1_555
C8 C7 1_555 1_555
C9 C8 1_555 1_555
H7 C9 1_555 1_555
C10 N1 1_555 1_555
H8 C10 1_555 1_555
C11 C8 1_555 1_555
C12 C11 1_555 1_555
H9 C12 1_555 1_555
C13 C12 1_555 1_555
C14 C13 1_555 1_555
H10 C14 1_555 1_555
C15 C14 1_555 1_555
C16 C11 1_555 1_555
H11 C16 1_555 1_555
C17 C13 1_555 1_555
C18 C15 1_555 1_555
N2A C1A 1_555 1_555
C1A H1A 1_555 1_555
C2A C1A 1_555 1_555
H2A C2A 1_555 1_555
C3A C3 1_555 1_555
C4A C3A 1_555 1_555
H3A C4A 1_555 1_555
C5A N2A 1_555 1_555
H4A C5A 1_555 1_555
Pb1A N2A 1_555 1_555
N1A Pb1A 1_555 1_555
O1A C17A 1_555 1_555
O2A C17A 1_555 1_555
O3A C18A 1_555 1_555
O4A C18A 1_555 1_555
C6A N1A 1_555 1_555
H5A C6A 1_555 1_555
C7A C6A 1_555 1_555
H6A C7A 1_555 1_555
C8A C7A 1_555 1_555
C9A C8A 1_555 1_555
H7A C9A 1_555 1_555
C10A N1A 1_555 1_555
H8A C10A 1_555 1_555
C11A C8A 1_555 1_555
C12A C11A 1_555 1_555
H9A C12A 1_555 1_555
C13A C12A 1_555 1_555
C14A C13A 1_555 1_555
H10A C14A 1_555 1_555
C15A C14A 1_555 1_555
C16A C11A 1_555 1_555
H11A C16A 1_555 1_555
C17A C13A 1_555 1_555
C18A C15A 1_555 1_555
Pb1_2 O3 1_555 1_555
Pb1_3 O1 1_555 1_555
Pb1A_2 O1A 1_555 1_555
Pb1A_3 O3A 1_555 1_555
O1_2 Pb1 1_555 1_555
O1A_2 Pb1A 1_555 1_555
O2_2 Pb1 1_555 1_555
O2A_2 Pb1A 1_555 1_555
O3_2 Pb1 1_555 1_555
O3A_2 Pb1A 1_555 1_555
O4_2 Pb1 1_555 1_555
O4A_2 Pb1A 1_555 1_555
O2 Pb1_3 1_555 1_555
O4 Pb1_2 1_555 1_555
C4 C5 1_555 1_555
C9 C10 1_555 1_555
C15 C16 1_555 1_555
C2A C3A 1_555 1_555
C4A C5A 1_555 1_555
O2A Pb1A_2 1_555 1_555
O4A Pb1A_3 1_555 1_555
C9A C10A 1_555 1_555
C15A C16A 1_555 1_555

#END
