
#######################################################################
#
#                 Cambridge Crystallographic Data Centre
#                                CCDC 
#
#######################################################################
#
# If this CIF has been generated from an entry in the Cambridge 
# Structural Database, then it will include bibliographic, chemical, 
# crystal, experimental, refinement or atomic coordinate data resulting 
# from the CCDC's data processing and validation procedures.
#
#######################################################################

data_OFAPAO
_symmetry_cell_setting           monoclinic
_symmetry_space_group_name_H-M   'P 21/c'
_symmetry_Int_Tables_number      14
_space_group_name_Hall           '-P 2ybc'
loop_
_symmetry_equiv_pos_site_id
_symmetry_equiv_pos_as_xyz
1 x,y,z
2 -x,1/2+y,1/2-z
3 -x,-y,-z
4 x,1/2-y,1/2+z
_cell_length_a                   10.254(4)
_cell_length_b                   13.361(6)
_cell_length_c                   16.140(5)
_cell_angle_alpha                90
_cell_angle_beta                 125.468(18)
_cell_angle_gamma                90
_cell_volume                     1800.92
loop_
_atom_site_label
_atom_site_type_symbol
_atom_site_fract_x
_atom_site_fract_y
_atom_site_fract_z
Ni1 Ni 0.51544(4) 0.18751(3) 0.52517(3)
O1 O 0.3203(3) 0.20236(16) 0.54122(17)
O2 O 0.2856(3) 0.11747(16) 0.41323(17)
O3 O -0.1464(4) 0.2424(3) 0.5619(3)
O4 O -0.3500(2) 0.13665(16) 0.47719(16)
N1 N -0.4300(3) -0.19068(19) 0.0757(2)
N2 N 0.6853(4) 0.2634(2) 0.6550(2)
H1 H 0.7530 0.2954 0.6456
H2 H 0.6381 0.3091 0.6705
N3 N 0.5940(3) 0.0655(2) 0.6232(2)
H3 H 0.5104 0.0356 0.6174
H4 H 0.6418 0.0205 0.6075
C1 C 0.7726(9) 0.1910(4) 0.7372(4)
H5 H 0.8759 0.1802 0.7494
H6 H 0.7926 0.2213 0.7982
C2 C 0.7062(8) 0.1014(4) 0.7259(3)
H7 H 0.6516 0.1035 0.7587
H8 H 0.7918 0.0527 0.7621
C3 C 0.2339(4) 0.1490(2) 0.4636(2)
C4 C 0.0669(4) 0.1210(2) 0.4285(2)
C5 C 0.0039(4) 0.1581(2) 0.4790(2)
H9 H 0.0638 0.2018 0.5335
C6 C -0.1492(4) 0.1296(2) 0.4476(2)
C7 C -0.2364(4) 0.0632(2) 0.3674(2)
H10 H -0.3377 0.0434 0.3475
C8 C -0.1746(4) 0.0254(2) 0.3160(2)
C9 C -0.0223(4) 0.0556(2) 0.3473(2)
H11 H 0.0200 0.0316 0.3135
C10 C -0.2192(4) 0.1730(3) 0.5010(3)
C11 C -0.2663(4) -0.0471(2) 0.2315(2)
C12 C -0.3488(4) -0.1260(3) 0.2376(3)
H12 H -0.3513 -0.1322 0.2941
C13 C -0.4267(4) -0.1947(3) 0.1604(3)
H13 H -0.4802 -0.2470 0.1667
C14 C -0.3525(5) -0.1142(3) 0.0692(3)
H14 H -0.3546 -0.1087 0.0110
C15 C -0.2694(5) -0.0428(3) 0.1444(3)
H15 H -0.2155 0.0082 0.1366
Ni1_2 Ni -0.48456(4) 0.18751(3) 0.52517(3)
Ni1A Ni -0.51544(4) -0.31249(3) -0.02517(3)
O4_2 O 0.6500(2) 0.13665(16) 0.47719(16)
N1A N 0.4300(3) 0.30932(19) 0.4243(2)
O5 O 0.1165(6) 0.3642(3) 0.6923(3)
H16 H 0.1548 0.3629 0.7552
H17 H 0.0374 0.3243 0.6608
O6 O 0.1599(15) 0.5388(7) 0.5193(7)
H18 H 0.2432 0.5068 0.5645
H19 H 0.1876 0.5958 0.5111
O7 O 0.3747(6) 0.3829(3) 0.6599(3)
H20 H 0.3639 0.3316 0.6252
H21 H 0.3036 0.3807 0.6713
loop_
_geom_bond_atom_site_label_1
_geom_bond_atom_site_label_2
_geom_bond_site_symmetry_1
_geom_bond_site_symmetry_2
Ni1 O1 1_555 1_555
O1 C3 1_555 1_555
O2 Ni1 1_555 1_555
O3 C10 1_555 1_555
O4 C10 1_555 1_555
N1 C13 1_555 1_555
N2 Ni1 1_555 1_555
H1 N2 1_555 1_555
H2 N2 1_555 1_555
N3 Ni1 1_555 1_555
H3 N3 1_555 1_555
H4 N3 1_555 1_555
C1 N2 1_555 1_555
H5 C1 1_555 1_555
H6 C1 1_555 1_555
C2 N3 1_555 1_555
H7 C2 1_555 1_555
H8 C2 1_555 1_555
C3 O2 1_555 1_555
C4 C3 1_555 1_555
C5 C4 1_555 1_555
H9 C5 1_555 1_555
C6 C5 1_555 1_555
C7 C6 1_555 1_555
H10 C7 1_555 1_555
C8 C7 1_555 1_555
C9 C4 1_555 1_555
H11 C9 1_555 1_555
C10 C6 1_555 1_555
C11 C8 1_555 1_555
C12 C11 1_555 1_555
H12 C12 1_555 1_555
C13 C12 1_555 1_555
H13 C13 1_555 1_555
C14 N1 1_555 1_555
H14 C14 1_555 1_555
C15 C11 1_555 1_555
H15 C15 1_555 1_555
O5 H16 1_555 1_555
H17 O5 1_555 1_555
O6 H18 1_555 1_555
H19 O6 1_555 1_555
O7 H20 1_555 1_555
H21 O7 1_555 1_555
Ni1_2 O4 1_555 1_555
Ni1A N1 1_555 1_555
O4_2 Ni1 1_555 1_555
N1A Ni1 1_555 1_555
C1 C2 1_555 1_555
C8 C9 1_555 1_555
C14 C15 1_555 1_555

#END
