
#######################################################################
#
#                 Cambridge Crystallographic Data Centre
#                                CCDC 
#
#######################################################################
#
# If this CIF has been generated from an entry in the Cambridge 
# Structural Database, then it will include bibliographic, chemical, 
# crystal, experimental, refinement or atomic coordinate data resulting 
# from the CCDC's data processing and validation procedures.
#
#######################################################################

data_OFAYUP
_symmetry_cell_setting           orthorhombic
_symmetry_space_group_name_H-M   'P n a 21'
_symmetry_Int_Tables_number      33
_space_group_name_Hall           'P 2c -2n'
loop_
_symmetry_equiv_pos_site_id
_symmetry_equiv_pos_as_xyz
1 x,y,z
2 -x,-y,1/2+z
3 1/2-x,1/2+y,1/2+z
4 1/2+x,1/2-y,z
_cell_length_a                   14.723(5)
_cell_length_b                   13.829(5)
_cell_length_c                   8.002(5)
_cell_angle_alpha                90
_cell_angle_beta                 90
_cell_angle_gamma                90
_cell_volume                     1629.24
loop_
_atom_site_label
_atom_site_type_symbol
_atom_site_fract_x
_atom_site_fract_y
_atom_site_fract_z
Cu1 Cu -0.46171(2) 0.13730(3) 0.12367(5)
N1 N -0.5273(2) -0.0109(2) 0.1804(4)
N2 N -0.5541(2) -0.0545(2) 0.2943(4)
N3 N -0.5853(2) -0.1027(2) 0.4018(4)
C1 C -0.2738(2) 0.0516(3) 0.1829(4)
H1 H -0.2735 0.0347 0.0704
C2 C -0.2006(2) 0.0257(3) 0.2825(4)
H2 H -0.1517 -0.0078 0.2370
C3 C -0.2010(2) 0.0500(3) 0.4503(4)
H3 H -0.1528 0.0327 0.5192
C4 C -0.2747(2) 0.1009(2) 0.5142(4)
H4 H -0.2768 0.1184 0.6263
C5 C -0.3451(2) 0.1249(2) 0.4069(4)
C6 C -0.4285(2) 0.1756(2) 0.4593(4)
H5 H -0.4357 0.1998 0.5669
N4 N -0.3449(2) 0.1001(2) 0.2444(3)
C7 C -0.5781(2) 0.2304(3) 0.3722(4)
H6 H -0.5712 0.2999 0.3818
H7 H -0.6072 0.2064 0.4727
N5 N -0.48977(19) 0.18425(19) 0.3491(3)
C8 C -0.6343(2) 0.2050(3) 0.2184(4)
H8 H -0.6575 0.1396 0.2293
H9 H -0.6858 0.2485 0.2107
N6 N -0.5784(2) 0.2126(2) 0.0624(3)
C9 C -0.6289(2) 0.1671(3) -0.0799(4)
H10 H -0.6410 0.1001 -0.0517
H11 H -0.5898 0.1673 -0.1774
C10 C -0.7183(2) 0.2151(3) -0.1266(5)
H12 H -0.7599 0.2102 -0.0346
H13 H -0.7436 0.1834 -0.2226
H14 H -0.7077 0.2820 -0.1520
C11 C -0.5564(2) 0.3165(3) 0.0278(4)
H15 H -0.5235 0.3424 0.1229
H16 H -0.6128 0.3522 0.0182
C12 C -0.5007(3) 0.3339(3) -0.1281(5)
H17 H -0.4476 0.2937 -0.1259
H18 H -0.4827 0.4006 -0.1326
H19 H -0.5364 0.3186 -0.2249
N3A N -0.4147(2) 0.1027(2) -0.0982(4)
Cu1A Cu -0.53829(2) -0.13730(3) 0.62367(5)
Cl1 Cl -0.35576(6) -0.59388(6) -0.63662(10)
O1 O -0.36155(19) -0.6462(2) -0.7923(3)
O2 O -0.2985(2) -0.6467(2) -0.5226(4)
O3 O -0.3173(2) -0.4999(2) -0.6660(3)
O4 O -0.4445(2) -0.5825(2) -0.5648(5)
loop_
_geom_bond_atom_site_label_1
_geom_bond_atom_site_label_2
_geom_bond_site_symmetry_1
_geom_bond_site_symmetry_2
Cu1 N1 1_555 1_555
N1 N2 1_555 1_555
N2 N3 1_555 1_555
N3 Cu1A 1_555 1_555
C1 H1 1_555 1_555
C2 C1 1_555 1_555
H2 C2 1_555 1_555
C3 C2 1_555 1_555
H3 C3 1_555 1_555
C4 C3 1_555 1_555
H4 C4 1_555 1_555
C5 C4 1_555 1_555
C6 C5 1_555 1_555
H5 C6 1_555 1_555
N4 Cu1 1_555 1_555
C7 H6 1_555 1_555
H7 C7 1_555 1_555
N5 Cu1 1_555 1_555
C8 C7 1_555 1_555
H8 C8 1_555 1_555
H9 C8 1_555 1_555
N6 Cu1 1_555 1_555
C9 N6 1_555 1_555
H10 C9 1_555 1_555
H11 C9 1_555 1_555
C10 C9 1_555 1_555
H12 C10 1_555 1_555
H13 C10 1_555 1_555
H14 C10 1_555 1_555
C11 N6 1_555 1_555
H15 C11 1_555 1_555
H16 C11 1_555 1_555
C12 C11 1_555 1_555
H17 C12 1_555 1_555
H18 C12 1_555 1_555
H19 C12 1_555 1_555
Cl1 O1 1_555 1_555
O2 Cl1 1_555 1_555
O3 Cl1 1_555 1_555
O4 Cl1 1_555 1_555
N3A Cu1 1_555 1_555
C1 N4 1_555 1_555
C5 N4 1_555 1_555
C6 N5 1_555 1_555
C7 N5 1_555 1_555
C8 N6 1_555 1_555

#END
