
#######################################################################
#
#                 Cambridge Crystallographic Data Centre
#                                CCDC 
#
#######################################################################
#
# If this CIF has been generated from an entry in the Cambridge 
# Structural Database, then it will include bibliographic, chemical, 
# crystal, experimental, refinement or atomic coordinate data resulting 
# from the CCDC's data processing and validation procedures.
#
#######################################################################

data_OFAYOJ
_symmetry_cell_setting           orthorhombic
_symmetry_space_group_name_H-M   'P 21 21 21'
_symmetry_Int_Tables_number      19
_space_group_name_Hall           'P 2ac 2ab'
loop_
_symmetry_equiv_pos_site_id
_symmetry_equiv_pos_as_xyz
1 x,y,z
2 1/2-x,-y,1/2+z
3 -x,1/2+y,1/2-z
4 1/2+x,1/2-y,-z
_cell_length_a                   7.434(3)
_cell_length_b                   12.047(4)
_cell_length_c                   17.404(6)
_cell_angle_alpha                90
_cell_angle_beta                 90
_cell_angle_gamma                90
_cell_volume                     1558.66
loop_
_atom_site_label
_atom_site_type_symbol
_atom_site_fract_x
_atom_site_fract_y
_atom_site_fract_z
Cl1 Cl -0.4431(2) -0.12095(11) 0.15870(7)
O1 O -0.2700(5) -0.1039(4) 0.1267(2)
O2 O -0.4352(6) -0.2052(4) 0.2156(3)
O3 O -0.5682(5) -0.1521(3) 0.1003(3)
O4 O -0.5050(7) -0.0198(4) 0.1921(2)
Cu1 Cu -0.21830(7) 0.07271(4) 0.01441(3)
N1 N -0.4740(5) 0.1070(3) 0.0091(3)
N2 N -0.5443(5) 0.1895(3) 0.0300(2)
N3 N -0.6222(6) 0.2669(4) 0.0511(2)
N4 N -0.1424(5) 0.1448(3) 0.1161(2)
C1 C -0.2271(7) 0.2150(4) 0.1613(3)
H1 H -0.3444(7) 0.2353(4) 0.1492(3)
C2 C -0.1471(7) 0.2600(5) 0.2269(3)
H2 H -0.2117(7) 0.3085(5) 0.2580(3)
C3 C 0.0212(8) 0.2335(6) 0.2449(3)
H3 H 0.0768(8) 0.2651(6) 0.2875(3)
C4 C 0.1122(7) 0.1584(5) 0.1993(3)
H4 H 0.2288(7) 0.1369(5) 0.2117(3)
C5 C 0.0289(6) 0.1158(4) 0.1355(3)
C6 C 0.1133(6) 0.0383(4) 0.0824(3)
H5 H 0.2298(6) 0.0126(4) 0.0901(3)
N5 N 0.0210(5) 0.0078(3) 0.0257(2)
C7 C 0.0764(7) -0.0694(5) -0.0346(3)
H6 H 0.0533(7) -0.1453(5) -0.0189(3)
H7 H 0.2039(7) -0.0615(5) -0.0451(3)
C8 C -0.0314(7) -0.0413(5) -0.1047(3)
H8 H 0.0172(7) 0.0250(5) -0.1286(3)
H9 H -0.0234(7) -0.1016(5) -0.1415(3)
N6 N -0.2234(6) -0.0223(3) -0.0838(2)
C9 C -0.3164(8) -0.1285(4) -0.0655(3)
H10 H -0.2532(28) -0.1658(15) -0.0249(15)
H11 H -0.3185(43) -0.1748(13) -0.1104(7)
H12 H -0.4374(17) -0.1132(5) -0.0494(19)
C10 C -0.3184(9) 0.0317(5) -0.1484(3)
H13 H -0.3167(44) -0.0164(14) -0.1923(7)
H14 H -0.2595(31) 0.1003(16) -0.1608(14)
H15 H -0.4407(17) 0.0464(28) -0.1339(8)
N3C N -0.1222(6) 0.2331(4) -0.0511(2)
Cu1C Cu -0.71830(7) 0.42729(4) -0.01441(3)
loop_
_geom_bond_atom_site_label_1
_geom_bond_atom_site_label_2
_geom_bond_site_symmetry_1
_geom_bond_site_symmetry_2
Cl1 O1 1_555 1_555
O2 Cl1 1_555 1_555
O3 Cl1 1_555 1_555
O4 Cl1 1_555 1_555
Cu1 N1 1_555 1_555
N1 N2 1_555 1_555
N2 N3 1_555 1_555
N3 Cu1C 1_555 1_555
N4 Cu1 1_555 1_555
C1 N4 1_555 1_555
H1 C1 1_555 1_555
C2 C1 1_555 1_555
H2 C2 1_555 1_555
C3 C2 1_555 1_555
H3 C3 1_555 1_555
C4 C3 1_555 1_555
H4 C4 1_555 1_555
C5 N4 1_555 1_555
C6 C5 1_555 1_555
H5 C6 1_555 1_555
N5 Cu1 1_555 1_555
C7 N5 1_555 1_555
H6 C7 1_555 1_555
H7 C7 1_555 1_555
C8 C7 1_555 1_555
H8 C8 1_555 1_555
H9 C8 1_555 1_555
N6 Cu1 1_555 1_555
C9 N6 1_555 1_555
H10 C9 1_555 1_555
H11 C9 1_555 1_555
H12 C9 1_555 1_555
C10 N6 1_555 1_555
H13 C10 1_555 1_555
H14 C10 1_555 1_555
H15 C10 1_555 1_555
N3C Cu1 1_555 1_555
C4 C5 1_555 1_555
C6 N5 1_555 1_555
C8 N6 1_555 1_555

#END
