
#######################################################################
#
#                 Cambridge Crystallographic Data Centre
#                                CCDC 
#
#######################################################################
#
# If this CIF has been generated from an entry in the Cambridge 
# Structural Database, then it will include bibliographic, chemical, 
# crystal, experimental, refinement or atomic coordinate data resulting 
# from the CCDC's data processing and validation procedures.
#
#######################################################################

data_OFAYUP01
_symmetry_cell_setting           orthorhombic
_symmetry_space_group_name_H-M   'P n a 21'
_symmetry_Int_Tables_number      33
_space_group_name_Hall           'P 2c -2n'
loop_
_symmetry_equiv_pos_site_id
_symmetry_equiv_pos_as_xyz
1 x,y,z
2 -x,-y,1/2+z
3 1/2+x,1/2-y,z
4 1/2-x,1/2+y,1/2+z
_cell_length_a                   14.690(1)
_cell_length_b                   14.120(2)
_cell_length_c                   8.041(2)
_cell_angle_alpha                90
_cell_angle_beta                 90
_cell_angle_gamma                90
_cell_volume                     1667.89
loop_
_atom_site_label
_atom_site_type_symbol
_atom_site_fract_x
_atom_site_fract_y
_atom_site_fract_z
Cu1 Cu 0.96131(2) 0.63513(3) 0.60164(6)
N1 N 0.8434(2) 0.6005(2) 0.4810(4)
N2 N 0.98922(19) 0.6821(2) 0.3780(4)
N3 N 1.0786(2) 0.7085(2) 0.6637(3)
N4 N 0.9140(2) 0.5999(3) 0.8208(4)
N5 N 0.9454(2) 0.5524(2) 0.9277(4)
N6 N 0.9718(2) 0.5102(3) 1.0420(5)
C1 C 0.8447(2) 0.6251(2) 0.3181(4)
C2 C 0.7741(3) 0.6032(3) 0.2113(5)
H1 H 0.7768 0.6203 0.0997
C3 C 0.6992(3) 0.5553(3) 0.2736(5)
H2 H 0.6502 0.5406 0.2051
C4 C 0.6987(3) 0.5297(3) 0.4394(5)
H3 H 0.6497 0.4963 0.4831
C5 C 0.7710(2) 0.5541(3) 0.5395(5)
H4 H 0.7694 0.5378 0.6515
C6 C 0.9285(3) 0.6738(3) 0.2680(4)
H5 H 0.9364 0.6972 0.1609
C7 C 1.0779(2) 0.7285(3) 0.3556(5)
H6 H 1.0706 0.7966 0.3485
H7 H 1.1072 0.7062 0.2547
C8 C 1.1345(3) 0.7018(3) 0.5084(5)
H8 H 1.1572 0.6377 0.4959
H9 H 1.1864 0.7440 0.5170
C9 C 1.0562(3) 0.8102(3) 0.7007(5)
H10 H 1.0238 0.8364 0.6061
H11 H 1.1127 0.8451 0.7121
C10 C 0.9996(3) 0.8266(3) 0.8548(6)
H12 H 0.9471 0.7861 0.8523
H13 H 0.9803 0.8916 0.8584
H14 H 1.0353 0.8126 0.9517
C11 C 1.1294(2) 0.6641(3) 0.8043(5)
H15 H 1.1410 0.5984 0.7765
H16 H 1.0906 0.6648 0.9019
C12 C 1.2192(3) 0.7101(3) 0.8496(6)
H17 H 1.2597 0.7072 0.7560
H18 H 1.2459 0.6772 0.9420
H19 H 1.2090 0.7751 0.8794
Cu1A Cu 1.03869(2) 0.36487(3) 1.10164(6)
N6A N 1.0282(2) 0.4898(3) 0.5420(5)
Cl1 Cl 0.85924(7) 0.90757(7) 0.36040(13)
O1 O 0.8048(3) 0.8563(3) 0.2458(5)
O2 O 0.8624(2) 0.8550(3) 0.5112(4)
O3 O 0.9476(3) 0.9204(3) 0.2964(7)
O4 O 0.8190(3) 0.9978(2) 0.3890(4)
loop_
_geom_bond_atom_site_label_1
_geom_bond_atom_site_label_2
_geom_bond_site_symmetry_1
_geom_bond_site_symmetry_2
Cu1 N1 1_555 1_555
Cl1 O1 1_555 1_555
O2 Cl1 1_555 1_555
O3 Cl1 1_555 1_555
O4 Cl1 1_555 1_555
N1 C1 1_555 1_555
N2 Cu1 1_555 1_555
N3 Cu1 1_555 1_555
N4 Cu1 1_555 1_555
N5 N4 1_555 1_555
N6 N5 1_555 1_555
C1 C2 1_555 1_555
C2 H1 1_555 1_555
C3 C2 1_555 1_555
H2 C3 1_555 1_555
C4 C3 1_555 1_555
H3 C4 1_555 1_555
C5 N1 1_555 1_555
H4 C5 1_555 1_555
C6 N2 1_555 1_555
H5 C6 1_555 1_555
C7 N2 1_555 1_555
H6 C7 1_555 1_555
H7 C7 1_555 1_555
C8 N3 1_555 1_555
H8 C8 1_555 1_555
H9 C8 1_555 1_555
C9 N3 1_555 1_555
H10 C9 1_555 1_555
H11 C9 1_555 1_555
C10 C9 1_555 1_555
H12 C10 1_555 1_555
H13 C10 1_555 1_555
H14 C10 1_555 1_555
C11 N3 1_555 1_555
H15 C11 1_555 1_555
H16 C11 1_555 1_555
C12 C11 1_555 1_555
H17 C12 1_555 1_555
H18 C12 1_555 1_555
H19 C12 1_555 1_555
Cu1A N6 1_555 1_555
N6A Cu1 1_555 1_555
C1 C6 1_555 1_555
C4 C5 1_555 1_555
C7 C8 1_555 1_555

#END
