
#######################################################################
#
#                 Cambridge Crystallographic Data Centre
#                                CCDC 
#
#######################################################################
#
# If this CIF has been generated from an entry in the Cambridge 
# Structural Database, then it will include bibliographic, chemical, 
# crystal, experimental, refinement or atomic coordinate data resulting 
# from the CCDC's data processing and validation procedures.
#
#######################################################################

data_OFAZAW
_symmetry_cell_setting           orthorhombic
_symmetry_space_group_name_H-M   'P n a 21'
_symmetry_Int_Tables_number      33
_space_group_name_Hall           'P 2c -2n'
loop_
_symmetry_equiv_pos_site_id
_symmetry_equiv_pos_as_xyz
1 x,y,z
2 -x,-y,1/2+z
3 1/2+x,1/2-y,z
4 1/2-x,1/2+y,1/2+z
_cell_length_a                   13.8375(15)
_cell_length_b                   14.804(2)
_cell_length_c                   8.050(4)
_cell_angle_alpha                90
_cell_angle_beta                 90
_cell_angle_gamma                90
_cell_volume                     1649.05
loop_
_atom_site_label
_atom_site_type_symbol
_atom_site_fract_x
_atom_site_fract_y
_atom_site_fract_z
Cu1 Cu -0.04392(5) 0.12184(4) 0.33033(15)
N1 N 0.0377(4) -0.0075(4) 0.2733(9)
N2 N 0.0647(4) -0.0471(3) 0.1603(8)
N3 N 0.0957(4) -0.0916(5) 0.0489(9)
N4 N -0.1665(4) 0.0851(3) 0.2095(8)
N5 N 0.0700(5) 0.2027(4) 0.4030(9)
N6 N -0.0156(4) 0.1703(4) 0.1119(9)
C1 C -0.2413(5) 0.0372(4) 0.2694(11)
H1 H -0.2408 0.0175 0.3791
C2 C -0.3205(5) 0.0171(5) 0.1658(11)
H2 H -0.3721 -0.0163 0.2074
C3 C -0.3221(5) 0.0462(5) 0.0047(12)
H3 H -0.3748 0.0341 -0.0634
C4 C -0.2429(5) 0.0944(4) -0.0550(10)
H4 H -0.2414 0.1140 -0.1647
C5 C -0.1677(5) 0.1124(4) 0.0487(9)
C6 C -0.0787(5) 0.1629(4) 0.0009(9)
H5 H -0.0705 0.1873 -0.1046
C7 C 0.0265(7) 0.2731(6) 0.5224(19)
H6 H -0.0139 0.3141 0.4589
H7 H -0.0148 0.2421 0.6014
C8 C 0.0962(9) 0.3253(6) 0.613(2)
H8 H 0.1322 0.3628 0.5357
H9 H 0.0629 0.3649 0.6899
O1 O 0.1593(6) 0.2714(4) 0.6989(9)
C9 C 0.2120(6) 0.2110(6) 0.5880(15)
H10 H 0.2508 0.2463 0.5115
H11 H 0.2551 0.1730 0.6525
C10 C 0.1452(5) 0.1547(5) 0.4952(13)
H12 H 0.1141 0.1134 0.5721
H13 H 0.1821 0.1186 0.4172
C11 C 0.0789(7) 0.2135(8) 0.0988(14)
H14 H 0.1255 0.1707 0.0553
H15 H 0.0751 0.2641 0.0225
C12 C 0.1078(10) 0.2427(13) 0.2490(16)
H16 H 0.0939 0.3069 0.2537
H17 H 0.1775 0.2366 0.2525
N3A N -0.0957(4) 0.0916(5) 0.5489(9)
Cu1A Cu 0.04392(5) -0.12184(4) -0.16967(15)
Cl1 Cl 0.36014(14) 0.10609(12) 0.1189(3)
O2 O 0.4470(5) 0.0607(5) 0.157(2)
O3 O 0.2829(5) 0.0410(4) 0.1390(11)
O4 O 0.3524(10) 0.1451(6) -0.0364(13)
O5 O 0.3528(5) 0.1756(4) 0.2412(11)
loop_
_geom_bond_atom_site_label_1
_geom_bond_atom_site_label_2
_geom_bond_site_symmetry_1
_geom_bond_site_symmetry_2
Cu1 N1 1_555 1_555
N1 N2 1_555 1_555
N2 N3 1_555 1_555
N3 Cu1A 1_555 1_555
N4 Cu1 1_555 1_555
N5 Cu1 1_555 1_555
N6 Cu1 1_555 1_555
C1 N4 1_555 1_555
H1 C1 1_555 1_555
C2 C1 1_555 1_555
H2 C2 1_555 1_555
C3 C2 1_555 1_555
H3 C3 1_555 1_555
C4 C3 1_555 1_555
H4 C4 1_555 1_555
C5 N4 1_555 1_555
C6 N6 1_555 1_555
H5 C6 1_555 1_555
C7 N5 1_555 1_555
H6 C7 1_555 1_555
H7 C7 1_555 1_555
C8 C7 1_555 1_555
H8 C8 1_555 1_555
H9 C8 1_555 1_555
O1 C8 1_555 1_555
C9 O1 1_555 1_555
H10 C9 1_555 1_555
H11 C9 1_555 1_555
C10 N5 1_555 1_555
H12 C10 1_555 1_555
H13 C10 1_555 1_555
C11 N6 1_555 1_555
H14 C11 1_555 1_555
H15 C11 1_555 1_555
C12 N5 1_555 1_555
H16 C12 1_555 1_555
H17 C12 1_555 1_555
Cl1 O2 1_555 1_555
O3 Cl1 1_555 1_555
O4 Cl1 1_555 1_555
O5 Cl1 1_555 1_555
N3A Cu1 1_555 1_555
C4 C5 1_555 1_555
C5 C6 1_555 1_555
C9 C10 1_555 1_555
C11 C12 1_555 1_555

#END
