
#######################################################################
#
#                 Cambridge Crystallographic Data Centre
#                                CCDC 
#
#######################################################################
#
# If this CIF has been generated from an entry in the Cambridge 
# Structural Database, then it will include bibliographic, chemical, 
# crystal, experimental, refinement or atomic coordinate data resulting 
# from the CCDC's data processing and validation procedures.
#
#######################################################################

data_OFEFOU
_symmetry_cell_setting           monoclinic
_symmetry_space_group_name_H-M   'P 21/n'
_symmetry_Int_Tables_number      14
_space_group_name_Hall           '-P 2yn'
loop_
_symmetry_equiv_pos_site_id
_symmetry_equiv_pos_as_xyz
1 x,y,z
2 1/2+x,1/2-y,1/2+z
3 -x,-y,-z
4 1/2-x,1/2+y,1/2-z
_cell_length_a                   13.419(5)
_cell_length_b                   22.246(8)
_cell_length_c                   30.217(10)
_cell_angle_alpha                90
_cell_angle_beta                 96.647(6)
_cell_angle_gamma                90
_cell_volume                     8959.72
loop_
_atom_site_label
_atom_site_type_symbol
_atom_site_fract_x
_atom_site_fract_y
_atom_site_fract_z
N9 N 0.6701(7) 0.7958(4) 0.3187(2)
C73 C 0.6644(10) 0.8593(5) 0.3198(4)
H49 H 0.6972 0.8811 0.2986
C74 C 0.6159(13) 0.8909(6) 0.3486(5)
H50 H 0.6167 0.9336 0.3481
C75 C 0.5642(12) 0.8602(7) 0.3792(4)
H51 H 0.5307 0.8816 0.4003
C76 C 0.5627(8) 0.7992(4) 0.3782(3)
H52 H 0.5251 0.7778 0.3978
C77 C 0.6148(7) 0.7681(4) 0.3490(3)
C78 C 0.6099(7) 0.7016(4) 0.3480(3)
C79 C 0.5485(7) 0.6732(4) 0.3727(3)
H53 H 0.5086 0.6960 0.3904
C80 C 0.5417(8) 0.6126(5) 0.3730(3)
H54 H 0.4962 0.5934 0.3902
C81 C 0.6010(9) 0.5787(4) 0.3481(3)
H55 H 0.5969 0.5360 0.3488
C82 C 0.6653(9) 0.6058(5) 0.3227(3)
H56 H 0.7046 0.5821 0.3051
N10 N 0.6739(7) 0.6701(5) 0.3224(3)
N11 N 0.1723(7) 0.3359(5) 0.5738(2)
C83 C 0.1604(9) 0.4003(5) 0.5762(3)
H57 H 0.1990 0.4257 0.5595
C84 C 0.0953(9) 0.4247(5) 0.6017(4)
H58 H 0.0873 0.4670 0.6033
C85 C 0.0414(9) 0.3867(6) 0.6250(3)
H59 H -0.0041 0.4038 0.6433
C86 C 0.0486(7) 0.3276(4) 0.6236(3)
H60 H 0.0092 0.3035 0.6409
C87 C 0.1098(7) 0.3021(4) 0.5987(3)
C88 C 0.1144(8) 0.2349(4) 0.5983(3)
C89 C 0.0634(8) 0.2033(5) 0.6262(3)
H61 H 0.0273 0.2226 0.6474
C90 C 0.0662(10) 0.1390(6) 0.6223(3)
H62 H 0.0299 0.1140 0.6402
C91 C 0.1242(10) 0.1144(5) 0.5912(4)
H63 H 0.1275 0.0719 0.5883
C92 C 0.1755(9) 0.1493(6) 0.5650(4)
H64 H 0.2159 0.1308 0.5450
N12 N 0.1705(7) 0.2108(5) 0.5668(3)
C93 C 0.2501(8) 0.3127(2) 0.1242(3)
C94 C 0.1997(7) 0.3455(4) 0.0894(2)
C95 C 0.2016(9) 0.4079(4) 0.0905(3)
C96 C 0.2540(11) 0.4377(2) 0.1264(4)
C97 C 0.3045(9) 0.4049(4) 0.1612(3)
C98 C 0.3025(7) 0.3425(4) 0.1601(2)
C99 C 0.2508(7) 0.25028(19) 0.1253(3)
C100 C 0.2022(6) 0.2252(3) 0.0865(2)
C101 C 0.1940(7) 0.1632(4) 0.0823(3)
C102 C 0.2344(8) 0.12614(19) 0.1169(4)
C103 C 0.2830(7) 0.1512(3) 0.1556(3)
C104 C 0.2912(6) 0.2133(4) 0.1599(2)
Mn1 Mn -0.40125(12) 0.58560(6) 0.10127(3)
N1 N -0.3773(6) 0.6733(3) 0.1398(2)
C1 C -0.3698(7) 0.6768(4) 0.1849(3)
H1 H -0.3696 0.6404 0.2014
C2 C -0.3625(9) 0.7309(5) 0.2086(3)
H2 H -0.3555 0.7321 0.2402
C3 C -0.3660(8) 0.7831(5) 0.1829(4)
H3 H -0.3635 0.8212 0.1971
C4 C -0.3731(7) 0.7799(4) 0.1376(3)
H4 H -0.3729 0.8160 0.1208
C5 C -0.3806(7) 0.7253(4) 0.1154(3)
C6 C -0.3890(8) 0.7187(5) 0.0675(3)
C7 C -0.3874(10) 0.7711(6) 0.0435(4)
H5 H -0.3791 0.8096 0.0570
C8 C -0.3984(11) 0.7628(6) 0.0003(6)
H6 H -0.4002 0.7974 -0.0182
C9 C -0.4077(9) 0.7064(7) -0.0204(3)
H7 H -0.4130 0.7020 -0.0518
C10 C -0.4086(8) 0.6559(4) 0.0087(3)
H8 H -0.4166 0.6167 -0.0037
N2 N -0.3988(6) 0.6626(4) 0.0518(2)
O1 O -0.5766(5) 0.5957(2) 0.10186(15)
O2 O -0.5095(5) 0.5365(3) 0.05469(17)
C11 C -0.5832(8) 0.5617(4) 0.0687(2)
C12 C -0.6878(8) 0.5524(3) 0.0423(2)
C13 C -0.7727(8) 0.5773(3) 0.0577(3)
H9 H -0.7668 0.5998 0.0846
C14 C -0.8660(8) 0.5690(4) 0.0334(3)
H10 H -0.9243 0.5853 0.0439
C15 C -0.8739(8) 0.5369(4) -0.0060(2)
H11 H -0.9375 0.5330 -0.0232
C16 C -0.7902(7) 0.5103(3) -0.0209(2)
C17 C -0.7968(9) 0.4729(4) -0.0631(2)
C18 C -0.6946(7) 0.5196(3) 0.0035(2)
H12 H -0.6360 0.5033 -0.0068
O3 O -0.7214(6) 0.4467(3) -0.07229(17)
O4 O -0.8853(5) 0.4692(2) -0.08441(16)
Mn2 Mn -0.90485(11) 0.41265(5) -0.14073(3)
N3 N -0.9028(6) 0.3316(3) -0.1873(2)
C19 C -0.9145(8) 0.3378(4) -0.2316(3)
H13 H -0.9256 0.3768 -0.2440
C20 C -0.9111(9) 0.2902(6) -0.2597(3)
H14 H -0.9194 0.2963 -0.2911
C21 C -0.8959(10) 0.2340(6) -0.2430(4)
H15 H -0.8924 0.2004 -0.2621
C22 C -0.8856(8) 0.2267(4) -0.1967(4)
H16 H -0.8770 0.1877 -0.1839
C23 C -0.8879(7) 0.2769(4) -0.1694(3)
C24 C -0.8771(7) 0.2737(4) -0.1204(3)
C25 C -0.8660(8) 0.2198(4) -0.0963(3)
H17 H -0.8656 0.1826 -0.1118
C26 C -0.8555(9) 0.2201(5) -0.0502(3)
H18 H -0.8469 0.1836 -0.0338
C27 C -0.8578(8) 0.2742(5) -0.0287(3)
H19 H -0.8519 0.2760 0.0029
C28 C -0.8690(7) 0.3268(4) -0.0543(3)
H20 H -0.8705 0.3642 -0.0392
N4 N -0.8776(6) 0.3272(3) -0.09857(19)
O5 O -0.3773(5) 0.5327(2) 0.15966(15)
O6 O -0.2157(5) 0.5559(3) 0.17194(16)
C29 C -0.2915(8) 0.5296(4) 0.1819(2)
C30 C -0.2853(7) 0.4963(3) 0.2252(2)
C31 C -0.3715(7) 0.4710(3) 0.2408(2)
H21 H -0.4347 0.4743 0.2232
C32 C -0.3651(8) 0.4418(4) 0.2811(2)
H22 H -0.4234 0.4257 0.2917
C33 C -0.2726(8) 0.4363(4) 0.3058(2)
H23 H -0.2678 0.4158 0.3336
C34 C -0.1848(7) 0.4602(3) 0.2911(2)
C35 C -0.0830(8) 0.4535(4) 0.3181(2)
C36 C -0.1933(7) 0.4903(3) 0.2505(2)
H24 H -0.1351 0.5069 0.2400
O7 O -0.0101(5) 0.4802(3) 0.30543(16)
O8 O -0.0755(5) 0.4203(2) 0.35240(16)
Mn3 Mn 0.09961(12) 0.43124(6) 0.35191(3)
N5 N 0.1007(6) 0.3540(3) 0.3019(2)
C37 C 0.0897(8) 0.3637(4) 0.2582(3)
H25 H 0.0802 0.4035 0.2472
C38 C 0.0920(9) 0.3150(7) 0.2279(3)
H26 H 0.0878 0.3220 0.1967
C39 C 0.1004(10) 0.2578(6) 0.2446(4)
H27 H 0.0983 0.2245 0.2249
C40 C 0.1115(8) 0.2485(5) 0.2890(3)
H28 H 0.1171 0.2088 0.3004
C41 C 0.1147(7) 0.2966(5) 0.3177(3)
C42 C 0.1214(7) 0.2919(4) 0.3645(3)
C43 C 0.1279(9) 0.2359(6) 0.3826(4)
H29 H 0.1282 0.2011 0.3644
C44 C 0.1341(9) 0.2314(5) 0.4280(5)
H30 H 0.1370 0.1925 0.4411
C45 C 0.1362(8) 0.2820(6) 0.4562(3)
H31 H 0.1416 0.2789 0.4878
C46 C 0.1299(8) 0.3371(4) 0.4340(3)
H32 H 0.1301 0.3728 0.4512
N6 N 0.1234(6) 0.3420(3) 0.3895(2)
O9 O -1.0819(5) 0.4006(2) -0.14076(14)
O10 O -1.0137(5) 0.4566(3) -0.18938(16)
C47 C -1.0902(8) 0.4316(3) -0.1759(2)
C48 C -1.1905(7) 0.4388(3) -0.2026(2)
C49 C -1.2782(9) 0.4172(4) -0.1877(3)
H33 H -1.2729 0.3959 -0.1603
C50 C -1.3730(9) 0.4251(4) -0.2109(3)
H34 H -1.4320 0.4117 -0.1993
C51 C -1.3770(7) 0.4532(4) -0.2514(3)
H35 H -1.4404 0.4578 -0.2687
C52 C -1.2909(7) 0.4758(3) -0.2686(2)
C53 C -1.2996(8) 0.5084(3) -0.3116(2)
C54 C -1.1986(7) 0.4675(3) -0.2435(2)
H36 H -1.1396 0.4818 -0.2546
O11 O -1.2200(5) 0.5324(3) -0.32291(16)
O12 O -1.3839(5) 0.5144(2) -0.33381(15)
Mn4 Mn -1.40363(12) 0.57020(6) -0.39077(3)
N7 N -1.3774(6) 0.6545(3) -0.3480(2)
C55 C -1.3672(7) 0.6543(4) -0.3031(3)
H37 H -1.3673 0.6168 -0.2881
C56 C -1.3567(8) 0.7066(5) -0.2777(3)
H38 H -1.3499 0.7047 -0.2461
C57 C -1.3562(8) 0.7608(5) -0.2993(4)
H39 H -1.3490 0.7974 -0.2829
C58 C -1.3665(7) 0.7611(4) -0.3450(3)
H40 H -1.3671 0.7983 -0.3605
C59 C -1.3760(7) 0.7082(4) -0.3685(3)
C60 C -1.3883(7) 0.7080(4) -0.4168(3)
C61 C -1.3842(9) 0.7596(4) -0.4423(3)
H41 H -1.3739 0.7980 -0.4288
C62 C -1.3959(9) 0.7530(6) -0.4888(4)
H42 H -1.3942 0.7878 -0.5070
C63 C -1.4096(9) 0.6981(6) -0.5087(3)
H43 H -1.4176 0.6938 -0.5402
C64 C -1.4113(8) 0.6494(4) -0.4808(3)
H44 H -1.4194 0.6108 -0.4943
N8 N -1.4025(6) 0.6519(3) -0.4359(2)
O13 O 0.1194(5) 0.4821(2) 0.41083(16)
O14 O 0.2845(6) 0.4615(3) 0.42278(16)
C65 C 0.2058(9) 0.4845(4) 0.4333(2)
C66 C 0.2113(7) 0.5161(3) 0.4785(2)
C67 C 0.1257(7) 0.5380(3) 0.4952(2)
H45 H 0.0625 0.5353 0.4775
C68 C 0.1318(8) 0.5633(4) 0.5366(2)
H46 H 0.0727 0.5775 0.5477
C69 C 0.2229(9) 0.5682(4) 0.5624(3)
H47 H 0.2271 0.5866 0.5909
C70 C 0.3082(8) 0.5463(3) 0.5465(2)
C71 C 0.4118(8) 0.5516(4) 0.5740(2)
C72 C 0.3056(7) 0.5207(3) 0.5045(2)
H48 H 0.3651 0.5067 0.4936
O15 O 0.4872(5) 0.5266(3) 0.56013(16)
O16 O 0.4179(5) 0.5815(2) 0.60963(15)
O3B O -0.2786(6) 0.5533(3) 0.07229(17)
O6B O -0.7843(5) 0.4441(3) -0.17194(16)
O11B O 0.2200(5) 0.4676(3) 0.32291(16)
O14B O -1.2845(6) 0.5385(3) -0.42278(16)
O15_2 O -1.5128(5) 0.5266(3) -0.43987(16)
O16_2 O -1.5821(5) 0.5815(2) -0.39037(15)
Mn1B Mn -0.59875(12) 0.41440(6) -0.10127(3)
Mn2B Mn -0.09515(11) 0.58735(5) 0.14073(3)
Mn3B Mn -1.09961(12) 0.56876(6) -0.35191(3)
Mn4B Mn 0.40363(12) 0.42980(6) 0.39077(3)
Mn4_2 Mn 0.59637(12) 0.57020(6) 0.60923(3)
loop_
_geom_bond_atom_site_label_1
_geom_bond_atom_site_label_2
_geom_bond_site_symmetry_1
_geom_bond_site_symmetry_2
Mn1 N1 1_555 1_555
N1 C1 1_555 1_555
C1 H1 1_555 1_555
C2 C1 1_555 1_555
H2 C2 1_555 1_555
C3 C2 1_555 1_555
H3 C3 1_555 1_555
C4 C3 1_555 1_555
H4 C4 1_555 1_555
C5 N1 1_555 1_555
C6 C5 1_555 1_555
C7 C6 1_555 1_555
H5 C7 1_555 1_555
C8 C7 1_555 1_555
H6 C8 1_555 1_555
C9 C8 1_555 1_555
H7 C9 1_555 1_555
C10 C9 1_555 1_555
H8 C10 1_555 1_555
N2 Mn1 1_555 1_555
O1 Mn1 1_555 1_555
O2 Mn1 1_555 1_555
C11 O1 1_555 1_555
C12 C11 1_555 1_555
C13 C12 1_555 1_555
H9 C13 1_555 1_555
C14 C13 1_555 1_555
H10 C14 1_555 1_555
C15 C14 1_555 1_555
H11 C15 1_555 1_555
C16 C15 1_555 1_555
C17 C16 1_555 1_555
C18 C12 1_555 1_555
H12 C18 1_555 1_555
O3 C17 1_555 1_555
O4 C17 1_555 1_555
Mn2 O4 1_555 1_555
N3 Mn2 1_555 1_555
C19 N3 1_555 1_555
H13 C19 1_555 1_555
C20 C19 1_555 1_555
H14 C20 1_555 1_555
C21 C20 1_555 1_555
H15 C21 1_555 1_555
C22 C21 1_555 1_555
H16 C22 1_555 1_555
C23 N3 1_555 1_555
C24 C23 1_555 1_555
C25 C24 1_555 1_555
H17 C25 1_555 1_555
C26 C25 1_555 1_555
H18 C26 1_555 1_555
C27 C26 1_555 1_555
H19 C27 1_555 1_555
C28 C27 1_555 1_555
H20 C28 1_555 1_555
N4 Mn2 1_555 1_555
O5 Mn1 1_555 1_555
O6 C29 1_555 1_555
C29 O5 1_555 1_555
C30 C29 1_555 1_555
C31 C30 1_555 1_555
H21 C31 1_555 1_555
C32 C31 1_555 1_555
H22 C32 1_555 1_555
C33 C32 1_555 1_555
H23 C33 1_555 1_555
C34 C33 1_555 1_555
C35 C34 1_555 1_555
C36 C30 1_555 1_555
H24 C36 1_555 1_555
O7 C35 1_555 1_555
O8 C35 1_555 1_555
Mn3 O7 1_555 1_555
N5 Mn3 1_555 1_555
C37 N5 1_555 1_555
H25 C37 1_555 1_555
C38 C37 1_555 1_555
H26 C38 1_555 1_555
C39 C38 1_555 1_555
H27 C39 1_555 1_555
C40 C39 1_555 1_555
H28 C40 1_555 1_555
C41 N5 1_555 1_555
C42 C41 1_555 1_555
C43 C42 1_555 1_555
H29 C43 1_555 1_555
C44 C43 1_555 1_555
H30 C44 1_555 1_555
C45 C44 1_555 1_555
H31 C45 1_555 1_555
C46 C45 1_555 1_555
H32 C46 1_555 1_555
N6 Mn3 1_555 1_555
O9 Mn2 1_555 1_555
O10 Mn2 1_555 1_555
C47 O9 1_555 1_555
C48 C47 1_555 1_555
C49 C48 1_555 1_555
H33 C49 1_555 1_555
C50 C49 1_555 1_555
H34 C50 1_555 1_555
C51 C50 1_555 1_555
H35 C51 1_555 1_555
C52 C51 1_555 1_555
C53 C52 1_555 1_555
C54 C48 1_555 1_555
H36 C54 1_555 1_555
O11 C53 1_555 1_555
O12 C53 1_555 1_555
Mn4 O12 1_555 1_555
N7 Mn4 1_555 1_555
C55 N7 1_555 1_555
H37 C55 1_555 1_555
C56 C55 1_555 1_555
H38 C56 1_555 1_555
C57 C56 1_555 1_555
H39 C57 1_555 1_555
C58 C57 1_555 1_555
H40 C58 1_555 1_555
C59 N7 1_555 1_555
C60 C59 1_555 1_555
C61 C60 1_555 1_555
H41 C61 1_555 1_555
C62 C61 1_555 1_555
H42 C62 1_555 1_555
C63 C62 1_555 1_555
H43 C63 1_555 1_555
C64 C63 1_555 1_555
H44 C64 1_555 1_555
N8 Mn4 1_555 1_555
O13 Mn3 1_555 1_555
O14 C65 1_555 1_555
C65 O13 1_555 1_555
C66 C65 1_555 1_555
C67 C66 1_555 1_555
H45 C67 1_555 1_555
C68 C67 1_555 1_555
H46 C68 1_555 1_555
C69 C68 1_555 1_555
H47 C69 1_555 1_555
C70 C69 1_555 1_555
C71 C70 1_555 1_555
C72 C66 1_555 1_555
H48 C72 1_555 1_555
O15 C71 1_555 1_555
O16 C71 1_555 1_555
N9 C73 1_555 1_555
C73 H49 1_555 1_555
C74 C73 1_555 1_555
H50 C74 1_555 1_555
C75 C74 1_555 1_555
H51 C75 1_555 1_555
C76 C75 1_555 1_555
H52 C76 1_555 1_555
C77 N9 1_555 1_555
C78 C77 1_555 1_555
C79 C78 1_555 1_555
H53 C79 1_555 1_555
C80 C79 1_555 1_555
H54 C80 1_555 1_555
C81 C80 1_555 1_555
H55 C81 1_555 1_555
C82 C81 1_555 1_555
H56 C82 1_555 1_555
N10 C78 1_555 1_555
N11 C83 1_555 1_555
C83 H57 1_555 1_555
C84 C83 1_555 1_555
H58 C84 1_555 1_555
C85 C84 1_555 1_555
H59 C85 1_555 1_555
C86 C85 1_555 1_555
H60 C86 1_555 1_555
C87 N11 1_555 1_555
C88 C87 1_555 1_555
C89 C88 1_555 1_555
H61 C89 1_555 1_555
C90 C89 1_555 1_555
H62 C90 1_555 1_555
C91 C90 1_555 1_555
H63 C91 1_555 1_555
C92 C91 1_555 1_555
H64 C92 1_555 1_555
N12 C88 1_555 1_555
C93 C94 1_555 1_555
C94 C95 1_555 1_555
C95 C96 1_555 1_555
C96 C97 1_555 1_555
C97 C98 1_555 1_555
C98 C93 1_555 1_555
C99 C93 1_555 1_555
C100 C99 1_555 1_555
C101 C100 1_555 1_555
C102 C101 1_555 1_555
C103 C102 1_555 1_555
C104 C99 1_555 1_555
O3B Mn1 1_555 1_555
O6B Mn2 1_555 1_555
O11B Mn3 1_555 1_555
O14B Mn4 1_555 1_555
O15_2 Mn4 1_555 1_555
O16_2 Mn4 1_555 1_555
Mn1B O3 1_555 1_555
Mn2B O6 1_555 1_555
Mn3B O11 1_555 1_555
Mn4B O14 1_555 1_555
Mn4_2 O15 1_555 1_555
C4 C5 1_555 1_555
C6 N2 1_555 1_555
C10 N2 1_555 1_555
O2 C11 1_555 1_555
C16 C18 1_555 1_555
C22 C23 1_555 1_555
C24 N4 1_555 1_555
C28 N4 1_555 1_555
C34 C36 1_555 1_555
O8 Mn3 1_555 1_555
C40 C41 1_555 1_555
C42 N6 1_555 1_555
C46 N6 1_555 1_555
O10 C47 1_555 1_555
C52 C54 1_555 1_555
C58 C59 1_555 1_555
C60 N8 1_555 1_555
C64 N8 1_555 1_555
C70 C72 1_555 1_555
O16 Mn4_2 1_555 1_555
C76 C77 1_555 1_555
C82 N10 1_555 1_555
C86 C87 1_555 1_555
C92 N12 1_555 1_555
C103 C104 1_555 1_555

#END
