
#######################################################################
#
#                 Cambridge Crystallographic Data Centre
#                                CCDC 
#
#######################################################################
#
# If this CIF has been generated from an entry in the Cambridge 
# Structural Database, then it will include bibliographic, chemical, 
# crystal, experimental, refinement or atomic coordinate data resulting 
# from the CCDC's data processing and validation procedures.
#
#######################################################################

data_OFEFAG
_symmetry_cell_setting           triclinic
_symmetry_space_group_name_H-M   'P -1'
_symmetry_Int_Tables_number      2
_space_group_name_Hall           '-P 1'
loop_
_symmetry_equiv_pos_site_id
_symmetry_equiv_pos_as_xyz
1 x,y,z
2 -x,-y,-z
_cell_length_a                   7.4620(10)
_cell_length_b                   9.9590(10)
_cell_length_c                   12.2660(10)
_cell_angle_alpha                75.016(7)
_cell_angle_beta                 82.384(9)
_cell_angle_gamma                74.757(8)
_cell_volume                     847.524
loop_
_atom_site_label
_atom_site_type_symbol
_atom_site_fract_x
_atom_site_fract_y
_atom_site_fract_z
Cu1 Cu -0.26117(6) -0.30535(4) -0.30972(3)
N1 N -0.1842(4) -0.1773(3) -0.4568(2)
N2 N -0.3973(4) -0.1165(2) -0.2774(2)
C1 C -0.0775(5) -0.2131(4) -0.5451(3)
H1 H -0.0230 -0.3092 -0.5424
C2 C -0.0449(6) -0.1104(4) -0.6418(3)
H2 H 0.0299 -0.1386 -0.7028
C3 C -0.1218(5) 0.0310(4) -0.6476(3)
H3 H -0.0982 0.0994 -0.7119
C4 C -0.2371(5) 0.0733(4) -0.5560(3)
C5 C -0.3260(5) 0.2174(4) -0.5518(3)
H4 H -0.3102 0.2912 -0.6138
C6 C -0.4324(5) 0.2488(4) -0.4599(3)
H5 H -0.4874 0.3441 -0.4597
C7 C -0.4633(5) 0.1384(3) -0.3617(3)
C8 C -0.5709(5) 0.1636(3) -0.2642(3)
H6 H -0.6308 0.2565 -0.2590
C9 C -0.5877(5) 0.0497(4) -0.1757(3)
H7 H -0.6577 0.0652 -0.1096
C10 C -0.4999(5) -0.0892(3) -0.1850(3)
H8 H -0.5136 -0.1653 -0.1245
C11 C -0.3770(4) -0.0034(3) -0.3644(3)
C12 C -0.2629(4) -0.0366(3) -0.4614(3)
C13 C 0.1068(4) -0.4322(3) -0.1890(3)
C14 C 0.2242(5) -0.4575(3) -0.0904(3)
H9 H 0.2528 -0.3681 -0.0902
H10 H 0.1510 -0.4854 -0.0206
C15 C 0.4045(5) -0.5706(3) -0.0919(3)
H11 H 0.4559 -0.5940 -0.0188
H12 H 0.3772 -0.6564 -0.1019
C16 C 0.5503(4) -0.5284(3) -0.1825(3)
O1 O -0.0441(3) -0.3381(2) -0.19274(19)
O2 O 0.1654(3) -0.5047(2) -0.26096(19)
O3 O 0.5555(3) -0.3977(2) -0.20812(18)
O4 O 0.6593(3) -0.6225(2) -0.2250(2)
O5 O -0.1297(3) -0.4782(2) -0.36370(19)
H13 H -0.0247 -0.4897 -0.3374
H14 H -0.1831 -0.5382 -0.3206
O3_2 O -0.4445(3) -0.3977(2) -0.20812(18)
Cu1_2 Cu 0.73883(6) -0.30535(4) -0.30972(3)
O6 O -0.1072(5) -0.1511(3) -0.0470(3)
H15 H -0.1358 -0.0600 -0.0522
H16 H -0.1039 -0.1881 -0.1002
O7 O -0.1936(6) -0.8629(3) -0.0609(3)
H17 H -0.2522 -0.8053 -0.1076
H18 H -0.1285 -0.8408 -0.0196
loop_
_geom_bond_atom_site_label_1
_geom_bond_atom_site_label_2
_geom_bond_site_symmetry_1
_geom_bond_site_symmetry_2
Cu1 N1 1_555 1_555
N1 C1 1_555 1_555
N2 Cu1 1_555 1_555
C1 H1 1_555 1_555
C2 C1 1_555 1_555
H2 C2 1_555 1_555
C3 C2 1_555 1_555
H3 C3 1_555 1_555
C4 C3 1_555 1_555
C5 C4 1_555 1_555
H4 C5 1_555 1_555
C6 C5 1_555 1_555
H5 C6 1_555 1_555
C7 C6 1_555 1_555
C8 C7 1_555 1_555
H6 C8 1_555 1_555
C9 C8 1_555 1_555
H7 C9 1_555 1_555
C10 N2 1_555 1_555
H8 C10 1_555 1_555
C11 N2 1_555 1_555
C12 N1 1_555 1_555
C13 C14 1_555 1_555
C14 H9 1_555 1_555
H10 C14 1_555 1_555
C15 C14 1_555 1_555
H11 C15 1_555 1_555
H12 C15 1_555 1_555
C16 C15 1_555 1_555
O1 Cu1 1_555 1_555
O2 C13 1_555 1_555
O3 C16 1_555 1_555
O4 C16 1_555 1_555
O5 Cu1 1_555 1_555
O6 H15 1_555 1_555
O7 H17 1_555 1_555
H13 O5 1_555 1_555
H14 O5 1_555 1_555
H16 O6 1_555 1_555
H18 O7 1_555 1_555
O3_2 Cu1 1_555 1_555
Cu1_2 O3 1_555 1_555
C4 C12 1_555 1_555
C7 C11 1_555 1_555
C9 C10 1_555 1_555
C11 C12 1_555 1_555
C13 O1 1_555 1_555

#END
