
#######################################################################
#
#                 Cambridge Crystallographic Data Centre
#                                CCDC 
#
#######################################################################
#
# If this CIF has been generated from an entry in the Cambridge 
# Structural Database, then it will include bibliographic, chemical, 
# crystal, experimental, refinement or atomic coordinate data resulting 
# from the CCDC's data processing and validation procedures.
#
#######################################################################

data_OFEGOX
_symmetry_cell_setting           tetragonal
_symmetry_space_group_name_H-M   'I 41/a'
_symmetry_Int_Tables_number      88
_space_group_name_Hall           '-I 4ad'
loop_
_symmetry_equiv_pos_site_id
_symmetry_equiv_pos_as_xyz
1 x,y,z
2 1/2-x,-y,1/2+z
3 3/4-y,1/4+x,1/4+z
4 3/4+y,3/4-x,3/4+z
5 1/2+x,1/2+y,1/2+z
6 -x,1/2-y,z
7 1/4-y,3/4+x,3/4+z
8 1/4+y,1/4-x,1/4+z
9 -x,-y,-z
10 1/2+x,y,1/2-z
11 1/4+y,3/4-x,3/4-z
12 1/4-y,1/4+x,1/4-z
13 1/2-x,1/2-y,1/2-z
14 x,1/2+y,-z
15 3/4+y,1/4-x,1/4-z
16 3/4-y,3/4+x,3/4-z
_cell_length_a                   17.095(6)
_cell_length_b                   17.095(6)
_cell_length_c                   16.563(6)
_cell_angle_alpha                90
_cell_angle_beta                 90
_cell_angle_gamma                90
_cell_volume                     4840.35
loop_
_atom_site_label
_atom_site_type_symbol
_atom_site_fract_x
_atom_site_fract_y
_atom_site_fract_z
C1 C -0.0866(2) 0.3818(2) 0.9004(2)
C2 C -0.01130(19) 0.42182(19) 0.9111(2)
C3 C 0.01016(18) 0.49841(17) 0.89681(19)
C4 C 0.11288(19) 0.43003(19) 0.9386(2)
C5 C 0.19470(19) 0.4105(2) 0.9571(2)
C6 C 0.2483(2) 0.4667(2) 0.9812(2)
H1 H 0.2317 0.5177 0.9903
C7 C 0.3260(2) 0.4477(3) 0.9919(3)
H2 H 0.3611 0.4862 1.0081
C8 C 0.3528(2) 0.3717(3) 0.9788(3)
C9 C 0.2989(2) 0.3157(2) 0.9563(3)
H3 H 0.3154 0.2645 0.9482
C10 C 0.2206(2) 0.3340(2) 0.9455(2)
H4 H 0.1854 0.2953 0.9304
C11 C 0.4386(3) 0.3523(4) 0.9887(3)
H5 H 0.4449 0.3155 1.0320
H6 H 0.4672 0.3992 1.0009
H7 H 0.4582 0.3300 0.9395
C12 C -0.0342(2) 0.5678(2) 0.8671(2)
N1 N 0.05317(15) 0.37967(15) 0.93787(17)
N2 N 0.08804(15) 0.50262(15) 0.91433(18)
H8 H 0.1167 0.5438 0.9108
O1 O -0.14517(16) 0.42134(16) 0.8724(2)
H9 H -0.1311 0.4661 0.8623
O2 O -0.09323(15) 0.31185(14) 0.91740(19)
O3 O 0.00366(15) 0.63033(14) 0.86349(16)
O4 O -0.10600(14) 0.55894(14) 0.84907(18)
Pb1 Pb 0.0000 0.2500 1.012359(11)
C1E C 0.0866(2) 0.1182(2) 0.9004(2)
C2E C 0.01130(19) 0.07818(19) 0.9111(2)
C3E C -0.01016(18) 0.00159(17) 0.89681(19)
C4E C -0.11288(19) 0.06997(19) 0.9386(2)
C5E C -0.19470(19) 0.0895(2) 0.9571(2)
C6E C -0.2483(2) 0.0333(2) 0.9812(2)
H1E H -0.2317 -0.0177 0.9903
C7E C -0.3260(2) 0.0523(3) 0.9919(3)
H2E H -0.3611 0.0138 1.0081
C8E C -0.3528(2) 0.1283(3) 0.9788(3)
C9E C -0.2989(2) 0.1843(2) 0.9563(3)
H3E H -0.3154 0.2355 0.9482
C10E C -0.2206(2) 0.1660(2) 0.9455(2)
H4E H -0.1854 0.2047 0.9304
C11E C -0.4386(3) 0.1477(4) 0.9887(3)
H5E H -0.4449 0.1845 1.0320
H6E H -0.4672 0.1008 1.0009
H7E H -0.4582 0.1700 0.9395
C12E C 0.0342(2) -0.0678(2) 0.8671(2)
N1E N -0.05317(15) 0.12033(15) 0.93787(17)
N2E N -0.08804(15) -0.00262(15) 0.91433(18)
H8E H -0.1167 -0.0438 0.9108
O1E O 0.14517(16) 0.07866(16) 0.8724(2)
H9E H 0.1311 0.0339 0.8623
O2E O 0.09323(15) 0.18815(14) 0.91740(19)
O3E O -0.00366(15) -0.13033(14) 0.86349(16)
O4E O 0.10600(14) -0.05894(14) 0.84907(18)
O3B O 0.11967(14) 0.25366(15) 1.11349(16)
O3G O -0.11967(14) 0.24634(15) 1.11349(16)
O3H O -0.00366(15) 0.36967(14) 1.13651(16)
O3M O 0.00366(15) 0.13033(14) 1.13651(16)
Pb1C Pb 0.0000 -0.2500 0.762359(11)
Pb1C_2 Pb 0.0000 0.7500 0.762359(11)
Pb1H Pb 0.0000 -0.2500 0.987641(11)
Pb1H_2 Pb 0.0000 0.7500 0.987641(11)
loop_
_geom_bond_atom_site_label_1
_geom_bond_atom_site_label_2
_geom_bond_site_symmetry_1
_geom_bond_site_symmetry_2
C1 C2 1_555 1_555
C2 C3 1_555 1_555
C3 C12 1_555 1_555
C4 C5 1_555 1_555
C5 C6 1_555 1_555
C6 H1 1_555 1_555
C7 C6 1_555 1_555
H2 C7 1_555 1_555
C8 C7 1_555 1_555
C9 C8 1_555 1_555
H3 C9 1_555 1_555
C10 C5 1_555 1_555
H4 C10 1_555 1_555
C11 C8 1_555 1_555
H5 C11 1_555 1_555
H6 C11 1_555 1_555
H7 C11 1_555 1_555
C12 O3 1_555 1_555
N1 C2 1_555 1_555
N2 C3 1_555 1_555
H8 N2 1_555 1_555
O1 C1 1_555 1_555
H9 O1 1_555 1_555
O2 C1 1_555 1_555
O3 Pb1C_2 1_555 1_555
O4 C12 1_555 1_555
Pb1 N1 1_555 1_555
C1E C2E 1_555 1_555
C2E C3E 1_555 1_555
C3E C12E 1_555 1_555
C4E C5E 1_555 1_555
C5E C6E 1_555 1_555
C6E H1E 1_555 1_555
C7E C6E 1_555 1_555
H2E C7E 1_555 1_555
C8E C7E 1_555 1_555
C9E C8E 1_555 1_555
H3E C9E 1_555 1_555
C10E C5E 1_555 1_555
H4E C10E 1_555 1_555
C11E C8E 1_555 1_555
H5E C11E 1_555 1_555
H6E C11E 1_555 1_555
H7E C11E 1_555 1_555
C12E O3E 1_555 1_555
N1E Pb1 1_555 1_555
N2E C3E 1_555 1_555
H8E N2E 1_555 1_555
O1E C1E 1_555 1_555
H9E O1E 1_555 1_555
O2E Pb1 1_555 1_555
O3E Pb1C 1_555 1_555
O4E C12E 1_555 1_555
O3B Pb1 1_555 1_555
O3G Pb1 1_555 1_555
O3H Pb1 1_555 1_555
O3M Pb1 1_555 1_555
Pb1H O3E 1_555 1_555
Pb1H_2 O3 1_555 1_555
C4 N1 1_555 1_555
C4 N2 1_555 1_555
C9 C10 1_555 1_555
O2 Pb1 1_555 1_555
C1E O2E 1_555 1_555
C2E N1E 1_555 1_555
C4E N1E 1_555 1_555
C4E N2E 1_555 1_555
C9E C10E 1_555 1_555

#END
