
#######################################################################
#
#                 Cambridge Crystallographic Data Centre
#                                CCDC 
#
#######################################################################
#
# If this CIF has been generated from an entry in the Cambridge 
# Structural Database, then it will include bibliographic, chemical, 
# crystal, experimental, refinement or atomic coordinate data resulting 
# from the CCDC's data processing and validation procedures.
#
#######################################################################

data_OFEGUD
_symmetry_cell_setting           triclinic
_symmetry_space_group_name_H-M   'P -1'
_symmetry_Int_Tables_number      2
_space_group_name_Hall           '-P 1'
loop_
_symmetry_equiv_pos_site_id
_symmetry_equiv_pos_as_xyz
1 x,y,z
2 -x,-y,-z
_cell_length_a                   8.827(3)
_cell_length_b                   10.047(3)
_cell_length_c                   14.826(5)
_cell_angle_alpha                74.822(4)
_cell_angle_beta                 89.136(4)
_cell_angle_gamma                73.318(4)
_cell_volume                     1213
loop_
_atom_site_label
_atom_site_type_symbol
_atom_site_fract_x
_atom_site_fract_y
_atom_site_fract_z
Cd1 Cd 1.0000 0.0000 1.0000
Cd2 Cd 1.36279(4) 0.44780(4) 1.09691(3)
O1 O 1.5133(5) 0.2546(5) 0.8630(3)
O2 O 1.4635(5) 0.4194(4) 0.9433(3)
O3 O 1.0487(8) 0.3347(5) 0.5592(3)
O4 O 1.0551(6) 0.1698(5) 0.6910(3)
H1 H 1.0191 0.1671 0.7425
O5 O 0.9355(5) 0.1681(4) 0.8473(3)
O6 O 0.8133(4) 0.3288(4) 0.9224(3)
O7 O 1.2401(5) -0.0551(4) 0.9212(3)
O8 O 1.4252(5) 0.0430(5) 0.8611(3)
O9 O 1.6117(5) 0.2854(4) 1.1419(3)
H2 H 1.5884 0.3771 1.1158
H3 H 1.6516 0.2435 1.1008
N1 N 1.1491(5) 0.1316(5) 1.0329(3)
N2 N 1.2473(5) 0.3082(5) 1.0453(3)
N3 N 0.7336(5) 0.5470(5) 0.7568(3)
N4 N 0.8445(6) 0.5516(5) 0.6216(3)
C1 C 1.2642(6) 0.1400(5) 0.9715(4)
C2 C 1.3252(6) 0.2492(5) 0.9783(4)
C3 C 1.0044(7) 0.1613(7) 1.2192(4)
H4 H 1.0493 0.0651 1.2199
C4 C 1.0350(6) 0.2687(6) 1.1485(4)
C5 C 0.9635(6) 0.4119(6) 1.1478(4)
H5 H 0.9805 0.4856 1.0996
C6 C 0.8678(7) 0.4456(7) 1.2179(4)
H6 H 0.8211 0.5417 1.2166
C7 C 0.8407(8) 0.3377(8) 1.2900(5)
C8 C 0.7329(11) 0.3786(10) 1.3653(6)
H7 H 0.6502 0.4660 1.3381
H8 H 0.7934 0.3932 1.4132
H9 H 0.6869 0.3025 1.3923
C9 C 1.4427(6) 0.3109(6) 0.9245(4)
C10 C 1.3118(6) 0.0357(6) 0.9144(4)
C11 C 0.7486(7) 0.6302(6) 0.6728(4)
C12 C 0.8960(7) 0.4110(6) 0.6757(4)
C13 C 0.8281(6) 0.4102(5) 0.7589(4)
C14 C 0.8574(6) 0.2945(6) 0.8497(4)
C15 C 1.0065(8) 0.3004(7) 0.6375(4)
C16 C 0.6809(8) 0.7874(6) 0.6416(4)
C17 C 0.9080(8) 0.1954(7) 1.2885(5)
H10 H 0.8875 0.1218 1.3352
C18 C 0.5497(10) 0.8558(7) 0.6808(5)
H11 H 0.4977 0.8016 0.7237
C19 C 0.7560(9) 0.8706(7) 0.5777(5)
H12 H 0.8441 0.8275 0.5492
C20 C 0.5665(11) 1.0865(7) 0.5977(5)
C21 C 0.6973(11) 1.0188(8) 0.5574(6)
H13 H 0.7480 1.0750 0.5150
C22 C 0.4943(11) 1.0044(9) 0.6572(6)
H14 H 0.4039 1.0484 0.6837
C23 C 0.5089(14) 1.2506(9) 0.5766(7)
H15 H 0.4234 1.2782 0.6151
H16 H 0.4726 1.2914 0.5118
H17 H 0.5944 1.2854 0.5897
C24 C 1.1421(6) 0.2357(6) 1.0759(4)
Cd2A Cd 0.63721(4) -0.44780(4) 0.90309(3)
O1A O 0.4867(5) -0.2546(5) 1.1370(3)
O2A O 0.5365(5) -0.4194(4) 1.0567(3)
O3A O 0.9513(8) -0.3347(5) 1.4408(3)
O4A O 0.9449(6) -0.1698(5) 1.3090(3)
H1A H 0.9809 -0.1671 1.2575
O5A O 1.0645(5) -0.1681(4) 1.1527(3)
O6A O 1.1867(4) -0.3288(4) 1.0776(3)
O7A O 0.7599(5) 0.0551(4) 1.0788(3)
O8A O 0.5748(5) -0.0430(5) 1.1389(3)
O9A O 0.3883(5) -0.2854(4) 0.8581(3)
H2A H 0.4116 -0.3771 0.8842
H3A H 0.3484 -0.2435 0.8992
N1A N 0.8509(5) -0.1316(5) 0.9671(3)
N2A N 0.7527(5) -0.3082(5) 0.9547(3)
N3A N 1.2664(5) -0.5470(5) 1.2432(3)
N4A N 1.1555(6) -0.5516(5) 1.3784(3)
C1A C 0.7358(6) -0.1400(5) 1.0285(4)
C2A C 0.6748(6) -0.2492(5) 1.0217(4)
C3A C 0.9956(7) -0.1613(7) 0.7808(4)
H4A H 0.9507 -0.0651 0.7801
C4A C 0.9650(6) -0.2687(6) 0.8515(4)
C5A C 1.0365(6) -0.4119(6) 0.8522(4)
H5A H 1.0195 -0.4856 0.9004
C6A C 1.1322(7) -0.4456(7) 0.7821(4)
H6A H 1.1789 -0.5417 0.7834
C7A C 1.1593(8) -0.3377(8) 0.7100(5)
C8A C 1.2671(11) -0.3786(10) 0.6347(6)
H7A H 1.3498 -0.4660 0.6619
H8A H 1.2066 -0.3932 0.5868
H9A H 1.3131 -0.3025 0.6077
C9A C 0.5573(6) -0.3109(6) 1.0755(4)
C10A C 0.6882(6) -0.0357(6) 1.0856(4)
C11A C 1.2514(7) -0.6302(6) 1.3272(4)
C12A C 1.1040(7) -0.4110(6) 1.3243(4)
C13A C 1.1719(6) -0.4102(5) 1.2411(4)
C14A C 1.1426(6) -0.2945(6) 1.1503(4)
C15A C 0.9935(8) -0.3004(7) 1.3625(4)
C16A C 1.3191(8) -0.7874(6) 1.3584(4)
C17A C 1.0920(8) -0.1954(7) 0.7115(5)
H10A H 1.1125 -0.1218 0.6648
C18A C 1.4503(10) -0.8558(7) 1.3192(5)
H11A H 1.5023 -0.8016 1.2763
C19A C 1.2440(9) -0.8706(7) 1.4223(5)
H12A H 1.1559 -0.8275 1.4508
C20A C 1.4335(11) -1.0865(7) 1.4023(5)
C21A C 1.3027(11) -1.0188(8) 1.4426(6)
H13A H 1.2520 -1.0750 1.4850
C22A C 1.5057(11) -1.0044(9) 1.3428(6)
H14A H 1.5961 -1.0484 1.3163
C23A C 1.4911(14) -1.2506(9) 1.4234(7)
H15A H 1.5766 -1.2782 1.3849
H16A H 1.5274 -1.2914 1.4882
H17A H 1.4056 -1.2854 1.4103
C24A C 0.8579(6) -0.2357(6) 0.9241(4)
Cd2_2 Cd 0.36279(4) -0.55220(4) 1.09691(3)
Cd2_3 Cd 1.36279(4) -0.55220(4) 1.09691(3)
Cd2A_2 Cd 0.63721(4) 0.55220(4) 0.90309(3)
Cd2A_3 Cd 1.63721(4) 0.55220(4) 0.90309(3)
O2_2 O 0.4635(5) -0.5806(4) 0.9433(3)
O2A_2 O 1.5365(5) 0.5806(4) 1.0567(3)
O6_2 O 0.8133(4) -0.6712(4) 0.9224(3)
O6A_2 O 1.1867(4) 0.6712(4) 1.0776(3)
N3_2 N 0.7336(5) -0.4530(5) 0.7568(3)
N3A_2 N 1.2664(5) 0.4530(5) 1.2432(3)
loop_
_geom_bond_atom_site_label_1
_geom_bond_atom_site_label_2
_geom_bond_site_symmetry_1
_geom_bond_site_symmetry_2
Cd1 O5 1_555 1_555
Cd2 O2 1_555 1_555
O1 C9 1_555 1_555
O2 C9 1_555 1_555
O3 C15 1_555 1_555
O4 H1 1_555 1_555
O5 C14 1_555 1_555
O6 C14 1_555 1_555
O7 Cd1 1_555 1_555
O8 C10 1_555 1_555
O9 Cd2 1_555 1_555
H2 O9 1_555 1_555
H3 O9 1_555 1_555
N1 Cd1 1_555 1_555
N2 Cd2 1_555 1_555
N3 C11 1_555 1_555
N4 C11 1_555 1_555
C1 N1 1_555 1_555
C2 N2 1_555 1_555
C3 H4 1_555 1_555
C4 C3 1_555 1_555
C5 C4 1_555 1_555
H5 C5 1_555 1_555
C6 C5 1_555 1_555
H6 C6 1_555 1_555
C7 C6 1_555 1_555
C8 C7 1_555 1_555
H7 C8 1_555 1_555
H8 C8 1_555 1_555
H9 C8 1_555 1_555
C9 C2 1_555 1_555
C10 O7 1_555 1_555
C11 C16 1_555 1_555
C12 N4 1_555 1_555
C13 N3 1_555 1_555
C14 C13 1_555 1_555
C15 O4 1_555 1_555
C16 C18 1_555 1_555
C17 C3 1_555 1_555
H10 C17 1_555 1_555
C18 H11 1_555 1_555
C19 C16 1_555 1_555
H12 C19 1_555 1_555
C20 C21 1_555 1_555
C21 C19 1_555 1_555
H13 C21 1_555 1_555
C22 C18 1_555 1_555
H14 C22 1_555 1_555
C23 C20 1_555 1_555
H15 C23 1_555 1_555
H16 C23 1_555 1_555
H17 C23 1_555 1_555
C24 N1 1_555 1_555
Cd2A O2A 1_555 1_555
O1A C9A 1_555 1_555
O2A C9A 1_555 1_555
O3A C15A 1_555 1_555
O4A H1A 1_555 1_555
O5A Cd1 1_555 1_555
O6A C14A 1_555 1_555
O7A Cd1 1_555 1_555
O8A C10A 1_555 1_555
O9A Cd2A 1_555 1_555
H2A O9A 1_555 1_555
H3A O9A 1_555 1_555
N1A Cd1 1_555 1_555
N2A Cd2A 1_555 1_555
N3A C11A 1_555 1_555
N4A C11A 1_555 1_555
C1A N1A 1_555 1_555
C2A N2A 1_555 1_555
C3A H4A 1_555 1_555
C4A C3A 1_555 1_555
C5A C4A 1_555 1_555
H5A C5A 1_555 1_555
C6A C5A 1_555 1_555
H6A C6A 1_555 1_555
C7A C6A 1_555 1_555
C8A C7A 1_555 1_555
H7A C8A 1_555 1_555
H8A C8A 1_555 1_555
H9A C8A 1_555 1_555
C9A C2A 1_555 1_555
C10A O7A 1_555 1_555
C11A C16A 1_555 1_555
C12A N4A 1_555 1_555
C13A N3A 1_555 1_555
C14A O5A 1_555 1_555
C15A O4A 1_555 1_555
C16A C18A 1_555 1_555
C17A C3A 1_555 1_555
H10A C17A 1_555 1_555
C18A H11A 1_555 1_555
C19A C16A 1_555 1_555
H12A C19A 1_555 1_555
C20A C21A 1_555 1_555
C21A C19A 1_555 1_555
H13A C21A 1_555 1_555
C22A C18A 1_555 1_555
H14A C22A 1_555 1_555
C23A C20A 1_555 1_555
H15A C23A 1_555 1_555
H16A C23A 1_555 1_555
H17A C23A 1_555 1_555
C24A N1A 1_555 1_555
Cd2_2 O2A 1_555 1_555
Cd2_3 O6A 1_555 1_555
Cd2A_2 O6 1_555 1_555
Cd2A_3 O2 1_555 1_555
O2_2 Cd2A 1_555 1_555
O2A_2 Cd2 1_555 1_555
O6_2 Cd2A 1_555 1_555
O6A_2 Cd2 1_555 1_555
N3_2 Cd2A 1_555 1_555
N3A_2 Cd2 1_555 1_555
N2 C24 1_555 1_555
N3 Cd2A_2 1_555 1_555
C1 C2 1_555 1_555
C1 C10 1_555 1_555
C4 C24 1_555 1_555
C7 C17 1_555 1_555
C12 C13 1_555 1_555
C12 C15 1_555 1_555
C20 C22 1_555 1_555
N2A C24A 1_555 1_555
N3A Cd2_3 1_555 1_555
C1A C2A 1_555 1_555
C1A C10A 1_555 1_555
C4A C24A 1_555 1_555
C7A C17A 1_555 1_555
C12A C13A 1_555 1_555
C12A C15A 1_555 1_555
C13A C14A 1_555 1_555
C20A C22A 1_555 1_555
Cd2_2 O2_2 1_555 1_555
Cd2A_3 O2A_2 1_555 1_555

#END
