
#######################################################################
#
#                 Cambridge Crystallographic Data Centre
#                                CCDC 
#
#######################################################################
#
# If this CIF has been generated from an entry in the Cambridge 
# Structural Database, then it will include bibliographic, chemical, 
# crystal, experimental, refinement or atomic coordinate data resulting 
# from the CCDC's data processing and validation procedures.
#
#######################################################################

data_OFEHIS
_symmetry_cell_setting           monoclinic
_symmetry_space_group_name_H-M   'P 21/n'
_symmetry_Int_Tables_number      14
_space_group_name_Hall           '-P 2yn'
loop_
_symmetry_equiv_pos_site_id
_symmetry_equiv_pos_as_xyz
1 x,y,z
2 1/2-x,1/2+y,1/2-z
3 -x,-y,-z
4 1/2+x,1/2-y,1/2+z
_cell_length_a                   19.2934(11)
_cell_length_b                   7.3673(4)
_cell_length_c                   20.4117(11)
_cell_angle_alpha                90
_cell_angle_beta                 101.164(5)
_cell_angle_gamma                90
_cell_volume                     2846.42
loop_
_atom_site_label
_atom_site_type_symbol
_atom_site_fract_x
_atom_site_fract_y
_atom_site_fract_z
C1 C 0.1305(2) 0.7926(7) 0.4758(2)
H1 H 0.1641 0.7093 0.4961
C2 C 0.0799(2) 0.8483(7) 0.5104(2)
H2 H 0.0801 0.8030 0.5530
C3 C 0.0289(2) 0.9706(6) 0.4825(2)
C4 C 0.0342(3) 1.0326(7) 0.4208(2)
H3 H 0.0019 1.1177 0.3996
C5 C 0.0867(2) 0.9713(7) 0.3893(2)
H4 H 0.0885 1.0179 0.3473
C6 C 0.0140(2) 0.5596(5) 0.27593(19)
C7 C 0.0254(2) 0.5318(6) 0.3447(2)
H5 H 0.0699 0.4993 0.3681
C8 C -0.0303(2) 0.5529(7) 0.3779(2)
H6 H -0.0224 0.5359 0.4239
C9 C -0.0966(3) 0.5983(7) 0.3446(2)
C10 C -0.1075(2) 0.6198(7) 0.2761(2)
H7 H -0.1526 0.6473 0.2527
C11 C -0.0531(2) 0.6015(6) 0.2419(2)
H8 H -0.0616 0.6173 0.1958
C12 C 0.07367(19) 0.5403(5) 0.24158(18)
C13 C -0.1567(3) 0.6222(11) 0.3824(3)
H9 H -0.1851 0.7243 0.3646
H10 H -0.1375 0.6428 0.4288
H11 H -0.1853 0.5147 0.3777
C14 C 0.17929(18) 0.5236(5) 0.21919(17)
C15 C 0.13361(18) 0.4577(5) 0.16361(17)
C16 C 0.25799(18) 0.5373(5) 0.23798(16)
C17 C 0.5144(2) 0.5753(6) 0.2839(2)
H12 H 0.5013 0.6332 0.2428
C18 C 0.4624(2) 0.5109(5) 0.31569(19)
H13 H 0.4151 0.5239 0.2957
C19 C 0.5517(2) 0.4077(5) 0.40602(19)
H14 H 0.5648 0.3520 0.4475
C20 C 0.6032(2) 0.4714(6) 0.3728(2)
H15 H 0.6506 0.4570 0.3922
C21 C 0.5851(2) 0.5564(6) 0.3111(2)
C22 C 0.6414(3) 0.6264(8) 0.2755(3)
H16 H 0.6743 0.5309 0.2719
H17 H 0.6659 0.7258 0.3002
H18 H 0.6198 0.6671 0.2316
C23 C 0.13904(19) 0.3722(5) 0.09804(17)
C24 C 0.2500(2) 0.3761(5) 0.45182(18)
C25 C 0.48048(19) 0.4268(5) 0.37737(18)
C26 C 0.42649(18) 0.3633(5) 0.41396(17)
C27 C 0.32520(19) 0.3420(5) 0.44875(17)
C28 C 0.37558(19) 0.2354(5) 0.48807(17)
C29 C 0.3731(2) 0.1194(5) 0.54730(18)
Mn1 Mn 0.0000 0.5000 0.0000
Mn2 Mn 0.20820(3) 0.72913(7) 0.35349(2)
N1 N 0.13432(17) 0.8507(5) 0.41512(15)
N2 N 0.14073(15) 0.5770(4) 0.26685(14)
N3 N 0.06767(16) 0.4716(4) 0.17897(14)
H19 H 0.0287 0.4416 0.1531
N4 N 0.35890(15) 0.4190(4) 0.40253(14)
H20 H 0.3398 0.4915 0.3712
N5 N 0.43831(16) 0.2486(4) 0.46551(14)
O1 O 0.21433(14) 0.4827(4) 0.41203(13)
O2 O 0.22520(16) 0.2908(4) 0.49664(15)
O3 O 0.29724(13) 0.4764(3) 0.20145(12)
O4 O 0.28095(12) 0.6118(3) 0.29398(11)
O5 O 0.08087(13) 0.3441(3) 0.05951(12)
O6 O 0.19797(13) 0.3308(4) 0.08545(11)
O7 O 0.42835(14) 0.0368(4) 0.57293(12)
O8 O 0.31616(16) 0.1123(4) 0.56942(14)
H21 H 0.276(3) 0.181(9) 0.539(3)
C1B C -0.1305(2) 1.2074(7) 0.5242(2)
H1B H -0.1641 1.2907 0.5039
C2B C -0.0799(2) 1.1517(7) 0.4896(2)
H2B H -0.0801 1.1970 0.4470
C3B C -0.0289(2) 1.0294(6) 0.5175(2)
C4B C -0.0342(3) 0.9674(7) 0.5792(2)
H3B H -0.0019 0.8823 0.6004
C5B C -0.0867(2) 1.0287(7) 0.6107(2)
H4B H -0.0885 0.9821 0.6527
N1B N -0.13432(17) 1.1493(5) 0.58488(15)
C6B C -0.0140(2) 0.4404(5) -0.27593(19)
C7B C -0.0254(2) 0.4682(6) -0.3447(2)
H5B H -0.0699 0.5007 -0.3681
C8B C 0.0303(2) 0.4471(7) -0.3779(2)
H6B H 0.0224 0.4641 -0.4239
C9B C 0.0966(3) 0.4017(7) -0.3446(2)
C10B C 0.1075(2) 0.3802(7) -0.2761(2)
H7B H 0.1526 0.3527 -0.2527
C11B C 0.0531(2) 0.3985(6) -0.2419(2)
H8B H 0.0616 0.3827 -0.1958
C12B C -0.07367(19) 0.4597(5) -0.24158(18)
C13B C 0.1567(3) 0.3778(11) -0.3824(3)
H9B H 0.1851 0.2757 -0.3646
H10B H 0.1375 0.3572 -0.4288
H11B H 0.1853 0.4853 -0.3777
C14B C -0.17929(18) 0.4764(5) -0.21919(17)
C15B C -0.13361(18) 0.5423(5) -0.16361(17)
C16B C -0.25799(18) 0.4627(5) -0.23798(16)
C17B C -0.5144(2) 0.4247(6) -0.2839(2)
H12B H -0.5013 0.3668 -0.2428
C18B C -0.4624(2) 0.4891(5) -0.31569(19)
H13B H -0.4151 0.4761 -0.2957
C19B C -0.5517(2) 0.5923(5) -0.40602(19)
H14B H -0.5648 0.6480 -0.4475
C20B C -0.6032(2) 0.5286(6) -0.3728(2)
H15B H -0.6506 0.5430 -0.3922
C21B C -0.5851(2) 0.4436(6) -0.3111(2)
C22B C -0.6414(3) 0.3736(8) -0.2755(3)
H16B H -0.6743 0.4691 -0.2719
H17B H -0.6659 0.2742 -0.3002
H18B H -0.6198 0.3329 -0.2316
C23B C -0.13904(19) 0.6278(5) -0.09804(17)
C24B C -0.2500(2) 0.6239(5) -0.45182(18)
C25B C -0.48048(19) 0.5732(5) -0.37737(18)
C26B C -0.42649(18) 0.6367(5) -0.41396(17)
C27B C -0.32520(19) 0.6580(5) -0.44875(17)
C28B C -0.37558(19) 0.7646(5) -0.48807(17)
C29B C -0.3731(2) 0.8806(5) -0.54730(18)
Mn2B Mn -0.20820(3) 0.27087(7) -0.35349(2)
N2B N -0.14073(15) 0.4230(4) -0.26685(14)
N3B N -0.06767(16) 0.5284(4) -0.17897(14)
H19B H -0.0287 0.5584 -0.1531
N4B N -0.35890(15) 0.5810(4) -0.40253(14)
H20B H -0.3398 0.5085 -0.3712
N5B N -0.43831(16) 0.7514(4) -0.46551(14)
O1B O -0.21433(14) 0.5173(4) -0.41203(13)
O2B O -0.22520(16) 0.7092(4) -0.49664(15)
O3B O -0.29724(13) 0.5236(3) -0.20145(12)
O4B O -0.28095(12) 0.3882(3) -0.29398(11)
O5B O -0.08087(13) 0.6559(3) -0.05951(12)
O6B O -0.19797(13) 0.6692(4) -0.08545(11)
O7B O -0.42835(14) 0.9632(4) -0.57293(12)
O8B O -0.31616(16) 0.8877(4) -0.56942(14)
H21B H -0.276(3) 0.819(9) -0.539(3)
Mn1A Mn -0.5000 1.0000 -0.5000
Mn1A_2 Mn 0.5000 0.0000 0.5000
Mn2A Mn 0.29180(3) 0.22913(7) 0.14651(2)
Mn2B_2 Mn -0.20820(3) 1.27087(7) 0.64651(2)
Mn2C Mn -0.29180(3) 0.77087(7) -0.14651(2)
N1B_2 N -0.13432(17) 0.1493(5) -0.41512(15)
N5A N 0.06169(16) 0.7486(4) 0.03449(14)
N5C N -0.06169(16) 0.2514(4) -0.03449(14)
O3A O 0.20276(13) 0.9764(3) 0.29855(12)
O3C O -0.20276(13) 0.0236(3) -0.29855(12)
O6A O 0.30203(13) 0.8308(4) 0.41455(11)
O6C O -0.30203(13) 0.1692(4) -0.41455(11)
O7A O 0.07165(14) 0.5368(4) -0.07293(12)
O7C O -0.07165(14) 0.4632(4) 0.07293(12)
loop_
_geom_bond_atom_site_label_1
_geom_bond_atom_site_label_2
_geom_bond_site_symmetry_1
_geom_bond_site_symmetry_2
C1 H1 1_555 1_555
C2 C1 1_555 1_555
H2 C2 1_555 1_555
C3 C2 1_555 1_555
C4 C3 1_555 1_555
H3 C4 1_555 1_555
C5 C4 1_555 1_555
H4 C5 1_555 1_555
C6 C7 1_555 1_555
C7 H5 1_555 1_555
C8 C7 1_555 1_555
H6 C8 1_555 1_555
C9 C8 1_555 1_555
C10 C9 1_555 1_555
H7 C10 1_555 1_555
C11 C6 1_555 1_555
H8 C11 1_555 1_555
C12 C6 1_555 1_555
C13 C9 1_555 1_555
H9 C13 1_555 1_555
H10 C13 1_555 1_555
H11 C13 1_555 1_555
C14 C15 1_555 1_555
C15 C23 1_555 1_555
C16 C14 1_555 1_555
C17 H12 1_555 1_555
C18 C17 1_555 1_555
H13 C18 1_555 1_555
C19 H14 1_555 1_555
C20 C19 1_555 1_555
H15 C20 1_555 1_555
C21 C17 1_555 1_555
C22 C21 1_555 1_555
H16 C22 1_555 1_555
H17 C22 1_555 1_555
H18 C22 1_555 1_555
C23 O5 1_555 1_555
C24 C27 1_555 1_555
C25 C18 1_555 1_555
C26 C25 1_555 1_555
C27 C28 1_555 1_555
C28 C29 1_555 1_555
C29 O7 1_555 1_555
Mn1 O5 1_555 1_555
Mn2 N1 1_555 1_555
N1 C1 1_555 1_555
N2 C12 1_555 1_555
N3 C12 1_555 1_555
H19 N3 1_555 1_555
N4 C26 1_555 1_555
H20 N4 1_555 1_555
N5 C26 1_555 1_555
O1 C24 1_555 1_555
O2 C24 1_555 1_555
O3 C16 1_555 1_555
O4 C16 1_555 1_555
O6 C23 1_555 1_555
O7 Mn1A_2 1_555 1_555
O8 C29 1_555 1_555
H21 O8 1_555 1_555
C1B H1B 1_555 1_555
C2B C1B 1_555 1_555
H2B C2B 1_555 1_555
C3B C3 1_555 1_555
C4B C3B 1_555 1_555
H3B C4B 1_555 1_555
C5B C4B 1_555 1_555
H4B C5B 1_555 1_555
N1B C1B 1_555 1_555
C6B C7B 1_555 1_555
C7B H5B 1_555 1_555
C8B C7B 1_555 1_555
H6B C8B 1_555 1_555
C9B C8B 1_555 1_555
C10B C9B 1_555 1_555
H7B C10B 1_555 1_555
C11B C6B 1_555 1_555
H8B C11B 1_555 1_555
C12B C6B 1_555 1_555
C13B C9B 1_555 1_555
H9B C13B 1_555 1_555
H10B C13B 1_555 1_555
H11B C13B 1_555 1_555
C14B C15B 1_555 1_555
C15B C23B 1_555 1_555
C16B C14B 1_555 1_555
C17B H12B 1_555 1_555
C18B C17B 1_555 1_555
H13B C18B 1_555 1_555
C19B H14B 1_555 1_555
C20B C19B 1_555 1_555
H15B C20B 1_555 1_555
C21B C17B 1_555 1_555
C22B C21B 1_555 1_555
H16B C22B 1_555 1_555
H17B C22B 1_555 1_555
H18B C22B 1_555 1_555
C23B O5B 1_555 1_555
C24B C27B 1_555 1_555
C25B C18B 1_555 1_555
C26B C25B 1_555 1_555
C27B C28B 1_555 1_555
C28B C29B 1_555 1_555
C29B O7B 1_555 1_555
Mn2B N2B 1_555 1_555
N2B C12B 1_555 1_555
N3B C12B 1_555 1_555
H19B N3B 1_555 1_555
N4B C26B 1_555 1_555
H20B N4B 1_555 1_555
N5B C26B 1_555 1_555
O1B C24B 1_555 1_555
O2B C24B 1_555 1_555
O3B C16B 1_555 1_555
O4B C16B 1_555 1_555
O5B Mn1 1_555 1_555
O6B C23B 1_555 1_555
O7B Mn1A 1_555 1_555
O8B C29B 1_555 1_555
H21B O8B 1_555 1_555
Mn1A N5B 1_555 1_555
Mn1A_2 N5 1_555 1_555
Mn2A O3 1_555 1_555
Mn2B_2 N1B 1_555 1_555
Mn2C O3B 1_555 1_555
N1B_2 Mn2B 1_555 1_555
N5A Mn1 1_555 1_555
N5C Mn1 1_555 1_555
O3A Mn2 1_555 1_555
O3C Mn2B 1_555 1_555
O6A Mn2 1_555 1_555
O6C Mn2B 1_555 1_555
O7A Mn1 1_555 1_555
O7C Mn1 1_555 1_555
C5 N1 1_555 1_555
C10 C11 1_555 1_555
C14 N2 1_555 1_555
C15 N3 1_555 1_555
C19 C25 1_555 1_555
C20 C21 1_555 1_555
C27 N4 1_555 1_555
C28 N5 1_555 1_555
Mn2 N2 1_555 1_555
Mn2 O1 1_555 1_555
Mn2 O4 1_555 1_555
O6 Mn2A 1_555 1_555
C2B C3B 1_555 1_555
C5B N1B 1_555 1_555
C10B C11B 1_555 1_555
C14B N2B 1_555 1_555
C15B N3B 1_555 1_555
C19B C25B 1_555 1_555
C20B C21B 1_555 1_555
C27B N4B 1_555 1_555
C28B N5B 1_555 1_555
Mn2B O1B 1_555 1_555
Mn2B O4B 1_555 1_555
O6B Mn2C 1_555 1_555

#END
