
#######################################################################
#
#                 Cambridge Crystallographic Data Centre
#                                CCDC 
#
#######################################################################
#
# If this CIF has been generated from an entry in the Cambridge 
# Structural Database, then it will include bibliographic, chemical, 
# crystal, experimental, refinement or atomic coordinate data resulting 
# from the CCDC's data processing and validation procedures.
#
#######################################################################

data_OFEHAK
_symmetry_cell_setting           tetragonal
_symmetry_space_group_name_H-M   'I 41/a'
_symmetry_Int_Tables_number      88
_space_group_name_Hall           '-I 4ad'
loop_
_symmetry_equiv_pos_site_id
_symmetry_equiv_pos_as_xyz
1 x,y,z
2 3/4-y,1/4+x,1/4+z
3 1/2-x,-y,1/2+z
4 3/4+y,3/4-x,3/4+z
5 1/2+x,1/2+y,1/2+z
6 1/4-y,3/4+x,3/4+z
7 -x,1/2-y,z
8 1/4+y,1/4-x,1/4+z
9 -x,-y,-z
10 1/4+y,3/4-x,3/4-z
11 1/2+x,y,1/2-z
12 1/4-y,1/4+x,1/4-z
13 1/2-x,1/2-y,1/2-z
14 3/4+y,1/4-x,1/4-z
15 x,1/2+y,-z
16 3/4-y,3/4+x,3/4-z
_cell_length_a                   22.290(3)
_cell_length_b                   22.290(3)
_cell_length_c                   15.123(3)
_cell_angle_alpha                90
_cell_angle_beta                 90
_cell_angle_gamma                90
_cell_volume                     7513.77
loop_
_atom_site_label
_atom_site_type_symbol
_atom_site_fract_x
_atom_site_fract_y
_atom_site_fract_z
Cd1 Cd 0.76092(5) 0.82724(4) 0.69933(7)
N1 N 0.8159(5) 0.8789(5) 0.7972(8)
N2 N 0.8695(4) 0.9415(5) 0.8841(6)
O1 O 0.7829(5) 0.7641(4) 0.8234(7)
O2 O 0.8139(8) 0.7643(5) 0.9591(8)
H1 H 0.8054 0.7873 0.9995
O3 O 0.8705(7) 0.8321(6) 1.0596(7)
O4 O 0.9095(5) 0.9239(5) 1.0535(6)
O5 O 0.8424(10) 0.7980(12) 0.6186(13)
C1 C 0.8053(7) 0.7896(6) 0.8871(10)
C2 C 0.8279(6) 0.8496(6) 0.8752(8)
C3 C 0.8610(6) 0.8880(6) 0.9275(9)
C4 C 0.8819(8) 0.8822(8) 1.0219(10)
C5 C 0.8442(7) 0.9331(6) 0.8044(10)
C6 C 0.8350(7) 0.9820(5) 0.7314(8)
C7 C 0.8859(6) 1.0096(7) 0.6972(10)
H2 H 0.9238 0.9972 0.7154
C8 C 0.8802(7) 1.0557(7) 0.6359(11)
H3 H 0.9142 1.0742 0.6131
C9 C 0.8236(9) 1.0742(6) 0.6088(9)
C10 C 0.7727(7) 1.0466(7) 0.6429(10)
H4 H 0.7348 1.0590 0.6248
C11 C 0.7784(6) 1.0005(6) 0.7042(9)
H5 H 0.7443 0.9821 0.7271
C12 C 0.8130(17) 1.1150(17) 0.541(3)
H6 H 0.8505 1.1313 0.5209
H7 H 0.7879 1.1469 0.5624
H8 H 0.7933 1.0950 0.4928
H9 H 0.818(8) 0.786(8) 0.579(12)
H10 H 0.858(11) 0.760(5) 0.642(16)
Cd1A Cd 0.92276(4) 1.01092(5) 0.94933(7)
Cd1L Cd 0.73908(5) 0.67276(4) 0.80067(7)
N2C N 0.6915(5) 0.8805(4) 0.6341(6)
O1L O 0.7171(5) 0.7359(4) 0.6766(7)
O4C O 0.6739(5) 0.8405(5) 0.8035(6)
O6 O 1.0000 0.7500 0.3750
loop_
_geom_bond_atom_site_label_1
_geom_bond_atom_site_label_2
_geom_bond_site_symmetry_1
_geom_bond_site_symmetry_2
Cd1 N1 1_555 1_555
N1 C2 1_555 1_555
N2 C3 1_555 1_555
O1 Cd1 1_555 1_555
O2 H1 1_555 1_555
O3 C4 1_555 1_555
O4 C4 1_555 1_555
O5 Cd1 1_555 1_555
C1 O1 1_555 1_555
C2 C1 1_555 1_555
C3 C2 1_555 1_555
C4 C3 1_555 1_555
C5 N1 1_555 1_555
C6 C5 1_555 1_555
C7 C6 1_555 1_555
H2 C7 1_555 1_555
C8 C7 1_555 1_555
H3 C8 1_555 1_555
C9 C8 1_555 1_555
C10 C9 1_555 1_555
H4 C10 1_555 1_555
C11 C6 1_555 1_555
H5 C11 1_555 1_555
C12 C9 1_555 1_555
H6 C12 1_555 1_555
H7 C12 1_555 1_555
H8 C12 1_555 1_555
H9 O5 1_555 1_555
H10 O5 1_555 1_555
Cd1A N2 1_555 1_555
Cd1L O1 1_555 1_555
N2C Cd1 1_555 1_555
O1L Cd1 1_555 1_555
O4C Cd1 1_555 1_555
N2 C5 1_555 1_555
O2 C1 1_555 1_555
O4 Cd1A 1_555 1_555
C10 C11 1_555 1_555
Cd1L O1L 1_555 1_555

#END
