
#######################################################################
#
#                 Cambridge Crystallographic Data Centre
#                                CCDC 
#
#######################################################################
#
# If this CIF has been generated from an entry in the Cambridge 
# Structural Database, then it will include bibliographic, chemical, 
# crystal, experimental, refinement or atomic coordinate data resulting 
# from the CCDC's data processing and validation procedures.
#
#######################################################################

data_OFEHEO
_symmetry_cell_setting           tetragonal
_symmetry_space_group_name_H-M   'I 41/a'
_symmetry_Int_Tables_number      88
_space_group_name_Hall           '-I 4ad'
loop_
_symmetry_equiv_pos_site_id
_symmetry_equiv_pos_as_xyz
1 x,y,z
2 1/2-x,-y,1/2+z
3 3/4-y,1/4+x,1/4+z
4 3/4+y,3/4-x,3/4+z
5 1/2+x,1/2+y,1/2+z
6 -x,1/2-y,z
7 1/4-y,3/4+x,3/4+z
8 1/4+y,1/4-x,1/4+z
9 -x,-y,-z
10 1/2+x,y,1/2-z
11 1/4+y,3/4-x,3/4-z
12 1/4-y,1/4+x,1/4-z
13 1/2-x,1/2-y,1/2-z
14 x,1/2+y,-z
15 3/4+y,1/4-x,1/4-z
16 3/4-y,3/4+x,3/4-z
_cell_length_a                   22.143(4)
_cell_length_b                   22.143(4)
_cell_length_c                   16.282(6)
_cell_angle_alpha                90
_cell_angle_beta                 90
_cell_angle_gamma                90
_cell_volume                     7983.27
loop_
_atom_site_label
_atom_site_type_symbol
_atom_site_fract_x
_atom_site_fract_y
_atom_site_fract_z
Cd1 Cd 0.920320(7) 0.488325(7) 0.949745(10)
O1 O 0.89667(10) 0.57320(8) 1.04353(11)
O2 O 0.80258(11) 0.73296(9) 0.95026(12)
O3 O 0.77940(8) 0.73541(7) 0.81783(11)
N1 N 0.94294(10) 0.39855(9) 0.88070(14)
C1 C 0.79992(11) 0.70910(10) 0.88044(15)
O4 O 0.85396(11) 0.66334(9) 1.04794(11)
H1 H 0.8362 0.6861 1.0164
C2 C 0.86988(11) 0.61444(11) 1.00872(15)
N2 N 0.86455(8) 0.55552(8) 0.88090(12)
C3 C 0.98704(12) 0.28127(10) 0.85713(17)
C4 C 0.85275(10) 0.60841(9) 0.92167(14)
C5 C 0.83965(10) 0.56203(10) 0.80641(14)
C6 C 0.83772(12) 0.51429(10) 0.74302(15)
C7 C 1.02216(12) 0.33130(11) 0.83974(18)
H2 H 1.0612 0.3267 0.8198
C8 C 0.99825(11) 0.38880(11) 0.85248(17)
H3 H 1.0224 0.4221 0.8405
C9 C 0.92769(13) 0.29134(12) 0.8805(2)
H4 H 0.9016 0.2590 0.8884
C10 C 0.90769(13) 0.34960(12) 0.8921(2)
H5 H 0.8679 0.3555 0.9086
N3 N 0.81345(9) 0.61686(8) 0.79632(12)
C11 C 0.82167(10) 0.64611(10) 0.86922(14)
C12 C 0.88873(16) 0.48301(14) 0.7205(2)
H6 H 0.9256 0.4920 0.7449
C13 C 0.78259(15) 0.49973(14) 0.70617(19)
H7 H 0.7478 0.5207 0.7207
C14 C 0.8306(2) 0.4232(2) 0.6250(3)
C15 C 0.7797(2) 0.45414(17) 0.6480(2)
H8 H 0.7428 0.4444 0.6243
C16 C 0.8851(2) 0.4378(2) 0.6611(3)
H9 H 0.9199 0.4173 0.6455
C17 C 0.8263(2) 0.3740(2) 0.5589(3)
H10 H 0.8049 0.3895 0.5122
H11 H 0.8051 0.3397 0.5807
H12 H 0.8662 0.3620 0.5426
N1E N 1.05706(10) 0.10145(9) 0.88070(14)
C3E C 1.01296(12) 0.21873(10) 0.85713(17)
C7E C 0.97784(12) 0.16870(11) 0.83974(18)
H2E H 0.9388 0.1733 0.8198
C8E C 1.00175(11) 0.11120(11) 0.85248(17)
H3E H 0.9776 0.0779 0.8405
C9E C 1.07231(13) 0.20866(12) 0.8805(2)
H4E H 1.0984 0.2410 0.8884
C10E C 1.09231(13) 0.15040(12) 0.8921(2)
H5E H 1.1321 0.1445 0.9086
Cd1E Cd 1.079680(7) 0.011675(7) 0.949745(10)
O1E O 1.10333(10) -0.07320(8) 1.04353(11)
O2E O 1.19742(11) -0.23296(9) 0.95026(12)
O3E O 1.22060(8) -0.23541(7) 0.81783(11)
C1E C 1.20008(11) -0.20910(10) 0.88044(15)
O4E O 1.14604(11) -0.16334(9) 1.04794(11)
H1E H 1.1638 -0.1861 1.0164
C2E C 1.13012(11) -0.11444(11) 1.00872(15)
N2E N 1.13545(8) -0.05552(8) 0.88090(12)
C4E C 1.14725(10) -0.10841(9) 0.92167(14)
C5E C 1.16035(10) -0.06203(10) 0.80641(14)
C6E C 1.16228(12) -0.01429(10) 0.74302(15)
N3E N 1.18655(9) -0.11686(8) 0.79632(12)
C11E C 1.17833(10) -0.14611(10) 0.86922(14)
C12E C 1.11127(16) 0.01699(14) 0.7205(2)
H6E H 1.0744 0.0080 0.7449
C13E C 1.21741(15) 0.00027(14) 0.70617(19)
H7E H 1.2522 -0.0207 0.7207
C14E C 1.1694(2) 0.0768(2) 0.6250(3)
C15E C 1.2203(2) 0.04586(17) 0.6480(2)
H8E H 1.2572 0.0556 0.6243
C16E C 1.1149(2) 0.0622(2) 0.6611(3)
H9E H 1.0801 0.0827 0.6455
C17E C 1.1737(2) 0.1260(2) 0.5589(3)
H10E H 1.1951 0.1105 0.5122
H11E H 1.1949 0.1603 0.5807
H12E H 1.1338 0.1380 0.5426
Cd1C Cd 1.238325(7) -0.170320(7) 0.699745(10)
Cd1F Cd 0.761675(7) 0.670320(7) 0.699745(10)
Cd1J Cd 0.738325(7) 0.829680(7) 0.800255(10)
Cd1O Cd 1.261675(7) -0.329680(7) 0.800255(10)
O3B O 1.01459(7) 0.02940(8) 1.06783(11)
O3G O 0.98541(7) 0.47060(8) 1.06783(11)
O3J O 0.98541(7) -0.02940(8) 0.93217(11)
O3O O 1.01459(7) 0.52940(8) 0.93217(11)
N3B N 1.13314(8) 0.06345(9) 1.04632(12)
N3G N 0.86686(8) 0.43655(9) 1.04632(12)
loop_
_geom_bond_atom_site_label_1
_geom_bond_atom_site_label_2
_geom_bond_site_symmetry_1
_geom_bond_site_symmetry_2
Cd1 O1 1_555 1_555
O1 C2 1_555 1_555
O2 C1 1_555 1_555
O3 C1 1_555 1_555
N1 Cd1 1_555 1_555
C1 C11 1_555 1_555
O4 H1 1_555 1_555
C2 O4 1_555 1_555
N2 Cd1 1_555 1_555
C3 C7 1_555 1_555
C4 C2 1_555 1_555
C5 N2 1_555 1_555
C6 C5 1_555 1_555
C7 H2 1_555 1_555
C8 N1 1_555 1_555
H3 C8 1_555 1_555
C9 C3 1_555 1_555
H4 C9 1_555 1_555
C10 N1 1_555 1_555
H5 C10 1_555 1_555
N3 C5 1_555 1_555
C11 C4 1_555 1_555
C12 C6 1_555 1_555
H6 C12 1_555 1_555
C13 C6 1_555 1_555
H7 C13 1_555 1_555
C14 C15 1_555 1_555
C15 C13 1_555 1_555
H8 C15 1_555 1_555
C16 C12 1_555 1_555
H9 C16 1_555 1_555
C17 C14 1_555 1_555
H10 C17 1_555 1_555
H11 C17 1_555 1_555
H12 C17 1_555 1_555
N1E C8E 1_555 1_555
C3E C3 1_555 1_555
C7E C3E 1_555 1_555
H2E C7E 1_555 1_555
C8E C7E 1_555 1_555
H3E C8E 1_555 1_555
C9E C3E 1_555 1_555
H4E C9E 1_555 1_555
C10E N1E 1_555 1_555
H5E C10E 1_555 1_555
Cd1E N1E 1_555 1_555
O1E Cd1E 1_555 1_555
O2E C1E 1_555 1_555
O3E C1E 1_555 1_555
C1E C11E 1_555 1_555
O4E H1E 1_555 1_555
C2E O1E 1_555 1_555
N2E Cd1E 1_555 1_555
C4E C2E 1_555 1_555
C5E N2E 1_555 1_555
C6E C5E 1_555 1_555
N3E C5E 1_555 1_555
C11E C4E 1_555 1_555
C12E C6E 1_555 1_555
H6E C12E 1_555 1_555
C13E C6E 1_555 1_555
H7E C13E 1_555 1_555
C14E C15E 1_555 1_555
C15E C13E 1_555 1_555
H8E C15E 1_555 1_555
C16E C12E 1_555 1_555
H9E C16E 1_555 1_555
C17E C14E 1_555 1_555
H10E C17E 1_555 1_555
H11E C17E 1_555 1_555
H12E C17E 1_555 1_555
Cd1C O3E 1_555 1_555
Cd1F O3 1_555 1_555
Cd1J O3 1_555 1_555
Cd1O O3E 1_555 1_555
O3B Cd1E 1_555 1_555
O3G Cd1 1_555 1_555
O3J Cd1E 1_555 1_555
O3O Cd1 1_555 1_555
N3B Cd1E 1_555 1_555
N3G Cd1 1_555 1_555
N2 C4 1_555 1_555
C7 C8 1_555 1_555
C9 C10 1_555 1_555
N3 C11 1_555 1_555
N3 Cd1F 1_555 1_555
C14 C16 1_555 1_555
C9E C10E 1_555 1_555
O4E C2E 1_555 1_555
N2E C4E 1_555 1_555
N3E C11E 1_555 1_555
N3E Cd1C 1_555 1_555
C14E C16E 1_555 1_555

#END
