
#######################################################################
#
#                 Cambridge Crystallographic Data Centre
#                                CCDC 
#
#######################################################################
#
# If this CIF has been generated from an entry in the Cambridge 
# Structural Database, then it will include bibliographic, chemical, 
# crystal, experimental, refinement or atomic coordinate data resulting 
# from the CCDC's data processing and validation procedures.
#
#######################################################################

data_OFEJIS
_symmetry_cell_setting           monoclinic
_symmetry_space_group_name_H-M   'P 21/c'
_symmetry_Int_Tables_number      14
_space_group_name_Hall           '-P 2ybc'
loop_
_symmetry_equiv_pos_site_id
_symmetry_equiv_pos_as_xyz
1 x,y,z
2 x,1/2-y,1/2+z
3 -x,-y,-z
4 -x,1/2+y,1/2-z
_cell_length_a                   8.5769(4)
_cell_length_b                   12.6319(6)
_cell_length_c                   11.3118(5)
_cell_angle_alpha                90
_cell_angle_beta                 102.1310(10)
_cell_angle_gamma                90
_cell_volume                     1198.18
loop_
_atom_site_label
_atom_site_type_symbol
_atom_site_fract_x
_atom_site_fract_y
_atom_site_fract_z
Cu1 Cu 0.0000 0.0000 0.0000
O1 O 0.1020(3) -0.8650(2) -0.0968(2)
N1 N 0.0753(3) -0.7646(2) -0.0693(2)
C1 C -0.0009(4) -0.6999(3) -0.1560(3)
H1 H -0.0344(4) -0.7252(3) -0.2345(3)
C2 C -0.0302(4) -0.5962(3) -0.1300(3)
H2 H -0.0814(4) -0.5522(3) -0.1920(3)
C3 C 0.0145(3) -0.5559(2) -0.0142(2)
C4 C 0.0922(3) -0.6265(2) 0.0728(3)
H3 H 0.1250(3) -0.6035(2) 0.1522(3)
C5 C 0.1216(4) -0.7287(2) 0.0446(3)
H4 H 0.1742(4) -0.7740(2) 0.1048(3)
O2 O -0.1480(2) 0.09942(15) 0.0545(2)
C6 C -0.2862(3) 0.1209(2) -0.0050(3)
C7 C -0.3650(3) 0.0796(2) -0.1143(3)
H5 H -0.4689(3) 0.1016(2) -0.1460(3)
C8 C -0.2950(3) 0.0067(2) -0.1784(3)
O3 O -0.1573(2) -0.0306(2) -0.1513(2)
C9 C 0.3701(5) -0.2061(3) -0.0524(4)
F1 F 0.3230(5) -0.2976(2) -0.0275(5)
F2 F 0.3422(4) -0.1999(3) -0.1673(3)
F3 F 0.5238(3) -0.2079(3) -0.0168(2)
C10 C 0.3903(4) 0.0344(3) 0.2973(3)
F4 F 0.5398(3) 0.0082(2) 0.3222(3)
F5 F 0.3286(3) 0.0041(2) 0.3906(2)
F6 F 0.3837(3) 0.1410(2) 0.3006(2)
C3B C -0.0145(3) -0.4441(2) 0.0142(2)
C2B C 0.0302(4) -0.4038(3) 0.1300(3)
C1B C 0.0009(4) -0.3001(3) 0.1560(3)
N1B N -0.0753(3) -0.2354(2) 0.0693(2)
O1B O -0.1020(3) -0.1350(2) 0.0968(2)
Cu1_2 Cu 0.0000 -1.0000 0.0000
O1_2 O 0.1020(3) 0.1350(2) -0.0968(2)
O2B O 0.1480(2) -0.09942(15) -0.0545(2)
C6B C 0.2862(3) -0.1209(2) 0.0050(3)
C7B C 0.3650(3) -0.0796(2) 0.1143(3)
H5B H 0.4689(3) -0.1016(2) 0.1460(3)
C8B C 0.2950(3) -0.0067(2) 0.1784(3)
O3B O 0.1573(2) 0.0306(2) 0.1513(2)
C10B C -0.3903(4) -0.0344(3) -0.2973(3)
F4B F -0.5398(3) -0.0082(2) -0.3222(3)
F5B F -0.3286(3) -0.0041(2) -0.3906(2)
F6B F -0.3837(3) -0.1410(2) -0.3006(2)
C9B C -0.3701(5) 0.2061(3) 0.0524(4)
F1B F -0.3230(5) 0.2976(2) 0.0275(5)
F2B F -0.3422(4) 0.1999(3) 0.1673(3)
F3B F -0.5238(3) 0.2079(3) 0.0168(2)
C5B C -0.1216(4) -0.2713(2) -0.0446(3)
C4B C -0.0922(3) -0.3735(2) -0.0728(3)
H3B H -0.1250(3) -0.3965(2) -0.1522(3)
H4B H -0.1742(4) -0.2260(2) -0.1048(3)
H1B H 0.0344(4) -0.2748(3) 0.2345(3)
H2B H 0.0814(4) -0.4478(3) 0.1920(3)
loop_
_geom_bond_atom_site_label_1
_geom_bond_atom_site_label_2
_geom_bond_site_symmetry_1
_geom_bond_site_symmetry_2
Cu1 O2 1_555 1_555
O1 N1 1_555 1_555
N1 C1 1_555 1_555
C1 H1 1_555 1_555
C2 C1 1_555 1_555
H2 C2 1_555 1_555
C3 C2 1_555 1_555
C4 C3 1_555 1_555
H3 C4 1_555 1_555
C5 N1 1_555 1_555
H4 C5 1_555 1_555
O2 C6 1_555 1_555
C6 C7 1_555 1_555
C7 H5 1_555 1_555
C8 C7 1_555 1_555
O3 Cu1 1_555 1_555
C9 F1 1_555 1_555
F2 C9 1_555 1_555
F3 C9 1_555 1_555
C10 F4 1_555 1_555
F5 C10 1_555 1_555
F6 C10 1_555 1_555
C3B C3 1_555 1_555
C2B C3B 1_555 1_555
C1B C2B 1_555 1_555
N1B C1B 1_555 1_555
O1B Cu1 1_555 1_555
Cu1_2 O1 1_555 1_555
O1_2 Cu1 1_555 1_555
O2B Cu1 1_555 1_555
C6B C9 1_555 1_555
C7B C6B 1_555 1_555
H5B C7B 1_555 1_555
C8B C10 1_555 1_555
O3B Cu1 1_555 1_555
C10B C8 1_555 1_555
F4B C10B 1_555 1_555
F5B C10B 1_555 1_555
F6B C10B 1_555 1_555
C9B C6 1_555 1_555
F1B C9B 1_555 1_555
F2B C9B 1_555 1_555
F3B C9B 1_555 1_555
C5B N1B 1_555 1_555
C4B C3B 1_555 1_555
H3B C4B 1_555 1_555
H4B C5B 1_555 1_555
H1B C1B 1_555 1_555
H2B C2B 1_555 1_555
C4 C5 1_555 1_555
C8 O3 1_555 1_555
N1B O1B 1_555 1_555
O2B C6B 1_555 1_555
C7B C8B 1_555 1_555
C8B O3B 1_555 1_555
C5B C4B 1_555 1_555

#END
