
#######################################################################
#
#                 Cambridge Crystallographic Data Centre
#                                CCDC 
#
#######################################################################
#
# If this CIF has been generated from an entry in the Cambridge 
# Structural Database, then it will include bibliographic, chemical, 
# crystal, experimental, refinement or atomic coordinate data resulting 
# from the CCDC's data processing and validation procedures.
#
#######################################################################

data_OFEJEO
_symmetry_cell_setting           monoclinic
_symmetry_space_group_name_H-M   'P 21/c'
_symmetry_Int_Tables_number      14
_space_group_name_Hall           '-P 2ybc'
loop_
_symmetry_equiv_pos_site_id
_symmetry_equiv_pos_as_xyz
1 x,y,z
2 x,1/2-y,1/2+z
3 -x,-y,-z
4 -x,1/2+y,1/2-z
_cell_length_a                   8.7634(7)
_cell_length_b                   12.4653(10)
_cell_length_c                   11.1060(8)
_cell_angle_alpha                90
_cell_angle_beta                 100.877(2)
_cell_angle_gamma                90
_cell_volume                     1191.41
loop_
_atom_site_label
_atom_site_type_symbol
_atom_site_fract_x
_atom_site_fract_y
_atom_site_fract_z
Co1 Co 0.5000 0.0000 0.5000
O1 O 0.5819(3) -0.8737(2) 0.4068(2)
N1 N 0.5587(3) -0.7712(2) 0.4348(2)
C1 C 0.4824(5) -0.7070(3) 0.3474(3)
H1 H 0.4448(5) -0.7347(3) 0.2696(3)
C2 C 0.4588(4) -0.6005(3) 0.3709(3)
H2 H 0.4067(4) -0.5569(3) 0.3085(3)
C3 C 0.5116(4) -0.5571(2) 0.4862(3)
C4 C 0.5882(5) -0.6269(3) 0.5746(3)
H3 H 0.6244(5) -0.6019(3) 0.6538(3)
C5 C 0.6117(5) -0.7327(3) 0.5473(3)
H4 H 0.6649(5) -0.7778(3) 0.6077(3)
O2 O 0.6593(3) 0.0327(2) 0.6569(2)
C6 C 0.7935(4) -0.0046(3) 0.6811(3)
C7 C 0.8646(4) -0.0772(3) 0.6150(3)
H5 H 0.9656(4) -0.0987(3) 0.6472(3)
C8 C 0.7924(4) -0.1194(2) 0.5031(3)
O3 O 0.6600(3) -0.1005(2) 0.4421(2)
C9 C 0.1134(5) -0.0375(4) 0.1977(4)
F1 F 0.1203(4) -0.1454(2) 0.1966(3)
F2 F 0.1769(4) -0.0079(2) 0.1038(2)
F3 F -0.0305(3) -0.0091(3) 0.1732(3)
C10 C 0.1179(5) 0.2047(3) 0.5534(4)
F4 F -0.0323(3) 0.2002(3) 0.5204(3)
F5 F 0.1494(4) 0.2032(4) 0.6715(3)
F6 F 0.1560(5) 0.2984(2) 0.5201(5)
C3B C 0.4884(4) -0.4429(2) 0.5138(3)
C2B C 0.5412(4) -0.3995(3) 0.6291(3)
C1B C 0.5176(5) -0.2930(3) 0.6526(3)
N1B N 0.4413(3) -0.2288(2) 0.5652(2)
O1B O 0.4181(3) -0.1263(2) 0.5932(2)
Co1_2 Co 0.5000 -1.0000 0.5000
O1_2 O 0.5819(3) 0.1263(2) 0.4068(2)
O2B O 0.3407(3) -0.0327(2) 0.3431(2)
C6B C 0.2065(4) 0.0046(3) 0.3189(3)
C7B C 0.1354(4) 0.0772(3) 0.3850(3)
H5B H 0.0344(4) 0.0987(3) 0.3528(3)
C8B C 0.2076(4) 0.1194(2) 0.4969(3)
O3B O 0.3400(3) 0.1005(2) 0.5579(2)
C10B C 0.8821(5) -0.2047(3) 0.4466(4)
F4B F 1.0323(3) -0.2002(3) 0.4796(3)
F5B F 0.8506(4) -0.2032(4) 0.3285(3)
F6B F 0.8440(5) -0.2984(2) 0.4799(5)
C9B C 0.8866(5) 0.0375(4) 0.8023(4)
F1B F 0.8797(4) 0.1454(2) 0.8034(3)
F2B F 0.8231(4) 0.0079(2) 0.8962(2)
F3B F 1.0305(3) 0.0091(3) 0.8268(3)
C5B C 0.3883(5) -0.2673(3) 0.4527(3)
C4B C 0.4118(5) -0.3731(3) 0.4254(3)
H3B H 0.3756(5) -0.3981(3) 0.3462(3)
H4B H 0.3351(5) -0.2222(3) 0.3923(3)
H1B H 0.5552(5) -0.2653(3) 0.7304(3)
H2B H 0.5933(4) -0.4431(3) 0.6915(3)
loop_
_geom_bond_atom_site_label_1
_geom_bond_atom_site_label_2
_geom_bond_site_symmetry_1
_geom_bond_site_symmetry_2
Co1 O2 1_555 1_555
O1 N1 1_555 1_555
N1 C1 1_555 1_555
C1 H1 1_555 1_555
C2 C1 1_555 1_555
H2 C2 1_555 1_555
C3 C2 1_555 1_555
C4 C3 1_555 1_555
H3 C4 1_555 1_555
C5 N1 1_555 1_555
H4 C5 1_555 1_555
O2 C6 1_555 1_555
C6 C7 1_555 1_555
C7 H5 1_555 1_555
C8 C7 1_555 1_555
O3 Co1 1_555 1_555
C9 F1 1_555 1_555
F2 C9 1_555 1_555
F3 C9 1_555 1_555
C10 F4 1_555 1_555
F5 C10 1_555 1_555
F6 C10 1_555 1_555
C3B C3 1_555 1_555
C2B C3B 1_555 1_555
C1B C2B 1_555 1_555
N1B C1B 1_555 1_555
O1B Co1 1_555 1_555
Co1_2 O1 1_555 1_555
O1_2 Co1 1_555 1_555
O2B Co1 1_555 1_555
C6B C9 1_555 1_555
C7B C6B 1_555 1_555
H5B C7B 1_555 1_555
C8B C10 1_555 1_555
O3B Co1 1_555 1_555
C10B C8 1_555 1_555
F4B C10B 1_555 1_555
F5B C10B 1_555 1_555
F6B C10B 1_555 1_555
C9B C6 1_555 1_555
F1B C9B 1_555 1_555
F2B C9B 1_555 1_555
F3B C9B 1_555 1_555
C5B N1B 1_555 1_555
C4B C3B 1_555 1_555
H3B C4B 1_555 1_555
H4B C5B 1_555 1_555
H1B C1B 1_555 1_555
H2B C2B 1_555 1_555
C4 C5 1_555 1_555
C8 O3 1_555 1_555
N1B O1B 1_555 1_555
O2B C6B 1_555 1_555
C7B C8B 1_555 1_555
C8B O3B 1_555 1_555
C5B C4B 1_555 1_555

#END
