
#######################################################################
#
#                 Cambridge Crystallographic Data Centre
#                                CCDC 
#
#######################################################################
#
# If this CIF has been generated from an entry in the Cambridge 
# Structural Database, then it will include bibliographic, chemical, 
# crystal, experimental, refinement or atomic coordinate data resulting 
# from the CCDC's data processing and validation procedures.
#
#######################################################################

data_OFEMAN
_symmetry_cell_setting           monoclinic
_symmetry_space_group_name_H-M   'P 21/n'
_symmetry_Int_Tables_number      14
_space_group_name_Hall           '-P 2yn'
loop_
_symmetry_equiv_pos_site_id
_symmetry_equiv_pos_as_xyz
1 x,y,z
2 1/2+x,1/2-y,1/2+z
3 -x,-y,-z
4 1/2-x,1/2+y,1/2-z
_cell_length_a                   7.720(1)
_cell_length_b                   5.557(1)
_cell_length_c                   13.774(3)
_cell_angle_alpha                90
_cell_angle_beta                 102.54(3)
_cell_angle_gamma                90
_cell_volume                     576.809
loop_
_atom_site_label
_atom_site_type_symbol
_atom_site_fract_x
_atom_site_fract_y
_atom_site_fract_z
Ni1 Ni 0.0000 0.0000 0.0000
S1 S 0.17511(11) 0.24700(15) 0.14968(6)
N1 N 0.1975(4) 0.0627(5) -0.0779(2)
N2 N 0.4353(4) 0.0147(7) -0.1367(3)
N3 N 0.1349(4) 0.7054(5) 0.0645(2)
C1 C 0.3278(5) -0.0837(8) -0.0841(3)
C2 C 0.3746(6) 0.2358(9) -0.1653(3)
C3 C 0.2269(6) 0.2636(8) -0.1287(3)
C4 C 0.1564(4) 0.5170(6) 0.0997(2)
H1 H 0.344(5) -0.237(8) -0.059(3)
H2 H 0.434(6) 0.338(9) -0.206(4)
H3 H 0.157(7) 0.376(10) -0.137(4)
H4 H 0.517(8) -0.046(9) -0.149(4)
S1B S -0.17511(11) -0.24700(15) -0.14968(6)
N3B N -0.1349(4) -0.7054(5) -0.0645(2)
C4B C -0.1564(4) -0.5170(6) -0.0997(2)
N1B N -0.1975(4) -0.0627(5) 0.0779(2)
N2B N -0.4353(4) -0.0147(7) 0.1367(3)
C1B C -0.3278(5) 0.0837(8) 0.0841(3)
C2B C -0.3746(6) -0.2358(9) 0.1653(3)
C3B C -0.2269(6) -0.2636(8) 0.1287(3)
H1B H -0.344(5) 0.237(8) 0.059(3)
H2B H -0.434(6) -0.338(9) 0.206(4)
H3B H -0.157(7) -0.376(10) 0.137(4)
H4B H -0.517(8) 0.046(9) 0.149(4)
N3_2 N 0.1349(4) -0.2946(5) 0.0645(2)
N3B_2 N -0.1349(4) 0.2946(5) -0.0645(2)
Ni1_2 Ni 0.0000 1.0000 0.0000
Ni1_3 Ni 0.0000 -1.0000 0.0000
loop_
_geom_bond_atom_site_label_1
_geom_bond_atom_site_label_2
_geom_bond_site_symmetry_1
_geom_bond_site_symmetry_2
Ni1 S1 1_555 1_555
S1 C4 1_555 1_555
N1 Ni1 1_555 1_555
N2 C1 1_555 1_555
N3 C4 1_555 1_555
C1 N1 1_555 1_555
C2 N2 1_555 1_555
C3 N1 1_555 1_555
H1 C1 1_555 1_555
H2 C2 1_555 1_555
H3 C3 1_555 1_555
H4 N2 1_555 1_555
S1B Ni1 1_555 1_555
N3B C4B 1_555 1_555
C4B S1B 1_555 1_555
N1B Ni1 1_555 1_555
N2B C1B 1_555 1_555
C1B N1B 1_555 1_555
C2B N2B 1_555 1_555
C3B N1B 1_555 1_555
H1B C1B 1_555 1_555
H2B C2B 1_555 1_555
H3B C3B 1_555 1_555
H4B N2B 1_555 1_555
N3_2 Ni1 1_555 1_555
N3B_2 Ni1 1_555 1_555
Ni1_2 N3 1_555 1_555
Ni1_3 N3B 1_555 1_555
C2 C3 1_555 1_555
C2B C3B 1_555 1_555

#END
