
#######################################################################
#
#                 Cambridge Crystallographic Data Centre
#                                CCDC 
#
#######################################################################
#
# If this CIF has been generated from an entry in the Cambridge 
# Structural Database, then it will include bibliographic, chemical, 
# crystal, experimental, refinement or atomic coordinate data resulting 
# from the CCDC's data processing and validation procedures.
#
#######################################################################

data_OFERUN04
_symmetry_cell_setting           cubic
_symmetry_space_group_name_H-M   'I -4 3 m'
_symmetry_Int_Tables_number      217
_space_group_name_Hall           'I -4 2 3'
loop_
_symmetry_equiv_pos_site_id
_symmetry_equiv_pos_as_xyz
1 x,y,z
2 x,-y,-z
3 -x,-y,z
4 -x,y,-z
5 y,-x,-z
6 -y,-x,z
7 -y,x,-z
8 y,x,z
9 y,z,x
10 -y,-z,x
11 y,-z,-x
12 -y,z,-x
13 z,-y,-x
14 z,y,x
15 -z,y,-x
16 -z,-y,x
17 z,x,y
18 -z,x,-y
19 -z,-x,y
20 z,-x,-y
21 x,z,y
22 x,-z,-y
23 -x,z,-y
24 -x,-z,y
25 1/2+x,1/2+y,1/2+z
26 1/2+x,1/2-y,1/2-z
27 1/2-x,1/2-y,1/2+z
28 1/2-x,1/2+y,1/2-z
29 1/2+y,1/2-x,1/2-z
30 1/2-y,1/2-x,1/2+z
31 1/2-y,1/2+x,1/2-z
32 1/2+y,1/2+x,1/2+z
33 1/2+y,1/2+z,1/2+x
34 1/2-y,1/2-z,1/2+x
35 1/2+y,1/2-z,1/2-x
36 1/2-y,1/2+z,1/2-x
37 1/2+z,1/2-y,1/2-x
38 1/2+z,1/2+y,1/2+x
39 1/2-z,1/2+y,1/2-x
40 1/2-z,1/2-y,1/2+x
41 1/2+z,1/2+x,1/2+y
42 1/2-z,1/2+x,1/2-y
43 1/2-z,1/2-x,1/2+y
44 1/2+z,1/2-x,1/2-y
45 1/2+x,1/2+z,1/2+y
46 1/2+x,1/2-z,1/2-y
47 1/2-x,1/2+z,1/2-y
48 1/2-x,1/2-z,1/2+y
_cell_length_a                   17.0544(16)
_cell_length_b                   17.0544(16)
_cell_length_c                   17.0544(16)
_cell_angle_alpha                90
_cell_angle_beta                 90
_cell_angle_gamma                90
_cell_volume                     4960.32
loop_
_atom_site_label
_atom_site_type_symbol
_atom_site_fract_x
_atom_site_fract_y
_atom_site_fract_z
Zn1 Zn 0.0000 0.5000 0.7500
N1 N 0.0904(2) 0.47085(17) 0.81715(18)
C1 C 0.1337(3) 0.4020(3) 0.8114(3)
H1 H 0.1254 0.3624 0.7749
C2 C 0.12253(17) 0.5072(5) 0.87747(17)
C3 C 0.0928(3) 0.5854(4) 0.9072(3)
H2 H 0.0374 0.5890 0.8987
H3 H 0.1192 0.6275 0.8808
N1N N 0.18285(18) 0.47085(17) 0.9096(2)
C1N C 0.1886(3) 0.4020(3) 0.8663(3)
H1N H 0.2251 0.3624 0.8746
H2N H 0.1013 0.5890 0.9626
N1B N -0.0904(2) 0.52915(17) 0.81715(18)
C1B C -0.1337(3) 0.5980(3) 0.8114(3)
H1B H -0.1254 0.6376 0.7749
C2B C -0.12253(17) 0.4928(5) 0.87747(17)
C3B C -0.0928(3) 0.4146(4) 0.9072(3)
H2B H -0.0374 0.4110 0.8987
H3B H -0.1192 0.3725 0.8808
N1L N -0.18285(18) 0.52915(17) 0.9096(2)
C1L C -0.1886(3) 0.5980(3) 0.8663(3)
H1L H -0.2251 0.6376 0.8746
H2L H -0.1013 0.4110 0.9626
Zn1L Zn -0.2500 0.5000 1.0000
Zn1N Zn 0.2500 0.5000 1.0000
N1BA N -0.02915(17) 0.4096(2) 0.68285(18)
N1DA N 0.02915(17) 0.5904(2) 0.68285(18)
loop_
_geom_bond_atom_site_label_1
_geom_bond_atom_site_label_2
_geom_bond_site_symmetry_1
_geom_bond_site_symmetry_2
Zn1 N1 1_555 1_555
N1 C1 1_555 1_555
C1 H1 1_555 1_555
C2 N1 1_555 1_555
C3 C2 1_555 1_555
H2 C3 1_555 1_555
H3 C3 1_555 1_555
N1N C2 1_555 1_555
C1N C1 1_555 1_555
H1N C1N 1_555 1_555
H2N C3 1_555 1_555
N1B Zn1 1_555 1_555
C1B N1B 1_555 1_555
H1B C1B 1_555 1_555
C2B N1B 1_555 1_555
C3B C2B 1_555 1_555
H2B C3B 1_555 1_555
H3B C3B 1_555 1_555
N1L C2B 1_555 1_555
C1L C1B 1_555 1_555
H1L C1L 1_555 1_555
H2L C3B 1_555 1_555
Zn1L N1L 1_555 1_555
Zn1N N1N 1_555 1_555
N1BA Zn1 1_555 1_555
N1DA Zn1 1_555 1_555
N1N C1N 1_555 1_555
N1L C1L 1_555 1_555

#END
