
#######################################################################
#
#                 Cambridge Crystallographic Data Centre
#                                CCDC 
#
#######################################################################
#
# If this CIF has been generated from an entry in the Cambridge 
# Structural Database, then it will include bibliographic, chemical, 
# crystal, experimental, refinement or atomic coordinate data resulting 
# from the CCDC's data processing and validation procedures.
#
#######################################################################

data_OFERUN08
_symmetry_cell_setting           tetragonal
_symmetry_space_group_name_H-M   'P -4 2 c'
_symmetry_Int_Tables_number      112
_space_group_name_Hall           'P -4 2c'
loop_
_symmetry_equiv_pos_site_id
_symmetry_equiv_pos_as_xyz
1 x,y,z
2 -x,-y,z
3 -x,y,1/2-z
4 -y,-x,1/2+z
5 -y,x,-z
6 y,-x,-z
7 y,x,1/2+z
8 x,-y,1/2-z
_cell_length_a                   16.1391(10)
_cell_length_b                   16.1391(10)
_cell_length_c                   16.3210(13)
_cell_angle_alpha                90
_cell_angle_beta                 90
_cell_angle_gamma                90
_cell_volume                     4251.14
loop_
_atom_site_label
_atom_site_type_symbol
_atom_site_fract_x
_atom_site_fract_y
_atom_site_fract_z
Zn1 Zn 1 0.000 0.500
Zn2 Zn 0.500 0.000 0.250
Zn3 Zn 0.72968(19) 0.000 0.750
Zn4 Zn 0.58532(12) 0.24921(16) 0.51276(15)
C1 C 0.66216(22) 0.42449(15) 0.50852(16)
C2 C 0.72773(22) 0.43488(14) 0.38911(16)
C3 C 0.68970(18) 0.35873(13) 0.39256(13)
C4 C 0.62981(15) 0.45056(17) 0.59180(13)
N1 N 0.64755(18) 0.35039(13) 0.46927(14)
N2 N 0.70968(24) 0.47393(13) 0.46239(19)
H1 H 0.76291(75) 0.46251(79) 0.34423(51)
H2 H 0.69001(76) 0.31408(75) 0.34942(73)
H3 H 0.67031(63) 0.4449(10) 0.63640(58)
H4 H 0.61410(57) 0.5093(11) 0.59068(56)
H5 H 0.58044(70) 0.41747(73) 0.60781(50)
C5 C 0.53548(12) 0.12848(17) 0.37533(18)
C6 C 0.66288(16) 0.12125(21) 0.40775(20)
C7 C 0.64746(13) 0.06761(23) 0.34149(21)
C8 C 0.44764(10) 0.15326(14) 0.37768(16)
N3 N 0.56637(12) 0.07250(17) 0.32397(17)
N4 N 0.59138(15) 0.15989(21) 0.42749(17)
H6 H 0.71584(69) 0.13280(63) 0.43945(72)
H7 H 0.68410(54) 0.03134(89) 0.31228(62)
H8 H 0.41508(63) 0.11824(56) 0.34046(59)
H9 H 0.42587(71) 0.15032(61) 0.43365(65)
H10 H 0.44144(75) 0.21023(75) 0.35895(59)
C9 C 0.63013(18) 0.11866(12) 0.64589(16)
C10 C 0.68372(22) 0.23540(20) 0.67826(17)
C11 C 0.70593(21) 0.17806(14) 0.73945(18)
C12 C 0.58391(12) 0.05523(11) 0.60137(13)
N5 N 0.67224(17) 0.10424(16) 0.71850(21)
N6 N 0.63470(25) 0.19664(13) 0.61913(18)
H11 H 0.69804(67) 0.29441(64) 0.67381(81)
H12 H 0.74044(80) 0.18476(69) 0.79014(89)
H13 H 0.53501(76) 0.07948(65) 0.57645(68)
H14 H 0.61788(66) 0.02891(71) 0.55557(75)
H15 H 0.56606(69) 0.01231(88) 0.64178(66)
C13 C 0.86442(13) 0.00290(18) 0.63008(19)
C14 C 0.78103(19) -0.09479(17) 0.59602(18)
C15 C 0.85159(16) -0.10216(22) 0.54647(25)
C16 C 0.89886(13) 0.07545(13) 0.67355(13)
N7 N 0.90395(18) -0.03989(22) 0.56839(15)
N8 N 0.78999(15) -0.02827(17) 0.64761(18)
H16 H 0.73172(75) -0.12765(84) 0.59651(57)
H17 H 0.86595(63) -0.14252(62) 0.5026(14)
H18 H 0.94686(94) 0.09855(62) 0.64154(50)
H19 H 0.91747(56) 0.06161(64) 0.7310(13)
H20 H 0.85705(59) 0.11896(62) 0.67822(74)
Zn3A Zn 0.27032(19) 0.000 0.750
Zn4A Zn 0.41468(12) -0.24921(16) 0.51276(15)
C1A C 0.33784(22) -0.42449(15) 0.50852(16)
C2A C 0.27227(22) -0.43488(14) 0.38911(16)
C3A C 0.31030(18) -0.35873(13) 0.39256(13)
C4A C 0.37019(15) -0.45056(17) 0.59180(13)
N1A N 0.35245(18) -0.35039(13) 0.46927(14)
N2A N 0.29032(24) -0.47393(13) 0.46239(19)
H1A H 0.23709(75) -0.46251(79) 0.34423(51)
H2A H 0.30999(76) -0.31408(75) 0.34942(73)
H3A H 0.32969(63) -0.4449(10) 0.63640(58)
H4A H 0.38590(57) -0.5093(11) 0.59068(56)
H5A H 0.41956(70) -0.41747(73) 0.60781(50)
C5A C 0.46452(12) -0.12848(17) 0.37533(18)
C6A C 0.33712(16) -0.12125(21) 0.40775(20)
C7A C 0.35254(13) -0.06761(23) 0.34149(21)
C8A C 0.55236(10) -0.15326(14) 0.37768(16)
N3A N 0.43363(12) -0.07250(17) 0.32397(17)
N4A N 0.40862(15) -0.15989(21) 0.42749(17)
H6A H 0.28416(69) -0.13280(63) 0.43945(72)
H7A H 0.31590(54) -0.03134(89) 0.31228(62)
H8A H 0.58492(63) -0.11824(56) 0.34046(59)
H9A H 0.57413(71) -0.15032(61) 0.43365(65)
H10A H 0.55856(75) -0.21023(75) 0.35895(59)
C9A C 0.36987(18) -0.11866(12) 0.64589(16)
C10A C 0.31628(22) -0.23540(20) 0.67826(17)
C11A C 0.29407(21) -0.17806(14) 0.73945(18)
C12A C 0.41609(12) -0.05523(11) 0.60137(13)
N5A N 0.32776(17) -0.10424(16) 0.71850(21)
N6A N 0.36530(25) -0.19664(13) 0.61913(18)
H11A H 0.30196(67) -0.29441(64) 0.67381(81)
H12A H 0.25956(80) -0.18476(69) 0.79014(89)
H13A H 0.46499(76) -0.07948(65) 0.57645(68)
H14A H 0.38212(66) -0.02891(71) 0.55557(75)
H15A H 0.43394(69) -0.01231(88) 0.64178(66)
C13A C 0.13558(13) -0.00290(18) 0.63008(19)
C14A C 0.21897(19) 0.09479(17) 0.59602(18)
C15A C 0.14841(16) 0.10216(22) 0.54647(25)
C16A C 0.10114(13) -0.07545(13) 0.67355(13)
N7A N 0.09605(18) 0.03989(22) 0.56839(15)
N8A N 0.21001(15) 0.02827(17) 0.64761(18)
H16A H 0.26828(75) 0.12765(84) 0.59651(57)
H17A H 0.13405(63) 0.14252(62) 0.5026(14)
H18A H 0.05314(94) -0.09855(62) 0.64154(50)
H19A H 0.08253(56) -0.06161(64) 0.7310(13)
H20A H 0.14295(59) -0.11896(62) 0.67822(74)
Zn4B Zn 0.41468(12) 0.24921(16) -0.01276(15)
C1B C 0.33784(22) 0.42449(15) -0.00852(16)
C2B C 0.27227(22) 0.43488(14) 0.11089(16)
C3B C 0.31030(18) 0.35873(13) 0.10744(13)
C4B C 0.37019(15) 0.45056(17) -0.09180(13)
N1B N 0.35245(18) 0.35039(13) 0.03073(14)
N2B N 0.29032(24) 0.47393(13) 0.03761(19)
H1B H 0.23709(75) 0.46251(79) 0.15577(51)
H2B H 0.30999(76) 0.31408(75) 0.15058(73)
H3B H 0.32969(63) 0.4449(10) -0.13640(58)
H4B H 0.38590(57) 0.5093(11) -0.09068(56)
H5B H 0.41956(70) 0.41747(73) -0.10781(50)
C5B C 0.46452(12) 0.12848(17) 0.12467(18)
C6B C 0.33712(16) 0.12125(21) 0.09225(20)
C7B C 0.35254(13) 0.06761(23) 0.15851(21)
C8B C 0.55236(10) 0.15326(14) 0.12232(16)
N3B N 0.43363(12) 0.07250(17) 0.17603(17)
N4B N 0.40862(15) 0.15989(21) 0.07251(17)
H6B H 0.28416(69) 0.13280(63) 0.06055(72)
H7B H 0.31590(54) 0.03134(89) 0.18772(62)
H8B H 0.58492(63) 0.11824(56) 0.15954(59)
H9B H 0.57413(71) 0.15032(61) 0.06635(65)
H10B H 0.55856(75) 0.21023(75) 0.14105(59)
C9B C 0.36987(18) 0.11866(12) -0.14589(16)
C10B C 0.31628(22) 0.23540(20) -0.17826(17)
C11B C 0.29407(21) 0.17806(14) -0.23945(18)
C12B C 0.41609(12) 0.05523(11) -0.10137(13)
N5B N 0.32776(17) 0.10424(16) -0.21850(21)
N6B N 0.36530(25) 0.19664(13) -0.11913(18)
H11B H 0.30196(67) 0.29441(64) -0.17381(81)
H12B H 0.25956(80) 0.18476(69) -0.29014(89)
H13B H 0.46499(76) 0.07948(65) -0.07645(68)
H14B H 0.38212(66) 0.02891(71) -0.05557(75)
H15B H 0.43394(69) 0.01231(88) -0.14178(66)
Zn4G Zn 0.58532(12) -0.24921(16) -0.01276(15)
C1G C 0.66216(22) -0.42449(15) -0.00852(16)
C2G C 0.72773(22) -0.43488(14) 0.11089(16)
C3G C 0.68970(18) -0.35873(13) 0.10744(13)
C4G C 0.62981(15) -0.45056(17) -0.09180(13)
N1G N 0.64755(18) -0.35039(13) 0.03073(14)
N2G N 0.70968(24) -0.47393(13) 0.03761(19)
H1G H 0.76291(75) -0.46251(79) 0.15577(51)
H2G H 0.69001(76) -0.31408(75) 0.15058(73)
H3G H 0.67031(63) -0.4449(10) -0.13640(58)
H4G H 0.61410(57) -0.5093(11) -0.09068(56)
H5G H 0.58044(70) -0.41747(73) -0.10781(50)
C5G C 0.53548(12) -0.12848(17) 0.12467(18)
C6G C 0.66288(16) -0.12125(21) 0.09225(20)
C7G C 0.64746(13) -0.06761(23) 0.15851(21)
C8G C 0.44764(10) -0.15326(14) 0.12232(16)
N3G N 0.56637(12) -0.07250(17) 0.17603(17)
N4G N 0.59138(15) -0.15989(21) 0.07251(17)
H6G H 0.71584(69) -0.13280(63) 0.06055(72)
H7G H 0.68410(54) -0.03134(89) 0.18772(62)
H8G H 0.41508(63) -0.11824(56) 0.15954(59)
H9G H 0.42587(71) -0.15032(61) 0.06635(65)
H10G H 0.44144(75) -0.21023(75) 0.14105(59)
C9G C 0.63013(18) -0.11866(12) -0.14589(16)
C10G C 0.68372(22) -0.23540(20) -0.17826(17)
C11G C 0.70593(21) -0.17806(14) -0.23945(18)
C12G C 0.58391(12) -0.05523(11) -0.10137(13)
N5G N 0.67224(17) -0.10424(16) -0.21850(21)
N6G N 0.63470(25) -0.19664(13) -0.11913(18)
H11G H 0.69804(67) -0.29441(64) -0.17381(81)
H12G H 0.74044(80) -0.18476(69) -0.29014(89)
H13G H 0.53501(76) -0.07948(65) -0.07645(68)
H14G H 0.61788(66) -0.02891(71) -0.05557(75)
H15G H 0.56606(69) -0.01231(88) -0.14178(66)
C13D C 0.99710(18) -0.13558(13) 0.36992(19)
C14D C 1.09479(17) -0.21897(19) 0.40398(18)
C15D C 1.10216(22) -0.14841(16) 0.45353(25)
C16D C 0.92455(13) -0.10114(13) 0.32645(13)
N7D N 1.03989(22) -0.09605(18) 0.43161(15)
N8D N 1.02827(17) -0.21001(15) 0.35239(18)
H16D H 1.12765(84) -0.26828(75) 0.40349(57)
H17D H 1.14252(62) -0.13405(63) 0.4974(14)
H18D H 0.90145(62) -0.05314(94) 0.35846(50)
H19D H 0.93839(64) -0.08253(56) 0.2690(13)
H20D H 0.88104(62) -0.14295(59) 0.32178(74)
C13A_2 C 1.13558(13) -0.00290(18) 0.63008(19)
C14A_2 C 1.21897(19) 0.09479(17) 0.59602(18)
C15A_2 C 1.14841(16) 0.10216(22) 0.54647(25)
C16A_2 C 1.10114(13) -0.07545(13) 0.67355(13)
N7A_2 N 1.09605(18) 0.03989(22) 0.56839(15)
N8A_2 N 1.21001(15) 0.02827(17) 0.64761(18)
H16A_2 H 1.26828(75) 0.12765(84) 0.59651(57)
H17A_2 H 1.13405(63) 0.14252(62) 0.5026(14)
H18A_2 H 1.05314(94) -0.09855(62) 0.64154(50)
H19A_2 H 1.08253(56) -0.06161(64) 0.7310(13)
H20A_2 H 1.14295(59) -0.11896(62) 0.67822(74)
Zn1A Zn 0 0.000 0.500
Zn3A_2 Zn 0.27032(19) 0.000 -0.250
Zn3A_3 Zn 1.27032(19) 0.000 0.750
Zn3D Zn 1.000 -0.27032(19) 0.250
Zn3G Zn 0.72968(19) 0.000 -0.250
Zn4C Zn 0.75079(16) -0.58532(12) 0.01276(15)
Zn4D Zn 0.75079(16) 0.58532(12) 0.48724(15)
Zn4E Zn 0.24921(16) -0.58532(12) 0.48724(15)
Zn4F Zn 0.24921(16) 0.58532(12) 0.01276(15)
N2C N 0.52607(13) 0.29032(24) -0.03761(19)
N2D N 0.52607(13) -0.29032(24) 0.53761(19)
N2E N 0.47393(13) 0.29032(24) 0.53761(19)
N2F N 0.47393(13) -0.29032(24) -0.03761(19)
N5B_2 N 0.32776(17) 0.10424(16) 0.78150(21)
N5G_2 N 0.67224(17) -0.10424(16) 0.78150(21)
N7E N 0.96011(22) 0.09605(18) 0.43161(15)
N8B N 0.21001(15) -0.02827(17) 0.85239(18)
N8G N 0.78999(15) 0.02827(17) 0.85239(18)
loop_
_geom_bond_atom_site_label_1
_geom_bond_atom_site_label_2
_geom_bond_site_symmetry_1
_geom_bond_site_symmetry_2
Zn1 N7 1_555 1_555
Zn2 N3 1_555 1_555
Zn3 N5 1_555 1_555
Zn4 N1 1_555 1_555
C1 C4 1_555 1_555
C2 C3 1_555 1_555
C3 N1 1_555 1_555
C4 H3 1_555 1_555
N1 C1 1_555 1_555
N2 C1 1_555 1_555
H1 C2 1_555 1_555
H2 C3 1_555 1_555
H4 C4 1_555 1_555
H5 C4 1_555 1_555
C5 C8 1_555 1_555
C6 C7 1_555 1_555
C7 N3 1_555 1_555
C8 H8 1_555 1_555
N3 C5 1_555 1_555
N4 Zn4 1_555 1_555
H6 C6 1_555 1_555
H7 C7 1_555 1_555
H9 C8 1_555 1_555
H10 C8 1_555 1_555
C9 C12 1_555 1_555
C10 C11 1_555 1_555
C11 N5 1_555 1_555
C12 H13 1_555 1_555
N5 C9 1_555 1_555
N6 Zn4 1_555 1_555
H11 C10 1_555 1_555
H12 C11 1_555 1_555
H14 C12 1_555 1_555
H15 C12 1_555 1_555
C13 C16 1_555 1_555
C14 C15 1_555 1_555
C15 N7 1_555 1_555
C16 H18 1_555 1_555
N7 C13 1_555 1_555
N8 Zn3 1_555 1_555
H16 C14 1_555 1_555
H17 C15 1_555 1_555
H19 C16 1_555 1_555
H20 C16 1_555 1_555
Zn3A N5A 1_555 1_555
Zn4A N1A 1_555 1_555
C1A C4A 1_555 1_555
C2A C3A 1_555 1_555
C3A N1A 1_555 1_555
C4A H3A 1_555 1_555
N1A C1A 1_555 1_555
N2A C1A 1_555 1_555
H1A C2A 1_555 1_555
H2A C3A 1_555 1_555
H4A C4A 1_555 1_555
H5A C4A 1_555 1_555
C5A C8A 1_555 1_555
C6A C7A 1_555 1_555
C7A N3A 1_555 1_555
C8A H8A 1_555 1_555
N3A Zn2 1_555 1_555
N4A Zn4A 1_555 1_555
H6A C6A 1_555 1_555
H7A C7A 1_555 1_555
H9A C8A 1_555 1_555
H10A C8A 1_555 1_555
C9A C12A 1_555 1_555
C10A C11A 1_555 1_555
C11A N5A 1_555 1_555
C12A H13A 1_555 1_555
N5A C9A 1_555 1_555
N6A Zn4A 1_555 1_555
H11A C10A 1_555 1_555
H12A C11A 1_555 1_555
H14A C12A 1_555 1_555
H15A C12A 1_555 1_555
C13A C16A 1_555 1_555
C14A C15A 1_555 1_555
C15A N7A 1_555 1_555
C16A H18A 1_555 1_555
N7A C13A 1_555 1_555
N8A Zn3A 1_555 1_555
H16A C14A 1_555 1_555
H17A C15A 1_555 1_555
H19A C16A 1_555 1_555
H20A C16A 1_555 1_555
Zn4B N1B 1_555 1_555
C1B C4B 1_555 1_555
C2B C3B 1_555 1_555
C3B N1B 1_555 1_555
C4B H3B 1_555 1_555
N1B C1B 1_555 1_555
N2B C1B 1_555 1_555
H1B C2B 1_555 1_555
H2B C3B 1_555 1_555
H4B C4B 1_555 1_555
H5B C4B 1_555 1_555
C5B C8B 1_555 1_555
C6B C7B 1_555 1_555
C7B N3B 1_555 1_555
C8B H8B 1_555 1_555
N3B Zn2 1_555 1_555
N4B Zn4B 1_555 1_555
H6B C6B 1_555 1_555
H7B C7B 1_555 1_555
H9B C8B 1_555 1_555
H10B C8B 1_555 1_555
C9B C12B 1_555 1_555
C10B C11B 1_555 1_555
C11B N5B 1_555 1_555
C12B H13B 1_555 1_555
N5B C9B 1_555 1_555
N6B Zn4B 1_555 1_555
H11B C10B 1_555 1_555
H12B C11B 1_555 1_555
H14B C12B 1_555 1_555
H15B C12B 1_555 1_555
Zn4G N1G 1_555 1_555
C1G C4G 1_555 1_555
C2G C3G 1_555 1_555
C3G N1G 1_555 1_555
C4G H3G 1_555 1_555
N1G C1G 1_555 1_555
N2G C1G 1_555 1_555
H1G C2G 1_555 1_555
H2G C3G 1_555 1_555
H4G C4G 1_555 1_555
H5G C4G 1_555 1_555
C5G C8G 1_555 1_555
C6G C7G 1_555 1_555
C7G N3G 1_555 1_555
C8G H8G 1_555 1_555
N3G Zn2 1_555 1_555
N4G Zn4G 1_555 1_555
H6G C6G 1_555 1_555
H7G C7G 1_555 1_555
H9G C8G 1_555 1_555
H10G C8G 1_555 1_555
C9G C12G 1_555 1_555
C10G C11G 1_555 1_555
C11G N5G 1_555 1_555
C12G H13G 1_555 1_555
N5G C9G 1_555 1_555
N6G Zn4G 1_555 1_555
H11G C10G 1_555 1_555
H12G C11G 1_555 1_555
H14G C12G 1_555 1_555
H15G C12G 1_555 1_555
C13D C16D 1_555 1_555
C14D C15D 1_555 1_555
C15D N7D 1_555 1_555
C16D H18D 1_555 1_555
N7D Zn1 1_555 1_555
N8D C13D 1_555 1_555
H16D C14D 1_555 1_555
H17D C15D 1_555 1_555
H19D C16D 1_555 1_555
H20D C16D 1_555 1_555
C13A_2 C16A_2 1_555 1_555
C14A_2 C15A_2 1_555 1_555
C15A_2 N7A_2 1_555 1_555
C16A_2 H18A_2 1_555 1_555
N7A_2 Zn1 1_555 1_555
N8A_2 C13A_2 1_555 1_555
H16A_2 C14A_2 1_555 1_555
H17A_2 C15A_2 1_555 1_555
H19A_2 C16A_2 1_555 1_555
H20A_2 C16A_2 1_555 1_555
Zn1A N7A 1_555 1_555
Zn3A_2 N5B 1_555 1_555
Zn3A_3 N8A_2 1_555 1_555
Zn3D N8D 1_555 1_555
Zn3G N5G 1_555 1_555
Zn4C N2G 1_555 1_555
Zn4D N2 1_555 1_555
Zn4E N2A 1_555 1_555
Zn4F N2B 1_555 1_555
N2C Zn4B 1_555 1_555
N2D Zn4A 1_555 1_555
N2E Zn4 1_555 1_555
N2F Zn4G 1_555 1_555
N5B_2 Zn3A 1_555 1_555
N5G_2 Zn3 1_555 1_555
N7E Zn1 1_555 1_555
N8B Zn3A 1_555 1_555
N8G Zn3 1_555 1_555
C2 N2 1_555 1_555
C5 N4 1_555 1_555
C6 N4 1_555 1_555
C9 N6 1_555 1_555
C10 N6 1_555 1_555
C13 N8 1_555 1_555
C14 N8 1_555 1_555
C2A N2A 1_555 1_555
C5A N3A 1_555 1_555
C5A N4A 1_555 1_555
C6A N4A 1_555 1_555
C9A N6A 1_555 1_555
C10A N6A 1_555 1_555
C13A N8A 1_555 1_555
C14A N8A 1_555 1_555
C2B N2B 1_555 1_555
C5B N3B 1_555 1_555
C5B N4B 1_555 1_555
C6B N4B 1_555 1_555
C9B N6B 1_555 1_555
C10B N6B 1_555 1_555
C2G N2G 1_555 1_555
C5G N3G 1_555 1_555
C5G N4G 1_555 1_555
C6G N4G 1_555 1_555
C9G N6G 1_555 1_555
C10G N6G 1_555 1_555
C13D N7D 1_555 1_555
C14D N8D 1_555 1_555
C13A_2 N7A_2 1_555 1_555
C14A_2 N8A_2 1_555 1_555

#END
