
#######################################################################
#
#                 Cambridge Crystallographic Data Centre
#                                CCDC 
#
#######################################################################
#
# If this CIF has been generated from an entry in the Cambridge 
# Structural Database, then it will include bibliographic, chemical, 
# crystal, experimental, refinement or atomic coordinate data resulting 
# from the CCDC's data processing and validation procedures.
#
#######################################################################

data_OFERUN01
_symmetry_cell_setting           monoclinic
_symmetry_space_group_name_H-M   'P 21/c'
_symmetry_Int_Tables_number      14
_space_group_name_Hall           '-P 2ybc'
loop_
_symmetry_equiv_pos_site_id
_symmetry_equiv_pos_as_xyz
1 x,y,z
2 -x,1/2+y,1/2-z
3 -x,-y,-z
4 x,1/2-y,1/2+z
_cell_length_a                   17.5545(18)
_cell_length_b                   7.7307(7)
_cell_length_c                   14.80360(15)
_cell_angle_alpha                90
_cell_angle_beta                 107.472(1)
_cell_angle_gamma                90
_cell_volume                     1916.29
loop_
_atom_site_label
_atom_site_type_symbol
_atom_site_fract_x
_atom_site_fract_y
_atom_site_fract_z
Zn1 Zn 0.37116(2) 0.93608(5) 0.16636(3)
Zn2 Zn 0.12756(2) 0.52019(4) 0.28993(3)
N1 N 0.27955(15) 0.8476(3) 0.20585(19)
N2 N 0.17720(15) 0.6990(3) 0.2277(2)
N3 N 0.31661(15) 1.0302(3) 0.03789(19)
N4 N 0.21482(15) 1.0496(3) -0.09537(19)
N5 N 0.42960(15) 1.1226(3) 0.2546(2)
N6 N 0.54083(15) 1.2697(3) 0.32616(19)
N7 N 0.07331(15) 0.3122(3) 0.2175(2)
N8 N -0.03463(15) 0.1438(3) 0.18421(19)
C1 C 0.25014(19) 0.6916(4) 0.2166(2)
C2 C 0.1591(2) 0.8750(4) 0.2240(2)
H1 H 0.1123 0.9234 0.2300
C3 C 0.22032(19) 0.9619(4) 0.2104(3)
H2 H 0.2228 1.0814 0.2047
C4 C 0.2922(2) 0.5254(4) 0.2146(3)
H3 H 0.3125 0.4806 0.2778
H4 H 0.3357 0.5445 0.1889
H5 H 0.2556 0.4437 0.1757
C5 C 0.26189(19) 0.9448(4) -0.0294(2)
C6 C 0.24306(19) 1.2137(4) -0.0673(3)
H6 H 0.2232 1.3159 -0.0986
C7 C 0.30369(19) 1.2009(4) 0.0125(2)
H7 H 0.3327 1.2936 0.0457
C8 C 0.2539(2) 0.7501(4) -0.0307(3)
H8 H 0.2078 0.7185 -0.0123
H9 H 0.3008 0.7003 0.0127
H10 H 0.2480 0.7079 -0.0935
C9 C 0.49535(19) 1.1983(4) 0.2456(2)
C10 C 0.5012(2) 1.2374(4) 0.3917(3)
H11 H 0.5180 1.2704 0.4551
C11 C 0.4330(2) 1.1489(4) 0.3478(3)
H12 H 0.3951 1.1124 0.3760
C12 C 0.5146(2) 1.2061(5) 0.1539(2)
H13 H 0.5710 1.2226 0.1662
H14 H 0.4863 1.3008 0.1167
H15 H 0.4988 1.0998 0.1198
C13 C 0.02325(18) 0.2211(4) 0.2516(2)
C14 C -0.0198(2) 0.1873(4) 0.1006(3)
H16 H -0.0498 0.1520 0.0404
C15 C 0.0453(2) 0.2896(4) 0.1209(3)
H17 H 0.0676 0.3370 0.0769
C16 C 0.03388(19) 0.2002(4) 0.3547(2)
H18 H -0.0172 0.1815 0.3643
H19 H 0.0578 0.3028 0.3877
H20 H 0.0679 0.1028 0.3785
Zn1A Zn 0.62884(2) 1.43608(5) 0.33364(3)
Zn2C Zn 0.12756(2) 0.97981(4) -0.21007(3)
Zn2A Zn -0.12756(2) 0.02019(4) 0.21007(3)
N4C N 0.21482(15) 0.4504(3) 0.40463(19)
N6A N 0.45917(15) 0.7697(3) 0.17384(19)
N8A N 0.03463(15) 0.6438(3) 0.31579(19)
loop_
_geom_bond_atom_site_label_1
_geom_bond_atom_site_label_2
_geom_bond_site_symmetry_1
_geom_bond_site_symmetry_2
Zn1 N1 1_555 1_555
Zn2 N2 1_555 1_555
N1 C1 1_555 1_555
N2 C1 1_555 1_555
N3 Zn1 1_555 1_555
N4 C5 1_555 1_555
N5 Zn1 1_555 1_555
N6 C9 1_555 1_555
N7 Zn2 1_555 1_555
N8 C13 1_555 1_555
C1 C4 1_555 1_555
C2 N2 1_555 1_555
H1 C2 1_555 1_555
C3 N1 1_555 1_555
H2 C3 1_555 1_555
C4 H3 1_555 1_555
H4 C4 1_555 1_555
H5 C4 1_555 1_555
C5 N3 1_555 1_555
C6 N4 1_555 1_555
H6 C6 1_555 1_555
C7 N3 1_555 1_555
H7 C7 1_555 1_555
C8 C5 1_555 1_555
H8 C8 1_555 1_555
H9 C8 1_555 1_555
H10 C8 1_555 1_555
C9 N5 1_555 1_555
C10 N6 1_555 1_555
H11 C10 1_555 1_555
C11 N5 1_555 1_555
H12 C11 1_555 1_555
C12 C9 1_555 1_555
H13 C12 1_555 1_555
H14 C12 1_555 1_555
H15 C12 1_555 1_555
C13 N7 1_555 1_555
C14 N8 1_555 1_555
H16 C14 1_555 1_555
C15 N7 1_555 1_555
H17 C15 1_555 1_555
C16 C13 1_555 1_555
H18 C16 1_555 1_555
H19 C16 1_555 1_555
H20 C16 1_555 1_555
Zn1A N6 1_555 1_555
Zn2C N4 1_555 1_555
Zn2A N8 1_555 1_555
N4C Zn2 1_555 1_555
N6A Zn1 1_555 1_555
N8A Zn2 1_555 1_555
C2 C3 1_555 1_555
C6 C7 1_555 1_555
C10 C11 1_555 1_555
C14 C15 1_555 1_555

#END
