
#######################################################################
#
#                 Cambridge Crystallographic Data Centre
#                                CCDC 
#
#######################################################################
#
# If this CIF has been generated from an entry in the Cambridge 
# Structural Database, then it will include bibliographic, chemical, 
# crystal, experimental, refinement or atomic coordinate data resulting 
# from the CCDC's data processing and validation procedures.
#
#######################################################################

data_OFEYOP
_symmetry_cell_setting           monoclinic
_symmetry_space_group_name_H-M   'P 21/c'
_symmetry_Int_Tables_number      14
_space_group_name_Hall           '-P 2ybc'
loop_
_symmetry_equiv_pos_site_id
_symmetry_equiv_pos_as_xyz
1 x,y,z
2 -x,1/2+y,1/2-z
3 -x,-y,-z
4 x,1/2-y,1/2+z
_cell_length_a                   13.7372(8)
_cell_length_b                   18.5165(10)
_cell_length_c                   7.4853(4)
_cell_angle_alpha                90
_cell_angle_beta                 97.958(2)
_cell_angle_gamma                90
_cell_volume                     1885.66
loop_
_atom_site_label
_atom_site_type_symbol
_atom_site_fract_x
_atom_site_fract_y
_atom_site_fract_z
Br1 Br 0.21150(2) 0.842497(18) 0.72199(6)
Na1 Na 0.53800(8) 1.07588(5) 0.87596(15)
O1 O 0.46249(15) 0.95982(10) 0.8283(3)
O2 O 0.39476(15) 1.09026(10) 0.6916(3)
O3 O 0.69143(14) 1.06584(10) 0.7874(3)
H1 H 0.7386 1.0393 0.8541
H2 H 0.6804 1.0443 0.6637
N1 N 0.43370(18) 0.71007(12) 0.6085(3)
N2 N 0.33960(16) 0.97713(12) 0.5833(3)
C1 C 0.3345(2) 0.81134(15) 0.6632(4)
C2 C 0.3489(2) 0.73790(15) 0.6433(4)
H3 H 0.2971 0.7067 0.6548
C3 C 0.5060(2) 0.75644(16) 0.5953(4)
H4 H 0.5655 0.7382 0.5691
C4 C 0.4983(2) 0.82979(15) 0.6179(4)
H5 H 0.5521 0.8595 0.6100
C5 C 0.4097(2) 0.85951(13) 0.6528(4)
C6 C 0.4055(2) 0.93950(14) 0.6935(4)
C7 C 0.3318(2) 1.05018(14) 0.6112(4)
C8 C 0.2365(2) 1.08359(14) 0.5276(4)
C9 C 0.2296(2) 1.15830(15) 0.5221(4)
H6 H 0.2832 1.1862 0.5699
C10 C 0.1442(2) 1.19143(17) 0.4467(5)
H7 H 0.1404 1.2416 0.4434
C11 C 0.0641(2) 1.15077(16) 0.3759(5)
H8 H 0.0067 1.1733 0.3235
C12 C 0.0694(2) 1.07651(16) 0.3832(5)
H9 H 0.0151 1.0489 0.3374
C13 C 0.1555(2) 1.04288(16) 0.4585(4)
H10 H 0.1588 0.9927 0.4627
Na1A Na 0.46200(8) 0.57588(5) 0.62404(15)
Na1B Na 0.46200(8) 0.92412(5) 1.12404(15)
O1B O 0.53751(15) 1.04018(10) 1.1717(3)
N1A N 0.56630(18) 1.21007(12) 0.8915(3)
O4 O 0.15969(16) 1.01550(12) -0.0175(3)
O5 O 0.10365(15) 1.12736(10) -0.0763(3)
C14 C 0.2691(2) 1.11639(18) 0.0442(5)
H11 H 0.3190 1.0808 0.0784
H12 H 0.2621 1.1465 0.1461
H13 H 0.2875 1.1456 -0.0517
C15 C 0.1742(2) 1.07975(18) -0.0179(4)
C16 C 0.0065(2) 1.09886(17) -0.1383(5)
H14 H -0.0156 1.0689 -0.0455
H15 H 0.0080 1.0696 -0.2453
C17 C -0.0612(2) 1.16141(18) -0.1800(5)
H16 H -0.0623 1.1899 -0.0731
H17 H -0.1262 1.1440 -0.2218
H18 H -0.0386 1.1906 -0.2721
loop_
_geom_bond_atom_site_label_1
_geom_bond_atom_site_label_2
_geom_bond_site_symmetry_1
_geom_bond_site_symmetry_2
Br1 C1 1_555 1_555
Na1 O1 1_555 1_555
O1 C6 1_555 1_555
O2 Na1 1_555 1_555
O3 Na1 1_555 1_555
H1 O3 1_555 1_555
H2 O3 1_555 1_555
N1 C2 1_555 1_555
N2 C6 1_555 1_555
C1 C2 1_555 1_555
C2 H3 1_555 1_555
C3 N1 1_555 1_555
H4 C3 1_555 1_555
C4 C3 1_555 1_555
H5 C4 1_555 1_555
C5 C1 1_555 1_555
C6 C5 1_555 1_555
C7 O2 1_555 1_555
C8 C7 1_555 1_555
C9 C8 1_555 1_555
H6 C9 1_555 1_555
C10 C9 1_555 1_555
H7 C10 1_555 1_555
C11 C10 1_555 1_555
H8 C11 1_555 1_555
C12 C11 1_555 1_555
H9 C12 1_555 1_555
C13 C8 1_555 1_555
H10 C13 1_555 1_555
O4 C15 1_555 1_555
O5 C15 1_555 1_555
C14 H11 1_555 1_555
H12 C14 1_555 1_555
H13 C14 1_555 1_555
C15 C14 1_555 1_555
C16 O5 1_555 1_555
H14 C16 1_555 1_555
H15 C16 1_555 1_555
C17 C16 1_555 1_555
H16 C17 1_555 1_555
H17 C17 1_555 1_555
H18 C17 1_555 1_555
Na1A N1 1_555 1_555
Na1B O1 1_555 1_555
O1B Na1 1_555 1_555
N1A Na1 1_555 1_555
N2 C7 1_555 1_555
C4 C5 1_555 1_555
C12 C13 1_555 1_555
Na1B O1B 1_555 1_555

#END
