
#######################################################################
#
#                 Cambridge Crystallographic Data Centre
#                                CCDC 
#
#######################################################################
#
# If this CIF has been generated from an entry in the Cambridge 
# Structural Database, then it will include bibliographic, chemical, 
# crystal, experimental, refinement or atomic coordinate data resulting 
# from the CCDC's data processing and validation procedures.
#
#######################################################################

data_OFICOW
_symmetry_cell_setting           triclinic
_symmetry_space_group_name_H-M   'P -1'
_symmetry_Int_Tables_number      2
_space_group_name_Hall           '-P 1'
loop_
_symmetry_equiv_pos_site_id
_symmetry_equiv_pos_as_xyz
1 x,y,z
2 -x,-y,-z
_cell_length_a                   7.5288(10)
_cell_length_b                   12.6329(18)
_cell_length_c                   18.320(3)
_cell_angle_alpha                70.680(2)
_cell_angle_beta                 79.074(2)
_cell_angle_gamma                76.231(2)
_cell_volume                     1585.34
loop_
_atom_site_label
_atom_site_type_symbol
_atom_site_fract_x
_atom_site_fract_y
_atom_site_fract_z
Tb1 Tb 0.31150(4) 0.54226(2) -0.087880(16)
Tb2 Tb 0.36768(4) 0.26408(2) 0.264780(16)
O1 O 0.1673(5) 0.5965(4) 0.0248(2)
O2 O -0.1334(6) 0.5955(3) 0.0447(2)
O3 O 0.4543(6) 0.6184(4) 0.1204(3)
O4 O 0.3617(6) 0.4544(3) 0.1676(2)
O5 O 0.3595(5) 0.7283(3) -0.1567(2)
O6 O 0.3384(6) 0.8846(4) -0.2557(3)
O7 O 0.0228(5) 0.6448(3) -0.1259(2)
O8 O -0.2511(6) 0.7474(3) -0.1558(2)
O9 O 0.2890(6) 0.5406(4) -0.2132(2)
O10 O 0.4153(6) 0.6758(4) -0.3083(2)
O11 O -0.0369(6) 0.7002(4) -0.3030(3)
O12 O -0.2013(6) 0.5963(4) -0.3283(2)
O13 O 0.4523(5) 0.3944(3) 0.0303(2)
H1 H 0.5242 0.3443 0.0116
H2 H 0.3622 0.3732 0.0634
N1 N -0.0488(10) 0.7243(6) 0.2623(4)
N2 N -0.1800(9) 0.9903(5) -0.0632(4)
N3 N 0.2466(9) 0.4352(6) -0.4462(4)
N4 N 0.3130(7) 0.0575(4) 0.3082(3)
N5 N 0.3292(7) 0.1609(4) 0.4132(3)
C1 C 0.0117(8) 0.6085(5) 0.0625(3)
C2 C -0.0056(8) 0.6447(5) 0.1345(3)
C3 C -0.1748(9) 0.7031(6) 0.1619(4)
H3 H -0.2773 0.7146 0.1368
C4 C -0.1935(9) 0.7424(6) 0.2226(4)
H4 H -0.3071 0.7828 0.2378
C5 C 0.1163(9) 0.6668(6) 0.2385(4)
H5 H 0.2156 0.6551 0.2655
C6 C 0.1428(8) 0.6247(5) 0.1757(3)
C7 C 0.3316(8) 0.5608(5) 0.1530(3)
C8 C 0.2740(8) 0.8281(5) -0.1914(4)
C9 C 0.1075(9) 0.8803(5) -0.1483(4)
C10 C 0.1119(9) 0.9831(6) -0.1362(4)
H6 H 0.2143 1.0171 -0.1574
C11 C -0.0284(10) 1.0338(6) -0.0946(4)
H7 H -0.0194 1.1017 -0.0873
C12 C -0.1936(9) 0.8944(6) -0.0766(4)
H8 H -0.3011 0.8653 -0.0564
C13 C -0.0557(8) 0.8363(5) -0.1189(4)
C14 C -0.0928(8) 0.7338(5) -0.1345(3)
C15 C 0.3347(8) 0.5928(5) -0.2835(3)
C16 C 0.2975(8) 0.5430(5) -0.3427(3)
C17 C 0.4407(9) 0.4767(6) -0.3748(4)
H9 H 0.5587 0.4675 -0.3623
C18 C 0.4144(10) 0.4239(6) -0.4245(4)
H10 H 0.5151 0.3783 -0.4444
C19 C 0.1077(10) 0.5002(6) -0.4151(4)
H11 H -0.0081 0.5098 -0.4298
C20 C 0.1210(8) 0.5550(5) -0.3624(3)
C21 C -0.0475(9) 0.6212(5) -0.3294(3)
C22 C 0.3210(10) 0.0009(6) 0.2561(4)
H12 H 0.3540 0.0368 0.2037
C23 C 0.2821(12) -0.1088(7) 0.2772(5)
H13 H 0.2893 -0.1450 0.2398
C24 C 0.2329(12) -0.1620(7) 0.3549(5)
H14 H 0.2004 -0.2334 0.3697
C25 C 0.2311(10) -0.1102(6) 0.4119(5)
C26 C 0.1927(10) -0.1638(7) 0.4923(5)
H15 H 0.1636 -0.2363 0.5092
C27 C 0.1975(10) -0.1116(7) 0.5449(5)
H16 H 0.1705 -0.1484 0.5976
C28 C 0.2440(9) 0.0008(6) 0.5207(4)
C29 C 0.2569(10) 0.0574(7) 0.5734(4)
H17 H 0.2354 0.0227 0.6268
C30 C 0.3010(10) 0.1629(7) 0.5460(4)
H18 H 0.3066 0.2024 0.5801
C31 C 0.3380(9) 0.2111(6) 0.4651(4)
H19 H 0.3707 0.2827 0.4469
C32 C 0.2824(8) 0.0560(5) 0.4405(4)
C33 C 0.2738(8) 0.0013(6) 0.3850(4)
Tb1A Tb -0.31150(4) 0.45774(2) 0.087880(16)
Tb1A_2 Tb 0.68850(4) 0.45774(2) 0.087880(16)
Tb2A Tb 0.63232(4) 0.73592(2) -0.264780(16)
Tb2A_2 Tb -0.36768(4) 0.73592(2) -0.264780(16)
O2A O 0.1334(6) 0.4045(3) -0.0447(2)
O3A O 0.5457(6) 0.3816(4) -0.1204(3)
O4A O 0.6383(6) 0.5456(3) -0.1676(2)
O5A O 0.6405(5) 0.2717(3) 0.1567(2)
O6A O 0.6616(6) 0.1154(4) 0.2557(3)
O8A O 0.2511(6) 0.2526(3) 0.1558(2)
O10A O 0.5847(6) 0.3242(4) 0.3083(2)
O11A O 0.0369(6) 0.2998(4) 0.3030(3)
O12A O 0.2013(6) 0.4037(4) 0.3283(2)
O13A O 0.5477(5) 0.6056(3) -0.0303(2)
H1A H 0.4758 0.6557 -0.0116
H2A H 0.6378 0.6268 -0.0634
O14 O 0.4000(9) 0.8208(5) -0.9947(4)
H20 H 0.2954 0.8037 -0.9672
H21 H 0.4497 0.8501 -0.9674
loop_
_geom_bond_atom_site_label_1
_geom_bond_atom_site_label_2
_geom_bond_site_symmetry_1
_geom_bond_site_symmetry_2
Tb1 O1 1_555 1_555
Tb2 O4 1_555 1_555
O1 C1 1_555 1_555
O2 C1 1_555 1_555
O3 C7 1_555 1_555
O4 C7 1_555 1_555
O5 Tb1 1_555 1_555
O6 C8 1_555 1_555
O7 Tb1 1_555 1_555
O8 C14 1_555 1_555
O9 Tb1 1_555 1_555
O10 C15 1_555 1_555
O11 C21 1_555 1_555
O12 C21 1_555 1_555
O13 Tb1 1_555 1_555
H1 O13 1_555 1_555
H2 O13 1_555 1_555
N1 C4 1_555 1_555
N2 C11 1_555 1_555
N3 C18 1_555 1_555
N4 Tb2 1_555 1_555
N5 Tb2 1_555 1_555
C1 C2 1_555 1_555
C2 C3 1_555 1_555
C3 H3 1_555 1_555
C4 C3 1_555 1_555
H4 C4 1_555 1_555
C5 N1 1_555 1_555
H5 C5 1_555 1_555
C6 C2 1_555 1_555
C7 C6 1_555 1_555
C8 O5 1_555 1_555
C9 C8 1_555 1_555
C10 C9 1_555 1_555
H6 C10 1_555 1_555
C11 C10 1_555 1_555
H7 C11 1_555 1_555
C12 N2 1_555 1_555
H8 C12 1_555 1_555
C13 C9 1_555 1_555
C14 O7 1_555 1_555
C15 O9 1_555 1_555
C16 C15 1_555 1_555
C17 C16 1_555 1_555
H9 C17 1_555 1_555
C18 C17 1_555 1_555
H10 C18 1_555 1_555
C19 N3 1_555 1_555
H11 C19 1_555 1_555
C20 C16 1_555 1_555
C21 C20 1_555 1_555
C22 N4 1_555 1_555
H12 C22 1_555 1_555
C23 C22 1_555 1_555
H13 C23 1_555 1_555
C24 C23 1_555 1_555
H14 C24 1_555 1_555
C25 C24 1_555 1_555
C26 C25 1_555 1_555
H15 C26 1_555 1_555
C27 C26 1_555 1_555
H16 C27 1_555 1_555
C28 C27 1_555 1_555
C29 C28 1_555 1_555
H17 C29 1_555 1_555
C30 C29 1_555 1_555
H18 C30 1_555 1_555
C31 N5 1_555 1_555
H19 C31 1_555 1_555
C32 N5 1_555 1_555
C33 N4 1_555 1_555
O14 H20 1_555 1_555
H21 O14 1_555 1_555
Tb1A O2 1_555 1_555
Tb1A_2 O3 1_555 1_555
Tb2A O5 1_555 1_555
Tb2A_2 O8 1_555 1_555
O2A Tb1 1_555 1_555
O3A Tb1 1_555 1_555
O4A Tb1 1_555 1_555
O5A Tb2 1_555 1_555
O6A Tb2 1_555 1_555
O8A Tb2 1_555 1_555
O10A Tb2 1_555 1_555
O11A Tb2 1_555 1_555
O12A Tb2 1_555 1_555
O13A Tb1 1_555 1_555
H1A O13A 1_555 1_555
H2A O13A 1_555 1_555
O4 Tb1A_2 1_555 1_555
O6 Tb2A 1_555 1_555
O10 Tb2A 1_555 1_555
O11 Tb2A_2 1_555 1_555
O12 Tb2A_2 1_555 1_555
O13 Tb1A_2 1_555 1_555
C5 C6 1_555 1_555
C12 C13 1_555 1_555
C13 C14 1_555 1_555
C19 C20 1_555 1_555
C25 C33 1_555 1_555
C28 C32 1_555 1_555
C30 C31 1_555 1_555
C32 C33 1_555 1_555
Tb1A_2 O5A 1_555 1_555
Tb1A_2 O13A 1_555 1_555
Tb2A O4A 1_555 1_555

#END
