
#######################################################################
#
#                 Cambridge Crystallographic Data Centre
#                                CCDC 
#
#######################################################################
#
# If this CIF has been generated from an entry in the Cambridge 
# Structural Database, then it will include bibliographic, chemical, 
# crystal, experimental, refinement or atomic coordinate data resulting 
# from the CCDC's data processing and validation procedures.
#
#######################################################################

data_OFICUC
_symmetry_cell_setting           triclinic
_symmetry_space_group_name_H-M   'P -1'
_symmetry_Int_Tables_number      2
_space_group_name_Hall           '-P 1'
loop_
_symmetry_equiv_pos_site_id
_symmetry_equiv_pos_as_xyz
1 x,y,z
2 -x,-y,-z
_cell_length_a                   7.5670(15)
_cell_length_b                   12.662(3)
_cell_length_c                   18.384(4)
_cell_angle_alpha                70.82(3)
_cell_angle_beta                 78.96(3)
_cell_angle_gamma                76.02(3)
_cell_volume                     1602.25
loop_
_atom_site_label
_atom_site_type_symbol
_atom_site_fract_x
_atom_site_fract_y
_atom_site_fract_z
Eu1 Eu 0.31112(3) 0.54232(2) -0.088020(13)
Eu2 Eu 0.36851(3) 0.26314(2) 0.265369(13)
O1 O 0.3610(4) 0.4545(3) 0.16786(19)
O2 O 0.4534(4) 0.6182(3) 0.1218(2)
O3 O 0.1677(4) 0.5968(3) 0.02585(19)
O4 O -0.1335(4) 0.5958(3) 0.04580(18)
O5 O 0.0213(4) 0.6462(3) -0.1259(2)
O6 O -0.2520(4) 0.7491(3) -0.15591(19)
O7 O 0.3572(4) 0.7298(3) -0.15707(18)
O8 O 0.3364(5) 0.8851(3) -0.2553(2)
O9 O -0.1994(4) 0.5966(3) -0.3299(2)
O10 O -0.0358(4) 0.7002(3) -0.3040(2)
O11 O 0.2884(4) 0.5411(3) -0.21452(19)
O12 O 0.4148(4) 0.6753(3) -0.3087(2)
O13 O 0.4530(4) 0.3929(3) 0.03019(18)
H1 H 0.5149 0.3252 0.0153
H2 H 0.3543 0.3718 0.0709
N1 N -0.0498(7) 0.7249(5) 0.2636(3)
N2 N -0.1844(6) 0.9928(4) -0.0636(3)
N3 N 0.2496(7) 0.4350(5) -0.4467(3)
N4 N 0.3297(5) 0.1591(4) 0.4141(2)
N5 N 0.3132(5) 0.0541(4) 0.3091(2)
C1 C 0.3292(6) 0.5618(4) 0.1541(3)
C2 C 0.1417(6) 0.6250(4) 0.1767(3)
C3 C 0.1150(7) 0.6670(5) 0.2396(3)
H3 H 0.2139 0.6550 0.2664
C4 C -0.1940(7) 0.7420(5) 0.2245(3)
H4 H -0.3076 0.7816 0.2402
C5 C -0.1744(6) 0.7023(4) 0.1631(3)
H5 H -0.2764 0.7140 0.1381
C6 C -0.0062(6) 0.6442(4) 0.1356(3)
C7 C 0.0109(6) 0.6087(4) 0.0643(3)
C8 C -0.0943(6) 0.7356(4) -0.1350(3)
C9 C -0.0564(6) 0.8374(4) -0.1195(3)
C10 C -0.1955(7) 0.8971(5) -0.0765(3)
H6 H -0.3018 0.8677 -0.0558
C11 C -0.0310(7) 1.0349(5) -0.0933(4)
H7 H -0.0209 1.1016 -0.0848
C12 C 0.1102(7) 0.9835(5) -0.1354(4)
H8 H 0.2129 1.0166 -0.1565
C13 C 0.1025(6) 0.8819(4) -0.1471(3)
C14 C 0.2716(6) 0.8294(4) -0.1906(3)
C15 C -0.0461(6) 0.6214(4) -0.3302(3)
C16 C 0.1223(6) 0.5535(4) -0.3629(3)
C17 C 0.1066(7) 0.5002(5) -0.4153(3)
H9 H -0.0088 0.5096 -0.4298
C18 C 0.4130(8) 0.4233(5) -0.4254(3)
H10 H 0.5125 0.3768 -0.4451
C19 C 0.4424(7) 0.4763(5) -0.3757(3)
H11 H 0.5603 0.4673 -0.3638
C20 C 0.2969(6) 0.5431(4) -0.3432(3)
C21 C 0.3327(6) 0.5927(4) -0.2845(3)
C22 C 0.3395(7) 0.2092(5) 0.4660(3)
H12 H 0.3733 0.2801 0.4479
C23 C 0.3018(8) 0.1612(6) 0.5464(3)
H13 H 0.3078 0.2002 0.5805
C24 C 0.2560(7) 0.0562(6) 0.5733(3)
H14 H 0.2318 0.0225 0.6265
C25 C 0.2452(7) -0.0007(5) 0.5219(3)
C26 C 0.1978(7) -0.1114(5) 0.5452(4)
H15 H 0.1702 -0.1476 0.5978
C27 C 0.1924(8) -0.1633(5) 0.4939(4)
H16 H 0.1638 -0.2356 0.5114
C28 C 0.2299(7) -0.1103(5) 0.4115(3)
C29 C 0.2315(9) -0.1633(6) 0.3560(4)
H17 H 0.2001 -0.2347 0.3708
C30 C 0.2795(9) -0.1096(5) 0.2792(4)
H18 H 0.2851 -0.1445 0.2413
C31 C 0.3198(8) -0.0012(5) 0.2595(3)
H19 H 0.3539 0.0343 0.2074
C32 C 0.2731(6) -0.0006(4) 0.3862(3)
C33 C 0.2820(6) 0.0542(4) 0.4418(3)
Eu1A Eu 0.68888(3) 0.45768(2) 0.088020(13)
Eu1A_2 Eu -0.31112(3) 0.45768(2) 0.088020(13)
Eu2A Eu 0.63149(3) 0.73686(2) -0.265369(13)
Eu2A_2 Eu -0.36851(3) 0.73686(2) -0.265369(13)
O1A O 0.6390(4) 0.5455(3) -0.16786(19)
O2A O 0.5466(4) 0.3818(3) -0.1218(2)
O4A O 0.1335(4) 0.4042(3) -0.04580(18)
O6A O 0.2520(4) 0.2509(3) 0.15591(19)
O7A O 0.6428(4) 0.2702(3) 0.15707(18)
O8A O 0.6636(5) 0.1149(3) 0.2553(2)
O9A O 0.1994(4) 0.4034(3) 0.3299(2)
O10A O 0.0358(4) 0.2998(3) 0.3040(2)
O12A O 0.5852(4) 0.3247(3) 0.3087(2)
O13A O 0.5470(4) 0.6071(3) -0.03019(18)
H1A H 0.4851 0.6748 -0.0153
H2A H 0.6457 0.6282 -0.0709
O14 O 0.3989(7) 0.8174(4) 0.0067(3)
H20 H 0.3950 0.8274 0.0507
H21 H 0.3682 0.8791 -0.0301
loop_
_geom_bond_atom_site_label_1
_geom_bond_atom_site_label_2
_geom_bond_site_symmetry_1
_geom_bond_site_symmetry_2
Eu1 O3 1_555 1_555
Eu2 O1 1_555 1_555
O1 C1 1_555 1_555
O2 C1 1_555 1_555
O3 C7 1_555 1_555
O4 C7 1_555 1_555
O5 Eu1 1_555 1_555
O6 C8 1_555 1_555
O7 Eu1 1_555 1_555
O8 C14 1_555 1_555
O9 C15 1_555 1_555
O10 C15 1_555 1_555
O11 Eu1 1_555 1_555
O12 C21 1_555 1_555
O13 Eu1 1_555 1_555
H1 O13 1_555 1_555
H2 O13 1_555 1_555
N1 C3 1_555 1_555
N2 C10 1_555 1_555
N3 C17 1_555 1_555
N4 Eu2 1_555 1_555
N5 Eu2 1_555 1_555
C1 C2 1_555 1_555
C2 C3 1_555 1_555
C3 H3 1_555 1_555
C4 N1 1_555 1_555
H4 C4 1_555 1_555
C5 C4 1_555 1_555
H5 C5 1_555 1_555
C6 C2 1_555 1_555
C7 C6 1_555 1_555
C8 O5 1_555 1_555
C9 C8 1_555 1_555
C10 C9 1_555 1_555
H6 C10 1_555 1_555
C11 N2 1_555 1_555
H7 C11 1_555 1_555
C12 C11 1_555 1_555
H8 C12 1_555 1_555
C13 C9 1_555 1_555
C14 O7 1_555 1_555
C15 C16 1_555 1_555
C16 C17 1_555 1_555
C17 H9 1_555 1_555
C18 N3 1_555 1_555
H10 C18 1_555 1_555
C19 C18 1_555 1_555
H11 C19 1_555 1_555
C20 C16 1_555 1_555
C21 O11 1_555 1_555
C22 N4 1_555 1_555
H12 C22 1_555 1_555
C23 C22 1_555 1_555
H13 C23 1_555 1_555
C24 C23 1_555 1_555
H14 C24 1_555 1_555
C25 C24 1_555 1_555
C26 C25 1_555 1_555
H15 C26 1_555 1_555
C27 C26 1_555 1_555
H16 C27 1_555 1_555
C28 C27 1_555 1_555
C29 C28 1_555 1_555
H17 C29 1_555 1_555
C30 C29 1_555 1_555
H18 C30 1_555 1_555
C31 N5 1_555 1_555
H19 C31 1_555 1_555
C32 N5 1_555 1_555
C33 N4 1_555 1_555
O14 H20 1_555 1_555
H21 O14 1_555 1_555
Eu1A O1 1_555 1_555
Eu1A_2 O4 1_555 1_555
Eu2A O7 1_555 1_555
Eu2A_2 O6 1_555 1_555
O1A Eu1 1_555 1_555
O2A Eu1 1_555 1_555
O4A Eu1 1_555 1_555
O6A Eu2 1_555 1_555
O7A Eu2 1_555 1_555
O8A Eu2 1_555 1_555
O9A Eu2 1_555 1_555
O10A Eu2 1_555 1_555
O12A Eu2 1_555 1_555
O13A Eu1 1_555 1_555
H1A O13A 1_555 1_555
H2A O13A 1_555 1_555
O2 Eu1A 1_555 1_555
O8 Eu2A 1_555 1_555
O9 Eu2A_2 1_555 1_555
O10 Eu2A_2 1_555 1_555
O12 Eu2A 1_555 1_555
O13 Eu1A 1_555 1_555
C5 C6 1_555 1_555
C12 C13 1_555 1_555
C13 C14 1_555 1_555
C19 C20 1_555 1_555
C20 C21 1_555 1_555
C25 C33 1_555 1_555
C28 C32 1_555 1_555
C30 C31 1_555 1_555
C32 C33 1_555 1_555
Eu1A O7A 1_555 1_555
Eu1A O13A 1_555 1_555
Eu2A O1A 1_555 1_555

#END
