
#######################################################################
#
#                 Cambridge Crystallographic Data Centre
#                                CCDC 
#
#######################################################################
#
# If this CIF has been generated from an entry in the Cambridge 
# Structural Database, then it will include bibliographic, chemical, 
# crystal, experimental, refinement or atomic coordinate data resulting 
# from the CCDC's data processing and validation procedures.
#
#######################################################################

data_OFIFIT
_symmetry_cell_setting           monoclinic
_symmetry_space_group_name_H-M   'P 21/c'
_symmetry_Int_Tables_number      14
_space_group_name_Hall           '-P 2ybc'
loop_
_symmetry_equiv_pos_site_id
_symmetry_equiv_pos_as_xyz
1 x,y,z
2 -x,1/2+y,1/2-z
3 -x,-y,-z
4 x,1/2-y,1/2+z
_cell_length_a                   11.8682(3)
_cell_length_b                   5.2501(1)
_cell_length_c                   9.0989(2)
_cell_angle_alpha                90
_cell_angle_beta                 96.741(2)
_cell_angle_gamma                90
_cell_volume                     563.026
loop_
_atom_site_label
_atom_site_type_symbol
_atom_site_fract_x
_atom_site_fract_y
_atom_site_fract_z
C1 C -0.0415(13) -0.044(3) 0.5576(16)
N1 N 0.3630(11) -0.013(3) 0.4752(15)
O1 O -0.0217(9) -0.242(2) 0.6264(13)
O2 O -0.1208(10) 0.113(3) 0.5762(14)
O3 O 0.3612(9) -0.228(2) 0.5458(11)
O4 O 0.3689(10) 0.207(2) 0.5470(11)
O5 O 0.3621(10) -0.014(2) 0.3379(12)
O6 O 0.2119(10) -0.0069(18) 0.7505(12)
Pb1 Pb 0.40167(4) 0.03356(11) 0.81890(6)
Pb2 Pb 0.18042(4) -0.40156(11) 0.65279(6)
C1B C 0.0415(13) 0.044(3) 0.4424(16)
N1C N 0.3630(11) -0.487(3) 0.9752(15)
O1B O 0.0217(9) 0.242(2) 0.3736(13)
O1C O -0.0217(9) -0.258(2) 1.1264(13)
O2B O 0.1208(10) -0.113(3) 0.4238(14)
O2A O 0.1208(10) -0.387(3) 0.9238(14)
O2B_2 O 0.1208(10) -0.113(3) 1.4238(14)
O3C O 0.3612(9) -0.272(2) 1.0458(11)
O3_2 O 0.3612(9) -0.228(2) 1.5458(11)
O4C O 0.3689(10) -0.707(2) 1.0470(11)
O4C_2 O 0.3689(10) 0.293(2) 1.0470(11)
O4_2 O 0.3689(10) -0.793(2) 1.5470(11)
O5C O 0.3621(10) -0.486(2) 0.8379(12)
O5C_2 O 0.3621(10) 0.514(2) 0.8379(12)
O5_2 O 0.3621(10) -1.014(2) 1.3379(12)
O5_3 O 0.3621(10) -0.014(2) 1.3379(12)
O6C O 0.2119(10) -0.4931(18) 1.2505(12)
Pb1C Pb 0.40167(4) -0.53356(11) 1.31890(6)
Pb1C_2 Pb 0.40167(4) -0.53356(11) 0.31890(6)
Pb1C_3 Pb 0.40167(4) 0.46644(11) 0.31890(6)
Pb1_2 Pb 0.40167(4) -0.96644(11) 0.81890(6)
Pb2C Pb 0.18042(4) -0.09844(11) 1.15279(6)
Pb2B Pb -0.18042(4) 0.40156(11) 0.34721(6)
Pb2A Pb -0.18042(4) 0.09844(11) 0.84721(6)
Pb2C_2 Pb 0.18042(4) -0.09844(11) 0.15279(6)
loop_
_geom_bond_atom_site_label_1
_geom_bond_atom_site_label_2
_geom_bond_site_symmetry_1
_geom_bond_site_symmetry_2
C1 O1 1_555 1_555
N1 O3 1_555 1_555
O1 Pb2 1_555 1_555
O2 C1 1_555 1_555
O3 Pb1 1_555 1_555
O4 N1 1_555 1_555
O5 N1 1_555 1_555
O6 Pb1 1_555 1_555
Pb1 O4 1_555 1_555
Pb2 O3 1_555 1_555
C1B C1 1_555 1_555
N1C O3C 1_555 1_555
O1B C1B 1_555 1_555
O1C Pb2C 1_555 1_555
O2B Pb2 1_555 1_555
O2A Pb2 1_555 1_555
O2B_2 Pb2C 1_555 1_555
O3C Pb1 1_555 1_555
O3_2 Pb1C 1_555 1_555
O4C N1C 1_555 1_555
O4C_2 Pb1 1_555 1_555
O4_2 Pb1C 1_555 1_555
O5C Pb1 1_555 1_555
O5C_2 Pb1 1_555 1_555
O5_2 Pb1C 1_555 1_555
O5_3 Pb1C 1_555 1_555
O6C Pb1C 1_555 1_555
Pb1C O3C 1_555 1_555
Pb1C_2 O3 1_555 1_555
Pb1C_3 O4 1_555 1_555
Pb1_2 O4C 1_555 1_555
Pb2C O2A 1_555 1_555
Pb2B O2 1_555 1_555
Pb2A O2 1_555 1_555
Pb2C_2 O5 1_555 1_555
O5 Pb1C_2 1_555 1_555
O5 Pb1C_3 1_555 1_555
O6 Pb2 1_555 1_555
Pb2 O5C 1_555 1_555
C1B O2B 1_555 1_555
N1C O5C 1_555 1_555
O1B Pb2B 1_555 1_555
O2B Pb2C_2 1_555 1_555
O3C Pb2C 1_555 1_555
O4C Pb1C 1_555 1_555
O5C Pb1_2 1_555 1_555
O5_3 Pb2C 1_555 1_555
O6C Pb2C 1_555 1_555

#END
