
#######################################################################
#
#                 Cambridge Crystallographic Data Centre
#                                CCDC 
#
#######################################################################
#
# If this CIF has been generated from an entry in the Cambridge 
# Structural Database, then it will include bibliographic, chemical, 
# crystal, experimental, refinement or atomic coordinate data resulting 
# from the CCDC's data processing and validation procedures.
#
#######################################################################

data_OFIFEP
_symmetry_cell_setting           monoclinic
_symmetry_space_group_name_H-M   'P 21/c'
_symmetry_Int_Tables_number      14
_space_group_name_Hall           '-P 2ybc'
loop_
_symmetry_equiv_pos_site_id
_symmetry_equiv_pos_as_xyz
1 x,y,z
2 -x,1/2+y,1/2-z
3 -x,-y,-z
4 x,1/2-y,1/2+z
_cell_length_a                   15.1995(8)
_cell_length_b                   5.1505(3)
_cell_length_c                   7.0289(4)
_cell_angle_alpha                90
_cell_angle_beta                 98.072(3)
_cell_angle_gamma                90
_cell_volume                     544.806
loop_
_atom_site_label
_atom_site_type_symbol
_atom_site_fract_x
_atom_site_fract_y
_atom_site_fract_z
C1 C 0.4718(6) -0.1133(17) 1.0329(10)
C2 C 0.2027(7) -0.4329(17) 0.6892(12)
C3 C 0.1143(7) -0.5597(17) 0.6571(13)
H1 H 0.0919 -0.5700 0.7794
H2 H 0.1221 -0.7361 0.6141
C4 C 0.0445(6) -0.4291(17) 0.5139(12)
H3 H 0.0664 -0.4177 0.3909
H4 H 0.0354 -0.2535 0.5570
O1 O 0.3907(4) -0.1147(13) 0.9753(8)
O2 O 0.5136(4) -0.2822(11) 1.1406(7)
O3 O 0.2115(4) -0.2046(14) 0.6414(9)
O4 O 0.2669(5) -0.5721(13) 0.7763(9)
Pb1 Pb 0.34459(2) 0.03659(6) 0.61597(4)
C1B C 0.5282(6) 0.1133(17) 0.9671(10)
C2B C -0.2027(7) -0.5671(17) 0.3108(12)
C3B C -0.1143(7) -0.4403(17) 0.3429(13)
H1B H -0.0919 -0.4300 0.2206
H2B H -0.1221 -0.2639 0.3859
C4B C -0.0445(6) -0.5709(17) 0.4861(12)
H3B H -0.0664 -0.5823 0.6091
H4B H -0.0354 -0.7465 0.4430
O1B O 0.6093(4) 0.1147(13) 1.0247(8)
O1C O 0.3907(4) -0.3853(13) 0.4753(8)
O1A O 0.6093(4) 0.3853(13) 1.5247(8)
O2B O 0.4864(4) 0.2822(11) 0.8594(7)
O2C O 0.5136(4) -0.2178(11) 0.6406(7)
O2A O 0.4864(4) 0.2178(11) 1.3594(7)
O3B O -0.2115(4) -0.7954(14) 0.3586(9)
O3B_2 O 0.7885(4) 0.2046(14) 1.3586(9)
O4B O -0.2669(5) -0.4279(13) 0.2237(9)
O4_2 O 0.2669(5) 0.4279(13) 0.7763(9)
O4C O 0.2669(5) 0.0721(13) 0.2763(9)
O4B_2 O 0.7331(5) -0.4279(13) 1.2237(9)
O4A O 0.7331(5) -0.0721(13) 1.7237(9)
Pb1B Pb 0.65541(2) -0.03659(6) 1.38403(4)
Pb1C Pb 0.34459(2) -0.53659(6) 1.11597(4)
Pb1_2 Pb 0.34459(2) -0.96341(6) 0.61597(4)
Pb1A Pb 0.65541(2) 0.53659(6) 0.88403(4)
Pb1B_2 Pb -0.34459(2) -1.03659(6) 0.38403(4)
Pb1B_3 Pb -0.34459(2) -0.03659(6) 0.38403(4)
Pb1A_2 Pb -0.34459(2) -0.46341(6) -0.11597(4)
loop_
_geom_bond_atom_site_label_1
_geom_bond_atom_site_label_2
_geom_bond_site_symmetry_1
_geom_bond_site_symmetry_2
C1 O1 1_555 1_555
C2 C3 1_555 1_555
C3 H1 1_555 1_555
H2 C3 1_555 1_555
C4 C3 1_555 1_555
H3 C4 1_555 1_555
H4 C4 1_555 1_555
O1 Pb1 1_555 1_555
O2 C1 1_555 1_555
O3 C2 1_555 1_555
O4 C2 1_555 1_555
Pb1 O3 1_555 1_555
C1B C1 1_555 1_555
C2B C3B 1_555 1_555
C3B H1B 1_555 1_555
H2B C3B 1_555 1_555
C4B C4 1_555 1_555
H3B C4B 1_555 1_555
H4B C4B 1_555 1_555
O1B C1B 1_555 1_555
O1C Pb1 1_555 1_555
O1A Pb1B 1_555 1_555
O2B Pb1 1_555 1_555
O2C Pb1 1_555 1_555
O2A Pb1B 1_555 1_555
O3B C2B 1_555 1_555
O3B_2 Pb1B 1_555 1_555
O4B C2B 1_555 1_555
O4_2 Pb1 1_555 1_555
O4C Pb1 1_555 1_555
O4B_2 Pb1B 1_555 1_555
O4A Pb1B 1_555 1_555
Pb1B O2 1_555 1_555
Pb1C O1 1_555 1_555
Pb1_2 O4 1_555 1_555
Pb1A O1B 1_555 1_555
Pb1B_2 O3B 1_555 1_555
Pb1B_3 O4B 1_555 1_555
Pb1A_2 O4B 1_555 1_555
O2 Pb1C 1_555 1_555
O4 Pb1C 1_555 1_555
C1B O2B 1_555 1_555
C3B C4B 1_555 1_555
O1B Pb1B 1_555 1_555
O2B Pb1A 1_555 1_555

#END
