
#######################################################################
#
#                 Cambridge Crystallographic Data Centre
#                                CCDC 
#
#######################################################################
#
# If this CIF has been generated from an entry in the Cambridge 
# Structural Database, then it will include bibliographic, chemical, 
# crystal, experimental, refinement or atomic coordinate data resulting 
# from the CCDC's data processing and validation procedures.
#
#######################################################################

data_OFIFAL
_symmetry_cell_setting           monoclinic
_symmetry_space_group_name_H-M   'P 21/c'
_symmetry_Int_Tables_number      14
_space_group_name_Hall           '-P 2ybc'
loop_
_symmetry_equiv_pos_site_id
_symmetry_equiv_pos_as_xyz
1 x,y,z
2 -x,1/2+y,1/2-z
3 -x,-y,-z
4 x,1/2-y,1/2+z
_cell_length_a                   12.6902(5)
_cell_length_b                   5.2086(2)
_cell_length_c                   6.9389(2)
_cell_angle_alpha                90
_cell_angle_beta                 100.507(2)
_cell_angle_gamma                90
_cell_volume                     450.958
loop_
_atom_site_label
_atom_site_type_symbol
_atom_site_fract_x
_atom_site_fract_y
_atom_site_fract_z
C1 C 0.4652(9) -0.385(3) 0.5314(15)
C2 C 0.1412(10) -0.443(2) 0.6469(18)
C3 C 0.0391(8) -0.5720(18) 0.5772(17)
H1 H 0.0046 -0.6036 0.6888
H2 H 0.0538 -0.7376 0.5238
O1 O 0.3673(5) -0.3853(15) 0.4644(10)
O2 O 0.5175(5) -0.2219(13) 0.6374(9)
O3 O 0.1552(6) -0.2125(17) 0.6108(11)
O4 O 0.2159(6) -0.5838(15) 0.7476(11)
Pb1 Pb 0.31274(3) 0.03461(10) 0.59694(5)
C1B C 0.5348(9) -0.615(3) 0.4686(15)
C2B C -0.1412(10) -0.557(2) 0.3531(18)
C3B C -0.0391(8) -0.4280(18) 0.4228(17)
H1B H -0.0046 -0.3964 0.3112
H2B H -0.0538 -0.2624 0.4762
O1B O 0.6327(5) -0.6147(15) 0.5356(10)
O1C O 0.3673(5) -0.1147(15) 0.9644(10)
O1A O 0.6327(5) -0.8853(15) 0.0356(10)
O2B O 0.4825(5) -0.7781(13) 0.3626(9)
O2A O 0.4825(5) 0.2781(13) 0.8626(9)
O2C O 0.5175(5) -1.2781(13) 0.1374(9)
O3B O -0.1552(6) -0.7875(17) 0.3892(11)
O3B_2 O 0.8448(6) -0.7875(17) 0.3892(11)
O4B O -0.2159(6) -0.4162(15) 0.2524(11)
O4_2 O 0.2159(6) 0.4162(15) 0.7476(11)
O4C O 0.2159(6) 0.0838(15) 0.2476(11)
O4B_2 O 0.7841(6) -1.4162(15) 0.2524(11)
O4A O 0.7841(6) -1.0838(15) 0.7524(11)
Pb1B Pb 0.68726(3) -1.03461(10) 0.40306(5)
Pb1C Pb 0.31274(3) -0.53461(10) 0.09694(5)
Pb1A Pb 0.68726(3) -0.46539(10) 0.90306(5)
Pb1_2 Pb 0.31274(3) -0.96539(10) 0.59694(5)
Pb1C_2 Pb 0.31274(3) -0.53461(10) 1.09694(5)
Pb1B_2 Pb -0.31274(3) -1.03461(10) 0.40306(5)
Pb1B_3 Pb -0.31274(3) -0.03461(10) 0.40306(5)
Pb1A_2 Pb -0.31274(3) -0.46539(10) -0.09694(5)
loop_
_geom_bond_atom_site_label_1
_geom_bond_atom_site_label_2
_geom_bond_site_symmetry_1
_geom_bond_site_symmetry_2
C1 O1 1_555 1_555
C2 C3 1_555 1_555
C3 H1 1_555 1_555
H2 C3 1_555 1_555
O1 Pb1 1_555 1_555
O2 C1 1_555 1_555
O3 C2 1_555 1_555
O4 C2 1_555 1_555
Pb1 O2 1_555 1_555
C1B C1 1_555 1_555
C2B C3B 1_555 1_555
C3B C3 1_555 1_555
H1B C3B 1_555 1_555
H2B C3B 1_555 1_555
O1B C1B 1_555 1_555
O1C Pb1 1_555 1_555
O1A Pb1B 1_555 1_555
O2B C1B 1_555 1_555
O2A Pb1 1_555 1_555
O2C Pb1B 1_555 1_555
O3B C2B 1_555 1_555
O3B_2 Pb1B 1_555 1_555
O4B C2B 1_555 1_555
O4_2 Pb1 1_555 1_555
O4C Pb1 1_555 1_555
O4B_2 Pb1B 1_555 1_555
O4A Pb1B 1_555 1_555
Pb1B O1B 1_555 1_555
Pb1C O1 1_555 1_555
Pb1A O2 1_555 1_555
Pb1_2 O4 1_555 1_555
Pb1C_2 O4 1_555 1_555
Pb1B_2 O3B 1_555 1_555
Pb1B_3 O4B 1_555 1_555
Pb1A_2 O4B 1_555 1_555
O3 Pb1 1_555 1_555
O1B Pb1A 1_555 1_555
O1C Pb1C_2 1_555 1_555
O2B Pb1B 1_555 1_555
O2B Pb1C 1_555 1_555

#END
