
#######################################################################
#
#                 Cambridge Crystallographic Data Centre
#                                CCDC 
#
#######################################################################
#
# If this CIF has been generated from an entry in the Cambridge 
# Structural Database, then it will include bibliographic, chemical, 
# crystal, experimental, refinement or atomic coordinate data resulting 
# from the CCDC's data processing and validation procedures.
#
#######################################################################

data_OFIHAO
_symmetry_cell_setting           monoclinic
_symmetry_space_group_name_H-M   'P 21/c'
_symmetry_Int_Tables_number      14
_space_group_name_Hall           '-P 2ybc'
loop_
_symmetry_equiv_pos_site_id
_symmetry_equiv_pos_as_xyz
1 x,y,z
2 -x,1/2+y,1/2-z
3 -x,-y,-z
4 x,1/2-y,1/2+z
_cell_length_a                   10.672(5)
_cell_length_b                   18.341(8)
_cell_length_c                   10.097(5)
_cell_angle_alpha                90
_cell_angle_beta                 95.375(16)
_cell_angle_gamma                90
_cell_volume                     1967.65
loop_
_atom_site_label
_atom_site_type_symbol
_atom_site_fract_x
_atom_site_fract_y
_atom_site_fract_z
Zn1 Zn 0.67666(7) 0.84675(4) 0.58553(7)
Cl1 Cl 0.77463(16) 0.74072(9) 0.63148(16)
O1 O 0.6516(4) 0.8905(2) 0.7578(4)
O2 O 0.5261(5) 0.9695(3) 0.6461(4)
N1 N 0.4716(5) 1.1788(3) -0.4484(5)
N2 N 0.7851(5) 0.9108(3) 0.4740(4)
C1 C 0.4677(6) 1.2405(3) -0.3773(6)
H1 H 0.3983 1.2724 -0.3962
C2 C 0.5597(6) 1.2597(3) -0.2781(6)
H2 H 0.5531 1.3042 -0.2310
C3 C 0.6616(6) 1.2139(3) -0.2476(5)
C4 C 0.6660(6) 1.1495(3) -0.3202(6)
H3 H 0.7345 1.1167 -0.3028
C5 C 0.5701(6) 1.1335(3) -0.4176(6)
H4 H 0.5735 1.0889 -0.4650
C6 C 0.7638(6) 1.2373(3) -0.1433(6)
H5 H 0.7257 1.2669 -0.0756
H6 H 0.8240 1.2688 -0.1856
N3 N 0.8329(5) 1.1766(3) -0.0768(5)
C7 C 0.7525(6) 1.1327(3) 0.0019(6)
H7 H 0.7162 1.1641 0.0682
H8 H 0.6823 1.1119 -0.0572
C8 C 0.8260(6) 1.0720(3) 0.0722(6)
H9 H 0.7697 1.0425 0.1236
H10 H 0.8607 1.0397 0.0061
C9 C 0.9364(6) 1.2054(3) 0.0126(6)
H11 H 0.9026 1.2381 0.0787
H12 H 0.9932 1.2343 -0.0390
C10 C 0.5731(6) 0.9431(3) 0.7512(6)
C11 C 0.5364(6) 0.9728(3) 0.8813(6)
C12 C 0.4543(6) 1.0305(3) 0.8810(6)
H13 H 0.4231 1.0520 0.7988
C13 C 0.5834(6) 0.9424(3) 1.0024(6)
H14 H 0.6414 0.9030 1.0042
C14 C 0.8647(6) 0.8819(3) 0.3956(6)
H15 H 0.8737 0.8303 0.3952
C15 C 0.9351(6) 0.9223(4) 0.3147(6)
H16 H 0.9905 0.8988 0.2599
C16 C 0.9244(6) 0.9969(3) 0.3141(6)
C17 C 1.0010(6) 1.0418(4) 0.2271(6)
H17 H 1.0746 1.0622 0.2818
H18 H 1.0328 1.0100 0.1584
N4 N 0.9284(5) 1.1017(3) 0.1617(5)
C18 C 1.0090(6) 1.1447(4) 0.0834(6)
H19 H 1.0451 1.1130 0.0175
H20 H 1.0793 1.1654 0.1426
C19 C 0.8434(6) 1.0274(3) 0.3966(6)
H21 H 0.8347 1.0789 0.4002
C20 C 0.7752(6) 0.9842(3) 0.4737(6)
H22 H 0.7190 1.0066 0.5289
O1B O 0.3484(4) 1.1095(2) 1.2422(4)
O2B O 0.4739(5) 1.0305(3) 1.3539(4)
C10B C 0.4269(6) 1.0569(3) 1.2488(6)
C11B C 0.4636(6) 1.0272(3) 1.1187(6)
C12B C 0.5457(6) 0.9695(3) 1.1190(6)
H13B H 0.5769 0.9480 1.2012
C13B C 0.4166(6) 1.0576(3) 0.9976(6)
H14B H 0.3586 1.0970 0.9958
Zn1B Zn 0.32334(7) 1.15325(4) -0.58553(7)
Cl1B Cl 0.22537(16) 1.25928(9) -0.63148(16)
N1B N 0.5284(5) 0.8212(3) 0.4484(5)
N2B N 0.2149(5) 1.0892(3) -0.4740(4)
C1B C 0.5323(6) 0.7595(3) 0.3773(6)
H1B H 0.6017 0.7276 0.3962
C2B C 0.4403(6) 0.7403(3) 0.2781(6)
H2B H 0.4469 0.6958 0.2310
C3B C 0.3384(6) 0.7861(3) 0.2476(5)
C4B C 0.3340(6) 0.8505(3) 0.3202(6)
H3B H 0.2655 0.8833 0.3028
C5B C 0.4299(6) 0.8665(3) 0.4176(6)
H4B H 0.4265 0.9111 0.4650
C6B C 0.2362(6) 0.7627(3) 0.1433(6)
H5B H 0.2743 0.7331 0.0756
H6B H 0.1760 0.7312 0.1856
N3B N 0.1671(5) 0.8234(3) 0.0768(5)
C7B C 0.2475(6) 0.8673(3) -0.0019(6)
H7B H 0.2838 0.8359 -0.0682
H8B H 0.3177 0.8881 0.0572
C8B C 0.1740(6) 0.9280(3) -0.0722(6)
H9B H 0.2303 0.9575 -0.1236
H10B H 0.1393 0.9603 -0.0061
C9B C 0.0636(6) 0.7946(3) -0.0126(6)
H11B H 0.0974 0.7619 -0.0787
H12B H 0.0068 0.7657 0.0390
C14B C 0.1353(6) 1.1181(3) -0.3956(6)
H15B H 0.1263 1.1697 -0.3952
C15B C 0.0649(6) 1.0777(4) -0.3147(6)
H16B H 0.0095 1.1012 -0.2599
C16B C 0.0756(6) 1.0031(3) -0.3141(6)
C17B C -0.0010(6) 0.9582(4) -0.2271(6)
H17B H -0.0746 0.9378 -0.2818
H18B H -0.0328 0.9900 -0.1584
N4B N 0.0716(5) 0.8983(3) -0.1617(5)
C18B C -0.0090(6) 0.8553(4) -0.0834(6)
H19B H -0.0451 0.8870 -0.0175
H20B H -0.0793 0.8346 -0.1426
C19B C 0.1566(6) 0.9726(3) -0.3966(6)
H21B H 0.1653 0.9211 -0.4002
C20B C 0.2248(6) 1.0158(3) -0.4737(6)
H22B H 0.2810 0.9934 -0.5289
Zn1B_2 Zn 0.32334(7) 1.15325(4) 1.41447(7)
O1B_2 O 0.3484(4) 1.1095(2) -0.7578(4)
loop_
_geom_bond_atom_site_label_1
_geom_bond_atom_site_label_2
_geom_bond_site_symmetry_1
_geom_bond_site_symmetry_2
Zn1 Cl1 1_555 1_555
O1 Zn1 1_555 1_555
O2 C10 1_555 1_555
N1 C1 1_555 1_555
N2 Zn1 1_555 1_555
C1 H1 1_555 1_555
C2 C1 1_555 1_555
H2 C2 1_555 1_555
C3 C2 1_555 1_555
C4 C3 1_555 1_555
H3 C4 1_555 1_555
C5 N1 1_555 1_555
H4 C5 1_555 1_555
C6 C3 1_555 1_555
H5 C6 1_555 1_555
H6 C6 1_555 1_555
N3 C6 1_555 1_555
C7 N3 1_555 1_555
H7 C7 1_555 1_555
H8 C7 1_555 1_555
C8 C7 1_555 1_555
H9 C8 1_555 1_555
H10 C8 1_555 1_555
C9 N3 1_555 1_555
H11 C9 1_555 1_555
H12 C9 1_555 1_555
C10 O1 1_555 1_555
C11 C10 1_555 1_555
C12 C11 1_555 1_555
H13 C12 1_555 1_555
C13 C11 1_555 1_555
H14 C13 1_555 1_555
C14 N2 1_555 1_555
H15 C14 1_555 1_555
C15 C14 1_555 1_555
H16 C15 1_555 1_555
C16 C15 1_555 1_555
C17 C16 1_555 1_555
H17 C17 1_555 1_555
H18 C17 1_555 1_555
N4 C8 1_555 1_555
C18 C9 1_555 1_555
H19 C18 1_555 1_555
H20 C18 1_555 1_555
C19 C16 1_555 1_555
H21 C19 1_555 1_555
C20 N2 1_555 1_555
H22 C20 1_555 1_555
O1B C10B 1_555 1_555
O2B C10B 1_555 1_555
C10B C11B 1_555 1_555
C11B C12B 1_555 1_555
C12B C13 1_555 1_555
H13B C12B 1_555 1_555
C13B C12 1_555 1_555
H14B C13B 1_555 1_555
Zn1B N1 1_555 1_555
Cl1B Zn1B 1_555 1_555
N1B Zn1 1_555 1_555
N2B Zn1B 1_555 1_555
C1B N1B 1_555 1_555
H1B C1B 1_555 1_555
C2B C1B 1_555 1_555
H2B C2B 1_555 1_555
C3B C2B 1_555 1_555
C4B C3B 1_555 1_555
H3B C4B 1_555 1_555
C5B N1B 1_555 1_555
H4B C5B 1_555 1_555
C6B C3B 1_555 1_555
H5B C6B 1_555 1_555
H6B C6B 1_555 1_555
N3B C6B 1_555 1_555
C7B N3B 1_555 1_555
H7B C7B 1_555 1_555
H8B C7B 1_555 1_555
C8B C7B 1_555 1_555
H9B C8B 1_555 1_555
H10B C8B 1_555 1_555
C9B N3B 1_555 1_555
H11B C9B 1_555 1_555
H12B C9B 1_555 1_555
C14B N2B 1_555 1_555
H15B C14B 1_555 1_555
C15B C14B 1_555 1_555
H16B C15B 1_555 1_555
C16B C15B 1_555 1_555
C17B C16B 1_555 1_555
H17B C17B 1_555 1_555
H18B C17B 1_555 1_555
N4B C8B 1_555 1_555
C18B C9B 1_555 1_555
H19B C18B 1_555 1_555
H20B C18B 1_555 1_555
C19B C16B 1_555 1_555
H21B C19B 1_555 1_555
C20B N2B 1_555 1_555
H22B C20B 1_555 1_555
Zn1B_2 O1B 1_555 1_555
O1B_2 Zn1B 1_555 1_555
C4 C5 1_555 1_555
C17 N4 1_555 1_555
N4 C18 1_555 1_555
C19 C20 1_555 1_555
C11B C13B 1_555 1_555
C4B C5B 1_555 1_555
C17B N4B 1_555 1_555
N4B C18B 1_555 1_555
C19B C20B 1_555 1_555

#END
