
#######################################################################
#
#                 Cambridge Crystallographic Data Centre
#                                CCDC 
#
#######################################################################
#
# If this CIF has been generated from an entry in the Cambridge 
# Structural Database, then it will include bibliographic, chemical, 
# crystal, experimental, refinement or atomic coordinate data resulting 
# from the CCDC's data processing and validation procedures.
#
#######################################################################

data_OFIKAQ
_symmetry_cell_setting           monoclinic
_symmetry_space_group_name_H-M   'C 2'
_symmetry_Int_Tables_number      5
_space_group_name_Hall           'C 2y'
loop_
_symmetry_equiv_pos_site_id
_symmetry_equiv_pos_as_xyz
1 x,y,z
2 -x,y,-z
3 1/2+x,1/2+y,z
4 1/2-x,1/2+y,-z
_cell_length_a                   19.8020(8)
_cell_length_b                   13.5109(7)
_cell_length_c                   14.1523(10)
_cell_angle_alpha                90
_cell_angle_beta                 130.969(5)
_cell_angle_gamma                90
_cell_volume                     2858.94
loop_
_atom_site_label
_atom_site_type_symbol
_atom_site_fract_x
_atom_site_fract_y
_atom_site_fract_z
Ag1 Ag 0.135962(9) 0.452128(10) -0.204538(11)
Co1 Co 0.0000 0.54787(2) 0.0000
Co2 Co 0.0000 0.31068(2) -0.5000
O1 O -0.00809(8) 0.64569(9) 0.08620(12)
O2 O 0.01388(7) 0.44995(12) -0.08505(10)
O3 O 0.11803(9) 0.37246(10) -0.07457(12)
O4 O 0.08707(8) 0.41132(9) -0.39997(11)
O5 O -0.08636(8) 0.21121(10) -0.60196(12)
O6 O -0.12438(9) 0.09210(10) -0.73612(13)
N1 N 0.12673(10) 0.54466(12) 0.12012(14)
N2 N 0.02061(9) 0.30271(11) -0.61329(13)
C1 C 0.05272(11) 0.71703(14) 0.14892(16)
C2 C 0.14349(12) 0.70664(13) 0.20404(17)
C3 C 0.20403(12) 0.78462(14) 0.27653(18)
H1 H 0.2648 0.7771 0.3140
C4 C 0.17725(13) 0.87128(15) 0.29432(19)
H2 H 0.2189 0.9230 0.3439
C5 C 0.08755(13) 0.88185(15) 0.23807(19)
H3 H 0.0683 0.9415 0.2496
C6 C 0.02638(12) 0.80713(15) 0.16599(17)
H4 H -0.0344 0.8167 0.1273
C7 C 0.17740(12) 0.61685(14) 0.19241(16)
H5 H 0.2401 0.6109 0.2404
C8 C 0.16383(10) 0.45507(17) 0.11000(14)
H6 H 0.2221 0.4707 0.1320
C9 C 0.09501(12) 0.42317(13) -0.02684(16)
C10 C 0.17707(12) 0.37180(14) 0.19642(17)
H7 H 0.1190 0.3614 0.1767
C11 C 0.24731(13) 0.40305(15) 0.33403(17)
H8 H 0.2545 0.3504 0.3876
H9 H 0.2277 0.4639 0.3476
H10 H 0.3046 0.4148 0.3548
C12 C 0.20330(13) 0.27479(14) 0.17266(18)
H11 H 0.2113 0.2233 0.2280
H12 H 0.2594 0.2840 0.1894
H13 H 0.1560 0.2548 0.0853
C13 C 0.09593(11) 0.48289(13) -0.45600(16)
C14 C 0.08425(11) 0.46703(13) -0.56566(15)
C15 C 0.09932(12) 0.54466(15) -0.61592(17)
H14 H 0.0935 0.5325 -0.6871
C16 C 0.12243(13) 0.63859(14) -0.56397(18)
H15 H 0.1330 0.6905 -0.5982
C17 C 0.12987(13) 0.65514(15) -0.45978(18)
H16 H 0.1434 0.7198 -0.4251
C18 C 0.11790(13) 0.57934(14) -0.40646(17)
H17 H 0.1247 0.5927 -0.3347
C19 C 0.05267(12) 0.37412(14) -0.63365(16)
H18 H 0.0559 0.3654 -0.6973
C20 C -0.02113(11) 0.21547(13) -0.69740(16)
H19 H -0.0617 0.2413 -0.7851
C21 C -0.08082(12) 0.16770(13) -0.67718(16)
C22 C 0.04101(13) 0.13943(14) -0.68755(17)
H20 H 0.0019 0.0833 -0.7438
C23 C 0.08510(17) 0.17911(17) -0.7368(2)
H21 H 0.1239 0.1280 -0.7284
H22 H 0.1209 0.2377 -0.6885
H23 H 0.0388 0.1971 -0.8252
C24 C 0.11141(14) 0.09488(17) -0.55757(19)
H24 H 0.1480 0.0475 -0.5594
H25 H 0.0818 0.0608 -0.5322
H26 H 0.1497 0.1477 -0.4976
O7 O 0.11946(9) 0.61023(11) -0.13687(14)
H27 H 0.0810 0.6178 -0.1286
C25 C 0.19759(13) 0.66369(17) -0.0369(2)
H28 H 0.2387 0.6189 0.0337
H29 H 0.1804 0.7178 -0.0103
H30 H 0.2272 0.6910 -0.0657
O8 O 0.29397(9) 0.43849(14) -0.04843(13)
H31 H 0.3098 0.4206 0.0212
C26 C 0.35372(15) 0.50045(19) -0.0447(2)
H32 H 0.4038 0.4609 -0.0224
H33 H 0.3764 0.5525 0.0180
H34 H 0.3221 0.5307 -0.1270
Ag1A Ag -0.135962(9) 0.452128(10) 0.204538(11)
Co2_2 Co 0.0000 0.31068(2) 0.5000
O1A O 0.00809(8) 0.64569(9) -0.08620(12)
O2A O -0.01388(7) 0.44995(12) 0.08505(10)
O3A O -0.11803(9) 0.37246(10) 0.07457(12)
O4A O -0.08707(8) 0.41132(9) 0.39997(11)
O4A_2 O -0.08707(8) 0.41132(9) -0.60003(11)
O5A O 0.08636(8) 0.21121(10) 0.60196(12)
O5A_2 O 0.08636(8) 0.21121(10) -0.39804(12)
O6A O 0.12438(9) 0.09210(10) 0.73612(13)
N1A N -0.12673(10) 0.54466(12) -0.12012(14)
N2A N -0.02061(9) 0.30271(11) 0.61329(13)
N2A_2 N -0.02061(9) 0.30271(11) -0.38671(13)
C1A C -0.05272(11) 0.71703(14) -0.14892(16)
C2A C -0.14349(12) 0.70664(13) -0.20404(17)
C3A C -0.20403(12) 0.78462(14) -0.27653(18)
H1A H -0.2648 0.7771 -0.3140
C4A C -0.17725(13) 0.87128(15) -0.29432(19)
H2A H -0.2189 0.9230 -0.3439
C5A C -0.08755(13) 0.88185(15) -0.23807(19)
H3A H -0.0683 0.9415 -0.2496
C6A C -0.02638(12) 0.80713(15) -0.16599(17)
H4A H 0.0344 0.8167 -0.1273
C7A C -0.17740(12) 0.61685(14) -0.19241(16)
H5A H -0.2401 0.6109 -0.2404
C8A C -0.16383(10) 0.45507(17) -0.11000(14)
H6A H -0.2221 0.4707 -0.1320
C9A C -0.09501(12) 0.42317(13) 0.02684(16)
C10A C -0.17707(12) 0.37180(14) -0.19642(17)
H7A H -0.1190 0.3614 -0.1767
C11A C -0.24731(13) 0.40305(15) -0.33403(17)
H8A H -0.2545 0.3504 -0.3876
H9A H -0.2277 0.4639 -0.3476
H10A H -0.3046 0.4148 -0.3548
C12A C -0.20330(13) 0.27479(14) -0.17266(18)
H11A H -0.2113 0.2233 -0.2280
H12A H -0.2594 0.2840 -0.1894
H13A H -0.1560 0.2548 -0.0853
C13A C -0.09593(11) 0.48289(13) 0.45600(16)
C14A C -0.08425(11) 0.46703(13) 0.56566(15)
C15A C -0.09932(12) 0.54466(15) 0.61592(17)
H14A H -0.0935 0.5325 0.6871
C16A C -0.12243(13) 0.63859(14) 0.56397(18)
H15A H -0.1330 0.6905 0.5982
C17A C -0.12987(13) 0.65514(15) 0.45978(18)
H16A H -0.1434 0.7198 0.4251
C18A C -0.11790(13) 0.57934(14) 0.40646(17)
H17A H -0.1247 0.5927 0.3347
C19A C -0.05267(12) 0.37412(14) 0.63365(16)
H18A H -0.0559 0.3654 0.6973
C20A C 0.02113(11) 0.21547(13) 0.69740(16)
H19A H 0.0617 0.2413 0.7851
C21A C 0.08082(12) 0.16770(13) 0.67718(16)
C22A C -0.04101(13) 0.13943(14) 0.68755(17)
H20A H -0.0019 0.0833 0.7438
C23A C -0.08510(17) 0.17911(17) 0.7368(2)
H21A H -0.1239 0.1280 0.7284
H22A H -0.1209 0.2377 0.6885
H23A H -0.0388 0.1971 0.8252
C24A C -0.11141(14) 0.09488(17) 0.55757(19)
H24A H -0.1480 0.0475 0.5594
H25A H -0.0818 0.0608 0.5322
H26A H -0.1497 0.1477 0.4976
O7A O -0.11946(9) 0.61023(11) 0.13687(14)
H27A H -0.0810 0.6178 0.1286
C25A C -0.19759(13) 0.66369(17) 0.0369(2)
H28A H -0.2387 0.6189 -0.0337
H29A H -0.1804 0.7178 0.0103
H30A H -0.2272 0.6910 0.0657
O8A O -0.29397(9) 0.43849(14) 0.04843(13)
H31A H -0.3098 0.4206 -0.0212
C26A C -0.35372(15) 0.50045(19) 0.0447(2)
H32A H -0.4038 0.4609 0.0224
H33A H -0.3764 0.5525 -0.0180
H34A H -0.3221 0.5307 0.1270
O9 O 0.38995(10) 0.40865(11) 0.20542(13)
H35 H 0.3951 0.4667 0.2327
C27 C 0.44640(14) 0.34876(17) 0.3147(2)
H36 H 0.4294 0.3566 0.3656
H37 H 0.5088 0.3693 0.3635
H38 H 0.4399 0.2792 0.2903
loop_
_geom_bond_atom_site_label_1
_geom_bond_atom_site_label_2
_geom_bond_site_symmetry_1
_geom_bond_site_symmetry_2
Ag1 O3 1_555 1_555
Co1 O1 1_555 1_555
Co2 O4 1_555 1_555
O1 C1 1_555 1_555
O2 Co1 1_555 1_555
O3 C9 1_555 1_555
O4 Ag1 1_555 1_555
O5 Co2 1_555 1_555
O6 C21 1_555 1_555
N1 Co1 1_555 1_555
N2 Co2 1_555 1_555
C1 C2 1_555 1_555
C2 C3 1_555 1_555
C3 H1 1_555 1_555
C4 C3 1_555 1_555
H2 C4 1_555 1_555
C5 C4 1_555 1_555
H3 C5 1_555 1_555
C6 C1 1_555 1_555
H4 C6 1_555 1_555
C7 N1 1_555 1_555
H5 C7 1_555 1_555
C8 N1 1_555 1_555
H6 C8 1_555 1_555
C9 O2 1_555 1_555
C10 C8 1_555 1_555
H7 C10 1_555 1_555
C11 C10 1_555 1_555
H8 C11 1_555 1_555
H9 C11 1_555 1_555
H10 C11 1_555 1_555
C12 C10 1_555 1_555
H11 C12 1_555 1_555
H12 C12 1_555 1_555
H13 C12 1_555 1_555
C13 O4 1_555 1_555
C14 C13 1_555 1_555
C15 C14 1_555 1_555
H14 C15 1_555 1_555
C16 C15 1_555 1_555
H15 C16 1_555 1_555
C17 C16 1_555 1_555
H16 C17 1_555 1_555
C18 C13 1_555 1_555
H17 C18 1_555 1_555
C19 N2 1_555 1_555
H18 C19 1_555 1_555
C20 N2 1_555 1_555
H19 C20 1_555 1_555
C21 O5 1_555 1_555
C22 C20 1_555 1_555
H20 C22 1_555 1_555
C23 C22 1_555 1_555
H21 C23 1_555 1_555
H22 C23 1_555 1_555
H23 C23 1_555 1_555
C24 C22 1_555 1_555
H24 C24 1_555 1_555
H25 C24 1_555 1_555
H26 C24 1_555 1_555
O7 Ag1 1_555 1_555
H27 O7 1_555 1_555
C25 O7 1_555 1_555
H28 C25 1_555 1_555
H29 C25 1_555 1_555
H30 C25 1_555 1_555
O8 Ag1 1_555 1_555
H31 O8 1_555 1_555
C26 O8 1_555 1_555
H32 C26 1_555 1_555
H33 C26 1_555 1_555
H34 C26 1_555 1_555
O9 H35 1_555 1_555
C27 O9 1_555 1_555
H36 C27 1_555 1_555
H37 C27 1_555 1_555
H38 C27 1_555 1_555
Ag1A O3A 1_555 1_555
Co2_2 O4A 1_555 1_555
O1A Co1 1_555 1_555
O2A Co1 1_555 1_555
O3A C9A 1_555 1_555
O4A Ag1A 1_555 1_555
O4A_2 Co2 1_555 1_555
O5A Co2_2 1_555 1_555
O5A_2 Co2 1_555 1_555
O6A C21A 1_555 1_555
N1A Co1 1_555 1_555
N2A Co2_2 1_555 1_555
N2A_2 Co2 1_555 1_555
C1A O1A 1_555 1_555
C2A C1A 1_555 1_555
C3A C2A 1_555 1_555
H1A C3A 1_555 1_555
C4A C3A 1_555 1_555
H2A C4A 1_555 1_555
C5A C4A 1_555 1_555
H3A C5A 1_555 1_555
C6A C1A 1_555 1_555
H4A C6A 1_555 1_555
C7A N1A 1_555 1_555
H5A C7A 1_555 1_555
C8A N1A 1_555 1_555
H6A C8A 1_555 1_555
C9A O2A 1_555 1_555
C10A C8A 1_555 1_555
H7A C10A 1_555 1_555
C11A C10A 1_555 1_555
H8A C11A 1_555 1_555
H9A C11A 1_555 1_555
H10A C11A 1_555 1_555
C12A C10A 1_555 1_555
H11A C12A 1_555 1_555
H12A C12A 1_555 1_555
H13A C12A 1_555 1_555
C13A O4A 1_555 1_555
C14A C13A 1_555 1_555
C15A C14A 1_555 1_555
H14A C15A 1_555 1_555
C16A C15A 1_555 1_555
H15A C16A 1_555 1_555
C17A C16A 1_555 1_555
H16A C17A 1_555 1_555
C18A C13A 1_555 1_555
H17A C18A 1_555 1_555
C19A N2A 1_555 1_555
H18A C19A 1_555 1_555
C20A N2A 1_555 1_555
H19A C20A 1_555 1_555
C21A O5A 1_555 1_555
C22A C20A 1_555 1_555
H20A C22A 1_555 1_555
C23A C22A 1_555 1_555
H21A C23A 1_555 1_555
H22A C23A 1_555 1_555
H23A C23A 1_555 1_555
C24A C22A 1_555 1_555
H24A C24A 1_555 1_555
H25A C24A 1_555 1_555
H26A C24A 1_555 1_555
O7A Ag1A 1_555 1_555
H27A O7A 1_555 1_555
C25A O7A 1_555 1_555
H28A C25A 1_555 1_555
H29A C25A 1_555 1_555
H30A C25A 1_555 1_555
O8A Ag1A 1_555 1_555
H31A O8A 1_555 1_555
C26A O8A 1_555 1_555
H32A C26A 1_555 1_555
H33A C26A 1_555 1_555
H34A C26A 1_555 1_555
C2 C7 1_555 1_555
C5 C6 1_555 1_555
C8 C9 1_555 1_555
C14 C19 1_555 1_555
C17 C18 1_555 1_555
C20 C21 1_555 1_555
C2A C7A 1_555 1_555
C5A C6A 1_555 1_555
C8A C9A 1_555 1_555
C14A C19A 1_555 1_555
C17A C18A 1_555 1_555
C20A C21A 1_555 1_555

#END
