
#######################################################################
#
#                 Cambridge Crystallographic Data Centre
#                                CCDC 
#
#######################################################################
#
# If this CIF has been generated from an entry in the Cambridge 
# Structural Database, then it will include bibliographic, chemical, 
# crystal, experimental, refinement or atomic coordinate data resulting 
# from the CCDC's data processing and validation procedures.
#
#######################################################################

data_OFIROK
_symmetry_cell_setting           monoclinic
_symmetry_space_group_name_H-M   'P 21/m'
_symmetry_Int_Tables_number      11
_space_group_name_Hall           '-P 2yb'
loop_
_symmetry_equiv_pos_site_id
_symmetry_equiv_pos_as_xyz
1 x,y,z
2 -x,1/2+y,-z
3 -x,-y,-z
4 x,1/2-y,z
_cell_length_a                   3.575(28)
_cell_length_b                   13.010(1)
_cell_length_c                   8.798(68)
_cell_angle_alpha                90
_cell_angle_beta                 91.997(2)
_cell_angle_gamma                90
_cell_volume                     408.953
loop_
_atom_site_label
_atom_site_type_symbol
_atom_site_fract_x
_atom_site_fract_y
_atom_site_fract_z
Co1 Co 0.500 0.5000 0.0000
Cl1 Cl 0.009(2) 0.4466(4) 0.1715(6)
N1 N 0.500 0.3463(3) -0.100(1)
S1 S 0.500 0.2500 0.0214(9)
C1 C 0.500 0.3052(3) -0.514(1)
C2 C 0.500 0.3609(3) -0.384(1)
C3 C 0.500 0.3061(3) -0.244(1)
N1C N 0.500 0.1537(3) -0.100(1)
C3C C 0.500 0.1939(3) -0.244(1)
C2C C 0.500 0.1391(3) -0.384(1)
C1C C 0.500 0.1948(3) -0.514(1)
Cl1_2 Cl 1.009(2) 0.4466(4) 0.1715(6)
Cl1B Cl -0.009(2) 0.5534(4) -0.1715(6)
Cl1B_2 Cl 0.991(2) 0.5534(4) -0.1715(6)
N1B N 0.500 0.6537(3) 0.100(1)
Co1_2 Co -0.500 0.5000 0.0000
Co1A Co 0.500 0.0000 0.0000
Co1_3 Co 1.500 0.5000 0.0000
loop_
_geom_bond_atom_site_label_1
_geom_bond_atom_site_label_2
_geom_bond_site_symmetry_1
_geom_bond_site_symmetry_2
Co1 Cl1 1_555 1_555
Cl1 Co1_2 1_555 1_555
N1 Co1 1_555 1_555
S1 N1 1_555 1_555
C1 C2 1_555 1_555
C2 C3 1_555 1_555
C3 N1 1_555 1_555
N1C S1 1_555 1_555
C3C C3 1_555 1_555
C2C C3C 1_555 1_555
C1C C1 1_555 1_555
Cl1_2 Co1 1_555 1_555
Cl1B Co1 1_555 1_555
Cl1B_2 Co1 1_555 1_555
N1B Co1 1_555 1_555
Co1_2 Cl1B 1_555 1_555
Co1A N1C 1_555 1_555
Co1_3 Cl1_2 1_555 1_555
N1C C3C 1_555 1_555
C2C C1C 1_555 1_555
Cl1B_2 Co1_3 1_555 1_555

#END
