
#######################################################################
#
#                 Cambridge Crystallographic Data Centre
#                                CCDC 
#
#######################################################################
#
# If this CIF has been generated from an entry in the Cambridge 
# Structural Database, then it will include bibliographic, chemical, 
# crystal, experimental, refinement or atomic coordinate data resulting 
# from the CCDC's data processing and validation procedures.
#
#######################################################################

data_OFITAA
_symmetry_cell_setting           monoclinic
_symmetry_space_group_name_H-M   'P 21/c'
_symmetry_Int_Tables_number      14
_space_group_name_Hall           '-P 2ybc'
loop_
_symmetry_equiv_pos_site_id
_symmetry_equiv_pos_as_xyz
1 x,y,z
2 -x,1/2+y,1/2-z
3 -x,-y,-z
4 x,1/2-y,1/2+z
_cell_length_a                   12.838(4)
_cell_length_b                   19.779(5)
_cell_length_c                   19.365(6)
_cell_angle_alpha                90
_cell_angle_beta                 107.81(3)
_cell_angle_gamma                90
_cell_volume                     4681.56
loop_
_atom_site_label
_atom_site_type_symbol
_atom_site_fract_x
_atom_site_fract_y
_atom_site_fract_z
C44 C 0.1543(7) 0.0103(4) 0.8209(6)
H39 H 0.1850 -0.0336 0.8404
H40 H 0.1552 0.0147 0.7707
H41 H 0.0788 0.0136 0.8223
O13 O 0.2126(7) 0.0586(3) 0.8601(4)
H42 H 0.1712 0.0900 0.8646
Pr1 Pr 0.263711(13) 0.334691(8) 0.792418(8)
P1 P 0.31130(6) 0.38426(4) 0.61334(4)
P2 P 0.11577(6) 0.17484(4) 0.43651(4)
P3 P 0.36894(6) 0.51462(4) 0.85953(4)
O1 O 0.31638(16) 0.36906(10) 0.69042(10)
O2 O 0.15967(16) 0.16585(10) 0.37388(10)
O3 O 0.31910(16) 0.44687(10) 0.83353(10)
N1 N 0.0353(2) 0.35840(16) 0.69602(15)
O4 O -0.0597(2) 0.36531(15) 0.65887(17)
O5 O 0.07842(18) 0.30020(11) 0.70684(12)
O6 O 0.09437(18) 0.40805(11) 0.72585(13)
N2 N 0.4766(2) 0.29298(14) 0.89881(15)
O7 O 0.56126(19) 0.27431(16) 0.94253(14)
O8 O 0.46833(18) 0.30388(13) 0.83248(12)
O9 O 0.39196(17) 0.30258(12) 0.91690(11)
N3 N 0.2284(2) 0.18911(14) 0.75254(15)
O10 O 0.1894(2) 0.13464(12) 0.72838(14)
O11 O 0.2257(2) 0.20939(11) 0.81342(12)
O12 O 0.27308(19) 0.22802(11) 0.71821(12)
C1 C 0.4452(3) 0.38527(15) 0.60308(17)
C2 C 0.5293(3) 0.35355(18) 0.6546(2)
H1 H 0.5173 0.3354 0.6970
C3 C 0.6320(3) 0.3480(2) 0.6448(3)
H2 H 0.6898 0.3260 0.6803
C4 C 0.6496(3) 0.3740(2) 0.5844(3)
H3 H 0.7200 0.3707 0.5782
C5 C 0.5662(4) 0.4051(2) 0.5324(3)
H4 H 0.5788 0.4225 0.4899
C6 C 0.4645(3) 0.41135(18) 0.5413(2)
H5 H 0.4073 0.4334 0.5053
C7 C 0.2434(3) 0.46338(15) 0.58424(17)
C8 C 0.2008(4) 0.4826(2) 0.5125(3)
H6 H 0.2081 0.4536 0.4752
C9 C 0.1471(5) 0.5443(3) 0.4949(3)
H7 H 0.1143 0.5554 0.4452
C10 C 0.1405(9) 0.5875(4) 0.5447(6)
H8 H 0.1120 0.6316 0.5313
C11 C 0.1771(5) 0.5676(2) 0.6205(3)
H9 H 0.1664 0.5966 0.6569
C12 C 0.2276(4) 0.5059(2) 0.6384(3)
H10 H 0.2520 0.4919 0.6877
C13 C 0.2440(2) 0.31756(14) 0.55391(15)
C14 C 0.1357(2) 0.28127(15) 0.55141(16)
H11 H 0.0676 0.3074 0.5301
H12 H 0.1360 0.2561 0.5957
C15 C 0.2965(2) 0.24584(14) 0.55418(16)
H13 H 0.3597 0.2435 0.5352
H14 H 0.3065 0.2184 0.5985
C16 C -0.0256(2) 0.20003(15) 0.40480(16)
C17 C -0.0916(2) 0.19533(15) 0.44968(17)
H15 H -0.0626 0.1778 0.4974
C18 C -0.1991(3) 0.21613(16) 0.42489(18)
H16 H -0.2443 0.2125 0.4554
C19 C -0.2411(3) 0.24215(17) 0.35606(18)
H17 H -0.3157 0.2554 0.3388
C20 C -0.1751(3) 0.24907(18) 0.31194(18)
H18 H -0.2037 0.2685 0.2651
C21 C -0.0680(3) 0.22785(17) 0.33589(17)
H19 H -0.0229 0.2322 0.3053
C22 C 0.1305(2) 0.09817(15) 0.48786(16)
C23 C 0.1536(3) 0.09673(16) 0.56286(17)
H20 H 0.1589 0.1378 0.5892
C24 C 0.1689(3) 0.03570(17) 0.59902(18)
H21 H 0.1852 0.0350 0.6503
C25 C 0.1608(3) -0.02422(16) 0.56155(19)
H22 H 0.1720 -0.0660 0.5869
C26 C 0.1363(3) -0.02336(16) 0.48681(19)
H23 H 0.1296 -0.0647 0.4608
C27 C 0.1215(3) 0.03732(16) 0.45008(18)
H24 H 0.1051 0.0377 0.3988
C28 C 0.1812(2) 0.24260(14) 0.49667(15)
C29 C 0.2061(3) 0.31306(15) 0.46903(16)
H25 H 0.2649 0.3142 0.4458
H26 H 0.1418 0.3408 0.4433
C30 C 0.2673(3) 0.57821(15) 0.85492(16)
C31 C 0.1616(3) 0.56682(17) 0.81098(17)
H27 H 0.1441 0.5259 0.7842
C32 C 0.0808(3) 0.6152(2) 0.8058(2)
H28 H 0.0080 0.6070 0.7761
C33 C 0.1068(4) 0.67505(19) 0.8441(2)
H29 H 0.0516 0.7080 0.8407
C34 C 0.2121(4) 0.68715(18) 0.8872(2)
H30 H 0.2295 0.7287 0.9128
C35 C 0.2932(3) 0.63893(16) 0.89336(17)
H31 H 0.3658 0.6472 0.9235
C36 C 0.4506(2) 0.54383(17) 0.80490(16)
C37 C 0.4498(3) 0.60985(19) 0.7816(2)
H32 H 0.4087 0.6428 0.7977
C38 C 0.5078(4) 0.6290(2) 0.7352(2)
H33 H 0.5070 0.6747 0.7199
C39 C 0.5660(4) 0.5815(3) 0.7115(2)
H34 H 0.6040 0.5940 0.6784
C40 C 0.5703(4) 0.5152(2) 0.7353(2)
H35 H 0.6129 0.4829 0.7196
C41 C 0.5127(3) 0.49591(19) 0.78195(19)
H36 H 0.5154 0.4504 0.7982
C42 C 0.4552(2) 0.50745(15) 0.95242(15)
C43 C 0.4819(6) 0.5609(3) 1.0152(3)
H37 H 0.4205 0.5740 1.0334
H38 H 0.5282 0.5996 1.0105
P3B P 0.63106(6) 0.48538(4) 1.14047(4)
O3B O 0.68090(16) 0.55313(10) 1.16647(10)
C30B C 0.7327(3) 0.42179(15) 1.14508(16)
C31B C 0.8384(3) 0.43318(17) 1.18902(17)
H27B H 0.8559 0.4741 1.2158
C32B C 0.9192(3) 0.3848(2) 1.1942(2)
H28B H 0.9920 0.3930 1.2239
C33B C 0.8932(4) 0.32495(19) 1.1559(2)
H29B H 0.9484 0.2920 1.1593
C34B C 0.7879(4) 0.31285(18) 1.1128(2)
H30B H 0.7705 0.2713 1.0872
C35B C 0.7068(3) 0.36107(16) 1.10664(17)
H31B H 0.6342 0.3528 1.0765
C36B C 0.5494(2) 0.45617(17) 1.19510(16)
C37B C 0.5502(3) 0.39015(19) 1.2184(2)
H32B H 0.5913 0.3572 1.2023
C38B C 0.4922(4) 0.3710(2) 1.2648(2)
H33B H 0.4930 0.3253 1.2801
C39B C 0.4340(4) 0.4185(3) 1.2885(2)
H34B H 0.3960 0.4060 1.3216
C40B C 0.4297(4) 0.4848(2) 1.2647(2)
H35B H 0.3871 0.5171 1.2804
C41B C 0.4873(3) 0.50409(19) 1.21805(19)
H36B H 0.4846 0.5496 1.2018
C42B C 0.5448(2) 0.49255(15) 1.04758(15)
C43B C 0.5181(6) 0.4391(3) 0.9848(3)
H37B H 0.5795 0.4260 0.9666
H38B H 0.4718 0.4004 0.9895
Pr1B Pr 0.736289(13) 0.665309(8) 1.207582(8)
P1B P 0.68870(6) 0.61574(4) 1.38666(4)
P2B P 0.88423(6) 0.82516(4) 1.56349(4)
O1B O 0.68362(16) 0.63094(10) 1.30958(10)
O2B O 0.84033(16) 0.83415(10) 1.62612(10)
N1B N 0.9647(2) 0.64160(16) 1.30398(15)
O4B O 1.0597(2) 0.63469(15) 1.34113(17)
O5B O 0.92158(18) 0.69980(11) 1.29316(12)
O6B O 0.90563(18) 0.59195(11) 1.27415(13)
N2B N 0.5234(2) 0.70702(14) 1.10119(15)
O7B O 0.43874(19) 0.72569(16) 1.05747(14)
O8B O 0.53167(18) 0.69612(13) 1.16752(12)
O9B O 0.60804(17) 0.69742(12) 1.08310(11)
N3B N 0.7716(2) 0.81089(14) 1.24746(15)
O10B O 0.8106(2) 0.86536(12) 1.27162(14)
O11B O 0.7743(2) 0.79061(11) 1.18658(12)
O12B O 0.72692(19) 0.77198(11) 1.28179(12)
C1B C 0.5548(3) 0.61473(15) 1.39692(17)
C2B C 0.4707(3) 0.64645(18) 1.3454(2)
H1B H 0.4827 0.6646 1.3030
C3B C 0.3680(3) 0.6520(2) 1.3552(3)
H2B H 0.3102 0.6740 1.3197
C4B C 0.3504(3) 0.6260(2) 1.4156(3)
H3B H 0.2800 0.6293 1.4218
C5B C 0.4338(4) 0.5949(2) 1.4676(3)
H4B H 0.4212 0.5775 1.5101
C6B C 0.5355(3) 0.58865(18) 1.4587(2)
H5B H 0.5927 0.5666 1.4947
C7B C 0.7566(3) 0.53662(15) 1.41576(17)
C8B C 0.7992(4) 0.5174(2) 1.4875(3)
H6B H 0.7919 0.5464 1.5248
C9B C 0.8529(5) 0.4557(3) 1.5051(3)
H7B H 0.8857 0.4446 1.5548
C10B C 0.8595(9) 0.4125(4) 1.4553(6)
H8B H 0.8880 0.3684 1.4687
C11B C 0.8229(5) 0.4324(2) 1.3795(3)
H9B H 0.8336 0.4034 1.3431
C12B C 0.7724(4) 0.4941(2) 1.3616(3)
H10B H 0.7480 0.5081 1.3123
C13B C 0.7560(2) 0.68244(14) 1.44609(15)
C14B C 0.8643(2) 0.71873(15) 1.44859(16)
H11B H 0.9324 0.6926 1.4699
H12B H 0.8640 0.7439 1.4043
C15B C 0.7035(2) 0.75416(14) 1.44582(16)
H13B H 0.6403 0.7565 1.4648
H14B H 0.6935 0.7816 1.4015
C16B C 1.0256(2) 0.79997(15) 1.59520(16)
C17B C 1.0916(2) 0.80467(15) 1.55032(17)
H15B H 1.0626 0.8222 1.5026
C18B C 1.1991(3) 0.78387(16) 1.57511(18)
H16B H 1.2443 0.7875 1.5446
C19B C 1.2411(3) 0.75785(17) 1.64394(18)
H17B H 1.3157 0.7446 1.6612
C20B C 1.1751(3) 0.75093(18) 1.68806(18)
H18B H 1.2037 0.7315 1.7349
C21B C 1.0680(3) 0.77215(17) 1.66411(17)
H19B H 1.0229 0.7678 1.6947
C22B C 0.8695(2) 0.90183(15) 1.51214(16)
C23B C 0.8464(3) 0.90327(16) 1.43714(17)
H20B H 0.8411 0.8622 1.4108
C24B C 0.8311(3) 0.96430(17) 1.40098(18)
H21B H 0.8148 0.9650 1.3497
C25B C 0.8392(3) 1.02422(16) 1.43845(19)
H22B H 0.8280 1.0660 1.4131
C26B C 0.8637(3) 1.02336(16) 1.51319(19)
H23B H 0.8704 1.0647 1.5392
C27B C 0.8785(3) 0.96268(16) 1.54992(18)
H24B H 0.8949 0.9623 1.6012
C28B C 0.8188(2) 0.75740(14) 1.50333(15)
C29B C 0.7939(3) 0.68694(15) 1.53097(16)
H25B H 0.7351 0.6858 1.5542
H26B H 0.8582 0.6592 1.5567
Pr1A Pr 0.736289(13) 0.834691(8) 1.707582(8)
Pr1C Pr 0.263711(13) 0.165309(8) 0.292418(8)
O2A O 0.84033(16) 0.66585(10) 1.12612(10)
O2C O 0.15967(16) 0.33415(10) 0.87388(10)
C45? C 0.1432(13) 0.4702(7) 0.5394(10)
H43? H 0.1033 0.4311 0.5178
C46? C 0.0956(14) 0.5334(8) 0.5233(11)
H44? H 0.0274 0.5375 0.4864
C47? C 0.143(2) 0.5876(12) 0.558(2)
H45? H 0.1015 0.6263 0.5631
C48? C 0.2611(12) 0.5853(7) 0.5886(9)
H46? H 0.3040 0.6253 0.5966
C49? C 0.3081(12) 0.5223(6) 0.6054(8)
H47? H 0.3839 0.5185 0.6311
C50? C 0.5707(5) 0.5435(3) 0.9909(3)
H48? H 0.6321 0.5310 0.9725
H49? H 0.5683 0.5923 1.0016
C51? C 0.4284(5) 0.5159(4) 1.0220(3)
H50? H 0.4157 0.5630 1.0349
H51? H 0.3739 0.4838 1.0298
loop_
_geom_bond_atom_site_label_1
_geom_bond_atom_site_label_2
_geom_bond_site_symmetry_1
_geom_bond_site_symmetry_2
Pr1 O1 1_555 1_555
P1 O1 1_555 1_555
P2 O2 1_555 1_555
P3 O3 1_555 1_555
O2 Pr1C 1_555 1_555
O3 Pr1 1_555 1_555
N1 O4 1_555 1_555
O5 Pr1 1_555 1_555
O6 Pr1 1_555 1_555
N2 O7 1_555 1_555
O8 Pr1 1_555 1_555
O9 Pr1 1_555 1_555
N3 O10 1_555 1_555
O11 Pr1 1_555 1_555
O12 Pr1 1_555 1_555
C1 P1 1_555 1_555
C2 C1 1_555 1_555
H1 C2 1_555 1_555
C3 C2 1_555 1_555
H2 C3 1_555 1_555
C4 C3 1_555 1_555
H3 C4 1_555 1_555
C5 C4 1_555 1_555
H4 C5 1_555 1_555
C6 C1 1_555 1_555
H5 C6 1_555 1_555
C7 P1 1_555 1_555
C8 C7 1_555 1_555
H6 C8 1_555 1_555
C9 C8 1_555 1_555
H7 C9 1_555 1_555
C10 C9 1_555 1_555
H8 C10 1_555 1_555
C11 C10 1_555 1_555
H9 C11 1_555 1_555
C12 C7 1_555 1_555
H10 C12 1_555 1_555
C13 P1 1_555 1_555
C14 C13 1_555 1_555
H11 C14 1_555 1_555
H12 C14 1_555 1_555
C15 C13 1_555 1_555
H13 C15 1_555 1_555
H14 C15 1_555 1_555
C16 P2 1_555 1_555
C17 C16 1_555 1_555
H15 C17 1_555 1_555
C18 C17 1_555 1_555
H16 C18 1_555 1_555
C19 C18 1_555 1_555
H17 C19 1_555 1_555
C20 C19 1_555 1_555
H18 C20 1_555 1_555
C21 C16 1_555 1_555
H19 C21 1_555 1_555
C22 P2 1_555 1_555
C23 C22 1_555 1_555
H20 C23 1_555 1_555
C24 C23 1_555 1_555
H21 C24 1_555 1_555
C25 C24 1_555 1_555
H22 C25 1_555 1_555
C26 C25 1_555 1_555
H23 C26 1_555 1_555
C27 C22 1_555 1_555
H24 C27 1_555 1_555
C28 P2 1_555 1_555
C29 C13 1_555 1_555
H25 C29 1_555 1_555
H26 C29 1_555 1_555
C30 P3 1_555 1_555
C31 C30 1_555 1_555
H27 C31 1_555 1_555
C32 C31 1_555 1_555
H28 C32 1_555 1_555
C33 C32 1_555 1_555
H29 C33 1_555 1_555
C34 C33 1_555 1_555
H30 C34 1_555 1_555
C35 C30 1_555 1_555
H31 C35 1_555 1_555
C36 P3 1_555 1_555
C37 C36 1_555 1_555
H32 C37 1_555 1_555
C38 C37 1_555 1_555
H33 C38 1_555 1_555
C39 C38 1_555 1_555
H34 C39 1_555 1_555
C40 C39 1_555 1_555
H35 C40 1_555 1_555
C41 C36 1_555 1_555
H36 C41 1_555 1_555
C42 P3 1_555 1_555
C43 C42 1_555 1_555
H37 C43 1_555 1_555
H38 C43 1_555 1_555
C44 H39 1_555 1_555
H40 C44 1_555 1_555
H41 C44 1_555 1_555
O13 C44 1_555 1_555
H42 O13 1_555 1_555
P3B O3B 1_555 1_555
O3B Pr1B 1_555 1_555
C30B P3B 1_555 1_555
C31B C30B 1_555 1_555
H27B C31B 1_555 1_555
C32B C31B 1_555 1_555
H28B C32B 1_555 1_555
C33B C32B 1_555 1_555
H29B C33B 1_555 1_555
C34B C33B 1_555 1_555
H30B C34B 1_555 1_555
C35B C30B 1_555 1_555
H31B C35B 1_555 1_555
C36B P3B 1_555 1_555
C37B C36B 1_555 1_555
H32B C37B 1_555 1_555
C38B C37B 1_555 1_555
H33B C38B 1_555 1_555
C39B C38B 1_555 1_555
H34B C39B 1_555 1_555
C40B C39B 1_555 1_555
H35B C40B 1_555 1_555
C41B C36B 1_555 1_555
H36B C41B 1_555 1_555
C42B C43 1_555 1_555
C43B C42 1_555 1_555
H37B C43B 1_555 1_555
H38B C43B 1_555 1_555
Pr1B O1B 1_555 1_555
P1B O1B 1_555 1_555
P2B O2B 1_555 1_555
O2B Pr1A 1_555 1_555
N1B O4B 1_555 1_555
O5B Pr1B 1_555 1_555
O6B Pr1B 1_555 1_555
N2B O7B 1_555 1_555
O8B Pr1B 1_555 1_555
O9B Pr1B 1_555 1_555
N3B O10B 1_555 1_555
O11B Pr1B 1_555 1_555
O12B Pr1B 1_555 1_555
C1B P1B 1_555 1_555
C2B C1B 1_555 1_555
H1B C2B 1_555 1_555
C3B C2B 1_555 1_555
H2B C3B 1_555 1_555
C4B C3B 1_555 1_555
H3B C4B 1_555 1_555
C5B C4B 1_555 1_555
H4B C5B 1_555 1_555
C6B C1B 1_555 1_555
H5B C6B 1_555 1_555
C7B P1B 1_555 1_555
C8B C7B 1_555 1_555
H6B C8B 1_555 1_555
C9B C8B 1_555 1_555
H7B C9B 1_555 1_555
C10B C9B 1_555 1_555
H8B C10B 1_555 1_555
C11B C10B 1_555 1_555
H9B C11B 1_555 1_555
C12B C7B 1_555 1_555
H10B C12B 1_555 1_555
C13B P1B 1_555 1_555
C14B C13B 1_555 1_555
H11B C14B 1_555 1_555
H12B C14B 1_555 1_555
C15B C13B 1_555 1_555
H13B C15B 1_555 1_555
H14B C15B 1_555 1_555
C16B P2B 1_555 1_555
C17B C16B 1_555 1_555
H15B C17B 1_555 1_555
C18B C17B 1_555 1_555
H16B C18B 1_555 1_555
C19B C18B 1_555 1_555
H17B C19B 1_555 1_555
C20B C19B 1_555 1_555
H18B C20B 1_555 1_555
C21B C16B 1_555 1_555
H19B C21B 1_555 1_555
C22B P2B 1_555 1_555
C23B C22B 1_555 1_555
H20B C23B 1_555 1_555
C24B C23B 1_555 1_555
H21B C24B 1_555 1_555
C25B C24B 1_555 1_555
H22B C25B 1_555 1_555
C26B C25B 1_555 1_555
H23B C26B 1_555 1_555
C27B C22B 1_555 1_555
H24B C27B 1_555 1_555
C28B P2B 1_555 1_555
C29B C13B 1_555 1_555
H25B C29B 1_555 1_555
H26B C29B 1_555 1_555
O2A Pr1B 1_555 1_555
O2C Pr1 1_555 1_555
N1 O5 1_555 1_555
N1 O6 1_555 1_555
N2 O8 1_555 1_555
N2 O9 1_555 1_555
N3 O11 1_555 1_555
N3 O12 1_555 1_555
C5 C6 1_555 1_555
C11 C12 1_555 1_555
C14 C28 1_555 1_555
C15 C28 1_555 1_555
C20 C21 1_555 1_555
C26 C27 1_555 1_555
C28 C29 1_555 1_555
C34 C35 1_555 1_555
C40 C41 1_555 1_555
P3B C42B 1_555 1_555
C34B C35B 1_555 1_555
C40B C41B 1_555 1_555
C42B C43B 1_555 1_555
N1B O5B 1_555 1_555
N1B O6B 1_555 1_555
N2B O8B 1_555 1_555
N2B O9B 1_555 1_555
N3B O11B 1_555 1_555
N3B O12B 1_555 1_555
C5B C6B 1_555 1_555
C11B C12B 1_555 1_555
C14B C28B 1_555 1_555
C15B C28B 1_555 1_555
C20B C21B 1_555 1_555
C26B C27B 1_555 1_555
C28B C29B 1_555 1_555

#END
