
#######################################################################
#
#                 Cambridge Crystallographic Data Centre
#                                CCDC 
#
#######################################################################
#
# If this CIF has been generated from an entry in the Cambridge 
# Structural Database, then it will include bibliographic, chemical, 
# crystal, experimental, refinement or atomic coordinate data resulting 
# from the CCDC's data processing and validation procedures.
#
#######################################################################

data_OFITAZ
_symmetry_cell_setting           monoclinic
_symmetry_space_group_name_H-M   'P 21/n'
_symmetry_Int_Tables_number      14
_space_group_name_Hall           '-P 2yn'
loop_
_symmetry_equiv_pos_site_id
_symmetry_equiv_pos_as_xyz
1 x,y,z
2 1/2-x,1/2+y,1/2-z
3 -x,-y,-z
4 1/2+x,1/2-y,1/2+z
_cell_length_a                   10.299(7)
_cell_length_b                   5.963(4)
_cell_length_c                   13.540(9)
_cell_angle_alpha                90
_cell_angle_beta                 95.759(13)
_cell_angle_gamma                90
_cell_volume                     827.334
loop_
_atom_site_label
_atom_site_type_symbol
_atom_site_fract_x
_atom_site_fract_y
_atom_site_fract_z
Mn1 Mn 0.24827(4) 0.21444(7) 0.66906(3)
O1 O 0.14278(19) -0.0787(3) 0.72323(14)
O2 O -0.0403(2) -0.0953(4) 0.62098(14)
O3 O 0.08148(19) 0.3704(3) 0.72140(14)
O4 O 0.1088(2) 0.4998(3) 0.87586(15)
N1 N -0.2665(2) 0.0888(4) 1.03402(16)
N2 N -0.3119(3) -0.2193(4) 0.94391(18)
H1 H -0.345(5) -0.348(8) 0.926(3)
C1 C -0.3368(3) -0.0968(5) 1.0228(2)
H2 H -0.398(4) -0.139(6) 1.060(3)
C2 C -0.1892(3) 0.0866(5) 0.95483(19)
C3 C -0.2165(3) -0.1079(5) 0.8980(2)
C4 C -0.1541(3) -0.1577(5) 0.8146(2)
H3 H -0.170(4) -0.294(6) 0.777(3)
C5 C -0.0604(3) -0.0056(4) 0.78931(19)
C6 C -0.0334(3) 0.1928(5) 0.84473(19)
C7 C -0.0981(3) 0.2398(5) 0.9276(2)
H4 H -0.081(3) 0.372(5) 0.964(2)
C8 C 0.0168(3) -0.0640(4) 0.70379(19)
C9 C 0.0592(3) 0.3644(5) 0.8121(2)
Mn1A Mn 0.25173(4) -0.28556(7) 0.83094(3)
Mn1A_2 Mn 0.25173(4) 0.71444(7) 0.83094(3)
Mn1C Mn -0.25173(4) 0.28556(7) 1.16906(3)
O1A O 0.35722(19) 0.4213(3) 0.77677(14)
O4A O 0.3912(2) -0.0002(3) 0.62414(15)
N1C N 0.2335(2) 0.4112(4) 0.53402(16)
loop_
_geom_bond_atom_site_label_1
_geom_bond_atom_site_label_2
_geom_bond_site_symmetry_1
_geom_bond_site_symmetry_2
Mn1 O1 1_555 1_555
O1 C8 1_555 1_555
O2 C8 1_555 1_555
O3 Mn1 1_555 1_555
O4 C9 1_555 1_555
N1 C1 1_555 1_555
N2 H1 1_555 1_555
C1 N2 1_555 1_555
H2 C1 1_555 1_555
C2 N1 1_555 1_555
C3 N2 1_555 1_555
C4 C3 1_555 1_555
H3 C4 1_555 1_555
C5 C4 1_555 1_555
C6 C5 1_555 1_555
C7 C2 1_555 1_555
H4 C7 1_555 1_555
C8 C5 1_555 1_555
C9 O3 1_555 1_555
Mn1A O1 1_555 1_555
Mn1A_2 O4 1_555 1_555
Mn1C N1 1_555 1_555
O1A Mn1 1_555 1_555
O4A Mn1 1_555 1_555
N1C Mn1 1_555 1_555
C2 C3 1_555 1_555
C6 C7 1_555 1_555
C6 C9 1_555 1_555
Mn1A_2 O1A 1_555 1_555

#END
