
#######################################################################
#
#                 Cambridge Crystallographic Data Centre
#                                CCDC 
#
#######################################################################
#
# If this CIF has been generated from an entry in the Cambridge 
# Structural Database, then it will include bibliographic, chemical, 
# crystal, experimental, refinement or atomic coordinate data resulting 
# from the CCDC's data processing and validation procedures.
#
#######################################################################

data_OFITAZ01
_symmetry_cell_setting           monoclinic
_symmetry_space_group_name_H-M   'P 21/c'
_symmetry_Int_Tables_number      14
_space_group_name_Hall           '-P 2ybc'
loop_
_symmetry_equiv_pos_site_id
_symmetry_equiv_pos_as_xyz
1 x,y,z
2 -x,1/2+y,1/2-z
3 -x,-y,-z
4 x,1/2-y,1/2+z
_cell_length_a                   10.317(2)
_cell_length_b                   5.9699(12)
_cell_length_c                   16.165(5)
_cell_angle_alpha                90
_cell_angle_beta                 123.64(2)
_cell_angle_gamma                90
_cell_volume                     828.893
loop_
_atom_site_label
_atom_site_type_symbol
_atom_site_fract_x
_atom_site_fract_y
_atom_site_fract_z
C1 C -0.6218(4) 0.8073(6) 0.3444(3)
C2 C -0.6507(4) 1.0060(6) 0.2892(2)
C3 C -0.5309(4) 1.1571(7) 0.3146(3)
H1 H -0.5482 1.2860 0.2775
C4 C -0.3843(4) 1.1063(7) 0.3980(3)
C5 C -0.3561(4) 0.9137(7) 0.4548(2)
C6 C -0.4750(4) 0.7610(7) 0.4277(3)
H2 H -0.4567 0.6311 0.4645
C7 C -0.7481(4) 0.6352(7) 0.3119(3)
C8 C -0.8124(4) 1.0660(6) 0.2031(3)
C9 C -0.1389(4) 1.0956(7) 0.5237(3)
H3 H -0.0351 1.1363 0.5666
Mn1 Mn -0.07940(6) 0.71319(10) 0.66906(4)
N1 N -0.2425(4) 1.2180(6) 0.4450(2)
H4 H -0.2246 1.3432 0.4268
N2 N -0.1990(3) 0.9106(6) 0.5345(2)
O1 O -0.7335(3) 0.5024(5) 0.3758(2)
O2 O -0.8602(3) 0.6307(5) 0.22132(18)
O3 O -0.9192(3) 1.0800(5) 0.22293(18)
O4 O -0.8391(3) 1.0943(5) 0.12070(18)
Mn1B Mn -0.92060(6) 0.28681(10) 0.33094(4)
Mn1C Mn -1.07940(6) 0.78681(10) 0.16906(4)
Mn1B_2 Mn -0.92060(6) 1.28681(10) 0.33094(4)
O1B O -0.2665(3) 0.4976(5) 0.6242(2)
O2C O 0.1398(3) 0.8693(5) 0.72132(18)
O3C O 0.0808(3) 0.4200(5) 0.72293(18)
O3B O -0.0808(3) 0.9200(5) 0.77707(18)
loop_
_geom_bond_atom_site_label_1
_geom_bond_atom_site_label_2
_geom_bond_site_symmetry_1
_geom_bond_site_symmetry_2
C1 C2 1_555 1_555
C2 C3 1_555 1_555
C3 H1 1_555 1_555
C4 C3 1_555 1_555
C5 C4 1_555 1_555
C6 C1 1_555 1_555
H2 C6 1_555 1_555
C7 C1 1_555 1_555
C8 C2 1_555 1_555
C9 H3 1_555 1_555
Mn1 N2 1_555 1_555
N1 C4 1_555 1_555
H4 N1 1_555 1_555
N2 C5 1_555 1_555
O1 C7 1_555 1_555
O2 C7 1_555 1_555
O3 C8 1_555 1_555
O4 C8 1_555 1_555
Mn1B O1 1_555 1_555
Mn1C O2 1_555 1_555
Mn1B_2 O3 1_555 1_555
O1B Mn1 1_555 1_555
O2C Mn1 1_555 1_555
O3C Mn1 1_555 1_555
O3B Mn1 1_555 1_555
C5 C6 1_555 1_555
C9 N1 1_555 1_555
C9 N2 1_555 1_555
O3 Mn1C 1_555 1_555

#END
