
#######################################################################
#
#                 Cambridge Crystallographic Data Centre
#                                CCDC 
#
#######################################################################
#
# If this CIF has been generated from an entry in the Cambridge 
# Structural Database, then it will include bibliographic, chemical, 
# crystal, experimental, refinement or atomic coordinate data resulting 
# from the CCDC's data processing and validation procedures.
#
#######################################################################

data_OFIVAA01
_symmetry_cell_setting           orthorhombic
_symmetry_space_group_name_H-M   'I m m m'
_symmetry_Int_Tables_number      71
_space_group_name_Hall           '-I 2 2'
loop_
_symmetry_equiv_pos_site_id
_symmetry_equiv_pos_as_xyz
1 x,y,z
2 1/2+x,1/2+y,1/2+z
3 -x,-y,z
4 -x,y,-z
5 x,-y,-z
6 1/2-x,1/2-y,1/2+z
7 1/2-x,1/2+y,1/2-z
8 1/2+x,1/2-y,1/2-z
9 -x,-y,-z
10 1/2-x,1/2-y,1/2-z
11 x,y,-z
12 x,-y,z
13 -x,y,z
14 1/2+x,1/2+y,1/2-z
15 1/2+x,1/2-y,1/2+z
16 1/2-x,1/2+y,1/2+z
_cell_length_a                   7.4265(13)
_cell_length_b                   9.3477(16)
_cell_length_c                   16.793(3)
_cell_angle_alpha                90
_cell_angle_beta                 90
_cell_angle_gamma                90
_cell_volume                     1165.78
loop_
_atom_site_label
_atom_site_type_symbol
_atom_site_fract_x
_atom_site_fract_y
_atom_site_fract_z
V1 V 0.20621(14) 0.5000 0.24238(5)
P1 P 0.5000 0.26861(13) 0.17011(7)
O1 O 0.3271(4) 0.3522(3) 0.17987(16)
O2 O 0.3071(6) 0.5000 0.3258(2)
O3 O 0.5000 0.1390(4) 0.2297(2)
O4 O 0.0000 0.5000 0.1407(3)
C1 C 0.5000 0.1916(5) 0.0740(3)
H1 H 0.3929 0.1289 0.0704
H2 H 0.6071 0.1289 0.0704
C2 C 0.5000 0.2878(7) 0.0000
H3 H 0.3919 0.3497 0.0000
H4 H 0.6081 0.3497 0.0000
V1L V 0.79379(14) 0.5000 0.24238(5)
V1M V 0.70621(14) 0.0000 0.25762(5)
V1I V 0.29379(14) 0.0000 0.25762(5)
V1L_2 V -0.20621(14) 0.5000 0.24238(5)
V1J V 0.20621(14) 0.5000 -0.24238(5)
V1H V 0.79379(14) 0.5000 -0.24238(5)
V1A V 0.70621(14) 0.0000 -0.25762(5)
V1O V 0.29379(14) 0.0000 -0.25762(5)
P1J P 0.5000 0.26861(13) -0.17011(7)
O1L O 0.6729(4) 0.3522(3) 0.17987(16)
O1J O 0.3271(4) 0.3522(3) -0.17987(16)
O1C O 0.6729(4) 0.3522(3) -0.17987(16)
O1K O 0.3271(4) 0.6478(3) 0.17987(16)
O1B O 0.6729(4) 0.6478(3) 0.17987(16)
O2L O 0.6929(6) 0.5000 0.3258(2)
O3J O 0.5000 0.1390(4) -0.2297(2)
O3M O 0.0000 0.6390(4) 0.2703(2)
O3I O 0.0000 0.3610(4) 0.2703(2)
O3M_2 O 1.0000 0.6390(4) 0.2703(2)
O3I_2 O 1.0000 0.3610(4) 0.2703(2)
O4_2 O 1.0000 0.5000 0.1407(3)
C1J C 0.5000 0.1916(5) -0.0740(3)
H1J H 0.3929 0.1289 -0.0704
H1C H 0.6071 0.1289 -0.0704
O5 O 0.0000 0.2346(5) 0.0810(3)
loop_
_geom_bond_atom_site_label_1
_geom_bond_atom_site_label_2
_geom_bond_site_symmetry_1
_geom_bond_site_symmetry_2
V1 O1 1_555 1_555
P1 O1 1_555 1_555
O2 V1 1_555 1_555
O3 P1 1_555 1_555
O4 V1 1_555 1_555
C1 P1 1_555 1_555
H1 C1 1_555 1_555
H2 C1 1_555 1_555
C2 C1 1_555 1_555
H3 C2 1_555 1_555
H4 C2 1_555 1_555
V1L O1L 1_555 1_555
V1M O3 1_555 1_555
V1I O3 1_555 1_555
V1L_2 O4 1_555 1_555
V1J O1J 1_555 1_555
V1H O1C 1_555 1_555
V1A O3J 1_555 1_555
V1O O3J 1_555 1_555
P1J O1J 1_555 1_555
O1L P1 1_555 1_555
O1C P1J 1_555 1_555
O1K V1 1_555 1_555
O1B V1L 1_555 1_555
O2L V1L 1_555 1_555
O3J P1J 1_555 1_555
O3M V1 1_555 1_555
O3I V1 1_555 1_555
O3M_2 V1L 1_555 1_555
O3I_2 V1L 1_555 1_555
O4_2 V1L 1_555 1_555
C1J C2 1_555 1_555
H1J C1J 1_555 1_555
H1C C1J 1_555 1_555
V1L_2 O3M 1_555 1_555
V1L_2 O3I 1_555 1_555
P1J C1J 1_555 1_555

#END
