
#######################################################################
#
#                 Cambridge Crystallographic Data Centre
#                                CCDC 
#
#######################################################################
#
# If this CIF has been generated from an entry in the Cambridge 
# Structural Database, then it will include bibliographic, chemical, 
# crystal, experimental, refinement or atomic coordinate data resulting 
# from the CCDC's data processing and validation procedures.
#
#######################################################################

data_OFIVUV
_symmetry_cell_setting           monoclinic
_symmetry_space_group_name_H-M   'P 21/c'
_symmetry_Int_Tables_number      14
_space_group_name_Hall           '-P 2ybc'
loop_
_symmetry_equiv_pos_site_id
_symmetry_equiv_pos_as_xyz
1 x,y,z
2 -x,1/2+y,1/2-z
3 -x,-y,-z
4 x,1/2-y,1/2+z
_cell_length_a                   7.1552(14)
_cell_length_b                   26.541(5)
_cell_length_c                   11.625(4)
_cell_angle_alpha                90
_cell_angle_beta                 123.93(2)
_cell_angle_gamma                90
_cell_volume                     1831.74
loop_
_atom_site_label
_atom_site_type_symbol
_atom_site_fract_x
_atom_site_fract_y
_atom_site_fract_z
C1 C -0.1780(6) 0.94930(13) 0.2831(3)
C2 C -0.3814(6) 0.95276(13) 0.1354(4)
C3 C 0.6449(6) 0.84937(14) 0.7777(4)
C4 C 0.1123(6) 0.98723(13) 0.2404(4)
C5 C 0.1728(6) 0.93888(13) 0.5611(3)
C6 C 0.5413(6) 0.80159(15) 0.6987(4)
C7 C 0.1783(6) 0.91455(14) 0.7387(4)
H1 H 0.2269 0.9065 0.8292
C8 C 0.0464(6) 0.96229(14) 0.3288(4)
C9 C 0.2211(6) 0.95780(14) 0.4686(4)
H2 H 0.3671 0.9673 0.4995
C10 C -0.2252(6) 0.93165(15) 0.3765(4)
H3 H -0.3721 0.9241 0.3478
C11 C -0.0473(6) 0.92542(14) 0.5142(4)
C12 C 0.4028(7) 0.80667(15) 0.5562(4)
H4 H 0.3837 0.8378 0.5140
C13 C 0.2934(7) 0.76419(16) 0.4781(4)
C14 C 0.3231(7) 0.71712(16) 0.5396(5)
C15 C 0.4665(7) 0.71205(16) 0.6825(5)
H5 H 0.4896 0.6806 0.7234
C16 C 0.5741(7) 0.75365(16) 0.7632(4)
C17 C 0.7282(8) 0.7464(2) 0.9183(5)
C18 C 0.0945(8) 0.70721(17) 0.3211(5)
H6 H -0.0041 0.6926 0.2347
N1 N 0.1468(7) 0.75617(15) 0.3375(4)
N2 N 0.1942(6) 0.68133(14) 0.4374(4)
N3 N 0.3137(5) 0.93203(12) 0.7047(3)
N4 N -0.0374(5) 0.90937(13) 0.6300(3)
O1 O 0.6928(5) 0.88411(11) 0.7233(3)
O2 O 0.6680(5) 0.85698(10) 0.8918(3)
O3 O 0.3019(4) 1.00727(11) 0.2993(3)
O4 O -0.0204(4) 0.99051(11) 0.1094(3)
O5 O -0.5523(4) 0.97461(10) 0.1159(3)
O6 O -0.3786(4) 0.93011(11) 0.0420(3)
O7 O 1.0897(5) 0.90793(11) 1.0036(3)
Tb1 Tb 0.72693(3) 0.948181(6) 0.890359(16)
H7 H 0.101(10) 0.780(2) 0.282(6)
H8 H -0.132(8) 0.9017(18) 0.635(5)
O9 O 0.796(11) 0.7759(16) 1.017(4)
O10 O 0.794(9) 0.7034(8) 0.964(5)
O3B O 0.6981(4) 0.99273(11) 0.7007(3)
O4_2 O 0.9796(4) 0.99051(11) 1.1094(3)
O4B O 1.0204(4) 1.00949(11) 0.8906(3)
O5B O 0.5523(4) 1.02539(10) 0.8841(3)
O6_2 O 0.6214(4) 0.93011(11) 1.0420(3)
Tb1B Tb 0.27307(3) 1.051819(6) 0.109641(16)
Tb1_2 Tb -0.27307(3) 0.948181(6) -0.109641(16)
Tb1B_2 Tb -0.72693(3) 1.051819(6) 0.109641(16)
O8 O 0.9869(11) 0.8436(2) 0.1873(5)
loop_
_geom_bond_atom_site_label_1
_geom_bond_atom_site_label_2
_geom_bond_site_symmetry_1
_geom_bond_site_symmetry_2
C1 C2 1_555 1_555
C2 O5 1_555 1_555
C3 C6 1_555 1_555
C4 C8 1_555 1_555
C5 C9 1_555 1_555
C6 C12 1_555 1_555
C7 H1 1_555 1_555
C8 C1 1_555 1_555
C9 C8 1_555 1_555
H2 C9 1_555 1_555
C10 C1 1_555 1_555
H3 C10 1_555 1_555
C11 C5 1_555 1_555
C12 H4 1_555 1_555
C13 C12 1_555 1_555
C14 C13 1_555 1_555
C15 C14 1_555 1_555
H5 C15 1_555 1_555
C16 C6 1_555 1_555
C17 C16 1_555 1_555
C18 H6 1_555 1_555
N1 C13 1_555 1_555
N2 C14 1_555 1_555
N3 C5 1_555 1_555
N4 C7 1_555 1_555
O1 C3 1_555 1_555
O2 C3 1_555 1_555
O3 C4 1_555 1_555
O4 C4 1_555 1_555
O5 Tb1B_2 1_555 1_555
O6 C2 1_555 1_555
O7 Tb1 1_555 1_555
Tb1 N3 1_555 1_555
H7 N1 1_555 1_555
H8 N4 1_555 1_555
O9 C17 1_555 1_555
O10 C17 1_555 1_555
O3B Tb1 1_555 1_555
O4_2 Tb1 1_555 1_555
O4B Tb1 1_555 1_555
O5B Tb1 1_555 1_555
O6_2 Tb1 1_555 1_555
Tb1B O3 1_555 1_555
Tb1_2 O4 1_555 1_555
C7 N3 1_555 1_555
C10 C11 1_555 1_555
C11 N4 1_555 1_555
C15 C16 1_555 1_555
C18 N1 1_555 1_555
C18 N2 1_555 1_555
O1 Tb1 1_555 1_555
O2 Tb1 1_555 1_555
O4 Tb1B 1_555 1_555
O6 Tb1_2 1_555 1_555

#END
