
#######################################################################
#
#                 Cambridge Crystallographic Data Centre
#                                CCDC 
#
#######################################################################
#
# If this CIF has been generated from an entry in the Cambridge 
# Structural Database, then it will include bibliographic, chemical, 
# crystal, experimental, refinement or atomic coordinate data resulting 
# from the CCDC's data processing and validation procedures.
#
#######################################################################

data_OFIVAB
_symmetry_cell_setting           monoclinic
_symmetry_space_group_name_H-M   'P 21/c'
_symmetry_Int_Tables_number      14
_space_group_name_Hall           '-P 2ybc'
loop_
_symmetry_equiv_pos_site_id
_symmetry_equiv_pos_as_xyz
1 x,y,z
2 -x,1/2+y,1/2-z
3 -x,-y,-z
4 x,1/2-y,1/2+z
_cell_length_a                   18.6818(16)
_cell_length_b                   12.6689(11)
_cell_length_c                   15.4333(13)
_cell_angle_alpha                90
_cell_angle_beta                 108.4110(10)
_cell_angle_gamma                90
_cell_volume                     3465.76
loop_
_atom_site_label
_atom_site_type_symbol
_atom_site_fract_x
_atom_site_fract_y
_atom_site_fract_z
C1 C 0.6980(2) 0.9739(3) 0.3341(2)
C2 C 0.6883(2) 0.8837(3) 0.3832(2)
C3 C 0.7458(2) 0.8111(3) 0.4141(2)
H1 H 0.7402 0.7521 0.4472
C4 C 0.8123(2) 0.8292(3) 0.3940(2)
C5 C 0.82260(19) 0.9180(3) 0.3463(2)
C6 C 0.7646(2) 0.9918(3) 0.3154(3)
H2 H 0.7706 1.0513 0.2831
C7 C 0.9227(2) 0.8244(3) 0.3730(2)
H3 H 0.9701 0.8002 0.3748
C8 C 0.61297(19) 0.8572(3) 0.3948(2)
C9 C 0.6363(2) 1.0555(3) 0.3024(3)
C10 C 0.7747(2) 0.9292(3) 0.0846(2)
H4 H 0.7751 0.9928 0.0547
C11 C 0.83759(19) 0.8662(3) 0.1120(2)
C12 C 0.8366(2) 0.7678(3) 0.1553(2)
C13 C 0.7714(2) 0.7338(3) 0.1719(3)
H5 H 0.7696 0.6686 0.1988
C14 C 0.70918(19) 0.7998(3) 0.1473(2)
C15 C 0.71083(19) 0.8951(3) 0.1029(2)
C16 C 0.6015(2) 0.8816(3) 0.1271(3)
H6 H 0.5535 0.8975 0.1292
C17 C 0.9047(2) 0.6985(3) 0.1828(3)
C18 C 0.90934(19) 0.9109(3) 0.0979(2)
C19 C 0.18895(19) 0.8668(3) 0.3856(2)
C20 C 0.19419(19) 0.7826(3) 0.3286(2)
C21 C 0.2595(2) 0.7677(3) 0.3051(3)
H7 H 0.2627 0.7121 0.2671
C22 C 0.3199(2) 0.8363(3) 0.3386(3)
C23 C 0.3124(2) 0.9205(3) 0.3933(3)
C24 C 0.2481(2) 0.9376(3) 0.4179(3)
H8 H 0.2447 0.9944 0.4546
C25 C 0.4229(2) 0.9250(3) 0.3719(3)
H9 H 0.4709 0.9480 0.3749
C26 C 0.1194(2) 0.8858(3) 0.4139(3)
C27 C 0.1319(2) 0.7045(3) 0.2932(3)
C28 C 0.33743(19) 0.9001(3) 0.1072(2)
C29 C 0.34042(19) 0.9947(3) 0.1579(2)
C30 C 0.2764(2) 1.0305(3) 0.1767(3)
H10 H 0.2774 1.0926 0.2091
C31 C 0.2114(2) 0.9704(3) 0.1457(2)
C32 C 0.2095(2) 0.8793(3) 0.0945(3)
C33 C 0.2720(2) 0.8424(3) 0.0745(3)
H11 H 0.2699 0.7813 0.0404
C34 C 0.0980(2) 0.9023(4) 0.1117(3)
H12 H 0.0477 0.8918 0.1077
C35 C 0.4116(2) 1.0569(3) 0.1926(3)
C36 C 0.40537(19) 0.8570(3) 0.0861(2)
Er1 Er 0.471854(8) 0.703369(12) 0.275955(11)
Er2 Er 0.976000(8) 1.055370(12) 0.291050(11)
N1 N 0.64143(16) 0.9425(2) 0.0908(2)
H13 H 0.6269 1.0018 0.0640
N2 N 0.63910(17) 0.7953(3) 0.1601(2)
H14 H 0.6229 0.7442 0.1855
N3 N 0.87726(16) 0.7705(2) 0.4096(2)
H15 H 0.8869 0.7108 0.4375
N4 N 0.89453(16) 0.9140(2) 0.3345(2)
N5 N 0.37932(17) 0.9758(3) 0.4129(2)
H16 H 0.3909 1.0322 0.4453
N6 N 0.39145(16) 0.8396(2) 0.3269(2)
N7 N 0.13715(18) 0.8404(3) 0.0737(2)
H17 H 0.1201 0.7851 0.0415
N8 N 0.14039(17) 0.9805(3) 0.1557(2)
H18 H 0.1265 1.0295 0.1856
O1 O 0.60891(15) 0.8508(2) 0.47425(17)
O2 O 0.55978(14) 0.83616(19) 0.32250(17)
O3 O 0.58988(15) 1.0708(2) 0.34407(18)
O4 O 0.63393(14) 1.1090(2) 0.23156(19)
O5 O 0.95387(14) 0.9593(2) 0.16537(17)
O6 O 0.91810(14) 0.9033(2) 0.02246(17)
O7 O 0.90877(14) 0.6219(2) 0.23704(18)
O8 O 0.95697(15) 0.7158(2) 0.15077(19)
O9 O 0.13133(15) 0.6500(2) 0.2241(2)
O10 O 0.08137(16) 0.6927(2) 0.3294(2)
O11 O 0.12097(16) 0.8519(2) 0.49074(19)
O12 O 0.06642(14) 0.9375(2) 0.36132(19)
O13 O 0.44825(14) 0.79498(19) 0.14371(17)
O14 O 0.41293(15) 0.8794(2) 0.01085(17)
O15 O 0.46831(14) 1.0310(2) 0.17195(18)
O16 O 0.41269(14) 1.1384(2) 0.24198(19)
O17 O 0.50829(15) 0.6954(2) 0.43362(17)
H19 H 0.4774 0.6750 0.4601
H20 H 0.5461 0.7337 0.4604
O18 O 0.98261(15) 1.0840(2) 0.44359(18)
H21 H 0.9488 1.1074 0.4645
H22 H 1.0202 1.1216 0.4439
Er1A Er 0.528146(8) 1.203369(12) 0.224045(11)
Er2A Er 1.024000(8) 0.555370(12) 0.208950(11)
Er2A_2 Er 0.024000(8) 0.555370(12) 0.208950(11)
Er2_2 Er -0.024000(8) 1.055370(12) 0.291050(11)
O3A O 0.41012(15) 0.5708(2) 0.15593(18)
O4A O 0.36607(14) 0.6090(2) 0.26844(19)
O7A O 1.09123(14) 1.1219(2) 0.26296(18)
O8A O 1.04303(15) 1.2158(2) 0.34923(19)
O9A O 0.86867(15) 1.1500(2) 0.2759(2)
O10A O 0.91863(16) 1.1927(2) 0.1706(2)
O12_2 O 1.06642(14) 0.9375(2) 0.36132(19)
O15A O 0.53169(14) 0.5310(2) 0.32805(18)
O16A O 0.58731(14) 0.6384(2) 0.25802(19)
loop_
_geom_bond_atom_site_label_1
_geom_bond_atom_site_label_2
_geom_bond_site_symmetry_1
_geom_bond_site_symmetry_2
C1 C2 1_555 1_555
C2 C3 1_555 1_555
C3 H1 1_555 1_555
C4 C3 1_555 1_555
C5 C4 1_555 1_555
C6 C1 1_555 1_555
H2 C6 1_555 1_555
C7 H3 1_555 1_555
C8 C2 1_555 1_555
C9 C1 1_555 1_555
C10 H4 1_555 1_555
C11 C10 1_555 1_555
C12 C11 1_555 1_555
C13 C12 1_555 1_555
H5 C13 1_555 1_555
C14 C13 1_555 1_555
C15 C10 1_555 1_555
C16 H6 1_555 1_555
C17 C12 1_555 1_555
C18 C11 1_555 1_555
C19 C20 1_555 1_555
C20 C21 1_555 1_555
C21 H7 1_555 1_555
C22 C21 1_555 1_555
C23 C22 1_555 1_555
C24 C19 1_555 1_555
H8 C24 1_555 1_555
C25 H9 1_555 1_555
C26 C19 1_555 1_555
C27 C20 1_555 1_555
C28 C29 1_555 1_555
C29 C30 1_555 1_555
C30 H10 1_555 1_555
C31 C30 1_555 1_555
C32 C31 1_555 1_555
C33 C28 1_555 1_555
H11 C33 1_555 1_555
C34 H12 1_555 1_555
C35 C29 1_555 1_555
C36 C28 1_555 1_555
Er1 N6 1_555 1_555
Er2 N4 1_555 1_555
N1 C15 1_555 1_555
H13 N1 1_555 1_555
N2 C14 1_555 1_555
H14 N2 1_555 1_555
N3 C4 1_555 1_555
H15 N3 1_555 1_555
N4 C5 1_555 1_555
N5 C23 1_555 1_555
H16 N5 1_555 1_555
N6 C22 1_555 1_555
N7 C32 1_555 1_555
H17 N7 1_555 1_555
N8 C31 1_555 1_555
H18 N8 1_555 1_555
O1 C8 1_555 1_555
O2 C8 1_555 1_555
O3 C9 1_555 1_555
O4 C9 1_555 1_555
O5 C18 1_555 1_555
O6 C18 1_555 1_555
O7 C17 1_555 1_555
O8 C17 1_555 1_555
O9 C27 1_555 1_555
O10 C27 1_555 1_555
O11 C26 1_555 1_555
O12 C26 1_555 1_555
O13 C36 1_555 1_555
O14 C36 1_555 1_555
O15 C35 1_555 1_555
O16 C35 1_555 1_555
O17 Er1 1_555 1_555
H19 O17 1_555 1_555
H20 O17 1_555 1_555
O18 Er2 1_555 1_555
H21 O18 1_555 1_555
H22 O18 1_555 1_555
Er1A O3 1_555 1_555
Er2A O7 1_555 1_555
Er2A_2 O9 1_555 1_555
Er2_2 O12 1_555 1_555
O3A Er1 1_555 1_555
O4A Er1 1_555 1_555
O7A Er2 1_555 1_555
O8A Er2 1_555 1_555
O9A Er2 1_555 1_555
O10A Er2 1_555 1_555
O12_2 Er2 1_555 1_555
O15A Er1 1_555 1_555
O16A Er1 1_555 1_555
C5 C6 1_555 1_555
C7 N3 1_555 1_555
C7 N4 1_555 1_555
C14 C15 1_555 1_555
C16 N1 1_555 1_555
C16 N2 1_555 1_555
C23 C24 1_555 1_555
C25 N5 1_555 1_555
C25 N6 1_555 1_555
C32 C33 1_555 1_555
C34 N7 1_555 1_555
C34 N8 1_555 1_555
Er1 O2 1_555 1_555
Er1 O13 1_555 1_555
Er2 O5 1_555 1_555
O4 Er1A 1_555 1_555
O8 Er2A 1_555 1_555
O10 Er2A_2 1_555 1_555
O15 Er1A 1_555 1_555
O16 Er1A 1_555 1_555

#END
