
#######################################################################
#
#                 Cambridge Crystallographic Data Centre
#                                CCDC 
#
#######################################################################
#
# If this CIF has been generated from an entry in the Cambridge 
# Structural Database, then it will include bibliographic, chemical, 
# crystal, experimental, refinement or atomic coordinate data resulting 
# from the CCDC's data processing and validation procedures.
#
#######################################################################

data_OFIVOQ01
_symmetry_cell_setting           orthorhombic
_symmetry_space_group_name_H-M   'P 21 21 21'
_symmetry_Int_Tables_number      19
_space_group_name_Hall           'P 2ac 2ab'
loop_
_symmetry_equiv_pos_site_id
_symmetry_equiv_pos_as_xyz
1 x,y,z
2 1/2-x,-y,1/2+z
3 -x,1/2+y,1/2-z
4 1/2+x,1/2-y,-z
_cell_length_a                   8.5662(4)
_cell_length_b                   17.9692(8)
_cell_length_c                   30.9785(15)
_cell_angle_alpha                90
_cell_angle_beta                 90
_cell_angle_gamma                90
_cell_volume                     4768.45
loop_
_atom_site_label
_atom_site_type_symbol
_atom_site_fract_x
_atom_site_fract_y
_atom_site_fract_z
Zn1 Zn 1.04234(13) 1.68996(6) -0.18554(4)
N1 N 1.1659(9) 1.7242(4) -0.2412(3)
N2 N 1.5033(8) 1.8738(3) -0.3362(2)
N3 N 1.8329(9) 2.0955(4) -0.3371(3)
C1 C 1.1524(11) 1.6895(5) -0.2810(3)
H1 H 1.0867 1.6476 -0.2855
C2 C 1.2394(9) 1.7196(4) -0.3128(3)
H2 H 1.2318 1.6971 -0.3405
C3 C 1.3393(10) 1.7805(5) -0.3090(3)
C4 C 1.3485(10) 1.8128(5) -0.2688(3)
H3 H 1.4114 1.8557 -0.2644
C5 C 1.2680(13) 1.7833(5) -0.2355(3)
H4 H 1.2816 1.8036 -0.2074
C6 C 1.4258(8) 1.8180(6) -0.3448(3)
C7 C 1.4284(10) 1.7760(5) -0.3887(3)
H5 H 1.3724 1.7308 -0.3925
C8 C 1.5102(10) 1.8047(5) -0.4202(3)
C9 C 1.5938(9) 1.8717(4) -0.4118(3)
H6 H 1.6546 1.8946 -0.4338
C10 C 1.5844(9) 1.9024(5) -0.3713(3)
C11 C 1.7589(11) 2.0511(5) -0.3045(3)
H7 H 1.7656 2.0660 -0.2751
C12 C 1.6834(10) 1.9914(4) -0.3144(3)
H8 H 1.6388 1.9617 -0.2922
C13 C 1.6667(10) 1.9700(5) -0.3576(3)
C14 C 1.7471(11) 2.0178(5) -0.3892(4)
H9 H 1.7431 2.0042 -0.4188
C15 C 1.8218(11) 2.0767(6) -0.3788(3)
H10 H 1.8688 2.1068 -0.4004
C16 C 1.5204(12) 1.7699(6) -0.4619(4)
C17 C 1.4728(14) 1.6934(5) -0.4687(3)
H11 H 1.4279 1.6676 -0.4450
C18 C 1.4883(13) 1.6544(7) -0.5079(4)
H12 H 1.4636 1.6029 -0.5092
C19 C 1.5371(15) 1.6896(7) -0.5427(3)
C20 C 1.5829(15) 1.7676(6) -0.5365(3)
H13 H 1.6234 1.7930 -0.5609
C21 C 1.5730(13) 1.8054(7) -0.5004(3)
H14 H 1.6011 1.8566 -0.4999
C22 C 1.5661(12) 1.6474(6) -0.5802(4)
C23 C 1.6515(13) 1.5861(5) -0.5801(3)
C24 C 1.7451(14) 1.5593(5) -0.5470(4)
H15 H 1.7579 1.5903 -0.5225
C25 C 1.8172(17) 1.4952(8) -0.5466(4)
H16 H 1.8495 1.4757 -0.5195
C26 C 1.8500(13) 1.4531(6) -0.5841(4)
H17 H 1.9182 1.4115 -0.5855
C27 C 1.7697(13) 1.4813(6) -0.6173(5)
H18 H 1.7821 1.4539 -0.6433
C28 C 1.6761(13) 1.5397(6) -0.6213(4)
C29 C 1.5991(14) 1.5678(6) -0.6627(4)
H19 H 1.6146 1.5434 -0.6896
C30 C 1.5037(11) 1.6316(5) -0.6592(3)
C31 C 1.4266(12) 1.6496(6) -0.6940(4)
H20 H 1.4338 1.6167 -0.7179
C32 C 1.3420(13) 1.7079(6) -0.6986(4)
H21 H 1.3006 1.7220 -0.7259
C33 C 1.3156(14) 1.7474(7) -0.6633(4)
H22 H 1.2431 1.7873 -0.6651
C34 C 1.3886(12) 1.7340(5) -0.6230(3)
H23 H 1.3700 1.7652 -0.5988
C35 C 1.4905(11) 1.6721(5) -0.6203(4)
O1 O 1.127(2) 1.7803(10) -0.1368(6)
O2 O 0.9548(16) 1.7194(6) -0.0976(4)
C36 C 1.041(2) 1.7784(9) -0.1065(8)
C37 C 0.946(3) 1.8448(10) -0.0944(7)
H24 H 0.9960 1.8704 -0.0701
H25 H 0.8412 1.8289 -0.0861
H26 H 0.9397 1.8788 -0.1191
O3 O 0.8191(7) 1.6755(5) -0.2008(2)
O4 O 0.8797(9) 1.5845(4) -0.2464(3)
C38 C 0.7836(15) 1.6327(8) -0.2311(5)
C39 C 0.6133(14) 1.6086(10) -0.2401(5)
H27 H 0.5452 1.6280 -0.2173
H28 H 0.6071 1.5542 -0.2406
H29 H 0.5797 1.6285 -0.2680
Zn1B Zn 1.95766(13) 2.18996(6) -0.31446(4)
N3B N 1.1671(9) 1.5955(4) -0.1629(3)
O5 O 1.980(4) 1.2677(11) -0.6354(5)
O6 O 1.2490(16) 1.5788(7) -0.4012(6)
O7 O 0.785(2) 1.5175(11) -0.3060(7)
O8 O 1.8685(19) 1.1653(10) -0.6803(6)
O9 O 1.902(6) 2.009(3) -0.5013(15)
O10 O 2.028(4) 1.9712(17) -0.1990(9)
O11? O 1.0661(19) 1.7787(8) -0.1526(4)
O12? O 0.930(2) 1.7424(8) -0.1106(6)
C40? C 1.015(2) 1.8008(10) -0.1192(5)
C41? C 1.079(3) 1.8539(13) -0.0850(8)
H30? H 1.0592 1.8332 -0.0562
H31? H 1.0267 1.9022 -0.0876
H32? H 1.1914 1.8603 -0.0892
O13? O 1.705(3) 1.9312(14) -0.2138(7)
O14? O 0.962(3) 1.5486(13) -0.3924(6)
O15? O 1.743(3) 2.0025(13) -0.5028(6)
O16? O 2.081(5) 2.059(2) -0.5072(14)
O17? O 2.010(3) 2.0881(15) -0.4872(8)
loop_
_geom_bond_atom_site_label_1
_geom_bond_atom_site_label_2
_geom_bond_site_symmetry_1
_geom_bond_site_symmetry_2
Zn1 N1 1_555 1_555
N1 C1 1_555 1_555
N2 C6 1_555 1_555
N3 C11 1_555 1_555
C1 H1 1_555 1_555
C2 C1 1_555 1_555
H2 C2 1_555 1_555
C3 C2 1_555 1_555
C4 C3 1_555 1_555
H3 C4 1_555 1_555
C5 N1 1_555 1_555
H4 C5 1_555 1_555
C6 C3 1_555 1_555
C7 C6 1_555 1_555
H5 C7 1_555 1_555
C8 C7 1_555 1_555
C9 C8 1_555 1_555
H6 C9 1_555 1_555
C10 N2 1_555 1_555
C11 H7 1_555 1_555
C12 C11 1_555 1_555
H8 C12 1_555 1_555
C13 C10 1_555 1_555
C14 C13 1_555 1_555
H9 C14 1_555 1_555
C15 N3 1_555 1_555
H10 C15 1_555 1_555
C16 C8 1_555 1_555
C17 C16 1_555 1_555
H11 C17 1_555 1_555
C18 C17 1_555 1_555
H12 C18 1_555 1_555
C19 C18 1_555 1_555
C20 C19 1_555 1_555
H13 C20 1_555 1_555
C21 C16 1_555 1_555
H14 C21 1_555 1_555
C22 C19 1_555 1_555
C23 C22 1_555 1_555
C24 C23 1_555 1_555
H15 C24 1_555 1_555
C25 C24 1_555 1_555
H16 C25 1_555 1_555
C26 C25 1_555 1_555
H17 C26 1_555 1_555
C27 C26 1_555 1_555
H18 C27 1_555 1_555
C28 C23 1_555 1_555
C29 C28 1_555 1_555
H19 C29 1_555 1_555
C30 C29 1_555 1_555
C31 C30 1_555 1_555
H20 C31 1_555 1_555
C32 C31 1_555 1_555
H21 C32 1_555 1_555
C33 C32 1_555 1_555
H22 C33 1_555 1_555
C34 C33 1_555 1_555
H23 C34 1_555 1_555
C35 C22 1_555 1_555
O1 Zn1 1_555 1_555
O2 C36 1_555 1_555
C36 O1 1_555 1_555
C37 C36 1_555 1_555
H24 C37 1_555 1_555
H25 C37 1_555 1_555
H26 C37 1_555 1_555
O3 Zn1 1_555 1_555
O4 C38 1_555 1_555
C38 O3 1_555 1_555
C39 C38 1_555 1_555
H27 C39 1_555 1_555
H28 C39 1_555 1_555
H29 C39 1_555 1_555
Zn1B N3 1_555 1_555
N3B Zn1 1_555 1_555
C4 C5 1_555 1_555
C9 C10 1_555 1_555
C12 C13 1_555 1_555
C14 C15 1_555 1_555
C20 C21 1_555 1_555
C27 C28 1_555 1_555
C30 C35 1_555 1_555
C34 C35 1_555 1_555

#END
