
#######################################################################
#
#                 Cambridge Crystallographic Data Centre
#                                CCDC 
#
#######################################################################
#
# If this CIF has been generated from an entry in the Cambridge 
# Structural Database, then it will include bibliographic, chemical, 
# crystal, experimental, refinement or atomic coordinate data resulting 
# from the CCDC's data processing and validation procedures.
#
#######################################################################

data_OFIVOP
_symmetry_cell_setting           monoclinic
_symmetry_space_group_name_H-M   'P 21/c'
_symmetry_Int_Tables_number      14
_space_group_name_Hall           '-P 2ybc'
loop_
_symmetry_equiv_pos_site_id
_symmetry_equiv_pos_as_xyz
1 x,y,z
2 -x,1/2+y,1/2-z
3 -x,-y,-z
4 x,1/2-y,1/2+z
_cell_length_a                   18.608(4)
_cell_length_b                   12.621(3)
_cell_length_c                   15.378(3)
_cell_angle_alpha                90
_cell_angle_beta                 108.63(3)
_cell_angle_gamma                90
_cell_volume                     3422.31
loop_
_atom_site_label
_atom_site_type_symbol
_atom_site_fract_x
_atom_site_fract_y
_atom_site_fract_z
C1 C 1.9020(3) 0.3994(6) 0.3871(5)
H1 H 1.9522 0.3882 0.3902
C2 C 1.1899(3) 0.8684(4) 0.3860(3)
C3 C 1.2483(3) 0.9388(4) 0.4177(4)
H2 H 1.2450 0.9960 0.4544
C4 C 1.6621(3) 0.3982(4) 0.3919(3)
C5 C 1.2913(3) 1.3001(4) 0.3534(4)
C6 C 1.7912(3) 0.3776(4) 0.4049(4)
C7 C 1.7240(3) 0.5295(4) 0.3238(4)
H3 H 1.7231 0.5924 0.2919
C8 C 1.7891(3) 0.4699(4) 0.3541(4)
C9 C 1.3128(3) 0.9213(4) 0.3924(4)
C10 C 1.2903(3) 1.3963(4) 0.3974(3)
C11 C 1.1943(3) 0.7827(4) 0.3300(4)
C12 C 1.3994(3) 1.3833(5) 0.3734(4)
H4 H 1.4477 1.3999 0.3719
C13 C 1.4239(3) 0.9239(4) 0.3708(4)
H5 H 1.4722 0.9465 0.3736
C14 C 0.6364(3) 1.0559(4) 0.3027(4)
C15 C 1.0912(3) 1.4117(4) 0.4013(3)
C16 C 0.6133(3) 0.8557(4) 0.3949(3)
C17 C 1.5887(3) 0.5568(4) 0.3085(4)
C18 C 1.0949(3) 1.1983(4) 0.3170(4)
C19 C 0.8234(3) 0.9187(4) 0.3462(3)
C20 C 0.7646(3) 0.9933(4) 0.3158(4)
H6 H 0.7706 1.0535 0.2839
C21 C 1.3207(3) 0.8354(4) 0.3388(3)
C22 C 1.1192(3) 0.8886(4) 0.4137(4)
C23 C 0.8128(3) 0.8291(4) 0.3936(3)
C24 C 0.9241(3) 0.8248(4) 0.3723(4)
H7 H 0.9715 0.8001 0.3734
C25 C 1.5940(3) 0.3534(4) 0.4122(3)
C26 C 1.2251(3) 1.4316(4) 0.4156(4)
H8 H 1.2248 1.4956 0.4456
C27 C 0.6883(3) 0.8836(4) 0.3829(3)
C28 C 0.6977(3) 0.9754(4) 0.3343(3)
C29 C 0.7465(3) 0.8105(4) 0.4141(3)
H9 H 0.7413 0.7513 0.4476
C30 C 1.1610(3) 1.3680(4) 0.3874(3)
C31 C 1.1311(3) 0.7043(4) 0.2943(4)
C32 C 1.2595(3) 0.7664(4) 0.3057(4)
H10 H 1.2621 0.7101 0.2678
C33 C 1.6593(3) 0.4934(4) 0.3419(3)
C34 C 1.1632(3) 1.2681(4) 0.3447(3)
C35 C 1.2290(3) 1.2335(4) 0.3284(4)
H11 H 1.2309 1.1680 0.3016
C36 C 1.7280(3) 0.3393(4) 0.4247(4)
H12 H 1.7300 0.2775 0.4582
Lu1 Lu 0.976247(11) 1.055541(16) 0.291194(14)
Lu2 Lu 1.472260(11) 0.703040(16) 0.276880(14)
N1 N 1.8634(3) 0.3380(5) 0.4249(4)
H13 H 1.8805 0.2822 0.4569
N2 N 1.8598(2) 0.4790(4) 0.3440(3)
H14 H 1.8740 0.5284 0.3146
N3 N 1.3928(2) 0.8390(4) 0.3269(3)
N4 N 1.3806(3) 0.9766(4) 0.4119(3)
H15 H 1.3927 1.0335 0.4441
N5 N 0.8789(2) 0.7701(4) 0.4094(3)
H16 H 0.8889 0.7103 0.4375
N6 N 0.8961(2) 0.9155(4) 0.3343(3)
N7 N 1.3585(2) 1.4438(4) 0.4090(3)
H17 H 1.3725 1.5038 0.4354
N8 N 1.3619(3) 1.2951(4) 0.3398(3)
O1 O 1.5867(2) 0.6389(3) 0.2591(3)
O2 O 1.5311(2) 0.5311(3) 0.3284(3)
O3 O 1.1214(3) 0.8565(4) 0.4911(3)
O4 O 1.0657(2) 0.9390(3) 0.3597(3)
O5 O 1.0422(2) 1.2154(3) 0.3484(3)
O6 O 1.0910(2) 1.1209(3) 0.2630(3)
O7 O 1.0807(3) 0.6932(3) 0.3306(3)
O8 O 1.1308(2) 0.6479(4) 0.2259(3)
O9 O 1.0454(2) 1.4614(3) 0.3332(3)
O10 O 1.0818(2) 1.4043(3) 0.4772(2)
O11 O 0.5895(2) 1.0705(3) 0.3442(3)
O12 O 0.6333(2) 1.1104(3) 0.2315(3)
O13 O 0.6092(2) 0.8499(3) 0.4744(3)
O14 O 0.5594(2) 0.8350(3) 0.3225(2)
O15 O 1.5510(2) 0.2928(3) 0.3540(3)
O16 O 1.5083(2) 0.6953(3) 0.4331(3)
O17 O 0.9838(3) 1.0854(4) 0.4423(3)
O18 O 1.5870(2) 0.3771(3) 0.4882(3)
Lu1A Lu 1.023753(11) 0.555541(16) 0.208806(14)
Lu1A_2 Lu 1.023753(11) 1.555541(16) 0.208806(14)
Lu2A Lu 0.527740(11) 1.203040(16) 0.223120(14)
Lu2_2 Lu 0.472260(11) 0.703040(16) 0.276880(14)
Lu2A_2 Lu 1.527740(11) 0.203040(16) 0.223120(14)
O7A O 0.9193(3) 1.1932(3) 0.1694(3)
O8A O 0.8692(2) 1.1479(4) 0.2741(3)
O9A O 0.9546(2) 0.9614(3) 0.1668(3)
O11A O 1.4105(2) 0.5705(3) 0.1558(3)
O12A O 1.3667(2) 0.6104(3) 0.2685(3)
O14_2 O 1.5594(2) 0.8350(3) 0.3225(2)
O15A O 1.4490(2) 0.7928(3) 0.1460(3)
loop_
_geom_bond_atom_site_label_1
_geom_bond_atom_site_label_2
_geom_bond_site_symmetry_1
_geom_bond_site_symmetry_2
C1 H1 1_555 1_555
C2 C3 1_555 1_555
C3 H2 1_555 1_555
C4 C25 1_555 1_555
C5 C10 1_555 1_555
C6 C8 1_555 1_555
C7 H3 1_555 1_555
C8 C7 1_555 1_555
C9 C3 1_555 1_555
C10 C26 1_555 1_555
C11 C2 1_555 1_555
C12 H4 1_555 1_555
C13 H5 1_555 1_555
C14 C28 1_555 1_555
C15 C30 1_555 1_555
C16 C27 1_555 1_555
C17 C33 1_555 1_555
C18 C34 1_555 1_555
C19 C20 1_555 1_555
C20 H6 1_555 1_555
C21 C9 1_555 1_555
C22 C2 1_555 1_555
C23 C19 1_555 1_555
C24 H7 1_555 1_555
C25 O15 1_555 1_555
C26 H8 1_555 1_555
C27 C28 1_555 1_555
C28 C20 1_555 1_555
C29 C23 1_555 1_555
H9 C29 1_555 1_555
C30 C26 1_555 1_555
C31 C11 1_555 1_555
C32 C11 1_555 1_555
H10 C32 1_555 1_555
C33 C4 1_555 1_555
C34 C30 1_555 1_555
C35 C5 1_555 1_555
H11 C35 1_555 1_555
C36 C4 1_555 1_555
H12 C36 1_555 1_555
Lu1 N6 1_555 1_555
Lu2 N3 1_555 1_555
N1 C1 1_555 1_555
H13 N1 1_555 1_555
N2 C1 1_555 1_555
H14 N2 1_555 1_555
N3 C13 1_555 1_555
N4 C9 1_555 1_555
H15 N4 1_555 1_555
N5 C23 1_555 1_555
H16 N5 1_555 1_555
N6 C19 1_555 1_555
N7 C10 1_555 1_555
H17 N7 1_555 1_555
N8 C5 1_555 1_555
O1 C17 1_555 1_555
O2 C17 1_555 1_555
O3 C22 1_555 1_555
O4 C22 1_555 1_555
O5 C18 1_555 1_555
O6 C18 1_555 1_555
O7 C31 1_555 1_555
O8 C31 1_555 1_555
O9 C15 1_555 1_555
O10 C15 1_555 1_555
O11 C14 1_555 1_555
O12 C14 1_555 1_555
O13 C16 1_555 1_555
O14 C16 1_555 1_555
O15 Lu2A_2 1_555 1_555
O16 Lu2 1_555 1_555
O17 Lu1 1_555 1_555
O18 C25 1_555 1_555
Lu1A O7 1_555 1_555
Lu1A_2 O9 1_555 1_555
Lu2A O11 1_555 1_555
Lu2_2 O14 1_555 1_555
O7A Lu1 1_555 1_555
O8A Lu1 1_555 1_555
O9A Lu1 1_555 1_555
O11A Lu2 1_555 1_555
O12A Lu2 1_555 1_555
O14_2 Lu2 1_555 1_555
O15A Lu2 1_555 1_555
C6 C36 1_555 1_555
C6 N1 1_555 1_555
C7 C33 1_555 1_555
C8 N2 1_555 1_555
C12 N7 1_555 1_555
C12 N8 1_555 1_555
C13 N4 1_555 1_555
C21 C32 1_555 1_555
C21 N3 1_555 1_555
C24 N5 1_555 1_555
C24 N6 1_555 1_555
C27 C29 1_555 1_555
C34 C35 1_555 1_555
Lu1 O4 1_555 1_555
Lu1 O5 1_555 1_555
Lu1 O6 1_555 1_555
Lu2 O1 1_555 1_555
Lu2 O2 1_555 1_555
O8 Lu1A 1_555 1_555
O12 Lu2A 1_555 1_555

#END
