
#######################################################################
#
#                 Cambridge Crystallographic Data Centre
#                                CCDC 
#
#######################################################################
#
# If this CIF has been generated from an entry in the Cambridge 
# Structural Database, then it will include bibliographic, chemical, 
# crystal, experimental, refinement or atomic coordinate data resulting 
# from the CCDC's data processing and validation procedures.
#
#######################################################################

data_OFIVIK
_symmetry_cell_setting           triclinic
_symmetry_space_group_name_H-M   'P -1'
_symmetry_Int_Tables_number      2
_space_group_name_Hall           '-P 1'
loop_
_symmetry_equiv_pos_site_id
_symmetry_equiv_pos_as_xyz
1 x,y,z
2 -x,-y,-z
_cell_length_a                   12.6625(7)
_cell_length_b                   12.7389(7)
_cell_length_c                   15.6693(7)
_cell_angle_alpha                91.249(4)
_cell_angle_beta                 102.326(4)
_cell_angle_gamma                108.969(5)
_cell_volume                     2323.8
loop_
_atom_site_label
_atom_site_type_symbol
_atom_site_fract_x
_atom_site_fract_y
_atom_site_fract_z
Cu1 Cu 0.15432(6) 0.02762(6) 0.27002(5)
Cu2 Cu -0.05336(7) 0.48536(7) 0.23623(5)
Cu3 Cu 0.5000 0.5000 0.0000
Cl1 Cl -0.11969(13) 0.30539(12) 0.27181(9)
Cl2 Cl 0.07200(12) -0.15528(11) 0.27844(10)
Cl3 Cl 0.35269(12) 0.44014(12) 0.06898(11)
Cl4 Cl 0.15863(13) 0.53187(13) 0.25589(10)
N1 N 0.1609(4) 0.0920(4) 0.3936(3)
N2 N 0.2350(4) 0.2013(3) 0.2610(3)
N3 N 0.3151(4) 0.0290(3) 0.2608(3)
N4 N 0.0159(4) 0.1526(3) 0.0526(3)
N5 N 0.0399(4) 0.0516(3) 0.1647(3)
N6 N 0.5446(4) 0.3657(4) 0.0368(3)
C1 C 0.0849(4) 0.1428(4) 0.1283(3)
N7 N 0.4936(4) 0.1308(4) 0.2549(3)
C2 C 0.3729(5) -0.0444(4) 0.2478(3)
N8 N 0.1993(4) 0.2435(4) 0.4839(3)
O1 O -0.0959(4) 0.6216(4) 0.1875(3)
N9 N -0.0852(4) 0.4234(4) 0.1121(3)
C3 C 0.3900(4) 0.1304(4) 0.2651(3)
C4 C 0.1558(4) 0.0587(4) 0.4773(3)
N10 N 0.0388(4) 0.4449(4) 0.6435(3)
C5 C -0.1552(5) -0.1005(4) 0.1176(4)
H1 H -0.1447 -0.1456 0.1639
C6 C -0.0346(4) 0.3165(4) 0.0103(3)
C7 C 0.5641(5) 0.2994(5) -0.0204(4)
H2 H 0.5567 0.3158 -0.0798
C8 C 0.1799(5) 0.1539(5) 0.5347(4)
C9 C -0.0691(4) -0.0015(4) 0.1105(3)
C10 C 0.0350(5) 0.2442(4) -0.0036(3)
H3 H 0.0127 0.2134 -0.0659
H4 H 0.1176 0.2897 0.0103
C11 C 0.5550(5) 0.3400(5) 0.1206(4)
H5 H 0.5409 0.3867 0.1617
C12 C -0.0851(5) 0.0614(4) 0.0406(3)
C13 C 0.2014(4) 0.2241(4) 0.1680(3)
H6 H 0.2001 0.3013 0.1656
H7 H 0.2573 0.2156 0.1353
C14 C -0.2569(5) -0.1293(5) 0.0535(4)
H8 H -0.3176 -0.1958 0.0563
C15 C 0.5947(5) 0.2079(5) 0.0033(4)
H9 H 0.6071 0.1620 -0.0395
C16 C 0.3614(4) 0.2304(4) 0.2882(3)
H10 H 0.3884 0.2522 0.3522
H11 H 0.3996 0.2937 0.2574
C17 C 0.1923(5) 0.2629(4) 0.3205(3)
H12 H 0.1157 0.2650 0.2913
H13 H 0.2459 0.3404 0.3368
C18 C -0.2726(5) -0.0632(5) -0.0152(4)
H14 H -0.3442 -0.0854 -0.0570
C19 C 0.6072(5) 0.1836(5) 0.0890(4)
H15 H 0.6306 0.1222 0.1067
C20 C -0.0275(5) 0.3571(4) 0.0944(4)
H16 H 0.0204 0.3372 0.1419
C21 C -0.1873(5) 0.0329(5) -0.0238(4)
H17 H -0.1975 0.0772 -0.0708
C22 C 0.5847(4) 0.2509(4) 0.1498(4)
C23 C 0.1831(5) 0.1482(6) 0.6241(4)
H18 H 0.2002 0.2126 0.6632
C24 C 0.1335(5) -0.0464(5) 0.5068(4)
H19 H 0.1169 -0.1110 0.4680
C25 C -0.0623(6) 0.4077(6) 0.5836(4)
H20 H -0.1275 0.4181 0.5982
C26 C 0.4858(5) 0.0188(5) 0.2438(3)
C27 C 0.5662(5) -0.0304(5) 0.2350(4)
H21 H 0.6426 0.0132 0.2339
C28 C 0.3375(5) -0.1600(5) 0.2411(3)
H22 H 0.2616 -0.2035 0.2436
C29 C -0.1034(5) 0.3459(5) -0.0589(4)
H23 H -0.1083 0.3210 -0.1177
C30 C 0.5302(6) -0.1460(5) 0.2279(4)
H24 H 0.5826 -0.1828 0.2210
C31 C 0.1364(5) -0.0530(5) 0.5956(4)
H25 H 0.1225 -0.1235 0.6183
C32 C 0.4169(6) -0.2099(5) 0.2307(4)
H26 H 0.3945 -0.2889 0.2253
C33 C 0.1855(4) 0.2006(4) 0.4008(3)
C34 C 0.2258(5) 0.3603(5) 0.5181(4)
H27 H 0.2504 0.4103 0.4732
H28 H 0.2900 0.3799 0.5708
C35 C -0.1541(5) 0.4497(5) 0.0448(4)
H29 H -0.1965 0.4954 0.0565
C36 C 0.5919(5) 0.2274(5) 0.2448(4)
H30 H 0.6642 0.2126 0.2683
H31 H 0.5938 0.2941 0.2796
C37 C 0.1242(5) 0.3778(5) 0.5411(4)
C38 C -0.1652(5) 0.4125(5) -0.0409(4)
H32 H -0.2147 0.4322 -0.0874
C39 C 0.1595(5) 0.0422(5) 0.6520(4)
H33 H 0.1590 0.0340 0.7121
C40 C 0.0198(6) 0.3422(5) 0.4808(4)
H34 H 0.0132 0.3086 0.4243
C41 C -0.0756(6) 0.3559(5) 0.5032(4)
H35 H -0.1486 0.3296 0.4632
C42 C 0.1309(5) 0.4293(5) 0.6219(4)
H36 H 0.2026 0.4544 0.6635
Cu1A Cu -0.15432(6) 0.97238(6) 0.72998(5)
Cu2A Cu 0.05336(7) 0.51464(7) 0.76377(5)
Cl1A Cl 0.11969(13) 0.69461(12) 0.72819(9)
Cl2A Cl -0.07200(12) 1.15528(11) 0.72156(10)
Cl4A Cl -0.15863(13) 0.46813(13) 0.74411(10)
N1A N -0.1609(4) 0.9080(4) 0.6064(3)
N2A N -0.2350(4) 0.7987(3) 0.7390(3)
N3A N -0.3151(4) 0.9710(3) 0.7392(3)
N4A N -0.0159(4) 0.8474(3) 0.9474(3)
N5A N -0.0399(4) 0.9484(3) 0.8353(3)
N6A N -0.5446(4) 0.6343(4) 0.9632(3)
C1A C -0.0849(4) 0.8572(4) 0.8717(3)
N7A N -0.4936(4) 0.8692(4) 0.7451(3)
C2A C -0.3729(5) 1.0444(4) 0.7522(3)
N8A N -0.1993(4) 0.7565(4) 0.5161(3)
O1A O 0.0959(4) 0.3784(4) 0.8125(3)
N9A N 0.0852(4) 0.5766(4) 0.8879(3)
C3A C -0.3900(4) 0.8696(4) 0.7349(3)
C4A C -0.1558(4) 0.9413(4) 0.5227(3)
N10A N -0.0388(4) 0.5551(4) 0.3565(3)
C5A C 0.1552(5) 1.1005(4) 0.8824(4)
H1A H 0.1447 1.1456 0.8361
C6A C 0.0346(4) 0.6835(4) 0.9897(3)
C7A C -0.5641(5) 0.7006(5) 1.0204(4)
H2A H -0.5567 0.6842 1.0798
C8A C -0.1799(5) 0.8461(5) 0.4653(4)
C9A C 0.0691(4) 1.0015(4) 0.8895(3)
C10A C -0.0350(5) 0.7558(4) 1.0036(3)
H3A H -0.0127 0.7866 1.0659
H4A H -0.1176 0.7103 0.9897
C11A C -0.5550(5) 0.6600(5) 0.8794(4)
H5A H -0.5409 0.6133 0.8383
C12A C 0.0851(5) 0.9386(4) 0.9594(3)
C13A C -0.2014(4) 0.7759(4) 0.8320(3)
H6A H -0.2001 0.6987 0.8344
H7A H -0.2573 0.7844 0.8647
C14A C 0.2569(5) 1.1293(5) 0.9465(4)
H8A H 0.3176 1.1958 0.9437
C15A C -0.5947(5) 0.7921(5) 0.9967(4)
H9A H -0.6071 0.8380 1.0395
C16A C -0.3614(4) 0.7696(4) 0.7118(3)
H10A H -0.3884 0.7478 0.6478
H11A H -0.3996 0.7063 0.7426
C17A C -0.1923(5) 0.7371(4) 0.6795(3)
H12A H -0.1157 0.7350 0.7087
H13A H -0.2459 0.6596 0.6632
C18A C 0.2726(5) 1.0632(5) 1.0152(4)
H14A H 0.3442 1.0854 1.0570
C19A C -0.6072(5) 0.8164(5) 0.9110(4)
H15A H -0.6306 0.8778 0.8933
C20A C 0.0275(5) 0.6429(4) 0.9056(4)
H16A H -0.0204 0.6628 0.8581
C21A C 0.1873(5) 0.9671(5) 1.0238(4)
H17A H 0.1975 0.9228 1.0708
C22A C -0.5847(4) 0.7491(4) 0.8502(4)
C23A C -0.1831(5) 0.8518(6) 0.3759(4)
H18A H -0.2002 0.7874 0.3368
C24A C -0.1335(5) 1.0464(5) 0.4932(4)
H19A H -0.1169 1.1110 0.5320
C25A C 0.0623(6) 0.5923(6) 0.4164(4)
H20A H 0.1275 0.5819 0.4018
C26A C -0.4858(5) 0.9812(5) 0.7562(3)
C27A C -0.5662(5) 1.0304(5) 0.7650(4)
H21A H -0.6426 0.9868 0.7661
C28A C -0.3375(5) 1.1600(5) 0.7589(3)
H22A H -0.2616 1.2035 0.7564
C29A C 0.1034(5) 0.6541(5) 1.0589(4)
H23A H 0.1083 0.6790 1.1177
C30A C -0.5302(6) 1.1460(5) 0.7721(4)
H24A H -0.5826 1.1828 0.7790
C31A C -0.1364(5) 1.0530(5) 0.4044(4)
H25A H -0.1225 1.1235 0.3817
C32A C -0.4169(6) 1.2099(5) 0.7693(4)
H26A H -0.3945 1.2889 0.7747
C33A C -0.1855(4) 0.7994(4) 0.5992(3)
C34A C -0.2258(5) 0.6397(5) 0.4819(4)
H27A H -0.2504 0.5897 0.5268
H28A H -0.2900 0.6201 0.4292
C35A C 0.1541(5) 0.5503(5) 0.9552(4)
H29A H 0.1965 0.5046 0.9435
C36A C -0.5919(5) 0.7726(5) 0.7552(4)
H30A H -0.6642 0.7874 0.7317
H31A H -0.5938 0.7059 0.7204
C37A C -0.1242(5) 0.6222(5) 0.4589(4)
C38A C 0.1652(5) 0.5875(5) 1.0409(4)
H32A H 0.2147 0.5678 1.0874
C39A C -0.1595(5) 0.9578(5) 0.3480(4)
H33A H -0.1590 0.9660 0.2879
C40A C -0.0198(6) 0.6578(5) 0.5192(4)
H34A H -0.0132 0.6914 0.5757
C41A C 0.0756(6) 0.6441(5) 0.4968(4)
H35A H 0.1486 0.6704 0.5368
C42A C -0.1309(5) 0.5707(5) 0.3781(4)
H36A H -0.2026 0.5456 0.3365
Cl3A Cl 0.64731(12) 0.55986(12) -0.06898(11)
Cu3_2 Cu -0.5000 0.5000 1.0000
N6A_2 N 0.4554(4) 0.6343(4) -0.0368(3)
Cl5 Cl 0.66296(15) 0.62633(14) 0.17305(12)
Cl6 Cl 0.61222(17) 0.34789(17) 0.47343(13)
Cl7 Cl 0.44547(18) 0.1737(2) 0.53738(16)
Cl8 Cl 0.6471(3) 0.1391(2) 0.5056(3)
C43 C 0.5925(7) 0.2348(8) 0.5397(6)
H37 H 0.6346 0.2647 0.6016
O2 O 0.5582(5) 0.4915(5) 0.3112(4)
C44 C 0.4721(10) 0.5302(10) 0.3293(7)
H38 H 0.4497 0.4995 0.3821
H39 H 0.4051 0.5062 0.2794
H40 H 0.5016 0.6119 0.3388
loop_
_geom_bond_atom_site_label_1
_geom_bond_atom_site_label_2
_geom_bond_site_symmetry_1
_geom_bond_site_symmetry_2
Cu1 Cl2 1_555 1_555
Cu2 Cl1 1_555 1_555
Cu3 Cl3 1_555 1_555
Cl4 Cu2 1_555 1_555
N1 Cu1 1_555 1_555
N2 Cu1 1_555 1_555
N3 Cu1 1_555 1_555
N4 C1 1_555 1_555
N5 Cu1 1_555 1_555
N6 Cu3 1_555 1_555
C1 N5 1_555 1_555
N7 C3 1_555 1_555
C2 N3 1_555 1_555
N8 C8 1_555 1_555
O1 Cu2 1_555 1_555
N9 Cu2 1_555 1_555
C3 N3 1_555 1_555
C4 N1 1_555 1_555
N10 C25 1_555 1_555
C5 H1 1_555 1_555
C6 C10 1_555 1_555
C7 N6 1_555 1_555
H2 C7 1_555 1_555
C8 C4 1_555 1_555
C9 N5 1_555 1_555
C10 N4 1_555 1_555
H3 C10 1_555 1_555
H4 C10 1_555 1_555
C11 N6 1_555 1_555
H5 C11 1_555 1_555
C12 N4 1_555 1_555
C13 N2 1_555 1_555
H6 C13 1_555 1_555
H7 C13 1_555 1_555
C14 C5 1_555 1_555
H8 C14 1_555 1_555
C15 C7 1_555 1_555
H9 C15 1_555 1_555
C16 N2 1_555 1_555
H10 C16 1_555 1_555
H11 C16 1_555 1_555
C17 N2 1_555 1_555
H12 C17 1_555 1_555
H13 C17 1_555 1_555
C18 C14 1_555 1_555
H14 C18 1_555 1_555
C19 C15 1_555 1_555
H15 C19 1_555 1_555
C20 N9 1_555 1_555
H16 C20 1_555 1_555
C21 C12 1_555 1_555
H17 C21 1_555 1_555
C22 C11 1_555 1_555
C23 C8 1_555 1_555
H18 C23 1_555 1_555
C24 C4 1_555 1_555
H19 C24 1_555 1_555
C25 H20 1_555 1_555
C26 N7 1_555 1_555
C27 C26 1_555 1_555
H21 C27 1_555 1_555
C28 C2 1_555 1_555
H22 C28 1_555 1_555
C29 C6 1_555 1_555
H23 C29 1_555 1_555
C30 C27 1_555 1_555
H24 C30 1_555 1_555
C31 C24 1_555 1_555
H25 C31 1_555 1_555
C32 C28 1_555 1_555
H26 C32 1_555 1_555
C33 N1 1_555 1_555
C34 N8 1_555 1_555
H27 C34 1_555 1_555
H28 C34 1_555 1_555
C35 N9 1_555 1_555
H29 C35 1_555 1_555
C36 N7 1_555 1_555
H30 C36 1_555 1_555
H31 C36 1_555 1_555
C37 C34 1_555 1_555
C38 C29 1_555 1_555
H32 C38 1_555 1_555
C39 C23 1_555 1_555
H33 C39 1_555 1_555
C40 C37 1_555 1_555
H34 C40 1_555 1_555
C41 C25 1_555 1_555
H35 C41 1_555 1_555
C42 N10 1_555 1_555
H36 C42 1_555 1_555
Cl6 C43 1_555 1_555
Cl7 C43 1_555 1_555
Cl8 C43 1_555 1_555
C43 H37 1_555 1_555
O2 C44 1_555 1_555
C44 H38 1_555 1_555
H39 C44 1_555 1_555
H40 C44 1_555 1_555
Cu1A Cl2A 1_555 1_555
Cu2A N10 1_555 1_555
Cl1A Cu2A 1_555 1_555
Cl4A Cu2A 1_555 1_555
N1A Cu1A 1_555 1_555
N2A Cu1A 1_555 1_555
N3A Cu1A 1_555 1_555
N4A C1A 1_555 1_555
N5A Cu1A 1_555 1_555
N6A C7A 1_555 1_555
C1A N5A 1_555 1_555
N7A C3A 1_555 1_555
C2A N3A 1_555 1_555
N8A C8A 1_555 1_555
O1A Cu2A 1_555 1_555
N9A Cu2A 1_555 1_555
C3A N3A 1_555 1_555
C4A N1A 1_555 1_555
N10A Cu2 1_555 1_555
C5A H1A 1_555 1_555
C6A C10A 1_555 1_555
C7A H2A 1_555 1_555
C8A C4A 1_555 1_555
C9A N5A 1_555 1_555
C10A N4A 1_555 1_555
H3A C10A 1_555 1_555
H4A C10A 1_555 1_555
C11A N6A 1_555 1_555
H5A C11A 1_555 1_555
C12A N4A 1_555 1_555
C13A N2A 1_555 1_555
H6A C13A 1_555 1_555
H7A C13A 1_555 1_555
C14A C5A 1_555 1_555
H8A C14A 1_555 1_555
C15A C7A 1_555 1_555
H9A C15A 1_555 1_555
C16A N2A 1_555 1_555
H10A C16A 1_555 1_555
H11A C16A 1_555 1_555
C17A N2A 1_555 1_555
H12A C17A 1_555 1_555
H13A C17A 1_555 1_555
C18A C14A 1_555 1_555
H14A C18A 1_555 1_555
C19A C15A 1_555 1_555
H15A C19A 1_555 1_555
C20A N9A 1_555 1_555
H16A C20A 1_555 1_555
C21A C12A 1_555 1_555
H17A C21A 1_555 1_555
C22A C11A 1_555 1_555
C23A C8A 1_555 1_555
H18A C23A 1_555 1_555
C24A C4A 1_555 1_555
H19A C24A 1_555 1_555
C25A N10A 1_555 1_555
H20A C25A 1_555 1_555
C26A N7A 1_555 1_555
C27A C26A 1_555 1_555
H21A C27A 1_555 1_555
C28A C2A 1_555 1_555
H22A C28A 1_555 1_555
C29A C6A 1_555 1_555
H23A C29A 1_555 1_555
C30A C27A 1_555 1_555
H24A C30A 1_555 1_555
C31A C24A 1_555 1_555
H25A C31A 1_555 1_555
C32A C28A 1_555 1_555
H26A C32A 1_555 1_555
C33A N1A 1_555 1_555
C34A N8A 1_555 1_555
H27A C34A 1_555 1_555
H28A C34A 1_555 1_555
C35A N9A 1_555 1_555
H29A C35A 1_555 1_555
C36A N7A 1_555 1_555
H30A C36A 1_555 1_555
H31A C36A 1_555 1_555
C37A C34A 1_555 1_555
C38A C29A 1_555 1_555
H32A C38A 1_555 1_555
C39A C23A 1_555 1_555
H33A C39A 1_555 1_555
C40A C37A 1_555 1_555
H34A C40A 1_555 1_555
C41A C25A 1_555 1_555
H35A C41A 1_555 1_555
C42A N10A 1_555 1_555
H36A C42A 1_555 1_555
Cl3A Cu3 1_555 1_555
Cu3_2 N6A 1_555 1_555
N6A_2 Cu3 1_555 1_555
C1 C13 1_555 1_555
C2 C26 1_555 1_555
N8 C33 1_555 1_555
C3 C16 1_555 1_555
C5 C9 1_555 1_555
C6 C20 1_555 1_555
C9 C12 1_555 1_555
C17 C33 1_555 1_555
C18 C21 1_555 1_555
C19 C22 1_555 1_555
C22 C36 1_555 1_555
C30 C32 1_555 1_555
C31 C39 1_555 1_555
C35 C38 1_555 1_555
C37 C42 1_555 1_555
C40 C41 1_555 1_555
C1A C13A 1_555 1_555
C2A C26A 1_555 1_555
N8A C33A 1_555 1_555
C3A C16A 1_555 1_555
C5A C9A 1_555 1_555
C6A C20A 1_555 1_555
C9A C12A 1_555 1_555
C17A C33A 1_555 1_555
C18A C21A 1_555 1_555
C19A C22A 1_555 1_555
C22A C36A 1_555 1_555
C30A C32A 1_555 1_555
C31A C39A 1_555 1_555
C35A C38A 1_555 1_555
C37A C42A 1_555 1_555
C40A C41A 1_555 1_555

#END
