
#######################################################################
#
#                 Cambridge Crystallographic Data Centre
#                                CCDC 
#
#######################################################################
#
# If this CIF has been generated from an entry in the Cambridge 
# Structural Database, then it will include bibliographic, chemical, 
# crystal, experimental, refinement or atomic coordinate data resulting 
# from the CCDC's data processing and validation procedures.
#
#######################################################################

data_OFIVAA
_symmetry_cell_setting           orthorhombic
_symmetry_space_group_name_H-M   'I m m m'
_symmetry_Int_Tables_number      71
_space_group_name_Hall           '-I 2 2'
loop_
_symmetry_equiv_pos_site_id
_symmetry_equiv_pos_as_xyz
1 x,y,z
2 -x,-y,z
3 x,-y,-z
4 -x,y,-z
5 1/2+x,1/2+y,1/2+z
6 1/2-x,1/2-y,1/2+z
7 1/2+x,1/2-y,1/2-z
8 1/2-x,1/2+y,1/2-z
9 -x,-y,-z
10 x,y,-z
11 -x,y,z
12 x,-y,z
13 1/2-x,1/2-y,1/2-z
14 1/2+x,1/2+y,1/2-z
15 1/2-x,1/2+y,1/2+z
16 1/2+x,1/2-y,1/2+z
_cell_length_a                   16.8210(5)
_cell_length_b                   9.3790(3)
_cell_length_c                   7.4568(2)
_cell_angle_alpha                90
_cell_angle_beta                 90
_cell_angle_gamma                90
_cell_volume                     1176.42
loop_
_atom_site_label
_atom_site_type_symbol
_atom_site_fract_x
_atom_site_fract_y
_atom_site_fract_z
V1 V 0.2439(2) 0.0000 0.2929(4)
P1 P 0.3296(3) 0.2669(6) 0.5000
O1 O 0.2680(6) 0.1431(11) 0.5000
O2 O 0.3307(6) 0.0000 0.2072(13)
O3 O 0.3150(4) 0.3543(7) 0.6681(10)
O4 O 0.1374(7) 0.0000 0.5000
C1 C 0.5000 0.2888(24) 0.5000
C2 C 0.4289(7) 0.1838(15) 0.5000
O3I O 0.3150(4) 0.3543(7) 0.3319(10)
C2C C 0.5711(7) 0.1838(15) 0.5000
P1C P 0.6704(3) 0.2669(6) 0.5000
O1C O 0.7320(6) 0.1431(11) 0.5000
O3C O 0.6850(4) 0.3543(7) 0.3319(10)
O3J O 0.6850(4) 0.3543(7) 0.6681(10)
V1C V 0.7561(2) 0.0000 0.7071(4)
O2C O 0.6693(6) 0.0000 0.7928(13)
O1B O 0.2680(6) -0.1431(11) 0.5000
O3E O 0.1850(4) 0.1457(7) 0.1681(10)
O3N O 0.1850(4) -0.1457(7) 0.1681(10)
V1B V 0.2439(2) 0.0000 0.7071(4)
V1E V 0.2561(2) 0.5000 0.7929(4)
V1G V 0.2561(2) 0.5000 0.2071(4)
V1A V 0.7561(2) 0.0000 0.2929(4)
V1F V 0.7439(2) 0.5000 0.2071(4)
V1D V 0.7439(2) 0.5000 0.7929(4)
O1A O 0.7320(6) -0.1431(11) 0.5000
O3F O 0.8150(4) 0.1457(7) 0.8319(10)
O3M O 0.8150(4) -0.1457(7) 0.8319(10)
O4A O 0.8626(7) 0.0000 0.5000
O5 O 0.0831(4) 0.2650(11) 0.5000
loop_
_geom_bond_atom_site_label_1
_geom_bond_atom_site_label_2
_geom_bond_site_symmetry_1
_geom_bond_site_symmetry_2
V1 O1 1_555 1_555
P1 O1 1_555 1_555
O1 V1B 1_555 1_555
O2 V1 1_555 1_555
O3 P1 1_555 1_555
O4 V1 1_555 1_555
C1 C2 1_555 1_555
C2 P1 1_555 1_555
O3I P1 1_555 1_555
C2C C1 1_555 1_555
P1C C2C 1_555 1_555
O1C P1C 1_555 1_555
O3C P1C 1_555 1_555
O3J P1C 1_555 1_555
V1C O1C 1_555 1_555
O2C V1C 1_555 1_555
O1B V1 1_555 1_555
O3E V1 1_555 1_555
O3N V1 1_555 1_555
V1B O4 1_555 1_555
V1E O3 1_555 1_555
V1G O3I 1_555 1_555
V1A O1C 1_555 1_555
V1F O3C 1_555 1_555
V1D O3J 1_555 1_555
O1A V1C 1_555 1_555
O3F V1C 1_555 1_555
O3M V1C 1_555 1_555
O4A V1C 1_555 1_555
O1B V1B 1_555 1_555
V1A O1A 1_555 1_555
V1A O4A 1_555 1_555

#END
