
#######################################################################
#
#                 Cambridge Crystallographic Data Centre
#                                CCDC 
#
#######################################################################
#
# If this CIF has been generated from an entry in the Cambridge 
# Structural Database, then it will include bibliographic, chemical, 
# crystal, experimental, refinement or atomic coordinate data resulting 
# from the CCDC's data processing and validation procedures.
#
#######################################################################

data_OFIWAC
_symmetry_cell_setting           monoclinic
_symmetry_space_group_name_H-M   'P 21/n'
_symmetry_Int_Tables_number      14
_space_group_name_Hall           '-P 2yn'
loop_
_symmetry_equiv_pos_site_id
_symmetry_equiv_pos_as_xyz
1 x,y,z
2 1/2-x,1/2+y,1/2-z
3 -x,-y,-z
4 1/2+x,1/2-y,1/2+z
_cell_length_a                   10.3003(9)
_cell_length_b                   9.0112(8)
_cell_length_c                   12.0042(11)
_cell_angle_alpha                90
_cell_angle_beta                 105.136(7)
_cell_angle_gamma                90
_cell_volume                     1075.55
loop_
_atom_site_label
_atom_site_type_symbol
_atom_site_fract_x
_atom_site_fract_y
_atom_site_fract_z
Ru1 Ru 0.00000 0.00000 0.00000
Cu1 Cu 0.50000 0.00000 0.00000
O1 O 0.61804(14) 0.05640(15) 0.21561(11)
N1 N 0.49856(13) 0.22256(13) -0.03524(11)
N2 N 0.21760(14) 0.45766(14) 0.19497(11)
N3 N 0.31408(16) -0.00128(14) 0.01577(13)
N4 N 0.05386(15) 0.20254(15) 0.22578(12)
N5 N -0.03658(15) 0.29917(14) -0.14799(12)
C1 C 0.38198(16) 0.32004(16) -0.03766(13)
C2 C 0.36684(16) 0.34767(16) 0.08327(13)
C3 C 0.24577(17) 0.44590(18) 0.07927(14)
C4 C 0.20038(18) -0.00146(15) 0.01010(14)
C5 C 0.03292(15) 0.12827(15) 0.14376(13)
C6 C -0.02328(15) 0.18968(16) -0.09535(12)
H1 H 0.573(3) 0.093(3) 0.254(2)
H2 H 0.57100 0.26310 0.01770
H3 H 0.51620 0.23150 -0.10620
H4 H 0.29900 0.27320 -0.08520
H5 H 0.39410 0.41600 -0.07380
H6 H 0.665(2) 0.117(3) 0.207(2)
H7 H 0.18080 0.37120 0.21140
H8 H 0.15920 0.53360 0.19430
H9 H 0.29570 0.47530 0.24970
H10 H 0.35580 0.25170 0.11990
H11 H 0.44910 0.39610 0.13060
H12 H 0.26260 0.54620 0.05240
H13 H 0.16590 0.40440 0.02320
Cu1_2 Cu -0.50000 0.00000 0.00000
O1B O 0.38196(14) -0.05640(15) -0.21561(11)
N1B N 0.50144(13) -0.22256(13) 0.03524(11)
N2B N 0.78240(14) -0.45766(14) -0.19497(11)
N3B N -0.31408(16) 0.00128(14) -0.01577(13)
N3B_2 N 0.68592(16) 0.00128(14) -0.01577(13)
N4B N -0.05386(15) -0.20254(15) -0.22578(12)
N5B N 0.03658(15) -0.29917(14) 0.14799(12)
C1B C 0.61802(16) -0.32004(16) 0.03766(13)
C2B C 0.63316(16) -0.34767(16) -0.08327(13)
C3B C 0.75423(17) -0.44590(18) -0.07927(14)
C4B C -0.20038(18) 0.00146(15) -0.01010(14)
C5B C -0.03292(15) -0.12827(15) -0.14376(13)
C6B C 0.02328(15) -0.18968(16) 0.09535(12)
H1B H 0.427(3) -0.093(3) -0.254(2)
H2B H 0.42900 -0.26310 -0.01770
H3B H 0.48380 -0.23150 0.10620
H4B H 0.70100 -0.27320 0.08520
H5B H 0.60590 -0.41600 0.07380
H6B H 0.335(2) -0.117(3) -0.207(2)
H7B H 0.81920 -0.37120 -0.21140
H8B H 0.84080 -0.53360 -0.19430
H9B H 0.70430 -0.47530 -0.24970
H10B H 0.64420 -0.25170 -0.11990
H11B H 0.55090 -0.39610 -0.13060
H12B H 0.73740 -0.54620 -0.05240
H13B H 0.83410 -0.40440 -0.02320
O2 O 0.25613(12) 0.19276(13) 0.65900(11)
H14 H 0.33720 0.23090 0.65490
H15 H 0.27710 0.11100 0.70200
loop_
_geom_bond_atom_site_label_1
_geom_bond_atom_site_label_2
_geom_bond_site_symmetry_1
_geom_bond_site_symmetry_2
Ru1 C4 1_555 1_555
Cu1 O1 1_555 1_555
O1 H1 1_555 1_555
N1 Cu1 1_555 1_555
N2 C3 1_555 1_555
N3 Cu1 1_555 1_555
N4 C5 1_555 1_555
N5 C6 1_555 1_555
C1 N1 1_555 1_555
C2 C1 1_555 1_555
C3 C2 1_555 1_555
C4 N3 1_555 1_555
C5 Ru1 1_555 1_555
C6 Ru1 1_555 1_555
O2 H14 1_555 1_555
H2 N1 1_555 1_555
H3 N1 1_555 1_555
H4 C1 1_555 1_555
H5 C1 1_555 1_555
H6 O1 1_555 1_555
H7 N2 1_555 1_555
H8 N2 1_555 1_555
H9 N2 1_555 1_555
H10 C2 1_555 1_555
H11 C2 1_555 1_555
H12 C3 1_555 1_555
H13 C3 1_555 1_555
H15 O2 1_555 1_555
Cu1_2 N3B 1_555 1_555
O1B Cu1 1_555 1_555
N1B Cu1 1_555 1_555
N2B C3B 1_555 1_555
N3B C4B 1_555 1_555
N3B_2 Cu1 1_555 1_555
N4B C5B 1_555 1_555
N5B C6B 1_555 1_555
C1B N1B 1_555 1_555
C2B C1B 1_555 1_555
C3B C2B 1_555 1_555
C4B Ru1 1_555 1_555
C5B Ru1 1_555 1_555
C6B Ru1 1_555 1_555
H1B O1B 1_555 1_555
H2B N1B 1_555 1_555
H3B N1B 1_555 1_555
H4B C1B 1_555 1_555
H5B C1B 1_555 1_555
H6B O1B 1_555 1_555
H7B N2B 1_555 1_555
H8B N2B 1_555 1_555
H9B N2B 1_555 1_555
H10B C2B 1_555 1_555
H11B C2B 1_555 1_555
H12B C3B 1_555 1_555
H13B C3B 1_555 1_555

#END
