
#######################################################################
#
#                 Cambridge Crystallographic Data Centre
#                                CCDC 
#
#######################################################################
#
# If this CIF has been generated from an entry in the Cambridge 
# Structural Database, then it will include bibliographic, chemical, 
# crystal, experimental, refinement or atomic coordinate data resulting 
# from the CCDC's data processing and validation procedures.
#
#######################################################################

data_OFIWEG
_symmetry_cell_setting           monoclinic
_symmetry_space_group_name_H-M   'P 21/n'
_symmetry_Int_Tables_number      14
_space_group_name_Hall           '-P 2yn'
loop_
_symmetry_equiv_pos_site_id
_symmetry_equiv_pos_as_xyz
1 x,y,z
2 1/2-x,1/2+y,1/2-z
3 -x,-y,-z
4 1/2+x,1/2-y,1/2+z
_cell_length_a                   9.7292(5)
_cell_length_b                   12.0351(5)
_cell_length_c                   8.2574(4)
_cell_angle_alpha                90
_cell_angle_beta                 111.7012(30)
_cell_angle_gamma                90
_cell_volume                     898.347
loop_
_atom_site_label
_atom_site_type_symbol
_atom_site_fract_x
_atom_site_fract_y
_atom_site_fract_z
Ru1 Ru 0.00000 0.00000 -0.5
Cu1 Cu 0.50000 0.00000 0.00000
C1 C 0.4973(25) 0.1537(13) 0.2928(22)
C2 C 0.4393(31) 0.1556(10) 0.4333(21)
C3 C 0.4706(25) 0.2644(26) 0.534(4)
C4 C 0.1846(12) -0.0104(20) -0.2737(19)
C5 C -0.1226(27) 0.0245(28) -0.3466(26)
C6 C 0.015(7) 0.1675(4) -0.517(7)
N1 N 0.3962(20) 0.0944(16) 0.1285(23)
N2 N 0.340(4) 0.3081(14) 0.561(4)
N3 N 0.3026(9) -0.0429(10) -0.1835(15)
N4 N -0.1662(26) 0.0230(26) -0.2323(25)
N5 N 0.026(4) 0.26225(30) -0.540(4)
H1 H 0.5882(21) 0.1177(33) 0.3277(33)
H2 H 0.511(5) 0.2253(16) 0.259(4)
H3 H 0.481(7) 0.0993(25) 0.514(4)
H4 H 0.337(4) 0.1456(28) 0.390(4)
H5 H 0.5476(21) 0.251(6) 0.639(5)
H6 H 0.505(7) 0.3141(29) 0.471(8)
H7 H 0.325(4) 0.1457(25) 0.0666(18)
H8 H 0.34875 0.0383(16) 0.165(4)
H9 H 0.362(5) 0.3726(22) 0.62732
H10 H 0.303(6) 0.2569(30) 0.618(8)
H11 H 0.265(4) 0.3251(28) 0.455(4)
Cu1_2 Cu -0.50000 0.00000 -1.00000
C1B C 0.5027(25) -0.1537(13) -0.2928(22)
C2B C 0.5607(31) -0.1556(10) -0.4333(21)
C3B C 0.5294(25) -0.2644(26) -0.534(4)
C4B C -0.1846(12) 0.0104(20) -0.7263(19)
C5B C 0.1226(27) -0.0245(28) -0.6534(26)
C6B C -0.015(7) -0.1675(4) -0.483(7)
N1B N 0.6038(20) -0.0944(16) -0.1285(23)
N2B N 0.660(4) -0.3081(14) -0.561(4)
N3B N -0.3026(9) 0.0429(10) -0.8165(15)
N3B_2 N 0.6974(9) 0.0429(10) 0.1835(15)
N4B N 0.1662(26) -0.0230(26) -0.7677(25)
N5B N -0.026(4) -0.26225(30) -0.460(4)
H1B H 0.4118(21) -0.1177(33) -0.3277(33)
H2B H 0.489(5) -0.2253(16) -0.259(4)
H3B H 0.519(7) -0.0993(25) -0.514(4)
H4B H 0.663(4) -0.1456(28) -0.390(4)
H5B H 0.4524(21) -0.251(6) -0.639(5)
H6B H 0.495(7) -0.3141(29) -0.471(8)
H7B H 0.675(4) -0.1457(25) -0.0666(18)
H8B H 0.65125 -0.0383(16) -0.165(4)
H9B H 0.638(5) -0.3726(22) -0.62732
H10B H 0.697(6) -0.2569(30) -0.618(8)
H11B H 0.735(4) -0.3251(28) -0.455(4)
loop_
_geom_bond_atom_site_label_1
_geom_bond_atom_site_label_2
_geom_bond_site_symmetry_1
_geom_bond_site_symmetry_2
Ru1 C4 1_555 1_555
Cu1 N1 1_555 1_555
C1 C2 1_555 1_555
C2 C3 1_555 1_555
C3 N2 1_555 1_555
C4 N3 1_555 1_555
C5 Ru1 1_555 1_555
C6 Ru1 1_555 1_555
N1 C1 1_555 1_555
N2 H9 1_555 1_555
N3 Cu1 1_555 1_555
N4 C5 1_555 1_555
N5 C6 1_555 1_555
H1 C1 1_555 1_555
H2 C1 1_555 1_555
H3 C2 1_555 1_555
H4 C2 1_555 1_555
H5 C3 1_555 1_555
H6 C3 1_555 1_555
H7 N1 1_555 1_555
H8 N1 1_555 1_555
H10 N2 1_555 1_555
H11 N2 1_555 1_555
Cu1_2 N3B 1_555 1_555
C1B C2B 1_555 1_555
C2B C3B 1_555 1_555
C3B N2B 1_555 1_555
C4B Ru1 1_555 1_555
C5B Ru1 1_555 1_555
C6B Ru1 1_555 1_555
N1B Cu1 1_555 1_555
N2B H9B 1_555 1_555
N3B C4B 1_555 1_555
N3B_2 Cu1 1_555 1_555
N4B C5B 1_555 1_555
N5B C6B 1_555 1_555
H1B C1B 1_555 1_555
H2B C1B 1_555 1_555
H3B C2B 1_555 1_555
H4B C2B 1_555 1_555
H5B C3B 1_555 1_555
H6B C3B 1_555 1_555
H7B N1B 1_555 1_555
H8B N1B 1_555 1_555
H10B N2B 1_555 1_555
H11B N2B 1_555 1_555
C1B N1B 1_555 1_555

#END
