
#######################################################################
#
#                 Cambridge Crystallographic Data Centre
#                                CCDC 
#
#######################################################################
#
# If this CIF has been generated from an entry in the Cambridge 
# Structural Database, then it will include bibliographic, chemical, 
# crystal, experimental, refinement or atomic coordinate data resulting 
# from the CCDC's data processing and validation procedures.
#
#######################################################################

data_OFIWEH
_symmetry_cell_setting           orthorhombic
_symmetry_space_group_name_H-M   'P n n a'
_symmetry_Int_Tables_number      52
_space_group_name_Hall           '-P 2a 2bc'
loop_
_symmetry_equiv_pos_site_id
_symmetry_equiv_pos_as_xyz
1 x,y,z
2 1/2-x,-y,z
3 1/2-x,1/2+y,1/2-z
4 x,1/2-y,1/2-z
5 -x,-y,-z
6 1/2+x,y,-z
7 1/2+x,1/2-y,1/2+z
8 -x,1/2+y,1/2+z
_cell_length_a                   20.402(3)
_cell_length_b                   20.893(3)
_cell_length_c                   9.0595(11)
_cell_angle_alpha                90
_cell_angle_beta                 90
_cell_angle_gamma                90
_cell_volume                     3861.69
loop_
_atom_site_label
_atom_site_type_symbol
_atom_site_fract_x
_atom_site_fract_y
_atom_site_fract_z
O3 O 0.05537(10) 0.59756(11) 0.4089(2)
H16 H 0.0780 0.5905 0.4846
C23 C 0.0465(2) 0.5402(2) 0.3308(4)
H17 H 0.0891 0.5242 0.2972
H18 H 0.0182 0.5480 0.2452
H19 H 0.0260 0.5084 0.3954
O4 O 0.1477(2) 0.6803(3) 0.2290(5)
H20 H 0.1546 0.6543 0.1602
C24 C 0.0910(3) 0.6956(3) 0.2289(7)
H21 H 0.0799 0.7154 0.3238
H22 H 0.0636 0.6576 0.2137
H23 H 0.0831 0.7264 0.1491
O5 O 0.1973(3) 0.5479(3) 0.1415(5)
Zn1 Zn -0.2500 0.5000 0.30518(3)
N1 N -0.20285(7) 0.56788(7) 0.42734(16)
N2 N -0.12617(9) 0.7500 0.7500
C1 C -0.22970(9) 0.60055(10) 0.5389(2)
H1 H -0.2741 0.5922 0.5635
C2 C -0.19606(8) 0.64592(10) 0.6203(2)
H2 H -0.2174 0.6682 0.6981
C3 C -0.13045(8) 0.65865(8) 0.58693(19)
C4 C -0.10275(8) 0.62462(9) 0.4710(2)
H3 H -0.0583 0.6318 0.4447
C5 C -0.13943(8) 0.58038(9) 0.3939(2)
H4 H -0.1195 0.5579 0.3145
C6 C -0.09210(8) 0.70705(8) 0.67158(19)
C7 C -0.02355(8) 0.70601(8) 0.6674(2)
H5 H -0.0013 0.6753 0.6082
C8 C 0.01185(11) 0.7500 0.7500
C9 C 0.08490(12) 0.7500 0.7500
C10 C 0.11968(9) 0.73671(10) 0.6225(2)
H6 H 0.0967 0.7270 0.5341
C11 C 0.18782(9) 0.73735(10) 0.6220(2)
H7 H 0.2108 0.7290 0.5328
C12 C 0.22272(13) 0.7500 0.7500
C13 C 0.29682(12) 0.7500 0.7500
C14 C 0.33090(9) 0.70477(10) 0.8356(2)
C15 C 0.29912(10) 0.65532(11) 0.9178(3)
H8 H 0.2526 0.6531 0.9169
C16 C 0.33330(12) 0.61139(12) 0.9973(3)
H9 H 0.3108 0.5788 1.0500
C17 C 0.40353(12) 0.61436(12) 1.0014(3)
H10 H 0.4274 0.5842 1.0587
C18 C 0.43580(11) 0.65965(11) 0.9245(3)
H11 H 0.4823 0.6609 0.9284
C19 C 0.40192(9) 0.70564(10) 0.8375(3)
C20 C 0.43473(13) 0.7500 0.7500
H12 H 0.4813 0.7500 0.7500
O1 O -0.18520(6) 0.46471(6) 0.16709(15)
O2 O -0.13424(7) 0.43066(7) 0.36682(17)
C21 C -0.13704(9) 0.43710(9) 0.2310(2)
C22 C -0.08299(11) 0.41407(12) 0.1306(3)
H13 H -0.0461 0.3987 0.1902
H14 H -0.0683 0.4494 0.0677
H15 H -0.0994 0.3791 0.0687
N1C N -0.20285(7) 0.93212(7) 1.07266(16)
C1C C -0.22970(9) 0.89945(10) 0.9611(2)
H1C H -0.2741 0.9078 0.9365
C2C C -0.19606(8) 0.85408(10) 0.8797(2)
H2C H -0.2174 0.8318 0.8019
C3C C -0.13045(8) 0.84135(8) 0.91307(19)
C4C C -0.10275(8) 0.87538(9) 1.0290(2)
H3C H -0.0583 0.8682 1.0553
C5C C -0.13943(8) 0.91962(9) 1.1061(2)
H4C H -0.1195 0.9421 1.1855
C6C C -0.09210(8) 0.79295(8) 0.82842(19)
C7C C -0.02355(8) 0.79399(8) 0.8326(2)
H5C H -0.0013 0.8247 0.8918
C10C C 0.11968(9) 0.76329(10) 0.8775(2)
H6C H 0.0967 0.7730 0.9659
C11C C 0.18782(9) 0.76265(10) 0.8780(2)
H7C H 0.2108 0.7710 0.9672
C14C C 0.33090(9) 0.79523(10) 0.6644(2)
C15C C 0.29912(10) 0.84468(11) 0.5822(3)
H8C H 0.2526 0.8469 0.5831
C16C C 0.33330(12) 0.88861(12) 0.5027(3)
H9C H 0.3108 0.9212 0.4500
C17C C 0.40353(12) 0.88564(12) 0.4986(3)
H10C H 0.4274 0.9158 0.4413
C18C C 0.43580(11) 0.84035(11) 0.5755(3)
H11C H 0.4823 0.8391 0.5716
C19C C 0.40192(9) 0.79436(10) 0.6625(3)
O1A O -0.31480(6) 0.53529(6) 0.16709(15)
O2A O -0.36576(7) 0.56934(7) 0.36682(17)
C21A C -0.36296(9) 0.56290(9) 0.2310(2)
C22A C -0.41701(11) 0.58593(12) 0.1306(3)
H13A H -0.4539 0.6013 0.1902
H14A H -0.4317 0.5506 0.0677
H15A H -0.4006 0.6209 0.0687
Zn1B Zn -0.2500 1.0000 1.19482(3)
N1A N -0.29715(7) 0.43212(7) 0.42734(16)
C25? C 0.0980(4) 0.5586(5) 0.3217(10)
H24? H 0.1089 0.5524 0.4284
Cl1? Cl 0.02327(13) 0.51813(16) 0.2829(3)
Cl2? Cl 0.16074(12) 0.52605(14) 0.2158(3)
Cl3? Cl 0.08995(14) 0.64189(13) 0.2869(3)
loop_
_geom_bond_atom_site_label_1
_geom_bond_atom_site_label_2
_geom_bond_site_symmetry_1
_geom_bond_site_symmetry_2
Zn1 N1 1_555 1_555
N1 C1 1_555 1_555
N2 C6 1_555 1_555
C1 H1 1_555 1_555
C2 C1 1_555 1_555
H2 C2 1_555 1_555
C3 C2 1_555 1_555
C4 C3 1_555 1_555
H3 C4 1_555 1_555
C5 N1 1_555 1_555
H4 C5 1_555 1_555
C6 C3 1_555 1_555
C7 C6 1_555 1_555
H5 C7 1_555 1_555
C8 C7 1_555 1_555
C9 C8 1_555 1_555
C10 C9 1_555 1_555
H6 C10 1_555 1_555
C11 C10 1_555 1_555
H7 C11 1_555 1_555
C12 C11 1_555 1_555
C13 C12 1_555 1_555
C14 C13 1_555 1_555
C15 C14 1_555 1_555
H8 C15 1_555 1_555
C16 C15 1_555 1_555
H9 C16 1_555 1_555
C17 C16 1_555 1_555
H10 C17 1_555 1_555
C18 C17 1_555 1_555
H11 C18 1_555 1_555
C19 C14 1_555 1_555
C20 C19 1_555 1_555
H12 C20 1_555 1_555
O1 Zn1 1_555 1_555
O2 C21 1_555 1_555
C21 O1 1_555 1_555
C22 C21 1_555 1_555
H13 C22 1_555 1_555
H14 C22 1_555 1_555
H15 C22 1_555 1_555
O3 H16 1_555 1_555
C23 O3 1_555 1_555
H17 C23 1_555 1_555
H18 C23 1_555 1_555
H19 C23 1_555 1_555
O4 H20 1_555 1_555
C24 O4 1_555 1_555
H21 C24 1_555 1_555
H22 C24 1_555 1_555
H23 C24 1_555 1_555
N1C C1C 1_555 1_555
C1C H1C 1_555 1_555
C2C C1C 1_555 1_555
H2C C2C 1_555 1_555
C3C C2C 1_555 1_555
C4C C3C 1_555 1_555
H3C C4C 1_555 1_555
C5C N1C 1_555 1_555
H4C C5C 1_555 1_555
C6C N2 1_555 1_555
C7C C8 1_555 1_555
H5C C7C 1_555 1_555
C10C C9 1_555 1_555
H6C C10C 1_555 1_555
C11C C12 1_555 1_555
H7C C11C 1_555 1_555
C14C C13 1_555 1_555
C15C C14C 1_555 1_555
H8C C15C 1_555 1_555
C16C C15C 1_555 1_555
H9C C16C 1_555 1_555
C17C C16C 1_555 1_555
H10C C17C 1_555 1_555
C18C C17C 1_555 1_555
H11C C18C 1_555 1_555
C19C C20 1_555 1_555
O1A Zn1 1_555 1_555
O2A C21A 1_555 1_555
C21A O1A 1_555 1_555
C22A C21A 1_555 1_555
H13A C22A 1_555 1_555
H14A C22A 1_555 1_555
H15A C22A 1_555 1_555
Zn1B N1C 1_555 1_555
N1A Zn1 1_555 1_555
C4 C5 1_555 1_555
C18 C19 1_555 1_555
C3C C6C 1_555 1_555
C4C C5C 1_555 1_555
C6C C7C 1_555 1_555
C10C C11C 1_555 1_555
C14C C19C 1_555 1_555
C18C C19C 1_555 1_555

#END
