
#######################################################################
#
#                 Cambridge Crystallographic Data Centre
#                                CCDC 
#
#######################################################################
#
# If this CIF has been generated from an entry in the Cambridge 
# Structural Database, then it will include bibliographic, chemical, 
# crystal, experimental, refinement or atomic coordinate data resulting 
# from the CCDC's data processing and validation procedures.
#
#######################################################################

data_OFIXAD
_symmetry_cell_setting           monoclinic
_symmetry_space_group_name_H-M   'P 21/n'
_symmetry_Int_Tables_number      14
_space_group_name_Hall           '-P 2yn'
loop_
_symmetry_equiv_pos_site_id
_symmetry_equiv_pos_as_xyz
1 x,y,z
2 1/2-x,1/2+y,1/2-z
3 -x,-y,-z
4 1/2+x,1/2-y,1/2+z
_cell_length_a                   9.4902(5)
_cell_length_b                   16.5949(9)
_cell_length_c                   10.4733(6)
_cell_angle_alpha                90
_cell_angle_beta                 90.3720(10)
_cell_angle_gamma                90
_cell_volume                     1649.39
loop_
_atom_site_label
_atom_site_type_symbol
_atom_site_fract_x
_atom_site_fract_y
_atom_site_fract_z
Ni1 Ni 0.96612(2) 0.190266(13) 0.73889(2)
O1 O 0.96260(15) 0.29553(8) 0.61470(14)
O2 O 0.86132(14) 0.29113(8) 0.80210(13)
O3 O 1.17176(14) 0.21377(8) 0.80431(13)
O4 O 1.12719(13) 0.12440(8) 0.65481(14)
N1 N 0.58427(16) 0.61632(9) 0.60661(15)
N2 N 1.80093(16) 0.14792(9) 0.62430(15)
C1 C 0.8241(2) 0.44314(12) 0.55719(19)
H1 H 0.8906 0.4246 0.4992
C2 C 0.8003(2) 0.40068(11) 0.66661(19)
C3 C 0.6948(2) 0.42664(11) 0.75234(19)
H2 H 0.6758 0.3962 0.8248
C4 C 0.6208(2) 0.49583(11) 0.72999(19)
H3 H 0.5512 0.5119 0.7866
C5 C 0.6051(2) 0.65615(12) 0.49912(19)
H4 H 0.5561 0.7041 0.4869
C6 C 0.6958(3) 0.63083(13) 0.4028(2)
H5 H 0.7052 0.6606 0.3282
C7 C 0.7704(2) 0.56161(13) 0.4204(2)
H6 H 0.8354 0.5451 0.3596
C8 C 0.7488(2) 0.51515(11) 0.53089(18)
C9 C 0.64977(19) 0.54292(11) 0.62126(18)
C10 C 0.8809(2) 0.32514(11) 0.69553(19)
C11 C 1.41448(19) 0.12252(11) 0.58650(18)
H7 H 1.3493 0.1023 0.5280
C12 C 1.36850(18) 0.15567(11) 0.69800(18)
C13 C 1.4665(2) 0.18586(11) 0.7880(2)
H8 H 1.4346 0.2084 0.8639
C14 C 1.6084(2) 0.18218(12) 0.76442(19)
H9 H 1.6721 0.2013 0.8251
C15 C 1.8429(2) 0.11601(13) 0.51557(19)
H10 H 1.9389 0.1162 0.4983
C16 C 1.7527(2) 0.08197(13) 0.42481(19)
H11 H 1.7886 0.0581 0.3516
C17 C 1.6113(2) 0.08420(12) 0.44514(19)
H12 H 1.5492 0.0633 0.3847
C18 C 1.55996(19) 0.11856(11) 0.55883(18)
C19 C 1.65845(18) 0.14963(11) 0.64874(17)
C20 C 1.21431(19) 0.16463(11) 0.72152(19)
Ni1A Ni 0.53388(2) 0.690266(13) 0.76111(2)
Ni1_2 Ni 1.96612(2) 0.190266(13) 0.73889(2)
N1A N 0.91573(16) 0.11632(9) 0.89339(15)
N2_2 N 0.80093(16) 0.14792(9) 0.62430(15)
loop_
_geom_bond_atom_site_label_1
_geom_bond_atom_site_label_2
_geom_bond_site_symmetry_1
_geom_bond_site_symmetry_2
Ni1 O1 1_555 1_555
O1 C10 1_555 1_555
O2 Ni1 1_555 1_555
O3 Ni1 1_555 1_555
O4 Ni1 1_555 1_555
N1 C5 1_555 1_555
N2 C15 1_555 1_555
C1 H1 1_555 1_555
C2 C1 1_555 1_555
C3 C2 1_555 1_555
H2 C3 1_555 1_555
C4 C3 1_555 1_555
H3 C4 1_555 1_555
C5 H4 1_555 1_555
C6 C5 1_555 1_555
H5 C6 1_555 1_555
C7 C6 1_555 1_555
H6 C7 1_555 1_555
C8 C1 1_555 1_555
C9 N1 1_555 1_555
C10 O2 1_555 1_555
C11 H7 1_555 1_555
C12 C11 1_555 1_555
C13 C12 1_555 1_555
H8 C13 1_555 1_555
C14 C13 1_555 1_555
H9 C14 1_555 1_555
C15 H10 1_555 1_555
C16 C15 1_555 1_555
H11 C16 1_555 1_555
C17 C16 1_555 1_555
H12 C17 1_555 1_555
C18 C11 1_555 1_555
C19 N2 1_555 1_555
C20 O3 1_555 1_555
Ni1A N1 1_555 1_555
Ni1_2 N2 1_555 1_555
N1A Ni1 1_555 1_555
N2_2 Ni1 1_555 1_555
O4 C20 1_555 1_555
C2 C10 1_555 1_555
C4 C9 1_555 1_555
C7 C8 1_555 1_555
C8 C9 1_555 1_555
C12 C20 1_555 1_555
C14 C19 1_555 1_555
C17 C18 1_555 1_555
C18 C19 1_555 1_555

#END
