
#######################################################################
#
#                 Cambridge Crystallographic Data Centre
#                                CCDC 
#
#######################################################################
#
# If this CIF has been generated from an entry in the Cambridge 
# Structural Database, then it will include bibliographic, chemical, 
# crystal, experimental, refinement or atomic coordinate data resulting 
# from the CCDC's data processing and validation procedures.
#
#######################################################################

data_OFIXIL
_symmetry_cell_setting           monoclinic
_symmetry_space_group_name_H-M   'P 21/c'
_symmetry_Int_Tables_number      14
_space_group_name_Hall           '-P 2ybc'
loop_
_symmetry_equiv_pos_site_id
_symmetry_equiv_pos_as_xyz
1 x,y,z
2 -x,1/2+y,1/2-z
3 -x,-y,-z
4 x,1/2-y,1/2+z
_cell_length_a                   9.4854(7)
_cell_length_b                   14.1581(9)
_cell_length_c                   24.8278(17)
_cell_angle_alpha                90
_cell_angle_beta                 94.7500(10)
_cell_angle_gamma                90
_cell_volume                     3322.8
loop_
_atom_site_label
_atom_site_type_symbol
_atom_site_fract_x
_atom_site_fract_y
_atom_site_fract_z
Co1 Co 0.40792(4) -0.01377(3) 0.380094(18)
Co2 Co 0.42732(4) 0.31252(3) 0.337430(19)
O1 O 0.6401(3) -0.0061(2) 0.41708(11)
O2 O 0.5662(2) -0.01558(19) 0.33172(10)
O3 O 0.6563(3) 0.3152(2) 0.37267(11)
O4 O 0.5851(2) 0.27080(19) 0.29060(10)
O5 O 0.3950(3) 0.20001(18) 0.38469(11)
O6 O 0.3469(3) 0.07735(17) 0.43320(10)
O7 O 0.3709(3) -0.57608(18) 0.38195(11)
O8 O 0.4454(3) -0.52702(19) 0.30573(12)
N1 N 1.2402(3) -0.0078(2) 0.32056(12)
N2 N 1.2571(3) 0.2894(2) 0.27943(12)
N3 N 0.0160(5) 0.3679(4) 0.56812(19)
N4 N 0.3793(3) -0.13308(19) 0.42672(11)
C1 C 0.8471(3) 0.0061(2) 0.30204(14)
H1 H 0.7748 0.0135 0.2747
C2 C 0.8155(3) -0.0048(3) 0.35426(14)
C3 C 0.9249(4) -0.0159(3) 0.39553(15)
H2 H 0.9025 -0.0221 0.4311
C4 C 1.0626(4) -0.0178(3) 0.38449(15)
H3 H 1.1331 -0.0267 0.4123
C5 C 1.2716(4) 0.0022(3) 0.26990(15)
H4 H 1.3663 0.0003 0.2627
C6 C 1.1700(4) 0.0153(3) 0.22687(15)
H5 H 1.1972 0.0225 0.1920
C7 C 1.0310(4) 0.0177(3) 0.23603(15)
H6 H 0.9625 0.0268 0.2075
C8 C 0.9908(3) 0.0062(2) 0.28939(14)
C9 C 1.0992(3) -0.0063(2) 0.33093(14)
C10 C 0.6654(3) -0.0088(2) 0.36883(15)
C11 C 0.8668(3) 0.2644(2) 0.26185(14)
H7 H 0.7948 0.2528 0.2349
C12 C 0.8336(3) 0.2796(3) 0.31360(14)
C13 C 0.9426(4) 0.2942(3) 0.35483(15)
H8 H 0.9201 0.3021 0.3903
C14 C 1.0812(4) 0.2970(3) 0.34333(14)
H9 H 1.1520 0.3079 0.3708
C15 C 1.2870(4) 0.2790(3) 0.22871(15)
H10 H 1.3811 0.2843 0.2212
C16 C 1.1868(4) 0.2607(3) 0.18577(15)
H11 H 1.2146 0.2534 0.1510
C17 C 1.0483(4) 0.2536(3) 0.19512(15)
H12 H 0.9802 0.2407 0.1669
C18 C 1.0091(3) 0.2660(2) 0.24844(14)
C19 C 1.1168(3) 0.2834(2) 0.29002(14)
C20 C 0.6833(4) 0.2880(3) 0.32663(15)
C21 C 0.3048(5) 0.3057(3) 0.48102(19)
H13 H 0.3850 0.3328 0.4683
C22 C 0.2678(5) 0.2210(3) 0.46516(18)
C23 C 0.1457(6) 0.1812(4) 0.4855(2)
H14 H 0.1207 0.1197 0.4757
C24 C 0.0637(6) 0.2285(4) 0.5186(2)
H15 H -0.0184 0.2019 0.5300
C25 C 0.1073(6) 0.3185(4) 0.53494(19)
C26 C 0.0632(7) 0.4550(4) 0.5859(2)
H16 H 0.0099 0.4898 0.6087
C27 C 0.1919(8) 0.4931(4) 0.5700(2)
H17 H 0.2206 0.5526 0.5824
C28 C 0.2676(7) 0.4491(4) 0.5399(2)
H18 H 0.3532 0.4748 0.5313
C29 C 0.2234(6) 0.3598(3) 0.51854(18)
C30 C 0.3453(4) 0.1648(3) 0.42444(14)
C31 C 0.3515(4) -0.3930(3) 0.42094(15)
H19 H 0.3282 -0.4434 0.4425
C32 C 0.3882(4) -0.4104(2) 0.36978(14)
C33 C 0.4163(4) -0.3338(2) 0.33623(14)
H20 H 0.4393 -0.3453 0.3011
C34 C 0.4104(4) -0.2433(2) 0.35429(14)
H21 H 0.4276 -0.1934 0.3313
C35 C 0.3563(4) -0.1188(3) 0.47783(14)
H22 H 0.3607 -0.0572 0.4908
C36 C 0.3259(4) -0.1900(3) 0.51329(15)
H23 H 0.3102 -0.1762 0.5489
C37 C 0.3194(5) -0.2809(3) 0.49497(15)
H24 H 0.2960 -0.3295 0.5178
C38 C 0.3482(4) -0.3008(2) 0.44164(14)
C39 C 0.3781(3) -0.2246(2) 0.40795(13)
C40 C 0.4015(4) -0.5101(3) 0.35029(15)
Co1_2 Co 1.40792(4) -0.01377(3) 0.380094(18)
Co2_2 Co 0.42732(4) -0.68748(3) 0.337430(19)
Co2_3 Co 1.42732(4) 0.31252(3) 0.337430(19)
O7_2 O 0.3709(3) 0.42392(18) 0.38195(11)
N1_2 N 0.2402(3) -0.0078(2) 0.32056(12)
N2_2 N 0.2571(3) 0.2894(2) 0.27943(12)
loop_
_geom_bond_atom_site_label_1
_geom_bond_atom_site_label_2
_geom_bond_site_symmetry_1
_geom_bond_site_symmetry_2
Co1 O1 1_555 1_555
Co2 O3 1_555 1_555
O1 C10 1_555 1_555
O2 Co1 1_555 1_555
O3 C20 1_555 1_555
O4 Co2 1_555 1_555
O5 Co2 1_555 1_555
O6 Co1 1_555 1_555
O7 C40 1_555 1_555
O8 C40 1_555 1_555
N1 C5 1_555 1_555
N2 C15 1_555 1_555
N3 C25 1_555 1_555
N4 Co1 1_555 1_555
C1 H1 1_555 1_555
C2 C1 1_555 1_555
C3 C2 1_555 1_555
H2 C3 1_555 1_555
C4 C3 1_555 1_555
H3 C4 1_555 1_555
C5 H4 1_555 1_555
C6 C5 1_555 1_555
H5 C6 1_555 1_555
C7 C6 1_555 1_555
H6 C7 1_555 1_555
C8 C1 1_555 1_555
C9 N1 1_555 1_555
C10 O2 1_555 1_555
C11 H7 1_555 1_555
C12 C11 1_555 1_555
C13 C12 1_555 1_555
H8 C13 1_555 1_555
C14 C13 1_555 1_555
H9 C14 1_555 1_555
C15 H10 1_555 1_555
C16 C15 1_555 1_555
H11 C16 1_555 1_555
C17 C16 1_555 1_555
H12 C17 1_555 1_555
C18 C11 1_555 1_555
C19 N2 1_555 1_555
C20 O4 1_555 1_555
C21 H13 1_555 1_555
C22 C21 1_555 1_555
C23 C22 1_555 1_555
H14 C23 1_555 1_555
C24 C23 1_555 1_555
H15 C24 1_555 1_555
C25 C24 1_555 1_555
C26 N3 1_555 1_555
H16 C26 1_555 1_555
C27 C26 1_555 1_555
H17 C27 1_555 1_555
C28 C27 1_555 1_555
H18 C28 1_555 1_555
C29 C21 1_555 1_555
C30 O5 1_555 1_555
C31 H19 1_555 1_555
C32 C31 1_555 1_555
C33 C32 1_555 1_555
H20 C33 1_555 1_555
C34 C33 1_555 1_555
H21 C34 1_555 1_555
C35 N4 1_555 1_555
H22 C35 1_555 1_555
C36 C35 1_555 1_555
H23 C36 1_555 1_555
C37 C36 1_555 1_555
H24 C37 1_555 1_555
C38 C31 1_555 1_555
C39 N4 1_555 1_555
C40 C32 1_555 1_555
Co1_2 N1 1_555 1_555
Co2_2 O7 1_555 1_555
Co2_3 N2 1_555 1_555
O7_2 Co2 1_555 1_555
N1_2 Co1 1_555 1_555
N2_2 Co2 1_555 1_555
O6 C30 1_555 1_555
C2 C10 1_555 1_555
C4 C9 1_555 1_555
C7 C8 1_555 1_555
C8 C9 1_555 1_555
C12 C20 1_555 1_555
C14 C19 1_555 1_555
C17 C18 1_555 1_555
C18 C19 1_555 1_555
C22 C30 1_555 1_555
C25 C29 1_555 1_555
C28 C29 1_555 1_555
C34 C39 1_555 1_555
C37 C38 1_555 1_555
C38 C39 1_555 1_555

#END
