
#######################################################################
#
#                 Cambridge Crystallographic Data Centre
#                                CCDC 
#
#######################################################################
#
# If this CIF has been generated from an entry in the Cambridge 
# Structural Database, then it will include bibliographic, chemical, 
# crystal, experimental, refinement or atomic coordinate data resulting 
# from the CCDC's data processing and validation procedures.
#
#######################################################################

data_OFIXEH
_symmetry_cell_setting           monoclinic
_symmetry_space_group_name_H-M   'P 21/c'
_symmetry_Int_Tables_number      14
_space_group_name_Hall           '-P 2ybc'
loop_
_symmetry_equiv_pos_site_id
_symmetry_equiv_pos_as_xyz
1 x,y,z
2 -x,1/2+y,1/2-z
3 -x,-y,-z
4 x,1/2-y,1/2+z
_cell_length_a                   9.450(3)
_cell_length_b                   14.239(4)
_cell_length_c                   24.811(6)
_cell_angle_alpha                90
_cell_angle_beta                 96.082(5)
_cell_angle_gamma                90
_cell_volume                     3319.74
loop_
_atom_site_label
_atom_site_type_symbol
_atom_site_fract_x
_atom_site_fract_y
_atom_site_fract_z
Zn1 Zn 0.40912(3) -0.01436(2) 0.382097(13)
Zn2 Zn 0.43021(3) 0.31071(2) 0.339886(13)
O1 O 0.6452(2) 0.00036(16) 0.41707(9)
O2 O 0.5638(2) -0.01719(15) 0.33232(9)
O3 O 0.6618(2) 0.31135(15) 0.37356(9)
O4 O 0.5850(2) 0.26792(15) 0.29122(9)
O5 O 0.3957(2) 0.20191(13) 0.38922(8)
O6 O 0.3427(2) 0.07589(12) 0.43414(8)
O7 O 0.3806(2) -0.57419(13) 0.37902(8)
O8 O 0.4577(3) -0.52064(14) 0.30424(9)
N1 N 1.2386(2) -0.00853(15) 0.32061(9)
N2 N 1.2584(2) 0.28771(15) 0.28048(9)
N3 N 0.0143(3) 0.3647(2) 0.56750(11)
N4 N 0.3816(2) -0.13395(14) 0.42706(8)
C1 C 0.8439(3) 0.00608(19) 0.30114(12)
H1 H 0.7697 0.0130 0.2737
C2 C 0.8150(3) -0.00405(19) 0.35360(12)
C3 C 0.9262(3) -0.0151(2) 0.39500(12)
H2 H 0.9054 -0.0207 0.4307
C4 C 1.0641(3) -0.0178(2) 0.38400(11)
H3 H 1.1362 -0.0268 0.4120
C5 C 1.2681(3) 0.00149(19) 0.27001(11)
H4 H 1.3630 0.0000 0.2632
C6 C 1.1641(3) 0.0141(2) 0.22634(12)
H5 H 1.1899 0.0207 0.1914
C7 C 1.0251(3) 0.0166(2) 0.23537(12)
H6 H 0.9549 0.0253 0.2066
C8 C 0.9874(3) 0.00608(18) 0.28844(11)
C9 C 1.0983(3) -0.00698(18) 0.33066(11)
C10 C 0.6656(3) -0.00647(19) 0.36883(13)
C11 C 0.8668(3) 0.26327(19) 0.26215(11)
H7 H 0.7932 0.2515 0.2350
C12 C 0.8363(3) 0.27795(19) 0.31429(12)
C13 C 0.9474(3) 0.2927(2) 0.35570(12)
H8 H 0.9269 0.3005 0.3913
C14 C 1.0848(3) 0.29581(19) 0.34418(11)
H9 H 1.1571 0.3070 0.3719
C15 C 1.2867(3) 0.2778(2) 0.22954(12)
H10 H 1.3809 0.2827 0.2223
C16 C 1.1839(3) 0.2608(2) 0.18652(12)
H11 H 1.2098 0.2539 0.1516
C17 C 1.0455(3) 0.2541(2) 0.19581(12)
H12 H 0.9756 0.2420 0.1674
C18 C 1.0083(3) 0.26578(18) 0.24911(11)
C19 C 1.1192(3) 0.28238(18) 0.29099(11)
C20 C 0.6856(3) 0.28487(19) 0.32746(13)
C21 C 0.3002(3) 0.30765(19) 0.48105(12)
H13 H 0.3776 0.3358 0.4673
C22 C 0.2634(3) 0.21857(18) 0.46612(11)
C23 C 0.1452(3) 0.1768(2) 0.48701(14)
H14 H 0.1219 0.1148 0.4783
C24 C 0.0647(4) 0.2256(2) 0.51962(14)
H15 H -0.0151 0.1975 0.5316
C25 C 0.1006(3) 0.3178(2) 0.53544(12)
C26 C 0.0531(4) 0.4505(3) 0.58175(14)
H16 H -0.0069 0.4847 0.6018
C27 C 0.1777(5) 0.4945(2) 0.56909(15)
H17 H 0.2018 0.5541 0.5823
C28 C 0.2628(4) 0.4484(2) 0.53706(13)
H18 H 0.3467 0.4758 0.5283
C29 C 0.2227(3) 0.3584(2) 0.51722(11)
C30 C 0.3410(3) 0.16342(18) 0.42670(11)
C31 C 0.3611(3) -0.39301(19) 0.41996(11)
H19 H 0.3398 -0.4438 0.4412
C32 C 0.3977(3) -0.40866(18) 0.36891(11)
C33 C 0.4251(3) -0.33206(19) 0.33618(11)
H20 H 0.4491 -0.3426 0.3013
C34 C 0.4171(3) -0.24170(19) 0.35476(11)
H21 H 0.4330 -0.1916 0.3321
C35 C 0.3576(3) -0.12100(19) 0.47833(11)
H22 H 0.3602 -0.0599 0.4917
C36 C 0.3289(3) -0.19316(19) 0.51319(11)
H23 H 0.3119 -0.1803 0.5487
C37 C 0.3261(3) -0.2828(2) 0.49456(12)
H24 H 0.3051 -0.3319 0.5171
C38 C 0.3551(3) -0.30127(18) 0.44113(11)
C39 C 0.3849(3) -0.22464(17) 0.40799(10)
C40 C 0.4139(3) -0.5072(2) 0.34818(12)
Zn1_2 Zn 1.40912(3) -0.01436(2) 0.382097(13)
Zn2_2 Zn 0.43021(3) -0.68929(2) 0.339886(13)
Zn2_3 Zn 1.43021(3) 0.31071(2) 0.339886(13)
O7_2 O 0.3806(2) 0.42581(13) 0.37902(8)
N1_2 N 0.2386(2) -0.00853(15) 0.32061(9)
N2_2 N 0.2584(2) 0.28771(15) 0.28048(9)
loop_
_geom_bond_atom_site_label_1
_geom_bond_atom_site_label_2
_geom_bond_site_symmetry_1
_geom_bond_site_symmetry_2
Zn1 O1 1_555 1_555
Zn2 O3 1_555 1_555
O1 C10 1_555 1_555
O2 Zn1 1_555 1_555
O3 C20 1_555 1_555
O4 Zn2 1_555 1_555
O5 Zn2 1_555 1_555
O6 Zn1 1_555 1_555
O7 C40 1_555 1_555
O8 C40 1_555 1_555
N1 C5 1_555 1_555
N2 C15 1_555 1_555
N3 C25 1_555 1_555
N4 Zn1 1_555 1_555
C1 H1 1_555 1_555
C2 C1 1_555 1_555
C3 C2 1_555 1_555
H2 C3 1_555 1_555
C4 C3 1_555 1_555
H3 C4 1_555 1_555
C5 H4 1_555 1_555
C6 C5 1_555 1_555
H5 C6 1_555 1_555
C7 C6 1_555 1_555
H6 C7 1_555 1_555
C8 C1 1_555 1_555
C9 N1 1_555 1_555
C10 O2 1_555 1_555
C11 H7 1_555 1_555
C12 C11 1_555 1_555
C13 C12 1_555 1_555
H8 C13 1_555 1_555
C14 C13 1_555 1_555
H9 C14 1_555 1_555
C15 H10 1_555 1_555
C16 C15 1_555 1_555
H11 C16 1_555 1_555
C17 C16 1_555 1_555
H12 C17 1_555 1_555
C18 C11 1_555 1_555
C19 N2 1_555 1_555
C20 O4 1_555 1_555
C21 H13 1_555 1_555
C22 C21 1_555 1_555
C23 C22 1_555 1_555
H14 C23 1_555 1_555
C24 C23 1_555 1_555
H15 C24 1_555 1_555
C25 C24 1_555 1_555
C26 N3 1_555 1_555
H16 C26 1_555 1_555
C27 C26 1_555 1_555
H17 C27 1_555 1_555
C28 C27 1_555 1_555
H18 C28 1_555 1_555
C29 C21 1_555 1_555
C30 O5 1_555 1_555
C31 H19 1_555 1_555
C32 C31 1_555 1_555
C33 C32 1_555 1_555
H20 C33 1_555 1_555
C34 C33 1_555 1_555
H21 C34 1_555 1_555
C35 N4 1_555 1_555
H22 C35 1_555 1_555
C36 C35 1_555 1_555
H23 C36 1_555 1_555
C37 C36 1_555 1_555
H24 C37 1_555 1_555
C38 C31 1_555 1_555
C39 N4 1_555 1_555
C40 C32 1_555 1_555
Zn1_2 N1 1_555 1_555
Zn2_2 O7 1_555 1_555
Zn2_3 N2 1_555 1_555
O7_2 Zn2 1_555 1_555
N1_2 Zn1 1_555 1_555
N2_2 Zn2 1_555 1_555
O6 C30 1_555 1_555
C2 C10 1_555 1_555
C4 C9 1_555 1_555
C7 C8 1_555 1_555
C8 C9 1_555 1_555
C12 C20 1_555 1_555
C14 C19 1_555 1_555
C17 C18 1_555 1_555
C18 C19 1_555 1_555
C22 C30 1_555 1_555
C25 C29 1_555 1_555
C28 C29 1_555 1_555
C34 C39 1_555 1_555
C37 C38 1_555 1_555
C38 C39 1_555 1_555

#END
