
#######################################################################
#
#                 Cambridge Crystallographic Data Centre
#                                CCDC 
#
#######################################################################
#
# If this CIF has been generated from an entry in the Cambridge 
# Structural Database, then it will include bibliographic, chemical, 
# crystal, experimental, refinement or atomic coordinate data resulting 
# from the CCDC's data processing and validation procedures.
#
#######################################################################

data_OFIYUY
_symmetry_cell_setting           monoclinic
_symmetry_space_group_name_H-M   'P c'
_symmetry_Int_Tables_number      7
_space_group_name_Hall           'P -2yc'
loop_
_symmetry_equiv_pos_site_id
_symmetry_equiv_pos_as_xyz
1 x,y,z
2 x,-y,1/2+z
_cell_length_a                   3.9160(6)
_cell_length_b                   7.8372(12)
_cell_length_c                   11.4705(18)
_cell_angle_alpha                90
_cell_angle_beta                 93.215(3)
_cell_angle_gamma                90
_cell_volume                     351.481
loop_
_atom_site_label
_atom_site_type_symbol
_atom_site_fract_x
_atom_site_fract_y
_atom_site_fract_z
Cu1 Cu 0.4215(2) -0.37512(11) 0.15961(10)
Cu2 Cu -0.1194(2) -0.49069(13) 0.38092(10)
S1 S -0.0638(4) -0.3022(2) 0.23624(16)
Cl1 Cl 0.4312(4) -0.5613(2) 0.01001(17)
N1 N -0.1061(17) 0.2603(7) 0.3423(6)
C1 C 0.0217(19) 0.2088(9) 0.2418(7)
H1 H 0.0988 0.2916 0.1915
C2 C 0.0449(18) 0.0413(9) 0.2095(7)
H2 H 0.1388 0.0122 0.1395
C3 C -0.0729(18) -0.0844(8) 0.2820(6)
C4 C -0.2064(19) -0.0342(9) 0.3850(7)
H3 H -0.2891 -0.1154 0.4355
C5 C -0.217(2) 0.1358(9) 0.4132(6)
H4 H -0.3044 0.1671 0.4839
Cu1_2 Cu -0.5785(2) -0.37512(11) 0.15961(10)
Cu2A Cu 0.8806(2) -0.50931(13) -0.11908(10)
Cu2A_2 Cu -0.1194(2) -0.50931(13) -0.11908(10)
Cu2_2 Cu -0.1194(2) 0.50931(13) 0.38092(10)
S1_2 S 0.9362(4) -0.3022(2) 0.23624(16)
Cl1A Cl -0.5688(4) -0.4387(2) 0.51001(17)
Cl1A_2 Cl 0.4312(4) -0.4387(2) 0.51001(17)
N1_2 N -0.1061(17) -0.7397(7) 0.3423(6)
loop_
_geom_bond_atom_site_label_1
_geom_bond_atom_site_label_2
_geom_bond_site_symmetry_1
_geom_bond_site_symmetry_2
Cu1 S1 1_555 1_555
Cu2 S1 1_555 1_555
S1 C3 1_555 1_555
Cl1 Cu1 1_555 1_555
N1 C1 1_555 1_555
C1 H1 1_555 1_555
C2 C1 1_555 1_555
H2 C2 1_555 1_555
C3 C2 1_555 1_555
C4 C3 1_555 1_555
H3 C4 1_555 1_555
C5 N1 1_555 1_555
H4 C5 1_555 1_555
Cu1_2 S1 1_555 1_555
Cu2A Cl1 1_555 1_555
Cu2A_2 Cl1 1_555 1_555
Cu2_2 N1 1_555 1_555
S1_2 Cu1 1_555 1_555
Cl1A Cu2 1_555 1_555
Cl1A_2 Cu2 1_555 1_555
N1_2 Cu2 1_555 1_555
C4 C5 1_555 1_555

#END
