
#######################################################################
#
#                 Cambridge Crystallographic Data Centre
#                                CCDC 
#
#######################################################################
#
# If this CIF has been generated from an entry in the Cambridge 
# Structural Database, then it will include bibliographic, chemical, 
# crystal, experimental, refinement or atomic coordinate data resulting 
# from the CCDC's data processing and validation procedures.
#
#######################################################################

data_OFIZAF
_symmetry_cell_setting           monoclinic
_symmetry_space_group_name_H-M   'P c'
_symmetry_Int_Tables_number      7
_space_group_name_Hall           'P -2yc'
loop_
_symmetry_equiv_pos_site_id
_symmetry_equiv_pos_as_xyz
1 x,y,z
2 x,-y,1/2+z
_cell_length_a                   3.9759(8)
_cell_length_b                   7.8580(15)
_cell_length_c                   11.773(2)
_cell_angle_alpha                90
_cell_angle_beta                 93.912(4)
_cell_angle_gamma                90
_cell_volume                     366.962
loop_
_atom_site_label
_atom_site_type_symbol
_atom_site_fract_x
_atom_site_fract_y
_atom_site_fract_z
Cu1 Cu 0.4140(2) 0.63168(14) 0.16357(10)
Cu2 Cu -0.1087(3) 0.51280(13) 0.37639(11)
S1 S -0.0659(4) 0.7040(2) 0.23423(18)
Br1 Br 0.43047(15) 0.43302(10) 0.01026(8)
N1 N -0.096(2) 1.2633(9) 0.3419(7)
C1 C 0.028(3) 1.2112(11) 0.2435(9)
H1 H 0.1049 1.2940 0.1951
C2 C 0.047(2) 1.0446(10) 0.2103(8)
H2 H 0.1350 1.0169 0.1414
C3 C -0.064(2) 0.9183(9) 0.2798(7)
C4 C -0.195(2) 0.9697(10) 0.3812(7)
H3 H -0.2777 0.8896 0.4304
C5 C -0.201(3) 1.1406(11) 0.4077(8)
H4 H -0.2853 1.1716 0.4765
Cu1_2 Cu -0.5860(2) 0.63168(14) 0.16357(10)
Cu2A Cu -0.1087(3) 0.48720(13) -0.12361(11)
Cu2A_2 Cu 0.8913(3) 0.48720(13) -0.12361(11)
Cu2_2 Cu -0.1087(3) 1.51280(13) 0.37639(11)
S1_2 S 0.9341(4) 0.7040(2) 0.23423(18)
Br1A Br -0.56953(15) 0.56698(10) 0.51026(8)
Br1A_2 Br 0.43047(15) 0.56698(10) 0.51026(8)
N1_2 N -0.096(2) 0.2633(9) 0.3419(7)
loop_
_geom_bond_atom_site_label_1
_geom_bond_atom_site_label_2
_geom_bond_site_symmetry_1
_geom_bond_site_symmetry_2
Cu1 S1 1_555 1_555
Cu2 S1 1_555 1_555
S1 C3 1_555 1_555
Br1 Cu1 1_555 1_555
N1 C1 1_555 1_555
C1 H1 1_555 1_555
C2 C1 1_555 1_555
H2 C2 1_555 1_555
C3 C2 1_555 1_555
C4 C3 1_555 1_555
H3 C4 1_555 1_555
C5 N1 1_555 1_555
H4 C5 1_555 1_555
Cu1_2 S1 1_555 1_555
Cu2A Br1 1_555 1_555
Cu2A_2 Br1 1_555 1_555
Cu2_2 N1 1_555 1_555
S1_2 Cu1 1_555 1_555
Br1A Cu2 1_555 1_555
Br1A_2 Cu2 1_555 1_555
N1_2 Cu2 1_555 1_555
C4 C5 1_555 1_555

#END
