
#######################################################################
#
#                 Cambridge Crystallographic Data Centre
#                                CCDC 
#
#######################################################################
#
# If this CIF has been generated from an entry in the Cambridge 
# Structural Database, then it will include bibliographic, chemical, 
# crystal, experimental, refinement or atomic coordinate data resulting 
# from the CCDC's data processing and validation procedures.
#
#######################################################################

data_OFODET
_symmetry_cell_setting           monoclinic
_symmetry_space_group_name_H-M   'P 21/c'
_symmetry_Int_Tables_number      14
_space_group_name_Hall           '-P 2ybc'
loop_
_symmetry_equiv_pos_site_id
_symmetry_equiv_pos_as_xyz
1 x,y,z
2 -x,1/2+y,1/2-z
3 -x,-y,-z
4 x,1/2-y,1/2+z
_cell_length_a                   11.3667(10)
_cell_length_b                   22.1056(19)
_cell_length_c                   9.6677(9)
_cell_angle_alpha                90
_cell_angle_beta                 102.986(2)
_cell_angle_gamma                90
_cell_volume                     2367.05
loop_
_atom_site_label
_atom_site_type_symbol
_atom_site_fract_x
_atom_site_fract_y
_atom_site_fract_z
Mn1 Mn -0.26008(4) 0.594880(18) -0.25997(5)
N1 N -0.2812(2) 0.26337(10) 0.0382(3)
N2 N -0.2137(2) 0.24407(9) -0.0368(3)
N3 N -0.1066(3) 0.68684(13) 0.1257(3)
N4 N -0.3856(3) 0.65910(13) -0.6864(3)
O1 O -0.56008(17) 0.39896(9) 0.2281(2)
O2 O -0.47232(19) 0.49002(9) 0.2427(3)
O3 O -0.21400(18) 0.52818(8) -0.0913(2)
O4 O -0.09947(19) 0.45387(9) -0.1439(2)
O5 O -0.4030(2) 0.05493(9) 0.1423(3)
O6 O -0.28825(18) -0.02005(8) 0.0923(2)
O7 O -0.02117(19) 0.01531(9) -0.2285(3)
O8 O 0.07447(18) 0.10412(9) -0.2096(2)
O9 O -0.2051(2) 0.66266(9) -0.0965(3)
O10 O -0.3258(2) 0.65015(9) -0.4476(3)
C1 C -0.4818(3) 0.43442(13) 0.2077(3)
C2 C -0.3883(2) 0.41095(12) 0.1325(3)
C3 C -0.3238(3) 0.45074(13) 0.0678(3)
C4 C -0.2429(3) 0.42980(12) -0.0098(3)
C5 C -0.1810(3) 0.47445(13) -0.0865(3)
C6 C -0.2255(3) 0.36805(13) -0.0208(3)
C7 C -0.2901(3) 0.32758(12) 0.0444(3)
C8 C -0.3709(3) 0.34921(13) 0.1206(3)
C9 C -0.2051(3) 0.17952(12) -0.0418(3)
C10 C -0.2736(3) 0.13980(13) 0.0203(3)
C11 C -0.2546(3) 0.07825(12) 0.0139(3)
C12 C -0.3196(3) 0.03365(13) 0.0874(3)
C13 C -0.1695(3) 0.05631(13) -0.0571(3)
C14 C -0.1018(2) 0.09510(12) -0.1195(3)
C15 C -0.0077(3) 0.07077(13) -0.1919(3)
C16 C -0.1203(3) 0.15685(13) -0.1121(3)
C17 C -0.1317(4) 0.65097(16) 0.0137(5)
C18 C -0.0233(4) 0.67062(19) 0.2540(5)
H1 H -0.0665 0.6634 0.3271
H2 H 0.0333 0.7029 0.2824
H3 H 0.0192 0.6346 0.2387
C19 C -0.1657(3) 0.74483(15) 0.1216(4)
H4 H -0.1846 0.7597 0.0259
H5 H -0.1130 0.7729 0.1815
H6 H -0.2387 0.7404 0.1548
C20 C -0.3329(4) 0.63111(17) -0.5686(5)
C21 C -0.3956(4) 0.63014(18) -0.8245(4)
H7 H -0.3389 0.5974 -0.8153
H8 H -0.3784 0.6592 -0.8910
H9 H -0.4760 0.6148 -0.8578
C22 C -0.4511(4) 0.71362(19) -0.6837(5)
H10 H -0.4660 0.7194 -0.5907
H11 H -0.5266 0.7113 -0.7522
H12 H -0.4049 0.7470 -0.7064
H13 H -0.456(4) 0.0174(19) 0.197(5)
H14 H -0.296(4) 0.5918(17) -0.583(5)
H15 H -0.094(3) 0.6106(16) 0.037(4)
H16 H -0.077(2) 0.1837(11) -0.154(3)
H17 H -0.335(2) 0.4908(11) 0.072(3)
H18 H -0.171(2) 0.3523(11) -0.072(3)
H19 H -0.1578(19) 0.0163(10) -0.065(2)
H20 H -0.414(2) 0.3210(10) 0.162(3)
H21 H -0.330(2) 0.1557(11) 0.071(3)
H22 H 0.045(4) -0.012(2) -0.283(5)
Mn1B Mn -0.73992(4) 0.405120(18) 0.25997(5)
Mn1C Mn -0.26008(4) -0.094880(18) 0.24003(5)
Mn1A Mn 0.26008(4) 0.094880(18) -0.24003(5)
O1B O -0.43992(17) 0.60104(9) -0.2281(2)
O6C O -0.28825(18) 0.52005(8) -0.4077(2)
O8A O -0.07447(18) 0.60412(9) -0.2904(2)
loop_
_geom_bond_atom_site_label_1
_geom_bond_atom_site_label_2
_geom_bond_site_symmetry_1
_geom_bond_site_symmetry_2
Mn1 O3 1_555 1_555
N1 N2 1_555 1_555
N2 C9 1_555 1_555
N3 C17 1_555 1_555
N4 C20 1_555 1_555
O1 C1 1_555 1_555
O2 C1 1_555 1_555
O3 C5 1_555 1_555
O4 C5 1_555 1_555
O5 C12 1_555 1_555
O6 C12 1_555 1_555
O7 C15 1_555 1_555
O8 C15 1_555 1_555
O9 Mn1 1_555 1_555
O10 Mn1 1_555 1_555
C1 C2 1_555 1_555
C2 C3 1_555 1_555
C3 C4 1_555 1_555
C4 C5 1_555 1_555
C6 C4 1_555 1_555
C7 N1 1_555 1_555
C8 C2 1_555 1_555
C9 C10 1_555 1_555
C10 C11 1_555 1_555
C11 C12 1_555 1_555
C13 C11 1_555 1_555
C14 C13 1_555 1_555
C15 C14 1_555 1_555
C16 C9 1_555 1_555
C17 O9 1_555 1_555
C18 N3 1_555 1_555
H1 C18 1_555 1_555
H2 C18 1_555 1_555
H3 C18 1_555 1_555
C19 N3 1_555 1_555
H4 C19 1_555 1_555
H5 C19 1_555 1_555
H6 C19 1_555 1_555
C20 O10 1_555 1_555
C21 N4 1_555 1_555
H7 C21 1_555 1_555
H8 C21 1_555 1_555
H9 C21 1_555 1_555
C22 N4 1_555 1_555
H10 C22 1_555 1_555
H11 C22 1_555 1_555
H12 C22 1_555 1_555
H13 O5 1_555 1_555
H14 C20 1_555 1_555
H15 C17 1_555 1_555
H16 C16 1_555 1_555
H17 C3 1_555 1_555
H18 C6 1_555 1_555
H19 C13 1_555 1_555
H20 C8 1_555 1_555
H21 C10 1_555 1_555
H22 O7 1_555 1_555
Mn1B O1 1_555 1_555
Mn1C O6 1_555 1_555
Mn1A O8 1_555 1_555
O1B Mn1 1_555 1_555
O6C Mn1 1_555 1_555
O8A Mn1 1_555 1_555
C6 C7 1_555 1_555
C7 C8 1_555 1_555
C14 C16 1_555 1_555

#END
