
#######################################################################
#
#                 Cambridge Crystallographic Data Centre
#                                CCDC 
#
#######################################################################
#
# If this CIF has been generated from an entry in the Cambridge 
# Structural Database, then it will include bibliographic, chemical, 
# crystal, experimental, refinement or atomic coordinate data resulting 
# from the CCDC's data processing and validation procedures.
#
#######################################################################

data_OFOFOG
_symmetry_cell_setting           monoclinic
_symmetry_space_group_name_H-M   'P 21/c'
_symmetry_Int_Tables_number      14
_space_group_name_Hall           '-P 2ybc'
loop_
_symmetry_equiv_pos_site_id
_symmetry_equiv_pos_as_xyz
1 x,y,z
2 -x,1/2+y,1/2-z
3 -x,-y,-z
4 x,1/2-y,1/2+z
_cell_length_a                   12.8535(10)
_cell_length_b                   19.731(4)
_cell_length_c                   19.337(4)
_cell_angle_alpha                90
_cell_angle_beta                 107.688(12)
_cell_angle_gamma                90
_cell_volume                     4672.26
loop_
_atom_site_label
_atom_site_type_symbol
_atom_site_fract_x
_atom_site_fract_y
_atom_site_fract_z
C44 C 0.1501(10) 0.0083(6) 0.8185(9)
H39 H 0.1843 -0.0355 0.8356
H40 H 0.1490 0.0155 0.7682
H41 H 0.0752 0.0085 0.8212
O13 O 0.2039(10) 0.0548(5) 0.8578(5)
H42 H 0.1610 0.0811 0.8698
Nd1 Nd 0.262538(15) 0.334955(9) 0.792961(8)
P1 P 0.31096(8) 0.38418(4) 0.61406(4)
P2 P 0.11559(7) 0.17417(4) 0.43734(4)
P3 P 0.36845(7) 0.51433(4) 0.85949(4)
O1 O 0.31478(19) 0.36925(11) 0.69096(10)
O2 O 0.15943(18) 0.16462(11) 0.37457(11)
O3 O 0.31882(18) 0.44645(11) 0.83388(11)
N1 N 0.0362(3) 0.36020(19) 0.69742(16)
O4 O -0.0588(3) 0.36804(18) 0.66071(19)
O5 O 0.0783(2) 0.30168(13) 0.70743(12)
O6 O 0.0962(2) 0.40937(13) 0.72798(14)
N2 N 0.4748(3) 0.29341(15) 0.89782(15)
O7 O 0.5599(2) 0.27494(18) 0.94117(15)
O8 O 0.4656(2) 0.30489(15) 0.83117(12)
O9 O 0.3901(2) 0.30264(13) 0.91627(12)
N3 N 0.2270(3) 0.18982(15) 0.75419(15)
O10 O 0.1896(2) 0.13465(13) 0.73095(15)
O11 O 0.2226(3) 0.21089(13) 0.81433(13)
O12 O 0.2722(2) 0.22839(12) 0.71959(12)
C1 C 0.4455(3) 0.38489(17) 0.60469(18)
C2 C 0.5293(3) 0.3528(2) 0.6568(2)
H1 H 0.5164 0.3345 0.6988
C3 C 0.6320(4) 0.3473(3) 0.6480(3)
H2 H 0.6891 0.3251 0.6839
C4 C 0.6511(4) 0.3739(2) 0.5876(3)
H3 H 0.7218 0.3707 0.5820
C5 C 0.5687(4) 0.4053(2) 0.5352(3)
H4 H 0.5822 0.4228 0.4930
C6 C 0.4666(4) 0.4114(2) 0.5435(2)
H5 H 0.4102 0.4338 0.5073
C7 C 0.2441(3) 0.46327(17) 0.58371(18)
C8 C 0.2005(5) 0.4830(3) 0.5128(3)
H6 H 0.2054 0.4523 0.4761
C9 C 0.1510(6) 0.5428(3) 0.4919(4)
H7 H 0.1245 0.5546 0.4420
C10 C 0.1401(10) 0.5861(5) 0.5439(8)
H8 H 0.1081 0.6294 0.5301
C11 C 0.1754(5) 0.5678(3) 0.6184(3)
H9 H 0.1646 0.5975 0.6543
C12 C 0.2255(5) 0.5061(2) 0.6375(3)
H10 H 0.2477 0.4921 0.6868
C13 C 0.2440(3) 0.31721(16) 0.55454(16)
C14 C 0.1357(3) 0.28130(16) 0.55207(17)
H11 H 0.0680 0.3077 0.5306
H12 H 0.1355 0.2563 0.5964
C15 C 0.2961(3) 0.24521(16) 0.55516(17)
H13 H 0.3596 0.2427 0.5364
H14 H 0.3055 0.2178 0.5995
C16 C -0.0255(3) 0.19987(16) 0.40577(17)
C17 C -0.0917(3) 0.19515(17) 0.45070(18)
H15 H -0.0630 0.1774 0.4984
C18 C -0.1989(3) 0.21611(18) 0.42617(19)
H16 H -0.2440 0.2125 0.4569
C19 C -0.2412(3) 0.24249(19) 0.3567(2)
H17 H -0.3156 0.2560 0.3395
C20 C -0.1748(3) 0.2491(2) 0.31263(19)
H18 H -0.2029 0.2685 0.2657
C21 C -0.0678(3) 0.22751(18) 0.33674(17)
H19 H -0.0227 0.2315 0.3061
C22 C 0.1301(3) 0.09772(17) 0.48917(17)
C23 C 0.1523(3) 0.09659(18) 0.56432(18)
H20 H 0.1568 0.1378 0.5905
C24 C 0.1677(3) 0.03539(18) 0.60053(19)
H21 H 0.1832 0.0347 0.6518
C25 C 0.1609(3) -0.02457(18) 0.5635(2)
H22 H 0.1724 -0.0664 0.5890
C26 C 0.1372(3) -0.02388(18) 0.48880(19)
H23 H 0.1309 -0.0653 0.4629
C27 C 0.1227(3) 0.03666(18) 0.45195(19)
H24 H 0.1076 0.0368 0.4007
C28 C 0.1814(3) 0.24209(16) 0.49730(15)
C29 C 0.2064(3) 0.31246(17) 0.46979(16)
H25 H 0.2652 0.3135 0.4465
H26 H 0.1423 0.3403 0.4440
C30 C 0.2677(3) 0.57818(17) 0.85520(17)
C31 C 0.1616(3) 0.56663(19) 0.81146(18)
H27 H 0.1439 0.5254 0.7851
C32 C 0.0813(4) 0.6152(2) 0.8060(2)
H28 H 0.0087 0.6071 0.7763
C33 C 0.1073(4) 0.6754(2) 0.8441(2)
H29 H 0.0524 0.7086 0.8405
C34 C 0.2125(4) 0.6874(2) 0.8870(2)
H30 H 0.2300 0.7290 0.9127
C35 C 0.2934(4) 0.63889(18) 0.89307(18)
H31 H 0.3659 0.6472 0.9229
C36 C 0.4503(3) 0.54361(19) 0.80480(17)
C37 C 0.4492(3) 0.6099(2) 0.7813(2)
H32 H 0.4076 0.6429 0.7971
C38 C 0.5079(4) 0.6288(3) 0.7351(3)
H33 H 0.5074 0.6745 0.7197
C39 C 0.5665(5) 0.5812(3) 0.7120(3)
H34 H 0.6048 0.5938 0.6790
C40 C 0.5713(4) 0.5149(3) 0.7357(3)
H35 H 0.6144 0.4826 0.7203
C41 C 0.5127(3) 0.4960(2) 0.7820(2)
H36 H 0.5150 0.4504 0.7981
C42 C 0.4552(3) 0.50721(16) 0.95248(16)
C43 C 0.4813(7) 0.5608(4) 1.0157(3)
H37 H 0.4200 0.5735 1.0341
H38 H 0.5270 0.5999 1.0109
P3B P 0.63155(7) 0.48567(4) 1.14051(4)
O3B O 0.68118(18) 0.55355(11) 1.16612(11)
C30B C 0.7323(3) 0.42182(17) 1.14480(17)
C31B C 0.8384(3) 0.43337(19) 1.18854(18)
H27B H 0.8561 0.4746 1.2149
C32B C 0.9187(4) 0.3848(2) 1.1940(2)
H28B H 0.9913 0.3929 1.2237
C33B C 0.8927(4) 0.3246(2) 1.1559(2)
H29B H 0.9476 0.2914 1.1595
C34B C 0.7875(4) 0.3126(2) 1.1130(2)
H30B H 0.7700 0.2710 1.0873
C35B C 0.7066(4) 0.36111(18) 1.10693(18)
H31B H 0.6341 0.3528 1.0771
C36B C 0.5497(3) 0.45639(19) 1.19520(17)
C37B C 0.5508(3) 0.3901(2) 1.2187(2)
H32B H 0.5924 0.3571 1.2029
C38B C 0.4921(4) 0.3712(3) 1.2649(3)
H33B H 0.4926 0.3255 1.2803
C39B C 0.4335(5) 0.4188(3) 1.2880(3)
H34B H 0.3952 0.4062 1.3210
C40B C 0.4287(4) 0.4851(3) 1.2643(3)
H35B H 0.3856 0.5174 1.2797
C41B C 0.4873(3) 0.5040(2) 1.2180(2)
H36B H 0.4850 0.5496 1.2019
C42B C 0.5448(3) 0.49279(16) 1.04752(16)
C43B C 0.5187(7) 0.4392(4) 0.9843(3)
H37B H 0.5800 0.4265 0.9659
H38B H 0.4730 0.4001 0.9891
Nd1B Nd 0.737462(15) 0.665045(9) 1.207039(8)
P1B P 0.68904(8) 0.61582(4) 1.38594(4)
P2B P 0.88441(7) 0.82583(4) 1.56266(4)
O1B O 0.68522(19) 0.63075(11) 1.30904(10)
O2B O 0.84057(18) 0.83538(11) 1.62543(11)
N1B N 0.9638(3) 0.63980(19) 1.30258(16)
O4B O 1.0588(3) 0.63196(18) 1.33929(19)
O5B O 0.9217(2) 0.69832(13) 1.29257(12)
O6B O 0.9038(2) 0.59063(13) 1.27202(14)
N2B N 0.5252(3) 0.70659(15) 1.10218(15)
O7B O 0.4401(2) 0.72506(18) 1.05883(15)
O8B O 0.5344(2) 0.69511(15) 1.16883(12)
O9B O 0.6099(2) 0.69736(13) 1.08373(12)
N3B N 0.7730(3) 0.81018(15) 1.24581(15)
O10B O 0.8104(2) 0.86535(13) 1.26905(15)
O11B O 0.7774(3) 0.78911(13) 1.18567(13)
O12B O 0.7278(2) 0.77161(12) 1.28041(12)
C1B C 0.5545(3) 0.61511(17) 1.39531(18)
C2B C 0.4707(3) 0.6472(2) 1.3432(2)
H1B H 0.4836 0.6655 1.3012
C3B C 0.3680(4) 0.6527(3) 1.3520(3)
H2B H 0.3109 0.6749 1.3161
C4B C 0.3489(4) 0.6261(2) 1.4124(3)
H3B H 0.2782 0.6293 1.4180
C5B C 0.4313(4) 0.5947(2) 1.4648(3)
H4B H 0.4178 0.5772 1.5070
C6B C 0.5334(4) 0.5886(2) 1.4565(2)
H5B H 0.5898 0.5662 1.4927
C7B C 0.7559(3) 0.53673(17) 1.41629(18)
C8B C 0.7995(5) 0.5170(3) 1.4872(3)
H6B H 0.7946 0.5477 1.5239
C9B C 0.8490(6) 0.4572(3) 1.5081(4)
H7B H 0.8755 0.4454 1.5580
C10B C 0.8599(10) 0.4139(5) 1.4561(8)
H8B H 0.8919 0.3706 1.4699
C11B C 0.8246(5) 0.4322(3) 1.3816(3)
H9B H 0.8354 0.4025 1.3457
C12B C 0.7745(5) 0.4939(2) 1.3625(3)
H10B H 0.7523 0.5079 1.3132
C13B C 0.7560(3) 0.68279(16) 1.44546(16)
C14B C 0.8643(3) 0.71870(16) 1.44793(17)
H11B H 0.9320 0.6923 1.4694
H12B H 0.8645 0.7437 1.4036
C15B C 0.7039(3) 0.75479(16) 1.44484(17)
H13B H 0.6404 0.7573 1.4636
H14B H 0.6945 0.7822 1.4005
C16B C 1.0255(3) 0.80013(16) 1.59423(17)
C17B C 1.0917(3) 0.80485(17) 1.54930(18)
H15B H 1.0630 0.8226 1.5016
C18B C 1.1989(3) 0.78389(18) 1.57383(19)
H16B H 1.2440 0.7875 1.5431
C19B C 1.2412(3) 0.75751(19) 1.6433(2)
H17B H 1.3156 0.7440 1.6605
C20B C 1.1748(3) 0.7509(2) 1.68737(19)
H18B H 1.2029 0.7315 1.7343
C21B C 1.0678(3) 0.77249(18) 1.66326(17)
H19B H 1.0227 0.7685 1.6939
C22B C 0.8699(3) 0.90228(17) 1.51083(17)
C23B C 0.8477(3) 0.90341(18) 1.43568(18)
H20B H 0.8432 0.8622 1.4095
C24B C 0.8323(3) 0.96461(18) 1.39947(19)
H21B H 0.8168 0.9653 1.3482
C25B C 0.8391(3) 1.02457(18) 1.4365(2)
H22B H 0.8276 1.0664 1.4110
C26B C 0.8628(3) 1.02388(18) 1.51120(19)
H23B H 0.8691 1.0653 1.5371
C27B C 0.8773(3) 0.96334(18) 1.54805(19)
H24B H 0.8924 0.9632 1.5993
C28B C 0.8186(3) 0.75791(16) 1.50270(15)
C29B C 0.7936(3) 0.68754(17) 1.53021(16)
H25B H 0.7348 0.6865 1.5535
H26B H 0.8577 0.6597 1.5560
Nd1A Nd 0.737462(15) 0.834955(9) 1.707039(8)
Nd1C Nd 0.262538(15) 0.165045(9) 0.292961(8)
O2A O 0.84057(18) 0.66462(11) 1.12543(11)
O2C O 0.15943(18) 0.33538(11) 0.87457(11)
C45? C 0.1449(13) 0.4723(7) 0.5405(8)
H43? H 0.1028 0.4332 0.5217
C46? C 0.0973(14) 0.5347(8) 0.5203(10)
H44? H 0.0297 0.5377 0.4828
C47? C 0.146(2) 0.5911(12) 0.5534(19)
H45? H 0.1072 0.6322 0.5529
C48? C 0.2584(13) 0.5850(7) 0.5890(9)
H46? H 0.3028 0.6243 0.6014
C49? C 0.3036(12) 0.5221(7) 0.6057(8)
H47? H 0.3784 0.5186 0.6333
C50? C 0.5713(6) 0.5436(4) 0.9903(3)
H48? H 0.6324 0.5306 0.9718
H49? H 0.5691 0.5926 1.0006
C51? C 0.4292(6) 0.5160(5) 1.0223(3)
H50? H 0.4164 0.5632 1.0350
H51? H 0.3749 0.4839 1.0305
loop_
_geom_bond_atom_site_label_1
_geom_bond_atom_site_label_2
_geom_bond_site_symmetry_1
_geom_bond_site_symmetry_2
Nd1 O1 1_555 1_555
P1 O1 1_555 1_555
P2 O2 1_555 1_555
P3 O3 1_555 1_555
O2 Nd1C 1_555 1_555
O3 Nd1 1_555 1_555
N1 O4 1_555 1_555
O5 Nd1 1_555 1_555
O6 Nd1 1_555 1_555
N2 O7 1_555 1_555
O8 Nd1 1_555 1_555
O9 Nd1 1_555 1_555
N3 O10 1_555 1_555
O11 Nd1 1_555 1_555
O12 Nd1 1_555 1_555
C1 P1 1_555 1_555
C2 C1 1_555 1_555
H1 C2 1_555 1_555
C3 C2 1_555 1_555
H2 C3 1_555 1_555
C4 C3 1_555 1_555
H3 C4 1_555 1_555
C5 C4 1_555 1_555
H4 C5 1_555 1_555
C6 C1 1_555 1_555
H5 C6 1_555 1_555
C7 P1 1_555 1_555
C8 C7 1_555 1_555
H6 C8 1_555 1_555
C9 C8 1_555 1_555
H7 C9 1_555 1_555
C10 C9 1_555 1_555
H8 C10 1_555 1_555
C11 C10 1_555 1_555
H9 C11 1_555 1_555
C12 C7 1_555 1_555
H10 C12 1_555 1_555
C13 P1 1_555 1_555
C14 C13 1_555 1_555
H11 C14 1_555 1_555
H12 C14 1_555 1_555
C15 C13 1_555 1_555
H13 C15 1_555 1_555
H14 C15 1_555 1_555
C16 P2 1_555 1_555
C17 C16 1_555 1_555
H15 C17 1_555 1_555
C18 C17 1_555 1_555
H16 C18 1_555 1_555
C19 C18 1_555 1_555
H17 C19 1_555 1_555
C20 C19 1_555 1_555
H18 C20 1_555 1_555
C21 C16 1_555 1_555
H19 C21 1_555 1_555
C22 P2 1_555 1_555
C23 C22 1_555 1_555
H20 C23 1_555 1_555
C24 C23 1_555 1_555
H21 C24 1_555 1_555
C25 C24 1_555 1_555
H22 C25 1_555 1_555
C26 C25 1_555 1_555
H23 C26 1_555 1_555
C27 C22 1_555 1_555
H24 C27 1_555 1_555
C28 P2 1_555 1_555
C29 C13 1_555 1_555
H25 C29 1_555 1_555
H26 C29 1_555 1_555
C30 P3 1_555 1_555
C31 C30 1_555 1_555
H27 C31 1_555 1_555
C32 C31 1_555 1_555
H28 C32 1_555 1_555
C33 C32 1_555 1_555
H29 C33 1_555 1_555
C34 C33 1_555 1_555
H30 C34 1_555 1_555
C35 C30 1_555 1_555
H31 C35 1_555 1_555
C36 P3 1_555 1_555
C37 C36 1_555 1_555
H32 C37 1_555 1_555
C38 C37 1_555 1_555
H33 C38 1_555 1_555
C39 C38 1_555 1_555
H34 C39 1_555 1_555
C40 C39 1_555 1_555
H35 C40 1_555 1_555
C41 C36 1_555 1_555
H36 C41 1_555 1_555
C42 P3 1_555 1_555
C43 C42 1_555 1_555
H37 C43 1_555 1_555
H38 C43 1_555 1_555
C44 H39 1_555 1_555
H40 C44 1_555 1_555
H41 C44 1_555 1_555
O13 C44 1_555 1_555
H42 O13 1_555 1_555
P3B O3B 1_555 1_555
O3B Nd1B 1_555 1_555
C30B P3B 1_555 1_555
C31B C30B 1_555 1_555
H27B C31B 1_555 1_555
C32B C31B 1_555 1_555
H28B C32B 1_555 1_555
C33B C32B 1_555 1_555
H29B C33B 1_555 1_555
C34B C33B 1_555 1_555
H30B C34B 1_555 1_555
C35B C30B 1_555 1_555
H31B C35B 1_555 1_555
C36B P3B 1_555 1_555
C37B C36B 1_555 1_555
H32B C37B 1_555 1_555
C38B C37B 1_555 1_555
H33B C38B 1_555 1_555
C39B C38B 1_555 1_555
H34B C39B 1_555 1_555
C40B C39B 1_555 1_555
H35B C40B 1_555 1_555
C41B C36B 1_555 1_555
H36B C41B 1_555 1_555
C42B C43 1_555 1_555
C43B C42 1_555 1_555
H37B C43B 1_555 1_555
H38B C43B 1_555 1_555
Nd1B O1B 1_555 1_555
P1B O1B 1_555 1_555
P2B O2B 1_555 1_555
O2B Nd1A 1_555 1_555
N1B O4B 1_555 1_555
O5B Nd1B 1_555 1_555
O6B Nd1B 1_555 1_555
N2B O7B 1_555 1_555
O8B Nd1B 1_555 1_555
O9B Nd1B 1_555 1_555
N3B O10B 1_555 1_555
O11B Nd1B 1_555 1_555
O12B Nd1B 1_555 1_555
C1B P1B 1_555 1_555
C2B C1B 1_555 1_555
H1B C2B 1_555 1_555
C3B C2B 1_555 1_555
H2B C3B 1_555 1_555
C4B C3B 1_555 1_555
H3B C4B 1_555 1_555
C5B C4B 1_555 1_555
H4B C5B 1_555 1_555
C6B C1B 1_555 1_555
H5B C6B 1_555 1_555
C7B P1B 1_555 1_555
C8B C7B 1_555 1_555
H6B C8B 1_555 1_555
C9B C8B 1_555 1_555
H7B C9B 1_555 1_555
C10B C9B 1_555 1_555
H8B C10B 1_555 1_555
C11B C10B 1_555 1_555
H9B C11B 1_555 1_555
C12B C7B 1_555 1_555
H10B C12B 1_555 1_555
C13B P1B 1_555 1_555
C14B C13B 1_555 1_555
H11B C14B 1_555 1_555
H12B C14B 1_555 1_555
C15B C13B 1_555 1_555
H13B C15B 1_555 1_555
H14B C15B 1_555 1_555
C16B P2B 1_555 1_555
C17B C16B 1_555 1_555
H15B C17B 1_555 1_555
C18B C17B 1_555 1_555
H16B C18B 1_555 1_555
C19B C18B 1_555 1_555
H17B C19B 1_555 1_555
C20B C19B 1_555 1_555
H18B C20B 1_555 1_555
C21B C16B 1_555 1_555
H19B C21B 1_555 1_555
C22B P2B 1_555 1_555
C23B C22B 1_555 1_555
H20B C23B 1_555 1_555
C24B C23B 1_555 1_555
H21B C24B 1_555 1_555
C25B C24B 1_555 1_555
H22B C25B 1_555 1_555
C26B C25B 1_555 1_555
H23B C26B 1_555 1_555
C27B C22B 1_555 1_555
H24B C27B 1_555 1_555
C28B P2B 1_555 1_555
C29B C13B 1_555 1_555
H25B C29B 1_555 1_555
H26B C29B 1_555 1_555
O2A Nd1B 1_555 1_555
O2C Nd1 1_555 1_555
N1 O5 1_555 1_555
N1 O6 1_555 1_555
N2 O8 1_555 1_555
N2 O9 1_555 1_555
N3 O11 1_555 1_555
N3 O12 1_555 1_555
C5 C6 1_555 1_555
C11 C12 1_555 1_555
C14 C28 1_555 1_555
C15 C28 1_555 1_555
C20 C21 1_555 1_555
C26 C27 1_555 1_555
C28 C29 1_555 1_555
C34 C35 1_555 1_555
C40 C41 1_555 1_555
P3B C42B 1_555 1_555
C34B C35B 1_555 1_555
C40B C41B 1_555 1_555
C42B C43B 1_555 1_555
N1B O5B 1_555 1_555
N1B O6B 1_555 1_555
N2B O8B 1_555 1_555
N2B O9B 1_555 1_555
N3B O11B 1_555 1_555
N3B O12B 1_555 1_555
C5B C6B 1_555 1_555
C11B C12B 1_555 1_555
C14B C28B 1_555 1_555
C15B C28B 1_555 1_555
C20B C21B 1_555 1_555
C26B C27B 1_555 1_555
C28B C29B 1_555 1_555

#END
