
#######################################################################
#
#                 Cambridge Crystallographic Data Centre
#                                CCDC 
#
#######################################################################
#
# If this CIF has been generated from an entry in the Cambridge 
# Structural Database, then it will include bibliographic, chemical, 
# crystal, experimental, refinement or atomic coordinate data resulting 
# from the CCDC's data processing and validation procedures.
#
#######################################################################

data_OFOFUL
_symmetry_cell_setting           trigonal
_symmetry_space_group_name_H-M   'P 3'
_symmetry_Int_Tables_number      143
_space_group_name_Hall           'P 3'
loop_
_symmetry_equiv_pos_site_id
_symmetry_equiv_pos_as_xyz
1 x,y,z
2 -y,x-y,z
3 -x+y,-x,z
_cell_length_a                   15.966(2)
_cell_length_b                   15.966(2)
_cell_length_c                   9.3600(19)
_cell_angle_alpha                90
_cell_angle_beta                 90
_cell_angle_gamma                120
_cell_volume                     2066.33
loop_
_atom_site_label
_atom_site_type_symbol
_atom_site_fract_x
_atom_site_fract_y
_atom_site_fract_z
C7 C 0.7787(8) 0.1669(7) 0.8761(11)
H1 H 0.7629 0.2173 0.8850
H2 H 0.7204 0.1051 0.8772
H3 H 0.8124 0.1745 0.7879
N1 N 0.8427(6) 0.1728(6) 1.0002(7)
C8 C 0.7893(8) 0.1693(8) 1.1321(11)
H4 H 0.7909 0.2298 1.1441
H5 H 0.8190 0.1578 1.2131
H6 H 0.7233 0.1180 1.1243
C9 C 0.9367(7) 0.2653(7) 0.9979(12)
H7 H 0.9250 0.3186 0.9931
H8 H 0.9734 0.2664 0.9159
H9 H 0.9724 0.2704 1.0832
C10 C 0.8654(7) 0.0867(7) 0.9856(11)
H10 H 0.8930 0.0910 0.8905
C11 C 0.9326(10) 0.0950(11) 1.085(2)
H11 H 0.9692 0.1609 1.1167
H12 H 0.9754 0.0762 1.0424
H13 H 0.9001 0.0538 1.1649
C12 C 0.7717(7) -0.0119(7) 0.9966(9)
C13 C 0.7296(8) -0.0550(7) 1.1173(11)
H14 H 0.7574 -0.0242 1.2030
C14 C 0.6423(8) -0.1477(8) 1.1218(12)
H15 H 0.6111 -0.1731 1.2081
C15 C 0.6062(9) -0.1977(8) 0.9980(15)
H16 H 0.5542 -0.2607 1.0001
C16 C 0.6482(8) -0.1533(8) 0.8661(13)
H17 H 0.6222 -0.1861 0.7809
C17 C 0.7261(9) -0.0631(9) 0.8636(11)
H18 H 0.7512 -0.0332 0.7763
N2 N 0.7902(9) 0.0431(8) 0.4962(12)
C18 C 0.7159(9) 0.0240(8) 0.4887(12)
C19 C 0.6115(10) -0.0053(13) 0.494(3)
H19 H 0.5930 -0.0043 0.5916
H20 H 0.5735 -0.0694 0.4564
H21 H 0.6008 0.0390 0.4386
Cr1 Cr 1.00466(10) 0.34206(9) 0.50405(15)
Mn1 Mn 1.0000 0.0000 0.53621(19)
Mn2 Mn 0.6667 0.3333 0.6732(2)
Mn3 Mn 1.3333 0.6667 0.3050(2)
O1 O 0.9822(4) 0.2447(4) 0.6497(6)
O2 O 1.0306(4) 0.2589(4) 0.3789(5)
O3 O 0.9876(5) 0.1077(4) 0.6704(6)
O4 O 1.0357(4) 0.1197(4) 0.3915(6)
O5 O 1.0427(4) 0.4421(4) 0.3501(6)
O6 O 1.1440(4) 0.4202(4) 0.5534(6)
O7 O 1.1751(4) 0.5658(4) 0.2561(6)
O8 O 1.2811(5) 0.5443(4) 0.4687(5)
O9 O 0.9644(4) 0.4118(4) 0.6392(5)
O10 O 0.8676(4) 0.2785(4) 0.4474(6)
O11 O 0.8302(4) 0.4043(5) 0.7214(6)
O12 O 0.7291(5) 0.2700(4) 0.5172(6)
C1 C 0.9952(6) 0.1756(6) 0.6028(9)
C2 C 1.0230(6) 0.1857(6) 0.4426(9)
C3 C 1.1319(6) 0.4992(6) 0.3444(8)
C4 C 1.1917(7) 0.4884(7) 0.4684(9)
C5 C 0.8745(7) 0.3788(6) 0.6400(8)
C6 C 0.8133(7) 0.3006(6) 0.5275(9)
N3 N 1.3333 0.6667 0.0582(11)
C20 C 1.3333 0.6667 -0.0500(14)
C21 C 1.3333 0.6667 -0.2172(16)
H22 H 1.3058 0.6015 -0.2514
H23 H 1.3985 0.7043 -0.2514
H24 H 1.2957 0.6942 -0.2514
N4 N 0.6667 0.3333 0.9285(12)
C22 C 0.6667 0.3333 1.0399(14)
C23 C 0.6667 0.3333 1.2113(16)
H25 H 0.6456 0.3765 1.2455
H26 H 0.7309 0.3544 1.2455
H27 H 0.6235 0.2691 1.2455
Cr1A Cr 0.65794(9) -0.33740(13) 0.50405(15)
Cr1B Cr 1.33740(13) -0.00466(10) 0.50405(15)
Mn2_2 Mn 0.6667 -0.6667 0.6732(2)
Mn2_3 Mn 1.6667 0.3333 0.6732(2)
Mn3_2 Mn 0.3333 -0.3333 0.3050(2)
Mn3_3 Mn 1.3333 -0.3333 0.3050(2)
O1A O 0.7553(4) -0.2625(6) 0.6497(6)
O1B O 1.2625(6) 0.0178(4) 0.6497(6)
O2A O 0.7411(4) -0.2283(6) 0.3789(5)
O2B O 1.2283(6) -0.0306(4) 0.3789(5)
O3A O 0.8923(4) -0.1201(6) 0.6704(6)
O3B O 1.1201(6) 0.0124(5) 0.6704(6)
O4A O 0.8803(4) -0.0840(6) 0.3915(6)
O4B O 1.0840(6) -0.0357(4) 0.3915(6)
O5A O 0.5579(4) -0.3994(6) 0.3501(6)
O5B O 1.3994(6) -0.0427(4) 0.3501(6)
O6A O 0.5798(4) -0.2762(6) 0.5534(6)
O6B O 1.2762(6) -0.1440(4) 0.5534(6)
O7A O 0.4342(4) -0.3907(6) 0.2561(6)
O7B O 1.3907(6) -0.1751(4) 0.2561(6)
O7A_2 O 1.4342(4) 0.6093(6) 0.2561(6)
O7B_2 O 1.3907(6) 0.8249(4) 0.2561(6)
O8A O 0.4557(4) -0.2632(6) 0.4687(5)
O8B O 1.2632(6) -0.2811(5) 0.4687(5)
O8A_2 O 1.4557(4) 0.7368(6) 0.4687(5)
O8B_2 O 1.2632(6) 0.7189(5) 0.4687(5)
O9A O 0.5882(4) -0.4474(6) 0.6392(5)
O9B O 1.4474(6) 0.0356(4) 0.6392(5)
O10A O 0.7215(4) -0.4109(6) 0.4474(6)
O10B O 1.4109(6) 0.1324(4) 0.4474(6)
O11A O 0.5957(5) -0.5741(6) 0.7214(6)
O11B O 1.5741(6) 0.1698(4) 0.7214(6)
O11A_2 O 0.5957(5) 0.4259(6) 0.7214(6)
O11B_2 O 0.5741(6) 0.1698(4) 0.7214(6)
O12A O 0.7300(4) -0.5409(6) 0.5172(6)
O12B O 1.5409(6) 0.2709(5) 0.5172(6)
O12A_2 O 0.7300(4) 0.4591(6) 0.5172(6)
O12B_2 O 0.5409(6) 0.2709(5) 0.5172(6)
C1A C 0.8244(6) -0.1804(8) 0.6028(9)
C1B C 1.1804(8) 0.0048(6) 0.6028(9)
C2A C 0.8143(6) -0.1627(8) 0.4426(9)
C2B C 1.1627(8) -0.0230(6) 0.4426(9)
C3A C 0.5008(6) -0.3673(8) 0.3444(8)
C3B C 1.3673(8) -0.1319(6) 0.3444(8)
C4A C 0.5116(7) -0.2967(10) 0.4684(9)
C4B C 1.2967(10) -0.1917(7) 0.4684(9)
C5A C 0.6212(6) -0.5043(9) 0.6400(8)
C5B C 1.5043(9) 0.1255(7) 0.6400(8)
C6A C 0.6994(6) -0.4873(9) 0.5275(9)
C6B C 1.4873(9) 0.1867(7) 0.5275(9)
loop_
_geom_bond_atom_site_label_1
_geom_bond_atom_site_label_2
_geom_bond_site_symmetry_1
_geom_bond_site_symmetry_2
Cr1 O1 1_555 1_555
Mn1 O3 1_555 1_555
Mn2 O11 1_555 1_555
Mn3 O7 1_555 1_555
O1 C1 1_555 1_555
O2 Cr1 1_555 1_555
O3 C1 1_555 1_555
O4 Mn1 1_555 1_555
O5 Cr1 1_555 1_555
O6 Cr1 1_555 1_555
O7 C3 1_555 1_555
O8 Mn3 1_555 1_555
O9 Cr1 1_555 1_555
O10 Cr1 1_555 1_555
O11 C5 1_555 1_555
O12 Mn2 1_555 1_555
C1 C2 1_555 1_555
C2 O2 1_555 1_555
C3 O5 1_555 1_555
C4 O6 1_555 1_555
C5 O9 1_555 1_555
C6 O10 1_555 1_555
C7 H1 1_555 1_555
H2 C7 1_555 1_555
H3 C7 1_555 1_555
N1 C7 1_555 1_555
C8 N1 1_555 1_555
H4 C8 1_555 1_555
H5 C8 1_555 1_555
H6 C8 1_555 1_555
C9 N1 1_555 1_555
H7 C9 1_555 1_555
H8 C9 1_555 1_555
H9 C9 1_555 1_555
C10 N1 1_555 1_555
H10 C10 1_555 1_555
C11 C10 1_555 1_555
H11 C11 1_555 1_555
H12 C11 1_555 1_555
H13 C11 1_555 1_555
C12 C10 1_555 1_555
C13 C12 1_555 1_555
H14 C13 1_555 1_555
C14 C13 1_555 1_555
H15 C14 1_555 1_555
C15 C14 1_555 1_555
H16 C15 1_555 1_555
C16 C15 1_555 1_555
H17 C16 1_555 1_555
C17 C12 1_555 1_555
H18 C17 1_555 1_555
N2 C18 1_555 1_555
C18 C19 1_555 1_555
C19 H19 1_555 1_555
H20 C19 1_555 1_555
H21 C19 1_555 1_555
N3 Mn3 1_555 1_555
C20 N3 1_555 1_555
C21 C20 1_555 1_555
H22 C21 1_555 1_555
H23 C21 1_555 1_555
H24 C21 1_555 1_555
N4 Mn2 1_555 1_555
C22 N4 1_555 1_555
C23 C22 1_555 1_555
H25 C23 1_555 1_555
H26 C23 1_555 1_555
H27 C23 1_555 1_555
Cr1A O1A 1_555 1_555
Cr1B O1B 1_555 1_555
Mn2_2 O11A 1_555 1_555
Mn2_3 O11B 1_555 1_555
Mn3_2 O7A 1_555 1_555
Mn3_3 O7B 1_555 1_555
O1A C1A 1_555 1_555
O1B C1B 1_555 1_555
O2A Cr1A 1_555 1_555
O2B Cr1B 1_555 1_555
O3A Mn1 1_555 1_555
O3B Mn1 1_555 1_555
O4A Mn1 1_555 1_555
O4B Mn1 1_555 1_555
O5A Cr1A 1_555 1_555
O5B Cr1B 1_555 1_555
O6A Cr1A 1_555 1_555
O6B Cr1B 1_555 1_555
O7A C3A 1_555 1_555
O7B C3B 1_555 1_555
O7A_2 Mn3 1_555 1_555
O7B_2 Mn3 1_555 1_555
O8A Mn3_2 1_555 1_555
O8B Mn3_3 1_555 1_555
O8A_2 Mn3 1_555 1_555
O8B_2 Mn3 1_555 1_555
O9A Cr1A 1_555 1_555
O9B Cr1B 1_555 1_555
O10A Cr1A 1_555 1_555
O10B Cr1B 1_555 1_555
O11A C5A 1_555 1_555
O11B C5B 1_555 1_555
O11A_2 Mn2 1_555 1_555
O11B_2 Mn2 1_555 1_555
O12A Mn2_2 1_555 1_555
O12B Mn2_3 1_555 1_555
O12A_2 Mn2 1_555 1_555
O12B_2 Mn2 1_555 1_555
C1A O3A 1_555 1_555
C1B O3B 1_555 1_555
C2A O2A 1_555 1_555
C2B O2B 1_555 1_555
C3A O5A 1_555 1_555
C3B O5B 1_555 1_555
C4A O6A 1_555 1_555
C4B O6B 1_555 1_555
C5A O9A 1_555 1_555
C5B O9B 1_555 1_555
C6A O10A 1_555 1_555
C6B O10B 1_555 1_555
O4 C2 1_555 1_555
O8 C4 1_555 1_555
O12 C6 1_555 1_555
C3 C4 1_555 1_555
C5 C6 1_555 1_555
C16 C17 1_555 1_555
O4A C2A 1_555 1_555
O4B C2B 1_555 1_555
O8A C4A 1_555 1_555
O8B C4B 1_555 1_555
O12A C6A 1_555 1_555
O12B C6B 1_555 1_555
C1A C2A 1_555 1_555
C1B C2B 1_555 1_555
C3A C4A 1_555 1_555
C3B C4B 1_555 1_555
C5A C6A 1_555 1_555
C5B C6B 1_555 1_555

#END
