
#######################################################################
#
#                 Cambridge Crystallographic Data Centre
#                                CCDC 
#
#######################################################################
#
# If this CIF has been generated from an entry in the Cambridge 
# Structural Database, then it will include bibliographic, chemical, 
# crystal, experimental, refinement or atomic coordinate data resulting 
# from the CCDC's data processing and validation procedures.
#
#######################################################################

data_OFOHEY
_symmetry_cell_setting           triclinic
_symmetry_space_group_name_H-M   'P -1'
_symmetry_Int_Tables_number      2
_space_group_name_Hall           '-P 1'
loop_
_symmetry_equiv_pos_site_id
_symmetry_equiv_pos_as_xyz
1 x,y,z
2 -x,-y,-z
_cell_length_a                   8.5445(12)
_cell_length_b                   8.7026(12)
_cell_length_c                   11.4451(17)
_cell_angle_alpha                77.009(12)
_cell_angle_beta                 76.965(13)
_cell_angle_gamma                67.398(14)
_cell_volume                     756.363
loop_
_atom_site_label
_atom_site_type_symbol
_atom_site_fract_x
_atom_site_fract_y
_atom_site_fract_z
Pd1 Pd 0.5000 0.5000 0.0000
Pd2 Pd 1.0000 1.0000 0.5000
Zn1 Zn 0.66923(17) 0.84350(19) 0.23601(14)
N1 N 0.5635(11) 0.7314(13) 0.4027(9)
H1 H 0.6311 0.6246 0.4195
H2 H 0.4597 0.7355 0.3972
H3 H 0.5553 0.7871 0.4615
C1 C 0.8477(15) 1.2424(17) 0.4780(13)
N2 N 0.8089(12) 0.9161(14) 0.3333(10)
N3 N 0.8794(12) 0.2860(14) 0.0312(10)
N4 N 0.4495(12) 1.0813(14) 0.2519(10)
N5 N 0.5366(12) 0.7541(14) 0.1392(10)
C2 C 0.2993(15) 1.1101(17) 0.2194(12)
H4 H 0.2860 1.0245 0.1910
N6 N 0.7567(12) 1.3754(14) 0.4673(10)
N7 N 0.7769(11) 0.9554(13) 0.0673(9)
H5 H 0.7076 0.9813 0.0127
H6 H 0.8791 0.8830 0.0414
H7 H 0.7887 1.0485 0.0776
C3 C 0.8767(15) 0.9503(17) 0.3945(13)
C4 C 0.7407(16) 0.3674(17) 0.0177(13)
C5 C 0.1655(15) 1.2565(17) 0.2254(12)
H8 H 0.0643 1.2658 0.2022
C6 C 0.4635(15) 1.2079(17) 0.2873(12)
H9 H 0.5691 1.1961 0.3047
C7 C 0.5164(15) 0.6634(17) 0.0885(13)
C8 C 0.3268(14) 1.3604(17) 0.3001(12)
H10 H 0.3397 1.4422 0.3334
C9 C 0.1710(16) 1.3902(17) 0.2632(13)
C10 C 0.0335(14) 1.5562(17) 0.2785(12)
H11 H -0.0024 1.5602 0.3648
H12 H 0.0830 1.6432 0.2451
N8 N -0.1208(11) 1.5992(13) 0.2232(10)
H13 H -0.1663 1.5184 0.2556
H14 H -0.0855 1.5914 0.1438
Zn1A Zn 0.33077(17) 0.15650(19) -0.23601(14)
N1A N 0.4365(11) 0.2686(13) -0.4027(9)
H1A H 0.3689 0.3754 -0.4195
H2A H 0.5403 0.2645 -0.3972
H3A H 0.4447 0.2129 -0.4615
N2A N 0.1911(12) 0.0839(14) -0.3333(10)
N3A N 0.1206(12) 0.7140(14) -0.0312(10)
N4A N 0.5505(12) -0.0813(14) -0.2519(10)
N5A N 0.4634(12) 0.2459(14) -0.1392(10)
C2A C 0.7007(15) -0.1101(17) -0.2194(12)
H4A H 0.7140 -0.0245 -0.1910
N7A N 0.2231(11) 0.0446(13) -0.0673(9)
H5A H 0.2924 0.0187 -0.0127
H6A H 0.1209 0.1170 -0.0414
H7A H 0.2113 -0.0485 -0.0776
C3A C 0.1233(15) 0.0497(17) -0.3945(13)
C4A C 0.2593(16) 0.6326(17) -0.0177(13)
C5A C 0.8345(15) -0.2565(17) -0.2254(12)
H8A H 0.9357 -0.2658 -0.2022
C6A C 0.5365(15) -0.2079(17) -0.2873(12)
H9A H 0.4309 -0.1961 -0.3047
C7A C 0.4836(15) 0.3366(17) -0.0885(13)
C8A C 0.6732(14) -0.3604(17) -0.3001(12)
H10A H 0.6603 -0.4422 -0.3334
C9A C 0.8290(16) -0.3902(17) -0.2632(13)
C10A C 0.9665(14) -0.5562(17) -0.2785(12)
H11A H 1.0024 -0.5602 -0.3648
H12A H 0.9170 -0.6432 -0.2451
N8A N 1.1208(11) -0.5992(13) -0.2232(10)
H13A H 1.1663 -0.5184 -0.2556
H14A H 1.0855 -0.5914 -0.1438
C1A C 1.1523(15) 0.7576(17) 0.5220(13)
N6A N 1.2433(12) 0.6246(14) 0.5327(10)
Pd2_2 Pd 0.0000 0.0000 -0.5000
Zn1_2 Zn -0.33077(17) 1.84350(19) 0.23601(14)
Zn1A_2 Zn 1.33077(17) -0.84350(19) -0.23601(14)
C3A_2 C 1.1233(15) 1.0497(17) 0.6055(13)
N8_2 N 0.8792(11) 0.5992(13) 0.2232(10)
N8A_2 N 0.1208(11) 0.4008(13) -0.2232(10)
loop_
_geom_bond_atom_site_label_1
_geom_bond_atom_site_label_2
_geom_bond_site_symmetry_1
_geom_bond_site_symmetry_2
Pd1 C4 1_555 1_555
Pd2 C1 1_555 1_555
Zn1 N1 1_555 1_555
N1 H1 1_555 1_555
H2 N1 1_555 1_555
H3 N1 1_555 1_555
C1 N6 1_555 1_555
N2 Zn1 1_555 1_555
N3 C4 1_555 1_555
N4 Zn1 1_555 1_555
N5 Zn1 1_555 1_555
C2 N4 1_555 1_555
H4 C2 1_555 1_555
N7 Zn1 1_555 1_555
H5 N7 1_555 1_555
H6 N7 1_555 1_555
H7 N7 1_555 1_555
C3 Pd2 1_555 1_555
C5 C2 1_555 1_555
H8 C5 1_555 1_555
C6 N4 1_555 1_555
H9 C6 1_555 1_555
C7 Pd1 1_555 1_555
C8 C6 1_555 1_555
H10 C8 1_555 1_555
C9 C5 1_555 1_555
C10 C9 1_555 1_555
H11 C10 1_555 1_555
H12 C10 1_555 1_555
N8 C10 1_555 1_555
H13 N8 1_555 1_555
H14 N8 1_555 1_555
Zn1A N1A 1_555 1_555
N1A H1A 1_555 1_555
H2A N1A 1_555 1_555
H3A N1A 1_555 1_555
N2A Zn1A 1_555 1_555
N3A C4A 1_555 1_555
N4A Zn1A 1_555 1_555
N5A Zn1A 1_555 1_555
C2A N4A 1_555 1_555
H4A C2A 1_555 1_555
N7A Zn1A 1_555 1_555
H5A N7A 1_555 1_555
H6A N7A 1_555 1_555
H7A N7A 1_555 1_555
C3A N2A 1_555 1_555
C4A Pd1 1_555 1_555
C5A C2A 1_555 1_555
H8A C5A 1_555 1_555
C6A N4A 1_555 1_555
H9A C6A 1_555 1_555
C7A Pd1 1_555 1_555
C8A C6A 1_555 1_555
H10A C8A 1_555 1_555
C9A C5A 1_555 1_555
C10A C9A 1_555 1_555
H11A C10A 1_555 1_555
H12A C10A 1_555 1_555
N8A C10A 1_555 1_555
H13A N8A 1_555 1_555
H14A N8A 1_555 1_555
C1A Pd2 1_555 1_555
N6A C1A 1_555 1_555
Pd2_2 C3A 1_555 1_555
Zn1_2 N8 1_555 1_555
Zn1A_2 N8A 1_555 1_555
C3A_2 Pd2 1_555 1_555
N8_2 Zn1 1_555 1_555
N8A_2 Zn1A 1_555 1_555
N2 C3 1_555 1_555
N5 C7 1_555 1_555
C8 C9 1_555 1_555
N5A C7A 1_555 1_555
C8A C9A 1_555 1_555

#END
