
#######################################################################
#
#                 Cambridge Crystallographic Data Centre
#                                CCDC 
#
#######################################################################
#
# If this CIF has been generated from an entry in the Cambridge 
# Structural Database, then it will include bibliographic, chemical, 
# crystal, experimental, refinement or atomic coordinate data resulting 
# from the CCDC's data processing and validation procedures.
#
#######################################################################

data_OFOHAU
_symmetry_cell_setting           triclinic
_symmetry_space_group_name_H-M   'P -1'
_symmetry_Int_Tables_number      2
_space_group_name_Hall           '-P 1'
loop_
_symmetry_equiv_pos_site_id
_symmetry_equiv_pos_as_xyz
1 x,y,z
2 -x,-y,-z
_cell_length_a                   8.4953(8)
_cell_length_b                   8.6323(11)
_cell_length_c                   11.1956(12)
_cell_angle_alpha                77.359(10)
_cell_angle_beta                 78.221(8)
_cell_angle_gamma                68.144(10)
_cell_volume                     736.682
loop_
_atom_site_label
_atom_site_type_symbol
_atom_site_fract_x
_atom_site_fract_y
_atom_site_fract_z
Zn1 Zn 0.82448(9) 0.66119(9) 0.26639(8)
Ni1 Ni 0.5000 0.5000 0.0000
Ni2 Ni 1.0000 1.0000 0.5000
N1 N 0.7223(6) 0.5497(7) 0.4347(5)
H1 H 0.7045 0.4590 0.4234
H2 H 0.6236 0.6237 0.4629
H3 H 0.7955 0.5193 0.4893
N2 N 0.9314(6) 0.7718(7) 0.0985(5)
H4 H 0.9464 0.7109 0.0398
H5 H 1.0319 0.7747 0.1075
H6 H 0.8612 0.8765 0.0773
N3 N 1.0456(6) 0.4195(6) 0.2506(5)
N4 N 0.9667(6) 0.7444(7) 0.3701(5)
N5 N 0.6882(7) 0.5833(7) 0.1625(6)
N6 N 0.6293(7) 1.1961(8) 0.4685(6)
C1 C 0.7695(9) 1.1243(8) 0.4802(6)
C2 C 0.6169(8) 0.5522(8) 0.1012(7)
C3 C 0.9827(7) 0.8383(8) 0.4216(6)
C4 C 1.2040(8) 0.4021(8) 0.2670(6)
H7 H 1.2216 0.4955 0.2827
C5 C 1.3422(8) 0.2537(8) 0.2620(6)
H8 H 1.4483 0.2474 0.2771
C6 C 1.0268(8) 0.2842(8) 0.2245(7)
H9 H 0.9185 0.2929 0.2125
C7 C 0.6481(8) 0.2748(9) 0.0175(7)
C8 C 1.3213(8) 0.1144(8) 0.2344(6)
C9 C 1.1580(8) 0.1323(8) 0.2143(6)
H10 H 1.1381 0.0428 0.1942
C10 C 1.4637(7) -0.0510(8) 0.2188(7)
H11 H 1.4170 -0.1413 0.2496
H12 H 1.5014 -0.0523 0.1310
N7 N 1.6159(6) -0.0899(6) 0.2802(5)
H13 H 1.5797 -0.0832 0.3609
H14 H 1.6616 -0.0083 0.2489
N8 N 0.7380(8) 0.1371(8) 0.0291(6)
Zn1A Zn 0.17552(9) 0.33881(9) -0.26639(8)
N1A N 0.2777(6) 0.4503(7) -0.4347(5)
H1A H 0.2955 0.5410 -0.4234
H2A H 0.3764 0.3763 -0.4629
H3A H 0.2045 0.4807 -0.4893
N2A N 0.0686(6) 0.2282(7) -0.0985(5)
H4A H 0.0536 0.2891 -0.0398
H5A H -0.0319 0.2253 -0.1075
H6A H 0.1388 0.1235 -0.0773
N3A N -0.0456(6) 0.5805(6) -0.2506(5)
N4A N 0.0333(6) 0.2556(7) -0.3701(5)
N5A N 0.3118(7) 0.4167(7) -0.1625(6)
C2A C 0.3831(8) 0.4478(8) -0.1012(7)
C3A C 0.0173(7) 0.1617(8) -0.4216(6)
C4A C -0.2040(8) 0.5979(8) -0.2670(6)
H7A H -0.2216 0.5045 -0.2827
C5A C -0.3422(8) 0.7463(8) -0.2620(6)
H8A H -0.4483 0.7526 -0.2771
C6A C -0.0268(8) 0.7158(8) -0.2245(7)
H9A H 0.0815 0.7071 -0.2125
C7A C 0.3519(8) 0.7252(9) -0.0175(7)
C8A C -0.3213(8) 0.8856(8) -0.2344(6)
C9A C -0.1580(8) 0.8677(8) -0.2143(6)
H10A H -0.1381 0.9572 -0.1942
C10A C -0.4637(7) 1.0510(8) -0.2188(7)
H11A H -0.4170 1.1413 -0.2496
H12A H -0.5014 1.0523 -0.1310
N7A N -0.6159(6) 1.0899(6) -0.2802(5)
H13A H -0.5797 1.0832 -0.3609
H14A H -0.6616 1.0083 -0.2489
N8A N 0.2620(8) 0.8629(8) -0.0291(6)
N6A N 1.3707(7) 0.8039(8) 0.5315(6)
C1A C 1.2305(9) 0.8757(8) 0.5198(6)
Zn1_2 Zn 1.82448(9) -0.33881(9) 0.26639(8)
Zn1A_2 Zn -0.82448(9) 1.33881(9) -0.26639(8)
Ni2_2 Ni 0.0000 0.0000 -0.5000
C3A_2 C 1.0173(7) 1.1617(8) 0.5784(6)
N7_2 N 0.6159(6) 0.9101(6) 0.2802(5)
N7A_2 N 0.3841(6) 0.0899(6) -0.2802(5)
loop_
_geom_bond_atom_site_label_1
_geom_bond_atom_site_label_2
_geom_bond_site_symmetry_1
_geom_bond_site_symmetry_2
Zn1 N1 1_555 1_555
Ni1 C2 1_555 1_555
Ni2 C1 1_555 1_555
N1 H1 1_555 1_555
H2 N1 1_555 1_555
H3 N1 1_555 1_555
N2 Zn1 1_555 1_555
H4 N2 1_555 1_555
H5 N2 1_555 1_555
H6 N2 1_555 1_555
N3 Zn1 1_555 1_555
N4 Zn1 1_555 1_555
N5 Zn1 1_555 1_555
N6 C1 1_555 1_555
C2 N5 1_555 1_555
C3 Ni2 1_555 1_555
C4 N3 1_555 1_555
H7 C4 1_555 1_555
C5 C4 1_555 1_555
H8 C5 1_555 1_555
C6 N3 1_555 1_555
H9 C6 1_555 1_555
C7 Ni1 1_555 1_555
C8 C5 1_555 1_555
C9 C6 1_555 1_555
H10 C9 1_555 1_555
C10 C8 1_555 1_555
H11 C10 1_555 1_555
H12 C10 1_555 1_555
N7 C10 1_555 1_555
H13 N7 1_555 1_555
H14 N7 1_555 1_555
N8 C7 1_555 1_555
Zn1A N1A 1_555 1_555
N1A H1A 1_555 1_555
H2A N1A 1_555 1_555
H3A N1A 1_555 1_555
N2A Zn1A 1_555 1_555
H4A N2A 1_555 1_555
H5A N2A 1_555 1_555
H6A N2A 1_555 1_555
N3A Zn1A 1_555 1_555
N4A Zn1A 1_555 1_555
N5A Zn1A 1_555 1_555
C2A Ni1 1_555 1_555
C3A N4A 1_555 1_555
C4A N3A 1_555 1_555
H7A C4A 1_555 1_555
C5A C4A 1_555 1_555
H8A C5A 1_555 1_555
C6A N3A 1_555 1_555
H9A C6A 1_555 1_555
C7A Ni1 1_555 1_555
C8A C5A 1_555 1_555
C9A C6A 1_555 1_555
H10A C9A 1_555 1_555
C10A C8A 1_555 1_555
H11A C10A 1_555 1_555
H12A C10A 1_555 1_555
N7A C10A 1_555 1_555
H13A N7A 1_555 1_555
H14A N7A 1_555 1_555
N8A C7A 1_555 1_555
N6A C1A 1_555 1_555
C1A Ni2 1_555 1_555
Zn1_2 N7 1_555 1_555
Zn1A_2 N7A 1_555 1_555
Ni2_2 C3A 1_555 1_555
C3A_2 Ni2 1_555 1_555
N7_2 Zn1 1_555 1_555
N7A_2 Zn1A 1_555 1_555
N4 C3 1_555 1_555
C8 C9 1_555 1_555
N5A C2A 1_555 1_555
C8A C9A 1_555 1_555

#END
