
#######################################################################
#
#                 Cambridge Crystallographic Data Centre
#                                CCDC 
#
#######################################################################
#
# If this CIF has been generated from an entry in the Cambridge 
# Structural Database, then it will include bibliographic, chemical, 
# crystal, experimental, refinement or atomic coordinate data resulting 
# from the CCDC's data processing and validation procedures.
#
#######################################################################

data_OFOJAV
_symmetry_cell_setting           monoclinic
_symmetry_space_group_name_H-M   'P 21'
_symmetry_Int_Tables_number      4
_space_group_name_Hall           'P 2yb'
loop_
_symmetry_equiv_pos_site_id
_symmetry_equiv_pos_as_xyz
1 x,y,z
2 -x,1/2+y,-z
_cell_length_a                   10.989(7)
_cell_length_b                   7.694(5)
_cell_length_c                   11.353(7)
_cell_angle_alpha                90
_cell_angle_beta                 117.750(6)
_cell_angle_gamma                90
_cell_volume                     849.49
loop_
_atom_site_label
_atom_site_type_symbol
_atom_site_fract_x
_atom_site_fract_y
_atom_site_fract_z
Nd1 Nd 0.01521(3) 0.22004(12) 0.47058(3)
N1 N 0.2897(3) 0.2325(10) 0.5746(4)
C1 C 0.3602(6) 0.0765(8) 0.5933(7)
C2 C 0.5002(6) 0.0774(9) 0.6317(8)
H1 H 0.5483 -0.0292 0.6445
C3 C 0.5697(3) 0.2343(12) 0.6514(4)
H2 H 0.6654 0.2349 0.6776
C4 C 0.4993(7) 0.3903(9) 0.6327(8)
H3 H 0.5468 0.4975 0.6461
C5 C 0.3593(7) 0.3894(8) 0.5943(8)
H4 H 0.3112 0.4961 0.5815
C6 C 0.2822(8) -0.0912(12) 0.5761(8)
O1 O 0.1497(5) -0.0724(8) 0.5345(5)
O2 O 0.3422(6) -0.2380(8) 0.6002(6)
N2 N 0.0964(4) 0.2079(9) 0.2885(3)
C7 C 0.1110(6) 0.3666(8) 0.2379(6)
C8 C 0.1452(7) 0.3712(9) 0.1345(6)
H5 H 0.1552 0.4797 0.0999
C9 C 0.1649(4) 0.2172(11) 0.0817(3)
H6 H 0.1883 0.2203 0.0110
C10 C 0.1503(8) 0.0585(9) 0.1323(7)
H7 H 0.1637 -0.0468 0.0962
C11 C 0.1161(8) 0.0538(7) 0.2357(6)
H8 H 0.1061 -0.0546 0.2703
C12 C 0.0823(8) 0.5226(10) 0.2989(8)
O3 O 0.0498(6) 0.4937(7) 0.3947(5)
O4 O 0.0964(6) 0.6636(8) 0.2601(6)
N3 N -0.1916(3) 0.2308(10) 0.2223(3)
C13 C -0.2451(6) 0.0752(8) 0.1561(5)
C14 C -0.3514(7) 0.0769(9) 0.0264(5)
H9 H -0.3879 -0.0295 -0.0189
C15 C -0.4043(3) 0.2342(11) -0.0371(3)
H10 H -0.4770 0.2353 -0.1258
C16 C -0.3508(7) 0.3898(9) 0.0291(6)
H11 H -0.3870 0.4973 -0.0144
C17 C -0.2445(8) 0.3881(8) 0.1588(6)
H12 H -0.2080 0.4944 0.2040
C18 C -0.1939(7) -0.0899(11) 0.2321(7)
O5 O -0.2426(6) -0.2300(7) 0.1751(6)
O6 O -0.0995(5) -0.0690(8) 0.3538(5)
Nd1A Nd -0.01521(3) -0.27996(12) 0.52942(3)
Nd1A_2 Nd -0.01521(3) 0.72004(12) 0.52942(3)
O1A O -0.1497(5) 0.4276(8) 0.4655(5)
O3A O -0.0498(6) -0.0063(7) 0.6053(5)
O6A O 0.0995(5) 0.4310(8) 0.6462(5)
loop_
_geom_bond_atom_site_label_1
_geom_bond_atom_site_label_2
_geom_bond_site_symmetry_1
_geom_bond_site_symmetry_2
Nd1 N1 1_555 1_555
N1 C1 1_555 1_555
C1 C2 1_555 1_555
C2 H1 1_555 1_555
C3 C2 1_555 1_555
H2 C3 1_555 1_555
C4 C3 1_555 1_555
H3 C4 1_555 1_555
C5 N1 1_555 1_555
H4 C5 1_555 1_555
C6 C1 1_555 1_555
O1 Nd1 1_555 1_555
O2 C6 1_555 1_555
N2 Nd1 1_555 1_555
C7 N2 1_555 1_555
C8 C7 1_555 1_555
H5 C8 1_555 1_555
C9 C8 1_555 1_555
H6 C9 1_555 1_555
C10 C9 1_555 1_555
H7 C10 1_555 1_555
C11 N2 1_555 1_555
H8 C11 1_555 1_555
C12 C7 1_555 1_555
O3 Nd1 1_555 1_555
O4 C12 1_555 1_555
N3 Nd1 1_555 1_555
C13 N3 1_555 1_555
C14 C13 1_555 1_555
H9 C14 1_555 1_555
C15 C14 1_555 1_555
H10 C15 1_555 1_555
C16 C15 1_555 1_555
H11 C16 1_555 1_555
C17 N3 1_555 1_555
H12 C17 1_555 1_555
C18 C13 1_555 1_555
O5 C18 1_555 1_555
O6 Nd1 1_555 1_555
Nd1A O1 1_555 1_555
Nd1A_2 O3 1_555 1_555
O1A Nd1 1_555 1_555
O3A Nd1 1_555 1_555
O6A Nd1 1_555 1_555
C4 C5 1_555 1_555
C6 O1 1_555 1_555
C10 C11 1_555 1_555
C12 O3 1_555 1_555
C16 C17 1_555 1_555
C18 O6 1_555 1_555
O6 Nd1A 1_555 1_555
Nd1A O3A 1_555 1_555
Nd1A_2 O1A 1_555 1_555
Nd1A_2 O6A 1_555 1_555

#END
