
#######################################################################
#
#                 Cambridge Crystallographic Data Centre
#                                CCDC 
#
#######################################################################
#
# If this CIF has been generated from an entry in the Cambridge 
# Structural Database, then it will include bibliographic, chemical, 
# crystal, experimental, refinement or atomic coordinate data resulting 
# from the CCDC's data processing and validation procedures.
#
#######################################################################

data_OFOJUO
_symmetry_cell_setting           tetragonal
_symmetry_space_group_name_H-M   'P 4/n c c'
_symmetry_Int_Tables_number      130
_space_group_name_Hall           '-P 4a 2ac'
loop_
_symmetry_equiv_pos_site_id
_symmetry_equiv_pos_as_xyz
1 x,y,z
2 1/2-y,x,z
3 y,1/2-x,z
4 1/2+y,1/2+x,1/2-z
5 1/2+x,1/2+y,-z
6 x,1/2-y,1/2+z
7 1/2-x,y,1/2+z
8 y,x,1/2+z
9 -x,-y,-z
10 1/2+y,-x,-z
11 -y,1/2+x,-z
12 1/2-y,1/2-x,1/2+z
13 1/2-x,1/2-y,z
14 -x,1/2+y,1/2-z
15 1/2+x,-y,1/2-z
16 -y,-x,1/2-z
_cell_length_a                   14.604(2)
_cell_length_b                   14.604(2)
_cell_length_c                   16.949(3)
_cell_angle_alpha                90
_cell_angle_beta                 90
_cell_angle_gamma                90
_cell_volume                     3614.83
loop_
_atom_site_label
_atom_site_type_symbol
_atom_site_fract_x
_atom_site_fract_y
_atom_site_fract_z
Ni1 Ni 0.2500 0.2500 0.28417(10)
Mn1 Mn 0.54499(7) 0.04499(7) 0.2500
O1 O 0.6244(3) 0.0880(3) 0.3300(3)
N1 N 0.4923(5) -0.0478(4) 0.3224(3)
N2 N 0.4302(4) 0.1480(4) 0.2807(4)
C1 C 0.6428(4) 0.0499(5) 0.3983(4)
C2 C 0.7109(5) 0.0900(6) 0.4456(4)
H1 H 0.7416 0.1417 0.4277
C3 C 0.7327(5) 0.0537(8) 0.5180(5)
H2 H 0.7788 0.0809 0.5478
C4 C 0.6886(6) -0.0209(9) 0.5472(5)
H3 H 0.7044 -0.0445 0.5963
C5 C 0.6211(6) -0.0606(7) 0.5038(5)
H4 H 0.5906 -0.1117 0.5234
C6 C 0.5972(5) -0.0252(6) 0.4297(4)
C7 C 0.5235(7) -0.0702(6) 0.3891(5)
H5 H 0.4965 -0.1201 0.4141
C8 C 0.4160(11) -0.0991(9) 0.2865(6)
H6 H 0.4279 -0.1640 0.2932
H7 H 0.3606 -0.0850 0.3157
C9 C 0.3618(5) 0.1881(4) 0.2824(4)
C8C C 0.4009(9) -0.0840(11) 0.2135(6)
N1C N 0.4522(4) -0.0077(5) 0.1776(3)
C7C C 0.4298(6) 0.0235(7) 0.1109(5)
C6C C 0.4748(6) 0.0972(5) 0.0703(4)
C1C C 0.5499(5) 0.1428(4) 0.1017(4)
O1C O 0.5880(3) 0.1244(3) 0.1700(3)
C2C C 0.5900(6) 0.2109(5) 0.0544(4)
H1C H 0.6417 0.2416 0.0723
C3C C 0.5537(8) 0.2327(5) -0.0180(5)
H2C H 0.5809 0.2788 -0.0478
C4C C 0.4791(9) 0.1886(6) -0.0472(5)
H3C H 0.4555 0.2044 -0.0963
C5C C 0.4394(7) 0.1211(6) -0.0038(5)
H4C H 0.3883 0.0906 -0.0234
H5C H 0.3799 -0.0035 0.0859
H6C H 0.3360 -0.0721 0.2068
H7C H 0.4150 -0.1394 0.1843
N2A N 0.3520(4) 0.4302(4) 0.2807(4)
C9A C 0.3119(4) 0.3618(5) 0.2824(4)
N2B N 0.1480(4) 0.0698(4) 0.2807(4)
C9B C 0.1881(4) 0.1382(5) 0.2824(4)
N2L N 0.0698(4) 0.3520(4) 0.2807(4)
C9L C 0.1382(5) 0.3119(4) 0.2824(4)
Mn1A Mn 0.45501(7) 0.54499(7) 0.2500
O1A O 0.4120(3) 0.6244(3) 0.3300(3)
N1A N 0.5478(4) 0.4923(5) 0.3224(3)
C1A C 0.4501(5) 0.6428(4) 0.3983(4)
C2A C 0.4100(6) 0.7109(5) 0.4456(4)
H1A H 0.3583 0.7416 0.4277
C3A C 0.4463(8) 0.7327(5) 0.5180(5)
H2A H 0.4191 0.7788 0.5478
C4A C 0.5209(9) 0.6886(6) 0.5472(5)
H3A H 0.5445 0.7044 0.5963
C5A C 0.5606(7) 0.6211(6) 0.5038(5)
H4A H 0.6117 0.5906 0.5234
C6A C 0.5252(6) 0.5972(5) 0.4297(4)
C7A C 0.5702(6) 0.5235(7) 0.3891(5)
H5A H 0.6201 0.4965 0.4141
C8A C 0.5991(9) 0.4160(11) 0.2865(6)
H6A H 0.6640 0.4279 0.2932
H7A H 0.5850 0.3606 0.3157
C8M C 0.5840(11) 0.4009(9) 0.2135(6)
N1M N 0.5077(5) 0.4522(4) 0.1776(3)
C7M C 0.4765(7) 0.4298(6) 0.1109(5)
C6M C 0.4028(5) 0.4748(6) 0.0703(4)
C1M C 0.3572(4) 0.5499(5) 0.1017(4)
O1M O 0.3756(3) 0.5880(3) 0.1700(3)
C2M C 0.2891(5) 0.5900(6) 0.0544(4)
H1M H 0.2584 0.6417 0.0723
C3M C 0.2673(5) 0.5537(8) -0.0180(5)
H2M H 0.2212 0.5809 -0.0478
C4M C 0.3114(6) 0.4791(9) -0.0472(5)
H3M H 0.2956 0.4555 -0.0963
C5M C 0.3789(6) 0.4394(7) -0.0038(5)
H4M H 0.4094 0.3883 -0.0234
H5M H 0.5035 0.3799 0.0859
H6M H 0.5721 0.3360 0.2068
H7M H 0.6394 0.4150 0.1843
N2C N 0.6480(4) -0.0698(4) 0.2193(4)
Mn1B Mn 0.04499(7) -0.04499(7) 0.2500
Mn1L Mn -0.04499(7) 0.45501(7) 0.2500
N2M N 0.5698(4) 0.6480(4) 0.2193(4)
O2 O 0.7500 0.2500 0.2500
loop_
_geom_bond_atom_site_label_1
_geom_bond_atom_site_label_2
_geom_bond_site_symmetry_1
_geom_bond_site_symmetry_2
Ni1 C9 1_555 1_555
Mn1 O1 1_555 1_555
O1 C1 1_555 1_555
N1 Mn1 1_555 1_555
N2 Mn1 1_555 1_555
C1 C2 1_555 1_555
C2 H1 1_555 1_555
C3 C2 1_555 1_555
H2 C3 1_555 1_555
C4 C3 1_555 1_555
H3 C4 1_555 1_555
C5 C4 1_555 1_555
H4 C5 1_555 1_555
C6 C1 1_555 1_555
C7 N1 1_555 1_555
H5 C7 1_555 1_555
C8 N1 1_555 1_555
H6 C8 1_555 1_555
H7 C8 1_555 1_555
C9 N2 1_555 1_555
C8C C8 1_555 1_555
N1C Mn1 1_555 1_555
C7C N1C 1_555 1_555
C6C C7C 1_555 1_555
C1C C6C 1_555 1_555
O1C Mn1 1_555 1_555
C2C C1C 1_555 1_555
H1C C2C 1_555 1_555
C3C C2C 1_555 1_555
H2C C3C 1_555 1_555
C4C C3C 1_555 1_555
H3C C4C 1_555 1_555
C5C C6C 1_555 1_555
H4C C5C 1_555 1_555
H5C C7C 1_555 1_555
H6C C8C 1_555 1_555
H7C C8C 1_555 1_555
N2A C9A 1_555 1_555
C9A Ni1 1_555 1_555
N2B C9B 1_555 1_555
C9B Ni1 1_555 1_555
N2L C9L 1_555 1_555
C9L Ni1 1_555 1_555
Mn1A N2A 1_555 1_555
O1A Mn1A 1_555 1_555
N1A Mn1A 1_555 1_555
C1A O1A 1_555 1_555
C2A C1A 1_555 1_555
H1A C2A 1_555 1_555
C3A C2A 1_555 1_555
H2A C3A 1_555 1_555
C4A C3A 1_555 1_555
H3A C4A 1_555 1_555
C5A C4A 1_555 1_555
H4A C5A 1_555 1_555
C6A C1A 1_555 1_555
C7A N1A 1_555 1_555
H5A C7A 1_555 1_555
C8A N1A 1_555 1_555
H6A C8A 1_555 1_555
H7A C8A 1_555 1_555
C8M C8A 1_555 1_555
N1M Mn1A 1_555 1_555
C7M N1M 1_555 1_555
C6M C7M 1_555 1_555
C1M C6M 1_555 1_555
O1M Mn1A 1_555 1_555
C2M C1M 1_555 1_555
H1M C2M 1_555 1_555
C3M C2M 1_555 1_555
H2M C3M 1_555 1_555
C4M C3M 1_555 1_555
H3M C4M 1_555 1_555
C5M C6M 1_555 1_555
H4M C5M 1_555 1_555
H5M C7M 1_555 1_555
H6M C8M 1_555 1_555
H7M C8M 1_555 1_555
N2C Mn1 1_555 1_555
Mn1B N2B 1_555 1_555
Mn1L N2L 1_555 1_555
N2M Mn1A 1_555 1_555
C5 C6 1_555 1_555
C6 C7 1_555 1_555
C8C N1C 1_555 1_555
C1C O1C 1_555 1_555
C4C C5C 1_555 1_555
C5A C6A 1_555 1_555
C6A C7A 1_555 1_555
C8M N1M 1_555 1_555
C1M O1M 1_555 1_555
C4M C5M 1_555 1_555

#END
