
#######################################################################
#
#                 Cambridge Crystallographic Data Centre
#                                CCDC 
#
#######################################################################
#
# If this CIF has been generated from an entry in the Cambridge 
# Structural Database, then it will include bibliographic, chemical, 
# crystal, experimental, refinement or atomic coordinate data resulting 
# from the CCDC's data processing and validation procedures.
#
#######################################################################

data_OFOJEZ
_symmetry_cell_setting           monoclinic
_symmetry_space_group_name_H-M   'P 21'
_symmetry_Int_Tables_number      4
_space_group_name_Hall           'P 2yb'
loop_
_symmetry_equiv_pos_site_id
_symmetry_equiv_pos_as_xyz
1 x,y,z
2 -x,1/2+y,-z
_cell_length_a                   11.091(15)
_cell_length_b                   7.731(10)
_cell_length_c                   11.437(15)
_cell_angle_alpha                90
_cell_angle_beta                 117.722(13)
_cell_angle_gamma                90
_cell_volume                     868.095
loop_
_atom_site_label
_atom_site_type_symbol
_atom_site_fract_x
_atom_site_fract_y
_atom_site_fract_z
Sm1 Sm 0.01542(5) 0.22074(9) 0.47026(4)
N1 N 0.2897(3) 0.2203(15) 0.5746(5)
C1 C 0.3617(9) 0.0665(11) 0.5954(14)
C2 C 0.5003(9) 0.0701(13) 0.6333(14)
H1 H 0.5495 -0.0350 0.6475
C3 C 0.5669(3) 0.2276(16) 0.6504(5)
H2 H 0.6616 0.2301 0.6762
C4 C 0.4949(9) 0.3815(12) 0.6296(13)
H3 H 0.5404 0.4891 0.6412
C5 C 0.3563(9) 0.3778(12) 0.5917(13)
H4 H 0.3071 0.4830 0.5775
C6 C 0.2778(12) -0.0957(15) 0.5751(11)
O1 O 0.1502(7) -0.0780(10) 0.5364(7)
O2 O 0.3393(8) -0.2399(10) 0.6001(7)
N2 N 0.0964(6) 0.1996(10) 0.2893(5)
C7 C 0.1103(10) 0.3584(9) 0.2399(8)
C8 C 0.1442(10) 0.3648(12) 0.1372(8)
H5 H 0.1537 0.4733 0.1035
C9 C 0.1640(6) 0.2124(15) 0.0840(5)
H6 H 0.1871 0.2167 0.0138
C10 C 0.1500(11) 0.0536(12) 0.1334(9)
H7 H 0.1636 -0.0506 0.0970
C11 C 0.1162(11) 0.0472(9) 0.2361(9)
H8 H 0.1066 -0.0614 0.2699
C12 C 0.0816(11) 0.5168(15) 0.3007(11)
O3 O 0.0481(8) 0.4868(10) 0.3953(8)
O4 O 0.0968(9) 0.6566(10) 0.2605(8)
N3 N -0.1918(4) 0.2223(13) 0.2231(3)
C13 C -0.2445(10) 0.0638(10) 0.1642(8)
C14 C -0.3499(10) 0.0577(10) 0.0356(8)
H9 H -0.3860 -0.0506 -0.0047
C15 C -0.4025(4) 0.2102(13) -0.0340(4)
H10 H -0.4746 0.2061 -0.1219
C16 C -0.3498(10) 0.3688(11) 0.0249(7)
H11 H -0.3858 0.4730 -0.0226
C17 C -0.2444(10) 0.3748(10) 0.1535(8)
H12 H -0.2083 0.4831 0.1938
C18 C -0.1940(11) -0.0954(13) 0.2339(11)
O5 O -0.2410(8) -0.257(3) 0.1754(7)
O6 O -0.1015(7) -0.0781(10) 0.3546(7)
Sm1A Sm -0.01542(5) -0.27926(9) 0.52974(4)
Sm1A_2 Sm -0.01542(5) 0.72074(9) 0.52974(4)
O1A O -0.1502(7) 0.4220(10) 0.4636(7)
O3A O -0.0481(8) -0.0132(10) 0.6047(8)
O6A O 0.1015(7) 0.4219(10) 0.6454(7)
loop_
_geom_bond_atom_site_label_1
_geom_bond_atom_site_label_2
_geom_bond_site_symmetry_1
_geom_bond_site_symmetry_2
Sm1 N1 1_555 1_555
N1 C1 1_555 1_555
C1 C2 1_555 1_555
C2 H1 1_555 1_555
C3 C2 1_555 1_555
H2 C3 1_555 1_555
C4 C3 1_555 1_555
H3 C4 1_555 1_555
C5 N1 1_555 1_555
H4 C5 1_555 1_555
C6 C1 1_555 1_555
O1 Sm1 1_555 1_555
O2 C6 1_555 1_555
N2 Sm1 1_555 1_555
C7 N2 1_555 1_555
C8 C7 1_555 1_555
H5 C8 1_555 1_555
C9 C8 1_555 1_555
H6 C9 1_555 1_555
C10 C9 1_555 1_555
H7 C10 1_555 1_555
C11 N2 1_555 1_555
H8 C11 1_555 1_555
C12 C7 1_555 1_555
O3 Sm1 1_555 1_555
O4 C12 1_555 1_555
N3 Sm1 1_555 1_555
C13 N3 1_555 1_555
C14 C13 1_555 1_555
H9 C14 1_555 1_555
C15 C14 1_555 1_555
H10 C15 1_555 1_555
C16 C15 1_555 1_555
H11 C16 1_555 1_555
C17 N3 1_555 1_555
H12 C17 1_555 1_555
C18 C13 1_555 1_555
O5 C18 1_555 1_555
O6 Sm1 1_555 1_555
Sm1A O1 1_555 1_555
Sm1A_2 O3 1_555 1_555
O1A Sm1 1_555 1_555
O3A Sm1 1_555 1_555
O6A Sm1 1_555 1_555
C4 C5 1_555 1_555
C6 O1 1_555 1_555
C10 C11 1_555 1_555
C12 O3 1_555 1_555
C16 C17 1_555 1_555
C18 O6 1_555 1_555
O6 Sm1A 1_555 1_555
Sm1A O3A 1_555 1_555
Sm1A_2 O1A 1_555 1_555
Sm1A_2 O6A 1_555 1_555

#END
