
#######################################################################
#
#                 Cambridge Crystallographic Data Centre
#                                CCDC 
#
#######################################################################
#
# If this CIF has been generated from an entry in the Cambridge 
# Structural Database, then it will include bibliographic, chemical, 
# crystal, experimental, refinement or atomic coordinate data resulting 
# from the CCDC's data processing and validation procedures.
#
#######################################################################

data_OFOJID
_symmetry_cell_setting           triclinic
_symmetry_space_group_name_H-M   'P -1'
_symmetry_Int_Tables_number      2
_space_group_name_Hall           '-P 1'
loop_
_symmetry_equiv_pos_site_id
_symmetry_equiv_pos_as_xyz
1 x,y,z
2 -x,-y,-z
_cell_length_a                   9.4098(5)
_cell_length_b                   10.6220(7)
_cell_length_c                   12.2324(7)
_cell_angle_alpha                86.095(9)
_cell_angle_beta                 81.384(7)
_cell_angle_gamma                86.665(7)
_cell_volume                     1204.61
loop_
_atom_site_label
_atom_site_type_symbol
_atom_site_fract_x
_atom_site_fract_y
_atom_site_fract_z
Er1 Er 0.569951(18) 0.348846(15) 0.147326(14)
Cu1 Cu 0.5000 0.0000 0.5000
Cu2 Cu 1.04203(5) 0.18811(5) 0.37966(4)
O1 O 0.5353(3) 0.1191(2) 0.3698(2)
O2 O 0.5033(3) 0.1402(2) 0.1927(2)
O3 O 0.4815(3) -0.4497(2) 0.1231(3)
O4 O 0.3919(3) -0.2823(3) 0.0323(2)
O5 O 0.7521(3) -0.0598(3) 0.4871(3)
O6 O 0.8811(3) 0.1120(3) 0.4730(3)
O7 O 0.8258(4) -0.3251(3) 0.1516(3)
O8 O 1.0225(4) -0.2988(3) 0.0294(3)
O9 O 0.3989(3) 0.3748(3) 0.3157(3)
O10 O 0.2197(3) 0.2512(3) 0.2988(2)
O11 O 0.3199(3) 0.5853(3) 0.7100(2)
O12 O 0.0938(3) 0.6666(3) 0.7189(3)
O13 O 0.7822(3) 0.2141(3) 0.1379(3)
O14 O 0.7646(3) 0.4770(3) 0.0523(3)
O15 O 0.3402(3) 0.3311(3) 0.0913(3)
N1 N 0.4750(3) -0.1183(3) 0.3886(3)
N2 N 1.0257(4) 0.0517(3) 0.2810(3)
N3 N 0.0752(3) 0.3075(3) 0.4890(3)
C1 C 0.4566(5) -0.2428(4) 0.4037(4)
H1 H 0.4506 -0.2818 0.4764
C2 C 0.4464(5) -0.3151(4) 0.3171(4)
H2 H 0.4384 -0.4038 0.3290
C3 C 0.4480(4) -0.2574(4) 0.2114(4)
C4 C 0.4635(4) -0.1278(4) 0.1958(4)
H3 H 0.4637 -0.0855 0.1248
C5 C 0.4786(4) -0.0621(3) 0.2872(3)
C6 C 0.5077(4) 0.0777(4) 0.2810(3)
C7 C 0.4399(4) -0.3354(3) 0.1138(3)
C8 C 1.1047(5) 0.0249(4) 0.1849(4)
H4 H 1.1817 0.0769 0.1552
C9 C 1.0779(5) -0.0758(4) 0.1275(4)
H5 H 1.1376 -0.0940 0.0601
C10 C 0.9633(5) -0.1509(4) 0.1682(4)
C11 C 0.8805(4) -0.1213(4) 0.2678(4)
H6 H 0.8003 -0.1695 0.2978
C12 C 0.9160(4) -0.0211(4) 0.3227(4)
C13 C 0.8412(4) 0.0121(4) 0.4355(4)
C14 C 0.9346(5) -0.2681(4) 0.1099(4)
H7 H 0.2790 0.2939 0.1341
H8 H 0.3248 0.3846 0.0439
H9 H 0.8204 0.2163 0.0740
H10 H 0.8290 0.2525 0.1779
H11 H 0.7932 0.5320 0.0874
H12 H 0.8283 0.4417 0.0115
C15 C -0.0123(4) 0.3402(4) 0.5798(4)
H13 H -0.1011 0.3004 0.5997
C16 C 0.0233(4) 0.4307(4) 0.6456(4)
H14 H -0.0426 0.4558 0.7078
C17 C 0.1563(4) 0.4848(4) 0.6203(4)
C18 C 0.2490(4) 0.4457(4) 0.5287(3)
H15 H 0.3427 0.4771 0.5115
C19 C 0.2036(4) 0.3609(3) 0.4631(3)
C20 C 0.2833(4) 0.3258(4) 0.3516(3)
C21 C 0.1935(4) 0.5872(4) 0.6888(3)
Er1A Er 0.430049(18) -0.348846(15) 0.852674(14)
Er1_2 Er 0.569951(18) -0.651154(15) 0.147326(14)
Er1A_2 Er 0.430049(18) -0.348846(15) -0.147326(14)
Er1A_3 Er 0.430049(18) 0.651154(15) 0.852674(14)
Er1_3 Er 0.569951(18) 0.348846(15) 1.147326(14)
Cu2A Cu -0.04203(5) -0.18811(5) 0.62034(4)
Cu2_2 Cu 0.04203(5) 0.18811(5) 0.37966(4)
Cu2A_2 Cu -0.04203(5) 0.81189(5) 0.62034(4)
Cu2A_3 Cu 0.95797(5) 0.81189(5) 0.62034(4)
O1A O 0.4647(3) -0.1191(2) 0.6302(2)
O2A O 0.4967(3) -0.1402(2) 0.8073(2)
O3A O 0.5185(3) 0.4497(2) 0.8769(3)
O3_2 O 0.4815(3) 0.5503(2) 0.1231(3)
O3A_2 O 0.5185(3) -0.5503(2) 0.8769(3)
O4A O 0.6081(3) 0.2823(3) 0.9677(2)
O4A_2 O 0.6081(3) 0.2823(3) -0.0323(2)
O4_2 O 0.3919(3) -0.2823(3) 1.0323(2)
O5A O 0.2479(3) 0.0598(3) 0.5129(3)
O6A O 0.1189(3) -0.1120(3) 0.5270(3)
O7A O 0.1742(4) 0.3251(3) 0.8484(3)
O8A O -0.0225(4) 0.2988(3) 0.9706(3)
O9A O 0.6011(3) 0.6252(3) 0.6843(3)
O9A_2 O 0.6011(3) -0.3748(3) 0.6843(3)
O10A O 0.7803(3) 0.7488(3) 0.7012(2)
O10_2 O 1.2197(3) 0.2512(3) 0.2988(2)
O10A_2 O -0.2197(3) -0.2512(3) 0.7012(2)
O11A O 0.6801(3) 0.4147(3) 0.2900(2)
O11_2 O 0.3199(3) -0.4147(3) 0.7100(2)
O12A O 0.9062(3) 0.3334(3) 0.2811(3)
O12_2 O 0.0938(3) -0.3334(3) 0.7189(3)
O13A O 0.2178(3) -0.2141(3) 0.8621(3)
O14A O 0.2354(3) -0.4770(3) 0.9477(3)
O15A O 0.6598(3) -0.3311(3) 0.9087(3)
N1A N 0.5250(3) 0.1183(3) 0.6114(3)
N2A N -0.0257(4) -0.0517(3) 0.7190(3)
N3A N 0.9248(3) 0.6925(3) 0.5110(3)
N3_2 N 1.0752(3) 0.3075(3) 0.4890(3)
N3A_2 N -0.0752(3) -0.3075(3) 0.5110(3)
C1A C 0.5434(5) 0.2428(4) 0.5963(4)
H1A H 0.5494 0.2818 0.5236
C2A C 0.5536(5) 0.3151(4) 0.6829(4)
H2A H 0.5616 0.4038 0.6710
C3A C 0.5520(4) 0.2574(4) 0.7886(4)
C4A C 0.5365(4) 0.1278(4) 0.8042(4)
H3A H 0.5363 0.0855 0.8752
C5A C 0.5214(4) 0.0621(3) 0.7128(3)
C6A C 0.4923(4) -0.0777(4) 0.7190(3)
C7A C 0.5601(4) 0.3354(3) 0.8862(3)
C8A C -0.1047(5) -0.0249(4) 0.8151(4)
H4A H -0.1817 -0.0769 0.8448
C9A C -0.0779(5) 0.0758(4) 0.8725(4)
H5A H -0.1376 0.0940 0.9399
C10A C 0.0367(5) 0.1509(4) 0.8318(4)
C11A C 0.1195(4) 0.1213(4) 0.7322(4)
H6A H 0.1997 0.1695 0.7022
C12A C 0.0840(4) 0.0211(4) 0.6773(4)
C13A C 0.1588(4) -0.0121(4) 0.5645(4)
C14A C 0.0654(5) 0.2681(4) 0.8901(4)
H7A H 0.7210 -0.2939 0.8659
H8A H 0.6752 -0.3846 0.9561
H9A H 0.1796 -0.2163 0.9260
H10A H 0.1710 -0.2525 0.8221
H11A H 0.2068 -0.5320 0.9126
H12A H 0.1717 -0.4417 0.9885
C15A C 1.0123(4) 0.6598(4) 0.4202(4)
H13A H 1.1011 0.6996 0.4003
C16A C 0.9767(4) 0.5693(4) 0.3544(4)
H14A H 1.0426 0.5442 0.2922
C17A C 0.8437(4) 0.5152(4) 0.3797(4)
C18A C 0.7510(4) 0.5543(4) 0.4713(3)
H15A H 0.6573 0.5229 0.4885
C19A C 0.7964(4) 0.6391(3) 0.5369(3)
C20A C 0.7167(4) 0.6742(4) 0.6484(3)
C21A C 0.8065(4) 0.4128(4) 0.3112(3)
loop_
_geom_bond_atom_site_label_1
_geom_bond_atom_site_label_2
_geom_bond_site_symmetry_1
_geom_bond_site_symmetry_2
Er1 O2 1_555 1_555
Cu1 O1 1_555 1_555
Cu2 O6 1_555 1_555
O1 C6 1_555 1_555
O2 C6 1_555 1_555
O3 C7 1_555 1_555
O4 C7 1_555 1_555
O5 Cu1 1_555 1_555
O6 C13 1_555 1_555
O7 C14 1_555 1_555
O8 C14 1_555 1_555
O9 Er1 1_555 1_555
O10 C20 1_555 1_555
O11 C21 1_555 1_555
O12 C21 1_555 1_555
O13 Er1 1_555 1_555
O14 Er1 1_555 1_555
O15 Er1 1_555 1_555
N1 Cu1 1_555 1_555
N2 Cu2 1_555 1_555
N3 C15 1_555 1_555
C1 N1 1_555 1_555
H1 C1 1_555 1_555
C2 C1 1_555 1_555
H2 C2 1_555 1_555
C3 C2 1_555 1_555
C4 C3 1_555 1_555
H3 C4 1_555 1_555
C5 N1 1_555 1_555
C6 C5 1_555 1_555
C7 C3 1_555 1_555
C8 N2 1_555 1_555
H4 C8 1_555 1_555
C9 C8 1_555 1_555
H5 C9 1_555 1_555
C10 C9 1_555 1_555
C11 C10 1_555 1_555
H6 C11 1_555 1_555
C12 N2 1_555 1_555
C13 O5 1_555 1_555
C14 C10 1_555 1_555
H7 O15 1_555 1_555
H8 O15 1_555 1_555
H9 O13 1_555 1_555
H10 O13 1_555 1_555
H11 O14 1_555 1_555
H12 O14 1_555 1_555
C15 H13 1_555 1_555
C16 C15 1_555 1_555
H14 C16 1_555 1_555
C17 C16 1_555 1_555
C18 C17 1_555 1_555
H15 C18 1_555 1_555
C19 N3 1_555 1_555
C20 O9 1_555 1_555
C21 C17 1_555 1_555
Er1A O2A 1_555 1_555
Er1_2 O3 1_555 1_555
Er1A_2 O4 1_555 1_555
Er1A_3 O11 1_555 1_555
Er1_3 O4A 1_555 1_555
Cu2A O6A 1_555 1_555
Cu2_2 O10 1_555 1_555
Cu2A_2 O12 1_555 1_555
Cu2A_3 O10A 1_555 1_555
O1A Cu1 1_555 1_555
O2A C6A 1_555 1_555
O3A Er1A_3 1_555 1_555
O3_2 Er1 1_555 1_555
O3A_2 Er1A 1_555 1_555
O4A C7A 1_555 1_555
O4A_2 Er1 1_555 1_555
O4_2 Er1A 1_555 1_555
O5A Cu1 1_555 1_555
O6A C13A 1_555 1_555
O7A C14A 1_555 1_555
O8A C14A 1_555 1_555
O9A Er1A_3 1_555 1_555
O9A_2 Er1A 1_555 1_555
O10A C20A 1_555 1_555
O10_2 Cu2 1_555 1_555
O10A_2 Cu2A 1_555 1_555
O11A Er1 1_555 1_555
O11_2 Er1A 1_555 1_555
O12A Cu2 1_555 1_555
O12_2 Cu2A 1_555 1_555
O13A Er1A 1_555 1_555
O14A Er1A 1_555 1_555
O15A Er1A 1_555 1_555
N1A Cu1 1_555 1_555
N2A Cu2A 1_555 1_555
N3A Cu2A_3 1_555 1_555
N3_2 Cu2 1_555 1_555
N3A_2 Cu2A 1_555 1_555
C1A N1A 1_555 1_555
H1A C1A 1_555 1_555
C2A C1A 1_555 1_555
H2A C2A 1_555 1_555
C3A C2A 1_555 1_555
C4A C3A 1_555 1_555
H3A C4A 1_555 1_555
C5A N1A 1_555 1_555
C6A O1A 1_555 1_555
C7A O3A 1_555 1_555
C8A N2A 1_555 1_555
H4A C8A 1_555 1_555
C9A C8A 1_555 1_555
H5A C9A 1_555 1_555
C10A C9A 1_555 1_555
C11A C10A 1_555 1_555
H6A C11A 1_555 1_555
C12A N2A 1_555 1_555
C13A O5A 1_555 1_555
C14A C10A 1_555 1_555
H7A O15A 1_555 1_555
H8A O15A 1_555 1_555
H9A O13A 1_555 1_555
H10A O13A 1_555 1_555
H11A O14A 1_555 1_555
H12A O14A 1_555 1_555
C15A N3A 1_555 1_555
H13A C15A 1_555 1_555
C16A C15A 1_555 1_555
H14A C16A 1_555 1_555
C17A C16A 1_555 1_555
C18A C17A 1_555 1_555
H15A C18A 1_555 1_555
C19A N3A 1_555 1_555
C20A O9A 1_555 1_555
C21A O11A 1_555 1_555
N3 Cu2_2 1_555 1_555
C4 C5 1_555 1_555
C11 C12 1_555 1_555
C12 C13 1_555 1_555
C18 C19 1_555 1_555
C19 C20 1_555 1_555
O12A C21A 1_555 1_555
C3A C7A 1_555 1_555
C4A C5A 1_555 1_555
C5A C6A 1_555 1_555
C11A C12A 1_555 1_555
C12A C13A 1_555 1_555
C17A C21A 1_555 1_555
C18A C19A 1_555 1_555
C19A C20A 1_555 1_555

#END
