
#######################################################################
#
#                 Cambridge Crystallographic Data Centre
#                                CCDC 
#
#######################################################################
#
# If this CIF has been generated from an entry in the Cambridge 
# Structural Database, then it will include bibliographic, chemical, 
# crystal, experimental, refinement or atomic coordinate data resulting 
# from the CCDC's data processing and validation procedures.
#
#######################################################################

data_OFOJOJ
_symmetry_cell_setting           triclinic
_symmetry_space_group_name_H-M   'P -1'
_symmetry_Int_Tables_number      2
_space_group_name_Hall           '-P 1'
loop_
_symmetry_equiv_pos_site_id
_symmetry_equiv_pos_as_xyz
1 x,y,z
2 -x,-y,-z
_cell_length_a                   9.4316(5)
_cell_length_b                   10.6777(8)
_cell_length_c                   12.2767(6)
_cell_angle_alpha                86.101(9)
_cell_angle_beta                 81.449(6)
_cell_angle_gamma                86.608(8)
_cell_volume                     1218.28
loop_
_atom_site_label
_atom_site_type_symbol
_atom_site_fract_x
_atom_site_fract_y
_atom_site_fract_z
Tb1 Tb -0.07044(3) 0.65141(2) 0.35210(2)
Cu1 Cu -0.54255(7) 0.81298(6) 0.12021(6)
Cu2 Cu 0.0000 1.0000 0.0000
O1 O -0.3805(4) 0.8874(4) 0.0284(3)
O2 O -0.2527(4) 1.0590(4) 0.0138(4)
O3 O -0.3271(5) 1.3258(4) 0.3470(4)
O4 O -0.5225(6) 1.2978(5) 0.4700(5)
O5 O 0.2791(4) 0.7498(4) 0.1999(3)
O6 O 0.1024(4) 0.6256(3) 0.1827(3)
O7 O 0.1826(4) 0.4145(4) -0.2079(3)
O8 O 0.4090(5) 0.3355(4) -0.2194(4)
O9 O -0.0041(4) 0.8626(3) 0.3072(3)
O10 O -0.0343(4) 0.8821(3) 0.1300(3)
O11 O 0.1097(4) 1.2795(3) 0.4663(3)
O12 O 0.0192(4) 1.4480(4) 0.3770(3)
O13 O 0.1627(5) 0.6689(4) 0.4098(3)
O14 O -0.2677(4) 0.5214(4) 0.4470(3)
O15 O -0.2864(4) 0.7872(4) 0.3619(3)
N1 N -0.5260(5) 0.9486(4) 0.2186(4)
N2 N 0.4255(5) 0.6951(4) 0.0101(4)
N3 N 0.0248(5) 1.1189(4) 0.1105(4)
C1 C -0.4170(6) 1.0214(5) 0.1772(5)
C2 C -0.3835(6) 1.1214(5) 0.2327(5)
H1 H -0.3042 1.1700 0.2027
C3 C -0.4649(6) 1.1514(5) 0.3318(5)
C4 C -0.4350(7) 1.2680(5) 0.3892(5)
C5 C -0.5779(7) 1.0766(6) 0.3722(6)
H2 H -0.6368 1.0943 0.4396
C6 C -0.6054(7) 0.9756(6) 0.3143(5)
H3 H -0.6828 0.9244 0.3436
C7 C -0.3409(6) 0.9879(5) 0.0650(5)
C8 C 0.2981(6) 0.6409(5) 0.0368(4)
C9 C 0.2525(6) 0.5551(5) -0.0288(4)
H4 H 0.1592 0.5235 -0.0121
C10 C 0.3478(6) 0.5167(5) -0.1201(4)
C11 C 0.4792(6) 0.5699(5) -0.1459(5)
H5 H 0.5448 0.5448 -0.2079
C12 C 0.5145(6) 0.6612(5) -0.0797(5)
H6 H 0.6036 0.7001 -0.0987
C13 C 0.3097(6) 0.4134(5) -0.1885(4)
C14 C 0.2185(6) 0.6746(5) 0.1471(4)
C15 C 0.0215(6) 1.0626(5) 0.2130(4)
C16 C 0.0374(6) 1.1280(5) 0.3030(5)
H7 H 0.0384 1.0860 0.3737
C17 C 0.0520(6) 1.2579(5) 0.2876(4)
C18 C 0.0549(6) 1.3150(5) 0.1824(5)
H8 H 0.0638 1.4032 0.1703
C19 C 0.0447(7) 1.2419(5) 0.0950(5)
H9 H 0.0520 1.2803 0.0224
C20 C -0.0072(6) 0.9240(5) 0.2183(4)
C21 C 0.0612(6) 1.3355(5) 0.3850(5)
H10 H -0.3468 0.5171 0.4254
H11 H 0.1882 0.6513 0.4757
H12 H 0.2202 0.6936 0.3506
H13 H -0.2753 0.5622 0.5087
H14 H -0.3422 0.7692 0.3170
H15 H -0.3292 0.7541 0.4247
Tb1A Tb 0.07044(3) 1.34859(2) -0.35210(2)
Tb1A_2 Tb 0.07044(3) 0.34859(2) -0.35210(2)
Tb1A_3 Tb 0.07044(3) 1.34859(2) 0.64790(2)
Tb1_2 Tb -0.07044(3) 1.65141(2) 0.35210(2)
Tb1_3 Tb -0.07044(3) 0.65141(2) -0.64790(2)
Cu1A Cu 0.54255(7) 1.18702(6) -0.12021(6)
Cu1_2 Cu 0.45745(7) 0.81298(6) 0.12021(6)
Cu1A_2 Cu 0.54255(7) 0.18702(6) -0.12021(6)
Cu1A_3 Cu -0.45745(7) 0.18702(6) -0.12021(6)
O1A O 0.3805(4) 1.1126(4) -0.0284(3)
O2A O 0.2527(4) 0.9410(4) -0.0138(4)
O3A O 0.3271(5) 0.6742(4) -0.3470(4)
O4A O 0.5225(6) 0.7022(5) -0.4700(5)
O5A O -0.2791(4) 0.2502(4) -0.1999(3)
O5_2 O -0.7209(4) 0.7498(4) 0.1999(3)
O5A_2 O 0.7209(4) 1.2502(4) -0.1999(3)
O6A O -0.1024(4) 0.3744(3) -0.1827(3)
O6A_2 O -0.1024(4) 1.3744(3) -0.1827(3)
O7A O -0.1826(4) 0.5855(4) 0.2079(3)
O7_2 O 0.1826(4) 1.4145(4) -0.2079(3)
O8A O -0.4090(5) 0.6645(4) 0.2194(4)
O8_2 O 0.4090(5) 1.3355(4) -0.2194(4)
O9A O 0.0041(4) 1.1374(3) -0.3072(3)
O10A O 0.0343(4) 1.1179(3) -0.1300(3)
O11A O -0.1097(4) 0.7205(3) -0.4663(3)
O11A_2 O -0.1097(4) 0.7205(3) 0.5337(3)
O11_2 O 0.1097(4) 1.2795(3) -0.5337(3)
O12A O -0.0192(4) 0.5520(4) -0.3770(3)
O12_2 O 0.0192(4) 0.4480(4) 0.3770(3)
O12A_2 O -0.0192(4) 1.5520(4) -0.3770(3)
O13A O -0.1627(5) 1.3311(4) -0.4098(3)
O14A O 0.2677(4) 1.4786(4) -0.4470(3)
O15A O 0.2864(4) 1.2128(4) -0.3619(3)
N1A N 0.5260(5) 1.0514(4) -0.2186(4)
N2A N -0.4255(5) 0.3049(4) -0.0101(4)
N2_2 N -0.5745(5) 0.6951(4) 0.0101(4)
N2A_2 N 0.5745(5) 1.3049(4) -0.0101(4)
N3A N -0.0248(5) 0.8811(4) -0.1105(4)
C1A C 0.4170(6) 0.9786(5) -0.1772(5)
C2A C 0.3835(6) 0.8786(5) -0.2327(5)
H1A H 0.3042 0.8300 -0.2027
C3A C 0.4649(6) 0.8486(5) -0.3318(5)
C4A C 0.4350(7) 0.7320(5) -0.3892(5)
C5A C 0.5779(7) 0.9234(6) -0.3722(6)
H2A H 0.6368 0.9057 -0.4396
C6A C 0.6054(7) 1.0244(6) -0.3143(5)
H3A H 0.6828 1.0756 -0.3436
C7A C 0.3409(6) 1.0121(5) -0.0650(5)
C8A C -0.2981(6) 0.3591(5) -0.0368(4)
C9A C -0.2525(6) 0.4449(5) 0.0288(4)
H4A H -0.1592 0.4765 0.0121
C10A C -0.3478(6) 0.4833(5) 0.1201(4)
C11A C -0.4792(6) 0.4301(5) 0.1459(5)
H5A H -0.5448 0.4552 0.2079
C12A C -0.5145(6) 0.3388(5) 0.0797(5)
H6A H -0.6036 0.2999 0.0987
C13A C -0.3097(6) 0.5866(5) 0.1885(4)
C14A C -0.2185(6) 0.3254(5) -0.1471(4)
C15A C -0.0215(6) 0.9374(5) -0.2130(4)
C16A C -0.0374(6) 0.8720(5) -0.3030(5)
H7A H -0.0384 0.9140 -0.3737
C17A C -0.0520(6) 0.7421(5) -0.2876(4)
C18A C -0.0549(6) 0.6850(5) -0.1824(5)
H8A H -0.0638 0.5968 -0.1703
C19A C -0.0447(7) 0.7581(5) -0.0950(5)
H9A H -0.0520 0.7197 -0.0224
C20A C 0.0072(6) 1.0760(5) -0.2183(4)
C21A C -0.0612(6) 0.6645(5) -0.3850(5)
H10A H 0.3468 1.4829 -0.4254
H11A H -0.1882 1.3487 -0.4757
H12A H -0.2202 1.3064 -0.3506
H13A H 0.2753 1.4378 -0.5087
H14A H 0.3422 1.2308 -0.3170
H15A H 0.3292 1.2459 -0.4247
loop_
_geom_bond_atom_site_label_1
_geom_bond_atom_site_label_2
_geom_bond_site_symmetry_1
_geom_bond_site_symmetry_2
Tb1 O6 1_555 1_555
Cu1 O1 1_555 1_555
Cu2 O2 1_555 1_555
O1 C7 1_555 1_555
O2 C7 1_555 1_555
O3 C4 1_555 1_555
O4 C4 1_555 1_555
O5 C14 1_555 1_555
O6 C14 1_555 1_555
O7 C13 1_555 1_555
O8 C13 1_555 1_555
O9 Tb1 1_555 1_555
O10 Cu2 1_555 1_555
O11 C21 1_555 1_555
O12 C21 1_555 1_555
O13 Tb1 1_555 1_555
O14 Tb1 1_555 1_555
O15 Tb1 1_555 1_555
N1 Cu1 1_555 1_555
N2 C8 1_555 1_555
N3 Cu2 1_555 1_555
C1 N1 1_555 1_555
C2 C1 1_555 1_555
H1 C2 1_555 1_555
C3 C2 1_555 1_555
C4 C3 1_555 1_555
C5 C3 1_555 1_555
H2 C5 1_555 1_555
C6 N1 1_555 1_555
H3 C6 1_555 1_555
C7 C1 1_555 1_555
C8 C9 1_555 1_555
C9 H4 1_555 1_555
C10 C9 1_555 1_555
C11 C10 1_555 1_555
H5 C11 1_555 1_555
C12 N2 1_555 1_555
H6 C12 1_555 1_555
C13 C10 1_555 1_555
C14 C8 1_555 1_555
C15 N3 1_555 1_555
C16 C15 1_555 1_555
H7 C16 1_555 1_555
C17 C16 1_555 1_555
C18 C17 1_555 1_555
H8 C18 1_555 1_555
C19 N3 1_555 1_555
H9 C19 1_555 1_555
C20 O9 1_555 1_555
C21 C17 1_555 1_555
H10 O14 1_555 1_555
H11 O13 1_555 1_555
H12 O13 1_555 1_555
H13 O14 1_555 1_555
H14 O15 1_555 1_555
H15 O15 1_555 1_555
Tb1A O6A_2 1_555 1_555
Tb1A_2 O7 1_555 1_555
Tb1A_3 O11 1_555 1_555
Tb1_2 O12 1_555 1_555
Tb1_3 O11A 1_555 1_555
Cu1A O1A 1_555 1_555
Cu1_2 O5 1_555 1_555
Cu1A_2 O8 1_555 1_555
Cu1A_3 O5A 1_555 1_555
O1A C7A 1_555 1_555
O2A Cu2 1_555 1_555
O3A C4A 1_555 1_555
O4A C4A 1_555 1_555
O5A C14A 1_555 1_555
O5_2 Cu1 1_555 1_555
O5A_2 Cu1A 1_555 1_555
O6A Tb1A_2 1_555 1_555
O7A Tb1 1_555 1_555
O7_2 Tb1A 1_555 1_555
O8A Cu1 1_555 1_555
O8_2 Cu1A 1_555 1_555
O9A Tb1A 1_555 1_555
O10A Cu2 1_555 1_555
O11A C21A 1_555 1_555
O11A_2 Tb1 1_555 1_555
O11_2 Tb1A 1_555 1_555
O12A Tb1A_2 1_555 1_555
O12_2 Tb1 1_555 1_555
O12A_2 Tb1A 1_555 1_555
O13A Tb1A 1_555 1_555
O14A Tb1A 1_555 1_555
O15A Tb1A 1_555 1_555
N1A Cu1A 1_555 1_555
N2A Cu1A_3 1_555 1_555
N2_2 Cu1 1_555 1_555
N2A_2 Cu1A 1_555 1_555
N3A Cu2 1_555 1_555
C1A N1A 1_555 1_555
C2A C1A 1_555 1_555
H1A C2A 1_555 1_555
C3A C2A 1_555 1_555
C4A C3A 1_555 1_555
C5A C3A 1_555 1_555
H2A C5A 1_555 1_555
C6A N1A 1_555 1_555
H3A C6A 1_555 1_555
C7A O2A 1_555 1_555
C8A N2A 1_555 1_555
C9A C8A 1_555 1_555
H4A C9A 1_555 1_555
C10A C9A 1_555 1_555
C11A C10A 1_555 1_555
H5A C11A 1_555 1_555
C12A N2A 1_555 1_555
H6A C12A 1_555 1_555
C13A O7A 1_555 1_555
C14A O6A 1_555 1_555
C15A N3A 1_555 1_555
C16A C15A 1_555 1_555
H7A C16A 1_555 1_555
C17A C16A 1_555 1_555
C18A C17A 1_555 1_555
H8A C18A 1_555 1_555
C19A N3A 1_555 1_555
H9A C19A 1_555 1_555
C20A O9A 1_555 1_555
C21A O12A 1_555 1_555
H10A O14A 1_555 1_555
H11A O13A 1_555 1_555
H12A O13A 1_555 1_555
H13A O14A 1_555 1_555
H14A O15A 1_555 1_555
H15A O15A 1_555 1_555
O10 C20 1_555 1_555
N2 Cu1_2 1_555 1_555
C5 C6 1_555 1_555
C11 C12 1_555 1_555
C15 C20 1_555 1_555
C18 C19 1_555 1_555
O8A C13A 1_555 1_555
O10A C20A 1_555 1_555
C1A C7A 1_555 1_555
C5A C6A 1_555 1_555
C8A C14A 1_555 1_555
C10A C13A 1_555 1_555
C11A C12A 1_555 1_555
C15A C20A 1_555 1_555
C17A C21A 1_555 1_555
C18A C19A 1_555 1_555

#END
