
#######################################################################
#
#                 Cambridge Crystallographic Data Centre
#                                CCDC 
#
#######################################################################
#
# If this CIF has been generated from an entry in the Cambridge 
# Structural Database, then it will include bibliographic, chemical, 
# crystal, experimental, refinement or atomic coordinate data resulting 
# from the CCDC's data processing and validation procedures.
#
#######################################################################

data_OFOKUQ
_symmetry_cell_setting           orthorhombic
_symmetry_space_group_name_H-M   'P c c n'
_symmetry_Int_Tables_number      56
_space_group_name_Hall           '-P 2ab 2ac'
loop_
_symmetry_equiv_pos_site_id
_symmetry_equiv_pos_as_xyz
1 x,y,z
2 1/2-x,1/2-y,z
3 -x,1/2+y,1/2-z
4 1/2+x,-y,1/2-z
5 -x,-y,-z
6 1/2+x,1/2+y,-z
7 x,1/2-y,1/2+z
8 1/2-x,y,1/2+z
_cell_length_a                   21.356(3)
_cell_length_b                   7.7734(9)
_cell_length_c                   11.1393(13)
_cell_angle_alpha                90
_cell_angle_beta                 90
_cell_angle_gamma                90
_cell_volume                     1849.22
loop_
_atom_site_label
_atom_site_type_symbol
_atom_site_fract_x
_atom_site_fract_y
_atom_site_fract_z
Mn1 Mn 0.564679(11) -0.68666(3) -0.03405(2)
Mn2 Mn 0.7500 0.2500 0.40111(3)
O1 O 0.60814(6) -0.52330(17) 0.09602(12)
O2 O 0.52514(6) -0.3593(2) 0.09874(14)
O3 O 0.70716(5) 0.08464(15) 0.26309(10)
O4 O 0.60928(6) 0.05074(18) 0.32586(13)
O5 O 0.56412(5) -0.55988(17) 0.36982(12)
O6 O 0.65635(5) -0.64020(15) 0.43037(10)
O7 O 0.53124(7) -0.8259(2) 0.12006(13)
O8 O 0.72871(7) 0.0611(2) 0.54058(12)
C1 C 0.57795(7) -0.3965(2) 0.13517(13)
C2 C 0.60778(7) -0.28306(19) 0.23092(13)
H1 H 0.5739 -0.2340 0.2795
C3 C 0.65107(7) -0.3813(2) 0.31496(14)
H2 H 0.6874 -0.4188 0.2698
H3 H 0.6656 -0.3032 0.3769
C4 C 0.62217(7) -0.5352(2) 0.37424(13)
C5 C 0.64331(8) -0.1330(2) 0.17223(13)
H4 H 0.6832 -0.1740 0.1418
H5 H 0.6192 -0.0893 0.1050
C6 C 0.65462(8) 0.0114(2) 0.26182(13)
H6 H 0.7503(12) 0.071(3) 0.600(2)
H7 H 0.5010(13) -0.904(4) 0.122(2)
H8 H 0.6944(14) 0.048(3) 0.564(2)
H9 H 0.5418(15) -0.816(4) 0.179(3)
Mn1A Mn 0.935321(11) 1.18666(3) -0.03405(2)
Mn1D Mn 0.435321(11) -0.31334(3) 0.03405(2)
Mn1F Mn 0.564679(11) 0.18666(3) 0.46595(2)
Mn1F_2 Mn 0.564679(11) -0.81334(3) 0.46595(2)
Mn1E Mn 1.064679(11) 0.81334(3) 0.03405(2)
Mn1G Mn 0.935321(11) 0.31334(3) 0.46595(2)
Mn1G_2 Mn 0.935321(11) 1.31334(3) 0.46595(2)
Mn2_2 Mn 0.7500 -0.7500 0.40111(3)
Mn2_3 Mn 0.7500 1.2500 0.40111(3)
O1A O 0.89186(6) 1.02330(17) 0.09602(12)
O2A O 0.97486(6) 0.8593(2) 0.09874(14)
O2D O 0.47486(6) -0.6407(2) -0.09874(14)
O2E O 1.02514(6) 1.1407(2) -0.09874(14)
O3A O 0.79284(5) 0.41536(15) 0.26309(10)
O4A O 0.89072(6) 0.44926(18) 0.32586(13)
O4F O 0.60928(6) -0.55074(18) -0.17414(13)
O4G O 0.89072(6) 1.05074(18) -0.17414(13)
O5A O 0.93588(5) 1.05988(17) 0.36982(12)
O5F O 0.56412(5) -0.94012(17) -0.13018(12)
O5G O 0.93588(5) 1.44012(17) -0.13018(12)
O6A O 0.84365(5) 1.14020(15) 0.43037(10)
O6F O 0.65635(5) -0.85980(15) -0.06963(10)
O6_2 O 0.65635(5) 0.35980(15) 0.43037(10)
O6A_2 O 0.84365(5) 0.14020(15) 0.43037(10)
O6G O 0.84365(5) 1.35980(15) -0.06963(10)
O7A O 0.96876(7) 1.3259(2) 0.12006(13)
O8A O 0.77129(7) 0.4389(2) 0.54058(12)
C1A C 0.92205(7) 0.8965(2) 0.13517(13)
C2A C 0.89222(7) 0.78306(19) 0.23092(13)
H1A H 0.9261 0.7340 0.2795
C3A C 0.84893(7) 0.8813(2) 0.31496(14)
H2A H 0.8126 0.9188 0.2698
H3A H 0.8344 0.8032 0.3769
C4A C 0.87783(7) 1.0352(2) 0.37424(13)
C5A C 0.85669(8) 0.6330(2) 0.17223(13)
H4A H 0.8168 0.6740 0.1418
H5A H 0.8808 0.5893 0.1050
C6A C 0.84538(8) 0.4886(2) 0.26182(13)
H6A H 0.7497(12) 0.429(3) 0.600(2)
H7A H 0.9990(13) 1.404(4) 0.122(2)
H8A H 0.8056(14) 0.452(3) 0.564(2)
H9A H 0.9582(15) 1.316(4) 0.179(3)
loop_
_geom_bond_atom_site_label_1
_geom_bond_atom_site_label_2
_geom_bond_site_symmetry_1
_geom_bond_site_symmetry_2
Mn1 O1 1_555 1_555
Mn2 O3 1_555 1_555
O1 C1 1_555 1_555
O2 C1 1_555 1_555
O3 C6 1_555 1_555
O4 C6 1_555 1_555
O5 C4 1_555 1_555
O6 C4 1_555 1_555
O7 Mn1 1_555 1_555
O8 Mn2 1_555 1_555
C1 C2 1_555 1_555
C2 H1 1_555 1_555
C3 C2 1_555 1_555
H2 C3 1_555 1_555
H3 C3 1_555 1_555
C4 C3 1_555 1_555
C5 C2 1_555 1_555
H4 C5 1_555 1_555
H5 C5 1_555 1_555
C6 C5 1_555 1_555
H6 O8 1_555 1_555
H7 O7 1_555 1_555
H8 O8 1_555 1_555
H9 O7 1_555 1_555
Mn1A O1A 1_555 1_555
Mn1D O2 1_555 1_555
Mn1F O4 1_555 1_555
Mn1F_2 O5 1_555 1_555
Mn1E O2A 1_555 1_555
Mn1G O4A 1_555 1_555
Mn1G_2 O5A 1_555 1_555
Mn2_2 O6 1_555 1_555
Mn2_3 O6A 1_555 1_555
O1A C1A 1_555 1_555
O2A C1A 1_555 1_555
O2D Mn1 1_555 1_555
O2E Mn1A 1_555 1_555
O3A Mn2 1_555 1_555
O4A C6A 1_555 1_555
O4F Mn1 1_555 1_555
O4G Mn1A 1_555 1_555
O5A C4A 1_555 1_555
O5F Mn1 1_555 1_555
O5G Mn1A 1_555 1_555
O6A Mn1G_2 1_555 1_555
O6F Mn1 1_555 1_555
O6_2 Mn2 1_555 1_555
O6A_2 Mn2 1_555 1_555
O6G Mn1A 1_555 1_555
O7A Mn1A 1_555 1_555
O8A Mn2 1_555 1_555
C1A C2A 1_555 1_555
C2A H1A 1_555 1_555
C3A C2A 1_555 1_555
H2A C3A 1_555 1_555
H3A C3A 1_555 1_555
C4A O6A 1_555 1_555
C5A C2A 1_555 1_555
H4A C5A 1_555 1_555
H5A C5A 1_555 1_555
C6A O3A 1_555 1_555
H6A O8A 1_555 1_555
H7A O7A 1_555 1_555
H8A O8A 1_555 1_555
H9A O7A 1_555 1_555
O6 Mn1F_2 1_555 1_555
Mn1F O6_2 1_555 1_555
Mn1G O6A_2 1_555 1_555
C3A C4A 1_555 1_555
C5A C6A 1_555 1_555

#END
