
#######################################################################
#
#                 Cambridge Crystallographic Data Centre
#                                CCDC 
#
#######################################################################
#
# If this CIF has been generated from an entry in the Cambridge 
# Structural Database, then it will include bibliographic, chemical, 
# crystal, experimental, refinement or atomic coordinate data resulting 
# from the CCDC's data processing and validation procedures.
#
#######################################################################

data_OFOROR
_symmetry_cell_setting           monoclinic
_symmetry_space_group_name_H-M   'P 21/m'
_symmetry_Int_Tables_number      11
_space_group_name_Hall           '-P 2yb'
loop_
_symmetry_equiv_pos_site_id
_symmetry_equiv_pos_as_xyz
1 x,y,z
2 -x,1/2+y,-z
3 -x,-y,-z
4 x,1/2-y,z
_cell_length_a                   6.6031(12)
_cell_length_b                   25.306(5)
_cell_length_c                   8.5574(16)
_cell_angle_alpha                90
_cell_angle_beta                 91.415(3)
_cell_angle_gamma                90
_cell_volume                     1429.49
loop_
_atom_site_label
_atom_site_type_symbol
_atom_site_fract_x
_atom_site_fract_y
_atom_site_fract_z
Hg1 Hg 1.06196(9) 0.2500 0.28983(7)
Cu1 Cu 0.5000 0.5000 0.5000
O1 O 0.3290(9) 0.5535(2) 0.4202(9)
N1 N 0.3214(10) 0.4434(3) 0.4053(8)
N2 N 0.8166(12) 0.3195(3) 0.2296(9)
C1 C 0.1560(13) 0.5508(3) 0.3465(10)
C2 C 0.0493(14) 0.5975(4) 0.3033(12)
H1 H 0.1068 0.6302 0.3269
C3 C -0.1368(17) 0.5957(5) 0.2274(13)
H2 H -0.2016 0.6271 0.2002
C4 C -0.2295(17) 0.5481(5) 0.1908(14)
H3 H -0.3558 0.5472 0.1403
C5 C -0.1317(16) 0.5028(5) 0.2303(13)
H4 H -0.1943 0.4707 0.2075
C6 C 0.0580(13) 0.5024(4) 0.3036(10)
C7 C 0.1493(13) 0.4522(3) 0.3402(11)
H5 H 0.0733 0.4225 0.3131
C8 C 0.3794(13) 0.3870(3) 0.4198(11)
H6 H 0.2594 0.3651 0.4084
H7 H 0.4390 0.3808 0.5229
C9 C 0.5298(13) 0.3718(3) 0.2968(10)
C10 C 0.5172(16) 0.3911(4) 0.1460(11)
H8 H 0.4165 0.4151 0.1175
C11 C 0.6546(17) 0.3744(4) 0.0377(12)
H9 H 0.6487 0.3871 -0.0643
C12 C 0.8029(15) 0.3380(4) 0.0847(12)
H10 H 0.8952 0.3263 0.0119
C13 C 0.6832(15) 0.3357(3) 0.3308(10)
H11 H 0.6923 0.3222 0.4317
I1 I 1.28856(16) 0.2500 0.03930(15)
I2 I 1.0872(4) 0.2500 0.59740(17)
Cu1C Cu 0.5000 0.0000 0.5000
O1C O 0.3290(9) -0.0535(2) 0.4202(9)
O1B O 0.6710(9) 0.4465(2) 0.5798(9)
N1C N 0.3214(10) 0.0566(3) 0.4053(8)
N1B N 0.6786(10) 0.5566(3) 0.5947(8)
N2C N 0.8166(12) 0.1805(3) 0.2296(9)
C1C C 0.1560(13) -0.0508(3) 0.3465(10)
C2C C 0.0493(14) -0.0975(4) 0.3033(12)
H1C H 0.1068 -0.1302 0.3269
C3C C -0.1368(17) -0.0957(5) 0.2274(13)
H2C H -0.2016 -0.1271 0.2002
C4C C -0.2295(17) -0.0481(5) 0.1908(14)
H3C H -0.3558 -0.0472 0.1403
C5C C -0.1317(16) -0.0028(5) 0.2303(13)
H4C H -0.1943 0.0293 0.2075
C6C C 0.0580(13) -0.0024(4) 0.3036(10)
C7C C 0.1493(13) 0.0478(3) 0.3402(11)
H5C H 0.0733 0.0775 0.3131
C8C C 0.3794(13) 0.1130(3) 0.4198(11)
H6C H 0.2594 0.1349 0.4084
H7C H 0.4390 0.1192 0.5229
C9C C 0.5298(13) 0.1282(3) 0.2968(10)
C10C C 0.5172(16) 0.1089(4) 0.1460(11)
H8C H 0.4165 0.0849 0.1175
C11C C 0.6546(17) 0.1256(4) 0.0377(12)
H9C H 0.6487 0.1129 -0.0643
C12C C 0.8029(15) 0.1620(4) 0.0847(12)
H10C H 0.8952 0.1737 0.0119
C13C C 0.6832(15) 0.1643(3) 0.3308(10)
H11C H 0.6923 0.1778 0.4317
loop_
_geom_bond_atom_site_label_1
_geom_bond_atom_site_label_2
_geom_bond_site_symmetry_1
_geom_bond_site_symmetry_2
Hg1 N2 1_555 1_555
Cu1 O1 1_555 1_555
O1 C1 1_555 1_555
N1 Cu1 1_555 1_555
N2 C12 1_555 1_555
C1 C2 1_555 1_555
C2 H1 1_555 1_555
C3 C2 1_555 1_555
H2 C3 1_555 1_555
C4 C3 1_555 1_555
H3 C4 1_555 1_555
C5 C4 1_555 1_555
H4 C5 1_555 1_555
C6 C1 1_555 1_555
C7 N1 1_555 1_555
H5 C7 1_555 1_555
C8 N1 1_555 1_555
H6 C8 1_555 1_555
H7 C8 1_555 1_555
C9 C8 1_555 1_555
C10 C9 1_555 1_555
H8 C10 1_555 1_555
C11 C10 1_555 1_555
H9 C11 1_555 1_555
C12 C11 1_555 1_555
H10 C12 1_555 1_555
C13 N2 1_555 1_555
H11 C13 1_555 1_555
I1 Hg1 1_555 1_555
I2 Hg1 1_555 1_555
Cu1C O1C 1_555 1_555
O1C C1C 1_555 1_555
O1B Cu1 1_555 1_555
N1C Cu1C 1_555 1_555
N1B Cu1 1_555 1_555
N2C Hg1 1_555 1_555
C1C C2C 1_555 1_555
C2C H1C 1_555 1_555
C3C C2C 1_555 1_555
H2C C3C 1_555 1_555
C4C C3C 1_555 1_555
H3C C4C 1_555 1_555
C5C C4C 1_555 1_555
H4C C5C 1_555 1_555
C6C C1C 1_555 1_555
C7C N1C 1_555 1_555
H5C C7C 1_555 1_555
C8C N1C 1_555 1_555
H6C C8C 1_555 1_555
H7C C8C 1_555 1_555
C9C C8C 1_555 1_555
C10C C9C 1_555 1_555
H8C C10C 1_555 1_555
C11C C10C 1_555 1_555
H9C C11C 1_555 1_555
C12C N2C 1_555 1_555
H10C C12C 1_555 1_555
C13C N2C 1_555 1_555
H11C C13C 1_555 1_555
C5 C6 1_555 1_555
C6 C7 1_555 1_555
C9 C13 1_555 1_555
C5C C6C 1_555 1_555
C6C C7C 1_555 1_555
C9C C13C 1_555 1_555
C11C C12C 1_555 1_555

#END
