
#######################################################################
#
#                 Cambridge Crystallographic Data Centre
#                                CCDC 
#
#######################################################################
#
# If this CIF has been generated from an entry in the Cambridge 
# Structural Database, then it will include bibliographic, chemical, 
# crystal, experimental, refinement or atomic coordinate data resulting 
# from the CCDC's data processing and validation procedures.
#
#######################################################################

data_OFOXIQ
_symmetry_cell_setting           monoclinic
_symmetry_space_group_name_H-M   'P 21/c'
_symmetry_Int_Tables_number      14
_space_group_name_Hall           '-P 2ybc'
loop_
_symmetry_equiv_pos_site_id
_symmetry_equiv_pos_as_xyz
1 x,y,z
2 x,1/2-y,1/2+z
3 -x,-y,-z
4 -x,1/2+y,1/2-z
_cell_length_a                   11.5137(13)
_cell_length_b                   14.6456(10)
_cell_length_c                   12.7920(7)
_cell_angle_alpha                90
_cell_angle_beta                 105.372(7)
_cell_angle_gamma                90
_cell_volume                     2079.88
loop_
_atom_site_label
_atom_site_type_symbol
_atom_site_fract_x
_atom_site_fract_y
_atom_site_fract_z
Ag1 Ag 0.95331(3) -0.06842(2) 0.26480(2)
Ag2 Ag 0.78529(3) -0.56694(2) -0.03301(2)
N1 N 0.7455(3) -0.3994(2) 0.1128(2)
N2 N 0.7095(3) -0.4785(2) 0.0733(2)
C1 C 0.8314(4) -0.3560(3) 0.0782(3)
C2 C 0.8723(3) -0.2705(3) 0.1269(3)
N3 N 0.9105(3) -0.2023(2) 0.1649(3)
C3 C 0.8830(4) -0.3866(3) -0.0049(3)
N4 N 0.9230(3) -0.4107(2) -0.0723(3)
C4 C 0.6166(3) -0.5149(3) 0.1151(3)
C5 C 0.5763(3) -0.6027(3) 0.0826(3)
H1 H 0.6100 -0.6344 0.0339
C6 C 0.4871(3) -0.6443(3) 0.1209(3)
H2 H 0.4607 -0.7039 0.0999
C7 C 0.4386(3) -0.5945(3) 0.1910(3)
C8 C 0.4747(3) -0.5067(3) 0.2233(3)
H3 H 0.4391 -0.4749 0.2706
C9 C 0.5639(3) -0.4660(3) 0.1852(3)
H4 H 0.5890 -0.4061 0.2059
N5 N 0.3440(3) -0.6369(3) 0.2326(3)
O1 O 0.3115(3) -0.7146(2) 0.2031(3)
O2 O 0.3018(3) -0.5914(3) 0.2944(3)
N6 N 1.0065(3) 0.1026(2) 0.1283(2)
N7 N 1.0422(3) 0.0243(2) 0.1703(2)
C10 C 0.9188(4) 0.1468(2) 0.1586(3)
C11 C 0.8795(4) 0.2308(3) 0.1074(3)
N8 N 0.8459(3) 0.2982(2) 0.0660(3)
C12 C 0.8652(4) 0.1200(2) 0.2430(3)
N9 N 0.8236(3) 0.1030(2) 0.3125(3)
C13 C 1.1380(3) -0.0130(3) 0.1315(3)
C14 C 1.1803(3) -0.0983(3) 0.1702(3)
H5 H 1.1472 -0.1281 0.2207
C15 C 1.2712(4) -0.1398(3) 0.1349(3)
H6 H 1.2995 -0.1980 0.1606
C16 C 1.3193(4) -0.0954(3) 0.0622(3)
C17 C 1.2805(4) -0.0095(3) 0.0237(3)
H7 H 1.3153 0.0202 -0.0258
C18 C 1.1897(4) 0.0326(3) 0.0588(3)
H8 H 1.1631 0.0914 0.0339
N10 N 1.4130(3) -0.1416(3) 0.0229(3)
O3 O 1.4581(3) -0.2101(2) 0.0691(3)
O4 O 1.4412(4) -0.1085(3) -0.0539(3)
N4A N 0.9230(3) -0.0893(2) 0.4277(3)
N8_2 N 0.8459(3) -0.7018(2) 0.0660(3)
N9A N 0.8236(3) -0.6030(2) -0.1875(3)
Ag1A Ag 0.95331(3) -0.43158(2) -0.23520(2)
Ag2_2 Ag 0.78529(3) 0.43306(2) -0.03301(2)
Ag2A Ag 0.78529(3) 0.06694(2) 0.46699(2)
loop_
_geom_bond_atom_site_label_1
_geom_bond_atom_site_label_2
_geom_bond_site_symmetry_1
_geom_bond_site_symmetry_2
Ag1 N3 1_555 1_555
Ag2 N2 1_555 1_555
N1 N2 1_555 1_555
N2 C4 1_555 1_555
C1 N1 1_555 1_555
C2 C1 1_555 1_555
N3 C2 1_555 1_555
C3 C1 1_555 1_555
N4 C3 1_555 1_555
C4 C5 1_555 1_555
C5 H1 1_555 1_555
C6 C5 1_555 1_555
H2 C6 1_555 1_555
C7 C6 1_555 1_555
C8 C7 1_555 1_555
H3 C8 1_555 1_555
C9 C4 1_555 1_555
H4 C9 1_555 1_555
N5 C7 1_555 1_555
O1 N5 1_555 1_555
O2 N5 1_555 1_555
N6 N7 1_555 1_555
N7 Ag1 1_555 1_555
C10 N6 1_555 1_555
C11 C10 1_555 1_555
N8 C11 1_555 1_555
C12 C10 1_555 1_555
N9 C12 1_555 1_555
C13 N7 1_555 1_555
C14 C13 1_555 1_555
H5 C14 1_555 1_555
C15 C14 1_555 1_555
H6 C15 1_555 1_555
C16 C15 1_555 1_555
C17 C16 1_555 1_555
H7 C17 1_555 1_555
C18 C13 1_555 1_555
H8 C18 1_555 1_555
N10 C16 1_555 1_555
O3 N10 1_555 1_555
O4 N10 1_555 1_555
N4A Ag1 1_555 1_555
N8_2 Ag2 1_555 1_555
N9A Ag2 1_555 1_555
Ag1A N4 1_555 1_555
Ag2_2 N8 1_555 1_555
Ag2A N9 1_555 1_555
C8 C9 1_555 1_555
C17 C18 1_555 1_555

#END
