
#######################################################################
#
#                 Cambridge Crystallographic Data Centre
#                                CCDC 
#
#######################################################################
#
# If this CIF has been generated from an entry in the Cambridge 
# Structural Database, then it will include bibliographic, chemical, 
# crystal, experimental, refinement or atomic coordinate data resulting 
# from the CCDC's data processing and validation procedures.
#
#######################################################################

data_OFOYIR
_symmetry_cell_setting           triclinic
_symmetry_space_group_name_H-M   'P -1'
_symmetry_Int_Tables_number      2
_space_group_name_Hall           '-P 1'
loop_
_symmetry_equiv_pos_site_id
_symmetry_equiv_pos_as_xyz
1 x,y,z
2 -x,-y,-z
_cell_length_a                   9.068(3)
_cell_length_b                   10.192(4)
_cell_length_c                   11.497(4)
_cell_angle_alpha                64.830(5)
_cell_angle_beta                 87.708(5)
_cell_angle_gamma                71.335(6)
_cell_volume                     905.353
loop_
_atom_site_label
_atom_site_type_symbol
_atom_site_fract_x
_atom_site_fract_y
_atom_site_fract_z
Co1 Co 0.5000 0.5000 0.5000
N1 N 0.3795(4) 0.5963(4) 0.3103(3)
N2 N 0.3318(4) 0.6751(4) -0.4539(3)
C1 C 0.1384(5) 0.9291(5) -0.1614(4)
H1 H 0.2420 0.9384 -0.1684
H2 H 0.0776 0.9956 -0.1238
C2 C 0.1528(5) 0.7637(5) -0.0728(4)
H3 H 0.0491 0.7550 -0.0660
H4 H 0.2129 0.6978 -0.1111
C3 C 0.4597(5) 0.6135(5) 0.2078(4)
H5 H 0.5677 0.5880 0.2206
C4 C 0.3914(5) 0.6666(5) 0.0845(4)
H6 H 0.4532 0.6749 0.0169
C5 C 0.2306(5) 0.7080(5) 0.0610(4)
C6 C 0.1470(5) 0.6935(5) 0.1660(4)
H7 H 0.0385 0.7213 0.1553
C7 C 0.2247(5) 0.6378(5) 0.2868(4)
H8 H 0.1655 0.6286 0.3561
C8 C 0.0591(5) 0.9825(5) -0.2978(4)
H9 H -0.0471 0.9799 -0.2917
H10 H 0.0536 1.0878 -0.3518
C9 C 0.1904(5) 0.6738(5) -0.4172(4)
H11 H 0.1528 0.6019 -0.4234
C10 C 0.0967(5) 0.7733(5) -0.3705(4)
H12 H -0.0011 0.7676 -0.3467
C11 C 0.1486(5) 0.8810(4) -0.3592(4)
C12 C 0.2912(5) 0.8861(5) -0.4014(5)
H13 H 0.3288 0.9603 -0.3998
C13 C 0.3795(5) 0.7831(5) -0.4461(4)
H14 H 0.4766 0.7887 -0.4721
N3 N 0.7521(4) 0.6810(4) 0.4281(4)
O1 O 0.6380(3) 0.6463(3) 0.4055(3)
O2 O 0.7536(5) 0.7169(6) 0.5169(5)
O3 O 0.8601(5) 0.6762(6) 0.3621(5)
N1A N 0.6205(4) 0.4037(4) 0.6897(3)
N2A N 0.6682(4) 0.3249(4) 1.4539(3)
C1A C 0.8616(5) 0.0709(5) 1.1614(4)
H1A H 0.7580 0.0616 1.1684
H2A H 0.9224 0.0044 1.1238
C2A C 0.8472(5) 0.2363(5) 1.0728(4)
H3A H 0.9509 0.2450 1.0660
H4A H 0.7871 0.3022 1.1111
C3A C 0.5403(5) 0.3865(5) 0.7922(4)
H5A H 0.4323 0.4120 0.7794
C4A C 0.6086(5) 0.3334(5) 0.9155(4)
H6A H 0.5468 0.3251 0.9831
C5A C 0.7694(5) 0.2920(5) 0.9390(4)
C6A C 0.8530(5) 0.3065(5) 0.8340(4)
H7A H 0.9615 0.2787 0.8447
C7A C 0.7753(5) 0.3622(5) 0.7132(4)
H8A H 0.8345 0.3714 0.6439
C8A C 0.9409(5) 0.0175(5) 1.2978(4)
H9A H 1.0471 0.0201 1.2917
H10A H 0.9464 -0.0878 1.3518
C9A C 0.8096(5) 0.3262(5) 1.4172(4)
H11A H 0.8472 0.3981 1.4234
C10A C 0.9033(5) 0.2267(5) 1.3705(4)
H12A H 1.0011 0.2324 1.3467
C11A C 0.8514(5) 0.1190(4) 1.3592(4)
C12A C 0.7088(5) 0.1139(5) 1.4014(5)
H13A H 0.6712 0.0397 1.3998
C13A C 0.6205(5) 0.2169(5) 1.4461(4)
H14A H 0.5234 0.2113 1.4721
N3A N 0.2479(4) 0.3190(4) 0.5719(4)
O1A O 0.3620(3) 0.3537(3) 0.5945(3)
O2A O 0.2464(5) 0.2831(6) 0.4831(5)
O3A O 0.1399(5) 0.3238(6) 0.6379(5)
N2_2 N 0.3318(4) 0.6751(4) 0.5461(3)
N2A_2 N 0.6682(4) 0.3249(4) 0.4539(3)
Co1_2 Co 0.5000 0.5000 -0.5000
Co1_3 Co 0.5000 0.5000 1.5000
C14 C 0.2659(9) 1.2149(15) -0.0191(8)
H15 H 0.2490 1.2318 -0.1043
C15 C 0.3330(9) 1.0751(11) 0.0705(11)
H16 H 0.3599 0.9936 0.0479
C16 C 0.3632(9) 1.0464(10) 0.1901(11)
H17 H 0.4131 0.9459 0.2512
C17 C 0.3228(12) 1.1615(18) 0.2256(10)
H18 H 0.3446 1.1409 0.3112
C18 C 0.2501(12) 1.3082(15) 0.1363(18)
H19 H 0.2204 1.3892 0.1595
C19 C 0.2215(9) 1.3336(10) 0.0111(14)
H20 H 0.1716 1.4327 -0.0524
loop_
_geom_bond_atom_site_label_1
_geom_bond_atom_site_label_2
_geom_bond_site_symmetry_1
_geom_bond_site_symmetry_2
Co1 N1 1_555 1_555
N1 C3 1_555 1_555
N2 C9 1_555 1_555
C1 H1 1_555 1_555
H2 C1 1_555 1_555
C2 C1 1_555 1_555
H3 C2 1_555 1_555
H4 C2 1_555 1_555
C3 H5 1_555 1_555
C4 C3 1_555 1_555
H6 C4 1_555 1_555
C5 C2 1_555 1_555
C6 C5 1_555 1_555
H7 C6 1_555 1_555
C7 N1 1_555 1_555
H8 C7 1_555 1_555
C8 C1 1_555 1_555
H9 C8 1_555 1_555
H10 C8 1_555 1_555
C9 H11 1_555 1_555
C10 C9 1_555 1_555
H12 C10 1_555 1_555
C11 C8 1_555 1_555
C12 C11 1_555 1_555
H13 C12 1_555 1_555
C13 N2 1_555 1_555
H14 C13 1_555 1_555
C14 H15 1_555 1_555
C15 C14 1_555 1_555
H16 C15 1_555 1_555
C16 C15 1_555 1_555
H17 C16 1_555 1_555
C17 C16 1_555 1_555
H18 C17 1_555 1_555
C18 C17 1_555 1_555
H19 C18 1_555 1_555
C19 C14 1_555 1_555
H20 C19 1_555 1_555
N3 O1 1_555 1_555
O1 Co1 1_555 1_555
O2 N3 1_555 1_555
O3 N3 1_555 1_555
N1A Co1 1_555 1_555
N2A C9A 1_555 1_555
C1A H1A 1_555 1_555
H2A C1A 1_555 1_555
C2A C1A 1_555 1_555
H3A C2A 1_555 1_555
H4A C2A 1_555 1_555
C3A N1A 1_555 1_555
H5A C3A 1_555 1_555
C4A C3A 1_555 1_555
H6A C4A 1_555 1_555
C5A C2A 1_555 1_555
C6A C5A 1_555 1_555
H7A C6A 1_555 1_555
C7A N1A 1_555 1_555
H8A C7A 1_555 1_555
C8A C1A 1_555 1_555
H9A C8A 1_555 1_555
H10A C8A 1_555 1_555
C9A H11A 1_555 1_555
C10A C9A 1_555 1_555
H12A C10A 1_555 1_555
C11A C8A 1_555 1_555
C12A C11A 1_555 1_555
H13A C12A 1_555 1_555
C13A N2A 1_555 1_555
H14A C13A 1_555 1_555
N3A O1A 1_555 1_555
O1A Co1 1_555 1_555
O2A N3A 1_555 1_555
O3A N3A 1_555 1_555
N2_2 Co1 1_555 1_555
N2A_2 Co1 1_555 1_555
Co1_2 N2 1_555 1_555
Co1_3 N2A 1_555 1_555
C4 C5 1_555 1_555
C6 C7 1_555 1_555
C10 C11 1_555 1_555
C12 C13 1_555 1_555
C18 C19 1_555 1_555
C4A C5A 1_555 1_555
C6A C7A 1_555 1_555
C10A C11A 1_555 1_555
C12A C13A 1_555 1_555

#END
