
#######################################################################
#
#                 Cambridge Crystallographic Data Centre
#                                CCDC 
#
#######################################################################
#
# If this CIF has been generated from an entry in the Cambridge 
# Structural Database, then it will include bibliographic, chemical, 
# crystal, experimental, refinement or atomic coordinate data resulting 
# from the CCDC's data processing and validation procedures.
#
#######################################################################

data_OFOYOX
_symmetry_cell_setting           triclinic
_symmetry_space_group_name_H-M   'P -1'
_symmetry_Int_Tables_number      2
_space_group_name_Hall           '-P 1'
loop_
_symmetry_equiv_pos_site_id
_symmetry_equiv_pos_as_xyz
1 x,y,z
2 -x,-y,-z
_cell_length_a                   9.137(2)
_cell_length_b                   10.330(2)
_cell_length_c                   11.701(3)
_cell_angle_alpha                64.297(4)
_cell_angle_beta                 87.434(4)
_cell_angle_gamma                71.399(4)
_cell_volume                     937.464
loop_
_atom_site_label
_atom_site_type_symbol
_atom_site_fract_x
_atom_site_fract_y
_atom_site_fract_z
Cd1 Cd 0.5000 0.5000 0.5000
N1 N 0.3695(6) 0.6015(6) 0.2991(5)
N2 N 0.3161(6) 0.6829(6) -0.4512(5)
C1 C 0.1236(9) 0.9280(8) -0.1623(7)
H1 H 0.2244 0.9417 -0.1714
H2 H 0.0617 0.9916 -0.1244
C2 C 0.1442(10) 0.7629(9) -0.0749(7)
H3 H 0.0433 0.7496 -0.0664
H4 H 0.2060 0.6997 -0.1132
C3 C 0.4505(8) 0.6171(9) 0.1985(7)
H5 H 0.5579 0.5896 0.2112
C4 C 0.3817(9) 0.6719(9) 0.0779(7)
H6 H 0.4420 0.6833 0.0103
C5 C 0.2226(8) 0.7105(8) 0.0561(6)
C6 C 0.1401(9) 0.6963(9) 0.1591(7)
H7 H 0.0325 0.7239 0.1487
C7 C 0.2163(8) 0.6416(8) 0.2775(7)
H8 H 0.1579 0.6321 0.3461
C8 C 0.0432(9) 0.9790(9) -0.2954(7)
H9 H -0.0609 0.9730 -0.2869
H10 H 0.0342 1.0843 -0.3493
C9 C 0.1783(8) 0.6777(8) -0.4128(7)
H11 H 0.1431 0.6050 -0.4178
C10 C 0.0847(8) 0.7725(9) -0.3664(7)
H12 H -0.0107 0.7630 -0.3407
C11 C 0.1319(8) 0.8816(8) -0.3578(6)
C12 C 0.2722(10) 0.8907(9) -0.4004(7)
H13 H 0.3086 0.9643 -0.3985
C13 C 0.3594(10) 0.7911(9) -0.4461(7)
H14 H 0.4538 0.8004 -0.4749
N3 N 0.7516(8) 0.6942(7) 0.4187(7)
O1 O 0.6448(7) 0.6613(6) 0.3907(5)
O2 O 0.7425(10) 0.7295(11) 0.5068(9)
O3 O 0.8622(10) 0.6929(13) 0.3620(10)
N1A N 0.6305(6) 0.3985(6) 0.7009(5)
N2A N 0.6839(6) 0.3171(6) 1.4512(5)
C1A C 0.8764(9) 0.0720(8) 1.1623(7)
H1A H 0.7756 0.0583 1.1714
H2A H 0.9383 0.0084 1.1244
C2A C 0.8558(10) 0.2371(9) 1.0749(7)
H3A H 0.9567 0.2504 1.0664
H4A H 0.7940 0.3003 1.1132
C3A C 0.5495(8) 0.3829(9) 0.8015(7)
H5A H 0.4421 0.4104 0.7888
C4A C 0.6183(9) 0.3281(9) 0.9221(7)
H6A H 0.5580 0.3167 0.9897
C5A C 0.7774(8) 0.2895(8) 0.9439(6)
C6A C 0.8599(9) 0.3037(9) 0.8409(7)
H7A H 0.9675 0.2761 0.8513
C7A C 0.7837(8) 0.3584(8) 0.7225(7)
H8A H 0.8421 0.3679 0.6539
C8A C 0.9568(9) 0.0210(9) 1.2954(7)
H9A H 1.0609 0.0270 1.2869
H10A H 0.9658 -0.0843 1.3493
C9A C 0.8217(8) 0.3223(8) 1.4128(7)
H11A H 0.8569 0.3950 1.4178
C10A C 0.9153(8) 0.2275(9) 1.3664(7)
H12A H 1.0107 0.2370 1.3407
C11A C 0.8681(8) 0.1184(8) 1.3578(6)
C12A C 0.7278(10) 0.1093(9) 1.4004(7)
H13A H 0.6914 0.0357 1.3985
C13A C 0.6406(10) 0.2089(9) 1.4461(7)
H14A H 0.5462 0.1996 1.4749
N3A N 0.2484(8) 0.3058(7) 0.5813(7)
O1A O 0.3552(7) 0.3387(6) 0.6093(5)
O2A O 0.2575(10) 0.2705(11) 0.4932(9)
O3A O 0.1378(10) 0.3071(13) 0.6380(10)
N2_2 N 0.3161(6) 0.6829(6) 0.5488(5)
N2A_2 N 0.6839(6) 0.3171(6) 0.4512(5)
Cd1_2 Cd 0.5000 0.5000 -0.5000
Cd1_3 Cd 0.5000 0.5000 1.5000
C14 C 0.268(2) 1.224(4) -0.0132(15)
H15 H 0.2443 1.2456 -0.0973
C15 C 0.342(2) 1.078(3) 0.074(3)
H16 H 0.3681 0.9990 0.0498
C16 C 0.3758(16) 1.051(2) 0.191(2)
H17 H 0.4265 0.9511 0.2508
C17 C 0.341(2) 1.156(4) 0.2240(17)
H18 H 0.3671 1.1327 0.3083
C18 C 0.268(3) 1.301(3) 0.143(3)
H19 H 0.2427 1.3774 0.1693
C19 C 0.2312(18) 1.334(2) 0.020(3)
H20 H 0.1803 1.4340 -0.0397
loop_
_geom_bond_atom_site_label_1
_geom_bond_atom_site_label_2
_geom_bond_site_symmetry_1
_geom_bond_site_symmetry_2
Cd1 N1 1_555 1_555
N1 C3 1_555 1_555
N2 C9 1_555 1_555
C1 H1 1_555 1_555
H2 C1 1_555 1_555
C2 C1 1_555 1_555
H3 C2 1_555 1_555
H4 C2 1_555 1_555
C3 H5 1_555 1_555
C4 C3 1_555 1_555
H6 C4 1_555 1_555
C5 C2 1_555 1_555
C6 C5 1_555 1_555
H7 C6 1_555 1_555
C7 N1 1_555 1_555
H8 C7 1_555 1_555
C8 C1 1_555 1_555
H9 C8 1_555 1_555
H10 C8 1_555 1_555
C9 H11 1_555 1_555
C10 C9 1_555 1_555
H12 C10 1_555 1_555
C11 C8 1_555 1_555
C12 C11 1_555 1_555
H13 C12 1_555 1_555
C13 N2 1_555 1_555
H14 C13 1_555 1_555
C14 H15 1_555 1_555
C15 C14 1_555 1_555
H16 C15 1_555 1_555
C16 C15 1_555 1_555
H17 C16 1_555 1_555
C17 C16 1_555 1_555
H18 C17 1_555 1_555
C18 C17 1_555 1_555
H19 C18 1_555 1_555
C19 C14 1_555 1_555
H20 C19 1_555 1_555
N3 O1 1_555 1_555
O1 Cd1 1_555 1_555
O2 N3 1_555 1_555
O3 N3 1_555 1_555
N1A Cd1 1_555 1_555
N2A C9A 1_555 1_555
C1A H1A 1_555 1_555
H2A C1A 1_555 1_555
C2A C1A 1_555 1_555
H3A C2A 1_555 1_555
H4A C2A 1_555 1_555
C3A N1A 1_555 1_555
H5A C3A 1_555 1_555
C4A C3A 1_555 1_555
H6A C4A 1_555 1_555
C5A C2A 1_555 1_555
C6A C5A 1_555 1_555
H7A C6A 1_555 1_555
C7A N1A 1_555 1_555
H8A C7A 1_555 1_555
C8A C1A 1_555 1_555
H9A C8A 1_555 1_555
H10A C8A 1_555 1_555
C9A H11A 1_555 1_555
C10A C9A 1_555 1_555
H12A C10A 1_555 1_555
C11A C8A 1_555 1_555
C12A C11A 1_555 1_555
H13A C12A 1_555 1_555
C13A N2A 1_555 1_555
H14A C13A 1_555 1_555
N3A O1A 1_555 1_555
O1A Cd1 1_555 1_555
O2A N3A 1_555 1_555
O3A N3A 1_555 1_555
N2_2 Cd1 1_555 1_555
N2A_2 Cd1 1_555 1_555
Cd1_2 N2 1_555 1_555
Cd1_3 N2A 1_555 1_555
C4 C5 1_555 1_555
C6 C7 1_555 1_555
C10 C11 1_555 1_555
C12 C13 1_555 1_555
C18 C19 1_555 1_555
C4A C5A 1_555 1_555
C6A C7A 1_555 1_555
C10A C11A 1_555 1_555
C12A C13A 1_555 1_555

#END
