
#######################################################################
#
#                 Cambridge Crystallographic Data Centre
#                                CCDC 
#
#######################################################################
#
# If this CIF has been generated from an entry in the Cambridge 
# Structural Database, then it will include bibliographic, chemical, 
# crystal, experimental, refinement or atomic coordinate data resulting 
# from the CCDC's data processing and validation procedures.
#
#######################################################################

data_OFUCUN
_symmetry_cell_setting           monoclinic
_symmetry_space_group_name_H-M   'P 21/c'
_symmetry_Int_Tables_number      14
_space_group_name_Hall           '-P 2ybc'
loop_
_symmetry_equiv_pos_site_id
_symmetry_equiv_pos_as_xyz
1 x,y,z
2 x,1/2-y,1/2+z
3 -x,-y,-z
4 -x,1/2+y,1/2-z
_cell_length_a                   9.600(6)
_cell_length_b                   14.588(10)
_cell_length_c                   11.743(9)
_cell_angle_alpha                90
_cell_angle_beta                 109.73(5)
_cell_angle_gamma                90
_cell_volume                     1548
loop_
_atom_site_label
_atom_site_type_symbol
_atom_site_fract_x
_atom_site_fract_y
_atom_site_fract_z
Co1 Co 0.12605(9) 0.16884(5) 0.35129(7)
O1 O -0.0414(7) 0.1803(4) 0.4259(6)
H1 H -0.076(9) 0.221(5) 0.437(7)
H2 H -0.075(10) 0.154(6) 0.446(8)
O2 O -0.1279(5) 0.4499(3) 0.0586(4)
O3 O 0.1639(5) 0.3122(3) 0.4007(3)
O4 O 0.0062(5) 0.7049(3) 0.3236(4)
O5 O 0.1421(5) 0.6531(3) 0.5052(4)
N1 N -0.0357(5) 0.5428(3) 0.2243(4)
N2 N 0.0083(6) 0.3842(3) 0.2357(4)
H3 H -0.0143 0.3317 0.2012
C1 C -0.0562(7) 0.4598(4) 0.1687(5)
C2 C 0.1048(7) 0.3845(4) 0.3520(5)
C3 C 0.1278(7) 0.4726(4) 0.4083(5)
H4 H 0.1901 0.4800 0.4879
C4 C 0.0551(7) 0.5459(4) 0.3414(5)
C5 C 0.0725(7) 0.6412(4) 0.3968(5)
N3 N 0.3170(5) 0.1560(3) 0.2967(4)
N4 N 0.3028(6) 0.1367(3) 0.5145(4)
C6 C 0.3184(7) 0.1595(5) 0.1829(5)
H5 H 0.2293 0.1696 0.1207
C7 C 0.4436(8) 0.1492(5) 0.1534(6)
H6 H 0.4384 0.1508 0.0729
C8 C 0.5777(9) 0.1363(6) 0.2443(7)
H7 H 0.6650 0.1313 0.2269
C9 C 0.5780(8) 0.1312(6) 0.3611(6)
H8 H 0.6664 0.1214 0.4241
C10 C 0.4491(7) 0.1403(4) 0.3853(5)
C11 C 0.4400(7) 0.1325(4) 0.5078(5)
C12 C 0.5637(8) 0.1186(6) 0.6116(6)
H9 H 0.6579 0.1156 0.6058
C13 C 0.5455(9) 0.1093(6) 0.7226(7)
H10 H 0.6272 0.1012 0.7923
C14 C 0.4065(9) 0.1122(6) 0.7289(6)
H11 H 0.3913 0.1049 0.8025
C15 C 0.2876(8) 0.1264(5) 0.6228(6)
H12 H 0.1929 0.1288 0.6275
O4C O -0.0062(5) 0.2049(3) 0.1764(4)
N1C N 0.0357(5) 0.0428(3) 0.2757(4)
Co1C Co -0.12605(9) 0.66884(5) 0.14871(7)
loop_
_geom_bond_atom_site_label_1
_geom_bond_atom_site_label_2
_geom_bond_site_symmetry_1
_geom_bond_site_symmetry_2
Co1 O1 1_555 1_555
O1 H1 1_555 1_555
H2 O1 1_555 1_555
O2 C1 1_555 1_555
O3 Co1 1_555 1_555
O4 C5 1_555 1_555
O5 C5 1_555 1_555
N1 C1 1_555 1_555
N2 H3 1_555 1_555
C1 N2 1_555 1_555
C2 O3 1_555 1_555
C3 C2 1_555 1_555
H4 C3 1_555 1_555
C4 N1 1_555 1_555
C5 C4 1_555 1_555
N3 Co1 1_555 1_555
N4 Co1 1_555 1_555
C6 N3 1_555 1_555
H5 C6 1_555 1_555
C7 C6 1_555 1_555
H6 C7 1_555 1_555
C8 C7 1_555 1_555
H7 C8 1_555 1_555
C9 C8 1_555 1_555
H8 C9 1_555 1_555
C10 N3 1_555 1_555
C11 N4 1_555 1_555
C12 C11 1_555 1_555
H9 C12 1_555 1_555
C13 C12 1_555 1_555
H10 C13 1_555 1_555
C14 C13 1_555 1_555
H11 C14 1_555 1_555
C15 N4 1_555 1_555
H12 C15 1_555 1_555
O4C Co1 1_555 1_555
N1C Co1 1_555 1_555
Co1C O4 1_555 1_555
N1 Co1C 1_555 1_555
N2 C2 1_555 1_555
C3 C4 1_555 1_555
C9 C10 1_555 1_555
C10 C11 1_555 1_555
C14 C15 1_555 1_555

#END
