
#######################################################################
#
#                 Cambridge Crystallographic Data Centre
#                                CCDC 
#
#######################################################################
#
# If this CIF has been generated from an entry in the Cambridge 
# Structural Database, then it will include bibliographic, chemical, 
# crystal, experimental, refinement or atomic coordinate data resulting 
# from the CCDC's data processing and validation procedures.
#
#######################################################################

data_OFUCOH01
_symmetry_cell_setting           orthorhombic
_symmetry_space_group_name_H-M   'P 21 21 21'
_symmetry_Int_Tables_number      19
_space_group_name_Hall           'P 2ac 2ab'
loop_
_symmetry_equiv_pos_site_id
_symmetry_equiv_pos_as_xyz
1 x,y,z
2 1/2-x,-y,1/2+z
3 -x,1/2+y,1/2-z
4 1/2+x,1/2-y,-z
_cell_length_a                   7.7438(7)
_cell_length_b                   7.7610(7)
_cell_length_c                   14.6528(12)
_cell_angle_alpha                90
_cell_angle_beta                 90
_cell_angle_gamma                90
_cell_volume                     880.628
loop_
_atom_site_label
_atom_site_type_symbol
_atom_site_fract_x
_atom_site_fract_y
_atom_site_fract_z
Ni1 Ni 0.18682(4) 0.12188(4) 0.82125(2)
O1 O 0.2378(2) -0.1324(3) 0.79007(10)
O2 O 0.3673(2) -0.3642(2) 0.84766(11)
O3 O 0.3333(2) -0.2176(2) 1.18884(11)
O4 O 0.1270(3) 0.2479(3) 1.03710(12)
O5 O 0.1341(3) 0.3673(3) 0.86705(12)
H1 H 0.1254(49) 0.3531(53) 0.9254(25)
H2 H 0.2257(48) 0.4477(53) 0.8768(28)
O6 O 0.4457(3) 0.1696(4) 0.81421(15)
H3 H 0.5040(51) 0.1881(57) 0.8619(26)
H4 H 0.4909(48) 0.1558(51) 0.7715(25)
O7 O -0.0762(3) 0.0750(3) 0.8211(2)
H5 H -0.0803(58) -0.0132(57) 0.8128(31)
H6 H -0.1261(44) 0.1379(46) 0.7915(23)
N1 N 0.2157(3) 0.0205(3) 0.94995(13)
N2 N 0.2340(3) 0.0124(3) 1.10908(14)
H7 H 0.2251(37) 0.0674(43) 1.1574(23)
C1 C 0.2976(3) -0.2217(3) 0.85556(15)
C2 C 0.2792(3) -0.1418(3) 0.9508(2)
C3 C 0.3213(4) -0.2333(4) 1.0268(2)
H8 H 0.3598(36) -0.3498(40) 1.0251(19)
C4 C 0.2987(3) -0.1502(3) 1.1128(2)
C5 C 0.1908(3) 0.1004(3) 1.0306(2)
O3A O 0.1667(2) 0.2176(2) 0.68884(11)
Ni1A Ni 0.31318(4) -0.12188(4) 1.32125(2)
loop_
_geom_bond_atom_site_label_1
_geom_bond_atom_site_label_2
_geom_bond_site_symmetry_1
_geom_bond_site_symmetry_2
Ni1 O1 1_555 1_555
O1 C1 1_555 1_555
O2 C1 1_555 1_555
O3 C4 1_555 1_555
O4 C5 1_555 1_555
O5 Ni1 1_555 1_555
H1 O5 1_555 1_555
H2 O5 1_555 1_555
O6 Ni1 1_555 1_555
H3 O6 1_555 1_555
H4 O6 1_555 1_555
O7 Ni1 1_555 1_555
H5 O7 1_555 1_555
H6 O7 1_555 1_555
N1 Ni1 1_555 1_555
N2 H7 1_555 1_555
C1 C2 1_555 1_555
C2 N1 1_555 1_555
C3 C2 1_555 1_555
H8 C3 1_555 1_555
C4 N2 1_555 1_555
C5 N1 1_555 1_555
O3A Ni1 1_555 1_555
Ni1A O3 1_555 1_555
N2 C5 1_555 1_555
C3 C4 1_555 1_555

#END
