
#######################################################################
#
#                 Cambridge Crystallographic Data Centre
#                                CCDC 
#
#######################################################################
#
# If this CIF has been generated from an entry in the Cambridge 
# Structural Database, then it will include bibliographic, chemical, 
# crystal, experimental, refinement or atomic coordinate data resulting 
# from the CCDC's data processing and validation procedures.
#
#######################################################################

data_OFUDAU
_symmetry_cell_setting           monoclinic
_symmetry_space_group_name_H-M   'P 21/c'
_symmetry_Int_Tables_number      14
_space_group_name_Hall           '-P 2ybc'
loop_
_symmetry_equiv_pos_site_id
_symmetry_equiv_pos_as_xyz
1 x,y,z
2 x,1/2-y,1/2+z
3 -x,-y,-z
4 -x,1/2+y,1/2-z
_cell_length_a                   9.800(2)
_cell_length_b                   14.606(3)
_cell_length_c                   11.792(2)
_cell_angle_alpha                90
_cell_angle_beta                 109.18(3)
_cell_angle_gamma                90
_cell_volume                     1594.2
loop_
_atom_site_label
_atom_site_type_symbol
_atom_site_fract_x
_atom_site_fract_y
_atom_site_fract_z
Mn1 Mn 0.13817(9) 0.16795(5) 0.35911(7)
O1 O -0.0299(6) 0.1802(3) 0.4375(5)
H1 H -0.063(9) 0.227(6) 0.453(7)
H2 H -0.083(8) 0.135(5) 0.485(7)
O2 O -0.1185(5) 0.4503(3) 0.0632(3)
O3 O 0.1737(5) 0.3150(2) 0.4021(4)
O4 O -0.0091(5) 0.7036(2) 0.3259(3)
O5 O 0.1338(6) 0.6550(3) 0.5038(4)
N1 N -0.0332(5) 0.5417(3) 0.2282(4)
N2 N 0.0198(5) 0.3851(3) 0.2372(4)
H3 H 0.0024 0.3325 0.2026
C1 C -0.0477(6) 0.4600(3) 0.1715(5)
C2 C 0.1129(6) 0.3876(3) 0.3538(5)
C3 C 0.1300(7) 0.4754(4) 0.4088(5)
H4 H 0.1912 0.4838 0.4873
C4 C 0.0548(6) 0.5467(3) 0.3440(5)
C5 C 0.0632(6) 0.6431(3) 0.3975(5)
N3 N 0.3387(5) 0.1507(3) 0.3066(5)
N4 N 0.3264(6) 0.1353(3) 0.5253(4)
C6 C 0.3381(8) 0.1526(5) 0.1897(5)
H5 H 0.2506 0.1619 0.1289
C7 C 0.4598(9) 0.1414(5) 0.1585(6)
H6 H 0.4544 0.1430 0.0783
C8 C 0.5899(10) 0.1279(7) 0.2475(7)
H7 H 0.6746 0.1183 0.2298
C9 C 0.5895(9) 0.1290(7) 0.3654(6)
H8 H 0.6769 0.1254 0.4280
C10 C 0.4657(7) 0.1350(4) 0.3911(5)
C11 C 0.4598(7) 0.1309(4) 0.5156(5)
C12 C 0.5819(9) 0.1208(6) 0.6162(6)
H9 H 0.6729 0.1179 0.6080
C13 C 0.5674(9) 0.1152(6) 0.7293(6)
H10 H 0.6484 0.1092 0.7975
C14 C 0.4314(9) 0.1187(6) 0.7386(6)
H11 H 0.4180 0.1142 0.8129
C15 C 0.3155(9) 0.1289(5) 0.6352(6)
H12 H 0.2237 0.1316 0.6421
O4C O 0.0091(5) 0.2036(2) 0.1741(3)
N1C N 0.0332(5) 0.0417(3) 0.2718(4)
Mn1C Mn -0.13817(9) 0.66795(5) 0.14089(7)
loop_
_geom_bond_atom_site_label_1
_geom_bond_atom_site_label_2
_geom_bond_site_symmetry_1
_geom_bond_site_symmetry_2
Mn1 O1 1_555 1_555
O1 H1 1_555 1_555
H2 O1 1_555 1_555
O2 C1 1_555 1_555
O3 Mn1 1_555 1_555
O4 C5 1_555 1_555
O5 C5 1_555 1_555
N1 C1 1_555 1_555
N2 H3 1_555 1_555
C1 N2 1_555 1_555
C2 O3 1_555 1_555
C3 C2 1_555 1_555
H4 C3 1_555 1_555
C4 N1 1_555 1_555
C5 C4 1_555 1_555
N3 Mn1 1_555 1_555
N4 Mn1 1_555 1_555
C6 N3 1_555 1_555
H5 C6 1_555 1_555
C7 C6 1_555 1_555
H6 C7 1_555 1_555
C8 C7 1_555 1_555
H7 C8 1_555 1_555
C9 C8 1_555 1_555
H8 C9 1_555 1_555
C10 N3 1_555 1_555
C11 N4 1_555 1_555
C12 C11 1_555 1_555
H9 C12 1_555 1_555
C13 C12 1_555 1_555
H10 C13 1_555 1_555
C14 C13 1_555 1_555
H11 C14 1_555 1_555
C15 N4 1_555 1_555
H12 C15 1_555 1_555
O4C Mn1 1_555 1_555
N1C Mn1 1_555 1_555
Mn1C O4 1_555 1_555
N1 Mn1C 1_555 1_555
N2 C2 1_555 1_555
C3 C4 1_555 1_555
C9 C10 1_555 1_555
C10 C11 1_555 1_555
C14 C15 1_555 1_555

#END
