
#######################################################################
#
#                 Cambridge Crystallographic Data Centre
#                                CCDC 
#
#######################################################################
#
# If this CIF has been generated from an entry in the Cambridge 
# Structural Database, then it will include bibliographic, chemical, 
# crystal, experimental, refinement or atomic coordinate data resulting 
# from the CCDC's data processing and validation procedures.
#
#######################################################################

data_OFUFIF
_symmetry_cell_setting           triclinic
_symmetry_space_group_name_H-M   'P -1'
_symmetry_Int_Tables_number      2
_space_group_name_Hall           '-P 1'
loop_
_symmetry_equiv_pos_site_id
_symmetry_equiv_pos_as_xyz
1 x,y,z
2 -x,-y,-z
_cell_length_a                   10.8680(17)
_cell_length_b                   16.260(3)
_cell_length_c                   17.493(3)
_cell_angle_alpha                81.718(2)
_cell_angle_beta                 79.092(2)
_cell_angle_gamma                81.433(2)
_cell_volume                     2980.09
loop_
_atom_site_label
_atom_site_type_symbol
_atom_site_fract_x
_atom_site_fract_y
_atom_site_fract_z
O1 O 0.6273(18) 0.5222(12) 1.0148(11)
O2 O 0.626(2) 0.4525(12) 0.9474(11)
O3 O 0.5059(18) 0.5992(13) 0.9908(13)
O5 O 0.5145(18) 0.4637(12) 1.0966(11)
O6 O 0.3581(17) 0.6289(12) 0.8402(19)
O7 O 0.6163(15) 0.2761(16) 1.0518(8)
O8 O 0.793(2) 0.3543(12) 0.9534(9)
O9 O 0.8136(18) 0.4437(9) 1.0612(8)
O10 O 0.8066(19) 0.5814(9) 0.9548(8)
O11 O 0.785(2) 0.4889(10) 0.8476(9)
O13 O 0.7099(19) 0.5947(10) 1.1033(8)
O14 O 0.646(2) 0.3708(10) 0.8416(9)
O15 O 0.4741(14) 0.2935(14) 0.9403(9)
O16 O 0.7227(14) 0.2161(9) 0.9145(10)
O17 O 0.6271(15) 0.6936(14) 0.9088(8)
O18 O 0.4834(14) 0.7646(9) 0.7962(7)
O19 O 0.7793(15) 0.4734(10) 1.2147(8)
O20 O 0.7717(15) 0.7376(10) 1.0090(10)
O21 O 0.6072(15) 0.6068(11) 0.7970(17)
O22 O 0.4689(16) 0.4844(11) 0.7905(18)
O23 O 0.7124(12) 0.4794(8) 0.7089(7)
O24 O 0.9878(12) 0.4474(10) 0.9268(10)
Si1 Si 0.5000 0.5000 1.0000
Mo1 Mo 0.65380(17) 0.30738(9) 0.94104(9)
Mo2 Mo 0.64870(17) 0.48841(11) 0.80369(9)
Mo3 Mo 0.48253(18) 0.68028(10) 0.86001(12)
Mo4 Mo 0.83346(13) 0.46798(10) 0.95461(9)
Mo5 Mo 0.68616(15) 0.48649(12) 1.14894(11)
Mo6 Mo 0.67923(15) 0.66485(10) 1.00431(10)
O1A O 0.3727(18) 0.4778(12) 0.9852(11)
O2A O 0.374(2) 0.5475(12) 1.0526(11)
O3A O 0.4941(18) 0.4008(13) 1.0092(13)
O5A O 0.4855(18) 0.5363(12) 0.9034(11)
O6A O 0.6419(17) 0.3711(12) 1.1598(19)
O7A O 0.3837(15) 0.7239(16) 0.9482(8)
O8A O 0.207(2) 0.6457(12) 1.0466(9)
O9A O 0.1864(18) 0.5563(9) 0.9388(8)
O10A O 0.1934(19) 0.4186(9) 1.0452(8)
O11A O 0.215(2) 0.5111(10) 1.1524(9)
O13A O 0.2901(19) 0.4053(10) 0.8967(8)
O14A O 0.354(2) 0.6292(10) 1.1584(9)
O15A O 0.5259(14) 0.7065(14) 1.0597(9)
O16A O 0.2773(14) 0.7839(9) 1.0855(10)
O17A O 0.3729(15) 0.3064(14) 1.0912(8)
O18A O 0.5166(14) 0.2354(9) 1.2038(7)
O19A O 0.2207(15) 0.5266(10) 0.7853(8)
O20A O 0.2283(15) 0.2624(10) 0.9910(10)
O21A O 0.3928(15) 0.3932(11) 1.2030(17)
O22A O 0.5311(16) 0.5156(11) 1.2095(18)
O23A O 0.2876(12) 0.5206(8) 1.2911(7)
O24A O 0.0122(12) 0.5526(10) 1.0732(10)
Mo1A Mo 0.34620(17) 0.69262(9) 1.05896(9)
Mo2A Mo 0.35130(17) 0.51159(11) 1.19631(9)
Mo3A Mo 0.51747(18) 0.31972(10) 1.13999(12)
Mo4A Mo 0.16654(13) 0.53202(10) 1.04539(9)
Mo5A Mo 0.31384(15) 0.51351(12) 0.85106(11)
Mo6A Mo 0.32077(15) 0.33515(10) 0.99569(10)
O4 O 0.393(5) 0.055(3) 1.134(3)
C1 C 0.288(2) 0.3284(15) 1.3972(16)
H1 H 0.3264 0.3489 1.4323
C2 C 0.268(3) 0.255(2) 1.3077(18)
H2 H 0.2843 0.2161 1.2715
C3 C 0.076(2) 0.3364(16) 1.2606(16)
H3 H 0.1146 0.3711 1.2152
H4 H -0.0021 0.3679 1.2833
C4 C 0.045(2) 0.2542(17) 1.2336(14)
C5 C -0.045(3) 0.2833(15) 1.1766(17)
H5 H -0.1227 0.3121 1.2031
H6 H -0.0079 0.3222 1.1342
C6 C -0.169(3) 0.110(2) 1.139(3)
H7 H -0.2285 0.0729 1.1483
C7 C -0.006(3) 0.1680(14) 1.0913(15)
H8 H 0.0715 0.1807 1.0624
C8 C -0.008(2) 0.1932(12) 1.3018(13)
C9 C 0.042(2) 0.1092(14) 1.3070(16)
H9 H 0.1114 0.0901 1.2710
C10 C -0.015(4) 0.0539(17) 1.369(2)
H10 H 0.0222 -0.0014 1.3756
C11 C -0.117(4) 0.0769(18) 1.4172(18)
C12 C -0.169(3) 0.157(2) 1.4130(18)
H11 H -0.2401 0.1737 1.4483
C13 C -0.112(3) 0.2156(16) 1.354(2)
C14 C 0.544(6) 0.107(2) 0.858(2)
H12 H 0.5557 0.1502 0.8878
H13 H 0.6229 0.0704 0.8496
C15 C 0.516(5) 0.1497(15) 0.7768(16)
C16 C 0.618(4) 0.2126(15) 0.7357(19)
H14 H 0.6258 0.2496 0.7729
H15 H 0.6998 0.1801 0.7222
C17 C 0.573(3) 0.2960(15) 0.5477(13)
H16 H 0.5740 0.2925 0.4949
C18 C 0.5474(19) 0.3438(12) 0.6540(13)
H17 H 0.5312 0.3798 0.6925
C19 C 0.604(4) 0.0410(19) 0.685(3)
C20 C 0.592(4) -0.0168(19) 0.639(3)
H18 H 0.6635 -0.0455 0.6112
C21 C 0.474(5) -0.0323(19) 0.632(3)
C22 C 0.370(4) 0.011(2) 0.673(2)
H19 H 0.2900 0.0004 0.6697
C23 C 0.384(3) 0.0698(17) 0.7184(16)
H20 H 0.3129 0.0973 0.7474
C24 C 0.506(3) 0.0885(13) 0.7212(16)
C25 C 0.246(2) 0.4704(16) 0.6229(14)
H21 H 0.2961 0.4532 0.6613
C26 C 0.188(3) 0.511(2) 0.5171(19)
H22 H 0.1902 0.5266 0.4637
C27 C 0.0372(19) 0.4322(11) 0.7008(12)
H23 H -0.0474 0.4399 0.6885
H24 H 0.0355 0.4625 0.7450
C28 C 0.0780(17) 0.3385(12) 0.7232(12)
C29 C -0.029(2) 0.3090(12) 0.7877(13)
H25 H -0.0345 0.3396 0.8322
H26 H -0.1079 0.3232 0.7681
C30 C 0.016(3) 0.1825(13) 0.8842(15)
H27 H 0.0373 0.2102 0.9220
C31 C -0.027(3) 0.0942(14) 0.8219(13)
H28 H -0.0393 0.0431 0.8086
C32 C 0.0996(18) 0.2881(11) 0.6564(11)
C33 C 0.219(2) 0.2451(14) 0.6280(16)
H29 H 0.2884 0.2482 0.6508
C34 C 0.232(3) 0.1972(16) 0.5649(18)
H30 H 0.3094 0.1674 0.5473
C35 C 0.130(4) 0.1946(15) 0.5293(15)
C36 C 0.016(4) 0.2352(18) 0.5538(18)
H31 H -0.0529 0.2304 0.5312
C37 C 0.004(2) 0.2839(14) 0.6130(13)
N1 N 0.162(2) 0.3177(14) 1.3188(12)
N2 N 0.173(6) 0.360(2) 1.378(2)
N3 N 0.336(4) 0.262(2) 1.3564(17)
N4 N -0.073(2) 0.2109(13) 1.1449(15)
N5 N -0.177(2) 0.1733(19) 1.175(2)
N6 N -0.061(3) 0.1045(13) 1.0833(18)
N7 N 0.4279(15) 0.0493(11) 0.9130(10)
N8 N 0.4391(19) -0.0392(12) 0.9223(13)
C38 C 0.323(3) -0.0637(15) 0.9636(19)
H32 H 0.3042 -0.1184 0.9776
N9 N 0.240(2) 0.0097(15) 0.980(2)
C39 C 0.305(2) 0.0795(12) 0.9486(15)
H33 H 0.2721 0.1355 0.9510
N10 N 0.584(3) 0.2621(11) 0.6661(14)
N11 N 0.606(3) 0.2301(14) 0.5960(16)
N12 N 0.5370(17) 0.3674(9) 0.5780(10)
N13 N -0.0129(17) 0.2184(11) 0.8150(11)
N14 N -0.044(2) 0.1615(12) 0.7749(11)
N15 N 0.011(2) 0.0979(12) 0.8903(15)
N16 N 0.1238(15) 0.4662(9) 0.6334(11)
N17 N 0.0802(19) 0.496(2) 0.5660(17)
N18 N 0.2885(14) 0.5028(11) 0.5490(11)
O12 O 0.4834(16) 0.4269(13) 0.3956(9)
O25 O 0.1575(15) 0.2141(12) 1.1930(10)
H34 H 0.1888 0.2473 1.1574
O26 O 0.1903(14) 0.3283(9) 0.7526(10)
H35 H 0.1813 0.3555 0.7897
O27 O 0.410(4) 0.1956(13) 0.7947(15)
H36 H 0.4172 0.2279 0.8249
F1 F -0.1708(17) 0.2968(11) 1.3517(14)
F2 F -0.164(3) 0.0173(15) 1.4712(15)
F3 F 0.466(3) -0.0917(13) 0.5890(15)
F4 F 0.724(3) 0.0523(14) 0.688(2)
F5 F 0.151(2) 0.1505(10) 0.4664(10)
F6 F -0.1142(14) 0.3259(11) 0.6362(10)
Cd1 Cd 0.5000 0.5000 0.5000
Cd2 Cd 0.0000 0.0000 1.0000
C1A C -0.288(2) -0.3284(15) 0.6028(16)
H1A H -0.3264 -0.3489 0.5677
C2A C -0.268(3) -0.255(2) 0.6923(18)
H2A H -0.2843 -0.2161 0.7285
C3A C -0.076(2) -0.3364(16) 0.7394(16)
H3A H -0.1146 -0.3711 0.7848
H4A H 0.0021 -0.3679 0.7167
C4A C -0.045(2) -0.2542(17) 0.7664(14)
C5A C 0.045(3) -0.2833(15) 0.8234(17)
H5A H 0.1227 -0.3121 0.7969
H6A H 0.0079 -0.3222 0.8658
C6A C 0.169(3) -0.110(2) 0.861(3)
H7A H 0.2285 -0.0729 0.8517
C7A C 0.006(3) -0.1680(14) 0.9087(15)
H8A H -0.0715 -0.1807 0.9376
C8A C 0.008(2) -0.1932(12) 0.6982(13)
C9A C -0.042(2) -0.1092(14) 0.6930(16)
H9A H -0.1114 -0.0901 0.7290
C10A C 0.015(4) -0.0539(17) 0.631(2)
H10A H -0.0222 0.0014 0.6244
C11A C 0.117(4) -0.0769(18) 0.5828(18)
C12A C 0.169(3) -0.157(2) 0.5870(18)
H11A H 0.2401 -0.1737 0.5517
C13A C 0.112(3) -0.2156(16) 0.646(2)
C14A C 0.456(6) 0.893(2) 0.142(2)
H12A H 0.4443 0.8498 0.1122
H13A H 0.3771 0.9296 0.1504
C15A C 0.484(5) 0.8503(15) 0.2232(16)
C16A C 0.382(4) 0.7874(15) 0.2643(19)
H14A H 0.3742 0.7504 0.2271
H15A H 0.3002 0.8199 0.2778
C17A C 0.427(3) 0.7040(15) 0.4523(13)
H16A H 0.4260 0.7075 0.5051
C18A C 0.4526(19) 0.6562(12) 0.3460(13)
H17A H 0.4688 0.6202 0.3075
C19A C 0.396(4) 0.9590(19) 0.315(3)
C20A C 0.408(4) 1.0168(19) 0.361(3)
H18A H 0.3365 1.0455 0.3888
C21A C 0.526(5) 1.0323(19) 0.368(3)
C22A C 0.630(4) 0.989(2) 0.327(2)
H19A H 0.7100 0.9996 0.3303
C23A C 0.616(3) 0.9302(17) 0.2816(16)
H20A H 0.6871 0.9027 0.2526
C24A C 0.494(3) 0.9115(13) 0.2788(16)
C25A C 0.754(2) 0.5296(16) 0.3771(14)
H21A H 0.7039 0.5468 0.3387
C26A C 0.812(3) 0.489(2) 0.4829(19)
H22A H 0.8098 0.4734 0.5363
C27A C 0.9628(19) 0.5678(11) 0.2992(12)
H23A H 1.0474 0.5601 0.3115
H24A H 0.9645 0.5375 0.2550
C28A C 0.9220(17) 0.6615(12) 0.2768(12)
C29A C 1.029(2) 0.6910(12) 0.2123(13)
H25A H 1.0345 0.6604 0.1678
H26A H 1.1079 0.6768 0.2319
C30A C 0.984(3) 0.8175(13) 0.1158(15)
H27A H 0.9627 0.7898 0.0780
C31A C 1.027(3) 0.9058(14) 0.1781(13)
H28A H 1.0393 0.9569 0.1914
C32A C 0.9004(18) 0.7119(11) 0.3436(11)
C33A C 0.781(2) 0.7549(14) 0.3720(16)
H29A H 0.7116 0.7518 0.3492
C34A C 0.768(3) 0.8028(16) 0.4351(18)
H30A H 0.6906 0.8326 0.4527
C35A C 0.870(4) 0.8054(15) 0.4707(15)
C36A C 0.984(4) 0.7648(18) 0.4462(18)
H31A H 1.0529 0.7696 0.4688
C37A C 0.996(2) 0.7161(14) 0.3870(13)
N1A N -0.162(2) -0.3177(14) 0.6812(12)
N2A N -0.173(6) -0.360(2) 0.622(2)
N3A N -0.336(4) -0.262(2) 0.6436(17)
N4A N 0.073(2) -0.2109(13) 0.8551(15)
N5A N 0.177(2) -0.1733(19) 0.825(2)
N6A N 0.061(3) -0.1045(13) 0.9167(18)
N7A N 0.5721(15) 0.9507(11) 0.0870(10)
N8A N 0.5609(19) 1.0392(12) 0.0777(13)
C38A C 0.677(3) 1.0637(15) 0.0364(19)
H32A H 0.6958 1.1184 0.0224
N9A N 0.760(2) 0.9903(15) 0.020(2)
N9A_2 N -0.240(2) -0.0097(15) 1.020(2)
C39A C 0.695(2) 0.9205(12) 0.0514(15)
H33A H 0.7279 0.8645 0.0490
N10A N 0.416(3) 0.7379(11) 0.3339(14)
N11A N 0.394(3) 0.7699(14) 0.4040(16)
N12A N 0.4630(17) 0.6326(9) 0.4220(10)
N13A N 1.0129(17) 0.7816(11) 0.1850(11)
N14A N 1.044(2) 0.8385(12) 0.2251(11)
N15A N 0.989(2) 0.9021(12) 0.1097(15)
N15A_2 N -0.011(2) -0.0979(12) 1.1097(15)
N16A N 0.8762(15) 0.5338(9) 0.3666(11)
N17A N 0.9198(19) 0.504(2) 0.4340(17)
N18A N 0.7115(14) 0.4972(11) 0.4510(11)
O12A O 0.5166(16) 0.5731(13) 0.6044(9)
O25A O -0.1575(15) -0.2141(12) 0.8070(10)
H34A H -0.1888 -0.2473 0.8426
O26A O 0.8097(14) 0.6717(9) 0.2474(10)
H35A H 0.8187 0.6445 0.2103
O27A O 0.590(4) 0.8044(13) 0.2053(15)
H36A H 0.5828 0.7721 0.1751
F1A F 0.1708(17) -0.2968(11) 0.6483(14)
F2A F 0.164(3) -0.0173(15) 0.5288(15)
F3A F 0.534(3) 1.0917(13) 0.4110(15)
F4A F 0.276(3) 0.9477(14) 0.312(2)
F5A F 0.849(2) 0.8495(10) 0.5336(10)
F6A F 1.1142(14) 0.6741(11) 0.3638(10)
Cd2_2 Cd 1.0000 1.0000 0.0000
Cd3? Cd -0.0323(14) -0.0014(11) 1.0242(13)
loop_
_geom_bond_atom_site_label_1
_geom_bond_atom_site_label_2
_geom_bond_site_symmetry_1
_geom_bond_site_symmetry_2
C1 H1 1_555 1_555
C2 H2 1_555 1_555
C3 H3 1_555 1_555
H4 C3 1_555 1_555
C4 C3 1_555 1_555
C5 C4 1_555 1_555
H5 C5 1_555 1_555
H6 C5 1_555 1_555
C6 H7 1_555 1_555
C7 H8 1_555 1_555
C8 C4 1_555 1_555
C9 C8 1_555 1_555
H9 C9 1_555 1_555
C10 C9 1_555 1_555
H10 C10 1_555 1_555
C11 C10 1_555 1_555
C12 C11 1_555 1_555
H11 C12 1_555 1_555
C13 C8 1_555 1_555
C14 H12 1_555 1_555
H13 C14 1_555 1_555
C15 C14 1_555 1_555
C16 C15 1_555 1_555
H14 C16 1_555 1_555
H15 C16 1_555 1_555
C17 H16 1_555 1_555
C18 H17 1_555 1_555
C19 C20 1_555 1_555
C20 H18 1_555 1_555
C21 C20 1_555 1_555
C22 C21 1_555 1_555
H19 C22 1_555 1_555
C23 C22 1_555 1_555
H20 C23 1_555 1_555
C24 C15 1_555 1_555
C25 H21 1_555 1_555
C26 H22 1_555 1_555
C27 H23 1_555 1_555
H24 C27 1_555 1_555
C28 C27 1_555 1_555
C29 C28 1_555 1_555
H25 C29 1_555 1_555
H26 C29 1_555 1_555
C30 H27 1_555 1_555
C31 H28 1_555 1_555
C32 C28 1_555 1_555
C33 C32 1_555 1_555
H29 C33 1_555 1_555
C34 C33 1_555 1_555
H30 C34 1_555 1_555
C35 C34 1_555 1_555
C36 C35 1_555 1_555
H31 C36 1_555 1_555
C37 C32 1_555 1_555
N1 C2 1_555 1_555
N2 C1 1_555 1_555
N3 C1 1_555 1_555
N4 C5 1_555 1_555
N5 C6 1_555 1_555
N6 C6 1_555 1_555
N7 C14 1_555 1_555
N8 N7 1_555 1_555
C38 N8 1_555 1_555
H32 C38 1_555 1_555
N9 C38 1_555 1_555
C39 N7 1_555 1_555
H33 C39 1_555 1_555
N10 C16 1_555 1_555
N11 C17 1_555 1_555
N12 C17 1_555 1_555
N13 C29 1_555 1_555
N14 C31 1_555 1_555
N15 C30 1_555 1_555
N16 C25 1_555 1_555
N17 C26 1_555 1_555
N18 C25 1_555 1_555
O1 O2 1_555 1_555
O2 Si1 1_555 1_555
O3 O1 1_555 1_555
O5 Si1 1_555 1_555
O6 Mo3 1_555 1_555
O7 Mo1 1_555 1_555
O8 Mo1 1_555 1_555
O9 Mo4 1_555 1_555
O10 Mo4 1_555 1_555
O11 Mo2 1_555 1_555
O12 Cd1 1_555 1_555
O13 Mo5 1_555 1_555
O14 Mo1 1_555 1_555
O15 Mo1 1_555 1_555
O16 Mo1 1_555 1_555
O17 Mo3 1_555 1_555
O18 Mo3 1_555 1_555
O19 Mo5 1_555 1_555
O20 Mo6 1_555 1_555
O21 Mo2 1_555 1_555
O22 Mo2 1_555 1_555
O23 Mo2 1_555 1_555
O24 Mo4 1_555 1_555
O25 C4 1_555 1_555
H34 O25 1_555 1_555
O26 C28 1_555 1_555
H35 O26 1_555 1_555
O27 C15 1_555 1_555
H36 O27 1_555 1_555
F1 C13 1_555 1_555
F2 C11 1_555 1_555
F3 C21 1_555 1_555
F4 C19 1_555 1_555
F5 C35 1_555 1_555
F6 C37 1_555 1_555
Si1 O1 1_555 1_555
Mo1 O2 1_555 1_555
Mo2 O2 1_555 1_555
Mo3 O3 1_555 1_555
Mo4 O1 1_555 1_555
Mo5 O1 1_555 1_555
Mo6 O1 1_555 1_555
Cd1 N12 1_555 1_555
Cd2 N6 1_555 1_555
C1A H1A 1_555 1_555
C2A H2A 1_555 1_555
C3A H3A 1_555 1_555
H4A C3A 1_555 1_555
C4A C3A 1_555 1_555
C5A C4A 1_555 1_555
H5A C5A 1_555 1_555
H6A C5A 1_555 1_555
C6A H7A 1_555 1_555
C7A H8A 1_555 1_555
C8A C4A 1_555 1_555
C9A C8A 1_555 1_555
H9A C9A 1_555 1_555
C10A C9A 1_555 1_555
H10A C10A 1_555 1_555
C11A C10A 1_555 1_555
C12A C11A 1_555 1_555
H11A C12A 1_555 1_555
C13A C8A 1_555 1_555
C14A H12A 1_555 1_555
H13A C14A 1_555 1_555
C15A C14A 1_555 1_555
C16A C15A 1_555 1_555
H14A C16A 1_555 1_555
H15A C16A 1_555 1_555
C17A H16A 1_555 1_555
C18A H17A 1_555 1_555
C19A C20A 1_555 1_555
C20A H18A 1_555 1_555
C21A C20A 1_555 1_555
C22A C21A 1_555 1_555
H19A C22A 1_555 1_555
C23A C22A 1_555 1_555
H20A C23A 1_555 1_555
C24A C15A 1_555 1_555
C25A H21A 1_555 1_555
C26A H22A 1_555 1_555
C27A H23A 1_555 1_555
H24A C27A 1_555 1_555
C28A C27A 1_555 1_555
C29A C28A 1_555 1_555
H25A C29A 1_555 1_555
H26A C29A 1_555 1_555
C30A H27A 1_555 1_555
C31A H28A 1_555 1_555
C32A C28A 1_555 1_555
C33A C32A 1_555 1_555
H29A C33A 1_555 1_555
C34A C33A 1_555 1_555
H30A C34A 1_555 1_555
C35A C34A 1_555 1_555
C36A C35A 1_555 1_555
H31A C36A 1_555 1_555
C37A C32A 1_555 1_555
N1A C2A 1_555 1_555
N2A C1A 1_555 1_555
N3A C1A 1_555 1_555
N4A C5A 1_555 1_555
N5A C6A 1_555 1_555
N6A Cd2 1_555 1_555
N7A C14A 1_555 1_555
N8A N7A 1_555 1_555
C38A N8A 1_555 1_555
H32A C38A 1_555 1_555
N9A C38A 1_555 1_555
N9A_2 Cd2 1_555 1_555
C39A N7A 1_555 1_555
H33A C39A 1_555 1_555
N10A C16A 1_555 1_555
N11A C17A 1_555 1_555
N12A Cd1 1_555 1_555
N13A C29A 1_555 1_555
N14A C31A 1_555 1_555
N15A C30A 1_555 1_555
N15A_2 Cd2 1_555 1_555
N16A C25A 1_555 1_555
N17A C26A 1_555 1_555
N18A Cd1 1_555 1_555
O1A Si1 1_555 1_555
O2A Si1 1_555 1_555
O3A Si1 1_555 1_555
O5A Si1 1_555 1_555
O6A Mo5 1_555 1_555
O7A Mo3 1_555 1_555
O8A Mo1A 1_555 1_555
O9A Mo4A 1_555 1_555
O10A Mo4A 1_555 1_555
O11A Mo2A 1_555 1_555
O12A Cd1 1_555 1_555
O13A Mo5A 1_555 1_555
O14A Mo1A 1_555 1_555
O15A Mo6 1_555 1_555
O16A Mo1A 1_555 1_555
O17A Mo3A 1_555 1_555
O18A Mo3A 1_555 1_555
O19A Mo5A 1_555 1_555
O20A Mo6A 1_555 1_555
O21A Mo2A 1_555 1_555
O22A Mo5 1_555 1_555
O23A Mo2A 1_555 1_555
O24A Mo4A 1_555 1_555
O25A C4A 1_555 1_555
H34A O25A 1_555 1_555
O26A C28A 1_555 1_555
H35A O26A 1_555 1_555
O27A C15A 1_555 1_555
H36A O27A 1_555 1_555
F1A C13A 1_555 1_555
F2A C11A 1_555 1_555
F3A C21A 1_555 1_555
F4A C19A 1_555 1_555
F5A C35A 1_555 1_555
F6A C37A 1_555 1_555
Mo1A O3 1_555 1_555
Mo2A O5 1_555 1_555
Mo3A O5 1_555 1_555
Mo4A O1A 1_555 1_555
Mo5A O6 1_555 1_555
Mo6A O15 1_555 1_555
Cd2_2 N9A 1_555 1_555
C2 N3 1_555 1_555
C3 N1 1_555 1_555
C7 N4 1_555 1_555
C7 N6 1_555 1_555
C12 C13 1_555 1_555
C18 N10 1_555 1_555
C18 N12 1_555 1_555
C19 C24 1_555 1_555
C23 C24 1_555 1_555
C26 N18 1_555 1_555
C27 N16 1_555 1_555
C30 N13 1_555 1_555
C31 N15 1_555 1_555
C36 C37 1_555 1_555
N1 N2 1_555 1_555
N4 N5 1_555 1_555
N9 C39 1_555 1_555
N9 Cd2 1_555 1_555
N10 N11 1_555 1_555
N13 N14 1_555 1_555
N15 Cd2 1_555 1_555
N16 N17 1_555 1_555
N18 Cd1 1_555 1_555
O2 Mo4 1_555 1_555
O3 Si1 1_555 1_555
O3 Mo6 1_555 1_555
O5 Mo5 1_555 1_555
O7 Mo3A 1_555 1_555
O8 Mo4 1_555 1_555
O9 Mo5 1_555 1_555
O10 Mo6 1_555 1_555
O11 Mo4 1_555 1_555
O13 Mo6 1_555 1_555
O14 Mo2 1_555 1_555
O17 Mo6 1_555 1_555
O21 Mo3 1_555 1_555
O22 Mo5A 1_555 1_555
Mo1 O3A 1_555 1_555
Mo2 O5A 1_555 1_555
Mo3 O5A 1_555 1_555
C2A N3A 1_555 1_555
C3A N1A 1_555 1_555
C6A N6A 1_555 1_555
C7A N4A 1_555 1_555
C7A N6A 1_555 1_555
C12A C13A 1_555 1_555
C17A N12A 1_555 1_555
C18A N10A 1_555 1_555
C18A N12A 1_555 1_555
C19A C24A 1_555 1_555
C23A C24A 1_555 1_555
C25A N18A 1_555 1_555
C26A N18A 1_555 1_555
C27A N16A 1_555 1_555
C30A N13A 1_555 1_555
C31A N15A 1_555 1_555
C36A C37A 1_555 1_555
N1A N2A 1_555 1_555
N4A N5A 1_555 1_555
N9A C39A 1_555 1_555
N10A N11A 1_555 1_555
N13A N14A 1_555 1_555
N15A Cd2_2 1_555 1_555
N16A N17A 1_555 1_555
O1A O2A 1_555 1_555
O1A O3A 1_555 1_555
O1A Mo5A 1_555 1_555
O1A Mo6A 1_555 1_555
O2A Mo1A 1_555 1_555
O2A Mo2A 1_555 1_555
O2A Mo4A 1_555 1_555
O3A Mo3A 1_555 1_555
O3A Mo6A 1_555 1_555
O5A Mo5A 1_555 1_555
O6A Mo3A 1_555 1_555
O7A Mo1A 1_555 1_555
O8A Mo4A 1_555 1_555
O9A Mo5A 1_555 1_555
O10A Mo6A 1_555 1_555
O11A Mo4A 1_555 1_555
O13A Mo6A 1_555 1_555
O14A Mo2A 1_555 1_555
O15A Mo1A 1_555 1_555
O17A Mo6A 1_555 1_555
O21A Mo3A 1_555 1_555
O22A Mo2A 1_555 1_555

#END
