
#######################################################################
#
#                 Cambridge Crystallographic Data Centre
#                                CCDC 
#
#######################################################################
#
# If this CIF has been generated from an entry in the Cambridge 
# Structural Database, then it will include bibliographic, chemical, 
# crystal, experimental, refinement or atomic coordinate data resulting 
# from the CCDC's data processing and validation procedures.
#
#######################################################################

data_OFUGAY
_symmetry_cell_setting           monoclinic
_symmetry_space_group_name_H-M   'P 21/n'
_symmetry_Int_Tables_number      14
_space_group_name_Hall           '-P 2yn'
loop_
_symmetry_equiv_pos_site_id
_symmetry_equiv_pos_as_xyz
1 x,y,z
2 1/2-x,1/2+y,1/2-z
3 -x,-y,-z
4 1/2+x,1/2-y,1/2+z
_cell_length_a                   11.5540(4)
_cell_length_b                   23.1144(8)
_cell_length_c                   23.6008(8)
_cell_angle_alpha                90
_cell_angle_beta                 91.0890(10)
_cell_angle_gamma                90
_cell_volume                     6301.78
loop_
_atom_site_label
_atom_site_type_symbol
_atom_site_fract_x
_atom_site_fract_y
_atom_site_fract_z
Si1 Si 0.31268(8) 0.23532(4) 0.38225(4)
Mo1 Mo 0.38907(3) 0.119791(12) 0.472205(12)
Mo2 Mo 0.44092(3) 0.246391(14) 0.248429(12)
Mo3 Mo 0.27611(3) 0.088069(13) 0.343570(13)
Mo4 Mo 0.16465(3) 0.227718(13) 0.511511(12)
Mo5 Mo 0.54534(3) 0.141799(13) 0.356930(12)
Mo6 Mo 0.16082(3) 0.207487(14) 0.253677(13)
Mo7 Mo 0.03255(3) 0.177003(14) 0.394773(13)
Mo8 Mo 0.58857(3) 0.299884(14) 0.379325(14)
Mo9 Mo 0.47298(3) 0.272040(13) 0.505403(12)
Mo10 Mo 0.24001(3) 0.344083(14) 0.282392(13)
Mo11 Mo 0.06822(3) 0.320071(14) 0.411929(14)
Mo12 Mo 0.36678(3) 0.379698(13) 0.424792(14)
O1 O 0.1891(2) 0.23899(9) 0.41386(9)
O2 O 0.36327(19) 0.16972(9) 0.38753(9)
O3 O 0.2953(2) 0.25209(10) 0.31571(9)
O4 O 0.4038(2) 0.28007(9) 0.41247(9)
O5 O 0.2281(2) 0.02220(11) 0.32487(12)
O6 O 0.6636(2) 0.10973(11) 0.33156(11)
O7 O 0.4266(2) 0.07711(11) 0.52728(10)
O8 O 0.3187(2) 0.06619(10) 0.42547(10)
O9 O 0.4324(2) 0.08126(10) 0.32954(10)
O10 O 0.5365(2) 0.10966(10) 0.42913(10)
O11 O 0.2611(2) 0.15677(10) 0.49774(10)
O12 O 0.1364(2) 0.11938(10) 0.38236(10)
O13 O 0.2353(2) 0.13442(11) 0.28467(10)
O14 O 0.4908(2) 0.18174(10) 0.28600(10)
O15 O 0.5985(2) 0.21297(11) 0.37952(10)
O16 O 0.4727(2) 0.19400(10) 0.49581(10)
O17 O 0.5229(3) 0.28039(12) 0.57272(11)
O18 O 0.1270(2) 0.21494(11) 0.57877(11)
O19 O -0.0975(2) 0.14552(13) 0.38481(12)
O20 O 0.0802(2) 0.17795(13) 0.20039(11)
O21 O 0.7286(2) 0.31646(12) 0.36780(12)
O22 O 0.0424(2) 0.17980(10) 0.47310(10)
O23 O 0.0663(2) 0.20115(11) 0.31434(10)
O24 O 0.3129(2) 0.21235(12) 0.21319(10)
O25 O 0.5284(2) 0.29082(11) 0.30754(10)
O26 O 0.6035(2) 0.28812(11) 0.46365(11)
O27 O 0.3050(2) 0.26463(10) 0.52190(10)
O28 O -0.0291(2) 0.25896(11) 0.39690(11)
O29 O 0.1427(2) 0.28503(11) 0.24012(11)
O30 O 0.3608(2) 0.32257(11) 0.23592(10)
O31 O 0.5271(2) 0.37144(11) 0.39345(11)
O32 O 0.4265(2) 0.35581(11) 0.49370(11)
O33 O 0.0771(2) 0.29197(10) 0.49321(10)
O34 O 0.1145(2) 0.33344(11) 0.33900(10)
O35 O 0.3248(2) 0.37418(11) 0.34090(10)
O36 O 0.2165(2) 0.35952(10) 0.43501(10)
O37 O 0.1868(3) 0.40282(12) 0.24901(12)
O38 O -0.0253(3) 0.37432(12) 0.42244(13)
O39 O 0.3665(3) 0.45203(11) 0.43180(13)
O40 O 0.5343(3) 0.25024(13) 0.19445(11)
Zn1 Zn 0.74636(3) 0.115608(19) 0.569549(18)
F1 F 1.1525(2) 0.11719(10) 0.73429(12)
F2 F 0.8924(3) -0.01790(16) 0.80478(13)
N1 N 0.9077(3) 0.08842(15) 0.57872(14)
N2 N 1.0927(3) 0.08425(14) 0.59555(13)
N3 N 1.0732(4) 0.0467(2) 0.5537(2)
C1 C 0.9604(4) 0.0510(3) 0.5451(3)
H1 H 0.9209 0.0295 0.5177
C2 C 0.9949(3) 0.10927(17) 0.60976(16)
H2 H 0.9880 0.1375 0.6376
C3 C 1.2091(3) 0.09188(17) 0.61928(17)
H3 H 1.2107 0.1259 0.6434
H4 H 1.2628 0.0981 0.5888
C4 C 1.2477(3) 0.03904(15) 0.65392(14)
C5 C 1.1088(3) 0.06185(16) 0.73364(16)
C6 C 1.0209(4) 0.0503(2) 0.77026(17)
H5 H 0.9917 0.0783 0.7944
C7 C 0.9793(3) -0.0047(2) 0.76912(18)
C8 C 1.0205(4) -0.04705(19) 0.73458(19)
H6 H 0.9909 -0.0844 0.7358
C9 C 1.1074(3) -0.03270(16) 0.69767(17)
H7 H 1.1357 -0.0609 0.6735
C10 C 1.1536(3) 0.02247(14) 0.69578(14)
O41 O 0.7016(3) 0.04218(14) 0.51666(14)
O42 O 0.7856(3) 0.19571(14) 0.61246(13)
O43 O 0.7344(3) 0.16260(15) 0.49753(13)
O44 O 1.2680(2) -0.00554(12) 0.61367(11)
H8 H 1.2888 -0.0350 0.6303
N4 N 1.4490(2) 0.08122(12) 0.65841(12)
N5 N 1.4436(3) 0.14011(13) 0.65640(13)
C11 C 1.5446(3) 0.06266(16) 0.63463(15)
H9 H 1.5665 0.0241 0.6312
C12 C 1.5386(3) 0.15393(15) 0.63034(15)
H10 H 1.5590 0.1919 0.6222
C13 C 1.3603(3) 0.04877(16) 0.68856(15)
H11 H 1.3420 0.0694 0.7230
H12 H 1.3919 0.0114 0.6995
N6 N 1.6046(2) 0.10796(13) 0.61633(13)
H13 H 0.662(3) 0.0431(15) 0.4849(10)
H14 H 0.692(3) 0.0067(8) 0.5294(15)
H15 H 0.800(4) 0.2025(16) 0.6488(5)
H16 H 0.811(4) 0.2278(11) 0.5961(13)
Zn1_2 Zn 1.74636(3) 0.115608(19) 0.569549(18)
N6_2 N 0.6046(2) 0.10796(13) 0.61633(13)
F3 F 0.2246(3) 0.99732(14) 0.83938(15)
F4 F 0.3085(4) 1.07434(16) 1.01816(16)
N7 N 0.5015(3) 0.92650(15) 0.82129(15)
N8 N 0.1913(3) 0.81946(15) 0.81451(15)
N9 N 0.1722(4) 0.7641(2) 0.8251(2)
N10 N 0.1819(4) 0.7792(2) 0.7366(2)
H17 H 0.1816 0.7726 0.7007
N11 N 0.5275(4) 0.9819(2) 0.8099(3)
N12 N 0.6773(4) 0.93699(19) 0.84712(19)
H18 H 0.7460 0.9309 0.8605
C14 C 0.1658(3) 0.73793(16) 0.77546(18)
H19 H 0.1528 0.6988 0.7688
C15 C 0.1976(4) 0.82912(17) 0.75791(16)
H20 H 0.2103 0.8639 0.7392
C16 C 0.1984(4) 0.8681(2) 0.85350(19)
H21 H 0.1645 0.8571 0.8892
H22 H 0.1539 0.9001 0.8380
C17 C 0.3258(4) 0.88800(17) 0.86451(17)
C18 C 0.3852(4) 0.9039(2) 0.80907(17)
H23 H 0.3903 0.8700 0.7851
H24 H 0.3397 0.9329 0.7889
C19 C 0.6357(6) 0.9860(3) 0.8256(3)
H25 H 0.6792 1.0196 0.8222
C20 C 0.5913(4) 0.8997(2) 0.8436(2)
H26 H 0.5939 0.8612 0.8549
C21 C 0.3698(4) 0.9346(2) 0.96011(18)
H27 H 0.4058 0.9003 0.9711
C22 C 0.3655(5) 0.9794(3) 0.9976(2)
H28 H 0.3987 0.9757 1.0336
C23 C 0.3127(5) 1.0289(2) 0.9820(2)
C24 C 0.2638(5) 1.0367(2) 0.9290(3)
H29 H 0.2279 1.0712 0.9186
C25 C 0.2707(4) 0.9904(2) 0.8920(2)
C26 C 0.3218(4) 0.93911(18) 0.90592(17)
O45 O 0.3894(3) 0.84247(12) 0.88981(12)
H30 H 0.3917 0.8150 0.8678
O46 O 0.1098(3) 0.64176(15) 0.71284(13)
O47 O 0.8657(6) 0.8932(3) 0.8981(2)
O48 O 0.8348(5) 0.2810(3) 0.5335(5)
O49? O 1.0125(10) 0.9465(5) 0.9351(5)
loop_
_geom_bond_atom_site_label_1
_geom_bond_atom_site_label_2
_geom_bond_site_symmetry_1
_geom_bond_site_symmetry_2
Si1 O1 1_555 1_555
Mo1 O2 1_555 1_555
Mo2 O3 1_555 1_555
Mo3 O2 1_555 1_555
Mo4 O1 1_555 1_555
Mo5 O2 1_555 1_555
Mo6 O3 1_555 1_555
Mo7 O1 1_555 1_555
Mo8 O4 1_555 1_555
Mo9 O4 1_555 1_555
Mo10 O3 1_555 1_555
Mo11 O1 1_555 1_555
Mo12 O4 1_555 1_555
O2 Si1 1_555 1_555
O3 Si1 1_555 1_555
O4 Si1 1_555 1_555
O5 Mo3 1_555 1_555
O6 Mo5 1_555 1_555
O7 Mo1 1_555 1_555
O8 Mo1 1_555 1_555
O9 Mo3 1_555 1_555
O10 Mo1 1_555 1_555
O11 Mo1 1_555 1_555
O12 Mo3 1_555 1_555
O13 Mo3 1_555 1_555
O14 Mo2 1_555 1_555
O15 Mo5 1_555 1_555
O16 Mo1 1_555 1_555
O17 Mo9 1_555 1_555
O18 Mo4 1_555 1_555
O19 Mo7 1_555 1_555
O20 Mo6 1_555 1_555
O21 Mo8 1_555 1_555
O22 Mo4 1_555 1_555
O23 Mo6 1_555 1_555
O24 Mo2 1_555 1_555
O25 Mo2 1_555 1_555
O26 Mo8 1_555 1_555
O27 Mo4 1_555 1_555
O28 Mo7 1_555 1_555
O29 Mo6 1_555 1_555
O30 Mo2 1_555 1_555
O31 Mo8 1_555 1_555
O32 Mo9 1_555 1_555
O33 Mo4 1_555 1_555
O34 Mo10 1_555 1_555
O35 Mo10 1_555 1_555
O36 Mo11 1_555 1_555
O37 Mo10 1_555 1_555
O38 Mo11 1_555 1_555
O39 Mo12 1_555 1_555
O40 Mo2 1_555 1_555
Zn1 N1 1_555 1_555
F1 C5 1_555 1_555
F2 C7 1_555 1_555
N1 C1 1_555 1_555
N2 N3 1_555 1_555
N3 C1 1_555 1_555
C1 H1 1_555 1_555
C2 N1 1_555 1_555
H2 C2 1_555 1_555
C3 N2 1_555 1_555
H3 C3 1_555 1_555
H4 C3 1_555 1_555
C4 C3 1_555 1_555
C5 C6 1_555 1_555
C6 H5 1_555 1_555
C7 C6 1_555 1_555
C8 C7 1_555 1_555
H6 C8 1_555 1_555
C9 C8 1_555 1_555
H7 C9 1_555 1_555
C10 C4 1_555 1_555
O41 Zn1 1_555 1_555
O42 Zn1 1_555 1_555
O43 Zn1 1_555 1_555
O44 C4 1_555 1_555
H8 O44 1_555 1_555
N4 N5 1_555 1_555
N5 C12 1_555 1_555
C11 N4 1_555 1_555
H9 C11 1_555 1_555
C12 H10 1_555 1_555
C13 C4 1_555 1_555
H11 C13 1_555 1_555
H12 C13 1_555 1_555
N6 C11 1_555 1_555
H13 O41 1_555 1_555
H14 O41 1_555 1_555
H15 O42 1_555 1_555
H16 O42 1_555 1_555
F3 C25 1_555 1_555
F4 C23 1_555 1_555
N7 N11 1_555 1_555
N8 N9 1_555 1_555
N9 C14 1_555 1_555
N10 H17 1_555 1_555
N11 C19 1_555 1_555
N12 H18 1_555 1_555
C14 N10 1_555 1_555
H19 C14 1_555 1_555
C15 N8 1_555 1_555
H20 C15 1_555 1_555
C16 N8 1_555 1_555
H21 C16 1_555 1_555
H22 C16 1_555 1_555
C17 C16 1_555 1_555
C18 N7 1_555 1_555
H23 C18 1_555 1_555
H24 C18 1_555 1_555
C19 N12 1_555 1_555
H25 C19 1_555 1_555
C20 N7 1_555 1_555
H26 C20 1_555 1_555
C21 H27 1_555 1_555
C22 C21 1_555 1_555
H28 C22 1_555 1_555
C23 C22 1_555 1_555
C24 C23 1_555 1_555
H29 C24 1_555 1_555
C25 C24 1_555 1_555
C26 C17 1_555 1_555
O45 C17 1_555 1_555
H30 O45 1_555 1_555
Zn1_2 N6 1_555 1_555
N6_2 Zn1 1_555 1_555
Mo3 O8 1_555 1_555
Mo4 O11 1_555 1_555
Mo5 O9 1_555 1_555
Mo5 O10 1_555 1_555
Mo5 O14 1_555 1_555
Mo6 O13 1_555 1_555
Mo6 O24 1_555 1_555
Mo7 O12 1_555 1_555
Mo7 O22 1_555 1_555
Mo7 O23 1_555 1_555
Mo8 O15 1_555 1_555
Mo8 O25 1_555 1_555
Mo9 O16 1_555 1_555
Mo9 O26 1_555 1_555
Mo9 O27 1_555 1_555
Mo10 O29 1_555 1_555
Mo10 O30 1_555 1_555
Mo11 O28 1_555 1_555
Mo11 O33 1_555 1_555
Mo11 O34 1_555 1_555
Mo12 O31 1_555 1_555
Mo12 O32 1_555 1_555
Mo12 O35 1_555 1_555
Mo12 O36 1_555 1_555
N2 C2 1_555 1_555
C5 C10 1_555 1_555
C9 C10 1_555 1_555
N4 C13 1_555 1_555
C12 N6 1_555 1_555
N10 C15 1_555 1_555
N12 C20 1_555 1_555
C17 C18 1_555 1_555
C21 C26 1_555 1_555
C25 C26 1_555 1_555

#END
