
#######################################################################
#
#                 Cambridge Crystallographic Data Centre
#                                CCDC 
#
#######################################################################
#
# If this CIF has been generated from an entry in the Cambridge 
# Structural Database, then it will include bibliographic, chemical, 
# crystal, experimental, refinement or atomic coordinate data resulting 
# from the CCDC's data processing and validation procedures.
#
#######################################################################

data_OFUJOQ
_symmetry_cell_setting           monoclinic
_symmetry_space_group_name_H-M   'P 21/c'
_symmetry_Int_Tables_number      14
_space_group_name_Hall           '-P 2ybc'
loop_
_symmetry_equiv_pos_site_id
_symmetry_equiv_pos_as_xyz
1 x,y,z
2 -x,1/2+y,1/2-z
3 -x,-y,-z
4 x,1/2-y,1/2+z
_cell_length_a                   14.142(3)
_cell_length_b                   5.3219(11)
_cell_length_c                   10.330(2)
_cell_angle_alpha                90
_cell_angle_beta                 107.30(3)
_cell_angle_gamma                90
_cell_volume                     742.288
loop_
_atom_site_label
_atom_site_type_symbol
_atom_site_fract_x
_atom_site_fract_y
_atom_site_fract_z
Co1 Co 0.39848(3) 1.09699(7) 0.40694(4)
P1 P 0.38107(5) 0.63251(13) 0.59212(7)
O1 O 0.45142(14) 0.8122(4) 0.55090(19)
O2 O 0.38406(15) 0.3606(4) 0.5493(2)
O3 O 0.38946(15) 0.6483(4) 0.74260(19)
O4 O 0.16331(18) 1.2558(5) 0.2664(2)
H1 H 0.222(3) 1.306(7) 0.264(3)
O5 O 0.34445(18) 1.3727(4) 0.2572(2)
H2 H 0.361(3) 1.526(8) 0.265(4)
H3 H 0.354(3) 1.327(8) 0.195(4)
N1 N 0.25598(18) 0.9581(5) 0.4146(2)
C1 C 0.1683(2) 1.0592(6) 0.3500(3)
C2 C 0.0794(2) 0.9703(7) 0.3655(4)
H4 H 0.0193 1.0449 0.3197
C3 C 0.0835(2) 0.7698(8) 0.4501(4)
H5 H 0.0254 0.7054 0.4617
C4 C 0.1737(2) 0.6626(7) 0.5186(3)
H6 H 0.1768 0.5271 0.5766
C5 C 0.2590(2) 0.7600(6) 0.4995(3)
Co1_2 Co 0.39848(3) 0.09699(7) 0.40694(4)
Co1B Co 0.60152(3) 0.90301(7) 0.59306(4)
Co1C Co 0.39848(3) 0.40301(7) 0.90694(4)
O1B O 0.54858(14) 1.1878(4) 0.44910(19)
O2_2 O 0.38406(15) 1.3606(4) 0.5493(2)
O3C O 0.38946(15) 0.8517(4) 0.24260(19)
loop_
_geom_bond_atom_site_label_1
_geom_bond_atom_site_label_2
_geom_bond_site_symmetry_1
_geom_bond_site_symmetry_2
Co1 O1 1_555 1_555
P1 O1 1_555 1_555
O1 Co1B 1_555 1_555
O2 P1 1_555 1_555
O3 P1 1_555 1_555
O4 H1 1_555 1_555
O5 Co1 1_555 1_555
H2 O5 1_555 1_555
H3 O5 1_555 1_555
N1 Co1 1_555 1_555
C1 O4 1_555 1_555
C2 C1 1_555 1_555
H4 C2 1_555 1_555
C3 C2 1_555 1_555
H5 C3 1_555 1_555
C4 C3 1_555 1_555
H6 C4 1_555 1_555
C5 P1 1_555 1_555
Co1_2 O2 1_555 1_555
Co1B O1B 1_555 1_555
Co1C O3 1_555 1_555
O1B Co1 1_555 1_555
O2_2 Co1 1_555 1_555
O3C Co1 1_555 1_555
N1 C1 1_555 1_555
N1 C5 1_555 1_555
C4 C5 1_555 1_555

#END
