
#######################################################################
#
#                 Cambridge Crystallographic Data Centre
#                                CCDC 
#
#######################################################################
#
# If this CIF has been generated from an entry in the Cambridge 
# Structural Database, then it will include bibliographic, chemical, 
# crystal, experimental, refinement or atomic coordinate data resulting 
# from the CCDC's data processing and validation procedures.
#
#######################################################################

data_OFUQIR
_symmetry_cell_setting           triclinic
_symmetry_space_group_name_H-M   'P -1'
_symmetry_Int_Tables_number      2
_space_group_name_Hall           '-P 1'
loop_
_symmetry_equiv_pos_site_id
_symmetry_equiv_pos_as_xyz
1 x,y,z
2 -x,-y,-z
_cell_length_a                   5.4959(4)
_cell_length_b                   8.9770(8)
_cell_length_c                   10.7709(10)
_cell_angle_alpha                109.529(4)
_cell_angle_beta                 98.900(5)
_cell_angle_gamma                105.073(5)
_cell_volume                     466.24
loop_
_atom_site_label
_atom_site_type_symbol
_atom_site_fract_x
_atom_site_fract_y
_atom_site_fract_z
U1 U 0.99639(3) 0.77056(2) 0.439099(16)
O1 O 0.7366(8) 0.7215(5) 0.5122(4)
O2 O 1.2530(8) 0.8168(5) 0.3593(4)
O3 O 0.9486(7) 0.4835(4) 0.3567(3)
O4 O 0.7259(8) 0.2513(4) 0.3782(3)
O5 O 0.6613(7) 0.6142(4) 0.2182(3)
O6 O -0.1809(7) 0.3027(5) -0.0028(4)
O7 O 1.1917(7) 1.0423(4) 0.6136(3)
H1 H 1.3523 1.0727 0.6215
N1 N 0.2469(8) 0.4512(5) 0.1055(4)
H2 H 0.2417 0.5253 0.0565
N2 N 0.0496(9) 0.2011(5) 0.1239(4)
H3 H -0.1067 0.1189 0.0864
C1 C 0.7407(11) 0.3637(6) 0.3324(5)
C2 C 0.4988(10) 0.3525(6) 0.2423(5)
C3 C 0.4845(10) 0.4797(6) 0.1910(5)
C4 C 0.0253(11) 0.3169(6) 0.0700(5)
C5 C 0.2765(11) 0.2175(6) 0.2056(5)
H4 H 0.2818 0.1342 0.2380
U1A U 1.00361(3) 0.22944(2) 0.560901(16)
U1A_2 U 1.00361(3) 1.22944(2) 0.560901(16)
O4A O 1.2741(8) 0.7487(4) 0.6218(3)
O7A O 0.8083(7) 0.9577(4) 0.3864(3)
O8 O -0.3021(8) -0.0753(5) 0.1132(4)
H5 H -0.4728 -0.1250 0.0647
H6 H -0.2972 -0.0751 0.1986
loop_
_geom_bond_atom_site_label_1
_geom_bond_atom_site_label_2
_geom_bond_site_symmetry_1
_geom_bond_site_symmetry_2
U1 O1 1_555 1_555
O2 U1 1_555 1_555
O3 U1 1_555 1_555
O4 C1 1_555 1_555
O5 U1 1_555 1_555
O6 C4 1_555 1_555
O7 U1 1_555 1_555
H1 O7 1_555 1_555
N1 H2 1_555 1_555
N2 H3 1_555 1_555
C1 O3 1_555 1_555
C2 C1 1_555 1_555
C3 O5 1_555 1_555
C4 N1 1_555 1_555
C5 N2 1_555 1_555
H4 C5 1_555 1_555
O8 H5 1_555 1_555
H6 O8 1_555 1_555
U1A O4 1_555 1_555
U1A_2 O7 1_555 1_555
O4A U1 1_555 1_555
O7A U1 1_555 1_555
N1 C3 1_555 1_555
N2 C4 1_555 1_555
C2 C3 1_555 1_555
C2 C5 1_555 1_555
U1A_2 O7A 1_555 1_555

#END
