
#######################################################################
#
#                 Cambridge Crystallographic Data Centre
#                                CCDC 
#
#######################################################################
#
# If this CIF has been generated from an entry in the Cambridge 
# Structural Database, then it will include bibliographic, chemical, 
# crystal, experimental, refinement or atomic coordinate data resulting 
# from the CCDC's data processing and validation procedures.
#
#######################################################################

data_OFUSEP
_symmetry_cell_setting           monoclinic
_symmetry_space_group_name_H-M   'P 21'
_symmetry_Int_Tables_number      4
_space_group_name_Hall           'P 2yb'
loop_
_symmetry_equiv_pos_site_id
_symmetry_equiv_pos_as_xyz
1 x,y,z
2 -x,1/2+y,-z
_cell_length_a                   9.5475(3)
_cell_length_b                   11.4400(3)
_cell_length_c                   13.2092(4)
_cell_angle_alpha                90
_cell_angle_beta                 109.9740(10)
_cell_angle_gamma                90
_cell_volume                     1355.97
loop_
_atom_site_label
_atom_site_type_symbol
_atom_site_fract_x
_atom_site_fract_y
_atom_site_fract_z
C1 C 0.8553(3) 0.4370(3) 0.2158(2)
H1 H 0.9584 0.4498 0.2656
H2 H 0.7875 0.4374 0.2582
C2 C 0.6242(3) 0.4993(3) 0.0210(2)
H3 H 0.5478 0.5010 0.0562
H4 H 0.5904 0.5499 -0.0436
C3 C 0.9297(3) 0.5229(3) 0.0403(2)
H5 H 0.9054 0.5747 -0.0235
H6 H 1.0337 0.5386 0.0870
C4 C 0.7576(3) 0.3722(3) -0.0658(2)
H7 H 0.7289 0.4295 -0.1256
H8 H 0.7545 0.2935 -0.0976
C5 C 0.9493(3) 0.3180(3) 0.1001(2)
H9 H 0.9519 0.2366 0.0753
H10 H 1.0503 0.3373 0.1502
C6 C 0.6943(3) 0.3000(3) 0.0857(2)
H11 H 0.6237 0.3092 0.1253
H12 H 0.6891 0.2177 0.0615
C7 C 0.9128(3) 0.5460(3) 0.5229(2)
H13 H 1.0202 0.5296 0.5591
H14 H 0.8747 0.4939 0.4595
C8 C 0.6241(3) 0.5707(3) 0.5367(3)
H15 H 0.5794 0.5189 0.4738
H16 H 0.5595 0.5697 0.5815
C9 C 0.8799(4) 0.6365(3) 0.7121(2)
H17 H 0.8245 0.6374 0.7632
H18 H 0.9869 0.6243 0.7536
C10 C 0.7301(3) 0.6960(3) 0.4305(2)
H19 H 0.7210 0.7743 0.3970
H20 H 0.6909 0.6382 0.3718
C11 C 0.9460(3) 0.7527(3) 0.5813(2)
H21 H 1.0510 0.7334 0.6228
H22 H 0.9435 0.8334 0.5536
C12 C 0.7033(3) 0.7724(3) 0.5935(2)
H23 H 0.6937 0.8540 0.5671
H24 H 0.6455 0.7653 0.6428
N1 N 0.8446(3) 0.3241(2) 0.1589(2)
N2 N 0.6467(3) 0.3771(2) -0.01003(19)
N3 N 0.9132(3) 0.3972(2) 0.0055(2)
N4 N 0.8907(3) 0.6710(2) 0.48822(19)
N5 N 0.6372(3) 0.6925(2) 0.4997(2)
N6 N 0.8591(3) 0.7485(2) 0.6534(2)
O1 O 1.1572(3) 0.5446(2) 0.3998(2)
O2 O 0.8094(3) 1.0301(2) 0.0803(2)
O3 O 0.3824(3) 0.6144(2) 0.1217(2)
O4 O 0.5377(3) 0.4813(2) 0.2528(2)
O5 O 0.2791(3) 0.4355(2) 0.1578(2)
O6 O 0.3438(4) 0.5879(3) 0.2906(2)
O7 O 0.5350(3) 0.9131(2) 0.28067(19)
O8 O 0.6676(3) 1.0741(2) 0.3913(2)
O9 O 0.6172(3) 1.0785(3) 0.1999(2)
P1 P 0.80264(8) 0.55102(6) 0.11406(6)
P2 P 0.81171(8) 0.51959(7) 0.61559(6)
S1 S 0.80955(8) 0.71404(7) 0.17281(5)
S2 S 0.83003(8) 0.36411(7) 0.68889(5)
S3 S 0.38624(8) 0.52855(7) 0.20694(6)
S4 S 0.65404(9) 1.00259(7) 0.29631(6)
Ag1 Ag 1.01675(3) 0.72164(2) 0.37272(2)
Ag2 Ag 0.55259(2) 0.77992(2) 0.14453(2)
Ag3 Ag 0.58632(3) 0.27020(2) 0.60626(2)
Ag4 Ag 0.92918(3) 0.85298(2) 0.08617(3)
O10 O 0.7968(3) 0.9424(3) 0.3106(2)
H25 H 1.207(7) 0.553(6) 0.454(5)
H26 H 1.216(7) 0.559(5) 0.360(5)
H27 H 0.739(5) 1.032(5) 0.009(2)
H28 H 0.762(7) 1.038(5) 0.123(5)
N2A N 0.3533(3) 0.8771(2) 0.01003(19)
N3A N 1.0868(3) 0.8972(2) -0.0055(2)
N5A N 0.3628(3) 0.1925(2) 0.5003(2)
O6A O 0.6562(4) 0.0879(3) 0.7094(2)
S2A S 1.16997(8) 0.86411(7) 0.31111(5)
Ag1A Ag 0.98325(3) 0.22164(2) 0.62728(2)
Ag2A Ag 0.44741(2) 0.27992(2) -0.14453(2)
Ag3A Ag 0.41368(3) 0.77020(2) 0.39374(2)
Ag4A Ag 1.07082(3) 0.35298(2) -0.08617(3)
O11 O 0.6715(3) 0.3184(2) 0.4099(2)
H29 H 0.7404 0.3226 0.4715
H30 H 0.6425 0.2472 0.4012
O12 O 0.3329(3) 0.1992(2) 0.1444(2)
H31 H 0.3179 0.2693 0.1580
H32 H 0.4061 0.1547 0.1788
loop_
_geom_bond_atom_site_label_1
_geom_bond_atom_site_label_2
_geom_bond_site_symmetry_1
_geom_bond_site_symmetry_2
C1 H1 1_555 1_555
H2 C1 1_555 1_555
C2 H3 1_555 1_555
H4 C2 1_555 1_555
C3 H5 1_555 1_555
H6 C3 1_555 1_555
C4 H7 1_555 1_555
H8 C4 1_555 1_555
C5 H9 1_555 1_555
H10 C5 1_555 1_555
C6 H11 1_555 1_555
H12 C6 1_555 1_555
C7 H13 1_555 1_555
H14 C7 1_555 1_555
C8 H15 1_555 1_555
H16 C8 1_555 1_555
C9 H17 1_555 1_555
H18 C9 1_555 1_555
C10 H19 1_555 1_555
H20 C10 1_555 1_555
C11 H21 1_555 1_555
H22 C11 1_555 1_555
C12 H23 1_555 1_555
H24 C12 1_555 1_555
N1 C1 1_555 1_555
N2 C2 1_555 1_555
N3 C3 1_555 1_555
N4 C7 1_555 1_555
N5 C8 1_555 1_555
N6 C9 1_555 1_555
O1 Ag1 1_555 1_555
O2 Ag4 1_555 1_555
O3 S3 1_555 1_555
O4 S3 1_555 1_555
O5 S3 1_555 1_555
O6 S3 1_555 1_555
O7 S4 1_555 1_555
O8 S4 1_555 1_555
O9 S4 1_555 1_555
P1 C1 1_555 1_555
P2 C7 1_555 1_555
S1 P1 1_555 1_555
S2 P2 1_555 1_555
S4 O10 1_555 1_555
Ag1 N4 1_555 1_555
Ag2 O3 1_555 1_555
Ag3 S2 1_555 1_555
Ag4 S1 1_555 1_555
H25 O1 1_555 1_555
H26 O1 1_555 1_555
H27 O2 1_555 1_555
H28 O2 1_555 1_555
O11 H29 1_555 1_555
H30 O11 1_555 1_555
O12 H31 1_555 1_555
H32 O12 1_555 1_555
N2A Ag2 1_555 1_555
N3A Ag4 1_555 1_555
N5A Ag3 1_555 1_555
O6A Ag3 1_555 1_555
S2A Ag1 1_555 1_555
Ag1A S2 1_555 1_555
Ag2A N2 1_555 1_555
Ag3A N5 1_555 1_555
Ag4A N3 1_555 1_555
C2 P1 1_555 1_555
C3 P1 1_555 1_555
C4 N2 1_555 1_555
C4 N3 1_555 1_555
C5 N1 1_555 1_555
C5 N3 1_555 1_555
C6 N1 1_555 1_555
C6 N2 1_555 1_555
C8 P2 1_555 1_555
C9 P2 1_555 1_555
C10 N4 1_555 1_555
C10 N5 1_555 1_555
C11 N4 1_555 1_555
C11 N6 1_555 1_555
C12 N5 1_555 1_555
C12 N6 1_555 1_555
O6 Ag3A 1_555 1_555
O7 Ag2 1_555 1_555
S1 Ag1 1_555 1_555
S1 Ag2 1_555 1_555

#END
