
#######################################################################
#
#                 Cambridge Crystallographic Data Centre
#                                CCDC 
#
#######################################################################
#
# If this CIF has been generated from an entry in the Cambridge 
# Structural Database, then it will include bibliographic, chemical, 
# crystal, experimental, refinement or atomic coordinate data resulting 
# from the CCDC's data processing and validation procedures.
#
#######################################################################

data_OFUSAL
_symmetry_cell_setting           orthorhombic
_symmetry_space_group_name_H-M   'P 21 21 21'
_symmetry_Int_Tables_number      19
_space_group_name_Hall           'P 2ac 2ab'
loop_
_symmetry_equiv_pos_site_id
_symmetry_equiv_pos_as_xyz
1 x,y,z
2 1/2-x,-y,1/2+z
3 1/2+x,1/2-y,-z
4 -x,1/2+y,1/2-z
_cell_length_a                   8.0290(2)
_cell_length_b                   9.8549(3)
_cell_length_c                   14.3776(4)
_cell_angle_alpha                90
_cell_angle_beta                 90
_cell_angle_gamma                90
_cell_volume                     1137.63
loop_
_atom_site_label
_atom_site_type_symbol
_atom_site_fract_x
_atom_site_fract_y
_atom_site_fract_z
C1 C 0.2189(2) 0.09045(18) -0.13701(12)
H1 H 0.1462 0.0339 -0.1745
H2 H 0.1648 0.1775 -0.1279
C2 C 0.3831(2) -0.13423(16) -0.05877(12)
H3 H 0.4254 -0.1793 -0.0036
H4 H 0.3157 -0.1988 -0.0931
C3 C 0.4130(2) 0.12240(18) 0.02480(13)
H5 H 0.3646 0.2104 0.0384
H6 H 0.4559 0.0844 0.0823
C4 C 0.4656(2) -0.01988(17) -0.20310(12)
H7 H 0.5602 -0.0037 -0.2435
H8 H 0.3897 -0.0800 -0.2356
C5 C 0.6316(2) 0.00735(19) -0.06435(13)
H9 H 0.6640 -0.0350 -0.0062
H10 H 0.7322 0.0249 -0.0997
C6 C 0.4926(2) 0.19898(19) -0.13064(12)
H11 H 0.5889 0.2220 -0.1682
H12 H 0.4345 0.2827 -0.1162
N1 N 0.38047(18) 0.11026(15) -0.18585(10)
N2 N 0.52472(18) -0.08881(14) -0.11759(10)
N3 N 0.54956(19) 0.13710(15) -0.04395(11)
P1 P 0.25535(6) 0.00982(4) -0.02471(3)
S1 S 0.05257(6) -0.03613(5) 0.04509(3)
Ag1 Ag 0.164377(17) -0.209321(15) 0.163022(10)
N1A N 0.11953(18) -0.11026(15) 0.31415(10)
N2B N 0.02472(18) -0.41119(14) 0.11759(10)
Ag1A Ag 0.335623(17) 0.209321(15) -0.336978(10)
Ag1B Ag 0.664377(17) -0.290679(15) -0.163022(10)
loop_
_geom_bond_atom_site_label_1
_geom_bond_atom_site_label_2
_geom_bond_site_symmetry_1
_geom_bond_site_symmetry_2
C1 H1 1_555 1_555
H2 C1 1_555 1_555
C2 H3 1_555 1_555
H4 C2 1_555 1_555
C3 H5 1_555 1_555
H6 C3 1_555 1_555
C4 H7 1_555 1_555
H8 C4 1_555 1_555
C5 H9 1_555 1_555
H10 C5 1_555 1_555
C6 H11 1_555 1_555
H12 C6 1_555 1_555
N1 C1 1_555 1_555
N2 C2 1_555 1_555
N3 C3 1_555 1_555
P1 C1 1_555 1_555
S1 P1 1_555 1_555
Ag1 S1 1_555 1_555
N1A Ag1 1_555 1_555
N2B Ag1 1_555 1_555
Ag1A N1 1_555 1_555
Ag1B N2 1_555 1_555
C2 P1 1_555 1_555
C3 P1 1_555 1_555
C4 N1 1_555 1_555
C4 N2 1_555 1_555
C5 N2 1_555 1_555
C5 N3 1_555 1_555
C6 N1 1_555 1_555
C6 N3 1_555 1_555

#END
