
#######################################################################
#
#                 Cambridge Crystallographic Data Centre
#                                CCDC 
#
#######################################################################
#
# If this CIF has been generated from an entry in the Cambridge 
# Structural Database, then it will include bibliographic, chemical, 
# crystal, experimental, refinement or atomic coordinate data resulting 
# from the CCDC's data processing and validation procedures.
#
#######################################################################

data_OFUVUI
_symmetry_cell_setting           triclinic
_symmetry_space_group_name_H-M   'P -1'
_symmetry_Int_Tables_number      2
_space_group_name_Hall           '-P 1'
loop_
_symmetry_equiv_pos_site_id
_symmetry_equiv_pos_as_xyz
1 x,y,z
2 -x,-y,-z
_cell_length_a                   10.1361(8)
_cell_length_b                   12.1778(10)
_cell_length_c                   14.8005(11)
_cell_angle_alpha                68.768(7)
_cell_angle_beta                 84.392(6)
_cell_angle_gamma                75.241(7)
_cell_volume                     1646.68
loop_
_atom_site_label
_atom_site_type_symbol
_atom_site_fract_x
_atom_site_fract_y
_atom_site_fract_z
Tb1 Tb 1.74593(2) -0.019022(19) 0.399736(15)
Tb2 Tb 0.85932(2) 0.477951(19) 0.285631(15)
Tb3 Tb 0.99211(2) 0.787881(19) 0.043502(15)
C1 C 1.5240(4) 0.2559(4) 0.2354(3)
C2 C 1.4172(4) 0.2300(4) 0.3028(3)
C3 C 1.3008(4) 0.3245(4) 0.2962(3)
H1 H 1.2304 0.3100 0.3409
C4 C 1.2872(4) 0.4382(4) 0.2256(3)
C5 C 1.3934(5) 0.4611(4) 0.1603(3)
H2 H 1.3851 0.5374 0.1126
C6 C 1.5115(5) 0.3721(4) 0.1650(3)
H3 H 1.5826 0.3893 0.1216
C7 C 1.7466(4) 0.2002(4) 0.1692(3)
H4 H 1.7808 0.2629 0.1784
H5 H 1.7077 0.2320 0.1049
C8 C 1.8611(4) 0.0907(4) 0.1788(3)
C9 C 1.4183(4) 0.1096(4) 0.3814(3)
C10 C 1.1579(4) 0.5336(4) 0.2141(3)
C11 C 0.6986(5) 0.5166(4) 0.5072(3)
C12 C 0.6560(5) 0.6426(4) 0.4562(3)
C13 C 0.5385(4) 0.7084(4) 0.4887(3)
H6 H 0.5091 0.7915 0.4560
C14 C 0.4659(5) 0.6517(4) 0.5683(3)
C15 C 0.5140(5) 0.5273(4) 0.6193(3)
H7 H 0.4669 0.4889 0.6739
C16 C 0.6295(5) 0.4617(4) 0.5894(3)
H8 H 0.6614 0.3797 0.6248
C17 C 0.8820(5) 0.3382(5) 0.5400(4)
H9 H 0.8171 0.2899 0.5728
H10 H 0.9246 0.3542 0.5883
C18 C 0.9882(5) 0.2694(4) 0.4905(3)
C19 C 0.7273(5) 0.7115(4) 0.3714(3)
C20 C 0.3421(5) 0.7251(4) 0.6007(3)
C21 C 0.6736(4) 0.8275(4) -0.0495(3)
C22 C 0.6215(4) 0.7652(4) 0.0398(3)
C23 C 0.4801(4) 0.7995(4) 0.0539(3)
H11 H 0.4407 0.7563 0.1108
C24 C 0.3972(4) 0.8970(4) -0.0157(3)
C25 C 0.4547(4) 0.9574(4) -0.1021(3)
H12 H 0.4005 1.0232 -0.1484
C26 C 0.5928(4) 0.9207(4) -0.1204(3)
H13 H 0.6303 0.9586 -0.1800
C27 C 0.8520(5) 0.7328(5) -0.1344(3)
H14 H 0.8456 0.7910 -0.2001
H15 H 0.7907 0.6809 -0.1281
C28 C 0.9983(5) 0.6567(4) -0.1141(3)
C29 C 0.7090(5) 0.6680(4) 0.1190(3)
C30 C 0.2454(4) 0.9382(4) 0.0027(3)
O1 O 1.6430(3) 0.1663(3) 0.2414(2)
O2 O 1.9531(3) 0.0988(3) 0.1157(2)
O3 O 1.8576(3) -0.0044(3) 0.2491(2)
O4 O 1.5141(3) 0.0197(3) 0.3841(2)
O5 O 1.3190(3) 0.1042(3) 0.4399(2)
O6 O 1.0672(3) 0.5189(3) 0.2800(2)
O7 O 1.1452(3) 0.6229(3) 0.1364(2)
O8 O 0.8117(3) 0.4508(3) 0.4708(2)
O9 O 1.0615(3) 0.1747(3) 0.5466(2)
O10 O 0.9914(3) 0.3032(3) 0.4002(2)
O11 O 0.8018(3) 0.6563(3) 0.3191(2)
O12 O 0.7146(3) 0.8225(3) 0.3534(2)
O13 O 0.3215(3) 0.8399(3) 0.5638(2)
O14 O 0.2664(3) 0.6691(3) 0.6646(2)
O15 O 0.8139(3) 0.7953(3) -0.0665(2)
O16 O 1.0493(3) 0.6090(3) -0.1757(2)
O17 O 1.0560(3) 0.6477(3) -0.0409(2)
O18 O 0.8365(3) 0.6635(3) 0.1249(2)
O19 O 0.6582(3) 0.5884(3) 0.1830(2)
O20 O 0.1841(3) 0.8587(3) 0.0554(2)
O21 O 0.18915(18) 1.04756(17) -0.03791(14)
O22 O 1.93749(18) 0.07283(17) 0.38605(14)
H16 H 2.0057 0.0279 0.3673
H17 H 1.9624 0.1341 0.3884
O23 O 0.97070(18) 0.79695(17) 0.20493(14)
H18 H 0.9256 0.7486 0.2431
H19 H 0.9321 0.8680 0.2045
Tb1_2 Tb 0.74593(2) 0.980978(19) 0.399736(15)
Tb1A Tb 0.25407(2) 1.019022(19) 0.600264(15)
Tb1A_2 Tb 1.25407(2) 0.019022(19) 0.600264(15)
Tb2A Tb 0.14068(2) 0.522049(19) 0.714369(15)
Tb2A_2 Tb 1.14068(2) 0.522049(19) -0.285631(15)
Tb3_2 Tb -0.00789(2) 0.787881(19) 0.043502(15)
Tb3A Tb 0.00789(2) 1.212119(19) -0.043502(15)
Tb3A_2 Tb 2.00789(2) 0.212119(19) -0.043502(15)
O2A O 1.0469(3) 0.9012(3) -0.1157(2)
O5A O 1.6810(3) -0.1042(3) 0.5601(2)
O9A O 1.9385(3) -0.1747(3) 0.4534(2)
O12_2 O 1.7146(3) -0.1775(3) 0.3534(2)
O13A O 1.6785(3) 0.1601(3) 0.4362(2)
O14A O 0.7336(3) 0.3309(3) 0.3354(2)
O16A O 0.9507(3) 0.3910(3) 0.1757(2)
O20_2 O 1.1841(3) 0.8587(3) 0.0554(2)
O21A O 0.81085(18) 0.95244(17) 0.03791(14)
O24 O 0.1949(4) 0.9833(4) 0.3372(3)
H20 H 0.2368 0.9041 0.3527
H21 H 0.2226 1.0104 0.3788
O25 O 0.2273(5) 0.8111(4) 0.2550(3)
H22 H 0.1486 0.7865 0.2637
H23 H 0.2086 0.8899 0.2175
loop_
_geom_bond_atom_site_label_1
_geom_bond_atom_site_label_2
_geom_bond_site_symmetry_1
_geom_bond_site_symmetry_2
Tb1 O1 1_555 1_555
Tb2 O6 1_555 1_555
Tb3 O7 1_555 1_555
C1 C2 1_555 1_555
C2 C3 1_555 1_555
C3 H1 1_555 1_555
C4 C3 1_555 1_555
C5 C4 1_555 1_555
H2 C5 1_555 1_555
C6 C1 1_555 1_555
H3 C6 1_555 1_555
C7 H4 1_555 1_555
H5 C7 1_555 1_555
C8 C7 1_555 1_555
C9 C2 1_555 1_555
C10 C4 1_555 1_555
C11 C12 1_555 1_555
C12 C13 1_555 1_555
C13 H6 1_555 1_555
C14 C13 1_555 1_555
C15 C14 1_555 1_555
H7 C15 1_555 1_555
C16 C11 1_555 1_555
H8 C16 1_555 1_555
C17 H9 1_555 1_555
H10 C17 1_555 1_555
C18 C17 1_555 1_555
C19 C12 1_555 1_555
C20 C14 1_555 1_555
C21 C22 1_555 1_555
C22 C23 1_555 1_555
C23 H11 1_555 1_555
C24 C23 1_555 1_555
C25 C24 1_555 1_555
H12 C25 1_555 1_555
C26 C21 1_555 1_555
H13 C26 1_555 1_555
C27 H14 1_555 1_555
H15 C27 1_555 1_555
C28 C27 1_555 1_555
C29 C22 1_555 1_555
C30 C24 1_555 1_555
O1 C1 1_555 1_555
O2 C8 1_555 1_555
O3 Tb1 1_555 1_555
O4 Tb1 1_555 1_555
O5 C9 1_555 1_555
O6 C10 1_555 1_555
O7 C10 1_555 1_555
O8 Tb2 1_555 1_555
O9 C18 1_555 1_555
O10 Tb2 1_555 1_555
O11 Tb2 1_555 1_555
O12 C19 1_555 1_555
O13 C20 1_555 1_555
O14 C20 1_555 1_555
O15 Tb3 1_555 1_555
O16 C28 1_555 1_555
O17 Tb3 1_555 1_555
O18 Tb2 1_555 1_555
O19 Tb2 1_555 1_555
O20 C30 1_555 1_555
O21 C30 1_555 1_555
O22 Tb1 1_555 1_555
H16 O22 1_555 1_555
H17 O22 1_555 1_555
O23 Tb3 1_555 1_555
H18 O23 1_555 1_555
H19 O23 1_555 1_555
O24 H20 1_555 1_555
H21 O24 1_555 1_555
O25 H22 1_555 1_555
H23 O25 1_555 1_555
Tb1_2 O12 1_555 1_555
Tb1A O13 1_555 1_555
Tb1A_2 O5 1_555 1_555
Tb2A O14 1_555 1_555
Tb2A_2 O16 1_555 1_555
Tb3_2 O20 1_555 1_555
Tb3A O21 1_555 1_555
Tb3A_2 O2 1_555 1_555
O2A Tb3 1_555 1_555
O5A Tb1 1_555 1_555
O9A Tb1 1_555 1_555
O12_2 Tb1 1_555 1_555
O13A Tb1 1_555 1_555
O14A Tb2 1_555 1_555
O16A Tb2 1_555 1_555
O20_2 Tb3 1_555 1_555
O21A Tb3 1_555 1_555
Tb3 O18 1_555 1_555
C5 C6 1_555 1_555
C7 O1 1_555 1_555
C8 O3 1_555 1_555
C9 O4 1_555 1_555
C11 O8 1_555 1_555
C15 C16 1_555 1_555
C17 O8 1_555 1_555
C18 O10 1_555 1_555
C19 O11 1_555 1_555
C21 O15 1_555 1_555
C25 C26 1_555 1_555
C27 O15 1_555 1_555
C28 O17 1_555 1_555
C29 O18 1_555 1_555
C29 O19 1_555 1_555
O9 Tb1A_2 1_555 1_555

#END
