
#######################################################################
#
#                 Cambridge Crystallographic Data Centre
#                                CCDC 
#
#######################################################################
#
# If this CIF has been generated from an entry in the Cambridge 
# Structural Database, then it will include bibliographic, chemical, 
# crystal, experimental, refinement or atomic coordinate data resulting 
# from the CCDC's data processing and validation procedures.
#
#######################################################################

data_OFUWIX
_symmetry_cell_setting           triclinic
_symmetry_space_group_name_H-M   'P -1'
_symmetry_Int_Tables_number      2
_space_group_name_Hall           '-P 1'
loop_
_symmetry_equiv_pos_site_id
_symmetry_equiv_pos_as_xyz
1 x,y,z
2 -x,-y,-z
_cell_length_a                   10.1254(7)
_cell_length_b                   12.2074(9)
_cell_length_c                   14.8622(10)
_cell_angle_alpha                68.646(7)
_cell_angle_beta                 84.590(6)
_cell_angle_gamma                75.209(6)
_cell_volume                     1654.23
loop_
_atom_site_label
_atom_site_type_symbol
_atom_site_fract_x
_atom_site_fract_y
_atom_site_fract_z
Gd1 Gd 1.24575(2) -0.518937(19) 0.899662(15)
Gd2 Gd 0.35886(2) -0.022103(19) 0.785212(15)
Gd3 Gd 0.49263(2) 0.288120(18) 0.543994(15)
C1 C 1.0230(4) -0.2442(4) 0.7360(3)
C2 C 0.9165(4) -0.2694(4) 0.8024(3)
C3 C 0.8004(4) -0.1751(4) 0.7960(3)
H1 H 0.7303 -0.1890 0.8407
C4 C 0.7876(4) -0.0627(4) 0.7253(3)
C5 C 0.8940(4) -0.0393(4) 0.6609(3)
H2 H 0.8858 0.0373 0.6138
C6 C 1.0122(5) -0.1285(4) 0.6657(3)
H3 H 1.0836 -0.1118 0.6228
C7 C 1.2448(4) -0.2989(4) 0.6697(3)
H4 H 1.2796 -0.2369 0.6793
H5 H 1.2051 -0.2662 0.6057
C8 C 1.3598(4) -0.4088(4) 0.6783(3)
C9 C 0.9167(4) -0.3895(4) 0.8810(3)
C10 C 0.6585(4) 0.0342(4) 0.7138(3)
C11 C 0.1982(4) 0.0175(4) 1.0063(3)
C12 C 0.1557(4) 0.1422(4) 0.9561(3)
C13 C 0.0397(4) 0.2081(4) 0.9884(3)
H6 H 0.0115 0.2912 0.9559
C14 C -0.0340(4) 0.1528(4) 1.0674(3)
C15 C 0.0136(5) 0.0286(4) 1.1187(3)
H7 H -0.0335 -0.0092 1.1733
C16 C 0.1300(4) -0.0387(4) 1.0892(3)
H8 H 0.1621 -0.1206 1.1246
C17 C 0.3802(5) -0.1615(5) 1.0401(4)
H9 H 0.3153 -0.2095 1.0728
H10 H 0.4231 -0.1455 1.0882
C18 C 0.4871(4) -0.2309(4) 0.9907(3)
C19 C 0.2278(4) 0.2119(4) 0.8714(3)
C20 C -0.1570(4) 0.2252(4) 1.1009(3)
C21 C 0.1746(4) 0.3269(4) 0.4512(3)
C22 C 0.1209(4) 0.2653(4) 0.5400(3)
C23 C -0.0206(4) 0.2997(4) 0.5543(3)
H11 H -0.0602 0.2568 0.6109
C24 C -0.1022(4) 0.3977(4) 0.4842(3)
C25 C -0.0453(4) 0.4578(4) 0.3973(3)
H12 H -0.0998 0.5232 0.3507
C26 C 0.0932(4) 0.4202(4) 0.3797(3)
H13 H 0.1307 0.4576 0.3203
C27 C 0.3524(5) 0.2331(5) 0.3667(4)
H14 H 0.3464 0.2916 0.3014
H15 H 0.2905 0.1820 0.3723
C28 C 0.4974(4) 0.1561(4) 0.3870(3)
C29 C 0.2089(4) 0.1671(4) 0.6200(3)
C30 C -0.2535(4) 0.4385(4) 0.5024(3)
O1 O 1.1423(3) -0.3330(3) 0.7414(2)
O2 O 1.4509(3) -0.4003(3) 0.6150(2)
O3 O 1.3561(3) -0.5042(3) 0.7480(2)
O4 O 1.0131(3) -0.4806(3) 0.8831(2)
O5 O 0.8190(3) -0.3946(3) 0.9391(2)
O6 O 0.5679(3) 0.0194(3) 0.7789(2)
O7 O 0.6463(3) 0.1230(3) 0.6376(2)
O8 O 0.3096(3) -0.0487(3) 0.9706(2)
O9 O 0.5607(3) -0.3244(3) 1.0468(2)
O10 O 0.4907(3) -0.1972(3) 0.9009(2)
O11 O 0.3015(3) 0.1559(3) 0.8195(2)
O12 O 0.2137(3) 0.3213(3) 0.8544(2)
O13 O -0.1786(3) 0.3388(3) 1.0637(2)
O14 O -0.2327(3) 0.1696(3) 1.1641(2)
O15 O 0.3142(3) 0.2945(3) 0.4337(2)
O16 O 0.5485(3) 0.1095(3) 0.3249(2)
O17 O 0.5560(3) 0.1470(3) 0.4595(2)
O18 O 0.3354(3) 0.1640(3) 0.6249(2)
O19 O 0.1562(3) 0.0896(3) 0.6822(2)
O20 O -0.3138(3) 0.3595(3) 0.5564(2)
O21 O -0.3105(2) 0.5485(2) 0.46187(18)
O22 O 1.4392(2) -0.4289(2) 0.88433(18)
H16 H 1.4028 -0.3566 0.8833
H17 H 1.5230 -0.4370 0.8675
O23 O 0.4702(3) 0.2972(3) 0.7066(2)
H18 H 0.4272 0.3649 0.7149
H19 H 0.4268 0.2410 0.7341
Gd1_2 Gd 0.24575(2) 0.481063(19) 0.899662(15)
Gd1A Gd -0.24575(2) 0.518937(19) 1.100338(15)
Gd1A_2 Gd 0.75425(2) -0.481063(19) 1.100338(15)
Gd2A Gd -0.35886(2) 0.022103(19) 1.214788(15)
Gd2A_2 Gd 0.64114(2) 0.022103(19) 0.214788(15)
Gd3_2 Gd -0.50737(2) 0.288120(18) 0.543994(15)
Gd3A Gd -0.49263(2) 0.711880(18) 0.456006(15)
Gd3A_2 Gd 1.50737(2) -0.288120(18) 0.456006(15)
O2A O 0.5491(3) 0.4003(3) 0.3850(2)
O5A O 1.1810(3) -0.6054(3) 1.0609(2)
O9A O 1.4393(3) -0.6756(3) 0.9532(2)
O12_2 O 1.2137(3) -0.6787(3) 0.8544(2)
O13A O 1.1786(3) -0.3388(3) 0.9363(2)
O14A O 0.2327(3) -0.1696(3) 0.8359(2)
O16A O 0.4515(3) -0.1095(3) 0.6751(2)
O20_2 O 0.6862(3) 0.3595(3) 0.5564(2)
O21A O 0.3105(2) 0.4515(2) 0.53813(18)
O24 O 0.7248(4) 0.3102(4) 0.7560(3)
H20 H 0.6370 0.3191 0.7530
H21 H 0.7627 0.3410 0.7006
O25 O 0.6959(4) 0.4842(4) 0.8370(3)
H22 H 0.7200 0.4270 0.8083
H23 H 0.7560 0.4634 0.8839
loop_
_geom_bond_atom_site_label_1
_geom_bond_atom_site_label_2
_geom_bond_site_symmetry_1
_geom_bond_site_symmetry_2
Gd1 O1 1_555 1_555
Gd2 O6 1_555 1_555
Gd3 O7 1_555 1_555
C1 C2 1_555 1_555
C2 C3 1_555 1_555
C3 H1 1_555 1_555
C4 C3 1_555 1_555
C5 C4 1_555 1_555
H2 C5 1_555 1_555
C6 C1 1_555 1_555
H3 C6 1_555 1_555
C7 H4 1_555 1_555
H5 C7 1_555 1_555
C8 C7 1_555 1_555
C9 C2 1_555 1_555
C10 C4 1_555 1_555
C11 C12 1_555 1_555
C12 C13 1_555 1_555
C13 H6 1_555 1_555
C14 C13 1_555 1_555
C15 C14 1_555 1_555
H7 C15 1_555 1_555
C16 C11 1_555 1_555
H8 C16 1_555 1_555
C17 H9 1_555 1_555
H10 C17 1_555 1_555
C18 C17 1_555 1_555
C19 C12 1_555 1_555
C20 C14 1_555 1_555
C21 C22 1_555 1_555
C22 C23 1_555 1_555
C23 H11 1_555 1_555
C24 C23 1_555 1_555
C25 C24 1_555 1_555
H12 C25 1_555 1_555
C26 C21 1_555 1_555
H13 C26 1_555 1_555
C27 H14 1_555 1_555
H15 C27 1_555 1_555
C28 C27 1_555 1_555
C29 C22 1_555 1_555
C30 C24 1_555 1_555
O1 C1 1_555 1_555
O2 C8 1_555 1_555
O3 Gd1 1_555 1_555
O4 Gd1 1_555 1_555
O5 C9 1_555 1_555
O6 C10 1_555 1_555
O7 C10 1_555 1_555
O8 Gd2 1_555 1_555
O9 C18 1_555 1_555
O10 Gd2 1_555 1_555
O11 Gd2 1_555 1_555
O12 C19 1_555 1_555
O13 C20 1_555 1_555
O14 C20 1_555 1_555
O15 Gd3 1_555 1_555
O16 C28 1_555 1_555
O17 Gd3 1_555 1_555
O18 Gd2 1_555 1_555
O19 Gd2 1_555 1_555
O20 C30 1_555 1_555
O21 C30 1_555 1_555
O22 Gd1 1_555 1_555
H16 O22 1_555 1_555
H17 O22 1_555 1_555
O23 Gd3 1_555 1_555
H18 O23 1_555 1_555
H19 O23 1_555 1_555
O24 H20 1_555 1_555
H21 O24 1_555 1_555
O25 H22 1_555 1_555
H23 O25 1_555 1_555
Gd1_2 O12 1_555 1_555
Gd1A O13 1_555 1_555
Gd1A_2 O5 1_555 1_555
Gd2A O14 1_555 1_555
Gd2A_2 O16 1_555 1_555
Gd3_2 O20 1_555 1_555
Gd3A O21 1_555 1_555
Gd3A_2 O2 1_555 1_555
O2A Gd3 1_555 1_555
O5A Gd1 1_555 1_555
O9A Gd1 1_555 1_555
O12_2 Gd1 1_555 1_555
O13A Gd1 1_555 1_555
O14A Gd2 1_555 1_555
O16A Gd2 1_555 1_555
O20_2 Gd3 1_555 1_555
O21A Gd3 1_555 1_555
Gd3 O18 1_555 1_555
C5 C6 1_555 1_555
C7 O1 1_555 1_555
C8 O3 1_555 1_555
C9 O4 1_555 1_555
C11 O8 1_555 1_555
C15 C16 1_555 1_555
C17 O8 1_555 1_555
C18 O10 1_555 1_555
C19 O11 1_555 1_555
C21 O15 1_555 1_555
C25 C26 1_555 1_555
C27 O15 1_555 1_555
C28 O17 1_555 1_555
C29 O18 1_555 1_555
C29 O19 1_555 1_555
O9 Gd1A_2 1_555 1_555

#END
