
#######################################################################
#
#                 Cambridge Crystallographic Data Centre
#                                CCDC 
#
#######################################################################
#
# If this CIF has been generated from an entry in the Cambridge 
# Structural Database, then it will include bibliographic, chemical, 
# crystal, experimental, refinement or atomic coordinate data resulting 
# from the CCDC's data processing and validation procedures.
#
#######################################################################

data_OFUWIV01
_symmetry_cell_setting           monoclinic
_symmetry_space_group_name_H-M   'C 2'
_symmetry_Int_Tables_number      5
_space_group_name_Hall           'C 2y'
loop_
_symmetry_equiv_pos_site_id
_symmetry_equiv_pos_as_xyz
1 x,y,z
2 -x,y,-z
3 1/2+x,1/2+y,z
4 1/2-x,1/2+y,-z
_cell_length_a                   7.585(3)
_cell_length_b                   5.9843(14)
_cell_length_c                   6.253(2)
_cell_angle_alpha                90
_cell_angle_beta                 108.51(3)
_cell_angle_gamma                90
_cell_volume                     269.146
loop_
_atom_site_label
_atom_site_type_symbol
_atom_site_fract_x
_atom_site_fract_y
_atom_site_fract_z
Zn1 Zn 1.0000 0.9956 0.0000
O1 O 1.0034(5) 0.8027(8) 0.2512(6)
C1 C 0.9030(6) 0.489(2) 0.4137(8)
H1 H 0.8845 0.3465 0.3321
H2 H 0.8111 0.4978 0.4897
C2 C 0.8688(8) 0.6747(10) 0.2424(10)
O2 O 0.7112(5) 0.6984(7) 0.0971(6)
C1A C 1.0970(6) 0.489(2) 0.5863(8)
H1A H 1.1155 0.3465 0.6679
H2A H 1.1889 0.4978 0.5103
C2A C 1.1312(8) 0.6747(10) 0.7576(10)
O1A O 0.9966(5) 0.8027(8) 0.7488(6)
O2A O 1.2888(5) 0.6984(7) 0.9029(6)
O1A_2 O 0.9966(5) 0.8027(8) -0.2512(6)
O2B O 1.2112(5) 1.1984(7) 0.0971(6)
O2C O 0.7888(5) 1.1984(7) -0.0971(6)
Zn1B Zn 0.5000 0.4956 0.0000
Zn1_2 Zn 1.0000 0.9956 1.0000
Zn1B_2 Zn 1.5000 0.4956 1.0000
loop_
_geom_bond_atom_site_label_1
_geom_bond_atom_site_label_2
_geom_bond_site_symmetry_1
_geom_bond_site_symmetry_2
Zn1 O1 1_555 1_555
O1 C2 1_555 1_555
C1 H1 1_555 1_555
H2 C1 1_555 1_555
C2 C1 1_555 1_555
O2 C2 1_555 1_555
C1A C1 1_555 1_555
H1A C1A 1_555 1_555
H2A C1A 1_555 1_555
C2A C1A 1_555 1_555
O1A C2A 1_555 1_555
O2A C2A 1_555 1_555
O1A_2 Zn1 1_555 1_555
O2B Zn1 1_555 1_555
O2C Zn1 1_555 1_555
Zn1B O2 1_555 1_555
Zn1_2 O1A 1_555 1_555
Zn1B_2 O2A 1_555 1_555

#END
