
#######################################################################
#
#                 Cambridge Crystallographic Data Centre
#                                CCDC 
#
#######################################################################
#
# If this CIF has been generated from an entry in the Cambridge 
# Structural Database, then it will include bibliographic, chemical, 
# crystal, experimental, refinement or atomic coordinate data resulting 
# from the CCDC's data processing and validation procedures.
#
#######################################################################

data_OFUWIV02
_symmetry_cell_setting           monoclinic
_symmetry_space_group_name_H-M   'C 2/c'
_symmetry_Int_Tables_number      15
_space_group_name_Hall           '-C 2yn'
loop_
_symmetry_equiv_pos_site_id
_symmetry_equiv_pos_as_xyz
1 x,y,z
2 x,-y,1/2+z
3 1/2+x,1/2+y,z
4 1/2+x,1/2-y,1/2+z
5 -x,-y,-z
6 -x,y,1/2-z
7 1/2-x,1/2-y,-z
8 1/2-x,1/2+y,1/2-z
_cell_length_a                   6.922(4)
_cell_length_b                   6.787(4)
_cell_length_c                   11.267(6)
_cell_angle_alpha                90
_cell_angle_beta                 99.285(9)
_cell_angle_gamma                90
_cell_volume                     522.384
loop_
_atom_site_label
_atom_site_type_symbol
_atom_site_fract_x
_atom_site_fract_y
_atom_site_fract_z
Zn1 Zn 0.5000 0.01706(10) 0.7500
C1 C 0.4013(11) 0.5056(7) 0.9582(7)
O1 O 0.4853(4) 0.1926(5) 0.8861(3)
O2 O 0.2134(4) 0.3291(5) 0.7933(3)
C2 C 0.3634(6) 0.3332(7) 0.8745(4)
H1 H 0.392(9) 0.634(12) 0.910(6)
H2 H 0.307(13) 0.520(7) 0.997(7)
C1D C 0.5987(11) 0.4944(7) 1.0418(7)
C2D C 0.6366(6) 0.6668(7) 1.1255(4)
O1D O 0.5147(4) 0.8074(5) 1.1139(3)
O2D O 0.7866(4) 0.6709(5) 1.2067(3)
H1D H 0.608(9) 0.366(12) 1.090(6)
H2D H 0.693(13) 0.480(7) 1.003(7)
O1E O 0.5147(4) 0.1926(5) 0.6139(3)
O2B O 0.7134(4) -0.1709(5) 0.7933(3)
O2G O 0.2866(4) -0.1709(5) 0.7067(3)
Zn1B Zn 0.0000 0.51706(10) 0.7500
Zn1A Zn 0.5000 0.98294(10) 1.2500
Zn1C Zn 1.0000 0.48294(10) 1.2500
loop_
_geom_bond_atom_site_label_1
_geom_bond_atom_site_label_2
_geom_bond_site_symmetry_1
_geom_bond_site_symmetry_2
Zn1 O1 1_555 1_555
C1 C2 1_555 1_555
O1 C2 1_555 1_555
O2 C2 1_555 1_555
H1 C1 1_555 1_555
H2 C1 1_555 1_555
C1D C1 1_555 1_555
C2D C1D 1_555 1_555
O1D C2D 1_555 1_555
O2D C2D 1_555 1_555
H1D C1D 1_555 1_555
H2D C1D 1_555 1_555
O1E Zn1 1_555 1_555
O2B Zn1 1_555 1_555
O2G Zn1 1_555 1_555
Zn1B O2 1_555 1_555
Zn1A O1D 1_555 1_555
Zn1C O2D 1_555 1_555

#END
