
#######################################################################
#
#                 Cambridge Crystallographic Data Centre
#                                CCDC 
#
#######################################################################
#
# If this CIF has been generated from an entry in the Cambridge 
# Structural Database, then it will include bibliographic, chemical, 
# crystal, experimental, refinement or atomic coordinate data resulting 
# from the CCDC's data processing and validation procedures.
#
#######################################################################

data_OFUWAP
_symmetry_cell_setting           triclinic
_symmetry_space_group_name_H-M   'P -1'
_symmetry_Int_Tables_number      2
_space_group_name_Hall           '-P 1'
loop_
_symmetry_equiv_pos_site_id
_symmetry_equiv_pos_as_xyz
1 x,y,z
2 -x,-y,-z
_cell_length_a                   10.1443(13)
_cell_length_b                   12.1037(16)
_cell_length_c                   14.857(2)
_cell_angle_alpha                68.192(2)
_cell_angle_beta                 83.565(2)
_cell_angle_gamma                74.557(2)
_cell_volume                     1632.32
loop_
_atom_site_label
_atom_site_type_symbol
_atom_site_fract_x
_atom_site_fract_y
_atom_site_fract_z
Dy1 Dy 1.24431(5) -0.52034(5) 0.89951(4)
Dy2 Dy 0.35744(5) -0.02265(5) 0.78439(4)
Dy3 Dy 0.48973(5) 0.28745(5) 0.54111(4)
C1 C 1.0217(11) -0.2448(10) 0.7342(8)
C2 C 0.9156(11) -0.2693(10) 0.8006(8)
C3 C 0.8003(11) -0.1783(10) 0.7962(8)
H1 H 0.7307 -0.1942 0.8420
C4 C 0.7848(12) -0.0625(10) 0.7249(8)
C5 C 0.8924(11) -0.0411(10) 0.6598(8)
H2 H 0.8839 0.0362 0.6119
C6 C 1.0105(12) -0.1292(10) 0.6634(8)
H3 H 1.0817 -0.1121 0.6194
C7 C 1.2446(11) -0.2965(10) 0.6675(8)
H4 H 1.2759 -0.2326 0.6770
H5 H 1.2078 -0.2650 0.6028
C8 C 1.3627(11) -0.4095(10) 0.6799(8)
C9 C 0.9188(12) -0.3910(10) 0.8801(8)
C10 C 0.6547(12) 0.0300(10) 0.7132(8)
C11 C 0.1997(12) 0.0168(10) 1.0061(8)
C12 C 0.1577(12) 0.1416(10) 0.9590(8)
C13 C 0.0394(12) 0.2096(10) 0.9891(8)
H6 H 0.0082 0.2934 0.9555
C14 C -0.0306(12) 0.1496(10) 1.0701(8)
C15 C 0.0159(12) 0.0260(10) 1.1192(8)
H7 H -0.0325 -0.0125 1.1736
C16 C 0.1315(12) -0.0423(11) 1.0902(8)
H8 H 0.1636 -0.1255 1.1254
C17 C 0.3894(12) -0.1562(11) 1.0374(9)
H9 H 0.3303 -0.2067 1.0782
H10 H 0.4357 -0.1325 1.0785
C18 C 0.4925(13) -0.2278(11) 0.9872(9)
C19 C 0.2290(12) 0.2114(10) 0.8693(8)
C20 C -0.1544(12) 0.2243(10) 1.1032(8)
C21 C 0.1709(11) 0.3293(10) 0.4507(8)
C22 C 0.1180(11) 0.2644(10) 0.5403(8)
C23 C -0.0214(11) 0.2996(10) 0.5543(8)
H11 H -0.0603 0.2559 0.6119
C24 C -0.1057(11) 0.3969(10) 0.4865(8)
C25 C -0.0480(11) 0.4589(10) 0.3991(8)
H12 H -0.1030 0.5251 0.3528
C26 C 0.0881(11) 0.4237(10) 0.3805(8)
H13 H 0.1251 0.4632 0.3207
C27 C 0.3505(11) 0.2317(10) 0.3663(8)
H14 H 0.3433 0.2893 0.3000
H15 H 0.2893 0.1790 0.3749
C28 C 0.4955(12) 0.1555(10) 0.3857(8)
C29 C 0.2085(11) 0.1679(10) 0.6191(8)
C30 C -0.2566(12) 0.4348(10) 0.5038(8)
O1 O 1.1420(8) -0.3335(7) 0.7386(5)
O2 O 1.4551(8) -0.4018(6) 0.6178(5)
O3 O 1.3618(8) -0.5037(7) 0.7510(5)
O4 O 1.0152(8) -0.4825(6) 0.8834(5)
O5 O 0.8202(8) -0.3965(7) 0.9394(5)
O6 O 0.5643(8) 0.0172(6) 0.7777(5)
O7 O 0.6383(8) 0.1201(7) 0.6335(5)
O8 O 0.3104(8) -0.0506(7) 0.9691(6)
O9 O 0.5686(8) -0.3223(7) 1.0432(6)
O10 O 0.4852(8) -0.1987(7) 0.8998(6)
O11 O 0.2963(8) 0.1558(7) 0.8169(5)
O12 O 0.2150(8) 0.3219(7) 0.8536(5)
O13 O -0.1728(8) 0.3371(7) 1.0693(5)
O14 O -0.2316(8) 0.1668(7) 1.1669(5)
O15 O 0.3127(7) 0.2966(7) 0.4317(5)
O16 O 0.5477(8) 0.1094(7) 0.3236(5)
O17 O 0.5544(8) 0.1484(7) 0.4574(5)
O18 O 0.3359(7) 0.1650(7) 0.6226(5)
O19 O 0.1595(7) 0.0878(7) 0.6840(5)
O20 O -0.3153(8) 0.3512(7) 0.5521(5)
O21 O -0.3161(4) 0.5464(4) 0.4676(3)
O22 O 1.4336(4) -0.4310(4) 0.8901(3)
H16 H 1.3972 -0.3587 0.8891
H17 H 1.5174 -0.4392 0.8733
O23 O 0.4677(4) 0.2969(4) 0.7006(3)
H18 H 0.4592 0.2325 0.7476
H19 H 0.4183 0.3607 0.7099
Dy1_2 Dy 0.24431(5) 0.47966(5) 0.89951(4)
Dy1A Dy -0.24431(5) 0.52034(5) 1.10049(4)
Dy1A_2 Dy 0.75569(5) -0.47966(5) 1.10049(4)
Dy2A Dy -0.35744(5) 0.02265(5) 1.21561(4)
Dy2A_2 Dy 0.64256(5) 0.02265(5) 0.21561(4)
Dy3_2 Dy -0.51027(5) 0.28745(5) 0.54111(4)
Dy3A Dy -0.48973(5) 0.71255(5) 0.45889(4)
Dy3A_2 Dy 1.51027(5) -0.28745(5) 0.45889(4)
O2A O 0.5449(8) 0.4018(6) 0.3822(5)
O5A O 1.1798(8) -0.6035(7) 1.0606(5)
O9A O 1.4314(8) -0.6777(7) 0.9568(6)
O12_2 O 1.2150(8) -0.6781(7) 0.8536(5)
O13A O 1.1728(8) -0.3371(7) 0.9307(5)
O14A O 0.2316(8) -0.1668(7) 0.8331(5)
O16A O 0.4523(8) -0.1094(7) 0.6764(5)
O20_2 O 0.6847(8) 0.3512(7) 0.5521(5)
O21A O 0.3161(4) 0.4536(4) 0.5324(3)
O24 O 0.6958(4) 0.4706(4) 0.8485(3)
H20 H 0.7500 0.4942 0.8730
H21 H 0.7116 0.3928 0.8720
O25 O 0.7176(15) 0.3336(15) 0.7478(10)
H22 H 0.6628 0.2899 0.7507
H23 H 0.7238 0.3816 0.6895
loop_
_geom_bond_atom_site_label_1
_geom_bond_atom_site_label_2
_geom_bond_site_symmetry_1
_geom_bond_site_symmetry_2
Dy1 O1 1_555 1_555
Dy2 O6 1_555 1_555
Dy3 O7 1_555 1_555
C1 C2 1_555 1_555
C2 C3 1_555 1_555
C3 H1 1_555 1_555
C4 C3 1_555 1_555
C5 C4 1_555 1_555
H2 C5 1_555 1_555
C6 C1 1_555 1_555
H3 C6 1_555 1_555
C7 H4 1_555 1_555
H5 C7 1_555 1_555
C8 C7 1_555 1_555
C9 C2 1_555 1_555
C10 C4 1_555 1_555
C11 C12 1_555 1_555
C12 C13 1_555 1_555
C13 H6 1_555 1_555
C14 C13 1_555 1_555
C15 C14 1_555 1_555
H7 C15 1_555 1_555
C16 C11 1_555 1_555
H8 C16 1_555 1_555
C17 H9 1_555 1_555
H10 C17 1_555 1_555
C18 C17 1_555 1_555
C19 C12 1_555 1_555
C20 C14 1_555 1_555
C21 C22 1_555 1_555
C22 C23 1_555 1_555
C23 H11 1_555 1_555
C24 C23 1_555 1_555
C25 C24 1_555 1_555
H12 C25 1_555 1_555
C26 C21 1_555 1_555
H13 C26 1_555 1_555
C27 H14 1_555 1_555
H15 C27 1_555 1_555
C28 C27 1_555 1_555
C29 C22 1_555 1_555
C30 C24 1_555 1_555
O1 C1 1_555 1_555
O2 C8 1_555 1_555
O3 Dy1 1_555 1_555
O4 Dy1 1_555 1_555
O5 C9 1_555 1_555
O6 C10 1_555 1_555
O7 C10 1_555 1_555
O8 Dy2 1_555 1_555
O9 C18 1_555 1_555
O10 Dy2 1_555 1_555
O11 Dy2 1_555 1_555
O12 C19 1_555 1_555
O13 C20 1_555 1_555
O14 C20 1_555 1_555
O15 Dy3 1_555 1_555
O16 C28 1_555 1_555
O17 Dy3 1_555 1_555
O18 Dy2 1_555 1_555
O19 Dy2 1_555 1_555
O20 C30 1_555 1_555
O21 C30 1_555 1_555
O22 Dy1 1_555 1_555
H16 O22 1_555 1_555
H17 O22 1_555 1_555
O23 Dy3 1_555 1_555
H18 O23 1_555 1_555
H19 O23 1_555 1_555
O24 H20 1_555 1_555
H21 O24 1_555 1_555
O25 H22 1_555 1_555
H23 O25 1_555 1_555
Dy1_2 O12 1_555 1_555
Dy1A O13 1_555 1_555
Dy1A_2 O5 1_555 1_555
Dy2A O14 1_555 1_555
Dy2A_2 O16 1_555 1_555
Dy3_2 O20 1_555 1_555
Dy3A O21 1_555 1_555
Dy3A_2 O2 1_555 1_555
O2A Dy3 1_555 1_555
O5A Dy1 1_555 1_555
O9A Dy1 1_555 1_555
O12_2 Dy1 1_555 1_555
O13A Dy1 1_555 1_555
O14A Dy2 1_555 1_555
O16A Dy2 1_555 1_555
O20_2 Dy3 1_555 1_555
O21A Dy3 1_555 1_555
Dy3 O18 1_555 1_555
C5 C6 1_555 1_555
C7 O1 1_555 1_555
C8 O3 1_555 1_555
C9 O4 1_555 1_555
C11 O8 1_555 1_555
C15 C16 1_555 1_555
C17 O8 1_555 1_555
C18 O10 1_555 1_555
C19 O11 1_555 1_555
C21 O15 1_555 1_555
C25 C26 1_555 1_555
C27 O15 1_555 1_555
C28 O17 1_555 1_555
C29 O18 1_555 1_555
C29 O19 1_555 1_555
O9 Dy1A_2 1_555 1_555

#END
