
#######################################################################
#
#                 Cambridge Crystallographic Data Centre
#                                CCDC 
#
#######################################################################
#
# If this CIF has been generated from an entry in the Cambridge 
# Structural Database, then it will include bibliographic, chemical, 
# crystal, experimental, refinement or atomic coordinate data resulting 
# from the CCDC's data processing and validation procedures.
#
#######################################################################

data_OFUWUJ
_symmetry_cell_setting           triclinic
_symmetry_space_group_name_H-M   'P -1'
_symmetry_Int_Tables_number      2
_space_group_name_Hall           '-P 1'
loop_
_symmetry_equiv_pos_site_id
_symmetry_equiv_pos_as_xyz
1 x,y,z
2 -x,-y,-z
_cell_length_a                   8.9671(4)
_cell_length_b                   9.1124(6)
_cell_length_c                   9.7614(5)
_cell_angle_alpha                74.932(5)
_cell_angle_beta                 68.329(5)
_cell_angle_gamma                69.519(5)
_cell_volume                     686.513
loop_
_atom_site_label
_atom_site_type_symbol
_atom_site_fract_x
_atom_site_fract_y
_atom_site_fract_z
Pr1 Pr 0.22420(3) 0.54587(3) 0.52575(3)
C1 C 0.4619(6) 0.1896(6) 0.2592(5)
C2 C 0.5836(6) 0.2729(6) 0.2017(6)
C3 C 0.6500(6) 0.3099(6) 0.0503(5)
H1 H 0.7324 0.3622 0.0134
C4 C 0.5970(6) 0.2709(6) -0.0497(6)
C5 C 0.4740(6) 0.1935(6) 0.0087(6)
H2 H 0.4354 0.1685 -0.0562
C6 C 0.4068(6) 0.1525(7) 0.1594(6)
H3 H 0.3246 0.1000 0.1952
C7 C 0.2755(6) 0.0848(6) 0.4755(6)
H4 H 0.2760 0.0293 0.5748
H5 H 0.2826 0.0095 0.4175
C8 C 0.1136(6) 0.2160(6) 0.4860(5)
C9 C 0.6357(6) 0.3268(6) 0.3054(5)
C10 C 0.6679(6) 0.3141(6) -0.2115(6)
O1 O 0.4168(4) 0.1446(4) 0.4080(4)
O2 O -0.0133(4) 0.1837(4) 0.4938(4)
O3 O 0.1117(4) 0.3533(4) 0.4898(4)
O4 O 0.5270(4) 0.4034(4) 0.4063(4)
O5 O 0.7882(4) 0.3019(5) 0.2845(4)
O6 O 0.7620(4) 0.4040(5) -0.2592(4)
O7 O 0.6373(4) 0.2612(4) -0.3028(4)
O8 O 0.3202(4) 0.3140(5) 0.7014(4)
H6 H 0.4276 0.2894 0.6798
H7 H 0.2794 0.2381 0.7609
O9 O -0.0113(4) 0.5175(5) 0.7698(4)
H8 H -0.0956 0.4910 0.7768
H9 H 0.0101 0.4869 0.8520
Pr1A Pr -0.22420(3) 0.45413(3) 0.47425(3)
Pr1A_2 Pr 0.77580(3) 0.45413(3) -0.52575(3)
Pr1A_3 Pr 0.77580(3) 0.45413(3) 0.47425(3)
O2A O 0.0133(4) 0.8163(4) 0.5062(4)
O3A O -0.1117(4) 0.6467(4) 0.5102(4)
O4A O 0.4730(4) 0.5966(4) 0.5937(4)
O5A O 0.2118(4) 0.6981(5) 0.7155(4)
O6A O 0.2380(4) 0.5960(5) 0.2592(4)
O7A O 0.3627(4) 0.7388(4) 0.3028(4)
O10 O 0.1271(6) 0.1352(6) 0.8938(6)
H10 H 0.0638 0.1141 0.8599
H11 H 0.1216 0.1046 0.9864
O11 O 0.0329(5) 0.0255(5) 0.2078(5)
H12 H -0.0484 0.1097 0.2252
H13 H 0.0549 -0.0411 0.2808
loop_
_geom_bond_atom_site_label_1
_geom_bond_atom_site_label_2
_geom_bond_site_symmetry_1
_geom_bond_site_symmetry_2
Pr1 O3 1_555 1_555
C1 C2 1_555 1_555
C2 C3 1_555 1_555
C3 H1 1_555 1_555
C4 C3 1_555 1_555
C5 C4 1_555 1_555
H2 C5 1_555 1_555
C6 C1 1_555 1_555
H3 C6 1_555 1_555
C7 H4 1_555 1_555
H5 C7 1_555 1_555
C8 C7 1_555 1_555
C9 C2 1_555 1_555
C10 C4 1_555 1_555
O1 C1 1_555 1_555
O2 C8 1_555 1_555
O3 C8 1_555 1_555
O4 Pr1 1_555 1_555
O5 C9 1_555 1_555
O6 C10 1_555 1_555
O7 C10 1_555 1_555
O8 Pr1 1_555 1_555
H6 O8 1_555 1_555
H7 O8 1_555 1_555
O9 Pr1 1_555 1_555
H8 O9 1_555 1_555
H9 O9 1_555 1_555
O10 H10 1_555 1_555
H11 O10 1_555 1_555
O11 H12 1_555 1_555
H13 O11 1_555 1_555
Pr1A O2 1_555 1_555
Pr1A_2 O6 1_555 1_555
Pr1A_3 O4 1_555 1_555
O2A Pr1 1_555 1_555
O3A Pr1 1_555 1_555
O4A Pr1 1_555 1_555
O5A Pr1 1_555 1_555
O6A Pr1 1_555 1_555
O7A Pr1 1_555 1_555
C5 C6 1_555 1_555
C7 O1 1_555 1_555
C9 O4 1_555 1_555
O3 Pr1A 1_555 1_555
O5 Pr1A_3 1_555 1_555
O7 Pr1A_2 1_555 1_555
Pr1A O3A 1_555 1_555
Pr1A_3 O4A 1_555 1_555

#END
