
#######################################################################
#
#                 Cambridge Crystallographic Data Centre
#                                CCDC 
#
#######################################################################
#
# If this CIF has been generated from an entry in the Cambridge 
# Structural Database, then it will include bibliographic, chemical, 
# crystal, experimental, refinement or atomic coordinate data resulting 
# from the CCDC's data processing and validation procedures.
#
#######################################################################

data_OFUXAQ
_symmetry_cell_setting           monoclinic
_symmetry_space_group_name_H-M   'P 21/c'
_symmetry_Int_Tables_number      14
_space_group_name_Hall           '-P 2ybc'
loop_
_symmetry_equiv_pos_site_id
_symmetry_equiv_pos_as_xyz
1 x,y,z
2 -x,1/2+y,1/2-z
3 -x,-y,-z
4 x,1/2-y,1/2+z
_cell_length_a                   9.7894(9)
_cell_length_b                   5.4213(5)
_cell_length_c                   14.9847(13)
_cell_angle_alpha                90
_cell_angle_beta                 104.713(5)
_cell_angle_gamma                90
_cell_volume                     769.181
loop_
_atom_site_label
_atom_site_type_symbol
_atom_site_fract_x
_atom_site_fract_y
_atom_site_fract_z
Co1 Co 0.95718(4) 0.11446(7) 0.32120(2)
Co2 Co 0.5000 0.0000 0.0000
O1 O 0.9224(2) 0.2566(4) 0.44551(13)
H1 H 0.8382(14) 0.252(6) 0.446(2)
H2 H 0.978(3) 0.231(5) 0.4960(11)
O2 O 0.8897(2) -0.2258(4) 0.36686(13)
H3 H 0.934(3) -0.333(4) 0.3463(19)
H4 H 0.8034(12) -0.241(5) 0.3442(18)
O3 O 0.94948(18) -0.0500(3) 0.19630(12)
C1 C 0.8164(3) -0.0255(5) 0.13368(17)
H5 H 0.820(3) 0.080(4) 0.0847(13)
C2 C 0.7083(3) 0.1085(5) 0.17563(17)
O4 O 0.75078(18) 0.1970(3) 0.25526(12)
O5 O 0.58340(18) 0.1376(3) 0.12770(12)
C3 C 0.7624(3) -0.2710(5) 0.08681(18)
O6 O 0.83742(19) -0.4599(3) 0.10866(12)
O7 O 0.64818(19) -0.2728(3) 0.02381(12)
O8 O 0.3790(2) -0.2700(4) 0.06193(13)
H6 H 0.381(3) -0.407(3) 0.0379(19)
H7 H 0.426(3) -0.301(5) 0.1151(10)
Co1B Co 0.04282(4) -0.11446(7) -0.32120(2)
O1B O 0.0776(2) -0.2566(4) -0.44551(13)
H1B H 0.1618(14) -0.252(6) -0.446(2)
H2B H 0.022(3) -0.231(5) -0.4960(11)
O2B O 0.1103(2) 0.2258(4) -0.36686(13)
H3B H 0.066(3) 0.333(4) -0.3463(19)
H4B H 0.1966(12) 0.241(5) -0.3442(18)
O3B O 0.05052(18) 0.0500(3) -0.19630(12)
C1B C 0.1836(3) 0.0255(5) -0.13368(17)
H5B H 0.180(3) -0.080(4) -0.0847(13)
C2B C 0.2917(3) -0.1085(5) -0.17563(17)
O4B O 0.24922(18) -0.1970(3) -0.25526(12)
O5B O 0.41660(18) -0.1376(3) -0.12770(12)
C3B C 0.2376(3) 0.2710(5) -0.08681(18)
O6B O 0.16258(19) 0.4599(3) -0.10866(12)
O7B O 0.35182(19) 0.2728(3) -0.02381(12)
O8B O 0.6210(2) 0.2700(4) -0.06193(13)
H6B H 0.619(3) 0.407(3) -0.0379(19)
H7B H 0.574(3) 0.301(5) -0.1151(10)
Co1A Co 1.04282(4) -0.38554(7) 0.17880(2)
Co1C Co -0.04282(4) 0.38554(7) -0.17880(2)
O3A O 1.05052(18) 0.4500(3) 0.30370(12)
O3C O -0.05052(18) -0.4500(3) -0.30370(12)
O6A O 1.16258(19) 0.0401(3) 0.39134(12)
O6C O -0.16258(19) -0.0401(3) -0.39134(12)
O9 O 0.6069(2) 0.6550(4) 0.25635(17)
H8 H 0.555(3) 0.646(6) 0.2914(19)
H9 H 0.630(3) 0.511(3) 0.249(2)
loop_
_geom_bond_atom_site_label_1
_geom_bond_atom_site_label_2
_geom_bond_site_symmetry_1
_geom_bond_site_symmetry_2
Co1 O1 1_555 1_555
Co2 O5 1_555 1_555
O1 H1 1_555 1_555
H2 O1 1_555 1_555
O2 Co1 1_555 1_555
H3 O2 1_555 1_555
H4 O2 1_555 1_555
O3 Co1 1_555 1_555
C1 O3 1_555 1_555
H5 C1 1_555 1_555
C2 C1 1_555 1_555
O4 Co1 1_555 1_555
O5 C2 1_555 1_555
C3 C1 1_555 1_555
O6 C3 1_555 1_555
O7 Co2 1_555 1_555
O8 Co2 1_555 1_555
H6 O8 1_555 1_555
H7 O8 1_555 1_555
O9 H8 1_555 1_555
H9 O9 1_555 1_555
Co1B O1B 1_555 1_555
O1B H1B 1_555 1_555
H2B O1B 1_555 1_555
O2B Co1B 1_555 1_555
H3B O2B 1_555 1_555
H4B O2B 1_555 1_555
O3B Co1B 1_555 1_555
C1B O3B 1_555 1_555
H5B C1B 1_555 1_555
C2B C1B 1_555 1_555
O4B Co1B 1_555 1_555
O5B Co2 1_555 1_555
C3B C1B 1_555 1_555
O6B C3B 1_555 1_555
O7B Co2 1_555 1_555
O8B Co2 1_555 1_555
H6B O8B 1_555 1_555
H7B O8B 1_555 1_555
Co1A O3 1_555 1_555
Co1C O3B 1_555 1_555
O3A Co1 1_555 1_555
O3C Co1B 1_555 1_555
O6A Co1 1_555 1_555
O6C Co1B 1_555 1_555
C2 O4 1_555 1_555
C3 O7 1_555 1_555
O6 Co1A 1_555 1_555
C2B O4B 1_555 1_555
C2B O5B 1_555 1_555
C3B O7B 1_555 1_555
O6B Co1C 1_555 1_555

#END
