
#######################################################################
#
#                 Cambridge Crystallographic Data Centre
#                                CCDC 
#
#######################################################################
#
# If this CIF has been generated from an entry in the Cambridge 
# Structural Database, then it will include bibliographic, chemical, 
# crystal, experimental, refinement or atomic coordinate data resulting 
# from the CCDC's data processing and validation procedures.
#
#######################################################################

data_OFUXUK
_symmetry_cell_setting           monoclinic
_symmetry_space_group_name_H-M   'C 2/c'
_symmetry_Int_Tables_number      15
_space_group_name_Hall           '-C 2yn'
loop_
_symmetry_equiv_pos_site_id
_symmetry_equiv_pos_as_xyz
1 x,y,z
2 -x,y,1/2-z
3 1/2+x,1/2+y,z
4 1/2-x,1/2+y,1/2-z
5 -x,-y,-z
6 x,-y,1/2+z
7 1/2-x,1/2-y,-z
8 1/2+x,1/2-y,1/2+z
_cell_length_a                   38.6764(4)
_cell_length_b                   22.1804(2)
_cell_length_c                   21.8948(4)
_cell_angle_alpha                90
_cell_angle_beta                 96.2840(10)
_cell_angle_gamma                90
_cell_volume                     18669.8
loop_
_atom_site_label
_atom_site_type_symbol
_atom_site_fract_x
_atom_site_fract_y
_atom_site_fract_z
Cu1 Cu 0.25561(2) 0.28578(4) 0.25382(4)
O1 O 0.26338(15) 0.5001(3) 0.0506(3)
O2 O 0.21994(13) 0.4351(2) 0.0646(2)
O3 O 0.18351(17) 0.3625(3) -0.1013(3)
O4 O 0.22266(13) 0.4305(2) -0.0605(2)
O5 O 0.15564(16) 0.2974(3) 0.4105(3)
O6 O 0.13979(13) 0.2027(2) 0.4309(2)
O7 O 0.1428(2) 0.1005(3) 0.5179(3)
O8 O 0.14883(15) 0.1944(2) 0.5573(3)
O9 O 0.19827(14) 0.3373(2) 0.2301(3)
N1 N 0.27869(16) 0.3417(3) 0.1974(3)
N2 N 0.25942(16) 0.2732(3) -0.1839(3)
N3 N 0.23260(16) 0.2309(3) 0.3115(3)
N4 N 0.23093(16) 0.1543(3) 0.6769(3)
N5 N 0.31040(16) 0.2269(3) 0.2759(3)
C1 C 0.2595(2) 0.3748(3) 0.1544(3)
H1 H 0.2352 0.3680 0.1476
C2 C 0.2742(2) 0.4179(3) 0.1203(4)
C3 C 0.3098(2) 0.4266(5) 0.1277(5)
H2 H 0.3205 0.4559 0.1044
C4 C 0.3294(2) 0.3904(5) 0.1709(5)
H3 H 0.3541 0.3935 0.1762
C5 C 0.3130(2) 0.3509(4) 0.2052(4)
H4 H 0.3265 0.3287 0.2362
C6 C 0.2527(2) 0.4565(3) 0.0750(3)
C7 C 0.1959(2) 0.4681(3) 0.0263(3)
C8 C 0.1717(2) 0.5005(3) 0.0518(4)
H5 H 0.1727 0.5038 0.0952
C9 C 0.1447(2) 0.5295(3) 0.0135(4)
C10 C 0.1175(2) 0.5612(4) 0.0378(4)
H6 H 0.1171 0.5642 0.0810
C11 C 0.0924(3) 0.5868(4) 0.0000(5)
H7 H 0.0743 0.6076 0.0171
C12 C 0.0918(2) 0.5844(4) -0.0632(5)
H8 H 0.0735 0.6032 -0.0888
C13 C 0.1177(2) 0.5547(4) -0.0885(4)
H9 H 0.1174 0.5534 -0.1320
C14 C 0.1444(2) 0.5264(3) -0.0520(4)
C15 C 0.1714(2) 0.4937(3) -0.0761(4)
H10 H 0.1724 0.4923 -0.1193
C16 C 0.1961(2) 0.4641(3) -0.0377(4)
C17 C 0.2125(2) 0.3802(3) -0.0928(3)
C18 C 0.2927(2) 0.2913(3) -0.1724(3)
H11 H 0.3100 0.2721 -0.1931
C19 C 0.3025(2) 0.3375(4) -0.1311(4)
H12 H 0.3263 0.3478 -0.1217
C20 C 0.2770(2) 0.3683(3) -0.1039(4)
H13 H 0.2829 0.4013 -0.0771
C21 C 0.2429(2) 0.3501(3) -0.1165(3)
C22 C 0.2351(2) 0.3021(3) -0.1560(3)
H14 H 0.2116 0.2891 -0.1637
C23 C 0.20761(19) 0.2518(3) 0.3424(3)
H15 H 0.2027 0.2937 0.3407
C24 C 0.18837(19) 0.2151(3) 0.3769(3)
C25 C 0.1967(2) 0.1544(3) 0.3817(4)
H16 H 0.1842 0.1281 0.4056
C26 C 0.2230(2) 0.1332(4) 0.3519(4)
H17 H 0.2293 0.0919 0.3549
C27 C 0.2406(2) 0.1718(3) 0.3170(4)
H18 H 0.2589 0.1563 0.2962
C28 C 0.1602(2) 0.2446(3) 0.4068(3)
C29 C 0.1130(2) 0.2239(3) 0.4634(3)
C30 C 0.0839(2) 0.2499(3) 0.4355(4)
H19 H 0.0813 0.2549 0.3921
C31 C 0.0574(2) 0.2695(4) 0.4700(4)
C32 C 0.0269(2) 0.2985(4) 0.4433(5)
H20 H 0.0233 0.3045 0.4001
C33 C 0.0023(2) 0.3183(5) 0.4802(6)
H21 H -0.0178 0.3389 0.4621
C34 C 0.0064(3) 0.3090(5) 0.5405(6)
H22 H -0.0114 0.3222 0.5641
C35 C 0.0346(3) 0.2814(4) 0.5698(5)
H23 H 0.0366 0.2756 0.6130
C36 C 0.0617(2) 0.2610(4) 0.5346(4)
C37 C 0.0922(2) 0.2332(4) 0.5622(4)
H24 H 0.0951 0.2267 0.6053
C38 C 0.1173(2) 0.2156(3) 0.5275(4)
C39 C 0.1586(2) 0.1366(4) 0.5504(4)
C40 C 0.2034(2) 0.1657(3) 0.6365(3)
H25 H 0.1919 0.2035 0.6383
C41 C 0.1907(2) 0.1244(4) 0.5917(4)
C42 C 0.2079(3) 0.0688(4) 0.5880(5)
H26 H 0.1998 0.0399 0.5578
C43 C 0.2366(3) 0.0573(4) 0.6293(5)
H27 H 0.2489 0.0204 0.6276
C44 C 0.2473(2) 0.1004(4) 0.6734(4)
H28 H 0.2669 0.0918 0.7022
C45 C 0.3334(2) 0.1961(4) 0.2832(5)
C46 C 0.3612(3) 0.1588(6) 0.2842(13)
H29 H 0.3630 0.1344 0.3218
H30 H 0.3825 0.1827 0.2833
H31 H 0.3583 0.1321 0.2483
C47 C 0.1526(3) 0.3647(5) 0.1564(5)
H32 H 0.1682 0.3496 0.1276
H33 H 0.1473 0.4072 0.1477
H34 H 0.1310 0.3412 0.1518
C48 C 0.1692(2) 0.3588(3) 0.2186(4)
C49 C 0.1492(3) 0.3795(5) 0.2701(5)
H35 H 0.1632 0.3730 0.3096
H36 H 0.1275 0.3565 0.2691
H37 H 0.1438 0.4225 0.2650
Cu1F Cu 0.24439(2) 0.21422(4) -0.25382(4)
Cu1F_2 Cu 0.24439(2) 0.21422(4) 0.74618(4)
N2F N 0.24058(16) 0.2268(3) 0.1839(3)
N4F N 0.26907(16) 0.3457(3) 0.3231(3)
Cu2 Cu 0.0000 -0.01596(6) 0.7500
O10 O 0.12514(16) 0.0827(3) 0.9530(3)
O11 O 0.07467(14) 0.1242(2) 0.9123(2)
O12 O 0.02981(16) 0.1679(3) 1.0679(3)
O13 O 0.08091(15) 0.1373(2) 1.0375(3)
O14 O 0.0000 -0.1322(4) 0.7500
N6 N 0.04415(17) -0.0218(3) 0.8111(3)
N7 N 0.03117(18) 0.0183(3) 1.1823(3)
N8 N 0.0000 0.0908(4) 0.7500
C50 C 0.0651(2) -0.0713(4) 0.8149(4)
H38 H 0.0585 -0.1044 0.7886
C51 C 0.0945(3) -0.0762(4) 0.8536(5)
H39 H 0.1077 -0.1123 0.8548
C52 C 0.1055(3) -0.0282(4) 0.8920(5)
H40 H 0.1257 -0.0313 0.9207
C53 C 0.0856(2) 0.0251(3) 0.8865(4)
C54 C 0.0550(2) 0.0246(3) 0.8470(3)
H41 H 0.0408 0.0596 0.8455
C55 C 0.0982(2) 0.0785(4) 0.9220(4)
C56 C 0.0817(2) 0.1814(3) 0.9383(4)
C57 C 0.0846(2) 0.2279(4) 0.9001(4)
H42 H 0.0844 0.2211 0.8572
C58 C 0.0879(2) 0.2873(4) 0.9237(4)
C59 C 0.0897(3) 0.3387(4) 0.8856(5)
H43 H 0.0901 0.3328 0.8427
C60 C 0.0908(4) 0.3949(5) 0.9075(6)
H44 H 0.0915 0.4284 0.8807
C61 C 0.0907(3) 0.4036(5) 0.9710(6)
H45 H 0.0909 0.4434 0.9870
C62 C 0.0904(2) 0.3561(4) 1.0097(5)
H46 H 0.0915 0.3633 1.0527
C63 C 0.0883(2) 0.2955(4) 0.9878(4)
C64 C 0.0867(2) 0.2460(4) 1.0265(4)
H47 H 0.0880 0.2513 1.0697
C65 C 0.0830(2) 0.1892(4) 1.0013(4)
C66 C 0.0531(2) 0.1318(4) 1.0684(3)
C67 C 0.0303(2) 0.0673(3) 1.1453(3)
H48 H 0.0129 0.0972 1.1480
C68 C 0.0545(2) 0.0742(3) 1.1036(4)
C69 C 0.0798(2) 0.0306(4) 1.0993(4)
H49 H 0.0968 0.0353 1.0716
C70 C 0.0795(3) -0.0187(4) 1.1354(4)
H50 H 0.0962 -0.0497 1.1325
C71 C 0.0548(2) -0.0243(3) 1.1767(4)
H51 H 0.0549 -0.0594 1.2016
C72 C 0.0000 0.1427(7) 0.7500
C73 C 0.0000 0.2031(10) 0.7500
C74 C 0.0000 -0.1863(6) 0.7500
C75 C -0.0081(4) -0.2239(5) 0.6924(5)
H52 H -0.0066 -0.2668 0.7031
H53 H 0.0086 -0.2145 0.6632
H54 H -0.0317 -0.2147 0.6736
C75A C 0.0081(4) -0.2239(5) 0.8076(5)
H52A H 0.0066 -0.2668 0.7969
H53A H -0.0086 -0.2145 0.8368
H54A H 0.0317 -0.2147 0.8264
O10A O -0.12514(16) 0.0827(3) 0.5470(3)
O11A O -0.07467(14) 0.1242(2) 0.5877(2)
O12A O -0.02981(16) 0.1679(3) 0.4321(3)
O13A O -0.08091(15) 0.1373(2) 0.4625(3)
N6A N -0.04415(17) -0.0218(3) 0.6889(3)
N7A N -0.03117(18) 0.0183(3) 0.3177(3)
C50A C -0.0651(2) -0.0713(4) 0.6851(4)
H38A H -0.0585 -0.1044 0.7114
C51A C -0.0945(3) -0.0762(4) 0.6464(5)
H39A H -0.1077 -0.1123 0.6452
C52A C -0.1055(3) -0.0282(4) 0.6080(5)
H40A H -0.1257 -0.0313 0.5793
C53A C -0.0856(2) 0.0251(3) 0.6135(4)
C54A C -0.0550(2) 0.0246(3) 0.6530(3)
H41A H -0.0408 0.0596 0.6545
C55A C -0.0982(2) 0.0785(4) 0.5780(4)
C56A C -0.0817(2) 0.1814(3) 0.5617(4)
C57A C -0.0846(2) 0.2279(4) 0.5999(4)
H42A H -0.0844 0.2211 0.6428
C58A C -0.0879(2) 0.2873(4) 0.5763(4)
C59A C -0.0897(3) 0.3387(4) 0.6144(5)
H43A H -0.0901 0.3328 0.6573
C60A C -0.0908(4) 0.3949(5) 0.5925(6)
H44A H -0.0915 0.4284 0.6193
C61A C -0.0907(3) 0.4036(5) 0.5290(6)
H45A H -0.0909 0.4434 0.5130
C62A C -0.0904(2) 0.3561(4) 0.4903(5)
H46A H -0.0915 0.3633 0.4473
C63A C -0.0883(2) 0.2955(4) 0.5122(4)
C64A C -0.0867(2) 0.2460(4) 0.4735(4)
H47A H -0.0880 0.2513 0.4303
C65A C -0.0830(2) 0.1892(4) 0.4987(4)
C66A C -0.0531(2) 0.1318(4) 0.4316(3)
C67A C -0.0303(2) 0.0673(3) 0.3547(3)
H48A H -0.0129 0.0972 0.3520
C68A C -0.0545(2) 0.0742(3) 0.3964(4)
C69A C -0.0798(2) 0.0306(4) 0.4007(4)
H49A H -0.0968 0.0353 0.4284
C70A C -0.0795(3) -0.0187(4) 0.3646(4)
H50A H -0.0962 -0.0497 0.3675
C71A C -0.0548(2) -0.0243(3) 0.3233(4)
H51A H -0.0549 -0.0594 0.2984
Cu2D Cu 0.0000 0.01596(6) 0.2500
Cu2D_2 Cu 0.0000 0.01596(6) 1.2500
N7D N -0.03117(18) -0.0183(3) 0.8177(3)
N7E N 0.03117(18) -0.0183(3) 0.6823(3)
F1 F 0.08975(16) 0.1313(3) 0.7706(3)
F2 F 0.06562(18) 0.1689(4) 0.6822(3)
F3 F 0.12118(16) 0.1531(4) 0.6926(3)
F4 F 0.1029(4) 0.2227(4) 0.7506(6)
B1 B 0.0953(3) 0.1705(7) 0.7261(6)
F5 F 0.2953(2) 0.9224(3) 0.7960(6)
F6 F 0.2813(4) 1.0167(4) 0.7941(4)
F7 F 0.2934(3) 0.9728(6) 0.7111(3)
F8 F 0.3343(2) 0.9896(5) 0.7846(7)
B2 B 0.3010(2) 0.9754(3) 0.7713(3)
F9 F 0.0807(3) 0.8236(4) 0.7085(5)
F10 F 0.1074(5) 0.7790(6) 0.7876(5)
F11 F 0.0821(3) 0.7261(4) 0.7125(8)
F12 F 0.1289(3) 0.7757(6) 0.7008(9)
B3 B 0.0998(2) 0.7763(4) 0.7272(5)
Cl1 Cl -0.05134(16) 0.0946(3) 1.0209(3)
Cl2 Cl 0.00319(12) 0.0661(3) 0.9517(2)
C76 C -0.0246(4) 0.1127(10) 0.9655(9)
H55 H -0.0395 0.1209 0.9267
H56 H -0.0125 0.1508 0.9780
Cl3 Cl 0.28710(19) 0.20813(18) -0.0343(2)
Cl4 Cl 0.3106(3) 0.2980(3) 0.0452(3)
C77 C 0.3232(3) 0.2388(13) 0.0012(13)
H57 H 0.3383 0.2537 -0.0294
H58 H 0.3364 0.2086 0.0276
Cl5 Cl 0.1897(3) 0.3278(5) 0.5650(5)
Cl6 Cl 0.2305(5) 0.3441(8) 0.4886(6)
C78 C 0.2208(6) 0.2842(7) 0.5345(10)
H59 H 0.2404 0.2722 0.5651
H60 H 0.2111 0.2488 0.5111
O15 O 0.1614(3) 0.9753(6) 0.6401(9)
H61 H 0.1595 0.9708 0.6018
H62 H 0.1453 0.9975 0.6499
O16 O 0.1471(5) 0.9223(12) 0.7372(10)
H63 H 0.1391 0.9008 0.7074
H64 H 0.1352 0.9173 0.7666
O17 O 0.2002(6) 0.9857(10) 0.7440(12)
H65 H 0.2204 0.9735 0.7398
H66 H 0.1885 0.9565 0.7627
O18 O 0.0239(6) 0.6327(11) 1.2253(12)
H67 H 0.0411 0.6438 1.2309
H68 H 0.0154 0.6180 1.1911
O19 O 0.0461(5) 0.4035(13) 1.2669(18)
H69 H 0.0274 0.3928 1.2799
H70 H 0.0446 0.3960 1.2207
O20 O 0.0000 0.5000 1.0000
H71 H -0.0137 0.4795 0.9757
H71D H 0.0137 0.5205 1.0243
O21 O 0.0829(11) 0.5163(18) 1.230(2)
H72 H 0.0666 0.5366 1.2421
H73 H 0.0799 0.5130 1.1918
O22 O 0.0586(8) 0.4466(14) 1.1459(16)
H74 H 0.0414 0.4638 1.1587
H75 H 0.0549 0.4435 1.1017
O23 O 0.0602(11) 0.592(2) 1.170(2)
H76 H 0.0460 0.5694 1.1848
H77 H 0.0581 0.5891 1.1317
H78? H 0.0073 0.5008 0.9618
H79? H -0.0210 0.2178 0.7255
H80? H 0.0206 0.2178 0.7322
H81? H 0.0004 0.2178 0.7923
loop_
_geom_bond_atom_site_label_1
_geom_bond_atom_site_label_2
_geom_bond_site_symmetry_1
_geom_bond_site_symmetry_2
Cu1 O9 1_555 1_555
O1 C6 1_555 1_555
O2 C6 1_555 1_555
O3 C17 1_555 1_555
O4 C16 1_555 1_555
O5 C28 1_555 1_555
O6 C28 1_555 1_555
O7 C39 1_555 1_555
O8 C38 1_555 1_555
O9 C48 1_555 1_555
N1 Cu1 1_555 1_555
N2 C18 1_555 1_555
N3 Cu1 1_555 1_555
N4 C40 1_555 1_555
N5 Cu1 1_555 1_555
C1 N1 1_555 1_555
H1 C1 1_555 1_555
C2 C1 1_555 1_555
C3 C2 1_555 1_555
H2 C3 1_555 1_555
C4 C3 1_555 1_555
H3 C4 1_555 1_555
C5 N1 1_555 1_555
H4 C5 1_555 1_555
C6 C2 1_555 1_555
C7 O2 1_555 1_555
C8 C7 1_555 1_555
H5 C8 1_555 1_555
C9 C8 1_555 1_555
C10 C9 1_555 1_555
H6 C10 1_555 1_555
C11 C10 1_555 1_555
H7 C11 1_555 1_555
C12 C11 1_555 1_555
H8 C12 1_555 1_555
C13 C12 1_555 1_555
H9 C13 1_555 1_555
C14 C9 1_555 1_555
C15 C14 1_555 1_555
H10 C15 1_555 1_555
C16 C7 1_555 1_555
C17 O4 1_555 1_555
C18 H11 1_555 1_555
C19 C18 1_555 1_555
H12 C19 1_555 1_555
C20 C19 1_555 1_555
H13 C20 1_555 1_555
C21 C17 1_555 1_555
C22 N2 1_555 1_555
H14 C22 1_555 1_555
C23 N3 1_555 1_555
H15 C23 1_555 1_555
C24 C23 1_555 1_555
C25 C24 1_555 1_555
H16 C25 1_555 1_555
C26 C25 1_555 1_555
H17 C26 1_555 1_555
C27 N3 1_555 1_555
H18 C27 1_555 1_555
C28 C24 1_555 1_555
C29 O6 1_555 1_555
C30 C29 1_555 1_555
H19 C30 1_555 1_555
C31 C30 1_555 1_555
C32 C31 1_555 1_555
H20 C32 1_555 1_555
C33 C32 1_555 1_555
H21 C33 1_555 1_555
C34 C33 1_555 1_555
H22 C34 1_555 1_555
C35 C34 1_555 1_555
H23 C35 1_555 1_555
C36 C31 1_555 1_555
C37 C36 1_555 1_555
H24 C37 1_555 1_555
C38 C29 1_555 1_555
C39 O8 1_555 1_555
C40 H25 1_555 1_555
C41 C39 1_555 1_555
C42 C41 1_555 1_555
H26 C42 1_555 1_555
C43 C42 1_555 1_555
H27 C43 1_555 1_555
C44 N4 1_555 1_555
H28 C44 1_555 1_555
C45 N5 1_555 1_555
C46 C45 1_555 1_555
H29 C46 1_555 1_555
H30 C46 1_555 1_555
H31 C46 1_555 1_555
C47 H32 1_555 1_555
H33 C47 1_555 1_555
H34 C47 1_555 1_555
C48 C47 1_555 1_555
C49 C48 1_555 1_555
H35 C49 1_555 1_555
H36 C49 1_555 1_555
H37 C49 1_555 1_555
Cu2 O14 1_555 1_555
O10 C55 1_555 1_555
O11 C55 1_555 1_555
O12 C66 1_555 1_555
O13 C65 1_555 1_555
O14 C74 1_555 1_555
N6 Cu2 1_555 1_555
N7 C67 1_555 1_555
N8 Cu2 1_555 1_555
C50 N6 1_555 1_555
H38 C50 1_555 1_555
C51 C50 1_555 1_555
H39 C51 1_555 1_555
C52 C51 1_555 1_555
H40 C52 1_555 1_555
C53 C52 1_555 1_555
C54 N6 1_555 1_555
H41 C54 1_555 1_555
C55 C53 1_555 1_555
C56 O11 1_555 1_555
C57 C56 1_555 1_555
H42 C57 1_555 1_555
C58 C57 1_555 1_555
C59 C58 1_555 1_555
H43 C59 1_555 1_555
C60 C59 1_555 1_555
H44 C60 1_555 1_555
C61 C60 1_555 1_555
H45 C61 1_555 1_555
C62 C61 1_555 1_555
H46 C62 1_555 1_555
C63 C58 1_555 1_555
C64 C63 1_555 1_555
H47 C64 1_555 1_555
C65 C56 1_555 1_555
C66 O13 1_555 1_555
C67 H48 1_555 1_555
C68 C66 1_555 1_555
C69 C68 1_555 1_555
H49 C69 1_555 1_555
C70 C69 1_555 1_555
H50 C70 1_555 1_555
C71 N7 1_555 1_555
H51 C71 1_555 1_555
C72 N8 1_555 1_555
C73 C72 1_555 1_555
C74 C75 1_555 1_555
C75 H52 1_555 1_555
H53 C75 1_555 1_555
H54 C75 1_555 1_555
F1 B1 1_555 1_555
F2 B1 1_555 1_555
F3 B1 1_555 1_555
F4 B1 1_555 1_555
F5 B2 1_555 1_555
F6 B2 1_555 1_555
F7 B2 1_555 1_555
F8 B2 1_555 1_555
F9 B3 1_555 1_555
F10 B3 1_555 1_555
F11 B3 1_555 1_555
F12 B3 1_555 1_555
Cl1 C76 1_555 1_555
Cl2 C76 1_555 1_555
C76 H55 1_555 1_555
H56 C76 1_555 1_555
Cl3 C77 1_555 1_555
Cl4 C77 1_555 1_555
C77 H57 1_555 1_555
H58 C77 1_555 1_555
Cl5 C78 1_555 1_555
Cl6 C78 1_555 1_555
C78 H59 1_555 1_555
H60 C78 1_555 1_555
O15 H61 1_555 1_555
H62 O15 1_555 1_555
O16 H63 1_555 1_555
H64 O16 1_555 1_555
O17 H65 1_555 1_555
H66 O17 1_555 1_555
O18 H67 1_555 1_555
H68 O18 1_555 1_555
O19 H69 1_555 1_555
H70 O19 1_555 1_555
O20 H71 1_555 1_555
O21 H72 1_555 1_555
H73 O21 1_555 1_555
O22 H74 1_555 1_555
H75 O22 1_555 1_555
O23 H76 1_555 1_555
H77 O23 1_555 1_555
Cu1F N2 1_555 1_555
Cu1F_2 N4 1_555 1_555
N2F Cu1 1_555 1_555
N4F Cu1 1_555 1_555
C75A C74 1_555 1_555
H52A C75A 1_555 1_555
H53A C75A 1_555 1_555
H54A C75A 1_555 1_555
O10A C55A 1_555 1_555
O11A C55A 1_555 1_555
O12A C66A 1_555 1_555
O13A C65A 1_555 1_555
N6A Cu2 1_555 1_555
N7A C67A 1_555 1_555
C50A N6A 1_555 1_555
H38A C50A 1_555 1_555
C51A C50A 1_555 1_555
H39A C51A 1_555 1_555
C52A C51A 1_555 1_555
H40A C52A 1_555 1_555
C53A C52A 1_555 1_555
C54A N6A 1_555 1_555
H41A C54A 1_555 1_555
C55A C53A 1_555 1_555
C56A O11A 1_555 1_555
C57A C56A 1_555 1_555
H42A C57A 1_555 1_555
C58A C57A 1_555 1_555
C59A C58A 1_555 1_555
H43A C59A 1_555 1_555
C60A C59A 1_555 1_555
H44A C60A 1_555 1_555
C61A C60A 1_555 1_555
H45A C61A 1_555 1_555
C62A C61A 1_555 1_555
H46A C62A 1_555 1_555
C63A C58A 1_555 1_555
C64A C63A 1_555 1_555
H47A C64A 1_555 1_555
C65A C56A 1_555 1_555
C66A O13A 1_555 1_555
C67A H48A 1_555 1_555
C68A C66A 1_555 1_555
C69A C68A 1_555 1_555
H49A C69A 1_555 1_555
C70A C69A 1_555 1_555
H50A C70A 1_555 1_555
C71A N7A 1_555 1_555
H51A C71A 1_555 1_555
Cu2D N7A 1_555 1_555
Cu2D_2 N7 1_555 1_555
N7D Cu2 1_555 1_555
N7E Cu2 1_555 1_555
H71D O20 1_555 1_555
C4 C5 1_555 1_555
C13 C14 1_555 1_555
C15 C16 1_555 1_555
C20 C21 1_555 1_555
C21 C22 1_555 1_555
C26 C27 1_555 1_555
C35 C36 1_555 1_555
C37 C38 1_555 1_555
C40 C41 1_555 1_555
C43 C44 1_555 1_555
C53 C54 1_555 1_555
C62 C63 1_555 1_555
C64 C65 1_555 1_555
C67 C68 1_555 1_555
C70 C71 1_555 1_555
C53A C54A 1_555 1_555
C62A C63A 1_555 1_555
C64A C65A 1_555 1_555
C67A C68A 1_555 1_555
C70A C71A 1_555 1_555

#END
