
#######################################################################
#
#                 Cambridge Crystallographic Data Centre
#                                CCDC 
#
#######################################################################
#
# If this CIF has been generated from an entry in the Cambridge 
# Structural Database, then it will include bibliographic, chemical, 
# crystal, experimental, refinement or atomic coordinate data resulting 
# from the CCDC's data processing and validation procedures.
#
#######################################################################

data_OFUYUK
_symmetry_cell_setting           orthorhombic
_symmetry_space_group_name_H-M   'F d d 2'
_symmetry_Int_Tables_number      43
_space_group_name_Hall           'F 2 -2d'
loop_
_symmetry_equiv_pos_site_id
_symmetry_equiv_pos_as_xyz
1 x,y,z
2 -x,-y,z
3 1/4+x,1/4-y,1/4+z
4 1/4-x,1/4+y,1/4+z
5 x,1/2+y,1/2+z
6 -x,1/2-y,1/2+z
7 1/4+x,3/4-y,3/4+z
8 1/4-x,3/4+y,3/4+z
9 1/2+x,y,1/2+z
10 1/2-x,-y,1/2+z
11 3/4+x,1/4-y,3/4+z
12 3/4-x,1/4+y,3/4+z
13 1/2+x,1/2+y,z
14 1/2-x,1/2-y,z
15 3/4+x,3/4-y,1/4+z
16 3/4-x,3/4+y,1/4+z
_cell_length_a                   21.9944(13)
_cell_length_b                   33.3369(19)
_cell_length_c                   10.3969(5)
_cell_angle_alpha                90
_cell_angle_beta                 90
_cell_angle_gamma                90
_cell_volume                     7623.27
loop_
_atom_site_label
_atom_site_type_symbol
_atom_site_fract_x
_atom_site_fract_y
_atom_site_fract_z
H1 H 0.505(2) 0.0189(16) 0.924(5)
O1 O 0.5000 0.0000 0.8687(9)
H1A H 0.495(2) -0.0189(16) 0.924(5)
H2 H 0.2782(5) 0.175(2) 0.907(4)
O2 O 0.3067(3) 0.1662(2) 0.9561(7)
H3 H 0.3375(12) 0.1595(12) 0.910(3)
O3 O 0.4775(4) 0.0738(3) -0.0066(7)
H4 H 0.475(4) 0.060(2) 0.063(4)
O4 O 0.26953(18) 0.01380(13) 0.2009(7)
Cu1 Cu 0.30512(3) -0.024567(17) 0.4897(6)
O5 O 0.33916(19) -0.02829(11) 0.2773(7)
C1 C 0.4262(3) 0.07404(17) 0.4679(9)
H5 H 0.4589 0.0805 0.4150
C2 C 0.4872(3) 0.13994(18) 0.6773(9)
H6 H 0.5034 0.1667 0.6901
H7 H 0.4711 0.1306 0.7588
C3 C 0.4066(3) 0.10144(17) 0.5585(8)
C4 C 0.3572(3) 0.08918(16) 0.6355(9)
H8 H 0.3426 0.1060 0.6998
C5 C 0.4352(3) 0.14132(17) 0.5752(10)
H9 H 0.4045 0.1605 0.6021
H10 H 0.4516 0.1503 0.4935
C6 C 0.3310(3) 0.05261(17) 0.6156(8)
H11 H 0.2981 0.0454 0.6669
C7 C 0.3987(3) 0.03789(18) 0.4549(9)
H12 H 0.4139 0.0200 0.3943
N1 N 0.3499(2) 0.02674(13) 0.5266(8)
N2 N 0.6270(2) 0.05949(14) 0.5503(7)
C8 C 0.6208(3) 0.09590(15) 0.4964(8)
H13 H 0.6474 0.1034 0.4311
C9 C 0.5768(3) 0.12236(17) 0.5343(8)
H14 H 0.5734 0.1471 0.4939
C10 C 0.5434(3) 0.07474(16) 0.6862(8)
H15 H 0.5173 0.0665 0.7515
C11 C 0.5881(3) 0.04949(17) 0.6429(8)
H16 H 0.5914 0.0242 0.6800
C12 C 0.5371(3) 0.11227(15) 0.6330(8)
O6 O 0.24988(17) 0.06992(11) -0.0238(7)
O7 O 0.34803(19) 0.08454(12) -0.0075(8)
C13 C 0.3053(2) 0.06049(16) -0.0215(8)
C14 C 0.3219(3) 0.01624(16) -0.0442(8)
H17 H 0.3481 0.0145 -0.1202
O8 O 0.26699(17) -0.00651(12) -0.0680(7)
C15 C 0.3543(3) -0.00264(19) 0.0675(8)
H18 H 0.3909 0.0127 0.0845
H19 H 0.3668 -0.0294 0.0425
C16 C 0.3181(3) -0.00580(17) 0.1927(8)
H20 H 0.264(3) -0.0106(19) -0.1465(14)
O4I O 0.23047(18) -0.01380(13) 0.7009(7)
Cu1I Cu 0.19488(3) 0.024567(17) 0.9897(6)
Cu1A Cu 0.69488(3) 0.024567(17) 0.4897(6)
Cu1I_2 Cu 0.19488(3) 0.024567(17) -0.0103(6)
O5I O 0.16084(19) 0.02829(11) 0.7773(7)
C1A C 0.5738(3) -0.07404(17) 0.4679(9)
H5A H 0.5411 -0.0805 0.4150
C2A C 0.5128(3) -0.13994(18) 0.6773(9)
H6A H 0.4966 -0.1667 0.6901
H7A H 0.5289 -0.1306 0.7588
C3A C 0.5934(3) -0.10144(17) 0.5585(8)
C4A C 0.6428(3) -0.08918(16) 0.6355(9)
H8A H 0.6574 -0.1060 0.6998
C5A C 0.5648(3) -0.14132(17) 0.5752(10)
H9A H 0.5955 -0.1605 0.6021
H10A H 0.5484 -0.1503 0.4935
C6A C 0.6690(3) -0.05261(17) 0.6156(8)
H11A H 0.7019 -0.0454 0.6669
C7A C 0.6013(3) -0.03789(18) 0.4549(9)
H12A H 0.5861 -0.0200 0.3943
N1A N 0.6501(2) -0.02674(13) 0.5266(8)
N1I N 0.1501(2) -0.02674(13) 1.0266(8)
N2A N 0.3730(2) -0.05949(14) 0.5503(7)
N2H N 0.1270(2) 0.05949(14) 1.0503(7)
C8A C 0.3792(3) -0.09590(15) 0.4964(8)
H13A H 0.3526 -0.1034 0.4311
C9A C 0.4232(3) -0.12236(17) 0.5343(8)
H14A H 0.4266 -0.1471 0.4939
C10A C 0.4566(3) -0.07474(16) 0.6862(8)
H15A H 0.4827 -0.0665 0.7515
C11A C 0.4119(3) -0.04949(17) 0.6429(8)
H16A H 0.4086 -0.0242 0.6800
C12A C 0.4629(3) -0.11227(15) 0.6330(8)
O6I O 0.25012(17) -0.06992(11) 0.4762(7)
O6_2 O 0.24988(17) 0.06992(11) 0.9762(7)
O7I O 0.15197(19) -0.08454(12) 0.4925(8)
C13I C 0.1947(2) -0.06049(16) 0.4785(8)
C14I C 0.1781(3) -0.01624(16) 0.4558(8)
H17I H 0.1519 -0.0145 0.3798
O8I O 0.23301(17) 0.00651(12) 0.4320(7)
O8_2 O 0.26699(17) -0.00651(12) 0.9320(7)
C15I C 0.1457(3) 0.00264(19) 0.5675(8)
H18I H 0.1091 -0.0127 0.5845
H19I H 0.1332 0.0294 0.5425
C16I C 0.1819(3) 0.00580(17) 0.6927(8)
H20I H 0.236(3) 0.0106(19) 0.3535(14)
H20_2 H 0.264(3) -0.0106(19) 0.8535(14)
loop_
_geom_bond_atom_site_label_1
_geom_bond_atom_site_label_2
_geom_bond_site_symmetry_1
_geom_bond_site_symmetry_2
H1 O1 1_555 1_555
O1 H1A 1_555 1_555
H2 O2 1_555 1_555
O2 H3 1_555 1_555
O3 H4 1_555 1_555
O4 C16 1_555 1_555
Cu1 O5 1_555 1_555
O5 C16 1_555 1_555
C1 H5 1_555 1_555
C2 H6 1_555 1_555
H7 C2 1_555 1_555
C3 C1 1_555 1_555
C4 C3 1_555 1_555
H8 C4 1_555 1_555
C5 C2 1_555 1_555
H9 C5 1_555 1_555
H10 C5 1_555 1_555
C6 C4 1_555 1_555
H11 C6 1_555 1_555
C7 C1 1_555 1_555
H12 C7 1_555 1_555
N1 Cu1 1_555 1_555
N2 C8 1_555 1_555
C8 H13 1_555 1_555
C9 C8 1_555 1_555
H14 C9 1_555 1_555
C10 H15 1_555 1_555
C11 N2 1_555 1_555
H16 C11 1_555 1_555
C12 C2 1_555 1_555
O6 C13 1_555 1_555
O7 C13 1_555 1_555
C13 C14 1_555 1_555
C14 H17 1_555 1_555
O8 C14 1_555 1_555
C15 C14 1_555 1_555
H18 C15 1_555 1_555
H19 C15 1_555 1_555
C16 C15 1_555 1_555
H20 O8 1_555 1_555
O4I C16I 1_555 1_555
Cu1I O5I 1_555 1_555
Cu1A N2 1_555 1_555
Cu1I_2 O6 1_555 1_555
O5I C16I 1_555 1_555
C1A H5A 1_555 1_555
C2A H6A 1_555 1_555
H7A C2A 1_555 1_555
C3A C1A 1_555 1_555
C4A C3A 1_555 1_555
H8A C4A 1_555 1_555
C5A C2A 1_555 1_555
H9A C5A 1_555 1_555
H10A C5A 1_555 1_555
C6A C4A 1_555 1_555
H11A C6A 1_555 1_555
C7A C1A 1_555 1_555
H12A C7A 1_555 1_555
N1A Cu1A 1_555 1_555
N1I Cu1I 1_555 1_555
N2A Cu1 1_555 1_555
N2H Cu1I 1_555 1_555
C8A N2A 1_555 1_555
H13A C8A 1_555 1_555
C9A C8A 1_555 1_555
H14A C9A 1_555 1_555
C10A H15A 1_555 1_555
C11A N2A 1_555 1_555
H16A C11A 1_555 1_555
C12A C2A 1_555 1_555
O6I Cu1 1_555 1_555
O6_2 Cu1I 1_555 1_555
O7I C13I 1_555 1_555
C13I O6I 1_555 1_555
C14I C13I 1_555 1_555
H17I C14I 1_555 1_555
O8I Cu1 1_555 1_555
O8_2 Cu1I 1_555 1_555
C15I C14I 1_555 1_555
H18I C15I 1_555 1_555
H19I C15I 1_555 1_555
C16I C15I 1_555 1_555
H20I O8I 1_555 1_555
H20_2 O8_2 1_555 1_555
C3 C5 1_555 1_555
C6 N1 1_555 1_555
C7 N1 1_555 1_555
C9 C12 1_555 1_555
C10 C11 1_555 1_555
C10 C12 1_555 1_555
O8 Cu1I_2 1_555 1_555
C3A C5A 1_555 1_555
C6A N1A 1_555 1_555
C7A N1A 1_555 1_555
C9A C12A 1_555 1_555
C10A C11A 1_555 1_555
C10A C12A 1_555 1_555
C14I O8I 1_555 1_555

#END
