
#######################################################################
#
#                 Cambridge Crystallographic Data Centre
#                                CCDC 
#
#######################################################################
#
# If this CIF has been generated from an entry in the Cambridge 
# Structural Database, then it will include bibliographic, chemical, 
# crystal, experimental, refinement or atomic coordinate data resulting 
# from the CCDC's data processing and validation procedures.
#
#######################################################################

data_OFUYOE02
_symmetry_cell_setting           orthorhombic
_symmetry_space_group_name_H-M   'P 21 21 21'
_symmetry_Int_Tables_number      19
_space_group_name_Hall           'P 2ac 2ab'
loop_
_symmetry_equiv_pos_site_id
_symmetry_equiv_pos_as_xyz
1 x,y,z
2 1/2-x,-y,1/2+z
3 -x,1/2+y,1/2-z
4 1/2+x,1/2-y,-z
_cell_length_a                   6.6525(3)
_cell_length_b                   14.2585(10)
_cell_length_c                   18.8653(10)
_cell_angle_alpha                90
_cell_angle_beta                 90
_cell_angle_gamma                90
_cell_volume                     1789.46
loop_
_atom_site_label
_atom_site_type_symbol
_atom_site_fract_x
_atom_site_fract_y
_atom_site_fract_z
C1 C -0.7469(4) 0.5250(2) 0.67508(14)
C2 C -0.6234(4) 0.4498(2) 0.71461(17)
H1 H -0.6518 0.4558 0.7654
C3 C -0.3967(4) 0.4622(2) 0.70385(15)
H2 H -0.3633 0.5282 0.7126
C4 C -0.2815(4) 0.4019(2) 0.75802(14)
O1 O -0.9132(3) 0.50065(15) 0.64751(12)
O2 O -0.6871(3) 0.60773(15) 0.67613(12)
O3 O -0.6867(3) 0.35939(16) 0.69254(11)
H3 H -0.664(5) 0.321(2) 0.7254(13)
O4 O -0.3481(3) 0.39813(17) 0.81895(11)
O5 O -0.1176(3) 0.36248(16) 0.73882(10)
O6 O -0.3366(3) 0.43976(15) 0.63412(10)
H4 H -0.342(5) 0.4898(14) 0.6106(16)
C5 C -0.0245(4) 0.1666(2) 0.67815(15)
H15 H -0.0402 0.1859 0.7249
C6 C -0.0053(5) 0.07183(19) 0.66408(14)
H16 H -0.0055 0.0282 0.7007
C7 C 0.0141(5) 0.0433(2) 0.59454(16)
H17 H 0.0273 -0.0201 0.5838
C8 C 0.0138(4) 0.1092(2) 0.54092(14)
H18 H 0.0242 0.0908 0.4938
C9 C -0.0022(5) 0.20360(18) 0.55864(12)
C10 C 0.0056(5) 0.28074(19) 0.50681(13)
C11 C -0.0035(5) 0.2688(2) 0.43374(13)
H19 H -0.0123 0.2091 0.4141
C12 C 0.0007(5) 0.3473(2) 0.39093(13)
H20 H -0.0075 0.3411 0.3419
C13 C 0.0170(5) 0.4349(2) 0.42118(14)
H21 H 0.0209 0.4884 0.3930
C14 C 0.0275(4) 0.4420(2) 0.49437(16)
H22 H 0.0404 0.5011 0.5148
Cu1 Cu -0.00643(5) 0.37034(2) 0.642209(15)
N1 N -0.0211(4) 0.23135(17) 0.62707(11)
N2 N 0.0197(3) 0.36708(18) 0.53651(11)
O1_2 O 0.0868(3) 0.50065(15) 0.64751(12)
O3_2 O 0.3133(3) 0.35939(16) 0.69254(11)
H3_2 H 0.336(5) 0.321(2) 0.7254(13)
Cu1_2 Cu -1.00643(5) 0.37034(2) 0.642209(15)
O7 O 0.0200(3) 0.74365(16) 0.63996(12)
H5 H 0.065(5) 0.783(2) 0.6694(16)
H6 H 0.100(5) 0.698(2) 0.641(2)
O8 O 0.3406(3) 0.67143(18) 0.47624(13)
H7 H 0.216(3) 0.668(3) 0.472(2)
H8 H 0.382(5) 0.705(2) 0.4420(15)
O9 O 0.4265(3) 0.83608(18) 0.54711(12)
H9 H 0.384(5) 0.847(3) 0.5881(12)
H10 H 0.403(5) 0.7817(15) 0.536(2)
O10 O 0.6567(3) 0.59445(19) 0.55701(14)
H11 H 0.549(4) 0.610(3) 0.5370(19)
H12 H 0.747(4) 0.611(3) 0.5282(17)
O11 O 0.3481(3) 0.21669(19) 0.78482(13)
H13 H 0.253(4) 0.219(3) 0.8127(17)
H14 H 0.447(4) 0.187(2) 0.7986(19)
loop_
_geom_bond_atom_site_label_1
_geom_bond_atom_site_label_2
_geom_bond_site_symmetry_1
_geom_bond_site_symmetry_2
C1 C2 1_555 1_555
C2 H1 1_555 1_555
C3 C2 1_555 1_555
H2 C3 1_555 1_555
C4 C3 1_555 1_555
O1 C1 1_555 1_555
O2 C1 1_555 1_555
O3 C2 1_555 1_555
H3 O3 1_555 1_555
O4 C4 1_555 1_555
O5 C4 1_555 1_555
O6 C3 1_555 1_555
H4 O6 1_555 1_555
O7 H5 1_555 1_555
H6 O7 1_555 1_555
O8 H7 1_555 1_555
H8 O8 1_555 1_555
O9 H9 1_555 1_555
H10 O9 1_555 1_555
O10 H11 1_555 1_555
H12 O10 1_555 1_555
O11 H13 1_555 1_555
H14 O11 1_555 1_555
C5 H15 1_555 1_555
C6 C5 1_555 1_555
H16 C6 1_555 1_555
C7 C6 1_555 1_555
H17 C7 1_555 1_555
C8 C7 1_555 1_555
H18 C8 1_555 1_555
C9 C8 1_555 1_555
C10 C9 1_555 1_555
C11 C10 1_555 1_555
H19 C11 1_555 1_555
C12 C11 1_555 1_555
H20 C12 1_555 1_555
C13 C12 1_555 1_555
H21 C13 1_555 1_555
C14 C13 1_555 1_555
H22 C14 1_555 1_555
Cu1 O5 1_555 1_555
N1 C5 1_555 1_555
N2 C10 1_555 1_555
O1_2 Cu1 1_555 1_555
O3_2 Cu1 1_555 1_555
H3_2 O3_2 1_555 1_555
Cu1_2 O1 1_555 1_555
O3 Cu1_2 1_555 1_555
O6 Cu1 1_555 1_555
C9 N1 1_555 1_555
C14 N2 1_555 1_555
Cu1 N1 1_555 1_555
Cu1 N2 1_555 1_555

#END
