
#######################################################################
#
#                 Cambridge Crystallographic Data Centre
#                                CCDC 
#
#######################################################################
#
# If this CIF has been generated from an entry in the Cambridge 
# Structural Database, then it will include bibliographic, chemical, 
# crystal, experimental, refinement or atomic coordinate data resulting 
# from the CCDC's data processing and validation procedures.
#
#######################################################################

data_OFUYOE01
_symmetry_cell_setting           orthorhombic
_symmetry_space_group_name_H-M   'P 21 21 21'
_symmetry_Int_Tables_number      19
_space_group_name_Hall           'P 2ac 2ab'
loop_
_symmetry_equiv_pos_site_id
_symmetry_equiv_pos_as_xyz
1 x,y,z
2 1/2-x,-y,1/2+z
3 1/2+x,1/2-y,-z
4 -x,1/2+y,1/2-z
_cell_length_a                   6.685(2)
_cell_length_b                   14.344(6)
_cell_length_c                   18.95(3)
_cell_angle_alpha                90
_cell_angle_beta                 90
_cell_angle_gamma                90
_cell_volume                     1817.11
loop_
_atom_site_label
_atom_site_type_symbol
_atom_site_fract_x
_atom_site_fract_y
_atom_site_fract_z
Cu1 Cu 0.00260(9) 0.37112(3) 0.64177(2)
N1 N -0.0203(6) 0.3679(2) 0.53666(16)
C1 C -0.0020(8) 0.2052(2) 0.55893(19)
C2 C -0.0061(8) 0.2825(3) 0.50655(19)
C3 C -0.0001(9) 0.2701(3) 0.4346(2)
H1 H 0.0075 0.2093 0.4149
O1 O -0.0940(5) 0.49983(19) 0.64729(18)
C4 C 0.0223(9) 0.1685(3) 0.6772(2)
H2 H 0.0386 0.1881 0.7247
N2 N 0.0177(6) 0.2329(2) 0.62648(16)
C5 C 0.0044(10) 0.0746(3) 0.6632(2)
H3 H 0.0041 0.0303 0.7005
C6 C -0.6066(7) 0.4611(3) 0.7046(2)
H4 H -0.6391 0.5281 0.7137
O2 O -0.3192(4) 0.3587(2) 0.69179(16)
C7 C -0.3816(8) 0.4486(3) 0.7144(3)
H5 H -0.3525 0.4535 0.7661
C8 C -0.0178(9) 0.4353(3) 0.4219(2)
H6 H -0.0183 0.4897 0.3933
C9 C -0.0055(9) 0.3484(3) 0.3915(2)
H7 H -0.0007 0.3420 0.3416
C10 C -0.0293(8) 0.4428(3) 0.4942(2)
H8 H -0.0440 0.5028 0.5147
C11 C -0.0128(10) 0.0466(3) 0.5944(2)
H9 H -0.0232 -0.0179 0.5835
C12 C -0.0152(8) 0.1122(3) 0.5407(2)
H10 H -0.0257 0.0937 0.4927
O3 O -0.8861(5) 0.3635(2) 0.73777(16)
O4 O -0.3167(5) 0.6055(2) 0.67771(19)
C13 C -0.7237(7) 0.4024(3) 0.7575(2)
O5 O -0.6666(4) 0.43992(19) 0.63424(15)
H11 H -0.6641 0.4887 0.6098
O6 O -0.6601(5) 0.3973(2) 0.81830(17)
C14 C -0.2568(7) 0.5239(3) 0.6764(2)
H12 H -0.337(7) 0.322(2) 0.7261(14)
Cu1_2 Cu -0.99740(9) 0.37112(3) 0.64177(2)
O3_2 O 0.1139(5) 0.3635(2) 0.73777(16)
O5_2 O 0.3334(4) 0.43992(19) 0.63424(15)
H11_2 H 0.3359 0.4887 0.6098
O7 O 0.9724(6) 0.7420(2) 0.64035(17)
O8 O 0.6525(6) 0.2169(2) 0.7869(2)
O9 O 0.1577(6) -0.1716(2) 0.52493(19)
O10 O 0.4282(5) 0.3350(2) 0.95141(18)
O11 O 0.3414(6) 0.5942(3) 0.5561(2)
loop_
_geom_bond_atom_site_label_1
_geom_bond_atom_site_label_2
_geom_bond_site_symmetry_1
_geom_bond_site_symmetry_2
Cu1 N1 1_555 1_555
N1 C2 1_555 1_555
C1 C2 1_555 1_555
C2 C3 1_555 1_555
C3 H1 1_555 1_555
O1 Cu1 1_555 1_555
C4 H2 1_555 1_555
N2 Cu1 1_555 1_555
C5 C4 1_555 1_555
H3 C5 1_555 1_555
C6 H4 1_555 1_555
O2 Cu1 1_555 1_555
C7 C6 1_555 1_555
H5 C7 1_555 1_555
C8 H6 1_555 1_555
C9 C3 1_555 1_555
H7 C9 1_555 1_555
C10 N1 1_555 1_555
H8 C10 1_555 1_555
C11 C5 1_555 1_555
H9 C11 1_555 1_555
C12 C1 1_555 1_555
H10 C12 1_555 1_555
O3 C13 1_555 1_555
O4 C14 1_555 1_555
C13 C6 1_555 1_555
O5 C6 1_555 1_555
H11 O5 1_555 1_555
O6 C13 1_555 1_555
C14 O1 1_555 1_555
H12 O2 1_555 1_555
Cu1_2 O3 1_555 1_555
O3_2 Cu1 1_555 1_555
O5_2 Cu1 1_555 1_555
H11_2 O5_2 1_555 1_555
C1 N2 1_555 1_555
C4 N2 1_555 1_555
O2 C7 1_555 1_555
C7 C14 1_555 1_555
C8 C9 1_555 1_555
C8 C10 1_555 1_555
C11 C12 1_555 1_555
O5 Cu1_2 1_555 1_555

#END
