
#######################################################################
#
#                 Cambridge Crystallographic Data Centre
#                                CCDC 
#
#######################################################################
#
# If this CIF has been generated from an entry in the Cambridge 
# Structural Database, then it will include bibliographic, chemical, 
# crystal, experimental, refinement or atomic coordinate data resulting 
# from the CCDC's data processing and validation procedures.
#
#######################################################################

data_OFUYOE
_symmetry_cell_setting           orthorhombic
_symmetry_space_group_name_H-M   'P 21 21 21'
_symmetry_Int_Tables_number      19
_space_group_name_Hall           'P 2ac 2ab'
loop_
_symmetry_equiv_pos_site_id
_symmetry_equiv_pos_as_xyz
1 x,y,z
2 1/2-x,-y,1/2+z
3 -x,1/2+y,1/2-z
4 1/2+x,1/2-y,-z
_cell_length_a                   6.6556(8)
_cell_length_b                   14.3048(16)
_cell_length_c                   19.047(2)
_cell_angle_alpha                90
_cell_angle_beta                 90
_cell_angle_gamma                90
_cell_volume                     1813.41
loop_
_atom_site_label
_atom_site_type_symbol
_atom_site_fract_x
_atom_site_fract_y
_atom_site_fract_z
N1 N 0.5014(14) 0.2390(3) 0.1246(2)
C1 C 0.4928(8) 0.2101(3) 0.0550(2)
C2 C 0.4916(14) 0.1153(3) 0.0390(3)
H1 H 0.4859 0.0959 -0.0076
C3 C 0.4990(15) 0.0494(3) 0.0926(3)
H2 H 0.4982 -0.0140 0.0819
C4 C 0.5076(14) 0.0784(4) 0.1622(3)
H3 H 0.5126 0.0343 0.1980
C5 C 0.5088(17) 0.1732(4) 0.1782(2)
H4 H 0.5146 0.1925 0.2248
N2 N 0.4887(12) 0.3628(3) 0.0400(3)
C6 C 0.4857(14) 0.4438(3) -0.0077(3)
H5 H 0.4990 0.5033 0.0114
C7 C 0.4662(12) 0.4361(4) -0.0726(3)
H6 H 0.4291 0.4872 -0.0998
C8 C 0.5007(15) 0.3500(4) -0.1031(2)
H7 H 0.5359 0.3460 -0.1503
C9 C 0.4820(14) 0.2672(4) -0.0617(2)
H8 H 0.4643 0.2076 -0.0802
C10 C 0.4936(7) 0.2869(3) 0.0091(2)
Cu1 Cu 0.5034(3) 0.37430(11) 0.14329(8)
O1 O 0.1856(15) 0.3607(6) 0.1889(5)
H9 H 0.1122 0.3055 0.1919
O2 O 0.4062(18) 0.5048(7) 0.1478(6)
C11 C 0.118(3) 0.4509(11) 0.2120(9)
H10 H 0.1475 0.4552 0.2623
C12 C 0.245(2) 0.5263(11) 0.1750(8)
O3 O 0.1793(18) 0.6094(7) 0.1781(6)
C13 C -0.106(3) 0.4608(12) 0.2038(8)
H11 H -0.1410 0.5268 0.2103
C14 C -0.225(3) 0.4025(11) 0.2585(8)
O4 O -0.1507(18) 0.3971(9) 0.3174(5)
O5 O -0.1783(16) 0.4323(6) 0.1389(5)
O6 O -0.3849(19) 0.3657(7) 0.2403(5)
H22 H -0.1507 0.4751 0.1127
Cu1_2 Cu -0.4966(3) 0.37430(11) 0.14329(8)
O5_2 O 0.8217(16) 0.4323(6) 0.1389(5)
O6_2 O 0.6151(19) 0.3657(7) 0.2403(5)
H22_2 H 0.8493 0.4751 0.1127
O7 O 0.481(2) 0.7453(6) 0.1396(5)
H14 H 0.4816 0.7075 0.1722
H17 H 0.5353 0.7927 0.1600
O8 O 0.6781(13) 0.8284(9) 0.0240(4)
H20 H 0.7386 0.8076 -0.0122
H21 H 0.7600 0.8404 0.0570
O9 O 0.8455(19) 0.7225(5) 0.2168(4)
H15 H 0.9066 0.7572 0.2461
H16 H 0.8103 0.7639 0.1871
O10 O 0.9164(18) 0.3356(7) 0.4521(5)
H12 H 1.0160 0.3174 0.4286
H13 H 0.8851 0.3837 0.4249
O11 O 0.8386(13) 0.5929(5) 0.0535(4)
H18 H 0.9665 0.5987 0.0541
H19 H 0.8211 0.5975 0.0094
loop_
_geom_bond_atom_site_label_1
_geom_bond_atom_site_label_2
_geom_bond_site_symmetry_1
_geom_bond_site_symmetry_2
N1 C1 1_555 1_555
C1 C2 1_555 1_555
C2 H1 1_555 1_555
C3 C2 1_555 1_555
H2 C3 1_555 1_555
C4 C3 1_555 1_555
H3 C4 1_555 1_555
C5 N1 1_555 1_555
H4 C5 1_555 1_555
N2 C6 1_555 1_555
C6 H5 1_555 1_555
C7 C6 1_555 1_555
H6 C7 1_555 1_555
C8 C7 1_555 1_555
H7 C8 1_555 1_555
C9 C8 1_555 1_555
H8 C9 1_555 1_555
C10 C1 1_555 1_555
Cu1 N1 1_555 1_555
O1 Cu1 1_555 1_555
H9 O1 1_555 1_555
O2 Cu1 1_555 1_555
C11 O1 1_555 1_555
H10 C11 1_555 1_555
C12 O2 1_555 1_555
O3 C12 1_555 1_555
C13 C11 1_555 1_555
H11 C13 1_555 1_555
C14 C13 1_555 1_555
O4 C14 1_555 1_555
O5 C13 1_555 1_555
O6 C14 1_555 1_555
O7 H14 1_555 1_555
O8 H20 1_555 1_555
O9 H15 1_555 1_555
O10 H12 1_555 1_555
O11 H18 1_555 1_555
H13 O10 1_555 1_555
H16 O9 1_555 1_555
H17 O7 1_555 1_555
H19 O11 1_555 1_555
H21 O8 1_555 1_555
H22 O5 1_555 1_555
Cu1_2 O5 1_555 1_555
O5_2 Cu1 1_555 1_555
O6_2 Cu1 1_555 1_555
H22_2 O5_2 1_555 1_555
C4 C5 1_555 1_555
N2 C10 1_555 1_555
N2 Cu1 1_555 1_555
C9 C10 1_555 1_555
C11 C12 1_555 1_555
O6 Cu1_2 1_555 1_555

#END
