
#######################################################################
#
#                 Cambridge Crystallographic Data Centre
#                                CCDC 
#
#######################################################################
#
# If this CIF has been generated from an entry in the Cambridge 
# Structural Database, then it will include bibliographic, chemical, 
# crystal, experimental, refinement or atomic coordinate data resulting 
# from the CCDC's data processing and validation procedures.
#
#######################################################################

data_OFUYAR
_symmetry_cell_setting           monoclinic
_symmetry_space_group_name_H-M   'C 2/c'
_symmetry_Int_Tables_number      15
_space_group_name_Hall           '-C 2yn'
loop_
_symmetry_equiv_pos_site_id
_symmetry_equiv_pos_as_xyz
1 x,y,z
2 -x,y,1/2-z
3 1/2+x,1/2+y,z
4 1/2-x,1/2+y,1/2-z
5 -x,-y,-z
6 x,-y,1/2+z
7 1/2-x,1/2-y,-z
8 1/2+x,1/2-y,1/2+z
_cell_length_a                   38.9150(7)
_cell_length_b                   22.2085(3)
_cell_length_c                   21.7493(3)
_cell_angle_alpha                90
_cell_angle_beta                 98.683(2)
_cell_angle_gamma                90
_cell_volume                     18581.3
loop_
_atom_site_label
_atom_site_type_symbol
_atom_site_fract_x
_atom_site_fract_y
_atom_site_fract_z
Cu1 Cu 0.24820(3) 0.28717(4) 0.74918(4)
N1 N 0.26233(19) 0.2264(3) 0.8185(3)
N2 N 0.26939(16) 0.2313(3) 0.6908(3)
N3 N 0.3034(2) 0.3363(3) 0.7777(3)
N4 N 0.1894(2) 0.2253(3) 0.7202(3)
N5 N 0.27603(18) 0.1587(3) 1.1945(3)
N6 N 0.26687(17) 0.1550(3) 0.3227(3)
C1 C 0.2373(2) 0.1988(3) 0.8442(3)
C2 C 0.2947(2) 0.2065(4) 0.8339(4)
C3 C 0.2605(2) 0.1730(3) 0.6844(4)
C4 C 0.2946(2) 0.2517(3) 0.6615(3)
C5 C 0.3289(3) 0.3579(4) 0.7908(5)
C6 C 0.1680(4) 0.1952(6) 0.7149(7)
H1 H 0.2141 0.2136 0.8352
C7 C 0.2440(2) 0.1493(3) 0.8836(3)
C8 C 0.3033(3) 0.1591(4) 0.8738(4)
H2 H 0.3128 0.2259 0.8164
H3 H 0.2425 0.1579 0.7052
C9 C 0.2768(2) 0.1341(4) 0.6483(4)
C10 C 0.3123(2) 0.2150(3) 0.6260(3)
H4 H 0.3005 0.2932 0.6650
C11 C 0.3625(4) 0.3862(7) 0.8110(12)
C12 C 0.1368(4) 0.1513(9) 0.7096(19)
C13 C 0.2773(2) 0.1299(4) 0.8991(4)
C14 C 0.2131(3) 0.1198(4) 0.9032(4)
H5 H 0.3268 0.1466 0.8840
H6 H 0.2697 0.0933 0.6437
C15 C 0.3031(2) 0.1546(4) 0.6194(4)
C16 C 0.3410(2) 0.2434(4) 0.5983(4)
H7 H 0.3613 0.4289 0.7994
H8 H 0.3803 0.3662 0.7908
H9 H 0.3685 0.3825 0.8562
H10 H 0.1450 0.1114 0.7242
H11 H 0.1258 0.1487 0.6661
H12 H 0.1199 0.1661 0.7351
H13 H 0.2826 0.0968 0.9267
O1 O 0.18363(19) 0.1385(3) 0.8924(3)
O2 O 0.22202(15) 0.0675(2) 0.9344(2)
H14 H 0.3149 0.1283 0.5953
O3 O 0.34582(17) 0.2961(3) 0.5949(3)
O4 O 0.36039(15) 0.2009(2) 0.5746(3)
C17 C 0.1951(2) 0.0347(3) 0.9539(4)
C18 C 0.3871(2) 0.2213(4) 0.5434(4)
C19 C 0.1719(3) 0.0043(4) 0.9125(5)
C20 C 0.1939(2) 0.0305(3) 1.0178(4)
C21 C 0.4171(2) 0.2452(4) 0.5752(5)
C22 C 0.3824(2) 0.2169(4) 0.4787(4)
H15 H 0.1736 0.0045 0.8693
C23 C 0.1443(3) -0.0288(4) 0.9361(6)
O5 O 0.21800(15) 0.0637(2) 1.0588(2)
C24 C 0.1693(2) -0.0020(4) 1.0399(5)
H16 H 0.4201 0.2488 0.6192
C25 C 0.4434(3) 0.2642(4) 0.5422(6)
O6 O 0.35044(16) 0.1968(3) 0.4469(3)
C26 C 0.4072(3) 0.2353(5) 0.4461(5)
C27 C 0.1175(3) -0.0588(5) 0.8953(8)
C28 C 0.1438(3) -0.0315(4) 1.0005(6)
C29 C 0.2508(2) 0.0444(3) 1.0695(4)
H17 H 0.1696 -0.0046 1.0835
C30 C 0.4744(3) 0.2915(6) 0.5700(7)
C31 C 0.4385(3) 0.2606(5) 0.4757(5)
C32 C 0.3400(3) 0.1397(4) 0.4550(4)
H18 H 0.4035 0.2311 0.4021
H19 H 0.1168 -0.0568 0.8515
C33 C 0.0931(4) -0.0898(6) 0.9197(11)
C34 C 0.1166(3) -0.0645(6) 1.0209(9)
O7 O 0.26153(16) 0.0013(3) 1.0455(3)
C35 C 0.2725(2) 0.0845(3) 1.1157(4)
H20 H 0.4788 0.2946 0.6141
C36 C 0.4982(3) 0.3135(7) 0.5370(10)
C37 C 0.4640(3) 0.2813(6) 0.4440(7)
O8 O 0.3548(2) 0.1044(3) 0.4890(3)
C38 C 0.3061(2) 0.1280(3) 0.4122(4)
H21 H 0.0760 -0.1112 0.8924
C39 C 0.0919(5) -0.0918(7) 0.9801(12)
H22 H 0.1157 -0.0676 1.0642
C40 C 0.2574(2) 0.1258(3) 1.1500(4)
C41 C 0.3081(3) 0.0780(5) 1.1264(5)
H23 H 0.5186 0.3327 0.5575
C42 C 0.4925(4) 0.3077(8) 0.4721(9)
H24 H 0.4610 0.2766 0.4001
C43 C 0.2947(2) 0.1667(3) 0.3644(4)
C44 C 0.2882(3) 0.0755(4) 0.4181(5)
H25 H 0.0735 -0.1127 0.9950
H26 H 0.2330 0.1312 1.1420
H27 H 0.3192 0.0496 1.1033
C45 C 0.3271(3) 0.1130(6) 1.1706(6)
H28 H 0.5092 0.3227 0.4484
H29 H 0.3071 0.2030 0.3609
H30 H 0.2958 0.0483 0.4510
C46 C 0.2593(3) 0.0628(4) 0.3765(6)
C47 C 0.3102(2) 0.1521(5) 1.2042(5)
H31 H 0.3518 0.1102 1.1779
C48 C 0.2494(3) 0.1036(4) 0.3282(5)
H32 H 0.2463 0.0272 0.3802
H33 H 0.3235 0.1755 1.2358
H34 H 0.2297 0.0948 0.2983
Cu1F Cu 0.25180(3) 0.21283(4) 0.25082(4)
Cu1F_2 Cu 0.25180(3) 0.21283(4) 1.25082(4)
N5F N 0.22397(18) 0.3413(3) 0.8055(3)
N6F N 0.23313(17) 0.3450(3) 0.6773(3)
Cu2 Cu 0.0000 0.48034(6) 0.2500
O9 O 0.02915(17) 0.3300(3) 0.0680(3)
O10 O 0.07996(16) 0.3592(3) 0.0389(3)
O11 O 0.12555(15) 0.4076(3) -0.0471(3)
O12 O 0.07273(15) 0.3727(3) -0.0870(3)
N7 N 0.03062(17) 0.4782(3) 0.1832(3)
N8 N 0.04463(17) 0.5223(3) -0.1858(3)
N9 N 0.0000 0.5896(5) 0.2500
N10 N 0.0000 0.3646(5) 0.2500
C49 C 0.0550(2) 0.5196(4) 0.1807(4)
H35 H 0.0556 0.5536 0.2074
C50 C 0.0793(2) 0.5155(5) 0.1413(4)
H36 H 0.0959 0.5466 0.1398
C51 C 0.0792(2) 0.4656(4) 0.1039(4)
H37 H 0.0961 0.4613 0.0770
C52 C 0.0545(2) 0.4222(4) 0.1060(4)
C53 C 0.0305(2) 0.4305(4) 0.1462(4)
H38 H 0.0131 0.4007 0.1474
C54 C 0.0519(2) 0.3659(5) 0.0696(4)
C55 C 0.0817(2) 0.3085(4) 0.0034(4)
C56 C 0.0843(3) 0.2513(5) 0.0279(5)
H39 H 0.0851 0.2453 0.0713
C57 C 0.0856(3) 0.2017(5) -0.0117(6)
C58 C 0.0880(3) 0.1403(6) 0.0131(8)
H40 H 0.0890 0.1325 0.0562
C59 C 0.0887(4) 0.0941(6) -0.0296(11)
H41 H 0.0909 0.0540 -0.0145
C60 C 0.0862(5) 0.1038(7) -0.0938(10)
H42 H 0.0859 0.0703 -0.1212
C61 C 0.0845(4) 0.1587(6) -0.1165(8)
H43 H 0.0831 0.1647 -0.1601
C62 C 0.0847(3) 0.2098(5) -0.0760(6)
C63 C 0.0816(3) 0.2686(5) -0.0990(5)
H44 H 0.0810 0.2751 -0.1423
C64 C 0.0796(2) 0.3157(4) -0.0619(4)
C65 C 0.0978(2) 0.4157(4) -0.0778(4)
C66 C 0.0545(2) 0.4749(4) -0.1513(4)
H45 H 0.0393 0.4411 -0.1539
C67 C 0.0862(2) 0.4713(4) -0.1110(4)
C68 C 0.1074(2) 0.5217(4) -0.1050(5)
H46 H 0.1286 0.5221 -0.0769
C69 C 0.0967(3) 0.5718(4) -0.1411(5)
H47 H 0.1109 0.6068 -0.1386
C70 C 0.0661(2) 0.5707(4) -0.1801(4)
H48 H 0.0593 0.6054 -0.2045
C71 C 0.0000 0.6402(6) 0.2500
C72 C 0.0000 0.7058(7) 0.2500
C73 C 0.0000 0.3149(5) 0.2500
C74 C 0.0000 0.2459(5) 0.2500
O9A O -0.02915(17) 0.3300(3) 0.4320(3)
O10A O -0.07996(16) 0.3592(3) 0.4611(3)
O11A O -0.12555(15) 0.4076(3) 0.5471(3)
O12A O -0.07273(15) 0.3727(3) 0.5870(3)
N7A N -0.03062(17) 0.4782(3) 0.3168(3)
N8A N -0.04463(17) 0.5223(3) 0.6858(3)
C49A C -0.0550(2) 0.5196(4) 0.3193(4)
H35A H -0.0556 0.5536 0.2926
C50A C -0.0793(2) 0.5155(5) 0.3587(4)
H36A H -0.0959 0.5466 0.3602
C51A C -0.0792(2) 0.4656(4) 0.3961(4)
H37A H -0.0961 0.4613 0.4230
C52A C -0.0545(2) 0.4222(4) 0.3940(4)
C53A C -0.0305(2) 0.4305(4) 0.3538(4)
H38A H -0.0131 0.4007 0.3526
C54A C -0.0519(2) 0.3659(5) 0.4304(4)
C55A C -0.0817(2) 0.3085(4) 0.4966(4)
C56A C -0.0843(3) 0.2513(5) 0.4721(5)
H39A H -0.0851 0.2453 0.4287
C57A C -0.0856(3) 0.2017(5) 0.5117(6)
C58A C -0.0880(3) 0.1403(6) 0.4869(8)
H40A H -0.0890 0.1325 0.4438
C59A C -0.0887(4) 0.0941(6) 0.5296(11)
H41A H -0.0909 0.0540 0.5145
C60A C -0.0862(5) 0.1038(7) 0.5938(10)
H42A H -0.0859 0.0703 0.6212
C61A C -0.0845(4) 0.1587(6) 0.6165(8)
H43A H -0.0831 0.1647 0.6601
C62A C -0.0847(3) 0.2098(5) 0.5760(6)
C63A C -0.0816(3) 0.2686(5) 0.5990(5)
H44A H -0.0810 0.2751 0.6423
C64A C -0.0796(2) 0.3157(4) 0.5619(4)
C65A C -0.0978(2) 0.4157(4) 0.5778(4)
C66A C -0.0545(2) 0.4749(4) 0.6513(4)
H45A H -0.0393 0.4411 0.6539
C67A C -0.0862(2) 0.4713(4) 0.6110(4)
C68A C -0.1074(2) 0.5217(4) 0.6050(5)
H46A H -0.1286 0.5221 0.5769
C69A C -0.0967(3) 0.5718(4) 0.6411(5)
H47A H -0.1109 0.6068 0.6386
C70A C -0.0661(2) 0.5707(4) 0.6801(4)
H48A H -0.0593 0.6054 0.7045
Cu2D Cu 0.0000 0.51966(6) -0.2500
Cu2D_2 Cu 0.0000 0.51966(6) 0.7500
N8D N -0.04463(17) 0.4777(3) 0.1858(3)
N8E N 0.04463(17) 0.4777(3) 0.3142(3)
Cl1 Cl 0.09392(9) 0.3246(2) 0.72273(15)
O13 O 0.0883(2) 0.3631(4) 0.7711(3)
O14 O 0.1004(5) 0.2711(6) 0.7466(7)
O15 O 0.1211(2) 0.3422(6) 0.6920(4)
O16 O 0.0630(2) 0.3315(5) 0.6753(4)
Cl2 Cl 0.21087(8) 0.02834(10) 0.72879(11)
O17 O 0.1983(4) 0.0683(5) 0.6796(5)
O18 O 0.2346(4) -0.0069(5) 0.7051(5)
O19 O 0.1875(3) -0.0068(5) 0.7546(8)
O20 O 0.2265(4) 0.0669(5) 0.7753(5)
Cl3 Cl 0.10384(14) 0.7162(3) 0.72713(17)
O21 O 0.0904(5) 0.6675(6) 0.7002(8)
O22 O 0.1001(6) 0.7619(6) 0.6874(7)
O23 O 0.1373(2) 0.7087(11) 0.7486(11)
O24 O 0.0874(5) 0.7302(11) 0.7752(7)
Cl4 Cl 0.31738(16) 0.3030(2) -0.0412(2)
Cl5 Cl 0.29183(14) 0.2146(2) 0.0378(2)
C75 C 0.3278(3) 0.2486(6) 0.0190(6)
H49 H 0.3434 0.2177 0.0052
H50 H 0.3405 0.2685 0.0564
Cl6 Cl 0.3087(4) 0.3277(6) 0.4392(7)
Cl7 Cl 0.2635(5) 0.3076(15) 0.5040(16)
C76 C 0.2873(6) 0.3662(6) 0.4978(10)
H51 H 0.3033 0.3760 0.5364
H52 H 0.2738 0.4021 0.4816
Cl8 Cl 0.05431(13) 0.4128(3) 0.4826(2)
Cl9 Cl -0.00152(10) 0.4311(3) 0.5506(2)
C77 C 0.0310(3) 0.3837(6) 0.5326(6)
H53 H 0.0466 0.3734 0.5714
H54 H 0.0202 0.3458 0.5150
Cl10 Cl 0.1673(2) 0.5120(5) 0.6499(8)
Cl11 Cl 0.1515(4) 0.5591(15) 0.7486(9)
C78 C 0.1964(14) 0.517(3) 0.7372(14)
H55 H 0.2009 0.4780 0.7593
H56 H 0.2173 0.5427 0.7407
O25 O -0.0230(5) 0.8606(7) 0.2891(8)
H57 H -0.0034 0.8730 0.2832
H58 H -0.0377 0.8884 0.2812
O26 O 0.0898(9) 0.0281(18) 0.7370(18)
H59 H 0.0744 0.0495 0.7495
H60 H 0.0819 0.0133 0.7022
O27 O 0.0053(13) 0.000(3) 0.557(3)
H61 H 0.0045 -0.0296 0.5802
H62 H -0.0146 0.0160 0.5491
O28 O 0.0488(10) 0.044(3) 0.133(3)
H63 H 0.0480 0.0326 0.0959
H64 H 0.0365 0.0204 0.1512
O29 O -0.0253(11) 0.086(2) 0.227(2)
H65 H -0.0432 0.0647 0.2220
H66 H -0.0127 0.0765 0.2002
H67? H -0.0220 0.2312 0.2271
H68? H 0.0027 0.2312 0.2929
H69? H 0.0193 0.2312 0.2300
H70? H -0.0220 0.7206 0.2271
H71? H 0.0193 0.7206 0.2300
H72? H 0.0027 0.7206 0.2929
loop_
_geom_bond_atom_site_label_1
_geom_bond_atom_site_label_2
_geom_bond_site_symmetry_1
_geom_bond_site_symmetry_2
Cu1 N1 1_555 1_555
N1 C1 1_555 1_555
N2 Cu1 1_555 1_555
N3 Cu1 1_555 1_555
N4 Cu1 1_555 1_555
N5 C40 1_555 1_555
N6 C43 1_555 1_555
C1 H1 1_555 1_555
C2 N1 1_555 1_555
C3 N2 1_555 1_555
C4 N2 1_555 1_555
C5 N3 1_555 1_555
C6 N4 1_555 1_555
C7 C1 1_555 1_555
C8 C2 1_555 1_555
H2 C2 1_555 1_555
H3 C3 1_555 1_555
C9 C3 1_555 1_555
C10 C4 1_555 1_555
H4 C4 1_555 1_555
C11 C5 1_555 1_555
C12 C6 1_555 1_555
C13 C7 1_555 1_555
C14 C7 1_555 1_555
H5 C8 1_555 1_555
H6 C9 1_555 1_555
C15 C9 1_555 1_555
C16 C10 1_555 1_555
H7 C11 1_555 1_555
H8 C11 1_555 1_555
H9 C11 1_555 1_555
H10 C12 1_555 1_555
H11 C12 1_555 1_555
H12 C12 1_555 1_555
H13 C13 1_555 1_555
O1 C14 1_555 1_555
O2 C14 1_555 1_555
H14 C15 1_555 1_555
O3 C16 1_555 1_555
O4 C16 1_555 1_555
C17 O2 1_555 1_555
C18 O4 1_555 1_555
C19 C17 1_555 1_555
C20 C17 1_555 1_555
C21 C18 1_555 1_555
C22 C18 1_555 1_555
H15 C19 1_555 1_555
C23 C19 1_555 1_555
O5 C20 1_555 1_555
C24 C20 1_555 1_555
H16 C21 1_555 1_555
C25 C21 1_555 1_555
O6 C22 1_555 1_555
C26 C22 1_555 1_555
C27 C23 1_555 1_555
C28 C23 1_555 1_555
C29 O5 1_555 1_555
H17 C24 1_555 1_555
C30 C25 1_555 1_555
C31 C25 1_555 1_555
C32 O6 1_555 1_555
H18 C26 1_555 1_555
H19 C27 1_555 1_555
C33 C27 1_555 1_555
C34 C28 1_555 1_555
O7 C29 1_555 1_555
C35 C29 1_555 1_555
H20 C30 1_555 1_555
C36 C30 1_555 1_555
C37 C31 1_555 1_555
O8 C32 1_555 1_555
C38 C32 1_555 1_555
H21 C33 1_555 1_555
C39 C33 1_555 1_555
H22 C34 1_555 1_555
C40 C35 1_555 1_555
C41 C35 1_555 1_555
H23 C36 1_555 1_555
C42 C36 1_555 1_555
H24 C37 1_555 1_555
C43 C38 1_555 1_555
C44 C38 1_555 1_555
H25 C39 1_555 1_555
H26 C40 1_555 1_555
H27 C41 1_555 1_555
C45 C41 1_555 1_555
H28 C42 1_555 1_555
H29 C43 1_555 1_555
H30 C44 1_555 1_555
C46 C44 1_555 1_555
C47 N5 1_555 1_555
H31 C45 1_555 1_555
C48 N6 1_555 1_555
H32 C46 1_555 1_555
H33 C47 1_555 1_555
H34 C48 1_555 1_555
Cu2 N7 1_555 1_555
O9 C54 1_555 1_555
O10 C54 1_555 1_555
O11 C65 1_555 1_555
O12 C64 1_555 1_555
N7 C49 1_555 1_555
N8 C66 1_555 1_555
N9 Cu2 1_555 1_555
N10 Cu2 1_555 1_555
C49 H35 1_555 1_555
C50 C49 1_555 1_555
H36 C50 1_555 1_555
C51 C50 1_555 1_555
H37 C51 1_555 1_555
C52 C51 1_555 1_555
C53 N7 1_555 1_555
H38 C53 1_555 1_555
C54 C52 1_555 1_555
C55 O10 1_555 1_555
C56 C55 1_555 1_555
H39 C56 1_555 1_555
C57 C56 1_555 1_555
C58 C57 1_555 1_555
H40 C58 1_555 1_555
C59 C58 1_555 1_555
H41 C59 1_555 1_555
C60 C59 1_555 1_555
H42 C60 1_555 1_555
C61 C60 1_555 1_555
H43 C61 1_555 1_555
C62 C57 1_555 1_555
C63 C62 1_555 1_555
H44 C63 1_555 1_555
C64 C55 1_555 1_555
C65 O12 1_555 1_555
C66 H45 1_555 1_555
C67 C65 1_555 1_555
C68 C67 1_555 1_555
H46 C68 1_555 1_555
C69 C68 1_555 1_555
H47 C69 1_555 1_555
C70 N8 1_555 1_555
H48 C70 1_555 1_555
C71 N9 1_555 1_555
C72 C71 1_555 1_555
C73 N10 1_555 1_555
C74 C73 1_555 1_555
Cl1 O13 1_555 1_555
O14 Cl1 1_555 1_555
O15 Cl1 1_555 1_555
O16 Cl1 1_555 1_555
Cl2 O17 1_555 1_555
O18 Cl2 1_555 1_555
O19 Cl2 1_555 1_555
O20 Cl2 1_555 1_555
Cl3 O21 1_555 1_555
O22 Cl3 1_555 1_555
O23 Cl3 1_555 1_555
O24 Cl3 1_555 1_555
Cl4 C75 1_555 1_555
Cl5 C75 1_555 1_555
C75 H49 1_555 1_555
H50 C75 1_555 1_555
Cl6 C76 1_555 1_555
Cl7 C76 1_555 1_555
C76 H51 1_555 1_555
H52 C76 1_555 1_555
Cl8 C77 1_555 1_555
Cl9 C77 1_555 1_555
C77 H53 1_555 1_555
H54 C77 1_555 1_555
Cl10 C78 1_555 1_555
Cl11 C78 1_555 1_555
C78 H55 1_555 1_555
H56 C78 1_555 1_555
O25 H57 1_555 1_555
H58 O25 1_555 1_555
O26 H59 1_555 1_555
H60 O26 1_555 1_555
O27 H61 1_555 1_555
H62 O27 1_555 1_555
O28 H63 1_555 1_555
H64 O28 1_555 1_555
O29 H65 1_555 1_555
H66 O29 1_555 1_555
Cu1F N6 1_555 1_555
Cu1F_2 N5 1_555 1_555
N5F Cu1 1_555 1_555
N6F Cu1 1_555 1_555
O9A C54A 1_555 1_555
O10A C54A 1_555 1_555
O11A C65A 1_555 1_555
O12A C64A 1_555 1_555
N7A Cu2 1_555 1_555
N8A C66A 1_555 1_555
C49A N7A 1_555 1_555
H35A C49A 1_555 1_555
C50A C49A 1_555 1_555
H36A C50A 1_555 1_555
C51A C50A 1_555 1_555
H37A C51A 1_555 1_555
C52A C51A 1_555 1_555
C53A N7A 1_555 1_555
H38A C53A 1_555 1_555
C54A C52A 1_555 1_555
C55A O10A 1_555 1_555
C56A C55A 1_555 1_555
H39A C56A 1_555 1_555
C57A C56A 1_555 1_555
C58A C57A 1_555 1_555
H40A C58A 1_555 1_555
C59A C58A 1_555 1_555
H41A C59A 1_555 1_555
C60A C59A 1_555 1_555
H42A C60A 1_555 1_555
C61A C60A 1_555 1_555
H43A C61A 1_555 1_555
C62A C57A 1_555 1_555
C63A C62A 1_555 1_555
H44A C63A 1_555 1_555
C64A C55A 1_555 1_555
C65A O12A 1_555 1_555
C66A H45A 1_555 1_555
C67A C65A 1_555 1_555
C68A C67A 1_555 1_555
H46A C68A 1_555 1_555
C69A C68A 1_555 1_555
H47A C69A 1_555 1_555
C70A N8A 1_555 1_555
H48A C70A 1_555 1_555
Cu2D N8 1_555 1_555
Cu2D_2 N8A 1_555 1_555
N8D Cu2 1_555 1_555
N8E Cu2 1_555 1_555
C8 C13 1_555 1_555
C10 C15 1_555 1_555
C24 C28 1_555 1_555
C26 C31 1_555 1_555
C34 C39 1_555 1_555
C37 C42 1_555 1_555
C45 C47 1_555 1_555
C46 C48 1_555 1_555
C52 C53 1_555 1_555
C61 C62 1_555 1_555
C63 C64 1_555 1_555
C66 C67 1_555 1_555
C69 C70 1_555 1_555
C52A C53A 1_555 1_555
C61A C62A 1_555 1_555
C63A C64A 1_555 1_555
C66A C67A 1_555 1_555
C69A C70A 1_555 1_555

#END
