
#######################################################################
#
#                 Cambridge Crystallographic Data Centre
#                                CCDC 
#
#######################################################################
#
# If this CIF has been generated from an entry in the Cambridge 
# Structural Database, then it will include bibliographic, chemical, 
# crystal, experimental, refinement or atomic coordinate data resulting 
# from the CCDC's data processing and validation procedures.
#
#######################################################################

data_OFUYIY
_symmetry_cell_setting           triclinic
_symmetry_space_group_name_H-M   'P -1'
_symmetry_Int_Tables_number      2
_space_group_name_Hall           '-P 1'
loop_
_symmetry_equiv_pos_site_id
_symmetry_equiv_pos_as_xyz
1 x,y,z
2 -x,-y,-z
_cell_length_a                   7.5814(8)
_cell_length_b                   12.6006(13)
_cell_length_c                   13.6456(14)
_cell_angle_alpha                67.363(1)
_cell_angle_beta                 74.907(1)
_cell_angle_gamma                76.610(1)
_cell_volume                     1148.95
loop_
_atom_site_label
_atom_site_type_symbol
_atom_site_fract_x
_atom_site_fract_y
_atom_site_fract_z
C1 C 0.8065(5) 0.3601(3) -0.0572(3)
C2 C 0.8856(5) 0.2325(3) -0.0449(3)
H1 H 0.9607 0.2004 0.0114
C3 C 1.0056(6) 0.2273(3) -0.1507(3)
H2 H 1.0965 0.2793 -0.1735
H3 H 0.9293 0.2551 -0.2052
C4 C 1.1054(5) 0.1062(3) -0.1450(3)
C5 C 0.4505(6) 0.3333(3) 0.1933(3)
H4 H 0.4148 0.4056 0.1439
C6 C 0.4641(6) 0.3284(3) 0.2930(3)
H5 H 0.4343 0.3956 0.3106
C7 C 0.5227(5) 0.2224(3) 0.3679(3)
C8 C 0.5647(6) 0.1273(3) 0.3347(3)
H6 H 0.6077 0.0548 0.3809
C9 C 0.5434(6) 0.1390(3) 0.2341(3)
H7 H 0.5706 0.0732 0.2145
C10 C 0.5378(6) 0.2115(4) 0.4765(3)
H8 H 0.5896 0.1397 0.5196
C11 C 0.4841(6) 0.2951(4) 0.5179(3)
H9 H 0.4380 0.3674 0.4726
C12 C 0.4887(5) 0.2869(3) 0.6271(3)
C13 C 0.4229(6) 0.3840(3) 0.6587(3)
H10 H 0.3816 0.4546 0.6092
C14 C 0.4186(5) 0.3759(3) 0.7627(3)
H11 H 0.3737 0.4420 0.7816
C15 C 0.5539(6) 0.1854(4) 0.7047(3)
H12 H 0.6040 0.1186 0.6875
C16 C 0.5435(5) 0.1846(3) 0.8068(3)
H13 H 0.5860 0.1155 0.8576
Co1 Co 0.46932(7) 0.26405(4) 0.00081(4)
N1 N 0.4851(4) 0.2415(3) 0.1627(2)
N2 N 0.4761(4) 0.2772(3) 0.8378(2)
O1 O 0.6366(3) 0.3908(2) -0.0525(2)
O2 O 0.7373(3) 0.1669(2) -0.0140(2)
O3 O 0.9173(4) 0.4273(2) -0.0736(3)
O4 O 1.1026(5) 0.0702(3) -0.2165(3)
O5 O 1.1909(4) 0.0514(2) -0.0675(2)
O6 O 0.2325(4) 0.3871(3) -0.0006(3)
O7 O 0.3356(4) 0.1219(3) 0.0553(2)
H19 H 0.291(6) 0.107(4) 0.015(3)
H20 H 0.211(7) 0.450(5) 0.019(4)
H21 H 0.146(7) 0.381(4) -0.020(4)
H22 H 0.261(8) 0.101(5) 0.117(5)
H25 H 1.05(2) 0.049(16) -0.252(14)
C5_2 C 0.4505(6) 0.3333(3) -0.8067(3)
H4_2 H 0.4148 0.4056 -0.8561
C6_2 C 0.4641(6) 0.3284(3) -0.7070(3)
H5_2 H 0.4343 0.3956 -0.6894
C7_2 C 0.5227(5) 0.2224(3) -0.6321(3)
C8_2 C 0.5647(6) 0.1273(3) -0.6653(3)
H6_2 H 0.6077 0.0548 -0.6191
C9_2 C 0.5434(6) 0.1390(3) -0.7659(3)
H7_2 H 0.5706 0.0732 -0.7855
C10_2 C 0.5378(6) 0.2115(4) -0.5235(3)
H8_2 H 0.5896 0.1397 -0.4804
C11_2 C 0.4841(6) 0.2951(4) -0.4821(3)
H9_2 H 0.4380 0.3674 -0.5274
C12_2 C 0.4887(5) 0.2869(3) -0.3729(3)
C13_2 C 0.4229(6) 0.3840(3) -0.3413(3)
H10_2 H 0.3816 0.4546 -0.3908
C14_2 C 0.4186(5) 0.3759(3) -0.2373(3)
H11_2 H 0.3737 0.4420 -0.2184
C15_2 C 0.5539(6) 0.1854(4) -0.2953(3)
H12_2 H 0.6040 0.1186 -0.3125
C16_2 C 0.5435(5) 0.1846(3) -0.1932(3)
H13_2 H 0.5860 0.1155 -0.1424
N1_2 N 0.4851(4) 0.2415(3) -0.8373(2)
N2_2 N 0.4761(4) 0.2772(3) -0.1622(2)
Co1_2 Co 0.46932(7) 0.26405(4) -0.99919(4)
C1_2 C 0.8065(5) 0.3601(3) -1.0572(3)
C2_2 C 0.8856(5) 0.2325(3) -1.0449(3)
H1_2 H 0.9607 0.2004 -0.9886
C3_2 C 1.0056(6) 0.2273(3) -1.1507(3)
H2_2 H 1.0965 0.2793 -1.1735
H3_2 H 0.9293 0.2551 -1.2052
C4_2 C 1.1054(5) 0.1062(3) -1.1450(3)
O1_2 O 0.6366(3) 0.3908(2) -1.0525(2)
O2_2 O 0.7373(3) 0.1669(2) -1.0140(2)
O3_2 O 0.9173(4) 0.4273(2) -1.0736(3)
O4_2 O 1.1026(5) 0.0702(3) -1.2165(3)
O5_2 O 1.1909(4) 0.0514(2) -1.0675(2)
H25_2 H 1.05(2) 0.049(16) -1.252(14)
O6_2 O 0.2325(4) 0.3871(3) -1.0006(3)
H20_2 H 0.211(7) 0.450(5) -0.981(4)
H21_2 H 0.146(7) 0.381(4) -1.020(4)
O7_2 O 0.3356(4) 0.1219(3) -0.9447(2)
H19_2 H 0.291(6) 0.107(4) -0.985(3)
H22_2 H 0.261(8) 0.101(5) -0.883(5)
Co1_3 Co 0.46932(7) 0.26405(4) 1.00081(4)
N2_3 N 0.4761(4) 0.2772(3) -1.1622(2)
C17 C 0.0181(7) 0.1709(5) 0.4745(5)
H14 H 0.0292 0.0922 0.5160
C18 C -0.0079(7) 0.3142(5) 0.3146(4)
H15 H -0.0170 0.3378 0.2423
C19 C -0.0115(7) 0.3986(5) 0.3562(4)
H16 H -0.0211 0.4766 0.3127
C20 C 0.0136(7) 0.2486(5) 0.5235(4)
H17 H 0.0200 0.2222 0.5963
C21 C -0.0005(6) 0.3649(5) 0.4650(4)
C22 C -0.0010(7) 0.4457(4) 0.5218(4)
H18 H -0.0030 0.4131 0.5958
N3 N 0.0076(6) 0.2015(4) 0.3712(4)
C22A C 0.0010(7) 0.5543(4) 0.4782(4)
C21A C 0.0005(6) 0.6351(5) 0.5350(4)
C19A C 0.0115(7) 0.6014(5) 0.6438(4)
C18A C 0.0079(7) 0.6858(5) 0.6854(4)
H15A H 0.0170 0.6622 0.7577
N3A N -0.0076(6) 0.7985(4) 0.6288(4)
C17A C -0.0181(7) 0.8291(5) 0.5255(5)
H14A H -0.0292 0.9078 0.4840
C20A C -0.0136(7) 0.7514(5) 0.4765(4)
H17A H -0.0200 0.7778 0.4037
H16A H 0.0211 0.5234 0.6873
H18A H 0.0030 0.5869 0.4042
O8 O 0.1225(5) 0.0465(3) 0.2525(3)
H23 H 0.065(10) 0.107(6) 0.308(6)
H24 H 0.033(7) 0.105(4) 0.214(4)
loop_
_geom_bond_atom_site_label_1
_geom_bond_atom_site_label_2
_geom_bond_site_symmetry_1
_geom_bond_site_symmetry_2
C1 C2 1_555 1_555
C2 H1 1_555 1_555
C3 C2 1_555 1_555
H2 C3 1_555 1_555
H3 C3 1_555 1_555
C4 C3 1_555 1_555
C5 H4 1_555 1_555
C6 C5 1_555 1_555
H5 C6 1_555 1_555
C7 C6 1_555 1_555
C8 C7 1_555 1_555
H6 C8 1_555 1_555
C9 C8 1_555 1_555
H7 C9 1_555 1_555
C10 C7 1_555 1_555
H8 C10 1_555 1_555
C11 C10 1_555 1_555
H9 C11 1_555 1_555
C12 C11 1_555 1_555
C13 C12 1_555 1_555
H10 C13 1_555 1_555
C14 C13 1_555 1_555
H11 C14 1_555 1_555
C15 C12 1_555 1_555
H12 C15 1_555 1_555
C16 C15 1_555 1_555
H13 C16 1_555 1_555
C17 H14 1_555 1_555
C18 H15 1_555 1_555
C19 C18 1_555 1_555
H16 C19 1_555 1_555
C20 C17 1_555 1_555
H17 C20 1_555 1_555
C21 C19 1_555 1_555
C22 C21 1_555 1_555
H18 C22 1_555 1_555
Co1 N1 1_555 1_555
N1 C5 1_555 1_555
N2 C14 1_555 1_555
N3 C17 1_555 1_555
O1 C1 1_555 1_555
O2 C2 1_555 1_555
O3 C1 1_555 1_555
O4 C4 1_555 1_555
O5 C4 1_555 1_555
O6 Co1 1_555 1_555
O7 Co1 1_555 1_555
O8 H23 1_555 1_555
H19 O7 1_555 1_555
H20 O6 1_555 1_555
H21 O6 1_555 1_555
H22 O7 1_555 1_555
H24 O8 1_555 1_555
H25 O4 1_555 1_555
C22A C22 1_555 1_555
C21A C22A 1_555 1_555
C19A C21A 1_555 1_555
C18A C19A 1_555 1_555
H15A C18A 1_555 1_555
N3A C18A 1_555 1_555
C17A N3A 1_555 1_555
H14A C17A 1_555 1_555
C20A C21A 1_555 1_555
H17A C20A 1_555 1_555
H16A C19A 1_555 1_555
H18A C22A 1_555 1_555
C5_2 H4_2 1_555 1_555
C6_2 C5_2 1_555 1_555
H5_2 C6_2 1_555 1_555
C7_2 C6_2 1_555 1_555
C8_2 C7_2 1_555 1_555
H6_2 C8_2 1_555 1_555
C9_2 C8_2 1_555 1_555
H7_2 C9_2 1_555 1_555
C10_2 C7_2 1_555 1_555
H8_2 C10_2 1_555 1_555
C11_2 C10_2 1_555 1_555
H9_2 C11_2 1_555 1_555
C12_2 C11_2 1_555 1_555
C13_2 C12_2 1_555 1_555
H10_2 C13_2 1_555 1_555
C14_2 C13_2 1_555 1_555
H11_2 C14_2 1_555 1_555
C15_2 C12_2 1_555 1_555
H12_2 C15_2 1_555 1_555
C16_2 C15_2 1_555 1_555
H13_2 C16_2 1_555 1_555
N1_2 C5_2 1_555 1_555
N2_2 Co1 1_555 1_555
Co1_2 N1_2 1_555 1_555
C1_2 C2_2 1_555 1_555
C2_2 H1_2 1_555 1_555
C3_2 C2_2 1_555 1_555
H2_2 C3_2 1_555 1_555
H3_2 C3_2 1_555 1_555
C4_2 C3_2 1_555 1_555
O1_2 Co1_2 1_555 1_555
O2_2 Co1_2 1_555 1_555
O3_2 C1_2 1_555 1_555
O4_2 C4_2 1_555 1_555
O5_2 C4_2 1_555 1_555
H25_2 O4_2 1_555 1_555
O6_2 Co1_2 1_555 1_555
H20_2 O6_2 1_555 1_555
H21_2 O6_2 1_555 1_555
O7_2 Co1_2 1_555 1_555
H19_2 O7_2 1_555 1_555
H22_2 O7_2 1_555 1_555
Co1_3 N2 1_555 1_555
N2_3 Co1_2 1_555 1_555
C9 N1 1_555 1_555
C16 N2 1_555 1_555
C18 N3 1_555 1_555
C20 C21 1_555 1_555
Co1 O1 1_555 1_555
Co1 O2 1_555 1_555
C17A C20A 1_555 1_555
C9_2 N1_2 1_555 1_555
C14_2 N2_2 1_555 1_555
C16_2 N2_2 1_555 1_555
C1_2 O1_2 1_555 1_555
C2_2 O2_2 1_555 1_555

#END
