
#######################################################################
#
#                 Cambridge Crystallographic Data Centre
#                                CCDC 
#
#######################################################################
#
# If this CIF has been generated from an entry in the Cambridge 
# Structural Database, then it will include bibliographic, chemical, 
# crystal, experimental, refinement or atomic coordinate data resulting 
# from the CCDC's data processing and validation procedures.
#
#######################################################################

data_OFUYUL
_symmetry_cell_setting           monoclinic
_symmetry_space_group_name_H-M   'P 21/c'
_symmetry_Int_Tables_number      14
_space_group_name_Hall           '-P 2ybc'
loop_
_symmetry_equiv_pos_site_id
_symmetry_equiv_pos_as_xyz
1 x,y,z
2 -x,1/2+y,1/2-z
3 -x,-y,-z
4 x,1/2-y,1/2+z
_cell_length_a                   16.784(2)
_cell_length_b                   12.9256(18)
_cell_length_c                   14.555(2)
_cell_angle_alpha                90
_cell_angle_beta                 108.565(2)
_cell_angle_gamma                90
_cell_volume                     2993.3
loop_
_atom_site_label
_atom_site_type_symbol
_atom_site_fract_x
_atom_site_fract_y
_atom_site_fract_z
Zn1 Zn 0.18210(4) 0.48622(5) 0.18028(5)
Zn2 Zn -0.34551(4) 0.55293(5) -0.09925(5)
O1 O 0.3840(3) 0.5422(5) 0.2110(5)
O2 O 0.2682(3) 0.5859(4) 0.2447(4)
O3 O 0.5881(3) 0.8229(4) 0.3584(4)
O4 O 0.3778(3) 0.9882(4) 0.4959(4)
O5 O 0.2743(4) 0.8761(6) 0.4678(6)
O6 O 0.0764(3) 0.5580(4) 0.1171(4)
O7 O 0.0885(4) 0.6536(6) 0.2458(5)
O8 O -0.1450(3) 0.8823(4) 0.2470(4)
O9 O -0.2712(4) 0.8595(6) 0.1458(5)
O10 O -0.2275(2) 0.5848(3) -0.0858(3)
C1 C 0.3429(4) 0.5995(5) 0.2494(5)
C2 C 0.3865(4) 0.6908(5) 0.3059(5)
C3 C 0.4695(4) 0.7140(5) 0.3114(5)
H1 H 0.4985 0.6692 0.2833
C4 C 0.5095(4) 0.8032(5) 0.3583(5)
C5 C 0.4653(4) 0.8660(5) 0.4034(5)
H2 H 0.4909 0.9254 0.4356
C6 C 0.3846(4) 0.8426(6) 0.4017(5)
C7 C 0.3407(4) 0.9057(6) 0.4587(6)
C8 C 0.3439(4) 0.7543(6) 0.3529(6)
H3 H 0.2896 0.7381 0.3518
C9 C 0.0474(4) 0.6218(6) 0.1643(5)
C10 C -0.0423(4) 0.6557(6) 0.1175(5)
C11 C -0.0764(4) 0.7306(6) 0.1637(5)
H4 H -0.0428 0.7625 0.2199
C12 C -0.1605(4) 0.7568(6) 0.1251(5)
C13 C -0.1966(4) 0.8377(6) 0.1756(6)
C14 C -0.2112(4) 0.7089(5) 0.0412(5)
H5 H -0.2676 0.7272 0.0157
C15 C -0.1777(4) 0.6337(5) -0.0047(5)
C16 C -0.0924(4) 0.6086(5) 0.0343(5)
H6 H -0.0692 0.5595 0.0036
Zn1A Zn -0.18210(4) 0.98622(5) 0.31972(5)
Zn1B Zn -0.18210(4) 0.51378(5) -0.18028(5)
Zn2A Zn 0.34551(4) 1.05293(5) 0.59925(5)
Zn2B Zn 0.34551(4) 0.44707(5) 0.09925(5)
Zn2C Zn 0.65449(4) 0.94707(5) 0.40075(5)
O1B O -0.3840(3) 0.4578(5) -0.2110(5)
O3C O -0.4119(3) 0.6771(4) -0.1416(4)
O4A O -0.3778(3) 0.4882(4) 0.0041(4)
O8A O 0.1450(3) 0.3823(4) 0.2530(4)
O10B O 0.2275(2) 0.4152(3) 0.0858(3)
O11 O 0.4118(6) 0.2925(8) 0.3316(7)
loop_
_geom_bond_atom_site_label_1
_geom_bond_atom_site_label_2
_geom_bond_site_symmetry_1
_geom_bond_site_symmetry_2
Zn1 O2 1_555 1_555
Zn2 O10 1_555 1_555
O1 C1 1_555 1_555
O2 C1 1_555 1_555
O3 C4 1_555 1_555
O4 C7 1_555 1_555
O5 C7 1_555 1_555
O6 Zn1 1_555 1_555
O7 C9 1_555 1_555
O8 C13 1_555 1_555
O9 C13 1_555 1_555
O10 C15 1_555 1_555
C1 C2 1_555 1_555
C2 C3 1_555 1_555
C3 H1 1_555 1_555
C4 C3 1_555 1_555
C5 C4 1_555 1_555
H2 C5 1_555 1_555
C6 C5 1_555 1_555
C7 C6 1_555 1_555
C8 C2 1_555 1_555
H3 C8 1_555 1_555
C9 O6 1_555 1_555
C10 C9 1_555 1_555
C11 C10 1_555 1_555
H4 C11 1_555 1_555
C12 C11 1_555 1_555
C13 C12 1_555 1_555
C14 C12 1_555 1_555
H5 C14 1_555 1_555
C15 C14 1_555 1_555
C16 C10 1_555 1_555
H6 C16 1_555 1_555
Zn1A O8 1_555 1_555
Zn1B O10 1_555 1_555
Zn2A O4 1_555 1_555
Zn2B O1 1_555 1_555
Zn2C O3 1_555 1_555
O1B Zn2 1_555 1_555
O3C Zn2 1_555 1_555
O4A Zn2 1_555 1_555
O8A Zn1 1_555 1_555
O10B Zn1 1_555 1_555
C6 C8 1_555 1_555
C15 C16 1_555 1_555
Zn2B O10B 1_555 1_555

#END
