
#######################################################################
#
#                 Cambridge Crystallographic Data Centre
#                                CCDC 
#
#######################################################################
#
# If this CIF has been generated from an entry in the Cambridge 
# Structural Database, then it will include bibliographic, chemical, 
# crystal, experimental, refinement or atomic coordinate data resulting 
# from the CCDC's data processing and validation procedures.
#
#######################################################################

data_OGAGUZ
_symmetry_cell_setting           monoclinic
_symmetry_space_group_name_H-M   'C 2/c'
_symmetry_Int_Tables_number      15
_space_group_name_Hall           '-C 2yn'
loop_
_symmetry_equiv_pos_site_id
_symmetry_equiv_pos_as_xyz
1 x,y,z
2 1/2+x,1/2+y,z
3 -x,y,1/2-z
4 1/2-x,1/2+y,1/2-z
5 -x,-y,-z
6 1/2-x,1/2-y,-z
7 x,-y,1/2+z
8 1/2+x,1/2-y,1/2+z
_cell_length_a                   28.988(6)
_cell_length_b                   11.254(2)
_cell_length_c                   17.347(4)
_cell_angle_alpha                90
_cell_angle_beta                 124.16(3)
_cell_angle_gamma                90
_cell_volume                     4682.77
loop_
_atom_site_label
_atom_site_type_symbol
_atom_site_fract_x
_atom_site_fract_y
_atom_site_fract_z
O11 O 0.1418(3) 0.9799(7) 0.5634(5)
H18 H 0.142(4) 0.9078(12) 0.569(5)
H19 H 0.151(5) 1.021(5) 0.609(4)
Zn1 Zn 0.0000 0.94649(7) 0.2500
Zn2 Zn 0.22577(3) 0.70992(6) 0.12506(5)
O1 O 0.0668(2) 0.8670(4) 0.2829(4)
O2 O 0.0797(3) 0.8112(5) 0.4154(5)
O4 O 0.18912(17) 0.7335(4) 0.1940(3)
O5 O 0.25794(19) 0.6087(4) 0.2820(3)
O6 O 0.2562(2) 0.3968(4) 0.5374(3)
O7 O 0.1911(3) 0.4433(4) 0.5573(4)
O9 O -0.0423(9) 1.3489(19) 0.5135(15)
H2 H -0.0322 1.3932 0.5594
N1 N 0.00648(19) 1.0659(4) 0.3452(3)
N2 N -0.1992(2) 1.2972(4) 0.2039(3)
C1 C 0.1370(3) 0.7257(6) 0.3718(5)
C2 C 0.1553(3) 0.7339(6) 0.3144(5)
H3 H 0.1390 0.7901 0.2650
C3 C 0.1976(3) 0.6598(5) 0.3285(4)
C4 C 0.2192(3) 0.5762(5) 0.3984(4)
H4 H 0.2486 0.5261 0.4089
C5 C 0.1992(3) 0.5637(6) 0.4533(4)
C6 C 0.1579(3) 0.6391(6) 0.4400(5)
H5 H 0.1438 0.6316 0.4776
C7 C 0.0910(4) 0.8046(7) 0.3559(6)
C8 C 0.2167(3) 0.6671(5) 0.2652(4)
C9 C 0.2179(3) 0.4631(6) 0.5210(5)
C10 C 0.0410(2) 1.1579(5) 0.3701(4)
H6 H 0.0674 1.1570 0.3539
C11 C 0.0401(3) 1.2536(6) 0.4178(5)
H7 H 0.0660 1.3166 0.4352
C12 C 0.0011(3) 1.2585(6) 0.4408(4)
C13 C -0.0320(3) 1.1604(6) 0.4197(5)
H8 H -0.0572 1.1569 0.4384
C14 C -0.0289(3) 1.0670(5) 0.3714(4)
H9 H -0.0529 1.0007 0.3561
C15 C -0.1585(2) 1.2986(6) 0.1912(4)
H10 H -0.1637 1.2588 0.1385
C16 C -0.1090(3) 1.3551(6) 0.2508(4)
H11 H -0.0813 1.3562 0.2375
C17 C -0.0986(2) 1.4104(5) 0.3296(4)
C18 C -0.1420(2) 1.4127(5) 0.3410(4)
H12 H -0.1376 1.4528 0.3929
C19 C -0.1911(3) 1.3576(5) 0.2782(4)
H13 H -0.2207 1.3616 0.2868
C20 C -0.0075(3) 1.3699(6) 0.4806(5)
C21 C 0.0486(3) 1.4226(6) 0.5575(5)
H14 H 0.0691 1.3635 0.6081
H15 H 0.0711 1.4392 0.5320
C22 C -0.0421(3) 1.4620(6) 0.4018(5)
O10 O 0.17975(19) 0.8311(5) 0.0216(3)
H16 H 0.192(2) 0.854(6) -0.008(4)
H17 H 0.161(2) 0.882(4) 0.028(5)
Zn1F Zn 0.0000 2.05351(7) 0.7500
Zn2B Zn -0.22577(3) 0.70992(6) 0.37494(5)
Zn2F Zn 0.22577(3) 0.29008(6) 0.62506(5)
Zn2A Zn -0.27423(3) 1.20992(6) 0.12506(5)
Zn2E Zn 0.27423(3) 1.79008(6) 0.87494(5)
Zn2D Zn -0.22577(3) 0.29008(6) -0.12506(5)
O1B O -0.0668(2) 0.8670(4) 0.2171(4)
O2B O -0.0797(3) 0.8112(5) 0.0846(5)
O4B O -0.18912(17) 0.7335(4) 0.3060(3)
O5B O -0.25794(19) 0.6087(4) 0.2180(3)
O6B O -0.2562(2) 0.3968(4) -0.0374(3)
O7B O -0.1911(3) 0.4433(4) -0.0573(4)
O7F O 0.1911(3) 0.5567(4) 0.0573(4)
O7D O -0.1911(3) 0.5567(4) 0.4427(4)
O9D O 0.0423(9) 1.6511(19) 0.4865(15)
H2D H 0.0322 1.6068 0.4406
N1D N -0.00648(19) 1.9341(4) 0.6548(3)
N1B N -0.00648(19) 1.0659(4) 0.1548(3)
N2D N 0.1992(2) 1.7028(4) 0.7961(3)
N2A N 0.3008(2) 0.7972(4) 0.2039(3)
N2C N -0.3008(2) 0.7972(4) 0.2961(3)
C1B C -0.1370(3) 0.7257(6) 0.1282(5)
C2B C -0.1553(3) 0.7339(6) 0.1856(5)
H3B H -0.1390 0.7901 0.2350
C3B C -0.1976(3) 0.6598(5) 0.1715(4)
C4B C -0.2192(3) 0.5762(5) 0.1016(4)
H4B H -0.2486 0.5261 0.0911
C5B C -0.1992(3) 0.5637(6) 0.0467(4)
C6B C -0.1579(3) 0.6391(6) 0.0600(5)
H5B H -0.1438 0.6316 0.0224
C7B C -0.0910(4) 0.8046(7) 0.1441(6)
C8B C -0.2167(3) 0.6671(5) 0.2348(4)
C9B C -0.2179(3) 0.4631(6) -0.0210(5)
C10D C -0.0410(2) 1.8421(5) 0.6299(4)
H6D H -0.0674 1.8430 0.6461
C11D C -0.0401(3) 1.7464(6) 0.5822(5)
H7D H -0.0660 1.6834 0.5648
C12D C -0.0011(3) 1.7415(6) 0.5592(4)
C13D C 0.0320(3) 1.8396(6) 0.5803(5)
H8D H 0.0572 1.8431 0.5616
C14D C 0.0289(3) 1.9330(5) 0.6286(4)
H9D H 0.0529 1.9993 0.6439
C15D C 0.1585(2) 1.7014(6) 0.8088(4)
H10D H 0.1637 1.7412 0.8615
C16D C 0.1090(3) 1.6449(6) 0.7492(4)
H11D H 0.0813 1.6438 0.7625
C17D C 0.0986(2) 1.5896(5) 0.6704(4)
C18D C 0.1420(2) 1.5873(5) 0.6590(4)
H12D H 0.1376 1.5472 0.6071
C19D C 0.1911(3) 1.6424(5) 0.7218(4)
H13D H 0.2207 1.6384 0.7132
C20D C 0.0075(3) 1.6301(6) 0.5194(5)
C21D C -0.0486(3) 1.5774(6) 0.4425(5)
H14D H -0.0691 1.6365 0.3919
H15D H -0.0711 1.5608 0.4680
C22D C 0.0421(3) 1.5380(6) 0.5982(5)
O10B O -0.17975(19) 0.8311(5) 0.4784(3)
H16B H -0.192(2) 0.854(6) 0.508(4)
H17B H -0.161(2) 0.882(4) 0.472(5)
O3? O 0.0497(11) 0.750(3) 0.347(3)
O8? O 0.4862(6) 0.9900(14) 0.3547(11)
H1? H 0.5096 1.0444 0.3838
loop_
_geom_bond_atom_site_label_1
_geom_bond_atom_site_label_2
_geom_bond_site_symmetry_1
_geom_bond_site_symmetry_2
Zn1 O1 1_555 1_555
Zn2 O4 1_555 1_555
O1 C7 1_555 1_555
O2 C7 1_555 1_555
O4 C8 1_555 1_555
O5 C8 1_555 1_555
O6 C9 1_555 1_555
O7 C9 1_555 1_555
O9 H2 1_555 1_555
N1 Zn1 1_555 1_555
N2 C15 1_555 1_555
C1 C2 1_555 1_555
C2 H3 1_555 1_555
C3 C2 1_555 1_555
C4 C3 1_555 1_555
H4 C4 1_555 1_555
C5 C4 1_555 1_555
C6 C1 1_555 1_555
H5 C6 1_555 1_555
C7 C1 1_555 1_555
C8 C3 1_555 1_555
C9 C5 1_555 1_555
C10 N1 1_555 1_555
H6 C10 1_555 1_555
C11 C10 1_555 1_555
H7 C11 1_555 1_555
C12 C11 1_555 1_555
C13 C12 1_555 1_555
H8 C13 1_555 1_555
C14 N1 1_555 1_555
H9 C14 1_555 1_555
C15 H10 1_555 1_555
C16 C15 1_555 1_555
H11 C16 1_555 1_555
C17 C16 1_555 1_555
C18 C17 1_555 1_555
H12 C18 1_555 1_555
C19 N2 1_555 1_555
H13 C19 1_555 1_555
C20 O9 1_555 1_555
C21 C20 1_555 1_555
H14 C21 1_555 1_555
H15 C21 1_555 1_555
C22 C17 1_555 1_555
O10 Zn2 1_555 1_555
H16 O10 1_555 1_555
H17 O10 1_555 1_555
O11 H18 1_555 1_555
H19 O11 1_555 1_555
Zn1F N1D 1_555 1_555
Zn2B O4B 1_555 1_555
Zn2F O7 1_555 1_555
Zn2A N2 1_555 1_555
Zn2E N2D 1_555 1_555
Zn2D O7B 1_555 1_555
O1B Zn1 1_555 1_555
O2B C7B 1_555 1_555
O4B C8B 1_555 1_555
O5B C8B 1_555 1_555
O6B C9B 1_555 1_555
O7B C9B 1_555 1_555
O7F Zn2 1_555 1_555
O7D Zn2B 1_555 1_555
O9D H2D 1_555 1_555
N1D C10D 1_555 1_555
N1B Zn1 1_555 1_555
N2D C15D 1_555 1_555
N2A Zn2 1_555 1_555
N2C Zn2B 1_555 1_555
C1B C2B 1_555 1_555
C2B H3B 1_555 1_555
C3B C2B 1_555 1_555
C4B C3B 1_555 1_555
H4B C4B 1_555 1_555
C5B C4B 1_555 1_555
C6B C1B 1_555 1_555
H5B C6B 1_555 1_555
C7B O1B 1_555 1_555
C8B C3B 1_555 1_555
C9B C5B 1_555 1_555
C10D H6D 1_555 1_555
C11D C10D 1_555 1_555
H7D C11D 1_555 1_555
C12D C11D 1_555 1_555
C13D C12D 1_555 1_555
H8D C13D 1_555 1_555
C14D N1D 1_555 1_555
H9D C14D 1_555 1_555
C15D H10D 1_555 1_555
C16D C15D 1_555 1_555
H11D C16D 1_555 1_555
C17D C16D 1_555 1_555
C18D C17D 1_555 1_555
H12D C18D 1_555 1_555
C19D N2D 1_555 1_555
H13D C19D 1_555 1_555
C20D O9D 1_555 1_555
C21D C22 1_555 1_555
H14D C21D 1_555 1_555
H15D C21D 1_555 1_555
C22D C21 1_555 1_555
O10B Zn2B 1_555 1_555
H16B O10B 1_555 1_555
H17B O10B 1_555 1_555
C5 C6 1_555 1_555
C12 C20 1_555 1_555
C13 C14 1_555 1_555
C18 C19 1_555 1_555
C20 C22 1_555 1_555
C1B C7B 1_555 1_555
C5B C6B 1_555 1_555
C12D C20D 1_555 1_555
C13D C14D 1_555 1_555
C17D C22D 1_555 1_555
C18D C19D 1_555 1_555
C20D C21D 1_555 1_555
C20D C22D 1_555 1_555

#END
