
#######################################################################
#
#                 Cambridge Crystallographic Data Centre
#                                CCDC 
#
#######################################################################
#
# If this CIF has been generated from an entry in the Cambridge 
# Structural Database, then it will include bibliographic, chemical, 
# crystal, experimental, refinement or atomic coordinate data resulting 
# from the CCDC's data processing and validation procedures.
#
#######################################################################

data_OGAGEJ
_symmetry_cell_setting           monoclinic
_symmetry_space_group_name_H-M   'P 21/n'
_symmetry_Int_Tables_number      14
_space_group_name_Hall           '-P 2yn'
loop_
_symmetry_equiv_pos_site_id
_symmetry_equiv_pos_as_xyz
1 x,y,z
2 1/2-x,1/2+y,1/2-z
3 -x,-y,-z
4 1/2+x,1/2-y,1/2+z
_cell_length_a                   10.3340(9)
_cell_length_b                   28.4469(16)
_cell_length_c                   11.7505(11)
_cell_angle_alpha                90
_cell_angle_beta                 117.350(11)
_cell_angle_gamma                90
_cell_volume                     3068.16
loop_
_atom_site_label
_atom_site_type_symbol
_atom_site_fract_x
_atom_site_fract_y
_atom_site_fract_z
C1 C 0.56318(19) 0.85642(6) 0.90982(17)
C2 C 0.5077(2) 0.81105(7) 0.90081(18)
H1 H 0.4435 0.7984 0.8194
C3 C 0.5460(2) 0.78464(7) 1.01020(19)
H2 H 0.5085 0.7538 1.0049
C4 C 0.6397(2) 0.80379(7) 1.12732(18)
C5 C 0.6953(2) 0.84853(7) 1.13844(18)
H3 H 0.7592 0.8609 1.2203
C6 C 0.65715(19) 0.87532(6) 1.02922(17)
H4 H 0.6946 0.9062 1.0355
N1 N 0.68023(19) 0.77596(7) 1.24314(17)
O1 O 0.52306(14) 0.88032(4) 0.79967(12)
H23 H 0.5547 0.908 0.8164
O2 O 0.61800(18) 0.73872(6) 1.23529(16)
O3 O 0.77606(19) 0.79153(6) 1.34523(15)
C7 C 1.07893(18) 0.95508(6) 1.38773(17)
C8 C 1.0242(2) 0.92331(7) 1.28591(17)
H5 H 0.9578 0.9337 1.2024
C9 C 1.0663(2) 0.87691(7) 1.30638(17)
H6 H 1.0299 0.8553 1.2371
C10 C 1.16187(19) 0.86196(6) 1.42856(18)
C11 C 1.2156(2) 0.89268(7) 1.53176(18)
H7 H 1.2797 0.8818 1.6154
C12 C 1.1740(2) 0.93936(7) 1.51057(17)
H8 H 1.2105 0.9609 1.5802
N2 N 1.20977(18) 0.81306(6) 1.44916(16)
O4 O 1.04564(14) 1.00103(4) 1.37445(12)
H24 H 1.00000 1.0077 1.2962
O5 O 1.28832(16) 0.79972(5) 1.55878(14)
O6 O 1.17094(19) 0.78706(5) 1.35600(15)
C13 C 1.01210(18) 1.15833(6) 1.00183(16)
H9 H 1.1035 1.1429 1.0327
C14 C 1.00724(19) 1.20599(6) 0.98273(16)
H10 H 1.0939 1.2228 1.0006
C15 C 0.87439(19) 1.22965(6) 0.93693(17)
C16 C 0.7522(2) 1.20268(6) 0.91281(19)
H11 H 0.6593 1.2172 0.8807
C17 C 0.76538(19) 1.15487(6) 0.93527(18)
H12 H 0.6806 1.1372 0.9192
C18 C 0.8692(2) 1.28203(6) 0.91621(19)
H13 H 0.9186 1.2892 0.8633
H14 H 0.9256 1.2974 1.0004
C19 C 0.71825(19) 1.30379(6) 0.85226(17)
H15 H 0.6706 1.2992 0.9078
H16 H 0.6588 1.2875 0.77
C20 C 0.7232(2) 1.35660(6) 0.82689(16)
H17 H 0.6227 1.3682 0.7743
H18 H 0.7779 1.3614 0.7772
C21 C 0.79389(19) 1.38495(5) 0.94843(16)
C22 C 0.94207(19) 1.39548(6) 1.00735(17)
H19 H 1.0014 1.3849 0.9702
C23 C 1.00287(19) 1.42112(6) 1.11904(17)
H20 H 1.1045 1.4274 1.1583
C24 C 0.78037(19) 1.42808(6) 1.11744(17)
H21 H 0.7227 1.4399 1.1549
C25 C 0.71329(19) 1.40196(6) 1.00698(17)
H22 H 0.6119 1.3956 0.9708
N3 N 0.89360(15) 1.13233(5) 0.97899(13)
N4 N 0.92398(15) 1.43771(5) 1.17496(13)
O7 O 0.61493(12) 1.05875(4) 0.98603(11)
O8 O 0.87417(12) 1.04005(4) 1.14389(11)
O9 O 0.80506(13) 1.02896(4) 0.84896(11)
O10 O 0.61405(12) 0.96879(4) 0.81816(12)
O11 O 0.87526(12) 0.94508(4) 0.93197(12)
O12 O 0.67382(13) 1.00162(5) 1.17110(12)
P1 P 0.71720(5) 1.045109(16) 1.12297(4)
H25 H 0.71671(5) 1.0794(5) 1.1942(10)
P2 P 0.76622(5) 0.977129(15) 0.83037(4)
H26 H 0.76158(8) 0.96546(17) 0.7273(15)
Zn1 Zn 0.91740(2) 1.062329(6) 1.007669(18)
Zn2 Zn 1.00371(2) 1.477940(7) 1.334250(19)
O7C O 1.11493(12) 1.44125(4) 1.48603(11)
O10C O 1.11405(12) 1.53121(4) 1.31816(12)
O11B O 1.12474(12) 1.05492(4) 1.06803(12)
O12A O 0.82618(13) 1.50162(5) 1.32890(12)
Zn1B Zn 1.08260(2) 0.937671(6) 0.992331(18)
Zn2C Zn 0.50371(2) 1.022060(7) 0.834250(19)
Zn2A Zn 0.49629(2) 0.977940(7) 1.165750(19)
loop_
_geom_bond_atom_site_label_1
_geom_bond_atom_site_label_2
_geom_bond_site_symmetry_1
_geom_bond_site_symmetry_2
C1 C2 1_555 1_555
C2 H1 1_555 1_555
C3 C2 1_555 1_555
H2 C3 1_555 1_555
C4 C3 1_555 1_555
C5 C4 1_555 1_555
H3 C5 1_555 1_555
C6 C1 1_555 1_555
H4 C6 1_555 1_555
C7 C8 1_555 1_555
C8 H5 1_555 1_555
C9 C8 1_555 1_555
H6 C9 1_555 1_555
C10 C9 1_555 1_555
C11 C10 1_555 1_555
H7 C11 1_555 1_555
C12 C7 1_555 1_555
H8 C12 1_555 1_555
C13 H9 1_555 1_555
C14 C13 1_555 1_555
H10 C14 1_555 1_555
C15 C14 1_555 1_555
C16 C15 1_555 1_555
H11 C16 1_555 1_555
C17 C16 1_555 1_555
H12 C17 1_555 1_555
C18 C15 1_555 1_555
H13 C18 1_555 1_555
H14 C18 1_555 1_555
C19 C18 1_555 1_555
H15 C19 1_555 1_555
H16 C19 1_555 1_555
C20 C19 1_555 1_555
H17 C20 1_555 1_555
H18 C20 1_555 1_555
C21 C20 1_555 1_555
C22 C21 1_555 1_555
H19 C22 1_555 1_555
C23 C22 1_555 1_555
H20 C23 1_555 1_555
C24 H21 1_555 1_555
C25 C21 1_555 1_555
H22 C25 1_555 1_555
N1 C4 1_555 1_555
N2 C10 1_555 1_555
N3 C13 1_555 1_555
N4 C23 1_555 1_555
O1 C1 1_555 1_555
H23 O1 1_555 1_555
O2 N1 1_555 1_555
O3 N1 1_555 1_555
O4 C7 1_555 1_555
H24 O4 1_555 1_555
O5 N2 1_555 1_555
O6 N2 1_555 1_555
O7 P1 1_555 1_555
O8 P1 1_555 1_555
O9 P2 1_555 1_555
O10 P2 1_555 1_555
O11 P2 1_555 1_555
O12 P1 1_555 1_555
P1 H25 1_555 1_555
P2 H26 1_555 1_555
Zn1 N3 1_555 1_555
Zn2 N4 1_555 1_555
O7C Zn2 1_555 1_555
O10C Zn2 1_555 1_555
O11B Zn1 1_555 1_555
O12A Zn2 1_555 1_555
Zn1B O11 1_555 1_555
Zn2C O7 1_555 1_555
Zn2A O12 1_555 1_555
C5 C6 1_555 1_555
C11 C12 1_555 1_555
C17 N3 1_555 1_555
C24 C25 1_555 1_555
C24 N4 1_555 1_555
O8 Zn1 1_555 1_555
O9 Zn1 1_555 1_555
O10 Zn2C 1_555 1_555

#END
