
#######################################################################
#
#                 Cambridge Crystallographic Data Centre
#                                CCDC 
#
#######################################################################
#
# If this CIF has been generated from an entry in the Cambridge 
# Structural Database, then it will include bibliographic, chemical, 
# crystal, experimental, refinement or atomic coordinate data resulting 
# from the CCDC's data processing and validation procedures.
#
#######################################################################

data_OGAGOT
_symmetry_cell_setting           monoclinic
_symmetry_space_group_name_H-M   'P 21/c'
_symmetry_Int_Tables_number      14
_space_group_name_Hall           '-P 2ybc'
loop_
_symmetry_equiv_pos_site_id
_symmetry_equiv_pos_as_xyz
1 x,y,z
2 -x,1/2+y,1/2-z
3 -x,-y,-z
4 x,1/2-y,1/2+z
_cell_length_a                   12.2340(13)
_cell_length_b                   12.3314(10)
_cell_length_c                   18.4265(17)
_cell_angle_alpha                90
_cell_angle_beta                 107.461(10)
_cell_angle_gamma                90
_cell_volume                     2651.77
loop_
_atom_site_label
_atom_site_type_symbol
_atom_site_fract_x
_atom_site_fract_y
_atom_site_fract_z
C1 C -0.1354(2) 0.23923(19) -0.08712(13)
H1 H -0.213 0.2501 -0.1164
C2 C -0.0719(2) 0.32443(19) -0.04503(13)
H2 H -0.1057 0.394 -0.0462
C3 C 0.0415(2) 0.30714(19) -0.00130(13)
C4 C 0.09030(19) 0.20494(19) 0.00128(13)
H3 H 0.1667 0.1928 0.0324
C5 C 0.0277(2) 0.12027(19) -0.04146(13)
H4 H 0.0613 0.0506 -0.0403
O4 O 0.10043(15) 0.39289(13) 0.03808(10)
H14 H 0.167 0.3731 0.0624
C12 C -0.0844(2) 0.13851(19) -0.08580(13)
Br1 Br -0.16841(2) 0.02375(2) -0.146746(14)
C6 C 0.0589(2) 1.36321(17) 0.21346(13)
H5 H -0.0137 1.3699 0.2264
H6 H 0.0394 1.3462 0.1585
C7 C 0.1225(2) 1.47239(17) 0.22862(13)
H7 H 0.1985 1.4642 0.2205
H8 H 0.0786 1.527 0.192
C8 C 0.1383(2) 1.51236(19) 0.30962(14)
H9 H 0.0631 1.5096 0.3194
H10 H 0.1899 1.4613 0.3454
C9 C 0.18618(19) 1.62516(17) 0.32739(13)
C10 C 0.2527(2) 1.67555(19) 0.28782(13)
H11 H 0.2682 1.6391 0.2466
C11 C 0.2964(2) 1.77816(18) 0.30814(13)
H12 H 0.3419 1.8107 0.2804
O1 O 0.34188(15) 0.98344(14) 0.50226(9)
O2 O 0.32240(14) 1.13487(13) 0.59006(10)
N1 N 0.26109(16) 1.10203(14) 0.34269(10)
O5 O 0.50441(14) 1.02535(13) 0.62148(9)
P1 P 0.37621(5) 1.02665(4) 0.58255(3)
H15 H 0.3340 0.9594 0.6203
Zn1 Zn 0.35459(2) 0.97808(2) 0.402052(14)
C14 C 0.12773(19) 1.27119(17) 0.25830(12)
C15 C 0.2944(2) 1.15626(18) 0.28934(13)
H16 H 0.3645 1.1364 0.2807
N2 N 0.27670(16) 1.83359(15) 0.36580(10)
C19 C 0.2120(2) 1.78596(18) 0.40416(13)
H20 H 0.1979 1.8242 0.4452
C20 C 0.2309(2) 1.23930(18) 0.24682(13)
H21 H 0.2574 1.275 0.2096
C22 C 0.1652(2) 1.68396(18) 0.38649(13)
H22 H 0.1187 1.6539 0.4145
C23 C 0.0942(2) 1.21496(18) 0.31372(13)
H23 H 0.0248 1.2337 0.3238
C24 C 0.1615(2) 1.13206(18) 0.35401(13)
H24 H 0.1366 1.0946 0.3913
O5B O 0.49559(14) 0.97465(13) 0.37852(9)
Zn1B Zn 0.64541(2) 1.02192(2) 0.597948(14)
Zn1_2 Zn 0.35459(2) 1.97808(2) 0.402052(14)
N2_2 N 0.27670(16) 0.83359(15) 0.36580(10)
O3 O 0.54996(15) 0.71619(13) 0.32160(10)
H13 H 0.579 0.7606 0.3567
C13 C 0.5502(2) 0.40504(19) 0.40396(14)
Br2 Br 0.55090(2) 0.25977(2) 0.439209(16)
C16 C 0.5959(2) 0.4873(2) 0.45531(14)
H17 H 0.6271 0.4717 0.508
C17 C 0.5050(2) 0.42552(19) 0.32695(14)
H18 H 0.4738 0.3684 0.2923
C18 C 0.5061(2) 0.53118(19) 0.30120(14)
H19 H 0.4757 0.5463 0.2484
C21 C 0.5512(2) 0.61513(18) 0.35157(13)
C25 C 0.5955(2) 0.59283(19) 0.42883(13)
H25 H 0.6256 0.65 0.4637
loop_
_geom_bond_atom_site_label_1
_geom_bond_atom_site_label_2
_geom_bond_site_symmetry_1
_geom_bond_site_symmetry_2
C1 H1 1_555 1_555
C2 C1 1_555 1_555
H2 C2 1_555 1_555
C3 C2 1_555 1_555
C4 C3 1_555 1_555
H3 C4 1_555 1_555
C5 C4 1_555 1_555
H4 C5 1_555 1_555
C6 H5 1_555 1_555
H6 C6 1_555 1_555
C7 C6 1_555 1_555
H7 C7 1_555 1_555
H8 C7 1_555 1_555
C8 C7 1_555 1_555
H9 C8 1_555 1_555
H10 C8 1_555 1_555
C9 C8 1_555 1_555
C10 C9 1_555 1_555
H11 C10 1_555 1_555
C11 C10 1_555 1_555
H12 C11 1_555 1_555
O1 P1 1_555 1_555
O2 P1 1_555 1_555
O3 H13 1_555 1_555
O4 C3 1_555 1_555
H14 O4 1_555 1_555
N1 Zn1 1_555 1_555
O5 P1 1_555 1_555
P1 H15 1_555 1_555
Zn1 O1 1_555 1_555
C12 C1 1_555 1_555
Br1 C12 1_555 1_555
C13 Br2 1_555 1_555
C14 C6 1_555 1_555
C15 N1 1_555 1_555
H16 C15 1_555 1_555
C16 C13 1_555 1_555
H17 C16 1_555 1_555
N2 C11 1_555 1_555
C17 C13 1_555 1_555
H18 C17 1_555 1_555
C18 C17 1_555 1_555
H19 C18 1_555 1_555
C19 N2 1_555 1_555
H20 C19 1_555 1_555
C20 C14 1_555 1_555
H21 C20 1_555 1_555
C21 O3 1_555 1_555
C22 C9 1_555 1_555
H22 C22 1_555 1_555
C23 C14 1_555 1_555
H23 C23 1_555 1_555
C24 N1 1_555 1_555
H24 C24 1_555 1_555
C25 C16 1_555 1_555
H25 C25 1_555 1_555
O5B Zn1 1_555 1_555
Zn1B O5 1_555 1_555
Zn1_2 N2 1_555 1_555
N2_2 Zn1 1_555 1_555
C5 C12 1_555 1_555
C15 C20 1_555 1_555
C18 C21 1_555 1_555
C19 C22 1_555 1_555
C21 C25 1_555 1_555
C23 C24 1_555 1_555

#END
