
#######################################################################
#
#                 Cambridge Crystallographic Data Centre
#                                CCDC 
#
#######################################################################
#
# If this CIF has been generated from an entry in the Cambridge 
# Structural Database, then it will include bibliographic, chemical, 
# crystal, experimental, refinement or atomic coordinate data resulting 
# from the CCDC's data processing and validation procedures.
#
#######################################################################

data_OGAGIN
_symmetry_cell_setting           monoclinic
_symmetry_space_group_name_H-M   'P 21/c'
_symmetry_Int_Tables_number      14
_space_group_name_Hall           '-P 2ybc'
loop_
_symmetry_equiv_pos_site_id
_symmetry_equiv_pos_as_xyz
1 x,y,z
2 -x,1/2+y,1/2-z
3 -x,-y,-z
4 x,1/2-y,1/2+z
_cell_length_a                   22.9229(14)
_cell_length_b                   9.9797(6)
_cell_length_c                   9.7714(6)
_cell_angle_alpha                90
_cell_angle_beta                 91.535(5)
_cell_angle_gamma                90
_cell_volume                     2234.54
loop_
_atom_site_label
_atom_site_type_symbol
_atom_site_fract_x
_atom_site_fract_y
_atom_site_fract_z
C1 C 0.39184(8) 0.67336(18) 0.4762(2)
H1 H 0.3919 0.5783 0.4806
C2 C 0.35180(8) 0.73525(19) 0.38891(19)
H2 H 0.3246 0.6831 0.3369
C3 C 0.35148(7) 0.87468(18) 0.37741(18)
C4 C 0.39195(8) 0.94413(18) 0.45939(18)
H3 H 0.3932 1.0392 0.4559
C5 C 0.43035(8) 0.87579(18) 0.54586(18)
H4 H 0.4574 0.9257 0.6007
C6 C 0.31056(8) 0.94845(18) 0.28044(19)
H5 H 0.3321 0.9716 0.1973
H6 H 0.2992 1.0336 0.3243
C7 C 0.25507(7) 0.87385(19) 0.23645(19)
H7 H 0.2656 0.7875 0.1938
H8 H 0.2318 0.8542 0.318
C8 C 0.21839(8) 0.95615(19) 0.1349(2)
H9 H 0.2093 1.0431 0.1781
H10 H 0.2423 0.9752 0.0543
C9 C 0.16191(8) 0.89327(18) 0.08516(18)
C10 C 0.14326(8) 0.76790(19) 0.1276(2)
H11 H 0.1659 0.7187 0.1931
C11 C 0.09170(8) 0.71468(19) 0.0746(2)
H12 H 0.0798 0.6289 0.1053
C12 C 0.12551(8) 0.9610(2) -0.00772(19)
H13 H 0.1357 1.0483 -0.0373
C13 C 0.07461(8) 0.90219(19) -0.05727(19)
H14 H 0.0506 0.9504 -0.121
O1 O -0.06909(6) 0.62301(14) 0.02115(14)
O2 O 0.56117(5) 0.65276(12) 0.52551(12)
O3 O 0.52521(6) 0.79316(12) 0.32607(12)
O4 O 0.52349(6) 0.54160(13) 0.30687(13)
O5 O -0.05027(6) 0.70861(14) 0.25984(15)
O6 O -0.01308(6) 0.48194(14) 0.19595(14)
P1 P 0.55381(2) 0.66294(4) 0.36902(4)
H19 H 0.6053(8) 0.66485(5) 0.3215(7)
P2 P -0.05985(2) 0.58749(5) 0.17224(5)
H20 H -0.1083(7) 0.5343(8) 0.2108(6)
Zn1 Zn -0.010873(9) 0.68204(2) -0.10752(2)
Zn2 Zn 0.496303(9) 0.64117(2) 0.65362(2)
N1 N 0.43079(6) 0.74091(15) 0.55513(15)
N2 N 0.05778(6) 0.77861(15) -0.01817(15)
O3C O 0.52521(6) 0.70684(12) 0.82607(12)
O4B O 0.47651(6) 0.45840(13) 0.69313(13)
O5C O -0.05027(6) 0.79139(14) -0.24016(15)
O6B O 0.01308(6) 0.51806(14) -0.19595(14)
Zn1C Zn -0.010873(9) 0.81796(2) 0.39248(2)
Zn1B Zn 0.010873(9) 0.31796(2) 0.10752(2)
Zn2C Zn 0.496303(9) 0.85883(2) 0.15362(2)
Zn2B Zn 0.503697(9) 0.35883(2) 0.34638(2)
C14 C 0.78667(8) 0.57355(18) 0.86088(19)
C15 C 0.80614(8) 0.66723(19) 0.7683(2)
H15 H 0.8456 0.6967 0.773
C16 C 0.76794(8) 0.7183(2) 0.6682(2)
H16 H 0.7815 0.7819 0.604
C17 C 0.71006(8) 0.67685(18) 0.6618(2)
C18 C 0.69070(8) 0.58234(19) 0.75430(19)
H17 H 0.6512 0.5534 0.7506
C19 C 0.72942(8) 0.53020(19) 0.85237(19)
H18 H 0.7164 0.464 0.9143
O7 O 0.67407(6) 0.73405(15) 0.56442(16)
O8 O 0.82141(6) 0.52310(15) 0.96498(15)
H21 H 0.8539(11) 0.565(2) 0.965(3)
H22 H 0.6371(12) 0.702(3) 0.576(3)
loop_
_geom_bond_atom_site_label_1
_geom_bond_atom_site_label_2
_geom_bond_site_symmetry_1
_geom_bond_site_symmetry_2
C1 H1 1_555 1_555
C2 C1 1_555 1_555
H2 C2 1_555 1_555
C3 C2 1_555 1_555
C4 C3 1_555 1_555
H3 C4 1_555 1_555
C5 C4 1_555 1_555
H4 C5 1_555 1_555
C6 C3 1_555 1_555
H5 C6 1_555 1_555
H6 C6 1_555 1_555
C7 C6 1_555 1_555
H7 C7 1_555 1_555
H8 C7 1_555 1_555
C8 C7 1_555 1_555
H9 C8 1_555 1_555
H10 C8 1_555 1_555
C9 C8 1_555 1_555
C10 C9 1_555 1_555
H11 C10 1_555 1_555
C11 C10 1_555 1_555
H12 C11 1_555 1_555
C12 C9 1_555 1_555
H13 C12 1_555 1_555
C13 C12 1_555 1_555
H14 C13 1_555 1_555
C14 C15 1_555 1_555
C15 H15 1_555 1_555
C16 C15 1_555 1_555
H16 C16 1_555 1_555
C17 C16 1_555 1_555
C18 C17 1_555 1_555
H17 C18 1_555 1_555
C19 C14 1_555 1_555
H18 C19 1_555 1_555
O1 P2 1_555 1_555
O2 P1 1_555 1_555
O3 P1 1_555 1_555
O4 P1 1_555 1_555
O5 P2 1_555 1_555
O6 P2 1_555 1_555
O7 C17 1_555 1_555
O8 C14 1_555 1_555
P1 H19 1_555 1_555
P2 H20 1_555 1_555
Zn1 O1 1_555 1_555
Zn2 O2 1_555 1_555
N1 C1 1_555 1_555
N2 C11 1_555 1_555
H21 O8 1_555 1_555
H22 O7 1_555 1_555
O3C Zn2 1_555 1_555
O4B Zn2 1_555 1_555
O5C Zn1 1_555 1_555
O6B Zn1 1_555 1_555
Zn1C O5 1_555 1_555
Zn1B O6 1_555 1_555
Zn2C O3 1_555 1_555
Zn2B O4 1_555 1_555
C5 N1 1_555 1_555
C13 N2 1_555 1_555
C18 C19 1_555 1_555
Zn1 N2 1_555 1_555
Zn2 N1 1_555 1_555

#END
