
#######################################################################
#
#                 Cambridge Crystallographic Data Centre
#                                CCDC 
#
#######################################################################
#
# If this CIF has been generated from an entry in the Cambridge 
# Structural Database, then it will include bibliographic, chemical, 
# crystal, experimental, refinement or atomic coordinate data resulting 
# from the CCDC's data processing and validation procedures.
#
#######################################################################

data_OGAHOV
_symmetry_cell_setting           triclinic
_symmetry_space_group_name_H-M   'P -1'
_symmetry_Int_Tables_number      2
_space_group_name_Hall           '-P 1'
loop_
_symmetry_equiv_pos_site_id
_symmetry_equiv_pos_as_xyz
1 x,y,z
2 -x,-y,-z
_cell_length_a                   15.138(2)
_cell_length_b                   15.585(2)
_cell_length_c                   16.967(2)
_cell_angle_alpha                64.023(5)
_cell_angle_beta                 80.796(5)
_cell_angle_gamma                81.440(6)
_cell_volume                     3538.18
loop_
_atom_site_label
_atom_site_type_symbol
_atom_site_fract_x
_atom_site_fract_y
_atom_site_fract_z
O1 O 0.2100(4) 0.5883(4) 0.1909(4)
O2 O 0.4316(3) 0.3661(3) 0.3593(3)
O3 O 0.2411(3) 0.2619(3) 0.3920(3)
O4 O 0.3932(3) 0.5142(3) 0.1987(3)
O5 O 0.1338(3) 0.4344(4) 0.3368(3)
Yb1 Yb 0.291108(15) 0.413241(18) 0.308712(15)
C1 C 0.0511(4) 0.8517(4) 0.3613(4)
H1 H 0.0227 0.8721 0.4072
H2 H 0.0682 0.9093 0.3089
C2 C 0.1466(4) 0.7410(5) 0.2192(4)
H3 H 0.1700 0.6996 0.1893
H4 H 0.1584 0.8069 0.1781
C3 C 0.2325(4) 0.6156(4) -0.1788(4)
H5 H 0.2568 0.6057 -0.2316
H6 H 0.1726 0.6498 -0.1889
C4 C 0.1817(4) 0.6322(5) 0.0267(4)
H7 H 0.1780 0.6309 0.0855
H8 H 0.1240 0.6615 0.0034
C5 C 0.2494(4) 0.6308(4) 0.3248(4)
C6 C 0.2073(4) 0.7753(4) 0.3341(4)
H9 H 0.2300 0.8362 0.2890
C7 C 0.2765(4) 0.7152(4) 0.4003(4)
H10 H 0.3304 0.7498 0.3887
C8 C 0.1465(4) 0.7501(5) 0.4769(4)
C9 C 0.3600(4) 0.5521(5) 0.4309(4)
H11 H 0.4094 0.5774 0.4428
H12 H 0.3855 0.5199 0.3930
C10 C 0.2666(5) 0.6539(5) 0.5683(4)
H13 H 0.2382 0.6848 0.6065
H14 H 0.3306 0.6641 0.5567
C11 C 0.2844(4) 0.4045(4) 0.5175(4)
C12 C 0.3181(4) 0.4821(4) 0.5980(4)
H15 H 0.3792 0.4828 0.6114
C13 C 0.2772(4) 0.3862(5) 0.6620(4)
H16 H 0.3193 0.3424 0.7046
C14 C 0.1872(4) 0.5145(5) 0.6785(4)
C15 C 0.2404(4) 0.2505(4) 0.6309(4)
H17 H 0.2755 0.2091 0.6800
H18 H 0.2610 0.2318 0.5823
C16 C 0.1457(4) 0.3509(5) 0.7796(4)
H19 H 0.1862 0.2991 0.8171
H20 H 0.1140 0.3848 0.8141
C17 C 0.0948(4) 0.2137(4) 0.6113(4)
C18 C 0.1038(4) 0.2219(4) 0.7440(4)
H21 H 0.1380 0.1727 0.7916
C19 C 0.0103(4) 0.1907(4) 0.7472(4)
H22 H 0.0006 0.1267 0.7958
C20 C -0.0089(4) 0.3312(4) 0.7668(4)
C21 C 0.2118(4) 0.4602(5) 0.1121(4)
C22 C 0.1650(3) 0.5054(4) -0.0252(4)
H23 H 0.1024 0.5312 -0.0378
C23 C 0.1725(4) 0.3968(5) 0.0237(4)
H24 H 0.1143 0.3708 0.0315
C24 C 0.2651(4) 0.4410(5) -0.1083(4)
C25 C 0.2141(4) 0.2861(4) 0.1799(4)
H25 H 0.1727 0.2442 0.1785
H26 H 0.1990 0.2920 0.2358
C26 C 0.2720(5) 0.2675(5) -0.0143(4)
H27 H 0.2223 0.2274 0.0170
H28 H 0.2894 0.2624 -0.0703
C27 C 0.3708(4) 0.2577(4) 0.2126(3)
C28 C 0.3371(4) 0.1808(4) 0.1326(4)
H29 H 0.3017 0.1248 0.1544
C29 C 0.4365(4) 0.1500(4) 0.1538(4)
H30 H 0.4471 0.0800 0.1890
C30 C 0.4332(4) 0.2253(4) 0.0018(4)
C31 C 0.5208(4) 0.1846(4) 0.2538(4)
H31 H 0.5372 0.1153 0.2807
H32 H 0.5011 0.2047 0.3015
C32 C 0.5807(4) 0.1547(5) 0.0546(4)
H33 H 0.5944 0.1586 -0.0052
H34 H 0.5945 0.0880 0.0959
C33 C 0.6283(4) 0.3050(4) 0.2154(4)
C34 C 0.6640(4) 0.1973(4) 0.1507(4)
H35 H 0.6840 0.1290 0.1847
C35 C 0.7424(4) 0.2620(4) 0.1247(4)
H36 H 0.7992 0.2238 0.1458
C36 C 0.6883(4) 0.2791(4) -0.0033(4)
N1 N 0.1945(3) 0.7122(3) 0.2960(3)
N2 N 0.2983(3) 0.6301(3) 0.3848(3)
N3 N 0.1314(3) 0.7912(4) 0.3914(3)
N4 N 0.2281(3) 0.6992(4) 0.4871(3)
N5 N 0.3207(3) 0.4829(4) 0.5127(3)
N6 N 0.1981(3) 0.4163(4) 0.7047(3)
N7 N 0.1461(3) 0.2326(4) 0.6588(3)
N8 N 0.0138(3) 0.1901(4) 0.6599(3)
N9 N 0.0816(3) 0.3101(4) 0.7560(3)
N10 N -0.0511(3) 0.2642(3) 0.7591(3)
N11 N 0.1944(3) 0.5361(4) 0.0355(3)
N12 N 0.2008(3) 0.3791(4) 0.1086(3)
N13 N 0.2230(3) 0.5221(4) -0.1044(3)
N14 N 0.3040(3) 0.2424(3) 0.1770(3)
N15 N 0.4473(3) 0.2041(3) 0.2026(3)
N16 N 0.3454(3) 0.2307(4) 0.0364(3)
N17 N 0.4852(3) 0.1810(4) 0.0692(3)
N18 N 0.5999(3) 0.2326(3) 0.2026(3)
N19 N 0.7105(3) 0.3244(4) 0.1681(3)
N20 N 0.6380(3) 0.2143(4) 0.0654(3)
N21 N 0.7481(3) 0.3074(4) 0.0301(3)
N22 N 0.2406(3) 0.3648(4) -0.0326(3)
N23 N 0.2593(3) 0.3468(4) 0.6028(3)
N24 N 0.2575(4) 0.5525(4) 0.6146(4)
O6 O 0.2554(3) 0.5654(3) 0.2999(3)
O7 O 0.2777(3) 0.3876(3) 0.4544(3)
O8 O 0.1162(3) 0.2135(3) 0.5392(3)
O9 O 0.0934(4) 0.7584(4) 0.5385(3)
O10 O 0.1300(3) 0.5578(4) 0.7069(3)
O11 O -0.0460(3) 0.3984(3) 0.7829(3)
O12 O 0.2321(3) 0.4675(3) 0.1779(3)
O13 O 0.3634(3) 0.3101(3) 0.2504(3)
O14 O 0.5890(3) 0.3432(3) 0.2616(3)
O15 O 0.3146(3) 0.4354(3) -0.1718(3)
O16 O 0.4593(4) 0.2555(4) -0.0766(3)
O17 O 0.6813(3) 0.3041(3) -0.0816(3)
C1A C -0.0511(4) 0.1483(4) 0.6387(4)
H1A H -0.0227 0.1279 0.5928
H2A H -0.0682 0.0907 0.6911
C2A C -0.1466(4) 0.2590(5) 0.7808(4)
H3A H -0.1700 0.3004 0.8107
H4A H -0.1584 0.1931 0.8219
C5A C -0.2494(4) 0.3692(4) 0.6752(4)
C6A C -0.2073(4) 0.2247(4) 0.6659(4)
H9A H -0.2300 0.1638 0.7110
C7A C -0.2765(4) 0.2848(4) 0.5997(4)
H10A H -0.3304 0.2502 0.6113
C8A C -0.1465(4) 0.2499(5) 0.5231(4)
C9A C -0.3600(4) 0.4479(5) 0.5691(4)
H11A H -0.4094 0.4226 0.5572
H12A H -0.3855 0.4801 0.6070
C10A C -0.2666(5) 0.3461(5) 0.4317(4)
H13A H -0.2382 0.3152 0.3935
H14A H -0.3306 0.3359 0.4433
C11A C -0.2844(4) 0.5955(4) 0.4825(4)
C12A C -0.3181(4) 0.5179(4) 0.4020(4)
H15A H -0.3792 0.5172 0.3886
C13A C -0.2772(4) 0.6138(5) 0.3380(4)
H16A H -0.3193 0.6576 0.2954
C14A C -0.1872(4) 0.4855(5) 0.3215(4)
C15A C -0.2404(4) 0.7495(4) 0.3691(4)
H17A H -0.2755 0.7909 0.3200
H18A H -0.2610 0.7682 0.4177
C16A C -0.1457(4) 0.6491(5) 0.2204(4)
H19A H -0.1862 0.7009 0.1829
H20A H -0.1140 0.6152 0.1859
C17A C -0.0948(4) 0.7863(4) 0.3887(4)
C18A C -0.1038(4) 0.7781(4) 0.2560(4)
H21A H -0.1380 0.8273 0.2084
C19A C -0.0103(4) 0.8093(4) 0.2528(4)
H22A H -0.0006 0.8733 0.2042
C20A C 0.0089(4) 0.6688(4) 0.2332(4)
N1A N -0.1945(3) 0.2878(3) 0.7040(3)
N2A N -0.2983(3) 0.3699(3) 0.6152(3)
N3A N -0.1314(3) 0.2088(4) 0.6086(3)
N4A N -0.2281(3) 0.3008(4) 0.5129(3)
N5A N -0.3207(3) 0.5171(4) 0.4873(3)
N6A N -0.1981(3) 0.5837(4) 0.2953(3)
N7A N -0.1461(3) 0.7674(4) 0.3412(3)
N8A N -0.0138(3) 0.8099(4) 0.3401(3)
N9A N -0.0816(3) 0.6899(4) 0.2440(3)
N10A N 0.0511(3) 0.7358(3) 0.2409(3)
N23A N -0.2593(3) 0.6532(4) 0.3972(3)
N24A N -0.2575(4) 0.4475(4) 0.3854(4)
O6A O -0.2554(3) 0.4346(3) 0.7001(3)
O7A O -0.2777(3) 0.6124(3) 0.5456(3)
O8A O -0.1162(3) 0.7865(3) 0.4608(3)
O9A O -0.0934(4) 0.2416(4) 0.4615(3)
O10A O -0.1300(3) 0.4422(4) 0.2931(3)
O11A O 0.0460(3) 0.6016(3) 0.2171(3)
C3A C 0.7675(4) 0.3844(4) 0.1788(4)
H5A H 0.7432 0.3943 0.2316
H6A H 0.8274 0.3502 0.1889
C4A C 0.8183(4) 0.3678(5) -0.0267(4)
H7A H 0.8220 0.3691 -0.0855
H8A H 0.8760 0.3385 -0.0034
C21A C 0.7882(4) 0.5398(5) -0.1121(4)
C22A C 0.8350(3) 0.4946(4) 0.0252(4)
H23A H 0.8976 0.4688 0.0378
C23A C 0.8275(4) 0.6032(5) -0.0237(4)
H24A H 0.8857 0.6292 -0.0315
C24A C 0.7349(4) 0.5590(5) 0.1083(4)
C25A C 0.7859(4) 0.7139(4) -0.1799(4)
H25A H 0.8273 0.7558 -0.1785
H26A H 0.8010 0.7080 -0.2358
C26A C 0.7280(5) 0.7325(5) 0.0143(4)
H27A H 0.7777 0.7726 -0.0170
H28A H 0.7106 0.7376 0.0703
C27A C 0.6292(4) 0.7423(4) -0.2126(3)
C28A C 0.6629(4) 0.8192(4) -0.1326(4)
H29A H 0.6983 0.8752 -0.1544
C29A C 0.5635(4) 0.8500(4) -0.1538(4)
H30A H 0.5529 0.9200 -0.1890
C30A C 0.5668(4) 0.7747(4) -0.0018(4)
C31A C 0.4792(4) 0.8154(4) -0.2538(4)
H31A H 0.4628 0.8847 -0.2807
H32A H 0.4989 0.7953 -0.3015
C32A C 0.4193(4) 0.8453(5) -0.0546(4)
H33A H 0.4056 0.8414 0.0052
H34A H 0.4055 0.9120 -0.0959
C33A C 0.3717(4) 0.6950(4) -0.2154(4)
C34A C 0.3360(4) 0.8027(4) -0.1507(4)
H35A H 0.3160 0.8710 -0.1847
C35A C 0.2576(4) 0.7380(4) -0.1247(4)
H36A H 0.2008 0.7762 -0.1458
C36A C 0.3117(4) 0.7209(4) 0.0033(4)
N11A N 0.8056(3) 0.4639(4) -0.0355(3)
N12A N 0.7992(3) 0.6209(4) -0.1086(3)
N13A N 0.7770(3) 0.4779(4) 0.1044(3)
N14A N 0.6960(3) 0.7576(3) -0.1770(3)
N15A N 0.5527(3) 0.7959(3) -0.2026(3)
N16A N 0.6546(3) 0.7693(4) -0.0364(3)
N17A N 0.5148(3) 0.8190(4) -0.0692(3)
N18A N 0.4001(3) 0.7674(3) -0.2026(3)
N19A N 0.2895(3) 0.6756(4) -0.1681(3)
N20A N 0.3620(3) 0.7857(4) -0.0654(3)
N21A N 0.2519(3) 0.6926(4) -0.0301(3)
N22A N 0.7594(3) 0.6352(4) 0.0326(3)
O12A O 0.7679(3) 0.5325(3) -0.1779(3)
O13A O 0.6366(3) 0.6899(3) -0.2504(3)
O14A O 0.4110(3) 0.6568(3) -0.2616(3)
O15A O 0.6854(3) 0.5646(3) 0.1718(3)
O16A O 0.5407(4) 0.7445(4) 0.0766(3)
O17A O 0.3187(3) 0.6959(3) 0.0816(3)
O1A O -0.2100(4) 0.4117(4) 0.8091(4)
O2A O -0.4316(3) 0.6339(3) 0.6407(3)
O3A O -0.2411(3) 0.7381(3) 0.6080(3)
O4A O -0.3932(3) 0.4858(3) 0.8013(3)
O5A O -0.1338(3) 0.5656(4) 0.6632(3)
Yb1A Yb -0.291108(15) 0.586759(18) 0.691288(15)
Yb1A_2 Yb 0.708892(15) 0.586759(18) -0.308712(15)
O12A_2 O -0.2321(3) 0.5325(3) 0.8221(3)
O13A_2 O -0.3634(3) 0.6899(3) 0.7496(3)
Cl2 Cl -0.01217(14) 0.25682(18) 0.1546(2)
Cl3 Cl -0.10900(15) 0.04028(17) 0.1918(2)
Cl4 Cl 0.14059(15) 0.04748(19) 0.1652(2)
Cl5 Cl 0.0163(5) 0.1837(4) -0.0245(2)
Zn1 Zn 0.00795(6) 0.12946(7) 0.12090(7)
Cl1 Cl 0.48889(14) 0.29581(18) 0.55040(17)
loop_
_geom_bond_atom_site_label_1
_geom_bond_atom_site_label_2
_geom_bond_site_symmetry_1
_geom_bond_site_symmetry_2
O1 Yb1 1_555 1_555
O2 Yb1 1_555 1_555
O3 Yb1 1_555 1_555
O4 Yb1 1_555 1_555
O5 Yb1 1_555 1_555
Yb1 O6 1_555 1_555
C1 H1 1_555 1_555
H2 C1 1_555 1_555
C2 H3 1_555 1_555
H4 C2 1_555 1_555
C3 H5 1_555 1_555
H6 C3 1_555 1_555
C4 H7 1_555 1_555
H8 C4 1_555 1_555
C5 N1 1_555 1_555
C6 H9 1_555 1_555
C7 C6 1_555 1_555
H10 C7 1_555 1_555
C8 N3 1_555 1_555
C9 H11 1_555 1_555
H12 C9 1_555 1_555
C10 H13 1_555 1_555
H14 C10 1_555 1_555
C11 N5 1_555 1_555
C12 H15 1_555 1_555
C13 C12 1_555 1_555
H16 C13 1_555 1_555
C14 N6 1_555 1_555
C15 H17 1_555 1_555
H18 C15 1_555 1_555
C16 H19 1_555 1_555
H20 C16 1_555 1_555
C17 N7 1_555 1_555
C18 H21 1_555 1_555
C19 C18 1_555 1_555
H22 C19 1_555 1_555
C20 N9 1_555 1_555
C21 N11 1_555 1_555
C22 H23 1_555 1_555
C23 C22 1_555 1_555
H24 C23 1_555 1_555
C24 N13 1_555 1_555
C25 H25 1_555 1_555
H26 C25 1_555 1_555
C26 H27 1_555 1_555
H28 C26 1_555 1_555
C27 N14 1_555 1_555
C28 H29 1_555 1_555
C29 C28 1_555 1_555
H30 C29 1_555 1_555
C30 N16 1_555 1_555
C31 H31 1_555 1_555
H32 C31 1_555 1_555
C32 H33 1_555 1_555
H34 C32 1_555 1_555
C33 N18 1_555 1_555
C34 H35 1_555 1_555
C35 C34 1_555 1_555
H36 C35 1_555 1_555
C36 N20 1_555 1_555
N1 C2 1_555 1_555
N2 C5 1_555 1_555
N3 C1 1_555 1_555
N4 C7 1_555 1_555
N5 C9 1_555 1_555
N6 C13 1_555 1_555
N7 C15 1_555 1_555
N8 C17 1_555 1_555
N9 C16 1_555 1_555
N10 C19 1_555 1_555
N11 C4 1_555 1_555
N12 C21 1_555 1_555
N13 C3 1_555 1_555
N14 C25 1_555 1_555
N15 C27 1_555 1_555
N16 C26 1_555 1_555
N17 C29 1_555 1_555
N18 C31 1_555 1_555
N19 C33 1_555 1_555
N20 C32 1_555 1_555
N21 C35 1_555 1_555
N22 C23 1_555 1_555
N23 C11 1_555 1_555
N24 C10 1_555 1_555
O6 C5 1_555 1_555
O7 Yb1 1_555 1_555
O8 C17 1_555 1_555
O9 C8 1_555 1_555
O10 C14 1_555 1_555
O11 C20 1_555 1_555
O12 Yb1 1_555 1_555
O13 Yb1 1_555 1_555
O14 C33 1_555 1_555
O15 C24 1_555 1_555
O16 C30 1_555 1_555
O17 C36 1_555 1_555
Cl2 Zn1 1_555 1_555
Cl3 Zn1 1_555 1_555
Cl4 Zn1 1_555 1_555
Cl5 Zn1 1_555 1_555
C1A N8 1_555 1_555
H1A C1A 1_555 1_555
H2A C1A 1_555 1_555
C2A N10 1_555 1_555
H3A C2A 1_555 1_555
H4A C2A 1_555 1_555
C5A N1A 1_555 1_555
C6A H9A 1_555 1_555
C7A C6A 1_555 1_555
H10A C7A 1_555 1_555
C8A N3A 1_555 1_555
C9A H11A 1_555 1_555
H12A C9A 1_555 1_555
C10A H13A 1_555 1_555
H14A C10A 1_555 1_555
C11A N5A 1_555 1_555
C12A H15A 1_555 1_555
C13A C12A 1_555 1_555
H16A C13A 1_555 1_555
C14A N6A 1_555 1_555
C15A H17A 1_555 1_555
H18A C15A 1_555 1_555
C16A H19A 1_555 1_555
H20A C16A 1_555 1_555
C17A N7A 1_555 1_555
C18A H21A 1_555 1_555
C19A C18A 1_555 1_555
H22A C19A 1_555 1_555
C20A N9A 1_555 1_555
N1A C2A 1_555 1_555
N2A C5A 1_555 1_555
N3A C1A 1_555 1_555
N4A C7A 1_555 1_555
N5A C9A 1_555 1_555
N6A C13A 1_555 1_555
N7A C15A 1_555 1_555
N8A C1 1_555 1_555
N9A C16A 1_555 1_555
N10A C2 1_555 1_555
N23A C11A 1_555 1_555
N24A C10A 1_555 1_555
O6A C5A 1_555 1_555
O7A C11A 1_555 1_555
O8A C17A 1_555 1_555
O9A C8A 1_555 1_555
O10A C14A 1_555 1_555
O11A C20A 1_555 1_555
C3A N19 1_555 1_555
H5A C3A 1_555 1_555
H6A C3A 1_555 1_555
C4A N21 1_555 1_555
H7A C4A 1_555 1_555
H8A C4A 1_555 1_555
C21A N11A 1_555 1_555
C22A H23A 1_555 1_555
C23A C22A 1_555 1_555
H24A C23A 1_555 1_555
C24A N13A 1_555 1_555
C25A H25A 1_555 1_555
H26A C25A 1_555 1_555
C26A H27A 1_555 1_555
H28A C26A 1_555 1_555
C27A N14A 1_555 1_555
C28A H29A 1_555 1_555
C29A C28A 1_555 1_555
H30A C29A 1_555 1_555
C30A N16A 1_555 1_555
C31A H31A 1_555 1_555
H32A C31A 1_555 1_555
C32A H33A 1_555 1_555
H34A C32A 1_555 1_555
C33A N18A 1_555 1_555
C34A H35A 1_555 1_555
C35A C34A 1_555 1_555
H36A C35A 1_555 1_555
C36A N20A 1_555 1_555
N11A C4A 1_555 1_555
N12A C21A 1_555 1_555
N13A C3A 1_555 1_555
N14A C25A 1_555 1_555
N15A C27A 1_555 1_555
N16A C26A 1_555 1_555
N17A C29A 1_555 1_555
N18A C31A 1_555 1_555
N19A C3 1_555 1_555
N20A C32A 1_555 1_555
N21A C4 1_555 1_555
N22A C23A 1_555 1_555
O12A C21A 1_555 1_555
O13A C27A 1_555 1_555
O14A C33A 1_555 1_555
O15A C24A 1_555 1_555
O16A C30A 1_555 1_555
O17A C36A 1_555 1_555
O1A Yb1A 1_555 1_555
O2A Yb1A 1_555 1_555
O3A Yb1A 1_555 1_555
O4A Yb1A 1_555 1_555
O5A Yb1A 1_555 1_555
Yb1A O6A 1_555 1_555
Yb1A_2 O12A 1_555 1_555
O12A_2 Yb1A 1_555 1_555
O13A_2 Yb1A 1_555 1_555
C6 N1 1_555 1_555
C6 N3 1_555 1_555
C7 N2 1_555 1_555
C8 N4 1_555 1_555
C9 N2 1_555 1_555
C10 N4 1_555 1_555
C11 O7 1_555 1_555
C12 N5 1_555 1_555
C12 N24 1_555 1_555
C13 N23 1_555 1_555
C14 N24 1_555 1_555
C15 N23 1_555 1_555
C16 N6 1_555 1_555
C18 N7 1_555 1_555
C18 N9 1_555 1_555
C19 N8 1_555 1_555
C20 N10 1_555 1_555
C21 O12 1_555 1_555
C22 N11 1_555 1_555
C22 N13 1_555 1_555
C23 N12 1_555 1_555
C24 N22 1_555 1_555
C25 N12 1_555 1_555
C26 N22 1_555 1_555
C27 O13 1_555 1_555
C28 N14 1_555 1_555
C28 N16 1_555 1_555
C29 N15 1_555 1_555
C30 N17 1_555 1_555
C31 N15 1_555 1_555
C32 N17 1_555 1_555
C34 N18 1_555 1_555
C34 N20 1_555 1_555
C35 N19 1_555 1_555
C36 N21 1_555 1_555
C6A N1A 1_555 1_555
C6A N3A 1_555 1_555
C7A N2A 1_555 1_555
C8A N4A 1_555 1_555
C9A N2A 1_555 1_555
C10A N4A 1_555 1_555
C12A N5A 1_555 1_555
C12A N24A 1_555 1_555
C13A N23A 1_555 1_555
C14A N24A 1_555 1_555
C15A N23A 1_555 1_555
C16A N6A 1_555 1_555
C17A N8A 1_555 1_555
C18A N7A 1_555 1_555
C18A N9A 1_555 1_555
C19A N8A 1_555 1_555
C19A N10A 1_555 1_555
C20A N10A 1_555 1_555
O7A Yb1A 1_555 1_555
C22A N11A 1_555 1_555
C22A N13A 1_555 1_555
C23A N12A 1_555 1_555
C24A N22A 1_555 1_555
C25A N12A 1_555 1_555
C26A N22A 1_555 1_555
C28A N14A 1_555 1_555
C28A N16A 1_555 1_555
C29A N15A 1_555 1_555
C30A N17A 1_555 1_555
C31A N15A 1_555 1_555
C32A N17A 1_555 1_555
C33A N19A 1_555 1_555
C34A N18A 1_555 1_555
C34A N20A 1_555 1_555
C35A N19A 1_555 1_555
C35A N21A 1_555 1_555
C36A N21A 1_555 1_555
O13A Yb1A_2 1_555 1_555

#END
