
#######################################################################
#
#                 Cambridge Crystallographic Data Centre
#                                CCDC 
#
#######################################################################
#
# If this CIF has been generated from an entry in the Cambridge 
# Structural Database, then it will include bibliographic, chemical, 
# crystal, experimental, refinement or atomic coordinate data resulting 
# from the CCDC's data processing and validation procedures.
#
#######################################################################

data_OGAHUA01
_symmetry_cell_setting           triclinic
_symmetry_space_group_name_H-M   'P -1'
_symmetry_Int_Tables_number      2
_space_group_name_Hall           '-P 1'
loop_
_symmetry_equiv_pos_site_id
_symmetry_equiv_pos_as_xyz
1 x,y,z
2 -x,-y,-z
_cell_length_a                   7.143(3)
_cell_length_b                   9.313(3)
_cell_length_c                   19.437(5)
_cell_angle_alpha                100.75(3)
_cell_angle_beta                 94.93(3)
_cell_angle_gamma                104.65(3)
_cell_volume                     1216.9
loop_
_atom_site_label
_atom_site_type_symbol
_atom_site_fract_x
_atom_site_fract_y
_atom_site_fract_z
Fe1 Fe 0.23606(4) 0.47572(3) 0.258708(13)
N1 N 0.2606(2) 0.25356(18) 0.22104(8)
C1 C 0.2904(3) 0.1448(2) 0.18952(9)
S1 S 0.33951(8) -0.00583(6) 0.14537(3)
N2 N 0.2015(2) 0.69516(18) 0.29169(8)
C2 C 0.1695(3) 0.8097(2) 0.31503(9)
S2 S 0.12040(8) 0.96778(6) 0.34876(3)
N3 N 0.5111(2) 0.57130(17) 0.21391(7)
N4 N 0.8246(2) 0.32362(17) 0.07073(8)
C3 C 0.6173(3) 0.4834(2) 0.18476(9)
H1 H 0.5736 0.3773 0.1827
C4 C 0.7877(3) 0.5380(2) 0.15737(9)
C5 C 0.8556(3) 0.6937(2) 0.16249(10)
H2 H 0.9753 0.7362 0.1466
C6 C 0.7450(3) 0.7848(2) 0.19109(10)
H3 H 0.7859 0.8914 0.1941
C7 C 0.5738(3) 0.7203(2) 0.21548(9)
H4 H 0.4975 0.7844 0.2341
C8 C 0.6425(3) 0.3128(2) 0.02602(10)
H5 H 0.5539 0.3533 0.0558
H6 H 0.5767 0.2047 0.0045
C9 C 0.6796(3) 0.4000(3) -0.03201(11)
H7 H 0.5562 0.3851 -0.0622
H8 H 0.7714 0.3630 -0.0605
H9 H 0.7353 0.5085 -0.0109
C10 C 0.9285(3) 0.2094(2) 0.04697(10)
H10 H 1.0696 0.2516 0.0650
H11 H 0.9137 0.1850 -0.0053
C11 C 0.8491(3) 0.0668(2) 0.07307(12)
H12 H 0.9204 -0.0074 0.0568
H13 H 0.7101 0.0241 0.0545
H14 H 0.8653 0.0909 0.1249
C12 C 0.9034(3) 0.4329(2) 0.12863(9)
O1 O 1.07123(19) 0.44823(15) 0.15855(6)
N5 N -0.0384(2) 0.37870(17) 0.30381(7)
N6 N -0.3501(2) 0.62258(17) 0.44881(8)
C13 C -0.1386(3) 0.4669(2) 0.33778(9)
H15 H -0.0822 0.5738 0.3486
C14 C -0.3196(3) 0.4109(2) 0.35791(9)
C15 C -0.4039(3) 0.2554(2) 0.34187(9)
H16 H -0.5308 0.2135 0.3527
C16 C -0.2988(3) 0.1627(2) 0.30976(10)
H17 H -0.3502 0.0553 0.3000
C17 C -0.1174(3) 0.2278(2) 0.29186(9)
H18 H -0.0460 0.1627 0.2702
C18 C -0.1796(3) 0.6199(2) 0.49650(9)
H19 H -0.1415 0.5261 0.4788
H20 H -0.2180 0.6156 0.5440
C19 C -0.0042(3) 0.7552(2) 0.50351(10)
H21 H 0.1009 0.7478 0.5374
H22 H -0.0406 0.8490 0.5203
H23 H 0.0410 0.7565 0.4574
C20 C -0.4458(3) 0.7436(2) 0.47077(10)
H24 H -0.4012 0.7903 0.5215
H25 H -0.5890 0.6984 0.4647
C21 C -0.4003(3) 0.8652(2) 0.42822(11)
H26 H -0.4736 0.9395 0.4418
H27 H -0.4379 0.8186 0.3777
H28 H -0.2600 0.9166 0.4375
C22 C -0.4302(3) 0.5171(2) 0.38939(9)
O2 O -0.59622(18) 0.50893(14) 0.35945(6)
Fe1_2 Fe 1.23606(4) 0.47572(3) 0.258708(13)
Fe1_3 Fe -0.76394(4) 0.47572(3) 0.258708(13)
O1_2 O 0.07123(19) 0.44823(15) 0.15855(6)
O2_2 O 0.40378(18) 0.50893(14) 0.35945(6)
loop_
_geom_bond_atom_site_label_1
_geom_bond_atom_site_label_2
_geom_bond_site_symmetry_1
_geom_bond_site_symmetry_2
Fe1 N1 1_555 1_555
N1 C1 1_555 1_555
C1 S1 1_555 1_555
N2 Fe1 1_555 1_555
C2 N2 1_555 1_555
S2 C2 1_555 1_555
N3 Fe1 1_555 1_555
N4 C8 1_555 1_555
C3 N3 1_555 1_555
H1 C3 1_555 1_555
C4 C3 1_555 1_555
C5 C4 1_555 1_555
H2 C5 1_555 1_555
C6 C5 1_555 1_555
H3 C6 1_555 1_555
C7 N3 1_555 1_555
H4 C7 1_555 1_555
C8 H5 1_555 1_555
H6 C8 1_555 1_555
C9 C8 1_555 1_555
H7 C9 1_555 1_555
H8 C9 1_555 1_555
H9 C9 1_555 1_555
C10 N4 1_555 1_555
H10 C10 1_555 1_555
H11 C10 1_555 1_555
C11 C10 1_555 1_555
H12 C11 1_555 1_555
H13 C11 1_555 1_555
H14 C11 1_555 1_555
C12 N4 1_555 1_555
O1 C12 1_555 1_555
N5 Fe1 1_555 1_555
N6 C18 1_555 1_555
C13 N5 1_555 1_555
H15 C13 1_555 1_555
C14 C13 1_555 1_555
C15 C14 1_555 1_555
H16 C15 1_555 1_555
C16 C15 1_555 1_555
H17 C16 1_555 1_555
C17 N5 1_555 1_555
H18 C17 1_555 1_555
C18 H19 1_555 1_555
H20 C18 1_555 1_555
C19 C18 1_555 1_555
H21 C19 1_555 1_555
H22 C19 1_555 1_555
H23 C19 1_555 1_555
C20 N6 1_555 1_555
H24 C20 1_555 1_555
H25 C20 1_555 1_555
C21 C20 1_555 1_555
H26 C21 1_555 1_555
H27 C21 1_555 1_555
H28 C21 1_555 1_555
C22 N6 1_555 1_555
O2 C22 1_555 1_555
Fe1_2 O1 1_555 1_555
Fe1_3 O2 1_555 1_555
O1_2 Fe1 1_555 1_555
O2_2 Fe1 1_555 1_555
C4 C12 1_555 1_555
C6 C7 1_555 1_555
C14 C22 1_555 1_555
C16 C17 1_555 1_555

#END
