
#######################################################################
#
#                 Cambridge Crystallographic Data Centre
#                                CCDC 
#
#######################################################################
#
# If this CIF has been generated from an entry in the Cambridge 
# Structural Database, then it will include bibliographic, chemical, 
# crystal, experimental, refinement or atomic coordinate data resulting 
# from the CCDC's data processing and validation procedures.
#
#######################################################################

data_OGAJUD
_symmetry_cell_setting           monoclinic
_symmetry_space_group_name_H-M   'P 21/c'
_symmetry_Int_Tables_number      14
_space_group_name_Hall           '-P 2ybc'
loop_
_symmetry_equiv_pos_site_id
_symmetry_equiv_pos_as_xyz
1 x,y,z
2 -x,1/2+y,1/2-z
3 -x,-y,-z
4 x,1/2-y,1/2+z
_cell_length_a                   10.3566(9)
_cell_length_b                   27.003(3)
_cell_length_c                   28.938(3)
_cell_angle_alpha                90
_cell_angle_beta                 95.463(3)
_cell_angle_gamma                90
_cell_volume                     8056.02
loop_
_atom_site_label
_atom_site_type_symbol
_atom_site_fract_x
_atom_site_fract_y
_atom_site_fract_z
Cl2 Cl 0.0164(4) 0.2458(2) 0.12118(13)
Cl3 Cl 1.2553(4) -0.10623(14) 0.38185(13)
Cl4 Cl 1.0383(9) -0.0232(3) 0.3075(3)
Cl5 Cl 1.2898(7) 0.0273(3) 0.3891(4)
Cl6 Cl 1.0081(10) -0.0364(3) 0.4346(4)
Zn1 Zn 1.1461(2) -0.03487(8) 0.37866(9)
Cl7 Cl 0.2301(6) 0.6127(2) 0.37414(16)
Cl8 Cl 0.4620(9) 0.5447(3) 0.3094(3)
Cl9 Cl 0.4699(13) 0.5313(5) 0.4353(3)
Cl10 Cl 0.2091(10) 0.4787(4) 0.3639(7)
Zn2 Zn 0.3410(3) 0.54306(8) 0.36980(9)
O1 O 0.2441(8) 0.3527(3) 0.2280(3)
O2 O 0.2851(7) 0.1943(3) 0.2854(3)
O3 O 0.4345(9) 0.2591(4) 0.3444(3)
O4 O 0.2202(8) 0.3204(4) 0.3378(3)
O5 O 0.2563(8) 0.2540(4) 0.1944(3)
O6 O 1.2783(8) 0.1888(4) 0.4043(3)
O7 O 1.2516(8) 0.1557(3) 0.5115(3)
O8 O 1.0647(9) 0.2499(4) 0.3967(3)
O9 O 1.2149(7) 0.3136(3) 0.4570(3)
O10 O 1.2430(8) 0.2543(4) 0.5476(3)
Tb1 Tb 0.30386(4) 0.28134(2) 0.274082(17)
Tb2 Tb 1.19316(4) 0.227826(19) 0.468039(17)
C1 C 0.5471(9) 0.3750(4) 0.2905(4)
C2 C 0.7098(10) 0.4323(4) 0.3066(4)
H1 H 0.6950 0.4683 0.3021
C3 C 0.7299(10) 0.4072(4) 0.2617(4)
H2 H 0.7372 0.4312 0.2363
C4 C 0.9069(10) 0.3904(4) 0.3146(4)
C5 C 0.5883(9) 0.3448(4) 0.2128(4)
H3 H 0.6134 0.3625 0.1854
H4 H 0.4947 0.3387 0.2081
C6 C 0.9216(9) 0.3556(4) 0.2379(4)
H5 H 0.9064 0.3740 0.2087
H6 H 1.0142 0.3582 0.2483
C7 C 0.5972(10) 0.2554(4) 0.2295(4)
C8 C 0.7766(10) 0.2884(4) 0.1991(4)
H7 H 0.7781 0.3017 0.1673
C9 C 0.7882(9) 0.2316(4) 0.1998(4)
H8 H 0.7895 0.2177 0.1682
C10 C 0.9681(10) 0.2649(4) 0.2438(4)
C11 C 0.6245(10) 0.1661(4) 0.2224(4)
H9 H 0.6433 0.1493 0.1938
H10 H 0.5301 0.1669 0.2231
C12 C 0.9683(9) 0.1735(4) 0.2332(4)
H11 H 0.9507 0.1559 0.2037
H12 H 1.0626 0.1768 0.2394
C13 C 0.6102(11) 0.1220(4) 0.2950(4)
C14 C 0.8046(9) 0.1127(4) 0.2623(4)
H13 H 0.8080 0.0908 0.2350
C15 C 0.8104(10) 0.0828(4) 0.3084(4)
H14 H 0.8256 0.0472 0.3027
C16 C 0.9829(10) 0.1389(4) 0.3135(4)
C17 C 0.6347(11) 0.0645(4) 0.3619(4)
H15 H 0.5399 0.0629 0.3567
H16 H 0.6675 0.0305 0.3622
C18 C 0.9682(10) 0.0848(4) 0.3811(4)
H17 H 0.9629 0.0486 0.3797
H18 H 1.0601 0.0936 0.3870
C19 C 0.5884(10) 0.1170(4) 0.4282(4)
C20 C 0.7870(10) 0.0765(4) 0.4347(4)
H19 H 0.8019 0.0404 0.4387
C21 C 0.7678(10) 0.1023(4) 0.4814(4)
H20 H 0.7623 0.0783 0.5070
C22 C 0.9508(9) 0.1343(4) 0.4512(4)
C23 C 0.5730(10) 0.1531(4) 0.5058(4)
H21 H 0.4802 0.1507 0.4957
H22 H 0.5887 0.1352 0.5353
C24 C 0.9097(10) 0.1638(4) 0.5284(4)
H23 H 1.0034 0.1697 0.5331
H24 H 0.8844 0.1460 0.5557
C25 C 0.5290(9) 0.2426(4) 0.4991(4)
C26 C 0.7197(9) 0.2204(4) 0.5429(4)
H25 H 0.7183 0.2075 0.5749
C27 C 0.7099(10) 0.2774(4) 0.5417(4)
H26 H 0.7088 0.2915 0.5732
C28 C 0.8990(9) 0.2537(4) 0.5127(4)
C29 C 0.5285(10) 0.3337(4) 0.5083(4)
H27 H 0.5409 0.3515 0.5379
H28 H 0.4351 0.3291 0.5006
C30 C 0.8709(10) 0.3427(4) 0.5197(4)
H29 H 0.9653 0.3425 0.5191
H30 H 0.8514 0.3591 0.5484
C31 C 0.5160(10) 0.3698(4) 0.4288(4)
C32 C 0.6904(9) 0.3951(4) 0.4800(4)
H31 H 0.6852 0.4164 0.5076
C33 C 0.6884(10) 0.4262(4) 0.4348(4)
H32 H 0.6721 0.4617 0.4404
C34 C 0.8895(10) 0.3857(4) 0.4466(4)
C35 C 0.5288(10) 0.4235(4) 0.3617(4)
H33 H 0.5326 0.4597 0.3638
H34 H 0.4373 0.4141 0.3562
C36 C 0.8638(11) 0.4446(4) 0.3805(4)
H35 H 0.8305 0.4786 0.3802
H36 H 0.9585 0.4463 0.3860
N1 N 0.5953(8) 0.4079(3) 0.3221(3)
N2 N 0.6163(8) 0.3752(3) 0.2531(3)
N3 N 0.8299(9) 0.4228(4) 0.3355(3)
N4 N 0.8482(8) 0.3790(3) 0.2723(3)
N5 N 0.6565(8) 0.2977(3) 0.2170(3)
N6 N 0.6720(8) 0.2160(3) 0.2217(3)
N7 N 0.8901(8) 0.3039(3) 0.2290(3)
N8 N 0.9115(8) 0.2225(3) 0.2287(3)
N9 N 0.6810(8) 0.1377(3) 0.2620(3)
N10 N 0.6833(9) 0.0907(4) 0.3230(4)
N11 N 0.9202(8) 0.1442(3) 0.2698(3)
N12 N 0.9195(8) 0.1045(3) 0.3361(3)
N13 N 0.6699(8) 0.0865(3) 0.4069(3)
N14 N 0.6479(8) 0.1290(3) 0.4706(3)
N15 N 0.9012(8) 0.1017(3) 0.4196(3)
N16 N 0.8821(8) 0.1337(3) 0.4887(3)
N17 N 0.6067(8) 0.2046(3) 0.5134(3)
N18 N 0.5890(8) 0.2859(3) 0.5138(3)
N19 N 0.8431(8) 0.2110(3) 0.5249(3)
N20 N 0.8253(8) 0.2925(3) 0.5201(3)
N21 N 0.5803(8) 0.3643(3) 0.4718(3)
N22 N 0.5806(8) 0.4031(3) 0.4051(3)
N23 N 0.8135(8) 0.3707(3) 0.4807(3)
N24 N 0.8145(8) 0.4182(3) 0.4184(3)
O11 O 0.4477(7) 0.3491(3) 0.2949(3)
O12 O 0.4906(7) 0.2529(3) 0.2447(3)
O13 O 0.4964(8) 0.1333(3) 0.2990(3)
O14 O 0.4824(8) 0.1295(4) 0.4117(3)
O15 O 0.4205(7) 0.2398(3) 0.4771(3)
O16 O 0.4154(7) 0.3486(3) 0.4141(3)
O17 O 1.0162(9) 0.3788(4) 0.3314(4)
O18 O 1.0739(7) 0.2689(3) 0.2661(3)
O19 O 1.0832(7) 0.1594(3) 0.3291(3)
O20 O 1.0471(7) 0.1614(3) 0.4464(3)
O21 O 1.0059(7) 0.2555(3) 0.4978(3)
O22 O 1.0001(8) 0.3757(3) 0.4421(3)
Tb1_2 Tb 1.30386(4) 0.28134(2) 0.274082(17)
Tb2_2 Tb 0.19316(4) 0.227826(19) 0.468039(17)
O15_2 O 1.4205(7) 0.2398(3) 0.4771(3)
O18_2 O 0.0739(7) 0.2689(3) 0.2661(3)
Cl1 Cl 1.4840(3) 0.2527(2) 0.62141(12)
loop_
_geom_bond_atom_site_label_1
_geom_bond_atom_site_label_2
_geom_bond_site_symmetry_1
_geom_bond_site_symmetry_2
Cl3 Zn1 1_555 1_555
Cl4 Zn1 1_555 1_555
Cl5 Zn1 1_555 1_555
Cl6 Zn1 1_555 1_555
Cl7 Zn2 1_555 1_555
Cl8 Zn2 1_555 1_555
Cl9 Zn2 1_555 1_555
Cl10 Zn2 1_555 1_555
O1 Tb1 1_555 1_555
O2 Tb1 1_555 1_555
O3 Tb1 1_555 1_555
O4 Tb1 1_555 1_555
O5 Tb1 1_555 1_555
O6 Tb2 1_555 1_555
O7 Tb2 1_555 1_555
O8 Tb2 1_555 1_555
O9 Tb2 1_555 1_555
O10 Tb2 1_555 1_555
Tb1 O11 1_555 1_555
Tb2 O20 1_555 1_555
C1 N1 1_555 1_555
C2 H1 1_555 1_555
C3 C2 1_555 1_555
H2 C3 1_555 1_555
C4 N3 1_555 1_555
C5 H3 1_555 1_555
H4 C5 1_555 1_555
C6 H5 1_555 1_555
H6 C6 1_555 1_555
C7 N5 1_555 1_555
C8 H7 1_555 1_555
C9 C8 1_555 1_555
H8 C9 1_555 1_555
C10 N7 1_555 1_555
C11 H9 1_555 1_555
H10 C11 1_555 1_555
C12 H11 1_555 1_555
H12 C12 1_555 1_555
C13 N9 1_555 1_555
C14 H13 1_555 1_555
C15 C14 1_555 1_555
H14 C15 1_555 1_555
C16 N11 1_555 1_555
C17 H15 1_555 1_555
H16 C17 1_555 1_555
C18 H17 1_555 1_555
H18 C18 1_555 1_555
C19 N13 1_555 1_555
C20 H19 1_555 1_555
C21 C20 1_555 1_555
H20 C21 1_555 1_555
C22 N15 1_555 1_555
C23 H21 1_555 1_555
H22 C23 1_555 1_555
C24 H23 1_555 1_555
H24 C24 1_555 1_555
C25 N17 1_555 1_555
C26 H25 1_555 1_555
C27 C26 1_555 1_555
H26 C27 1_555 1_555
C28 N19 1_555 1_555
C29 H27 1_555 1_555
H28 C29 1_555 1_555
C30 H29 1_555 1_555
H30 C30 1_555 1_555
C31 N21 1_555 1_555
C32 H31 1_555 1_555
C33 C32 1_555 1_555
H32 C33 1_555 1_555
C34 N23 1_555 1_555
C35 H33 1_555 1_555
H34 C35 1_555 1_555
C36 H35 1_555 1_555
H36 C36 1_555 1_555
N1 C2 1_555 1_555
N2 C1 1_555 1_555
N3 C2 1_555 1_555
N4 C3 1_555 1_555
N5 C5 1_555 1_555
N6 C7 1_555 1_555
N7 C6 1_555 1_555
N8 C9 1_555 1_555
N9 C11 1_555 1_555
N10 C13 1_555 1_555
N11 C12 1_555 1_555
N12 C15 1_555 1_555
N13 C17 1_555 1_555
N14 C19 1_555 1_555
N15 C18 1_555 1_555
N16 C21 1_555 1_555
N17 C23 1_555 1_555
N18 C25 1_555 1_555
N19 C24 1_555 1_555
N20 C27 1_555 1_555
N21 C29 1_555 1_555
N22 C31 1_555 1_555
N23 C30 1_555 1_555
N24 C33 1_555 1_555
O11 C1 1_555 1_555
O12 Tb1 1_555 1_555
O13 C13 1_555 1_555
O14 C19 1_555 1_555
O15 C25 1_555 1_555
O16 C31 1_555 1_555
O17 C4 1_555 1_555
O18 C10 1_555 1_555
O19 C16 1_555 1_555
O20 C22 1_555 1_555
O21 Tb2 1_555 1_555
O22 C34 1_555 1_555
Tb1_2 O18 1_555 1_555
Tb2_2 O15 1_555 1_555
O15_2 Tb2 1_555 1_555
O18_2 Tb1 1_555 1_555
C3 N2 1_555 1_555
C4 N4 1_555 1_555
C5 N2 1_555 1_555
C6 N4 1_555 1_555
C7 O12 1_555 1_555
C8 N5 1_555 1_555
C8 N7 1_555 1_555
C9 N6 1_555 1_555
C10 N8 1_555 1_555
C11 N6 1_555 1_555
C12 N8 1_555 1_555
C14 N9 1_555 1_555
C14 N11 1_555 1_555
C15 N10 1_555 1_555
C16 N12 1_555 1_555
C17 N10 1_555 1_555
C18 N12 1_555 1_555
C20 N13 1_555 1_555
C20 N15 1_555 1_555
C21 N14 1_555 1_555
C22 N16 1_555 1_555
C23 N14 1_555 1_555
C24 N16 1_555 1_555
C26 N17 1_555 1_555
C26 N19 1_555 1_555
C27 N18 1_555 1_555
C28 N20 1_555 1_555
C28 O21 1_555 1_555
C29 N18 1_555 1_555
C30 N20 1_555 1_555
C32 N21 1_555 1_555
C32 N23 1_555 1_555
C33 N22 1_555 1_555
C34 N24 1_555 1_555
C35 N1 1_555 1_555
C35 N22 1_555 1_555
C36 N3 1_555 1_555
C36 N24 1_555 1_555

#END
