
#######################################################################
#
#                 Cambridge Crystallographic Data Centre
#                                CCDC 
#
#######################################################################
#
# If this CIF has been generated from an entry in the Cambridge 
# Structural Database, then it will include bibliographic, chemical, 
# crystal, experimental, refinement or atomic coordinate data resulting 
# from the CCDC's data processing and validation procedures.
#
#######################################################################

data_OGAJAJ
_symmetry_cell_setting           triclinic
_symmetry_space_group_name_H-M   'P -1'
_symmetry_Int_Tables_number      2
_space_group_name_Hall           '-P 1'
loop_
_symmetry_equiv_pos_site_id
_symmetry_equiv_pos_as_xyz
1 x,y,z
2 -x,-y,-z
_cell_length_a                   15.142(2)
_cell_length_b                   15.540(2)
_cell_length_c                   16.992(2)
_cell_angle_alpha                63.894(5)
_cell_angle_beta                 80.645(5)
_cell_angle_gamma                81.604(5)
_cell_volume                     3530.13
loop_
_atom_site_label
_atom_site_type_symbol
_atom_site_fract_x
_atom_site_fract_y
_atom_site_fract_z
O1 O 0.0677(2) 1.1355(3) 0.6400(3)
O2 O 0.2606(3) 1.2411(3) 0.6073(3)
O3 O 0.1062(3) 0.9856(3) 0.8012(3)
O4 O 0.3675(2) 1.0682(3) 0.6622(3)
Er1 Er 0.209295(14) 1.088299(18) 0.690808(15)
C1 C 0.1289(3) 1.2450(4) 0.7868(3)
C2 C 0.0633(4) 1.3514(4) 0.8470(4)
H1 H 0.0528 1.4217 0.8121
C3 C 0.1618(4) 1.3209(4) 0.8698(4)
H2 H 0.1971 1.3773 0.8486
C4 C 0.0656(4) 1.2731(4) 1.0001(4)
C5 C 0.2843(3) 1.2169(4) 0.8214(3)
H3 H 0.3254 1.2590 0.8233
H4 H 0.2995 1.2124 0.7650
C6 C 0.2268(4) 1.2338(5) 1.0156(4)
H5 H 0.2085 1.2374 1.0721
H6 H 0.2762 1.2750 0.9851
C7 C 0.2888(3) 1.0406(4) 0.8880(3)
C8 C 0.3270(3) 1.1050(4) 0.9766(3)
H7 H 0.3850 1.1315 0.9688
C9 C 0.3348(3) 0.9956(4) 1.0254(3)
H8 H 0.3973 0.9700 1.0380
C10 C 0.2342(4) 1.0584(4) 1.1098(4)
C11 C 0.3194(3) 0.8687(4) 0.9731(4)
H9 H 0.3767 0.8394 0.9969
H10 H 0.3237 0.8705 0.9143
C12 C 0.2674(4) 0.8848(4) 1.1785(3)
H11 H 0.2436 0.8934 1.2319
H12 H 0.3275 0.8513 1.1873
C13 C 0.1883(3) 0.7804(4) 0.9957(4)
C14 C 0.2425(3) 0.7629(4) 1.1246(3)
H13 H 0.2993 0.7253 1.1455
C15 C 0.1650(3) 0.6971(4) 1.1495(4)
H14 H 0.1854 0.6287 1.1836
C16 C 0.1281(3) 0.8042(4) 1.2152(3)
C17 C 0.0812(4) 0.6554(5) 1.0533(4)
H15 H 0.0953 0.6605 0.9931
H16 H 0.0946 0.5881 1.0939
C18 C 0.0221(3) 0.6830(4) 1.2533(3)
H17 H 0.0022 0.7019 1.3017
H18 H 0.0393 0.6136 1.2794
C19 C 0.2156(3) 1.0967(4) 0.4812(3)
C20 C 0.2229(3) 1.1156(4) 0.3369(3)
H19 H 0.1814 1.1601 0.2943
C21 C 0.1808(3) 1.0208(4) 0.4008(3)
H20 H 0.1193 1.0202 0.3884
C22 C 0.3124(4) 0.9872(5) 0.3208(4)
C23 C 0.1405(3) 0.9484(4) 0.5689(3)
H21 H 0.1147 0.9801 0.6072
H22 H 0.0913 0.9236 0.5563
C24 C 0.2323(4) 0.8474(5) 0.4306(4)
H23 H 0.2604 0.8167 0.3921
H24 H 0.1682 0.8374 0.4423
C25 C 0.2509(3) 0.8699(4) 0.6748(3)
C26 C 0.2213(4) 0.7847(4) 0.5992(4)
H25 H 0.1674 0.7501 0.6104
C27 C 0.2907(4) 0.7249(4) 0.6646(4)
H26 H 0.2679 0.6636 0.7095
C28 C 0.3533(4) 0.7505(5) 0.5219(4)
C29 C 0.3526(3) 0.7570(4) 0.7802(3)
H27 H 0.3287 0.7960 0.8125
H28 H 0.3416 0.6900 0.8196
C30 C 0.4467(4) 0.6475(4) 0.6394(4)
H29 H 0.4756 0.6259 0.5945
H30 H 0.4281 0.5904 0.6922
C31 C 0.4895(3) 0.8304(4) 0.7671(3)
C32 C 0.5086(3) 0.6902(4) 0.7464(3)
H31 H 0.4983 0.6259 0.7948
C33 C 0.6020(3) 0.7208(4) 0.7451(3)
H32 H 0.6351 0.6710 0.7931
C34 C 0.5917(4) 0.7127(4) 0.6119(4)
C35 C 0.6453(4) 0.8504(5) 0.7809(4)
H33 H 0.6132 0.8852 0.8145
H34 H 0.6855 0.7990 0.8191
C36 C 0.2609(3) 1.2508(4) 0.3673(4)
H35 H 0.2401 1.2701 0.4154
H36 H 0.2265 1.2922 0.3178
N1 N 0.0530(3) 1.2980(3) 0.7976(3)
N2 N 0.1954(3) 1.2599(3) 0.8245(3)
N3 N 0.0131(3) 1.3192(4) 0.9324(3)
N4 N 0.1528(3) 1.2707(4) 0.9639(3)
N5 N 0.2987(3) 1.1231(3) 0.8913(3)
N6 N 0.3056(3) 0.9646(3) 0.9654(3)
N7 N 0.2597(3) 1.1354(4) 1.0326(3)
N8 N 0.2751(3) 0.9773(4) 1.1062(3)
N9 N 0.2483(3) 0.8087(3) 1.0297(3)
N10 N 0.1391(3) 0.7135(4) 1.0653(3)
N11 N 0.2103(3) 0.8243(4) 1.1677(3)
N12 N 0.1000(3) 0.7326(4) 1.2025(3)
N13 N 0.2415(3) 1.1546(3) 0.3959(3)
N14 N 0.1810(3) 1.0190(4) 0.4870(3)
N15 N 0.3021(3) 1.0850(4) 0.2940(3)
N16 N 0.2421(3) 0.9483(4) 0.3851(3)
N17 N 0.2003(3) 0.8715(3) 0.6141(3)
N18 N 0.3035(3) 0.7882(3) 0.7040(3)
N19 N 0.2721(3) 0.8002(4) 0.5141(3)
N20 N 0.3688(3) 0.7087(4) 0.6080(3)
N21 N 0.4469(3) 0.7639(3) 0.7594(3)
N22 N 0.5801(3) 0.8073(4) 0.7570(3)
N23 N 0.5117(3) 0.6896(4) 0.6607(3)
N24 N 0.6457(3) 0.7320(3) 0.6599(3)
O5 O 0.1371(2) 1.1915(3) 0.7490(2)
O6 O 0.2689(2) 1.0333(3) 0.8238(2)
O7 O 0.1827(3) 0.8046(3) 0.9184(3)
O8 O 0.0399(3) 1.2453(4) 1.0775(3)
O9 O 0.1852(3) 1.0639(3) 1.1726(3)
O10 O 0.0893(2) 0.8418(3) 1.2618(3)
O11 O 0.2224(2) 1.1143(3) 0.5447(2)
O12 O 0.2459(2) 0.9348(3) 0.6990(2)
O13 O 0.4524(2) 0.8988(3) 0.7823(3)
O14 O 0.3703(3) 0.9443(4) 0.2920(3)
O15 O 0.4051(3) 0.7414(4) 0.4627(3)
O16 O 0.6151(3) 0.7116(3) 0.5403(3)
C1A C -0.1289(3) 0.7550(4) 1.2132(3)
C2A C -0.0633(4) 0.6486(4) 1.1530(4)
H1A H -0.0528 0.5783 1.1879
C3A C -0.1618(4) 0.6791(4) 1.1302(4)
H2A H -0.1971 0.6227 1.1514
C4A C -0.0656(4) 0.7269(4) 0.9999(4)
C5A C -0.2843(3) 0.7831(4) 1.1786(3)
H3A H -0.3254 0.7410 1.1767
H4A H -0.2995 0.7876 1.2350
C6A C -0.2268(4) 0.7662(5) 0.9844(4)
H5A H -0.2085 0.7626 0.9279
H6A H -0.2762 0.7250 1.0149
C7A C -0.2888(3) 0.9594(4) 1.1120(3)
C8A C -0.3270(3) 0.8950(4) 1.0234(3)
H7A H -0.3850 0.8685 1.0312
C9A C -0.3348(3) 1.0044(4) 0.9746(3)
H8A H -0.3973 1.0300 0.9620
C10A C -0.2342(4) 0.9416(4) 0.8902(4)
C11A C -0.3194(3) 1.1313(4) 1.0269(4)
H9A H -0.3767 1.1606 1.0031
H10A H -0.3237 1.1295 1.0857
C12A C -0.2674(4) 1.1152(4) 0.8215(3)
H11A H -0.2436 1.1066 0.7681
H12A H -0.3275 1.1487 0.8127
C13A C -0.1883(3) 1.2196(4) 1.0043(4)
C14A C -0.2425(3) 1.2371(4) 0.8754(3)
H13A H -0.2993 1.2747 0.8545
C15A C -0.1650(3) 1.3029(4) 0.8505(4)
H14A H -0.1854 1.3713 0.8164
C16A C -0.1281(3) 1.1958(4) 0.7848(3)
C17A C -0.0812(4) 1.3446(5) 0.9467(4)
H15A H -0.0953 1.3395 1.0069
H16A H -0.0946 1.4119 0.9061
C18A C -0.0221(3) 1.3170(4) 0.7467(3)
H17A H -0.0022 1.2981 0.6983
H18A H -0.0393 1.3864 0.7206
N1A N -0.0530(3) 0.7020(3) 1.2024(3)
N2A N -0.1954(3) 0.7401(3) 1.1755(3)
N3A N -0.0131(3) 0.6808(4) 1.0676(3)
N4A N -0.1528(3) 0.7293(4) 1.0361(3)
N5A N -0.2987(3) 0.8769(3) 1.1087(3)
N6A N -0.3056(3) 1.0354(3) 1.0346(3)
N7A N -0.2597(3) 0.8646(4) 0.9674(3)
N8A N -0.2751(3) 1.0227(4) 0.8938(3)
N9A N -0.2483(3) 1.1913(3) 0.9703(3)
N10A N -0.1391(3) 1.2865(4) 0.9347(3)
N11A N -0.2103(3) 1.1757(4) 0.8323(3)
N12A N -0.1000(3) 1.2674(4) 0.7975(3)
O5A O -0.1371(2) 0.8085(3) 1.2510(2)
O6A O -0.2689(2) 0.9667(3) 1.1762(2)
O7A O -0.1827(3) 1.1954(3) 1.0816(3)
O8A O -0.0399(3) 0.7547(4) 0.9225(3)
O9A O -0.1852(3) 0.9361(3) 0.8274(3)
O10A O -0.0893(2) 1.1582(3) 0.7382(3)
C19A C 0.7844(3) 0.9033(4) 0.5188(3)
C20A C 0.7771(3) 0.8844(4) 0.6631(3)
H19A H 0.8186 0.8399 0.7057
C21A C 0.8192(3) 0.9792(4) 0.5992(3)
H20A H 0.8807 0.9798 0.6116
C22A C 0.6876(4) 1.0128(5) 0.6792(4)
C23A C 0.8595(3) 1.0516(4) 0.4311(3)
H21A H 0.8853 1.0199 0.3928
H22A H 0.9087 1.0764 0.4437
C24A C 0.7677(4) 1.1526(5) 0.5694(4)
H23A H 0.7396 1.1833 0.6079
H24A H 0.8318 1.1626 0.5577
C25A C 0.7491(3) 1.1301(4) 0.3252(3)
C26A C 0.7787(4) 1.2153(4) 0.4008(4)
H25A H 0.8326 1.2499 0.3896
C27A C 0.7093(4) 1.2751(4) 0.3354(4)
H26A H 0.7321 1.3364 0.2905
C28A C 0.6467(4) 1.2495(5) 0.4781(4)
C29A C 0.6474(3) 1.2430(4) 0.2198(3)
H27A H 0.6713 1.2040 0.1875
H28A H 0.6584 1.3100 0.1804
C30A C 0.5533(4) 1.3525(4) 0.3606(4)
H29A H 0.5244 1.3741 0.4055
H30A H 0.5719 1.4096 0.3078
C31A C 0.5105(3) 1.1696(4) 0.2329(3)
C32A C 0.4914(3) 1.3098(4) 0.2536(3)
H31A H 0.5017 1.3741 0.2052
C33A C 0.3980(3) 1.2792(4) 0.2549(3)
H32A H 0.3649 1.3290 0.2069
C34A C 0.4083(4) 1.2873(4) 0.3881(4)
C35A C 0.3547(4) 1.1496(5) 0.2191(4)
H33A H 0.3868 1.1148 0.1855
H34A H 0.3145 1.2010 0.1809
C36A C 0.7391(3) 0.7492(4) 0.6327(4)
H35A H 0.7599 0.7299 0.5846
H36A H 0.7735 0.7078 0.6822
N13A N 0.7585(3) 0.8454(3) 0.6041(3)
N14A N 0.8190(3) 0.9810(4) 0.5130(3)
N15A N 0.6979(3) 0.9150(4) 0.7060(3)
N16A N 0.7579(3) 1.0517(4) 0.6149(3)
N17A N 0.7997(3) 1.1285(3) 0.3859(3)
N18A N 0.6965(3) 1.2118(3) 0.2960(3)
N19A N 0.7279(3) 1.1998(4) 0.4859(3)
N20A N 0.6312(3) 1.2913(4) 0.3920(3)
N21A N 0.5531(3) 1.2361(3) 0.2406(3)
N22A N 0.4199(3) 1.1927(4) 0.2430(3)
N23A N 0.4883(3) 1.3104(4) 0.3393(3)
N24A N 0.3543(3) 1.2680(3) 0.3401(3)
O11A O 0.7776(2) 0.8857(3) 0.4553(2)
O12A O 0.7541(2) 1.0652(3) 0.3010(2)
O13A O 0.5476(2) 1.1012(3) 0.2177(3)
O14A O 0.6297(3) 1.0557(4) 0.7080(3)
O15A O 0.5949(3) 1.2586(4) 0.5373(3)
O16A O 0.3849(3) 1.2884(3) 0.4597(3)
O1A O -0.0677(2) 0.8645(3) 1.3600(3)
O2A O -0.2606(3) 0.7589(3) 1.3927(3)
O3A O -0.1062(3) 1.0144(3) 1.1988(3)
O4A O -0.3675(2) 0.9318(3) 1.3378(3)
Er1A Er -0.209295(14) 0.911701(18) 1.309192(15)
Er1A_2 Er 0.790705(14) 0.911701(18) 0.309192(15)
O11A_2 O -0.2224(2) 0.8857(3) 1.4553(2)
O12A_2 O -0.2459(2) 1.0652(3) 1.3010(2)
Cl2 Cl 0.48715(12) 0.75705(17) 1.15429(19)
Cl3 Cl 0.64017(13) 0.54737(18) 1.1631(2)
Cl4 Cl 0.39054(14) 0.53962(16) 1.1911(2)
Cl5 Cl 0.5122(4) 0.6823(4) 0.9758(2)
Zn1 Zn 0.50699(6) 0.62928(6) 1.12063(6)
Cl1 Cl -0.01118(13) 0.79640(17) 0.55089(15)
loop_
_geom_bond_atom_site_label_1
_geom_bond_atom_site_label_2
_geom_bond_site_symmetry_1
_geom_bond_site_symmetry_2
O1 Er1 1_555 1_555
O2 Er1 1_555 1_555
O3 Er1 1_555 1_555
O4 Er1 1_555 1_555
Er1 O5 1_555 1_555
C1 N1 1_555 1_555
C2 H1 1_555 1_555
C3 C2 1_555 1_555
H2 C3 1_555 1_555
C4 N3 1_555 1_555
C5 H3 1_555 1_555
H4 C5 1_555 1_555
C6 H5 1_555 1_555
H6 C6 1_555 1_555
C7 N5 1_555 1_555
C8 H7 1_555 1_555
C9 C8 1_555 1_555
H8 C9 1_555 1_555
C10 N7 1_555 1_555
C11 H9 1_555 1_555
H10 C11 1_555 1_555
C12 H11 1_555 1_555
H12 C12 1_555 1_555
C13 N9 1_555 1_555
C14 H13 1_555 1_555
C15 C14 1_555 1_555
H14 C15 1_555 1_555
C16 N11 1_555 1_555
C17 H15 1_555 1_555
H16 C17 1_555 1_555
C18 H17 1_555 1_555
H18 C18 1_555 1_555
C19 N13 1_555 1_555
C20 H19 1_555 1_555
C21 C20 1_555 1_555
H20 C21 1_555 1_555
C22 N15 1_555 1_555
C23 H21 1_555 1_555
H22 C23 1_555 1_555
C24 H23 1_555 1_555
H24 C24 1_555 1_555
C25 N17 1_555 1_555
C26 H25 1_555 1_555
C27 C26 1_555 1_555
H26 C27 1_555 1_555
C28 N19 1_555 1_555
C29 H27 1_555 1_555
H28 C29 1_555 1_555
C30 H29 1_555 1_555
H30 C30 1_555 1_555
C31 N21 1_555 1_555
C32 H31 1_555 1_555
C33 C32 1_555 1_555
H32 C33 1_555 1_555
C34 N23 1_555 1_555
C35 H33 1_555 1_555
H34 C35 1_555 1_555
C36 H35 1_555 1_555
H36 C36 1_555 1_555
N1 C2 1_555 1_555
N2 C1 1_555 1_555
N3 C2 1_555 1_555
N4 C3 1_555 1_555
N5 C5 1_555 1_555
N6 C7 1_555 1_555
N7 C6 1_555 1_555
N8 C9 1_555 1_555
N9 C11 1_555 1_555
N10 C13 1_555 1_555
N11 C12 1_555 1_555
N12 C15 1_555 1_555
N13 C20 1_555 1_555
N14 C19 1_555 1_555
N15 C20 1_555 1_555
N16 C21 1_555 1_555
N17 C23 1_555 1_555
N18 C25 1_555 1_555
N19 C24 1_555 1_555
N20 C27 1_555 1_555
N21 C29 1_555 1_555
N22 C31 1_555 1_555
N23 C30 1_555 1_555
N24 C33 1_555 1_555
O5 C1 1_555 1_555
O6 Er1 1_555 1_555
O7 C13 1_555 1_555
O8 C4 1_555 1_555
O9 C10 1_555 1_555
O10 C16 1_555 1_555
O11 Er1 1_555 1_555
O12 Er1 1_555 1_555
O13 C31 1_555 1_555
O14 C22 1_555 1_555
O15 C28 1_555 1_555
O16 C34 1_555 1_555
Cl2 Zn1 1_555 1_555
Cl3 Zn1 1_555 1_555
Cl4 Zn1 1_555 1_555
Cl5 Zn1 1_555 1_555
C1A N1A 1_555 1_555
C2A H1A 1_555 1_555
C3A C2A 1_555 1_555
H2A C3A 1_555 1_555
C4A N3A 1_555 1_555
C5A H3A 1_555 1_555
H4A C5A 1_555 1_555
C6A H5A 1_555 1_555
H6A C6A 1_555 1_555
C7A N5A 1_555 1_555
C8A H7A 1_555 1_555
C9A C8A 1_555 1_555
H8A C9A 1_555 1_555
C10A N7A 1_555 1_555
C11A H9A 1_555 1_555
H10A C11A 1_555 1_555
C12A H11A 1_555 1_555
H12A C12A 1_555 1_555
C13A N9A 1_555 1_555
C14A H13A 1_555 1_555
C15A C14A 1_555 1_555
H14A C15A 1_555 1_555
C16A N11A 1_555 1_555
C17A N3 1_555 1_555
H15A C17A 1_555 1_555
H16A C17A 1_555 1_555
C18A N1 1_555 1_555
H17A C18A 1_555 1_555
H18A C18A 1_555 1_555
N1A C18 1_555 1_555
N2A C1A 1_555 1_555
N3A C17 1_555 1_555
N4A C3A 1_555 1_555
N5A C5A 1_555 1_555
N6A C7A 1_555 1_555
N7A C6A 1_555 1_555
N8A C9A 1_555 1_555
N9A C11A 1_555 1_555
N10A C13A 1_555 1_555
N11A C12A 1_555 1_555
N12A C15A 1_555 1_555
O5A C1A 1_555 1_555
O6A C7A 1_555 1_555
O7A C13A 1_555 1_555
O8A C4A 1_555 1_555
O9A C10A 1_555 1_555
O10A C16A 1_555 1_555
C19A N13A 1_555 1_555
C20A H19A 1_555 1_555
C21A C20A 1_555 1_555
H20A C21A 1_555 1_555
C22A N15A 1_555 1_555
C23A H21A 1_555 1_555
H22A C23A 1_555 1_555
C24A H23A 1_555 1_555
H24A C24A 1_555 1_555
C25A N17A 1_555 1_555
C26A H25A 1_555 1_555
C27A C26A 1_555 1_555
H26A C27A 1_555 1_555
C28A N19A 1_555 1_555
C29A H27A 1_555 1_555
H28A C29A 1_555 1_555
C30A H29A 1_555 1_555
H30A C30A 1_555 1_555
C31A N21A 1_555 1_555
C32A H31A 1_555 1_555
C33A C32A 1_555 1_555
H32A C33A 1_555 1_555
C34A N23A 1_555 1_555
C35A N15 1_555 1_555
H33A C35A 1_555 1_555
H34A C35A 1_555 1_555
C36A N24 1_555 1_555
H35A C36A 1_555 1_555
H36A C36A 1_555 1_555
N13A C20A 1_555 1_555
N14A C19A 1_555 1_555
N15A C35 1_555 1_555
N16A C21A 1_555 1_555
N17A C23A 1_555 1_555
N18A C25A 1_555 1_555
N19A C24A 1_555 1_555
N20A C27A 1_555 1_555
N21A C29A 1_555 1_555
N22A C31A 1_555 1_555
N23A C30A 1_555 1_555
N24A C36 1_555 1_555
O11A C19A 1_555 1_555
O12A C25A 1_555 1_555
O13A C31A 1_555 1_555
O14A C22A 1_555 1_555
O15A C28A 1_555 1_555
O16A C34A 1_555 1_555
O1A Er1A 1_555 1_555
O2A Er1A 1_555 1_555
O3A Er1A 1_555 1_555
O4A Er1A 1_555 1_555
Er1A O5A 1_555 1_555
Er1A_2 O11A 1_555 1_555
O11A_2 Er1A 1_555 1_555
O12A_2 Er1A 1_555 1_555
C3 N2 1_555 1_555
C4 N4 1_555 1_555
C5 N2 1_555 1_555
C6 N4 1_555 1_555
C7 O6 1_555 1_555
C8 N5 1_555 1_555
C8 N7 1_555 1_555
C9 N6 1_555 1_555
C10 N8 1_555 1_555
C11 N6 1_555 1_555
C12 N8 1_555 1_555
C14 N9 1_555 1_555
C14 N11 1_555 1_555
C15 N10 1_555 1_555
C16 N12 1_555 1_555
C17 N10 1_555 1_555
C18 N12 1_555 1_555
C19 O11 1_555 1_555
C21 N14 1_555 1_555
C22 N16 1_555 1_555
C23 N14 1_555 1_555
C24 N16 1_555 1_555
C25 O12 1_555 1_555
C26 N17 1_555 1_555
C26 N19 1_555 1_555
C27 N18 1_555 1_555
C28 N20 1_555 1_555
C29 N18 1_555 1_555
C30 N20 1_555 1_555
C32 N21 1_555 1_555
C32 N23 1_555 1_555
C33 N22 1_555 1_555
C34 N24 1_555 1_555
C35 N22 1_555 1_555
C36 N13 1_555 1_555
C2A N1A 1_555 1_555
C2A N3A 1_555 1_555
C3A N2A 1_555 1_555
C4A N4A 1_555 1_555
C5A N2A 1_555 1_555
C6A N4A 1_555 1_555
C8A N5A 1_555 1_555
C8A N7A 1_555 1_555
C9A N6A 1_555 1_555
C10A N8A 1_555 1_555
C11A N6A 1_555 1_555
C12A N8A 1_555 1_555
C14A N9A 1_555 1_555
C14A N11A 1_555 1_555
C15A N10A 1_555 1_555
C16A N12A 1_555 1_555
C17A N10A 1_555 1_555
C18A N12A 1_555 1_555
O6A Er1A 1_555 1_555
C20A N15A 1_555 1_555
C21A N14A 1_555 1_555
C22A N16A 1_555 1_555
C23A N14A 1_555 1_555
C24A N16A 1_555 1_555
C26A N17A 1_555 1_555
C26A N19A 1_555 1_555
C27A N18A 1_555 1_555
C28A N20A 1_555 1_555
C29A N18A 1_555 1_555
C30A N20A 1_555 1_555
C32A N21A 1_555 1_555
C32A N23A 1_555 1_555
C33A N22A 1_555 1_555
C33A N24A 1_555 1_555
C34A N24A 1_555 1_555
C35A N22A 1_555 1_555
C36A N13A 1_555 1_555
O12A Er1A_2 1_555 1_555

#END
