
#######################################################################
#
#                 Cambridge Crystallographic Data Centre
#                                CCDC 
#
#######################################################################
#
# If this CIF has been generated from an entry in the Cambridge 
# Structural Database, then it will include bibliographic, chemical, 
# crystal, experimental, refinement or atomic coordinate data resulting 
# from the CCDC's data processing and validation procedures.
#
#######################################################################

data_OGAKAJ
_symmetry_cell_setting           orthorhombic
_symmetry_space_group_name_H-M   'P 21 21 21'
_symmetry_Int_Tables_number      19
_space_group_name_Hall           'P 2ac 2ab'
loop_
_symmetry_equiv_pos_site_id
_symmetry_equiv_pos_as_xyz
1 x,y,z
2 1/2-x,-y,1/2+z
3 -x,1/2+y,1/2-z
4 1/2+x,1/2-y,-z
_cell_length_a                   11.9806(8)
_cell_length_b                   23.4273(15)
_cell_length_c                   20.7082(13)
_cell_angle_alpha                90
_cell_angle_beta                 90
_cell_angle_gamma                90
_cell_volume                     5812.23
loop_
_atom_site_label
_atom_site_type_symbol
_atom_site_fract_x
_atom_site_fract_y
_atom_site_fract_z
W1 W 0.06819(6) -0.49591(4) 0.34829(4)
W2 W -0.16336(6) -0.49724(3) 0.26929(4)
W3 W -0.27034(6) -0.62998(3) 0.19312(4)
W4 W -0.12452(6) -0.74558(3) 0.21203(4)
W5 W 0.13886(6) -0.75104(3) 0.30090(3)
W6 W 0.22908(6) -0.62914(3) 0.36667(4)
W7 W -0.14896(6) -0.56143(3) 0.40778(3)
W8 W -0.25470(6) -0.69292(3) 0.33397(3)
W9 W 0.00664(6) -0.69673(3) 0.42715(3)
W10 W 0.21626(6) -0.55811(3) 0.20838(3)
W11 W 0.12388(6) -0.67844(3) 0.14265(3)
W12 W -0.02242(6) -0.55833(3) 0.12763(3)
Pr1 Pr 0.30844(7) -0.37028(4) 0.37693(4)
Pr2 Pr 0.62415(7) -0.37972(4) 0.17787(4)
O1 O 0.1602(11) -0.3344(7) 0.4574(6)
H1 H 0.1231 -0.3594 0.4824
H2 H 0.1453 -0.2968 0.4605
O2 O 0.1450(10) -0.4394(6) 0.3791(6)
O5 O -0.2451(9) -0.4388(6) 0.2427(5)
O6 O 0.3641(11) -0.4755(7) 0.3599(8)
H7 H 0.3307 -0.5031 0.3832
H8 H 0.4170 -0.4846 0.3308
O8 O -0.3848(12) -0.6112(7) 0.1467(7)
O9 O 0.4027(9) -0.2959(6) 0.3095(7)
H11 H 0.3839 -0.2590 0.3141
H12 H 0.4553 -0.3061 0.2806
O11 O -0.1580(10) -0.8101(6) 0.1732(6)
O12 O 0.3313(12) -0.4173(7) 0.4816(7)
H15 H 0.2848 -0.4088 0.5144
H16 H 0.3862 -0.4430 0.4874
O14 O 0.2035(10) -0.8157(6) 0.2949(6)
O15 O 0.3844(12) -0.2933(7) 0.4474(6)
H19 H 0.3408 -0.2771 0.4777
H20 H 0.4555 -0.2817 0.4425
O16 O 0.3560(11) -0.6179(7) 0.4041(7)
O18 O 0.5555(11) -0.4796(7) 0.1938(8)
H23 H 0.5980 -0.5052 0.2149
H24 H 0.4884 -0.4899 0.1781
O20 O -0.2199(10) -0.5467(6) 0.4773(6)
O21 O 0.6944(10) -0.3257(8) 0.0773(6)
H27 H 0.7536 -0.3022 0.0806
H28 H 0.6600 -0.3303 0.0391
O22 O -0.3644(11) -0.7204(7) 0.3780(6)
O23 O 0.5486(11) -0.2807(6) 0.1765(7)
H29 H 0.5941 -0.2510 0.1847
H30 H 0.4760 -0.2745 0.1678
O24 O -0.0171(13) -0.7261(6) 0.5011(6)
O25 O 0.5300(12) -0.4065(8) 0.0762(6)
H31 H 0.5554 -0.3928 0.0383
H32 H 0.4702 -0.4298 0.0770
O26 O 0.3389(12) -0.5233(7) 0.1940(7)
O27 O 0.7654(13) -0.4348(7) 0.1091(6)
H33 H 0.8370 -0.4232 0.1076
H34 H 0.7436 -0.4656 0.0864
O28 O 0.1811(10) -0.7181(6) 0.0835(6)
O29 O -0.0525(12) -0.5209(7) 0.0575(7)
O30 O -0.0408(9) -0.4516(6) 0.3051(5)
O31 O -0.2521(10) -0.5583(6) 0.2372(6)
O32 O -0.2416(10) -0.7042(6) 0.1607(5)
O33 O -0.0092(10) -0.7660(6) 0.2677(5)
O34 O 0.1541(10) -0.5598(6) 0.3812(6)
O35 O 0.2551(10) -0.7076(6) 0.3381(6)
O36 O -0.0299(10) -0.5051(6) 0.4213(6)
O37 O -0.2263(10) -0.5040(6) 0.3546(6)
O38 O -0.3553(10) -0.6583(6) 0.2674(6)
O39 O -0.2390(10) -0.7588(6) 0.2799(6)
O40 O -0.2401(10) -0.6186(6) 0.3704(6)
O41 O 0.0757(9) -0.7617(6) 0.3866(5)
O42 O 0.1504(11) -0.6631(6) 0.4402(6)
O43 O -0.0560(10) -0.6205(6) 0.4386(5)
O44 O -0.1323(10) -0.7136(6) 0.3851(5)
O45 O 0.0535(10) -0.6061(7) 0.2078(6)
O46 O 0.1464(11) -0.5112(6) 0.2693(7)
O47 O 0.2560(10) -0.6059(6) 0.2821(6)
O48 O 0.2422(10) -0.6248(6) 0.1571(6)
O49 O -0.0178(11) -0.7145(6) 0.1544(6)
O50 O 0.1673(10) -0.7189(6) 0.2197(5)
O51 O 0.0492(11) -0.6234(7) 0.0862(6)
O52 O 0.1291(10) -0.5274(6) 0.1402(6)
O53 O -0.0754(9) -0.5068(6) 0.1922(6)
O54 O -0.1528(11) -0.6015(6) 0.1390(6)
O55 O -0.0560(10) -0.5569(6) 0.3175(6)
O56 O -0.1398(10) -0.6659(6) 0.2581(5)
O57 O 0.0644(10) -0.6670(6) 0.3287(6)
O58 O 0.2920(10) -0.3992(6) 0.2651(6)
O59 O 0.6070(10) -0.3527(6) 0.2914(6)
O60 O 0.4219(11) -0.3816(7) 0.1907(6)
O61 O 0.5126(11) -0.3850(7) 0.3760(6)
N1 N 0.0682(15) -0.3552(9) 0.0731(8)
N2 N 0.8928(14) -0.3830(9) 0.4609(8)
C1 C 0.3226(16) -0.3862(9) 0.2097(8)
C2 C 0.2337(14) -0.3758(9) 0.1595(8)
C3 C 0.2586(15) -0.3536(9) 0.1003(8)
H35 H 0.3325 -0.3471 0.0886
C4 C 0.1740(16) -0.3408(10) 0.0584(9)
H36 H 0.1895 -0.3222 0.0197
C5 C 0.0392(15) -0.3791(9) 0.1319(8)
H37 H -0.0349 -0.3876 0.1411
C6 C 0.1232(15) -0.3903(10) 0.1772(11)
H38 H 0.1070 -0.4065 0.2171
C7 C 0.5984(16) -0.3712(10) 0.3489(8)
C8 C 0.7052(13) -0.3756(8) 0.3864(7)
C9 C 0.8056(15) -0.3523(9) 0.3661(9)
H39 H 0.8090 -0.3327 0.3271
C10 C 0.9000(17) -0.3577(10) 0.4030(10)
H40 H 0.9681 -0.3440 0.3881
C11 C 0.797(2) -0.4063(12) 0.4818(11)
H41 H 0.7989 -0.4274 0.5198
C12 C 0.6999(17) -0.4008(10) 0.4510(9)
H42 H 0.6329 -0.4122 0.4696
Pr1B Pr -0.30844(7) -0.87028(4) 0.12307(4)
Pr2_2 Pr -0.37585(7) -0.37972(4) 0.17787(4)
Pr2B Pr 0.37585(7) -0.87972(4) 0.32213(4)
O5_2 O 0.7549(9) -0.4388(6) 0.2427(5)
O11B O 0.1580(10) -0.3101(6) 0.3268(6)
O14B O 0.7965(10) -0.3157(6) 0.2051(6)
O3 O 0.623(2) -0.9810(11) 0.4599(14)
H3 H 0.5903 -1.0021 0.4910
H4 H 0.6740 -0.9969 0.4337
O4 O 0.1592(14) -0.2169(8) 0.4711(8)
H5 H 0.1030 -0.2211 0.4996
H6 H 0.1851 -0.1819 0.4616
O7 O 0.1155(13) 0.1551(8) 0.5057(7)
H9 H 0.0621 0.1645 0.5344
H10 H 0.1553 0.1827 0.4860
O10 O 0.4293(12) 0.3040(8) 0.2278(8)
H13 H 0.3865 0.3294 0.2491
H14 H 0.4788 0.3162 0.1981
O13 O 0.0618(14) -0.4034(7) 0.5496(7)
H17 H 0.0191 -0.3748 0.5649
H18 H 0.0574 -0.4384 0.5674
O17 O 0.345(2) -0.5300(8) 0.5051(11)
H21 H 0.3030 -0.5334 0.5410
H22 H 0.3936 -0.5577 0.4945
O19 O 0.5660(14) -0.2336(9) 0.4062(8)
H25 H 0.5530 -0.2053 0.4345
H26 H 0.6303 -0.2344 0.3838
loop_
_geom_bond_atom_site_label_1
_geom_bond_atom_site_label_2
_geom_bond_site_symmetry_1
_geom_bond_site_symmetry_2
W1 O2 1_555 1_555
W2 O5 1_555 1_555
W3 O8 1_555 1_555
W4 O11 1_555 1_555
W5 O14 1_555 1_555
W6 O16 1_555 1_555
W7 O20 1_555 1_555
W8 O22 1_555 1_555
W9 O24 1_555 1_555
W10 O26 1_555 1_555
W11 O28 1_555 1_555
W12 O29 1_555 1_555
Pr1 O1 1_555 1_555
Pr2 O18 1_555 1_555
O1 H1 1_555 1_555
H2 O1 1_555 1_555
O2 Pr1 1_555 1_555
O3 H3 1_555 1_555
H4 O3 1_555 1_555
O4 H5 1_555 1_555
H6 O4 1_555 1_555
O5 Pr2_2 1_555 1_555
O6 Pr1 1_555 1_555
H7 O6 1_555 1_555
H8 O6 1_555 1_555
O7 H9 1_555 1_555
H10 O7 1_555 1_555
O9 Pr1 1_555 1_555
H11 O9 1_555 1_555
H12 O9 1_555 1_555
O10 H13 1_555 1_555
H14 O10 1_555 1_555
O11 Pr1B 1_555 1_555
O12 Pr1 1_555 1_555
H15 O12 1_555 1_555
H16 O12 1_555 1_555
O13 H17 1_555 1_555
H18 O13 1_555 1_555
O14 Pr2B 1_555 1_555
O15 Pr1 1_555 1_555
H19 O15 1_555 1_555
H20 O15 1_555 1_555
O17 H21 1_555 1_555
H22 O17 1_555 1_555
O18 H23 1_555 1_555
H24 O18 1_555 1_555
O19 H25 1_555 1_555
H26 O19 1_555 1_555
O21 Pr2 1_555 1_555
H27 O21 1_555 1_555
H28 O21 1_555 1_555
O23 Pr2 1_555 1_555
H29 O23 1_555 1_555
H30 O23 1_555 1_555
O25 Pr2 1_555 1_555
H31 O25 1_555 1_555
H32 O25 1_555 1_555
O27 Pr2 1_555 1_555
H33 O27 1_555 1_555
H34 O27 1_555 1_555
O30 W1 1_555 1_555
O31 W2 1_555 1_555
O32 W3 1_555 1_555
O33 W4 1_555 1_555
O34 W1 1_555 1_555
O35 W5 1_555 1_555
O36 W1 1_555 1_555
O37 W2 1_555 1_555
O38 W3 1_555 1_555
O39 W4 1_555 1_555
O40 W7 1_555 1_555
O41 W5 1_555 1_555
O42 W6 1_555 1_555
O43 W7 1_555 1_555
O44 W8 1_555 1_555
O45 W10 1_555 1_555
O46 W1 1_555 1_555
O47 W6 1_555 1_555
O48 W10 1_555 1_555
O49 W4 1_555 1_555
O50 W5 1_555 1_555
O51 W11 1_555 1_555
O52 W10 1_555 1_555
O53 W2 1_555 1_555
O54 W3 1_555 1_555
O55 W1 1_555 1_555
O56 W3 1_555 1_555
O57 W5 1_555 1_555
O58 Pr1 1_555 1_555
O59 Pr2 1_555 1_555
O60 Pr2 1_555 1_555
O61 Pr1 1_555 1_555
N1 C4 1_555 1_555
N2 C10 1_555 1_555
C1 O58 1_555 1_555
C2 C1 1_555 1_555
C3 C2 1_555 1_555
H35 C3 1_555 1_555
C4 C3 1_555 1_555
H36 C4 1_555 1_555
C5 N1 1_555 1_555
H37 C5 1_555 1_555
C6 C2 1_555 1_555
H38 C6 1_555 1_555
C7 O59 1_555 1_555
C8 C7 1_555 1_555
C9 C8 1_555 1_555
H39 C9 1_555 1_555
C10 C9 1_555 1_555
H40 C10 1_555 1_555
C11 N2 1_555 1_555
H41 C11 1_555 1_555
C12 C8 1_555 1_555
H42 C12 1_555 1_555
O5_2 Pr2 1_555 1_555
O11B Pr1 1_555 1_555
O14B Pr2 1_555 1_555
W2 O30 1_555 1_555
W2 O55 1_555 1_555
W3 O31 1_555 1_555
W4 O32 1_555 1_555
W4 O56 1_555 1_555
W5 O33 1_555 1_555
W6 O34 1_555 1_555
W6 O35 1_555 1_555
W6 O57 1_555 1_555
W7 O36 1_555 1_555
W7 O37 1_555 1_555
W7 O55 1_555 1_555
W8 O38 1_555 1_555
W8 O39 1_555 1_555
W8 O40 1_555 1_555
W8 O56 1_555 1_555
W9 O41 1_555 1_555
W9 O42 1_555 1_555
W9 O43 1_555 1_555
W9 O44 1_555 1_555
W9 O57 1_555 1_555
W10 O46 1_555 1_555
W10 O47 1_555 1_555
W11 O45 1_555 1_555
W11 O48 1_555 1_555
W11 O49 1_555 1_555
W11 O50 1_555 1_555
W12 O45 1_555 1_555
W12 O51 1_555 1_555
W12 O52 1_555 1_555
W12 O53 1_555 1_555
W12 O54 1_555 1_555
O60 C1 1_555 1_555
O61 C7 1_555 1_555
C5 C6 1_555 1_555
C11 C12 1_555 1_555

#END
