
#######################################################################
#
#                 Cambridge Crystallographic Data Centre
#                                CCDC 
#
#######################################################################
#
# If this CIF has been generated from an entry in the Cambridge 
# Structural Database, then it will include bibliographic, chemical, 
# crystal, experimental, refinement or atomic coordinate data resulting 
# from the CCDC's data processing and validation procedures.
#
#######################################################################

data_OGAKAK
_symmetry_cell_setting           monoclinic
_symmetry_space_group_name_H-M   'P 21/c'
_symmetry_Int_Tables_number      14
_space_group_name_Hall           '-P 2ybc'
loop_
_symmetry_equiv_pos_site_id
_symmetry_equiv_pos_as_xyz
1 x,y,z
2 -x,1/2+y,1/2-z
3 -x,-y,-z
4 x,1/2-y,1/2+z
_cell_length_a                   10.380(2)
_cell_length_b                   26.980(5)
_cell_length_c                   29.004(5)
_cell_angle_alpha                90
_cell_angle_beta                 95.530(6)
_cell_angle_gamma                90
_cell_volume                     8084.84
loop_
_atom_site_label
_atom_site_type_symbol
_atom_site_fract_x
_atom_site_fract_y
_atom_site_fract_z
Cl2 Cl 0.5167(2) 0.25440(16) 0.62115(8)
O1 O 0.7137(5) 0.3146(2) 0.45725(19)
O2 O 0.7774(5) 0.1880(2) 0.40408(17)
O3 O 0.7527(5) 0.1547(2) 0.5126(2)
O4 O 0.5655(5) 0.2515(3) 0.3976(2)
O5 O 0.7410(5) 0.2544(2) 0.54829(17)
O6 O -0.2158(5) 0.1935(2) 0.2857(2)
O7 O -0.2563(5) 0.3531(2) 0.22775(18)
O8 O -0.2794(5) 0.3218(2) 0.33794(17)
O9 O -0.2442(5) 0.2533(3) 0.19404(18)
O10 O -0.0657(6) 0.2589(3) 0.3447(2)
Gd1 Gd 0.69316(3) 0.227833(15) 0.468204(12)
Gd2 Gd -0.19595(3) 0.281409(15) 0.274011(12)
C1 C 0.3999(6) 0.2537(3) 0.5127(2)
C2 C 0.2083(7) 0.2774(3) 0.5418(3)
H1 H 0.2064 0.2916 0.5732
C3 C 0.2206(7) 0.2210(3) 0.5432(2)
H2 H 0.2189 0.2082 0.5752
C4 C 0.0284(7) 0.2436(3) 0.4986(2)
C5 C 0.4095(7) 0.1641(3) 0.5285(2)
H3 H 0.5028 0.1704 0.5329
H4 H 0.3858 0.1462 0.5558
C6 C 0.0755(7) 0.1525(3) 0.5052(3)
H5 H 0.0929 0.1343 0.5344
H6 H -0.0173 0.1496 0.4954
C7 C 0.4521(6) 0.1344(3) 0.4514(2)
C8 C 0.2679(6) 0.1013(3) 0.4809(2)
H7 H 0.2618 0.0772 0.5064
C9 C 0.2867(6) 0.0760(3) 0.4349(3)
H8 H 0.3013 0.0399 0.4387
C10 C 0.0889(7) 0.1177(3) 0.4274(3)
C11 C 0.4690(7) 0.0848(3) 0.3803(2)
H9 H 0.5602 0.0943 0.3861
H10 H 0.4653 0.0485 0.3784
C12 C 0.1313(7) 0.0651(3) 0.3611(3)
H11 H 0.1597 0.0305 0.3611
H12 H 0.0366 0.0653 0.3560
C13 C 0.4832(6) 0.1381(3) 0.3136(2)
C14 C 0.3079(7) 0.0826(3) 0.3077(2)
H13 H 0.3236 0.0470 0.3022
C15 C 0.3038(7) 0.1120(3) 0.2627(3)
H14 H 0.3071 0.0900 0.2356
C16 C 0.1087(7) 0.1220(3) 0.2949(3)
C17 C 0.4672(7) 0.1738(3) 0.2334(2)
H15 H 0.5614 0.1773 0.2392
H16 H 0.4489 0.1562 0.2040
C18 C 0.1287(7) 0.1656(3) 0.2225(3)
H17 H 0.0343 0.1657 0.2224
H18 H 0.1499 0.1490 0.1942
C19 C 0.4684(7) 0.2646(3) 0.2440(2)
C20 C 0.2892(7) 0.2315(3) 0.2000(3)
H19 H 0.2911 0.2175 0.1686
C21 C 0.2772(7) 0.2884(3) 0.1991(2)
H20 H 0.2789 0.3017 0.1674
C22 C 0.0972(6) 0.2557(3) 0.2293(2)
C23 C 0.4208(7) 0.3561(3) 0.2380(3)
H21 H 0.5133 0.3591 0.2481
H22 H 0.4043 0.3743 0.2088
C24 C 0.0887(7) 0.3449(3) 0.2134(2)
H23 H 0.1133 0.3628 0.1861
H24 H -0.0046 0.3386 0.2087
C25 C 0.4049(7) 0.3914(3) 0.3148(3)
C26 C 0.2329(7) 0.4077(3) 0.2617(2)
H25 H 0.2402 0.4320 0.2365
C27 C 0.2112(7) 0.4323(3) 0.3073(3)
H26 H 0.1958 0.4683 0.3031
C28 C 0.0447(6) 0.3751(3) 0.2904(2)
C29 C 0.3660(7) 0.4449(3) 0.3811(3)
H27 H 0.4606 0.4457 0.3864
H28 H 0.3349 0.4792 0.3812
C30 C 0.0299(7) 0.4241(3) 0.3618(3)
H29 H 0.0338 0.4604 0.3636
H30 H -0.0614 0.4146 0.3564
C31 C 0.3887(7) 0.3870(3) 0.4472(3)
C32 C 0.1883(7) 0.4270(3) 0.4341(2)
H31 H 0.1721 0.4625 0.4396
C33 C 0.1908(6) 0.3952(3) 0.4800(3)
H32 H 0.1856 0.4165 0.5076
C34 C 0.0172(7) 0.3698(3) 0.4286(2)
C35 C 0.3698(7) 0.3423(3) 0.5200(3)
H33 H 0.4641 0.3415 0.5198
H34 H 0.3504 0.3590 0.5486
C36 C 0.0290(6) 0.3345(3) 0.5086(2)
H35 H 0.0433 0.3524 0.5381
H36 H -0.0646 0.3303 0.5015
N1 N 0.3230(5) 0.2930(2) 0.5206(2)
N2 N 0.3427(6) 0.2105(2) 0.5255(2)
N3 N 0.0892(6) 0.2859(2) 0.5139(2)
N4 N 0.1071(5) 0.2043(2) 0.51318(19)
N5 N 0.3821(5) 0.1334(2) 0.48869(19)
N6 N 0.3998(5) 0.1011(2) 0.4198(2)
N7 N 0.1473(5) 0.1294(2) 0.4703(2)
N8 N 0.1699(6) 0.0864(2) 0.4065(2)
N9 N 0.4178(6) 0.1050(2) 0.3367(2)
N10 N 0.4213(5) 0.1438(2) 0.2702(2)
N11 N 0.1821(6) 0.0903(2) 0.3228(2)
N12 N 0.1832(5) 0.1379(2) 0.2615(2)
N13 N 0.4101(5) 0.2227(2) 0.2290(2)
N14 N 0.3907(5) 0.3042(2) 0.2294(2)
N15 N 0.1731(6) 0.2158(2) 0.2218(2)
N16 N 0.1568(5) 0.2978(2) 0.2169(2)
N17 N 0.3493(5) 0.3791(2) 0.2720(2)
N18 N 0.3291(6) 0.4233(2) 0.3350(2)
N19 N 0.1152(5) 0.3755(2) 0.2534(2)
N20 N 0.0974(6) 0.4077(2) 0.3224(2)
N21 N 0.3155(6) 0.4182(2) 0.4195(2)
N22 N 0.3151(6) 0.3711(2) 0.4807(2)
N23 N 0.0831(5) 0.4038(2) 0.4052(2)
N24 N 0.0797(6) 0.3648(2) 0.4716(2)
O11 O 0.5070(4) 0.2567(2) 0.49823(17)
O12 O 0.5471(4) 0.1609(2) 0.44733(17)
O13 O 0.5818(5) 0.1593(2) 0.32812(17)
O14 O 0.5752(4) 0.26818(19) 0.26580(18)
O15 O 0.5136(6) 0.3789(3) 0.3325(2)
O16 O 0.4993(5) 0.3755(2) 0.4416(2)
O17 O -0.0775(4) 0.2404(2) 0.47675(17)
O18 O -0.0190(5) 0.1303(3) 0.4108(2)
O19 O -0.0023(5) 0.1326(2) 0.2994(2)
O20 O -0.0096(4) 0.2523(2) 0.24413(17)
O21 O -0.0505(4) 0.3494(2) 0.29421(17)
O22 O -0.0839(5) 0.3489(2) 0.41397(18)
Gd1_2 Gd -0.30684(3) 0.227833(15) 0.468204(12)
Gd2_2 Gd 0.80405(3) 0.281409(15) 0.274011(12)
O14_2 O -0.4248(4) 0.26818(19) 0.26580(18)
O17_2 O 0.9225(4) 0.2404(2) 0.47675(17)
Cl3 Cl 0.7567(2) -0.10593(10) 0.38169(8)
Cl4 Cl 0.5376(5) -0.02302(18) 0.30805(16)
Cl5 Cl 0.5115(5) -0.03564(19) 0.43533(19)
Cl6 Cl 0.7908(4) 0.02788(17) 0.3894(2)
Zn1 Zn 0.64800(15) -0.03472(5) 0.37889(5)
Cl7 Cl -0.2711(4) 0.61220(13) 0.37352(10)
Cl8 Cl -0.0449(5) 0.54266(17) 0.30799(15)
Cl9 Cl -0.0250(6) 0.5337(2) 0.43456(17)
Cl10 Cl -0.2908(6) 0.4772(2) 0.3661(3)
Zn2 Zn -0.15910(16) 0.54241(6) 0.36980(6)
Cl1 Cl -0.0165(2) 0.24681(14) 0.12139(8)
loop_
_geom_bond_atom_site_label_1
_geom_bond_atom_site_label_2
_geom_bond_site_symmetry_1
_geom_bond_site_symmetry_2
O1 Gd1 1_555 1_555
O2 Gd1 1_555 1_555
O3 Gd1 1_555 1_555
O4 Gd1 1_555 1_555
O5 Gd1 1_555 1_555
O6 Gd2 1_555 1_555
O7 Gd2 1_555 1_555
O8 Gd2 1_555 1_555
O9 Gd2 1_555 1_555
O10 Gd2 1_555 1_555
Gd1 O11 1_555 1_555
Gd2 O20 1_555 1_555
C1 N1 1_555 1_555
C2 H1 1_555 1_555
C3 C2 1_555 1_555
H2 C3 1_555 1_555
C4 N3 1_555 1_555
C5 H3 1_555 1_555
H4 C5 1_555 1_555
C6 H5 1_555 1_555
H6 C6 1_555 1_555
C7 N5 1_555 1_555
C8 H7 1_555 1_555
C9 C8 1_555 1_555
H8 C9 1_555 1_555
C10 N7 1_555 1_555
C11 H9 1_555 1_555
H10 C11 1_555 1_555
C12 H11 1_555 1_555
H12 C12 1_555 1_555
C13 N9 1_555 1_555
C14 H13 1_555 1_555
C15 C14 1_555 1_555
H14 C15 1_555 1_555
C16 N11 1_555 1_555
C17 H15 1_555 1_555
H16 C17 1_555 1_555
C18 H17 1_555 1_555
H18 C18 1_555 1_555
C19 N13 1_555 1_555
C20 H19 1_555 1_555
C21 C20 1_555 1_555
H20 C21 1_555 1_555
C22 N15 1_555 1_555
C23 H21 1_555 1_555
H22 C23 1_555 1_555
C24 H23 1_555 1_555
H24 C24 1_555 1_555
C25 N17 1_555 1_555
C26 H25 1_555 1_555
C27 C26 1_555 1_555
H26 C27 1_555 1_555
C28 N19 1_555 1_555
C29 H27 1_555 1_555
H28 C29 1_555 1_555
C30 H29 1_555 1_555
H30 C30 1_555 1_555
C31 N21 1_555 1_555
C32 H31 1_555 1_555
C33 C32 1_555 1_555
H32 C33 1_555 1_555
C34 N23 1_555 1_555
C35 H33 1_555 1_555
H34 C35 1_555 1_555
C36 H35 1_555 1_555
H36 C36 1_555 1_555
N1 C2 1_555 1_555
N2 C1 1_555 1_555
N3 C2 1_555 1_555
N4 C3 1_555 1_555
N5 C5 1_555 1_555
N6 C7 1_555 1_555
N7 C6 1_555 1_555
N8 C9 1_555 1_555
N9 C11 1_555 1_555
N10 C13 1_555 1_555
N11 C12 1_555 1_555
N12 C15 1_555 1_555
N13 C17 1_555 1_555
N14 C19 1_555 1_555
N15 C18 1_555 1_555
N16 C21 1_555 1_555
N17 C23 1_555 1_555
N18 C25 1_555 1_555
N19 C24 1_555 1_555
N20 C27 1_555 1_555
N21 C29 1_555 1_555
N22 C31 1_555 1_555
N23 C30 1_555 1_555
N24 C33 1_555 1_555
O11 C1 1_555 1_555
O12 Gd1 1_555 1_555
O13 C13 1_555 1_555
O14 C19 1_555 1_555
O15 C25 1_555 1_555
O16 C31 1_555 1_555
O17 C4 1_555 1_555
O18 C10 1_555 1_555
O19 C16 1_555 1_555
O20 C22 1_555 1_555
O21 Gd2 1_555 1_555
O22 C34 1_555 1_555
Cl3 Zn1 1_555 1_555
Cl4 Zn1 1_555 1_555
Cl5 Zn1 1_555 1_555
Cl6 Zn1 1_555 1_555
Cl7 Zn2 1_555 1_555
Cl8 Zn2 1_555 1_555
Cl9 Zn2 1_555 1_555
Cl10 Zn2 1_555 1_555
Gd1_2 O17 1_555 1_555
Gd2_2 O14 1_555 1_555
O14_2 Gd2 1_555 1_555
O17_2 Gd1 1_555 1_555
C3 N2 1_555 1_555
C4 N4 1_555 1_555
C5 N2 1_555 1_555
C6 N4 1_555 1_555
C7 O12 1_555 1_555
C8 N5 1_555 1_555
C8 N7 1_555 1_555
C9 N6 1_555 1_555
C10 N8 1_555 1_555
C11 N6 1_555 1_555
C12 N8 1_555 1_555
C14 N9 1_555 1_555
C14 N11 1_555 1_555
C15 N10 1_555 1_555
C16 N12 1_555 1_555
C17 N10 1_555 1_555
C18 N12 1_555 1_555
C20 N13 1_555 1_555
C20 N15 1_555 1_555
C21 N14 1_555 1_555
C22 N16 1_555 1_555
C23 N14 1_555 1_555
C24 N16 1_555 1_555
C26 N17 1_555 1_555
C26 N19 1_555 1_555
C27 N18 1_555 1_555
C28 N20 1_555 1_555
C28 O21 1_555 1_555
C29 N18 1_555 1_555
C30 N20 1_555 1_555
C32 N21 1_555 1_555
C32 N23 1_555 1_555
C33 N22 1_555 1_555
C34 N24 1_555 1_555
C35 N1 1_555 1_555
C35 N22 1_555 1_555
C36 N3 1_555 1_555
C36 N24 1_555 1_555

#END
