
#######################################################################
#
#                 Cambridge Crystallographic Data Centre
#                                CCDC 
#
#######################################################################
#
# If this CIF has been generated from an entry in the Cambridge 
# Structural Database, then it will include bibliographic, chemical, 
# crystal, experimental, refinement or atomic coordinate data resulting 
# from the CCDC's data processing and validation procedures.
#
#######################################################################

data_OGAKEN
_symmetry_cell_setting           orthorhombic
_symmetry_space_group_name_H-M   'P 21 21 21'
_symmetry_Int_Tables_number      19
_space_group_name_Hall           'P 2ac 2ab'
loop_
_symmetry_equiv_pos_site_id
_symmetry_equiv_pos_as_xyz
1 x,y,z
2 1/2-x,-y,1/2+z
3 -x,1/2+y,1/2-z
4 1/2+x,1/2-y,-z
_cell_length_a                   11.9975(12)
_cell_length_b                   20.743(2)
_cell_length_c                   23.382(2)
_cell_angle_alpha                90
_cell_angle_beta                 90
_cell_angle_gamma                90
_cell_volume                     5818.94
loop_
_atom_site_label
_atom_site_type_symbol
_atom_site_fract_x
_atom_site_fract_y
_atom_site_fract_z
W1 W 0.09071(7) -0.01953(4) 0.25455(3)
W2 W 0.32344(7) -0.09827(4) 0.25364(3)
W3 W 0.48351(7) -0.11526(4) 0.12028(3)
W4 W 0.39072(6) -0.04976(4) -0.00015(3)
W5 W 0.12824(7) 0.03919(4) 0.00393(3)
W6 W -0.01713(7) 0.05628(4) 0.12205(3)
W7 W 0.10446(7) -0.15803(3) 0.18922(3)
W8 W 0.26116(7) -0.17608(4) 0.05441(3)
W9 W -0.00093(6) -0.08471(3) 0.05707(3)
W10 W 0.23052(7) 0.12215(3) 0.19248(3)
W11 W 0.37640(7) 0.10783(4) 0.07231(3)
W12 W 0.46891(7) 0.04223(4) 0.19227(3)
O1 O 0.0076(11) 0.0055(6) 0.3119(5)
O2 O -0.2180(13) 0.1728(7) 0.3406(9)
H1 H -0.1990 0.2102 0.3575
H2 H -0.2702 0.1724 0.3130
O4 O 0.3973(11) -0.1285(7) 0.3125(6)
O5 O -0.0605(13) 0.1713(7) 0.4241(7)
H5 H -0.0116 0.1984 0.4075
H6 H -0.0861 0.1797 0.4595
O7 O 0.6108(12) -0.1515(7) 0.1319(7)
O8 O -0.2013(12) 0.0742(9) 0.4688(6)
H9 H -0.1842 0.1073 0.4920
H10 H -0.2459 0.0423 0.4813
O10 O 0.4581(11) -0.0449(6) -0.0647(5)
O11 O 0.0117(14) 0.1402(7) 0.3155(7)
H13 H 0.0389 0.1765 0.3313
H14 H 0.0334 0.1285 0.2801
O13 O 0.0937(10) 0.0780(6) -0.0605(6)
O14 O -0.1956(12) 0.0488(10) 0.2730(7)
H17 H -0.1711 0.0728 0.2435
H18 H -0.2453 0.0171 0.2670
O16 O -0.1330(11) 0.1009(7) 0.1386(6)
O17 O -0.4154(14) -0.2288(7) 0.3320(7)
H21 H -0.3947 -0.2297 0.2950
H22 H -0.4262 -0.2658 0.3512
O19 O 0.0329(12) -0.2272(7) 0.2045(6)
O20 O -0.3709(16) -0.1959(8) 0.4583(8)
H25 H -0.3121 -0.2219 0.4521
H26 H -0.4040 -0.1952 0.4928
O21 O -0.5886(13) -0.2060(8) 0.4149(6)
H27 H -0.6253 -0.2308 0.3895
H28 H -0.6038 -0.2093 0.4524
O22 O 0.2412(15) -0.2491(7) 0.0241(7)
O23 O -0.1106(13) -0.1294(8) 0.0292(6)
O24 O -0.3825(14) -0.1075(9) 0.2756(7)
H29 H -0.4150 -0.1303 0.2474
H30 H -0.3296 -0.0782 0.2672
O25 O -0.3491(11) -0.0608(7) 0.4574(6)
H31 H -0.2967 -0.0316 0.4482
H32 H -0.3686 -0.0667 0.4942
O26 O 0.1985(15) 0.1889(8) 0.2315(7)
O27 O 0.4328(12) 0.1682(6) 0.0335(6)
O28 O 0.5906(12) 0.0557(8) 0.2297(7)
O29 O 0.2134(11) -0.0549(6) 0.2983(5)
O30 O 0.4079(12) -0.1292(6) 0.1907(5)
O31 O 0.5101(11) -0.0858(6) 0.0420(5)
O32 O 0.2439(11) -0.0158(6) -0.0163(5)
O33 O -0.0006(11) 0.0106(6) 0.1925(5)
O34 O 0.0129(12) 0.0881(6) 0.0474(6)
O35 O 0.0288(13) -0.1042(6) 0.2460(6)
O36 O 0.2218(11) -0.1702(6) 0.2447(6)
O37 O 0.4053(11) -0.1889(6) 0.0878(6)
O38 O 0.3289(11) -0.1356(6) -0.0105(6)
O39 O 0.1977(10) -0.1875(6) 0.1298(5)
O40 O 0.0177(11) -0.0296(6) -0.0081(6)
O41 O -0.0967(12) -0.0198(7) 0.0910(6)
O42 O 0.0107(12) -0.1214(6) 0.1314(5)
O43 O 0.1232(11) -0.1345(6) 0.0372(6)
O44 O 0.3099(11) 0.0439(7) 0.1434(6)
O45 O 0.1769(10) 0.0588(6) 0.2428(6)
O46 O 0.0997(11) 0.1117(6) 0.1495(5)
O47 O 0.2990(12) 0.1642(6) 0.1271(6)
O48 O 0.4233(11) 0.0321(7) 0.0327(6)
O49 O 0.2336(11) 0.0971(6) 0.0346(5)
O50 O 0.4935(12) 0.0958(7) 0.1266(6)
O51 O 0.3817(11) 0.1094(6) 0.2261(5)
O52 O 0.3989(11) -0.0195(6) 0.2393(6)
O53 O 0.5092(13) -0.0298(7) 0.1461(6)
O54 O 0.1968(11) -0.0662(6) 0.1929(5)
O55 O 0.3192(12) -0.0787(6) 0.0829(6)
O56 O 0.1138(11) -0.0087(6) 0.0850(5)
O57 O -0.3285(13) 0.0601(8) 0.3707(7)
O58 O -0.1458(11) -0.0426(7) 0.3959(6)
O59 O -0.4550(12) -0.0156(6) 0.3533(6)
O60 O -0.2382(12) -0.1279(8) 0.3692(7)
C1 C -0.4221(15) 0.0413(9) 0.3659(8)
C2 C -0.5171(15) 0.0903(9) 0.3759(7)
C3 C -0.4962(17) 0.1506(8) 0.3981(8)
H33 H -0.4238 0.1633 0.4068
C4 C -0.582(2) 0.1905(9) 0.4070(9)
H34 H -0.5680 0.2306 0.4231
C5 C -0.7113(19) 0.1158(13) 0.3707(8)
H35 H -0.7844 0.1054 0.3613
C6 C -0.6260(16) 0.0724(10) 0.3619(9)
H36 H -0.6408 0.0318 0.3469
C7 C -0.1526(18) -0.0998(9) 0.3793(9)
C8 C -0.0461(15) -0.1373(9) 0.3748(8)
C9 C -0.056(2) -0.2000(10) 0.3497(11)
H37 H -0.1233 -0.2169 0.3372
C10 C 0.048(2) -0.2346(11) 0.3454(10)
H38 H 0.0498 -0.2747 0.3276
C11 C 0.147(2) -0.1525(13) 0.3901(10)
H39 H 0.2147 -0.1356 0.4021
C12 C 0.0515(18) -0.1176(10) 0.3970(8)
H40 H 0.0541 -0.0792 0.4176
N1 N -0.6853(17) 0.1755(9) 0.3939(8)
N2 N 0.1431(16) -0.2097(9) 0.3667(8)
Nd1 Nd -0.12644(8) 0.07055(5) 0.37083(4)
Nd2 Nd -0.44118(8) -0.12610(5) 0.38027(4)
O4_2 O -0.6027(11) -0.1285(7) 0.3125(6)
O10A O 0.0419(11) 0.0449(6) 0.4353(5)
O13A O -0.5937(10) -0.0780(6) 0.4395(6)
Nd1A Nd 0.62644(8) -0.07055(5) -0.12917(4)
Nd2_2 Nd 0.55882(8) -0.12610(5) 0.38027(4)
Nd2A Nd -0.05882(8) 0.12610(5) -0.11973(4)
O3 O -0.102(2) 0.2533(12) -0.2777(10)
H3 H -0.0798 0.2930 -0.2886
H4 H -0.1223 0.2242 -0.3042
O6 O -0.3108(18) 0.1581(11) 0.0204(11)
H7 H -0.2578 0.1680 -0.0054
H8 H -0.3829 0.1573 0.0099
O9 O -0.1825(15) -0.0248(12) 0.5555(9)
H11 H -0.2228 -0.0611 0.5589
H12 H -0.1526 -0.0063 0.5868
O12 O 0.097(2) 0.2200(8) 0.0336(8)
H15 H 0.0520 0.2167 0.0029
H16 H 0.1644 0.2386 0.0302
O15 O 0.3655(15) -0.2550(8) -0.0952(8)
H19 H 0.4297 -0.2404 -0.1103
H20 H 0.3326 -0.2903 -0.1098
O18 O 0.1921(13) 0.2996(8) -0.1578(8)
H23 H 0.1462 0.2953 -0.1880
H24 H 0.2587 0.3190 -0.1621
loop_
_geom_bond_atom_site_label_1
_geom_bond_atom_site_label_2
_geom_bond_site_symmetry_1
_geom_bond_site_symmetry_2
W1 O1 1_555 1_555
W2 O4 1_555 1_555
W3 O7 1_555 1_555
W4 O10 1_555 1_555
W5 O13 1_555 1_555
W6 O16 1_555 1_555
W7 O19 1_555 1_555
W8 O22 1_555 1_555
W9 O23 1_555 1_555
W10 O26 1_555 1_555
W11 O27 1_555 1_555
W12 O28 1_555 1_555
O1 Nd1 1_555 1_555
O2 H1 1_555 1_555
H2 O2 1_555 1_555
O3 H3 1_555 1_555
H4 O3 1_555 1_555
O4 Nd2_2 1_555 1_555
O5 H5 1_555 1_555
H6 O5 1_555 1_555
O6 H7 1_555 1_555
H8 O6 1_555 1_555
O8 H9 1_555 1_555
H10 O8 1_555 1_555
O9 H11 1_555 1_555
H12 O9 1_555 1_555
O10 Nd1A 1_555 1_555
O11 H13 1_555 1_555
H14 O11 1_555 1_555
O12 H15 1_555 1_555
H16 O12 1_555 1_555
O13 Nd2A 1_555 1_555
O14 H17 1_555 1_555
H18 O14 1_555 1_555
O15 H19 1_555 1_555
H20 O15 1_555 1_555
O17 H21 1_555 1_555
H22 O17 1_555 1_555
O18 H23 1_555 1_555
H24 O18 1_555 1_555
O20 H25 1_555 1_555
H26 O20 1_555 1_555
O21 H27 1_555 1_555
H28 O21 1_555 1_555
O24 H29 1_555 1_555
H30 O24 1_555 1_555
O25 H31 1_555 1_555
H32 O25 1_555 1_555
O29 W1 1_555 1_555
O30 W2 1_555 1_555
O31 W3 1_555 1_555
O32 W4 1_555 1_555
O33 W1 1_555 1_555
O34 W5 1_555 1_555
O35 W1 1_555 1_555
O36 W2 1_555 1_555
O37 W3 1_555 1_555
O38 W4 1_555 1_555
O39 W7 1_555 1_555
O40 W5 1_555 1_555
O41 W6 1_555 1_555
O42 W7 1_555 1_555
O43 W8 1_555 1_555
O44 W10 1_555 1_555
O45 W1 1_555 1_555
O46 W6 1_555 1_555
O47 W10 1_555 1_555
O48 W4 1_555 1_555
O49 W5 1_555 1_555
O50 W11 1_555 1_555
O51 W10 1_555 1_555
O52 W2 1_555 1_555
O53 W3 1_555 1_555
O54 W1 1_555 1_555
O55 W3 1_555 1_555
O56 W5 1_555 1_555
O57 C1 1_555 1_555
O58 C7 1_555 1_555
O59 C1 1_555 1_555
O60 C7 1_555 1_555
C1 C2 1_555 1_555
C2 C3 1_555 1_555
C3 H33 1_555 1_555
C4 C3 1_555 1_555
H34 C4 1_555 1_555
C5 H35 1_555 1_555
C6 C2 1_555 1_555
H36 C6 1_555 1_555
C7 C8 1_555 1_555
C8 C9 1_555 1_555
C9 H37 1_555 1_555
C10 C9 1_555 1_555
H38 C10 1_555 1_555
C11 H39 1_555 1_555
C12 C8 1_555 1_555
H40 C12 1_555 1_555
N1 C4 1_555 1_555
N2 C10 1_555 1_555
Nd1 O2 1_555 1_555
Nd2 O17 1_555 1_555
O4_2 Nd2 1_555 1_555
O10A Nd1 1_555 1_555
O13A Nd2 1_555 1_555
W2 O29 1_555 1_555
W2 O54 1_555 1_555
W3 O30 1_555 1_555
W4 O31 1_555 1_555
W4 O55 1_555 1_555
W5 O32 1_555 1_555
W6 O33 1_555 1_555
W6 O34 1_555 1_555
W6 O56 1_555 1_555
W7 O35 1_555 1_555
W7 O36 1_555 1_555
W7 O54 1_555 1_555
W8 O37 1_555 1_555
W8 O38 1_555 1_555
W8 O39 1_555 1_555
W8 O55 1_555 1_555
W9 O40 1_555 1_555
W9 O41 1_555 1_555
W9 O42 1_555 1_555
W9 O43 1_555 1_555
W9 O56 1_555 1_555
W10 O45 1_555 1_555
W10 O46 1_555 1_555
W11 O44 1_555 1_555
W11 O47 1_555 1_555
W11 O48 1_555 1_555
W11 O49 1_555 1_555
W12 O44 1_555 1_555
W12 O50 1_555 1_555
W12 O51 1_555 1_555
W12 O52 1_555 1_555
W12 O53 1_555 1_555
O5 Nd1 1_555 1_555
O8 Nd1 1_555 1_555
O11 Nd1 1_555 1_555
O14 Nd1 1_555 1_555
O20 Nd2 1_555 1_555
O21 Nd2 1_555 1_555
O24 Nd2 1_555 1_555
O25 Nd2 1_555 1_555
O57 Nd1 1_555 1_555
O58 Nd1 1_555 1_555
O59 Nd2 1_555 1_555
O60 Nd2 1_555 1_555
C5 C6 1_555 1_555
C5 N1 1_555 1_555
C11 C12 1_555 1_555
C11 N2 1_555 1_555

#END
