
#######################################################################
#
#                 Cambridge Crystallographic Data Centre
#                                CCDC 
#
#######################################################################
#
# If this CIF has been generated from an entry in the Cambridge 
# Structural Database, then it will include bibliographic, chemical, 
# crystal, experimental, refinement or atomic coordinate data resulting 
# from the CCDC's data processing and validation procedures.
#
#######################################################################

data_OGAKUD
_symmetry_cell_setting           triclinic
_symmetry_space_group_name_H-M   'P -1'
_symmetry_Int_Tables_number      2
_space_group_name_Hall           '-P 1'
loop_
_symmetry_equiv_pos_site_id
_symmetry_equiv_pos_as_xyz
1 x,y,z
2 -x,-y,-z
_cell_length_a                   7.124(2)
_cell_length_b                   7.305(3)
_cell_length_c                   11.892(4)
_cell_angle_alpha                104.213(4)
_cell_angle_beta                 90.459(4)
_cell_angle_gamma                112.169(4)
_cell_volume                     552.073
loop_
_atom_site_label
_atom_site_type_symbol
_atom_site_fract_x
_atom_site_fract_y
_atom_site_fract_z
Zn1 Zn 0.0000 0.0000 1.0000
Zn2 Zn 0.5000 0.5000 0.5000
O1 O 0.7703(2) 0.4625(3) 0.72462(14)
O2 O 0.4542(2) 0.3616(2) 0.63875(13)
O3 O 0.5840(2) 0.2288(2) 1.16410(13)
O4 O 0.2451(2) 0.0816(2) 1.12777(13)
O5 O 0.4528(4) 0.7513(3) 0.60311(17)
H1 H 0.3674 0.7881 0.5745
H2 H 0.4469 0.7522 0.6746
O6 O 0.1875(3) 0.3455(4) 0.4435(2)
H3 H 0.0920 0.2513 0.4634
H4 H 0.1572 0.3819 0.3856
O7 O 0.0448(2) -0.2732(2) 0.91517(15)
H5 H 0.1603 -0.2574 0.8908
H6 H -0.0551 -0.3572 0.8650
N1 N 0.2496(3) 0.1707(3) 0.92518(15)
N2 N 0.2920(3) 0.2256(3) 0.82682(15)
H7 H 0.2014 0.2097 0.7730
C1 C 0.5800(3) 0.3843(3) 0.72065(18)
C2 C 0.4951(3) 0.3094(3) 0.82205(19)
C3 C 0.5889(3) 0.3096(3) 0.92403(18)
H8 H 0.7281 0.3583 0.9467
C4 C 0.4291(3) 0.2206(3) 0.98548(18)
C5 C 0.4224(3) 0.1747(3) 1.10154(18)
Zn2_2 Zn -0.5000 -0.5000 1.5000
O1A O -0.7703(2) -0.4625(3) 1.27538(14)
O2A O -0.4542(2) -0.3616(2) 1.36125(13)
O2A_2 O 0.5458(2) 0.6384(2) 0.36125(13)
O3A O -0.5840(2) -0.2288(2) 0.83590(13)
O4A O -0.2451(2) -0.0816(2) 0.87223(13)
O5A O 0.5472(4) 0.2487(3) 0.39689(17)
H1A H 0.6326 0.2119 0.4255
H2A H 0.5531 0.2478 0.3254
O6A O 0.8125(3) 0.6545(4) 0.5565(2)
H3A H 0.9080 0.7487 0.5366
H4A H 0.8428 0.6181 0.6144
O7A O -0.0448(2) 0.2732(2) 1.08483(15)
H5A H -0.1603 0.2574 1.1092
H6A H 0.0551 0.3572 1.1350
N1A N -0.2496(3) -0.1707(3) 1.07482(15)
N2A N -0.2920(3) -0.2256(3) 1.17318(15)
H7A H -0.2014 -0.2097 1.2270
C1A C -0.5800(3) -0.3843(3) 1.27935(18)
C2A C -0.4951(3) -0.3094(3) 1.17795(19)
C3A C -0.5889(3) -0.3096(3) 1.07597(18)
H8A H -0.7281 -0.3583 1.0533
C4A C -0.4291(3) -0.2206(3) 1.01452(18)
C5A C -0.4224(3) -0.1747(3) 0.89846(18)
O8 O 0.8005(3) 1.0739(3) 0.47520(18)
H9 H 0.7166 0.9549 0.4380
H10 H 0.8149 1.0993 0.5492
O9 O 0.9169(3) 0.1467(3) 0.71395(17)
H11 H 0.8924 0.2545 0.7239
H12 H 0.8449 0.0595 0.7485
loop_
_geom_bond_atom_site_label_1
_geom_bond_atom_site_label_2
_geom_bond_site_symmetry_1
_geom_bond_site_symmetry_2
Zn1 O4 1_555 1_555
Zn2 O2 1_555 1_555
O1 C1 1_555 1_555
O2 C1 1_555 1_555
O3 C5 1_555 1_555
O4 C5 1_555 1_555
O5 Zn2 1_555 1_555
H1 O5 1_555 1_555
H2 O5 1_555 1_555
O6 Zn2 1_555 1_555
H3 O6 1_555 1_555
H4 O6 1_555 1_555
O7 Zn1 1_555 1_555
H5 O7 1_555 1_555
H6 O7 1_555 1_555
N1 Zn1 1_555 1_555
N2 N1 1_555 1_555
H7 N2 1_555 1_555
C1 C2 1_555 1_555
C2 N2 1_555 1_555
C3 C2 1_555 1_555
H8 C3 1_555 1_555
C4 N1 1_555 1_555
C5 C4 1_555 1_555
O8 H9 1_555 1_555
H10 O8 1_555 1_555
O9 H11 1_555 1_555
H12 O9 1_555 1_555
Zn2_2 O2A 1_555 1_555
O1A C1A 1_555 1_555
O2A C1A 1_555 1_555
O2A_2 Zn2 1_555 1_555
O3A C5A 1_555 1_555
O4A Zn1 1_555 1_555
O5A Zn2 1_555 1_555
H1A O5A 1_555 1_555
H2A O5A 1_555 1_555
O6A Zn2 1_555 1_555
H3A O6A 1_555 1_555
H4A O6A 1_555 1_555
O7A Zn1 1_555 1_555
H5A O7A 1_555 1_555
H6A O7A 1_555 1_555
N1A Zn1 1_555 1_555
N2A N1A 1_555 1_555
H7A N2A 1_555 1_555
C1A C2A 1_555 1_555
C2A N2A 1_555 1_555
C3A C2A 1_555 1_555
H8A C3A 1_555 1_555
C4A N1A 1_555 1_555
C5A O4A 1_555 1_555
C3 C4 1_555 1_555
C3A C4A 1_555 1_555
C4A C5A 1_555 1_555

#END
