
#######################################################################
#
#                 Cambridge Crystallographic Data Centre
#                                CCDC 
#
#######################################################################
#
# If this CIF has been generated from an entry in the Cambridge 
# Structural Database, then it will include bibliographic, chemical, 
# crystal, experimental, refinement or atomic coordinate data resulting 
# from the CCDC's data processing and validation procedures.
#
#######################################################################

data_OGAKIS
_symmetry_cell_setting           monoclinic
_symmetry_space_group_name_H-M   'P 21/c'
_symmetry_Int_Tables_number      14
_space_group_name_Hall           '-P 2ybc'
loop_
_symmetry_equiv_pos_site_id
_symmetry_equiv_pos_as_xyz
1 x,y,z
2 -x,1/2+y,1/2-z
3 -x,-y,-z
4 x,1/2-y,1/2+z
_cell_length_a                   10.4581(11)
_cell_length_b                   26.990(3)
_cell_length_c                   29.150(3)
_cell_angle_alpha                90
_cell_angle_beta                 94.840(3)
_cell_angle_gamma                90
_cell_volume                     8198.66
loop_
_atom_site_label
_atom_site_type_symbol
_atom_site_fract_x
_atom_site_fract_y
_atom_site_fract_z
Cl2 Cl -0.48797(15) 0.25394(10) 0.12063(5)
Cl3 Cl 0.75515(15) 0.60614(6) 0.38199(5)
Cl4 Cl 0.5479(3) 0.52051(10) 0.30892(10)
Cl5 Cl 0.5101(3) 0.53617(11) 0.43450(10)
Cl6 Cl 0.7888(3) 0.47169(11) 0.39153(15)
Zn1 Zn 0.64778(8) 0.53462(3) 0.37937(3)
Cl7 Cl -0.2721(3) -0.11348(9) 0.37350(7)
Cl8 Cl -0.0494(3) -0.04275(11) 0.30629(11)
Cl9 Cl -0.2881(3) 0.02312(17) 0.3688(2)
Cl10 Cl -0.0296(4) -0.03509(15) 0.43382(13)
Zn2 Zn -0.16153(11) -0.04328(4) 0.36906(4)
O1 O 0.7812(3) 0.31277(17) 0.40433(13)
O2 O 0.7520(3) 0.34578(14) 0.51366(13)
O3 O 0.7084(3) 0.18466(16) 0.45587(15)
O4 O 0.7434(3) 0.24313(18) 0.54889(13)
O5 O 0.5737(5) 0.2481(2) 0.39111(18)
O6 O -0.2571(4) 0.14295(16) 0.22566(13)
O7 O -0.2119(3) 0.30258(17) 0.28923(16)
O8 O -0.2864(3) 0.17650(16) 0.33790(13)
O9 O -0.2470(3) 0.2460(2) 0.19159(13)
O10 O -0.0789(5) 0.2379(2) 0.3484(2)
Sm1 Sm 0.69713(3) 0.272760(16) 0.469517(13)
Sm2 Sm -0.20209(3) 0.216645(17) 0.271906(13)
C1 C 0.0907(4) 0.38176(18) 0.43044(17)
C2 C 0.2733(4) 0.39773(17) 0.48109(16)
H1 H 0.2689 0.4216 0.5067
C3 C 0.2904(4) 0.42324(18) 0.43536(15)
H2 H 0.3052 0.4593 0.4392
C4 C 0.4501(4) 0.36488(18) 0.45001(17)
C5 C 0.1376(5) 0.43500(18) 0.36323(17)
H3 H 0.1701 0.4691 0.3638
H4 H 0.0438 0.4366 0.3584
C6 C 0.4685(4) 0.41365(19) 0.37968(16)
H5 H 0.4652 0.4499 0.3777
H6 H 0.5590 0.4040 0.3847
C7 C 0.3099(4) 0.41738(18) 0.30829(15)
H7 H 0.3263 0.4529 0.3028
C8 C 0.3037(4) 0.38714(16) 0.26330(16)
H8 H 0.3088 0.4087 0.2360
C9 C 0.1120(5) 0.37722(18) 0.29789(17)
C10 C 0.4775(4) 0.35980(19) 0.31384(16)
C11 C 0.1278(4) 0.33427(18) 0.22409(17)
H9 H 0.1482 0.3510 0.1958
H10 H 0.0342 0.3345 0.2247
C12 C 0.4664(4) 0.32461(18) 0.23513(16)
H11 H 0.5587 0.3196 0.2423
H12 H 0.4547 0.3428 0.2060
C13 C 0.0934(4) 0.24456(18) 0.22968(14)
C14 C 0.2868(4) 0.26878(18) 0.20090(15)
H13 H 0.2903 0.2834 0.1699
C15 C 0.2721(4) 0.21177(18) 0.19907(14)
H14 H 0.2729 0.1993 0.1672
C16 C 0.0838(4) 0.15479(19) 0.21378(15)
H15 H -0.0088 0.1611 0.2100
H16 H 0.1073 0.1373 0.1863
C17 C 0.4138(4) 0.14272(19) 0.23502(17)
H17 H 0.5061 0.1394 0.2436
H18 H 0.3943 0.1250 0.2059
C18 C 0.0446(4) 0.12469(19) 0.29084(15)
C19 C 0.4024(4) 0.10699(18) 0.31262(17)
C20 C 0.2251(4) 0.09174(17) 0.26039(16)
H19 H 0.2311 0.0680 0.2348
C21 C 0.2038(4) 0.06569(18) 0.30554(17)
H20 H 0.1880 0.0298 0.3009
C22 C 0.0274(4) 0.07527(19) 0.36077(16)
H21 H 0.0304 0.0390 0.3626
H22 H -0.0629 0.0850 0.3554
C23 C 0.3580(5) 0.0533(2) 0.37816(17)
H23 H 0.4517 0.0514 0.3828
H24 H 0.3247 0.0193 0.3785
C24 C 0.0173(4) 0.13047(18) 0.42769(16)
C25 C 0.1850(4) 0.07264(18) 0.43324(16)
H25 H 0.1695 0.0371 0.4389
C26 C 0.1896(4) 0.10333(19) 0.47835(18)
H26 H 0.1833 0.0819 0.5056
C27 C 0.3825(4) 0.11127(18) 0.44475(16)
C28 C 0.0293(4) 0.16566(18) 0.50633(16)
H27 H -0.0633 0.1702 0.4993
H28 H 0.0423 0.1478 0.5356
C29 C 0.3659(4) 0.1548(2) 0.51850(17)
H29 H 0.4596 0.1542 0.5188
H30 H 0.3426 0.1383 0.5466
C30 C 0.2091(4) 0.22101(18) 0.54090(14)
H31 H 0.2055 0.2062 0.5719
C31 C 0.2200(4) 0.27780(18) 0.54268(15)
H32 H 0.2195 0.2906 0.5745
C32 C 0.3995(4) 0.2444(2) 0.51150(14)
C33 C 0.0795(4) 0.34665(19) 0.50692(16)
H33 H 0.0981 0.3643 0.5361
H34 H -0.0128 0.3495 0.4982
C34 C 0.4139(4) 0.33272(19) 0.52728(15)
H35 H 0.5062 0.3258 0.5302
H36 H 0.3926 0.3497 0.5554
C35 C 0.0340(4) 0.2564(2) 0.49854(15)
C36 C 0.4630(4) 0.23281(17) 0.24363(14)
N1 N 0.3119(3) 0.12751(16) 0.47929(14)
N2 N 0.3098(3) 0.08090(15) 0.41660(14)
N3 N 0.3228(3) 0.07483(16) 0.33369(14)
N4 N 0.3439(3) 0.11956(15) 0.27038(14)
N5 N 0.3839(3) 0.19384(15) 0.22823(13)
N6 N 0.4039(3) 0.27611(14) 0.22919(12)
N7 N 0.4181(3) 0.35389(15) 0.27059(13)
N8 N 0.4178(3) 0.39387(15) 0.33761(13)
N9 N 0.4023(3) 0.39794(14) 0.41976(12)
N10 N 0.3835(3) 0.36524(15) 0.48768(13)
N11 N 0.3453(3) 0.28718(15) 0.52296(13)
N12 N 0.3232(3) 0.20542(14) 0.51889(12)
N13 N 0.1122(3) 0.29549(14) 0.51337(13)
N14 N 0.0892(3) 0.21365(16) 0.51158(13)
N15 N 0.0784(3) 0.13603(15) 0.47062(14)
N16 N 0.0784(3) 0.09533(15) 0.40409(13)
N17 N 0.0931(3) 0.09068(15) 0.32245(13)
N18 N 0.1118(3) 0.12367(14) 0.25324(13)
N19 N 0.1515(3) 0.20199(14) 0.21727(13)
N20 N 0.1704(3) 0.28386(15) 0.22243(13)
N21 N 0.1822(3) 0.36158(15) 0.26223(14)
N22 N 0.1853(3) 0.40946(16) 0.32530(14)
N23 N 0.1721(4) 0.41270(16) 0.40675(13)
N24 N 0.1511(3) 0.37012(15) 0.47108(14)
O11 O -0.0118(3) 0.24706(14) 0.24445(11)
O12 O -0.0006(3) 0.36574(14) 0.30167(13)
O13 O -0.0148(3) 0.37090(15) 0.41358(14)
O14 O -0.0800(3) 0.15320(13) 0.41260(11)
O15 O -0.0524(3) 0.15052(14) 0.29545(11)
O16 O 0.5091(3) 0.11851(17) 0.32870(15)
O17 O 0.4969(3) 0.12365(15) 0.43969(14)
O18 O 0.5081(3) 0.24093(14) 0.49626(12)
O19 O 0.5473(3) 0.33781(13) 0.44539(12)
O20 O 0.5781(3) 0.33696(14) 0.32905(11)
O21 O 0.5694(3) 0.22828(13) 0.26537(11)
O22 O -0.0736(3) 0.26115(13) 0.47636(11)
Sm1_2 Sm -0.30287(3) 0.272760(16) 0.469517(13)
Sm2_2 Sm 0.79791(3) 0.216645(17) 0.271906(13)
O21_2 O -0.4306(3) 0.22828(13) 0.26537(11)
O22_2 O 0.9264(3) 0.26115(13) 0.47636(11)
Cl1 Cl 0.98511(14) 0.24865(9) 0.62100(5)
loop_
_geom_bond_atom_site_label_1
_geom_bond_atom_site_label_2
_geom_bond_site_symmetry_1
_geom_bond_site_symmetry_2
Cl3 Zn1 1_555 1_555
Cl4 Zn1 1_555 1_555
Cl5 Zn1 1_555 1_555
Cl6 Zn1 1_555 1_555
Cl7 Zn2 1_555 1_555
Cl8 Zn2 1_555 1_555
Cl9 Zn2 1_555 1_555
Cl10 Zn2 1_555 1_555
O1 Sm1 1_555 1_555
O2 Sm1 1_555 1_555
O3 Sm1 1_555 1_555
O4 Sm1 1_555 1_555
O5 Sm1 1_555 1_555
O6 Sm2 1_555 1_555
O7 Sm2 1_555 1_555
O8 Sm2 1_555 1_555
O9 Sm2 1_555 1_555
O10 Sm2 1_555 1_555
Sm1 O18 1_555 1_555
Sm2 O11 1_555 1_555
C1 N23 1_555 1_555
C2 H1 1_555 1_555
C3 C2 1_555 1_555
H2 C3 1_555 1_555
C4 N9 1_555 1_555
C5 H3 1_555 1_555
H4 C5 1_555 1_555
C6 H5 1_555 1_555
H6 C6 1_555 1_555
C7 H7 1_555 1_555
C8 C7 1_555 1_555
H8 C8 1_555 1_555
C9 N21 1_555 1_555
C10 N7 1_555 1_555
C11 H9 1_555 1_555
H10 C11 1_555 1_555
C12 H11 1_555 1_555
H12 C12 1_555 1_555
C13 N19 1_555 1_555
C14 H13 1_555 1_555
C15 C14 1_555 1_555
H14 C15 1_555 1_555
C16 H15 1_555 1_555
H16 C16 1_555 1_555
C17 H17 1_555 1_555
H18 C17 1_555 1_555
C18 N17 1_555 1_555
C19 N3 1_555 1_555
C20 H19 1_555 1_555
C21 C20 1_555 1_555
H20 C21 1_555 1_555
C22 H21 1_555 1_555
H22 C22 1_555 1_555
C23 H23 1_555 1_555
H24 C23 1_555 1_555
C24 N15 1_555 1_555
C25 H25 1_555 1_555
C26 C25 1_555 1_555
H26 C26 1_555 1_555
C27 N1 1_555 1_555
C28 H27 1_555 1_555
H28 C28 1_555 1_555
C29 H29 1_555 1_555
H30 C29 1_555 1_555
C30 H31 1_555 1_555
C31 C30 1_555 1_555
H32 C31 1_555 1_555
C32 N11 1_555 1_555
C33 H33 1_555 1_555
H34 C33 1_555 1_555
C34 H35 1_555 1_555
H36 C34 1_555 1_555
C35 N13 1_555 1_555
C36 N5 1_555 1_555
N1 C26 1_555 1_555
N2 C23 1_555 1_555
N3 C21 1_555 1_555
N4 C17 1_555 1_555
N5 C15 1_555 1_555
N6 C12 1_555 1_555
N7 C8 1_555 1_555
N8 C6 1_555 1_555
N9 C3 1_555 1_555
N10 C2 1_555 1_555
N11 C31 1_555 1_555
N12 C29 1_555 1_555
N13 C31 1_555 1_555
N14 C28 1_555 1_555
N15 C26 1_555 1_555
N16 C22 1_555 1_555
N17 C21 1_555 1_555
N18 C16 1_555 1_555
N19 C15 1_555 1_555
N20 C11 1_555 1_555
N21 C8 1_555 1_555
N22 C5 1_555 1_555
N23 C3 1_555 1_555
N24 C1 1_555 1_555
O11 C13 1_555 1_555
O12 C9 1_555 1_555
O13 C1 1_555 1_555
O14 C24 1_555 1_555
O15 Sm2 1_555 1_555
O16 C19 1_555 1_555
O17 C27 1_555 1_555
O18 C32 1_555 1_555
O19 Sm1 1_555 1_555
O20 C10 1_555 1_555
O21 C36 1_555 1_555
O22 C35 1_555 1_555
Sm1_2 O22 1_555 1_555
Sm2_2 O21 1_555 1_555
O21_2 Sm2 1_555 1_555
O22_2 Sm1 1_555 1_555
C2 N24 1_555 1_555
C4 N10 1_555 1_555
C4 O19 1_555 1_555
C5 N23 1_555 1_555
C6 N9 1_555 1_555
C7 N8 1_555 1_555
C7 N22 1_555 1_555
C9 N22 1_555 1_555
C10 N8 1_555 1_555
C11 N21 1_555 1_555
C12 N7 1_555 1_555
C13 N20 1_555 1_555
C14 N6 1_555 1_555
C14 N20 1_555 1_555
C16 N19 1_555 1_555
C17 N5 1_555 1_555
C18 N18 1_555 1_555
C18 O15 1_555 1_555
C19 N4 1_555 1_555
C20 N4 1_555 1_555
C20 N18 1_555 1_555
C22 N17 1_555 1_555
C23 N3 1_555 1_555
C24 N16 1_555 1_555
C25 N2 1_555 1_555
C25 N16 1_555 1_555
C27 N2 1_555 1_555
C28 N15 1_555 1_555
C29 N1 1_555 1_555
C30 N12 1_555 1_555
C30 N14 1_555 1_555
C32 N12 1_555 1_555
C33 N13 1_555 1_555
C33 N24 1_555 1_555
C34 N10 1_555 1_555
C34 N11 1_555 1_555
C35 N14 1_555 1_555
C36 N6 1_555 1_555

#END
