
#######################################################################
#
#                 Cambridge Crystallographic Data Centre
#                                CCDC 
#
#######################################################################
#
# If this CIF has been generated from an entry in the Cambridge 
# Structural Database, then it will include bibliographic, chemical, 
# crystal, experimental, refinement or atomic coordinate data resulting 
# from the CCDC's data processing and validation procedures.
#
#######################################################################

data_OGAKUE
_symmetry_cell_setting           triclinic
_symmetry_space_group_name_H-M   'P -1'
_symmetry_Int_Tables_number      2
_space_group_name_Hall           '-P 1'
loop_
_symmetry_equiv_pos_site_id
_symmetry_equiv_pos_as_xyz
1 x,y,z
2 -x,-y,-z
_cell_length_a                   15.076(3)
_cell_length_b                   15.570(3)
_cell_length_c                   17.006(4)
_cell_angle_alpha                64.892(7)
_cell_angle_beta                 80.960(7)
_cell_angle_gamma                81.779(7)
_cell_volume                     3556.76
loop_
_atom_site_label
_atom_site_type_symbol
_atom_site_fract_x
_atom_site_fract_y
_atom_site_fract_z
O1 O -0.0665(4) 0.8695(5) 0.3542(5)
O2 O -0.1059(4) 1.0160(5) 0.1985(4)
O3 O -0.2588(5) 0.7642(4) 0.3873(4)
O4 O -0.3667(4) 0.9362(5) 0.3358(4)
Yb1 Yb -0.20867(2) 0.91598(3) 0.30634(2)
C1 C -0.1306(6) 0.7616(6) 0.2084(6)
C2 C -0.1673(6) 0.6861(7) 0.1284(6)
H1 H -0.2037 0.6309 0.1496
C3 C -0.0677(6) 0.6540(6) 0.1507(6)
H2 H -0.0580 0.5844 0.1846
C4 C -0.0669(6) 0.7305(7) -0.0025(7)
C5 C 0.0208(6) 0.6857(6) 0.2483(6)
H3 H 0.0018 0.7025 0.2982
H4 H 0.0378 0.6170 0.2716
C6 C 0.0793(6) 0.6589(7) 0.0525(7)
H5 H 0.0914 0.5931 0.0945
H6 H 0.0939 0.6602 -0.0062
C7 C 0.1282(6) 0.8062(7) 0.2115(6)
C8 C 0.1634(6) 0.6984(7) 0.1441(6)
H7 H 0.1838 0.6306 0.1764
C9 C 0.2404(6) 0.7624(6) 0.1213(6)
H8 H 0.2966 0.7240 0.1432
C10 C 0.1886(6) 0.7780(6) -0.0052(7)
C11 C 0.2678(7) 0.8836(7) 0.1777(6)
H9 H 0.2427 0.8927 0.2306
H10 H 0.3277 0.8494 0.1878
C12 C 0.3186(6) 0.8641(7) -0.0279(6)
H11 H 0.3233 0.8644 -0.0862
H12 H 0.3760 0.8354 -0.0041
C13 C 0.2369(6) 1.0571(7) 0.1074(6)
C14 C 0.3374(6) 0.9927(7) 0.0236(6)
H13 H 0.4004 0.9671 0.0349
C15 C 0.3289(6) 1.1031(7) -0.0233(6)
H14 H 0.3867 1.1306 -0.0315
C16 C 0.2897(5) 1.0349(6) -0.1121(5)
C17 C -0.2325(7) 0.7715(9) -0.0174(7)
H15 H -0.2151 0.7666 -0.0734
H16 H -0.2837 0.7332 0.0125
C18 C -0.2852(6) 0.7888(7) 0.1766(6)
H17 H -0.3008 0.7939 0.2327
H18 H -0.3269 0.7476 0.1737
C19 C -0.2488(6) 1.1303(6) 0.3260(6)
C20 C -0.2906(6) 1.2734(6) 0.3380(6)
H19 H -0.2675 1.3336 0.2935
C21 C -0.2220(6) 1.2157(7) 0.4025(6)
H20 H -0.1683 1.2505 0.3921
C22 C -0.3529(6) 1.2480(7) 0.4829(7)
C23 C -0.1383(6) 1.0533(7) 0.4306(6)
H21 H -0.0888 1.0770 0.4447
H22 H -0.1125 1.0228 0.3912
C24 C -0.2338(7) 1.1546(7) 0.5695(6)
H23 H -0.1700 1.1665 0.5585
H24 H -0.2636 1.1852 0.6076
C25 C -0.2136(5) 0.9089(6) 0.5147(6)
C26 C -0.1801(6) 0.9831(7) 0.5965(6)
H25 H -0.1182 0.9827 0.6094
C27 C -0.2214(6) 0.8887(6) 0.6570(6)
H26 H -0.1793 0.8444 0.6986
C28 C -0.3086(6) 1.0142(7) 0.6779(6)
C29 C -0.2596(6) 0.7535(7) 0.6234(6)
H27 H -0.2412 0.7382 0.5726
H28 H -0.2227 0.7109 0.6697
C30 C -0.3528(7) 0.8513(8) 0.7750(6)
H29 H -0.3120 0.7995 0.8109
H30 H -0.3838 0.8844 0.8108
C31 C -0.4049(6) 0.7148(7) 0.6063(6)
C32 C -0.3934(5) 0.7250(6) 0.7380(5)
H31 H -0.3597 0.6760 0.7850
C33 C -0.4887(6) 0.6949(6) 0.7380(6)
H32 H -0.4991 0.6314 0.7854
C34 C -0.5072(6) 0.8314(6) 0.7619(5)
C35 C -0.4479(6) 1.3514(6) 0.3664(6)
H33 H -0.4307 1.4084 0.3146
H34 H -0.4760 1.3718 0.4124
C36 C -0.3544(6) 1.2392(7) 0.2253(6)
H35 H -0.3309 1.1989 0.1941
H36 H -0.3438 1.3051 0.1854
N1 N -0.1966(5) 0.7446(5) 0.1747(5)
N2 N -0.0547(5) 0.7062(5) 0.1990(5)
N3 N -0.1575(5) 0.7326(6) 0.0354(5)
N4 N -0.0149(5) 0.6862(6) 0.0644(5)
N5 N 0.0985(5) 0.7343(6) 0.1999(5)
N6 N 0.2106(5) 0.8252(6) 0.1635(5)
N7 N 0.1362(5) 0.7151(6) 0.0623(5)
N8 N 0.2492(5) 0.8047(6) 0.0264(5)
N9 N 0.2776(5) 0.9759(6) 0.1059(5)
N10 N 0.2603(5) 1.1318(6) 0.0335(5)
N11 N 0.3060(5) 0.9632(5) -0.0373(5)
N12 N 0.2991(5) 1.1165(6) -0.1065(5)
N13 N -0.3048(5) 1.2115(5) 0.2993(5)
N14 N -0.1999(5) 1.1320(6) 0.3865(5)
N15 N -0.3695(5) 1.2913(6) 0.3946(5)
N16 N -0.2722(5) 1.1996(6) 0.4875(5)
N17 N -0.1796(5) 0.9833(6) 0.5098(5)
N18 N -0.2409(5) 0.8513(5) 0.5995(5)
N19 N -0.2402(5) 1.0537(6) 0.6156(5)
N20 N -0.3000(5) 0.9176(6) 0.7006(5)
N21 N -0.3529(5) 0.7347(5) 0.6531(5)
N22 N -0.4863(5) 0.6934(6) 0.6547(5)
N23 N -0.4180(5) 0.8115(6) 0.7513(5)
N24 N -0.5495(5) 0.7677(5) 0.7526(5)
O5 O -0.1364(4) 0.8141(5) 0.2457(4)
O6 O 0.0893(5) 0.8456(5) 0.2582(4)
O7 O 0.1888(5) 1.0615(5) 0.1726(4)
O8 O -0.0435(5) 0.7576(6) -0.0782(4)
O9 O 0.1811(4) 0.8029(5) -0.0823(4)
O10 O 0.2686(4) 1.0294(5) -0.1755(4)
O11 O -0.2455(4) 1.0695(5) 0.2984(5)
O12 O -0.2213(4) 0.8915(5) 0.4504(4)
O13 O -0.3812(5) 0.7133(5) 0.5334(5)
O14 O -0.4056(5) 1.2565(6) 0.5416(5)
O15 O -0.3687(5) 1.0578(6) 0.7073(5)
O16 O -0.5441(4) 0.8992(5) 0.7785(4)
C1A C 0.1306(6) 1.2384(6) -0.2084(6)
C2A C 0.1673(6) 1.3139(7) -0.1284(6)
H1A H 0.2037 1.3691 -0.1496
C3A C 0.0677(6) 1.3460(6) -0.1507(6)
H2A H 0.0580 1.4156 -0.1846
C4A C 0.0669(6) 1.2695(7) 0.0025(7)
C5A C -0.0208(6) 1.3143(6) -0.2483(6)
H3A H -0.0018 1.2975 -0.2982
H4A H -0.0378 1.3830 -0.2716
C6A C -0.0793(6) 1.3411(7) -0.0525(7)
H5A H -0.0914 1.4069 -0.0945
H6A H -0.0939 1.3398 0.0062
C7A C -0.1282(6) 1.1938(7) -0.2115(6)
C8A C -0.1634(6) 1.3016(7) -0.1441(6)
H7A H -0.1838 1.3694 -0.1764
C9A C -0.2404(6) 1.2376(6) -0.1213(6)
H8A H -0.2966 1.2760 -0.1432
C10A C -0.1886(6) 1.2220(6) 0.0052(7)
C11A C -0.2678(7) 1.1164(7) -0.1777(6)
H9A H -0.2427 1.1073 -0.2306
H10A H -0.3277 1.1506 -0.1878
C12A C -0.3186(6) 1.1359(7) 0.0279(6)
H11A H -0.3233 1.1356 0.0862
H12A H -0.3760 1.1646 0.0041
C13A C -0.2369(6) 0.9429(7) -0.1074(6)
C14A C -0.3374(6) 1.0073(7) -0.0236(6)
H13A H -0.4004 1.0329 -0.0349
C15A C -0.3289(6) 0.8969(7) 0.0233(6)
H14A H -0.3867 0.8694 0.0315
C16A C -0.2897(5) 0.9651(6) 0.1121(5)
C17A C 0.2325(7) 1.2285(9) 0.0174(7)
H15A H 0.2151 1.2334 0.0734
H16A H 0.2837 1.2668 -0.0125
C18A C 0.2852(6) 1.2112(7) -0.1766(6)
H17A H 0.3008 1.2061 -0.2327
H18A H 0.3269 1.2524 -0.1737
N1A N 0.1966(5) 1.2554(5) -0.1747(5)
N2A N 0.0547(5) 1.2938(5) -0.1990(5)
N3A N 0.1575(5) 1.2674(6) -0.0354(5)
N4A N 0.0149(5) 1.3138(6) -0.0644(5)
N5A N -0.0985(5) 1.2657(6) -0.1999(5)
N6A N -0.2106(5) 1.1748(6) -0.1635(5)
N7A N -0.1362(5) 1.2849(6) -0.0623(5)
N8A N -0.2492(5) 1.1953(6) -0.0264(5)
N9A N -0.2776(5) 1.0241(6) -0.1059(5)
N10A N -0.2603(5) 0.8682(6) -0.0335(5)
N11A N -0.3060(5) 1.0368(5) 0.0373(5)
N12A N -0.2991(5) 0.8835(6) 0.1065(5)
O5A O 0.1364(4) 1.1859(5) -0.2457(4)
O6A O -0.0893(5) 1.1544(5) -0.2582(4)
O7A O -0.1888(5) 0.9385(5) -0.1726(4)
O8A O 0.0435(5) 1.2424(6) 0.0782(4)
O9A O -0.1811(4) 1.1971(5) 0.0823(4)
O10A O -0.2686(4) 0.9706(5) 0.1755(4)
C19A C -0.7512(6) 0.8697(6) 0.6740(6)
C20A C -0.7094(6) 0.7266(6) 0.6620(6)
H19A H -0.7325 0.6664 0.7065
C21A C -0.7780(6) 0.7843(7) 0.5975(6)
H20A H -0.8317 0.7495 0.6079
C22A C -0.6471(6) 0.7520(7) 0.5171(7)
C23A C -0.8617(6) 0.9467(7) 0.5694(6)
H21A H -0.9112 0.9230 0.5553
H22A H -0.8875 0.9772 0.6088
C24A C -0.7662(7) 0.8454(7) 0.4305(6)
H23A H -0.8300 0.8335 0.4415
H24A H -0.7364 0.8148 0.3924
C25A C -0.7864(5) 1.0911(6) 0.4853(6)
C26A C -0.8199(6) 1.0169(7) 0.4035(6)
H25A H -0.8818 1.0173 0.3906
C27A C -0.7786(6) 1.1113(6) 0.3430(6)
H26A H -0.8207 1.1556 0.3014
C28A C -0.6914(6) 0.9858(7) 0.3221(6)
C29A C -0.7404(6) 1.2465(7) 0.3766(6)
H27A H -0.7588 1.2618 0.4274
H28A H -0.7773 1.2891 0.3303
C30A C -0.6472(7) 1.1487(8) 0.2250(6)
H29A H -0.6880 1.2005 0.1891
H30A H -0.6162 1.1156 0.1892
C31A C -0.5951(6) 1.2852(7) 0.3937(6)
C32A C -0.6066(5) 1.2750(6) 0.2620(5)
H31A H -0.6403 1.3240 0.2150
C33A C -0.5113(6) 1.3051(6) 0.2620(6)
H32A H -0.5009 1.3686 0.2146
C34A C -0.4928(6) 1.1686(6) 0.2381(5)
C35A C -0.5521(6) 0.6486(6) 0.6336(6)
H33A H -0.5693 0.5916 0.6854
H34A H -0.5240 0.6282 0.5876
C36A C -0.6456(6) 0.7608(7) 0.7747(6)
H35A H -0.6691 0.8011 0.8059
H36A H -0.6562 0.6949 0.8146
N13A N -0.6952(5) 0.7885(5) 0.7007(5)
N14A N -0.8001(5) 0.8680(6) 0.6135(5)
N15A N -0.6305(5) 0.7087(6) 0.6054(5)
N16A N -0.7278(5) 0.8004(6) 0.5125(5)
N17A N -0.8204(5) 1.0167(6) 0.4902(5)
N18A N -0.7591(5) 1.1487(5) 0.4005(5)
N19A N -0.7598(5) 0.9463(6) 0.3844(5)
N20A N -0.7000(5) 1.0824(6) 0.2994(5)
N21A N -0.6471(5) 1.2653(5) 0.3469(5)
N22A N -0.5137(5) 1.3066(6) 0.3453(5)
N23A N -0.5820(5) 1.1885(6) 0.2487(5)
N24A N -0.4505(5) 1.2323(5) 0.2474(5)
O11A O -0.7545(4) 0.9305(5) 0.7016(5)
O12A O -0.7787(4) 1.1085(5) 0.5496(4)
O13A O -0.6188(5) 1.2867(5) 0.4666(5)
O14A O -0.5944(5) 0.7435(6) 0.4584(5)
O15A O -0.6313(5) 0.9422(6) 0.2927(5)
O16A O -0.4559(4) 1.1008(5) 0.2215(4)
O1A O -0.9335(4) 1.1305(5) 0.6458(5)
O2A O -0.8941(4) 0.9840(5) 0.8015(4)
O3A O -0.7412(5) 1.2358(4) 0.6127(4)
O4A O -0.6333(4) 1.0638(5) 0.6642(4)
Yb1A Yb -0.79133(2) 1.08402(3) 0.69366(2)
Yb1A_2 Yb 0.20867(2) 1.08402(3) -0.30634(2)
O5A_2 O -0.8636(4) 1.1859(5) 0.7543(4)
O10_2 O -0.7314(4) 1.0294(5) 0.8245(4)
Cl2 Cl 0.3752(2) 0.5293(3) 0.1985(4)
Cl3 Cl 0.4883(2) 0.7587(3) 0.1503(3)
Cl4 Cl 0.6485(2) 0.5287(3) 0.1608(4)
Cl5 Cl 0.5018(8) 0.6678(7) -0.0392(4)
Cd1 Cd 0.50527(6) 0.61637(7) 0.11423(7)
Cl1 Cl 0.01236(19) 1.1989(3) 0.4564(2)
loop_
_geom_bond_atom_site_label_1
_geom_bond_atom_site_label_2
_geom_bond_site_symmetry_1
_geom_bond_site_symmetry_2
O1 Yb1 1_555 1_555
O2 Yb1 1_555 1_555
O3 Yb1 1_555 1_555
O4 Yb1 1_555 1_555
Yb1 O5 1_555 1_555
C1 N1 1_555 1_555
C2 H1 1_555 1_555
C3 C2 1_555 1_555
H2 C3 1_555 1_555
C4 N3 1_555 1_555
C5 H3 1_555 1_555
H4 C5 1_555 1_555
C6 H5 1_555 1_555
H6 C6 1_555 1_555
C7 N5 1_555 1_555
C8 H7 1_555 1_555
C9 C8 1_555 1_555
H8 C9 1_555 1_555
C10 N7 1_555 1_555
C11 H9 1_555 1_555
H10 C11 1_555 1_555
C12 H11 1_555 1_555
H12 C12 1_555 1_555
C13 N9 1_555 1_555
C14 H13 1_555 1_555
C15 C14 1_555 1_555
H14 C15 1_555 1_555
C16 N11 1_555 1_555
C17 H15 1_555 1_555
H16 C17 1_555 1_555
C18 H17 1_555 1_555
H18 C18 1_555 1_555
C19 N13 1_555 1_555
C20 H19 1_555 1_555
C21 C20 1_555 1_555
H20 C21 1_555 1_555
C22 N15 1_555 1_555
C23 H21 1_555 1_555
H22 C23 1_555 1_555
C24 H23 1_555 1_555
H24 C24 1_555 1_555
C25 N17 1_555 1_555
C26 H25 1_555 1_555
C27 C26 1_555 1_555
H26 C27 1_555 1_555
C28 N19 1_555 1_555
C29 H27 1_555 1_555
H28 C29 1_555 1_555
C30 H29 1_555 1_555
H30 C30 1_555 1_555
C31 N21 1_555 1_555
C32 H31 1_555 1_555
C33 C32 1_555 1_555
H32 C33 1_555 1_555
C34 N23 1_555 1_555
C35 H33 1_555 1_555
H34 C35 1_555 1_555
C36 H35 1_555 1_555
H36 C36 1_555 1_555
N1 C2 1_555 1_555
N2 C1 1_555 1_555
N3 C2 1_555 1_555
N4 C3 1_555 1_555
N5 C5 1_555 1_555
N6 C7 1_555 1_555
N7 C6 1_555 1_555
N8 C9 1_555 1_555
N9 C11 1_555 1_555
N10 C13 1_555 1_555
N11 C12 1_555 1_555
N12 C15 1_555 1_555
N13 C20 1_555 1_555
N14 C19 1_555 1_555
N15 C20 1_555 1_555
N16 C21 1_555 1_555
N17 C23 1_555 1_555
N18 C25 1_555 1_555
N19 C24 1_555 1_555
N20 C27 1_555 1_555
N21 C29 1_555 1_555
N22 C31 1_555 1_555
N23 C30 1_555 1_555
N24 C33 1_555 1_555
O5 C1 1_555 1_555
O6 C7 1_555 1_555
O7 C13 1_555 1_555
O8 C4 1_555 1_555
O9 C10 1_555 1_555
O10 C16 1_555 1_555
O11 Yb1 1_555 1_555
O12 Yb1 1_555 1_555
O13 C31 1_555 1_555
O14 C22 1_555 1_555
O15 C28 1_555 1_555
O16 C34 1_555 1_555
Cl2 Cd1 1_555 1_555
Cl3 Cd1 1_555 1_555
Cl4 Cd1 1_555 1_555
Cl5 Cd1 1_555 1_555
C1A N1A 1_555 1_555
C2A H1A 1_555 1_555
C3A C2A 1_555 1_555
H2A C3A 1_555 1_555
C4A N3A 1_555 1_555
C5A H3A 1_555 1_555
H4A C5A 1_555 1_555
C6A H5A 1_555 1_555
H6A C6A 1_555 1_555
C7A N5A 1_555 1_555
C8A H7A 1_555 1_555
C9A C8A 1_555 1_555
H8A C9A 1_555 1_555
C10A N7A 1_555 1_555
C11A H9A 1_555 1_555
H10A C11A 1_555 1_555
C12A H11A 1_555 1_555
H12A C12A 1_555 1_555
C13A N9A 1_555 1_555
C14A H13A 1_555 1_555
C15A C14A 1_555 1_555
H14A C15A 1_555 1_555
C16A N11A 1_555 1_555
C17A N10 1_555 1_555
H15A C17A 1_555 1_555
H16A C17A 1_555 1_555
C18A N12 1_555 1_555
H17A C18A 1_555 1_555
H18A C18A 1_555 1_555
N1A C2A 1_555 1_555
N2A C1A 1_555 1_555
N3A C2A 1_555 1_555
N4A C3A 1_555 1_555
N5A C5A 1_555 1_555
N6A C7A 1_555 1_555
N7A C6A 1_555 1_555
N8A C9A 1_555 1_555
N9A C11A 1_555 1_555
N10A C17 1_555 1_555
N11A C12A 1_555 1_555
N12A C18 1_555 1_555
O5A C1A 1_555 1_555
O6A C7A 1_555 1_555
O7A C13A 1_555 1_555
O8A C4A 1_555 1_555
O9A C10A 1_555 1_555
O10A Yb1 1_555 1_555
C19A N13A 1_555 1_555
C20A H19A 1_555 1_555
C21A C20A 1_555 1_555
H20A C21A 1_555 1_555
C22A N15A 1_555 1_555
C23A H21A 1_555 1_555
H22A C23A 1_555 1_555
C24A H23A 1_555 1_555
H24A C24A 1_555 1_555
C25A N17A 1_555 1_555
C26A H25A 1_555 1_555
C27A C26A 1_555 1_555
H26A C27A 1_555 1_555
C28A N19A 1_555 1_555
C29A H27A 1_555 1_555
H28A C29A 1_555 1_555
C30A H29A 1_555 1_555
H30A C30A 1_555 1_555
C31A N21A 1_555 1_555
C32A H31A 1_555 1_555
C33A C32A 1_555 1_555
H32A C33A 1_555 1_555
C34A N23A 1_555 1_555
C35A N22 1_555 1_555
H33A C35A 1_555 1_555
H34A C35A 1_555 1_555
C36A N24 1_555 1_555
H35A C36A 1_555 1_555
H36A C36A 1_555 1_555
N13A C20A 1_555 1_555
N14A C19A 1_555 1_555
N15A C20A 1_555 1_555
N16A C21A 1_555 1_555
N17A C23A 1_555 1_555
N18A C25A 1_555 1_555
N19A C24A 1_555 1_555
N20A C27A 1_555 1_555
N21A C29A 1_555 1_555
N22A C35 1_555 1_555
N23A C30A 1_555 1_555
N24A C36 1_555 1_555
O11A C19A 1_555 1_555
O12A C25A 1_555 1_555
O13A C31A 1_555 1_555
O14A C22A 1_555 1_555
O15A C28A 1_555 1_555
O16A C34A 1_555 1_555
O1A Yb1A 1_555 1_555
O2A Yb1A 1_555 1_555
O3A Yb1A 1_555 1_555
O4A Yb1A 1_555 1_555
Yb1A O11A 1_555 1_555
Yb1A_2 O10 1_555 1_555
O5A_2 Yb1A 1_555 1_555
O10_2 Yb1A 1_555 1_555
C3 N2 1_555 1_555
C4 N4 1_555 1_555
C5 N2 1_555 1_555
C6 N4 1_555 1_555
C8 N5 1_555 1_555
C8 N7 1_555 1_555
C9 N6 1_555 1_555
C10 N8 1_555 1_555
C11 N6 1_555 1_555
C12 N8 1_555 1_555
C14 N9 1_555 1_555
C14 N11 1_555 1_555
C15 N10 1_555 1_555
C16 N12 1_555 1_555
C17 N3 1_555 1_555
C18 N1 1_555 1_555
C19 O11 1_555 1_555
C21 N14 1_555 1_555
C22 N16 1_555 1_555
C23 N14 1_555 1_555
C24 N16 1_555 1_555
C25 O12 1_555 1_555
C26 N17 1_555 1_555
C26 N19 1_555 1_555
C27 N18 1_555 1_555
C28 N20 1_555 1_555
C29 N18 1_555 1_555
C30 N20 1_555 1_555
C32 N21 1_555 1_555
C32 N23 1_555 1_555
C33 N22 1_555 1_555
C34 N24 1_555 1_555
C35 N15 1_555 1_555
C36 N13 1_555 1_555
C3A N2A 1_555 1_555
C4A N4A 1_555 1_555
C5A N2A 1_555 1_555
C6A N4A 1_555 1_555
C8A N5A 1_555 1_555
C8A N7A 1_555 1_555
C9A N6A 1_555 1_555
C10A N8A 1_555 1_555
C11A N6A 1_555 1_555
C12A N8A 1_555 1_555
C13A N10A 1_555 1_555
C14A N9A 1_555 1_555
C14A N11A 1_555 1_555
C15A N10A 1_555 1_555
C15A N12A 1_555 1_555
C16A N12A 1_555 1_555
C16A O10A 1_555 1_555
C17A N3A 1_555 1_555
C18A N1A 1_555 1_555
O5A Yb1A_2 1_555 1_555
C21A N14A 1_555 1_555
C22A N16A 1_555 1_555
C23A N14A 1_555 1_555
C24A N16A 1_555 1_555
C26A N17A 1_555 1_555
C26A N19A 1_555 1_555
C27A N18A 1_555 1_555
C28A N20A 1_555 1_555
C29A N18A 1_555 1_555
C30A N20A 1_555 1_555
C31A N22A 1_555 1_555
C32A N21A 1_555 1_555
C32A N23A 1_555 1_555
C33A N22A 1_555 1_555
C33A N24A 1_555 1_555
C34A N24A 1_555 1_555
C35A N15A 1_555 1_555
C36A N13A 1_555 1_555
O12A Yb1A 1_555 1_555

#END
