
#######################################################################
#
#                 Cambridge Crystallographic Data Centre
#                                CCDC 
#
#######################################################################
#
# If this CIF has been generated from an entry in the Cambridge 
# Structural Database, then it will include bibliographic, chemical, 
# crystal, experimental, refinement or atomic coordinate data resulting 
# from the CCDC's data processing and validation procedures.
#
#######################################################################

data_OGALIT
_symmetry_cell_setting           triclinic
_symmetry_space_group_name_H-M   'P -1'
_symmetry_Int_Tables_number      2
_space_group_name_Hall           '-P 1'
loop_
_symmetry_equiv_pos_site_id
_symmetry_equiv_pos_as_xyz
1 x,y,z
2 -x,-y,-z
_cell_length_a                   15.135(3)
_cell_length_b                   15.617(3)
_cell_length_c                   17.079(4)
_cell_angle_alpha                64.870(8)
_cell_angle_beta                 80.916(8)
_cell_angle_gamma                81.719(8)
_cell_volume                     3595.5
loop_
_atom_site_label
_atom_site_type_symbol
_atom_site_fract_x
_atom_site_fract_y
_atom_site_fract_z
Cl2 Cl 1.4877(2) -0.2408(3) 0.6507(3)
Cl3 Cl 1.3757(2) -0.4686(3) 0.6953(4)
Cl4 Cl 1.6481(2) -0.4698(4) 0.6627(4)
Cl5 Cl 1.5103(10) -0.3290(8) 0.4606(4)
Cd1 Cd 1.50566(6) -0.38116(7) 0.61544(6)
O1 O 0.7396(4) -0.2351(5) 0.8867(4)
O2 O 0.9330(4) -0.1341(5) 0.8562(4)
O3 O 0.8954(4) 0.0165(5) 0.6974(4)
O4 O 0.6324(4) -0.0655(5) 0.8363(4)
Ho1 Ho 0.79115(5) -0.08430(5) 0.80612(4)
C1 C 0.7496(5) 0.1314(7) 0.8260(5)
C2 C 0.7076(5) 0.2764(6) 0.8397(6)
H1 H 0.7292 0.3373 0.7959
C3 C 0.7775(5) 0.2179(6) 0.9033(5)
H2 H 0.8313 0.2518 0.8937
C4 C 0.6448(7) 0.2476(7) 0.9810(6)
C5 C 0.8621(5) 0.0527(6) 0.9306(5)
H3 H 0.9108 0.0775 0.9442
H4 H 0.8882 0.0213 0.8923
C6 C 0.7676(7) 0.1553(7) 1.0696(6)
H5 H 0.8313 0.1666 1.0576
H6 H 0.7389 0.1857 1.1081
C7 C 0.7851(5) -0.0925(6) 1.0156(5)
C8 C 0.8204(6) -0.0167(7) 1.0962(5)
H7 H 0.8822 -0.0156 1.1077
C9 C 0.7798(5) -0.1120(7) 1.1581(5)
H8 H 0.8216 -0.1561 1.1997
C10 C 0.6880(5) 0.0133(8) 1.1777(6)
C11 C 0.7417(5) -0.2471(7) 1.1242(5)
H9 H 0.7776 -0.2879 1.1718
H10 H 0.7610 -0.2654 1.0754
C12 C 0.6470(6) -0.1437(8) 1.2748(5)
H11 H 0.6134 -0.1087 1.3076
H12 H 0.6879 -0.1927 1.3129
C13 C 0.5961(6) -0.2840(6) 1.1050(6)
C14 C 0.6022(6) -0.2749(7) 1.2382(5)
H13 H 0.6359 -0.3238 1.2850
C15 C 0.5124(6) -0.3073(6) 1.2399(5)
H14 H 0.5035 -0.3707 1.2875
C16 C 0.4927(5) -0.1686(7) 1.2623(5)
C17 C 0.4489(6) -0.3507(7) 1.1341(6)
H15 H 0.4772 -0.3709 1.0883
H16 H 0.4314 -0.4076 1.1853
C18 C 0.3549(5) -0.2410(7) 1.2757(5)
H17 H 0.3312 -0.2016 1.3075
H18 H 0.3444 -0.3069 1.3147
C19 C 0.7111(5) -0.0375(6) 0.6106(5)
C20 C 0.6637(5) 0.0056(7) 0.4754(5)
H19 H 0.6013 0.0314 0.4632
C21 C 0.6711(5) -0.1029(7) 0.5222(5)
H20 H 0.6133 -0.1295 0.5293
C22 C 0.7646(6) -0.0566(7) 0.3910(6)
C23 C 0.7136(6) -0.2105(7) 0.6748(6)
H21 H 0.6723 -0.2524 0.6731
H22 H 0.6983 -0.2041 0.7302
C24 C 0.7708(6) -0.2305(7) 0.4808(6)
H23 H 0.7206 -0.2701 0.5091
H24 H 0.7902 -0.2341 0.4246
C25 C 0.8720(6) -0.2407(6) 0.7073(5)
C26 C 0.8362(6) -0.3164(7) 0.6258(6)
H25 H 0.8001 -0.3714 0.6460
C27 C 0.9342(6) -0.3471(6) 0.6486(5)
H26 H 0.9442 -0.4164 0.6827
C28 C 0.9327(6) -0.2697(7) 0.4966(6)
C29 C 1.0209(5) -0.3140(7) 0.7488(5)
H27 H 1.0016 -0.2955 0.7974
H28 H 1.0373 -0.3826 0.7733
C30 C 1.0806(6) -0.3414(7) 0.5499(6)
H29 H 1.0938 -0.4074 0.5903
H30 H 1.0956 -0.3378 0.4907
C31 C 1.1287(5) -0.1945(8) 0.7118(6)
C32 C 1.1668(6) -0.3009(7) 0.6458(5)
H31 H 1.1868 -0.3687 0.6782
C33 C 1.2435(5) -0.2384(6) 0.6210(5)
H32 H 1.3004 -0.2759 0.6413
C34 C 1.1885(6) -0.2211(6) 0.4945(5)
C35 C 1.2673(6) -0.1168(7) 0.6782(5)
H33 H 1.3269 -0.1509 0.6885
H34 H 1.2420 -0.1070 0.7306
C36 C 0.6803(5) 0.1332(6) 0.5268(5)
H35 H 0.6751 0.1320 0.5852
H36 H 0.6233 0.1621 0.5027
N1 N 0.6949(5) 0.2119(5) 0.7994(4)
N2 N 0.7983(5) 0.1299(5) 0.8868(5)
N3 N 0.6298(5) 0.2903(6) 0.8948(5)
N4 N 0.7267(5) 0.1990(6) 0.9881(5)
N5 N 0.8184(5) -0.0159(5) 1.0108(4)
N6 N 0.7594(4) -0.1498(6) 1.0974(4)
N7 N 0.7594(5) 0.0538(6) 1.1141(5)
N8 N 0.6984(4) -0.0801(6) 1.2016(4)
N9 N 0.6483(4) -0.2636(6) 1.1527(4)
N10 N 0.5139(5) -0.3086(6) 1.1559(5)
N11 N 0.5827(5) -0.1905(6) 1.2517(5)
N12 N 0.4500(5) -0.2339(5) 1.2542(4)
N13 N 0.6940(5) 0.0376(5) 0.5341(4)
N14 N 0.7000(5) -0.1194(5) 0.6056(4)
N15 N 0.7236(5) 0.0245(6) 0.3953(4)
N16 N 0.7400(5) -0.1320(6) 0.4658(5)
N17 N 0.8048(5) -0.2552(5) 0.6727(5)
N18 N 0.9459(4) -0.2935(5) 0.6980(4)
N19 N 0.8451(5) -0.2677(6) 0.5350(5)
N20 N 0.9857(5) -0.3158(6) 0.5626(5)
N21 N 1.0990(5) -0.2660(5) 0.6994(4)
N22 N 1.2119(5) -0.1725(5) 0.6638(5)
N23 N 1.1367(5) -0.2839(6) 0.5622(5)
N24 N 1.2491(5) -0.1920(5) 0.5270(4)
O5 O 0.7546(4) 0.0682(4) 0.8001(4)
O6 O 0.7777(4) -0.1080(5) 0.9507(4)
O7 O 0.6167(4) -0.2834(6) 1.0343(4)
O8 O 0.5925(5) 0.2574(6) 1.0408(5)
O9 O 0.6303(4) 0.0576(6) 1.2067(5)
O10 O 0.4549(4) -0.1006(5) 1.2793(4)
O11 O 0.7318(4) -0.0285(5) 0.6745(4)
O12 O 0.8631(4) -0.1863(4) 0.7467(4)
O13 O 1.0910(4) -0.1538(6) 0.7573(5)
O14 O 0.8142(5) -0.0657(6) 0.3288(4)
O15 O 0.9583(5) -0.2440(6) 0.4215(4)
O16 O 1.1827(5) -0.1962(6) 0.4159(4)
C1A C 0.2504(5) -0.1314(7) 1.1740(5)
C2A C 0.2924(5) -0.2764(6) 1.1603(6)
H1A H 0.2708 -0.3373 1.2041
C3A C 0.2225(5) -0.2179(6) 1.0967(5)
H2A H 0.1687 -0.2518 1.1063
C4A C 0.3552(7) -0.2476(7) 1.0190(6)
C5A C 0.1379(5) -0.0527(6) 1.0694(5)
H3A H 0.0892 -0.0775 1.0558
H4A H 0.1118 -0.0213 1.1077
C6A C 0.2324(7) -0.1553(7) 0.9304(6)
H5A H 0.1687 -0.1666 0.9424
H6A H 0.2611 -0.1857 0.8919
C7A C 0.2149(5) 0.0925(6) 0.9844(5)
C8A C 0.1796(6) 0.0167(7) 0.9038(5)
H7A H 0.1178 0.0156 0.8923
C9A C 0.2202(5) 0.1120(7) 0.8419(5)
H8A H 0.1784 0.1561 0.8003
C10A C 0.3120(5) -0.0133(8) 0.8223(6)
C11A C 0.2583(5) 0.2471(7) 0.8758(5)
H9A H 0.2224 0.2879 0.8282
H10A H 0.2390 0.2654 0.9246
C12A C 0.3530(6) 0.1437(8) 0.7252(5)
H11A H 0.3866 0.1087 0.6924
H12A H 0.3121 0.1927 0.6871
C13A C 0.4039(6) 0.2840(6) 0.8950(6)
C14A C 0.3978(6) 0.2749(7) 0.7618(5)
H13A H 0.3641 0.3238 0.7150
C15A C 0.4876(6) 0.3073(6) 0.7601(5)
H14A H 0.4965 0.3707 0.7125
C16A C 0.5073(5) 0.1686(7) 0.7377(5)
C17A C 0.5511(6) 0.3507(7) 0.8659(6)
H15A H 0.5228 0.3709 0.9117
H16A H 0.5686 0.4076 0.8147
C18A C 0.6451(5) 0.2410(7) 0.7243(5)
H17A H 0.6688 0.2016 0.6925
H18A H 0.6556 0.3069 0.6853
N1A N 0.3051(5) -0.2119(5) 1.2006(4)
N2A N 0.2017(5) -0.1299(5) 1.1132(5)
N3A N 0.3702(5) -0.2903(6) 1.1052(5)
N4A N 0.2733(5) -0.1990(6) 1.0119(5)
N5A N 0.1816(5) 0.0159(5) 0.9892(4)
N6A N 0.2406(4) 0.1498(6) 0.9026(4)
N7A N 0.2406(5) -0.0538(6) 0.8859(5)
N8A N 0.3016(4) 0.0801(6) 0.7984(4)
N9A N 0.3517(4) 0.2636(6) 0.8473(4)
N10A N 0.4861(5) 0.3086(6) 0.8441(5)
N11A N 0.4173(5) 0.1905(6) 0.7483(5)
N12A N 0.5500(5) 0.2339(5) 0.7458(4)
O5A O 0.2454(4) -0.0682(4) 1.1999(4)
O6A O 0.2223(4) 0.1080(5) 1.0493(4)
O7A O 0.3833(4) 0.2834(6) 0.9657(4)
O8A O 0.4075(5) -0.2574(6) 0.9592(5)
O9A O 0.3697(4) -0.0576(6) 0.7933(5)
O10A O 0.5451(4) 0.1006(5) 0.7207(4)
C19A C 1.2889(5) 0.0375(6) 0.3894(5)
C20A C 1.3363(5) -0.0056(7) 0.5246(5)
H19A H 1.3987 -0.0314 0.5368
C21A C 1.3289(5) 0.1029(7) 0.4778(5)
H20A H 1.3867 0.1295 0.4707
C22A C 1.2354(6) 0.0566(7) 0.6090(6)
C23A C 1.2864(6) 0.2105(7) 0.3252(6)
H21A H 1.3277 0.2524 0.3269
H22A H 1.3017 0.2041 0.2698
C24A C 1.2292(6) 0.2305(7) 0.5192(6)
H23A H 1.2794 0.2701 0.4909
H24A H 1.2098 0.2341 0.5754
C25A C 1.1280(6) 0.2407(6) 0.2927(5)
C26A C 1.1638(6) 0.3164(7) 0.3742(6)
H25A H 1.1999 0.3714 0.3540
C27A C 1.0658(6) 0.3471(6) 0.3514(5)
H26A H 1.0558 0.4164 0.3173
C28A C 1.0673(6) 0.2697(7) 0.5034(6)
C29A C 0.9791(5) 0.3140(7) 0.2512(5)
H27A H 0.9984 0.2955 0.2026
H28A H 0.9627 0.3826 0.2267
C30A C 0.9194(6) 0.3414(7) 0.4501(6)
H29A H 0.9062 0.4074 0.4097
H30A H 0.9044 0.3378 0.5093
C31A C 0.8713(5) 0.1945(8) 0.2882(6)
C32A C 0.8332(6) 0.3009(7) 0.3542(5)
H31A H 0.8132 0.3687 0.3218
C33A C 0.7565(5) 0.2384(6) 0.3790(5)
H32A H 0.6996 0.2759 0.3587
C34A C 0.8115(6) 0.2211(6) 0.5055(5)
C35A C 0.7327(6) 0.1168(7) 0.3218(5)
H33A H 0.6731 0.1509 0.3115
H34A H 0.7580 0.1070 0.2694
C36A C 1.3197(5) -0.1332(6) 0.4732(5)
H35A H 1.3249 -0.1320 0.4148
H36A H 1.3767 -0.1621 0.4973
N13A N 1.3060(5) -0.0376(5) 0.4659(4)
N14A N 1.3000(5) 0.1194(5) 0.3944(4)
N15A N 1.2764(5) -0.0245(6) 0.6047(4)
N16A N 1.2600(5) 0.1320(6) 0.5342(5)
N17A N 1.1952(5) 0.2552(5) 0.3273(5)
N18A N 1.0541(4) 0.2935(5) 0.3020(4)
N19A N 1.1549(5) 0.2677(6) 0.4650(5)
N20A N 1.0143(5) 0.3158(6) 0.4374(5)
N21A N 0.9010(5) 0.2660(5) 0.3006(4)
N22A N 0.7881(5) 0.1725(5) 0.3362(5)
N23A N 0.8633(5) 0.2839(6) 0.4378(5)
N24A N 0.7509(5) 0.1920(5) 0.4730(4)
O11A O 1.2682(4) 0.0285(5) 0.3255(4)
O12A O 1.1369(4) 0.1863(4) 0.2533(4)
O13A O 0.9090(4) 0.1538(6) 0.2427(5)
O14A O 1.1858(5) 0.0657(6) 0.6712(4)
O15A O 1.0417(5) 0.2440(6) 0.5785(4)
O16A O 0.8173(5) 0.1962(6) 0.5841(4)
O1A O 0.2604(4) 0.2351(5) 1.1133(4)
O2A O 0.0670(4) 0.1341(5) 1.1438(4)
O3A O 0.1046(4) -0.0165(5) 1.3026(4)
O4A O 0.3676(4) 0.0655(5) 1.1637(4)
Ho1A Ho 0.20885(5) 0.08430(5) 1.19388(4)
Ho1A_2 Ho 1.20885(5) 0.08430(5) 0.19388(4)
O11A_2 O 0.2682(4) 0.0285(5) 1.3255(4)
O12A_2 O 0.1369(4) 0.1863(4) 1.2533(4)
Cl1 Cl 1.01248(18) 0.1972(2) 0.9559(2)
loop_
_geom_bond_atom_site_label_1
_geom_bond_atom_site_label_2
_geom_bond_site_symmetry_1
_geom_bond_site_symmetry_2
Cl2 Cd1 1_555 1_555
Cl3 Cd1 1_555 1_555
Cl4 Cd1 1_555 1_555
Cl5 Cd1 1_555 1_555
O1 Ho1 1_555 1_555
O2 Ho1 1_555 1_555
O3 Ho1 1_555 1_555
O4 Ho1 1_555 1_555
Ho1 O5 1_555 1_555
C1 N1 1_555 1_555
C2 H1 1_555 1_555
C3 C2 1_555 1_555
H2 C3 1_555 1_555
C4 N3 1_555 1_555
C5 H3 1_555 1_555
H4 C5 1_555 1_555
C6 H5 1_555 1_555
H6 C6 1_555 1_555
C7 N5 1_555 1_555
C8 H7 1_555 1_555
C9 C8 1_555 1_555
H8 C9 1_555 1_555
C10 N7 1_555 1_555
C11 H9 1_555 1_555
H10 C11 1_555 1_555
C12 H11 1_555 1_555
H12 C12 1_555 1_555
C13 N9 1_555 1_555
C14 H13 1_555 1_555
C15 C14 1_555 1_555
H14 C15 1_555 1_555
C16 N11 1_555 1_555
C17 H15 1_555 1_555
H16 C17 1_555 1_555
C18 H17 1_555 1_555
H18 C18 1_555 1_555
C19 N13 1_555 1_555
C20 H19 1_555 1_555
C21 C20 1_555 1_555
H20 C21 1_555 1_555
C22 N15 1_555 1_555
C23 H21 1_555 1_555
H22 C23 1_555 1_555
C24 H23 1_555 1_555
H24 C24 1_555 1_555
C25 N17 1_555 1_555
C26 H25 1_555 1_555
C27 C26 1_555 1_555
H26 C27 1_555 1_555
C28 N19 1_555 1_555
C29 H27 1_555 1_555
H28 C29 1_555 1_555
C30 H29 1_555 1_555
H30 C30 1_555 1_555
C31 N21 1_555 1_555
C32 H31 1_555 1_555
C33 C32 1_555 1_555
H32 C33 1_555 1_555
C34 N23 1_555 1_555
C35 H33 1_555 1_555
H34 C35 1_555 1_555
C36 H35 1_555 1_555
H36 C36 1_555 1_555
N1 C2 1_555 1_555
N2 C1 1_555 1_555
N3 C2 1_555 1_555
N4 C3 1_555 1_555
N5 C5 1_555 1_555
N6 C7 1_555 1_555
N7 C6 1_555 1_555
N8 C9 1_555 1_555
N9 C11 1_555 1_555
N10 C13 1_555 1_555
N11 C12 1_555 1_555
N12 C15 1_555 1_555
N13 C20 1_555 1_555
N14 C19 1_555 1_555
N15 C20 1_555 1_555
N16 C21 1_555 1_555
N17 C23 1_555 1_555
N18 C25 1_555 1_555
N19 C24 1_555 1_555
N20 C27 1_555 1_555
N21 C29 1_555 1_555
N22 C31 1_555 1_555
N23 C30 1_555 1_555
N24 C33 1_555 1_555
O5 C1 1_555 1_555
O6 Ho1 1_555 1_555
O7 C13 1_555 1_555
O8 C4 1_555 1_555
O9 C10 1_555 1_555
O10 C16 1_555 1_555
O11 Ho1 1_555 1_555
O12 Ho1 1_555 1_555
O13 C31 1_555 1_555
O14 C22 1_555 1_555
O15 C28 1_555 1_555
O16 C34 1_555 1_555
C1A N1A 1_555 1_555
C2A H1A 1_555 1_555
C3A C2A 1_555 1_555
H2A C3A 1_555 1_555
C4A N3A 1_555 1_555
C5A H3A 1_555 1_555
H4A C5A 1_555 1_555
C6A H5A 1_555 1_555
H6A C6A 1_555 1_555
C7A N5A 1_555 1_555
C8A H7A 1_555 1_555
C9A C8A 1_555 1_555
H8A C9A 1_555 1_555
C10A N7A 1_555 1_555
C11A H9A 1_555 1_555
H10A C11A 1_555 1_555
C12A H11A 1_555 1_555
H12A C12A 1_555 1_555
C13A N9A 1_555 1_555
C14A H13A 1_555 1_555
C15A C14A 1_555 1_555
H14A C15A 1_555 1_555
C16A N11A 1_555 1_555
C17A N3 1_555 1_555
H15A C17A 1_555 1_555
H16A C17A 1_555 1_555
C18A N1 1_555 1_555
H17A C18A 1_555 1_555
H18A C18A 1_555 1_555
N1A C18 1_555 1_555
N2A C1A 1_555 1_555
N3A C17 1_555 1_555
N4A C3A 1_555 1_555
N5A C5A 1_555 1_555
N6A C7A 1_555 1_555
N7A C6A 1_555 1_555
N8A C9A 1_555 1_555
N9A C11A 1_555 1_555
N10A C13A 1_555 1_555
N11A C12A 1_555 1_555
N12A C15A 1_555 1_555
O5A C1A 1_555 1_555
O6A C7A 1_555 1_555
O7A C13A 1_555 1_555
O8A C4A 1_555 1_555
O9A C10A 1_555 1_555
O10A C16A 1_555 1_555
C19A N13A 1_555 1_555
C20A H19A 1_555 1_555
C21A C20A 1_555 1_555
H20A C21A 1_555 1_555
C22A N15A 1_555 1_555
C23A H21A 1_555 1_555
H22A C23A 1_555 1_555
C24A H23A 1_555 1_555
H24A C24A 1_555 1_555
C25A N17A 1_555 1_555
C26A H25A 1_555 1_555
C27A C26A 1_555 1_555
H26A C27A 1_555 1_555
C28A N19A 1_555 1_555
C29A H27A 1_555 1_555
H28A C29A 1_555 1_555
C30A H29A 1_555 1_555
H30A C30A 1_555 1_555
C31A N21A 1_555 1_555
C32A H31A 1_555 1_555
C33A C32A 1_555 1_555
H32A C33A 1_555 1_555
C34A N23A 1_555 1_555
C35A N15 1_555 1_555
H33A C35A 1_555 1_555
H34A C35A 1_555 1_555
C36A N24 1_555 1_555
H35A C36A 1_555 1_555
H36A C36A 1_555 1_555
N13A C20A 1_555 1_555
N14A C19A 1_555 1_555
N15A C35 1_555 1_555
N16A C21A 1_555 1_555
N17A C23A 1_555 1_555
N18A C25A 1_555 1_555
N19A C24A 1_555 1_555
N20A C27A 1_555 1_555
N21A C29A 1_555 1_555
N22A C31A 1_555 1_555
N23A C30A 1_555 1_555
N24A C36 1_555 1_555
O11A C19A 1_555 1_555
O12A C25A 1_555 1_555
O13A C31A 1_555 1_555
O14A C22A 1_555 1_555
O15A C28A 1_555 1_555
O16A C34A 1_555 1_555
O1A Ho1A 1_555 1_555
O2A Ho1A 1_555 1_555
O3A Ho1A 1_555 1_555
O4A Ho1A 1_555 1_555
Ho1A O5A 1_555 1_555
Ho1A_2 O11A 1_555 1_555
O11A_2 Ho1A 1_555 1_555
O12A_2 Ho1A 1_555 1_555
C3 N2 1_555 1_555
C4 N4 1_555 1_555
C5 N2 1_555 1_555
C6 N4 1_555 1_555
C7 O6 1_555 1_555
C8 N5 1_555 1_555
C8 N7 1_555 1_555
C9 N6 1_555 1_555
C10 N8 1_555 1_555
C11 N6 1_555 1_555
C12 N8 1_555 1_555
C14 N9 1_555 1_555
C14 N11 1_555 1_555
C15 N10 1_555 1_555
C16 N12 1_555 1_555
C17 N10 1_555 1_555
C18 N12 1_555 1_555
C19 O11 1_555 1_555
C21 N14 1_555 1_555
C22 N16 1_555 1_555
C23 N14 1_555 1_555
C24 N16 1_555 1_555
C25 O12 1_555 1_555
C26 N17 1_555 1_555
C26 N19 1_555 1_555
C27 N18 1_555 1_555
C28 N20 1_555 1_555
C29 N18 1_555 1_555
C30 N20 1_555 1_555
C32 N21 1_555 1_555
C32 N23 1_555 1_555
C33 N22 1_555 1_555
C34 N24 1_555 1_555
C35 N22 1_555 1_555
C36 N13 1_555 1_555
C2A N1A 1_555 1_555
C2A N3A 1_555 1_555
C3A N2A 1_555 1_555
C4A N4A 1_555 1_555
C5A N2A 1_555 1_555
C6A N4A 1_555 1_555
C8A N5A 1_555 1_555
C8A N7A 1_555 1_555
C9A N6A 1_555 1_555
C10A N8A 1_555 1_555
C11A N6A 1_555 1_555
C12A N8A 1_555 1_555
C14A N9A 1_555 1_555
C14A N11A 1_555 1_555
C15A N10A 1_555 1_555
C16A N12A 1_555 1_555
C17A N10A 1_555 1_555
C18A N12A 1_555 1_555
O6A Ho1A 1_555 1_555
C20A N15A 1_555 1_555
C21A N14A 1_555 1_555
C22A N16A 1_555 1_555
C23A N14A 1_555 1_555
C24A N16A 1_555 1_555
C26A N17A 1_555 1_555
C26A N19A 1_555 1_555
C27A N18A 1_555 1_555
C28A N20A 1_555 1_555
C29A N18A 1_555 1_555
C30A N20A 1_555 1_555
C32A N21A 1_555 1_555
C32A N23A 1_555 1_555
C33A N22A 1_555 1_555
C33A N24A 1_555 1_555
C34A N24A 1_555 1_555
C35A N22A 1_555 1_555
C36A N13A 1_555 1_555
O12A Ho1A_2 1_555 1_555

#END
