
#######################################################################
#
#                 Cambridge Crystallographic Data Centre
#                                CCDC 
#
#######################################################################
#
# If this CIF has been generated from an entry in the Cambridge 
# Structural Database, then it will include bibliographic, chemical, 
# crystal, experimental, refinement or atomic coordinate data resulting 
# from the CCDC's data processing and validation procedures.
#
#######################################################################

data_OGALEP
_symmetry_cell_setting           triclinic
_symmetry_space_group_name_H-M   'P -1'
_symmetry_Int_Tables_number      2
_space_group_name_Hall           '-P 1'
loop_
_symmetry_equiv_pos_site_id
_symmetry_equiv_pos_as_xyz
1 x,y,z
2 -x,-y,-z
_cell_length_a                   15.0779(8)
_cell_length_b                   15.6080(8)
_cell_length_c                   17.0335(9)
_cell_angle_alpha                65.006(2)
_cell_angle_beta                 81.067(2)
_cell_angle_gamma                81.602(2)
_cell_volume                     3574.61
loop_
_atom_site_label
_atom_site_type_symbol
_atom_site_fract_x
_atom_site_fract_y
_atom_site_fract_z
O1 O 0.06515(18) 1.1315(2) 0.64412(18)
O2 O 0.2596(2) 1.2324(2) 0.61535(19)
O3 O 0.10363(19) 0.9819(2) 0.80254(18)
O4 O 0.36654(18) 1.0610(2) 0.66416(19)
Er1 Er 0.207406(11) 1.082301(12) 0.694511(10)
C1 C 0.1291(2) 1.2389(3) 0.7925(2)
C2 C 0.0673(3) 1.3460(3) 0.8518(2)
H1 H 0.0579 1.4154 0.8175
C3 C 0.1658(3) 1.3139(3) 0.8733(3)
H2 H 0.2028 1.3682 0.8526
C4 C 0.0683(3) 1.2704(3) 1.0033(3)
C5 C 0.2870(2) 1.2075(3) 0.8244(2)
H3 H 0.3014 1.2008 0.7690
H4 H 0.3291 1.2489 0.8258
C6 C 0.2321(3) 1.2266(3) 1.0190(3)
H5 H 0.2825 1.2658 0.9897
H6 H 0.2143 1.2306 1.0753
C7 C 0.2889(2) 1.0340(3) 0.8894(2)
C8 C 0.3289(3) 1.0995(3) 0.9779(2)
H7 H 0.3871 1.1259 0.9701
C9 C 0.3376(3) 0.9909(3) 1.0247(3)
H8 H 0.4006 0.9654 1.0365
C10 C 0.2379(3) 1.0549(3) 1.1096(3)
C11 C 0.3201(3) 0.8628(3) 0.9733(3)
H9 H 0.3254 0.8630 0.9152
H10 H 0.3772 0.8337 0.9980
C12 C 0.2700(3) 0.8814(3) 1.1760(2)
H11 H 0.3300 0.8470 1.1842
H12 H 0.2471 0.8901 1.2295
C13 C 0.1877(3) 0.7779(3) 0.9939(3)
C14 C 0.2427(3) 0.7610(3) 1.1210(2)
H13 H 0.2994 0.7230 1.1421
C15 C 0.1643(3) 0.6978(3) 1.1453(3)
H14 H 0.1839 0.6299 1.1774
C16 C 0.1298(3) 0.8049(3) 1.2110(2)
C17 C 0.0785(3) 0.6573(3) 1.0504(3)
H15 H 0.0925 0.6599 0.9913
H16 H 0.0919 0.5915 1.0913
C18 C 0.0204(3) 0.6872(3) 1.2474(2)
H17 H 0.0014 0.7060 1.2960
H18 H 0.0364 0.6185 1.2721
C19 C 0.2139(2) 1.0910(3) 0.4860(2)
C20 C 0.2203(2) 1.1112(3) 0.3431(2)
H19 H 0.1779 1.1556 0.3019
C21 C 0.1791(3) 1.0174(3) 0.4034(2)
H20 H 0.1174 1.0169 0.3907
C22 C 0.3104(3) 0.9857(3) 0.3228(3)
C23 C 0.1381(2) 0.9459(3) 0.5684(2)
H21 H 0.1116 0.9772 0.6069
H22 H 0.0891 0.9216 0.5543
C24 C 0.2339(3) 0.8457(3) 0.4284(3)
H23 H 0.2636 0.8160 0.3896
H24 H 0.1699 0.8346 0.4389
C25 C 0.2507(3) 0.8671(3) 0.6735(2)
C26 C 0.2231(3) 0.7840(3) 0.5951(3)
H25 H 0.1696 0.7492 0.6052
C27 C 0.2922(2) 0.7256(3) 0.6590(3)
H26 H 0.2700 0.6651 0.7028
C28 C 0.3548(3) 0.7515(3) 0.5173(3)
C29 C 0.3551(2) 0.7581(3) 0.7737(2)
H27 H 0.3303 0.7960 0.8069
H28 H 0.3459 0.6916 0.8114
C30 C 0.4511(3) 0.6493(3) 0.6315(3)
H29 H 0.4340 0.5923 0.6827
H30 H 0.4798 0.6291 0.5856
C31 C 0.4921(3) 0.8314(3) 0.7628(2)
C32 C 0.5126(2) 0.6923(3) 0.7380(2)
H31 H 0.5027 0.6289 0.7851
C33 C 0.6058(3) 0.7241(3) 0.7372(2)
H32 H 0.6409 0.6753 0.7832
C34 C 0.5959(3) 0.7171(3) 0.6042(2)
C35 C 0.6479(3) 0.8537(3) 0.7745(3)
H33 H 0.6156 0.8877 0.8089
H34 H 0.6888 0.8031 0.8115
C36 C 0.7418(3) 0.7547(3) 0.6239(3)
H35 H 0.7623 0.7363 0.5753
H36 H 0.7769 0.7135 0.6724
N1 N 0.0543(2) 1.2921(2) 0.8026(2)
N2 N 0.1956(2) 1.2522(2) 0.8280(2)
N3 N 0.0163(2) 1.3161(2) 0.9362(2)
N4 N 0.1565(2) 1.2653(3) 0.9664(2)
N5 N 0.2997(2) 1.1161(2) 0.8944(2)
N6 N 0.3063(2) 0.9598(2) 0.9650(2)
N7 N 0.2625(2) 1.1290(2) 1.0342(2)
N8 N 0.2783(2) 0.9736(2) 1.1049(2)
N9 N 0.2492(2) 0.8059(2) 1.0270(2)
N10 N 0.1367(2) 0.7167(2) 1.0615(2)
N11 N 0.2116(2) 0.8249(2) 1.1632(2)
N12 N 0.0992(2) 0.7339(2) 1.1988(2)
N13 N 0.2393(2) 1.1481(2) 0.40241(19)
N14 N 0.1799(2) 1.0155(2) 0.4886(2)
N15 N 0.3000(2) 1.0819(2) 0.2983(2)
N16 N 0.2417(2) 0.9464(2) 0.3854(2)
N17 N 0.2002(2) 0.8678(2) 0.6135(2)
N18 N 0.3064(2) 0.7879(2) 0.6989(2)
N19 N 0.2729(2) 0.8002(3) 0.5105(2)
N20 N 0.3709(2) 0.7099(2) 0.6023(2)
N21 N 0.4504(2) 0.7674(2) 0.7519(2)
N22 N 0.5832(2) 0.8112(2) 0.7508(2)
N23 N 0.5156(2) 0.6928(2) 0.6533(2)
N24 N 0.6486(2) 0.7386(2) 0.6503(2)
O5 O 0.13503(17) 1.18441(19) 0.75538(17)
O6 O 0.26849(19) 1.0270(2) 0.82557(17)
O7 O 0.1822(2) 0.8024(2) 0.91596(18)
O8 O 0.0434(2) 1.2420(3) 1.0799(2)
O9 O 0.1895(2) 1.0612(2) 1.17191(19)
O10 O 0.0910(2) 0.8437(2) 1.2583(2)
O11 O 0.22076(18) 1.1071(2) 0.54948(16)
O12 O 0.2443(2) 0.93017(19) 0.69998(17)
O13 O 0.45476(19) 0.8976(2) 0.77981(18)
O14 O 0.3698(2) 0.9422(2) 0.2924(2)
O15 O 0.4059(2) 0.7425(3) 0.4569(2)
O16 O 0.6175(2) 0.7176(2) 0.53135(19)
C1A C -0.1291(2) 0.7611(3) 1.2075(2)
C2A C -0.0673(3) 0.6540(3) 1.1482(2)
H1A H -0.0579 0.5846 1.1825
C3A C -0.1658(3) 0.6861(3) 1.1267(3)
H2A H -0.2028 0.6318 1.1474
C4A C -0.0683(3) 0.7296(3) 0.9967(3)
C5A C -0.2870(2) 0.7925(3) 1.1756(2)
H3A H -0.3014 0.7992 1.2310
H4A H -0.3291 0.7511 1.1742
C6A C -0.2321(3) 0.7734(3) 0.9810(3)
H5A H -0.2825 0.7342 1.0103
H6A H -0.2143 0.7694 0.9247
C7A C -0.2889(2) 0.9660(3) 1.1106(2)
C8A C -0.3289(3) 0.9005(3) 1.0221(2)
H7A H -0.3871 0.8741 1.0299
C9A C -0.3376(3) 1.0091(3) 0.9753(3)
H8A H -0.4006 1.0346 0.9635
C10A C -0.2379(3) 0.9451(3) 0.8904(3)
C11A C -0.3201(3) 1.1372(3) 1.0267(3)
H9A H -0.3254 1.1370 1.0848
H10A H -0.3772 1.1663 1.0020
C12A C -0.2700(3) 1.1186(3) 0.8240(2)
H11A H -0.3300 1.1530 0.8158
H12A H -0.2471 1.1099 0.7705
C13A C -0.1877(3) 1.2221(3) 1.0061(3)
C14A C -0.2427(3) 1.2390(3) 0.8790(2)
H13A H -0.2994 1.2770 0.8579
C15A C -0.1643(3) 1.3022(3) 0.8547(3)
H14A H -0.1839 1.3701 0.8226
C16A C -0.1298(3) 1.1951(3) 0.7890(2)
C17A C -0.0785(3) 1.3427(3) 0.9496(3)
H15A H -0.0925 1.3401 1.0087
H16A H -0.0919 1.4085 0.9087
C18A C -0.0204(3) 1.3128(3) 0.7526(2)
H17A H -0.0014 1.2940 0.7040
H18A H -0.0364 1.3815 0.7279
N1A N -0.0543(2) 0.7079(2) 1.1974(2)
N2A N -0.1956(2) 0.7478(2) 1.1720(2)
N3A N -0.0163(2) 0.6839(2) 1.0638(2)
N4A N -0.1565(2) 0.7347(3) 1.0336(2)
N5A N -0.2997(2) 0.8839(2) 1.1056(2)
N6A N -0.3063(2) 1.0402(2) 1.0350(2)
N7A N -0.2625(2) 0.8710(2) 0.9658(2)
N8A N -0.2783(2) 1.0264(2) 0.8951(2)
N9A N -0.2492(2) 1.1941(2) 0.9730(2)
N10A N -0.1367(2) 1.2833(2) 0.9385(2)
N11A N -0.2116(2) 1.1751(2) 0.8368(2)
N12A N -0.0992(2) 1.2661(2) 0.8012(2)
O5A O -0.13503(17) 0.81559(19) 1.24462(17)
O6A O -0.26849(19) 0.9730(2) 1.17443(17)
O7A O -0.1822(2) 1.1976(2) 1.08404(18)
O8A O -0.0434(2) 0.7580(3) 0.9201(2)
O9A O -0.1895(2) 0.9388(2) 0.82809(19)
O10A O -0.0910(2) 1.1563(2) 0.7417(2)
C19A C 0.7861(2) 0.9090(3) 0.5140(2)
C20A C 0.7797(2) 0.8888(3) 0.6569(2)
H19A H 0.8221 0.8444 0.6981
C21A C 0.8209(3) 0.9826(3) 0.5966(2)
H20A H 0.8826 0.9831 0.6093
C22A C 0.6896(3) 1.0143(3) 0.6772(3)
C23A C 0.8619(2) 1.0541(3) 0.4316(2)
H21A H 0.8884 1.0228 0.3931
H22A H 0.9109 1.0784 0.4457
C24A C 0.7661(3) 1.1543(3) 0.5716(3)
H23A H 0.7364 1.1840 0.6104
H24A H 0.8301 1.1654 0.5611
C25A C 0.7493(3) 1.1329(3) 0.3265(2)
C26A C 0.7769(3) 1.2160(3) 0.4049(3)
H25A H 0.8304 1.2508 0.3948
C27A C 0.7078(2) 1.2744(3) 0.3410(3)
H26A H 0.7300 1.3349 0.2972
C28A C 0.6452(3) 1.2485(3) 0.4827(3)
C29A C 0.6449(2) 1.2419(3) 0.2263(2)
H27A H 0.6697 1.2040 0.1931
H28A H 0.6541 1.3084 0.1886
C30A C 0.5489(3) 1.3507(3) 0.3685(3)
H29A H 0.5660 1.4077 0.3173
H30A H 0.5202 1.3709 0.4144
C31A C 0.5079(3) 1.1686(3) 0.2372(2)
C32A C 0.4874(2) 1.3077(3) 0.2620(2)
H31A H 0.4973 1.3711 0.2149
C33A C 0.3942(3) 1.2759(3) 0.2628(2)
H32A H 0.3591 1.3247 0.2168
C34A C 0.4041(3) 1.2829(3) 0.3958(2)
C35A C 0.3521(3) 1.1463(3) 0.2255(3)
H33A H 0.3844 1.1123 0.1911
H34A H 0.3112 1.1969 0.1885
C36A C 0.2582(3) 1.2453(3) 0.3761(3)
H35A H 0.2377 1.2637 0.4247
H36A H 0.2231 1.2865 0.3276
N13A N 0.7607(2) 0.8519(2) 0.59759(19)
N14A N 0.8201(2) 0.9845(2) 0.5114(2)
N15A N 0.7000(2) 0.9181(2) 0.7017(2)
N16A N 0.7583(2) 1.0536(2) 0.6146(2)
N17A N 0.7998(2) 1.1322(2) 0.3865(2)
N18A N 0.6936(2) 1.2121(2) 0.3011(2)
N19A N 0.7271(2) 1.1998(3) 0.4895(2)
N20A N 0.6291(2) 1.2901(2) 0.3977(2)
N21A N 0.5496(2) 1.2326(2) 0.2481(2)
N22A N 0.4168(2) 1.1888(2) 0.2492(2)
N23A N 0.4844(2) 1.3072(2) 0.3467(2)
N24A N 0.3514(2) 1.2614(2) 0.3497(2)
O11A O 0.77924(18) 0.8929(2) 0.45052(16)
O12A O 0.7557(2) 1.06983(19) 0.30002(17)
O13A O 0.54524(19) 1.1024(2) 0.22019(18)
O14A O 0.6302(2) 1.0578(2) 0.7076(2)
O15A O 0.5941(2) 1.2575(3) 0.5431(2)
O16A O 0.3825(2) 1.2824(2) 0.46865(19)
O1A O -0.06515(18) 0.8685(2) 1.35588(18)
O2A O -0.2596(2) 0.7676(2) 1.38465(19)
O3A O -0.10363(19) 1.0181(2) 1.19746(18)
O4A O -0.36654(18) 0.9390(2) 1.33584(19)
Er1A Er -0.207406(11) 0.917699(12) 1.305489(10)
Er1A_2 Er 0.792594(11) 0.917699(12) 0.305489(10)
O11A_2 O -0.22076(18) 0.8929(2) 1.45052(16)
O12A_2 O -0.2443(2) 1.06983(19) 1.30002(17)
Cl2 Cl 0.62328(10) 0.47054(11) 0.80222(14)
Cl3 Cl 0.50968(10) 0.24412(12) 0.85127(13)
Cl4 Cl 0.4956(3) 0.3297(3) 1.04032(16)
Cl5 Cl 0.35077(11) 0.47168(15) 0.83416(17)
Cd1 Cd 0.49271(3) 0.38536(3) 0.88651(3)
Cl1 Cl -0.01277(8) 0.80072(10) 0.54475(9)
loop_
_geom_bond_atom_site_label_1
_geom_bond_atom_site_label_2
_geom_bond_site_symmetry_1
_geom_bond_site_symmetry_2
O1 Er1 1_555 1_555
O2 Er1 1_555 1_555
O3 Er1 1_555 1_555
O4 Er1 1_555 1_555
Er1 O5 1_555 1_555
C1 N1 1_555 1_555
C2 H1 1_555 1_555
C3 C2 1_555 1_555
H2 C3 1_555 1_555
C4 N3 1_555 1_555
C5 H3 1_555 1_555
H4 C5 1_555 1_555
C6 H5 1_555 1_555
H6 C6 1_555 1_555
C7 N5 1_555 1_555
C8 H7 1_555 1_555
C9 C8 1_555 1_555
H8 C9 1_555 1_555
C10 N7 1_555 1_555
C11 H9 1_555 1_555
H10 C11 1_555 1_555
C12 H11 1_555 1_555
H12 C12 1_555 1_555
C13 N9 1_555 1_555
C14 H13 1_555 1_555
C15 C14 1_555 1_555
H14 C15 1_555 1_555
C16 N11 1_555 1_555
C17 H15 1_555 1_555
H16 C17 1_555 1_555
C18 H17 1_555 1_555
H18 C18 1_555 1_555
C19 N13 1_555 1_555
C20 H19 1_555 1_555
C21 C20 1_555 1_555
H20 C21 1_555 1_555
C22 N15 1_555 1_555
C23 H21 1_555 1_555
H22 C23 1_555 1_555
C24 H23 1_555 1_555
H24 C24 1_555 1_555
C25 N17 1_555 1_555
C26 H25 1_555 1_555
C27 C26 1_555 1_555
H26 C27 1_555 1_555
C28 N19 1_555 1_555
C29 H27 1_555 1_555
H28 C29 1_555 1_555
C30 H29 1_555 1_555
H30 C30 1_555 1_555
C31 N21 1_555 1_555
C32 H31 1_555 1_555
C33 C32 1_555 1_555
H32 C33 1_555 1_555
C34 N23 1_555 1_555
C35 H33 1_555 1_555
H34 C35 1_555 1_555
C36 H35 1_555 1_555
H36 C36 1_555 1_555
N1 C2 1_555 1_555
N2 C1 1_555 1_555
N3 C2 1_555 1_555
N4 C3 1_555 1_555
N5 C5 1_555 1_555
N6 C7 1_555 1_555
N7 C6 1_555 1_555
N8 C9 1_555 1_555
N9 C11 1_555 1_555
N10 C13 1_555 1_555
N11 C12 1_555 1_555
N12 C15 1_555 1_555
N13 C20 1_555 1_555
N14 C19 1_555 1_555
N15 C20 1_555 1_555
N16 C21 1_555 1_555
N17 C23 1_555 1_555
N18 C25 1_555 1_555
N19 C24 1_555 1_555
N20 C27 1_555 1_555
N21 C29 1_555 1_555
N22 C31 1_555 1_555
N23 C30 1_555 1_555
N24 C33 1_555 1_555
O5 C1 1_555 1_555
O6 Er1 1_555 1_555
O7 C13 1_555 1_555
O8 C4 1_555 1_555
O9 C10 1_555 1_555
O10 C16 1_555 1_555
O11 Er1 1_555 1_555
O12 Er1 1_555 1_555
O13 C31 1_555 1_555
O14 C22 1_555 1_555
O15 C28 1_555 1_555
O16 C34 1_555 1_555
Cl2 Cd1 1_555 1_555
Cl3 Cd1 1_555 1_555
Cl4 Cd1 1_555 1_555
Cl5 Cd1 1_555 1_555
C1A N1A 1_555 1_555
C2A H1A 1_555 1_555
C3A C2A 1_555 1_555
H2A C3A 1_555 1_555
C4A N3A 1_555 1_555
C5A H3A 1_555 1_555
H4A C5A 1_555 1_555
C6A H5A 1_555 1_555
H6A C6A 1_555 1_555
C7A N5A 1_555 1_555
C8A H7A 1_555 1_555
C9A C8A 1_555 1_555
H8A C9A 1_555 1_555
C10A N7A 1_555 1_555
C11A H9A 1_555 1_555
H10A C11A 1_555 1_555
C12A H11A 1_555 1_555
H12A C12A 1_555 1_555
C13A N9A 1_555 1_555
C14A H13A 1_555 1_555
C15A C14A 1_555 1_555
H14A C15A 1_555 1_555
C16A N11A 1_555 1_555
C17A N3 1_555 1_555
H15A C17A 1_555 1_555
H16A C17A 1_555 1_555
C18A N1 1_555 1_555
H17A C18A 1_555 1_555
H18A C18A 1_555 1_555
N1A C18 1_555 1_555
N2A C1A 1_555 1_555
N3A C17 1_555 1_555
N4A C3A 1_555 1_555
N5A C5A 1_555 1_555
N6A C7A 1_555 1_555
N7A C6A 1_555 1_555
N8A C9A 1_555 1_555
N9A C11A 1_555 1_555
N10A C13A 1_555 1_555
N11A C12A 1_555 1_555
N12A C15A 1_555 1_555
O5A C1A 1_555 1_555
O6A C7A 1_555 1_555
O7A C13A 1_555 1_555
O8A C4A 1_555 1_555
O9A C10A 1_555 1_555
O10A C16A 1_555 1_555
C19A N13A 1_555 1_555
C20A H19A 1_555 1_555
C21A C20A 1_555 1_555
H20A C21A 1_555 1_555
C22A N15A 1_555 1_555
C23A H21A 1_555 1_555
H22A C23A 1_555 1_555
C24A H23A 1_555 1_555
H24A C24A 1_555 1_555
C25A N17A 1_555 1_555
C26A H25A 1_555 1_555
C27A C26A 1_555 1_555
H26A C27A 1_555 1_555
C28A N19A 1_555 1_555
C29A H27A 1_555 1_555
H28A C29A 1_555 1_555
C30A H29A 1_555 1_555
H30A C30A 1_555 1_555
C31A N21A 1_555 1_555
C32A H31A 1_555 1_555
C33A C32A 1_555 1_555
H32A C33A 1_555 1_555
C34A N23A 1_555 1_555
C35A N15 1_555 1_555
H33A C35A 1_555 1_555
H34A C35A 1_555 1_555
C36A N13 1_555 1_555
H35A C36A 1_555 1_555
H36A C36A 1_555 1_555
N13A C36 1_555 1_555
N14A C19A 1_555 1_555
N15A C35 1_555 1_555
N16A C21A 1_555 1_555
N17A C23A 1_555 1_555
N18A C25A 1_555 1_555
N19A C24A 1_555 1_555
N20A C27A 1_555 1_555
N21A C29A 1_555 1_555
N22A C31A 1_555 1_555
N23A C30A 1_555 1_555
N24A C33A 1_555 1_555
O11A C19A 1_555 1_555
O12A C25A 1_555 1_555
O13A C31A 1_555 1_555
O14A C22A 1_555 1_555
O15A C28A 1_555 1_555
O16A C34A 1_555 1_555
O1A Er1A 1_555 1_555
O2A Er1A 1_555 1_555
O3A Er1A 1_555 1_555
O4A Er1A 1_555 1_555
Er1A O5A 1_555 1_555
Er1A_2 O11A 1_555 1_555
O11A_2 Er1A 1_555 1_555
O12A_2 Er1A 1_555 1_555
C3 N2 1_555 1_555
C4 N4 1_555 1_555
C5 N2 1_555 1_555
C6 N4 1_555 1_555
C7 O6 1_555 1_555
C8 N5 1_555 1_555
C8 N7 1_555 1_555
C9 N6 1_555 1_555
C10 N8 1_555 1_555
C11 N6 1_555 1_555
C12 N8 1_555 1_555
C14 N9 1_555 1_555
C14 N11 1_555 1_555
C15 N10 1_555 1_555
C16 N12 1_555 1_555
C17 N10 1_555 1_555
C18 N12 1_555 1_555
C19 O11 1_555 1_555
C21 N14 1_555 1_555
C22 N16 1_555 1_555
C23 N14 1_555 1_555
C24 N16 1_555 1_555
C25 O12 1_555 1_555
C26 N17 1_555 1_555
C26 N19 1_555 1_555
C27 N18 1_555 1_555
C28 N20 1_555 1_555
C29 N18 1_555 1_555
C30 N20 1_555 1_555
C32 N21 1_555 1_555
C32 N23 1_555 1_555
C33 N22 1_555 1_555
C34 N24 1_555 1_555
C35 N22 1_555 1_555
C36 N24 1_555 1_555
C2A N1A 1_555 1_555
C2A N3A 1_555 1_555
C3A N2A 1_555 1_555
C4A N4A 1_555 1_555
C5A N2A 1_555 1_555
C6A N4A 1_555 1_555
C8A N5A 1_555 1_555
C8A N7A 1_555 1_555
C9A N6A 1_555 1_555
C10A N8A 1_555 1_555
C11A N6A 1_555 1_555
C12A N8A 1_555 1_555
C14A N9A 1_555 1_555
C14A N11A 1_555 1_555
C15A N10A 1_555 1_555
C16A N12A 1_555 1_555
C17A N10A 1_555 1_555
C18A N12A 1_555 1_555
O6A Er1A 1_555 1_555
C20A N13A 1_555 1_555
C20A N15A 1_555 1_555
C21A N14A 1_555 1_555
C22A N16A 1_555 1_555
C23A N14A 1_555 1_555
C24A N16A 1_555 1_555
C26A N17A 1_555 1_555
C26A N19A 1_555 1_555
C27A N18A 1_555 1_555
C28A N20A 1_555 1_555
C29A N18A 1_555 1_555
C30A N20A 1_555 1_555
C32A N21A 1_555 1_555
C32A N23A 1_555 1_555
C33A N22A 1_555 1_555
C34A N24A 1_555 1_555
C35A N22A 1_555 1_555
C36A N24A 1_555 1_555
O12A Er1A_2 1_555 1_555

#END
