
#######################################################################
#
#                 Cambridge Crystallographic Data Centre
#                                CCDC 
#
#######################################################################
#
# If this CIF has been generated from an entry in the Cambridge 
# Structural Database, then it will include bibliographic, chemical, 
# crystal, experimental, refinement or atomic coordinate data resulting 
# from the CCDC's data processing and validation procedures.
#
#######################################################################

data_OGALAL
_symmetry_cell_setting           triclinic
_symmetry_space_group_name_H-M   'P -1'
_symmetry_Int_Tables_number      2
_space_group_name_Hall           '-P 1'
loop_
_symmetry_equiv_pos_site_id
_symmetry_equiv_pos_as_xyz
1 x,y,z
2 -x,-y,-z
_cell_length_a                   15.127(4)
_cell_length_b                   15.586(5)
_cell_length_c                   17.087(5)
_cell_angle_alpha                65.083(10)
_cell_angle_beta                 80.892(12)
_cell_angle_gamma                81.824(12)
_cell_volume                     3594.69
loop_
_atom_site_label
_atom_site_type_symbol
_atom_site_fract_x
_atom_site_fract_y
_atom_site_fract_z
O1 O 0.9339(2) 0.8679(2) 0.35567(19)
O2 O 0.7404(2) 0.7662(2) 0.3851(2)
O3 O 0.8941(2) 1.0164(2) 0.19794(19)
O4 O 0.6338(2) 0.9362(3) 0.3353(2)
Tm1 Tm 0.791619(12) 0.916157(13) 0.305819(10)
C1 C 0.7116(3) 0.9634(3) 0.1111(3)
C2 C 0.6632(3) 1.0063(3) -0.0241(3)
H1 H 0.6006 1.0316 -0.0361
C3 C 0.6717(3) 0.8981(3) 0.0234(3)
H2 H 0.6136 0.8715 0.0316
C4 C 0.7634(3) 0.9421(3) -0.1088(3)
C5 C 0.7143(3) 0.7884(3) 0.1756(3)
H3 H 0.6993 0.7943 0.2311
H4 H 0.6727 0.7468 0.1735
C6 C 0.7693(3) 0.7705(4) -0.0188(3)
H5 H 0.7875 0.7665 -0.0749
H6 H 0.7189 0.7311 0.0102
C7 C 0.8705(3) 0.7604(3) 0.2081(2)
C8 C 0.8348(3) 0.6832(3) 0.1274(3)
H7 H 0.7983 0.6282 0.1481
C9 C 0.9334(3) 0.6517(3) 0.1487(3)
H8 H 0.9432 0.5824 0.1828
C10 C 0.9320(3) 0.7280(3) -0.0025(3)
C11 C 1.0210(3) 0.6862(3) 0.2481(3)
H9 H 1.0019 0.7051 0.2965
H10 H 1.0375 0.6176 0.2727
C12 C 1.0784(3) 0.6576(3) 0.0497(3)
H11 H 1.0922 0.6614 -0.0096
H12 H 1.0921 0.5915 0.0895
C13 C 1.1288(3) 0.8060(3) 0.2115(3)
C14 C 1.1648(3) 0.6990(3) 0.1448(3)
H13 H 1.1846 0.6312 0.1767
C15 C 1.2426(3) 0.7623(3) 0.1209(3)
H14 H 1.2993 0.7249 0.1415
C16 C 1.1881(3) 0.7785(3) -0.0063(3)
C17 C 1.2684(3) 0.8847(3) 0.1756(3)
H15 H 1.3283 0.8510 0.1837
H16 H 1.2452 0.8937 0.2287
C18 C 0.6798(3) 1.1355(3) 0.0268(3)
H17 H 0.6233 1.1642 0.0017
H18 H 0.6738 1.1359 0.0846
C19 C 0.7487(3) 1.1321(3) 0.3261(3)
C20 C 0.7082(3) 1.2751(3) 0.3404(3)
H19 H 0.7308 1.3357 0.2970
C21 C 0.7763(3) 1.2176(3) 0.4030(3)
H20 H 0.8297 1.2527 0.3924
C22 C 0.6455(3) 1.2492(3) 0.4820(3)
C23 C 0.8622(3) 1.0539(3) 0.4308(3)
H21 H 0.8886 1.0224 0.3925
H22 H 0.9110 1.0785 0.4447
C24 C 0.7667(3) 1.1550(3) 0.5701(3)
H23 H 0.8306 1.1661 0.5590
H24 H 0.7377 1.1852 0.6087
C25 C 0.7851(3) 0.9090(3) 0.5139(3)
C26 C 0.8205(3) 0.9831(3) 0.5964(3)
H25 H 0.8821 0.9843 0.6084
C27 C 0.7801(3) 0.8889(3) 0.6569(3)
H26 H 0.8222 0.8451 0.6982
C28 C 0.6905(3) 1.0143(4) 0.6772(3)
C29 C 0.7416(3) 0.7533(3) 0.6241(3)
H27 H 0.7617 0.7347 0.5756
H28 H 0.7763 0.7121 0.6723
C30 C 0.6482(3) 0.8535(4) 0.7745(3)
H29 H 0.6164 0.8870 0.8094
H30 H 0.6893 0.8030 0.8107
C31 C 0.5950(3) 0.7151(3) 0.6048(3)
C32 C 0.6054(3) 0.7242(3) 0.7375(2)
H31 H 0.6400 0.6757 0.7835
C33 C 0.5117(3) 0.6921(3) 0.7392(3)
H32 H 0.5015 0.6288 0.7864
C34 C 0.4933(3) 0.8320(3) 0.7617(2)
C35 C 0.5503(3) 1.3520(3) 0.3676(3)
H33 H 0.5679 1.4087 0.3163
H34 H 0.5223 1.3726 0.4133
C36 C 0.6447(3) 1.2424(3) 0.2249(3)
H35 H 0.6544 1.3088 0.1870
H36 H 0.6685 1.2041 0.1919
N1 N 0.6940(2) 1.0374(3) 0.0357(2)
N2 N 0.7007(3) 0.8818(3) 0.1055(2)
N3 N 0.7237(2) 1.0235(3) -0.1042(2)
N4 N 0.7389(3) 0.8675(3) -0.0340(2)
N5 N 0.8036(2) 0.7448(3) 0.1725(2)
N6 N 0.9458(2) 0.7063(2) 0.1974(2)
N7 N 0.8444(3) 0.7316(3) 0.0340(2)
N8 N 0.9840(3) 0.6825(3) 0.0642(2)
N9 N 1.0988(2) 0.7340(3) 0.1987(2)
N10 N 1.2105(2) 0.8267(3) 0.1633(2)
N11 N 1.1367(3) 0.7165(3) 0.0613(2)
N12 N 1.2483(3) 0.8070(3) 0.0270(2)
N13 N 0.6945(2) 1.2124(3) 0.2998(2)
N14 N 0.7998(2) 1.1318(3) 0.3860(2)
N15 N 0.6295(3) 1.2910(3) 0.3964(2)
N16 N 0.7276(3) 1.2006(3) 0.4884(2)
N17 N 0.8196(3) 0.9848(3) 0.5104(2)
N18 N 0.7613(2) 0.8509(3) 0.5975(2)
N19 N 0.7587(3) 1.0540(3) 0.6143(2)
N20 N 0.7000(2) 0.9190(3) 0.7008(2)
N21 N 0.6482(2) 0.7376(3) 0.6509(2)
N22 N 0.5162(2) 0.6917(3) 0.6540(2)
N23 N 0.5827(2) 0.8104(3) 0.7508(2)
N24 N 0.4499(2) 0.7665(3) 0.7519(2)
O5 O 0.7317(2) 0.9712(2) 0.17475(18)
O6 O 0.8649(2) 0.8139(2) 0.24524(18)
O7 O 1.0902(2) 0.8456(3) 0.2571(2)
O8 O 0.8119(2) 0.9357(3) -0.1716(2)
O9 O 0.9568(3) 0.7559(3) -0.0795(2)
O10 O 1.1822(2) 0.8025(2) -0.0835(2)
O11 O 0.7551(2) 1.0689(2) 0.29949(18)
O12 O 0.7777(2) 0.8916(2) 0.45032(17)
O13 O 0.6173(2) 0.7150(2) 0.53253(19)
O14 O 0.5941(3) 1.2581(3) 0.5416(2)
O15 O 0.6302(2) 1.0587(3) 0.7066(2)
O16 O 0.4553(2) 0.8980(2) 0.77925(19)
C1A C 1.2884(3) 1.0366(3) -0.1111(3)
C2A C 1.3368(3) 0.9937(3) 0.0241(3)
H1A H 1.3994 0.9684 0.0361
C3A C 1.3283(3) 1.1019(3) -0.0234(3)
H2A H 1.3864 1.1285 -0.0316
C4A C 1.2366(3) 1.0579(3) 0.1088(3)
C5A C 1.2857(3) 1.2116(3) -0.1756(3)
H3A H 1.3007 1.2057 -0.2311
H4A H 1.3273 1.2532 -0.1735
C6A C 1.2307(3) 1.2295(4) 0.0188(3)
H5A H 1.2125 1.2335 0.0749
H6A H 1.2811 1.2689 -0.0102
C7A C 1.1295(3) 1.2396(3) -0.2081(2)
C8A C 1.1652(3) 1.3168(3) -0.1274(3)
H7A H 1.2017 1.3718 -0.1481
C9A C 1.0666(3) 1.3483(3) -0.1487(3)
H8A H 1.0568 1.4176 -0.1828
C10A C 1.0680(3) 1.2720(3) 0.0025(3)
C11A C 0.9790(3) 1.3138(3) -0.2481(3)
H9A H 0.9981 1.2949 -0.2965
H10A H 0.9625 1.3824 -0.2727
C12A C 0.9216(3) 1.3424(3) -0.0497(3)
H11A H 0.9078 1.3386 0.0096
H12A H 0.9079 1.4085 -0.0895
C13A C 0.8712(3) 1.1940(3) -0.2115(3)
C14A C 0.8352(3) 1.3010(3) -0.1448(3)
H13A H 0.8154 1.3688 -0.1767
C15A C 0.7574(3) 1.2377(3) -0.1209(3)
H14A H 0.7007 1.2751 -0.1415
C16A C 0.8119(3) 1.2215(3) 0.0063(3)
C17A C 0.7316(3) 1.1153(3) -0.1756(3)
H15A H 0.6717 1.1490 -0.1837
H16A H 0.7548 1.1063 -0.2287
C18A C 1.3202(3) 0.8645(3) -0.0268(3)
H17A H 1.3767 0.8358 -0.0017
H18A H 1.3262 0.8641 -0.0846
N1A N 1.3060(2) 0.9626(3) -0.0357(2)
N2A N 1.2993(3) 1.1182(3) -0.1055(2)
N3A N 1.2763(2) 0.9765(3) 0.1042(2)
N4A N 1.2611(3) 1.1325(3) 0.0340(2)
N5A N 1.1964(2) 1.2552(3) -0.1725(2)
N6A N 1.0542(2) 1.2937(2) -0.1974(2)
N7A N 1.1556(3) 1.2684(3) -0.0340(2)
N8A N 1.0160(3) 1.3175(3) -0.0642(2)
N9A N 0.9012(2) 1.2660(3) -0.1987(2)
N10A N 0.7895(2) 1.1733(3) -0.1633(2)
N11A N 0.8633(3) 1.2835(3) -0.0613(2)
N12A N 0.7517(3) 1.1930(3) -0.0270(2)
O5A O 1.2683(2) 1.0288(2) -0.17475(18)
O6A O 1.1351(2) 1.1861(2) -0.24524(18)
O7A O 0.9098(2) 1.1544(3) -0.2571(2)
O8A O 1.1881(2) 1.0643(3) 0.1716(2)
O9A O 1.0432(3) 1.2441(3) 0.0795(2)
O10A O 0.8178(2) 1.1975(2) 0.0835(2)
C19A C 0.2513(3) 0.8679(3) 0.6739(3)
C20A C 0.2918(3) 0.7249(3) 0.6596(3)
H19A H 0.2692 0.6643 0.7030
C21A C 0.2237(3) 0.7824(3) 0.5970(3)
H20A H 0.1703 0.7473 0.6076
C22A C 0.3545(3) 0.7508(3) 0.5180(3)
C23A C 0.1378(3) 0.9461(3) 0.5692(3)
H21A H 0.1114 0.9776 0.6075
H22A H 0.0890 0.9215 0.5553
C24A C 0.2333(3) 0.8450(3) 0.4299(3)
H23A H 0.1694 0.8339 0.4410
H24A H 0.2623 0.8148 0.3913
C25A C 0.2149(3) 1.0910(3) 0.4861(3)
C26A C 0.1795(3) 1.0169(3) 0.4036(3)
H25A H 0.1179 1.0157 0.3916
C27A C 0.2199(3) 1.1111(3) 0.3431(3)
H26A H 0.1778 1.1549 0.3018
C28A C 0.3095(3) 0.9857(4) 0.3228(3)
C29A C 0.2584(3) 1.2467(3) 0.3759(3)
H27A H 0.2383 1.2653 0.4244
H28A H 0.2237 1.2879 0.3277
C30A C 0.3518(3) 1.1465(4) 0.2255(3)
H29A H 0.3836 1.1130 0.1906
H30A H 0.3107 1.1970 0.1893
C31A C 0.4050(3) 1.2849(3) 0.3952(3)
C32A C 0.3946(3) 1.2758(3) 0.2625(2)
H31A H 0.3600 1.3243 0.2165
C33A C 0.4883(3) 1.3079(3) 0.2608(3)
H32A H 0.4985 1.3712 0.2136
C34A C 0.5067(3) 1.1680(3) 0.2383(2)
C35A C 0.4497(3) 0.6480(3) 0.6324(3)
H33A H 0.4321 0.5913 0.6837
H34A H 0.4777 0.6274 0.5867
C36A C 0.3553(3) 0.7576(3) 0.7751(3)
H35A H 0.3456 0.6912 0.8130
H36A H 0.3315 0.7959 0.8081
N13A N 0.3055(2) 0.7876(3) 0.7002(2)
N14A N 0.2002(2) 0.8682(3) 0.6140(2)
N15A N 0.3705(3) 0.7090(3) 0.6036(2)
N16A N 0.2724(3) 0.7994(3) 0.5116(2)
N17A N 0.1804(3) 1.0152(3) 0.4896(2)
N18A N 0.2387(2) 1.1491(3) 0.4025(2)
N19A N 0.2413(3) 0.9460(3) 0.3857(2)
N20A N 0.3000(2) 1.0810(3) 0.2992(2)
N21A N 0.3518(2) 1.2624(3) 0.3491(2)
N22A N 0.4838(2) 1.3083(3) 0.3460(2)
N23A N 0.4173(2) 1.1896(3) 0.2492(2)
N24A N 0.5501(2) 1.2335(3) 0.2481(2)
O11A O 0.2449(2) 0.9311(2) 0.70051(18)
O12A O 0.2223(2) 1.1084(2) 0.54968(17)
O13A O 0.3827(2) 1.2850(2) 0.46747(19)
O14A O 0.4059(3) 0.7419(3) 0.4584(2)
O15A O 0.3698(2) 0.9413(3) 0.2934(2)
O16A O 0.5447(2) 1.1020(2) 0.22075(19)
O1A O 0.0661(2) 1.1321(2) 0.64433(19)
O2A O 0.2596(2) 1.2338(2) 0.6149(2)
O3A O 0.1059(2) 0.9836(2) 0.80206(19)
O4A O 0.3662(2) 1.0638(3) 0.6647(2)
Tm1A Tm 0.208381(12) 1.083843(13) 0.694181(10)
Tm1A_2 Tm 1.208381(12) 1.083843(13) -0.305819(10)
O5A_2 O 0.2683(2) 1.0288(2) 0.82525(18)
O6A_2 O 0.1351(2) 1.1861(2) 0.75476(18)
Cl2 Cl 0.37501(13) 0.53002(13) 0.19496(18)
Cl3 Cl 0.48793(12) 0.75796(15) 0.15023(15)
Cl4 Cl 0.64742(13) 0.52954(16) 0.16298(17)
Cl5 Cl 0.5080(4) 0.6727(3) -0.04005(16)
Cd1 Cd 0.50561(3) 0.61720(4) 0.11370(3)
Cl1 Cl 1.01183(10) 1.19858(12) 0.45721(10)
loop_
_geom_bond_atom_site_label_1
_geom_bond_atom_site_label_2
_geom_bond_site_symmetry_1
_geom_bond_site_symmetry_2
O1 Tm1 1_555 1_555
O2 Tm1 1_555 1_555
O3 Tm1 1_555 1_555
O4 Tm1 1_555 1_555
Tm1 O5 1_555 1_555
C1 N1 1_555 1_555
C2 H1 1_555 1_555
C3 C2 1_555 1_555
H2 C3 1_555 1_555
C4 N3 1_555 1_555
C5 H3 1_555 1_555
H4 C5 1_555 1_555
C6 H5 1_555 1_555
H6 C6 1_555 1_555
C7 N5 1_555 1_555
C8 H7 1_555 1_555
C9 C8 1_555 1_555
H8 C9 1_555 1_555
C10 N7 1_555 1_555
C11 H9 1_555 1_555
H10 C11 1_555 1_555
C12 H11 1_555 1_555
H12 C12 1_555 1_555
C13 N9 1_555 1_555
C14 H13 1_555 1_555
C15 C14 1_555 1_555
H14 C15 1_555 1_555
C16 N11 1_555 1_555
C17 H15 1_555 1_555
H16 C17 1_555 1_555
C18 H17 1_555 1_555
H18 C18 1_555 1_555
C19 N13 1_555 1_555
C20 H19 1_555 1_555
C21 C20 1_555 1_555
H20 C21 1_555 1_555
C22 N15 1_555 1_555
C23 H21 1_555 1_555
H22 C23 1_555 1_555
C24 H23 1_555 1_555
H24 C24 1_555 1_555
C25 N17 1_555 1_555
C26 H25 1_555 1_555
C27 C26 1_555 1_555
H26 C27 1_555 1_555
C28 N19 1_555 1_555
C29 H27 1_555 1_555
H28 C29 1_555 1_555
C30 H29 1_555 1_555
H30 C30 1_555 1_555
C31 N21 1_555 1_555
C32 H31 1_555 1_555
C33 C32 1_555 1_555
H32 C33 1_555 1_555
C34 N23 1_555 1_555
C35 H33 1_555 1_555
H34 C35 1_555 1_555
C36 H35 1_555 1_555
H36 C36 1_555 1_555
N1 C2 1_555 1_555
N2 C1 1_555 1_555
N3 C2 1_555 1_555
N4 C3 1_555 1_555
N5 C5 1_555 1_555
N6 C7 1_555 1_555
N7 C6 1_555 1_555
N8 C9 1_555 1_555
N9 C11 1_555 1_555
N10 C13 1_555 1_555
N11 C12 1_555 1_555
N12 C15 1_555 1_555
N13 C20 1_555 1_555
N14 C19 1_555 1_555
N15 C20 1_555 1_555
N16 C21 1_555 1_555
N17 C23 1_555 1_555
N18 C25 1_555 1_555
N19 C24 1_555 1_555
N20 C27 1_555 1_555
N21 C29 1_555 1_555
N22 C31 1_555 1_555
N23 C30 1_555 1_555
N24 C33 1_555 1_555
O5 C1 1_555 1_555
O6 Tm1 1_555 1_555
O7 C13 1_555 1_555
O8 C4 1_555 1_555
O9 C10 1_555 1_555
O10 C16 1_555 1_555
O11 Tm1 1_555 1_555
O12 Tm1 1_555 1_555
O13 C31 1_555 1_555
O14 C22 1_555 1_555
O15 C28 1_555 1_555
O16 C34 1_555 1_555
Cl2 Cd1 1_555 1_555
Cl3 Cd1 1_555 1_555
Cl4 Cd1 1_555 1_555
Cl5 Cd1 1_555 1_555
C1A N1A 1_555 1_555
C2A H1A 1_555 1_555
C3A C2A 1_555 1_555
H2A C3A 1_555 1_555
C4A N3A 1_555 1_555
C5A H3A 1_555 1_555
H4A C5A 1_555 1_555
C6A H5A 1_555 1_555
H6A C6A 1_555 1_555
C7A N5A 1_555 1_555
C8A H7A 1_555 1_555
C9A C8A 1_555 1_555
H8A C9A 1_555 1_555
C10A N7A 1_555 1_555
C11A H9A 1_555 1_555
H10A C11A 1_555 1_555
C12A H11A 1_555 1_555
H12A C12A 1_555 1_555
C13A N9A 1_555 1_555
C14A H13A 1_555 1_555
C15A C14A 1_555 1_555
H14A C15A 1_555 1_555
C16A N11A 1_555 1_555
C17A N3 1_555 1_555
H15A C17A 1_555 1_555
H16A C17A 1_555 1_555
C18A N12 1_555 1_555
H17A C18A 1_555 1_555
H18A C18A 1_555 1_555
N1A C2A 1_555 1_555
N2A C1A 1_555 1_555
N3A C17 1_555 1_555
N4A C3A 1_555 1_555
N5A C5A 1_555 1_555
N6A C7A 1_555 1_555
N7A C6A 1_555 1_555
N8A C9A 1_555 1_555
N9A C11A 1_555 1_555
N10A C13A 1_555 1_555
N11A C12A 1_555 1_555
N12A C18 1_555 1_555
O5A C1A 1_555 1_555
O6A C7A 1_555 1_555
O7A C13A 1_555 1_555
O8A C4A 1_555 1_555
O9A C10A 1_555 1_555
O10A C16A 1_555 1_555
C19A N13A 1_555 1_555
C20A H19A 1_555 1_555
C21A C20A 1_555 1_555
H20A C21A 1_555 1_555
C22A N15A 1_555 1_555
C23A H21A 1_555 1_555
H22A C23A 1_555 1_555
C24A H23A 1_555 1_555
H24A C24A 1_555 1_555
C25A N17A 1_555 1_555
C26A H25A 1_555 1_555
C27A C26A 1_555 1_555
H26A C27A 1_555 1_555
C28A N19A 1_555 1_555
C29A H27A 1_555 1_555
H28A C29A 1_555 1_555
C30A H29A 1_555 1_555
H30A C30A 1_555 1_555
C31A N21A 1_555 1_555
C32A H31A 1_555 1_555
C33A C32A 1_555 1_555
H32A C33A 1_555 1_555
C34A N23A 1_555 1_555
C35A N22 1_555 1_555
H33A C35A 1_555 1_555
H34A C35A 1_555 1_555
C36A N24 1_555 1_555
H35A C36A 1_555 1_555
H36A C36A 1_555 1_555
N13A C20A 1_555 1_555
N14A C19A 1_555 1_555
N15A C20A 1_555 1_555
N16A C21A 1_555 1_555
N17A C23A 1_555 1_555
N18A C25A 1_555 1_555
N19A C24A 1_555 1_555
N20A C27A 1_555 1_555
N21A C29A 1_555 1_555
N22A C35 1_555 1_555
N23A C30A 1_555 1_555
N24A C36 1_555 1_555
O11A C19A 1_555 1_555
O12A C25A 1_555 1_555
O13A C31A 1_555 1_555
O14A C22A 1_555 1_555
O15A C28A 1_555 1_555
O16A C34A 1_555 1_555
O1A Tm1A 1_555 1_555
O2A Tm1A 1_555 1_555
O3A Tm1A 1_555 1_555
O4A Tm1A 1_555 1_555
Tm1A O11A 1_555 1_555
Tm1A_2 O5A 1_555 1_555
O5A_2 Tm1A 1_555 1_555
O6A_2 Tm1A 1_555 1_555
C3 N2 1_555 1_555
C4 N4 1_555 1_555
C5 N2 1_555 1_555
C6 N4 1_555 1_555
C7 O6 1_555 1_555
C8 N5 1_555 1_555
C8 N7 1_555 1_555
C9 N6 1_555 1_555
C10 N8 1_555 1_555
C11 N6 1_555 1_555
C12 N8 1_555 1_555
C14 N9 1_555 1_555
C14 N11 1_555 1_555
C15 N10 1_555 1_555
C16 N12 1_555 1_555
C17 N10 1_555 1_555
C18 N1 1_555 1_555
C19 O11 1_555 1_555
C21 N14 1_555 1_555
C22 N16 1_555 1_555
C23 N14 1_555 1_555
C24 N16 1_555 1_555
C25 O12 1_555 1_555
C26 N17 1_555 1_555
C26 N19 1_555 1_555
C27 N18 1_555 1_555
C28 N20 1_555 1_555
C29 N18 1_555 1_555
C30 N20 1_555 1_555
C32 N21 1_555 1_555
C32 N23 1_555 1_555
C33 N22 1_555 1_555
C34 N24 1_555 1_555
C35 N15 1_555 1_555
C36 N13 1_555 1_555
C2A N3A 1_555 1_555
C3A N2A 1_555 1_555
C4A N4A 1_555 1_555
C5A N2A 1_555 1_555
C6A N4A 1_555 1_555
C8A N5A 1_555 1_555
C8A N7A 1_555 1_555
C9A N6A 1_555 1_555
C10A N8A 1_555 1_555
C11A N6A 1_555 1_555
C12A N8A 1_555 1_555
C14A N9A 1_555 1_555
C14A N11A 1_555 1_555
C15A N10A 1_555 1_555
C15A N12A 1_555 1_555
C16A N12A 1_555 1_555
C17A N10A 1_555 1_555
C18A N1A 1_555 1_555
O6A Tm1A_2 1_555 1_555
C21A N14A 1_555 1_555
C22A N16A 1_555 1_555
C23A N14A 1_555 1_555
C24A N16A 1_555 1_555
C26A N17A 1_555 1_555
C26A N19A 1_555 1_555
C27A N18A 1_555 1_555
C28A N20A 1_555 1_555
C29A N18A 1_555 1_555
C30A N20A 1_555 1_555
C31A N22A 1_555 1_555
C32A N21A 1_555 1_555
C32A N23A 1_555 1_555
C33A N22A 1_555 1_555
C33A N24A 1_555 1_555
C34A N24A 1_555 1_555
C35A N15A 1_555 1_555
C36A N13A 1_555 1_555
O12A Tm1A 1_555 1_555

#END
