
#######################################################################
#
#                 Cambridge Crystallographic Data Centre
#                                CCDC 
#
#######################################################################
#
# If this CIF has been generated from an entry in the Cambridge 
# Structural Database, then it will include bibliographic, chemical, 
# crystal, experimental, refinement or atomic coordinate data resulting 
# from the CCDC's data processing and validation procedures.
#
#######################################################################

data_OGALOZ
_symmetry_cell_setting           triclinic
_symmetry_space_group_name_H-M   'P -1'
_symmetry_Int_Tables_number      2
_space_group_name_Hall           '-P 1'
loop_
_symmetry_equiv_pos_site_id
_symmetry_equiv_pos_as_xyz
1 x,y,z
2 -x,-y,-z
_cell_length_a                   15.1428(19)
_cell_length_b                   15.569(2)
_cell_length_c                   17.119(2)
_cell_angle_alpha                64.842(4)
_cell_angle_beta                 80.884(5)
_cell_angle_gamma                81.789(4)
_cell_volume                     3594.07
loop_
_atom_site_label
_atom_site_type_symbol
_atom_site_fract_x
_atom_site_fract_y
_atom_site_fract_z
O1 O 0.5652(2) 0.6341(2) 1.14283(18)
O2 O 0.7610(2) 0.7383(2) 1.1122(2)
O3 O 0.6048(2) 0.4833(2) 1.30242(19)
O4 O 0.8693(2) 0.5662(2) 1.1640(2)
Dy1 Dy 0.709024(12) 0.585647(13) 1.193489(11)
C1 C 0.7151(3) 0.5931(3) 0.9838(2)
C2 C 0.7214(3) 0.6121(3) 0.8416(3)
H1 H 0.6793 0.6555 0.8002
C3 C 0.6811(3) 0.5171(3) 0.9032(2)
H2 H 0.6196 0.5159 0.8909
C4 C 0.8109(3) 0.4848(3) 0.8234(3)
C5 C 0.6389(3) 0.4460(3) 1.0682(3)
H3 H 0.6122 0.4774 1.1064
H4 H 0.5905 0.4210 1.0545
C6 C 0.7337(3) 0.3454(3) 0.9293(3)
H5 H 0.7632 0.3152 0.8910
H6 H 0.6699 0.3346 0.9397
C7 C 0.7507(3) 0.3681(3) 1.1736(2)
C8 C 0.7232(3) 0.2832(3) 1.0966(3)
H7 H 0.6696 0.2484 1.1072
C9 C 0.7917(3) 0.2246(3) 1.1601(3)
H8 H 0.7693 0.1637 1.2036
C10 C 0.8546(3) 0.2503(3) 1.0193(3)
C11 C 0.8534(3) 0.2569(3) 1.2756(2)
H9 H 0.8436 0.1902 1.3131
H10 H 0.8290 0.2949 1.3085
C12 C 0.9483(3) 0.1476(3) 1.1340(3)
H11 H 0.9767 0.1269 1.0886
H12 H 0.9302 0.0908 1.1852
C13 C 0.9907(3) 0.3316(3) 1.2629(2)
C14 C 1.0108(3) 0.1918(3) 1.2404(2)
H13 H 1.0002 0.1285 1.2877
C15 C 1.1037(3) 0.2226(3) 1.2398(2)
H14 H 1.1379 0.1738 1.2862
C16 C 1.0951(3) 0.2141(3) 1.1073(2)
C17 C 1.1461(3) 0.3526(4) 1.2755(3)
H15 H 1.1142 0.3863 1.3101
H16 H 1.1866 0.3015 1.3122
C18 C 0.7588(3) 0.7481(3) 0.8725(3)
H17 H 0.7376 0.7677 0.9201
H18 H 0.7251 0.7888 0.8234
C19 C 0.6288(3) 0.7430(3) 1.2914(2)
C20 C 0.5651(3) 0.8489(3) 1.3526(3)
H19 H 0.5555 0.9186 1.3188
C21 C 0.6629(3) 0.8180(3) 1.3740(3)
H20 H 0.6991 0.8733 1.3538
C22 C 0.5656(3) 0.7729(3) 1.5031(3)
C23 C 0.7846(3) 0.7139(3) 1.3263(3)
H21 H 0.8255 0.7560 1.3286
H22 H 0.8004 0.7082 1.2708
C24 C 0.7275(3) 0.7303(3) 1.5205(3)
H23 H 0.7773 0.7706 1.4917
H24 H 0.7088 0.7335 1.5767
C25 C 0.7886(3) 0.5389(3) 1.3903(2)
C26 C 0.8263(3) 0.6049(3) 1.4779(3)
H25 H 0.8840 0.6322 1.4698
C27 C 0.8357(3) 0.4950(3) 1.5259(2)
H26 H 0.8984 0.4700 1.5379
C28 C 0.7349(3) 0.5582(3) 1.6101(3)
C29 C 0.8209(3) 0.3673(3) 1.4739(3)
H27 H 0.8774 0.3390 1.4990
H28 H 0.8273 0.3679 1.4158
C30 C 0.7679(3) 0.3849(3) 1.6770(3)
H29 H 0.7440 0.3938 1.7300
H30 H 0.8279 0.3515 1.6856
C31 C 0.6895(3) 0.2797(3) 1.4939(3)
C32 C 0.7433(3) 0.2625(3) 1.6211(2)
H31 H 0.7999 0.2251 1.6420
C33 C 0.6654(3) 0.1983(3) 1.6451(3)
H32 H 0.6853 0.1303 1.6771
C34 C 0.6294(3) 0.3051(3) 1.7121(2)
C35 C 0.4187(3) 0.8429(3) 1.4504(3)
H33 H 0.4050 0.9091 1.4102
H34 H 0.4043 0.8393 1.5096
C36 C 0.4791(3) 0.8154(3) 1.2523(2)
H35 H 0.4989 0.7968 1.2039
H36 H 0.4625 0.8842 1.2277
N1 N 0.7396(2) 0.6511(3) 0.9000(2)
N2 N 0.6807(2) 0.5159(2) 0.9885(2)
N3 N 0.8014(2) 0.5821(3) 0.7978(2)
N4 N 0.7423(2) 0.4463(3) 0.8856(2)
N5 N 0.7010(2) 0.3679(2) 1.1138(2)
N6 N 0.8051(2) 0.2875(2) 1.2004(2)
N7 N 0.7721(3) 0.2994(3) 1.0121(2)
N8 N 0.8695(2) 0.2094(3) 1.1042(2)
N9 N 0.9494(2) 0.2661(2) 1.2531(2)
N10 N 1.0815(2) 0.3107(3) 1.2515(2)
N11 N 1.0143(2) 0.1908(2) 1.1561(2)
N12 N 1.1467(2) 0.2364(2) 1.1530(2)
N13 N 0.5531(2) 0.7957(2) 1.3025(2)
N14 N 0.6950(2) 0.7568(2) 1.3287(2)
N15 N 0.5135(2) 0.8181(3) 1.4367(2)
N16 N 0.6528(3) 0.7683(3) 1.4679(2)
N17 N 0.7982(2) 0.6207(2) 1.3963(2)
N18 N 0.8053(2) 0.4635(2) 1.4662(2)
N19 N 0.7587(3) 0.6344(3) 1.5351(2)
N20 N 0.7756(2) 0.4772(3) 1.6055(2)
N21 N 0.7497(2) 0.3087(2) 1.5272(2)
N22 N 0.6383(2) 0.2166(3) 1.5614(2)
N23 N 0.7103(2) 0.3258(3) 1.6643(2)
N24 N 0.6000(2) 0.2334(2) 1.6985(2)
O5 O 0.72185(19) 0.6107(2) 1.04725(17)
O6 O 0.7456(2) 0.4313(2) 1.19925(18)
O7 O 0.9545(2) 0.3983(2) 1.27944(19)
O8 O 0.8700(2) 0.4415(2) 0.7938(2)
O9 O 0.9059(2) 0.2423(3) 0.9591(2)
O10 O 1.1171(2) 0.2135(2) 1.0352(2)
O11 O 0.63594(19) 0.6899(2) 1.25374(18)
O12 O 0.7691(2) 0.5315(2) 1.32607(18)
O13 O 0.6836(2) 0.3039(2) 1.41660(18)
O14 O 0.5400(3) 0.7426(3) 1.5804(2)
O15 O 0.6868(2) 0.5642(3) 1.6725(2)
O16 O 0.5902(2) 0.3433(2) 1.7581(2)
C1A C 1.2849(3) 0.4069(3) 1.0162(2)
C2A C 1.2786(3) 0.3879(3) 1.1584(3)
H1A H 1.3207 0.3445 1.1998
C3A C 1.3189(3) 0.4829(3) 1.0968(2)
H2A H 1.3804 0.4841 1.1091
C4A C 1.1891(3) 0.5152(3) 1.1766(3)
C5A C 1.3611(3) 0.5540(3) 0.9318(3)
H3A H 1.3878 0.5226 0.8936
H4A H 1.4095 0.5790 0.9455
C6A C 1.2663(3) 0.6546(3) 1.0707(3)
H5A H 1.2368 0.6848 1.1090
H6A H 1.3301 0.6654 1.0603
C7A C 1.2493(3) 0.6319(3) 0.8264(2)
C8A C 1.2768(3) 0.7168(3) 0.9034(3)
H7A H 1.3304 0.7516 0.8928
C9A C 1.2083(3) 0.7754(3) 0.8399(3)
H8A H 1.2307 0.8363 0.7964
C10A C 1.1454(3) 0.7497(3) 0.9807(3)
C11A C 1.1466(3) 0.7431(3) 0.7244(2)
H9A H 1.1564 0.8098 0.6869
H10A H 1.1710 0.7051 0.6915
C12A C 1.0517(3) 0.8524(3) 0.8660(3)
H11A H 1.0233 0.8731 0.9114
H12A H 1.0698 0.9092 0.8148
C13A C 1.0093(3) 0.6684(3) 0.7371(2)
C14A C 0.9892(3) 0.8082(3) 0.7596(2)
H13A H 0.9998 0.8715 0.7123
C15A C 0.8963(3) 0.7774(3) 0.7602(2)
H14A H 0.8621 0.8262 0.7138
C16A C 0.9049(3) 0.7859(3) 0.8927(2)
C17A C 0.8539(3) 0.6474(4) 0.7245(3)
H15A H 0.8858 0.6137 0.6899
H16A H 0.8134 0.6985 0.6878
C18A C 1.2412(3) 0.2519(3) 1.1275(3)
H17A H 1.2624 0.2323 1.0799
H18A H 1.2749 0.2112 1.1766
N1A N 1.2604(2) 0.3489(3) 1.1000(2)
N2A N 1.3193(2) 0.4841(2) 1.0115(2)
N3A N 1.1986(2) 0.4179(3) 1.2022(2)
N4A N 1.2577(2) 0.5537(3) 1.1144(2)
N5A N 1.2990(2) 0.6321(2) 0.8862(2)
N6A N 1.1949(2) 0.7125(2) 0.7996(2)
N7A N 1.2279(3) 0.7006(3) 0.9879(2)
N8A N 1.1305(2) 0.7906(3) 0.8958(2)
N9A N 1.0506(2) 0.7339(2) 0.7469(2)
N10A N 0.9185(2) 0.6893(3) 0.7485(2)
N11A N 0.9857(2) 0.8092(2) 0.8439(2)
N12A N 0.8533(2) 0.7636(2) 0.8470(2)
O5A O 1.27815(19) 0.3893(2) 0.95275(17)
O6A O 1.2544(2) 0.5687(2) 0.80075(18)
O7A O 1.0455(2) 0.6017(2) 0.72056(19)
O8A O 1.1300(2) 0.5585(2) 1.2062(2)
O9A O 1.0941(2) 0.7577(3) 1.0409(2)
O10A O 0.8829(2) 0.7865(2) 0.9648(2)
C19A C 0.3712(3) 0.2570(3) 1.7086(2)
C20A C 0.4349(3) 0.1511(3) 1.6474(3)
H19A H 0.4445 0.0814 1.6812
C21A C 0.3371(3) 0.1820(3) 1.6260(3)
H20A H 0.3009 0.1267 1.6462
C22A C 0.4344(3) 0.2271(3) 1.4969(3)
C23A C 0.2154(3) 0.2861(3) 1.6737(3)
H21A H 0.1745 0.2440 1.6714
H22A H 0.1996 0.2918 1.7292
C24A C 0.2725(3) 0.2697(3) 1.4795(3)
H23A H 0.2227 0.2294 1.5083
H24A H 0.2912 0.2665 1.4233
C25A C 0.2114(3) 0.4611(3) 1.6097(2)
C26A C 0.1737(3) 0.3951(3) 1.5221(3)
H25A H 0.1160 0.3678 1.5302
C27A C 0.1643(3) 0.5050(3) 1.4741(2)
H26A H 0.1016 0.5300 1.4621
C28A C 0.2651(3) 0.4418(3) 1.3899(3)
C29A C 0.1791(3) 0.6327(3) 1.5261(3)
H27A H 0.1226 0.6610 1.5010
H28A H 0.1727 0.6321 1.5842
C30A C 0.2321(3) 0.6151(3) 1.3230(3)
H29A H 0.2560 0.6062 1.2700
H30A H 0.1721 0.6485 1.3144
C31A C 0.3105(3) 0.7203(3) 1.5061(3)
C32A C 0.2567(3) 0.7375(3) 1.3789(2)
H31A H 0.2001 0.7749 1.3580
C33A C 0.3346(3) 0.8017(3) 1.3549(3)
H32A H 0.3147 0.8697 1.3229
C34A C 0.3706(3) 0.6949(3) 1.2879(2)
C35A C 0.5813(3) 0.1571(3) 1.5496(3)
H33A H 0.5950 0.0909 1.5898
H34A H 0.5957 0.1607 1.4904
C36A C 0.5209(3) 0.1846(3) 1.7477(2)
H35A H 0.5011 0.2032 1.7961
H36A H 0.5375 0.1158 1.7723
N13A N 0.4469(2) 0.2043(2) 1.6975(2)
N14A N 0.3050(2) 0.2432(2) 1.6713(2)
N15A N 0.4865(2) 0.1819(3) 1.5633(2)
N16A N 0.3472(3) 0.2317(3) 1.5321(2)
N17A N 0.2018(2) 0.3793(2) 1.6037(2)
N18A N 0.1947(2) 0.5365(2) 1.5338(2)
N19A N 0.2413(3) 0.3656(3) 1.4649(2)
N20A N 0.2244(2) 0.5228(3) 1.3945(2)
N21A N 0.2503(2) 0.6913(2) 1.4728(2)
N22A N 0.3617(2) 0.7834(3) 1.4386(2)
N23A N 0.2897(2) 0.6742(3) 1.3357(2)
N24A N 0.4000(2) 0.7666(2) 1.3015(2)
O11A O 0.36406(19) 0.3101(2) 1.74626(18)
O12A O 0.2309(2) 0.4685(2) 1.67393(18)
O13A O 0.3164(2) 0.6961(2) 1.58340(18)
O14A O 0.4600(3) 0.2574(3) 1.4196(2)
O15A O 0.3132(2) 0.4358(3) 1.3275(2)
O16A O 0.4098(2) 0.6567(2) 1.2419(2)
O1A O 0.4348(2) 0.3659(2) 1.85717(18)
O2A O 0.2390(2) 0.2617(2) 1.8878(2)
O3A O 0.3952(2) 0.5167(2) 1.69758(19)
O4A O 0.1307(2) 0.4338(2) 1.8360(2)
Dy1A Dy 0.290976(12) 0.414353(13) 1.806511(11)
Dy1A_2 Dy 1.290976(12) 0.414353(13) 0.806511(11)
O5A_2 O 0.27815(19) 0.3893(2) 1.95275(17)
O6A_2 O 0.2544(2) 0.5687(2) 1.80075(18)
Cl2 Cl 0.98775(10) 0.25940(14) 1.65078(14)
Cl3 Cl 0.87581(12) 0.02997(12) 1.69640(18)
Cl4 Cl 1.14843(12) 0.03281(15) 1.66253(17)
Cl5 Cl 1.0079(4) 0.1765(4) 1.46139(17)
Cd1 Cd 1.00526(3) 0.11898(3) 1.61519(3)
Cl1 Cl 0.48825(9) 0.30148(12) 1.04399(10)
loop_
_geom_bond_atom_site_label_1
_geom_bond_atom_site_label_2
_geom_bond_site_symmetry_1
_geom_bond_site_symmetry_2
O1 Dy1 1_555 1_555
O2 Dy1 1_555 1_555
O3 Dy1 1_555 1_555
O4 Dy1 1_555 1_555
Dy1 O5 1_555 1_555
C1 N1 1_555 1_555
C2 H1 1_555 1_555
C3 C2 1_555 1_555
H2 C3 1_555 1_555
C4 N3 1_555 1_555
C5 H3 1_555 1_555
H4 C5 1_555 1_555
C6 H5 1_555 1_555
H6 C6 1_555 1_555
C7 N5 1_555 1_555
C8 H7 1_555 1_555
C9 C8 1_555 1_555
H8 C9 1_555 1_555
C10 N7 1_555 1_555
C11 H9 1_555 1_555
H10 C11 1_555 1_555
C12 H11 1_555 1_555
H12 C12 1_555 1_555
C13 N9 1_555 1_555
C14 H13 1_555 1_555
C15 C14 1_555 1_555
H14 C15 1_555 1_555
C16 N11 1_555 1_555
C17 H15 1_555 1_555
H16 C17 1_555 1_555
C18 H17 1_555 1_555
H18 C18 1_555 1_555
C19 N13 1_555 1_555
C20 H19 1_555 1_555
C21 C20 1_555 1_555
H20 C21 1_555 1_555
C22 N15 1_555 1_555
C23 H21 1_555 1_555
H22 C23 1_555 1_555
C24 H23 1_555 1_555
H24 C24 1_555 1_555
C25 N17 1_555 1_555
C26 H25 1_555 1_555
C27 C26 1_555 1_555
H26 C27 1_555 1_555
C28 N19 1_555 1_555
C29 H27 1_555 1_555
H28 C29 1_555 1_555
C30 H29 1_555 1_555
H30 C30 1_555 1_555
C31 N21 1_555 1_555
C32 H31 1_555 1_555
C33 C32 1_555 1_555
H32 C33 1_555 1_555
C34 N23 1_555 1_555
C35 H33 1_555 1_555
H34 C35 1_555 1_555
C36 H35 1_555 1_555
H36 C36 1_555 1_555
N1 C2 1_555 1_555
N2 C1 1_555 1_555
N3 C2 1_555 1_555
N4 C3 1_555 1_555
N5 C5 1_555 1_555
N6 C7 1_555 1_555
N7 C6 1_555 1_555
N8 C9 1_555 1_555
N9 C11 1_555 1_555
N10 C13 1_555 1_555
N11 C12 1_555 1_555
N12 C15 1_555 1_555
N13 C20 1_555 1_555
N14 C19 1_555 1_555
N15 C20 1_555 1_555
N16 C21 1_555 1_555
N17 C23 1_555 1_555
N18 C25 1_555 1_555
N19 C24 1_555 1_555
N20 C27 1_555 1_555
N21 C29 1_555 1_555
N22 C31 1_555 1_555
N23 C30 1_555 1_555
N24 C33 1_555 1_555
O5 C1 1_555 1_555
O6 Dy1 1_555 1_555
O7 C13 1_555 1_555
O8 C4 1_555 1_555
O9 C10 1_555 1_555
O10 C16 1_555 1_555
O11 Dy1 1_555 1_555
O12 Dy1 1_555 1_555
O13 C31 1_555 1_555
O14 C22 1_555 1_555
O15 C28 1_555 1_555
O16 C34 1_555 1_555
Cl2 Cd1 1_555 1_555
Cl3 Cd1 1_555 1_555
Cl4 Cd1 1_555 1_555
Cl5 Cd1 1_555 1_555
C1A N1A 1_555 1_555
C2A H1A 1_555 1_555
C3A C2A 1_555 1_555
H2A C3A 1_555 1_555
C4A N3A 1_555 1_555
C5A H3A 1_555 1_555
H4A C5A 1_555 1_555
C6A H5A 1_555 1_555
H6A C6A 1_555 1_555
C7A N5A 1_555 1_555
C8A H7A 1_555 1_555
C9A C8A 1_555 1_555
H8A C9A 1_555 1_555
C10A N7A 1_555 1_555
C11A H9A 1_555 1_555
H10A C11A 1_555 1_555
C12A H11A 1_555 1_555
H12A C12A 1_555 1_555
C13A N9A 1_555 1_555
C14A H13A 1_555 1_555
C15A C14A 1_555 1_555
H14A C15A 1_555 1_555
C16A N11A 1_555 1_555
C17A N3 1_555 1_555
H15A C17A 1_555 1_555
H16A C17A 1_555 1_555
C18A N12 1_555 1_555
H17A C18A 1_555 1_555
H18A C18A 1_555 1_555
N1A C2A 1_555 1_555
N2A C1A 1_555 1_555
N3A C17 1_555 1_555
N4A C3A 1_555 1_555
N5A C5A 1_555 1_555
N6A C7A 1_555 1_555
N7A C6A 1_555 1_555
N8A C9A 1_555 1_555
N9A C11A 1_555 1_555
N10A C13A 1_555 1_555
N11A C12A 1_555 1_555
N12A C18 1_555 1_555
O5A C1A 1_555 1_555
O6A C7A 1_555 1_555
O7A C13A 1_555 1_555
O8A C4A 1_555 1_555
O9A C10A 1_555 1_555
O10A C16A 1_555 1_555
C19A N13A 1_555 1_555
C20A H19A 1_555 1_555
C21A C20A 1_555 1_555
H20A C21A 1_555 1_555
C22A N15A 1_555 1_555
C23A H21A 1_555 1_555
H22A C23A 1_555 1_555
C24A H23A 1_555 1_555
H24A C24A 1_555 1_555
C25A N17A 1_555 1_555
C26A H25A 1_555 1_555
C27A C26A 1_555 1_555
H26A C27A 1_555 1_555
C28A N19A 1_555 1_555
C29A H27A 1_555 1_555
H28A C29A 1_555 1_555
C30A H29A 1_555 1_555
H30A C30A 1_555 1_555
C31A N21A 1_555 1_555
C32A H31A 1_555 1_555
C33A C32A 1_555 1_555
H32A C33A 1_555 1_555
C34A N23A 1_555 1_555
C35A N22 1_555 1_555
H33A C35A 1_555 1_555
H34A C35A 1_555 1_555
C36A N24 1_555 1_555
H35A C36A 1_555 1_555
H36A C36A 1_555 1_555
N13A C20A 1_555 1_555
N14A C19A 1_555 1_555
N15A C20A 1_555 1_555
N16A C21A 1_555 1_555
N17A C23A 1_555 1_555
N18A C25A 1_555 1_555
N19A C24A 1_555 1_555
N20A C27A 1_555 1_555
N21A C29A 1_555 1_555
N22A C35 1_555 1_555
N23A C30A 1_555 1_555
N24A C36 1_555 1_555
O11A C19A 1_555 1_555
O12A C25A 1_555 1_555
O13A C31A 1_555 1_555
O14A C22A 1_555 1_555
O15A C28A 1_555 1_555
O16A C34A 1_555 1_555
O1A Dy1A 1_555 1_555
O2A Dy1A 1_555 1_555
O3A Dy1A 1_555 1_555
O4A Dy1A 1_555 1_555
Dy1A O11A 1_555 1_555
Dy1A_2 O5A 1_555 1_555
O5A_2 Dy1A 1_555 1_555
O6A_2 Dy1A 1_555 1_555
C3 N2 1_555 1_555
C4 N4 1_555 1_555
C5 N2 1_555 1_555
C6 N4 1_555 1_555
C7 O6 1_555 1_555
C8 N5 1_555 1_555
C8 N7 1_555 1_555
C9 N6 1_555 1_555
C10 N8 1_555 1_555
C11 N6 1_555 1_555
C12 N8 1_555 1_555
C14 N9 1_555 1_555
C14 N11 1_555 1_555
C15 N10 1_555 1_555
C16 N12 1_555 1_555
C17 N10 1_555 1_555
C18 N1 1_555 1_555
C19 O11 1_555 1_555
C21 N14 1_555 1_555
C22 N16 1_555 1_555
C23 N14 1_555 1_555
C24 N16 1_555 1_555
C25 O12 1_555 1_555
C26 N17 1_555 1_555
C26 N19 1_555 1_555
C27 N18 1_555 1_555
C28 N20 1_555 1_555
C29 N18 1_555 1_555
C30 N20 1_555 1_555
C32 N21 1_555 1_555
C32 N23 1_555 1_555
C33 N22 1_555 1_555
C34 N24 1_555 1_555
C35 N15 1_555 1_555
C36 N13 1_555 1_555
C2A N3A 1_555 1_555
C3A N2A 1_555 1_555
C4A N4A 1_555 1_555
C5A N2A 1_555 1_555
C6A N4A 1_555 1_555
C8A N5A 1_555 1_555
C8A N7A 1_555 1_555
C9A N6A 1_555 1_555
C10A N8A 1_555 1_555
C11A N6A 1_555 1_555
C12A N8A 1_555 1_555
C14A N9A 1_555 1_555
C14A N11A 1_555 1_555
C15A N10A 1_555 1_555
C15A N12A 1_555 1_555
C16A N12A 1_555 1_555
C17A N10A 1_555 1_555
C18A N1A 1_555 1_555
O6A Dy1A_2 1_555 1_555
C21A N14A 1_555 1_555
C22A N16A 1_555 1_555
C23A N14A 1_555 1_555
C24A N16A 1_555 1_555
C26A N17A 1_555 1_555
C26A N19A 1_555 1_555
C27A N18A 1_555 1_555
C28A N20A 1_555 1_555
C29A N18A 1_555 1_555
C30A N20A 1_555 1_555
C31A N22A 1_555 1_555
C32A N21A 1_555 1_555
C32A N23A 1_555 1_555
C33A N22A 1_555 1_555
C33A N24A 1_555 1_555
C34A N24A 1_555 1_555
C35A N15A 1_555 1_555
C36A N13A 1_555 1_555
O12A Dy1A 1_555 1_555

#END
