
#######################################################################
#
#                 Cambridge Crystallographic Data Centre
#                                CCDC 
#
#######################################################################
#
# If this CIF has been generated from an entry in the Cambridge 
# Structural Database, then it will include bibliographic, chemical, 
# crystal, experimental, refinement or atomic coordinate data resulting 
# from the CCDC's data processing and validation procedures.
#
#######################################################################

data_OGALUF
_symmetry_cell_setting           triclinic
_symmetry_space_group_name_H-M   'P -1'
_symmetry_Int_Tables_number      2
_space_group_name_Hall           '-P 1'
loop_
_symmetry_equiv_pos_site_id
_symmetry_equiv_pos_as_xyz
1 x,y,z
2 -x,-y,-z
_cell_length_a                   15.101(6)
_cell_length_b                   15.634(6)
_cell_length_c                   17.210(7)
_cell_angle_alpha                64.686(13)
_cell_angle_beta                 80.871(14)
_cell_angle_gamma                81.896(13)
_cell_volume                     3614.23
loop_
_atom_site_label
_atom_site_type_symbol
_atom_site_fract_x
_atom_site_fract_y
_atom_site_fract_z
O1 O 0.4360(3) 0.3662(4) 0.8575(3)
O2 O 0.2392(3) 0.2599(3) 0.8904(3)
O3 O 0.3960(3) 0.5169(4) 0.6970(3)
O4 O 0.1284(3) 0.4347(4) 0.8355(3)
Tb1 Tb 0.29133(2) 0.41374(2) 0.807142(18)
C1 C 0.2496(5) 0.6313(5) 0.8264(4)
C2 C 0.2090(5) 0.7747(5) 0.8400(4)
H1 H 0.2313 0.8356 0.7965
C3 C 0.2787(5) 0.7166(5) 0.9028(4)
H2 H 0.3327 0.7510 0.8923
C4 C 0.1447(5) 0.7491(5) 0.9810(4)
C5 C 0.3596(4) 0.5546(5) 0.9311(4)
H3 H 0.4090 0.5798 0.9434
H4 H 0.3854 0.5228 0.8934
C6 C 0.2663(6) 0.6547(5) 1.0698(4)
H5 H 0.3304 0.6653 1.0590
H6 H 0.2373 0.6852 1.1077
C7 C 0.2861(4) 0.4060(5) 1.0174(4)
C8 C 0.3202(5) 0.4833(5) 1.0964(4)
H7 H 0.3819 0.4848 1.1083
C9 C 0.2786(5) 0.3882(5) 1.1592(4)
H8 H 0.3206 0.3445 1.2006
C10 C 0.1890(5) 0.5159(6) 1.1755(4)
C11 C 0.2394(5) 0.2516(5) 1.1287(4)
H9 H 0.2604 0.2314 1.0818
H10 H 0.2730 0.2113 1.1778
C12 C 0.1454(5) 0.3562(6) 1.2741(4)
H11 H 0.1124 0.3921 1.3060
H12 H 0.1855 0.3068 1.3127
C13 C 0.0953(5) 0.2152(5) 1.1086(4)
C14 C 0.1047(5) 0.2228(5) 1.2401(4)
H13 H 0.1397 0.1743 1.2857
C15 C 0.0123(5) 0.1921(5) 1.2419(4)
H14 H 0.0021 0.1290 1.2896
C16 C -0.0076(5) 0.3316(5) 1.2635(4)
C17 C -0.0509(5) 0.1482(5) 1.1351(5)
H15 H -0.0218 0.1283 1.0898
H16 H -0.0694 0.0911 1.1857
C18 C -0.1475(4) 0.2579(5) 1.2758(4)
H17 H -0.1578 0.1915 1.3135
H18 H -0.1716 0.2961 1.3083
C19 C 0.2119(4) 0.4601(5) 0.6100(4)
C20 C 0.1646(4) 0.5037(5) 0.4747(4)
H19 H 0.1017 0.5281 0.4632
C21 C 0.1730(5) 0.3960(6) 0.5216(4)
H20 H 0.1150 0.3691 0.5295
C22 C 0.2640(5) 0.4429(5) 0.3901(4)
C23 C 0.2167(5) 0.2867(5) 0.6746(4)
H21 H 0.2015 0.2939 0.7291
H22 H 0.1752 0.2442 0.6739
C24 C 0.2720(6) 0.2690(5) 0.4813(5)
H23 H 0.2898 0.2645 0.4258
H24 H 0.2219 0.2293 0.5113
C25 C 0.3717(4) 0.2570(5) 0.7087(4)
C26 C 0.3383(5) 0.1830(5) 0.6264(4)
H25 H 0.3017 0.1282 0.6467
C27 C 0.4350(5) 0.1507(5) 0.6492(4)
H26 H 0.4441 0.0812 0.6830
C28 C 0.4343(5) 0.2283(5) 0.4972(4)
C29 C 0.5224(4) 0.1838(5) 0.7485(4)
H27 H 0.5029 0.2011 0.7974
H28 H 0.5394 0.1154 0.7721
C30 C 0.5809(5) 0.1583(5) 0.5505(4)
H29 H 0.5951 0.1619 0.4916
H30 H 0.5940 0.0921 0.5906
C31 C 0.6295(5) 0.3066(5) 0.7109(4)
C32 C 0.6662(5) 0.1980(5) 0.6457(4)
H31 H 0.6862 0.1303 0.6778
C33 C 0.7442(4) 0.2632(5) 0.6218(4)
H32 H 0.8013 0.2264 0.6420
C34 C 0.6902(5) 0.2793(5) 0.4945(4)
C35 C 0.2316(5) 0.6139(5) 0.3234(4)
H33 H 0.1714 0.6469 0.3147
H34 H 0.2558 0.6052 0.2707
C36 C 0.1797(5) 0.6317(5) 0.5255(4)
H35 H 0.1230 0.6600 0.5004
H36 H 0.1731 0.6315 0.5832
N1 N 0.1953(4) 0.7115(4) 0.7992(3)
N2 N 0.2994(4) 0.6307(4) 0.8866(3)
N3 N 0.1298(4) 0.7900(4) 0.8949(3)
N4 N 0.2275(4) 0.6998(5) 0.9879(3)
N5 N 0.3195(4) 0.4846(4) 1.0121(3)
N6 N 0.2598(4) 0.3502(4) 1.0997(3)
N7 N 0.2572(4) 0.5545(4) 1.1140(3)
N8 N 0.1983(4) 0.4181(4) 1.2023(3)
N9 N 0.1455(4) 0.2371(4) 1.1540(3)
N10 N 0.0137(4) 0.1902(4) 1.1581(3)
N11 N 0.0808(4) 0.3104(4) 1.2530(3)
N12 N -0.0518(4) 0.2664(4) 1.2536(3)
N13 N 0.1942(4) 0.5353(4) 0.5343(3)
N14 N 0.2026(4) 0.3777(4) 0.6046(3)
N15 N 0.2236(4) 0.5221(4) 0.3940(3)
N16 N 0.2417(4) 0.3652(4) 0.4652(4)
N17 N 0.3065(4) 0.2430(4) 0.6727(3)
N18 N 0.4473(4) 0.2043(4) 0.6982(3)
N19 N 0.3472(4) 0.2322(5) 0.5328(4)
N20 N 0.4878(4) 0.1829(4) 0.5637(3)
N21 N 0.6008(4) 0.2335(4) 0.6993(3)
N22 N 0.7112(4) 0.3264(4) 0.6645(3)
N23 N 0.6402(4) 0.2166(4) 0.5620(3)
N24 N 0.7497(4) 0.3099(4) 0.5271(3)
O5 O 0.2550(3) 0.5688(3) 0.8006(3)
O6 O 0.2796(3) 0.3880(3) 0.9539(3)
O7 O 0.1173(4) 0.2139(4) 1.0363(3)
O8 O 0.0936(4) 0.7585(5) 1.0393(3)
O9 O 0.1288(4) 0.5593(4) 1.2051(3)
O10 O -0.0463(3) 0.3994(3) 1.2794(3)
O11 O 0.2307(3) 0.4682(3) 0.6742(3)
O12 O 0.3636(3) 0.3096(3) 0.7470(3)
O13 O 0.5912(3) 0.3435(4) 0.7584(3)
O14 O 0.3125(4) 0.4357(4) 0.3277(3)
O15 O 0.4592(4) 0.2583(4) 0.4200(3)
O16 O 0.6841(4) 0.3041(4) 0.4178(3)
C1A C -0.2496(5) 0.3687(5) 1.1736(4)
C2A C -0.2090(5) 0.2253(5) 1.1600(4)
H1A H -0.2313 0.1644 1.2035
C3A C -0.2787(5) 0.2834(5) 1.0972(4)
H2A H -0.3327 0.2490 1.1077
C4A C -0.1447(5) 0.2509(5) 1.0190(4)
C5A C -0.3596(4) 0.4454(5) 1.0689(4)
H3A H -0.4090 0.4202 1.0566
H4A H -0.3854 0.4772 1.1066
C6A C -0.2663(6) 0.3453(5) 0.9302(4)
H5A H -0.3304 0.3347 0.9410
H6A H -0.2373 0.3148 0.8923
C7A C -0.2861(4) 0.5940(5) 0.9826(4)
C8A C -0.3202(5) 0.5167(5) 0.9036(4)
H7A H -0.3819 0.5152 0.8917
C9A C -0.2786(5) 0.6118(5) 0.8408(4)
H8A H -0.3206 0.6555 0.7994
C10A C -0.1890(5) 0.4841(6) 0.8245(4)
C11A C -0.2394(5) 0.7484(5) 0.8713(4)
H9A H -0.2604 0.7686 0.9182
H10A H -0.2730 0.7887 0.8222
C12A C -0.1454(5) 0.6438(6) 0.7259(4)
H11A H -0.1124 0.6079 0.6940
H12A H -0.1855 0.6932 0.6873
C13A C -0.0953(5) 0.7848(5) 0.8914(4)
C14A C -0.1047(5) 0.7772(5) 0.7599(4)
H13A H -0.1397 0.8257 0.7143
C15A C -0.0123(5) 0.8079(5) 0.7581(4)
H14A H -0.0021 0.8710 0.7104
C16A C 0.0076(5) 0.6684(5) 0.7365(4)
C17A C 0.0509(5) 0.8518(5) 0.8649(5)
H15A H 0.0218 0.8717 0.9102
H16A H 0.0694 0.9089 0.8143
C18A C 0.1475(4) 0.7421(5) 0.7242(4)
H17A H 0.1578 0.8085 0.6865
H18A H 0.1716 0.7039 0.6917
N1A N -0.1953(4) 0.2885(4) 1.2008(3)
N2A N -0.2994(4) 0.3693(4) 1.1134(3)
N3A N -0.1298(4) 0.2100(4) 1.1051(3)
N4A N -0.2275(4) 0.3002(5) 1.0121(3)
N5A N -0.3195(4) 0.5154(4) 0.9879(3)
N6A N -0.2598(4) 0.6498(4) 0.9003(3)
N7A N -0.2572(4) 0.4455(4) 0.8860(3)
N8A N -0.1983(4) 0.5819(4) 0.7977(3)
N9A N -0.1455(4) 0.7629(4) 0.8460(3)
N10A N -0.0137(4) 0.8098(4) 0.8419(3)
N11A N -0.0808(4) 0.6896(4) 0.7470(3)
N12A N 0.0518(4) 0.7336(4) 0.7464(3)
O5A O -0.2550(3) 0.4312(3) 1.1994(3)
O6A O -0.2796(3) 0.6120(3) 1.0461(3)
O7A O -0.1173(4) 0.7861(4) 0.9637(3)
O8A O -0.0936(4) 0.2415(5) 0.9607(3)
O9A O -0.1288(4) 0.4407(4) 0.7949(3)
O10A O 0.0463(3) 0.6006(3) 0.7206(3)
C19A C 0.7881(4) 0.5399(5) 0.3900(4)
C20A C 0.8354(4) 0.4963(5) 0.5253(4)
H19A H 0.8983 0.4719 0.5368
C21A C 0.8270(5) 0.6040(6) 0.4784(4)
H20A H 0.8850 0.6309 0.4705
C22A C 0.7360(5) 0.5571(5) 0.6099(4)
C23A C 0.7833(5) 0.7133(5) 0.3254(4)
H21A H 0.7985 0.7061 0.2709
H22A H 0.8248 0.7558 0.3261
C24A C 0.7280(6) 0.7310(5) 0.5187(5)
H23A H 0.7102 0.7355 0.5742
H24A H 0.7781 0.7707 0.4887
C25A C 0.6283(4) 0.7430(5) 0.2913(4)
C26A C 0.6617(5) 0.8170(5) 0.3736(4)
H25A H 0.6983 0.8718 0.3533
C27A C 0.5650(5) 0.8493(5) 0.3508(4)
H26A H 0.5559 0.9188 0.3170
C28A C 0.5657(5) 0.7717(5) 0.5028(4)
C29A C 0.4776(4) 0.8162(5) 0.2515(4)
H27A H 0.4971 0.7989 0.2026
H28A H 0.4606 0.8846 0.2279
C30A C 0.4191(5) 0.8417(5) 0.4495(4)
H29A H 0.4049 0.8381 0.5084
H30A H 0.4060 0.9079 0.4094
C31A C 0.3705(5) 0.6934(5) 0.2891(4)
C32A C 0.3338(5) 0.8020(5) 0.3543(4)
H31A H 0.3138 0.8697 0.3222
C33A C 0.2558(4) 0.7368(5) 0.3782(4)
H32A H 0.1987 0.7736 0.3580
C34A C 0.3098(5) 0.7207(5) 0.5055(4)
C35A C 0.7684(5) 0.3861(5) 0.6766(4)
H33A H 0.8286 0.3531 0.6853
H34A H 0.7442 0.3948 0.7293
C36A C 0.8203(5) 0.3683(5) 0.4745(4)
H35A H 0.8770 0.3400 0.4996
H36A H 0.8269 0.3685 0.4168
N13A N 0.8058(4) 0.4647(4) 0.4657(3)
N14A N 0.7974(4) 0.6223(4) 0.3954(3)
N15A N 0.7764(4) 0.4779(4) 0.6060(3)
N16A N 0.7583(4) 0.6348(4) 0.5348(4)
N17A N 0.6935(4) 0.7570(4) 0.3273(3)
N18A N 0.5527(4) 0.7957(4) 0.3018(3)
N19A N 0.6528(4) 0.7678(5) 0.4672(4)
N20A N 0.5122(4) 0.8171(4) 0.4363(3)
N21A N 0.3992(4) 0.7665(4) 0.3007(3)
N22A N 0.2888(4) 0.6736(4) 0.3355(3)
N23A N 0.3598(4) 0.7834(4) 0.4380(3)
N24A N 0.2503(4) 0.6901(4) 0.4729(3)
O11A O 0.7693(3) 0.5318(3) 0.3258(3)
O12A O 0.6364(3) 0.6904(3) 0.2530(3)
O13A O 0.4088(3) 0.6565(4) 0.2416(3)
O14A O 0.6875(4) 0.5643(4) 0.6723(3)
O15A O 0.5408(4) 0.7417(4) 0.5800(3)
O16A O 0.3159(4) 0.6959(4) 0.5822(3)
O1A O -0.4360(3) 0.6338(4) 1.1425(3)
O2A O -0.2392(3) 0.7401(3) 1.1096(3)
O3A O -0.3960(3) 0.4831(4) 1.3030(3)
O4A O -0.1284(3) 0.5653(4) 1.1645(3)
Tb1A Tb -0.29133(2) 0.58626(2) 1.192858(18)
Tb1A_2 Tb 0.70867(2) 0.58626(2) 0.192858(18)
O11A_2 O -0.2307(3) 0.5318(3) 1.3258(3)
O12A_2 O -0.3636(3) 0.6904(3) 1.2530(3)
Cl2 Cl -0.01223(18) 0.2586(2) 0.6528(2)
Cl3 Cl -0.1241(2) 0.0293(2) 0.6979(3)
Cl4 Cl 0.14924(19) 0.0343(2) 0.6631(3)
Cl5 Cl 0.0086(6) 0.1788(5) 0.4630(3)
Cd1 Cd 0.00544(5) 0.11968(5) 0.61643(5)
Cl1 Cl 0.51200(16) 0.69907(19) 0.95462(16)
loop_
_geom_bond_atom_site_label_1
_geom_bond_atom_site_label_2
_geom_bond_site_symmetry_1
_geom_bond_site_symmetry_2
O1 Tb1 1_555 1_555
O2 Tb1 1_555 1_555
O3 Tb1 1_555 1_555
O4 Tb1 1_555 1_555
Tb1 O5 1_555 1_555
C1 N1 1_555 1_555
C2 H1 1_555 1_555
C3 C2 1_555 1_555
H2 C3 1_555 1_555
C4 N3 1_555 1_555
C5 H3 1_555 1_555
H4 C5 1_555 1_555
C6 H5 1_555 1_555
H6 C6 1_555 1_555
C7 N5 1_555 1_555
C8 H7 1_555 1_555
C9 C8 1_555 1_555
H8 C9 1_555 1_555
C10 N7 1_555 1_555
C11 H9 1_555 1_555
H10 C11 1_555 1_555
C12 H11 1_555 1_555
H12 C12 1_555 1_555
C13 N9 1_555 1_555
C14 H13 1_555 1_555
C15 C14 1_555 1_555
H14 C15 1_555 1_555
C16 N11 1_555 1_555
C17 H15 1_555 1_555
H16 C17 1_555 1_555
C18 H17 1_555 1_555
H18 C18 1_555 1_555
C19 N13 1_555 1_555
C20 H19 1_555 1_555
C21 C20 1_555 1_555
H20 C21 1_555 1_555
C22 N15 1_555 1_555
C23 H21 1_555 1_555
H22 C23 1_555 1_555
C24 H23 1_555 1_555
H24 C24 1_555 1_555
C25 N17 1_555 1_555
C26 H25 1_555 1_555
C27 C26 1_555 1_555
H26 C27 1_555 1_555
C28 N19 1_555 1_555
C29 H27 1_555 1_555
H28 C29 1_555 1_555
C30 H29 1_555 1_555
H30 C30 1_555 1_555
C31 N21 1_555 1_555
C32 H31 1_555 1_555
C33 C32 1_555 1_555
H32 C33 1_555 1_555
C34 N23 1_555 1_555
C35 H33 1_555 1_555
H34 C35 1_555 1_555
C36 H35 1_555 1_555
H36 C36 1_555 1_555
N1 C2 1_555 1_555
N2 C1 1_555 1_555
N3 C2 1_555 1_555
N4 C3 1_555 1_555
N5 C5 1_555 1_555
N6 C7 1_555 1_555
N7 C6 1_555 1_555
N8 C9 1_555 1_555
N9 C11 1_555 1_555
N10 C13 1_555 1_555
N11 C12 1_555 1_555
N12 C15 1_555 1_555
N13 C20 1_555 1_555
N14 C19 1_555 1_555
N15 C20 1_555 1_555
N16 C21 1_555 1_555
N17 C23 1_555 1_555
N18 C25 1_555 1_555
N19 C24 1_555 1_555
N20 C27 1_555 1_555
N21 C29 1_555 1_555
N22 C31 1_555 1_555
N23 C30 1_555 1_555
N24 C33 1_555 1_555
O5 C1 1_555 1_555
O6 Tb1 1_555 1_555
O7 C13 1_555 1_555
O8 C4 1_555 1_555
O9 C10 1_555 1_555
O10 C16 1_555 1_555
O11 Tb1 1_555 1_555
O12 Tb1 1_555 1_555
O13 C31 1_555 1_555
O14 C22 1_555 1_555
O15 C28 1_555 1_555
O16 C34 1_555 1_555
Cl2 Cd1 1_555 1_555
Cl3 Cd1 1_555 1_555
Cl4 Cd1 1_555 1_555
Cl5 Cd1 1_555 1_555
C1A N1A 1_555 1_555
C2A H1A 1_555 1_555
C3A C2A 1_555 1_555
H2A C3A 1_555 1_555
C4A N3A 1_555 1_555
C5A H3A 1_555 1_555
H4A C5A 1_555 1_555
C6A H5A 1_555 1_555
H6A C6A 1_555 1_555
C7A N5A 1_555 1_555
C8A H7A 1_555 1_555
C9A C8A 1_555 1_555
H8A C9A 1_555 1_555
C10A N7A 1_555 1_555
C11A H9A 1_555 1_555
H10A C11A 1_555 1_555
C12A H11A 1_555 1_555
H12A C12A 1_555 1_555
C13A N9A 1_555 1_555
C14A H13A 1_555 1_555
C15A C14A 1_555 1_555
H14A C15A 1_555 1_555
C16A N11A 1_555 1_555
C17A N3 1_555 1_555
H15A C17A 1_555 1_555
H16A C17A 1_555 1_555
C18A N1 1_555 1_555
H17A C18A 1_555 1_555
H18A C18A 1_555 1_555
N1A C18 1_555 1_555
N2A C1A 1_555 1_555
N3A C17 1_555 1_555
N4A C3A 1_555 1_555
N5A C5A 1_555 1_555
N6A C7A 1_555 1_555
N7A C6A 1_555 1_555
N8A C9A 1_555 1_555
N9A C11A 1_555 1_555
N10A C13A 1_555 1_555
N11A C12A 1_555 1_555
N12A C15A 1_555 1_555
O5A C1A 1_555 1_555
O6A C7A 1_555 1_555
O7A C13A 1_555 1_555
O8A C4A 1_555 1_555
O9A C10A 1_555 1_555
O10A C16A 1_555 1_555
C19A N13A 1_555 1_555
C20A H19A 1_555 1_555
C21A C20A 1_555 1_555
H20A C21A 1_555 1_555
C22A N15A 1_555 1_555
C23A H21A 1_555 1_555
H22A C23A 1_555 1_555
C24A H23A 1_555 1_555
H24A C24A 1_555 1_555
C25A N17A 1_555 1_555
C26A H25A 1_555 1_555
C27A C26A 1_555 1_555
H26A C27A 1_555 1_555
C28A N19A 1_555 1_555
C29A H27A 1_555 1_555
H28A C29A 1_555 1_555
C30A H29A 1_555 1_555
H30A C30A 1_555 1_555
C31A N21A 1_555 1_555
C32A H31A 1_555 1_555
C33A C32A 1_555 1_555
H32A C33A 1_555 1_555
C34A N23A 1_555 1_555
C35A N22 1_555 1_555
H33A C35A 1_555 1_555
H34A C35A 1_555 1_555
C36A N24 1_555 1_555
H35A C36A 1_555 1_555
H36A C36A 1_555 1_555
N13A C20A 1_555 1_555
N14A C19A 1_555 1_555
N15A C20A 1_555 1_555
N16A C21A 1_555 1_555
N17A C23A 1_555 1_555
N18A C25A 1_555 1_555
N19A C24A 1_555 1_555
N20A C27A 1_555 1_555
N21A C29A 1_555 1_555
N22A C35 1_555 1_555
N23A C30A 1_555 1_555
N24A C36 1_555 1_555
O11A C19A 1_555 1_555
O12A C25A 1_555 1_555
O13A C31A 1_555 1_555
O14A C22A 1_555 1_555
O15A C28A 1_555 1_555
O16A C34A 1_555 1_555
O1A Tb1A 1_555 1_555
O2A Tb1A 1_555 1_555
O3A Tb1A 1_555 1_555
O4A Tb1A 1_555 1_555
Tb1A O5A 1_555 1_555
Tb1A_2 O11A 1_555 1_555
O11A_2 Tb1A 1_555 1_555
O12A_2 Tb1A 1_555 1_555
C3 N2 1_555 1_555
C4 N4 1_555 1_555
C5 N2 1_555 1_555
C6 N4 1_555 1_555
C7 O6 1_555 1_555
C8 N5 1_555 1_555
C8 N7 1_555 1_555
C9 N6 1_555 1_555
C10 N8 1_555 1_555
C11 N6 1_555 1_555
C12 N8 1_555 1_555
C14 N9 1_555 1_555
C14 N11 1_555 1_555
C15 N10 1_555 1_555
C16 N12 1_555 1_555
C17 N10 1_555 1_555
C18 N12 1_555 1_555
C19 O11 1_555 1_555
C21 N14 1_555 1_555
C22 N16 1_555 1_555
C23 N14 1_555 1_555
C24 N16 1_555 1_555
C25 O12 1_555 1_555
C26 N17 1_555 1_555
C26 N19 1_555 1_555
C27 N18 1_555 1_555
C28 N20 1_555 1_555
C29 N18 1_555 1_555
C30 N20 1_555 1_555
C32 N21 1_555 1_555
C32 N23 1_555 1_555
C33 N22 1_555 1_555
C34 N24 1_555 1_555
C35 N15 1_555 1_555
C36 N13 1_555 1_555
C2A N1A 1_555 1_555
C2A N3A 1_555 1_555
C3A N2A 1_555 1_555
C4A N4A 1_555 1_555
C5A N2A 1_555 1_555
C6A N4A 1_555 1_555
C8A N5A 1_555 1_555
C8A N7A 1_555 1_555
C9A N6A 1_555 1_555
C10A N8A 1_555 1_555
C11A N6A 1_555 1_555
C12A N8A 1_555 1_555
C14A N9A 1_555 1_555
C14A N11A 1_555 1_555
C15A N10A 1_555 1_555
C16A N12A 1_555 1_555
C17A N10A 1_555 1_555
C18A N12A 1_555 1_555
O6A Tb1A 1_555 1_555
C21A N14A 1_555 1_555
C22A N16A 1_555 1_555
C23A N14A 1_555 1_555
C24A N16A 1_555 1_555
C26A N17A 1_555 1_555
C26A N19A 1_555 1_555
C27A N18A 1_555 1_555
C28A N20A 1_555 1_555
C29A N18A 1_555 1_555
C30A N20A 1_555 1_555
C31A N22A 1_555 1_555
C32A N21A 1_555 1_555
C32A N23A 1_555 1_555
C33A N22A 1_555 1_555
C33A N24A 1_555 1_555
C34A N24A 1_555 1_555
C35A N15A 1_555 1_555
C36A N13A 1_555 1_555
O12A Tb1A_2 1_555 1_555

#END
