
#######################################################################
#
#                 Cambridge Crystallographic Data Centre
#                                CCDC 
#
#######################################################################
#
# If this CIF has been generated from an entry in the Cambridge 
# Structural Database, then it will include bibliographic, chemical, 
# crystal, experimental, refinement or atomic coordinate data resulting 
# from the CCDC's data processing and validation procedures.
#
#######################################################################

data_OGAMAM
_symmetry_cell_setting           triclinic
_symmetry_space_group_name_H-M   'P -1'
_symmetry_Int_Tables_number      2
_space_group_name_Hall           '-P 1'
loop_
_symmetry_equiv_pos_site_id
_symmetry_equiv_pos_as_xyz
1 x,y,z
2 -x,-y,-z
_cell_length_a                   15.136(3)
_cell_length_b                   15.719(3)
_cell_length_c                   17.189(3)
_cell_angle_alpha                64.678(6)
_cell_angle_beta                 80.911(6)
_cell_angle_gamma                81.763(6)
_cell_volume                     3637.15
loop_
_atom_site_label
_atom_site_type_symbol
_atom_site_fract_x
_atom_site_fract_y
_atom_site_fract_z
Cl3 Cl -0.12173(10) -0.46764(11) -0.30579(15)
Cl4 Cl -0.01139(9) -0.23998(12) -0.34765(12)
Cl5 Cl 0.14942(10) -0.46509(13) -0.33154(14)
Cl6 Cl -0.0045(16) -0.3334(10) -0.5374(3)
Cd1 Cd 0.00774(3) -0.37872(3) -0.38309(3)
O1 O 0.43618(16) -0.1329(2) -0.14293(15)
O2 O 0.23853(18) -0.23790(19) -0.11164(16)
O3 O 0.39666(16) 0.02015(19) -0.30341(16)
O4 O 0.12945(16) -0.0649(2) -0.16502(16)
Gd1 Gd 0.291285(10) -0.084063(11) -0.194112(9)
C1 C 0.2117(2) -0.0370(3) -0.39178(19)
C2 C 0.1642(2) 0.0048(3) -0.5265(2)
H1 H 0.1014 0.0294 -0.5380
C3 C 0.1731(2) -0.1032(3) -0.4791(2)
H2 H 0.1156 -0.1305 -0.4712
C4 C 0.2651(2) -0.0566(3) -0.6104(2)
C5 C 0.2158(2) -0.2113(2) -0.3266(2)
H3 H 0.2005 -0.2057 -0.2713
H4 H 0.1748 -0.2531 -0.3285
C6 C 0.2730(3) -0.2279(3) -0.5202(2)
H5 H 0.2919 -0.2307 -0.5763
H6 H 0.2232 -0.2681 -0.4918
C7 C 0.3717(2) -0.2402(2) -0.29228(19)
C8 C 0.3377(2) -0.3145(2) -0.3747(2)
H7 H 0.3015 -0.3692 -0.3544
C9 C 0.4350(2) -0.3454(2) -0.3527(2)
H8 H 0.4444 -0.4145 -0.3189
C10 C 0.4350(2) -0.2699(3) -0.5028(2)
C11 C 0.5214(2) -0.3136(2) -0.25216(19)
H9 H 0.5017 -0.2950 -0.2041
H10 H 0.5378 -0.3819 -0.2274
C12 C 0.5811(2) -0.3414(3) -0.4495(2)
H11 H 0.5955 -0.3385 -0.5081
H12 H 0.5939 -0.4071 -0.4087
C13 C 0.6296(2) -0.1939(3) -0.2889(2)
C14 C 0.6650(2) -0.2999(3) -0.3540(2)
H13 H 0.6848 -0.3673 -0.3216
C15 C 0.7436(2) -0.2362(2) -0.3786(2)
H14 H 0.8000 -0.2738 -0.3573
C16 C 0.6898(2) -0.2200(2) -0.5051(2)
C17 C 0.7684(2) -0.1158(3) -0.3230(2)
H15 H 0.8282 -0.1495 -0.3142
H16 H 0.7445 -0.1076 -0.2700
C18 C 0.8207(2) -0.1338(3) -0.5247(2)
H17 H 0.8270 -0.1332 -0.5826
H18 H 0.8774 -0.1618 -0.4999
C19 C 0.2478(2) 0.1326(2) -0.1734(2)
C20 C 0.2066(2) 0.2742(2) -0.1600(2)
H19 H 0.2291 0.3347 -0.2033
C21 C 0.2749(2) 0.2156(2) -0.0961(2)
H20 H 0.3285 0.2501 -0.1066
C22 C 0.1438(2) 0.2487(3) -0.0194(2)
C23 C 0.3592(2) 0.0557(3) -0.0692(2)
H21 H 0.4076 0.0808 -0.0558
H22 H 0.3860 0.0250 -0.1075
C24 C 0.2642(3) 0.1550(3) 0.0698(2)
H23 H 0.2335 0.1842 0.1081
H24 H 0.3277 0.1671 0.0596
C25 C 0.2847(2) -0.0916(3) 0.0159(2)
C26 C 0.3201(2) -0.0164(3) 0.0961(2)
H25 H 0.3816 -0.0152 0.1082
C27 C 0.2784(2) -0.1102(3) 0.1571(2)
H26 H 0.3208 -0.1538 0.1980
C28 C 0.1891(2) 0.0141(3) 0.1763(2)
C29 C 0.2419(2) -0.2455(2) 0.1257(2)
H27 H 0.2619 -0.2636 0.0774
H28 H 0.2771 -0.2862 0.1736
C30 C 0.1474(2) -0.1462(3) 0.2748(2)
H29 H 0.1150 -0.1123 0.3085
H30 H 0.1880 -0.1963 0.3119
C31 C 0.0970(2) -0.2837(2) 0.1074(2)
C32 C 0.1053(2) -0.2763(2) 0.23899(19)
H31 H 0.1398 -0.3247 0.2850
C33 C 0.0129(2) -0.3077(2) 0.2403(2)
H32 H 0.0031 -0.3710 0.2873
C34 C -0.0069(2) -0.1698(3) 0.26339(19)
C35 C -0.0492(2) -0.3502(3) 0.1334(2)
H33 H -0.0204 -0.3697 0.0876
H34 H -0.0670 -0.4072 0.1840
C36 C -0.1443(2) -0.2425(3) 0.2756(2)
H35 H -0.1686 -0.2041 0.3077
H36 H -0.1546 -0.3084 0.3138
N1 N 0.19464(18) 0.0364(2) -0.46683(16)
N2 N 0.20174(19) -0.1182(2) -0.39689(17)
N3 N 0.22295(19) 0.0234(2) -0.60609(17)
N4 N 0.2410(2) -0.1317(2) -0.53469(18)
N5 N 0.30561(19) -0.2538(2) -0.32953(17)
N6 N 0.44674(19) -0.2933(2) -0.30333(17)
N7 N 0.3474(2) -0.2657(2) -0.46753(19)
N8 N 0.48701(19) -0.3148(2) -0.43653(18)
N9 N 0.60012(18) -0.2655(2) -0.30145(17)
N10 N 0.71145(19) -0.1730(2) -0.33584(17)
N11 N 0.63898(19) -0.2824(2) -0.43802(17)
N12 N 0.75062(19) -0.1921(2) -0.47189(16)
N13 N 0.19269(19) 0.2125(2) -0.19991(17)
N14 N 0.29755(19) 0.1315(2) -0.11358(17)
N15 N 0.12842(19) 0.2890(2) -0.10411(18)
N16 N 0.2262(2) 0.1991(2) -0.01175(18)
N17 N 0.31847(18) -0.0152(2) 0.01116(16)
N18 N 0.26014(18) -0.1485(2) 0.09900(16)
N19 N 0.2573(2) 0.0536(2) 0.11317(18)
N20 N 0.19958(19) -0.0821(2) 0.20197(17)
N21 N 0.14839(19) -0.2620(2) 0.15308(17)
N22 N 0.01590(18) -0.3075(2) 0.15627(17)
N23 N 0.08323(18) -0.1890(2) 0.25130(17)
N24 N -0.04907(18) -0.2343(2) 0.25388(17)
O5 O 0.23099(16) -0.02899(18) -0.32778(14)
O6 O 0.36412(15) -0.18942(18) -0.25381(14)
O7 O 0.59090(18) -0.1560(2) -0.24268(16)
O8 O 0.31299(18) -0.0611(2) -0.67317(16)
O9 O 0.4613(2) -0.2414(2) -0.57920(17)
O10 O 0.68501(18) -0.19577(19) -0.58179(15)
O11 O 0.25302(17) 0.07066(17) -0.20018(15)
O12 O 0.27844(16) -0.10910(18) -0.04746(14)
O13 O 0.11799(17) -0.2833(2) 0.03534(16)
O14 O 0.0923(2) 0.2577(2) 0.03961(18)
O15 O 0.12998(18) 0.0577(2) 0.20583(17)
O16 O -0.04447(17) -0.10261(18) 0.27961(15)
C1A C 0.7883(2) 0.0370(3) -0.60822(19)
C2A C 0.8358(2) -0.0048(3) -0.4735(2)
H1A H 0.8986 -0.0294 -0.4620
C3A C 0.8269(2) 0.1032(3) -0.5209(2)
H2A H 0.8844 0.1305 -0.5288
C4A C 0.7349(2) 0.0566(3) -0.3896(2)
C5A C 0.7842(2) 0.2113(2) -0.6734(2)
H3A H 0.7995 0.2057 -0.7287
H4A H 0.8252 0.2531 -0.6715
C6A C 0.7270(3) 0.2279(3) -0.4798(2)
H5A H 0.7081 0.2307 -0.4237
H6A H 0.7768 0.2681 -0.5082
C7A C 0.6283(2) 0.2402(2) -0.70772(19)
C8A C 0.6623(2) 0.3145(2) -0.6253(2)
H7A H 0.6985 0.3692 -0.6456
C9A C 0.5650(2) 0.3454(2) -0.6473(2)
H8A H 0.5556 0.4145 -0.6811
C10A C 0.5650(2) 0.2699(3) -0.4972(2)
C11A C 0.4786(2) 0.3136(2) -0.74784(19)
H9A H 0.4983 0.2950 -0.7959
H10A H 0.4622 0.3819 -0.7726
C12A C 0.4189(2) 0.3414(3) -0.5505(2)
H11A H 0.4045 0.3385 -0.4919
H12A H 0.4061 0.4071 -0.5913
C13A C 0.3704(2) 0.1939(3) -0.7111(2)
C14A C 0.3350(2) 0.2999(3) -0.6460(2)
H13A H 0.3152 0.3673 -0.6784
C15A C 0.2564(2) 0.2362(2) -0.6214(2)
H14A H 0.2000 0.2738 -0.6427
C16A C 0.3102(2) 0.2200(2) -0.4949(2)
C17A C 0.2316(2) 0.1158(3) -0.6770(2)
H15A H 0.1718 0.1495 -0.6858
H16A H 0.2555 0.1076 -0.7300
C18A C 0.1793(2) 0.1338(3) -0.4753(2)
H17A H 0.1730 0.1332 -0.4174
H18A H 0.1226 0.1618 -0.5001
N1A N 0.80536(18) -0.0364(2) -0.53317(16)
N2A N 0.79826(19) 0.1182(2) -0.60311(17)
N3A N 0.77705(19) -0.0234(2) -0.39391(17)
N4A N 0.7590(2) 0.1317(2) -0.46531(18)
N5A N 0.69439(19) 0.2538(2) -0.67047(17)
N6A N 0.55326(19) 0.2933(2) -0.69667(17)
N7A N 0.6526(2) 0.2657(2) -0.53247(19)
N8A N 0.51299(19) 0.3148(2) -0.56347(18)
N9A N 0.39988(18) 0.2655(2) -0.69855(17)
N10A N 0.28855(19) 0.1730(2) -0.66416(17)
N11A N 0.36102(19) 0.2824(2) -0.56198(17)
N12A N 0.24938(19) 0.1921(2) -0.52811(16)
O5A O 0.76901(16) 0.02899(18) -0.67222(14)
O6A O 0.63588(15) 0.18942(18) -0.74619(14)
O7A O 0.40910(18) 0.1560(2) -0.75732(16)
O8A O 0.68701(18) 0.0611(2) -0.32683(16)
O9A O 0.5387(2) 0.2414(2) -0.42080(17)
O10A O 0.31499(18) 0.19577(19) -0.41821(15)
C19A C -0.2478(2) -0.1326(2) 0.1734(2)
C20A C -0.2066(2) -0.2742(2) 0.1600(2)
H19A H -0.2291 -0.3347 0.2033
C21A C -0.2749(2) -0.2156(2) 0.0961(2)
H20A H -0.3285 -0.2501 0.1066
C22A C -0.1438(2) -0.2487(3) 0.0194(2)
C23A C -0.3592(2) -0.0557(3) 0.0692(2)
H21A H -0.4076 -0.0808 0.0558
H22A H -0.3860 -0.0250 0.1075
C24A C -0.2642(3) -0.1550(3) -0.0698(2)
H23A H -0.2335 -0.1842 -0.1081
H24A H -0.3277 -0.1671 -0.0596
C25A C -0.2847(2) 0.0916(3) -0.0159(2)
C26A C -0.3201(2) 0.0164(3) -0.0961(2)
H25A H -0.3816 0.0152 -0.1082
C27A C -0.2784(2) 0.1102(3) -0.1571(2)
H26A H -0.3208 0.1538 -0.1980
C28A C -0.1891(2) -0.0141(3) -0.1763(2)
C29A C -0.2419(2) 0.2455(2) -0.1257(2)
H27A H -0.2619 0.2636 -0.0774
H28A H -0.2771 0.2862 -0.1736
C30A C -0.1474(2) 0.1462(3) -0.2748(2)
H29A H -0.1150 0.1123 -0.3085
H30A H -0.1880 0.1963 -0.3119
C31A C -0.0970(2) 0.2837(2) -0.1074(2)
C32A C -0.1053(2) 0.2763(2) -0.23899(19)
H31A H -0.1398 0.3247 -0.2850
C33A C -0.0129(2) 0.3077(2) -0.2403(2)
H32A H -0.0031 0.3710 -0.2873
C34A C 0.0069(2) 0.1698(3) -0.26339(19)
C35A C 0.0492(2) 0.3502(3) -0.1334(2)
H33A H 0.0204 0.3697 -0.0876
H34A H 0.0670 0.4072 -0.1840
C36A C 0.1443(2) 0.2425(3) -0.2756(2)
H35A H 0.1686 0.2041 -0.3077
H36A H 0.1546 0.3084 -0.3138
N13A N -0.19269(19) -0.2125(2) 0.19991(17)
N14A N -0.29755(19) -0.1315(2) 0.11358(17)
N15A N -0.12842(19) -0.2890(2) 0.10411(18)
N16A N -0.2262(2) -0.1991(2) 0.01175(18)
N17A N -0.31847(18) 0.0152(2) -0.01116(16)
N18A N -0.26014(18) 0.1485(2) -0.09900(16)
N19A N -0.2573(2) -0.0536(2) -0.11317(18)
N20A N -0.19958(19) 0.0821(2) -0.20197(17)
N21A N -0.14839(19) 0.2620(2) -0.15308(17)
N22A N -0.01590(18) 0.3075(2) -0.15627(17)
N23A N -0.08323(18) 0.1890(2) -0.25130(17)
N24A N 0.04907(18) 0.2343(2) -0.25388(17)
O11A O -0.25302(17) -0.07066(17) 0.20018(15)
O12A O -0.27844(16) 0.10910(18) 0.04746(14)
O13A O -0.11799(17) 0.2833(2) -0.03534(16)
O14A O -0.0923(2) -0.2577(2) -0.03961(18)
O15A O -0.12998(18) -0.0577(2) -0.20583(17)
O16A O 0.04447(17) 0.10261(18) -0.27961(15)
O1A O -0.43618(16) 0.1329(2) 0.14293(15)
O2A O -0.23853(18) 0.23790(19) 0.11164(16)
O3A O -0.39666(16) -0.02015(19) 0.30341(16)
O4A O -0.12945(16) 0.0649(2) 0.16502(16)
Gd1A Gd -0.291285(10) 0.084063(11) 0.194112(9)
Gd1A_2 Gd 0.708715(10) 0.084063(11) -0.805888(9)
O5A_2 O -0.23099(16) 0.02899(18) 0.32778(14)
O6A_2 O -0.36412(15) 0.18942(18) 0.25381(14)
Cl1 Cl 0.51207(8) 0.19725(10) -0.04448(8)
Cl2? Cl 0.0425(6) -0.2950(10) -0.5341(6)
loop_
_geom_bond_atom_site_label_1
_geom_bond_atom_site_label_2
_geom_bond_site_symmetry_1
_geom_bond_site_symmetry_2
Cl3 Cd1 1_555 1_555
Cl4 Cd1 1_555 1_555
Cl5 Cd1 1_555 1_555
Cl6 Cd1 1_555 1_555
O1 Gd1 1_555 1_555
O2 Gd1 1_555 1_555
O3 Gd1 1_555 1_555
O4 Gd1 1_555 1_555
Gd1 O5 1_555 1_555
C1 N1 1_555 1_555
C2 H1 1_555 1_555
C3 C2 1_555 1_555
H2 C3 1_555 1_555
C4 N3 1_555 1_555
C5 H3 1_555 1_555
H4 C5 1_555 1_555
C6 H5 1_555 1_555
H6 C6 1_555 1_555
C7 N5 1_555 1_555
C8 H7 1_555 1_555
C9 C8 1_555 1_555
H8 C9 1_555 1_555
C10 N7 1_555 1_555
C11 H9 1_555 1_555
H10 C11 1_555 1_555
C12 H11 1_555 1_555
H12 C12 1_555 1_555
C13 N9 1_555 1_555
C14 H13 1_555 1_555
C15 C14 1_555 1_555
H14 C15 1_555 1_555
C16 N11 1_555 1_555
C17 H15 1_555 1_555
H16 C17 1_555 1_555
C18 H17 1_555 1_555
H18 C18 1_555 1_555
C19 N13 1_555 1_555
C20 H19 1_555 1_555
C21 C20 1_555 1_555
H20 C21 1_555 1_555
C22 N15 1_555 1_555
C23 H21 1_555 1_555
H22 C23 1_555 1_555
C24 H23 1_555 1_555
H24 C24 1_555 1_555
C25 N17 1_555 1_555
C26 H25 1_555 1_555
C27 C26 1_555 1_555
H26 C27 1_555 1_555
C28 N19 1_555 1_555
C29 H27 1_555 1_555
H28 C29 1_555 1_555
C30 H29 1_555 1_555
H30 C30 1_555 1_555
C31 N21 1_555 1_555
C32 H31 1_555 1_555
C33 C32 1_555 1_555
H32 C33 1_555 1_555
C34 N23 1_555 1_555
C35 H33 1_555 1_555
H34 C35 1_555 1_555
C36 H35 1_555 1_555
H36 C36 1_555 1_555
N1 C2 1_555 1_555
N2 C1 1_555 1_555
N3 C2 1_555 1_555
N4 C3 1_555 1_555
N5 C5 1_555 1_555
N6 C7 1_555 1_555
N7 C6 1_555 1_555
N8 C9 1_555 1_555
N9 C11 1_555 1_555
N10 C13 1_555 1_555
N11 C12 1_555 1_555
N12 C15 1_555 1_555
N13 C20 1_555 1_555
N14 C19 1_555 1_555
N15 C20 1_555 1_555
N16 C21 1_555 1_555
N17 C23 1_555 1_555
N18 C25 1_555 1_555
N19 C24 1_555 1_555
N20 C27 1_555 1_555
N21 C29 1_555 1_555
N22 C31 1_555 1_555
N23 C30 1_555 1_555
N24 C33 1_555 1_555
O5 C1 1_555 1_555
O6 Gd1 1_555 1_555
O7 C13 1_555 1_555
O8 C4 1_555 1_555
O9 C10 1_555 1_555
O10 C16 1_555 1_555
O11 Gd1 1_555 1_555
O12 Gd1 1_555 1_555
O13 C31 1_555 1_555
O14 C22 1_555 1_555
O15 C28 1_555 1_555
O16 C34 1_555 1_555
C1A N1A 1_555 1_555
C2A H1A 1_555 1_555
C3A C2A 1_555 1_555
H2A C3A 1_555 1_555
C4A N3A 1_555 1_555
C5A H3A 1_555 1_555
H4A C5A 1_555 1_555
C6A H5A 1_555 1_555
H6A C6A 1_555 1_555
C7A N5A 1_555 1_555
C8A H7A 1_555 1_555
C9A C8A 1_555 1_555
H8A C9A 1_555 1_555
C10A N7A 1_555 1_555
C11A H9A 1_555 1_555
H10A C11A 1_555 1_555
C12A H11A 1_555 1_555
H12A C12A 1_555 1_555
C13A N9A 1_555 1_555
C14A H13A 1_555 1_555
C15A C14A 1_555 1_555
H14A C15A 1_555 1_555
C16A N11A 1_555 1_555
C17A N3 1_555 1_555
H15A C17A 1_555 1_555
H16A C17A 1_555 1_555
C18A N1 1_555 1_555
H17A C18A 1_555 1_555
H18A C18A 1_555 1_555
N1A C18 1_555 1_555
N2A C1A 1_555 1_555
N3A C17 1_555 1_555
N4A C3A 1_555 1_555
N5A C5A 1_555 1_555
N6A C7A 1_555 1_555
N7A C6A 1_555 1_555
N8A C9A 1_555 1_555
N9A C11A 1_555 1_555
N10A C13A 1_555 1_555
N11A C12A 1_555 1_555
N12A C15A 1_555 1_555
O5A C1A 1_555 1_555
O6A C7A 1_555 1_555
O7A C13A 1_555 1_555
O8A C4A 1_555 1_555
O9A C10A 1_555 1_555
O10A C16A 1_555 1_555
C19A N13A 1_555 1_555
C20A H19A 1_555 1_555
C21A C20A 1_555 1_555
H20A C21A 1_555 1_555
C22A N15A 1_555 1_555
C23A H21A 1_555 1_555
H22A C23A 1_555 1_555
C24A H23A 1_555 1_555
H24A C24A 1_555 1_555
C25A N17A 1_555 1_555
C26A H25A 1_555 1_555
C27A C26A 1_555 1_555
H26A C27A 1_555 1_555
C28A N19A 1_555 1_555
C29A H27A 1_555 1_555
H28A C29A 1_555 1_555
C30A H29A 1_555 1_555
H30A C30A 1_555 1_555
C31A N21A 1_555 1_555
C32A H31A 1_555 1_555
C33A C32A 1_555 1_555
H32A C33A 1_555 1_555
C34A N23A 1_555 1_555
C35A N15 1_555 1_555
H33A C35A 1_555 1_555
H34A C35A 1_555 1_555
C36A N13 1_555 1_555
H35A C36A 1_555 1_555
H36A C36A 1_555 1_555
N13A C36 1_555 1_555
N14A C19A 1_555 1_555
N15A C35 1_555 1_555
N16A C21A 1_555 1_555
N17A C23A 1_555 1_555
N18A C25A 1_555 1_555
N19A C24A 1_555 1_555
N20A C27A 1_555 1_555
N21A C29A 1_555 1_555
N22A C31A 1_555 1_555
N23A C30A 1_555 1_555
N24A C33A 1_555 1_555
O11A C19A 1_555 1_555
O12A C25A 1_555 1_555
O13A C31A 1_555 1_555
O14A C22A 1_555 1_555
O15A C28A 1_555 1_555
O16A C34A 1_555 1_555
O1A Gd1A 1_555 1_555
O2A Gd1A 1_555 1_555
O3A Gd1A 1_555 1_555
O4A Gd1A 1_555 1_555
Gd1A O11A 1_555 1_555
Gd1A_2 O5A 1_555 1_555
O5A_2 Gd1A 1_555 1_555
O6A_2 Gd1A 1_555 1_555
C3 N2 1_555 1_555
C4 N4 1_555 1_555
C5 N2 1_555 1_555
C6 N4 1_555 1_555
C7 O6 1_555 1_555
C8 N5 1_555 1_555
C8 N7 1_555 1_555
C9 N6 1_555 1_555
C10 N8 1_555 1_555
C11 N6 1_555 1_555
C12 N8 1_555 1_555
C14 N9 1_555 1_555
C14 N11 1_555 1_555
C15 N10 1_555 1_555
C16 N12 1_555 1_555
C17 N10 1_555 1_555
C18 N12 1_555 1_555
C19 O11 1_555 1_555
C21 N14 1_555 1_555
C22 N16 1_555 1_555
C23 N14 1_555 1_555
C24 N16 1_555 1_555
C25 O12 1_555 1_555
C26 N17 1_555 1_555
C26 N19 1_555 1_555
C27 N18 1_555 1_555
C28 N20 1_555 1_555
C29 N18 1_555 1_555
C30 N20 1_555 1_555
C32 N21 1_555 1_555
C32 N23 1_555 1_555
C33 N22 1_555 1_555
C34 N24 1_555 1_555
C35 N22 1_555 1_555
C36 N24 1_555 1_555
C2A N1A 1_555 1_555
C2A N3A 1_555 1_555
C3A N2A 1_555 1_555
C4A N4A 1_555 1_555
C5A N2A 1_555 1_555
C6A N4A 1_555 1_555
C8A N5A 1_555 1_555
C8A N7A 1_555 1_555
C9A N6A 1_555 1_555
C10A N8A 1_555 1_555
C11A N6A 1_555 1_555
C12A N8A 1_555 1_555
C14A N9A 1_555 1_555
C14A N11A 1_555 1_555
C15A N10A 1_555 1_555
C16A N12A 1_555 1_555
C17A N10A 1_555 1_555
C18A N12A 1_555 1_555
O6A Gd1A_2 1_555 1_555
C20A N13A 1_555 1_555
C20A N15A 1_555 1_555
C21A N14A 1_555 1_555
C22A N16A 1_555 1_555
C23A N14A 1_555 1_555
C24A N16A 1_555 1_555
C26A N17A 1_555 1_555
C26A N19A 1_555 1_555
C27A N18A 1_555 1_555
C28A N20A 1_555 1_555
C29A N18A 1_555 1_555
C30A N20A 1_555 1_555
C32A N21A 1_555 1_555
C32A N23A 1_555 1_555
C33A N22A 1_555 1_555
C34A N24A 1_555 1_555
C35A N22A 1_555 1_555
C36A N24A 1_555 1_555
O12A Gd1A 1_555 1_555

#END
