
#######################################################################
#
#                 Cambridge Crystallographic Data Centre
#                                CCDC 
#
#######################################################################
#
# If this CIF has been generated from an entry in the Cambridge 
# Structural Database, then it will include bibliographic, chemical, 
# crystal, experimental, refinement or atomic coordinate data resulting 
# from the CCDC's data processing and validation procedures.
#
#######################################################################

data_OGAMOA
_symmetry_cell_setting           triclinic
_symmetry_space_group_name_H-M   'P -1'
_symmetry_Int_Tables_number      2
_space_group_name_Hall           '-P 1'
loop_
_symmetry_equiv_pos_site_id
_symmetry_equiv_pos_as_xyz
1 x,y,z
2 -x,-y,-z
_cell_length_a                   15.1118(8)
_cell_length_b                   15.5851(8)
_cell_length_c                   17.0616(12)
_cell_angle_alpha                64.897(2)
_cell_angle_beta                 80.888(2)
_cell_angle_gamma                81.7570(10)
_cell_volume                     3579.8
loop_
_atom_site_label
_atom_site_type_symbol
_atom_site_fract_x
_atom_site_fract_y
_atom_site_fract_z
O1 O 1.36828(19) 0.0647(2) 0.66403(18)
O2 O 1.25998(19) 0.23603(19) 0.61283(18)
O3 O 1.06635(18) 0.1327(2) 0.64330(17)
O4 O 1.10498(18) -0.0174(2) 0.80194(18)
Y1 Y 1.20876(2) 0.08445(3) 0.69372(2)
C1 C 1.1283(2) 0.2401(3) 0.7922(2)
C2 C 1.0662(3) 0.3480(3) 0.8509(2)
H1 H 1.0566 0.4175 0.8170
C3 C 1.1640(3) 0.3157(3) 0.8730(2)
H2 H 1.2004 0.3707 0.8524
C4 C 1.0666(3) 0.2723(3) 1.0024(3)
C5 C 1.2853(2) 0.2112(3) 0.8248(2)
H3 H 1.2997 0.2048 0.7694
H4 H 1.3273 0.2530 0.8259
C6 C 1.2293(3) 0.2303(3) 1.0182(3)
H5 H 1.2797 0.2696 0.9887
H6 H 1.2113 0.2345 1.0743
C7 C 1.2886(2) 0.0375(3) 0.8894(2)
C8 C 1.3271(3) 0.1032(3) 0.9776(2)
H7 H 1.3852 0.1295 0.9705
C9 C 1.3351(2) -0.0060(3) 1.0251(2)
H8 H 1.3977 -0.0312 1.0371
C10 C 1.2344(3) 0.0576(3) 1.1095(3)
C11 C 1.3204(3) -0.1346(3) 0.9744(2)
H9 H 1.3272 -0.1350 0.9165
H10 H 1.3767 -0.1632 1.0002
C12 C 1.2678(3) -0.1154(3) 1.1767(2)
H11 H 1.3277 -0.1493 1.1857
H12 H 1.2437 -0.1061 1.2296
C13 C 1.1891(3) -0.2201(3) 0.9945(3)
C14 C 1.2425(3) -0.2376(3) 1.1210(2)
H13 H 1.2992 -0.2752 1.1418
C15 C 1.1659(2) -0.3003(3) 1.1459(2)
H14 H 1.1857 -0.3681 1.1784
C16 C 1.1288(3) -0.1951(3) 1.2113(2)
C17 C 1.0803(3) -0.3424(3) 1.0510(3)
H15 H 1.0951 -0.3408 0.9924
H16 H 1.0931 -0.4081 1.0927
C18 C 1.0204(3) -0.3142(3) 1.2481(2)
H17 H 1.0372 -0.3828 1.2720
H18 H 1.0009 -0.2965 1.2972
C19 C 1.2142(2) 0.0930(3) 0.4851(2)
C20 C 1.2216(3) 0.1117(3) 0.3427(2)
H19 H 1.1800 0.1561 0.3009
C21 C 1.1798(3) 0.0175(3) 0.4033(2)
H20 H 1.1181 0.0171 0.3908
C22 C 1.3115(3) -0.0144(3) 0.3230(3)
C23 C 1.1389(2) -0.0533(3) 0.5685(2)
H21 H 1.1119 -0.0222 0.6069
H22 H 1.0906 -0.0783 0.5544
C24 C 1.2334(3) -0.1547(3) 0.4295(3)
H23 H 1.2631 -0.1846 0.3909
H24 H 1.1696 -0.1662 0.4405
C25 C 1.2507(3) -0.1324(3) 0.6738(2)
C26 C 1.2218(3) -0.2165(3) 0.5964(2)
H25 H 1.1679 -0.2509 0.6067
C27 C 1.2919(3) -0.2743(3) 0.6595(2)
H26 H 1.2697 -0.3351 0.7034
C28 C 1.3554(3) -0.2488(3) 0.5198(3)
C29 C 1.3539(2) -0.2428(3) 0.7761(2)
H27 H 1.3439 -0.3093 0.8140
H28 H 1.3295 -0.2044 0.8089
C30 C 1.4496(3) -0.3517(3) 0.6337(3)
H29 H 1.4320 -0.4084 0.6853
H30 H 1.4780 -0.3725 0.5882
C31 C 1.4921(3) -0.1693(3) 0.7630(2)
C32 C 1.5113(2) -0.3084(3) 0.7404(2)
H31 H 1.5014 -0.3716 0.7882
C33 C 1.6044(2) -0.2760(3) 0.7380(2)
H32 H 1.6389 -0.3247 0.7843
C34 C 1.5956(3) -0.2839(3) 0.6063(3)
C35 C 1.6470(3) -0.1453(3) 0.7746(2)
H33 H 1.6144 -0.1106 0.8082
H34 H 1.6879 -0.1952 0.8122
C36 C 1.7409(3) -0.2473(3) 0.6253(3)
H35 H 1.7609 -0.2659 0.5768
H36 H 1.7761 -0.2882 0.6734
N1 N 1.0536(2) 0.2938(2) 0.80205(19)
N2 N 1.1959(2) 0.2554(2) 0.8280(2)
N3 N 1.0144(2) 0.3157(2) 0.9367(2)
N4 N 1.1547(2) 0.2679(2) 0.9660(2)
N5 N 1.2993(2) 0.1204(2) 0.8936(2)
N6 N 1.3058(2) -0.0363(2) 0.9649(2)
N7 N 1.2591(2) 0.1334(2) 1.0337(2)
N8 N 1.2763(2) -0.0235(2) 1.1046(2)
N9 N 1.2492(2) -0.1920(2) 1.02730(19)
N10 N 1.1379(2) -0.2823(2) 1.0615(2)
N11 N 1.2109(2) -0.1730(2) 1.1641(2)
N12 N 1.0996(2) -0.2647(2) 1.1986(2)
N13 N 1.2402(2) 0.1493(2) 0.40184(19)
N14 N 1.1807(2) 0.0165(2) 0.48900(19)
N15 N 1.3004(2) 0.0806(2) 0.2994(2)
N16 N 1.2412(2) -0.0539(2) 0.3862(2)
N17 N 1.2018(2) -0.1316(2) 0.6142(2)
N18 N 1.3058(2) -0.2124(2) 0.7003(2)
N19 N 1.2728(2) -0.1994(3) 0.5118(2)
N20 N 1.3695(2) -0.2904(2) 0.6040(2)
N21 N 1.4509(2) -0.2338(2) 0.7533(2)
N22 N 1.5820(2) -0.1904(2) 0.7519(2)
N23 N 1.5140(2) -0.3092(2) 0.6549(2)
N24 N 1.6474(2) -0.2636(2) 0.6528(2)
O5 O 1.13634(17) 0.18777(18) 0.75354(16)
O6 O 1.26803(19) 0.02937(19) 0.82551(17)
O7 O 1.1832(2) -0.1952(2) 0.91639(18)
O8 O 1.0414(2) 0.2433(2) 1.0793(2)
O9 O 1.1869(2) 0.0651(2) 1.17089(18)
O10 O 1.09020(19) -0.1544(2) 1.25780(19)
O11 O 1.22241(17) 0.10945(18) 0.54833(16)
O12 O 1.24546(19) -0.06851(18) 0.70003(17)
O13 O 1.45479(18) -0.10027(19) 0.77863(17)
O14 O 1.36987(19) -0.0574(2) 0.2935(2)
O15 O 1.4056(2) -0.2579(3) 0.4591(2)
O16 O 1.6163(2) -0.2827(2) 0.53329(19)
C1A C 0.8717(2) -0.2401(3) 1.2078(2)
C2A C 0.9338(3) -0.3480(3) 1.1491(2)
H1A H 0.9434 -0.4175 1.1830
C3A C 0.8360(3) -0.3157(3) 1.1270(2)
H2A H 0.7996 -0.3707 1.1476
C4A C 0.9334(3) -0.2723(3) 0.9976(3)
C5A C 0.7147(2) -0.2112(3) 1.1752(2)
H3A H 0.7003 -0.2048 1.2306
H4A H 0.6727 -0.2530 1.1741
C6A C 0.7707(3) -0.2303(3) 0.9818(3)
H5A H 0.7203 -0.2696 1.0113
H6A H 0.7887 -0.2345 0.9257
C7A C 0.7114(2) -0.0375(3) 1.1106(2)
C8A C 0.6729(3) -0.1032(3) 1.0224(2)
H7A H 0.6148 -0.1295 1.0295
C9A C 0.6649(2) 0.0060(3) 0.9749(2)
H8A H 0.6023 0.0312 0.9629
C10A C 0.7656(3) -0.0576(3) 0.8905(3)
C11A C 0.6796(3) 0.1346(3) 1.0256(2)
H9A H 0.6728 0.1350 1.0835
H10A H 0.6233 0.1632 0.9998
C12A C 0.7322(3) 0.1154(3) 0.8233(2)
H11A H 0.6723 0.1493 0.8143
H12A H 0.7563 0.1061 0.7704
C13A C 0.8109(3) 0.2201(3) 1.0055(3)
C14A C 0.7575(3) 0.2376(3) 0.8790(2)
H13A H 0.7008 0.2752 0.8582
C15A C 0.8341(2) 0.3003(3) 0.8541(2)
H14A H 0.8143 0.3681 0.8216
C16A C 0.8712(3) 0.1951(3) 0.7887(2)
C17A C 0.9197(3) 0.3424(3) 0.9490(3)
H15A H 0.9049 0.3408 1.0076
H16A H 0.9069 0.4081 0.9073
C18A C 0.9796(3) 0.3142(3) 0.7519(2)
H17A H 0.9628 0.3828 0.7280
H18A H 0.9991 0.2965 0.7028
N1A N 0.9464(2) -0.2938(2) 1.19795(19)
N2A N 0.8041(2) -0.2554(2) 1.1720(2)
N3A N 0.9856(2) -0.3157(2) 1.0633(2)
N4A N 0.8453(2) -0.2679(2) 1.0340(2)
N5A N 0.7007(2) -0.1204(2) 1.1064(2)
N6A N 0.6942(2) 0.0363(2) 1.0351(2)
N7A N 0.7409(2) -0.1334(2) 0.9663(2)
N8A N 0.7237(2) 0.0235(2) 0.8954(2)
N9A N 0.7508(2) 0.1920(2) 0.97270(19)
N10A N 0.8621(2) 0.2823(2) 0.9385(2)
N11A N 0.7891(2) 0.1730(2) 0.8359(2)
N12A N 0.9004(2) 0.2647(2) 0.8014(2)
O5A O 0.86366(17) -0.18777(18) 1.24646(16)
O6A O 0.73197(19) -0.02937(19) 1.17449(17)
O7A O 0.8168(2) 0.1952(2) 1.08361(18)
O8A O 0.9586(2) -0.2433(2) 0.9207(2)
O9A O 0.8131(2) -0.0651(2) 0.82911(18)
O10A O 0.90980(19) 0.1544(2) 0.74220(19)
C19A C 1.7858(2) -0.0930(3) 0.5149(2)
C20A C 1.7784(3) -0.1117(3) 0.6573(2)
H19A H 1.8200 -0.1561 0.6991
C21A C 1.8202(3) -0.0175(3) 0.5967(2)
H20A H 1.8819 -0.0171 0.6092
C22A C 1.6885(3) 0.0144(3) 0.6770(3)
C23A C 1.8611(2) 0.0533(3) 0.4315(2)
H21A H 1.8881 0.0222 0.3931
H22A H 1.9094 0.0783 0.4456
C24A C 1.7666(3) 0.1547(3) 0.5705(3)
H23A H 1.7369 0.1846 0.6091
H24A H 1.8304 0.1662 0.5595
C25A C 1.7493(3) 0.1324(3) 0.3262(2)
C26A C 1.7782(3) 0.2165(3) 0.4036(2)
H25A H 1.8321 0.2509 0.3933
C27A C 1.7081(3) 0.2743(3) 0.3405(2)
H26A H 1.7303 0.3351 0.2966
C28A C 1.6446(3) 0.2488(3) 0.4802(3)
C29A C 1.6461(2) 0.2428(3) 0.2239(2)
H27A H 1.6561 0.3093 0.1860
H28A H 1.6705 0.2044 0.1911
C30A C 1.5504(3) 0.3517(3) 0.3663(3)
H29A H 1.5680 0.4084 0.3147
H30A H 1.5220 0.3725 0.4118
C31A C 1.5079(3) 0.1693(3) 0.2370(2)
C32A C 1.4887(2) 0.3084(3) 0.2596(2)
H31A H 1.4986 0.3716 0.2118
C33A C 1.3956(2) 0.2760(3) 0.2620(2)
H32A H 1.3611 0.3247 0.2157
C34A C 1.4044(3) 0.2839(3) 0.3937(3)
C35A C 1.3530(3) 0.1453(3) 0.2254(2)
H33A H 1.3856 0.1106 0.1918
H34A H 1.3121 0.1952 0.1878
C36A C 1.2591(3) 0.2473(3) 0.3747(3)
H35A H 1.2391 0.2659 0.4232
H36A H 1.2239 0.2882 0.3266
N13A N 1.7598(2) -0.1493(2) 0.59816(19)
N14A N 1.8193(2) -0.0165(2) 0.51100(19)
N15A N 1.6996(2) -0.0806(2) 0.7006(2)
N16A N 1.7588(2) 0.0539(2) 0.6138(2)
N17A N 1.7982(2) 0.1316(2) 0.3858(2)
N18A N 1.6942(2) 0.2124(2) 0.2997(2)
N19A N 1.7272(2) 0.1994(3) 0.4882(2)
N20A N 1.6305(2) 0.2904(2) 0.3960(2)
N21A N 1.5491(2) 0.2338(2) 0.2467(2)
N22A N 1.4180(2) 0.1904(2) 0.2481(2)
N23A N 1.4860(2) 0.3092(2) 0.3451(2)
N24A N 1.3526(2) 0.2636(2) 0.3472(2)
O11A O 1.77759(17) -0.10945(18) 0.45167(16)
O12A O 1.75454(19) 0.06851(18) 0.29997(17)
O13A O 1.54521(18) 0.10027(19) 0.22137(17)
O14A O 1.63013(19) 0.0574(2) 0.7065(2)
O15A O 1.5944(2) 0.2579(3) 0.5409(2)
O16A O 1.3837(2) 0.2827(2) 0.46671(19)
O1A O 0.63172(19) -0.0647(2) 1.33597(18)
O2A O 0.74002(19) -0.23603(19) 1.38717(18)
O3A O 0.93365(18) -0.1327(2) 1.35670(17)
O4A O 0.89502(18) 0.0174(2) 1.19806(18)
Y1A Y 0.79124(2) -0.08445(3) 1.30628(2)
Y1A_2 Y 1.79124(2) -0.08445(3) 0.30628(2)
O11A_2 O 0.77759(17) -0.10945(18) 1.45167(16)
O12A_2 O 0.75454(19) 0.06851(18) 1.29997(17)
Cl2 Cl 1.51227(10) -0.75854(12) 0.84861(13)
Cl3 Cl 1.62507(10) -0.53066(11) 0.80542(16)
Cl4 Cl 1.35230(10) -0.53187(14) 0.83539(15)
Cl5 Cl 1.4898(3) -0.6756(3) 1.03896(15)
Cd1 Cd 1.49461(3) -0.61890(3) 0.88433(3)
Cl1 Cl 0.98764(8) -0.19800(10) 0.54416(9)
loop_
_geom_bond_atom_site_label_1
_geom_bond_atom_site_label_2
_geom_bond_site_symmetry_1
_geom_bond_site_symmetry_2
O1 Y1 1_555 1_555
O2 Y1 1_555 1_555
O3 Y1 1_555 1_555
O4 Y1 1_555 1_555
Y1 O5 1_555 1_555
C1 N1 1_555 1_555
C2 H1 1_555 1_555
C3 C2 1_555 1_555
H2 C3 1_555 1_555
C4 N3 1_555 1_555
C5 H3 1_555 1_555
H4 C5 1_555 1_555
C6 H5 1_555 1_555
H6 C6 1_555 1_555
C7 N5 1_555 1_555
C8 H7 1_555 1_555
C9 C8 1_555 1_555
H8 C9 1_555 1_555
C10 N7 1_555 1_555
C11 H9 1_555 1_555
H10 C11 1_555 1_555
C12 H11 1_555 1_555
H12 C12 1_555 1_555
C13 N9 1_555 1_555
C14 H13 1_555 1_555
C15 C14 1_555 1_555
H14 C15 1_555 1_555
C16 N11 1_555 1_555
C17 H15 1_555 1_555
H16 C17 1_555 1_555
C18 H17 1_555 1_555
H18 C18 1_555 1_555
C19 N13 1_555 1_555
C20 H19 1_555 1_555
C21 C20 1_555 1_555
H20 C21 1_555 1_555
C22 N15 1_555 1_555
C23 H21 1_555 1_555
H22 C23 1_555 1_555
C24 H23 1_555 1_555
H24 C24 1_555 1_555
C25 N17 1_555 1_555
C26 H25 1_555 1_555
C27 C26 1_555 1_555
H26 C27 1_555 1_555
C28 N19 1_555 1_555
C29 H27 1_555 1_555
H28 C29 1_555 1_555
C30 H29 1_555 1_555
H30 C30 1_555 1_555
C31 N21 1_555 1_555
C32 H31 1_555 1_555
C33 C32 1_555 1_555
H32 C33 1_555 1_555
C34 N23 1_555 1_555
C35 H33 1_555 1_555
H34 C35 1_555 1_555
C36 H35 1_555 1_555
H36 C36 1_555 1_555
N1 C2 1_555 1_555
N2 C1 1_555 1_555
N3 C2 1_555 1_555
N4 C3 1_555 1_555
N5 C5 1_555 1_555
N6 C7 1_555 1_555
N7 C6 1_555 1_555
N8 C9 1_555 1_555
N9 C11 1_555 1_555
N10 C13 1_555 1_555
N11 C12 1_555 1_555
N12 C15 1_555 1_555
N13 C20 1_555 1_555
N14 C19 1_555 1_555
N15 C20 1_555 1_555
N16 C21 1_555 1_555
N17 C23 1_555 1_555
N18 C25 1_555 1_555
N19 C24 1_555 1_555
N20 C27 1_555 1_555
N21 C29 1_555 1_555
N22 C31 1_555 1_555
N23 C30 1_555 1_555
N24 C33 1_555 1_555
O5 C1 1_555 1_555
O6 Y1 1_555 1_555
O7 C13 1_555 1_555
O8 C4 1_555 1_555
O9 C10 1_555 1_555
O10 C16 1_555 1_555
O11 Y1 1_555 1_555
O12 Y1 1_555 1_555
O13 C31 1_555 1_555
O14 C22 1_555 1_555
O15 C28 1_555 1_555
O16 C34 1_555 1_555
Cl2 Cd1 1_555 1_555
Cl3 Cd1 1_555 1_555
Cl4 Cd1 1_555 1_555
Cl5 Cd1 1_555 1_555
C1A N1A 1_555 1_555
C2A H1A 1_555 1_555
C3A C2A 1_555 1_555
H2A C3A 1_555 1_555
C4A N3A 1_555 1_555
C5A H3A 1_555 1_555
H4A C5A 1_555 1_555
C6A H5A 1_555 1_555
H6A C6A 1_555 1_555
C7A N5A 1_555 1_555
C8A H7A 1_555 1_555
C9A C8A 1_555 1_555
H8A C9A 1_555 1_555
C10A N7A 1_555 1_555
C11A H9A 1_555 1_555
H10A C11A 1_555 1_555
C12A H11A 1_555 1_555
H12A C12A 1_555 1_555
C13A N9A 1_555 1_555
C14A H13A 1_555 1_555
C15A C14A 1_555 1_555
H14A C15A 1_555 1_555
C16A N11A 1_555 1_555
C17A N3 1_555 1_555
H15A C17A 1_555 1_555
H16A C17A 1_555 1_555
C18A N1 1_555 1_555
H17A C18A 1_555 1_555
H18A C18A 1_555 1_555
N1A C18 1_555 1_555
N2A C1A 1_555 1_555
N3A C17 1_555 1_555
N4A C3A 1_555 1_555
N5A C5A 1_555 1_555
N6A C7A 1_555 1_555
N7A C6A 1_555 1_555
N8A C9A 1_555 1_555
N9A C11A 1_555 1_555
N10A C13A 1_555 1_555
N11A C12A 1_555 1_555
N12A C15A 1_555 1_555
O5A C1A 1_555 1_555
O6A C7A 1_555 1_555
O7A C13A 1_555 1_555
O8A C4A 1_555 1_555
O9A C10A 1_555 1_555
O10A C16A 1_555 1_555
C19A N13A 1_555 1_555
C20A H19A 1_555 1_555
C21A C20A 1_555 1_555
H20A C21A 1_555 1_555
C22A N15A 1_555 1_555
C23A H21A 1_555 1_555
H22A C23A 1_555 1_555
C24A H23A 1_555 1_555
H24A C24A 1_555 1_555
C25A N17A 1_555 1_555
C26A H25A 1_555 1_555
C27A C26A 1_555 1_555
H26A C27A 1_555 1_555
C28A N19A 1_555 1_555
C29A H27A 1_555 1_555
H28A C29A 1_555 1_555
C30A H29A 1_555 1_555
H30A C30A 1_555 1_555
C31A N21A 1_555 1_555
C32A H31A 1_555 1_555
C33A C32A 1_555 1_555
H32A C33A 1_555 1_555
C34A N23A 1_555 1_555
C35A N15 1_555 1_555
H33A C35A 1_555 1_555
H34A C35A 1_555 1_555
C36A N13 1_555 1_555
H35A C36A 1_555 1_555
H36A C36A 1_555 1_555
N13A C36 1_555 1_555
N14A C19A 1_555 1_555
N15A C35 1_555 1_555
N16A C21A 1_555 1_555
N17A C23A 1_555 1_555
N18A C25A 1_555 1_555
N19A C24A 1_555 1_555
N20A C27A 1_555 1_555
N21A C29A 1_555 1_555
N22A C31A 1_555 1_555
N23A C30A 1_555 1_555
N24A C33A 1_555 1_555
O11A C19A 1_555 1_555
O12A C25A 1_555 1_555
O13A C31A 1_555 1_555
O14A C22A 1_555 1_555
O15A C28A 1_555 1_555
O16A C34A 1_555 1_555
O1A Y1A 1_555 1_555
O2A Y1A 1_555 1_555
O3A Y1A 1_555 1_555
O4A Y1A 1_555 1_555
Y1A O5A 1_555 1_555
Y1A_2 O11A 1_555 1_555
O11A_2 Y1A 1_555 1_555
O12A_2 Y1A 1_555 1_555
C3 N2 1_555 1_555
C4 N4 1_555 1_555
C5 N2 1_555 1_555
C6 N4 1_555 1_555
C7 O6 1_555 1_555
C8 N5 1_555 1_555
C8 N7 1_555 1_555
C9 N6 1_555 1_555
C10 N8 1_555 1_555
C11 N6 1_555 1_555
C12 N8 1_555 1_555
C14 N9 1_555 1_555
C14 N11 1_555 1_555
C15 N10 1_555 1_555
C16 N12 1_555 1_555
C17 N10 1_555 1_555
C18 N12 1_555 1_555
C19 O11 1_555 1_555
C21 N14 1_555 1_555
C22 N16 1_555 1_555
C23 N14 1_555 1_555
C24 N16 1_555 1_555
C25 O12 1_555 1_555
C26 N17 1_555 1_555
C26 N19 1_555 1_555
C27 N18 1_555 1_555
C28 N20 1_555 1_555
C29 N18 1_555 1_555
C30 N20 1_555 1_555
C32 N21 1_555 1_555
C32 N23 1_555 1_555
C33 N22 1_555 1_555
C34 N24 1_555 1_555
C35 N22 1_555 1_555
C36 N24 1_555 1_555
C2A N1A 1_555 1_555
C2A N3A 1_555 1_555
C3A N2A 1_555 1_555
C4A N4A 1_555 1_555
C5A N2A 1_555 1_555
C6A N4A 1_555 1_555
C8A N5A 1_555 1_555
C8A N7A 1_555 1_555
C9A N6A 1_555 1_555
C10A N8A 1_555 1_555
C11A N6A 1_555 1_555
C12A N8A 1_555 1_555
C14A N9A 1_555 1_555
C14A N11A 1_555 1_555
C15A N10A 1_555 1_555
C16A N12A 1_555 1_555
C17A N10A 1_555 1_555
C18A N12A 1_555 1_555
O6A Y1A 1_555 1_555
C20A N13A 1_555 1_555
C20A N15A 1_555 1_555
C21A N14A 1_555 1_555
C22A N16A 1_555 1_555
C23A N14A 1_555 1_555
C24A N16A 1_555 1_555
C26A N17A 1_555 1_555
C26A N19A 1_555 1_555
C27A N18A 1_555 1_555
C28A N20A 1_555 1_555
C29A N18A 1_555 1_555
C30A N20A 1_555 1_555
C32A N21A 1_555 1_555
C32A N23A 1_555 1_555
C33A N22A 1_555 1_555
C34A N24A 1_555 1_555
C35A N22A 1_555 1_555
C36A N24A 1_555 1_555
O12A Y1A_2 1_555 1_555

#END
