
#######################################################################
#
#                 Cambridge Crystallographic Data Centre
#                                CCDC 
#
#######################################################################
#
# If this CIF has been generated from an entry in the Cambridge 
# Structural Database, then it will include bibliographic, chemical, 
# crystal, experimental, refinement or atomic coordinate data resulting 
# from the CCDC's data processing and validation procedures.
#
#######################################################################

data_OGAMEQ
_symmetry_cell_setting           triclinic
_symmetry_space_group_name_H-M   'P -1'
_symmetry_Int_Tables_number      2
_space_group_name_Hall           '-P 1'
loop_
_symmetry_equiv_pos_site_id
_symmetry_equiv_pos_as_xyz
1 x,y,z
2 -x,-y,-z
_cell_length_a                   15.1640(14)
_cell_length_b                   15.6132(14)
_cell_length_c                   17.1565(15)
_cell_angle_alpha                64.327(3)
_cell_angle_beta                 81.022(3)
_cell_angle_gamma                82.192(3)
_cell_volume                     3605.46
loop_
_atom_site_label
_atom_site_type_symbol
_atom_site_fract_x
_atom_site_fract_y
_atom_site_fract_z
O1 O 0.0641(2) 0.6362(3) 0.1416(2)
O2 O 0.2638(3) 0.7432(3) 0.1086(2)
O3 O 0.1052(2) 0.4838(3) 0.3041(2)
O4 O 0.3718(2) 0.5665(3) 0.1639(3)
Eu1 Eu 0.210199(13) 0.587930(17) 0.192361(14)
C1 C 0.2157(3) 0.5963(4) -0.0182(3)
C2 C 0.2228(3) 0.6137(4) -0.1612(3)
H1 H 0.1811 0.6570 -0.2033
C3 C 0.1816(3) 0.5195(4) -0.0990(3)
H2 H 0.1204 0.5179 -0.1114
C4 C 0.3115(3) 0.4864(4) -0.1761(3)
C5 C 0.1401(3) 0.4482(4) 0.0680(3)
H3 H 0.0902 0.4242 0.0553
H4 H 0.1153 0.4795 0.1063
C6 C 0.2346(3) 0.3471(4) -0.0708(3)
H5 H 0.2645 0.3175 -0.1090
H6 H 0.1709 0.3360 -0.0611
C7 C 0.2503(3) 0.3683(4) 0.1735(3)
C8 C 0.2224(3) 0.2842(4) 0.0970(3)
H7 H 0.1685 0.2496 0.1079
C9 C 0.2907(3) 0.2256(4) 0.1612(3)
H8 H 0.2682 0.1643 0.2047
C10 C 0.3548(4) 0.2525(4) 0.0204(4)
C11 C 0.3513(3) 0.2566(4) 0.2764(3)
H9 H 0.3411 0.1897 0.3141
H10 H 0.3271 0.2940 0.3094
C12 C 0.4463(3) 0.1472(4) 0.1360(4)
H11 H 0.4271 0.0901 0.1871
H12 H 0.4742 0.1272 0.0904
C13 C 0.4892(3) 0.3309(4) 0.2642(3)
C14 C 0.5081(3) 0.1908(3) 0.2436(3)
H13 H 0.4972 0.1275 0.2917
C15 C 0.6017(3) 0.2216(3) 0.2418(3)
H14 H 0.6354 0.1727 0.2887
C16 C 0.5929(3) 0.2125(4) 0.1102(3)
C17 C 0.3546(3) 0.6482(4) -0.2771(3)
H15 H 0.3148 0.6992 -0.3147
H16 H 0.3860 0.6136 -0.3106
C18 C 0.7393(3) 0.2514(4) 0.1304(3)
H17 H 0.7731 0.2107 0.1796
H18 H 0.7602 0.2319 0.0830
C19 C 0.1288(3) 0.7461(4) 0.2910(3)
C20 C 0.0638(3) 0.8501(3) 0.3515(3)
H19 H 0.0539 0.9199 0.3176
C21 C 0.1609(3) 0.8198(3) 0.3743(3)
H20 H 0.1967 0.8753 0.3549
C22 C 0.0634(3) 0.7716(4) 0.5018(3)
C23 C 0.2841(3) 0.7168(4) 0.3268(3)
H21 H 0.3250 0.7590 0.3291
H22 H 0.3002 0.7113 0.2714
C24 C 0.2255(4) 0.7313(4) 0.5204(4)
H23 H 0.2748 0.7726 0.4910
H24 H 0.2070 0.7344 0.5766
C25 C 0.2880(3) 0.5422(4) 0.3912(3)
C26 C 0.3254(3) 0.6081(4) 0.4793(3)
H25 H 0.3828 0.6358 0.4716
C27 C 0.3340(3) 0.4971(4) 0.5275(3)
H26 H 0.3965 0.4724 0.5395
C28 C 0.2337(3) 0.5596(4) 0.6110(3)
C29 C 0.3203(3) 0.3692(4) 0.4757(3)
H27 H 0.3261 0.3707 0.4174
H28 H 0.3768 0.3407 0.5005
C30 C 0.2671(3) 0.3862(4) 0.6788(3)
H29 H 0.2425 0.3948 0.7315
H30 H 0.3268 0.3530 0.6883
C31 C 0.1915(3) 0.2818(4) 0.4960(3)
C32 C 0.2432(3) 0.2638(4) 0.6228(3)
H31 H 0.2996 0.2266 0.6440
C33 C 0.1660(3) 0.1999(4) 0.6462(3)
H32 H 0.1856 0.1320 0.6793
C34 C 0.1288(3) 0.3051(4) 0.7124(3)
C35 C -0.0823(3) 0.8413(4) 0.4492(4)
H33 H -0.0955 0.9080 0.4094
H34 H -0.0965 0.8361 0.5087
C36 C -0.0210(3) 0.8153(4) 0.2512(3)
H35 H -0.0012 0.7969 0.2031
H36 H -0.0379 0.8840 0.2260
N1 N 0.2405(2) 0.6528(3) -0.1024(2)
N2 N 0.1814(2) 0.5184(3) -0.0129(3)
N3 N 0.3020(3) 0.5844(3) -0.2038(3)
N4 N 0.2433(3) 0.4482(3) -0.1149(3)
N5 N 0.2018(3) 0.3682(3) 0.1137(3)
N6 N 0.3031(2) 0.2877(3) 0.2014(3)
N7 N 0.2718(3) 0.2997(3) 0.0128(3)
N8 N 0.3682(3) 0.2115(3) 0.1057(3)
N9 N 0.4471(2) 0.2658(3) 0.2549(3)
N10 N 0.5797(3) 0.3093(3) 0.2537(3)
N11 N 0.5121(3) 0.1890(3) 0.1587(3)
N12 N 0.6445(2) 0.2344(3) 0.1568(3)
N13 N 0.0526(2) 0.7967(3) 0.3014(2)
N14 N 0.1937(2) 0.7603(3) 0.3283(3)
N15 N 0.0111(3) 0.8171(3) 0.4354(3)
N16 N 0.1501(3) 0.7685(3) 0.4678(3)
N17 N 0.2974(2) 0.6239(3) 0.3969(2)
N18 N 0.3050(2) 0.4672(3) 0.4682(2)
N19 N 0.2575(3) 0.6358(3) 0.5359(3)
N20 N 0.2753(2) 0.4784(3) 0.6069(3)
N21 N 0.2499(2) 0.3107(3) 0.5288(2)
N22 N 0.1399(3) 0.2167(3) 0.5634(3)
N23 N 0.2102(2) 0.3273(3) 0.6653(3)
N24 N 0.0992(2) 0.2345(3) 0.6990(3)
O5 O 0.2217(2) 0.6138(3) 0.0439(2)
O6 O 0.2459(2) 0.4315(3) 0.1990(2)
O7 O 0.4532(2) 0.3979(3) 0.2795(2)
O8 O 0.3717(2) 0.4431(3) -0.2052(3)
O9 O 0.4058(3) 0.2438(4) -0.0382(3)
O10 O 0.6153(2) 0.2112(3) 0.0395(3)
O11 O 0.1374(2) 0.6940(3) 0.2520(2)
O12 O 0.2711(2) 0.5347(3) 0.3272(2)
O13 O 0.1858(2) 0.3058(3) 0.4185(2)
O14 O 0.0370(3) 0.7403(3) 0.5798(3)
O15 O 0.1850(2) 0.5636(3) 0.6736(2)
O16 O 0.0897(2) 0.3431(3) 0.7588(2)
C1A C 0.7843(3) 0.4037(4) 0.0182(3)
C2A C 0.7772(3) 0.3863(4) 0.1612(3)
H1A H 0.8189 0.3430 0.2033
C3A C 0.8184(3) 0.4805(4) 0.0990(3)
H2A H 0.8796 0.4821 0.1114
C4A C 0.6885(3) 0.5136(4) 0.1761(3)
C5A C 0.8599(3) 0.5518(4) -0.0680(3)
H3A H 0.9098 0.5758 -0.0553
H4A H 0.8847 0.5205 -0.1063
C6A C 0.7654(3) 0.6529(4) 0.0708(3)
H5A H 0.7355 0.6825 0.1090
H6A H 0.8291 0.6640 0.0611
C7A C 0.7497(3) 0.6317(4) -0.1735(3)
C8A C 0.7776(3) 0.7158(4) -0.0970(3)
H7A H 0.8315 0.7504 -0.1079
C9A C 0.7093(3) 0.7744(4) -0.1612(3)
H8A H 0.7318 0.8357 -0.2047
C10A C 0.6452(4) 0.7475(4) -0.0204(4)
C11A C 0.6487(3) 0.7434(4) -0.2764(3)
H9A H 0.6589 0.8103 -0.3141
H10A H 0.6729 0.7060 -0.3094
C12A C 0.5537(3) 0.8528(4) -0.1360(4)
H11A H 0.5729 0.9099 -0.1871
H12A H 0.5258 0.8728 -0.0904
C13A C 0.5108(3) 0.6691(4) -0.2642(3)
C14A C 0.4919(3) 0.8092(3) -0.2436(3)
H13A H 0.5028 0.8725 -0.2917
C15A C 0.3983(3) 0.7784(3) -0.2418(3)
H14A H 0.3646 0.8273 -0.2887
C16A C 0.4071(3) 0.7875(4) -0.1102(3)
C17A C 0.6454(3) 0.3518(4) 0.2771(3)
H15A H 0.6852 0.3008 0.3147
H16A H 0.6140 0.3864 0.3106
C18A C 0.2607(3) 0.7486(4) -0.1304(3)
H17A H 0.2269 0.7893 -0.1796
H18A H 0.2398 0.7681 -0.0830
N1A N 0.7595(2) 0.3472(3) 0.1024(2)
N2A N 0.8186(2) 0.4816(3) 0.0129(3)
N3A N 0.6980(3) 0.4156(3) 0.2038(3)
N4A N 0.7567(3) 0.5518(3) 0.1149(3)
N5A N 0.7982(3) 0.6318(3) -0.1137(3)
N6A N 0.6969(2) 0.7123(3) -0.2014(3)
N7A N 0.7282(3) 0.7003(3) -0.0128(3)
N8A N 0.6318(3) 0.7885(3) -0.1057(3)
N9A N 0.5529(2) 0.7342(3) -0.2549(3)
N10A N 0.4203(3) 0.6907(3) -0.2537(3)
N11A N 0.4879(3) 0.8110(3) -0.1587(3)
N12A N 0.3555(2) 0.7656(3) -0.1568(3)
O5A O 0.7783(2) 0.3862(3) -0.0439(2)
O6A O 0.7541(2) 0.5685(3) -0.1990(2)
O7A O 0.5468(2) 0.6021(3) -0.2795(2)
O8A O 0.6283(2) 0.5569(3) 0.2052(3)
O9A O 0.5942(3) 0.7562(4) 0.0382(3)
O10A O 0.3847(2) 0.7888(3) -0.0395(3)
C19A C -0.1288(3) 0.2539(4) 0.7090(3)
C20A C -0.0638(3) 0.1499(3) 0.6485(3)
H19A H -0.0539 0.0801 0.6824
C21A C -0.1609(3) 0.1802(3) 0.6257(3)
H20A H -0.1967 0.1247 0.6451
C22A C -0.0634(3) 0.2284(4) 0.4982(3)
C23A C -0.2841(3) 0.2832(4) 0.6732(3)
H21A H -0.3250 0.2410 0.6709
H22A H -0.3002 0.2887 0.7286
C24A C -0.2255(4) 0.2687(4) 0.4796(4)
H23A H -0.2748 0.2274 0.5090
H24A H -0.2070 0.2656 0.4234
C25A C -0.2880(3) 0.4578(4) 0.6088(3)
C26A C -0.3254(3) 0.3919(4) 0.5207(3)
H25A H -0.3828 0.3642 0.5284
C27A C -0.3340(3) 0.5029(4) 0.4725(3)
H26A H -0.3965 0.5276 0.4605
C28A C -0.2337(3) 0.4404(4) 0.3890(3)
C29A C -0.3203(3) 0.6308(4) 0.5243(3)
H27A H -0.3261 0.6293 0.5826
H28A H -0.3768 0.6593 0.4995
C30A C -0.2671(3) 0.6138(4) 0.3212(3)
H29A H -0.2425 0.6052 0.2685
H30A H -0.3268 0.6470 0.3117
C31A C -0.1915(3) 0.7182(4) 0.5040(3)
C32A C -0.2432(3) 0.7362(4) 0.3772(3)
H31A H -0.2996 0.7734 0.3560
C33A C -0.1660(3) 0.8001(4) 0.3538(3)
H32A H -0.1856 0.8680 0.3207
C34A C -0.1288(3) 0.6949(4) 0.2876(3)
C35A C 0.0823(3) 0.1587(4) 0.5508(4)
H33A H 0.0955 0.0920 0.5906
H34A H 0.0965 0.1639 0.4913
C36A C 0.0210(3) 0.1847(4) 0.7488(3)
H35A H 0.0012 0.2031 0.7969
H36A H 0.0379 0.1160 0.7740
N13A N -0.0526(2) 0.2033(3) 0.6986(2)
N14A N -0.1937(2) 0.2397(3) 0.6717(3)
N15A N -0.0111(3) 0.1829(3) 0.5646(3)
N16A N -0.1501(3) 0.2315(3) 0.5322(3)
N17A N -0.2974(2) 0.3761(3) 0.6031(2)
N18A N -0.3050(2) 0.5328(3) 0.5318(2)
N19A N -0.2575(3) 0.3642(3) 0.4641(3)
N20A N -0.2753(2) 0.5216(3) 0.3931(3)
N21A N -0.2499(2) 0.6893(3) 0.4712(2)
N22A N -0.1399(3) 0.7833(3) 0.4366(3)
N23A N -0.2102(2) 0.6727(3) 0.3347(3)
N24A N -0.0992(2) 0.7655(3) 0.3010(3)
O11A O -0.1374(2) 0.3060(3) 0.7480(2)
O12A O -0.2711(2) 0.4653(3) 0.6728(2)
O13A O -0.1858(2) 0.6942(3) 0.5815(2)
O14A O -0.0370(3) 0.2597(3) 0.4202(3)
O15A O -0.1850(2) 0.4364(3) 0.3264(2)
O16A O -0.0897(2) 0.6569(3) 0.2412(2)
O1A O -0.0641(2) 0.3638(3) 0.8584(2)
O2A O -0.2638(3) 0.2568(3) 0.8914(2)
O3A O -0.1052(2) 0.5162(3) 0.6959(2)
O4A O -0.3718(2) 0.4335(3) 0.8361(3)
Eu1A Eu -0.210199(13) 0.412070(17) 0.807639(14)
Eu1A_2 Eu 0.789801(13) 0.412070(17) -0.192361(14)
O5A_2 O -0.2217(2) 0.3862(3) 0.9561(2)
O6A_2 O -0.2459(2) 0.5685(3) 0.8010(2)
Cl2 Cl 0.48674(10) 0.26174(15) 0.65167(16)
Cl3 Cl 0.37624(12) 0.02950(15) 0.6997(2)
Cl4 Cl 0.64829(12) 0.03687(17) 0.66199(19)
Cl5 Cl 0.5055(5) 0.1785(4) 0.4635(2)
Cd1 Cd 0.50424(3) 0.12161(4) 0.61761(4)
Cl1 Cl -0.01265(10) 0.30280(13) 0.04725(12)
loop_
_geom_bond_atom_site_label_1
_geom_bond_atom_site_label_2
_geom_bond_site_symmetry_1
_geom_bond_site_symmetry_2
O1 Eu1 1_555 1_555
O2 Eu1 1_555 1_555
O3 Eu1 1_555 1_555
O4 Eu1 1_555 1_555
Eu1 O5 1_555 1_555
C1 N1 1_555 1_555
C2 H1 1_555 1_555
C3 C2 1_555 1_555
H2 C3 1_555 1_555
C4 N3 1_555 1_555
C5 H3 1_555 1_555
H4 C5 1_555 1_555
C6 H5 1_555 1_555
H6 C6 1_555 1_555
C7 N5 1_555 1_555
C8 H7 1_555 1_555
C9 C8 1_555 1_555
H8 C9 1_555 1_555
C10 N7 1_555 1_555
C11 H9 1_555 1_555
H10 C11 1_555 1_555
C12 H11 1_555 1_555
H12 C12 1_555 1_555
C13 N9 1_555 1_555
C14 H13 1_555 1_555
C15 C14 1_555 1_555
H14 C15 1_555 1_555
C16 N11 1_555 1_555
C17 H15 1_555 1_555
H16 C17 1_555 1_555
C18 H17 1_555 1_555
H18 C18 1_555 1_555
C19 N13 1_555 1_555
C20 H19 1_555 1_555
C21 C20 1_555 1_555
H20 C21 1_555 1_555
C22 N15 1_555 1_555
C23 H21 1_555 1_555
H22 C23 1_555 1_555
C24 H23 1_555 1_555
H24 C24 1_555 1_555
C25 N17 1_555 1_555
C26 H25 1_555 1_555
C27 C26 1_555 1_555
H26 C27 1_555 1_555
C28 N19 1_555 1_555
C29 H27 1_555 1_555
H28 C29 1_555 1_555
C30 H29 1_555 1_555
H30 C30 1_555 1_555
C31 N21 1_555 1_555
C32 H31 1_555 1_555
C33 C32 1_555 1_555
H32 C33 1_555 1_555
C34 N23 1_555 1_555
C35 H33 1_555 1_555
H34 C35 1_555 1_555
C36 H35 1_555 1_555
H36 C36 1_555 1_555
N1 C2 1_555 1_555
N2 C1 1_555 1_555
N3 C2 1_555 1_555
N4 C3 1_555 1_555
N5 C5 1_555 1_555
N6 C7 1_555 1_555
N7 C6 1_555 1_555
N8 C9 1_555 1_555
N9 C11 1_555 1_555
N10 C13 1_555 1_555
N11 C12 1_555 1_555
N12 C15 1_555 1_555
N13 C20 1_555 1_555
N14 C19 1_555 1_555
N15 C20 1_555 1_555
N16 C21 1_555 1_555
N17 C23 1_555 1_555
N18 C25 1_555 1_555
N19 C24 1_555 1_555
N20 C27 1_555 1_555
N21 C29 1_555 1_555
N22 C31 1_555 1_555
N23 C30 1_555 1_555
N24 C33 1_555 1_555
O5 C1 1_555 1_555
O6 Eu1 1_555 1_555
O7 C13 1_555 1_555
O8 C4 1_555 1_555
O9 C10 1_555 1_555
O10 C16 1_555 1_555
O11 Eu1 1_555 1_555
O12 Eu1 1_555 1_555
O13 C31 1_555 1_555
O14 C22 1_555 1_555
O15 C28 1_555 1_555
O16 C34 1_555 1_555
Cl2 Cd1 1_555 1_555
Cl3 Cd1 1_555 1_555
Cl4 Cd1 1_555 1_555
Cl5 Cd1 1_555 1_555
C1A N1A 1_555 1_555
C2A H1A 1_555 1_555
C3A C2A 1_555 1_555
H2A C3A 1_555 1_555
C4A N3A 1_555 1_555
C5A H3A 1_555 1_555
H4A C5A 1_555 1_555
C6A H5A 1_555 1_555
H6A C6A 1_555 1_555
C7A N5A 1_555 1_555
C8A H7A 1_555 1_555
C9A C8A 1_555 1_555
H8A C9A 1_555 1_555
C10A N7A 1_555 1_555
C11A H9A 1_555 1_555
H10A C11A 1_555 1_555
C12A H11A 1_555 1_555
H12A C12A 1_555 1_555
C13A N9A 1_555 1_555
C14A H13A 1_555 1_555
C15A C14A 1_555 1_555
H14A C15A 1_555 1_555
C16A N11A 1_555 1_555
C17A N10 1_555 1_555
H15A C17A 1_555 1_555
H16A C17A 1_555 1_555
C18A N1 1_555 1_555
H17A C18A 1_555 1_555
H18A C18A 1_555 1_555
N1A C18 1_555 1_555
N2A C1A 1_555 1_555
N3A C2A 1_555 1_555
N4A C3A 1_555 1_555
N5A C5A 1_555 1_555
N6A C7A 1_555 1_555
N7A C6A 1_555 1_555
N8A C9A 1_555 1_555
N9A C11A 1_555 1_555
N10A C17 1_555 1_555
N11A C12A 1_555 1_555
N12A C15A 1_555 1_555
O5A C1A 1_555 1_555
O6A C7A 1_555 1_555
O7A C13A 1_555 1_555
O8A C4A 1_555 1_555
O9A C10A 1_555 1_555
O10A C16A 1_555 1_555
C19A N13A 1_555 1_555
C20A H19A 1_555 1_555
C21A C20A 1_555 1_555
H20A C21A 1_555 1_555
C22A N15A 1_555 1_555
C23A H21A 1_555 1_555
H22A C23A 1_555 1_555
C24A H23A 1_555 1_555
H24A C24A 1_555 1_555
C25A N17A 1_555 1_555
C26A H25A 1_555 1_555
C27A C26A 1_555 1_555
H26A C27A 1_555 1_555
C28A N19A 1_555 1_555
C29A H27A 1_555 1_555
H28A C29A 1_555 1_555
C30A H29A 1_555 1_555
H30A C30A 1_555 1_555
C31A N21A 1_555 1_555
C32A H31A 1_555 1_555
C33A C32A 1_555 1_555
H32A C33A 1_555 1_555
C34A N23A 1_555 1_555
C35A N22 1_555 1_555
H33A C35A 1_555 1_555
H34A C35A 1_555 1_555
C36A N24 1_555 1_555
H35A C36A 1_555 1_555
H36A C36A 1_555 1_555
N13A C20A 1_555 1_555
N14A C19A 1_555 1_555
N15A C20A 1_555 1_555
N16A C21A 1_555 1_555
N17A C23A 1_555 1_555
N18A C25A 1_555 1_555
N19A C24A 1_555 1_555
N20A C27A 1_555 1_555
N21A C29A 1_555 1_555
N22A C35 1_555 1_555
N23A C30A 1_555 1_555
N24A C36 1_555 1_555
O11A C19A 1_555 1_555
O12A C25A 1_555 1_555
O13A C31A 1_555 1_555
O14A C22A 1_555 1_555
O15A C28A 1_555 1_555
O16A C34A 1_555 1_555
O1A Eu1A 1_555 1_555
O2A Eu1A 1_555 1_555
O3A Eu1A 1_555 1_555
O4A Eu1A 1_555 1_555
Eu1A O11A 1_555 1_555
Eu1A_2 O5A 1_555 1_555
O5A_2 Eu1A 1_555 1_555
O6A_2 Eu1A 1_555 1_555
C3 N2 1_555 1_555
C4 N4 1_555 1_555
C5 N2 1_555 1_555
C6 N4 1_555 1_555
C7 O6 1_555 1_555
C8 N5 1_555 1_555
C8 N7 1_555 1_555
C9 N6 1_555 1_555
C10 N8 1_555 1_555
C11 N6 1_555 1_555
C12 N8 1_555 1_555
C14 N9 1_555 1_555
C14 N11 1_555 1_555
C15 N10 1_555 1_555
C16 N12 1_555 1_555
C17 N3 1_555 1_555
C18 N12 1_555 1_555
C19 O11 1_555 1_555
C21 N14 1_555 1_555
C22 N16 1_555 1_555
C23 N14 1_555 1_555
C24 N16 1_555 1_555
C25 O12 1_555 1_555
C26 N17 1_555 1_555
C26 N19 1_555 1_555
C27 N18 1_555 1_555
C28 N20 1_555 1_555
C29 N18 1_555 1_555
C30 N20 1_555 1_555
C32 N21 1_555 1_555
C32 N23 1_555 1_555
C33 N22 1_555 1_555
C34 N24 1_555 1_555
C35 N15 1_555 1_555
C36 N13 1_555 1_555
C2A N1A 1_555 1_555
C3A N2A 1_555 1_555
C4A N4A 1_555 1_555
C5A N2A 1_555 1_555
C6A N4A 1_555 1_555
C8A N5A 1_555 1_555
C8A N7A 1_555 1_555
C9A N6A 1_555 1_555
C10A N8A 1_555 1_555
C11A N6A 1_555 1_555
C12A N8A 1_555 1_555
C13A N10A 1_555 1_555
C14A N9A 1_555 1_555
C14A N11A 1_555 1_555
C15A N10A 1_555 1_555
C16A N12A 1_555 1_555
C17A N3A 1_555 1_555
C18A N12A 1_555 1_555
O6A Eu1A_2 1_555 1_555
C21A N14A 1_555 1_555
C22A N16A 1_555 1_555
C23A N14A 1_555 1_555
C24A N16A 1_555 1_555
C26A N17A 1_555 1_555
C26A N19A 1_555 1_555
C27A N18A 1_555 1_555
C28A N20A 1_555 1_555
C29A N18A 1_555 1_555
C30A N20A 1_555 1_555
C31A N22A 1_555 1_555
C32A N21A 1_555 1_555
C32A N23A 1_555 1_555
C33A N22A 1_555 1_555
C33A N24A 1_555 1_555
C34A N24A 1_555 1_555
C35A N15A 1_555 1_555
C36A N13A 1_555 1_555
O12A Eu1A 1_555 1_555

#END
