
#######################################################################
#
#                 Cambridge Crystallographic Data Centre
#                                CCDC 
#
#######################################################################
#
# If this CIF has been generated from an entry in the Cambridge 
# Structural Database, then it will include bibliographic, chemical, 
# crystal, experimental, refinement or atomic coordinate data resulting 
# from the CCDC's data processing and validation procedures.
#
#######################################################################

data_OGANUH
_symmetry_cell_setting           monoclinic
_symmetry_space_group_name_H-M   'P 21/c'
_symmetry_Int_Tables_number      14
_space_group_name_Hall           '-P 2ybc'
loop_
_symmetry_equiv_pos_site_id
_symmetry_equiv_pos_as_xyz
1 x,y,z
2 -x,1/2+y,1/2-z
3 -x,-y,-z
4 x,1/2-y,1/2+z
_cell_length_a                   10.515(2)
_cell_length_b                   10.101(2)
_cell_length_c                   22.705(5)
_cell_angle_alpha                90
_cell_angle_beta                 102.84(3)
_cell_angle_gamma                90
_cell_volume                     2351.24
loop_
_atom_site_label
_atom_site_type_symbol
_atom_site_fract_x
_atom_site_fract_y
_atom_site_fract_z
Ni1 Ni 0.77626(3) 0.73412(3) 0.786778(12)
N1 N 0.7600(2) 0.6659(2) 0.70028(9)
N2 N 0.69479(19) 0.5447(2) 0.61785(9)
N3 N 0.16894(19) -0.1268(2) 0.34789(9)
N4 N -0.02095(19) -0.21779(19) 0.30590(9)
O1 O 0.76734(16) 0.55567(15) 0.82737(8)
O2 O 0.59304(16) 0.43756(17) 0.78164(8)
O3 O 0.77310(17) -0.05662(15) 0.77672(7)
O4 O 0.79823(16) -0.14183(15) 0.86743(7)
O5 O 1.0829(2) 0.15443(17) 1.01758(8)
H1 H 1.1150 0.1609 1.0538
O6 O 1.02567(18) 0.36395(17) 1.02628(8)
O7 O 0.57236(16) 0.74160(17) 0.77770(8)
C1 C 0.6761(2) 0.5763(2) 0.67325(11)
H2 H 0.6116 0.5392 0.6902
C2 C 0.8360(3) 0.6944(3) 0.66008(12)
H3 H 0.9042 0.7550 0.6667
C3 C 0.7973(3) 0.6214(3) 0.60931(12)
H4 H 0.8330 0.6227 0.5753
C4 C 0.6258(2) 0.4455(2) 0.57830(10)
C5 C 0.5087(3) 0.3999(3) 0.58640(14)
H5 H 0.4728 0.4355 0.6168
C6 C 0.4431(3) 0.3011(3) 0.54959(14)
H6 H 0.3643 0.2704 0.5564
C7 C 0.4908(2) 0.2464(2) 0.50295(11)
C8 C 0.6090(3) 0.2946(3) 0.49574(13)
H7 H 0.6447 0.2603 0.4650
C9 C 0.6765(3) 0.3925(3) 0.53276(13)
H8 H 0.7563 0.4224 0.5267
C10 C 0.4150(2) 0.1432(2) 0.46298(11)
C11 C 0.3105(3) 0.0807(3) 0.47982(12)
H9 H 0.2930 0.0995 0.5173
C12 C 0.2323(3) -0.0083(3) 0.44222(12)
H10 H 0.1626 -0.0481 0.4543
C13 C 0.2576(2) -0.0383(2) 0.38658(11)
C14 C 0.3626(2) 0.0183(3) 0.36894(11)
H11 H 0.3808 -0.0032 0.3319
C15 C 0.4409(2) 0.1081(3) 0.40728(11)
H12 H 0.5121 0.1456 0.3955
C16 C 0.0377(2) -0.1201(2) 0.33940(11)
H13 H -0.0060 -0.0539 0.3554
C17 C 0.1955(2) -0.2374(3) 0.31714(11)
H14 H 0.2773 -0.2677 0.3141
C18 C 0.0782(3) -0.2932(3) 0.29222(12)
H15 H 0.0666 -0.3705 0.2694
C19 C 0.7663(2) 0.3311(2) 0.85248(10)
C20 C 0.7444(2) 0.2040(2) 0.82889(10)
H16 H 0.6859 0.1914 0.7920
C21 C 0.8087(2) 0.0950(2) 0.85966(10)
C22 C 0.8948(2) 0.1152(2) 0.91523(10)
H17 H 0.9369 0.0431 0.9365
C23 C 0.9183(2) 0.2419(2) 0.93917(10)
C24 C 0.8546(2) 0.3502(2) 0.90759(10)
H18 H 0.8710 0.4352 0.9233
C25 C 0.7020(2) 0.4507(2) 0.81736(10)
C26 C 0.7916(2) -0.0418(2) 0.83297(10)
C27 C 1.0121(2) 0.2621(2) 0.99874(10)
H19 H 0.5216 0.7937 0.7540
H20 H 0.5471 0.6613 0.7754
Ni1_2 Ni 0.77626(3) -0.26588(3) 0.786778(12)
Ni1C Ni -0.22374(3) -0.23412(3) 0.286778(12)
N4C N 0.97905(19) 0.71779(19) 0.80590(9)
O3_2 O 0.77310(17) 0.94338(15) 0.77672(7)
O4_2 O 0.79823(16) 0.85817(15) 0.86743(7)
loop_
_geom_bond_atom_site_label_1
_geom_bond_atom_site_label_2
_geom_bond_site_symmetry_1
_geom_bond_site_symmetry_2
Ni1 N1 1_555 1_555
N1 C1 1_555 1_555
N2 C1 1_555 1_555
N3 C13 1_555 1_555
N4 C16 1_555 1_555
O1 Ni1 1_555 1_555
O2 C25 1_555 1_555
O3 C26 1_555 1_555
O4 C26 1_555 1_555
O5 H1 1_555 1_555
O6 C27 1_555 1_555
O7 Ni1 1_555 1_555
C1 H2 1_555 1_555
C2 N1 1_555 1_555
H3 C2 1_555 1_555
C3 N2 1_555 1_555
H4 C3 1_555 1_555
C4 N2 1_555 1_555
C5 C4 1_555 1_555
H5 C5 1_555 1_555
C6 C5 1_555 1_555
H6 C6 1_555 1_555
C7 C6 1_555 1_555
C8 C7 1_555 1_555
H7 C8 1_555 1_555
C9 C4 1_555 1_555
H8 C9 1_555 1_555
C10 C7 1_555 1_555
C11 C10 1_555 1_555
H9 C11 1_555 1_555
C12 C11 1_555 1_555
H10 C12 1_555 1_555
C13 C12 1_555 1_555
C14 C13 1_555 1_555
H11 C14 1_555 1_555
C15 C10 1_555 1_555
H12 C15 1_555 1_555
C16 N3 1_555 1_555
H13 C16 1_555 1_555
C17 N3 1_555 1_555
H14 C17 1_555 1_555
C18 N4 1_555 1_555
H15 C18 1_555 1_555
C19 C20 1_555 1_555
C20 H16 1_555 1_555
C21 C20 1_555 1_555
C22 C21 1_555 1_555
H17 C22 1_555 1_555
C23 C22 1_555 1_555
C24 C19 1_555 1_555
H18 C24 1_555 1_555
C25 O1 1_555 1_555
C26 C21 1_555 1_555
C27 O5 1_555 1_555
H19 O7 1_555 1_555
H20 O7 1_555 1_555
Ni1_2 O3 1_555 1_555
Ni1C N4 1_555 1_555
N4C Ni1 1_555 1_555
O3_2 Ni1 1_555 1_555
O4_2 Ni1 1_555 1_555
O4 Ni1_2 1_555 1_555
C2 C3 1_555 1_555
C8 C9 1_555 1_555
C14 C15 1_555 1_555
C17 C18 1_555 1_555
C19 C25 1_555 1_555
C23 C24 1_555 1_555
C23 C27 1_555 1_555

#END
