
#######################################################################
#
#                 Cambridge Crystallographic Data Centre
#                                CCDC 
#
#######################################################################
#
# If this CIF has been generated from an entry in the Cambridge 
# Structural Database, then it will include bibliographic, chemical, 
# crystal, experimental, refinement or atomic coordinate data resulting 
# from the CCDC's data processing and validation procedures.
#
#######################################################################

data_OGANAN
_symmetry_cell_setting           monoclinic
_symmetry_space_group_name_H-M   'P 21/c'
_symmetry_Int_Tables_number      14
_space_group_name_Hall           '-P 2ybc'
loop_
_symmetry_equiv_pos_site_id
_symmetry_equiv_pos_as_xyz
1 x,y,z
2 -x,1/2+y,1/2-z
3 -x,-y,-z
4 x,1/2-y,1/2+z
_cell_length_a                   9.914(7)
_cell_length_b                   5.449(4)
_cell_length_c                   15.142(11)
_cell_angle_alpha                90
_cell_angle_beta                 105.99(3)
_cell_angle_gamma                90
_cell_volume                     786.344
loop_
_atom_site_label
_atom_site_type_symbol
_atom_site_fract_x
_atom_site_fract_y
_atom_site_fract_z
Ni1 Ni 0.04340(5) 0.11932(9) 0.67802(3)
Ni2 Ni 0.5000 0.0000 1.0000
O1 O 0.0800(4) 0.2662(6) 0.55602(19)
H1 H 0.160(2) 0.264(9) 0.549(3)
H2 H 0.025(4) 0.231(9) 0.5056(17)
O2 O 0.1087(3) -0.2193(5) 0.6346(2)
H3 H 0.073(5) -0.321(7) 0.662(3)
H4 H 0.1938(16) -0.236(9) 0.661(3)
O3 O 0.0469(3) -0.0429(5) 0.80259(17)
C1 C 0.1800(4) -0.0180(7) 0.8669(2)
H5 H 0.187(4) 0.080(7) 0.918(3)
C2 C 0.2887(4) 0.1138(6) 0.8258(2)
O4 O 0.2450(3) 0.2035(5) 0.74467(18)
O5 O 0.4143(3) 0.1437(5) 0.87363(18)
C3 C 0.2350(4) -0.2648(7) 0.9156(2)
O6 O 0.1574(3) -0.4528(5) 0.89374(19)
O7 O 0.3511(3) -0.2689(5) 0.97853(19)
O8 O 0.3876(3) 0.2627(6) 1.0632(2)
H6 H 0.381(5) 0.399(4) 1.038(3)
H7 H 0.438(4) 0.292(9) 1.1156(15)
Ni1B Ni 0.95660(5) -0.11932(9) 1.32198(3)
O1B O 0.9200(4) -0.2662(6) 1.44398(19)
H1B H 0.840(2) -0.264(9) 1.451(3)
H2B H 0.975(4) -0.231(9) 1.4944(17)
O2B O 0.8913(3) 0.2193(5) 1.3654(2)
H3B H 0.927(5) 0.321(7) 1.338(3)
H4B H 0.8062(16) 0.236(9) 1.339(3)
O3B O 0.9531(3) 0.0429(5) 1.19741(17)
C1B C 0.8200(4) 0.0180(7) 1.1331(2)
H5B H 0.813(4) -0.080(7) 1.082(3)
C2B C 0.7113(4) -0.1138(6) 1.1742(2)
O4B O 0.7550(3) -0.2035(5) 1.25533(18)
O5B O 0.5857(3) -0.1437(5) 1.12637(18)
C3B C 0.7650(4) 0.2648(7) 1.0844(2)
O6B O 0.8426(3) 0.4528(5) 1.10626(19)
O7B O 0.6489(3) 0.2689(5) 1.02147(19)
O8B O 0.6124(3) -0.2627(6) 0.9368(2)
H6B H 0.619(5) -0.399(4) 0.962(3)
H7B H 0.562(4) -0.292(9) 0.8844(15)
Ni1A Ni -0.04340(5) -0.38068(9) 0.82198(3)
Ni1C Ni 1.04340(5) 0.38068(9) 1.17802(3)
O3A O -0.0469(3) 0.4571(5) 0.69741(17)
O3C O 1.0469(3) -0.4571(5) 1.30259(17)
O6A O -0.1574(3) 0.0472(5) 0.60626(19)
O6C O 1.1574(3) -0.0472(5) 1.39374(19)
O9 O 0.6000(4) 0.1576(6) 0.7537(3)
H8 H 0.561(6) 0.180(10) 0.795(3)
H9 H 0.638(6) 0.021(5) 0.754(4)
loop_
_geom_bond_atom_site_label_1
_geom_bond_atom_site_label_2
_geom_bond_site_symmetry_1
_geom_bond_site_symmetry_2
Ni1 O1 1_555 1_555
Ni2 O5 1_555 1_555
O1 H1 1_555 1_555
H2 O1 1_555 1_555
O2 Ni1 1_555 1_555
H3 O2 1_555 1_555
H4 O2 1_555 1_555
O3 Ni1 1_555 1_555
C1 O3 1_555 1_555
H5 C1 1_555 1_555
C2 C1 1_555 1_555
O4 Ni1 1_555 1_555
O5 C2 1_555 1_555
C3 C1 1_555 1_555
O6 C3 1_555 1_555
O7 Ni2 1_555 1_555
O8 Ni2 1_555 1_555
H6 O8 1_555 1_555
H7 O8 1_555 1_555
O9 H8 1_555 1_555
H9 O9 1_555 1_555
Ni1B O1B 1_555 1_555
O1B H1B 1_555 1_555
H2B O1B 1_555 1_555
O2B Ni1B 1_555 1_555
H3B O2B 1_555 1_555
H4B O2B 1_555 1_555
O3B Ni1B 1_555 1_555
C1B O3B 1_555 1_555
H5B C1B 1_555 1_555
C2B C1B 1_555 1_555
O4B Ni1B 1_555 1_555
O5B Ni2 1_555 1_555
C3B C1B 1_555 1_555
O6B C3B 1_555 1_555
O7B Ni2 1_555 1_555
O8B Ni2 1_555 1_555
H6B O8B 1_555 1_555
H7B O8B 1_555 1_555
Ni1A O3 1_555 1_555
Ni1C O3B 1_555 1_555
O3A Ni1 1_555 1_555
O3C Ni1B 1_555 1_555
O6A Ni1 1_555 1_555
O6C Ni1B 1_555 1_555
C2 O4 1_555 1_555
C3 O7 1_555 1_555
O6 Ni1A 1_555 1_555
C2B O4B 1_555 1_555
C2B O5B 1_555 1_555
C3B O7B 1_555 1_555
O6B Ni1C 1_555 1_555

#END
