
#######################################################################
#
#                 Cambridge Crystallographic Data Centre
#                                CCDC 
#
#######################################################################
#
# If this CIF has been generated from an entry in the Cambridge 
# Structural Database, then it will include bibliographic, chemical, 
# crystal, experimental, refinement or atomic coordinate data resulting 
# from the CCDC's data processing and validation procedures.
#
#######################################################################

data_OGATEX
_symmetry_cell_setting           triclinic
_symmetry_space_group_name_H-M   'P -1'
_symmetry_Int_Tables_number      2
_space_group_name_Hall           '-P 1'
loop_
_symmetry_equiv_pos_site_id
_symmetry_equiv_pos_as_xyz
1 x,y,z
2 -x,-y,-z
_cell_length_a                   8.6015(17)
_cell_length_b                   8.9334(18)
_cell_length_c                   9.6326(19)
_cell_angle_alpha                109.44(3)
_cell_angle_beta                 99.01(3)
_cell_angle_gamma                110.06(3)
_cell_volume                     624.252
loop_
_atom_site_label
_atom_site_type_symbol
_atom_site_fract_x
_atom_site_fract_y
_atom_site_fract_z
H1 H 0.124(7) -0.475(7) 0.640(7)
C1 C 0.5521(6) 0.2918(6) 0.9735(5)
H2 H 0.4994 0.2802 1.0488
C2 C 0.6767(6) 0.4524(6) 0.9990(5)
H3 H 0.7084 0.5491 1.0916
C3 C 0.7131(6) 0.3337(6) 0.7586(6)
H4 H 0.7680 0.3489 0.6853
C4 C 0.5922(6) 0.1718(6) 0.7308(5)
H5 H 0.5683 0.0764 0.6396
O1 O 0.5584(4) 0.5129(4) 0.3381(3)
O2 O -0.0913(4) -0.0162(4) 0.6271(3)
O3 O -0.1180(4) -0.3854(4) 0.5557(3)
Cu1 Cu 0.0000 0.0000 1.0000
Cu2 Cu 0.26198(6) 0.24830(6) 0.51962(6)
P1 P 0.03431(14) -0.28624(13) 0.70282(12)
P2 P 0.09728(13) 0.07171(13) 0.72973(12)
O4 O 0.2073(4) 0.2212(3) 0.6971(3)
O5 O 0.1140(4) 0.1377(4) 0.9007(3)
O6 O -0.0094(4) -0.2238(4) 0.8523(3)
O7 O 0.1304(4) -0.4032(4) 0.7174(4)
O8 O 0.3936(4) 0.2798(4) 0.3702(3)
O9 O 0.2123(4) -0.1414(4) 0.5403(3)
H6 H 0.1564 -0.1103 0.4878
C5 C 0.1895(5) -0.0922(5) 0.6908(4)
C6 C 0.4853(5) 0.4396(5) 0.4151(5)
N1 N 0.7517(5) 0.4690(5) 0.8908(5)
C7 C 0.5051(5) 0.1476(6) 0.8359(5)
C8 C 0.3685(5) -0.0278(5) 0.8092(5)
H7 H 0.3504 -0.0218 0.9075
H8 H 0.4134 -0.1150 0.7745
H9 H 0.810(5) 0.572(3) 0.906(5)
O1A O 0.4416(4) 0.4871(4) 0.6619(3)
O8A O 0.6064(4) 0.7202(4) 0.6298(3)
C6A C 0.5147(5) 0.5604(5) 0.5849(5)
H1A H -0.124(7) 0.475(7) 0.360(7)
C1A C -0.5521(6) -0.2918(6) 0.0265(5)
H2A H -0.4994 -0.2802 -0.0488
C2A C -0.6767(6) -0.4524(6) 0.0010(5)
H3A H -0.7084 -0.5491 -0.0916
C3A C -0.7131(6) -0.3337(6) 0.2414(6)
H4A H -0.7680 -0.3489 0.3147
C4A C -0.5922(6) -0.1718(6) 0.2692(5)
H5A H -0.5683 -0.0764 0.3604
O2A O 0.0913(4) 0.0162(4) 0.3729(3)
O3A O 0.1180(4) 0.3854(4) 0.4443(3)
Cu2A Cu -0.26198(6) -0.24830(6) 0.48038(6)
P1A P -0.03431(14) 0.28624(13) 0.29718(12)
P2A P -0.09728(13) -0.07171(13) 0.27027(12)
O4A O -0.2073(4) -0.2212(3) 0.3029(3)
O5A O -0.1140(4) -0.1377(4) 0.0993(3)
O6A O 0.0094(4) 0.2238(4) 0.1477(3)
O7A O -0.1304(4) 0.4032(4) 0.2826(4)
O9A O -0.2123(4) 0.1414(4) 0.4597(3)
H6A H -0.1564 0.1103 0.5122
C5A C -0.1895(5) 0.0922(5) 0.3092(4)
N1A N -0.7517(5) -0.4690(5) 0.1092(5)
C7A C -0.5051(5) -0.1476(6) 0.1641(5)
C8A C -0.3685(5) 0.0278(5) 0.1908(5)
H7A H -0.3504 0.0218 0.0925
H8A H -0.4134 0.1150 0.2255
H9A H -0.810(5) -0.572(3) 0.094(5)
O1_2 O -0.4416(4) -0.4871(4) 0.3381(3)
Cu1_2 Cu 0.0000 0.0000 0.0000
Cu2A_2 Cu 0.73802(6) 0.75170(6) 0.48038(6)
O5A_2 O -0.1140(4) -0.1377(4) 1.0993(3)
O6A_2 O 0.0094(4) 0.2238(4) 1.1477(3)
O8A_2 O -0.3936(4) -0.2798(4) 0.6298(3)
loop_
_geom_bond_atom_site_label_1
_geom_bond_atom_site_label_2
_geom_bond_site_symmetry_1
_geom_bond_site_symmetry_2
H1 O7 1_555 1_555
C1 H2 1_555 1_555
C2 C1 1_555 1_555
H3 C2 1_555 1_555
C3 H4 1_555 1_555
C4 C3 1_555 1_555
H5 C4 1_555 1_555
O1 C6 1_555 1_555
O2 P2 1_555 1_555
O3 P1 1_555 1_555
Cu1 O5 1_555 1_555
Cu2 O4 1_555 1_555
P1 O6 1_555 1_555
P2 O4 1_555 1_555
O5 P2 1_555 1_555
O6 Cu1 1_555 1_555
O7 P1 1_555 1_555
O8 Cu2 1_555 1_555
O9 H6 1_555 1_555
C5 P1 1_555 1_555
C6 O8 1_555 1_555
N1 C2 1_555 1_555
C7 C1 1_555 1_555
C8 C5 1_555 1_555
H7 C8 1_555 1_555
H8 C8 1_555 1_555
H9 N1 1_555 1_555
O1A Cu2 1_555 1_555
O8A C6A 1_555 1_555
C6A C6 1_555 1_555
H1A O7A 1_555 1_555
C1A H2A 1_555 1_555
C2A C1A 1_555 1_555
H3A C2A 1_555 1_555
C3A H4A 1_555 1_555
C4A C3A 1_555 1_555
H5A C4A 1_555 1_555
O2A Cu2 1_555 1_555
O3A Cu2 1_555 1_555
Cu2A O2 1_555 1_555
P1A O3A 1_555 1_555
P2A O2A 1_555 1_555
O4A Cu2A 1_555 1_555
O5A P2A 1_555 1_555
O6A P1A 1_555 1_555
O7A P1A 1_555 1_555
O9A H6A 1_555 1_555
C5A P1A 1_555 1_555
N1A C2A 1_555 1_555
C7A C1A 1_555 1_555
C8A C5A 1_555 1_555
H7A C8A 1_555 1_555
H8A C8A 1_555 1_555
H9A N1A 1_555 1_555
O1_2 Cu2A 1_555 1_555
Cu1_2 O5A 1_555 1_555
Cu2A_2 O1 1_555 1_555
O5A_2 Cu1 1_555 1_555
O6A_2 Cu1 1_555 1_555
O8A_2 Cu2A 1_555 1_555
C3 N1 1_555 1_555
C4 C7 1_555 1_555
O3 Cu2A 1_555 1_555
P2 C5 1_555 1_555
O9 C5 1_555 1_555
C7 C8 1_555 1_555
O1A C6A 1_555 1_555
O8A Cu2A_2 1_555 1_555
C3A N1A 1_555 1_555
C4A C7A 1_555 1_555
P2A O4A 1_555 1_555
P2A C5A 1_555 1_555
O6A Cu1_2 1_555 1_555
O9A C5A 1_555 1_555
C7A C8A 1_555 1_555

#END
