
#######################################################################
#
#                 Cambridge Crystallographic Data Centre
#                                CCDC 
#
#######################################################################
#
# If this CIF has been generated from an entry in the Cambridge 
# Structural Database, then it will include bibliographic, chemical, 
# crystal, experimental, refinement or atomic coordinate data resulting 
# from the CCDC's data processing and validation procedures.
#
#######################################################################

data_OGATOH
_symmetry_cell_setting           triclinic
_symmetry_space_group_name_H-M   'P -1'
_symmetry_Int_Tables_number      2
_space_group_name_Hall           '-P 1'
loop_
_symmetry_equiv_pos_site_id
_symmetry_equiv_pos_as_xyz
1 x,y,z
2 -x,-y,-z
_cell_length_a                   7.2146(14)
_cell_length_b                   9.3580(19)
_cell_length_c                   11.945(2)
_cell_angle_alpha                93.03(3)
_cell_angle_beta                 107.48(3)
_cell_angle_gamma                110.72(3)
_cell_volume                     707.926
loop_
_atom_site_label
_atom_site_type_symbol
_atom_site_fract_x
_atom_site_fract_y
_atom_site_fract_z
Co1 Co 0.10495(14) 0.27295(10) -0.04085(8)
P1 P 0.2224(3) 0.0763(2) 0.17913(15)
P2 P -0.1344(3) 0.1928(2) 0.15694(15)
O1 O 0.2358(7) 0.1331(5) 0.0641(4)
O2 O 0.0932(7) -0.0912(5) 0.1711(4)
O3 O 0.4480(7) 0.1121(6) 0.2692(4)
H1 H 0.556(11) 0.161(8) 0.252(6)
O4 O -0.0865(7) 0.2736(5) 0.0562(4)
O5 O -0.2912(7) 0.0192(5) 0.1126(4)
H2 H -0.277(11) -0.023(8) 0.057(4)
O6 O -0.2200(7) 0.2705(5) 0.2304(4)
O7 O 0.2676(8) 0.3530(5) 0.2909(4)
H3 H 0.2915 0.3864 0.2324
O8 O 0.3366(7) 0.4713(5) 0.0851(4)
O9 O 0.6532(7) 0.6567(5) 0.1172(4)
O10 O -0.0323(8) 0.4154(6) -0.1452(4)
H4 H 0.023(12) 0.513(9) -0.110(7)
H5 H -0.157(5) 0.370(9) -0.163(7)
N1 N 0.0423(14) 0.4035(11) 0.6383(7)
H6 H 0.034(15) 0.454(10) 0.696(6)
C1 C 0.0750(11) 0.2302(8) 0.4619(6)
C2 C -0.1119(13) 0.1883(10) 0.4853(7)
H7 H -0.2286 0.1007 0.4400
C3 C -0.1233(14) 0.2769(12) 0.5760(8)
H8 H -0.2471 0.2484 0.5938
C4 C 0.2200(15) 0.4479(11) 0.6184(7)
H9 H 0.3315 0.5386 0.6634
C5 C 0.2440(13) 0.3614(9) 0.5308(7)
H10 H 0.3725 0.3911 0.5182
C6 C 0.1007(12) 0.1274(8) 0.3679(6)
H11 H 0.2262 0.1072 0.4050
H12 H -0.0188 0.0286 0.3446
C7 C 0.1178(10) 0.1927(8) 0.2549(6)
C8 C 0.4989(11) 0.5380(8) 0.0588(6)
O8A O 0.6634(7) 0.5287(5) -0.0851(4)
O9A O 0.3468(7) 0.3433(5) -0.1172(4)
C8A C 0.5011(11) 0.4620(8) -0.0588(6)
Co1A Co -0.10495(14) -0.27295(10) 0.04085(8)
P1A P -0.2224(3) -0.0763(2) -0.17913(15)
P2A P 0.1344(3) -0.1928(2) -0.15694(15)
O1A O -0.2358(7) -0.1331(5) -0.0641(4)
O2A O -0.0932(7) 0.0912(5) -0.1711(4)
O3A O -0.4480(7) -0.1121(6) -0.2692(4)
H1A H -0.556(11) -0.161(8) -0.252(6)
O4A O 0.0865(7) -0.2736(5) -0.0562(4)
O5A O 0.2912(7) -0.0192(5) -0.1126(4)
H2A H 0.277(11) 0.023(8) -0.057(4)
O6A O 0.2200(7) -0.2705(5) -0.2304(4)
O7A O -0.2676(8) -0.3530(5) -0.2909(4)
H3A H -0.2915 -0.3864 -0.2324
O10A O 0.0323(8) -0.4154(6) 0.1452(4)
H4A H -0.023(12) -0.513(9) 0.110(7)
H5A H 0.157(5) -0.370(9) 0.163(7)
N1A N -0.0423(14) -0.4035(11) -0.6383(7)
H6A H -0.034(15) -0.454(10) -0.696(6)
C1A C -0.0750(11) -0.2302(8) -0.4619(6)
C2A C 0.1119(13) -0.1883(10) -0.4853(7)
H7A H 0.2286 -0.1007 -0.4400
C3A C 0.1233(14) -0.2769(12) -0.5760(8)
H8A H 0.2471 -0.2484 -0.5938
C4A C -0.2200(15) -0.4479(11) -0.6184(7)
H9A H -0.3315 -0.5386 -0.6634
C5A C -0.2440(13) -0.3614(9) -0.5308(7)
H10A H -0.3725 -0.3911 -0.5182
C6A C -0.1007(12) -0.1274(8) -0.3679(6)
H11A H -0.2262 -0.1072 -0.4050
H12A H 0.0188 -0.0286 -0.3446
C7A C -0.1178(10) -0.1927(8) -0.2549(6)
Co1A_2 Co 0.89505(14) 0.72705(10) 0.04085(8)
O8A_2 O -0.3366(7) -0.4713(5) -0.0851(4)
O9_2 O -0.3468(7) -0.3433(5) 0.1172(4)
O11 O 0.4718(11) -0.2108(7) 0.2671(6)
H13 H 0.511(16) -0.252(10) 0.221(7)
H14 H 0.437(15) -0.132(8) 0.260(8)
loop_
_geom_bond_atom_site_label_1
_geom_bond_atom_site_label_2
_geom_bond_site_symmetry_1
_geom_bond_site_symmetry_2
Co1 O1 1_555 1_555
P1 O1 1_555 1_555
P2 O4 1_555 1_555
O2 P1 1_555 1_555
O3 P1 1_555 1_555
H1 O3 1_555 1_555
O4 Co1 1_555 1_555
O5 P2 1_555 1_555
H2 O5 1_555 1_555
O6 P2 1_555 1_555
O7 H3 1_555 1_555
O8 Co1 1_555 1_555
O9 C8 1_555 1_555
O10 Co1 1_555 1_555
H4 O10 1_555 1_555
H5 O10 1_555 1_555
N1 H6 1_555 1_555
C1 C2 1_555 1_555
C2 H7 1_555 1_555
C3 N1 1_555 1_555
H8 C3 1_555 1_555
C4 N1 1_555 1_555
H9 C4 1_555 1_555
C5 C1 1_555 1_555
H10 C5 1_555 1_555
C6 C1 1_555 1_555
H11 C6 1_555 1_555
H12 C6 1_555 1_555
C7 P1 1_555 1_555
C8 O8 1_555 1_555
O11 H13 1_555 1_555
H14 O11 1_555 1_555
O8A C8A 1_555 1_555
O9A Co1 1_555 1_555
C8A C8 1_555 1_555
Co1A O2 1_555 1_555
P1A O1A 1_555 1_555
P2A O4A 1_555 1_555
O1A Co1A 1_555 1_555
O2A Co1 1_555 1_555
O3A P1A 1_555 1_555
H1A O3A 1_555 1_555
O4A Co1A 1_555 1_555
O5A P2A 1_555 1_555
H2A O5A 1_555 1_555
O6A P2A 1_555 1_555
O7A H3A 1_555 1_555
O10A Co1A 1_555 1_555
H4A O10A 1_555 1_555
H5A O10A 1_555 1_555
N1A H6A 1_555 1_555
C1A C2A 1_555 1_555
C2A H7A 1_555 1_555
C3A N1A 1_555 1_555
H8A C3A 1_555 1_555
C4A N1A 1_555 1_555
H9A C4A 1_555 1_555
C5A C1A 1_555 1_555
H10A C5A 1_555 1_555
C6A C1A 1_555 1_555
H11A C6A 1_555 1_555
H12A C6A 1_555 1_555
C7A P1A 1_555 1_555
Co1A_2 O9 1_555 1_555
O8A_2 Co1A 1_555 1_555
O9_2 Co1A 1_555 1_555
P2 C7 1_555 1_555
O7 C7 1_555 1_555
C2 C3 1_555 1_555
C4 C5 1_555 1_555
C6 C7 1_555 1_555
O8A Co1A_2 1_555 1_555
O9A C8A 1_555 1_555
P1A O2A 1_555 1_555
P2A C7A 1_555 1_555
O7A C7A 1_555 1_555
C2A C3A 1_555 1_555
C4A C5A 1_555 1_555
C6A C7A 1_555 1_555

#END
