
#######################################################################
#
#                 Cambridge Crystallographic Data Centre
#                                CCDC 
#
#######################################################################
#
# If this CIF has been generated from an entry in the Cambridge 
# Structural Database, then it will include bibliographic, chemical, 
# crystal, experimental, refinement or atomic coordinate data resulting 
# from the CCDC's data processing and validation procedures.
#
#######################################################################

data_OGAVOH
_symmetry_cell_setting           triclinic
_symmetry_space_group_name_H-M   'P -1'
_symmetry_Int_Tables_number      2
_space_group_name_Hall           '-P 1'
loop_
_symmetry_equiv_pos_site_id
_symmetry_equiv_pos_as_xyz
1 x,y,z
2 -x,-y,-z
_cell_length_a                   8.640(3)
_cell_length_b                   9.085(3)
_cell_length_c                   9.357(3)
_cell_angle_alpha                116.025(5)
_cell_angle_beta                 116.042(5)
_cell_angle_gamma                93.139(6)
_cell_volume                     564.467
loop_
_atom_site_label
_atom_site_type_symbol
_atom_site_fract_x
_atom_site_fract_y
_atom_site_fract_z
Ag1 Ag 0.14906(6) 0.15764(5) 0.25777(6)
O1 O 0.1543(7) 0.0661(6) -0.0138(6)
O2 O 0.3398(13) 0.3159(8) 0.0950(10)
C1 C 0.2606(10) 0.1667(9) -0.0127(9)
C2 C 0.2983(14) 0.0662(18) -0.1741(14)
F1 F 0.4258(10) 0.1614(12) -0.1614(9)
F2 F 0.1518(10) 0.0101(13) -0.3325(7)
F3 F 0.3398(14) -0.0792(13) -0.1836(14)
N1 N 0.0642(6) 0.3773(5) 0.4120(6)
C3 C 0.1265(7) 0.4460(6) 0.5923(7)
C4 C -0.0628(8) 0.4297(6) 0.3164(7)
C5 C 0.2681(14) 0.3973(13) 0.7031(14)
H1 H 0.3864 0.4637 0.7412
H2 H 0.2500 0.2742 0.6291
H3 H 0.2631 0.4210 0.8135
C6 C -0.1330(10) 0.3532(9) 0.1124(9)
H4 H -0.2240 0.2409 0.0418
H5 H -0.0327 0.3388 0.0899
H6 H -0.1878 0.4301 0.0727
N2 N 0.3671(7) 0.0551(5) 0.4048(6)
C7 C 0.3257(8) -0.0946(6) 0.3956(8)
C8 C 0.5416(8) 0.1514(6) 0.5090(8)
C9 C 0.1458(17) -0.1971(17) 0.2974(17)
H7 H 0.0673 -0.1577 0.2178
H8 H 0.1088 -0.1881 0.3853
H9 H 0.1354 -0.3172 0.2205
C10 C 0.5879(10) 0.3173(7) 0.5175(11)
H10 H 0.4766 0.3365 0.4459
H11 H 0.6654 0.3119 0.4652
H12 H 0.6522 0.4122 0.6471
C4A C 0.0628(8) 0.5703(6) 0.6836(7)
N1A N -0.0642(6) 0.6227(5) 0.5880(6)
C3A C -0.1265(7) 0.5540(6) 0.4077(7)
C5A C -0.2681(14) 0.6027(13) 0.2969(14)
H1A H -0.3864 0.5363 0.2588
H2A H -0.2500 0.7258 0.3709
H3A H -0.2631 0.5790 0.1865
C6A C 0.1330(10) 0.6468(9) 0.8876(9)
H4A H 0.2240 0.7591 0.9582
H5A H 0.0327 0.6612 0.9101
H6A H 0.1878 0.5699 0.9273
C8A C 0.4584(8) -0.1514(6) 0.4910(8)
N2A N 0.6329(7) -0.0551(5) 0.5952(6)
C7A C 0.6743(8) 0.0946(6) 0.6044(8)
C9A C 0.8542(17) 0.1971(17) 0.7026(17)
H7A H 0.9327 0.1577 0.7822
H8A H 0.8912 0.1881 0.6147
H9A H 0.8646 0.3172 0.7795
C10A C 0.4121(10) -0.3173(7) 0.4825(11)
H10A H 0.5234 -0.3365 0.5541
H11A H 0.3346 -0.3119 0.5348
H12A H 0.3478 -0.4122 0.3529
O1A O -0.1543(7) -0.0661(6) 0.0138(6)
O2A O -0.3398(13) -0.3159(8) -0.0950(10)
C1A C -0.2606(10) -0.1667(9) 0.0127(9)
C2A C -0.2983(14) -0.0662(18) 0.1741(14)
F1A F -0.4258(10) -0.1614(12) 0.1614(9)
F2A F -0.1518(10) -0.0101(13) 0.3325(7)
F3A F -0.3398(14) 0.0792(13) 0.1836(14)
Ag1A Ag -0.14906(6) -0.15764(5) -0.25777(6)
Ag1A_2 Ag -0.14906(6) 0.84236(5) 0.74223(6)
Ag1A_3 Ag 0.85094(6) -0.15764(5) 0.74223(6)
N1A_2 N -0.0642(6) -0.3773(5) -0.4120(6)
N2A_2 N -0.3671(7) -0.0551(5) -0.4048(6)
loop_
_geom_bond_atom_site_label_1
_geom_bond_atom_site_label_2
_geom_bond_site_symmetry_1
_geom_bond_site_symmetry_2
Ag1 O1 1_555 1_555
O1 C1 1_555 1_555
O2 C1 1_555 1_555
C1 C2 1_555 1_555
C2 F1 1_555 1_555
F2 C2 1_555 1_555
F3 C2 1_555 1_555
N1 Ag1 1_555 1_555
C3 N1 1_555 1_555
C4 N1 1_555 1_555
C5 C3 1_555 1_555
H1 C5 1_555 1_555
H2 C5 1_555 1_555
H3 C5 1_555 1_555
C6 C4 1_555 1_555
H4 C6 1_555 1_555
H5 C6 1_555 1_555
H6 C6 1_555 1_555
N2 Ag1 1_555 1_555
C7 N2 1_555 1_555
C8 N2 1_555 1_555
C9 C7 1_555 1_555
H7 C9 1_555 1_555
H8 C9 1_555 1_555
H9 C9 1_555 1_555
C10 C8 1_555 1_555
H10 C10 1_555 1_555
H11 C10 1_555 1_555
H12 C10 1_555 1_555
C4A C3 1_555 1_555
N1A C4A 1_555 1_555
C3A C4 1_555 1_555
C5A C3A 1_555 1_555
H1A C5A 1_555 1_555
H2A C5A 1_555 1_555
H3A C5A 1_555 1_555
C6A C4A 1_555 1_555
H4A C6A 1_555 1_555
H5A C6A 1_555 1_555
H6A C6A 1_555 1_555
C8A C7 1_555 1_555
N2A C8A 1_555 1_555
C7A C8 1_555 1_555
C9A C7A 1_555 1_555
H7A C9A 1_555 1_555
H8A C9A 1_555 1_555
H9A C9A 1_555 1_555
C10A C8A 1_555 1_555
H10A C10A 1_555 1_555
H11A C10A 1_555 1_555
H12A C10A 1_555 1_555
O1A Ag1 1_555 1_555
O2A C1A 1_555 1_555
C1A O1A 1_555 1_555
C2A C1A 1_555 1_555
F1A C2A 1_555 1_555
F2A C2A 1_555 1_555
F3A C2A 1_555 1_555
Ag1A O1 1_555 1_555
Ag1A_2 N1A 1_555 1_555
Ag1A_3 N2A 1_555 1_555
N1A_2 Ag1A 1_555 1_555
N2A_2 Ag1A 1_555 1_555
N1A C3A 1_555 1_555
N2A C7A 1_555 1_555
O1A Ag1A 1_555 1_555

#END
