
#######################################################################
#
#                 Cambridge Crystallographic Data Centre
#                                CCDC 
#
#######################################################################
#
# If this CIF has been generated from an entry in the Cambridge 
# Structural Database, then it will include bibliographic, chemical, 
# crystal, experimental, refinement or atomic coordinate data resulting 
# from the CCDC's data processing and validation procedures.
#
#######################################################################

data_OGAVIB
_symmetry_cell_setting           triclinic
_symmetry_space_group_name_H-M   'P -1'
_symmetry_Int_Tables_number      2
_space_group_name_Hall           '-P 1'
loop_
_symmetry_equiv_pos_site_id
_symmetry_equiv_pos_as_xyz
1 x,y,z
2 -x,-y,-z
_cell_length_a                   7.8154(1)
_cell_length_b                   8.6472(1)
_cell_length_c                   8.6793(1)
_cell_angle_alpha                106.389(1)
_cell_angle_beta                 112.213(1)
_cell_angle_gamma                105.006(1)
_cell_volume                     474.782
loop_
_atom_site_label
_atom_site_type_symbol
_atom_site_fract_x
_atom_site_fract_y
_atom_site_fract_z
Ag1 Ag 0.48109(3) 0.85597(3) 0.14205(3)
F1 F 1.0267(4) 1.3515(4) 0.1061(4)
F2 F 1.2516(3) 1.3256(4) 0.3117(6)
F3 F 1.0630(6) 1.4438(4) 0.3681(5)
O1 O 0.7385(3) 1.1256(3) 0.1604(4)
O2 O 0.9715(5) 1.0166(4) 0.2022(7)
N1 N 0.6007(4) 0.6753(3) 0.0260(3)
H1 H 0.702(6) 0.756(5) 0.023(5)
N2 N 0.3717(3) 0.9835(3) 0.3216(3)
H2 H 0.273(6) 0.998(5) 0.256(5)
C1 C 0.4520(5) 0.5351(4) -0.1585(4)
H3 H 0.5202 0.4784 -0.2127
H4 H 0.3848 0.5855 -0.2365
C2 C 0.7026(4) 0.5998(4) 0.1454(4)
H5 H 0.8008 0.6932 0.2670
H6 H 0.7744 0.5439 0.0956
C3 C 0.5346(4) 1.1555(3) 0.4688(4)
H7 H 0.4811 1.2175 0.5374
H8 H 0.5854 1.2277 0.4151
C4 C 0.2952(4) 0.8735(4) 0.4037(4)
H9 H 0.1885 0.7604 0.3072
H10 H 0.2387 0.9318 0.4715
C5 C 0.9089(4) 1.1306(4) 0.1982(4)
C6 C 1.0658(4) 1.3126(4) 0.2495(5)
O1A O 0.2615(3) 0.8744(3) -0.1604(4)
Ag1A Ag 0.51891(3) 1.14403(3) -0.14205(3)
C2A C 0.2974(4) 0.4002(4) -0.1454(4)
C1A C 0.5480(5) 0.4649(4) 0.1585(4)
C4A C 0.7048(4) 1.1265(4) 0.5963(4)
C3A C 0.4654(4) 0.8445(3) 0.5312(4)
C5A C 0.0911(4) 0.8694(4) -0.1982(4)
N1A N 0.3993(4) 1.3247(3) -0.0260(3)
N2A N 0.6283(3) 1.0165(3) -0.3216(3)
N1A_2 N 0.3993(4) 0.3247(3) -0.0260(3)
H5A H 0.1992 0.3068 -0.2670
H6A H 0.2256 0.4561 -0.0956
H3A H 0.4798 0.5216 0.2127
H4A H 0.6152 0.4145 0.2365
N2A_2 N 0.6283(3) 1.0165(3) 0.6784(3)
H9A H 0.8115 1.2396 0.6928
H10A H 0.7613 1.0682 0.5285
H7A H 0.5189 0.7825 0.4626
H8A H 0.4146 0.7723 0.5849
O2A O 0.0285(5) 0.9834(4) -0.2022(7)
C6A C -0.0658(4) 0.6874(4) -0.2495(5)
H1A H 0.298(6) 1.244(5) -0.023(5)
H2A H 0.727(6) 1.002(5) -0.256(5)
Ag1A_2 Ag 0.51891(3) 0.14403(3) -0.14205(3)
H1A_2 H 0.298(6) 0.244(5) -0.023(5)
Ag1A_3 Ag 0.51891(3) 1.14403(3) 0.85795(3)
H2A_2 H 0.727(6) 1.002(5) 0.744(5)
F1A F -0.0267(4) 0.6485(4) -0.1061(4)
F2A F -0.2516(3) 0.6744(4) -0.3117(6)
F3A F -0.0630(6) 0.5562(4) -0.3681(5)
loop_
_geom_bond_atom_site_label_1
_geom_bond_atom_site_label_2
_geom_bond_site_symmetry_1
_geom_bond_site_symmetry_2
Ag1 O1 1_555 1_555
F1 C6 1_555 1_555
F2 C6 1_555 1_555
F3 C6 1_555 1_555
O1 C5 1_555 1_555
O2 C5 1_555 1_555
N1 Ag1 1_555 1_555
H1 N1 1_555 1_555
N2 Ag1 1_555 1_555
H2 N2 1_555 1_555
C1 N1 1_555 1_555
H3 C1 1_555 1_555
H4 C1 1_555 1_555
C2 N1 1_555 1_555
H5 C2 1_555 1_555
H6 C2 1_555 1_555
C3 N2 1_555 1_555
H7 C3 1_555 1_555
H8 C3 1_555 1_555
C4 N2 1_555 1_555
H9 C4 1_555 1_555
H10 C4 1_555 1_555
C5 C6 1_555 1_555
O1A Ag1 1_555 1_555
Ag1A O1 1_555 1_555
C2A C1 1_555 1_555
C1A C2 1_555 1_555
C4A C3 1_555 1_555
C3A C4 1_555 1_555
C5A O1A 1_555 1_555
N1A Ag1A 1_555 1_555
N2A Ag1A 1_555 1_555
N1A_2 C2A 1_555 1_555
H5A C2A 1_555 1_555
H6A C2A 1_555 1_555
H3A C1A 1_555 1_555
H4A C1A 1_555 1_555
N2A_2 C4A 1_555 1_555
H9A C4A 1_555 1_555
H10A C4A 1_555 1_555
H7A C3A 1_555 1_555
H8A C3A 1_555 1_555
O2A C5A 1_555 1_555
C6A C5A 1_555 1_555
H1A N1A 1_555 1_555
H2A N2A 1_555 1_555
Ag1A_2 N1A_2 1_555 1_555
H1A_2 N1A_2 1_555 1_555
Ag1A_3 N2A_2 1_555 1_555
H2A_2 N2A_2 1_555 1_555
F1A C6A 1_555 1_555
F2A C6A 1_555 1_555
F3A C6A 1_555 1_555
O1A Ag1A 1_555 1_555
C1A N1A_2 1_555 1_555
C3A N2A_2 1_555 1_555

#END
