
#######################################################################
#
#                 Cambridge Crystallographic Data Centre
#                                CCDC 
#
#######################################################################
#
# If this CIF has been generated from an entry in the Cambridge 
# Structural Database, then it will include bibliographic, chemical, 
# crystal, experimental, refinement or atomic coordinate data resulting 
# from the CCDC's data processing and validation procedures.
#
#######################################################################

data_OGAVAV
_symmetry_cell_setting           triclinic
_symmetry_space_group_name_H-M   'P -1'
_symmetry_Int_Tables_number      2
_space_group_name_Hall           '-P 1'
loop_
_symmetry_equiv_pos_site_id
_symmetry_equiv_pos_as_xyz
1 x,y,z
2 -x,-y,-z
_cell_length_a                   8.8776(18)
_cell_length_b                   8.9196(18)
_cell_length_c                   9.984(2)
_cell_angle_alpha                98.89(3)
_cell_angle_beta                 108.72(3)
_cell_angle_gamma                110.34(3)
_cell_volume                     669.81
loop_
_atom_site_label
_atom_site_type_symbol
_atom_site_fract_x
_atom_site_fract_y
_atom_site_fract_z
O1 O 0.5164(5) -0.0720(5) 0.6545(4)
O2 O 1.2305(5) 0.7177(5) 0.7003(4)
O3 O 0.7614(5) 0.4742(5) 0.8358(4)
Co1 Co 1.0000 0.5000 1.0000
Co2 Co 0.74823(10) 0.26425(10) 0.48424(9)
P1 P 0.71355(19) 0.52994(19) 0.69900(16)
P2 P 1.08333(18) 0.60419(19) 0.73368(16)
O4 O 0.9956(5) 0.4248(4) 0.6310(4)
O5 O 1.1487(5) 0.6158(5) 0.8970(4)
O6 O 0.7280(5) 0.1017(5) 0.6044(4)
O7 O 0.8667(6) 0.7090(6) 0.5489(5)
H1 H 0.8935 0.6511 0.4972
O8 O 0.6227(5) 0.3906(5) 0.5521(4)
O9 O 0.5913(5) 0.6169(6) 0.7090(4)
O10 O 1.0192(5) 0.7343(5) 1.1168(4)
H2 H 1.1120 0.7797 1.1964
H3 H 0.9301 0.7168 1.1375
C1 C 0.9135(7) 0.6855(7) 0.6957(6)
C2 C 1.2827(8) 1.0460(8) 0.9657(7)
H4 H 1.2669 1.0007 1.0407
C3 C 0.9686(7) 0.8554(7) 0.8018(7)
H5 H 0.8793 0.8950 0.7635
H6 H 0.9705 0.8399 0.8963
C4 C 1.1445(8) 0.9909(7) 0.8294(7)
N1 N 1.4703(7) 1.2365(7) 0.8841(7)
C5 C 1.3361(10) 1.1880(9) 0.7520(8)
H7 H 1.3528 1.2375 0.6794
C6 C 1.1750(8) 1.0661(8) 0.7236(7)
H8 H 1.0840 1.0330 0.6311
C7 C 1.4457(9) 1.1692(9) 0.9915(8)
H9 H 1.5385 1.2054 1.0836
C8 C 0.5691(8) 0.0067(7) 0.5752(6)
H10 H 0.536(9) 0.616(9) 0.644(7)
O1A O 0.4836(5) 0.0720(5) 0.3455(4)
O6A O 0.2720(5) -0.1017(5) 0.3956(4)
C8A C 0.4309(8) -0.0067(7) 0.4248(6)
O2A O -0.2305(5) -0.7177(5) 0.2997(4)
O3A O 0.2386(5) -0.4742(5) 0.1642(4)
Co2A Co 0.25177(10) -0.26425(10) 0.51576(9)
P1A P 0.28645(19) -0.52994(19) 0.30100(16)
P2A P -0.08333(18) -0.60419(19) 0.26632(16)
O4A O 0.0044(5) -0.4248(4) 0.3690(4)
O5A O -0.1487(5) -0.6158(5) 0.1030(4)
O7A O 0.1333(6) -0.7090(6) 0.4511(5)
H1A H 0.1065 -0.6511 0.5028
O8A O 0.3773(5) -0.3906(5) 0.4479(4)
O9A O 0.4087(5) -0.6169(6) 0.2910(4)
C1A C 0.0865(7) -0.6855(7) 0.3043(6)
C2A C -0.2827(8) -1.0460(8) 0.0343(7)
H4A H -0.2669 -1.0007 -0.0407
C3A C 0.0314(7) -0.8554(7) 0.1982(7)
H5A H 0.1207 -0.8950 0.2365
H6A H 0.0295 -0.8399 0.1037
C4A C -0.1445(8) -0.9909(7) 0.1706(7)
N1A N -0.4703(7) -1.2365(7) 0.1159(7)
C5A C -0.3361(10) -1.1880(9) 0.2480(8)
H7A H -0.3528 -1.2375 0.3206
C6A C -0.1750(8) -1.0661(8) 0.2764(7)
H8A H -0.0840 -1.0330 0.3689
C7A C -0.4457(9) -1.1692(9) 0.0085(8)
H9A H -0.5385 -1.2054 -0.0836
H10A H 0.464(9) -0.616(9) 0.356(7)
O10A O 0.9808(5) 0.2657(5) 0.8832(4)
H2A H 0.8880 0.2203 0.8036
H3A H 1.0699 0.2832 0.8625
O2_2 O 0.2305(5) -0.2823(5) 0.7003(4)
O2A_2 O 0.7695(5) 0.2823(5) 0.2997(4)
O3A_2 O 1.2386(5) 0.5258(5) 1.1642(4)
Co1_2 Co 0.0000 -0.5000 0.0000
Co2_2 Co -0.25177(10) -0.73575(10) 0.48424(9)
Co2A_2 Co 1.25177(10) 0.73575(10) 0.51576(9)
O5A_2 O 0.8513(5) 0.3842(5) 1.1030(4)
loop_
_geom_bond_atom_site_label_1
_geom_bond_atom_site_label_2
_geom_bond_site_symmetry_1
_geom_bond_site_symmetry_2
O1 C8 1_555 1_555
O2 P2 1_555 1_555
O3 Co1 1_555 1_555
Co1 O5 1_555 1_555
Co2 O4 1_555 1_555
P1 O3 1_555 1_555
P2 O4 1_555 1_555
O5 P2 1_555 1_555
O6 Co2 1_555 1_555
O7 H1 1_555 1_555
O8 Co2 1_555 1_555
O9 P1 1_555 1_555
O10 Co1 1_555 1_555
H2 O10 1_555 1_555
H3 O10 1_555 1_555
C1 P1 1_555 1_555
C2 H4 1_555 1_555
C3 C1 1_555 1_555
H5 C3 1_555 1_555
H6 C3 1_555 1_555
C4 C2 1_555 1_555
N1 C5 1_555 1_555
C5 H7 1_555 1_555
C6 C4 1_555 1_555
H8 C6 1_555 1_555
C7 C2 1_555 1_555
H9 C7 1_555 1_555
C8 O6 1_555 1_555
H10 O9 1_555 1_555
O1A Co2 1_555 1_555
O6A C8A 1_555 1_555
C8A C8 1_555 1_555
O2A P2A 1_555 1_555
O3A P1A 1_555 1_555
Co2A O1 1_555 1_555
P1A O8A 1_555 1_555
P2A O4A 1_555 1_555
O4A Co2A 1_555 1_555
O5A P2A 1_555 1_555
O7A H1A 1_555 1_555
O8A Co2A 1_555 1_555
O9A P1A 1_555 1_555
C1A P1A 1_555 1_555
C2A H4A 1_555 1_555
C3A C1A 1_555 1_555
H5A C3A 1_555 1_555
H6A C3A 1_555 1_555
C4A C2A 1_555 1_555
N1A C5A 1_555 1_555
C5A H7A 1_555 1_555
C6A C4A 1_555 1_555
H8A C6A 1_555 1_555
C7A C2A 1_555 1_555
H9A C7A 1_555 1_555
H10A O9A 1_555 1_555
O10A Co1 1_555 1_555
H2A O10A 1_555 1_555
H3A O10A 1_555 1_555
O2_2 Co2A 1_555 1_555
O2A_2 Co2 1_555 1_555
O3A_2 Co1 1_555 1_555
Co1_2 O3A 1_555 1_555
Co2_2 O2A 1_555 1_555
Co2A_2 O2 1_555 1_555
O5A_2 Co1 1_555 1_555
P1 O8 1_555 1_555
P2 C1 1_555 1_555
O7 C1 1_555 1_555
C3 C4 1_555 1_555
N1 C7 1_555 1_555
C5 C6 1_555 1_555
O1A C8A 1_555 1_555
O6A Co2A 1_555 1_555
P2A C1A 1_555 1_555
O5A Co1_2 1_555 1_555
O7A C1A 1_555 1_555
C3A C4A 1_555 1_555
N1A C7A 1_555 1_555
C5A C6A 1_555 1_555

#END
