
#######################################################################
#
#                 Cambridge Crystallographic Data Centre
#                                CCDC 
#
#######################################################################
#
# If this CIF has been generated from an entry in the Cambridge 
# Structural Database, then it will include bibliographic, chemical, 
# crystal, experimental, refinement or atomic coordinate data resulting 
# from the CCDC's data processing and validation procedures.
#
#######################################################################

data_OGAXIF
_symmetry_cell_setting           triclinic
_symmetry_space_group_name_H-M   'P -1'
_symmetry_Int_Tables_number      2
_space_group_name_Hall           '-P 1'
loop_
_symmetry_equiv_pos_site_id
_symmetry_equiv_pos_as_xyz
1 x,y,z
2 -x,-y,-z
_cell_length_a                   10.2357(8)
_cell_length_b                   12.9432(9)
_cell_length_c                   13.4154(10)
_cell_angle_alpha                77.7320(10)
_cell_angle_beta                 67.9080(10)
_cell_angle_gamma                82.3560(10)
_cell_volume                     1606.44
loop_
_atom_site_label
_atom_site_type_symbol
_atom_site_fract_x
_atom_site_fract_y
_atom_site_fract_z
Mo1 Mo 0.84200(11) 0.63424(8) 0.22433(8)
Mo2 Mo 0.80226(10) 0.32474(8) -0.05079(9)
Mo3 Mo 1.10962(10) 0.42875(8) 0.22890(8)
Mo4 Mo 0.64869(10) 0.44777(8) 0.18292(8)
Mo5 Mo 0.72031(10) 0.69514(7) 0.00263(8)
Mo6 Mo 0.92726(10) 0.24840(7) 0.16927(7)
P1 P 1.0000 0.5000 0.0000
O1 O 0.8927(13) 0.4104(10) 0.0566(10)
O2 O 1.0294(12) 0.5381(9) 0.0913(10)
O3 O 0.771(3) 0.350(3) 0.2166(19)
O4 O 0.678(3) 0.5405(17) 0.2694(17)
O5 O 0.6645(11) 0.3853(8) 0.0604(8)
O6 O 0.953(2) 0.5209(15) 0.301(3)
O7 O 0.7899(10) 0.4478(7) -0.1528(9)
O8 O 0.8638(10) 0.2352(8) 0.0583(8)
O9 O 0.8883(8) 0.7756(7) -0.0837(7)
O10 O 1.1576(9) 0.3962(8) 0.3371(7)
O11 O 0.9909(8) 0.3172(7) 0.2546(7)
O12 O 0.7697(9) 0.6903(6) 0.3342(6)
O13 O 1.2517(9) 0.3567(8) 0.1237(7)
O14 O 0.7142(9) 0.2443(6) -0.0778(7)
O15 O 0.8888(10) 0.1330(6) 0.2541(6)
O16 O 0.4865(8) 0.4232(7) 0.2670(7)
O17 O 0.5922(9) 0.7893(6) 0.0043(8)
O18 O 1.0099(9) 0.7015(6) 0.1539(9)
O19 O 0.7632(11) 0.7123(8) 0.1262(8)
O20 O 0.649(4) 0.5679(18) 0.0798(17)
O1A O 1.1073(13) 0.5896(10) -0.0566(10)
O2A O 0.9706(12) 0.4619(9) -0.0913(10)
Mo1A Mo 1.15800(11) 0.36576(8) -0.22433(8)
Mo2A Mo 1.19774(10) 0.67526(8) 0.05079(9)
Mo3A Mo 0.89038(10) 0.57125(8) -0.22890(8)
Mo4A Mo 1.35131(10) 0.55223(8) -0.18292(8)
Mo5A Mo 1.27969(10) 0.30486(7) -0.00263(8)
Mo6A Mo 1.07274(10) 0.75160(7) -0.16927(7)
O3A O 1.229(3) 0.650(3) -0.2166(19)
O4A O 1.322(3) 0.4595(17) -0.2694(17)
O5A O 1.3355(11) 0.6147(8) -0.0604(8)
O6A O 1.047(2) 0.4791(15) -0.301(3)
O7A O 1.2101(10) 0.5522(7) 0.1528(9)
O8A O 1.1362(10) 0.7648(8) -0.0583(8)
O9A O 1.1117(8) 0.2244(7) 0.0837(7)
O10A O 0.8424(9) 0.6038(8) -0.3371(7)
O11A O 1.0091(8) 0.6828(7) -0.2546(7)
O12A O 1.2303(9) 0.3097(6) -0.3342(6)
O13A O 0.7483(9) 0.6433(8) -0.1237(7)
O14A O 1.2858(9) 0.7557(6) 0.0778(7)
O15A O 1.1112(10) 0.8670(6) -0.2541(6)
O16A O 1.5135(8) 0.5768(7) -0.2670(7)
O17A O 1.4078(9) 0.2107(6) -0.0043(8)
O18A O 0.9901(9) 0.2985(6) -0.1539(9)
O19A O 1.2368(11) 0.2877(8) -0.1262(8)
O20A O 1.351(4) 0.4321(18) -0.0798(17)
O21 O 0.530(2) 1.1433(13) 0.1717(14)
O22 O 0.5000 0.5000 0.0000
O23 O 0.3471(19) 0.1685(15) 0.3556(16)
Ag1 Ag 0.85562(8) 0.97602(8) 0.15175(7)
Ag2 Ag 0.50482(8) 0.94700(8) 0.13539(6)
Ag3 Ag 0.75273(10) 1.00534(9) -0.54394(8)
N1 N 0.6992(8) 0.9992(7) -0.0119(6)
N2 N 0.6389(9) 0.9226(7) 0.3962(7)
N3 N 0.7015(8) 1.0256(7) -0.1157(6)
N4 N 0.5431(10) 0.8517(8) 0.4554(7)
N5 N 0.5660(8) 0.8773(7) 0.2815(7)
N6 N 0.6543(8) 0.9381(7) 0.2918(7)
N7 N 0.8553(9) 1.0766(7) -0.4641(6)
N8 N 0.2959(13) 0.6158(10) 0.3542(11)
N9 N 0.8255(8) 1.0057(6) -0.0128(6)
N10 N 0.9139(8) 1.0350(6) -0.1155(6)
C1 C 0.4070(11) 0.7386(8) 0.4070(8)
C2 C 1.0143(11) 1.1927(8) -0.4605(8)
H1 H 1.0818 1.2424 -0.4985
C3 C 0.9493(12) 1.1519(9) -0.5147(9)
H2 H 0.9708 1.1769 -0.5891
C4 C 0.8808(10) 1.0829(8) -0.2958(8)
C5 C 0.9793(11) 1.1598(8) -0.3485(8)
H3 H 1.0203 1.1883 -0.3100
C6 C 0.8255(11) 1.0430(8) -0.3567(8)
H4 H 0.7633 0.9892 -0.3216
C7 C 0.5022(10) 0.8220(8) 0.3822(8)
C8 C 0.8354(9) 1.0480(7) -0.1775(7)
C9 C 0.3818(11) 0.7011(9) 0.3262(10)
H5 H 0.4221 0.7328 0.2533
C10 C 0.2424(16) 0.5700(11) 0.4646(14)
H6 H 0.1889 0.5111 0.4855
C11 C 0.3468(14) 0.6883(10) 0.5138(10)
H7 H 0.3636 0.7113 0.5688
C12 C 0.2653(15) 0.6073(10) 0.5397(10)
H8 H 0.2236 0.5766 0.6127
Ag1A Ag 1.14438(8) 1.02398(8) -0.15175(7)
Ag2A Ag 0.49518(8) 1.05300(8) -0.13539(6)
Ag3_2 Ag 0.75273(10) 1.00534(9) 0.45606(8)
N2_2 N 0.6389(9) 0.9226(7) -0.6038(7)
N3A N 0.2985(8) 0.9744(7) 0.1157(6)
N10A N 1.0861(8) 0.9650(6) 0.1155(6)
O24? O 0.8580(13) 0.5527(9) 0.0711(10)
O25? O 0.730(3) 0.308(2) 0.2409(17)
O26? O 0.739(4) 0.5128(19) 0.2439(18)
O27? O 0.939(2) 0.5124(15) 0.259(3)
O28? O 0.585(4) 0.5912(16) 0.1056(19)
O29? O 1.0540(12) 0.4120(9) 0.0666(10)
loop_
_geom_bond_atom_site_label_1
_geom_bond_atom_site_label_2
_geom_bond_site_symmetry_1
_geom_bond_site_symmetry_2
Ag1 N6 1_555 1_555
Ag2 N1 1_555 1_555
Ag3 N7 1_555 1_555
N1 N3 1_555 1_555
N2 N4 1_555 1_555
N3 C8 1_555 1_555
N4 C7 1_555 1_555
N5 Ag2 1_555 1_555
N6 N2 1_555 1_555
N7 C3 1_555 1_555
N8 C9 1_555 1_555
N9 Ag1 1_555 1_555
N10 N9 1_555 1_555
C1 C7 1_555 1_555
C2 H1 1_555 1_555
C3 C2 1_555 1_555
H2 C3 1_555 1_555
C4 C5 1_555 1_555
C5 C2 1_555 1_555
H3 C5 1_555 1_555
C6 N7 1_555 1_555
H4 C6 1_555 1_555
C7 N5 1_555 1_555
C8 N10 1_555 1_555
C9 C1 1_555 1_555
H5 C9 1_555 1_555
C10 N8 1_555 1_555
H6 C10 1_555 1_555
C11 C1 1_555 1_555
H7 C11 1_555 1_555
C12 C10 1_555 1_555
H8 C12 1_555 1_555
Mo1 O2 1_555 1_555
Mo2 O1 1_555 1_555
Mo3 O2 1_555 1_555
Mo4 O1 1_555 1_555
Mo5 O9 1_555 1_555
Mo6 O1 1_555 1_555
P1 O1 1_555 1_555
O2 P1 1_555 1_555
O3 Mo4 1_555 1_555
O4 Mo1 1_555 1_555
O5 Mo2 1_555 1_555
O6 Mo1 1_555 1_555
O7 Mo2 1_555 1_555
O8 Mo2 1_555 1_555
O9 Mo6A 1_555 1_555
O10 Mo3 1_555 1_555
O11 Mo3 1_555 1_555
O12 Mo1 1_555 1_555
O13 Mo3 1_555 1_555
O14 Mo2 1_555 1_555
O15 Mo6 1_555 1_555
O16 Mo4 1_555 1_555
O17 Mo5 1_555 1_555
O18 Mo1 1_555 1_555
O19 Mo1 1_555 1_555
O20 Mo4 1_555 1_555
Ag1A N10 1_555 1_555
Ag2A N3 1_555 1_555
Ag3_2 N2 1_555 1_555
N2_2 Ag3 1_555 1_555
N3A Ag2 1_555 1_555
N10A Ag1 1_555 1_555
O1A P1 1_555 1_555
O2A Mo2 1_555 1_555
Mo1A O2A 1_555 1_555
Mo2A O2 1_555 1_555
Mo3A O7 1_555 1_555
Mo4A O1A 1_555 1_555
Mo5A O13 1_555 1_555
Mo6A O1A 1_555 1_555
O3A Mo4A 1_555 1_555
O4A Mo1A 1_555 1_555
O5A Mo2A 1_555 1_555
O6A Mo1A 1_555 1_555
O7A Mo3 1_555 1_555
O8A Mo2A 1_555 1_555
O9A Mo6 1_555 1_555
O10A Mo3A 1_555 1_555
O11A Mo3A 1_555 1_555
O12A Mo1A 1_555 1_555
O13A Mo5 1_555 1_555
O14A Mo2A 1_555 1_555
O15A Mo6A 1_555 1_555
O16A Mo4A 1_555 1_555
O17A Mo5A 1_555 1_555
O18A Mo2 1_555 1_555
O19A Mo1A 1_555 1_555
O20A Mo4A 1_555 1_555
N1 N9 1_555 1_555
N5 N6 1_555 1_555
C4 C6 1_555 1_555
C4 C8 1_555 1_555
C11 C12 1_555 1_555
Mo3 O6 1_555 1_555
Mo4 O4 1_555 1_555
Mo4 O5 1_555 1_555
Mo5 O19 1_555 1_555
Mo5 O20 1_555 1_555
Mo6 O3 1_555 1_555
Mo6 O8 1_555 1_555
Mo6 O11 1_555 1_555
P1 O2A 1_555 1_555
O18 Mo2A 1_555 1_555
O1A Mo2A 1_555 1_555
O2A Mo3A 1_555 1_555
Mo1A O18A 1_555 1_555
Mo2A O7A 1_555 1_555
Mo3A O6A 1_555 1_555
Mo3A O13A 1_555 1_555
Mo4A O4A 1_555 1_555
Mo4A O5A 1_555 1_555
Mo5A O9A 1_555 1_555
Mo5A O19A 1_555 1_555
Mo5A O20A 1_555 1_555
Mo6A O3A 1_555 1_555
Mo6A O8A 1_555 1_555
Mo6A O11A 1_555 1_555

#END
