
#######################################################################
#
#                 Cambridge Crystallographic Data Centre
#                                CCDC 
#
#######################################################################
#
# If this CIF has been generated from an entry in the Cambridge 
# Structural Database, then it will include bibliographic, chemical, 
# crystal, experimental, refinement or atomic coordinate data resulting 
# from the CCDC's data processing and validation procedures.
#
#######################################################################

data_OGAXEB
_symmetry_cell_setting           triclinic
_symmetry_space_group_name_H-M   'P -1'
_symmetry_Int_Tables_number      2
_space_group_name_Hall           '-P 1'
loop_
_symmetry_equiv_pos_site_id
_symmetry_equiv_pos_as_xyz
1 x,y,z
2 -x,-y,-z
_cell_length_a                   13.5036(10)
_cell_length_b                   16.6916(12)
_cell_length_c                   19.3851(13)
_cell_angle_alpha                86.0240(10)
_cell_angle_beta                 85.8840(10)
_cell_angle_gamma                85.8160(10)
_cell_volume                     4337.42
loop_
_atom_site_label
_atom_site_type_symbol
_atom_site_fract_x
_atom_site_fract_y
_atom_site_fract_z
W1 W 0.58814(5) 0.19989(4) 0.85500(4)
Ag1 Ag 1.33182(10) 0.29112(8) 0.76064(8)
P1 P 0.8137(3) 0.1681(2) 0.7541(2)
O1 O 0.8717(8) 0.1573(6) 0.8181(6)
O2 O 0.6577(12) 0.0083(11) 1.4304(8)
N1 N 1.3508(10) 0.4147(8) 0.7840(8)
C1 C 1.3592(11) 0.0432(11) 0.8007(10)
W2 W 1.03792(5) 0.15215(4) 0.64725(4)
Ag2 Ag 0.53919(13) 0.43322(10) 1.07162(8)
P2 P 0.8820(3) 0.3862(2) 0.7960(2)
O3 O 0.8771(8) 0.2015(6) 0.6913(6)
N2 N 0.3720(12) 0.1703(10) 1.4864(8)
C2 C 0.3132(12) 0.2551(10) 1.0973(9)
W3 W 0.65597(5) 0.40536(4) 0.89237(4)
Ag3 Ag 0.31518(14) 0.19473(11) 1.26683(8)
O4 O 0.7151(8) 0.2187(6) 0.7658(6)
N3 N 0.3407(11) 0.2565(9) 1.1643(8)
C3 C 0.0296(19) 0.3167(18) 1.4461(14)
H1 H -0.0289 0.3494 1.4433
W4 W 0.89441(5) 0.44185(4) 0.61696(4)
Ag4 Ag 1.35032(12) 0.34936(10) 0.94652(8)
O5 O 0.9280(10) 0.3710(8) 0.7232(7)
N4 N 0.0437(16) 0.2487(13) 1.4138(12)
C4 C 0.1044(16) 0.3357(13) 1.4830(12)
H2 H 0.0931 0.3784 1.5115
W5 W 0.68812(5) -0.00430(4) 0.81262(4)
Ag5 Ag 1.34945(14) 0.14813(11) 0.59576(8)
O6 O 0.9262(7) 0.3277(6) 0.8507(6)
N5 N 1.3543(11) 0.1187(9) 0.7054(8)
C5 C 0.1321(16) 0.2055(13) 1.4099(12)
H3 H 0.1387 0.1590 1.3856
W6 W 0.69909(5) 0.05192(4) 0.64082(4)
Ag6 Ag 0.54731(13) 0.04960(10) 1.33258(9)
O7 O 0.7676(8) 0.3858(6) 0.7977(6)
N6 N 1.3264(11) 0.1607(9) 0.7575(8)
C6 C 1.3603(16) -0.1011(12) 0.8306(11)
H4 H 1.3378 -0.1090 0.7875
W7 W 0.59406(5) 0.25337(4) 0.68414(4)
Ag7 Ag 0.49257(15) 0.36144(12) 1.24114(10)
O8 O 1.0933(10) 0.4130(7) 0.8664(7)
N7 N 1.3710(15) 0.4736(13) 0.5573(10)
C7 C 0.1949(16) 0.2955(13) 1.4805(14)
H5 H 0.2452 0.3126 1.5051
O9 O 0.5421(15) 0.3075(12) 1.3484(11)
W8 W 0.90647(5) -0.02741(4) 0.71539(4)
O10 O 1.0006(8) 0.5965(7) 0.7628(6)
N8 N 1.3771(15) -0.1634(11) 0.8768(10)
C8 C 0.2131(16) 0.2290(10) 1.4414(10)
W9 W 0.88203(5) 0.31781(4) 0.97221(4)
O11 O 0.8679(8) 0.2085(7) 0.9544(6)
N9 N 0.0781(13) 0.1598(10) 1.0924(10)
C9 C 1.3164(17) 0.5381(14) 0.5377(14)
H6 H 1.3092 0.5504 0.4908
W10 W 0.65802(5) 0.46062(4) 0.72238(4)
O12 O 0.7789(8) 0.1285(7) 0.5926(6)
N10 N 0.4576(13) 0.1359(11) 1.4544(9)
C10 C 1.2706(18) 0.5869(17) 0.5845(14)
H7 H 1.2297 0.6313 0.5702
W11 W 0.81735(5) 0.11203(4) 0.93155(4)
O13 O 0.8817(8) 0.4856(7) 0.5357(6)
N11 N 0.3559(11) 0.1674(9) 1.3732(8)
C11 C 1.2855(14) 0.5696(12) 0.6558(11)
H8 H 1.2541 0.6025 0.6888
W12 W 1.10021(5) 0.35897(4) 0.68769(4)
O14 O 0.7579(8) 0.4393(6) 0.6538(6)
N12 N 1.3311(12) 0.1165(10) 0.8181(9)
C12 C 0.0924(17) 0.1172(13) 1.0357(13)
H9 H 0.0433 0.0866 1.0221
W13 W 1.07137(5) 0.51457(4) 0.81736(4)
O15 O 0.7488(8) 0.3410(7) 0.9454(6)
N13 N 0.4134(11) 0.3108(9) 1.1602(8)
C13 C 1.4333(16) -0.0802(13) 0.9562(13)
H10 H 1.4590 -0.0741 0.9987
W14 W 0.83033(5) 0.23427(4) 0.57819(4)
O16 O 1.0359(8) 0.4200(7) 0.6158(6)
N14 N 0.3660(10) 0.3034(8) 1.0541(8)
C14 C 0.1477(14) 0.2033(11) 1.1137(11)
H11 H 0.1345 0.2318 1.1533
W15 W 1.03181(5) 0.09113(4) 0.83372(4)
O17 O 0.8316(8) 0.6142(6) 0.8448(6)
N15 N 1.3768(12) 0.0404(9) 0.7304(8)
C15 C 0.3103(14) 0.1889(11) 1.4342(10)
W16 W 0.85910(5) 0.59413(4) 0.74833(4)
O18 O 0.6070(8) 0.3608(7) 0.7126(6)
N16 N 1.3710(10) 0.4278(9) 0.8510(8)
C16 C 0.1827(16) 0.1210(13) 0.9991(12)
H12 H 0.1941 0.0927 0.9593
W17 W 1.09513(5) 0.29809(4) 0.87358(4)
O19 O 0.6934(10) 0.1727(8) 0.9132(7)
N17 N 0.4261(11) 0.3374(9) 1.0940(8)
C17 C 0.2547(17) 0.1636(11) 1.0180(10)
H13 H 0.3151 0.1649 0.9918
W18 W 0.85861(5) 0.53512(4) 0.91926(4)
O20 O 0.4944(8) 0.2763(8) 0.6333(7)
N18 N 1.3899(10) 0.5389(8) 0.7876(8)
C18 C 1.4156(16) -0.1511(12) 0.9395(11)
H14 H 1.4290 -0.1952 0.9702
O21 O 0.8797(8) 0.3337(6) 0.5919(6)
N19 N 1.3913(9) 0.5025(8) 0.8527(7)
C19 C 1.3882(14) 0.4523(12) 0.6225(10)
H15 H 1.4262 0.4051 0.6337
O22 O 0.9742(8) 0.0512(7) 0.6588(6)
N20 N 0.4494(12) 0.1354(10) 1.3882(8)
C20 C 1.3474(12) 0.5033(10) 0.6762(9)
O23 O 0.7675(8) 0.0290(7) 0.8817(6)
C21 C 1.4145(15) -0.0134(13) 0.9119(10)
H16 H 1.4264 0.0378 0.9240
O24 O 1.1795(8) 0.5612(7) 0.8233(7)
C22 C 0.2382(14) 0.2063(11) 1.0777(10)
O25 O 0.6149(8) 0.1447(7) 0.6686(7)
C23 C 1.3773(13) -0.0252(11) 0.8485(10)
O26 O 0.9745(9) -0.1157(7) 0.6970(7)
C24 C 1.3630(11) 0.4831(10) 0.7485(9)
O27 O 1.1373(8) 0.0341(7) 0.8524(6)
O28 O 0.9076(8) 0.4733(6) 0.8124(6)
O29 O 0.9026(8) 0.5333(7) 0.6674(6)
O30 O 0.5983(8) 0.4641(7) 0.8147(6)
O31 O 0.9609(8) 0.1822(7) 0.5704(7)
O32 O 0.9490(8) 0.0654(7) 0.9150(6)
O33 O 0.9692(9) 0.0075(7) 0.7902(6)
O34 O 0.6071(8) 0.0911(7) 0.8290(6)
O35 O 0.8930(8) 0.4330(7) 0.9593(6)
O36 O 0.5223(7) 0.2314(6) 0.7704(6)
O37 O 0.8617(10) 0.3100(8) 1.0602(7)
O38 O 0.6065(8) 0.3092(7) 0.8651(6)
O39 O 0.4886(8) 0.1909(7) 0.9142(7)
O40 O 1.0619(8) 0.1321(7) 0.7411(6)
O41 O 1.0227(8) 0.2985(7) 0.9621(6)
O42 O 0.8109(9) -0.0244(7) 0.6450(6)
O43 O 0.7868(8) 0.0816(6) 0.7379(6)
O44 O 0.8081(8) 0.2482(7) 0.4919(6)
O45 O 1.1010(8) 0.4550(6) 0.7358(6)
O46 O 0.7917(8) 0.0717(7) 1.0133(6)
O47 O 0.7396(8) 0.5470(7) 0.7456(6)
O48 O 0.5737(8) 0.5232(7) 0.6783(7)
O49 O 0.8333(9) 0.6883(7) 0.7110(7)
O50 O 1.2194(9) 0.3552(7) 0.6526(7)
O51 O 0.5618(8) 0.4266(7) 0.9539(6)
O52 O 1.1128(8) 0.3037(7) 0.7753(6)
O53 O 1.2148(8) 0.2779(7) 0.8959(6)
O54 O 1.1481(9) 0.1204(8) 0.6071(7)
O55 O 1.0598(8) 0.1885(7) 0.8683(6)
O56 O 0.8014(9) -0.0707(7) 0.7775(7)
O57 O 0.7058(8) 0.2699(6) 0.6213(6)
O58 O 0.6350(10) 0.0193(8) 0.5770(7)
O59 O 0.6401(8) -0.0052(7) 0.7221(6)
O60 O 0.6214(9) -0.0759(7) 0.8570(7)
O61 O 0.7347(8) 0.4924(6) 0.9044(6)
O62 O 0.9946(9) 0.5519(7) 0.8986(7)
O63 O 0.8249(8) 0.5912(7) 0.9878(7)
O64 O 1.0638(9) 0.2600(7) 0.6546(6)
O65 O 0.6578(18) 0.2194(17) 1.3832(16)
N21 N 0.605(2) 0.2527(19) 1.3383(13)
O66 O 0.6126(10) 0.2310(8) 1.2772(8)
Ag1_2 Ag 0.33182(10) 0.29112(8) 0.76064(8)
O2A O 1.3423(12) -0.0083(11) 0.5696(8)
Ag2A Ag 0.46081(13) 0.56678(10) 0.92838(8)
Ag2A_2 Ag 1.46081(13) 0.56678(10) 0.92838(8)
N2_2 N 1.3720(12) 0.1703(10) 0.4864(8)
Ag4_2 Ag 0.35032(12) 0.34936(10) 0.94652(8)
Ag5_2 Ag 0.34945(14) 0.14813(11) 1.59576(8)
Ag5A Ag 0.65055(14) -0.14813(11) 1.40424(8)
Ag6A Ag 1.45269(13) -0.04960(10) 0.66742(9)
Ag7A Ag 0.50743(15) 0.63856(12) 0.75886(10)
Ag7A_2 Ag 1.50743(15) 0.63856(12) 0.75886(10)
N14_2 N 1.3660(10) 0.3034(8) 1.0541(8)
N15A N 0.6232(12) -0.0404(9) 1.2696(8)
N18A N 0.6101(10) 0.4611(8) 1.2124(8)
N19A N 0.6087(9) 0.4975(8) 1.1473(7)
O36_2 O 1.5223(7) 0.2314(6) 0.7704(6)
O48A O 0.4263(8) 0.4768(7) 1.3217(7)
O51A O 0.4382(8) 0.5734(7) 1.0461(6)
O67 O 0.452(3) 0.370(2) 0.467(2)
O68 O 0.3187(13) 0.6894(9) 0.8652(12)
O69 O 0.843(2) 0.090(2) 0.420(2)
O70 O 0.8867(16) 0.1444(14) 0.1477(17)
O71 O 0.113(2) 0.7331(17) 0.688(3)
loop_
_geom_bond_atom_site_label_1
_geom_bond_atom_site_label_2
_geom_bond_site_symmetry_1
_geom_bond_site_symmetry_2
W1 O4 1_555 1_555
Ag1 N1 1_555 1_555
P1 O1 1_555 1_555
O1 W11 1_555 1_555
O2 Ag6 1_555 1_555
N1 N16 1_555 1_555
C1 N12 1_555 1_555
W2 O3 1_555 1_555
Ag2 N17 1_555 1_555
P2 O5 1_555 1_555
O3 P1 1_555 1_555
N2 N10 1_555 1_555
C2 N3 1_555 1_555
W3 O7 1_555 1_555
Ag3 N3 1_555 1_555
O4 P1 1_555 1_555
N3 N13 1_555 1_555
C3 H1 1_555 1_555
W4 O5 1_555 1_555
Ag4 N16 1_555 1_555
O5 W12 1_555 1_555
N4 C3 1_555 1_555
C4 C3 1_555 1_555
H2 C4 1_555 1_555
W5 O23 1_555 1_555
Ag5 N5 1_555 1_555
O6 P2 1_555 1_555
N5 N6 1_555 1_555
C5 N4 1_555 1_555
H3 C5 1_555 1_555
W6 O12 1_555 1_555
Ag6 N20 1_555 1_555
O7 P2 1_555 1_555
N6 Ag1 1_555 1_555
C6 H4 1_555 1_555
W7 O4 1_555 1_555
Ag7 O9 1_555 1_555
O8 W13 1_555 1_555
N7 C9 1_555 1_555
C7 C4 1_555 1_555
H5 C7 1_555 1_555
O9 N21 1_555 1_555
W8 O22 1_555 1_555
O10 W13 1_555 1_555
N8 C6 1_555 1_555
C8 C5 1_555 1_555
W9 O6 1_555 1_555
O11 W9 1_555 1_555
N9 C12 1_555 1_555
C9 H6 1_555 1_555
W10 O7 1_555 1_555
O12 W14 1_555 1_555
N10 N20 1_555 1_555
C10 C9 1_555 1_555
H7 C10 1_555 1_555
W11 O11 1_555 1_555
O13 W4 1_555 1_555
N11 Ag3 1_555 1_555
C11 C10 1_555 1_555
H8 C11 1_555 1_555
W12 O16 1_555 1_555
O14 W4 1_555 1_555
N12 N6 1_555 1_555
C12 H9 1_555 1_555
W13 O24 1_555 1_555
O15 W3 1_555 1_555
N13 Ag7 1_555 1_555
C13 H10 1_555 1_555
W14 O3 1_555 1_555
O16 W4 1_555 1_555
N14 C2 1_555 1_555
C14 N9 1_555 1_555
H11 C14 1_555 1_555
W15 O1 1_555 1_555
O17 W16 1_555 1_555
N15 C1 1_555 1_555
C15 N2 1_555 1_555
W16 O10 1_555 1_555
O18 W7 1_555 1_555
N16 N19 1_555 1_555
C16 C12 1_555 1_555
H12 C16 1_555 1_555
W17 O6 1_555 1_555
O19 W1 1_555 1_555
N17 N13 1_555 1_555
C17 C16 1_555 1_555
H13 C17 1_555 1_555
W18 O17 1_555 1_555
O20 W7 1_555 1_555
N18 N19 1_555 1_555
C18 N8 1_555 1_555
H14 C18 1_555 1_555
O21 W4 1_555 1_555
N19 Ag2A_2 1_555 1_555
C19 N7 1_555 1_555
H15 C19 1_555 1_555
O22 W2 1_555 1_555
N20 N11 1_555 1_555
C20 C11 1_555 1_555
O23 W11 1_555 1_555
C21 C13 1_555 1_555
H16 C21 1_555 1_555
C22 C2 1_555 1_555
O25 W6 1_555 1_555
C23 C1 1_555 1_555
O26 W8 1_555 1_555
C24 N1 1_555 1_555
O27 W15 1_555 1_555
O28 P2 1_555 1_555
O29 W4 1_555 1_555
O30 W3 1_555 1_555
O31 W2 1_555 1_555
O32 W11 1_555 1_555
O33 W8 1_555 1_555
O34 W1 1_555 1_555
O35 W9 1_555 1_555
O36 W1 1_555 1_555
O37 W9 1_555 1_555
O38 W1 1_555 1_555
O39 W1 1_555 1_555
O40 W2 1_555 1_555
O41 W9 1_555 1_555
O42 W6 1_555 1_555
O43 P1 1_555 1_555
O44 W14 1_555 1_555
O45 W12 1_555 1_555
O46 W11 1_555 1_555
O47 W10 1_555 1_555
O48 W10 1_555 1_555
O49 W16 1_555 1_555
O50 W12 1_555 1_555
O51 Ag2 1_555 1_555
O52 W12 1_555 1_555
O53 Ag4 1_555 1_555
O54 W2 1_555 1_555
O55 W15 1_555 1_555
O56 W5 1_555 1_555
O57 W7 1_555 1_555
O58 W6 1_555 1_555
O59 W5 1_555 1_555
O60 W5 1_555 1_555
O61 W3 1_555 1_555
O62 W13 1_555 1_555
O63 W18 1_555 1_555
O64 W2 1_555 1_555
O65 N21 1_555 1_555
N21 O66 1_555 1_555
O66 Ag7 1_555 1_555
Ag1_2 O36 1_555 1_555
O2A Ag5 1_555 1_555
Ag2A O51 1_555 1_555
N2_2 Ag5 1_555 1_555
Ag4_2 N14 1_555 1_555
Ag5_2 N2 1_555 1_555
Ag5A O2 1_555 1_555
Ag6A N15 1_555 1_555
Ag7A O48 1_555 1_555
Ag7A_2 N18 1_555 1_555
N14_2 Ag4 1_555 1_555
N15A Ag6 1_555 1_555
N18A Ag7 1_555 1_555
N19A Ag2 1_555 1_555
O36_2 Ag1 1_555 1_555
O48A Ag7 1_555 1_555
O51A Ag2 1_555 1_555
W3 O38 1_555 1_555
W3 O51 1_555 1_555
W5 O34 1_555 1_555
W5 O43 1_555 1_555
N5 N15 1_555 1_555
W6 O43 1_555 1_555
W6 O59 1_555 1_555
C6 C23 1_555 1_555
W7 O25 1_555 1_555
W7 O36 1_555 1_555
O8 W17 1_555 1_555
C7 C8 1_555 1_555
W8 O42 1_555 1_555
W8 O43 1_555 1_555
W8 O56 1_555 1_555
C8 C15 1_555 1_555
W9 O15 1_555 1_555
W10 O14 1_555 1_555
W10 O18 1_555 1_555
W10 O30 1_555 1_555
W11 O19 1_555 1_555
N11 C15 1_555 1_555
W12 O64 1_555 1_555
W13 O28 1_555 1_555
W13 O45 1_555 1_555
C13 C18 1_555 1_555
W14 O21 1_555 1_555
W14 O31 1_555 1_555
W14 O57 1_555 1_555
N14 N17 1_555 1_555
C14 C22 1_555 1_555
W15 O32 1_555 1_555
W15 O33 1_555 1_555
W15 O40 1_555 1_555
W16 O28 1_555 1_555
W16 O29 1_555 1_555
W16 O47 1_555 1_555
W17 O41 1_555 1_555
W17 O52 1_555 1_555
W17 O53 1_555 1_555
W17 O55 1_555 1_555
C17 C22 1_555 1_555
W18 O28 1_555 1_555
W18 O35 1_555 1_555
W18 O61 1_555 1_555
W18 O62 1_555 1_555
N18 C24 1_555 1_555
C19 C20 1_555 1_555
C20 C24 1_555 1_555
C21 C23 1_555 1_555
O2A Ag6A 1_555 1_555
Ag2A O51A 1_555 1_555
N18A N19A 1_555 1_555

#END
