
#######################################################################
#
#                 Cambridge Crystallographic Data Centre
#                                CCDC 
#
#######################################################################
#
# If this CIF has been generated from an entry in the Cambridge 
# Structural Database, then it will include bibliographic, chemical, 
# crystal, experimental, refinement or atomic coordinate data resulting 
# from the CCDC's data processing and validation procedures.
#
#######################################################################

data_OGEKOA
_symmetry_cell_setting           monoclinic
_symmetry_space_group_name_H-M   'C 2/m'
_symmetry_Int_Tables_number      12
_space_group_name_Hall           '-C 2y'
loop_
_symmetry_equiv_pos_site_id
_symmetry_equiv_pos_as_xyz
1 x,y,z
2 1/2+x,1/2+y,z
3 x,-y,z
4 1/2+x,1/2-y,z
5 -x,-y,-z
6 1/2-x,1/2-y,-z
7 -x,y,-z
8 1/2-x,1/2+y,-z
_cell_length_a                   15.6963(14)
_cell_length_b                   6.4163(7)
_cell_length_c                   8.2982(8)
_cell_angle_alpha                90
_cell_angle_beta                 110.656(6)
_cell_angle_gamma                90
_cell_volume                     782.005
loop_
_atom_site_label
_atom_site_type_symbol
_atom_site_fract_x
_atom_site_fract_y
_atom_site_fract_z
Ag1 Ag 0.0000 0.0000 0.0000
Br1 Br -0.05848(5) 0.5000 -0.31411(9)
Ag2 Ag 0.0000 0.5000 0.0000
C1 C 0.1001(6) 0.0000 -0.3147(9)
N1 N 0.1612(3) 0.0000 -0.1364(6)
C2 C 0.1327(3) 0.0000 0.0000(7)
N2 N 0.2106(3) 0.0000 0.1399(6)
C3 C 0.2131(6) 0.0000 0.3149(10)
C4 C 0.2855(4) 0.0000 0.0890(11)
C5 C 0.2554(4) 0.0000 -0.0811(11)
H1 H 0.2772(66) 0.0000 -0.162(12)
H2 H 0.3407(68) 0.0000 0.167(12)
H3 H 0.2619(75) 0.0000 0.399(14)
H4 H 0.1352(63) 0.0000 -0.377(13)
H5 H 0.1920(55) 0.106(15) 0.3351(91)
H6 H 0.0861(49) 0.112(11) -0.3438(82)
H5B H 0.1920(55) -0.106(15) 0.3351(91)
H6B H 0.0861(49) -0.112(11) -0.3438(82)
C1D C -0.1001(6) 0.0000 0.3147(9)
N1D N -0.1612(3) 0.0000 0.1364(6)
C2D C -0.1327(3) 0.0000 0.0000(7)
N2D N -0.2106(3) 0.0000 -0.1399(6)
C3D C -0.2131(6) 0.0000 -0.3149(10)
C4D C -0.2855(4) 0.0000 -0.0890(11)
C5D C -0.2554(4) 0.0000 0.0811(11)
H1D H -0.2772(66) 0.0000 0.162(12)
H2D H -0.3407(68) 0.0000 -0.167(12)
H3D H -0.2619(75) 0.0000 -0.399(14)
H4D H -0.1352(63) 0.0000 0.377(13)
H5D H -0.1920(55) -0.106(15) -0.3351(91)
H6D H -0.0861(49) -0.112(11) 0.3438(82)
H5F H -0.1920(55) 0.106(15) -0.3351(91)
H6F H -0.0861(49) 0.112(11) 0.3438(82)
Br1D Br 0.05848(5) 0.5000 0.31411(9)
Ag2_2 Ag 0.0000 -0.5000 0.0000
Ag1_2 Ag 0.0000 1.0000 0.0000
loop_
_geom_bond_atom_site_label_1
_geom_bond_atom_site_label_2
_geom_bond_site_symmetry_1
_geom_bond_site_symmetry_2
Ag1 Ag2 1_555 1_555
Br1 Ag2 1_555 1_555
Ag2 Br1D 1_555 1_555
C1 N1 1_555 1_555
N1 C2 1_555 1_555
C2 Ag1 1_555 1_555
N2 C2 1_555 1_555
C3 N2 1_555 1_555
C4 N2 1_555 1_555
C5 N1 1_555 1_555
H1 C5 1_555 1_555
H2 C4 1_555 1_555
H3 C3 1_555 1_555
H4 C1 1_555 1_555
H5 C3 1_555 1_555
H6 C1 1_555 1_555
H5B C3 1_555 1_555
H6B C1 1_555 1_555
C1D N1D 1_555 1_555
N1D C2D 1_555 1_555
C2D Ag1 1_555 1_555
N2D C2D 1_555 1_555
C3D N2D 1_555 1_555
C4D N2D 1_555 1_555
C5D N1D 1_555 1_555
H1D C5D 1_555 1_555
H2D C4D 1_555 1_555
H3D C3D 1_555 1_555
H4D C1D 1_555 1_555
H5D C3D 1_555 1_555
H6D C1D 1_555 1_555
H5F C3D 1_555 1_555
H6F C1D 1_555 1_555
Ag2_2 Ag1 1_555 1_555
Ag1_2 Ag2 1_555 1_555
C4 C5 1_555 1_555
C4D C5D 1_555 1_555

#END
