
#######################################################################
#
#                 Cambridge Crystallographic Data Centre
#                                CCDC 
#
#######################################################################
#
# If this CIF has been generated from an entry in the Cambridge 
# Structural Database, then it will include bibliographic, chemical, 
# crystal, experimental, refinement or atomic coordinate data resulting 
# from the CCDC's data processing and validation procedures.
#
#######################################################################

data_OGEKIU
_symmetry_cell_setting           monoclinic
_symmetry_space_group_name_H-M   'C 2/m'
_symmetry_Int_Tables_number      12
_space_group_name_Hall           '-C 2y'
loop_
_symmetry_equiv_pos_site_id
_symmetry_equiv_pos_as_xyz
1 x,y,z
2 1/2+x,1/2+y,z
3 x,-y,z
4 1/2+x,1/2-y,z
5 -x,-y,-z
6 1/2-x,1/2-y,-z
7 -x,y,-z
8 1/2-x,1/2+y,-z
_cell_length_a                   15.568(6)
_cell_length_b                   6.376(2)
_cell_length_c                   8.206(2)
_cell_angle_alpha                90
_cell_angle_beta                 111.45(4)
_cell_angle_gamma                90
_cell_volume                     758.123
loop_
_atom_site_label
_atom_site_type_symbol
_atom_site_fract_x
_atom_site_fract_y
_atom_site_fract_z
Ag1 Ag 0.5000 0.0000 0.0000
Ag2 Ag 0.5000 0.5000 0.0000
Cl1 Cl 0.55949(16) 0.5000 0.3057(3)
N1 N 0.3377(5) 0.0000 0.1347(9)
N2 N 0.2869(4) 0.0000 -0.1440(8)
C1 C 0.3648(4) 0.0000 -0.0028(9)
C2 C 0.2415(7) 0.0000 0.0767(14)
H1 H 0.2060 0.0000 0.1463
C3 C 0.2111(7) 0.0000 -0.0946(15)
H2 H 0.1495 0.0000 -0.1694
C4 C 0.2850(6) 0.0000 -0.3239(10)
H3 H 0.3470 0.0000 -0.3220
H4 H 0.2533 0.1229 -0.3838
H5 H 0.2533 -0.1229 -0.3838
C5 C 0.4009(7) 0.0000 0.3173(11)
H6 H 0.4634 0.0000 0.3219
H7 H 0.3904 -0.1229 0.3749
H8 H 0.3904 0.1229 0.3749
N1D N 0.6623(5) 0.0000 -0.1347(9)
N2D N 0.7131(4) 0.0000 0.1440(8)
C1D C 0.6352(4) 0.0000 0.0028(9)
C2D C 0.7585(7) 0.0000 -0.0767(14)
H1D H 0.7940 0.0000 -0.1463
C3D C 0.7889(7) 0.0000 0.0946(15)
H2D H 0.8505 0.0000 0.1694
C4D C 0.7150(6) 0.0000 0.3239(10)
H3D H 0.6530 0.0000 0.3220
H4D H 0.7467 -0.1229 0.3838
H5D H 0.7467 0.1229 0.3838
C5D C 0.5991(7) 0.0000 -0.3173(11)
H6D H 0.5366 0.0000 -0.3219
H7D H 0.6096 0.1229 -0.3749
H8D H 0.6096 -0.1229 -0.3749
Cl1D Cl 0.44051(16) 0.5000 -0.3057(3)
Ag2_2 Ag 0.5000 -0.5000 0.0000
Ag1_2 Ag 0.5000 1.0000 0.0000
loop_
_geom_bond_atom_site_label_1
_geom_bond_atom_site_label_2
_geom_bond_site_symmetry_1
_geom_bond_site_symmetry_2
Ag1 Ag2 1_555 1_555
Ag2 Cl1 1_555 1_555
N1 C1 1_555 1_555
N2 C1 1_555 1_555
C1 Ag1 1_555 1_555
C2 N1 1_555 1_555
H1 C2 1_555 1_555
C3 N2 1_555 1_555
H2 C3 1_555 1_555
C4 N2 1_555 1_555
H3 C4 1_555 1_555
H4 C4 1_555 1_555
H5 C4 1_555 1_555
C5 N1 1_555 1_555
H6 C5 1_555 1_555
H7 C5 1_555 1_555
H8 C5 1_555 1_555
N1D C1D 1_555 1_555
N2D C1D 1_555 1_555
C1D Ag1 1_555 1_555
C2D N1D 1_555 1_555
H1D C2D 1_555 1_555
C3D N2D 1_555 1_555
H2D C3D 1_555 1_555
C4D N2D 1_555 1_555
H3D C4D 1_555 1_555
H4D C4D 1_555 1_555
H5D C4D 1_555 1_555
C5D N1D 1_555 1_555
H6D C5D 1_555 1_555
H7D C5D 1_555 1_555
H8D C5D 1_555 1_555
Cl1D Ag2 1_555 1_555
Ag2_2 Ag1 1_555 1_555
Ag1_2 Ag2 1_555 1_555
C2 C3 1_555 1_555
C2D C3D 1_555 1_555

#END
