
#######################################################################
#
#                 Cambridge Crystallographic Data Centre
#                                CCDC 
#
#######################################################################
#
# If this CIF has been generated from an entry in the Cambridge 
# Structural Database, then it will include bibliographic, chemical, 
# crystal, experimental, refinement or atomic coordinate data resulting 
# from the CCDC's data processing and validation procedures.
#
#######################################################################

data_OGELER
_symmetry_cell_setting           monoclinic
_symmetry_space_group_name_H-M   'P 21/c'
_symmetry_Int_Tables_number      14
_space_group_name_Hall           '-P 2ybc'
loop_
_symmetry_equiv_pos_site_id
_symmetry_equiv_pos_as_xyz
1 x,y,z
2 x,1/2-y,1/2+z
3 -x,-y,-z
4 -x,1/2+y,1/2-z
_cell_length_a                   6.1651(8)
_cell_length_b                   7.5411(10)
_cell_length_c                   15.646(2)
_cell_angle_alpha                90
_cell_angle_beta                 94.125(3)
_cell_angle_gamma                90
_cell_volume                     725.524
loop_
_atom_site_label
_atom_site_type_symbol
_atom_site_fract_x
_atom_site_fract_y
_atom_site_fract_z
Ag1 Ag 0.2552(2) 0.06268(15) 0.05629(9)
Cl1 Cl 0.0088(5) 0.1748(3) -0.08443(15)
N1 N 0.6608(17) 0.1547(11) 0.1761(5)
N2 N 0.6449(16) 0.3307(11) 0.0695(5)
C1 C 0.621(3) 0.016(2) 0.2371(12)
C2 C 0.5432(19) 0.1932(13) 0.1029(6)
C3 C 0.566(3) 0.4215(18) -0.0087(7)
C4 C 0.838(2) 0.2646(16) 0.1871(8)
C5 C 0.829(2) 0.3763(16) 0.1201(8)
H1 H 0.680(18) 0.454(10) -0.026(5)
H2 H 0.91(2) 0.266(17) 0.236(8)
H3 H 0.89(3) 0.466(18) 0.104(9)
H4 H 0.75(3) -0.092(19) 0.206(8)
H5 H 0.47(2) 0.326(14) -0.045(7)
H6 H 0.57(3) -0.05(2) 0.217(10)
C3B C 0.434(3) 0.5785(18) 0.0087(7)
N2B N 0.3551(16) 0.6693(11) -0.0695(5)
C2B C 0.4568(19) 0.8068(13) -0.1029(6)
N1B N 0.3392(17) 0.8453(11) -0.1761(5)
C1B C 0.379(3) 0.984(2) -0.2371(12)
H4B H 0.25(3) 1.092(19) -0.206(8)
H6B H 0.43(3) 1.05(2) -0.217(10)
C4B C 0.162(2) 0.7354(16) -0.1871(8)
C5B C 0.171(2) 0.6237(16) -0.1201(8)
H3B H 0.11(3) 0.534(18) -0.104(9)
H2B H 0.09(2) 0.734(17) -0.236(8)
H1B H 0.320(18) 0.546(10) 0.026(5)
H5B H 0.53(2) 0.674(14) 0.045(7)
Cl1B Cl -0.0088(5) -0.1748(3) 0.08443(15)
Ag1B Ag -0.2552(2) -0.06268(15) -0.05629(9)
Ag1B_2 Ag 0.7448(2) 0.93732(15) -0.05629(9)
C2B_2 C -0.5432(19) -0.1932(13) -0.1029(6)
loop_
_geom_bond_atom_site_label_1
_geom_bond_atom_site_label_2
_geom_bond_site_symmetry_1
_geom_bond_site_symmetry_2
Ag1 Cl1 1_555 1_555
Cl1 Ag1B 1_555 1_555
N1 C1 1_555 1_555
N2 C2 1_555 1_555
C1 H4 1_555 1_555
C2 Ag1 1_555 1_555
C3 N2 1_555 1_555
C4 N1 1_555 1_555
C5 N2 1_555 1_555
H1 C3 1_555 1_555
H2 C4 1_555 1_555
H3 C5 1_555 1_555
H5 C3 1_555 1_555
H6 C1 1_555 1_555
C3B C3 1_555 1_555
N2B C3B 1_555 1_555
C2B N2B 1_555 1_555
N1B C2B 1_555 1_555
C1B N1B 1_555 1_555
H4B C1B 1_555 1_555
H6B C1B 1_555 1_555
C4B N1B 1_555 1_555
C5B N2B 1_555 1_555
H3B C5B 1_555 1_555
H2B C4B 1_555 1_555
H1B C3B 1_555 1_555
H5B C3B 1_555 1_555
Cl1B Ag1 1_555 1_555
Ag1B Cl1B 1_555 1_555
Ag1B_2 C2B 1_555 1_555
C2B_2 Ag1B 1_555 1_555
N1 C2 1_555 1_555
C4 C5 1_555 1_555
C4B C5B 1_555 1_555

#END
