
#######################################################################
#
#                 Cambridge Crystallographic Data Centre
#                                CCDC 
#
#######################################################################
#
# If this CIF has been generated from an entry in the Cambridge 
# Structural Database, then it will include bibliographic, chemical, 
# crystal, experimental, refinement or atomic coordinate data resulting 
# from the CCDC's data processing and validation procedures.
#
#######################################################################

data_OGEPAT
_symmetry_cell_setting           triclinic
_symmetry_space_group_name_H-M   'P -1'
_symmetry_Int_Tables_number      2
_space_group_name_Hall           '-P 1'
loop_
_symmetry_equiv_pos_site_id
_symmetry_equiv_pos_as_xyz
1 x,y,z
2 -x,-y,-z
_cell_length_a                   7.405(5)
_cell_length_b                   9.878(5)
_cell_length_c                   13.396(5)
_cell_angle_alpha                71.778(5)
_cell_angle_beta                 87.300(5)
_cell_angle_gamma                85.405(5)
_cell_volume                     927.49
loop_
_atom_site_label
_atom_site_type_symbol
_atom_site_fract_x
_atom_site_fract_y
_atom_site_fract_z
C1 C 0.8875(3) 0.8081(3) 0.2396(2)
C2 C 0.8762(4) 0.9339(3) 0.1564(2)
H1 H 0.9227 1.0152 0.1632
C3 C 0.7971(5) 0.9404(4) 0.0639(2)
H2 H 0.7886 1.0259 0.0091
C4 C 0.7312(4) 0.8204(4) 0.0532(2)
H3 H 0.6778 0.8245 -0.0092
C5 C 0.7431(4) 0.6931(3) 0.1343(2)
H4 H 0.699 0.6119 0.1259
C6 C 0.8207(3) 0.6857(3) 0.2282(2)
C7 C 0.9603(3) 0.8076(3) 0.3431(2)
C8 C 0.8375(3) 0.5464(3) 0.3141(2)
Li1 Li 0.4422(6) 0.4878(5) 0.3342(4)
Li2 Li 0.9018(6) 0.6933(5) 0.5765(3)
O1 O 0.8818(3) 0.7351(2) 0.42472(14)
O2 O 1.0906(3) 0.8813(2) 0.34049(16)
O3 O 0.9939(2) 0.4924(2) 0.33895(16)
O4 O 0.6942(2) 0.4911(2) 0.35437(15)
O5 O 0.3167(3) 0.5760(3) 0.43504(16)
O6 O 0.3089(3) 0.5991(3) 0.20857(17)
H5 H 0.322(4) 0.6878(15) 0.196(3)
H6 H 0.200(2) 0.583(4) 0.229(4)
C9 C 0.5745(3) 0.2475(3) 0.24295(19)
C10 C 0.5342(4) 0.3100(3) 0.1380(2)
H7 H 0.4137 0.3259 0.1183
C11 C 0.6686(4) 0.3492(3) 0.0621(2)
H8 H 0.639 0.3884 -0.0083
C12 C 0.8476(4) 0.3299(3) 0.0912(2)
H9 H 0.939 0.3575 0.0405
C13 C 0.8901(4) 0.2698(3) 0.1950(2)
H10 H 1.0109 0.2584 0.2141
C14 C 0.7563(3) 0.2258(3) 0.2721(2)
C15 C 0.4180(3) 0.2056(3) 0.31966(19)
C16 C 0.8088(3) 0.1496(3) 0.3828(2)
Li3 Li 0.1554(6) 0.0005(5) 0.4203(4)
O7 O 0.3602(2) 0.2930(2) 0.36804(14)
O8 O 0.3492(2) 0.0930(2) 0.32609(14)
O9 O 0.9706(2) 0.15317(19) 0.40773(15)
O10 O 0.6954(2) 0.0812(2) 0.44663(14)
Li2A Li 0.0982(6) 0.3067(5) 0.4235(3)
Li2A_2 Li 1.0982(6) 0.3067(5) 0.4235(3)
O2_2 O 0.0906(3) -0.1187(2) 0.34049(16)
O3A O 1.0061(2) 0.5076(2) 0.66105(16)
Li3_2 Li 1.1554(6) 0.0005(5) 0.4203(4)
Li3_3 Li 1.1554(6) 1.0005(5) 0.4203(4)
Li3A Li 0.8446(6) -0.0005(5) 0.5797(4)
O7A O 0.6398(2) 0.7070(2) 0.63196(14)
O9_2 O -0.0294(2) 0.15317(19) 0.40773(15)
O9A O 0.0294(2) -0.15317(19) 0.59227(15)
O9A_2 O 1.0294(2) 0.84683(19) 0.59227(15)
O10A O 0.3046(2) -0.0812(2) 0.55337(14)
O11 O 0.3725(4) 0.8807(3) 0.1995(2)
H11 H 0.447(5) 0.946(4) 0.178(4)
H12 H 0.279(4) 0.914(5) 0.225(5)
K1 K 0.52584(9) 0.82469(8) 0.41683(5)
loop_
_geom_bond_atom_site_label_1
_geom_bond_atom_site_label_2
_geom_bond_site_symmetry_1
_geom_bond_site_symmetry_2
C1 C2 1_555 1_555
C2 H1 1_555 1_555
C3 C2 1_555 1_555
H2 C3 1_555 1_555
C4 C3 1_555 1_555
H3 C4 1_555 1_555
C5 C4 1_555 1_555
H4 C5 1_555 1_555
C6 C1 1_555 1_555
C7 C1 1_555 1_555
C8 C6 1_555 1_555
Li1 O4 1_555 1_555
Li2 O1 1_555 1_555
O1 C7 1_555 1_555
O2 C7 1_555 1_555
O3 C8 1_555 1_555
O4 C8 1_555 1_555
O5 Li1 1_555 1_555
O6 Li1 1_555 1_555
H5 O6 1_555 1_555
H6 O6 1_555 1_555
C9 C10 1_555 1_555
C10 H7 1_555 1_555
C11 C10 1_555 1_555
H8 C11 1_555 1_555
C12 C11 1_555 1_555
H9 C12 1_555 1_555
C13 C12 1_555 1_555
H10 C13 1_555 1_555
C14 C9 1_555 1_555
C15 C9 1_555 1_555
C16 C14 1_555 1_555
Li3 O8 1_555 1_555
O7 Li1 1_555 1_555
O8 C15 1_555 1_555
O9 C16 1_555 1_555
O10 C16 1_555 1_555
O11 H11 1_555 1_555
H12 O11 1_555 1_555
Li2A O7 1_555 1_555
Li2A_2 O3 1_555 1_555
O2_2 Li3 1_555 1_555
O3A Li2 1_555 1_555
Li3_2 O9 1_555 1_555
Li3_3 O2 1_555 1_555
Li3A O9 1_555 1_555
O7A Li2 1_555 1_555
O9_2 Li3 1_555 1_555
O9A Li3 1_555 1_555
O9A_2 Li2 1_555 1_555
O10A Li3 1_555 1_555
C5 C6 1_555 1_555
C13 C14 1_555 1_555
C15 O7 1_555 1_555
O9 Li2A_2 1_555 1_555
O10 Li3A 1_555 1_555
Li2A O9_2 1_555 1_555
Li3_3 O9A_2 1_555 1_555

#END
