
#######################################################################
#
#                 Cambridge Crystallographic Data Centre
#                                CCDC 
#
#######################################################################
#
# If this CIF has been generated from an entry in the Cambridge 
# Structural Database, then it will include bibliographic, chemical, 
# crystal, experimental, refinement or atomic coordinate data resulting 
# from the CCDC's data processing and validation procedures.
#
#######################################################################

data_OGESOJ
_symmetry_cell_setting           tetragonal
_symmetry_space_group_name_H-M   'I 41/a m d'
_symmetry_Int_Tables_number      141
_space_group_name_Hall           '-I 4bd 2'
loop_
_symmetry_equiv_pos_site_id
_symmetry_equiv_pos_as_xyz
1 x,y,z
2 1/4-y,3/4+x,1/4+z
3 1/4+y,1/4-x,3/4+z
4 1/4+y,3/4+x,1/4-z
5 1/2+x,1/2+y,1/2+z
6 3/4-y,1/4+x,3/4+z
7 3/4+y,3/4-x,1/4+z
8 3/4+y,1/4+x,3/4-z
9 -x,1/2-y,z
10 x,-y,-z
11 -x,1/2+y,-z
12 1/4-y,1/4-x,3/4-z
13 1/2-x,-y,1/2+z
14 1/2+x,1/2-y,1/2-z
15 1/2-x,y,1/2-z
16 3/4-y,3/4-x,1/4-z
17 -x,-y,-z
18 3/4+y,1/4-x,3/4-z
19 3/4-y,3/4+x,1/4-z
20 3/4-y,1/4-x,3/4+z
21 1/2-x,1/2-y,1/2-z
22 1/4+y,3/4-x,1/4-z
23 1/4-y,1/4+x,3/4-z
24 1/4-y,3/4-x,1/4+z
25 x,1/2+y,-z
26 -x,y,z
27 x,1/2-y,z
28 3/4+y,3/4+x,1/4+z
29 1/2+x,y,1/2-z
30 1/2-x,1/2+y,1/2+z
31 1/2+x,-y,1/2+z
32 1/4+y,1/4+x,3/4+z
_cell_length_a                   11.7026(17)
_cell_length_b                   11.7026(17)
_cell_length_c                   9.2233(18)
_cell_angle_alpha                90
_cell_angle_beta                 90
_cell_angle_gamma                90
_cell_volume                     1263.14
loop_
_atom_site_label
_atom_site_type_symbol
_atom_site_fract_x
_atom_site_fract_y
_atom_site_fract_z
Bi1 Bi 0.5000 0.2500 0.6250
O1 O 0.5000 0.1300(4) 0.4082(5)
O2 O 0.5000 -0.0477(5) 0.3213(6)
C1 C 0.5000 0.0245(6) 0.4223(7)
Bi1B Bi 0.5000 -0.2500 0.3750
Bi1A Bi 0.0000 0.2500 0.8750
O1P O 0.5000 -0.1300(4) 0.5918(5)
O1C O 0.3800(4) 0.2500 0.8418(5)
O1A O 0.1200(4) 0.2500 0.6582(5)
O1Z O 0.5000 0.3700(4) 0.4082(5)
O1R O 0.6200(4) 0.2500 0.8418(5)
O2P O 0.5000 0.0477(5) 0.6787(6)
O2C O 0.2023(5) 0.2500 0.9287(6)
O2A O 0.2977(5) 0.2500 0.5713(6)
O2F O 0.7023(5) 0.2500 0.5713(6)
O2X O 0.5000 0.4523(5) 0.6787(6)
C1P C 0.5000 -0.0245(6) 0.5777(7)
C1C C 0.2745(6) 0.2500 0.8277(7)
C1A C 0.2255(6) 0.2500 0.6723(7)
N1 N 0.5000 0.2500 0.1250
O3 O 0.701(2) 0.049(2) 0.1250
O4 O 0.7500 0.2500 0.2500
loop_
_geom_bond_atom_site_label_1
_geom_bond_atom_site_label_2
_geom_bond_site_symmetry_1
_geom_bond_site_symmetry_2
Bi1 O1 1_555 1_555
O1 C1 1_555 1_555
O2 C1 1_555 1_555
C1 C1P 1_555 1_555
Bi1B O2 1_555 1_555
Bi1A O1A 1_555 1_555
O1P Bi1B 1_555 1_555
O1C Bi1 1_555 1_555
O1A C1A 1_555 1_555
O1Z Bi1 1_555 1_555
O1R Bi1 1_555 1_555
O2P Bi1 1_555 1_555
O2C Bi1A 1_555 1_555
O2A Bi1 1_555 1_555
O2F Bi1 1_555 1_555
O2X Bi1 1_555 1_555
C1P O1P 1_555 1_555
C1C O1C 1_555 1_555
C1A O2A 1_555 1_555
O2P C1P 1_555 1_555
O2C C1C 1_555 1_555
C1C C1A 1_555 1_555

#END
