
#######################################################################
#
#                 Cambridge Crystallographic Data Centre
#                                CCDC 
#
#######################################################################
#
# If this CIF has been generated from an entry in the Cambridge 
# Structural Database, then it will include bibliographic, chemical, 
# crystal, experimental, refinement or atomic coordinate data resulting 
# from the CCDC's data processing and validation procedures.
#
#######################################################################

data_OGESUP
_symmetry_cell_setting           monoclinic
_symmetry_space_group_name_H-M   'P 21/c'
_symmetry_Int_Tables_number      14
_space_group_name_Hall           '-P 2ybc'
loop_
_symmetry_equiv_pos_site_id
_symmetry_equiv_pos_as_xyz
1 x,y,z
2 -x,1/2+y,1/2-z
3 -x,-y,-z
4 x,1/2-y,1/2+z
_cell_length_a                   20.5361(7)
_cell_length_b                   5.0737(2)
_cell_length_c                   7.0706(2)
_cell_angle_alpha                90
_cell_angle_beta                 92.147(1)
_cell_angle_gamma                90
_cell_volume                     736.197
loop_
_atom_site_label
_atom_site_type_symbol
_atom_site_fract_x
_atom_site_fract_y
_atom_site_fract_z
C1 C 0.3471(5) 0.563(2) 0.4021(14)
C2 C 0.4127(5) 0.4393(17) 0.3934(13)
H1 H 0.4251 0.4386 0.2623
H2 H 0.4091 0.2570 0.4329
C3 C 0.4679(4) 0.5675(18) 0.5121(13)
H3 H 0.4717 0.7511 0.4758
H4 H 0.4572 0.5620 0.6446
C4 C 0.0280(5) 0.0558(17) 0.0622(15)
H5 H 0.0156 0.0555 0.1932
H6 H 0.0360 0.2369 0.0258
C5 C 0.0908(3) -0.1049(15) 0.0443(10)
H7 H 0.0825 -0.2851 0.0825
H8 H 0.1022 -0.1081 -0.0876
C6 C 0.1480(6) 0.0005(14) 0.1613(17)
O1 O 0.2982(4) 0.4317(15) 0.3349(11)
O2 O 0.3429(3) 0.7936(11) 0.4679(8)
O3 O 0.1459(3) 0.2238(12) 0.2325(9)
O4 O 0.1986(3) -0.1433(12) 0.1794(8)
Pb1 Pb 0.242775(19) 0.47873(7) 0.00949(5)
C1B C 0.6529(5) 0.437(2) 0.5979(14)
C2B C 0.5873(5) 0.5607(17) 0.6066(13)
H1B H 0.5749 0.5614 0.7377
H2B H 0.5909 0.7430 0.5671
C3B C 0.5321(4) 0.4325(18) 0.4879(13)
H3B H 0.5283 0.2489 0.5242
H4B H 0.5428 0.4380 0.3554
C4B C -0.0280(5) -0.0558(17) -0.0622(15)
H5B H -0.0156 -0.0555 -0.1932
H6B H -0.0360 -0.2369 -0.0258
C5B C -0.0908(3) 0.1049(15) -0.0443(10)
H7B H -0.0825 0.2851 -0.0825
H8B H -0.1022 0.1081 0.0876
C6B C -0.1480(6) -0.0005(14) -0.1613(17)
O1B O 0.7018(4) 0.5683(15) 0.6651(11)
O1C O 0.2982(4) 0.0683(15) -0.1651(11)
O1A O 0.7018(4) 0.9317(15) 1.1651(11)
O2B O 0.6571(3) 0.2064(11) 0.5321(8)
O2C O 0.3429(3) 0.7064(11) -0.0321(8)
O2A O 0.6571(3) 0.2936(11) 1.0321(8)
O3B O -0.1459(3) -0.2238(12) -0.2325(9)
O3C O 0.1459(3) 0.2762(12) -0.2675(9)
O3B_2 O 0.8541(3) 0.7762(12) 0.7675(9)
O3A O 0.8541(3) 0.7238(12) 1.2675(9)
O4B O -0.1986(3) 0.1433(12) -0.1794(8)
O4_2 O 0.1986(3) 0.8567(12) 0.1794(8)
O4C O 0.1986(3) 0.6433(12) -0.3206(8)
O4B_2 O 0.8014(3) 0.1433(12) 0.8206(8)
O4A O 0.8014(3) 0.3567(12) 1.3206(8)
Pb1B Pb 0.757225(19) 0.52127(7) 0.99051(5)
Pb1C Pb 0.242775(19) 0.02127(7) 0.50949(5)
Pb1C_2 Pb 0.242775(19) 1.02127(7) 0.50949(5)
Pb1_2 Pb 0.242775(19) -0.52127(7) 0.00949(5)
Pb1A Pb 0.757225(19) 0.97873(7) 0.49051(5)
Pb1A_2 Pb 0.757225(19) -0.02127(7) 0.49051(5)
Pb1B_2 Pb -0.242775(19) -0.47873(7) -0.00949(5)
Pb1A_3 Pb -0.242775(19) -0.02127(7) -0.50949(5)
Pb1B_3 Pb -0.242775(19) 0.52127(7) -0.00949(5)
loop_
_geom_bond_atom_site_label_1
_geom_bond_atom_site_label_2
_geom_bond_site_symmetry_1
_geom_bond_site_symmetry_2
C1 C2 1_555 1_555
C2 H1 1_555 1_555
H2 C2 1_555 1_555
C3 C2 1_555 1_555
H3 C3 1_555 1_555
H4 C3 1_555 1_555
C4 H5 1_555 1_555
H6 C4 1_555 1_555
C5 C4 1_555 1_555
H7 C5 1_555 1_555
H8 C5 1_555 1_555
C6 C5 1_555 1_555
O1 C1 1_555 1_555
O2 C1 1_555 1_555
O3 C6 1_555 1_555
O4 C6 1_555 1_555
Pb1 O1 1_555 1_555
C1B C2B 1_555 1_555
C2B H1B 1_555 1_555
H2B C2B 1_555 1_555
C3B C3 1_555 1_555
H3B C3B 1_555 1_555
H4B C3B 1_555 1_555
C4B C4 1_555 1_555
H5B C4B 1_555 1_555
H6B C4B 1_555 1_555
C5B C4B 1_555 1_555
H7B C5B 1_555 1_555
H8B C5B 1_555 1_555
C6B C5B 1_555 1_555
O1B C1B 1_555 1_555
O1C Pb1 1_555 1_555
O1A Pb1B 1_555 1_555
O2B C1B 1_555 1_555
O2C Pb1 1_555 1_555
O2A Pb1B 1_555 1_555
O3B C6B 1_555 1_555
O3C Pb1 1_555 1_555
O3B_2 Pb1B 1_555 1_555
O3A Pb1B 1_555 1_555
O4B C6B 1_555 1_555
O4_2 Pb1 1_555 1_555
O4C Pb1 1_555 1_555
O4B_2 Pb1B 1_555 1_555
O4A Pb1B 1_555 1_555
Pb1B O1B 1_555 1_555
Pb1C O1 1_555 1_555
Pb1C_2 O2 1_555 1_555
Pb1_2 O4 1_555 1_555
Pb1A O1B 1_555 1_555
Pb1A_2 O2B 1_555 1_555
Pb1B_2 O3B 1_555 1_555
Pb1A_3 O3B 1_555 1_555
Pb1B_3 O4B 1_555 1_555
O3 Pb1 1_555 1_555
O3 Pb1C 1_555 1_555
O4 Pb1C 1_555 1_555
C2B C3B 1_555 1_555
O3B_2 Pb1A 1_555 1_555
O4B Pb1A_3 1_555 1_555
O4_2 Pb1C_2 1_555 1_555
O4B_2 Pb1A_2 1_555 1_555

#END
