
#######################################################################
#
#                 Cambridge Crystallographic Data Centre
#                                CCDC 
#
#######################################################################
#
# If this CIF has been generated from an entry in the Cambridge 
# Structural Database, then it will include bibliographic, chemical, 
# crystal, experimental, refinement or atomic coordinate data resulting 
# from the CCDC's data processing and validation procedures.
#
#######################################################################

data_OGEVEC
_symmetry_cell_setting           orthorhombic
_symmetry_space_group_name_H-M   'P 21 21 21'
_symmetry_Int_Tables_number      19
_space_group_name_Hall           'P 2ac 2ab'
loop_
_symmetry_equiv_pos_site_id
_symmetry_equiv_pos_as_xyz
1 x,y,z
2 1/2-x,-y,1/2+z
3 1/2+x,1/2-y,-z
4 -x,1/2+y,1/2-z
_cell_length_a                   6.9699(2)
_cell_length_b                   9.3455(2)
_cell_length_c                   19.0541(5)
_cell_angle_alpha                90
_cell_angle_beta                 90
_cell_angle_gamma                90
_cell_volume                     1241.13
loop_
_atom_site_label
_atom_site_type_symbol
_atom_site_fract_x
_atom_site_fract_y
_atom_site_fract_z
K1 K -0.06507(7) -0.40061(5) -0.56406(3)
N1 N 0.4847(2) -0.7836(2) -0.66628(9)
N2 N 0.3651(3) -0.36286(19) -0.50104(10)
C1 C 0.4889(3) -0.9108(2) -0.69926(12)
H1 H 0.5610 -0.9165 -0.7415
C2 C 0.3974(3) -1.0340(3) -0.67704(12)
H2 H 0.4061 -1.1207 -0.7029
C3 C 0.2911(3) -1.0255(2) -0.61458(13)
H3 H 0.2255 -1.1073 -0.5972
C4 C 0.2826(3) -0.8984(2) -0.57877(11)
H4 H 0.2109 -0.8924 -0.5365
C5 C 0.3811(3) -0.7747(2) -0.60462(10)
C6 C 0.2835(3) -0.4825(3) -0.47342(11)
H5 H 0.2223 -0.4731 -0.4291
C7 C 0.2818(3) -0.6158(2) -0.50388(10)
H6 H 0.2184 -0.6928 -0.4810
C8 C 0.3750(3) -0.6394(2) -0.56977(11)
C9 C 0.4607(3) -0.5137(2) -0.59903(11)
H7 H 0.5254 -0.5192 -0.6428
C10 C 0.4503(3) -0.3855(2) -0.56446(11)
H8 H 0.5077 -0.3052 -0.5866
N3 N -0.0932(3) -0.66420(19) -0.63291(10)
H9 H -0.0293 -0.7354 -0.6091
H10 H -0.2189 -0.6909 -0.6397
C11 C 0.0017(3) -0.6287(2) -0.69919(12)
H11 H 0.1313 -0.5909 -0.6887
H12 H -0.0717 -0.5515 -0.7225
C12 C 0.0213(3) -0.7538(2) -0.75006(11)
H13 H 0.0882 -0.8330 -0.7257
H14 H -0.1088 -0.7881 -0.7625
N4 N 0.1247(3) -0.7215(3) -0.81476(10)
H15 H 0.2537 -0.7229 -0.8046
H16 H 0.0944 -0.6292 -0.8274
K1B K 0.43493(7) -0.09939(5) -0.43594(3)
K1C K 0.06507(7) -0.90061(5) -0.93594(3)
N2B N -0.1349(3) -0.13714(19) -0.49896(10)
N4C N -0.1247(3) -0.2215(3) -0.68524(10)
H15C H -0.2537 -0.2229 -0.6954
H16C H -0.0944 -0.1292 -0.6726
loop_
_geom_bond_atom_site_label_1
_geom_bond_atom_site_label_2
_geom_bond_site_symmetry_1
_geom_bond_site_symmetry_2
K1 N2 1_555 1_555
N1 C1 1_555 1_555
N2 C6 1_555 1_555
C1 H1 1_555 1_555
C2 C1 1_555 1_555
H2 C2 1_555 1_555
C3 C2 1_555 1_555
H3 C3 1_555 1_555
C4 C3 1_555 1_555
H4 C4 1_555 1_555
C5 N1 1_555 1_555
C6 H5 1_555 1_555
C7 C6 1_555 1_555
H6 C7 1_555 1_555
C8 C5 1_555 1_555
C9 C8 1_555 1_555
H7 C9 1_555 1_555
C10 N2 1_555 1_555
H8 C10 1_555 1_555
N3 K1 1_555 1_555
H9 N3 1_555 1_555
H10 N3 1_555 1_555
C11 N3 1_555 1_555
H11 C11 1_555 1_555
H12 C11 1_555 1_555
C12 C11 1_555 1_555
H13 C12 1_555 1_555
H14 C12 1_555 1_555
N4 C12 1_555 1_555
H15 N4 1_555 1_555
H16 N4 1_555 1_555
K1B N2 1_555 1_555
K1C N4 1_555 1_555
N2B K1 1_555 1_555
N4C K1 1_555 1_555
H15C N4C 1_555 1_555
H16C N4C 1_555 1_555
C4 C5 1_555 1_555
C7 C8 1_555 1_555
C9 C10 1_555 1_555

#END
