
#######################################################################
#
#                 Cambridge Crystallographic Data Centre
#                                CCDC 
#
#######################################################################
#
# If this CIF has been generated from an entry in the Cambridge 
# Structural Database, then it will include bibliographic, chemical, 
# crystal, experimental, refinement or atomic coordinate data resulting 
# from the CCDC's data processing and validation procedures.
#
#######################################################################

data_OGICOY
_symmetry_cell_setting           triclinic
_symmetry_space_group_name_H-M   'P -1'
_symmetry_Int_Tables_number      2
_space_group_name_Hall           '-P 1'
loop_
_symmetry_equiv_pos_site_id
_symmetry_equiv_pos_as_xyz
1 x,y,z
2 -x,-y,-z
_cell_length_a                   10.1751(7)
_cell_length_b                   10.4299(7)
_cell_length_c                   11.7338(8)
_cell_angle_alpha                68.7230(10)
_cell_angle_beta                 71.8260(10)
_cell_angle_gamma                76.0910(10)
_cell_volume                     1091.05
loop_
_atom_site_label
_atom_site_type_symbol
_atom_site_fract_x
_atom_site_fract_y
_atom_site_fract_z
Cd1 Cd 0.423749(15) 0.327663(15) 0.569276(14)
Cl1 Cl 0.65930(5) 0.41102(5) 0.54145(5)
N1 N 0.51913(19) 0.26897(18) 0.38683(16)
N2 N 0.61930(17) 0.31885(17) 0.18309(16)
N3 N 1.05813(17) 1.12794(18) -0.36307(16)
N4 N 1.20959(19) 1.2656(2) -0.39648(18)
O1 O 0.3563(2) 0.32033(16) 0.78100(16)
O2 O 0.43699(17) 0.11674(16) 0.74889(14)
O3 O 0.27688(18) -0.00777(17) 0.99507(16)
O4 O 0.8554(2) 0.64774(19) -0.29904(14)
C1 C 0.5839(2) 0.3604(2) 0.2861(2)
H1 H 0.6028 0.4432 0.2863
C2 C 0.5119(2) 0.1633(2) 0.3456(2)
H2 H 0.4706 0.0843 0.3962
C3 C 0.5738(2) 0.1917(2) 0.2206(2)
H3 H 0.5837 0.1368 0.1703
C4 C 0.6853(2) 0.3980(2) 0.05842(19)
C5 C 0.6471(2) 0.3995(2) -0.0458(2)
H4 H 0.5816 0.3451 -0.0357
C6 C 0.7069(2) 0.4823(2) -0.1646(2)
H5 H 0.6837 0.4819 -0.2351
C7 C 0.8015(2) 0.5658(2) -0.1782(2)
C8 C 0.8414(2) 0.5621(2) -0.0747(2)
H6 H 0.9069 0.6166 -0.0847
C9 C 0.7838(2) 0.4772(2) 0.0438(2)
H7 H 0.8113 0.4735 0.1135
C10 C 0.9054(3) 0.7666(3) -0.3098(2)
C11 C 1.0466(3) 0.7704(3) -0.3502(2)
H8 H 1.1081 0.6933 -0.3657
C12 C 1.0968(2) 0.8905(2) -0.3679(2)
H9 H 1.1923 0.8946 -0.3967
C13 C 1.0054(2) 1.0040(2) -0.34292(19)
C14 C 0.8633(2) 0.9987(3) -0.3009(2)
H10 H 0.8017 1.0747 -0.2831
C15 C 0.8131(2) 0.8796(3) -0.2854(2)
H11 H 0.7175 0.8760 -0.2586
C16 C 1.1917(2) 1.1374(2) -0.3739(2)
H12 H 1.2627 1.0620 -0.3662
C17 C 1.0805(2) 1.3435(2) -0.3988(2)
H13 H 1.0608 1.4389 -0.4123
C18 C 0.9861(2) 1.2608(2) -0.3784(2)
H14 H 0.8914 1.2881 -0.3754
C19 C 0.3784(2) 0.1892(2) 0.8197(2)
C20 C 0.3295(3) 0.1194(3) 0.9621(2)
H15 H 0.4073 0.1012 0.9996
H16 H 0.2570 0.1834 0.9979
C21 C 0.1386(3) 0.0024(2) 0.9951(2)
C22 C 0.0575(3) 0.1227(2) 0.9399(2)
H17 H 0.0954 0.2053 0.8988
C23 C 0.0796(3) -0.1196(2) 1.0538(2)
H18 H 0.1337 -0.2012 1.0898
O1A O -0.3563(2) -0.32033(16) 1.21900(16)
O2A O -0.43699(17) -0.11674(16) 1.25111(14)
O3A O -0.27688(18) 0.00777(17) 1.00493(16)
C19A C -0.3784(2) -0.1892(2) 1.1803(2)
C20A C -0.3295(3) -0.1194(3) 1.0379(2)
H15A H -0.4073 -0.1012 1.0004
H16A H -0.2570 -0.1834 1.0021
C21A C -0.1386(3) -0.0024(2) 1.0049(2)
C22A C -0.0575(3) -0.1227(2) 1.0601(2)
H17A H -0.0954 -0.2053 1.1012
C23A C -0.0796(3) 0.1196(2) 0.9462(2)
H18A H -0.1337 0.2012 0.9102
Cd1A Cd -0.423749(15) -0.327663(15) 1.430724(14)
Cl1A Cl -0.65930(5) -0.41102(5) 1.45855(5)
N1A N -0.51913(19) -0.26897(18) 1.61317(16)
N2A N -0.61930(17) -0.31885(17) 1.81691(16)
N3A N -1.05813(17) -1.12794(18) 2.36307(16)
N4A N -1.20959(19) -1.2656(2) 2.39648(18)
O4A O -0.8554(2) -0.64774(19) 2.29904(14)
C1A C -0.5839(2) -0.3604(2) 1.7139(2)
H1A H -0.6028 -0.4432 1.7137
C2A C -0.5119(2) -0.1633(2) 1.6544(2)
H2A H -0.4706 -0.0843 1.6038
C3A C -0.5738(2) -0.1917(2) 1.7794(2)
H3A H -0.5837 -0.1368 1.8297
C4A C -0.6853(2) -0.3980(2) 1.94158(19)
C5A C -0.6471(2) -0.3995(2) 2.0458(2)
H4A H -0.5816 -0.3451 2.0357
C6A C -0.7069(2) -0.4823(2) 2.1646(2)
H5A H -0.6837 -0.4819 2.2351
C7A C -0.8015(2) -0.5658(2) 2.1782(2)
C8A C -0.8414(2) -0.5621(2) 2.0747(2)
H6A H -0.9069 -0.6166 2.0847
C9A C -0.7838(2) -0.4772(2) 1.9562(2)
H7A H -0.8113 -0.4735 1.8865
C10A C -0.9054(3) -0.7666(3) 2.3098(2)
C11A C -1.0466(3) -0.7704(3) 2.3502(2)
H8A H -1.1081 -0.6933 2.3657
C12A C -1.0968(2) -0.8905(2) 2.3679(2)
H9A H -1.1923 -0.8946 2.3967
C13A C -1.0054(2) -1.0040(2) 2.34292(19)
C14A C -0.8633(2) -0.9987(3) 2.3009(2)
H10A H -0.8017 -1.0747 2.2831
C15A C -0.8131(2) -0.8796(3) 2.2854(2)
H11A H -0.7175 -0.8760 2.2586
C16A C -1.1917(2) -1.1374(2) 2.3739(2)
H12A H -1.2627 -1.0620 2.3662
C17A C -1.0805(2) -1.3435(2) 2.3988(2)
H13A H -1.0608 -1.4389 2.4123
C18A C -0.9861(2) -1.2608(2) 2.3784(2)
H14A H -0.8914 -1.2881 2.3754
Cd1_2 Cd -0.576251(15) -0.672337(15) 1.569276(14)
Cd1_3 Cd 1.423749(15) 1.327663(15) -0.430724(14)
Cd1A_2 Cd -1.423749(15) -1.327663(15) 2.430724(14)
Cd1A_3 Cd 0.576251(15) 0.672337(15) 0.430724(14)
Cl1_2 Cl -0.34070(5) -0.58898(5) 1.54145(5)
Cl1A_2 Cl 0.34070(5) 0.58898(5) 0.45855(5)
N4_2 N 0.20959(19) 0.2656(2) 0.60352(18)
N4A_2 N -0.20959(19) -0.2656(2) 1.39648(18)
loop_
_geom_bond_atom_site_label_1
_geom_bond_atom_site_label_2
_geom_bond_site_symmetry_1
_geom_bond_site_symmetry_2
Cd1 Cl1 1_555 1_555
Cl1 Cd1A_3 1_555 1_555
N1 Cd1 1_555 1_555
N2 C1 1_555 1_555
N3 C13 1_555 1_555
N4 C16 1_555 1_555
O1 Cd1 1_555 1_555
O2 Cd1 1_555 1_555
O3 C20 1_555 1_555
O4 C7 1_555 1_555
C1 N1 1_555 1_555
H1 C1 1_555 1_555
C2 N1 1_555 1_555
H2 C2 1_555 1_555
C3 N2 1_555 1_555
H3 C3 1_555 1_555
C4 N2 1_555 1_555
C5 C4 1_555 1_555
H4 C5 1_555 1_555
C6 C5 1_555 1_555
H5 C6 1_555 1_555
C7 C6 1_555 1_555
C8 C7 1_555 1_555
H6 C8 1_555 1_555
C9 C4 1_555 1_555
H7 C9 1_555 1_555
C10 O4 1_555 1_555
C11 C10 1_555 1_555
H8 C11 1_555 1_555
C12 C11 1_555 1_555
H9 C12 1_555 1_555
C13 C12 1_555 1_555
C14 C13 1_555 1_555
H10 C14 1_555 1_555
C15 C10 1_555 1_555
H11 C15 1_555 1_555
C16 N3 1_555 1_555
H12 C16 1_555 1_555
C17 N4 1_555 1_555
H13 C17 1_555 1_555
C18 N3 1_555 1_555
H14 C18 1_555 1_555
C19 O1 1_555 1_555
C20 C19 1_555 1_555
H15 C20 1_555 1_555
H16 C20 1_555 1_555
C21 O3 1_555 1_555
C22 C21 1_555 1_555
H17 C22 1_555 1_555
C23 C21 1_555 1_555
H18 C23 1_555 1_555
O1A C19A 1_555 1_555
O2A C19A 1_555 1_555
O3A C20A 1_555 1_555
C19A C20A 1_555 1_555
C20A H15A 1_555 1_555
H16A C20A 1_555 1_555
C21A O3A 1_555 1_555
C22A C23 1_555 1_555
H17A C22A 1_555 1_555
C23A C22 1_555 1_555
H18A C23A 1_555 1_555
Cd1A O1A 1_555 1_555
Cl1A Cd1A 1_555 1_555
N1A Cd1A 1_555 1_555
N2A C1A 1_555 1_555
N3A C13A 1_555 1_555
N4A C16A 1_555 1_555
O4A C7A 1_555 1_555
C1A N1A 1_555 1_555
H1A C1A 1_555 1_555
C2A N1A 1_555 1_555
H2A C2A 1_555 1_555
C3A N2A 1_555 1_555
H3A C3A 1_555 1_555
C4A N2A 1_555 1_555
C5A C4A 1_555 1_555
H4A C5A 1_555 1_555
C6A C5A 1_555 1_555
H5A C6A 1_555 1_555
C7A C6A 1_555 1_555
C8A C7A 1_555 1_555
H6A C8A 1_555 1_555
C9A C4A 1_555 1_555
H7A C9A 1_555 1_555
C10A O4A 1_555 1_555
C11A C10A 1_555 1_555
H8A C11A 1_555 1_555
C12A C11A 1_555 1_555
H9A C12A 1_555 1_555
C13A C12A 1_555 1_555
C14A C13A 1_555 1_555
H10A C14A 1_555 1_555
C15A C10A 1_555 1_555
H11A C15A 1_555 1_555
C16A N3A 1_555 1_555
H12A C16A 1_555 1_555
C17A N4A 1_555 1_555
H13A C17A 1_555 1_555
C18A N3A 1_555 1_555
H14A C18A 1_555 1_555
Cd1_2 Cl1A 1_555 1_555
Cd1_3 N4 1_555 1_555
Cd1A_2 N4A 1_555 1_555
Cd1A_3 Cl1A_2 1_555 1_555
Cl1_2 Cd1A 1_555 1_555
Cl1A_2 Cd1 1_555 1_555
N4_2 Cd1 1_555 1_555
N4A_2 Cd1A 1_555 1_555
O2 C19 1_555 1_555
C2 C3 1_555 1_555
C8 C9 1_555 1_555
C14 C15 1_555 1_555
C17 C18 1_555 1_555
O2A Cd1A 1_555 1_555
C21A C22A 1_555 1_555
C21A C23A 1_555 1_555
C2A C3A 1_555 1_555
C8A C9A 1_555 1_555
C14A C15A 1_555 1_555
C17A C18A 1_555 1_555
Cd1_2 Cl1_2 1_555 1_555

#END
