
#######################################################################
#
#                 Cambridge Crystallographic Data Centre
#                                CCDC 
#
#######################################################################
#
# If this CIF has been generated from an entry in the Cambridge 
# Structural Database, then it will include bibliographic, chemical, 
# crystal, experimental, refinement or atomic coordinate data resulting 
# from the CCDC's data processing and validation procedures.
#
#######################################################################

data_OGICAI
_symmetry_cell_setting           monoclinic
_symmetry_space_group_name_H-M   'P 21/c'
_symmetry_Int_Tables_number      14
_space_group_name_Hall           '-P 2ybc'
loop_
_symmetry_equiv_pos_site_id
_symmetry_equiv_pos_as_xyz
1 x,y,z
2 -x,1/2+y,1/2-z
3 -x,-y,-z
4 x,1/2-y,1/2+z
_cell_length_a                   9.2285(11)
_cell_length_b                   7.2994(9)
_cell_length_c                   9.8495(11)
_cell_angle_alpha                90
_cell_angle_beta                 101.280(3)
_cell_angle_gamma                90
_cell_volume                     650.67
loop_
_atom_site_label
_atom_site_type_symbol
_atom_site_fract_x
_atom_site_fract_y
_atom_site_fract_z
V1 V 0.0027(1) 0.1550(1) 0.7672(1)
P1 P 0.2033(1) 0.1308(1) 1.0828(1)
O1 O 0.3721(3) 0.1242(3) 1.1279(3)
O2 O 0.1707(3) 0.1503(3) 0.9244(3)
O3 O 0.0526(3) -0.1331(3) 0.7258(3)
O4 O 0.1449(3) 0.3008(3) 1.1464(3)
O5 O 0.1334(3) -0.0453(3) 1.1257(3)
N1 N -0.1522(4) 0.1042(4) 0.5790(3)
N2 N -0.5093(3) 0.2901(4) 0.3777(3)
C1 C -0.2997(4) 0.1884(5) 0.5607(4)
C2 C -0.3865(4) 0.1560(5) 0.4144(4)
O3A O -0.0526(3) 0.3669(3) 0.7742(3)
O4C O 0.1449(3) 0.1992(3) 0.6464(3)
O5B O -0.1334(3) 0.0453(3) 0.8743(3)
V1A V -0.0027(1) -0.3450(1) 0.7328(1)
V1C V 0.0027(1) 0.3450(1) 1.2672(1)
V1B V -0.0027(1) -0.1550(1) 1.2328(1)
loop_
_geom_bond_atom_site_label_1
_geom_bond_atom_site_label_2
_geom_bond_site_symmetry_1
_geom_bond_site_symmetry_2
V1 O2 1_555 1_555
P1 O1 1_555 1_555
O2 P1 1_555 1_555
O3 V1 1_555 1_555
O4 P1 1_555 1_555
O5 P1 1_555 1_555
N1 V1 1_555 1_555
N2 C2 1_555 1_555
C1 N1 1_555 1_555
C2 C1 1_555 1_555
O3A V1 1_555 1_555
O4C V1 1_555 1_555
O5B V1 1_555 1_555
V1A O3 1_555 1_555
V1C O4 1_555 1_555
V1B O5 1_555 1_555

#END
