
#######################################################################
#
#                 Cambridge Crystallographic Data Centre
#                                CCDC 
#
#######################################################################
#
# If this CIF has been generated from an entry in the Cambridge 
# Structural Database, then it will include bibliographic, chemical, 
# crystal, experimental, refinement or atomic coordinate data resulting 
# from the CCDC's data processing and validation procedures.
#
#######################################################################

data_OGIFOZ
_symmetry_cell_setting           monoclinic
_symmetry_space_group_name_H-M   'P 21/n'
_symmetry_Int_Tables_number      14
_space_group_name_Hall           '-P 2yn'
loop_
_symmetry_equiv_pos_site_id
_symmetry_equiv_pos_as_xyz
1 x,y,z
2 1/2-x,1/2+y,1/2-z
3 -x,-y,-z
4 1/2+x,1/2-y,1/2+z
_cell_length_a                   16.0317(3)
_cell_length_b                   18.6175(2)
_cell_length_c                   18.5124(3)
_cell_angle_alpha                90
_cell_angle_beta                 115.2447(9)
_cell_angle_gamma                90
_cell_volume                     4997.69
loop_
_atom_site_label
_atom_site_type_symbol
_atom_site_fract_x
_atom_site_fract_y
_atom_site_fract_z
Ni1 Ni 0.1332(1) 0.2508(1) 0.4295(1)
Fe1 Fe 0.2280(1) 0.2972(1) 0.7156(1)
Ni2 Ni 0.3023(1) 0.2084(1) 0.9911(1)
Fe2 Fe 0.2003(1) 0.1655(1) 0.2046(1)
N1 N 0.3123(1) 0.3813(1) 0.7379(1)
N2 N 0.3171(1) 0.2586(1) 0.8947(1)
N3 N 0.2710(1) 0.0845(1) 0.2730(1)
N4 N 0.2229(2) 0.3222(1) 0.4065(2)
N5 N 0.3704(2) 0.2913(1) 1.0745(1)
N6 N 0.2316(2) 0.1252(1) 0.9089(1)
N7 N 0.0225(2) 0.3164(1) 0.3563(1)
N8 N 0.1520(1) 0.3714(1) 0.7368(1)
N9 N 0.2825(1) 0.1546(1) 0.0823(1)
N10 N 0.1106(1) 0.0863(1) 0.1554(1)
N11 N 0.4273(2) 0.1520(1) 1.0188(2)
N12 N 0.1529(1) 0.3108(1) 0.5329(1)
C1 C 0.1252(2) 0.2367(1) 0.1339(1)
C2 C 0.2830(2) 0.4423(1) 0.7601(1)
N13 N 0.2449(2) 0.1837(1) 0.4974(2)
N14 N 0.1781(2) 0.2648(1) 0.9632(2)
C3 C 0.1476(2) 0.1846(1) 0.2788(1)
N15 N 0.3511(2) 0.2780(1) 0.2841(1)
N16 N 0.0807(2) 0.2791(1) 0.0881(1)
C4 C 0.1777(2) 0.3121(1) 0.6017(1)
C5 C 0.0244(2) 0.0925(2) 0.0975(2)
N17 N 0.0805(2) 0.1813(1) 0.6754(1)
N18 N 0.3508(2) 0.1840(1) 0.6911(1)
C6 C 0.3940(2) 0.3828(2) 0.7340(1)
C7 C 0.3066(2) 0.2286(1) 0.7013(1)
C8 C 0.2532(2) 0.1535(1) 0.1295(1)
N19 N 0.0455(2) 0.1824(2) 0.4593(2)
C9 C 0.1384(2) 0.2244(1) 0.6929(1)
C10 C 0.2835(2) 0.2735(1) 0.8274(51)
C11 C 0.1933(2) 0.4359(1) 0.7622(1)
C12 C 0.2315(2) 0.0190(2) 0.2517(2)
C13 C 0.0683(2) 0.3618(2) 0.7356(1)
C14 C 0.2580(2) 0.0502(2) 0.9349(2)
C15 C 0.1397(2) 0.0200(2) 0.1853(2)
C16 C 0.4194(2) 0.5053(2) 0.7741(1)
C17 C 0.4269(2) 0.0733(2) 1.0278(2)
C18 C 0.2925(2) 0.2357(1) 0.2547(1)
C19 C 0.4488(2) 0.4434(2) 0.7518(1)
C20 C 0.0342(2) 0.3947(2) 0.3658(2)
C21 C 0.3366(2) 0.5045(2) 0.7786(1)
C22 C 0.0674(2) 0.4767(2) 0.7886(2)
C23 C 0.1527(2) 0.4892(2) 0.7892(1)
C24 C 0.0836(3) -0.0406(2) 0.1560(2)
C25 C 0.3579(2) 0.0364(2) 0.9537(2)
C26 C 0.3524(2) 0.0896(2) 0.3376(2)
C27 C 0.1768(2) 0.3437(2) 0.9548(2)
C28 C 0.2305(3) 0.1056(2) 0.4936(2)
C29 C 0.0242(2) 0.4129(2) 0.7601(2)
C30 C 0.2444(3) 0.3799(2) 1.0295(2)
C31 C 0.3443(2) 0.3663(2) 1.0495(2)
C32 C 0.2079(2) 0.4002(2) 0.4082(2)
C33 C -0.0038(3) -0.0326(2) 0.0969(2)
C34 C 0.0602(3) 0.1042(2) 0.4644(2)
C35 C 0.3593(3) -0.0369(2) 0.3582(3)
C36 C 0.1578(3) 0.0847(2) 0.5206(2)
C37 C -0.0341(3) 0.0346(2) 0.0677(2)
C38 C 0.1126(2) 0.4211(2) 0.3480(2)
C39 C 0.2758(3) -0.0430(2) 0.2939(2)
C40 C 0.3977(2) 0.0293(2) 0.3815(2)
N20 N 0.1209(1) 0.1952(1) 0.3268(1)
N9_2 N 0.2825(1) 0.1546(1) 1.0823(1)
Ni2_2 Ni 0.3023(1) 0.2084(1) -0.0089(1)
O1 O 0.0351(2) 0.1849(1) 0.8165(2)
O2 O 0.4078(2) 0.2570(2) 0.4603(2)
O3 O 0.4656(2) 0.1210(2) 0.6278(2)
loop_
_geom_bond_atom_site_label_1
_geom_bond_atom_site_label_2
_geom_bond_site_symmetry_1
_geom_bond_site_symmetry_2
Ni1 N4 1_555 1_555
Fe1 N1 1_555 1_555
Ni2 N2 1_555 1_555
Fe2 N3 1_555 1_555
N1 C2 1_555 1_555
N2 C10 1_555 1_555
N3 C12 1_555 1_555
N4 C32 1_555 1_555
N5 Ni2 1_555 1_555
N6 Ni2 1_555 1_555
N7 Ni1 1_555 1_555
N8 Fe1 1_555 1_555
N9 C8 1_555 1_555
N10 Fe2 1_555 1_555
N11 Ni2 1_555 1_555
N12 Ni1 1_555 1_555
C1 Fe2 1_555 1_555
C2 C11 1_555 1_555
N13 Ni1 1_555 1_555
N14 Ni2 1_555 1_555
C3 Fe2 1_555 1_555
N15 C18 1_555 1_555
N16 C1 1_555 1_555
C4 Fe1 1_555 1_555
C5 N10 1_555 1_555
N17 C9 1_555 1_555
N18 C7 1_555 1_555
C6 N1 1_555 1_555
C7 Fe1 1_555 1_555
C8 Fe2 1_555 1_555
N19 Ni1 1_555 1_555
C9 Fe1 1_555 1_555
C10 Fe1 1_555 1_555
C11 N8 1_555 1_555
C12 C15 1_555 1_555
C13 N8 1_555 1_555
C14 N6 1_555 1_555
C15 N10 1_555 1_555
C16 C19 1_555 1_555
C17 N11 1_555 1_555
C18 Fe2 1_555 1_555
C19 C6 1_555 1_555
C20 N7 1_555 1_555
C21 C2 1_555 1_555
C22 C23 1_555 1_555
C23 C11 1_555 1_555
C24 C15 1_555 1_555
C25 C14 1_555 1_555
C26 N3 1_555 1_555
C27 N14 1_555 1_555
C28 N13 1_555 1_555
C29 C13 1_555 1_555
C30 C27 1_555 1_555
C31 N5 1_555 1_555
C32 C38 1_555 1_555
C33 C24 1_555 1_555
C34 N19 1_555 1_555
C35 C39 1_555 1_555
C36 C28 1_555 1_555
C37 C5 1_555 1_555
C38 C20 1_555 1_555
C39 C12 1_555 1_555
C40 C26 1_555 1_555
N20 Ni1 1_555 1_555
N9_2 Ni2 1_555 1_555
Ni2_2 N9 1_555 1_555
N12 C4 1_555 1_555
C3 N20 1_555 1_555
C16 C21 1_555 1_555
C17 C25 1_555 1_555
C22 C29 1_555 1_555
C30 C31 1_555 1_555
C33 C37 1_555 1_555
C34 C36 1_555 1_555
C35 C40 1_555 1_555

#END
