
#######################################################################
#
#                 Cambridge Crystallographic Data Centre
#                                CCDC 
#
#######################################################################
#
# If this CIF has been generated from an entry in the Cambridge 
# Structural Database, then it will include bibliographic, chemical, 
# crystal, experimental, refinement or atomic coordinate data resulting 
# from the CCDC's data processing and validation procedures.
#
#######################################################################

data_OGIHIW
_symmetry_cell_setting           triclinic
_symmetry_space_group_name_H-M   'P -1'
_symmetry_Int_Tables_number      2
_space_group_name_Hall           '-P 1'
loop_
_symmetry_equiv_pos_site_id
_symmetry_equiv_pos_as_xyz
1 x,y,z
2 -x,-y,-z
_cell_length_a                   8.9901(14)
_cell_length_b                   9.5945(9)
_cell_length_c                   10.2763(12)
_cell_angle_alpha                96.211(7)
_cell_angle_beta                 114.225(12)
_cell_angle_gamma                105.727(12)
_cell_volume                     753.375
loop_
_atom_site_label
_atom_site_type_symbol
_atom_site_fract_x
_atom_site_fract_y
_atom_site_fract_z
Co1 Co 0.0000 0.0000 0.0000
C1 C 0.4781(3) 0.3548(2) -0.0621(2)
C2 C 0.3394(3) 0.3848(2) -0.0523(2)
C3 C 0.3629(3) 0.5303(2) 0.0085(3)
C4 C 0.4675(3) 0.2037(2) -0.1295(3)
C5 C 0.1694(3) 0.2644(2) -0.0897(2)
C6 C 0.0517(4) 0.1327(3) 0.3067(3)
C7 C 0.0613(4) 0.2286(3) 0.4226(3)
C8 C 0.0339(3) 0.3609(3) 0.4003(3)
C9 C 0.0076(3) 0.3962(3) 0.2683(3)
C10 C 0.0056(3) 0.2951(3) 0.1610(3)
H1 H 0.334(5) 0.023(5) -0.292(5)
H2 H 0.2700 0.5513 0.0135
H3 H 0.0648 0.0415 0.3195
H4 H 0.0855 0.2049 0.5128
H5 H -0.0085 0.4856 0.2518
H6 H -0.0098 0.3195 0.0723
H11 H 0.262(5) -0.076(4) 0.131(4)
H12 H 0.141(5) -0.133(4) 0.171(4)
N1 N 0.0247(3) 0.1639(2) 0.1779(2)
N2 N 0.0366(3) 0.4546(2) 0.5198(2)
O1 O 0.5884(3) 0.1602(2) -0.0734(2)
O2 O 0.3261(2) 0.12853(19) -0.2502(2)
O3 O 0.1831(2) 0.15663(17) -0.03236(18)
O4 O 0.0319(2) 0.2853(2) -0.1647(2)
O5 O 0.1999(2) -0.05470(19) 0.1591(2)
Co1_2 Co 0.0000 1.0000 1.0000
Co1_3 Co 1.0000 1.0000 0.0000
C1A C 0.5219(3) 0.6452(2) 0.0621(2)
C2A C 0.6606(3) 0.6152(2) 0.0523(2)
C3A C 0.6371(3) 0.4697(2) -0.0085(3)
C4A C 0.5325(3) 0.7963(2) 0.1295(3)
C5A C 0.8306(3) 0.7356(2) 0.0897(2)
C6A C -0.0517(4) 0.8673(3) 0.6933(3)
C7A C -0.0613(4) 0.7714(3) 0.5774(3)
C8A C -0.0339(3) 0.6391(3) 0.5997(3)
C9A C -0.0076(3) 0.6038(3) 0.7317(3)
C10A C -0.0056(3) 0.7049(3) 0.8390(3)
H1A H 0.666(5) 0.977(5) 0.292(5)
H2A H 0.7300 0.4487 -0.0135
H3A H -0.0648 0.9585 0.6805
H4A H -0.0855 0.7951 0.4872
H5A H 0.0085 0.5144 0.7482
H6A H 0.0098 0.6805 0.9277
H11A H -0.262(5) 0.076(4) -0.131(4)
H12A H -0.141(5) 0.133(4) -0.171(4)
N1A N -0.0247(3) 0.8361(2) 0.8221(2)
N1A_2 N -0.0247(3) -0.1639(2) -0.1779(2)
N2A N -0.0366(3) 0.5454(2) 0.4802(2)
O1A O 0.4116(3) 0.8398(2) 0.0734(2)
O2A O 0.6739(2) 0.87147(19) 0.2502(2)
O3A O 0.8169(2) 0.84337(17) 0.03236(18)
O3A_2 O -0.1831(2) -0.15663(17) 0.03236(18)
O4A O 0.9681(2) 0.7147(2) 0.1647(2)
O5A O -0.1999(2) 0.05470(19) -0.1591(2)
C11 C 0.6645(4) 0.1433(3) 0.4970(3)
C12 C 0.6255(5) 0.2561(4) 0.5545(3)
C13 C 0.5603(4) 0.3442(3) 0.4670(3)
C14 C 0.5366(4) 0.3172(3) 0.3240(3)
C15 C 0.5773(4) 0.2007(3) 0.2749(3)
H7 H 0.7095 0.0840 0.5571
H8 H 0.6432 0.2723 0.6514
H9 H 0.4942 0.3763 0.2624
H10 H 0.5595 0.1811 0.1780
N3 N 0.6407(3) 0.1153(2) 0.3592(2)
N4 N 0.5235(4) 0.4600(3) 0.5388(3)
C11A C 0.3355(4) 0.8567(3) 0.5030(3)
C12A C 0.3745(5) 0.7439(4) 0.4455(3)
C13A C 0.4397(4) 0.6558(3) 0.5330(3)
C14A C 0.4634(4) 0.6828(3) 0.6760(3)
C15A C 0.4227(4) 0.7993(3) 0.7251(3)
H7A H 0.2905 0.9160 0.4429
H8A H 0.3568 0.7277 0.3486
H9A H 0.5058 0.6237 0.7376
H10A H 0.4405 0.8189 0.8220
N3A N 0.3593(3) 0.8847(2) 0.6408(2)
N4A N 0.4765(4) 0.5400(3) 0.4612(3)
loop_
_geom_bond_atom_site_label_1
_geom_bond_atom_site_label_2
_geom_bond_site_symmetry_1
_geom_bond_site_symmetry_2
Co1 N1 1_555 1_555
C1 C2 1_555 1_555
C2 C3 1_555 1_555
C3 H2 1_555 1_555
C4 C1 1_555 1_555
C5 C2 1_555 1_555
C6 C7 1_555 1_555
C7 C8 1_555 1_555
C8 C9 1_555 1_555
C9 C10 1_555 1_555
C10 H6 1_555 1_555
C11 C12 1_555 1_555
C12 C13 1_555 1_555
C13 C14 1_555 1_555
C14 C15 1_555 1_555
C15 H10 1_555 1_555
H1 O2 1_555 1_555
H3 C6 1_555 1_555
H4 C7 1_555 1_555
H5 C9 1_555 1_555
H7 C11 1_555 1_555
H8 C12 1_555 1_555
H9 C14 1_555 1_555
H11 O5 1_555 1_555
H12 O5 1_555 1_555
N1 C6 1_555 1_555
N2 C8 1_555 1_555
N3 C11 1_555 1_555
N4 C13 1_555 1_555
O1 C4 1_555 1_555
O2 C4 1_555 1_555
O3 Co1 1_555 1_555
O4 C5 1_555 1_555
O5 Co1 1_555 1_555
Co1_2 N1A 1_555 1_555
Co1_3 O3A 1_555 1_555
C1A C3 1_555 1_555
C2A C1A 1_555 1_555
C3A C1 1_555 1_555
C4A C1A 1_555 1_555
C5A C2A 1_555 1_555
C6A C7A 1_555 1_555
C7A C8A 1_555 1_555
C8A C9A 1_555 1_555
C9A C10A 1_555 1_555
C10A H6A 1_555 1_555
C11A C12A 1_555 1_555
C12A C13A 1_555 1_555
C13A C14A 1_555 1_555
C14A C15A 1_555 1_555
C15A H10A 1_555 1_555
H1A O2A 1_555 1_555
H2A C3A 1_555 1_555
H3A C6A 1_555 1_555
H4A C7A 1_555 1_555
H5A C9A 1_555 1_555
H7A C11A 1_555 1_555
H8A C12A 1_555 1_555
H9A C14A 1_555 1_555
H11A O5A 1_555 1_555
H12A O5A 1_555 1_555
N1A C6A 1_555 1_555
N1A_2 Co1 1_555 1_555
N2A N2 1_555 1_555
N3A C11A 1_555 1_555
N4A N4 1_555 1_555
O1A C4A 1_555 1_555
O2A C4A 1_555 1_555
O3A C5A 1_555 1_555
O3A_2 Co1 1_555 1_555
O4A C5A 1_555 1_555
O5A Co1 1_555 1_555
C5 O3 1_555 1_555
C10 N1 1_555 1_555
C15 N3 1_555 1_555
C2A C3A 1_555 1_555
C8A N2A 1_555 1_555
C10A N1A 1_555 1_555
C13A N4A 1_555 1_555
C15A N3A 1_555 1_555

#END
