
#######################################################################
#
#                 Cambridge Crystallographic Data Centre
#                                CCDC 
#
#######################################################################
#
# If this CIF has been generated from an entry in the Cambridge 
# Structural Database, then it will include bibliographic, chemical, 
# crystal, experimental, refinement or atomic coordinate data resulting 
# from the CCDC's data processing and validation procedures.
#
#######################################################################

data_OGIHOC
_symmetry_cell_setting           triclinic
_symmetry_space_group_name_H-M   'P -1'
_symmetry_Int_Tables_number      2
_space_group_name_Hall           '-P 1'
loop_
_symmetry_equiv_pos_site_id
_symmetry_equiv_pos_as_xyz
1 x,y,z
2 -x,-y,-z
_cell_length_a                   9.3705(10)
_cell_length_b                   11.4792(13)
_cell_length_c                   11.6886(9)
_cell_angle_alpha                60.996(8)
_cell_angle_beta                 66.612(8)
_cell_angle_gamma                66.832(8)
_cell_volume                     977.128
loop_
_atom_site_label
_atom_site_type_symbol
_atom_site_fract_x
_atom_site_fract_y
_atom_site_fract_z
Co1 Co 1.0000 0.0000 1.0000
Co2 Co 0.5000 0.5000 0.5000
C1 C 0.5998(5) 0.3778(4) 0.9856(4)
C2 C 0.5287(5) 0.4829(4) 0.8818(4)
C3 C 0.4292(5) 0.6036(4) 0.8980(4)
C4 C 0.6932(5) 0.2389(4) 0.9778(4)
C5 C 0.5786(5) 0.4729(4) 0.7453(4)
C6 C 1.2441(6) 0.0612(5) 0.7263(5)
C7 C 1.3075(6) 0.1110(5) 0.5875(5)
C8 C 1.2092(6) 0.1853(5) 0.5008(5)
C9 C 1.0457(6) 0.2144(5) 0.5616(5)
C10 C 0.9895(6) 0.1638(5) 0.7005(5)
C11 C 1.2716(7) 0.2250(5) 0.3519(5)
C12 C 1.2139(7) 0.1589(5) 0.2971(5)
C13 C 1.2792(6) 0.0053(5) 0.3440(5)
C14 C 1.2289(6) -0.0841(5) 0.4768(5)
C15 C 1.2955(6) -0.2233(5) 0.5151(5)
C16 C 1.4546(6) -0.1961(5) 0.3011(5)
C17 C 1.3951(6) -0.0554(5) 0.2551(5)
O1 O 0.8315(4) 0.1900(3) 0.9975(3)
O2 O 0.6252(4) 0.1809(3) 0.9556(4)
O3 O 0.4697(4) 0.4952(3) 0.6950(3)
O4 O 0.7259(4) 0.4469(4) 0.6916(3)
O5 O 1.1702(4) 0.0650(4) 1.0165(4)
O6 O 0.7369(4) 0.5155(4) 0.4382(3)
N1 N 1.0861(4) 0.0857(4) 0.7834(4)
N2 N 1.4063(5) -0.2813(4) 0.4297(4)
H1 H 0.3811 0.6732 0.8295
H2 H 1.3141 0.0086 0.7820
H3 H 1.4183 0.0938 0.5524
H4 H 0.9734 0.2685 0.5080
H5 H 0.8793 0.1851 0.7382
H6 H 1.3881 0.1985 0.3294
H7 H 1.2381 0.3243 0.3074
H8 H 1.0975 0.1798 0.3254
H9 H 1.2456 0.1995 0.1990
H10 H 1.1500 -0.0495 0.5396
H11 H 1.2618 -0.2803 0.6050
H12 H 1.5320 -0.2340 0.2401
H13 H 1.4319 -0.0007 0.1649
Co1_2 Co 0.0000 1.0000 1.0000
Co2_2 Co 0.5000 0.5000 1.5000
Co2_3 Co 1.5000 -0.5000 0.5000
C1A C 0.4002(5) 0.6222(4) 1.0144(4)
C2A C 0.4713(5) 0.5171(4) 1.1182(4)
C3A C 0.5708(5) 0.3964(4) 1.1020(4)
C4A C 0.3068(5) 0.7611(4) 1.0222(4)
C5A C 0.4214(5) 0.5271(4) 1.2547(4)
C6A C 0.7559(6) -0.0612(5) 1.2737(5)
C7A C 0.6925(6) -0.1110(5) 1.4125(5)
C8A C 0.7908(6) -0.1853(5) 1.4992(5)
C9A C 0.9543(6) -0.2144(5) 1.4384(5)
C10A C 1.0105(6) -0.1638(5) 1.2995(5)
C11A C 0.7284(7) -0.2250(5) 1.6481(5)
C12A C 0.7861(7) -0.1589(5) 1.7029(5)
C13A C 0.7208(6) -0.0053(5) 1.6560(5)
C14A C 0.7711(6) 0.0841(5) 1.5232(5)
C15A C 0.7045(6) 0.2233(5) 1.4849(5)
C16A C 0.5454(6) 0.1961(5) 1.6989(5)
C17A C 0.6049(6) 0.0554(5) 1.7449(5)
O1A O 0.1685(4) 0.8100(3) 1.0025(3)
O1A_2 O 1.1685(4) -0.1900(3) 1.0025(3)
O2A O 0.3748(4) 0.8191(3) 1.0444(4)
O3A O 0.5303(4) 0.5048(3) 1.3050(3)
O3A_2 O 0.5303(4) 0.5048(3) 0.3050(3)
O4A O 0.2741(4) 0.5531(4) 1.3084(3)
O5A O 0.8298(4) -0.0650(4) 0.9835(4)
O6A O 0.2631(4) 0.4845(4) 0.5618(3)
N1A N 0.9139(4) -0.0857(4) 1.2166(4)
N2A N 0.5937(5) 0.2813(4) 1.5703(4)
N2_2 N 0.4063(5) 0.7187(4) 0.4297(4)
N2A_2 N 0.5937(5) 0.2813(4) 0.5703(4)
H1A H 0.6189 0.3268 1.1705
H2A H 0.6859 -0.0086 1.2180
H3A H 0.5817 -0.0938 1.4476
H4A H 1.0266 -0.2685 1.4920
H5A H 1.1207 -0.1851 1.2618
H6A H 0.6119 -0.1985 1.6706
H7A H 0.7619 -0.3243 1.6926
H8A H 0.9025 -0.1798 1.6746
H9A H 0.7544 -0.1995 1.8010
H10A H 0.8500 0.0495 1.4604
H11A H 0.7382 0.2803 1.3950
H12A H 0.4680 0.2340 1.7599
H13A H 0.5681 0.0007 1.8351
O7 O 0.9944(5) 0.4071(5) 0.7704(4)
O8 O 0.9483(10) 0.2108(9) 1.1685(9)
O9 O 1.2795(15) 0.2872(14) 0.9540(11)
O10 O 0.9070(16) 0.4659(9) 1.1346(11)
loop_
_geom_bond_atom_site_label_1
_geom_bond_atom_site_label_2
_geom_bond_site_symmetry_1
_geom_bond_site_symmetry_2
Co1 O1 1_555 1_555
Co2 O3 1_555 1_555
C1 C2 1_555 1_555
C2 C3 1_555 1_555
C3 H1 1_555 1_555
C4 C1 1_555 1_555
C5 C2 1_555 1_555
C6 C7 1_555 1_555
C7 C8 1_555 1_555
C8 C9 1_555 1_555
C9 C10 1_555 1_555
C10 N1 1_555 1_555
C11 C8 1_555 1_555
C12 C11 1_555 1_555
C13 C12 1_555 1_555
C14 C13 1_555 1_555
C15 C14 1_555 1_555
C16 C17 1_555 1_555
C17 C13 1_555 1_555
O1 C4 1_555 1_555
O2 C4 1_555 1_555
O3 C5 1_555 1_555
O4 C5 1_555 1_555
O5 Co1 1_555 1_555
O6 Co2 1_555 1_555
N1 Co1 1_555 1_555
N2 C15 1_555 1_555
H2 C6 1_555 1_555
H3 C7 1_555 1_555
H4 C9 1_555 1_555
H5 C10 1_555 1_555
H6 C11 1_555 1_555
H7 C11 1_555 1_555
H8 C12 1_555 1_555
H9 C12 1_555 1_555
H10 C14 1_555 1_555
H11 C15 1_555 1_555
H12 C16 1_555 1_555
H13 C17 1_555 1_555
Co1_2 O1A 1_555 1_555
Co2_2 O3A 1_555 1_555
Co2_3 N2 1_555 1_555
C1A C3 1_555 1_555
C2A C1A 1_555 1_555
C3A C1 1_555 1_555
C4A C1A 1_555 1_555
C5A C2A 1_555 1_555
C6A C7A 1_555 1_555
C7A C8A 1_555 1_555
C8A C9A 1_555 1_555
C9A C10A 1_555 1_555
C10A N1A 1_555 1_555
C11A C8A 1_555 1_555
C12A C11A 1_555 1_555
C13A C12A 1_555 1_555
C14A C13A 1_555 1_555
C15A C14A 1_555 1_555
C16A C17A 1_555 1_555
C17A C13A 1_555 1_555
O1A C4A 1_555 1_555
O1A_2 Co1 1_555 1_555
O2A C4A 1_555 1_555
O3A C5A 1_555 1_555
O3A_2 Co2 1_555 1_555
O4A C5A 1_555 1_555
O5A Co1 1_555 1_555
O6A Co2 1_555 1_555
N1A Co1 1_555 1_555
N2A Co2_2 1_555 1_555
N2_2 Co2 1_555 1_555
N2A_2 Co2 1_555 1_555
H1A C3A 1_555 1_555
H2A C6A 1_555 1_555
H3A C7A 1_555 1_555
H4A C9A 1_555 1_555
H5A C10A 1_555 1_555
H6A C11A 1_555 1_555
H7A C11A 1_555 1_555
H8A C12A 1_555 1_555
H9A C12A 1_555 1_555
H10A C14A 1_555 1_555
H11A C15A 1_555 1_555
H12A C16A 1_555 1_555
H13A C17A 1_555 1_555
C6 N1 1_555 1_555
C16 N2 1_555 1_555
C2A C3A 1_555 1_555
C6A N1A 1_555 1_555
C15A N2A 1_555 1_555
C16A N2A 1_555 1_555

#END
