
#######################################################################
#
#                 Cambridge Crystallographic Data Centre
#                                CCDC 
#
#######################################################################
#
# If this CIF has been generated from an entry in the Cambridge 
# Structural Database, then it will include bibliographic, chemical, 
# crystal, experimental, refinement or atomic coordinate data resulting 
# from the CCDC's data processing and validation procedures.
#
#######################################################################

data_OGIHAO
_symmetry_cell_setting           triclinic
_symmetry_space_group_name_H-M   'P -1'
_symmetry_Int_Tables_number      2
_space_group_name_Hall           '-P 1'
loop_
_symmetry_equiv_pos_site_id
_symmetry_equiv_pos_as_xyz
1 x,y,z
2 -x,-y,-z
_cell_length_a                   8.0891(12)
_cell_length_b                   9.4027(9)
_cell_length_c                   10.1213(11)
_cell_angle_alpha                114.699(11)
_cell_angle_beta                 103.187(9)
_cell_angle_gamma                101.465(9)
_cell_volume                     642.213
loop_
_atom_site_label
_atom_site_type_symbol
_atom_site_fract_x
_atom_site_fract_y
_atom_site_fract_z
Co1 Co 0.13295(6) 0.15190(6) 0.46433(5)
C1 C -0.1171(4) 0.4870(4) 0.8655(3)
C2 C -0.0318(4) 0.3695(4) 0.8521(3)
C3 C 0.0816(4) 0.3851(4) 0.9866(3)
C4 C -0.2544(4) 0.4791(4) 0.7313(4)
C5 C -0.0413(4) 0.2309(4) 0.7019(3)
C6 C -0.1029(5) 0.0476(5) 0.1382(4)
C7 C -0.2227(5) 0.0417(5) 0.0143(4)
C8 C -0.3057(4) 0.1610(4) 0.0381(4)
C9 C -0.2635(5) 0.2783(5) 0.1915(4)
C10 C -0.1439(5) 0.2743(5) 0.3101(4)
C11 C -0.6246(5) 0.2739(4) -0.2044(4)
C12 C -0.5076(5) 0.2829(4) -0.0765(4)
C13 C -0.4330(4) 0.1585(4) -0.0953(4)
C14 C -0.4848(5) 0.0305(4) -0.2455(4)
C15 C -0.6058(4) 0.0287(5) -0.3661(4)
N1 N -0.0609(3) 0.1610(4) 0.2859(3)
N2 N -0.6779(4) 0.1486(3) -0.3480(3)
O1 O -0.2879(3) 0.6106(3) 0.7543(3)
O2 O -0.3281(3) 0.3434(3) 0.6100(2)
O3 O 0.0201(3) 0.2708(3) 0.6139(2)
O4 O -0.0946(3) 0.0861(3) 0.6812(2)
O5 O 0.3356(4) 0.2966(3) 0.4549(3)
H1 H 0.328(5) 0.330(5) 0.399(4)
H2 H 0.445(6) 0.319(5) 0.506(4)
H3 H 0.1371 0.3054 0.9772
H4 H -0.0471 -0.0328 0.1178
H5 H -0.2482 -0.0425 -0.0858
H6 H -0.3165 0.3607 0.2147
H7 H -0.1199 0.3542 0.4117
H8 H -0.6692 0.3612 -0.1893
H9 H -0.4790 0.3719 0.0217
H10 H -0.4370 -0.0553 -0.2649
H11 H -0.6392 -0.0602 -0.4653
Co1A Co -0.13295(6) -0.15190(6) 0.53567(5)
Co1_2 Co -0.86705(6) 0.15190(6) -0.53567(5)
Co1_3 Co 0.13295(6) 1.15190(6) 1.46433(5)
Co1A_2 Co -0.13295(6) 0.84810(6) 1.53567(5)
Co1A_3 Co 0.86705(6) -0.15190(6) 1.53567(5)
C1A C 0.1171(4) 0.5130(4) 1.1345(3)
C2A C 0.0318(4) 0.6305(4) 1.1479(3)
C3A C -0.0816(4) 0.6149(4) 1.0134(3)
C4A C 0.2544(4) 0.5209(4) 1.2687(4)
C5A C 0.0413(4) 0.7691(4) 1.2981(3)
C6A C 0.1029(5) -0.0476(5) 0.8618(4)
C7A C 0.2227(5) -0.0417(5) 0.9857(4)
C8A C 0.3057(4) -0.1610(4) 0.9619(4)
C9A C 0.2635(5) -0.2783(5) 0.8085(4)
C10A C 0.1439(5) -0.2743(5) 0.6899(4)
C11A C 0.6246(5) -0.2739(4) 1.2044(4)
C12A C 0.5076(5) -0.2829(4) 1.0765(4)
C13A C 0.4330(4) -0.1585(4) 1.0953(4)
C14A C 0.4848(5) -0.0305(4) 1.2455(4)
C15A C 0.6058(4) -0.0287(5) 1.3661(4)
N1A N 0.0609(3) -0.1610(4) 0.7141(3)
N2A N 0.6779(4) -0.1486(3) 1.3480(3)
N2_2 N 0.3221(4) 0.1486(3) 0.6520(3)
N2A_2 N -0.3221(4) -0.1486(3) 0.3480(3)
O1A O 0.2879(3) 0.3894(3) 1.2457(3)
O2A O 0.3281(3) 0.6566(3) 1.3900(2)
O3A O -0.0201(3) 0.7292(3) 1.3861(2)
O3A_2 O -0.0201(3) -0.2708(3) 0.3861(2)
O4A O 0.0946(3) 0.9139(3) 1.3188(2)
O4A_2 O 0.0946(3) -0.0861(3) 0.3188(2)
O5A O -0.3356(4) -0.2966(3) 0.5451(3)
H1A H -0.328(5) -0.330(5) 0.601(4)
H2A H -0.445(6) -0.319(5) 0.494(4)
H3A H -0.1371 0.6946 1.0228
H4A H 0.0471 0.0328 0.8822
H5A H 0.2482 0.0425 1.0858
H6A H 0.3165 -0.3607 0.7853
H7A H 0.1199 -0.3542 0.5883
H8A H 0.6692 -0.3612 1.1893
H9A H 0.4790 -0.3719 0.9783
H10A H 0.4370 0.0553 1.2649
H11A H 0.6392 0.0602 1.4653
loop_
_geom_bond_atom_site_label_1
_geom_bond_atom_site_label_2
_geom_bond_site_symmetry_1
_geom_bond_site_symmetry_2
Co1 N1 1_555 1_555
C1 C2 1_555 1_555
C2 C3 1_555 1_555
C3 H3 1_555 1_555
C4 C1 1_555 1_555
C5 C2 1_555 1_555
C6 C7 1_555 1_555
C7 C8 1_555 1_555
C8 C9 1_555 1_555
C9 C10 1_555 1_555
C10 N1 1_555 1_555
C11 C12 1_555 1_555
C12 C13 1_555 1_555
C13 C8 1_555 1_555
C14 C13 1_555 1_555
C15 C14 1_555 1_555
N1 C6 1_555 1_555
N2 C11 1_555 1_555
O1 C4 1_555 1_555
O2 C4 1_555 1_555
O3 Co1 1_555 1_555
O4 C5 1_555 1_555
O5 Co1 1_555 1_555
H1 O5 1_555 1_555
H2 O5 1_555 1_555
H4 C6 1_555 1_555
H5 C7 1_555 1_555
H6 C9 1_555 1_555
H7 C10 1_555 1_555
H8 C11 1_555 1_555
H9 C12 1_555 1_555
H10 C14 1_555 1_555
H11 C15 1_555 1_555
Co1A O4 1_555 1_555
Co1_2 N2 1_555 1_555
Co1_3 O4A 1_555 1_555
Co1A_2 O3A 1_555 1_555
Co1A_3 N2A 1_555 1_555
C1A C3 1_555 1_555
C2A C1A 1_555 1_555
C3A C1 1_555 1_555
C4A C1A 1_555 1_555
C5A C2A 1_555 1_555
C6A C7A 1_555 1_555
C7A C8A 1_555 1_555
C8A C9A 1_555 1_555
C9A C10A 1_555 1_555
C10A N1A 1_555 1_555
C11A C12A 1_555 1_555
C12A C13A 1_555 1_555
C13A C8A 1_555 1_555
C14A C13A 1_555 1_555
C15A C14A 1_555 1_555
N1A Co1A 1_555 1_555
N2A C11A 1_555 1_555
N2_2 Co1 1_555 1_555
N2A_2 Co1A 1_555 1_555
O1A C4A 1_555 1_555
O2A C4A 1_555 1_555
O3A C5A 1_555 1_555
O3A_2 Co1A 1_555 1_555
O4A C5A 1_555 1_555
O4A_2 Co1 1_555 1_555
O5A Co1A 1_555 1_555
H1A O5A 1_555 1_555
H2A O5A 1_555 1_555
H3A C3A 1_555 1_555
H4A C6A 1_555 1_555
H5A C7A 1_555 1_555
H6A C9A 1_555 1_555
H7A C10A 1_555 1_555
H8A C11A 1_555 1_555
H9A C12A 1_555 1_555
H10A C14A 1_555 1_555
H11A C15A 1_555 1_555
C5 O3 1_555 1_555
C15 N2 1_555 1_555
C2A C3A 1_555 1_555
C6A N1A 1_555 1_555
C15A N2A 1_555 1_555

#END
