
#######################################################################
#
#                 Cambridge Crystallographic Data Centre
#                                CCDC 
#
#######################################################################
#
# If this CIF has been generated from an entry in the Cambridge 
# Structural Database, then it will include bibliographic, chemical, 
# crystal, experimental, refinement or atomic coordinate data resulting 
# from the CCDC's data processing and validation procedures.
#
#######################################################################

data_OGIHIW01
_symmetry_cell_setting           triclinic
_symmetry_space_group_name_H-M   'P -1'
_symmetry_Int_Tables_number      2
_space_group_name_Hall           '-P 1'
loop_
_symmetry_equiv_pos_site_id
_symmetry_equiv_pos_as_xyz
1 x,y,z
2 -x,-y,-z
_cell_length_a                   8.996(2)
_cell_length_b                   9.671(2)
_cell_length_c                   10.392(2)
_cell_angle_alpha                96.873(17)
_cell_angle_beta                 114.33(2)
_cell_angle_gamma                105.97(2)
_cell_volume                     763.483
loop_
_atom_site_label
_atom_site_type_symbol
_atom_site_fract_x
_atom_site_fract_y
_atom_site_fract_z
Co1 Co 0.5000 0.5000 0.5000
O1 O 0.3174(4) 0.3432(3) 0.5325(4)
O2 O 0.2966(4) 0.5534(3) 0.3418(4)
O3 O 0.4735(4) 0.2145(4) 0.6632(4)
O4 O 0.1763(4) 0.3739(4) 0.7498(4)
O5 O -0.0889(4) 0.3417(4) 0.5683(4)
N1 N 0.4749(5) 0.3353(4) 0.3233(4)
N2 N 0.4610(5) 0.0444(4) -0.0208(5)
C1 C 0.1632(6) 0.1156(5) 0.5534(5)
C2 C 0.1379(6) -0.0311(5) 0.4938(5)
H1 H 0.2309 -0.0526 0.4900
C3 C 0.0334(6) 0.2986(5) 0.6261(6)
C4 C 0.3329(6) 0.2351(5) 0.5895(5)
C5 C 0.4893(6) 0.1022(5) 0.2305(5)
H2 H 0.5039 0.0127 0.2449
C6 C 0.4638(6) 0.1384(5) 0.0991(5)
C7 C 0.0217(6) 0.1459(5) 0.5597(5)
C8 C 0.4370(6) 0.2717(5) 0.0765(6)
H3 H 0.4134 0.2957 -0.0122
C9 C 0.4481(6) 0.3666(5) 0.1962(6)
H4 H 0.4358 0.4576 0.1858
C10 C 0.4925(6) 0.2029(5) 0.3392(6)
H5 H 0.5073 0.1786 0.4265
Co1_2 Co -0.5000 -0.5000 0.5000
Co1_3 Co 0.5000 -0.5000 -0.5000
O1A O -0.3174(4) -0.3432(3) 0.4675(4)
O1A_2 O 0.6826(4) 0.6568(3) 0.4675(4)
O2A O 0.7034(4) 0.4466(3) 0.6582(4)
O3A O -0.4735(4) -0.2145(4) 0.3368(4)
O4A O -0.1763(4) -0.3739(4) 0.2502(4)
O5A O 0.0889(4) -0.3417(4) 0.4317(4)
N1A N 0.5251(5) -0.3353(4) -0.3233(4)
N1A_2 N 0.5251(5) 0.6647(4) 0.6767(4)
N2A N 0.5390(5) -0.0444(4) 0.0208(5)
C1A C -0.1632(6) -0.1156(5) 0.4466(5)
C2A C -0.1379(6) 0.0311(5) 0.5062(5)
H1A H -0.2309 0.0526 0.5100
C3A C -0.0334(6) -0.2986(5) 0.3739(6)
C4A C -0.3329(6) -0.2351(5) 0.4105(5)
C5A C 0.5107(6) -0.1022(5) -0.2305(5)
H2A H 0.4961 -0.0127 -0.2449
C6A C 0.5362(6) -0.1384(5) -0.0991(5)
C7A C -0.0217(6) -0.1459(5) 0.4403(5)
C8A C 0.5630(6) -0.2717(5) -0.0765(6)
H3A H 0.5866 -0.2957 0.0122
C9A C 0.5519(6) -0.3666(5) -0.1962(6)
H4A H 0.5642 -0.4576 -0.1858
C10A C 0.5075(6) -0.2029(5) -0.3392(6)
H5A H 0.4927 -0.1786 -0.4265
N3 N 0.8581(5) 0.3850(4) 0.1420(5)
N4 N 0.9794(6) 0.0422(5) -0.0381(6)
C11 C 0.9607(7) 0.1819(6) 0.1743(6)
H6 H 1.0020 0.1229 0.2344
C12 C 0.9400(6) 0.1566(5) 0.0331(6)
C13 C 0.8777(7) 0.2465(6) -0.0543(6)
H7 H 0.8642 0.2322 -0.1491
C14 C 0.9187(7) 0.2973(6) 0.2236(6)
H8 H 0.9334 0.3148 0.3189
C15 C 0.8359(7) 0.3595(6) 0.0048(6)
H9 H 0.7912 0.4186 -0.0535
N3A N 1.1419(5) -0.3850(4) -0.1420(5)
N4A N 1.0206(6) -0.0422(5) 0.0381(6)
C11A C 1.0393(7) -0.1819(6) -0.1743(6)
H6A H 0.9980 -0.1229 -0.2344
C12A C 1.0600(6) -0.1566(5) -0.0331(6)
C13A C 1.1223(7) -0.2465(6) 0.0543(6)
H7A H 1.1358 -0.2322 0.1491
C14A C 1.0813(7) -0.2973(6) -0.2236(6)
H8A H 1.0666 -0.3148 -0.3189
C15A C 1.1641(7) -0.3595(6) -0.0048(6)
H9A H 1.2088 -0.4186 0.0535
loop_
_geom_bond_atom_site_label_1
_geom_bond_atom_site_label_2
_geom_bond_site_symmetry_1
_geom_bond_site_symmetry_2
Co1 O1 1_555 1_555
O1 C4 1_555 1_555
O2 Co1 1_555 1_555
O3 C4 1_555 1_555
O4 C3 1_555 1_555
O5 C3 1_555 1_555
N1 Co1 1_555 1_555
N2 C6 1_555 1_555
C1 C2 1_555 1_555
C2 H1 1_555 1_555
C3 C7 1_555 1_555
C4 C1 1_555 1_555
C5 H2 1_555 1_555
C6 C5 1_555 1_555
C7 C1 1_555 1_555
C8 C6 1_555 1_555
H3 C8 1_555 1_555
C9 N1 1_555 1_555
H4 C9 1_555 1_555
C10 N1 1_555 1_555
H5 C10 1_555 1_555
N3 C14 1_555 1_555
N4 C12 1_555 1_555
C11 H6 1_555 1_555
C12 C11 1_555 1_555
C13 C12 1_555 1_555
H7 C13 1_555 1_555
C14 C11 1_555 1_555
H8 C14 1_555 1_555
C15 N3 1_555 1_555
H9 C15 1_555 1_555
Co1_2 O1A 1_555 1_555
Co1_3 N1A 1_555 1_555
O1A C4A 1_555 1_555
O1A_2 Co1 1_555 1_555
O2A Co1 1_555 1_555
O3A C4A 1_555 1_555
O4A C3A 1_555 1_555
O5A C3A 1_555 1_555
N1A C9A 1_555 1_555
N1A_2 Co1 1_555 1_555
N2A N2 1_555 1_555
C1A C2A 1_555 1_555
C2A C7 1_555 1_555
H1A C2A 1_555 1_555
C3A C7A 1_555 1_555
C4A C1A 1_555 1_555
C5A H2A 1_555 1_555
C6A N2A 1_555 1_555
C7A C2 1_555 1_555
C8A C6A 1_555 1_555
H3A C8A 1_555 1_555
C9A C8A 1_555 1_555
H4A C9A 1_555 1_555
C10A N1A 1_555 1_555
H5A C10A 1_555 1_555
N3A C14A 1_555 1_555
N4A N4 1_555 1_555
C11A H6A 1_555 1_555
C12A N4A 1_555 1_555
C13A C12A 1_555 1_555
H7A C13A 1_555 1_555
C14A C11A 1_555 1_555
H8A C14A 1_555 1_555
C15A N3A 1_555 1_555
H9A C15A 1_555 1_555
C5 C10 1_555 1_555
C8 C9 1_555 1_555
C13 C15 1_555 1_555
C1A C7A 1_555 1_555
C5A C6A 1_555 1_555
C5A C10A 1_555 1_555
C11A C12A 1_555 1_555
C13A C15A 1_555 1_555

#END
