
#######################################################################
#
#                 Cambridge Crystallographic Data Centre
#                                CCDC 
#
#######################################################################
#
# If this CIF has been generated from an entry in the Cambridge 
# Structural Database, then it will include bibliographic, chemical, 
# crystal, experimental, refinement or atomic coordinate data resulting 
# from the CCDC's data processing and validation procedures.
#
#######################################################################

data_OGIJUK
_symmetry_cell_setting           triclinic
_symmetry_space_group_name_H-M   'P -1'
_symmetry_Int_Tables_number      2
_space_group_name_Hall           '-P 1'
loop_
_symmetry_equiv_pos_site_id
_symmetry_equiv_pos_as_xyz
1 x,y,z
2 -x,-y,-z
_cell_length_a                   7.9523(6)
_cell_length_b                   10.9632(6)
_cell_length_c                   16.9567(10)
_cell_angle_alpha                90.564(4)
_cell_angle_beta                 65.422(3)
_cell_angle_gamma                56.997(9)
_cell_volume                     1071.93
loop_
_atom_site_label
_atom_site_type_symbol
_atom_site_fract_x
_atom_site_fract_y
_atom_site_fract_z
C1 C -0.2722(5) 0.5973(3) 0.05915(18)
C2 C 0.2788(5) -0.1131(3) -0.05297(18)
C3 C -0.1216(5) 0.3379(3) -0.1316(2)
H1 H -0.2562 0.422 -0.0792
C4 C -0.1081(5) 0.3407(3) -0.2152(2)
H2 H -0.2284 0.4273 -0.2201
C5 C 0.0825(5) 0.2161(3) -0.2923(2)
C6 C 0.2525(6) 0.0931(3) -0.2812(2)
H3 H 0.382 0.0037 -0.3315
C7 C 0.2313(5) 0.1021(3) -0.1960(2)
H4 H 0.3534 0.0193 -0.1899
C8 C 0.0972(5) 0.2232(4) -0.3831(2)
C9 C 0.0643(5) 0.1344(3) 0.1695(2)
H5 H 0.0509 0.0631 0.1459
C10 C 0.0867(5) 0.1280(3) 0.24644(19)
H6 H 0.0923 0.0519 0.274
C11 C 0.1009(5) 0.2339(3) 0.28283(19)
C12 C 0.0967(5) 0.3416(3) 0.2388(2)
H7 H 0.1065 0.4157 0.2616
C13 C 0.0780(5) 0.3384(3) 0.1610(2)
H8 H 0.0774 0.4109 0.1307
C14 C 0.1179(5) 0.2286(4) 0.3681(2)
N1 N -0.1742(4) 0.4669(3) 0.04623(16)
N2 N 0.2277(4) 0.0073(3) -0.02886(17)
N3 N 0.0465(4) 0.2219(3) -0.12106(16)
N4 N 0.1799(5) 0.0946(3) -0.43977(19)
H9 H 0.1922 0.0929 -0.4939
H10 H 0.2223 0.0115 -0.4231
N5 N 0.0608(4) 0.2380(3) 0.12687(16)
N6 N 0.0801(5) 0.3485(3) 0.41316(19)
H11 H 0.087 0.3491 0.4636
H12 H 0.0481 0.4273 0.3926
O1 O 0.0349(4) 0.3433(3) -0.40224(15)
O2 O 0.1636(5) 0.1144(3) 0.39386(16)
S1 S -0.40565(13) 0.78163(8) 0.07507(5)
S2 S 0.34549(13) -0.28164(8) -0.08780(5)
Ni1 Ni 0.03932(6) 0.23623(4) 0.00642(2)
C1A C 0.2722(5) -0.5973(3) -0.05915(18)
C2A C -0.2788(5) 0.1131(3) 0.05297(18)
C3A C 0.1216(5) -0.3379(3) 0.1316(2)
H1A H 0.2562 -0.422 0.0792
C4A C 0.1081(5) -0.3407(3) 0.2152(2)
H2A H 0.2284 -0.4273 0.2201
C5A C -0.0825(5) -0.2161(3) 0.2923(2)
C6A C -0.2525(6) -0.0931(3) 0.2812(2)
H3A H -0.382 -0.0037 0.3315
C7A C -0.2313(5) -0.1021(3) 0.1960(2)
H4A H -0.3534 -0.0193 0.1899
C8A C -0.0972(5) -0.2232(4) 0.3831(2)
C9A C -0.0643(5) -0.1344(3) -0.1695(2)
H5A H -0.0509 -0.0631 -0.1459
C10A C -0.0867(5) -0.1280(3) -0.24644(19)
H6A H -0.0923 -0.0519 -0.274
C11A C -0.1009(5) -0.2339(3) -0.28283(19)
C12A C -0.0967(5) -0.3416(3) -0.2388(2)
H7A H -0.1065 -0.4157 -0.2616
C13A C -0.0780(5) -0.3384(3) -0.1610(2)
H8A H -0.0774 -0.4109 -0.1307
C14A C -0.1179(5) -0.2286(4) -0.3681(2)
N1A N 0.1742(4) -0.4669(3) -0.04623(16)
N2A N -0.2277(4) -0.0073(3) 0.02886(17)
N3A N -0.0465(4) -0.2219(3) 0.12106(16)
N4A N -0.1799(5) -0.0946(3) 0.43977(19)
H9A H -0.1922 -0.0929 0.4939
H10A H -0.2223 -0.0115 0.4231
N5A N -0.0608(4) -0.2380(3) -0.12687(16)
N6A N -0.0801(5) -0.3485(3) -0.41316(19)
H11A H -0.087 -0.3491 -0.4636
H12A H -0.0481 -0.4273 -0.3926
O1A O -0.0349(4) -0.3433(3) 0.40224(15)
O2A O -0.1636(5) -0.1144(3) -0.39386(16)
S1A S 0.40565(13) -0.78163(8) -0.07507(5)
S1_2 S -0.40565(13) -0.21837(8) 0.07507(5)
S1A_2 S 0.40565(13) 0.21837(8) -0.07507(5)
S2A S -0.34549(13) 0.28164(8) 0.08780(5)
Ni1A Ni -0.03932(6) -0.23623(4) -0.00642(2)
Ni1_2 Ni 0.03932(6) -0.76377(4) 0.00642(2)
Ni1A_2 Ni -0.03932(6) 0.76377(4) -0.00642(2)
C15 C 0.5155(6) 0.5639(4) 0.2817(2)
H13 H 0.5299 0.5473 0.2234
C16 C 0.5254(6) 0.4589(4) 0.3284(2)
H14 H 0.5421 0.3728 0.303
C17 C 0.5106(5) 0.4809(4) 0.4125(2)
C18 C 0.5363(5) 0.3629(4) 0.4597(2)
C19 C 0.5192(5) 0.3901(4) 0.5498(2)
C20 C 0.5323(6) 0.2851(4) 0.5970(2)
H15 H 0.5532 0.1973 0.5711
C21 C 0.5150(6) 0.3073(4) 0.6812(2)
H16 H 0.5239 0.2354 0.7133
O3 O 0.5760(5) 0.2449(3) 0.42421(16)
C15A C 0.4845(6) 0.4361(4) 0.7183(2)
H13A H 0.4701 0.4527 0.7766
C16A C 0.4746(6) 0.5411(4) 0.6716(2)
H14A H 0.4579 0.6272 0.697
C17A C 0.4894(5) 0.5191(4) 0.5875(2)
C18A C 0.4637(5) 0.6371(4) 0.5403(2)
C19A C 0.4808(5) 0.6099(4) 0.4502(2)
C20A C 0.4677(6) 0.7149(4) 0.4030(2)
H15A H 0.4468 0.8027 0.4289
C21A C 0.4850(6) 0.6927(4) 0.3188(2)
H16A H 0.4761 0.7646 0.2867
O3A O 0.4240(5) 0.7551(3) 0.57579(16)
loop_
_geom_bond_atom_site_label_1
_geom_bond_atom_site_label_2
_geom_bond_site_symmetry_1
_geom_bond_site_symmetry_2
C1 N1 1_555 1_555
C2 N2 1_555 1_555
C3 H1 1_555 1_555
C4 C3 1_555 1_555
H2 C4 1_555 1_555
C5 C4 1_555 1_555
C6 C5 1_555 1_555
H3 C6 1_555 1_555
C7 C6 1_555 1_555
H4 C7 1_555 1_555
C8 C5 1_555 1_555
C9 H5 1_555 1_555
C10 C9 1_555 1_555
H6 C10 1_555 1_555
C11 C10 1_555 1_555
C12 C11 1_555 1_555
H7 C12 1_555 1_555
C13 C12 1_555 1_555
H8 C13 1_555 1_555
C14 C11 1_555 1_555
N1 Ni1 1_555 1_555
N2 Ni1 1_555 1_555
N3 C3 1_555 1_555
N4 C8 1_555 1_555
H9 N4 1_555 1_555
H10 N4 1_555 1_555
N5 C9 1_555 1_555
N6 C14 1_555 1_555
H11 N6 1_555 1_555
H12 N6 1_555 1_555
O1 C8 1_555 1_555
O2 C14 1_555 1_555
S1 C1 1_555 1_555
S2 C2 1_555 1_555
Ni1 N3 1_555 1_555
C15 H13 1_555 1_555
C16 C15 1_555 1_555
H14 C16 1_555 1_555
C17 C16 1_555 1_555
C18 C17 1_555 1_555
C19 C18 1_555 1_555
C20 C19 1_555 1_555
H15 C20 1_555 1_555
C21 C20 1_555 1_555
H16 C21 1_555 1_555
O3 C18 1_555 1_555
C1A N1A 1_555 1_555
C2A N2A 1_555 1_555
C3A H1A 1_555 1_555
C4A C3A 1_555 1_555
H2A C4A 1_555 1_555
C5A C4A 1_555 1_555
C6A C5A 1_555 1_555
H3A C6A 1_555 1_555
C7A C6A 1_555 1_555
H4A C7A 1_555 1_555
C8A C5A 1_555 1_555
C9A H5A 1_555 1_555
C10A C9A 1_555 1_555
H6A C10A 1_555 1_555
C11A C10A 1_555 1_555
C12A C11A 1_555 1_555
H7A C12A 1_555 1_555
C13A C12A 1_555 1_555
H8A C13A 1_555 1_555
C14A C11A 1_555 1_555
N1A Ni1A 1_555 1_555
N2A Ni1A 1_555 1_555
N3A C3A 1_555 1_555
N4A C8A 1_555 1_555
H9A N4A 1_555 1_555
H10A N4A 1_555 1_555
N5A C9A 1_555 1_555
N6A C14A 1_555 1_555
H11A N6A 1_555 1_555
H12A N6A 1_555 1_555
O1A C8A 1_555 1_555
O2A C14A 1_555 1_555
S1A C1A 1_555 1_555
S1_2 Ni1A 1_555 1_555
S1A_2 Ni1 1_555 1_555
S2A Ni1 1_555 1_555
Ni1A S2 1_555 1_555
Ni1_2 S1A 1_555 1_555
Ni1A_2 S1 1_555 1_555
C15A C21 1_555 1_555
H13A C15A 1_555 1_555
C16A C15A 1_555 1_555
H14A C16A 1_555 1_555
C17A C19 1_555 1_555
C18A C17A 1_555 1_555
C19A C17 1_555 1_555
C20A C19A 1_555 1_555
H15A C20A 1_555 1_555
C21A C15 1_555 1_555
H16A C21A 1_555 1_555
O3A C18A 1_555 1_555
C7 N3 1_555 1_555
C13 N5 1_555 1_555
N5 Ni1 1_555 1_555
C2A S2A 1_555 1_555
C7A N3A 1_555 1_555
C13A N5A 1_555 1_555
N3A Ni1A 1_555 1_555
N5A Ni1A 1_555 1_555
C16A C17A 1_555 1_555
C18A C19A 1_555 1_555
C20A C21A 1_555 1_555

#END
