
#######################################################################
#
#                 Cambridge Crystallographic Data Centre
#                                CCDC 
#
#######################################################################
#
# If this CIF has been generated from an entry in the Cambridge 
# Structural Database, then it will include bibliographic, chemical, 
# crystal, experimental, refinement or atomic coordinate data resulting 
# from the CCDC's data processing and validation procedures.
#
#######################################################################

data_OGIJOE
_symmetry_cell_setting           monoclinic
_symmetry_space_group_name_H-M   'C 2/c'
_symmetry_Int_Tables_number      15
_space_group_name_Hall           '-C 2yn'
loop_
_symmetry_equiv_pos_site_id
_symmetry_equiv_pos_as_xyz
1 x,y,z
2 -x,y,1/2-z
3 1/2+x,1/2+y,z
4 1/2-x,1/2+y,1/2-z
5 -x,-y,-z
6 x,-y,1/2+z
7 1/2-x,1/2-y,-z
8 1/2+x,1/2-y,1/2+z
_cell_length_a                   32.418(3)
_cell_length_b                   9.5238(8)
_cell_length_c                   15.9371(16)
_cell_angle_alpha                90
_cell_angle_beta                 118.442(5)
_cell_angle_gamma                90
_cell_volume                     4326.56
loop_
_atom_site_label
_atom_site_type_symbol
_atom_site_fract_x
_atom_site_fract_y
_atom_site_fract_z
C1 C 0.77800(15) 0.8629(5) 0.5808(3)
C2 C 0.72186(15) 0.2695(5) 0.6711(3)
C3 C 0.82035(18) 0.3782(5) 0.6136(4)
H1 H 0.7951 0.3145 0.5969
C4 C 0.85828(17) 0.3353(6) 0.6030(4)
H2 H 0.8593 0.2433 0.5809
C5 C 0.89479(16) 0.4281(7) 0.6249(3)
C6 C 0.89209(16) 0.5590(6) 0.6575(3)
H3 H 0.9163 0.6259 0.6715
C7 C 0.85378(15) 0.5929(6) 0.6698(3)
H4 H 0.8531 0.682 0.6959
C8 C 0.93779(17) 0.3900(7) 0.6148(4)
C9 C 0.67926(16) 0.5932(5) 0.7049(3)
H5 H 0.6971 0.5211 0.7482
C10 C 0.63780(16) 0.6368(5) 0.7024(3)
H6 H 0.6268 0.5918 0.7412
C11 C 0.61283(16) 0.7452(6) 0.6434(3)
C12 C 0.62936(16) 0.8072(6) 0.5869(3)
H7 H 0.6129 0.8827 0.5454
C13 C 0.67076(16) 0.7561(5) 0.5923(3)
H8 H 0.6824 0.7996 0.5541
C14 C 0.56647(17) 0.7863(6) 0.6387(3)
N1 N 0.73875(13) 0.3747(4) 0.6675(2)
N2 N 0.76877(13) 0.7706(4) 0.6153(2)
N3 N 0.81752(13) 0.5049(4) 0.6464(2)
N4 N 0.95670(18) 0.2704(6) 0.6504(4)
H9 H 0.9819 0.2426 0.6475
H10 H 0.9444 0.2165 0.6776
N5 N 0.69490(13) 0.6497(4) 0.6480(3)
N6 N 0.54495(15) 0.8971(5) 0.5892(3)
H11 H 0.5186 0.9253 0.5871
H12 H 0.5567 0.9437 0.5578
O1 O 0.95261(13) 0.4714(5) 0.5757(3)
O2 O 0.55184(12) 0.7166(5) 0.6841(3)
S1 S 0.79120(4) 0.99180(14) 0.52844(8)
S2 S 0.69778(4) 0.11928(14) 0.67588(8)
Ni1 Ni 0.75576(2) 0.57431(7) 0.64825(4)
C1F C 0.72200(15) 0.6371(5) 0.4192(3)
C2F C 0.77814(15) 1.2305(5) 0.3289(3)
C3F C 0.67965(18) 1.1218(5) 0.3864(4)
H1F H 0.7049 1.1855 0.4031
C4F C 0.64172(17) 1.1647(6) 0.3970(4)
H2F H 0.6407 1.2567 0.4191
C5F C 0.60521(16) 1.0719(7) 0.3751(3)
C6F C 0.60791(16) 0.9410(6) 0.3425(3)
H3F H 0.5837 0.8741 0.3285
C7F C 0.64622(15) 0.9071(6) 0.3302(3)
H4F H 0.6469 0.818 0.3041
C8F C 0.56221(17) 1.1100(7) 0.3852(4)
C9F C 0.82074(16) 0.9068(5) 0.2951(3)
H5F H 0.8029 0.9789 0.2518
C10F C 0.86220(16) 0.8632(5) 0.2976(3)
H6F H 0.8732 0.9082 0.2588
C11F C 0.88717(16) 0.7548(6) 0.3566(3)
C12F C 0.87064(16) 0.6928(6) 0.4131(3)
H7F H 0.8871 0.6173 0.4546
C13F C 0.82924(16) 0.7439(5) 0.4077(3)
H8F H 0.8176 0.7004 0.4459
C14F C 0.93353(17) 0.7137(6) 0.3613(3)
N1F N 0.76125(13) 1.1253(4) 0.3325(2)
N2F N 0.73123(13) 0.7294(4) 0.3847(2)
N3F N 0.68248(13) 0.9951(4) 0.3536(2)
N4F N 0.54330(18) 1.2296(6) 0.3496(4)
H9F H 0.5181 1.2574 0.3525
H10F H 0.5556 1.2835 0.3224
N5F N 0.80510(13) 0.8503(4) 0.3520(3)
N6F N 0.95505(15) 0.6029(5) 0.4108(3)
H11F H 0.9814 0.5747 0.4129
H12F H 0.9433 0.5563 0.4422
O1F O 0.54739(13) 1.0286(5) 0.4243(3)
O2F O 0.94816(12) 0.7834(5) 0.3159(3)
S1F S 0.70880(4) 0.50820(14) 0.47156(8)
S2F S 0.80222(4) 1.38072(14) 0.32412(8)
S2C S 0.80222(4) 0.61928(14) 0.82412(8)
S2E S 0.69778(4) 0.88072(14) 0.17588(8)
Ni1F Ni 0.74424(2) 0.92569(7) 0.35175(4)
Ni1C Ni 0.74424(2) 0.07431(7) 0.85175(4)
Ni1E Ni 0.75576(2) 1.42569(7) 0.14825(4)
C15 C 0.4619(2) 0.6913(9) 0.3764(5)
H13 H 0.4545 0.7625 0.3296
C16 C 0.5056(2) 0.6197(8) 0.4104(4)
C17 C 0.5366(3) 0.6453(10) 0.3793(5)
H14 H 0.5294 0.7145 0.3313
C18 C 0.51631(19) 0.5145(8) 0.4823(4)
C19 C 0.5591(2) 0.4407(8) 0.5205(5)
C20 C 0.5907(2) 0.4743(9) 0.4853(5)
H15 H 0.6201 0.428 0.51
C21 C 0.4318(3) 0.6646(9) 0.4058(5)
H16 H 0.403 0.7148 0.3789
C22 C 0.5782(3) 0.5758(11) 0.4139(5)
H17 H 0.599 0.5966 0.3893
C15D C 0.5381(2) 0.3087(9) 0.6236(5)
H13D H 0.5455 0.2375 0.6704
C16D C 0.4944(2) 0.3803(8) 0.5896(4)
C17D C 0.4634(3) 0.3547(10) 0.6207(5)
H14D H 0.4706 0.2855 0.6687
C18D C 0.48369(19) 0.4855(8) 0.5177(4)
C19D C 0.4409(2) 0.5593(8) 0.4795(5)
C20D C 0.4093(2) 0.5257(9) 0.5147(5)
H15D H 0.3799 0.572 0.49
C21D C 0.5682(3) 0.3354(9) 0.5942(5)
H16D H 0.597 0.2852 0.6211
C22D C 0.4218(3) 0.4242(11) 0.5861(5)
H17D H 0.401 0.4034 0.6107
loop_
_geom_bond_atom_site_label_1
_geom_bond_atom_site_label_2
_geom_bond_site_symmetry_1
_geom_bond_site_symmetry_2
C1 N2 1_555 1_555
C2 N1 1_555 1_555
C3 H1 1_555 1_555
C4 C3 1_555 1_555
H2 C4 1_555 1_555
C5 C4 1_555 1_555
C6 C5 1_555 1_555
H3 C6 1_555 1_555
C7 C6 1_555 1_555
H4 C7 1_555 1_555
C8 C5 1_555 1_555
C9 H5 1_555 1_555
C10 C9 1_555 1_555
H6 C10 1_555 1_555
C11 C10 1_555 1_555
C12 C11 1_555 1_555
H7 C12 1_555 1_555
C13 C12 1_555 1_555
H8 C13 1_555 1_555
C14 C11 1_555 1_555
N1 Ni1 1_555 1_555
N2 Ni1 1_555 1_555
N3 C3 1_555 1_555
N4 C8 1_555 1_555
H9 N4 1_555 1_555
H10 N4 1_555 1_555
N5 C9 1_555 1_555
N6 C14 1_555 1_555
H11 N6 1_555 1_555
H12 N6 1_555 1_555
O1 C8 1_555 1_555
O2 C14 1_555 1_555
S1 C1 1_555 1_555
S2 C2 1_555 1_555
Ni1 N3 1_555 1_555
C15 H13 1_555 1_555
C16 C15 1_555 1_555
C17 C16 1_555 1_555
H14 C17 1_555 1_555
C18 C16 1_555 1_555
C19 C18 1_555 1_555
C20 C19 1_555 1_555
H15 C20 1_555 1_555
C21 C15 1_555 1_555
H16 C21 1_555 1_555
C22 C17 1_555 1_555
H17 C22 1_555 1_555
C1F N2F 1_555 1_555
C2F N1F 1_555 1_555
C3F H1F 1_555 1_555
C4F C3F 1_555 1_555
H2F C4F 1_555 1_555
C5F C4F 1_555 1_555
C6F C5F 1_555 1_555
H3F C6F 1_555 1_555
C7F C6F 1_555 1_555
H4F C7F 1_555 1_555
C8F C5F 1_555 1_555
C9F H5F 1_555 1_555
C10F C9F 1_555 1_555
H6F C10F 1_555 1_555
C11F C10F 1_555 1_555
C12F C11F 1_555 1_555
H7F C12F 1_555 1_555
C13F C12F 1_555 1_555
H8F C13F 1_555 1_555
C14F C11F 1_555 1_555
N1F Ni1F 1_555 1_555
N2F Ni1F 1_555 1_555
N3F C3F 1_555 1_555
N4F C8F 1_555 1_555
H9F N4F 1_555 1_555
H10F N4F 1_555 1_555
N5F C9F 1_555 1_555
N6F C14F 1_555 1_555
H11F N6F 1_555 1_555
H12F N6F 1_555 1_555
O1F C8F 1_555 1_555
O2F C14F 1_555 1_555
S1F Ni1 1_555 1_555
S2F C2F 1_555 1_555
S2C Ni1 1_555 1_555
S2E Ni1F 1_555 1_555
Ni1F S1 1_555 1_555
Ni1C S2 1_555 1_555
Ni1E S2F 1_555 1_555
C15D H13D 1_555 1_555
C16D C15D 1_555 1_555
C17D C16D 1_555 1_555
H14D C17D 1_555 1_555
C18D C18 1_555 1_555
C19D C21 1_555 1_555
C20D C19D 1_555 1_555
H15D C20D 1_555 1_555
C21D C19 1_555 1_555
H16D C21D 1_555 1_555
C22D C17D 1_555 1_555
H17D C22D 1_555 1_555
C7 N3 1_555 1_555
C13 N5 1_555 1_555
N5 Ni1 1_555 1_555
C20 C22 1_555 1_555
C1F S1F 1_555 1_555
C7F N3F 1_555 1_555
C13F N5F 1_555 1_555
N3F Ni1F 1_555 1_555
N5F Ni1F 1_555 1_555
C15D C21D 1_555 1_555
C16D C18D 1_555 1_555
C18D C19D 1_555 1_555
C20D C22D 1_555 1_555

#END
