
#######################################################################
#
#                 Cambridge Crystallographic Data Centre
#                                CCDC 
#
#######################################################################
#
# If this CIF has been generated from an entry in the Cambridge 
# Structural Database, then it will include bibliographic, chemical, 
# crystal, experimental, refinement or atomic coordinate data resulting 
# from the CCDC's data processing and validation procedures.
#
#######################################################################

data_OGIJIX
_symmetry_cell_setting           orthorhombic
_symmetry_space_group_name_H-M   'I b a m'
_symmetry_Int_Tables_number      72
_space_group_name_Hall           '-I 2 2c'
loop_
_symmetry_equiv_pos_site_id
_symmetry_equiv_pos_as_xyz
1 x,y,z
2 -x,-y,z
3 x,-y,1/2-z
4 -x,y,1/2-z
5 1/2+x,1/2+y,1/2+z
6 1/2-x,1/2-y,1/2+z
7 1/2+x,1/2-y,-z
8 1/2-x,1/2+y,-z
9 -x,-y,-z
10 x,y,-z
11 -x,y,1/2+z
12 x,-y,1/2+z
13 1/2-x,1/2-y,1/2-z
14 1/2+x,1/2+y,1/2-z
15 1/2-x,1/2+y,z
16 1/2+x,1/2-y,z
_cell_length_a                   12.434(5)
_cell_length_b                   19.029(9)
_cell_length_c                   11.760(4)
_cell_angle_alpha                90
_cell_angle_beta                 90
_cell_angle_gamma                90
_cell_volume                     2782.49
loop_
_atom_site_label
_atom_site_type_symbol
_atom_site_fract_x
_atom_site_fract_y
_atom_site_fract_z
Au1 Au 0.0000 0.0000 -0.1256(1)
S1 S 0.1160(1) -0.0934(1) -0.1442(1)
P1 P 0.2017(2) -0.0927(1) 0.0000
O1 O 0.2921(6) -0.0364(4) 0.0000
C1 C 0.2737(9) 0.0380(6) 0.0000
C2 C 0.3285(11) 0.0692(7) 0.0997(9)
C3 C 0.4141(12) 0.1122(9) 0.0593(14)
C4 C 0.2804(6) -0.1728(6) 0.0000
C5 C 0.3140(6) -0.2047(4) -0.1012(7)
C6 C 0.3777(8) -0.2640(4) -0.1006(8)
C7 C 0.4083(9) -0.2934(6) 0.0000
H1 H 0.1981 0.0481 0.0000
H2 H 0.2776 0.0974 0.1439
H3 H 0.3568 0.0319 0.1489
H4 H 0.4818 0.0947 0.0866
H5 H 0.4056 0.1595 0.0866
H6 H 0.2927 -0.1852 -0.1711
H7 H 0.4000 -0.2842 -0.1697
H8 H 0.4533 -0.3344 0.0000
S1I S 0.1160(1) -0.0934(1) 0.1442(1)
C3I C 0.4141(12) 0.1122(9) -0.0593(14)
C2I C 0.3285(11) 0.0692(7) -0.0997(9)
H2I H 0.2776 0.0974 -0.1439
H3I H 0.3568 0.0319 -0.1489
H4I H 0.4818 0.0947 -0.0866
H5I H 0.4056 0.1595 -0.0866
C6I C 0.3777(8) -0.2640(4) 0.1006(8)
C5I C 0.3140(6) -0.2047(4) 0.1012(7)
H6I H 0.2927 -0.1852 0.1711
H7I H 0.4000 -0.2842 0.1697
Au1B Au 0.0000 0.0000 -0.3744(1)
Au1H Au 0.0000 0.0000 0.1256(1)
S1A S -0.1160(1) 0.0934(1) -0.1442(1)
loop_
_geom_bond_atom_site_label_1
_geom_bond_atom_site_label_2
_geom_bond_site_symmetry_1
_geom_bond_site_symmetry_2
Au1 S1 1_555 1_555
S1 P1 1_555 1_555
P1 O1 1_555 1_555
O1 C1 1_555 1_555
C1 C2 1_555 1_555
C2 C3 1_555 1_555
C3 H4 1_555 1_555
C4 P1 1_555 1_555
C5 C4 1_555 1_555
C6 C5 1_555 1_555
C7 C6 1_555 1_555
H1 C1 1_555 1_555
H2 C2 1_555 1_555
H3 C2 1_555 1_555
H5 C3 1_555 1_555
H6 C5 1_555 1_555
H7 C6 1_555 1_555
H8 C7 1_555 1_555
S1I P1 1_555 1_555
C3I C3 1_555 1_555
C2I C1 1_555 1_555
H2I C2I 1_555 1_555
H3I C2I 1_555 1_555
H4I C3I 1_555 1_555
H5I C3I 1_555 1_555
C6I C7 1_555 1_555
C5I C4 1_555 1_555
H6I C5I 1_555 1_555
H7I C6I 1_555 1_555
Au1B Au1 1_555 1_555
Au1H Au1 1_555 1_555
S1A Au1 1_555 1_555
S1I Au1H 1_555 1_555
C3I C2I 1_555 1_555
C6I C5I 1_555 1_555

#END
