
#######################################################################
#
#                 Cambridge Crystallographic Data Centre
#                                CCDC 
#
#######################################################################
#
# If this CIF has been generated from an entry in the Cambridge 
# Structural Database, then it will include bibliographic, chemical, 
# crystal, experimental, refinement or atomic coordinate data resulting 
# from the CCDC's data processing and validation procedures.
#
#######################################################################

data_OGILAS
_symmetry_cell_setting           triclinic
_symmetry_space_group_name_H-M   'P -1'
_symmetry_Int_Tables_number      2
_space_group_name_Hall           '-P 1'
loop_
_symmetry_equiv_pos_site_id
_symmetry_equiv_pos_as_xyz
1 x,y,z
2 -x,-y,-z
_cell_length_a                   18.4826(9)
_cell_length_b                   19.7996(10)
_cell_length_c                   19.8862(10)
_cell_angle_alpha                98.040(2)
_cell_angle_beta                 106.870(2)
_cell_angle_gamma                108.149(2)
_cell_volume                     6402.01
loop_
_atom_site_label
_atom_site_type_symbol
_atom_site_fract_x
_atom_site_fract_y
_atom_site_fract_z
Cd1 Cd 1.0000 0.5000 1.0000
Cd2 Cd 1.5000 1.5000 1.0000
Cd3 Cd 0.991888(9) 0.844964(8) 0.669159(9)
Cd4 Cd 0.507840(9) 0.169294(9) 0.322344(8)
O1 O 1.04419(11) 0.48772(10) 0.89939(10)
O2 O 1.02023(17) 0.57544(14) 0.85345(18)
O3 O 1.10403(12) 0.53094(11) 0.82713(12)
O4 O 1.49912(11) 1.60928(10) 0.96518(11)
O5 O 1.48377(13) 1.71359(10) 0.97211(11)
O6 O 1.42150(12) 1.63377(11) 1.02064(11)
O7 O 0.95059(13) 0.85344(10) 0.77152(10)
O8 O 0.98911(17) 0.77707(15) 0.82736(16)
O9 O 0.89638(13) 0.81226(11) 0.84773(12)
O10 O 1.00368(11) 0.87547(11) 0.56159(10)
O11 O 1.07304(12) 0.81082(11) 0.53741(11)
O12 O 1.02256(12) 0.86456(11) 0.45860(10)
O13 O 0.54609(13) 0.06530(10) 0.31858(11)
O14 O 0.60526(14) -0.00598(14) 0.36147(12)
O15 O 0.5154(2) 0.0136(2) 0.40032(18)
O16 O 0.49763(12) 0.27339(11) 0.28209(11)
O17 O 0.47789(13) 0.37569(11) 0.29173(12)
O18 O 0.42877(13) 0.29730(12) 0.34792(12)
N1 N 0.86187(11) 0.46332(10) 0.92419(11)
N2 N 0.60994(11) 0.30745(11) 0.71062(10)
N3 N 0.52254(12) 0.19766(12) 0.44357(11)
N4 N 1.35508(11) 1.43720(11) 0.95956(11)
N5 N 1.09449(11) 1.23465(10) 0.80309(11)
N6 N 1.00181(11) 0.96590(10) 0.69704(11)
N7 N 0.97867(12) 0.72377(10) 0.64383(11)
N8 N 0.89943(11) 0.45841(10) 0.52904(10)
N9 N 0.65180(12) 0.24367(11) 0.36298(12)
N10 N 0.84913(12) 0.80162(11) 0.59703(11)
N11 N 0.59789(11) 0.63762(11) 0.38662(11)
N12 N 0.50825(12) 0.53462(11) 0.11834(11)
N13 N 1.36709(12) 1.10119(11) 1.28643(12)
N14 N 1.10690(11) 0.89202(10) 1.13795(11)
N15 N 1.01755(12) 0.62428(10) 1.02484(11)
N16 N 0.49724(12) 0.13454(11) 0.20203(10)
N17 N 0.39783(11) 0.02801(11) -0.06564(10)
N18 N 0.13250(12) -0.11736(11) -0.26638(11)
N19 N 1.05695(12) 0.53303(11) 0.86046(12)
N20 N 1.46772(12) 1.65278(11) 0.98655(11)
N21 N 0.94465(13) 0.81239(11) 0.81475(12)
N22 N 1.03358(12) 0.84976(11) 0.51882(11)
N23 N 0.55676(13) 0.02552(12) 0.36229(12)
N24 N 0.46737(12) 0.31577(11) 0.30770(11)
C1 C 0.76148(13) 0.40733(13) 0.80417(12)
C2 C 0.84029(13) 0.44961(13) 0.85157(13)
C3 C 0.80285(15) 0.43727(17) 0.95035(14)
C4 C 0.72245(15) 0.39485(18) 0.90673(14)
C5 C 0.70078(13) 0.37728(12) 0.83127(12)
C6 C 0.61806(13) 0.32594(12) 0.78102(12)
C7 C 0.55561(13) 0.29743(12) 0.80649(13)
C8 C 0.48059(13) 0.24536(12) 0.75855(12)
C9 C 0.47307(13) 0.22415(13) 0.68601(12)
C10 C 0.53830(13) 0.25691(12) 0.66481(12)
C11 C 0.53256(13) 0.23501(12) 0.58805(12)
C12 C 0.48587(18) 0.16430(15) 0.54405(15)
C13 C 0.48310(18) 0.14802(16) 0.47267(15)
C14 C 0.56877(14) 0.26577(12) 0.48660(12)
C15 C 0.57563(13) 0.28590(12) 0.55845(12)
C16 C 0.41270(13) 0.21310(12) 0.78392(12)
C17 C 0.42903(14) 0.20978(13) 0.85635(13)
C18 C 0.36632(15) 0.17844(14) 0.88042(14)
C19 C 0.28602(16) 0.15087(16) 0.83293(16)
C20 C 0.26833(15) 0.15512(18) 0.76091(16)
C21 C 0.33143(14) 0.18557(16) 0.73631(15)
C22 C 1.22430(14) 1.42906(13) 0.88155(15)
C23 C 1.30541(14) 1.46829(13) 0.92483(14)
C24 C 1.32225(14) 1.36470(13) 0.95360(14)
C25 C 1.24179(14) 1.32160(13) 0.91169(14)
C26 C 1.19148(13) 1.35365(11) 0.87313(13)
C27 C 1.10828(13) 1.30648(12) 0.82169(12)
C28 C 1.05005(13) 1.33605(11) 0.79269(12)
C29 C 0.97515(13) 1.28971(12) 0.73935(12)
C30 C 0.96317(13) 1.21534(12) 0.71832(12)
C31 C 1.02345(13) 1.19047(11) 0.75199(12)
C32 C 1.01374(13) 1.11193(11) 0.73177(12)
C33 C 1.06782(14) 1.08719(13) 0.77575(14)
C34 C 1.05969(15) 1.01443(13) 0.75687(14)
C35 C 0.95002(17) 0.98964(13) 0.65460(16)
C36 C 0.95345(17) 1.06138(14) 0.66938(16)
C37 C 0.91122(13) 1.31760(12) 0.70578(12)
C38 C 0.83134(14) 1.26941(14) 0.66553(15)
C39 C 0.77259(16) 1.29503(16) 0.63042(17)
C40 C 0.79211(16) 1.36957(15) 0.63549(15)
C41 C 0.87048(15) 1.41850(14) 0.67714(14)
C42 C 0.92994(14) 1.39269(12) 0.71173(13)
C43 C 0.93093(13) 0.60992(12) 0.55497(12)
C44 C 0.93558(13) 0.68102(12) 0.57588(12)
C45 C 1.01779(16) 0.69500(13) 0.69289(14)
C46 C 1.01711(16) 0.62421(14) 0.67566(14)
C47 C 0.97334(13) 0.58031(12) 0.60488(12)
C48 C 0.96893(13) 0.50402(11) 0.58210(12)
C49 C 1.03249(13) 0.48237(12) 0.61553(12)
C50 C 1.02513(13) 0.40947(12) 0.59351(12)
C51 C 0.95182(13) 0.36195(12) 0.53913(12)
C52 C 0.89082(12) 0.38754(11) 0.50950(12)
C53 C 0.81022(12) 0.33684(12) 0.45560(12)
C54 C 0.78361(14) 0.26122(13) 0.44643(16)
C55 C 0.70486(15) 0.21729(13) 0.40024(16)
C56 C 0.67870(14) 0.31622(13) 0.36895(13)
C57 C 0.75639(14) 0.36432(12) 0.41440(13)
C58 C 1.09094(13) 0.38342(12) 0.62582(12)
C59 C 1.17213(14) 0.43181(13) 0.65958(15)
C60 C 1.23291(15) 0.40608(15) 0.69065(17)
C61 C 1.21287(16) 0.33167(15) 0.68841(17)
C62 C 1.13269(15) 0.28288(14) 0.65374(14)
C63 C 1.07255(14) 0.30877(13) 0.62285(13)
C64 C 0.71635(15) 0.71678(17) 0.58152(14)
C65 C 0.79545(15) 0.76321(16) 0.62388(14)
C66 C 0.82183(14) 0.79598(13) 0.52523(14)
C67 C 0.74359(14) 0.75083(14) 0.47865(13)
C68 C 0.68960(13) 0.70866(12) 0.50654(13)
C69 C 0.60795(13) 0.65540(12) 0.45697(12)
C70 C 0.54714(13) 0.62452(12) 0.48438(13)
C71 C 0.47298(13) 0.57035(12) 0.43706(13)
C72 C 0.46430(13) 0.54994(12) 0.36452(13)
C73 C 0.52722(13) 0.58527(12) 0.34120(12)
C74 C 0.51934(13) 0.56629(12) 0.26368(12)
C75 C 0.57279(14) 0.61358(13) 0.23884(13)
C76 C 0.56507(14) 0.59609(13) 0.16666(13)
C77 C 0.45710(16) 0.48911(15) 0.14267(14)
C78 C 0.46050(15) 0.50235(14) 0.21371(13)
C79 C 0.40681(13) 0.53632(12) 0.46356(13)
C80 C 0.42303(14) 0.54048(13) 0.53765(13)
C81 C 0.36124(15) 0.50739(14) 0.56297(15)
C82 C 0.28251(16) 0.46925(16) 0.51344(16)
C83 C 0.26503(16) 0.46573(17) 0.44024(16)
C84 C 0.32661(14) 0.49933(15) 0.41525(15)
C85 C 1.22972(15) 1.08886(13) 1.21968(17)
C86 C 1.31143(15) 1.13037(14) 1.25903(17)
C87 C 1.33964(14) 1.02780(13) 1.27699(13)
C88 C 1.25895(14) 0.98243(12) 1.23780(14)
C89 C 1.20246(13) 1.01208(12) 1.20657(13)
C90 C 1.11817(13) 0.96326(11) 1.15823(12)
C91 C 1.05682(13) 0.99047(12) 1.13247(13)
C92 C 0.98157(13) 0.94286(12) 1.08148(13)
C93 C 0.97139(14) 0.86935(12) 1.05850(13)
C94 C 1.03502(13) 0.84660(11) 1.08831(13)
C95 C 1.02779(13) 0.76953(11) 1.06504(12)
C96 C 1.06853(14) 0.73886(12) 1.11479(12)
C97 C 1.06092(14) 0.66648(12) 1.09313(12)
C98 C 0.98053(16) 0.65488(13) 0.97640(14)
C99 C 0.98332(16) 0.72625(13) 0.99402(14)
C100 C 0.91484(13) 0.96887(12) 1.05056(13)
C101 C 0.83349(14) 0.92123(14) 1.02243(16)
C102 C 0.77209(16) 0.94549(16) 0.99010(18)
C103 C 0.79157(16) 1.01839(16) 0.98616(16)
C104 C 0.87211(15) 1.06692(14) 1.01598(14)
C105 C 0.93357(15) 1.04272(13) 1.04802(14)
C106 C 0.54253(15) 0.16213(14) 0.10405(13)
C107 C 0.54755(15) 0.17806(14) 0.17586(13)
C108 C 0.43949(14) 0.07261(13) 0.15564(13)
C109 C 0.43007(14) 0.05253(12) 0.08327(12)
C110 C 0.48193(13) 0.09795(12) 0.05598(11)
C111 C 0.47101(13) 0.07762(12) -0.02229(11)
C112 C 0.53243(13) 0.10901(13) -0.04772(12)
C113 C 0.52000(13) 0.08707(12) -0.12176(12)
C114 C 0.44320(13) 0.03523(13) -0.16729(12)
C115 C 0.38388(13) 0.00867(12) -0.13709(12)
C116 C 0.29801(13) -0.03903(13) -0.18342(12)
C117 C 0.24233(14) -0.06616(14) -0.15102(13)
C118 C 0.16085(14) -0.10496(13) -0.19364(13)
C119 C 0.18749(16) -0.09412(18) -0.29795(14)
C120 C 0.27010(16) -0.05460(18) -0.25929(14)
C121 C 0.58506(14) 0.11901(13) -0.15035(13)
C122 C 0.56637(15) 0.11883(13) -0.22389(13)
C123 C 0.62750(17) 0.15152(14) -0.24977(15)
C124 C 0.70768(17) 0.18595(16) -0.20274(16)
C125 C 0.72712(17) 0.18580(19) -0.12961(18)
C126 C 0.66666(15) 0.15203(17) -0.10413(15)
H1 H 0.7489 0.4001 0.7542
H2 H 0.8805 0.4684 0.8321
H3 H 0.8168 0.4473 1.0009
H4 H 0.6835 0.3786 0.9278
H5 H 0.5635 0.3134 0.8551
H6 H 0.4248 0.1886 0.6527
H7 H 0.4571 0.1277 0.5617
H8 H 0.4523 0.1010 0.4433
H9 H 0.5968 0.3006 0.4670
H10 H 0.6091 0.3328 0.5867
H11 H 0.4826 0.2295 0.8891
H12 H 0.3782 0.1759 0.9286
H13 H 0.2436 0.1301 0.8486
H14 H 0.2147 0.1368 0.7294
H15 H 0.3197 0.1879 0.6878
H16 H 1.1917 1.4528 0.8589
H17 H 1.3271 1.5187 0.9295
H18 H 1.3552 1.3426 0.9790
H19 H 1.2212 1.2717 0.9101
H20 H 1.0613 1.3860 0.8084
H21 H 0.9151 1.1823 0.6827
H22 H 1.1099 1.1190 0.8172
H23 H 1.0960 0.9990 0.7872
H24 H 0.9101 0.9567 0.6124
H25 H 0.9152 1.0748 0.6384
H26 H 0.8172 1.2196 0.6624
H27 H 0.7198 1.2621 0.6039
H28 H 0.7530 1.3868 0.6114
H29 H 0.8835 1.4688 0.6816
H30 H 0.9827 1.4257 0.7377
H31 H 0.8994 0.5815 0.5081
H32 H 0.9072 0.6997 0.5420
H33 H 1.0475 0.7239 0.7402
H34 H 1.0460 0.6062 0.7104
H35 H 1.0792 0.5162 0.6519
H36 H 0.9441 0.3127 0.5229
H37 H 0.8185 0.2400 0.4708
H38 H 0.6874 0.1666 0.3949
H39 H 0.6435 0.3353 0.3413
H40 H 0.7723 0.4147 0.4172
H41 H 1.1854 0.4813 0.6599
H42 H 1.2867 0.4384 0.7143
H43 H 1.2530 0.3146 0.7099
H44 H 1.1192 0.2330 0.6512
H45 H 1.0189 0.2760 0.6006
H46 H 0.6812 0.6900 0.6022
H47 H 0.8123 0.7687 0.6743
H48 H 0.8577 0.8234 0.5058
H49 H 0.7275 0.7483 0.4295
H50 H 0.5562 0.6394 0.5336
H51 H 0.4172 0.5132 0.3315
H52 H 0.6136 0.6565 0.2712
H53 H 0.6013 0.6284 0.1506
H54 H 0.4171 0.4462 0.1095
H55 H 0.4232 0.4690 0.2278
H56 H 0.4756 0.5663 0.5707
H57 H 0.3727 0.5102 0.6123
H58 H 0.2410 0.4460 0.5293
H59 H 0.2120 0.4413 0.4074
H60 H 0.3140 0.4968 0.3661
H61 H 1.1934 1.1115 1.2024
H62 H 1.3296 1.1812 1.2666
H63 H 1.3768 1.0070 1.2976
H64 H 1.2428 0.9322 1.2321
H65 H 1.0661 1.0397 1.1493
H66 H 0.9229 0.8356 1.0239
H67 H 1.1007 0.7672 1.1617
H68 H 1.0870 0.6460 1.1272
H69 H 0.9517 0.6270 0.9285
H70 H 0.9554 0.7457 0.9592
H71 H 0.8197 0.8726 1.0246
H72 H 0.7179 0.9134 0.9722
H73 H 0.7506 1.0340 0.9630
H74 H 0.8849 1.1154 1.0139
H75 H 0.9871 1.0756 1.0682
H76 H 0.5785 0.1944 0.0881
H77 H 0.5887 0.2206 0.2080
H78 H 0.4041 0.0414 0.1728
H79 H 0.3891 0.0094 0.0532
H80 H 0.5815 0.1441 -0.0160
H81 H 0.4316 0.0193 -0.2164
H82 H 0.2593 -0.0592 -0.1009
H83 H 0.1237 -0.1239 -0.1712
H84 H 0.1694 -0.1048 -0.3486
H85 H 0.3058 -0.0375 -0.2831
H86 H 0.5125 0.0965 -0.2552
H87 H 0.6144 0.1497 -0.2989
H88 H 0.7480 0.2097 -0.2200
H89 H 0.7808 0.2083 -0.0980
H90 H 0.6810 0.1514 -0.0558
Cd2_2 Cd 0.5000 0.5000 0.0000
Cd2_3 Cd 0.5000 -0.5000 1.0000
Cd2_4 Cd 1.5000 0.5000 2.0000
Cd3A Cd 1.008112(9) 0.155036(8) 1.330841(9)
Cd3_2 Cd -0.008112(9) -0.155036(8) -0.330841(9)
Cd3A_2 Cd 2.008112(9) 1.155036(8) 2.330841(9)
Cd4A Cd 1.492160(9) 0.830706(9) 1.677656(8)
Cd4_2 Cd 1.507840(9) 1.169294(9) 1.322344(8)
Cd4A_2 Cd 0.492160(9) -0.169294(9) 0.677656(8)
O1A O 0.95581(11) 0.51228(10) 1.10061(10)
O2A O 0.97977(17) 0.42456(14) 1.14655(18)
O3A O 0.89597(12) 0.46906(11) 1.17287(12)
O4A O 1.50088(11) 1.39072(10) 1.03482(11)
O5A O 1.51623(13) 1.28641(10) 1.02789(11)
O6A O 1.57850(12) 1.36623(11) 0.97936(11)
O7A O 1.04941(13) 0.14656(10) 1.22848(10)
O8A O 1.01089(17) 0.22293(15) 1.17264(16)
O9A O 1.10362(13) 0.18774(11) 1.15227(12)
O10A O 0.99632(11) 0.12453(11) 1.43841(10)
O11A O 0.92696(12) 0.18918(11) 1.46259(11)
O12A O 0.97744(12) 0.13544(11) 1.54140(10)
O13A O 1.45391(13) 0.93470(10) 1.68142(11)
O14A O 1.39474(14) 1.00598(14) 1.63853(12)
O15A O 1.4846(2) 0.9864(2) 1.59968(18)
O16A O 1.50237(12) 0.72661(11) 1.71791(11)
O17A O 1.52211(13) 0.62431(11) 1.70827(12)
O18A O 1.57123(13) 0.70270(12) 1.65208(12)
N1A N 1.13813(11) 0.53668(10) 1.07581(11)
N2A N 1.39006(11) 0.69255(11) 1.28938(10)
N3A N 1.47746(12) 0.80234(12) 1.55643(11)
N4A N 0.64492(11) -0.43720(11) 1.04044(11)
N4A_2 N 1.64492(11) 1.56280(11) 1.04044(11)
N5A N 0.90551(11) -0.23465(10) 1.19691(11)
N6A N 0.99819(11) 0.03410(10) 1.30296(11)
N7A N 1.02133(12) 0.27623(10) 1.35617(11)
N8A N 1.10057(11) 0.54159(10) 1.47096(10)
N9A N 1.34820(12) 0.75633(11) 1.63702(12)
N10A N 1.15087(12) 0.19838(11) 1.40297(11)
N11A N 1.40211(11) 0.36238(11) 1.61338(11)
N12A N 1.49175(12) 0.46538(11) 1.88166(11)
N12A_2 N 1.49175(12) 1.46538(11) 0.88166(11)
N12_2 N 1.50825(12) 1.53462(11) 1.11834(11)
N13A N 0.63291(12) -0.10119(11) 0.71357(12)
N13_2 N 0.36709(12) 0.10119(11) 0.28643(12)
N13A_2 N 1.63291(12) 0.89881(11) 1.71357(12)
N14A N 0.89310(11) 0.10798(10) 0.86205(11)
N15A N 0.98245(12) 0.37572(10) 0.97516(11)
N16A N 1.50276(12) 0.86546(11) 1.79797(10)
N17A N 1.60217(11) 0.97199(11) 2.06564(10)
N18A N 1.86750(12) 1.11736(11) 2.26638(11)
N18_2 N 1.13250(12) 0.88264(11) 0.73362(11)
N18A_2 N 0.86750(12) 0.11736(11) 1.26638(11)
N19A N 0.94305(12) 0.46697(11) 1.13954(12)
N20A N 1.53228(12) 1.34722(11) 1.01345(11)
N21A N 1.05535(13) 0.18761(11) 1.18525(12)
N22A N 0.96642(12) 0.15024(11) 1.48118(11)
N23A N 1.44324(13) 0.97448(12) 1.63771(12)
N24A N 1.53263(12) 0.68423(11) 1.69230(11)
C1A C 1.23852(13) 0.59267(13) 1.19583(12)
C2A C 1.15971(13) 0.55039(13) 1.14843(13)
C3A C 1.19715(15) 0.56273(17) 1.04965(14)
C4A C 1.27755(15) 0.60515(18) 1.09327(14)
C5A C 1.29922(13) 0.62272(12) 1.16873(12)
C6A C 1.38194(13) 0.67406(12) 1.21898(12)
C7A C 1.44439(13) 0.70257(12) 1.19351(13)
C8A C 1.51941(13) 0.75464(12) 1.24145(12)
C9A C 1.52693(13) 0.77585(13) 1.31399(12)
C10A C 1.46170(13) 0.74309(12) 1.33519(12)
C11A C 1.46744(13) 0.76499(12) 1.41195(12)
C12A C 1.51413(18) 0.83570(15) 1.45595(15)
C13A C 1.51690(18) 0.85198(16) 1.52733(15)
C14A C 1.43123(14) 0.73423(12) 1.51340(12)
C15A C 1.42437(13) 0.71410(12) 1.44155(12)
C16A C 1.58730(13) 0.78690(12) 1.21608(12)
C17A C 1.57097(14) 0.79022(13) 1.14365(13)
C18A C 1.63368(15) 0.82156(14) 1.11958(14)
C19A C 1.71398(16) 0.84913(16) 1.16707(16)
C20A C 1.73167(15) 0.84488(18) 1.23909(16)
C21A C 1.66857(14) 0.81443(16) 1.26369(15)
C22A C 0.77570(14) -0.42906(13) 1.11845(15)
C23A C 0.69459(14) -0.46829(13) 1.07517(14)
C24A C 0.67775(14) -0.36470(13) 1.04640(14)
C25A C 0.75821(14) -0.32160(13) 1.08831(14)
C26A C 0.80852(13) -0.35365(11) 1.12687(13)
C27A C 0.89172(13) -0.30648(12) 1.17831(12)
C28A C 0.94995(13) -0.33605(11) 1.20731(12)
C29A C 1.02485(13) -0.28971(12) 1.26065(12)
C30A C 1.03683(13) -0.21534(12) 1.28168(12)
C31A C 0.97655(13) -0.19047(11) 1.24801(12)
C32A C 0.98626(13) -0.11193(11) 1.26823(12)
C33A C 0.93218(14) -0.08719(13) 1.22425(14)
C34A C 0.94031(15) -0.01443(13) 1.24313(14)
C35A C 1.04998(17) 0.01036(13) 1.34540(16)
C36A C 1.04655(17) -0.06138(14) 1.33062(16)
C37A C 1.08878(13) -0.31760(12) 1.29422(12)
C38A C 1.16866(14) -0.26941(14) 1.33447(15)
C39A C 1.22741(16) -0.29503(16) 1.36958(17)
C40A C 1.20789(16) -0.36957(15) 1.36451(15)
C41A C 1.12952(15) -0.41850(14) 1.32286(14)
C42A C 1.07006(14) -0.39269(12) 1.28827(13)
C43A C 1.06907(13) 0.39008(12) 1.44503(12)
C44A C 1.06442(13) 0.31898(12) 1.42412(12)
C45A C 0.98221(16) 0.30500(13) 1.30711(14)
C46A C 0.98289(16) 0.37579(14) 1.32434(14)
C47A C 1.02666(13) 0.41969(12) 1.39512(12)
C48A C 1.03107(13) 0.49598(11) 1.41790(12)
C49A C 0.96751(13) 0.51763(12) 1.38447(12)
C50A C 0.97487(13) 0.59053(12) 1.40649(12)
C51A C 1.04818(13) 0.63805(12) 1.46087(12)
C52A C 1.10918(12) 0.61246(11) 1.49050(12)
C53A C 1.18978(12) 0.66316(12) 1.54440(12)
C54A C 1.21639(14) 0.73878(13) 1.55357(16)
C55A C 1.29514(15) 0.78271(13) 1.59976(16)
C56A C 1.32130(14) 0.68378(13) 1.63105(13)
C57A C 1.24361(14) 0.63568(12) 1.58560(13)
C58A C 0.90906(13) 0.61658(12) 1.37418(12)
C59A C 0.82787(14) 0.56819(13) 1.34042(15)
C60A C 0.76709(15) 0.59392(15) 1.30935(17)
C61A C 0.78713(16) 0.66833(15) 1.31159(17)
C62A C 0.86731(15) 0.71712(14) 1.34626(14)
C63A C 0.92745(14) 0.69123(13) 1.37715(13)
C64A C 1.28365(15) 0.28322(17) 1.41848(14)
C65A C 1.20455(15) 0.23679(16) 1.37612(14)
C66A C 1.17817(14) 0.20402(13) 1.47477(14)
C67A C 1.25641(14) 0.24917(14) 1.52135(13)
C68A C 1.31040(13) 0.29134(12) 1.49346(13)
C69A C 1.39205(13) 0.34460(12) 1.54303(12)
C70A C 1.45286(13) 0.37548(12) 1.51562(13)
C71A C 1.52702(13) 0.42965(12) 1.56294(13)
C72A C 1.53570(13) 0.45006(12) 1.63548(13)
C73A C 1.47278(13) 0.41473(12) 1.65880(12)
C74A C 1.48066(13) 0.43371(12) 1.73632(12)
C75A C 1.42721(14) 0.38642(13) 1.76116(13)
C76A C 1.43493(14) 0.40391(13) 1.83334(13)
C77A C 1.54290(16) 0.51089(15) 1.85733(14)
C78A C 1.53950(15) 0.49765(14) 1.78629(13)
C79A C 1.59319(13) 0.46368(12) 1.53644(13)
C80A C 1.57697(14) 0.45952(13) 1.46235(13)
C81A C 1.63876(15) 0.49261(14) 1.43703(15)
C82A C 1.71749(16) 0.53075(16) 1.48656(16)
C83A C 1.73497(16) 0.53427(17) 1.55976(16)
C84A C 1.67339(14) 0.50067(15) 1.58475(15)
C85A C 0.77028(15) -0.08886(13) 0.78032(17)
C86A C 0.68857(15) -0.13037(14) 0.74097(17)
C87A C 0.66036(14) -0.02780(13) 0.72301(13)
C88A C 0.74105(14) 0.01757(12) 0.76220(14)
C89A C 0.79754(13) -0.01208(12) 0.79343(13)
C90A C 0.88183(13) 0.03674(11) 0.84177(12)
C91A C 0.94318(13) 0.00953(12) 0.86753(13)
C92A C 1.01843(13) 0.05714(12) 0.91852(13)
C93A C 1.02861(14) 0.13065(12) 0.94150(13)
C94A C 0.96498(13) 0.15340(11) 0.91169(13)
C95A C 0.97221(13) 0.23047(11) 0.93496(12)
C96A C 0.93147(14) 0.26114(12) 0.88521(12)
C97A C 0.93908(14) 0.33352(12) 0.90687(12)
C98A C 1.01947(16) 0.34512(13) 1.02360(14)
C99A C 1.01668(16) 0.27375(13) 1.00598(14)
C100A C 1.08516(13) 0.03113(12) 0.94944(13)
C101A C 1.16651(14) 0.07877(14) 0.97757(16)
C102A C 1.22791(16) 0.05451(16) 1.00990(18)
C103A C 1.20843(16) -0.01839(16) 1.01384(16)
C104A C 1.12789(15) -0.06692(14) 0.98402(14)
C105A C 1.06643(15) -0.04272(13) 0.95198(14)
C106A C 1.45747(15) 0.83787(14) 1.89595(13)
C107A C 1.45245(15) 0.82194(14) 1.82414(13)
C108A C 1.56051(14) 0.92739(13) 1.84436(13)
C109A C 1.56993(14) 0.94747(12) 1.91673(12)
C110A C 1.51807(13) 0.90205(12) 1.94402(11)
C111A C 1.52899(13) 0.92238(12) 2.02229(11)
C112A C 1.46757(13) 0.89099(13) 2.04772(12)
C113A C 1.48000(13) 0.91293(12) 2.12176(12)
C114A C 1.55680(13) 0.96477(13) 2.16729(12)
C115A C 1.61612(13) 0.99133(12) 2.13709(12)
C116A C 1.70199(13) 1.03903(13) 2.18342(12)
C117A C 1.75767(14) 1.06616(14) 2.15102(13)
C118A C 1.83915(14) 1.10496(13) 2.19364(13)
C119A C 1.81251(16) 1.09412(18) 2.29795(14)
C120A C 1.72990(16) 1.05460(18) 2.25929(14)
C121A C 1.41494(14) 0.88099(13) 2.15035(13)
C122A C 1.43363(15) 0.88117(13) 2.22389(13)
C123A C 1.37250(17) 0.84848(14) 2.24977(15)
C124A C 1.29232(17) 0.81405(16) 2.20274(16)
C125A C 1.27288(17) 0.81420(19) 2.12961(18)
C126A C 1.33334(15) 0.84797(17) 2.10413(15)
H1A H 1.2511 0.5999 1.2458
H2A H 1.1195 0.5316 1.1679
H3A H 1.1832 0.5527 0.9991
H4A H 1.3165 0.6214 1.0722
H5A H 1.4365 0.6866 1.1449
H6A H 1.5752 0.8114 1.3473
H7A H 1.5429 0.8723 1.4383
H8A H 1.5477 0.8990 1.5567
H9A H 1.4032 0.6994 1.5330
H10A H 1.3909 0.6672 1.4133
H11A H 1.5174 0.7705 1.1109
H12A H 1.6218 0.8241 1.0714
H13A H 1.7564 0.8699 1.1514
H14A H 1.7853 0.8632 1.2706
H15A H 1.6803 0.8121 1.3122
H16A H 0.8083 -0.4528 1.1411
H17A H 0.6729 -0.5187 1.0705
H18A H 0.6448 -0.3426 1.0210
H19A H 0.7788 -0.2717 1.0899
H20A H 0.9387 -0.3860 1.1916
H21A H 1.0849 -0.1823 1.3173
H22A H 0.8901 -0.1190 1.1828
H23A H 0.9040 0.0010 1.2128
H24A H 1.0899 0.0433 1.3876
H25A H 1.0848 -0.0748 1.3616
H26A H 1.1828 -0.2196 1.3376
H27A H 1.2802 -0.2621 1.3961
H28A H 1.2470 -0.3868 1.3886
H29A H 1.1165 -0.4688 1.3184
H30A H 1.0173 -0.4257 1.2623
H31A H 1.1006 0.4185 1.4919
H32A H 1.0928 0.3003 1.4580
H33A H 0.9525 0.2761 1.2598
H34A H 0.9540 0.3938 1.2896
H35A H 0.9208 0.4838 1.3481
H36A H 1.0559 0.6873 1.4771
H37A H 1.1815 0.7600 1.5292
H38A H 1.3126 0.8334 1.6051
H39A H 1.3565 0.6647 1.6587
H40A H 1.2277 0.5853 1.5828
H41A H 0.8146 0.5187 1.3401
H42A H 0.7133 0.5616 1.2857
H43A H 0.7470 0.6854 1.2901
H44A H 0.8808 0.7670 1.3488
H45A H 0.9811 0.7240 1.3994
H46A H 1.3188 0.3100 1.3978
H47A H 1.1877 0.2313 1.3257
H48A H 1.1423 0.1766 1.4942
H49A H 1.2725 0.2517 1.5705
H50A H 1.4438 0.3606 1.4664
H51A H 1.5828 0.4868 1.6685
H52A H 1.3864 0.3435 1.7288
H53A H 1.3987 0.3716 1.8494
H54A H 1.5829 0.5538 1.8905
H55A H 1.5768 0.5310 1.7722
H56A H 1.5244 0.4337 1.4293
H57A H 1.6273 0.4898 1.3877
H58A H 1.7590 0.5540 1.4707
H59A H 1.7880 0.5587 1.5926
H60A H 1.6860 0.5032 1.6339
H61A H 0.8066 -0.1115 0.7976
H62A H 0.6704 -0.1812 0.7334
H63A H 0.6232 -0.0070 0.7024
H64A H 0.7572 0.0678 0.7679
H65A H 0.9339 -0.0397 0.8507
H66A H 1.0771 0.1644 0.9761
H67A H 0.8993 0.2328 0.8383
H68A H 0.9130 0.3540 0.8728
H69A H 1.0483 0.3730 1.0715
H70A H 1.0446 0.2543 1.0408
H71A H 1.1803 0.1274 0.9754
H72A H 1.2821 0.0866 1.0278
H73A H 1.2494 -0.0340 1.0370
H74A H 1.1151 -0.1154 0.9861
H75A H 1.0129 -0.0756 0.9318
H76A H 1.4215 0.8056 1.9119
H77A H 1.4113 0.7794 1.7920
H78A H 1.5959 0.9586 1.8272
H79A H 1.6109 0.9906 1.9468
H80A H 1.4185 0.8559 2.0160
H81A H 1.5684 0.9807 2.2164
H82A H 1.7407 1.0592 2.1009
H83A H 1.8763 1.1239 2.1712
H84A H 1.8306 1.1048 2.3486
H85A H 1.6942 1.0375 2.2831
H86A H 1.4875 0.9035 2.2552
H87A H 1.3856 0.8503 2.2989
H88A H 1.2520 0.7903 2.2200
H89A H 1.2192 0.7917 2.0980
H90A H 1.3190 0.8486 2.0558
Cl1 Cl 0.21169(4) -0.09262(4) 0.48335(4)
Cl2 Cl 0.27103(5) 0.04082(5) 0.43845(6)
Cl3 Cl 0.33307(7) -0.07434(6) 0.41542(7)
C127 C 0.29633(17) -0.02938(17) 0.47345(16)
H91 H 0.3394 -0.0072 0.5215
Cl4 Cl 0.23466(5) 0.40002(5) 0.12369(5)
Cl5 Cl 0.15826(5) 0.40135(6) 0.23151(5)
Cl6 Cl 0.29047(4) 0.34796(4) 0.25091(4)
C128 C 0.20537(16) 0.35459(15) 0.18732(16)
H92 H 0.1661 0.3045 0.1613
Cl7 Cl 0.71408(4) 0.31032(4) 0.06773(5)
Cl8 Cl 0.83107(6) 0.23859(6) 0.08515(6)
Cl9 Cl 0.76782(5) 0.26370(6) 0.19928(5)
C129 C 0.79630(16) 0.29804(16) 0.13006(17)
H93 H 0.8408 0.3462 0.1523
O19 O 0.87164(16) 0.88775(13) 0.40434(14)
C130 C 0.8655(3) 0.9533(2) 0.4299(2)
H94 H 0.8118 0.9509 0.4060
H95 H 0.9033 0.9919 0.4198
H96 H 0.8770 0.9625 0.4808
H97 H 0.9180 0.8899 0.4249
O20 O 0.35811(16) 0.23255(15) 0.04413(14)
C131 C 0.3550(3) 0.2553(3) 0.1116(2)
H98 H 0.3010 0.2348 0.1112
H99 H 0.3735 0.3074 0.1253
H100 H 0.3897 0.2392 0.1456
H101 H 0.4047 0.2502 0.0446
O21 O 0.62840(16) 0.42871(13) 0.26670(14)
C132 C 0.6380(3) 0.3996(2) 0.2039(2)
H102 H 0.6917 0.4252 0.2056
H103 H 0.6301 0.3495 0.2021
H104 H 0.5997 0.4027 0.1618
H105 H 0.5821 0.4066 0.2652
loop_
_geom_bond_atom_site_label_1
_geom_bond_atom_site_label_2
_geom_bond_site_symmetry_1
_geom_bond_site_symmetry_2
Cd1 O1 1_555 1_555
Cd2 O4 1_555 1_555
Cd3 O7 1_555 1_555
Cd4 O13 1_555 1_555
Cl1 C127 1_555 1_555
Cl2 C127 1_555 1_555
Cl3 C127 1_555 1_555
Cl4 C128 1_555 1_555
Cl5 C128 1_555 1_555
Cl6 C128 1_555 1_555
Cl7 C129 1_555 1_555
Cl8 C129 1_555 1_555
Cl9 C129 1_555 1_555
O1 N19 1_555 1_555
O2 N19 1_555 1_555
O3 N19 1_555 1_555
O4 N20 1_555 1_555
O5 N20 1_555 1_555
O6 N20 1_555 1_555
O7 N21 1_555 1_555
O8 N21 1_555 1_555
O9 N21 1_555 1_555
O10 Cd3 1_555 1_555
O11 N22 1_555 1_555
O12 N22 1_555 1_555
O13 N23 1_555 1_555
O14 N23 1_555 1_555
O15 N23 1_555 1_555
O16 Cd4 1_555 1_555
O17 N24 1_555 1_555
O18 N24 1_555 1_555
O19 C130 1_555 1_555
O20 C131 1_555 1_555
O21 C132 1_555 1_555
N1 Cd1 1_555 1_555
N2 C6 1_555 1_555
N3 Cd4 1_555 1_555
N4 Cd2 1_555 1_555
N5 C27 1_555 1_555
N6 Cd3 1_555 1_555
N7 Cd3 1_555 1_555
N8 C48 1_555 1_555
N9 Cd4 1_555 1_555
N10 Cd3 1_555 1_555
N11 C69 1_555 1_555
N12 C76 1_555 1_555
N13 C86 1_555 1_555
N14 C90 1_555 1_555
N15 Cd1 1_555 1_555
N16 Cd4 1_555 1_555
N17 C111 1_555 1_555
N18 C118 1_555 1_555
N22 O10 1_555 1_555
N24 O16 1_555 1_555
C1 C2 1_555 1_555
C2 N1 1_555 1_555
C3 N1 1_555 1_555
C4 C3 1_555 1_555
C5 C1 1_555 1_555
C6 C5 1_555 1_555
C7 C6 1_555 1_555
C8 C7 1_555 1_555
C9 C8 1_555 1_555
C10 N2 1_555 1_555
C11 C10 1_555 1_555
C12 C11 1_555 1_555
C13 N3 1_555 1_555
C14 N3 1_555 1_555
C15 C11 1_555 1_555
C16 C8 1_555 1_555
C17 C16 1_555 1_555
C18 C17 1_555 1_555
C19 C18 1_555 1_555
C20 C19 1_555 1_555
C21 C16 1_555 1_555
C22 C23 1_555 1_555
C23 N4 1_555 1_555
C24 N4 1_555 1_555
C25 C24 1_555 1_555
C26 C22 1_555 1_555
C27 C26 1_555 1_555
C28 C27 1_555 1_555
C29 C28 1_555 1_555
C30 C29 1_555 1_555
C31 N5 1_555 1_555
C32 C31 1_555 1_555
C33 C32 1_555 1_555
C34 N6 1_555 1_555
C35 N6 1_555 1_555
C36 C32 1_555 1_555
C37 C29 1_555 1_555
C38 C37 1_555 1_555
C39 C38 1_555 1_555
C40 C39 1_555 1_555
C41 C40 1_555 1_555
C42 C37 1_555 1_555
C43 C44 1_555 1_555
C44 N7 1_555 1_555
C45 N7 1_555 1_555
C46 C45 1_555 1_555
C47 C43 1_555 1_555
C48 C47 1_555 1_555
C49 C48 1_555 1_555
C50 C49 1_555 1_555
C51 C50 1_555 1_555
C52 N8 1_555 1_555
C53 C52 1_555 1_555
C54 C53 1_555 1_555
C55 N9 1_555 1_555
C56 N9 1_555 1_555
C57 C53 1_555 1_555
C58 C50 1_555 1_555
C59 C58 1_555 1_555
C60 C59 1_555 1_555
C61 C60 1_555 1_555
C62 C61 1_555 1_555
C63 C58 1_555 1_555
C64 C65 1_555 1_555
C65 N10 1_555 1_555
C66 N10 1_555 1_555
C67 C66 1_555 1_555
C68 C64 1_555 1_555
C69 C68 1_555 1_555
C70 C69 1_555 1_555
C71 C70 1_555 1_555
C72 C71 1_555 1_555
C73 N11 1_555 1_555
C74 C73 1_555 1_555
C75 C74 1_555 1_555
C76 C75 1_555 1_555
C77 N12 1_555 1_555
C78 C74 1_555 1_555
C79 C71 1_555 1_555
C80 C79 1_555 1_555
C81 C80 1_555 1_555
C82 C81 1_555 1_555
C83 C82 1_555 1_555
C84 C79 1_555 1_555
C85 C86 1_555 1_555
C86 H62 1_555 1_555
C87 N13 1_555 1_555
C88 C87 1_555 1_555
C89 C85 1_555 1_555
C90 C89 1_555 1_555
C91 C90 1_555 1_555
C92 C91 1_555 1_555
C93 C92 1_555 1_555
C94 N14 1_555 1_555
C95 C94 1_555 1_555
C96 C95 1_555 1_555
C97 N15 1_555 1_555
C98 N15 1_555 1_555
C99 C95 1_555 1_555
C100 C92 1_555 1_555
C101 C100 1_555 1_555
C102 C101 1_555 1_555
C103 C102 1_555 1_555
C104 C103 1_555 1_555
C105 C100 1_555 1_555
C106 C107 1_555 1_555
C107 N16 1_555 1_555
C108 N16 1_555 1_555
C109 C108 1_555 1_555
C110 C106 1_555 1_555
C111 C110 1_555 1_555
C112 C111 1_555 1_555
C113 C112 1_555 1_555
C114 C113 1_555 1_555
C115 N17 1_555 1_555
C116 C115 1_555 1_555
C117 C116 1_555 1_555
C118 C117 1_555 1_555
C119 N18 1_555 1_555
C120 C116 1_555 1_555
C121 C113 1_555 1_555
C122 C121 1_555 1_555
C123 C122 1_555 1_555
C124 C123 1_555 1_555
C125 C124 1_555 1_555
C126 C121 1_555 1_555
C127 H91 1_555 1_555
C128 H92 1_555 1_555
C129 H93 1_555 1_555
C130 H94 1_555 1_555
C131 H98 1_555 1_555
C132 H102 1_555 1_555
H1 C1 1_555 1_555
H2 C2 1_555 1_555
H3 C3 1_555 1_555
H4 C4 1_555 1_555
H5 C7 1_555 1_555
H6 C9 1_555 1_555
H7 C12 1_555 1_555
H8 C13 1_555 1_555
H9 C14 1_555 1_555
H10 C15 1_555 1_555
H11 C17 1_555 1_555
H12 C18 1_555 1_555
H13 C19 1_555 1_555
H14 C20 1_555 1_555
H15 C21 1_555 1_555
H16 C22 1_555 1_555
H17 C23 1_555 1_555
H18 C24 1_555 1_555
H19 C25 1_555 1_555
H20 C28 1_555 1_555
H21 C30 1_555 1_555
H22 C33 1_555 1_555
H23 C34 1_555 1_555
H24 C35 1_555 1_555
H25 C36 1_555 1_555
H26 C38 1_555 1_555
H27 C39 1_555 1_555
H28 C40 1_555 1_555
H29 C41 1_555 1_555
H30 C42 1_555 1_555
H31 C43 1_555 1_555
H32 C44 1_555 1_555
H33 C45 1_555 1_555
H34 C46 1_555 1_555
H35 C49 1_555 1_555
H36 C51 1_555 1_555
H37 C54 1_555 1_555
H38 C55 1_555 1_555
H39 C56 1_555 1_555
H40 C57 1_555 1_555
H41 C59 1_555 1_555
H42 C60 1_555 1_555
H43 C61 1_555 1_555
H44 C62 1_555 1_555
H45 C63 1_555 1_555
H46 C64 1_555 1_555
H47 C65 1_555 1_555
H48 C66 1_555 1_555
H49 C67 1_555 1_555
H50 C70 1_555 1_555
H51 C72 1_555 1_555
H52 C75 1_555 1_555
H53 C76 1_555 1_555
H54 C77 1_555 1_555
H55 C78 1_555 1_555
H56 C80 1_555 1_555
H57 C81 1_555 1_555
H58 C82 1_555 1_555
H59 C83 1_555 1_555
H60 C84 1_555 1_555
H61 C85 1_555 1_555
H63 C87 1_555 1_555
H64 C88 1_555 1_555
H65 C91 1_555 1_555
H66 C93 1_555 1_555
H67 C96 1_555 1_555
H68 C97 1_555 1_555
H69 C98 1_555 1_555
H70 C99 1_555 1_555
H71 C101 1_555 1_555
H72 C102 1_555 1_555
H73 C103 1_555 1_555
H74 C104 1_555 1_555
H75 C105 1_555 1_555
H76 C106 1_555 1_555
H77 C107 1_555 1_555
H78 C108 1_555 1_555
H79 C109 1_555 1_555
H80 C112 1_555 1_555
H81 C114 1_555 1_555
H82 C117 1_555 1_555
H83 C118 1_555 1_555
H84 C119 1_555 1_555
H85 C120 1_555 1_555
H86 C122 1_555 1_555
H87 C123 1_555 1_555
H88 C124 1_555 1_555
H89 C125 1_555 1_555
H90 C126 1_555 1_555
H95 C130 1_555 1_555
H96 C130 1_555 1_555
H97 O19 1_555 1_555
H99 C131 1_555 1_555
H100 C131 1_555 1_555
H101 O20 1_555 1_555
H103 C132 1_555 1_555
H104 C132 1_555 1_555
H105 O21 1_555 1_555
Cd2_2 N12 1_555 1_555
Cd2_3 N4A 1_555 1_555
Cd2_4 N12A 1_555 1_555
Cd3A O7A 1_555 1_555
Cd3_2 N18 1_555 1_555
Cd3A_2 N18A 1_555 1_555
Cd4A O13A 1_555 1_555
Cd4_2 N13 1_555 1_555
Cd4A_2 N13A 1_555 1_555
O1A Cd1 1_555 1_555
O2A N19A 1_555 1_555
O3A N19A 1_555 1_555
O4A Cd2 1_555 1_555
O5A N20A 1_555 1_555
O6A N20A 1_555 1_555
O7A N21A 1_555 1_555
O8A N21A 1_555 1_555
O9A N21A 1_555 1_555
O10A Cd3A 1_555 1_555
O11A N22A 1_555 1_555
O12A N22A 1_555 1_555
O13A N23A 1_555 1_555
O14A N23A 1_555 1_555
O15A N23A 1_555 1_555
O16A Cd4A 1_555 1_555
O17A N24A 1_555 1_555
O18A N24A 1_555 1_555
N1A Cd1 1_555 1_555
N2A C6A 1_555 1_555
N3A Cd4A 1_555 1_555
N4A C23A 1_555 1_555
N4A_2 Cd2 1_555 1_555
N5A C27A 1_555 1_555
N6A Cd3A 1_555 1_555
N7A Cd3A 1_555 1_555
N8A C48A 1_555 1_555
N9A Cd4A 1_555 1_555
N10A Cd3A 1_555 1_555
N11A C69A 1_555 1_555
N12A C76A 1_555 1_555
N12A_2 Cd2 1_555 1_555
N12_2 Cd2 1_555 1_555
N13A C86A 1_555 1_555
N13_2 Cd4 1_555 1_555
N13A_2 Cd4A 1_555 1_555
N14A C90A 1_555 1_555
N15A Cd1 1_555 1_555
N16A Cd4A 1_555 1_555
N17A C111A 1_555 1_555
N18A C118A 1_555 1_555
N18_2 Cd3 1_555 1_555
N18A_2 Cd3A 1_555 1_555
N19A O1A 1_555 1_555
N20A O4A 1_555 1_555
N22A O10A 1_555 1_555
N24A O16A 1_555 1_555
C1A C2A 1_555 1_555
C2A N1A 1_555 1_555
C3A N1A 1_555 1_555
C4A C3A 1_555 1_555
C5A C1A 1_555 1_555
C6A C5A 1_555 1_555
C7A C6A 1_555 1_555
C8A C7A 1_555 1_555
C9A C8A 1_555 1_555
C10A N2A 1_555 1_555
C11A C10A 1_555 1_555
C12A C11A 1_555 1_555
C13A N3A 1_555 1_555
C14A N3A 1_555 1_555
C15A C11A 1_555 1_555
C16A C8A 1_555 1_555
C17A C16A 1_555 1_555
C18A C17A 1_555 1_555
C19A C18A 1_555 1_555
C20A C19A 1_555 1_555
C21A C16A 1_555 1_555
C22A C23A 1_555 1_555
C23A H17A 1_555 1_555
C24A N4A 1_555 1_555
C25A C24A 1_555 1_555
C26A C22A 1_555 1_555
C27A C26A 1_555 1_555
C28A C27A 1_555 1_555
C29A C28A 1_555 1_555
C30A C29A 1_555 1_555
C31A N5A 1_555 1_555
C32A C31A 1_555 1_555
C33A C32A 1_555 1_555
C34A N6A 1_555 1_555
C35A N6A 1_555 1_555
C36A C32A 1_555 1_555
C37A C29A 1_555 1_555
C38A C37A 1_555 1_555
C39A C38A 1_555 1_555
C40A C39A 1_555 1_555
C41A C40A 1_555 1_555
C42A C37A 1_555 1_555
C43A C44A 1_555 1_555
C44A N7A 1_555 1_555
C45A N7A 1_555 1_555
C46A C45A 1_555 1_555
C47A C43A 1_555 1_555
C48A C47A 1_555 1_555
C49A C48A 1_555 1_555
C50A C49A 1_555 1_555
C51A C50A 1_555 1_555
C52A N8A 1_555 1_555
C53A C52A 1_555 1_555
C54A C53A 1_555 1_555
C55A N9A 1_555 1_555
C56A N9A 1_555 1_555
C57A C53A 1_555 1_555
C58A C50A 1_555 1_555
C59A C58A 1_555 1_555
C60A C59A 1_555 1_555
C61A C60A 1_555 1_555
C62A C61A 1_555 1_555
C63A C58A 1_555 1_555
C64A C65A 1_555 1_555
C65A N10A 1_555 1_555
C66A N10A 1_555 1_555
C67A C66A 1_555 1_555
C68A C64A 1_555 1_555
C69A C68A 1_555 1_555
C70A C69A 1_555 1_555
C71A C70A 1_555 1_555
C72A C71A 1_555 1_555
C73A N11A 1_555 1_555
C74A C73A 1_555 1_555
C75A C74A 1_555 1_555
C76A C75A 1_555 1_555
C77A N12A 1_555 1_555
C78A C74A 1_555 1_555
C79A C71A 1_555 1_555
C80A C79A 1_555 1_555
C81A C80A 1_555 1_555
C82A C81A 1_555 1_555
C83A C82A 1_555 1_555
C84A C79A 1_555 1_555
C85A C86A 1_555 1_555
C86A H62A 1_555 1_555
C87A N13A 1_555 1_555
C88A C87A 1_555 1_555
C89A C85A 1_555 1_555
C90A C89A 1_555 1_555
C91A C90A 1_555 1_555
C92A C91A 1_555 1_555
C93A C92A 1_555 1_555
C94A N14A 1_555 1_555
C95A C94A 1_555 1_555
C96A C95A 1_555 1_555
C97A N15A 1_555 1_555
C98A N15A 1_555 1_555
C99A C95A 1_555 1_555
C100A C92A 1_555 1_555
C101A C100A 1_555 1_555
C102A C101A 1_555 1_555
C103A C102A 1_555 1_555
C104A C103A 1_555 1_555
C105A C100A 1_555 1_555
C106A C107A 1_555 1_555
C107A N16A 1_555 1_555
C108A N16A 1_555 1_555
C109A C108A 1_555 1_555
C110A C106A 1_555 1_555
C111A C110A 1_555 1_555
C112A C111A 1_555 1_555
C113A C112A 1_555 1_555
C114A C113A 1_555 1_555
C115A N17A 1_555 1_555
C116A C115A 1_555 1_555
C117A C116A 1_555 1_555
C118A C117A 1_555 1_555
C119A N18A 1_555 1_555
C120A C116A 1_555 1_555
C121A C113A 1_555 1_555
C122A C121A 1_555 1_555
C123A C122A 1_555 1_555
C124A C123A 1_555 1_555
C125A C124A 1_555 1_555
C126A C121A 1_555 1_555
H1A C1A 1_555 1_555
H2A C2A 1_555 1_555
H3A C3A 1_555 1_555
H4A C4A 1_555 1_555
H5A C7A 1_555 1_555
H6A C9A 1_555 1_555
H7A C12A 1_555 1_555
H8A C13A 1_555 1_555
H9A C14A 1_555 1_555
H10A C15A 1_555 1_555
H11A C17A 1_555 1_555
H12A C18A 1_555 1_555
H13A C19A 1_555 1_555
H14A C20A 1_555 1_555
H15A C21A 1_555 1_555
H16A C22A 1_555 1_555
H18A C24A 1_555 1_555
H19A C25A 1_555 1_555
H20A C28A 1_555 1_555
H21A C30A 1_555 1_555
H22A C33A 1_555 1_555
H23A C34A 1_555 1_555
H24A C35A 1_555 1_555
H25A C36A 1_555 1_555
H26A C38A 1_555 1_555
H27A C39A 1_555 1_555
H28A C40A 1_555 1_555
H29A C41A 1_555 1_555
H30A C42A 1_555 1_555
H31A C43A 1_555 1_555
H32A C44A 1_555 1_555
H33A C45A 1_555 1_555
H34A C46A 1_555 1_555
H35A C49A 1_555 1_555
H36A C51A 1_555 1_555
H37A C54A 1_555 1_555
H38A C55A 1_555 1_555
H39A C56A 1_555 1_555
H40A C57A 1_555 1_555
H41A C59A 1_555 1_555
H42A C60A 1_555 1_555
H43A C61A 1_555 1_555
H44A C62A 1_555 1_555
H45A C63A 1_555 1_555
H46A C64A 1_555 1_555
H47A C65A 1_555 1_555
H48A C66A 1_555 1_555
H49A C67A 1_555 1_555
H50A C70A 1_555 1_555
H51A C72A 1_555 1_555
H52A C75A 1_555 1_555
H53A C76A 1_555 1_555
H54A C77A 1_555 1_555
H55A C78A 1_555 1_555
H56A C80A 1_555 1_555
H57A C81A 1_555 1_555
H58A C82A 1_555 1_555
H59A C83A 1_555 1_555
H60A C84A 1_555 1_555
H61A C85A 1_555 1_555
H63A C87A 1_555 1_555
H64A C88A 1_555 1_555
H65A C91A 1_555 1_555
H66A C93A 1_555 1_555
H67A C96A 1_555 1_555
H68A C97A 1_555 1_555
H69A C98A 1_555 1_555
H70A C99A 1_555 1_555
H71A C101A 1_555 1_555
H72A C102A 1_555 1_555
H73A C103A 1_555 1_555
H74A C104A 1_555 1_555
H75A C105A 1_555 1_555
H76A C106A 1_555 1_555
H77A C107A 1_555 1_555
H78A C108A 1_555 1_555
H79A C109A 1_555 1_555
H80A C112A 1_555 1_555
H81A C114A 1_555 1_555
H82A C117A 1_555 1_555
H83A C118A 1_555 1_555
H84A C119A 1_555 1_555
H85A C120A 1_555 1_555
H86A C122A 1_555 1_555
H87A C123A 1_555 1_555
H88A C124A 1_555 1_555
H89A C125A 1_555 1_555
H90A C126A 1_555 1_555
C4 C5 1_555 1_555
C9 C10 1_555 1_555
C12 C13 1_555 1_555
C14 C15 1_555 1_555
C20 C21 1_555 1_555
C25 C26 1_555 1_555
C30 C31 1_555 1_555
C33 C34 1_555 1_555
C35 C36 1_555 1_555
C41 C42 1_555 1_555
C46 C47 1_555 1_555
C51 C52 1_555 1_555
C54 C55 1_555 1_555
C56 C57 1_555 1_555
C62 C63 1_555 1_555
C67 C68 1_555 1_555
C72 C73 1_555 1_555
C77 C78 1_555 1_555
C83 C84 1_555 1_555
C88 C89 1_555 1_555
C93 C94 1_555 1_555
C96 C97 1_555 1_555
C98 C99 1_555 1_555
C104 C105 1_555 1_555
C109 C110 1_555 1_555
C114 C115 1_555 1_555
C119 C120 1_555 1_555
C125 C126 1_555 1_555
C4A C5A 1_555 1_555
C9A C10A 1_555 1_555
C12A C13A 1_555 1_555
C14A C15A 1_555 1_555
C20A C21A 1_555 1_555
C25A C26A 1_555 1_555
C30A C31A 1_555 1_555
C33A C34A 1_555 1_555
C35A C36A 1_555 1_555
C41A C42A 1_555 1_555
C46A C47A 1_555 1_555
C51A C52A 1_555 1_555
C54A C55A 1_555 1_555
C56A C57A 1_555 1_555
C62A C63A 1_555 1_555
C67A C68A 1_555 1_555
C72A C73A 1_555 1_555
C77A C78A 1_555 1_555
C83A C84A 1_555 1_555
C88A C89A 1_555 1_555
C93A C94A 1_555 1_555
C96A C97A 1_555 1_555
C98A C99A 1_555 1_555
C104A C105A 1_555 1_555
C109A C110A 1_555 1_555
C114A C115A 1_555 1_555
C119A C120A 1_555 1_555
C125A C126A 1_555 1_555

#END
