
#######################################################################
#
#                 Cambridge Crystallographic Data Centre
#                                CCDC 
#
#######################################################################
#
# If this CIF has been generated from an entry in the Cambridge 
# Structural Database, then it will include bibliographic, chemical, 
# crystal, experimental, refinement or atomic coordinate data resulting 
# from the CCDC's data processing and validation procedures.
#
#######################################################################

data_OGINEY
_symmetry_cell_setting           trigonal
_symmetry_space_group_name_H-M   'P 31'
_symmetry_Int_Tables_number      144
_space_group_name_Hall           'P 31'
loop_
_symmetry_equiv_pos_site_id
_symmetry_equiv_pos_as_xyz
1 x,y,z
2 -y,x-y,1/3+z
3 -x+y,-x,2/3+z
_cell_length_a                   9.2450(3)
_cell_length_b                   9.2450(3)
_cell_length_c                   17.4744(13)
_cell_angle_alpha                90
_cell_angle_beta                 90
_cell_angle_gamma                120
_cell_volume                     1293.44
loop_
_atom_site_label
_atom_site_type_symbol
_atom_site_fract_x
_atom_site_fract_y
_atom_site_fract_z
Ag1 Ag 0.10464(4) -0.03599(4) 0.499968(14)
C1 C -0.2145(5) -0.2245(6) 0.3753(3)
H1 H -0.2919 -0.2091 0.4089
H2 H -0.2742 -0.2753 0.3269
C2 C -0.0656(6) -0.0555(6) 0.3578(2)
C3 C 0.0663(5) -0.0335(5) 0.3121(3)
C4 C 0.1948(5) 0.1223(6) 0.2929(3)
H3 H 0.2839 0.1332 0.2617
C5 C 0.1944(6) 0.2624(6) 0.3189(3)
H4 H 0.2819 0.3703 0.3048
C6 C 0.0673(7) 0.2459(6) 0.3651(3)
H5 H 0.0674 0.3425 0.3838
C7 C -0.0614(6) 0.0884(6) 0.3846(3)
H6 H -0.1485 0.0783 0.4170
C8 C -0.2415(6) -0.5061(5) 0.4019(3)
C9 C -0.1850(6) -0.5635(5) 0.4597(3)
H7 H -0.2129 -0.6760 0.4681
C10 C -0.0787(5) -0.4261(5) 0.5044(3)
C11 C -0.3586(7) -0.5978(7) 0.3383(3)
H8 H -0.4198 -0.7175 0.3499
H9 H -0.2955 -0.5789 0.2907
H10 H -0.4379 -0.5575 0.3322
C12 C 0.0181(7) -0.4168(7) 0.5737(4)
H11 H 0.1245 -0.4075 0.5584
H12 H -0.0459 -0.5180 0.6044
H13 H 0.0399 -0.3188 0.6040
C13 C 0.1370(5) -0.2635(6) 0.2974(3)
H14 H 0.2095 -0.2414 0.3398
C14 C 0.0910(6) -0.3894(6) 0.2446(3)
H15 H 0.1249 -0.4708 0.2425
C15 C -0.0158(6) -0.3712(6) 0.1953(3)
H16 H -0.0690 -0.4421 0.1528
N1 N -0.0707(4) -0.2886(4) 0.4754(2)
N2 N -0.1717(4) -0.3398(4) 0.41222(19)
N3 N -0.0351(5) -0.2435(5) 0.2144(2)
N4 N 0.0612(4) -0.1780(4) 0.2781(2)
Ag1B Ag -0.14063(6) -0.10464(4) 0.166635(14)
N3A N 0.2435(5) 0.2084(7) 0.5477(2)
B1 B 0.4548(7) -0.0677(7) 0.4777(3)
F1 F 0.3973(4) 0.0173(4) 0.43196(16)
F2 F 0.3814(3) -0.0928(4) 0.54923(16)
F3 F 0.6237(3) 0.0279(4) 0.48650(18)
F4 F 0.4129(5) -0.2158(4) 0.4441(2)
loop_
_geom_bond_atom_site_label_1
_geom_bond_atom_site_label_2
_geom_bond_site_symmetry_1
_geom_bond_site_symmetry_2
Ag1 N1 1_555 1_555
C1 H1 1_555 1_555
H2 C1 1_555 1_555
C2 C1 1_555 1_555
C3 C2 1_555 1_555
C4 C3 1_555 1_555
H3 C4 1_555 1_555
C5 C4 1_555 1_555
H4 C5 1_555 1_555
C6 C5 1_555 1_555
H5 C6 1_555 1_555
C7 C2 1_555 1_555
H6 C7 1_555 1_555
C8 C9 1_555 1_555
C9 H7 1_555 1_555
C10 C9 1_555 1_555
C11 C8 1_555 1_555
H8 C11 1_555 1_555
H9 C11 1_555 1_555
H10 C11 1_555 1_555
C12 C10 1_555 1_555
H11 C12 1_555 1_555
H12 C12 1_555 1_555
H13 C12 1_555 1_555
C13 H14 1_555 1_555
C14 C13 1_555 1_555
H15 C14 1_555 1_555
C15 C14 1_555 1_555
H16 C15 1_555 1_555
N1 C10 1_555 1_555
N2 C1 1_555 1_555
N3 C15 1_555 1_555
N4 C3 1_555 1_555
B1 F1 1_555 1_555
F2 B1 1_555 1_555
F3 B1 1_555 1_555
F4 B1 1_555 1_555
Ag1B N3 1_555 1_555
N3A Ag1 1_555 1_555
C6 C7 1_555 1_555
C8 N2 1_555 1_555
C13 N4 1_555 1_555
N1 N2 1_555 1_555
N3 N4 1_555 1_555

#END
