
#######################################################################
#
#                 Cambridge Crystallographic Data Centre
#                                CCDC 
#
#######################################################################
#
# If this CIF has been generated from an entry in the Cambridge 
# Structural Database, then it will include bibliographic, chemical, 
# crystal, experimental, refinement or atomic coordinate data resulting 
# from the CCDC's data processing and validation procedures.
#
#######################################################################

data_OGINIC
_symmetry_cell_setting           monoclinic
_symmetry_space_group_name_H-M   'P 21/c'
_symmetry_Int_Tables_number      14
_space_group_name_Hall           '-P 2ybc'
loop_
_symmetry_equiv_pos_site_id
_symmetry_equiv_pos_as_xyz
1 x,y,z
2 -x,1/2+y,1/2-z
3 -x,-y,-z
4 x,1/2-y,1/2+z
_cell_length_a                   10.6839(7)
_cell_length_b                   15.2638(9)
_cell_length_c                   13.3827(8)
_cell_angle_alpha                90
_cell_angle_beta                 109.6070(10)
_cell_angle_gamma                90
_cell_volume                     2055.87
loop_
_atom_site_label
_atom_site_type_symbol
_atom_site_fract_x
_atom_site_fract_y
_atom_site_fract_z
Ag1 Ag 0.255551(15) 0.257003(9) 0.411687(11)
C1 C 0.40186(18) 0.22432(13) 0.67425(15)
H1 H 0.4746 0.2574 0.6614
H2 H 0.4296 0.2110 0.7510
C2 C 0.27792(18) 0.28078(12) 0.64354(13)
C3 C 0.1577(2) 0.25249(10) 0.65283(15)
C4 C 0.04719(19) 0.30603(13) 0.62607(14)
H3 H -0.0338 0.2853 0.6322
C5 C 0.0554(2) 0.39023(13) 0.59021(15)
H4 H -0.0196 0.4279 0.5728
C6 C 0.1729(2) 0.41940(13) 0.57977(14)
H5 H 0.1784 0.4771 0.5550
C7 C 0.28271(19) 0.36474(12) 0.60530(13)
H6 H 0.3624 0.3851 0.5965
C8 C 0.41893(18) 0.06036(12) 0.65025(15)
C9 C 0.38014(18) 0.00688(13) 0.56304(16)
H7 H 0.3925 -0.0547 0.5622
C10 C 0.31894(18) 0.06036(12) 0.47558(15)
C11 C 0.4906(2) 0.03986(16) 0.76436(16)
H8 H 0.5807 0.0642 0.7856
H9 H 0.4956 -0.0238 0.7744
H10 H 0.4427 0.0657 0.8080
C12 C 0.2583(2) 0.03699(16) 0.36135(16)
H11 H 0.1725 0.0667 0.3314
H12 H 0.2450 -0.0265 0.3544
H13 H 0.3175 0.0554 0.3230
C13 C 0.08831(19) 0.09538(13) 0.62945(15)
H14 H 0.0434 0.0948 0.5550
C14 C 0.1059(2) 0.02513(13) 0.69728(16)
H15 H 0.0763 -0.0333 0.6795
C15 C 0.1759(2) 0.05784(12) 0.79680(16)
H16 H 0.2021 0.0239 0.8600
N1 N 0.32014(14) 0.14343(10) 0.50738(11)
N2 N 0.38089(14) 0.14246(10) 0.61472(11)
N3 N 0.20188(15) 0.14311(10) 0.79293(11)
N4 N 0.14676(15) 0.16513(10) 0.68861(11)
Ag1C Ag 0.255551(15) 0.242997(9) 0.911687(11)
N3C N 0.20188(15) 0.35689(10) 0.29293(11)
C16 C -0.1105(2) 0.23334(14) 0.35685(17)
C17 C -0.1307(2) 0.32465(15) 0.31479(19)
H17 H -0.0462 0.3481 0.3127
H18 H -0.1631 0.3614 0.3610
H19 H -0.1961 0.3245 0.2430
C18 C -0.2294(2) 0.18778(16) 0.3664(2)
H20 H -0.2870 0.1687 0.2961
H21 H -0.2786 0.2280 0.3967
H22 H -0.2009 0.1366 0.4128
O1 O -0.00343(14) 0.19664(10) 0.38076(13)
B1 B 0.6418(2) 0.33844(19) 0.5379(2)
F1 F 0.53994(15) 0.30709(12) 0.45425(13)
F2 F 0.5948(2) 0.38329(13) 0.60552(16)
F3 F 0.72389(14) 0.39121(11) 0.50313(11)
F4 F 0.7149(2) 0.26747(14) 0.59066(15)
loop_
_geom_bond_atom_site_label_1
_geom_bond_atom_site_label_2
_geom_bond_site_symmetry_1
_geom_bond_site_symmetry_2
Ag1 N1 1_555 1_555
C1 H1 1_555 1_555
H2 C1 1_555 1_555
C2 C1 1_555 1_555
C3 C2 1_555 1_555
C4 C3 1_555 1_555
H3 C4 1_555 1_555
C5 C4 1_555 1_555
H4 C5 1_555 1_555
C6 C5 1_555 1_555
H5 C6 1_555 1_555
C7 C2 1_555 1_555
H6 C7 1_555 1_555
C8 C9 1_555 1_555
C9 H7 1_555 1_555
C10 C9 1_555 1_555
C11 C8 1_555 1_555
H8 C11 1_555 1_555
H9 C11 1_555 1_555
H10 C11 1_555 1_555
C12 C10 1_555 1_555
H11 C12 1_555 1_555
H12 C12 1_555 1_555
H13 C12 1_555 1_555
C13 H14 1_555 1_555
C14 C13 1_555 1_555
H15 C14 1_555 1_555
C15 C14 1_555 1_555
H16 C15 1_555 1_555
N1 C10 1_555 1_555
N2 C1 1_555 1_555
N3 C15 1_555 1_555
N4 C3 1_555 1_555
C16 C17 1_555 1_555
C17 H17 1_555 1_555
H18 C17 1_555 1_555
H19 C17 1_555 1_555
C18 C16 1_555 1_555
H20 C18 1_555 1_555
H21 C18 1_555 1_555
H22 C18 1_555 1_555
O1 C16 1_555 1_555
B1 F1 1_555 1_555
F2 B1 1_555 1_555
F3 B1 1_555 1_555
F4 B1 1_555 1_555
Ag1C N3 1_555 1_555
N3C Ag1 1_555 1_555
C6 C7 1_555 1_555
C8 N2 1_555 1_555
C13 N4 1_555 1_555
N1 N2 1_555 1_555
N3 N4 1_555 1_555

#END
