
#######################################################################
#
#                 Cambridge Crystallographic Data Centre
#                                CCDC 
#
#######################################################################
#
# If this CIF has been generated from an entry in the Cambridge 
# Structural Database, then it will include bibliographic, chemical, 
# crystal, experimental, refinement or atomic coordinate data resulting 
# from the CCDC's data processing and validation procedures.
#
#######################################################################

data_OGIPUR
_symmetry_cell_setting           monoclinic
_symmetry_space_group_name_H-M   'P 21/c'
_symmetry_Int_Tables_number      14
_space_group_name_Hall           '-P 2ybc'
loop_
_symmetry_equiv_pos_site_id
_symmetry_equiv_pos_as_xyz
1 x,y,z
2 -x,1/2+y,1/2-z
3 -x,-y,-z
4 x,1/2-y,1/2+z
_cell_length_a                   14.3445(11)
_cell_length_b                   17.5421(13)
_cell_length_c                   13.8360(11)
_cell_angle_alpha                90
_cell_angle_beta                 102.3090(10)
_cell_angle_gamma                90
_cell_volume                     3401.55
loop_
_atom_site_label
_atom_site_type_symbol
_atom_site_fract_x
_atom_site_fract_y
_atom_site_fract_z
Zn1 Zn 0.34286(2) 0.675209(17) 0.41353(2)
Zn2 Zn 0.03394(2) 0.664897(18) 0.35208(2)
N1 N 0.34137(16) 0.55470(13) 0.37846(17)
N2 N 0.38953(19) 1.18285(14) 0.48191(18)
H1 H 0.4415 1.2008 0.5173
N3 N 0.04646(17) 0.54859(14) 0.30829(17)
N4 N 0.36478(16) 0.62064(13) 0.55410(17)
N5 N 0.08657(16) 0.60878(13) 0.48821(17)
O1 O 0.10366(15) 1.17498(13) 0.20231(16)
O2 O 0.34953(15) 0.78624(11) 0.45469(15)
O3 O 0.05427(15) 0.77367(11) 0.40796(15)
H2 H 0.1087 0.7957 0.4132
H3 H 0.0082 0.7971 0.4260
O4 O 0.51071(15) 1.18425(11) 0.09223(15)
O5 O 0.60819(14) 1.19306(12) 0.23730(15)
O6 O 0.15705(14) 1.19643(12) 0.06367(15)
O7 O 0.22192(16) 0.78649(13) 0.52379(16)
O8 O 0.20220(14) 0.68015(11) 0.34000(14)
O9 O 0.07725(14) 0.69934(12) 0.21984(15)
C1 C 0.26988(19) 1.18697(14) 0.2174(2)
C2 C 0.3742(2) 0.65711(16) 0.6408(2)
H4 H 0.3601 0.7089 0.6403
C3 C 0.5255(2) 1.19059(15) 0.1856(2)
C4 C 0.0867(2) 0.50063(16) 0.3812(2)
C5 C 0.4532(2) 1.19075(15) 0.3349(2)
H5 H 0.5145 1.1924 0.3739
C6 C 0.2831(2) 1.18290(15) 0.3201(2)
H6 H 0.2305 1.1780 0.3490
C7 C 0.4163(2) 0.50586(17) 0.6424(2)
H7 H 0.4309 0.4543 0.6413
C8 C 0.3744(2) 1.18616(15) 0.3795(2)
C9 C 0.36756(19) 0.50774(15) 0.4560(2)
C10 C 0.3202(2) 0.52481(17) 0.2874(2)
H8 H 0.3020 0.5573 0.2336
C11 C 0.0199(2) 0.52146(19) 0.2159(2)
H9 H -0.0078 0.5548 0.1658
C12 C 0.11076(19) 0.53463(16) 0.4818(2)
C13 C 0.43981(19) 1.19290(14) 0.2326(2)
C14 C 0.1693(2) 1.18706(15) 0.1547(2)
C15 C 0.2862(2) 0.82017(17) 0.4903(2)
C16 C 0.34788(19) 1.19223(14) 0.17314(19)
H10 H 0.3391 1.1953 0.1047
C17 C 0.38442(19) 0.54505(15) 0.5549(2)
C18 C 0.1532(2) 0.49359(17) 0.5647(2)
H11 H 0.1699 0.4429 0.5586
C19 C 0.3757(2) 0.42940(16) 0.4440(2)
H12 H 0.3953 0.3979 0.4986
C20 C 0.0319(2) 0.44656(19) 0.1919(2)
H13 H 0.0121 0.4296 0.1271
C21 C 0.1047(2) 0.64173(17) 0.5774(2)
H14 H 0.0888 0.6928 0.5819
C22 C 0.3695(3) 0.94232(19) 0.4787(3)
H15 H 0.4187 0.9143 0.4619
C23 C 0.3775(3) 1.02036(18) 0.4868(3)
H16 H 0.4326 1.0440 0.4764
C24 C 0.3050(2) 1.06454(17) 0.5100(2)
C25 C 0.3542(2) 0.39944(17) 0.3502(2)
H17 H 0.3597 0.3473 0.3404
C26 C 0.1460(2) 0.60353(17) 0.6636(2)
H18 H 0.1567 0.6282 0.7245
C27 C 0.1014(2) 0.42427(18) 0.3623(2)
H19 H 0.1294 0.3918 0.4133
C28 C 0.1710(2) 0.52792(18) 0.6572(2)
H20 H 0.1992 0.5007 0.7135
C29 C 0.4042(2) 0.62072(18) 0.7312(2)
H21 H 0.4093 0.6473 0.7902
C30 C 0.2218(2) 1.02757(19) 0.5220(2)
H22 H 0.1706 1.0561 0.5334
C31 C 0.2896(2) 0.90489(18) 0.4953(2)
C32 C 0.2151(2) 0.94864(19) 0.5170(2)
H23 H 0.1605 0.9246 0.5281
C33 C 0.4265(2) 0.54392(18) 0.7315(2)
H24 H 0.4480 0.5183 0.7909
C34 C 0.3244(2) 0.44760(18) 0.2706(2)
H25 H 0.3074 0.4282 0.2066
C35 C 0.0738(2) 0.39713(19) 0.2662(2)
H26 H 0.0835 0.3463 0.2521
C36 C 0.3197(3) 1.14993(18) 0.5290(2)
H27 H 0.2594 1.1759 0.5059
H28 H 0.3389 1.1584 0.5998
C37 C 0.1660(2) 0.69734(16) 0.2515(2)
H29 H 0.2060 0.7088 0.2087
Zn1A Zn 0.65714(2) 1.175209(17) 0.08647(2)
Zn2A Zn -0.03394(2) 1.164897(18) 0.14792(2)
O1A O -0.10366(15) 0.67498(13) 0.29769(16)
O4A O 0.48929(15) 0.68425(11) 0.40777(15)
O5A O 0.39181(14) 0.69306(12) 0.26270(15)
O10 O -0.05571(18) 0.81524(13) 0.53730(18)
H30 H -0.1029 0.8301 0.4918
H31 H -0.0592 0.8182 0.5985
loop_
_geom_bond_atom_site_label_1
_geom_bond_atom_site_label_2
_geom_bond_site_symmetry_1
_geom_bond_site_symmetry_2
Zn1 N1 1_555 1_555
Zn2 N3 1_555 1_555
N1 C9 1_555 1_555
N2 H1 1_555 1_555
N3 C4 1_555 1_555
N4 Zn1 1_555 1_555
N5 Zn2 1_555 1_555
O1 C14 1_555 1_555
O2 Zn1 1_555 1_555
O3 Zn2 1_555 1_555
H2 O3 1_555 1_555
H3 O3 1_555 1_555
O4 C3 1_555 1_555
O5 C3 1_555 1_555
O6 C14 1_555 1_555
O7 C15 1_555 1_555
O8 Zn1 1_555 1_555
O9 Zn2 1_555 1_555
C1 C6 1_555 1_555
C2 N4 1_555 1_555
H4 C2 1_555 1_555
C3 C13 1_555 1_555
C4 C12 1_555 1_555
C5 H5 1_555 1_555
C6 H6 1_555 1_555
C7 H7 1_555 1_555
C8 N2 1_555 1_555
C9 C17 1_555 1_555
C10 N1 1_555 1_555
H8 C10 1_555 1_555
C11 N3 1_555 1_555
H9 C11 1_555 1_555
C12 N5 1_555 1_555
C13 C5 1_555 1_555
C14 C1 1_555 1_555
C15 O2 1_555 1_555
C16 C1 1_555 1_555
H10 C16 1_555 1_555
C17 N4 1_555 1_555
C18 C12 1_555 1_555
H11 C18 1_555 1_555
C19 C9 1_555 1_555
H12 C19 1_555 1_555
C20 C11 1_555 1_555
H13 C20 1_555 1_555
C21 N5 1_555 1_555
H14 C21 1_555 1_555
C22 H15 1_555 1_555
C23 C22 1_555 1_555
H16 C23 1_555 1_555
C24 C23 1_555 1_555
C25 C19 1_555 1_555
H17 C25 1_555 1_555
C26 C21 1_555 1_555
H18 C26 1_555 1_555
C27 C4 1_555 1_555
H19 C27 1_555 1_555
C28 C18 1_555 1_555
H20 C28 1_555 1_555
C29 C2 1_555 1_555
H21 C29 1_555 1_555
C30 C24 1_555 1_555
H22 C30 1_555 1_555
C31 C15 1_555 1_555
C32 C30 1_555 1_555
H23 C32 1_555 1_555
C33 C7 1_555 1_555
H24 C33 1_555 1_555
C34 C10 1_555 1_555
H25 C34 1_555 1_555
C35 C20 1_555 1_555
H26 C35 1_555 1_555
C36 N2 1_555 1_555
H27 C36 1_555 1_555
H28 C36 1_555 1_555
C37 O8 1_555 1_555
H29 C37 1_555 1_555
O10 H30 1_555 1_555
H31 O10 1_555 1_555
Zn1A O4 1_555 1_555
Zn2A O1 1_555 1_555
O1A Zn2 1_555 1_555
O4A Zn1 1_555 1_555
O5A Zn1 1_555 1_555
Zn2 O8 1_555 1_555
O5 Zn1A 1_555 1_555
O9 C37 1_555 1_555
C5 C8 1_555 1_555
C6 C8 1_555 1_555
C7 C17 1_555 1_555
C13 C16 1_555 1_555
C22 C31 1_555 1_555
C24 C36 1_555 1_555
C25 C34 1_555 1_555
C26 C28 1_555 1_555
C27 C35 1_555 1_555
C29 C33 1_555 1_555
C31 C32 1_555 1_555

#END
