
#######################################################################
#
#                 Cambridge Crystallographic Data Centre
#                                CCDC 
#
#######################################################################
#
# If this CIF has been generated from an entry in the Cambridge 
# Structural Database, then it will include bibliographic, chemical, 
# crystal, experimental, refinement or atomic coordinate data resulting 
# from the CCDC's data processing and validation procedures.
#
#######################################################################

data_OGIYEI
_symmetry_cell_setting           monoclinic
_symmetry_space_group_name_H-M   'C 2/c'
_symmetry_Int_Tables_number      15
_space_group_name_Hall           '-C 2yn'
loop_
_symmetry_equiv_pos_site_id
_symmetry_equiv_pos_as_xyz
1 x,y,z
2 1/2+x,1/2+y,z
3 x,-y,1/2+z
4 1/2+x,1/2-y,1/2+z
5 -x,-y,-z
6 1/2-x,1/2-y,-z
7 -x,y,1/2-z
8 1/2-x,1/2+y,1/2-z
_cell_length_a                   19.640(4)
_cell_length_b                   14.064(3)
_cell_length_c                   19.561(4)
_cell_angle_alpha                90
_cell_angle_beta                 90.30(3)
_cell_angle_gamma                90
_cell_volume                     5403.01
loop_
_atom_site_label
_atom_site_type_symbol
_atom_site_fract_x
_atom_site_fract_y
_atom_site_fract_z
Zn1 Zn 0.48340(2) 0.06577(4) 0.11872(2)
Zn2 Zn 0.36996(2) 0.06530(3) 0.23259(2)
Zn3 Zn 0.63004(3) 0.32234(4) 0.23513(2)
Zn4 Zn 0.51671(2) 0.32379(4) 0.12210(3)
Si1 Si 0.5000 0.19288(11) 0.2500
O1 O 0.54904(14) 0.2575(2) 0.20268(14)
O2 O 0.45207(15) 0.1286(2) 0.20141(15)
O3 O 0.65694(19) 0.0784(3) 0.17431(18)
O4 O 0.57673(18) 0.0828(3) 0.09474(19)
C1 C 0.6897(2) 0.1006(3) 0.0611(2)
C2 C 0.7578(3) 0.1042(5) 0.0788(3)
H1 H 0.7708 0.0972 0.1243
C3 C 0.8067(3) 0.1181(5) 0.0293(3)
H2 H 0.8523 0.1221 0.0417
C4 C 0.7882(2) 0.1260(4) -0.0377(2)
C5 C 0.7204(3) 0.1219(4) -0.0559(3)
H3 H 0.7079 0.1275 -0.1016
C6 C 0.6709(3) 0.1095(4) -0.0068(3)
H4 H 0.6252 0.1071 -0.0193
C7 C 0.6371(2) 0.0862(3) 0.1142(2)
C8 C 0.8412(2) 0.1415(4) -0.0915(2)
O5 O 0.82110(18) 0.1493(3) -0.15172(18)
O6 O 0.90193(17) 0.1451(3) -0.07207(19)
O7 O 0.4759(2) -0.5572(3) 0.1489(2)
O8 O 0.3916(2) -0.5569(3) 0.2234(2)
C9 C 0.4310(3) -0.4106(3) 0.1819(3)
C10 C 0.3853(3) -0.3618(4) 0.2209(3)
H5 H 0.3560 -0.3946 0.2496
C11 C 0.3826(3) -0.2633(4) 0.2177(3)
H6 H 0.3512 -0.2301 0.2440
C12 C 0.4268(2) -0.2148(3) 0.1754(2)
C13 C 0.4719(3) -0.2641(4) 0.1360(3)
H7 H 0.5012 -0.2317 0.1070
C14 C 0.4739(3) -0.3626(4) 0.1393(3)
H8 H 0.5045 -0.3961 0.1124
C15 C 0.4330(3) -0.5184(4) 0.1853(3)
C16 C 0.4247(3) -0.1083(3) 0.1722(2)
O9 O 0.46376(19) -0.0678(2) 0.13140(17)
O10 O 0.38426(19) -0.0678(2) 0.21222(19)
O11 O 0.1928(2) 0.2350(3) -0.2024(2)
O12 O 0.20449(18) 0.3871(3) -0.1775(2)
C17 C 0.2727(2) 0.2772(3) -0.1187(2)
C18 C 0.2912(3) 0.1838(4) -0.1081(3)
H9 H 0.2711 0.1359 -0.1341
C19 C 0.3390(3) 0.1611(4) -0.0595(3)
H10 H 0.3506 0.0977 -0.0524
C20 C 0.3698(2) 0.2301(3) -0.0214(2)
C21 C 0.3529(3) 0.3230(4) -0.0333(3)
H11 H 0.3745 0.3710 -0.0086
C22 C 0.3043(3) 0.3462(4) -0.0814(3)
H12 H 0.2930 0.4097 -0.0885
C23 C 0.2191(2) 0.3015(4) -0.1703(3)
C24 C 0.4211(3) 0.2040(4) 0.0319(2)
O13 O 0.4517(2) 0.2704(3) 0.0608(2)
O14 O 0.4306(2) 0.1178(3) 0.04398(18)
O1F O 0.45096(14) 0.2575(2) 0.29732(14)
O2F O 0.54793(15) 0.1286(2) 0.29859(15)
Zn1F Zn 0.51660(2) 0.06577(4) 0.38128(2)
Zn2F Zn 0.63004(2) 0.06530(3) 0.26741(2)
Zn3F Zn 0.36996(3) 0.32234(4) 0.26487(2)
Zn4F Zn 0.48329(2) 0.32379(4) 0.37790(3)
O3F O 0.34306(19) 0.0784(3) 0.32569(18)
O4F O 0.42327(18) 0.0828(3) 0.40526(19)
C1F C 0.3103(2) 0.1006(3) 0.4389(2)
C2F C 0.2422(3) 0.1042(5) 0.4212(3)
H1F H 0.2292 0.0972 0.3757
C3F C 0.1933(3) 0.1181(5) 0.4707(3)
H2F H 0.1477 0.1221 0.4583
C4F C 0.2118(2) 0.1260(4) 0.5377(2)
C5F C 0.2796(3) 0.1219(4) 0.5559(3)
H3F H 0.2921 0.1275 0.6016
C6F C 0.3291(3) 0.1095(4) 0.5068(3)
H4F H 0.3748 0.1071 0.5193
C7F C 0.3629(2) 0.0862(3) 0.3858(2)
C8F C 0.1588(2) 0.1415(4) 0.5915(2)
O5F O 0.17890(18) 0.1493(3) 0.65172(18)
O6F O 0.09807(17) 0.1451(3) 0.57207(19)
O11E O 0.3072(2) 0.2650(3) 0.2024(2)
O12E O 0.29551(18) 0.1129(3) 0.1775(2)
C17E C 0.2273(2) 0.2228(3) 0.1187(2)
C18E C 0.2088(3) 0.3162(4) 0.1081(3)
H9E H 0.2289 0.3641 0.1341
C19E C 0.1610(3) 0.3389(4) 0.0595(3)
H10E H 0.1494 0.4023 0.0524
C20E C 0.1302(2) 0.2699(3) 0.0214(2)
C21E C 0.1471(3) 0.1770(4) 0.0333(3)
H11E H 0.1255 0.1290 0.0086
C22E C 0.1957(3) 0.1538(4) 0.0814(3)
H12E H 0.2070 0.0903 0.0885
C23E C 0.2809(2) 0.1985(4) 0.1703(3)
C24E C 0.0789(3) 0.2960(4) -0.0319(2)
O13E O 0.0483(2) 0.2296(3) -0.0608(2)
O14E O 0.0694(2) 0.3822(3) -0.04398(18)
O7F O 0.5241(2) 0.4428(3) 0.3511(2)
O8F O 0.6084(2) 0.4431(3) 0.2766(2)
C9F C 0.5690(3) 0.5894(3) 0.3181(3)
C10F C 0.6147(3) 0.6382(4) 0.2791(3)
H5F H 0.6440 0.6054 0.2504
C11F C 0.6174(3) 0.7367(4) 0.2823(3)
H6F H 0.6488 0.7699 0.2560
C12F C 0.5732(2) 0.7852(3) 0.3246(2)
C13F C 0.5281(3) 0.7359(4) 0.3640(3)
H7F H 0.4988 0.7683 0.3930
C14F C 0.5261(3) 0.6374(4) 0.3607(3)
H8F H 0.4955 0.6039 0.3876
C15F C 0.5670(3) 0.4816(4) 0.3147(3)
C16F C 0.5753(3) 0.8917(3) 0.3278(2)
O9F O 0.53624(19) 0.9322(2) 0.36860(17)
O10F O 0.61574(19) 0.9322(2) 0.28778(19)
O5E O 0.67890(18) 0.3507(3) 0.15172(18)
O11C O 0.6928(2) 0.2650(3) 0.2976(2)
O6E O 0.59807(17) 0.3549(3) 0.07207(19)
O7_2 O 0.4759(2) 0.4428(3) 0.1489(2)
Zn3E Zn 0.86996(3) 0.17766(4) -0.23513(2)
Zn4E Zn 0.98329(2) 0.17621(4) -0.12210(3)
Zn4_2 Zn 0.51671(2) -0.67621(4) 0.12210(3)
Zn3F_2 Zn 0.36996(3) -0.67766(4) 0.26487(2)
Zn3C Zn 0.13004(3) 0.17766(4) -0.26487(2)
Zn2E Zn 0.13004(2) 0.43470(3) -0.23259(2)
O9F_2 O 0.53624(19) -0.0678(2) 0.36860(17)
O14F O 0.5694(2) 0.1178(3) 0.45602(18)
O10F_2 O 0.61574(19) -0.0678(2) 0.28778(19)
O12C O 0.70449(18) 0.1129(3) 0.3225(2)
O5C O 0.32110(18) 0.3507(3) 0.34828(18)
O8_2 O 0.3916(2) 0.4431(3) 0.2234(2)
O6C O 0.40193(17) 0.3549(3) 0.42793(19)
O13F O 0.5483(2) 0.2704(3) 0.4392(2)
Zn3C_2 Zn 0.13004(3) 0.17766(4) 0.73513(2)
Zn4C Zn 0.01671(2) 0.17621(4) 0.62210(3)
Zn4E_2 Zn -0.01671(2) 0.17621(4) -0.12210(3)
Zn1E Zn 0.01660(2) 0.43423(4) -0.11872(2)
Zn1F_2 Zn 0.51660(2) 1.06577(4) 0.38128(2)
Zn2F_2 Zn 0.63004(2) 1.06530(3) 0.26741(2)
loop_
_geom_bond_atom_site_label_1
_geom_bond_atom_site_label_2
_geom_bond_site_symmetry_1
_geom_bond_site_symmetry_2
Zn1 O2 1_555 1_555
Zn2 O2 1_555 1_555
Zn3 O1 1_555 1_555
Zn4 O1 1_555 1_555
Si1 O1 1_555 1_555
O2 Si1 1_555 1_555
O3 C7 1_555 1_555
O4 Zn1 1_555 1_555
C1 C2 1_555 1_555
C2 H1 1_555 1_555
C3 C2 1_555 1_555
H2 C3 1_555 1_555
C4 C3 1_555 1_555
C5 C4 1_555 1_555
H3 C5 1_555 1_555
C6 C1 1_555 1_555
H4 C6 1_555 1_555
C7 O4 1_555 1_555
C8 C4 1_555 1_555
O5 C8 1_555 1_555
O6 C8 1_555 1_555
O7 C15 1_555 1_555
O8 C15 1_555 1_555
C9 C10 1_555 1_555
C10 H5 1_555 1_555
C11 C10 1_555 1_555
H6 C11 1_555 1_555
C12 C11 1_555 1_555
C13 C12 1_555 1_555
H7 C13 1_555 1_555
C14 C9 1_555 1_555
H8 C14 1_555 1_555
C15 C9 1_555 1_555
C16 C12 1_555 1_555
O9 Zn1 1_555 1_555
O10 Zn2 1_555 1_555
O11 C23 1_555 1_555
O12 C23 1_555 1_555
C17 C18 1_555 1_555
C18 H9 1_555 1_555
C19 C18 1_555 1_555
H10 C19 1_555 1_555
C20 C19 1_555 1_555
C21 C20 1_555 1_555
H11 C21 1_555 1_555
C22 C17 1_555 1_555
H12 C22 1_555 1_555
C23 C17 1_555 1_555
C24 C20 1_555 1_555
O13 Zn4 1_555 1_555
O14 Zn1 1_555 1_555
O1F Si1 1_555 1_555
O2F Si1 1_555 1_555
Zn1F O2F 1_555 1_555
Zn2F O3 1_555 1_555
Zn3F O1F 1_555 1_555
Zn4F O1F 1_555 1_555
O3F Zn2 1_555 1_555
O4F Zn1F 1_555 1_555
C1F C2F 1_555 1_555
C2F H1F 1_555 1_555
C3F C2F 1_555 1_555
H2F C3F 1_555 1_555
C4F C3F 1_555 1_555
C5F C4F 1_555 1_555
H3F C5F 1_555 1_555
C6F C1F 1_555 1_555
H4F C6F 1_555 1_555
C7F O3F 1_555 1_555
C8F C4F 1_555 1_555
O5F C8F 1_555 1_555
O6F C8F 1_555 1_555
O11E Zn3F 1_555 1_555
O12E Zn2 1_555 1_555
C17E C18E 1_555 1_555
C18E H9E 1_555 1_555
C19E C18E 1_555 1_555
H10E C19E 1_555 1_555
C20E C19E 1_555 1_555
C21E C20E 1_555 1_555
H11E C21E 1_555 1_555
C22E C17E 1_555 1_555
H12E C22E 1_555 1_555
C23E O11E 1_555 1_555
C24E C20E 1_555 1_555
O13E C24E 1_555 1_555
O14E C24E 1_555 1_555
O7F Zn4F 1_555 1_555
O8F Zn3 1_555 1_555
C9F C10F 1_555 1_555
C10F H5F 1_555 1_555
C11F C10F 1_555 1_555
H6F C11F 1_555 1_555
C12F C11F 1_555 1_555
C13F C12F 1_555 1_555
H7F C13F 1_555 1_555
C14F C9F 1_555 1_555
H8F C14F 1_555 1_555
C15F O7F 1_555 1_555
C16F C12F 1_555 1_555
O9F C16F 1_555 1_555
O10F C16F 1_555 1_555
O5E Zn3 1_555 1_555
O11C Zn3 1_555 1_555
O6E Zn4 1_555 1_555
O7_2 Zn4 1_555 1_555
Zn3E O5 1_555 1_555
Zn4E O6 1_555 1_555
Zn4_2 O7 1_555 1_555
Zn3F_2 O8 1_555 1_555
Zn3C O11 1_555 1_555
Zn2E O12 1_555 1_555
O9F_2 Zn1F 1_555 1_555
O14F Zn1F 1_555 1_555
O10F_2 Zn2F 1_555 1_555
O12C Zn2F 1_555 1_555
O5C Zn3F 1_555 1_555
O8_2 Zn3F 1_555 1_555
O6C Zn4F 1_555 1_555
O13F Zn4F 1_555 1_555
Zn3C_2 O5F 1_555 1_555
Zn4C O6F 1_555 1_555
Zn4E_2 O13E 1_555 1_555
Zn1E O14E 1_555 1_555
Zn1F_2 O9F 1_555 1_555
Zn2F_2 O10F 1_555 1_555
C1 C7 1_555 1_555
C5 C6 1_555 1_555
C13 C14 1_555 1_555
C16 O9 1_555 1_555
C16 O10 1_555 1_555
C21 C22 1_555 1_555
C24 O13 1_555 1_555
C24 O14 1_555 1_555
O2F Zn2F 1_555 1_555
O4F C7F 1_555 1_555
C1F C7F 1_555 1_555
C5F C6F 1_555 1_555
O12E C23E 1_555 1_555
C17E C23E 1_555 1_555
C21E C22E 1_555 1_555
O8F C15F 1_555 1_555
C9F C15F 1_555 1_555
C13F C14F 1_555 1_555

#END
