
#######################################################################
#
#                 Cambridge Crystallographic Data Centre
#                                CCDC 
#
#######################################################################
#
# If this CIF has been generated from an entry in the Cambridge 
# Structural Database, then it will include bibliographic, chemical, 
# crystal, experimental, refinement or atomic coordinate data resulting 
# from the CCDC's data processing and validation procedures.
#
#######################################################################

data_OGIZAG
_symmetry_cell_setting           monoclinic
_symmetry_space_group_name_H-M   'P 21/c'
_symmetry_Int_Tables_number      14
_space_group_name_Hall           '-P 2ybc'
loop_
_symmetry_equiv_pos_site_id
_symmetry_equiv_pos_as_xyz
1 x,y,z
2 -x,1/2+y,1/2-z
3 -x,-y,-z
4 x,1/2-y,1/2+z
_cell_length_a                   13.1889(6)
_cell_length_b                   8.6070(4)
_cell_length_c                   20.4006(5)
_cell_angle_alpha                90
_cell_angle_beta                 93.461(3)
_cell_angle_gamma                90
_cell_volume                     2311.59
loop_
_atom_site_label
_atom_site_type_symbol
_atom_site_fract_x
_atom_site_fract_y
_atom_site_fract_z
U1 U 0.184471(9) 0.676570(13) 0.074869(5)
Sm1 Sm 0.366062(12) 0.419006(19) 0.331264(7)
O1 O 0.28507(17) 0.5497(3) 0.23739(10)
O2 O 0.15366(19) 0.6779(2) 0.18796(11)
O3 O 0.31606(18) 0.6430(3) 0.39333(11)
O4 O 0.28419(17) 0.7620(3) 0.48609(10)
O5 O 0.51562(17) 0.3865(3) 0.40319(10)
O6 O 0.66689(18) 0.2921(3) 0.38220(11)
O7 O 0.47302(18) 0.3070(3) 0.25844(11)
O8 O 0.51713(17) 0.1261(3) 0.18814(10)
O9 O 0.24064(17) 0.4899(3) 0.08390(10)
O10 O 0.12304(18) 0.8598(3) 0.06580(11)
O11 O 0.01752(18) 0.5570(3) 0.08194(11)
O12 O -0.10686(18) 0.4168(3) 0.03089(11)
N1 N 0.1617(2) 0.4260(3) 0.32814(13)
N2 N 0.3006(2) 0.3517(3) 0.44713(13)
N3 N 0.4136(2) 0.1196(3) 0.37011(12)
N4 N 0.2765(2) 0.1934(3) 0.25408(13)
C1 C 0.1283(3) 0.4253(4) 0.39710(15)
H1 H 0.0570 0.3974 0.3966
H2 H 0.1358 0.5289 0.4155
C2 C 0.1900(3) 0.3115(4) 0.44016(16)
H3 H 0.1631 0.3093 0.4834
H4 H 0.1824 0.2082 0.4215
C3 C 0.3599(3) 0.2207(4) 0.47819(15)
H5 H 0.3281 0.1887 0.5177
H6 H 0.4279 0.2568 0.4910
C4 C 0.3670(3) 0.0822(4) 0.43311(16)
H7 H 0.4070 0.0019 0.4558
H8 H 0.2993 0.0409 0.4233
C5 C 0.3779(3) -0.0006(4) 0.32125(16)
H9 H 0.3732 -0.1003 0.3431
H10 H 0.4268 -0.0103 0.2879
C6 C 0.2753(3) 0.0417(4) 0.28910(16)
H11 H 0.2539 -0.0391 0.2581
H12 H 0.2259 0.0464 0.3224
C7 C 0.1706(3) 0.2376(4) 0.23311(16)
H13 H 0.1360 0.1490 0.2127
H14 H 0.1716 0.3201 0.2007
C8 C 0.1120(3) 0.2928(4) 0.29163(17)
H15 H 0.0442 0.3236 0.2758
H16 H 0.1055 0.2066 0.3217
C9 C 0.1331(3) 0.5737(4) 0.29455(16)
H17 H 0.1432 0.6592 0.3252
H18 H 0.0616 0.5706 0.2802
C10 C 0.1961(3) 0.6014(4) 0.23545(15)
C11 C 0.3149(3) 0.4888(4) 0.49034(15)
H19 H 0.3822 0.4847 0.5122
H20 H 0.2659 0.4848 0.5239
C12 C 0.3027(2) 0.6413(4) 0.45351(16)
C13 C 0.5267(3) 0.1164(4) 0.37725(17)
H21 H 0.5525 0.0724 0.3378
H22 H 0.5479 0.0494 0.4138
C14 C 0.5728(3) 0.2767(4) 0.38883(15)
C15 C 0.3391(3) 0.1794(4) 0.19576(16)
H23 H 0.3171 0.2564 0.1632
H24 H 0.3290 0.0774 0.1762
C16 C 0.4516(3) 0.2029(4) 0.21515(16)
C17 C -0.0259(3) 0.4921(4) 0.03277(15)
U1C U 0.184471(9) 0.823430(13) -0.425131(5)
U1C_2 U 0.184471(9) 0.823430(13) 0.574869(5)
U1A U 0.815529(9) 0.176570(13) 0.425131(5)
U1B U -0.184471(9) 0.323430(13) -0.074869(5)
U1B_2 U 0.815529(9) 1.323430(13) -0.074869(5)
Sm1C Sm 0.366062(12) 1.080994(19) -0.168736(7)
Sm1A Sm 0.633938(12) -0.080994(19) 0.168736(7)
Sm1B Sm 0.633938(12) 1.580994(19) -0.331264(7)
O1C O 0.28507(17) 0.9503(3) -0.26261(10)
O2C O 0.15366(19) 0.8221(2) -0.31204(11)
O3C O 0.31606(18) 0.8570(3) -0.10667(11)
O4C O 0.28419(17) 0.7380(3) -0.01391(10)
O4_2 O 0.28419(17) 0.7620(3) -0.51391(10)
O5C O 0.51562(17) 1.1135(3) -0.09681(10)
O6C O 0.66689(18) 1.2079(3) -0.11780(11)
O6A O 0.33311(18) 0.7921(3) 0.11780(11)
O6B O 0.33311(18) 0.7079(3) -0.38220(11)
O7C O 0.47302(18) 1.1930(3) -0.24156(11)
O8C O 0.51713(17) 1.3739(3) -0.31186(10)
O8A O 0.48287(17) 0.6261(3) 0.31186(10)
O8B O 0.48287(17) 0.8739(3) -0.18814(10)
O9C O 0.24064(17) 1.0101(3) -0.41610(10)
O10C O 0.12304(18) 0.6402(3) -0.43420(11)
O11B O -0.01752(18) 0.4430(3) -0.08194(11)
O11C O 0.01752(18) 0.9430(3) -0.41806(11)
O12B O 0.10686(18) 0.5832(3) -0.03089(11)
O12A O 0.10686(18) 0.9168(3) -0.53089(11)
N1C N 0.1617(2) 1.0740(3) -0.17186(13)
N2C N 0.3006(2) 1.1483(3) -0.05287(13)
N3C N 0.4136(2) 1.3804(3) -0.12989(12)
N4C N 0.2765(2) 1.3066(3) -0.24592(13)
C1C C 0.1283(3) 1.0747(4) -0.10290(15)
H1C H 0.0570 1.1026 -0.1034
H2C H 0.1358 0.9711 -0.0845
C2C C 0.1900(3) 1.1885(4) -0.05984(16)
H3C H 0.1631 1.1907 -0.0166
H4C H 0.1824 1.2918 -0.0785
C3C C 0.3599(3) 1.2793(4) -0.02181(15)
H5C H 0.3281 1.3113 0.0177
H6C H 0.4279 1.2432 -0.0090
C4C C 0.3670(3) 1.4178(4) -0.06689(16)
H7C H 0.4070 1.4981 -0.0442
H8C H 0.2993 1.4591 -0.0767
C5C C 0.3779(3) 1.5006(4) -0.17875(16)
H9C H 0.3732 1.6003 -0.1569
H10C H 0.4268 1.5103 -0.2121
C6C C 0.2753(3) 1.4583(4) -0.21090(16)
H11C H 0.2539 1.5391 -0.2419
H12C H 0.2259 1.4536 -0.1776
C7C C 0.1706(3) 1.2624(4) -0.26689(16)
H13C H 0.1360 1.3510 -0.2873
H14C H 0.1716 1.1799 -0.2993
C8C C 0.1120(3) 1.2072(4) -0.20837(17)
H15C H 0.0442 1.1764 -0.2242
H16C H 0.1055 1.2934 -0.1783
C9C C 0.1331(3) 0.9263(4) -0.20545(16)
H17C H 0.1432 0.8408 -0.1748
H18C H 0.0616 0.9294 -0.2198
C10C C 0.1961(3) 0.8986(4) -0.26455(15)
C11C C 0.3149(3) 1.0112(4) -0.00966(15)
H19C H 0.3822 1.0153 0.0122
H20C H 0.2659 1.0152 0.0239
C12C C 0.3027(2) 0.8587(4) -0.04649(16)
C13C C 0.5267(3) 1.3836(4) -0.12275(17)
H21C H 0.5525 1.4276 -0.1622
H22C H 0.5479 1.4506 -0.0862
C14C C 0.5728(3) 1.2233(4) -0.11117(15)
C15C C 0.3391(3) 1.3206(4) -0.30424(16)
H23C H 0.3171 1.2436 -0.3368
H24C H 0.3290 1.4226 -0.3238
C16C C 0.4516(3) 1.2971(4) -0.28485(16)
C17B C 0.0259(3) 0.5079(4) -0.03277(15)
loop_
_geom_bond_atom_site_label_1
_geom_bond_atom_site_label_2
_geom_bond_site_symmetry_1
_geom_bond_site_symmetry_2
U1 O2 1_555 1_555
Sm1 O1 1_555 1_555
O1 C10 1_555 1_555
O2 C10 1_555 1_555
O3 Sm1 1_555 1_555
O4 C12 1_555 1_555
O5 Sm1 1_555 1_555
O6 C14 1_555 1_555
O7 Sm1 1_555 1_555
O8 C16 1_555 1_555
O9 U1 1_555 1_555
O10 U1 1_555 1_555
O11 U1 1_555 1_555
O12 C17 1_555 1_555
N1 Sm1 1_555 1_555
N2 Sm1 1_555 1_555
N3 Sm1 1_555 1_555
N4 Sm1 1_555 1_555
C1 N1 1_555 1_555
H1 C1 1_555 1_555
H2 C1 1_555 1_555
C2 N2 1_555 1_555
H3 C2 1_555 1_555
H4 C2 1_555 1_555
C3 N2 1_555 1_555
H5 C3 1_555 1_555
H6 C3 1_555 1_555
C4 N3 1_555 1_555
H7 C4 1_555 1_555
H8 C4 1_555 1_555
C5 N3 1_555 1_555
H9 C5 1_555 1_555
H10 C5 1_555 1_555
C6 N4 1_555 1_555
H11 C6 1_555 1_555
H12 C6 1_555 1_555
C7 N4 1_555 1_555
H13 C7 1_555 1_555
H14 C7 1_555 1_555
C8 N1 1_555 1_555
H15 C8 1_555 1_555
H16 C8 1_555 1_555
C9 N1 1_555 1_555
H17 C9 1_555 1_555
H18 C9 1_555 1_555
C10 C9 1_555 1_555
C11 N2 1_555 1_555
H19 C11 1_555 1_555
H20 C11 1_555 1_555
C12 O3 1_555 1_555
C13 N3 1_555 1_555
H21 C13 1_555 1_555
H22 C13 1_555 1_555
C14 O5 1_555 1_555
C15 N4 1_555 1_555
H23 C15 1_555 1_555
H24 C15 1_555 1_555
C16 O7 1_555 1_555
C17 O11 1_555 1_555
U1C O2C 1_555 1_555
U1C_2 O4 1_555 1_555
U1A O6 1_555 1_555
U1B O12 1_555 1_555
U1B_2 O6C 1_555 1_555
Sm1C O1C 1_555 1_555
Sm1A O8 1_555 1_555
Sm1B O8C 1_555 1_555
O1C C10C 1_555 1_555
O2C C10C 1_555 1_555
O3C Sm1C 1_555 1_555
O4C U1 1_555 1_555
O4_2 U1C 1_555 1_555
O5C Sm1C 1_555 1_555
O6C C14C 1_555 1_555
O6A U1 1_555 1_555
O6B U1C 1_555 1_555
O7C Sm1C 1_555 1_555
O8C C16C 1_555 1_555
O8A Sm1 1_555 1_555
O8B Sm1C 1_555 1_555
O9C U1C 1_555 1_555
O10C U1C 1_555 1_555
O11B U1B 1_555 1_555
O11C U1C 1_555 1_555
O12B U1 1_555 1_555
O12A U1C 1_555 1_555
N1C Sm1C 1_555 1_555
N2C Sm1C 1_555 1_555
N3C Sm1C 1_555 1_555
N4C Sm1C 1_555 1_555
C1C N1C 1_555 1_555
H1C C1C 1_555 1_555
H2C C1C 1_555 1_555
C2C N2C 1_555 1_555
H3C C2C 1_555 1_555
H4C C2C 1_555 1_555
C3C N2C 1_555 1_555
H5C C3C 1_555 1_555
H6C C3C 1_555 1_555
C4C N3C 1_555 1_555
H7C C4C 1_555 1_555
H8C C4C 1_555 1_555
C5C N3C 1_555 1_555
H9C C5C 1_555 1_555
H10C C5C 1_555 1_555
C6C N4C 1_555 1_555
H11C C6C 1_555 1_555
H12C C6C 1_555 1_555
C7C N4C 1_555 1_555
H13C C7C 1_555 1_555
H14C C7C 1_555 1_555
C8C N1C 1_555 1_555
H15C C8C 1_555 1_555
H16C C8C 1_555 1_555
C9C N1C 1_555 1_555
H17C C9C 1_555 1_555
H18C C9C 1_555 1_555
C10C C9C 1_555 1_555
C11C N2C 1_555 1_555
H19C C11C 1_555 1_555
H20C C11C 1_555 1_555
C12C O3C 1_555 1_555
C13C N3C 1_555 1_555
H21C C13C 1_555 1_555
H22C C13C 1_555 1_555
C14C O5C 1_555 1_555
C15C N4C 1_555 1_555
H23C C15C 1_555 1_555
H24C C15C 1_555 1_555
C16C O7C 1_555 1_555
C17B C17 1_555 1_555
C1 C2 1_555 1_555
C3 C4 1_555 1_555
C5 C6 1_555 1_555
C7 C8 1_555 1_555
C11 C12 1_555 1_555
C13 C14 1_555 1_555
C15 C16 1_555 1_555
O4C C12C 1_555 1_555
O11B C17B 1_555 1_555
O12B C17B 1_555 1_555
C1C C2C 1_555 1_555
C3C C4C 1_555 1_555
C5C C6C 1_555 1_555
C7C C8C 1_555 1_555
C11C C12C 1_555 1_555
C13C C14C 1_555 1_555
C15C C16C 1_555 1_555

#END
