
#######################################################################
#
#                 Cambridge Crystallographic Data Centre
#                                CCDC 
#
#######################################################################
#
# If this CIF has been generated from an entry in the Cambridge 
# Structural Database, then it will include bibliographic, chemical, 
# crystal, experimental, refinement or atomic coordinate data resulting 
# from the CCDC's data processing and validation procedures.
#
#######################################################################

data_OGIZEK
_symmetry_cell_setting           monoclinic
_symmetry_space_group_name_H-M   'P 21/c'
_symmetry_Int_Tables_number      14
_space_group_name_Hall           '-P 2ybc'
loop_
_symmetry_equiv_pos_site_id
_symmetry_equiv_pos_as_xyz
1 x,y,z
2 -x,1/2+y,1/2-z
3 -x,-y,-z
4 x,1/2-y,1/2+z
_cell_length_a                   13.1694(13)
_cell_length_b                   8.6230(7)
_cell_length_c                   20.3522(14)
_cell_angle_alpha                90
_cell_angle_beta                 93.309(6)
_cell_angle_gamma                90
_cell_volume                     2307.34
loop_
_atom_site_label
_atom_site_type_symbol
_atom_site_fract_x
_atom_site_fract_y
_atom_site_fract_z
U1 U 0.18475(2) 0.67646(3) 0.074504(12)
Eu1 Eu 0.36600(3) 0.41806(4) 0.331034(15)
O1 O 0.2855(4) 0.5482(5) 0.2373(2)
O2 O 0.1545(4) 0.6767(5) 0.1878(2)
O3 O 0.3161(4) 0.6419(5) 0.3923(2)
O4 O 0.2848(4) 0.7622(5) 0.4851(2)
O5 O 0.5147(4) 0.3872(5) 0.4030(2)
O6 O 0.6664(4) 0.2941(5) 0.3828(2)
O7 O 0.4736(4) 0.3070(5) 0.2585(2)
O8 O 0.5184(4) 0.1237(5) 0.1894(2)
O9 O 0.2414(4) 0.4913(5) 0.0835(2)
O10 O 0.1230(4) 0.8587(5) 0.0655(2)
O11 O 0.0178(4) 0.5571(5) 0.0821(2)
O12 O -0.1071(4) 0.4174(6) 0.0315(2)
N1 N 0.1620(4) 0.4258(6) 0.3285(3)
N2 N 0.3016(4) 0.3520(6) 0.4468(3)
N3 N 0.4132(4) 0.1202(6) 0.3705(3)
N4 N 0.2768(4) 0.1938(6) 0.2544(3)
C1 C 0.1287(5) 0.4254(8) 0.3975(3)
H1 H 0.0573 0.3973 0.3972
H2 H 0.1360 0.5290 0.4158
C2 C 0.1900(5) 0.3132(7) 0.4404(3)
H3 H 0.1635 0.3123 0.4839
H4 H 0.1817 0.2097 0.4222
C3 C 0.3601(6) 0.2218(7) 0.4786(3)
H5 H 0.3278 0.1909 0.5182
H6 H 0.4283 0.2572 0.4914
C4 C 0.3667(6) 0.0825(8) 0.4336(3)
H7 H 0.4068 0.0024 0.4563
H8 H 0.2989 0.0414 0.4241
C5 C 0.3776(5) -0.0010(7) 0.3216(3)
H9 H 0.3736 -0.1004 0.3435
H10 H 0.4264 -0.0103 0.2878
C6 C 0.2745(6) 0.0405(7) 0.2899(3)
H11 H 0.2529 -0.0401 0.2589
H12 H 0.2254 0.0457 0.3235
C7 C 0.1717(5) 0.2389(8) 0.2338(3)
H13 H 0.1372 0.1514 0.2125
H14 H 0.1733 0.3224 0.2020
C8 C 0.1121(6) 0.2915(8) 0.2918(3)
H15 H 0.0442 0.3217 0.2758
H16 H 0.1058 0.2052 0.3218
C9 C 0.1333(5) 0.5726(8) 0.2943(3)
H17 H 0.1421 0.6585 0.3249
H18 H 0.0621 0.5684 0.2793
C10 C 0.1980(6) 0.6004(7) 0.2355(3)
C11 C 0.3169(5) 0.4885(7) 0.4896(3)
H19 H 0.3850 0.4852 0.5103
H20 H 0.2692 0.4839 0.5242
C12 C 0.3025(5) 0.6413(8) 0.4529(3)
C13 C 0.5260(5) 0.1172(7) 0.3774(3)
H21 H 0.5518 0.0732 0.3378
H22 H 0.5472 0.0504 0.4140
C14 C 0.5724(6) 0.2777(8) 0.3889(3)
C15 C 0.3396(5) 0.1799(8) 0.1961(3)
H23 H 0.3186 0.2579 0.1638
H24 H 0.3289 0.0787 0.1761
C16 C 0.4533(6) 0.2010(7) 0.2162(3)
C17 C -0.0270(6) 0.4909(8) 0.0326(3)
U1C U 0.18475(2) 0.82354(3) -0.425496(12)
U1C_2 U 0.18475(2) 0.82354(3) 0.574504(12)
U1A U 0.81525(2) 0.17646(3) 0.425496(12)
U1B U -0.18475(2) 0.32354(3) -0.074504(12)
U1B_2 U 0.81525(2) 1.32354(3) -0.074504(12)
Eu1C Eu 0.36600(3) 1.08194(4) -0.168966(15)
Eu1A Eu 0.63400(3) -0.08194(4) 0.168966(15)
Eu1B Eu 0.63400(3) 1.58194(4) -0.331034(15)
O1C O 0.2855(4) 0.9518(5) -0.2627(2)
O2C O 0.1545(4) 0.8233(5) -0.3122(2)
O3C O 0.3161(4) 0.8581(5) -0.1077(2)
O4C O 0.2848(4) 0.7378(5) -0.0149(2)
O4_2 O 0.2848(4) 0.7622(5) -0.5149(2)
O5C O 0.5147(4) 1.1128(5) -0.0970(2)
O6C O 0.6664(4) 1.2059(5) -0.1172(2)
O6A O 0.3336(4) 0.7941(5) 0.1172(2)
O6B O 0.3336(4) 0.7059(5) -0.3828(2)
O7C O 0.4736(4) 1.1930(5) -0.2415(2)
O8C O 0.5184(4) 1.3763(5) -0.3106(2)
O8A O 0.4816(4) 0.6237(5) 0.3106(2)
O8B O 0.4816(4) 0.8763(5) -0.1894(2)
O9C O 0.2414(4) 1.0087(5) -0.4165(2)
O10C O 0.1230(4) 0.6413(5) -0.4345(2)
O11B O -0.0178(4) 0.4429(5) -0.0821(2)
O11C O 0.0178(4) 0.9429(5) -0.4179(2)
O12B O 0.1071(4) 0.5826(6) -0.0315(2)
O12A O 0.1071(4) 0.9174(6) -0.5315(2)
N1C N 0.1620(4) 1.0742(6) -0.1715(3)
N2C N 0.3016(4) 1.1480(6) -0.0532(3)
N3C N 0.4132(4) 1.3798(6) -0.1295(3)
N4C N 0.2768(4) 1.3062(6) -0.2456(3)
C1C C 0.1287(5) 1.0746(8) -0.1025(3)
H1C H 0.0573 1.1027 -0.1028
H2C H 0.1360 0.9710 -0.0842
C2C C 0.1900(5) 1.1868(7) -0.0596(3)
H3C H 0.1635 1.1877 -0.0161
H4C H 0.1817 1.2903 -0.0778
C3C C 0.3601(6) 1.2782(7) -0.0214(3)
H5C H 0.3278 1.3091 0.0182
H6C H 0.4283 1.2428 -0.0086
C4C C 0.3667(6) 1.4175(8) -0.0664(3)
H7C H 0.4068 1.4976 -0.0437
H8C H 0.2989 1.4586 -0.0759
C5C C 0.3776(5) 1.5010(7) -0.1784(3)
H9C H 0.3736 1.6004 -0.1565
H10C H 0.4264 1.5103 -0.2122
C6C C 0.2745(6) 1.4595(7) -0.2101(3)
H11C H 0.2529 1.5401 -0.2411
H12C H 0.2254 1.4543 -0.1765
C7C C 0.1717(5) 1.2611(8) -0.2662(3)
H13C H 0.1372 1.3486 -0.2875
H14C H 0.1733 1.1776 -0.2980
C8C C 0.1121(6) 1.2085(8) -0.2082(3)
H15C H 0.0442 1.1783 -0.2242
H16C H 0.1058 1.2948 -0.1782
C9C C 0.1333(5) 0.9274(8) -0.2057(3)
H17C H 0.1421 0.8415 -0.1751
H18C H 0.0621 0.9316 -0.2207
C10C C 0.1980(6) 0.8996(7) -0.2645(3)
C11C C 0.3169(5) 1.0115(7) -0.0104(3)
H19C H 0.3850 1.0148 0.0103
H20C H 0.2692 1.0161 0.0242
C12C C 0.3025(5) 0.8587(8) -0.0471(3)
C13C C 0.5260(5) 1.3828(7) -0.1226(3)
H21C H 0.5518 1.4268 -0.1622
H22C H 0.5472 1.4496 -0.0860
C14C C 0.5724(6) 1.2223(8) -0.1111(3)
C15C C 0.3396(5) 1.3201(8) -0.3039(3)
H23C H 0.3186 1.2421 -0.3362
H24C H 0.3289 1.4213 -0.3239
C16C C 0.4533(6) 1.2990(7) -0.2838(3)
C17B C 0.0270(6) 0.5091(8) -0.0326(3)
loop_
_geom_bond_atom_site_label_1
_geom_bond_atom_site_label_2
_geom_bond_site_symmetry_1
_geom_bond_site_symmetry_2
U1 O2 1_555 1_555
Eu1 O1 1_555 1_555
O1 C10 1_555 1_555
O2 C10 1_555 1_555
O3 Eu1 1_555 1_555
O4 C12 1_555 1_555
O5 Eu1 1_555 1_555
O6 C14 1_555 1_555
O7 Eu1 1_555 1_555
O8 C16 1_555 1_555
O9 U1 1_555 1_555
O10 U1 1_555 1_555
O11 U1 1_555 1_555
O12 C17 1_555 1_555
N1 Eu1 1_555 1_555
N2 Eu1 1_555 1_555
N3 Eu1 1_555 1_555
N4 Eu1 1_555 1_555
C1 N1 1_555 1_555
H1 C1 1_555 1_555
H2 C1 1_555 1_555
C2 N2 1_555 1_555
H3 C2 1_555 1_555
H4 C2 1_555 1_555
C3 N2 1_555 1_555
H5 C3 1_555 1_555
H6 C3 1_555 1_555
C4 N3 1_555 1_555
H7 C4 1_555 1_555
H8 C4 1_555 1_555
C5 N3 1_555 1_555
H9 C5 1_555 1_555
H10 C5 1_555 1_555
C6 N4 1_555 1_555
H11 C6 1_555 1_555
H12 C6 1_555 1_555
C7 N4 1_555 1_555
H13 C7 1_555 1_555
H14 C7 1_555 1_555
C8 N1 1_555 1_555
H15 C8 1_555 1_555
H16 C8 1_555 1_555
C9 N1 1_555 1_555
H17 C9 1_555 1_555
H18 C9 1_555 1_555
C10 C9 1_555 1_555
C11 N2 1_555 1_555
H19 C11 1_555 1_555
H20 C11 1_555 1_555
C12 O3 1_555 1_555
C13 N3 1_555 1_555
H21 C13 1_555 1_555
H22 C13 1_555 1_555
C14 O5 1_555 1_555
C15 N4 1_555 1_555
H23 C15 1_555 1_555
H24 C15 1_555 1_555
C16 O7 1_555 1_555
C17 O11 1_555 1_555
U1C O2C 1_555 1_555
U1C_2 O4 1_555 1_555
U1A O6 1_555 1_555
U1B O12 1_555 1_555
U1B_2 O6C 1_555 1_555
Eu1C O1C 1_555 1_555
Eu1A O8 1_555 1_555
Eu1B O8C 1_555 1_555
O1C C10C 1_555 1_555
O2C C10C 1_555 1_555
O3C Eu1C 1_555 1_555
O4C U1 1_555 1_555
O4_2 U1C 1_555 1_555
O5C Eu1C 1_555 1_555
O6C C14C 1_555 1_555
O6A U1 1_555 1_555
O6B U1C 1_555 1_555
O7C Eu1C 1_555 1_555
O8C C16C 1_555 1_555
O8A Eu1 1_555 1_555
O8B Eu1C 1_555 1_555
O9C U1C 1_555 1_555
O10C U1C 1_555 1_555
O11B U1B 1_555 1_555
O11C U1C 1_555 1_555
O12B U1 1_555 1_555
O12A U1C 1_555 1_555
N1C Eu1C 1_555 1_555
N2C Eu1C 1_555 1_555
N3C Eu1C 1_555 1_555
N4C Eu1C 1_555 1_555
C1C N1C 1_555 1_555
H1C C1C 1_555 1_555
H2C C1C 1_555 1_555
C2C N2C 1_555 1_555
H3C C2C 1_555 1_555
H4C C2C 1_555 1_555
C3C N2C 1_555 1_555
H5C C3C 1_555 1_555
H6C C3C 1_555 1_555
C4C N3C 1_555 1_555
H7C C4C 1_555 1_555
H8C C4C 1_555 1_555
C5C N3C 1_555 1_555
H9C C5C 1_555 1_555
H10C C5C 1_555 1_555
C6C N4C 1_555 1_555
H11C C6C 1_555 1_555
H12C C6C 1_555 1_555
C7C N4C 1_555 1_555
H13C C7C 1_555 1_555
H14C C7C 1_555 1_555
C8C N1C 1_555 1_555
H15C C8C 1_555 1_555
H16C C8C 1_555 1_555
C9C N1C 1_555 1_555
H17C C9C 1_555 1_555
H18C C9C 1_555 1_555
C10C C9C 1_555 1_555
C11C N2C 1_555 1_555
H19C C11C 1_555 1_555
H20C C11C 1_555 1_555
C12C O3C 1_555 1_555
C13C N3C 1_555 1_555
H21C C13C 1_555 1_555
H22C C13C 1_555 1_555
C14C O5C 1_555 1_555
C15C N4C 1_555 1_555
H23C C15C 1_555 1_555
H24C C15C 1_555 1_555
C16C O7C 1_555 1_555
C17B C17 1_555 1_555
C1 C2 1_555 1_555
C3 C4 1_555 1_555
C5 C6 1_555 1_555
C7 C8 1_555 1_555
C11 C12 1_555 1_555
C13 C14 1_555 1_555
C15 C16 1_555 1_555
O4C C12C 1_555 1_555
O11B C17B 1_555 1_555
O12B C17B 1_555 1_555
C1C C2C 1_555 1_555
C3C C4C 1_555 1_555
C5C C6C 1_555 1_555
C7C C8C 1_555 1_555
C11C C12C 1_555 1_555
C13C C14C 1_555 1_555
C15C C16C 1_555 1_555

#END
