
#######################################################################
#
#                 Cambridge Crystallographic Data Centre
#                                CCDC 
#
#######################################################################
#
# If this CIF has been generated from an entry in the Cambridge 
# Structural Database, then it will include bibliographic, chemical, 
# crystal, experimental, refinement or atomic coordinate data resulting 
# from the CCDC's data processing and validation procedures.
#
#######################################################################

data_OGODUJ
_symmetry_cell_setting           monoclinic
_symmetry_space_group_name_H-M   'P 2/c'
_symmetry_Int_Tables_number      13
_space_group_name_Hall           '-P 2yc'
loop_
_symmetry_equiv_pos_site_id
_symmetry_equiv_pos_as_xyz
1 x,y,z
2 x,-y,1/2+z
3 -x,-y,-z
4 -x,y,1/2-z
_cell_length_a                   13.071(3)
_cell_length_b                   19.853(4)
_cell_length_c                   12.082(3)
_cell_angle_alpha                90.00
_cell_angle_beta                 103.149(4)
_cell_angle_gamma                90.00
_cell_volume                     3053.06
loop_
_atom_site_label
_atom_site_type_symbol
_atom_site_fract_x
_atom_site_fract_y
_atom_site_fract_z
C33 C 0.471(4) 0.275(3) 0.384(6)
C35 C 0.356(4) 0.317(2) 0.503(4)
C40 C 0.343(3) 0.2901(18) 0.710(3)
C42 C 0.466(3) 0.282(2) 0.522(5)
C43 C 0.492(4) 0.248(2) 0.617(5)
C44 C 0.324(3) 0.320(2) 0.581(4)
C45 C 0.449(4) 0.241(2) 0.704(6)
C46 C 0.209(3) 0.3559(13) 0.566(3)
C45C C 0.551(4) 0.241(2) 0.796(6)
C40C C 0.657(3) 0.2901(18) 0.790(3)
C44C C 0.676(3) 0.320(2) 0.919(4)
C35C C 0.644(4) 0.317(2) 0.997(4)
C42C C 0.534(3) 0.282(2) 0.978(5)
C33C C 0.529(4) 0.275(3) 1.116(6)
C43C C 0.508(4) 0.248(2) 0.883(5)
C46C C 0.791(3) 0.3559(13) 0.934(3)
Ni1 Ni 0.0000 0.13117(3) 0.7500
O1 O 0.2421(4) 0.1617(3) 0.9854(6)
O2 O 0.2063(3) 0.0590(2) 0.9740(4)
O3 O 0.0834(2) 0.13389(15) 0.9202(2)
N1 N 0.1799(3) 0.1180(2) 0.9602(3)
N2 N 0.0000 0.2372(2) 0.7500
N3 N 0.0000 1.0269(2) 0.7500
C1 C -0.0778(4) 0.2719(2) 0.6839(6)
H1 H -0.1347 0.2478 0.6380
C2 C -0.0792(5) 0.3411(3) 0.6793(9)
H2 H -0.1342 0.3637 0.6279
C3 C 0.0000 0.3778(4) 0.7500
C4 C 0.0000 0.4530(5) 0.7500
C7 C -0.0079(17) 0.5581(8) 0.6490(13)
C8 C -0.0111(15) 0.4886(7) 0.6478(13)
C11 C 0.0000 0.5947(4) 0.7500
C12 C 0.0000 0.6704(4) 0.7500
C13 C 0.0562(6) 0.7057(3) 0.6828(7)
H9 H 0.0940 0.6819 0.6367
C14 C 0.0563(5) 0.7751(2) 0.6840(5)
H10 H 0.0953 0.7989 0.6392
C15 C 0.0000 0.8109(3) 0.7500
C16 C 0.0105(3) 0.99138(19) 0.6587(3)
H11 H 0.0169 1.0153 0.5926
C17 C 0.0124(3) 0.92222(19) 0.6559(3)
H12 H 0.0222 0.8996 0.5898
C18 C 0.0000 0.8852(3) 0.7500
N4 N -0.1346(3) 0.13103(16) 0.8211(3)
C19 C -0.1318(3) 0.1710(2) 0.9116(4)
H13 H -0.0806 0.2058 0.9266
C20 C -0.1984(3) 0.1644(2) 0.9834(4)
H14 H -0.1925 0.1940 1.0463
C21 C -0.2748(3) 0.1143(2) 0.9642(4)
C22 C -0.2817(3) 0.0749(2) 0.8678(4)
H15 H -0.3345 0.0413 0.8488
C23 C -0.2114(3) 0.0849(2) 0.7995(4)
H16 H -0.2179 0.0576 0.7337
C24 C -0.3413(3) 0.1028(2) 1.0471(4)
C25 C -0.4475(4) 0.0861(3) 1.0137(4)
H17 H -0.4781 0.0782 0.9357
C26 C -0.5082(3) 0.0811(3) 1.0921(4)
H18 H -0.5806 0.0706 1.0668
C27 C -0.4669(3) 0.0909(3) 1.2078(4)
C28 C -0.3600(4) 0.1049(3) 1.2408(4)
H19 H -0.3286 0.1105 1.3193
C29 C -0.2984(4) 0.1110(3) 1.1628(4)
H20 H -0.2258 0.1209 1.1883
C2C C 0.0792(5) 0.3411(3) 0.8207(9)
C1C C 0.0778(4) 0.2719(2) 0.8161(6)
H1C H 0.1347 0.2478 0.8620
H2C H 0.1342 0.3637 0.8721
C7C C 0.0079(17) 0.5581(8) 0.8510(13)
C8C C 0.0111(15) 0.4886(7) 0.8522(13)
C14C C -0.0563(5) 0.7751(2) 0.8160(5)
C13C C -0.0562(6) 0.7057(3) 0.8172(7)
H9C H -0.0940 0.6819 0.8633
H10C H -0.0953 0.7989 0.8608
C16C C -0.0105(3) 0.99138(19) 0.8413(3)
H11C H -0.0169 1.0153 0.9074
C17C C -0.0124(3) 0.92222(19) 0.8441(3)
H12C H -0.0222 0.8996 0.9102
C27C C -0.5331(3) 0.0909(3) 1.2922(4)
C26C C -0.4918(3) 0.0811(3) 1.4079(4)
C25C C -0.5525(4) 0.0861(3) 1.4863(4)
C24C C -0.6587(3) 0.1028(2) 1.4529(4)
C21C C -0.7252(3) 0.1143(2) 1.5358(4)
C20C C -0.8016(3) 0.1644(2) 1.5166(4)
C19C C -0.8682(3) 0.1710(2) 1.5884(4)
N4C N -0.8654(3) 0.13103(16) 1.6789(3)
C23C C -0.7886(3) 0.0849(2) 1.7005(4)
C22C C -0.7183(3) 0.0749(2) 1.6322(4)
H15C H -0.6655 0.0413 1.6512
H16C H -0.7821 0.0576 1.7663
H13C H -0.9194 0.2058 1.5734
H14C H -0.8075 0.1940 1.4537
C29C C -0.7016(4) 0.1110(3) 1.3372(4)
C28C C -0.6400(4) 0.1049(3) 1.2592(4)
H19C H -0.6714 0.1105 1.1807
H20C H -0.7742 0.1209 1.3117
H17C H -0.5219 0.0782 1.5643
H18C H -0.4194 0.0706 1.4332
O1C O -0.2421(4) 0.1617(3) 0.5146(6)
O2C O -0.2063(3) 0.0590(2) 0.5260(4)
O3C O -0.0834(2) 0.13389(15) 0.5798(2)
N1C N -0.1799(3) 0.1180(2) 0.5398(3)
N3_2 N 0.0000 0.0269(2) 0.7500
N4C_2 N 0.1346(3) 0.13103(16) 0.6789(3)
Ni1_2 Ni 0.0000 1.13117(3) 0.7500
Ni1_3 Ni -1.0000 0.13117(3) 1.7500
C5? C -0.0973(14) 0.4903(7) 0.8020(14)
H3? H -0.1485 0.4657 0.8299
C6? C 0.0940(14) 0.5592(6) 0.7006(15)
H4? H 0.1444 0.5856 0.6747
H5? H -0.0112 0.5817 0.5799
H6? H -0.0207 0.4649 0.5779
C9? C -0.0867(14) 0.4890(7) 0.6964(14)
H7? H -0.1475 0.4654 0.6575
C10? C -0.0880(14) 0.5594(6) 0.6974(13)
H8? H -0.1499 0.5830 0.6615
C30? C 0.403(3) 0.237(2) 0.854(2)
C31? C 0.378(3) 0.532(2) 0.822(3)
C32? C 0.346(3) 0.3345(18) 0.230(3)
C34? C 0.391(2) 0.308(2) 0.872(3)
C36? C 0.389(2) 0.448(2) 0.854(2)
C37? C 0.302(4) 0.387(3) 0.113(6)
C38? C 0.333(4) 0.409(3) 0.006(5)
C39? C 0.353(5) 0.318(3) 0.016(5)
C41? C 0.395(3) 0.367(2) 0.861(3)
C47? C 0.287(7) 0.357(4) 0.495(7)
C48? C 0.338(4) 0.322(2) 0.384(5)
loop_
_geom_bond_atom_site_label_1
_geom_bond_atom_site_label_2
_geom_bond_site_symmetry_1
_geom_bond_site_symmetry_2
Ni1 O3 1_555 1_555
O1 N1 1_555 1_555
O2 N1 1_555 1_555
O3 N1 1_555 1_555
N2 Ni1 1_555 1_555
N3 C16 1_555 1_555
C1 N2 1_555 1_555
H1 C1 1_555 1_555
C2 C1 1_555 1_555
H2 C2 1_555 1_555
C3 C2 1_555 1_555
C4 C3 1_555 1_555
C7 C8 1_555 1_555
C8 C4 1_555 1_555
C11 C7 1_555 1_555
C12 C11 1_555 1_555
C13 C12 1_555 1_555
H9 C13 1_555 1_555
C14 C13 1_555 1_555
H10 C14 1_555 1_555
C15 C14 1_555 1_555
C16 H11 1_555 1_555
C17 C16 1_555 1_555
H12 C17 1_555 1_555
C18 C15 1_555 1_555
N4 Ni1 1_555 1_555
C19 N4 1_555 1_555
H13 C19 1_555 1_555
C20 C19 1_555 1_555
H14 C20 1_555 1_555
C21 C20 1_555 1_555
C22 C21 1_555 1_555
H15 C22 1_555 1_555
C23 N4 1_555 1_555
H16 C23 1_555 1_555
C24 C21 1_555 1_555
C25 C24 1_555 1_555
H17 C25 1_555 1_555
C26 C25 1_555 1_555
H18 C26 1_555 1_555
C27 C26 1_555 1_555
C28 C27 1_555 1_555
H19 C28 1_555 1_555
C29 C24 1_555 1_555
H20 C29 1_555 1_555
C33 C42 1_555 1_555
C35 C42 1_555 1_555
C40 C44 1_555 1_555
C42 C43 1_555 1_555
C43 C45 1_555 1_555
C44 C35 1_555 1_555
C45 C40 1_555 1_555
C46 C44 1_555 1_555
C2C C3 1_555 1_555
C1C N2 1_555 1_555
H1C C1C 1_555 1_555
H2C C2C 1_555 1_555
C7C C11 1_555 1_555
C8C C4 1_555 1_555
C14C C15 1_555 1_555
C13C C12 1_555 1_555
H9C C13C 1_555 1_555
H10C C14C 1_555 1_555
C16C N3 1_555 1_555
H11C C16C 1_555 1_555
C17C C18 1_555 1_555
H12C C17C 1_555 1_555
C27C C27 1_555 1_555
C26C C27C 1_555 1_555
C25C C26C 1_555 1_555
C24C C25C 1_555 1_555
C21C C24C 1_555 1_555
C20C C21C 1_555 1_555
C19C C20C 1_555 1_555
N4C C19C 1_555 1_555
C23C N4C 1_555 1_555
C22C C21C 1_555 1_555
H15C C22C 1_555 1_555
H16C C23C 1_555 1_555
H13C C19C 1_555 1_555
H14C C20C 1_555 1_555
C29C C24C 1_555 1_555
C28C C27C 1_555 1_555
H19C C28C 1_555 1_555
H20C C29C 1_555 1_555
H17C C25C 1_555 1_555
H18C C26C 1_555 1_555
C45C C45 1_555 1_555
C40C C45C 1_555 1_555
C44C C40C 1_555 1_555
C35C C44C 1_555 1_555
C42C C35C 1_555 1_555
C33C C42C 1_555 1_555
C43C C45C 1_555 1_555
C46C C44C 1_555 1_555
O1C N1C 1_555 1_555
O2C N1C 1_555 1_555
O3C Ni1 1_555 1_555
N1C O3C 1_555 1_555
N3_2 Ni1 1_555 1_555
N4C_2 Ni1 1_555 1_555
Ni1_2 N3 1_555 1_555
Ni1_3 N4C 1_555 1_555
C17 C18 1_555 1_555
C22 C23 1_555 1_555
C28 C29 1_555 1_555
C2C C1C 1_555 1_555
C7C C8C 1_555 1_555
C14C C13C 1_555 1_555
C16C C17C 1_555 1_555
C23C C22C 1_555 1_555
C29C C28C 1_555 1_555
C42C C43C 1_555 1_555

#END
