
#######################################################################
#
#                 Cambridge Crystallographic Data Centre
#                                CCDC 
#
#######################################################################
#
# If this CIF has been generated from an entry in the Cambridge 
# Structural Database, then it will include bibliographic, chemical, 
# crystal, experimental, refinement or atomic coordinate data resulting 
# from the CCDC's data processing and validation procedures.
#
#######################################################################

data_OGODOD
_symmetry_cell_setting           monoclinic
_symmetry_space_group_name_H-M   'C 2/c'
_symmetry_Int_Tables_number      15
_space_group_name_Hall           '-C 2yn'
loop_
_symmetry_equiv_pos_site_id
_symmetry_equiv_pos_as_xyz
1 x,y,z
2 1/2+x,1/2+y,z
3 x,-y,1/2+z
4 1/2+x,1/2-y,1/2+z
5 -x,-y,-z
6 1/2-x,1/2-y,-z
7 -x,y,1/2-z
8 1/2-x,1/2+y,1/2-z
_cell_length_a                   27.187(3)
_cell_length_b                   19.962(2)
_cell_length_c                   12.6845(14)
_cell_angle_alpha                90
_cell_angle_beta                 106.923(2)
_cell_angle_gamma                90
_cell_volume                     6585.87
loop_
_atom_site_label
_atom_site_type_symbol
_atom_site_fract_x
_atom_site_fract_y
_atom_site_fract_z
Ni1 Ni 0.5000 0.73923(2) 0.7500
N1 N 0.59543(11) 0.71799(16) 0.6617(2)
O1 O 0.6131(2) 0.7194(4) 0.5887(4)
O2 O 0.62839(14) 0.7090(2) 0.7494(4)
O3 O 0.55340(8) 0.74263(10) 0.6583(2)
N2 N 0.5000 0.63383(15) 0.7500
C1 C 0.45641(11) 0.59856(13) 0.7101(2)
H1 H 0.4251 0.6225 0.6821
C2 C 0.45472(11) 0.52957(13) 0.7078(3)
H2 H 0.4230 0.5069 0.6778
C3 C 0.5000 0.49330(18) 0.7500
C4 C 0.5000 0.41872(18) 0.7500
C5 C 0.47122(11) 0.38338(13) 0.6581(2)
H3 H 0.4512 0.4070 0.5952
C6 C 0.47165(10) 0.31367(13) 0.6578(2)
H4 H 0.4524 0.2901 0.5940
C7 C 0.5000 0.27805(17) 0.7500
C8 C 0.5000 0.20316(17) 0.7500
C9 C 0.50085(12) 0.16741(13) 0.6564(3)
H5 H 0.5008 0.1909 0.5913
C10 C 0.50176(13) 0.09802(14) 0.6569(3)
H6 H 0.5036 0.0747 0.5928
C11 C 0.5000 0.06155(18) 0.7500
N3 N 0.5000 -0.15392(14) 0.7500
C12 C 0.47822(11) -0.11872(14) 0.8139(3)
H7 H 0.4628 -0.1426 0.8608
C13 C 0.47686(12) -0.04931(14) 0.8157(3)
H8 H 0.4601 -0.0270 0.8617
C14 C 0.5000 -0.01229(18) 0.7500
N4 N 0.44372(8) 0.74146(10) 0.59611(19)
C15 C 0.40122(11) 0.77973(14) 0.5772(2)
H9 H 0.3962 0.8054 0.6363
C16 C 0.36451(11) 0.78325(15) 0.4756(2)
H10 H 0.3348 0.8102 0.4665
C17 C 0.37111(11) 0.74717(13) 0.3863(2)
C18 C 0.41481(11) 0.70737(14) 0.4077(2)
H11 H 0.4208 0.6810 0.3504
C19 C 0.44974(10) 0.70568(13) 0.5122(2)
H12 H 0.4792 0.6778 0.5243
C20 C 0.33484(11) 0.75075(14) 0.2747(2)
C21 C 0.28171(12) 0.75635(18) 0.2545(3)
H13 H 0.2679 0.7601 0.3149
C22 C 0.24915(12) 0.75650(19) 0.1491(3)
H14 H 0.2132 0.7601 0.1382
C23 C 0.26747(11) 0.75151(14) 0.0573(2)
C24 C 0.32072(12) 0.7495(2) 0.0779(3)
H15 H 0.3349 0.7488 0.0176
C25 C 0.35311(12) 0.74843(19) 0.1835(3)
H16 H 0.3891 0.7461 0.1944
C2F C 0.54528(11) 0.52957(13) 0.7922(3)
C1F C 0.54359(11) 0.59856(13) 0.7899(2)
H1F H 0.5749 0.6225 0.8179
H2F H 0.5770 0.5069 0.8222
C6F C 0.52835(10) 0.31367(13) 0.8422(2)
C5F C 0.52878(11) 0.38338(13) 0.8419(2)
H3F H 0.5488 0.4070 0.9048
H4F H 0.5476 0.2901 0.9060
C10F C 0.49824(13) 0.09802(14) 0.8431(3)
C9F C 0.49915(12) 0.16741(13) 0.8436(3)
H5F H 0.4992 0.1909 0.9087
H6F H 0.4964 0.0747 0.9072
C12F C 0.52178(11) -0.11872(14) 0.6861(3)
H7F H 0.5372 -0.1426 0.6392
C13F C 0.52314(12) -0.04931(14) 0.6843(3)
H8F H 0.5399 -0.0270 0.6383
C23E C 0.23253(11) 0.74849(14) -0.0573(2)
C22E C 0.25085(12) 0.74350(19) -0.1491(3)
C21E C 0.21829(12) 0.74365(18) -0.2545(3)
C20E C 0.16516(11) 0.74925(14) -0.2747(2)
C17E C 0.12889(11) 0.75283(13) -0.3863(2)
C16E C 0.13549(11) 0.71675(15) -0.4756(2)
C15E C 0.09878(11) 0.72027(14) -0.5772(2)
N4E N 0.05628(8) 0.75854(10) -0.59611(19)
C19E C 0.05026(10) 0.79432(13) -0.5122(2)
C18E C 0.08519(11) 0.79263(14) -0.4077(2)
H11E H 0.0792 0.8190 -0.3504
H12E H 0.0208 0.8222 -0.5243
H9E H 0.1038 0.6946 -0.6363
H10E H 0.1652 0.6898 -0.4665
C25E C 0.14689(12) 0.75157(19) -0.1835(3)
C24E C 0.17928(12) 0.7505(2) -0.0779(3)
H15E H 0.1651 0.7512 -0.0176
H16E H 0.1109 0.7539 -0.1944
H13E H 0.2321 0.7399 -0.3149
H14E H 0.2868 0.7399 -0.1382
N1F N 0.40457(11) 0.71799(16) 0.8383(2)
O1F O 0.3869(2) 0.7194(4) 0.9113(4)
O2F O 0.37161(14) 0.7090(2) 0.7506(4)
O3F O 0.44660(8) 0.74263(10) 0.8417(2)
N3_2 N 0.5000 0.84608(14) 0.7500
N4F N 0.55628(8) 0.74146(10) 0.90389(19)
Ni1_2 Ni 0.5000 -0.26077(2) 0.7500
Ni1C Ni 0.0000 0.76077(2) -0.7500
C26 C 0.33552(16) 0.9391(2) 0.7841(5)
C27 C 0.33734(18) 1.0068(2) 0.7807(5)
C28 C 0.3635(3) 1.0410(4) 0.8739(8)
H17 H 0.3665 1.0883 0.8723
C29 C 0.3855(3) 1.0059(9) 0.9708(10)
H18 H 0.4020 1.0296 1.0365
C30 C 0.3836(4) 0.9391(11) 0.9723(10)
H19 H 0.4004 0.9154 1.0378
C31 C 0.3590(2) 0.9068(4) 0.8853(8)
H20 H 0.3566 0.8594 0.8892
C32 C 0.3070(2) 0.8981(4) 0.6850(7)
H21 H 0.3103 0.8504 0.7041
H22 H 0.3217 0.9066 0.6243
H23 H 0.2706 0.9108 0.6625
C33 C 0.3104(3) 1.0455(4) 0.6793(7)
H24 H 0.3163 1.0935 0.6935
H25 H 0.2734 1.0362 0.6593
H26 H 0.3238 1.0321 0.6186
C34 C 0.31097(15) 0.4527(2) 0.0549(4)
C35 C 0.30957(16) 0.5231(2) 0.0592(4)
C36 C 0.33485(17) 0.5591(2) -0.0031(4)
H27 H 0.3343 0.6067 -0.0011
C37 C 0.36074(18) 0.5275(3) -0.0675(4)
H28 H 0.3773 0.5530 -0.1106
C38 C 0.3622(2) 0.4579(3) -0.0687(5)
H29 H 0.3805 0.4355 -0.1117
C39 C 0.33761(18) 0.4220(3) -0.0084(5)
H30 H 0.3389 0.3745 -0.0101
C40 C 0.2844(2) 0.4115(3) 0.1211(6)
H31 H 0.2670 0.4413 0.1602
H32 H 0.3098 0.3843 0.1746
H33 H 0.2591 0.3821 0.0718
C41 C 0.2812(2) 0.5591(3) 0.1265(5)
H34 H 0.2655 0.5265 0.1646
H35 H 0.2542 0.5870 0.0782
H36 H 0.3051 0.5876 0.1809
loop_
_geom_bond_atom_site_label_1
_geom_bond_atom_site_label_2
_geom_bond_site_symmetry_1
_geom_bond_site_symmetry_2
Ni1 O3 1_555 1_555
N1 O1 1_555 1_555
O2 N1 1_555 1_555
O3 N1 1_555 1_555
N2 Ni1 1_555 1_555
C1 N2 1_555 1_555
H1 C1 1_555 1_555
C2 C1 1_555 1_555
H2 C2 1_555 1_555
C3 C2 1_555 1_555
C4 C3 1_555 1_555
C5 C4 1_555 1_555
H3 C5 1_555 1_555
C6 C5 1_555 1_555
H4 C6 1_555 1_555
C7 C6 1_555 1_555
C8 C7 1_555 1_555
C9 C8 1_555 1_555
H5 C9 1_555 1_555
C10 C9 1_555 1_555
H6 C10 1_555 1_555
C11 C10 1_555 1_555
N3 C12 1_555 1_555
C12 H7 1_555 1_555
C13 C12 1_555 1_555
H8 C13 1_555 1_555
C14 C11 1_555 1_555
N4 Ni1 1_555 1_555
C15 N4 1_555 1_555
H9 C15 1_555 1_555
C16 C15 1_555 1_555
H10 C16 1_555 1_555
C17 C16 1_555 1_555
C18 C17 1_555 1_555
H11 C18 1_555 1_555
C19 N4 1_555 1_555
H12 C19 1_555 1_555
C20 C17 1_555 1_555
C21 C20 1_555 1_555
H13 C21 1_555 1_555
C22 C21 1_555 1_555
H14 C22 1_555 1_555
C23 C22 1_555 1_555
C24 C23 1_555 1_555
H15 C24 1_555 1_555
C25 C20 1_555 1_555
H16 C25 1_555 1_555
C26 C27 1_555 1_555
C27 C28 1_555 1_555
C28 H17 1_555 1_555
C29 C28 1_555 1_555
H18 C29 1_555 1_555
C30 C29 1_555 1_555
H19 C30 1_555 1_555
C31 C26 1_555 1_555
H20 C31 1_555 1_555
C32 C26 1_555 1_555
H21 C32 1_555 1_555
H22 C32 1_555 1_555
H23 C32 1_555 1_555
C33 C27 1_555 1_555
H24 C33 1_555 1_555
H25 C33 1_555 1_555
H26 C33 1_555 1_555
C34 C35 1_555 1_555
C35 C36 1_555 1_555
C36 H27 1_555 1_555
C37 C36 1_555 1_555
H28 C37 1_555 1_555
C38 C37 1_555 1_555
H29 C38 1_555 1_555
C39 C34 1_555 1_555
H30 C39 1_555 1_555
C40 C34 1_555 1_555
H31 C40 1_555 1_555
H32 C40 1_555 1_555
H33 C40 1_555 1_555
C41 C35 1_555 1_555
H34 C41 1_555 1_555
H35 C41 1_555 1_555
H36 C41 1_555 1_555
C2F C3 1_555 1_555
C1F N2 1_555 1_555
H1F C1F 1_555 1_555
H2F C2F 1_555 1_555
C6F C7 1_555 1_555
C5F C4 1_555 1_555
H3F C5F 1_555 1_555
H4F C6F 1_555 1_555
C10F C11 1_555 1_555
C9F C8 1_555 1_555
H5F C9F 1_555 1_555
H6F C10F 1_555 1_555
C12F N3 1_555 1_555
H7F C12F 1_555 1_555
C13F C14 1_555 1_555
H8F C13F 1_555 1_555
C23E C23 1_555 1_555
C22E C23E 1_555 1_555
C21E C22E 1_555 1_555
C20E C21E 1_555 1_555
C17E C20E 1_555 1_555
C16E C17E 1_555 1_555
C15E C16E 1_555 1_555
N4E C15E 1_555 1_555
C19E N4E 1_555 1_555
C18E C17E 1_555 1_555
H11E C18E 1_555 1_555
H12E C19E 1_555 1_555
H9E C15E 1_555 1_555
H10E C16E 1_555 1_555
C25E C20E 1_555 1_555
C24E C23E 1_555 1_555
H15E C24E 1_555 1_555
H16E C25E 1_555 1_555
H13E C21E 1_555 1_555
H14E C22E 1_555 1_555
N1F O1F 1_555 1_555
O2F N1F 1_555 1_555
O3F Ni1 1_555 1_555
N3_2 Ni1 1_555 1_555
N4F Ni1 1_555 1_555
Ni1_2 N3 1_555 1_555
Ni1C N4E 1_555 1_555
C13 C14 1_555 1_555
C18 C19 1_555 1_555
C24 C25 1_555 1_555
C30 C31 1_555 1_555
C38 C39 1_555 1_555
C2F C1F 1_555 1_555
C6F C5F 1_555 1_555
C10F C9F 1_555 1_555
C12F C13F 1_555 1_555
C19E C18E 1_555 1_555
C25E C24E 1_555 1_555
N1F O3F 1_555 1_555

#END
