
#######################################################################
#
#                 Cambridge Crystallographic Data Centre
#                                CCDC 
#
#######################################################################
#
# If this CIF has been generated from an entry in the Cambridge 
# Structural Database, then it will include bibliographic, chemical, 
# crystal, experimental, refinement or atomic coordinate data resulting 
# from the CCDC's data processing and validation procedures.
#
#######################################################################

data_OGOLOL
_symmetry_cell_setting           monoclinic
_symmetry_space_group_name_H-M   'P 21/n'
_symmetry_Int_Tables_number      14
_space_group_name_Hall           '-P 2yn'
loop_
_symmetry_equiv_pos_site_id
_symmetry_equiv_pos_as_xyz
1 x,y,z
2 1/2+x,1/2-y,1/2+z
3 -x,-y,-z
4 1/2-x,1/2+y,1/2-z
_cell_length_a                   5.432(2)
_cell_length_b                   10.860(5)
_cell_length_c                   18.009(8)
_cell_angle_alpha                90
_cell_angle_beta                 98.486(6)
_cell_angle_gamma                90
_cell_volume                     1050.75
loop_
_atom_site_label
_atom_site_type_symbol
_atom_site_fract_x
_atom_site_fract_y
_atom_site_fract_z
Ag1 Ag -0.00436(7) 0.95099(3) 0.775873(18)
N1 N 0.0490(5) 0.7812(3) 0.69921(16)
N2 N 0.2589(6) 0.5994(3) 0.67317(17)
N3 N -0.2891(6) 0.9626(3) 0.66262(18)
N4 N -0.2774(7) 0.8318(3) 0.8940(2)
O1 O -0.3454(7) 0.8437(4) 0.82578(19)
O2 O -0.0739(8) 0.8717(4) 0.9199(2)
O3 O -0.4132(8) 0.7830(4) 0.9336(2)
C1 C 0.2275(7) 0.6988(3) 0.7135(2)
H1 H 0.3435 0.7117 0.7562
C2 C 0.0931(8) 0.5841(4) 0.6113(2)
H2 H 0.1088 0.5163 0.5807
C3 C -0.0983(7) 0.6643(3) 0.5914(2)
H3 H -0.2113 0.6523 0.5479
C4 C -0.1195(6) 0.7641(3) 0.63776(19)
C5 C -0.3192(7) 0.8588(3) 0.62153(19)
C6 C -0.5229(7) 0.8407(4) 0.5675(2)
H4 H -0.5397 0.7684 0.5396
C7 C -0.7018(8) 0.9316(4) 0.5553(3)
H5 H -0.8413 0.9207 0.5193
C8 C -0.6730(9) 1.0371(4) 0.5965(3)
H6 H -0.7926 1.0990 0.5894
C9 C -0.4625(9) 1.0501(4) 0.6487(3)
H7 H -0.4401 1.1233 0.6757
N2C N 0.2411(6) 1.0994(3) 0.82683(17)
Ag1C Ag 0.50436(7) 0.45099(3) 0.724127(18)
loop_
_geom_bond_atom_site_label_1
_geom_bond_atom_site_label_2
_geom_bond_site_symmetry_1
_geom_bond_site_symmetry_2
Ag1 N1 1_555 1_555
N1 C1 1_555 1_555
N2 C1 1_555 1_555
N3 Ag1 1_555 1_555
N4 O1 1_555 1_555
O1 Ag1 1_555 1_555
O2 Ag1 1_555 1_555
O3 N4 1_555 1_555
C1 H1 1_555 1_555
C2 N2 1_555 1_555
H2 C2 1_555 1_555
C3 C2 1_555 1_555
H3 C3 1_555 1_555
C4 N1 1_555 1_555
C5 N3 1_555 1_555
C6 C5 1_555 1_555
H4 C6 1_555 1_555
C7 C6 1_555 1_555
H5 C7 1_555 1_555
C8 C7 1_555 1_555
H6 C8 1_555 1_555
C9 N3 1_555 1_555
H7 C9 1_555 1_555
N2C Ag1 1_555 1_555
Ag1C N2 1_555 1_555
N4 O2 1_555 1_555
C3 C4 1_555 1_555
C4 C5 1_555 1_555
C8 C9 1_555 1_555

#END
