
#######################################################################
#
#                 Cambridge Crystallographic Data Centre
#                                CCDC 
#
#######################################################################
#
# If this CIF has been generated from an entry in the Cambridge 
# Structural Database, then it will include bibliographic, chemical, 
# crystal, experimental, refinement or atomic coordinate data resulting 
# from the CCDC's data processing and validation procedures.
#
#######################################################################

data_OGOMUS
_symmetry_cell_setting           monoclinic
_symmetry_space_group_name_H-M   'C 2/c'
_symmetry_Int_Tables_number      15
_space_group_name_Hall           '-C 2yn'
loop_
_symmetry_equiv_pos_site_id
_symmetry_equiv_pos_as_xyz
1 x,y,z
2 1/2+x,1/2+y,z
3 x,-y,1/2+z
4 1/2+x,1/2-y,1/2+z
5 -x,-y,-z
6 1/2-x,1/2-y,-z
7 -x,y,1/2-z
8 1/2-x,1/2+y,1/2-z
_cell_length_a                   33.6859(7)
_cell_length_b                   7.7447(2)
_cell_length_c                   30.8578(10)
_cell_angle_alpha                90
_cell_angle_beta                 116.0144(11)
_cell_angle_gamma                90
_cell_volume                     7234.77
loop_
_atom_site_label
_atom_site_type_symbol
_atom_site_fract_x
_atom_site_fract_y
_atom_site_fract_z
Pb1 Pb 0.073835(9) -0.21845(4) 0.162811(12)
O3 O 0.05176(18) -0.4860(7) 0.1097(2)
O4 O -0.00648(19) -0.4107(9) 0.1159(2)
O5 O -0.0062(2) -0.6469(10) 0.0793(3)
O6 O 0.1662(2) 0.1639(8) 0.2614(2)
O7 O 0.12288(18) -0.0547(8) 0.2491(2)
O8 O 0.12538(19) 0.0743(7) 0.1897(2)
N1 N 0.21354(18) 0.3903(7) -0.0490(2)
N2 N 0.28447(17) 0.5162(7) -0.0207(2)
N3 N 0.24514(18) 0.5276(7) 0.0276(2)
N4 N 0.0129(3) -0.5161(12) 0.1009(3)
N5 N 0.1393(3) 0.0605(10) 0.2346(3)
N6 N 0.05785(17) 0.1069(8) 0.0318(2)
N7 N 0.07165(19) -0.0951(9) 0.0847(2)
N8 N 0.29713(18) -0.0046(8) -0.1969(2)
N9 N 0.35697(18) -0.1679(7) -0.1736(2)
N10 N 0.4256(2) 0.9587(11) 0.2100(3)
N11 N 0.4179(2) 1.0400(10) 0.2753(3)
C1 C 0.2126(2) 0.4414(9) -0.0083(3)
C2 C 0.2502(2) 0.4309(8) -0.0537(3)
C3 C 0.2809(2) 0.5608(8) 0.0198(3)
C4 C 0.1716(2) 0.4003(9) -0.0031(3)
C5 C 0.1392(2) 0.3021(9) -0.0371(3)
H1 H 0.1431 0.2590 -0.0638
C6 C 0.1008(2) 0.2648(9) -0.0332(3)
H2 H 0.0787 0.1952 -0.0568
C7 C 0.0948(2) 0.3294(9) 0.0056(3)
C8 C 0.1271(2) 0.4271(9) 0.0393(3)
H3 H 0.1233 0.4695 0.0662
C9 C 0.1657(2) 0.4661(9) 0.0352(3)
H4 H 0.1877 0.5371 0.0585
C10 C 0.0535(2) 0.2782(10) 0.0106(3)
H5 H 0.0479 0.3637 0.0311
H6 H 0.0278 0.2794 -0.0216
C11 C 0.0684(2) 0.0706(11) 0.0772(3)
H7 H 0.0731 0.1546 0.1014
C12 C 0.0626(2) -0.1685(11) 0.0416(3)
H8 H 0.0623 -0.2890 0.0357
C13 C 0.0541(2) -0.0440(11) 0.0087(3)
H9 H 0.0468 -0.0591 -0.0245
C14 C 0.2535(2) 0.3711(9) -0.0970(3)
C15 C 0.2193(2) 0.2826(11) -0.1323(3)
H10 H 0.1926 0.2691 -0.1295
C16 C 0.2224(2) 0.2125(12) -0.1717(3)
H11 H 0.1981 0.1522 -0.1957
C17 C 0.2614(2) 0.2315(9) -0.1759(3)
C18 C 0.2951(2) 0.3277(9) -0.1421(3)
H12 H 0.3213 0.3477 -0.1458
C19 C 0.2911(2) 0.3951(10) -0.1028(3)
H13 H 0.3149 0.4592 -0.0793
C20 C 0.2677(2) 0.1392(10) -0.2164(3)
H14 H 0.2802 0.2207 -0.2319
H15 H 0.2389 0.0980 -0.2412
C21 C 0.3363(2) -0.0276(10) -0.1973(3)
H16 H 0.3481 0.0486 -0.2129
C22 C 0.3283(2) -0.2423(9) -0.1579(3)
H17 H 0.3333 -0.3473 -0.1404
C23 C 0.2927(3) -0.1428(10) -0.1714(3)
H18 H 0.2683 -0.1638 -0.1645
C24 C 0.3187(2) 0.6502(9) 0.0576(3)
C25 C 0.3164(2) 0.6981(10) 0.0997(3)
H19 H 0.2915 0.6657 0.1047
C26 C 0.3506(3) 0.7943(11) 0.1351(3)
H20 H 0.3491 0.8279 0.1639
C27 C 0.3869(2) 0.8394(10) 0.1271(3)
C28 C 0.3889(2) 0.7851(10) 0.0858(3)
H21 H 0.4144 0.8112 0.0813
C29 C 0.3550(2) 0.6943(9) 0.0509(3)
H22 H 0.3567 0.6618 0.0220
C30 C 0.4233(3) 0.9552(13) 0.1631(3)
H23 H 0.4521 0.9153 0.1654
H24 H 0.4186 1.0744 0.1502
C31 C 0.4108(3) 1.0810(11) 0.2308(4)
H25 H 0.3969 1.1850 0.2152
C32 C 0.4365(3) 0.8803(13) 0.2839(4)
H26 H 0.4448 0.8153 0.3127
C33 C 0.4413(3) 0.8279(12) 0.2430(4)
H27 H 0.4533 0.7214 0.2390
N9E N 0.14303(18) -0.3321(7) 0.1736(2)
Pb1E Pb 0.426165(9) -0.28155(4) -0.162811(12)
N11G N 0.0821(2) -0.4600(10) 0.2247(3)
Pb1G Pb 0.426165(9) 1.28155(4) 0.337189(12)
O1 O 0.0000 -0.042(2) 0.2500
C34 C 0.0153(6) -0.119(2) 0.2942(3)
H28 H 0.0438 -0.1746 0.3010
H29 H -0.0057 -0.2114 0.2922
C35 C 0.0225(6) 0.0008(19) 0.3392(7)
H30 H 0.0380 -0.0649 0.3691
H31 H -0.0062 0.0388 0.3365
H32 H 0.0402 0.1018 0.3395
C34F C -0.0153(6) -0.119(2) 0.2058(3)
H28F H -0.0438 -0.1746 0.1990
H29F H 0.0057 -0.2114 0.2078
C35F C -0.0225(6) 0.0008(19) 0.1608(7)
H30F H -0.0380 -0.0649 0.1309
H31F H 0.0062 0.0388 0.1635
H32F H -0.0402 0.1018 0.1605
O2 O 0.1000(14) -0.087(6) 0.3400(16)
loop_
_geom_bond_atom_site_label_1
_geom_bond_atom_site_label_2
_geom_bond_site_symmetry_1
_geom_bond_site_symmetry_2
Pb1 O3 1_555 1_555
O1 C34 1_555 1_555
O3 N4 1_555 1_555
O4 Pb1 1_555 1_555
O5 N4 1_555 1_555
O6 N5 1_555 1_555
O7 Pb1 1_555 1_555
O8 Pb1 1_555 1_555
N1 C1 1_555 1_555
N2 C2 1_555 1_555
N3 C1 1_555 1_555
N4 O4 1_555 1_555
N5 O7 1_555 1_555
N6 C10 1_555 1_555
N7 Pb1 1_555 1_555
N8 C20 1_555 1_555
N9 C21 1_555 1_555
N10 C30 1_555 1_555
N11 C31 1_555 1_555
C1 C4 1_555 1_555
C2 N1 1_555 1_555
C3 N2 1_555 1_555
C4 C5 1_555 1_555
C5 H1 1_555 1_555
C6 C5 1_555 1_555
H2 C6 1_555 1_555
C7 C6 1_555 1_555
C8 C7 1_555 1_555
H3 C8 1_555 1_555
C9 C4 1_555 1_555
H4 C9 1_555 1_555
C10 C7 1_555 1_555
H5 C10 1_555 1_555
H6 C10 1_555 1_555
C11 N6 1_555 1_555
H7 C11 1_555 1_555
C12 N7 1_555 1_555
H8 C12 1_555 1_555
C13 N6 1_555 1_555
H9 C13 1_555 1_555
C14 C2 1_555 1_555
C15 C14 1_555 1_555
H10 C15 1_555 1_555
C16 C15 1_555 1_555
H11 C16 1_555 1_555
C17 C16 1_555 1_555
C18 C17 1_555 1_555
H12 C18 1_555 1_555
C19 C14 1_555 1_555
H13 C19 1_555 1_555
C20 C17 1_555 1_555
H14 C20 1_555 1_555
H15 C20 1_555 1_555
C21 N8 1_555 1_555
H16 C21 1_555 1_555
C22 N9 1_555 1_555
H17 C22 1_555 1_555
C23 N8 1_555 1_555
H18 C23 1_555 1_555
C24 C3 1_555 1_555
C25 C24 1_555 1_555
H19 C25 1_555 1_555
C26 C25 1_555 1_555
H20 C26 1_555 1_555
C27 C26 1_555 1_555
C28 C27 1_555 1_555
H21 C28 1_555 1_555
C29 C24 1_555 1_555
H22 C29 1_555 1_555
C30 C27 1_555 1_555
H23 C30 1_555 1_555
H24 C30 1_555 1_555
C31 N10 1_555 1_555
H25 C31 1_555 1_555
C32 N11 1_555 1_555
H26 C32 1_555 1_555
C33 N10 1_555 1_555
H27 C33 1_555 1_555
C34 H28 1_555 1_555
H29 C34 1_555 1_555
C35 C34 1_555 1_555
H30 C35 1_555 1_555
H31 C35 1_555 1_555
H32 C35 1_555 1_555
C34F O1 1_555 1_555
H28F C34F 1_555 1_555
H29F C34F 1_555 1_555
C35F C34F 1_555 1_555
H30F C35F 1_555 1_555
H31F C35F 1_555 1_555
H32F C35F 1_555 1_555
N9E Pb1 1_555 1_555
Pb1E N9 1_555 1_555
N11G Pb1 1_555 1_555
Pb1G N11 1_555 1_555
O8 N5 1_555 1_555
N3 C3 1_555 1_555
N7 C11 1_555 1_555
C8 C9 1_555 1_555
C12 C13 1_555 1_555
C18 C19 1_555 1_555
C22 C23 1_555 1_555
C28 C29 1_555 1_555
C32 C33 1_555 1_555

#END
