
#######################################################################
#
#                 Cambridge Crystallographic Data Centre
#                                CCDC 
#
#######################################################################
#
# If this CIF has been generated from an entry in the Cambridge 
# Structural Database, then it will include bibliographic, chemical, 
# crystal, experimental, refinement or atomic coordinate data resulting 
# from the CCDC's data processing and validation procedures.
#
#######################################################################

data_OGOREI
_symmetry_cell_setting           orthorhombic
_symmetry_space_group_name_H-M   'P 21 21 2'
_symmetry_Int_Tables_number      18
_space_group_name_Hall           'P 2 2ab'
loop_
_symmetry_equiv_pos_site_id
_symmetry_equiv_pos_as_xyz
1 x,y,z
2 -x,-y,z
3 1/2+x,1/2-y,-z
4 1/2-x,1/2+y,-z
_cell_length_a                   22.773(3)
_cell_length_b                   27.901(4)
_cell_length_c                   9.9919(15)
_cell_angle_alpha                90
_cell_angle_beta                 90
_cell_angle_gamma                90
_cell_volume                     6348.75
loop_
_atom_site_label
_atom_site_type_symbol
_atom_site_fract_x
_atom_site_fract_y
_atom_site_fract_z
C1 C 0.41639(17) 0.41721(15) -0.0247(4)
H1 H 0.4544 0.4328 -0.0206
H2 H 0.4199 0.3863 0.0188
C2 C 0.44275(19) 0.38151(14) -0.2508(4)
H3 H 0.4247 0.3781 -0.3394
C3 C 0.49753(18) 0.40950(15) -0.2670(4)
H4 H 0.5243 0.3922 -0.3234
H5 H 0.5152 0.4145 -0.1809
H6 H 0.4886 0.4399 -0.3070
C4 C 0.45051(18) 0.33283(15) -0.1944(4)
C5 C 0.50325(18) 0.31741(15) -0.1395(5)
H7 H 0.5345 0.3387 -0.1315
C6 C 0.50962(19) 0.27067(16) -0.0967(5)
H8 H 0.5455 0.2605 -0.0623
C7 C 0.4632(2) 0.23887(17) -0.1044(5)
H9 H 0.4673 0.2076 -0.0733
C8 C 0.4098(2) 0.25412(17) -0.1596(5)
H10 H 0.3785 0.2329 -0.1670
C9 C 0.4039(2) 0.30067(17) -0.2030(5)
H11 H 0.3683 0.3108 -0.2384
C10 C 0.41620(16) 0.53969(13) 0.4824(4)
H12 H 0.4178 0.5696 0.5316
H13 H 0.4547 0.5249 0.4883
C11 C 0.44950(16) 0.58326(15) 0.2798(4)
H14 H 0.4873 0.5665 0.2808
C12 C 0.43243(16) 0.59320(14) 0.1322(4)
H15 H 0.4607 0.6144 0.0927
H16 H 0.3943 0.6078 0.1292
H17 H 0.4317 0.5636 0.0834
C13 C 0.45631(17) 0.62918(14) 0.3538(4)
C14 C 0.51311(18) 0.64567(15) 0.3761(4)
H18 H 0.5451 0.6271 0.3503
C15 C 0.5222(2) 0.69013(16) 0.4374(4)
H19 H 0.5602 0.7014 0.4502
C16 C 0.47466(19) 0.71742(17) 0.4792(5)
H20 H 0.4808 0.7466 0.5218
C17 C 0.41778(19) 0.70089(15) 0.4571(4)
H21 H 0.3859 0.7194 0.4836
C18 C 0.40847(18) 0.65683(15) 0.3956(4)
H22 H 0.3704 0.6457 0.3823
C19 C 0.13744(19) 0.52214(15) 0.8904(4)
H23 H 0.1088 0.5345 0.8273
H24 H 0.1175 0.5001 0.9501
C20 C 0.12461(18) 0.58181(15) 1.0810(4)
H25 H 0.1227 0.5580 1.1529
C21 C 0.15518(18) 0.62591(15) 1.1330(4)
H26 H 0.1316 0.6405 1.2015
H27 H 0.1608 0.6482 1.0611
H28 H 0.1926 0.6171 1.1696
C22 C 0.06482(17) 0.59170(16) 1.0338(4)
C23 C 0.05348(18) 0.62361(14) 0.9309(4)
H29 H 0.0845 0.6373 0.8837
C24 C -0.00417(19) 0.63532(16) 0.8976(4)
H30 H -0.0116 0.6569 0.8286
C25 C -0.0506(2) 0.61478(18) 0.9674(5)
H31 H -0.0891 0.6225 0.9453
C26 C -0.03906(19) 0.58267(17) 1.0705(4)
H32 H -0.0701 0.5689 1.1171
C27 C 0.01808(19) 0.57102(17) 1.1047(4)
H33 H 0.0254 0.5496 1.1742
C28 C 0.13935(16) 0.43715(13) 0.3669(4)
H34 H 0.1087 0.4588 0.3964
H35 H 0.1228 0.4162 0.2993
C29 C 0.12113(16) 0.36714(14) 0.5220(4)
H36 H 0.1237 0.3428 0.4516
C30 C 0.14049(18) 0.34443(15) 0.6514(4)
H37 H 0.1151 0.3180 0.6723
H38 H 0.1387 0.3677 0.7220
H39 H 0.1801 0.3331 0.6423
C31 C 0.05866(16) 0.38385(14) 0.5291(4)
C32 C 0.01663(17) 0.36155(16) 0.4497(4)
H40 H 0.0272 0.3360 0.3951
C33 C -0.04109(19) 0.37736(16) 0.4518(5)
H41 H -0.0692 0.3623 0.3991
C34 C -0.0568(2) 0.41577(17) 0.5329(5)
H42 H -0.0954 0.4266 0.5341
C35 C -0.01481(18) 0.43793(17) 0.6121(5)
H43 H -0.0252 0.4637 0.6662
C36 C 0.04283(19) 0.42169(16) 0.6105(5)
H44 H 0.0708 0.4363 0.6645
C37 C 0.30827(18) 0.83037(14) -0.1216(4)
C38 C 0.31209(19) 0.77733(15) -0.1087(4)
C39 C 0.29314(18) 0.75366(14) 0.0063(4)
H45 H 0.2796 0.7713 0.0789
C40 C 0.29429(17) 0.70418(14) 0.0137(4)
H46 H 0.2810 0.6888 0.0905
C41 C 0.31459(17) 0.67803(14) -0.0904(4)
C42 C 0.33298(17) 0.70094(13) -0.2062(4)
H47 H 0.3477 0.6831 -0.2774
C43 C 0.32947(18) 0.75022(15) -0.2159(4)
H48 H 0.3390 0.7652 -0.2962
C44 C 0.31512(17) 0.62441(14) -0.0823(4)
C45 C 0.30439(17) 0.33421(14) 0.4159(4)
C46 C 0.30332(19) 0.28062(14) 0.4051(4)
C47 C 0.32653(17) 0.25929(14) 0.2946(4)
H49 H 0.3414 0.2778 0.2250
C48 C 0.32776(17) 0.20976(14) 0.2869(5)
H50 H 0.3457 0.1951 0.2140
C49 C 0.30346(17) 0.18257(14) 0.3826(4)
C50 C 0.27945(17) 0.20398(14) 0.4962(4)
H51 H 0.2630 0.1856 0.5642
C51 C 0.28087(18) 0.25241(14) 0.5044(4)
H52 H 0.2659 0.2671 0.5808
C52 C 0.30265(17) 0.12850(14) 0.3706(5)
N1 N 0.40038(14) 0.41012(11) -0.1628(3)
H53 H 0.3955 0.4392 -0.2004
H54 H 0.3653 0.3953 -0.1647
N2 N 0.40388(13) 0.55071(11) 0.3393(3)
H55 H 0.3684 0.5647 0.3328
H56 H 0.4028 0.5232 0.2924
N3 N 0.16221(14) 0.56211(12) 0.9684(3)
H57 H 0.1702 0.5863 0.9116
H58 H 0.1966 0.5523 1.0037
N4 N 0.15997(13) 0.40771(11) 0.4834(3)
H59 H 0.1957 0.3959 0.4638
H60 H 0.1641 0.4272 0.5546
O1 O 0.30621(11) 0.42689(10) 0.0428(3)
O2 O 0.38278(11) 0.45507(10) 0.2093(3)
O3 O 0.36581(11) 0.50262(9) 0.0024(3)
O4 O 0.37084(12) 0.45132(10) 0.5074(3)
O5 O 0.30658(11) 0.52433(9) 0.5314(3)
O6 O 0.38081(12) 0.50111(10) 0.7099(3)
O7 O 0.18098(11) 0.49106(9) 0.6483(3)
O8 O 0.19435(13) 0.43881(9) 0.8494(3)
O9 O 0.25120(11) 0.51679(9) 0.8309(3)
O10 O 0.18816(12) 0.47088(9) 0.1447(3)
O11 O 0.19421(13) 0.52182(9) 0.3522(3)
O12 O 0.25317(11) 0.44582(9) 0.3336(3)
O13 O 0.31682(12) 0.84912(10) -0.2292(3)
O14 O 0.29365(12) 0.85259(11) -0.0167(3)
O15 O 0.34507(13) 0.60142(10) -0.1751(3)
O16 O 0.28498(12) 0.60355(11) 0.0034(3)
O17 O 0.27153(12) 0.35482(10) 0.4995(3)
O18 O 0.33831(12) 0.35587(10) 0.3387(3)
O19 O 0.28600(13) 0.10376(10) 0.4707(3)
O20 O 0.32234(12) 0.10978(10) 0.2663(3)
P1 P 0.36307(5) 0.45326(4) 0.06467(10)
P2 P 0.36336(4) 0.50055(4) 0.56341(10)
P3 P 0.19598(5) 0.48976(4) 0.79841(10)
P4 P 0.19922(4) 0.47157(3) 0.29414(10)
Zn1 Zn 0.332983(19) 0.425278(15) 0.35009(5)
Zn2 Zn 0.222774(19) 0.536323(16) 0.53241(5)
Zn3 Zn 0.331820(19) 0.533330(16) -0.14970(5)
Zn4 Zn 0.222551(19) 0.420900(16) 0.03013(5)
O6_2 O 0.38081(12) 0.50111(10) -0.2901(3)
O8_2 O 0.19435(13) 0.43881(9) -0.1506(3)
O9_2 O 0.25120(11) 0.51679(9) -0.1691(3)
O14C O 0.20635(12) 0.35259(11) 0.0167(3)
O19C O 0.21400(13) 0.60376(10) 0.5293(3)
Zn2C Zn 0.277226(19) 0.036323(16) 0.46759(5)
Zn3_2 Zn 0.331820(19) 0.533330(16) 0.85030(5)
Zn4_2 Zn 0.222551(19) 0.420900(16) 1.03013(5)
Zn4C Zn 0.277449(19) 0.920900(16) -0.03013(5)
O21 O 0.29373(12) 0.37147(11) 0.7614(3)
H61 H 0.2663 0.3851 0.8048
H62 H 0.2885 0.3758 0.6781
O22 O 0.2982(2) 0.5887(2) 0.2728(5)
H63 H 0.2709 0.5713 0.3047
H64 H 0.2950 0.5898 0.1881
H65 H 0.4729 0.2252 0.3493
H66 H 0.4544 0.2464 0.2305
O23 O 0.4600(3) 0.2200(2) 0.2709(7)
loop_
_geom_bond_atom_site_label_1
_geom_bond_atom_site_label_2
_geom_bond_site_symmetry_1
_geom_bond_site_symmetry_2
C1 H1 1_555 1_555
H2 C1 1_555 1_555
C2 H3 1_555 1_555
C3 C2 1_555 1_555
H4 C3 1_555 1_555
H5 C3 1_555 1_555
H6 C3 1_555 1_555
C4 C2 1_555 1_555
C5 C4 1_555 1_555
H7 C5 1_555 1_555
C6 C5 1_555 1_555
H8 C6 1_555 1_555
C7 C6 1_555 1_555
H9 C7 1_555 1_555
C8 C7 1_555 1_555
H10 C8 1_555 1_555
C9 C4 1_555 1_555
H11 C9 1_555 1_555
C10 H12 1_555 1_555
H13 C10 1_555 1_555
C11 H14 1_555 1_555
C12 C11 1_555 1_555
H15 C12 1_555 1_555
H16 C12 1_555 1_555
H17 C12 1_555 1_555
C13 C11 1_555 1_555
C14 C13 1_555 1_555
H18 C14 1_555 1_555
C15 C14 1_555 1_555
H19 C15 1_555 1_555
C16 C15 1_555 1_555
H20 C16 1_555 1_555
C17 C16 1_555 1_555
H21 C17 1_555 1_555
C18 C13 1_555 1_555
H22 C18 1_555 1_555
C19 H23 1_555 1_555
H24 C19 1_555 1_555
C20 H25 1_555 1_555
C21 C20 1_555 1_555
H26 C21 1_555 1_555
H27 C21 1_555 1_555
H28 C21 1_555 1_555
C22 C20 1_555 1_555
C23 C22 1_555 1_555
H29 C23 1_555 1_555
C24 C23 1_555 1_555
H30 C24 1_555 1_555
C25 C24 1_555 1_555
H31 C25 1_555 1_555
C26 C25 1_555 1_555
H32 C26 1_555 1_555
C27 C22 1_555 1_555
H33 C27 1_555 1_555
C28 H34 1_555 1_555
H35 C28 1_555 1_555
C29 H36 1_555 1_555
C30 C29 1_555 1_555
H37 C30 1_555 1_555
H38 C30 1_555 1_555
H39 C30 1_555 1_555
C31 C29 1_555 1_555
C32 C31 1_555 1_555
H40 C32 1_555 1_555
C33 C32 1_555 1_555
H41 C33 1_555 1_555
C34 C33 1_555 1_555
H42 C34 1_555 1_555
C35 C34 1_555 1_555
H43 C35 1_555 1_555
C36 C31 1_555 1_555
H44 C36 1_555 1_555
C37 C38 1_555 1_555
C38 C39 1_555 1_555
C39 H45 1_555 1_555
C40 C39 1_555 1_555
H46 C40 1_555 1_555
C41 C40 1_555 1_555
C42 C41 1_555 1_555
H47 C42 1_555 1_555
C43 C38 1_555 1_555
H48 C43 1_555 1_555
C44 C41 1_555 1_555
C45 C46 1_555 1_555
C46 C47 1_555 1_555
C47 H49 1_555 1_555
C48 C47 1_555 1_555
H50 C48 1_555 1_555
C49 C48 1_555 1_555
C50 C49 1_555 1_555
H51 C50 1_555 1_555
C51 C46 1_555 1_555
H52 C51 1_555 1_555
C52 C49 1_555 1_555
N1 C1 1_555 1_555
H53 N1 1_555 1_555
H54 N1 1_555 1_555
N2 C10 1_555 1_555
H55 N2 1_555 1_555
H56 N2 1_555 1_555
N3 C19 1_555 1_555
H57 N3 1_555 1_555
H58 N3 1_555 1_555
N4 C28 1_555 1_555
H59 N4 1_555 1_555
H60 N4 1_555 1_555
O1 P1 1_555 1_555
O2 P1 1_555 1_555
O3 P1 1_555 1_555
O4 P2 1_555 1_555
O5 P2 1_555 1_555
O6 P2 1_555 1_555
O7 P3 1_555 1_555
O8 P3 1_555 1_555
O9 P3 1_555 1_555
O10 P4 1_555 1_555
O11 P4 1_555 1_555
O12 P4 1_555 1_555
O13 C37 1_555 1_555
O14 C37 1_555 1_555
O15 C44 1_555 1_555
O16 C44 1_555 1_555
O17 C45 1_555 1_555
O18 C45 1_555 1_555
O19 C52 1_555 1_555
O20 C52 1_555 1_555
O21 H61 1_555 1_555
H62 O21 1_555 1_555
O22 H63 1_555 1_555
H64 O22 1_555 1_555
P1 C1 1_555 1_555
P2 C10 1_555 1_555
P3 C19 1_555 1_555
P4 C28 1_555 1_555
Zn1 O2 1_555 1_555
Zn2 O5 1_555 1_555
Zn3 O3 1_555 1_555
Zn4 O1 1_555 1_555
H65 O23 1_555 1_555
H66 O23 1_555 1_555
O6_2 Zn3 1_555 1_555
O8_2 Zn4 1_555 1_555
O9_2 Zn3 1_555 1_555
O14C Zn4 1_555 1_555
O19C Zn2 1_555 1_555
Zn2C O19 1_555 1_555
Zn3_2 O6 1_555 1_555
Zn4_2 O8 1_555 1_555
Zn4C O14 1_555 1_555
C2 N1 1_555 1_555
C8 C9 1_555 1_555
C11 N2 1_555 1_555
C17 C18 1_555 1_555
C20 N3 1_555 1_555
C26 C27 1_555 1_555
C29 N4 1_555 1_555
C35 C36 1_555 1_555
C42 C43 1_555 1_555
C50 C51 1_555 1_555
O4 Zn1 1_555 1_555
O7 Zn2 1_555 1_555
O9 Zn3_2 1_555 1_555
O10 Zn4 1_555 1_555
O11 Zn2 1_555 1_555
O12 Zn1 1_555 1_555
O15 Zn3 1_555 1_555
O18 Zn1 1_555 1_555

#END
