
#######################################################################
#
#                 Cambridge Crystallographic Data Centre
#                                CCDC 
#
#######################################################################
#
# If this CIF has been generated from an entry in the Cambridge 
# Structural Database, then it will include bibliographic, chemical, 
# crystal, experimental, refinement or atomic coordinate data resulting 
# from the CCDC's data processing and validation procedures.
#
#######################################################################

data_OGOROS
_symmetry_cell_setting           orthorhombic
_symmetry_space_group_name_H-M   'P b c n'
_symmetry_Int_Tables_number      60
_space_group_name_Hall           '-P 2n 2ab'
loop_
_symmetry_equiv_pos_site_id
_symmetry_equiv_pos_as_xyz
1 x,y,z
2 1/2-x,1/2-y,1/2+z
3 -x,y,1/2-z
4 1/2+x,1/2-y,-z
5 -x,-y,-z
6 1/2+x,1/2+y,1/2-z
7 x,-y,1/2+z
8 1/2-x,1/2+y,z
_cell_length_a                   16.5327(15)
_cell_length_b                   10.1651(8)
_cell_length_c                   22.890(2)
_cell_angle_alpha                90
_cell_angle_beta                 90
_cell_angle_gamma                90
_cell_volume                     3846.81
loop_
_atom_site_label
_atom_site_type_symbol
_atom_site_fract_x
_atom_site_fract_y
_atom_site_fract_z
Cu1 Cu 0.08180(4) 0.39339(6) 0.20642(3)
Na1 Na 0.0000 0.1210(3) 0.2500
C1 C 0.1388(3) 0.1500(5) 0.1563(2)
O1 O 0.1031(2) 0.2084(4) 0.20095(15)
C2 C 0.1770(3) 0.0282(5) 0.1674(2)
H1 H 0.1753 -0.0074 0.2058
O2 O 0.0600(2) 0.3681(3) 0.28839(15)
C3 C 0.2165(3) -0.0400(6) 0.1246(3)
H2 H 0.2418 -0.1216 0.1333
C4 C 0.2196(4) 0.0105(6) 0.0682(3)
H3 H 0.2472 -0.0358 0.0382
C5 C 0.1817(3) 0.1296(6) 0.0562(3)
H4 H 0.1844 0.1639 0.0177
C6 C 0.1396(3) 0.2014(5) 0.0992(2)
C7 C 0.0986(3) 0.3241(5) 0.0825(2)
C8 C 0.0446(3) 0.5379(5) 0.0987(2)
H5 H -0.0079 0.5173 0.0798
H6 H 0.0807 0.5749 0.0684
N1 N 0.0805(3) 0.4141(4) 0.12090(19)
C9 C 0.0308(3) 0.6410(5) 0.1454(2)
H7 H -0.0121 0.6095 0.1721
H8 H 0.0108 0.7223 0.1264
C10 C 0.1052(3) 0.6747(5) 0.1812(3)
H9 H 0.1527 0.6823 0.1551
H10 H 0.0972 0.7604 0.2008
N2 N 0.1201(3) 0.5716(4) 0.22535(19)
C11 C 0.1629(3) 0.5987(5) 0.2708(2)
C12 C 0.1719(3) 0.5016(5) 0.3187(2)
C13 C 0.2349(3) 0.5178(5) 0.3599(2)
H11 H 0.2738 0.5852 0.3539
C14 C 0.2415(4) 0.4386(6) 0.4086(2)
H12 H 0.2849 0.4503 0.4353
C15 C 0.1837(3) 0.3411(6) 0.4182(2)
H13 H 0.1864 0.2890 0.4526
C16 C 0.1227(3) 0.3196(5) 0.3786(2)
H14 H 0.0839 0.2526 0.3857
C17 C 0.1173(3) 0.3963(5) 0.3272(2)
C18 C 0.2015(4) 0.7331(5) 0.2784(3)
H15 H 0.2408 0.7480 0.2470
H16 H 0.2291 0.7369 0.3162
H17 H 0.1595 0.8011 0.2768
C19 C 0.0770(4) 0.3417(6) 0.0190(2)
H18 H 0.0220 0.3766 0.0159
H19 H 0.0801 0.2565 -0.0010
H20 H 0.1150 0.4033 0.0009
Cu2 Cu 0.0000 0.0000 0.0000
N3 N -0.0339(4) -0.0203(6) 0.0748(3)
C20 C -0.0394(4) -0.0215(6) 0.1253(4)
O3 O -0.0465(3) -0.0238(5) 0.1790(2)
Cu1B Cu -0.08180(4) 0.39339(6) 0.29358(3)
C1B C -0.1388(3) 0.1500(5) 0.3437(2)
O1B O -0.1031(2) 0.2084(4) 0.29905(15)
C2B C -0.1770(3) 0.0282(5) 0.3326(2)
H1B H -0.1753 -0.0074 0.2942
O2B O -0.0600(2) 0.3681(3) 0.21161(15)
C3B C -0.2165(3) -0.0400(6) 0.3754(3)
H2B H -0.2418 -0.1216 0.3667
C4B C -0.2196(4) 0.0105(6) 0.4318(3)
H3B H -0.2472 -0.0358 0.4618
C5B C -0.1817(3) 0.1296(6) 0.4438(3)
H4B H -0.1844 0.1639 0.4823
C6B C -0.1396(3) 0.2014(5) 0.4008(2)
C7B C -0.0986(3) 0.3241(5) 0.4175(2)
C8B C -0.0446(3) 0.5379(5) 0.4013(2)
H5B H 0.0079 0.5173 0.4202
H6B H -0.0807 0.5749 0.4316
N1B N -0.0805(3) 0.4141(4) 0.37910(19)
C9B C -0.0308(3) 0.6410(5) 0.3546(2)
H7B H 0.0121 0.6095 0.3279
H8B H -0.0108 0.7223 0.3736
C10B C -0.1052(3) 0.6747(5) 0.3188(3)
H9B H -0.1527 0.6823 0.3449
H10B H -0.0972 0.7604 0.2992
N2B N -0.1201(3) 0.5716(4) 0.27465(19)
C11B C -0.1629(3) 0.5987(5) 0.2292(2)
C12B C -0.1719(3) 0.5016(5) 0.1813(2)
C13B C -0.2349(3) 0.5178(5) 0.1401(2)
H11B H -0.2738 0.5852 0.1461
C14B C -0.2415(4) 0.4386(6) 0.0914(2)
H12B H -0.2849 0.4503 0.0647
C15B C -0.1837(3) 0.3411(6) 0.0818(2)
H13B H -0.1864 0.2890 0.0474
C16B C -0.1227(3) 0.3196(5) 0.1214(2)
H14B H -0.0839 0.2526 0.1143
C17B C -0.1173(3) 0.3963(5) 0.1728(2)
C18B C -0.2015(4) 0.7331(5) 0.2216(3)
H15B H -0.2408 0.7480 0.2530
H16B H -0.2291 0.7369 0.1838
H17B H -0.1595 0.8011 0.2232
C19B C -0.0770(4) 0.3417(6) 0.4810(2)
H18B H -0.0220 0.3766 0.4841
H19B H -0.0801 0.2565 0.5010
H20B H -0.1150 0.4033 0.4991
Cu2B Cu 0.0000 0.0000 0.5000
N3B N 0.0339(4) -0.0203(6) 0.4252(3)
N3D N 0.0339(4) 0.0203(6) -0.0748(3)
C20B C 0.0394(4) -0.0215(6) 0.3747(4)
O3B O 0.0465(3) -0.0238(5) 0.3210(2)
loop_
_geom_bond_atom_site_label_1
_geom_bond_atom_site_label_2
_geom_bond_site_symmetry_1
_geom_bond_site_symmetry_2
Cu1 O1 1_555 1_555
Na1 O1 1_555 1_555
C1 O1 1_555 1_555
C2 C1 1_555 1_555
H1 C2 1_555 1_555
O2 Cu1 1_555 1_555
C3 C2 1_555 1_555
H2 C3 1_555 1_555
C4 C3 1_555 1_555
H3 C4 1_555 1_555
C5 C4 1_555 1_555
H4 C5 1_555 1_555
C6 C1 1_555 1_555
C7 C6 1_555 1_555
C8 H5 1_555 1_555
H6 C8 1_555 1_555
N1 Cu1 1_555 1_555
C9 C8 1_555 1_555
H7 C9 1_555 1_555
H8 C9 1_555 1_555
C10 C9 1_555 1_555
H9 C10 1_555 1_555
H10 C10 1_555 1_555
N2 Cu1 1_555 1_555
C11 N2 1_555 1_555
C12 C11 1_555 1_555
C13 C12 1_555 1_555
H11 C13 1_555 1_555
C14 C13 1_555 1_555
H12 C14 1_555 1_555
C15 C14 1_555 1_555
H13 C15 1_555 1_555
C16 C15 1_555 1_555
H14 C16 1_555 1_555
C17 O2 1_555 1_555
C18 C11 1_555 1_555
H15 C18 1_555 1_555
H16 C18 1_555 1_555
H17 C18 1_555 1_555
C19 C7 1_555 1_555
H18 C19 1_555 1_555
H19 C19 1_555 1_555
H20 C19 1_555 1_555
Cu2 N3 1_555 1_555
N3 C20 1_555 1_555
C20 O3 1_555 1_555
O3 Na1 1_555 1_555
Cu1B O2 1_555 1_555
C1B O1B 1_555 1_555
O1B Na1 1_555 1_555
C2B C1B 1_555 1_555
H1B C2B 1_555 1_555
O2B Cu1 1_555 1_555
C3B C2B 1_555 1_555
H2B C3B 1_555 1_555
C4B C3B 1_555 1_555
H3B C4B 1_555 1_555
C5B C4B 1_555 1_555
H4B C5B 1_555 1_555
C6B C1B 1_555 1_555
C7B C6B 1_555 1_555
C8B H5B 1_555 1_555
H6B C8B 1_555 1_555
N1B Cu1B 1_555 1_555
C9B C8B 1_555 1_555
H7B C9B 1_555 1_555
H8B C9B 1_555 1_555
C10B C9B 1_555 1_555
H9B C10B 1_555 1_555
H10B C10B 1_555 1_555
N2B Cu1B 1_555 1_555
C11B N2B 1_555 1_555
C12B C11B 1_555 1_555
C13B C12B 1_555 1_555
H11B C13B 1_555 1_555
C14B C13B 1_555 1_555
H12B C14B 1_555 1_555
C15B C14B 1_555 1_555
H13B C15B 1_555 1_555
C16B C15B 1_555 1_555
H14B C16B 1_555 1_555
C17B O2B 1_555 1_555
C18B C11B 1_555 1_555
H15B C18B 1_555 1_555
H16B C18B 1_555 1_555
H17B C18B 1_555 1_555
C19B C7B 1_555 1_555
H18B C19B 1_555 1_555
H19B C19B 1_555 1_555
H20B C19B 1_555 1_555
Cu2B N3B 1_555 1_555
N3B C20B 1_555 1_555
N3D Cu2 1_555 1_555
C20B O3B 1_555 1_555
O3B Na1 1_555 1_555
Na1 O2 1_555 1_555
Na1 O2B 1_555 1_555
C5 C6 1_555 1_555
C7 N1 1_555 1_555
C8 N1 1_555 1_555
C10 N2 1_555 1_555
C12 C17 1_555 1_555
C16 C17 1_555 1_555
Cu1B O1B 1_555 1_555
Cu1B O2B 1_555 1_555
C5B C6B 1_555 1_555
C7B N1B 1_555 1_555
C8B N1B 1_555 1_555
C10B N2B 1_555 1_555
C12B C17B 1_555 1_555
C16B C17B 1_555 1_555

#END
