
#######################################################################
#
#                 Cambridge Crystallographic Data Centre
#                                CCDC 
#
#######################################################################
#
# If this CIF has been generated from an entry in the Cambridge 
# Structural Database, then it will include bibliographic, chemical, 
# crystal, experimental, refinement or atomic coordinate data resulting 
# from the CCDC's data processing and validation procedures.
#
#######################################################################

data_OGORIM
_symmetry_cell_setting           monoclinic
_symmetry_space_group_name_H-M   'C 2'
_symmetry_Int_Tables_number      5
_space_group_name_Hall           'C 2y'
loop_
_symmetry_equiv_pos_site_id
_symmetry_equiv_pos_as_xyz
1 x,y,z
2 -x,y,-z
3 1/2+x,1/2+y,z
4 1/2-x,1/2+y,-z
_cell_length_a                   31.147(4)
_cell_length_b                   7.6286(8)
_cell_length_c                   17.6399(19)
_cell_angle_alpha                90
_cell_angle_beta                 124.496(1)
_cell_angle_gamma                90
_cell_volume                     3454.39
loop_
_atom_site_label
_atom_site_type_symbol
_atom_site_fract_x
_atom_site_fract_y
_atom_site_fract_z
C1 C 0.7355(3) 0.6061(9) 0.3136(4)
H1 H 0.7014 0.6604 0.2779
H2 H 0.7381 0.5403 0.3630
C2 C 0.7821(3) 0.8387(9) 0.4338(4)
H3 H 0.7947 0.7556 0.4829
C3 C 0.8240(3) 0.9791(10) 0.4649(5)
H4 H 0.8292 1.0405 0.5170
H5 H 0.8130 1.0604 0.4156
H6 H 0.8560 0.9246 0.4817
C4 C 0.73093(14) 0.9084(5) 0.4107(3)
C5 C 0.70184(18) 1.0230(6) 0.3373(3)
H7 H 0.7135 1.0542 0.3009
C6 C 0.65531(17) 1.0910(6) 0.3183(3)
H8 H 0.6359 1.1677 0.2692
C7 C 0.63787(14) 1.0444(6) 0.3727(3)
H9 H 0.6067 1.0899 0.3600
C8 C 0.66695(16) 0.9298(7) 0.4461(3)
H10 H 0.6553 0.8986 0.4824
C9 C 0.71348(16) 0.8618(6) 0.4650(3)
H11 H 0.7329 0.7851 0.5141
C10 C 0.8907(2) 0.8728(10) 0.1551(4)
H12 H 0.9075 0.9404 0.1323
H13 H 0.8936 0.9383 0.2049
C11 C 0.9737(2) 0.7155(8) 0.2751(4)
H14 H 0.9730 0.7642 0.3246
C12 C 0.9941(3) 0.5310(9) 0.3023(5)
H15 H 1.0292 0.5338 0.3562
H16 H 0.9936 0.4759 0.2529
H17 H 0.9726 0.4659 0.3152
C13 C 1.00675(14) 0.8330(5) 0.2595(3)
C14 C 1.02418(18) 0.9895(6) 0.3083(3)
H18 H 1.0142 1.0207 0.3472
C15 C 1.05657(19) 1.0993(5) 0.2991(3)
H19 H 1.0682 1.2040 0.3317
C16 C 1.07153(17) 1.0526(6) 0.2411(4)
H20 H 1.0932 1.1261 0.2349
C17 C 1.05410(17) 0.8961(7) 0.1923(3)
H21 H 1.0641 0.8648 0.1535
C18 C 1.02171(16) 0.7862(5) 0.2015(3)
H22 H 1.0101 0.6815 0.1689
C19 C 0.9050(3) 1.0573(9) 0.3769(4)
C20 C 0.9534(2) 0.9566(9) 0.4435(4)
C21 C 0.9529(2) 0.7757(9) 0.4452(4)
C22 C 0.9048(2) 0.6637(10) 0.3944(4)
C23 C 1.0000 0.6806(13) 0.5000
H23 H 1.0000 0.5587 0.5000
C24 C 1.0000 1.0420(13) 0.5000
H24 H 1.0000 1.1639 0.5000
C25 C 0.5856(3) -0.4026(9) 0.0189(4)
C26 C 0.5410(2) -0.2991(8) 0.0076(4)
C27 C 0.5404(2) -0.1187(9) 0.0058(4)
C28 C 0.5808(3) -0.0069(9) 0.0071(5)
C29 C 0.5000 -0.0310(12) 0.0000
H25 H 0.5000 0.0909 0.0000
C30 C 0.5000 -0.3838(13) 0.0000
H26 H 0.5000 -0.5057 0.0000
N1 N 0.7757(2) 0.7439(7) 0.3534(4)
H27 H 0.7676 0.8227 0.3092
H28 H 0.8064 0.6952 0.3714
N2 N 0.91782(19) 0.7045(7) 0.1906(3)
H29 H 0.9180 0.6501 0.1455
H30 H 0.8994 0.6371 0.2045
O1 O 0.74607(18) 0.5711(7) 0.1764(3)
O2 O 0.79246(16) 0.3578(6) 0.3038(3)
O3 O 0.69558(16) 0.3388(6) 0.2002(3)
O4 O 0.80184(17) 0.7269(6) 0.1033(3)
O5 O 0.82008(16) 0.7578(6) -0.0161(3)
O6 O 0.79988(17) 1.0282(6) 0.0437(3)
O7 O 0.90740(17) 1.2202(6) 0.3900(3)
O8 O 0.86715(18) 0.9791(7) 0.3142(3)
O9 O 0.87977(18) 0.6438(7) 0.4291(3)
O10 O 0.89433(18) 0.5825(6) 0.3221(3)
O11 O 0.58175(18) -0.5692(6) 0.0206(3)
O12 O 0.62270(17) -0.3315(7) 0.0265(3)
O13 O 0.5766(2) 0.0135(7) -0.0673(4)
O14 O 0.61371(17) 0.0655(6) 0.0823(3)
O15 O 0.68599(17) 0.8823(7) 0.0083(3)
H31 H 0.6536 0.8649 0.0022
H32 H 0.7034 0.9831 0.0461
O16 O 0.83297(17) 0.3231(6) 0.1720(3)
H33 H 0.8219 0.4291 0.1364
H34 H 0.8052 0.2390 0.1430
P1 P 0.74190(6) 0.4570(2) 0.24070(11)
P2 P 0.82292(6) 0.8459(2) 0.06407(11)
Zn1 Zn 0.73125(3) 0.67335(10) 0.06752(5)
Zn2 Zn 0.85222(3) 0.37354(9) 0.30132(5)
Zn3 Zn 0.64262(3) 0.28589(10) 0.07297(5)
C1C C 0.7645(3) 0.1061(9) -0.3136(4)
H1C H 0.7986 0.1604 -0.2779
H2C H 0.7619 0.0403 -0.3630
C2C C 0.7179(3) 0.3387(9) -0.4338(4)
H3C H 0.7053 0.2556 -0.4829
C3C C 0.6760(3) 0.4791(10) -0.4649(5)
H4C H 0.6708 0.5405 -0.5170
H5C H 0.6870 0.5604 -0.4156
H6C H 0.6440 0.4246 -0.4817
C4C C 0.76907(14) 0.4084(5) -0.4107(3)
C5C C 0.79816(18) 0.5230(6) -0.3373(3)
H7C H 0.7865 0.5542 -0.3009
C6C C 0.84469(17) 0.5910(6) -0.3183(3)
H8C H 0.8641 0.6677 -0.2692
C7C C 0.86213(14) 0.5444(6) -0.3727(3)
H9C H 0.8933 0.5899 -0.3600
C8C C 0.83305(16) 0.4298(7) -0.4461(3)
H10C H 0.8447 0.3986 -0.4824
C9C C 0.78652(16) 0.3618(6) -0.4650(3)
H11C H 0.7671 0.2851 -0.5141
C10C C 0.6093(2) 0.3728(10) -0.1551(4)
H12C H 0.5925 0.4404 -0.1323
H13C H 0.6064 0.4383 -0.2049
C11C C 0.5263(2) 0.2155(8) -0.2751(4)
H14C H 0.5270 0.2642 -0.3246
C12C C 0.5059(3) 0.0310(9) -0.3023(5)
H15C H 0.4708 0.0338 -0.3562
H16C H 0.5064 -0.0241 -0.2529
H17C H 0.5274 -0.0341 -0.3152
C13C C 0.49325(14) 0.3330(5) -0.2595(3)
C14C C 0.47582(18) 0.4895(6) -0.3083(3)
H18C H 0.4858 0.5207 -0.3472
C15C C 0.44343(19) 0.5993(5) -0.2991(3)
H19C H 0.4318 0.7040 -0.3317
C16C C 0.42847(17) 0.5526(6) -0.2411(4)
H20C H 0.4068 0.6261 -0.2349
C17C C 0.44590(17) 0.3961(7) -0.1923(3)
H21C H 0.4359 0.3648 -0.1535
C18C C 0.47829(16) 0.2862(5) -0.2015(3)
H22C H 0.4899 0.1815 -0.1689
C19A C 1.0950(3) 1.0573(9) 0.6231(4)
C20A C 1.0466(2) 0.9566(9) 0.5565(4)
C21A C 1.0471(2) 0.7757(9) 0.5548(4)
C22A C 1.0952(2) 0.6637(10) 0.6056(4)
C25A C 0.4144(3) -0.4026(9) -0.0189(4)
C26A C 0.4590(2) -0.2991(8) -0.0076(4)
C27A C 0.4596(2) -0.1187(9) -0.0058(4)
C28A C 0.4192(3) -0.0069(9) -0.0071(5)
N1C N 0.7243(2) 0.2439(7) -0.3534(4)
H27C H 0.7324 0.3227 -0.3092
H28C H 0.6936 0.1952 -0.3714
N2C N 0.58218(19) 0.2045(7) -0.1906(3)
H29C H 0.5820 0.1501 -0.1455
H30C H 0.6006 0.1371 -0.2045
O1C O 0.75393(18) 0.0711(7) -0.1764(3)
O2C O 0.70754(16) -0.1422(6) -0.3038(3)
O3C O 0.80442(16) -0.1612(6) -0.2002(3)
O3C_2 O 0.80442(16) 0.8388(6) -0.2002(3)
O4C O 0.69816(17) 0.2269(6) -0.1033(3)
O5C O 0.67992(16) 0.2578(6) 0.0161(3)
O6C O 0.70012(17) 0.5282(6) -0.0437(3)
O6_2 O 0.79988(17) 0.0282(6) 0.0437(3)
O7A O 1.09260(17) 1.2202(6) 0.6100(3)
O7_2 O 0.90740(17) 0.2202(6) 0.3900(3)
O7C O 0.59260(17) -0.2798(6) -0.3900(3)
O8A O 1.13285(18) 0.9791(7) 0.6858(3)
O9A O 1.12023(18) 0.6438(7) 0.5709(3)
O10A O 1.10567(18) 0.5825(6) 0.6779(3)
O10C O 0.60567(18) 0.0825(6) -0.3221(3)
O11A O 0.41825(18) -0.5692(6) -0.0206(3)
O11_2 O 0.58175(18) 0.4308(6) 0.0206(3)
O11C O 0.91825(18) 0.9308(6) -0.0206(3)
O12A O 0.37730(17) -0.3315(7) -0.0265(3)
O13A O 0.4234(2) 0.0135(7) 0.0673(4)
O14A O 0.38629(17) 0.0655(6) -0.0823(3)
O14C O 0.88629(17) 0.5655(6) -0.0823(3)
O15C O 0.81401(17) 0.3823(7) -0.0083(3)
H31C H 0.8464 0.3649 -0.0022
H32C H 0.7966 0.4831 -0.0461
O16C O 0.66703(17) -0.1769(6) -0.1720(3)
H33C H 0.6781 -0.0709 -0.1364
H34C H 0.6948 -0.2610 -0.1430
P1C P 0.75810(6) -0.0430(2) -0.24070(11)
P2C P 0.67708(6) 0.3459(2) -0.06407(11)
Zn1C Zn 0.76875(3) 0.17335(10) -0.06752(5)
Zn1C_2 Zn 0.76875(3) 1.17335(10) -0.06752(5)
Zn2A Zn 1.14778(3) 0.37354(9) 0.69868(5)
Zn2_2 Zn 0.85222(3) 1.37354(9) 0.30132(5)
Zn2A_2 Zn 1.14778(3) 1.37354(9) 0.69868(5)
Zn2C Zn 0.64778(3) -0.12646(9) -0.30132(5)
Zn3C Zn 0.85738(3) 0.78589(10) -0.07297(5)
Zn3_2 Zn 0.64262(3) -0.71411(10) 0.07297(5)
Zn3A Zn 0.35738(3) -0.71411(10) -0.07297(5)
Zn3A_2 Zn 0.35738(3) 0.28589(10) -0.07297(5)
Zn3C_2 Zn 0.85738(3) -0.21411(10) -0.07297(5)
O17 O 0.76014(18) -0.0178(7) 0.2151(4)
H35 H 0.7325 0.0408 0.1955
H36 H 0.7859 0.0517 0.2377
loop_
_geom_bond_atom_site_label_1
_geom_bond_atom_site_label_2
_geom_bond_site_symmetry_1
_geom_bond_site_symmetry_2
C1 H1 1_555 1_555
H2 C1 1_555 1_555
C2 H3 1_555 1_555
C3 C2 1_555 1_555
H4 C3 1_555 1_555
H5 C3 1_555 1_555
H6 C3 1_555 1_555
C4 C2 1_555 1_555
C5 C4 1_555 1_555
H7 C5 1_555 1_555
C6 C5 1_555 1_555
H8 C6 1_555 1_555
C7 C6 1_555 1_555
H9 C7 1_555 1_555
C8 C7 1_555 1_555
H10 C8 1_555 1_555
C9 C4 1_555 1_555
H11 C9 1_555 1_555
C10 H12 1_555 1_555
H13 C10 1_555 1_555
C11 H14 1_555 1_555
C12 C11 1_555 1_555
H15 C12 1_555 1_555
H16 C12 1_555 1_555
H17 C12 1_555 1_555
C13 C11 1_555 1_555
C14 C13 1_555 1_555
H18 C14 1_555 1_555
C15 C14 1_555 1_555
H19 C15 1_555 1_555
C16 C15 1_555 1_555
H20 C16 1_555 1_555
C17 C16 1_555 1_555
H21 C17 1_555 1_555
C18 C13 1_555 1_555
H22 C18 1_555 1_555
C19 C20 1_555 1_555
C20 C21 1_555 1_555
C21 C22 1_555 1_555
C22 O9 1_555 1_555
C23 C21 1_555 1_555
H23 C23 1_555 1_555
C24 C20 1_555 1_555
H24 C24 1_555 1_555
C25 C26 1_555 1_555
C26 C27 1_555 1_555
C27 C28 1_555 1_555
C28 O13 1_555 1_555
C29 C27 1_555 1_555
H25 C29 1_555 1_555
C30 C26 1_555 1_555
H26 C30 1_555 1_555
N1 C1 1_555 1_555
H27 N1 1_555 1_555
H28 N1 1_555 1_555
N2 C10 1_555 1_555
H29 N2 1_555 1_555
H30 N2 1_555 1_555
O1 P1 1_555 1_555
O2 P1 1_555 1_555
O3 P1 1_555 1_555
O4 P2 1_555 1_555
O5 P2 1_555 1_555
O6 P2 1_555 1_555
O7 C19 1_555 1_555
O8 C19 1_555 1_555
O10 C22 1_555 1_555
O11 C25 1_555 1_555
O12 C25 1_555 1_555
O14 C28 1_555 1_555
O15 H31 1_555 1_555
H32 O15 1_555 1_555
O16 H33 1_555 1_555
H34 O16 1_555 1_555
O17 H35 1_555 1_555
H36 O17 1_555 1_555
P1 C1 1_555 1_555
P2 C10 1_555 1_555
Zn1 O1 1_555 1_555
Zn2 O2 1_555 1_555
Zn3 O3 1_555 1_555
C1C H1C 1_555 1_555
H2C C1C 1_555 1_555
C2C H3C 1_555 1_555
C3C C2C 1_555 1_555
H4C C3C 1_555 1_555
H5C C3C 1_555 1_555
H6C C3C 1_555 1_555
C4C C2C 1_555 1_555
C5C C4C 1_555 1_555
H7C C5C 1_555 1_555
C6C C5C 1_555 1_555
H8C C6C 1_555 1_555
C7C C6C 1_555 1_555
H9C C7C 1_555 1_555
C8C C7C 1_555 1_555
H10C C8C 1_555 1_555
C9C C4C 1_555 1_555
H11C C9C 1_555 1_555
C10C H12C 1_555 1_555
H13C C10C 1_555 1_555
C11C H14C 1_555 1_555
C12C C11C 1_555 1_555
H15C C12C 1_555 1_555
H16C C12C 1_555 1_555
H17C C12C 1_555 1_555
C13C C11C 1_555 1_555
C14C C13C 1_555 1_555
H18C C14C 1_555 1_555
C15C C14C 1_555 1_555
H19C C15C 1_555 1_555
C16C C15C 1_555 1_555
H20C C16C 1_555 1_555
C17C C16C 1_555 1_555
H21C C17C 1_555 1_555
C18C C13C 1_555 1_555
H22C C18C 1_555 1_555
C19A C20A 1_555 1_555
C20A C24 1_555 1_555
C21A C23 1_555 1_555
C22A C21A 1_555 1_555
C25A C26A 1_555 1_555
C26A C30 1_555 1_555
C27A C29 1_555 1_555
C28A C27A 1_555 1_555
N1C C1C 1_555 1_555
H27C N1C 1_555 1_555
H28C N1C 1_555 1_555
N2C C10C 1_555 1_555
H29C N2C 1_555 1_555
H30C N2C 1_555 1_555
O1C P1C 1_555 1_555
O2C P1C 1_555 1_555
O3C P1C 1_555 1_555
O3C_2 Zn3C 1_555 1_555
O4C P2C 1_555 1_555
O5C Zn3 1_555 1_555
O6C Zn1 1_555 1_555
O6_2 Zn1C 1_555 1_555
O7A C19A 1_555 1_555
O7_2 Zn2 1_555 1_555
O7C Zn2C 1_555 1_555
O8A C19A 1_555 1_555
O9A C22A 1_555 1_555
O10A C22A 1_555 1_555
O10C Zn2C 1_555 1_555
O11A C25A 1_555 1_555
O11_2 Zn3 1_555 1_555
O11C Zn3C 1_555 1_555
O12A C25A 1_555 1_555
O13A C28A 1_555 1_555
O14A C28A 1_555 1_555
O14C Zn3C 1_555 1_555
O15C H31C 1_555 1_555
H32C O15C 1_555 1_555
O16C H33C 1_555 1_555
H34C O16C 1_555 1_555
P1C C1C 1_555 1_555
P2C C10C 1_555 1_555
Zn1C O1C 1_555 1_555
Zn1C_2 O6 1_555 1_555
Zn2A O10A 1_555 1_555
Zn2_2 O7 1_555 1_555
Zn2A_2 O7A 1_555 1_555
Zn2C O2C 1_555 1_555
Zn3C O5 1_555 1_555
Zn3_2 O11 1_555 1_555
Zn3A O11A 1_555 1_555
Zn3A_2 O14A 1_555 1_555
Zn3C_2 O3C 1_555 1_555
C2 N1 1_555 1_555
C8 C9 1_555 1_555
C11 N2 1_555 1_555
C17 C18 1_555 1_555
O4 Zn1 1_555 1_555
O10 Zn2 1_555 1_555
O14 Zn3 1_555 1_555
O15 Zn1 1_555 1_555
O16 Zn2 1_555 1_555
C2C N1C 1_555 1_555
C8C C9C 1_555 1_555
C11C N2C 1_555 1_555
C17C C18C 1_555 1_555
C20A C21A 1_555 1_555
C26A C27A 1_555 1_555
O4C Zn1C 1_555 1_555
O5C P2C 1_555 1_555
O6C P2C 1_555 1_555
O15C Zn1C 1_555 1_555
O16C Zn2C 1_555 1_555

#END
