
#######################################################################
#
#                 Cambridge Crystallographic Data Centre
#                                CCDC 
#
#######################################################################
#
# If this CIF has been generated from an entry in the Cambridge 
# Structural Database, then it will include bibliographic, chemical, 
# crystal, experimental, refinement or atomic coordinate data resulting 
# from the CCDC's data processing and validation procedures.
#
#######################################################################

data_OGORAE
_symmetry_cell_setting           monoclinic
_symmetry_space_group_name_H-M   'C 2'
_symmetry_Int_Tables_number      5
_space_group_name_Hall           'C 2y'
loop_
_symmetry_equiv_pos_site_id
_symmetry_equiv_pos_as_xyz
1 x,y,z
2 -x,y,-z
3 1/2+x,1/2+y,z
4 1/2-x,1/2+y,-z
_cell_length_a                   31.1328(16)
_cell_length_b                   7.6264(9)
_cell_length_c                   17.631(2)
_cell_angle_alpha                90
_cell_angle_beta                 124.494(3)
_cell_angle_gamma                90
_cell_volume                     3450.16
loop_
_atom_site_label
_atom_site_type_symbol
_atom_site_fract_x
_atom_site_fract_y
_atom_site_fract_z
C1 C 0.2651(2) 0.3947(9) 0.6873(4)
H1 H 0.2629 0.4610 0.6382
H2 H 0.2992 0.3399 0.7234
C2 C 0.2179(2) 0.1599(8) 0.5650(4)
H3 H 0.2053 0.2431 0.5159
C3 C 0.1764(3) 0.0217(10) 0.5332(5)
H4 H 0.1714 -0.0391 0.4811
H5 H 0.1443 0.0765 0.5161
H6 H 0.1870 -0.0601 0.5822
C4 C 0.26932(14) 0.0916(6) 0.5892(3)
C5 C 0.29845(16) -0.0220(6) 0.6631(3)
H7 H 0.2866 -0.0528 0.6993
C6 C 0.34522(16) -0.0894(6) 0.6828(3)
H8 H 0.3647 -0.1654 0.7323
C7 C 0.36286(13) -0.0434(6) 0.6286(3)
H9 H 0.3941 -0.0885 0.6418
C8 C 0.33373(16) 0.0702(6) 0.5547(3)
H10 H 0.3455 0.1010 0.5185
C9 C 0.28696(16) 0.1376(6) 0.5350(3)
H11 H 0.2675 0.2136 0.4855
C10 C 0.1084(2) 0.1221(10) 0.8456(4)
H12 H 0.1050 0.0539 0.7960
H13 H 0.0920 0.0576 0.8701
C11 C 0.0269(2) 0.2865(10) 0.7276(5)
H14 H 0.0276 0.2378 0.6781
C12 C 0.0056(2) 0.4700(9) 0.6969(5)
H15 H -0.0295 0.4641 0.6430
H16 H 0.0269 0.5338 0.6829
H17 H 0.0058 0.5287 0.7453
C13 C -0.00699(15) 0.1652(5) 0.7402(3)
C14 C -0.02422(19) 0.0078(6) 0.6921(3)
H18 H -0.0143 -0.0238 0.6531
C15 C -0.05625(19) -0.1023(5) 0.7022(3)
H19 H -0.0678 -0.2075 0.6700
C16 C -0.07104(16) -0.0550(6) 0.7604(3)
H20 H -0.0925 -0.1287 0.7672
C17 C -0.05381(16) 0.1023(6) 0.8086(3)
H21 H -0.0637 0.1339 0.8475
C18 C -0.02179(15) 0.2124(5) 0.7985(3)
H22 H -0.0103 0.3177 0.8307
C19 C 0.0948(3) -0.0564(9) 0.6235(5)
C20 C 0.0474(2) 0.0447(9) 0.5565(4)
C21 C 0.0469(2) 0.2263(9) 0.5542(4)
C22 C 0.0954(2) 0.3384(9) 0.6049(4)
C23 C 0.0000 0.3217(13) 0.5000
H23 H 0.0000 0.4437 0.5000
C24 C 0.0000 -0.0458(12) 0.5000
H24 H 0.0000 -0.1678 0.5000
C25 C 0.4145(2) 1.4041(8) 0.9821(4)
C26 C 0.4587(2) 1.3026(9) 0.9920(4)
C27 C 0.4593(2) 1.1201(10) 0.9936(4)
C28 C 0.4192(2) 1.0084(9) 0.9942(5)
C29 C 0.5000 1.0302(12) 1.0000
H25 H 0.5000 0.9082 1.0000
C30 C 0.5000 1.3852(12) 1.0000
H26 H 0.5000 1.5072 1.0000
N1 N 0.22422(19) 0.2559(6) 0.6462(3)
H27 H 0.1935 0.3053 0.6279
H28 H 0.2320 0.1770 0.6902
N2 N 0.0824(2) 0.2943(7) 0.8099(3)
H29 H 0.1009 0.3582 0.7951
H30 H 0.0831 0.3511 0.8554
O1 O 0.25339(17) 0.4293(6) 0.8232(3)
O2 O 0.20779(15) 0.6419(6) 0.6962(3)
O3 O 0.30447(17) 0.6616(6) 0.7999(3)
O4 O 0.19842(16) 0.2742(6) 0.8963(3)
O5 O 0.18003(14) 0.2421(6) 1.0155(3)
O6 O 0.20017(14) -0.0261(6) 0.9566(3)
O7 O 0.09214(18) -0.2204(6) 0.6086(3)
O8 O 0.13292(19) 0.0208(7) 0.6846(3)
O9 O 0.12006(16) 0.3570(6) 0.5705(3)
O10 O 0.10555(16) 0.4163(6) 0.6771(3)
O11 O 0.41846(16) 1.5698(6) 0.9801(3)
O12 O 0.37726(18) 1.3313(7) 0.9718(3)
O13 O 0.42360(16) 0.9821(6) 1.0662(3)
O14 O 0.38707(17) 0.9324(6) 0.9189(3)
O15 O 0.31338(16) 0.1163(6) 0.9909(3)
H31 H 0.3457 0.1336 0.9970
H32 H 0.2959 0.0154 0.9531
O16 O 0.16679(18) 0.6800(6) 0.8268(3)
H33 H 0.1779 0.5740 0.8624
H34 H 0.1946 0.7641 0.8558
P1 P 0.25828(5) 0.5427(2) 0.75961(10)
P2 P 0.17698(6) 0.1545(2) 0.93559(11)
Zn1 Zn 0.26875(3) 0.32663(9) 0.93253(4)
Zn2 Zn 0.14784(2) 0.62634(9) 0.69838(5)
Zn3 Zn 0.35736(3) 0.71382(9) 0.92693(5)
C1C C 0.2349(2) 0.8947(9) 1.3127(4)
H1C H 0.2371 0.9610 1.3618
H2C H 0.2008 0.8399 1.2766
C2C C 0.2821(2) 0.6599(8) 1.4350(4)
H3C H 0.2947 0.7431 1.4841
C3C C 0.3236(3) 0.5217(10) 1.4668(5)
H4C H 0.3286 0.4609 1.5189
H5C H 0.3557 0.5765 1.4839
H6C H 0.3130 0.4399 1.4178
C4C C 0.23068(14) 0.5916(6) 1.4108(3)
C5C C 0.20155(16) 0.4780(6) 1.3369(3)
H7C H 0.2134 0.4472 1.3007
C6C C 0.15478(16) 0.4106(6) 1.3172(3)
H8C H 0.1353 0.3346 1.2677
C7C C 0.13714(13) 0.4566(6) 1.3714(3)
H9C H 0.1059 0.4115 1.3582
C8C C 0.16627(16) 0.5702(6) 1.4453(3)
H10C H 0.1545 0.6010 1.4815
C9C C 0.21304(16) 0.6376(6) 1.4650(3)
H11C H 0.2325 0.7136 1.5145
C10C C 0.3916(2) 0.6221(10) 1.1544(4)
H12C H 0.3950 0.5539 1.2040
H13C H 0.4080 0.5576 1.1299
C11C C 0.4731(2) 0.7865(10) 1.2724(5)
H14C H 0.4724 0.7378 1.3219
C12C C 0.4944(2) 0.9700(9) 1.3031(5)
H15C H 0.5295 0.9641 1.3570
H16C H 0.4731 1.0338 1.3171
H17C H 0.4942 1.0287 1.2547
C13C C 0.50699(15) 0.6652(5) 1.2598(3)
C14C C 0.52422(19) 0.5078(6) 1.3079(3)
H18C H 0.5143 0.4762 1.3469
C15C C 0.55625(19) 0.3977(5) 1.2978(3)
H19C H 0.5678 0.2925 1.3300
C16C C 0.57104(16) 0.4450(6) 1.2396(3)
H20C H 0.5925 0.3713 1.2328
C17C C 0.55381(16) 0.6023(6) 1.1914(3)
H21C H 0.5637 0.6339 1.1525
C18C C 0.52179(15) 0.7124(5) 1.2015(3)
H22C H 0.5103 0.8177 1.1693
C19A C -0.0948(3) -0.0564(9) 0.3765(5)
C20A C -0.0474(2) 0.0447(9) 0.4435(4)
C21A C -0.0469(2) 0.2263(9) 0.4458(4)
C22A C -0.0954(2) 0.3384(9) 0.3951(4)
C25A C 0.5855(2) 1.4041(8) 1.0179(4)
C26A C 0.5413(2) 1.3026(9) 1.0080(4)
C27A C 0.5407(2) 1.1201(10) 1.0064(4)
C28A C 0.5808(2) 1.0084(9) 1.0058(5)
N1C N 0.27578(19) 0.7559(6) 1.3538(3)
H27C H 0.3065 0.8053 1.3721
H28C H 0.2680 0.6770 1.3098
N2C N 0.4176(2) 0.7943(7) 1.1901(3)
H29C H 0.3991 0.8582 1.2049
H30C H 0.4169 0.8511 1.1446
O1C O 0.24661(17) 0.9293(6) 1.1768(3)
O2C O 0.29221(15) 1.1419(6) 1.3038(3)
O3C O 0.19553(17) 1.1616(6) 1.2001(3)
O3C_2 O 0.19553(17) 0.1616(6) 1.2001(3)
O4C O 0.30158(16) 0.7742(6) 1.1037(3)
O5C O 0.31997(14) 0.7421(6) 0.9845(3)
O6C O 0.29983(14) 0.4739(6) 1.0434(3)
O6_2 O 0.20017(14) 0.9739(6) 0.9566(3)
O7A O -0.09214(18) -0.2204(6) 0.3914(3)
O7_2 O 0.09214(18) 0.7796(6) 0.6086(3)
O7C O 0.40786(18) 1.2796(6) 1.3914(3)
O8A O -0.13292(19) 0.0208(7) 0.3154(3)
O9A O -0.12006(16) 0.3570(6) 0.4295(3)
O10A O -0.10555(16) 0.4163(6) 0.3229(3)
O10C O 0.39445(16) 0.9163(6) 1.3229(3)
O11A O 0.58154(16) 1.5698(6) 1.0199(3)
O11_2 O 0.41846(16) 0.5698(6) 0.9801(3)
O11C O 0.08154(16) 0.0698(6) 1.0199(3)
O12A O 0.62274(18) 1.3313(7) 1.0282(3)
O13A O 0.57640(16) 0.9821(6) 0.9338(3)
O14A O 0.61293(17) 0.9324(6) 1.0811(3)
O14C O 0.11293(17) 0.4324(6) 1.0811(3)
O15C O 0.18662(16) 0.6163(6) 1.0091(3)
H31C H 0.1543 0.6336 1.0030
H32C H 0.2041 0.5154 1.0469
O16C O 0.33321(18) 1.1800(6) 1.1732(3)
H33C H 0.3221 1.0740 1.1376
H34C H 0.3054 1.2641 1.1442
P1C P 0.24172(5) 1.0427(2) 1.24039(10)
P2C P 0.32302(6) 0.6545(2) 1.06441(11)
Zn1C Zn 0.23125(3) 0.82663(9) 1.06747(4)
Zn1C_2 Zn 0.23125(3) -0.17337(9) 1.06747(4)
Zn2A Zn -0.14784(2) 0.62634(9) 0.30162(5)
Zn2_2 Zn 0.14784(2) -0.37366(9) 0.69838(5)
Zn2A_2 Zn -0.14784(2) -0.37366(9) 0.30162(5)
Zn2C Zn 0.35216(2) 1.12634(9) 1.30162(5)
Zn3C Zn 0.14264(3) 0.21382(9) 1.07307(5)
Zn3_2 Zn 0.35736(3) 1.71382(9) 0.92693(5)
Zn3A Zn 0.64264(3) 1.71382(9) 1.07307(5)
Zn3A_2 Zn 0.64264(3) 0.71382(9) 1.07307(5)
Zn3C_2 Zn 0.14264(3) 1.21382(9) 1.07307(5)
O17 O 0.23966(17) 1.0204(6) 0.7839(3)
H35 H 0.2673 0.9618 0.8035
H36 H 0.2139 0.9509 0.7612
loop_
_geom_bond_atom_site_label_1
_geom_bond_atom_site_label_2
_geom_bond_site_symmetry_1
_geom_bond_site_symmetry_2
C1 H1 1_555 1_555
H2 C1 1_555 1_555
C2 H3 1_555 1_555
C3 C2 1_555 1_555
H4 C3 1_555 1_555
H5 C3 1_555 1_555
H6 C3 1_555 1_555
C4 C2 1_555 1_555
C5 C4 1_555 1_555
H7 C5 1_555 1_555
C6 C5 1_555 1_555
H8 C6 1_555 1_555
C7 C6 1_555 1_555
H9 C7 1_555 1_555
C8 C7 1_555 1_555
H10 C8 1_555 1_555
C9 C4 1_555 1_555
H11 C9 1_555 1_555
C10 H12 1_555 1_555
H13 C10 1_555 1_555
C11 H14 1_555 1_555
C12 C11 1_555 1_555
H15 C12 1_555 1_555
H16 C12 1_555 1_555
H17 C12 1_555 1_555
C13 C11 1_555 1_555
C14 C13 1_555 1_555
H18 C14 1_555 1_555
C15 C14 1_555 1_555
H19 C15 1_555 1_555
C16 C15 1_555 1_555
H20 C16 1_555 1_555
C17 C16 1_555 1_555
H21 C17 1_555 1_555
C18 C13 1_555 1_555
H22 C18 1_555 1_555
C19 C20 1_555 1_555
C20 C21 1_555 1_555
C21 C22 1_555 1_555
C22 O9 1_555 1_555
C23 C21 1_555 1_555
H23 C23 1_555 1_555
C24 C20 1_555 1_555
H24 C24 1_555 1_555
C25 C26 1_555 1_555
C26 C27 1_555 1_555
C27 C28 1_555 1_555
C28 O13 1_555 1_555
C29 C27 1_555 1_555
H25 C29 1_555 1_555
C30 C26 1_555 1_555
H26 C30 1_555 1_555
N1 C1 1_555 1_555
H27 N1 1_555 1_555
H28 N1 1_555 1_555
N2 C10 1_555 1_555
H29 N2 1_555 1_555
H30 N2 1_555 1_555
O1 P1 1_555 1_555
O2 P1 1_555 1_555
O3 P1 1_555 1_555
O4 P2 1_555 1_555
O5 P2 1_555 1_555
O6 P2 1_555 1_555
O7 C19 1_555 1_555
O8 C19 1_555 1_555
O10 C22 1_555 1_555
O11 C25 1_555 1_555
O12 C25 1_555 1_555
O14 C28 1_555 1_555
O15 H31 1_555 1_555
H32 O15 1_555 1_555
O16 H33 1_555 1_555
H34 O16 1_555 1_555
O17 H35 1_555 1_555
H36 O17 1_555 1_555
P1 C1 1_555 1_555
P2 C10 1_555 1_555
Zn1 O1 1_555 1_555
Zn2 O2 1_555 1_555
Zn3 O3 1_555 1_555
C1C H1C 1_555 1_555
H2C C1C 1_555 1_555
C2C H3C 1_555 1_555
C3C C2C 1_555 1_555
H4C C3C 1_555 1_555
H5C C3C 1_555 1_555
H6C C3C 1_555 1_555
C4C C2C 1_555 1_555
C5C C4C 1_555 1_555
H7C C5C 1_555 1_555
C6C C5C 1_555 1_555
H8C C6C 1_555 1_555
C7C C6C 1_555 1_555
H9C C7C 1_555 1_555
C8C C7C 1_555 1_555
H10C C8C 1_555 1_555
C9C C4C 1_555 1_555
H11C C9C 1_555 1_555
C10C H12C 1_555 1_555
H13C C10C 1_555 1_555
C11C H14C 1_555 1_555
C12C C11C 1_555 1_555
H15C C12C 1_555 1_555
H16C C12C 1_555 1_555
H17C C12C 1_555 1_555
C13C C11C 1_555 1_555
C14C C13C 1_555 1_555
H18C C14C 1_555 1_555
C15C C14C 1_555 1_555
H19C C15C 1_555 1_555
C16C C15C 1_555 1_555
H20C C16C 1_555 1_555
C17C C16C 1_555 1_555
H21C C17C 1_555 1_555
C18C C13C 1_555 1_555
H22C C18C 1_555 1_555
C19A C20A 1_555 1_555
C20A C24 1_555 1_555
C21A C23 1_555 1_555
C22A C21A 1_555 1_555
C25A C26A 1_555 1_555
C26A C30 1_555 1_555
C27A C29 1_555 1_555
C28A C27A 1_555 1_555
N1C C1C 1_555 1_555
H27C N1C 1_555 1_555
H28C N1C 1_555 1_555
N2C C10C 1_555 1_555
H29C N2C 1_555 1_555
H30C N2C 1_555 1_555
O1C P1C 1_555 1_555
O2C P1C 1_555 1_555
O3C P1C 1_555 1_555
O3C_2 Zn3C 1_555 1_555
O4C P2C 1_555 1_555
O5C Zn3 1_555 1_555
O6C Zn1 1_555 1_555
O6_2 Zn1C 1_555 1_555
O7A C19A 1_555 1_555
O7_2 Zn2 1_555 1_555
O7C Zn2C 1_555 1_555
O8A C19A 1_555 1_555
O9A C22A 1_555 1_555
O10A C22A 1_555 1_555
O10C Zn2C 1_555 1_555
O11A C25A 1_555 1_555
O11_2 Zn3 1_555 1_555
O11C Zn3C 1_555 1_555
O12A C25A 1_555 1_555
O13A C28A 1_555 1_555
O14A C28A 1_555 1_555
O14C Zn3C 1_555 1_555
O15C H31C 1_555 1_555
H32C O15C 1_555 1_555
O16C H33C 1_555 1_555
H34C O16C 1_555 1_555
P1C C1C 1_555 1_555
P2C C10C 1_555 1_555
Zn1C O1C 1_555 1_555
Zn1C_2 O6 1_555 1_555
Zn2A O10A 1_555 1_555
Zn2_2 O7 1_555 1_555
Zn2A_2 O7A 1_555 1_555
Zn2C O2C 1_555 1_555
Zn3C O5 1_555 1_555
Zn3_2 O11 1_555 1_555
Zn3A O11A 1_555 1_555
Zn3A_2 O14A 1_555 1_555
Zn3C_2 O3C 1_555 1_555
C2 N1 1_555 1_555
C8 C9 1_555 1_555
C11 N2 1_555 1_555
C17 C18 1_555 1_555
O4 Zn1 1_555 1_555
O10 Zn2 1_555 1_555
O14 Zn3 1_555 1_555
O15 Zn1 1_555 1_555
O16 Zn2 1_555 1_555
C2C N1C 1_555 1_555
C8C C9C 1_555 1_555
C11C N2C 1_555 1_555
C17C C18C 1_555 1_555
C20A C21A 1_555 1_555
C26A C27A 1_555 1_555
O4C Zn1C 1_555 1_555
O5C P2C 1_555 1_555
O6C P2C 1_555 1_555
O15C Zn1C 1_555 1_555
O16C Zn2C 1_555 1_555

#END
