
#######################################################################
#
#                 Cambridge Crystallographic Data Centre
#                                CCDC 
#
#######################################################################
#
# If this CIF has been generated from an entry in the Cambridge 
# Structural Database, then it will include bibliographic, chemical, 
# crystal, experimental, refinement or atomic coordinate data resulting 
# from the CCDC's data processing and validation procedures.
#
#######################################################################

data_OGOSIN
_symmetry_cell_setting           orthorhombic
_symmetry_space_group_name_H-M   'P c c a'
_symmetry_Int_Tables_number      54
_space_group_name_Hall           '-P 2a 2ac'
loop_
_symmetry_equiv_pos_site_id
_symmetry_equiv_pos_as_xyz
1 x,y,z
2 1/2-x,-y,z
3 -x,y,1/2-z
4 1/2+x,-y,1/2-z
5 -x,-y,-z
6 1/2+x,y,-z
7 x,-y,1/2+z
8 1/2-x,y,1/2+z
_cell_length_a                   11.090(2)
_cell_length_b                   8.0686(16)
_cell_length_c                   21.934(4)
_cell_angle_alpha                90
_cell_angle_beta                 90
_cell_angle_gamma                90
_cell_volume                     1962.67
loop_
_atom_site_label
_atom_site_type_symbol
_atom_site_fract_x
_atom_site_fract_y
_atom_site_fract_z
Cl1 Cl 0.09928(4) 0.77404(6) 0.37592(2)
Cu1 Cu 0.2500 0.5000 0.364606(13)
N1 N 0.10783(14) 0.3437(2) 0.38053(6)
N2 N 0.2500 0.5000 0.45270(9)
C1 C 0.04075(18) 0.2635(3) 0.33974(8)
H1 H 0.0580 0.2783 0.2981
C2 C -0.05301(19) 0.1595(3) 0.35576(9)
H2 H -0.0991 0.1055 0.3258
C3 C -0.07729(18) 0.1368(3) 0.41723(9)
H3 H -0.1403 0.0665 0.4296
N3 N 0.2500 0.5000 0.77354(9)
C4 C -0.00766(17) 0.2188(3) 0.46026(8)
H4 H -0.0231 0.2054 0.5021
C5 C 0.08462(16) 0.3204(2) 0.44069(7)
C6 C 0.16698(15) 0.4107(2) 0.48222(7)
C7 C 0.16449(16) 0.4078(2) 0.54556(7)
H5 H 0.1062 0.3449 0.5664
C8 C 0.2500 0.5000 0.57781(11)
C9 C 0.2500 0.5000 0.64580(11)
C10 C 0.1723(2) 0.4003(3) 0.67882(8)
H6 H 0.1180 0.3301 0.6584
C11 C 0.1746(2) 0.4038(3) 0.74202(8)
H7 H 0.1207 0.3356 0.7636
Cl1A Cl 0.40072(4) 0.22596(6) 0.37592(2)
Cu1F Cu 0.2500 0.5000 0.864606(13)
N1A N 0.39217(14) 0.6563(2) 0.38053(6)
C1A C 0.45925(18) 0.7365(3) 0.33974(8)
H1A H 0.4420 0.7217 0.2981
C2A C 0.55301(19) 0.8405(3) 0.35576(9)
H2A H 0.5991 0.8945 0.3258
C3A C 0.57729(18) 0.8632(3) 0.41723(9)
H3A H 0.6403 0.9335 0.4296
N3F N 0.2500 0.5000 0.27354(9)
C4A C 0.50766(17) 0.7812(3) 0.46026(8)
H4A H 0.5231 0.7946 0.5021
C5A C 0.41538(16) 0.6796(2) 0.44069(7)
C6A C 0.33302(15) 0.5893(2) 0.48222(7)
C7A C 0.33551(16) 0.5922(2) 0.54556(7)
H5A H 0.3938 0.6551 0.5664
C10A C 0.3277(2) 0.5997(3) 0.67882(8)
H6A H 0.3820 0.6699 0.6584
C11A C 0.3254(2) 0.5962(3) 0.74202(8)
H7A H 0.3793 0.6644 0.7636
O1 O 0.2500 1.0000 0.47106(11)
H8 H 0.211(2) 0.949(3) 0.4463(11)
H8A H 0.289(2) 1.051(3) 0.4463(11)
O2 O 0.2500 1.0000 0.27506(14)
H9 H 0.202(3) 0.956(4) 0.2978(14)
H9A H 0.298(3) 1.044(4) 0.2978(14)
loop_
_geom_bond_atom_site_label_1
_geom_bond_atom_site_label_2
_geom_bond_site_symmetry_1
_geom_bond_site_symmetry_2
Cl1 Cu1 1_555 1_555
Cu1 N1 1_555 1_555
N1 C1 1_555 1_555
N2 Cu1 1_555 1_555
C1 H1 1_555 1_555
C2 C1 1_555 1_555
H2 C2 1_555 1_555
C3 C2 1_555 1_555
H3 C3 1_555 1_555
N3 C11 1_555 1_555
C4 C3 1_555 1_555
H4 C4 1_555 1_555
C5 N1 1_555 1_555
C6 N2 1_555 1_555
C7 C6 1_555 1_555
H5 C7 1_555 1_555
C8 C7 1_555 1_555
C9 C8 1_555 1_555
C10 C9 1_555 1_555
H6 C10 1_555 1_555
C11 C10 1_555 1_555
H7 C11 1_555 1_555
O1 H8 1_555 1_555
O2 H9 1_555 1_555
Cl1A Cu1 1_555 1_555
Cu1F N3 1_555 1_555
N1A Cu1 1_555 1_555
C1A N1A 1_555 1_555
H1A C1A 1_555 1_555
C2A C1A 1_555 1_555
H2A C2A 1_555 1_555
C3A C2A 1_555 1_555
H3A C3A 1_555 1_555
N3F Cu1 1_555 1_555
C4A C3A 1_555 1_555
H4A C4A 1_555 1_555
C5A N1A 1_555 1_555
C6A N2 1_555 1_555
C7A C8 1_555 1_555
H5A C7A 1_555 1_555
C10A C9 1_555 1_555
H6A C10A 1_555 1_555
C11A N3 1_555 1_555
H7A C11A 1_555 1_555
H8A O1 1_555 1_555
H9A O2 1_555 1_555
C4 C5 1_555 1_555
C5 C6 1_555 1_555
C4A C5A 1_555 1_555
C5A C6A 1_555 1_555
C6A C7A 1_555 1_555
C10A C11A 1_555 1_555

#END
