
#######################################################################
#
#                 Cambridge Crystallographic Data Centre
#                                CCDC 
#
#######################################################################
#
# If this CIF has been generated from an entry in the Cambridge 
# Structural Database, then it will include bibliographic, chemical, 
# crystal, experimental, refinement or atomic coordinate data resulting 
# from the CCDC's data processing and validation procedures.
#
#######################################################################

data_OGOSUA
_symmetry_cell_setting           rhombohedral
_symmetry_space_group_name_H-M   'R -3'
_symmetry_Int_Tables_number      148
_space_group_name_Hall           '-R 3'
loop_
_symmetry_equiv_pos_site_id
_symmetry_equiv_pos_as_xyz
1 x,y,z
2 -y,x-y,z
3 -x+y,-x,z
4 2/3+x,1/3+y,1/3+z
5 2/3-y,1/3+x-y,1/3+z
6 2/3-x+y,1/3-x,1/3+z
7 1/3+x,2/3+y,2/3+z
8 1/3-y,2/3+x-y,2/3+z
9 1/3-x+y,2/3-x,2/3+z
10 -x,-y,-z
11 y,-x+y,-z
12 x-y,x,-z
13 1/3-x,2/3-y,2/3-z
14 1/3+y,2/3-x+y,2/3-z
15 1/3+x-y,2/3+x,2/3-z
16 2/3-x,1/3-y,1/3-z
17 2/3+y,1/3-x+y,1/3-z
18 2/3+x-y,1/3+x,1/3-z
_cell_length_a                   22.9441(14)
_cell_length_b                   22.9441(14)
_cell_length_c                   14.6544(7)
_cell_angle_alpha                90
_cell_angle_beta                 90
_cell_angle_gamma                120
_cell_volume                     6680.99
loop_
_atom_site_label
_atom_site_type_symbol
_atom_site_fract_x
_atom_site_fract_y
_atom_site_fract_z
Cu1 Cu 0.80170(15) 0.62401(15) 0.49960(18)
O1 O 0.9169(7) 0.6670(7) 0.2792(7)
O2 O 0.8750(6) 0.6432(6) 0.4186(8)
O3 O 0.7549(5) 0.6414(6) 0.4048(8)
O4 O 0.7209(6) 0.6338(6) 0.2625(8)
C1 C 0.8696(11) 0.6449(10) 0.3314(13)
C2 C 0.8001(10) 0.6010(8) 0.2902(11)
C3 C 0.7949(9) 0.5763(9) 0.1906(10)
H1 H 0.7680 0.5876 0.1514
H2 H 0.8381 0.5892 0.1628
C4 C 0.7573(9) 0.5033(10) 0.2261(9)
H3 H 0.7089 0.4812 0.2184
H4 H 0.7749 0.4756 0.2024
C5 C 0.7813(10) 0.5294(9) 0.3239(13)
H5 H 0.8195 0.5255 0.3437
H6 H 0.7456 0.5110 0.3690
C6 C 0.7476(10) 0.6183(10) 0.3228(14)
O5 O 0.6934(6) 0.5668(6) 0.7197(6)
O6 O 0.7218(6) 0.5863(6) 0.5744(7)
O7 O 0.8552(7) 0.6284(6) 0.6031(7)
O8 O 0.8690(6) 0.5869(6) 0.7316(7)
C7 C 0.7148(9) 0.5549(10) 0.6500(10)
C8 C 0.7628(9) 0.5275(8) 0.6645(9)
C9 C 0.7479(10) 0.4640(9) 0.6077(9)
H7 H 0.7042 0.4423 0.5784
H8 H 0.7832 0.4718 0.5645
C10 C 0.7504(9) 0.4293(9) 0.6962(7)
H9 H 0.7923 0.4295 0.7051
H10 H 0.7121 0.3844 0.7042
C11 C 0.7454(10) 0.4844(11) 0.7516(9)
H11 H 0.7006 0.4699 0.7751
H12 H 0.7789 0.5046 0.7995
C12 C 0.8366(10) 0.5830(11) 0.6646(10)
Ba1 Ba 0.99341(7) 0.68010(7) 0.50752(10)
O1D O 0.9997(7) 0.5832(10) 0.6125(7)
O3K O 1.1135(8) 0.7549(5) 0.5952(8)
O4M O 0.9671(6) 0.5796(8) 0.4042(8)
O5O O 0.9733(6) 0.7665(6) 0.6136(6)
O6K O 1.1355(8) 0.7218(6) 0.4256(7)
O8H O 1.0512(8) 0.7977(6) 0.3983(7)
Ba1D Ba 0.98657(7) 0.64664(10) 0.84085(10)
Ba1H Ba 1.02002(10) 0.67326(7) 0.17419(10)
Ba1J Ba 0.68010(7) 0.68669(10) 0.49248(10)
Ba1O Ba 0.67326(7) 0.65323(7) 0.82581(10)
Ba1N Ba 0.64664(10) 0.66008(7) 0.15915(10)
loop_
_geom_bond_atom_site_label_1
_geom_bond_atom_site_label_2
_geom_bond_site_symmetry_1
_geom_bond_site_symmetry_2
Cu1 O2 1_555 1_555
O1 C1 1_555 1_555
O2 C1 1_555 1_555
O3 Cu1 1_555 1_555
O4 C6 1_555 1_555
C1 C2 1_555 1_555
C2 C3 1_555 1_555
C3 H1 1_555 1_555
H2 C3 1_555 1_555
C4 C3 1_555 1_555
H3 C4 1_555 1_555
H4 C4 1_555 1_555
C5 C2 1_555 1_555
H5 C5 1_555 1_555
H6 C5 1_555 1_555
C6 O3 1_555 1_555
O5 C7 1_555 1_555
O6 Cu1 1_555 1_555
O7 Cu1 1_555 1_555
O8 C12 1_555 1_555
C7 O6 1_555 1_555
C8 C7 1_555 1_555
C9 C8 1_555 1_555
H7 C9 1_555 1_555
H8 C9 1_555 1_555
C10 C9 1_555 1_555
H9 C10 1_555 1_555
H10 C10 1_555 1_555
C11 C8 1_555 1_555
H11 C11 1_555 1_555
H12 C11 1_555 1_555
C12 O7 1_555 1_555
Ba1 O2 1_555 1_555
O1D Ba1 1_555 1_555
O3K Ba1 1_555 1_555
O4M Ba1 1_555 1_555
O5O Ba1 1_555 1_555
O6K Ba1 1_555 1_555
O8H Ba1 1_555 1_555
Ba1D O8 1_555 1_555
Ba1H O1 1_555 1_555
Ba1J O3 1_555 1_555
Ba1O O5 1_555 1_555
Ba1N O4 1_555 1_555
C2 C6 1_555 1_555
C4 C5 1_555 1_555
O6 Ba1J 1_555 1_555
O7 Ba1 1_555 1_555
C8 C12 1_555 1_555
C10 C11 1_555 1_555

#END
