
#######################################################################
#
#                 Cambridge Crystallographic Data Centre
#                                CCDC 
#
#######################################################################
#
# If this CIF has been generated from an entry in the Cambridge 
# Structural Database, then it will include bibliographic, chemical, 
# crystal, experimental, refinement or atomic coordinate data resulting 
# from the CCDC's data processing and validation procedures.
#
#######################################################################

data_OGOSEI01
_symmetry_cell_setting           orthorhombic
_symmetry_space_group_name_H-M   'C m c a'
_symmetry_Int_Tables_number      64
_space_group_name_Hall           '-C 2ac 2'
loop_
_symmetry_equiv_pos_site_id
_symmetry_equiv_pos_as_xyz
1 x,y,z
2 1/2+x,1/2+y,z
3 x,1/2+y,1/2-z
4 x,1/2-y,1/2+z
5 -x,y,z
6 1/2+x,y,1/2-z
7 1/2+x,-y,1/2+z
8 1/2-x,1/2+y,z
9 -x,-y,-z
10 1/2-x,1/2-y,-z
11 -x,1/2-y,1/2+z
12 -x,1/2+y,1/2-z
13 x,-y,-z
14 1/2-x,-y,1/2+z
15 1/2-x,y,1/2-z
16 1/2+x,1/2-y,-z
_cell_length_a                   21.073(6)
_cell_length_b                   7.118(2)
_cell_length_c                   17.670(5)
_cell_angle_alpha                90
_cell_angle_beta                 90
_cell_angle_gamma                90
_cell_volume                     2650.46
loop_
_atom_site_label
_atom_site_type_symbol
_atom_site_fract_x
_atom_site_fract_y
_atom_site_fract_z
Cu1 Cu 0.5000 0.08840(10) 0.56441(4)
O1 O 0.43582(15) 0.2443(5) 0.51458(18)
O2 O 0.43573(18) 0.0918(5) 0.4038(2)
O3 O 0.5000 0.2772(9) 0.6667(3)
C1 C 0.3419(2) 0.5010(7) 0.4574(3)
C2 C 0.3751(2) 0.3711(6) 0.4131(3)
C3 C 0.3717(3) 0.3818(7) 0.3342(3)
H1 H 0.3945 0.2948 0.3049
C4 C 0.3356(3) 0.5174(8) 0.2983(3)
H2 H 0.3344 0.5238 0.2452
C5 C 0.3013(3) 0.6434(8) 0.3417(3)
H3 H 0.2757 0.7345 0.3182
C6 C 0.3047(3) 0.6352(8) 0.4197(3)
H4 H 0.2814 0.7223 0.4484
C7 C 0.4184(2) 0.2242(6) 0.4474(3)
C1L C 0.3419(2) 0.4990(7) 0.5426(3)
C2L C 0.3751(2) 0.6289(6) 0.5869(3)
C3L C 0.3717(3) 0.6182(7) 0.6658(3)
H1L H 0.3945 0.7052 0.6951
C4L C 0.3356(3) 0.4826(8) 0.7017(3)
H2L H 0.3344 0.4762 0.7548
C5L C 0.3013(3) 0.3566(8) 0.6583(3)
H3L H 0.2757 0.2655 0.6818
C6L C 0.3047(3) 0.3648(8) 0.5803(3)
H4L H 0.2814 0.2777 0.5516
C7L C 0.4184(2) 0.7758(6) 0.5526(3)
O1L O 0.43582(15) 0.7557(5) 0.48542(18)
O2L O 0.43573(18) 0.9082(5) 0.5962(2)
Cu1H Cu 0.5000 -0.08840(10) 0.43559(4)
O1D O 0.56418(15) 0.2443(5) 0.51458(18)
O2H O 0.56427(18) -0.0918(5) 0.5962(2)
O2L_2 O 0.43573(18) -0.0918(5) 0.5962(2)
Cu1H_2 Cu 0.5000 0.91160(10) 0.43559(4)
Cu1_2 Cu 0.5000 1.08840(10) 0.56441(4)
loop_
_geom_bond_atom_site_label_1
_geom_bond_atom_site_label_2
_geom_bond_site_symmetry_1
_geom_bond_site_symmetry_2
Cu1 O1 1_555 1_555
O1 C7 1_555 1_555
O2 C7 1_555 1_555
O3 Cu1 1_555 1_555
C1 C2 1_555 1_555
C2 C3 1_555 1_555
C3 H1 1_555 1_555
C4 C3 1_555 1_555
H2 C4 1_555 1_555
C5 C4 1_555 1_555
H3 C5 1_555 1_555
C6 C1 1_555 1_555
H4 C6 1_555 1_555
C7 C2 1_555 1_555
C1L C1 1_555 1_555
C2L C1L 1_555 1_555
C3L C2L 1_555 1_555
H1L C3L 1_555 1_555
C4L C3L 1_555 1_555
H2L C4L 1_555 1_555
C5L C4L 1_555 1_555
H3L C5L 1_555 1_555
C6L C1L 1_555 1_555
H4L C6L 1_555 1_555
C7L C2L 1_555 1_555
O1L C7L 1_555 1_555
O2L C7L 1_555 1_555
Cu1H Cu1 1_555 1_555
O1D Cu1 1_555 1_555
O2H Cu1 1_555 1_555
O2L_2 Cu1 1_555 1_555
Cu1H_2 O1L 1_555 1_555
Cu1_2 O2L 1_555 1_555
O2 Cu1H 1_555 1_555
C5 C6 1_555 1_555
C5L C6L 1_555 1_555
Cu1H_2 Cu1_2 1_555 1_555

#END
