
#######################################################################
#
#                 Cambridge Crystallographic Data Centre
#                                CCDC 
#
#######################################################################
#
# If this CIF has been generated from an entry in the Cambridge 
# Structural Database, then it will include bibliographic, chemical, 
# crystal, experimental, refinement or atomic coordinate data resulting 
# from the CCDC's data processing and validation procedures.
#
#######################################################################

data_OGOWIR
_symmetry_cell_setting           orthorhombic
_symmetry_space_group_name_H-M   'P b c n'
_symmetry_Int_Tables_number      60
_space_group_name_Hall           '-P 2n 2ab'
loop_
_symmetry_equiv_pos_site_id
_symmetry_equiv_pos_as_xyz
1 x,y,z
2 1/2-x,1/2-y,1/2+z
3 1/2+x,1/2-y,-z
4 -x,y,1/2-z
5 -x,-y,-z
6 1/2+x,1/2+y,1/2-z
7 1/2-x,1/2+y,z
8 x,-y,1/2+z
_cell_length_a                   20.621(5)
_cell_length_b                   11.347(5)
_cell_length_c                   20.071(5)
_cell_angle_alpha                90
_cell_angle_beta                 90
_cell_angle_gamma                90
_cell_volume                     4696.34
loop_
_atom_site_label
_atom_site_type_symbol
_atom_site_fract_x
_atom_site_fract_y
_atom_site_fract_z
C1 C 0.3580(3) 0.0912(5) -0.1560(3)
H1 H 0.3468 0.1316 -0.1174
C2 C 0.4073(3) 0.0070(5) -0.1550(3)
C3 C 0.4240(3) -0.0519(5) -0.2126(3)
H2 H 0.4570 -0.1076 -0.2112
C4 C 0.3931(3) -0.0304(5) -0.2719(3)
H3 H 0.4050 -0.0704 -0.3105
C5 C 0.2978(3) 0.0523(5) -0.3928(3)
H4 H 0.3267 -0.0039 -0.4089
C6 C 0.2508(3) 0.0991(5) -0.4339(3)
H5 H 0.2478 0.0741 -0.4779
C7 C 0.2076(3) 0.1844(5) -0.4095(3)
C8 C 0.2122(3) 0.2215(5) -0.3437(3)
H6 H 0.1836 0.2779 -0.3273
C9 C 0.2720(3) 0.2008(6) -0.2296(3)
C10 C 0.3262(3) 0.1137(5) -0.2150(3)
C11 C 0.3441(3) 0.0522(5) -0.2730(3)
C12 C 0.3015(3) 0.0898(5) -0.3274(3)
C13 C 0.2591(3) 0.1743(5) -0.3029(3)
C14 C 0.2956(4) 0.3285(6) -0.2201(4)
H7 H 0.2606 0.3820 -0.2292
H8 H 0.3101 0.3392 -0.1750
H9 H 0.3308 0.3439 -0.2501
C15 C 0.2128(4) 0.1783(7) -0.1855(3)
H10 H 0.1797 0.2352 -0.1955
H11 H 0.1964 0.1005 -0.1939
H12 H 0.2250 0.1849 -0.1395
C16 C 0.4425(3) -0.0183(6) -0.0922(3)
C17 C 0.1533(3) 0.2276(6) -0.4532(4)
C18 C 0.4965(4) 0.3559(7) -0.0549(3)
H13 H 0.4542 0.3842 -0.0560
C19 C 0.5798(4) 0.2475(10) -0.0366(5)
H14 H 0.6062 0.1855 -0.0231
C20 C 0.5991(6) 0.3455(13) -0.0678(6)
H15 H 0.6418 0.3637 -0.0788
C21 C 0.5466(6) 0.5267(9) -0.1142(4)
H16 H 0.5901 0.5593 -0.1146
H17 H 0.5192 0.5799 -0.0889
C22 C 0.5219(5) 0.5205(8) -0.1844(4)
C23 C 0.5125(6) 0.4152(9) -0.2170(4)
H18 H 0.5223 0.3445 -0.1959
C24 C 0.5140(7) 0.6183(9) -0.2180(4)
H19 H 0.5272 0.6893 -0.1993
N1 N 0.5138(3) 0.2552(5) -0.0281(3)
N2 N 0.5481(5) 0.4128(7) -0.0807(3)
O1 O 0.4227(2) 0.0245(4) -0.0377(2)
O2 O 0.4914(2) -0.0848(4) -0.0946(2)
O3 O 0.1131(2) 0.2980(4) -0.4250(2)
O4 O 0.1486(2) 0.1973(5) -0.5118(2)
Zn1 Zn 0.45656(3) 0.14527(6) 0.02111(3)
C1A C 0.1420(3) 0.4088(5) 0.3440(3)
H1A H 0.1532 0.3684 0.3826
C2A C 0.0927(3) 0.4930(5) 0.3450(3)
C3A C 0.0760(3) 0.5519(5) 0.2874(3)
H2A H 0.0430 0.6076 0.2888
C4A C 0.1069(3) 0.5304(5) 0.2281(3)
H3A H 0.0950 0.5704 0.1895
C5A C 0.2022(3) 0.4477(5) 0.1072(3)
H4A H 0.1733 0.5039 0.0911
C6A C 0.2492(3) 0.4009(5) 0.0661(3)
H5A H 0.2522 0.4259 0.0221
C7A C 0.2924(3) 0.3156(5) 0.0905(3)
C8A C 0.2878(3) 0.2785(5) 0.1563(3)
H6A H 0.3164 0.2221 0.1727
C9A C 0.2280(3) 0.2992(6) 0.2704(3)
C10A C 0.1738(3) 0.3863(5) 0.2850(3)
C11A C 0.1559(3) 0.4478(5) 0.2270(3)
C12A C 0.1985(3) 0.4102(5) 0.1726(3)
C13A C 0.2409(3) 0.3257(5) 0.1971(3)
C14A C 0.2044(4) 0.1715(6) 0.2799(4)
H7A H 0.2394 0.1180 0.2708
H8A H 0.1899 0.1608 0.3250
H9A H 0.1692 0.1561 0.2499
C15A C 0.2872(4) 0.3217(7) 0.3145(3)
H10A H 0.3203 0.2648 0.3045
H11A H 0.3036 0.3995 0.3061
H12A H 0.2750 0.3151 0.3605
C16A C 0.0575(3) 0.5183(6) 0.4078(3)
C17A C 0.3467(3) 0.2724(6) 0.0468(4)
C18C C 0.5035(4) 0.3559(7) -0.4451(3)
H13C H 0.5458 0.3842 -0.4440
C19C C 0.4202(4) 0.2475(10) -0.4634(5)
H14C H 0.3938 0.1855 -0.4769
C20C C 0.4009(6) 0.3455(13) -0.4322(6)
H15C H 0.3582 0.3637 -0.4212
C21C C 0.4534(6) 0.5267(9) -0.3858(4)
H16C H 0.4099 0.5593 -0.3854
H17C H 0.4808 0.5799 -0.4111
C22C C 0.4781(5) 0.5205(8) -0.3156(4)
C23C C 0.4875(6) 0.4152(9) -0.2830(4)
H18C H 0.4777 0.3445 -0.3041
C24C C 0.4860(7) 0.6183(9) -0.2820(4)
H19C H 0.4728 0.6893 -0.3007
N1C N 0.4862(3) 0.2552(5) -0.4719(3)
N2C N 0.4519(5) 0.4128(7) -0.4193(3)
O1A O 0.0773(2) 0.4755(4) 0.4623(2)
O1C O 0.5773(2) 0.0245(4) -0.4623(2)
O2A O 0.0086(2) 0.5848(4) 0.4054(2)
O2D O 0.5086(2) 0.0848(4) 0.0946(2)
O2G O 0.4914(2) 0.0848(4) -0.5946(2)
O3A O 0.3869(2) 0.2020(4) 0.0750(2)
O3B O 0.6131(2) 0.2020(4) -0.5750(2)
O4A O 0.3514(2) 0.3027(5) -0.0118(2)
Zn1C Zn 0.54344(3) 0.14527(6) -0.52111(3)
Zn1D Zn 0.54344(3) -0.14527(6) -0.02111(3)
Zn1A Zn 0.04344(3) 0.35473(6) -0.47889(3)
Zn1A_2 Zn 0.04344(3) 0.35473(6) 0.52111(3)
Zn1E Zn -0.04344(3) 0.64527(6) 0.47889(3)
loop_
_geom_bond_atom_site_label_1
_geom_bond_atom_site_label_2
_geom_bond_site_symmetry_1
_geom_bond_site_symmetry_2
C1 H1 1_555 1_555
C2 C1 1_555 1_555
C3 C2 1_555 1_555
H2 C3 1_555 1_555
C4 C3 1_555 1_555
H3 C4 1_555 1_555
C5 H4 1_555 1_555
C6 C5 1_555 1_555
H5 C6 1_555 1_555
C7 C6 1_555 1_555
C8 C7 1_555 1_555
H6 C8 1_555 1_555
C9 C10 1_555 1_555
C10 C1 1_555 1_555
C11 C4 1_555 1_555
C12 C5 1_555 1_555
C13 C8 1_555 1_555
C14 C9 1_555 1_555
H7 C14 1_555 1_555
H8 C14 1_555 1_555
H9 C14 1_555 1_555
C15 C9 1_555 1_555
H10 C15 1_555 1_555
H11 C15 1_555 1_555
H12 C15 1_555 1_555
C16 C2 1_555 1_555
C17 C7 1_555 1_555
C18 H13 1_555 1_555
C19 H14 1_555 1_555
C20 C19 1_555 1_555
H15 C20 1_555 1_555
C21 H16 1_555 1_555
H17 C21 1_555 1_555
C22 C21 1_555 1_555
C23 C22 1_555 1_555
H18 C23 1_555 1_555
C24 C22 1_555 1_555
H19 C24 1_555 1_555
N1 C18 1_555 1_555
N2 C18 1_555 1_555
O1 C16 1_555 1_555
O2 C16 1_555 1_555
O3 C17 1_555 1_555
O4 C17 1_555 1_555
Zn1 N1 1_555 1_555
C1A H1A 1_555 1_555
C2A C1A 1_555 1_555
C3A C2A 1_555 1_555
H2A C3A 1_555 1_555
C4A C3A 1_555 1_555
H3A C4A 1_555 1_555
C5A H4A 1_555 1_555
C6A C5A 1_555 1_555
H5A C6A 1_555 1_555
C7A C6A 1_555 1_555
C8A C7A 1_555 1_555
H6A C8A 1_555 1_555
C9A C10A 1_555 1_555
C10A C1A 1_555 1_555
C11A C4A 1_555 1_555
C12A C5A 1_555 1_555
C13A C8A 1_555 1_555
C14A C9A 1_555 1_555
H7A C14A 1_555 1_555
H8A C14A 1_555 1_555
H9A C14A 1_555 1_555
C15A C9A 1_555 1_555
H10A C15A 1_555 1_555
H11A C15A 1_555 1_555
H12A C15A 1_555 1_555
C16A C2A 1_555 1_555
C17A C7A 1_555 1_555
C18C H13C 1_555 1_555
C19C H14C 1_555 1_555
C20C C19C 1_555 1_555
H15C C20C 1_555 1_555
C21C H16C 1_555 1_555
H17C C21C 1_555 1_555
C22C C21C 1_555 1_555
C23C C23 1_555 1_555
H18C C23C 1_555 1_555
C24C C24 1_555 1_555
H19C C24C 1_555 1_555
N1C C18C 1_555 1_555
N2C C18C 1_555 1_555
O1A C16A 1_555 1_555
O1C Zn1C 1_555 1_555
O2A C16A 1_555 1_555
O2D Zn1 1_555 1_555
O2G Zn1C 1_555 1_555
O3A Zn1 1_555 1_555
O3B Zn1C 1_555 1_555
O4A C17A 1_555 1_555
Zn1C N1C 1_555 1_555
Zn1D O2 1_555 1_555
Zn1A O3 1_555 1_555
Zn1A_2 O1A 1_555 1_555
Zn1E O2A 1_555 1_555
C9 C13 1_555 1_555
C10 C11 1_555 1_555
C11 C12 1_555 1_555
C12 C13 1_555 1_555
C19 N1 1_555 1_555
C20 N2 1_555 1_555
C21 N2 1_555 1_555
O1 Zn1 1_555 1_555
C9A C13A 1_555 1_555
C10A C11A 1_555 1_555
C11A C12A 1_555 1_555
C12A C13A 1_555 1_555
C17A O3A 1_555 1_555
C19C N1C 1_555 1_555
C20C N2C 1_555 1_555
C21C N2C 1_555 1_555
C22C C23C 1_555 1_555
C22C C24C 1_555 1_555

#END
