
#######################################################################
#
#                 Cambridge Crystallographic Data Centre
#                                CCDC 
#
#######################################################################
#
# If this CIF has been generated from an entry in the Cambridge 
# Structural Database, then it will include bibliographic, chemical, 
# crystal, experimental, refinement or atomic coordinate data resulting 
# from the CCDC's data processing and validation procedures.
#
#######################################################################

data_OGOXIR
_symmetry_cell_setting           monoclinic
_symmetry_space_group_name_H-M   'P 21/n'
_symmetry_Int_Tables_number      14
_space_group_name_Hall           '-P 2yn'
loop_
_symmetry_equiv_pos_site_id
_symmetry_equiv_pos_as_xyz
1 x,y,z
2 1/2+x,1/2-y,1/2+z
3 -x,-y,-z
4 1/2-x,1/2+y,1/2-z
_cell_length_a                   7.0393(10)
_cell_length_b                   11.9042(17)
_cell_length_c                   9.4627(13)
_cell_angle_alpha                90
_cell_angle_beta                 91.895(3)
_cell_angle_gamma                90
_cell_volume                     792.514
loop_
_atom_site_label
_atom_site_type_symbol
_atom_site_fract_x
_atom_site_fract_y
_atom_site_fract_z
Tl1 Tl 0.98533(9) -0.11329(6) -0.17377(8)
O1 O 0.2758(16) 0.0481(9) -0.2537(13)
H1 H 0.3677 0.0070 -0.2645
O2 O 0.8218(16) 0.0649(11) -0.0717(14)
C1 C 0.189(2) 0.2133(15) -0.1309(18)
H2 H 0.0673 0.2081 -0.1722
C2 C 0.326(2) 0.1339(14) -0.1632(18)
C3 C 0.511(2) 0.1395(13) -0.1017(19)
C4 C 0.659(2) 0.0589(14) -0.144(2)
N1 N 0.092(2) 0.3748(13) -0.0028(19)
H3 H -0.0213 0.3687 -0.0380
H4 H 0.1203 0.4284 0.0552
C5 C 0.232(2) 0.2978(15) -0.0397(18)
C6 C 0.551(3) 0.2286(15) -0.0116(19)
H5 H 0.6743 0.2371 0.0261
C7 C 0.409(3) 0.3080(16) 0.025(2)
H6 H 0.4346 0.3646 0.0904
O3 O 0.6200(18) -0.0127(10) -0.2350(14)
Tl1_2 Tl -0.01467(9) -0.11329(6) -0.17377(8)
Tl1B Tl 1.01467(9) 0.11329(6) 0.17377(8)
O1_2 O 1.2758(16) 0.0481(9) -0.2537(13)
O2B O 1.1782(16) -0.0649(11) 0.0717(14)
H1_2 H 1.3677 0.0070 -0.2645
loop_
_geom_bond_atom_site_label_1
_geom_bond_atom_site_label_2
_geom_bond_site_symmetry_1
_geom_bond_site_symmetry_2
Tl1 O2 1_555 1_555
O1 H1 1_555 1_555
O2 C4 1_555 1_555
C1 H2 1_555 1_555
C2 O1 1_555 1_555
C3 C2 1_555 1_555
C4 C3 1_555 1_555
N1 H3 1_555 1_555
H4 N1 1_555 1_555
C5 C1 1_555 1_555
C6 C3 1_555 1_555
H5 C6 1_555 1_555
C7 C5 1_555 1_555
H6 C7 1_555 1_555
O3 Tl1 1_555 1_555
Tl1_2 O1 1_555 1_555
Tl1B O2 1_555 1_555
O1_2 Tl1 1_555 1_555
O2B Tl1 1_555 1_555
H1_2 O1_2 1_555 1_555
C1 C2 1_555 1_555
C4 O3 1_555 1_555
N1 C5 1_555 1_555
C6 C7 1_555 1_555
Tl1B O2B 1_555 1_555

#END
