
#######################################################################
#
#                 Cambridge Crystallographic Data Centre
#                                CCDC 
#
#######################################################################
#
# If this CIF has been generated from an entry in the Cambridge 
# Structural Database, then it will include bibliographic, chemical, 
# crystal, experimental, refinement or atomic coordinate data resulting 
# from the CCDC's data processing and validation procedures.
#
#######################################################################

data_OGUCUP
_symmetry_cell_setting           monoclinic
_symmetry_space_group_name_H-M   'P 21'
_symmetry_Int_Tables_number      4
_space_group_name_Hall           'P 2yb'
loop_
_symmetry_equiv_pos_site_id
_symmetry_equiv_pos_as_xyz
1 x,y,z
2 -x,1/2+y,-z
_cell_length_a                   10.900(3)
_cell_length_b                   8.168(2)
_cell_length_c                   18.093(5)
_cell_angle_alpha                90
_cell_angle_beta                 106.6970(10)
_cell_angle_gamma                90
_cell_volume                     1542.92
loop_
_atom_site_label
_atom_site_type_symbol
_atom_site_fract_x
_atom_site_fract_y
_atom_site_fract_z
Dy1 Dy 0.349369(7) 0.88902(2) 0.018505(4)
Cl1 Cl 0.48927(8) 0.62971(11) -0.00327(5)
Cl2 Cl 0.28343(6) 0.72317(9) 0.12589(3)
Cl3 Cl 0.15100(6) 1.06780(9) -0.05169(4)
N1 N 0.34171(14) 0.8711(3) -0.12884(9)
N2 N 0.18362(18) 0.6867(3) -0.06727(11)
N3 N -0.06763(19) 0.5323(3) -0.32297(12)
N4 N 0.09485(19) 0.7192(3) -0.38551(11)
N5 N -0.0427(3) 0.6533(4) -0.57750(14)
N6 N -0.2737(2) 0.3843(6) -0.48963(13)
N7 N 0.34923(19) 1.0959(3) 0.13010(11)
N8 N 0.55210(14) 0.8935(4) 0.13900(9)
N9 N 0.69145(19) 0.9494(3) 0.41492(11)
N10 N 0.4661(2) 1.1270(3) 0.40769(12)
N11 N 0.8198(2) 0.9147(4) 0.60898(12)
N12 N 0.5026(3) 1.1531(4) 0.60271(15)
C1 C 0.1167(2) 0.5807(4) -0.03890(15)
H1 H 0.1364 0.5703 0.0144
C2 C 0.0187(2) 0.4844(4) -0.08438(16)
H2 H -0.0247 0.4112 -0.0615
C3 C -0.0131(2) 0.4976(3) -0.16197(15)
H3 H -0.0806 0.4371 -0.1931
C4 C 0.0569(2) 0.6032(3) -0.19434(14)
C5 C 0.0313(2) 0.6177(3) -0.27761(14)
C6 C -0.0834(2) 0.5434(4) -0.39847(15)
C7 C -0.1921(3) 0.4519(4) -0.44842(17)
C8 C -0.0247(3) 0.6456(4) -0.51257(17)
C9 C -0.0034(3) 0.6347(4) -0.42924(15)
C10 C 0.1119(2) 0.7119(3) -0.30914(13)
C11 C 0.2205(2) 0.7984(3) -0.25882(13)
C12 C 0.30700(19) 0.8829(5) -0.28838(11)
H4 H 0.2936 0.8915 -0.3414
C13 C 0.4119(2) 0.9530(3) -0.23804(14)
H5 H 0.4731 1.0065 -0.2560
C14 C 0.4251(2) 0.9427(3) -0.15934(14)
H6 H 0.4977 0.9893 -0.1257
C15 C 0.2417(2) 0.7936(3) -0.17829(13)
C16 C 0.1573(2) 0.6938(3) -0.14588(13)
C17 C 0.2629(2) 1.2096(4) 0.12572(15)
H7 H 0.2126 1.2401 0.0769
C18 C 0.2408(2) 1.2887(4) 0.18926(16)
H8 H 0.1789 1.3700 0.1825
C19 C 0.3126(2) 1.2436(4) 0.26160(15)
H9 H 0.2975 1.2897 0.3052
C20 C 0.4089(2) 1.1270(3) 0.26873(13)
C21 C 0.4951(2) 1.0805(3) 0.34334(13)
C22 C 0.5482(2) 1.0821(4) 0.47405(14)
C23 C 0.5210(3) 1.1258(4) 0.54594(17)
C24 C 0.7512(2) 0.9536(3) 0.55151(15)
C25 C 0.6610(2) 0.9960(4) 0.47779(13)
C26 C 0.6054(2) 0.9880(3) 0.34677(14)
C27 C 0.6298(2) 0.9266(3) 0.27690(12)
C28 C 0.7402(2) 0.8410(3) 0.27854(14)
H10 H 0.8007 0.8172 0.3251
C29 C 0.7583(2) 0.7920(3) 0.20972(15)
H11 H 0.8337 0.7400 0.2086
C30 C 0.6620(2) 0.8214(3) 0.14210(14)
H12 H 0.6756 0.7883 0.0959
C31 C 0.5379(2) 0.9557(3) 0.20591(14)
C32 C 0.4294(2) 1.0593(3) 0.20203(13)
Dy1A Dy 0.650631(7) 0.38902(2) -0.018505(4)
Cl1A Cl 0.51073(8) 1.12971(11) 0.00327(5)
loop_
_geom_bond_atom_site_label_1
_geom_bond_atom_site_label_2
_geom_bond_site_symmetry_1
_geom_bond_site_symmetry_2
Dy1 Cl1 1_555 1_555
Cl1 Dy1A 1_555 1_555
Cl2 Dy1 1_555 1_555
Cl3 Dy1 1_555 1_555
N1 Dy1 1_555 1_555
N2 Dy1 1_555 1_555
N3 C5 1_555 1_555
N4 C9 1_555 1_555
N5 C8 1_555 1_555
N6 C7 1_555 1_555
N7 Dy1 1_555 1_555
N8 Dy1 1_555 1_555
N9 C25 1_555 1_555
N10 C21 1_555 1_555
N11 C24 1_555 1_555
N12 C23 1_555 1_555
C1 N2 1_555 1_555
H1 C1 1_555 1_555
C2 C1 1_555 1_555
H2 C2 1_555 1_555
C3 C2 1_555 1_555
H3 C3 1_555 1_555
C4 C3 1_555 1_555
C5 C4 1_555 1_555
C6 N3 1_555 1_555
C7 C6 1_555 1_555
C8 C9 1_555 1_555
C9 C6 1_555 1_555
C10 N4 1_555 1_555
C11 C10 1_555 1_555
C12 C11 1_555 1_555
H4 C12 1_555 1_555
C13 C12 1_555 1_555
H5 C13 1_555 1_555
C14 N1 1_555 1_555
H6 C14 1_555 1_555
C15 N1 1_555 1_555
C16 N2 1_555 1_555
C17 N7 1_555 1_555
H7 C17 1_555 1_555
C18 C17 1_555 1_555
H8 C18 1_555 1_555
C19 C18 1_555 1_555
H9 C19 1_555 1_555
C20 C19 1_555 1_555
C21 C20 1_555 1_555
C22 N10 1_555 1_555
C23 C22 1_555 1_555
C24 C25 1_555 1_555
C25 C22 1_555 1_555
C26 N9 1_555 1_555
C27 C26 1_555 1_555
C28 C27 1_555 1_555
H10 C28 1_555 1_555
C29 C28 1_555 1_555
H11 C29 1_555 1_555
C30 N8 1_555 1_555
H12 C30 1_555 1_555
C31 N8 1_555 1_555
C32 N7 1_555 1_555
Cl1A Dy1 1_555 1_555
C4 C16 1_555 1_555
C5 C10 1_555 1_555
C11 C15 1_555 1_555
C13 C14 1_555 1_555
C15 C16 1_555 1_555
C20 C32 1_555 1_555
C21 C26 1_555 1_555
C27 C31 1_555 1_555
C29 C30 1_555 1_555
C31 C32 1_555 1_555

#END
