
#######################################################################
#
#                 Cambridge Crystallographic Data Centre
#                                CCDC 
#
#######################################################################
#
# If this CIF has been generated from an entry in the Cambridge 
# Structural Database, then it will include bibliographic, chemical, 
# crystal, experimental, refinement or atomic coordinate data resulting 
# from the CCDC's data processing and validation procedures.
#
#######################################################################

data_OGUCOJ
_symmetry_cell_setting           monoclinic
_symmetry_space_group_name_H-M   'P 21'
_symmetry_Int_Tables_number      4
_space_group_name_Hall           'P 2yb'
loop_
_symmetry_equiv_pos_site_id
_symmetry_equiv_pos_as_xyz
1 x,y,z
2 -x,1/2+y,-z
_cell_length_a                   10.920(2)
_cell_length_b                   8.1845(16)
_cell_length_c                   18.107(4)
_cell_angle_alpha                90
_cell_angle_beta                 106.74(3)
_cell_angle_gamma                90
_cell_volume                     1549.73
loop_
_atom_site_label
_atom_site_type_symbol
_atom_site_fract_x
_atom_site_fract_y
_atom_site_fract_z
Dy1 Dy 0.150641(14) 0.30303(3) 0.481540(9)
Cl1 Cl 0.01138(15) 0.5631(2) 0.50358(10)
Cl2 Cl 0.34870(11) 0.12399(16) 0.55185(7)
Cl3 Cl 0.21640(11) 0.46924(16) 0.37425(6)
N1 N -0.0521(3) 0.2976(9) 0.36105(16)
N2 N 0.1508(3) 0.0960(5) 0.3703(2)
N3 N 0.0342(4) 0.0658(6) 0.0925(2)
N4 N -0.1907(3) 0.2424(5) 0.0850(2)
N5 N -0.3200(4) 0.2747(8) -0.1088(2)
N6 N -0.0020(5) 0.0403(9) -0.1026(3)
N7 N 0.3152(3) 0.5083(5) 0.5679(2)
N8 N 0.1572(3) 0.3220(5) 0.62866(17)
N9 N 0.4053(3) 0.4723(6) 0.8861(2)
N10 N 0.5677(3) 0.6600(5) 0.8221(2)
N11 N 0.7739(4) 0.8072(12) 0.9893(2)
N12 N 0.5431(5) 0.5373(8) 1.0774(3)
C1 C -0.1622(4) 0.3714(6) 0.3576(3)
H1 H -0.1749 0.4070 0.4036
C2 C -0.2590(4) 0.3988(6) 0.2902(3)
H2 H -0.3352 0.4480 0.2915
C3 C -0.2403(4) 0.3517(6) 0.2212(3)
H3 H -0.3001 0.3775 0.1746
C4 C -0.1300(4) 0.2647(5) 0.2226(2)
C5 C -0.1056(4) 0.2054(5) 0.1530(2)
C6 C -0.1611(4) 0.1956(6) 0.0222(2)
C7 C -0.2516(4) 0.2401(7) -0.0514(3)
C8 C -0.0209(5) 0.0662(8) -0.0460(3)
C9 C -0.0499(4) 0.1107(7) 0.0255(2)
C10 C 0.0056(4) 0.1124(6) 0.1565(2)
C11 C 0.0910(4) 0.0647(6) 0.2311(2)
C12 C 0.1865(4) -0.0509(7) 0.2378(3)
H4 H 0.2012 -0.0967 0.1941
C13 C 0.2599(4) -0.0970(6) 0.3112(3)
H5 H 0.3216 -0.1784 0.3181
C14 C 0.2373(4) -0.0168(6) 0.3737(3)
H6 H 0.2883 -0.0460 0.4225
C15 C 0.0728(4) 0.1319(6) 0.2988(2)
C16 C -0.0375(4) 0.2368(5) 0.2941(2)
C17 C 0.3848(4) 0.6091(6) 0.5400(3)
H7 H 0.3674 0.6146 0.4867
C18 C 0.4821(4) 0.7078(6) 0.5841(3)
H8 H 0.5251 0.7799 0.5605
C19 C 0.5130(4) 0.6970(6) 0.6615(3)
H9 H 0.5791 0.7599 0.6923
C20 C 0.4439(4) 0.5892(6) 0.6950(2)
C21 C 0.4689(4) 0.5755(6) 0.7775(3)
C22 C 0.5835(4) 0.6505(7) 0.8981(3)
C23 C 0.6915(5) 0.7392(7) 0.9491(3)
C24 C 0.5249(5) 0.5489(9) 1.0120(3)
C25 C 0.5047(5) 0.5567(7) 0.9289(3)
C26 C 0.3879(4) 0.4796(6) 0.8087(2)
C27 C 0.2786(4) 0.3938(6) 0.7589(2)
C28 C 0.1933(3) 0.3092(9) 0.7889(2)
H10 H 0.2073 0.3004 0.8419
C29 C 0.0880(4) 0.2390(6) 0.7384(2)
H11 H 0.0265 0.1864 0.7562
C30 C 0.0754(4) 0.2483(5) 0.6594(2)
H12 H 0.0041 0.1991 0.6259
C31 C 0.2595(4) 0.4004(5) 0.6787(2)
C32 C 0.3424(4) 0.4997(6) 0.6461(2)
Dy1A Dy -0.150641(14) 0.80303(3) 0.518460(9)
Cl1A Cl -0.01138(15) 0.0631(2) 0.49642(10)
loop_
_geom_bond_atom_site_label_1
_geom_bond_atom_site_label_2
_geom_bond_site_symmetry_1
_geom_bond_site_symmetry_2
Dy1 Cl1 1_555 1_555
Cl1 Dy1A 1_555 1_555
Cl2 Dy1 1_555 1_555
Cl3 Dy1 1_555 1_555
N1 Dy1 1_555 1_555
N2 Dy1 1_555 1_555
N3 C9 1_555 1_555
N4 C5 1_555 1_555
N5 C7 1_555 1_555
N6 C8 1_555 1_555
N7 Dy1 1_555 1_555
N8 Dy1 1_555 1_555
N9 C25 1_555 1_555
N10 C21 1_555 1_555
N11 C23 1_555 1_555
N12 C24 1_555 1_555
C1 N1 1_555 1_555
H1 C1 1_555 1_555
C2 C1 1_555 1_555
H2 C2 1_555 1_555
C3 C2 1_555 1_555
H3 C3 1_555 1_555
C4 C3 1_555 1_555
C5 C4 1_555 1_555
C6 N4 1_555 1_555
C7 C6 1_555 1_555
C8 C9 1_555 1_555
C9 C6 1_555 1_555
C10 N3 1_555 1_555
C11 C10 1_555 1_555
C12 C11 1_555 1_555
H4 C12 1_555 1_555
C13 C12 1_555 1_555
H5 C13 1_555 1_555
C14 N2 1_555 1_555
H6 C14 1_555 1_555
C15 N2 1_555 1_555
C16 N1 1_555 1_555
C17 N7 1_555 1_555
H7 C17 1_555 1_555
C18 C17 1_555 1_555
H8 C18 1_555 1_555
C19 C18 1_555 1_555
H9 C19 1_555 1_555
C20 C19 1_555 1_555
C21 C20 1_555 1_555
C22 N10 1_555 1_555
C23 C22 1_555 1_555
C24 C25 1_555 1_555
C25 C22 1_555 1_555
C26 N9 1_555 1_555
C27 C26 1_555 1_555
C28 C27 1_555 1_555
H10 C28 1_555 1_555
C29 C28 1_555 1_555
H11 C29 1_555 1_555
C30 N8 1_555 1_555
H12 C30 1_555 1_555
C31 N8 1_555 1_555
C32 N7 1_555 1_555
Cl1A Dy1 1_555 1_555
C4 C16 1_555 1_555
C5 C10 1_555 1_555
C11 C15 1_555 1_555
C13 C14 1_555 1_555
C15 C16 1_555 1_555
C20 C32 1_555 1_555
C21 C26 1_555 1_555
C27 C31 1_555 1_555
C29 C30 1_555 1_555
C31 C32 1_555 1_555

#END
