
#######################################################################
#
#                 Cambridge Crystallographic Data Centre
#                                CCDC 
#
#######################################################################
#
# If this CIF has been generated from an entry in the Cambridge 
# Structural Database, then it will include bibliographic, chemical, 
# crystal, experimental, refinement or atomic coordinate data resulting 
# from the CCDC's data processing and validation procedures.
#
#######################################################################

data_OGUFIH
_symmetry_cell_setting           monoclinic
_symmetry_space_group_name_H-M   'C c'
_symmetry_Int_Tables_number      9
_space_group_name_Hall           'C -2yc'
loop_
_symmetry_equiv_pos_site_id
_symmetry_equiv_pos_as_xyz
1 x,y,z
2 x,-y,1/2+z
3 1/2+x,1/2+y,z
4 1/2+x,1/2-y,1/2+z
_cell_length_a                   31.160(3)
_cell_length_b                   19.409(2)
_cell_length_c                   32.877(4)
_cell_angle_alpha                90
_cell_angle_beta                 103.566(2)
_cell_angle_gamma                90
_cell_volume                     19328.8
loop_
_atom_site_label
_atom_site_type_symbol
_atom_site_fract_x
_atom_site_fract_y
_atom_site_fract_z
Zn1 Zn 0.47104(3) 0.02940(5) 0.90138(3)
N1 N 0.5165(2) 0.0742(3) 0.9478(2)
N2 N 0.4427(2) 0.1249(3) 0.8838(2)
N3 N 0.4364(2) -0.0102(3) 0.8453(2)
N4 N 0.5074(2) -0.0598(4) 0.9107(2)
C1 C 0.5540(3) 0.0458(5) 0.9718(3)
C2 C 0.5125(3) 0.1389(4) 0.9642(3)
C3 C 0.4508(3) 0.1820(5) 0.9085(3)
C4 C 0.4092(3) 0.1409(4) 0.8507(2)
C5 C 0.4027(3) 0.0237(4) 0.8159(3)
C6 C 0.4354(3) -0.0764(4) 0.8325(3)
C7 C 0.4988(3) -0.1185(4) 0.8877(3)
C8 C 0.5470(3) -0.0707(4) 0.9385(3)
C9 C 0.5744(3) 0.0936(5) 1.0062(3)
H1 H 0.6001 0.0862 1.0269
C10 C 0.5484(3) 0.1497(5) 1.0015(3)
H2 H 0.5524 0.1883 1.0187
C11 C 0.4204(3) 0.2372(4) 0.8882(3)
H3 H 0.4191 0.2821 0.8977
C12 C 0.3954(3) 0.2099(5) 0.8538(3)
H4 H 0.3726 0.2321 0.8350
C13 C 0.3817(3) -0.0238(4) 0.7850(3)
H5 H 0.3585 -0.0140 0.7622
C14 C 0.4018(3) -0.0878(5) 0.7945(3)
H6 H 0.3951 -0.1288 0.7797
C15 C 0.5319(3) -0.1698(5) 0.9024(3)
H7 H 0.5330 -0.2142 0.8920
C16 C 0.5622(3) -0.1396(5) 0.9355(3)
H8 H 0.5872 -0.1600 0.9523
C17 C 0.4810(3) 0.1910(4) 0.9467(3)
C18 C 0.3902(3) 0.0928(4) 0.8190(3)
C19 C 0.4660(3) -0.1264(4) 0.8530(3)
C20 C 0.5698(3) -0.0195(4) 0.9662(3)
C21 C 0.4807(3) 0.2520(4) 0.9717(3)
C22 C 0.4963(3) 0.3163(4) 0.9625(3)
C23 C 0.4975(3) 0.3714(4) 0.9877(3)
H9 H 0.5079 0.4135 0.9806
C24 C 0.4831(3) 0.3651(5) 1.0244(3)
H10 H 0.4844 0.4026 1.0423
C25 C 0.4665(4) 0.3004(5) 1.0346(3)
H11 H 0.4560 0.2956 1.0587
C26 C 0.4661(3) 0.2485(5) 1.0099(3)
H12 H 0.4558 0.2065 1.0173
C27 C 0.3516(2) 0.1179(4) 0.7850(2)
C28 C 0.35408(19) 0.1151(4) 0.7434(2)
H13 H 0.3792 0.0976 0.7364
C29 C 0.3190(2) 0.1385(4) 0.71209(18)
H14 H 0.3207 0.1367 0.6842
C30 C 0.2814(2) 0.1647(4) 0.7225(2)
H15 H 0.2579 0.1804 0.7015
C31 C 0.2789(2) 0.1675(4) 0.7641(2)
H16 H 0.2538 0.1850 0.7710
C32 C 0.3140(2) 0.1440(4) 0.79536(18)
H17 H 0.3123 0.1459 0.8232
C33 C 0.4605(3) -0.1979(4) 0.8323(3)
C34 C 0.4682(3) -0.2070(5) 0.7924(3)
H18 H 0.4761 -0.1696 0.7780
C35 C 0.4639(3) -0.2723(6) 0.7744(3)
H19 H 0.4686 -0.2784 0.7478
C36 C 0.4528(3) -0.3272(6) 0.7957(4)
H20 H 0.4514 -0.3710 0.7839
C37 C 0.4435(3) -0.3184(5) 0.8357(3)
H21 H 0.4357 -0.3560 0.8499
C38 C 0.4462(3) -0.2536(5) 0.8533(3)
H22 H 0.4387 -0.2467 0.8788
C39 C 0.6137(4) -0.0378(7) 0.9940(4)
C40 C 0.6514(4) -0.0165(7) 0.9852(4)
H23 H 0.6494 0.0089 0.9609
C41 C 0.6905(4) -0.0285(7) 1.0082(4)
H24 H 0.7151 -0.0095 1.0011
C42 C 0.6958(4) -0.0707(7) 1.0443(4)
H25 H 0.7236 -0.0822 1.0603
C43 C 0.6594(4) -0.0928(7) 1.0541(4)
H26 H 0.6610 -0.1209 1.0774
C44 C 0.6203(4) -0.0742(7) 1.0302(4)
H27 H 0.5953 -0.0873 1.0391
Zn2 Zn 0.50860(3) 0.32152(5) 0.64086(3)
N5 N 0.5265(2) 0.4219(3) 0.65499(19)
N6 N 0.5718(2) 0.2906(4) 0.6665(2)
N7 N 0.4918(2) 0.2212(4) 0.6287(2)
N8 N 0.4459(2) 0.3523(4) 0.6187(2)
C45 C 0.4988(3) 0.4783(5) 0.6489(3)
C46 C 0.5678(3) 0.4471(5) 0.6731(3)
C47 C 0.6082(3) 0.3321(4) 0.6829(3)
C48 C 0.5869(3) 0.2260(4) 0.6698(3)
C49 C 0.5182(3) 0.1652(5) 0.6404(3)
C50 C 0.4486(3) 0.1960(5) 0.6143(3)
C51 C 0.4114(3) 0.3105(4) 0.6023(2)
C52 C 0.4286(3) 0.4187(4) 0.6172(2)
C53 C 0.5240(3) 0.5408(5) 0.6637(3)
H28 H 0.5137 0.5858 0.6639
C54 C 0.5670(3) 0.5163(4) 0.6774(3)
H29 H 0.5917 0.5436 0.6880
C55 C 0.6462(3) 0.2931(4) 0.6980(3)
H30 H 0.6742 0.3095 0.7108
C56 C 0.6343(3) 0.2267(5) 0.6902(3)
H31 H 0.6526 0.1884 0.6966
C57 C 0.4903(3) 0.1036(5) 0.6320(3)
H32 H 0.4999 0.0583 0.6366
C58 C 0.4484(3) 0.1238(5) 0.6164(3)
H33 H 0.4239 0.0952 0.6085
C59 C 0.3702(3) 0.3517(4) 0.5894(3)
H34 H 0.3420 0.3354 0.5776
C60 C 0.3825(3) 0.4181(4) 0.5986(3)
H35 H 0.3641 0.4564 0.5935
C61 C 0.6059(3) 0.4055(4) 0.6862(3)
C62 C 0.5607(3) 0.1641(4) 0.6578(3)
C63 C 0.4099(3) 0.2383(4) 0.5994(2)
C64 C 0.4539(3) 0.4793(4) 0.6324(2)
C65 C 0.6473(3) 0.4412(4) 0.7075(2)
C66 C 0.6570(2) 0.4463(4) 0.7513(3)
C67 C 0.6966(3) 0.4752(4) 0.7729(3)
H36 H 0.7042 0.4755 0.8020
C68 C 0.7247(3) 0.5039(5) 0.7501(3)
H37 H 0.7503 0.5262 0.7641
C69 C 0.7147(3) 0.4994(5) 0.7056(3)
H38 H 0.7336 0.5170 0.6902
C70 C 0.6754(3) 0.4675(5) 0.6865(3)
H39 H 0.6681 0.4642 0.6575
C71 C 0.5846(3) 0.0975(3) 0.6684(3)
C72 C 0.6007(3) 0.0783(4) 0.7099(2)
H40 H 0.5976 0.1078 0.7313
C73 C 0.6214(3) 0.0149(4) 0.7194(2)
H41 H 0.6321 0.0020 0.7472
C74 C 0.6260(3) -0.0292(3) 0.6874(3)
H42 H 0.6398 -0.0716 0.6938
C75 C 0.6099(3) -0.0100(4) 0.6459(2)
H43 H 0.6130 -0.0395 0.6245
C76 C 0.5892(3) 0.0534(4) 0.6364(2)
H44 H 0.5785 0.0663 0.6086
C77 C 0.3678(3) 0.2008(5) 0.5840(3)
C78 C 0.3347(3) 0.2096(5) 0.6040(3)
H45 H 0.3386 0.2386 0.6272
C79 C 0.2935(3) 0.1740(6) 0.5893(4)
H46 H 0.2698 0.1800 0.6016
C80 C 0.2914(4) 0.1295(8) 0.5553(4)
H47 H 0.2658 0.1036 0.5461
C81 C 0.3241(4) 0.1219(6) 0.5350(4)
H48 H 0.3204 0.0935 0.5116
C82 C 0.3622(3) 0.1565(5) 0.5494(4)
H49 H 0.3853 0.1509 0.5361
C83 C 0.4299(3) 0.5467(4) 0.6338(3)
C84 C 0.4274(4) 0.5733(6) 0.6701(3)
H50 H 0.4399 0.5489 0.6943
C85 C 0.4068(4) 0.6367(6) 0.6742(4)
H51 H 0.4068 0.6557 0.7002
C86 C 0.3868(4) 0.6687(6) 0.6376(4)
H52 H 0.3717 0.7098 0.6387
C87 C 0.3882(4) 0.6428(6) 0.6010(3)
H53 H 0.3741 0.6663 0.5769
C88 C 0.4104(4) 0.5811(5) 0.5970(3)
H54 H 0.4119 0.5640 0.5709
C89 C 0.5381(3) 0.3543(4) 0.8656(3)
C90 C 0.5743(3) 0.3879(4) 0.8578(3)
H55 H 0.5900 0.4198 0.8767
C91 C 0.5869(3) 0.3725(4) 0.8203(3)
C92 C 0.5647(3) 0.3245(4) 0.7925(3)
H56 H 0.5751 0.3133 0.7690
C93 C 0.5259(3) 0.2913(4) 0.7992(3)
C94 C 0.5139(3) 0.3077(4) 0.8373(3)
H57 H 0.4892 0.2867 0.8434
C95 C 0.5255(2) 0.3711(4) 0.9048(3)
C96 C 0.6273(3) 0.4086(4) 0.8127(2)
C97 C 0.5022(3) 0.2429(5) 0.7660(3)
C98 C 0.4650(4) 0.1993(6) 0.7818(4)
H58 H 0.4789 0.1712 0.8052
H59 H 0.4494 0.1705 0.7595
H60 H 0.4447 0.2304 0.7901
C99 C 0.4768(3) 0.2872(5) 0.7286(3)
H61 H 0.4975 0.3144 0.7179
H62 H 0.4564 0.3170 0.7378
H63 H 0.4609 0.2574 0.7069
C100 C 0.5320(4) 0.1925(5) 0.7531(3)
H64 H 0.5547 0.2166 0.7435
H65 H 0.5154 0.1644 0.7308
H66 H 0.5452 0.1638 0.7764
N9 N 0.5099(2) 0.3181(3) 0.9244(2)
H67 H 0.5080 0.2794 0.9114
N10 N 0.6248(2) 0.4192(4) 0.7716(2)
H68 H 0.6001 0.4079 0.7551
O1 O 0.53004(19) 0.4292(3) 0.92119(18)
O2 O 0.65770(18) 0.4266(3) 0.84185(18)
Zn3 Zn 0.69780(3) 0.36009(5) 0.88860(3)
N11 N 0.7080(2) 0.4327(3) 0.9357(2)
N12 N 0.7504(2) 0.3990(4) 0.8689(2)
N13 N 0.6977(2) 0.2752(3) 0.8517(2)
N14 N 0.6568(2) 0.3084(3) 0.9187(2)
C101 C 0.6873(2) 0.4376(4) 0.9678(2)
C102 C 0.7364(2) 0.4903(4) 0.9381(2)
C103 C 0.7710(3) 0.4578(4) 0.8805(3)
C104 C 0.7679(3) 0.3733(4) 0.8369(3)
C105 C 0.7201(3) 0.2686(4) 0.8205(3)
C106 C 0.6716(3) 0.2185(4) 0.8470(3)
C107 C 0.6387(3) 0.2435(5) 0.9078(3)
C108 C 0.6449(3) 0.3281(4) 0.9544(3)
C109 C 0.7018(3) 0.4984(5) 0.9915(3)
H69 H 0.6931 0.5132 1.0152
C110 C 0.7305(3) 0.5306(5) 0.9726(3)
H70 H 0.7442 0.5725 0.9809
C111 C 0.8025(3) 0.4749(5) 0.8544(3)
H71 H 0.8201 0.5141 0.8560
C112 C 0.8002(3) 0.4226(5) 0.8285(3)
H72 H 0.8164 0.4178 0.8082
C113 C 0.7067(3) 0.2090(5) 0.7974(3)
H73 H 0.7175 0.1935 0.7749
C114 C 0.6760(3) 0.1784(4) 0.8129(3)
H74 H 0.6605 0.1385 0.8030
C115 C 0.6119(3) 0.2272(5) 0.9371(3)
H75 H 0.5942 0.1884 0.9360
C116 C 0.6167(3) 0.2767(4) 0.9657(3)
H76 H 0.6041 0.2778 0.9887
C117 C 0.7636(2) 0.5029(4) 0.9125(3)
C118 C 0.7537(3) 0.3144(5) 0.8141(3)
C119 C 0.6423(3) 0.2039(5) 0.8753(3)
C120 C 0.6583(2) 0.3889(5) 0.9771(3)
C121 C 0.7908(2) 0.5680(4) 0.9207(2)
C122 C 0.8367(3) 0.5635(4) 0.9384(3)
C123 C 0.8613(3) 0.6249(4) 0.9464(3)
H77 H 0.8915 0.6234 0.9584
C124 C 0.8413(3) 0.6843(6) 0.9369(4)
H78 H 0.8582 0.7243 0.9416
C125 C 0.7943(4) 0.6907(6) 0.9192(4)
H79 H 0.7812 0.7337 0.9132
C126 C 0.7708(3) 0.6338(4) 0.9121(3)
H80 H 0.7405 0.6367 0.9012
C127 C 0.7774(3) 0.2973(5) 0.7808(3)
C128 C 0.8103(3) 0.2497(6) 0.7869(3)
H81 H 0.8170 0.2259 0.8121
C129 C 0.8338(4) 0.2353(7) 0.7577(4)
H82 H 0.8565 0.2031 0.7638
C130 C 0.8244(4) 0.2677(6) 0.7198(4)
H83 H 0.8398 0.2565 0.6996
C131 C 0.7916(4) 0.3174(6) 0.7119(4)
H84 H 0.7856 0.3419 0.6870
C132 C 0.7678(3) 0.3299(6) 0.7423(3)
H85 H 0.7446 0.3613 0.7364
C133 C 0.6179(3) 0.1369(5) 0.8678(3)
C134 C 0.6425(4) 0.0690(5) 0.8669(4)
H86 H 0.6727 0.0687 0.8687
C135 C 0.6201(4) 0.0105(6) 0.8636(4)
H87 H 0.6352 -0.0312 0.8684
C136 C 0.5751(4) 0.0107(6) 0.8532(4)
H88 H 0.5599 -0.0309 0.8481
C137 C 0.5519(4) 0.0711(6) 0.8503(4)
H89 H 0.5212 0.0701 0.8427
C138 C 0.5734(3) 0.1332(5) 0.8583(3)
H90 H 0.5569 0.1735 0.8573
C139 C 0.6415(3) 0.4013(6) 1.0158(3)
C140 C 0.6639(4) 0.3708(6) 1.0537(3)
H91 H 0.6888 0.3439 1.0548
C141 C 0.6483(4) 0.3815(6) 1.0896(4)
H92 H 0.6620 0.3602 1.1146
C142 C 0.6119(4) 0.4242(6) 1.0878(3)
H93 H 0.6025 0.4352 1.1118
C143 C 0.5917(4) 0.4480(6) 1.0517(3)
H94 H 0.5658 0.4729 1.0499
C144 C 0.6063(3) 0.4385(6) 1.0157(3)
H95 H 0.5910 0.4588 0.9909
Zn4 Zn 0.99305(3) 0.02300(5) 0.89934(3)
N15 N 0.9796(2) 0.0487(3) 0.9571(2)
N16 N 1.0456(2) 0.0882(4) 0.9094(2)
N17 N 0.9948(2) 0.0205(3) 0.8374(2)
N18 N 0.9320(2) -0.0222(4) 0.8833(2)
C145 C 0.9469(3) 0.0267(4) 0.9736(3)
C146 C 1.0106(3) 0.0867(5) 0.9878(3)
C147 C 1.0613(3) 0.1229(4) 0.9458(3)
C148 C 1.0694(3) 0.1083(4) 0.8816(3)
C149 C 1.0277(3) 0.0412(4) 0.8200(3)
C150 C 0.9676(3) -0.0183(4) 0.8055(3)
C151 C 0.9108(3) -0.0486(5) 0.8457(3)
C152 C 0.9046(3) -0.0352(4) 0.9094(3)
C153 C 0.9557(3) 0.0458(4) 1.0162(3)
H96 H 0.9381 0.0352 1.0346
C154 C 0.9941(3) 0.0823(4) 1.0260(3)
H97 H 1.0074 0.1009 1.0520
C155 C 1.0998(3) 0.1634(4) 0.9421(3)
H98 H 1.1183 0.1891 0.9630
C156 C 1.1030(3) 0.1558(5) 0.9027(3)
H99 H 1.1235 0.1776 0.8906
C157 C 1.0242(3) 0.0153(4) 0.7779(3)
H100 H 1.0431 0.0233 0.7604
C158 C 0.9875(3) -0.0227(5) 0.7702(3)
H101 H 0.9765 -0.0480 0.7460
C159 C 0.8690(3) -0.0743(5) 0.8471(3)
H102 H 0.8485 -0.0932 0.8247
C160 C 0.8639(3) -0.0669(6) 0.8862(3)
H103 H 0.8395 -0.0793 0.8963
C161 C 1.0478(3) 0.1194(4) 0.9834(3)
C162 C 0.9118(3) -0.0155(4) 0.9522(3)
C163 C 0.9267(3) -0.0471(5) 0.8083(3)
C164 C 1.0633(3) 0.0846(4) 0.8404(3)
C165 C 1.0745(3) 0.1531(4) 1.0199(3)
C166 C 1.0615(3) 0.2185(4) 1.0338(3)
C167 C 1.0905(3) 0.2504(5) 1.0674(3)
H104 H 1.0825 0.2924 1.0770
C168 C 1.1300(4) 0.2222(5) 1.0864(4)
H105 H 1.1485 0.2458 1.1082
C169 C 1.1432(4) 0.1591(5) 1.0740(3)
H106 H 1.1700 0.1397 1.0876
C170 C 1.1154(3) 0.1253(5) 1.0407(3)
H107 H 1.1242 0.0831 1.0319
C171 C 0.8792(3) -0.0412(4) 0.9747(3)
C172 C 0.8539(3) 0.0029(5) 0.9924(3)
H108 H 0.8602 0.0498 0.9925
C173 C 0.8199(3) -0.0180(6) 1.0099(3)
H109 H 0.8037 0.0136 1.0215
C174 C 0.8107(3) -0.0896(6) 1.0096(3)
H110 H 0.7866 -0.1050 1.0192
C175 C 0.8373(3) -0.1378(5) 0.9950(3)
H111 H 0.8326 -0.1850 0.9967
C176 C 0.8719(3) -0.1114(5) 0.9776(3)
H112 H 0.8901 -0.1422 0.9679
C177 C 0.8997(3) -0.0835(6) 0.7710(3)
C178 C 0.8818(3) -0.0430(5) 0.7351(3)
H113 H 0.8874 0.0041 0.7355
C179 C 0.8566(3) -0.0726(6) 0.7002(3)
H114 H 0.8469 -0.0469 0.6759
C180 C 0.8454(4) -0.1423(8) 0.7013(4)
H115 H 0.8262 -0.1624 0.6784
C181 C 0.8625(4) -0.1802(6) 0.7358(4)
H116 H 0.8575 -0.2274 0.7359
C182 C 0.8882(4) -0.1471(6) 0.7714(4)
H117 H 0.8971 -0.1721 0.7961
C183 C 1.0953(3) 0.1103(4) 0.8167(3)
C184 C 1.0805(3) 0.1474(5) 0.7796(3)
H118 H 1.0505 0.1559 0.7703
C185 C 1.1084(4) 0.1717(6) 0.7563(4)
H119 H 1.0978 0.1969 0.7320
C186 C 1.1536(4) 0.1574(6) 0.7704(4)
H120 H 1.1733 0.1734 0.7551
C187 C 1.1692(3) 0.1204(5) 0.8059(3)
H121 H 1.1992 0.1109 0.8149
C188 C 1.1393(3) 0.0969(5) 0.8288(3)
H122 H 1.1499 0.0713 0.8530
C189 C 0.9064(3) 0.4030(4) 0.9547(3)
C190 C 0.9475(3) 0.3879(4) 0.9762(3)
H123 H 0.9682 0.4231 0.9830
C191 C 0.9601(3) 0.3198(4) 0.9887(3)
C192 C 0.9288(3) 0.2679(4) 0.9768(3)
H124 H 0.9362 0.2228 0.9853
C193 C 0.8864(3) 0.2818(4) 0.9524(3)
C194 C 0.8753(3) 0.3527(4) 0.9429(3)
H125 H 0.8468 0.3644 0.9286
C195 C 0.8963(3) 0.4809(4) 0.9458(2)
C196 C 1.0035(3) 0.3098(4) 1.0152(3)
C197 C 0.8525(3) 0.2240(4) 0.9411(3)
C198 C 0.8090(3) 0.2473(6) 0.9136(4)
H126 H 0.7963 0.2822 0.9278
H127 H 0.7892 0.2088 0.9075
H128 H 0.8138 0.2657 0.8879
C199 C 0.8445(4) 0.1930(6) 0.9797(4)
H129 H 0.8327 0.2273 0.9951
H130 H 0.8718 0.1758 0.9966
H131 H 0.8238 0.1558 0.9725
C200 C 0.8716(4) 0.1671(5) 0.9170(4)
H132 H 0.8505 0.1305 0.9097
H133 H 0.8984 0.1494 0.9345
H134 H 0.8776 0.1864 0.8921
N19 N 0.8555(2) 0.4998(3) 0.9466(2)
H135 H 0.8389 0.4681 0.9530
N20 N 1.0226(3) 0.2444(4) 1.0138(2)
H136 H 1.0062 0.2160 0.9970
O3 O 0.92407(19) 0.5206(3) 0.9393(2)
O4 O 1.0225(2) 0.3544(3) 1.0397(2)
Zn1B Zn 0.97104(3) 0.52940(5) 0.90138(3)
O1B O 1.03004(19) -0.0708(3) 0.92119(18)
Zn4B Zn 0.49305(3) 0.52300(5) 0.89934(3)
O3B O 0.42407(19) 0.0206(3) 0.9393(2)
loop_
_geom_bond_atom_site_label_1
_geom_bond_atom_site_label_2
_geom_bond_site_symmetry_1
_geom_bond_site_symmetry_2
Zn1 N1 1_555 1_555
N1 C1 1_555 1_555
N2 Zn1 1_555 1_555
N3 Zn1 1_555 1_555
N4 Zn1 1_555 1_555
C1 C9 1_555 1_555
C2 N1 1_555 1_555
C3 N2 1_555 1_555
C4 N2 1_555 1_555
C5 N3 1_555 1_555
C6 N3 1_555 1_555
C7 N4 1_555 1_555
C8 N4 1_555 1_555
C9 H1 1_555 1_555
C10 C2 1_555 1_555
H2 C10 1_555 1_555
C11 C3 1_555 1_555
H3 C11 1_555 1_555
C12 C4 1_555 1_555
H4 C12 1_555 1_555
C13 C5 1_555 1_555
H5 C13 1_555 1_555
C14 C6 1_555 1_555
H6 C14 1_555 1_555
C15 C7 1_555 1_555
H7 C15 1_555 1_555
C16 C8 1_555 1_555
H8 C16 1_555 1_555
C17 C2 1_555 1_555
C18 C4 1_555 1_555
C19 C6 1_555 1_555
C20 C1 1_555 1_555
C21 C17 1_555 1_555
C22 C21 1_555 1_555
C23 C22 1_555 1_555
H9 C23 1_555 1_555
C24 C23 1_555 1_555
H10 C24 1_555 1_555
C25 C24 1_555 1_555
H11 C25 1_555 1_555
C26 C21 1_555 1_555
H12 C26 1_555 1_555
C27 C18 1_555 1_555
C28 C27 1_555 1_555
H13 C28 1_555 1_555
C29 C28 1_555 1_555
H14 C29 1_555 1_555
C30 C29 1_555 1_555
H15 C30 1_555 1_555
C31 C30 1_555 1_555
H16 C31 1_555 1_555
C32 C27 1_555 1_555
H17 C32 1_555 1_555
C33 C19 1_555 1_555
C34 C33 1_555 1_555
H18 C34 1_555 1_555
C35 C34 1_555 1_555
H19 C35 1_555 1_555
C36 C35 1_555 1_555
H20 C36 1_555 1_555
C37 C36 1_555 1_555
H21 C37 1_555 1_555
C38 C33 1_555 1_555
H22 C38 1_555 1_555
C39 C20 1_555 1_555
C40 C39 1_555 1_555
H23 C40 1_555 1_555
C41 C40 1_555 1_555
H24 C41 1_555 1_555
C42 C41 1_555 1_555
H25 C42 1_555 1_555
C43 C42 1_555 1_555
H26 C43 1_555 1_555
C44 C39 1_555 1_555
H27 C44 1_555 1_555
Zn2 N5 1_555 1_555
N5 C45 1_555 1_555
N6 Zn2 1_555 1_555
N7 Zn2 1_555 1_555
N8 Zn2 1_555 1_555
C45 C53 1_555 1_555
C46 N5 1_555 1_555
C47 N6 1_555 1_555
C48 N6 1_555 1_555
C49 N7 1_555 1_555
C50 N7 1_555 1_555
C51 N8 1_555 1_555
C52 N8 1_555 1_555
C53 H28 1_555 1_555
C54 C46 1_555 1_555
H29 C54 1_555 1_555
C55 C47 1_555 1_555
H30 C55 1_555 1_555
C56 C48 1_555 1_555
H31 C56 1_555 1_555
C57 C49 1_555 1_555
H32 C57 1_555 1_555
C58 C50 1_555 1_555
H33 C58 1_555 1_555
C59 C51 1_555 1_555
H34 C59 1_555 1_555
C60 C52 1_555 1_555
H35 C60 1_555 1_555
C61 C46 1_555 1_555
C62 C48 1_555 1_555
C63 C50 1_555 1_555
C64 C45 1_555 1_555
C65 C61 1_555 1_555
C66 C65 1_555 1_555
C67 C66 1_555 1_555
H36 C67 1_555 1_555
C68 C67 1_555 1_555
H37 C68 1_555 1_555
C69 C68 1_555 1_555
H38 C69 1_555 1_555
C70 C65 1_555 1_555
H39 C70 1_555 1_555
C71 C62 1_555 1_555
C72 C71 1_555 1_555
H40 C72 1_555 1_555
C73 C72 1_555 1_555
H41 C73 1_555 1_555
C74 C73 1_555 1_555
H42 C74 1_555 1_555
C75 C74 1_555 1_555
H43 C75 1_555 1_555
C76 C71 1_555 1_555
H44 C76 1_555 1_555
C77 C63 1_555 1_555
C78 C77 1_555 1_555
H45 C78 1_555 1_555
C79 C78 1_555 1_555
H46 C79 1_555 1_555
C80 C79 1_555 1_555
H47 C80 1_555 1_555
C81 C80 1_555 1_555
H48 C81 1_555 1_555
C82 C77 1_555 1_555
H49 C82 1_555 1_555
C83 C64 1_555 1_555
C84 C83 1_555 1_555
H50 C84 1_555 1_555
C85 C84 1_555 1_555
H51 C85 1_555 1_555
C86 C85 1_555 1_555
H52 C86 1_555 1_555
C87 C86 1_555 1_555
H53 C87 1_555 1_555
C88 C83 1_555 1_555
H54 C88 1_555 1_555
C89 C90 1_555 1_555
C90 H55 1_555 1_555
C91 C90 1_555 1_555
C92 C91 1_555 1_555
H56 C92 1_555 1_555
C93 C92 1_555 1_555
C94 C89 1_555 1_555
H57 C94 1_555 1_555
C95 C89 1_555 1_555
C96 C91 1_555 1_555
C97 C93 1_555 1_555
C98 C97 1_555 1_555
H58 C98 1_555 1_555
H59 C98 1_555 1_555
H60 C98 1_555 1_555
C99 C97 1_555 1_555
H61 C99 1_555 1_555
H62 C99 1_555 1_555
H63 C99 1_555 1_555
C100 C97 1_555 1_555
H64 C100 1_555 1_555
H65 C100 1_555 1_555
H66 C100 1_555 1_555
N9 C22 1_555 1_555
H67 N9 1_555 1_555
N10 C66 1_555 1_555
H68 N10 1_555 1_555
O1 C95 1_555 1_555
O2 C96 1_555 1_555
Zn3 O2 1_555 1_555
N11 Zn3 1_555 1_555
N12 Zn3 1_555 1_555
N13 Zn3 1_555 1_555
N14 Zn3 1_555 1_555
C101 N11 1_555 1_555
C102 N11 1_555 1_555
C103 N12 1_555 1_555
C104 N12 1_555 1_555
C105 N13 1_555 1_555
C106 N13 1_555 1_555
C107 N14 1_555 1_555
C108 N14 1_555 1_555
C109 C101 1_555 1_555
H69 C109 1_555 1_555
C110 C102 1_555 1_555
H70 C110 1_555 1_555
C111 C103 1_555 1_555
H71 C111 1_555 1_555
C112 C104 1_555 1_555
H72 C112 1_555 1_555
C113 C105 1_555 1_555
H73 C113 1_555 1_555
C114 C106 1_555 1_555
H74 C114 1_555 1_555
C115 C107 1_555 1_555
H75 C115 1_555 1_555
C116 C108 1_555 1_555
H76 C116 1_555 1_555
C117 C102 1_555 1_555
C118 C104 1_555 1_555
C119 C106 1_555 1_555
C120 C101 1_555 1_555
C121 C117 1_555 1_555
C122 C121 1_555 1_555
C123 C122 1_555 1_555
H77 C123 1_555 1_555
C124 C123 1_555 1_555
H78 C124 1_555 1_555
C125 C124 1_555 1_555
H79 C125 1_555 1_555
C126 C121 1_555 1_555
H80 C126 1_555 1_555
C127 C118 1_555 1_555
C128 C127 1_555 1_555
H81 C128 1_555 1_555
C129 C128 1_555 1_555
H82 C129 1_555 1_555
C130 C129 1_555 1_555
H83 C130 1_555 1_555
C131 C130 1_555 1_555
H84 C131 1_555 1_555
C132 C127 1_555 1_555
H85 C132 1_555 1_555
C133 C119 1_555 1_555
C134 C133 1_555 1_555
H86 C134 1_555 1_555
C135 C134 1_555 1_555
H87 C135 1_555 1_555
C136 C135 1_555 1_555
H88 C136 1_555 1_555
C137 C136 1_555 1_555
H89 C137 1_555 1_555
C138 C133 1_555 1_555
H90 C138 1_555 1_555
C139 C120 1_555 1_555
C140 C139 1_555 1_555
H91 C140 1_555 1_555
C141 C140 1_555 1_555
H92 C141 1_555 1_555
C142 C141 1_555 1_555
H93 C142 1_555 1_555
C143 C142 1_555 1_555
H94 C143 1_555 1_555
C144 C139 1_555 1_555
H95 C144 1_555 1_555
Zn4 N15 1_555 1_555
N15 C145 1_555 1_555
N16 Zn4 1_555 1_555
N17 Zn4 1_555 1_555
N18 Zn4 1_555 1_555
C145 C153 1_555 1_555
C146 N15 1_555 1_555
C147 N16 1_555 1_555
C148 N16 1_555 1_555
C149 N17 1_555 1_555
C150 N17 1_555 1_555
C151 N18 1_555 1_555
C152 N18 1_555 1_555
C153 H96 1_555 1_555
C154 C146 1_555 1_555
H97 C154 1_555 1_555
C155 C147 1_555 1_555
H98 C155 1_555 1_555
C156 C148 1_555 1_555
H99 C156 1_555 1_555
C157 C149 1_555 1_555
H100 C157 1_555 1_555
C158 C150 1_555 1_555
H101 C158 1_555 1_555
C159 C151 1_555 1_555
H102 C159 1_555 1_555
C160 C152 1_555 1_555
H103 C160 1_555 1_555
C161 C146 1_555 1_555
C162 C145 1_555 1_555
C163 C150 1_555 1_555
C164 C148 1_555 1_555
C165 C161 1_555 1_555
C166 C165 1_555 1_555
C167 C166 1_555 1_555
H104 C167 1_555 1_555
C168 C167 1_555 1_555
H105 C168 1_555 1_555
C169 C168 1_555 1_555
H106 C169 1_555 1_555
C170 C165 1_555 1_555
H107 C170 1_555 1_555
C171 C162 1_555 1_555
C172 C171 1_555 1_555
H108 C172 1_555 1_555
C173 C172 1_555 1_555
H109 C173 1_555 1_555
C174 C173 1_555 1_555
H110 C174 1_555 1_555
C175 C174 1_555 1_555
H111 C175 1_555 1_555
C176 C171 1_555 1_555
H112 C176 1_555 1_555
C177 C163 1_555 1_555
C178 C177 1_555 1_555
H113 C178 1_555 1_555
C179 C178 1_555 1_555
H114 C179 1_555 1_555
C180 C179 1_555 1_555
H115 C180 1_555 1_555
C181 C180 1_555 1_555
H116 C181 1_555 1_555
C182 C177 1_555 1_555
H117 C182 1_555 1_555
C183 C164 1_555 1_555
C184 C183 1_555 1_555
H118 C184 1_555 1_555
C185 C184 1_555 1_555
H119 C185 1_555 1_555
C186 C185 1_555 1_555
H120 C186 1_555 1_555
C187 C186 1_555 1_555
H121 C187 1_555 1_555
C188 C183 1_555 1_555
H122 C188 1_555 1_555
C189 C190 1_555 1_555
C190 H123 1_555 1_555
C191 C190 1_555 1_555
C192 C191 1_555 1_555
H124 C192 1_555 1_555
C193 C192 1_555 1_555
C194 C189 1_555 1_555
H125 C194 1_555 1_555
C195 C189 1_555 1_555
C196 C191 1_555 1_555
C197 C193 1_555 1_555
C198 C197 1_555 1_555
H126 C198 1_555 1_555
H127 C198 1_555 1_555
H128 C198 1_555 1_555
C199 C197 1_555 1_555
H129 C199 1_555 1_555
H130 C199 1_555 1_555
H131 C199 1_555 1_555
C200 C197 1_555 1_555
H132 C200 1_555 1_555
H133 C200 1_555 1_555
H134 C200 1_555 1_555
N19 C122 1_555 1_555
H135 N19 1_555 1_555
N20 C166 1_555 1_555
H136 N20 1_555 1_555
O3 C195 1_555 1_555
O4 C196 1_555 1_555
Zn1B O3 1_555 1_555
O1B Zn4 1_555 1_555
Zn4B O1 1_555 1_555
O3B Zn1 1_555 1_555
C3 C17 1_555 1_555
C5 C18 1_555 1_555
C7 C19 1_555 1_555
C8 C20 1_555 1_555
C9 C10 1_555 1_555
C11 C12 1_555 1_555
C13 C14 1_555 1_555
C15 C16 1_555 1_555
C25 C26 1_555 1_555
C31 C32 1_555 1_555
C37 C38 1_555 1_555
C43 C44 1_555 1_555
C47 C61 1_555 1_555
C49 C62 1_555 1_555
C51 C63 1_555 1_555
C52 C64 1_555 1_555
C53 C54 1_555 1_555
C55 C56 1_555 1_555
C57 C58 1_555 1_555
C59 C60 1_555 1_555
C69 C70 1_555 1_555
C75 C76 1_555 1_555
C81 C82 1_555 1_555
C87 C88 1_555 1_555
C93 C94 1_555 1_555
C95 N9 1_555 1_555
C96 N10 1_555 1_555
C103 C117 1_555 1_555
C105 C118 1_555 1_555
C107 C119 1_555 1_555
C108 C120 1_555 1_555
C109 C110 1_555 1_555
C111 C112 1_555 1_555
C113 C114 1_555 1_555
C115 C116 1_555 1_555
C125 C126 1_555 1_555
C131 C132 1_555 1_555
C137 C138 1_555 1_555
C143 C144 1_555 1_555
C147 C161 1_555 1_555
C149 C164 1_555 1_555
C151 C163 1_555 1_555
C152 C162 1_555 1_555
C153 C154 1_555 1_555
C155 C156 1_555 1_555
C157 C158 1_555 1_555
C159 C160 1_555 1_555
C169 C170 1_555 1_555
C175 C176 1_555 1_555
C181 C182 1_555 1_555
C187 C188 1_555 1_555
C193 C194 1_555 1_555
C195 N19 1_555 1_555
C196 N20 1_555 1_555

#END
