
#######################################################################
#
#                 Cambridge Crystallographic Data Centre
#                                CCDC 
#
#######################################################################
#
# If this CIF has been generated from an entry in the Cambridge 
# Structural Database, then it will include bibliographic, chemical, 
# crystal, experimental, refinement or atomic coordinate data resulting 
# from the CCDC's data processing and validation procedures.
#
#######################################################################

data_OGUFAZ
_symmetry_cell_setting           orthorhombic
_symmetry_space_group_name_H-M   'P 21 21 21'
_symmetry_Int_Tables_number      19
_space_group_name_Hall           'P 2ac 2ab'
loop_
_symmetry_equiv_pos_site_id
_symmetry_equiv_pos_as_xyz
1 x,y,z
2 1/2+x,1/2-y,-z
3 -x,1/2+y,1/2-z
4 1/2-x,-y,1/2+z
_cell_length_a                   10.3375(4)
_cell_length_b                   17.0695(4)
_cell_length_c                   26.9368(7)
_cell_angle_alpha                90
_cell_angle_beta                 90
_cell_angle_gamma                90
_cell_volume                     4753.16
loop_
_atom_site_label
_atom_site_type_symbol
_atom_site_fract_x
_atom_site_fract_y
_atom_site_fract_z
Zn1 Zn 0.52055(5) 0.97929(3) 0.67528(2)
Zn2 Zn 0.30052(5) 1.07772(3) 0.75760(2)
N1 N 1.0096(3) 0.85349(17) 0.52006(11)
C1 C 0.9558(4) 0.8862(2) 0.47729(14)
C2 C 0.9168(4) 0.9631(2) 0.46895(15)
H1 H 0.9175 1.0011 0.4947
C3 C 0.8767(4) 0.9814(3) 0.42096(15)
H2 H 0.8493 1.0334 0.4139
C4 C 0.8756(4) 0.9259(3) 0.38299(15)
H3 H 0.8484 0.9407 0.3506
C5 C 0.9136(4) 0.8497(3) 0.39193(15)
H4 H 0.9130 0.8121 0.3659
C6 C 0.9530(4) 0.8285(2) 0.43985(14)
C7 C 1.0042(4) 0.7574(2) 0.46106(14)
C8 C 1.0245(4) 0.6812(2) 0.44334(15)
H5 H 0.9983 0.6672 0.4107
C9 C 1.0828(4) 0.6268(2) 0.47362(17)
H6 H 1.0961 0.5750 0.4617
C10 C 1.1228(4) 0.6463(2) 0.52177(16)
H7 H 1.1645 0.6080 0.5417
C11 C 1.1023(4) 0.7209(2) 0.54059(15)
H8 H 1.1290 0.7343 0.5733
C12 C 1.0418(4) 0.7753(2) 0.51032(14)
C13 C 1.0150(4) 0.8910(2) 0.56754(13)
C14 C 1.1334(4) 0.9067(2) 0.58950(14)
H9 H 1.2115 0.8923 0.5733
C15 C 1.1367(4) 0.9439(2) 0.63552(14)
C16 C 1.0213(4) 0.9648(2) 0.65881(13)
H10 H 1.0238 0.9906 0.6900
C17 C 0.9025(4) 0.9483(2) 0.63692(13)
C18 C 0.9006(4) 0.9110(2) 0.59076(13)
H11 H 0.8203 0.8994 0.5753
C19 C 1.2646(4) 0.9644(2) 0.65872(13)
O1 O 1.3656(3) 0.93725(15) 0.63916(9)
O2 O 1.2632(3) 1.00819(16) 0.69627(9)
C20 C 0.7771(4) 0.9697(2) 0.66188(13)
O3 O 0.7777(3) 1.01260(16) 0.69886(9)
O4 O 0.6752(3) 0.94002(15) 0.64211(9)
N2 N 0.4020(4) 0.83174(18) 0.94943(11)
C21 C 0.4949(4) 0.8350(2) 0.98658(13)
C22 C 0.6254(4) 0.8179(2) 0.98383(15)
H12 H 0.6626 0.7972 0.9543
C23 C 0.7002(5) 0.8319(2) 1.02574(15)
H13 H 0.7905 0.8217 1.0245
C24 C 0.6459(5) 0.8606(3) 1.06961(16)
H14 H 0.6993 0.8700 1.0977
C25 C 0.5146(5) 0.8752(2) 1.07221(14)
H15 H 0.4774 0.8933 1.1024
C26 C 0.4364(4) 0.8635(2) 1.03051(14)
C27 C 0.3025(5) 0.8786(2) 1.01893(14)
C28 C 0.1965(5) 0.9054(2) 1.04612(15)
H16 H 0.2054 0.9174 1.0804
C29 C 0.0789(5) 0.9143(2) 1.02286(17)
H17 H 0.0065 0.9323 1.0414
C30 C 0.0641(5) 0.8971(2) 0.97210(17)
H18 H -0.0179 0.9044 0.9568
C31 C 0.1672(4) 0.8698(2) 0.94407(15)
H19 H 0.1575 0.8581 0.9098
C32 C 0.2856(4) 0.8603(2) 0.96809(14)
C33 C 0.4290(4) 0.8160(2) 0.89826(13)
C34 C 0.4284(4) 0.8772(2) 0.86457(14)
H20 H 0.4066 0.9286 0.8753
C35 C 0.4596(4) 0.8637(2) 0.81523(13)
C36 C 0.4887(4) 0.7885(2) 0.79957(13)
H21 H 0.5118 0.7793 0.7659
C37 C 0.4844(4) 0.7265(2) 0.83265(12)
C38 C 0.4554(4) 0.7401(2) 0.88262(13)
H22 H 0.4537 0.6979 0.9056
C39 C 0.4559(4) 0.9309(2) 0.77850(13)
O5 O 0.4023(3) 0.99258(14) 0.79287(9)
O6 O 0.5075(3) 0.91834(14) 0.73688(8)
C40 C 0.5064(4) 0.6441(2) 0.81438(12)
O7 O 0.5387(3) 0.63493(14) 0.77007(9)
O8 O 0.4855(3) 0.58970(13) 0.84531(8)
N3 N 0.1837(4) 1.29250(19) 0.70274(13)
C41 C 0.1543(5) 1.2830(3) 0.65068(17)
H23 H 0.1517 1.2270 0.6425
H24 H 0.2212 1.3087 0.6307
H25 H 0.0700 1.3067 0.6435
C42 C 0.1980(5) 1.3730(3) 0.72117(19)
H26 H 0.2325 1.3719 0.7550
H27 H 0.1135 1.3990 0.7212
H28 H 0.2576 1.4019 0.6996
C43 C 0.2035(5) 1.2339(2) 0.73346(16)
H29 H 0.2301 1.2461 0.7663
O9 O 0.1901(3) 1.16392(16) 0.72253(11)
N4 N 0.2421(3) 1.14708(19) 0.90238(12)
C44 C 0.1999(5) 1.2286(2) 0.90013(15)
H30 H 0.2586 1.2583 0.8786
H31 H 0.2010 1.2511 0.9336
H32 H 0.1119 1.2310 0.8867
C45 C 0.2213(4) 1.1040(2) 0.94874(14)
H33 H 0.1285 1.1015 0.9559
H34 H 0.2659 1.1310 0.9759
H35 H 0.2558 1.0508 0.9454
C46 C 0.2896(4) 1.1130(2) 0.86258(14)
H36 H 0.3153 1.0597 0.8650
O10 O 0.3028(3) 1.14649(14) 0.82195(9)
O11 O 0.1345(3) 1.02356(17) 0.79084(11)
H37 H 0.133(5) 0.977(3) 0.7954(17)
C47 C 0.0135(5) 1.0588(2) 0.80315(15)
H38 H -0.0518 1.0439 0.7780
H39 H 0.0227 1.1165 0.8025
C48 C -0.0331(5) 1.0336(3) 0.85397(15)
H40 H -0.0412 0.9764 0.8549
H41 H -0.1175 1.0574 0.8607
H42 H 0.0293 1.0506 0.8792
Zn1_2 Zn 1.52055(5) 0.97929(3) 0.67528(2)
Zn1B Zn 0.47945(5) 0.47929(3) 0.82472(2)
Zn2_2 Zn 1.30052(5) 1.07772(3) 0.75760(2)
Zn2B Zn 0.69948(5) 0.57772(3) 0.74240(2)
O1_2 O 0.3656(3) 0.93725(15) 0.63916(9)
O2_2 O 0.2632(3) 1.00819(16) 0.69627(9)
O7B O 0.4613(3) 1.13493(14) 0.72993(9)
O8B O 0.5145(3) 1.08970(13) 0.65469(8)
O12 O 0.1233(3) 0.86678(17) 0.80160(11)
N5 N 0.1861(4) 0.75797(19) 0.75861(13)
C49 C 0.1507(5) 0.7034(2) 0.79769(16)
H43 H 0.1465 0.7313 0.8295
H44 H 0.2158 0.6618 0.7997
H45 H 0.0661 0.6804 0.7902
C50 C 0.2443(5) 0.7268(3) 0.71331(17)
H46 H 0.1823 0.6922 0.6966
H47 H 0.3223 0.6970 0.7218
H48 H 0.2673 0.7701 0.6912
C51 C 0.1710(4) 0.8343(2) 0.76437(16)
H49 H 0.1987 0.8672 0.7380
loop_
_geom_bond_atom_site_label_1
_geom_bond_atom_site_label_2
_geom_bond_site_symmetry_1
_geom_bond_site_symmetry_2
Zn1 O4 1_555 1_555
Zn2 O5 1_555 1_555
N1 C1 1_555 1_555
C1 C2 1_555 1_555
C2 H1 1_555 1_555
C3 C2 1_555 1_555
H2 C3 1_555 1_555
C4 C3 1_555 1_555
H3 C4 1_555 1_555
C5 C4 1_555 1_555
H4 C5 1_555 1_555
C6 C1 1_555 1_555
C7 C6 1_555 1_555
C8 C7 1_555 1_555
H5 C8 1_555 1_555
C9 C8 1_555 1_555
H6 C9 1_555 1_555
C10 C9 1_555 1_555
H7 C10 1_555 1_555
C11 C10 1_555 1_555
H8 C11 1_555 1_555
C12 N1 1_555 1_555
C13 N1 1_555 1_555
C14 C13 1_555 1_555
H9 C14 1_555 1_555
C15 C14 1_555 1_555
C16 C15 1_555 1_555
H10 C16 1_555 1_555
C17 C16 1_555 1_555
C18 C13 1_555 1_555
H11 C18 1_555 1_555
C19 C15 1_555 1_555
O1 C19 1_555 1_555
O2 C19 1_555 1_555
C20 C17 1_555 1_555
O3 C20 1_555 1_555
O4 C20 1_555 1_555
N2 C21 1_555 1_555
C21 C22 1_555 1_555
C22 H12 1_555 1_555
C23 C22 1_555 1_555
H13 C23 1_555 1_555
C24 C23 1_555 1_555
H14 C24 1_555 1_555
C25 C24 1_555 1_555
H15 C25 1_555 1_555
C26 C21 1_555 1_555
C27 C26 1_555 1_555
C28 C27 1_555 1_555
H16 C28 1_555 1_555
C29 C28 1_555 1_555
H17 C29 1_555 1_555
C30 C29 1_555 1_555
H18 C30 1_555 1_555
C31 C30 1_555 1_555
H19 C31 1_555 1_555
C32 N2 1_555 1_555
C33 N2 1_555 1_555
C34 C33 1_555 1_555
H20 C34 1_555 1_555
C35 C34 1_555 1_555
C36 C35 1_555 1_555
H21 C36 1_555 1_555
C37 C36 1_555 1_555
C38 C33 1_555 1_555
H22 C38 1_555 1_555
C39 C35 1_555 1_555
O5 C39 1_555 1_555
O6 Zn1 1_555 1_555
C40 C37 1_555 1_555
O7 C40 1_555 1_555
O8 C40 1_555 1_555
N3 C41 1_555 1_555
C41 H23 1_555 1_555
H24 C41 1_555 1_555
H25 C41 1_555 1_555
C42 N3 1_555 1_555
H26 C42 1_555 1_555
H27 C42 1_555 1_555
H28 C42 1_555 1_555
C43 N3 1_555 1_555
H29 C43 1_555 1_555
O9 Zn2 1_555 1_555
N4 C44 1_555 1_555
C44 H30 1_555 1_555
H31 C44 1_555 1_555
H32 C44 1_555 1_555
C45 N4 1_555 1_555
H33 C45 1_555 1_555
H34 C45 1_555 1_555
H35 C45 1_555 1_555
C46 N4 1_555 1_555
H36 C46 1_555 1_555
O10 Zn2 1_555 1_555
O11 Zn2 1_555 1_555
H37 O11 1_555 1_555
C47 O11 1_555 1_555
H38 C47 1_555 1_555
H39 C47 1_555 1_555
C48 C47 1_555 1_555
H40 C48 1_555 1_555
H41 C48 1_555 1_555
H42 C48 1_555 1_555
O12 C51 1_555 1_555
N5 C49 1_555 1_555
C49 H43 1_555 1_555
H44 C49 1_555 1_555
H45 C49 1_555 1_555
C50 N5 1_555 1_555
H46 C50 1_555 1_555
H47 C50 1_555 1_555
H48 C50 1_555 1_555
C51 N5 1_555 1_555
H49 C51 1_555 1_555
Zn1_2 O1 1_555 1_555
Zn1B O8 1_555 1_555
Zn2_2 O2 1_555 1_555
Zn2B O7 1_555 1_555
O1_2 Zn1 1_555 1_555
O2_2 Zn2 1_555 1_555
O7B Zn2 1_555 1_555
O8B Zn1 1_555 1_555
C5 C6 1_555 1_555
C7 C12 1_555 1_555
C11 C12 1_555 1_555
C17 C18 1_555 1_555
C25 C26 1_555 1_555
C27 C32 1_555 1_555
C31 C32 1_555 1_555
C37 C38 1_555 1_555
C39 O6 1_555 1_555
C43 O9 1_555 1_555
C46 O10 1_555 1_555

#END
