
#######################################################################
#
#                 Cambridge Crystallographic Data Centre
#                                CCDC 
#
#######################################################################
#
# If this CIF has been generated from an entry in the Cambridge 
# Structural Database, then it will include bibliographic, chemical, 
# crystal, experimental, refinement or atomic coordinate data resulting 
# from the CCDC's data processing and validation procedures.
#
#######################################################################

data_OGUGUU
_symmetry_cell_setting           orthorhombic
_symmetry_space_group_name_H-M   'P n n a'
_symmetry_Int_Tables_number      52
_space_group_name_Hall           '-P 2a 2bc'
loop_
_symmetry_equiv_pos_site_id
_symmetry_equiv_pos_as_xyz
1 x,y,z
2 1/2-x,-y,z
3 1/2-x,1/2+y,1/2-z
4 x,1/2-y,1/2-z
5 -x,-y,-z
6 1/2+x,y,-z
7 1/2+x,1/2-y,1/2+z
8 -x,1/2+y,1/2+z
_cell_length_a                   14.6639(9)
_cell_length_b                   22.7525(14)
_cell_length_c                   9.8535(6)
_cell_angle_alpha                90
_cell_angle_beta                 90
_cell_angle_gamma                90
_cell_volume                     3287.53
loop_
_atom_site_label
_atom_site_type_symbol
_atom_site_fract_x
_atom_site_fract_y
_atom_site_fract_z
Zn1 Zn 0.67693(4) 0.2500 1.2500
Cl1 Cl 0.60187(6) 0.17067(4) 1.18161(9)
N1 N 0.76892(18) 0.27566(13) 1.1038(3)
C1 C 0.9020(2) 0.31083(17) 0.9218(4)
H1 H 0.9474 0.3225 0.8585
C2 C 0.7865(2) 0.33306(15) 1.0838(4)
H2 H 0.7524 0.3612 1.1337
C3 C 0.8174(2) 0.23567(16) 1.0344(4)
H3 H 0.8052 0.1951 1.0480
C4 C 0.8529(2) 0.35316(15) 0.9929(3)
C5 C 0.8848(3) 0.25200(16) 0.9434(4)
H4 H 0.9188 0.2229 0.8962
C6 C 0.9021(2) 0.60247(16) 0.9308(4)
H5 H 0.9043 0.6255 1.0112
C7 C 0.8919(2) 0.53814(16) 0.9447(4)
C8 C 0.8922(3) 0.5013(2) 0.8335(4)
H6 H 0.9002 0.5175 0.7454
C9 C 0.8676(2) 0.41701(16) 0.9765(4)
C10 C 0.8795(3) 0.51442(16) 1.0725(4)
H7 H 0.8797 0.5394 1.1498
C11 C 0.8668(3) 0.45418(16) 1.0887(4)
H8 H 0.8575 0.4384 1.1769
C12 C 0.8809(3) 0.44121(19) 0.8484(4)
H9 H 0.8824 0.4164 0.7708
N2 N 0.9082(2) 0.62862(14) 0.8182(3)
C13 C 0.8258(2) 0.71635(19) 0.7508(4)
H10 H 0.7705 0.7020 0.7981
H11 H 0.8241 0.7014 0.6564
C14 C 0.9950(2) 0.71639(16) 0.7493(3)
H12 H 0.9955 0.7022 0.6543
H13 H 1.0506 0.7016 0.7948
C15 C 0.9105(2) 0.69285(16) 0.8222(4)
H14 H 0.9108 0.7064 0.9188
N1C N 0.76892(18) 1.22434(13) 0.3962(3)
C1C C 0.9020(2) 1.18917(17) 0.5782(4)
H1C H 0.9474 1.1775 0.6415
C2C C 0.7865(2) 1.16694(15) 0.4162(4)
H2C H 0.7524 1.1388 0.3663
C3C C 0.8174(2) 1.26433(16) 0.4656(4)
H3C H 0.8052 1.3049 0.4520
C4C C 0.8529(2) 1.14684(15) 0.5071(3)
C5C C 0.8848(3) 1.24800(16) 0.5566(4)
H4C H 0.9188 1.2771 0.6038
C6C C 0.9021(2) 0.89753(16) 0.5692(4)
H5C H 0.9043 0.8745 0.4888
C7C C 0.8919(2) 0.96186(16) 0.5553(4)
C8C C 0.8922(3) 0.9987(2) 0.6665(4)
H6C H 0.9002 0.9825 0.7546
C9C C 0.8676(2) 1.08299(16) 0.5235(4)
C10C C 0.8795(3) 0.98558(16) 0.4275(4)
H7C H 0.8797 0.9606 0.3502
C11C C 0.8668(3) 1.04582(16) 0.4113(4)
H8C H 0.8575 1.0616 0.3231
C12C C 0.8809(3) 1.05879(19) 0.6516(4)
H9C H 0.8824 1.0836 0.7292
N2C N 0.9082(2) 0.87138(14) 0.6818(3)
C13C C 0.8258(2) 0.78365(19) 0.7492(4)
H10C H 0.7705 0.7980 0.7019
H11C H 0.8241 0.7986 0.8436
C14C C 0.9950(2) 0.78361(16) 0.7507(3)
H12C H 0.9955 0.7978 0.8457
H13C H 1.0506 0.7984 0.7052
C15C C 0.9105(2) 0.80715(16) 0.6778(4)
H14C H 0.9108 0.7936 0.5812
Cl1C Cl 0.60187(6) 0.32933(4) 1.31839(9)
Zn1_2 Zn 0.67693(4) 1.2500 0.2500
N1C_2 N 0.76892(18) 0.22434(13) 1.3962(3)
Cl2 Cl 0.9171(5) 0.0738(3) 0.0208(5)
Cl3 Cl 0.7139(15) 0.0537(10) 0.038(3)
C16 C 0.8276(13) 0.0232(11) 0.036(3)
H15 H 0.8365 0.0007 0.1209
H16 H 0.8318 -0.0050 -0.0403
Cl2A Cl 0.5829(5) -0.0738(3) 0.0208(5)
Cl3A Cl 0.7861(15) -0.0537(10) 0.038(3)
C16A C 0.6724(13) -0.0232(11) 0.036(3)
H15A H 0.6635 -0.0007 0.1209
H16A H 0.6682 0.0050 -0.0403
Cl4? Cl 0.8348(7) -0.0374(4) 0.0499(9)
Cl5? Cl 0.7276(6) 0.0726(4) 0.0642(9)
C17? C 0.822(3) 0.0334(15) -0.012(4)
H17? H 0.8119 0.0315 -0.1113
H18? H 0.8785 0.0556 0.0044
Cl6? Cl 0.8490(14) 0.0797(6) 0.0257(9)
Cl7? Cl 1.0125(15) 0.0245(9) -0.0183(14)
C18? C 0.895(2) 0.0099(11) 0.035(3)
H19? H 0.8635 -0.0176 -0.0270
H20? H 0.8922 -0.0058 0.1290
loop_
_geom_bond_atom_site_label_1
_geom_bond_atom_site_label_2
_geom_bond_site_symmetry_1
_geom_bond_site_symmetry_2
Zn1 Cl1 1_555 1_555
N1 Zn1 1_555 1_555
C1 H1 1_555 1_555
C2 N1 1_555 1_555
H2 C2 1_555 1_555
C3 N1 1_555 1_555
H3 C3 1_555 1_555
C4 C1 1_555 1_555
C5 C1 1_555 1_555
H4 C5 1_555 1_555
C6 H5 1_555 1_555
C7 C6 1_555 1_555
C8 C7 1_555 1_555
H6 C8 1_555 1_555
C9 C4 1_555 1_555
C10 C7 1_555 1_555
H7 C10 1_555 1_555
C11 C9 1_555 1_555
H8 C11 1_555 1_555
C12 C8 1_555 1_555
H9 C12 1_555 1_555
N2 C6 1_555 1_555
C13 H10 1_555 1_555
H11 C13 1_555 1_555
C14 H12 1_555 1_555
H13 C14 1_555 1_555
C15 N2 1_555 1_555
H14 C15 1_555 1_555
Cl2 C16 1_555 1_555
Cl3 C16 1_555 1_555
C16 H15 1_555 1_555
H16 C16 1_555 1_555
N1C C2C 1_555 1_555
C1C H1C 1_555 1_555
C2C H2C 1_555 1_555
C3C N1C 1_555 1_555
H3C C3C 1_555 1_555
C4C C1C 1_555 1_555
C5C C1C 1_555 1_555
H4C C5C 1_555 1_555
C6C H5C 1_555 1_555
C7C C6C 1_555 1_555
C8C C7C 1_555 1_555
H6C C8C 1_555 1_555
C9C C4C 1_555 1_555
C10C C7C 1_555 1_555
H7C C10C 1_555 1_555
C11C C9C 1_555 1_555
H8C C11C 1_555 1_555
C12C C8C 1_555 1_555
H9C C12C 1_555 1_555
N2C C6C 1_555 1_555
C13C C13 1_555 1_555
H10C C13C 1_555 1_555
H11C C13C 1_555 1_555
C14C C14 1_555 1_555
H12C C14C 1_555 1_555
H13C C14C 1_555 1_555
C15C N2C 1_555 1_555
H14C C15C 1_555 1_555
Cl1C Zn1 1_555 1_555
Zn1_2 N1C 1_555 1_555
N1C_2 Zn1 1_555 1_555
Cl2A C16A 1_555 1_555
Cl3A C16A 1_555 1_555
C16A H15A 1_555 1_555
H16A C16A 1_555 1_555
C2 C4 1_555 1_555
C3 C5 1_555 1_555
C9 C12 1_555 1_555
C10 C11 1_555 1_555
C13 C15 1_555 1_555
C14 C15 1_555 1_555
C2C C4C 1_555 1_555
C3C C5C 1_555 1_555
C9C C12C 1_555 1_555
C10C C11C 1_555 1_555
C13C C15C 1_555 1_555
C14C C15C 1_555 1_555

#END
