
#######################################################################
#
#                 Cambridge Crystallographic Data Centre
#                                CCDC 
#
#######################################################################
#
# If this CIF has been generated from an entry in the Cambridge 
# Structural Database, then it will include bibliographic, chemical, 
# crystal, experimental, refinement or atomic coordinate data resulting 
# from the CCDC's data processing and validation procedures.
#
#######################################################################

data_OGUGOO
_symmetry_cell_setting           orthorhombic
_symmetry_space_group_name_H-M   'P n n a'
_symmetry_Int_Tables_number      52
_space_group_name_Hall           '-P 2a 2bc'
loop_
_symmetry_equiv_pos_site_id
_symmetry_equiv_pos_as_xyz
1 x,y,z
2 x,1/2-y,1/2-z
3 1/2-x,1/2+y,1/2-z
4 1/2-x,-y,z
5 -x,-y,-z
6 -x,1/2+y,1/2+z
7 1/2+x,1/2-y,1/2+z
8 1/2+x,y,-z
_cell_length_a                   14.6608(9)
_cell_length_b                   22.7977(16)
_cell_length_c                   9.9218(7)
_cell_angle_alpha                90
_cell_angle_beta                 90
_cell_angle_gamma                90
_cell_volume                     3316.19
loop_
_atom_site_label
_atom_site_type_symbol
_atom_site_fract_x
_atom_site_fract_y
_atom_site_fract_z
Cl1 Cl 0.39633(8) 0.32889(5) 0.31499(12)
Zn1 Zn 0.31950(5) 0.2500 0.2500
N1 N 0.0941(3) -0.12873(17) 0.6838(4)
N2 N 0.2282(2) 0.22422(15) 0.3955(3)
C1 C 0.1798(3) 0.26420(19) 0.4653(5)
H1 H 0.1919 0.3047 0.4520
C2 C 0.1129(3) 0.24770(19) 0.5559(5)
H2 H 0.0787 0.2766 0.6028
C3 C 0.0961(3) 0.1888(2) 0.5779(4)
H3 H 0.0510 0.1769 0.6411
C4 C 0.1459(3) 0.14673(18) 0.5066(4)
C5 C 0.1313(3) 0.08282(19) 0.5246(4)
C6 C 0.1184(4) 0.0588(2) 0.6526(5)
H4 H 0.1172 0.0838 0.7292
C7 C 0.1073(4) -0.0008(2) 0.6690(5)
H5 H 0.0987 -0.0163 0.7569
C8 C 0.1084(3) -0.0386(2) 0.5587(5)
C9 C 0.1209(3) -0.0146(2) 0.4306(5)
H6 H 0.1214 -0.0397 0.3541
C10 C 0.1324(3) 0.04544(19) 0.4133(4)
H7 H 0.1411 0.0611 0.3255
C11 C 0.0992(3) -0.10255(19) 0.5726(4)
H8 H 0.0969 -0.1254 0.4927
C12 C 0.0918(3) -0.1926(2) 0.6798(4)
H9 H 0.0911 -0.2059 0.5837
C13 C 0.0079(3) -0.2165(2) 0.7512(4)
H10 H -0.0477 -0.2016 0.7063
H11 H 0.0074 -0.2026 0.8458
C14 C 0.2110(3) 0.16675(18) 0.4162(4)
H12 H 0.2451 0.1387 0.3664
C15 C 0.1768(3) -0.2167(2) 0.7491(5)
H13 H 0.2318 -0.2025 0.7010
H14 H 0.1794 -0.2018 0.8427
N1A N 0.0941(3) -0.37127(17) 0.8162(4)
N2A N 0.2282(2) -0.72422(15) 1.1045(3)
C1A C 0.1798(3) -0.76420(19) 1.0347(5)
H1A H 0.1919 -0.8047 1.0480
C2A C 0.1129(3) -0.74770(19) 0.9441(5)
H2A H 0.0787 -0.7766 0.8972
C3A C 0.0961(3) -0.6888(2) 0.9221(4)
H3A H 0.0510 -0.6769 0.8589
C4A C 0.1459(3) -0.64673(18) 0.9934(4)
C5A C 0.1313(3) -0.58282(19) 0.9754(4)
C6A C 0.1184(4) -0.5588(2) 0.8474(5)
H4A H 0.1172 -0.5838 0.7708
C7A C 0.1073(4) -0.4992(2) 0.8310(5)
H5A H 0.0987 -0.4837 0.7431
C8A C 0.1084(3) -0.4614(2) 0.9413(5)
C9A C 0.1209(3) -0.4854(2) 1.0694(5)
H6A H 0.1214 -0.4603 1.1459
C10A C 0.1324(3) -0.54544(19) 1.0867(4)
H7A H 0.1411 -0.5611 1.1745
C11A C 0.0992(3) -0.39745(19) 0.9274(4)
H8A H 0.0969 -0.3746 1.0073
C12A C 0.0918(3) -0.3074(2) 0.8202(4)
H9A H 0.0911 -0.2941 0.9163
C13A C 0.0079(3) -0.2835(2) 0.7488(4)
H10A H -0.0477 -0.2984 0.7937
H11A H 0.0074 -0.2974 0.6542
C14A C 0.2110(3) -0.66675(18) 1.0838(4)
H12A H 0.2451 -0.6387 1.1336
C15A C 0.1768(3) -0.2833(2) 0.7509(5)
H13A H 0.2318 -0.2975 0.7990
H14A H 0.1794 -0.2982 0.6573
Cl1A Cl 0.39633(8) 0.17111(5) 0.18501(12)
Zn1_2 Zn 0.31950(5) -0.7500 1.2500
N2A_2 N 0.2282(2) 0.27578(15) 0.1045(3)
Cl2 Cl 0.0806(4) 0.0743(2) 0.0270(5)
C16 C 0.1858(13) 0.0376(8) -0.001(2)
Cl3 Cl 0.2795(8) 0.0753(5) 0.0613(13)
Cl4 Cl 0.1751(9) -0.0381(4) 0.0485(10)
Cl2C Cl 0.4194(4) -0.0743(2) 0.0270(5)
C16C C 0.3142(13) -0.0376(8) -0.001(2)
Cl3C Cl 0.2205(8) -0.0753(5) 0.0613(13)
Cl4C Cl 0.3249(9) 0.0381(4) 0.0485(10)
Cl5? Cl 0.2500 0.0000 0.1290(16)
Cl6? Cl 0.2686(11) 0.0861(6) -0.0965(14)
loop_
_geom_bond_atom_site_label_1
_geom_bond_atom_site_label_2
_geom_bond_site_symmetry_1
_geom_bond_site_symmetry_2
Cl1 Zn1 1_555 1_555
Zn1 N2 1_555 1_555
N1 C11 1_555 1_555
N2 C1 1_555 1_555
C1 H1 1_555 1_555
C2 C1 1_555 1_555
H2 C2 1_555 1_555
C3 C2 1_555 1_555
H3 C3 1_555 1_555
C4 C3 1_555 1_555
C5 C4 1_555 1_555
C6 C5 1_555 1_555
H4 C6 1_555 1_555
C7 C6 1_555 1_555
H5 C7 1_555 1_555
C8 C7 1_555 1_555
C9 C8 1_555 1_555
H6 C9 1_555 1_555
C10 C5 1_555 1_555
H7 C10 1_555 1_555
C11 C8 1_555 1_555
H8 C11 1_555 1_555
C12 N1 1_555 1_555
H9 C12 1_555 1_555
C13 C12 1_555 1_555
H10 C13 1_555 1_555
H11 C13 1_555 1_555
C14 N2 1_555 1_555
H12 C14 1_555 1_555
C15 C12 1_555 1_555
H13 C15 1_555 1_555
H14 C15 1_555 1_555
Cl2 C16 1_555 1_555
C16 Cl3 1_555 1_555
Cl4 C16 1_555 1_555
N1A C11A 1_555 1_555
N2A C1A 1_555 1_555
C1A H1A 1_555 1_555
C2A C1A 1_555 1_555
H2A C2A 1_555 1_555
C3A C2A 1_555 1_555
H3A C3A 1_555 1_555
C4A C3A 1_555 1_555
C5A C4A 1_555 1_555
C6A C5A 1_555 1_555
H4A C6A 1_555 1_555
C7A C6A 1_555 1_555
H5A C7A 1_555 1_555
C8A C7A 1_555 1_555
C9A C8A 1_555 1_555
H6A C9A 1_555 1_555
C10A C5A 1_555 1_555
H7A C10A 1_555 1_555
C11A C8A 1_555 1_555
H8A C11A 1_555 1_555
C12A N1A 1_555 1_555
H9A C12A 1_555 1_555
C13A C13 1_555 1_555
H10A C13A 1_555 1_555
H11A C13A 1_555 1_555
C14A N2A 1_555 1_555
H12A C14A 1_555 1_555
C15A C15 1_555 1_555
H13A C15A 1_555 1_555
H14A C15A 1_555 1_555
Cl1A Zn1 1_555 1_555
Zn1_2 N2A 1_555 1_555
N2A_2 Zn1 1_555 1_555
Cl2C C16C 1_555 1_555
C16C Cl3C 1_555 1_555
Cl4C C16C 1_555 1_555
C4 C14 1_555 1_555
C9 C10 1_555 1_555
C4A C14A 1_555 1_555
C9A C10A 1_555 1_555
C12A C13A 1_555 1_555
C12A C15A 1_555 1_555

#END
