
#######################################################################
#
#                 Cambridge Crystallographic Data Centre
#                                CCDC 
#
#######################################################################
#
# If this CIF has been generated from an entry in the Cambridge 
# Structural Database, then it will include bibliographic, chemical, 
# crystal, experimental, refinement or atomic coordinate data resulting 
# from the CCDC's data processing and validation procedures.
#
#######################################################################

data_OGUGAY
_symmetry_cell_setting           monoclinic
_symmetry_space_group_name_H-M   'P 21/n'
_symmetry_Int_Tables_number      14
_space_group_name_Hall           '-P 2yn'
loop_
_symmetry_equiv_pos_site_id
_symmetry_equiv_pos_as_xyz
1 x,y,z
2 1/2+x,1/2-y,1/2+z
3 -x,-y,-z
4 1/2-x,1/2+y,1/2-z
_cell_length_a                   10.779(3)
_cell_length_b                   13.439(4)
_cell_length_c                   29.549(8)
_cell_angle_alpha                90
_cell_angle_beta                 98.136(4)
_cell_angle_gamma                90
_cell_volume                     4237.36
loop_
_atom_site_label
_atom_site_type_symbol
_atom_site_fract_x
_atom_site_fract_y
_atom_site_fract_z
Ru1 Ru -0.18178(3) -0.17761(2) 0.114440(10)
C1 C 0.0068(4) -0.1786(3) 0.12463(15)
N1 N 0.1147(4) -0.1804(3) 0.13060(16)
Sn1 Sn 0.31735(2) -0.18598(2) 0.116540(10)
C2 C 0.3651(6) -0.0689(5) 0.1622(2)
H1 H 0.3604 -0.0071 0.1457
H2 H 0.4489 -0.0784 0.1775
H3 H 0.3079 -0.0673 0.1843
C3 C 0.2517(5) -0.1509(4) 0.04774(16)
H4 H 0.2078 -0.0886 0.0463
H5 H 0.1960 -0.2023 0.0346
H6 H 0.3215 -0.1459 0.0310
C4 C 0.3306(6) -0.3385(4) 0.1343(2)
H7 H 0.2519 -0.3706 0.1243
H8 H 0.3507 -0.3449 0.1669
H9 H 0.3951 -0.3692 0.1198
C5 C -0.1858(4) -0.0594(3) 0.15609(14)
N2 N -0.1908(4) 0.0088(3) 0.17959(14)
Sn2 Sn -0.25304(3) 0.09705(2) 0.239870(10)
C6 C -0.2930(7) -0.0394(4) 0.2706(2)
H10 H -0.2194 -0.0805 0.2745
H11 H -0.3594 -0.0730 0.2515
H12 H -0.3184 -0.0266 0.3000
C7 C -0.0770(5) 0.1656(5) 0.2530(3)
H13 H -0.0129 0.1181 0.2490
H14 H -0.0639 0.1900 0.2839
H15 H -0.0735 0.2201 0.2322
C8 C -0.3874(6) 0.1747(5) 0.1932(2)
H16 H -0.4372 0.2166 0.2099
H17 H -0.4408 0.1277 0.1753
H18 H -0.3450 0.2149 0.1733
C9 C -0.1838(4) -0.2964(3) 0.07262(15)
N3 N -0.1905(4) -0.3635(3) 0.04789(14)
C10 C -0.3710(4) -0.1803(3) 0.10570(14)
N4 N -0.4781(4) -0.1839(3) 0.10110(15)
C11 C -0.1827(4) -0.2681(3) 0.16889(14)
N5 N -0.1860(5) -0.3180(3) 0.19937(16)
C12 C -0.1823(3) -0.0872(3) 0.05989(13)
N6 N -0.1820(4) -0.0372(3) 0.02824(12)
Sn3 Sn -0.22599(3) -0.53264(2) 0.060230(11)
C13 C -0.3894(6) -0.4920(5) 0.0860(3)
H19 H -0.4411 -0.5497 0.0877
H20 H -0.4343 -0.4435 0.0661
H21 H -0.3680 -0.4641 0.1160
C14 C -0.0495(6) -0.5343(4) 0.0983(2)
H22 H -0.0475 -0.4892 0.1235
H23 H 0.0115 -0.5142 0.0794
H24 H -0.0305 -0.6004 0.1096
C15 C -0.2353(7) -0.5592(5) -0.01099(18)
H25 H -0.1599 -0.5356 -0.0212
H26 H -0.3061 -0.5246 -0.0271
H27 H -0.2442 -0.6293 -0.0169
S1 S -0.23863(13) -0.72570(9) 0.08402(5)
C16 C -0.3745(4) -0.7836(3) 0.06123(15)
C17 C -0.3953(4) -0.8832(3) 0.07260(15)
H28 H -0.3357 -0.9157 0.0932
C18 C -0.4982(5) -0.9323(4) 0.05460(17)
H29 H -0.5092 -0.9983 0.0626
N7 N -0.5857(4) -0.8868(3) 0.02503(13)
H30 H -0.6516 -0.9190 0.0135
C19 C -0.5717(5) -0.7926(4) 0.01342(17)
H31 H -0.6336 -0.7624 -0.0071
C20 C -0.4700(5) -0.7398(4) 0.03065(16)
H32 H -0.4631 -0.6736 0.0222
N4_2 N 0.5219(4) -0.1839(3) 0.10110(15)
N5C N -0.3140(5) 0.1820(3) 0.30063(16)
Sn1_2 Sn -0.68265(2) -0.18598(2) 0.116540(10)
Sn2C Sn -0.24696(3) -0.40295(2) 0.260130(10)
Sn4 Sn -0.70775(4) -0.69250(3) 0.210850(14)
C21 C -0.8867(7) -0.6283(7) 0.2086(3)
H33 H -0.9107 -0.6287 0.2386
H34 H -0.9463 -0.6658 0.1882
H35 H -0.8846 -0.5609 0.1979
C22 C -0.6891(7) -0.8337(5) 0.2438(3)
H36 H -0.6298 -0.8288 0.2712
H37 H -0.6602 -0.8817 0.2237
H38 H -0.7689 -0.8542 0.2515
C23 C -0.5634(7) -0.5910(5) 0.2319(3)
H39 H -0.5587 -0.5432 0.2081
H40 H -0.4852 -0.6260 0.2381
H41 H -0.5802 -0.5575 0.2590
S2 S -0.68798(15) -0.70565(14) 0.12900(6)
C24 C -0.8167(4) -0.7739(4) 0.10219(18)
C25 C -0.8778(5) -0.8462(4) 0.12367(19)
H42 H -0.8561 -0.8584 0.1548
C26 C -0.9716(5) -0.9001(4) 0.0983(2)
H43 H -1.0137 -0.9487 0.1125
N8 N -1.0024(4) -0.8840(3) 0.05472(15)
H44 H -1.0593 -0.9202 0.0393
C27 C -0.9482(5) -0.8139(4) 0.03401(18)
H45 H -0.9735 -0.8030 0.0030
C28 C -0.8563(5) -0.7570(4) 0.05652(18)
H46 H -0.8200 -0.7066 0.0412
loop_
_geom_bond_atom_site_label_1
_geom_bond_atom_site_label_2
_geom_bond_site_symmetry_1
_geom_bond_site_symmetry_2
Ru1 C1 1_555 1_555
C1 N1 1_555 1_555
N1 Sn1 1_555 1_555
Sn1 C2 1_555 1_555
C2 H1 1_555 1_555
H2 C2 1_555 1_555
H3 C2 1_555 1_555
C3 Sn1 1_555 1_555
H4 C3 1_555 1_555
H5 C3 1_555 1_555
H6 C3 1_555 1_555
C4 Sn1 1_555 1_555
H7 C4 1_555 1_555
H8 C4 1_555 1_555
H9 C4 1_555 1_555
C5 Ru1 1_555 1_555
N2 C5 1_555 1_555
Sn2 N2 1_555 1_555
C6 Sn2 1_555 1_555
H10 C6 1_555 1_555
H11 C6 1_555 1_555
H12 C6 1_555 1_555
C7 Sn2 1_555 1_555
H13 C7 1_555 1_555
H14 C7 1_555 1_555
H15 C7 1_555 1_555
C8 Sn2 1_555 1_555
H16 C8 1_555 1_555
H17 C8 1_555 1_555
H18 C8 1_555 1_555
C9 Ru1 1_555 1_555
N3 C9 1_555 1_555
C10 Ru1 1_555 1_555
N4 C10 1_555 1_555
C11 Ru1 1_555 1_555
N5 C11 1_555 1_555
C12 Ru1 1_555 1_555
N6 C12 1_555 1_555
Sn3 N3 1_555 1_555
C13 Sn3 1_555 1_555
H19 C13 1_555 1_555
H20 C13 1_555 1_555
H21 C13 1_555 1_555
C14 Sn3 1_555 1_555
H22 C14 1_555 1_555
H23 C14 1_555 1_555
H24 C14 1_555 1_555
C15 Sn3 1_555 1_555
H25 C15 1_555 1_555
H26 C15 1_555 1_555
H27 C15 1_555 1_555
S1 Sn3 1_555 1_555
C16 S1 1_555 1_555
C17 C16 1_555 1_555
H28 C17 1_555 1_555
C18 C17 1_555 1_555
H29 C18 1_555 1_555
N7 C18 1_555 1_555
H30 N7 1_555 1_555
C19 N7 1_555 1_555
H31 C19 1_555 1_555
C20 C16 1_555 1_555
H32 C20 1_555 1_555
Sn4 C21 1_555 1_555
C21 H33 1_555 1_555
H34 C21 1_555 1_555
H35 C21 1_555 1_555
C22 Sn4 1_555 1_555
H36 C22 1_555 1_555
H37 C22 1_555 1_555
H38 C22 1_555 1_555
C23 Sn4 1_555 1_555
H39 C23 1_555 1_555
H40 C23 1_555 1_555
H41 C23 1_555 1_555
S2 Sn4 1_555 1_555
C24 S2 1_555 1_555
C25 C24 1_555 1_555
H42 C25 1_555 1_555
C26 C25 1_555 1_555
H43 C26 1_555 1_555
N8 C26 1_555 1_555
H44 N8 1_555 1_555
C27 N8 1_555 1_555
H45 C27 1_555 1_555
C28 C24 1_555 1_555
H46 C28 1_555 1_555
N4_2 Sn1 1_555 1_555
N5C Sn2 1_555 1_555
Sn1_2 N4 1_555 1_555
Sn2C N5 1_555 1_555
C19 C20 1_555 1_555
C27 C28 1_555 1_555

#END
