
#######################################################################
#
#                 Cambridge Crystallographic Data Centre
#                                CCDC 
#
#######################################################################
#
# If this CIF has been generated from an entry in the Cambridge 
# Structural Database, then it will include bibliographic, chemical, 
# crystal, experimental, refinement or atomic coordinate data resulting 
# from the CCDC's data processing and validation procedures.
#
#######################################################################

data_OGUHAB
_symmetry_cell_setting           orthorhombic
_symmetry_space_group_name_H-M   'P n n a'
_symmetry_Int_Tables_number      52
_space_group_name_Hall           '-P 2a 2bc'
loop_
_symmetry_equiv_pos_site_id
_symmetry_equiv_pos_as_xyz
1 x,y,z
2 1/2-x,-y,z
3 1/2-x,1/2+y,1/2-z
4 x,1/2-y,1/2-z
5 -x,-y,-z
6 1/2+x,y,-z
7 1/2+x,1/2-y,1/2+z
8 -x,1/2+y,1/2+z
_cell_length_a                   14.7255(9)
_cell_length_b                   22.4827(15)
_cell_length_c                   10.2852(7)
_cell_angle_alpha                90
_cell_angle_beta                 90
_cell_angle_gamma                90
_cell_volume                     3405.11
loop_
_atom_site_label
_atom_site_type_symbol
_atom_site_fract_x
_atom_site_fract_y
_atom_site_fract_z
Zn1 Zn 0.18045(4) 0.2500 1.2500
Cl1 Cl 0.10575(7) 0.33080(5) 1.19130(14)
N1 N 0.27250(18) 0.22654(13) 1.1065(3)
C1 C 0.3686(2) 0.08517(17) 0.9773(4)
C2 C 0.2902(2) 0.16923(15) 1.0850(4)
H1 H 0.2573 0.1403 1.1330
C3 C 0.4027(2) 0.19292(19) 0.9281(4)
H2 H 0.4475 0.1818 0.8663
C4 C 0.3197(2) 0.26740(19) 1.0401(5)
H3 H 0.3074 0.3083 1.0552
C5 C 0.3895(2) -0.03763(17) 0.9427(4)
C6 C 0.3809(3) -0.01423(18) 1.0650(4)
H4 H 0.3823 -0.0398 1.1386
C7 C 0.3550(2) 0.14959(16) 0.9950(4)
C8 C 0.3702(3) 0.04708(17) 1.0822(4)
H5 H 0.3639 0.0627 1.1675
C9 C 0.3782(3) 0.0617(2) 0.8530(5)
H6 H 0.3786 0.0874 0.7796
C10 C 0.3874(4) 0.0002(2) 0.8361(5)
H7 H 0.3923 -0.0158 0.7509
C11 C 0.3851(3) 0.25226(18) 0.9510(5)
H8 H 0.4178 0.2822 0.9058
C12 C 0.3980(2) -0.10228(18) 0.9274(5)
H9 H 0.4005 -0.1261 1.0036
N2 N 0.4021(2) -0.12783(16) 0.8186(4)
C13 C 0.4046(3) -0.19287(19) 0.8195(5)
H10 H 0.4047 -0.2074 0.9114
C14 C 0.4887(2) -0.2161(2) 0.7500(4)
H11 H 0.5439 -0.2012 0.7943
H12 H 0.4895 -0.2013 0.6593
C15 C 0.3206(3) -0.2156(2) 0.7508(5)
H13 H 0.3193 -0.2004 0.6606
H14 H 0.2656 -0.2011 0.7963
N1C N 0.27250(18) -0.72654(13) 0.3935(3)
C1C C 0.3686(2) -0.58517(17) 0.5227(4)
C2C C 0.2902(2) -0.66923(15) 0.4150(4)
H1C H 0.2573 -0.6403 0.3670
C3C C 0.4027(2) -0.69292(19) 0.5719(4)
H2C H 0.4475 -0.6818 0.6337
C4C C 0.3197(2) -0.76740(19) 0.4599(5)
H3C H 0.3074 -0.8083 0.4448
C5C C 0.3895(2) -0.46237(17) 0.5573(4)
C6C C 0.3809(3) -0.48577(18) 0.4350(4)
H4C H 0.3823 -0.4602 0.3614
C7C C 0.3550(2) -0.64959(16) 0.5050(4)
C8C C 0.3702(3) -0.54708(17) 0.4178(4)
H5C H 0.3639 -0.5627 0.3325
C9C C 0.3782(3) -0.5617(2) 0.6470(5)
H6C H 0.3786 -0.5874 0.7204
C10C C 0.3874(4) -0.5002(2) 0.6639(5)
H7C H 0.3923 -0.4842 0.7491
C11C C 0.3851(3) -0.75226(18) 0.5490(5)
H8C H 0.4178 -0.7822 0.5942
C12C C 0.3980(2) -0.39772(18) 0.5726(5)
H9C H 0.4005 -0.3739 0.4964
N2C N 0.4021(2) -0.37217(16) 0.6814(4)
C13C C 0.4046(3) -0.30713(19) 0.6805(5)
H10C H 0.4047 -0.2926 0.5886
C14C C 0.4887(2) -0.2839(2) 0.7500(4)
H11C H 0.5439 -0.2988 0.7057
H12C H 0.4895 -0.2987 0.8407
C15C C 0.3206(3) -0.2844(2) 0.7492(5)
H13C H 0.3193 -0.2996 0.8394
H14C H 0.2656 -0.2989 0.7037
Cl1C Cl 0.10575(7) 0.16920(5) 1.30870(14)
Zn1_2 Zn 0.18045(4) -0.7500 0.2500
N1C_2 N 0.27250(18) 0.27346(13) 1.3935(3)
C16 C 0.7469(14) 0.5332(5) 0.983(5)
Cl2 Cl 0.6277(5) 0.5633(2) 0.9728(5)
C16A C 0.7531(14) 0.4668(5) 0.983(5)
Cl2A Cl 0.8723(5) 0.4367(2) 0.9728(5)
Cl3? Cl 0.613(3) 0.4745(15) 0.956(3)
C17? C 0.7269(17) 0.4703(8) 1.013(15)
C18? C 0.703(7) 0.488(12) 0.844(8)
C19? C 0.732(2) 0.5320(8) 0.910(4)
loop_
_geom_bond_atom_site_label_1
_geom_bond_atom_site_label_2
_geom_bond_site_symmetry_1
_geom_bond_site_symmetry_2
Zn1 Cl1 1_555 1_555
N1 Zn1 1_555 1_555
C1 C7 1_555 1_555
C2 N1 1_555 1_555
H1 C2 1_555 1_555
C3 H2 1_555 1_555
C4 N1 1_555 1_555
H3 C4 1_555 1_555
C5 C6 1_555 1_555
C6 H4 1_555 1_555
C7 C2 1_555 1_555
C8 C1 1_555 1_555
H5 C8 1_555 1_555
C9 C1 1_555 1_555
H6 C9 1_555 1_555
C10 C5 1_555 1_555
H7 C10 1_555 1_555
C11 C3 1_555 1_555
H8 C11 1_555 1_555
C12 C5 1_555 1_555
H9 C12 1_555 1_555
N2 C12 1_555 1_555
C13 N2 1_555 1_555
H10 C13 1_555 1_555
C14 C13 1_555 1_555
H11 C14 1_555 1_555
H12 C14 1_555 1_555
C15 C13 1_555 1_555
H13 C15 1_555 1_555
H14 C15 1_555 1_555
C16 Cl2 1_555 1_555
N1C C2C 1_555 1_555
C1C C7C 1_555 1_555
C2C H1C 1_555 1_555
C3C H2C 1_555 1_555
C4C N1C 1_555 1_555
H3C C4C 1_555 1_555
C5C C6C 1_555 1_555
C6C H4C 1_555 1_555
C7C C2C 1_555 1_555
C8C C1C 1_555 1_555
H5C C8C 1_555 1_555
C9C C1C 1_555 1_555
H6C C9C 1_555 1_555
C10C C5C 1_555 1_555
H7C C10C 1_555 1_555
C11C C3C 1_555 1_555
H8C C11C 1_555 1_555
C12C C5C 1_555 1_555
H9C C12C 1_555 1_555
N2C C12C 1_555 1_555
C13C N2C 1_555 1_555
H10C C13C 1_555 1_555
C14C C14 1_555 1_555
H11C C14C 1_555 1_555
H12C C14C 1_555 1_555
C15C C15 1_555 1_555
H13C C15C 1_555 1_555
H14C C15C 1_555 1_555
Cl1C Zn1 1_555 1_555
Zn1_2 N1C 1_555 1_555
N1C_2 Zn1 1_555 1_555
C16A C16 1_555 1_555
Cl2A C16A 1_555 1_555
C3 C7 1_555 1_555
C4 C11 1_555 1_555
C6 C8 1_555 1_555
C9 C10 1_555 1_555
C3C C7C 1_555 1_555
C4C C11C 1_555 1_555
C6C C8C 1_555 1_555
C9C C10C 1_555 1_555
C13C C14C 1_555 1_555
C13C C15C 1_555 1_555

#END
