
#######################################################################
#
#                 Cambridge Crystallographic Data Centre
#                                CCDC 
#
#######################################################################
#
# If this CIF has been generated from an entry in the Cambridge 
# Structural Database, then it will include bibliographic, chemical, 
# crystal, experimental, refinement or atomic coordinate data resulting 
# from the CCDC's data processing and validation procedures.
#
#######################################################################

data_OGUHEF
_symmetry_cell_setting           orthorhombic
_symmetry_space_group_name_H-M   'P n n a'
_symmetry_Int_Tables_number      52
_space_group_name_Hall           '-P 2a 2bc'
loop_
_symmetry_equiv_pos_site_id
_symmetry_equiv_pos_as_xyz
1 x,y,z
2 1/2-x,-y,z
3 1/2-x,1/2+y,1/2-z
4 x,1/2-y,1/2-z
5 -x,-y,-z
6 1/2+x,y,-z
7 1/2+x,1/2-y,1/2+z
8 -x,1/2+y,1/2+z
_cell_length_a                   14.7556(10)
_cell_length_b                   22.5021(14)
_cell_length_c                   10.5208(7)
_cell_angle_alpha                90
_cell_angle_beta                 90
_cell_angle_gamma                90
_cell_volume                     3493.24
loop_
_atom_site_label
_atom_site_type_symbol
_atom_site_fract_x
_atom_site_fract_y
_atom_site_fract_z
Zn1 Zn 0.81394(8) 0.2500 1.2500
Cl1 Cl 0.89049(14) 0.32950(9) 1.1952(2)
N1 N 0.7224(3) 0.2258(2) 1.1102(5)
C1 C 0.5959(4) 0.1914(3) 0.9311(6)
H1 H 0.5535 0.1802 0.8702
C2 C 0.7059(4) 0.1687(2) 1.0877(6)
H2 H 0.7380 0.1406 1.1342
C3 C 0.6123(4) -0.0400(3) 0.9444(7)
C4 C 0.6314(4) 0.0833(3) 0.9806(7)
C5 C 0.6432(4) 0.1486(3) 0.9985(6)
C6 C 0.6152(5) -0.0005(4) 0.8407(8)
H3 H 0.6118 -0.0159 0.7588
C7 C 0.6757(5) 0.2673(3) 1.0431(7)
H4 H 0.6872 0.3074 1.0571
C8 C 0.6181(5) -0.0166(3) 1.0646(7)
H5 H 0.6156 -0.0414 1.1353
C9 C 0.6281(4) 0.0468(3) 1.0803(6)
H6 H 0.6323 0.0625 1.1619
C10 C 0.6230(5) 0.0608(3) 0.8566(7)
H7 H 0.6226 0.0862 0.7868
C11 C 0.6122(6) 0.2510(3) 0.9552(9)
H8 H 0.5798 0.2799 0.9114
N2 N 0.6021(4) -0.1280(2) 0.8194(6)
C12 C 0.6051(4) -0.1022(3) 0.9271(7)
H9 H 0.6025 -0.1259 0.9994
C13 C 0.6832(5) -0.2148(4) 0.7517(8)
H10 H 0.7366 -0.2006 0.7961
H11 H 0.6845 -0.1993 0.6657
C14 C 0.5168(5) -0.2154(3) 0.7520(6)
H12 H 0.5153 -0.1999 0.6660
H13 H 0.4632 -0.2015 0.7962
C15 C 0.5995(4) -0.1936(3) 0.8184(7)
H14 H 0.5996 -0.2083 0.9061
N1C N 0.7224(3) -0.7258(2) 0.3898(5)
C1C C 0.5959(4) -0.6914(3) 0.5689(6)
H1C H 0.5535 -0.6802 0.6298
C2C C 0.7059(4) -0.6687(2) 0.4123(6)
H2C H 0.7380 -0.6406 0.3658
C3C C 0.6123(4) -0.4600(3) 0.5556(7)
C4C C 0.6314(4) -0.5833(3) 0.5194(7)
C5C C 0.6432(4) -0.6486(3) 0.5015(6)
C6C C 0.6152(5) -0.4995(4) 0.6593(8)
H3C H 0.6118 -0.4841 0.7412
C7C C 0.6757(5) -0.7673(3) 0.4569(7)
H4C H 0.6872 -0.8074 0.4429
C8C C 0.6181(5) -0.4834(3) 0.4354(7)
H5C H 0.6156 -0.4586 0.3647
C9C C 0.6281(4) -0.5468(3) 0.4197(6)
H6C H 0.6323 -0.5625 0.3381
C10C C 0.6230(5) -0.5608(3) 0.6434(7)
H7C H 0.6226 -0.5862 0.7132
C11C C 0.6122(6) -0.7510(3) 0.5448(9)
H8C H 0.5798 -0.7799 0.5886
N2C N 0.6021(4) -0.3720(2) 0.6806(6)
C12C C 0.6051(4) -0.3978(3) 0.5729(7)
H9C H 0.6025 -0.3741 0.5006
C13C C 0.6832(5) -0.2852(4) 0.7483(8)
H10C H 0.7366 -0.2994 0.7039
H11C H 0.6845 -0.3007 0.8343
C14C C 0.5168(5) -0.2846(3) 0.7480(6)
H12C H 0.5153 -0.3001 0.8340
H13C H 0.4632 -0.2985 0.7038
C15C C 0.5995(4) -0.3064(3) 0.6816(7)
H14C H 0.5996 -0.2917 0.5939
Cl1C Cl 0.89049(14) 0.17050(9) 1.3048(2)
Zn1_2 Zn 0.81394(8) -0.7500 0.2500
N1C_2 N 0.7224(3) 0.2742(2) 1.3898(5)
loop_
_geom_bond_atom_site_label_1
_geom_bond_atom_site_label_2
_geom_bond_site_symmetry_1
_geom_bond_site_symmetry_2
Zn1 Cl1 1_555 1_555
N1 Zn1 1_555 1_555
C1 H1 1_555 1_555
C2 N1 1_555 1_555
H2 C2 1_555 1_555
C3 C6 1_555 1_555
C4 C5 1_555 1_555
C5 C1 1_555 1_555
C6 H3 1_555 1_555
C7 N1 1_555 1_555
H4 C7 1_555 1_555
C8 C3 1_555 1_555
H5 C8 1_555 1_555
C9 C4 1_555 1_555
H6 C9 1_555 1_555
C10 C4 1_555 1_555
H7 C10 1_555 1_555
C11 C1 1_555 1_555
H8 C11 1_555 1_555
N2 C12 1_555 1_555
C12 C3 1_555 1_555
H9 C12 1_555 1_555
C13 H10 1_555 1_555
H11 C13 1_555 1_555
C14 H12 1_555 1_555
H13 C14 1_555 1_555
C15 N2 1_555 1_555
H14 C15 1_555 1_555
N1C C2C 1_555 1_555
C1C H1C 1_555 1_555
C2C H2C 1_555 1_555
C3C C6C 1_555 1_555
C4C C5C 1_555 1_555
C5C C1C 1_555 1_555
C6C H3C 1_555 1_555
C7C N1C 1_555 1_555
H4C C7C 1_555 1_555
C8C C3C 1_555 1_555
H5C C8C 1_555 1_555
C9C C4C 1_555 1_555
H6C C9C 1_555 1_555
C10C C4C 1_555 1_555
H7C C10C 1_555 1_555
C11C C1C 1_555 1_555
H8C C11C 1_555 1_555
N2C C12C 1_555 1_555
C12C C3C 1_555 1_555
H9C C12C 1_555 1_555
C13C C13 1_555 1_555
H10C C13C 1_555 1_555
H11C C13C 1_555 1_555
C14C C14 1_555 1_555
H12C C14C 1_555 1_555
H13C C14C 1_555 1_555
C15C N2C 1_555 1_555
H14C C15C 1_555 1_555
Cl1C Zn1 1_555 1_555
Zn1_2 N1C 1_555 1_555
N1C_2 Zn1 1_555 1_555
C2 C5 1_555 1_555
C6 C10 1_555 1_555
C7 C11 1_555 1_555
C8 C9 1_555 1_555
C13 C15 1_555 1_555
C14 C15 1_555 1_555
C2C C5C 1_555 1_555
C6C C10C 1_555 1_555
C7C C11C 1_555 1_555
C8C C9C 1_555 1_555
C13C C15C 1_555 1_555
C14C C15C 1_555 1_555

#END
