
#######################################################################
#
#                 Cambridge Crystallographic Data Centre
#                                CCDC 
#
#######################################################################
#
# If this CIF has been generated from an entry in the Cambridge 
# Structural Database, then it will include bibliographic, chemical, 
# crystal, experimental, refinement or atomic coordinate data resulting 
# from the CCDC's data processing and validation procedures.
#
#######################################################################

data_OGUHIJ
_symmetry_cell_setting           monoclinic
_symmetry_space_group_name_H-M   'C 2/c'
_symmetry_Int_Tables_number      15
_space_group_name_Hall           '-C 2yn'
loop_
_symmetry_equiv_pos_site_id
_symmetry_equiv_pos_as_xyz
1 x,y,z
2 -x,y,1/2-z
3 1/2+x,1/2+y,z
4 1/2-x,1/2+y,1/2-z
5 -x,-y,-z
6 x,-y,1/2+z
7 1/2-x,1/2-y,-z
8 1/2+x,1/2-y,1/2+z
_cell_length_a                   22.145(7)
_cell_length_b                   5.6942(18)
_cell_length_c                   11.621(4)
_cell_angle_alpha                90
_cell_angle_beta                 98.190(6)
_cell_angle_gamma                90
_cell_volume                     1450.44
loop_
_atom_site_label
_atom_site_type_symbol
_atom_site_fract_x
_atom_site_fract_y
_atom_site_fract_z
Fe1 Fe 0.2500 1.2500 0.5000
S1 S 0.08030(4) 0.82352(17) 0.29966(7)
O1 O 0.25197(9) 1.0228(4) 0.64377(16)
H1 H 0.2731 1.0361 0.7105
H2 H 0.2304 0.9003 0.6481
N1 N 0.19196(10) 1.0119(4) 0.3974(2)
N2 N 0.48804(9) 0.9316(4) 0.46221(19)
N3 N 0.42541(9) 0.9643(4) 0.44414(19)
N4 N 0.33275(10) 1.0782(4) 0.45075(19)
N5 N 0.33137(10) 0.8931(5) 0.3719(2)
C1 C 0.38922(11) 1.1170(5) 0.4929(2)
H3 H 0.4028 1.2311 0.5478
C2 C 0.14639(13) 0.9271(5) 0.3564(2)
C3 C 0.38750(13) 0.8298(6) 0.3700(3)
H4 H 0.3998 0.7096 0.3244
N2D N 0.51196(9) 1.0684(4) 0.53779(19)
N3D N 0.57459(9) 1.0357(4) 0.55586(19)
N4D N 0.66725(10) 0.9218(4) 0.54925(19)
N5D N 0.66863(10) 1.1069(5) 0.6281(2)
C1D C 0.61078(11) 0.8830(5) 0.5071(2)
H3D H 0.5972 0.7689 0.4522
C3D C 0.61250(13) 1.1702(6) 0.6300(3)
H4D H 0.6002 1.2904 0.6756
S1F S 0.41970(4) 1.67648(17) 0.70034(7)
N1F N 0.30804(10) 1.4881(4) 0.6026(2)
C2F C 0.35361(13) 1.5729(5) 0.6436(2)
O1F O 0.24803(9) 1.4772(4) 0.35623(16)
H1F H 0.2269 1.4639 0.2895
H2F H 0.2696 1.5997 0.3519
Fe1B Fe 0.7500 0.7500 0.5000
N4F N 0.16725(10) 1.4218(4) 0.54925(19)
loop_
_geom_bond_atom_site_label_1
_geom_bond_atom_site_label_2
_geom_bond_site_symmetry_1
_geom_bond_site_symmetry_2
Fe1 O1 1_555 1_555
S1 C2 1_555 1_555
O1 H1 1_555 1_555
H2 O1 1_555 1_555
N1 Fe1 1_555 1_555
N2 N3 1_555 1_555
N3 C1 1_555 1_555
N4 Fe1 1_555 1_555
N5 N4 1_555 1_555
C1 N4 1_555 1_555
H3 C1 1_555 1_555
C2 N1 1_555 1_555
C3 N3 1_555 1_555
H4 C3 1_555 1_555
N2D N2 1_555 1_555
N3D N2D 1_555 1_555
N4D N5D 1_555 1_555
N5D C3D 1_555 1_555
C1D N3D 1_555 1_555
H3D C1D 1_555 1_555
C3D N3D 1_555 1_555
H4D C3D 1_555 1_555
S1F C2F 1_555 1_555
N1F Fe1 1_555 1_555
C2F N1F 1_555 1_555
O1F Fe1 1_555 1_555
H1F O1F 1_555 1_555
H2F O1F 1_555 1_555
Fe1B N4D 1_555 1_555
N4F Fe1 1_555 1_555
N5 C3 1_555 1_555
N4D C1D 1_555 1_555

#END
