
#######################################################################
#
#                 Cambridge Crystallographic Data Centre
#                                CCDC 
#
#######################################################################
#
# If this CIF has been generated from an entry in the Cambridge 
# Structural Database, then it will include bibliographic, chemical, 
# crystal, experimental, refinement or atomic coordinate data resulting 
# from the CCDC's data processing and validation procedures.
#
#######################################################################

data_OGUHUV
_symmetry_cell_setting           monoclinic
_symmetry_space_group_name_H-M   'P 21/c'
_symmetry_Int_Tables_number      14
_space_group_name_Hall           '-P 2ybc'
loop_
_symmetry_equiv_pos_site_id
_symmetry_equiv_pos_as_xyz
1 x,y,z
2 -x,1/2+y,1/2-z
3 -x,-y,-z
4 x,1/2-y,1/2+z
_cell_length_a                   8.0475(5)
_cell_length_b                   11.7191(7)
_cell_length_c                   12.4796(8)
_cell_angle_alpha                90
_cell_angle_beta                 93.9300(10)
_cell_angle_gamma                90
_cell_volume                     1174.18
loop_
_atom_site_label
_atom_site_type_symbol
_atom_site_fract_x
_atom_site_fract_y
_atom_site_fract_z
Fe1 Fe 1.0000 1.0000 0.0000
Fe2 Fe 0.5000 1.0000 0.0000
Cl1 Cl 0.76100(5) 0.93123(4) 0.09847(3)
O1 O 0.98064(16) 1.15839(11) 0.07316(10)
H1 H 0.9492 1.1555 0.1359
H2 H 1.0619 1.2032 0.0717
O2 O 0.53802(16) 1.16019(11) 0.07050(10)
H3 H 0.4615 1.2090 0.0656
H4 H 0.5803 1.1588 0.1339
N1 N 0.28380(19) 0.91942(13) 0.29710(12)
N2 N 0.35212(19) 0.95067(13) 0.13452(13)
N3 N 0.17772(19) 0.94837(13) 0.13480(13)
N4 N 0.3119(2) 0.90135(14) 0.40717(13)
N5 N 0.1767(2) 0.89446(14) 0.44862(13)
N6 N 0.2030(2) 0.87304(14) 0.55715(13)
N7 N 0.3076(2) 0.84165(14) 0.72006(13)
N8 N 0.1336(2) 0.84440(14) 0.72071(13)
C1 C 0.4117(2) 0.93275(15) 0.23286(15)
H5 H 0.5266 0.9295 0.2559
C2 C 0.1403(2) 0.92916(15) 0.23291(15)
H6 H 0.0306 0.9229 0.2561
C3 C 0.3466(2) 0.85931(17) 0.62148(16)
H7 H 0.4565 0.8622 0.5982
C4 C 0.0745(2) 0.86357(17) 0.62212(16)
H8 H -0.0403 0.8699 0.5994
Cl1B Cl 0.23900(5) 1.06877(4) -0.09847(3)
O2B O 0.46198(16) 0.83981(11) -0.07050(10)
H3B H 0.5385 0.7910 -0.0656
H4B H 0.4197 0.8412 -0.1339
N1B N 0.71620(19) 1.08058(13) -0.29710(12)
N2B N 0.64788(19) 1.04933(13) -0.13452(13)
N3B N 0.82228(19) 1.05163(13) -0.13480(13)
N4B N 0.6881(2) 1.09865(14) -0.40717(13)
N5B N 0.8233(2) 1.10554(14) -0.44862(13)
N6B N 0.7970(2) 1.12696(14) -0.55715(13)
N7B N 0.6924(2) 1.15835(14) -0.72006(13)
N8B N 0.8664(2) 1.15560(14) -0.72071(13)
C1B C 0.5883(2) 1.06725(15) -0.23286(15)
H5B H 0.4734 1.0705 -0.2559
C2B C 0.8597(2) 1.07084(15) -0.23291(15)
H6B H 0.9694 1.0771 -0.2561
C3B C 0.6534(2) 1.14069(17) -0.62148(16)
H7B H 0.5435 1.1378 -0.5982
C4B C 0.9255(2) 1.13643(17) -0.62212(16)
H8B H 1.0403 1.1301 -0.5994
O1B O 1.01936(16) 0.84161(11) -0.07316(10)
H1B H 1.0508 0.8445 -0.1359
H2B H 0.9381 0.7968 -0.0717
Fe1_2 Fe 0.0000 1.0000 0.0000
Cl1B_2 Cl 1.23900(5) 1.06877(4) -0.09847(3)
N3_2 N 1.17772(19) 0.94837(13) 0.13480(13)
Cl2 Cl 0.25892(6) 0.34174(4) 0.08252(4)
O3 O 0.28404(19) 0.17882(13) 0.29716(13)
H9 H 0.2795 0.2152 0.2390
H10 H 0.2717 0.2317 0.3413
loop_
_geom_bond_atom_site_label_1
_geom_bond_atom_site_label_2
_geom_bond_site_symmetry_1
_geom_bond_site_symmetry_2
Fe1 Cl1 1_555 1_555
Fe2 Cl1 1_555 1_555
O1 Fe1 1_555 1_555
H1 O1 1_555 1_555
H2 O1 1_555 1_555
O2 Fe2 1_555 1_555
H3 O2 1_555 1_555
H4 O2 1_555 1_555
N1 N4 1_555 1_555
N2 Fe2 1_555 1_555
N3 N2 1_555 1_555
N4 N5 1_555 1_555
N5 N6 1_555 1_555
N6 C3 1_555 1_555
N7 N8 1_555 1_555
N8 C4 1_555 1_555
C1 N1 1_555 1_555
H5 C1 1_555 1_555
C2 N1 1_555 1_555
H6 C2 1_555 1_555
C3 N7 1_555 1_555
H7 C3 1_555 1_555
C4 N6 1_555 1_555
H8 C4 1_555 1_555
O3 H9 1_555 1_555
H10 O3 1_555 1_555
Cl1B Fe2 1_555 1_555
O2B Fe2 1_555 1_555
H3B O2B 1_555 1_555
H4B O2B 1_555 1_555
N1B N4B 1_555 1_555
N2B Fe2 1_555 1_555
N3B Fe1 1_555 1_555
N4B N5B 1_555 1_555
N5B N6B 1_555 1_555
N6B C3B 1_555 1_555
N7B N8B 1_555 1_555
N8B C4B 1_555 1_555
C1B N1B 1_555 1_555
H5B C1B 1_555 1_555
C2B N1B 1_555 1_555
H6B C2B 1_555 1_555
C3B N7B 1_555 1_555
H7B C3B 1_555 1_555
C4B N6B 1_555 1_555
H8B C4B 1_555 1_555
O1B Fe1 1_555 1_555
H1B O1B 1_555 1_555
H2B O1B 1_555 1_555
Fe1_2 N3 1_555 1_555
Cl1B_2 Fe1 1_555 1_555
N3_2 Fe1 1_555 1_555
N2 C1 1_555 1_555
N3 C2 1_555 1_555
Cl1B Fe1_2 1_555 1_555
N2B N3B 1_555 1_555
N2B C1B 1_555 1_555
N3B C2B 1_555 1_555

#END
