
#######################################################################
#
#                 Cambridge Crystallographic Data Centre
#                                CCDC 
#
#######################################################################
#
# If this CIF has been generated from an entry in the Cambridge 
# Structural Database, then it will include bibliographic, chemical, 
# crystal, experimental, refinement or atomic coordinate data resulting 
# from the CCDC's data processing and validation procedures.
#
#######################################################################

data_OGUHII
_symmetry_cell_setting           triclinic
_symmetry_space_group_name_H-M   'P -1'
_symmetry_Int_Tables_number      2
_space_group_name_Hall           '-P 1'
loop_
_symmetry_equiv_pos_site_id
_symmetry_equiv_pos_as_xyz
1 x,y,z
2 -x,-y,-z
_cell_length_a                   8.2470(13)
_cell_length_b                   10.8660(17)
_cell_length_c                   12.1170(19)
_cell_angle_alpha                80.533(19)
_cell_angle_beta                 80.839(19)
_cell_angle_gamma                88.072(19)
_cell_volume                     1057.35
loop_
_atom_site_label
_atom_site_type_symbol
_atom_site_fract_x
_atom_site_fract_y
_atom_site_fract_z
Cu1 Cu 0.28377(6) 0.52360(5) 0.08514(4)
N1 N 0.0693(4) 0.4251(3) 0.1262(3)
C1 C 0.0255(5) 0.3304(4) 0.2103(3)
H1 H 0.0926 0.3081 0.2674
C2 C -0.1168(5) 0.2643(4) 0.2148(3)
H2 H -0.1470 0.1956 0.2732
C3 C -0.2135(5) 0.3012(4) 0.1321(3)
H3 H -0.3138 0.2594 0.1352
N2 N -0.1676(4) 0.3956(3) 0.0470(3)
C4 C -0.0267(5) 0.4501(3) 0.0478(3)
N3 N 0.2596(4) 0.5434(3) 0.3189(3)
N4 N 0.3292(4) 0.4788(3) 0.2399(3)
N5 N 0.4064(4) 0.3724(3) 0.2803(3)
C5 C 0.3835(5) 0.3722(4) 0.3917(3)
N6 N 0.4339(4) 0.2841(3) 0.4736(3)
C6 C 0.5270(7) 0.1743(5) 0.4453(4)
H4 H 0.5450 0.1773 0.3630
H5 H 0.4655 0.0989 0.4818
H6 H 0.6332 0.1727 0.4721
C7 C 0.3907(5) 0.2964(4) 0.5852(4)
O1 O 0.4237(4) 0.2167(3) 0.6610(3)
N7 N 0.3051(4) 0.4049(3) 0.6086(3)
C8 C 0.2624(7) 0.4126(5) 0.7289(4)
H7 H 0.1765 0.3520 0.7639
H8 H 0.2221 0.4969 0.7378
H9 H 0.3599 0.3943 0.7658
C9 C 0.2473(6) 0.4982(4) 0.5311(4)
O2 O 0.1663(4) 0.5862(3) 0.5632(3)
C10 C 0.2934(5) 0.4761(4) 0.4170(3)
N8 N 0.5428(4) 0.3502(3) -0.0455(3)
N9 N 0.3883(4) 0.3694(3) 0.0001(3)
N10 N 0.2911(4) 0.2747(3) -0.0075(3)
C11 C 0.3915(5) 0.1961(3) -0.0608(3)
N11 N 0.3494(4) 0.0868(3) -0.0916(3)
C12 C 0.1782(5) 0.0502(4) -0.0774(4)
H10 H 0.1699 -0.0405 -0.0554
H11 H 0.1360 0.0756 -0.1489
H12 H 0.1136 0.0910 -0.0182
C13 C 0.4676(5) 0.0239(4) -0.1546(3)
O3 O 0.4352(4) -0.0679(3) -0.1919(3)
N12 N 0.6297(4) 0.0668(3) -0.1717(3)
C14 C 0.7518(6) -0.0058(4) -0.2369(4)
H13 H 0.8624 0.0202 -0.2314
H14 H 0.7360 0.0087 -0.3165
H15 H 0.7385 -0.0948 -0.2064
C15 C 0.6826(5) 0.1752(4) -0.1405(3)
O4 O 0.8264(3) 0.2073(3) -0.1590(2)
C16 C 0.5479(5) 0.2395(4) -0.0844(3)
Cu1A Cu -0.28377(6) 0.47640(5) -0.08514(4)
Cu1A_2 Cu 0.71623(6) 0.47640(5) -0.08514(4)
N1A N -0.0693(4) 0.5749(3) -0.1262(3)
C1A C -0.0255(5) 0.6696(4) -0.2103(3)
H1A H -0.0926 0.6919 -0.2674
C2A C 0.1168(5) 0.7357(4) -0.2148(3)
H2A H 0.1470 0.8044 -0.2732
C3A C 0.2135(5) 0.6988(4) -0.1321(3)
H3A H 0.3138 0.7406 -0.1352
N2A N 0.1676(4) 0.6044(3) -0.0470(3)
C4A C 0.0267(5) 0.5499(3) -0.0478(3)
N3A N -0.2596(4) 0.4566(3) -0.3189(3)
N4A N -0.3292(4) 0.5212(3) -0.2399(3)
N5A N -0.4064(4) 0.6276(3) -0.2803(3)
C5A C -0.3835(5) 0.6278(4) -0.3917(3)
N6A N -0.4339(4) 0.7159(3) -0.4736(3)
C6A C -0.5270(7) 0.8257(5) -0.4453(4)
H4A H -0.5450 0.8227 -0.3630
H5A H -0.4655 0.9011 -0.4818
H6A H -0.6332 0.8273 -0.4721
C7A C -0.3907(5) 0.7036(4) -0.5852(4)
O1A O -0.4237(4) 0.7833(3) -0.6610(3)
N7A N -0.3051(4) 0.5951(3) -0.6086(3)
C8A C -0.2624(7) 0.5874(5) -0.7289(4)
H7A H -0.1765 0.6480 -0.7639
H8A H -0.2221 0.5031 -0.7378
H9A H -0.3599 0.6057 -0.7658
C9A C -0.2473(6) 0.5018(4) -0.5311(4)
O2A O -0.1663(4) 0.4138(3) -0.5632(3)
C10A C -0.2934(5) 0.5239(4) -0.4170(3)
N8A N 0.4572(4) 0.6498(3) 0.0455(3)
N8_2 N -0.4572(4) 0.3502(3) -0.0455(3)
N9A N 0.6117(4) 0.6306(3) -0.0001(3)
N9A_2 N -0.3883(4) 0.6306(3) -0.0001(3)
N10A N 0.7089(4) 0.7253(3) 0.0075(3)
C11A C 0.6085(5) 0.8039(3) 0.0608(3)
N11A N 0.6506(4) 0.9132(3) 0.0916(3)
C12A C 0.8218(5) 0.9498(4) 0.0774(4)
H10A H 0.8301 1.0405 0.0554
H11A H 0.8640 0.9244 0.1489
H12A H 0.8864 0.9090 0.0182
C13A C 0.5324(5) 0.9761(4) 0.1546(3)
O3A O 0.5648(4) 1.0679(3) 0.1919(3)
N12A N 0.3703(4) 0.9332(3) 0.1717(3)
C14A C 0.2482(6) 1.0058(4) 0.2369(4)
H13A H 0.1376 0.9798 0.2314
H14A H 0.2640 0.9913 0.3165
H15A H 0.2615 1.0948 0.2064
C15A C 0.3174(5) 0.8248(4) 0.1405(3)
O4A O 0.1736(3) 0.7927(3) 0.1590(2)
C16A C 0.4521(5) 0.7605(4) 0.0844(3)
O5 O 0.0101(5) 0.7455(4) 0.4022(3)
H16 H 0.069(6) 0.747(5) 0.339(2)
H17 H 0.053(7) 0.701(5) 0.453(4)
O6 O 0.1742(5) 0.0179(4) 0.6288(4)
O7 O 0.0670(13) 0.1185(10) 0.4494(9)
loop_
_geom_bond_atom_site_label_1
_geom_bond_atom_site_label_2
_geom_bond_site_symmetry_1
_geom_bond_site_symmetry_2
Cu1 N1 1_555 1_555
N1 C1 1_555 1_555
C1 H1 1_555 1_555
C2 C1 1_555 1_555
H2 C2 1_555 1_555
C3 C2 1_555 1_555
H3 C3 1_555 1_555
N2 C3 1_555 1_555
C4 N1 1_555 1_555
N3 N4 1_555 1_555
N4 Cu1 1_555 1_555
N5 N4 1_555 1_555
C5 N5 1_555 1_555
N6 C5 1_555 1_555
C6 N6 1_555 1_555
H4 C6 1_555 1_555
H5 C6 1_555 1_555
H6 C6 1_555 1_555
C7 N6 1_555 1_555
O1 C7 1_555 1_555
N7 C7 1_555 1_555
C8 N7 1_555 1_555
H7 C8 1_555 1_555
H8 C8 1_555 1_555
H9 C8 1_555 1_555
C9 N7 1_555 1_555
O2 C9 1_555 1_555
C10 N3 1_555 1_555
N8 N9 1_555 1_555
N9 Cu1 1_555 1_555
N10 N9 1_555 1_555
C11 N10 1_555 1_555
N11 C11 1_555 1_555
C12 N11 1_555 1_555
H10 C12 1_555 1_555
H11 C12 1_555 1_555
H12 C12 1_555 1_555
C13 N11 1_555 1_555
O3 C13 1_555 1_555
N12 C13 1_555 1_555
C14 N12 1_555 1_555
H13 C14 1_555 1_555
H14 C14 1_555 1_555
H15 C14 1_555 1_555
C15 N12 1_555 1_555
O4 C15 1_555 1_555
C16 N8 1_555 1_555
O5 H16 1_555 1_555
H17 O5 1_555 1_555
Cu1A N2 1_555 1_555
Cu1A_2 N8 1_555 1_555
N1A Cu1A 1_555 1_555
C1A N1A 1_555 1_555
H1A C1A 1_555 1_555
C2A C1A 1_555 1_555
H2A C2A 1_555 1_555
C3A C2A 1_555 1_555
H3A C3A 1_555 1_555
N2A Cu1 1_555 1_555
C4A C4 1_555 1_555
N3A N4A 1_555 1_555
N4A Cu1A 1_555 1_555
N5A N4A 1_555 1_555
C5A N5A 1_555 1_555
N6A C5A 1_555 1_555
C6A N6A 1_555 1_555
H4A C6A 1_555 1_555
H5A C6A 1_555 1_555
H6A C6A 1_555 1_555
C7A N6A 1_555 1_555
O1A C7A 1_555 1_555
N7A C7A 1_555 1_555
C8A N7A 1_555 1_555
H7A C8A 1_555 1_555
H8A C8A 1_555 1_555
H9A C8A 1_555 1_555
C9A N7A 1_555 1_555
O2A C9A 1_555 1_555
C10A N3A 1_555 1_555
N8A Cu1 1_555 1_555
N8_2 Cu1A 1_555 1_555
N9A Cu1A_2 1_555 1_555
N9A_2 Cu1A 1_555 1_555
N10A N9A 1_555 1_555
C11A N10A 1_555 1_555
N11A C11A 1_555 1_555
C12A N11A 1_555 1_555
H10A C12A 1_555 1_555
H11A C12A 1_555 1_555
H12A C12A 1_555 1_555
C13A N11A 1_555 1_555
O3A C13A 1_555 1_555
N12A C13A 1_555 1_555
C14A N12A 1_555 1_555
H13A C14A 1_555 1_555
H14A C14A 1_555 1_555
H15A C14A 1_555 1_555
C15A N12A 1_555 1_555
O4A C15A 1_555 1_555
C16A N8A 1_555 1_555
N2 C4 1_555 1_555
C5 C10 1_555 1_555
C9 C10 1_555 1_555
C11 C16 1_555 1_555
C15 C16 1_555 1_555
N1A C4A 1_555 1_555
C3A N2A 1_555 1_555
N2A C4A 1_555 1_555
C5A C10A 1_555 1_555
C9A C10A 1_555 1_555
N8A N9A 1_555 1_555
C11A C16A 1_555 1_555
C15A C16A 1_555 1_555

#END
