
#######################################################################
#
#                 Cambridge Crystallographic Data Centre
#                                CCDC 
#
#######################################################################
#
# If this CIF has been generated from an entry in the Cambridge 
# Structural Database, then it will include bibliographic, chemical, 
# crystal, experimental, refinement or atomic coordinate data resulting 
# from the CCDC's data processing and validation procedures.
#
#######################################################################

data_OGUHIJ01
_symmetry_cell_setting           triclinic
_symmetry_space_group_name_H-M   'P -1'
_symmetry_Int_Tables_number      2
_space_group_name_Hall           '-P 1'
loop_
_symmetry_equiv_pos_site_id
_symmetry_equiv_pos_as_xyz
1 x,y,z
2 -x,-y,-z
_cell_length_a                   6.046(3)
_cell_length_b                   6.820(3)
_cell_length_c                   9.086(4)
_cell_angle_alpha                83.370(7)
_cell_angle_beta                 81.332(7)
_cell_angle_gamma                68.356(6)
_cell_volume                     343.525
loop_
_atom_site_label
_atom_site_type_symbol
_atom_site_fract_x
_atom_site_fract_y
_atom_site_fract_z
Fe1 Fe 1.0000 0.5000 0.5000
S1 S 1.53990(9) 0.72009(8) 0.12058(5)
O1 O 0.6717(2) 0.7290(2) 0.44765(14)
H1 H 0.6573 0.7202 0.3584
H2 H 0.5441 0.7340 0.5013
N1 N 0.9429(3) 0.2974(2) 0.34861(17)
N2 N 0.7593(3) 0.2155(2) 0.36962(17)
N3 N 0.9623(3) 0.1355(2) 0.15247(16)
N4 N 1.0507(3) 0.0600(2) 0.01239(17)
N5 N 1.1841(3) 0.6147(3) 0.31049(17)
C1 C 0.7757(3) 0.1190(3) 0.2514(2)
H3 H 0.6734 0.0476 0.2360
C2 C 1.0594(3) 0.2487(3) 0.2177(2)
H4 H 1.1923 0.2865 0.1743
C3 C 1.3311(3) 0.6558(3) 0.2300(2)
N1A N 1.0571(3) -0.2974(2) -0.34861(17)
N2A N 1.2407(3) -0.2155(2) -0.36962(17)
N3A N 1.0377(3) -0.1355(2) -0.15247(16)
N4A N 0.9493(3) -0.0600(2) -0.01239(17)
C1A C 1.2243(3) -0.1190(3) -0.2514(2)
H3A H 1.3266 -0.0476 -0.2360
C2A C 0.9406(3) -0.2487(3) -0.2177(2)
H4A H 0.8077 -0.2865 -0.1743
S1A S 0.46010(9) 0.27991(8) 0.87942(5)
N5A N 0.8159(3) 0.3853(3) 0.68951(17)
C3A C 0.6689(3) 0.3442(3) 0.7700(2)
O1A O 1.3283(2) 0.2710(2) 0.55235(14)
H1A H 1.3427 0.2798 0.6416
H2A H 1.4559 0.2660 0.4987
Fe1_2 Fe 1.0000 -0.5000 -0.5000
N1A_2 N 1.0571(3) 0.7026(2) 0.65139(17)
loop_
_geom_bond_atom_site_label_1
_geom_bond_atom_site_label_2
_geom_bond_site_symmetry_1
_geom_bond_site_symmetry_2
Fe1 O1 1_555 1_555
S1 C3 1_555 1_555
O1 H1 1_555 1_555
H2 O1 1_555 1_555
N1 Fe1 1_555 1_555
N2 N1 1_555 1_555
N3 N4 1_555 1_555
N4 N4A 1_555 1_555
N5 Fe1 1_555 1_555
C1 N2 1_555 1_555
H3 C1 1_555 1_555
C2 N1 1_555 1_555
H4 C2 1_555 1_555
C3 N5 1_555 1_555
N1A N2A 1_555 1_555
N2A C1A 1_555 1_555
N3A N4A 1_555 1_555
C1A N3A 1_555 1_555
H3A C1A 1_555 1_555
C2A N1A 1_555 1_555
H4A C2A 1_555 1_555
S1A C3A 1_555 1_555
N5A Fe1 1_555 1_555
C3A N5A 1_555 1_555
O1A Fe1 1_555 1_555
H1A O1A 1_555 1_555
H2A O1A 1_555 1_555
Fe1_2 N1A 1_555 1_555
N1A_2 Fe1 1_555 1_555
N3 C1 1_555 1_555
N3 C2 1_555 1_555
N3A C2A 1_555 1_555

#END
