
#######################################################################
#
#                 Cambridge Crystallographic Data Centre
#                                CCDC 
#
#######################################################################
#
# If this CIF has been generated from an entry in the Cambridge 
# Structural Database, then it will include bibliographic, chemical, 
# crystal, experimental, refinement or atomic coordinate data resulting 
# from the CCDC's data processing and validation procedures.
#
#######################################################################

data_OGUJEH
_symmetry_cell_setting           triclinic
_symmetry_space_group_name_H-M   'P -1'
_symmetry_Int_Tables_number      2
_space_group_name_Hall           '-P 1'
loop_
_symmetry_equiv_pos_site_id
_symmetry_equiv_pos_as_xyz
1 x,y,z
2 -x,-y,-z
_cell_length_a                   7.940(4)
_cell_length_b                   8.039(4)
_cell_length_c                   12.890(7)
_cell_angle_alpha                100.729(7)
_cell_angle_beta                 107.661(7)
_cell_angle_gamma                91.364(8)
_cell_volume                     767.443
loop_
_atom_site_label
_atom_site_type_symbol
_atom_site_fract_x
_atom_site_fract_y
_atom_site_fract_z
Fe1 Fe 0.5000 0.5000 0.5000
O1 O 0.3791(5) 0.2704(4) 0.5023(3)
H1 H 0.3437 0.2369 0.5515
H2 H 0.3397 0.1956 0.4427
N1 N 0.3787(6) 0.4626(5) 0.3181(4)
N2 N 0.2443(8) 0.5598(7) 0.2675(4)
N3 N 0.3312(6) 0.4020(6) 0.1399(4)
N4 N 0.3633(7) 0.3203(7) 0.0428(4)
N5 N 0.2664(8) 0.3632(6) -0.0385(4)
N6 N 0.3071(7) 0.2816(6) -0.1321(4)
N7 N 0.3035(7) 0.2250(7) -0.3048(4)
N8 N 0.4241(8) 0.1283(8) -0.2451(5)
N9 N 0.7245(5) 0.3654(5) 0.4733(3)
N10 N 0.8147(6) 0.4075(6) 0.4016(4)
N11 N 0.9158(5) 0.1813(5) 0.4612(4)
N12 N 1.0179(5) 0.0422(5) 0.4688(4)
C1 C 0.4251(8) 0.3718(8) 0.2394(5)
H3 H 0.5120 0.2955 0.2501
C2 C 0.2210(10) 0.5214(9) 0.1618(5)
H4 H 0.1406 0.5685 0.1085
C3 C 0.2372(10) 0.3156(9) -0.2346(5)
H5 H 0.1533 0.3930 -0.2525
C4 C 0.4251(9) 0.1629(10) -0.1432(5)
H6 H 0.4948 0.1150 -0.0861
C5 C 0.7878(7) 0.2306(7) 0.5082(4)
H7 H 0.7518 0.1771 0.5570
C6 C 0.9268(7) 0.2923(7) 0.3962(5)
H8 H 1.0033 0.2874 0.3537
N9A N 1.2755(5) -0.3654(5) 0.5267(3)
N10A N 1.1853(6) -0.4075(6) 0.5984(4)
N11A N 1.0842(5) -0.1813(5) 0.5388(4)
N12A N 0.9821(5) -0.0422(5) 0.5312(4)
C5A C 1.2122(7) -0.2306(7) 0.4918(4)
H7A H 1.2482 -0.1771 0.4430
C6A C 1.0732(7) -0.2923(7) 0.6038(5)
H8A H 0.9967 -0.2874 0.6463
O1A O 0.6209(5) 0.7296(4) 0.4977(3)
H1A H 0.6563 0.7631 0.4485
H2A H 0.6603 0.8044 0.5573
N1A N 0.6213(6) 0.5374(5) 0.6819(4)
N2A N 0.7557(8) 0.4402(7) 0.7325(4)
N3A N 0.6688(6) 0.5980(6) 0.8601(4)
N4A N 0.6367(7) 0.6797(7) 0.9572(4)
N5A N 0.7336(8) 0.6368(6) 1.0385(4)
N6A N 0.6929(7) 0.7184(6) 1.1321(4)
N7A N 0.6965(7) 0.7750(7) 1.3048(4)
N8A N 0.5759(8) 0.8717(8) 1.2451(5)
C1A C 0.5749(8) 0.6282(8) 0.7606(5)
H3A H 0.4880 0.7045 0.7499
C2A C 0.7790(10) 0.4786(9) 0.8382(5)
H4A H 0.8594 0.4315 0.8915
C3A C 0.7628(10) 0.6844(9) 1.2346(5)
H5A H 0.8467 0.6070 1.2525
C4A C 0.5749(9) 0.8371(10) 1.1432(5)
H6A H 0.5052 0.8850 1.0861
Fe1_2 Fe 1.5000 -0.5000 0.5000
N9A_2 N 0.2755(5) 0.6346(5) 0.5267(3)
B1 B 0.8694(10) 0.1797(10) 0.0898(6)
F1 F 0.7798(7) 0.2945(7) 0.1401(4)
F2 F 0.7571(7) 0.0395(6) 0.0309(5)
F3 F 0.9319(8) 0.2517(7) 0.0191(5)
F4 F 1.0080(7) 0.1338(7) 0.1684(4)
O2 O 0.2932(6) 0.0141(5) 0.3235(4)
H9 H 0.3840 -0.0198 0.3066
H10 H 0.2115 0.0146 0.2631
B2? B 0.869(3) 0.168(3) 0.115(3)
F5? F 0.952(3) 0.327(3) 0.158(3)
F6? F 0.724(4) 0.155(5) 0.149(4)
F7? F 0.818(7) 0.139(6) 0.002(2)
F8? F 0.982(5) 0.052(4) 0.152(5)
loop_
_geom_bond_atom_site_label_1
_geom_bond_atom_site_label_2
_geom_bond_site_symmetry_1
_geom_bond_site_symmetry_2
Fe1 O1 1_555 1_555
O1 H1 1_555 1_555
H2 O1 1_555 1_555
N1 Fe1 1_555 1_555
N2 N1 1_555 1_555
N3 N4 1_555 1_555
N4 N5 1_555 1_555
N5 N6 1_555 1_555
N6 C3 1_555 1_555
N7 N8 1_555 1_555
N8 C4 1_555 1_555
N9 Fe1 1_555 1_555
N10 N9 1_555 1_555
N11 N12 1_555 1_555
N12 N12A 1_555 1_555
C1 N1 1_555 1_555
H3 C1 1_555 1_555
C2 N2 1_555 1_555
H4 C2 1_555 1_555
C3 N7 1_555 1_555
H5 C3 1_555 1_555
C4 N6 1_555 1_555
H6 C4 1_555 1_555
C5 N9 1_555 1_555
H7 C5 1_555 1_555
C6 N10 1_555 1_555
H8 C6 1_555 1_555
B1 F1 1_555 1_555
F2 B1 1_555 1_555
F3 B1 1_555 1_555
F4 B1 1_555 1_555
O2 H9 1_555 1_555
H10 O2 1_555 1_555
N9A N10A 1_555 1_555
N10A C6A 1_555 1_555
N11A N12A 1_555 1_555
C5A N9A 1_555 1_555
H7A C5A 1_555 1_555
C6A N11A 1_555 1_555
H8A C6A 1_555 1_555
O1A Fe1 1_555 1_555
H1A O1A 1_555 1_555
H2A O1A 1_555 1_555
N1A Fe1 1_555 1_555
N2A N1A 1_555 1_555
N3A N4A 1_555 1_555
N4A N5A 1_555 1_555
N5A N6A 1_555 1_555
N6A C3A 1_555 1_555
N7A N8A 1_555 1_555
N8A C4A 1_555 1_555
C1A N1A 1_555 1_555
H3A C1A 1_555 1_555
C2A N2A 1_555 1_555
H4A C2A 1_555 1_555
C3A N7A 1_555 1_555
H5A C3A 1_555 1_555
C4A N6A 1_555 1_555
H6A C4A 1_555 1_555
Fe1_2 N9A 1_555 1_555
N9A_2 Fe1 1_555 1_555
N3 C1 1_555 1_555
N3 C2 1_555 1_555
N11 C5 1_555 1_555
N11 C6 1_555 1_555
N11A C5A 1_555 1_555
N3A C1A 1_555 1_555
N3A C2A 1_555 1_555

#END
