
#######################################################################
#
#                 Cambridge Crystallographic Data Centre
#                                CCDC 
#
#######################################################################
#
# If this CIF has been generated from an entry in the Cambridge 
# Structural Database, then it will include bibliographic, chemical, 
# crystal, experimental, refinement or atomic coordinate data resulting 
# from the CCDC's data processing and validation procedures.
#
#######################################################################

data_OGUJAD
_symmetry_cell_setting           triclinic
_symmetry_space_group_name_H-M   'P -1'
_symmetry_Int_Tables_number      2
_space_group_name_Hall           '-P 1'
loop_
_symmetry_equiv_pos_site_id
_symmetry_equiv_pos_as_xyz
1 x,y,z
2 -x,-y,-z
_cell_length_a                   7.3937(8)
_cell_length_b                   8.1980(9)
_cell_length_c                   12.7674(14)
_cell_angle_alpha                76.242(2)
_cell_angle_beta                 74.662(2)
_cell_angle_gamma                86.512(2)
_cell_volume                     724.899
loop_
_atom_site_label
_atom_site_type_symbol
_atom_site_fract_x
_atom_site_fract_y
_atom_site_fract_z
Fe1 Fe 0.0000 0.0000 0.5000
O1 O -0.1459(3) 0.2189(2) 0.50718(16)
H1 H -0.2251 0.2383 0.5646
H2 H -0.1043 0.3149 0.4684
N1 N -0.2606(3) -0.1378(3) 0.53131(19)
N2 N -0.4248(4) -0.1156(3) 0.6125(2)
N3 N -0.4614(3) -0.3271(3) 0.5433(2)
N4 N -0.5510(3) -0.4660(3) 0.5359(2)
N5 N 0.0363(3) 0.0501(3) 0.3180(2)
N6 N -0.0109(4) -0.0726(3) 0.2687(2)
N7 N 0.1678(4) 0.1191(3) 0.1403(2)
N8 N 0.2827(4) 0.2126(3) 0.0425(2)
N9 N 0.3023(4) 0.1346(3) -0.0318(2)
N10 N 0.4239(4) 0.2192(3) -0.1296(2)
N11 N 0.6226(4) 0.3914(3) -0.2574(2)
N12 N 0.5969(4) 0.2530(3) -0.2993(2)
C1 C -0.5408(4) -0.2310(4) 0.6175(2)
H3 H -0.6610 -0.2463 0.6649
C2 C -0.2854(4) -0.2645(4) 0.4915(2)
H4 H -0.1978 -0.3055 0.4369
C3 C 0.1405(4) 0.1617(4) 0.2396(2)
H5 H 0.1893 0.2569 0.2499
C4 C 0.0704(4) -0.0283(4) 0.1627(3)
H6 H 0.0637 -0.0872 0.1099
C5 C 0.5185(4) 0.3678(4) -0.1558(3)
H7 H 0.5096 0.4400 -0.1085
C6 C 0.4779(5) 0.1531(4) -0.2214(2)
H8 H 0.4357 0.0518 -0.2272
N1A N -0.7394(3) -0.8622(3) 0.46869(19)
N2A N -0.5752(4) -0.8844(3) 0.3875(2)
N3A N -0.5386(3) -0.6729(3) 0.4567(2)
N4A N -0.4490(3) -0.5340(3) 0.4641(2)
C1A C -0.4592(4) -0.7690(4) 0.3825(2)
H3A H -0.3390 -0.7537 0.3351
C2A C -0.7146(4) -0.7355(4) 0.5085(2)
H4A H -0.8022 -0.6945 0.5631
N5A N -0.0363(3) -0.0501(3) 0.6820(2)
N6A N 0.0109(4) 0.0726(3) 0.7313(2)
N7A N -0.1678(4) -0.1191(3) 0.8597(2)
N8A N -0.2827(4) -0.2126(3) 0.9575(2)
N9A N -0.3023(4) -0.1346(3) 1.0318(2)
N10A N -0.4239(4) -0.2192(3) 1.1296(2)
N11A N -0.6226(4) -0.3914(3) 1.2574(2)
N12A N -0.5969(4) -0.2530(3) 1.2993(2)
C3A C -0.1405(4) -0.1617(4) 0.7604(2)
H5A H -0.1893 -0.2569 0.7501
C4A C -0.0704(4) 0.0283(4) 0.8373(3)
H6A H -0.0637 0.0872 0.8901
C5A C -0.5185(4) -0.3678(4) 1.1558(3)
H7A H -0.5096 -0.4400 1.1085
C6A C -0.4779(5) -0.1531(4) 1.2214(2)
H8A H -0.4357 -0.0518 1.2272
O1A O 0.1459(3) -0.2189(2) 0.49282(16)
H1A H 0.2251 -0.2383 0.4354
H2A H 0.1043 -0.3149 0.5316
Fe1_2 Fe -1.0000 -1.0000 0.5000
N1A_2 N 0.2606(3) 0.1378(3) 0.46869(19)
Br1 Br 0.73881(5) 0.27096(4) 0.07029(3)
O2 O 0.9268(4) 0.5537(3) 0.15208(19)
H9 H 0.8798 0.4756 0.1343
H10 H 1.0126 0.5964 0.0946
O3 O 1.0029(3) 0.5059(3) 0.64329(18)
H11 H 1.0382 0.4840 0.7033
H12 H 0.8858 0.4855 0.6637
loop_
_geom_bond_atom_site_label_1
_geom_bond_atom_site_label_2
_geom_bond_site_symmetry_1
_geom_bond_site_symmetry_2
Fe1 O1 1_555 1_555
O1 H1 1_555 1_555
H2 O1 1_555 1_555
N1 Fe1 1_555 1_555
N2 N1 1_555 1_555
N3 N4 1_555 1_555
N4 N4A 1_555 1_555
N5 Fe1 1_555 1_555
N6 N5 1_555 1_555
N7 N8 1_555 1_555
N8 N9 1_555 1_555
N9 N10 1_555 1_555
N10 C5 1_555 1_555
N11 N12 1_555 1_555
N12 C6 1_555 1_555
C1 N2 1_555 1_555
H3 C1 1_555 1_555
C2 N1 1_555 1_555
H4 C2 1_555 1_555
C3 N5 1_555 1_555
H5 C3 1_555 1_555
C4 N6 1_555 1_555
H6 C4 1_555 1_555
C5 N11 1_555 1_555
H7 C5 1_555 1_555
C6 N10 1_555 1_555
H8 C6 1_555 1_555
O2 H9 1_555 1_555
H10 O2 1_555 1_555
O3 H11 1_555 1_555
H12 O3 1_555 1_555
N1A N2A 1_555 1_555
N2A C1A 1_555 1_555
N3A N4A 1_555 1_555
C1A N3A 1_555 1_555
H3A C1A 1_555 1_555
C2A N1A 1_555 1_555
H4A C2A 1_555 1_555
N5A Fe1 1_555 1_555
N6A N5A 1_555 1_555
N7A N8A 1_555 1_555
N8A N9A 1_555 1_555
N9A N10A 1_555 1_555
N10A C5A 1_555 1_555
N11A N12A 1_555 1_555
N12A C6A 1_555 1_555
C3A N5A 1_555 1_555
H5A C3A 1_555 1_555
C4A N6A 1_555 1_555
H6A C4A 1_555 1_555
C5A N11A 1_555 1_555
H7A C5A 1_555 1_555
C6A N10A 1_555 1_555
H8A C6A 1_555 1_555
O1A Fe1 1_555 1_555
H1A O1A 1_555 1_555
H2A O1A 1_555 1_555
Fe1_2 N1A 1_555 1_555
N1A_2 Fe1 1_555 1_555
N3 C1 1_555 1_555
N3 C2 1_555 1_555
N7 C3 1_555 1_555
N7 C4 1_555 1_555
N3A C2A 1_555 1_555
N7A C3A 1_555 1_555
N7A C4A 1_555 1_555

#END
