
#######################################################################
#
#                 Cambridge Crystallographic Data Centre
#                                CCDC 
#
#######################################################################
#
# If this CIF has been generated from an entry in the Cambridge 
# Structural Database, then it will include bibliographic, chemical, 
# crystal, experimental, refinement or atomic coordinate data resulting 
# from the CCDC's data processing and validation procedures.
#
#######################################################################

data_OGUJOR
_symmetry_cell_setting           triclinic
_symmetry_space_group_name_H-M   'P -1'
_symmetry_Int_Tables_number      2
_space_group_name_Hall           '-P 1'
loop_
_symmetry_equiv_pos_site_id
_symmetry_equiv_pos_as_xyz
1 x,y,z
2 -x,-y,-z
_cell_length_a                   8.3592(7)
_cell_length_b                   8.5498(7)
_cell_length_c                   11.5516(9)
_cell_angle_alpha                111.219(2)
_cell_angle_beta                 106.8930(10)
_cell_angle_gamma                92.670(2)
_cell_volume                     725.67
loop_
_atom_site_label
_atom_site_type_symbol
_atom_site_fract_x
_atom_site_fract_y
_atom_site_fract_z
Cu1 Cu 0.5000 0.0000 0.0000
N1 N 0.1058(5) 0.0335(6) -0.3411(4)
N2 N 0.2577(5) 0.0526(6) -0.1485(4)
N3 N 0.0869(5) 0.0115(6) -0.1640(4)
N4 N 0.0755(6) 0.0271(6) -0.4682(4)
N5 N 0.6499(4) 0.1918(4) -0.0006(3)
N6 N 0.5844(5) 0.3404(5) 0.0034(4)
N7 N 0.8425(4) 0.3676(4) -0.0009(4)
N8 N 0.9984(4) 0.4265(5) -0.0014(4)
N9 N 0.4532(5) 0.1674(5) 0.1577(3)
N10 N 0.2907(5) 0.1786(6) 0.1621(4)
N11 N 0.4720(5) 0.3593(5) 0.3450(4)
N12 N 0.5533(6) 0.4779(6) 0.4726(4)
C1 C 0.2632(6) 0.0680(8) -0.2543(5)
H1 H 0.3618 0.0986 -0.2686
C2 C -0.0003(7) -0.0006(8) -0.2803(5)
H2 H -0.1178 -0.0284 -0.3169
C3 C 0.7023(6) 0.4437(6) 0.0031(5)
H3 H 0.6934 0.5527 0.0052
C4 C 0.8031(5) 0.2106(5) -0.0028(4)
H4 H 0.8745 0.1301 -0.0054
C5 C 0.3055(7) 0.2940(7) 0.2757(5)
H5 H 0.2157 0.3275 0.3056
C6 C 0.5599(6) 0.2775(7) 0.2673(5)
H6 H 0.6773 0.2965 0.2885
N1A N -0.1058(5) -0.0335(6) -0.6589(4)
N2A N -0.2577(5) -0.0526(6) -0.8515(4)
N3A N -0.0869(5) -0.0115(6) -0.8360(4)
N4A N -0.0755(6) -0.0271(6) -0.5318(4)
C1A C -0.2632(6) -0.0680(8) -0.7457(5)
H1A H -0.3618 -0.0986 -0.7314
C2A C 0.0003(7) 0.0006(8) -0.7197(5)
H2A H 0.1178 0.0284 -0.6831
N5A N 1.3501(4) 0.8082(4) 0.0006(3)
N6A N 1.4156(5) 0.6596(5) -0.0034(4)
N7A N 1.1575(4) 0.6324(4) 0.0009(4)
N8A N 1.0016(4) 0.5735(5) 0.0014(4)
C3A C 1.2977(6) 0.5563(6) -0.0031(5)
H3A H 1.3066 0.4473 -0.0052
C4A C 1.1969(5) 0.7894(5) 0.0028(4)
H4A H 1.1255 0.8699 0.0054
N9A N 0.5468(5) 0.8326(5) 0.8423(3)
N10A N 0.7093(5) 0.8214(6) 0.8379(4)
N11A N 0.5280(5) 0.6407(5) 0.6550(4)
N12A N 0.4467(6) 0.5221(6) 0.5274(4)
C5A C 0.6945(7) 0.7060(7) 0.7243(5)
H5A H 0.7843 0.6725 0.6944
C6A C 0.4401(6) 0.7225(7) 0.7327(5)
H6A H 0.3227 0.7035 0.7115
Cu1_2 Cu -0.5000 0.0000 -1.0000
Cu1_3 Cu 0.5000 1.0000 1.0000
Cu1_4 Cu 1.5000 1.0000 0.0000
N2A_2 N 0.7423(5) -0.0526(6) 0.1485(4)
N5A_2 N 0.3501(4) -0.1918(4) 0.0006(3)
N9A_2 N 0.5468(5) -0.1674(5) -0.1577(3)
B1 B 0.0160(8) 0.4335(7) 0.6188(6)
F1 F -0.0674(12) 0.3326(10) 0.4914(7)
F2 F 0.0258(10) 0.5982(7) 0.6340(9)
F3 F -0.0685(14) 0.4057(14) 0.6948(10)
F4 F 0.1739(9) 0.3974(12) 0.6547(11)
B2? B -0.3870(9) 0.1896(9) 0.6215(8)
F5? F -0.4924(13) 0.2910(11) 0.6678(11)
F6? F -0.4042(12) 0.0455(10) 0.6427(12)
F7? F -0.2252(10) 0.2720(15) 0.6843(13)
F8? F -0.4260(17) 0.1501(15) 0.4912(8)
loop_
_geom_bond_atom_site_label_1
_geom_bond_atom_site_label_2
_geom_bond_site_symmetry_1
_geom_bond_site_symmetry_2
Cu1 N2 1_555 1_555
N1 N4 1_555 1_555
N2 N3 1_555 1_555
N3 C2 1_555 1_555
N4 N4A 1_555 1_555
N5 Cu1 1_555 1_555
N6 N5 1_555 1_555
N7 N8 1_555 1_555
N8 N8A 1_555 1_555
N9 Cu1 1_555 1_555
N10 N9 1_555 1_555
N11 N12 1_555 1_555
N12 N12A 1_555 1_555
C1 N1 1_555 1_555
H1 C1 1_555 1_555
C2 N1 1_555 1_555
H2 C2 1_555 1_555
C3 N6 1_555 1_555
H3 C3 1_555 1_555
C4 N5 1_555 1_555
H4 C4 1_555 1_555
C5 N10 1_555 1_555
H5 C5 1_555 1_555
C6 N9 1_555 1_555
H6 C6 1_555 1_555
B1 F1 1_555 1_555
F2 B1 1_555 1_555
F3 B1 1_555 1_555
F4 B1 1_555 1_555
N1A N4A 1_555 1_555
N2A N3A 1_555 1_555
N3A C2A 1_555 1_555
C1A N1A 1_555 1_555
H1A C1A 1_555 1_555
C2A N1A 1_555 1_555
H2A C2A 1_555 1_555
N5A N6A 1_555 1_555
N6A C3A 1_555 1_555
N7A N8A 1_555 1_555
C3A N7A 1_555 1_555
H3A C3A 1_555 1_555
C4A N5A 1_555 1_555
H4A C4A 1_555 1_555
N9A N10A 1_555 1_555
N10A C5A 1_555 1_555
N11A N12A 1_555 1_555
C5A N11A 1_555 1_555
H5A C5A 1_555 1_555
C6A N9A 1_555 1_555
H6A C6A 1_555 1_555
Cu1_2 N2A 1_555 1_555
Cu1_3 N9A 1_555 1_555
Cu1_4 N5A 1_555 1_555
N2A_2 Cu1 1_555 1_555
N5A_2 Cu1 1_555 1_555
N9A_2 Cu1 1_555 1_555
N2 C1 1_555 1_555
N7 C3 1_555 1_555
N7 C4 1_555 1_555
N11 C5 1_555 1_555
N11 C6 1_555 1_555
N2A C1A 1_555 1_555
N7A C4A 1_555 1_555
N11A C6A 1_555 1_555

#END
