
#######################################################################
#
#                 Cambridge Crystallographic Data Centre
#                                CCDC 
#
#######################################################################
#
# If this CIF has been generated from an entry in the Cambridge 
# Structural Database, then it will include bibliographic, chemical, 
# crystal, experimental, refinement or atomic coordinate data resulting 
# from the CCDC's data processing and validation procedures.
#
#######################################################################

data_OGUKAE
_symmetry_cell_setting           triclinic
_symmetry_space_group_name_H-M   'P -1'
_symmetry_Int_Tables_number      2
_space_group_name_Hall           '-P 1'
loop_
_symmetry_equiv_pos_site_id
_symmetry_equiv_pos_as_xyz
1 x,y,z
2 -x,-y,-z
_cell_length_a                   7.4935(6)
_cell_length_b                   7.8714(6)
_cell_length_c                   12.2388(10)
_cell_angle_alpha                72.3250(10)
_cell_angle_beta                 83.1640(10)
_cell_angle_gamma                82.9130(10)
_cell_volume                     680.02
loop_
_atom_site_label
_atom_site_type_symbol
_atom_site_fract_x
_atom_site_fract_y
_atom_site_fract_z
Zn1 Zn 0.25857(4) 0.72981(4) 0.15751(2)
S1 S 0.14952(12) 1.09043(13) -0.21489(7)
S2 S 0.02953(16) 0.24243(14) 0.43623(11)
N1 N 0.3226(3) 0.8699(3) 0.25703(17)
N2 N 0.3559(3) 1.0490(3) 0.21283(17)
N3 N 0.4190(3) 0.9492(3) 0.39115(16)
N4 N 0.4731(3) 0.9292(3) 0.49931(17)
N5 N 0.5202(3) 0.6149(3) 0.12518(18)
N6 N 0.5941(3) 0.4652(3) 0.20753(19)
N7 N 0.7916(3) 0.5478(3) 0.06062(17)
N8 N 0.9427(3) 0.5628(3) -0.01776(18)
N9 N 0.2138(3) 0.8648(3) 0.00205(19)
N10 N 0.1463(3) 0.5209(3) 0.2535(2)
C1 C 0.4133(4) 1.0927(3) 0.2948(2)
H1 H 0.4461 1.2054 0.2892
C2 C 0.3605(4) 0.8132(3) 0.3632(2)
H2 H 0.3494 0.6980 0.4122
C3 C 0.7561(4) 0.4280(3) 0.1669(2)
H3 H 0.8366 0.3344 0.2039
C4 C 0.6414(4) 0.6616(3) 0.0395(2)
H4 H 0.6269 0.7583 -0.0261
C5 C 0.1866(3) 0.9599(4) -0.0879(2)
C6 C 0.0984(4) 0.4076(4) 0.3312(3)
N1A N 0.6774(3) 1.1301(3) 0.74297(17)
N2A N 0.6441(3) 0.9510(3) 0.78717(17)
N3A N 0.5810(3) 1.0508(3) 0.60885(16)
N4A N 0.5269(3) 1.0708(3) 0.50069(17)
C1A C 0.5867(4) 0.9073(3) 0.7052(2)
H1A H 0.5539 0.7946 0.7108
C2A C 0.6395(4) 1.1868(3) 0.6368(2)
H2A H 0.6506 1.3020 0.5878
N5A N 1.4798(3) 0.3851(3) -0.12518(18)
N6A N 1.4059(3) 0.5348(3) -0.20753(19)
N7A N 1.2084(3) 0.4522(3) -0.06062(17)
N8A N 1.0573(3) 0.4372(3) 0.01776(18)
C3A C 1.2439(4) 0.5720(3) -0.1669(2)
H3A H 1.1634 0.6656 -0.2039
C4A C 1.3586(4) 0.3384(3) -0.0395(2)
H4A H 1.3731 0.2417 0.0261
Zn1A Zn 0.74143(4) 1.27019(4) 0.84249(2)
S1A S 0.85048(12) 0.90957(13) 1.21489(7)
S2A S 0.97047(16) 1.75757(14) 0.56377(11)
N9A N 0.7862(3) 1.1352(3) 0.99795(19)
N10A N 0.8537(3) 1.4791(3) 0.7465(2)
C5A C 0.8134(3) 1.0401(4) 1.0879(2)
C6A C 0.9016(4) 1.5924(4) 0.6688(3)
Zn1A_2 Zn 1.74143(4) 0.27019(4) -0.15751(2)
N5A_2 N 0.4798(3) 1.3851(3) 0.87482(18)
O1 O 0.6671(11) 0.5642(9) 0.4531(6)
loop_
_geom_bond_atom_site_label_1
_geom_bond_atom_site_label_2
_geom_bond_site_symmetry_1
_geom_bond_site_symmetry_2
Zn1 N1 1_555 1_555
S1 C5 1_555 1_555
S2 C6 1_555 1_555
N1 N2 1_555 1_555
N2 C1 1_555 1_555
N3 N4 1_555 1_555
N4 N4A 1_555 1_555
N5 Zn1 1_555 1_555
N6 N5 1_555 1_555
N7 N8 1_555 1_555
N8 N8A 1_555 1_555
N9 Zn1 1_555 1_555
N10 Zn1 1_555 1_555
C1 N3 1_555 1_555
H1 C1 1_555 1_555
C2 N1 1_555 1_555
H2 C2 1_555 1_555
C3 N6 1_555 1_555
H3 C3 1_555 1_555
C4 N5 1_555 1_555
H4 C4 1_555 1_555
C5 N9 1_555 1_555
C6 N10 1_555 1_555
N1A N2A 1_555 1_555
N2A C1A 1_555 1_555
N3A N4A 1_555 1_555
C1A N3A 1_555 1_555
H1A C1A 1_555 1_555
C2A N1A 1_555 1_555
H2A C2A 1_555 1_555
N5A N6A 1_555 1_555
N6A C3A 1_555 1_555
N7A N8A 1_555 1_555
C3A N7A 1_555 1_555
H3A C3A 1_555 1_555
C4A N5A 1_555 1_555
H4A C4A 1_555 1_555
Zn1A N1A 1_555 1_555
S1A C5A 1_555 1_555
S2A C6A 1_555 1_555
N9A Zn1A 1_555 1_555
N10A Zn1A 1_555 1_555
C5A N9A 1_555 1_555
C6A N10A 1_555 1_555
Zn1A_2 N5A 1_555 1_555
N5A_2 Zn1A 1_555 1_555
N3 C2 1_555 1_555
N7 C3 1_555 1_555
N7 C4 1_555 1_555
N3A C2A 1_555 1_555
N7A C4A 1_555 1_555

#END
