
#######################################################################
#
#                 Cambridge Crystallographic Data Centre
#                                CCDC 
#
#######################################################################
#
# If this CIF has been generated from an entry in the Cambridge 
# Structural Database, then it will include bibliographic, chemical, 
# crystal, experimental, refinement or atomic coordinate data resulting 
# from the CCDC's data processing and validation procedures.
#
#######################################################################

data_OGUKEH
_symmetry_cell_setting           orthorhombic
_symmetry_space_group_name_H-M   'F d d d'
_symmetry_Int_Tables_number      70
_space_group_name_Hall           '-F 2uv 2vw'
loop_
_symmetry_equiv_pos_site_id
_symmetry_equiv_pos_as_xyz
1 x,y,z
2 3/4-x,3/4-y,z
3 3/4-x,y,3/4-z
4 x,3/4-y,3/4-z
5 x,1/2+y,1/2+z
6 3/4-x,1/4-y,1/2+z
7 3/4-x,1/2+y,1/4-z
8 x,1/4-y,1/4-z
9 1/2+x,y,1/2+z
10 1/4-x,3/4-y,1/2+z
11 1/4-x,y,1/4-z
12 1/2+x,3/4-y,1/4-z
13 1/2+x,1/2+y,z
14 1/4-x,1/4-y,z
15 1/4-x,1/2+y,3/4-z
16 1/2+x,1/4-y,3/4-z
17 -x,-y,-z
18 1/4+x,1/4+y,-z
19 1/4+x,-y,1/4+z
20 -x,1/4+y,1/4+z
21 -x,1/2-y,1/2-z
22 1/4+x,3/4+y,1/2-z
23 1/4+x,1/2-y,3/4+z
24 -x,3/4+y,3/4+z
25 1/2-x,-y,1/2-z
26 3/4+x,1/4+y,1/2-z
27 3/4+x,-y,3/4+z
28 1/2-x,1/4+y,3/4+z
29 1/2-x,1/2-y,-z
30 3/4+x,3/4+y,-z
31 3/4+x,1/2-y,1/4+z
32 1/2-x,3/4+y,1/4+z
_cell_length_a                   10.6151(11)
_cell_length_b                   20.157(2)
_cell_length_c                   49.670(5)
_cell_angle_alpha                90
_cell_angle_beta                 90
_cell_angle_gamma                90
_cell_volume                     10627.8
loop_
_atom_site_label
_atom_site_type_symbol
_atom_site_fract_x
_atom_site_fract_y
_atom_site_fract_z
Au2 Au 0.5272(2) 0.48728(14) -0.03017(9)
N2 N 0.5604(16) 0.4435(7) -0.0893(3)
C2 C 0.5564(18) 0.4566(9) -0.0684(5)
Au2P Au 0.4728(2) 0.51272(14) 0.03017(9)
N2P N 0.4396(16) 0.5565(7) 0.0893(3)
C2P C 0.4436(18) 0.5434(9) 0.0684(5)
O2 O 0.1250 0.1250 0.1250
O3 O 0.181(2) 0.5578(12) 0.1097(5)
H2 H 0.2554 0.5544 0.1034
H3 H 0.1773 0.5935 0.1188
Au1 Au 1.3750 0.3750 0.059712(8)
Mn1 Mn 0.8750 0.3750 0.05880(3)
O1 O 0.8564(5) 0.4408(3) 0.09528(10)
N1 N 1.0841(6) 0.3929(3) 0.06131(13)
N3 N 0.8750 0.3750 0.01440(16)
N4 N 0.8338(6) 0.4776(3) 0.04418(12)
C1 C 1.1904(7) 0.3874(4) 0.06066(14)
C3 C 0.8525(6) 0.4320(4) 0.00115(15)
C4 C 0.8516(7) 0.4330(4) -0.02669(16)
H4 H 0.8354 0.4722 -0.0359
C5 C 0.8750 0.3750 -0.0405(2)
H5 H 0.8750 0.3750 -0.0592
C6 C 0.8308(7) 0.4902(4) 0.01904(15)
C7 C 0.8107(8) 0.5567(4) 0.00664(18)
H6 H 0.7895 0.5882 0.0204
H7 H 0.7433 0.5542 -0.0062
H8 H 0.8865 0.5706 -0.0023
C8 C 0.8163(9) 0.5283(4) 0.06482(16)
H9 H 0.7532 0.5600 0.0590
H10 H 0.8947 0.5520 0.0677
C9 C 0.7744(12) 0.4955(5) 0.09094(19)
H11 H 0.7800 0.5266 0.1058
H12 H 0.6879 0.4804 0.0895
C10 C 0.8366(11) 0.4052(5) 0.11905(17)
H13 H 0.7482 0.3936 0.1206
H14 H 0.8588 0.4326 0.1344
Mn1_2 Mn 1.8750 0.3750 0.05880(3)
O1A O 0.8936(5) 0.3092(3) 0.09528(10)
N1A N 1.6659(6) 0.3571(3) 0.06131(13)
N1A_2 N 0.6659(6) 0.3571(3) 0.06131(13)
N4A N 0.9162(6) 0.2724(3) 0.04418(12)
C1A C 1.5596(7) 0.3626(4) 0.06066(14)
C3A C 0.8975(6) 0.3180(4) 0.00115(15)
C4A C 0.8984(7) 0.3170(4) -0.02669(16)
H4A H 0.9146 0.2778 -0.0359
C6A C 0.9192(7) 0.2598(4) 0.01904(15)
C7A C 0.9393(8) 0.1933(4) 0.00664(18)
H6A H 0.9605 0.1618 0.0204
H7A H 1.0067 0.1958 -0.0062
H8A H 0.8635 0.1794 -0.0023
C8A C 0.9337(9) 0.2217(4) 0.06482(16)
H9A H 0.9968 0.1900 0.0590
H10A H 0.8553 0.1980 0.0677
C9A C 0.9756(12) 0.2545(5) 0.09094(19)
H11A H 0.9700 0.2234 0.1058
H12A H 1.0621 0.2696 0.0895
C10A C 0.9134(11) 0.3448(5) 0.11905(17)
H13A H 1.0018 0.3564 0.1206
H14A H 0.8912 0.3174 0.1344
H1? H 0.0719 0.1054 0.1150
C11? C 0.503(7) 0.487(3) -0.0069(12)
C12? C 0.862(8) 0.249(3) 0.0894(13)
H15? H 1.0213 0.2169 0.0692
H16? H 0.9019 0.1788 0.0589
H17? H 0.7727 0.2467 0.0858
H18? H 0.8797 0.2203 0.1048
N5? N 0.507(6) 0.472(3) -0.0293(17)
loop_
_geom_bond_atom_site_label_1
_geom_bond_atom_site_label_2
_geom_bond_site_symmetry_1
_geom_bond_site_symmetry_2
Au1 C1 1_555 1_555
Au2 C2 1_555 1_555
Mn1 O1 1_555 1_555
O1 C9 1_555 1_555
O3 H2 1_555 1_555
H3 O3 1_555 1_555
N1 Mn1 1_555 1_555
N2 C2 1_555 1_555
N3 Mn1 1_555 1_555
N4 Mn1 1_555 1_555
C1 N1 1_555 1_555
C3 N3 1_555 1_555
C4 C3 1_555 1_555
H4 C4 1_555 1_555
C5 C4 1_555 1_555
H5 C5 1_555 1_555
C6 N4 1_555 1_555
C7 C6 1_555 1_555
H6 C7 1_555 1_555
H7 C7 1_555 1_555
H8 C7 1_555 1_555
C8 N4 1_555 1_555
H9 C8 1_555 1_555
H10 C8 1_555 1_555
C9 C8 1_555 1_555
H11 C9 1_555 1_555
H12 C9 1_555 1_555
C10 O1 1_555 1_555
H13 C10 1_555 1_555
H14 C10 1_555 1_555
Au2P Au2 1_555 1_555
Mn1_2 N1A 1_555 1_555
O1A Mn1 1_555 1_555
N1A C1A 1_555 1_555
N1A_2 Mn1 1_555 1_555
N2P C2P 1_555 1_555
N4A Mn1 1_555 1_555
C1A Au1 1_555 1_555
C2P Au2P 1_555 1_555
C3A N3 1_555 1_555
C4A C5 1_555 1_555
H4A C4A 1_555 1_555
C6A N4A 1_555 1_555
C7A C6A 1_555 1_555
H6A C7A 1_555 1_555
H7A C7A 1_555 1_555
H8A C7A 1_555 1_555
C8A N4A 1_555 1_555
H9A C8A 1_555 1_555
H10A C8A 1_555 1_555
C9A O1A 1_555 1_555
H11A C9A 1_555 1_555
H12A C9A 1_555 1_555
C10A C10 1_555 1_555
H13A C10A 1_555 1_555
H14A C10A 1_555 1_555
C3 C6 1_555 1_555
O1A C10A 1_555 1_555
C3A C4A 1_555 1_555
C3A C6A 1_555 1_555
C8A C9A 1_555 1_555

#END
