
#######################################################################
#
#                 Cambridge Crystallographic Data Centre
#                                CCDC 
#
#######################################################################
#
# If this CIF has been generated from an entry in the Cambridge 
# Structural Database, then it will include bibliographic, chemical, 
# crystal, experimental, refinement or atomic coordinate data resulting 
# from the CCDC's data processing and validation procedures.
#
#######################################################################

data_OGUKEI
_symmetry_cell_setting           monoclinic
_symmetry_space_group_name_H-M   'C 2/c'
_symmetry_Int_Tables_number      15
_space_group_name_Hall           '-C 2yn'
loop_
_symmetry_equiv_pos_site_id
_symmetry_equiv_pos_as_xyz
1 x,y,z
2 -x,y,1/2-z
3 1/2+x,1/2+y,z
4 1/2-x,1/2+y,1/2-z
5 -x,-y,-z
6 x,-y,1/2+z
7 1/2-x,1/2-y,-z
8 1/2+x,1/2-y,1/2+z
_cell_length_a                   12.2481(13)
_cell_length_b                   5.6785(6)
_cell_length_c                   17.9506(18)
_cell_angle_alpha                90
_cell_angle_beta                 106.572(2)
_cell_angle_gamma                90
_cell_volume                     1196.62
loop_
_atom_site_label
_atom_site_type_symbol
_atom_site_fract_x
_atom_site_fract_y
_atom_site_fract_z
Zn1 Zn 0.5000 0.23981(4) 0.2500
S1 S 0.42279(5) -0.26399(8) 0.43605(3)
N1 N 0.62197(12) 0.4621(3) 0.31085(8)
N2 N 0.67415(12) 0.6368(3) 0.27760(8)
N3 N 0.71306(12) 0.6927(3) 0.40289(8)
N4 N 0.75979(12) 0.8072(3) 0.47320(9)
N5 N 0.47429(13) 0.0619(3) 0.33515(9)
C1 C 0.64655(14) 0.4971(3) 0.38550(10)
H1 H 0.6223 0.4027 0.4215
C2 C 0.72763(16) 0.7730(3) 0.33419(10)
H2 H 0.7705 0.9083 0.3289
C3 C 0.45239(14) -0.0734(3) 0.37765(10)
N1F N 0.87803(12) 1.0379(3) 0.68915(8)
N2F N 0.82585(12) 0.8632(3) 0.72240(8)
N3F N 0.78694(12) 0.8073(3) 0.59711(8)
N4F N 0.74021(12) 0.6928(3) 0.52680(9)
C1F C 0.85345(14) 1.0029(3) 0.61450(10)
H1F H 0.8777 1.0973 0.5785
C2F C 0.77237(16) 0.7270(3) 0.66581(10)
H2F H 0.7295 0.5917 0.6711
S1A S 0.57721(5) -0.26399(8) 0.06395(3)
N5A N 0.52571(13) 0.0619(3) 0.16485(9)
C3A C 0.54761(14) -0.0734(3) 0.12235(10)
Zn1F Zn 1.0000 1.26019(4) 0.7500
N1A N 0.37803(12) 0.4621(3) 0.18915(8)
loop_
_geom_bond_atom_site_label_1
_geom_bond_atom_site_label_2
_geom_bond_site_symmetry_1
_geom_bond_site_symmetry_2
Zn1 N1 1_555 1_555
S1 C3 1_555 1_555
N1 N2 1_555 1_555
N2 C2 1_555 1_555
N3 N4 1_555 1_555
N4 N4F 1_555 1_555
N5 Zn1 1_555 1_555
C1 N1 1_555 1_555
H1 C1 1_555 1_555
C2 N3 1_555 1_555
H2 C2 1_555 1_555
C3 N5 1_555 1_555
N1F N2F 1_555 1_555
N2F C2F 1_555 1_555
N3F N4F 1_555 1_555
C1F N1F 1_555 1_555
H1F C1F 1_555 1_555
C2F N3F 1_555 1_555
H2F C2F 1_555 1_555
S1A C3A 1_555 1_555
N5A Zn1 1_555 1_555
C3A N5A 1_555 1_555
Zn1F N1F 1_555 1_555
N1A Zn1 1_555 1_555
N3 C1 1_555 1_555
N3F C1F 1_555 1_555

#END
