
#######################################################################
#
#                 Cambridge Crystallographic Data Centre
#                                CCDC 
#
#######################################################################
#
# If this CIF has been generated from an entry in the Cambridge 
# Structural Database, then it will include bibliographic, chemical, 
# crystal, experimental, refinement or atomic coordinate data resulting 
# from the CCDC's data processing and validation procedures.
#
#######################################################################

data_OGULAF
_symmetry_cell_setting           monoclinic
_symmetry_space_group_name_H-M   'P 21'
_symmetry_Int_Tables_number      4
_space_group_name_Hall           'P 2yb'
loop_
_symmetry_equiv_pos_site_id
_symmetry_equiv_pos_as_xyz
1 x,y,z
2 -x,1/2+y,-z
_cell_length_a                   9.6658(12)
_cell_length_b                   13.5399(17)
_cell_length_c                   11.4516(13)
_cell_angle_alpha                90
_cell_angle_beta                 98.777(12)
_cell_angle_gamma                90
_cell_volume                     1481.17
loop_
_atom_site_label
_atom_site_type_symbol
_atom_site_fract_x
_atom_site_fract_y
_atom_site_fract_z
Ni1 Ni 0.23202(8) -0.00140(6) 0.15121(6)
N1 N 0.2333(5) 0.0126(5) -0.0366(4)
C1 C 0.1151(6) 0.0091(6) -0.1138(4)
H1 H 0.0302 0.0119 -0.0851
C2 C 0.1128(5) 0.0015(6) -0.2352(4)
H2 H 0.0276 -0.0022 -0.2852
C3 C 0.2367(5) -0.0005(6) -0.2822(4)
C4 C 0.3587(5) 0.0034(6) -0.2004(4)
H3 H 0.4456 0.0010 -0.2257
C5 C 0.3504(6) 0.0110(6) -0.0817(5)
H4 H 0.4339 0.0152 -0.0296
C6 C 0.2373(6) -0.0089(6) -0.4121(4)
C7 C 0.1166(6) -0.0301(5) -0.4898(5)
H5 H 0.0334 -0.0427 -0.4611
C8 C 0.1198(6) -0.0326(4) -0.6096(5)
H6 H 0.0375 -0.0480 -0.6595
N2 N 0.2345(4) -0.0142(4) -0.6585(4)
C9 C 0.3497(6) 0.0068(6) -0.5826(4)
H7 H 0.4307 0.0224 -0.6132
C10 C 0.3556(6) 0.0066(7) -0.4624(5)
H8 H 0.4408 0.0172 -0.4142
O1 O 0.0755(4) -0.1041(3) 0.1240(3)
O2 O 0.0283(4) -0.2637(3) 0.0931(4)
C11 C 0.1115(7) -0.1937(5) 0.1095(5)
C12 C 0.2674(7) -0.2140(4) 0.1111(5)
H9 H 0.2804 -0.2241 0.0288
N3 N 0.3543(6) -0.1267(4) 0.1547(4)
H10 H 0.433(3) -0.123(4) 0.123(4)
H11 H 0.399(5) -0.128(4) 0.2294(17)
C13 C 0.3160(7) -0.3094(5) 0.1774(5)
H12 H 0.2527 -0.3626 0.1486
H13 H 0.4084 -0.3267 0.1609
C14 C 0.3210(7) -0.2997(4) 0.3097(5)
C15 C 0.2001(7) -0.3056(5) 0.3609(6)
H14 H 0.1158 -0.3206 0.3135
C16 C 0.2014(7) -0.2896(5) 0.4806(6)
H15 H 0.1185 -0.2926 0.5124
C17 C 0.3254(7) -0.2694(4) 0.5519(5)
C18 C 0.4470(6) -0.2645(4) 0.5058(5)
H16 H 0.5313 -0.2510 0.5541
C19 C 0.4432(7) -0.2800(4) 0.3853(5)
H17 H 0.5266 -0.2768 0.3543
O3 O 0.3214(4) -0.2526(4) 0.6709(4)
H18 H 0.4067(10) -0.254(5) 0.689(5)
O4 O 0.3874(4) 0.1010(4) 0.1882(3)
O5 O 0.4316(4) 0.2628(3) 0.1970(3)
C20 C 0.3494(7) 0.1899(5) 0.1775(5)
C21 C 0.1943(7) 0.2125(4) 0.1334(5)
H19 H 0.1892 0.2234 0.0483
N4 N 0.1086(6) 0.1237(5) 0.1433(4)
H20 H 0.035(4) 0.113(4) 0.087(3)
H21 H 0.061(5) 0.128(4) 0.205(3)
C22 C 0.1411(7) 0.3088(4) 0.1809(5)
H22 H 0.1765 0.3633 0.1390
H23 H 0.0399 0.3096 0.1614
C23 C 0.1795(7) 0.3282(5) 0.3135(5)
C24 C 0.2425(6) 0.4159(4) 0.3511(6)
H24 H 0.2658 0.4603 0.2953
C25 C 0.2723(6) 0.4403(4) 0.4703(6)
H25 H 0.3129 0.5008 0.4933
C26 C 0.2412(6) 0.3740(5) 0.5544(5)
C27 C 0.1800(7) 0.2863(5) 0.5192(6)
H26 H 0.1577 0.2419 0.5754
C28 C 0.1504(6) 0.2624(5) 0.3991(5)
H27 H 0.1106 0.2015 0.3764
O6 O 0.2721(5) 0.4010(4) 0.6697(4)
H28 H 0.237(8) 0.359(4) 0.708(6)
Ni1_2 Ni 0.23202(8) -0.00140(6) -0.84879(6)
N2_2 N 0.2345(4) -0.0142(4) 0.3415(4)
O7 O 0.4032(5) 0.3560(4) 0.9797(4)
H29 H 0.425(6) 0.327(4) 1.042(3)
H30 H 0.334(4) 0.389(4) 0.989(4)
O8 O 0.2222(6) 0.2552(4) 0.8112(4)
H31 H 0.149(3) 0.247(6) 0.838(5)
H32 H 0.284(4) 0.253(5) 0.869(3)
O9 O 0.1831(4) 0.4888(5) 0.9638(3)
H33 H 0.184(4) 0.506(4) 0.8954(19)
H34 H 0.111(4) 0.457(4) 0.962(5)
O10 O 0.1759(7) 0.5894(5) 0.7519(5)
H35 H 0.222(9) 0.639(4) 0.745(7)
H36 H 0.197(9) 0.552(4) 0.700(6)
loop_
_geom_bond_atom_site_label_1
_geom_bond_atom_site_label_2
_geom_bond_site_symmetry_1
_geom_bond_site_symmetry_2
Ni1 N1 1_555 1_555
N1 C1 1_555 1_555
C1 H1 1_555 1_555
C2 C1 1_555 1_555
H2 C2 1_555 1_555
C3 C2 1_555 1_555
C4 C3 1_555 1_555
H3 C4 1_555 1_555
C5 N1 1_555 1_555
H4 C5 1_555 1_555
C6 C3 1_555 1_555
C7 C6 1_555 1_555
H5 C7 1_555 1_555
C8 C7 1_555 1_555
H6 C8 1_555 1_555
N2 C8 1_555 1_555
C9 N2 1_555 1_555
H7 C9 1_555 1_555
C10 C6 1_555 1_555
H8 C10 1_555 1_555
O1 Ni1 1_555 1_555
O2 C11 1_555 1_555
C11 O1 1_555 1_555
C12 C11 1_555 1_555
H9 C12 1_555 1_555
N3 Ni1 1_555 1_555
H10 N3 1_555 1_555
H11 N3 1_555 1_555
C13 C12 1_555 1_555
H12 C13 1_555 1_555
H13 C13 1_555 1_555
C14 C13 1_555 1_555
C15 C14 1_555 1_555
H14 C15 1_555 1_555
C16 C15 1_555 1_555
H15 C16 1_555 1_555
C17 C16 1_555 1_555
C18 C17 1_555 1_555
H16 C18 1_555 1_555
C19 C14 1_555 1_555
H17 C19 1_555 1_555
O3 C17 1_555 1_555
H18 O3 1_555 1_555
O4 Ni1 1_555 1_555
O5 C20 1_555 1_555
C20 O4 1_555 1_555
C21 C20 1_555 1_555
H19 C21 1_555 1_555
N4 Ni1 1_555 1_555
H20 N4 1_555 1_555
H21 N4 1_555 1_555
C22 C21 1_555 1_555
H22 C22 1_555 1_555
H23 C22 1_555 1_555
C23 C22 1_555 1_555
C24 C23 1_555 1_555
H24 C24 1_555 1_555
C25 C24 1_555 1_555
H25 C25 1_555 1_555
C26 C25 1_555 1_555
C27 C26 1_555 1_555
H26 C27 1_555 1_555
C28 C23 1_555 1_555
H27 C28 1_555 1_555
O6 C26 1_555 1_555
H28 O6 1_555 1_555
O7 H29 1_555 1_555
H30 O7 1_555 1_555
O8 H31 1_555 1_555
H32 O8 1_555 1_555
O9 H33 1_555 1_555
H34 O9 1_555 1_555
O10 H35 1_555 1_555
H36 O10 1_555 1_555
Ni1_2 N2 1_555 1_555
N2_2 Ni1 1_555 1_555
C4 C5 1_555 1_555
C9 C10 1_555 1_555
C12 N3 1_555 1_555
C18 C19 1_555 1_555
C21 N4 1_555 1_555
C27 C28 1_555 1_555

#END
