
#######################################################################
#
#                 Cambridge Crystallographic Data Centre
#                                CCDC 
#
#######################################################################
#
# If this CIF has been generated from an entry in the Cambridge 
# Structural Database, then it will include bibliographic, chemical, 
# crystal, experimental, refinement or atomic coordinate data resulting 
# from the CCDC's data processing and validation procedures.
#
#######################################################################

data_OGUMAF
_symmetry_cell_setting           monoclinic
_symmetry_space_group_name_H-M   'P 21/c'
_symmetry_Int_Tables_number      14
_space_group_name_Hall           '-P 2ybc'
loop_
_symmetry_equiv_pos_site_id
_symmetry_equiv_pos_as_xyz
1 x,y,z
2 -x,1/2+y,1/2-z
3 -x,-y,-z
4 x,1/2-y,1/2+z
_cell_length_a                   15.034(4)
_cell_length_b                   12.181(3)
_cell_length_c                   16.814(4)
_cell_angle_alpha                90
_cell_angle_beta                 102.133(3)
_cell_angle_gamma                90
_cell_volume                     3010.35
loop_
_atom_site_label
_atom_site_type_symbol
_atom_site_fract_x
_atom_site_fract_y
_atom_site_fract_z
I1 I 0.82021(2) 0.36211(3) 0.375685(19)
I2 I 0.62762(2) 0.63767(3) 0.38089(2)
I3 I 0.68693(2) 0.57657(3) 0.13511(2)
I4 I 0.87848(2) 0.30850(3) 0.12558(2)
Cu1 Cu 0.92659(4) 0.41071(4) 0.26744(4)
Cu2 Cu 0.75976(5) 0.55482(5) 0.32920(5)
Cu3 Cu 0.57882(4) 0.53124(5) 0.24240(4)
Cu4 Cu 0.75045(5) 0.38372(6) 0.18541(6)
N1 N 0.9227(2) 0.5780(3) 0.2629(2)
N2 N 0.8624(2) 0.6385(3) 0.2976(2)
N3 N 0.9201(2) 0.7457(3) 0.2185(2)
N4 N 0.9476(3) 0.8420(3) 0.1827(2)
N5 N 0.8127(3) 0.8200(4) 0.0835(3)
H1 H 0.7968 0.7620 0.1061
H2 H 0.7787 0.8450 0.0397
N6 N 0.5827(2) 0.3652(3) 0.2463(2)
N7 N 0.6434(3) 0.3047(3) 0.2117(2)
N8 N 0.5780(2) 0.1945(3) 0.2830(2)
N9 N 0.5465(3) 0.0964(3) 0.3130(2)
N10 N 0.6759(3) 0.1136(4) 0.4212(3)
H3 H 0.6935 0.1734 0.4022
H4 H 0.7069 0.0861 0.4656
C1 C 0.9577(3) 0.6439(3) 0.2161(3)
C2 C 0.8631(3) 0.7396(3) 0.2711(3)
C3 C 1.0280(3) 0.6142(4) 0.1692(3)
H5 H 1.0510 0.5415 0.1855
H6 H 1.0784 0.6653 0.1830
C4 C 0.9926(5) 0.6155(5) 0.0772(3)
H7 H 1.0409 0.5956 0.0506
H8 H 0.9712 0.6878 0.0603
H9 H 0.9436 0.5640 0.0628
C5 C 0.8094(3) 0.8339(4) 0.2930(3)
H10 H 0.7453 0.8150 0.2805
H11 H 0.8178 0.8970 0.2602
C6 C 0.8374(5) 0.8643(5) 0.3824(4)
H12 H 0.8013 0.9250 0.3937
H13 H 0.9005 0.8844 0.3949
H14 H 0.8280 0.8025 0.4152
C7 C 0.8902(3) 0.8713(4) 0.1166(3)
C8 C 0.9135(4) 0.9712(4) 0.0745(3)
H15 H 0.9701 1.0007 0.1040
H16 H 0.8663 1.0250 0.0721
H17 H 0.9190 0.9525 0.0203
C9 C 0.5433(3) 0.2971(3) 0.2889(3)
C10 C 0.6386(3) 0.2021(4) 0.2331(3)
C11 C 0.4733(4) 0.3271(4) 0.3354(3)
H18 H 0.4236 0.2750 0.3226
H19 H 0.4493 0.3990 0.3177
C12 C 0.5074(5) 0.3294(6) 0.4258(4)
H20 H 0.4586 0.3495 0.4517
H21 H 0.5557 0.3822 0.4393
H22 H 0.5298 0.2581 0.4443
C13 C 0.6910(4) 0.1084(4) 0.2094(3)
H23 H 0.6809 0.0438 0.2400
H24 H 0.7554 0.1255 0.2232
C14 C 0.6633(5) 0.0838(5) 0.1189(4)
H25 H 0.6984 0.0232 0.1058
H26 H 0.6742 0.1473 0.0884
H27 H 0.5998 0.0655 0.1053
C15 C 0.5990(4) 0.0623(4) 0.3810(3)
C16 C 0.5736(4) -0.0402(4) 0.4144(3)
H28 H 0.5186 -0.0677 0.3804
H29 H 0.5638 -0.0277 0.4682
H30 H 0.6214 -0.0930 0.4165
Cu1A Cu 1.07341(4) 0.91071(4) 0.23256(4)
Cu3A Cu 0.42118(4) 0.03124(5) 0.25760(4)
N4A N 1.0524(3) 0.3420(3) 0.3173(2)
N9A N 0.4535(3) 0.5964(3) 0.1870(2)
loop_
_geom_bond_atom_site_label_1
_geom_bond_atom_site_label_2
_geom_bond_site_symmetry_1
_geom_bond_site_symmetry_2
I1 Cu1 1_555 1_555
I2 Cu2 1_555 1_555
I3 Cu3 1_555 1_555
I4 Cu1 1_555 1_555
Cu1 N1 1_555 1_555
Cu2 I1 1_555 1_555
Cu3 I2 1_555 1_555
Cu4 I3 1_555 1_555
N1 N2 1_555 1_555
N2 Cu2 1_555 1_555
N3 N4 1_555 1_555
N4 C7 1_555 1_555
N5 H1 1_555 1_555
H2 N5 1_555 1_555
N6 Cu3 1_555 1_555
N7 Cu4 1_555 1_555
N8 N9 1_555 1_555
N9 C15 1_555 1_555
N10 H3 1_555 1_555
H4 N10 1_555 1_555
C1 N1 1_555 1_555
C2 N2 1_555 1_555
C3 C1 1_555 1_555
H5 C3 1_555 1_555
H6 C3 1_555 1_555
C4 C3 1_555 1_555
H7 C4 1_555 1_555
H8 C4 1_555 1_555
H9 C4 1_555 1_555
C5 C2 1_555 1_555
H10 C5 1_555 1_555
H11 C5 1_555 1_555
C6 C5 1_555 1_555
H12 C6 1_555 1_555
H13 C6 1_555 1_555
H14 C6 1_555 1_555
C7 N5 1_555 1_555
C8 C7 1_555 1_555
H15 C8 1_555 1_555
H16 C8 1_555 1_555
H17 C8 1_555 1_555
C9 N6 1_555 1_555
C10 N7 1_555 1_555
C11 C9 1_555 1_555
H18 C11 1_555 1_555
H19 C11 1_555 1_555
C12 C11 1_555 1_555
H20 C12 1_555 1_555
H21 C12 1_555 1_555
H22 C12 1_555 1_555
C13 C10 1_555 1_555
H23 C13 1_555 1_555
H24 C13 1_555 1_555
C14 C13 1_555 1_555
H25 C14 1_555 1_555
H26 C14 1_555 1_555
H27 C14 1_555 1_555
C15 N10 1_555 1_555
C16 C15 1_555 1_555
H28 C16 1_555 1_555
H29 C16 1_555 1_555
H30 C16 1_555 1_555
Cu1A N4 1_555 1_555
Cu3A N9 1_555 1_555
N4A Cu1 1_555 1_555
N9A Cu3 1_555 1_555
I4 Cu4 1_555 1_555
N3 C1 1_555 1_555
N3 C2 1_555 1_555
N6 N7 1_555 1_555
N8 C9 1_555 1_555
N8 C10 1_555 1_555

#END
