
#######################################################################
#
#                 Cambridge Crystallographic Data Centre
#                                CCDC 
#
#######################################################################
#
# If this CIF has been generated from an entry in the Cambridge 
# Structural Database, then it will include bibliographic, chemical, 
# crystal, experimental, refinement or atomic coordinate data resulting 
# from the CCDC's data processing and validation procedures.
#
#######################################################################

data_OGUMUA
_symmetry_cell_setting           monoclinic
_symmetry_space_group_name_H-M   'P 21/n'
_symmetry_Int_Tables_number      14
_space_group_name_Hall           '-P 2yn'
loop_
_symmetry_equiv_pos_site_id
_symmetry_equiv_pos_as_xyz
1 x,y,z
2 1/2-x,1/2+y,1/2-z
3 -x,-y,-z
4 1/2+x,1/2-y,1/2+z
_cell_length_a                   10.512(2)
_cell_length_b                   22.807(5)
_cell_length_c                   19.020(4)
_cell_angle_alpha                90
_cell_angle_beta                 94.36(3)
_cell_angle_gamma                90
_cell_volume                     4546.8
loop_
_atom_site_label
_atom_site_type_symbol
_atom_site_fract_x
_atom_site_fract_y
_atom_site_fract_z
W1 W -0.23668(3) -0.168413(15) 0.701662(18)
Cu1 Cu -0.22187(10) -0.12366(5) 0.57409(5)
Cu2 Cu -0.37749(10) -0.07211(5) 0.68178(6)
Cu3 Cu -0.09860(11) -0.07037(5) 0.70352(6)
Cu4 Cu 0.25774(10) 0.07105(5) 0.68395(6)
S1 S -0.4009(2) -0.15284(10) 0.61622(12)
S2 S -0.2478(2) -0.08942(10) 0.77698(12)
S3 S -0.0549(2) -0.15101(10) 0.64423(11)
O1 O -0.2252(7) -0.0126(3) 0.6155(4)
N1 N -0.2174(8) -0.1000(4) 0.4751(6)
N2 N -0.5885(8) 0.0189(3) 0.6834(4)
N3 N 0.1118(8) 0.0200(3) 0.7074(4)
N4 N 0.2912(9) 0.1401(5) 0.7404(5)
N5 N -0.1248(7) -0.2669(3) 0.8106(4)
N6 N -0.1028(7) -0.2100(3) 0.7884(3)
N7 N -0.3608(7) -0.2644(3) 0.7975(4)
N8 N -0.3863(7) -0.2103(3) 0.7653(4)
N9 N -0.2404(9) -0.3095(3) 0.7048(4)
N10 N -0.2292(7) -0.2632(3) 0.6597(4)
N11 N -0.2280(8) 0.0453(4) 0.5172(4)
C1 C -0.2239(8) -0.0874(4) 0.4176(4)
C2 C -0.5050(8) -0.0130(4) 0.6813(5)
C3 C 0.0293(8) -0.0120(4) 0.7114(5)
C4 C 0.3133(10) 0.1807(4) 0.7746(5)
C5 C 0.3449(16) 0.2302(6) 0.8155(6)
H1 H 0.3044 0.2649 0.7932
H2 H 0.4375 0.2361 0.8183
C6 C 0.3018(14) 0.2232(6) 0.8883(7)
C7 C 0.1863(18) 0.2411(8) 0.9062(8)
H3 H 0.1307 0.2588 0.8715
C8 C 0.1462(18) 0.2345(9) 0.9724(9)
H4 H 0.0652 0.2481 0.9825
C9 C 0.2243(19) 0.2080(8) 1.0238(9)
H5 H 0.1972 0.2043 1.0696
C10 C 0.3390(16) 0.1874(7) 1.0096(8)
H6 H 0.3922 0.1679 1.0441
C11 C 0.3773(13) 0.1963(7) 0.9391(9)
H7 H 0.4579 0.1829 0.9281
C12 C -0.0299(11) -0.3421(5) 0.8941(6)
H8 H -0.1135 -0.3502 0.9100
H9 H 0.0329 -0.3417 0.9342
H10 H -0.0079 -0.3722 0.8611
C13 C -0.0315(10) -0.2834(5) 0.8583(5)
C14 C 0.0519(10) -0.2370(5) 0.8682(5)
H11 H 0.1264 -0.2362 0.8988
C15 C 0.0055(8) -0.1915(4) 0.8245(4)
C16 C 0.0663(9) -0.1343(5) 0.8204(5)
H12 H 0.0989 -0.1296 0.7744
H13 H 0.1362 -0.1314 0.8566
H14 H 0.0043 -0.1037 0.8275
C17 C -0.4586(12) -0.3339(5) 0.8800(7)
H15 H -0.5375 -0.3365 0.9031
H16 H -0.3869 -0.3335 0.9153
H17 H -0.4514 -0.3676 0.8494
C18 C -0.4583(10) -0.2795(5) 0.8377(6)
C19 C -0.5477(9) -0.2365(5) 0.8291(5)
H18 H -0.6262 -0.2355 0.8496
C20 C -0.5027(9) -0.1943(5) 0.7847(5)
C21 C -0.5704(10) -0.1397(5) 0.7625(6)
H19 H -0.5151 -0.1063 0.7733
H20 H -0.6470 -0.1360 0.7875
H21 H -0.5934 -0.1411 0.7122
C22 C -0.2492(16) -0.4192(5) 0.7043(7)
H22 H -0.1854 -0.4215 0.7438
H23 H -0.2347 -0.4502 0.6709
H24 H -0.3334 -0.4237 0.7211
C23 C -0.2400(12) -0.3598(5) 0.6681(6)
C24 C -0.2255(12) -0.3466(4) 0.5999(5)
H25 H -0.2196 -0.3736 0.5629
C25 C -0.2208(9) -0.2863(4) 0.5945(5)
C26 C -0.2055(11) -0.2528(4) 0.5289(5)
H26 H -0.2789 -0.2276 0.5191
H27 H -0.1985 -0.2798 0.4900
H28 H -0.1288 -0.2290 0.5349
B1 B -0.2454(11) -0.3008(5) 0.7836(5)
H29 H -0.232(9) -0.340(4) 0.809(5)
C27 C -0.164(2) 0.0764(7) 0.4670(7)
H30 H -0.2079 0.1130 0.4561
H31 H -0.1618 0.0531 0.4244
H32 H -0.0772 0.0845 0.4858
C28 C -0.3634(13) 0.0342(6) 0.5045(8)
H33 H -0.3770 0.0027 0.4704
H34 H -0.4057 0.0694 0.4862
H35 H -0.3983 0.0230 0.5483
C29 C -0.1720(16) 0.0186(5) 0.5742(6)
H36 H -0.0838 0.0243 0.5834
Cu4_2 Cu -0.74226(10) 0.07105(5) 0.68395(6)
Cu4B Cu -0.25774(10) -0.07105(5) 0.31605(6)
N2_2 N 0.4115(8) 0.0189(3) 0.6834(4)
C1B C 0.2239(8) 0.0874(4) 0.5824(4)
N12 N 0.369(3) -0.1005(10) 0.9382(9)
C30 C 0.444(3) 0.0022(11) 0.8892(10)
H37 H 0.5266 0.0127 0.9122
H38 H 0.3829 0.0328 0.8972
H39 H 0.4517 -0.0022 0.8389
C31 C 0.403(3) -0.0508(14) 0.9170(11)
N13 N 0.197(4) 0.0231(16) 1.030(2)
C32 C 0.083(4) 0.0684(18) 0.916(2)
H40 H 0.1578 0.0721 0.8895
H41 H 0.0410 0.1061 0.9182
H42 H 0.0249 0.0400 0.8937
C33 C 0.126(5) 0.047(2) 0.995(3)
loop_
_geom_bond_atom_site_label_1
_geom_bond_atom_site_label_2
_geom_bond_site_symmetry_1
_geom_bond_site_symmetry_2
W1 S1 1_555 1_555
Cu1 S1 1_555 1_555
Cu2 S1 1_555 1_555
Cu3 S2 1_555 1_555
Cu4 N3 1_555 1_555
S2 W1 1_555 1_555
S3 W1 1_555 1_555
O1 Cu1 1_555 1_555
N1 Cu1 1_555 1_555
N2 C2 1_555 1_555
N3 C3 1_555 1_555
N4 Cu4 1_555 1_555
N5 N6 1_555 1_555
N6 W1 1_555 1_555
N7 N8 1_555 1_555
N8 W1 1_555 1_555
N9 N10 1_555 1_555
N10 W1 1_555 1_555
N11 C27 1_555 1_555
C1 N1 1_555 1_555
C2 Cu2 1_555 1_555
C3 Cu3 1_555 1_555
C4 N4 1_555 1_555
C5 C4 1_555 1_555
H1 C5 1_555 1_555
H2 C5 1_555 1_555
C6 C5 1_555 1_555
C7 C6 1_555 1_555
H3 C7 1_555 1_555
C8 C7 1_555 1_555
H4 C8 1_555 1_555
C9 C8 1_555 1_555
H5 C9 1_555 1_555
C10 C9 1_555 1_555
H6 C10 1_555 1_555
C11 C6 1_555 1_555
H7 C11 1_555 1_555
C12 H8 1_555 1_555
H9 C12 1_555 1_555
H10 C12 1_555 1_555
C13 N5 1_555 1_555
C14 C13 1_555 1_555
H11 C14 1_555 1_555
C15 N6 1_555 1_555
C16 C15 1_555 1_555
H12 C16 1_555 1_555
H13 C16 1_555 1_555
H14 C16 1_555 1_555
C17 H15 1_555 1_555
H16 C17 1_555 1_555
H17 C17 1_555 1_555
C18 N7 1_555 1_555
C19 C18 1_555 1_555
H18 C19 1_555 1_555
C20 N8 1_555 1_555
C21 C20 1_555 1_555
H19 C21 1_555 1_555
H20 C21 1_555 1_555
H21 C21 1_555 1_555
C22 H22 1_555 1_555
H23 C22 1_555 1_555
H24 C22 1_555 1_555
C23 N9 1_555 1_555
C24 C23 1_555 1_555
H25 C24 1_555 1_555
C25 N10 1_555 1_555
C26 C25 1_555 1_555
H26 C26 1_555 1_555
H27 C26 1_555 1_555
H28 C26 1_555 1_555
B1 N5 1_555 1_555
H29 B1 1_555 1_555
C27 H30 1_555 1_555
H31 C27 1_555 1_555
H32 C27 1_555 1_555
C28 N11 1_555 1_555
H33 C28 1_555 1_555
H34 C28 1_555 1_555
H35 C28 1_555 1_555
C29 O1 1_555 1_555
H36 C29 1_555 1_555
N12 C31 1_555 1_555
C30 H37 1_555 1_555
H38 C30 1_555 1_555
H39 C30 1_555 1_555
C31 C30 1_555 1_555
N13 C33 1_555 1_555
C32 H40 1_555 1_555
H41 C32 1_555 1_555
H42 C32 1_555 1_555
C33 C32 1_555 1_555
Cu4_2 N2 1_555 1_555
Cu4B C1 1_555 1_555
N2_2 Cu4 1_555 1_555
C1B Cu4 1_555 1_555
Cu1 S3 1_555 1_555
Cu2 S2 1_555 1_555
Cu2 O1 1_555 1_555
Cu3 S3 1_555 1_555
Cu3 O1 1_555 1_555
N7 B1 1_555 1_555
N9 B1 1_555 1_555
N11 C29 1_555 1_555
C10 C11 1_555 1_555
C12 C13 1_555 1_555
C14 C15 1_555 1_555
C17 C18 1_555 1_555
C19 C20 1_555 1_555
C22 C23 1_555 1_555
C24 C25 1_555 1_555

#END
