
#######################################################################
#
#                 Cambridge Crystallographic Data Centre
#                                CCDC 
#
#######################################################################
#
# If this CIF has been generated from an entry in the Cambridge 
# Structural Database, then it will include bibliographic, chemical, 
# crystal, experimental, refinement or atomic coordinate data resulting 
# from the CCDC's data processing and validation procedures.
#
#######################################################################

data_OGUMEJ
_symmetry_cell_setting           monoclinic
_symmetry_space_group_name_H-M   'P 21/c'
_symmetry_Int_Tables_number      14
_space_group_name_Hall           '-P 2ybc'
loop_
_symmetry_equiv_pos_site_id
_symmetry_equiv_pos_as_xyz
1 x,y,z
2 -x,1/2+y,1/2-z
3 -x,-y,-z
4 x,1/2-y,1/2+z
_cell_length_a                   14.3015(11)
_cell_length_b                   7.5361(6)
_cell_length_c                   18.7339(14)
_cell_angle_alpha                90
_cell_angle_beta                 107.6780(10)
_cell_angle_gamma                90
_cell_volume                     1923.75
loop_
_atom_site_label
_atom_site_type_symbol
_atom_site_fract_x
_atom_site_fract_y
_atom_site_fract_z
Ni1 Ni 0.27699(2) 0.91930(5) 0.200383(18)
S1 S 0.34958(5) 0.97593(9) 0.65328(3)
N1 N 0.22939(17) 0.9391(3) 0.08432(13)
N2 N 0.14379(17) 0.7898(3) 0.17761(13)
O1 O 0.31732(17) 0.8760(3) 0.31156(11)
O2 O 0.25800(19) 1.1082(4) 0.35708(12)
O3 O 0.35407(14) 0.8196(3) 0.69986(10)
O4 O 0.25323(14) 1.0565(3) 0.62619(11)
O5 O 0.42542(15) 1.1023(3) 0.69215(11)
O6 O 0.40706(15) 1.0403(3) 0.20662(13)
O7 O 0.20555(16) 1.1569(3) 0.21015(11)
C1 C 0.2725(2) 1.0192(4) 0.03926(17)
H1 H 0.3328 1.0743 0.0604
C2 C 0.2311(3) 1.0237(5) -0.03770(19)
H2 H 0.2631 1.0810 -0.0676
C3 C 0.1424(3) 0.9428(5) -0.06946(18)
H3 H 0.1140 0.9450 -0.1212
C4 C 0.0944(2) 0.8570(4) -0.02439(17)
C5 C -0.0002(3) 0.7748(5) -0.0514(2)
H4 H -0.0322 0.7720 -0.1026
C6 C -0.0439(2) 0.7014(5) -0.0041(2)
H5 H -0.1052 0.6486 -0.0235
C7 C 0.0020(2) 0.7030(4) 0.07480(19)
C8 C -0.0400(3) 0.6335(5) 0.1274(2)
H6 H -0.1016 0.5806 0.1113
C9 C 0.0090(3) 0.6431(6) 0.2015(2)
H7 H -0.0190 0.5975 0.2364
C10 C 0.1019(3) 0.7218(5) 0.2253(2)
H8 H 0.1352 0.7265 0.2763
C11 C 0.1416(2) 0.8605(4) 0.05329(15)
C12 C 0.0949(2) 0.7815(4) 0.10317(16)
C13 C 0.3067(2) 0.9695(4) 0.36411(15)
C14 C 0.3601(2) 0.9038(4) 0.44212(15)
C15 C 0.3324(2) 0.9627(4) 0.50307(15)
H9 H 0.2806 1.0421 0.4961
C16 C 0.3824(2) 0.9023(3) 0.57417(14)
C17 C 0.4609(2) 0.7870(4) 0.58575(16)
H10 H 0.4946 0.7485 0.6339
C18 C 0.4885(2) 0.7297(4) 0.52542(16)
H11 H 0.5414 0.6527 0.5328
C19 C 0.4375(2) 0.7865(4) 0.45335(16)
H12 H 0.4556 0.7453 0.4126
H13 H 0.4497(19) 0.994(3) 0.2428(13)
H14 H 0.412(2) 1.1515(13) 0.2087(16)
H15 H 0.225(2) 1.250(3) 0.1937(14)
H16 H 0.221(2) 1.165(4) 0.2577(6)
Ni1C Ni 0.27699(2) 0.58070(5) 0.700383(18)
O3C O 0.35407(14) 0.6804(3) 0.19986(10)
O8 O 0.3191(7) 0.4858(14) 0.3268(6)
loop_
_geom_bond_atom_site_label_1
_geom_bond_atom_site_label_2
_geom_bond_site_symmetry_1
_geom_bond_site_symmetry_2
Ni1 N1 1_555 1_555
S1 O3 1_555 1_555
N1 C1 1_555 1_555
N2 Ni1 1_555 1_555
O1 Ni1 1_555 1_555
O2 C13 1_555 1_555
O3 Ni1C 1_555 1_555
O4 S1 1_555 1_555
O5 S1 1_555 1_555
O6 Ni1 1_555 1_555
O7 Ni1 1_555 1_555
C1 H1 1_555 1_555
C2 C1 1_555 1_555
H2 C2 1_555 1_555
C3 C2 1_555 1_555
H3 C3 1_555 1_555
C4 C3 1_555 1_555
C5 C4 1_555 1_555
H4 C5 1_555 1_555
C6 C5 1_555 1_555
H5 C6 1_555 1_555
C7 C6 1_555 1_555
C8 C7 1_555 1_555
H6 C8 1_555 1_555
C9 C8 1_555 1_555
H7 C9 1_555 1_555
C10 N2 1_555 1_555
H8 C10 1_555 1_555
C11 N1 1_555 1_555
C12 N2 1_555 1_555
C13 O1 1_555 1_555
C14 C13 1_555 1_555
C15 C14 1_555 1_555
H9 C15 1_555 1_555
C16 S1 1_555 1_555
C17 C16 1_555 1_555
H10 C17 1_555 1_555
C18 C17 1_555 1_555
H11 C18 1_555 1_555
C19 C14 1_555 1_555
H12 C19 1_555 1_555
H13 O6 1_555 1_555
H14 O6 1_555 1_555
H15 O7 1_555 1_555
H16 O7 1_555 1_555
O3C Ni1 1_555 1_555
C4 C11 1_555 1_555
C7 C12 1_555 1_555
C9 C10 1_555 1_555
C11 C12 1_555 1_555
C15 C16 1_555 1_555
C18 C19 1_555 1_555

#END
