
#######################################################################
#
#                 Cambridge Crystallographic Data Centre
#                                CCDC 
#
#######################################################################
#
# If this CIF has been generated from an entry in the Cambridge 
# Structural Database, then it will include bibliographic, chemical, 
# crystal, experimental, refinement or atomic coordinate data resulting 
# from the CCDC's data processing and validation procedures.
#
#######################################################################

data_OGUMUZ
_symmetry_cell_setting           monoclinic
_symmetry_space_group_name_H-M   'P 21'
_symmetry_Int_Tables_number      4
_space_group_name_Hall           'P 2yb'
loop_
_symmetry_equiv_pos_site_id
_symmetry_equiv_pos_as_xyz
1 x,y,z
2 -x,1/2+y,-z
_cell_length_a                   7.989(4)
_cell_length_b                   15.006(7)
_cell_length_c                   8.168(4)
_cell_angle_alpha                90
_cell_angle_beta                 109.145(8)
_cell_angle_gamma                90
_cell_volume                     925.046
loop_
_atom_site_label
_atom_site_type_symbol
_atom_site_fract_x
_atom_site_fract_y
_atom_site_fract_z
Ni1 Ni 0.64677(4) 0.983456(19) 0.61501(3)
S1 S 1.26568(7) 1.06542(4) 1.62929(7)
N1 N 0.4802(3) 0.93685(13) 0.3815(2)
N2 N 0.6819(3) 1.07973(13) 0.4502(3)
O1 O 0.8204(2) 1.03632(12) 0.8306(2)
O2 O 0.7999(3) 0.94231(13) 1.0327(2)
O3 O 1.2045(2) 0.97563(15) 1.6452(2)
O4 O 1.2083(3) 1.13072(13) 1.7293(2)
O5 O 1.4573(2) 1.06897(12) 1.6682(2)
O6 O 0.5619(3) 0.88599(12) 0.7527(2)
O7 O 0.8570(2) 0.90502(13) 0.6008(2)
C1 C 0.3842(4) 0.86252(19) 0.3562(4)
H1 H 0.3964 0.8252 0.4503
C2 C 0.2683(4) 0.8386(2) 0.1977(4)
H2 H 0.2033 0.7862 0.1844
C3 C 0.2500(4) 0.8942(2) 0.0582(4)
H3 H 0.1707 0.8802 -0.0505
C4 C 0.3502(3) 0.9703(2) 0.0818(3)
H4 H 0.3401 1.0083 -0.0110
C5 C 0.4667(3) 0.9902(2) 0.2452(3)
C6 C 0.5790(3) 1.07034(16) 0.2839(3)
C7 C 0.5799(4) 1.13390(19) 0.1608(4)
H5 H 0.5091 1.1267 0.0458
C8 C 0.6869(4) 1.2076(2) 0.2109(4)
H6 H 0.6880 1.2510 0.1300
C9 C 0.7913(4) 1.21689(18) 0.3795(4)
H7 H 0.8643 1.2663 0.4153
C10 C 0.7859(4) 1.15087(16) 0.4964(3)
H8 H 0.8577 1.1566 0.6114
C11 C 0.8596(3) 1.01054(16) 0.9846(3)
C12 C 0.9888(3) 1.06844(16) 1.1176(3)
C13 C 1.0539(3) 1.04254(15) 1.2909(3)
H9 H 1.0170 0.9893 1.3264
C14 C 1.1732(3) 1.09657(16) 1.4088(3)
C15 C 1.2271(4) 1.17731(17) 1.3584(3)
H10 H 1.3058 1.2139 1.4400
C16 C 1.1632(4) 1.20260(18) 1.1875(3)
H11 H 1.1982 1.2564 1.1526
C17 C 1.0467(4) 1.14765(17) 1.0679(3)
H12 H 1.0062 1.1642 0.9518
H13 H 0.838(3) 0.8788(18) 0.505(2)
H14 H 0.636(3) 0.892(2) 0.8549(19)
H15 H 0.4633(19) 0.906(2) 0.753(3)
H18 H 0.955(2) 0.9322(18) 0.625(3)
Ni1_2 Ni 1.64677(4) 0.983456(19) 1.61501(3)
O5_2 O 0.4573(2) 1.06897(12) 0.6682(2)
O8 O 0.8386(5) 0.82016(16) 0.3034(3)
H16 H 0.790(5) 0.7698(14) 0.270(5)
H17 H 0.816(6) 0.854(2) 0.216(3)
loop_
_geom_bond_atom_site_label_1
_geom_bond_atom_site_label_2
_geom_bond_site_symmetry_1
_geom_bond_site_symmetry_2
Ni1 N1 1_555 1_555
S1 O3 1_555 1_555
N1 C1 1_555 1_555
N2 Ni1 1_555 1_555
O1 Ni1 1_555 1_555
O2 C11 1_555 1_555
O4 S1 1_555 1_555
O5 S1 1_555 1_555
O6 Ni1 1_555 1_555
O7 Ni1 1_555 1_555
O8 H16 1_555 1_555
C1 H1 1_555 1_555
C2 C1 1_555 1_555
H2 C2 1_555 1_555
C3 C2 1_555 1_555
H3 C3 1_555 1_555
C4 C3 1_555 1_555
H4 C4 1_555 1_555
C5 N1 1_555 1_555
C6 N2 1_555 1_555
C7 C6 1_555 1_555
H5 C7 1_555 1_555
C8 C7 1_555 1_555
H6 C8 1_555 1_555
C9 C8 1_555 1_555
H7 C9 1_555 1_555
C10 N2 1_555 1_555
H8 C10 1_555 1_555
C11 O1 1_555 1_555
C12 C11 1_555 1_555
C13 C12 1_555 1_555
H9 C13 1_555 1_555
C14 S1 1_555 1_555
C15 C14 1_555 1_555
H10 C15 1_555 1_555
C16 C15 1_555 1_555
H11 C16 1_555 1_555
C17 C12 1_555 1_555
H12 C17 1_555 1_555
H13 O7 1_555 1_555
H14 O6 1_555 1_555
H15 O6 1_555 1_555
H17 O8 1_555 1_555
H18 O7 1_555 1_555
Ni1_2 O5 1_555 1_555
O5_2 Ni1 1_555 1_555
C4 C5 1_555 1_555
C5 C6 1_555 1_555
C9 C10 1_555 1_555
C13 C14 1_555 1_555
C16 C17 1_555 1_555

#END
