
#######################################################################
#
#                 Cambridge Crystallographic Data Centre
#                                CCDC 
#
#######################################################################
#
# If this CIF has been generated from an entry in the Cambridge 
# Structural Database, then it will include bibliographic, chemical, 
# crystal, experimental, refinement or atomic coordinate data resulting 
# from the CCDC's data processing and validation procedures.
#
#######################################################################

data_OGUPOW
_symmetry_cell_setting           monoclinic
_symmetry_space_group_name_H-M   'C 2/c'
_symmetry_Int_Tables_number      15
_space_group_name_Hall           '-C 2yn'
loop_
_symmetry_equiv_pos_site_id
_symmetry_equiv_pos_as_xyz
1 x,y,z
2 -x,y,1/2-z
3 1/2+x,1/2+y,z
4 1/2-x,1/2+y,1/2-z
5 -x,-y,-z
6 x,-y,1/2+z
7 1/2-x,1/2-y,-z
8 1/2+x,1/2-y,1/2+z
_cell_length_a                   35.715(2)
_cell_length_b                   11.1336(7)
_cell_length_c                   22.1455(15)
_cell_angle_alpha                90
_cell_angle_beta                 93.091(2)
_cell_angle_gamma                90
_cell_volume                     8793.05
loop_
_atom_site_label
_atom_site_type_symbol
_atom_site_fract_x
_atom_site_fract_y
_atom_site_fract_z
Co1 Co 0.67313(3) 0.92602(11) 0.75966(6)
Co2 Co 0.59787(3) 0.78359(11) 0.82180(6)
Co3 Co 0.37651(3) 1.07143(11) 0.63689(6)
Co4 Co 0.63957(4) 1.37964(11) 0.43568(7)
Co5 Co 0.57161(3) 1.25041(11) 0.49432(6)
O1 O 0.62406(17) 0.9706(6) 0.7098(3)
O2 O 0.58331(19) 0.8274(6) 0.7329(3)
O3 O 0.44788(17) 0.8910(6) 0.6592(3)
O4 O 0.43086(17) 1.0846(6) 0.6640(3)
O5 O 0.67969(19) 0.7439(6) 0.7561(4)
O6 O 0.63398(19) 0.6458(5) 0.8004(3)
O7 O 0.63547(17) 0.1975(6) 0.7992(3)
O8 O 0.68497(17) 0.1045(5) 0.7636(3)
O9 O 0.43947(18) 0.9284(6) 0.5033(3)
O10 O 0.39257(18) 1.0071(6) 0.5526(3)
O11 O 0.38889(19) 1.4665(6) 0.5628(3)
O12 O 0.42765(19) 1.5636(6) 0.5043(4)
O13 O 0.62143(18) 1.2127(6) 0.5464(3)
O14 O 0.66294(19) 1.3470(6) 0.5184(3)
O15 O 0.80108(19) 1.2778(6) 0.5899(4)
O16 O 0.81206(17) 1.0807(6) 0.5970(3)
O17 O 0.64321(16) 0.9130(5) 0.8364(3)
H1 H 0.6606 0.8816 0.8697
O18 O 0.60478(16) 0.7515(5) 0.9157(3)
H2 H 0.6216 0.8207 0.9270
O19 O 0.5581(2) 0.6391(7) 0.8157(4)
H3 H 0.5711 0.5783 0.8068
H4 H 0.5395 0.6485 0.7909
N1 N 0.5494(2) 1.2768(7) 0.5841(4)
H5 H 0.5665 1.3231 0.6062
H6 H 0.5279 1.3219 0.5787
N2 N 0.7688(2) 0.4276(7) 0.6867(4)
H7 H 0.7687 0.4947 0.6624
H8 H 0.7687 0.3624 0.6612
N3 N 0.5204(2) 1.2638(7) 0.4359(4)
H9 H 0.5211 1.3358 0.4156
H10 H 0.5210 1.2038 0.4074
N4 N 0.6952(2) 0.9041(7) 0.6695(4)
H11 H 0.6780 0.8597 0.6467
H12 H 0.7166 0.8582 0.6741
N5 N 0.3294(2) 1.1363(8) 0.5853(4)
C1 C 0.56060(13) 0.9987(5) 0.6770(3)
C2 C 0.52341(15) 0.9646(4) 0.6813(3)
H13 H 0.5175 0.8926 0.7018
C3 C 0.49481(11) 1.0357(5) 0.6556(3)
C4 C 0.50341(13) 1.1410(5) 0.6256(3)
H14 H 0.4839 1.1897 0.6080
C5 C 0.54061(15) 1.1752(4) 0.6213(3)
C6 C 0.56921(11) 1.1040(5) 0.6470(3)
H15 H 0.5946 1.1273 0.6440
C7 C 0.5916(3) 0.9282(9) 0.7089(4)
C8 C 0.4549(3) 1.0020(10) 0.6612(4)
C9 C 0.68241(16) 0.5325(4) 0.7586(3)
C10 C 0.66600(13) 0.4237(5) 0.7730(3)
H16 H 0.6431 0.4229 0.7930
C11 C 0.68310(15) 0.3162(4) 0.7584(3)
C12 C 0.71660(15) 0.3175(4) 0.7292(3)
H17 H 0.7283 0.2440 0.7192
C13 C 0.73301(13) 0.4262(5) 0.7147(3)
C14 C 0.71591(16) 0.5337(4) 0.7294(3)
H18 H 0.7271 0.6080 0.7195
C15 C 0.6637(3) 0.6513(8) 0.7737(5)
C16 C 0.6668(3) 0.1978(9) 0.7749(5)
C17 C 0.43702(16) 1.1379(4) 0.5076(3)
C18 C 0.41947(14) 1.2424(5) 0.5255(3)
H19 H 0.3970 1.2377 0.5466
C19 C 0.43474(16) 1.3538(4) 0.5127(3)
C20 C 0.46757(16) 1.3607(4) 0.4819(3)
H20 H 0.4780 1.4368 0.4732
C21 C 0.48513(14) 1.2562(5) 0.4640(3)
C22 C 0.46985(16) 1.1448(4) 0.4768(3)
H21 H 0.4819 1.0734 0.4645
C23 C 0.4214(3) 1.0162(8) 0.5221(4)
C24 C 0.4158(3) 1.4690(8) 0.5281(5)
C25 C 0.68457(14) 1.1812(5) 0.5785(3)
C26 C 0.72186(16) 1.2148(5) 0.5747(3)
H22 H 0.7280 1.2864 0.5540
C27 C 0.75022(12) 1.1436(5) 0.6011(3)
C28 C 0.74130(14) 1.0389(5) 0.6314(3)
H23 H 0.7607 0.9903 0.6494
C29 C 0.70402(16) 1.0054(4) 0.6352(3)
C30 C 0.67565(12) 1.0765(5) 0.6088(3)
H24 H 0.6502 1.0536 0.6114
C31 C 0.6538(3) 1.2524(9) 0.5454(5)
C32 C 0.7903(3) 1.1711(9) 0.5944(5)
C33 C 0.3067(3) 1.0644(10) 0.5527(6)
H25 H 0.3120 0.9807 0.5527
C34 C 0.2752(3) 1.1056(10) 0.5181(6)
H26 H 0.2597 1.0508 0.4954
C35 C 0.2671(3) 1.2265(9) 0.5174(5)
C36 C 0.2909(3) 1.3017(9) 0.5498(5)
H27 H 0.2865 1.3858 0.5491
C37 C 0.3207(3) 1.2563(9) 0.5830(6)
H28 H 0.3364 1.3105 0.6057
Co1_2 Co 0.67313(3) 1.92602(11) 0.75966(6)
Co1_3 Co 0.67313(3) -0.07398(11) 0.75966(6)
Co1C Co 0.82687(3) 0.42602(11) 0.74034(6)
Co1C_2 Co 0.82687(3) 1.42602(11) 0.74034(6)
Co1A Co 0.32687(3) 0.92602(11) 0.74034(6)
Co1F Co 0.82687(3) 1.57398(11) 0.24034(6)
Co2_2 Co 0.59787(3) 1.78359(11) 0.82180(6)
Co2A Co 0.40213(3) 0.78359(11) 0.67820(6)
Co2E Co 0.59787(3) 1.21641(11) 0.32180(6)
Co3A Co 0.62349(3) 0.07143(11) 0.86311(6)
Co3A_2 Co 0.62349(3) 1.07143(11) 0.86311(6)
Co3F Co 0.12349(3) 1.42857(11) 0.36311(6)
Co3D Co 0.62349(3) 1.92857(11) 0.36311(6)
Co4F Co 0.86043(4) 1.12036(11) 0.56432(7)
Co4D Co 0.36043(4) 1.62036(11) 0.56432(7)
Co4E Co 0.63957(4) 0.62036(11) 0.93568(7)
Co5D Co 0.42839(3) 0.74959(11) 0.50568(6)
Co5D_2 Co 0.42839(3) 1.74959(11) 0.50568(6)
Co5E Co 0.57161(3) 0.74959(11) 0.99432(6)
Co5A Co 0.42839(3) 1.25041(11) 1.00568(6)
Co5_2 Co 0.57161(3) 2.25041(11) 0.49432(6)
Co5F Co 0.92839(3) 1.24959(11) 0.50568(6)
O1A O 0.37594(17) 0.9706(6) 0.7902(3)
O1_2 O 0.62406(17) 1.9706(6) 0.7098(3)
O2A O 0.41669(19) 0.8274(6) 0.7671(3)
O2_2 O 0.58331(19) 1.8274(6) 0.7329(3)
O3A O 0.55212(17) 0.8910(6) 0.8408(3)
O3A_2 O 0.55212(17) 1.8910(6) 0.8408(3)
O4A O 0.56914(17) 1.0846(6) 0.8360(3)
O4A_2 O 0.56914(17) 0.0846(6) 0.8360(3)
O5_2 O 0.67969(19) 1.7439(6) 0.7561(4)
O6_2 O 0.63398(19) 1.6458(5) 0.8004(3)
O7_2 O 0.63547(17) 1.1975(6) 0.7992(3)
O7A O 0.36453(17) 1.1975(6) 0.7008(3)
O8_2 O 0.68497(17) 1.1045(5) 0.7636(3)
O8_3 O 0.68497(17) 2.1045(5) 0.7636(3)
O9D O 0.56053(18) 2.0716(6) 0.4967(3)
O9D_2 O 0.56053(18) 1.0716(6) 0.4967(3)
O10D O 0.60743(18) 1.9929(6) 0.4474(3)
O10A O 0.60743(18) 0.0071(6) 0.9474(3)
O11D O 0.61111(19) 1.5335(6) 0.4372(3)
O11B O 0.88889(19) 0.9665(6) 0.5628(3)
O12D O 0.57235(19) 1.4364(6) 0.4957(4)
O12_2 O 0.42765(19) 0.5636(6) 0.5043(4)
O13F O 0.87857(18) 1.2873(6) 0.4536(3)
O13D O 0.37857(18) 0.7873(6) 0.4536(3)
O14F O 0.83706(19) 1.1530(6) 0.4816(3)
O15F O 0.69892(19) 1.2222(6) 0.4101(4)
O16F O 0.68794(17) 1.4193(6) 0.4030(3)
O17A O 0.35679(16) 0.9130(5) 0.6636(3)
O17_2 O 0.64321(16) 1.9130(5) 0.8364(3)
O17_3 O 0.64321(16) -0.0870(5) 0.8364(3)
H1A H 0.3394 0.8816 0.6303
H1_2 H 0.6606 1.8816 0.8697
H1_3 H 0.6606 -0.1184 0.8697
O18E O 0.60478(16) 1.2485(5) 0.4157(3)
O18_2 O 0.60478(16) 1.7515(5) 0.9157(3)
O18C O 0.89522(16) 1.2515(5) 0.5843(3)
O18A O 0.39522(16) 0.7515(5) 0.5843(3)
H2E H 0.6216 1.1793 0.4270
H2_2 H 0.6216 1.8207 0.9270
H2C H 0.8784 1.3207 0.5730
H2A H 0.3784 0.8207 0.5730
O19_2 O 0.5581(2) 1.6391(7) 0.8157(4)
H3_2 H 0.5711 1.5783 0.8068
H4_2 H 0.5395 1.6485 0.7909
N1A N 0.4506(2) 1.2768(7) 0.9159(4)
N1D N 0.4506(2) 0.7232(7) 0.4159(4)
H5A H 0.4335 1.3231 0.8938
H5D H 0.4335 0.6769 0.3938
H6A H 0.4721 1.3219 0.9213
H6D H 0.4721 0.6781 0.4213
N2_2 N 0.7688(2) 1.4276(7) 0.6867(4)
N2C N 0.7312(2) 0.9276(7) 0.8133(4)
N2C_2 N 0.7312(2) 1.9276(7) 0.8133(4)
H7_2 H 0.7687 1.4947 0.6624
H7C H 0.7313 0.9947 0.8376
H7C_2 H 0.7313 1.9947 0.8376
H8_2 H 0.7687 1.3624 0.6612
H8C H 0.7313 0.8624 0.8388
H8C_2 H 0.7313 1.8624 0.8388
N3D N 0.4796(2) 1.7362(7) 0.5641(4)
N3D_2 N 0.4796(2) 0.7362(7) 0.5641(4)
H9D H 0.4789 1.6642 0.5844
H9D_2 H 0.4789 0.6642 0.5844
H10D H 0.4790 1.7962 0.5926
H10D_2 H 0.4790 0.7962 0.5926
N4F N 0.8048(2) 1.5959(7) 0.3305(4)
N4_2 N 0.6952(2) 1.9041(7) 0.6695(4)
H11F H 0.8220 1.6403 0.3533
H11_2 H 0.6780 1.8597 0.6467
H12F H 0.7834 1.6418 0.3259
H12_2 H 0.7166 1.8582 0.6741
N5F N 0.1706(2) 1.3637(8) 0.4147(4)
N5A N 0.6706(2) 0.1363(8) 0.9147(4)
C1A C 0.43940(13) 0.9987(5) 0.8230(3)
C2A C 0.47659(15) 0.9646(4) 0.8187(3)
H13A H 0.4825 0.8926 0.7982
C3A C 0.50519(11) 1.0357(5) 0.8444(3)
C4A C 0.49659(13) 1.1410(5) 0.8744(3)
H14A H 0.5161 1.1897 0.8920
C5A C 0.45939(15) 1.1752(4) 0.8787(3)
C6A C 0.43079(11) 1.1040(5) 0.8530(3)
H15A H 0.4054 1.1273 0.8560
C7A C 0.4084(3) 0.9282(9) 0.7911(4)
C8A C 0.5451(3) 1.0020(10) 0.8388(4)
C9_2 C 0.68241(16) 1.5325(4) 0.7586(3)
C10_2 C 0.66600(13) 1.4237(5) 0.7730(3)
H16_2 H 0.6431 1.4229 0.7930
C11_2 C 0.68310(15) 1.3162(4) 0.7584(3)
C12_2 C 0.71660(15) 1.3175(4) 0.7292(3)
H17_2 H 0.7283 1.2440 0.7192
C13_2 C 0.73301(13) 1.4262(5) 0.7147(3)
C14_2 C 0.71591(16) 1.5337(4) 0.7294(3)
H18_2 H 0.7271 1.6080 0.7195
C15_2 C 0.6637(3) 1.6513(8) 0.7737(5)
C16_2 C 0.6668(3) 1.1978(9) 0.7749(5)
C17D C 0.56298(16) 1.8621(4) 0.4924(3)
C18D C 0.58053(14) 1.7576(5) 0.4745(3)
H19D H 0.6030 1.7623 0.4534
C19D C 0.56526(16) 1.6462(4) 0.4873(3)
C20D C 0.53243(16) 1.6393(4) 0.5181(3)
H20D H 0.5220 1.5632 0.5268
C21D C 0.51487(14) 1.7438(5) 0.5360(3)
C22D C 0.53015(16) 1.8552(4) 0.5232(3)
H21D H 0.5181 1.9266 0.5355
C23D C 0.5786(3) 1.9838(8) 0.4779(4)
C24D C 0.5842(3) 1.5310(8) 0.4719(5)
C25F C 0.81543(14) 1.3188(5) 0.4215(3)
C26F C 0.77814(16) 1.2852(5) 0.4253(3)
H22F H 0.7720 1.2136 0.4460
C27F C 0.74978(12) 1.3564(5) 0.3989(3)
C28F C 0.75870(14) 1.4611(5) 0.3686(3)
H23F H 0.7393 1.5097 0.3506
C29F C 0.79598(16) 1.4946(4) 0.3648(3)
C30F C 0.82435(12) 1.4235(5) 0.3912(3)
H24F H 0.8498 1.4464 0.3886
C31F C 0.8462(3) 1.2476(9) 0.4546(5)
C32F C 0.7097(3) 1.3289(9) 0.4056(5)
C33F C 0.1933(3) 1.4356(10) 0.4473(6)
H25F H 0.1880 1.5193 0.4473
C34F C 0.2248(3) 1.3944(10) 0.4819(6)
H26F H 0.2403 1.4492 0.5046
C35F C 0.2329(3) 1.2735(9) 0.4826(5)
C36F C 0.2091(3) 1.1983(9) 0.4502(5)
H27F H 0.2135 1.1142 0.4509
C37F C 0.1793(3) 1.2437(9) 0.4170(6)
H28F H 0.1636 1.1895 0.3943
O20 O 0.4949(5) 0.4712(18) 0.6308(10)
O21 O 0.5274(7) 0.656(2) 0.7007(13)
O22 O 0.5622(7) 0.337(2) 0.7879(12)
loop_
_geom_bond_atom_site_label_1
_geom_bond_atom_site_label_2
_geom_bond_site_symmetry_1
_geom_bond_site_symmetry_2
Co1 O1 1_555 1_555
Co2 O2 1_555 1_555
Co3 O4 1_555 1_555
Co4 O14 1_555 1_555
Co5 O13 1_555 1_555
O1 C7 1_555 1_555
O2 C7 1_555 1_555
O3 C8 1_555 1_555
O4 C8 1_555 1_555
O5 Co1 1_555 1_555
O6 Co2 1_555 1_555
O7 C16 1_555 1_555
O8 C16 1_555 1_555
O9 C23 1_555 1_555
O10 Co3 1_555 1_555
O11 C24 1_555 1_555
O12 C24 1_555 1_555
O13 C31 1_555 1_555
O14 C31 1_555 1_555
O15 C32 1_555 1_555
O16 C32 1_555 1_555
O17 Co1 1_555 1_555
H1 O17 1_555 1_555
O18 Co2 1_555 1_555
H2 O18 1_555 1_555
O19 Co2 1_555 1_555
H3 O19 1_555 1_555
H4 O19 1_555 1_555
N1 Co5 1_555 1_555
H5 N1 1_555 1_555
H6 N1 1_555 1_555
N2 H7 1_555 1_555
H8 N2 1_555 1_555
N3 Co5 1_555 1_555
H9 N3 1_555 1_555
H10 N3 1_555 1_555
N4 Co1 1_555 1_555
H11 N4 1_555 1_555
H12 N4 1_555 1_555
N5 Co3 1_555 1_555
C1 C2 1_555 1_555
C2 H13 1_555 1_555
C3 C2 1_555 1_555
C4 C3 1_555 1_555
H14 C4 1_555 1_555
C5 N1 1_555 1_555
C6 C1 1_555 1_555
H15 C6 1_555 1_555
C7 C1 1_555 1_555
C8 C3 1_555 1_555
C9 C10 1_555 1_555
C10 H16 1_555 1_555
C11 C10 1_555 1_555
C12 C11 1_555 1_555
H17 C12 1_555 1_555
C13 N2 1_555 1_555
C14 C9 1_555 1_555
H18 C14 1_555 1_555
C15 O5 1_555 1_555
C16 C11 1_555 1_555
C17 C18 1_555 1_555
C18 H19 1_555 1_555
C19 C18 1_555 1_555
C20 C19 1_555 1_555
H20 C20 1_555 1_555
C21 N3 1_555 1_555
C22 C17 1_555 1_555
H21 C22 1_555 1_555
C23 O10 1_555 1_555
C24 C19 1_555 1_555
C25 C26 1_555 1_555
C26 H22 1_555 1_555
C27 C26 1_555 1_555
C28 C27 1_555 1_555
H23 C28 1_555 1_555
C29 N4 1_555 1_555
C30 C25 1_555 1_555
H24 C30 1_555 1_555
C31 C25 1_555 1_555
C32 C27 1_555 1_555
C33 N5 1_555 1_555
H25 C33 1_555 1_555
C34 C33 1_555 1_555
H26 C34 1_555 1_555
C35 C34 1_555 1_555
C36 C35 1_555 1_555
H27 C36 1_555 1_555
C37 N5 1_555 1_555
H28 C37 1_555 1_555
Co1_2 O1_2 1_555 1_555
Co1_3 O8 1_555 1_555
Co1C N2 1_555 1_555
Co1C_2 N2_2 1_555 1_555
Co1A O1A 1_555 1_555
Co1F N4F 1_555 1_555
Co2_2 O2_2 1_555 1_555
Co2A O3 1_555 1_555
Co2E O18E 1_555 1_555
Co3A O7 1_555 1_555
Co3A_2 O17 1_555 1_555
Co3F N5F 1_555 1_555
Co3D O10D 1_555 1_555
Co4F O16 1_555 1_555
Co4D O11 1_555 1_555
Co4E O18 1_555 1_555
Co5D O9 1_555 1_555
Co5D_2 O12 1_555 1_555
Co5E O18 1_555 1_555
Co5A N1A 1_555 1_555
Co5_2 O9D 1_555 1_555
Co5F O13F 1_555 1_555
O1A C7A 1_555 1_555
O2A Co2A 1_555 1_555
O3A Co2 1_555 1_555
O3A_2 Co2_2 1_555 1_555
O4A Co3A_2 1_555 1_555
O4A_2 Co3A 1_555 1_555
O5_2 Co1_2 1_555 1_555
O6_2 Co2_2 1_555 1_555
O7_2 Co3A_2 1_555 1_555
O7A Co3 1_555 1_555
O8_2 Co1 1_555 1_555
O8_3 Co1_2 1_555 1_555
O9D C23D 1_555 1_555
O9D_2 Co5 1_555 1_555
O10D C23D 1_555 1_555
O10A Co3A 1_555 1_555
O11D Co4 1_555 1_555
O11B Co4F 1_555 1_555
O12D Co5 1_555 1_555
O12_2 Co5D 1_555 1_555
O13F C31F 1_555 1_555
O13D Co5D 1_555 1_555
O14F Co4F 1_555 1_555
O15F C32F 1_555 1_555
O16F Co4 1_555 1_555
O17A Co3 1_555 1_555
O17_2 Co1_2 1_555 1_555
O17_3 Co1_3 1_555 1_555
H1A O17A 1_555 1_555
H1_2 O17_2 1_555 1_555
H1_3 O17_3 1_555 1_555
O18E Co4 1_555 1_555
O18_2 Co2_2 1_555 1_555
O18C Co4F 1_555 1_555
O18A Co2A 1_555 1_555
H2E O18E 1_555 1_555
H2_2 O18_2 1_555 1_555
H2C O18C 1_555 1_555
H2A O18A 1_555 1_555
O19_2 Co2_2 1_555 1_555
H3_2 O19_2 1_555 1_555
H4_2 O19_2 1_555 1_555
N1A H5A 1_555 1_555
N1D Co5D 1_555 1_555
H5D N1D 1_555 1_555
H6A N1A 1_555 1_555
H6D N1D 1_555 1_555
N2_2 H7_2 1_555 1_555
N2C Co1 1_555 1_555
N2C_2 Co1_2 1_555 1_555
H7C N2C 1_555 1_555
H7C_2 N2C_2 1_555 1_555
H8_2 N2_2 1_555 1_555
H8C N2C 1_555 1_555
H8C_2 N2C_2 1_555 1_555
N3D Co5D_2 1_555 1_555
N3D_2 Co5D 1_555 1_555
H9D N3D 1_555 1_555
H9D_2 N3D_2 1_555 1_555
H10D N3D 1_555 1_555
H10D_2 N3D_2 1_555 1_555
N4F H11F 1_555 1_555
N4_2 Co1_2 1_555 1_555
H11_2 N4_2 1_555 1_555
H12F N4F 1_555 1_555
H12_2 N4_2 1_555 1_555
N5F C33F 1_555 1_555
N5A Co3A 1_555 1_555
C1A C2A 1_555 1_555
C2A H13A 1_555 1_555
C3A C2A 1_555 1_555
C4A C3A 1_555 1_555
H14A C4A 1_555 1_555
C5A N1A 1_555 1_555
C6A C1A 1_555 1_555
H15A C6A 1_555 1_555
C7A O2A 1_555 1_555
C8A O3A 1_555 1_555
C9_2 C10_2 1_555 1_555
C10_2 H16_2 1_555 1_555
C11_2 C10_2 1_555 1_555
C12_2 C11_2 1_555 1_555
H17_2 C12_2 1_555 1_555
C13_2 N2_2 1_555 1_555
C14_2 C9_2 1_555 1_555
H18_2 C14_2 1_555 1_555
C15_2 O5_2 1_555 1_555
C16_2 O7_2 1_555 1_555
C17D C18D 1_555 1_555
C18D H19D 1_555 1_555
C19D C18D 1_555 1_555
C20D C19D 1_555 1_555
H20D C20D 1_555 1_555
C21D N3D 1_555 1_555
C22D C17D 1_555 1_555
H21D C22D 1_555 1_555
C23D C17D 1_555 1_555
C24D O11D 1_555 1_555
C25F C26F 1_555 1_555
C26F H22F 1_555 1_555
C27F C26F 1_555 1_555
C28F C27F 1_555 1_555
H23F C28F 1_555 1_555
C29F N4F 1_555 1_555
C30F C25F 1_555 1_555
H24F C30F 1_555 1_555
C31F O14F 1_555 1_555
C32F O16F 1_555 1_555
C33F H25F 1_555 1_555
C34F C33F 1_555 1_555
H26F C34F 1_555 1_555
C35F C35 1_555 1_555
C36F C35F 1_555 1_555
H27F C36F 1_555 1_555
C37F N5F 1_555 1_555
H28F C37F 1_555 1_555
Co2 O17 1_555 1_555
Co5 O18E 1_555 1_555
O6 C15 1_555 1_555
C4 C5 1_555 1_555
C5 C6 1_555 1_555
C9 C15 1_555 1_555
C12 C13 1_555 1_555
C13 C14 1_555 1_555
C17 C23 1_555 1_555
C20 C21 1_555 1_555
C21 C22 1_555 1_555
C28 C29 1_555 1_555
C29 C30 1_555 1_555
C36 C37 1_555 1_555
Co1A O17A 1_555 1_555
Co2_2 O17_2 1_555 1_555
Co2A O17A 1_555 1_555
Co3A O17_3 1_555 1_555
Co5D O18A 1_555 1_555
Co5F O18C 1_555 1_555
O4A C8A 1_555 1_555
O6_2 C15_2 1_555 1_555
O8_2 C16_2 1_555 1_555
O12D C24D 1_555 1_555
C1A C7A 1_555 1_555
C3A C8A 1_555 1_555
C4A C5A 1_555 1_555
C5A C6A 1_555 1_555
C9_2 C15_2 1_555 1_555
C11_2 C16_2 1_555 1_555
C12_2 C13_2 1_555 1_555
C13_2 C14_2 1_555 1_555
C19D C24D 1_555 1_555
C20D C21D 1_555 1_555
C21D C22D 1_555 1_555
C25F C31F 1_555 1_555
C27F C32F 1_555 1_555
C28F C29F 1_555 1_555
C29F C30F 1_555 1_555
C34F C35F 1_555 1_555
C36F C37F 1_555 1_555

#END
