
#######################################################################
#
#                 Cambridge Crystallographic Data Centre
#                                CCDC 
#
#######################################################################
#
# If this CIF has been generated from an entry in the Cambridge 
# Structural Database, then it will include bibliographic, chemical, 
# crystal, experimental, refinement or atomic coordinate data resulting 
# from the CCDC's data processing and validation procedures.
#
#######################################################################

data_OGUQOW
_symmetry_cell_setting           monoclinic
_symmetry_space_group_name_H-M   'P 21/c'
_symmetry_Int_Tables_number      14
_space_group_name_Hall           '-P 2ybc'
loop_
_symmetry_equiv_pos_site_id
_symmetry_equiv_pos_as_xyz
1 x,y,z
2 -x,1/2+y,1/2-z
3 -x,-y,-z
4 x,1/2-y,1/2+z
_cell_length_a                   9.6929(7)
_cell_length_b                   7.3710(5)
_cell_length_c                   24.165(1)
_cell_angle_alpha                90
_cell_angle_beta                 93.081(1)
_cell_angle_gamma                90
_cell_volume                     1724.01
loop_
_atom_site_label
_atom_site_type_symbol
_atom_site_fract_x
_atom_site_fract_y
_atom_site_fract_z
Cu1 Cu 0.5928(1) 0.0967(1) 0.0985(1)
Mo1 Mo 0.3521(1) 0.1260(1) 0.0084(1)
Mo2 Mo 0.4996(1) -0.4277(1) 0.0653(1)
O1 O 0.6122(6) 0.1025(8) 0.0179(2)
O2 O 0.3925(6) 0.1079(7) 0.0803(2)
O3 O 0.4175(6) 0.3923(7) 0.0122(2)
O4 O 0.1778(6) 0.1480(8) 0.0033(2)
O5 O 0.5973(6) -0.2094(8) 0.0697(2)
O6 O 0.3506(6) -0.3738(8) 0.0956(2)
O7 O 0.5930(6) 0.4290(8) 0.1093(2)
C1 C 0.4607(9) -0.0208(11) 0.1994(4)
C2 C 0.4598(9) -0.0787(11) 0.2535(4)
C3 C 0.5836(9) -0.0855(11) 0.2849(4)
C4 C 0.7034(9) -0.0256(11) 0.2612(3)
C5 C 0.6985(8) 0.0434(10) 0.2092(3)
C6 C 0.8145(10) 0.1207(11) 0.1790(3)
C7 C 0.9421(9) 0.1830(11) 0.2037(4)
C8 C 1.0202(10) 0.2337(12) 0.1163(3)
C9 C 0.8922(9) 0.1895(12) 0.0923(4)
C10 C 0.9735(9) 0.2058(11) 0.2645(4)
C11 C 1.0992(9) 0.1478(11) 0.2869(4)
C12 C 1.1250(10) 0.1648(12) 0.3436(4)
C13 C 1.0255(10) 0.2416(12) 0.3747(4)
C14 C 0.9015(10) 0.2986(12) 0.3480(4)
N1 N 0.5774(7) 0.0386(9) 0.1776(3)
N2 N 0.7909(7) 0.1316(9) 0.1236(3)
N3 N 0.8760(7) 0.2845(9) 0.2932(3)
N4 N 1.0436(7) 0.2352(10) 0.1708(3)
H1 H 0.3790 -0.0228 0.1774
H2 H 0.3776 -0.1126 0.2687
H3 H 0.5867 -0.1292 0.3210
H4 H 0.7878 -0.0332 0.2813
H5 H 1.0917 0.2631 0.0938
H6 H 0.8761 0.1999 0.0541
H7 H 1.1650 0.0987 0.2646
H8 H 1.2081 0.1249 0.3603
H9 H 1.0405 0.2553 0.4128
H10 H 0.8339 0.3485 0.3692
O1B O 0.3878(6) -0.1025(8) -0.0179(2)
O5B O 0.4027(6) 0.2094(8) -0.0697(2)
O3_2 O 0.4175(6) -0.6077(7) 0.0122(2)
O3B O 0.5825(6) -0.3923(7) -0.0122(2)
O7_2 O 0.5930(6) -0.5710(8) 0.1093(2)
Mo1B Mo 0.6479(1) -0.1260(1) -0.0084(1)
Mo2_2 Mo 0.4996(1) 0.5723(1) 0.0653(1)
Mo2B Mo 0.5004(1) 0.4277(1) -0.0653(1)
loop_
_geom_bond_atom_site_label_1
_geom_bond_atom_site_label_2
_geom_bond_site_symmetry_1
_geom_bond_site_symmetry_2
Cu1 O1 1_555 1_555
Mo1 O1 1_555 1_555
Mo2 O5 1_555 1_555
O1 Mo1B 1_555 1_555
O2 Cu1 1_555 1_555
O3 Mo1 1_555 1_555
O4 Mo1 1_555 1_555
O5 Cu1 1_555 1_555
O6 Mo2 1_555 1_555
O7 Cu1 1_555 1_555
C1 C2 1_555 1_555
C2 C3 1_555 1_555
C3 C4 1_555 1_555
C4 C5 1_555 1_555
C5 C6 1_555 1_555
C6 C7 1_555 1_555
C7 C10 1_555 1_555
C8 C9 1_555 1_555
C9 N2 1_555 1_555
C10 C11 1_555 1_555
C11 C12 1_555 1_555
C12 C13 1_555 1_555
C13 C14 1_555 1_555
C14 N3 1_555 1_555
N1 Cu1 1_555 1_555
N2 Cu1 1_555 1_555
N3 C10 1_555 1_555
N4 C7 1_555 1_555
H1 C1 1_555 1_555
H2 C2 1_555 1_555
H3 C3 1_555 1_555
H4 C4 1_555 1_555
H5 C8 1_555 1_555
H6 C9 1_555 1_555
H7 C11 1_555 1_555
H8 C12 1_555 1_555
H9 C13 1_555 1_555
H10 C14 1_555 1_555
O1B Mo1 1_555 1_555
O5B Mo1 1_555 1_555
O3_2 Mo2 1_555 1_555
O3B Mo2 1_555 1_555
O7_2 Mo2 1_555 1_555
Mo1B O5 1_555 1_555
Mo2_2 O3 1_555 1_555
Mo2B O3 1_555 1_555
Mo1 O2 1_555 1_555
O7 Mo2_2 1_555 1_555
C1 N1 1_555 1_555
C5 N1 1_555 1_555
C6 N2 1_555 1_555
C8 N4 1_555 1_555
O1B Mo1B 1_555 1_555
O5B Mo2B 1_555 1_555
O3B Mo1B 1_555 1_555

#END
