
#######################################################################
#
#                 Cambridge Crystallographic Data Centre
#                                CCDC 
#
#######################################################################
#
# If this CIF has been generated from an entry in the Cambridge 
# Structural Database, then it will include bibliographic, chemical, 
# crystal, experimental, refinement or atomic coordinate data resulting 
# from the CCDC's data processing and validation procedures.
#
#######################################################################

data_OGURAK
_symmetry_cell_setting           orthorhombic
_symmetry_space_group_name_H-M   'I m m 2'
_symmetry_Int_Tables_number      44
_space_group_name_Hall           'I 2 -2'
loop_
_symmetry_equiv_pos_site_id
_symmetry_equiv_pos_as_xyz
1 x,y,z
2 -x,-y,z
3 x,-y,z
4 -x,y,z
5 1/2+x,1/2+y,1/2+z
6 1/2-x,1/2-y,1/2+z
7 1/2+x,1/2-y,1/2+z
8 1/2-x,1/2+y,1/2+z
_cell_length_a                   13.179(1)
_cell_length_b                   13.178(1)
_cell_length_c                   20.568(1)
_cell_angle_alpha                90
_cell_angle_beta                 90
_cell_angle_gamma                90
_cell_volume                     3572.1
loop_
_atom_site_label
_atom_site_type_symbol
_atom_site_fract_x
_atom_site_fract_y
_atom_site_fract_z
Cu1 Cu 0.19517(4) 0.0000 1.08941(4)
Cu2 Cu 0.0000 -0.19516(4) 1.08945(4)
Cl1 Cl 0.0000 0.0000 1.09778(15)
O1 O 0.2114(4) -0.0971(3) 1.1584(2)
O2 O 0.0963(4) -0.2106(4) 1.1579(2)
O3 O 0.0000 -0.3790(5) 1.0750(5)
O4 O 0.3795(4) 0.0000 1.0749(4)
N1 N 0.3875(4) -0.3127(4) 1.5198(2)
N2 N 0.3146(4) -0.3881(4) 1.5201(2)
N3 N 0.3779(3) -0.2597(3) 1.46947(18)
N4 N 0.2606(3) -0.3789(3) 1.46949(18)
C1 C 0.3023(4) -0.3018(4) 1.4314(2)
C2 C 0.1712(3) -0.1716(3) 1.1833(2)
C3 C 0.2646(4) -0.2638(4) 1.3744(2)
C4 C 0.2989(5) -0.1762(5) 1.3428(3)
H1 H 0.3411 -0.1307 1.3664
C5 C 0.1767(5) -0.2997(5) 1.3422(3)
H2 H 0.1317 -0.3420 1.3659
C6 C 0.2754(7) -0.1528(7) 1.2812(4)
H3 H 0.3099 -0.0972 1.2618
C7 C 0.1530(6) -0.2780(7) 1.2807(4)
H4 H 0.0988 -0.3142 1.2609
C8 C 0.2041(5) -0.2041(5) 1.2435(3)
Cu1E Cu 0.30483(4) 0.5000 0.58941(4)
Cu1A Cu -0.19517(4) 0.0000 1.08941(4)
Cu1E_2 Cu 0.30483(4) -0.5000 1.58941(4)
Cu1E_3 Cu 0.30483(4) 0.5000 1.58941(4)
Cu1E_4 Cu 0.30483(4) -0.5000 0.58941(4)
Cu2A Cu 0.0000 0.19516(4) 1.08945(4)
Cu2E Cu 0.5000 -0.30484(4) 1.58945(4)
Cu2D Cu 0.5000 0.30484(4) 1.58945(4)
Cu2D_2 Cu 0.5000 0.30484(4) 0.58945(4)
Cu2E_2 Cu 0.5000 -0.30484(4) 0.58945(4)
Cl1D Cl 0.5000 0.5000 0.59778(15)
O1B O 0.2114(4) 0.0971(3) 1.1584(2)
O1G O 0.2886(4) 0.4029(3) 0.6584(2)
O1E O 0.2886(4) -0.4029(3) 0.6584(2)
O1E_2 O 0.2886(4) 0.5971(3) 0.6584(2)
O2B O 0.0963(4) 0.2106(4) 1.1579(2)
O2G O 0.4037(4) 0.2894(4) 0.6579(2)
O2E O 0.4037(4) -0.2894(4) 0.6579(2)
O2C O -0.0963(4) -0.2106(4) 1.1579(2)
O2A O -0.0963(4) 0.2106(4) 1.1579(2)
O3A O 0.0000 0.3790(5) 1.0750(5)
O4E O 0.1205(4) 0.5000 0.5749(4)
N1B N 0.3875(4) 0.3127(4) 1.5198(2)
N1G N 0.1125(4) 0.1873(4) 1.0198(2)
N1E N 0.1125(4) -0.1873(4) 1.0198(2)
N1F N -0.1125(4) -0.1873(4) 1.0198(2)
N1D N -0.1125(4) 0.1873(4) 1.0198(2)
N2B N 0.3146(4) 0.3881(4) 1.5201(2)
N2G N 0.1854(4) 0.1119(4) 1.0201(2)
N2E N 0.1854(4) -0.1119(4) 1.0201(2)
N2_2 N 0.3146(4) 0.6119(4) 0.5201(2)
N2B_2 N 0.3146(4) 0.3881(4) 0.5201(2)
N3B N 0.3779(3) 0.2597(3) 1.46947(18)
N3G N 0.1221(3) 0.2403(3) 0.96947(18)
N3E N 0.1221(3) -0.2403(3) 0.96947(18)
N4B N 0.2606(3) 0.3789(3) 1.46949(18)
N4G N 0.2394(3) 0.1211(3) 0.96949(18)
N4E N 0.2394(3) -0.1211(3) 0.96949(18)
C1B C 0.3023(4) 0.3018(4) 1.4314(2)
C1G C 0.1977(4) 0.1982(4) 0.9314(2)
C1E C 0.1977(4) -0.1982(4) 0.9314(2)
C2B C 0.1712(3) 0.1716(3) 1.1833(2)
C2G C 0.3288(3) 0.3284(3) 0.6833(2)
C2E C 0.3288(3) -0.3284(3) 0.6833(2)
C3B C 0.2646(4) 0.2638(4) 1.3744(2)
C3G C 0.2354(4) 0.2362(4) 0.8744(2)
C3E C 0.2354(4) -0.2362(4) 0.8744(2)
C4B C 0.2989(5) 0.1762(5) 1.3428(3)
C4G C 0.2011(5) 0.3238(5) 0.8428(3)
C4E C 0.2011(5) -0.3238(5) 0.8428(3)
H1B H 0.3411 0.1307 1.3664
H1G H 0.1589 0.3693 0.8664
H1E H 0.1589 -0.3693 0.8664
C5B C 0.1767(5) 0.2997(5) 1.3422(3)
C5G C 0.3233(5) 0.2003(5) 0.8422(3)
C5E C 0.3233(5) -0.2003(5) 0.8422(3)
H2B H 0.1317 0.3420 1.3659
H2G H 0.3683 0.1580 0.8659
H2E H 0.3683 -0.1580 0.8659
C6B C 0.2754(7) 0.1528(7) 1.2812(4)
C6G C 0.2246(7) 0.3472(7) 0.7812(4)
C6E C 0.2246(7) -0.3472(7) 0.7812(4)
H3B H 0.3099 0.0972 1.2618
H3G H 0.1901 0.4028 0.7618
H3E H 0.1901 -0.4028 0.7618
C7B C 0.1530(6) 0.2780(7) 1.2807(4)
C7G C 0.3470(6) 0.2220(7) 0.7807(4)
C7E C 0.3470(6) -0.2220(7) 0.7807(4)
H4B H 0.0988 0.3142 1.2609
H4G H 0.4012 0.1858 0.7609
H4E H 0.4012 -0.1858 0.7609
C8B C 0.2041(5) 0.2041(5) 1.2435(3)
C8G C 0.2959(5) 0.2959(5) 0.7435(3)
C8E C 0.2959(5) -0.2959(5) 0.7435(3)
loop_
_geom_bond_atom_site_label_1
_geom_bond_atom_site_label_2
_geom_bond_site_symmetry_1
_geom_bond_site_symmetry_2
Cu1 Cl1 1_555 1_555
Cu2 Cl1 1_555 1_555
Cl1 Cu1A 1_555 1_555
O1 Cu1 1_555 1_555
O2 Cu2 1_555 1_555
O3 Cu2 1_555 1_555
O4 Cu1 1_555 1_555
N1 N2 1_555 1_555
N2 N4 1_555 1_555
N3 N1 1_555 1_555
N4 C1 1_555 1_555
C1 N3 1_555 1_555
C2 O1 1_555 1_555
C3 C1 1_555 1_555
C4 C3 1_555 1_555
H1 C4 1_555 1_555
C5 C3 1_555 1_555
H2 C5 1_555 1_555
C6 C4 1_555 1_555
H3 C6 1_555 1_555
C7 C5 1_555 1_555
H4 C7 1_555 1_555
C8 C2 1_555 1_555
Cu1E Cl1D 1_555 1_555
Cu1E_2 N2 1_555 1_555
Cu1E_3 N2B 1_555 1_555
Cu1E_4 O1E 1_555 1_555
Cu2A Cl1 1_555 1_555
Cu2E N1 1_555 1_555
Cu2D N1B 1_555 1_555
Cu2D_2 Cl1D 1_555 1_555
Cu2E_2 O2E 1_555 1_555
O1B Cu1 1_555 1_555
O1G Cu1E 1_555 1_555
O1E C2E 1_555 1_555
O1E_2 Cu1E 1_555 1_555
O2B Cu2A 1_555 1_555
O2G Cu2D_2 1_555 1_555
O2E C2E 1_555 1_555
O2C Cu2 1_555 1_555
O2A Cu2A 1_555 1_555
O3A Cu2A 1_555 1_555
O4E Cu1E 1_555 1_555
N1B N2B 1_555 1_555
N1G Cu2A 1_555 1_555
N1E Cu2 1_555 1_555
N1F Cu2 1_555 1_555
N1D Cu2A 1_555 1_555
N2B N4B 1_555 1_555
N2G Cu1 1_555 1_555
N2E Cu1 1_555 1_555
N2_2 Cu1E 1_555 1_555
N2B_2 Cu1E 1_555 1_555
N3B N1B 1_555 1_555
N3G N1G 1_555 1_555
N3E N1E 1_555 1_555
N4B C1B 1_555 1_555
N4G N2G 1_555 1_555
N4E N2E 1_555 1_555
C1B N3B 1_555 1_555
C1G N3G 1_555 1_555
C1E N3E 1_555 1_555
C2B O1B 1_555 1_555
C2G O1G 1_555 1_555
C2E C8E 1_555 1_555
C3B C1B 1_555 1_555
C3G C1G 1_555 1_555
C3E C1E 1_555 1_555
C4B C3B 1_555 1_555
C4G C3G 1_555 1_555
C4E C3E 1_555 1_555
H1B C4B 1_555 1_555
H1G C4G 1_555 1_555
H1E C4E 1_555 1_555
C5B C3B 1_555 1_555
C5G C3G 1_555 1_555
C5E C3E 1_555 1_555
H2B C5B 1_555 1_555
H2G C5G 1_555 1_555
H2E C5E 1_555 1_555
C6B C4B 1_555 1_555
C6G C4G 1_555 1_555
C6E C4E 1_555 1_555
H3B C6B 1_555 1_555
H3G C6G 1_555 1_555
H3E C6E 1_555 1_555
C7B C5B 1_555 1_555
C7G C5G 1_555 1_555
C7E C5E 1_555 1_555
H4B C7B 1_555 1_555
H4G C7G 1_555 1_555
H4E C7E 1_555 1_555
C8B C2B 1_555 1_555
C8G C2G 1_555 1_555
C8E C6E 1_555 1_555
O2 C2 1_555 1_555
C6 C8 1_555 1_555
C7 C8 1_555 1_555
O2B C2B 1_555 1_555
O2G C2G 1_555 1_555
N1G N2G 1_555 1_555
N1E N2E 1_555 1_555
N4G C1G 1_555 1_555
N4E C1E 1_555 1_555
C6B C8B 1_555 1_555
C6G C8G 1_555 1_555
C7B C8B 1_555 1_555
C7G C8G 1_555 1_555
C7E C8E 1_555 1_555

#END
