
#######################################################################
#
#                 Cambridge Crystallographic Data Centre
#                                CCDC 
#
#######################################################################
#
# If this CIF has been generated from an entry in the Cambridge 
# Structural Database, then it will include bibliographic, chemical, 
# crystal, experimental, refinement or atomic coordinate data resulting 
# from the CCDC's data processing and validation procedures.
#
#######################################################################

data_OGUSEQ
_symmetry_cell_setting           triclinic
_symmetry_space_group_name_H-M   'P -1'
_symmetry_Int_Tables_number      2
_space_group_name_Hall           '-P 1'
loop_
_symmetry_equiv_pos_site_id
_symmetry_equiv_pos_as_xyz
1 x,y,z
2 -x,-y,-z
_cell_length_a                   9.5135(19)
_cell_length_b                   9.969(2)
_cell_length_c                   12.113(2)
_cell_angle_alpha                78.90(3)
_cell_angle_beta                 86.64(3)
_cell_angle_gamma                82.54(3)
_cell_volume                     1117.1
loop_
_atom_site_label
_atom_site_type_symbol
_atom_site_fract_x
_atom_site_fract_y
_atom_site_fract_z
Ni1 Ni 0.45130(4) 0.77270(3) 0.05544(3)
Ni2 Ni 0.49019(4) 0.53474(3) 0.28492(3)
O1 O 0.3702(3) 0.9394(2) -0.0583(2)
H1 H 0.2816 0.9567 -0.0452
H2 H 0.4060 0.9939 -0.1122
O2 O 0.4750(3) 0.6665(2) -0.07215(18)
H3 H 0.4608 0.7210 -0.1347
H4 H 0.5292 0.5937 -0.0791
O3 O 0.6990(2) 0.7816(2) 0.03766(18)
O4 O 0.59088(19) 0.61791(19) 0.13929(16)
O5 O 0.6575(3) 0.5466(3) 0.37856(19)
H5 H 0.6273 0.5791 0.4367
H6 H 0.7330 0.4900 0.3919
O6 O 1.2506(2) 0.7190(2) 0.08996(19)
O7 O 1.3375(2) 0.5119(2) 0.1807(2)
O8 O 0.6039(2) 0.28662(19) 0.67506(18)
O9 O 0.5573(2) 0.11845(19) 0.81935(16)
O10 O 0.4603(2) -0.31798(19) 0.70576(16)
O11 O 0.6109(2) -0.39957(19) 0.58569(17)
C1 C 0.7065(3) 0.6665(3) 0.1001(2)
C2 C 0.8429(3) 0.5784(3) 0.1279(2)
C3 C 0.8398(3) 0.4375(3) 0.1683(2)
H7 H 0.7530 0.4026 0.1796
C4 C 0.9637(3) 0.3488(3) 0.1920(2)
C5 C 1.0914(3) 0.4042(3) 0.1781(2)
H8 H 1.1752 0.3463 0.1950
C6 C 1.0974(3) 0.5446(3) 0.1392(2)
C7 C 0.9733(3) 0.6311(3) 0.1118(2)
H9 H 0.9767 0.7241 0.0827
C8 C 1.2389(3) 0.5976(3) 0.1350(2)
C9 C 0.9572(3) 0.1997(3) 0.2380(2)
C10 C 1.0428(3) 0.0966(3) 0.1954(3)
H10 H 1.1074 0.1193 0.1362
C11 C 1.0319(4) -0.0404(3) 0.2415(3)
H11 H 1.0874 -0.1095 0.2114
C12 C 0.9390(4) -0.0755(3) 0.3319(3)
H12 H 0.9341 -0.1678 0.3626
C13 C 0.8529(3) 0.0259(3) 0.3772(2)
C14 C 0.8621(3) 0.1632(3) 0.3268(2)
H13 H 0.8026 0.2324 0.3537
C15 C 0.7561(3) -0.0080(3) 0.4776(2)
C16 C 0.7176(3) 0.0878(3) 0.5481(2)
H14 H 0.7520 0.1729 0.5310
C17 C 0.6293(3) 0.0588(3) 0.6428(2)
C18 C 0.5770(3) -0.0671(3) 0.6683(2)
H15 H 0.5179 -0.0871 0.7316
C19 C 0.6122(3) -0.1633(3) 0.5999(2)
C20 C 0.7017(3) -0.1339(3) 0.5058(2)
H16 H 0.7259 -0.1997 0.4607
C21 C 0.5931(3) 0.1629(3) 0.7175(2)
C22 C 0.5563(3) -0.3001(3) 0.6300(2)
Ni1_2 Ni 1.45130(4) 0.77270(3) 0.05544(3)
Ni1A Ni 0.54870(4) 0.22730(3) 0.94456(3)
Ni2_2 Ni 1.49019(4) 0.53474(3) 0.28492(3)
Ni2A Ni 0.50981(4) -0.53474(3) 0.71508(3)
Ni2A_2 Ni 0.50981(4) 0.46526(3) 0.71508(3)
O6_2 O 0.2506(2) 0.7190(2) 0.08996(19)
O7_2 O 0.3375(2) 0.5119(2) 0.1807(2)
O8A O 0.3961(2) 0.71338(19) 0.32494(18)
O9A O 0.4427(2) 0.88155(19) 0.18065(16)
O10A O 0.5397(2) 0.31798(19) 0.29424(16)
O11A O 0.3891(2) 0.39957(19) 0.41431(17)
O12 O 0.8979(9) 0.4282(8) 0.5339(8)
loop_
_geom_bond_atom_site_label_1
_geom_bond_atom_site_label_2
_geom_bond_site_symmetry_1
_geom_bond_site_symmetry_2
Ni1 O1 1_555 1_555
Ni2 O4 1_555 1_555
O1 H1 1_555 1_555
H2 O1 1_555 1_555
O2 Ni1 1_555 1_555
H3 O2 1_555 1_555
H4 O2 1_555 1_555
O3 Ni1 1_555 1_555
O4 Ni1 1_555 1_555
O5 Ni2 1_555 1_555
H5 O5 1_555 1_555
H6 O5 1_555 1_555
O6 C8 1_555 1_555
O7 C8 1_555 1_555
O8 C21 1_555 1_555
O9 C21 1_555 1_555
O10 C22 1_555 1_555
O11 C22 1_555 1_555
C1 O3 1_555 1_555
C2 C1 1_555 1_555
C3 C2 1_555 1_555
H7 C3 1_555 1_555
C4 C3 1_555 1_555
C5 C4 1_555 1_555
H8 C5 1_555 1_555
C6 C5 1_555 1_555
C7 C2 1_555 1_555
H9 C7 1_555 1_555
C8 C6 1_555 1_555
C9 C4 1_555 1_555
C10 C9 1_555 1_555
H10 C10 1_555 1_555
C11 C10 1_555 1_555
H11 C11 1_555 1_555
C12 C11 1_555 1_555
H12 C12 1_555 1_555
C13 C12 1_555 1_555
C14 C9 1_555 1_555
H13 C14 1_555 1_555
C15 C13 1_555 1_555
C16 C15 1_555 1_555
H14 C16 1_555 1_555
C17 C16 1_555 1_555
C18 C17 1_555 1_555
H15 C18 1_555 1_555
C19 C18 1_555 1_555
C20 C15 1_555 1_555
H16 C20 1_555 1_555
C21 C17 1_555 1_555
C22 C19 1_555 1_555
Ni1_2 O6 1_555 1_555
Ni1A O9 1_555 1_555
Ni2_2 O7 1_555 1_555
Ni2A O10 1_555 1_555
Ni2A_2 O8 1_555 1_555
O6_2 Ni1 1_555 1_555
O7_2 Ni2 1_555 1_555
O8A Ni2 1_555 1_555
O9A Ni1 1_555 1_555
O10A Ni2 1_555 1_555
O11A Ni2 1_555 1_555
O4 C1 1_555 1_555
O11 Ni2A 1_555 1_555
C6 C7 1_555 1_555
C13 C14 1_555 1_555
C19 C20 1_555 1_555

#END
