
#######################################################################
#
#                 Cambridge Crystallographic Data Centre
#                                CCDC 
#
#######################################################################
#
# If this CIF has been generated from an entry in the Cambridge 
# Structural Database, then it will include bibliographic, chemical, 
# crystal, experimental, refinement or atomic coordinate data resulting 
# from the CCDC's data processing and validation procedures.
#
#######################################################################

data_OGUSIU
_symmetry_cell_setting           triclinic
_symmetry_space_group_name_H-M   'P -1'
_symmetry_Int_Tables_number      2
_space_group_name_Hall           '-P 1'
loop_
_symmetry_equiv_pos_site_id
_symmetry_equiv_pos_as_xyz
1 x,y,z
2 -x,-y,-z
_cell_length_a                   9.870(2)
_cell_length_b                   10.291(2)
_cell_length_c                   12.654(3)
_cell_angle_alpha                111.95(3)
_cell_angle_beta                 99.96(3)
_cell_angle_gamma                90.86(3)
_cell_volume                     1169.68
loop_
_atom_site_label
_atom_site_type_symbol
_atom_site_fract_x
_atom_site_fract_y
_atom_site_fract_z
Mn1 Mn 0.62692(4) 1.38783(4) 0.44131(4)
Mn2 Mn 0.56253(4) 1.08404(4) 0.21356(4)
O1 O 0.3749(2) 1.3961(2) 0.4525(2)
O2 O 0.45627(19) 1.2023(2) 0.35224(18)
O3 O 0.3707(3) 1.0017(3) 0.0811(2)
H1 H 0.3878 1.0448 0.0386
H2 H 0.3368 1.0672 0.1306
O4 O 0.6389(3) 1.3527(3) 0.6014(2)
H3 H 0.5846 1.2841 0.5949
H4 H 0.6945 1.3984 0.6647
O5 O -0.1494(2) 1.3781(2) 0.4406(2)
O6 O -0.2668(2) 1.1708(2) 0.3571(2)
O7 O 0.3253(3) 0.0983(2) -0.09278(19)
O8 O 0.4424(3) 0.1280(2) -0.2157(2)
O9 O 0.4211(3) 0.5748(2) -0.28415(18)
O10 O 0.3891(3) 0.7706(2) -0.13801(19)
C1 C 0.3570(3) 1.2676(3) 0.3939(2)
C2 C 0.2207(3) 1.1870(3) 0.3725(2)
C3 C 0.2142(3) 1.0408(3) 0.3304(3)
H5 H 0.2939 0.9963 0.3147
C4 C 0.0917(3) 0.9592(3) 0.3112(2)
C5 C -0.0280(3) 1.0293(3) 0.3334(3)
H6 H -0.1114 0.9776 0.3209
C6 C -0.0225(3) 1.1760(3) 0.3741(3)
C7 C 0.1024(3) 1.2565(3) 0.3961(3)
H7 H 0.1065 1.3542 0.4259
C8 C -0.1535(3) 1.2463(3) 0.3912(3)
C9 C 0.0870(3) 0.8040(3) 0.2638(3)
C10 C 0.1631(3) 0.7371(3) 0.1767(3)
H8 H 0.2166 0.7925 0.1531
C11 C 0.1611(3) 0.5913(3) 0.1245(2)
C12 C 0.0823(3) 0.5114(3) 0.1639(3)
H9 H 0.0785 0.4138 0.1305
C13 C 0.0093(3) 0.5749(3) 0.2520(3)
H10 H -0.0396 0.5197 0.2789
C14 C 0.0091(3) 0.7209(3) 0.3001(3)
H11 H -0.0432 0.7626 0.3565
C15 C 0.2381(3) 0.5260(3) 0.0278(2)
C16 C 0.2805(3) 0.6059(3) -0.0313(3)
H12 H 0.2609 0.6994 -0.0091
C17 C 0.3511(3) 0.5494(3) -0.1223(2)
C18 C 0.3790(3) 0.4091(3) -0.1566(3)
H13 H 0.4245 0.3695 -0.2182
C19 C 0.3394(3) 0.3292(3) -0.0996(2)
C20 C 0.2701(3) 0.3861(3) -0.0074(3)
H14 H 0.2452 0.3306 0.0309
C21 C 0.3707(3) 0.1766(3) -0.1373(3)
C22 C 0.3916(3) 0.6384(3) -0.1855(3)
Mn1_2 Mn -0.37308(4) 1.38783(4) 0.44131(4)
Mn1A Mn 0.37308(4) 0.61217(4) -0.44131(4)
Mn1A_2 Mn 0.37308(4) 1.61217(4) 0.55869(4)
Mn2_2 Mn -0.43747(4) 1.08404(4) 0.21356(4)
Mn2A Mn 0.43747(4) -0.08404(4) -0.21356(4)
Mn2A_2 Mn 0.43747(4) 0.91596(4) -0.21356(4)
O1A O 0.6251(2) 1.6039(2) 0.5475(2)
O5_2 O 0.8506(2) 1.3781(2) 0.4406(2)
O6_2 O 0.7332(2) 1.1708(2) 0.3571(2)
O7A O 0.6747(3) 0.9017(2) 0.09278(19)
O8A O 0.5576(3) 0.8720(2) 0.2157(2)
O9A O 0.5789(3) 1.4252(2) 0.28415(18)
O10A O 0.6109(3) 1.2294(2) 0.13801(19)
O11 O 1.0047(10) 0.9024(8) 0.9533(7)
H15 H 0.9183 0.8828 0.9487
H16 H 1.0206 0.8940 0.8873
O12 O 0.4679(5) 0.1303(4) 0.5760(3)
loop_
_geom_bond_atom_site_label_1
_geom_bond_atom_site_label_2
_geom_bond_site_symmetry_1
_geom_bond_site_symmetry_2
Mn1 O2 1_555 1_555
Mn2 O2 1_555 1_555
O1 C1 1_555 1_555
O2 C1 1_555 1_555
O3 Mn2 1_555 1_555
H1 O3 1_555 1_555
H2 O3 1_555 1_555
O4 Mn1 1_555 1_555
H3 O4 1_555 1_555
H4 O4 1_555 1_555
O5 C8 1_555 1_555
O6 C8 1_555 1_555
O7 C21 1_555 1_555
O8 C21 1_555 1_555
O9 C22 1_555 1_555
O10 C22 1_555 1_555
C1 C2 1_555 1_555
C2 C3 1_555 1_555
C3 H5 1_555 1_555
C4 C3 1_555 1_555
C5 C4 1_555 1_555
H6 C5 1_555 1_555
C6 C5 1_555 1_555
C7 C2 1_555 1_555
H7 C7 1_555 1_555
C8 C6 1_555 1_555
C9 C4 1_555 1_555
C10 C9 1_555 1_555
H8 C10 1_555 1_555
C11 C10 1_555 1_555
C12 C11 1_555 1_555
H9 C12 1_555 1_555
C13 C12 1_555 1_555
H10 C13 1_555 1_555
C14 C9 1_555 1_555
H11 C14 1_555 1_555
C15 C11 1_555 1_555
C16 C15 1_555 1_555
H12 C16 1_555 1_555
C17 C16 1_555 1_555
C18 C17 1_555 1_555
H13 C18 1_555 1_555
C19 C18 1_555 1_555
C20 C15 1_555 1_555
H14 C20 1_555 1_555
C21 C19 1_555 1_555
C22 C17 1_555 1_555
O11 H15 1_555 1_555
H16 O11 1_555 1_555
Mn1_2 O5 1_555 1_555
Mn1A O9 1_555 1_555
Mn1A_2 O1 1_555 1_555
Mn2_2 O6 1_555 1_555
Mn2A O7 1_555 1_555
Mn2A_2 O10 1_555 1_555
O1A Mn1 1_555 1_555
O5_2 Mn1 1_555 1_555
O6_2 Mn1 1_555 1_555
O7A Mn2 1_555 1_555
O8A Mn2 1_555 1_555
O9A Mn1 1_555 1_555
O10A Mn2 1_555 1_555
Mn2 O6_2 1_555 1_555
O6 Mn1_2 1_555 1_555
O8 Mn2A 1_555 1_555
C6 C7 1_555 1_555
C13 C14 1_555 1_555
C19 C20 1_555 1_555

#END
