
#######################################################################
#
#                 Cambridge Crystallographic Data Centre
#                                CCDC 
#
#######################################################################
#
# If this CIF has been generated from an entry in the Cambridge 
# Structural Database, then it will include bibliographic, chemical, 
# crystal, experimental, refinement or atomic coordinate data resulting 
# from the CCDC's data processing and validation procedures.
#
#######################################################################

data_OGUTOA
_symmetry_cell_setting           monoclinic
_symmetry_space_group_name_H-M   'C 2/c'
_symmetry_Int_Tables_number      15
_space_group_name_Hall           '-C 2yn'
loop_
_symmetry_equiv_pos_site_id
_symmetry_equiv_pos_as_xyz
1 x,y,z
2 -x,y,1/2-z
3 1/2+x,1/2+y,z
4 1/2-x,1/2+y,1/2-z
5 -x,-y,-z
6 x,-y,1/2+z
7 1/2-x,1/2-y,-z
8 1/2+x,1/2-y,1/2+z
_cell_length_a                   18.0322(14)
_cell_length_b                   11.3434(8)
_cell_length_c                   28.050(2)
_cell_angle_alpha                90
_cell_angle_beta                 107.9720(10)
_cell_angle_gamma                90
_cell_volume                     5457.58
loop_
_atom_site_label
_atom_site_type_symbol
_atom_site_fract_x
_atom_site_fract_y
_atom_site_fract_z
C1 C -0.0501(13) 1.3174(18) 0.9201(9)
H1 H -0.0945 1.3598 0.9030
C4 C 0.0775(13) 1.3137(19) 0.9675(9)
H4 H 0.1234 1.3538 0.9836
O1 O 0.1751(7) 1.5649(10) 1.0062(4)
H5 H 0.2061 1.5410 0.9904
H6 H 0.1257 1.5586 0.9989
N2 N 0.0140(6) 1.3763(10) 0.9439(4)
Ag2 Ag 0.03105(13) 1.56404(13) 0.93809(8)
N3 N 0.0209(10) 0.7555(13) 0.9372(7)
C5 C 0.0136(10) 0.9997(15) 0.9422(6)
C8 C -0.0476(12) 0.8104(15) 0.9197(7)
H11 H -0.0929 0.7665 0.9063
C9 C -0.0541(12) 1.1942(17) 0.9196(9)
H12 H -0.1003 1.1556 0.9028
C15 C 0.0835(13) 0.8188(18) 0.9581(9)
H18 H 0.1305 0.7794 0.9720
C16 C 0.0117(11) 1.1312(15) 0.9445(6)
C19 C 0.0838(12) 0.9375(18) 0.9606(9)
H19 H 0.1304 0.9779 0.9745
C20 C 0.0779(13) 1.1940(17) 0.9692(9)
H20 H 0.1230 1.1543 0.9871
C23 C -0.0520(13) 0.9338(16) 0.9213(9)
H22 H -0.0999 0.9711 0.9081
Ag2_2 Ag 0.03105(13) 0.56404(13) 0.93809(8)
N3_2 N 0.0209(10) 1.7555(13) 0.9372(7)
C2 C -0.0643(12) 1.2053(19) 0.7908(11)
H2 H -0.1100 1.2469 0.7761
C3 C 0.0619(12) 1.2053(19) 0.8374(10)
H3 H 0.1058 1.2468 0.8560
N1 N -0.0005(7) 1.2655(10) 0.8121(4)
Ag1 Ag 0.01270(11) 1.45468(13) 0.81151(7)
N4 N 0.0059(10) 0.6415(14) 0.8131(6)
C6 C 0.0004(11) 1.0205(15) 0.8146(7)
C7 C 0.0015(11) 0.8905(15) 0.8136(8)
C10 C -0.0647(11) 0.8224(17) 0.7949(8)
H13 H -0.1131 0.8588 0.7828
C11 C 0.0709(12) 0.7075(19) 0.8311(9)
H14 H 0.1185 0.6689 0.8436
C12 C -0.0599(12) 0.7025(19) 0.7940(9)
H15 H -0.1055 0.6605 0.7791
C13 C -0.0675(11) 1.0832(18) 0.7891(9)
H16 H -0.1131 1.0441 0.7716
C14 C 0.0706(13) 0.829(2) 0.8320(9)
H17 H 0.1172 0.8696 0.8452
C22 C 0.0650(12) 1.0851(18) 0.8378(10)
H21 H 0.1117 1.0471 0.8541
Ag1A Ag -0.01270(11) 1.45468(13) 0.68849(7)
Ag1_2 Ag 0.01270(11) 0.45468(13) 0.81151(7)
N4_2 N 0.0059(10) 1.6415(14) 0.8131(6)
O2 O 0.2558(6) 0.7583(10) 0.9278(4)
H7 H 0.2626 0.6849 0.9251
H8 H 0.2777 0.8171 0.9497
O3 O 0.2661(6) 0.7976(10) 0.8309(4)
H9 H 0.2594 0.8726 0.8266
H10 H 0.2675 0.7520 0.8064
S1 S 0.2187(3) 1.4582(5) 0.7945(2)
O4 O 0.1364(9) 1.4638(16) 0.7761(6)
O5 O 0.1421(9) 1.4770(14) 0.8926(6)
C17 C 0.2411(10) 1.3342(17) 0.8356(7)
O6 O 0.2547(9) 1.4331(15) 0.7575(6)
C18 C 0.2145(9) 1.4542(16) 0.9070(7)
O7 O 0.2512(14) 1.5604(15) 0.8229(9)
C21 C 0.2391(10) 1.3434(18) 0.8857(7)
C24 C 0.2591(12) 1.2276(18) 0.8182(8)
H23 H 0.2623 1.2244 0.7857
C25 C 0.2742(12) 1.1361(19) 0.8972(9)
H24 H 0.2867 1.0706 0.9181
O8 O 0.2639(10) 1.5024(19) 0.9434(8)
C26 C 0.2570(11) 1.2426(19) 0.9147(9)
H25 H 0.2575 1.2471 0.9479
C27 C 0.2723(12) 1.1288(19) 0.8454(9)
H26 H 0.2801 1.0573 0.8314
loop_
_geom_bond_atom_site_label_1
_geom_bond_atom_site_label_2
_geom_bond_site_symmetry_1
_geom_bond_site_symmetry_2
C1 H1 1_555 1_555
C2 H2 1_555 1_555
C3 H3 1_555 1_555
C4 H4 1_555 1_555
N1 C2 1_555 1_555
O1 H5 1_555 1_555
H6 O1 1_555 1_555
N2 C1 1_555 1_555
O2 H7 1_555 1_555
H8 O2 1_555 1_555
O3 H9 1_555 1_555
H10 O3 1_555 1_555
Ag1 N1 1_555 1_555
Ag2 O1 1_555 1_555
S1 O4 1_555 1_555
N3 C8 1_555 1_555
N4 C11 1_555 1_555
C5 C16 1_555 1_555
C6 C7 1_555 1_555
C7 C10 1_555 1_555
O5 C18 1_555 1_555
C8 H11 1_555 1_555
C9 C1 1_555 1_555
H12 C9 1_555 1_555
C10 H13 1_555 1_555
C11 H14 1_555 1_555
C12 N4 1_555 1_555
H15 C12 1_555 1_555
C13 C2 1_555 1_555
H16 C13 1_555 1_555
C14 C7 1_555 1_555
H17 C14 1_555 1_555
C15 N3 1_555 1_555
H18 C15 1_555 1_555
C16 C9 1_555 1_555
C17 S1 1_555 1_555
O6 S1 1_555 1_555
C18 C21 1_555 1_555
O7 S1 1_555 1_555
C19 C5 1_555 1_555
H19 C19 1_555 1_555
C20 C4 1_555 1_555
H20 C20 1_555 1_555
C21 C17 1_555 1_555
C22 C3 1_555 1_555
H21 C22 1_555 1_555
C23 C5 1_555 1_555
H22 C23 1_555 1_555
C24 C17 1_555 1_555
H23 C24 1_555 1_555
C25 H24 1_555 1_555
O8 C18 1_555 1_555
C26 C21 1_555 1_555
H25 C26 1_555 1_555
C27 C24 1_555 1_555
H26 C27 1_555 1_555
Ag1A Ag1 1_555 1_555
Ag1_2 N4 1_555 1_555
Ag2_2 N3 1_555 1_555
N3_2 Ag2 1_555 1_555
N4_2 Ag1 1_555 1_555
C3 N1 1_555 1_555
C4 N2 1_555 1_555
N2 Ag2 1_555 1_555
C6 C13 1_555 1_555
C6 C22 1_555 1_555
C8 C23 1_555 1_555
C10 C12 1_555 1_555
C11 C14 1_555 1_555
C15 C19 1_555 1_555
C16 C20 1_555 1_555
C25 C26 1_555 1_555
C25 C27 1_555 1_555

#END
