
#######################################################################
#
#                 Cambridge Crystallographic Data Centre
#                                CCDC 
#
#######################################################################
#
# If this CIF has been generated from an entry in the Cambridge 
# Structural Database, then it will include bibliographic, chemical, 
# crystal, experimental, refinement or atomic coordinate data resulting 
# from the CCDC's data processing and validation procedures.
#
#######################################################################

data_OGUTAM
_symmetry_cell_setting           monoclinic
_symmetry_space_group_name_H-M   'P 21/a'
_symmetry_Int_Tables_number      14
_space_group_name_Hall           '-P 2yab'
loop_
_symmetry_equiv_pos_site_id
_symmetry_equiv_pos_as_xyz
1 x,y,z
2 1/2-x,1/2+y,-z
3 -x,-y,-z
4 1/2+x,1/2-y,z
_cell_length_a                   9.8676(8)
_cell_length_b                   8.3825(7)
_cell_length_c                   11.0733(9)
_cell_angle_alpha                90
_cell_angle_beta                 103.9870(10)
_cell_angle_gamma                90
_cell_volume                     888.773
loop_
_atom_site_label
_atom_site_type_symbol
_atom_site_fract_x
_atom_site_fract_y
_atom_site_fract_z
Ag1 Ag 0.97046(3) 0.35566(4) 0.55217(3)
Ag2 Ag 1.17336(4) -0.00396(5) 0.64660(4)
C1 C 0.8588(4) -0.0774(5) 0.8007(4)
C2 C 0.9534(5) -0.3044(5) 0.9228(4)
H1 H 0.9978 -0.4031 0.9301
C3 C 0.9237(4) -0.2262(5) 0.8091(3)
C4 C 0.8184(5) -0.0148(5) 0.9028(4)
H2 H 0.7713 0.0822 0.8958
C5 C 0.8477(5) -0.0957(7) 1.0147(4)
H3 H 0.8197 -0.0537 1.0825
C6 C 0.9182(5) -0.2383(6) 1.0260(4)
H4 H 0.9423 -0.2903 1.1024
S1 S 0.83034(10) 0.04171(13) 0.66431(9)
O1 O 0.9668(3) 0.1170(4) 0.6688(3)
O2 O 1.0451(3) -0.2511(4) 0.6462(3)
O3 O 0.7265(3) 0.1609(4) 0.6738(4)
C7 C 0.9628(4) -0.3119(5) 0.7021(4)
O4 O 0.9105(3) -0.4497(4) 0.6802(3)
O5 O 0.7891(3) -0.0654(4) 0.5588(3)
Ag1B Ag 1.02954(3) 0.64434(4) 0.44783(3)
Ag1B_2 Ag 1.02954(3) -0.35566(4) 0.44783(3)
Ag1C Ag 0.47046(3) 0.14434(4) 0.55217(3)
Ag1_2 Ag 0.97046(3) -0.64434(4) 0.55217(3)
Ag1A Ag 0.52954(3) -0.14434(4) 0.44783(3)
Ag2C Ag 0.67336(4) -0.49604(5) 0.64660(4)
Ag2B Ag 0.82664(4) 0.00396(5) 0.35340(4)
O2B O 0.9549(3) 0.2511(4) 0.3538(3)
O3C O 1.2265(3) 0.3391(4) 0.6738(4)
O4_2 O 0.9105(3) 0.5503(4) 0.6802(3)
O4C O 1.4105(3) -0.0503(4) 0.6802(3)
O5A O 0.7109(3) 0.4346(4) 0.4412(3)
O5B O 1.2109(3) 0.0654(4) 0.4412(3)
loop_
_geom_bond_atom_site_label_1
_geom_bond_atom_site_label_2
_geom_bond_site_symmetry_1
_geom_bond_site_symmetry_2
Ag1 O1 1_555 1_555
Ag2 O1 1_555 1_555
C1 C3 1_555 1_555
C2 H1 1_555 1_555
C3 C2 1_555 1_555
C4 C1 1_555 1_555
H2 C4 1_555 1_555
C5 C4 1_555 1_555
H3 C5 1_555 1_555
C6 C2 1_555 1_555
H4 C6 1_555 1_555
S1 C1 1_555 1_555
O1 S1 1_555 1_555
O2 Ag2 1_555 1_555
O3 S1 1_555 1_555
C7 C3 1_555 1_555
O4 C7 1_555 1_555
O5 S1 1_555 1_555
Ag1B Ag1 1_555 1_555
Ag1B_2 O2 1_555 1_555
Ag1C O3 1_555 1_555
Ag1_2 O4 1_555 1_555
Ag1A O5 1_555 1_555
Ag2C O4 1_555 1_555
Ag2B O5 1_555 1_555
O2B Ag1 1_555 1_555
O3C Ag1 1_555 1_555
O4_2 Ag1 1_555 1_555
O4C Ag2 1_555 1_555
O5A Ag1 1_555 1_555
O5B Ag2 1_555 1_555
C5 C6 1_555 1_555
O2 C7 1_555 1_555
Ag1B_2 Ag1_2 1_555 1_555
Ag1C Ag1A 1_555 1_555
Ag2B O2B 1_555 1_555

#END
