
#######################################################################
#
#                 Cambridge Crystallographic Data Centre
#                                CCDC 
#
#######################################################################
#
# If this CIF has been generated from an entry in the Cambridge 
# Structural Database, then it will include bibliographic, chemical, 
# crystal, experimental, refinement or atomic coordinate data resulting 
# from the CCDC's data processing and validation procedures.
#
#######################################################################

data_OGUTUG
_symmetry_cell_setting           monoclinic
_symmetry_space_group_name_H-M   'P 21/n'
_symmetry_Int_Tables_number      14
_space_group_name_Hall           '-P 2yn'
loop_
_symmetry_equiv_pos_site_id
_symmetry_equiv_pos_as_xyz
1 x,y,z
2 1/2-x,1/2+y,1/2-z
3 -x,-y,-z
4 1/2+x,1/2-y,1/2+z
_cell_length_a                   18.3498(15)
_cell_length_b                   20.1355(17)
_cell_length_c                   18.6306(16)
_cell_angle_alpha                90
_cell_angle_beta                 102.8900(10)
_cell_angle_gamma                90
_cell_volume                     6710.21
loop_
_atom_site_label
_atom_site_type_symbol
_atom_site_fract_x
_atom_site_fract_y
_atom_site_fract_z
O1 O 0.66576(16) 0.59127(14) 0.30726(16)
H18 H 0.6205(14) 0.603(3) 0.302(4)
H19 H 0.686(3) 0.617(3) 0.282(4)
O2 O 0.15525(16) 0.40479(14) 0.81683(16)
H1 H 0.1254 0.3805 0.8389
H20 H 0.166(4) 0.3796(17) 0.785(3)
O3 O 0.65834(16) 0.96480(14) 0.28114(16)
H2 H 0.6266 0.9293 0.2694
H3 H 0.6346 0.9998 0.2946
O4 O 0.21192(16) 0.03371(14) 0.77226(16)
H4 H 0.1793 0.0667 0.7489
H5 H 0.2519 0.0340 0.7524
O5 O 0.2496(3) 0.3181(3) 0.7562(3)
H22 H 0.218(3) 0.292(3) 0.731(4)
H23 H 0.281(4) 0.295(3) 0.787(4)
O6 O 0.6172(3) 0.7473(3) 0.1707(3)
H6 H 0.5722 0.7275 0.1753
H7 H 0.6572 0.7275 0.2007
O7 O -0.0846(6) 0.4624(4) 0.7077(5)
H17 H -0.064(4) 0.425(2) 0.706(4)
H21 H -0.105(5) 0.463(4) 0.744(3)
C1 C 0.1958(5) 0.5785(4) 0.5382(10)
H8 H 0.1857 0.5875 0.5840
C2 C 0.1660(3) 0.5432(2) 0.5261(3)
H9 H 0.1682 0.5385 0.4770
C3 C -0.1375(4) -0.0103(3) 0.4818(4)
C4 C -0.0967(4) 0.0178(4) 0.5433(4)
H14 H -0.1005 0.0015 0.5891
C5 C -0.2219(4) -0.1019(4) 0.4397(5)
H15 H -0.2150 -0.0929 0.3927
C6 C -0.1866(4) -0.0680(4) 0.4915(5)
H16 H -0.1906 -0.0788 0.5390
Ag1 Ag 0.03466(3) 0.17543(2) 0.47781(3)
Ag2 Ag 0.52780(3) 0.67409(3) 0.44320(3)
Ag3 Ag 0.43829(3) 0.80340(2) 0.52760(3)
Ag4 Ag -0.05228(3) 0.30090(3) 0.55509(4)
S1 S 0.07850(9) 0.18753(8) 0.69198(9)
S2 S 0.40487(9) 0.78317(7) 0.30405(8)
N1 N 0.3563(3) 0.7286(2) 0.5304(3)
N2 N -0.1400(3) 0.2292(2) 0.5463(3)
O10 O 0.4336(3) 0.7671(2) 0.3812(2)
O11 O -0.0399(3) 0.3280(2) 0.7077(3)
O12 O 0.5245(2) 0.6434(2) 0.3059(2)
N3 N -0.0416(3) 0.0950(2) 0.4764(3)
O13 O 0.4634(2) 0.7977(2) 0.2666(2)
N4 N 0.4565(3) 0.5957(2) 0.4669(3)
N5 N -0.3812(3) -0.2563(2) 0.4504(3)
N6 N 0.0196(3) 0.3820(2) 0.5441(3)
O14 O 0.0385(3) 0.2042(3) 0.6188(3)
C7 C 0.3189(3) 0.6991(3) 0.4696(4)
H24 H 0.3290 0.7114 0.4246
O15 O 0.0352(3) 0.3266(2) 0.8197(3)
N7 N 0.1116(3) 0.2538(2) 0.4738(3)
N8 N -0.4827(3) -0.1196(2) 0.5216(3)
C8 C -0.4017(4) -0.0330(3) 0.5790(4)
H25 H -0.3803 -0.0101 0.6219
C9 C 0.4535(3) 0.5752(3) 0.5342(4)
H26 H 0.4841 0.5958 0.5746
C10 C -0.1757(3) 0.1997(3) 0.4848(4)
H27 H -0.1644 0.2124 0.4405
C11 C 0.1096(4) 0.4619(4) 0.5992(5)
H28 H 0.1379 0.4805 0.6421
C12 C 0.2062(3) 0.3309(3) 0.5300(3)
H29 H 0.2358 0.3486 0.5728
O16 O 0.3470(3) 0.8334(2) 0.2929(3)
C13 C -0.2292(4) 0.1506(3) 0.4839(4)
H30 H -0.2531 0.1311 0.4397
C14 C 0.1559(3) 0.2813(3) 0.5344(3)
H31 H 0.1522 0.2661 0.5806
O17 O 0.5033(3) 0.6662(2) 0.1854(3)
C15 C -0.1581(3) 0.2102(3) 0.6086(4)
H32 H -0.1341 0.2309 0.6521
C16 C 0.2128(3) 0.3545(3) 0.4617(3)
C17 C -0.2466(3) 0.1309(3) 0.5501(4)
C18 C 0.1171(3) 0.2764(3) 0.4078(3)
H33 H 0.0866 0.2582 0.3657
C19 C 0.3600(3) 0.7090(3) 0.2639(3)
C20 C 0.3608(3) 0.4928(3) 0.4884(3)
C21 C 0.3401(4) 0.7107(3) 0.5942(4)
H34 H 0.3651 0.7316 0.6372
C22 C -0.3349(4) 0.0408(3) 0.5036(4)
H35 H -0.3272 0.0487 0.4567
C23 C -0.4205(4) -0.0500(3) 0.4507(4)
H36 H -0.4118 -0.0393 0.4048
C24 C 0.1669(4) 0.3263(3) 0.4001(3)
H37 H 0.1694 0.3409 0.3534
C25 C -0.2094(3) 0.1623(3) 0.6127(4)
H38 H -0.2192 0.1510 0.6581
C26 C -0.3858(3) -0.0144(3) 0.5124(4)
C27 C -0.0815(4) 0.0681(3) 0.4145(4)
H39 H -0.0765 0.0853 0.3695
C28 C 0.0241(4) 0.4069(3) 0.4785(4)
H40 H -0.0062 0.3890 0.4361
C29 C 0.4112(3) 0.5646(3) 0.4105(4)
H41 H 0.4123 0.5779 0.3630
C30 C 0.0717(4) 0.4578(3) 0.4714(5)
H42 H 0.0745 0.4724 0.4248
C31 C -0.0070(4) 0.3001(3) 0.7661(4)
C32 C -0.3009(4) 0.0780(3) 0.5556(4)
H43 H -0.3114 0.0713 0.6016
C33 C 0.2637(3) 0.4076(3) 0.4505(3)
H44 H 0.2612 0.4211 0.4022
C34 C 0.0084(3) 0.1746(3) 0.7429(3)
C35 C 0.3636(3) 0.5147(3) 0.4186(3)
H45 H 0.3331 0.4953 0.3774
C36 C 0.3123(3) 0.4379(3) 0.5025(4)
H46 H 0.3166 0.4240 0.5508
C37 C -0.3678(4) -0.2325(3) 0.3876(4)
H47 H -0.3951 -0.2499 0.3435
C38 C 0.2842(4) 0.7024(4) 0.2594(4)
H48 H 0.2580 0.7375 0.2741
C39 C -0.3412(3) -0.2305(3) 0.5129(4)
H49 H -0.3491 -0.2462 0.5575
C40 C 0.4826(4) 0.6568(3) 0.2445(4)
C41 C -0.4680(4) -0.1014(3) 0.4576(4)
H50 H -0.4909 -0.1246 0.4154
C42 C 0.3996(3) 0.6577(3) 0.2411(3)
C43 C -0.4495(4) -0.0859(3) 0.5814(4)
H51 H -0.4587 -0.0983 0.6266
C44 C -0.2753(4) -0.1569(3) 0.4478(5)
C45 C -0.2882(3) -0.1811(3) 0.5138(4)
H52 H -0.2613 -0.1642 0.5584
C46 C 0.0626(4) 0.4095(4) 0.6041(4)
H53 H 0.0608 0.3928 0.6502
C47 C 0.4071(3) 0.5248(3) 0.5464(3)
H54 H 0.4069 0.5122 0.5944
C48 C -0.0249(3) 0.2270(3) 0.7724(3)
O18 O 0.1244(3) 0.2393(3) 0.7266(3)
O19 O 0.1135(4) 0.1246(3) 0.6912(4)
C49 C -0.0818(4) 0.2123(4) 0.8074(4)
H55 H -0.1043 0.2465 0.8281
C50 C 0.2657(4) 0.6511(4) 0.4705(5)
H56 H 0.2406 0.6315 0.4268
C51 C -0.1301(4) 0.0156(3) 0.4150(4)
H57 H -0.1574 -0.0020 0.3710
C52 C 0.1153(4) 0.4873(3) 0.5326(6)
C53 C 0.3597(4) 0.6010(3) 0.2132(3)
H58 H 0.3848 0.5663 0.1961
C54 C 0.2496(4) 0.6323(3) 0.5365(6)
C55 C -0.0501(4) 0.0696(3) 0.5398(4)
H59 H -0.0231 0.0879 0.5836
C56 C -0.3163(4) -0.1843(3) 0.3842(4)
H60 H -0.3091 -0.1701 0.3388
C57 C 0.2846(5) 0.5948(4) 0.2099(4)
H61 H 0.2596 0.5561 0.1915
C58 C -0.0159(4) 0.1104(4) 0.7487(4)
H62 H 0.0069 0.0755 0.7293
C59 C 0.2885(4) 0.6633(4) 0.5987(5)
H63 H 0.2796 0.6519 0.6443
C60 C -0.0735(5) 0.0975(4) 0.7828(4)
H64 H -0.0902 0.0542 0.7855
C61 C -0.1059(5) 0.1480(5) 0.8124(4)
H65 H -0.1444 0.1392 0.8362
C62 C 0.2468(4) 0.6453(4) 0.2338(4)
H66 H 0.1961 0.6411 0.2327
Ag2_2 Ag -0.47220(3) -0.32591(3) 0.44320(3)
Ag3_2 Ag -0.56171(3) -0.19660(2) 0.52760(3)
N5_2 N 0.6188(3) 0.7437(2) 0.4504(3)
N8_2 N 0.5173(3) 0.8804(2) 0.5216(3)
O8 O 0.4644(3) 0.1008(2) 0.7893(3)
H10 H 0.4590 0.1449 0.8010
H11 H 0.5036 0.0926 0.7652
O9 O 0.2071(3) 0.4584(2) 0.2642(3)
H12 H 0.1786 0.4835 0.2289
H13 H 0.1935 0.4157 0.2555
loop_
_geom_bond_atom_site_label_1
_geom_bond_atom_site_label_2
_geom_bond_site_symmetry_1
_geom_bond_site_symmetry_2
O1 H18 1_555 1_555
O2 H1 1_555 1_555
O3 H2 1_555 1_555
H3 O3 1_555 1_555
O4 H4 1_555 1_555
H5 O4 1_555 1_555
O5 H22 1_555 1_555
O6 H6 1_555 1_555
H7 O6 1_555 1_555
O7 H17 1_555 1_555
C1 H8 1_555 1_555
C2 C1 1_555 1_555
H9 C2 1_555 1_555
O8 H10 1_555 1_555
H11 O8 1_555 1_555
O9 H12 1_555 1_555
H13 O9 1_555 1_555
C3 C4 1_555 1_555
C4 H14 1_555 1_555
C5 H15 1_555 1_555
C6 C3 1_555 1_555
H16 C6 1_555 1_555
H19 O1 1_555 1_555
H20 O2 1_555 1_555
H21 O7 1_555 1_555
H23 O5 1_555 1_555
Ag1 N3 1_555 1_555
Ag2 O10 1_555 1_555
Ag3 N1 1_555 1_555
Ag4 N2 1_555 1_555
S1 O14 1_555 1_555
S2 O10 1_555 1_555
N1 C7 1_555 1_555
N2 C10 1_555 1_555
O11 C31 1_555 1_555
O12 Ag2 1_555 1_555
N3 C27 1_555 1_555
O13 S2 1_555 1_555
N4 Ag2 1_555 1_555
N5 C37 1_555 1_555
N6 Ag4 1_555 1_555
O14 Ag1 1_555 1_555
C7 H24 1_555 1_555
O15 C31 1_555 1_555
N7 Ag1 1_555 1_555
N8 C41 1_555 1_555
C8 H25 1_555 1_555
C9 N4 1_555 1_555
H26 C9 1_555 1_555
C10 H27 1_555 1_555
C11 H28 1_555 1_555
C12 H29 1_555 1_555
O16 S2 1_555 1_555
C13 C10 1_555 1_555
H30 C13 1_555 1_555
C14 N7 1_555 1_555
H31 C14 1_555 1_555
O17 C40 1_555 1_555
C15 N2 1_555 1_555
H32 C15 1_555 1_555
C16 C12 1_555 1_555
C17 C13 1_555 1_555
C18 N7 1_555 1_555
H33 C18 1_555 1_555
C19 S2 1_555 1_555
C20 C35 1_555 1_555
C21 N1 1_555 1_555
H34 C21 1_555 1_555
C22 H35 1_555 1_555
C23 H36 1_555 1_555
C24 C16 1_555 1_555
H37 C24 1_555 1_555
C25 C15 1_555 1_555
H38 C25 1_555 1_555
C26 C8 1_555 1_555
C27 H39 1_555 1_555
C28 N6 1_555 1_555
H40 C28 1_555 1_555
C29 N4 1_555 1_555
H41 C29 1_555 1_555
C30 C28 1_555 1_555
H42 C30 1_555 1_555
C31 C48 1_555 1_555
C32 C17 1_555 1_555
H43 C32 1_555 1_555
C33 C16 1_555 1_555
H44 C33 1_555 1_555
C34 S1 1_555 1_555
C35 C29 1_555 1_555
H45 C35 1_555 1_555
C36 C20 1_555 1_555
H46 C36 1_555 1_555
C37 H47 1_555 1_555
C38 C19 1_555 1_555
H48 C38 1_555 1_555
C39 N5 1_555 1_555
H49 C39 1_555 1_555
C40 O12 1_555 1_555
C41 C23 1_555 1_555
H50 C41 1_555 1_555
C42 C19 1_555 1_555
C43 N8 1_555 1_555
H51 C43 1_555 1_555
C44 C5 1_555 1_555
C45 C39 1_555 1_555
H52 C45 1_555 1_555
C46 N6 1_555 1_555
H53 C46 1_555 1_555
C47 C9 1_555 1_555
H54 C47 1_555 1_555
C48 C34 1_555 1_555
O18 S1 1_555 1_555
O19 S1 1_555 1_555
C49 C48 1_555 1_555
H55 C49 1_555 1_555
C50 C7 1_555 1_555
H56 C50 1_555 1_555
C51 C3 1_555 1_555
H57 C51 1_555 1_555
C52 C2 1_555 1_555
C53 C42 1_555 1_555
H58 C53 1_555 1_555
C54 C1 1_555 1_555
C55 C4 1_555 1_555
H59 C55 1_555 1_555
C56 C37 1_555 1_555
H60 C56 1_555 1_555
C57 C53 1_555 1_555
H61 C57 1_555 1_555
C58 C34 1_555 1_555
H62 C58 1_555 1_555
C59 C21 1_555 1_555
H63 C59 1_555 1_555
C60 C58 1_555 1_555
H64 C60 1_555 1_555
C61 C49 1_555 1_555
H65 C61 1_555 1_555
C62 C38 1_555 1_555
H66 C62 1_555 1_555
Ag2_2 N5 1_555 1_555
Ag3_2 N8 1_555 1_555
N5_2 Ag2 1_555 1_555
N8_2 Ag3 1_555 1_555
C5 C6 1_555 1_555
Ag4 O14 1_555 1_555
N3 C55 1_555 1_555
C8 C43 1_555 1_555
C11 C46 1_555 1_555
C11 C52 1_555 1_555
C12 C14 1_555 1_555
C17 C25 1_555 1_555
C18 C24 1_555 1_555
C20 C47 1_555 1_555
C22 C26 1_555 1_555
C22 C32 1_555 1_555
C23 C26 1_555 1_555
C27 C51 1_555 1_555
C30 C52 1_555 1_555
C33 C36 1_555 1_555
C40 C42 1_555 1_555
C44 C45 1_555 1_555
C44 C56 1_555 1_555
C50 C54 1_555 1_555
C54 C59 1_555 1_555
C57 C62 1_555 1_555
C60 C61 1_555 1_555

#END
