
#######################################################################
#
#                 Cambridge Crystallographic Data Centre
#                                CCDC 
#
#######################################################################
#
# If this CIF has been generated from an entry in the Cambridge 
# Structural Database, then it will include bibliographic, chemical, 
# crystal, experimental, refinement or atomic coordinate data resulting 
# from the CCDC's data processing and validation procedures.
#
#######################################################################

data_OGUVES
_symmetry_cell_setting           monoclinic
_symmetry_space_group_name_H-M   'C c'
_symmetry_Int_Tables_number      9
_space_group_name_Hall           'C -2yc'
loop_
_symmetry_equiv_pos_site_id
_symmetry_equiv_pos_as_xyz
1 x,y,z
2 x,-y,1/2+z
3 1/2+x,1/2+y,z
4 1/2+x,1/2-y,1/2+z
_cell_length_a                   11.7736(4)
_cell_length_b                   23.5821(7)
_cell_length_c                   7.9206(2)
_cell_angle_alpha                90
_cell_angle_beta                 100.2960(10)
_cell_angle_gamma                90
_cell_volume                     2163.71
loop_
_atom_site_label
_atom_site_type_symbol
_atom_site_fract_x
_atom_site_fract_y
_atom_site_fract_z
Mo1 Mo 0.55332(4) 0.389761(16) 0.82504(5)
Mo2 Mo 0.68172(4) 0.508450(16) 0.57916(5)
Mo3 Mo 0.43130(3) 0.453280(16) 0.46694(5)
Mn1 Mn 0.33833(6) 0.35259(3) 1.10607(9)
C1 C 0.1199(5) 0.4518(3) 0.7177(8)
H1 H 0.1000 0.4710 0.6141
C2 C 0.0530(6) 0.4469(2) 0.8413(8)
H2 H -0.0200 0.4621 0.8403
C3 C 0.1194(4) 0.4138(2) 0.9705(7)
C4 C 0.0942(5) 0.3935(2) 1.1341(7)
C5 C -0.0032(5) 0.4088(3) 1.1949(8)
H3 H -0.0569 0.4332 1.1322
C6 C -0.0210(6) 0.3873(3) 1.3525(9)
H4 H -0.0844 0.3986 1.3993
C7 C 0.0569(6) 0.3491(3) 1.4363(8)
H5 H 0.0451 0.3326 1.5383
C8 C 0.1540(5) 0.3355(2) 1.3669(7)
H6 H 0.2072 0.3101 1.4260
C9 C 0.2303(6) 0.2715(2) 0.8016(7)
H7 H 0.2242 0.3044 0.7359
C10 C 0.1848(6) 0.2213(3) 0.7268(8)
H8 H 0.1469 0.2210 0.6132
C11 C 0.1958(6) 0.1723(3) 0.8203(8)
H9 H 0.1655 0.1385 0.7713
C12 C 0.2528(5) 0.1738(2) 0.9899(7)
H10 H 0.2623 0.1410 1.0559
C13 C 0.2955(4) 0.2256(2) 1.0587(6)
C14 C 0.3564(4) 0.2326(2) 1.2362(7)
C15 C 0.3813(6) 0.1945(3) 1.3737(8)
H11 H 0.3632 0.1561 1.3751
C16 C 0.4380(6) 0.2266(3) 1.5042(8)
H12 H 0.4673 0.2140 1.6147
H13 H 0.289(3) 0.417(4) 0.726(8)
H14 H 0.489(5) 0.311(2) 1.503(11)
N1 N 0.2193(4) 0.42407(18) 0.7722(5)
N2 N 0.2194(4) 0.40028(18) 0.9286(5)
N3 N 0.1742(4) 0.3572(2) 1.2187(6)
N4 N 0.2828(4) 0.27381(18) 0.9661(6)
N5 N 0.3956(4) 0.28407(19) 1.2823(5)
N6 N 0.4444(4) 0.2793(2) 1.4460(6)
O1 O 0.8168(3) 0.48160(16) 0.5923(5)
O2 O 0.6799(4) 0.53772(16) 0.7762(5)
O3 O 0.5954(3) 0.44035(15) 0.6115(4)
O4 O 0.6902(3) 0.42254(14) 0.9490(5)
O5 O 0.6059(4) 0.32798(15) 0.7577(5)
O6 O 0.5125(3) 0.48197(15) 0.9225(5)
O7 O 0.4788(3) 0.36625(16) 0.9823(5)
O8 O 0.3009(4) 0.4819(2) 0.4791(7)
O9 O 0.4160(3) 0.39946(16) 0.6509(5)
O10 O 0.4153(4) 0.41074(18) 0.2877(5)
Mo2A Mo 0.68172(4) 0.491550(16) 1.07916(5)
Mo3A Mo 0.43130(3) 0.546720(16) 0.96694(5)
Mn1_2 Mn 0.33833(6) 0.35259(3) 0.10607(9)
O4A O 0.6902(3) 0.57746(14) 0.4490(5)
O6A O 0.5125(3) 0.51803(15) 0.4225(5)
O10_2 O 0.4153(4) 0.41074(18) 1.2877(5)
loop_
_geom_bond_atom_site_label_1
_geom_bond_atom_site_label_2
_geom_bond_site_symmetry_1
_geom_bond_site_symmetry_2
Mo1 O3 1_555 1_555
Mo2 O1 1_555 1_555
Mo3 O3 1_555 1_555
Mn1 N2 1_555 1_555
C1 H1 1_555 1_555
C2 C1 1_555 1_555
H2 C2 1_555 1_555
C3 C2 1_555 1_555
C4 C3 1_555 1_555
C5 C4 1_555 1_555
H3 C5 1_555 1_555
C6 C5 1_555 1_555
H4 C6 1_555 1_555
C7 C6 1_555 1_555
H5 C7 1_555 1_555
C8 C7 1_555 1_555
H6 C8 1_555 1_555
C9 H7 1_555 1_555
C10 C9 1_555 1_555
H8 C10 1_555 1_555
C11 C10 1_555 1_555
H9 C11 1_555 1_555
C12 C11 1_555 1_555
H10 C12 1_555 1_555
C13 C12 1_555 1_555
C14 C13 1_555 1_555
C15 C14 1_555 1_555
H11 C15 1_555 1_555
C16 C15 1_555 1_555
H12 C16 1_555 1_555
H13 N1 1_555 1_555
H14 N6 1_555 1_555
N1 C1 1_555 1_555
N2 C3 1_555 1_555
N3 Mn1 1_555 1_555
N4 Mn1 1_555 1_555
N5 Mn1 1_555 1_555
N6 C16 1_555 1_555
O2 Mo2 1_555 1_555
O3 Mo2 1_555 1_555
O4 Mo1 1_555 1_555
O5 Mo1 1_555 1_555
O6 Mo1 1_555 1_555
O7 Mo1 1_555 1_555
O8 Mo3 1_555 1_555
O9 Mo1 1_555 1_555
O10 Mo3 1_555 1_555
Mo2A O4 1_555 1_555
Mo3A O6 1_555 1_555
Mn1_2 O10 1_555 1_555
O4A Mo2 1_555 1_555
O6A Mo2 1_555 1_555
O10_2 Mn1 1_555 1_555
Mo3 O9 1_555 1_555
Mo3 O6A 1_555 1_555
Mn1 O7 1_555 1_555
C4 N3 1_555 1_555
C8 N3 1_555 1_555
C9 N4 1_555 1_555
C13 N4 1_555 1_555
C14 N5 1_555 1_555
N1 N2 1_555 1_555
N5 N6 1_555 1_555
O6 Mo2A 1_555 1_555

#END
