
#######################################################################
#
#                 Cambridge Crystallographic Data Centre
#                                CCDC 
#
#######################################################################
#
# If this CIF has been generated from an entry in the Cambridge 
# Structural Database, then it will include bibliographic, chemical, 
# crystal, experimental, refinement or atomic coordinate data resulting 
# from the CCDC's data processing and validation procedures.
#
#######################################################################

data_OGUVOC
_symmetry_cell_setting           monoclinic
_symmetry_space_group_name_H-M   'C c'
_symmetry_Int_Tables_number      9
_space_group_name_Hall           'C -2yc'
loop_
_symmetry_equiv_pos_site_id
_symmetry_equiv_pos_as_xyz
1 x,y,z
2 x,-y,1/2+z
3 1/2+x,1/2+y,z
4 1/2+x,1/2-y,1/2+z
_cell_length_a                   11.693(4)
_cell_length_b                   23.330(6)
_cell_length_c                   7.8755(16)
_cell_angle_alpha                90
_cell_angle_beta                 100.37(3)
_cell_angle_gamma                90
_cell_volume                     2113.33
loop_
_atom_site_label
_atom_site_type_symbol
_atom_site_fract_x
_atom_site_fract_y
_atom_site_fract_z
Mo1 Mo 0.12649(7) -0.11229(3) -0.27007(10)
Mo2 Mo 0.25651(7) 0.00818(3) -0.51811(10)
Mo3 Mo 0.00459(7) -0.04730(2) -0.63331(10)
Ni1 Ni -0.09243(10) -0.14972(4) 0.00952(14)
O1 O -0.0098(5) -0.1040(2) -0.4522(8)
O2 O 0.0498(6) -0.1366(3) -0.1151(8)
O3 O 0.2640(5) -0.0785(2) -0.1455(8)
O4 O 0.0849(5) -0.0190(2) -0.1755(8)
O5 O 0.3944(6) -0.0182(3) -0.5037(10)
O6 O 0.2539(6) 0.0366(3) -0.3185(9)
O7 O -0.1266(7) -0.0194(3) -0.6158(11)
O8 O 0.1701(5) -0.0608(2) -0.4883(8)
O9 O -0.0143(6) -0.0889(3) -0.8188(8)
O10 O 0.1841(6) -0.1738(2) -0.3356(8)
N1 N -0.1434(7) -0.2246(3) -0.1302(10)
N2 N -0.0279(7) -0.2136(3) 0.1806(10)
N3 N 0.0227(7) -0.2176(3) 0.3442(10)
N4 N -0.2469(6) -0.1447(3) 0.1221(10)
N5 N -0.1987(6) -0.0995(3) -0.1624(9)
N6 N -0.2012(7) -0.0767(3) -0.3194(9)
C1 C -0.1951(10) -0.2274(4) -0.2944(13)
H1 H -0.2004 -0.1943 -0.3609
C2 C -0.2417(10) -0.2779(4) -0.3708(14)
H2 H -0.2814 -0.2775 -0.4843
C3 C -0.2295(10) -0.3270(4) -0.2816(14)
H3 H -0.2593 -0.3611 -0.3328
C4 C -0.1705(8) -0.3264(4) -0.1080(12)
H4 H -0.1595 -0.3598 -0.0427
C5 C -0.1292(7) -0.2733(3) -0.0384(11)
C6 C -0.0675(7) -0.2670(3) 0.1391(12)
C7 C -0.0403(10) -0.3035(4) 0.2794(13)
H5 H -0.0585 -0.3422 0.2846
C8 C 0.0180(9) -0.2708(4) 0.4058(14)
H6 H 0.0497 -0.2829 0.5168
C9 C -0.2666(8) -0.1684(4) 0.2728(12)
H7 H -0.2128 -0.1942 0.3312
C10 C -0.3650(10) -0.1551(5) 0.3410(14)
H8 H -0.3791 -0.1734 0.4400
C11 C -0.4414(9) -0.1145(4) 0.2606(14)
H9 H -0.5040 -0.1029 0.3102
C12 C -0.4248(9) -0.0911(4) 0.1065(14)
H10 H -0.4775 -0.0649 0.0479
C13 C -0.3264(8) -0.1077(3) 0.0399(11)
C14 C -0.3019(7) -0.0857(3) -0.1234(12)
C15 C -0.3690(9) -0.0530(4) -0.2537(14)
H11 H -0.4427 -0.0376 -0.2561
C16 C -0.2999(9) -0.0491(4) -0.3774(14)
H12 H -0.3190 -0.0305 -0.4830
H13 H 0.078(9) -0.189(4) 0.398(16)
H14 H -0.137(6) -0.086(4) -0.377(11)
Mo2A Mo 0.25651(7) -0.00818(3) -0.01811(10)
Mo3A Mo 0.00459(7) 0.04730(2) -0.13331(10)
Ni1_2 Ni -0.09243(10) -0.14972(4) -0.99048(14)
O3A O 0.2640(5) 0.0785(2) -0.6455(8)
O4A O 0.0849(5) 0.0190(2) -0.6755(8)
O9_2 O -0.0143(6) -0.0889(3) 0.1812(8)
loop_
_geom_bond_atom_site_label_1
_geom_bond_atom_site_label_2
_geom_bond_site_symmetry_1
_geom_bond_site_symmetry_2
Mo1 O1 1_555 1_555
Mo2 O5 1_555 1_555
Mo3 O1 1_555 1_555
Ni1 O2 1_555 1_555
O2 Mo1 1_555 1_555
O3 Mo1 1_555 1_555
O4 Mo1 1_555 1_555
O6 Mo2 1_555 1_555
O7 Mo3 1_555 1_555
O8 Mo1 1_555 1_555
O9 Mo3 1_555 1_555
O10 Mo1 1_555 1_555
N1 Ni1 1_555 1_555
N2 Ni1 1_555 1_555
N3 N2 1_555 1_555
N4 Ni1 1_555 1_555
N5 Ni1 1_555 1_555
N6 N5 1_555 1_555
C1 N1 1_555 1_555
H1 C1 1_555 1_555
C2 C1 1_555 1_555
H2 C2 1_555 1_555
C3 C2 1_555 1_555
H3 C3 1_555 1_555
C4 C3 1_555 1_555
H4 C4 1_555 1_555
C5 N1 1_555 1_555
C6 N2 1_555 1_555
C7 C6 1_555 1_555
H5 C7 1_555 1_555
C8 N3 1_555 1_555
H6 C8 1_555 1_555
C9 N4 1_555 1_555
H7 C9 1_555 1_555
C10 C9 1_555 1_555
H8 C10 1_555 1_555
C11 C10 1_555 1_555
H9 C11 1_555 1_555
C12 C11 1_555 1_555
H10 C12 1_555 1_555
C13 N4 1_555 1_555
C14 N5 1_555 1_555
C15 C14 1_555 1_555
H11 C15 1_555 1_555
C16 N6 1_555 1_555
H12 C16 1_555 1_555
H13 N3 1_555 1_555
H14 N6 1_555 1_555
Mo2A O3 1_555 1_555
Mo3A O4 1_555 1_555
Ni1_2 O9 1_555 1_555
O3A Mo2 1_555 1_555
O4A Mo2 1_555 1_555
O9_2 Ni1 1_555 1_555
Mo2 O8 1_555 1_555
Mo3 O8 1_555 1_555
Mo3 O4A 1_555 1_555
O4 Mo2A 1_555 1_555
C4 C5 1_555 1_555
C5 C6 1_555 1_555
C7 C8 1_555 1_555
C12 C13 1_555 1_555
C13 C14 1_555 1_555
C15 C16 1_555 1_555

#END
