
#######################################################################
#
#                 Cambridge Crystallographic Data Centre
#                                CCDC 
#
#######################################################################
#
# If this CIF has been generated from an entry in the Cambridge 
# Structural Database, then it will include bibliographic, chemical, 
# crystal, experimental, refinement or atomic coordinate data resulting 
# from the CCDC's data processing and validation procedures.
#
#######################################################################

data_OGUVAO
_symmetry_cell_setting           monoclinic
_symmetry_space_group_name_H-M   'P 21'
_symmetry_Int_Tables_number      4
_space_group_name_Hall           'P 2yb'
loop_
_symmetry_equiv_pos_site_id
_symmetry_equiv_pos_as_xyz
1 x,y,z
2 -x,1/2+y,-z
_cell_length_a                   13.5178(13)
_cell_length_b                   10.4635(10)
_cell_length_c                   13.5715(13)
_cell_angle_alpha                90
_cell_angle_beta                 117.8690(10)
_cell_angle_gamma                90
_cell_volume                     1696.96
loop_
_atom_site_label
_atom_site_type_symbol
_atom_site_fract_x
_atom_site_fract_y
_atom_site_fract_z
N1 N 0.7706(5) -0.3872(5) 0.0221(5)
N2 N 0.9383(5) -0.4125(5) 0.1997(4)
N3 N 0.8897(5) 0.0750(5) 0.4735(4)
C1 C 0.8396(6) -0.3336(7) 0.1337(5)
H1 H 0.8634 -0.2482 0.1265
H2 H 0.7949 -0.3269 0.1723
C2 C 0.8655(6) 0.1536(7) 0.3750(5)
H3 H 0.9353 0.1809 0.3777
H4 H 0.8247 0.2295 0.3759
C3 C 0.9525(6) -0.0398(6) 0.4694(5)
H5 H 1.0222 -0.0130 0.4716
H6 H 0.9706 -0.0924 0.5345
N4 N 0.9393(4) -0.4802(5) 0.0303(4)
C4 C 1.0060(6) -0.4235(7) 0.1414(5)
H7 H 1.0708 -0.4767 0.1845
H8 H 1.0322 -0.3396 0.1339
C5 C 0.9005(6) -0.5410(7) 0.2105(5)
H9 H 0.9651 -0.5950 0.2526
H10 H 0.8579 -0.5357 0.2513
C6 C 0.7349(5) -0.5175(7) 0.0352(6)
H11 H 0.6880 -0.5119 0.0715
H12 H 0.6909 -0.5554 -0.0378
C7 C 0.8986(6) -0.6071(7) 0.0431(6)
H13 H 0.8542 -0.6447 -0.0300
H14 H 0.9622 -0.6627 0.0846
C8 C 0.8393(6) -0.4000(7) -0.0334(5)
H15 H 0.8629 -0.3159 -0.0439
H16 H 0.7949 -0.4376 -0.1064
O1 O 1.1937(4) -0.3846(6) 0.0287(4)
O2 O 1.2266(5) -0.5913(6) 0.0546(5)
O3 O 1.4110(6) -0.4152(10) 0.0097(5)
C9 C 1.3497(6) -0.4494(7) 0.1939(6)
C10 C 1.4454(6) -0.3831(8) 0.2114(6)
C11 C 1.2520(6) -0.4797(8) 0.0809(6)
C12 C 1.5225(7) -0.3508(9) 0.3189(7)
H17 H 1.5863 -0.3051 0.3311
C13 C 1.5063(8) -0.3850(11) 0.4072(7)
H18 H 1.5591 -0.3626 0.4790
C14 C 1.3368(7) -0.4833(8) 0.2865(6)
H19 H 1.2735 -0.5289 0.2758
C15 C 1.4131(8) -0.4521(10) 0.3909(7)
H20 H 1.4024 -0.4759 0.4513
N5 N 0.8309(5) -0.5988(5) 0.1009(4)
O4 O 0.9630(4) -0.3308(5) -0.2249(4)
C16 C 0.7571(5) -0.5385(7) -0.3104(5)
O5 O 0.8186(5) -0.6730(6) -0.4099(5)
S1 S 0.85842(15) -0.31445(17) -0.32736(14)
C17 C 0.8428(6) -0.6195(7) -0.3201(6)
C18 C 0.7552(5) -0.4054(7) -0.3131(5)
C19 C 0.6738(7) -0.6011(8) -0.2980(7)
H21 H 0.6749 -0.6898 -0.2944
C20 C 0.5885(6) -0.5352(8) -0.2909(7)
H22 H 0.5331 -0.5793 -0.2827
C21 C 0.6689(6) -0.3398(8) -0.3057(5)
H23 H 0.6676 -0.2510 -0.3074
C22 C 0.5866(6) -0.4050(9) -0.2961(6)
H24 H 0.5286 -0.3604 -0.2930
O6 O 0.8204(5) -0.1856(6) -0.3444(5)
C23 C 0.7818(6) 0.0318(7) 0.4660(6)
H25 H 0.7966 -0.0217 0.5298
H26 H 0.7398 0.1058 0.4687
C24 C 0.6933(6) 0.0396(7) 0.2689(6)
H27 H 0.6502 0.1141 0.2681
H28 H 0.6492 -0.0090 0.2016
O7 O 1.5934(5) -0.3654(7) 0.1453(5)
O8 O 1.4492(9) -0.2077(8) 0.0821(9)
O9 O 0.9382(4) -0.6304(5) -0.2363(4)
O10 O 0.8665(3) -0.3696(4) -0.4201(3)
O13 O 0.4633(3) -0.1753(4) -0.1381(3)
H33 H 0.4004 -0.1652 -0.2023
H34 H 0.4898 -0.1029 -0.1238
Ag1 Ag 1.02668(5) -0.50048(6) -0.08462(4)
Ag2 Ag 1.01127(5) -0.28913(6) 0.37268(4)
Ag3 Ag 1.22026(5) -0.29908(5) -0.12391(4)
Ag4 Ag 0.62775(5) -0.25723(6) -0.06876(5)
S2 S 1.47772(17) -0.3385(2) 0.10393(17)
N6 N 0.8879(5) -0.1162(6) 0.3681(4)
C25 C 0.7784(6) -0.1516(7) 0.3649(6)
N7 N 0.7985(5) 0.0817(6) 0.2700(5)
C26 C 0.8612(6) -0.0336(6) 0.2720(5)
H35 H 0.8177 -0.0820 0.2044
H36 H 0.9303 -0.0082 0.2723
N8 N 0.7154(5) -0.0386(6) 0.3656(5)
N3A N 1.1103(5) -0.4250(5) 0.5265(4)
O2A O 0.7734(5) -0.0913(6) -0.0546(5)
N5A N 1.1691(5) -0.0988(5) -0.1009(4)
O5A O 1.1814(5) -0.1730(6) 0.4099(5)
Ag2A Ag 0.98873(5) 0.21087(6) 0.62732(4)
Ag2A_2 Ag 0.98873(5) -0.78913(6) -0.37268(4)
Ag3A Ag 0.77974(5) -0.79908(5) 0.12391(4)
Ag3A_2 Ag 0.77974(5) 0.20092(5) 0.12391(4)
Ag4A Ag 1.37225(5) -0.75723(6) 0.06876(5)
N7A N 1.2015(5) -0.4183(6) -0.2700(5)
O11 O 1.2241(3) 0.0203(4) 0.6436(3)
H29 H 1.2153 0.0666 0.5880
H30 H 1.2742 0.0509 0.7041
O12 O 1.3835(3) -0.1777(4) 0.6027(3)
H31 H 1.3172 -0.1687 0.5484
H32 H 1.3904 -0.1787 0.6696
loop_
_geom_bond_atom_site_label_1
_geom_bond_atom_site_label_2
_geom_bond_site_symmetry_1
_geom_bond_site_symmetry_2
N1 C1 1_555 1_555
N2 C1 1_555 1_555
N3 C2 1_555 1_555
C1 H1 1_555 1_555
H2 C1 1_555 1_555
C2 H3 1_555 1_555
H4 C2 1_555 1_555
C3 N3 1_555 1_555
H5 C3 1_555 1_555
H6 C3 1_555 1_555
N4 C4 1_555 1_555
C4 N2 1_555 1_555
H7 C4 1_555 1_555
H8 C4 1_555 1_555
C5 N2 1_555 1_555
H9 C5 1_555 1_555
H10 C5 1_555 1_555
C6 N1 1_555 1_555
H11 C6 1_555 1_555
H12 C6 1_555 1_555
C7 N4 1_555 1_555
H13 C7 1_555 1_555
H14 C7 1_555 1_555
C8 N1 1_555 1_555
H15 C8 1_555 1_555
H16 C8 1_555 1_555
O1 C11 1_555 1_555
O2 C11 1_555 1_555
O3 Ag3 1_555 1_555
C9 C10 1_555 1_555
C10 C12 1_555 1_555
C11 C9 1_555 1_555
C12 H17 1_555 1_555
C13 C12 1_555 1_555
H18 C13 1_555 1_555
C14 C9 1_555 1_555
H19 C14 1_555 1_555
C15 C13 1_555 1_555
H20 C15 1_555 1_555
N5 C5 1_555 1_555
O4 S1 1_555 1_555
C16 C17 1_555 1_555
O5 C17 1_555 1_555
S1 C18 1_555 1_555
C17 O9 1_555 1_555
C18 C16 1_555 1_555
C19 C16 1_555 1_555
H21 C19 1_555 1_555
C20 C19 1_555 1_555
H22 C20 1_555 1_555
C21 C18 1_555 1_555
H23 C21 1_555 1_555
C22 C20 1_555 1_555
H24 C22 1_555 1_555
O6 S1 1_555 1_555
C23 N3 1_555 1_555
H25 C23 1_555 1_555
H26 C23 1_555 1_555
C24 H27 1_555 1_555
H28 C24 1_555 1_555
O7 S2 1_555 1_555
O8 S2 1_555 1_555
O9 Ag1 1_555 1_555
O10 S1 1_555 1_555
O11 H29 1_555 1_555
H30 O11 1_555 1_555
O12 H31 1_555 1_555
H32 O12 1_555 1_555
O13 H33 1_555 1_555
H34 O13 1_555 1_555
Ag1 N4 1_555 1_555
Ag2 N2 1_555 1_555
Ag3 O1 1_555 1_555
Ag4 N1 1_555 1_555
S2 O3 1_555 1_555
N6 C3 1_555 1_555
C25 N6 1_555 1_555
N7 C2 1_555 1_555
C26 N6 1_555 1_555
H35 C26 1_555 1_555
H36 C26 1_555 1_555
N8 C23 1_555 1_555
N3A Ag2 1_555 1_555
O2A Ag4 1_555 1_555
N5A Ag3 1_555 1_555
O5A Ag2 1_555 1_555
Ag2A N3 1_555 1_555
Ag2A_2 O5 1_555 1_555
Ag3A N5 1_555 1_555
Ag3A_2 N7 1_555 1_555
Ag4A O2 1_555 1_555
N7A Ag3 1_555 1_555
N4 C8 1_555 1_555
C6 N5 1_555 1_555
C7 N5 1_555 1_555
O1 Ag1 1_555 1_555
O2 Ag1 1_555 1_555
C10 S2 1_555 1_555
C14 C15 1_555 1_555
O4 Ag1 1_555 1_555
C21 C22 1_555 1_555
C24 N7 1_555 1_555
C24 N8 1_555 1_555
O13 Ag4 1_555 1_555
Ag2 N6 1_555 1_555
C25 N8 1_555 1_555
N7 C26 1_555 1_555

#END
