
#######################################################################
#
#                 Cambridge Crystallographic Data Centre
#                                CCDC 
#
#######################################################################
#
# If this CIF has been generated from an entry in the Cambridge 
# Structural Database, then it will include bibliographic, chemical, 
# crystal, experimental, refinement or atomic coordinate data resulting 
# from the CCDC's data processing and validation procedures.
#
#######################################################################

data_OGUWIX
_symmetry_cell_setting           triclinic
_symmetry_space_group_name_H-M   'P -1'
_symmetry_Int_Tables_number      2
_space_group_name_Hall           '-P 1'
loop_
_symmetry_equiv_pos_site_id
_symmetry_equiv_pos_as_xyz
1 x,y,z
2 -x,-y,-z
_cell_length_a                   9.3335(7)
_cell_length_b                   9.3730(7)
_cell_length_c                   17.1942(13)
_cell_angle_alpha                97.879(9)
_cell_angle_beta                 97.745(9)
_cell_angle_gamma                115.761(8)
_cell_volume                     1309.69
loop_
_atom_site_label
_atom_site_type_symbol
_atom_site_fract_x
_atom_site_fract_y
_atom_site_fract_z
Cu1 Cu 0.05079(5) 0.45896(5) 0.25199(3)
Cu2 Cu 0.5000 1.0000 0.5000
N1 N -0.0814(4) 0.5838(3) 0.25830(18)
N2 N -0.2775(4) 0.6318(4) 0.31804(19)
C1 C -0.1776(4) 0.5660(4) 0.3115(2)
H1 H -0.1741 0.4997 0.3481
C2 C -0.2771(4) 0.7265(5) 0.2669(3)
H2 H -0.3450 0.7779 0.2697
C3 C -0.1830(4) 0.7535(4) 0.2100(2)
H3 H -0.1854 0.8215 0.1742
C4 C -0.0855(4) 0.6783(4) 0.2071(2)
H4 H -0.0200 0.6935 0.1682
N3 N 0.1651(4) 0.3148(4) 0.24537(19)
N4 N 0.1482(4) 0.0631(4) 0.1832(2)
C5 C 0.0887(5) 0.1672(4) 0.1960(2)
H5 H -0.0189 0.1341 0.1672
C6 C 0.2991(5) 0.1110(4) 0.2262(3)
H6 H 0.3471 0.0404 0.2191
C7 C 0.3879(5) 0.2602(5) 0.2806(3)
H7 H 0.4932 0.2910 0.3114
C8 C 0.3160(4) 0.3609(4) 0.2876(2)
H8 H 0.3741 0.4648 0.3230
N5 N 0.1280(4) 0.5236(3) 0.36899(17)
C9 C 0.1786(4) 0.5942(4) 0.43560(19)
S1 S 0.25074(12) 0.69525(10) 0.52933(5)
N6 N -0.0358(4) 0.3883(3) 0.13580(17)
C10 C -0.1026(4) 0.3389(4) 0.06841(19)
S2 S -0.19753(11) 0.26541(11) -0.02644(5)
N7 N 0.9376(4) 0.9910(5) 0.6050(2)
N8 N 0.6774(4) 0.9292(3) 0.52845(17)
C11 C 0.8171(5) 1.0263(5) 0.5824(2)
H9 H 0.8312 1.1301 0.6068
C12 C 0.9151(5) 0.8444(6) 0.5702(3)
H10 H 0.9981 0.8140 0.5847
C13 C 0.7764(6) 0.7356(5) 0.5142(2)
H11 H 0.7621 0.6314 0.4904
C14 C 0.6591(5) 0.7839(5) 0.4940(2)
H12 H 0.5629 0.7122 0.4546
N9 N 0.4551(4) 0.8928(3) 0.38766(18)
C15 C 0.4006(4) 0.8227(4) 0.3212(2)
S3 S 0.32315(11) 0.72358(10) 0.22751(5)
Cu3 Cu -0.5000 0.0000 0.0000
N10 N -0.5876(4) 0.1637(3) 0.02763(17)
N11 N -0.5383(5) 0.4262(4) 0.0930(2)
C16 C -0.4946(5) 0.3100(5) 0.0762(2)
H13 H -0.3873 0.3331 0.1009
C17 C -0.6913(6) 0.3894(5) 0.0581(3)
H14 H -0.7279 0.4688 0.0684
C18 C -0.7963(5) 0.2430(5) 0.0085(3)
H15 H -0.9041 0.2196 -0.0154
C19 C -0.7405(4) 0.1305(5) -0.0056(2)
H16 H -0.8114 0.0270 -0.0395
N12 N -0.3983(4) 0.0427(4) 0.11185(18)
S4 S -0.24872(12) 0.15777(11) 0.27539(5)
C20 C -0.3366(4) 0.0912(4) 0.18034(19)
Cu1A Cu 0.94921(5) 1.54104(5) 0.74801(3)
N1A N 1.0814(4) 1.4162(3) 0.74170(18)
N2A N 1.2775(4) 1.3682(4) 0.68196(19)
C1A C 1.1776(4) 1.4340(4) 0.6885(2)
H1A H 1.1741 1.5003 0.6519
C2A C 1.2771(4) 1.2735(5) 0.7331(3)
H2A H 1.3450 1.2221 0.7303
C3A C 1.1830(4) 1.2465(4) 0.7900(2)
H3A H 1.1854 1.1785 0.8258
C4A C 1.0855(4) 1.3217(4) 0.7929(2)
H4A H 1.0200 1.3065 0.8318
N3A N 0.8349(4) 1.6852(4) 0.75463(19)
N4A N 0.8518(4) 1.9369(4) 0.8168(2)
C5A C 0.9113(5) 1.8328(4) 0.8040(2)
H5A H 1.0189 1.8659 0.8328
C6A C 0.7009(5) 1.8890(4) 0.7738(3)
H6A H 0.6529 1.9596 0.7809
C7A C 0.6121(5) 1.7398(5) 0.7194(3)
H7A H 0.5068 1.7090 0.6886
C8A C 0.6840(4) 1.6391(4) 0.7124(2)
H8A H 0.6259 1.5352 0.6770
N5A N 0.8720(4) 1.4764(3) 0.63101(17)
C9A C 0.8214(4) 1.4058(4) 0.56440(19)
S1A S 0.74926(12) 1.30475(10) 0.47067(5)
N6A N 1.0358(4) 1.6117(3) 0.86420(17)
C10A C 1.1026(4) 1.6611(4) 0.93159(19)
S2A S 1.19753(11) 1.73459(11) 1.02644(5)
S2A_2 S -0.80247(11) -0.26541(11) 0.02644(5)
N7A N 0.0624(4) 1.0090(5) 0.3950(2)
N8A N 0.3226(4) 1.0708(3) 0.47155(17)
C11A C 0.1829(5) 0.9737(5) 0.4176(2)
H9A H 0.1688 0.8699 0.3932
C12A C 0.0849(5) 1.1556(6) 0.4298(3)
H10A H 0.0019 1.1860 0.4153
C13A C 0.2236(6) 1.2644(5) 0.4858(2)
H11A H 0.2379 1.3686 0.5096
C14A C 0.3409(5) 1.2161(5) 0.5060(2)
H12A H 0.4371 1.2878 0.5454
N9A N 0.5449(4) 1.1072(3) 0.61234(18)
C15A C 0.5994(4) 1.1773(4) 0.6788(2)
S3A S 0.67685(11) 1.27642(10) 0.77249(5)
Cu3_2 Cu 1.5000 2.0000 1.0000
N10A N -0.4124(4) -0.1637(3) -0.02763(17)
N11A N -0.4617(5) -0.4262(4) -0.0930(2)
C16A C -0.5054(5) -0.3100(5) -0.0762(2)
H13A H -0.6127 -0.3331 -0.1009
C17A C -0.3087(6) -0.3894(5) -0.0581(3)
H14A H -0.2721 -0.4688 -0.0684
C18A C -0.2037(5) -0.2430(5) -0.0085(3)
H15A H -0.0959 -0.2196 0.0154
C19A C -0.2595(4) -0.1305(5) 0.0056(2)
H16A H -0.1886 -0.0270 0.0395
N12A N 1.3983(4) 1.9573(4) 0.88815(18)
N12A_2 N -0.6017(4) -0.0427(4) -0.11185(18)
S4A S 1.24872(12) 1.84223(11) 0.72461(5)
C20A C 1.3366(4) 1.9088(4) 0.81966(19)
loop_
_geom_bond_atom_site_label_1
_geom_bond_atom_site_label_2
_geom_bond_site_symmetry_1
_geom_bond_site_symmetry_2
Cu1 N1 1_555 1_555
Cu2 S1 1_555 1_555
N1 C1 1_555 1_555
N2 C1 1_555 1_555
C1 H1 1_555 1_555
C2 N2 1_555 1_555
H2 C2 1_555 1_555
C3 C2 1_555 1_555
H3 C3 1_555 1_555
C4 N1 1_555 1_555
H4 C4 1_555 1_555
N3 Cu1 1_555 1_555
N4 C5 1_555 1_555
C5 N3 1_555 1_555
H5 C5 1_555 1_555
C6 N4 1_555 1_555
H6 C6 1_555 1_555
C7 C6 1_555 1_555
H7 C7 1_555 1_555
C8 N3 1_555 1_555
H8 C8 1_555 1_555
N5 Cu1 1_555 1_555
C9 N5 1_555 1_555
S1 C9 1_555 1_555
N6 Cu1 1_555 1_555
C10 N6 1_555 1_555
S2 C10 1_555 1_555
N7 C11 1_555 1_555
N8 Cu2 1_555 1_555
C11 N8 1_555 1_555
H9 C11 1_555 1_555
C12 N7 1_555 1_555
H10 C12 1_555 1_555
C13 C12 1_555 1_555
H11 C13 1_555 1_555
C14 N8 1_555 1_555
H12 C14 1_555 1_555
N9 Cu2 1_555 1_555
C15 N9 1_555 1_555
S3 Cu1 1_555 1_555
Cu3 S2 1_555 1_555
N10 Cu3 1_555 1_555
N11 C16 1_555 1_555
C16 N10 1_555 1_555
H13 C16 1_555 1_555
C17 N11 1_555 1_555
H14 C17 1_555 1_555
C18 C17 1_555 1_555
H15 C18 1_555 1_555
C19 N10 1_555 1_555
H16 C19 1_555 1_555
N12 Cu3 1_555 1_555
S4 Cu1 1_555 1_555
C20 N12 1_555 1_555
Cu1A N1A 1_555 1_555
N1A C1A 1_555 1_555
N2A C1A 1_555 1_555
C1A H1A 1_555 1_555
C2A N2A 1_555 1_555
H2A C2A 1_555 1_555
C3A C2A 1_555 1_555
H3A C3A 1_555 1_555
C4A N1A 1_555 1_555
H4A C4A 1_555 1_555
N3A Cu1A 1_555 1_555
N4A C5A 1_555 1_555
C5A N3A 1_555 1_555
H5A C5A 1_555 1_555
C6A N4A 1_555 1_555
H6A C6A 1_555 1_555
C7A C6A 1_555 1_555
H7A C7A 1_555 1_555
C8A N3A 1_555 1_555
H8A C8A 1_555 1_555
N5A Cu1A 1_555 1_555
C9A N5A 1_555 1_555
S1A Cu2 1_555 1_555
N6A Cu1A 1_555 1_555
C10A N6A 1_555 1_555
S2A C10A 1_555 1_555
S2A_2 Cu3 1_555 1_555
N7A C11A 1_555 1_555
N8A Cu2 1_555 1_555
C11A N8A 1_555 1_555
H9A C11A 1_555 1_555
C12A N7A 1_555 1_555
H10A C12A 1_555 1_555
C13A C12A 1_555 1_555
H11A C13A 1_555 1_555
C14A N8A 1_555 1_555
H12A C14A 1_555 1_555
N9A Cu2 1_555 1_555
C15A N9A 1_555 1_555
S3A Cu1A 1_555 1_555
Cu3_2 S2A 1_555 1_555
N10A Cu3 1_555 1_555
N11A C16A 1_555 1_555
C16A N10A 1_555 1_555
H13A C16A 1_555 1_555
C17A N11A 1_555 1_555
H14A C17A 1_555 1_555
C18A C17A 1_555 1_555
H15A C18A 1_555 1_555
C19A N10A 1_555 1_555
H16A C19A 1_555 1_555
N12A Cu3_2 1_555 1_555
N12A_2 Cu3 1_555 1_555
S4A Cu1A 1_555 1_555
C20A N12A 1_555 1_555
C3 C4 1_555 1_555
C7 C8 1_555 1_555
C13 C14 1_555 1_555
C15 S3 1_555 1_555
C18 C19 1_555 1_555
S4 C20 1_555 1_555
C3A C4A 1_555 1_555
C7A C8A 1_555 1_555
C9A S1A 1_555 1_555
C13A C14A 1_555 1_555
C15A S3A 1_555 1_555
C18A C19A 1_555 1_555
S4A C20A 1_555 1_555

#END
