
#######################################################################
#
#                 Cambridge Crystallographic Data Centre
#                                CCDC 
#
#######################################################################
#
# If this CIF has been generated from an entry in the Cambridge 
# Structural Database, then it will include bibliographic, chemical, 
# crystal, experimental, refinement or atomic coordinate data resulting 
# from the CCDC's data processing and validation procedures.
#
#######################################################################

data_OGUXOE
_symmetry_cell_setting           triclinic
_symmetry_space_group_name_H-M   'P -1'
_symmetry_Int_Tables_number      2
_space_group_name_Hall           '-P 1'
loop_
_symmetry_equiv_pos_site_id
_symmetry_equiv_pos_as_xyz
1 x,y,z
2 -x,-y,-z
_cell_length_a                   5.0365(3)
_cell_length_b                   7.6400(5)
_cell_length_c                   7.6678(6)
_cell_angle_alpha                97.292(6)
_cell_angle_beta                 101.847(6)
_cell_angle_gamma                106.380(6)
_cell_volume                     271.623
loop_
_atom_site_label
_atom_site_type_symbol
_atom_site_fract_x
_atom_site_fract_y
_atom_site_fract_z
Fe1 Fe 0.04690(5) 0.26153(3) 0.29469(3)
P1 P -0.35395(9) 0.54238(6) 0.29005(6)
O1 O 0.1939(3) -0.15197(18) -0.02586(18)
C1 C 0.1226(4) -0.0277(2) 0.0545(3)
O2 O 0.2281(3) 0.05927(17) 0.21597(18)
O3 O -0.2400(3) 0.0503(2) 0.3708(2)
H1 H -0.231(5) -0.052(4) 0.364(4)
H2 H -0.415(6) 0.050(3) 0.330(4)
O4 O -0.2012(3) 0.40141(18) 0.32140(19)
O5 O -0.2967(3) 0.68519(18) 0.46209(18)
O6 O -0.2382(3) 0.6627(2) 0.1553(2)
H3 H -0.247(5) 0.608(3) 0.054(3)
O7 O -0.6748(3) 0.44552(17) 0.20709(18)
Fe1A Fe -0.04690(5) -0.26153(3) -0.29469(3)
Fe1_2 Fe -0.95310(5) 0.26153(3) 0.29469(3)
Fe1_3 Fe 0.04690(5) -0.73847(3) -0.70531(3)
Fe1A_2 Fe -0.04690(5) 0.73847(3) 0.70531(3)
Fe1A_3 Fe 0.95310(5) -0.26153(3) -0.29469(3)
P1A P 0.35395(9) -0.54238(6) -0.29005(6)
O1A O -0.1939(3) 0.15197(18) 0.02586(18)
C1A C -0.1226(4) 0.0277(2) -0.0545(3)
O2A O -0.2281(3) -0.05927(17) -0.21597(18)
O3A O 0.2400(3) -0.0503(2) -0.3708(2)
H1A H 0.231(5) 0.052(4) -0.364(4)
H2A H 0.415(6) -0.050(3) -0.330(4)
O4A O 0.2012(3) -0.40141(18) -0.32140(19)
O5A O 0.2967(3) -0.68519(18) -0.46209(18)
O5_2 O -0.2967(3) -0.31481(18) -0.53791(18)
O5A_2 O 0.2967(3) 0.31481(18) 0.53791(18)
O6A O 0.2382(3) -0.6627(2) -0.1553(2)
H3A H 0.247(5) -0.608(3) -0.054(3)
O7A O 0.6748(3) -0.44552(17) -0.20709(18)
O7_2 O 0.3252(3) 0.44552(17) 0.20709(18)
O7A_2 O -0.3252(3) -0.44552(17) -0.20709(18)
loop_
_geom_bond_atom_site_label_1
_geom_bond_atom_site_label_2
_geom_bond_site_symmetry_1
_geom_bond_site_symmetry_2
Fe1 O2 1_555 1_555
P1 O4 1_555 1_555
O1 C1 1_555 1_555
C1 O2 1_555 1_555
O3 Fe1 1_555 1_555
H1 O3 1_555 1_555
H2 O3 1_555 1_555
O4 Fe1 1_555 1_555
O5 P1 1_555 1_555
O6 P1 1_555 1_555
H3 O6 1_555 1_555
O7 P1 1_555 1_555
Fe1A O1 1_555 1_555
Fe1_2 O7 1_555 1_555
Fe1_3 O5A 1_555 1_555
Fe1A_2 O5 1_555 1_555
Fe1A_3 O7A 1_555 1_555
P1A O4A 1_555 1_555
O1A Fe1 1_555 1_555
C1A C1 1_555 1_555
O2A Fe1A 1_555 1_555
O3A Fe1A 1_555 1_555
H1A O3A 1_555 1_555
H2A O3A 1_555 1_555
O4A Fe1A 1_555 1_555
O5A P1A 1_555 1_555
O5_2 Fe1A 1_555 1_555
O5A_2 Fe1 1_555 1_555
O6A P1A 1_555 1_555
H3A O6A 1_555 1_555
O7A P1A 1_555 1_555
O7_2 Fe1 1_555 1_555
O7A_2 Fe1A 1_555 1_555
O1A C1A 1_555 1_555
C1A O2A 1_555 1_555

#END
