
#######################################################################
#
#                 Cambridge Crystallographic Data Centre
#                                CCDC 
#
#######################################################################
#
# If this CIF has been generated from an entry in the Cambridge 
# Structural Database, then it will include bibliographic, chemical, 
# crystal, experimental, refinement or atomic coordinate data resulting 
# from the CCDC's data processing and validation procedures.
#
#######################################################################

data_OHACIK
_symmetry_cell_setting           orthorhombic
_symmetry_space_group_name_H-M   'P 21 21 21'
_symmetry_Int_Tables_number      19
_space_group_name_Hall           'P 2ac 2ab'
loop_
_symmetry_equiv_pos_site_id
_symmetry_equiv_pos_as_xyz
1 x,y,z
2 1/2-x,-y,1/2+z
3 1/2+x,1/2-y,-z
4 -x,1/2+y,1/2-z
_cell_length_a                   10.730(7)
_cell_length_b                   6.880(4)
_cell_length_c                   23.280(15)
_cell_angle_alpha                90
_cell_angle_beta                 90
_cell_angle_gamma                90
_cell_volume                     1718.59
loop_
_atom_site_label
_atom_site_type_symbol
_atom_site_fract_x
_atom_site_fract_y
_atom_site_fract_z
Ag1 Ag 0.23830(4) 0.05517(8) 0.167217(17)
O1 O 0.4473(5) 0.1164(9) 0.1130(3)
O2 O 0.4794(6) 0.3155(11) 0.0442(2)
O3 O 0.3004(6) 0.3012(9) 0.0853(2)
N1 N 0.4093(6) 0.2451(10) 0.0799(2)
N2 N 0.0075(5) 0.1658(9) 0.1471(2)
N3 N 0.1188(4) 0.1622(8) 0.24977(19)
N4 N -0.0764(4) 0.1973(7) 0.29644(18)
N5 N -0.1921(4) 0.3058(7) 0.40011(17)
N6 N 0.1105(4) 0.1754(8) 0.35126(18)
N7 N 0.3643(4) 0.0869(8) 0.25317(19)
C1 C -0.0431(6) 0.1607(10) 0.0948(2)
H1 H 0.0089 0.1461 0.0632
C2 C -0.1711(7) 0.1763(10) 0.0859(3)
H2 H -0.2040 0.1796 0.0489
C3 C -0.2469(7) 0.1866(10) 0.1328(3)
H3 H -0.3329 0.1935 0.1281
C4 C -0.1953(6) 0.1869(10) 0.1872(3)
H4 H -0.2458 0.1935 0.2196
C5 C -0.0675(5) 0.1771(8) 0.1926(2)
C6 C -0.0053(6) 0.1811(10) 0.2504(2)
C7 C -0.0129(5) 0.1944(9) 0.3463(2)
C8 C -0.0853(5) 0.2071(8) 0.4006(2)
C9 C -0.2591(5) 0.3115(9) 0.4480(2)
H5 H -0.3333 0.3814 0.4482
C10 C -0.2222(5) 0.2173(10) 0.4973(2)
H6 H -0.2728 0.2205 0.5297
C11 C -0.1120(5) 0.1197(9) 0.4987(2)
H7 H -0.0856 0.0582 0.5322
C12 C -0.0396(5) 0.1136(9) 0.4491(2)
H8 H 0.0367 0.0494 0.4485
C13 C 0.1726(5) 0.1619(9) 0.3014(2)
C14 C 0.3103(5) 0.1357(9) 0.3023(2)
C15 C 0.3755(6) 0.1604(11) 0.3531(3)
H9 H 0.3348 0.1986 0.3865
C16 C 0.5018(6) 0.1270(11) 0.3530(3)
H10 H 0.5474 0.1394 0.3868
C17 C 0.5601(5) 0.0756(11) 0.3033(3)
H11 H 0.6456 0.0533 0.3024
C18 C 0.4876(5) 0.0573(11) 0.2536(3)
H12 H 0.5268 0.0232 0.2195
Ag1C Ag -0.23830(4) 0.55517(8) 0.332783(17)
N5C N 0.1921(4) -0.1942(7) 0.09989(17)
loop_
_geom_bond_atom_site_label_1
_geom_bond_atom_site_label_2
_geom_bond_site_symmetry_1
_geom_bond_site_symmetry_2
Ag1 O1 1_555 1_555
O1 N1 1_555 1_555
O2 N1 1_555 1_555
O3 Ag1 1_555 1_555
N1 O3 1_555 1_555
N2 Ag1 1_555 1_555
N3 Ag1 1_555 1_555
N4 C6 1_555 1_555
N5 C8 1_555 1_555
N6 C7 1_555 1_555
N7 Ag1 1_555 1_555
C1 N2 1_555 1_555
H1 C1 1_555 1_555
C2 C1 1_555 1_555
H2 C2 1_555 1_555
C3 C2 1_555 1_555
H3 C3 1_555 1_555
C4 C3 1_555 1_555
H4 C4 1_555 1_555
C5 N2 1_555 1_555
C6 N3 1_555 1_555
C7 N4 1_555 1_555
C8 C7 1_555 1_555
C9 N5 1_555 1_555
H5 C9 1_555 1_555
C10 C9 1_555 1_555
H6 C10 1_555 1_555
C11 C10 1_555 1_555
H7 C11 1_555 1_555
C12 C8 1_555 1_555
H8 C12 1_555 1_555
C13 N3 1_555 1_555
C14 N7 1_555 1_555
C15 C14 1_555 1_555
H9 C15 1_555 1_555
C16 C15 1_555 1_555
H10 C16 1_555 1_555
C17 C16 1_555 1_555
H11 C17 1_555 1_555
C18 N7 1_555 1_555
H12 C18 1_555 1_555
Ag1C N5 1_555 1_555
N5C Ag1 1_555 1_555
N6 C13 1_555 1_555
C4 C5 1_555 1_555
C5 C6 1_555 1_555
C11 C12 1_555 1_555
C13 C14 1_555 1_555
C17 C18 1_555 1_555

#END
