
#######################################################################
#
#                 Cambridge Crystallographic Data Centre
#                                CCDC 
#
#######################################################################
#
# If this CIF has been generated from an entry in the Cambridge 
# Structural Database, then it will include bibliographic, chemical, 
# crystal, experimental, refinement or atomic coordinate data resulting 
# from the CCDC's data processing and validation procedures.
#
#######################################################################

data_OHACIK01
_symmetry_cell_setting           orthorhombic
_symmetry_space_group_name_H-M   'P 21 21 21'
_symmetry_Int_Tables_number      19
_space_group_name_Hall           'P 2ac 2ab'
loop_
_symmetry_equiv_pos_site_id
_symmetry_equiv_pos_as_xyz
1 x,y,z
2 1/2-x,-y,1/2+z
3 1/2+x,1/2-y,-z
4 -x,1/2+y,1/2-z
_cell_length_a                   6.8809(7)
_cell_length_b                   10.7506(12)
_cell_length_c                   23.349(3)
_cell_angle_alpha                90
_cell_angle_beta                 90
_cell_angle_gamma                90
_cell_volume                     1727.21
loop_
_atom_site_label
_atom_site_type_symbol
_atom_site_fract_x
_atom_site_fract_y
_atom_site_fract_z
Ag1 Ag 0.19402(6) -0.01201(3) 0.582805(13)
C1 C 0.0690(8) -0.2558(5) 0.5005(2)
C2 C 0.0870(9) -0.0772(4) 0.4490(2)
C3 C 0.0535(7) -0.2629(4) 0.40415(19)
C4 C 0.1124(8) 0.0589(4) 0.4468(2)
C5 C 0.1900(9) 0.2373(3) 0.4963(2)
H1 H 0.2224 0.2768 0.5305
C6 C 0.1731(9) 0.3093(4) 0.4471(2)
H2 H 0.1959 0.3945 0.4482
C7 C 0.1223(8) 0.2523(4) 0.3971(2)
H3 H 0.1103 0.2981 0.3635
C8 C 0.0887(9) 0.1250(4) 0.3971(2)
H4 H 0.0505 0.0848 0.3637
C9 C 0.0728(7) -0.3180(4) 0.55769(18)
C10 C 0.0880(8) -0.2937(5) 0.65501(19)
H5 H 0.0961 -0.2421 0.6869
C11 C 0.0763(9) -0.4199(4) 0.6638(2)
H6 H 0.0781 -0.4525 0.7007
C12 C 0.0618(7) -0.4968(5) 0.61724(17)
H7 H 0.0526 -0.5824 0.6221
C13 C 0.0611(8) -0.4456(4) 0.56306(19)
H8 H 0.0530 -0.4961 0.5308
C14 C 0.0430(7) -0.3345(4) 0.34971(18)
C15 C -0.0610(6) -0.5079(5) 0.30184(14)
H9 H -0.1319 -0.5815 0.3014
C16 C 0.0309(7) -0.4731(4) 0.25248(18)
H10 H 0.0259 -0.5234 0.2201
C17 C 0.1317(7) -0.3614(4) 0.25143(18)
H11 H 0.1954 -0.3347 0.2185
C18 C 0.1343(7) -0.2906(4) 0.30141(18)
H12 H 0.1973 -0.2141 0.3021
N1 N 0.0531(6) -0.3261(3) 0.45366(16)
N2 N 0.0872(6) -0.1317(3) 0.50034(16)
N3 N 0.0748(7) -0.1386(3) 0.39877(16)
N4 N 0.0031(8) 0.1590(4) 0.67010(19)
N5 N 0.1620(7) 0.1143(3) 0.49718(17)
N6 N 0.0884(6) -0.2413(3) 0.60318(15)
N7 N -0.0561(6) -0.4429(3) 0.35110(14)
O1 O -0.0499(7) 0.0491(3) 0.6654(2)
O2 O -0.0681(7) 0.2295(4) 0.70606(16)
O3 O 0.1333(6) 0.1973(3) 0.63679(16)
Ag1B Ag -0.30598(6) -0.48799(3) 0.417195(13)
N7B N 0.4439(6) -0.0571(3) 0.64890(14)
loop_
_geom_bond_atom_site_label_1
_geom_bond_atom_site_label_2
_geom_bond_site_symmetry_1
_geom_bond_site_symmetry_2
Ag1 N2 1_555 1_555
C1 C9 1_555 1_555
C2 C4 1_555 1_555
C3 C14 1_555 1_555
C4 C8 1_555 1_555
C5 H1 1_555 1_555
C6 C5 1_555 1_555
H2 C6 1_555 1_555
C7 C6 1_555 1_555
H3 C7 1_555 1_555
C8 C7 1_555 1_555
H4 C8 1_555 1_555
C9 C13 1_555 1_555
C10 H5 1_555 1_555
C11 C10 1_555 1_555
H6 C11 1_555 1_555
C12 C11 1_555 1_555
H7 C12 1_555 1_555
C13 C12 1_555 1_555
H8 C13 1_555 1_555
C14 C18 1_555 1_555
C15 H9 1_555 1_555
C16 C15 1_555 1_555
H10 C16 1_555 1_555
C17 C16 1_555 1_555
H11 C17 1_555 1_555
C18 C17 1_555 1_555
H12 C18 1_555 1_555
N1 C1 1_555 1_555
N2 C1 1_555 1_555
N3 C2 1_555 1_555
N4 O1 1_555 1_555
N5 Ag1 1_555 1_555
N6 Ag1 1_555 1_555
N7 C14 1_555 1_555
O2 N4 1_555 1_555
O3 Ag1 1_555 1_555
Ag1B N7 1_555 1_555
N7B Ag1 1_555 1_555
C2 N2 1_555 1_555
C3 N1 1_555 1_555
C3 N3 1_555 1_555
C4 N5 1_555 1_555
C5 N5 1_555 1_555
C9 N6 1_555 1_555
C10 N6 1_555 1_555
C15 N7 1_555 1_555
N4 O3 1_555 1_555

#END
