
#######################################################################
#
#                 Cambridge Crystallographic Data Centre
#                                CCDC 
#
#######################################################################
#
# If this CIF has been generated from an entry in the Cambridge 
# Structural Database, then it will include bibliographic, chemical, 
# crystal, experimental, refinement or atomic coordinate data resulting 
# from the CCDC's data processing and validation procedures.
#
#######################################################################

data_OHAGAH
_symmetry_cell_setting           orthorhombic
_symmetry_space_group_name_H-M   'P b c n'
_symmetry_Int_Tables_number      60
_space_group_name_Hall           '-P 2n 2ab'
loop_
_symmetry_equiv_pos_site_id
_symmetry_equiv_pos_as_xyz
1 x,y,z
2 1/2+x,1/2-y,-z
3 -x,y,1/2-z
4 1/2-x,1/2-y,1/2+z
5 -x,-y,-z
6 1/2-x,1/2+y,z
7 x,-y,1/2+z
8 1/2+x,1/2+y,1/2-z
_cell_length_a                   12.9805(7)
_cell_length_b                   14.1040(9)
_cell_length_c                   25.6051(13)
_cell_angle_alpha                90
_cell_angle_beta                 90
_cell_angle_gamma                90
_cell_volume                     4687.7
loop_
_atom_site_label
_atom_site_type_symbol
_atom_site_fract_x
_atom_site_fract_y
_atom_site_fract_z
Cu1 Cu 0.93817(3) 0.82863(3) 0.208669(17)
O1 O 0.8626(2) 0.7280(2) 0.24515(9)
O2 O 0.9603(2) 0.73576(19) 0.31621(10)
O3 O 0.7193(3) 0.5971(3) 0.45269(12)
O4 O 0.6421(2) 0.4234(2) 0.24702(9)
O5 O 0.5317(2) 0.4286(2) 0.31449(10)
N1 N 0.6430(2) 0.6713(2) 0.63530(11)
C1 C 0.7437(4) 0.6652(4) 0.62932(17)
H1 H 0.7862 0.6634 0.6595
C2 C 0.5877(4) 0.6722(5) 0.5918(2)
H2 H 0.5148 0.6735 0.5951
C3 C 0.8856(3) 0.7062(3) 0.29075(15)
C4 C 0.8121(3) 0.6412(3) 0.31876(14)
C5 C 0.8078(4) 0.6483(4) 0.37334(15)
H3 H 0.8531 0.6894 0.3916
C6 C 0.7348(4) 0.5930(4) 0.40057(17)
C7 C 0.6714(4) 0.5299(4) 0.37226(17)
H4 H 0.6221 0.4921 0.3901
C8 C 0.6809(3) 0.5229(3) 0.31905(15)
C9 C 0.7501(3) 0.5791(3) 0.29107(15)
H5 H 0.7545 0.5749 0.2541
C10 C 0.6136(3) 0.4521(3) 0.29099(15)
C11 C 0.7804(4) 0.6592(4) 0.48259(18)
H6 H 0.7818 0.7228 0.4663
H7 H 0.8519 0.6351 0.4848
C12 C 0.7330(4) 0.6648(3) 0.53678(17)
C13 C 0.6278(5) 0.6713(5) 0.54279(19)
H8 H 0.5840 0.6751 0.5131
C14 C 0.7898(4) 0.6614(4) 0.58021(18)
H9 H 0.8626 0.6563 0.5776
Cu1B Cu 1.06183(3) 0.82863(3) 0.291331(17)
Cu1C Cu 0.56183(3) 0.67137(3) 0.708669(17)
Cu1E Cu 0.56183(3) 0.32863(3) 0.208669(17)
Cu1G Cu 0.43817(3) 0.32863(3) 0.291331(17)
O2B O 1.0397(2) 0.73576(19) 0.18379(10)
O4E O 0.8579(2) 0.9234(2) 0.24702(9)
O5G O 1.0317(2) 0.9286(2) 0.18551(10)
N1C N 0.8570(2) 0.8287(2) 0.13530(11)
loop_
_geom_bond_atom_site_label_1
_geom_bond_atom_site_label_2
_geom_bond_site_symmetry_1
_geom_bond_site_symmetry_2
Cu1 O1 1_555 1_555
O1 C3 1_555 1_555
O2 C3 1_555 1_555
O3 C6 1_555 1_555
O4 C10 1_555 1_555
O5 C10 1_555 1_555
N1 C1 1_555 1_555
C1 H1 1_555 1_555
C2 N1 1_555 1_555
H2 C2 1_555 1_555
C3 C4 1_555 1_555
C4 C5 1_555 1_555
C5 H3 1_555 1_555
C6 C5 1_555 1_555
C7 C6 1_555 1_555
H4 C7 1_555 1_555
C8 C7 1_555 1_555
C9 C4 1_555 1_555
H5 C9 1_555 1_555
C10 C8 1_555 1_555
C11 O3 1_555 1_555
H6 C11 1_555 1_555
H7 C11 1_555 1_555
C12 C11 1_555 1_555
C13 C2 1_555 1_555
H8 C13 1_555 1_555
C14 C1 1_555 1_555
H9 C14 1_555 1_555
Cu1B Cu1 1_555 1_555
Cu1C N1 1_555 1_555
Cu1E O4 1_555 1_555
Cu1G O5 1_555 1_555
O2B Cu1 1_555 1_555
O4E Cu1 1_555 1_555
O5G Cu1 1_555 1_555
N1C Cu1 1_555 1_555
O2 Cu1B 1_555 1_555
C8 C9 1_555 1_555
C12 C13 1_555 1_555
C12 C14 1_555 1_555
Cu1E Cu1G 1_555 1_555

#END
