
#######################################################################
#
#                 Cambridge Crystallographic Data Centre
#                                CCDC 
#
#######################################################################
#
# If this CIF has been generated from an entry in the Cambridge 
# Structural Database, then it will include bibliographic, chemical, 
# crystal, experimental, refinement or atomic coordinate data resulting 
# from the CCDC's data processing and validation procedures.
#
#######################################################################

data_OHAHIP
_symmetry_cell_setting           monoclinic
_symmetry_space_group_name_H-M   'C 2/c'
_symmetry_Int_Tables_number      15
_space_group_name_Hall           '-C 2yn'
loop_
_symmetry_equiv_pos_site_id
_symmetry_equiv_pos_as_xyz
1 x,y,z
2 -x,y,1/2-z
3 1/2+x,1/2+y,z
4 1/2-x,1/2+y,1/2-z
5 -x,-y,-z
6 x,-y,1/2+z
7 1/2-x,1/2-y,-z
8 1/2+x,1/2-y,1/2+z
_cell_length_a                   18.1879(6)
_cell_length_b                   10.6838(3)
_cell_length_c                   31.7400(1)
_cell_angle_alpha                90
_cell_angle_beta                 102.899(4)
_cell_angle_gamma                90
_cell_volume                     6011.95
loop_
_atom_site_label
_atom_site_type_symbol
_atom_site_fract_x
_atom_site_fract_y
_atom_site_fract_z
Zn1 Zn -0.06541(2) 0.06094(5) 0.470233(16)
Zn2 Zn 0.17021(4) 0.55879(6) 0.27081(2)
O1 O 0.00721(17) 0.1401(3) 0.43762(11)
O2 O 0.10230(18) 0.0479(3) 0.48403(12)
O3 O 0.17954(19) 0.4255(3) 0.31489(12)
O4 O 0.0618(2) 0.3925(4) 0.31897(15)
O5 O -0.1414(2) -0.5062(5) 0.28936(16)
O6 O -0.1463(3) -0.3048(5) 0.29455(15)
O7 O -0.06357(18) -0.0986(3) 0.43634(11)
O8 O 0.03058(17) -0.1924(3) 0.48328(10)
N1 N -0.1710(2) 0.1320(4) 0.44675(13)
N2 N 0.2867(2) 0.5873(4) 0.28226(15)
N3 N 0.1432(2) 0.7203(4) 0.30008(14)
C1 C 0.1312(2) 0.1709(4) 0.42852(16)
C2 C 0.1075(2) 0.2448(4) 0.39291(15)
H3 H 0.0565 0.2638 0.3839
C3 C 0.1581(2) 0.2924(4) 0.36984(16)
C4 C 0.2335(3) 0.2633(5) 0.38344(19)
H4 H 0.2680 0.2928 0.3681
C5 C 0.2582(3) 0.1896(6) 0.4201(2)
H5 H 0.3092 0.1705 0.4293
C6 C 0.2071(3) 0.1444(5) 0.44310(18)
H6 H 0.2238 0.0969 0.4680
C7 C 0.0761(3) 0.1152(4) 0.45215(15)
C8 C 0.1294(3) 0.3773(5) 0.33155(16)
C9 C -0.0903(2) -0.4168(5) 0.35784(16)
C10 C -0.0752(2) -0.3087(5) 0.38140(15)
H7 H -0.0915 -0.2329 0.3681
C11 C -0.0366(2) -0.3080(4) 0.42434(14)
C12 C -0.0121(3) -0.4219(5) 0.44277(18)
H8 H 0.0154 -0.4239 0.4712
C13 C -0.0271(3) -0.5327(5) 0.4203(2)
H9 H -0.0117 -0.6088 0.4336
C14 C -0.0658(3) -0.5281(5) 0.3772(2)
H10 H -0.0752 -0.6019 0.3614
C15 C -0.1285(3) -0.4070(8) 0.3102(2)
C16 C -0.0226(2) -0.1910(4) 0.44947(15)
C17 C -0.2292(3) 0.0571(6) 0.4374(2)
H11 H -0.2200 -0.0285 0.4372
C18 C -0.3016(4) 0.0952(9) 0.4280(3)
H12 H -0.3411 0.0383 0.4207
C19 C -0.3143(4) 0.2154(10) 0.4296(3)
H13 H -0.3638 0.2438 0.4245
C20 C -0.2584(5) 0.2977(8) 0.4384(4)
H14 H -0.2679 0.3831 0.4392
C21 C -0.1848(4) 0.2516(6) 0.4465(3)
H15 H -0.1447 0.3076 0.4519
C22 C 0.3309(4) 0.5502(6) 0.3188(2)
H16 H 0.3105 0.4990 0.3369
C23 C 0.4064(4) 0.5836(7) 0.3317(2)
H17 H 0.4361 0.5561 0.3578
C24 C 0.4349(4) 0.6576(6) 0.3047(3)
H18 H 0.4851 0.6827 0.3124
C25 C 0.3916(4) 0.6947(6) 0.2673(2)
H19 H 0.4118 0.7425 0.2482
C26 C 0.3175(3) 0.6621(6) 0.2573(2)
H20 H 0.2870 0.6933 0.2320
C27 C 0.1880(4) 0.8164(6) 0.3090(3)
H21 H 0.2361 0.8075 0.3038
C28 C 0.1717(5) 0.9272(7) 0.3248(3)
H22 H 0.2067 0.9920 0.3293
C29 C 0.1052(7) 0.9417(7) 0.3338(4)
H23 H 0.0930 1.0154 0.3463
C30 C 0.0539(5) 0.8453(9) 0.3244(4)
H24 H 0.0053 0.8535 0.3290
C31 C 0.0769(4) 0.7361(7) 0.3079(3)
H25 H 0.0428 0.6700 0.3021
Zn1D Zn 0.06541(2) -0.06094(5) 0.529767(16)
Zn2D Zn -0.17021(4) -0.55879(6) 0.72919(2)
Zn2A Zn -0.17021(4) -0.44121(6) 0.22919(2)
Zn2E Zn 0.17021(4) 0.44121(6) 0.77081(2)
O1D O -0.00721(17) -0.1401(3) 0.56238(11)
O2D O -0.10230(18) -0.0479(3) 0.51597(12)
O3D O -0.17954(19) -0.4255(3) 0.68511(12)
O4D O -0.0618(2) -0.3925(4) 0.68103(15)
O5D O 0.1414(2) 0.5062(5) 0.71064(16)
O5A O 0.1414(2) 0.4938(5) 0.21064(16)
O5E O -0.1414(2) -0.4938(5) 0.78936(16)
O6D O 0.1463(3) 0.3048(5) 0.70545(15)
O7D O 0.06357(18) 0.0986(3) 0.56366(11)
O8D O -0.03058(17) 0.1924(3) 0.51672(10)
N1D N 0.1710(2) -0.1320(4) 0.55325(13)
N2D N -0.2867(2) -0.5873(4) 0.71774(15)
N3D N -0.1432(2) -0.7203(4) 0.69992(14)
C1D C -0.1312(2) -0.1709(4) 0.57148(16)
C2D C -0.1075(2) -0.2448(4) 0.60709(15)
H3D H -0.0565 -0.2638 0.6161
C3D C -0.1581(2) -0.2924(4) 0.63016(16)
C4D C -0.2335(3) -0.2633(5) 0.61656(19)
H4D H -0.2680 -0.2928 0.6319
C5D C -0.2582(3) -0.1896(6) 0.5799(2)
H5D H -0.3092 -0.1705 0.5707
C6D C -0.2071(3) -0.1444(5) 0.55690(18)
H6D H -0.2238 -0.0969 0.5320
C7D C -0.0761(3) -0.1152(4) 0.54785(15)
C8D C -0.1294(3) -0.3773(5) 0.66845(16)
C9D C 0.0903(2) 0.4168(5) 0.64216(16)
C10D C 0.0752(2) 0.3087(5) 0.61860(15)
H7D H 0.0915 0.2329 0.6319
C11D C 0.0366(2) 0.3080(4) 0.57566(14)
C12D C 0.0121(3) 0.4219(5) 0.55723(18)
H8D H -0.0154 0.4239 0.5288
C13D C 0.0271(3) 0.5327(5) 0.5797(2)
H9D H 0.0117 0.6088 0.5664
C14D C 0.0658(3) 0.5281(5) 0.6228(2)
H10D H 0.0752 0.6019 0.6386
C15D C 0.1285(3) 0.4070(8) 0.6898(2)
C16D C 0.0226(2) 0.1910(4) 0.55053(15)
C17D C 0.2292(3) -0.0571(6) 0.5626(2)
H11D H 0.2200 0.0285 0.5628
C18D C 0.3016(4) -0.0952(9) 0.5720(3)
H12D H 0.3411 -0.0383 0.5793
C19D C 0.3143(4) -0.2154(10) 0.5704(3)
H13D H 0.3638 -0.2438 0.5755
C20D C 0.2584(5) -0.2977(8) 0.5616(4)
H14D H 0.2679 -0.3831 0.5608
C21D C 0.1848(4) -0.2516(6) 0.5535(3)
H15D H 0.1447 -0.3076 0.5481
C22D C -0.3309(4) -0.5502(6) 0.6812(2)
H16D H -0.3105 -0.4990 0.6631
C23D C -0.4064(4) -0.5836(7) 0.6683(2)
H17D H -0.4361 -0.5561 0.6422
C24D C -0.4349(4) -0.6576(6) 0.6953(3)
H18D H -0.4851 -0.6827 0.6876
C25D C -0.3916(4) -0.6947(6) 0.7327(2)
H19D H -0.4118 -0.7425 0.7518
C26D C -0.3175(3) -0.6621(6) 0.7427(2)
H20D H -0.2870 -0.6933 0.7680
C27D C -0.1880(4) -0.8164(6) 0.6910(3)
H21D H -0.2361 -0.8075 0.6962
C28D C -0.1717(5) -0.9272(7) 0.6752(3)
H22D H -0.2067 -0.9920 0.6707
C29D C -0.1052(7) -0.9417(7) 0.6662(4)
H23D H -0.0930 -1.0154 0.6537
C30D C -0.0539(5) -0.8453(9) 0.6756(4)
H24D H -0.0053 -0.8535 0.6710
C31D C -0.0769(4) -0.7361(7) 0.6921(3)
H25D H -0.0428 -0.6700 0.6979
O9 O 0.0351(3) 0.4844(7) 0.7518(2)
H1 H 0.0560 0.5053 0.7764
H2 H 0.0266 0.5441 0.7337
O9A O -0.0351(3) 0.4844(7) 0.7482(2)
H1A H -0.0560 0.5053 0.7236
H2A H -0.0266 0.5441 0.7663
loop_
_geom_bond_atom_site_label_1
_geom_bond_atom_site_label_2
_geom_bond_site_symmetry_1
_geom_bond_site_symmetry_2
Zn1 O1 1_555 1_555
Zn2 O3 1_555 1_555
O1 C7 1_555 1_555
O2 C7 1_555 1_555
O3 C8 1_555 1_555
O4 C8 1_555 1_555
O5 C15 1_555 1_555
O6 C15 1_555 1_555
O7 Zn1 1_555 1_555
O8 C16 1_555 1_555
O9 H1 1_555 1_555
H2 O9 1_555 1_555
N1 Zn1 1_555 1_555
N2 Zn2 1_555 1_555
N3 Zn2 1_555 1_555
C1 C2 1_555 1_555
C2 H3 1_555 1_555
C3 C2 1_555 1_555
C4 C3 1_555 1_555
H4 C4 1_555 1_555
C5 C4 1_555 1_555
H5 C5 1_555 1_555
C6 C1 1_555 1_555
H6 C6 1_555 1_555
C7 C1 1_555 1_555
C8 C3 1_555 1_555
C9 C10 1_555 1_555
C10 H7 1_555 1_555
C11 C10 1_555 1_555
C12 C11 1_555 1_555
H8 C12 1_555 1_555
C13 C12 1_555 1_555
H9 C13 1_555 1_555
C14 C9 1_555 1_555
H10 C14 1_555 1_555
C15 C9 1_555 1_555
C16 O7 1_555 1_555
C17 N1 1_555 1_555
H11 C17 1_555 1_555
C18 C17 1_555 1_555
H12 C18 1_555 1_555
C19 C18 1_555 1_555
H13 C19 1_555 1_555
C20 C19 1_555 1_555
H14 C20 1_555 1_555
C21 N1 1_555 1_555
H15 C21 1_555 1_555
C22 N2 1_555 1_555
H16 C22 1_555 1_555
C23 C22 1_555 1_555
H17 C23 1_555 1_555
C24 C23 1_555 1_555
H18 C24 1_555 1_555
C25 C24 1_555 1_555
H19 C25 1_555 1_555
C26 N2 1_555 1_555
H20 C26 1_555 1_555
C27 N3 1_555 1_555
H21 C27 1_555 1_555
C28 C27 1_555 1_555
H22 C28 1_555 1_555
C29 C28 1_555 1_555
H23 C29 1_555 1_555
C30 C29 1_555 1_555
H24 C30 1_555 1_555
C31 N3 1_555 1_555
H25 C31 1_555 1_555
Zn1D O2 1_555 1_555
Zn2D O3D 1_555 1_555
Zn2A O5 1_555 1_555
Zn2E O5D 1_555 1_555
O1D Zn1D 1_555 1_555
O2D Zn1 1_555 1_555
O3D C8D 1_555 1_555
O4D C8D 1_555 1_555
O5D C15D 1_555 1_555
O5A Zn2 1_555 1_555
O5E Zn2D 1_555 1_555
O6D C15D 1_555 1_555
O7D Zn1D 1_555 1_555
O8D Zn1 1_555 1_555
O9A H1A 1_555 1_555
H2A O9A 1_555 1_555
N1D Zn1D 1_555 1_555
N2D Zn2D 1_555 1_555
N3D Zn2D 1_555 1_555
C1D C2D 1_555 1_555
C2D H3D 1_555 1_555
C3D C2D 1_555 1_555
C4D C3D 1_555 1_555
H4D C4D 1_555 1_555
C5D C4D 1_555 1_555
H5D C5D 1_555 1_555
C6D C1D 1_555 1_555
H6D C6D 1_555 1_555
C7D O1D 1_555 1_555
C8D C3D 1_555 1_555
C9D C10D 1_555 1_555
C10D H7D 1_555 1_555
C11D C10D 1_555 1_555
C12D C11D 1_555 1_555
H8D C12D 1_555 1_555
C13D C12D 1_555 1_555
H9D C13D 1_555 1_555
C14D C9D 1_555 1_555
H10D C14D 1_555 1_555
C15D C9D 1_555 1_555
C16D O7D 1_555 1_555
C17D N1D 1_555 1_555
H11D C17D 1_555 1_555
C18D C17D 1_555 1_555
H12D C18D 1_555 1_555
C19D C18D 1_555 1_555
H13D C19D 1_555 1_555
C20D C19D 1_555 1_555
H14D C20D 1_555 1_555
C21D N1D 1_555 1_555
H15D C21D 1_555 1_555
C22D N2D 1_555 1_555
H16D C22D 1_555 1_555
C23D C22D 1_555 1_555
H17D C23D 1_555 1_555
C24D C23D 1_555 1_555
H18D C24D 1_555 1_555
C25D C24D 1_555 1_555
H19D C25D 1_555 1_555
C26D N2D 1_555 1_555
H20D C26D 1_555 1_555
C27D N3D 1_555 1_555
H21D C27D 1_555 1_555
C28D C27D 1_555 1_555
H22D C28D 1_555 1_555
C29D C28D 1_555 1_555
H23D C29D 1_555 1_555
C30D C29D 1_555 1_555
H24D C30D 1_555 1_555
C31D N3D 1_555 1_555
H25D C31D 1_555 1_555
O8 Zn1D 1_555 1_555
C5 C6 1_555 1_555
C11 C16 1_555 1_555
C13 C14 1_555 1_555
C20 C21 1_555 1_555
C25 C26 1_555 1_555
C30 C31 1_555 1_555
O2D C7D 1_555 1_555
O8D C16D 1_555 1_555
C1D C7D 1_555 1_555
C5D C6D 1_555 1_555
C11D C16D 1_555 1_555
C13D C14D 1_555 1_555
C20D C21D 1_555 1_555
C25D C26D 1_555 1_555
C30D C31D 1_555 1_555

#END
