
#######################################################################
#
#                 Cambridge Crystallographic Data Centre
#                                CCDC 
#
#######################################################################
#
# If this CIF has been generated from an entry in the Cambridge 
# Structural Database, then it will include bibliographic, chemical, 
# crystal, experimental, refinement or atomic coordinate data resulting 
# from the CCDC's data processing and validation procedures.
#
#######################################################################

data_OHAHOV
_symmetry_cell_setting           monoclinic
_symmetry_space_group_name_H-M   'P 21/n'
_symmetry_Int_Tables_number      14
_space_group_name_Hall           '-P 2yn'
loop_
_symmetry_equiv_pos_site_id
_symmetry_equiv_pos_as_xyz
1 x,y,z
2 1/2-x,1/2+y,1/2-z
3 -x,-y,-z
4 1/2+x,1/2-y,1/2+z
_cell_length_a                   7.4965(2)
_cell_length_b                   15.5495(4)
_cell_length_c                   18.1063(4)
_cell_angle_alpha                90
_cell_angle_beta                 98.516(2)
_cell_angle_gamma                90
_cell_volume                     2087.32
loop_
_atom_site_label
_atom_site_type_symbol
_atom_site_fract_x
_atom_site_fract_y
_atom_site_fract_z
Zn1 Zn 0.34750(3) 0.813196(16) 0.124669(11)
O1 O 0.51673(18) 0.80579(9) 0.21728(7)
O2 O 0.6919(2) 0.90010(10) 0.16943(7)
O3 O 0.6704(2) 0.71531(11) 0.48258(8)
O4 O 0.94234(18) 0.74489(9) 0.54308(6)
N1 N 0.1357(2) 0.74867(11) 0.16116(8)
N2 N 0.2603(2) 0.93612(11) 0.10235(8)
C1 C 0.7805(3) 0.85342(12) 0.29472(9)
C2 C 0.7437(3) 0.80189(12) 0.35377(9)
H1 H 0.6378 0.7675 0.3486
C3 C 0.8632(3) 0.80127(12) 0.42028(9)
C4 C 1.0195(3) 0.84999(13) 0.42730(10)
H2 H 1.1017 0.8475 0.4725
C5 C 1.0589(3) 0.90277(12) 0.36922(9)
C6 C 0.9356(3) 0.90345(13) 0.30369(10)
H3 H 0.9584 0.9394 0.2637
C7 C 0.6563(3) 0.85438(14) 0.22142(10)
C8 C 0.8197(3) 0.74965(13) 0.48545(10)
C9 C 1.2285(3) 0.95942(14) 0.37962(10)
C10 C 1.1849(4) 1.04331(17) 0.41474(18)
H4 H 1.2930 1.0795 0.4228
H5 H 1.1438 1.0319 0.4627
H6 H 1.0895 1.0730 0.3815
C11 C 1.2969(4) 0.9759(2) 0.30573(13)
H7 H 1.4139 1.0051 0.3152
H8 H 1.2104 1.0122 0.2739
H9 H 1.3104 0.9210 0.2805
C12 C 1.3827(3) 0.9152(2) 0.42941(16)
H10 H 1.4936 0.9487 0.4298
H11 H 1.4000 0.8574 0.4102
H12 H 1.3538 0.9111 0.4803
C13 C -0.0234(3) 0.73267(16) 0.11796(11)
H13 H -0.0406 0.7531 0.0680
C14 C -0.1613(3) 0.68847(16) 0.14256(13)
H14 H -0.2715 0.6793 0.1102
C15 C -0.1388(3) 0.65760(15) 0.21407(13)
H15 H -0.2319 0.6261 0.2322
C16 C 0.0234(3) 0.67355(16) 0.25926(13)
H16 H 0.0428 0.6534 0.3093
C17 C 0.1555(3) 0.71841(14) 0.23154(10)
H17 H 0.2661 0.7287 0.2633
C18 C 0.3706(3) 0.99248(14) 0.07678(11)
H18 H 0.4891 0.9745 0.0713
C19 C 0.3192(3) 1.07636(15) 0.05777(12)
H19 H 0.3997 1.1146 0.0385
C20 C 0.1492(4) 1.10275(17) 0.06751(12)
H20 H 0.1114 1.1602 0.0561
C21 C 0.0350(3) 1.04531(17) 0.09380(12)
H21 H -0.0830 1.0624 0.1009
C22 C 0.0936(3) 0.96224(15) 0.10991(10)
H22 H 0.0130 0.9222 0.1269
Zn1C Zn 0.84750(3) 0.686804(16) 0.624669(11)
O4C O 0.44234(18) 0.75511(9) 0.04308(6)
loop_
_geom_bond_atom_site_label_1
_geom_bond_atom_site_label_2
_geom_bond_site_symmetry_1
_geom_bond_site_symmetry_2
Zn1 O1 1_555 1_555
O1 C7 1_555 1_555
O2 C7 1_555 1_555
O3 C8 1_555 1_555
O4 C8 1_555 1_555
N1 Zn1 1_555 1_555
N2 Zn1 1_555 1_555
C1 C2 1_555 1_555
C2 H1 1_555 1_555
C3 C2 1_555 1_555
C4 C3 1_555 1_555
H2 C4 1_555 1_555
C5 C4 1_555 1_555
C6 C1 1_555 1_555
H3 C6 1_555 1_555
C7 C1 1_555 1_555
C8 C3 1_555 1_555
C9 C5 1_555 1_555
C10 C9 1_555 1_555
H4 C10 1_555 1_555
H5 C10 1_555 1_555
H6 C10 1_555 1_555
C11 C9 1_555 1_555
H7 C11 1_555 1_555
H8 C11 1_555 1_555
H9 C11 1_555 1_555
C12 C9 1_555 1_555
H10 C12 1_555 1_555
H11 C12 1_555 1_555
H12 C12 1_555 1_555
C13 N1 1_555 1_555
H13 C13 1_555 1_555
C14 C13 1_555 1_555
H14 C14 1_555 1_555
C15 C14 1_555 1_555
H15 C15 1_555 1_555
C16 C15 1_555 1_555
H16 C16 1_555 1_555
C17 N1 1_555 1_555
H17 C17 1_555 1_555
C18 N2 1_555 1_555
H18 C18 1_555 1_555
C19 C18 1_555 1_555
H19 C19 1_555 1_555
C20 C19 1_555 1_555
H20 C20 1_555 1_555
C21 C20 1_555 1_555
H21 C21 1_555 1_555
C22 N2 1_555 1_555
H22 C22 1_555 1_555
Zn1C O4 1_555 1_555
O4C Zn1 1_555 1_555
C5 C6 1_555 1_555
C16 C17 1_555 1_555
C21 C22 1_555 1_555

#END
