
#######################################################################
#
#                 Cambridge Crystallographic Data Centre
#                                CCDC 
#
#######################################################################
#
# If this CIF has been generated from an entry in the Cambridge 
# Structural Database, then it will include bibliographic, chemical, 
# crystal, experimental, refinement or atomic coordinate data resulting 
# from the CCDC's data processing and validation procedures.
#
#######################################################################

data_OHAJIR01
_symmetry_cell_setting           monoclinic
_symmetry_space_group_name_H-M   'P 21/n'
_symmetry_Int_Tables_number      14
_space_group_name_Hall           '-P 2yn'
loop_
_symmetry_equiv_pos_site_id
_symmetry_equiv_pos_as_xyz
1 x,y,z
2 1/2-x,1/2+y,1/2-z
3 -x,-y,-z
4 1/2+x,1/2-y,1/2+z
_cell_length_a                   9.536(4)
_cell_length_b                   16.918(7)
_cell_length_c                   9.645(4)
_cell_angle_alpha                90
_cell_angle_beta                 98.542(6)
_cell_angle_gamma                90
_cell_volume                     1538.77
loop_
_atom_site_label
_atom_site_type_symbol
_atom_site_fract_x
_atom_site_fract_y
_atom_site_fract_z
Zn1 Zn -0.5000 0.0000 0.0000
S1 S -0.50763(9) 0.13483(5) -0.44564(10)
N1 N -0.3761(2) 0.09072(14) 0.1356(3)
N2 N -0.0551(2) 0.14922(14) 0.5514(3)
N3 N 0.0240(2) 0.12418(14) 0.6759(3)
N4 N 0.3057(2) 0.06735(14) 1.0240(3)
N5 N -0.4788(2) 0.06623(15) -0.1788(3)
C1 C -0.3613(3) 0.16483(17) 0.0878(3)
H1 H -0.4110 0.1790 -0.0015
C2 C -0.2769(3) 0.22071(18) 0.1637(3)
H2 H -0.2698 0.2724 0.1269
C3 C -0.2028(3) 0.20132(17) 0.2932(3)
H3 H -0.1429 0.2390 0.3455
C4 C -0.2171(3) 0.12529(17) 0.3462(3)
C5 C -0.3069(3) 0.07347(17) 0.2630(3)
H4 H -0.3200 0.0222 0.2994
C6 C -0.1424(3) 0.09921(17) 0.4846(3)
C7 C -0.1719(3) 0.01863(16) 0.5389(3)
H5 H -0.1142 0.0105 0.6307
H6 H -0.1480 -0.0217 0.4733
H7 H -0.2726 0.0145 0.5482
C8 C 0.2710(3) 0.08245(18) 1.1518(4)
H8 H -0.3338 -0.0656 -0.2322
C9 C 0.1484(3) 0.12121(18) 1.1710(4)
H9 H -0.1280 -0.1315 -0.2627
C10 C 0.0552(3) 0.14503(18) 1.0542(4)
H10 H 0.0305 -0.1713 -0.0655
C11 C 0.0873(3) 0.13038(16) 0.9213(3)
C12 C -0.2155(3) -0.09221(17) 0.0868(3)
H11 H -0.2403 -0.0833 0.1773
C13 C -0.0073(3) 0.15326(17) 0.7902(3)
C14 C -0.1327(3) 0.2059(2) 0.7969(4)
H12 H -0.1544 0.2356 0.7091
H13 H -0.1108 0.2430 0.8753
H14 H -0.2149 0.1737 0.8109
C15 C -0.4905(3) 0.09519(18) -0.2891(4)
N4_2 N -0.6943(2) 0.06735(14) 0.0240(3)
Zn1_2 Zn 0.5000 0.0000 1.0000
N1B N 0.3761(2) -0.09072(14) 0.8644(3)
C1B C 0.3613(3) -0.16483(17) 0.9122(3)
H1B H 0.4110 -0.1790 1.0015
C2B C 0.2769(3) -0.22071(18) 0.8363(3)
H2B H 0.2698 -0.2724 0.8731
C3B C 0.2028(3) -0.20132(17) 0.7068(3)
H3B H 0.1429 -0.2390 0.6545
C4B C 0.2171(3) -0.12529(17) 0.6538(3)
C5B C 0.3069(3) -0.07347(17) 0.7370(3)
H4B H 0.3200 -0.0222 0.7006
C6B C 0.1424(3) -0.09921(17) 0.5154(3)
N2B N 0.0551(2) -0.14922(14) 0.4486(3)
N3B N -0.0240(2) -0.12418(14) 0.3241(3)
C13B C 0.0073(3) -0.15326(17) 0.2098(3)
C11B C -0.0873(3) -0.13038(16) 0.0787(3)
C10B C -0.0552(3) -0.14503(18) -0.0542(4)
C9B C -0.1484(3) -0.12121(18) -0.1710(4)
C8B C -0.2710(3) -0.08245(18) -0.1518(4)
N4B N -0.3057(2) -0.06735(14) -0.0240(3)
N1B_2 N -0.6239(2) -0.09072(14) -0.1356(3)
N5B N -0.5212(2) -0.06623(15) 0.1788(3)
C15B C -0.5095(3) -0.09519(18) 0.2891(4)
S1B S -0.49237(9) -0.13483(5) 0.44564(10)
C14B C 0.1327(3) -0.2059(2) 0.2031(4)
H12B H 0.1544 -0.2356 0.2909
H13B H 0.1108 -0.2430 0.1247
H14B H 0.2149 -0.1737 0.1891
C7B C 0.1719(3) -0.01863(16) 0.4611(3)
H5B H 0.1142 -0.0105 0.3693
H6B H 0.1480 0.0217 0.5267
H7B H 0.2726 -0.0145 0.4518
C12B C 0.2155(3) 0.09221(17) 0.9132(3)
H11B H 0.2403 0.0833 0.8227
H8B H 0.3338 0.0656 1.2322
H9B H 0.1280 0.1315 1.2627
H10B H -0.0305 0.1713 1.0655
loop_
_geom_bond_atom_site_label_1
_geom_bond_atom_site_label_2
_geom_bond_site_symmetry_1
_geom_bond_site_symmetry_2
Zn1 N1 1_555 1_555
S1 C15 1_555 1_555
N1 C1 1_555 1_555
N2 N3 1_555 1_555
N3 C13 1_555 1_555
N4 C8 1_555 1_555
N5 Zn1 1_555 1_555
C1 H1 1_555 1_555
C2 C1 1_555 1_555
H2 C2 1_555 1_555
C3 C2 1_555 1_555
H3 C3 1_555 1_555
C4 C3 1_555 1_555
C5 N1 1_555 1_555
H4 C5 1_555 1_555
C6 N2 1_555 1_555
C7 C6 1_555 1_555
H5 C7 1_555 1_555
H6 C7 1_555 1_555
H7 C7 1_555 1_555
C8 C9 1_555 1_555
H8 C8B 1_555 1_555
C9 C10 1_555 1_555
H9 C9B 1_555 1_555
C10 C11 1_555 1_555
H10 C10B 1_555 1_555
C11 C13 1_555 1_555
C12 H11 1_555 1_555
C13 C14 1_555 1_555
C14 H12 1_555 1_555
H13 C14 1_555 1_555
H14 C14 1_555 1_555
C15 N5 1_555 1_555
N4_2 Zn1 1_555 1_555
Zn1_2 N4 1_555 1_555
N1B Zn1_2 1_555 1_555
C1B N1B 1_555 1_555
H1B C1B 1_555 1_555
C2B C1B 1_555 1_555
H2B C2B 1_555 1_555
C3B C2B 1_555 1_555
H3B C3B 1_555 1_555
C4B C3B 1_555 1_555
C5B N1B 1_555 1_555
H4B C5B 1_555 1_555
C6B C4B 1_555 1_555
N2B C6B 1_555 1_555
N3B N2B 1_555 1_555
C13B N3B 1_555 1_555
C11B C12 1_555 1_555
C10B C11B 1_555 1_555
C9B C10B 1_555 1_555
C8B C9B 1_555 1_555
N4B Zn1 1_555 1_555
N1B_2 Zn1 1_555 1_555
N5B Zn1 1_555 1_555
C15B N5B 1_555 1_555
S1B C15B 1_555 1_555
C14B C13B 1_555 1_555
H12B C14B 1_555 1_555
H13B C14B 1_555 1_555
H14B C14B 1_555 1_555
C7B C6B 1_555 1_555
H5B C7B 1_555 1_555
H6B C7B 1_555 1_555
H7B C7B 1_555 1_555
C12B N4 1_555 1_555
H11B C12B 1_555 1_555
H8B C8 1_555 1_555
H9B C9 1_555 1_555
H10B C10 1_555 1_555
C4 C5 1_555 1_555
C4 C6 1_555 1_555
C11 C12B 1_555 1_555
C12 N4B 1_555 1_555
C4B C5B 1_555 1_555
C13B C11B 1_555 1_555
C8B N4B 1_555 1_555

#END
