
#######################################################################
#
#                 Cambridge Crystallographic Data Centre
#                                CCDC 
#
#######################################################################
#
# If this CIF has been generated from an entry in the Cambridge 
# Structural Database, then it will include bibliographic, chemical, 
# crystal, experimental, refinement or atomic coordinate data resulting 
# from the CCDC's data processing and validation procedures.
#
#######################################################################

data_OHAJIR
_symmetry_cell_setting           monoclinic
_symmetry_space_group_name_H-M   'P 21/n'
_symmetry_Int_Tables_number      14
_space_group_name_Hall           '-P 2yn'
loop_
_symmetry_equiv_pos_site_id
_symmetry_equiv_pos_as_xyz
1 x,y,z
2 1/2-x,1/2+y,1/2-z
3 -x,-y,-z
4 1/2+x,1/2-y,1/2+z
_cell_length_a                   9.5576(5)
_cell_length_b                   16.9548(10)
_cell_length_c                   9.6533(5)
_cell_angle_alpha                90
_cell_angle_beta                 98.630(3)
_cell_angle_gamma                90
_cell_volume                     1546.58
loop_
_atom_site_label
_atom_site_type_symbol
_atom_site_fract_x
_atom_site_fract_y
_atom_site_fract_z
Zn1 Zn 0.0000 0.0000 0.0000
C1 C -0.2280(6) 0.0819(3) 0.1520(6)
H1 H -0.1663 0.0651 0.2302
C2 C -0.3526(6) 0.1210(3) 0.1724(6)
H2 H -0.3732 0.1312 0.2618
C3 C -0.4448(6) 0.1441(3) 0.0523(6)
H3 H -0.5291 0.1693 0.0623
C4 C -0.4136(6) 0.1304(3) -0.0778(6)
C5 C -0.2848(5) 0.0920(3) -0.0864(5)
H4 H -0.2613 0.0830 -0.1751
C6 C -0.5079(5) 0.1532(3) -0.2093(5)
C7 C -0.6329(7) 0.2058(4) -0.2031(6)
H5 H -0.6530 0.2352 -0.2887
H6 H -0.6120 0.2416 -0.1257
H7 H -0.7136 0.1743 -0.1910
C8 C -0.8616(5) 0.1647(3) -0.9117(5)
H8 H -0.9112 0.1787 -0.9985
C9 C -0.7770(6) 0.2210(3) -0.8363(6)
H9 H -0.7707 0.2715 -0.8725
C10 C -0.7020(5) 0.2018(3) -0.7070(5)
H10 H -0.6431 0.2386 -0.6559
C11 C -0.7167(5) 0.1252(3) -0.6542(5)
C12 C -0.8063(5) 0.0735(3) -0.7368(5)
H11 H -0.8192 0.0236 -0.7007
C13 C -0.6423(5) 0.0993(3) -0.5148(5)
C14 C -0.6719(6) 0.0183(3) -0.4618(6)
H12 H -0.6135 0.0093 -0.3733
H13 H -0.6512 -0.0207 -0.5280
H14 H -0.7697 0.0147 -0.4504
C15 C 0.0096(5) 0.0954(3) -0.2907(5)
N1 N -0.1940(5) 0.0676(3) 0.0237(4)
N2 N -0.4762(4) 0.1239(3) -0.3237(4)
N3 N -0.5549(5) 0.1491(3) -0.4488(4)
N4 N -0.8755(4) 0.0904(3) -0.8650(4)
N5 N 0.0215(5) 0.0666(3) -0.1794(4)
S1 S -0.00744(17) 0.13491(9) -0.44559(15)
Zn1_2 Zn -1.0000 0.0000 -1.0000
C1B C -0.7720(6) -0.0819(3) -1.1520(6)
H1B H -0.8337 -0.0651 -1.2302
C2B C -0.6474(6) -0.1210(3) -1.1724(6)
H2B H -0.6268 -0.1312 -1.2618
C3B C -0.5552(6) -0.1441(3) -1.0523(6)
H3B H -0.4709 -0.1693 -1.0623
C4B C -0.5864(6) -0.1304(3) -0.9222(6)
C5B C -0.7152(5) -0.0920(3) -0.9136(5)
H4B H -0.7387 -0.0830 -0.8249
C6B C -0.4921(5) -0.1532(3) -0.7907(5)
C7B C -0.3671(7) -0.2058(4) -0.7969(6)
H5B H -0.3470 -0.2352 -0.7113
H6B H -0.3880 -0.2416 -0.8743
H7B H -0.2864 -0.1743 -0.8090
C8B C -0.1384(5) -0.1647(3) -0.0883(5)
H8B H -0.0888 -0.1787 -0.0015
C9B C -0.2230(6) -0.2210(3) -0.1637(6)
H9B H -0.2293 -0.2715 -0.1275
C10B C -0.2980(5) -0.2018(3) -0.2930(5)
H10B H -0.3569 -0.2386 -0.3441
C11B C -0.2833(5) -0.1252(3) -0.3458(5)
C12B C -0.1937(5) -0.0735(3) -0.2632(5)
H11B H -0.1808 -0.0236 -0.2993
C13B C -0.3577(5) -0.0993(3) -0.4852(5)
C14B C -0.3281(6) -0.0183(3) -0.5382(6)
H12B H -0.3865 -0.0093 -0.6267
H13B H -0.3488 0.0207 -0.4720
H14B H -0.2303 -0.0147 -0.5496
C15B C -0.0096(5) -0.0954(3) 0.2907(5)
N1B N -0.8060(5) -0.0676(3) -1.0237(4)
N1B_2 N 0.1940(5) -0.0676(3) -0.0237(4)
N2B N -0.5238(4) -0.1239(3) -0.6763(4)
N3B N -0.4451(5) -0.1491(3) -0.5512(4)
N4B N -0.1245(4) -0.0904(3) -0.1350(4)
N4_2 N 0.1245(4) 0.0904(3) 0.1350(4)
N5B N -0.0215(5) -0.0666(3) 0.1794(4)
S1B S 0.00744(17) -0.13491(9) 0.44559(15)
loop_
_geom_bond_atom_site_label_1
_geom_bond_atom_site_label_2
_geom_bond_site_symmetry_1
_geom_bond_site_symmetry_2
Zn1 N1 1_555 1_555
C1 H1 1_555 1_555
C2 C1 1_555 1_555
H2 C2 1_555 1_555
C3 C2 1_555 1_555
H3 C3 1_555 1_555
C4 C3 1_555 1_555
C5 C4 1_555 1_555
H4 C5 1_555 1_555
C6 C4 1_555 1_555
C7 C6 1_555 1_555
H5 C7 1_555 1_555
H6 C7 1_555 1_555
H7 C7 1_555 1_555
C8 H8 1_555 1_555
C9 C8 1_555 1_555
H9 C9 1_555 1_555
C10 C9 1_555 1_555
H10 C10 1_555 1_555
C11 C10 1_555 1_555
C12 C11 1_555 1_555
H11 C12 1_555 1_555
C13 C11 1_555 1_555
C14 C13 1_555 1_555
H12 C14 1_555 1_555
H13 C14 1_555 1_555
H14 C14 1_555 1_555
C15 N5 1_555 1_555
N1 C1 1_555 1_555
N2 C6 1_555 1_555
N3 C13 1_555 1_555
N4 C8 1_555 1_555
N5 Zn1 1_555 1_555
S1 C15 1_555 1_555
Zn1_2 N4 1_555 1_555
C1B H1B 1_555 1_555
C2B C1B 1_555 1_555
H2B C2B 1_555 1_555
C3B C2B 1_555 1_555
H3B C3B 1_555 1_555
C4B C3B 1_555 1_555
C5B C4B 1_555 1_555
H4B C5B 1_555 1_555
C6B C4B 1_555 1_555
C7B C6B 1_555 1_555
H5B C7B 1_555 1_555
H6B C7B 1_555 1_555
H7B C7B 1_555 1_555
C8B H8B 1_555 1_555
C9B C8B 1_555 1_555
H9B C9B 1_555 1_555
C10B C9B 1_555 1_555
H10B C10B 1_555 1_555
C11B C10B 1_555 1_555
C12B C11B 1_555 1_555
H11B C12B 1_555 1_555
C13B C11B 1_555 1_555
C14B C13B 1_555 1_555
H12B C14B 1_555 1_555
H13B C14B 1_555 1_555
H14B C14B 1_555 1_555
C15B N5B 1_555 1_555
N1B Zn1_2 1_555 1_555
N1B_2 Zn1 1_555 1_555
N2B C6B 1_555 1_555
N3B C13B 1_555 1_555
N4B Zn1 1_555 1_555
N4_2 Zn1 1_555 1_555
N5B Zn1 1_555 1_555
S1B C15B 1_555 1_555
C5 N1 1_555 1_555
C12 N4 1_555 1_555
N2 N3 1_555 1_555
C1B N1B 1_555 1_555
C5B N1B 1_555 1_555
C8B N4B 1_555 1_555
C12B N4B 1_555 1_555
N2B N3B 1_555 1_555

#END
