
#######################################################################
#
#                 Cambridge Crystallographic Data Centre
#                                CCDC 
#
#######################################################################
#
# If this CIF has been generated from an entry in the Cambridge 
# Structural Database, then it will include bibliographic, chemical, 
# crystal, experimental, refinement or atomic coordinate data resulting 
# from the CCDC's data processing and validation procedures.
#
#######################################################################

data_OHAJUD
_symmetry_cell_setting           monoclinic
_symmetry_space_group_name_H-M   'P 21'
_symmetry_Int_Tables_number      4
_space_group_name_Hall           'P 2yb'
loop_
_symmetry_equiv_pos_site_id
_symmetry_equiv_pos_as_xyz
1 x,y,z
2 -x,1/2+y,-z
_cell_length_a                   13.5406(14)
_cell_length_b                   7.9202(8)
_cell_length_c                   16.5960(19)
_cell_angle_alpha                90
_cell_angle_beta                 99.731(3)
_cell_angle_gamma                90
_cell_volume                     1754.22
loop_
_atom_site_label
_atom_site_type_symbol
_atom_site_fract_x
_atom_site_fract_y
_atom_site_fract_z
Cu1 Cu 0.46965(4) 0.29928(7) 0.19791(4)
Cu2 Cu 0.52274(4) 0.45564(8) 0.36415(4)
Cu3 Cu 0.64669(4) -0.09506(8) 0.10140(4)
O1 O 0.4075(2) 0.4136(5) 0.2789(2)
C1 C 0.3136(3) 0.4775(7) 0.2637(3)
C2 C 0.2922(4) 0.6337(8) 0.2948(4)
H1 H 0.3442 0.6986 0.3244
C3 C 0.1959(4) 0.6940(8) 0.2826(4)
H2 H 0.1821 0.7984 0.3052
C4 C 0.1207(4) 0.6047(8) 0.2383(4)
H3 H 0.0545 0.6451 0.2317
C5 C 0.1409(4) 0.4554(8) 0.2032(3)
H4 H 0.0882 0.3967 0.1709
C6 C 0.2381(4) 0.3865(7) 0.2137(3)
C7 C 0.2578(4) 0.2225(7) 0.1757(3)
H5 H 0.1967 0.1853 0.1397
H6 H 0.2747 0.1375 0.2187
N1 N 0.3409(3) 0.2340(6) 0.1276(3)
H7 H 0.3247 0.3143 0.0874
C8 C 0.3601(4) 0.0699(6) 0.0882(3)
H8 H 0.3403 -0.0217 0.1228
C9 C 0.4713(4) 0.0507(6) 0.0875(3)
O2 O 0.5314(3) 0.1576(4) 0.1255(2)
O3 O 0.5000(3) -0.0721(5) 0.0499(2)
C10 C 0.3017(4) 0.0442(7) 0.0018(3)
H9 H 0.3001 -0.0764 -0.0114
H10 H 0.2325 0.0822 0.0000
O4 O 0.3445(3) 0.1335(5) -0.0573(2)
H11 H 0.3794 0.0600 -0.0871
O5 O 0.5867(2) 0.3497(5) 0.2818(2)
C11 C 0.6859(4) 0.3557(6) 0.2795(3)
C12 C 0.7205(4) 0.3521(6) 0.2049(3)
H12 H 0.6741 0.3427 0.1562
C13 C 0.8210(4) 0.3620(7) 0.2012(4)
H13 H 0.8427 0.3613 0.1503
C14 C 0.8899(4) 0.3729(8) 0.2725(4)
H14 H 0.9589 0.3778 0.2707
C15 C 0.8557(4) 0.3765(8) 0.3475(4)
H15 H 0.9027 0.3853 0.3960
C16 C 0.7557(4) 0.3674(7) 0.3524(3)
C17 C 0.7228(4) 0.3669(8) 0.4349(3)
H16 H 0.6949 0.2560 0.4445
H17 H 0.7811 0.3863 0.4776
N2 N 0.6469(3) 0.4982(6) 0.4403(3)
H18 H 0.6725 0.5979 0.4242
C18 C 0.6227(4) 0.5278(8) 0.5223(3)
H19 H 0.6263 0.4175 0.5507
C19 C 0.5146(4) 0.5900(7) 0.5138(3)
O6 O 0.4572(3) 0.5561(6) 0.4472(2)
O7 O 0.4882(3) 0.6662(6) 0.5711(2)
C20 C 0.6966(5) 0.6466(9) 0.5744(4)
H20 H 0.6747 0.6664 0.6269
H21 H 0.7630 0.5940 0.5852
O8 O 0.7025(3) 0.8045(6) 0.5332(3)
H22 H 0.6474 0.8530 0.5278
O9 O 0.6966(3) -0.0189(5) 0.0067(2)
C21 C 0.7868(4) 0.0569(7) 0.0114(3)
C22 C 0.8019(5) 0.1730(7) -0.0483(4)
H23 H 0.7495 0.1942 -0.0921
C23 C 0.8918(5) 0.2579(8) -0.0451(4)
H24 H 0.9004 0.3342 -0.0867
C24 C 0.9697(5) 0.2298(9) 0.0203(4)
H25 H 1.0300 0.2903 0.0245
C25 C 0.9564(4) 0.1117(8) 0.0786(4)
H26 H 1.0091 0.0916 0.1222
C26 C 0.8677(4) 0.0213(7) 0.0752(3)
C27 C 0.8595(4) -0.1097(8) 0.1382(4)
H27 H 0.8504 -0.2207 0.1119
H28 H 0.9218 -0.1125 0.1780
N3 N 0.7746(3) -0.0750(6) 0.1809(2)
H29 H 0.7802 0.0349 0.1990
C28 C 0.7685(4) -0.1838(8) 0.2518(4)
H30 H 0.7950 -0.2966 0.2410
C29 C 0.6580(4) -0.2038(7) 0.2617(3)
O10 O 0.5936(3) -0.1806(5) 0.1954(2)
O11 O 0.6344(3) -0.2409(6) 0.3268(3)
C30 C 0.8315(6) -0.1134(13) 0.3330(4)
H31 H 0.8096 0.0015 0.3431
H32 H 0.8216 -0.1847 0.3792
O12 O 0.9314(5) -0.1127(11) 0.3253(4)
H33 H 0.9662 -0.0942 0.3705
O13 O 0.4789(3) 0.5472(5) 0.1168(2)
H34 H 0.492(4) 0.6458(18) 0.1433(16)
H35 H 0.427(2) 0.566(3) 0.077(2)
O14 O 0.4461(3) 0.0106(6) 0.2754(3)
H36 H 0.467(3) 0.048(3) 0.3264(7)
H37 H 0.498(2) -0.045(3) 0.260(2)
Cu2A Cu 0.47726(4) 0.95564(8) 0.63585(4)
Cu3A Cu 0.35331(4) 0.40494(8) -0.10140(4)
O4A O 0.6555(3) -0.3665(5) 0.0573(2)
H11A H 0.6206 -0.4400 0.0871
O7A O 0.5118(3) 0.1662(6) 0.4289(2)
O15 O 0.8948(6) 0.9372(17) 0.5672(6)
H38 H 0.885(4) 0.934(6) 0.5124(7)
H39 H 0.913(4) 0.832(3) 0.584(2)
O16 O 1.0336(6) 1.0740(14) 0.4517(6)
H40 H 1.003(4) 1.128(5) 0.488(3)
H41 H 1.064(4) 1.154(4) 0.426(3)
loop_
_geom_bond_atom_site_label_1
_geom_bond_atom_site_label_2
_geom_bond_site_symmetry_1
_geom_bond_site_symmetry_2
Cu1 O1 1_555 1_555
Cu2 O1 1_555 1_555
Cu3 O2 1_555 1_555
O1 C1 1_555 1_555
C1 C2 1_555 1_555
C2 H1 1_555 1_555
C3 C2 1_555 1_555
H2 C3 1_555 1_555
C4 C3 1_555 1_555
H3 C4 1_555 1_555
C5 C4 1_555 1_555
H4 C5 1_555 1_555
C6 C1 1_555 1_555
C7 C6 1_555 1_555
H5 C7 1_555 1_555
H6 C7 1_555 1_555
N1 Cu1 1_555 1_555
H7 N1 1_555 1_555
C8 N1 1_555 1_555
H8 C8 1_555 1_555
C9 C8 1_555 1_555
O2 Cu1 1_555 1_555
O3 Cu3 1_555 1_555
C10 C8 1_555 1_555
H9 C10 1_555 1_555
H10 C10 1_555 1_555
O4 C10 1_555 1_555
H11 O4 1_555 1_555
O5 Cu1 1_555 1_555
C11 O5 1_555 1_555
C12 C11 1_555 1_555
H12 C12 1_555 1_555
C13 C12 1_555 1_555
H13 C13 1_555 1_555
C14 C13 1_555 1_555
H14 C14 1_555 1_555
C15 C14 1_555 1_555
H15 C15 1_555 1_555
C16 C11 1_555 1_555
C17 C16 1_555 1_555
H16 C17 1_555 1_555
H17 C17 1_555 1_555
N2 Cu2 1_555 1_555
H18 N2 1_555 1_555
C18 N2 1_555 1_555
H19 C18 1_555 1_555
C19 C18 1_555 1_555
O6 Cu2 1_555 1_555
O7 C19 1_555 1_555
C20 C18 1_555 1_555
H20 C20 1_555 1_555
H21 C20 1_555 1_555
O8 C20 1_555 1_555
H22 O8 1_555 1_555
O9 Cu3 1_555 1_555
C21 O9 1_555 1_555
C22 C21 1_555 1_555
H23 C22 1_555 1_555
C23 C22 1_555 1_555
H24 C23 1_555 1_555
C24 C23 1_555 1_555
H25 C24 1_555 1_555
C25 C24 1_555 1_555
H26 C25 1_555 1_555
C26 C21 1_555 1_555
C27 C26 1_555 1_555
H27 C27 1_555 1_555
H28 C27 1_555 1_555
N3 Cu3 1_555 1_555
H29 N3 1_555 1_555
C28 N3 1_555 1_555
H30 C28 1_555 1_555
C29 C28 1_555 1_555
O10 Cu3 1_555 1_555
O11 C29 1_555 1_555
C30 C28 1_555 1_555
H31 C30 1_555 1_555
H32 C30 1_555 1_555
O12 C30 1_555 1_555
H33 O12 1_555 1_555
O13 Cu1 1_555 1_555
H34 O13 1_555 1_555
H35 O13 1_555 1_555
O14 Cu1 1_555 1_555
H36 O14 1_555 1_555
H37 O14 1_555 1_555
O15 H38 1_555 1_555
H39 O15 1_555 1_555
O16 H40 1_555 1_555
H41 O16 1_555 1_555
Cu2A O7 1_555 1_555
Cu3A O4 1_555 1_555
O4A Cu3 1_555 1_555
H11A O4A 1_555 1_555
O7A Cu2 1_555 1_555
Cu2 O5 1_555 1_555
C5 C6 1_555 1_555
C7 N1 1_555 1_555
C9 O2 1_555 1_555
C9 O3 1_555 1_555
C15 C16 1_555 1_555
C17 N2 1_555 1_555
C19 O6 1_555 1_555
C25 C26 1_555 1_555
C27 N3 1_555 1_555
C29 O10 1_555 1_555

#END
