
#######################################################################
#
#                 Cambridge Crystallographic Data Centre
#                                CCDC 
#
#######################################################################
#
# If this CIF has been generated from an entry in the Cambridge 
# Structural Database, then it will include bibliographic, chemical, 
# crystal, experimental, refinement or atomic coordinate data resulting 
# from the CCDC's data processing and validation procedures.
#
#######################################################################

data_OHAKOY
_symmetry_cell_setting           orthorhombic
_symmetry_space_group_name_H-M   'P b c n'
_symmetry_Int_Tables_number      60
_space_group_name_Hall           '-P 2n 2ab'
loop_
_symmetry_equiv_pos_site_id
_symmetry_equiv_pos_as_xyz
1 x,y,z
2 1/2-x,1/2-y,1/2+z
3 1/2+x,1/2-y,-z
4 -x,y,1/2-z
5 -x,-y,-z
6 1/2+x,1/2+y,1/2-z
7 1/2-x,1/2+y,z
8 x,-y,1/2+z
_cell_length_a                   15.540(4)
_cell_length_b                   17.665(3)
_cell_length_c                   17.519(6)
_cell_angle_alpha                90
_cell_angle_beta                 90
_cell_angle_gamma                90
_cell_volume                     4809.21
loop_
_atom_site_label
_atom_site_type_symbol
_atom_site_fract_x
_atom_site_fract_y
_atom_site_fract_z
O2 O -0.2021(2) -0.2395(2) 0.1255(2)
H1 H -0.244(3) -0.214(3) 0.124(4)
O3 O -0.5032(2) -0.0716(2) 0.1723(2)
H2 H -0.5523(17) -0.079(3) 0.158(3)
H3 H -0.484(6) -0.031(3) 0.159(5)
O4 O -0.4349(3) 0.1750(2) 0.1962(2)
H4 H -0.397(4) 0.207(4) 0.189(5)
H5 H -0.476(3) 0.193(3) 0.176(3)
Cd1 Cd -0.319600(19) 0.014180(17) 0.041170(17)
O5 O -0.32297(19) -0.12632(17) 0.08961(18)
O6 O -0.40741(19) -0.08200(16) -0.00180(17)
O7 O -0.2191(2) 0.35707(17) 0.51716(18)
O8 O -0.1440(2) 0.41272(16) 0.42556(18)
N2 N -0.2720(2) 0.0290(2) 0.1638(2)
N3 N -0.2499(2) 0.0964(2) 0.26792(19)
N4 N -0.5772(2) -0.4097(2) 0.0378(2)
N5 N -0.6896(2) -0.4817(2) 0.0137(2)
C3 C -0.3018(3) -0.0121(3) 0.2268(3)
H6 H -0.3265 -0.0600 0.2251
C4 C -0.2885(3) 0.0297(3) 0.2909(2)
H7 H -0.3028 0.0161 0.3405
C5 C -0.2426(3) 0.0935(2) 0.1909(2)
H8 H -0.2198 0.1322 0.1611
C6 C -0.2323(3) 0.1612(2) 0.3141(2)
C7 C -0.1589(3) 0.2036(2) 0.3010(2)
H9 H -0.1198 0.1886 0.2638
C8 C -0.1438(3) 0.2689(2) 0.3435(3)
H10 H -0.0963 0.2991 0.3330
C9 C -0.2004(3) 0.2885(2) 0.4018(2)
C10 C -0.2727(3) 0.2443(3) 0.4146(3)
H11 H -0.3104 0.2573 0.4537
C11 C -0.2901(3) 0.1813(3) 0.3705(3)
H12 H -0.3397 0.1529 0.3787
C12 C -0.1858(3) 0.3575(3) 0.4510(2)
C13 C -0.3852(3) -0.1340(2) 0.0446(2)
C14 C -0.4342(3) -0.2075(3) 0.0426(2)
C15 C -0.4261(3) -0.2591(3) 0.1014(3)
H13 H -0.3905 -0.2479 0.1426
C16 C -0.4705(3) -0.3275(3) 0.1001(3)
H14 H -0.4644 -0.3622 0.1396
C17 C -0.5243(3) -0.3431(2) 0.0384(3)
C18 C -0.5307(3) -0.2927(2) -0.0221(3)
H15 H -0.5647 -0.3043 -0.0642
C19 C -0.4861(3) -0.2250(3) -0.0194(3)
H16 H -0.4909 -0.1908 -0.0595
C20 C -0.5616(3) -0.4790(3) 0.0720(3)
H17 H -0.5132 -0.4930 0.0998
C21 C -0.6310(3) -0.5222(3) 0.0567(3)
H18 H -0.6384 -0.5720 0.0727
C22 C -0.6548(3) -0.4146(3) 0.0036(3)
H19 H -0.6804 -0.3755 -0.0237
O9 O -0.4512(2) 0.05472(18) 0.09507(19)
H20 H -0.495(3) 0.055(3) 0.070(3)
H21 H -0.446(10) 0.076(8) 0.136(4)
Cd1B Cd -0.819600(19) -0.514180(17) -0.041170(17)
Cd1A Cd -0.180400(19) 0.485820(17) 0.541170(17)
O7A O -0.2809(2) 0.14293(17) 0.01716(18)
O8A O -0.3560(2) 0.08728(16) -0.07444(18)
N5B N -0.1896(2) -0.0183(2) -0.0137(2)
C12A C -0.3142(3) 0.1425(3) -0.0490(2)
O1 O 0.0000 0.0583(3) 0.2500
N1 N 0.0000 -0.0713(4) 0.2500
C1 C -0.0517(7) -0.0051(8) 0.2492(6)
C2 C -0.0668(9) -0.1267(11) 0.2541(9)
C1C C 0.0517(7) -0.0051(8) 0.2508(6)
C2C C 0.0668(9) -0.1267(11) 0.2459(9)
loop_
_geom_bond_atom_site_label_1
_geom_bond_atom_site_label_2
_geom_bond_site_symmetry_1
_geom_bond_site_symmetry_2
O1 C1 1_555 1_555
N1 C1 1_555 1_555
C1 C1C 1_555 1_555
C2 N1 1_555 1_555
O2 H1 1_555 1_555
O3 H2 1_555 1_555
H3 O3 1_555 1_555
O4 H4 1_555 1_555
H5 O4 1_555 1_555
Cd1 O5 1_555 1_555
O5 C13 1_555 1_555
O6 Cd1 1_555 1_555
O7 C12 1_555 1_555
O8 C12 1_555 1_555
N2 Cd1 1_555 1_555
N3 C4 1_555 1_555
N4 C17 1_555 1_555
N5 C21 1_555 1_555
C3 N2 1_555 1_555
H6 C3 1_555 1_555
C4 C3 1_555 1_555
H7 C4 1_555 1_555
C5 N2 1_555 1_555
H8 C5 1_555 1_555
C6 N3 1_555 1_555
C7 C6 1_555 1_555
H9 C7 1_555 1_555
C8 C7 1_555 1_555
H10 C8 1_555 1_555
C9 C8 1_555 1_555
C10 C9 1_555 1_555
H11 C10 1_555 1_555
C11 C6 1_555 1_555
H12 C11 1_555 1_555
C12 C9 1_555 1_555
C13 O6 1_555 1_555
C14 C13 1_555 1_555
C15 C14 1_555 1_555
H13 C15 1_555 1_555
C16 C15 1_555 1_555
H14 C16 1_555 1_555
C17 C16 1_555 1_555
C18 C17 1_555 1_555
H15 C18 1_555 1_555
C19 C14 1_555 1_555
H16 C19 1_555 1_555
C20 N4 1_555 1_555
H17 C20 1_555 1_555
C21 C20 1_555 1_555
H18 C21 1_555 1_555
C22 N4 1_555 1_555
H19 C22 1_555 1_555
O9 Cd1 1_555 1_555
H20 O9 1_555 1_555
H21 O9 1_555 1_555
C1C O1 1_555 1_555
C2C N1 1_555 1_555
Cd1B N5 1_555 1_555
Cd1A O7 1_555 1_555
O7A Cd1 1_555 1_555
O8A Cd1 1_555 1_555
N5B Cd1 1_555 1_555
C12A O7A 1_555 1_555
N1 C1C 1_555 1_555
O8 Cd1A 1_555 1_555
N3 C5 1_555 1_555
N5 C22 1_555 1_555
C10 C11 1_555 1_555
C18 C19 1_555 1_555
O8A C12A 1_555 1_555

#END
