
#######################################################################
#
#                 Cambridge Crystallographic Data Centre
#                                CCDC 
#
#######################################################################
#
# If this CIF has been generated from an entry in the Cambridge 
# Structural Database, then it will include bibliographic, chemical, 
# crystal, experimental, refinement or atomic coordinate data resulting 
# from the CCDC's data processing and validation procedures.
#
#######################################################################

data_OHAKIS
_symmetry_cell_setting           orthorhombic
_symmetry_space_group_name_H-M   'P b c a'
_symmetry_Int_Tables_number      61
_space_group_name_Hall           '-P 2ac 2ab'
loop_
_symmetry_equiv_pos_site_id
_symmetry_equiv_pos_as_xyz
1 x,y,z
2 1/2-x,-y,1/2+z
3 1/2+x,1/2-y,-z
4 -x,1/2+y,1/2-z
5 -x,-y,-z
6 1/2+x,y,1/2-z
7 1/2-x,1/2+y,z
8 x,1/2-y,1/2+z
_cell_length_a                   16.720(6)
_cell_length_b                   17.081(5)
_cell_length_c                   18.432(7)
_cell_angle_alpha                90
_cell_angle_beta                 90
_cell_angle_gamma                90
_cell_volume                     5264.07
loop_
_atom_site_label
_atom_site_type_symbol
_atom_site_fract_x
_atom_site_fract_y
_atom_site_fract_z
Cd1 Cd 0.22313(2) 0.00850(2) 0.48090(2)
N1 N 0.3513(3) -0.0213(3) 0.4541(3)
N2 N 0.4574(3) -0.0986(3) 0.4481(2)
N3 N 0.2406(3) 0.0416(3) 0.5980(2)
N4 N 0.2436(3) 0.1115(3) 0.6981(2)
O1 O 0.6153(3) -0.4319(3) 0.5166(2)
O2 O 0.7210(2) -0.3680(3) 0.4778(2)
O3 O 0.2013(2) 0.3555(2) 0.9593(2)
O4 O 0.2100(2) 0.4366(2) 0.8663(2)
C1 C 0.4086(4) 0.0131(3) 0.4100(4)
H1 H 0.4025 0.0608 0.3864
C2 C 0.4744(4) -0.0326(4) 0.4062(4)
H2 H 0.5214 -0.0223 0.3810
C3 C 0.3841(3) -0.0879(3) 0.4760(3)
H3 H 0.3592 -0.1231 0.5072
C4 C 0.5060(3) -0.1661(3) 0.4583(3)
C5 C 0.5880(3) -0.1612(3) 0.4558(3)
H4 H 0.6127 -0.1134 0.4468
C6 C 0.6337(3) -0.2276(3) 0.4666(3)
H5 H 0.6892 -0.2241 0.4651
C7 C 0.5976(3) -0.2996(3) 0.4797(3)
C8 C 0.5142(3) -0.3039(3) 0.4813(3)
H6 H 0.4895 -0.3516 0.4904
C9 C 0.4684(3) -0.2386(3) 0.4697(3)
H7 H 0.4130 -0.2423 0.4694
C10 C 0.6476(3) -0.3705(3) 0.4916(3)
C11 C 0.2854(4) 0.0019(3) 0.6490(3)
H8 H 0.3103 -0.0461 0.6418
C12 C 0.2873(4) 0.0442(3) 0.7116(3)
H9 H 0.3128 0.0306 0.7547
C13 C 0.2171(3) 0.1067(3) 0.6290(3)
H10 H 0.1861 0.1447 0.6063
C14 C 0.2318(3) 0.1753(3) 0.7473(3)
C15 C 0.2244(4) 0.2515(3) 0.7183(3)
H11 H 0.2261 0.2604 0.6686
C16 C 0.2147(4) 0.3126(3) 0.7674(3)
H12 H 0.2084 0.3632 0.7498
C17 C 0.2140(3) 0.3003(3) 0.8410(3)
C18 C 0.2229(3) 0.2240(3) 0.8675(3)
H13 H 0.2234 0.2154 0.9173
C19 C 0.2309(3) 0.1614(3) 0.8206(3)
H14 H 0.2356 0.1107 0.8384
C20 C 0.2072(3) 0.3690(3) 0.8916(3)
Cd1B Cd 0.72313(2) -0.50850(2) 0.51910(2)
Cd1G Cd 0.22313(2) 0.49150(2) 0.98090(2)
O1B O 0.1153(3) -0.0681(3) 0.4834(2)
O2B O 0.2210(2) -0.1320(3) 0.5222(2)
O3G O 0.2013(2) 0.1445(2) 0.4593(2)
O4G O 0.2100(2) 0.0634(2) 0.3663(2)
C10B C 0.1476(3) -0.1295(3) 0.5084(3)
C20G C 0.2072(3) 0.1310(3) 0.3916(3)
N5 N 0.5124(4) -0.1807(5) 0.7207(3)
O5 O 0.4266(3) -0.1314(4) 0.6388(3)
C21 C 0.5552(9) -0.2501(10) 0.7166(16)
H15 H 0.6033 -0.2448 0.7456
H16 H 0.5716 -0.2582 0.6667
C22 C 0.5086(11) -0.3234(10) 0.7425(17)
H17 H 0.5410 -0.3692 0.7356
H18 H 0.4601 -0.3284 0.7150
H19 H 0.4959 -0.3180 0.7931
C23 C 0.5130(13) -0.1390(8) 0.7852(7)
H20 H 0.5117 -0.1758 0.8253
H21 H 0.4647 -0.1076 0.7878
C24 C 0.5847(10) -0.0857(7) 0.7945(7)
H22 H 0.5802 -0.0579 0.8396
H23 H 0.5866 -0.0490 0.7551
H24 H 0.6327 -0.1165 0.7948
C25 C 0.4744(8) -0.1694(10) 0.6667(9)
H25 H 0.4901 -0.2072 0.6332
O6 O 0.4664(7) -0.4644(8) 0.5898(8)
loop_
_geom_bond_atom_site_label_1
_geom_bond_atom_site_label_2
_geom_bond_site_symmetry_1
_geom_bond_site_symmetry_2
Cd1 N1 1_555 1_555
N1 C1 1_555 1_555
N2 C2 1_555 1_555
N3 Cd1 1_555 1_555
N4 C12 1_555 1_555
N5 C21 1_555 1_555
O1 C10 1_555 1_555
O2 C10 1_555 1_555
O3 C20 1_555 1_555
O4 C20 1_555 1_555
O5 C25 1_555 1_555
C1 H1 1_555 1_555
C2 C1 1_555 1_555
H2 C2 1_555 1_555
C3 N1 1_555 1_555
H3 C3 1_555 1_555
C4 N2 1_555 1_555
C5 C4 1_555 1_555
H4 C5 1_555 1_555
C6 C5 1_555 1_555
H5 C6 1_555 1_555
C7 C6 1_555 1_555
C8 C7 1_555 1_555
H6 C8 1_555 1_555
C9 C4 1_555 1_555
H7 C9 1_555 1_555
C10 C7 1_555 1_555
C11 N3 1_555 1_555
H8 C11 1_555 1_555
C12 C11 1_555 1_555
H9 C12 1_555 1_555
C13 N3 1_555 1_555
H10 C13 1_555 1_555
C14 N4 1_555 1_555
C15 C14 1_555 1_555
H11 C15 1_555 1_555
C16 C15 1_555 1_555
H12 C16 1_555 1_555
C17 C16 1_555 1_555
C18 C17 1_555 1_555
H13 C18 1_555 1_555
C19 C14 1_555 1_555
H14 C19 1_555 1_555
C20 C17 1_555 1_555
C21 H15 1_555 1_555
H16 C21 1_555 1_555
C22 C21 1_555 1_555
H17 C22 1_555 1_555
H18 C22 1_555 1_555
H19 C22 1_555 1_555
C23 N5 1_555 1_555
H20 C23 1_555 1_555
H21 C23 1_555 1_555
C24 C23 1_555 1_555
H22 C24 1_555 1_555
H23 C24 1_555 1_555
H24 C24 1_555 1_555
C25 N5 1_555 1_555
H25 C25 1_555 1_555
Cd1B O1 1_555 1_555
Cd1G O3 1_555 1_555
O1B Cd1 1_555 1_555
O2B Cd1 1_555 1_555
O3G Cd1 1_555 1_555
O4G Cd1 1_555 1_555
C10B O1B 1_555 1_555
C20G O3G 1_555 1_555
N2 C3 1_555 1_555
N4 C13 1_555 1_555
O2 Cd1B 1_555 1_555
O4 Cd1G 1_555 1_555
C8 C9 1_555 1_555
C18 C19 1_555 1_555
O2B C10B 1_555 1_555
O4G C20G 1_555 1_555

#END
