
#######################################################################
#
#                 Cambridge Crystallographic Data Centre
#                                CCDC 
#
#######################################################################
#
# If this CIF has been generated from an entry in the Cambridge 
# Structural Database, then it will include bibliographic, chemical, 
# crystal, experimental, refinement or atomic coordinate data resulting 
# from the CCDC's data processing and validation procedures.
#
#######################################################################

data_OHAKUE
_symmetry_cell_setting           monoclinic
_symmetry_space_group_name_H-M   'P 21/c'
_symmetry_Int_Tables_number      14
_space_group_name_Hall           '-P 2ybc'
loop_
_symmetry_equiv_pos_site_id
_symmetry_equiv_pos_as_xyz
1 x,y,z
2 -x,1/2+y,1/2-z
3 -x,-y,-z
4 x,1/2-y,1/2+z
_cell_length_a                   9.4638(11)
_cell_length_b                   10.2020(11)
_cell_length_c                   18.905(2)
_cell_angle_alpha                90
_cell_angle_beta                 93.788(2)
_cell_angle_gamma                90
_cell_volume                     1821.28
loop_
_atom_site_label
_atom_site_type_symbol
_atom_site_fract_x
_atom_site_fract_y
_atom_site_fract_z
Ni1 Ni 0.0000 0.0000 0.0000
Ni2 Ni 0.05525(5) 0.26681(4) 0.19134(2)
C1 C -0.1363(3) 0.1955(3) -0.09119(18)
C2 C -0.1080(3) 0.2599(3) -0.02182(17)
C3 C -0.1380(3) 0.3840(3) 0.00122(17)
H1 H -0.1854 0.4508 -0.0240
C4 C -0.0816(3) 0.3866(3) 0.07039(17)
C5 C -0.0752(3) 0.4904(3) 0.12497(17)
C6 C 0.6266(4) 0.7590(4) -0.1530(2)
H2 H 0.6376 0.8443 -0.1361
C7 C 0.6735(4) 0.5763(4) -0.1923(2)
H3 H 0.7201 0.5037 -0.2094
C8 C 0.4265(4) 0.4831(4) -0.2014(2)
H4 H 0.3361 0.5160 -0.1876
H5 H 0.4182 0.4668 -0.2520
C9 C 0.4601(4) 0.3560(4) -0.1629(2)
H6 H 0.5468 0.3198 -0.1794
H7 H 0.3846 0.2937 -0.1741
C10 C 0.4774(4) 0.3741(4) -0.0835(2)
H8 H 0.5528 0.4368 -0.0725
H9 H 0.3907 0.4106 -0.0672
C11 C 0.5115(4) 0.2475(4) -0.0435(2)
H10 H 0.5331 0.2677 0.0062
H11 H 0.5952 0.2084 -0.0617
C12 C 0.2713(4) 0.1585(3) -0.02224(19)
H12 H 0.2390 0.2298 0.0027
C13 C 0.2877(4) -0.0195(4) -0.0724(2)
H13 H 0.2646 -0.1023 -0.0902
N1 N -0.0376(3) 0.1911(2) 0.03058(14)
N2 N -0.0212(3) 0.2696(2) 0.08794(14)
N3 N 0.7365(3) 0.6869(3) -0.17168(15)
N4 N 0.5026(4) 0.7013(3) -0.16005(18)
N5 N 0.5362(3) 0.5827(3) -0.18551(17)
N6 N 0.3964(3) 0.1531(3) -0.04945(17)
N7 N 0.4100(4) 0.0366(3) -0.08238(19)
N8 N 0.1983(3) 0.0500(3) -0.03494(15)
O1 O -0.1987(2) 0.2557(2) -0.14074(12)
O2 O -0.0915(2) 0.0763(2) -0.09466(11)
O3 O -0.1314(2) 0.5977(2) 0.11282(12)
O4 O -0.0077(2) 0.4587(2) 0.18401(12)
O5 O -0.1543(3) 0.2171(2) 0.22274(12)
H14 H -0.2113 0.2037 0.2549
H15 H -0.1985 0.2595 0.1895
O6 O 0.1142(2) 0.0788(2) 0.20599(11)
H16 H 0.1422 0.0315 0.2412
H17 H 0.0974 0.0285 0.1706
O7 O 0.1084(2) 0.2972(2) 0.29873(11)
H18 H 0.1018 0.3289 0.3400
H19 H 0.1943 0.2756 0.2950
Ni2B Ni -0.05525(5) -0.26681(4) -0.19134(2)
Ni2B_2 Ni 0.94475(5) 0.73319(4) -0.19134(2)
Ni2_2 Ni -0.94475(5) -0.73319(4) 0.19134(2)
C1B C 0.1363(3) -0.1955(3) 0.09119(18)
C2B C 0.1080(3) -0.2599(3) 0.02182(17)
C3B C 0.1380(3) -0.3840(3) -0.00122(17)
H1B H 0.1854 -0.4508 0.0240
C4B C 0.0816(3) -0.3866(3) -0.07039(17)
C5B C 0.0752(3) -0.4904(3) -0.12497(17)
C6B C -0.6266(4) -0.7590(4) 0.1530(2)
H2B H -0.6376 -0.8443 0.1361
C7B C -0.6735(4) -0.5763(4) 0.1923(2)
H3B H -0.7201 -0.5037 0.2094
C8B C -0.4265(4) -0.4831(4) 0.2014(2)
H4B H -0.3361 -0.5160 0.1876
H5B H -0.4182 -0.4668 0.2520
C9B C -0.4601(4) -0.3560(4) 0.1629(2)
H6B H -0.5468 -0.3198 0.1794
H7B H -0.3846 -0.2937 0.1741
C10B C -0.4774(4) -0.3741(4) 0.0835(2)
H8B H -0.5528 -0.4368 0.0725
H9B H -0.3907 -0.4106 0.0672
C11B C -0.5115(4) -0.2475(4) 0.0435(2)
H10B H -0.5331 -0.2677 -0.0062
H11B H -0.5952 -0.2084 0.0617
C12B C -0.2713(4) -0.1585(3) 0.02224(19)
H12B H -0.2390 -0.2298 -0.0027
C13B C -0.2877(4) 0.0195(4) 0.0724(2)
H13B H -0.2646 0.1023 0.0902
N1B N 0.0376(3) -0.1911(2) -0.03058(14)
N2B N 0.0212(3) -0.2696(2) -0.08794(14)
N3B N -0.7365(3) -0.6869(3) 0.17168(15)
N3B_2 N 0.2635(3) 0.3131(3) 0.17168(15)
N3_2 N -0.2635(3) -0.3131(3) -0.17168(15)
N4B N -0.5026(4) -0.7013(3) 0.16005(18)
N5B N -0.5362(3) -0.5827(3) 0.18551(17)
N6B N -0.3964(3) -0.1531(3) 0.04945(17)
N7B N -0.4100(4) -0.0366(3) 0.08238(19)
N8B N -0.1983(3) -0.0500(3) 0.03494(15)
O1B O 0.1987(2) -0.2557(2) 0.14074(12)
O2B O 0.0915(2) -0.0763(2) 0.09466(11)
O3B O 0.1314(2) -0.5977(2) -0.11282(12)
O4B O 0.0077(2) -0.4587(2) -0.18401(12)
O5B O 0.1543(3) -0.2171(2) -0.22274(12)
H14B H 0.2113 -0.2037 -0.2549
H15B H 0.1985 -0.2595 -0.1895
O6B O -0.1142(2) -0.0788(2) -0.20599(11)
H16B H -0.1422 -0.0315 -0.2412
H17B H -0.0974 -0.0285 -0.1706
O7B O -0.1084(2) -0.2972(2) -0.29873(11)
H18B H -0.1018 -0.3289 -0.3400
H19B H -0.1943 -0.2756 -0.2950
loop_
_geom_bond_atom_site_label_1
_geom_bond_atom_site_label_2
_geom_bond_site_symmetry_1
_geom_bond_site_symmetry_2
Ni1 N1 1_555 1_555
Ni2 N2 1_555 1_555
C1 C2 1_555 1_555
C2 C3 1_555 1_555
C3 H1 1_555 1_555
C4 C3 1_555 1_555
C5 C4 1_555 1_555
C6 H2 1_555 1_555
C7 H3 1_555 1_555
C8 H4 1_555 1_555
H5 C8 1_555 1_555
C9 C8 1_555 1_555
H6 C9 1_555 1_555
H7 C9 1_555 1_555
C10 C9 1_555 1_555
H8 C10 1_555 1_555
H9 C10 1_555 1_555
C11 C10 1_555 1_555
H10 C11 1_555 1_555
H11 C11 1_555 1_555
C12 H12 1_555 1_555
C13 H13 1_555 1_555
N1 C2 1_555 1_555
N2 C4 1_555 1_555
N3 C6 1_555 1_555
N4 C6 1_555 1_555
N5 C7 1_555 1_555
N6 C11 1_555 1_555
N7 C13 1_555 1_555
N8 Ni1 1_555 1_555
O1 C1 1_555 1_555
O2 Ni1 1_555 1_555
O3 C5 1_555 1_555
O4 Ni2 1_555 1_555
O5 Ni2 1_555 1_555
H14 O5 1_555 1_555
H15 O5 1_555 1_555
O6 Ni2 1_555 1_555
H16 O6 1_555 1_555
H17 O6 1_555 1_555
O7 Ni2 1_555 1_555
H18 O7 1_555 1_555
H19 O7 1_555 1_555
Ni2B N2B 1_555 1_555
Ni2B_2 N3 1_555 1_555
Ni2_2 N3B 1_555 1_555
C1B C2B 1_555 1_555
C2B C3B 1_555 1_555
C3B H1B 1_555 1_555
C4B C3B 1_555 1_555
C5B C4B 1_555 1_555
C6B H2B 1_555 1_555
C7B H3B 1_555 1_555
C8B H4B 1_555 1_555
H5B C8B 1_555 1_555
C9B C8B 1_555 1_555
H6B C9B 1_555 1_555
H7B C9B 1_555 1_555
C10B C9B 1_555 1_555
H8B C10B 1_555 1_555
H9B C10B 1_555 1_555
C11B C10B 1_555 1_555
H10B C11B 1_555 1_555
H11B C11B 1_555 1_555
C12B H12B 1_555 1_555
C13B H13B 1_555 1_555
N1B Ni1 1_555 1_555
N2B C4B 1_555 1_555
N3B C6B 1_555 1_555
N3B_2 Ni2 1_555 1_555
N3_2 Ni2B 1_555 1_555
N4B C6B 1_555 1_555
N5B C7B 1_555 1_555
N6B C11B 1_555 1_555
N7B C13B 1_555 1_555
N8B Ni1 1_555 1_555
O1B C1B 1_555 1_555
O2B Ni1 1_555 1_555
O3B C5B 1_555 1_555
O4B Ni2B 1_555 1_555
O5B Ni2B 1_555 1_555
H14B O5B 1_555 1_555
H15B O5B 1_555 1_555
O6B Ni2B 1_555 1_555
H16B O6B 1_555 1_555
H17B O6B 1_555 1_555
O7B Ni2B 1_555 1_555
H18B O7B 1_555 1_555
H19B O7B 1_555 1_555
C1 O2 1_555 1_555
C5 O4 1_555 1_555
C7 N3 1_555 1_555
C8 N5 1_555 1_555
C12 N6 1_555 1_555
C12 N8 1_555 1_555
C13 N8 1_555 1_555
N1 N2 1_555 1_555
N4 N5 1_555 1_555
N6 N7 1_555 1_555
C1B O2B 1_555 1_555
C2B N1B 1_555 1_555
C5B O4B 1_555 1_555
C7B N3B 1_555 1_555
C8B N5B 1_555 1_555
C12B N6B 1_555 1_555
C12B N8B 1_555 1_555
C13B N8B 1_555 1_555
N1B N2B 1_555 1_555
N4B N5B 1_555 1_555
N6B N7B 1_555 1_555

#END
