
#######################################################################
#
#                 Cambridge Crystallographic Data Centre
#                                CCDC 
#
#######################################################################
#
# If this CIF has been generated from an entry in the Cambridge 
# Structural Database, then it will include bibliographic, chemical, 
# crystal, experimental, refinement or atomic coordinate data resulting 
# from the CCDC's data processing and validation procedures.
#
#######################################################################

data_OHALOZ
_symmetry_cell_setting           monoclinic
_symmetry_space_group_name_H-M   'P 21/c'
_symmetry_Int_Tables_number      14
_space_group_name_Hall           '-P 2ybc'
loop_
_symmetry_equiv_pos_site_id
_symmetry_equiv_pos_as_xyz
1 x,y,z
2 -x,1/2+y,1/2-z
3 -x,-y,-z
4 x,1/2-y,1/2+z
_cell_length_a                   13.949(2)
_cell_length_b                   10.1892(15)
_cell_length_c                   20.222(2)
_cell_angle_alpha                90
_cell_angle_beta                 116.857(8)
_cell_angle_gamma                90
_cell_volume                     2564.12
loop_
_atom_site_label
_atom_site_type_symbol
_atom_site_fract_x
_atom_site_fract_y
_atom_site_fract_z
C1 C 0.5854(3) 0.5317(3) 0.16072(17)
C2 C 0.5783(3) 0.6267(3) 0.10211(18)
C3 C 0.6097(3) 0.6166(3) 0.04727(18)
H1 H 0.6414 0.5456 0.0358
C4 C 0.5828(3) 0.7380(3) 0.0132(2)
C5 C 0.5903(3) 0.7969(3) -0.05198(19)
C6 C 0.2474(3) 0.7520(3) 0.0588(2)
H2 H 0.2435 0.8431 0.0561
C7 C 0.3065(3) 0.5666(3) 0.09365(19)
H3 H 0.3492 0.4959 0.1193
C8 C 0.1446(3) 0.4407(3) 0.00615(19)
H4 H 0.0855 0.4403 0.0190
H5 H 0.1880 0.3634 0.0281
C9 C 0.1000(3) 0.4327(4) -0.0767(2)
H6 H 0.0630 0.5142 -0.0980
H7 H 0.1594 0.4246 -0.0890
C10 C 0.0238(3) 0.3208(4) -0.1116(2)
H8 H -0.0356 0.3282 -0.0992
H9 H 0.0607 0.2389 -0.0909
C11 C -0.0208(3) 0.3170(4) -0.1963(2)
H10 H -0.0520 0.4017 -0.2164
H11 H 0.0382 0.3021 -0.2085
C12 C -0.1035(3) 0.2132(4) -0.2323(2)
H12 H -0.1642 0.2318 -0.2225
H13 H -0.0735 0.1297 -0.2093
C13 C -0.1441(3) 0.2001(4) -0.3147(2)
H14 H -0.0832 0.1876 -0.3250
H15 H -0.1887 0.1223 -0.3316
C14 C -0.3131(3) 0.3205(3) -0.39505(17)
H16 H -0.3603 0.2542 -0.3972
C15 C -0.2460(3) 0.4944(4) -0.40669(18)
H17 H -0.2397 0.5795 -0.4208
C16 C 0.7226(3) 0.7267(4) 0.3031(2)
H18 H 0.7084 0.6430 0.3149
C17 C 0.7030(3) 0.9401(4) 0.25090(19)
H19 H 0.6774 1.0179 0.2247
C18 C 0.9129(3) 0.7124(4) 0.3741(2)
H20 H 0.9619 0.7767 0.4078
H21 H 0.9454 0.6771 0.3445
C19 C 0.8977(3) 0.6049(3) 0.41774(19)
H22 H 0.8582 0.5338 0.3848
H23 H 0.8557 0.6367 0.4418
C20 C 1.0047(3) 0.5542(4) 0.4758(2)
H24 H 1.0447 0.6267 0.5073
H25 H 1.0456 0.5214 0.4512
N1 N 0.5361(2) 0.7456(3) 0.10239(16)
N2 N 0.5374(2) 0.8141(3) 0.04639(15)
N3 N 0.3347(2) 0.6881(3) 0.10855(15)
N4 N 0.1680(2) 0.6765(3) 0.01418(15)
N5 N 0.2085(2) 0.5550(3) 0.03692(16)
N6 N -0.2069(2) 0.3146(3) -0.35758(15)
N7 N -0.1621(2) 0.4242(3) -0.36365(15)
N8 N -0.3416(2) 0.4356(3) -0.42901(16)
N9 N 0.6441(2) 0.8187(3) 0.25604(16)
N10 N 0.8086(2) 0.8988(3) 0.29819(16)
N11 N 0.8122(2) 0.7771(3) 0.32545(16)
Ni1 Ni 0.48421(3) 0.76114(4) 0.18209(2)
Ni2 Ni 0.5000 1.0000 0.0000
O1 O 0.6311(2) 0.4259(2) 0.16871(14)
O2 O 0.53843(19) 0.5695(2) 0.20049(13)
O3 O 0.55528(19) 0.9131(2) -0.06816(12)
O4 O 0.62779(19) 0.7304(2) -0.08642(13)
O5 O 0.4497(2) 0.7407(2) 0.27207(13)
H26 H 0.4663 0.8120 0.2966
H27 H 0.4895 0.6806 0.3002
O6 O 0.42555(18) 0.9426(2) 0.17057(11)
H28 H 0.4074 0.9951 0.1956
H29 H 0.4299 0.9866 0.1363
C1B C 0.4146(3) 1.4683(3) -0.16072(17)
C2B C 0.4217(3) 1.3733(3) -0.10211(18)
C3B C 0.3903(3) 1.3834(3) -0.04727(18)
H1B H 0.3586 1.4544 -0.0358
C4B C 0.4172(3) 1.2620(3) -0.0132(2)
C5B C 0.4097(3) 1.2031(3) 0.05198(19)
C6B C 0.7526(3) 1.2480(3) -0.0588(2)
H2B H 0.7565 1.1569 -0.0561
C7B C 0.6935(3) 1.4334(3) -0.09365(19)
H3B H 0.6508 1.5041 -0.1193
C8B C 0.8554(3) 1.5593(3) -0.00615(19)
H4B H 0.9145 1.5597 -0.0190
H5B H 0.8120 1.6366 -0.0281
C9B C 0.9000(3) 1.5673(4) 0.0767(2)
H6B H 0.9370 1.4858 0.0980
H7B H 0.8406 1.5754 0.0890
C10B C 0.9762(3) 1.6792(4) 0.1116(2)
H8B H 1.0356 1.6718 0.0992
H9B H 0.9393 1.7611 0.0909
C11B C 1.0208(3) 1.6830(4) 0.1963(2)
H10B H 1.0520 1.5983 0.2164
H11B H 0.9618 1.6979 0.2085
C12B C 1.1035(3) 1.7868(4) 0.2323(2)
H12B H 1.1642 1.7682 0.2225
H13B H 1.0735 1.8703 0.2093
C13B C 1.1441(3) 1.7999(4) 0.3147(2)
H14B H 1.0832 1.8124 0.3250
H15B H 1.1887 1.8777 0.3316
C14B C 1.3131(3) 1.6795(3) 0.39505(17)
H16B H 1.3603 1.7458 0.3972
C15B C 1.2460(3) 1.5056(4) 0.40669(18)
H17B H 1.2397 1.4205 0.4208
C16B C 1.2774(3) 0.2733(4) 0.6969(2)
H18B H 1.2916 0.3570 0.6851
C17B C 1.2970(3) 0.0599(4) 0.74910(19)
H19B H 1.3226 -0.0179 0.7753
C18B C 1.0871(3) 0.2876(4) 0.6259(2)
H20B H 1.0381 0.2233 0.5922
H21B H 1.0546 0.3229 0.6555
C19B C 1.1023(3) 0.3951(3) 0.58226(19)
H22B H 1.1418 0.4662 0.6152
H23B H 1.1443 0.3633 0.5582
C20B C 0.9953(3) 0.4458(4) 0.5242(2)
H24B H 0.9553 0.3733 0.4927
H25B H 0.9544 0.4786 0.5488
N1B N 0.4639(2) 1.2544(3) -0.10239(16)
N2B N 0.4626(2) 1.1859(3) -0.04639(15)
N3B N 0.6653(2) 1.3119(3) -0.10855(15)
N4B N 0.8320(2) 1.3235(3) -0.01418(15)
N5B N 0.7915(2) 1.4450(3) -0.03692(16)
N6B N 1.2069(2) 1.6854(3) 0.35758(15)
N7B N 1.1621(2) 1.5758(3) 0.36365(15)
N8B N 1.3416(2) 1.5644(3) 0.42901(16)
N8A N 0.3416(2) 0.9356(3) -0.07099(16)
N8C N 0.6584(2) 1.0644(3) 0.07099(16)
N9B N 1.3559(2) 0.1813(3) 0.74396(16)
N9B_2 N 0.3559(2) 1.1813(3) -0.25604(16)
N10B N 1.1914(2) 0.1012(3) 0.70181(16)
N11B N 1.1878(2) 0.2229(3) 0.67455(16)
Ni1B Ni 0.51579(3) 1.23886(4) -0.18209(2)
Ni1B_2 Ni 1.51579(3) 0.23886(4) 0.81791(2)
Ni2A Ni -0.5000 0.5000 -0.5000
Ni2A_2 Ni 1.5000 1.5000 0.5000
O1B O 0.3689(2) 1.5741(2) -0.16871(14)
O2B O 0.46157(19) 1.4305(2) -0.20049(13)
O3B O 0.44472(19) 1.0869(2) 0.06816(12)
O4B O 0.37221(19) 1.2696(2) 0.08642(13)
O5B O 0.5503(2) 1.2593(2) -0.27207(13)
H26B H 0.5337 1.1880 -0.2966
H27B H 0.5105 1.3194 -0.3002
O6B O 0.57445(18) 1.0574(2) -0.17057(11)
H28B H 0.5926 1.0049 -0.1956
H29B H 0.5701 1.0134 -0.1363
loop_
_geom_bond_atom_site_label_1
_geom_bond_atom_site_label_2
_geom_bond_site_symmetry_1
_geom_bond_site_symmetry_2
C1 C2 1_555 1_555
C2 C3 1_555 1_555
C3 H1 1_555 1_555
C4 C3 1_555 1_555
C5 C4 1_555 1_555
C6 H2 1_555 1_555
C7 H3 1_555 1_555
C8 H4 1_555 1_555
H5 C8 1_555 1_555
C9 C8 1_555 1_555
H6 C9 1_555 1_555
H7 C9 1_555 1_555
C10 C9 1_555 1_555
H8 C10 1_555 1_555
H9 C10 1_555 1_555
C11 C10 1_555 1_555
H10 C11 1_555 1_555
H11 C11 1_555 1_555
C12 C11 1_555 1_555
H12 C12 1_555 1_555
H13 C12 1_555 1_555
C13 C12 1_555 1_555
H14 C13 1_555 1_555
H15 C13 1_555 1_555
C14 H16 1_555 1_555
C15 H17 1_555 1_555
C16 H18 1_555 1_555
C17 H19 1_555 1_555
C18 H20 1_555 1_555
H21 C18 1_555 1_555
C19 C18 1_555 1_555
H22 C19 1_555 1_555
H23 C19 1_555 1_555
C20 C19 1_555 1_555
H24 C20 1_555 1_555
H25 C20 1_555 1_555
N1 C2 1_555 1_555
N2 C4 1_555 1_555
N3 C6 1_555 1_555
N4 C6 1_555 1_555
N5 C7 1_555 1_555
N6 C13 1_555 1_555
N7 C15 1_555 1_555
N8 C14 1_555 1_555
N9 C16 1_555 1_555
N10 C17 1_555 1_555
N11 C16 1_555 1_555
Ni1 N1 1_555 1_555
Ni2 N2 1_555 1_555
O1 C1 1_555 1_555
O2 C1 1_555 1_555
O3 C5 1_555 1_555
O4 C5 1_555 1_555
O5 Ni1 1_555 1_555
H26 O5 1_555 1_555
H27 O5 1_555 1_555
O6 Ni1 1_555 1_555
H28 O6 1_555 1_555
H29 O6 1_555 1_555
C1B C2B 1_555 1_555
C2B C3B 1_555 1_555
C3B H1B 1_555 1_555
C4B C3B 1_555 1_555
C5B C4B 1_555 1_555
C6B H2B 1_555 1_555
C7B H3B 1_555 1_555
C8B H4B 1_555 1_555
H5B C8B 1_555 1_555
C9B C8B 1_555 1_555
H6B C9B 1_555 1_555
H7B C9B 1_555 1_555
C10B C9B 1_555 1_555
H8B C10B 1_555 1_555
H9B C10B 1_555 1_555
C11B C10B 1_555 1_555
H10B C11B 1_555 1_555
H11B C11B 1_555 1_555
C12B C11B 1_555 1_555
H12B C12B 1_555 1_555
H13B C12B 1_555 1_555
C13B C12B 1_555 1_555
H14B C13B 1_555 1_555
H15B C13B 1_555 1_555
C14B H16B 1_555 1_555
C15B H17B 1_555 1_555
C16B H18B 1_555 1_555
C17B H19B 1_555 1_555
C18B H20B 1_555 1_555
H21B C18B 1_555 1_555
C19B C18B 1_555 1_555
H22B C19B 1_555 1_555
H23B C19B 1_555 1_555
C20B C20 1_555 1_555
H24B C20B 1_555 1_555
H25B C20B 1_555 1_555
N1B C2B 1_555 1_555
N2B Ni2 1_555 1_555
N3B C6B 1_555 1_555
N4B C6B 1_555 1_555
N5B C7B 1_555 1_555
N6B C13B 1_555 1_555
N7B C15B 1_555 1_555
N8B C14B 1_555 1_555
N8A Ni2 1_555 1_555
N8C Ni2 1_555 1_555
N9B C16B 1_555 1_555
N9B_2 Ni1B 1_555 1_555
N10B C17B 1_555 1_555
N11B C16B 1_555 1_555
Ni1B N1B 1_555 1_555
Ni1B_2 N9B 1_555 1_555
Ni2A N8 1_555 1_555
Ni2A_2 N8B 1_555 1_555
O1B C1B 1_555 1_555
O2B C1B 1_555 1_555
O3B Ni2 1_555 1_555
O4B C5B 1_555 1_555
O5B Ni1B 1_555 1_555
H26B O5B 1_555 1_555
H27B O5B 1_555 1_555
O6B Ni1B 1_555 1_555
H28B O6B 1_555 1_555
H29B O6B 1_555 1_555
C7 N3 1_555 1_555
C8 N5 1_555 1_555
C14 N6 1_555 1_555
C15 N8 1_555 1_555
C17 N9 1_555 1_555
C18 N11 1_555 1_555
N1 N2 1_555 1_555
N3 Ni1 1_555 1_555
N4 N5 1_555 1_555
N6 N7 1_555 1_555
N9 Ni1 1_555 1_555
N10 N11 1_555 1_555
Ni1 O2 1_555 1_555
Ni2 O3 1_555 1_555
C4B N2B 1_555 1_555
C5B O3B 1_555 1_555
C7B N3B 1_555 1_555
C8B N5B 1_555 1_555
C14B N6B 1_555 1_555
C15B N8B 1_555 1_555
C17B N9B 1_555 1_555
C18B N11B 1_555 1_555
C19B C20B 1_555 1_555
N1B N2B 1_555 1_555
N3B Ni1B 1_555 1_555
N4B N5B 1_555 1_555
N6B N7B 1_555 1_555
N10B N11B 1_555 1_555
Ni1B O2B 1_555 1_555

#END
