
#######################################################################
#
#                 Cambridge Crystallographic Data Centre
#                                CCDC 
#
#######################################################################
#
# If this CIF has been generated from an entry in the Cambridge 
# Structural Database, then it will include bibliographic, chemical, 
# crystal, experimental, refinement or atomic coordinate data resulting 
# from the CCDC's data processing and validation procedures.
#
#######################################################################

data_OHALEP
_symmetry_cell_setting           monoclinic
_symmetry_space_group_name_H-M   'P 21/c'
_symmetry_Int_Tables_number      14
_space_group_name_Hall           '-P 2ybc'
loop_
_symmetry_equiv_pos_site_id
_symmetry_equiv_pos_as_xyz
1 x,y,z
2 -x,1/2+y,1/2-z
3 -x,-y,-z
4 x,1/2-y,1/2+z
_cell_length_a                   11.3568(12)
_cell_length_b                   9.0204(9)
_cell_length_c                   19.742(2)
_cell_angle_alpha                90
_cell_angle_beta                 95.517(2)
_cell_angle_gamma                90
_cell_volume                     2013.06
loop_
_atom_site_label
_atom_site_type_symbol
_atom_site_fract_x
_atom_site_fract_y
_atom_site_fract_z
Ni1 Ni 0.0000 1.0000 0.0000
Ni2 Ni 0.01608(4) 0.72389(5) 0.18991(2)
C1 C -0.0949(3) 0.7658(4) -0.08766(17)
C2 C -0.0989(3) 0.7100(3) -0.01766(16)
C3 C -0.1450(3) 0.5817(4) 0.00781(16)
H1 H -0.1844 0.5048 -0.0162
C4 C -0.1188(3) 0.5949(3) 0.07745(16)
C5 C -0.1382(3) 0.4965(4) 0.13550(17)
C6 C 0.2386(3) 0.8564(4) 0.0443(2)
H2 H 0.2092 0.8117 0.0816
C7 C 0.2555(3) 0.9704(5) -0.0461(2)
H3 H 0.2360 1.0244 -0.0857
C8 C 0.4522(4) 0.8009(5) 0.0770(2)
H4 H 0.4235 0.7530 0.1162
H5 H 0.5008 0.8844 0.0932
C9 C 0.5276(4) 0.6925(5) 0.0421(2)
H6 H 0.5927 0.6608 0.0742
H7 H 0.5609 0.7427 0.0049
C10 C 0.4605(4) 0.5571(5) 0.0145(3)
H8 H 0.4001 0.5878 -0.0208
H9 H 0.4211 0.5120 0.0508
N1 N -0.0483(2) 0.7947(3) 0.03350(13)
N2 N -0.0601(2) 0.7237(3) 0.09210(13)
N3 N 0.1738(2) 0.9290(3) -0.00377(15)
N4 N 0.3638(3) 0.9282(4) -0.02667(18)
N5 N 0.3509(3) 0.8558(4) 0.03238(17)
O1 O -0.0513(2) 0.8954(2) -0.09353(11)
O2 O -0.1324(2) 0.6877(3) -0.13740(11)
O3 O -0.1982(2) 0.3820(3) 0.12783(12)
O4 O -0.0862(2) 0.5390(3) 0.19299(11)
O5 O 0.1577(2) 0.6086(3) 0.15657(12)
H17 H 0.2174 0.6036 0.1859
H18 H 0.1548 0.5285 0.1338
O6 O 0.1226(2) 0.9055(2) 0.19261(11)
H19 H 0.1170 0.9570 0.2282
H20 H 0.1523 0.9603 0.1636
O7 O 0.0876(2) 0.6746(3) 0.29244(11)
H21 H 0.1145 0.5887 0.2852
H22 H 0.0142 0.6658 0.2969
O8 O -0.1228(2) 0.8463(3) 0.22648(12)
H23 H -0.1716 0.8737 0.1935
H24 H -0.0537 0.8673 0.2164
Ni1_2 Ni 1.0000 0.0000 0.0000
Ni2B Ni -0.01608(4) 1.27611(5) -0.18991(2)
C1B C 0.0949(3) 1.2342(4) 0.08766(17)
C2B C 0.0989(3) 1.2900(3) 0.01766(16)
C3B C 0.1450(3) 1.4183(4) -0.00781(16)
H1B H 0.1844 1.4952 0.0162
C4B C 0.1188(3) 1.4051(3) -0.07745(16)
C5B C 0.1382(3) 1.5035(4) -0.13550(17)
C6B C 0.7614(3) 0.1436(4) -0.0443(2)
H2B H 0.7908 0.1883 -0.0816
C7B C 0.7445(3) 0.0296(5) 0.0461(2)
H3B H 0.7640 -0.0244 0.0857
C8B C 0.5478(4) 0.1991(5) -0.0770(2)
H4B H 0.5765 0.2470 -0.1162
H5B H 0.4992 0.1156 -0.0932
C9B C 0.4724(4) 0.3075(5) -0.0421(2)
H6B H 0.4073 0.3392 -0.0742
H7B H 0.4391 0.2573 -0.0049
C10B C 0.5395(4) 0.4429(5) -0.0145(3)
H8B H 0.5999 0.4122 0.0208
H9B H 0.5789 0.4880 -0.0508
N1B N 0.0483(2) 1.2053(3) -0.03350(13)
N2B N 0.0601(2) 1.2763(3) -0.09210(13)
N3B N 0.8262(2) 0.0710(3) 0.00377(15)
N3B_2 N -0.1738(2) 1.0710(3) 0.00377(15)
N4B N 0.6362(3) 0.0718(4) 0.02667(18)
N5B N 0.6491(3) 0.1442(4) -0.03238(17)
O1B O 0.0513(2) 1.1046(2) 0.09353(11)
O2B O 0.1324(2) 1.3123(3) 0.13740(11)
O3B O 0.1982(2) 1.6180(3) -0.12783(12)
O4B O 0.0862(2) 1.4610(3) -0.19299(11)
O5B O -0.1577(2) 1.3914(3) -0.15657(12)
H17B H -0.2174 1.3964 -0.1859
H18B H -0.1548 1.4715 -0.1338
O6B O -0.1226(2) 1.0945(2) -0.19261(11)
H19B H -0.1170 1.0430 -0.2282
H20B H -0.1523 1.0397 -0.1636
O7B O -0.0876(2) 1.3254(3) -0.29244(11)
H21B H -0.1145 1.4113 -0.2852
H22B H -0.0142 1.3342 -0.2969
O8B O 0.1228(2) 1.1537(3) -0.22648(12)
H23B H 0.1716 1.1263 -0.1935
H24B H 0.0537 1.1327 -0.2164
C11 C 0.4303(6) 0.2325(9) 0.1426(3)
H10 H 0.4958 0.2722 0.1212
H11 H 0.3769 0.3112 0.1515
H12 H 0.3894 0.1607 0.1131
C12 C 0.3883(6) 0.1088(11) 0.2474(4)
H13 H 0.4285 0.0653 0.2875
H14 H 0.3399 0.0353 0.2231
H15 H 0.3395 0.1891 0.2601
C13 C 0.5854(5) 0.1539(7) 0.2252(3)
H16 H 0.6381 0.1917 0.1964
N6 N 0.4740(4) 0.1640(5) 0.2053(2)
O9 O 0.6275(3) 0.0992(6) 0.2786(2)
loop_
_geom_bond_atom_site_label_1
_geom_bond_atom_site_label_2
_geom_bond_site_symmetry_1
_geom_bond_site_symmetry_2
Ni1 N1 1_555 1_555
Ni2 N2 1_555 1_555
C1 C2 1_555 1_555
C2 C3 1_555 1_555
C3 H1 1_555 1_555
C4 C3 1_555 1_555
C5 C4 1_555 1_555
C6 H2 1_555 1_555
C7 H3 1_555 1_555
C8 H4 1_555 1_555
H5 C8 1_555 1_555
C9 C8 1_555 1_555
H6 C9 1_555 1_555
H7 C9 1_555 1_555
C10 C9 1_555 1_555
H8 C10 1_555 1_555
H9 C10 1_555 1_555
C11 H10 1_555 1_555
H11 C11 1_555 1_555
H12 C11 1_555 1_555
C12 H13 1_555 1_555
H14 C12 1_555 1_555
H15 C12 1_555 1_555
C13 H16 1_555 1_555
N1 C2 1_555 1_555
N2 C4 1_555 1_555
N3 Ni1 1_555 1_555
N4 C7 1_555 1_555
N5 C6 1_555 1_555
N6 C11 1_555 1_555
O1 Ni1 1_555 1_555
O2 C1 1_555 1_555
O3 C5 1_555 1_555
O4 Ni2 1_555 1_555
O5 Ni2 1_555 1_555
H17 O5 1_555 1_555
H18 O5 1_555 1_555
O6 Ni2 1_555 1_555
H19 O6 1_555 1_555
H20 O6 1_555 1_555
O7 Ni2 1_555 1_555
H21 O7 1_555 1_555
H22 O7 1_555 1_555
O8 Ni2 1_555 1_555
H23 O8 1_555 1_555
H24 O8 1_555 1_555
O9 C13 1_555 1_555
Ni1_2 N3B 1_555 1_555
Ni2B N2B 1_555 1_555
C1B C2B 1_555 1_555
C2B C3B 1_555 1_555
C3B H1B 1_555 1_555
C4B C3B 1_555 1_555
C5B C4B 1_555 1_555
C6B H2B 1_555 1_555
C7B H3B 1_555 1_555
C8B H4B 1_555 1_555
H5B C8B 1_555 1_555
C9B C8B 1_555 1_555
H6B C9B 1_555 1_555
H7B C9B 1_555 1_555
C10B C10 1_555 1_555
H8B C10B 1_555 1_555
H9B C10B 1_555 1_555
N1B Ni1 1_555 1_555
N2B C4B 1_555 1_555
N3B C6B 1_555 1_555
N3B_2 Ni1 1_555 1_555
N4B C7B 1_555 1_555
N5B C6B 1_555 1_555
O1B Ni1 1_555 1_555
O2B C1B 1_555 1_555
O3B C5B 1_555 1_555
O4B Ni2B 1_555 1_555
O5B Ni2B 1_555 1_555
H17B O5B 1_555 1_555
H18B O5B 1_555 1_555
O6B Ni2B 1_555 1_555
H19B O6B 1_555 1_555
H20B O6B 1_555 1_555
O7B Ni2B 1_555 1_555
H21B O7B 1_555 1_555
H22B O7B 1_555 1_555
O8B Ni2B 1_555 1_555
H23B O8B 1_555 1_555
H24B O8B 1_555 1_555
C1 O1 1_555 1_555
C5 O4 1_555 1_555
C6 N3 1_555 1_555
C7 N3 1_555 1_555
C8 N5 1_555 1_555
C12 N6 1_555 1_555
C13 N6 1_555 1_555
N1 N2 1_555 1_555
N4 N5 1_555 1_555
C1B O1B 1_555 1_555
C2B N1B 1_555 1_555
C5B O4B 1_555 1_555
C7B N3B 1_555 1_555
C8B N5B 1_555 1_555
C9B C10B 1_555 1_555
N1B N2B 1_555 1_555
N4B N5B 1_555 1_555

#END
