
#######################################################################
#
#                 Cambridge Crystallographic Data Centre
#                                CCDC 
#
#######################################################################
#
# If this CIF has been generated from an entry in the Cambridge 
# Structural Database, then it will include bibliographic, chemical, 
# crystal, experimental, refinement or atomic coordinate data resulting 
# from the CCDC's data processing and validation procedures.
#
#######################################################################

data_OHALAL
_symmetry_cell_setting           monoclinic
_symmetry_space_group_name_H-M   'C 2/c'
_symmetry_Int_Tables_number      15
_space_group_name_Hall           '-C 2yn'
loop_
_symmetry_equiv_pos_site_id
_symmetry_equiv_pos_as_xyz
1 x,y,z
2 -x,y,1/2-z
3 1/2+x,1/2+y,z
4 1/2-x,1/2+y,1/2-z
5 -x,-y,-z
6 x,-y,1/2+z
7 1/2-x,1/2-y,-z
8 1/2+x,1/2-y,1/2+z
_cell_length_a                   20.810(10)
_cell_length_b                   10.705(5)
_cell_length_c                   12.004(6)
_cell_angle_alpha                90
_cell_angle_beta                 113.103(9)
_cell_angle_gamma                90
_cell_volume                     2459.68
loop_
_atom_site_label
_atom_site_type_symbol
_atom_site_fract_x
_atom_site_fract_y
_atom_site_fract_z
Zn1 Zn 0.13611(6) 0.10606(9) 0.81059(11)
C1 C 0.2619(5) -0.3490(8) 0.8024(9)
C2 C 0.2166(5) -0.2561(8) 0.8323(8)
C3 C 0.1679(4) -0.2719(8) 0.8808(7)
H1 H 0.1564 -0.3458 0.9093
C4 C 0.1395(4) -0.1559(8) 0.8789(8)
C5 C 0.0807(6) -0.1090(8) 0.9084(9)
C6 C 0.1715(5) 0.3582(9) 0.9403(10)
H2 H 0.2015 0.3791 0.9027
C7 C 0.1073(5) 0.2526(9) 1.0021(9)
H3 H 0.0818 0.1890 1.0183
C8 C 0.0803(5) 0.4233(9) 1.1203(9)
H4 H 0.1158 0.4584 1.1929
H5 H 0.0558 0.3590 1.1453
C9 C 0.0301(5) 0.5226(9) 1.0557(10)
H6 H 0.0548 0.5874 1.0321
H7 H 0.0117 0.5596 1.1108
N1 N 0.2155(4) -0.1347(6) 0.8032(7)
H8 H 0.2417 -0.1016 0.7709
N2 N 0.1689(4) -0.0732(6) 0.8309(7)
N3 N 0.1422(4) 0.2421(7) 0.9305(7)
N4 N 0.1545(5) 0.4359(7) 1.0054(8)
N5 N 0.1144(4) 0.3659(7) 1.0465(7)
O1 O 0.2980(4) -0.3043(6) 0.7495(7)
O2 O 0.2573(4) -0.4570(6) 0.8311(7)
O3 O 0.0488(4) -0.1833(6) 0.9466(7)
O4 O 0.0670(4) 0.0057(5) 0.8880(7)
O5 O 0.0509(3) 0.1288(7) 0.6623(7)
H9 H 0.0540 0.1591 0.5992
H10 H 0.0113 0.1324 0.6673
Zn1D Zn -0.13611(6) 0.89394(9) 1.18941(11)
Zn1C Zn 0.36389(6) -0.39394(9) 0.68941(11)
Zn1G Zn -0.36389(6) 1.39394(9) 1.31059(11)
C1D C -0.2619(5) 1.3490(8) 1.1976(9)
C2D C -0.2166(5) 1.2561(8) 1.1677(8)
C3D C -0.1679(4) 1.2719(8) 1.1192(7)
H1D H -0.1564 1.3458 1.0907
C4D C -0.1395(4) 1.1559(8) 1.1211(8)
C5D C -0.0807(6) 1.1090(8) 1.0916(9)
C6D C -0.1715(5) 0.6418(9) 1.0597(10)
H2D H -0.2015 0.6209 1.0973
C7D C -0.1073(5) 0.7474(9) 0.9979(9)
H3D H -0.0818 0.8110 0.9817
C8D C -0.0803(5) 0.5767(9) 0.8797(9)
H4D H -0.1158 0.5416 0.8071
H5D H -0.0558 0.6410 0.8547
C9D C -0.0301(5) 0.4774(9) 0.9443(10)
H6D H -0.0548 0.4126 0.9679
H7D H -0.0117 0.4404 0.8892
N1D N -0.2155(4) 1.1347(6) 1.1968(7)
H8D H -0.2417 1.1016 1.2291
N2D N -0.1689(4) 1.0732(6) 1.1691(7)
N3D N -0.1422(4) 0.7579(7) 1.0695(7)
N4D N -0.1545(5) 0.5641(7) 0.9946(8)
N5D N -0.1144(4) 0.6341(7) 0.9535(7)
O1D O -0.2980(4) 1.3043(6) 1.2505(7)
O1C O 0.2020(4) 0.1957(6) 0.7505(7)
O1G O -0.2020(4) 0.8043(6) 1.2495(7)
O2D O -0.2573(4) 1.4570(6) 1.1689(7)
O3D O -0.0488(4) 1.1833(6) 1.0534(7)
O4D O -0.0670(4) 0.9943(5) 1.1120(7)
O5D O -0.0509(3) 0.8712(7) 1.3377(7)
H9D H -0.0540 0.8409 1.4008
H10D H -0.0113 0.8676 1.3327
loop_
_geom_bond_atom_site_label_1
_geom_bond_atom_site_label_2
_geom_bond_site_symmetry_1
_geom_bond_site_symmetry_2
Zn1 N2 1_555 1_555
C1 C2 1_555 1_555
C2 C3 1_555 1_555
C3 H1 1_555 1_555
C4 C3 1_555 1_555
C5 C4 1_555 1_555
C6 H2 1_555 1_555
C7 H3 1_555 1_555
C8 H4 1_555 1_555
H5 C8 1_555 1_555
C9 C8 1_555 1_555
H6 C9 1_555 1_555
H7 C9 1_555 1_555
N1 C2 1_555 1_555
H8 N1 1_555 1_555
N2 C4 1_555 1_555
N3 Zn1 1_555 1_555
N4 C6 1_555 1_555
N5 C7 1_555 1_555
O1 C1 1_555 1_555
O2 C1 1_555 1_555
O3 C5 1_555 1_555
O4 Zn1 1_555 1_555
O5 Zn1 1_555 1_555
H9 O5 1_555 1_555
H10 O5 1_555 1_555
Zn1D N2D 1_555 1_555
Zn1C O1 1_555 1_555
Zn1G O1D 1_555 1_555
C1D C2D 1_555 1_555
C2D C3D 1_555 1_555
C3D H1D 1_555 1_555
C4D C3D 1_555 1_555
C5D C4D 1_555 1_555
C6D H2D 1_555 1_555
C7D H3D 1_555 1_555
C8D H4D 1_555 1_555
H5D C8D 1_555 1_555
C9D C9 1_555 1_555
H6D C9D 1_555 1_555
H7D C9D 1_555 1_555
N1D C2D 1_555 1_555
H8D N1D 1_555 1_555
N2D C4D 1_555 1_555
N3D Zn1D 1_555 1_555
N4D C6D 1_555 1_555
N5D C7D 1_555 1_555
O1D C1D 1_555 1_555
O1C Zn1 1_555 1_555
O1G Zn1D 1_555 1_555
O2D C1D 1_555 1_555
O3D C5D 1_555 1_555
O4D Zn1D 1_555 1_555
O5D Zn1D 1_555 1_555
H9D O5D 1_555 1_555
H10D O5D 1_555 1_555
C5 O4 1_555 1_555
C6 N3 1_555 1_555
C7 N3 1_555 1_555
C8 N5 1_555 1_555
N1 N2 1_555 1_555
N4 N5 1_555 1_555
C5D O4D 1_555 1_555
C6D N3D 1_555 1_555
C7D N3D 1_555 1_555
C8D C9D 1_555 1_555
C8D N5D 1_555 1_555
N1D N2D 1_555 1_555
N4D N5D 1_555 1_555

#END
