
#######################################################################
#
#                 Cambridge Crystallographic Data Centre
#                                CCDC 
#
#######################################################################
#
# If this CIF has been generated from an entry in the Cambridge 
# Structural Database, then it will include bibliographic, chemical, 
# crystal, experimental, refinement or atomic coordinate data resulting 
# from the CCDC's data processing and validation procedures.
#
#######################################################################

data_OHALUF
_symmetry_cell_setting           orthorhombic
_symmetry_space_group_name_H-M   'P 21 21 21'
_symmetry_Int_Tables_number      19
_space_group_name_Hall           'P 2ac 2ab'
loop_
_symmetry_equiv_pos_site_id
_symmetry_equiv_pos_as_xyz
1 x,y,z
2 1/2-x,-y,1/2+z
3 -x,1/2+y,1/2-z
4 1/2+x,1/2-y,-z
_cell_length_a                   9.4569(18)
_cell_length_b                   11.444(2)
_cell_length_c                   17.664(3)
_cell_angle_alpha                90
_cell_angle_beta                 90
_cell_angle_gamma                90
_cell_volume                     1911.68
loop_
_atom_site_label
_atom_site_type_symbol
_atom_site_fract_x
_atom_site_fract_y
_atom_site_fract_z
C1 C -0.2061(5) 0.2125(4) 1.0301(3)
C2 C -0.1804(5) 0.3426(4) 1.0238(2)
C3 C -0.2739(5) 0.4307(4) 1.0256(3)
H1 H -0.3706 0.4274 1.0347
C4 C -0.1890(4) 0.5305(4) 1.0100(3)
C5 C -0.2188(4) 0.6594(4) 1.0086(2)
C6 C 0.1540(5) 0.5618(4) 0.8268(3)
H2 H 0.2062 0.4973 0.8427
C7 C 0.0230(5) 0.7069(4) 0.8311(3)
H3 H -0.0367 0.7665 0.8472
C8 C 0.0374(5) 0.7622(4) 0.6911(3)
H4 H 0.0260 0.7120 0.6473
H5 H -0.0494 0.8061 0.6977
C9 C 0.1550(5) 0.8439(4) 0.6776(2)
H6 H 0.2352 0.7986 0.6599
H7 H 0.1274 0.8952 0.6364
C10 C 0.2040(5) 0.9176(4) 0.7404(3)
H8 H 0.2390 0.8674 0.7805
H9 H 0.1238 0.9606 0.7603
C11 C 0.3336(5) 1.3852(4) 0.6613(2)
H10 H 0.2793 1.4515 0.6521
C12 C 0.4701(5) 1.2478(4) 0.6445(3)
H11 H 0.5307 1.1932 0.6229
C13 C 0.4687(5) 1.1626(4) 0.7760(3)
H12 H 0.4838 1.2031 0.8235
H13 H 0.5559 1.1229 0.7627
C14 C 0.3552(5) 1.0756(4) 0.7855(2)
H14 H 0.3821 1.0237 0.8264
H15 H 0.2705 1.1167 0.8015
C15 C 0.3182(5) 1.0033(4) 0.7196(3)
H16 H 0.4013 0.9613 0.7023
H17 H 0.2857 1.0529 0.6786
N1 N -0.0496(3) 0.3851(3) 1.0088(2)
H18 H 0.0257 0.3438 1.0032
N2 N -0.0561(4) 0.5001(3) 1.0042(2)
N3 N 0.0803(5) 0.6290(3) 0.87538(19)
N4 N 0.1472(4) 0.5934(3) 0.7565(2)
N5 N 0.0623(4) 0.6889(3) 0.7591(2)
N6 N 0.4110(5) 1.3336(3) 0.6067(2)
N7 N 0.3397(4) 1.3367(3) 0.7273(2)
N8 N 0.4336(5) 1.2479(3) 0.7168(2)
Ni1 Ni 0.07760(6) 0.64128(5) 0.99085(3)
O1 O -0.1079(3) 0.1469(3) 1.01154(17)
O2 O -0.3171(3) 0.1787(2) 1.05789(19)
O3 O -0.1195(3) 0.7208(3) 0.99075(19)
O4 O -0.3465(3) 0.6898(2) 1.02013(18)
O5 O 0.2734(3) 0.5652(2) 0.99854(18)
H19 H 0.3362 0.5188 1.0153
H20 H 0.3110 0.6063 0.9639
N6A N 0.0890(5) 0.6664(3) 1.1067(2)
Ni1A Ni 0.42240(6) 1.35872(5) 0.49085(3)
Ni1C Ni -0.42240(6) 0.85872(5) 1.00915(3)
O4C O 0.1535(3) 0.8102(2) 0.97987(18)
loop_
_geom_bond_atom_site_label_1
_geom_bond_atom_site_label_2
_geom_bond_site_symmetry_1
_geom_bond_site_symmetry_2
C1 C2 1_555 1_555
C2 C3 1_555 1_555
C3 H1 1_555 1_555
C4 C3 1_555 1_555
C5 C4 1_555 1_555
C6 H2 1_555 1_555
C7 H3 1_555 1_555
C8 H4 1_555 1_555
H5 C8 1_555 1_555
C9 C8 1_555 1_555
H6 C9 1_555 1_555
H7 C9 1_555 1_555
C10 C9 1_555 1_555
H8 C10 1_555 1_555
H9 C10 1_555 1_555
C11 H10 1_555 1_555
C12 H11 1_555 1_555
C13 H12 1_555 1_555
H13 C13 1_555 1_555
C14 C13 1_555 1_555
H14 C14 1_555 1_555
H15 C14 1_555 1_555
C15 C10 1_555 1_555
H16 C15 1_555 1_555
H17 C15 1_555 1_555
N1 C2 1_555 1_555
H18 N1 1_555 1_555
N2 C4 1_555 1_555
N3 C6 1_555 1_555
N4 C6 1_555 1_555
N5 C7 1_555 1_555
N6 C11 1_555 1_555
N7 C11 1_555 1_555
N8 C12 1_555 1_555
Ni1 N2 1_555 1_555
O1 C1 1_555 1_555
O2 C1 1_555 1_555
O3 C5 1_555 1_555
O4 C5 1_555 1_555
O5 Ni1 1_555 1_555
H19 O5 1_555 1_555
H20 O5 1_555 1_555
N6A Ni1 1_555 1_555
Ni1A N6 1_555 1_555
Ni1C O4 1_555 1_555
O4C Ni1 1_555 1_555
C7 N3 1_555 1_555
C8 N5 1_555 1_555
C12 N6 1_555 1_555
C13 N8 1_555 1_555
C14 C15 1_555 1_555
N1 N2 1_555 1_555
N3 Ni1 1_555 1_555
N4 N5 1_555 1_555
N7 N8 1_555 1_555
Ni1 O3 1_555 1_555

#END
