
#######################################################################
#
#                 Cambridge Crystallographic Data Centre
#                                CCDC 
#
#######################################################################
#
# If this CIF has been generated from an entry in the Cambridge 
# Structural Database, then it will include bibliographic, chemical, 
# crystal, experimental, refinement or atomic coordinate data resulting 
# from the CCDC's data processing and validation procedures.
#
#######################################################################

data_OHALIT
_symmetry_cell_setting           triclinic
_symmetry_space_group_name_H-M   'P -1'
_symmetry_Int_Tables_number      2
_space_group_name_Hall           '-P 1'
loop_
_symmetry_equiv_pos_site_id
_symmetry_equiv_pos_as_xyz
1 x,y,z
2 -x,-y,-z
_cell_length_a                   8.2778(12)
_cell_length_b                   8.9873(13)
_cell_length_c                   12.5406(18)
_cell_angle_alpha                101.620(2)
_cell_angle_beta                 102.546(3)
_cell_angle_gamma                91.579(3)
_cell_volume                     889.533
loop_
_atom_site_label
_atom_site_type_symbol
_atom_site_fract_x
_atom_site_fract_y
_atom_site_fract_z
Ni1 Ni 0.55214(4) 0.72890(4) 0.52582(3)
C1 C 0.7776(4) 0.1767(3) 0.5626(3)
C2 C 0.8002(4) 0.3432(3) 0.5753(3)
C3 C 0.9304(4) 0.4559(3) 0.6197(3)
H1 H 1.0399 0.4449 0.6533
C4 C 0.8567(4) 0.5883(3) 0.6016(3)
C5 C 0.9169(4) 0.7522(3) 0.6252(3)
C6 C 0.4000(4) 0.6982(4) 0.7195(3)
H2 H 0.3134 0.6340 0.6709
C7 C 0.6062(6) 0.8488(7) 0.7847(4)
H3 H 0.6996 0.9118 0.7895
C8 C 0.3255(5) 0.6708(5) 0.8976(3)
H4 H 0.4009 0.6377 0.9577
H5 H 0.2557 0.5823 0.8522
C9 C 0.2177(5) 0.7843(4) 0.9475(3)
H6 H 0.1506 0.8266 0.8888
H7 H 0.2873 0.8672 1.0007
C10 C 0.1050(5) 0.7104(4) 1.0061(3)
H8 H 0.0383 0.6258 0.9529
H9 H 0.1731 0.6695 1.0652
C11 C -0.0090(5) 0.8180(4) 1.0559(3)
H10 H -0.0767 0.8592 0.9969
H11 H 0.0578 0.9024 1.1093
C12 C -0.1221(5) 0.7453(4) 1.1140(3)
H12 H -0.0554 0.7045 1.1736
H13 H -0.1902 0.6614 1.0610
C13 C -0.2333(5) 0.8582(4) 1.1624(3)
H14 H -0.1657 0.9473 1.2090
H15 H -0.3084 0.8906 1.1019
C14 C -0.3029(4) 0.8135(4) 1.3390(3)
H16 H -0.2180 0.8779 1.3893
C15 C -0.5079(5) 0.6571(4) 1.2669(3)
H17 H -0.5981 0.5890 1.2599
N1 N 0.6608(3) 0.4069(3) 0.5365(2)
N2 N 0.6955(3) 0.5565(3) 0.5523(2)
N3 N 0.5161(3) 0.7691(3) 0.6875(2)
N4 N 0.5532(5) 0.8318(6) 0.8730(3)
N5 N 0.4220(4) 0.7299(3) 0.8293(2)
N6 N -0.3296(4) 0.7933(3) 1.2287(2)
N7 N -0.4615(4) 0.6911(4) 1.1804(3)
N8 N -0.4127(3) 0.7299(3) 1.3677(2)
O1 O 0.9027(3) 0.1092(3) 0.6073(2)
H18 H 0.8719 0.0221 0.6083
O2 O 0.6403(3) 0.1122(2) 0.5148(2)
O3 O 1.0609(3) 0.7955(3) 0.6691(3)
O4 O 0.8019(3) 0.8401(2) 0.59460(19)
Ni1A Ni 0.44786(4) 0.27110(4) 0.47418(3)
Ni1_2 Ni -0.44786(4) 0.72890(4) 1.52582(3)
Ni1A_2 Ni 1.44786(4) 0.27110(4) -0.52582(3)
C1A C 0.2224(4) 0.8233(3) 0.4374(3)
C2A C 0.1998(4) 0.6568(3) 0.4247(3)
C3A C 0.0696(4) 0.5441(3) 0.3803(3)
H1A H -0.0399 0.5551 0.3467
C4A C 0.1433(4) 0.4117(3) 0.3984(3)
C5A C 0.0831(4) 0.2478(3) 0.3748(3)
C6A C 0.6000(4) 0.3018(4) 0.2805(3)
H2A H 0.6866 0.3660 0.3291
C7A C 0.3938(6) 0.1512(7) 0.2153(4)
H3A H 0.3004 0.0882 0.2105
C8A C 0.6745(5) 0.3292(5) 0.1024(3)
H4A H 0.5991 0.3623 0.0423
H5A H 0.7443 0.4177 0.1478
C9A C 0.7823(5) 0.2157(4) 0.0525(3)
H6A H 0.8494 0.1734 0.1112
H7A H 0.7127 0.1328 -0.0007
C10A C 0.8950(5) 0.2896(4) -0.0061(3)
H8A H 0.9617 0.3742 0.0471
H9A H 0.8269 0.3305 -0.0652
C11A C 1.0090(5) 0.1820(4) -0.0559(3)
H10A H 1.0767 0.1408 0.0031
H11A H 0.9422 0.0976 -0.1093
C12A C 1.1221(5) 0.2547(4) -0.1140(3)
H12A H 1.0554 0.2955 -0.1736
H13A H 1.1902 0.3386 -0.0610
C13A C 1.2333(5) 0.1418(4) -0.1624(3)
H14A H 1.1657 0.0527 -0.2090
H15A H 1.3084 0.1094 -0.1019
C14A C 1.3029(4) 0.1865(4) -0.3390(3)
H16A H 1.2180 0.1221 -0.3893
C15A C 1.5079(5) 0.3429(4) -0.2669(3)
H17A H 1.5981 0.4110 -0.2599
N1A N 0.3392(3) 0.5931(3) 0.4635(2)
N2A N 0.3045(3) 0.4435(3) 0.4477(2)
N3A N 0.4839(3) 0.2309(3) 0.3125(2)
N4A N 0.4468(5) 0.1682(6) 0.1270(3)
N5A N 0.5780(4) 0.2701(3) 0.1707(2)
N6A N 1.3296(4) 0.2067(3) -0.2287(2)
N7A N 1.4615(4) 0.3089(4) -0.1804(3)
N8A N 1.4127(3) 0.2701(3) -0.3677(2)
N8_2 N 0.5873(3) 0.7299(3) 0.3677(2)
N8A_2 N 0.4127(3) 0.2701(3) 0.6323(2)
O1A O 0.0973(3) 0.8908(3) 0.3927(2)
H18A H 0.1281 0.9779 0.3917
O2A O 0.3597(3) 0.8878(2) 0.4852(2)
O3A O -0.0609(3) 0.2045(3) 0.3309(3)
O4A O 0.1981(3) 0.1599(2) 0.40540(19)
loop_
_geom_bond_atom_site_label_1
_geom_bond_atom_site_label_2
_geom_bond_site_symmetry_1
_geom_bond_site_symmetry_2
Ni1 N2 1_555 1_555
C1 C2 1_555 1_555
C2 C3 1_555 1_555
C3 H1 1_555 1_555
C4 C3 1_555 1_555
C5 C4 1_555 1_555
C6 H2 1_555 1_555
C7 H3 1_555 1_555
C8 H4 1_555 1_555
H5 C8 1_555 1_555
C9 C8 1_555 1_555
H6 C9 1_555 1_555
H7 C9 1_555 1_555
C10 C9 1_555 1_555
H8 C10 1_555 1_555
H9 C10 1_555 1_555
C11 C10 1_555 1_555
H10 C11 1_555 1_555
H11 C11 1_555 1_555
C12 C11 1_555 1_555
H12 C12 1_555 1_555
H13 C12 1_555 1_555
C13 C12 1_555 1_555
H14 C13 1_555 1_555
H15 C13 1_555 1_555
C14 H16 1_555 1_555
C15 H17 1_555 1_555
N1 C2 1_555 1_555
N2 C4 1_555 1_555
N3 Ni1 1_555 1_555
N4 C7 1_555 1_555
N5 C6 1_555 1_555
N6 C13 1_555 1_555
N7 C15 1_555 1_555
N8 C14 1_555 1_555
O1 C1 1_555 1_555
H18 O1 1_555 1_555
O2 C1 1_555 1_555
O3 C5 1_555 1_555
O4 Ni1 1_555 1_555
Ni1A N1 1_555 1_555
Ni1_2 N8 1_555 1_555
Ni1A_2 N8A 1_555 1_555
C1A C2A 1_555 1_555
C2A C3A 1_555 1_555
C3A H1A 1_555 1_555
C4A C3A 1_555 1_555
C5A C4A 1_555 1_555
C6A H2A 1_555 1_555
C7A H3A 1_555 1_555
C8A H4A 1_555 1_555
H5A C8A 1_555 1_555
C9A C8A 1_555 1_555
H6A C9A 1_555 1_555
H7A C9A 1_555 1_555
C10A C9A 1_555 1_555
H8A C10A 1_555 1_555
H9A C10A 1_555 1_555
C11A C10A 1_555 1_555
H10A C11A 1_555 1_555
H11A C11A 1_555 1_555
C12A C11A 1_555 1_555
H12A C12A 1_555 1_555
H13A C12A 1_555 1_555
C13A C12A 1_555 1_555
H14A C13A 1_555 1_555
H15A C13A 1_555 1_555
C14A H16A 1_555 1_555
C15A H17A 1_555 1_555
N1A Ni1 1_555 1_555
N2A Ni1A 1_555 1_555
N3A Ni1A 1_555 1_555
N4A C7A 1_555 1_555
N5A C6A 1_555 1_555
N6A C13A 1_555 1_555
N7A C15A 1_555 1_555
N8A C14A 1_555 1_555
N8_2 Ni1 1_555 1_555
N8A_2 Ni1A 1_555 1_555
O1A C1A 1_555 1_555
H18A O1A 1_555 1_555
O2A Ni1 1_555 1_555
O3A C5A 1_555 1_555
O4A Ni1A 1_555 1_555
C5 O4 1_555 1_555
C6 N3 1_555 1_555
C7 N3 1_555 1_555
C8 N5 1_555 1_555
C14 N6 1_555 1_555
C15 N8 1_555 1_555
N1 N2 1_555 1_555
N4 N5 1_555 1_555
N6 N7 1_555 1_555
O2 Ni1A 1_555 1_555
C1A O2A 1_555 1_555
C2A N1A 1_555 1_555
C4A N2A 1_555 1_555
C5A O4A 1_555 1_555
C6A N3A 1_555 1_555
C7A N3A 1_555 1_555
C8A N5A 1_555 1_555
C14A N6A 1_555 1_555
C15A N8A 1_555 1_555
N1A N2A 1_555 1_555
N4A N5A 1_555 1_555
N6A N7A 1_555 1_555

#END
