
#######################################################################
#
#                 Cambridge Crystallographic Data Centre
#                                CCDC 
#
#######################################################################
#
# If this CIF has been generated from an entry in the Cambridge 
# Structural Database, then it will include bibliographic, chemical, 
# crystal, experimental, refinement or atomic coordinate data resulting 
# from the CCDC's data processing and validation procedures.
#
#######################################################################

data_OHAMER
_symmetry_cell_setting           triclinic
_symmetry_space_group_name_H-M   'P -1'
_symmetry_Int_Tables_number      2
_space_group_name_Hall           '-P 1'
loop_
_symmetry_equiv_pos_site_id
_symmetry_equiv_pos_as_xyz
1 x,y,z
2 -x,-y,-z
_cell_length_a                   7.4253(15)
_cell_length_b                   8.5276(17)
_cell_length_c                   10.395(2)
_cell_angle_alpha                82.75(3)
_cell_angle_beta                 83.46(3)
_cell_angle_gamma                79.86(3)
_cell_volume                     639.911
loop_
_atom_site_label
_atom_site_type_symbol
_atom_site_fract_x
_atom_site_fract_y
_atom_site_fract_z
Mn1 Mn 0.0000 0.0000 1.0000
Mn2 Mn 0.36124(6) 0.88415(5) 0.67643(4)
O1 O 0.1303(3) 0.0233(2) 0.79689(17)
O2 O -0.1062(3) 0.0906(2) 0.67484(19)
O3 O -0.1537(3) 0.2346(2) 0.9430(2)
O4 O -0.3200(3) 0.4697(2) 0.8952(2)
O5 O 0.2802(3) 0.0750(2) 0.52725(18)
O6 O 0.4355(3) 0.2653(2) 0.4319(2)
O7 O -0.2160(3) -0.1123(3) 0.9438(2)
H1 H -0.2558 -0.1686 1.0067
H2 H -0.3006 -0.0723 0.8949
O8 O 0.4050(3) 0.7144(3) 0.8407(2)
H3 H 0.3389 0.7464 0.9040
H4 H 0.4954 0.6389 0.8506
O9 O 0.5432(3) 1.0320(3) 0.7440(2)
H5 H 0.4804 1.1104 0.7741
H6 H 0.6414 1.0467 0.6969
N1 N 0.1288(3) 0.7791(3) 0.6036(2)
H7 H 0.2068 0.8059 0.5405
H8 H 0.0624 0.8512 0.6472
C1 C 0.0258(4) 0.1233(3) 0.7217(2)
C2 C 0.0657(3) 0.2932(3) 0.6940(2)
C3 C 0.1951(4) 0.3381(3) 0.5927(2)
C4 C 0.3120(4) 0.2174(3) 0.5119(3)
C5 C 0.2163(4) 0.4982(3) 0.5661(3)
H9 H 0.3038 0.5272 0.5002
C6 C 0.1098(4) 0.6154(3) 0.6358(3)
C7 C -0.0156(4) 0.5700(3) 0.7372(3)
H10 H -0.0858 0.6472 0.7859
C8 C -0.0375(4) 0.4098(3) 0.7667(3)
C9 C -0.1791(4) 0.3688(3) 0.8756(3)
Mn2A Mn -0.36124(6) -0.88415(5) 1.32357(4)
O1A O -0.1303(3) -0.0233(2) 1.20311(17)
O2A O 0.1062(3) -0.0906(2) 1.32516(19)
O3A O 0.1537(3) -0.2346(2) 1.0570(2)
O4A O 0.3200(3) -0.4697(2) 1.1048(2)
O5A O -0.2802(3) -0.0750(2) 1.47275(18)
O6A O -0.4355(3) -0.2653(2) 1.5681(2)
O7A O 0.2160(3) 0.1123(3) 1.0562(2)
H1A H 0.2558 0.1686 0.9933
H2A H 0.3006 0.0723 1.1051
O8A O -0.4050(3) -0.7144(3) 1.1593(2)
H3A H -0.3389 -0.7464 1.0960
H4A H -0.4954 -0.6389 1.1494
O9A O -0.5432(3) -1.0320(3) 1.2560(2)
H5A H -0.4804 -1.1104 1.2259
H6A H -0.6414 -1.0467 1.3031
N1A N -0.1288(3) -0.7791(3) 1.3964(2)
H7A H -0.2068 -0.8059 1.4595
H8A H -0.0624 -0.8512 1.3528
C1A C -0.0258(4) -0.1233(3) 1.2783(2)
C2A C -0.0657(3) -0.2932(3) 1.3060(2)
C3A C -0.1951(4) -0.3381(3) 1.4073(2)
C4A C -0.3120(4) -0.2174(3) 1.4881(3)
C5A C -0.2163(4) -0.4982(3) 1.4339(3)
H9A H -0.3038 -0.5272 1.4998
C6A C -0.1098(4) -0.6154(3) 1.3642(3)
C7A C 0.0156(4) -0.5700(3) 1.2628(3)
H10A H 0.0858 -0.6472 1.2141
C8A C 0.0375(4) -0.4098(3) 1.2333(3)
C9A C 0.1791(4) -0.3688(3) 1.1244(3)
Mn2_2 Mn -0.63876(6) -0.11585(5) 1.67643(4)
Mn2_3 Mn 0.36124(6) -0.11585(5) 0.67643(4)
Mn2A_2 Mn -0.36124(6) 0.11585(5) 1.32357(4)
Mn2A_3 Mn 0.63876(6) 0.11585(5) 0.32357(4)
O1_2 O 0.1303(3) 1.0233(2) 0.79689(17)
O1A_2 O -0.1303(3) -1.0233(2) 1.20311(17)
O5_2 O 0.2802(3) 1.0750(2) 0.52725(18)
O5A_2 O -0.2802(3) -1.0750(2) 1.47275(18)
O6_2 O -0.5645(3) -0.7347(2) 1.4319(2)
O6A_2 O 0.5645(3) 0.7347(2) 0.5681(2)
O10 O 0.3955(3) 0.3048(3) 0.8655(2)
H11 H 0.3144 0.3702 0.8261
H12 H 0.4689 0.3566 0.8927
loop_
_geom_bond_atom_site_label_1
_geom_bond_atom_site_label_2
_geom_bond_site_symmetry_1
_geom_bond_site_symmetry_2
Mn1 O1 1_555 1_555
Mn2 O8 1_555 1_555
O1 C1 1_555 1_555
O2 C1 1_555 1_555
O3 Mn1 1_555 1_555
O4 C9 1_555 1_555
O5 C4 1_555 1_555
O6 C4 1_555 1_555
O7 Mn1 1_555 1_555
H1 O7 1_555 1_555
H2 O7 1_555 1_555
O8 H3 1_555 1_555
H4 O8 1_555 1_555
O9 Mn2 1_555 1_555
H5 O9 1_555 1_555
H6 O9 1_555 1_555
N1 Mn2 1_555 1_555
H7 N1 1_555 1_555
H8 N1 1_555 1_555
C1 C2 1_555 1_555
C2 C3 1_555 1_555
C3 C4 1_555 1_555
C5 C3 1_555 1_555
H9 C5 1_555 1_555
C6 N1 1_555 1_555
C7 C6 1_555 1_555
H10 C7 1_555 1_555
C8 C2 1_555 1_555
C9 O3 1_555 1_555
O10 H11 1_555 1_555
H12 O10 1_555 1_555
Mn2A O8A 1_555 1_555
O1A Mn1 1_555 1_555
O2A C1A 1_555 1_555
O3A Mn1 1_555 1_555
O4A C9A 1_555 1_555
O5A C4A 1_555 1_555
O6A C4A 1_555 1_555
O7A Mn1 1_555 1_555
H1A O7A 1_555 1_555
H2A O7A 1_555 1_555
O8A H3A 1_555 1_555
H4A O8A 1_555 1_555
O9A Mn2A 1_555 1_555
H5A O9A 1_555 1_555
H6A O9A 1_555 1_555
N1A Mn2A 1_555 1_555
H7A N1A 1_555 1_555
H8A N1A 1_555 1_555
C1A O1A 1_555 1_555
C2A C1A 1_555 1_555
C3A C2A 1_555 1_555
C4A C3A 1_555 1_555
C5A C3A 1_555 1_555
H9A C5A 1_555 1_555
C6A N1A 1_555 1_555
C7A C6A 1_555 1_555
H10A C7A 1_555 1_555
C8A C2A 1_555 1_555
C9A O3A 1_555 1_555
Mn2_2 O6A 1_555 1_555
Mn2_3 O1 1_555 1_555
Mn2A_2 O1A 1_555 1_555
Mn2A_3 O6 1_555 1_555
O1_2 Mn2 1_555 1_555
O1A_2 Mn2A 1_555 1_555
O5_2 Mn2 1_555 1_555
O5A_2 Mn2A 1_555 1_555
O6_2 Mn2A 1_555 1_555
O6A_2 Mn2 1_555 1_555
O5 Mn2_3 1_555 1_555
C5 C6 1_555 1_555
C7 C8 1_555 1_555
C8 C9 1_555 1_555
O5A Mn2A_2 1_555 1_555
C5A C6A 1_555 1_555
C7A C8A 1_555 1_555
C8A C9A 1_555 1_555

#END
