
#######################################################################
#
#                 Cambridge Crystallographic Data Centre
#                                CCDC 
#
#######################################################################
#
# If this CIF has been generated from an entry in the Cambridge 
# Structural Database, then it will include bibliographic, chemical, 
# crystal, experimental, refinement or atomic coordinate data resulting 
# from the CCDC's data processing and validation procedures.
#
#######################################################################

data_OHAMOB
_symmetry_cell_setting           monoclinic
_symmetry_space_group_name_H-M   'C 2/c'
_symmetry_Int_Tables_number      15
_space_group_name_Hall           '-C 2yn'
loop_
_symmetry_equiv_pos_site_id
_symmetry_equiv_pos_as_xyz
1 x,y,z
2 -x,y,1/2-z
3 1/2+x,1/2+y,z
4 1/2-x,1/2+y,1/2-z
5 -x,-y,-z
6 x,-y,1/2+z
7 1/2-x,1/2-y,-z
8 1/2+x,1/2-y,1/2+z
_cell_length_a                   29.139(18)
_cell_length_b                   8.292(6)
_cell_length_c                   22.798(15)
_cell_angle_alpha                90
_cell_angle_beta                 94.970(11)
_cell_angle_gamma                90
_cell_volume                     5487.76
loop_
_atom_site_label
_atom_site_type_symbol
_atom_site_fract_x
_atom_site_fract_y
_atom_site_fract_z
C1 C 1.03400(12) 0.3651(4) 0.59575(14)
C2 C 1.06154(13) 0.2985(5) 0.64788(16)
C3 C 1.04652(13) 0.1665(5) 0.67747(16)
H1 H 1.0181 0.1209 0.6654
C4 C 1.07271(14) 0.1008(5) 0.72458(18)
H2 H 1.0621 0.0104 0.7434
C5 C 1.11427(14) 0.1673(6) 0.74398(18)
C6 C 1.12928(15) 0.3001(6) 0.7149(2)
H3 H 1.1574 0.3470 0.7275
C7 C 1.10333(15) 0.3640(5) 0.66744(18)
H4 H 1.1142 0.4533 0.6482
C8 C 1.18939(14) 0.1109(6) 0.79740(18)
C9 C 1.21290(17) 0.1362(7) 0.8502(2)
H5 H 1.1972 0.1485 0.8837
C10 C 1.2610(2) 0.1439(8) 0.8544(3)
H6 H 1.2773 0.1602 0.8908
C11 C 1.2837(2) 0.1278(8) 0.8058(4)
H7 H 1.3156 0.1378 0.8085
C12 C 1.2610(2) 0.0981(10) 0.7544(4)
H8 H 1.2771 0.0844 0.7212
C13 C 1.21459(19) 0.0874(8) 0.7494(2)
H9 H 1.1992 0.0638 0.7130
C14 C 1.11992(13) 0.0006(5) 0.83284(17)
C15 C 1.08459(14) 0.0574(5) 0.86261(17)
H10 H 1.0755 0.1646 0.8584
C16 C 1.06251(13) -0.0436(5) 0.89877(16)
H11 H 1.0380 -0.0048 0.9182
C17 C 1.07632(12) -0.2020(5) 0.90665(15)
C18 C 1.11314(13) -0.2565(5) 0.87812(17)
H12 H 1.1235 -0.3618 0.8838
C19 C 1.13476(14) -0.1550(6) 0.84100(19)
H13 H 1.1594 -0.1926 0.8215
C20 C 1.05067(12) -0.3144(4) 0.94265(15)
C21 C 0.91457(16) 0.1095(6) 0.4428(2)
H14 H 0.9429 0.0923 0.4279
C22 C 0.87798(17) 0.0139(7) 0.4230(2)
H15 H 0.8819 -0.0661 0.3953
C23 C 0.83677(15) 0.0349(5) 0.44333(17)
C24 C 0.83328(14) 0.1540(6) 0.4836(2)
H16 H 0.8052 0.1730 0.4988
C25 C 0.87087(13) 0.2468(6) 0.50207(18)
H17 H 0.8676 0.3278 0.5296
C26 C 0.79792(15) -0.2491(6) 0.5015(2)
H18 H 0.8276 -0.2056 0.5162
H19 H 0.8032 -0.3380 0.4753
C27 C 0.77311(15) -0.3091(7) 0.5520(2)
H20 H 0.7913 -0.3920 0.5731
H21 H 0.7689 -0.2212 0.5791
C28 C 0.79543(17) -0.0631(7) 0.42175(19)
H22 H 0.7746 0.0036 0.3967
H23 H 0.8052 -0.1522 0.3983
N1 N 1.14118(11) 0.1011(5) 0.79252(16)
N2 N 0.91132(10) 0.2243(3) 0.48195(12)
N3 N 0.77138(12) -0.1254(5) 0.46936(15)
O1 O 1.06715(9) -0.4518(3) 0.95247(11)
O2 O 1.01367(8) -0.2635(3) 0.95981(11)
O3 O 1.05028(9) 0.4861(3) 0.57169(10)
O4 O 0.99718(9) 0.2979(3) 0.57875(10)
Zn1 Zn 0.964505(12) 0.37684(4) 0.502473(15)
C21F C 0.58543(16) -0.6095(6) 0.5572(2)
H14F H 0.5571 -0.5923 0.5721
C22F C 0.62202(17) -0.5139(7) 0.5770(2)
H15F H 0.6181 -0.4339 0.6047
C23F C 0.66323(15) -0.5349(5) 0.55667(17)
C24F C 0.66672(14) -0.6540(6) 0.5164(2)
H16F H 0.6948 -0.6730 0.5012
C25F C 0.62913(13) -0.7468(6) 0.49793(18)
H17F H 0.6324 -0.8278 0.4704
C26F C 0.70208(15) -0.2509(6) 0.4985(2)
H18F H 0.6724 -0.2944 0.4838
H19F H 0.6968 -0.1620 0.5247
C27F C 0.72689(15) -0.1909(7) 0.4480(2)
H20F H 0.7087 -0.1080 0.4269
H21F H 0.7311 -0.2788 0.4209
C28F C 0.70457(17) -0.4369(7) 0.57825(19)
H22F H 0.7254 -0.5036 0.6033
H23F H 0.6948 -0.3478 0.6017
N2F N 0.58868(10) -0.7243(3) 0.51805(12)
N3F N 0.72862(12) -0.3746(5) 0.53064(15)
C1D C 0.96600(12) 0.6349(4) 0.40425(14)
C2D C 0.93846(13) 0.7015(5) 0.35212(16)
C3D C 0.95348(13) 0.8335(5) 0.32253(16)
H1D H 0.9819 0.8791 0.3346
C4D C 0.92729(14) 0.8992(5) 0.27542(18)
H2D H 0.9379 0.9896 0.2566
C5D C 0.88573(14) 0.8327(6) 0.25602(18)
C6D C 0.87072(15) 0.6999(6) 0.2851(2)
H3D H 0.8426 0.6530 0.2725
C7D C 0.89667(15) 0.6360(5) 0.33256(18)
H4D H 0.8858 0.5467 0.3518
C8D C 0.81061(14) 0.8891(6) 0.20260(18)
C9D C 0.78710(17) 0.8638(7) 0.1498(2)
H5D H 0.8028 0.8515 0.1163
C10D C 0.7390(2) 0.8561(8) 0.1456(3)
H6D H 0.7227 0.8398 0.1092
C11D C 0.7163(2) 0.8722(8) 0.1942(4)
H7D H 0.6844 0.8622 0.1915
C12D C 0.7390(2) 0.9019(10) 0.2456(4)
H8D H 0.7229 0.9156 0.2788
C13D C 0.78541(19) 0.9126(8) 0.2506(2)
H9D H 0.8008 0.9362 0.2870
C14D C 0.88008(13) 0.9994(5) 0.16716(17)
C15D C 0.91541(14) 0.9426(5) 0.13739(17)
H10D H 0.9245 0.8354 0.1416
C16D C 0.93749(13) 1.0436(5) 0.10123(16)
H11D H 0.9620 1.0048 0.0818
C17D C 0.92368(12) 1.2020(5) 0.09335(15)
C18D C 0.88686(13) 1.2565(5) 0.12188(17)
H12D H 0.8765 1.3618 0.1162
C19D C 0.86524(14) 1.1550(6) 0.15900(19)
H13D H 0.8406 1.1926 0.1785
C20D C 0.94933(12) 1.3144(4) 0.05735(15)
N1D N 0.85882(11) 0.8989(5) 0.20748(16)
O1D O 0.93285(9) 1.4518(3) 0.04753(11)
O2D O 0.98633(8) 1.2635(3) 0.04019(11)
O3D O 0.94972(9) 0.5139(3) 0.42831(10)
O4D O 1.00282(9) 0.7021(3) 0.42125(10)
Zn1D Zn 1.035495(12) 0.62316(4) 0.497527(15)
N2D N 1.08868(10) 0.7757(3) 0.51805(12)
O1A O 0.93285(9) 0.5482(3) 0.54753(11)
O1E O 1.06715(9) 0.4518(3) 0.45247(11)
O2A O 0.98633(8) 0.7365(3) 0.54019(11)
O2E O 1.01367(8) 0.2635(3) 0.45981(11)
Zn1A Zn 1.035495(12) -0.62316(4) 0.997527(15)
Zn1A_2 Zn 1.035495(12) 1.37684(4) -0.002473(15)
Zn1E Zn 0.964505(12) -0.37684(4) 1.002473(15)
Zn1E_2 Zn 0.964505(12) 1.62316(4) 0.002473(15)
Zn1F Zn 0.535495(12) -0.87684(4) 0.497527(15)
O5 O 1.0379(4) 0.5207(18) 0.7845(6)
O6 O 1.0877(6) -0.297(2) 0.7129(8)
O7 O 1.0212(6) -0.3515(18) 0.7180(7)
loop_
_geom_bond_atom_site_label_1
_geom_bond_atom_site_label_2
_geom_bond_site_symmetry_1
_geom_bond_site_symmetry_2
C1 C2 1_555 1_555
C2 C3 1_555 1_555
C3 H1 1_555 1_555
C4 C3 1_555 1_555
H2 C4 1_555 1_555
C5 C4 1_555 1_555
C6 C5 1_555 1_555
H3 C6 1_555 1_555
C7 C2 1_555 1_555
H4 C7 1_555 1_555
C8 C9 1_555 1_555
C9 H5 1_555 1_555
C10 C9 1_555 1_555
H6 C10 1_555 1_555
C11 C10 1_555 1_555
H7 C11 1_555 1_555
C12 C11 1_555 1_555
H8 C12 1_555 1_555
C13 C8 1_555 1_555
H9 C13 1_555 1_555
C14 C15 1_555 1_555
C15 H10 1_555 1_555
C16 C15 1_555 1_555
H11 C16 1_555 1_555
C17 C16 1_555 1_555
C18 C17 1_555 1_555
H12 C18 1_555 1_555
C19 C14 1_555 1_555
H13 C19 1_555 1_555
C20 C17 1_555 1_555
C21 H14 1_555 1_555
C22 C21 1_555 1_555
H15 C22 1_555 1_555
C23 C22 1_555 1_555
C24 C23 1_555 1_555
H16 C24 1_555 1_555
C25 C24 1_555 1_555
H17 C25 1_555 1_555
C26 H18 1_555 1_555
H19 C26 1_555 1_555
C27 C26 1_555 1_555
H20 C27 1_555 1_555
H21 C27 1_555 1_555
C28 C23 1_555 1_555
H22 C28 1_555 1_555
H23 C28 1_555 1_555
N1 C5 1_555 1_555
N2 C21 1_555 1_555
N3 C26 1_555 1_555
O1 C20 1_555 1_555
O2 C20 1_555 1_555
O3 C1 1_555 1_555
O4 C1 1_555 1_555
Zn1 N2 1_555 1_555
C21F H14F 1_555 1_555
C22F C21F 1_555 1_555
H15F C22F 1_555 1_555
C23F C22F 1_555 1_555
C24F C23F 1_555 1_555
H16F C24F 1_555 1_555
C25F C24F 1_555 1_555
H17F C25F 1_555 1_555
C26F H18F 1_555 1_555
H19F C26F 1_555 1_555
C27F N3 1_555 1_555
H20F C27F 1_555 1_555
H21F C27F 1_555 1_555
C28F C23F 1_555 1_555
H22F C28F 1_555 1_555
H23F C28F 1_555 1_555
N2F C21F 1_555 1_555
N3F C27 1_555 1_555
C1D C2D 1_555 1_555
C2D C3D 1_555 1_555
C3D H1D 1_555 1_555
C4D C3D 1_555 1_555
H2D C4D 1_555 1_555
C5D C4D 1_555 1_555
C6D C5D 1_555 1_555
H3D C6D 1_555 1_555
C7D C2D 1_555 1_555
H4D C7D 1_555 1_555
C8D C9D 1_555 1_555
C9D H5D 1_555 1_555
C10D C9D 1_555 1_555
H6D C10D 1_555 1_555
C11D C10D 1_555 1_555
H7D C11D 1_555 1_555
C12D C11D 1_555 1_555
H8D C12D 1_555 1_555
C13D C8D 1_555 1_555
H9D C13D 1_555 1_555
C14D C15D 1_555 1_555
C15D H10D 1_555 1_555
C16D C15D 1_555 1_555
H11D C16D 1_555 1_555
C17D C16D 1_555 1_555
C18D C17D 1_555 1_555
H12D C18D 1_555 1_555
C19D C14D 1_555 1_555
H13D C19D 1_555 1_555
C20D C17D 1_555 1_555
N1D C5D 1_555 1_555
O1D C20D 1_555 1_555
O2D C20D 1_555 1_555
O3D Zn1 1_555 1_555
O4D C1D 1_555 1_555
Zn1D O3 1_555 1_555
N2D Zn1D 1_555 1_555
O1A Zn1 1_555 1_555
O1E Zn1D 1_555 1_555
O2A Zn1D 1_555 1_555
O2E Zn1 1_555 1_555
Zn1A O1 1_555 1_555
Zn1A_2 O2D 1_555 1_555
Zn1E O2 1_555 1_555
Zn1E_2 O1D 1_555 1_555
Zn1F N2F 1_555 1_555
C6 C7 1_555 1_555
C8 N1 1_555 1_555
C12 C13 1_555 1_555
C14 N1 1_555 1_555
C18 C19 1_555 1_555
C25 N2 1_555 1_555
C28 N3 1_555 1_555
O4 Zn1 1_555 1_555
C25F N2F 1_555 1_555
C26F C27F 1_555 1_555
C26F N3F 1_555 1_555
C28F N3F 1_555 1_555
C1D O3D 1_555 1_555
C6D C7D 1_555 1_555
C8D N1D 1_555 1_555
C12D C13D 1_555 1_555
C14D N1D 1_555 1_555
C18D C19D 1_555 1_555
O4D Zn1D 1_555 1_555

#END
