
#######################################################################
#
#                 Cambridge Crystallographic Data Centre
#                                CCDC 
#
#######################################################################
#
# If this CIF has been generated from an entry in the Cambridge 
# Structural Database, then it will include bibliographic, chemical, 
# crystal, experimental, refinement or atomic coordinate data resulting 
# from the CCDC's data processing and validation procedures.
#
#######################################################################

data_OHAMUH
_symmetry_cell_setting           monoclinic
_symmetry_space_group_name_H-M   'P 21/n'
_symmetry_Int_Tables_number      14
_space_group_name_Hall           '-P 2yn'
loop_
_symmetry_equiv_pos_site_id
_symmetry_equiv_pos_as_xyz
1 x,y,z
2 1/2-x,1/2+y,1/2-z
3 -x,-y,-z
4 1/2+x,1/2-y,1/2+z
_cell_length_a                   9.3089(6)
_cell_length_b                   50.079(3)
_cell_length_c                   14.5655(9)
_cell_angle_alpha                90
_cell_angle_beta                 107.9530(10)
_cell_angle_gamma                90
_cell_volume                     6459.54
loop_
_atom_site_label
_atom_site_type_symbol
_atom_site_fract_x
_atom_site_fract_y
_atom_site_fract_z
Zn1 Zn -0.50553(6) 0.352565(10) 0.17268(3)
Zn2 Zn 0.33689(5) 0.064435(11) 0.51468(3)
O1 O -0.4731(4) 0.35957(6) 0.0001(2)
N1 N -0.5270(4) 0.43143(7) 0.2469(2)
O2 O -0.6193(3) 0.33359(6) 0.05590(19)
O3 O 1.1273(3) 0.07212(7) 1.4379(2)
O4 O 0.3538(3) 0.06351(7) 0.64859(19)
N2 N 0.5326(4) 0.10059(8) 1.0889(2)
N3 N -0.0974(4) 0.31352(7) 0.2270(2)
O5 O 0.6018(4) 0.06712(8) 0.6788(2)
O6 O -0.5909(4) 0.34494(7) -0.7216(2)
N4 N -0.8154(4) 0.29585(8) -0.3840(2)
O7 O -0.5084(4) 0.30322(7) -0.7188(2)
C1 C -0.7577(4) 0.31218(9) -0.1291(3)
H1 H -0.8014 0.3083 -0.0812
N5 N 0.4439(4) 0.03818(8) 0.4548(3)
N6 N -0.2850(4) 0.34202(8) 0.2048(2)
C2 C 0.1323(5) 0.24037(9) 0.2989(3)
N7 N -0.5220(4) 0.39244(7) 0.1800(2)
C3 C -0.5332(5) 0.40489(9) 0.2566(3)
H2 H -0.5440 0.3964 0.3109
C4 C 0.7067(5) 0.06381(10) 1.1561(3)
H3 H 0.6561 0.0533 1.1035
N8 N 0.5098(4) 0.02031(8) 0.3363(3)
C5 C -0.7554(4) 0.30648(8) -0.2929(3)
C6 C -0.6321(4) 0.32874(8) -0.1076(3)
C7 C -0.5679(5) 0.34172(9) -0.0114(3)
C8 C 0.4017(5) 0.10826(10) 1.1128(3)
C9 C -0.0198(4) 0.28856(9) 0.2479(3)
C10 C 0.8601(5) 0.09417(10) 1.3119(3)
H4 H 0.9126 0.1047 1.3642
C11 C -0.8191(5) 0.30134(9) -0.2194(3)
H5 H -0.9040 0.2905 -0.2318
N9 N 0.4124(4) 0.14077(8) 0.4306(3)
C12 C -0.5248(4) 0.45118(9) 0.3189(3)
C13 C -0.5736(5) 0.32116(11) -0.6891(3)
C14 C 0.9056(5) 0.06835(9) 1.3053(3)
C15 C -0.5676(5) 0.33336(9) -0.1801(3)
H6 H -0.4828 0.3443 -0.1675
C16 C 0.2173(5) 0.21546(9) 0.3337(3)
C17 C 0.3963(6) 0.03016(10) 0.3649(3)
H7 H 0.2965 0.0312 0.3257
N10 N 0.4169(4) 0.09968(8) 0.4827(3)
C18 C -0.0430(5) 0.33829(10) 0.2138(3)
H8 H 0.0546 0.3423 0.2139
C19 C -0.7736(5) 0.32815(10) -0.4999(3)
H9 H -0.8261 0.3410 -0.4771
C20 C -0.7145(5) 0.33436(10) -0.5731(3)
H10 H -0.7275 0.3514 -0.5995
C21 C -0.7552(5) 0.30302(10) -0.4604(3)
C22 C -0.6258(5) 0.32227(9) -0.2700(3)
H11 H -0.5780 0.3253 -0.3165
C23 C -0.6358(5) 0.31537(9) -0.6078(3)
C24 C 0.6424(5) 0.09463(12) 0.9595(3)
H12 H 0.7341 0.1008 1.0003
C25 C 0.0965(4) 0.28225(9) 0.2120(3)
H13 H 0.1238 0.2939 0.1706
C26 C 0.5190(4) 0.09348(9) 0.9929(3)
C27 C 0.6593(4) 0.08962(9) 1.1624(3)
C28 C -0.5072(5) 0.44361(9) 0.4121(3)
H14 H -0.5003 0.4256 0.4282
C29 C 0.3543(5) 0.16699(9) 0.3983(3)
C30 C 0.3735(5) 0.07702(9) 0.8365(3)
H15 H 0.2811 0.0715 0.7947
C31 C 0.8287(5) 0.05350(10) 1.2272(3)
H16 H 0.8591 0.0360 1.2217
C32 C -0.6779(5) 0.28388(10) -0.4938(3)
H17 H -0.6651 0.2669 -0.4669
C33 C 0.2727(5) 0.19952(10) 0.2745(3)
H18 H 0.2641 0.2053 0.2123
C34 C 0.4981(5) 0.00233(10) 0.0508(3)
C35 C 1.0423(5) 0.05623(11) 1.3795(3)
C36 C 0.3403(5) 0.17519(10) 0.3061(3)
H19 H 0.3758 0.1645 0.2654
C37 C 0.4976(5) 0.07751(9) 0.8043(3)
C38 C 0.1726(5) 0.25820(9) 0.2382(3)
H20 H 0.2519 0.2540 0.2146
O8 O 1.0647(4) 0.03187(8) 1.3767(3)
C39 C -0.9504(5) 0.28027(9) -0.4113(3)
C40 C -0.5073(5) 0.48967(9) 0.4619(3)
C41 C 0.3824(4) 0.08448(9) 0.9290(3)
H21 H 0.2970 0.0835 0.9491
C42 C -0.5090(5) 0.41196(9) 0.1172(3)
H22 H -0.4993 0.4090 0.0564
C43 C -0.0643(5) 0.27061(10) 0.3066(3)
H23 H -0.1448 0.2747 0.3292
C44 C 0.7364(5) 0.10484(10) 1.2417(3)
H24 H 0.7054 0.1222 1.2479
C45 C 0.6326(5) 0.08675(12) 0.8670(3)
H25 H 0.7176 0.0877 0.8464
C46 C 0.2369(5) 0.20699(10) 0.4273(3)
H26 H 0.2050 0.2178 0.4691
C47 C -0.4997(5) 0.46263(9) 0.4828(3)
H27 H -0.4893 0.4571 0.5455
C48 C -0.5125(5) 0.43620(9) 0.1571(3)
H28 H -0.5063 0.4527 0.1295
C49 C -0.6191(5) 0.29001(10) -0.5677(3)
H29 H -0.5678 0.2770 -0.5908
C50 C 0.5014(6) 0.01301(10) 0.2395(3)
C51 C 0.6046(7) -0.00892(10) 0.1300(4)
H30 H 0.6784 -0.0200 0.1198
C52 C 0.3369(5) 0.12129(9) 0.4579(3)
H31 H 0.2381 0.1230 0.4592
C53 C 0.0099(5) 0.24691(9) 0.3310(3)
H32 H -0.0214 0.2349 0.3697
C54 C -0.5358(6) 0.47772(10) 0.2952(4)
H33 H -0.5494 0.4830 0.2319
C55 C -0.9467(6) 0.25381(11) -0.3908(3)
H34 H -0.8566 0.2458 -0.3554
C56 C 0.3920(5) 0.01907(12) 0.0701(4)
H35 H 0.3175 0.0267 0.0188
C57 C 0.3023(6) 0.12727(11) 1.0564(4)
H36 H 0.3261 0.1357 1.0060
C58 C -1.0830(6) 0.29195(11) -0.4613(4)
H37 H -1.0860 0.3101 -0.4745
C59 C 0.3032(5) 0.18267(10) 0.4594(3)
H38 H 0.3134 0.1769 0.5218
C60 C -0.2431(5) 0.31711(10) 0.2209(3)
H39 H -0.3068 0.3034 0.2274
C61 C -0.1580(5) 0.35547(10) 0.2008(3)
H40 H -0.1528 0.3737 0.1906
C62 C 0.5964(6) 0.03305(11) 0.4858(4)
H41 H 0.6609 0.0366 0.5474
C63 C 0.6050(7) -0.00423(10) 0.2234(4)
H42 H 0.6750 -0.0127 0.2748
C64 C -1.0786(7) 0.23860(12) -0.4231(4)
H43 H -1.0768 0.2204 -0.4094
C65 C 0.1339(7) 0.12165(16) 1.1489(6)
H44 H 0.0429 0.1257 1.1597
C66 C 0.3940(5) 0.02462(12) 0.1618(4)
H45 H 0.3229 0.0363 0.1725
C67 C -0.5263(7) 0.49645(10) 0.3660(4)
H46 H -0.5329 0.5144 0.3491
C68 C 0.4873(5) 0.06868(10) 0.7039(3)
C69 C 0.1697(8) 0.13359(15) 1.0749(5)
H47 H 0.1044 0.1461 1.0365
C70 C -1.2089(7) 0.25061(16) -0.4745(4)
H48 H -1.2965 0.2405 -0.4974
C71 C 0.5531(6) 0.10544(12) 0.4689(6)
H49 H 0.6347 0.0938 0.4812
C72 C 0.3667(6) 0.09730(11) 1.1897(3)
H50 H 0.4336 0.0855 1.2306
C73 C 0.5505(6) 0.13031(12) 0.4351(6)
H51 H 0.6274 0.1388 0.4181
C74 C 0.6377(6) 0.02220(12) 0.4139(4)
H52 H 0.7346 0.0170 0.4162
C75 C 0.2300(7) 0.10386(15) 1.2071(5)
H53 H 0.2057 0.0960 1.2583
C76 C -1.2135(6) 0.27692(16) -0.4927(4)
H54 H -1.3043 0.2850 -0.5265
N1B N -0.4730(4) 0.56857(7) 0.7531(2)
N7B N -0.4780(4) 0.60756(7) 0.8200(2)
C3B C -0.4668(5) 0.59511(9) 0.7434(3)
H2B H -0.4560 0.6036 0.6891
C12B C -0.4752(4) 0.54882(9) 0.6811(3)
C28B C -0.4928(5) 0.55639(9) 0.5879(3)
H14B H -0.4997 0.5744 0.5718
C40B C -0.4927(5) 0.51033(9) 0.5381(3)
C42B C -0.4910(5) 0.58804(9) 0.8828(3)
H22B H -0.5007 0.5910 0.9436
C47B C -0.5003(5) 0.53737(9) 0.5172(3)
H27B H -0.5107 0.5429 0.4545
C48B C -0.4875(5) 0.56380(9) 0.8429(3)
H28B H -0.4937 0.5473 0.8705
C54B C -0.4642(6) 0.52228(10) 0.7048(4)
H33B H -0.4506 0.5170 0.7681
C67B C -0.4737(7) 0.50355(10) 0.6340(4)
H46B H -0.4671 0.4856 0.6509
N5B N 0.5561(4) -0.03818(8) -0.4548(3)
N8B N 0.4902(4) -0.02031(8) -0.3363(3)
C17B C 0.6037(6) -0.03016(10) -0.3649(3)
H7B H 0.7035 -0.0312 -0.3257
C34B C 0.5019(5) -0.00233(10) -0.0508(3)
C50B C 0.4986(6) -0.01301(10) -0.2395(3)
C51B C 0.3954(7) 0.00892(10) -0.1300(4)
H30B H 0.3216 0.0200 -0.1198
C56B C 0.6080(5) -0.01907(12) -0.0701(4)
H35B H 0.6825 -0.0267 -0.0188
C62B C 0.4036(6) -0.03305(11) -0.4858(4)
H41B H 0.3391 -0.0366 -0.5474
C63B C 0.3950(7) 0.00423(10) -0.2234(4)
H42B H 0.3250 0.0127 -0.2748
C66B C 0.6060(5) -0.02462(12) -0.1618(4)
H45B H 0.6771 -0.0363 -0.1725
C74B C 0.3623(6) -0.02220(12) -0.4139(4)
H52B H 0.2654 -0.0170 -0.4162
Zn1B Zn -0.49447(6) 0.647435(10) 0.82732(3)
Zn2B Zn -1.33689(5) 0.935565(11) 0.48532(3)
O1B O -0.5269(4) 0.64043(6) 0.9999(2)
O2B O -0.3807(3) 0.66641(6) 0.94410(19)
O3B O -2.1273(3) 0.92788(7) -0.4379(2)
O4B O -1.3538(3) 0.93649(7) 0.35141(19)
N2B N -1.5326(4) 0.89941(8) -0.0889(2)
N3B N -0.9026(4) 0.68648(7) 0.7730(2)
O5B O -1.6018(4) 0.93288(8) 0.3212(2)
O6B O -0.4091(4) 0.65506(7) 1.7216(2)
N4B N -0.1846(4) 0.70415(8) 1.3840(2)
O7B O -0.4916(4) 0.69678(7) 1.7188(2)
C1B C -0.2423(4) 0.68782(9) 1.1291(3)
H1B H -0.1986 0.6917 1.0812
N6B N -0.7150(4) 0.65798(8) 0.7952(2)
C2B C -1.1323(5) 0.75963(9) 0.7011(3)
C4B C -1.7067(5) 0.93619(10) -0.1561(3)
H3B H -1.6561 0.9467 -0.1035
C5B C -0.2446(4) 0.69352(8) 1.2929(3)
C6B C -0.3679(4) 0.67126(8) 1.1076(3)
C7B C -0.4321(5) 0.65828(9) 1.0114(3)
C8B C -1.4017(5) 0.89174(10) -0.1128(3)
C9B C -0.9802(4) 0.71144(9) 0.7521(3)
C10B C -1.8601(5) 0.90583(10) -0.3119(3)
H4B H -1.9126 0.8953 -0.3642
C11B C -0.1809(5) 0.69866(9) 1.2194(3)
H5B H -0.0960 0.7095 1.2318
N9B N -1.4124(4) 0.85923(8) 0.5694(3)
C13B C -0.4264(5) 0.67884(11) 1.6891(3)
C14B C -1.9056(5) 0.93165(9) -0.3053(3)
C15B C -0.4324(5) 0.66664(9) 1.1801(3)
H6B H -0.5172 0.6557 1.1675
C16B C -1.2173(5) 0.78454(9) 0.6663(3)
N10B N -1.4169(4) 0.90032(8) 0.5173(3)
C18B C -0.9570(5) 0.66171(10) 0.7862(3)
H8B H -1.0546 0.6577 0.7861
C19B C -0.2264(5) 0.67185(10) 1.4999(3)
H9B H -0.1739 0.6590 1.4771
C20B C -0.2855(5) 0.66564(10) 1.5731(3)
H10B H -0.2725 0.6486 1.5995
C21B C -0.2448(5) 0.69698(10) 1.4604(3)
C22B C -0.3742(5) 0.67773(9) 1.2700(3)
H11B H -0.4220 0.6747 1.3165
C23B C -0.3642(5) 0.68463(9) 1.6078(3)
C24B C -1.6424(5) 0.90537(12) 0.0405(3)
H12B H -1.7341 0.8992 -0.0003
C25B C -1.0965(4) 0.71775(9) 0.7880(3)
H13B H -1.1238 0.7061 0.8294
C26B C -1.5190(4) 0.90652(9) 0.0071(3)
C27B C -1.6593(4) 0.91038(9) -0.1624(3)
C29B C -1.3543(5) 0.83301(9) 0.6017(3)
C30B C -1.3735(5) 0.92298(9) 0.1635(3)
H15B H -1.2811 0.9285 0.2053
C31B C -1.8287(5) 0.94650(10) -0.2272(3)
H16B H -1.8591 0.9640 -0.2217
C32B C -0.3221(5) 0.71612(10) 1.4938(3)
H17B H -0.3349 0.7331 1.4669
C33B C -1.2727(5) 0.80048(10) 0.7255(3)
H18B H -1.2641 0.7947 0.7877
C35B C -2.0423(5) 0.94377(11) -0.3795(3)
C36B C -1.3403(5) 0.82481(10) 0.6939(3)
H19B H -1.3758 0.8355 0.7346
C37B C -1.4976(5) 0.92249(9) 0.1957(3)
C38B C -1.1726(5) 0.74180(9) 0.7618(3)
H20B H -1.2519 0.7460 0.7854
O8B O -2.0647(4) 0.96813(8) -0.3767(3)
C39B C -0.0496(5) 0.71973(9) 1.4113(3)
C41B C -1.3824(4) 0.91552(9) 0.0710(3)
H21B H -1.2970 0.9165 0.0509
C43B C -0.9357(5) 0.72939(10) 0.6934(3)
H23B H -0.8552 0.7253 0.6708
C44B C -1.7364(5) 0.89516(10) -0.2417(3)
H24B H -1.7054 0.8778 -0.2479
C45B C -1.6326(5) 0.91325(12) 0.1330(3)
H25B H -1.7176 0.9123 0.1536
C46B C -1.2369(5) 0.79301(10) 0.5727(3)
H26B H -1.2050 0.7822 0.5309
C49B C -0.3809(5) 0.70999(10) 1.5677(3)
H29B H -0.4322 0.7230 1.5908
C52B C -1.3369(5) 0.87871(9) 0.5421(3)
H31B H -1.2381 0.8770 0.5408
C53B C -1.0099(5) 0.75309(9) 0.6690(3)
H32B H -0.9786 0.7651 0.6303
C55B C -0.0533(6) 0.74619(11) 1.3908(3)
H34B H -0.1434 0.7542 1.3554
C57B C -1.3023(6) 0.87273(11) -0.0564(4)
H36B H -1.3261 0.8643 -0.0060
C58B C 0.0830(6) 0.70805(11) 1.4613(4)
H37B H 0.0860 0.6899 1.4745
C59B C -1.3032(5) 0.81733(10) 0.5406(3)
H38B H -1.3134 0.8231 0.4782
C60B C -0.7569(5) 0.68289(10) 0.7791(3)
H39B H -0.6932 0.6966 0.7726
C61B C -0.8420(5) 0.64453(10) 0.7992(3)
H40B H -0.8472 0.6263 0.8094
C64B C 0.0786(7) 0.76140(12) 1.4231(4)
H43B H 0.0768 0.7796 1.4094
C65B C -1.1339(7) 0.87835(16) -0.1489(6)
H44B H -1.0429 0.8743 -0.1597
C68B C -1.4873(5) 0.93132(10) 0.2961(3)
C69B C -1.1697(8) 0.86641(15) -0.0749(5)
H47B H -1.1044 0.8539 -0.0365
C70B C 0.2089(7) 0.74939(16) 1.4745(4)
H48B H 0.2965 0.7595 1.4974
C71B C -1.5531(6) 0.89456(12) 0.5311(6)
H49B H -1.6347 0.9062 0.5188
C72B C -1.3667(6) 0.90270(11) -0.1897(3)
H50B H -1.4336 0.9145 -0.2306
C73B C -1.5505(6) 0.86969(12) 0.5649(6)
H51B H -1.6274 0.8612 0.5819
C75B C -1.2300(7) 0.89614(15) -0.2071(5)
H53B H -1.2057 0.9040 -0.2583
C76B C 0.2135(6) 0.72308(16) 1.4927(4)
H54B H 0.3043 0.7150 1.5265
Zn1_2 Zn -0.50553(6) 0.352565(10) -0.82732(3)
Zn1B_2 Zn -0.49447(6) 0.647435(10) 1.82732(3)
Zn2_2 Zn 1.33689(5) 0.064435(11) 1.51468(3)
Zn2B_2 Zn -2.33689(5) 0.935565(11) -0.51468(3)
Zn2B_3 Zn 0.66311(5) -0.064435(11) -0.51468(3)
O3_2 O 0.1273(3) 0.07212(7) 0.4379(2)
O3B_2 O -1.1273(3) 0.92788(7) 0.5621(2)
O6_2 O -0.5909(4) 0.34494(7) 0.2784(2)
O6B_2 O -0.4091(4) 0.65506(7) 0.7216(2)
N5B_2 N -1.4439(4) 0.96182(8) 0.5452(3)
O9 O 0.9520(10) -0.00985(18) 1.4356(6)
loop_
_geom_bond_atom_site_label_1
_geom_bond_atom_site_label_2
_geom_bond_site_symmetry_1
_geom_bond_site_symmetry_2
Zn1 O2 1_555 1_555
Zn2 O4 1_555 1_555
O1 C7 1_555 1_555
N1 C3 1_555 1_555
O2 C7 1_555 1_555
O3 C35 1_555 1_555
O4 C68 1_555 1_555
N2 C8 1_555 1_555
N3 C9 1_555 1_555
O5 C68 1_555 1_555
O6 C13 1_555 1_555
N4 C5 1_555 1_555
O7 C13 1_555 1_555
C1 H1 1_555 1_555
N5 Zn2 1_555 1_555
N6 Zn1 1_555 1_555
C2 C16 1_555 1_555
N7 Zn1 1_555 1_555
C3 N7 1_555 1_555
H2 C3 1_555 1_555
C4 H3 1_555 1_555
N8 C17 1_555 1_555
C5 C11 1_555 1_555
C6 C1 1_555 1_555
C7 C6 1_555 1_555
C8 C57 1_555 1_555
C9 C25 1_555 1_555
C10 H4 1_555 1_555
C11 C1 1_555 1_555
H5 C11 1_555 1_555
N9 C29 1_555 1_555
C12 N1 1_555 1_555
C13 C23 1_555 1_555
C14 C10 1_555 1_555
C15 C6 1_555 1_555
H6 C15 1_555 1_555
C16 C33 1_555 1_555
C17 N5 1_555 1_555
H7 C17 1_555 1_555
N10 Zn2 1_555 1_555
C18 N3 1_555 1_555
H8 C18 1_555 1_555
C19 H9 1_555 1_555
C20 C19 1_555 1_555
H10 C20 1_555 1_555
C21 N4 1_555 1_555
C22 C5 1_555 1_555
H11 C22 1_555 1_555
C23 C20 1_555 1_555
C24 H12 1_555 1_555
C25 H13 1_555 1_555
C26 N2 1_555 1_555
C27 N2 1_555 1_555
C28 C12 1_555 1_555
H14 C28 1_555 1_555
C29 C36 1_555 1_555
C30 H15 1_555 1_555
C31 C4 1_555 1_555
H16 C31 1_555 1_555
C32 C21 1_555 1_555
H17 C32 1_555 1_555
C33 H18 1_555 1_555
C34 C51 1_555 1_555
C35 C14 1_555 1_555
C36 C33 1_555 1_555
H19 C36 1_555 1_555
C37 C30 1_555 1_555
C38 C2 1_555 1_555
H20 C38 1_555 1_555
O8 C35 1_555 1_555
C39 N4 1_555 1_555
C40 C47 1_555 1_555
C41 C26 1_555 1_555
H21 C41 1_555 1_555
C42 N7 1_555 1_555
H22 C42 1_555 1_555
C43 C9 1_555 1_555
H23 C43 1_555 1_555
C44 C10 1_555 1_555
H24 C44 1_555 1_555
C45 C24 1_555 1_555
H25 C45 1_555 1_555
C46 C16 1_555 1_555
H26 C46 1_555 1_555
C47 C28 1_555 1_555
H27 C47 1_555 1_555
C48 N1 1_555 1_555
H28 C48 1_555 1_555
C49 C23 1_555 1_555
H29 C49 1_555 1_555
C50 N8 1_555 1_555
C51 H30 1_555 1_555
C52 N9 1_555 1_555
H31 C52 1_555 1_555
C53 C2 1_555 1_555
H32 C53 1_555 1_555
C54 C12 1_555 1_555
H33 C54 1_555 1_555
C55 C39 1_555 1_555
H34 C55 1_555 1_555
C56 C34 1_555 1_555
H35 C56 1_555 1_555
C57 H36 1_555 1_555
C58 C39 1_555 1_555
H37 C58 1_555 1_555
C59 C29 1_555 1_555
H38 C59 1_555 1_555
C60 N3 1_555 1_555
H39 C60 1_555 1_555
C61 N6 1_555 1_555
H40 C61 1_555 1_555
C62 N5 1_555 1_555
H41 C62 1_555 1_555
C63 C50 1_555 1_555
H42 C63 1_555 1_555
C64 C55 1_555 1_555
H43 C64 1_555 1_555
C65 H44 1_555 1_555
C66 C50 1_555 1_555
H45 C66 1_555 1_555
C67 C40 1_555 1_555
H46 C67 1_555 1_555
C68 C37 1_555 1_555
C69 C57 1_555 1_555
H47 C69 1_555 1_555
C70 C64 1_555 1_555
H48 C70 1_555 1_555
C71 N10 1_555 1_555
H49 C71 1_555 1_555
C72 C8 1_555 1_555
H50 C72 1_555 1_555
C73 N9 1_555 1_555
H51 C73 1_555 1_555
C74 N8 1_555 1_555
H52 C74 1_555 1_555
C75 C65 1_555 1_555
H53 C75 1_555 1_555
C76 C58 1_555 1_555
H54 C76 1_555 1_555
N1B C3B 1_555 1_555
N7B C3B 1_555 1_555
C3B H2B 1_555 1_555
C12B N1B 1_555 1_555
C28B C12B 1_555 1_555
H14B C28B 1_555 1_555
C40B C40 1_555 1_555
C42B N7B 1_555 1_555
H22B C42B 1_555 1_555
C47B C28B 1_555 1_555
H27B C47B 1_555 1_555
C48B N1B 1_555 1_555
H28B C48B 1_555 1_555
C54B C12B 1_555 1_555
H33B C54B 1_555 1_555
C67B C40B 1_555 1_555
H46B C67B 1_555 1_555
N5B C17B 1_555 1_555
N8B C17B 1_555 1_555
C17B H7B 1_555 1_555
C34B C34 1_555 1_555
C50B N8B 1_555 1_555
C51B C34B 1_555 1_555
H30B C51B 1_555 1_555
C56B C34B 1_555 1_555
H35B C56B 1_555 1_555
C62B N5B 1_555 1_555
H41B C62B 1_555 1_555
C63B C50B 1_555 1_555
H42B C63B 1_555 1_555
C66B C50B 1_555 1_555
H45B C66B 1_555 1_555
C74B N8B 1_555 1_555
H52B C74B 1_555 1_555
Zn1B N7B 1_555 1_555
Zn2B O4B 1_555 1_555
O1B C7B 1_555 1_555
O2B Zn1B 1_555 1_555
O3B C35B 1_555 1_555
O4B C68B 1_555 1_555
N2B C8B 1_555 1_555
N3B C9B 1_555 1_555
O5B C68B 1_555 1_555
O6B C13B 1_555 1_555
N4B C5B 1_555 1_555
O7B C13B 1_555 1_555
C1B H1B 1_555 1_555
N6B Zn1B 1_555 1_555
C2B C16B 1_555 1_555
C4B H3B 1_555 1_555
C5B C11B 1_555 1_555
C6B C1B 1_555 1_555
C7B O2B 1_555 1_555
C8B C57B 1_555 1_555
C9B C25B 1_555 1_555
C10B H4B 1_555 1_555
C11B C1B 1_555 1_555
H5B C11B 1_555 1_555
N9B C29B 1_555 1_555
C13B C23B 1_555 1_555
C14B C10B 1_555 1_555
C15B C6B 1_555 1_555
H6B C15B 1_555 1_555
C16B C33B 1_555 1_555
N10B Zn2B 1_555 1_555
C18B N3B 1_555 1_555
H8B C18B 1_555 1_555
C19B H9B 1_555 1_555
C20B C19B 1_555 1_555
H10B C20B 1_555 1_555
C21B N4B 1_555 1_555
C22B C5B 1_555 1_555
H11B C22B 1_555 1_555
C23B C20B 1_555 1_555
C24B H12B 1_555 1_555
C25B H13B 1_555 1_555
C26B N2B 1_555 1_555
C27B N2B 1_555 1_555
C29B C36B 1_555 1_555
C30B H15B 1_555 1_555
C31B C4B 1_555 1_555
H16B C31B 1_555 1_555
C32B C21B 1_555 1_555
H17B C32B 1_555 1_555
C33B H18B 1_555 1_555
C35B C14B 1_555 1_555
C36B C33B 1_555 1_555
H19B C36B 1_555 1_555
C37B C30B 1_555 1_555
C38B C2B 1_555 1_555
H20B C38B 1_555 1_555
O8B C35B 1_555 1_555
C39B N4B 1_555 1_555
C41B C26B 1_555 1_555
H21B C41B 1_555 1_555
C43B C9B 1_555 1_555
H23B C43B 1_555 1_555
C44B C10B 1_555 1_555
H24B C44B 1_555 1_555
C45B C24B 1_555 1_555
H25B C45B 1_555 1_555
C46B C16B 1_555 1_555
H26B C46B 1_555 1_555
C49B C23B 1_555 1_555
H29B C49B 1_555 1_555
C52B N9B 1_555 1_555
H31B C52B 1_555 1_555
C53B C2B 1_555 1_555
H32B C53B 1_555 1_555
C55B C39B 1_555 1_555
H34B C55B 1_555 1_555
C57B H36B 1_555 1_555
C58B C39B 1_555 1_555
H37B C58B 1_555 1_555
C59B C29B 1_555 1_555
H38B C59B 1_555 1_555
C60B N3B 1_555 1_555
H39B C60B 1_555 1_555
C61B N6B 1_555 1_555
H40B C61B 1_555 1_555
C64B C55B 1_555 1_555
H43B C64B 1_555 1_555
C65B H44B 1_555 1_555
C68B C37B 1_555 1_555
C69B C57B 1_555 1_555
H47B C69B 1_555 1_555
C70B C64B 1_555 1_555
H48B C70B 1_555 1_555
C71B N10B 1_555 1_555
H49B C71B 1_555 1_555
C72B C8B 1_555 1_555
H50B C72B 1_555 1_555
C73B N9B 1_555 1_555
H51B C73B 1_555 1_555
C75B C65B 1_555 1_555
H53B C75B 1_555 1_555
C76B C58B 1_555 1_555
H54B C76B 1_555 1_555
Zn1_2 O6 1_555 1_555
Zn1B_2 O6B 1_555 1_555
Zn2_2 O3 1_555 1_555
Zn2B_2 O3B 1_555 1_555
Zn2B_3 N5B 1_555 1_555
O3_2 Zn2 1_555 1_555
O3B_2 Zn2B 1_555 1_555
O6_2 Zn1 1_555 1_555
O6B_2 Zn1B 1_555 1_555
N5B_2 Zn2B 1_555 1_555
N6 C60 1_555 1_555
C4 C27 1_555 1_555
C14 C31 1_555 1_555
C15 C22 1_555 1_555
N10 C52 1_555 1_555
C18 C61 1_555 1_555
C19 C21 1_555 1_555
C24 C26 1_555 1_555
C25 C38 1_555 1_555
C27 C44 1_555 1_555
C30 C41 1_555 1_555
C32 C49 1_555 1_555
C37 C45 1_555 1_555
C42 C48 1_555 1_555
C43 C53 1_555 1_555
C46 C59 1_555 1_555
C51 C63 1_555 1_555
C54 C67 1_555 1_555
C56 C66 1_555 1_555
C62 C74 1_555 1_555
C65 C69 1_555 1_555
C70 C76 1_555 1_555
C71 C73 1_555 1_555
C72 C75 1_555 1_555
C40B C47B 1_555 1_555
C42B C48B 1_555 1_555
C54B C67B 1_555 1_555
C51B C63B 1_555 1_555
C56B C66B 1_555 1_555
C62B C74B 1_555 1_555
N6B C60B 1_555 1_555
C4B C27B 1_555 1_555
C6B C7B 1_555 1_555
C14B C31B 1_555 1_555
C15B C22B 1_555 1_555
N10B C52B 1_555 1_555
C18B C61B 1_555 1_555
C19B C21B 1_555 1_555
C24B C26B 1_555 1_555
C25B C38B 1_555 1_555
C27B C44B 1_555 1_555
C30B C41B 1_555 1_555
C32B C49B 1_555 1_555
C37B C45B 1_555 1_555
C43B C53B 1_555 1_555
C46B C59B 1_555 1_555
C65B C69B 1_555 1_555
C70B C76B 1_555 1_555
C71B C73B 1_555 1_555
C72B C75B 1_555 1_555

#END
