
#######################################################################
#
#                 Cambridge Crystallographic Data Centre
#                                CCDC 
#
#######################################################################
#
# If this CIF has been generated from an entry in the Cambridge 
# Structural Database, then it will include bibliographic, chemical, 
# crystal, experimental, refinement or atomic coordinate data resulting 
# from the CCDC's data processing and validation procedures.
#
#######################################################################

data_OHAMAM
_symmetry_cell_setting           monoclinic
_symmetry_space_group_name_H-M   'P 21/c'
_symmetry_Int_Tables_number      14
_space_group_name_Hall           '-P 2ybc'
loop_
_symmetry_equiv_pos_site_id
_symmetry_equiv_pos_as_xyz
1 x,y,z
2 -x,1/2+y,1/2-z
3 -x,-y,-z
4 x,1/2-y,1/2+z
_cell_length_a                   17.978(3)
_cell_length_b                   11.640(2)
_cell_length_c                   10.0043(17)
_cell_angle_alpha                90
_cell_angle_beta                 93.933(4)
_cell_angle_gamma                90
_cell_volume                     2088.61
loop_
_atom_site_label
_atom_site_type_symbol
_atom_site_fract_x
_atom_site_fract_y
_atom_site_fract_z
C1 C 0.7426(2) -0.2873(3) 0.5416(3)
C2 C 0.7457(2) -0.1576(3) 0.5511(3)
C3 C 0.7473(2) -0.0714(3) 0.4579(4)
H1 H 0.7457 -0.0782 0.3651
C4 C 0.7519(2) 0.0283(3) 0.5337(4)
C5 C 0.7601(2) 0.1519(3) 0.4950(4)
C6 C 0.9248(2) 0.1038(4) 0.9035(4)
H2 H 0.9097 0.0438 0.9566
C7 C 0.9224(2) 0.2326(3) 0.7589(4)
H3 H 0.9080 0.2844 0.6912
C8 C 1.0516(2) 0.3058(4) 0.8025(4)
H4 H 1.0975 0.2624 0.8000
H5 H 1.0435 0.3455 0.7175
C9 C 1.0606(3) 0.3903(4) 0.9081(4)
H6 H 1.0968 0.4462 0.8817
H7 H 1.0824 0.3517 0.9874
C10 C 0.9935(3) 0.4549(4) 0.9477(5)
H8 H 0.9701 0.4908 0.8681
H9 H 0.9583 0.3998 0.9794
C11 C 0.5941(2) 0.1285(4) 0.8559(4)
H10 H 0.6070 0.0642 0.9075
C12 C 0.6017(2) 0.2682(3) 0.7304(4)
H11 H 0.6190 0.3237 0.6734
C13 C 0.4710(2) 0.3426(4) 0.7406(4)
H12 H 0.4285 0.3008 0.7003
H13 H 0.4846 0.4012 0.6778
C14 C 0.4494(2) 0.3998(4) 0.8703(4)
H14 H 0.4077 0.4513 0.8497
H15 H 0.4330 0.3412 0.9306
C15 C 0.5124(2) 0.4663(4) 0.9396(4)
H16 H 0.5324 0.5193 0.8765
H17 H 0.5519 0.4135 0.9694
N1 N 0.74850(18) -0.1075(3) 0.6713(3)
H18 H 0.7474 -0.1447 0.7454
N2 N 0.75317(19) 0.0051(3) 0.6639(3)
N3 N 0.87761(19) 0.1564(3) 0.8110(3)
N4 N 0.99220(19) 0.1429(3) 0.9126(4)
N5 N 0.9891(2) 0.2242(3) 0.8165(4)
N6 N 0.6431(2) 0.1849(3) 0.7842(4)
N7 N 0.52614(18) 0.1719(3) 0.8474(3)
N8 N 0.53344(19) 0.2637(3) 0.7666(4)
O1 O 0.74324(16) -0.3393(3) 0.6483(3)
O2 O 0.74140(17) -0.3294(2) 0.4307(3)
O3 O 0.76263(15) 0.2235(2) 0.5888(2)
O4 O 0.76451(16) 0.1767(2) 0.3739(3)
O5 O 0.75357(15) 0.0618(2) 0.9588(3)
H19 H 0.7495 -0.0081 0.9347
H20 H 0.7579 0.0633 1.0439
Zn1 Zn 0.75939(2) 0.15831(4) 0.78813(4)
C1B C 0.2574(2) 1.2873(3) 1.4584(3)
C2B C 0.2543(2) 1.1576(3) 1.4489(3)
C3B C 0.2527(2) 1.0714(3) 1.5421(4)
H1B H 0.2543 1.0782 1.6349
C4B C 0.2481(2) 0.9717(3) 1.4663(4)
C5B C 0.2399(2) 0.8481(3) 1.5050(4)
C6B C 1.0752(2) 0.8962(4) 1.0965(4)
H2B H 1.0903 0.9562 1.0434
C7B C 1.0776(2) 0.7674(3) 1.2411(4)
H3B H 1.0920 0.7156 1.3088
C8B C 0.9484(2) 0.6942(4) 1.1975(4)
H4B H 0.9025 0.7376 1.2000
H5B H 0.9565 0.6545 1.2825
C9B C 0.9394(3) 0.6097(4) 1.0919(4)
H6B H 0.9032 0.5538 1.1183
H7B H 0.9176 0.6483 1.0126
C10B C 1.0065(3) 0.5451(4) 1.0523(5)
H8B H 1.0299 0.5092 1.1319
H9B H 1.0417 0.6002 1.0206
C11B C 0.4059(2) 0.8715(4) 1.1441(4)
H10B H 0.3930 0.9358 1.0925
C12B C 0.3983(2) 0.7318(3) 1.2696(4)
H11B H 0.3810 0.6763 1.3266
C13B C 0.5290(2) 0.6574(4) 1.2594(4)
H12B H 0.5715 0.6992 1.2997
H13B H 0.5154 0.5988 1.3222
C14B C 0.5506(2) 0.6002(4) 1.1297(4)
H14B H 0.5923 0.5487 1.1503
H15B H 0.5670 0.6588 1.0694
C15B C 0.4876(2) 0.5337(4) 1.0604(4)
H16B H 0.4676 0.4807 1.1235
H17B H 0.4481 0.5865 1.0306
N1B N 0.25150(18) 1.1075(3) 1.3287(3)
H18B H 0.2526 1.1447 1.2546
N2B N 0.24683(19) 0.9949(3) 1.3361(3)
N3B N 1.12239(19) 0.8436(3) 1.1890(3)
N3B_2 N 0.12239(19) 0.8436(3) 1.1890(3)
N4B N 1.00780(19) 0.8571(3) 1.0874(4)
N5B N 1.0109(2) 0.7758(3) 1.1835(4)
N6B N 0.3569(2) 0.8151(3) 1.2158(4)
N7B N 0.47386(18) 0.8281(3) 1.1526(3)
N8B N 0.46656(19) 0.7363(3) 1.2334(4)
O1B O 0.25676(16) 1.3393(3) 1.3517(3)
O2B O 0.25860(17) 1.3294(2) 1.5693(3)
O3B O 0.23737(15) 0.7765(2) 1.4112(2)
O4B O 0.23549(16) 0.8233(2) 1.6261(3)
O4A O 0.23549(16) 0.6767(2) 1.1261(3)
O4C O 0.76451(16) 0.3233(2) 0.8739(3)
O5B O 0.24643(15) 0.9382(2) 1.0412(3)
H19B H 0.2505 1.0081 1.0653
H20B H 0.2421 0.9367 0.9561
Zn1B Zn 0.24061(2) 0.84169(4) 1.21187(4)
Zn1A Zn 0.24061(2) 0.65831(4) 1.71187(4)
Zn1B_2 Zn 1.24061(2) 0.84169(4) 1.21187(4)
Zn1C Zn 0.75939(2) 0.34169(4) 0.28813(4)
O6 O 0.60737(16) 0.5307(3) 0.6220(3)
H21 H 0.6330 0.5786 0.6698
H22 H 0.5677 0.5581 0.5833
O7 O 0.84197(17) 0.0320(3) 1.1971(3)
H23 H 0.8370 -0.0389 1.2147
H24 H 0.8258 0.0812 1.2508
loop_
_geom_bond_atom_site_label_1
_geom_bond_atom_site_label_2
_geom_bond_site_symmetry_1
_geom_bond_site_symmetry_2
C1 C2 1_555 1_555
C2 C3 1_555 1_555
C3 H1 1_555 1_555
C4 C3 1_555 1_555
C5 C4 1_555 1_555
C6 H2 1_555 1_555
C7 H3 1_555 1_555
C8 H4 1_555 1_555
H5 C8 1_555 1_555
C9 C8 1_555 1_555
H6 C9 1_555 1_555
H7 C9 1_555 1_555
C10 C9 1_555 1_555
H8 C10 1_555 1_555
H9 C10 1_555 1_555
C11 H10 1_555 1_555
C12 H11 1_555 1_555
C13 H12 1_555 1_555
H13 C13 1_555 1_555
C14 C13 1_555 1_555
H14 C14 1_555 1_555
H15 C14 1_555 1_555
C15 C14 1_555 1_555
H16 C15 1_555 1_555
H17 C15 1_555 1_555
N1 C2 1_555 1_555
H18 N1 1_555 1_555
N2 C4 1_555 1_555
N3 C6 1_555 1_555
N4 C6 1_555 1_555
N5 C7 1_555 1_555
N6 C11 1_555 1_555
N7 C11 1_555 1_555
N8 C12 1_555 1_555
O1 C1 1_555 1_555
O2 C1 1_555 1_555
O3 C5 1_555 1_555
O4 C5 1_555 1_555
O5 H19 1_555 1_555
H20 O5 1_555 1_555
O6 H21 1_555 1_555
H22 O6 1_555 1_555
O7 H23 1_555 1_555
H24 O7 1_555 1_555
Zn1 N2 1_555 1_555
C1B C2B 1_555 1_555
C2B C3B 1_555 1_555
C3B H1B 1_555 1_555
C4B C3B 1_555 1_555
C5B C4B 1_555 1_555
C6B H2B 1_555 1_555
C7B H3B 1_555 1_555
C8B H4B 1_555 1_555
H5B C8B 1_555 1_555
C9B C8B 1_555 1_555
H6B C9B 1_555 1_555
H7B C9B 1_555 1_555
C10B C10 1_555 1_555
H8B C10B 1_555 1_555
H9B C10B 1_555 1_555
C11B H10B 1_555 1_555
C12B H11B 1_555 1_555
C13B H12B 1_555 1_555
H13B C13B 1_555 1_555
C14B C13B 1_555 1_555
H14B C14B 1_555 1_555
H15B C14B 1_555 1_555
C15B C15 1_555 1_555
H16B C15B 1_555 1_555
H17B C15B 1_555 1_555
N1B C2B 1_555 1_555
H18B N1B 1_555 1_555
N2B C4B 1_555 1_555
N3B C6B 1_555 1_555
N3B_2 Zn1B 1_555 1_555
N4B C6B 1_555 1_555
N5B C7B 1_555 1_555
N6B C11B 1_555 1_555
N7B C11B 1_555 1_555
N8B C12B 1_555 1_555
O1B C1B 1_555 1_555
O2B C1B 1_555 1_555
O3B C5B 1_555 1_555
O4B C5B 1_555 1_555
O4A Zn1B 1_555 1_555
O4C Zn1 1_555 1_555
O5B H19B 1_555 1_555
H20B O5B 1_555 1_555
Zn1B N2B 1_555 1_555
Zn1A O4B 1_555 1_555
Zn1B_2 N3B 1_555 1_555
Zn1C O4 1_555 1_555
C7 N3 1_555 1_555
C8 N5 1_555 1_555
C12 N6 1_555 1_555
C13 N8 1_555 1_555
N1 N2 1_555 1_555
N3 Zn1 1_555 1_555
N4 N5 1_555 1_555
N6 Zn1 1_555 1_555
N7 N8 1_555 1_555
O3 Zn1 1_555 1_555
O5 Zn1 1_555 1_555
C7B N3B 1_555 1_555
C8B N5B 1_555 1_555
C9B C10B 1_555 1_555
C12B N6B 1_555 1_555
C13B N8B 1_555 1_555
C14B C15B 1_555 1_555
N1B N2B 1_555 1_555
N4B N5B 1_555 1_555
N6B Zn1B 1_555 1_555
N7B N8B 1_555 1_555
O3B Zn1B 1_555 1_555
O5B Zn1B 1_555 1_555

#END
