
#######################################################################
#
#                 Cambridge Crystallographic Data Centre
#                                CCDC 
#
#######################################################################
#
# If this CIF has been generated from an entry in the Cambridge 
# Structural Database, then it will include bibliographic, chemical, 
# crystal, experimental, refinement or atomic coordinate data resulting 
# from the CCDC's data processing and validation procedures.
#
#######################################################################

data_OHAMIV
_symmetry_cell_setting           triclinic
_symmetry_space_group_name_H-M   'P -1'
_symmetry_Int_Tables_number      2
_space_group_name_Hall           '-P 1'
loop_
_symmetry_equiv_pos_site_id
_symmetry_equiv_pos_as_xyz
1 x,y,z
2 -x,-y,-z
_cell_length_a                   7.4098(15)
_cell_length_b                   8.4255(17)
_cell_length_c                   10.209(2)
_cell_angle_alpha                82.46(3)
_cell_angle_beta                 83.41(3)
_cell_angle_gamma                79.14(3)
_cell_volume                     617.874
loop_
_atom_site_label
_atom_site_type_symbol
_atom_site_fract_x
_atom_site_fract_y
_atom_site_fract_z
Co1 Co 1.0000 1.0000 0.0000
Co2 Co 0.65135(5) 0.11991(5) 0.32310(4)
N1 N 0.8659(3) 0.2188(3) 0.3972(2)
H1 H 0.7874 0.1922 0.4611
H2 H 0.9332 0.1452 0.3532
O1 O 0.4607(3) -0.0099(3) 0.2615(2)
H3 H 0.3727 -0.0188 0.3217
H4 H 0.5029 -0.0989 0.2291
O2 O 0.6071(3) 0.2958(3) 0.1698(2)
H5 H 0.5046 0.3586 0.1586
H6 H 0.6626 0.2746 0.0949
O3 O 1.3166(4) 0.5255(3) 0.1010(3)
O4 O 1.1552(3) 0.7675(3) 0.0534(2)
O5 O 1.2043(4) 1.1062(3) 0.0566(2)
H7 H 1.2731 1.1572 0.0006
H8 H 1.2780 1.0672 0.1154
O6 O 0.8677(3) 0.9828(2) 0.2001(2)
O7 O 1.1078(3) 0.9091(3) 0.3214(2)
O8 O 0.7194(3) 0.9309(2) 0.4757(2)
O9 O 0.5525(3) 0.7432(3) 0.5647(2)
C1 C 0.8846(4) 0.3845(4) 0.3640(3)
C2 C 0.7765(4) 0.5035(4) 0.4346(3)
H9 H 0.6878 0.4752 0.5011
C3 C 0.7994(4) 0.6648(3) 0.4070(3)
C4 C 0.9309(4) 0.7093(3) 0.3050(3)
C5 C 1.0338(4) 0.5895(4) 0.2309(3)
C6 C 1.0108(4) 0.4281(4) 0.2609(3)
H10 H 1.0806 0.3490 0.2114
C7 C 1.1771(4) 0.6297(4) 0.1205(3)
C8 C 0.9730(4) 0.8790(4) 0.2758(3)
C9 C 0.6813(4) 0.7889(3) 0.4881(3)
Co2A Co 0.34865(5) 0.88009(5) 0.67690(4)
N1A N 0.1341(3) 0.7812(3) 0.6028(2)
H1A H 0.2126 0.8078 0.5389
H2A H 0.0668 0.8548 0.6468
O1A O 0.5393(3) 1.0099(3) 0.7385(2)
H3A H 0.6273 1.0188 0.6783
H4A H 0.4971 1.0989 0.7709
O2A O 0.3929(3) 0.7042(3) 0.8302(2)
H5A H 0.4954 0.6414 0.8414
H6A H 0.3374 0.7254 0.9051
O3A O -0.3166(4) 0.4745(3) 0.8990(3)
O4A O -0.1552(3) 0.2325(3) 0.9466(2)
O6A O 0.1323(3) 0.0172(2) 0.7999(2)
O7A O -0.1078(3) 0.0909(3) 0.6786(2)
O8A O 0.2806(3) 0.0691(2) 0.5243(2)
O9A O 0.4475(3) 0.2568(3) 0.4353(2)
C1A C 0.1154(4) 0.6155(4) 0.6360(3)
C2A C 0.2235(4) 0.4965(4) 0.5654(3)
H9A H 0.3122 0.5248 0.4989
C3A C 0.2006(4) 0.3352(3) 0.5930(3)
C4A C 0.0691(4) 0.2907(3) 0.6950(3)
C5A C -0.0338(4) 0.4105(4) 0.7691(3)
C6A C -0.0108(4) 0.5719(4) 0.7391(3)
H10A H -0.0806 0.6510 0.7886
C7A C -0.1771(4) 0.3703(4) 0.8795(3)
C8A C 0.0270(4) 0.1210(4) 0.7242(3)
C9A C 0.3187(4) 0.2111(3) 0.5119(3)
O5A O 0.7957(4) 0.8938(3) -0.0566(2)
H7A H 0.7269 0.8428 -0.0006
H8A H 0.7220 0.9328 -0.1154
Co1_2 Co 0.0000 0.0000 1.0000
Co2_2 Co 0.65135(5) 1.11991(5) 0.32310(4)
Co2A_2 Co 0.34865(5) -0.11991(5) 0.67690(4)
O4A_2 O 0.8448(3) 1.2325(3) -0.0534(2)
O6_2 O 0.8677(3) -0.0172(2) 0.2001(2)
O6A_2 O 0.1323(3) 1.0172(2) 0.7999(2)
O6A_3 O 1.1323(3) 1.0172(2) -0.2001(2)
O8_2 O 0.7194(3) -0.0691(2) 0.4757(2)
O8A_2 O 0.2806(3) 1.0691(2) 0.5243(2)
O10 O 0.4093(4) 0.2870(4) 0.8676(3)
H11 H 0.3207 0.3496 0.8311
H12 H 0.4836 0.3375 0.8958
loop_
_geom_bond_atom_site_label_1
_geom_bond_atom_site_label_2
_geom_bond_site_symmetry_1
_geom_bond_site_symmetry_2
Co1 O4 1_555 1_555
Co2 N1 1_555 1_555
N1 H1 1_555 1_555
H2 N1 1_555 1_555
O1 Co2 1_555 1_555
H3 O1 1_555 1_555
H4 O1 1_555 1_555
O2 Co2 1_555 1_555
H5 O2 1_555 1_555
H6 O2 1_555 1_555
O3 C7 1_555 1_555
O4 C7 1_555 1_555
O5 Co1 1_555 1_555
H7 O5 1_555 1_555
H8 O5 1_555 1_555
O6 Co1 1_555 1_555
O7 C8 1_555 1_555
O8 C9 1_555 1_555
O9 C9 1_555 1_555
C1 N1 1_555 1_555
C2 C1 1_555 1_555
H9 C2 1_555 1_555
C3 C2 1_555 1_555
C4 C3 1_555 1_555
C5 C4 1_555 1_555
C6 C1 1_555 1_555
H10 C6 1_555 1_555
C7 C5 1_555 1_555
C8 O6 1_555 1_555
C9 C3 1_555 1_555
O10 H11 1_555 1_555
H12 O10 1_555 1_555
Co2A O9 1_555 1_555
N1A Co2A 1_555 1_555
H1A N1A 1_555 1_555
H2A N1A 1_555 1_555
O1A Co2A 1_555 1_555
H3A O1A 1_555 1_555
H4A O1A 1_555 1_555
O2A Co2A 1_555 1_555
H5A O2A 1_555 1_555
H6A O2A 1_555 1_555
O3A C7A 1_555 1_555
O4A C7A 1_555 1_555
O6A C8A 1_555 1_555
O7A C8A 1_555 1_555
O8A C9A 1_555 1_555
O9A Co2 1_555 1_555
C1A N1A 1_555 1_555
C2A C1A 1_555 1_555
H9A C2A 1_555 1_555
C3A C2A 1_555 1_555
C4A C3A 1_555 1_555
C5A C4A 1_555 1_555
C6A C1A 1_555 1_555
H10A C6A 1_555 1_555
C7A C5A 1_555 1_555
C8A C4A 1_555 1_555
C9A O9A 1_555 1_555
O5A Co1 1_555 1_555
H7A O5A 1_555 1_555
H8A O5A 1_555 1_555
Co1_2 O4A 1_555 1_555
Co2_2 O6 1_555 1_555
Co2A_2 O6A 1_555 1_555
O4A_2 Co1 1_555 1_555
O6_2 Co2 1_555 1_555
O6A_2 Co2A 1_555 1_555
O6A_3 Co1 1_555 1_555
O8_2 Co2 1_555 1_555
O8A_2 Co2A 1_555 1_555
O8 Co2_2 1_555 1_555
C4 C8 1_555 1_555
C5 C6 1_555 1_555
O6A Co1_2 1_555 1_555
O8A Co2A_2 1_555 1_555
C3A C9A 1_555 1_555
C5A C6A 1_555 1_555

#END
