
#######################################################################
#
#                 Cambridge Crystallographic Data Centre
#                                CCDC 
#
#######################################################################
#
# If this CIF has been generated from an entry in the Cambridge 
# Structural Database, then it will include bibliographic, chemical, 
# crystal, experimental, refinement or atomic coordinate data resulting 
# from the CCDC's data processing and validation procedures.
#
#######################################################################

data_OHANOC
_symmetry_cell_setting           triclinic
_symmetry_space_group_name_H-M   'P -1'
_symmetry_Int_Tables_number      2
_space_group_name_Hall           '-P 1'
loop_
_symmetry_equiv_pos_site_id
_symmetry_equiv_pos_as_xyz
1 x,y,z
2 -x,-y,-z
_cell_length_a                   10.6126(14)
_cell_length_b                   13.0570(16)
_cell_length_c                   18.873(2)
_cell_angle_alpha                77.782(2)
_cell_angle_beta                 81.567(2)
_cell_angle_gamma                73.826(2)
_cell_volume                     2444.07
loop_
_atom_site_label
_atom_site_type_symbol
_atom_site_fract_x
_atom_site_fract_y
_atom_site_fract_z
C1 C -0.0070(6) 0.7773(5) 0.1123(3)
C2 C -0.0134(11) 0.8508(7) 0.0495(4)
H1 H 0.0055 0.9158 0.0509
C3 C -0.0442(13) 0.8396(10) -0.0140(5)
H2 H -0.0472 0.8933 -0.0553
C4 C -0.0730(13) 0.7352(11) -0.0131(7)
H3 H -0.0969 0.7212 -0.0549
C5 C -0.0643(12) 0.6564(10) 0.0512(7)
H4 H -0.0790 0.5890 0.0528
C6 C -0.0336(8) 0.6837(7) 0.1097(5)
H5 H -0.0306 0.6330 0.1527
C7 C -0.3251(6) 1.1377(4) 0.3115(3)
C8 C -0.0638(6) 0.8911(4) 0.2054(3)
C9 C -0.0155(6) 0.9668(4) 0.2262(3)
H6 H 0.0743 0.9627 0.2186
C10 C -0.1010(6) 1.0491(4) 0.2586(3)
H7 H -0.0690 1.1011 0.2719
C11 C -0.2338(5) 1.0539(4) 0.2711(3)
C12 C -0.2811(5) 0.9797(4) 0.2484(3)
H8 H -0.3708 0.9837 0.2558
C13 C -0.1962(6) 0.8989(4) 0.2146(3)
H9 H -0.2291 0.8500 0.1983
C14 C 0.2177(5) 0.6488(4) 0.1886(3)
H10 H 0.2220 0.6468 0.1393
C15 C 0.3073(6) 0.5745(4) 0.2309(3)
H11 H 0.3698 0.5211 0.2100
C16 C 0.3082(5) 0.5760(4) 0.3037(3)
C17 C 0.2132(5) 0.6555(4) 0.3330(3)
H12 H 0.2127 0.6597 0.3816
C18 C 0.1196(5) 0.7286(4) 0.2924(3)
H13 H 0.0548 0.7797 0.3142
C19 C 0.1202(5) 0.7274(4) 0.2187(3)
C20 C 0.4094(5) 0.4955(4) 0.3495(3)
C21 C 0.5520(5) 0.2712(4) 0.5420(3)
H14 H 0.5681 0.3356 0.5471
C22 C 0.5232(6) 0.1434(4) 0.4967(3)
H15 H 0.5158 0.1035 0.4629
C23 C 0.5083(6) 0.1121(4) 0.5693(3)
H16 H 0.4896 0.0479 0.5945
C24 C 0.5275(6) 0.1933(4) 0.6744(3)
C25 C 0.6065(7) 0.1057(5) 0.7148(3)
H17 H 0.6583 0.0488 0.6927
C26 C 0.6095(8) 0.1017(6) 0.7876(3)
H18 H 0.6624 0.0417 0.8150
C27 C 0.4580(9) 0.2731(6) 0.7793(3)
H19 H 0.4076 0.3309 0.8010
C28 C 0.4522(7) 0.2791(5) 0.7050(3)
H20 H 0.3993 0.3390 0.6776
C29 C 0.5327(9) 0.1880(6) 0.8209(3)
C30 C 0.5373(11) 0.1827(7) 0.9009(4)
H21 H 0.6138 0.2049 0.9080
H22 H 0.4593 0.2329 0.9191
C31 C 0.4201(8) 0.0496(6) 0.9444(3)
H23 H 0.3980 0.0571 0.8951
H24 H 0.3520 0.1007 0.9685
C32 C 0.4246(9) -0.0615(7) 0.9834(3)
H25 H 0.3399 -0.0765 0.9841
H26 H 0.4907 -0.1130 0.9584
C33 C 0.8355(6) 0.4192(5) 0.3329(3)
H27 H 0.8636 0.3835 0.2934
C34 C 0.7310(5) 0.4672(4) 0.4309(3)
H28 H 0.6726 0.4721 0.4726
C35 C 0.8833(6) 0.4967(5) 0.3463(3)
H29 H 0.9495 0.5250 0.3181
C36 C 0.8275(5) 0.6096(4) 0.4452(3)
C37 C 0.8351(6) 0.5874(5) 0.5190(3)
H30 H 0.8374 0.5181 0.5453
C38 C 0.8395(7) 0.6697(5) 0.5542(3)
H31 H 0.8436 0.6554 0.6043
C39 C 0.8378(6) 0.7716(5) 0.5157(4)
C40 C 0.8324(6) 0.7913(5) 0.4421(4)
H32 H 0.8329 0.8600 0.4157
C41 C 0.8262(6) 0.7116(5) 0.4058(3)
H33 H 0.8213 0.7265 0.3557
C42 C 0.8381(7) 0.8607(6) 0.5556(4)
H34 H 0.7480 0.8999 0.5677
H35 H 0.8786 0.8287 0.6007
C43 C 1.0485(6) 0.8878(5) 0.5069(4)
H36 H 1.0676 0.8208 0.4883
H37 H 1.0797 0.8710 0.5549
C44 C 1.1179(7) 0.9646(5) 0.4573(4)
H38 H 1.2120 0.9317 0.4527
H39 H 1.0868 0.9818 0.4093
N1 N 0.0268(5) 0.8021(3) 0.1758(2)
N2 N 0.5511(4) 0.2430(3) 0.4797(2)
N3 N 0.5261(4) 0.1934(3) 0.5984(2)
N4 N 0.5437(6) 0.0739(5) 0.9420(2)
N5 N 0.7381(4) 0.4006(3) 0.3866(2)
N6 N 0.8164(4) 0.5266(3) 0.4093(2)
N7 N 0.9094(5) 0.9357(4) 0.5119(3)
O1 O -0.4399(5) 1.1311(3) 0.3311(2)
O2 O -0.2775(4) 1.2096(3) 0.3245(2)
O3 O 0.4235(4) 0.5087(3) 0.41020(17)
O4 O 0.4777(4) 0.4144(3) 0.32010(18)
Zn1 Zn 0.60786(6) 0.31503(4) 0.38036(3)
C21A C 0.4480(5) -0.2712(4) 1.4580(3)
H14A H 0.4319 -0.3356 1.4529
C22A C 0.4768(6) -0.1434(4) 1.5033(3)
H15A H 0.4842 -0.1035 1.5371
C23A C 0.4917(6) -0.1121(4) 1.4307(3)
H16A H 0.5104 -0.0479 1.4055
C24A C 0.4725(6) -0.1933(4) 1.3256(3)
C25A C 0.3935(7) -0.1057(5) 1.2852(3)
H17A H 0.3417 -0.0488 1.3073
C26A C 0.3905(8) -0.1017(6) 1.2124(3)
H18A H 0.3376 -0.0417 1.1850
C27A C 0.5420(9) -0.2731(6) 1.2207(3)
H19A H 0.5924 -0.3309 1.1990
C28A C 0.5478(7) -0.2791(5) 1.2950(3)
H20A H 0.6007 -0.3390 1.3224
C29A C 0.4673(9) -0.1880(6) 1.1791(3)
C30A C 0.4627(11) -0.1827(7) 1.0991(4)
H21A H 0.3862 -0.2049 1.0920
H22A H 0.5407 -0.2329 1.0809
C31A C 0.5799(8) -0.0496(6) 1.0556(3)
H23A H 0.6020 -0.0571 1.1049
H24A H 0.6480 -0.1007 1.0315
C32A C 0.5754(9) 0.0615(7) 1.0166(3)
H25A H 0.6601 0.0765 1.0159
H26A H 0.5093 0.1130 1.0416
N2A N 0.4489(4) -0.2430(3) 1.5203(2)
N3A N 0.4739(4) -0.1934(3) 1.4016(2)
N4A N 0.4563(6) -0.0739(5) 1.0580(2)
C33A C 1.1645(6) 1.5808(5) 0.6671(3)
H27A H 1.1364 1.6165 0.7066
C34A C 1.2690(5) 1.5328(4) 0.5691(3)
H28A H 1.3274 1.5279 0.5274
C35A C 1.1167(6) 1.5033(5) 0.6537(3)
H29A H 1.0505 1.4750 0.6819
C36A C 1.1725(5) 1.3904(4) 0.5548(3)
C37A C 1.1649(6) 1.4126(5) 0.4810(3)
H30A H 1.1626 1.4819 0.4547
C38A C 1.1605(7) 1.3303(5) 0.4458(3)
H31A H 1.1564 1.3446 0.3957
C39A C 1.1622(6) 1.2284(5) 0.4843(4)
C40A C 1.1676(6) 1.2087(5) 0.5579(4)
H32A H 1.1671 1.1400 0.5843
C41A C 1.1738(6) 1.2884(5) 0.5942(3)
H33A H 1.1787 1.2735 0.6443
C42A C 1.1619(7) 1.1393(6) 0.4444(4)
H34A H 1.2520 1.1001 0.4323
H35A H 1.1214 1.1713 0.3993
C43A C 0.9515(6) 1.1122(5) 0.4931(4)
H36A H 0.9324 1.1792 0.5117
H37A H 0.9203 1.1290 0.4451
C44A C 0.8821(7) 1.0354(5) 0.5427(4)
H38A H 0.7880 1.0683 0.5473
H39A H 0.9132 1.0182 0.5907
N5A N 1.2619(4) 1.5994(3) 0.6134(2)
N6A N 1.1836(4) 1.4734(3) 0.5907(2)
N7A N 1.0906(5) 1.0643(4) 0.4881(3)
C1A C 1.0070(6) -0.7773(5) 1.8877(3)
C2A C 1.0134(11) -0.8508(7) 1.9505(4)
H1A H 0.9945 -0.9158 1.9491
C3A C 1.0442(13) -0.8396(10) 2.0140(5)
H2A H 1.0472 -0.8933 2.0553
C4A C 1.0730(13) -0.7352(11) 2.0131(7)
H3A H 1.0969 -0.7212 2.0549
C5A C 1.0643(12) -0.6564(10) 1.9488(7)
H4A H 1.0790 -0.5890 1.9472
C6A C 1.0336(8) -0.6837(7) 1.8903(5)
H5A H 1.0306 -0.6330 1.8473
C7A C 1.3251(6) -1.1377(4) 1.6885(3)
C8A C 1.0638(6) -0.8911(4) 1.7946(3)
C9A C 1.0155(6) -0.9668(4) 1.7738(3)
H6A H 0.9257 -0.9627 1.7814
C10A C 1.1010(6) -1.0491(4) 1.7414(3)
H7A H 1.0690 -1.1011 1.7281
C11A C 1.2338(5) -1.0539(4) 1.7289(3)
C12A C 1.2811(5) -0.9797(4) 1.7516(3)
H8A H 1.3708 -0.9837 1.7442
C13A C 1.1962(6) -0.8989(4) 1.7854(3)
H9A H 1.2291 -0.8500 1.8017
C14A C 0.7823(5) -0.6488(4) 1.8114(3)
H10A H 0.7780 -0.6468 1.8607
C15A C 0.6927(6) -0.5745(4) 1.7691(3)
H11A H 0.6302 -0.5211 1.7900
C16A C 0.6918(5) -0.5760(4) 1.6963(3)
C17A C 0.7868(5) -0.6555(4) 1.6670(3)
H12A H 0.7873 -0.6597 1.6184
C18A C 0.8804(5) -0.7286(4) 1.7076(3)
H13A H 0.9452 -0.7797 1.6858
C19A C 0.8798(5) -0.7274(4) 1.7813(3)
C20A C 0.5906(5) -0.4955(4) 1.6505(3)
N1A N 0.9732(5) -0.8021(3) 1.8242(2)
O1A O 1.4399(5) -1.1311(3) 1.6689(2)
O2A O 1.2775(4) -1.2096(3) 1.6755(2)
O3A O 0.5765(4) -0.5087(3) 1.58980(17)
O4A O 0.5223(4) -0.4144(3) 1.67990(18)
Zn1A Zn 0.39214(6) -0.31503(4) 1.61964(3)
N5A_2 N 0.2619(4) -0.4006(3) 1.6134(2)
O2_2 O 0.7225(4) 0.2096(3) 0.3245(2)
O2A_2 O 0.2775(4) -0.2096(3) 1.6755(2)
Zn1_2 Zn -0.39214(6) 1.31503(4) 0.38036(3)
Zn1A_2 Zn 1.39214(6) -1.31503(4) 1.61964(3)
Zn1A_3 Zn 1.39214(6) 1.68497(4) 0.61964(3)
C45 C 0.387(3) 0.290(2) 0.1698(14)
H40 H 0.4427 0.2215 0.1896
H41 H 0.4081 0.3470 0.1870
H42 H 0.4007 0.3017 0.1176
C46 C 0.143(2) 0.3834(15) 0.1698(10)
N8 N 0.2528(12) 0.2909(10) 0.1922(6)
O5 O 0.0364(16) 0.3977(11) 0.1798(7)
C47 C 0.167(3) 0.202(3) 0.2248(17)
H43 H 0.2258 0.1335 0.2417
H44 H 0.1197 0.1956 0.1873
H45 H 0.1065 0.2260 0.2646
O6 O 0.6967(9) 0.3860(8) 0.0883(6)
O7 O 0.672(2) 0.4016(17) 0.0093(13)
O8 O 0.740(3) 0.327(3) 0.1518(17)
O9 O 0.687(4) 0.461(3) 0.125(2)
loop_
_geom_bond_atom_site_label_1
_geom_bond_atom_site_label_2
_geom_bond_site_symmetry_1
_geom_bond_site_symmetry_2
C1 C2 1_555 1_555
C2 H1 1_555 1_555
C3 C2 1_555 1_555
H2 C3 1_555 1_555
C4 C3 1_555 1_555
H3 C4 1_555 1_555
C5 C4 1_555 1_555
H4 C5 1_555 1_555
C6 C1 1_555 1_555
H5 C6 1_555 1_555
C7 C11 1_555 1_555
C8 C9 1_555 1_555
C9 H6 1_555 1_555
C10 C9 1_555 1_555
H7 C10 1_555 1_555
C11 C10 1_555 1_555
C12 C11 1_555 1_555
H8 C12 1_555 1_555
C13 C8 1_555 1_555
H9 C13 1_555 1_555
C14 H10 1_555 1_555
C15 C14 1_555 1_555
H11 C15 1_555 1_555
C16 C15 1_555 1_555
C17 C16 1_555 1_555
H12 C17 1_555 1_555
C18 C17 1_555 1_555
H13 C18 1_555 1_555
C19 C14 1_555 1_555
C20 C16 1_555 1_555
C21 H14 1_555 1_555
C22 H15 1_555 1_555
C23 C22 1_555 1_555
H16 C23 1_555 1_555
C24 C25 1_555 1_555
C25 H17 1_555 1_555
C26 C25 1_555 1_555
H18 C26 1_555 1_555
C27 H19 1_555 1_555
C28 C24 1_555 1_555
H20 C28 1_555 1_555
C29 C26 1_555 1_555
C30 C29 1_555 1_555
H21 C30 1_555 1_555
H22 C30 1_555 1_555
C31 H23 1_555 1_555
H24 C31 1_555 1_555
C32 C31 1_555 1_555
H25 C32 1_555 1_555
H26 C32 1_555 1_555
C33 H27 1_555 1_555
C34 H28 1_555 1_555
C35 C33 1_555 1_555
H29 C35 1_555 1_555
C36 C37 1_555 1_555
C37 H30 1_555 1_555
C38 C37 1_555 1_555
H31 C38 1_555 1_555
C39 C38 1_555 1_555
C40 C39 1_555 1_555
H32 C40 1_555 1_555
C41 C36 1_555 1_555
H33 C41 1_555 1_555
C42 C39 1_555 1_555
H34 C42 1_555 1_555
H35 C42 1_555 1_555
C43 H36 1_555 1_555
H37 C43 1_555 1_555
C44 C43 1_555 1_555
H38 C44 1_555 1_555
H39 C44 1_555 1_555
N1 C1 1_555 1_555
N2 C21 1_555 1_555
N3 C21 1_555 1_555
N4 C30 1_555 1_555
N5 C33 1_555 1_555
N6 C34 1_555 1_555
N7 C42 1_555 1_555
O1 C7 1_555 1_555
O2 C7 1_555 1_555
O3 C20 1_555 1_555
O4 C20 1_555 1_555
Zn1 N2 1_555 1_555
C45 H40 1_555 1_555
H41 C45 1_555 1_555
H42 C45 1_555 1_555
C46 N8 1_555 1_555
N8 C45 1_555 1_555
O5 C46 1_555 1_555
C47 N8 1_555 1_555
H43 C47 1_555 1_555
H44 C47 1_555 1_555
H45 C47 1_555 1_555
C21A H14A 1_555 1_555
C22A H15A 1_555 1_555
C23A C22A 1_555 1_555
H16A C23A 1_555 1_555
C24A C25A 1_555 1_555
C25A H17A 1_555 1_555
C26A C25A 1_555 1_555
H18A C26A 1_555 1_555
C27A H19A 1_555 1_555
C28A C24A 1_555 1_555
H20A C28A 1_555 1_555
C29A C26A 1_555 1_555
C30A C29A 1_555 1_555
H21A C30A 1_555 1_555
H22A C30A 1_555 1_555
C31A H23A 1_555 1_555
H24A C31A 1_555 1_555
C32A N4 1_555 1_555
H25A C32A 1_555 1_555
H26A C32A 1_555 1_555
N2A C21A 1_555 1_555
N3A C21A 1_555 1_555
N4A C32 1_555 1_555
C33A H27A 1_555 1_555
C34A H28A 1_555 1_555
C35A C33A 1_555 1_555
H29A C35A 1_555 1_555
C36A C37A 1_555 1_555
C37A H30A 1_555 1_555
C38A C37A 1_555 1_555
H31A C38A 1_555 1_555
C39A C38A 1_555 1_555
C40A C39A 1_555 1_555
H32A C40A 1_555 1_555
C41A C36A 1_555 1_555
H33A C41A 1_555 1_555
C42A C39A 1_555 1_555
H34A C42A 1_555 1_555
H35A C42A 1_555 1_555
C43A H36A 1_555 1_555
H37A C43A 1_555 1_555
C44A N7 1_555 1_555
H38A C44A 1_555 1_555
H39A C44A 1_555 1_555
N5A C33A 1_555 1_555
N6A C34A 1_555 1_555
N7A C44 1_555 1_555
C1A C2A 1_555 1_555
C2A H1A 1_555 1_555
C3A C2A 1_555 1_555
H2A C3A 1_555 1_555
C4A C3A 1_555 1_555
H3A C4A 1_555 1_555
C5A C4A 1_555 1_555
H4A C5A 1_555 1_555
C6A C1A 1_555 1_555
H5A C6A 1_555 1_555
C7A C11A 1_555 1_555
C8A C9A 1_555 1_555
C9A H6A 1_555 1_555
C10A C9A 1_555 1_555
H7A C10A 1_555 1_555
C11A C10A 1_555 1_555
C12A C11A 1_555 1_555
H8A C12A 1_555 1_555
C13A C8A 1_555 1_555
H9A C13A 1_555 1_555
C14A H10A 1_555 1_555
C15A C14A 1_555 1_555
H11A C15A 1_555 1_555
C16A C15A 1_555 1_555
C17A C16A 1_555 1_555
H12A C17A 1_555 1_555
C18A C17A 1_555 1_555
H13A C18A 1_555 1_555
C19A C14A 1_555 1_555
C20A C16A 1_555 1_555
N1A C1A 1_555 1_555
O1A C7A 1_555 1_555
O2A C7A 1_555 1_555
O3A C20A 1_555 1_555
O4A C20A 1_555 1_555
Zn1A N2A 1_555 1_555
N5A_2 Zn1A 1_555 1_555
O2_2 Zn1 1_555 1_555
O2A_2 Zn1A 1_555 1_555
Zn1_2 O2 1_555 1_555
Zn1A_2 O2A 1_555 1_555
Zn1A_3 N5A 1_555 1_555
C5 C6 1_555 1_555
C8 N1 1_555 1_555
C12 C13 1_555 1_555
C18 C19 1_555 1_555
C19 N1 1_555 1_555
C22 N2 1_555 1_555
C23 N3 1_555 1_555
C24 N3 1_555 1_555
C27 C28 1_555 1_555
C27 C29 1_555 1_555
C31 N4 1_555 1_555
C34 N5 1_555 1_555
C35 N6 1_555 1_555
C36 N6 1_555 1_555
C40 C41 1_555 1_555
C43 N7 1_555 1_555
N5 Zn1 1_555 1_555
O4 Zn1 1_555 1_555
C22A N2A 1_555 1_555
C23A N3A 1_555 1_555
C24A N3A 1_555 1_555
C27A C28A 1_555 1_555
C27A C29A 1_555 1_555
C30A N4A 1_555 1_555
C31A C32A 1_555 1_555
C31A N4A 1_555 1_555
C34A N5A 1_555 1_555
C35A N6A 1_555 1_555
C36A N6A 1_555 1_555
C40A C41A 1_555 1_555
C42A N7A 1_555 1_555
C43A C44A 1_555 1_555
C43A N7A 1_555 1_555
C5A C6A 1_555 1_555
C8A N1A 1_555 1_555
C12A C13A 1_555 1_555
C18A C19A 1_555 1_555
C19A N1A 1_555 1_555
O4A Zn1A 1_555 1_555

#END
