
#######################################################################
#
#                 Cambridge Crystallographic Data Centre
#                                CCDC 
#
#######################################################################
#
# If this CIF has been generated from an entry in the Cambridge 
# Structural Database, then it will include bibliographic, chemical, 
# crystal, experimental, refinement or atomic coordinate data resulting 
# from the CCDC's data processing and validation procedures.
#
#######################################################################

data_OHANES
_symmetry_cell_setting           triclinic
_symmetry_space_group_name_H-M   'P -1'
_symmetry_Int_Tables_number      2
_space_group_name_Hall           '-P 1'
loop_
_symmetry_equiv_pos_site_id
_symmetry_equiv_pos_as_xyz
1 x,y,z
2 -x,-y,-z
_cell_length_a                   14.3887(18)
_cell_length_b                   15.538(2)
_cell_length_c                   17.003(2)
_cell_angle_alpha                87.718(3)
_cell_angle_beta                 65.714(2)
_cell_angle_gamma                76.845(3)
_cell_volume                     3367.85
loop_
_atom_site_label
_atom_site_type_symbol
_atom_site_fract_x
_atom_site_fract_y
_atom_site_fract_z
C1 C 0.1664(8) 0.8023(9) 1.1894(7)
C2 C 0.0462(5) 0.8418(7) 1.2316(5)
C3 C -0.0250(7) 0.7883(6) 1.2682(8)
H1 H -0.0007 0.7276 1.2694
C4 C 0.0093(5) 0.9301(6) 1.2351(5)
H2 H 0.0560 0.9667 1.2144
C5 C -0.0980(5) 0.9670(5) 1.2693(5)
H3 H -0.1229 1.0278 1.2698
C6 C -0.1305(6) 0.8249(5) 1.3022(6)
H4 H -0.1773 0.7885 1.3254
C7 C -0.1675(5) 0.9123(5) 1.3027(4)
C8 C -0.3901(7) 1.1816(6) 1.4962(5)
H5 H -0.4124 1.2334 1.5310
C9 C -0.3131(6) 1.1135(6) 1.5001(5)
H6 H -0.2829 1.1191 1.5381
C10 C -0.4333(6) 1.1716(5) 1.4401(5)
H7 H -0.4863 1.2172 1.4375
C11 C -0.2802(5) 1.0379(5) 1.4494(4)
H8 H -0.2288 0.9921 1.4541
C12 C -0.4005(5) 1.0952(5) 1.3865(4)
H9 H -0.4307 1.0896 1.3486
C13 C -0.3214(4) 1.0276(4) 1.3911(4)
C14 C -0.3315(4) 0.9222(4) 1.2902(4)
C15 C -0.2802(5) 0.9026(5) 1.2019(4)
H10 H -0.2117 0.9089 1.1729
C16 C -0.4345(5) 0.9149(5) 1.3313(4)
H11 H -0.4716 0.9288 1.3904
C17 C -0.3279(5) 0.8742(5) 1.1566(4)
H12 H -0.2907 0.8603 1.0975
C18 C -0.4814(5) 0.8871(5) 1.2845(4)
H13 H -0.5506 0.8824 1.3128
C19 C -0.4288(5) 0.8656(4) 1.1960(4)
C20 C -0.4771(5) 0.8323(4) 1.1439(4)
C21 C -0.5041(5) 0.8446(4) 0.9360(4)
H14 H -0.4565 0.8576 0.9550
C22 C -0.6368(5) 0.8069(5) 0.9332(4)
H15 H -0.6996 0.7893 0.9506
C23 C -0.5785(5) 0.8251(5) 0.8522(4)
H16 H -0.5927 0.8212 0.8039
C24 C -0.4096(5) 0.8750(4) 0.7832(4)
C25 C -0.3675(5) 0.9412(5) 0.7963(4)
H17 H -0.3956 0.9712 0.8503
C26 C -0.3693(5) 0.8299(5) 0.7041(4)
H18 H -0.3974 0.7846 0.6958
C27 C -0.2833(5) 0.9629(5) 0.7290(4)
H19 H -0.2548 1.0081 0.7370
C28 C -0.2860(6) 0.8534(5) 0.6371(4)
H20 H -0.2595 0.8255 0.5823
C29 C -0.2426(5) 0.9179(5) 0.6513(4)
C30 C -0.0659(5) 0.8842(4) 0.5416(4)
C31 C -0.0037(5) 0.8999(5) 0.4591(4)
H21 H -0.0260 0.9486 0.4324
C32 C -0.0315(6) 0.8144(6) 0.5821(5)
H22 H -0.0724 0.8057 0.6392
C33 C 0.0919(5) 0.8431(5) 0.4161(4)
H23 H 0.1345 0.8540 0.3601
C34 C 0.0645(6) 0.7571(5) 0.5374(5)
H24 H 0.0876 0.7088 0.5642
C35 C 0.1257(5) 0.7709(4) 0.4538(4)
C36 C 0.3133(5) 0.7272(5) 0.3446(4)
H25 H 0.3248 0.7822 0.3251
C37 C 0.3816(5) 0.6480(5) 0.3184(4)
H26 H 0.4502 0.6401 0.2771
C38 C 0.2412(5) 0.6217(5) 0.4136(4)
H27 H 0.1923 0.5926 0.4516
C39 C 0.4401(5) 0.4147(5) 0.4994(4)
H28 H 0.5087 0.4197 0.4680
C40 C 0.3961(5) 0.4069(5) 0.5859(4)
H29 H 0.4273 0.4068 0.6241
C41 C 0.2851(5) 0.4029(5) 0.5305(4)
H30 H 0.2246 0.3979 0.5254
C42 C 0.2184(5) 0.3912(4) 0.6895(4)
C43 C 0.1153(5) 0.4310(4) 0.7107(4)
H31 H 0.0957 0.4621 0.6700
C44 C 0.2486(5) 0.3431(4) 0.7491(4)
H32 H 0.3183 0.3144 0.7341
C45 C 0.0403(5) 0.4251(4) 0.7926(4)
H33 H -0.0299 0.4514 0.8065
C46 C 0.1736(5) 0.3388(5) 0.8309(4)
H34 H 0.1932 0.3074 0.8715
C47 C 0.0694(5) 0.3803(4) 0.8537(4)
C48 C -0.1036(5) 0.4137(5) 0.9645(4)
C49 C -0.1343(5) 0.5016(5) 0.9892(4)
H35 H -0.0845 0.5336 0.9826
C50 C -0.1753(5) 0.3658(5) 0.9721(4)
H36 H -0.1536 0.3057 0.9554
C51 C -0.2392(5) 0.5430(5) 1.0239(4)
H37 H -0.2608 0.6025 1.0427
C52 C -0.2808(5) 0.4078(5) 1.0048(4)
H38 H -0.3302 0.3761 1.0091
C53 C -0.3121(4) 0.4955(4) 1.0305(4)
C54 C -0.5077(5) 0.5057(4) 1.1100(4)
H39 H -0.5079 0.4476 1.1254
C55 C -0.5922(5) 0.5745(4) 1.1288(4)
H40 H -0.6616 0.5711 1.1596
C56 C -0.4562(5) 0.6268(4) 1.0565(4)
H41 H -0.4133 0.6651 1.0283
C57 C 0.2513(6) 0.4027(5) 0.3028(5)
C58 C 0.1967(5) 0.3691(4) 0.2566(4)
C59 C 0.2503(5) 0.3267(5) 0.1748(4)
H42 H 0.3222 0.3215 0.1463
C60 C 0.0906(5) 0.3753(4) 0.2967(4)
H43 H 0.0529 0.4032 0.3517
C61 C 0.2000(4) 0.2920(4) 0.1347(4)
H44 H 0.2377 0.2643 0.0796
C62 C 0.0388(4) 0.3415(4) 0.2577(4)
H45 H -0.0333 0.3476 0.2860
C63 C 0.0929(4) 0.2984(4) 0.1767(4)
C64 C 0.1513(7) 0.0158(6) 0.0043(7)
H46 H 0.1740 -0.0400 -0.0240
C65 C 0.0794(6) 0.0791(6) -0.0117(5)
H47 H 0.0526 0.0670 -0.0503
C66 C 0.1905(7) 0.0329(6) 0.0615(6)
H48 H 0.2411 -0.0107 0.0702
C67 C 0.0469(5) 0.1625(5) 0.0309(4)
H49 H 0.0006 0.2073 0.0185
C68 C 0.1561(5) 0.1134(5) 0.1059(5)
H50 H 0.1817 0.1241 0.1458
C69 C 0.0826(5) 0.1794(4) 0.0913(4)
C70 C -0.0724(4) 0.2917(4) 0.1728(4)
C71 C -0.1363(5) 0.2332(5) 0.2100(5)
H51 H -0.1059 0.1742 0.2128
C72 C -0.1193(5) 0.3775(4) 0.1691(4)
H52 H -0.0781 0.4177 0.1438
C73 C -0.2421(5) 0.2605(5) 0.2424(5)
H53 H -0.2832 0.2202 0.2677
C74 C -0.2265(5) 0.4055(5) 0.2024(4)
H54 H -0.2571 0.4647 0.2007
C75 C -0.2892(5) 0.3464(5) 0.2384(4)
C76 C -0.4071(5) 0.3738(6) 0.2751(4)
N1 N -0.2781(4) 0.9491(4) 1.3355(3)
N2 N -0.5891(4) 0.8185(3) 0.9862(3)
N3 N -0.4941(4) 0.8504(3) 0.8541(3)
N4 N 0.2219(4) 0.7090(4) 0.4073(3)
N5 N 0.3377(4) 0.5804(4) 0.3601(3)
N6 N -0.5595(4) 0.6505(3) 1.0951(3)
N7 N -0.4209(4) 0.5400(3) 1.0632(3)
N8 N 0.2963(4) 0.3993(4) 0.6053(3)
N9 N 0.3708(4) 0.4143(4) 0.4650(3)
N10 N 0.0390(4) 0.2617(3) 0.1391(3)
O1 O 0.1926(6) 0.7191(7) 1.1985(8)
O2 O 0.2215(5) 0.8485(6) 1.1683(5)
O3 O -0.5743(3) 0.8323(3) 1.1819(3)
O4 O -0.4203(4) 0.8063(3) 1.0677(3)
O5 O -0.1610(4) 0.9452(3) 0.5824(3)
O6 O 0.0010(3) 0.3699(3) 0.9363(3)
O7 O 0.2010(4) 0.4346(4) 0.3787(4)
O8 O 0.3485(4) 0.3983(3) 0.2627(3)
O9 O -0.4597(4) 0.3169(4) 0.2972(3)
O10 O -0.4481(4) 0.4550(4) 0.2829(3)
Zn1 Zn -0.63034(5) 0.78176(5) 1.11106(4)
Zn2 Zn 0.39695(5) 0.44596(5) 0.34144(4)
O2_2 O -0.7785(5) 0.8485(6) 1.1683(5)
O9_2 O 0.5403(4) 0.3169(4) 0.2972(3)
O10_2 O 0.5519(4) 0.4550(4) 0.2829(3)
Zn1_2 Zn 0.36966(5) 0.78176(5) 1.11106(4)
Zn2_2 Zn -0.60305(5) 0.44596(5) 0.34144(4)
O11 O -0.0563(13) 0.590(2) 0.4669(8)
O12 O 0.0920(14) 0.5964(13) 0.3346(12)
loop_
_geom_bond_atom_site_label_1
_geom_bond_atom_site_label_2
_geom_bond_site_symmetry_1
_geom_bond_site_symmetry_2
C1 C2 1_555 1_555
C2 C3 1_555 1_555
C3 H1 1_555 1_555
C4 C2 1_555 1_555
H2 C4 1_555 1_555
C5 C4 1_555 1_555
H3 C5 1_555 1_555
C6 C3 1_555 1_555
H4 C6 1_555 1_555
C7 C5 1_555 1_555
C8 H5 1_555 1_555
C9 C8 1_555 1_555
H6 C9 1_555 1_555
C10 C8 1_555 1_555
H7 C10 1_555 1_555
C11 C9 1_555 1_555
H8 C11 1_555 1_555
C12 C10 1_555 1_555
H9 C12 1_555 1_555
C13 C11 1_555 1_555
C14 C15 1_555 1_555
C15 H10 1_555 1_555
C16 C14 1_555 1_555
H11 C16 1_555 1_555
C17 C15 1_555 1_555
H12 C17 1_555 1_555
C18 C16 1_555 1_555
H13 C18 1_555 1_555
C19 C17 1_555 1_555
C20 C19 1_555 1_555
C21 H14 1_555 1_555
C22 H15 1_555 1_555
C23 C22 1_555 1_555
H16 C23 1_555 1_555
C24 C25 1_555 1_555
C25 H17 1_555 1_555
C26 C24 1_555 1_555
H18 C26 1_555 1_555
C27 C25 1_555 1_555
H19 C27 1_555 1_555
C28 C26 1_555 1_555
H20 C28 1_555 1_555
C29 C27 1_555 1_555
C30 C31 1_555 1_555
C31 H21 1_555 1_555
C32 C30 1_555 1_555
H22 C32 1_555 1_555
C33 C31 1_555 1_555
H23 C33 1_555 1_555
C34 C32 1_555 1_555
H24 C34 1_555 1_555
C35 C33 1_555 1_555
C36 H25 1_555 1_555
C37 C36 1_555 1_555
H26 C37 1_555 1_555
C38 H27 1_555 1_555
C39 H28 1_555 1_555
C40 C39 1_555 1_555
H29 C40 1_555 1_555
C41 H30 1_555 1_555
C42 C43 1_555 1_555
C43 H31 1_555 1_555
C44 C42 1_555 1_555
H32 C44 1_555 1_555
C45 C43 1_555 1_555
H33 C45 1_555 1_555
C46 C44 1_555 1_555
H34 C46 1_555 1_555
C47 C45 1_555 1_555
C48 C49 1_555 1_555
C49 H35 1_555 1_555
C50 C48 1_555 1_555
H36 C50 1_555 1_555
C51 C49 1_555 1_555
H37 C51 1_555 1_555
C52 C50 1_555 1_555
H38 C52 1_555 1_555
C53 C51 1_555 1_555
C54 H39 1_555 1_555
C55 C54 1_555 1_555
H40 C55 1_555 1_555
C56 H41 1_555 1_555
C57 C58 1_555 1_555
C58 C59 1_555 1_555
C59 H42 1_555 1_555
C60 C58 1_555 1_555
H43 C60 1_555 1_555
C61 C59 1_555 1_555
H44 C61 1_555 1_555
C62 C60 1_555 1_555
H45 C62 1_555 1_555
C63 C61 1_555 1_555
C64 H46 1_555 1_555
C65 C64 1_555 1_555
H47 C65 1_555 1_555
C66 C64 1_555 1_555
H48 C66 1_555 1_555
C67 C65 1_555 1_555
H49 C67 1_555 1_555
C68 C66 1_555 1_555
H50 C68 1_555 1_555
C69 C67 1_555 1_555
C70 C71 1_555 1_555
C71 H51 1_555 1_555
C72 C70 1_555 1_555
H52 C72 1_555 1_555
C73 C71 1_555 1_555
H53 C73 1_555 1_555
C74 C72 1_555 1_555
H54 C74 1_555 1_555
C75 C73 1_555 1_555
C76 C75 1_555 1_555
N1 C7 1_555 1_555
N2 C21 1_555 1_555
N3 C21 1_555 1_555
N4 C35 1_555 1_555
N5 C37 1_555 1_555
N6 C55 1_555 1_555
N7 C53 1_555 1_555
N8 C40 1_555 1_555
N9 C39 1_555 1_555
N10 C63 1_555 1_555
O1 C1 1_555 1_555
O2 C1 1_555 1_555
O3 C20 1_555 1_555
O4 C20 1_555 1_555
O5 C29 1_555 1_555
O6 C47 1_555 1_555
O7 C57 1_555 1_555
O8 C57 1_555 1_555
O9 C76 1_555 1_555
O10 C76 1_555 1_555
Zn1 N2 1_555 1_555
Zn2 N5 1_555 1_555
O2_2 Zn1 1_555 1_555
O9_2 Zn2 1_555 1_555
O10_2 Zn2 1_555 1_555
Zn1_2 O2 1_555 1_555
Zn2_2 O9 1_555 1_555
C6 C7 1_555 1_555
C12 C13 1_555 1_555
C13 N1 1_555 1_555
C14 N1 1_555 1_555
C18 C19 1_555 1_555
C22 N2 1_555 1_555
C23 N3 1_555 1_555
C24 N3 1_555 1_555
C28 C29 1_555 1_555
C30 O5 1_555 1_555
C34 C35 1_555 1_555
C36 N4 1_555 1_555
C38 N4 1_555 1_555
C38 N5 1_555 1_555
C41 N8 1_555 1_555
C41 N9 1_555 1_555
C42 N8 1_555 1_555
C46 C47 1_555 1_555
C48 O6 1_555 1_555
C52 C53 1_555 1_555
C54 N7 1_555 1_555
C56 N6 1_555 1_555
C56 N7 1_555 1_555
C62 C63 1_555 1_555
C68 C69 1_555 1_555
C69 N10 1_555 1_555
C70 N10 1_555 1_555
C74 C75 1_555 1_555
N6 Zn1 1_555 1_555
N9 Zn2 1_555 1_555
O3 Zn1 1_555 1_555
O8 Zn2 1_555 1_555
O10 Zn2_2 1_555 1_555

#END
