
#######################################################################
#
#                 Cambridge Crystallographic Data Centre
#                                CCDC 
#
#######################################################################
#
# If this CIF has been generated from an entry in the Cambridge 
# Structural Database, then it will include bibliographic, chemical, 
# crystal, experimental, refinement or atomic coordinate data resulting 
# from the CCDC's data processing and validation procedures.
#
#######################################################################

data_OHAPOD
_symmetry_cell_setting           triclinic
_symmetry_space_group_name_H-M   'P 1'
_symmetry_Int_Tables_number      1
_space_group_name_Hall           'P 1'
loop_
_symmetry_equiv_pos_site_id
_symmetry_equiv_pos_as_xyz
1 x,y,z
_cell_length_a                   8.3080(11)
_cell_length_b                   9.3858(13)
_cell_length_c                   9.4912(13)
_cell_angle_alpha                104.358(2)
_cell_angle_beta                 90.672(2)
_cell_angle_gamma                104.581(2)
_cell_volume                     691.715
loop_
_atom_site_label
_atom_site_type_symbol
_atom_site_fract_x
_atom_site_fract_y
_atom_site_fract_z
Cu1 Cu 0.60961(13) 0.74455(13) -0.20622(12)
N1 N 0.8273(6) 0.8423(5) -0.2739(5)
C1 C 0.3462(7) 0.5103(7) -0.1188(7)
H1 H 0.4098 0.4401 -0.1382
N2 N 0.3895(6) 0.6453(6) -0.1390(6)
N3 N 0.7145(7) 0.7889(6) -1.0055(6)
N4 N 0.5016(7) 0.6984(6) 0.5889(6)
C2 C 0.0976(7) 0.4263(7) 0.2431(7)
C3 C 0.0922(7) 0.3424(6) -0.0326(6)
H2 H 0.1668 0.2800 -0.0237
H3 H 0.0097 0.2861 -0.1134
C4 C -0.1655(7) 0.3500(8) 0.1009(7)
H4 H -0.2282 0.3126 0.0114
C5 C 1.1145(8) 1.0576(7) -0.6561(6)
C6 C 1.2048(7) 1.1122(6) -0.5217(6)
C7 C -0.1506(10) 0.4357(9) 0.3589(8)
H5 H -0.2034 0.4591 0.4442
C8 C 0.2619(9) 0.7162(9) -0.0978(8)
H6 H 0.2612 0.8148 -0.0992
C9 C 1.3789(9) 1.0537(9) -0.7724(8)
H7 H 1.4361 1.0356 -0.8559
C10 C 1.3778(8) 1.1362(7) -0.5115(6)
H8 H 1.4364 1.1717 -0.4201
C11 C -0.2441(9) 0.3807(9) 0.2281(9)
H9 H -0.3594 0.3642 0.2248
C12 C 1.1242(7) 1.1420(7) -0.3775(6)
H10 H 1.2107 1.1955 -0.2992
H11 H 1.0515 1.2076 -0.3809
C13 C 0.0060(7) 0.3746(6) 0.1059(5)
C14 C 1.1991(8) 1.0259(9) -0.7828(7)
H12 H 1.1394 0.9869 -0.8736
C15 C 0.0115(10) 0.4561(9) 0.3669(7)
H13 H 0.0705 0.4916 0.4580
C16 C 1.4638(8) 1.1080(8) -0.6352(8)
H14 H 1.5792 1.1256 -0.6261
N5 N 1.0276(7) 1.0026(6) -0.3452(6)
N6 N 0.1881(7) 0.4852(7) -0.0628(6)
N7 N 0.8460(6) 0.9214(6) -0.7843(5)
C17 C 0.7840(8) 0.9248(7) -0.9138(7)
H15 H 0.7889 1.0157 -0.9383
C18 C 0.7324(9) 0.6865(8) -0.9260(8)
H16 H 0.6967 0.5809 -0.9594
C19 C 0.2893(8) 0.4445(8) 0.2553(7)
H17 H 0.3099 0.3520 0.2705
H18 H 0.3343 0.4587 0.1645
C20 C 0.4865(9) 0.7997(8) 0.5148(8)
H19 H 0.5252 0.9050 0.5489
C21 C 0.4047(8) 0.7226(7) 0.3808(7)
H20 H 0.3749 0.7633 0.3076
C22 C 0.9332(8) 1.0436(9) -0.6689(7)
H21 H 0.8873 1.0301 -0.5781
H22 H 0.9160 1.1377 -0.6832
C23 C 1.0790(10) 0.8714(10) -0.3541(10)
H23 H 1.1791 0.8521 -0.3849
C24 C 0.1380(9) 0.6122(9) -0.0549(10)
H24 H 0.0359 0.6271 -0.0252
N8 N 0.3781(7) 0.5782(7) 0.3792(6)
C25 C 0.8828(7) 0.9807(6) -0.3004(6)
H25 H 0.8210 1.0524 -0.2871
C26 C 0.9530(9) 0.7791(8) -0.3087(8)
H26 H 0.9528 0.6818 -0.3021
C27 C 0.4352(7) 0.5615(7) 0.5052(5)
H27 H 0.4289 0.4698 0.5287
C28 C 0.8086(9) 0.7632(9) -0.7947(8)
H28 H 0.8332 0.7198 -0.7217
N9 N 0.7352(7) 0.3925(6) -0.2960(6)
N10 N 0.4848(7) 1.0946(8) -0.1189(6)
N11 N 0.5544(10) 1.0035(8) -0.1441(9)
N12 N 0.6603(9) 0.4835(8) -0.2716(8)
N13 N 0.4188(11) 1.1941(10) -0.0866(11)
N14 N 0.8115(12) 0.3030(12) -0.3252(11)
Cu1_2 Cu 0.60961(13) 0.74455(13) -1.20622(12)
Cu1_3 Cu 0.60961(13) 0.74455(13) 0.79378(12)
N3_2 N 0.7145(7) 0.7889(6) -0.0055(6)
N4_2 N 0.5016(7) 0.6984(6) -0.4111(6)
loop_
_geom_bond_atom_site_label_1
_geom_bond_atom_site_label_2
_geom_bond_site_symmetry_1
_geom_bond_site_symmetry_2
Cu1 N1 1_555 1_555
N1 C25 1_555 1_555
C1 H1 1_555 1_555
N2 Cu1 1_555 1_555
N3 C17 1_555 1_555
N4 C20 1_555 1_555
C2 C13 1_555 1_555
C3 H2 1_555 1_555
H3 C3 1_555 1_555
C4 H4 1_555 1_555
C5 C6 1_555 1_555
C6 C10 1_555 1_555
C7 H5 1_555 1_555
C8 N2 1_555 1_555
H6 C8 1_555 1_555
C9 H7 1_555 1_555
C10 H8 1_555 1_555
C11 C4 1_555 1_555
H9 C11 1_555 1_555
C12 C6 1_555 1_555
H10 C12 1_555 1_555
H11 C12 1_555 1_555
C13 C3 1_555 1_555
C14 C5 1_555 1_555
H12 C14 1_555 1_555
C15 C2 1_555 1_555
H13 C15 1_555 1_555
C16 C9 1_555 1_555
H14 C16 1_555 1_555
N5 C12 1_555 1_555
N6 C1 1_555 1_555
N7 C17 1_555 1_555
C17 H15 1_555 1_555
C18 N3 1_555 1_555
H16 C18 1_555 1_555
C19 C2 1_555 1_555
H17 C19 1_555 1_555
H18 C19 1_555 1_555
C20 H19 1_555 1_555
C21 C20 1_555 1_555
H20 C21 1_555 1_555
C22 C5 1_555 1_555
H21 C22 1_555 1_555
H22 C22 1_555 1_555
C23 N5 1_555 1_555
H23 C23 1_555 1_555
C24 C8 1_555 1_555
H24 C24 1_555 1_555
N8 C19 1_555 1_555
C25 N5 1_555 1_555
H25 C25 1_555 1_555
C26 N1 1_555 1_555
H26 C26 1_555 1_555
C27 N4 1_555 1_555
H27 C27 1_555 1_555
C28 N7 1_555 1_555
H28 C28 1_555 1_555
N9 N12 1_555 1_555
N10 N11 1_555 1_555
N11 Cu1 1_555 1_555
N12 Cu1 1_555 1_555
N13 N10 1_555 1_555
N14 N9 1_555 1_555
Cu1_2 N3 1_555 1_555
Cu1_3 N4 1_555 1_555
N3_2 Cu1 1_555 1_555
N4_2 Cu1 1_555 1_555
C1 N2 1_555 1_555
C3 N6 1_555 1_555
C4 C13 1_555 1_555
C7 C11 1_555 1_555
C7 C15 1_555 1_555
C9 C14 1_555 1_555
C10 C16 1_555 1_555
N6 C24 1_555 1_555
N7 C22 1_555 1_555
C18 C28 1_555 1_555
C21 N8 1_555 1_555
C23 C26 1_555 1_555
N8 C27 1_555 1_555

#END
