
#######################################################################
#
#                 Cambridge Crystallographic Data Centre
#                                CCDC 
#
#######################################################################
#
# If this CIF has been generated from an entry in the Cambridge 
# Structural Database, then it will include bibliographic, chemical, 
# crystal, experimental, refinement or atomic coordinate data resulting 
# from the CCDC's data processing and validation procedures.
#
#######################################################################

data_OHAPUJ
_symmetry_cell_setting           triclinic
_symmetry_space_group_name_H-M   'P -1'
_symmetry_Int_Tables_number      2
_space_group_name_Hall           '-P 1'
loop_
_symmetry_equiv_pos_site_id
_symmetry_equiv_pos_as_xyz
1 x,y,z
2 -x,-y,-z
_cell_length_a                   7.4147(15)
_cell_length_b                   9.996(2)
_cell_length_c                   13.126(3)
_cell_angle_alpha                71.03(3)
_cell_angle_beta                 82.94(3)
_cell_angle_gamma                69.76(3)
_cell_volume                     863.157
loop_
_atom_site_label
_atom_site_type_symbol
_atom_site_fract_x
_atom_site_fract_y
_atom_site_fract_z
Ag1 Ag 1.28122(4) 1.02284(3) -0.03434(2)
N1 N 1.2519(4) 0.8535(3) 0.1132(2)
C1 C 1.1634(5) 0.8885(4) 0.2002(3)
H1 H 1.0955 0.9884 0.1935
C2 C 1.1550(5) 0.3358(4) 0.7991(3)
H2 H 1.0860 0.3611 0.8581
C3 C 1.3577(5) 0.1599(4) 0.7255(3)
H3 H 1.4345 0.0615 0.7331
C4 C 1.2690(5) 0.6335(3) 0.3126(2)
C5 C 1.3454(5) 0.2639(4) 0.6254(3)
H4 H 1.4107 0.2349 0.5669
C6 C 1.1674(5) 0.7844(4) 0.2990(3)
H5 H 1.1023 0.8144 0.3572
C7 C 1.3463(6) 0.7088(4) 0.1252(3)
H6 H 1.4073 0.6816 0.0652
C8 C 1.1394(5) 0.4465(4) 0.7025(3)
H7 H 1.0643 0.5444 0.6979
C9 C 1.2863(5) 0.5146(4) 0.4159(3)
H8 H 1.3546 0.4173 0.4154
C10 C 1.2348(5) 0.4133(4) 0.6118(2)
C11 C 1.2145(5) 0.5327(4) 0.5088(3)
H9 H 1.1447 0.6297 0.5095
C12 C 1.3578(6) 0.5984(4) 0.2217(3)
H10 H 1.4260 0.4994 0.2257
N2 N 1.2638(4) 0.1937(3) 0.8130(2)
Ag1_2 Ag 1.28122(4) 0.02284(3) 0.96566(2)
N2_2 N 1.2638(4) 1.1937(3) -0.1870(2)
O1 O 0.5222(3) 0.6815(2) -0.11706(17)
O3 O 0.6348(4) 0.8612(3) -0.1179(2)
C13 C 1.0060(4) 0.6377(3) -0.0659(2)
H12 H 1.0107 0.7304 -0.1100
C15 C 0.6512(4) 0.7282(4) -0.1006(2)
C16 C 1.1718(4) 0.5297(3) -0.0169(2)
H14 H 1.2869 0.5505 -0.0289
C18 C 0.8320(4) 0.6088(3) -0.0497(2)
O1A O 1.4778(3) 0.3185(2) 0.11706(17)
O3A O 1.3652(4) 0.1388(3) 0.1179(2)
C13A C 0.9940(4) 0.3623(3) 0.0659(2)
H12A H 0.9893 0.2696 0.1100
C15A C 1.3488(4) 0.2718(4) 0.1006(2)
C16A C 0.8282(4) 0.4703(3) 0.0169(2)
H14A H 0.7131 0.4495 0.0289
C18A C 1.1680(4) 0.3912(3) 0.0497(2)
O2 O 0.2556(3) 0.8274(3) -0.24659(18)
H11 H 0.3504 0.7873 -0.2080
O4 O 0.4771(3) 0.8295(3) -0.3777(2)
C14 C -0.0299(5) 0.9093(3) -0.3983(3)
H13 H -0.0500 0.8485 -0.3304
C17 C 0.3104(4) 0.8569(3) -0.3475(3)
C19 C -0.1774(4) 0.9790(4) -0.4727(3)
H15 H -0.2963 0.9650 -0.4544
C20 C 0.1478(4) 0.9302(3) -0.4253(2)
O2A O -0.2556(3) 1.1726(3) -0.75341(18)
H11A H -0.3504 1.2127 -0.7920
O4A O -0.4771(3) 1.1705(3) -0.6223(2)
C14A C 0.0299(5) 1.0907(3) -0.6017(3)
H13A H 0.0500 1.1515 -0.6696
C17A C -0.3104(4) 1.1431(3) -0.6525(3)
C19A C 0.1774(4) 1.0210(4) -0.5273(3)
H15A H 0.2963 1.0350 -0.5456
C20A C -0.1478(4) 1.0698(3) -0.5747(2)
loop_
_geom_bond_atom_site_label_1
_geom_bond_atom_site_label_2
_geom_bond_site_symmetry_1
_geom_bond_site_symmetry_2
Ag1 N1 1_555 1_555
N1 C1 1_555 1_555
C1 H1 1_555 1_555
C2 H2 1_555 1_555
C3 H3 1_555 1_555
C4 C6 1_555 1_555
C5 C3 1_555 1_555
H4 C5 1_555 1_555
C6 C1 1_555 1_555
H5 C6 1_555 1_555
C7 N1 1_555 1_555
H6 C7 1_555 1_555
C8 C2 1_555 1_555
H7 C8 1_555 1_555
C9 C4 1_555 1_555
H8 C9 1_555 1_555
C10 C5 1_555 1_555
C11 C9 1_555 1_555
H9 C11 1_555 1_555
C12 C4 1_555 1_555
H10 C12 1_555 1_555
N2 C2 1_555 1_555
O1 C15 1_555 1_555
O2 H11 1_555 1_555
O3 C15 1_555 1_555
O4 C17 1_555 1_555
C13 H12 1_555 1_555
C14 H13 1_555 1_555
C15 C18 1_555 1_555
C16 C13 1_555 1_555
H14 C16 1_555 1_555
C17 O2 1_555 1_555
C18 C13 1_555 1_555
C19 C14 1_555 1_555
H15 C19 1_555 1_555
C20 C14 1_555 1_555
Ag1_2 N2 1_555 1_555
N2_2 Ag1 1_555 1_555
O1A C15A 1_555 1_555
O2A H11A 1_555 1_555
O3A C15A 1_555 1_555
O4A C17A 1_555 1_555
C13A H12A 1_555 1_555
C14A H13A 1_555 1_555
C15A C18A 1_555 1_555
C16A C18 1_555 1_555
H14A C16A 1_555 1_555
C17A O2A 1_555 1_555
C18A C16 1_555 1_555
C19A C20 1_555 1_555
H15A C19A 1_555 1_555
C20A C19 1_555 1_555
C3 N2 1_555 1_555
C7 C12 1_555 1_555
C8 C10 1_555 1_555
C10 C11 1_555 1_555
C17 C20 1_555 1_555
C13A C16A 1_555 1_555
C13A C18A 1_555 1_555
C14A C19A 1_555 1_555
C14A C20A 1_555 1_555
C17A C20A 1_555 1_555

#END
