
#######################################################################
#
#                 Cambridge Crystallographic Data Centre
#                                CCDC 
#
#######################################################################
#
# If this CIF has been generated from an entry in the Cambridge 
# Structural Database, then it will include bibliographic, chemical, 
# crystal, experimental, refinement or atomic coordinate data resulting 
# from the CCDC's data processing and validation procedures.
#
#######################################################################

data_OHAPAQ
_symmetry_cell_setting           orthorhombic
_symmetry_space_group_name_H-M   'P b c a'
_symmetry_Int_Tables_number      61
_space_group_name_Hall           '-P 2ac 2ab'
loop_
_symmetry_equiv_pos_site_id
_symmetry_equiv_pos_as_xyz
1 x,y,z
2 1/2-x,-y,1/2+z
3 -x,1/2+y,1/2-z
4 1/2+x,1/2-y,-z
5 -x,-y,-z
6 1/2+x,y,1/2-z
7 x,1/2-y,1/2+z
8 1/2-x,1/2+y,z
_cell_length_a                   16.668(6)
_cell_length_b                   16.256(6)
_cell_length_c                   28.596(10)
_cell_angle_alpha                90
_cell_angle_beta                 90
_cell_angle_gamma                90
_cell_volume                     7748.23
loop_
_atom_site_label
_atom_site_type_symbol
_atom_site_fract_x
_atom_site_fract_y
_atom_site_fract_z
Zn1 Zn 0.21407(3) 0.27646(3) 0.446162(14)
C1 C 0.1723(3) 0.2206(3) 0.53210(14)
O1 O 0.2473(2) 0.2216(2) 0.53486(10)
O2 O 0.13504(17) 0.23981(18) 0.49408(9)
N1 N 0.3483(2) 0.4580(2) 0.51030(12)
N2 N 0.26847(19) 0.3794(2) 0.46819(12)
C2 C 0.0200(2) 0.1423(3) 0.73851(13)
C3 C 0.0345(3) 0.1545(3) 0.65316(13)
C4 C 0.1227(3) 0.1997(2) 0.57373(13)
N3 N -0.0101(2) 0.1314(2) 0.69219(11)
C5 C 0.0793(2) 0.1616(3) 0.82926(13)
C6 C 0.0894(3) 0.2230(3) 0.79619(13)
H1 H 0.1166 0.2710 0.8040
C7 C 0.0080(3) 0.0813(3) 0.77177(14)
H2 H -0.0198 0.0338 0.7638
C8 C -0.0045(3) 0.1786(3) 0.61176(13)
H3 H -0.0603 0.1800 0.6105
C9 C 0.0586(3) 0.2129(3) 0.75084(14)
H4 H 0.0645 0.2549 0.7290
C10 C 0.3278(3) 0.3806(3) 0.49979(14)
H5 H 0.3515 0.3340 0.5127
C11 C 0.0407(3) 0.2003(2) 0.57278(14)
H6 H 0.0145 0.2155 0.5454
C12 C 0.2518(3) 0.4604(3) 0.45901(16)
H7 H 0.2124 0.4794 0.4387
C13 C 0.1169(3) 0.1534(3) 0.65370(13)
H8 H 0.1435 0.1373 0.6808
C14 C -0.0851(3) 0.0885(3) 0.68635(15)
C15 C 0.0369(3) 0.0909(3) 0.81664(14)
H9 H 0.0280 0.0499 0.8387
C16 C 0.3011(3) 0.5074(3) 0.4839(2)
H10 H 0.3029 0.5646 0.4833
C17 C 0.1610(3) 0.1758(3) 0.61488(13)
H11 H 0.2168 0.1749 0.6162
C18 C 0.4111(3) 0.4835(3) 0.54296(16)
H12 H 0.4225 0.4386 0.5643
H13 H 0.3919 0.5296 0.5613
C19 C -0.2295(5) 0.0100(5) 0.6747(2)
H14 H -0.2786 -0.0161 0.6707
C20 C -0.2241(4) 0.0780(5) 0.7032(2)
H15 H -0.2694 0.0974 0.7187
C21 C -0.0914(4) 0.0228(4) 0.65877(18)
H16 H -0.0464 0.0037 0.6430
C22 C -0.1509(3) 0.1178(4) 0.70897(19)
H17 H -0.1470 0.1640 0.7281
C23 C -0.1654(4) -0.0183(5) 0.6532(2)
H18 H -0.1689 -0.0648 0.6344
N4 N 0.30420(19) 0.1968(2) 0.42983(11)
O3 O 0.16223(18) 0.2264(2) 0.88442(9)
O4 O 0.0966(2) 0.1171(2) 0.90725(11)
C24 C 0.3580(3) 0.1625(3) 0.45593(15)
H19 H 0.3585 0.1673 0.4883
C25 C 0.1161(3) 0.1676(3) 0.87733(14)
C26 C 0.3257(3) 0.1748(3) 0.38542(15)
H20 H 0.2979 0.1893 0.3584
N5 N 0.4124(2) 0.1198(2) 0.43236(12)
C27 C 0.4815(3) 0.0773(3) 0.45074(19)
H21 H 0.5209 0.1176 0.4606
H22 H 0.5053 0.0446 0.4260
C28 C 0.4628(3) 0.0226(3) 0.49076(16)
H23 H 0.4231 -0.0175 0.4811
H24 H 0.4398 0.0552 0.5158
C29 C 0.3926(3) 0.1290(3) 0.38650(16)
H25 H 0.4201 0.1077 0.3609
C30 C 0.4861(4) 0.5076(6) 0.5188(2)
H26 H 0.5185 0.5420 0.5367
N1D N 0.6517(2) 0.5420(2) 0.48970(12)
N2D N 0.73153(19) 0.6206(2) 0.53181(12)
C10D C 0.6722(3) 0.6194(3) 0.50021(14)
H5D H 0.6485 0.6660 0.4873
C12D C 0.7482(3) 0.5396(3) 0.54099(16)
H7D H 0.7876 0.5206 0.5613
C16D C 0.6989(3) 0.4926(3) 0.5161(2)
H10D H 0.6971 0.4354 0.5167
C18D C 0.5889(3) 0.5165(3) 0.45704(16)
H12D H 0.5775 0.5614 0.4357
H13D H 0.6081 0.4704 0.4387
C30D C 0.5139(4) 0.4924(6) 0.4812(2)
H26D H 0.4815 0.4580 0.4633
N4D N 0.69580(19) -0.1968(2) 0.57017(11)
C24D C 0.6420(3) -0.1625(3) 0.54407(15)
H19D H 0.6415 -0.1673 0.5117
C26D C 0.6743(3) -0.1748(3) 0.61458(15)
H20D H 0.7021 -0.1893 0.6416
N5D N 0.5876(2) -0.1198(2) 0.56764(12)
C27D C 0.5185(3) -0.0773(3) 0.54926(19)
H21D H 0.4791 -0.1176 0.5394
H22D H 0.4947 -0.0446 0.5740
C28D C 0.5372(3) -0.0226(3) 0.50924(16)
H23D H 0.5769 0.0175 0.5189
H24D H 0.5602 -0.0552 0.4842
C29D C 0.6074(3) -0.1290(3) 0.61350(16)
H25D H 0.5799 -0.1077 0.6391
Zn1D Zn 0.78593(3) -0.27646(3) 0.553838(14)
C1D C 0.8277(3) -0.2206(3) 0.46790(14)
O1D O 0.7527(2) -0.2216(2) 0.46514(10)
O2D O 0.86496(17) -0.23981(18) 0.50592(9)
C2D C 0.9800(2) -0.1423(3) 0.26149(13)
C3D C 0.9655(3) -0.1545(3) 0.34684(13)
C4D C 0.8773(3) -0.1997(2) 0.42627(13)
N3D N 1.0101(2) -0.1314(2) 0.30781(11)
C5D C 0.9207(2) -0.1616(3) 0.17074(13)
C6D C 0.9106(3) -0.2230(3) 0.20381(13)
H1D H 0.8834 -0.2710 0.1960
C7D C 0.9920(3) -0.0813(3) 0.22823(14)
H2D H 1.0198 -0.0338 0.2362
C8D C 1.0045(3) -0.1786(3) 0.38824(13)
H3D H 1.0603 -0.1800 0.3895
C9D C 0.9414(3) -0.2129(3) 0.24916(14)
H4D H 0.9355 -0.2549 0.2710
C11D C 0.9593(3) -0.2003(2) 0.42722(14)
H6D H 0.9855 -0.2155 0.4546
C13D C 0.8831(3) -0.1534(3) 0.34630(13)
H8D H 0.8565 -0.1373 0.3192
C14D C 1.0851(3) -0.0885(3) 0.31365(15)
C15D C 0.9631(3) -0.0909(3) 0.18336(14)
H9D H 0.9720 -0.0499 0.1613
C17D C 0.8390(3) -0.1758(3) 0.38512(13)
H11D H 0.7832 -0.1749 0.3838
C19D C 1.2295(5) -0.0100(5) 0.3253(2)
H14D H 1.2786 0.0161 0.3293
C20D C 1.2241(4) -0.0780(5) 0.2968(2)
H15D H 1.2694 -0.0974 0.2813
C21D C 1.0914(4) -0.0228(4) 0.34123(18)
H16D H 1.0464 -0.0037 0.3570
C22D C 1.1509(3) -0.1178(4) 0.29103(19)
H17D H 1.1470 -0.1640 0.2719
C23D C 1.1654(4) 0.0183(5) 0.3468(2)
H18D H 1.1689 0.0648 0.3656
O3D O 0.83777(18) -0.2264(2) 0.11558(9)
O4D O 0.9034(2) -0.1171(2) 0.09275(11)
C25D C 0.8839(3) -0.1676(3) 0.12267(14)
Zn1B Zn 0.78593(3) -0.22354(3) 0.053838(14)
Zn1D_2 Zn 0.78593(3) 0.72354(3) 0.553838(14)
Zn1F Zn 0.21407(3) 0.22354(3) 0.946162(14)
N2D_2 N 0.73153(19) -0.3794(2) 0.53181(12)
O3B O 0.83777(18) -0.2736(2) 0.61558(9)
O3F O 0.16223(18) 0.2736(2) 0.38442(9)
loop_
_geom_bond_atom_site_label_1
_geom_bond_atom_site_label_2
_geom_bond_site_symmetry_1
_geom_bond_site_symmetry_2
Zn1 O2 1_555 1_555
C1 O1 1_555 1_555
O2 C1 1_555 1_555
N1 C10 1_555 1_555
N2 Zn1 1_555 1_555
C2 N3 1_555 1_555
C3 N3 1_555 1_555
C4 C1 1_555 1_555
N3 C14 1_555 1_555
C5 C6 1_555 1_555
C6 H1 1_555 1_555
C7 C2 1_555 1_555
H2 C7 1_555 1_555
C8 C3 1_555 1_555
H3 C8 1_555 1_555
C9 C2 1_555 1_555
H4 C9 1_555 1_555
C10 N2 1_555 1_555
H5 C10 1_555 1_555
C11 C4 1_555 1_555
H6 C11 1_555 1_555
C12 N2 1_555 1_555
H7 C12 1_555 1_555
C13 C3 1_555 1_555
H8 C13 1_555 1_555
C14 C21 1_555 1_555
C15 C5 1_555 1_555
H9 C15 1_555 1_555
C16 N1 1_555 1_555
H10 C16 1_555 1_555
C17 C4 1_555 1_555
H11 C17 1_555 1_555
C18 N1 1_555 1_555
H12 C18 1_555 1_555
H13 C18 1_555 1_555
C19 H14 1_555 1_555
C20 C19 1_555 1_555
H15 C20 1_555 1_555
C21 H16 1_555 1_555
C22 C14 1_555 1_555
H17 C22 1_555 1_555
C23 C19 1_555 1_555
H18 C23 1_555 1_555
N4 Zn1 1_555 1_555
O3 C25 1_555 1_555
O4 C25 1_555 1_555
C24 N4 1_555 1_555
H19 C24 1_555 1_555
C25 C5 1_555 1_555
C26 N4 1_555 1_555
H20 C26 1_555 1_555
N5 C24 1_555 1_555
C27 N5 1_555 1_555
H21 C27 1_555 1_555
H22 C27 1_555 1_555
C28 C27 1_555 1_555
H23 C28 1_555 1_555
H24 C28 1_555 1_555
C29 C26 1_555 1_555
H25 C29 1_555 1_555
C30 C18 1_555 1_555
H26 C30 1_555 1_555
N1D C10D 1_555 1_555
N2D C10D 1_555 1_555
C10D H5D 1_555 1_555
C12D N2D 1_555 1_555
H7D C12D 1_555 1_555
C16D N1D 1_555 1_555
H10D C16D 1_555 1_555
C18D N1D 1_555 1_555
H12D C18D 1_555 1_555
H13D C18D 1_555 1_555
C30D C30 1_555 1_555
H26D C30D 1_555 1_555
N4D C24D 1_555 1_555
C24D H19D 1_555 1_555
C26D N4D 1_555 1_555
H20D C26D 1_555 1_555
N5D C24D 1_555 1_555
C27D N5D 1_555 1_555
H21D C27D 1_555 1_555
H22D C27D 1_555 1_555
C28D C28 1_555 1_555
H23D C28D 1_555 1_555
H24D C28D 1_555 1_555
C29D C26D 1_555 1_555
H25D C29D 1_555 1_555
Zn1D N4D 1_555 1_555
C1D O1D 1_555 1_555
O2D Zn1D 1_555 1_555
C2D N3D 1_555 1_555
C3D N3D 1_555 1_555
C4D C1D 1_555 1_555
N3D C14D 1_555 1_555
C5D C6D 1_555 1_555
C6D H1D 1_555 1_555
C7D C2D 1_555 1_555
H2D C7D 1_555 1_555
C8D C3D 1_555 1_555
H3D C8D 1_555 1_555
C9D C2D 1_555 1_555
H4D C9D 1_555 1_555
C11D C4D 1_555 1_555
H6D C11D 1_555 1_555
C13D C3D 1_555 1_555
H8D C13D 1_555 1_555
C14D C21D 1_555 1_555
C15D C5D 1_555 1_555
H9D C15D 1_555 1_555
C17D C4D 1_555 1_555
H11D C17D 1_555 1_555
C19D H14D 1_555 1_555
C20D C19D 1_555 1_555
H15D C20D 1_555 1_555
C21D H16D 1_555 1_555
C22D C14D 1_555 1_555
H17D C22D 1_555 1_555
C23D C19D 1_555 1_555
H18D C23D 1_555 1_555
O3D C25D 1_555 1_555
O4D C25D 1_555 1_555
C25D C5D 1_555 1_555
Zn1B O3D 1_555 1_555
Zn1D_2 N2D 1_555 1_555
Zn1F O3 1_555 1_555
N2D_2 Zn1D 1_555 1_555
O3B Zn1D 1_555 1_555
O3F Zn1 1_555 1_555
C6 C9 1_555 1_555
C7 C15 1_555 1_555
C8 C11 1_555 1_555
C12 C16 1_555 1_555
C13 C17 1_555 1_555
C20 C22 1_555 1_555
C21 C23 1_555 1_555
N5 C29 1_555 1_555
C12D C16D 1_555 1_555
C18D C30D 1_555 1_555
N5D C29D 1_555 1_555
C27D C28D 1_555 1_555
C1D O2D 1_555 1_555
C6D C9D 1_555 1_555
C7D C15D 1_555 1_555
C8D C11D 1_555 1_555
C13D C17D 1_555 1_555
C20D C22D 1_555 1_555
C21D C23D 1_555 1_555

#END
