
#######################################################################
#
#                 Cambridge Crystallographic Data Centre
#                                CCDC 
#
#######################################################################
#
# If this CIF has been generated from an entry in the Cambridge 
# Structural Database, then it will include bibliographic, chemical, 
# crystal, experimental, refinement or atomic coordinate data resulting 
# from the CCDC's data processing and validation procedures.
#
#######################################################################

data_OHAPAP
_symmetry_cell_setting           monoclinic
_symmetry_space_group_name_H-M   'P 21/n'
_symmetry_Int_Tables_number      14
_space_group_name_Hall           '-P 2yn'
loop_
_symmetry_equiv_pos_site_id
_symmetry_equiv_pos_as_xyz
1 x,y,z
2 1/2-x,1/2+y,1/2-z
3 -x,-y,-z
4 1/2+x,1/2-y,1/2+z
_cell_length_a                   8.7996(12)
_cell_length_b                   15.350(2)
_cell_length_c                   12.1775(16)
_cell_angle_alpha                90
_cell_angle_beta                 94.833(2)
_cell_angle_gamma                90
_cell_volume                     1639.01
loop_
_atom_site_label
_atom_site_type_symbol
_atom_site_fract_x
_atom_site_fract_y
_atom_site_fract_z
C1 C 0.3635(7) 0.3707(4) 0.6350(4)
H1 H 0.2601 0.3607 0.6034
H2 H 0.4194 0.3166 0.6305
C2 C 0.4365(6) 0.4390(3) 0.5677(4)
C3 C 0.4843(6) 0.5204(3) 0.6075(4)
H3 H 0.4741 0.5346 0.6807
C4 C 0.4541(6) 0.4202(3) 0.4596(4)
H4 H 0.4236 0.3661 0.4313
Cu1 Cu 0.12423(7) 0.73840(4) 1.23373(5)
Cu2 Cu 0.13055(8) 0.46394(4) 1.02493(5)
C5 C 0.1201(5) 0.6429(3) 1.1390(4)
N1 N -0.3319(5) 0.8145(2) 1.1639(3)
N2 N 0.1065(5) 0.5822(4) 1.0899(4)
N3 N -0.0994(5) 0.7786(2) 1.2290(3)
N4 N 0.3594(5) 0.3945(3) 0.7501(3)
N5 N 0.2711(5) 0.4381(2) 0.9039(3)
N6 N 0.3198(5) 0.8594(3) 1.3782(4)
C6 C -0.4136(6) 0.9405(4) 0.9501(5)
H5 H -0.3555 0.9004 0.9146
C7 C 0.2395(6) 0.4245(3) 0.7988(4)
H6 H 0.1442 0.4345 0.7620
C8 C -0.3123(6) 0.8481(3) 1.2681(4)
H7 H -0.3822 0.8800 1.3047
C9 C -0.2009(6) 0.7741(3) 1.1432(4)
H8 H -0.1845 0.7467 1.0771
C10 C 0.2546(6) 0.8097(3) 1.3242(4)
C11 C -0.1696(6) 0.8248(3) 1.3065(4)
H9 H -0.1249 0.8384 1.3763
C12 C 0.4782(6) 0.3912(3) 0.8300(5)
H10 H 0.5779 0.3742 0.8211
C13 C -0.4830(6) 0.9151(3) 1.0408(5)
C14 C -0.5722(6) 0.9755(4) 1.0903(4)
H11 H -0.6229 0.9593 1.1512
C15 C 0.4225(6) 0.4172(3) 0.9235(4)
H12 H 0.4782 0.4207 0.9917
C16 C -0.4663(6) 0.8241(3) 1.0864(5)
H13 H -0.5564 0.8094 1.1232
H14 H -0.4594 0.7835 1.0259
C1B C 0.6365(7) 0.6293(4) 0.3650(4)
H1B H 0.7399 0.6393 0.3966
H2B H 0.5806 0.6834 0.3695
C2B C 0.5635(6) 0.5610(3) 0.4323(4)
C3B C 0.5157(6) 0.4796(3) 0.3925(4)
H3B H 0.5259 0.4654 0.3193
C4B C 0.5459(6) 0.5798(3) 0.5404(4)
H4B H 0.5764 0.6339 0.5687
Cu1B Cu -1.12423(7) 1.26160(4) 0.76627(5)
Cu1A Cu 0.37577(7) 0.23840(4) 1.26627(5)
Cu2A Cu 0.36945(8) 0.96394(4) 1.47507(5)
Cu2B Cu 0.86945(8) 0.53606(4) -0.02493(5)
Cu2B_2 Cu -1.13055(8) 1.53606(4) 0.97507(5)
C5B C -1.1201(5) 1.3571(3) 0.8610(4)
N1B N -0.6681(5) 1.1855(2) 0.8361(3)
N2B N -1.1065(5) 1.4178(4) 0.9101(4)
N2A N 0.3935(5) 1.0822(4) 1.4101(4)
N3B N -0.9006(5) 1.2214(2) 0.7710(3)
N4B N 0.6406(5) 0.6055(3) 0.2499(3)
N5B N 0.7289(5) 0.5619(2) 0.0961(3)
N5A N 0.2289(5) 0.9381(2) 1.5961(3)
N6A N 0.1802(5) 0.3594(3) 1.1218(4)
C6B C -0.5864(6) 1.0595(4) 1.0499(5)
H5B H -0.6445 1.0996 1.0854
C7B C 0.7605(6) 0.5755(3) 0.2012(4)
H6B H 0.8558 0.5655 0.2380
C8B C -0.6877(6) 1.1519(3) 0.7319(4)
H7B H -0.6178 1.1200 0.6953
C9B C -0.7991(6) 1.2259(3) 0.8568(4)
H8B H -0.8155 1.2533 0.9229
C10A C 0.2454(6) 0.3097(3) 1.1758(4)
C10B C -1.2546(6) 1.1903(3) 0.6758(4)
C11B C -0.8304(6) 1.1752(3) 0.6935(4)
H9B H -0.8751 1.1616 0.6237
C12B C 0.5218(6) 0.6088(3) 0.1700(5)
H10B H 0.4221 0.6258 0.1789
C13B C -0.5170(6) 1.0849(3) 0.9592(5)
C14B C -0.4278(6) 1.0245(4) 0.9097(4)
H11B H -0.3771 1.0407 0.8488
C15B C 0.5775(6) 0.5828(3) 0.0765(4)
H12B H 0.5218 0.5793 0.0083
C16B C -0.5337(6) 1.1759(3) 0.9136(5)
H13B H -0.4436 1.1906 0.8768
H14B H -0.5406 1.2165 0.9741
loop_
_geom_bond_atom_site_label_1
_geom_bond_atom_site_label_2
_geom_bond_site_symmetry_1
_geom_bond_site_symmetry_2
C1 H1 1_555 1_555
H2 C1 1_555 1_555
C2 C1 1_555 1_555
C3 C2 1_555 1_555
H3 C3 1_555 1_555
C4 C2 1_555 1_555
H4 C4 1_555 1_555
Cu1 C5 1_555 1_555
Cu2 N2 1_555 1_555
C5 N2 1_555 1_555
N1 C8 1_555 1_555
N3 Cu1 1_555 1_555
N4 C1 1_555 1_555
N5 Cu2 1_555 1_555
N6 C10 1_555 1_555
C6 H5 1_555 1_555
C7 N4 1_555 1_555
H6 C7 1_555 1_555
C8 H7 1_555 1_555
C9 N1 1_555 1_555
H8 C9 1_555 1_555
C10 Cu1 1_555 1_555
C11 N3 1_555 1_555
H9 C11 1_555 1_555
C12 N4 1_555 1_555
H10 C12 1_555 1_555
C13 C6 1_555 1_555
C14 C13 1_555 1_555
H11 C14 1_555 1_555
C15 N5 1_555 1_555
H12 C15 1_555 1_555
C16 N1 1_555 1_555
H13 C16 1_555 1_555
H14 C16 1_555 1_555
C1B H1B 1_555 1_555
H2B C1B 1_555 1_555
C2B C1B 1_555 1_555
C3B C4 1_555 1_555
H3B C3B 1_555 1_555
C4B C3 1_555 1_555
H4B C4B 1_555 1_555
Cu1B C5B 1_555 1_555
Cu1A C10A 1_555 1_555
Cu2A N6 1_555 1_555
Cu2B N5B 1_555 1_555
Cu2B_2 N2B 1_555 1_555
C5B N2B 1_555 1_555
N1B C8B 1_555 1_555
N2A Cu2A 1_555 1_555
N3B Cu1B 1_555 1_555
N4B C1B 1_555 1_555
N5B C7B 1_555 1_555
N5A Cu2A 1_555 1_555
N6A Cu2 1_555 1_555
C6B C14 1_555 1_555
H5B C6B 1_555 1_555
C7B N4B 1_555 1_555
H6B C7B 1_555 1_555
C8B H7B 1_555 1_555
C9B N1B 1_555 1_555
H8B C9B 1_555 1_555
C10A N6A 1_555 1_555
C10B Cu1B 1_555 1_555
C11B N3B 1_555 1_555
H9B C11B 1_555 1_555
C12B N4B 1_555 1_555
H10B C12B 1_555 1_555
C13B C6B 1_555 1_555
C14B C6 1_555 1_555
H11B C14B 1_555 1_555
C15B N5B 1_555 1_555
H12B C15B 1_555 1_555
C16B N1B 1_555 1_555
H13B C16B 1_555 1_555
H14B C16B 1_555 1_555
N3 C9 1_555 1_555
N5 C7 1_555 1_555
C8 C11 1_555 1_555
C12 C15 1_555 1_555
C13 C16 1_555 1_555
C2B C3B 1_555 1_555
C2B C4B 1_555 1_555
N3B C9B 1_555 1_555
C8B C11B 1_555 1_555
C12B C15B 1_555 1_555
C13B C14B 1_555 1_555
C13B C16B 1_555 1_555

#END
