
#######################################################################
#
#                 Cambridge Crystallographic Data Centre
#                                CCDC 
#
#######################################################################
#
# If this CIF has been generated from an entry in the Cambridge 
# Structural Database, then it will include bibliographic, chemical, 
# crystal, experimental, refinement or atomic coordinate data resulting 
# from the CCDC's data processing and validation procedures.
#
#######################################################################

data_OHAPET
_symmetry_cell_setting           orthorhombic
_symmetry_space_group_name_H-M   'P b c a'
_symmetry_Int_Tables_number      61
_space_group_name_Hall           '-P 2ac 2ab'
loop_
_symmetry_equiv_pos_site_id
_symmetry_equiv_pos_as_xyz
1 x,y,z
2 1/2-x,-y,1/2+z
3 -x,1/2+y,1/2-z
4 1/2+x,1/2-y,-z
5 -x,-y,-z
6 1/2+x,y,1/2-z
7 x,1/2-y,1/2+z
8 1/2-x,1/2+y,z
_cell_length_a                   14.5596(10)
_cell_length_b                   13.1840(9)
_cell_length_c                   17.4423(13)
_cell_angle_alpha                90
_cell_angle_beta                 90
_cell_angle_gamma                90
_cell_volume                     3348.12
loop_
_atom_site_label
_atom_site_type_symbol
_atom_site_fract_x
_atom_site_fract_y
_atom_site_fract_z
Cu1 Cu 0.01863(2) 1.05461(2) 0.056892(16)
Cu2 Cu 0.202463(19) 0.75978(2) 0.106139(17)
N1 N 0.11821(14) 0.84269(15) 0.05097(11)
N2 N 0.16669(14) 0.75575(14) 0.21904(11)
N3 N -0.04446(13) 1.00493(14) 0.15404(10)
C1 C 0.06789(15) 0.89401(17) 0.01957(13)
C2 C 0.14541(19) 0.9540(2) 0.43871(15)
H1 H 0.1840 0.8992 0.4479
N4 N 0.09648(13) 0.78585(13) 0.32827(11)
N5 N -0.08666(13) 0.99052(14) 0.27452(10)
C3 C 0.09853(16) 0.80373(17) 0.25276(13)
H2 H 0.0568 0.8451 0.2272
C4 C 0.00196(17) 1.02042(18) 0.39268(12)
C5 C 0.06031(16) 0.93758(17) 0.40521(12)
C6 C 0.21094(16) 0.70432(18) 0.27696(15)
H3 H 0.2623 0.6633 0.2707
C7 C -0.11539(18) 0.9378(2) 0.15919(15)
H4 H -0.1416 0.9037 0.1180
C8 C 0.03327(17) 0.83040(18) 0.38396(13)
H5 H 0.0324 0.7888 0.4298
H6 H -0.0283 0.8308 0.3626
C9 C 0.16852(18) 0.72253(18) 0.34402(15)
H7 H 0.1849 0.6970 0.3918
C10 C 0.0330(2) 1.1169(2) 0.41320(15)
H8 H -0.0046 1.1728 0.4046
C11 C -0.02932(15) 1.03543(17) 0.22430(12)
H9 H 0.0155 1.0823 0.2379
C12 C 0.1738(2) 1.0502(3) 0.45865(17)
H10 H 0.2312 1.0599 0.4808
C13 C -0.14188(19) 0.9284(2) 0.23259(16)
H11 H -0.1888 0.8873 0.2512
C14 C -0.09172(17) 1.0088(2) 0.35734(13)
H12 H -0.1233 0.9526 0.3817
H13 H -0.1272 1.0698 0.3667
C15 C 0.1175(2) 1.1310(2) 0.44572(16)
H14 H 0.1366 1.1960 0.4591
C16 C 0.19306(16) 1.17982(18) 0.08823(14)
N6 N 0.12921(16) 1.13101(16) 0.07885(14)
Cu1D Cu -0.01863(2) 0.94539(2) -0.056892(16)
Cu2G Cu 0.297537(19) 1.25978(2) 0.106139(17)
C1D C -0.06789(15) 1.10599(17) -0.01957(13)
C16G C 0.30694(16) 0.67982(18) 0.08823(14)
loop_
_geom_bond_atom_site_label_1
_geom_bond_atom_site_label_2
_geom_bond_site_symmetry_1
_geom_bond_site_symmetry_2
Cu1 N3 1_555 1_555
Cu2 N1 1_555 1_555
N1 C1 1_555 1_555
N2 Cu2 1_555 1_555
N3 C7 1_555 1_555
C1 Cu1 1_555 1_555
C2 H1 1_555 1_555
N4 C3 1_555 1_555
N5 C11 1_555 1_555
C3 N2 1_555 1_555
H2 C3 1_555 1_555
C4 C5 1_555 1_555
C5 C2 1_555 1_555
C6 N2 1_555 1_555
H3 C6 1_555 1_555
C7 H4 1_555 1_555
C8 N4 1_555 1_555
H5 C8 1_555 1_555
H6 C8 1_555 1_555
C9 N4 1_555 1_555
H7 C9 1_555 1_555
C10 C4 1_555 1_555
H8 C10 1_555 1_555
C11 N3 1_555 1_555
H9 C11 1_555 1_555
C12 C2 1_555 1_555
H10 C12 1_555 1_555
C13 N5 1_555 1_555
H11 C13 1_555 1_555
C14 N5 1_555 1_555
H12 C14 1_555 1_555
H13 C14 1_555 1_555
C15 C10 1_555 1_555
H14 C15 1_555 1_555
C16 N6 1_555 1_555
N6 Cu1 1_555 1_555
Cu1D Cu1 1_555 1_555
Cu2G C16 1_555 1_555
C1D Cu1 1_555 1_555
C16G Cu2 1_555 1_555
C1 Cu1D 1_555 1_555
C4 C14 1_555 1_555
C5 C8 1_555 1_555
C6 C9 1_555 1_555
C7 C13 1_555 1_555
C12 C15 1_555 1_555
Cu1D C1D 1_555 1_555

#END
