
#######################################################################
#
#                 Cambridge Crystallographic Data Centre
#                                CCDC 
#
#######################################################################
#
# If this CIF has been generated from an entry in the Cambridge 
# Structural Database, then it will include bibliographic, chemical, 
# crystal, experimental, refinement or atomic coordinate data resulting 
# from the CCDC's data processing and validation procedures.
#
#######################################################################

data_OHAQAQ
_symmetry_cell_setting           cubic
_symmetry_space_group_name_H-M   'I -4 3 m'
_symmetry_Int_Tables_number      217
_space_group_name_Hall           'I -4 2 3'
loop_
_symmetry_equiv_pos_site_id
_symmetry_equiv_pos_as_xyz
1 x,y,z
2 y,-x,-z
3 -x,-y,z
4 -y,x,-z
5 x,-y,-z
6 -y,-x,z
7 -x,y,-z
8 y,x,z
9 z,x,y
10 x,-z,-y
11 -z,-x,y
12 -x,z,-y
13 z,-x,-y
14 -x,-z,y
15 -z,x,-y
16 x,z,y
17 y,z,x
18 z,y,x
19 z,-y,-x
20 -z,-y,x
21 -z,y,-x
22 y,-z,-x
23 -y,-z,x
24 -y,z,-x
25 1/2+x,1/2+y,1/2+z
26 1/2+y,1/2-x,1/2-z
27 1/2-x,1/2-y,1/2+z
28 1/2-y,1/2+x,1/2-z
29 1/2+x,1/2-y,1/2-z
30 1/2-y,1/2-x,1/2+z
31 1/2-x,1/2+y,1/2-z
32 1/2+y,1/2+x,1/2+z
33 1/2+z,1/2+x,1/2+y
34 1/2+x,1/2-z,1/2-y
35 1/2-z,1/2-x,1/2+y
36 1/2-x,1/2+z,1/2-y
37 1/2+z,1/2-x,1/2-y
38 1/2-x,1/2-z,1/2+y
39 1/2-z,1/2+x,1/2-y
40 1/2+x,1/2+z,1/2+y
41 1/2+y,1/2+z,1/2+x
42 1/2+z,1/2+y,1/2+x
43 1/2+z,1/2-y,1/2-x
44 1/2-z,1/2-y,1/2+x
45 1/2-z,1/2+y,1/2-x
46 1/2+y,1/2-z,1/2-x
47 1/2-y,1/2-z,1/2+x
48 1/2-y,1/2+z,1/2-x
_cell_length_a                   15.900(2)
_cell_length_b                   15.900(2)
_cell_length_c                   15.900(2)
_cell_angle_alpha                90
_cell_angle_beta                 90
_cell_angle_gamma                90
_cell_volume                     4019.68
loop_
_atom_site_label
_atom_site_type_symbol
_atom_site_fract_x
_atom_site_fract_y
_atom_site_fract_z
Ag1 Ag 0.80511(7) 0.80511(7) 1.19489(7)
N1 N 0.8820(9) 0.7162(5) 1.2838(5)
C1 C 0.9650(10) 0.7116(5) 1.2884(5)
H1 H 0.9963 0.7466 1.2534
C2 C 1.0079(10) 0.6589(8) 1.3411(8)
H2 H 1.0664 0.6593 1.3407
C3 C 0.9660(8) 0.6050(6) 1.3950(6)
C4 C 0.8785(10) 0.6093(6) 1.3907(6)
H3 H 0.8458 0.5750 1.4250
C5 C 0.8400(9) 0.6651(7) 1.3349(7)
H4 H 0.7816 0.6666 1.3334
C6 C 1.0101(7) 0.5474(5) 1.4526(5)
H5 H 1.0708 0.5547 1.4453
C6B C 0.9899(7) 0.4526(5) 1.4526(5)
C3B C 1.0340(8) 0.3950(6) 1.3950(6)
C2B C 0.9921(10) 0.3411(8) 1.3411(8)
C1B C 1.0350(10) 0.2884(5) 1.2884(5)
N1B N 1.1180(9) 0.2838(5) 1.2838(5)
C5B C 1.1600(9) 0.3349(7) 1.3349(7)
C4B C 1.1215(10) 0.3907(6) 1.3907(6)
H3B H 1.1542 0.4250 1.4250
H4B H 1.2184 0.3334 1.3334
H1B H 1.0037 0.2534 1.2534
H2B H 0.9336 0.3407 1.3407
H5B H 0.9292 0.4453 1.4453
C6D C 1.0101(7) 0.4526(5) 1.5474(5)
C3D C 0.9660(8) 0.3950(6) 1.6050(6)
C2D C 1.0079(10) 0.3411(8) 1.6589(8)
C1D C 0.9650(10) 0.2884(5) 1.7116(5)
N1D N 0.8820(9) 0.2838(5) 1.7162(5)
C5D C 0.8400(9) 0.3349(7) 1.6651(7)
C4D C 0.8785(10) 0.3907(6) 1.6093(6)
H3D H 0.8458 0.4250 1.5750
H4D H 0.7816 0.3334 1.6666
H1D H 0.9963 0.2534 1.7466
H2D H 1.0664 0.3407 1.6593
H5D H 1.0708 0.4453 1.5547
C6F C 0.9899(7) 0.5474(5) 1.5474(5)
C3F C 1.0340(8) 0.6050(6) 1.6050(6)
C2F C 0.9921(10) 0.6589(8) 1.6589(8)
C1F C 1.0350(10) 0.7116(5) 1.7116(5)
N1F N 1.1180(9) 0.7162(5) 1.7162(5)
C5F C 1.1600(9) 0.6651(7) 1.6651(7)
C4F C 1.1215(10) 0.6093(6) 1.6093(6)
H3F H 1.1542 0.5750 1.5750
H4F H 1.2184 0.6666 1.6666
H1F H 1.0037 0.7466 1.7466
H2F H 0.9336 0.6593 1.6593
H5F H 0.9292 0.5547 1.5547
N1G N 0.7162(5) 0.8820(9) 1.2838(5)
C1G C 0.7116(5) 0.9650(10) 1.2884(5)
H1G H 0.7466 0.9963 1.2534
C2G C 0.6589(8) 1.0079(10) 1.3411(8)
H2G H 0.6593 1.0664 1.3407
C3G C 0.6050(6) 0.9660(8) 1.3950(6)
C4G C 0.6093(6) 0.8785(10) 1.3907(6)
H3G H 0.5750 0.8458 1.4250
C5G C 0.6651(7) 0.8400(9) 1.3349(7)
H4G H 0.6666 0.7816 1.3334
C6G C 0.5474(5) 1.0101(7) 1.4526(5)
H5G H 0.5547 1.0708 1.4453
C6E C 0.4526(5) 0.9899(7) 1.4526(5)
C3E C 0.3950(6) 1.0340(8) 1.3950(6)
C2E C 0.3411(8) 0.9921(10) 1.3411(8)
C1E C 0.2884(5) 1.0350(10) 1.2884(5)
N1E N 0.2838(5) 1.1180(9) 1.2838(5)
C5E C 0.3349(7) 1.1600(9) 1.3349(7)
C4E C 0.3907(6) 1.1215(10) 1.3907(6)
H3E H 0.4250 1.1542 1.4250
H4E H 0.3334 1.2184 1.3334
H1E H 0.2534 1.0037 1.2534
H2E H 0.3407 0.9336 1.3407
H5E H 0.4453 0.9292 1.4453
C6C C 0.4526(5) 1.0101(7) 1.5474(5)
C3C C 0.3950(6) 0.9660(8) 1.6050(6)
C2C C 0.3411(8) 1.0079(10) 1.6589(8)
C1C C 0.2884(5) 0.9650(10) 1.7116(5)
N1C N 0.2838(5) 0.8820(9) 1.7162(5)
C5C C 0.3349(7) 0.8400(9) 1.6651(7)
C4C C 0.3907(6) 0.8785(10) 1.6093(6)
H3C H 0.4250 0.8458 1.5750
H4C H 0.3334 0.7816 1.6666
H1C H 0.2534 0.9963 1.7466
H2C H 0.3407 1.0664 1.6593
H5C H 0.4453 1.0708 1.5547
C6A C 0.5474(5) 0.9899(7) 1.5474(5)
C3A C 0.6050(6) 1.0340(8) 1.6050(6)
C2A C 0.6589(8) 0.9921(10) 1.6589(8)
C1A C 0.7116(5) 1.0350(10) 1.7116(5)
N1A N 0.7162(5) 1.1180(9) 1.7162(5)
C5A C 0.6651(7) 1.1600(9) 1.6651(7)
C4A C 0.6093(6) 1.1215(10) 1.6093(6)
H3A H 0.5750 1.1542 1.5750
H4A H 0.6666 1.2184 1.6666
H1A H 0.7466 1.0037 1.7466
H2A H 0.6593 0.9336 1.6593
H5A H 0.5547 0.9292 1.5547
N1T N 0.7162(5) 0.7162(5) 1.1180(9)
C1T C 0.7116(5) 0.7116(5) 1.0350(10)
H1T H 0.7466 0.7466 1.0037
C2T C 0.6589(8) 0.6589(8) 0.9921(10)
H2T H 0.6593 0.6593 0.9336
C3T C 0.6050(6) 0.6050(6) 1.0340(8)
C4T C 0.6093(6) 0.6093(6) 1.1215(10)
H3T H 0.5750 0.5750 1.1542
C5T C 0.6651(7) 0.6651(7) 1.1600(9)
H4T H 0.6666 0.6666 1.2184
C6T C 0.5474(5) 0.5474(5) 0.9899(7)
H5T H 0.5547 0.5547 0.9292
C6S C 0.5474(5) 0.4526(5) 1.0101(7)
C3S C 0.6050(6) 0.3950(6) 0.9660(8)
C2S C 0.6589(8) 0.3411(8) 1.0079(10)
C1S C 0.7116(5) 0.2884(5) 0.9650(10)
N1S N 0.7162(5) 0.2838(5) 0.8820(9)
C5S C 0.6651(7) 0.3349(7) 0.8400(9)
C4S C 0.6093(6) 0.3907(6) 0.8785(10)
H3S H 0.5750 0.4250 0.8458
H4S H 0.6666 0.3334 0.7816
H1S H 0.7466 0.2534 0.9963
H2S H 0.6593 0.3407 1.0664
H5S H 0.5547 0.4453 1.0708
C6R C 0.4526(5) 0.4526(5) 0.9899(7)
C3R C 0.3950(6) 0.3950(6) 1.0340(8)
C2R C 0.3411(8) 0.3411(8) 0.9921(10)
C1R C 0.2884(5) 0.2884(5) 1.0350(10)
N1R N 0.2838(5) 0.2838(5) 1.1180(9)
C5R C 0.3349(7) 0.3349(7) 1.1600(9)
C4R C 0.3907(6) 0.3907(6) 1.1215(10)
H3R H 0.4250 0.4250 1.1542
H4R H 0.3334 0.3334 1.2184
H1R H 0.2534 0.2534 1.0037
H2R H 0.3407 0.3407 0.9336
H5R H 0.4453 0.4453 0.9292
C6Q C 0.4526(5) 0.5474(5) 1.0101(7)
C3Q C 0.3950(6) 0.6050(6) 0.9660(8)
C2Q C 0.3411(8) 0.6589(8) 1.0079(10)
C1Q C 0.2884(5) 0.7116(5) 0.9650(10)
N1Q N 0.2838(5) 0.7162(5) 0.8820(9)
C5Q C 0.3349(7) 0.6651(7) 0.8400(9)
C4Q C 0.3907(6) 0.6093(6) 0.8785(10)
H3Q H 0.4250 0.5750 0.8458
H4Q H 0.3334 0.6666 0.7816
H1Q H 0.2534 0.7466 0.9963
H2Q H 0.3407 0.6593 1.0664
H5Q H 0.4453 0.5547 1.0708
Ag1B Ag 1.19489(7) 0.19489(7) 1.19489(7)
Ag1D Ag 0.80511(7) 0.19489(7) 1.80511(7)
Ag1F Ag 1.19489(7) 0.80511(7) 1.80511(7)
Ag1E Ag 0.19489(7) 1.19489(7) 1.19489(7)
Ag1C Ag 0.19489(7) 0.80511(7) 1.80511(7)
Ag1A Ag 0.80511(7) 1.19489(7) 1.80511(7)
Ag1S Ag 0.80511(7) 0.19489(7) 0.80511(7)
N1E_2 N 1.2838(5) 0.1180(9) 1.2838(5)
C1E_2 C 1.2884(5) 0.0350(10) 1.2884(5)
H1E_2 H 1.2534 0.0037 1.2534
C2E_2 C 1.3411(8) -0.0079(10) 1.3411(8)
H2E_2 H 1.3407 -0.0664 1.3407
C3E_2 C 1.3950(6) 0.0340(8) 1.3950(6)
C4E_2 C 1.3907(6) 0.1215(10) 1.3907(6)
H3E_2 H 1.4250 0.1542 1.4250
C5E_2 C 1.3349(7) 0.1600(9) 1.3349(7)
H4E_2 H 1.3334 0.2184 1.3334
C6E_2 C 1.4526(5) -0.0101(7) 1.4526(5)
H5E_2 H 1.4453 -0.0708 1.4453
C6G_2 C 1.5474(5) 0.0101(7) 1.4526(5)
C3G_2 C 1.6050(6) -0.0340(8) 1.3950(6)
C2G_2 C 1.6589(8) 0.0079(10) 1.3411(8)
C1G_2 C 1.7116(5) -0.0350(10) 1.2884(5)
N1G_2 N 1.7162(5) -0.1180(9) 1.2838(5)
C5G_2 C 1.6651(7) -0.1600(9) 1.3349(7)
C4G_2 C 1.6093(6) -0.1215(10) 1.3907(6)
H3G_2 H 1.5750 -0.1542 1.4250
H4G_2 H 1.6666 -0.2184 1.3334
H1G_2 H 1.7466 -0.0037 1.2534
H2G_2 H 1.6593 0.0664 1.3407
H5G_2 H 1.5547 0.0708 1.4453
C6A_2 C 1.5474(5) -0.0101(7) 1.5474(5)
C3A_2 C 1.6050(6) 0.0340(8) 1.6050(6)
C2A_2 C 1.6589(8) -0.0079(10) 1.6589(8)
C1A_2 C 1.7116(5) 0.0350(10) 1.7116(5)
N1A_2 N 1.7162(5) 0.1180(9) 1.7162(5)
C5A_2 C 1.6651(7) 0.1600(9) 1.6651(7)
C4A_2 C 1.6093(6) 0.1215(10) 1.6093(6)
H3A_2 H 1.5750 0.1542 1.5750
H4A_2 H 1.6666 0.2184 1.6666
H1A_2 H 1.7466 0.0037 1.7466
H2A_2 H 1.6593 -0.0664 1.6593
H5A_2 H 1.5547 -0.0708 1.5547
C6C_2 C 1.4526(5) 0.0101(7) 1.5474(5)
C3C_2 C 1.3950(6) -0.0340(8) 1.6050(6)
C2C_2 C 1.3411(8) 0.0079(10) 1.6589(8)
C1C_2 C 1.2884(5) -0.0350(10) 1.7116(5)
N1C_2 N 1.2838(5) -0.1180(9) 1.7162(5)
C5C_2 C 1.3349(7) -0.1600(9) 1.6651(7)
C4C_2 C 1.3907(6) -0.1215(10) 1.6093(6)
H3C_2 H 1.4250 -0.1542 1.5750
H4C_2 H 1.3334 -0.2184 1.6666
H1C_2 H 1.2534 -0.0037 1.7466
H2C_2 H 1.3407 0.0664 1.6593
H5C_2 H 1.4453 0.0708 1.5547
N1R_2 N 1.2838(5) 0.2838(5) 1.1180(9)
C1R_2 C 1.2884(5) 0.2884(5) 1.0350(10)
H1R_2 H 1.2534 0.2534 1.0037
C2R_2 C 1.3411(8) 0.3411(8) 0.9921(10)
H2R_2 H 1.3407 0.3407 0.9336
C3R_2 C 1.3950(6) 0.3950(6) 1.0340(8)
C4R_2 C 1.3907(6) 0.3907(6) 1.1215(10)
H3R_2 H 1.4250 0.4250 1.1542
C5R_2 C 1.3349(7) 0.3349(7) 1.1600(9)
H4R_2 H 1.3334 0.3334 1.2184
C6R_2 C 1.4526(5) 0.4526(5) 0.9899(7)
H5R_2 H 1.4453 0.4453 0.9292
C6Q_2 C 1.4526(5) 0.5474(5) 1.0101(7)
C3Q_2 C 1.3950(6) 0.6050(6) 0.9660(8)
C2Q_2 C 1.3411(8) 0.6589(8) 1.0079(10)
C1Q_2 C 1.2884(5) 0.7116(5) 0.9650(10)
N1Q_2 N 1.2838(5) 0.7162(5) 0.8820(9)
C5Q_2 C 1.3349(7) 0.6651(7) 0.8400(9)
C4Q_2 C 1.3907(6) 0.6093(6) 0.8785(10)
H3Q_2 H 1.4250 0.5750 0.8458
H4Q_2 H 1.3334 0.6666 0.7816
H1Q_2 H 1.2534 0.7466 0.9963
H2Q_2 H 1.3407 0.6593 1.0664
H5Q_2 H 1.4453 0.5547 1.0708
C6T_2 C 1.5474(5) 0.5474(5) 0.9899(7)
C3T_2 C 1.6050(6) 0.6050(6) 1.0340(8)
C2T_2 C 1.6589(8) 0.6589(8) 0.9921(10)
C1T_2 C 1.7116(5) 0.7116(5) 1.0350(10)
N1T_2 N 1.7162(5) 0.7162(5) 1.1180(9)
C5T_2 C 1.6651(7) 0.6651(7) 1.1600(9)
C4T_2 C 1.6093(6) 0.6093(6) 1.1215(10)
H3T_2 H 1.5750 0.5750 1.1542
H4T_2 H 1.6666 0.6666 1.2184
H1T_2 H 1.7466 0.7466 1.0037
H2T_2 H 1.6593 0.6593 0.9336
H5T_2 H 1.5547 0.5547 0.9292
C6S_2 C 1.5474(5) 0.4526(5) 1.0101(7)
C3S_2 C 1.6050(6) 0.3950(6) 0.9660(8)
C2S_2 C 1.6589(8) 0.3411(8) 1.0079(10)
C1S_2 C 1.7116(5) 0.2884(5) 0.9650(10)
N1S_2 N 1.7162(5) 0.2838(5) 0.8820(9)
C5S_2 C 1.6651(7) 0.3349(7) 0.8400(9)
C4S_2 C 1.6093(6) 0.3907(6) 0.8785(10)
H3S_2 H 1.5750 0.4250 0.8458
H4S_2 H 1.6666 0.3334 0.7816
H1S_2 H 1.7466 0.2534 0.9963
H2S_2 H 1.6593 0.3407 1.0664
H5S_2 H 1.5547 0.4453 1.0708
N1A_3 N 0.7162(5) 0.1180(9) 1.7162(5)
C1A_3 C 0.7116(5) 0.0350(10) 1.7116(5)
H1A_3 H 0.7466 0.0037 1.7466
C2A_3 C 0.6589(8) -0.0079(10) 1.6589(8)
H2A_3 H 0.6593 -0.0664 1.6593
C3A_3 C 0.6050(6) 0.0340(8) 1.6050(6)
C4A_3 C 0.6093(6) 0.1215(10) 1.6093(6)
H3A_3 H 0.5750 0.1542 1.5750
C5A_3 C 0.6651(7) 0.1600(9) 1.6651(7)
H4A_3 H 0.6666 0.2184 1.6666
C6A_3 C 0.5474(5) -0.0101(7) 1.5474(5)
H5A_3 H 0.5547 -0.0708 1.5547
C6C_3 C 0.4526(5) 0.0101(7) 1.5474(5)
C3C_3 C 0.3950(6) -0.0340(8) 1.6050(6)
C2C_3 C 0.3411(8) 0.0079(10) 1.6589(8)
C1C_3 C 0.2884(5) -0.0350(10) 1.7116(5)
N1C_3 N 0.2838(5) -0.1180(9) 1.7162(5)
C5C_3 C 0.3349(7) -0.1600(9) 1.6651(7)
C4C_3 C 0.3907(6) -0.1215(10) 1.6093(6)
H3C_3 H 0.4250 -0.1542 1.5750
H4C_3 H 0.3334 -0.2184 1.6666
H1C_3 H 0.2534 -0.0037 1.7466
H2C_3 H 0.3407 0.0664 1.6593
H5C_3 H 0.4453 0.0708 1.5547
C6E_3 C 0.4526(5) -0.0101(7) 1.4526(5)
C3E_3 C 0.3950(6) 0.0340(8) 1.3950(6)
C2E_3 C 0.3411(8) -0.0079(10) 1.3411(8)
C1E_3 C 0.2884(5) 0.0350(10) 1.2884(5)
N1E_3 N 0.2838(5) 0.1180(9) 1.2838(5)
C5E_3 C 0.3349(7) 0.1600(9) 1.3349(7)
C4E_3 C 0.3907(6) 0.1215(10) 1.3907(6)
H3E_3 H 0.4250 0.1542 1.4250
H4E_3 H 0.3334 0.2184 1.3334
H1E_3 H 0.2534 0.0037 1.2534
H2E_3 H 0.3407 -0.0664 1.3407
H5E_3 H 0.4453 -0.0708 1.4453
C6G_3 C 0.5474(5) 0.0101(7) 1.4526(5)
C3G_3 C 0.6050(6) -0.0340(8) 1.3950(6)
C2G_3 C 0.6589(8) 0.0079(10) 1.3411(8)
C1G_3 C 0.7116(5) -0.0350(10) 1.2884(5)
N1G_3 N 0.7162(5) -0.1180(9) 1.2838(5)
C5G_3 C 0.6651(7) -0.1600(9) 1.3349(7)
C4G_3 C 0.6093(6) -0.1215(10) 1.3907(6)
H3G_3 H 0.5750 -0.1542 1.4250
H4G_3 H 0.6666 -0.2184 1.3334
H1G_3 H 0.7466 -0.0037 1.2534
H2G_3 H 0.6593 0.0664 1.3407
H5G_3 H 0.5547 0.0708 1.4453
Ag1R Ag 0.19489(7) 0.19489(7) 1.19489(7)
Ag1Q Ag 0.19489(7) 0.80511(7) 0.80511(7)
N1S_3 N 0.7162(5) 0.2838(5) 1.8820(9)
N1C_4 N 1.2838(5) 0.8820(9) 1.7162(5)
N1Q_3 N 1.2838(5) 0.7162(5) 1.8820(9)
N1B_2 N 0.1180(9) 1.2838(5) 1.2838(5)
N1W N 0.2838(5) 1.2838(5) 1.1180(9)
N1F_2 N 0.1180(9) 0.7162(5) 1.7162(5)
N1V N 0.2838(5) 0.7162(5) 1.8820(9)
N1D_2 N 0.8820(9) 1.2838(5) 1.7162(5)
N1P N 0.7162(5) 1.2838(5) 1.8820(9)
N1J N 0.7162(5) 0.1180(9) 0.7162(5)
N1D_3 N 0.8820(9) 0.2838(5) 0.7162(5)
Ag1G Ag 1.80511(7) -0.19489(7) 1.19489(7)
Ag1A_2 Ag 1.80511(7) 0.19489(7) 1.80511(7)
Ag1C_2 Ag 1.19489(7) -0.19489(7) 1.80511(7)
Ag1Q_2 Ag 1.19489(7) 0.80511(7) 0.80511(7)
Ag1T Ag 1.80511(7) 0.80511(7) 1.19489(7)
Ag1S_2 Ag 1.80511(7) 0.19489(7) 0.80511(7)
Ag1C_3 Ag 0.19489(7) -0.19489(7) 1.80511(7)
Ag1G_2 Ag 0.80511(7) -0.19489(7) 1.19489(7)
N2 N 0.6238 0.6238 1.3762
O1 O 0.5588 0.6482 1.3518
O1G O 0.6482 0.5588 1.3518
O1T O 0.6482 0.6482 1.4412
O2 O 0.7644 1.0000 1.0000
H6 H 0.7876 0.9681 0.9681
H6D H 0.7876 1.0319 1.0319
loop_
_geom_bond_atom_site_label_1
_geom_bond_atom_site_label_2
_geom_bond_site_symmetry_1
_geom_bond_site_symmetry_2
Ag1 N1 1_555 1_555
N1 C1 1_555 1_555
C1 H1 1_555 1_555
C2 C1 1_555 1_555
H2 C2 1_555 1_555
C3 C2 1_555 1_555
C4 C3 1_555 1_555
H3 C4 1_555 1_555
C5 N1 1_555 1_555
H4 C5 1_555 1_555
C6 C3 1_555 1_555
H5 C6 1_555 1_555
N2 O1 1_555 1_555
O2 H6 1_555 1_555
C6B C6 1_555 1_555
C3B C6B 1_555 1_555
C2B C3B 1_555 1_555
C1B C2B 1_555 1_555
N1B C1B 1_555 1_555
C5B N1B 1_555 1_555
C4B C3B 1_555 1_555
H3B C4B 1_555 1_555
H4B C5B 1_555 1_555
H1B C1B 1_555 1_555
H2B C2B 1_555 1_555
H5B C6B 1_555 1_555
C6D C6B 1_555 1_555
C3D C6D 1_555 1_555
C2D C3D 1_555 1_555
C1D C2D 1_555 1_555
N1D C1D 1_555 1_555
C5D N1D 1_555 1_555
C4D C3D 1_555 1_555
H3D C4D 1_555 1_555
H4D C5D 1_555 1_555
H1D C1D 1_555 1_555
H2D C2D 1_555 1_555
H5D C6D 1_555 1_555
C6F C6 1_555 1_555
C3F C6F 1_555 1_555
C2F C3F 1_555 1_555
C1F C2F 1_555 1_555
N1F C1F 1_555 1_555
C5F N1F 1_555 1_555
C4F C3F 1_555 1_555
H3F C4F 1_555 1_555
H4F C5F 1_555 1_555
H1F C1F 1_555 1_555
H2F C2F 1_555 1_555
H5F C6F 1_555 1_555
O1G N2 1_555 1_555
O1T N2 1_555 1_555
H6D O2 1_555 1_555
N1G Ag1 1_555 1_555
C1G N1G 1_555 1_555
H1G C1G 1_555 1_555
C2G C1G 1_555 1_555
H2G C2G 1_555 1_555
C3G C2G 1_555 1_555
C4G C3G 1_555 1_555
H3G C4G 1_555 1_555
C5G N1G 1_555 1_555
H4G C5G 1_555 1_555
C6G C3G 1_555 1_555
H5G C6G 1_555 1_555
C6E C6G 1_555 1_555
C3E C6E 1_555 1_555
C2E C3E 1_555 1_555
C1E C2E 1_555 1_555
N1E C1E 1_555 1_555
C5E N1E 1_555 1_555
C4E C3E 1_555 1_555
H3E C4E 1_555 1_555
H4E C5E 1_555 1_555
H1E C1E 1_555 1_555
H2E C2E 1_555 1_555
H5E C6E 1_555 1_555
C6C C6E 1_555 1_555
C3C C6C 1_555 1_555
C2C C3C 1_555 1_555
C1C C2C 1_555 1_555
N1C C1C 1_555 1_555
C5C N1C 1_555 1_555
C4C C3C 1_555 1_555
H3C C4C 1_555 1_555
H4C C5C 1_555 1_555
H1C C1C 1_555 1_555
H2C C2C 1_555 1_555
H5C C6C 1_555 1_555
C6A C6G 1_555 1_555
C3A C6A 1_555 1_555
C2A C3A 1_555 1_555
C1A C2A 1_555 1_555
N1A C1A 1_555 1_555
C5A N1A 1_555 1_555
C4A C3A 1_555 1_555
H3A C4A 1_555 1_555
H4A C5A 1_555 1_555
H1A C1A 1_555 1_555
H2A C2A 1_555 1_555
H5A C6A 1_555 1_555
N1T Ag1 1_555 1_555
C1T N1T 1_555 1_555
H1T C1T 1_555 1_555
C2T C1T 1_555 1_555
H2T C2T 1_555 1_555
C3T C2T 1_555 1_555
C4T C3T 1_555 1_555
H3T C4T 1_555 1_555
C5T N1T 1_555 1_555
H4T C5T 1_555 1_555
C6T C3T 1_555 1_555
H5T C6T 1_555 1_555
C6S C6T 1_555 1_555
C3S C6S 1_555 1_555
C2S C3S 1_555 1_555
C1S C2S 1_555 1_555
N1S C1S 1_555 1_555
C5S N1S 1_555 1_555
C4S C3S 1_555 1_555
H3S C4S 1_555 1_555
H4S C5S 1_555 1_555
H1S C1S 1_555 1_555
H2S C2S 1_555 1_555
H5S C6S 1_555 1_555
C6R C6S 1_555 1_555
C3R C6R 1_555 1_555
C2R C3R 1_555 1_555
C1R C2R 1_555 1_555
N1R C1R 1_555 1_555
C5R N1R 1_555 1_555
C4R C3R 1_555 1_555
H3R C4R 1_555 1_555
H4R C5R 1_555 1_555
H1R C1R 1_555 1_555
H2R C2R 1_555 1_555
H5R C6R 1_555 1_555
C6Q C6T 1_555 1_555
C3Q C6Q 1_555 1_555
C2Q C3Q 1_555 1_555
C1Q C2Q 1_555 1_555
N1Q C1Q 1_555 1_555
C5Q N1Q 1_555 1_555
C4Q C3Q 1_555 1_555
H3Q C4Q 1_555 1_555
H4Q C5Q 1_555 1_555
H1Q C1Q 1_555 1_555
H2Q C2Q 1_555 1_555
H5Q C6Q 1_555 1_555
Ag1B N1B 1_555 1_555
Ag1D N1D 1_555 1_555
Ag1F N1F 1_555 1_555
Ag1E N1E 1_555 1_555
Ag1C N1C 1_555 1_555
Ag1A N1A 1_555 1_555
Ag1S N1S 1_555 1_555
N1E_2 Ag1B 1_555 1_555
C1E_2 N1E_2 1_555 1_555
H1E_2 C1E_2 1_555 1_555
C2E_2 C1E_2 1_555 1_555
H2E_2 C2E_2 1_555 1_555
C3E_2 C2E_2 1_555 1_555
C4E_2 C3E_2 1_555 1_555
H3E_2 C4E_2 1_555 1_555
C5E_2 N1E_2 1_555 1_555
H4E_2 C5E_2 1_555 1_555
C6E_2 C3E_2 1_555 1_555
H5E_2 C6E_2 1_555 1_555
C6G_2 C6E_2 1_555 1_555
C3G_2 C6G_2 1_555 1_555
C2G_2 C3G_2 1_555 1_555
C1G_2 C2G_2 1_555 1_555
N1G_2 C1G_2 1_555 1_555
C5G_2 N1G_2 1_555 1_555
C4G_2 C3G_2 1_555 1_555
H3G_2 C4G_2 1_555 1_555
H4G_2 C5G_2 1_555 1_555
H1G_2 C1G_2 1_555 1_555
H2G_2 C2G_2 1_555 1_555
H5G_2 C6G_2 1_555 1_555
C6A_2 C6G_2 1_555 1_555
C3A_2 C6A_2 1_555 1_555
C2A_2 C3A_2 1_555 1_555
C1A_2 C2A_2 1_555 1_555
N1A_2 C1A_2 1_555 1_555
C5A_2 N1A_2 1_555 1_555
C4A_2 C3A_2 1_555 1_555
H3A_2 C4A_2 1_555 1_555
H4A_2 C5A_2 1_555 1_555
H1A_2 C1A_2 1_555 1_555
H2A_2 C2A_2 1_555 1_555
H5A_2 C6A_2 1_555 1_555
C6C_2 C6E_2 1_555 1_555
C3C_2 C6C_2 1_555 1_555
C2C_2 C3C_2 1_555 1_555
C1C_2 C2C_2 1_555 1_555
N1C_2 C1C_2 1_555 1_555
C5C_2 N1C_2 1_555 1_555
C4C_2 C3C_2 1_555 1_555
H3C_2 C4C_2 1_555 1_555
H4C_2 C5C_2 1_555 1_555
H1C_2 C1C_2 1_555 1_555
H2C_2 C2C_2 1_555 1_555
H5C_2 C6C_2 1_555 1_555
N1R_2 Ag1B 1_555 1_555
C1R_2 N1R_2 1_555 1_555
H1R_2 C1R_2 1_555 1_555
C2R_2 C1R_2 1_555 1_555
H2R_2 C2R_2 1_555 1_555
C3R_2 C2R_2 1_555 1_555
C4R_2 C3R_2 1_555 1_555
H3R_2 C4R_2 1_555 1_555
C5R_2 N1R_2 1_555 1_555
H4R_2 C5R_2 1_555 1_555
C6R_2 C3R_2 1_555 1_555
H5R_2 C6R_2 1_555 1_555
C6Q_2 C6R_2 1_555 1_555
C3Q_2 C6Q_2 1_555 1_555
C2Q_2 C3Q_2 1_555 1_555
C1Q_2 C2Q_2 1_555 1_555
N1Q_2 C1Q_2 1_555 1_555
C5Q_2 N1Q_2 1_555 1_555
C4Q_2 C3Q_2 1_555 1_555
H3Q_2 C4Q_2 1_555 1_555
H4Q_2 C5Q_2 1_555 1_555
H1Q_2 C1Q_2 1_555 1_555
H2Q_2 C2Q_2 1_555 1_555
H5Q_2 C6Q_2 1_555 1_555
C6T_2 C6Q_2 1_555 1_555
C3T_2 C6T_2 1_555 1_555
C2T_2 C3T_2 1_555 1_555
C1T_2 C2T_2 1_555 1_555
N1T_2 C1T_2 1_555 1_555
C5T_2 N1T_2 1_555 1_555
C4T_2 C3T_2 1_555 1_555
H3T_2 C4T_2 1_555 1_555
H4T_2 C5T_2 1_555 1_555
H1T_2 C1T_2 1_555 1_555
H2T_2 C2T_2 1_555 1_555
H5T_2 C6T_2 1_555 1_555
C6S_2 C6R_2 1_555 1_555
C3S_2 C6S_2 1_555 1_555
C2S_2 C3S_2 1_555 1_555
C1S_2 C2S_2 1_555 1_555
N1S_2 C1S_2 1_555 1_555
C5S_2 N1S_2 1_555 1_555
C4S_2 C3S_2 1_555 1_555
H3S_2 C4S_2 1_555 1_555
H4S_2 C5S_2 1_555 1_555
H1S_2 C1S_2 1_555 1_555
H2S_2 C2S_2 1_555 1_555
H5S_2 C6S_2 1_555 1_555
N1A_3 Ag1D 1_555 1_555
C1A_3 N1A_3 1_555 1_555
H1A_3 C1A_3 1_555 1_555
C2A_3 C1A_3 1_555 1_555
H2A_3 C2A_3 1_555 1_555
C3A_3 C2A_3 1_555 1_555
C4A_3 C3A_3 1_555 1_555
H3A_3 C4A_3 1_555 1_555
C5A_3 N1A_3 1_555 1_555
H4A_3 C5A_3 1_555 1_555
C6A_3 C3A_3 1_555 1_555
H5A_3 C6A_3 1_555 1_555
C6C_3 C6A_3 1_555 1_555
C3C_3 C6C_3 1_555 1_555
C2C_3 C3C_3 1_555 1_555
C1C_3 C2C_3 1_555 1_555
N1C_3 C1C_3 1_555 1_555
C5C_3 N1C_3 1_555 1_555
C4C_3 C3C_3 1_555 1_555
H3C_3 C4C_3 1_555 1_555
H4C_3 C5C_3 1_555 1_555
H1C_3 C1C_3 1_555 1_555
H2C_3 C2C_3 1_555 1_555
H5C_3 C6C_3 1_555 1_555
C6E_3 C6C_3 1_555 1_555
C3E_3 C6E_3 1_555 1_555
C2E_3 C3E_3 1_555 1_555
C1E_3 C2E_3 1_555 1_555
N1E_3 C1E_3 1_555 1_555
C5E_3 N1E_3 1_555 1_555
C4E_3 C3E_3 1_555 1_555
H3E_3 C4E_3 1_555 1_555
H4E_3 C5E_3 1_555 1_555
H1E_3 C1E_3 1_555 1_555
H2E_3 C2E_3 1_555 1_555
H5E_3 C6E_3 1_555 1_555
C6G_3 C6A_3 1_555 1_555
C3G_3 C6G_3 1_555 1_555
C2G_3 C3G_3 1_555 1_555
C1G_3 C2G_3 1_555 1_555
N1G_3 C1G_3 1_555 1_555
C5G_3 N1G_3 1_555 1_555
C4G_3 C3G_3 1_555 1_555
H3G_3 C4G_3 1_555 1_555
H4G_3 C5G_3 1_555 1_555
H1G_3 C1G_3 1_555 1_555
H2G_3 C2G_3 1_555 1_555
H5G_3 C6G_3 1_555 1_555
Ag1R N1R 1_555 1_555
Ag1Q N1Q 1_555 1_555
N1S_3 Ag1D 1_555 1_555
N1C_4 Ag1F 1_555 1_555
N1Q_3 Ag1F 1_555 1_555
N1B_2 Ag1E 1_555 1_555
N1W Ag1E 1_555 1_555
N1F_2 Ag1C 1_555 1_555
N1V Ag1C 1_555 1_555
N1D_2 Ag1A 1_555 1_555
N1P Ag1A 1_555 1_555
N1J Ag1S 1_555 1_555
N1D_3 Ag1S 1_555 1_555
Ag1G N1G_2 1_555 1_555
Ag1A_2 N1A_2 1_555 1_555
Ag1C_2 N1C_2 1_555 1_555
Ag1Q_2 N1Q_2 1_555 1_555
Ag1T N1T_2 1_555 1_555
Ag1S_2 N1S_2 1_555 1_555
Ag1C_3 N1C_3 1_555 1_555
Ag1G_2 N1G_3 1_555 1_555
C4 C5 1_555 1_555
C5B C4B 1_555 1_555
C6D C6F 1_555 1_555
C5D C4D 1_555 1_555
C5F C4F 1_555 1_555
C4G C5G 1_555 1_555
C5E C4E 1_555 1_555
C6C C6A 1_555 1_555
C5C C4C 1_555 1_555
C5A C4A 1_555 1_555
C4T C5T 1_555 1_555
C5S C4S 1_555 1_555
C6R C6Q 1_555 1_555
C5R C4R 1_555 1_555
C5Q C4Q 1_555 1_555
C4E_2 C5E_2 1_555 1_555
C5G_2 C4G_2 1_555 1_555
C6A_2 C6C_2 1_555 1_555
C5A_2 C4A_2 1_555 1_555
C5C_2 C4C_2 1_555 1_555
C4R_2 C5R_2 1_555 1_555
C5Q_2 C4Q_2 1_555 1_555
C6T_2 C6S_2 1_555 1_555
C5T_2 C4T_2 1_555 1_555
C5S_2 C4S_2 1_555 1_555
C4A_3 C5A_3 1_555 1_555
C5C_3 C4C_3 1_555 1_555
C6E_3 C6G_3 1_555 1_555
N1E_3 Ag1R 1_555 1_555
C5E_3 C4E_3 1_555 1_555
C5G_3 C4G_3 1_555 1_555

#END
