
#######################################################################
#
#                 Cambridge Crystallographic Data Centre
#                                CCDC 
#
#######################################################################
#
# If this CIF has been generated from an entry in the Cambridge 
# Structural Database, then it will include bibliographic, chemical, 
# crystal, experimental, refinement or atomic coordinate data resulting 
# from the CCDC's data processing and validation procedures.
#
#######################################################################

data_OHASUM
_symmetry_cell_setting           triclinic
_symmetry_space_group_name_H-M   'P -1'
_symmetry_Int_Tables_number      2
_space_group_name_Hall           '-P 1'
loop_
_symmetry_equiv_pos_site_id
_symmetry_equiv_pos_as_xyz
1 x,y,z
2 -x,-y,-z
_cell_length_a                   8.652(3)
_cell_length_b                   10.293(3)
_cell_length_c                   14.164(4)
_cell_angle_alpha                106.843(3)
_cell_angle_beta                 97.861(2)
_cell_angle_gamma                100.576(3)
_cell_volume                     1162.32
loop_
_atom_site_label
_atom_site_type_symbol
_atom_site_fract_x
_atom_site_fract_y
_atom_site_fract_z
Mn1 Mn 0.50234(3) 0.24997(3) 0.492470(19)
Mn2 Mn 1.10024(3) 0.22290(3) 0.602373(18)
Mn3 Mn 0.89808(3) 0.27355(3) 0.397821(18)
P1 P 0.73986(5) 0.54011(5) 0.48886(3)
P2 P 0.73716(5) 0.03582(5) 0.48653(3)
O1 O 0.59395(14) 0.58016(13) 0.44555(9)
O2 O 0.89461(14) 0.61769(13) 0.46824(9)
O3 O 0.72487(14) 0.38212(13) 0.45668(9)
O4 O 0.93612(15) 0.59175(14) 0.66402(9)
H1 H 0.931(3) 0.503(3) 0.6596(17)
O5 O 0.65479(15) 0.79968(14) 0.65236(9)
O6 O 0.92239(15) 0.84123(13) 0.67709(9)
O7 O 0.59262(14) 0.07457(13) 0.43999(9)
O8 O 0.72322(14) -0.12174(13) 0.45838(9)
O9 O 0.89344(14) 0.11223(13) 0.46622(9)
O10 O 0.92907(15) 0.09047(15) 0.66322(9)
H2 H 0.920(3) 0.004(3) 0.6613(19)
O11 O 0.65411(15) 0.30023(14) 0.64048(9)
O12 O 0.92134(14) 0.34011(13) 0.67421(9)
N1 N 1.25452(19) 0.3204(2) 0.75753(12)
N2 N 0.7272(2) 0.16492(19) 0.24958(12)
C1 C 0.7786(2) 0.60596(19) 0.62770(12)
H3 H 0.700(2) 0.563(2) 0.6529(15)
C2 C 0.7841(2) 0.76104(19) 0.65623(12)
C3 C 0.7732(2) 0.10578(19) 0.62496(12)
H4 H 0.686(2) 0.065(2) 0.6504(14)
C4 C 0.7824(2) 0.26076(19) 0.65058(12)
C5 C 1.4112(3) 0.3464(4) 0.77298(17)
H5 H 1.452(3) 0.316(3) 0.718(2)
C6 C 1.5117(3) 0.4161(4) 0.86575(17)
H6 H 1.627(4) 0.440(4) 0.872(3)
C7 C 1.4486(2) 0.4617(2) 0.94925(14)
C8 C 1.2846(3) 0.4294(4) 0.93390(16)
H7 H 1.238(4) 0.457(3) 0.992(2)
C9 C 1.1929(3) 0.3591(3) 0.83892(16)
H8 H 1.072(4) 0.323(4) 0.826(3)
C10 C 0.6411(4) 0.2314(3) 0.20321(19)
H9 H 0.639(4) 0.326(4) 0.242(2)
C11 C 0.5524(4) 0.1708(3) 0.1064(2)
H10 H 0.494(4) 0.227(3) 0.080(2)
C12 C 0.5464(3) 0.0343(2) 0.05270(14)
C13 C 0.6326(3) -0.0347(3) 0.10215(18)
H11 H 0.634(3) -0.129(3) 0.067(2)
C14 C 0.7201(3) 0.0335(3) 0.19900(18)
H12 H 0.791(3) -0.019(3) 0.2298(19)
Mn1A Mn 0.49766(3) 0.75003(3) 0.507530(19)
Mn1A_2 Mn 0.49766(3) -0.24997(3) 0.507530(19)
Mn2A Mn -0.10024(3) -0.22290(3) 0.397627(18)
Mn2A_2 Mn 0.89976(3) 0.77710(3) 0.397627(18)
Mn2A_3 Mn 0.89976(3) -0.22290(3) 0.397627(18)
Mn2A_4 Mn 1.89976(3) 0.77710(3) 1.397627(18)
Mn2_2 Mn 0.10024(3) 0.22290(3) 0.602373(18)
Mn3A Mn 0.10192(3) 0.72645(3) 0.602179(18)
Mn3A_2 Mn 1.10192(3) 0.72645(3) 0.602179(18)
Mn3A_3 Mn 0.10192(3) -0.27355(3) -0.397821(18)
Mn3_2 Mn -0.10192(3) 0.27355(3) 0.397821(18)
Mn3A_4 Mn 0.10192(3) -0.27355(3) 0.602179(18)
P1A P 0.26014(5) 0.45989(5) 0.51114(3)
P2A P 0.26284(5) -0.03582(5) 0.51347(3)
O1A O 0.40605(14) 0.41984(13) 0.55445(9)
O2A O 0.10539(14) 0.38231(13) 0.53176(9)
O2A_2 O 1.10539(14) 0.38231(13) 0.53176(9)
O2_2 O -0.10539(14) -0.38231(13) 0.46824(9)
O2_3 O -0.10539(14) 0.61769(13) 0.46824(9)
O3A O 0.27513(14) 0.61788(13) 0.54332(9)
O4A O 0.06388(15) 0.40825(14) 0.33598(9)
O4A_2 O 1.06388(15) 0.40825(14) 0.33598(9)
O4_2 O -0.06388(15) 0.59175(14) 0.66402(9)
H1A H 0.069(3) 0.497(3) 0.3404(17)
H1A_2 H 1.069(3) 0.497(3) 0.3404(17)
H1_2 H -0.069(3) 0.503(3) 0.6596(17)
O5A O 0.34521(15) 0.20032(14) 0.34764(9)
O6A O 0.07761(15) 0.15877(13) 0.32291(9)
O6A_2 O 1.07761(15) 0.15877(13) 0.32291(9)
O6_2 O -0.07761(15) 0.84123(13) 0.67709(9)
O7A O 0.40738(14) -0.07457(13) 0.56001(9)
O7A_2 O 0.40738(14) 0.92543(13) 0.56001(9)
O8A O 0.27678(14) 0.12174(13) 0.54162(9)
O8A_2 O 1.27678(14) 0.12174(13) 0.54162(9)
O8_2 O 0.72322(14) 0.87826(13) 0.45838(9)
O8_3 O -0.27678(14) -0.12174(13) 0.45838(9)
O9A O 0.10656(14) -0.11223(13) 0.53378(9)
O9A_2 O 0.10656(14) 0.88777(13) 0.53378(9)
O10A O 0.07093(15) -0.09047(15) 0.33678(9)
H2A H 0.080(3) -0.004(3) 0.3387(19)
O11A O 0.34589(15) -0.30023(14) 0.35952(9)
O11A_2 O 0.34589(15) 0.69977(14) 0.35952(9)
O12A O 0.07866(14) -0.34011(13) 0.32579(9)
N1A N 1.74548(19) 0.6796(2) 1.24247(12)
N1A_2 N -0.25452(19) -0.3204(2) 0.24247(12)
N2A N 0.2728(2) -0.16492(19) -0.24958(12)
N2A_2 N 0.2728(2) 0.83508(19) 0.75042(12)
C1A C 0.2214(2) 0.39404(19) 0.37230(12)
H3A H 0.300(2) 0.437(2) 0.3471(15)
C2A C 0.2159(2) 0.23896(19) 0.34377(12)
C3A C 0.2268(2) -0.10578(19) 0.37504(12)
H4A H 0.314(2) -0.065(2) 0.3496(14)
C4A C 0.2176(2) -0.26076(19) 0.34942(12)
C5A C 1.5888(3) 0.6536(4) 1.22702(17)
H5A H 1.548(3) 0.684(3) 1.282(2)
C6A C 1.4883(3) 0.5839(4) 1.13425(17)
H6A H 1.373(4) 0.560(4) 1.128(3)
C7A C 1.5514(2) 0.5383(2) 1.05075(14)
C8A C 1.7154(3) 0.5706(4) 1.06610(16)
H7A H 1.762(4) 0.543(3) 1.008(2)
C9A C 1.8071(3) 0.6409(3) 1.16108(16)
H8A H 1.928(4) 0.677(4) 1.174(3)
C10A C 0.3589(4) -0.2314(3) -0.20321(19)
H9A H 0.361(4) -0.326(4) -0.242(2)
C11A C 0.4476(4) -0.1708(3) -0.1064(2)
H10A H 0.506(4) -0.227(3) -0.080(2)
C12A C 0.4536(3) -0.0343(2) -0.05270(14)
C13A C 0.3674(3) 0.0347(3) -0.10215(18)
H11A H 0.366(3) 0.129(3) -0.067(2)
C14A C 0.2799(3) -0.0335(3) -0.19900(18)
H12A H 0.209(3) 0.019(3) -0.2298(19)
N3 N 0.8661(4) 0.2958(4) -0.0287(2)
C15 C 0.9588(5) 0.3001(5) 0.0563(3)
H13 H 0.983(5) 0.402(5) 0.112(3)
C16 C 1.0109(5) 0.1890(4) 0.0709(3)
H14 H 1.081(4) 0.200(4) 0.135(2)
C17 C 0.9726(3) 0.0617(3) -0.00594(19)
C18 C 0.8757(5) 0.0580(5) -0.0939(2)
H15 H 0.842(4) -0.028(4) -0.146(3)
C19 C 0.8265(5) 0.1742(5) -0.1007(3)
H16 H 0.762(4) 0.169(4) -0.166(3)
N3A N 1.1339(4) -0.2958(4) 0.0287(2)
C15A C 1.0412(5) -0.3001(5) -0.0563(3)
H13A H 1.017(5) -0.402(5) -0.112(3)
C16A C 0.9891(5) -0.1890(4) -0.0709(3)
H14A H 0.919(4) -0.200(4) -0.135(2)
C17A C 1.0274(3) -0.0617(3) 0.00594(19)
C18A C 1.1243(5) -0.0580(5) 0.0939(2)
H15A H 1.158(4) 0.028(4) 0.146(3)
C19A C 1.1735(5) -0.1742(5) 0.1007(3)
H16A H 1.238(4) -0.169(4) 0.166(3)
loop_
_geom_bond_atom_site_label_1
_geom_bond_atom_site_label_2
_geom_bond_site_symmetry_1
_geom_bond_site_symmetry_2
Mn1 O3 1_555 1_555
Mn2 O9 1_555 1_555
Mn3 O3 1_555 1_555
P1 O1 1_555 1_555
P2 O7 1_555 1_555
O1 Mn1A 1_555 1_555
O2 P1 1_555 1_555
O3 P1 1_555 1_555
O4 H1 1_555 1_555
O5 C2 1_555 1_555
O6 C2 1_555 1_555
O7 Mn1 1_555 1_555
O8 P2 1_555 1_555
O9 Mn3 1_555 1_555
O10 Mn2 1_555 1_555
H2 O10 1_555 1_555
O11 Mn1 1_555 1_555
O12 Mn2 1_555 1_555
N1 Mn2 1_555 1_555
N2 Mn3 1_555 1_555
C1 P1 1_555 1_555
H3 C1 1_555 1_555
C2 C1 1_555 1_555
C3 P2 1_555 1_555
H4 C3 1_555 1_555
C4 O11 1_555 1_555
C5 N1 1_555 1_555
H5 C5 1_555 1_555
C6 C5 1_555 1_555
H6 C6 1_555 1_555
C7 C6 1_555 1_555
C8 C7 1_555 1_555
H7 C8 1_555 1_555
C9 N1 1_555 1_555
H8 C9 1_555 1_555
C10 N2 1_555 1_555
H9 C10 1_555 1_555
C11 C10 1_555 1_555
H10 C11 1_555 1_555
C12 C11 1_555 1_555
C13 C12 1_555 1_555
H11 C13 1_555 1_555
C14 N2 1_555 1_555
H12 C14 1_555 1_555
N3 C15 1_555 1_555
C15 H13 1_555 1_555
C16 C15 1_555 1_555
H14 C16 1_555 1_555
C17 C16 1_555 1_555
C18 C17 1_555 1_555
H15 C18 1_555 1_555
C19 N3 1_555 1_555
H16 C19 1_555 1_555
Mn1A O5 1_555 1_555
Mn1A_2 O8 1_555 1_555
Mn2A O2_2 1_555 1_555
Mn2A_2 O2 1_555 1_555
Mn2A_3 O8 1_555 1_555
Mn2A_4 N1A 1_555 1_555
Mn2_2 O2A 1_555 1_555
Mn3A O2_3 1_555 1_555
Mn3A_2 O2 1_555 1_555
Mn3A_3 N2A 1_555 1_555
Mn3_2 O2A 1_555 1_555
Mn3A_4 O2_2 1_555 1_555
P1A O1A 1_555 1_555
P2A O7A 1_555 1_555
O1A Mn1 1_555 1_555
O2A P1A 1_555 1_555
O2A_2 Mn2 1_555 1_555
O3A Mn1A 1_555 1_555
O4A Mn3_2 1_555 1_555
O4A_2 Mn3 1_555 1_555
O4_2 Mn3A 1_555 1_555
H1A O4A 1_555 1_555
H1A_2 O4A_2 1_555 1_555
H1_2 O4_2 1_555 1_555
O5A Mn1 1_555 1_555
O6A Mn3_2 1_555 1_555
O6A_2 Mn3 1_555 1_555
O6_2 Mn3A 1_555 1_555
O7A Mn1A_2 1_555 1_555
O7A_2 Mn1A 1_555 1_555
O8A Mn1 1_555 1_555
O8A_2 Mn2 1_555 1_555
O8_2 Mn1A 1_555 1_555
O8_3 Mn2A 1_555 1_555
O9A Mn2A 1_555 1_555
O9A_2 Mn3A 1_555 1_555
O10A Mn2A 1_555 1_555
H2A O10A 1_555 1_555
O11A Mn1A_2 1_555 1_555
O11A_2 Mn1A 1_555 1_555
O12A Mn2A 1_555 1_555
N1A C5A 1_555 1_555
N1A_2 Mn2A 1_555 1_555
N2A C10A 1_555 1_555
N2A_2 Mn3A 1_555 1_555
C1A P1A 1_555 1_555
H3A C1A 1_555 1_555
C2A O5A 1_555 1_555
C3A P2A 1_555 1_555
H4A C3A 1_555 1_555
C4A O11A 1_555 1_555
C5A H5A 1_555 1_555
C6A C5A 1_555 1_555
H6A C6A 1_555 1_555
C7A C7 1_555 1_555
C8A C7A 1_555 1_555
H7A C8A 1_555 1_555
C9A N1A 1_555 1_555
H8A C9A 1_555 1_555
C10A H9A 1_555 1_555
C11A C10A 1_555 1_555
H10A C11A 1_555 1_555
C12A C12 1_555 1_555
C13A C12A 1_555 1_555
H11A C13A 1_555 1_555
C14A N2A 1_555 1_555
H12A C14A 1_555 1_555
N3A C15A 1_555 1_555
C15A H13A 1_555 1_555
C16A C15A 1_555 1_555
H14A C16A 1_555 1_555
C17A C17 1_555 1_555
C18A C17A 1_555 1_555
H15A C18A 1_555 1_555
C19A N3A 1_555 1_555
H16A C19A 1_555 1_555
Mn3 O2A_2 1_555 1_555
P2 O9 1_555 1_555
O4 C1 1_555 1_555
O4 Mn3A_2 1_555 1_555
O6 Mn3A_2 1_555 1_555
O10 C3 1_555 1_555
O12 C4 1_555 1_555
C3 C4 1_555 1_555
C8 C9 1_555 1_555
C13 C14 1_555 1_555
C18 C19 1_555 1_555
Mn2A_2 O8_2 1_555 1_555
Mn2_2 O8A 1_555 1_555
Mn3A O3A 1_555 1_555
Mn3A_4 O9A 1_555 1_555
P1A O3A 1_555 1_555
P2A O8A 1_555 1_555
P2A O9A 1_555 1_555
O4A C1A 1_555 1_555
O6A C2A 1_555 1_555
O10A C3A 1_555 1_555
O12A C4A 1_555 1_555
C1A C2A 1_555 1_555
C3A C4A 1_555 1_555
C6A C7A 1_555 1_555
C8A C9A 1_555 1_555
C11A C12A 1_555 1_555
C13A C14A 1_555 1_555
C16A C17A 1_555 1_555
C18A C19A 1_555 1_555

#END
