
#######################################################################
#
#                 Cambridge Crystallographic Data Centre
#                                CCDC 
#
#######################################################################
#
# If this CIF has been generated from an entry in the Cambridge 
# Structural Database, then it will include bibliographic, chemical, 
# crystal, experimental, refinement or atomic coordinate data resulting 
# from the CCDC's data processing and validation procedures.
#
#######################################################################

data_OHASEW
_symmetry_cell_setting           tetragonal
_symmetry_space_group_name_H-M   'P 43 21 2'
_symmetry_Int_Tables_number      96
_space_group_name_Hall           'P 4nw 2abw'
loop_
_symmetry_equiv_pos_site_id
_symmetry_equiv_pos_as_xyz
1 x,y,z
2 -x,-y,1/2+z
3 1/2-y,1/2+x,3/4+z
4 1/2+y,1/2-x,1/4+z
5 1/2-x,1/2+y,3/4-z
6 1/2+x,1/2-y,1/4-z
7 y,x,-z
8 -y,-x,1/2-z
_cell_length_a                   11.6004(13)
_cell_length_b                   11.6004(13)
_cell_length_c                   31.419(5)
_cell_angle_alpha                90
_cell_angle_beta                 90
_cell_angle_gamma                90
_cell_volume                     4228.03
loop_
_atom_site_label
_atom_site_type_symbol
_atom_site_fract_x
_atom_site_fract_y
_atom_site_fract_z
Co1 Co 0.11903(3) 0.94012(3) 0.035648(11)
C1 C -0.1425(2) 1.0051(2) 0.04004(8)
C2 C -0.2355(2) 0.9528(2) 0.06706(8)
C3 C -0.2123(2) 0.8585(2) 0.09295(8)
H1 H -0.1379 0.8290 0.0948
C4 C -0.3019(2) 0.8084(2) 0.11622(8)
C5 C -0.4114(2) 0.8553(2) 0.11458(8)
H2 H -0.4704 0.8228 0.1307
C6 C -0.4339(2) 0.9504(2) 0.08909(8)
C7 C -0.3459(2) 0.9985(2) 0.06511(9)
H3 H -0.3609 1.0616 0.0477
C8 C -0.2791(2) 0.7025(2) 0.14296(9)
C9 C 0.1377(3) 1.1395(3) 0.10222(10)
H4 H 0.0729 1.1066 0.1147
C10 C 0.1858(3) 1.2388(3) 0.12059(12)
H5 H 0.1532 1.2709 0.1449
C11 C 0.2812(3) 1.2879(3) 0.10249(11)
H6 H 0.3141 1.3534 0.1145
C12 C 0.3288(2) 1.2389(2) 0.06583(9)
C13 C 0.4299(2) 1.2853(2) 0.04449(9)
C14 C 0.5726(3) 1.4212(3) 0.03998(10)
C15 C 0.6296(3) 1.5204(3) 0.05577(11)
H7 H 0.6022 1.5571 0.0801
C16 C 0.7235(4) 1.5616(4) 0.03560(13)
H8 H 0.7619 1.6254 0.0466
C17 C 0.7641(4) 1.5089(4) -0.00191(14)
H9 H 0.8277 1.5398 -0.0158
C18 C 0.7120(3) 1.4138(3) -0.01808(12)
H10 H 0.7403 1.3800 -0.0428
C19 C 0.6157(3) 1.3664(3) 0.00235(10)
C20 C 0.4730(2) 1.2310(2) 0.00706(9)
C21 C 0.4162(2) 1.1275(3) -0.00919(8)
C22 C 0.4532(3) 1.0699(3) -0.04588(10)
H11 H 0.5175 1.0958 -0.0608
C23 C 0.3934(4) 0.9749(4) -0.05958(11)
H12 H 0.4168 0.9356 -0.0839
C24 C 0.2982(3) 0.9379(3) -0.03691(10)
H13 H 0.2586 0.8733 -0.0465
C25 C 0.3196(2) 1.0846(2) 0.01167(8)
C26 C 0.2752(2) 1.1404(2) 0.04984(8)
N1 N 0.18165(19) 1.09110(19) 0.06755(7)
N2 N 0.2607(2) 0.9906(2) -0.00195(7)
N3 N 0.4790(2) 1.3793(2) 0.06051(8)
N4 N 0.5649(2) 1.2709(2) -0.01338(8)
O1 O -0.17419(18) 1.0607(2) 0.00767(6)
O2 O -0.04036(16) 0.9937(2) 0.05158(6)
O3 O -0.18735(18) 0.6504(2) 0.13713(8)
O4 O -0.35633(18) 0.67476(18) 0.16907(6)
O5 O -0.54010(16) 1.0000(2) 0.08598(7)
H14 H -0.5892 0.9544 0.0943
Co1F Co -0.05988(3) 1.11903(3) -0.035648(11)
Co1E Co -0.38097(3) 0.55988(3) 0.214352(11)
O1F O 0.0607(2) 0.82581(18) -0.00767(6)
O4E O 0.14367(18) 0.82524(18) 0.08093(6)
loop_
_geom_bond_atom_site_label_1
_geom_bond_atom_site_label_2
_geom_bond_site_symmetry_1
_geom_bond_site_symmetry_2
Co1 N1 1_555 1_555
C1 C2 1_555 1_555
C2 C3 1_555 1_555
C3 H1 1_555 1_555
C4 C3 1_555 1_555
C5 C4 1_555 1_555
H2 C5 1_555 1_555
C6 C5 1_555 1_555
C7 C2 1_555 1_555
H3 C7 1_555 1_555
C8 C4 1_555 1_555
C9 H4 1_555 1_555
C10 C9 1_555 1_555
H5 C10 1_555 1_555
C11 C10 1_555 1_555
H6 C11 1_555 1_555
C12 C11 1_555 1_555
C13 C12 1_555 1_555
C14 C15 1_555 1_555
C15 H7 1_555 1_555
C16 C15 1_555 1_555
H8 C16 1_555 1_555
C17 C16 1_555 1_555
H9 C17 1_555 1_555
C18 C17 1_555 1_555
H10 C18 1_555 1_555
C19 C14 1_555 1_555
C20 C13 1_555 1_555
C21 C20 1_555 1_555
C22 C21 1_555 1_555
H11 C22 1_555 1_555
C23 C22 1_555 1_555
H12 C23 1_555 1_555
C24 C23 1_555 1_555
H13 C24 1_555 1_555
C25 C21 1_555 1_555
C26 C12 1_555 1_555
N1 C9 1_555 1_555
N2 Co1 1_555 1_555
N3 C13 1_555 1_555
N4 C19 1_555 1_555
O1 C1 1_555 1_555
O2 Co1 1_555 1_555
O3 C8 1_555 1_555
O4 C8 1_555 1_555
O5 C6 1_555 1_555
H14 O5 1_555 1_555
Co1F O1 1_555 1_555
Co1E O4 1_555 1_555
O1F Co1 1_555 1_555
O4E Co1 1_555 1_555
C1 O2 1_555 1_555
C6 C7 1_555 1_555
C14 N3 1_555 1_555
C18 C19 1_555 1_555
C20 N4 1_555 1_555
C24 N2 1_555 1_555
C25 C26 1_555 1_555
C25 N2 1_555 1_555
C26 N1 1_555 1_555

#END
