
#######################################################################
#
#                 Cambridge Crystallographic Data Centre
#                                CCDC 
#
#######################################################################
#
# If this CIF has been generated from an entry in the Cambridge 
# Structural Database, then it will include bibliographic, chemical, 
# crystal, experimental, refinement or atomic coordinate data resulting 
# from the CCDC's data processing and validation procedures.
#
#######################################################################

data_OHAWAW
_symmetry_cell_setting           monoclinic
_symmetry_space_group_name_H-M   'P 21/n'
_symmetry_Int_Tables_number      14
_space_group_name_Hall           '-P 2yn'
loop_
_symmetry_equiv_pos_site_id
_symmetry_equiv_pos_as_xyz
1 x,y,z
2 1/2-x,1/2+y,1/2-z
3 -x,-y,-z
4 1/2+x,1/2-y,1/2+z
_cell_length_a                   9.5132(17)
_cell_length_b                   17.434(3)
_cell_length_c                   10.991(2)
_cell_angle_alpha                90
_cell_angle_beta                 91.767(3)
_cell_angle_gamma                90
_cell_volume                     1822.02
loop_
_atom_site_label
_atom_site_type_symbol
_atom_site_fract_x
_atom_site_fract_y
_atom_site_fract_z
Co1 Co 0.31689(6) 0.20242(3) 0.76279(5)
S1 S 0.49285(19) 0.38949(10) 0.51302(13)
S2 S 0.52536(15) 0.36071(8) 0.78488(11)
S3 S 1.08575(14) 0.34979(7) 0.73826(11)
S4 S 1.13583(17) 0.39272(9) 1.00344(12)
O1 O 0.5185(3) 0.1754(2) 0.8301(3)
O2 O 0.5694(4) 0.0858(2) 0.9611(3)
O3 O 0.3529(4) 0.1087(2) 0.9034(3)
O4 O 0.1209(3) 0.1630(2) 0.6932(3)
O5 O 0.0939(4) 0.0683(2) 0.5670(4)
O6 O 0.3027(4) 0.10457(19) 0.6290(3)
N1 N 0.3785(3) 0.2761(2) 0.6282(3)
N2 N 1.2475(4) 0.2751(2) 0.8956(3)
N3 N 0.4824(5) 0.1217(2) 0.9008(3)
N4 N 0.1711(5) 0.1097(2) 0.6273(4)
C1 C 0.3302(6) 0.2643(3) 0.5010(4)
H1 H 0.2283 0.2626 0.4967
H2 H 0.3652 0.2155 0.4721
C2 C 0.3819(5) 0.3286(3) 0.4199(4)
H3 H 0.3028 0.3576 0.3861
H4 H 0.4343 0.3076 0.3533
C3 C 0.4564(5) 0.3358(3) 0.6417(4)
C4 C 0.6045(5) 0.4543(3) 0.7648(5)
H5 H 0.5460 0.4834 0.7075
H6 H 0.6046 0.4812 0.8421
C5 C 0.7515(5) 0.4533(2) 0.7201(4)
H7 H 0.7645 0.4576 0.6369
C6 C 0.8627(5) 0.4466(2) 0.7924(4)
H8 H 0.8494 0.4423 0.8756
C7 C 1.0093(5) 0.4455(3) 0.7488(4)
H9 H 1.0680 0.4762 0.8036
H10 H 1.0102 0.4694 0.6691
C8 C 1.1659(4) 0.3329(3) 0.8798(4)
C9 C 1.3018(6) 0.2699(3) 1.0229(4)
H11 H 1.4037 0.2668 1.0237
H12 H 1.2665 0.2234 1.0598
C10 C 1.2584(6) 0.3377(4) 1.0955(4)
H13 H 1.3398 0.3687 1.1178
H14 H 1.2145 0.3210 1.1695
Co1_2 Co 1.31689(6) 0.20242(3) 0.76279(5)
N2_2 N 0.2475(4) 0.2751(2) 0.8956(3)
loop_
_geom_bond_atom_site_label_1
_geom_bond_atom_site_label_2
_geom_bond_site_symmetry_1
_geom_bond_site_symmetry_2
Co1 O1 1_555 1_555
S1 C2 1_555 1_555
S2 C3 1_555 1_555
S3 C7 1_555 1_555
S4 C8 1_555 1_555
O1 N3 1_555 1_555
O2 N3 1_555 1_555
O3 Co1 1_555 1_555
O4 Co1 1_555 1_555
O5 N4 1_555 1_555
O6 Co1 1_555 1_555
N1 Co1 1_555 1_555
N2 C8 1_555 1_555
N3 O3 1_555 1_555
N4 O4 1_555 1_555
C1 N1 1_555 1_555
H1 C1 1_555 1_555
H2 C1 1_555 1_555
C2 C1 1_555 1_555
H3 C2 1_555 1_555
H4 C2 1_555 1_555
C3 S1 1_555 1_555
C4 S2 1_555 1_555
H5 C4 1_555 1_555
H6 C4 1_555 1_555
C5 C4 1_555 1_555
H7 C5 1_555 1_555
C6 C5 1_555 1_555
H8 C6 1_555 1_555
C7 C6 1_555 1_555
H9 C7 1_555 1_555
H10 C7 1_555 1_555
C8 S3 1_555 1_555
C9 N2 1_555 1_555
H11 C9 1_555 1_555
H12 C9 1_555 1_555
C10 S4 1_555 1_555
H13 C10 1_555 1_555
H14 C10 1_555 1_555
Co1_2 N2 1_555 1_555
N2_2 Co1 1_555 1_555
O6 N4 1_555 1_555
N1 C3 1_555 1_555
C9 C10 1_555 1_555

#END
