
#######################################################################
#
#                 Cambridge Crystallographic Data Centre
#                                CCDC 
#
#######################################################################
#
# If this CIF has been generated from an entry in the Cambridge 
# Structural Database, then it will include bibliographic, chemical, 
# crystal, experimental, refinement or atomic coordinate data resulting 
# from the CCDC's data processing and validation procedures.
#
#######################################################################

data_OHAYAY
_symmetry_cell_setting           orthorhombic
_symmetry_space_group_name_H-M   'P 21 21 21'
_symmetry_Int_Tables_number      19
_space_group_name_Hall           'P 2ac 2ab'
loop_
_symmetry_equiv_pos_site_id
_symmetry_equiv_pos_as_xyz
1 x,y,z
2 1/2+x,1/2-y,-z
3 -x,1/2+y,1/2-z
4 1/2-x,-y,1/2+z
_cell_length_a                   15.0833(11)
_cell_length_b                   12.1396(3)
_cell_length_c                   8.7075(3)
_cell_angle_alpha                90
_cell_angle_beta                 90
_cell_angle_gamma                90
_cell_volume                     1594.39
loop_
_atom_site_label
_atom_site_type_symbol
_atom_site_fract_x
_atom_site_fract_y
_atom_site_fract_z
Cu1 Cu -0.41066(13) -0.10246(6) -0.55886(11)
Cu2 Cu -0.41526(13) -0.33892(6) -0.55665(11)
C1 C -0.5627(5) -0.2160(4) -0.6635(5)
C2 C -0.5985(8) -0.1141(5) -0.7462(7)
C3 C -0.5772(7) -0.0077(4) -0.6666(9)
C4 C -0.5904(5) -0.2152(6) -0.4922(5)
C5 C -0.3571(6) 0.0844(6) -0.3568(8)
C6 C -0.6036(8) -0.3170(5) -0.7398(8)
C7 C -0.5888(6) -0.4238(4) -0.6523(8)
C8 C -0.3623(7) -0.5327(6) -0.3699(10)
N1 N -0.3371(7) 0.0083(4) -0.4590(7)
N2 N -0.4358(7) 0.1343(5) -0.3580(8)
N3 N -0.3003(9) 0.1098(7) -0.2432(9)
N4 N -0.3417(7) -0.4527(5) -0.4663(8)
N5 N -0.4465(8) -0.5540(6) -0.3388(9)
N6 N -0.2987(10) -0.5961(10) -0.3062(14)
O1 O -0.4686(5) -0.2207(4) -0.6739(5)
O2 O -0.5119(6) -0.0040(4) -0.5764(6)
O3 O -0.6276(6) 0.0705(4) -0.6819(6)
O4 O -0.5313(5) -0.2221(5) -0.3934(5)
O5 O -0.6701(6) -0.2117(6) -0.4649(6)
O6 O -0.3362(7) -0.2231(5) -0.4952(5)
O7 O -0.5179(5) -0.4339(4) -0.5729(6)
O8 O -0.6454(6) -0.4981(4) -0.6606(7)
H1 H -0.2794 -0.2215 -0.4945
H2 H -0.2846 0.0043 -0.4818
H3 H -0.4487 0.1866 -0.2921
H4 H -0.4772 0.1128 -0.4248
H5 H -0.3143 0.1636 -0.1778
H6 H -0.2517 0.0735 -0.2332
H7 H -0.2896 -0.4553 -0.4948
H8 H -0.2434 -0.5841 -0.3381
H9 H -0.3117 -0.6481 -0.2451
H10 H -0.4598 -0.6086 -0.2733
H11 H -0.4894 -0.5187 -0.3842
H12 H -0.5729 -0.1126 -0.8511
H13 H -0.6640 -0.1215 -0.7541
H14 H -0.5763 -0.3263 -0.8431
H15 H -0.6679 -0.3054 -0.7514
Cu1B Cu -0.58934(13) -0.60246(6) -0.94114(11)
Cu2B Cu -0.58474(13) 0.16108(6) -0.94335(11)
O3B O -0.3724(6) -0.4295(4) -0.8181(6)
O8B O -0.3546(6) 0.0019(4) -0.8394(7)
C9 C -0.3562(9) -0.2267(5) -0.0920(6)
N7 N -0.3429(10) -0.1422(5) -0.1768(9)
N8 N -0.3494(10) -0.3270(5) -0.1518(9)
N9 N -0.3770(7) -0.2144(5) 0.0508(6)
H16 H -0.3449 -0.0750 -0.1371
H17 H -0.3280 -0.1500 -0.2744
H18 H -0.3808 -0.1482 0.0918
H19 H -0.3880 -0.2728 0.1086
H20 H -0.3601 -0.3858 -0.0939
H21 H -0.3339 -0.3364 -0.2483
loop_
_geom_bond_atom_site_label_1
_geom_bond_atom_site_label_2
_geom_bond_site_symmetry_1
_geom_bond_site_symmetry_2
Cu1 N1 1_555 1_555
Cu2 N4 1_555 1_555
C1 C2 1_555 1_555
C2 C3 1_555 1_555
C3 O2 1_555 1_555
C4 C1 1_555 1_555
C5 N1 1_555 1_555
C6 C1 1_555 1_555
C7 C6 1_555 1_555
C8 N4 1_555 1_555
N1 H2 1_555 1_555
N2 C5 1_555 1_555
N3 C5 1_555 1_555
N4 H7 1_555 1_555
N5 C8 1_555 1_555
N6 C8 1_555 1_555
O1 Cu1 1_555 1_555
O2 Cu1 1_555 1_555
O3 C3 1_555 1_555
O4 Cu1 1_555 1_555
O5 C4 1_555 1_555
O6 Cu1 1_555 1_555
O7 Cu2 1_555 1_555
O8 C7 1_555 1_555
H1 O6 1_555 1_555
H3 N2 1_555 1_555
H4 N2 1_555 1_555
H5 N3 1_555 1_555
H6 N3 1_555 1_555
H8 N6 1_555 1_555
H9 N6 1_555 1_555
H10 N5 1_555 1_555
H11 N5 1_555 1_555
H12 C2 1_555 1_555
H13 C2 1_555 1_555
H14 C6 1_555 1_555
H15 C6 1_555 1_555
C9 N7 1_555 1_555
N7 H16 1_555 1_555
N8 C9 1_555 1_555
N9 C9 1_555 1_555
H17 N7 1_555 1_555
H18 N9 1_555 1_555
H19 N9 1_555 1_555
H20 N8 1_555 1_555
H21 N8 1_555 1_555
Cu1B O8 1_555 1_555
Cu2B O3 1_555 1_555
O3B Cu2 1_555 1_555
O8B Cu1 1_555 1_555
Cu2 O1 1_555 1_555
Cu2 O4 1_555 1_555
Cu2 O6 1_555 1_555
C1 O1 1_555 1_555
C4 O4 1_555 1_555
C7 O7 1_555 1_555

#END
