
#######################################################################
#
#                 Cambridge Crystallographic Data Centre
#                                CCDC 
#
#######################################################################
#
# If this CIF has been generated from an entry in the Cambridge 
# Structural Database, then it will include bibliographic, chemical, 
# crystal, experimental, refinement or atomic coordinate data resulting 
# from the CCDC's data processing and validation procedures.
#
#######################################################################

data_OHAYON
_symmetry_cell_setting           triclinic
_symmetry_space_group_name_H-M   'P -1'
_symmetry_Int_Tables_number      2
_space_group_name_Hall           '-P 1'
loop_
_symmetry_equiv_pos_site_id
_symmetry_equiv_pos_as_xyz
1 x,y,z
2 -x,-y,-z
_cell_length_a                   8.2953(2)
_cell_length_b                   10.6258(5)
_cell_length_c                   12.4574(4)
_cell_angle_alpha                83.389(6)
_cell_angle_beta                 81.479(3)
_cell_angle_gamma                84.419(4)
_cell_volume                     1075.11
loop_
_atom_site_label
_atom_site_type_symbol
_atom_site_fract_x
_atom_site_fract_y
_atom_site_fract_z
C1 C 0.8233(17) 0.3154(12) 0.5700(10)
H1 H 0.8965 0.3484 0.5121
C2 C 0.6281(18) 0.1690(14) 0.6475(12)
H2 H 0.5634 0.1036 0.6431
C3 C 0.6163(19) 0.2223(14) 0.7438(11)
H3 H 0.5497 0.1863 0.8040
C4 C 0.8007(19) 0.3670(14) 0.6675(11)
H4 H 0.8593 0.4353 0.6744
C5 C 0.8250(16) 0.0373(12) 0.2676(10)
C6 C 0.7340(17) 0.2103(11) 0.5570(10)
C7 C 0.702(2) 0.0349(14) 0.1989(12)
H5 H 0.5989 0.0772 0.2142
C8 C 0.743(2) -0.0338(16) 0.1074(12)
H6 H 0.6636 -0.0323 0.0615
C9 C 0.995(2) -0.0945(13) 0.1468(12)
H7 H 1.0966 -0.1383 0.1307
C10 C 0.968(2) -0.0274(14) 0.2381(12)
H8 H 1.0525 -0.0275 0.2798
Hg1 Hg 0.77626(7) 0.12386(5) 0.41239(4)
N1 N 0.6931(16) 0.3207(12) 0.7565(9)
N2 N 0.8828(15) -0.1000(11) 0.0807(9)
Cl1 Cl 0.7752(5) -0.2167(4) 0.6186(3)
O1 O 0.726(3) -0.3150(16) 0.5710(12)
O2 O 0.9041(19) -0.2822(19) 0.6790(14)
O3 O 0.8595(15) -0.1241(13) 0.5477(13)
O4 O 0.655(2) -0.1719(15) 0.6993(15)
C11 C 0.7536(15) 0.4092(10) 0.1839(9)
H9 H 0.7505 0.3452 0.1394
C12 C 0.6473(14) 0.4069(11) 0.2806(9)
H10 H 0.5745 0.3440 0.2986
C13 C 0.8626(14) 0.5880(12) 0.2159(9)
H11 H 0.9337 0.6514 0.1937
C14 C 0.7644(16) 0.5927(11) 0.3160(8)
H12 H 0.7734 0.6563 0.3597
C15 C 1.3385(18) 0.4329(14) 0.1042(12)
H13 H 1.3034 0.4103 0.1812
H14 H 1.4556 0.4401 0.0937
C16 C 1.2988(16) 0.3312(12) 0.0382(11)
H15 H 1.3436 0.3498 -0.0378
H16 H 1.3481 0.2491 0.0648
C17 C 0.6502(13) 0.5005(11) 0.3516(8)
Cu1 Cu 1.0000 0.5000 0.0000
Hg2 Hg 0.5000 0.5000 0.5000
N3 N 0.8614(10) 0.4973(9) 0.1491(7)
N4 N 1.1149(12) 0.3267(9) 0.0481(7)
O5 O 1.2543(12) 0.5534(9) 0.0682(7)
H17 H 1.2750 0.6090 0.1034
H18 H 1.104(13) 0.307(10) 0.1276(13)
H19 H 1.104(12) 0.256(6) 0.006(7)
C11A C 0.2464(15) 0.5908(10) 0.8161(9)
H9A H 0.2495 0.6548 0.8606
C12A C 0.3527(14) 0.5931(11) 0.7194(9)
H10A H 0.4255 0.6560 0.7014
C13A C 0.1374(14) 0.4120(12) 0.7841(9)
H11A H 0.0663 0.3486 0.8063
C14A C 0.2356(16) 0.4073(11) 0.6840(8)
H12A H 0.2266 0.3437 0.6403
C17A C 0.3498(13) 0.4995(11) 0.6484(8)
N3A N 0.1386(10) 0.5027(9) 0.8509(7)
C15A C 0.6615(18) 0.5671(14) -0.1042(12)
H13A H 0.6966 0.5897 -0.1812
H14A H 0.5444 0.5599 -0.0937
C16A C 0.7012(16) 0.6688(12) -0.0382(11)
H15A H 0.6564 0.6502 0.0378
H16A H 0.6519 0.7509 -0.0648
N4A N 0.8851(12) 0.6733(9) -0.0481(7)
O5A O 0.7457(12) 0.4466(9) -0.0682(7)
H17A H 0.7250 0.3910 -0.1034
H18A H 0.896(13) 0.693(10) -0.1276(13)
H19A H 0.896(12) 0.744(6) -0.006(7)
Cu1_2 Cu 0.0000 0.5000 1.0000
N3A_2 N 1.1386(10) 0.5027(9) -0.1491(7)
loop_
_geom_bond_atom_site_label_1
_geom_bond_atom_site_label_2
_geom_bond_site_symmetry_1
_geom_bond_site_symmetry_2
C1 H1 1_555 1_555
C2 H2 1_555 1_555
C3 C2 1_555 1_555
H3 C3 1_555 1_555
C4 C1 1_555 1_555
H4 C4 1_555 1_555
C5 C7 1_555 1_555
C6 C1 1_555 1_555
C7 H5 1_555 1_555
C8 C7 1_555 1_555
H6 C8 1_555 1_555
C9 H7 1_555 1_555
C10 C5 1_555 1_555
H8 C10 1_555 1_555
Hg1 C5 1_555 1_555
N1 C3 1_555 1_555
N2 C8 1_555 1_555
Cl1 O1 1_555 1_555
O2 Cl1 1_555 1_555
O3 Hg1 1_555 1_555
O4 Cl1 1_555 1_555
C11 H9 1_555 1_555
C12 C11 1_555 1_555
H10 C12 1_555 1_555
C13 H11 1_555 1_555
C14 C13 1_555 1_555
H12 C14 1_555 1_555
C15 H13 1_555 1_555
H14 C15 1_555 1_555
C16 C15 1_555 1_555
H15 C16 1_555 1_555
H16 C16 1_555 1_555
C17 C12 1_555 1_555
Cu1 N3 1_555 1_555
Hg2 C17 1_555 1_555
N3 C11 1_555 1_555
N4 C16 1_555 1_555
O5 C15 1_555 1_555
H17 O5 1_555 1_555
H18 N4 1_555 1_555
H19 N4 1_555 1_555
C11A H9A 1_555 1_555
C12A C11A 1_555 1_555
H10A C12A 1_555 1_555
C13A H11A 1_555 1_555
C14A C13A 1_555 1_555
H12A C14A 1_555 1_555
C17A Hg2 1_555 1_555
N3A C11A 1_555 1_555
C15A H13A 1_555 1_555
H14A C15A 1_555 1_555
C16A C15A 1_555 1_555
H15A C16A 1_555 1_555
H16A C16A 1_555 1_555
N4A Cu1 1_555 1_555
O5A Cu1 1_555 1_555
H17A O5A 1_555 1_555
H18A N4A 1_555 1_555
H19A N4A 1_555 1_555
Cu1_2 N3A 1_555 1_555
N3A_2 Cu1 1_555 1_555
C2 C6 1_555 1_555
C4 N1 1_555 1_555
C6 Hg1 1_555 1_555
C9 C10 1_555 1_555
C9 N2 1_555 1_555
Cl1 O3 1_555 1_555
C13 N3 1_555 1_555
C14 C17 1_555 1_555
Cu1 N4 1_555 1_555
Cu1 O5 1_555 1_555
C12A C17A 1_555 1_555
C13A N3A 1_555 1_555
C14A C17A 1_555 1_555
C15A O5A 1_555 1_555
C16A N4A 1_555 1_555

#END
