
#######################################################################
#
#                 Cambridge Crystallographic Data Centre
#                                CCDC 
#
#######################################################################
#
# If this CIF has been generated from an entry in the Cambridge 
# Structural Database, then it will include bibliographic, chemical, 
# crystal, experimental, refinement or atomic coordinate data resulting 
# from the CCDC's data processing and validation procedures.
#
#######################################################################

data_OHAYOM
_symmetry_cell_setting           orthorhombic
_symmetry_space_group_name_H-M   'F d d 2'
_symmetry_Int_Tables_number      43
_space_group_name_Hall           'F 2 -2d'
loop_
_symmetry_equiv_pos_site_id
_symmetry_equiv_pos_as_xyz
1 x,y,z
2 -x,-y,z
3 1/4-x,1/4+y,1/4+z
4 1/4+x,1/4-y,1/4+z
5 x,1/2+y,1/2+z
6 -x,1/2-y,1/2+z
7 1/4-x,3/4+y,3/4+z
8 1/4+x,3/4-y,3/4+z
9 1/2+x,y,1/2+z
10 1/2-x,-y,1/2+z
11 3/4-x,1/4+y,3/4+z
12 3/4+x,1/4-y,3/4+z
13 1/2+x,1/2+y,z
14 1/2-x,1/2-y,z
15 3/4-x,3/4+y,1/4+z
16 3/4+x,3/4-y,1/4+z
_cell_length_a                   16.7937(6)
_cell_length_b                   37.6395(14)
_cell_length_c                   16.0278(6)
_cell_angle_alpha                90
_cell_angle_beta                 90
_cell_angle_gamma                90
_cell_volume                     10131.3
loop_
_atom_site_label
_atom_site_type_symbol
_atom_site_fract_x
_atom_site_fract_y
_atom_site_fract_z
C1 C -0.05363(17) 0.14948(8) 1.35069(18)
H1 H -0.0917 0.1664 1.3365
C2 C 0.01741(18) 0.14759(8) 1.30600(18)
C3 C 0.07343(18) 0.12192(8) 1.32793(19)
H2 H 0.1209 0.1206 1.2981
C4 C 0.06041(17) 0.09855(8) 1.3925(2)
H3 H 0.0986 0.0816 1.4062
C5 C -0.00584(19) 0.05425(8) 1.5579(2)
H4 H 0.0408 0.0431 1.5408
C6 C -0.0432(2) 0.04431(7) 1.6311(3)
H5 H -0.0211 0.0263 1.6633
C7 C -0.11321(18) 0.06058(8) 1.65798(19)
C8 C -0.14830(18) 0.08641(8) 1.60869(18)
H6 H -0.1961 0.0967 1.6250
C9 C -0.13883(17) 0.12486(8) 1.47447(18)
C10 C -0.11228(17) 0.09683(8) 1.53535(17)
C11 C -0.03958(17) 0.08141(7) 1.51049(19)
C12 C -0.01070(18) 0.10055(7) 1.43696(18)
C13 C -0.06765(17) 0.12651(7) 1.41573(18)
C14 C -0.1520(2) 0.16069(8) 1.5172(2)
H7 H -0.1688 0.1779 1.4766
H8 H -0.1031 0.1684 1.5426
H9 H -0.1923 0.1583 1.5593
C15 C -0.21396(17) 0.11258(9) 1.4277(2)
H10 H -0.2300 0.1306 1.3889
H11 H -0.2561 0.1084 1.4669
H12 H -0.2026 0.0910 1.3980
C16 C 0.0347(2) 0.17404(8) 1.2389(2)
C17 C -0.1506(2) 0.05094(8) 1.7409(2)
C18 C -0.10638(18) 0.25954(8) 1.1187(2)
H13 H -0.1104 0.2523 1.1740
C19 C -0.17055(19) 0.27625(8) 1.08271(18)
H14 H -0.2158 0.2807 1.1145
C20 C -0.16881(17) 0.28651(7) 1.00056(19)
C21 C -0.09736(19) 0.28182(9) 0.9601(2)
H15 H -0.0913 0.2898 0.9055
C22 C -0.0350(2) 0.26550(10) 0.9999(2)
H16 H 0.0126 0.2628 0.9709
C23 C -0.24170(18) 0.30061(8) 0.95625(19)
H17 H -0.2647 0.2815 0.9236
H18 H -0.2807 0.3075 0.9979
C24 C -0.22748(17) 0.33196(7) 0.89924(18)
H19 H -0.1883 0.3254 0.8575
H20 H -0.2056 0.3514 0.9317
C25 C -0.30266(18) 0.34464(8) 0.85544(18)
H21 H -0.3415 0.3519 0.8969
H22 H -0.2902 0.3652 0.8213
C26 C -0.43472(18) 0.27111(9) 0.7738(2)
H23 H -0.4810 0.2594 0.7900
C27 C -0.40645(18) 0.29816(9) 0.8239(2)
H24 H -0.4333 0.3043 0.8725
C28 C -0.33802(17) 0.31589(8) 0.80116(18)
C29 C -0.30047(17) 0.30531(8) 0.72888(19)
H25 H -0.2537 0.3164 0.7119
C30 C -0.33289(18) 0.27813(7) 0.68164(18)
H26 H -0.3073 0.2716 0.6325
N1 N -0.03895(14) 0.25322(7) 1.07822(16)
N2 N -0.39894(14) 0.26092(6) 0.70318(15)
O1 O 0.10162(13) 0.17492(6) 1.20488(13)
O2 O -0.01968(12) 0.19599(5) 1.21807(14)
O3 O -0.21319(15) 0.06551(6) 1.76327(15)
O4 O -0.11574(15) 0.02744(6) 1.78506(14)
Zn1 Zn 0.05174(2) 0.221227(9) 1.12905(2)
N2H N 0.10106(14) 0.26092(6) 1.20318(15)
O3C O 0.03681(15) 0.18449(6) 1.01327(15)
O4C O 0.13426(15) 0.22256(6) 1.03506(14)
Zn1H Zn -0.44826(2) 0.221227(9) 0.62905(2)
Zn1K Zn -0.19826(2) 0.028773(9) 1.87905(2)
loop_
_geom_bond_atom_site_label_1
_geom_bond_atom_site_label_2
_geom_bond_site_symmetry_1
_geom_bond_site_symmetry_2
C1 H1 1_555 1_555
C2 C1 1_555 1_555
C3 C2 1_555 1_555
H2 C3 1_555 1_555
C4 C3 1_555 1_555
H3 C4 1_555 1_555
C5 H4 1_555 1_555
C6 C5 1_555 1_555
H5 C6 1_555 1_555
C7 C6 1_555 1_555
C8 C7 1_555 1_555
H6 C8 1_555 1_555
C9 C10 1_555 1_555
C10 C8 1_555 1_555
C11 C5 1_555 1_555
C12 C4 1_555 1_555
C13 C1 1_555 1_555
C14 C9 1_555 1_555
H7 C14 1_555 1_555
H8 C14 1_555 1_555
H9 C14 1_555 1_555
C15 C9 1_555 1_555
H10 C15 1_555 1_555
H11 C15 1_555 1_555
H12 C15 1_555 1_555
C16 C2 1_555 1_555
C17 C7 1_555 1_555
C18 H13 1_555 1_555
C19 C18 1_555 1_555
H14 C19 1_555 1_555
C20 C19 1_555 1_555
C21 C20 1_555 1_555
H15 C21 1_555 1_555
C22 C21 1_555 1_555
H16 C22 1_555 1_555
C23 C20 1_555 1_555
H17 C23 1_555 1_555
H18 C23 1_555 1_555
C24 C23 1_555 1_555
H19 C24 1_555 1_555
H20 C24 1_555 1_555
C25 C24 1_555 1_555
H21 C25 1_555 1_555
H22 C25 1_555 1_555
C26 H23 1_555 1_555
C27 C26 1_555 1_555
H24 C27 1_555 1_555
C28 C25 1_555 1_555
C29 C28 1_555 1_555
H25 C29 1_555 1_555
C30 C29 1_555 1_555
H26 C30 1_555 1_555
N1 C18 1_555 1_555
N2 C26 1_555 1_555
O1 C16 1_555 1_555
O2 C16 1_555 1_555
O3 C17 1_555 1_555
O4 C17 1_555 1_555
Zn1 N1 1_555 1_555
N2H Zn1 1_555 1_555
O3C Zn1 1_555 1_555
O4C Zn1 1_555 1_555
Zn1H N2 1_555 1_555
Zn1K O3 1_555 1_555
C9 C13 1_555 1_555
C10 C11 1_555 1_555
C11 C12 1_555 1_555
C12 C13 1_555 1_555
C22 N1 1_555 1_555
C27 C28 1_555 1_555
C30 N2 1_555 1_555
O1 Zn1 1_555 1_555
O2 Zn1 1_555 1_555
O4 Zn1K 1_555 1_555

#END
