
#######################################################################
#
#                 Cambridge Crystallographic Data Centre
#                                CCDC 
#
#######################################################################
#
# If this CIF has been generated from an entry in the Cambridge 
# Structural Database, then it will include bibliographic, chemical, 
# crystal, experimental, refinement or atomic coordinate data resulting 
# from the CCDC's data processing and validation procedures.
#
#######################################################################

data_OHAYUS
_symmetry_cell_setting           triclinic
_symmetry_space_group_name_H-M   'P -1'
_symmetry_Int_Tables_number      2
_space_group_name_Hall           '-P 1'
loop_
_symmetry_equiv_pos_site_id
_symmetry_equiv_pos_as_xyz
1 x,y,z
2 -x,-y,-z
_cell_length_a                   8.275(2)
_cell_length_b                   8.9203(11)
_cell_length_c                   10.5938(13)
_cell_angle_alpha                83.580(10)
_cell_angle_beta                 71.981(17)
_cell_angle_gamma                72.249(15)
_cell_volume                     708.097
loop_
_atom_site_label
_atom_site_type_symbol
_atom_site_fract_x
_atom_site_fract_y
_atom_site_fract_z
Gd1 Gd 0.24859(3) 0.49457(2) 0.505610(18)
C1 C 0.3209(7) 1.0030(5) 0.2520(5)
H1 H 0.3867 1.0456 0.1711
H2 H 0.3958 0.9692 0.3106
C2 C 0.1534(7) 1.1301(6) 0.3189(6)
H3 H 0.0946 1.1818 0.2528
H4 H 0.0733 1.0808 0.3847
C3 C 0.1890(6) 1.2511(5) 0.3848(4)
C4 C 0.1828(7) 0.7157(6) -0.0507(4)
H5 H 0.1325 0.8200 -0.0836
H6 H 0.0982 0.6562 -0.0371
C5 C 0.3551(7) 0.6342(6) -0.1535(4)
H7 H 0.4320 0.7025 -0.1783
H8 H 0.4158 0.5382 -0.1148
C6 C 0.3204(6) 0.5954(5) -0.2750(4)
C7 C 0.2525(7) 0.8611(5) 0.0979(5)
C8 C 0.2130(6) 0.5999(5) 0.1660(4)
C9 C 0.2550(7) 0.7507(6) 0.3142(5)
N1 N 0.2277(5) 0.6191(4) 0.2867(4)
N2 N 0.2139(6) 0.7289(5) 0.0757(4)
N3 N 0.2753(5) 0.8677(4) 0.2207(4)
O1 O 0.3427(4) 1.2471(4) 0.3810(3)
O2 O 0.0577(4) 1.3604(4) 0.4488(3)
O3 O 0.4499(4) 0.5428(4) -0.3779(3)
O4 O 0.1673(5) 0.6075(4) -0.2764(3)
O5 O 0.2649(6) 0.9665(5) 0.0156(4)
O6 O 0.2017(5) 0.4774(4) 0.1323(3)
O7 O 0.2629(5) 0.7652(4) 0.4294(3)
O8 O 0.2530(7) 0.2802(5) 0.6642(4)
H9 H 0.282(10) 0.184(3) 0.644(5)
H10 H 0.251(8) 0.284(6) 0.746(3)
Gd1_2 Gd 0.24859(3) 1.49457(2) 0.505610(18)
Gd1A Gd -0.24859(3) 1.50543(2) 0.494390(18)
Gd1_3 Gd 0.24859(3) 0.49457(2) -0.494390(18)
Gd1A_2 Gd 0.75141(3) 0.50543(2) -0.505610(18)
O1_2 O 0.3427(4) 0.2471(4) 0.3810(3)
O2_2 O 0.0577(4) 0.3604(4) 0.4488(3)
O2A O -0.0577(4) 0.6396(4) 0.5512(3)
O3_2 O 0.4499(4) 0.5428(4) 0.6221(3)
O3A O 0.5501(4) 0.4572(4) 0.3779(3)
O4_2 O 0.1673(5) 0.6075(4) 0.7236(3)
O9 O 0.2848(8) 0.2705(5) -0.0826(5)
H11 H 0.285(11) 0.181(4) -0.044(6)
H12 H 0.268(11) 0.336(6) -0.023(5)
O10 O 0.3096(7) -0.0386(5) 0.6180(6)
H13 H 0.302(11) -0.060(17) 0.546(6)
H14 H 0.416(5) -0.063(12) 0.620(9)
loop_
_geom_bond_atom_site_label_1
_geom_bond_atom_site_label_2
_geom_bond_site_symmetry_1
_geom_bond_site_symmetry_2
Gd1 N1 1_555 1_555
C1 H1 1_555 1_555
H2 C1 1_555 1_555
C2 C1 1_555 1_555
H3 C2 1_555 1_555
H4 C2 1_555 1_555
C3 C2 1_555 1_555
C4 H5 1_555 1_555
H6 C4 1_555 1_555
C5 C4 1_555 1_555
H7 C5 1_555 1_555
H8 C5 1_555 1_555
C6 C5 1_555 1_555
C7 N2 1_555 1_555
C8 N1 1_555 1_555
C9 N1 1_555 1_555
N2 C4 1_555 1_555
N3 C1 1_555 1_555
O1 C3 1_555 1_555
O2 C3 1_555 1_555
O3 C6 1_555 1_555
O4 C6 1_555 1_555
O5 C7 1_555 1_555
O6 C8 1_555 1_555
O7 Gd1 1_555 1_555
O8 Gd1 1_555 1_555
O9 H11 1_555 1_555
H9 O8 1_555 1_555
H10 O8 1_555 1_555
O10 H13 1_555 1_555
H12 O9 1_555 1_555
H14 O10 1_555 1_555
Gd1_2 O1 1_555 1_555
Gd1A O2 1_555 1_555
Gd1_3 O3 1_555 1_555
Gd1A_2 O3 1_555 1_555
O1_2 Gd1 1_555 1_555
O2_2 Gd1 1_555 1_555
O2A Gd1 1_555 1_555
O3_2 Gd1 1_555 1_555
O3A Gd1 1_555 1_555
O4_2 Gd1 1_555 1_555
C7 N3 1_555 1_555
C8 N2 1_555 1_555
C9 N3 1_555 1_555
C9 O7 1_555 1_555
O2 Gd1_2 1_555 1_555
O4 Gd1_3 1_555 1_555

#END
