
#######################################################################
#
#                 Cambridge Crystallographic Data Centre
#                                CCDC 
#
#######################################################################
#
# If this CIF has been generated from an entry in the Cambridge 
# Structural Database, then it will include bibliographic, chemical, 
# crystal, experimental, refinement or atomic coordinate data resulting 
# from the CCDC's data processing and validation procedures.
#
#######################################################################

data_OHAYEC
_symmetry_cell_setting           monoclinic
_symmetry_space_group_name_H-M   'P 21/c'
_symmetry_Int_Tables_number      14
_space_group_name_Hall           '-P 2ybc'
loop_
_symmetry_equiv_pos_site_id
_symmetry_equiv_pos_as_xyz
1 x,y,z
2 -x,1/2+y,1/2-z
3 -x,-y,-z
4 x,1/2-y,1/2+z
_cell_length_a                   16.3031(13)
_cell_length_b                   11.9204(5)
_cell_length_c                   17.1330(8)
_cell_angle_alpha                90
_cell_angle_beta                 114.469(5)
_cell_angle_gamma                90
_cell_volume                     3030.57
loop_
_atom_site_label
_atom_site_type_symbol
_atom_site_fract_x
_atom_site_fract_y
_atom_site_fract_z
Cu1 Cu 0.58836(16) 0.36697(9) 0.68739(11)
Cu2 Cu 0.58960(17) 0.12764(9) 0.69549(11)
C1 C 0.4386(6) 0.2467(5) 0.6879(4)
C2 C 0.3971(9) 0.3527(6) 0.7058(7)
C3 C 0.4142(7) 0.4580(5) 0.6657(7)
C4 C 0.4075(6) 0.2363(8) 0.5903(4)
C5 C 0.6315(7) 0.5504(7) 0.5953(6)
C6 C 0.4036(9) 0.1453(6) 0.7203(6)
C7 C 0.4114(7) 0.0384(6) 0.6778(7)
C8 C 0.6431(7) -0.0760(6) 0.6313(6)
N1 N 0.6576(8) 0.4792(6) 0.6591(6)
N2 N 0.5500(8) 0.5962(6) 0.5634(6)
N3 N 0.6884(8) 0.5780(6) 0.5600(6)
N4 N 0.6630(9) 0.0093(6) 0.6824(6)
N5 N 0.5622(8) -0.0846(6) 0.5673(6)
N6 N 0.7021(8) -0.1576(6) 0.6449(6)
O1 O 0.5333(6) 0.2499(5) 0.7265(4)
O2 O 0.4831(7) 0.4628(4) 0.6493(5)
O3 O 0.3651(7) 0.5404(5) 0.6571(5)
O4 O 0.4665(7) 0.2444(5) 0.5616(5)
O5 O 0.3256(7) 0.2164(5) 0.5473(5)
O6 O 0.6688(8) 0.2454(5) 0.6918(6)
O7 O 0.4784(7) 0.0281(5) 0.6581(5)
O8 O 0.3549(7) -0.0359(5) 0.6644(5)
H1 H 0.7171 0.4838 0.6968
H2 H 0.7199 0.0144 0.7171
H3 H 0.5352 0.6421 0.5204
H4 H 0.5123 0.5793 0.5863
H5 H 0.7423 0.5485 0.5791
H6 H 0.6698 0.6242 0.5160
H7 H 0.7569 -0.1517 0.6874
H8 H 0.6888 -0.2173 0.6120
H9 H 0.5494 -0.1442 0.5332
H10 H 0.5215 -0.0335 0.5597
H11 H 0.4226 0.3638 0.7686
H12 H 0.3314 0.3411 0.6835
H13 H 0.4383 0.1386 0.7828
H14 H 0.3389 0.1589 0.7075
H15 H 0.7168 0.2688 0.7307
Cu1A Cu 0.41164(16) -0.13303(9) 0.81261(11)
Cu2A Cu 0.41040(17) 0.62764(9) 0.80451(11)
O3A O 0.6349(7) 0.0404(5) 0.8429(5)
O8A O 0.6451(7) 0.4641(5) 0.8356(5)
Cu3 Cu 0.07684(18) 0.37646(10) 0.39640(12)
Cu4 Cu 0.08331(18) 0.14835(10) 0.35909(12)
C9 C -0.0740(6) 0.2657(5) 0.2656(4)
C10 C -0.1260(8) 0.3750(6) 0.2343(5)
C11 C -0.0990(7) 0.4721(6) 0.2972(5)
C12 C -0.0958(6) 0.2157(7) 0.3386(5)
C13 C 0.1316(7) 0.5670(6) 0.5234(6)
C14 C -0.1051(8) 0.1832(6) 0.1914(5)
C15 C -0.0835(6) 0.0642(5) 0.2208(5)
C16 C 0.1304(8) -0.0499(7) 0.4692(7)
N7 N 0.1449(10) 0.4664(6) 0.4977(6)
N8 N 0.0548(8) 0.6226(6) 0.4790(6)
N9 N 0.1972(8) 0.6152(6) 0.5910(6)
N10 N 0.1565(10) 0.0338(6) 0.4347(7)
N11 N 0.0427(9) -0.0688(7) 0.4456(7)
N12 N 0.1908(9) -0.1136(7) 0.5309(6)
O9 O 0.0202(7) 0.2829(4) 0.2973(5)
O10 O -0.0286(7) 0.4654(5) 0.3677(5)
O11 O -0.1445(8) 0.5598(5) 0.2783(5)
O12 O -0.0326(7) 0.2029(5) 0.4120(5)
O13 O -0.1737(7) 0.1789(5) 0.3198(5)
O14 O 0.1647(11) 0.2647(6) 0.4145(8)
O15 O -0.0103(7) 0.0427(4) 0.2870(5)
O16 O -0.1400(7) -0.0106(4) 0.1848(5)
H16 H 0.1934 0.4320 0.5342
H17 H 0.2132 0.0375 0.4474
H18 H 0.0464 0.6900 0.4959
H19 H 0.0126 0.5927 0.4328
H20 H 0.1889 0.6821 0.6077
H21 H 0.2486 0.5798 0.6180
H22 H 0.1713 -0.1695 0.5528
H23 H 0.2475 -0.0998 0.5482
H24 H 0.0235 -0.1248 0.4681
H25 H 0.0009 -0.0255 0.4067
H26 H -0.1908 0.3598 0.2184
H27 H -0.1177 0.3991 0.1829
H28 H -0.1716 0.1899 0.1584
H29 H -0.0750 0.2018 0.1535
H30 H 0.2147 0.2494 0.4546
Cu3A Cu -0.07684(18) -0.12354(10) 0.10360(12)
O16A O 0.1400(7) 0.4894(4) 0.3152(5)
C17 C 0.3639(11) 0.7712(6) 0.5175(5)
N13 N 0.3928(10) 0.7586(6) 0.6006(6)
N14 N 0.3565(11) 0.8703(6) 0.4844(7)
N15 N 0.3346(10) 0.6836(7) 0.4673(6)
H31 H 0.4082 0.8170 0.6349
H32 H 0.3972 0.6904 0.6229
H33 H 0.3721 0.9297 0.5181
H34 H 0.3373 0.8782 0.4287
H35 H 0.3347 0.6168 0.4895
H36 H 0.3148 0.6913 0.4114
C18 C -0.1548(13) 0.8220(6) 0.3477(10)
N16 N -0.1771(12) 0.9279(7) 0.3482(8)
N17 N -0.1666(13) 0.7513(7) 0.3993(9)
N18 N -0.1075(12) 0.7929(6) 0.3053(9)
H37 H -0.1991 0.9517 0.3839
H38 H -0.1684 0.9758 0.3127
H39 H -0.1889 0.7748 0.4353
H40 H -0.1517 0.6810 0.3989
H41 H -0.0909 0.8443 0.2783
H42 H -0.0925 0.7226 0.3049
loop_
_geom_bond_atom_site_label_1
_geom_bond_atom_site_label_2
_geom_bond_site_symmetry_1
_geom_bond_site_symmetry_2
Cu1 N1 1_555 1_555
Cu2 N4 1_555 1_555
C1 C2 1_555 1_555
C2 C3 1_555 1_555
C3 O2 1_555 1_555
C4 C1 1_555 1_555
C5 N1 1_555 1_555
C6 C1 1_555 1_555
C7 C6 1_555 1_555
C8 N4 1_555 1_555
N1 H1 1_555 1_555
N2 C5 1_555 1_555
N3 C5 1_555 1_555
N4 H2 1_555 1_555
N5 C8 1_555 1_555
N6 C8 1_555 1_555
O1 Cu1 1_555 1_555
O2 Cu1 1_555 1_555
O3 C3 1_555 1_555
O4 Cu1 1_555 1_555
O5 C4 1_555 1_555
O6 Cu1 1_555 1_555
O7 Cu2 1_555 1_555
O8 C7 1_555 1_555
H3 N2 1_555 1_555
H4 N2 1_555 1_555
H5 N3 1_555 1_555
H6 N3 1_555 1_555
H7 N6 1_555 1_555
H8 N6 1_555 1_555
H9 N5 1_555 1_555
H10 N5 1_555 1_555
H11 C2 1_555 1_555
H12 C2 1_555 1_555
H13 C6 1_555 1_555
H14 C6 1_555 1_555
H15 O6 1_555 1_555
Cu3 N7 1_555 1_555
Cu4 N10 1_555 1_555
C9 C10 1_555 1_555
C10 C11 1_555 1_555
C11 O10 1_555 1_555
C12 C9 1_555 1_555
C13 N7 1_555 1_555
C14 C9 1_555 1_555
C15 C14 1_555 1_555
C16 N10 1_555 1_555
N7 H16 1_555 1_555
N8 C13 1_555 1_555
N9 C13 1_555 1_555
N10 H17 1_555 1_555
N11 C16 1_555 1_555
N12 C16 1_555 1_555
O9 Cu3 1_555 1_555
O10 Cu3 1_555 1_555
O11 C11 1_555 1_555
O12 Cu3 1_555 1_555
O13 C12 1_555 1_555
O14 Cu3 1_555 1_555
O15 Cu4 1_555 1_555
O16 C15 1_555 1_555
H18 N8 1_555 1_555
H19 N8 1_555 1_555
H20 N9 1_555 1_555
H21 N9 1_555 1_555
H22 N12 1_555 1_555
H23 N12 1_555 1_555
H24 N11 1_555 1_555
H25 N11 1_555 1_555
H26 C10 1_555 1_555
H27 C10 1_555 1_555
H28 C14 1_555 1_555
H29 C14 1_555 1_555
H30 O14 1_555 1_555
C17 N13 1_555 1_555
N13 H31 1_555 1_555
N14 C17 1_555 1_555
N15 C17 1_555 1_555
H32 N13 1_555 1_555
H33 N14 1_555 1_555
H34 N14 1_555 1_555
H35 N15 1_555 1_555
H36 N15 1_555 1_555
C18 N16 1_555 1_555
N16 H37 1_555 1_555
N17 C18 1_555 1_555
N18 C18 1_555 1_555
H38 N16 1_555 1_555
H39 N17 1_555 1_555
H40 N17 1_555 1_555
H41 N18 1_555 1_555
H42 N18 1_555 1_555
Cu1A O8 1_555 1_555
Cu2A O3 1_555 1_555
O3A Cu2 1_555 1_555
O8A Cu1 1_555 1_555
Cu3A O16 1_555 1_555
O16A Cu3 1_555 1_555
Cu2 O1 1_555 1_555
Cu2 O4 1_555 1_555
Cu2 O6 1_555 1_555
C1 O1 1_555 1_555
C4 O4 1_555 1_555
C7 O7 1_555 1_555
Cu4 O9 1_555 1_555
Cu4 O12 1_555 1_555
Cu4 O14 1_555 1_555
C9 O9 1_555 1_555
C12 O12 1_555 1_555
C15 O15 1_555 1_555

#END
