
#######################################################################
#
#                 Cambridge Crystallographic Data Centre
#                                CCDC 
#
#######################################################################
#
# If this CIF has been generated from an entry in the Cambridge 
# Structural Database, then it will include bibliographic, chemical, 
# crystal, experimental, refinement or atomic coordinate data resulting 
# from the CCDC's data processing and validation procedures.
#
#######################################################################

data_OHAZIH
_symmetry_cell_setting           triclinic
_symmetry_space_group_name_H-M   'P -1'
_symmetry_Int_Tables_number      2
_space_group_name_Hall           '-P 1'
loop_
_symmetry_equiv_pos_site_id
_symmetry_equiv_pos_as_xyz
1 x,y,z
2 -x,-y,-z
_cell_length_a                   11.6678(18)
_cell_length_b                   13.1906(17)
_cell_length_c                   13.541(2)
_cell_angle_alpha                64.140(5)
_cell_angle_beta                 83.693(8)
_cell_angle_gamma                67.911(6)
_cell_volume                     1734.02
loop_
_atom_site_label
_atom_site_type_symbol
_atom_site_fract_x
_atom_site_fract_y
_atom_site_fract_z
Pr1 Pr 0.082060(14) 0.113330(12) -0.506650(11)
O1 O 0.2216(2) -0.84888(19) 0.33565(16)
O2 O 0.0512(2) -0.69583(17) 0.32368(16)
O3 O 0.0801(2) 0.0195(2) -0.30099(16)
O4 O 0.00225(19) -0.06515(17) -0.36972(14)
O5 O 0.24198(18) -0.08747(16) -0.46855(17)
O6 O 0.14188(18) -0.18958(18) -0.49566(18)
N1 N 0.0310(2) 0.2803(2) -0.43120(19)
N2 N 0.2688(2) 0.1295(2) -0.4266(2)
C1 C 0.1470(3) -0.7427(2) 0.2819(2)
C2 C 0.1705(3) -0.6666(2) 0.1655(2)
C3 C 0.1044(3) -0.5451(2) 0.1225(2)
H1 H 0.0428 -0.5125 0.1638
C4 C 0.1264(3) -0.4672(3) 0.0172(2)
N3 N 0.2101(2) -0.5071(2) -0.04472(19)
C5 C 0.2763(3) -0.6284(3) -0.0040(2)
C6 C 0.2595(3) -0.7144(3) 0.1005(2)
C7 C 0.3313(4) -0.8383(3) 0.1308(3)
H2 H 0.3191 -0.8977 0.1984
C8 C 0.4179(4) -0.8737(3) 0.0643(3)
H3 H 0.4653 -0.9573 0.0863
C9 C 0.4375(4) -0.7880(4) -0.0361(3)
H4 H 0.4997 -0.8136 -0.0807
C10 C 0.3680(3) -0.6686(3) -0.0697(3)
H5 H 0.3812 -0.6112 -0.1383
C11 C 0.0318(3) -0.0538(2) -0.2891(2)
C12 C 0.0123(3) -0.1356(3) -0.1744(2)
C13 C 0.0704(3) -0.2574(3) -0.1373(2)
H6 H 0.1185 -0.2911 -0.1845
C14 C 0.0580(3) -0.3339(3) -0.0266(2)
N4 N -0.0098(3) -0.2926(2) 0.0418(2)
C15 C -0.0700(3) -0.1706(3) 0.0050(2)
C16 C -0.0602(3) -0.0861(3) -0.1035(2)
C17 C -0.1229(4) 0.0388(3) -0.1322(3)
H7 H -0.1178 0.0965 -0.2040
C18 C -0.1903(5) 0.0773(4) -0.0585(3)
H8 H -0.2315 0.1616 -0.0791
C19 C -0.2000(5) -0.0055(4) 0.0476(3)
H9 H -0.2473 0.0227 0.0984
C20 C -0.1417(4) -0.1265(3) 0.0779(3)
H10 H -0.1496 -0.1821 0.1498
C21 C 0.2360(3) -0.1804(2) -0.4682(2)
C22 C 0.3499(2) -0.2947(2) -0.4334(2)
C23 C 0.3812(3) -0.3556(2) -0.4978(2)
H11 H 0.3339 -0.3235 -0.5646
C24 C 0.4840(3) -0.4666(2) -0.4653(2)
N5 N 0.5524(2) -0.5159(2) -0.3724(2)
C25 C 0.5234(3) -0.4563(3) -0.3075(2)
C26 C 0.4228(3) -0.3434(2) -0.3339(2)
C27 C 0.3994(3) -0.2905(3) -0.2590(3)
H12 H 0.3328 -0.2153 -0.2754
C28 C 0.4710(4) -0.3459(3) -0.1643(3)
H13 H 0.4538 -0.3092 -0.1148
C29 C 0.5697(4) -0.4564(4) -0.1384(3)
H14 H 0.6190 -0.4937 -0.0717
C30 C 0.5958(3) -0.5110(3) -0.2074(3)
H15 H 0.6630 -0.5862 -0.1885
C31 C -0.0841(3) 0.3495(3) -0.4271(3)
H16 H -0.1494 0.3388 -0.4528
C32 C -0.1156(4) 0.4375(3) -0.3873(3)
H17 H -0.2000 0.4835 -0.3843
C33 C -0.0237(4) 0.4557(3) -0.3532(3)
H18 H -0.0430 0.5165 -0.3277
C34 C 0.1002(4) 0.3847(3) -0.3554(2)
C35 C 0.2022(5) 0.4001(4) -0.3206(3)
H19 H 0.1867 0.4616 -0.2967
C36 C 0.3193(5) 0.3280(4) -0.3219(3)
H20 H 0.3855 0.3410 -0.3004
C37 C 0.3472(4) 0.2320(3) -0.3547(3)
C38 C 0.4673(4) 0.1502(4) -0.3499(3)
H21 H 0.5356 0.1578 -0.3254
C39 C 0.4865(3) 0.0594(4) -0.3805(3)
H22 H 0.5675 0.0021 -0.3758
C40 C 0.3841(3) 0.0527(3) -0.4190(3)
H23 H 0.3979 -0.0102 -0.4407
C41 C 0.2492(3) 0.2174(3) -0.3919(2)
C42 C 0.1236(3) 0.2955(2) -0.3940(2)
Pr1_2 Pr 0.082060(14) -0.886670(12) 0.493350(11)
Pr1A Pr -0.082060(14) 0.886670(12) -1.493350(11)
Pr1A_2 Pr -0.082060(14) -0.113330(12) -0.493350(11)
Pr1A_3 Pr 0.917940(14) -1.113330(12) -0.493350(11)
Pr1_3 Pr 1.082060(14) -0.886670(12) -0.506650(11)
O1_2 O 0.2216(2) 0.15112(19) -0.66435(16)
O1A O -0.2216(2) 0.84888(19) -1.33565(16)
O1A_2 O -0.2216(2) -0.15112(19) -0.33565(16)
O2_2 O 0.0512(2) 0.30417(17) -0.67632(16)
O2A O -0.0512(2) 0.69583(17) -1.32368(16)
O2A_2 O -0.0512(2) -0.30417(17) -0.32368(16)
O3A O -0.0801(2) -0.0195(2) -0.69901(16)
O4A O -0.00225(19) 0.06515(17) -0.63028(14)
O5A O 0.75802(18) -0.91253(16) -0.53145(17)
O5A_2 O -0.24198(18) 0.08747(16) -0.53145(17)
O6A O 0.85812(18) -0.81042(18) -0.50434(18)
O6A_2 O -0.14188(18) 0.18958(18) -0.50434(18)
N1A N -0.0310(2) -0.2803(2) -0.56880(19)
N2A N -0.2688(2) -0.1295(2) -0.5734(2)
C1A C -0.1470(3) 0.7427(2) -1.2819(2)
C2A C -0.1705(3) 0.6666(2) -1.1655(2)
C3A C -0.1044(3) 0.5451(2) -1.1225(2)
H1A H -0.0428 0.5125 -1.1638
C4A C -0.1264(3) 0.4672(3) -1.0172(2)
N3A N -0.2101(2) 0.5071(2) -0.95528(19)
C5A C -0.2763(3) 0.6284(3) -0.9960(2)
C6A C -0.2595(3) 0.7144(3) -1.1005(2)
C7A C -0.3313(4) 0.8383(3) -1.1308(3)
H2A H -0.3191 0.8977 -1.1984
C8A C -0.4179(4) 0.8737(3) -1.0643(3)
H3A H -0.4653 0.9573 -1.0863
C9A C -0.4375(4) 0.7880(4) -0.9639(3)
H4A H -0.4997 0.8136 -0.9193
C10A C -0.3680(3) 0.6686(3) -0.9303(3)
H5A H -0.3812 0.6112 -0.8617
C11A C -0.0318(3) 0.0538(2) -0.7109(2)
C12A C -0.0123(3) 0.1356(3) -0.8256(2)
C13A C -0.0704(3) 0.2574(3) -0.8627(2)
H6A H -0.1185 0.2911 -0.8155
C14A C -0.0580(3) 0.3339(3) -0.9734(2)
N4A N 0.0098(3) 0.2926(2) -1.0418(2)
C15A C 0.0700(3) 0.1706(3) -1.0050(2)
C16A C 0.0602(3) 0.0861(3) -0.8965(2)
C17A C 0.1229(4) -0.0388(3) -0.8678(3)
H7A H 0.1178 -0.0965 -0.7960
C18A C 0.1903(5) -0.0773(4) -0.9415(3)
H8A H 0.2315 -0.1616 -0.9209
C19A C 0.2000(5) 0.0055(4) -1.0476(3)
H9A H 0.2473 -0.0227 -1.0984
C20A C 0.1417(4) 0.1265(3) -1.0779(3)
H10A H 0.1496 0.1821 -1.1498
C21A C 0.7640(3) -0.8196(2) -0.5318(2)
C22A C 0.6501(2) -0.7053(2) -0.5666(2)
C23A C 0.6188(3) -0.6444(2) -0.5022(2)
H11A H 0.6661 -0.6765 -0.4354
C24A C 0.5160(3) -0.5334(2) -0.5347(2)
N5A N 0.4476(2) -0.4841(2) -0.6276(2)
C25A C 0.4766(3) -0.5437(3) -0.6925(2)
C26A C 0.5772(3) -0.6566(2) -0.6661(2)
C27A C 0.6006(3) -0.7095(3) -0.7410(3)
H12A H 0.6672 -0.7847 -0.7246
C28A C 0.5290(4) -0.6541(3) -0.8357(3)
H13A H 0.5462 -0.6908 -0.8852
C29A C 0.4303(4) -0.5436(4) -0.8616(3)
H14A H 0.3810 -0.5063 -0.9283
C30A C 0.4042(3) -0.4890(3) -0.7926(3)
H15A H 0.3370 -0.4138 -0.8115
C31A C 0.0841(3) -0.3495(3) -0.5729(3)
H16A H 0.1494 -0.3388 -0.5472
C32A C 0.1156(4) -0.4375(3) -0.6127(3)
H17A H 0.2000 -0.4835 -0.6157
C33A C 0.0237(4) -0.4557(3) -0.6468(3)
H18A H 0.0430 -0.5165 -0.6723
C34A C -0.1002(4) -0.3847(3) -0.6446(2)
C35A C -0.2022(5) -0.4001(4) -0.6794(3)
H19A H -0.1867 -0.4616 -0.7033
C36A C -0.3193(5) -0.3280(4) -0.6781(3)
H20A H -0.3855 -0.3410 -0.6996
C37A C -0.3472(4) -0.2320(3) -0.6453(3)
C38A C -0.4673(4) -0.1502(4) -0.6501(3)
H21A H -0.5356 -0.1578 -0.6746
C39A C -0.4865(3) -0.0594(4) -0.6195(3)
H22A H -0.5675 -0.0021 -0.6242
C40A C -0.3841(3) -0.0527(3) -0.5810(3)
H23A H -0.3979 0.0102 -0.5593
C41A C -0.2492(3) -0.2174(3) -0.6081(2)
C42A C -0.1236(3) -0.2955(2) -0.6060(2)
loop_
_geom_bond_atom_site_label_1
_geom_bond_atom_site_label_2
_geom_bond_site_symmetry_1
_geom_bond_site_symmetry_2
Pr1 O3 1_555 1_555
O1 C1 1_555 1_555
O2 C1 1_555 1_555
O3 C11 1_555 1_555
O4 Pr1 1_555 1_555
O5 Pr1 1_555 1_555
O6 C21 1_555 1_555
N1 Pr1 1_555 1_555
N2 Pr1 1_555 1_555
C1 C2 1_555 1_555
C2 C3 1_555 1_555
C3 H1 1_555 1_555
C4 C3 1_555 1_555
N3 C4 1_555 1_555
C5 N3 1_555 1_555
C6 C2 1_555 1_555
C7 C6 1_555 1_555
H2 C7 1_555 1_555
C8 C7 1_555 1_555
H3 C8 1_555 1_555
C9 C8 1_555 1_555
H4 C9 1_555 1_555
C10 C5 1_555 1_555
H5 C10 1_555 1_555
C11 O4 1_555 1_555
C12 C11 1_555 1_555
C13 C12 1_555 1_555
H6 C13 1_555 1_555
C14 C4 1_555 1_555
N4 C14 1_555 1_555
C15 N4 1_555 1_555
C16 C12 1_555 1_555
C17 C16 1_555 1_555
H7 C17 1_555 1_555
C18 C17 1_555 1_555
H8 C18 1_555 1_555
C19 C18 1_555 1_555
H9 C19 1_555 1_555
C20 C15 1_555 1_555
H10 C20 1_555 1_555
C21 O5 1_555 1_555
C22 C21 1_555 1_555
C23 C22 1_555 1_555
H11 C23 1_555 1_555
C24 C23 1_555 1_555
N5 C24 1_555 1_555
C25 N5 1_555 1_555
C26 C22 1_555 1_555
C27 C26 1_555 1_555
H12 C27 1_555 1_555
C28 C27 1_555 1_555
H13 C28 1_555 1_555
C29 C28 1_555 1_555
H14 C29 1_555 1_555
C30 C25 1_555 1_555
H15 C30 1_555 1_555
C31 N1 1_555 1_555
H16 C31 1_555 1_555
C32 C31 1_555 1_555
H17 C32 1_555 1_555
C33 C32 1_555 1_555
H18 C33 1_555 1_555
C34 C33 1_555 1_555
C35 C34 1_555 1_555
H19 C35 1_555 1_555
C36 C35 1_555 1_555
H20 C36 1_555 1_555
C37 C36 1_555 1_555
C38 C37 1_555 1_555
H21 C38 1_555 1_555
C39 C38 1_555 1_555
H22 C39 1_555 1_555
C40 N2 1_555 1_555
H23 C40 1_555 1_555
C41 N2 1_555 1_555
C42 N1 1_555 1_555
Pr1_2 O1 1_555 1_555
Pr1A O1A 1_555 1_555
Pr1A_2 O4 1_555 1_555
Pr1A_3 O5A 1_555 1_555
Pr1_3 O6A 1_555 1_555
O1_2 Pr1 1_555 1_555
O1A C1A 1_555 1_555
O1A_2 Pr1A_2 1_555 1_555
O2_2 Pr1 1_555 1_555
O2A Pr1A 1_555 1_555
O2A_2 Pr1A_2 1_555 1_555
O3A Pr1A_2 1_555 1_555
O4A Pr1 1_555 1_555
O5A C21A 1_555 1_555
O5A_2 Pr1A_2 1_555 1_555
O6A C21A 1_555 1_555
O6A_2 Pr1 1_555 1_555
N1A Pr1A_2 1_555 1_555
N2A Pr1A_2 1_555 1_555
C1A O2A 1_555 1_555
C2A C1A 1_555 1_555
C3A C2A 1_555 1_555
H1A C3A 1_555 1_555
C4A C3A 1_555 1_555
N3A C4A 1_555 1_555
C5A N3A 1_555 1_555
C6A C2A 1_555 1_555
C7A C6A 1_555 1_555
H2A C7A 1_555 1_555
C8A C7A 1_555 1_555
H3A C8A 1_555 1_555
C9A C8A 1_555 1_555
H4A C9A 1_555 1_555
C10A C5A 1_555 1_555
H5A C10A 1_555 1_555
C11A O3A 1_555 1_555
C12A C11A 1_555 1_555
C13A C12A 1_555 1_555
H6A C13A 1_555 1_555
C14A C4A 1_555 1_555
N4A C14A 1_555 1_555
C15A N4A 1_555 1_555
C16A C12A 1_555 1_555
C17A C16A 1_555 1_555
H7A C17A 1_555 1_555
C18A C17A 1_555 1_555
H8A C18A 1_555 1_555
C19A C18A 1_555 1_555
H9A C19A 1_555 1_555
C20A C15A 1_555 1_555
H10A C20A 1_555 1_555
C21A C22A 1_555 1_555
C22A C23A 1_555 1_555
C23A H11A 1_555 1_555
C24A C24 1_555 1_555
N5A C24A 1_555 1_555
C25A N5A 1_555 1_555
C26A C22A 1_555 1_555
C27A C26A 1_555 1_555
H12A C27A 1_555 1_555
C28A C27A 1_555 1_555
H13A C28A 1_555 1_555
C29A C28A 1_555 1_555
H14A C29A 1_555 1_555
C30A C25A 1_555 1_555
H15A C30A 1_555 1_555
C31A N1A 1_555 1_555
H16A C31A 1_555 1_555
C32A C31A 1_555 1_555
H17A C32A 1_555 1_555
C33A C32A 1_555 1_555
H18A C33A 1_555 1_555
C34A C33A 1_555 1_555
C35A C34A 1_555 1_555
H19A C35A 1_555 1_555
C36A C35A 1_555 1_555
H20A C36A 1_555 1_555
C37A C36A 1_555 1_555
C38A C37A 1_555 1_555
H21A C38A 1_555 1_555
C39A C38A 1_555 1_555
H22A C39A 1_555 1_555
C40A N2A 1_555 1_555
H23A C40A 1_555 1_555
C41A N2A 1_555 1_555
C42A N1A 1_555 1_555
O2 Pr1_2 1_555 1_555
O6 Pr1A_2 1_555 1_555
C5 C6 1_555 1_555
C9 C10 1_555 1_555
C13 C14 1_555 1_555
C15 C16 1_555 1_555
C19 C20 1_555 1_555
C25 C26 1_555 1_555
C29 C30 1_555 1_555
C34 C42 1_555 1_555
C37 C41 1_555 1_555
C39 C40 1_555 1_555
C41 C42 1_555 1_555
Pr1A_2 O4A 1_555 1_555
O4A C11A 1_555 1_555
C5A C6A 1_555 1_555
C9A C10A 1_555 1_555
C13A C14A 1_555 1_555
C15A C16A 1_555 1_555
C19A C20A 1_555 1_555
C23A C24A 1_555 1_555
C25A C26A 1_555 1_555
C29A C30A 1_555 1_555
C34A C42A 1_555 1_555
C37A C41A 1_555 1_555
C39A C40A 1_555 1_555
C41A C42A 1_555 1_555

#END
