
#######################################################################
#
#                 Cambridge Crystallographic Data Centre
#                                CCDC 
#
#######################################################################
#
# If this CIF has been generated from an entry in the Cambridge 
# Structural Database, then it will include bibliographic, chemical, 
# crystal, experimental, refinement or atomic coordinate data resulting 
# from the CCDC's data processing and validation procedures.
#
#######################################################################

data_OHAZUT
_symmetry_cell_setting           monoclinic
_symmetry_space_group_name_H-M   'P 2/n'
_symmetry_Int_Tables_number      13
_space_group_name_Hall           '-P 2yac'
loop_
_symmetry_equiv_pos_site_id
_symmetry_equiv_pos_as_xyz
1 x,y,z
2 1/2-x,y,1/2-z
3 -x,-y,-z
4 1/2+x,-y,1/2+z
_cell_length_a                   18.275(2)
_cell_length_b                   8.7780(10)
_cell_length_c                   23.746(3)
_cell_angle_alpha                90
_cell_angle_beta                 95.529(2)
_cell_angle_gamma                90
_cell_volume                     3791.56
loop_
_atom_site_label
_atom_site_type_symbol
_atom_site_fract_x
_atom_site_fract_y
_atom_site_fract_z
Tb1 Tb 0.852703(19) 0.40890(4) 0.248892(15)
Tb2 Tb 0.76003(2) -0.28063(4) 0.331410(16)
O1 O 0.8316(2) 0.1771(5) 0.2927(2)
O2 O 0.8281(4) -0.0627(6) 0.3118(2)
O3 O 1.1289(3) 0.3608(6) 0.6215(2)
O4 O 1.0667(3) 0.5094(6) 0.6768(2)
O5 O 0.8428(3) 0.6389(7) 0.1202(3)
O6 O 0.9224(3) 0.5453(6) 0.1868(3)
O7 O 1.1302(3) 0.7614(6) -0.1700(2)
O8 O 1.0352(3) 0.7390(6) -0.2345(2)
O9 O 0.7569(2) 0.4520(5) 0.3094(2)
H1 H 0.7411 0.3978 0.3353
O10 O 0.8220(2) 0.6752(5) 0.2513(2)
H2 H 0.8345 0.7337 0.2253
O11 O 0.6744(4) -0.0635(7) 0.3272(3)
H3 H 0.6530 -0.0354 0.2955
H4 H 0.6662 -0.0166 0.3572
O12 O 0.7792(3) -0.1708(7) 0.4261(2)
H5 H 0.8140 -0.2031 0.4494
H6 H 0.7511 -0.1003 0.4358
N1 N 1.0245(3) 0.1251(6) 0.4569(3)
N2 N 0.8904(3) 0.3879(6) 0.5012(2)
N3 N 1.0752(4) 0.7081(8) 0.0294(3)
N4 N 0.9201(3) 0.8618(7) -0.0525(3)
C1 C 0.8537(4) 0.0662(8) 0.3198(3)
C2 C 0.9156(4) 0.0839(8) 0.3659(3)
C3 C 0.9831(4) 0.0036(8) 0.3672(3)
C4 C 1.0002(5) -0.0994(9) 0.3248(4)
H7 H 0.9661 -0.1172 0.2939
C5 C 1.0672(5) -0.1745(10) 0.3286(4)
H8 H 1.0775 -0.2425 0.3004
C6 C 1.1196(5) -0.1483(10) 0.3751(5)
H9 H 1.1647 -0.1982 0.3774
C7 C 1.1044(4) -0.0511(9) 0.4161(4)
H10 H 1.1393 -0.0342 0.4466
C8 C 1.0359(4) 0.0262(8) 0.4138(3)
C9 C 0.9615(4) 0.2013(7) 0.4547(3)
C10 C 0.9069(4) 0.1844(7) 0.4093(3)
H11 H 0.8641 0.2420 0.4086
C11 C 0.9523(4) 0.3088(7) 0.5017(3)
C12 C 1.0108(4) 0.3260(8) 0.5449(3)
H12 H 1.0538 0.2704 0.5430
C13 C 1.0049(3) 0.4233(8) 0.5893(3)
C14 C 0.9389(3) 0.5077(7) 0.5916(3)
C15 C 0.9229(4) 0.6102(8) 0.6349(3)
H13 H 0.9568 0.6223 0.6664
C16 C 0.8600(4) 0.6901(9) 0.6316(4)
H14 H 0.8508 0.7567 0.6605
C17 C 0.8082(4) 0.6735(9) 0.5844(4)
H15 H 0.7655 0.7314 0.5822
C18 C 0.8189(4) 0.5753(8) 0.5421(3)
H16 H 0.7834 0.5648 0.5116
C19 C 0.8842(3) 0.4890(8) 0.5447(3)
C20 C 1.0713(4) 0.4314(8) 0.6322(3)
C21 C 0.9074(5) 0.6099(9) 0.1404(4)
C22 C 0.9689(4) 0.6443(9) 0.1046(4)
C23 C 1.0455(4) 0.6172(9) 0.1219(4)
C24 C 1.0748(5) 0.5608(10) 0.1763(4)
H17 H 1.0434 0.5413 0.2041
C25 C 1.1476(5) 0.5361(12) 0.1873(4)
H18 H 1.1655 0.4971 0.2223
C26 C 1.1970(5) 0.5678(13) 0.1471(5)
H19 H 1.2468 0.5483 0.1555
C27 C 1.1722(5) 0.6265(12) 0.0966(4)
H20 H 1.2053 0.6500 0.0705
C28 C 1.0963(4) 0.6527(10) 0.0826(4)
C29 C 1.0057(5) 0.7331(9) 0.0149(4)
C30 C 0.9504(4) 0.7024(9) 0.0520(4)
H21 H 0.9014 0.7224 0.0401
C31 C 0.9838(5) 0.7921(9) -0.0431(4)
C32 C 1.0308(4) 0.7686(8) -0.0860(4)
H22 H 1.0762 0.7226 -0.0771
C33 C 1.0108(4) 0.8119(8) -0.1401(3)
C34 C 0.9416(4) 0.8846(9) -0.1519(4)
C35 C 0.9130(5) 0.9355(11) -0.2065(4)
H23 H 0.9396 0.9188 -0.2374
C36 C 0.8472(5) 1.0084(14) -0.2138(4)
H24 H 0.8299 1.0443 -0.2494
C37 C 0.8057(5) 1.0295(13) -0.1689(4)
H25 H 0.7602 1.0770 -0.1751
C38 C 0.8296(5) 0.9828(11) -0.1160(4)
H26 H 0.8010 0.9989 -0.0862
C39 C 0.8991(4) 0.9088(9) -0.1064(4)
C40 C 1.0609(4) 0.7727(8) -0.1848(4)
Tb1B Tb 1.147297(19) 0.59110(4) 0.751108(15)
Tb1B_2 Tb 1.147297(19) 0.59110(4) -0.248892(15)
Tb1A Tb 0.647297(19) 0.40890(4) 0.251108(15)
Tb2B Tb 1.23997(2) 0.28063(4) 0.668590(16)
Tb2A Tb 0.73997(2) 0.71937(4) 0.168590(16)
Tb2_2 Tb 0.76003(2) 0.71937(4) 0.331410(16)
O3B O 0.8711(3) -0.3608(6) 0.3785(2)
O4B O 0.9333(3) 0.4906(6) 0.3232(2)
O5A O 0.6572(3) -0.3611(7) 0.3798(3)
O7B O 0.8698(3) 0.2386(6) 0.1700(2)
O8B O 0.9648(3) 0.2610(6) 0.2345(2)
O9A O 0.7431(2) 0.4520(5) 0.1906(2)
O9_2 O 0.7569(2) -0.5480(5) 0.3094(2)
H1A H 0.7589 0.3978 0.1647
H1_2 H 0.7411 -0.6022 0.3353
O10_2 O 0.8220(2) -0.3248(5) 0.2513(2)
O10A O 0.6780(2) -0.3248(5) 0.2487(2)
H2_2 H 0.8345 -0.2663 0.2253
H2A H 0.6655 -0.2663 0.2747
O13 O 0.7433(4) 0.3320(10) 0.4341(4)
H27 H 0.7277 0.4218 0.4269
H28 H 0.7395 0.2825 0.4644
O14 O 0.6784(4) 0.0085(10) 0.4669(3)
H29 H 0.6478 -0.0074 0.4911
H30 H 0.6682 0.0736 0.4409
loop_
_geom_bond_atom_site_label_1
_geom_bond_atom_site_label_2
_geom_bond_site_symmetry_1
_geom_bond_site_symmetry_2
Tb1 O1 1_555 1_555
Tb2 O2 1_555 1_555
O1 C1 1_555 1_555
O2 C1 1_555 1_555
O3 C20 1_555 1_555
O4 C20 1_555 1_555
O5 C21 1_555 1_555
O6 Tb1 1_555 1_555
O7 C40 1_555 1_555
O8 C40 1_555 1_555
O9 Tb1 1_555 1_555
H1 O9 1_555 1_555
O10 Tb1 1_555 1_555
H2 O10 1_555 1_555
O11 Tb2 1_555 1_555
H3 O11 1_555 1_555
H4 O11 1_555 1_555
O12 Tb2 1_555 1_555
H5 O12 1_555 1_555
H6 O12 1_555 1_555
N1 C8 1_555 1_555
N2 C11 1_555 1_555
N3 C28 1_555 1_555
N4 C31 1_555 1_555
C1 C2 1_555 1_555
C2 C3 1_555 1_555
C3 C4 1_555 1_555
C4 H7 1_555 1_555
C5 C4 1_555 1_555
H8 C5 1_555 1_555
C6 C5 1_555 1_555
H9 C6 1_555 1_555
C7 C6 1_555 1_555
H10 C7 1_555 1_555
C8 C3 1_555 1_555
C9 N1 1_555 1_555
C10 C2 1_555 1_555
H11 C10 1_555 1_555
C11 C9 1_555 1_555
C12 C11 1_555 1_555
H12 C12 1_555 1_555
C13 C12 1_555 1_555
C14 C13 1_555 1_555
C15 C14 1_555 1_555
H13 C15 1_555 1_555
C16 C15 1_555 1_555
H14 C16 1_555 1_555
C17 C16 1_555 1_555
H15 C17 1_555 1_555
C18 C17 1_555 1_555
H16 C18 1_555 1_555
C19 N2 1_555 1_555
C20 C13 1_555 1_555
C21 O6 1_555 1_555
C22 C21 1_555 1_555
C23 C22 1_555 1_555
C24 C23 1_555 1_555
H17 C24 1_555 1_555
C25 C24 1_555 1_555
H18 C25 1_555 1_555
C26 C25 1_555 1_555
H19 C26 1_555 1_555
C27 C26 1_555 1_555
H20 C27 1_555 1_555
C28 C23 1_555 1_555
C29 N3 1_555 1_555
C30 C22 1_555 1_555
H21 C30 1_555 1_555
C31 C29 1_555 1_555
C32 C31 1_555 1_555
H22 C32 1_555 1_555
C33 C32 1_555 1_555
C34 C33 1_555 1_555
C35 C34 1_555 1_555
H23 C35 1_555 1_555
C36 C35 1_555 1_555
H24 C36 1_555 1_555
C37 C36 1_555 1_555
H25 C37 1_555 1_555
C38 C37 1_555 1_555
H26 C38 1_555 1_555
C39 N4 1_555 1_555
C40 C33 1_555 1_555
O13 H27 1_555 1_555
H28 O13 1_555 1_555
O14 H29 1_555 1_555
H30 O14 1_555 1_555
Tb1B O4 1_555 1_555
Tb1B_2 O7 1_555 1_555
Tb1A O9 1_555 1_555
Tb2B O3 1_555 1_555
Tb2A O5 1_555 1_555
Tb2_2 O9 1_555 1_555
O3B Tb2 1_555 1_555
O4B Tb1 1_555 1_555
O5A Tb2 1_555 1_555
O7B Tb1 1_555 1_555
O8B Tb1 1_555 1_555
O9A Tb1 1_555 1_555
O9_2 Tb2 1_555 1_555
H1A O9A 1_555 1_555
H1_2 O9_2 1_555 1_555
O10_2 Tb2 1_555 1_555
O10A Tb2 1_555 1_555
H2_2 O10_2 1_555 1_555
H2A O10A 1_555 1_555
O8 Tb1B_2 1_555 1_555
O10 Tb2A 1_555 1_555
O10 Tb2_2 1_555 1_555
C7 C8 1_555 1_555
C9 C10 1_555 1_555
C14 C19 1_555 1_555
C18 C19 1_555 1_555
C27 C28 1_555 1_555
C29 C30 1_555 1_555
C34 C39 1_555 1_555
C38 C39 1_555 1_555
Tb1A O9A 1_555 1_555
Tb2A O9A 1_555 1_555

#END
