
#######################################################################
#
#                 Cambridge Crystallographic Data Centre
#                                CCDC 
#
#######################################################################
#
# If this CIF has been generated from an entry in the Cambridge 
# Structural Database, then it will include bibliographic, chemical, 
# crystal, experimental, refinement or atomic coordinate data resulting 
# from the CCDC's data processing and validation procedures.
#
#######################################################################

data_OHAZED
_symmetry_cell_setting           triclinic
_symmetry_space_group_name_H-M   'P -1'
_symmetry_Int_Tables_number      2
_space_group_name_Hall           '-P 1'
loop_
_symmetry_equiv_pos_site_id
_symmetry_equiv_pos_as_xyz
1 x,y,z
2 -x,-y,-z
_cell_length_a                   11.7112(12)
_cell_length_b                   13.2845(13)
_cell_length_c                   13.5924(14)
_cell_angle_alpha                64.220(2)
_cell_angle_beta                 83.998(2)
_cell_angle_gamma                67.818(2)
_cell_volume                     1758.75
loop_
_atom_site_label
_atom_site_type_symbol
_atom_site_fract_x
_atom_site_fract_y
_atom_site_fract_z
La1 La -0.083004(15) 0.386644(13) 0.506909(13)
O1 O 0.00553(19) 0.43329(18) 0.63265(15)
O2 O 0.0820(2) 0.5175(2) 0.70218(17)
O3 O 0.0538(2) -0.19455(18) 1.32100(17)
O4 O 0.2225(2) -0.34741(19) 1.33301(18)
O5 O 0.14384(18) 0.31133(19) 0.50372(19)
O6 O 0.24617(19) 0.41020(18) 0.53176(18)
N1 N -0.0083(3) 0.2056(2) 1.0412(2)
N2 N 0.2105(3) -0.0067(2) 0.9551(2)
N3 N 0.5527(2) -0.0169(2) 0.6271(2)
N4 N -0.2708(2) 0.3683(2) 0.4250(2)
N5 N -0.0326(2) 0.2192(2) 0.4295(2)
C1 C 0.0348(3) 0.4440(3) 0.7135(2)
C2 C 0.0150(3) 0.3630(3) 0.8271(2)
C3 C -0.0579(3) 0.4114(3) 0.8983(3)
C4 C -0.1206(4) 0.5361(3) 0.8689(3)
H1 H -0.1152 0.5923 0.7993
C5 C -0.1888(5) 0.5739(4) 0.9429(4)
H2 H -0.2296 0.6559 0.9231
C6 C -0.1983(5) 0.4915(4) 1.0475(4)
H3 H -0.2442 0.5191 1.0970
C7 C -0.1411(4) 0.3711(4) 1.0782(3)
H4 H -0.1499 0.3169 1.1478
C8 C -0.0685(3) 0.3279(3) 1.0049(3)
C9 C 0.0592(3) 0.1654(3) 0.9730(2)
C10 C 0.0714(3) 0.2415(3) 0.8636(2)
H5 H 0.1175 0.2088 0.8174
C11 C 0.1274(3) 0.0327(3) 1.0164(2)
C12 C 0.1052(3) -0.0453(3) 1.1209(2)
H6 H 0.0446 -0.0136 1.1607
C13 C 0.1715(3) -0.1663(3) 1.1640(2)
C14 C 0.1482(3) -0.2417(3) 1.2796(2)
C15 C 0.2609(3) -0.2130(3) 1.0993(2)
C16 C 0.3329(4) -0.3367(3) 1.1296(3)
H7 H 0.3213 -0.3947 1.1954
C17 C 0.4189(4) -0.3711(4) 1.0631(3)
H8 H 0.4653 -0.4525 1.0844
C18 C 0.4387(4) -0.2866(4) 0.9634(3)
H9 H 0.4995 -0.3115 0.9202
C19 C 0.3684(4) -0.1676(3) 0.9301(3)
H10 H 0.3808 -0.1115 0.8634
C20 C 0.2772(3) -0.1283(3) 0.9955(3)
C21 C 0.2382(3) 0.3179(3) 0.5318(2)
C22 C 0.3521(3) 0.2038(3) 0.5673(3)
C23 C 0.3823(3) 0.1438(3) 0.5026(3)
H11 H 0.3360 0.1759 0.4371
C24 C 0.4838(3) 0.0332(2) 0.5350(3)
C25 C 0.5244(3) 0.0421(3) 0.6926(3)
C26 C 0.5970(3) -0.0128(3) 0.7923(3)
H12 H 0.6631 -0.0857 0.8097
C27 C 0.5720(4) 0.0389(4) 0.8632(3)
H13 H 0.6194 0.0005 0.9291
C28 C 0.4745(4) 0.1504(4) 0.8364(3)
H14 H 0.4591 0.1863 0.8844
C29 C 0.4019(3) 0.2070(3) 0.7411(3)
H15 H 0.3371 0.2804 0.7252
C30 C 0.4250(3) 0.1544(3) 0.6664(3)
C31 C -0.3862(3) 0.4428(4) 0.4189(3)
H16 H -0.4003 0.5033 0.4412
C32 C -0.4877(4) 0.4357(5) 0.3810(3)
H17 H -0.5671 0.4909 0.3766
C33 C -0.4675(4) 0.3455(4) 0.3503(3)
H18 H -0.5339 0.3381 0.3261
C34 C -0.3477(4) 0.2644(4) 0.3552(3)
C35 C -0.3184(5) 0.1681(4) 0.3224(3)
H19 H -0.3824 0.1543 0.3021
C36 C -0.2023(5) 0.0989(4) 0.3207(3)
H20 H -0.1869 0.0393 0.2969
C37 C -0.1006(4) 0.1139(3) 0.3545(3)
C38 C 0.0232(4) 0.0434(3) 0.3527(3)
H21 H 0.0423 -0.0164 0.3286
C39 C 0.1146(4) 0.0624(3) 0.3861(3)
H22 H 0.1971 0.0181 0.3831
C40 C 0.0825(3) 0.1507(3) 0.4256(3)
H23 H 0.1461 0.1617 0.4504
C41 C -0.1249(3) 0.2030(3) 0.3927(2)
C42 C -0.2503(3) 0.2805(3) 0.3918(3)
La1A La 0.083004(15) 0.613356(13) 0.493091(13)
La1A_2 La 0.083004(15) -0.386644(13) 1.493091(13)
La1A_3 La 1.083004(15) -0.386644(13) 0.493091(13)
La1_2 La 0.916996(15) -0.613356(13) 0.506909(13)
La1_3 La -0.083004(15) 1.386644(13) -0.493091(13)
O1A O -0.00553(19) 0.56671(18) 0.36735(15)
O2A O -0.0820(2) 0.4825(2) 0.29782(17)
O3A O -0.0538(2) 1.19455(18) -0.32100(17)
O3A_2 O -0.0538(2) 0.19455(18) 0.67900(17)
O3_2 O 0.0538(2) 0.80545(18) 0.32100(17)
O4A O -0.2225(2) 1.34741(19) -0.33301(18)
O4A_2 O -0.2225(2) 0.34741(19) 0.66699(18)
O4_2 O 0.2225(2) 0.65259(19) 0.33301(18)
O5A O 0.85616(18) -0.31133(19) 0.49628(19)
O5A_2 O -0.14384(18) 0.68867(19) 0.49628(19)
O6A O 0.75383(19) -0.41020(18) 0.46824(18)
O6A_2 O -0.24617(19) 0.58980(18) 0.46824(18)
N1A N 0.0083(3) 0.7944(2) -0.0412(2)
N2A N -0.2105(3) 1.0067(2) 0.0449(2)
N3A N 0.4473(2) 0.0169(2) 0.3729(2)
N4A N 0.2708(2) 0.6317(2) 0.5750(2)
N5A N 0.0326(2) 0.7808(2) 0.5705(2)
C1A C -0.0348(3) 0.5560(3) 0.2865(2)
C2A C -0.0150(3) 0.6370(3) 0.1729(2)
C3A C 0.0579(3) 0.5886(3) 0.1017(3)
C4A C 0.1206(4) 0.4639(3) 0.1311(3)
H1A H 0.1152 0.4077 0.2007
C5A C 0.1888(5) 0.4261(4) 0.0571(4)
H2A H 0.2296 0.3441 0.0769
C6A C 0.1983(5) 0.5085(4) -0.0475(4)
H3A H 0.2442 0.4809 -0.0970
C7A C 0.1411(4) 0.6289(4) -0.0782(3)
H4A H 0.1499 0.6831 -0.1478
C8A C 0.0685(3) 0.6721(3) -0.0049(3)
C9A C -0.0592(3) 0.8346(3) 0.0270(2)
C10A C -0.0714(3) 0.7585(3) 0.1364(2)
H5A H -0.1175 0.7912 0.1826
C11A C -0.1274(3) 0.9673(3) -0.0164(2)
C12A C -0.1052(3) 1.0453(3) -0.1209(2)
H6A H -0.0446 1.0136 -0.1607
C13A C -0.1715(3) 1.1663(3) -0.1640(2)
C14A C -0.1482(3) 1.2417(3) -0.2796(2)
C15A C -0.2609(3) 1.2130(3) -0.0993(2)
C16A C -0.3329(4) 1.3367(3) -0.1296(3)
H7A H -0.3213 1.3947 -0.1954
C17A C -0.4189(4) 1.3711(4) -0.0631(3)
H8A H -0.4653 1.4525 -0.0844
C18A C -0.4387(4) 1.2866(4) 0.0366(3)
H9A H -0.4995 1.3115 0.0798
C19A C -0.3684(4) 1.1676(3) 0.0699(3)
H10A H -0.3808 1.1115 0.1366
C20A C -0.2772(3) 1.1283(3) 0.0045(3)
C21A C 0.7618(3) -0.3179(3) 0.4682(2)
C22A C 0.6479(3) -0.2038(3) 0.4327(3)
C23A C 0.6177(3) -0.1438(3) 0.4974(3)
H11A H 0.6640 -0.1759 0.5629
C24A C 0.5162(3) -0.0332(2) 0.4650(3)
C25A C 0.4756(3) -0.0421(3) 0.3074(3)
C26A C 0.4030(3) 0.0128(3) 0.2077(3)
H12A H 0.3369 0.0857 0.1903
C27A C 0.4280(4) -0.0389(4) 0.1368(3)
H13A H 0.3806 -0.0005 0.0709
C28A C 0.5255(4) -0.1504(4) 0.1636(3)
H14A H 0.5409 -0.1863 0.1156
C29A C 0.5981(3) -0.2070(3) 0.2589(3)
H15A H 0.6629 -0.2804 0.2748
C30A C 0.5750(3) -0.1544(3) 0.3336(3)
C31A C 0.3862(3) 0.5572(4) 0.5811(3)
H16A H 0.4003 0.4967 0.5588
C32A C 0.4877(4) 0.5643(5) 0.6190(3)
H17A H 0.5671 0.5091 0.6234
C33A C 0.4675(4) 0.6545(4) 0.6497(3)
H18A H 0.5339 0.6619 0.6739
C34A C 0.3477(4) 0.7356(4) 0.6448(3)
C35A C 0.3184(5) 0.8319(4) 0.6776(3)
H19A H 0.3824 0.8457 0.6979
C36A C 0.2023(5) 0.9011(4) 0.6793(3)
H20A H 0.1869 0.9607 0.7031
C37A C 0.1006(4) 0.8861(3) 0.6455(3)
C38A C -0.0232(4) 0.9566(3) 0.6473(3)
H21A H -0.0423 1.0164 0.6714
C39A C -0.1146(4) 0.9376(3) 0.6139(3)
H22A H -0.1971 0.9819 0.6169
C40A C -0.0825(3) 0.8493(3) 0.5744(3)
H23A H -0.1461 0.8383 0.5496
C41A C 0.1249(3) 0.7970(3) 0.6073(2)
C42A C 0.2503(3) 0.7195(3) 0.6082(3)
loop_
_geom_bond_atom_site_label_1
_geom_bond_atom_site_label_2
_geom_bond_site_symmetry_1
_geom_bond_site_symmetry_2
La1 O1 1_555 1_555
O1 C1 1_555 1_555
O2 C1 1_555 1_555
O3 C14 1_555 1_555
O4 C14 1_555 1_555
O5 La1 1_555 1_555
O6 C21 1_555 1_555
N1 C8 1_555 1_555
N2 C11 1_555 1_555
N3 C24 1_555 1_555
N4 La1 1_555 1_555
N5 La1 1_555 1_555
C1 C2 1_555 1_555
C2 C3 1_555 1_555
C3 C4 1_555 1_555
C4 H1 1_555 1_555
C5 C4 1_555 1_555
H2 C5 1_555 1_555
C6 C5 1_555 1_555
H3 C6 1_555 1_555
C7 C6 1_555 1_555
H4 C7 1_555 1_555
C8 C3 1_555 1_555
C9 N1 1_555 1_555
C10 C2 1_555 1_555
H5 C10 1_555 1_555
C11 C9 1_555 1_555
C12 C11 1_555 1_555
H6 C12 1_555 1_555
C13 C12 1_555 1_555
C14 C13 1_555 1_555
C15 C13 1_555 1_555
C16 C15 1_555 1_555
H7 C16 1_555 1_555
C17 C16 1_555 1_555
H8 C17 1_555 1_555
C18 C17 1_555 1_555
H9 C18 1_555 1_555
C19 C18 1_555 1_555
H10 C19 1_555 1_555
C20 N2 1_555 1_555
C21 O5 1_555 1_555
C22 C21 1_555 1_555
C23 C22 1_555 1_555
H11 C23 1_555 1_555
C24 C23 1_555 1_555
C25 N3 1_555 1_555
C26 C25 1_555 1_555
H12 C26 1_555 1_555
C27 C26 1_555 1_555
H13 C27 1_555 1_555
C28 C27 1_555 1_555
H14 C28 1_555 1_555
C29 C28 1_555 1_555
H15 C29 1_555 1_555
C30 C22 1_555 1_555
C31 N4 1_555 1_555
H16 C31 1_555 1_555
C32 C31 1_555 1_555
H17 C32 1_555 1_555
C33 C32 1_555 1_555
H18 C33 1_555 1_555
C34 C33 1_555 1_555
C35 C34 1_555 1_555
H19 C35 1_555 1_555
C36 C35 1_555 1_555
H20 C36 1_555 1_555
C37 C36 1_555 1_555
C38 C37 1_555 1_555
H21 C38 1_555 1_555
C39 C38 1_555 1_555
H22 C39 1_555 1_555
C40 N5 1_555 1_555
H23 C40 1_555 1_555
C41 N5 1_555 1_555
C42 N4 1_555 1_555
La1A O1 1_555 1_555
La1A_2 O3 1_555 1_555
La1A_3 O5A 1_555 1_555
La1_2 O6A 1_555 1_555
La1_3 O3A 1_555 1_555
O1A La1 1_555 1_555
O2A La1 1_555 1_555
O3A C14A 1_555 1_555
O3A_2 La1 1_555 1_555
O3_2 La1A 1_555 1_555
O4A La1_3 1_555 1_555
O4A_2 La1 1_555 1_555
O4_2 La1A 1_555 1_555
O5A C21A 1_555 1_555
O5A_2 La1A 1_555 1_555
O6A C21A 1_555 1_555
O6A_2 La1 1_555 1_555
N1A C8A 1_555 1_555
N2A C11A 1_555 1_555
N3A C24A 1_555 1_555
N4A La1A 1_555 1_555
N5A La1A 1_555 1_555
C1A O1A 1_555 1_555
C2A C1A 1_555 1_555
C3A C2A 1_555 1_555
C4A C3A 1_555 1_555
H1A C4A 1_555 1_555
C5A C4A 1_555 1_555
H2A C5A 1_555 1_555
C6A C5A 1_555 1_555
H3A C6A 1_555 1_555
C7A C6A 1_555 1_555
H4A C7A 1_555 1_555
C8A C3A 1_555 1_555
C9A N1A 1_555 1_555
C10A C2A 1_555 1_555
H5A C10A 1_555 1_555
C11A C9A 1_555 1_555
C12A C11A 1_555 1_555
H6A C12A 1_555 1_555
C13A C12A 1_555 1_555
C14A O4A 1_555 1_555
C15A C13A 1_555 1_555
C16A C15A 1_555 1_555
H7A C16A 1_555 1_555
C17A C16A 1_555 1_555
H8A C17A 1_555 1_555
C18A C17A 1_555 1_555
H9A C18A 1_555 1_555
C19A C18A 1_555 1_555
H10A C19A 1_555 1_555
C20A N2A 1_555 1_555
C21A C22A 1_555 1_555
C22A C23A 1_555 1_555
C23A H11A 1_555 1_555
C24A C24 1_555 1_555
C25A N3A 1_555 1_555
C26A C25A 1_555 1_555
H12A C26A 1_555 1_555
C27A C26A 1_555 1_555
H13A C27A 1_555 1_555
C28A C27A 1_555 1_555
H14A C28A 1_555 1_555
C29A C28A 1_555 1_555
H15A C29A 1_555 1_555
C30A C22A 1_555 1_555
C31A N4A 1_555 1_555
H16A C31A 1_555 1_555
C32A C31A 1_555 1_555
H17A C32A 1_555 1_555
C33A C32A 1_555 1_555
H18A C33A 1_555 1_555
C34A C33A 1_555 1_555
C35A C34A 1_555 1_555
H19A C35A 1_555 1_555
C36A C35A 1_555 1_555
H20A C36A 1_555 1_555
C37A C36A 1_555 1_555
C38A C37A 1_555 1_555
H21A C38A 1_555 1_555
C39A C38A 1_555 1_555
H22A C39A 1_555 1_555
C40A N5A 1_555 1_555
H23A C40A 1_555 1_555
C41A N5A 1_555 1_555
C42A N4A 1_555 1_555
O2 La1A 1_555 1_555
O4 La1A_2 1_555 1_555
O6 La1A 1_555 1_555
C7 C8 1_555 1_555
C9 C10 1_555 1_555
C15 C20 1_555 1_555
C19 C20 1_555 1_555
C25 C30 1_555 1_555
C29 C30 1_555 1_555
C34 C42 1_555 1_555
C37 C41 1_555 1_555
C39 C40 1_555 1_555
C41 C42 1_555 1_555
La1A O1A 1_555 1_555
O2A C1A 1_555 1_555
C7A C8A 1_555 1_555
C9A C10A 1_555 1_555
C13A C14A 1_555 1_555
C15A C20A 1_555 1_555
C19A C20A 1_555 1_555
C23A C24A 1_555 1_555
C25A C30A 1_555 1_555
C29A C30A 1_555 1_555
C34A C42A 1_555 1_555
C37A C41A 1_555 1_555
C39A C40A 1_555 1_555
C41A C42A 1_555 1_555

#END
