
#######################################################################
#
#                 Cambridge Crystallographic Data Centre
#                                CCDC 
#
#######################################################################
#
# If this CIF has been generated from an entry in the Cambridge 
# Structural Database, then it will include bibliographic, chemical, 
# crystal, experimental, refinement or atomic coordinate data resulting 
# from the CCDC's data processing and validation procedures.
#
#######################################################################

data_OHAZON
_symmetry_cell_setting           monoclinic
_symmetry_space_group_name_H-M   'P 21/c'
_symmetry_Int_Tables_number      14
_space_group_name_Hall           '-P 2ybc'
loop_
_symmetry_equiv_pos_site_id
_symmetry_equiv_pos_as_xyz
1 x,y,z
2 -x,1/2+y,1/2-z
3 -x,-y,-z
4 x,1/2-y,1/2+z
_cell_length_a                   18.235(4)
_cell_length_b                   17.420(3)
_cell_length_c                   28.420(9)
_cell_angle_alpha                90
_cell_angle_beta                 124.02(2)
_cell_angle_gamma                90
_cell_volume                     7482.55
loop_
_atom_site_label
_atom_site_type_symbol
_atom_site_fract_x
_atom_site_fract_y
_atom_site_fract_z
Gd1 Gd 0.41869(3) 0.70039(2) 0.760547(15)
Gd2 Gd -0.37381(3) 0.80020(2) 0.262124(15)
Gd3 Gd -0.40404(3) 0.64264(2) 0.343452(16)
Gd4 Gd 0.45091(3) 0.64288(2) 1.178990(16)
O1 O 0.3202(4) 0.6102(3) 0.6839(2)
O2 O 0.2893(4) 0.6277(3) 0.7483(2)
O3 O -0.2529(4) 0.6931(3) 0.3965(2)
O4 O -0.2413(4) 0.7325(3) 0.3263(2)
O5 O 0.4119(4) 0.7463(3) 0.8343(2)
O6 O 0.5228(4) 0.8272(3) 0.8886(2)
O7 O 0.4811(4) 1.0258(3) 1.1830(2)
O8 O 0.5595(4) 0.9208(3) 1.2243(2)
O9 O 0.6301(4) 0.7644(3) 1.1844(2)
O10 O 0.5086(4) 0.6925(3) 1.1295(2)
O11 O 0.4836(4) 0.5854(3) 0.8081(2)
O12 O 0.4586(4) 0.4606(3) 0.8082(2)
O13 O 0.3000(4) 0.8199(3) 0.6324(2)
O14 O 0.2862(4) 0.7695(4) 0.6993(2)
O15 O -0.2478(4) 0.8770(3) 0.2785(2)
O16 O -0.2799(4) 0.8858(3) 0.3430(2)
O17 O 0.4526(4) 0.8352(3) 0.7619(2)
H1 H 0.4147 0.8633 0.7622
O18 O 0.5748(4) 0.7223(3) 0.8210(2)
H2 H 0.6001 0.6940 0.8504
O19 O -0.4043(4) 0.6648(3) 0.2608(2)
H3 H -0.3661 0.6372 0.2605
O20 O 0.4682(3) 0.7225(3) 0.7012(2)
H4 H 0.4425 0.6942 0.6718
O21 O -0.3319(4) 0.5830(4) 0.4379(2)
H5 H -0.2818 0.5992 0.4652
H6 H -0.3570 0.5461 0.4433
O22 O -0.3005(4) 0.5425(3) 0.3524(2)
H7 H -0.2701 0.5500 0.3385
H8 H -0.2952 0.5006 0.3694
O23 O 0.3722(4) 0.5312(3) 1.1824(3)
H9 H 0.3462 0.5343 1.1995
H10 H 0.3711 0.4894 1.1666
O24 O 0.3706(4) 0.5911(4) 1.0821(2)
H11 H 0.3207 0.6099 1.0565
H12 H 0.3926 0.5544 1.0741
N1 N -0.0087(5) 0.5714(4) 0.5655(3)
N2 N 0.0664(5) 0.6376(4) 0.4820(3)
N3 N 0.3907(5) 0.8124(4) 1.0013(3)
N4 N 0.5720(5) 0.9439(4) 1.0522(3)
N5 N 0.6146(5) 0.6995(4) 1.0027(3)
N6 N 0.4375(5) 0.5693(4) 0.9655(3)
N7 N -0.0260(5) 0.8467(4) 0.5395(3)
N8 N 0.0479(5) 0.9360(4) 0.4607(3)
C1 C 0.2676(6) 0.6099(5) 0.6993(4)
C2 C 0.1719(6) 0.5924(4) 0.6545(4)
C3 C 0.1097(6) 0.5603(5) 0.6659(3)
C4 C 0.1349(6) 0.5388(5) 0.7205(4)
H13 H 0.1943 0.5458 0.7520
C5 C 0.0734(6) 0.5078(6) 0.7283(4)
H14 H 0.0898 0.4951 0.7655
C6 C -0.0147(7) 0.4943(6) 0.6814(4)
H15 H -0.0564 0.4714 0.6871
C7 C -0.0392(6) 0.5143(5) 0.6283(4)
H16 H -0.0980 0.5050 0.5968
C8 C 0.0224(6) 0.5488(5) 0.6197(4)
C9 C 0.0485(6) 0.6032(4) 0.5566(3)
C10 C 0.1385(6) 0.6127(5) 0.5996(3)
H17 H 0.1770 0.6337 0.5903
C11 C 0.0123(6) 0.6322(4) 0.4984(3)
C12 C -0.0768(6) 0.6553(5) 0.4637(4)
H18 H -0.1133 0.6515 0.4777
C13 C -0.1121(6) 0.6834(5) 0.4098(3)
C14 C -0.0557(6) 0.6910(5) 0.3906(3)
C15 C -0.0783(7) 0.7214(6) 0.3370(4)
H19 H -0.1371 0.7385 0.3105
C16 C -0.0187(7) 0.7266(6) 0.3229(4)
H20 H -0.0363 0.7463 0.2869
C17 C 0.0694(6) 0.7027(5) 0.3618(4)
H21 H 0.1109 0.7065 0.3517
C18 C 0.0961(6) 0.6738(5) 0.4142(4)
H22 H 0.1558 0.6586 0.4404
C19 C 0.0345(6) 0.6669(5) 0.4288(3)
C20 C -0.2085(6) 0.7044(4) 0.3749(3)
C21 C 0.4560(6) 0.7893(5) 0.8766(3)
C22 C 0.4254(6) 0.7965(5) 0.9163(3)
C23 C 0.3552(5) 0.7528(4) 0.9124(3)
C24 C 0.2984(6) 0.7010(4) 0.8680(3)
H23 H 0.3030 0.6960 0.8364
C25 C 0.2381(6) 0.6590(5) 0.8699(4)
H24 H 0.2008 0.6250 0.8395
C26 C 0.2287(6) 0.6641(5) 0.9157(4)
H25 H 0.1869 0.6330 0.9167
C27 C 0.2808(6) 0.7146(5) 0.9588(4)
H26 H 0.2749 0.7186 0.9899
C28 C 0.3441(6) 0.7616(5) 0.9575(3)
C29 C 0.4529(5) 0.8537(4) 1.0023(3)
C30 C 0.4723(6) 0.8465(5) 0.9611(3)
H27 H 0.5183 0.8764 0.9642
C31 C 0.5073(6) 0.9077(5) 1.0511(3)
C32 C 0.4883(5) 0.9159(4) 1.0935(3)
H28 H 0.4394 0.8906 1.0901
C33 C 0.5437(6) 0.9619(4) 1.1393(3)
C34 C 0.6127(6) 1.0017(5) 1.1428(4)
C35 C 0.6729(6) 1.0512(5) 1.1884(4)
H29 H 0.6688 1.0576 1.2200
C36 C 0.7371(6) 1.0895(5) 1.1862(4)
H30 H 0.7754 1.1242 1.2158
C37 C 0.7473(6) 1.0785(5) 1.1415(4)
H31 H 0.7922 1.1056 1.1412
C38 C 0.6933(6) 1.0294(5) 1.0981(4)
H32 H 0.7022 1.0210 1.0687
C39 C 0.6246(6) 0.9911(5) 1.0970(4)
C40 C 0.5248(6) 0.9712(5) 1.1849(4)
C41 C 0.5776(6) 0.7261(5) 1.1399(3)
C42 C 0.5945(6) 0.7225(4) 1.0933(3)
C43 C 0.6622(5) 0.7636(4) 1.0931(3)
C44 C 0.7236(6) 0.8153(5) 1.1361(4)
H33 H 0.7228 0.8228 1.1689
C45 C 0.7838(6) 0.8542(5) 1.1307(4)
H34 H 0.8247 0.8884 1.1597
C46 C 0.7843(6) 0.8433(5) 1.0822(4)
H35 H 0.8252 0.8716 1.0783
C47 C 0.7287(6) 0.7939(5) 1.0406(4)
H36 H 0.7310 0.7881 1.0082
C48 C 0.6669(6) 0.7506(5) 1.0451(3)
C49 C 0.5539(6) 0.6615(4) 1.0055(3)
C50 C 0.5420(6) 0.6739(5) 1.0496(3)
H37 H 0.4958 0.6475 1.0488
C51 C 0.4959(6) 0.6054(4) 0.9597(3)
C52 C 0.5031(6) 0.5933(5) 0.9132(3)
H38 H 0.5458 0.6209 0.9107
C53 C 0.4488(5) 0.5424(4) 0.8721(3)
C54 C 0.3841(6) 0.5013(4) 0.8758(3)
C55 C 0.3224(6) 0.4486(5) 0.8350(3)
H39 H 0.3219 0.4381 0.8020
C56 C 0.2628(6) 0.4125(5) 0.8430(4)
H40 H 0.2215 0.3772 0.8153
C57 C 0.2623(6) 0.4270(5) 0.8916(4)
H41 H 0.2218 0.4007 0.8969
C58 C 0.3200(6) 0.4790(5) 0.9312(4)
H42 H 0.3188 0.4892 0.9636
C59 C 0.3822(5) 0.5182(4) 0.9242(3)
C60 C 0.4639(6) 0.5281(5) 0.8255(3)
C61 C 0.2556(6) 0.8019(5) 0.6531(3)
C62 C 0.1559(5) 0.8198(4) 0.6164(3)
C63 C 0.0971(5) 0.8015(5) 0.6333(3)
C64 C 0.1207(7) 0.7681(5) 0.6852(3)
H43 H 0.1810 0.7564 0.7130
C65 C 0.0579(7) 0.7525(6) 0.6959(4)
H44 H 0.0757 0.7332 0.7321
C66 C -0.0331(6) 0.7646(6) 0.6542(4)
H45 H -0.0763 0.7514 0.6616
C67 C -0.0578(6) 0.7957(6) 0.6031(4)
H46 H -0.1188 0.8048 0.5752
C68 C 0.0051(6) 0.8146(5) 0.5911(4)
C69 C 0.0306(6) 0.8659(5) 0.5269(3)
C70 C 0.1239(6) 0.8523(4) 0.5648(3)
H47 H 0.1629 0.8658 0.5540
C71 C -0.0065(6) 0.8998(5) 0.4696(3)
C72 C -0.0976(6) 0.8882(5) 0.4269(3)
H48 H -0.1343 0.8627 0.4359
C73 C -0.1327(5) 0.9137(5) 0.3726(3)
C74 C -0.0745(5) 0.9545(5) 0.3615(3)
C75 C -0.1056(6) 0.9860(5) 0.3074(4)
H49 H -0.1657 0.9800 0.2768
C76 C -0.0474(7) 1.0254(6) 0.2998(4)
H50 H -0.0680 1.0472 0.2638
C77 C 0.0420(7) 1.0340(6) 0.3447(4)
H51 H 0.0817 1.0608 0.3389
C78 C 0.0716(6) 1.0034(5) 0.3971(4)
H52 H 0.1321 1.0091 0.4273
C79 C 0.0145(5) 0.9641(5) 0.4069(3)
C80 C -0.2268(6) 0.8927(5) 0.3278(3)
Gd2_2 Gd 0.62619(3) 0.80020(2) 1.262124(15)
Gd2C Gd 0.62619(3) 0.69980(2) 0.762124(15)
Gd3C Gd 0.59596(3) 0.85736(2) 0.843452(16)
Gd3A Gd 0.40404(3) 1.14264(2) 1.156548(16)
Gd4B Gd 0.54909(3) 0.35712(2) 0.821010(16)
Gd4C Gd 0.45091(3) 0.85712(2) 0.678990(16)
Gd4_2 Gd -0.54909(3) 0.64288(2) 0.178990(16)
O6C O -0.4772(4) 0.6728(3) 0.3886(2)
O7A O -0.4811(4) 0.5258(3) 0.3170(2)
O8_2 O -0.4405(4) 0.9208(3) 0.2243(2)
O9_2 O -0.3699(4) 0.7644(3) 0.1844(2)
O12B O 0.5414(4) 0.5394(3) 1.1918(2)
O13C O 0.3000(4) 0.6801(3) 1.1324(2)
O17C O -0.5474(4) 0.6648(3) 0.2619(2)
O17C_2 O 0.4526(4) 0.6648(3) 1.2619(2)
H1C H -0.5853 0.6367 0.2622
H1C_2 H 0.4147 0.6367 1.2622
O18C O -0.4252(4) 0.7777(3) 0.3210(2)
H2C H -0.3999 0.8060 0.3504
O19_2 O 0.5957(4) 0.6648(3) 1.2608(2)
H3_2 H 0.6339 0.6372 1.2605
O20C O -0.5318(3) 0.7775(3) 0.2012(2)
O20C_2 O 0.4682(3) 0.7775(3) 1.2012(2)
H4C H -0.5575 0.8058 0.1718
H4C_2 H 0.4425 0.8058 1.1718
O25 O 0.3301(8) 0.6868(6) 0.5804(4)
H53 H 0.2892 0.7198 0.5693
H54 H 0.3260 0.6494 0.5981
O26 O 0.7637(5) 0.9964(4) 0.4525(3)
H55 H 0.7517 0.9633 0.4271
H56 H 0.8183 1.0080 0.4713
O27 O 0.6998(5) 0.8401(4) 0.4404(3)
H57 H 0.7083 0.8752 0.4637
H58 H 0.7387 0.8049 0.4556
O28 O 0.8218(4) 0.9960(4) 0.9768(3)
H59 H 0.8661 0.9757 0.9791
H60 H 0.8378 1.0149 1.0087
loop_
_geom_bond_atom_site_label_1
_geom_bond_atom_site_label_2
_geom_bond_site_symmetry_1
_geom_bond_site_symmetry_2
Gd1 O1 1_555 1_555
Gd2 O4 1_555 1_555
Gd3 O3 1_555 1_555
Gd4 O10 1_555 1_555
O1 C1 1_555 1_555
O2 Gd1 1_555 1_555
O3 C20 1_555 1_555
O4 C20 1_555 1_555
O5 Gd1 1_555 1_555
O6 C21 1_555 1_555
O7 C40 1_555 1_555
O8 C40 1_555 1_555
O9 C41 1_555 1_555
O10 C41 1_555 1_555
O11 Gd1 1_555 1_555
O12 C60 1_555 1_555
O13 C61 1_555 1_555
O14 Gd1 1_555 1_555
O15 Gd2 1_555 1_555
O16 Gd2 1_555 1_555
O17 Gd1 1_555 1_555
H1 O17 1_555 1_555
O18 Gd1 1_555 1_555
H2 O18 1_555 1_555
O19 Gd2 1_555 1_555
H3 O19 1_555 1_555
O20 Gd1 1_555 1_555
H4 O20 1_555 1_555
O21 Gd3 1_555 1_555
H5 O21 1_555 1_555
H6 O21 1_555 1_555
O22 Gd3 1_555 1_555
H7 O22 1_555 1_555
H8 O22 1_555 1_555
O23 Gd4 1_555 1_555
H9 O23 1_555 1_555
H10 O23 1_555 1_555
O24 Gd4 1_555 1_555
H11 O24 1_555 1_555
H12 O24 1_555 1_555
N1 C8 1_555 1_555
N2 C11 1_555 1_555
N3 C28 1_555 1_555
N4 C31 1_555 1_555
N5 C48 1_555 1_555
N6 C51 1_555 1_555
N7 C68 1_555 1_555
N8 C71 1_555 1_555
C1 O2 1_555 1_555
C2 C1 1_555 1_555
C3 C2 1_555 1_555
C4 C3 1_555 1_555
H13 C4 1_555 1_555
C5 C4 1_555 1_555
H14 C5 1_555 1_555
C6 C5 1_555 1_555
H15 C6 1_555 1_555
C7 C6 1_555 1_555
H16 C7 1_555 1_555
C8 C3 1_555 1_555
C9 N1 1_555 1_555
C10 C2 1_555 1_555
H17 C10 1_555 1_555
C11 C9 1_555 1_555
C12 C11 1_555 1_555
H18 C12 1_555 1_555
C13 C12 1_555 1_555
C14 C13 1_555 1_555
C15 C14 1_555 1_555
H19 C15 1_555 1_555
C16 C15 1_555 1_555
H20 C16 1_555 1_555
C17 C16 1_555 1_555
H21 C17 1_555 1_555
C18 C17 1_555 1_555
H22 C18 1_555 1_555
C19 N2 1_555 1_555
C20 C13 1_555 1_555
C21 O5 1_555 1_555
C22 C21 1_555 1_555
C23 C22 1_555 1_555
C24 C23 1_555 1_555
H23 C24 1_555 1_555
C25 C24 1_555 1_555
H24 C25 1_555 1_555
C26 C25 1_555 1_555
H25 C26 1_555 1_555
C27 C26 1_555 1_555
H26 C27 1_555 1_555
C28 C23 1_555 1_555
C29 N3 1_555 1_555
C30 C22 1_555 1_555
H27 C30 1_555 1_555
C31 C29 1_555 1_555
C32 C31 1_555 1_555
H28 C32 1_555 1_555
C33 C32 1_555 1_555
C34 C33 1_555 1_555
C35 C34 1_555 1_555
H29 C35 1_555 1_555
C36 C35 1_555 1_555
H30 C36 1_555 1_555
C37 C36 1_555 1_555
H31 C37 1_555 1_555
C38 C37 1_555 1_555
H32 C38 1_555 1_555
C39 N4 1_555 1_555
C40 C33 1_555 1_555
C41 C42 1_555 1_555
C42 C43 1_555 1_555
C43 C44 1_555 1_555
C44 H33 1_555 1_555
C45 C44 1_555 1_555
H34 C45 1_555 1_555
C46 C45 1_555 1_555
H35 C46 1_555 1_555
C47 C46 1_555 1_555
H36 C47 1_555 1_555
C48 C43 1_555 1_555
C49 N5 1_555 1_555
C50 C42 1_555 1_555
H37 C50 1_555 1_555
C51 C49 1_555 1_555
C52 C51 1_555 1_555
H38 C52 1_555 1_555
C53 C52 1_555 1_555
C54 C53 1_555 1_555
C55 C54 1_555 1_555
H39 C55 1_555 1_555
C56 C55 1_555 1_555
H40 C56 1_555 1_555
C57 C56 1_555 1_555
H41 C57 1_555 1_555
C58 C57 1_555 1_555
H42 C58 1_555 1_555
C59 N6 1_555 1_555
C60 O11 1_555 1_555
C61 O14 1_555 1_555
C62 C61 1_555 1_555
C63 C62 1_555 1_555
C64 C63 1_555 1_555
H43 C64 1_555 1_555
C65 C64 1_555 1_555
H44 C65 1_555 1_555
C66 C65 1_555 1_555
H45 C66 1_555 1_555
C67 C66 1_555 1_555
H46 C67 1_555 1_555
C68 C63 1_555 1_555
C69 N7 1_555 1_555
C70 C62 1_555 1_555
H47 C70 1_555 1_555
C71 C69 1_555 1_555
C72 C71 1_555 1_555
H48 C72 1_555 1_555
C73 C72 1_555 1_555
C74 C73 1_555 1_555
C75 C74 1_555 1_555
H49 C75 1_555 1_555
C76 C75 1_555 1_555
H50 C76 1_555 1_555
C77 C76 1_555 1_555
H51 C77 1_555 1_555
C78 C77 1_555 1_555
H52 C78 1_555 1_555
C79 N8 1_555 1_555
C80 O15 1_555 1_555
O25 H53 1_555 1_555
H54 O25 1_555 1_555
O26 H55 1_555 1_555
H56 O26 1_555 1_555
O27 H57 1_555 1_555
H58 O27 1_555 1_555
O28 H59 1_555 1_555
H60 O28 1_555 1_555
Gd2_2 O8 1_555 1_555
Gd2C O18 1_555 1_555
Gd3C O6 1_555 1_555
Gd3A O7 1_555 1_555
Gd4B O12 1_555 1_555
Gd4C O13 1_555 1_555
Gd4_2 O19 1_555 1_555
O6C Gd3 1_555 1_555
O7A Gd3 1_555 1_555
O8_2 Gd2 1_555 1_555
O9_2 Gd2 1_555 1_555
O12B Gd4 1_555 1_555
O13C Gd4 1_555 1_555
O17C Gd3 1_555 1_555
O17C_2 Gd4 1_555 1_555
H1C O17C 1_555 1_555
H1C_2 O17C_2 1_555 1_555
O18C Gd2 1_555 1_555
H2C O18C 1_555 1_555
O19_2 Gd4 1_555 1_555
H3_2 O19_2 1_555 1_555
O20C Gd2 1_555 1_555
O20C_2 Gd4 1_555 1_555
H4C O20C 1_555 1_555
H4C_2 O20C_2 1_555 1_555
Gd3 O19 1_555 1_555
Gd3 O18C 1_555 1_555
O9 Gd2_2 1_555 1_555
O16 C80 1_555 1_555
O17 Gd3C 1_555 1_555
O17 Gd4C 1_555 1_555
O18 Gd3C 1_555 1_555
O20 Gd2C 1_555 1_555
O20 Gd4C 1_555 1_555
C7 C8 1_555 1_555
C9 C10 1_555 1_555
C14 C19 1_555 1_555
C18 C19 1_555 1_555
C27 C28 1_555 1_555
C29 C30 1_555 1_555
C34 C39 1_555 1_555
C38 C39 1_555 1_555
C47 C48 1_555 1_555
C49 C50 1_555 1_555
C53 C60 1_555 1_555
C54 C59 1_555 1_555
C58 C59 1_555 1_555
C67 C68 1_555 1_555
C69 C70 1_555 1_555
C73 C80 1_555 1_555
C74 C79 1_555 1_555
C78 C79 1_555 1_555
Gd2_2 O19_2 1_555 1_555
Gd2_2 O20C_2 1_555 1_555
Gd4_2 O17C 1_555 1_555
Gd4_2 O20C 1_555 1_555

#END
