
#######################################################################
#
#                 Cambridge Crystallographic Data Centre
#                                CCDC 
#
#######################################################################
#
# If this CIF has been generated from an entry in the Cambridge 
# Structural Database, then it will include bibliographic, chemical, 
# crystal, experimental, refinement or atomic coordinate data resulting 
# from the CCDC's data processing and validation procedures.
#
#######################################################################

data_OHEBIN
_symmetry_cell_setting           triclinic
_symmetry_space_group_name_H-M   'P -1'
_symmetry_Int_Tables_number      2
_space_group_name_Hall           '-P 1'
loop_
_symmetry_equiv_pos_site_id
_symmetry_equiv_pos_as_xyz
1 x,y,z
2 -x,-y,-z
_cell_length_a                   7.7605(11)
_cell_length_b                   13.037(2)
_cell_length_c                   14.738(2)
_cell_angle_alpha                82.568(8)
_cell_angle_beta                 78.735(10)
_cell_angle_gamma                83.762(10)
_cell_volume                     1444.74
loop_
_atom_site_label
_atom_site_type_symbol
_atom_site_fract_x
_atom_site_fract_y
_atom_site_fract_z
Nd1 Nd 0.09065(2) 0.485737(14) 0.127881(12)
Na1 Na 0.4058(2) 0.38467(12) -0.09827(10)
N1 N 0.4980(4) -0.0298(2) 0.1221(2)
N2 N 0.1728(4) 0.4288(2) 0.5528(2)
N3 N -0.0239(4) 1.0314(2) 0.1163(2)
O1 O 0.2732(4) 0.34182(19) 0.04984(17)
O2 O 0.0926(4) 0.29483(19) 0.17968(18)
O3 O 0.3218(4) 0.4486(2) 0.20938(18)
O4 O 0.5678(4) 0.4971(2) 0.23681(18)
O5 O 0.1006(4) 0.64972(19) 0.20631(18)
O6 O -0.1016(4) 0.65229(19) 0.11909(18)
C1 C 0.2222(5) 0.2745(3) 0.1177(2)
C2 C 0.3247(5) 0.1703(3) 0.1221(3)
C3 C 0.3812(5) 0.1252(3) 0.0411(3)
H1 H 0.3613 0.1615 -0.0166
C4 C 0.4690(5) 0.0246(3) 0.0439(2)
C5 C 0.4505(5) 0.0155(3) 0.2031(3)
C6 C 0.3640(5) 0.1173(3) 0.2067(3)
C7 C 0.3302(5) 0.1605(3) 0.2929(3)
H2 H 0.2746 0.2288 0.2965
C8 C 0.3770(6) 0.1046(3) 0.3705(3)
H3 H 0.3554 0.1347 0.4275
C9 C 0.4572(6) 0.0026(3) 0.3668(3)
H4 H 0.4871 -0.0361 0.4216
C10 C 0.4923(6) -0.0409(3) 0.2852(3)
H5 H 0.5454 -0.1100 0.2837
C11 C 0.4199(5) 0.4653(3) 0.2633(2)
C12 C 0.3437(5) 0.4466(3) 0.3655(2)
C13 C 0.1766(5) 0.4928(3) 0.3922(2)
H6 H 0.1178 0.5340 0.3475
C14 C 0.0930(5) 0.4786(3) 0.4864(2)
C15 C 0.3413(5) 0.3845(3) 0.5281(3)
C16 C 0.4303(5) 0.3881(3) 0.4338(2)
C17 C 0.5999(5) 0.3341(3) 0.4141(3)
H7 H 0.6589 0.3323 0.3514
C18 C 0.6785(5) 0.2847(3) 0.4846(3)
H8 H 0.7922 0.2489 0.4706
C19 C 0.5932(6) 0.2861(3) 0.5781(3)
H9 H 0.6519 0.2538 0.6266
C20 C 0.4265(5) 0.3336(3) 0.5997(3)
H10 H 0.3682 0.3322 0.6628
C21 C -0.0107(5) 0.6980(3) 0.1614(2)
C22 C -0.0249(5) 0.8145(3) 0.1506(3)
C23 C -0.0153(5) 0.8634(3) 0.0631(3)
H11 H -0.0117 0.8248 0.0123
C24 C -0.0109(5) 0.9731(3) 0.0480(2)
C25 C -0.0390(5) 0.9833(3) 0.2053(3)
C26 C -0.0357(5) 0.8735(3) 0.2269(3)
C27 C -0.0467(5) 0.8297(3) 0.3208(3)
H12 H -0.0438 0.7566 0.3362
C28 C -0.0615(6) 0.8933(3) 0.3893(3)
H13 H -0.0696 0.8637 0.4522
C29 C -0.0650(6) 1.0025(3) 0.3681(3)
H14 H -0.0747 1.0454 0.4166
C30 C -0.0545(6) 1.0463(3) 0.2786(3)
H15 H -0.0576 1.1196 0.2649
C31 C 0.2538(5) 0.6137(3) -0.0407(2)
C32 C 0.2984(5) 0.7028(3) -0.1129(3)
H16 H 0.2968 0.7656 -0.0826
H17 H 0.2116 0.7137 -0.1542
H18 H 0.4162 0.6876 -0.1495
O7 O 0.1438(3) 0.55118(19) -0.05153(17)
O8 O 0.3201(4) 0.5991(2) 0.03164(18)
O9 O -0.1187(4) 0.4741(2) 0.27538(19)
H19 H -0.123(7) 0.503(4) 0.313(4)
H20 H -0.232(7) 0.474(4) 0.272(3)
O10 O 0.5662(5) 0.2568(2) -0.1802(2)
H21 H 0.675(8) 0.260(4) -0.194(4)
H22 H 0.567(8) 0.211(5) -0.170(4)
Nd1A Nd 0.90935(2) -0.485737(14) -0.127881(12)
Nd1A_2 Nd -0.09065(2) 0.514263(14) -0.127881(12)
Nd1A_3 Nd -0.09065(2) 0.514263(14) 0.872119(12)
Nd1A_4 Nd -0.09065(2) 1.514263(14) -0.127881(12)
Na1A Na 0.5942(2) -0.38467(12) 0.09827(10)
Na1A_2 Na 0.5942(2) 0.61533(12) 0.09827(10)
Na1A_3 Na -0.4058(2) 0.61533(12) 0.09827(10)
Na1_2 Na -0.5942(2) 0.38467(12) 0.90173(10)
Na1_3 Na 0.4058(2) 1.38467(12) -0.09827(10)
Na1_4 Na -0.5942(2) 0.38467(12) -0.09827(10)
N1A N 0.5020(4) 0.0298(2) -0.1221(2)
N2A N -0.1728(4) 0.5712(2) 0.4472(2)
N3A N 0.0239(4) 0.9686(2) -0.1163(2)
O1A O 0.7268(4) -0.34182(19) -0.04984(17)
O2A O 0.9074(4) -0.29483(19) -0.17968(18)
O3A O -0.3218(4) 0.5514(2) 0.79062(18)
O3A_2 O 0.6782(4) -0.4486(2) -0.20938(18)
O4A O -0.5678(4) 0.5029(2) 0.76319(18)
O4A_2 O 0.4322(4) 0.5029(2) -0.23681(18)
O4_2 O 0.5678(4) -0.5029(2) 0.23681(18)
O5A O -0.1006(4) 1.35028(19) -0.20631(18)
O5A_2 O 0.8994(4) -0.64972(19) -0.20631(18)
O6A O 0.1016(4) 1.34771(19) -0.11909(18)
O6A_2 O 0.1016(4) 0.34771(19) -0.11909(18)
O6A_3 O 1.1016(4) -0.65229(19) -0.11909(18)
O6_2 O 0.8984(4) -0.34771(19) 0.11909(18)
C1A C 0.7778(5) -0.2745(3) -0.1177(2)
C2A C 0.6753(5) -0.1703(3) -0.1221(3)
C3A C 0.6188(5) -0.1252(3) -0.0411(3)
H1A H 0.6387 -0.1615 0.0166
C4A C 0.5310(5) -0.0246(3) -0.0439(2)
C5A C 0.5495(5) -0.0155(3) -0.2031(3)
C6A C 0.6360(5) -0.1173(3) -0.2067(3)
C7A C 0.6698(5) -0.1605(3) -0.2929(3)
H2A H 0.7254 -0.2288 -0.2965
C8A C 0.6230(6) -0.1046(3) -0.3705(3)
H3A H 0.6446 -0.1347 -0.4275
C9A C 0.5428(6) -0.0026(3) -0.3668(3)
H4A H 0.5129 0.0361 -0.4216
C10A C 0.5077(6) 0.0409(3) -0.2852(3)
H5A H 0.4546 0.1100 -0.2837
C11A C -0.4199(5) 0.5347(3) 0.7367(2)
C12A C -0.3437(5) 0.5534(3) 0.6345(2)
C13A C -0.1766(5) 0.5072(3) 0.6078(2)
H6A H -0.1178 0.4660 0.6525
C14A C -0.0930(5) 0.5214(3) 0.5136(2)
C15A C -0.3413(5) 0.6155(3) 0.4719(3)
C16A C -0.4303(5) 0.6119(3) 0.5662(2)
C17A C -0.5999(5) 0.6659(3) 0.5859(3)
H7A H -0.6589 0.6677 0.6486
C18A C -0.6785(5) 0.7153(3) 0.5154(3)
H8A H -0.7922 0.7511 0.5294
C19A C -0.5932(6) 0.7139(3) 0.4219(3)
H9A H -0.6519 0.7462 0.3734
C20A C -0.4265(5) 0.6664(3) 0.4003(3)
H10A H -0.3682 0.6678 0.3372
C21A C 0.0107(5) 1.3020(3) -0.1614(2)
C22A C 0.0249(5) 1.1855(3) -0.1506(3)
C23A C 0.0153(5) 1.1366(3) -0.0631(3)
H11A H 0.0117 1.1752 -0.0123
C24A C 0.0109(5) 1.0269(3) -0.0480(2)
C25A C 0.0390(5) 1.0167(3) -0.2053(3)
C26A C 0.0357(5) 1.1265(3) -0.2269(3)
C27A C 0.0467(5) 1.1703(3) -0.3208(3)
H12A H 0.0438 1.2434 -0.3362
C28A C 0.0615(6) 1.1067(3) -0.3893(3)
H13A H 0.0696 1.1363 -0.4522
C29A C 0.0650(6) 0.9975(3) -0.3681(3)
H14A H 0.0747 0.9546 -0.4166
C30A C 0.0545(6) 0.9537(3) -0.2786(3)
H15A H 0.0576 0.8804 -0.2649
C31A C -0.2538(5) 0.3863(3) 0.0407(2)
C32A C -0.2984(5) 0.2972(3) 0.1129(3)
H16A H -0.2968 0.2344 0.0826
H17A H -0.2116 0.2863 0.1542
H18A H -0.4162 0.3124 0.1495
O7A O -0.1438(3) 0.44882(19) 0.05153(17)
O7A_2 O 0.8562(3) -0.55118(19) 0.05153(17)
O7_2 O 1.1438(3) -0.44882(19) -0.05153(17)
O8A O -0.3201(4) 0.4009(2) -0.03164(18)
O8A_2 O 0.6799(4) 0.4009(2) -0.03164(18)
O8A_3 O 0.6799(4) -0.5991(2) -0.03164(18)
O8_2 O 0.3201(4) -0.4009(2) 0.03164(18)
O9A O 1.1187(4) -0.4741(2) -0.27538(19)
H19A H 1.123(7) -0.503(4) -0.313(4)
H20A H 1.232(7) -0.474(4) -0.272(3)
O10A O 0.4338(5) -0.2568(2) 0.1802(2)
H21A H 0.325(8) -0.260(4) 0.194(4)
H22A H 0.433(8) -0.211(5) 0.170(4)
loop_
_geom_bond_atom_site_label_1
_geom_bond_atom_site_label_2
_geom_bond_site_symmetry_1
_geom_bond_site_symmetry_2
Nd1 O1 1_555 1_555
Na1 O1 1_555 1_555
N1 C4 1_555 1_555
N2 C14 1_555 1_555
N3 C24 1_555 1_555
O1 C1 1_555 1_555
O2 Nd1 1_555 1_555
O3 Nd1 1_555 1_555
O4 C11 1_555 1_555
O5 Nd1 1_555 1_555
O6 Nd1 1_555 1_555
C1 O2 1_555 1_555
C2 C1 1_555 1_555
C3 C2 1_555 1_555
H1 C3 1_555 1_555
C4 C3 1_555 1_555
C5 N1 1_555 1_555
C6 C2 1_555 1_555
C7 C6 1_555 1_555
H2 C7 1_555 1_555
C8 C7 1_555 1_555
H3 C8 1_555 1_555
C9 C8 1_555 1_555
H4 C9 1_555 1_555
C10 C5 1_555 1_555
H5 C10 1_555 1_555
C11 O3 1_555 1_555
C12 C11 1_555 1_555
C13 C12 1_555 1_555
H6 C13 1_555 1_555
C14 C13 1_555 1_555
C15 N2 1_555 1_555
C16 C12 1_555 1_555
C17 C16 1_555 1_555
H7 C17 1_555 1_555
C18 C17 1_555 1_555
H8 C18 1_555 1_555
C19 C18 1_555 1_555
H9 C19 1_555 1_555
C20 C15 1_555 1_555
H10 C20 1_555 1_555
C21 O5 1_555 1_555
C22 C21 1_555 1_555
C23 C22 1_555 1_555
H11 C23 1_555 1_555
C24 C23 1_555 1_555
C25 N3 1_555 1_555
C26 C22 1_555 1_555
C27 C26 1_555 1_555
H12 C27 1_555 1_555
C28 C27 1_555 1_555
H13 C28 1_555 1_555
C29 C28 1_555 1_555
H14 C29 1_555 1_555
C30 C25 1_555 1_555
H15 C30 1_555 1_555
C31 C32 1_555 1_555
C32 H16 1_555 1_555
H17 C32 1_555 1_555
H18 C32 1_555 1_555
O7 Nd1 1_555 1_555
O8 Nd1 1_555 1_555
O9 Nd1 1_555 1_555
H19 O9 1_555 1_555
H20 O9 1_555 1_555
O10 Na1 1_555 1_555
H21 O10 1_555 1_555
H22 O10 1_555 1_555
Nd1A O1A 1_555 1_555
Nd1A_2 O7 1_555 1_555
Nd1A_3 O3A 1_555 1_555
Nd1A_4 O5A 1_555 1_555
Na1A O1A 1_555 1_555
Na1A_2 O4 1_555 1_555
Na1A_3 O6 1_555 1_555
Na1_2 O4A 1_555 1_555
Na1_3 O6A 1_555 1_555
Na1_4 O8A 1_555 1_555
N1A C4A 1_555 1_555
N2A C14A 1_555 1_555
N3A C24A 1_555 1_555
O1A C1A 1_555 1_555
O2A Nd1A 1_555 1_555
O3A C11A 1_555 1_555
O3A_2 Nd1A 1_555 1_555
O4A C11A 1_555 1_555
O4A_2 Na1 1_555 1_555
O4_2 Na1A 1_555 1_555
O5A C21A 1_555 1_555
O5A_2 Nd1A 1_555 1_555
O6A Nd1A_4 1_555 1_555
O6A_2 Na1 1_555 1_555
O6A_3 Nd1A 1_555 1_555
O6_2 Na1A 1_555 1_555
C1A O2A 1_555 1_555
C2A C1A 1_555 1_555
C3A C2A 1_555 1_555
H1A C3A 1_555 1_555
C4A C4 1_555 1_555
C5A N1A 1_555 1_555
C6A C2A 1_555 1_555
C7A C6A 1_555 1_555
H2A C7A 1_555 1_555
C8A C7A 1_555 1_555
H3A C8A 1_555 1_555
C9A C8A 1_555 1_555
H4A C9A 1_555 1_555
C10A C5A 1_555 1_555
H5A C10A 1_555 1_555
C11A C12A 1_555 1_555
C12A C13A 1_555 1_555
C13A H6A 1_555 1_555
C14A C14 1_555 1_555
C15A N2A 1_555 1_555
C16A C12A 1_555 1_555
C17A C16A 1_555 1_555
H7A C17A 1_555 1_555
C18A C17A 1_555 1_555
H8A C18A 1_555 1_555
C19A C18A 1_555 1_555
H9A C19A 1_555 1_555
C20A C15A 1_555 1_555
H10A C20A 1_555 1_555
C21A O6A 1_555 1_555
C22A C21A 1_555 1_555
C23A C22A 1_555 1_555
H11A C23A 1_555 1_555
C24A C24 1_555 1_555
C25A N3A 1_555 1_555
C26A C22A 1_555 1_555
C27A C26A 1_555 1_555
H12A C27A 1_555 1_555
C28A C27A 1_555 1_555
H13A C28A 1_555 1_555
C29A C28A 1_555 1_555
H14A C29A 1_555 1_555
C30A C25A 1_555 1_555
H15A C30A 1_555 1_555
C31A C32A 1_555 1_555
C32A H16A 1_555 1_555
H17A C32A 1_555 1_555
H18A C32A 1_555 1_555
O7A Nd1 1_555 1_555
O7A_2 Nd1A 1_555 1_555
O7_2 Nd1A 1_555 1_555
O8A Nd1A_2 1_555 1_555
O8A_2 Na1 1_555 1_555
O8A_3 Nd1A 1_555 1_555
O8_2 Na1A 1_555 1_555
O9A Nd1A 1_555 1_555
H19A O9A 1_555 1_555
H20A O9A 1_555 1_555
O10A Na1A 1_555 1_555
H21A O10A 1_555 1_555
H22A O10A 1_555 1_555
Na1 O7 1_555 1_555
O6 C21 1_555 1_555
C5 C6 1_555 1_555
C9 C10 1_555 1_555
C15 C16 1_555 1_555
C19 C20 1_555 1_555
C25 C26 1_555 1_555
C29 C30 1_555 1_555
C31 O7 1_555 1_555
C31 O8 1_555 1_555
O8 Na1A_2 1_555 1_555
Nd1A_2 O6A_2 1_555 1_555
Nd1A_2 O7A 1_555 1_555
Na1A O7A_2 1_555 1_555
Na1A_3 O7A 1_555 1_555
C3A C4A 1_555 1_555
C5A C6A 1_555 1_555
C9A C10A 1_555 1_555
C13A C14A 1_555 1_555
C15A C16A 1_555 1_555
C19A C20A 1_555 1_555
C23A C24A 1_555 1_555
C25A C26A 1_555 1_555
C29A C30A 1_555 1_555
C31A O7A 1_555 1_555
C31A O8A 1_555 1_555

#END
