
#######################################################################
#
#                 Cambridge Crystallographic Data Centre
#                                CCDC 
#
#######################################################################
#
# If this CIF has been generated from an entry in the Cambridge 
# Structural Database, then it will include bibliographic, chemical, 
# crystal, experimental, refinement or atomic coordinate data resulting 
# from the CCDC's data processing and validation procedures.
#
#######################################################################

data_OHEBAF
_symmetry_cell_setting           monoclinic
_symmetry_space_group_name_H-M   'P 2/n'
_symmetry_Int_Tables_number      13
_space_group_name_Hall           '-P 2yac'
loop_
_symmetry_equiv_pos_site_id
_symmetry_equiv_pos_as_xyz
1 x,y,z
2 1/2-x,y,1/2-z
3 -x,-y,-z
4 1/2+x,-y,1/2+z
_cell_length_a                   18.145(4)
_cell_length_b                   8.6821(17)
_cell_length_c                   23.527(5)
_cell_angle_alpha                90
_cell_angle_beta                 95.47(3)
_cell_angle_gamma                90
_cell_volume                     3689.49
loop_
_atom_site_label
_atom_site_type_symbol
_atom_site_fract_x
_atom_site_fract_y
_atom_site_fract_z
Yb1 Yb 0.149390(9) 0.41166(2) -0.248800(7)
Yb2 Yb 0.240780(9) -0.28118(2) -0.329730(8)
O1 O -0.13111(17) 0.3587(4) -0.62297(14)
O2 O -0.07119(17) 0.5117(4) -0.67763(14)
O3 O 0.17002(17) 0.1823(4) -0.29134(14)
O4 O 0.1747(2) -0.0653(4) -0.31080(18)
O5 O 0.15839(19) 0.6413(5) -0.12262(16)
O6 O 0.07774(19) 0.5482(4) -0.19049(16)
O7 O -0.13302(17) 0.7523(4) 0.16934(14)
O8 O -0.03832(18) 0.7371(4) 0.23529(15)
O9 O 0.17948(15) 0.6756(3) -0.25079(12)
H1 H 0.1410 0.7315 -0.2510
O10 O 0.24347(15) 0.4539(4) -0.30886(14)
H2 H 0.2395 0.3974 -0.3385
O11 O 0.2245(2) -0.1732(6) -0.42223(17)
H3 H 0.2617 -0.1175 -0.4277
H4 H 0.1873 -0.1881 -0.4463
O12 O 0.3270(3) -0.0690(5) -0.3258(3)
H5 H 0.3371 -0.0420 -0.2912
H6 H 0.3446 -0.0277 -0.3544
N1 N 0.1086(2) 0.3906(4) -0.50244(16)
N2 N -0.0249(2) 0.1245(5) -0.45672(17)
N3 N -0.0778(2) 0.7053(6) -0.03189(19)
N4 N 0.0783(2) 0.8632(5) 0.05160(18)
C1 C 0.0468(2) 0.3107(5) -0.50239(19)
C2 C -0.0126(2) 0.3248(5) -0.5456(2)
H11 H -0.0555 0.2677 -0.5431
C3 C -0.0076(2) 0.4207(5) -0.59075(19)
C4 C 0.0599(2) 0.5083(5) -0.59365(19)
C5 C 0.1142(2) 0.4906(5) -0.5469(2)
C6 C 0.1798(3) 0.5823(6) -0.5442(2)
H12 H 0.2148 0.5753 -0.5127
C7 C 0.1909(3) 0.6800(7) -0.5877(3)
H13 H 0.2339 0.7390 -0.5857
C8 C 0.1392(3) 0.6938(6) -0.6354(2)
H14 H 0.1486 0.7597 -0.6650
C9 C 0.0741(3) 0.6098(6) -0.6388(2)
H15 H 0.0397 0.6198 -0.6705
C10 C -0.0746(2) 0.4335(5) -0.63410(19)
C11 C 0.0383(2) 0.2009(5) -0.45464(19)
C12 C 0.0946(2) 0.1866(5) -0.4092(2)
H16 H 0.1375 0.2451 -0.4091
C13 C 0.0860(2) 0.0866(5) -0.36549(19)
C14 C 0.0185(2) 0.0020(5) -0.3660(2)
C15 C -0.0359(2) 0.0264(5) -0.4126(2)
C16 C -0.1039(3) -0.0540(6) -0.4152(2)
H17 H -0.1394 -0.0388 -0.4459
C17 C -0.1175(3) -0.1535(6) -0.3728(3)
H18 H -0.1621 -0.2068 -0.3748
C18 C -0.0642(3) -0.1763(7) -0.3260(2)
H19 H -0.0741 -0.2452 -0.2975
C19 C 0.0010(3) -0.0999(6) -0.3219(2)
H20 H 0.0347 -0.1141 -0.2899
C20 C 0.1476(3) 0.0667(5) -0.31905(19)
C21 C -0.0074(3) 0.7316(6) -0.0168(2)
C22 C 0.0484(3) 0.7023(6) -0.0539(2)
H21 H 0.0977 0.7227 -0.0418
C23 C 0.0303(3) 0.6456(6) -0.1064(2)
C24 C -0.0464(3) 0.6168(6) -0.1255(2)
C25 C -0.0980(3) 0.6476(7) -0.0847(2)
C26 C -0.1741(3) 0.6204(9) -0.0988(3)
H22 H -0.2077 0.6400 -0.0723
C27 C -0.1981(3) 0.5651(9) -0.1517(3)
H23 H -0.2484 0.5480 -0.1612
C28 C -0.1480(3) 0.5342(8) -0.1915(3)
H24 H -0.1652 0.4953 -0.2271
C29 C -0.0741(3) 0.5600(7) -0.1791(3)
H25 H -0.0417 0.5397 -0.2066
C30 C 0.0930(3) 0.6081(5) -0.1432(2)
C31 C 0.0132(3) 0.7905(6) 0.0417(2)
C32 C -0.0344(3) 0.7657(6) 0.0852(2)
H26 H -0.0802 0.7195 0.0762
C33 C -0.0138(2) 0.8088(5) 0.1402(2)
C34 C 0.0563(3) 0.8816(6) 0.1525(2)
C35 C 0.0991(3) 0.9083(6) 0.1056(2)
C36 C 0.1683(3) 0.9835(7) 0.1154(3)
H27 H 0.1965 1.0018 0.0852
C37 C 0.1935(3) 1.0290(10) 0.1691(3)
H28 H 0.2388 1.0793 0.1751
C38 C 0.1517(4) 1.0008(10) 0.2158(3)
H29 H 0.1703 1.0304 0.2524
C39 C 0.0850(3) 0.9311(8) 0.2074(3)
H30 H 0.0575 0.9155 0.2383
C40 C -0.0637(3) 0.7672(5) 0.1850(2)
Yb1B Yb -0.149390(9) 0.58834(2) -0.751200(7)
Yb1B_2 Yb -0.149390(9) 0.58834(2) 0.248800(7)
Yb1A Yb 0.350610(9) 0.41166(2) -0.251200(7)
Yb2A Yb 0.259220(9) 0.71882(2) -0.170270(8)
Yb2B Yb -0.240780(9) 0.28118(2) -0.670270(8)
Yb2_2 Yb 0.240780(9) 0.71882(2) -0.329730(8)
O1B O 0.13111(17) -0.3587(4) -0.37703(14)
O2B O 0.07119(17) 0.4883(4) -0.32237(14)
O5A O 0.34161(19) -0.3587(5) -0.37738(16)
O7B O 0.13302(17) 0.2477(4) -0.16934(14)
O8B O 0.03832(18) 0.2629(4) -0.23529(15)
O9_2 O 0.17948(15) -0.3244(3) -0.25079(12)
O9A O 0.32052(15) -0.3244(3) -0.24921(12)
H1_2 H 0.1410 -0.2685 -0.2510
H1A H 0.3590 -0.2685 -0.2490
O10A O 0.25653(15) 0.4539(4) -0.19114(14)
O10_2 O 0.24347(15) -0.5461(4) -0.30886(14)
H2A H 0.2605 0.3974 -0.1615
H2_2 H 0.2395 -0.6026 -0.3385
O13 O -0.2572(3) 0.6646(10) -0.5643(3)
H7 H -0.2952 0.6073 -0.5718
H8 H -0.2461 0.6635 -0.5284
O14 O 0.3237(4) 1.0096(9) -0.4642(3)
H9 H 0.3686 1.0247 -0.4704
H10 H 0.2966 1.0814 -0.4792
loop_
_geom_bond_atom_site_label_1
_geom_bond_atom_site_label_2
_geom_bond_site_symmetry_1
_geom_bond_site_symmetry_2
Yb1 O3 1_555 1_555
Yb2 O4 1_555 1_555
O1 C10 1_555 1_555
O2 C10 1_555 1_555
O3 C20 1_555 1_555
O4 C20 1_555 1_555
O5 C30 1_555 1_555
O6 Yb1 1_555 1_555
O7 C40 1_555 1_555
O8 C40 1_555 1_555
O9 Yb1 1_555 1_555
H1 O9 1_555 1_555
O10 Yb1 1_555 1_555
H2 O10 1_555 1_555
O11 Yb2 1_555 1_555
H3 O11 1_555 1_555
H4 O11 1_555 1_555
O12 Yb2 1_555 1_555
H5 O12 1_555 1_555
H6 O12 1_555 1_555
O13 H7 1_555 1_555
H8 O13 1_555 1_555
O14 H9 1_555 1_555
H10 O14 1_555 1_555
N1 C1 1_555 1_555
N2 C11 1_555 1_555
N3 C21 1_555 1_555
N4 C31 1_555 1_555
C1 C2 1_555 1_555
C2 H11 1_555 1_555
C3 C2 1_555 1_555
C4 C3 1_555 1_555
C5 N1 1_555 1_555
C6 C5 1_555 1_555
H12 C6 1_555 1_555
C7 C6 1_555 1_555
H13 C7 1_555 1_555
C8 C7 1_555 1_555
H14 C8 1_555 1_555
C9 C4 1_555 1_555
H15 C9 1_555 1_555
C10 C3 1_555 1_555
C11 C1 1_555 1_555
C12 C11 1_555 1_555
H16 C12 1_555 1_555
C13 C12 1_555 1_555
C14 C13 1_555 1_555
C15 N2 1_555 1_555
C16 C15 1_555 1_555
H17 C16 1_555 1_555
C17 C16 1_555 1_555
H18 C17 1_555 1_555
C18 C17 1_555 1_555
H19 C18 1_555 1_555
C19 C14 1_555 1_555
H20 C19 1_555 1_555
C20 C13 1_555 1_555
C21 C22 1_555 1_555
C22 H21 1_555 1_555
C23 C22 1_555 1_555
C24 C23 1_555 1_555
C25 N3 1_555 1_555
C26 C25 1_555 1_555
H22 C26 1_555 1_555
C27 C26 1_555 1_555
H23 C27 1_555 1_555
C28 C27 1_555 1_555
H24 C28 1_555 1_555
C29 C24 1_555 1_555
H25 C29 1_555 1_555
C30 O6 1_555 1_555
C31 C21 1_555 1_555
C32 C31 1_555 1_555
H26 C32 1_555 1_555
C33 C32 1_555 1_555
C34 C33 1_555 1_555
C35 N4 1_555 1_555
C36 C35 1_555 1_555
H27 C36 1_555 1_555
C37 C36 1_555 1_555
H28 C37 1_555 1_555
C38 C37 1_555 1_555
H29 C38 1_555 1_555
C39 C34 1_555 1_555
H30 C39 1_555 1_555
C40 C33 1_555 1_555
Yb1B O2 1_555 1_555
Yb1B_2 O7 1_555 1_555
Yb1A O10 1_555 1_555
Yb2A O5 1_555 1_555
Yb2B O1 1_555 1_555
Yb2_2 O9 1_555 1_555
O1B Yb2 1_555 1_555
O2B Yb1 1_555 1_555
O5A Yb2 1_555 1_555
O7B Yb1 1_555 1_555
O8B Yb1 1_555 1_555
O9_2 Yb2 1_555 1_555
O9A Yb2 1_555 1_555
H1_2 O9_2 1_555 1_555
H1A O9A 1_555 1_555
O10A Yb1 1_555 1_555
O10_2 Yb2 1_555 1_555
H2A O10A 1_555 1_555
H2_2 O10_2 1_555 1_555
O8 Yb1B_2 1_555 1_555
O9 Yb2A 1_555 1_555
O10 Yb2_2 1_555 1_555
C4 C5 1_555 1_555
C8 C9 1_555 1_555
C14 C15 1_555 1_555
C18 C19 1_555 1_555
C23 C30 1_555 1_555
C24 C25 1_555 1_555
C28 C29 1_555 1_555
C34 C35 1_555 1_555
C38 C39 1_555 1_555
Yb1A O10A 1_555 1_555
Yb2A O10A 1_555 1_555

#END
