
#######################################################################
#
#                 Cambridge Crystallographic Data Centre
#                                CCDC 
#
#######################################################################
#
# If this CIF has been generated from an entry in the Cambridge 
# Structural Database, then it will include bibliographic, chemical, 
# crystal, experimental, refinement or atomic coordinate data resulting 
# from the CCDC's data processing and validation procedures.
#
#######################################################################

data_OHEBOT
_symmetry_cell_setting           triclinic
_symmetry_space_group_name_H-M   'P -1'
_symmetry_Int_Tables_number      2
_space_group_name_Hall           '-P 1'
loop_
_symmetry_equiv_pos_site_id
_symmetry_equiv_pos_as_xyz
1 x,y,z
2 -x,-y,-z
_cell_length_a                   7.77900(10)
_cell_length_b                   12.9907(2)
_cell_length_c                   14.6997(2)
_cell_angle_alpha                83.5510(10)
_cell_angle_beta                 79.4210(10)
_cell_angle_gamma                82.9530(10)
_cell_volume                     1443.04
loop_
_atom_site_label
_atom_site_type_symbol
_atom_site_fract_x
_atom_site_fract_y
_atom_site_fract_z
Y1 Y 0.09319(2) 0.489265(14) 0.127366(13)
Na1 Na 0.41356(15) 0.38780(8) -0.09617(6)
N1 N 0.4967(3) -0.02773(14) 0.12212(13)
N2 N 0.1750(2) 0.42675(15) 0.55138(12)
N3 N -0.0235(3) 1.03252(14) 0.11689(13)
O1 O 0.27954(19) 0.35003(11) 0.05118(9)
O2 O 0.0989(2) 0.30459(11) 0.17782(11)
O3 O 0.3166(2) 0.45872(13) 0.20733(10)
O4 O 0.5636(2) 0.50068(14) 0.23725(10)
O5 O 0.1008(2) 0.65012(11) 0.20547(10)
O6 O -0.0914(2) 0.65249(11) 0.11248(10)
C1 C 0.2287(3) 0.28313(15) 0.11643(14)
C2 C 0.3284(3) 0.17625(15) 0.12065(14)
C3 C 0.3840(3) 0.12894(15) 0.04033(14)
H1 H 0.3655 0.1641 -0.0163
C4 C 0.4698(3) 0.02620(15) 0.04368(14)
C5 C 0.4503(3) 0.02025(17) 0.20281(15)
C6 C 0.3663(3) 0.12326(16) 0.20600(14)
C7 C 0.3326(3) 0.16795(18) 0.29223(16)
H2 H 0.2799 0.2360 0.2954
C8 C 0.3766(4) 0.1124(2) 0.36990(17)
H3 H 0.3557 0.1431 0.4256
C9 C 0.4537(4) 0.0084(2) 0.36693(17)
H4 H 0.4800 -0.0296 0.4210
C10 C 0.4896(4) -0.03653(19) 0.28553(17)
H5 H 0.5404 -0.1051 0.2842
C11 C 0.4164(3) 0.47048(15) 0.26234(13)
C12 C 0.3416(3) 0.44998(16) 0.36433(13)
C13 C 0.1757(3) 0.49417(17) 0.39243(14)
H6 H 0.1159 0.5351 0.3497
C14 C 0.0930(3) 0.47851(16) 0.48621(13)
C15 C 0.3441(3) 0.38335(16) 0.52507(14)
C16 C 0.4336(3) 0.39017(16) 0.43097(13)
C17 C 0.6042(3) 0.33837(17) 0.41054(15)
H7 H 0.6620 0.3395 0.3492
C18 C 0.6857(3) 0.28659(19) 0.47944(17)
H8 H 0.7988 0.2534 0.4648
C19 C 0.6000(3) 0.2831(2) 0.57256(17)
H9 H 0.6578 0.2488 0.6192
C20 C 0.4329(3) 0.32936(19) 0.59498(15)
H10 H 0.3767 0.3255 0.6566
C21 C -0.0077(3) 0.69859(15) 0.15850(13)
C22 C -0.0251(3) 0.81535(15) 0.14933(14)
C23 C -0.0158(3) 0.86462(16) 0.06200(14)
H11 H -0.0130 0.8266 0.0117
C24 C -0.0105(3) 0.97367(16) 0.04797(14)
C25 C -0.0384(3) 0.98535(17) 0.20541(15)
C26 C -0.0354(3) 0.87535(16) 0.22602(14)
C27 C -0.0475(3) 0.83323(18) 0.31986(15)
H12 H -0.0454 0.7616 0.3346
C28 C -0.0621(4) 0.8975(2) 0.38858(17)
H13 H -0.0703 0.8693 0.4500
C29 C -0.0650(4) 1.0062(2) 0.36801(17)
H14 H -0.0747 1.0488 0.4159
C30 C -0.0536(4) 1.04913(19) 0.27904(17)
H15 H -0.0559 1.1210 0.2663
C31 C 0.2387(3) 0.61094(15) -0.04336(13)
C32 C 0.2877(3) 0.69998(18) -0.11311(16)
H16 H 0.2911 0.7603 -0.0815
H17 H 0.2022 0.7149 -0.1535
H18 H 0.4014 0.6820 -0.1491
O7 O 0.13224(19) 0.54994(11) -0.05658(10)
O8 O 0.3020(2) 0.59517(13) 0.03011(10)
O9 O -0.11356(19) 0.47967(12) 0.26590(10)
H19 H -0.1131 0.5076 0.3154
H20 H -0.2207 0.4832 0.2598
O10 O 0.5664(2) 0.25456(14) -0.17755(13)
H21 H 0.6736 0.2665 -0.1890
H22 H 0.5657 0.1901 -0.1595
Y1A Y 0.90681(2) -0.489265(14) -0.127366(13)
Y1A_2 Y -0.09319(2) 0.510735(14) -0.127366(13)
Y1A_3 Y -0.09319(2) 0.510735(14) 0.872634(13)
Y1A_4 Y -0.09319(2) 1.510735(14) -0.127366(13)
Na1A Na 0.58644(15) -0.38780(8) 0.09617(6)
Na1A_2 Na 0.58644(15) 0.61220(8) 0.09617(6)
Na1A_3 Na -0.41356(15) 0.61220(8) 0.09617(6)
Na1_2 Na -0.58644(15) 0.38780(8) 0.90383(6)
Na1_3 Na 0.41356(15) 1.38780(8) -0.09617(6)
Na1_4 Na -0.58644(15) 0.38780(8) -0.09617(6)
N1A N 0.5033(3) 0.02773(14) -0.12212(13)
N2A N -0.1750(2) 0.57325(15) 0.44862(12)
N3A N 0.0235(3) 0.96748(14) -0.11689(13)
O1A O 0.72046(19) -0.35003(11) -0.05118(9)
O2A O 0.9011(2) -0.30459(11) -0.17782(11)
O3A O -0.3166(2) 0.54128(13) 0.79267(10)
O3A_2 O 0.6834(2) -0.45872(13) -0.20733(10)
O4A O -0.5636(2) 0.49932(14) 0.76275(10)
O4A_2 O 0.4364(2) 0.49932(14) -0.23725(10)
O4_2 O 0.5636(2) -0.49932(14) 0.23725(10)
O5A O -0.1008(2) 1.34988(11) -0.20547(10)
O5A_2 O 0.8992(2) -0.65012(11) -0.20547(10)
O6A O 0.0914(2) 1.34751(11) -0.11248(10)
O6A_2 O 0.0914(2) 0.34751(11) -0.11248(10)
O6A_3 O 1.0914(2) -0.65249(11) -0.11248(10)
O6_2 O 0.9086(2) -0.34751(11) 0.11248(10)
C1A C 0.7713(3) -0.28313(15) -0.11643(14)
C2A C 0.6716(3) -0.17625(15) -0.12065(14)
C3A C 0.6160(3) -0.12894(15) -0.04033(14)
H1A H 0.6345 -0.1641 0.0163
C4A C 0.5302(3) -0.02620(15) -0.04368(14)
C5A C 0.5497(3) -0.02025(17) -0.20281(15)
C6A C 0.6337(3) -0.12326(16) -0.20600(14)
C7A C 0.6674(3) -0.16795(18) -0.29223(16)
H2A H 0.7201 -0.2360 -0.2954
C8A C 0.6234(4) -0.1124(2) -0.36990(17)
H3A H 0.6443 -0.1431 -0.4256
C9A C 0.5463(4) -0.0084(2) -0.36693(17)
H4A H 0.5200 0.0296 -0.4210
C10A C 0.5104(4) 0.03653(19) -0.28553(17)
H5A H 0.4596 0.1051 -0.2842
C11A C -0.4164(3) 0.52952(15) 0.73766(13)
C12A C -0.3416(3) 0.55002(16) 0.63567(13)
C13A C -0.1757(3) 0.50583(17) 0.60757(14)
H6A H -0.1159 0.4649 0.6503
C14A C -0.0930(3) 0.52149(16) 0.51379(13)
C15A C -0.3441(3) 0.61665(16) 0.47493(14)
C16A C -0.4336(3) 0.60983(16) 0.56903(13)
C17A C -0.6042(3) 0.66163(17) 0.58946(15)
H7A H -0.6620 0.6605 0.6508
C18A C -0.6857(3) 0.71341(19) 0.52056(17)
H8A H -0.7988 0.7466 0.5352
C19A C -0.6000(3) 0.7169(2) 0.42744(17)
H9A H -0.6578 0.7512 0.3808
C20A C -0.4329(3) 0.67064(19) 0.40502(15)
H10A H -0.3767 0.6745 0.3434
C21A C 0.0077(3) 1.30141(15) -0.15850(13)
C22A C 0.0251(3) 1.18465(15) -0.14933(14)
C23A C 0.0158(3) 1.13538(16) -0.06200(14)
H11A H 0.0130 1.1734 -0.0117
C24A C 0.0105(3) 1.02633(16) -0.04797(14)
C25A C 0.0384(3) 1.01465(17) -0.20541(15)
C26A C 0.0354(3) 1.12465(16) -0.22602(14)
C27A C 0.0475(3) 1.16677(18) -0.31986(15)
H12A H 0.0454 1.2384 -0.3346
C28A C 0.0621(4) 1.1025(2) -0.38858(17)
H13A H 0.0703 1.1307 -0.4500
C29A C 0.0650(4) 0.9938(2) -0.36801(17)
H14A H 0.0747 0.9512 -0.4159
C30A C 0.0536(4) 0.95087(19) -0.27904(17)
H15A H 0.0559 0.8790 -0.2663
C31A C -0.2387(3) 0.38906(15) 0.04336(13)
C32A C -0.2877(3) 0.30002(18) 0.11311(16)
H16A H -0.2911 0.2397 0.0815
H17A H -0.2022 0.2851 0.1535
H18A H -0.4014 0.3180 0.1491
O7A O -0.13224(19) 0.45006(11) 0.05658(10)
O7A_2 O 0.86776(19) -0.54994(11) 0.05658(10)
O7_2 O 1.13224(19) -0.45006(11) -0.05658(10)
O8A O -0.3020(2) 0.40483(13) -0.03011(10)
O8A_2 O 0.6980(2) 0.40483(13) -0.03011(10)
O8A_3 O 0.6980(2) -0.59517(13) -0.03011(10)
O8_2 O 0.3020(2) -0.40483(13) 0.03011(10)
O9A O 1.11356(19) -0.47967(12) -0.26590(10)
H19A H 1.1131 -0.5076 -0.3154
H20A H 1.2207 -0.4832 -0.2598
O10A O 0.4336(2) -0.25456(14) 0.17755(13)
H21A H 0.3264 -0.2665 0.1890
H22A H 0.4343 -0.1901 0.1595
loop_
_geom_bond_atom_site_label_1
_geom_bond_atom_site_label_2
_geom_bond_site_symmetry_1
_geom_bond_site_symmetry_2
Y1 O1 1_555 1_555
Na1 O1 1_555 1_555
N1 C4 1_555 1_555
N2 C14 1_555 1_555
N3 C24 1_555 1_555
O1 C1 1_555 1_555
O2 Y1 1_555 1_555
O3 Y1 1_555 1_555
O4 C11 1_555 1_555
O5 Y1 1_555 1_555
O6 Y1 1_555 1_555
C1 O2 1_555 1_555
C2 C1 1_555 1_555
C3 C2 1_555 1_555
H1 C3 1_555 1_555
C4 C3 1_555 1_555
C5 N1 1_555 1_555
C6 C2 1_555 1_555
C7 C6 1_555 1_555
H2 C7 1_555 1_555
C8 C7 1_555 1_555
H3 C8 1_555 1_555
C9 C8 1_555 1_555
H4 C9 1_555 1_555
C10 C5 1_555 1_555
H5 C10 1_555 1_555
C11 O3 1_555 1_555
C12 C11 1_555 1_555
C13 C12 1_555 1_555
H6 C13 1_555 1_555
C14 C13 1_555 1_555
C15 N2 1_555 1_555
C16 C12 1_555 1_555
C17 C16 1_555 1_555
H7 C17 1_555 1_555
C18 C17 1_555 1_555
H8 C18 1_555 1_555
C19 C18 1_555 1_555
H9 C19 1_555 1_555
C20 C15 1_555 1_555
H10 C20 1_555 1_555
C21 O5 1_555 1_555
C22 C21 1_555 1_555
C23 C22 1_555 1_555
H11 C23 1_555 1_555
C24 C23 1_555 1_555
C25 N3 1_555 1_555
C26 C22 1_555 1_555
C27 C26 1_555 1_555
H12 C27 1_555 1_555
C28 C27 1_555 1_555
H13 C28 1_555 1_555
C29 C28 1_555 1_555
H14 C29 1_555 1_555
C30 C25 1_555 1_555
H15 C30 1_555 1_555
C31 C32 1_555 1_555
C32 H16 1_555 1_555
H17 C32 1_555 1_555
H18 C32 1_555 1_555
O7 Y1 1_555 1_555
O8 Y1 1_555 1_555
O9 Y1 1_555 1_555
H19 O9 1_555 1_555
H20 O9 1_555 1_555
O10 Na1 1_555 1_555
H21 O10 1_555 1_555
H22 O10 1_555 1_555
Y1A O1A 1_555 1_555
Y1A_2 O7 1_555 1_555
Y1A_3 O3A 1_555 1_555
Y1A_4 O5A 1_555 1_555
Na1A O1A 1_555 1_555
Na1A_2 O4 1_555 1_555
Na1A_3 O6 1_555 1_555
Na1_2 O4A 1_555 1_555
Na1_3 O6A 1_555 1_555
Na1_4 O8A 1_555 1_555
N1A C4A 1_555 1_555
N2A C14A 1_555 1_555
N3A C24A 1_555 1_555
O1A C1A 1_555 1_555
O2A Y1A 1_555 1_555
O3A C11A 1_555 1_555
O3A_2 Y1A 1_555 1_555
O4A C11A 1_555 1_555
O4A_2 Na1 1_555 1_555
O4_2 Na1A 1_555 1_555
O5A C21A 1_555 1_555
O5A_2 Y1A 1_555 1_555
O6A Y1A_4 1_555 1_555
O6A_2 Na1 1_555 1_555
O6A_3 Y1A 1_555 1_555
O6_2 Na1A 1_555 1_555
C1A O2A 1_555 1_555
C2A C1A 1_555 1_555
C3A C2A 1_555 1_555
H1A C3A 1_555 1_555
C4A C4 1_555 1_555
C5A N1A 1_555 1_555
C6A C2A 1_555 1_555
C7A C6A 1_555 1_555
H2A C7A 1_555 1_555
C8A C7A 1_555 1_555
H3A C8A 1_555 1_555
C9A C8A 1_555 1_555
H4A C9A 1_555 1_555
C10A C5A 1_555 1_555
H5A C10A 1_555 1_555
C11A C12A 1_555 1_555
C12A C13A 1_555 1_555
C13A H6A 1_555 1_555
C14A C14 1_555 1_555
C15A N2A 1_555 1_555
C16A C12A 1_555 1_555
C17A C16A 1_555 1_555
H7A C17A 1_555 1_555
C18A C17A 1_555 1_555
H8A C18A 1_555 1_555
C19A C18A 1_555 1_555
H9A C19A 1_555 1_555
C20A C15A 1_555 1_555
H10A C20A 1_555 1_555
C21A O6A 1_555 1_555
C22A C21A 1_555 1_555
C23A C22A 1_555 1_555
H11A C23A 1_555 1_555
C24A C24 1_555 1_555
C25A N3A 1_555 1_555
C26A C22A 1_555 1_555
C27A C26A 1_555 1_555
H12A C27A 1_555 1_555
C28A C27A 1_555 1_555
H13A C28A 1_555 1_555
C29A C28A 1_555 1_555
H14A C29A 1_555 1_555
C30A C25A 1_555 1_555
H15A C30A 1_555 1_555
C31A C32A 1_555 1_555
C32A H16A 1_555 1_555
H17A C32A 1_555 1_555
H18A C32A 1_555 1_555
O7A Y1 1_555 1_555
O7A_2 Y1A 1_555 1_555
O7_2 Y1A 1_555 1_555
O8A Y1A_2 1_555 1_555
O8A_2 Na1 1_555 1_555
O8A_3 Y1A 1_555 1_555
O8_2 Na1A 1_555 1_555
O9A Y1A 1_555 1_555
H19A O9A 1_555 1_555
H20A O9A 1_555 1_555
O10A Na1A 1_555 1_555
H21A O10A 1_555 1_555
H22A O10A 1_555 1_555
Na1 O7 1_555 1_555
O6 C21 1_555 1_555
C5 C6 1_555 1_555
C9 C10 1_555 1_555
C15 C16 1_555 1_555
C19 C20 1_555 1_555
C25 C26 1_555 1_555
C29 C30 1_555 1_555
C31 O7 1_555 1_555
C31 O8 1_555 1_555
O8 Na1A_2 1_555 1_555
Y1A_2 O6A_2 1_555 1_555
Y1A_2 O7A 1_555 1_555
Na1A O7A_2 1_555 1_555
Na1A_3 O7A 1_555 1_555
C3A C4A 1_555 1_555
C5A C6A 1_555 1_555
C9A C10A 1_555 1_555
C13A C14A 1_555 1_555
C15A C16A 1_555 1_555
C19A C20A 1_555 1_555
C23A C24A 1_555 1_555
C25A C26A 1_555 1_555
C29A C30A 1_555 1_555
C31A O7A 1_555 1_555
C31A O8A 1_555 1_555

#END
