
#######################################################################
#
#                 Cambridge Crystallographic Data Centre
#                                CCDC 
#
#######################################################################
#
# If this CIF has been generated from an entry in the Cambridge 
# Structural Database, then it will include bibliographic, chemical, 
# crystal, experimental, refinement or atomic coordinate data resulting 
# from the CCDC's data processing and validation procedures.
#
#######################################################################

data_OHECEK
_symmetry_cell_setting           monoclinic
_symmetry_space_group_name_H-M   'P 21/c'
_symmetry_Int_Tables_number      14
_space_group_name_Hall           '-P 2ybc'
loop_
_symmetry_equiv_pos_site_id
_symmetry_equiv_pos_as_xyz
1 x,y,z
2 -x,1/2+y,1/2-z
3 -x,-y,-z
4 x,1/2-y,1/2+z
_cell_length_a                   9.6316(7)
_cell_length_b                   7.3983(5)
_cell_length_c                   15.8730(14)
_cell_angle_alpha                90
_cell_angle_beta                 113.769(6)
_cell_angle_gamma                90
_cell_volume                     1035.13
loop_
_atom_site_label
_atom_site_type_symbol
_atom_site_fract_x
_atom_site_fract_y
_atom_site_fract_z
Ni1 Ni 0.0000 0.0000 0.0000
O1 O 0.2176(6) 0.0114(9) 0.0979(4)
H1 H 0.2330 0.0789 0.1445
H2 H 0.2440 -0.0861 0.1155
O2 O -0.0328(7) -0.1958(9) 0.0844(4)
O3 O -0.0542(6) -0.7964(8) 0.0678(4)
N1 N -0.1942(9) -0.3940(12) -0.0163(5)
H3 H -0.2121 -0.3310 -0.0625
H4 H -0.2361 -0.4880 -0.0205
N2 N -0.1897(8) -0.6170(10) 0.1217(5)
C1 C -0.1038(9) -0.3407(13) 0.0661(6)
C2 C -0.0852(10) -0.4663(11) 0.1451(6)
H5 H 0.0178 -0.5125 0.1704
H6 H -0.0985 -0.3968 0.1931
C3 C -0.1660(10) -0.7744(13) 0.0876(6)
C4 C -0.2907(10) -0.9014(14) 0.0787(7)
H7 H -0.2561 -0.9933 0.1263
H8 H -0.3292 -0.9600 0.0190
C5 C -0.4113(12) -0.7850(15) 0.0897(8)
H9 H -0.4601 -0.8477 0.1241
H10 H -0.4877 -0.7514 0.0300
C6 C -0.3269(12) -0.6208(14) 0.1403(8)
H11 H -0.3865 -0.5120 0.1174
H12 H -0.3018 -0.6322 0.2057
Ni1_2 Ni 0.0000 -1.0000 0.0000
Ni1_3 Ni 0.0000 1.0000 0.0000
O1B O -0.2176(6) -0.0114(9) -0.0979(4)
H1B H -0.2330 -0.0789 -0.1445
H2B H -0.2440 0.0861 -0.1155
O2B O 0.0328(7) 0.1958(9) -0.0844(4)
O3B O 0.0542(6) 0.7964(8) -0.0678(4)
O3_2 O -0.0542(6) 0.2036(8) 0.0678(4)
O3B_2 O 0.0542(6) -0.2036(8) -0.0678(4)
N1B N 0.1942(9) 0.3940(12) 0.0163(5)
H3B H 0.2121 0.3310 0.0625
H4B H 0.2361 0.4880 0.0205
N2B N 0.1897(8) 0.6170(10) -0.1217(5)
C1B C 0.1038(9) 0.3407(13) -0.0661(6)
C2B C 0.0852(10) 0.4663(11) -0.1451(6)
H5B H -0.0178 0.5125 -0.1704
H6B H 0.0985 0.3968 -0.1931
C3B C 0.1660(10) 0.7744(13) -0.0876(6)
C4B C 0.2907(10) 0.9014(14) -0.0787(7)
H7B H 0.2561 0.9933 -0.1263
H8B H 0.3292 0.9600 -0.0190
C5B C 0.4113(12) 0.7850(15) -0.0897(8)
H9B H 0.4601 0.8477 -0.1241
H10B H 0.4877 0.7514 -0.0300
C6B C 0.3269(12) 0.6208(14) -0.1403(8)
H11B H 0.3865 0.5120 -0.1174
H12B H 0.3018 0.6322 -0.2057
O4 O -0.3621(7) -0.6858(9) -0.1467(5)
H13 H -0.4477 -0.7113 -0.1801
H14 H -0.3437 -0.5973 -0.1771
Cl1 Cl 0.3087(3) -0.6794(4) 0.24174(16)
loop_
_geom_bond_atom_site_label_1
_geom_bond_atom_site_label_2
_geom_bond_site_symmetry_1
_geom_bond_site_symmetry_2
Ni1 O1 1_555 1_555
O1 H1 1_555 1_555
H2 O1 1_555 1_555
O2 Ni1 1_555 1_555
O3 C3 1_555 1_555
N1 H3 1_555 1_555
H4 N1 1_555 1_555
N2 C2 1_555 1_555
C1 O2 1_555 1_555
C2 C1 1_555 1_555
H5 C2 1_555 1_555
H6 C2 1_555 1_555
C3 N2 1_555 1_555
C4 C3 1_555 1_555
H7 C4 1_555 1_555
H8 C4 1_555 1_555
C5 C4 1_555 1_555
H9 C5 1_555 1_555
H10 C5 1_555 1_555
C6 N2 1_555 1_555
H11 C6 1_555 1_555
H12 C6 1_555 1_555
O4 H13 1_555 1_555
H14 O4 1_555 1_555
Ni1_2 O3 1_555 1_555
Ni1_3 O3B 1_555 1_555
O1B Ni1 1_555 1_555
H1B O1B 1_555 1_555
H2B O1B 1_555 1_555
O2B Ni1 1_555 1_555
O3B C3B 1_555 1_555
O3_2 Ni1 1_555 1_555
O3B_2 Ni1 1_555 1_555
N1B H3B 1_555 1_555
H4B N1B 1_555 1_555
N2B C2B 1_555 1_555
C1B O2B 1_555 1_555
C2B C1B 1_555 1_555
H5B C2B 1_555 1_555
H6B C2B 1_555 1_555
C3B N2B 1_555 1_555
C4B C3B 1_555 1_555
H7B C4B 1_555 1_555
H8B C4B 1_555 1_555
C5B C4B 1_555 1_555
H9B C5B 1_555 1_555
H10B C5B 1_555 1_555
C6B N2B 1_555 1_555
H11B C6B 1_555 1_555
H12B C6B 1_555 1_555
N1 C1 1_555 1_555
C5 C6 1_555 1_555
N1B C1B 1_555 1_555
C5B C6B 1_555 1_555

#END
