
#######################################################################
#
#                 Cambridge Crystallographic Data Centre
#                                CCDC 
#
#######################################################################
#
# If this CIF has been generated from an entry in the Cambridge 
# Structural Database, then it will include bibliographic, chemical, 
# crystal, experimental, refinement or atomic coordinate data resulting 
# from the CCDC's data processing and validation procedures.
#
#######################################################################

data_OHELOE
_symmetry_cell_setting           orthorhombic
_symmetry_space_group_name_H-M   'P 21 21 21'
_symmetry_Int_Tables_number      19
_space_group_name_Hall           'P 2ac 2ab'
loop_
_symmetry_equiv_pos_site_id
_symmetry_equiv_pos_as_xyz
1 x,y,z
2 1/2-x,-y,1/2+z
3 1/2+x,1/2-y,-z
4 -x,1/2+y,1/2-z
_cell_length_a                   5.2210(2)
_cell_length_b                   9.1889(4)
_cell_length_c                   22.1559(10)
_cell_angle_alpha                90
_cell_angle_beta                 90
_cell_angle_gamma                90
_cell_volume                     1062.93
loop_
_atom_site_label
_atom_site_type_symbol
_atom_site_fract_x
_atom_site_fract_y
_atom_site_fract_z
Zn1 Zn 0.50773(8) 0.10750(4) 0.55705(2)
P1 P 1.01002(19) 0.29242(8) 0.57930(3)
S1 S 0.3692(2) -0.35340(15) 0.77437(5)
O1 O 0.9167(5) 0.3698(3) 0.63929(12)
H1 H 0.848(8) 0.309(4) 0.6596(19)
O2 O 0.8659(4) 0.1515(3) 0.57061(11)
O3 O 1.2977(4) 0.2677(3) 0.58537(11)
O4 O 0.9594(4) 0.4063(3) 0.53087(10)
O5 O 0.3925(5) -0.0803(3) 0.58683(12)
O6 O 0.7309(5) -0.1965(3) 0.54837(13)
N1 N 0.4865(6) -0.4489(3) 0.54404(11)
H2 H 0.6565 -0.4529 0.5467
H3 H 0.4419 -0.4252 0.5065
H4 H 0.4207 -0.5354 0.5533
C1 C 0.5183(7) -0.1933(3) 0.57187(13)
C2 C 0.3873(6) -0.3376(4) 0.58669(15)
H5 H 0.2019 -0.3274 0.5812
C3 C 0.4427(7) -0.3861(4) 0.65115(14)
H6 H 0.3895 -0.4866 0.6560
H7 H 0.6258 -0.3814 0.6583
C4 C 0.3057(8) -0.2928(5) 0.69771(17)
H8 H 0.1227 -0.2962 0.6902
H9 H 0.3610 -0.1925 0.6934
C5 C 0.1420(9) -0.4984(6) 0.7819(2)
H10 H 0.1428 -0.5333 0.8228
H11 H 0.1875 -0.5764 0.7551
H12 H -0.0259 -0.4634 0.7719
Zn1_2 Zn 1.50773(8) 0.10750(4) 0.55705(2)
Zn1B Zn 1.00773(8) 0.39250(4) 0.44295(2)
O3_2 O 0.2977(4) 0.2677(3) 0.58537(11)
O4B O 0.4594(4) 0.0937(3) 0.46913(10)
loop_
_geom_bond_atom_site_label_1
_geom_bond_atom_site_label_2
_geom_bond_site_symmetry_1
_geom_bond_site_symmetry_2
Zn1 O2 1_555 1_555
P1 O1 1_555 1_555
S1 C4 1_555 1_555
O1 H1 1_555 1_555
O2 P1 1_555 1_555
O3 P1 1_555 1_555
O4 P1 1_555 1_555
O5 Zn1 1_555 1_555
O6 C1 1_555 1_555
N1 H2 1_555 1_555
H3 N1 1_555 1_555
H4 N1 1_555 1_555
C1 O5 1_555 1_555
C2 N1 1_555 1_555
H5 C2 1_555 1_555
C3 C2 1_555 1_555
H6 C3 1_555 1_555
H7 C3 1_555 1_555
C4 C3 1_555 1_555
H8 C4 1_555 1_555
H9 C4 1_555 1_555
C5 S1 1_555 1_555
H10 C5 1_555 1_555
H11 C5 1_555 1_555
H12 C5 1_555 1_555
Zn1_2 O3 1_555 1_555
Zn1B O4 1_555 1_555
O3_2 Zn1 1_555 1_555
O4B Zn1 1_555 1_555
C1 C2 1_555 1_555

#END
