
#######################################################################
#
#                 Cambridge Crystallographic Data Centre
#                                CCDC 
#
#######################################################################
#
# If this CIF has been generated from an entry in the Cambridge 
# Structural Database, then it will include bibliographic, chemical, 
# crystal, experimental, refinement or atomic coordinate data resulting 
# from the CCDC's data processing and validation procedures.
#
#######################################################################

data_OHEMOD
_symmetry_cell_setting           triclinic
_symmetry_space_group_name_H-M   'P -1'
_symmetry_Int_Tables_number      2
_space_group_name_Hall           '-P 1'
loop_
_symmetry_equiv_pos_site_id
_symmetry_equiv_pos_as_xyz
1 x,y,z
2 -x,-y,-z
_cell_length_a                   5.6390(10)
_cell_length_b                   5.9360(10)
_cell_length_c                   16.6980(10)
_cell_angle_alpha                82.290(10)
_cell_angle_beta                 89.570(10)
_cell_angle_gamma                86.330(10)
_cell_volume                     552.745
loop_
_atom_site_label
_atom_site_type_symbol
_atom_site_fract_x
_atom_site_fract_y
_atom_site_fract_z
Ag1 Ag 0.21100(8) 0.02479(9) 0.45270(3)
C1 C -0.2520(9) 0.0619(7) 0.3584(3)
C2 C -0.4000(8) 0.0815(7) 0.2822(3)
H1 H -0.4533(8) -0.0670(7) 0.2754(3)
H2 H -0.5394(8) 0.1832(7) 0.2871(3)
C3 C -0.3622(8) 0.1234(7) 0.1331(3)
H3 H -0.5245(8) 0.1885(7) 0.1281(3)
H4 H -0.3652(8) -0.0399(7) 0.1333(3)
C4 C -0.2165(9) 0.2252(7) 0.0610(3)
H5 H -0.0498(9) 0.1799(7) 0.0707(3)
H6 H -0.2647(9) 0.1644(7) 0.0130(3)
C5 C -0.2478(9) 0.4745(9) 0.0468(3)
N1 N -0.2627(7) 0.1699(6) 0.2100(2)
H7 H -0.1034(7) 0.1020(6) 0.2151(2)
H8 H -0.2545(7) 0.3315(6) 0.2084(2)
N2 N -0.2758(8) 0.6669(8) 0.0365(3)
O1 O -0.0352(6) 0.0807(5) 0.3501(2)
O2 O -0.3648(7) 0.0211(7) 0.4232(2)
O2_2 O 0.6352(7) 0.0211(7) 0.4232(2)
O2A O 0.3648(7) -0.0211(7) 0.5768(2)
Ag1_2 Ag -0.78900(8) 0.02479(9) 0.45270(3)
Ag1A Ag -0.21100(8) -0.02479(9) 0.54730(3)
Cl1 Cl -0.8662(2) 0.6329(2) 0.21942(8)
O3 O -1.1061(7) 0.6181(5) 0.2490(3)
O4 O -0.8187(8) 0.4590(6) 0.1686(3)
O5 O -0.7038(8) 0.6001(6) 0.2854(3)
O6 O -0.8442(7) 0.8548(5) 0.1753(3)
O7 O -0.7716(18) 0.5248(14) 0.4600(6)
loop_
_geom_bond_atom_site_label_1
_geom_bond_atom_site_label_2
_geom_bond_site_symmetry_1
_geom_bond_site_symmetry_2
Ag1 O1 1_555 1_555
Cl1 O3 1_555 1_555
C1 C2 1_555 1_555
C2 H1 1_555 1_555
H2 C2 1_555 1_555
C3 H3 1_555 1_555
H4 C3 1_555 1_555
C4 C3 1_555 1_555
H5 C4 1_555 1_555
H6 C4 1_555 1_555
C5 C4 1_555 1_555
N1 C2 1_555 1_555
H7 N1 1_555 1_555
H8 N1 1_555 1_555
N2 C5 1_555 1_555
O1 C1 1_555 1_555
O2 C1 1_555 1_555
O4 Cl1 1_555 1_555
O5 Cl1 1_555 1_555
O6 Cl1 1_555 1_555
O2_2 Ag1 1_555 1_555
O2A Ag1 1_555 1_555
Ag1_2 O2 1_555 1_555
Ag1A O2 1_555 1_555
C3 N1 1_555 1_555

#END
