
#######################################################################
#
#                 Cambridge Crystallographic Data Centre
#                                CCDC 
#
#######################################################################
#
# If this CIF has been generated from an entry in the Cambridge 
# Structural Database, then it will include bibliographic, chemical, 
# crystal, experimental, refinement or atomic coordinate data resulting 
# from the CCDC's data processing and validation procedures.
#
#######################################################################

data_OHENAQ
_symmetry_cell_setting           monoclinic
_symmetry_space_group_name_H-M   'C 2/c'
_symmetry_Int_Tables_number      15
_space_group_name_Hall           '-C 2yn'
loop_
_symmetry_equiv_pos_site_id
_symmetry_equiv_pos_as_xyz
1 x,y,z
2 1/2+x,1/2+y,z
3 x,-y,1/2+z
4 1/2+x,1/2-y,1/2+z
5 -x,-y,-z
6 1/2-x,1/2-y,-z
7 -x,y,1/2-z
8 1/2-x,1/2+y,1/2-z
_cell_length_a                   27.154(5)
_cell_length_b                   9.530(2)
_cell_length_c                   21.903(4)
_cell_angle_alpha                90
_cell_angle_beta                 97.57(3)
_cell_angle_gamma                90
_cell_volume                     5618.61
loop_
_atom_site_label
_atom_site_type_symbol
_atom_site_fract_x
_atom_site_fract_y
_atom_site_fract_z
Tb1 Tb 0.014253(4) 0.247918(13) 0.008710(5)
O1 O -0.32829(8) 0.3917(3) -0.46466(12)
O2 O -0.34353(8) 0.3352(3) -0.36952(12)
H1 H -0.3745 0.3478 -0.3795
O3 O -0.01905(7) 0.0898(2) -0.06574(9)
O4 O -0.05324(7) -0.11419(19) -0.09713(9)
O5 O -0.10967(7) 0.2550(3) -0.33956(9)
O6 O 0.07674(7) 0.3868(2) 0.06076(9)
O7 O 0.04762(7) 0.5962(2) 0.03070(9)
O8 O 0.46987(7) 0.84207(19) 0.09815(9)
O9 O 0.44330(7) 0.65090(19) 0.04809(9)
O10 O 0.25442(7) 0.7713(2) 0.18363(10)
O11 O 0.04294(7) 0.3720(2) -0.07760(9)
H2 H 0.0253 0.4382 -0.0948
H3 H 0.0609 0.3281 -0.1001
O12 O 0.08072(6) 0.12258(19) -0.02829(9)
H4 H 0.0738 0.0416 -0.0431
H5 H 0.1086 0.1259 -0.0056
C1 C -0.31366(11) 0.3549(3) -0.41197(16)
C2 C -0.26028(10) 0.3296(3) -0.39026(15)
C3 C -0.24425(11) 0.2812(3) -0.33133(15)
H8 H -0.2680 0.2647 -0.3035
C4 C -0.19416(10) 0.2536(4) -0.31299(13)
H9 H -0.1827 0.2174 -0.2728
C5 C -0.16031(10) 0.2769(3) -0.35430(13)
C6 C -0.17577(11) 0.3280(4) -0.41286(14)
H10 H -0.1517 0.3448 -0.4403
C7 C -0.22567(11) 0.3540(4) -0.43053(15)
H11 H -0.2368 0.3903 -0.4708
C8 C -0.09241(10) 0.1929(3) -0.28224(13)
C9 C -0.09749(13) 0.0501(3) -0.27452(14)
H12 H -0.1120 -0.0073 -0.3081
C10 C -0.08009(12) -0.0087(3) -0.21759(14)
H13 H -0.0835 -0.1075 -0.2112
C11 C -0.05822(9) 0.0743(3) -0.16941(12)
C12 C -0.05213(11) 0.2172(3) -0.17968(14)
H14 H -0.0366 0.2745 -0.1467
C13 C -0.06974(12) 0.2778(3) -0.23626(14)
H15 H -0.0653 0.3759 -0.2435
C14 C -0.04219(9) 0.0134(3) -0.10652(12)
C15 C 0.08036(9) 0.5187(3) 0.05913(12)
C16 C 0.12669(9) 0.5853(3) 0.09209(12)
C17 C 0.13995(12) 0.7199(3) 0.07717(16)
H16 H 0.1194 0.7710 0.0458
C18 C 0.18325(12) 0.7804(3) 0.10734(18)
H17 H 0.1924 0.8743 0.0978
C19 C 0.21202(10) 0.7064(3) 0.15190(14)
C20 C 0.19929(11) 0.5728(3) 0.16832(15)
H18 H 0.2195 0.5248 0.2010
C21 C 0.15639(11) 0.5123(3) 0.13749(15)
H19 H 0.1476 0.4186 0.1476
C22 C 0.29821(9) 0.7621(3) 0.15775(13)
C23 C 0.33754(10) 0.8422(3) 0.18524(14)
H20 H 0.3334 0.9012 0.2196
C24 C 0.38263(10) 0.8396(3) 0.16186(14)
H21 H 0.4102 0.8942 0.1805
C25 C 0.38868(9) 0.7545(3) 0.11152(12)
C26 C 0.34880(10) 0.6728(3) 0.08517(14)
H22 H 0.3530 0.6131 0.0511
C27 C 0.30348(10) 0.6763(3) 0.10766(15)
H23 H 0.2757 0.6225 0.0889
C28 C 0.43669(9) 0.7492(3) 0.08542(12)
O4D O 0.05324(7) 0.11419(19) 0.09713(9)
O7D O -0.04762(7) 0.4038(2) -0.03070(9)
O8A O -0.03013(7) 0.34207(19) 0.09815(9)
O9A O -0.05670(7) 0.15090(19) 0.04809(9)
Tb1D Tb -0.014253(4) -0.247918(13) -0.008710(5)
Tb1D_2 Tb -0.014253(4) 0.752082(13) -0.008710(5)
Tb1A Tb 0.514253(4) 0.747918(13) 0.008710(5)
O13 O -0.5412(2) 0.1223(6) -0.2077(2)
H6 H -0.5302 0.1112 -0.1699
H7 H -0.5157 0.1365 -0.2253
loop_
_geom_bond_atom_site_label_1
_geom_bond_atom_site_label_2
_geom_bond_site_symmetry_1
_geom_bond_site_symmetry_2
Tb1 O3 1_555 1_555
O1 C1 1_555 1_555
O2 H1 1_555 1_555
O3 C14 1_555 1_555
O4 C14 1_555 1_555
O5 C5 1_555 1_555
O6 Tb1 1_555 1_555
O7 C15 1_555 1_555
O8 C28 1_555 1_555
O9 C28 1_555 1_555
O10 C19 1_555 1_555
O11 Tb1 1_555 1_555
H2 O11 1_555 1_555
H3 O11 1_555 1_555
O12 Tb1 1_555 1_555
H4 O12 1_555 1_555
H5 O12 1_555 1_555
O13 H6 1_555 1_555
H7 O13 1_555 1_555
C1 O2 1_555 1_555
C2 C1 1_555 1_555
C3 C2 1_555 1_555
H8 C3 1_555 1_555
C4 C3 1_555 1_555
H9 C4 1_555 1_555
C5 C4 1_555 1_555
C6 C5 1_555 1_555
H10 C6 1_555 1_555
C7 C2 1_555 1_555
H11 C7 1_555 1_555
C8 O5 1_555 1_555
C9 C8 1_555 1_555
H12 C9 1_555 1_555
C10 C9 1_555 1_555
H13 C10 1_555 1_555
C11 C10 1_555 1_555
C12 C11 1_555 1_555
H14 C12 1_555 1_555
C13 C8 1_555 1_555
H15 C13 1_555 1_555
C14 C11 1_555 1_555
C15 O6 1_555 1_555
C16 C15 1_555 1_555
C17 C16 1_555 1_555
H16 C17 1_555 1_555
C18 C17 1_555 1_555
H17 C18 1_555 1_555
C19 C18 1_555 1_555
C20 C19 1_555 1_555
H18 C20 1_555 1_555
C21 C16 1_555 1_555
H19 C21 1_555 1_555
C22 O10 1_555 1_555
C23 C22 1_555 1_555
H20 C23 1_555 1_555
C24 C23 1_555 1_555
H21 C24 1_555 1_555
C25 C24 1_555 1_555
C26 C25 1_555 1_555
H22 C26 1_555 1_555
C27 C22 1_555 1_555
H23 C27 1_555 1_555
C28 C25 1_555 1_555
O4D Tb1 1_555 1_555
O7D Tb1 1_555 1_555
O8A Tb1 1_555 1_555
O9A Tb1 1_555 1_555
Tb1D O4 1_555 1_555
Tb1D_2 O7 1_555 1_555
Tb1A O8 1_555 1_555
O9 Tb1A 1_555 1_555
C6 C7 1_555 1_555
C12 C13 1_555 1_555
C20 C21 1_555 1_555
C26 C27 1_555 1_555

#END
