
#######################################################################
#
#                 Cambridge Crystallographic Data Centre
#                                CCDC 
#
#######################################################################
#
# If this CIF has been generated from an entry in the Cambridge 
# Structural Database, then it will include bibliographic, chemical, 
# crystal, experimental, refinement or atomic coordinate data resulting 
# from the CCDC's data processing and validation procedures.
#
#######################################################################

data_OHENEU
_symmetry_cell_setting           monoclinic
_symmetry_space_group_name_H-M   'P 21/n'
_symmetry_Int_Tables_number      14
_space_group_name_Hall           '-P 2yn'
loop_
_symmetry_equiv_pos_site_id
_symmetry_equiv_pos_as_xyz
1 x,y,z
2 1/2-x,1/2+y,1/2-z
3 -x,-y,-z
4 1/2+x,1/2-y,1/2+z
_cell_length_a                   8.5937(9)
_cell_length_b                   29.016(3)
_cell_length_c                   16.5048(18)
_cell_angle_alpha                90
_cell_angle_beta                 90.279(2)
_cell_angle_gamma                90
_cell_volume                     4115.5
loop_
_atom_site_label
_atom_site_type_symbol
_atom_site_fract_x
_atom_site_fract_y
_atom_site_fract_z
Tb1 Tb 0.41108(5) 0.009901(11) 0.37200(2)
Tb2 Tb 0.69168(3) 0.485710(9) 0.573400(17)
O1 O 0.6445(7) 0.05529(18) 0.3876(3)
O2 O 0.8030(9) 0.0510(2) 0.2830(4)
O3 O 0.8008(5) 0.44287(16) 0.4708(3)
O4 O 0.7294(9) 0.4306(2) 0.3441(3)
O5 O 1.0406(6) 0.23844(17) 0.4374(4)
O6 O 0.2602(7) -0.04388(18) 0.1657(3)
O7 O 0.2729(8) -0.0439(2) 0.3000(4)
O8 O 0.1609(9) -0.44322(18) 0.2325(3)
O9 O 0.2935(6) -0.42178(16) 0.3400(3)
O10 O -0.0468(7) -0.23612(18) 0.2417(5)
O11 O 0.7804(5) -0.44963(15) 0.4844(3)
O12 O 0.5295(5) -0.45186(14) 0.5059(3)
O13 O 0.5355(8) -0.04603(18) 0.4505(4)
O14 O 0.6644(7) -0.07560(19) 0.5513(3)
O15 O 0.5588(8) -0.25567(16) 0.3400(3)
O16 O 0.5909(10) -0.0156(2) 0.2668(5)
H1 H 0.6548 -0.0395 0.2721
H2 H 0.6490 0.0078 0.2713
O17 O 0.2151(9) -0.0188(3) 0.4648(4)
H3 H 0.1513 -0.0388 0.4458
H4 H 0.2442 -0.0288 0.5113
O18 O 0.4612(6) 0.49430(18) 0.6558(3)
H5 H 0.3984 0.5204 0.6578
H6 H 0.4442 0.4665 0.6862
O19 O 0.9666(6) 0.48095(19) 0.6021(3)
H7 H 1.0002 0.5045 0.6283
H8 H 1.0486 0.4689 0.5797
C1 C 0.7584(9) 0.0705(2) 0.3453(4)
C2 C 0.8323(8) 0.1150(2) 0.3704(4)
C3 C 0.7797(10) 0.1390(3) 0.4376(5)
H9 H 0.6993 0.1268 0.4684
C4 C 0.8457(10) 0.1810(3) 0.4583(5)
H10 H 0.8092 0.1970 0.5032
C5 C 0.9634(8) 0.1986(2) 0.4131(5)
C6 C 1.0192(9) 0.1753(3) 0.3463(5)
H11 H 1.0996 0.1875 0.3155
C7 C 0.9546(9) 0.1334(3) 0.3248(4)
H12 H 0.9911 0.1174 0.2800
C8 C 0.9707(8) 0.2809(2) 0.4281(4)
C9 C 1.0134(9) 0.3143(2) 0.4837(5)
H13 H 1.0813 0.3069 0.5257
C10 C 0.9558(9) 0.3586(2) 0.4775(4)
H14 H 0.9853 0.3810 0.5149
C11 C 0.8554(7) 0.3701(2) 0.4149(4)
C12 C 0.8133(9) 0.3362(3) 0.3599(4)
H15 H 0.7454 0.3437 0.3178
C13 C 0.8670(9) 0.2917(3) 0.3664(5)
H16 H 0.8375 0.2693 0.3290
C14 C 0.7902(8) 0.4178(2) 0.4095(4)
C15 C 0.2398(9) -0.0621(2) 0.2323(4)
C16 C 0.1741(9) -0.1097(2) 0.2363(4)
C17 C 0.1982(10) -0.1411(3) 0.1752(5)
H17 H 0.2603 -0.1332 0.1314
C18 C 0.1329(10) -0.1849(3) 0.1793(5)
H18 H 0.1490 -0.2059 0.1376
C19 C 0.0390(9) -0.1955(2) 0.2426(5)
C20 C 0.0171(12) -0.1652(3) 0.3055(5)
H19 H -0.0450 -0.1732 0.3493
C21 C 0.0841(13) -0.1225(3) 0.3022(5)
H20 H 0.0680 -0.1015 0.3439
C22 C 0.0329(8) -0.2772(2) 0.2484(5)
C23 C -0.0011(10) -0.3104(3) 0.1926(5)
H21 H -0.0641 -0.3036 0.1482
C24 C 0.0566(10) -0.3542(2) 0.2023(4)
H22 H 0.0327 -0.3771 0.1648
C25 C 0.1497(8) -0.3650(2) 0.2687(4)
C26 C 0.1853(10) -0.3308(3) 0.3232(5)
H23 H 0.2484 -0.3376 0.3676
C27 C 0.1295(10) -0.2866(3) 0.3129(6)
H24 H 0.1534 -0.2637 0.3505
C28 C 0.2056(8) -0.4134(2) 0.2807(4)
C29 C 0.6499(7) -0.43095(19) 0.4794(3)
C30 C 0.6306(6) -0.38367(19) 0.4451(3)
C31 C 0.5232(8) -0.3537(2) 0.4781(4)
H25 H 0.4646 -0.3630 0.5224
C32 C 0.5044(8) -0.3098(2) 0.4479(4)
H26 H 0.4322 -0.2898 0.4706
C33 C 0.5892(9) -0.2967(2) 0.3809(4)
C34 C 0.6963(9) -0.3260(2) 0.3467(4)
H27 H 0.7549 -0.3166 0.3024
C35 C 0.7203(8) -0.3693(2) 0.3797(4)
H28 H 0.7926 -0.3893 0.3570
C36 C 0.5699(8) -0.2142(2) 0.3795(4)
C37 C 0.6575(8) -0.2069(2) 0.4493(4)
H29 H 0.7101 -0.2313 0.4736
C38 C 0.6680(8) -0.1631(2) 0.4809(4)
H30 H 0.7275 -0.1581 0.5273
C39 C 0.5905(8) -0.1264(2) 0.4457(4)
C40 C 0.5024(10) -0.1345(2) 0.3764(5)
H31 H 0.4499 -0.1101 0.3520
C41 C 0.4891(10) -0.1778(3) 0.3441(4)
H32 H 0.4296 -0.1828 0.2978
C42 C 0.5989(9) -0.0798(2) 0.4844(5)
O8A O 0.3391(9) 0.05678(18) 0.2675(3)
O14B O 0.3356(7) 0.07560(19) 0.4487(3)
O6C O 0.7602(7) 0.54388(18) 0.6657(3)
O9B O 0.7065(6) 0.42178(16) 0.6600(3)
O11_2 O 0.7804(5) 0.55037(15) 0.4844(3)
O12_2 O 0.5295(5) 0.54814(14) 0.5059(3)
O12B O 0.4705(5) 0.45186(14) 0.4941(3)
Tb2C Tb 0.19168(3) 0.014290(9) 0.073400(17)
Tb1A Tb 0.08892(5) -0.490099(11) 0.12800(2)
Tb2B Tb 0.30832(3) -0.485710(9) 0.426600(17)
Tb2_2 Tb 0.69168(3) -0.514290(9) 0.573400(17)
Tb1B Tb 0.58892(5) -0.009901(11) 0.62800(2)
loop_
_geom_bond_atom_site_label_1
_geom_bond_atom_site_label_2
_geom_bond_site_symmetry_1
_geom_bond_site_symmetry_2
Tb1 O1 1_555 1_555
Tb2 O3 1_555 1_555
O1 C1 1_555 1_555
O2 C1 1_555 1_555
O3 C14 1_555 1_555
O4 C14 1_555 1_555
O5 C5 1_555 1_555
O6 C15 1_555 1_555
O7 Tb1 1_555 1_555
O8 C28 1_555 1_555
O9 C28 1_555 1_555
O10 C19 1_555 1_555
O11 C29 1_555 1_555
O12 C29 1_555 1_555
O13 Tb1 1_555 1_555
O14 C42 1_555 1_555
O15 C33 1_555 1_555
O16 Tb1 1_555 1_555
H1 O16 1_555 1_555
H2 O16 1_555 1_555
O17 Tb1 1_555 1_555
H3 O17 1_555 1_555
H4 O17 1_555 1_555
O18 Tb2 1_555 1_555
H5 O18 1_555 1_555
H6 O18 1_555 1_555
O19 Tb2 1_555 1_555
H7 O19 1_555 1_555
H8 O19 1_555 1_555
C1 C2 1_555 1_555
C2 C3 1_555 1_555
C3 H9 1_555 1_555
C4 C3 1_555 1_555
H10 C4 1_555 1_555
C5 C4 1_555 1_555
C6 C5 1_555 1_555
H11 C6 1_555 1_555
C7 C2 1_555 1_555
H12 C7 1_555 1_555
C8 O5 1_555 1_555
C9 C8 1_555 1_555
H13 C9 1_555 1_555
C10 C9 1_555 1_555
H14 C10 1_555 1_555
C11 C10 1_555 1_555
C12 C11 1_555 1_555
H15 C12 1_555 1_555
C13 C8 1_555 1_555
H16 C13 1_555 1_555
C14 C11 1_555 1_555
C15 O7 1_555 1_555
C16 C15 1_555 1_555
C17 C16 1_555 1_555
H17 C17 1_555 1_555
C18 C17 1_555 1_555
H18 C18 1_555 1_555
C19 C18 1_555 1_555
C20 C19 1_555 1_555
H19 C20 1_555 1_555
C21 C16 1_555 1_555
H20 C21 1_555 1_555
C22 O10 1_555 1_555
C23 C22 1_555 1_555
H21 C23 1_555 1_555
C24 C23 1_555 1_555
H22 C24 1_555 1_555
C25 C24 1_555 1_555
C26 C25 1_555 1_555
H23 C26 1_555 1_555
C27 C22 1_555 1_555
H24 C27 1_555 1_555
C28 C25 1_555 1_555
C29 C30 1_555 1_555
C30 C31 1_555 1_555
C31 H25 1_555 1_555
C32 C31 1_555 1_555
H26 C32 1_555 1_555
C33 C32 1_555 1_555
C34 C33 1_555 1_555
H27 C34 1_555 1_555
C35 C30 1_555 1_555
H28 C35 1_555 1_555
C36 O15 1_555 1_555
C37 C36 1_555 1_555
H29 C37 1_555 1_555
C38 C37 1_555 1_555
H30 C38 1_555 1_555
C39 C38 1_555 1_555
C40 C39 1_555 1_555
H31 C40 1_555 1_555
C41 C36 1_555 1_555
H32 C41 1_555 1_555
C42 O13 1_555 1_555
O8A Tb1 1_555 1_555
O14B Tb1 1_555 1_555
O6C Tb2 1_555 1_555
O9B Tb2 1_555 1_555
O11_2 Tb2 1_555 1_555
O12_2 Tb2 1_555 1_555
O12B Tb2 1_555 1_555
Tb2C O6 1_555 1_555
Tb1A O8 1_555 1_555
Tb2B O9 1_555 1_555
Tb2_2 O11 1_555 1_555
Tb1B O14 1_555 1_555
O12 Tb2B 1_555 1_555
O12 Tb2_2 1_555 1_555
C6 C7 1_555 1_555
C12 C13 1_555 1_555
C20 C21 1_555 1_555
C26 C27 1_555 1_555
C34 C35 1_555 1_555
C39 C42 1_555 1_555
C40 C41 1_555 1_555

#END
