
#######################################################################
#
#                 Cambridge Crystallographic Data Centre
#                                CCDC 
#
#######################################################################
#
# If this CIF has been generated from an entry in the Cambridge 
# Structural Database, then it will include bibliographic, chemical, 
# crystal, experimental, refinement or atomic coordinate data resulting 
# from the CCDC's data processing and validation procedures.
#
#######################################################################

data_OHEPOH
_symmetry_cell_setting           triclinic
_symmetry_space_group_name_H-M   'P -1'
_symmetry_Int_Tables_number      2
_space_group_name_Hall           '-P 1'
loop_
_symmetry_equiv_pos_site_id
_symmetry_equiv_pos_as_xyz
1 x,y,z
2 -x,-y,-z
_cell_length_a                   11.182(2)
_cell_length_b                   12.088(2)
_cell_length_c                   13.495(3)
_cell_angle_alpha                97.61(3)
_cell_angle_beta                 97.61(3)
_cell_angle_gamma                116.83(3)
_cell_volume                     1574.84
loop_
_atom_site_label
_atom_site_type_symbol
_atom_site_fract_x
_atom_site_fract_y
_atom_site_fract_z
Cu1 Cu 0.65408(8) 0.75065(7) 1.01642(6)
Cu2 Cu 0.41485(8) 0.20772(7) 1.38859(6)
C1 C 0.6260(6) 0.4780(5) 1.4653(4)
C2 C 0.7068(5) 0.6063(5) 1.4631(4)
C3 C 0.6451(6) 0.5562(5) 1.2857(4)
C4 C 0.5584(6) 0.4284(5) 1.2876(4)
C5 C 0.6185(7) 0.4256(6) 1.5633(5)
C6 C 0.7933(7) 0.7098(6) 1.5604(5)
C7 C 0.6744(7) 0.6067(5) 1.1883(4)
C8 C 0.4710(6) 0.3261(6) 1.1918(4)
C9 C 0.6818(7) 0.1987(7) 1.3974(5)
H1 H 0.7233 0.2867 1.4071
C10 C 0.7645(8) 0.1410(9) 1.3971(5)
H2 H 0.8593 0.1889 1.4071
C11 C 0.7013(10) 0.0098(9) 1.3814(6)
H3 H 0.7538 -0.0317 1.3794
C12 C 0.5627(9) -0.0583(8) 1.3687(5)
H4 H 0.5202 -0.1463 1.3594
C13 C 0.2487(9) -0.1910(7) 1.3378(6)
H5 H 0.2857 -0.2459 1.3289
C14 C 0.1102(10) -0.2398(8) 1.3306(6)
H6 H 0.0539 -0.3272 1.3180
C15 C 0.0551(8) -0.1605(7) 1.3420(6)
H7 H -0.0388 -0.1925 1.3374
C16 C 0.1427(7) -0.0293(6) 1.3607(5)
H8 H 0.1050 0.0251 1.3686
C17 C 0.3361(7) -0.0585(6) 1.3585(5)
C18 C 0.4853(7) 0.0050(6) 1.3699(5)
C19 C 0.9419(7) 0.9645(6) 1.1096(5)
H9 H 0.9717 0.9060 1.0904
C20 C 1.0399(8) 1.0898(7) 1.1548(5)
H10 H 1.1332 1.1144 1.1676
C21 C 0.9937(8) 1.1759(7) 1.1800(5)
H11 H 1.0567 1.2605 1.2085
C22 C 0.8533(8) 1.1371(6) 1.1630(5)
H12 H 0.8218 1.1950 1.1794
C23 C 0.5404(8) 1.0180(6) 1.1323(5)
H13 H 0.5885 1.1031 1.1657
C24 C 0.3983(9) 0.9547(7) 1.1132(5)
H14 H 0.3516 0.9981 1.1327
C25 C 0.3246(8) 0.8261(7) 1.0647(5)
H15 H 0.2293 0.7813 1.0534
C26 C 0.4019(7) 0.7684(7) 1.0340(5)
H16 H 0.3560 0.6836 0.9998
C27 C 0.6112(7) 0.9551(6) 1.1018(4)
C28 C 0.7612(7) 1.0091(6) 1.1206(4)
N1 N 0.5520(5) 0.3916(4) 1.3778(3)
N2 N 0.7177(5) 0.6454(4) 1.3741(4)
N3 N 0.5446(5) 0.1337(5) 1.3842(4)
N4 N 0.2788(5) 0.0212(5) 1.3677(4)
N5 N 0.8062(6) 0.9250(4) 1.0926(4)
N6 N 0.5391(5) 0.8307(5) 1.0520(4)
O1 O 0.7833(5) 0.6856(4) 0.9887(3)
H17 H 0.741(6) 0.617(4) 0.943(4)
H18 H 0.769(6) 0.647(5) 1.038(3)
O2 O 0.5272(4) 0.3132(4) 1.5549(3)
O3 O 0.7054(6) 0.4985(4) 1.6417(3)
O5 O 0.9164(5) 0.7453(5) 1.5741(4)
O7 O 0.7357(4) 0.7523(4) 1.6169(3)
O9 O 0.6067(4) 0.6565(4) 1.1514(3)
O11 O 0.7734(4) 0.5995(4) 1.1587(3)
O12 O 0.4809(4) 0.3672(3) 1.1085(3)
O13 O 0.3963(4) 0.2162(4) 1.1999(3)
Cu1A Cu 0.34592(8) 0.24935(7) 0.98358(6)
Cu2A Cu 0.58515(8) 0.79228(7) 1.61141(6)
O7A O 0.2643(4) 0.2477(4) 1.3831(3)
O12A O 0.5191(4) 0.6328(3) 0.8915(3)
O4 O 0.0470(11) 0.4929(15) 0.0925(9)
H19 H -0.026(9) 0.474(15) 0.115(11)
H20 H 0.125(7) 0.499(15) 0.114(11)
O6 O -0.0021(9) 0.4581(7) 0.3967(7)
H21 H 0.066(7) 0.448(10) 0.419(8)
H22 H 0.011(12) 0.516(7) 0.445(5)
O8 O 0.1562(8) 0.5880(6) 0.7944(5)
H23 H 0.163(9) 0.526(6) 0.811(7)
H24 H 0.111(9) 0.571(9) 0.734(3)
O10 O 0.3192(5) 0.5290(5) 0.1651(4)
H25 H 0.402(3) 0.568(6) 0.158(5)
H26 H 0.319(7) 0.528(6) 0.228(2)
loop_
_geom_bond_atom_site_label_1
_geom_bond_atom_site_label_2
_geom_bond_site_symmetry_1
_geom_bond_site_symmetry_2
Cu1 N5 1_555 1_555
Cu2 N1 1_555 1_555
C1 C2 1_555 1_555
C2 C6 1_555 1_555
C3 C4 1_555 1_555
C4 C8 1_555 1_555
C5 C1 1_555 1_555
C6 O5 1_555 1_555
C7 C3 1_555 1_555
C8 O12 1_555 1_555
C9 H1 1_555 1_555
C10 C9 1_555 1_555
H2 C10 1_555 1_555
C11 C10 1_555 1_555
H3 C11 1_555 1_555
C12 C11 1_555 1_555
H4 C12 1_555 1_555
C13 H5 1_555 1_555
C14 C13 1_555 1_555
H6 C14 1_555 1_555
C15 C14 1_555 1_555
H7 C15 1_555 1_555
C16 C15 1_555 1_555
H8 C16 1_555 1_555
C17 C13 1_555 1_555
C18 C12 1_555 1_555
C19 H9 1_555 1_555
C20 C19 1_555 1_555
H10 C20 1_555 1_555
C21 C20 1_555 1_555
H11 C21 1_555 1_555
C22 C21 1_555 1_555
H12 C22 1_555 1_555
C23 H13 1_555 1_555
C24 C23 1_555 1_555
H14 C24 1_555 1_555
C25 C24 1_555 1_555
H15 C25 1_555 1_555
C26 C25 1_555 1_555
H16 C26 1_555 1_555
C27 C23 1_555 1_555
C28 C22 1_555 1_555
N1 C1 1_555 1_555
N2 C2 1_555 1_555
N3 Cu2 1_555 1_555
N4 Cu2 1_555 1_555
N5 C19 1_555 1_555
N6 Cu1 1_555 1_555
O1 Cu1 1_555 1_555
H17 O1 1_555 1_555
H18 O1 1_555 1_555
O2 Cu2 1_555 1_555
O3 C5 1_555 1_555
O4 H19 1_555 1_555
H20 O4 1_555 1_555
O6 H21 1_555 1_555
H22 O6 1_555 1_555
O7 C6 1_555 1_555
O8 H23 1_555 1_555
H24 O8 1_555 1_555
O9 Cu1 1_555 1_555
O10 H25 1_555 1_555
H26 O10 1_555 1_555
O11 C7 1_555 1_555
O12 Cu1A 1_555 1_555
O13 Cu2 1_555 1_555
Cu2A O7 1_555 1_555
O7A Cu2 1_555 1_555
O12A Cu1 1_555 1_555
C3 N2 1_555 1_555
C4 N1 1_555 1_555
C5 O2 1_555 1_555
C7 O9 1_555 1_555
C8 O13 1_555 1_555
C9 N3 1_555 1_555
C16 N4 1_555 1_555
C17 C18 1_555 1_555
C17 N4 1_555 1_555
C18 N3 1_555 1_555
C26 N6 1_555 1_555
C27 C28 1_555 1_555
C27 N6 1_555 1_555
C28 N5 1_555 1_555

#END
