
#######################################################################
#
#                 Cambridge Crystallographic Data Centre
#                                CCDC 
#
#######################################################################
#
# If this CIF has been generated from an entry in the Cambridge 
# Structural Database, then it will include bibliographic, chemical, 
# crystal, experimental, refinement or atomic coordinate data resulting 
# from the CCDC's data processing and validation procedures.
#
#######################################################################

data_OHEPIA
_symmetry_cell_setting           monoclinic
_symmetry_space_group_name_H-M   'P 21'
_symmetry_Int_Tables_number      4
_space_group_name_Hall           'P 2yb'
loop_
_symmetry_equiv_pos_site_id
_symmetry_equiv_pos_as_xyz
1 x,y,z
2 -x,1/2+y,-z
_cell_length_a                   10.639(4)
_cell_length_b                   13.019(4)
_cell_length_c                   13.141(5)
_cell_angle_alpha                90
_cell_angle_beta                 102.691(15)
_cell_angle_gamma                90
_cell_volume                     1775.68
loop_
_atom_site_label
_atom_site_type_symbol
_atom_site_fract_x
_atom_site_fract_y
_atom_site_fract_z
Ag1 Ag 0.75732(11) 0.57676(8) 0.67363(8)
Ag2 Ag 0.47035(11) 0.23383(8) 0.74753(9)
N1 N 0.8973(8) 0.4569(6) 0.6410(6)
C1 C 1.0045(11) 0.4628(10) 0.6040(8)
H1 H 1.0247 0.5299 0.5893
C2 C 1.0956(11) 0.3899(9) 0.5816(8)
H2 H 1.1700 0.4024 0.5573
C3 C 1.0466(10) 0.2969(8) 0.6047(7)
H3 H 1.0974 0.2406 0.5964
C4 C 0.9361(9) 0.2719(8) 0.6378(6)
H4 H 0.9138 0.2041 0.6477
C5 C 0.8643(11) 0.3495(8) 0.6544(8)
C6 C 0.7489(10) 0.3445(8) 0.6965(8)
H5 H 0.7235 0.2798 0.7144
N2 N 0.6788(8) 0.4211(6) 0.7113(6)
N3 N 0.5714(8) 0.3957(6) 0.7435(6)
C7 C 0.4995(10) 0.4697(8) 0.7660(8)
H6 H 0.5230 0.5373 0.7565
C8 C 0.3857(11) 0.4510(8) 0.8049(8)
C9 C 0.3167(10) 0.5367(9) 0.8347(8)
H7 H 0.3463 0.6034 0.8306
C10 C 0.2126(11) 0.5191(9) 0.8674(8)
H8 H 0.1683 0.5730 0.8899
C11 C 0.1689(11) 0.4228(8) 0.8687(8)
H9 H 0.0920 0.4110 0.8894
C12 C 0.2315(11) 0.3459(9) 0.8418(8)
H10 H 0.1956 0.2814 0.8469
N4 N 0.3382(10) 0.3471(8) 0.8086(8)
N5 N 0.7747(8) 0.7441(8) 0.7089(6)
C13 C 0.8322(12) 0.7743(11) 0.8117(10)
H11 H 0.8639 0.7272 0.8643
C14 C 0.8384(11) 0.8870(9) 0.8294(9)
H12 H 0.8611 0.9122 0.8972
C15 C 0.8123(10) 0.9519(9) 0.7506(8)
H13 H 0.8443 1.0185 0.7594
C16 C 0.7391(11) 0.9229(9) 0.6564(9)
H14 H 0.6990 0.9702 0.6068
C17 C 0.7284(12) 0.8139(9) 0.6391(8)
C18 C 0.6824(10) 0.7732(8) 0.5366(8)
H15 H 0.6559 0.8178 0.4806
N6 N 0.6774(8) 0.6766(6) 0.5212(6)
N7 N 0.6264(8) 0.6490(7) 0.4175(6)
C19 C 0.6138(9) 0.5515(7) 0.4046(7)
H16 H 0.6357 0.5087 0.4624
C20 C 0.5699(12) 0.5092(9) 0.3100(9)
C21 C 0.5463(11) 0.3955(9) 0.2892(8)
H17 H 0.5584 0.3527 0.3472
C22 C 0.5091(11) 0.3495(10) 0.1938(8)
H18 H 0.5182 0.2792 0.1856
C23 C 0.4528(12) 0.4173(10) 0.1029(9)
H19 H 0.4220 0.3906 0.0365
C24 C 0.4488(10) 0.5230(8) 0.1229(8)
H20 H 0.4038 0.5668 0.0718
N8 N 0.5090(9) 0.5607(8) 0.2146(7)
N7A N 0.3736(8) 0.1490(7) 0.5825(6)
N8A N 0.4910(9) 0.0607(8) 0.7854(7)
Ag2A Ag 0.52965(11) 0.73383(8) 0.25247(9)
B1 B 0.8723(3) 0.2213(2) 0.9554(2)
F1 F 0.9479(6) 0.2722(7) 0.8982(6)
F2 F 0.7941(6) 0.2539(9) 1.0203(5)
F3 F 0.8084(9) 0.1606(6) 0.8747(5)
F4 F 0.9745(6) 0.1607(6) 1.0040(9)
B2 B 0.6468(3) 1.1277(2) 1.4458(2)
F9 F 0.7680(5) 1.1312(11) 1.4246(8)
F10 F 0.6668(11) 1.1515(9) 1.5507(4)
F11 F 0.5647(8) 1.1666(7) 1.3576(5)
F12 F 0.6256(11) 1.0235(4) 1.4365(9)
N9 N 0.1111(12) 1.0158(10) 0.6710(10)
C25 C 0.1035(17) 0.9303(14) 0.6688(12)
C26 C 0.1003(15) 0.8282(11) 0.6922(11)
H21 H 0.1156 0.7882 0.6348
H22 H 0.0173 0.8112 0.7050
H23 H 0.1657 0.8135 0.7534
N10 N 0.6433(12) 0.6362(10) 1.9529(10)
C27 C 0.7228(13) 0.5891(16) 2.0011(11)
C28 C 0.8115(14) 0.5103(12) 2.0262(12)
H24 H 0.8624 0.5208 2.0954
H25 H 0.8666 0.5096 1.9774
H26 H 0.7669 0.4459 2.0233
F5? F 0.8964(13) 0.3236(4) 0.9411(10)
F6? F 0.8990(15) 0.2246(15) 1.0628(4)
F7? F 0.9502(8) 0.1401(6) 0.9416(14)
F8? F 0.7423(5) 0.2072(12) 0.9135(10)
F13? F 0.6330(10) 1.2106(5) 1.5072(6)
F14? F 0.5655(7) 1.0497(5) 1.4615(9)
F15? F 0.6574(15) 1.1855(8) 1.3605(5)
F16? F 0.7757(5) 1.1018(12) 1.4742(13)
loop_
_geom_bond_atom_site_label_1
_geom_bond_atom_site_label_2
_geom_bond_site_symmetry_1
_geom_bond_site_symmetry_2
Ag1 N1 1_555 1_555
Ag2 N3 1_555 1_555
N1 C1 1_555 1_555
C1 H1 1_555 1_555
C2 C1 1_555 1_555
H2 C2 1_555 1_555
C3 C2 1_555 1_555
H3 C3 1_555 1_555
C4 C3 1_555 1_555
H4 C4 1_555 1_555
C5 N1 1_555 1_555
C6 C5 1_555 1_555
H5 C6 1_555 1_555
N2 Ag1 1_555 1_555
N3 N2 1_555 1_555
C7 N3 1_555 1_555
H6 C7 1_555 1_555
C8 C7 1_555 1_555
C9 C8 1_555 1_555
H7 C9 1_555 1_555
C10 C9 1_555 1_555
H8 C10 1_555 1_555
C11 C10 1_555 1_555
H9 C11 1_555 1_555
C12 C11 1_555 1_555
H10 C12 1_555 1_555
N4 Ag2 1_555 1_555
N5 Ag1 1_555 1_555
C13 N5 1_555 1_555
H11 C13 1_555 1_555
C14 C13 1_555 1_555
H12 C14 1_555 1_555
C15 C14 1_555 1_555
H13 C15 1_555 1_555
C16 C15 1_555 1_555
H14 C16 1_555 1_555
C17 N5 1_555 1_555
C18 C17 1_555 1_555
H15 C18 1_555 1_555
N6 Ag1 1_555 1_555
N7 N6 1_555 1_555
C19 N7 1_555 1_555
H16 C19 1_555 1_555
C20 C19 1_555 1_555
C21 C20 1_555 1_555
H17 C21 1_555 1_555
C22 C21 1_555 1_555
H18 C22 1_555 1_555
C23 C22 1_555 1_555
H19 C23 1_555 1_555
C24 C23 1_555 1_555
H20 C24 1_555 1_555
N8 C20 1_555 1_555
B1 F1 1_555 1_555
F2 B1 1_555 1_555
F3 B1 1_555 1_555
F4 B1 1_555 1_555
B2 F9 1_555 1_555
F10 B2 1_555 1_555
F11 B2 1_555 1_555
F12 B2 1_555 1_555
N9 C25 1_555 1_555
C25 C26 1_555 1_555
C26 H21 1_555 1_555
H22 C26 1_555 1_555
H23 C26 1_555 1_555
N10 C27 1_555 1_555
C27 C28 1_555 1_555
C28 H24 1_555 1_555
H25 C28 1_555 1_555
H26 C28 1_555 1_555
N7A Ag2 1_555 1_555
N8A Ag2 1_555 1_555
Ag2A N7 1_555 1_555
C4 C5 1_555 1_555
C6 N2 1_555 1_555
C8 N4 1_555 1_555
C12 N4 1_555 1_555
C16 C17 1_555 1_555
C18 N6 1_555 1_555
C24 N8 1_555 1_555
N8 Ag2A 1_555 1_555

#END
