
#######################################################################
#
#                 Cambridge Crystallographic Data Centre
#                                CCDC 
#
#######################################################################
#
# If this CIF has been generated from an entry in the Cambridge 
# Structural Database, then it will include bibliographic, chemical, 
# crystal, experimental, refinement or atomic coordinate data resulting 
# from the CCDC's data processing and validation procedures.
#
#######################################################################

data_OHEQEX
_symmetry_cell_setting           monoclinic
_symmetry_space_group_name_H-M   'P 21/c'
_symmetry_Int_Tables_number      14
_space_group_name_Hall           '-P 2ybc'
loop_
_symmetry_equiv_pos_site_id
_symmetry_equiv_pos_as_xyz
1 x,y,z
2 x,1/2-y,1/2+z
3 -x,-y,-z
4 -x,1/2+y,1/2-z
_cell_length_a                   11.461(7)
_cell_length_b                   17.530(7)
_cell_length_c                   9.266(5)
_cell_angle_alpha                90
_cell_angle_beta                 108.20(1)
_cell_angle_gamma                90
_cell_volume                     1768.51
loop_
_atom_site_label
_atom_site_type_symbol
_atom_site_fract_x
_atom_site_fract_y
_atom_site_fract_z
Ag1 Ag 0.24441(4) 0.56661(2) 0.19077(5)
N1 N 0.0754(4) 0.6302(2) 0.2427(5)
N2 N 0.3893(4) 0.8303(3) 0.7411(5)
N3 N 0.2363(4) 0.5498(3) -0.0717(5)
N4 N 0.2745(7) 0.4128(3) 0.3223(8)
O1 O 0.3527(5) 0.4641(4) 0.3562(6)
O2 O 0.1789(6) 0.4326(3) 0.2296(7)
C1 C -0.0365(5) 0.6173(3) 0.1433(6)
H1 H -0.0443 0.5773 0.0702
C2 C -0.1373(6) 0.6581(4) 0.1404(8)
H2 H -0.2156 0.6461 0.0681
C3 C -0.1265(6) 0.7157(5) 0.2439(9)
H3 H -0.1968 0.7457 0.2430
C4 C -0.0130(6) 0.7297(4) 0.3479(8)
H4 H -0.0031 0.7698 0.4213
C5 C 0.0873(5) 0.6865(3) 0.3463(6)
C6 C 0.2100(5) 0.6966(3) 0.4562(6)
H5 H 0.2701 0.6581 0.4583
C7 C 0.2467(5) 0.7533(3) 0.5539(6)
H6 H 0.1873 0.7927 0.5486
C8 C 0.3677(5) 0.7625(3) 0.6692(6)
C9 C 0.4537(6) 0.7043(4) 0.7053(7)
H7 H 0.4353 0.6564 0.6526
C10 C 0.5648(6) 0.7159(5) 0.8172(8)
H8 H 0.6253 0.6760 0.8444
C11 C 0.5876(6) 0.7843(4) 0.8906(8)
H9 H 0.6647 0.7943 0.9669
C12 C 0.4977(5) 0.8397(4) 0.8488(6)
H10 H 0.5133 0.8874 0.9021
C13 C 0.1293(5) 0.5646(3) -0.1805(7)
H11 H 0.0623 0.5842 -0.1502
C14 C 0.1101(6) 0.5523(4) -0.3326(7)
H12 H 0.0323 0.5633 -0.4068
C15 C 0.2051(7) 0.5248(4) -0.3759(8)
H13 H 0.1945 0.5150 -0.4811
C16 C 0.3155(6) 0.5107(4) -0.2682(7)
H14 H 0.3832 0.4917 -0.2977
C17 C 0.3313(5) 0.5235(3) -0.1153(6)
C18 C 0.4466(5) 0.5092(3) 0.0071(7)
H15 H 0.4438 0.5130 0.1093
C18B C 0.5534(5) 0.4908(3) -0.0071(7)
C17B C 0.6687(5) 0.4765(3) 0.1153(6)
N3B N 0.7637(4) 0.4502(3) 0.0717(5)
C13B C 0.8707(5) 0.4354(3) 0.1805(7)
H11B H 0.9377 0.4158 0.1502
C14B C 0.8899(6) 0.4477(4) 0.3326(7)
H12B H 0.9677 0.4367 0.4068
C15B C 0.7949(7) 0.4752(4) 0.3759(8)
H13B H 0.8055 0.4850 0.4811
C16B C 0.6845(6) 0.4893(4) 0.2682(7)
H14B H 0.6168 0.5083 0.2977
H15B H 0.5562 0.4870 -0.1093
N1A N 0.0754(4) 0.8698(2) -0.2573(5)
N2A N 0.3893(4) 0.6697(3) 0.2411(5)
C1A C -0.0365(5) 0.8827(3) -0.3567(6)
H1A H -0.0443 0.9227 -0.4298
C2A C -0.1373(6) 0.8419(4) -0.3596(8)
H2A H -0.2156 0.8539 -0.4319
C3A C -0.1265(6) 0.7843(5) -0.2561(9)
H3A H -0.1968 0.7543 -0.2570
C4A C -0.0130(6) 0.7703(4) -0.1521(8)
H4A H -0.0031 0.7302 -0.0787
C5A C 0.0873(5) 0.8135(3) -0.1537(6)
C6A C 0.2100(5) 0.8034(3) -0.0438(6)
H5A H 0.2701 0.8419 -0.0417
C7A C 0.2467(5) 0.7467(3) 0.0539(6)
H6A H 0.1873 0.7073 0.0486
C8A C 0.3677(5) 0.7375(3) 0.1692(6)
C9A C 0.4537(6) 0.7957(4) 0.2053(7)
H7A H 0.4353 0.8436 0.1526
C10A C 0.5648(6) 0.7841(5) 0.3172(8)
H8A H 0.6253 0.8240 0.3444
C11A C 0.5876(6) 0.7157(4) 0.3906(8)
H9A H 0.6647 0.7057 0.4669
C12A C 0.4977(5) 0.6603(4) 0.3488(6)
H10A H 0.5133 0.6126 0.4021
Ag1A Ag 0.24441(4) 0.93339(2) -0.30923(5)
N4A N 0.2745(7) 1.0872(3) -0.1777(8)
O1A O 0.3527(5) 1.0359(4) -0.1438(6)
O2A O 0.1789(6) 1.0674(3) -0.2704(7)
Ag1A_2 Ag 0.24441(4) 0.93339(2) 0.69077(5)
Ag1B Ag 0.75559(4) 0.43339(2) -0.19077(5)
N2_2 N 0.3893(4) 0.8303(3) -0.2589(5)
N3A N 0.2363(4) 0.9502(3) -0.5717(5)
loop_
_geom_bond_atom_site_label_1
_geom_bond_atom_site_label_2
_geom_bond_site_symmetry_1
_geom_bond_site_symmetry_2
Ag1 N1 1_555 1_555
N1 C1 1_555 1_555
N2 C8 1_555 1_555
N3 Ag1 1_555 1_555
N4 O1 1_555 1_555
O1 Ag1 1_555 1_555
O2 Ag1 1_555 1_555
C1 H1 1_555 1_555
C2 C1 1_555 1_555
H2 C2 1_555 1_555
C3 C2 1_555 1_555
H3 C3 1_555 1_555
C4 C3 1_555 1_555
H4 C4 1_555 1_555
C5 N1 1_555 1_555
C6 C5 1_555 1_555
H5 C6 1_555 1_555
C7 C6 1_555 1_555
H6 C7 1_555 1_555
C8 C7 1_555 1_555
C9 C8 1_555 1_555
H7 C9 1_555 1_555
C10 C9 1_555 1_555
H8 C10 1_555 1_555
C11 C10 1_555 1_555
H9 C11 1_555 1_555
C12 N2 1_555 1_555
H10 C12 1_555 1_555
C13 N3 1_555 1_555
H11 C13 1_555 1_555
C14 C13 1_555 1_555
H12 C14 1_555 1_555
C15 C14 1_555 1_555
H13 C15 1_555 1_555
C16 C15 1_555 1_555
H14 C16 1_555 1_555
C17 N3 1_555 1_555
C18 C17 1_555 1_555
H15 C18 1_555 1_555
C18B C18 1_555 1_555
C17B C18B 1_555 1_555
N3B C17B 1_555 1_555
C13B N3B 1_555 1_555
H11B C13B 1_555 1_555
C14B C13B 1_555 1_555
H12B C14B 1_555 1_555
C15B C14B 1_555 1_555
H13B C15B 1_555 1_555
C16B C17B 1_555 1_555
H14B C16B 1_555 1_555
H15B C18B 1_555 1_555
N1A C1A 1_555 1_555
N2A Ag1 1_555 1_555
C1A H1A 1_555 1_555
C2A C1A 1_555 1_555
H2A C2A 1_555 1_555
C3A C2A 1_555 1_555
H3A C3A 1_555 1_555
C4A C3A 1_555 1_555
H4A C4A 1_555 1_555
C5A N1A 1_555 1_555
C6A C5A 1_555 1_555
H5A C6A 1_555 1_555
C7A C6A 1_555 1_555
H6A C7A 1_555 1_555
C8A N2A 1_555 1_555
C9A C8A 1_555 1_555
H7A C9A 1_555 1_555
C10A C9A 1_555 1_555
H8A C10A 1_555 1_555
C11A C10A 1_555 1_555
H9A C11A 1_555 1_555
C12A N2A 1_555 1_555
H10A C12A 1_555 1_555
Ag1A N1A 1_555 1_555
N4A O1A 1_555 1_555
O1A Ag1A 1_555 1_555
O2A Ag1A 1_555 1_555
Ag1A_2 N2 1_555 1_555
Ag1B N3B 1_555 1_555
N2_2 Ag1A 1_555 1_555
N3A Ag1A 1_555 1_555
N4 O2 1_555 1_555
C4 C5 1_555 1_555
C11 C12 1_555 1_555
C16 C17 1_555 1_555
C15B C16B 1_555 1_555
C4A C5A 1_555 1_555
C7A C8A 1_555 1_555
C11A C12A 1_555 1_555
N4A O2A 1_555 1_555

#END
