
#######################################################################
#
#                 Cambridge Crystallographic Data Centre
#                                CCDC 
#
#######################################################################
#
# If this CIF has been generated from an entry in the Cambridge 
# Structural Database, then it will include bibliographic, chemical, 
# crystal, experimental, refinement or atomic coordinate data resulting 
# from the CCDC's data processing and validation procedures.
#
#######################################################################

data_OHEQAT
_symmetry_cell_setting           triclinic
_symmetry_space_group_name_H-M   'P -1'
_symmetry_Int_Tables_number      2
_space_group_name_Hall           '-P 1'
loop_
_symmetry_equiv_pos_site_id
_symmetry_equiv_pos_as_xyz
1 x,y,z
2 -x,-y,-z
_cell_length_a                   10.554(7)
_cell_length_b                   12.210(8)
_cell_length_c                   14.290(5)
_cell_angle_alpha                82.97(1)
_cell_angle_beta                 80.82(1)
_cell_angle_gamma                89.79(1)
_cell_volume                     1803.98
loop_
_atom_site_label
_atom_site_type_symbol
_atom_site_fract_x
_atom_site_fract_y
_atom_site_fract_z
Ag1 Ag 0.45512(5) 0.82829(5) 0.26536(4)
Ag2 Ag 0.44149(5) 0.86838(4) 0.48644(4)
Ag3 Ag 0.76657(5) 1.02135(5) 0.36236(4)
Ag4 Ag 0.77246(5) 0.92119(5) 0.15091(4)
S1 S 0.50267(13) 1.08864(12) 0.28287(11)
S2 S 0.71249(14) 0.76163(13) 0.37130(12)
O1 O 0.4187(4) 1.0124(4) 0.2469(3)
O2 O 0.4920(5) 1.0577(4) 0.3877(3)
O3 O 0.6369(4) 1.0772(4) 0.2370(4)
O4 O 0.4614(5) 1.2023(4) 0.2631(3)
O5 O 0.6671(4) 0.8588(4) 0.4205(4)
O6 O 0.8170(4) 0.7983(4) 0.2940(3)
O7 O 0.6040(5) 0.7191(4) 0.3325(4)
O8 O 0.7556(5) 0.6781(4) 0.4397(4)
N1 N 0.3345(5) 0.7000(4) 0.2109(4)
N2 N -0.0594(5) 1.0383(4) 0.1208(4)
N3 N 0.2844(4) 0.7671(4) 0.4513(3)
N4 N -0.0726(4) 1.1370(4) 0.3532(3)
N5 N 0.6471(5) 0.8134(4) 0.0888(4)
C1 C 0.3667(7) 0.5935(6) 0.2226(5)
H1 H 0.4398 0.5743 0.2531
C2 C 0.2996(8) 0.5112(6) 0.1916(6)
H2 H 0.3252 0.4358 0.2022
C3 C 0.1956(8) 0.5382(7) 0.1480(7)
H3 H 0.1485 0.4829 0.1249
C4 C 0.1610(7) 0.6478(6) 0.1362(6)
H4 H 0.0888 0.6690 0.1052
C5 C 0.2300(6) 0.7281(5) 0.1679(5)
C6 C 0.1997(6) 0.8440(6) 0.1581(5)
H5 H 0.2677 0.8945 0.1618
C7 C 0.0877(6) 0.8894(5) 0.1440(4)
H6 H 0.0191 0.8394 0.1403
C8 C 0.0615(6) 1.0094(5) 0.1324(4)
C9 C 0.1556(6) 1.0887(6) 0.1331(5)
H7 H 0.2407 1.0671 0.1423
C10 C 0.1249(7) 1.1998(6) 0.1179(5)
H8 H 0.1882 1.2557 0.1189
C11 C 0.0042(8) 1.2292(6) 0.1026(5)
H9 H -0.0177 1.3053 0.0896
C12 C -0.0865(7) 1.1469(6) 0.1059(5)
H10 H -0.1724 1.1668 0.0974
C13 C 0.2966(6) 0.6559(5) 0.4672(5)
H11 H 0.3744 0.6275 0.4869
C14 C 0.2029(6) 0.5818(5) 0.4552(5)
H12 H 0.2130 0.5037 0.4702
C15 C 0.0946(6) 0.6229(5) 0.4228(5)
H13 H 0.0289 0.5738 0.4121
C16 C 0.0791(5) 0.7363(5) 0.4052(4)
H14 H 0.0035 0.7661 0.3829
C17 C 0.1765(5) 0.8082(5) 0.4204(4)
C18 C 0.1649(5) 0.9292(5) 0.4069(4)
H15 H 0.2382 0.9730 0.4121
C19 C 0.0595(5) 0.9821(5) 0.3882(4)
H16 H -0.0140 0.9371 0.3859
C20 C 0.0441(5) 1.1027(5) 0.3715(4)
C21 C 0.1403(6) 1.1783(5) 0.3772(5)
H17 H 0.2212 1.1525 0.3929
C22 C 0.1190(7) 1.2907(6) 0.3596(5)
H18 H 0.1838 1.3439 0.3639
C23 C 0.0015(7) 1.3250(6) 0.3372(5)
H19 H -0.0152 1.4019 0.3222
C24 C -0.0924(6) 1.2466(5) 0.3355(4)
H20 H -0.1747 1.2708 0.3213
C25 C 0.6730(6) 0.7052(5) 0.0973(5)
H21 H 0.7313 0.6778 0.1395
C26 C 0.6192(7) 0.6311(6) 0.0466(5)
H22 H 0.6408 0.5544 0.0527
C27 C 0.5340(7) 0.6716(6) -0.0130(5)
H23 H 0.4933 0.6233 -0.0478
C28 C 0.5062(6) 0.7834(6) -0.0207(5)
H24 H 0.4484 0.8133 -0.0623
C29 C 0.5624(5) 0.8536(5) 0.0308(4)
C30 C 0.5381(5) 0.9717(5) 0.0267(4)
H25 H 0.5811 1.0126 0.0660
C30A C 0.4619(5) 1.0283(5) -0.0267(4)
C29A C 0.4376(5) 1.1464(5) -0.0308(4)
N5A N 0.3529(5) 1.1866(4) -0.0888(4)
C25A C 0.3270(6) 1.2948(5) -0.0973(5)
H21A H 0.2687 1.3222 -0.1395
C26A C 0.3808(7) 1.3689(6) -0.0466(5)
H22A H 0.3592 1.4456 -0.0527
C27A C 0.4660(7) 1.3284(6) 0.0130(5)
H23A H 0.5067 1.3767 0.0478
C28A C 0.4938(6) 1.2166(6) 0.0207(5)
H24A H 0.5516 1.1867 0.0623
H25A H 0.4189 0.9874 -0.0660
Ag2A Ag 0.55851(5) 1.13162(4) 0.51356(4)
Ag4_2 Ag -0.22754(5) 0.92119(5) 0.15091(4)
S1A S 0.49733(13) 0.91136(12) 0.71713(11)
O1A O 0.5813(4) 0.9876(4) 0.7531(3)
O2A O 0.5080(5) 0.9423(4) 0.6123(3)
O3A O 0.3631(4) 0.9228(4) 0.7630(4)
O4A O 0.5386(5) 0.7977(4) 0.7369(3)
N3_2 N 1.2844(4) 0.7671(4) 0.4513(3)
N4_2 N 0.9274(4) 1.1370(4) 0.3532(3)
C13_2 C 1.2966(6) 0.6559(5) 0.4672(5)
H11_2 H 1.3744 0.6275 0.4869
C14_2 C 1.2029(6) 0.5818(5) 0.4552(5)
H12_2 H 1.2130 0.5037 0.4702
C15_2 C 1.0946(6) 0.6229(5) 0.4228(5)
H13_2 H 1.0289 0.5738 0.4121
C16_2 C 1.0791(5) 0.7363(5) 0.4052(4)
H14_2 H 1.0035 0.7661 0.3829
C17_2 C 1.1765(5) 0.8082(5) 0.4204(4)
C18_2 C 1.1649(5) 0.9292(5) 0.4069(4)
H15_2 H 1.2382 0.9730 0.4121
C19_2 C 1.0595(5) 0.9821(5) 0.3882(4)
H16_2 H 0.9860 0.9371 0.3859
C20_2 C 1.0441(5) 1.1027(5) 0.3715(4)
C21_2 C 1.1403(6) 1.1783(5) 0.3772(5)
H17_2 H 1.2212 1.1525 0.3929
C22_2 C 1.1190(7) 1.2907(6) 0.3596(5)
H18_2 H 1.1838 1.3439 0.3639
C23_2 C 1.0015(7) 1.3250(6) 0.3372(5)
H19_2 H 0.9848 1.4019 0.3222
C24_2 C 0.9076(6) 1.2466(5) 0.3355(4)
H20_2 H 0.8253 1.2708 0.3213
N1_2 N 1.3345(5) 0.7000(4) 0.2109(4)
N2_2 N 0.9406(5) 1.0383(4) 0.1208(4)
C1_2 C 1.3667(7) 0.5935(6) 0.2226(5)
H1_2 H 1.4398 0.5743 0.2531
C2_2 C 1.2996(8) 0.5112(6) 0.1916(6)
H2_2 H 1.3252 0.4358 0.2022
C3_2 C 1.1956(8) 0.5382(7) 0.1480(7)
H3_2 H 1.1485 0.4829 0.1249
C4_2 C 1.1610(7) 0.6478(6) 0.1362(6)
H4_2 H 1.0888 0.6690 0.1052
C5_2 C 1.2300(6) 0.7281(5) 0.1679(5)
C6_2 C 1.1997(6) 0.8440(6) 0.1581(5)
H5_2 H 1.2677 0.8945 0.1618
C7_2 C 1.0877(6) 0.8894(5) 0.1440(4)
H6_2 H 1.0191 0.8394 0.1403
C8_2 C 1.0615(6) 1.0094(5) 0.1324(4)
C9_2 C 1.1556(6) 1.0887(6) 0.1331(5)
H7_2 H 1.2407 1.0671 0.1423
C10_2 C 1.1249(7) 1.1998(6) 0.1179(5)
H8_2 H 1.1882 1.2557 0.1189
C11_2 C 1.0042(8) 1.2292(6) 0.1026(5)
H9_2 H 0.9823 1.3053 0.0896
C12_2 C 0.9135(7) 1.1469(6) 0.1059(5)
H10_2 H 0.8276 1.1668 0.0974
S2A S 0.28751(14) 1.23837(13) 0.62870(12)
O5A O 0.3329(4) 1.1412(4) 0.5795(4)
O6A O 0.1830(4) 1.2017(4) 0.7060(3)
O7A O 0.3960(5) 1.2809(4) 0.6675(4)
O8A O 0.2444(5) 1.3219(4) 0.5603(4)
Ag1A Ag 0.54488(5) 1.17171(5) 0.73464(4)
Ag3A Ag 0.23343(5) 0.97865(5) 0.63764(4)
Ag3_2 Ag -0.23343(5) 1.02135(5) 0.36236(4)
Ag4A Ag 0.22754(5) 1.07881(5) -0.15091(4)
N3A N 0.7156(4) 1.2329(4) 0.5487(3)
O6_2 O -0.1830(4) 0.7983(4) 0.2940(3)
N5_2 N -0.3529(5) 0.8134(4) 0.0888(4)
Ag2_2 Ag 1.44149(5) 0.86838(4) 0.48644(4)
Ag1_2 Ag 1.45512(5) 0.82829(5) 0.26536(4)
Ag4A_2 Ag 0.22754(5) 1.07881(5) 0.84909(4)
N1A N 0.6655(5) 1.3000(4) 0.7891(4)
N4A N 0.0726(4) 0.8630(4) 0.6468(3)
O9 O 0.6740(6) 1.3608(5) 0.1658(5)
H26 H 0.6812 1.2893 0.1633
H27 H 0.7549 1.3874 0.1580
O10 O 0.4453(6) 1.3464(5) 0.4003(4)
H28 H 0.4405 1.2840 0.3733
H29 H 0.3823 1.3443 0.4659
O11 O 0.3599(7) 1.5138(5) 0.6793(5)
H30 H 0.2886 1.5613 0.7005
H31 H 0.3156 1.4487 0.6619
O12 O -0.1152(10) 0.5710(10) 0.2540(9)
O13 O -0.0994(11) 0.4979(12) 0.0729(9)
loop_
_geom_bond_atom_site_label_1
_geom_bond_atom_site_label_2
_geom_bond_site_symmetry_1
_geom_bond_site_symmetry_2
Ag1 O1 1_555 1_555
Ag2 O2 1_555 1_555
Ag3 O3 1_555 1_555
Ag4 O6 1_555 1_555
S1 O1 1_555 1_555
S2 O5 1_555 1_555
O2 S1 1_555 1_555
O3 S1 1_555 1_555
O4 S1 1_555 1_555
O5 Ag2 1_555 1_555
O6 S2 1_555 1_555
O7 Ag1 1_555 1_555
O8 S2 1_555 1_555
N1 Ag1 1_555 1_555
N2 C8 1_555 1_555
N3 Ag2 1_555 1_555
N4 C20 1_555 1_555
N5 Ag4 1_555 1_555
C1 N1 1_555 1_555
H1 C1 1_555 1_555
C2 C1 1_555 1_555
H2 C2 1_555 1_555
C3 C2 1_555 1_555
H3 C3 1_555 1_555
C4 C3 1_555 1_555
H4 C4 1_555 1_555
C5 N1 1_555 1_555
C6 C5 1_555 1_555
H5 C6 1_555 1_555
C7 C6 1_555 1_555
H6 C7 1_555 1_555
C8 C7 1_555 1_555
C9 C8 1_555 1_555
H7 C9 1_555 1_555
C10 C9 1_555 1_555
H8 C10 1_555 1_555
C11 C10 1_555 1_555
H9 C11 1_555 1_555
C12 N2 1_555 1_555
H10 C12 1_555 1_555
C13 N3 1_555 1_555
H11 C13 1_555 1_555
C14 C13 1_555 1_555
H12 C14 1_555 1_555
C15 C14 1_555 1_555
H13 C15 1_555 1_555
C16 C15 1_555 1_555
H14 C16 1_555 1_555
C17 N3 1_555 1_555
C18 C17 1_555 1_555
H15 C18 1_555 1_555
C19 C18 1_555 1_555
H16 C19 1_555 1_555
C20 C19 1_555 1_555
C21 C20 1_555 1_555
H17 C21 1_555 1_555
C22 C21 1_555 1_555
H18 C22 1_555 1_555
C23 C22 1_555 1_555
H19 C23 1_555 1_555
C24 N4 1_555 1_555
H20 C24 1_555 1_555
C25 N5 1_555 1_555
H21 C25 1_555 1_555
C26 C25 1_555 1_555
H22 C26 1_555 1_555
C27 C26 1_555 1_555
H23 C27 1_555 1_555
C28 C27 1_555 1_555
H24 C28 1_555 1_555
C29 N5 1_555 1_555
C30 C29 1_555 1_555
H25 C30 1_555 1_555
O9 H26 1_555 1_555
H27 O9 1_555 1_555
O10 H28 1_555 1_555
H29 O10 1_555 1_555
O11 H30 1_555 1_555
H31 O11 1_555 1_555
C30A C30 1_555 1_555
C29A C30A 1_555 1_555
N5A C29A 1_555 1_555
C25A N5A 1_555 1_555
H21A C25A 1_555 1_555
C26A C25A 1_555 1_555
H22A C26A 1_555 1_555
C27A C26A 1_555 1_555
H23A C27A 1_555 1_555
C28A C29A 1_555 1_555
H24A C28A 1_555 1_555
H25A C30A 1_555 1_555
Ag2A O2 1_555 1_555
Ag4_2 N2 1_555 1_555
S1A O1A 1_555 1_555
O1A Ag1A 1_555 1_555
O2A Ag2 1_555 1_555
O3A S1A 1_555 1_555
O4A S1A 1_555 1_555
N3_2 C13_2 1_555 1_555
N4_2 Ag3 1_555 1_555
C13_2 H11_2 1_555 1_555
C14_2 C13_2 1_555 1_555
H12_2 C14_2 1_555 1_555
C15_2 C14_2 1_555 1_555
H13_2 C15_2 1_555 1_555
C16_2 C15_2 1_555 1_555
H14_2 C16_2 1_555 1_555
C17_2 N3_2 1_555 1_555
C18_2 C17_2 1_555 1_555
H15_2 C18_2 1_555 1_555
C19_2 C18_2 1_555 1_555
H16_2 C19_2 1_555 1_555
C20_2 N4_2 1_555 1_555
C21_2 C20_2 1_555 1_555
H17_2 C21_2 1_555 1_555
C22_2 C21_2 1_555 1_555
H18_2 C22_2 1_555 1_555
C23_2 C22_2 1_555 1_555
H19_2 C23_2 1_555 1_555
C24_2 N4_2 1_555 1_555
H20_2 C24_2 1_555 1_555
N1_2 C1_2 1_555 1_555
N2_2 Ag4 1_555 1_555
C1_2 H1_2 1_555 1_555
C2_2 C1_2 1_555 1_555
H2_2 C2_2 1_555 1_555
C3_2 C2_2 1_555 1_555
H3_2 C3_2 1_555 1_555
C4_2 C3_2 1_555 1_555
H4_2 C4_2 1_555 1_555
C5_2 N1_2 1_555 1_555
C6_2 C5_2 1_555 1_555
H5_2 C6_2 1_555 1_555
C7_2 C6_2 1_555 1_555
H6_2 C7_2 1_555 1_555
C8_2 N2_2 1_555 1_555
C9_2 C8_2 1_555 1_555
H7_2 C9_2 1_555 1_555
C10_2 C9_2 1_555 1_555
H8_2 C10_2 1_555 1_555
C11_2 C10_2 1_555 1_555
H9_2 C11_2 1_555 1_555
C12_2 N2_2 1_555 1_555
H10_2 C12_2 1_555 1_555
S2A O5A 1_555 1_555
O5A Ag2A 1_555 1_555
O6A S2A 1_555 1_555
O7A S2A 1_555 1_555
O8A S2A 1_555 1_555
Ag1A O7A 1_555 1_555
Ag3A O3A 1_555 1_555
Ag3_2 N4 1_555 1_555
Ag4A N5A 1_555 1_555
N3A Ag2A 1_555 1_555
O6_2 Ag4_2 1_555 1_555
N5_2 Ag4_2 1_555 1_555
Ag2_2 N3_2 1_555 1_555
Ag1_2 N1_2 1_555 1_555
Ag4A_2 O6A 1_555 1_555
N1A Ag1A 1_555 1_555
N4A Ag3A 1_555 1_555
Ag3 O5 1_555 1_555
S2 O7 1_555 1_555
C4 C5 1_555 1_555
C11 C12 1_555 1_555
C16 C17 1_555 1_555
C23 C24 1_555 1_555
C28 C29 1_555 1_555
C27A C28A 1_555 1_555
Ag2A O2A 1_555 1_555
S1A O2A 1_555 1_555
C16_2 C17_2 1_555 1_555
C19_2 C20_2 1_555 1_555
C23_2 C24_2 1_555 1_555
C4_2 C5_2 1_555 1_555
C7_2 C8_2 1_555 1_555
C11_2 C12_2 1_555 1_555
O5A Ag3A 1_555 1_555

#END
