
#######################################################################
#
#                 Cambridge Crystallographic Data Centre
#                                CCDC 
#
#######################################################################
#
# If this CIF has been generated from an entry in the Cambridge 
# Structural Database, then it will include bibliographic, chemical, 
# crystal, experimental, refinement or atomic coordinate data resulting 
# from the CCDC's data processing and validation procedures.
#
#######################################################################

data_OHESUQ
_symmetry_cell_setting           monoclinic
_symmetry_space_group_name_H-M   'P 21/c'
_symmetry_Int_Tables_number      14
_space_group_name_Hall           '-P 2ybc'
loop_
_symmetry_equiv_pos_site_id
_symmetry_equiv_pos_as_xyz
1 x,y,z
2 -x,1/2+y,1/2-z
3 -x,-y,-z
4 x,1/2-y,1/2+z
_cell_length_a                   11.649(11)
_cell_length_b                   21.52(2)
_cell_length_c                   8.848(8)
_cell_angle_alpha                90
_cell_angle_beta                 109.956(14)
_cell_angle_gamma                90
_cell_volume                     2084.89
loop_
_atom_site_label
_atom_site_type_symbol
_atom_site_fract_x
_atom_site_fract_y
_atom_site_fract_z
Cd1 Cd 0.23610(2) 0.409246(10) 0.72093(3)
N1 N 0.3605(2) 0.35421(11) 0.9459(3)
N2 N 0.5278(2) 0.34748(12) 1.1949(3)
N3 N 0.4548(3) 0.44173(12) 1.0828(4)
H1 H 0.4055 0.4642 1.0083
H2 H 0.5092 0.4591 1.1632
N4 N 0.1865(2) 0.30387(12) 0.6894(3)
N5 N 0.7822(3) 0.18866(16) 1.5737(4)
O1 O 0.3752(2) 0.39124(10) 0.5778(3)
O2 O 0.3735(2) 0.48302(11) 0.6782(3)
O3 O 0.0655(2) 0.42144(12) 0.8354(3)
O4 O 0.2079(2) 0.49221(12) 0.8732(3)
O5 O 0.1042(2) 0.43820(14) 0.4742(3)
H3 H 0.0305 0.4288 0.4269
H4 H 0.1169 0.4719 0.4340
C1 C 0.4469(3) 0.37991(15) 1.0738(4)
C2 C 0.5207(3) 0.28598(14) 1.1843(4)
C3 C 0.4332(3) 0.25544(14) 1.0589(4)
H9 H 0.4281 0.2123 1.0550
C4 C 0.3540(3) 0.29203(13) 0.9401(4)
C5 C 0.2568(3) 0.26363(14) 0.7983(4)
C6 C 0.2391(3) 0.20019(15) 0.7831(4)
H10 H 0.2880 0.1734 0.8611
C7 C 0.1483(3) 0.17735(17) 0.6512(4)
H11 H 0.1360 0.1347 0.6376
C8 C 0.0760(3) 0.21769(17) 0.5396(4)
H12 H 0.0136 0.2030 0.4499
C9 C 0.0972(3) 0.28031(16) 0.5624(4)
H13 H 0.0475 0.3076 0.4865
C10 C 0.7770(3) 0.25055(19) 1.5665(5)
H14 H 0.8323 0.2729 1.6496
C11 C 0.6948(3) 0.28308(17) 1.4438(4)
H15 H 0.6947 0.3263 1.4451
C12 C 0.6121(3) 0.25106(15) 1.3183(4)
C13 C 0.6172(3) 0.18734(16) 1.3238(4)
H16 H 0.5635 0.1639 1.2416
C14 C 0.7026(4) 0.15847(18) 1.4521(5)
H17 H 0.7045 0.1153 1.4537
C15 C 0.4115(3) 0.44608(15) 0.5977(4)
C16 C 0.5039(4) 0.46684(16) 0.5242(5)
H18 H 0.5849 0.4591 0.6008
H19 H 0.4945 0.4414 0.4302
C17 C 0.0587(3) 0.51133(18) 0.9939(5)
H20 H 0.1181 0.5143 1.1016
H21 H 0.0459 0.5529 0.9490
C18 C 0.1128(3) 0.47185(17) 0.8934(4)
Cd1B Cd 0.76390(2) 0.590754(10) 0.27907(3)
Cd1B_2 Cd -0.23610(2) 0.590754(10) 1.27907(3)
N1B N 0.6395(2) 0.64579(11) 0.0541(3)
N2B N 0.4722(2) 0.65252(12) -0.1949(3)
N3B N 0.5452(3) 0.55827(12) -0.0828(4)
H1B H 0.5945 0.5358 -0.0083
H2B H 0.4908 0.5409 -0.1632
N4B N 0.8135(2) 0.69613(12) 0.3106(3)
N5B N 0.2178(3) 0.81134(16) -0.5737(4)
O1B O 0.6248(2) 0.60876(10) 0.4222(3)
O2B O 0.6265(2) 0.51698(11) 0.3218(3)
O3B O -0.0655(2) 0.57856(12) 1.1646(3)
O3B_2 O 0.9345(2) 0.57856(12) 0.1646(3)
O4B O -0.2079(2) 0.50779(12) 1.1268(3)
O4B_2 O 0.7921(2) 0.50779(12) 0.1268(3)
O5B O 0.8958(2) 0.56180(14) 0.5258(3)
H3B H 0.9695 0.5712 0.5731
H4B H 0.8831 0.5281 0.5660
C1B C 0.5531(3) 0.62009(15) -0.0738(4)
C2B C 0.4793(3) 0.71402(14) -0.1843(4)
C3B C 0.5668(3) 0.74456(14) -0.0589(4)
H9B H 0.5719 0.7877 -0.0550
C4B C 0.6460(3) 0.70797(13) 0.0599(4)
C5B C 0.7432(3) 0.73637(14) 0.2017(4)
C6B C 0.7609(3) 0.79981(15) 0.2169(4)
H10B H 0.7120 0.8266 0.1389
C7B C 0.8517(3) 0.82265(17) 0.3488(4)
H11B H 0.8640 0.8653 0.3624
C8B C 0.9240(3) 0.78231(17) 0.4604(4)
H12B H 0.9864 0.7970 0.5501
C9B C 0.9028(3) 0.71969(16) 0.4376(4)
H13B H 0.9525 0.6924 0.5135
C10B C 0.2230(3) 0.74945(19) -0.5665(5)
H14B H 0.1677 0.7271 -0.6496
C11B C 0.3052(3) 0.71692(17) -0.4438(4)
H15B H 0.3053 0.6737 -0.4451
C12B C 0.3879(3) 0.74894(15) -0.3183(4)
C13B C 0.3828(3) 0.81266(16) -0.3238(4)
H16B H 0.4365 0.8361 -0.2416
C14B C 0.2974(4) 0.84153(18) -0.4521(5)
H17B H 0.2955 0.8847 -0.4537
C15B C 0.5885(3) 0.55392(15) 0.4023(4)
C16B C 0.4961(4) 0.53316(16) 0.4758(5)
H18B H 0.4151 0.5409 0.3992
H19B H 0.5055 0.5586 0.5698
C17B C -0.0587(3) 0.48867(18) 1.0061(5)
H20B H -0.1181 0.4857 0.8984
H21B H -0.0459 0.4471 1.0510
C18B C -0.1128(3) 0.52815(17) 1.1066(4)
O6 O 0.8651(3) 0.40184(11) 0.3229(3)
H5 H 0.8327 0.4321 0.2636
H6 H 0.8631 0.3711 0.2644
O7 O 0.1694(3) 0.55583(16) 0.3882(4)
H7 H 0.1205 0.5799 0.3171
H8 H 0.1737 0.5728 0.4774
loop_
_geom_bond_atom_site_label_1
_geom_bond_atom_site_label_2
_geom_bond_site_symmetry_1
_geom_bond_site_symmetry_2
Cd1 N1 1_555 1_555
N1 C1 1_555 1_555
N2 C1 1_555 1_555
N3 H1 1_555 1_555
H2 N3 1_555 1_555
N4 Cd1 1_555 1_555
N5 C10 1_555 1_555
O1 Cd1 1_555 1_555
O2 Cd1 1_555 1_555
O3 Cd1 1_555 1_555
O4 Cd1 1_555 1_555
O5 Cd1 1_555 1_555
H3 O5 1_555 1_555
H4 O5 1_555 1_555
O6 H5 1_555 1_555
H6 O6 1_555 1_555
O7 H7 1_555 1_555
H8 O7 1_555 1_555
C1 N3 1_555 1_555
C2 N2 1_555 1_555
C3 C2 1_555 1_555
H9 C3 1_555 1_555
C4 N1 1_555 1_555
C5 N4 1_555 1_555
C6 C5 1_555 1_555
H10 C6 1_555 1_555
C7 C6 1_555 1_555
H11 C7 1_555 1_555
C8 C7 1_555 1_555
H12 C8 1_555 1_555
C9 N4 1_555 1_555
H13 C9 1_555 1_555
C10 H14 1_555 1_555
C11 C10 1_555 1_555
H15 C11 1_555 1_555
C12 C2 1_555 1_555
C13 C12 1_555 1_555
H16 C13 1_555 1_555
C14 N5 1_555 1_555
H17 C14 1_555 1_555
C15 O1 1_555 1_555
C16 C15 1_555 1_555
H18 C16 1_555 1_555
H19 C16 1_555 1_555
C17 H20 1_555 1_555
H21 C17 1_555 1_555
C18 O3 1_555 1_555
Cd1B N1B 1_555 1_555
Cd1B_2 O3B 1_555 1_555
N1B C1B 1_555 1_555
N2B C1B 1_555 1_555
N3B H1B 1_555 1_555
H2B N3B 1_555 1_555
N4B Cd1B 1_555 1_555
N5B C10B 1_555 1_555
O1B Cd1B 1_555 1_555
O2B Cd1B 1_555 1_555
O3B C18B 1_555 1_555
O3B_2 Cd1B 1_555 1_555
O4B Cd1B_2 1_555 1_555
O4B_2 Cd1B 1_555 1_555
O5B Cd1B 1_555 1_555
H3B O5B 1_555 1_555
H4B O5B 1_555 1_555
C1B N3B 1_555 1_555
C2B N2B 1_555 1_555
C3B C2B 1_555 1_555
H9B C3B 1_555 1_555
C4B N1B 1_555 1_555
C5B N4B 1_555 1_555
C6B C5B 1_555 1_555
H10B C6B 1_555 1_555
C7B C6B 1_555 1_555
H11B C7B 1_555 1_555
C8B C7B 1_555 1_555
H12B C8B 1_555 1_555
C9B N4B 1_555 1_555
H13B C9B 1_555 1_555
C10B H14B 1_555 1_555
C11B C10B 1_555 1_555
H15B C11B 1_555 1_555
C12B C2B 1_555 1_555
C13B C12B 1_555 1_555
H16B C13B 1_555 1_555
C14B N5B 1_555 1_555
H17B C14B 1_555 1_555
C15B O1B 1_555 1_555
C16B C16 1_555 1_555
H18B C16B 1_555 1_555
H19B C16B 1_555 1_555
C17B C17 1_555 1_555
H20B C17B 1_555 1_555
H21B C17B 1_555 1_555
C18B O4B 1_555 1_555
O2 C15 1_555 1_555
O4 C18 1_555 1_555
C3 C4 1_555 1_555
C4 C5 1_555 1_555
C8 C9 1_555 1_555
C11 C12 1_555 1_555
C13 C14 1_555 1_555
C17 C18 1_555 1_555
O2B C15B 1_555 1_555
C3B C4B 1_555 1_555
C4B C5B 1_555 1_555
C8B C9B 1_555 1_555
C11B C12B 1_555 1_555
C13B C14B 1_555 1_555
C15B C16B 1_555 1_555
C17B C18B 1_555 1_555

#END
