
#######################################################################
#
#                 Cambridge Crystallographic Data Centre
#                                CCDC 
#
#######################################################################
#
# If this CIF has been generated from an entry in the Cambridge 
# Structural Database, then it will include bibliographic, chemical, 
# crystal, experimental, refinement or atomic coordinate data resulting 
# from the CCDC's data processing and validation procedures.
#
#######################################################################

data_OHESOL
_symmetry_cell_setting           monoclinic
_symmetry_space_group_name_H-M   'P 21/c'
_symmetry_Int_Tables_number      14
_space_group_name_Hall           '-P 2ybc'
loop_
_symmetry_equiv_pos_site_id
_symmetry_equiv_pos_as_xyz
1 x,y,z
2 -x,1/2+y,1/2-z
3 -x,-y,-z
4 x,1/2-y,1/2+z
_cell_length_a                   16.3173(4)
_cell_length_b                   8.9259(2)
_cell_length_c                   17.9051(5)
_cell_angle_alpha                90
_cell_angle_beta                 94.7200(10)
_cell_angle_gamma                90
_cell_volume                     2598.97
loop_
_atom_site_label
_atom_site_type_symbol
_atom_site_fract_x
_atom_site_fract_y
_atom_site_fract_z
Cd1 Cd 0.0000 0.0000 0.0000
Cd2 Cd -0.246179(17) 0.00191(4) 0.003337(19)
Cd3 Cd -0.5000 0.0000 0.0000
N1 N 0.0088(2) 0.1483(4) 0.10687(19)
N2 N -0.49337(19) -0.2327(4) 0.05464(19)
O1 O -0.11738(17) -0.1059(3) 0.03903(19)
O2 O -0.22109(19) -0.2574(4) 0.0290(2)
O3 O 0.0890(2) -0.1639(4) 0.06324(19)
O4 O 0.2100(2) -0.2309(4) 0.0258(2)
O5 O -0.2770(2) -0.0445(5) -0.1275(2)
O6 O -0.37746(16) -0.0408(3) -0.05562(16)
O7 O -0.2801(2) 0.0498(5) 0.11690(19)
O8 O -0.41324(18) 0.0968(4) 0.09569(17)
C1 C -0.0590(2) 0.2034(5) 0.1341(2)
H1 H -0.1096 0.1815 0.1087
C2 C -0.0581(3) 0.2912(5) 0.1978(2)
C3 C 0.0178(3) 0.3219(5) 0.2344(2)
H2 H 0.0209 0.3812 0.2772
C4 C 0.0892(3) 0.2660(5) 0.2085(2)
C5 C 0.0812(2) 0.1799(5) 0.1447(2)
H3 H 0.1287 0.1413 0.1267
C6 C -0.1372(3) 0.3514(7) 0.2237(3)
H4 H -0.1480 0.4486 0.2022
H5 H -0.1324 0.3592 0.2774
H6 H -0.1815 0.2848 0.2081
C7 C 0.1731(3) 0.2973(7) 0.2469(3)
H7 H 0.1856 0.2242 0.2855
H8 H 0.1737 0.3955 0.2687
H9 H 0.2135 0.2920 0.2109
C8 C -0.1468(3) -0.2367(5) 0.0427(2)
C9 C -0.0907(3) -0.3642(6) 0.0640(3)
H10 H -0.1220 -0.4551 0.0651
H11 H -0.0633 -0.3459 0.1127
H12 H -0.0506 -0.3736 0.0280
C10 C 0.1480(3) -0.2521(5) 0.0604(3)
C11 C 0.1447(4) -0.3944(6) 0.1045(4)
H13 H 0.1561 -0.4780 0.0733
H14 H 0.0909 -0.4057 0.1219
H15 H 0.1849 -0.3906 0.1467
C12 C -0.3511(3) -0.0508(5) -0.1201(3)
C13 C -0.4119(3) -0.0671(8) -0.1869(3)
H16 H -0.4268 0.0303 -0.2063
H17 H -0.4601 -0.1175 -0.1724
H18 H -0.3878 -0.1245 -0.2248
C14 C -0.3492(3) 0.0809(5) 0.1371(2)
C15 C -0.3542(3) 0.1038(8) 0.2201(3)
H19 H -0.2997 0.1107 0.2444
H20 H -0.3824 0.0206 0.2403
H21 H -0.3837 0.1946 0.2283
C16 C -0.5620(2) -0.3136(5) 0.0603(2)
H22 H -0.6124 -0.2692 0.0460
C17 C -0.5614(2) -0.4596(4) 0.0861(2)
C18 C -0.4855(2) -0.5231(5) 0.1063(2)
H23 H -0.4826 -0.6218 0.1229
C19 C -0.4140(2) -0.4419(5) 0.1020(2)
C20 C -0.4211(2) -0.2967(4) 0.0760(2)
H24 H -0.3734 -0.2407 0.0732
C21 C -0.6403(3) -0.5440(5) 0.0899(3)
H25 H -0.6442 -0.6203 0.0520
H26 H -0.6858 -0.4762 0.0818
H27 H -0.6413 -0.5897 0.1383
C22 C -0.3301(3) -0.5093(6) 0.1217(3)
H28 H -0.2885 -0.4383 0.1110
H29 H -0.3242 -0.5983 0.0926
H30 H -0.3244 -0.5341 0.1740
Cd2B Cd -0.753821(17) -0.00191(4) -0.003337(19)
N2B N -0.50663(19) 0.2327(4) -0.05464(19)
O1B O -0.88262(17) 0.1059(3) -0.03903(19)
O2B O -0.77891(19) 0.2574(4) -0.0290(2)
O5B O -0.7230(2) 0.0445(5) 0.1275(2)
O6B O -0.62254(16) 0.0408(3) 0.05562(16)
O7B O -0.7199(2) -0.0498(5) -0.11690(19)
O8B O -0.58676(18) -0.0968(4) -0.09569(17)
C8B C -0.8532(3) 0.2367(5) -0.0427(2)
C9B C -0.9093(3) 0.3642(6) -0.0640(3)
H10B H -0.8780 0.4551 -0.0651
H11B H -0.9367 0.3459 -0.1127
H12B H -0.9494 0.3736 -0.0280
C12B C -0.6489(3) 0.0508(5) 0.1201(3)
C13B C -0.5881(3) 0.0671(8) 0.1869(3)
H16B H -0.5732 -0.0303 0.2063
H17B H -0.5399 0.1175 0.1724
H18B H -0.6122 0.1245 0.2248
C14B C -0.6508(3) -0.0809(5) -0.1371(2)
C15B C -0.6458(3) -0.1038(8) -0.2201(3)
H19B H -0.7003 -0.1107 -0.2444
H20B H -0.6176 -0.0206 -0.2403
H21B H -0.6163 -0.1946 -0.2283
C16B C -0.4380(2) 0.3136(5) -0.0603(2)
H22B H -0.3876 0.2692 -0.0460
C17B C -0.4386(2) 0.4596(4) -0.0861(2)
C18B C -0.5145(2) 0.5231(5) -0.1063(2)
H23B H -0.5174 0.6218 -0.1229
C19B C -0.5860(2) 0.4419(5) -0.1020(2)
C20B C -0.5789(2) 0.2967(4) -0.0760(2)
H24B H -0.6266 0.2407 -0.0732
C21B C -0.3597(3) 0.5440(5) -0.0899(3)
H25B H -0.3558 0.6203 -0.0520
H26B H -0.3142 0.4762 -0.0818
H27B H -0.3587 0.5897 -0.1383
C22B C -0.6699(3) 0.5093(6) -0.1217(3)
H28B H -0.7115 0.4383 -0.1110
H29B H -0.6758 0.5983 -0.0926
H30B H -0.6756 0.5341 -0.1740
N1B N -0.0088(2) -0.1483(4) -0.10687(19)
C1B C 0.0590(2) -0.2034(5) -0.1341(2)
H1B H 0.1096 -0.1815 -0.1087
C2B C 0.0581(3) -0.2912(5) -0.1978(2)
C3B C -0.0178(3) -0.3219(5) -0.2344(2)
H2B H -0.0209 -0.3812 -0.2772
C4B C -0.0892(3) -0.2660(5) -0.2085(2)
C5B C -0.0812(2) -0.1799(5) -0.1447(2)
H3B H -0.1287 -0.1413 -0.1267
C6B C 0.1372(3) -0.3514(7) -0.2237(3)
H4B H 0.1480 -0.4486 -0.2022
H5B H 0.1324 -0.3592 -0.2774
H6B H 0.1815 -0.2848 -0.2081
C7B C -0.1731(3) -0.2973(7) -0.2469(3)
H7B H -0.1856 -0.2242 -0.2855
H8B H -0.1737 -0.3955 -0.2687
H9B H -0.2135 -0.2920 -0.2109
O3B O -0.0890(2) 0.1639(4) -0.06324(19)
O4B O -0.2100(2) 0.2309(4) -0.0258(2)
C10B C -0.1480(3) 0.2521(5) -0.0604(3)
C11B C -0.1447(4) 0.3944(6) -0.1045(4)
H13B H -0.1561 0.4780 -0.0733
H14B H -0.0909 0.4057 -0.1219
H15B H -0.1849 0.3906 -0.1467
Cd1_2 Cd -1.0000 0.0000 0.0000
Cd2B_2 Cd 0.246179(17) -0.00191(4) -0.003337(19)
O1B_2 O 0.11738(17) 0.1059(3) -0.03903(19)
O4_2 O -0.7900(2) -0.2309(4) 0.0258(2)
loop_
_geom_bond_atom_site_label_1
_geom_bond_atom_site_label_2
_geom_bond_site_symmetry_1
_geom_bond_site_symmetry_2
Cd1 N1 1_555 1_555
Cd2 O1 1_555 1_555
Cd3 N2 1_555 1_555
N1 C1 1_555 1_555
N2 C16 1_555 1_555
O1 Cd1 1_555 1_555
O2 Cd2 1_555 1_555
O3 Cd1 1_555 1_555
O4 C10 1_555 1_555
O5 Cd2 1_555 1_555
O6 Cd2 1_555 1_555
O7 Cd2 1_555 1_555
O8 Cd3 1_555 1_555
C1 H1 1_555 1_555
C2 C1 1_555 1_555
C3 C2 1_555 1_555
H2 C3 1_555 1_555
C4 C3 1_555 1_555
C5 N1 1_555 1_555
H3 C5 1_555 1_555
C6 C2 1_555 1_555
H4 C6 1_555 1_555
H5 C6 1_555 1_555
H6 C6 1_555 1_555
C7 C4 1_555 1_555
H7 C7 1_555 1_555
H8 C7 1_555 1_555
H9 C7 1_555 1_555
C8 O1 1_555 1_555
C9 C8 1_555 1_555
H10 C9 1_555 1_555
H11 C9 1_555 1_555
H12 C9 1_555 1_555
C10 O3 1_555 1_555
C11 C10 1_555 1_555
H13 C11 1_555 1_555
H14 C11 1_555 1_555
H15 C11 1_555 1_555
C12 O5 1_555 1_555
C13 C12 1_555 1_555
H16 C13 1_555 1_555
H17 C13 1_555 1_555
H18 C13 1_555 1_555
C14 O7 1_555 1_555
C15 C14 1_555 1_555
H19 C15 1_555 1_555
H20 C15 1_555 1_555
H21 C15 1_555 1_555
C16 H22 1_555 1_555
C17 C16 1_555 1_555
C18 C17 1_555 1_555
H23 C18 1_555 1_555
C19 C18 1_555 1_555
C20 N2 1_555 1_555
H24 C20 1_555 1_555
C21 C17 1_555 1_555
H25 C21 1_555 1_555
H26 C21 1_555 1_555
H27 C21 1_555 1_555
C22 C19 1_555 1_555
H28 C22 1_555 1_555
H29 C22 1_555 1_555
H30 C22 1_555 1_555
Cd2B O1B 1_555 1_555
N2B Cd3 1_555 1_555
O1B C8B 1_555 1_555
O2B Cd2B 1_555 1_555
O5B Cd2B 1_555 1_555
O6B Cd3 1_555 1_555
O7B Cd2B 1_555 1_555
O8B Cd3 1_555 1_555
C8B O2B 1_555 1_555
C9B C8B 1_555 1_555
H10B C9B 1_555 1_555
H11B C9B 1_555 1_555
H12B C9B 1_555 1_555
C12B O5B 1_555 1_555
C13B C12B 1_555 1_555
H16B C13B 1_555 1_555
H17B C13B 1_555 1_555
H18B C13B 1_555 1_555
C14B O7B 1_555 1_555
C15B C14B 1_555 1_555
H19B C15B 1_555 1_555
H20B C15B 1_555 1_555
H21B C15B 1_555 1_555
C16B N2B 1_555 1_555
H22B C16B 1_555 1_555
C17B C16B 1_555 1_555
C18B C17B 1_555 1_555
H23B C18B 1_555 1_555
C19B C18B 1_555 1_555
C20B N2B 1_555 1_555
H24B C20B 1_555 1_555
C21B C17B 1_555 1_555
H25B C21B 1_555 1_555
H26B C21B 1_555 1_555
H27B C21B 1_555 1_555
C22B C19B 1_555 1_555
H28B C22B 1_555 1_555
H29B C22B 1_555 1_555
H30B C22B 1_555 1_555
N1B Cd1 1_555 1_555
C1B N1B 1_555 1_555
H1B C1B 1_555 1_555
C2B C1B 1_555 1_555
C3B C2B 1_555 1_555
H2B C3B 1_555 1_555
C4B C3B 1_555 1_555
C5B N1B 1_555 1_555
H3B C5B 1_555 1_555
C6B C2B 1_555 1_555
H4B C6B 1_555 1_555
H5B C6B 1_555 1_555
H6B C6B 1_555 1_555
C7B C4B 1_555 1_555
H7B C7B 1_555 1_555
H8B C7B 1_555 1_555
H9B C7B 1_555 1_555
O3B Cd1 1_555 1_555
O4B Cd2 1_555 1_555
C10B O3B 1_555 1_555
C11B C10B 1_555 1_555
H13B C11B 1_555 1_555
H14B C11B 1_555 1_555
H15B C11B 1_555 1_555
Cd1_2 O1B 1_555 1_555
Cd2B_2 O4 1_555 1_555
O1B_2 Cd1 1_555 1_555
O4_2 Cd2B 1_555 1_555
Cd3 O6 1_555 1_555
O2 C8 1_555 1_555
O6 C12 1_555 1_555
O8 C14 1_555 1_555
C4 C5 1_555 1_555
C19 C20 1_555 1_555
Cd2B O6B 1_555 1_555
O6B C12B 1_555 1_555
O8B C14B 1_555 1_555
C19B C20B 1_555 1_555
C4B C5B 1_555 1_555
O4B C10B 1_555 1_555
Cd2B_2 O1B_2 1_555 1_555

#END
