
#######################################################################
#
#                 Cambridge Crystallographic Data Centre
#                                CCDC 
#
#######################################################################
#
# If this CIF has been generated from an entry in the Cambridge 
# Structural Database, then it will include bibliographic, chemical, 
# crystal, experimental, refinement or atomic coordinate data resulting 
# from the CCDC's data processing and validation procedures.
#
#######################################################################

data_OHESUR
_symmetry_cell_setting           monoclinic
_symmetry_space_group_name_H-M   'P n'
_symmetry_Int_Tables_number      7
_space_group_name_Hall           'P -2yac'
loop_
_symmetry_equiv_pos_site_id
_symmetry_equiv_pos_as_xyz
1 x,y,z
2 1/2+x,-y,1/2+z
_cell_length_a                   10.361(3)
_cell_length_b                   8.500(5)
_cell_length_c                   18.499(4)
_cell_angle_alpha                90
_cell_angle_beta                 91.255(5)
_cell_angle_gamma                90
_cell_volume                     1628.79
loop_
_atom_site_label
_atom_site_type_symbol
_atom_site_fract_x
_atom_site_fract_y
_atom_site_fract_z
Cd1 Cd 0.49934(4) 1.09863(5) 0.72169(2)
Cd2 Cd 0.71085(4) 0.78166(5) 0.71310(2)
Cd3 Cd 0.63982(3) 0.44926(5) 0.82161(2)
N1 N 0.3280(5) 1.0673(7) 0.6429(3)
N2 N 0.6884(5) 0.4358(6) 0.9454(3)
O1 O 0.2894(6) 1.1747(9) 0.8015(3)
O2 O 0.4807(4) 1.2650(5) 0.8163(2)
O3 O 0.7902(4) 1.2699(5) 0.7999(3)
O4 O 0.7173(4) 1.0463(5) 0.7530(2)
O5 O 0.5838(4) 0.9151(6) 0.6227(2)
O6 O 0.7842(5) 0.8641(7) 0.5997(3)
O7 O 0.5113(4) 0.8435(5) 0.7690(2)
O8 O 0.4957(4) 0.6402(6) 0.8440(2)
O9 O 0.6330(4) 0.5212(5) 0.6995(2)
O10 O 0.5805(5) 0.2934(5) 0.6489(2)
O11 O 0.7952(4) 0.6486(5) 0.8127(2)
O12 O 0.9362(5) 0.6942(6) 0.7295(3)
C1 C 0.3382(7) 1.1105(9) 0.5770(4)
H1 H 0.4101 1.1697 0.5649
C2 C 0.2472(7) 1.0738(8) 0.5214(3)
C3 C 0.1415(6) 0.9937(8) 0.5398(4)
C4 C 0.1266(6) 0.9502(9) 0.6105(4)
H2 H 0.0536 0.8950 0.6241
C5 C 0.2194(6) 0.9881(9) 0.6607(3)
H3 H 0.2081 0.9590 0.7086
C6 C 0.2767(9) 1.1235(12) 0.4453(4)
H4 H 0.2918 1.0319 0.4163
H5 H 0.3522 1.1890 0.4458
H6 H 0.2048 1.1812 0.4252
C7 C 0.0375(9) 0.9560(12) 0.4834(5)
H7 H -0.0165 1.0465 0.4759
H8 H -0.0139 0.8697 0.4999
H9 H 0.0771 0.9278 0.4388
C8 C 0.3633(6) 1.2573(8) 0.8346(3)
C9 C 0.3189(7) 1.3504(9) 0.8968(4)
H10 H 0.3357 1.4599 0.8884
H11 H 0.3643 1.3169 0.9399
H12 H 0.2279 1.3348 0.9024
C10 C 0.8063(6) 1.1332(8) 0.7749(3)
C11 C 0.9420(7) 1.0743(11) 0.7712(6)
H13 H 0.9617 1.0114 0.8131
H14 H 1.0002 1.1620 0.7696
H15 H 0.9511 1.0115 0.7285
C12 C 0.6804(7) 0.9214(8) 0.5833(3)
C13 C 0.6621(9) 1.0064(13) 0.5113(4)
H16 H 0.7410 1.0025 0.4851
H17 H 0.6391 1.1141 0.5199
H18 H 0.5945 0.9561 0.4834
C14 C 0.4540(5) 0.7650(7) 0.8174(3)
C15 C 0.3273(7) 0.8176(10) 0.8451(4)
H19 H 0.2593 0.7818 0.8131
H20 H 0.3257 0.9304 0.8476
H21 H 0.3152 0.7746 0.8925
C16 C 0.6250(6) 0.4274(7) 0.6465(3)
C17 C 0.6663(9) 0.4846(11) 0.5746(4)
H22 H 0.6135 0.4369 0.5374
H23 H 0.7550 0.4569 0.5677
H24 H 0.6570 0.5969 0.5723
C18 C 0.9097(6) 0.6370(8) 0.7876(4)
C19 C 1.0077(7) 0.5517(11) 0.8335(4)
H25 H 1.0716 0.5057 0.8031
H26 H 0.9659 0.4703 0.8602
H27 H 1.0486 0.6243 0.8665
C20 C 0.6173(7) 0.5156(8) 0.9927(3)
H28 H 0.5459 0.5711 0.9751
C21 C 0.6444(7) 0.5200(8) 1.0662(3)
C22 C 0.7478(7) 0.4387(8) 1.0930(3)
C23 C 0.8230(7) 0.3541(9) 1.0437(4)
H29 H 0.8959 0.2988 1.0593
C24 C 0.7858(7) 0.3552(9) 0.9715(3)
H30 H 0.8332 0.2949 0.9396
C25 C 0.5590(8) 0.6095(9) 1.1153(4)
H31 H 0.5220 0.5387 1.1496
H32 H 0.4914 0.6593 1.0874
H33 H 0.6088 0.6882 1.1406
C26 C 0.7873(9) 0.4355(11) 1.1729(4)
H34 H 0.8000 0.5411 1.1900
H35 H 0.8662 0.3773 1.1790
H36 H 0.7206 0.3859 1.2000
Cd1_2 Cd 0.49934(4) 0.09863(5) 0.72169(2)
Cd3_2 Cd 0.63982(3) 1.44926(5) 0.82161(2)
O2_2 O 0.4807(4) 0.2650(5) 0.8163(2)
O3_2 O 0.7902(4) 0.2699(5) 0.7999(3)
O10_2 O 0.5805(5) 1.2934(5) 0.6489(2)
loop_
_geom_bond_atom_site_label_1
_geom_bond_atom_site_label_2
_geom_bond_site_symmetry_1
_geom_bond_site_symmetry_2
Cd1 N1 1_555 1_555
Cd2 O4 1_555 1_555
Cd3 N2 1_555 1_555
N1 C1 1_555 1_555
N2 C20 1_555 1_555
O1 Cd1 1_555 1_555
O2 Cd1 1_555 1_555
O3 C10 1_555 1_555
O4 Cd1 1_555 1_555
O5 Cd1 1_555 1_555
O6 Cd2 1_555 1_555
O7 Cd1 1_555 1_555
O8 Cd3 1_555 1_555
O9 Cd2 1_555 1_555
O10 C16 1_555 1_555
O11 Cd2 1_555 1_555
O12 Cd2 1_555 1_555
C1 H1 1_555 1_555
C2 C1 1_555 1_555
C3 C2 1_555 1_555
C4 C3 1_555 1_555
H2 C4 1_555 1_555
C5 N1 1_555 1_555
H3 C5 1_555 1_555
C6 C2 1_555 1_555
H4 C6 1_555 1_555
H5 C6 1_555 1_555
H6 C6 1_555 1_555
C7 C3 1_555 1_555
H7 C7 1_555 1_555
H8 C7 1_555 1_555
H9 C7 1_555 1_555
C8 O1 1_555 1_555
C9 C8 1_555 1_555
H10 C9 1_555 1_555
H11 C9 1_555 1_555
H12 C9 1_555 1_555
C10 O4 1_555 1_555
C11 C10 1_555 1_555
H13 C11 1_555 1_555
H14 C11 1_555 1_555
H15 C11 1_555 1_555
C12 O5 1_555 1_555
C13 C12 1_555 1_555
H16 C13 1_555 1_555
H17 C13 1_555 1_555
H18 C13 1_555 1_555
C14 O7 1_555 1_555
C15 C14 1_555 1_555
H19 C15 1_555 1_555
H20 C15 1_555 1_555
H21 C15 1_555 1_555
C16 O9 1_555 1_555
C17 C16 1_555 1_555
H22 C17 1_555 1_555
H23 C17 1_555 1_555
H24 C17 1_555 1_555
C18 O11 1_555 1_555
C19 C18 1_555 1_555
H25 C19 1_555 1_555
H26 C19 1_555 1_555
H27 C19 1_555 1_555
C20 H28 1_555 1_555
C21 C20 1_555 1_555
C22 C21 1_555 1_555
C23 C22 1_555 1_555
H29 C23 1_555 1_555
C24 N2 1_555 1_555
H30 C24 1_555 1_555
C25 C21 1_555 1_555
H31 C25 1_555 1_555
H32 C25 1_555 1_555
H33 C25 1_555 1_555
C26 C22 1_555 1_555
H34 C26 1_555 1_555
H35 C26 1_555 1_555
H36 C26 1_555 1_555
Cd1_2 O10 1_555 1_555
Cd3_2 O2 1_555 1_555
O2_2 Cd3 1_555 1_555
O3_2 Cd3 1_555 1_555
O10_2 Cd1 1_555 1_555
Cd2 O5 1_555 1_555
Cd2 O7 1_555 1_555
Cd3 O9 1_555 1_555
Cd3 O11 1_555 1_555
O2 C8 1_555 1_555
O3 Cd3_2 1_555 1_555
O6 C12 1_555 1_555
O8 C14 1_555 1_555
O12 C18 1_555 1_555
C4 C5 1_555 1_555
C23 C24 1_555 1_555
Cd1_2 O2_2 1_555 1_555

#END
