
#######################################################################
#
#                 Cambridge Crystallographic Data Centre
#                                CCDC 
#
#######################################################################
#
# If this CIF has been generated from an entry in the Cambridge 
# Structural Database, then it will include bibliographic, chemical, 
# crystal, experimental, refinement or atomic coordinate data resulting 
# from the CCDC's data processing and validation procedures.
#
#######################################################################

data_OHETAX
_symmetry_cell_setting           monoclinic
_symmetry_space_group_name_H-M   'P 21/c'
_symmetry_Int_Tables_number      14
_space_group_name_Hall           '-P 2ybc'
loop_
_symmetry_equiv_pos_site_id
_symmetry_equiv_pos_as_xyz
1 x,y,z
2 -x,1/2+y,1/2-z
3 -x,-y,-z
4 x,1/2-y,1/2+z
_cell_length_a                   10.073(3)
_cell_length_b                   9.332(3)
_cell_length_c                   22.377(7)
_cell_angle_alpha                90
_cell_angle_beta                 93.215(4)
_cell_angle_gamma                90
_cell_volume                     2100.16
loop_
_atom_site_label
_atom_site_type_symbol
_atom_site_fract_x
_atom_site_fract_y
_atom_site_fract_z
Co1 Co 0.85828(3) 0.53451(4) 0.336160(16)
N1 N 0.8224(2) 0.6612(2) 0.41215(9)
N2 N 0.6939(2) 0.8127(2) 0.47324(10)
N3 N 0.5961(2) 0.6892(3) 0.39462(10)
H1 H 0.5212 0.7256 0.4036
H2 H 0.5994 0.6317 0.3647
N4 N 1.0445(2) 0.5294(2) 0.38509(9)
N5 N 0.6652(2) 1.1444(3) 0.59538(11)
O1 O 0.8740(2) 0.3030(2) 0.28988(10)
O2 O 0.7957(2) 0.3495(2) 0.37613(9)
O3 O 0.32215(17) 0.0543(2) 0.21156(8)
O4 O 0.2824(2) 0.2070(2) 0.28499(10)
O5 O 0.9365(2) 0.6711(3) 0.27619(9)
H3 H 0.8761 0.6963 0.2502
H4 H 1.0100 0.6946 0.2620
C1 C 0.7067(3) 0.7220(3) 0.42710(12)
C2 C 0.8033(3) 0.8442(3) 0.50670(12)
C3 C 0.9253(3) 0.7799(3) 0.49658(12)
H5 H 1.0007 0.7996 0.5211
C4 C 0.9304(3) 0.6869(3) 0.44933(11)
C5 C 1.0528(2) 0.6060(3) 0.43611(12)
C6 C 1.1660(3) 0.6058(3) 0.47403(12)
H6 H 1.1690 0.6575 0.5096
C7 C 1.2747(3) 0.5270(3) 0.45798(14)
H7 H 1.3526 0.5266 0.4824
C8 C 1.2670(3) 0.4497(3) 0.40592(14)
H8 H 1.3395 0.3966 0.3944
C9 C 1.1502(3) 0.4517(3) 0.37088(13)
H9 H 1.1445 0.3972 0.3360
C10 C 0.6830(3) 1.0453(3) 0.55378(12)
H10 H 0.6203 1.0394 0.5218
C11 C 0.7893(3) 0.9501(3) 0.55514(11)
C12 C 0.8792(3) 0.9582(4) 0.60393(13)
H11 H 0.9501 0.8944 0.6077
C13 C 0.8635(3) 1.0610(4) 0.64688(13)
H12 H 0.9244 1.0692 0.6795
C14 C 0.7570(3) 1.1506(3) 0.64079(13)
H13 H 0.7476 1.2202 0.6700
C15 C 0.8130(3) 0.2631(3) 0.33419(14)
C16 C 0.7627(3) 0.1110(3) 0.34064(14)
H14 H 0.8349 0.0562 0.3610
C17 C 0.7304(3) 0.0371(4) 0.28080(16)
H15 H 0.8025 0.0537 0.2547
H16 H 0.7239 -0.0654 0.2873
C18 C 0.6450(3) 0.1044(3) 0.38035(13)
H17 H 0.6309 0.0059 0.3923
H18 H 0.6649 0.1603 0.4163
C19 C 0.3538(3) 0.1180(3) 0.26073(12)
C20 C 0.4863(3) 0.0774(3) 0.29117(12)
H19 H 0.4803 -0.0238 0.3024
C21 C 0.6010(3) 0.0904(4) 0.25014(13)
H20 H 0.6111 0.1899 0.2386
H21 H 0.5811 0.0350 0.2141
C22 C 0.5195(3) 0.1610(3) 0.34863(12)
H22 H 0.5310 0.2615 0.3391
H23 H 0.4463 0.1532 0.3749
Co1A Co 0.14172(3) 0.03451(4) 0.163840(16)
O3A O 0.67785(17) 0.5543(2) 0.28844(8)
loop_
_geom_bond_atom_site_label_1
_geom_bond_atom_site_label_2
_geom_bond_site_symmetry_1
_geom_bond_site_symmetry_2
Co1 N1 1_555 1_555
N1 C1 1_555 1_555
N2 C1 1_555 1_555
N3 H1 1_555 1_555
H2 N3 1_555 1_555
N4 Co1 1_555 1_555
N5 C10 1_555 1_555
O1 Co1 1_555 1_555
O2 Co1 1_555 1_555
O3 C19 1_555 1_555
O4 C19 1_555 1_555
O5 Co1 1_555 1_555
H3 O5 1_555 1_555
H4 O5 1_555 1_555
C1 N3 1_555 1_555
C2 N2 1_555 1_555
C3 C2 1_555 1_555
H5 C3 1_555 1_555
C4 N1 1_555 1_555
C5 N4 1_555 1_555
C6 C5 1_555 1_555
H6 C6 1_555 1_555
C7 C6 1_555 1_555
H7 C7 1_555 1_555
C8 C7 1_555 1_555
H8 C8 1_555 1_555
C9 N4 1_555 1_555
H9 C9 1_555 1_555
C10 H10 1_555 1_555
C11 C2 1_555 1_555
C12 C11 1_555 1_555
H11 C12 1_555 1_555
C13 C12 1_555 1_555
H12 C13 1_555 1_555
C14 N5 1_555 1_555
H13 C14 1_555 1_555
C15 O1 1_555 1_555
C16 C15 1_555 1_555
H14 C16 1_555 1_555
C17 C16 1_555 1_555
H15 C17 1_555 1_555
H16 C17 1_555 1_555
C18 C16 1_555 1_555
H17 C18 1_555 1_555
H18 C18 1_555 1_555
C19 C20 1_555 1_555
C20 H19 1_555 1_555
C21 C17 1_555 1_555
H20 C21 1_555 1_555
H21 C21 1_555 1_555
C22 C18 1_555 1_555
H22 C22 1_555 1_555
H23 C22 1_555 1_555
Co1A O3 1_555 1_555
O3A Co1 1_555 1_555
O2 C15 1_555 1_555
C3 C4 1_555 1_555
C4 C5 1_555 1_555
C8 C9 1_555 1_555
C10 C11 1_555 1_555
C13 C14 1_555 1_555
C20 C21 1_555 1_555
C20 C22 1_555 1_555

#END
