
#######################################################################
#
#                 Cambridge Crystallographic Data Centre
#                                CCDC 
#
#######################################################################
#
# If this CIF has been generated from an entry in the Cambridge 
# Structural Database, then it will include bibliographic, chemical, 
# crystal, experimental, refinement or atomic coordinate data resulting 
# from the CCDC's data processing and validation procedures.
#
#######################################################################

data_OHETOK
_symmetry_cell_setting           monoclinic
_symmetry_space_group_name_H-M   'P 21/n'
_symmetry_Int_Tables_number      14
_space_group_name_Hall           '-P 2yn'
loop_
_symmetry_equiv_pos_site_id
_symmetry_equiv_pos_as_xyz
1 x,y,z
2 1/2+x,1/2-y,1/2+z
3 -x,-y,-z
4 1/2-x,1/2+y,1/2-z
_cell_length_a                   8.864(3)
_cell_length_b                   14.398(5)
_cell_length_c                   14.701(5)
_cell_angle_alpha                90
_cell_angle_beta                 92.83(3)
_cell_angle_gamma                90
_cell_volume                     1873.91
loop_
_atom_site_label
_atom_site_type_symbol
_atom_site_fract_x
_atom_site_fract_y
_atom_site_fract_z
Mn1 Mn 0.19732(7) 0.25611(5) 0.94486(4)
C1 C 0.2237(6) 0.4241(3) 1.0151(3)
O1 O 0.1138(4) 0.3745(3) 1.0346(2)
O2 O 0.3236(4) 0.3922(3) 0.9649(2)
C2 C 0.2365(8) 0.5224(4) 1.0500(4)
H1 H 0.1466(20) 0.5562(8) 1.0318(23)
H2 H 0.3225(27) 0.5518(9) 1.0252(22)
H3 H 0.2484(45) 0.5217(4) 1.1153(5)
N1 N 0.3081(5) 0.1859(3) 1.0652(3)
C3 C 0.3659(5) 0.1535(3) 1.1293(3)
N2 N 0.4236(5) 0.1072(3) 1.1979(3)
C4 C 0.5048(5) 0.1485(3) 1.2618(3)
N3 N 0.5770(5) 0.1775(3) 1.3220(3)
N4 N -0.0272(4) 0.1849(3) 0.9822(2)
C5 C -0.1093(6) 0.2159(4) 1.0502(4)
H4 H -0.0789(6) 0.2701(4) 1.0804(4)
C6 C -0.2365(7) 0.1711(5) 1.0772(4)
H5 H -0.2905(7) 0.1942(5) 1.1249(4)
C7 C -0.2822(7) 0.0919(5) 1.0327(5)
H6 H -0.3682(7) 0.0606(5) 1.0496(5)
C8 C -0.2002(6) 0.0588(4) 0.9628(5)
H7 H -0.2297(6) 0.0048(4) 0.9321(5)
C9 C -0.0727(6) 0.1072(3) 0.9386(3)
C10 C 0.0236(6) 0.0782(3) 0.8632(3)
N5 N 0.1552(4) 0.1217(3) 0.8608(2)
C11 C -0.0186(7) 0.0111(4) 0.7994(5)
H8 H -0.1117(7) -0.0184(4) 0.8016(5)
C12 C 0.0782(8) -0.0112(5) 0.7333(5)
H9 H 0.0512(8) -0.0559(5) 0.6898(5)
C13 C 0.2142(7) 0.0323(4) 0.7314(4)
H10 H 0.2815(7) 0.0170(4) 0.6872(4)
C14 C 0.2517(6) 0.0998(3) 0.7961(3)
C15 C 0.3964(5) 0.1513(3) 0.8010(3)
C16 C 0.5143(6) 0.1316(4) 0.7457(3)
H11 H 0.5041(6) 0.0856(4) 0.7014(3)
C17 C 0.6461(7) 0.1809(4) 0.7570(4)
H12 H 0.7258(7) 0.1693(4) 0.7198(4)
C18 C 0.6600(6) 0.2476(4) 0.8236(4)
H13 H 0.7496(6) 0.2806(4) 0.8331(4)
C19 C 0.5380(5) 0.2648(4) 0.8763(3)
H14 H 0.5467(5) 0.3103(4) 0.9211(3)
N6 N 0.4085(4) 0.2182(3) 0.8650(2)
N3A N 0.0770(5) 0.3225(3) 0.8220(3)
Mn1A Mn 0.69732(7) 0.24389(5) 1.44486(4)
loop_
_geom_bond_atom_site_label_1
_geom_bond_atom_site_label_2
_geom_bond_site_symmetry_1
_geom_bond_site_symmetry_2
Mn1 O1 1_555 1_555
C1 O1 1_555 1_555
O2 Mn1 1_555 1_555
C2 C1 1_555 1_555
H1 C2 1_555 1_555
H2 C2 1_555 1_555
H3 C2 1_555 1_555
N1 Mn1 1_555 1_555
C3 N1 1_555 1_555
N2 C3 1_555 1_555
C4 N2 1_555 1_555
N3 C4 1_555 1_555
N4 Mn1 1_555 1_555
C5 N4 1_555 1_555
H4 C5 1_555 1_555
C6 C5 1_555 1_555
H5 C6 1_555 1_555
C7 C6 1_555 1_555
H6 C7 1_555 1_555
C8 C7 1_555 1_555
H7 C8 1_555 1_555
C9 N4 1_555 1_555
C10 C9 1_555 1_555
N5 Mn1 1_555 1_555
C11 C10 1_555 1_555
H8 C11 1_555 1_555
C12 C11 1_555 1_555
H9 C12 1_555 1_555
C13 C12 1_555 1_555
H10 C13 1_555 1_555
C14 N5 1_555 1_555
C15 C14 1_555 1_555
C16 C15 1_555 1_555
H11 C16 1_555 1_555
C17 C16 1_555 1_555
H12 C17 1_555 1_555
C18 C17 1_555 1_555
H13 C18 1_555 1_555
C19 C18 1_555 1_555
H14 C19 1_555 1_555
N6 Mn1 1_555 1_555
N3A Mn1 1_555 1_555
Mn1A N3 1_555 1_555
C1 O2 1_555 1_555
C8 C9 1_555 1_555
C10 N5 1_555 1_555
C13 C14 1_555 1_555
C15 N6 1_555 1_555
C19 N6 1_555 1_555

#END
