
#######################################################################
#
#                 Cambridge Crystallographic Data Centre
#                                CCDC 
#
#######################################################################
#
# If this CIF has been generated from an entry in the Cambridge 
# Structural Database, then it will include bibliographic, chemical, 
# crystal, experimental, refinement or atomic coordinate data resulting 
# from the CCDC's data processing and validation procedures.
#
#######################################################################

data_OHETIE
_symmetry_cell_setting           trigonal
_symmetry_space_group_name_H-M   'P 32 2 1'
_symmetry_Int_Tables_number      154
_space_group_name_Hall           'P 32 2"'
loop_
_symmetry_equiv_pos_site_id
_symmetry_equiv_pos_as_xyz
1 x,y,z
2 -y,x-y,2/3+z
3 -x+y,-x,1/3+z
4 y,x,-z
5 x-y,-y,1/3-z
6 -x,-x+y,2/3-z
_cell_length_a                   13.1931(7)
_cell_length_b                   13.1931(7)
_cell_length_c                   11.3498(8)
_cell_angle_alpha                90
_cell_angle_beta                 90
_cell_angle_gamma                120
_cell_volume                     1710.85
loop_
_atom_site_label
_atom_site_type_symbol
_atom_site_fract_x
_atom_site_fract_y
_atom_site_fract_z
Cd1 Cd 0.424089(15) 0.0000 0.6667
C1 C 0.2389(2) -0.09738(19) 0.50865(19)
C2 C 0.1459(2) -0.14826(19) 0.4132(2)
H1 H 0.1016 -0.1077 0.4144
H2 H 0.0923 -0.2299 0.4309
C3 C 0.1954(2) -0.1392(2) 0.2901(2)
H3 H 0.2529 -0.0580 0.2746
H4 H 0.1327 -0.1628 0.2333
C4 C 0.2530(2) -0.21391(19) 0.27170(18)
H5 H 0.3184 -0.1890 0.3268
N1 N 0.2966(3) -0.1960(2) 0.15157(17)
H6 H 0.2473 -0.2122 0.0952
C5 C 0.4062(2) -0.1568(3) 0.1242(2)
C6 C 0.4330(3) -0.1416(3) -0.0074(2)
H7 H 0.4083 -0.2172 -0.0430
H8 H 0.3898 -0.1085 -0.0446
N2 N 0.5590(3) -0.0640(3) -0.0270(2)
H9 H 0.5735 -0.0555 -0.1040
H10 H 0.5984 -0.0951 0.0060
H11 H 0.5814 0.0056 0.0052
C7 C 0.1646(2) -0.3438(2) 0.2912(2)
O1 O 0.2206(2) -0.1458(2) 0.60667(17)
O2 O 0.3327(2) -0.00498(18) 0.48721(18)
O3 O 0.4843(3) -0.1329(2) 0.19613(19)
O4 O 0.0892(3) -0.3974(2) 0.21391(17)
O5 O 0.1697(2) -0.3912(2) 0.38511(18)
C1D C 0.33628(28) 0.09738(19) 0.82468(19)
C2D C 0.29416(28) 0.14826(19) 0.9201(2)
H1D H 0.2093 0.1077 0.9189
H2D H 0.3222 0.2299 0.9024
C3D C 0.3346(3) 0.1392(2) 1.0432(2)
H3D H 0.3109 0.0580 1.0587
H4D H 0.2955 0.1628 1.1000
C4D C 0.46691(28) 0.21391(19) 1.06163(18)
H5D H 0.5074 0.1890 1.0065
N1D N 0.4926(4) 0.1960(2) 1.18176(17)
H6D H 0.4595 0.2122 1.2381
C5D C 0.5630(4) 0.1568(3) 1.2091(2)
C6D C 0.5746(4) 0.1416(3) 1.3407(2)
H7D H 0.6255 0.2172 1.3763
H8D H 0.4983 0.1085 1.3779
N2D N 0.6230(4) 0.0640(3) 1.3603(2)
H9D H 0.6290 0.0555 1.4373
H10D H 0.6935 0.0951 1.3273
H11D H 0.5758 -0.0056 1.3281
C7D C 0.5084(3) 0.3438(2) 1.0421(2)
O1D O 0.3664(3) 0.1458(2) 0.72666(17)
O2D O 0.33768(27) 0.00498(18) 0.84612(18)
O3D O 0.6172(4) 0.1329(2) 1.13720(19)
O4D O 0.4866(4) 0.3974(2) 1.11942(17)
O5D O 0.5609(3) 0.3912(2) 0.94822(18)
O4B O 0.5134(4) -0.0892(3) 0.54724(17)
O4C O 0.6026(2) 0.0892(3) 0.78609(17)
O5B O 0.4391(3) -0.1697(2) 0.71844(18)
O5C O 0.6088(2) 0.1697(2) 0.61489(18)
Cd1A Cd 0.0000 -0.575911(15) 0.3334
Cd1B Cd 0.575911(15) 0.575911(15) 1.0000
O6 O 0.8575(4) -0.3240(5) 0.7037(4)
H12 H 0.8608 -0.3814 0.7333
H13 H 0.7993 -0.3257 0.7381
O7 O 1.0308(17) -0.1105(14) 0.696(2)
H14 H 0.9742 -0.1805 0.6999
H15 H 1.0671 -0.0380 0.6793
O8? O 0.9574(14) -0.0797(16) 0.5754(17)
H16? H 0.9209 -0.0430 0.5317
H17? H 0.9517 -0.1341 0.6469
loop_
_geom_bond_atom_site_label_1
_geom_bond_atom_site_label_2
_geom_bond_site_symmetry_1
_geom_bond_site_symmetry_2
Cd1 O1 1_555 1_555
C1 C2 1_555 1_555
C2 H1 1_555 1_555
H2 C2 1_555 1_555
C3 C2 1_555 1_555
H3 C3 1_555 1_555
H4 C3 1_555 1_555
C4 C3 1_555 1_555
H5 C4 1_555 1_555
N1 C4 1_555 1_555
H6 N1 1_555 1_555
C5 N1 1_555 1_555
C6 C5 1_555 1_555
H7 C6 1_555 1_555
H8 C6 1_555 1_555
N2 C6 1_555 1_555
H9 N2 1_555 1_555
H10 N2 1_555 1_555
H11 N2 1_555 1_555
C7 C4 1_555 1_555
O1 C1 1_555 1_555
O2 Cd1 1_555 1_555
O3 C5 1_555 1_555
O4 C7 1_555 1_555
O5 C7 1_555 1_555
O6 H12 1_555 1_555
H13 O6 1_555 1_555
O7 H14 1_555 1_555
H15 O7 1_555 1_555
C1D C2D 1_555 1_555
C2D H1D 1_555 1_555
H2D C2D 1_555 1_555
C3D C2D 1_555 1_555
H3D C3D 1_555 1_555
H4D C3D 1_555 1_555
C4D C3D 1_555 1_555
H5D C4D 1_555 1_555
N1D C4D 1_555 1_555
H6D N1D 1_555 1_555
C5D N1D 1_555 1_555
C6D C5D 1_555 1_555
H7D C6D 1_555 1_555
H8D C6D 1_555 1_555
N2D C6D 1_555 1_555
H9D N2D 1_555 1_555
H10D N2D 1_555 1_555
H11D N2D 1_555 1_555
C7D C4D 1_555 1_555
O1D Cd1 1_555 1_555
O2D Cd1 1_555 1_555
O3D C5D 1_555 1_555
O4D C7D 1_555 1_555
O5D C7D 1_555 1_555
O4B Cd1 1_555 1_555
O4C Cd1 1_555 1_555
O5B Cd1 1_555 1_555
O5C Cd1 1_555 1_555
Cd1A O4 1_555 1_555
Cd1B O4D 1_555 1_555
C1 O2 1_555 1_555
O5 Cd1A 1_555 1_555
C1D O1D 1_555 1_555
C1D O2D 1_555 1_555
O5D Cd1B 1_555 1_555

#END
