
#######################################################################
#
#                 Cambridge Crystallographic Data Centre
#                                CCDC 
#
#######################################################################
#
# If this CIF has been generated from an entry in the Cambridge 
# Structural Database, then it will include bibliographic, chemical, 
# crystal, experimental, refinement or atomic coordinate data resulting 
# from the CCDC's data processing and validation procedures.
#
#######################################################################

data_OHEVAZ
_symmetry_cell_setting           monoclinic
_symmetry_space_group_name_H-M   'C 2/c'
_symmetry_Int_Tables_number      15
_space_group_name_Hall           '-C 2yn'
loop_
_symmetry_equiv_pos_site_id
_symmetry_equiv_pos_as_xyz
1 x,y,z
2 -x,y,1/2-z
3 1/2+x,1/2+y,z
4 1/2-x,1/2+y,1/2-z
5 -x,-y,-z
6 x,-y,1/2+z
7 1/2-x,1/2-y,-z
8 1/2+x,1/2-y,1/2+z
_cell_length_a                   15.442(3)
_cell_length_b                   13.224(3)
_cell_length_c                   23.711(5)
_cell_angle_alpha                90
_cell_angle_beta                 107.445(2)
_cell_angle_gamma                90
_cell_volume                     4619.2
loop_
_atom_site_label
_atom_site_type_symbol
_atom_site_fract_x
_atom_site_fract_y
_atom_site_fract_z
S2 S -0.5049(2) 0.4890(2) 0.70982(15)
S3 S -0.38984(16) 0.51823(13) 0.77323(12)
N3 N -0.3567(5) 0.8602(4) 0.7765(3)
C20 C -0.3312(4) 0.8047(5) 0.8248(3)
H15 H -0.3048 0.8377 0.8604
C21 C -0.3406(3) 0.7026(4) 0.8261(2)
H16 H -0.3212 0.6675 0.8617
C22 C -0.3798(4) 0.6521(4) 0.7736(2)
C23 C -0.4070(4) 0.7071(4) 0.7219(3)
H17 H -0.4314 0.6756 0.6855
C24 C -0.3966(6) 0.8104(5) 0.7260(3)
H18 H -0.4186 0.8482 0.6916
S2A S -0.4951(2) 0.4890(2) 0.79018(15)
S3A S -0.61016(16) 0.51823(13) 0.72677(12)
N3A N -0.6433(5) 0.8602(4) 0.7235(3)
C20A C -0.6688(4) 0.8047(5) 0.6752(3)
H15A H -0.6952 0.8377 0.6396
C21A C -0.6594(3) 0.7026(4) 0.6739(2)
H16A H -0.6788 0.6675 0.6383
C22A C -0.6202(4) 0.6521(4) 0.7264(2)
C23A C -0.5930(4) 0.7071(4) 0.7781(3)
H17A H -0.5686 0.6756 0.8145
C24A C -0.6034(6) 0.8104(5) 0.7740(3)
H18A H -0.5814 0.8482 0.8084
Mn1 Mn -0.36251(3) 0.00712(3) 0.52568(2)
S1 S -0.35675(12) -0.25737(9) 0.27951(5)
O1 O -0.38736(15) -0.13660(17) 0.56081(11)
O2 O -0.53364(17) -0.10428(18) 0.52363(12)
O3 O -0.75700(16) -0.3856(2) 0.51671(14)
O4 O -0.70727(18) -0.5302(2) 0.55802(14)
N1 N -0.37296(19) -0.0780(2) 0.43978(13)
N2 N -0.3711(2) -0.0834(2) 0.11091(13)
C1 C -0.4905(2) -0.2730(2) 0.55310(14)
C2 C -0.5796(2) -0.3066(2) 0.54178(14)
H1 H -0.6277 -0.2616 0.5284
C3 C -0.5964(2) -0.4084(2) 0.55062(15)
C4 C -0.5242(2) -0.4759(3) 0.56931(17)
H2 H -0.5359 -0.5436 0.5748
C5 C -0.4346(2) -0.4440(3) 0.57997(16)
C6 C -0.4190(2) -0.3420(2) 0.57190(15)
H3 H -0.3597 -0.3193 0.5792
C7 C -0.4692(2) -0.1636(2) 0.54535(13)
C8 C -0.6924(2) -0.4444(3) 0.54104(16)
C9 C -0.3563(3) -0.5169(3) 0.6014(2)
H4 H -0.3736 -0.5819 0.5836
H5 H -0.3050 -0.4921 0.5906
H6 H -0.3404 -0.5231 0.6436
C10 C -0.3412(2) -0.1734(3) 0.44218(16)
H7 H -0.3221 -0.2050 0.4789
C11 C -0.3354(3) -0.2271(3) 0.39379(17)
H8 H -0.3130 -0.2929 0.3978
C12 C -0.3638(3) -0.1806(3) 0.33855(16)
C13 C -0.3991(3) -0.0830(3) 0.33504(17)
H9 H -0.4208 -0.0503 0.2988
C14 C -0.4010(2) -0.0361(3) 0.38637(16)
H10 H -0.4234 0.0296 0.3836
C15 C -0.3386(3) -0.0376(3) 0.16338(17)
H11 H -0.3178 0.0285 0.1639
C16 C -0.3338(3) -0.0824(3) 0.21680(18)
H12 H -0.3087 -0.0480 0.2522
C17 C -0.3675(3) -0.1803(3) 0.21655(17)
C18 C -0.4036(3) -0.2266(3) 0.16272(18)
H13 H -0.4279 -0.2913 0.1608
C19 C -0.4036(3) -0.1777(3) 0.11199(17)
H14 H -0.4274 -0.2113 0.0762
Mn1D Mn -0.63749(3) -0.00712(3) 0.47432(2)
Mn1B Mn -0.86251(3) -0.49288(3) 0.52568(2)
Mn1E Mn -0.36251(3) -0.00712(3) 0.02568(2)
O2D O -0.46636(17) 0.10428(18) 0.47637(12)
O3B O -0.25700(16) 0.1144(2) 0.51671(14)
O4B O -0.20727(18) -0.0302(2) 0.55802(14)
N2E N -0.3711(2) 0.0834(2) 0.61091(13)
loop_
_geom_bond_atom_site_label_1
_geom_bond_atom_site_label_2
_geom_bond_site_symmetry_1
_geom_bond_site_symmetry_2
Mn1 O1 1_555 1_555
S1 C12 1_555 1_555
O1 C7 1_555 1_555
O2 C7 1_555 1_555
O3 C8 1_555 1_555
O4 C8 1_555 1_555
N1 Mn1 1_555 1_555
N2 C15 1_555 1_555
C1 C2 1_555 1_555
C2 H1 1_555 1_555
C3 C2 1_555 1_555
C4 C3 1_555 1_555
H2 C4 1_555 1_555
C5 C4 1_555 1_555
C6 C1 1_555 1_555
H3 C6 1_555 1_555
C7 C1 1_555 1_555
C8 C3 1_555 1_555
C9 C5 1_555 1_555
H4 C9 1_555 1_555
H5 C9 1_555 1_555
H6 C9 1_555 1_555
C10 N1 1_555 1_555
H7 C10 1_555 1_555
C11 C10 1_555 1_555
H8 C11 1_555 1_555
C12 C11 1_555 1_555
C13 C12 1_555 1_555
H9 C13 1_555 1_555
C14 N1 1_555 1_555
H10 C14 1_555 1_555
C15 H11 1_555 1_555
C16 C15 1_555 1_555
H12 C16 1_555 1_555
C17 S1 1_555 1_555
C18 C17 1_555 1_555
H13 C18 1_555 1_555
C19 N2 1_555 1_555
H14 C19 1_555 1_555
S2 S3 1_555 1_555
S3 C22 1_555 1_555
N3 C20 1_555 1_555
C20 H15 1_555 1_555
C21 C20 1_555 1_555
H16 C21 1_555 1_555
C22 C21 1_555 1_555
C23 C22 1_555 1_555
H17 C23 1_555 1_555
C24 N3 1_555 1_555
H18 C24 1_555 1_555
Mn1D O2 1_555 1_555
Mn1B O3 1_555 1_555
Mn1E N2 1_555 1_555
O2D Mn1 1_555 1_555
O3B Mn1 1_555 1_555
O4B Mn1 1_555 1_555
N2E Mn1 1_555 1_555
S2A S2 1_555 1_555
S3A S2 1_555 1_555
N3A C20A 1_555 1_555
C20A H15A 1_555 1_555
C21A C20A 1_555 1_555
H16A C21A 1_555 1_555
C22A S3A 1_555 1_555
C23A C22A 1_555 1_555
H17A C23A 1_555 1_555
C24A N3A 1_555 1_555
H18A C24A 1_555 1_555
O4 Mn1B 1_555 1_555
C5 C6 1_555 1_555
C13 C14 1_555 1_555
C16 C17 1_555 1_555
C18 C19 1_555 1_555
S3 S2A 1_555 1_555
C23 C24 1_555 1_555
S2A S3A 1_555 1_555
C21A C22A 1_555 1_555
C23A C24A 1_555 1_555

#END
