
#######################################################################
#
#                 Cambridge Crystallographic Data Centre
#                                CCDC 
#
#######################################################################
#
# If this CIF has been generated from an entry in the Cambridge 
# Structural Database, then it will include bibliographic, chemical, 
# crystal, experimental, refinement or atomic coordinate data resulting 
# from the CCDC's data processing and validation procedures.
#
#######################################################################

data_OHEVAY01
_symmetry_cell_setting           triclinic
_symmetry_space_group_name_H-M   'P -1'
_symmetry_Int_Tables_number      2
_space_group_name_Hall           '-P 1'
loop_
_symmetry_equiv_pos_site_id
_symmetry_equiv_pos_as_xyz
1 x,y,z
2 -x,-y,-z
_cell_length_a                   6.3864(5)
_cell_length_b                   7.4686(5)
_cell_length_c                   9.0317(7)
_cell_angle_alpha                72.962(6)
_cell_angle_beta                 71.112(6)
_cell_angle_gamma                87.684(6)
_cell_volume                     388.997
loop_
_atom_site_label
_atom_site_type_symbol
_atom_site_fract_x
_atom_site_fract_y
_atom_site_fract_z
Mn1 Mn 0.5000 0.0000 1.0000
N1 N 0.4537(2) 0.12041(19) 0.74961(16)
N2 N 0.6322(2) 0.1946(2) 0.62001(19)
C1 C 0.6033(4) 0.2672(4) 0.4770(3)
H1 H 0.7272 0.3190 0.3865
C2 C 0.4004(5) 0.2710(4) 0.4536(3)
H2 H 0.3877 0.3236 0.3502
C3 C 0.2205(4) 0.1965(4) 0.5849(3)
H3 H 0.0794 0.1957 0.5763
C4 C 0.2568(3) 0.1218(3) 0.7322(2)
H4 H 0.1355 0.0692 0.8246
N3 N 0.7345(2) 0.23616(19) 0.9477(2)
N4 N 0.9150(3) 0.5493(2) 0.8309(2)
N5 N 0.7718(2) 0.82864(19) 0.90335(19)
C5 C 0.8109(2) 0.3855(2) 0.89849(19)
C6 C 0.8301(2) 0.69243(19) 0.87651(18)
Mn1_2 Mn 0.5000 1.0000 1.0000
N1A N 0.5463(2) -0.12041(19) 1.25039(16)
N2A N 0.3678(2) -0.1946(2) 1.37999(19)
C1A C 0.3967(4) -0.2672(4) 1.5230(3)
H1A H 0.2728 -0.3190 1.6135
C2A C 0.5996(5) -0.2710(4) 1.5464(3)
H2A H 0.6123 -0.3236 1.6498
C3A C 0.7795(4) -0.1965(4) 1.4151(3)
H3A H 0.9206 -0.1957 1.4237
C4A C 0.7432(3) -0.1218(3) 1.2678(2)
H4A H 0.8645 -0.0692 1.1754
N3A N 0.2655(2) -0.23616(19) 1.0523(2)
N3A_2 N 0.2655(2) 0.76384(19) 1.0523(2)
N4A N 0.0850(3) 0.4507(2) 1.1691(2)
N5_2 N 0.7718(2) -0.17136(19) 0.90335(19)
N5A N 0.2282(2) 0.17136(19) 1.09665(19)
C5A C 0.1891(2) 0.6145(2) 1.10151(19)
C6A C 0.1699(2) 0.30757(19) 1.12349(18)
loop_
_geom_bond_atom_site_label_1
_geom_bond_atom_site_label_2
_geom_bond_site_symmetry_1
_geom_bond_site_symmetry_2
Mn1 N1 1_555 1_555
N1 N2 1_555 1_555
N2 C1 1_555 1_555
C1 H1 1_555 1_555
C2 C1 1_555 1_555
H2 C2 1_555 1_555
C3 C2 1_555 1_555
H3 C3 1_555 1_555
C4 N1 1_555 1_555
H4 C4 1_555 1_555
N3 Mn1 1_555 1_555
N4 C5 1_555 1_555
N5 C6 1_555 1_555
C5 N3 1_555 1_555
C6 N4 1_555 1_555
Mn1_2 N5 1_555 1_555
N1A Mn1 1_555 1_555
N2A N1A 1_555 1_555
C1A N2A 1_555 1_555
H1A C1A 1_555 1_555
C2A C1A 1_555 1_555
H2A C2A 1_555 1_555
C3A C2A 1_555 1_555
H3A C3A 1_555 1_555
C4A N1A 1_555 1_555
H4A C4A 1_555 1_555
N3A Mn1 1_555 1_555
N3A_2 Mn1_2 1_555 1_555
N4A C5A 1_555 1_555
N5_2 Mn1 1_555 1_555
N5A Mn1 1_555 1_555
C5A N3A_2 1_555 1_555
C6A N4A 1_555 1_555
C3 C4 1_555 1_555
C3A C4A 1_555 1_555
N5A C6A 1_555 1_555

#END
