
#######################################################################
#
#                 Cambridge Crystallographic Data Centre
#                                CCDC 
#
#######################################################################
#
# If this CIF has been generated from an entry in the Cambridge 
# Structural Database, then it will include bibliographic, chemical, 
# crystal, experimental, refinement or atomic coordinate data resulting 
# from the CCDC's data processing and validation procedures.
#
#######################################################################

data_OHEYOR
_symmetry_cell_setting           orthorhombic
_symmetry_space_group_name_H-M   'P n a 21'
_symmetry_Int_Tables_number      33
_space_group_name_Hall           'P 2c -2n'
loop_
_symmetry_equiv_pos_site_id
_symmetry_equiv_pos_as_xyz
1 x,y,z
2 1/2-x,1/2+y,1/2+z
3 1/2+x,1/2-y,z
4 -x,-y,1/2+z
_cell_length_a                   26.318(5)
_cell_length_b                   22.685(4)
_cell_length_c                   13.388(3)
_cell_angle_alpha                90
_cell_angle_beta                 90
_cell_angle_gamma                90
_cell_volume                     7992.96
loop_
_atom_site_label
_atom_site_type_symbol
_atom_site_fract_x
_atom_site_fract_y
_atom_site_fract_z
Cu1 Cu 0.50679(2) 0.22660(3) 0.08632(8)
O1 O 0.48725(16) 0.28588(16) -0.0091(2)
C1 C 0.5014(2) 0.34082(18) -0.0114(2)
C2 C 0.51809(19) 0.37202(18) 0.0742(3)
O2 O 0.54386(18) 0.27055(19) 0.2795(3)
C3 C 0.5279(2) 0.43245(19) 0.0689(3)
C4 C 0.5208(2) 0.46425(15) -0.0172(3)
C5 C 0.5073(2) 0.4323(2) -0.1024(4)
C6 C 0.4975(2) 0.3721(2) -0.0999(3)
C7 C 0.5299(3) 0.3433(3) 0.1688(4)
N1 N 0.5286(2) 0.2875(2) 0.1843(3)
C8 C 0.5250(2) 0.53270(16) -0.0150(3)
C9 C 0.5197(4) 0.5566(3) -0.1178(5)
C10 C 0.5749(3) 0.5502(3) 0.0257(7)
C11 C 0.4841(4) 0.5578(3) 0.0492(7)
C12 C 0.4808(3) 0.3399(3) -0.1938(4)
N2 N 0.5126(2) 0.2899(2) -0.2199(4)
C13 C 0.4906(4) 0.2609(3) -0.3076(5)
C14 C 0.5645(3) 0.3052(3) -0.2346(5)
C15 C 0.5974(4) 0.2486(4) -0.2449(7)
C16 C 0.6533(4) 0.2618(4) -0.2443(8)
O3 O 0.51992(16) 0.16916(17) 0.1829(3)
C17 C 0.5348(2) 0.11336(18) 0.1725(2)
C18 C 0.5372(2) 0.08438(18) 0.0793(3)
O4 O 0.4974(2) 0.18262(19) -0.1209(3)
C19 C 0.5556(2) 0.0263(2) 0.0728(3)
C20 C 0.5698(2) -0.00536(17) 0.1557(3)
C21 C 0.5647(2) 0.0230(2) 0.2481(3)
C22 C 0.5481(2) 0.0805(2) 0.2572(3)
C23 C 0.5232(2) 0.1125(3) -0.0151(5)
N3 N 0.5096(2) 0.1675(2) -0.0228(4)
C24 C 0.5897(3) -0.0684(3) 0.1443(5)
C25 C 0.6334(4) -0.0703(4) 0.0711(8)
C26 C 0.5462(4) -0.1074(3) 0.0938(8)
C27 C 0.5989(5) -0.0980(4) 0.2409(6)
C28 C 0.5408(2) 0.1073(3) 0.3600(4)
N4 N 0.5705(2) 0.1612(2) 0.3773(4)
C29 C 0.5553(3) 0.1872(3) 0.4713(5)
C30 C 0.6237(2) 0.1469(3) 0.3784(5)
C31 C 0.6600(3) 0.1979(3) 0.3866(6)
C32 C 0.7136(2) 0.1834(3) 0.3775(5)
Cu2 Cu 0.89269(3) 0.21393(3) 0.02982(8)
O5 O 0.87381(18) 0.16230(17) -0.0753(3)
C33 C 0.8622(2) 0.10636(18) -0.0732(3)
C34 C 0.8649(2) 0.07163(19) 0.0144(3)
O6 O 0.90802(17) 0.15759(18) 0.2258(3)
C35 C 0.8517(3) 0.0115(2) 0.0119(3)
C36 C 0.8345(3) -0.01530(19) -0.0730(4)
C37 C 0.8334(2) 0.0191(2) -0.1593(4)
C38 C 0.8464(2) 0.0789(2) -0.1597(3)
C39 C 0.8814(3) 0.0945(3) 0.1103(4)
N5 N 0.89233(18) 0.1483(2) 0.1267(3)
C40 C 0.8187(4) -0.0808(3) -0.0790(7)
C41 C 0.7639(3) -0.0851(4) -0.1136(8)
C42 C 0.8217(5) -0.1092(4) 0.0298(9)
C43 C 0.8542(3) -0.1128(3) -0.1502(8)
C44 C 0.8506(3) 0.1114(3) -0.2602(5)
N6 N 0.8233(3) 0.1672(3) -0.2651(4)
C45 C 0.8400(4) 0.1966(5) -0.3580(6)
C46 C 0.7694(3) 0.1587(3) -0.2613(6)
C47 C 0.7390(3) 0.2146(4) -0.2513(8)
C48 C 0.6842(3) 0.2058(4) -0.2562(8)
O7 O 0.91567(19) 0.26765(18) 0.1292(3)
C49 C 0.9000(2) 0.32244(19) 0.1431(2)
C50 C 0.8794(2) 0.35779(19) 0.0656(3)
O8 O 0.8567(2) 0.26829(19) -0.1565(3)
C51 C 0.8694(2) 0.41764(19) 0.0817(3)
C52 C 0.8757(3) 0.44365(16) 0.1733(4)
C53 C 0.8919(2) 0.4066(2) 0.2518(3)
C54 C 0.9037(2) 0.3488(2) 0.2386(3)
C55 C 0.8701(3) 0.3341(3) -0.0320(5)
N7 N 0.8719(3) 0.2813(2) -0.0581(4)
C56 C 0.8690(3) 0.5104(3) 0.1902(5)
C57 C 0.8426(6) 0.5392(4) 0.1057(7)
C58 C 0.9217(5) 0.5372(4) 0.2055(14)
C59 C 0.8394(5) 0.5220(4) 0.2823(7)
C60 C 0.9228(2) 0.3115(3) 0.3260(4)
N8 N 0.89369(18) 0.2567(2) 0.3427(3)
C61 C 0.9194(3) 0.2247(3) 0.4226(5)
C62 C 0.8409(2) 0.2702(2) 0.3699(4)
C63 C 0.8054(2) 0.2169(3) 0.3631(5)
C64 C 0.7515(2) 0.2332(3) 0.3851(6)
H1 H 0.5397 0.4522 0.1270
H2 H 0.5044 0.4525 -0.1642
H3 H 0.5393 0.3678 0.2233
H4 H 0.5582 0.0084 0.0089
H5 H 0.5730 0.0017 0.3070
H6 H 0.5239 0.0893 -0.0742
H7 H 0.8553 -0.0113 0.0710
H8 H 0.8235 0.0012 -0.2204
H9 H 0.8843 0.0675 0.1642
H10 H 0.8580 0.4410 0.0273
H11 H 0.8945 0.4229 0.3170
H12 H 0.8614 0.3617 -0.0825
H13 H 0.5223 0.5997 -0.1163
H14 H 0.5468 0.5405 -0.1600
H15 H 0.4866 0.5451 -0.1450
H16 H 0.5775 0.5933 0.0273
H17 H 0.6019 0.5341 -0.0166
H18 H 0.5783 0.5346 0.0936
H19 H 0.4866 0.6009 0.0508
H20 H 0.4876 0.5422 0.1171
H21 H 0.4510 0.5463 0.0219
H22 H 0.5116 0.2270 -0.3262
H23 H 0.4892 0.2888 -0.3634
H24 H 0.4562 0.2475 -0.2915
H25 H 0.6456 -0.1110 0.0647
H26 H 0.6609 -0.0452 0.0956
H27 H 0.6219 -0.0561 0.0057
H28 H 0.5582 -0.1480 0.0858
H29 H 0.5376 -0.0910 0.0282
H30 H 0.5159 -0.1070 0.1365
H31 H 0.5751 0.2232 0.4830
H32 H 0.5615 0.1592 0.5256
H33 H 0.5191 0.1971 0.4690
H34 H 0.7537 -0.1266 -0.1170
H35 H 0.7612 -0.0673 -0.1801
H36 H 0.7416 -0.0641 -0.0670
H37 H 0.8116 -0.1508 0.0261
H38 H 0.8567 -0.1065 0.0542
H39 H 0.7989 -0.0883 0.0756
H40 H 0.8444 -0.1544 -0.1540
H41 H 0.8892 -0.1097 -0.1259
H42 H 0.8517 -0.0950 -0.2167
H43 H 0.8226 0.2346 -0.3647
H44 H 0.8768 0.2030 -0.3559
H45 H 0.8316 0.1715 -0.4153
H46 H 0.8391 0.5814 0.1199
H47 H 0.8625 0.5339 0.0445
H48 H 0.8089 0.5217 0.0970
H49 H 0.9185 0.5798 0.2160
H50 H 0.9428 0.5297 0.1466
H51 H 0.9374 0.5191 0.2643
H52 H 0.8352 0.5646 0.2914
H53 H 0.8576 0.5055 0.3397
H54 H 0.8059 0.5033 0.2769
H55 H 0.9011 0.1879 0.4361
H56 H 0.9543 0.2157 0.4023
H57 H 0.9199 0.2490 0.4831
H58 H 0.6115 -0.1381 0.2291
H59 H 0.6242 -0.0756 0.2788
H60 H 0.5670 -0.1000 0.2789
H61 H 0.7588 0.1386 -0.3236
H62 H 0.7615 0.1331 -0.2033
H63 H 0.7491 0.2417 -0.3057
H64 H 0.7471 0.2328 -0.1859
H65 H 0.6761 0.1883 -0.3221
H66 H 0.6742 0.1781 -0.2026
H67 H 0.9586 0.3007 0.3126
H68 H 0.9209 0.3357 0.3874
H69 H 0.8403 0.2851 0.4393
H70 H 0.8280 0.3010 0.3241
H71 H 0.8166 0.1870 0.4122
H72 H 0.8074 0.2002 0.2949
H73 H 0.7499 0.2493 0.4538
H74 H 0.7411 0.2642 0.3370
H75 H 0.4815 0.3682 -0.2500
H76 H 0.4457 0.3255 -0.1837
H77 H 0.5678 0.3290 -0.2963
H78 H 0.5768 0.3285 -0.1768
H79 H 0.5886 0.2287 -0.3083
H80 H 0.5897 0.2221 -0.1881
H81 H 0.6611 0.2888 -0.3003
H82 H 0.6624 0.2809 -0.1803
H83 H 0.5508 0.0777 0.4105
H84 H 0.5044 0.1171 0.3683
H85 H 0.6298 0.1206 0.4361
H86 H 0.6315 0.1257 0.3157
H87 H 0.6548 0.2167 0.4526
H88 H 0.6516 0.2265 0.3331
H89 H 0.7217 0.1549 0.4312
H90 H 0.7185 0.1643 0.3117
H91 H 0.8870 0.1193 -0.2734
H92 H 0.8369 0.0853 -0.3129
H93 H 0.9007 0.1936 0.2258
H94 H 0.4958 0.2188 -0.1339
H95 H 0.5521 0.2348 0.2770
H96 H 0.8561 0.2326 -0.1407
Cu1B Cu 1.00679(2) 0.27340(3) 0.08632(8)
O1B O 0.98725(16) 0.21412(16) -0.0091(2)
Cu2B Cu 0.39269(3) 0.28607(3) 0.02982(8)
O7B O 0.41567(19) 0.23235(18) 0.1292(3)
loop_
_geom_bond_atom_site_label_1
_geom_bond_atom_site_label_2
_geom_bond_site_symmetry_1
_geom_bond_site_symmetry_2
Cu1 O1 1_555 1_555
O1 C1 1_555 1_555
C1 C2 1_555 1_555
C2 C3 1_555 1_555
O2 N1 1_555 1_555
C3 C4 1_555 1_555
C4 C5 1_555 1_555
C5 C6 1_555 1_555
C6 C1 1_555 1_555
C7 C2 1_555 1_555
N1 Cu1 1_555 1_555
C8 C4 1_555 1_555
C9 C8 1_555 1_555
C10 C8 1_555 1_555
C11 C8 1_555 1_555
C12 C6 1_555 1_555
N2 C12 1_555 1_555
C13 N2 1_555 1_555
C14 N2 1_555 1_555
C15 C14 1_555 1_555
C16 C15 1_555 1_555
O3 Cu1 1_555 1_555
C17 O3 1_555 1_555
C18 C17 1_555 1_555
O4 N3 1_555 1_555
C19 C18 1_555 1_555
C20 C19 1_555 1_555
C21 C20 1_555 1_555
C22 C17 1_555 1_555
C23 C18 1_555 1_555
N3 Cu1 1_555 1_555
C24 C20 1_555 1_555
C25 C24 1_555 1_555
C26 C24 1_555 1_555
C27 C24 1_555 1_555
C28 C22 1_555 1_555
N4 C28 1_555 1_555
C29 N4 1_555 1_555
C30 N4 1_555 1_555
C31 C30 1_555 1_555
C32 C31 1_555 1_555
Cu2 O5 1_555 1_555
O5 C33 1_555 1_555
C33 C34 1_555 1_555
C34 C35 1_555 1_555
O6 N5 1_555 1_555
C35 C36 1_555 1_555
C36 C37 1_555 1_555
C37 C38 1_555 1_555
C38 C33 1_555 1_555
C39 C34 1_555 1_555
N5 Cu2 1_555 1_555
C40 C36 1_555 1_555
C41 C40 1_555 1_555
C42 C40 1_555 1_555
C43 C40 1_555 1_555
C44 C38 1_555 1_555
N6 C44 1_555 1_555
C45 N6 1_555 1_555
C46 N6 1_555 1_555
C47 C46 1_555 1_555
C48 C16 1_555 1_555
O7 Cu2 1_555 1_555
C49 O7 1_555 1_555
C50 C49 1_555 1_555
O8 N7 1_555 1_555
C51 C50 1_555 1_555
C52 C51 1_555 1_555
C53 C52 1_555 1_555
C54 C49 1_555 1_555
C55 C50 1_555 1_555
N7 Cu2 1_555 1_555
C56 C52 1_555 1_555
C57 C56 1_555 1_555
C58 C56 1_555 1_555
C59 C56 1_555 1_555
C60 C54 1_555 1_555
N8 C60 1_555 1_555
C61 N8 1_555 1_555
C62 N8 1_555 1_555
C63 C62 1_555 1_555
C64 C32 1_555 1_555
H1 C3 1_555 1_555
H2 C5 1_555 1_555
H3 C7 1_555 1_555
H4 C19 1_555 1_555
H5 C21 1_555 1_555
H6 C23 1_555 1_555
H7 C35 1_555 1_555
H8 C37 1_555 1_555
H9 C39 1_555 1_555
H10 C51 1_555 1_555
H11 C53 1_555 1_555
H12 C55 1_555 1_555
H13 C9 1_555 1_555
H14 C9 1_555 1_555
H15 C9 1_555 1_555
H16 C10 1_555 1_555
H17 C10 1_555 1_555
H18 C10 1_555 1_555
H19 C11 1_555 1_555
H20 C11 1_555 1_555
H21 C11 1_555 1_555
H22 C13 1_555 1_555
H23 C13 1_555 1_555
H24 C13 1_555 1_555
H25 C25 1_555 1_555
H26 C25 1_555 1_555
H27 C25 1_555 1_555
H28 C26 1_555 1_555
H29 C26 1_555 1_555
H30 C26 1_555 1_555
H31 C29 1_555 1_555
H32 C29 1_555 1_555
H33 C29 1_555 1_555
H34 C41 1_555 1_555
H35 C41 1_555 1_555
H36 C41 1_555 1_555
H37 C42 1_555 1_555
H38 C42 1_555 1_555
H39 C42 1_555 1_555
H40 C43 1_555 1_555
H41 C43 1_555 1_555
H42 C43 1_555 1_555
H43 C45 1_555 1_555
H44 C45 1_555 1_555
H45 C45 1_555 1_555
H46 C57 1_555 1_555
H47 C57 1_555 1_555
H48 C57 1_555 1_555
H49 C58 1_555 1_555
H50 C58 1_555 1_555
H51 C58 1_555 1_555
H52 C59 1_555 1_555
H53 C59 1_555 1_555
H54 C59 1_555 1_555
H55 C61 1_555 1_555
H56 C61 1_555 1_555
H57 C61 1_555 1_555
H58 C27 1_555 1_555
H59 C27 1_555 1_555
H60 C27 1_555 1_555
H61 C46 1_555 1_555
H62 C46 1_555 1_555
H63 C47 1_555 1_555
H64 C47 1_555 1_555
H65 C48 1_555 1_555
H66 C48 1_555 1_555
H67 C60 1_555 1_555
H68 C60 1_555 1_555
H69 C62 1_555 1_555
H70 C62 1_555 1_555
H71 C63 1_555 1_555
H72 C63 1_555 1_555
H73 C64 1_555 1_555
H74 C64 1_555 1_555
H75 C12 1_555 1_555
H76 C12 1_555 1_555
H77 C14 1_555 1_555
H78 C14 1_555 1_555
H79 C15 1_555 1_555
H80 C15 1_555 1_555
H81 C16 1_555 1_555
H82 C16 1_555 1_555
H83 C28 1_555 1_555
H84 C28 1_555 1_555
H85 C30 1_555 1_555
H86 C30 1_555 1_555
H87 C31 1_555 1_555
H88 C31 1_555 1_555
H89 C32 1_555 1_555
H90 C32 1_555 1_555
H91 C44 1_555 1_555
H92 C44 1_555 1_555
H93 O6 1_555 1_555
H94 O4 1_555 1_555
H95 O2 1_555 1_555
H96 O8 1_555 1_555
Cu1B O7 1_555 1_555
O1B Cu2 1_555 1_555
Cu2B O1 1_555 1_555
O7B Cu1 1_555 1_555
C7 N1 1_555 1_555
C21 C22 1_555 1_555
C23 N3 1_555 1_555
C39 N5 1_555 1_555
C47 C48 1_555 1_555
C53 C54 1_555 1_555
C55 N7 1_555 1_555
C63 C64 1_555 1_555
Cu1B O1B 1_555 1_555
Cu2B O7B 1_555 1_555

#END
