
#######################################################################
#
#                 Cambridge Crystallographic Data Centre
#                                CCDC 
#
#######################################################################
#
# If this CIF has been generated from an entry in the Cambridge 
# Structural Database, then it will include bibliographic, chemical, 
# crystal, experimental, refinement or atomic coordinate data resulting 
# from the CCDC's data processing and validation procedures.
#
#######################################################################

data_OHICUE
_symmetry_cell_setting           triclinic
_symmetry_space_group_name_H-M   'P 1'
_symmetry_Int_Tables_number      1
_space_group_name_Hall           'P 1'
loop_
_symmetry_equiv_pos_site_id
_symmetry_equiv_pos_as_xyz
1 x,y,z
_cell_length_a                   9.5068(19)
_cell_length_b                   14.029(3)
_cell_length_c                   17.803(4)
_cell_angle_alpha                83.56(3)
_cell_angle_beta                 89.28(4)
_cell_angle_gamma                84.18(3)
_cell_volume                     2347.26
loop_
_atom_site_label
_atom_site_type_symbol
_atom_site_fract_x
_atom_site_fract_y
_atom_site_fract_z
Eu1 Eu 0.53546(4) 0.62073(3) 0.73483(2)
Eu2 Eu 1.13966(4) 0.46530(3) 0.28040(2)
S1 S 0.3738(4) 0.4918(2) 0.57963(15)
F1 F 0.5059(6) 0.3269(5) 0.6150(5)
F2 F 0.2941(8) 0.3216(5) 0.5756(4)
F3 F 0.3255(9) 0.3594(5) 0.6859(3)
O1 O 0.5109(8) 0.7814(5) 0.7750(4)
H1 H 0.4751 0.8067 0.7350
O2 O 1.2222(9) 1.0104(6) 0.5963(4)
H2 H 1.1448 0.9996 0.6142
O3 O 0.4423(6) 0.5284(4) 0.6388(3)
O4 O 0.4258(8) 0.4946(6) 0.5074(3)
O5 O 0.2190(5) 0.5356(4) 0.5790(4)
O9 O 1.2426(10) 0.5582(6) 0.3795(5)
H3 H 1.3231 0.5310 0.3832
O10 O 0.4369(7) 0.5109(5) 0.8257(3)
O11 O 0.7076(8) 0.6832(5) 0.6556(4)
O12 O 0.7075(8) 0.4831(5) 0.7200(4)
H4 H 0.7713 0.5142 0.7311
O13 O 0.9726(8) 0.6002(5) 0.2919(4)
H5 H 0.9838 0.5877 0.3377
O14 O 0.9496(8) 0.4136(5) 0.3588(4)
O15 O 1.2493(9) 0.5651(6) 0.1884(5)
O16 O 0.0185(8) 0.4748(5) 1.1664(4)
H6 H 0.0956 0.4788 1.1457
O17 O 0.6649(9) 0.6117(6) 0.8512(4)
H7 H 0.5995 0.5935 0.8777
O18 O 0.4602(10) 0.0847(6) 0.4209(5)
H8 H 0.5277 0.1054 0.3975
O19 O 1.1670(10) 0.3064(6) 0.2388(5)
H9 H 1.0824 0.3008 0.2449
N1 N 0.6665(11) 0.9212(7) 0.7436(5)
N2 N 1.0386(10) 0.9753(7) 0.7063(5)
N3 N 0.2625(10) 0.6560(6) 0.7361(5)
N4 N 0.4273(9) 0.7507(6) 0.6212(5)
N5 N 0.8535(10) 0.4772(6) 0.6059(5)
N6 N 0.8189(10) 0.6127(6) 0.4148(5)
N7 N 1.2394(11) 0.3449(7) 0.3910(6)
N8 N 1.4096(12) 0.4231(8) 0.2741(6)
N9 N 0.1522(9) 0.5299(7) 1.0367(5)
N10 N 0.5193(10) 0.5629(7) 0.9720(5)
N11 N 0.6250(12) 0.1133(7) 0.3076(6)
N12 N 0.9924(10) 0.1714(6) 0.2629(5)
C1 C 0.3519(7) 0.7914(4) 0.8779(4)
H10 H 0.3175 0.7342 0.8686
C2 C 0.2982(8) 0.8398(5) 0.9377(4)
H11 H 0.2278 0.8149 0.9684
C3 C 0.3497(10) 0.9254(5) 0.9515(4)
H12 H 0.3138 0.9578 0.9915
C4 C 0.4550(10) 0.9627(5) 0.9056(5)
H13 H 0.4895 1.0200 0.9149
C5 C 0.5087(8) 0.9143(5) 0.8459(5)
C6 C 0.4572(8) 0.8287(5) 0.8320(4)
C7 C 0.6169(14) 0.9511(9) 0.8088(7)
H14 H 0.6597 0.9993 0.8289
C8 C 0.7888(13) 0.9564(9) 0.7085(7)
H15 H 0.7752 1.0263 0.7037
H16 H 0.7946 0.9374 0.6577
C9 C 0.9282(11) 0.9249(9) 0.7464(6)
H17 H 0.9235 0.9393 0.7985
H18 H 0.9501 0.8559 0.7464
C10 C 1.1195(14) 1.0099(8) 0.7453(7)
H19 H 1.1050 1.0034 0.7973
C11 C 1.2446(7) 1.0638(5) 0.7141(4)
C12 C 1.3238(8) 1.1148(6) 0.7578(4)
H20 H 1.2953 1.1242 0.8068
C13 C 1.4456(8) 1.1518(6) 0.7282(5)
H21 H 1.4986 1.1859 0.7574
C14 C 1.4882(8) 1.1377(7) 0.6549(5)
H22 H 1.5697 1.1624 0.6352
C15 C 1.4090(9) 1.0867(7) 0.6113(4)
H23 H 1.4375 1.0773 0.5622
C16 C 1.2872(8) 1.0498(5) 0.6408(4)
C17 C 0.3258(5) 0.3790(4) 0.8684(3)
H24 H 0.4105 0.3523 0.8911
C18 C 0.2095(6) 0.3261(4) 0.8720(3)
H25 H 0.2164 0.2640 0.8971
C19 C 0.0829(6) 0.3660(5) 0.8381(4)
H26 H 0.0051 0.3306 0.8406
C20 C 0.0726(6) 0.4588(5) 0.8006(4)
H27 H -0.0121 0.4855 0.7779
C21 C 0.1890(7) 0.5117(4) 0.7969(4)
C22 C 0.3156(6) 0.4718(4) 0.8308(3)
C23 C 0.1744(14) 0.6075(8) 0.7555(6)
H28 H 0.0825 0.6331 0.7431
C24 C 0.2112(14) 0.7548(9) 0.6895(7)
H29 H 0.1090 0.7618 0.6850
H30 H 0.2391 0.8077 0.7147
C25 C 0.2757(13) 0.7561(9) 0.6150(7)
H31 H 0.2497 0.7019 0.5907
H32 H 0.2412 0.8149 0.5840
C26 C 0.4836(12) 0.8035(8) 0.5843(6)
H33 H 0.4239 0.8485 0.5542
C27 C 0.6448(5) 0.8168(4) 0.5730(3)
C28 C 0.6796(6) 0.8917(4) 0.5205(4)
H34 H 0.6090 0.9368 0.4988
C29 C 0.8201(7) 0.8995(5) 0.5004(4)
H35 H 0.8434 0.9496 0.4653
C30 C 0.9258(6) 0.8322(5) 0.5328(4)
H36 H 1.0198 0.8374 0.5194
C31 C 0.8909(5) 0.7572(5) 0.5853(4)
H37 H 0.9616 0.7122 0.6070
C32 C 0.7504(6) 0.7495(4) 0.6054(3)
C33 C 0.7014(5) 0.3414(4) 0.8125(3)
H38 H 0.6431 0.3748 0.8451
C34 C 0.7479(7) 0.2448(4) 0.8325(3)
H39 H 0.7207 0.2136 0.8784
C35 C 0.8350(8) 0.1947(4) 0.7837(4)
H40 H 0.8661 0.1301 0.7971
C36 C 0.8757(8) 0.2413(5) 0.7150(4)
H41 H 0.9340 0.2078 0.6824
C37 C 0.8292(8) 0.3379(5) 0.6951(3)
C38 C 0.7420(7) 0.3879(4) 0.7438(3)
C39 C 0.8714(11) 0.3792(7) 0.6239(6)
H42 H 0.9116 0.3400 0.5890
C40 C 0.9022(13) 0.5208(8) 0.5291(6)
H43 H 0.9627 0.5711 0.5351
H44 H 0.9552 0.4717 0.5029
C41 C 0.7722(13) 0.5622(8) 0.4846(6)
H45 H 0.7166 0.5110 0.4739
H46 H 0.7141 0.6064 0.5131
C42 C 0.7854(12) 0.6968(8) 0.3919(6)
H47 H 0.7187 0.7323 0.4190
C43 C 0.8461(6) 0.7445(4) 0.3233(3)
C44 C 0.8074(7) 0.8418(4) 0.3013(3)
H48 H 0.7508 0.8782 0.3327
C45 C 0.8535(9) 0.8845(4) 0.2324(4)
H49 H 0.8276 0.9496 0.2177
C46 C 0.9382(8) 0.8301(5) 0.1855(3)
H50 H 0.9690 0.8587 0.1393
C47 C 0.9769(7) 0.7328(5) 0.2075(3)
H51 H 1.0336 0.6964 0.1761
C48 C 0.9309(7) 0.6900(4) 0.2764(3)
C49 C 0.7895(7) 0.3261(5) 0.4273(4)
H52 H 0.7195 0.3704 0.4041
C50 C 0.7527(7) 0.2498(5) 0.4780(4)
H53 H 0.6580 0.2430 0.4887
C51 C 0.8574(9) 0.1837(5) 0.5126(4)
H54 H 0.8328 0.1327 0.5465
C52 C 0.9990(8) 0.1939(5) 0.4966(5)
H55 H 1.0690 0.1496 0.5198
C53 C 1.0358(6) 0.2702(6) 0.4460(4)
C54 C 0.9311(7) 0.3363(5) 0.4113(4)
C55 C 1.1782(13) 0.2673(8) 0.4411(6)
H56 H 1.2362 0.2183 0.4683
C56 C 1.3967(15) 0.3276(10) 0.3940(7)
H57 H 1.4249 0.2638 0.4194
H58 H 1.4342 0.3746 0.4223
C57 C 1.4559(13) 0.3361(8) 0.3135(6)
H59 H 1.5584 0.3293 0.3154
H60 H 1.4266 0.2843 0.2874
C58 C 1.5079(14) 0.4899(9) 0.2556(7)
H61 H 1.6015 0.4692 0.2684
C59 C 1.4811(7) 0.5871(4) 0.2190(3)
C60 C 1.6002(7) 0.6374(5) 0.2130(4)
H62 H 1.6841 0.6104 0.2364
C61 C 1.5938(9) 0.7281(6) 0.1720(5)
H63 H 1.6735 0.7618 0.1680
C62 C 1.4685(11) 0.7685(5) 0.1371(5)
H64 H 1.4642 0.8292 0.1097
C63 C 1.3494(9) 0.7183(5) 0.1431(5)
H65 H 1.2655 0.7453 0.1197
C64 C 1.3557(7) 0.6276(5) 0.1841(4)
C65 C -0.1745(6) 0.3881(4) 1.1562(3)
H66 H -0.1849 0.3856 1.2083
C66 C -0.2630(7) 0.3408(5) 1.1146(3)
H67 H -0.3326 0.3068 1.1390
C67 C -0.2475(8) 0.3445(6) 1.0367(3)
H68 H -0.3067 0.3129 1.0089
C68 C -0.1435(8) 0.3954(6) 1.0002(3)
H69 H -0.1331 0.3978 0.9480
C69 C -0.0550(8) 0.4426(6) 1.0417(3)
C70 C -0.0705(7) 0.4390(5) 1.1197(3)
C71 C 0.0603(12) 0.4908(7) 1.0052(6)
H70 H 0.0660 0.4928 0.9529
C72 C 0.2602(11) 0.5746(8) 0.9990(6)
H71 H 0.2630 0.6384 1.0147
H72 H 0.2431 0.5815 0.9450
C73 C 0.4002(13) 0.5151(10) 1.0167(7)
H73 H 0.3962 0.4504 1.0030
H74 H 0.4193 0.5104 1.0705
C74 C 0.6133(13) 0.6111(9) 1.0061(7)
H75 H 0.6037 0.6176 1.0574
C75 C 0.7196(6) 0.6495(5) 0.9670(3)
C76 C 0.8123(8) 0.6861(6) 1.0136(3)
H76 H 0.7960 0.6826 1.0654
C77 C 0.9295(8) 0.7279(6) 0.9827(4)
H77 H 0.9916 0.7524 1.0138
C78 C 0.9540(8) 0.7331(6) 0.9052(4)
H78 H 1.0324 0.7611 0.8846
C79 C 0.8613(8) 0.6965(6) 0.8587(3)
H79 H 0.8776 0.7000 0.8069
C80 C 0.7441(7) 0.6547(5) 0.8896(3)
C81 C 0.2631(8) -0.0080(6) 0.3995(4)
H80 H 0.2308 -0.0019 0.4484
C82 C 0.1906(9) -0.0588(7) 0.3524(5)
H81 H 0.1099 -0.0866 0.3698
C83 C 0.2389(11) -0.0679(7) 0.2792(5)
H82 H 0.1904 -0.1019 0.2477
C84 C 0.3595(11) -0.0263(7) 0.2532(4)
H83 H 0.3918 -0.0325 0.2043
C85 C 0.4319(9) 0.0244(7) 0.3003(5)
C86 C 0.3837(8) 0.0336(6) 0.3735(4)
C87 C 0.5514(14) 0.0614(9) 0.2679(7)
H84 H 0.5792 0.0499 0.2192
C88 C 0.7423(14) 0.1584(9) 0.2715(7)
H85 H 0.7269 0.2275 0.2734
H86 H 0.7468 0.1468 0.2188
C89 C 0.8863(12) 0.1186(8) 0.3108(6)
H87 H 0.8877 0.1335 0.3627
H88 H 0.9045 0.0494 0.3100
C90 C 1.0534(14) 0.1393(9) 0.2055(7)
H89 H 1.0281 0.0808 0.1927
C91 C 1.1555(6) 0.1836(4) 0.1590(3)
C92 C 1.2118(8) 0.1375(5) 0.0985(4)
H90 H 1.1735 0.0833 0.0853
C93 C 1.3251(9) 0.1725(6) 0.0580(4)
H91 H 1.3627 0.1417 0.0175
C94 C 1.3823(8) 0.2535(6) 0.0778(5)
H92 H 1.4581 0.2769 0.0507
C95 C 1.3260(8) 0.2996(5) 0.1382(5)
H93 H 1.3643 0.3538 0.1515
C96 C 1.2127(8) 0.2646(5) 0.1788(4)
C97 C 0.3450(9) 0.3724(3) 0.6165(4)
C99 C 1.2478(13) 0.6660(8) 0.3773(7)
H94 H 1.2875 0.6801 0.4236
H95 H 1.1538 0.6980 0.3713
H96 H 1.3054 0.6881 0.3356
Eu2_2 Eu 0.13966(4) 0.46530(3) 1.28040(2)
O16_2 O 1.0185(8) 0.4748(5) 0.1664(4)
H6_2 H 1.0956 0.4788 0.1457
S2 S 0.9290(4) 0.0343(3) -0.02157(19)
F4 F 0.7913(10) 0.0886(7) 0.1033(5)
F5 F 0.6628(9) 0.1204(6) -0.0093(5)
F6 F 0.7153(11) -0.0317(8) 0.0505(5)
O6 O 0.9746(11) 0.1213(7) -0.0446(5)
O7 O 0.8664(12) -0.0121(7) -0.0775(5)
O8 O 1.0059(11) -0.0259(7) 0.0260(5)
C98 C 0.7436(18) 0.0488(11) 0.0376(8)
loop_
_geom_bond_atom_site_label_1
_geom_bond_atom_site_label_2
_geom_bond_site_symmetry_1
_geom_bond_site_symmetry_2
Eu1 O1 1_555 1_555
Eu2 O9 1_555 1_555
S1 O3 1_555 1_555
S2 O6 1_555 1_555
F1 C97 1_555 1_555
F2 C97 1_555 1_555
F3 C97 1_555 1_555
F4 C98 1_555 1_555
F5 C98 1_555 1_555
F6 C98 1_555 1_555
O1 H1 1_555 1_555
O2 H2 1_555 1_555
O3 Eu1 1_555 1_555
O4 S1 1_555 1_555
O5 S1 1_555 1_555
O7 S2 1_555 1_555
O8 S2 1_555 1_555
O9 H3 1_555 1_555
O10 Eu1 1_555 1_555
O11 Eu1 1_555 1_555
O12 Eu1 1_555 1_555
H4 O12 1_555 1_555
O13 Eu2 1_555 1_555
H5 O13 1_555 1_555
O14 Eu2 1_555 1_555
O15 Eu2 1_555 1_555
O16 H6 1_555 1_555
O17 Eu1 1_555 1_555
H7 O17 1_555 1_555
O18 H8 1_555 1_555
O19 Eu2 1_555 1_555
H9 O19 1_555 1_555
N1 C7 1_555 1_555
N2 C9 1_555 1_555
N3 Eu1 1_555 1_555
N4 Eu1 1_555 1_555
N5 C39 1_555 1_555
N6 C41 1_555 1_555
N7 Eu2 1_555 1_555
N8 Eu2 1_555 1_555
N9 C71 1_555 1_555
N10 C73 1_555 1_555
N11 C87 1_555 1_555
N12 C89 1_555 1_555
C1 H10 1_555 1_555
C2 C1 1_555 1_555
H11 C2 1_555 1_555
C3 C2 1_555 1_555
H12 C3 1_555 1_555
C4 C3 1_555 1_555
H13 C4 1_555 1_555
C5 C4 1_555 1_555
C6 O1 1_555 1_555
C7 C5 1_555 1_555
H14 C7 1_555 1_555
C8 N1 1_555 1_555
H15 C8 1_555 1_555
H16 C8 1_555 1_555
C9 C8 1_555 1_555
H17 C9 1_555 1_555
H18 C9 1_555 1_555
C10 N2 1_555 1_555
H19 C10 1_555 1_555
C11 C10 1_555 1_555
C12 C11 1_555 1_555
H20 C12 1_555 1_555
C13 C12 1_555 1_555
H21 C13 1_555 1_555
C14 C13 1_555 1_555
H22 C14 1_555 1_555
C15 C14 1_555 1_555
H23 C15 1_555 1_555
C16 O2 1_555 1_555
C17 H24 1_555 1_555
C18 C17 1_555 1_555
H25 C18 1_555 1_555
C19 C18 1_555 1_555
H26 C19 1_555 1_555
C20 C19 1_555 1_555
H27 C20 1_555 1_555
C21 C20 1_555 1_555
C22 O10 1_555 1_555
C23 N3 1_555 1_555
H28 C23 1_555 1_555
C24 N3 1_555 1_555
H29 C24 1_555 1_555
H30 C24 1_555 1_555
C25 N4 1_555 1_555
H31 C25 1_555 1_555
H32 C25 1_555 1_555
C26 N4 1_555 1_555
H33 C26 1_555 1_555
C27 C26 1_555 1_555
C28 C27 1_555 1_555
H34 C28 1_555 1_555
C29 C28 1_555 1_555
H35 C29 1_555 1_555
C30 C29 1_555 1_555
H36 C30 1_555 1_555
C31 C30 1_555 1_555
H37 C31 1_555 1_555
C32 O11 1_555 1_555
C33 H38 1_555 1_555
C34 C33 1_555 1_555
H39 C34 1_555 1_555
C35 C34 1_555 1_555
H40 C35 1_555 1_555
C36 C35 1_555 1_555
H41 C36 1_555 1_555
C37 C36 1_555 1_555
C38 O12 1_555 1_555
C39 C37 1_555 1_555
H42 C39 1_555 1_555
C40 N5 1_555 1_555
H43 C40 1_555 1_555
H44 C40 1_555 1_555
C41 C40 1_555 1_555
H45 C41 1_555 1_555
H46 C41 1_555 1_555
C42 N6 1_555 1_555
H47 C42 1_555 1_555
C43 C42 1_555 1_555
C44 C43 1_555 1_555
H48 C44 1_555 1_555
C45 C44 1_555 1_555
H49 C45 1_555 1_555
C46 C45 1_555 1_555
H50 C46 1_555 1_555
C47 C46 1_555 1_555
H51 C47 1_555 1_555
C48 O13 1_555 1_555
C49 H52 1_555 1_555
C50 C49 1_555 1_555
H53 C50 1_555 1_555
C51 C50 1_555 1_555
H54 C51 1_555 1_555
C52 C51 1_555 1_555
H55 C52 1_555 1_555
C53 C52 1_555 1_555
C54 O14 1_555 1_555
C55 N7 1_555 1_555
H56 C55 1_555 1_555
C56 N7 1_555 1_555
H57 C56 1_555 1_555
H58 C56 1_555 1_555
C57 N8 1_555 1_555
H59 C57 1_555 1_555
H60 C57 1_555 1_555
C58 N8 1_555 1_555
H61 C58 1_555 1_555
C59 C58 1_555 1_555
C60 C59 1_555 1_555
H62 C60 1_555 1_555
C61 C60 1_555 1_555
H63 C61 1_555 1_555
C62 C61 1_555 1_555
H64 C62 1_555 1_555
C63 C62 1_555 1_555
H65 C63 1_555 1_555
C64 O15 1_555 1_555
C65 H66 1_555 1_555
C66 C65 1_555 1_555
H67 C66 1_555 1_555
C67 C66 1_555 1_555
H68 C67 1_555 1_555
C68 C67 1_555 1_555
H69 C68 1_555 1_555
C69 C68 1_555 1_555
C70 O16 1_555 1_555
C71 C69 1_555 1_555
H70 C71 1_555 1_555
C72 N9 1_555 1_555
H71 C72 1_555 1_555
H72 C72 1_555 1_555
C73 C72 1_555 1_555
H73 C73 1_555 1_555
H74 C73 1_555 1_555
C74 N10 1_555 1_555
H75 C74 1_555 1_555
C75 C74 1_555 1_555
C76 C75 1_555 1_555
H76 C76 1_555 1_555
C77 C76 1_555 1_555
H77 C77 1_555 1_555
C78 C77 1_555 1_555
H78 C78 1_555 1_555
C79 C78 1_555 1_555
H79 C79 1_555 1_555
C80 O17 1_555 1_555
C81 H80 1_555 1_555
C82 C81 1_555 1_555
H81 C82 1_555 1_555
C83 C82 1_555 1_555
H82 C83 1_555 1_555
C84 C83 1_555 1_555
H83 C84 1_555 1_555
C85 C84 1_555 1_555
C86 O18 1_555 1_555
C87 C85 1_555 1_555
H84 C87 1_555 1_555
C88 N11 1_555 1_555
H85 C88 1_555 1_555
H86 C88 1_555 1_555
C89 C88 1_555 1_555
H87 C89 1_555 1_555
H88 C89 1_555 1_555
C90 N12 1_555 1_555
H89 C90 1_555 1_555
C91 C90 1_555 1_555
C92 C91 1_555 1_555
H90 C92 1_555 1_555
C93 C92 1_555 1_555
H91 C93 1_555 1_555
C94 C93 1_555 1_555
H92 C94 1_555 1_555
C95 C94 1_555 1_555
H93 C95 1_555 1_555
C96 O19 1_555 1_555
C97 S1 1_555 1_555
C98 S2 1_555 1_555
C99 O9 1_555 1_555
H94 C99 1_555 1_555
H95 C99 1_555 1_555
H96 C99 1_555 1_555
Eu2_2 O16 1_555 1_555
O16_2 Eu2 1_555 1_555
H6_2 O16_2 1_555 1_555
C1 C6 1_555 1_555
C5 C6 1_555 1_555
C11 C16 1_555 1_555
C15 C16 1_555 1_555
C17 C22 1_555 1_555
C21 C22 1_555 1_555
C21 C23 1_555 1_555
C24 C25 1_555 1_555
C27 C32 1_555 1_555
C31 C32 1_555 1_555
C33 C38 1_555 1_555
C37 C38 1_555 1_555
C43 C48 1_555 1_555
C47 C48 1_555 1_555
C49 C54 1_555 1_555
C53 C54 1_555 1_555
C53 C55 1_555 1_555
C56 C57 1_555 1_555
C59 C64 1_555 1_555
C63 C64 1_555 1_555
C65 C70 1_555 1_555
C69 C70 1_555 1_555
C75 C80 1_555 1_555
C79 C80 1_555 1_555
C81 C86 1_555 1_555
C85 C86 1_555 1_555
C91 C96 1_555 1_555
C95 C96 1_555 1_555

#END
