
#######################################################################
#
#                 Cambridge Crystallographic Data Centre
#                                CCDC 
#
#######################################################################
#
# If this CIF has been generated from an entry in the Cambridge 
# Structural Database, then it will include bibliographic, chemical, 
# crystal, experimental, refinement or atomic coordinate data resulting 
# from the CCDC's data processing and validation procedures.
#
#######################################################################

data_OHIDAL
_symmetry_cell_setting           triclinic
_symmetry_space_group_name_H-M   'P 1'
_symmetry_Int_Tables_number      1
_space_group_name_Hall           'P 1'
loop_
_symmetry_equiv_pos_site_id
_symmetry_equiv_pos_as_xyz
1 x,y,z
_cell_length_a                   9.5105(19)
_cell_length_b                   14.286(3)
_cell_length_c                   17.870(4)
_cell_angle_alpha                82.99(3)
_cell_angle_beta                 89.68(4)
_cell_angle_gamma                83.67(3)
_cell_volume                     2395.03
loop_
_atom_site_label
_atom_site_type_symbol
_atom_site_fract_x
_atom_site_fract_y
_atom_site_fract_z
Nd1 Nd 0.54193(3) 0.61835(3) 0.73635(2)
Nd2 Nd 1.13316(3) 0.46747(3) 0.27875(2)
S1 S 0.3685(3) 0.49404(18) 0.58042(14)
F1 F 0.5065(5) 0.3322(5) 0.6102(5)
F2 F 0.2895(6) 0.3254(4) 0.5790(3)
F3 F 0.3365(8) 0.3600(5) 0.6879(3)
O1 O 0.5168(7) 0.7799(5) 0.7799(4)
H1 H 0.4826 0.8043 0.7392
O2 O 1.2249(8) 1.0060(5) 0.5962(4)
H2 H 1.1483 0.9944 0.6141
O3 O 0.4459(5) 0.5297(4) 0.6366(3)
O4 O 0.4100(7) 0.5033(5) 0.5058(2)
O5 O 0.2133(4) 0.5294(4) 0.5884(3)
O9 O 1.2394(8) 0.5618(6) 0.3793(4)
H3 H 1.3200 0.5346 0.3832
O10 O 0.4322(6) 0.5138(5) 0.8312(3)
O11 O 0.7192(7) 0.6772(5) 0.6537(4)
O12 O 0.7123(6) 0.4811(5) 0.7202(3)
H4 H 0.7777 0.5108 0.7297
O13 O 0.9565(7) 0.6068(5) 0.2907(4)
H5 H 0.9580 0.5952 0.3368
O14 O 0.9506(7) 0.4080(5) 0.3642(4)
O15 O 1.2406(8) 0.5748(5) 0.1862(4)
O16 O 0.0058(6) 0.4774(5) 1.1602(3)
H6 H 0.0788 0.4879 1.1376
O17 O 0.6720(8) 0.6059(6) 0.8549(4)
H7 H 0.6101 0.5834 0.8811
O18 O 0.4586(8) 0.0869(5) 0.4184(4)
H8 H 0.5251 0.1068 0.3943
O19 O 1.1663(7) 0.3063(5) 0.2391(4)
H9 H 1.0827 0.2990 0.2459
N1 N 0.6768(8) 0.9213(6) 0.7445(4)
N2 N 1.0475(9) 0.9722(7) 0.7097(5)
N3 N 0.2601(7) 0.6523(5) 0.7394(4)
N4 N 0.4322(7) 0.7456(6) 0.6216(4)
N5 N 0.8579(8) 0.4757(5) 0.6033(4)
N6 N 0.8101(9) 0.6151(6) 0.4150(4)
N7 N 1.2508(10) 0.3386(7) 0.3922(6)
N8 N 1.4099(9) 0.4260(7) 0.2761(5)
N9 N 0.1468(9) 0.5267(6) 1.0384(5)
N10 N 0.5191(8) 0.5590(6) 0.9781(4)
N11 N 0.6255(9) 0.1167(6) 0.3072(5)
N12 N 0.9940(9) 0.1781(7) 0.2609(5)
C1 C 0.3548(6) 0.7914(4) 0.8796(3)
H10 H 0.3206 0.7357 0.8695
C2 C 0.2999(7) 0.8377(4) 0.9391(3)
H11 H 0.2289 0.8130 0.9688
C3 C 0.3510(8) 0.9210(5) 0.9542(4)
H12 H 0.3142 0.9520 0.9941
C4 C 0.4571(8) 0.9579(4) 0.9099(5)
H13 H 0.4913 1.0136 0.9200
C5 C 0.5121(7) 0.9116(5) 0.8503(4)
C6 C 0.4609(6) 0.8283(4) 0.8352(3)
C7 C 0.6115(12) 0.9492(8) 0.8096(6)
H14 H 0.6430 1.0023 0.8266
C8 C 0.7974(10) 0.9547(8) 0.7062(6)
H15 H 0.7827 1.0235 0.6973
H16 H 0.8041 0.9313 0.6574
C9 C 0.9348(10) 0.9259(8) 0.7473(6)
H17 H 0.9259 0.9424 0.7983
H18 H 0.9574 0.8577 0.7502
C10 C 1.1225(10) 1.0105(7) 0.7475(6)
H19 H 1.1027 1.0127 0.7983
C11 C 1.2465(6) 1.0544(4) 0.7139(3)
C12 C 1.3249(7) 1.1020(6) 0.7594(4)
H20 H 1.2967 1.1082 0.8086
C13 C 1.4456(8) 1.1401(6) 0.7313(5)
H21 H 1.4981 1.1720 0.7617
C14 C 1.4879(7) 1.1308(6) 0.6578(5)
H22 H 1.5687 1.1563 0.6390
C15 C 1.4094(8) 1.0832(6) 0.6123(4)
H23 H 1.4377 1.0769 0.5631
C16 C 1.2887(7) 1.0450(5) 0.6404(3)
C17 C 0.3304(5) 0.3744(4) 0.8696(3)
H24 H 0.4157 0.3484 0.8927
C18 C 0.2162(5) 0.3212(4) 0.8722(3)
H25 H 0.2250 0.2597 0.8970
C19 C 0.0888(5) 0.3600(5) 0.8376(4)
H26 H 0.0124 0.3244 0.8394
C20 C 0.0757(5) 0.4520(5) 0.8006(4)
H27 H -0.0096 0.4779 0.7775
C21 C 0.1899(6) 0.5051(4) 0.7980(3)
C22 C 0.3173(5) 0.4663(4) 0.8325(3)
C23 C 0.1669(9) 0.6039(7) 0.7536(5)
H28 H 0.0759 0.6274 0.7369
C24 C 0.2088(9) 0.7458(7) 0.6938(6)
H29 H 0.1068 0.7500 0.6880
H30 H 0.2296 0.7971 0.7215
C25 C 0.2744(10) 0.7591(8) 0.6171(6)
H31 H 0.2422 0.7139 0.5865
H32 H 0.2435 0.8224 0.5927
C26 C 0.4903(9) 0.8059(6) 0.5837(5)
H33 H 0.4288 0.8530 0.5566
C27 C 0.6447(4) 0.8181(4) 0.5728(3)
C28 C 0.6756(5) 0.8941(4) 0.5214(3)
H34 H 0.6033 0.9393 0.5016
C29 C 0.8146(6) 0.9024(5) 0.4995(4)
H35 H 0.8353 0.9532 0.4651
C30 C 0.9227(5) 0.8347(5) 0.5291(4)
H36 H 1.0157 0.8403 0.5145
C31 C 0.8918(5) 0.7588(5) 0.5806(4)
H37 H 0.9641 0.7135 0.6003
C32 C 0.7528(5) 0.7505(4) 0.6024(3)
C33 C 0.7083(5) 0.3450(4) 0.8057(2)
H38 H 0.6501 0.3798 0.8368
C34 C 0.7521(6) 0.2497(4) 0.8281(3)
H39 H 0.7232 0.2206 0.8742
C35 C 0.8390(7) 0.1977(4) 0.7816(3)
H40 H 0.8683 0.1339 0.7966
C36 C 0.8822(6) 0.2410(4) 0.7127(3)
H41 H 0.9404 0.2063 0.6816
C37 C 0.8384(6) 0.3364(4) 0.6903(3)
C38 C 0.7515(5) 0.3884(4) 0.7368(3)
C39 C 0.8756(10) 0.3840(8) 0.6217(6)
H42 H 0.9164 0.3474 0.5860
C40 C 0.9072(9) 0.5182(7) 0.5291(5)
H43 H 0.9591 0.4699 0.5028
H44 H 0.9688 0.5664 0.5357
C41 C 0.7753(10) 0.5619(8) 0.4846(5)
H45 H 0.7197 0.5120 0.4741
H46 H 0.7180 0.6034 0.5147
C42 C 0.7798(9) 0.7030(7) 0.3915(5)
H47 H 0.7187 0.7402 0.4196
C43 C 0.8389(5) 0.7473(4) 0.3211(2)
C44 C 0.7989(6) 0.8442(4) 0.3046(3)
H48 H 0.7420 0.8763 0.3379
C45 C 0.8437(7) 0.8931(3) 0.2383(3)
H49 H 0.8169 0.9579 0.2273
C46 C 0.9287(6) 0.8451(4) 0.1885(3)
H50 H 0.9587 0.8779 0.1442
C47 C 0.9687(5) 0.7483(4) 0.2050(3)
H51 H 1.0256 0.7162 0.1717
C48 C 0.9239(5) 0.6994(3) 0.2713(3)
C49 C 0.7925(5) 0.3216(4) 0.4317(3)
H52 H 0.7207 0.3656 0.4096
C50 C 0.7595(6) 0.2446(5) 0.4814(4)
H53 H 0.6655 0.2371 0.4926
C51 C 0.8669(7) 0.1789(5) 0.5143(4)
H54 H 0.8448 0.1274 0.5476
C52 C 1.0074(6) 0.1902(5) 0.4976(4)
H55 H 1.0793 0.1462 0.5196
C53 C 1.0405(5) 0.2672(5) 0.4479(4)
C54 C 0.9330(5) 0.3329(4) 0.4149(3)
C55 C 1.1891(12) 0.2679(8) 0.4432(6)
H56 H 1.2479 0.2222 0.4733
C56 C 1.4043(12) 0.3319(9) 0.3953(6)
H57 H 1.4421 0.2732 0.4250
H58 H 1.4342 0.3846 0.4182
C57 C 1.4565(12) 0.3343(9) 0.3153(6)
H59 H 1.5590 0.3232 0.3150
H60 H 1.4189 0.2852 0.2910
C58 C 1.5028(11) 0.4958(8) 0.2537(6)
H61 H 1.5977 0.4755 0.2642
C59 C 1.4780(6) 0.5875(4) 0.2195(3)
C60 C 1.5948(6) 0.6383(5) 0.2169(4)
H62 H 1.6778 0.6120 0.2420
C61 C 1.5874(7) 0.7284(5) 0.1767(4)
H63 H 1.6655 0.7624 0.1750
C62 C 1.4632(8) 0.7677(4) 0.1391(4)
H64 H 1.4582 0.8280 0.1122
C63 C 1.3464(7) 0.7169(5) 0.1417(4)
H65 H 1.2633 0.7432 0.1165
C64 C 1.3538(6) 0.6268(5) 0.1819(4)
C65 C -0.1874(5) 0.3896(3) 1.1492(2)
H66 H -0.2030 0.3884 1.2007
C66 C -0.2724(6) 0.3437(5) 1.1059(3)
H67 H -0.3449 0.3118 1.1284
C67 C -0.2492(7) 0.3454(5) 1.0289(3)
H68 H -0.3061 0.3147 0.9999
C68 C -0.1409(7) 0.3931(5) 0.9952(2)
H69 H -0.1254 0.3942 0.9437
C69 C -0.0559(6) 0.4390(5) 1.0386(3)
C70 C -0.0792(5) 0.4372(4) 1.1156(3)
C71 C 0.0564(10) 0.4888(7) 1.0049(5)
H70 H 0.0629 0.4934 0.9526
C72 C 0.2600(10) 0.5752(8) 0.9982(6)
H71 H 0.2594 0.6387 1.0123
H72 H 0.2447 0.5803 0.9441
C73 C 0.4013(10) 0.5177(8) 1.0193(6)
H73 H 0.4174 0.5154 1.0731
H74 H 0.3985 0.4532 1.0081
C74 C 0.6079(11) 0.6107(8) 1.0127(7)
H75 H 0.5937 0.6204 1.0628
C75 C 0.7213(5) 0.6492(4) 0.9718(3)
C76 C 0.8096(7) 0.6904(5) 1.0169(3)
H76 H 0.7927 0.6887 1.0683
C77 C 0.9231(7) 0.7340(6) 0.9851(4)
H77 H 0.9822 0.7615 1.0153
C78 C 0.9484(7) 0.7365(6) 0.9082(4)
H78 H 1.0243 0.7657 0.8870
C79 C 0.8601(7) 0.6954(6) 0.8631(3)
H79 H 0.8769 0.6971 0.8117
C80 C 0.7465(6) 0.6517(5) 0.8949(3)
C81 C 0.2598(6) -0.0062(5) 0.3994(3)
H80 H 0.2279 0.0027 0.4476
C82 C 0.1881(7) -0.0595(6) 0.3554(4)
H81 H 0.1082 -0.0863 0.3741
C83 C 0.2358(9) -0.0729(6) 0.2834(4)
H82 H 0.1879 -0.1086 0.2539
C84 C 0.3552(8) -0.0329(6) 0.2554(4)
H83 H 0.3871 -0.0418 0.2072
C85 C 0.4269(7) 0.0204(6) 0.2995(4)
C86 C 0.3792(7) 0.0338(5) 0.3715(4)
C87 C 0.5457(13) 0.0666(9) 0.2688(7)
H84 H 0.5688 0.0614 0.2187
C88 C 0.7419(11) 0.1634(9) 0.2700(7)
H85 H 0.7247 0.2312 0.2724
H86 H 0.7441 0.1533 0.2173
C89 C 0.8880(10) 0.1249(8) 0.3072(6)
H87 H 0.8902 0.1373 0.3593
H88 H 0.9077 0.0571 0.3055
C90 C 1.0432(12) 0.1409(8) 0.2060(7)
H89 H 1.0098 0.0863 0.1930
C91 C 1.1555(5) 0.1844(4) 0.1614(3)
C92 C 1.2115(7) 0.1378(4) 0.1022(4)
H90 H 1.1728 0.0848 0.0896
C93 C 1.3255(7) 0.1705(6) 0.0619(4)
H91 H 1.3629 0.1394 0.0223
C94 C 1.3834(7) 0.2498(6) 0.0808(4)
H92 H 1.4596 0.2717 0.0538
C95 C 1.3274(7) 0.2963(5) 0.1400(4)
H93 H 1.3661 0.3493 0.1526
C96 C 1.2135(6) 0.2636(4) 0.1803(3)
C97 C 0.3666(6) 0.3730(3) 0.6151(3)
C99 C 1.2449(12) 0.6680(8) 0.3749(6)
H94 H 1.2843 0.6826 0.4209
H95 H 1.1509 0.7001 0.3678
H96 H 1.3029 0.6885 0.3333
Nd2_2 Nd 0.13316(3) 0.46747(3) 1.27875(2)
O16_2 O 1.0058(6) 0.4774(5) 0.1602(3)
H6_2 H 1.0788 0.4879 0.1376
S2 S 0.9294(3) 0.0335(2) -0.02137(17)
F4 F 0.7862(8) 0.0889(5) 0.1000(4)
F5 F 0.6616(7) 0.1145(6) -0.0117(4)
F6 F 0.7101(9) -0.0262(7) 0.0550(5)
O6 O 0.9717(11) 0.1251(8) -0.0388(6)
O7 O 0.8653(9) -0.0113(7) -0.0779(5)
O8 O 1.0100(11) -0.0325(7) 0.0237(5)
C98 C 0.7460(15) 0.0487(10) 0.0360(8)
loop_
_geom_bond_atom_site_label_1
_geom_bond_atom_site_label_2
_geom_bond_site_symmetry_1
_geom_bond_site_symmetry_2
Nd1 O1 1_555 1_555
Nd2 O9 1_555 1_555
S1 O3 1_555 1_555
S2 O6 1_555 1_555
F1 C97 1_555 1_555
F2 C97 1_555 1_555
F3 C97 1_555 1_555
F4 C98 1_555 1_555
F5 C98 1_555 1_555
F6 C98 1_555 1_555
O1 H1 1_555 1_555
O2 H2 1_555 1_555
O3 Nd1 1_555 1_555
O4 S1 1_555 1_555
O5 S1 1_555 1_555
O7 S2 1_555 1_555
O8 S2 1_555 1_555
O9 H3 1_555 1_555
O10 Nd1 1_555 1_555
O11 Nd1 1_555 1_555
O12 Nd1 1_555 1_555
H4 O12 1_555 1_555
O13 Nd2 1_555 1_555
H5 O13 1_555 1_555
O14 Nd2 1_555 1_555
O15 Nd2 1_555 1_555
O16 H6 1_555 1_555
O17 Nd1 1_555 1_555
H7 O17 1_555 1_555
O18 H8 1_555 1_555
O19 Nd2 1_555 1_555
H9 O19 1_555 1_555
N1 C7 1_555 1_555
N2 C9 1_555 1_555
N3 Nd1 1_555 1_555
N4 Nd1 1_555 1_555
N5 C39 1_555 1_555
N6 C41 1_555 1_555
N7 Nd2 1_555 1_555
N8 Nd2 1_555 1_555
N9 C71 1_555 1_555
N10 C73 1_555 1_555
N11 C87 1_555 1_555
N12 C89 1_555 1_555
C1 H10 1_555 1_555
C2 C1 1_555 1_555
H11 C2 1_555 1_555
C3 C2 1_555 1_555
H12 C3 1_555 1_555
C4 C3 1_555 1_555
H13 C4 1_555 1_555
C5 C4 1_555 1_555
C6 O1 1_555 1_555
C7 C5 1_555 1_555
H14 C7 1_555 1_555
C8 N1 1_555 1_555
H15 C8 1_555 1_555
H16 C8 1_555 1_555
C9 C8 1_555 1_555
H17 C9 1_555 1_555
H18 C9 1_555 1_555
C10 N2 1_555 1_555
H19 C10 1_555 1_555
C11 C10 1_555 1_555
C12 C11 1_555 1_555
H20 C12 1_555 1_555
C13 C12 1_555 1_555
H21 C13 1_555 1_555
C14 C13 1_555 1_555
H22 C14 1_555 1_555
C15 C14 1_555 1_555
H23 C15 1_555 1_555
C16 O2 1_555 1_555
C17 H24 1_555 1_555
C18 C17 1_555 1_555
H25 C18 1_555 1_555
C19 C18 1_555 1_555
H26 C19 1_555 1_555
C20 C19 1_555 1_555
H27 C20 1_555 1_555
C21 C20 1_555 1_555
C22 O10 1_555 1_555
C23 N3 1_555 1_555
H28 C23 1_555 1_555
C24 N3 1_555 1_555
H29 C24 1_555 1_555
H30 C24 1_555 1_555
C25 N4 1_555 1_555
H31 C25 1_555 1_555
H32 C25 1_555 1_555
C26 N4 1_555 1_555
H33 C26 1_555 1_555
C27 C26 1_555 1_555
C28 C27 1_555 1_555
H34 C28 1_555 1_555
C29 C28 1_555 1_555
H35 C29 1_555 1_555
C30 C29 1_555 1_555
H36 C30 1_555 1_555
C31 C30 1_555 1_555
H37 C31 1_555 1_555
C32 O11 1_555 1_555
C33 H38 1_555 1_555
C34 C33 1_555 1_555
H39 C34 1_555 1_555
C35 C34 1_555 1_555
H40 C35 1_555 1_555
C36 C35 1_555 1_555
H41 C36 1_555 1_555
C37 C36 1_555 1_555
C38 O12 1_555 1_555
C39 C37 1_555 1_555
H42 C39 1_555 1_555
C40 N5 1_555 1_555
H43 C40 1_555 1_555
H44 C40 1_555 1_555
C41 C40 1_555 1_555
H45 C41 1_555 1_555
H46 C41 1_555 1_555
C42 N6 1_555 1_555
H47 C42 1_555 1_555
C43 C42 1_555 1_555
C44 C43 1_555 1_555
H48 C44 1_555 1_555
C45 C44 1_555 1_555
H49 C45 1_555 1_555
C46 C45 1_555 1_555
H50 C46 1_555 1_555
C47 C46 1_555 1_555
H51 C47 1_555 1_555
C48 O13 1_555 1_555
C49 H52 1_555 1_555
C50 C49 1_555 1_555
H53 C50 1_555 1_555
C51 C50 1_555 1_555
H54 C51 1_555 1_555
C52 C51 1_555 1_555
H55 C52 1_555 1_555
C53 C52 1_555 1_555
C54 O14 1_555 1_555
C55 N7 1_555 1_555
H56 C55 1_555 1_555
C56 N7 1_555 1_555
H57 C56 1_555 1_555
H58 C56 1_555 1_555
C57 N8 1_555 1_555
H59 C57 1_555 1_555
H60 C57 1_555 1_555
C58 N8 1_555 1_555
H61 C58 1_555 1_555
C59 C58 1_555 1_555
C60 C59 1_555 1_555
H62 C60 1_555 1_555
C61 C60 1_555 1_555
H63 C61 1_555 1_555
C62 C61 1_555 1_555
H64 C62 1_555 1_555
C63 C62 1_555 1_555
H65 C63 1_555 1_555
C64 O15 1_555 1_555
C65 H66 1_555 1_555
C66 C65 1_555 1_555
H67 C66 1_555 1_555
C67 C66 1_555 1_555
H68 C67 1_555 1_555
C68 C67 1_555 1_555
H69 C68 1_555 1_555
C69 C68 1_555 1_555
C70 O16 1_555 1_555
C71 C69 1_555 1_555
H70 C71 1_555 1_555
C72 N9 1_555 1_555
H71 C72 1_555 1_555
H72 C72 1_555 1_555
C73 C72 1_555 1_555
H73 C73 1_555 1_555
H74 C73 1_555 1_555
C74 N10 1_555 1_555
H75 C74 1_555 1_555
C75 C74 1_555 1_555
C76 C75 1_555 1_555
H76 C76 1_555 1_555
C77 C76 1_555 1_555
H77 C77 1_555 1_555
C78 C77 1_555 1_555
H78 C78 1_555 1_555
C79 C78 1_555 1_555
H79 C79 1_555 1_555
C80 O17 1_555 1_555
C81 H80 1_555 1_555
C82 C81 1_555 1_555
H81 C82 1_555 1_555
C83 C82 1_555 1_555
H82 C83 1_555 1_555
C84 C83 1_555 1_555
H83 C84 1_555 1_555
C85 C84 1_555 1_555
C86 O18 1_555 1_555
C87 C85 1_555 1_555
H84 C87 1_555 1_555
C88 N11 1_555 1_555
H85 C88 1_555 1_555
H86 C88 1_555 1_555
C89 C88 1_555 1_555
H87 C89 1_555 1_555
H88 C89 1_555 1_555
C90 N12 1_555 1_555
H89 C90 1_555 1_555
C91 C90 1_555 1_555
C92 C91 1_555 1_555
H90 C92 1_555 1_555
C93 C92 1_555 1_555
H91 C93 1_555 1_555
C94 C93 1_555 1_555
H92 C94 1_555 1_555
C95 C94 1_555 1_555
H93 C95 1_555 1_555
C96 O19 1_555 1_555
C97 S1 1_555 1_555
C98 S2 1_555 1_555
C99 O9 1_555 1_555
H94 C99 1_555 1_555
H95 C99 1_555 1_555
H96 C99 1_555 1_555
Nd2_2 O16 1_555 1_555
O16_2 Nd2 1_555 1_555
H6_2 O16_2 1_555 1_555
C1 C6 1_555 1_555
C5 C6 1_555 1_555
C11 C16 1_555 1_555
C15 C16 1_555 1_555
C17 C22 1_555 1_555
C21 C22 1_555 1_555
C21 C23 1_555 1_555
C24 C25 1_555 1_555
C27 C32 1_555 1_555
C31 C32 1_555 1_555
C33 C38 1_555 1_555
C37 C38 1_555 1_555
C43 C48 1_555 1_555
C47 C48 1_555 1_555
C49 C54 1_555 1_555
C53 C54 1_555 1_555
C53 C55 1_555 1_555
C56 C57 1_555 1_555
C59 C64 1_555 1_555
C63 C64 1_555 1_555
C65 C70 1_555 1_555
C69 C70 1_555 1_555
C75 C80 1_555 1_555
C79 C80 1_555 1_555
C81 C86 1_555 1_555
C85 C86 1_555 1_555
C91 C96 1_555 1_555
C95 C96 1_555 1_555

#END
