
#######################################################################
#
#                 Cambridge Crystallographic Data Centre
#                                CCDC 
#
#######################################################################
#
# If this CIF has been generated from an entry in the Cambridge 
# Structural Database, then it will include bibliographic, chemical, 
# crystal, experimental, refinement or atomic coordinate data resulting 
# from the CCDC's data processing and validation procedures.
#
#######################################################################

data_OHIDOZ
_symmetry_cell_setting           monoclinic
_symmetry_space_group_name_H-M   'P 21/c'
_symmetry_Int_Tables_number      14
_space_group_name_Hall           '-P 2ybc'
loop_
_symmetry_equiv_pos_site_id
_symmetry_equiv_pos_as_xyz
1 x,y,z
2 -x,1/2+y,1/2-z
3 -x,-y,-z
4 x,1/2-y,1/2+z
_cell_length_a                   15.194(3)
_cell_length_b                   20.024(4)
_cell_length_c                   20.223(4)
_cell_angle_alpha                90
_cell_angle_beta                 111.40(3)
_cell_angle_gamma                90
_cell_volume                     5728.54
loop_
_atom_site_label
_atom_site_type_symbol
_atom_site_fract_x
_atom_site_fract_y
_atom_site_fract_z
O19 O 0.2906(5) 0.4749(4) 0.6331(4)
C47 C 0.3538(10) 0.4148(7) 0.7389(7)
H49 H 0.4115 0.4003 0.7752
H50 H 0.3170 0.3765 0.7164
H51 H 0.3185 0.4416 0.7598
C48 C 0.3757(7) 0.4540(6) 0.6865(5)
H52 H 0.4131 0.4926 0.7091
H53 H 0.4121 0.4273 0.6656
C49 C 0.3079(11) 0.5080(8) 0.5674(8)
H54 H 0.3451 0.4771 0.5515
H55 H 0.2470 0.5124 0.5290
C50 C 0.3562(11) 0.5753(8) 0.5780(8)
H56 H 0.3623 0.5893 0.5345
H57 H 0.4177 0.5720 0.6146
H58 H 0.3191 0.6075 0.5917
O20 O 0.4609(18) 1.0125(15) 0.4731(13)
C51 C 0.388(2) 1.0388(18) 0.4967(18)
H60 H 0.3379 1.0575 0.4569
H61 H 0.4148 1.0730 0.5316
H62 H 0.3638 1.0035 0.5171
O20B O 0.5391(18) 0.9875(15) 0.5269(13)
C51B C 0.612(2) 0.9612(18) 0.5033(18)
H60B H 0.6621 0.9425 0.5431
H61B H 0.5852 0.9270 0.4684
H62B H 0.6362 0.9965 0.4829
Tb1 Tb 0.27113(2) 0.332886(17) 0.387693(17)
Tb2 Tb 0.13999(2) 0.478147(17) 0.284344(17)
Tb3 Tb -0.09967(3) 0.142984(19) 0.306559(19)
N1 N 0.3832(4) 0.2506(3) 0.4690(3)
N2 N 0.2631(4) 0.3341(3) 0.5099(3)
N3 N -0.0016(5) 0.6359(4) 0.0652(4)
N4 N 0.1313(6) 0.7396(4) 0.1259(4)
O1 O 0.4296(4) 0.2892(3) 0.2217(3)
O2 O 0.3587(4) 0.2914(3) 0.3299(3)
O3 O 0.1496(3) 0.4090(2) 0.3843(3)
O4 O 0.0005(3) 0.4814(2) 0.3260(3)
O5 O -0.0060(3) 0.4138(3) 0.2077(3)
O6 O 0.0386(3) 0.5314(3) 0.1756(2)
O7 O 0.2013(4) 0.7123(3) 0.2704(3)
O8 O 0.3215(5) 0.7554(3) 0.4039(3)
O9 O 0.1611(4) 0.2504(3) 0.3764(3)
O10 O 0.0325(5) 0.1977(4) 0.3113(4)
O11 O 0.1702(4) 0.3514(3) 0.2677(3)
O12 O 0.1780(4) 0.4243(3) 0.1884(3)
O13 O 0.3980(4) 0.4124(3) 0.4498(3)
O14 O 0.2985(3) 0.4423(2) 0.3452(2)
O15 O 0.1949(4) 0.5515(3) 0.3920(3)
O16 O 0.0889(3) 0.5977(3) 0.2988(3)
O17 O 0.2285(3) 0.5603(3) 0.2502(3)
O18 O 0.2148(4) 0.6012(3) 0.1463(3)
C1 C 0.4305(8) 0.3601(5) 0.2217(6)
H1 H 0.3949 0.3762 0.1748
H2 H 0.4945 0.3756 0.2360
H3 H 0.4028 0.3764 0.2543
C2 C 0.4794(6) 0.2612(4) 0.2878(4)
C3 C 0.5652(6) 0.2313(5) 0.2991(5)
H4 H 0.5898 0.2319 0.2631
C4 C 0.6151(7) 0.2009(5) 0.3622(6)
H5 H 0.6730 0.1809 0.3691
C5 C 0.5790(6) 0.1999(5) 0.4159(5)
H6 H 0.6127 0.1792 0.4589
C6 C 0.4912(6) 0.2301(4) 0.4054(4)
C7 C 0.4396(5) 0.2628(4) 0.3413(4)
C8 C 0.4581(6) 0.2249(4) 0.4640(5)
H7 H 0.4957 0.1999 0.5028
C9 C 0.3673(6) 0.2370(4) 0.5342(4)
H8 H 0.4233 0.2168 0.5687
H9 H 0.3151 0.2061 0.5249
C10 C 0.3450(6) 0.3018(4) 0.5632(4)
H10 H 0.3316 0.2929 0.6057
H11 H 0.3993 0.3314 0.5758
C11 C 0.1938(6) 0.3500(4) 0.5278(4)
H12 H 0.1997 0.3389 0.5739
C12 C 0.1068(5) 0.3833(4) 0.4855(4)
C13 C 0.0357(6) 0.3893(4) 0.5156(4)
H13 H 0.0460 0.3701 0.5597
C14 C -0.0462(6) 0.4222(4) 0.4820(4)
H14 H -0.0921 0.4242 0.5023
C15 C -0.0618(5) 0.4528(4) 0.4174(4)
H15 H -0.1180 0.4757 0.3943
C16 C 0.0063(5) 0.4493(3) 0.3877(4)
C17 C 0.0907(5) 0.4124(3) 0.4188(4)
C18 C -0.0864(5) 0.5156(4) 0.2876(4)
H16 H -0.0970 0.5498 0.3172
H17 H -0.1378 0.4843 0.2745
H18 H -0.0825 0.5355 0.2456
C19 C -0.0383(6) 0.3538(4) 0.2307(4)
H19 H -0.1061 0.3537 0.2135
H20 H -0.0138 0.3520 0.2816
H21 H -0.0166 0.3156 0.2122
C20 C -0.0547(5) 0.4357(4) 0.1388(4)
C21 C -0.1252(6) 0.3987(5) 0.0894(5)
H22 H -0.1441 0.3577 0.1013
C22 C -0.1676(7) 0.4251(5) 0.0204(5)
H23 H -0.2163 0.4019 -0.0136
C23 C -0.1378(7) 0.4844(5) 0.0032(5)
H24 H -0.1635 0.4993 -0.0435
C24 C -0.0702(6) 0.5234(4) 0.0531(4)
C25 C -0.0261(5) 0.4983(4) 0.1235(4)
C26 C -0.0501(6) 0.5880(5) 0.0292(4)
H25 H -0.0766 0.5953 -0.0195
C27 C -0.0024(7) 0.7015(6) 0.0286(5)
H26 H -0.0291 0.6953 -0.0225
H27 H -0.0417 0.7333 0.0414
C28 C 0.0932(8) 0.7275(5) 0.0492(5)
H28 H 0.0928 0.7688 0.0240
H29 H 0.1328 0.6956 0.0369
C29 C 0.1784(7) 0.7934(5) 0.1474(5)
H30 H 0.1782 0.8235 0.1123
C30 C 0.2316(6) 0.8128(4) 0.2191(5)
C31 C 0.2746(6) 0.8772(4) 0.2297(5)
H31 H 0.2673 0.9041 0.1906
C32 C 0.3264(7) 0.9001(5) 0.2961(5)
H32 H 0.3507 0.9433 0.3028
C33 C 0.3421(6) 0.8572(4) 0.3537(5)
H33 H 0.3788 0.8717 0.3990
C34 C 0.3043(6) 0.7939(4) 0.3447(5)
C35 C 0.2443(6) 0.7706(4) 0.2772(5)
C36 C 0.3695(7) 0.6938(5) 0.4038(6)
H34 H 0.3790 0.6700 0.4471
H35 H 0.4296 0.7030 0.4003
H36 H 0.3320 0.6671 0.3641
C37 C 0.1200(8) 0.2076(5) 0.3318(6)
C38 C 0.1724(14) 0.1728(10) 0.2940(11)
H37 H 0.2381 0.1846 0.3146
H38 H 0.1479 0.1856 0.2448
H39 H 0.1656 0.1254 0.2977
C39 C 0.1807(5) 0.3656(4) 0.2098(4)
C40 C 0.1949(7) 0.3080(5) 0.1661(5)
H40 H 0.2519 0.2846 0.1929
H41 H 0.1997 0.3250 0.1231
H42 H 0.1421 0.2780 0.1545
C41 C 0.3711(5) 0.4544(4) 0.4019(4)
C42 C 0.4205(6) 0.5199(4) 0.4073(5)
H43 H 0.4856 0.5152 0.4377
H44 H 0.3908 0.5528 0.4266
H45 H 0.4169 0.5337 0.3609
C43 C 0.1435(5) 0.6006(4) 0.3643(4)
C44 C 0.1428(6) 0.6637(4) 0.4042(5)
C45 C 0.2581(5) 0.5656(4) 0.1988(4)
C46 C 0.3480(6) 0.5305(5) 0.2037(5)
H46 H 0.3354 0.4839 0.1937
H47 H 0.3944 0.5358 0.2506
H48 H 0.3715 0.5495 0.1698
Tb1A Tb -0.27113(2) -0.167114(17) 0.112307(17)
Tb1A_2 Tb -0.27113(2) 0.832886(17) 0.112307(17)
Tb2A Tb -0.13999(2) -0.021853(17) 0.215656(17)
Tb3A Tb 0.09967(3) 0.642984(19) 0.193441(19)
N1A N -0.3832(4) -0.2494(3) 0.0310(3)
N2A N -0.2631(4) -0.1659(3) -0.0099(3)
N3A N 0.0016(5) 0.1359(4) 0.4348(4)
N4A N -0.1313(6) 0.2396(4) 0.3741(4)
O1A O -0.4296(4) -0.2108(3) 0.2783(3)
O2A O -0.3587(4) -0.2086(3) 0.1701(3)
O3A O -0.1496(3) -0.0910(2) 0.1157(3)
O4A O -0.0005(3) -0.0186(2) 0.1740(3)
O5A O 0.0060(3) -0.0862(3) 0.2923(3)
O6A O -0.0386(3) 0.0314(3) 0.3244(2)
O7A O -0.2013(4) 0.2123(3) 0.2296(3)
O8A O -0.3215(5) 0.2554(3) 0.0961(3)
O9A O -0.1611(4) 0.7504(3) 0.1236(3)
O9A_2 O -0.1611(4) -0.2496(3) 0.1236(3)
O10A O -0.0325(5) 0.6977(4) 0.1887(4)
O11A O -0.1702(4) -0.1486(3) 0.2323(3)
O12A O -0.1780(4) -0.0757(3) 0.3116(3)
O13A O -0.3980(4) -0.0876(3) 0.0502(3)
O14A O -0.2985(3) -0.0577(2) 0.1548(2)
O15A O -0.1949(4) 0.0515(3) 0.1080(3)
O16A O -0.0889(3) 0.0977(3) 0.2012(3)
O17A O -0.2285(3) 0.0603(3) 0.2498(3)
O18A O -0.2148(4) 0.1012(3) 0.3537(3)
C1A C -0.4305(8) -0.1399(5) 0.2783(6)
H1A H -0.3949 -0.1238 0.3252
H2A H -0.4945 -0.1244 0.2640
H3A H -0.4028 -0.1236 0.2457
C2A C -0.4794(6) -0.2388(4) 0.2122(4)
C3A C -0.5652(6) -0.2687(5) 0.2009(5)
H4A H -0.5898 -0.2681 0.2369
C4A C -0.6151(7) -0.2991(5) 0.1378(6)
H5A H -0.6730 -0.3191 0.1309
C5A C -0.5790(6) -0.3001(5) 0.0841(5)
H6A H -0.6127 -0.3208 0.0411
C6A C -0.4912(6) -0.2699(4) 0.0946(4)
C7A C -0.4396(5) -0.2372(4) 0.1587(4)
C8A C -0.4581(6) -0.2751(4) 0.0360(5)
H7A H -0.4957 -0.3001 -0.0028
C9A C -0.3673(6) -0.2630(4) -0.0342(4)
H8A H -0.4233 -0.2832 -0.0687
H9A H -0.3151 -0.2939 -0.0249
C10A C -0.3450(6) -0.1982(4) -0.0632(4)
H10A H -0.3316 -0.2071 -0.1057
H11A H -0.3993 -0.1686 -0.0758
C11A C -0.1938(6) -0.1500(4) -0.0278(4)
H12A H -0.1997 -0.1611 -0.0739
C12A C -0.1068(5) -0.1167(4) 0.0145(4)
C13A C -0.0357(6) -0.1107(4) -0.0156(4)
H13A H -0.0460 -0.1299 -0.0597
C14A C 0.0462(6) -0.0778(4) 0.0180(4)
H14A H 0.0921 -0.0758 -0.0023
C15A C 0.0618(5) -0.0472(4) 0.0826(4)
H15A H 0.1180 -0.0243 0.1057
C16A C -0.0063(5) -0.0507(3) 0.1123(4)
C17A C -0.0907(5) -0.0876(3) 0.0812(4)
C18A C 0.0864(5) 0.0156(4) 0.2124(4)
H16A H 0.0970 0.0498 0.1828
H17A H 0.1378 -0.0157 0.2255
H18A H 0.0825 0.0355 0.2544
C19A C 0.0383(6) -0.1462(4) 0.2693(4)
H19A H 0.1061 -0.1463 0.2865
H20A H 0.0138 -0.1480 0.2184
H21A H 0.0166 -0.1844 0.2878
C20A C 0.0547(5) -0.0643(4) 0.3612(4)
C21A C 0.1252(6) -0.1013(5) 0.4106(5)
H22A H 0.1441 -0.1423 0.3987
C22A C 0.1676(7) -0.0749(5) 0.4796(5)
H23A H 0.2163 -0.0981 0.5136
C23A C 0.1378(7) -0.0156(5) 0.4968(5)
H24A H 0.1635 -0.0007 0.5435
C24A C 0.0702(6) 0.0234(4) 0.4469(4)
C25A C 0.0261(5) -0.0017(4) 0.3765(4)
C26A C 0.0501(6) 0.0880(5) 0.4708(4)
H25A H 0.0766 0.0953 0.5195
C27A C 0.0024(7) 0.2015(6) 0.4714(5)
H26A H 0.0291 0.1953 0.5225
H27A H 0.0417 0.2333 0.4586
C28A C -0.0932(8) 0.2275(5) 0.4508(5)
H28A H -0.0928 0.2688 0.4760
H29A H -0.1328 0.1956 0.4631
C29A C -0.1784(7) 0.2934(5) 0.3526(5)
H30A H -0.1782 0.3235 0.3877
C30A C -0.2316(6) 0.3128(4) 0.2809(5)
C31A C -0.2746(6) 0.3772(4) 0.2703(5)
H31A H -0.2673 0.4041 0.3094
C32A C -0.3264(7) 0.4001(5) 0.2039(5)
H32A H -0.3507 0.4433 0.1972
C33A C -0.3421(6) 0.3572(4) 0.1463(5)
H33A H -0.3788 0.3717 0.1010
C34A C -0.3043(6) 0.2939(4) 0.1553(5)
C35A C -0.2443(6) 0.2706(4) 0.2228(5)
C36A C -0.3695(7) 0.1938(5) 0.0962(6)
H34A H -0.3790 0.1700 0.0529
H35A H -0.4296 0.2030 0.0997
H36A H -0.3320 0.1671 0.1359
C37A C -0.1200(8) 0.7076(5) 0.1682(6)
C38A C -0.1724(14) 0.6728(10) 0.2060(11)
H37A H -0.2381 0.6846 0.1854
H38A H -0.1479 0.6856 0.2552
H39A H -0.1656 0.6254 0.2023
C39A C -0.1807(5) -0.1344(4) 0.2902(4)
C40A C -0.1949(7) -0.1920(5) 0.3339(5)
H40A H -0.2519 -0.2154 0.3071
H41A H -0.1997 -0.1750 0.3769
H42A H -0.1421 -0.2220 0.3455
C41A C -0.3711(5) -0.0456(4) 0.0981(4)
C42A C -0.4205(6) 0.0199(4) 0.0927(5)
H43A H -0.4856 0.0152 0.0623
H44A H -0.3908 0.0528 0.0734
H45A H -0.4169 0.0337 0.1391
C43A C -0.1435(5) 0.1006(4) 0.1357(4)
C44A C -0.1428(6) 0.1637(4) 0.0958(5)
C45A C -0.2581(5) 0.0656(4) 0.3012(4)
C46A C -0.3480(6) 0.0305(5) 0.2963(5)
H46A H -0.3354 -0.0161 0.3063
H47A H -0.3944 0.0358 0.2494
H48A H -0.3715 0.0495 0.3302
H59? H 0.5028 0.9970 0.5105
loop_
_geom_bond_atom_site_label_1
_geom_bond_atom_site_label_2
_geom_bond_site_symmetry_1
_geom_bond_site_symmetry_2
Tb1 N1 1_555 1_555
Tb2 O3 1_555 1_555
Tb3 O10 1_555 1_555
N1 C8 1_555 1_555
N2 Tb1 1_555 1_555
N3 C26 1_555 1_555
N4 C28 1_555 1_555
O1 C1 1_555 1_555
O2 Tb1 1_555 1_555
O3 Tb1 1_555 1_555
O4 Tb2 1_555 1_555
O5 Tb2 1_555 1_555
O6 Tb2 1_555 1_555
O7 C35 1_555 1_555
O8 C34 1_555 1_555
O9 Tb1 1_555 1_555
O10 C37 1_555 1_555
O11 Tb1 1_555 1_555
O12 Tb2 1_555 1_555
O13 Tb1 1_555 1_555
O14 Tb1 1_555 1_555
O15 Tb2 1_555 1_555
O16 Tb2 1_555 1_555
O17 Tb2 1_555 1_555
O18 C45 1_555 1_555
C1 H1 1_555 1_555
H2 C1 1_555 1_555
H3 C1 1_555 1_555
C2 O1 1_555 1_555
C3 C2 1_555 1_555
H4 C3 1_555 1_555
C4 C3 1_555 1_555
H5 C4 1_555 1_555
C5 C4 1_555 1_555
H6 C5 1_555 1_555
C6 C5 1_555 1_555
C7 O2 1_555 1_555
C8 C6 1_555 1_555
H7 C8 1_555 1_555
C9 N1 1_555 1_555
H8 C9 1_555 1_555
H9 C9 1_555 1_555
C10 N2 1_555 1_555
H10 C10 1_555 1_555
H11 C10 1_555 1_555
C11 N2 1_555 1_555
H12 C11 1_555 1_555
C12 C11 1_555 1_555
C13 C12 1_555 1_555
H13 C13 1_555 1_555
C14 C13 1_555 1_555
H14 C14 1_555 1_555
C15 C14 1_555 1_555
H15 C15 1_555 1_555
C16 O4 1_555 1_555
C17 O3 1_555 1_555
C18 O4 1_555 1_555
H16 C18 1_555 1_555
H17 C18 1_555 1_555
H18 C18 1_555 1_555
C19 O5 1_555 1_555
H19 C19 1_555 1_555
H20 C19 1_555 1_555
H21 C19 1_555 1_555
C20 O5 1_555 1_555
C21 C20 1_555 1_555
H22 C21 1_555 1_555
C22 C21 1_555 1_555
H23 C22 1_555 1_555
C23 C22 1_555 1_555
H24 C23 1_555 1_555
C24 C23 1_555 1_555
C25 O6 1_555 1_555
C26 C24 1_555 1_555
H25 C26 1_555 1_555
C27 N3 1_555 1_555
H26 C27 1_555 1_555
H27 C27 1_555 1_555
C28 C27 1_555 1_555
H28 C28 1_555 1_555
H29 C28 1_555 1_555
C29 N4 1_555 1_555
H30 C29 1_555 1_555
C30 C29 1_555 1_555
C31 C30 1_555 1_555
H31 C31 1_555 1_555
C32 C31 1_555 1_555
H32 C32 1_555 1_555
C33 C32 1_555 1_555
H33 C33 1_555 1_555
C34 C33 1_555 1_555
C35 C30 1_555 1_555
C36 O8 1_555 1_555
H34 C36 1_555 1_555
H35 C36 1_555 1_555
H36 C36 1_555 1_555
C37 O9 1_555 1_555
C38 C37 1_555 1_555
H37 C38 1_555 1_555
H38 C38 1_555 1_555
H39 C38 1_555 1_555
C39 O11 1_555 1_555
C40 C39 1_555 1_555
H40 C40 1_555 1_555
H41 C40 1_555 1_555
H42 C40 1_555 1_555
C41 O13 1_555 1_555
C42 C41 1_555 1_555
H43 C42 1_555 1_555
H44 C42 1_555 1_555
H45 C42 1_555 1_555
C43 O15 1_555 1_555
C44 C43 1_555 1_555
C45 O17 1_555 1_555
C46 C45 1_555 1_555
H46 C46 1_555 1_555
H47 C46 1_555 1_555
H48 C46 1_555 1_555
O19 C48 1_555 1_555
C47 H49 1_555 1_555
H50 C47 1_555 1_555
H51 C47 1_555 1_555
C48 C47 1_555 1_555
H52 C48 1_555 1_555
H53 C48 1_555 1_555
C49 O19 1_555 1_555
H54 C49 1_555 1_555
H55 C49 1_555 1_555
C50 C49 1_555 1_555
H56 C50 1_555 1_555
H57 C50 1_555 1_555
H58 C50 1_555 1_555
O20 C51 1_555 1_555
C51 H60 1_555 1_555
H61 C51 1_555 1_555
H62 C51 1_555 1_555
Tb1A N1A 1_555 1_555
Tb1A_2 O9A 1_555 1_555
Tb2A O3A 1_555 1_555
Tb3A N3 1_555 1_555
N1A C8A 1_555 1_555
N2A Tb1A 1_555 1_555
N3A Tb3 1_555 1_555
N4A Tb3 1_555 1_555
O1A C1A 1_555 1_555
O2A Tb1A 1_555 1_555
O3A Tb1A 1_555 1_555
O4A Tb2A 1_555 1_555
O5A Tb2A 1_555 1_555
O6A Tb3 1_555 1_555
O7A Tb3 1_555 1_555
O8A C34A 1_555 1_555
O9A C37A 1_555 1_555
O9A_2 Tb1A 1_555 1_555
O10A Tb3A 1_555 1_555
O11A Tb1A 1_555 1_555
O12A Tb2A 1_555 1_555
O13A Tb1A 1_555 1_555
O14A Tb1A 1_555 1_555
O15A Tb2A 1_555 1_555
O16A Tb3 1_555 1_555
O17A Tb3 1_555 1_555
O18A Tb3 1_555 1_555
C1A H1A 1_555 1_555
H2A C1A 1_555 1_555
H3A C1A 1_555 1_555
C2A O1A 1_555 1_555
C3A C2A 1_555 1_555
H4A C3A 1_555 1_555
C4A C3A 1_555 1_555
H5A C4A 1_555 1_555
C5A C4A 1_555 1_555
H6A C5A 1_555 1_555
C6A C5A 1_555 1_555
C7A O2A 1_555 1_555
C8A C6A 1_555 1_555
H7A C8A 1_555 1_555
C9A N1A 1_555 1_555
H8A C9A 1_555 1_555
H9A C9A 1_555 1_555
C10A N2A 1_555 1_555
H10A C10A 1_555 1_555
H11A C10A 1_555 1_555
C11A N2A 1_555 1_555
H12A C11A 1_555 1_555
C12A C11A 1_555 1_555
C13A C12A 1_555 1_555
H13A C13A 1_555 1_555
C14A C13A 1_555 1_555
H14A C14A 1_555 1_555
C15A C14A 1_555 1_555
H15A C15A 1_555 1_555
C16A O4A 1_555 1_555
C17A O3A 1_555 1_555
C18A O4A 1_555 1_555
H16A C18A 1_555 1_555
H17A C18A 1_555 1_555
H18A C18A 1_555 1_555
C19A O5A 1_555 1_555
H19A C19A 1_555 1_555
H20A C19A 1_555 1_555
H21A C19A 1_555 1_555
C20A O5A 1_555 1_555
C21A C20A 1_555 1_555
H22A C21A 1_555 1_555
C22A C21A 1_555 1_555
H23A C22A 1_555 1_555
C23A C22A 1_555 1_555
H24A C23A 1_555 1_555
C24A C23A 1_555 1_555
C25A O6A 1_555 1_555
C26A N3A 1_555 1_555
H25A C26A 1_555 1_555
C27A N3A 1_555 1_555
H26A C27A 1_555 1_555
H27A C27A 1_555 1_555
C28A N4A 1_555 1_555
H28A C28A 1_555 1_555
H29A C28A 1_555 1_555
C29A N4A 1_555 1_555
H30A C29A 1_555 1_555
C30A C29A 1_555 1_555
C31A C30A 1_555 1_555
H31A C31A 1_555 1_555
C32A C31A 1_555 1_555
H32A C32A 1_555 1_555
C33A C32A 1_555 1_555
H33A C33A 1_555 1_555
C34A C33A 1_555 1_555
C35A O7A 1_555 1_555
C36A O8A 1_555 1_555
H34A C36A 1_555 1_555
H35A C36A 1_555 1_555
H36A C36A 1_555 1_555
C37A O10A 1_555 1_555
C38A C37A 1_555 1_555
H37A C38A 1_555 1_555
H38A C38A 1_555 1_555
H39A C38A 1_555 1_555
C39A O11A 1_555 1_555
C40A C39A 1_555 1_555
H40A C40A 1_555 1_555
H41A C40A 1_555 1_555
H42A C40A 1_555 1_555
C41A O13A 1_555 1_555
C42A C41A 1_555 1_555
H43A C42A 1_555 1_555
H44A C42A 1_555 1_555
H45A C42A 1_555 1_555
C43A O15A 1_555 1_555
C44A C43A 1_555 1_555
C45A O17A 1_555 1_555
C46A C45A 1_555 1_555
H46A C46A 1_555 1_555
H47A C46A 1_555 1_555
H48A C46A 1_555 1_555
O20B O20 1_555 1_555
C51B O20B 1_555 1_555
H60B C51B 1_555 1_555
H61B C51B 1_555 1_555
H62B C51B 1_555 1_555
Tb2 O11 1_555 1_555
Tb2 O14 1_555 1_555
N4 Tb3A 1_555 1_555
O6 Tb3A 1_555 1_555
O7 Tb3A 1_555 1_555
O12 C39 1_555 1_555
O14 C41 1_555 1_555
O16 C43 1_555 1_555
O16 Tb3A 1_555 1_555
O17 Tb3A 1_555 1_555
O18 Tb3A 1_555 1_555
C2 C7 1_555 1_555
C6 C7 1_555 1_555
C9 C10 1_555 1_555
C12 C17 1_555 1_555
C15 C16 1_555 1_555
C16 C17 1_555 1_555
C20 C25 1_555 1_555
C24 C25 1_555 1_555
C34 C35 1_555 1_555
Tb2A O6A 1_555 1_555
Tb2A O11A 1_555 1_555
Tb2A O14A 1_555 1_555
Tb2A O16A 1_555 1_555
Tb2A O17A 1_555 1_555
O12A C39A 1_555 1_555
O14A C41A 1_555 1_555
O16A C43A 1_555 1_555
O18A C45A 1_555 1_555
C2A C7A 1_555 1_555
C6A C7A 1_555 1_555
C9A C10A 1_555 1_555
C12A C17A 1_555 1_555
C15A C16A 1_555 1_555
C16A C17A 1_555 1_555
C20A C25A 1_555 1_555
C24A C25A 1_555 1_555
C24A C26A 1_555 1_555
C27A C28A 1_555 1_555
C30A C35A 1_555 1_555
C34A C35A 1_555 1_555

#END
