
#######################################################################
#
#                 Cambridge Crystallographic Data Centre
#                                CCDC 
#
#######################################################################
#
# If this CIF has been generated from an entry in the Cambridge 
# Structural Database, then it will include bibliographic, chemical, 
# crystal, experimental, refinement or atomic coordinate data resulting 
# from the CCDC's data processing and validation procedures.
#
#######################################################################

data_OHIFOA
_symmetry_cell_setting           monoclinic
_symmetry_space_group_name_H-M   'P 21/c'
_symmetry_Int_Tables_number      14
_space_group_name_Hall           '-P 2ybc'
loop_
_symmetry_equiv_pos_site_id
_symmetry_equiv_pos_as_xyz
1 x,y,z
2 x,1/2-y,1/2+z
3 -x,-y,-z
4 -x,1/2+y,1/2-z
_cell_length_a                   11.9885(10)
_cell_length_b                   16.0899(11)
_cell_length_c                   7.3291(7)
_cell_angle_alpha                90
_cell_angle_beta                 105.701(10)
_cell_angle_gamma                90
_cell_volume                     1360.99
loop_
_atom_site_label
_atom_site_type_symbol
_atom_site_fract_x
_atom_site_fract_y
_atom_site_fract_z
Cu1 Cu 0.447978(19) 0.339108(17) 0.60279(3)
Cl1 Cl 0.46393(4) 0.21471(4) 0.47133(7)
N1 N 0.27717(15) 0.33976(12) 0.5509(2)
C1 C 0.20032(19) 0.28121(17) 0.4651(3)
H1 H 0.229(2) 0.2342(18) 0.413(4)
C2 C 0.0839(2) 0.28933(19) 0.4438(4)
H2 H 0.030(3) 0.247(2) 0.381(4)
C3 C 0.0437(2) 0.35996(19) 0.5146(4)
H3 H -0.029(3) 0.3641(19) 0.500(4)
C4 C 0.11972(19) 0.42024(18) 0.6014(3)
H4 H 0.099(2) 0.4665(19) 0.647(4)
C5 C 0.23736(18) 0.40868(15) 0.6149(3)
N2 N 0.31653(15) 0.46725(14) 0.6940(3)
H5 H 0.299(2) 0.5116(19) 0.734(4)
N3 N 0.42860(14) 0.45117(12) 0.6960(2)
C6 C 0.50633(18) 0.50720(15) 0.7601(3)
H6 H 0.482(2) 0.5609(18) 0.797(4)
C7 C 0.62716(17) 0.49553(14) 0.7732(3)
C8 C 0.7028(2) 0.56123(16) 0.8479(3)
H7 H 0.676(2) 0.6063(18) 0.886(4)
C9 C 0.8193(2) 0.55546(17) 0.8707(3)
H8 H 0.869(2) 0.6005(18) 0.926(4)
C10 C 0.86451(19) 0.48306(16) 0.8183(3)
H9 H 0.943(3) 0.4791(17) 0.834(4)
C11 C 0.79283(18) 0.41742(15) 0.7431(3)
H10 H 0.825(2) 0.3681(18) 0.708(4)
C12 C 0.67307(17) 0.42213(14) 0.7173(3)
O1 O 0.60989(13) 0.35628(10) 0.6433(2)
Cl1A Cl 0.46393(4) 0.28529(4) 0.97133(7)
Cu1A Cu 0.447978(19) 0.160892(17) 0.10279(3)
O2 O 0.72437(15) 0.23773(13) 0.9214(3)
H11 H 0.681(2) 0.2657(19) 0.846(4)
H12 H 0.687(3) 0.218(2) 0.979(4)
O3 O 0.22434(17) 0.61114(14) 0.7866(3)
H13 H 0.243(3) 0.657(2) 0.719(6)
H14 H 0.221(3) 0.626(3) 0.865(6)
loop_
_geom_bond_atom_site_label_1
_geom_bond_atom_site_label_2
_geom_bond_site_symmetry_1
_geom_bond_site_symmetry_2
Cu1 Cl1 1_555 1_555
Cl1 Cu1A 1_555 1_555
N1 Cu1 1_555 1_555
C1 N1 1_555 1_555
H1 C1 1_555 1_555
C2 C1 1_555 1_555
H2 C2 1_555 1_555
C3 C2 1_555 1_555
H3 C3 1_555 1_555
C4 C3 1_555 1_555
H4 C4 1_555 1_555
C5 N1 1_555 1_555
N2 C5 1_555 1_555
H5 N2 1_555 1_555
N3 Cu1 1_555 1_555
C6 N3 1_555 1_555
H6 C6 1_555 1_555
C7 C6 1_555 1_555
C8 C7 1_555 1_555
H7 C8 1_555 1_555
C9 C8 1_555 1_555
H8 C9 1_555 1_555
C10 C9 1_555 1_555
H9 C10 1_555 1_555
C11 C10 1_555 1_555
H10 C11 1_555 1_555
C12 C7 1_555 1_555
O1 Cu1 1_555 1_555
O2 H11 1_555 1_555
H12 O2 1_555 1_555
O3 H13 1_555 1_555
H14 O3 1_555 1_555
Cl1A Cu1 1_555 1_555
C4 C5 1_555 1_555
N2 N3 1_555 1_555
C11 C12 1_555 1_555
C12 O1 1_555 1_555

#END
