
#######################################################################
#
#                 Cambridge Crystallographic Data Centre
#                                CCDC 
#
#######################################################################
#
# If this CIF has been generated from an entry in the Cambridge 
# Structural Database, then it will include bibliographic, chemical, 
# crystal, experimental, refinement or atomic coordinate data resulting 
# from the CCDC's data processing and validation procedures.
#
#######################################################################

data_OHIHUJ
_symmetry_cell_setting           orthorhombic
_symmetry_space_group_name_H-M   'P n a 21'
_symmetry_Int_Tables_number      33
_space_group_name_Hall           'P 2c -2n'
loop_
_symmetry_equiv_pos_site_id
_symmetry_equiv_pos_as_xyz
1 x,y,z
2 -x,-y,1/2+z
3 1/2+x,1/2-y,z
4 1/2-x,1/2+y,1/2+z
_cell_length_a                   10.158(3)
_cell_length_b                   13.269(4)
_cell_length_c                   14.470(4)
_cell_angle_alpha                90
_cell_angle_beta                 90
_cell_angle_gamma                90
_cell_volume                     1950.36
loop_
_atom_site_label
_atom_site_type_symbol
_atom_site_fract_x
_atom_site_fract_y
_atom_site_fract_z
La1 La 1.00135(3) 0.842361(13) 0.69621(10)
O1 O 0.9690(4) 0.6435(2) 0.7071(5)
H1 H 0.8911 0.6296 0.6993
H2 H 0.9916 0.6112 0.7538
O2 O 1.2252(4) 0.9740(3) 0.6886(5)
O3 O 1.0663(4) 0.9971(3) 0.7923(3)
O4 O 1.3407(6) 1.2876(4) 1.0829(3)
O5 O 1.1535(6) 1.2045(4) 1.0720(3)
O6 O 0.8451(6) 0.8036(4) 0.8195(3)
O7 O 0.6593(6) 0.7157(4) 0.8117(3)
O8 O 0.5379(4) 0.4977(3) 1.0877(3)
O9 O 0.6877(3) 0.4821(3) 1.1966(4)
C1 C 1.2615(5) 1.0947(4) 0.8099(4)
C2 C 1.2246(5) 1.1267(4) 0.8978(4)
H3 H 1.1474 1.1025 0.9243
C3 C 1.3023(5) 1.1945(4) 0.9462(4)
C4 C 1.4178(6) 1.2299(4) 0.9067(4)
H4 H 1.4715 1.2739 0.9395
C5 C 1.4532(6) 1.1999(5) 0.8186(4)
H5 H 1.5297 1.2252 0.7920
C6 C 1.3764(6) 1.1332(4) 0.7703(4)
H6 H 1.4008 1.1135 0.7110
C7 C 1.1784(6) 1.0176(4) 0.7613(4)
C8 C 1.2621(6) 1.2315(5) 1.0418(5)
C9 C 0.7760(5) 0.7174(4) 0.9531(3)
C10 C 0.7021(5) 0.6401(4) 0.9918(4)
H7 H 0.6397 0.6072 0.9559
C11 C 0.7196(5) 0.6110(4) 1.0834(4)
C12 C 0.8093(6) 0.6643(4) 1.1376(4)
H8 H 0.8198 0.6472 1.1995
C13 C 0.8824(7) 0.7416(5) 1.1009(4)
H9 H 0.9428 0.7757 1.1377
C14 C 0.8662(6) 0.7692(4) 1.0086(4)
H10 H 0.9152 0.8220 0.9840
C15 C 0.7580(5) 0.7464(3) 0.8541(5)
C16 C 0.6442(6) 0.5250(4) 1.1259(4)
La1C La 1.49865(3) 1.342361(13) 1.19621(10)
La1A La 0.99865(3) 1.157639(13) 1.19621(10)
La1B La 0.50135(3) 0.657639(13) 0.69621(10)
La1C_2 La 0.49865(3) 0.342361(13) 1.19621(10)
O4C O 1.1593(6) 0.7876(4) 0.5829(3)
O5A O 0.8465(6) 0.7955(4) 0.5720(3)
O7B O 1.1593(6) 0.7843(4) 0.8117(3)
O8C O 0.9621(4) 0.9977(3) 0.5877(3)
O9C O 0.8123(3) 0.9821(3) 0.6966(4)
C17 C 1.2485(5) 0.9965(5) 1.4335(4)
C18 C 1.4488(7) 1.0285(6) 1.4770(5)
H11 H 1.5219 1.0374 1.5148
N1 N 1.4511(6) 1.0386(4) 1.3873(4)
N2 N 1.3245(5) 1.0149(4) 1.3618(4)
H12 H 1.2979 1.0124 1.3054
N3 N 1.3266(6) 1.0033(4) 1.5089(4)
H13 H 1.3039 0.9938 1.5655
N4 N 1.1226(5) 0.9761(3) 1.4311(4)
H14 H 1.0820 0.9737 1.3790
H15 H 1.0804 0.9649 1.4816
loop_
_geom_bond_atom_site_label_1
_geom_bond_atom_site_label_2
_geom_bond_site_symmetry_1
_geom_bond_site_symmetry_2
La1 O1 1_555 1_555
O1 H1 1_555 1_555
H2 O1 1_555 1_555
O2 La1 1_555 1_555
O3 La1 1_555 1_555
O4 C8 1_555 1_555
O5 C8 1_555 1_555
O6 La1 1_555 1_555
O7 C15 1_555 1_555
O8 C16 1_555 1_555
O9 C16 1_555 1_555
C1 C2 1_555 1_555
C2 H3 1_555 1_555
C3 C2 1_555 1_555
C4 C3 1_555 1_555
H4 C4 1_555 1_555
C5 C4 1_555 1_555
H5 C5 1_555 1_555
C6 C1 1_555 1_555
H6 C6 1_555 1_555
C7 O2 1_555 1_555
C8 C3 1_555 1_555
C9 C10 1_555 1_555
C10 H7 1_555 1_555
C11 C10 1_555 1_555
C12 C11 1_555 1_555
H8 C12 1_555 1_555
C13 C12 1_555 1_555
H9 C13 1_555 1_555
C14 C9 1_555 1_555
H10 C14 1_555 1_555
C15 O6 1_555 1_555
C16 C11 1_555 1_555
C17 N2 1_555 1_555
C18 H11 1_555 1_555
N1 C18 1_555 1_555
N2 N1 1_555 1_555
H12 N2 1_555 1_555
N3 C17 1_555 1_555
H13 N3 1_555 1_555
N4 C17 1_555 1_555
H14 N4 1_555 1_555
H15 N4 1_555 1_555
La1C O4 1_555 1_555
La1A O5 1_555 1_555
La1B O7 1_555 1_555
La1C_2 O8 1_555 1_555
O4C La1 1_555 1_555
O5A La1 1_555 1_555
O7B La1 1_555 1_555
O8C La1 1_555 1_555
O9C La1 1_555 1_555
O3 C7 1_555 1_555
O9 La1C_2 1_555 1_555
C1 C7 1_555 1_555
C5 C6 1_555 1_555
C9 C15 1_555 1_555
C13 C14 1_555 1_555
C18 N3 1_555 1_555

#END
