
#######################################################################
#
#                 Cambridge Crystallographic Data Centre
#                                CCDC 
#
#######################################################################
#
# If this CIF has been generated from an entry in the Cambridge 
# Structural Database, then it will include bibliographic, chemical, 
# crystal, experimental, refinement or atomic coordinate data resulting 
# from the CCDC's data processing and validation procedures.
#
#######################################################################

data_OHIHOD
_symmetry_cell_setting           orthorhombic
_symmetry_space_group_name_H-M   'P n a 21'
_symmetry_Int_Tables_number      33
_space_group_name_Hall           'P 2c -2n'
loop_
_symmetry_equiv_pos_site_id
_symmetry_equiv_pos_as_xyz
1 x,y,z
2 -x,-y,1/2+z
3 1/2+x,1/2-y,z
4 1/2-x,1/2+y,1/2+z
_cell_length_a                   9.987(3)
_cell_length_b                   13.172(4)
_cell_length_c                   14.290(4)
_cell_angle_alpha                90
_cell_angle_beta                 90
_cell_angle_gamma                90
_cell_volume                     1879.83
loop_
_atom_site_label
_atom_site_type_symbol
_atom_site_fract_x
_atom_site_fract_y
_atom_site_fract_z
Tb1 Tb 1.00089(3) 0.843884(17) 0.69639(15)
O1 O 0.9725(6) 0.6505(3) 0.7025(14)
H1 H 0.8935 0.6360 0.6946
H2 H 0.9952 0.6182 0.7492
O2 O 1.2291(5) 0.9719(4) 0.6890(7)
O3 O 1.0673(5) 0.9933(4) 0.7925(4)
O4 O 1.3453(8) 1.2886(5) 1.0848(4)
O5 O 1.1554(8) 1.2035(6) 1.0777(4)
O6 O 0.8471(8) 0.8041(6) 0.8157(5)
O7 O 0.6592(8) 0.7149(5) 0.8050(5)
O8 O 0.5299(5) 0.4936(4) 1.0858(4)
O9 O 0.6823(5) 0.4808(3) 1.1963(7)
C1 C 1.2649(7) 1.0924(5) 0.8114(5)
C2 C 1.2267(6) 1.1247(5) 0.9010(5)
H3 H 1.1477 1.1010 0.9276
C3 C 1.3070(7) 1.1920(5) 0.9495(5)
C4 C 1.4233(8) 1.2269(5) 0.9099(5)
H4 H 1.4779 1.2712 0.9433
C5 C 1.4596(9) 1.1972(7) 0.8217(7)
H5 H 1.5378 1.2223 0.7950
C6 C 1.3805(8) 1.1303(6) 0.7721(5)
H6 H 1.4052 1.1107 0.7120
C7 C 1.1818(8) 1.0148(6) 0.7606(6)
C8 C 1.2664(8) 1.2295(6) 1.0470(7)
C9 C 0.7717(6) 0.7187(5) 0.9505(5)
C10 C 0.6956(7) 0.6394(5) 0.9899(5)
H7 H 0.6341 0.6046 0.9530
C11 C 0.7115(7) 0.6127(5) 1.0825(5)
C12 C 0.7972(8) 0.6676(6) 1.1382(6)
H8 H 0.8059 0.6503 1.2010
C13 C 0.8713(10) 0.7485(7) 1.1030(6)
H9 H 0.9291 0.7849 1.1414
C14 C 0.8571(7) 0.7735(6) 1.0096(5)
H10 H 0.9053 0.8279 0.9854
C15 C 0.7572(6) 0.7477(4) 0.8521(7)
C16 C 0.6369(7) 0.5235(5) 1.1250(5)
Tb1C Tb 1.49911(3) 1.343884(17) 1.19639(15)
Tb1A Tb 0.99911(3) 1.156116(17) 1.19639(15)
Tb1B Tb 0.50089(3) 0.656116(17) 0.69639(15)
Tb1C_2 Tb 0.49911(3) 0.343884(17) 1.19639(15)
O4C O 1.1547(8) 0.7886(5) 0.5848(4)
O5A O 0.8446(8) 0.7965(6) 0.5777(4)
O7B O 1.1592(8) 0.7851(5) 0.8050(5)
O8C O 0.9701(5) 0.9936(4) 0.5858(4)
O9C O 0.8177(5) 0.9808(3) 0.6963(7)
C17 C 1.2563(8) 0.9953(7) 1.4326(7)
C18 C 1.4576(10) 1.0336(8) 1.4770(9)
H11 H 1.5312 1.0442 1.5156
N1 N 1.4585(8) 1.0460(7) 1.3872(7)
N2 N 1.3343(7) 1.0201(5) 1.3603(5)
H12 H 1.3080 1.0195 1.3030
N3 N 1.3335(8) 1.0026(5) 1.5081(5)
H13 H 1.3106 0.9904 1.5650
N4 N 1.1309(7) 0.9704(5) 1.4275(5)
H14 H 1.0871 0.9559 1.4776
H15 H 1.0915 0.9683 1.3740
loop_
_geom_bond_atom_site_label_1
_geom_bond_atom_site_label_2
_geom_bond_site_symmetry_1
_geom_bond_site_symmetry_2
Tb1 O1 1_555 1_555
O1 H1 1_555 1_555
H2 O1 1_555 1_555
O2 Tb1 1_555 1_555
O3 Tb1 1_555 1_555
O4 C8 1_555 1_555
O5 C8 1_555 1_555
O6 Tb1 1_555 1_555
O7 C15 1_555 1_555
O8 C16 1_555 1_555
O9 C16 1_555 1_555
C1 C2 1_555 1_555
C2 H3 1_555 1_555
C3 C2 1_555 1_555
C4 C3 1_555 1_555
H4 C4 1_555 1_555
C5 C4 1_555 1_555
H5 C5 1_555 1_555
C6 C1 1_555 1_555
H6 C6 1_555 1_555
C7 O2 1_555 1_555
C8 C3 1_555 1_555
C9 C10 1_555 1_555
C10 H7 1_555 1_555
C11 C10 1_555 1_555
C12 C11 1_555 1_555
H8 C12 1_555 1_555
C13 C12 1_555 1_555
H9 C13 1_555 1_555
C14 C9 1_555 1_555
H10 C14 1_555 1_555
C15 O6 1_555 1_555
C16 C11 1_555 1_555
C17 N2 1_555 1_555
C18 H11 1_555 1_555
N1 C18 1_555 1_555
N2 N1 1_555 1_555
H12 N2 1_555 1_555
N3 C17 1_555 1_555
H13 N3 1_555 1_555
N4 C17 1_555 1_555
H14 N4 1_555 1_555
H15 N4 1_555 1_555
Tb1C O4 1_555 1_555
Tb1A O5 1_555 1_555
Tb1B O7 1_555 1_555
Tb1C_2 O8 1_555 1_555
O4C Tb1 1_555 1_555
O5A Tb1 1_555 1_555
O7B Tb1 1_555 1_555
O8C Tb1 1_555 1_555
O9C Tb1 1_555 1_555
O3 C7 1_555 1_555
O9 Tb1C_2 1_555 1_555
C1 C7 1_555 1_555
C5 C6 1_555 1_555
C9 C15 1_555 1_555
C13 C14 1_555 1_555
C18 N3 1_555 1_555

#END
