
#######################################################################
#
#                 Cambridge Crystallographic Data Centre
#                                CCDC 
#
#######################################################################
#
# If this CIF has been generated from an entry in the Cambridge 
# Structural Database, then it will include bibliographic, chemical, 
# crystal, experimental, refinement or atomic coordinate data resulting 
# from the CCDC's data processing and validation procedures.
#
#######################################################################

data_OHILUN
_symmetry_cell_setting           hexagonal
_symmetry_space_group_name_H-M   'P 61'
_symmetry_Int_Tables_number      169
_space_group_name_Hall           'P 61'
loop_
_symmetry_equiv_pos_site_id
_symmetry_equiv_pos_as_xyz
1 x,y,z
2 -y,x-y,1/3+z
3 -x+y,-x,2/3+z
4 -x,-y,1/2+z
5 y,-x+y,5/6+z
6 x-y,x,1/6+z
_cell_length_a                   12.26270(10)
_cell_length_b                   12.26270(10)
_cell_length_c                   43.0285(9)
_cell_angle_alpha                90
_cell_angle_beta                 90
_cell_angle_gamma                120
_cell_volume                     5603.5
loop_
_atom_site_label
_atom_site_type_symbol
_atom_site_fract_x
_atom_site_fract_y
_atom_site_fract_z
Cd1 Cd -0.14327(4) 0.81964(4) 0.125679(9)
Cd2 Cd -0.07116(3) 0.81897(4) 0.210240(8)
N1 N 0.1358(4) 0.9004(4) 0.19920(10)
N2 N 0.2902(4) 0.9497(4) 0.16645(10)
N3 N 0.7645(4) 1.1955(4) 0.07466(11)
N4 N 0.7571(4) 1.0295(4) 0.05393(10)
O1 O -0.1016(4) 0.6202(4) 0.12309(9)
O2 O -0.1326(4) 0.6955(3) 0.16606(9)
O3 O -0.0258(3) 0.7266(3) 0.25129(9)
O4 O -0.0613(4) 0.5983(3) 0.29059(8)
O5 O 0.0624(4) 0.9000(4) 0.10543(8)
O6 O -0.0331(3) 0.9895(3) 0.08344(9)
O7 O -0.0498(3) 1.0271(3) 0.00326(7)
O8 O -0.0435(4) 1.1834(4) -0.02297(9)
C1 C -0.0891(5) 0.6363(5) 0.15167(13)
C2 C -0.0086(5) 0.5958(4) 0.16867(11)
C3 C 0.1056(5) 0.6232(5) 0.15494(13)
H1 H 0.1229 0.6549 0.1348
C4 C 0.1922(6) 0.6048(5) 0.17023(15)
H2 H 0.2677 0.6244 0.1606
C5 C 0.1679(5) 0.5574(6) 0.19971(14)
H3 H 0.2274 0.5461 0.2104
C6 C 0.0543(5) 0.5264(5) 0.21353(12)
H4 H 0.0382 0.4929 0.2335
C7 C -0.0357(5) 0.5434(4) 0.19881(11)
C8 C -0.1628(4) 0.4886(4) 0.21310(11)
C9 C -0.2654(5) 0.3959(5) 0.19709(12)
H5 H -0.2546 0.3795 0.1766
C10 C -0.3828(5) 0.3272(5) 0.21041(14)
H6 H -0.4507 0.2680 0.1988
C11 C -0.3979(5) 0.3481(6) 0.24153(15)
H7 H -0.4755 0.3000 0.2512
C12 C -0.2973(5) 0.4406(5) 0.25801(13)
H8 H -0.3083 0.4552 0.2787
C13 C -0.1803(5) 0.5120(5) 0.24417(11)
C14 C -0.0806(5) 0.6166(5) 0.26346(12)
C15 C 0.0564(5) 0.9694(5) 0.08459(12)
C16 C 0.1564(4) 1.0210(5) 0.05963(11)
C17 C 0.2214(5) 0.9573(5) 0.05374(12)
H9 H 0.2070 0.8896 0.0663
C18 C 0.3068(5) 0.9926(6) 0.02968(14)
H10 H 0.3520 0.9512 0.0266
C19 C 0.3246(5) 1.0887(6) 0.01051(14)
H11 H 0.3803 1.1112 -0.0061
C20 C 0.2604(5) 1.1522(5) 0.01569(13)
H12 H 0.2719 1.2162 0.0021
C21 C 0.1780(4) 1.1231(5) 0.04093(15)
C22 C 0.1287(5) 1.2105(4) 0.04764(12)
C23 C 0.1768(5) 1.2866(5) 0.07369(13)
H13 H 0.2266 1.2729 0.0876
C24 C 0.1513(6) 1.3824(5) 0.07905(15)
H14 H 0.1826 1.4320 0.0968
C25 C 0.0797(6) 1.4047(5) 0.05821(15)
H15 H 0.0639 1.4705 0.0616
C26 C 0.0310(5) 1.3293(5) 0.03216(13)
H16 H -0.0173 1.3448 0.0181
C27 C 0.0536(5) 1.2312(5) 0.02695(12)
C28 C -0.0152(5) 1.1439(6) 0.00025(13)
C29 C 0.1741(5) 0.9309(5) 0.17045(13)
H17 H 0.1262 0.9385 0.1548
C30 C 0.2333(5) 0.9013(5) 0.21484(13)
H18 H 0.2340 0.8838 0.2359
C31 C 0.3284(6) 0.9320(6) 0.19462(14)
H19 H 0.4060 0.9395 0.1992
C32 C 0.3552(6) 0.9726(6) 0.13672(12)
H20 H 0.2929 0.9416 0.1202
H21 H 0.3985 0.9247 0.1361
C33 C 0.4491(5) 1.1089(5) 0.13055(11)
C34 C 0.4208(6) 1.2035(6) 0.13360(12)
H22 H 0.3422 1.1850 0.1411
C35 C 0.5060(5) 1.3234(5) 0.12586(13)
H23 H 0.4848 1.3860 0.1279
C36 C 0.6235(5) 1.3543(5) 0.11500(12)
H24 H 0.6818 1.4375 0.1102
C37 C 0.6547(5) 1.2615(5) 0.11127(12)
C38 C 0.5679(5) 1.1389(5) 0.11951(12)
H25 H 0.5890 1.0761 0.1177
C39 C 0.7797(6) 1.2875(6) 0.09818(15)
H26 H 0.8225 1.3710 0.0891
H27 H 0.8319 1.2858 0.1149
C40 C 0.7022(7) 1.1741(6) 0.04706(16)
H28 H 0.6681 1.2206 0.0388
C41 C 0.6992(6) 1.0721(6) 0.03394(14)
H29 H 0.6641 1.0371 0.0148
C42 C 0.7945(5) 1.1046(5) 0.07778(13)
H30 H 0.8365 1.0964 0.0949
Cd1E Cd 0.03709(6) 0.85673(4) 0.292346(9)
Cd1D Cd -0.18036(4) 0.96291(6) -0.040988(9)
Cd2D Cd 0.81897(4) 0.89013(5) 0.043573(8)
Cd2D_2 Cd -0.18103(4) 0.89013(5) 0.043573(8)
N4E N -0.2724(6) 0.7571(4) 0.22060(10)
O3D O -0.2734(3) 0.7524(4) 0.08462(9)
O6E O -0.0226(4) 0.9669(3) 0.25011(9)
O7E O -0.0769(4) 0.9502(3) 0.16993(7)
O8E O -0.2269(6) 0.9565(4) 0.14370(9)
loop_
_geom_bond_atom_site_label_1
_geom_bond_atom_site_label_2
_geom_bond_site_symmetry_1
_geom_bond_site_symmetry_2
Cd1 O2 1_555 1_555
Cd2 N1 1_555 1_555
N1 C29 1_555 1_555
N2 C29 1_555 1_555
N3 C39 1_555 1_555
N4 C41 1_555 1_555
O1 C1 1_555 1_555
O2 Cd2 1_555 1_555
O3 Cd2 1_555 1_555
O4 C14 1_555 1_555
O5 Cd1 1_555 1_555
O6 Cd1 1_555 1_555
O7 C28 1_555 1_555
O8 C28 1_555 1_555
C1 O2 1_555 1_555
C2 C1 1_555 1_555
C3 C2 1_555 1_555
H1 C3 1_555 1_555
C4 C3 1_555 1_555
H2 C4 1_555 1_555
C5 C4 1_555 1_555
H3 C5 1_555 1_555
C6 C5 1_555 1_555
H4 C6 1_555 1_555
C7 C2 1_555 1_555
C8 C7 1_555 1_555
C9 C8 1_555 1_555
H5 C9 1_555 1_555
C10 C9 1_555 1_555
H6 C10 1_555 1_555
C11 C10 1_555 1_555
H7 C11 1_555 1_555
C12 C11 1_555 1_555
H8 C12 1_555 1_555
C13 C8 1_555 1_555
C14 O3 1_555 1_555
C15 O5 1_555 1_555
C16 C15 1_555 1_555
C17 C16 1_555 1_555
H9 C17 1_555 1_555
C18 C17 1_555 1_555
H10 C18 1_555 1_555
C19 C18 1_555 1_555
H11 C19 1_555 1_555
C20 C19 1_555 1_555
H12 C20 1_555 1_555
C21 C16 1_555 1_555
C22 C21 1_555 1_555
C23 C22 1_555 1_555
H13 C23 1_555 1_555
C24 C23 1_555 1_555
H14 C24 1_555 1_555
C25 C24 1_555 1_555
H15 C25 1_555 1_555
C26 C25 1_555 1_555
H16 C26 1_555 1_555
C27 C22 1_555 1_555
C28 C27 1_555 1_555
C29 H17 1_555 1_555
C30 N1 1_555 1_555
H18 C30 1_555 1_555
C31 N2 1_555 1_555
H19 C31 1_555 1_555
C32 N2 1_555 1_555
H20 C32 1_555 1_555
H21 C32 1_555 1_555
C33 C32 1_555 1_555
C34 C33 1_555 1_555
H22 C34 1_555 1_555
C35 C34 1_555 1_555
H23 C35 1_555 1_555
C36 C35 1_555 1_555
H24 C36 1_555 1_555
C37 C36 1_555 1_555
C38 C33 1_555 1_555
H25 C38 1_555 1_555
C39 C37 1_555 1_555
H26 C39 1_555 1_555
H27 C39 1_555 1_555
C40 N3 1_555 1_555
H28 C40 1_555 1_555
C41 C40 1_555 1_555
H29 C41 1_555 1_555
C42 N3 1_555 1_555
H30 C42 1_555 1_555
Cd1E O3 1_555 1_555
Cd1D O7 1_555 1_555
Cd2D N4 1_555 1_555
Cd2D_2 O6 1_555 1_555
N4E Cd2 1_555 1_555
O3D Cd1 1_555 1_555
O6E Cd2 1_555 1_555
O7E Cd1 1_555 1_555
O8E Cd1 1_555 1_555
Cd2 O7E 1_555 1_555
N4 C42 1_555 1_555
O6 C15 1_555 1_555
O7 Cd2D_2 1_555 1_555
O8 Cd1D 1_555 1_555
C6 C7 1_555 1_555
C12 C13 1_555 1_555
C13 C14 1_555 1_555
C20 C21 1_555 1_555
C26 C27 1_555 1_555
C30 C31 1_555 1_555
C37 C38 1_555 1_555
Cd1E O6E 1_555 1_555
Cd2D_2 O3D 1_555 1_555

#END
