
#######################################################################
#
#                 Cambridge Crystallographic Data Centre
#                                CCDC 
#
#######################################################################
#
# If this CIF has been generated from an entry in the Cambridge 
# Structural Database, then it will include bibliographic, chemical, 
# crystal, experimental, refinement or atomic coordinate data resulting 
# from the CCDC's data processing and validation procedures.
#
#######################################################################

data_OHIMAU
_symmetry_cell_setting           triclinic
_symmetry_space_group_name_H-M   'P -1'
_symmetry_Int_Tables_number      2
_space_group_name_Hall           '-P 1'
loop_
_symmetry_equiv_pos_site_id
_symmetry_equiv_pos_as_xyz
1 x,y,z
2 -x,-y,-z
_cell_length_a                   11.9785(8)
_cell_length_b                   12.6636(8)
_cell_length_c                   13.6303(9)
_cell_angle_alpha                72.6390(10)
_cell_angle_beta                 86.5840(10)
_cell_angle_gamma                70.3600(10)
_cell_volume                     1856.69
loop_
_atom_site_label
_atom_site_type_symbol
_atom_site_fract_x
_atom_site_fract_y
_atom_site_fract_z
Cd1 Cd 0.00865(2) 0.04837(2) 0.126450(16)
Zn1 Zn 0.84499(3) 0.14511(3) -0.67899(3)
N1 N 0.0848(2) 0.1817(2) 0.03111(19)
N2 N 0.1460(2) 0.2868(2) -0.10563(19)
N3 N 0.6475(2) 0.2464(2) -0.4490(2)
N4 N 0.7179(2) 0.2143(2) -0.5929(2)
O1 O -0.16314(19) 0.19918(19) 0.17109(15)
O2 O -0.1750(3) 0.3664(2) 0.1968(2)
O3 O -0.1061(2) 0.0912(2) -0.02418(16)
O4 O -0.2179(2) 0.0770(2) -0.13729(17)
O5 O -0.0550(2) -0.0844(2) 0.23580(15)
O6 O -0.1391(2) -0.0221(2) 0.36853(16)
O7 O 0.0186(2) -0.1516(2) 0.61266(17)
O8 O -0.0927(2) -0.0724(2) 0.72419(17)
C1 C -0.1769(3) 0.3105(3) 0.1382(3)
C2 C -0.1946(3) 0.3688(3) 0.0248(2)
C3 C -0.1378(4) 0.4487(3) -0.0192(3)
H1 H -0.0905 0.4646 0.0224
C4 C -0.1493(4) 0.5054(4) -0.1228(3)
H2 H -0.1090 0.5578 -0.1514
C5 C -0.2210(5) 0.4840(4) -0.1835(3)
H3 H -0.2302 0.5227 -0.2537
C6 C -0.2795(4) 0.4052(4) -0.1411(3)
H4 H -0.3276 0.3913 -0.1834
C7 C -0.2683(3) 0.3457(3) -0.0358(2)
C8 C -0.3410(3) 0.2688(3) 0.0084(2)
C9 C -0.4400(3) 0.3092(4) 0.0629(3)
H5 H -0.4582 0.3823 0.0735
C10 C -0.5116(4) 0.2421(4) 0.1013(3)
H6 H -0.5761 0.2691 0.1395
C11 C -0.4882(4) 0.1360(5) 0.0834(3)
H7 H -0.5375 0.0916 0.1084
C12 C -0.3912(3) 0.0952(4) 0.0283(3)
H8 H -0.3758 0.0235 0.0156
C13 C -0.3160(3) 0.1606(3) -0.0085(2)
C14 C -0.2069(3) 0.1079(3) -0.0617(2)
C15 C -0.0771(3) -0.1003(3) 0.3298(2)
C16 C -0.0221(3) -0.2219(3) 0.4014(2)
C17 C 0.0779(3) -0.2961(3) 0.3692(3)
H9 H 0.1033 -0.2714 0.3031
C18 C 0.1400(3) -0.4052(4) 0.4332(3)
H10 H 0.2067 -0.4537 0.4106
C19 C 0.1027(4) -0.4420(3) 0.5309(3)
H11 H 0.1445 -0.5157 0.5746
C20 C 0.0042(4) -0.3705(3) 0.5642(3)
H12 H -0.0197 -0.3967 0.6306
C21 C -0.0609(3) -0.2598(3) 0.5010(2)
C22 C -0.1744(3) -0.1951(3) 0.5402(2)
C23 C -0.2780(3) -0.2027(3) 0.5064(3)
H13 H -0.2741 -0.2402 0.4565
C24 C -0.3858(4) -0.1561(4) 0.5450(3)
H14 H -0.4539 -0.1614 0.5204
C25 C -0.3933(3) -0.1023(4) 0.6190(3)
H15 H -0.4663 -0.0719 0.6459
C26 C -0.2930(3) -0.0929(3) 0.6540(3)
H16 H -0.2989 -0.0557 0.7045
C27 C -0.1826(3) -0.1379(3) 0.6156(2)
C28 C -0.0780(3) -0.1196(3) 0.6542(2)
C29 C 0.0762(3) 0.2229(3) -0.0704(2)
H17 H 0.0273 0.2089 -0.1120
C30 C 0.1663(3) 0.2220(3) 0.0606(3)
H18 H 0.1912 0.2068 0.1282
C31 C 0.2048(3) 0.2867(3) -0.0226(3)
H19 H 0.2602 0.3238 -0.0235
C32 C 0.1565(3) 0.3490(3) -0.2129(2)
H20 H 0.1235 0.4329 -0.2230
H21 H 0.1109 0.3293 -0.2570
C33 C 0.2842(3) 0.3180(3) -0.2433(2)
C34 C 0.3385(3) 0.4014(3) -0.2666(3)
H22 H 0.2974 0.4766 -0.2626
C35 C 0.4548(3) 0.3733(3) -0.2960(3)
H23 H 0.4907 0.4307 -0.3120
C36 C 0.5182(3) 0.2639(3) -0.3021(2)
C37 C 0.4638(3) 0.1800(3) -0.2770(3)
H24 H 0.5054 0.1045 -0.2801
C38 C 0.3475(3) 0.2070(3) -0.2472(3)
H25 H 0.3120 0.1492 -0.2298
C39 C 0.6431(3) 0.2373(4) -0.3380(2)
H26 H 0.6773 0.2917 -0.3253
H27 H 0.6906 0.1586 -0.2986
C40 C 0.5687(3) 0.3245(3) -0.5254(3)
H28 H 0.4980 0.3812 -0.5185
C41 C 0.6131(3) 0.3037(3) -0.6136(3)
H29 H 0.5772 0.3447 -0.6788
C42 C 0.7355(3) 0.1829(3) -0.4924(3)
H30 H 0.8019 0.1234 -0.4563
Cd1A Cd -0.00865(2) -0.04837(2) -0.126450(16)
Cd1A_2 Cd -0.00865(2) -0.04837(2) 0.873550(16)
Zn1_2 Zn -0.15501(3) 0.14511(3) 0.32101(3)
Zn1A Zn 0.15501(3) -0.14511(3) 0.67899(3)
O1_2 O 0.83686(19) 0.19918(19) -0.82891(15)
O3A O 0.1061(2) -0.0912(2) 0.02418(16)
O4A O 0.2179(2) -0.0770(2) 0.13729(17)
O6_2 O 0.8609(2) -0.0221(2) -0.63147(16)
O7A O 0.9814(2) 0.1516(2) -0.61266(17)
O8A O 0.0927(2) 0.0724(2) 0.27581(17)
loop_
_geom_bond_atom_site_label_1
_geom_bond_atom_site_label_2
_geom_bond_site_symmetry_1
_geom_bond_site_symmetry_2
Cd1 N1 1_555 1_555
Zn1 N4 1_555 1_555
N1 C29 1_555 1_555
N2 C29 1_555 1_555
N3 C39 1_555 1_555
N4 C41 1_555 1_555
O1 Cd1 1_555 1_555
O2 C1 1_555 1_555
O3 Cd1 1_555 1_555
O4 C14 1_555 1_555
O5 Cd1 1_555 1_555
O6 C15 1_555 1_555
O7 C28 1_555 1_555
O8 C28 1_555 1_555
C1 O1 1_555 1_555
C2 C1 1_555 1_555
C3 C2 1_555 1_555
H1 C3 1_555 1_555
C4 C3 1_555 1_555
H2 C4 1_555 1_555
C5 C4 1_555 1_555
H3 C5 1_555 1_555
C6 C5 1_555 1_555
H4 C6 1_555 1_555
C7 C2 1_555 1_555
C8 C7 1_555 1_555
C9 C8 1_555 1_555
H5 C9 1_555 1_555
C10 C9 1_555 1_555
H6 C10 1_555 1_555
C11 C10 1_555 1_555
H7 C11 1_555 1_555
C12 C11 1_555 1_555
H8 C12 1_555 1_555
C13 C8 1_555 1_555
C14 O3 1_555 1_555
C15 O5 1_555 1_555
C16 C15 1_555 1_555
C17 C16 1_555 1_555
H9 C17 1_555 1_555
C18 C17 1_555 1_555
H10 C18 1_555 1_555
C19 C18 1_555 1_555
H11 C19 1_555 1_555
C20 C19 1_555 1_555
H12 C20 1_555 1_555
C21 C16 1_555 1_555
C22 C21 1_555 1_555
C23 C22 1_555 1_555
H13 C23 1_555 1_555
C24 C23 1_555 1_555
H14 C24 1_555 1_555
C25 C24 1_555 1_555
H15 C25 1_555 1_555
C26 C25 1_555 1_555
H16 C26 1_555 1_555
C27 C22 1_555 1_555
C28 C27 1_555 1_555
C29 H17 1_555 1_555
C30 N1 1_555 1_555
H18 C30 1_555 1_555
C31 N2 1_555 1_555
H19 C31 1_555 1_555
C32 N2 1_555 1_555
H20 C32 1_555 1_555
H21 C32 1_555 1_555
C33 C32 1_555 1_555
C34 C33 1_555 1_555
H22 C34 1_555 1_555
C35 C34 1_555 1_555
H23 C35 1_555 1_555
C36 C35 1_555 1_555
C37 C36 1_555 1_555
H24 C37 1_555 1_555
C38 C33 1_555 1_555
H25 C38 1_555 1_555
C39 C36 1_555 1_555
H26 C39 1_555 1_555
H27 C39 1_555 1_555
C40 N3 1_555 1_555
H28 C40 1_555 1_555
C41 C40 1_555 1_555
H29 C41 1_555 1_555
C42 N3 1_555 1_555
H30 C42 1_555 1_555
Cd1A O3 1_555 1_555
Cd1A_2 O8 1_555 1_555
Zn1_2 O1 1_555 1_555
Zn1A O7 1_555 1_555
O1_2 Zn1 1_555 1_555
O3A Cd1 1_555 1_555
O4A Cd1 1_555 1_555
O6_2 Zn1 1_555 1_555
O7A Zn1 1_555 1_555
O8A Cd1 1_555 1_555
N4 C42 1_555 1_555
O4 Cd1A 1_555 1_555
O6 Zn1_2 1_555 1_555
C6 C7 1_555 1_555
C12 C13 1_555 1_555
C13 C14 1_555 1_555
C20 C21 1_555 1_555
C26 C27 1_555 1_555
C30 C31 1_555 1_555
C37 C38 1_555 1_555
Cd1A O3A 1_555 1_555

#END
