
#######################################################################
#
#                 Cambridge Crystallographic Data Centre
#                                CCDC 
#
#######################################################################
#
# If this CIF has been generated from an entry in the Cambridge 
# Structural Database, then it will include bibliographic, chemical, 
# crystal, experimental, refinement or atomic coordinate data resulting 
# from the CCDC's data processing and validation procedures.
#
#######################################################################

data_OHIMIC
_symmetry_cell_setting           monoclinic
_symmetry_space_group_name_H-M   'P 21'
_symmetry_Int_Tables_number      4
_space_group_name_Hall           'P 2yb'
loop_
_symmetry_equiv_pos_site_id
_symmetry_equiv_pos_as_xyz
1 x,y,z
2 -x,1/2+y,-z
_cell_length_a                   6.1615(5)
_cell_length_b                   16.4514(13)
_cell_length_c                   15.1503(12)
_cell_angle_alpha                90
_cell_angle_beta                 99.4330(10)
_cell_angle_gamma                90
_cell_volume                     1514.95
loop_
_atom_site_label
_atom_site_type_symbol
_atom_site_fract_x
_atom_site_fract_y
_atom_site_fract_z
Cd1 Cd 1.11448(3) 0.26394(2) 0.108137(12)
N1 N 0.8661(7) 0.3646(2) 0.0918(2)
N2 N 0.6121(5) 0.4516(2) 0.11472(19)
N3 N 0.0997(7) 0.6554(2) 0.8894(2)
N4 N 0.3496(6) 0.5748(2) 0.8505(2)
O1 O 1.0760(3) 0.2620(3) 0.28215(13)
O2 O 1.3831(3) 0.2701(3) 0.22497(12)
O3 O 1.2549(6) 0.3265(2) 0.9877(2)
O4 O 1.3250(7) 0.1964(2) 1.0082(2)
O5 O 1.9679(7) 0.1884(3) 0.6604(3)
O6 O 1.9681(7) 0.3377(3) 0.6643(2)
S1 S 1.84614(12) 0.26320(13) 0.65671(4)
C1 C 1.2790(5) 0.2660(4) 0.29144(17)
C2 C 1.4164(4) 0.2663(5) 0.38304(16)
C3 C 1.3281(6) 0.2360(2) 0.4554(2)
H1 H 1.1850 0.2160 0.4466
C4 C 1.4523(6) 0.2355(2) 0.5406(2)
H2 H 1.3932 0.2151 0.5887
C5 C 1.6633(4) 0.2655(4) 0.55320(16)
C6 C 1.7508(6) 0.2963(2) 0.4816(2)
H3 H 1.8916 0.3184 0.4907
C7 C 1.6284(6) 0.2942(2) 0.3967(2)
H4 H 1.6908 0.3119 0.3483
C8 C 1.3376(5) 0.2618(4) 0.96630(18)
C9 C 1.4605(5) 0.2636(5) 0.88787(16)
C10 C 1.4014(6) 0.3152(2) 0.8169(2)
H5 H 1.2841 0.3507 0.8170
H6 H 1.4763 0.3517 0.6982
H7 H 1.8623 0.1719 0.8136
H8 H 1.6717 0.1729 0.9324
C11 C 1.5139(6) 0.3151(2) 0.7451(2)
C12 C 1.6834(5) 0.2606(4) 0.74355(17)
C13 C 1.7455(7) 0.2077(2) 0.8143(2)
C14 C 1.6325(7) 0.2090(2) 0.8853(2)
C15 C 0.7107(9) 0.3807(3) 0.1397(3)
H9 H 0.6746 0.3474 0.1848
C16 C 0.8611(7) 0.4274(3) 0.0334(3)
H10 H 0.9510 0.4320 -0.0100
C17 C 0.7097(7) 0.4815(3) 0.0470(3)
H11 H 0.6769 0.5301 0.0164
C18 C 0.4164(8) 0.4851(3) 0.1461(3)
H12 H 0.2918 0.4499 0.1259
H13 H 0.3838 0.5380 0.1188
C19 C 0.4416(7) 0.4940(2) 0.2462(3)
C20 C 0.2694(7) 0.4710(3) 0.2879(3)
H14 H 0.1433 0.4487 0.2545
C21 C 0.2826(7) 0.4807(3) 0.3798(3)
H15 H 0.1648 0.4655 0.4075
C22 C 0.4703(8) 0.5129(3) 0.4304(3)
C23 C 0.6442(6) 0.5352(2) 0.3878(2)
H16 H 0.7722 0.5559 0.4214
C24 C 0.6298(7) 0.5269(2) 0.2960(2)
H17 H 0.7458 0.5434 0.2679
H18 H 0.3073 0.6899 0.8098
H19 H -0.0139 0.5670 0.9663
H20 H 0.2614 0.4769 0.9211
C25 C 0.2599(9) 0.6482(3) 0.8436(3)
C26 C 0.0851(6) 0.5806(2) 0.9288(3)
C27 C 0.2371(7) 0.5310(2) 0.9046(3)
C28 C 0.5437(7) 0.5483(3) 0.8142(3)
H21 H 0.5903 0.4959 0.8400
H22 H 0.6620 0.5866 0.8328
C29 C 0.5101(8) 0.5409(3) 0.7145(3)
C30 C 0.3213(6) 0.5587(3) 0.6569(3)
H23 H 0.1993 0.5773 0.6799
C31 C 0.3073(7) 0.5498(3) 0.5660(3)
H24 H 0.1762 0.5621 0.5287
C32 C 0.4865(7) 0.5225(2) 0.5290(3)
C33 C 0.6792(8) 0.5057(3) 0.5876(3)
H25 H 0.8016 0.4876 0.5646
C34 C 0.6942(7) 0.5149(3) 0.6778(3)
H26 H 0.8263 0.5040 0.7153
Cd1A Cd -0.11448(3) 0.76394(2) 0.891863(12)
Cd1_2 Cd 1.11448(3) 0.26394(2) 1.108137(12)
N3A N 0.9003(7) 0.1554(2) 0.1106(2)
O3_2 O 1.2549(6) 0.3265(2) -0.0123(2)
O4_2 O 1.3250(7) 0.1964(2) 0.0082(2)
loop_
_geom_bond_atom_site_label_1
_geom_bond_atom_site_label_2
_geom_bond_site_symmetry_1
_geom_bond_site_symmetry_2
Cd1 N1 1_555 1_555
N1 C15 1_555 1_555
N2 C15 1_555 1_555
N3 C25 1_555 1_555
N4 C25 1_555 1_555
O1 C1 1_555 1_555
O2 Cd1 1_555 1_555
O3 C8 1_555 1_555
O4 C8 1_555 1_555
O5 S1 1_555 1_555
O6 S1 1_555 1_555
S1 C5 1_555 1_555
C1 O2 1_555 1_555
C2 C1 1_555 1_555
C3 C2 1_555 1_555
H1 C3 1_555 1_555
C4 C3 1_555 1_555
H2 C4 1_555 1_555
C5 C4 1_555 1_555
C6 C5 1_555 1_555
H3 C6 1_555 1_555
C7 C2 1_555 1_555
H4 C7 1_555 1_555
C8 C9 1_555 1_555
C9 C10 1_555 1_555
C10 H5 1_555 1_555
H6 C11 1_555 1_555
H7 C13 1_555 1_555
H8 C14 1_555 1_555
C11 C10 1_555 1_555
C12 S1 1_555 1_555
C13 C12 1_555 1_555
C14 C9 1_555 1_555
C15 H9 1_555 1_555
C16 N1 1_555 1_555
H10 C16 1_555 1_555
C17 N2 1_555 1_555
H11 C17 1_555 1_555
C18 N2 1_555 1_555
H12 C18 1_555 1_555
H13 C18 1_555 1_555
C19 C18 1_555 1_555
C20 C19 1_555 1_555
H14 C20 1_555 1_555
C21 C20 1_555 1_555
H15 C21 1_555 1_555
C22 C21 1_555 1_555
C23 C22 1_555 1_555
H16 C23 1_555 1_555
C24 C19 1_555 1_555
H17 C24 1_555 1_555
H18 C25 1_555 1_555
H19 C26 1_555 1_555
H20 C27 1_555 1_555
C26 N3 1_555 1_555
C27 N4 1_555 1_555
C28 N4 1_555 1_555
H21 C28 1_555 1_555
H22 C28 1_555 1_555
C29 C28 1_555 1_555
C30 C29 1_555 1_555
H23 C30 1_555 1_555
C31 C30 1_555 1_555
H24 C31 1_555 1_555
C32 C22 1_555 1_555
C33 C32 1_555 1_555
H25 C33 1_555 1_555
C34 C29 1_555 1_555
H26 C34 1_555 1_555
Cd1A N3 1_555 1_555
Cd1_2 O3 1_555 1_555
N3A Cd1 1_555 1_555
O3_2 Cd1 1_555 1_555
O4_2 Cd1 1_555 1_555
O4 Cd1_2 1_555 1_555
C6 C7 1_555 1_555
C11 C12 1_555 1_555
C13 C14 1_555 1_555
C16 C17 1_555 1_555
C23 C24 1_555 1_555
C26 C27 1_555 1_555
C31 C32 1_555 1_555
C33 C34 1_555 1_555

#END
