
#######################################################################
#
#                 Cambridge Crystallographic Data Centre
#                                CCDC 
#
#######################################################################
#
# If this CIF has been generated from an entry in the Cambridge 
# Structural Database, then it will include bibliographic, chemical, 
# crystal, experimental, refinement or atomic coordinate data resulting 
# from the CCDC's data processing and validation procedures.
#
#######################################################################

data_OHIRUS
_symmetry_cell_setting           triclinic
_symmetry_space_group_name_H-M   'P -1'
_symmetry_Int_Tables_number      2
_space_group_name_Hall           '-P 1'
loop_
_symmetry_equiv_pos_site_id
_symmetry_equiv_pos_as_xyz
1 x,y,z
2 -x,-y,-z
_cell_length_a                   9.0271(2)
_cell_length_b                   9.6678(3)
_cell_length_c                   10.2360(3)
_cell_angle_alpha                75.7320(10)
_cell_angle_beta                 73.6580(10)
_cell_angle_gamma                87.9580(10)
_cell_volume                     830.239
loop_
_atom_site_label
_atom_site_type_symbol
_atom_site_fract_x
_atom_site_fract_y
_atom_site_fract_z
Mn1 Mn 0.45796(4) -0.13772(4) 0.86009(3)
O1 O 0.3488(2) -0.3131(2) 0.79875(18)
O2 O 0.5005(2) -0.14524(18) 0.63479(17)
O3 O 0.3996(2) -0.04119(18) 0.16265(19)
O4 O 0.3781(2) -0.22872(18) 0.07845(19)
N1 N 0.2630(3) 0.0169(2) 0.8295(2)
N2 N 0.6804(2) -0.2627(2) 0.8484(2)
C1 C 0.4113(3) -0.2537(3) 0.6716(2)
C2 C 0.3749(3) -0.3107(2) 0.5594(2)
C3 C 0.3218(3) -0.4509(3) 0.5873(3)
H1 H 0.3073 -0.5109 0.6766
C4 C 0.2904(3) -0.5018(3) 0.4815(3)
H2 H 0.2554 -0.5959 0.4999
C5 C 0.3112(3) -0.4123(3) 0.3492(3)
H3 H 0.2913 -0.4471 0.2786
C6 C 0.3615(3) -0.2705(2) 0.3201(2)
C7 C 0.3821(3) -0.1725(2) 0.1769(2)
C8 C 0.3937(3) -0.2203(2) 0.4269(2)
H4 H 0.4278 -0.1260 0.4089
C9 C 0.2089(4) 0.0417(4) 0.7172(3)
H5 H 0.2535 -0.0041 0.6465
C10 C 0.0901(4) 0.1319(4) 0.7012(4)
H6 H 0.0552 0.1450 0.6220
C11 C 0.0240(4) 0.2023(3) 0.8030(4)
H7 H -0.0568 0.2632 0.7948
C12 C 0.0807(4) 0.1801(3) 0.9181(4)
H8 H 0.0395 0.2270 0.9887
C13 C 0.1993(4) 0.0875(3) 0.9269(3)
H9 H 0.2368 0.0737 1.0048
C14 C 0.6934(3) -0.3848(3) 0.9393(3)
H10 H 0.6088 -0.4194 1.0162
C15 C 0.8260(3) -0.4623(3) 0.9250(3)
H11 H 0.8300 -0.5474 0.9903
C16 C 0.9517(3) -0.4112(3) 0.8127(3)
H12 H 1.0430 -0.4604 0.8012
C17 C 0.9408(3) -0.2856(3) 0.7170(3)
H13 H 1.0243 -0.2490 0.6398
C18 C 0.8040(3) -0.2156(3) 0.7381(3)
H14 H 0.7969 -0.1315 0.6727
O3A O 0.6004(2) 0.04119(18) 0.83735(19)
O4_2 O 0.3781(2) -0.22872(18) 1.07845(19)
Mn1A Mn 0.54204(4) 0.13772(4) 0.13991(3)
Mn1_2 Mn 0.45796(4) -0.13772(4) -0.13991(3)
loop_
_geom_bond_atom_site_label_1
_geom_bond_atom_site_label_2
_geom_bond_site_symmetry_1
_geom_bond_site_symmetry_2
Mn1 O1 1_555 1_555
O1 C1 1_555 1_555
O2 Mn1 1_555 1_555
O3 C7 1_555 1_555
O4 C7 1_555 1_555
N1 Mn1 1_555 1_555
N2 Mn1 1_555 1_555
C1 O2 1_555 1_555
C2 C1 1_555 1_555
C3 C2 1_555 1_555
H1 C3 1_555 1_555
C4 C3 1_555 1_555
H2 C4 1_555 1_555
C5 C4 1_555 1_555
H3 C5 1_555 1_555
C6 C5 1_555 1_555
C7 C6 1_555 1_555
C8 C2 1_555 1_555
H4 C8 1_555 1_555
C9 N1 1_555 1_555
H5 C9 1_555 1_555
C10 C9 1_555 1_555
H6 C10 1_555 1_555
C11 C10 1_555 1_555
H7 C11 1_555 1_555
C12 C11 1_555 1_555
H8 C12 1_555 1_555
C13 N1 1_555 1_555
H9 C13 1_555 1_555
C14 N2 1_555 1_555
H10 C14 1_555 1_555
C15 C14 1_555 1_555
H11 C15 1_555 1_555
C16 C15 1_555 1_555
H12 C16 1_555 1_555
C17 C16 1_555 1_555
H13 C17 1_555 1_555
C18 N2 1_555 1_555
H14 C18 1_555 1_555
O3A Mn1 1_555 1_555
O4_2 Mn1 1_555 1_555
Mn1A O3 1_555 1_555
Mn1_2 O4 1_555 1_555
C6 C8 1_555 1_555
C12 C13 1_555 1_555
C17 C18 1_555 1_555

#END
