
#######################################################################
#
#                 Cambridge Crystallographic Data Centre
#                                CCDC 
#
#######################################################################
#
# If this CIF has been generated from an entry in the Cambridge 
# Structural Database, then it will include bibliographic, chemical, 
# crystal, experimental, refinement or atomic coordinate data resulting 
# from the CCDC's data processing and validation procedures.
#
#######################################################################

data_OHIRED
_symmetry_cell_setting           triclinic
_symmetry_space_group_name_H-M   'P -1'
_symmetry_Int_Tables_number      2
_space_group_name_Hall           '-P 1'
loop_
_symmetry_equiv_pos_site_id
_symmetry_equiv_pos_as_xyz
1 x,y,z
2 -x,-y,-z
_cell_length_a                   4.7247(13)
_cell_length_b                   12.876(4)
_cell_length_c                   15.031(4)
_cell_angle_alpha                89.488(5)
_cell_angle_beta                 88.841(6)
_cell_angle_gamma                87.335(5)
_cell_volume                     913.209
loop_
_atom_site_label
_atom_site_type_symbol
_atom_site_fract_x
_atom_site_fract_y
_atom_site_fract_z
Cu1 Cu 0.23850(11) 0.25080(4) 0.47975(4)
N1 N 0.3921(8) 0.1010(3) 0.4902(3)
N2 N 0.0872(8) 0.3987(3) 0.4866(3)
O1 O 0.0540(7) 0.2180(3) 0.3701(2)
O2 O -0.3616(7) 0.2885(3) 0.4122(2)
O3 O 0.3862(7) 0.2790(2) 0.5957(2)
O4 O 0.0245(8) 0.1996(4) 0.6566(3)
F1 F -0.0585(8) 0.0587(2) 0.2606(2)
F2 F -0.2847(9) 0.0128(3) 0.1065(2)
F3 F -0.6767(8) 0.1433(3) 0.0328(2)
F4 F -0.8238(9) 0.3246(3) 0.1110(3)
F5 F -0.5917(8) 0.3762(3) 0.2622(2)
F6 F 0.1636(10) 0.4382(3) 0.7454(3)
F7 F 0.4068(14) 0.4836(4) 0.9006(3)
F8 F 0.7417(11) 0.3375(4) 0.9820(3)
F9 F 0.8261(9) 0.1482(4) 0.9118(3)
F10 F 0.5722(8) 0.1019(3) 0.7593(2)
C1 C -0.3158(10) 0.2195(4) 0.2684(3)
C2 C -0.2429(11) 0.1283(4) 0.2249(3)
C3 C -0.3581(12) 0.1029(4) 0.1456(4)
C4 C -0.5594(13) 0.1675(5) 0.1080(4)
C5 C -0.6313(12) 0.2607(5) 0.1480(4)
C6 C -0.5121(11) 0.2846(4) 0.2266(3)
C7 C -0.2040(10) 0.2449(3) 0.3578(3)
C8 C 0.3653(11) 0.2685(4) 0.7493(3)
C9 C 0.3282(14) 0.3658(5) 0.7871(4)
C10 C 0.4470(18) 0.3892(6) 0.8649(5)
C11 C 0.6193(16) 0.3156(6) 0.9060(4)
C12 C 0.6611(14) 0.2186(6) 0.8708(4)
C13 C 0.5314(11) 0.1962(4) 0.7935(4)
C14 C 0.2420(10) 0.2453(4) 0.6613(3)
C15 C 0.6017(10) 0.0778(4) 0.5459(3)
H1 H 0.6798 0.1316 0.5792
C16 C 0.2933(10) 0.0233(4) 0.4441(3)
H2 H 0.1461 0.0379 0.4031
C17 C -0.1185(10) 0.4230(4) 0.5446(3)
H3 H -0.2073 0.3695 0.5771
C18 C 0.2053(9) 0.4745(4) 0.4417(3)
H4 H 0.3523 0.4582 0.3994
Cu1A Cu 0.76150(11) -0.25080(4) 0.52025(4)
Cu1_2 Cu -0.76150(11) 0.25080(4) 0.47975(4)
Cu1A_2 Cu -0.23850(11) 0.74920(4) 0.52025(4)
Cu1_3 Cu 1.23850(11) 0.25080(4) 0.47975(4)
N1A N 0.6079(8) -0.1010(3) 0.5098(3)
N2A N -0.0872(8) 0.6013(3) 0.5134(3)
N2A_2 N 0.9128(8) -0.3987(3) 0.5134(3)
O1_2 O 1.0540(7) 0.2180(3) 0.3701(2)
O1A O 0.9460(7) -0.2180(3) 0.6299(2)
O2_2 O 0.6384(7) 0.2885(3) 0.4122(2)
O2A O 0.3616(7) -0.2885(3) 0.5878(2)
O3A O 0.6138(7) -0.2790(2) 0.4043(2)
O4A O 0.9755(8) -0.1996(4) 0.3434(3)
F1_2 F 0.9415(8) 0.0587(2) 0.2606(2)
F2_2 F 0.7153(9) 0.0128(3) 0.1065(2)
F3_2 F 0.3233(8) 0.1433(3) 0.0328(2)
F4_2 F 0.1762(9) 0.3246(3) 0.1110(3)
F5_2 F 0.4083(8) 0.3762(3) 0.2622(2)
F6A F 0.8364(10) -0.4382(3) 0.2546(3)
F7A F 0.5932(14) -0.4836(4) 0.0994(3)
F8A F 0.2583(11) -0.3375(4) 0.0180(3)
F9A F 0.1739(9) -0.1482(4) 0.0882(3)
F10A F 0.4278(8) -0.1019(3) 0.2407(2)
C1_2 C 0.6842(10) 0.2195(4) 0.2684(3)
C2_2 C 0.7571(11) 0.1283(4) 0.2249(3)
C3_2 C 0.6419(12) 0.1029(4) 0.1456(4)
C4_2 C 0.4406(13) 0.1675(5) 0.1080(4)
C5_2 C 0.3687(12) 0.2607(5) 0.1480(4)
C6_2 C 0.4879(11) 0.2846(4) 0.2266(3)
C7_2 C 0.7960(10) 0.2449(3) 0.3578(3)
C8A C 0.6347(11) -0.2685(4) 0.2507(3)
C9A C 0.6718(14) -0.3658(5) 0.2129(4)
C10A C 0.5530(18) -0.3892(6) 0.1351(5)
C11A C 0.3807(16) -0.3156(6) 0.0940(4)
C12A C 0.3389(14) -0.2186(6) 0.1292(4)
C13A C 0.4686(11) -0.1962(4) 0.2065(4)
C14A C 0.7580(10) -0.2453(4) 0.3387(3)
C15A C 0.3983(10) -0.0778(4) 0.4541(3)
H1A H 0.3202 -0.1316 0.4208
C16A C 0.7067(10) -0.0233(4) 0.5559(3)
H2A H 0.8539 -0.0379 0.5969
C17A C 0.1185(10) 0.5770(4) 0.4554(3)
H3A H 0.2073 0.6305 0.4229
C18A C -0.2053(9) 0.5255(4) 0.5583(3)
H4A H -0.3523 0.5418 0.6006
loop_
_geom_bond_atom_site_label_1
_geom_bond_atom_site_label_2
_geom_bond_site_symmetry_1
_geom_bond_site_symmetry_2
Cu1 N1 1_555 1_555
N1 C15 1_555 1_555
N2 Cu1 1_555 1_555
O1 Cu1 1_555 1_555
O2 C7 1_555 1_555
O3 Cu1 1_555 1_555
O4 C14 1_555 1_555
F1 C2 1_555 1_555
F2 C3 1_555 1_555
F3 C4 1_555 1_555
F4 C5 1_555 1_555
F5 C6 1_555 1_555
F6 C9 1_555 1_555
F7 C10 1_555 1_555
F8 C11 1_555 1_555
F9 C12 1_555 1_555
F10 C13 1_555 1_555
C1 C2 1_555 1_555
C2 C3 1_555 1_555
C3 C4 1_555 1_555
C4 C5 1_555 1_555
C5 C6 1_555 1_555
C6 C1 1_555 1_555
C7 O1 1_555 1_555
C8 C9 1_555 1_555
C9 C10 1_555 1_555
C10 C11 1_555 1_555
C11 C12 1_555 1_555
C12 C13 1_555 1_555
C13 C8 1_555 1_555
C14 O3 1_555 1_555
C15 H1 1_555 1_555
C16 N1 1_555 1_555
H2 C16 1_555 1_555
C17 N2 1_555 1_555
H3 C17 1_555 1_555
C18 N2 1_555 1_555
H4 C18 1_555 1_555
Cu1A N1A 1_555 1_555
Cu1_2 O2 1_555 1_555
Cu1A_2 N2A 1_555 1_555
Cu1_3 O1_2 1_555 1_555
N1A C15A 1_555 1_555
N2A C17A 1_555 1_555
N2A_2 Cu1A 1_555 1_555
O1_2 C7_2 1_555 1_555
O1A Cu1A 1_555 1_555
O2_2 Cu1 1_555 1_555
O2A Cu1A 1_555 1_555
O3A Cu1A 1_555 1_555
O4A C14A 1_555 1_555
F1_2 C2_2 1_555 1_555
F2_2 C3_2 1_555 1_555
F3_2 C4_2 1_555 1_555
F4_2 C5_2 1_555 1_555
F5_2 C6_2 1_555 1_555
F6A C9A 1_555 1_555
F7A C10A 1_555 1_555
F8A C11A 1_555 1_555
F9A C12A 1_555 1_555
F10A C13A 1_555 1_555
C1_2 C2_2 1_555 1_555
C2_2 C3_2 1_555 1_555
C3_2 C4_2 1_555 1_555
C4_2 C5_2 1_555 1_555
C5_2 C6_2 1_555 1_555
C6_2 C1_2 1_555 1_555
C7_2 O2_2 1_555 1_555
C8A C9A 1_555 1_555
C9A C10A 1_555 1_555
C10A C11A 1_555 1_555
C11A C12A 1_555 1_555
C12A C13A 1_555 1_555
C13A C8A 1_555 1_555
C14A O3A 1_555 1_555
C15A C16 1_555 1_555
H1A C15A 1_555 1_555
C16A C15 1_555 1_555
H2A C16A 1_555 1_555
C17A C18 1_555 1_555
H3A C17A 1_555 1_555
C18A C17 1_555 1_555
H4A C18A 1_555 1_555
C1 C7 1_555 1_555
C8 C14 1_555 1_555
N1A C16A 1_555 1_555
N2A C18A 1_555 1_555
C1_2 C7_2 1_555 1_555
C8A C14A 1_555 1_555

#END
