
#######################################################################
#
#                 Cambridge Crystallographic Data Centre
#                                CCDC 
#
#######################################################################
#
# If this CIF has been generated from an entry in the Cambridge 
# Structural Database, then it will include bibliographic, chemical, 
# crystal, experimental, refinement or atomic coordinate data resulting 
# from the CCDC's data processing and validation procedures.
#
#######################################################################

data_OHIRED02
_symmetry_cell_setting           triclinic
_symmetry_space_group_name_H-M   'P -1'
_symmetry_Int_Tables_number      2
_space_group_name_Hall           '-P 1'
loop_
_symmetry_equiv_pos_site_id
_symmetry_equiv_pos_as_xyz
1 x,y,z
2 -x,-y,-z
_cell_length_a                   4.8100(12)
_cell_length_b                   13.095(3)
_cell_length_c                   15.366(4)
_cell_angle_alpha                89.784(3)
_cell_angle_beta                 89.654(3)
_cell_angle_gamma                86.678(3)
_cell_volume                     966.208
loop_
_atom_site_label
_atom_site_type_symbol
_atom_site_fract_x
_atom_site_fract_y
_atom_site_fract_z
Cu1 Cu 0.76146(6) 0.24937(2) 0.480927(19)
N1 N 0.9135(4) 0.10153(15) 0.48708(14)
N2 N 0.6064(4) 0.39922(16) 0.48980(14)
O1 O 0.9517(4) 0.28140(14) 0.37218(12)
O2 O 0.6067(4) 0.22117(13) 0.59549(12)
O3 O 1.3648(4) 0.21413(15) 0.41465(12)
O4 O 0.9592(5) 0.2988(2) 0.65229(16)
F1 F 1.5949(5) 0.12473(17) 0.26502(14)
F2 F 1.8272(6) 0.1743(2) 0.11415(17)
F3 F 1.6783(6) 0.3533(2) 0.03520(15)
F4 F 1.0714(5) 0.44149(16) 0.26396(15)
F5 F 0.8340(8) 0.0635(2) 0.7433(2)
F6 F 0.6016(13) 0.0180(3) 0.8982(2)
F7 F 0.2660(10) 0.1624(4) 0.9812(2)
F8 F 0.1706(7) 0.3494(3) 0.9108(2)
F9 F 0.4102(5) 0.39505(19) 0.75688(16)
F10 F 1.2945(7) 0.4860(2) 0.11012(16)
C1 C 1.2096(5) 0.25614(18) 0.36011(16)
C2 C 0.7466(6) 0.2538(2) 0.65890(18)
C3 C 1.3232(5) 0.2810(2) 0.27162(17)
C4 C 1.5185(7) 0.2159(3) 0.2296(2)
C5 C 1.6365(8) 0.2393(3) 0.1515(2)
C6 C 1.5622(8) 0.3299(3) 0.1109(2)
C7 C 1.3685(8) 0.3973(3) 0.1493(2)
C8 C 1.2537(7) 0.3718(2) 0.2281(2)
C9 C 0.6259(6) 0.2307(3) 0.74670(19)
C10 C 0.6701(11) 0.1356(3) 0.7846(3)
C11 C 0.5503(15) 0.1117(4) 0.8634(3)
C12 C 0.3843(13) 0.1847(5) 0.9050(3)
C13 C 0.3356(9) 0.2789(5) 0.8694(3)
C14 C 0.4581(7) 0.3023(3) 0.7914(2)
C15 C 1.1143(5) 0.07479(19) 0.54401(18)
H1 H 1.1980 0.1253 0.5753
C16 C 0.8006(5) 0.02693(18) 0.44288(17)
H2 H 0.6620 0.0436 0.4025
C17 C 0.7103(5) 0.47648(19) 0.44555(18)
H3 H 0.8570 0.4626 0.4069
C18 C 0.3939(5) 0.42339(19) 0.54442(18)
H4 H 0.3150 0.3718 0.5762
N1A N 1.0865(4) -0.10153(15) 0.51292(14)
C15A C 0.8857(5) -0.07479(19) 0.45599(18)
H1A H 0.8020 -0.1253 0.4247
C16A C 1.1994(5) -0.02693(18) 0.55712(17)
H2A H 1.3380 -0.0436 0.5975
N2A N 0.3936(4) 0.60078(16) 0.51020(14)
C17A C 0.2897(5) 0.52352(19) 0.55445(18)
H3A H 0.1430 0.5374 0.5931
C18A C 0.6061(5) 0.57661(19) 0.45558(18)
H4A H 0.6850 0.6282 0.4238
Cu1A Cu 0.23854(6) 0.75063(2) 0.519073(19)
O1A O 0.0483(4) 0.71860(14) 0.62782(12)
O2A O 0.3933(4) 0.77883(13) 0.40451(12)
O3A O -0.3648(4) 0.78587(15) 0.58535(12)
O4A O 0.0408(5) 0.7012(2) 0.34771(16)
F1A F -0.5949(5) 0.87527(17) 0.73498(14)
F2A F -0.8272(6) 0.8257(2) 0.88585(17)
F3A F -0.6783(6) 0.6467(2) 0.96480(15)
F4A F -0.0714(5) 0.55851(16) 0.73604(15)
F5A F 0.1660(8) 0.9365(2) 0.2567(2)
F6A F 0.3984(13) 0.9820(3) 0.1018(2)
F7A F 0.7340(10) 0.8376(4) 0.0188(2)
F8A F 0.8294(7) 0.6506(3) 0.0892(2)
F9A F 0.5898(5) 0.60495(19) 0.24312(16)
F10A F -0.2945(7) 0.5140(2) 0.88988(16)
C1A C -0.2096(5) 0.74386(18) 0.63989(16)
C2A C 0.2534(6) 0.7462(2) 0.34110(18)
C3A C -0.3232(5) 0.7190(2) 0.72838(17)
C4A C -0.5185(7) 0.7841(3) 0.7704(2)
C5A C -0.6365(8) 0.7607(3) 0.8485(2)
C6A C -0.5622(8) 0.6701(3) 0.8891(2)
C7A C -0.3685(8) 0.6027(3) 0.8507(2)
C8A C -0.2537(7) 0.6282(2) 0.7719(2)
C9A C 0.3741(6) 0.7693(3) 0.25330(19)
C10A C 0.3299(11) 0.8644(3) 0.2154(3)
C11A C 0.4497(15) 0.8883(4) 0.1366(3)
C12A C 0.6157(13) 0.8153(5) 0.0950(3)
C13A C 0.6644(9) 0.7211(5) 0.1306(3)
C14A C 0.5419(7) 0.6977(3) 0.2086(2)
Cu1_2 Cu 1.76146(6) 0.24937(2) 0.480927(19)
Cu1A_2 Cu -0.76146(6) 0.75063(2) 0.519073(19)
Cu1A_3 Cu 1.23854(6) -0.24937(2) 0.519073(19)
N1A_2 N 0.0865(4) 0.89847(15) 0.51292(14)
O3_2 O 0.3648(4) 0.21413(15) 0.41465(12)
O3A_2 O 0.6352(4) 0.78587(15) 0.58535(12)
loop_
_geom_bond_atom_site_label_1
_geom_bond_atom_site_label_2
_geom_bond_site_symmetry_1
_geom_bond_site_symmetry_2
Cu1 N1 1_555 1_555
N1 C15 1_555 1_555
N2 Cu1 1_555 1_555
O1 Cu1 1_555 1_555
O2 Cu1 1_555 1_555
O3 C1 1_555 1_555
O4 C2 1_555 1_555
F1 C4 1_555 1_555
F2 C5 1_555 1_555
F3 C6 1_555 1_555
F4 C8 1_555 1_555
F5 C10 1_555 1_555
F6 C11 1_555 1_555
F7 C12 1_555 1_555
F8 C13 1_555 1_555
F9 C14 1_555 1_555
F10 C7 1_555 1_555
C1 O1 1_555 1_555
C2 O2 1_555 1_555
C3 C1 1_555 1_555
C4 C3 1_555 1_555
C5 C4 1_555 1_555
C6 C5 1_555 1_555
C7 C6 1_555 1_555
C8 C3 1_555 1_555
C9 C2 1_555 1_555
C10 C9 1_555 1_555
C11 C10 1_555 1_555
C12 C11 1_555 1_555
C13 C12 1_555 1_555
C14 C9 1_555 1_555
C15 H1 1_555 1_555
C16 N1 1_555 1_555
H2 C16 1_555 1_555
C17 N2 1_555 1_555
H3 C17 1_555 1_555
C18 N2 1_555 1_555
H4 C18 1_555 1_555
N1A C15A 1_555 1_555
C15A C16 1_555 1_555
H1A C15A 1_555 1_555
C16A C15 1_555 1_555
H2A C16A 1_555 1_555
N2A C17A 1_555 1_555
C17A C18 1_555 1_555
H3A C17A 1_555 1_555
C18A C17 1_555 1_555
H4A C18A 1_555 1_555
Cu1A N2A 1_555 1_555
O1A Cu1A 1_555 1_555
O2A Cu1A 1_555 1_555
O3A C1A 1_555 1_555
O4A C2A 1_555 1_555
F1A C4A 1_555 1_555
F2A C5A 1_555 1_555
F3A C6A 1_555 1_555
F4A C8A 1_555 1_555
F5A C10A 1_555 1_555
F6A C11A 1_555 1_555
F7A C12A 1_555 1_555
F8A C13A 1_555 1_555
F9A C14A 1_555 1_555
F10A C7A 1_555 1_555
C1A O1A 1_555 1_555
C2A O2A 1_555 1_555
C3A C1A 1_555 1_555
C4A C3A 1_555 1_555
C5A C4A 1_555 1_555
C6A C5A 1_555 1_555
C7A C6A 1_555 1_555
C8A C3A 1_555 1_555
C9A C2A 1_555 1_555
C10A C9A 1_555 1_555
C11A C10A 1_555 1_555
C12A C11A 1_555 1_555
C13A C12A 1_555 1_555
C14A C9A 1_555 1_555
Cu1_2 O3 1_555 1_555
Cu1A_2 O3A 1_555 1_555
Cu1A_3 N1A 1_555 1_555
N1A_2 Cu1A 1_555 1_555
O3_2 Cu1 1_555 1_555
O3A_2 Cu1A 1_555 1_555
C7 C8 1_555 1_555
C13 C14 1_555 1_555
N1A C16A 1_555 1_555
N2A C18A 1_555 1_555
C7A C8A 1_555 1_555
C13A C14A 1_555 1_555

#END
