
#######################################################################
#
#                 Cambridge Crystallographic Data Centre
#                                CCDC 
#
#######################################################################
#
# If this CIF has been generated from an entry in the Cambridge 
# Structural Database, then it will include bibliographic, chemical, 
# crystal, experimental, refinement or atomic coordinate data resulting 
# from the CCDC's data processing and validation procedures.
#
#######################################################################

data_OHIRED01
_symmetry_cell_setting           triclinic
_symmetry_space_group_name_H-M   'P -1'
_symmetry_Int_Tables_number      2
_space_group_name_Hall           '-P 1'
loop_
_symmetry_equiv_pos_site_id
_symmetry_equiv_pos_as_xyz
1 x,y,z
2 -x,-y,-z
_cell_length_a                   4.8046(9)
_cell_length_b                   13.072(2)
_cell_length_c                   15.357(3)
_cell_angle_alpha                89.785(2)
_cell_angle_beta                 89.660(2)
_cell_angle_gamma                86.666(2)
_cell_volume                     962.853
loop_
_atom_site_label
_atom_site_type_symbol
_atom_site_fract_x
_atom_site_fract_y
_atom_site_fract_z
Cu1 Cu 0.26121(7) 0.74938(3) 0.48090(2)
F1 F 1.0936(6) 0.62474(19) 0.26520(15)
F2 F 1.3248(7) 0.6741(3) 0.11389(18)
F3 F 1.1779(7) 0.8539(3) 0.03530(17)
F4 F 0.7947(7) 0.9858(2) 0.11007(18)
F5 F 0.5716(6) 0.94162(18) 0.26381(16)
F6 F 0.3344(9) 0.5638(2) 0.7437(2)
F7 F 0.1025(13) 0.5182(3) 0.8986(3)
F8 F -0.2350(10) 0.6620(4) 0.9812(2)
F9 F -0.3298(8) 0.8494(3) 0.9105(2)
F10 F -0.0892(6) 0.8952(2) 0.75694(17)
O1 O 0.4520(4) 0.78130(16) 0.37229(14)
O2 O 0.8640(4) 0.71430(17) 0.41473(14)
O3 O 0.1077(4) 0.72142(15) 0.59561(14)
O4 O 0.4588(6) 0.7989(3) 0.65249(19)
N1 N 0.1069(5) 0.89954(18) 0.49009(16)
N2 N 0.4137(5) 0.60168(18) 0.48715(16)
C1 C 0.7091(6) 0.7564(2) 0.3602(2)
C2 C 0.2476(7) 0.7541(3) 0.6589(2)
C3 C 0.8233(6) 0.7810(2) 0.2715(2)
C4 C 1.0174(8) 0.7159(3) 0.2297(2)
C5 C 1.1368(9) 0.7396(4) 0.1511(3)
C6 C 1.0615(9) 0.8305(4) 0.1112(3)
C7 C 0.8687(9) 0.8974(3) 0.1489(3)
C8 C 0.7540(8) 0.8721(3) 0.2282(2)
C9 C 0.1259(8) 0.7306(3) 0.7470(2)
C10 C 0.1708(11) 0.6354(4) 0.7847(3)
C11 C 0.0532(16) 0.6116(5) 0.8638(4)
C12 C -0.1148(13) 0.6836(6) 0.9048(3)
C13 C -0.1642(10) 0.7788(5) 0.8696(3)
C14 C -0.0415(8) 0.8019(3) 0.7916(3)
C15 C -0.1048(6) 0.9237(2) 0.5448(2)
H1 H -0.1831 0.8720 0.5768
C16 C 0.2094(6) 0.9763(2) 0.4454(2)
H2 H 0.3555 0.9623 0.4064
C17 C 0.3010(6) 0.5272(2) 0.4432(2)
H3 H 0.1610 0.5438 0.4032
C18 C 0.6123(6) 0.5749(2) 0.5440(2)
H4 H 0.6946 0.6253 0.5759
N1A N -0.1069(5) 1.10046(18) 0.50991(16)
C15A C 0.1048(6) 1.0763(2) 0.4552(2)
H1A H 0.1831 1.1280 0.4232
C16A C -0.2094(6) 1.0237(2) 0.5546(2)
H2A H -0.3555 1.0377 0.5936
N2A N 0.5863(5) 0.39832(18) 0.51285(16)
C17A C 0.6990(6) 0.4728(2) 0.5568(2)
H3A H 0.8390 0.4562 0.5968
C18A C 0.3877(6) 0.4251(2) 0.4560(2)
H4A H 0.3054 0.3747 0.4241
Cu1A Cu -0.26121(7) 1.25062(3) 0.51910(2)
F1A F -1.0936(6) 1.37526(19) 0.73480(15)
F2A F -1.3248(7) 1.3259(3) 0.88611(18)
F3A F -1.1779(7) 1.1461(3) 0.96470(17)
F4A F -0.7947(7) 1.0142(2) 0.88993(18)
F5A F -0.5716(6) 1.05838(18) 0.73619(16)
F6A F -0.3344(9) 1.4362(2) 0.2563(2)
F7A F -0.1025(13) 1.4818(3) 0.1014(3)
F8A F 0.2350(10) 1.3380(4) 0.0188(2)
F9A F 0.3298(8) 1.1506(3) 0.0895(2)
F10A F 0.0892(6) 1.1048(2) 0.24306(17)
O1A O -0.4520(4) 1.21870(16) 0.62771(14)
O2A O -0.8640(4) 1.28570(17) 0.58527(14)
O3A O -0.1077(4) 1.27858(15) 0.40439(14)
O4A O -0.4588(6) 1.2011(3) 0.34751(19)
C1A C -0.7091(6) 1.2436(2) 0.6398(2)
C2A C -0.2476(7) 1.2459(3) 0.3411(2)
C3A C -0.8233(6) 1.2190(2) 0.7285(2)
C4A C -1.0174(8) 1.2841(3) 0.7703(2)
C5A C -1.1368(9) 1.2604(4) 0.8489(3)
C6A C -1.0615(9) 1.1695(4) 0.8888(3)
C7A C -0.8687(9) 1.1026(3) 0.8511(3)
C8A C -0.7540(8) 1.1279(3) 0.7718(2)
C9A C -0.1259(8) 1.2694(3) 0.2530(2)
C10A C -0.1708(11) 1.3646(4) 0.2153(3)
C11A C -0.0532(16) 1.3884(5) 0.1362(4)
C12A C 0.1148(13) 1.3164(6) 0.0952(3)
C13A C 0.1642(10) 1.2212(5) 0.1304(3)
C14A C 0.0415(8) 1.1981(3) 0.2084(3)
Cu1_2 Cu 1.26121(7) 0.74938(3) 0.48090(2)
Cu1A_2 Cu -1.26121(7) 1.25062(3) 0.51910(2)
Cu1A_3 Cu 0.73879(7) 0.25062(3) 0.51910(2)
O2_2 O -0.1360(4) 0.71430(17) 0.41473(14)
O2A_2 O 0.1360(4) 1.28570(17) 0.58527(14)
N2A_2 N -0.4137(5) 1.39832(18) 0.51285(16)
loop_
_geom_bond_atom_site_label_1
_geom_bond_atom_site_label_2
_geom_bond_site_symmetry_1
_geom_bond_site_symmetry_2
Cu1 O1 1_555 1_555
F1 C4 1_555 1_555
F2 C5 1_555 1_555
F3 C6 1_555 1_555
F4 C7 1_555 1_555
F5 C8 1_555 1_555
F6 C10 1_555 1_555
F7 C11 1_555 1_555
F8 C12 1_555 1_555
F9 C13 1_555 1_555
F10 C14 1_555 1_555
O1 C1 1_555 1_555
O2 C1 1_555 1_555
O3 Cu1 1_555 1_555
O4 C2 1_555 1_555
N1 Cu1 1_555 1_555
N2 Cu1 1_555 1_555
C1 C3 1_555 1_555
C2 O3 1_555 1_555
C3 C4 1_555 1_555
C4 C5 1_555 1_555
C5 C6 1_555 1_555
C6 C7 1_555 1_555
C7 C8 1_555 1_555
C8 C3 1_555 1_555
C9 C2 1_555 1_555
C10 C9 1_555 1_555
C11 C10 1_555 1_555
C12 C11 1_555 1_555
C13 C12 1_555 1_555
C14 C9 1_555 1_555
C15 N1 1_555 1_555
H1 C15 1_555 1_555
C16 N1 1_555 1_555
H2 C16 1_555 1_555
C17 N2 1_555 1_555
H3 C17 1_555 1_555
C18 N2 1_555 1_555
H4 C18 1_555 1_555
N1A C15A 1_555 1_555
C15A C16 1_555 1_555
H1A C15A 1_555 1_555
C16A C15 1_555 1_555
H2A C16A 1_555 1_555
N2A C17A 1_555 1_555
C17A C18 1_555 1_555
H3A C17A 1_555 1_555
C18A C17 1_555 1_555
H4A C18A 1_555 1_555
Cu1A N1A 1_555 1_555
F1A C4A 1_555 1_555
F2A C5A 1_555 1_555
F3A C6A 1_555 1_555
F4A C7A 1_555 1_555
F5A C8A 1_555 1_555
F6A C10A 1_555 1_555
F7A C11A 1_555 1_555
F8A C12A 1_555 1_555
F9A C13A 1_555 1_555
F10A C14A 1_555 1_555
O1A Cu1A 1_555 1_555
O2A C1A 1_555 1_555
O3A Cu1A 1_555 1_555
O4A C2A 1_555 1_555
C1A O1A 1_555 1_555
C2A O3A 1_555 1_555
C3A C1A 1_555 1_555
C4A C3A 1_555 1_555
C5A C4A 1_555 1_555
C6A C5A 1_555 1_555
C7A C6A 1_555 1_555
C8A C3A 1_555 1_555
C9A C2A 1_555 1_555
C10A C9A 1_555 1_555
C11A C10A 1_555 1_555
C12A C11A 1_555 1_555
C13A C12A 1_555 1_555
C14A C9A 1_555 1_555
Cu1_2 O2 1_555 1_555
Cu1A_2 O2A 1_555 1_555
Cu1A_3 N2A 1_555 1_555
O2_2 Cu1 1_555 1_555
O2A_2 Cu1A 1_555 1_555
N2A_2 Cu1A 1_555 1_555
C13 C14 1_555 1_555
N1A C16A 1_555 1_555
N2A C18A 1_555 1_555
C7A C8A 1_555 1_555
C13A C14A 1_555 1_555

#END
