
#######################################################################
#
#                 Cambridge Crystallographic Data Centre
#                                CCDC 
#
#######################################################################
#
# If this CIF has been generated from an entry in the Cambridge 
# Structural Database, then it will include bibliographic, chemical, 
# crystal, experimental, refinement or atomic coordinate data resulting 
# from the CCDC's data processing and validation procedures.
#
#######################################################################

data_OHIVOQ
_symmetry_cell_setting           monoclinic
_symmetry_space_group_name_H-M   'P 21/c'
_symmetry_Int_Tables_number      14
_space_group_name_Hall           '-P 2ybc'
loop_
_symmetry_equiv_pos_site_id
_symmetry_equiv_pos_as_xyz
1 x,y,z
2 -x,1/2+y,1/2-z
3 -x,-y,-z
4 x,1/2-y,1/2+z
_cell_length_a                   7.4760(15)
_cell_length_b                   14.263(3)
_cell_length_c                   7.6330(15)
_cell_angle_alpha                90
_cell_angle_beta                 99.67(3)
_cell_angle_gamma                90
_cell_volume                     802.344
loop_
_atom_site_label
_atom_site_type_symbol
_atom_site_fract_x
_atom_site_fract_y
_atom_site_fract_z
Ni1 Ni 1.07979(4) 0.86046(2) 0.79803(4)
O1 O 0.8863(2) 0.83343(12) 0.5774(2)
O2 O 0.7306(2) 0.96704(13) 0.5529(2)
C1 C 0.7684(3) 0.88928(17) 0.4950(3)
C2 C 0.6744(3) 0.85878(18) 0.3154(3)
C3 C 0.5308(3) 0.90241(18) 0.2305(3)
C4 C 0.4362(3) 0.87902(16) 0.0479(3)
O3 O 0.2634(2) 0.87690(12) 0.0292(2)
O4 O 0.5247(2) 0.86460(15) -0.0737(2)
O5 O 1.0286(3) 1.00121(13) 0.7792(3)
O6 O 0.8917(3) 0.84644(14) 0.9657(2)
O7 O 1.1347(3) 0.71859(12) 0.8081(2)
O8 O 1.2753(3) 0.87162(13) 0.6333(2)
H1 H 0.731(4) 0.810(2) 0.272(4)
H2 H 0.483(4) 0.946(2) 0.274(4)
H3 H 1.039(5) 1.040(3) 0.856(5)
H4 H 0.927(5) 1.005(3) 0.716(5)
H5 H 0.793(5) 0.854(2) 0.936(5)
H6 H 0.896(4) 0.800(2) 1.000(4)
H7 H 1.178(4) 0.690(2) 0.728(5)
H8 H 1.182(5) 0.698(3) 0.892(5)
H9 H 1.278(4) 0.922(2) 0.583(4)
H10 H 1.353(5) 0.866(2) 0.700(5)
O3_2 O 1.2634(2) 0.87690(12) 1.0292(2)
Ni1_2 Ni 0.07979(4) 0.86046(2) -0.20197(4)
loop_
_geom_bond_atom_site_label_1
_geom_bond_atom_site_label_2
_geom_bond_site_symmetry_1
_geom_bond_site_symmetry_2
Ni1 O1 1_555 1_555
O1 C1 1_555 1_555
O2 C1 1_555 1_555
C1 C2 1_555 1_555
C2 C3 1_555 1_555
C3 C4 1_555 1_555
C4 O3 1_555 1_555
O3 Ni1_2 1_555 1_555
O4 C4 1_555 1_555
O5 Ni1 1_555 1_555
O6 Ni1 1_555 1_555
O7 Ni1 1_555 1_555
O8 Ni1 1_555 1_555
H1 C2 1_555 1_555
H2 C3 1_555 1_555
H3 O5 1_555 1_555
H4 O5 1_555 1_555
H5 O6 1_555 1_555
H6 O6 1_555 1_555
H7 O7 1_555 1_555
H8 O7 1_555 1_555
H9 O8 1_555 1_555
H10 O8 1_555 1_555
O3_2 Ni1 1_555 1_555

#END
