
#######################################################################
#
#                 Cambridge Crystallographic Data Centre
#                                CCDC 
#
#######################################################################
#
# If this CIF has been generated from an entry in the Cambridge 
# Structural Database, then it will include bibliographic, chemical, 
# crystal, experimental, refinement or atomic coordinate data resulting 
# from the CCDC's data processing and validation procedures.
#
#######################################################################

data_OHIVUX
_symmetry_cell_setting           triclinic
_symmetry_space_group_name_H-M   'P -1'
_symmetry_Int_Tables_number      2
_space_group_name_Hall           '-P 1'
loop_
_symmetry_equiv_pos_site_id
_symmetry_equiv_pos_as_xyz
1 x,y,z
2 -x,-y,-z
_cell_length_a                   5.9871(4)
_cell_length_b                   9.5553(7)
_cell_length_c                   14.2529(10)
_cell_angle_alpha                80.3510(10)
_cell_angle_beta                 82.1280(10)
_cell_angle_gamma                81.0320(10)
_cell_volume                     788.866
loop_
_atom_site_label
_atom_site_type_symbol
_atom_site_fract_x
_atom_site_fract_y
_atom_site_fract_z
Cs1 Cs 0.20941(3) 0.154204(18) 0.032188(11)
P1 P 0.47258(11) -0.11927(8) 0.20344(5)
O1 O 0.7125(3) 0.0888(2) 0.08991(13)
C1 C 0.6620(4) 0.0077(3) 0.16731(17)
C2 C 0.7640(4) -0.0091(2) 0.26222(16)
C3 C 0.6338(4) -0.1364(3) 0.31147(17)
C4 C 0.7228(4) 0.1283(3) 0.31153(17)
C5 C 0.4712(4) 0.1930(3) 0.3194(2)
H1 H 0.4502 0.2742 0.3529
H2 H 0.3805 0.1224 0.3538
H3 H 0.4252 0.2231 0.2564
C6 C 0.8636(4) 0.2392(3) 0.2519(2)
C7 C 0.8008(5) 0.0940(3) 0.41123(19)
H4 H 0.7813 0.1803 0.4393
H5 H 0.9585 0.0538 0.4066
H6 H 0.7117 0.0264 0.4506
C8 C 0.7755(4) -0.2834(3) 0.34049(18)
C9 C 0.6056(5) -0.3898(3) 0.3808(2)
H7 H 0.6874 -0.4827 0.3998
H8 H 0.5118 -0.3954 0.3324
H9 H 0.5115 -0.3577 0.4353
C10 C 0.9289(5) -0.3387(3) 0.2559(2)
H10 H 1.0211 -0.4263 0.2783
H11 H 1.0253 -0.2685 0.2261
H12 H 0.8366 -0.3562 0.2102
C11 C 0.9227(5) -0.2739(3) 0.4179(2)
H13 H 1.0026 -0.3669 0.4380
H14 H 0.8276 -0.2401 0.4717
H15 H 1.0303 -0.2085 0.3927
C12 C 0.2862(4) 0.5584(3) 0.0369(2)
O2 O 0.3070(3) 0.4716(2) -0.03636(14)
C13 C 0.4798(5) 0.5161(4) 0.0960(2)
H16 H 0.921(4) -0.038(3) 0.2567(18)
H17 H 0.535(5) -0.111(3) 0.367(2)
H18 H 0.149(5) 0.544(3) 0.077(2)
H19 H 0.479(5) 0.417(3) 0.126(2)
H20 H 0.280(5) 0.656(3) 0.007(2)
H21 H 0.465(7) 0.586(4) 0.143(3)
H22 H 1.004(7) 0.203(4) 0.247(3)
H23 H 0.828(5) 0.266(3) 0.185(2)
H24 H 0.845(6) 0.328(4) 0.282(2)
Cs1A Cs 0.79059(3) -0.154204(18) -0.032188(11)
Cs1A_2 Cs -0.20941(3) -0.154204(18) -0.032188(11)
Cs1_2 Cs 1.20941(3) 0.154204(18) 0.032188(11)
Cs1A_3 Cs 0.79059(3) 0.845796(18) -0.032188(11)
P1A P 0.52742(11) 0.11927(8) -0.20344(5)
O1A O 0.2875(3) -0.0888(2) -0.08991(13)
O1_2 O -0.2875(3) 0.0888(2) 0.08991(13)
O1A_2 O 1.2875(3) -0.0888(2) -0.08991(13)
C1A C 0.3380(4) -0.0077(3) -0.16731(17)
C2A C 0.2360(4) 0.0091(2) -0.26222(16)
C3A C 0.3662(4) 0.1364(3) -0.31147(17)
C4A C 0.2772(4) -0.1283(3) -0.31153(17)
C5A C 0.5288(4) -0.1930(3) -0.3194(2)
H1A H 0.5498 -0.2742 -0.3529
H2A H 0.6195 -0.1224 -0.3538
H3A H 0.5748 -0.2231 -0.2564
C6A C 0.1364(4) -0.2392(3) -0.2519(2)
C7A C 0.1992(5) -0.0940(3) -0.41123(19)
H4A H 0.2187 -0.1803 -0.4393
H5A H 0.0415 -0.0538 -0.4066
H6A H 0.2883 -0.0264 -0.4506
C8A C 0.2245(4) 0.2834(3) -0.34049(18)
C9A C 0.3944(5) 0.3898(3) -0.3808(2)
H7A H 0.3126 0.4827 -0.3998
H8A H 0.4882 0.3954 -0.3324
H9A H 0.4885 0.3577 -0.4353
C10A C 0.0711(5) 0.3387(3) -0.2559(2)
H10A H -0.0211 0.4263 -0.2783
H11A H -0.0253 0.2685 -0.2261
H12A H 0.1634 0.3562 -0.2102
C11A C 0.0773(5) 0.2739(3) -0.4179(2)
H13A H -0.0026 0.3669 -0.4380
H14A H 0.1724 0.2401 -0.4717
H15A H -0.0303 0.2085 -0.3927
C12A C 0.7138(4) 0.4416(3) -0.0369(2)
O2A O 0.6930(3) 0.5284(2) 0.03636(14)
O2A_2 O 0.6930(3) -0.4716(2) 0.03636(14)
C13A C 0.5202(5) 0.4839(4) -0.0960(2)
H16A H 0.079(4) 0.038(3) -0.2567(18)
H17A H 0.465(5) 0.111(3) -0.367(2)
H18A H 0.851(5) 0.456(3) -0.077(2)
H19A H 0.521(5) 0.583(3) -0.126(2)
H20A H 0.720(5) 0.344(3) -0.007(2)
H21A H 0.535(7) 0.414(4) -0.143(3)
H22A H -0.004(7) -0.203(4) -0.247(3)
H23A H 0.172(5) -0.266(3) -0.185(2)
H24A H 0.155(6) -0.328(4) -0.282(2)
loop_
_geom_bond_atom_site_label_1
_geom_bond_atom_site_label_2
_geom_bond_site_symmetry_1
_geom_bond_site_symmetry_2
Cs1 P1 1_555 1_555
P1 C1 1_555 1_555
O1 Cs1 1_555 1_555
C1 O1 1_555 1_555
C2 C1 1_555 1_555
C3 P1 1_555 1_555
C4 C2 1_555 1_555
C5 C4 1_555 1_555
H1 C5 1_555 1_555
H2 C5 1_555 1_555
H3 C5 1_555 1_555
C6 C4 1_555 1_555
C7 C4 1_555 1_555
H4 C7 1_555 1_555
H5 C7 1_555 1_555
H6 C7 1_555 1_555
C8 C3 1_555 1_555
C9 C8 1_555 1_555
H7 C9 1_555 1_555
H8 C9 1_555 1_555
H9 C9 1_555 1_555
C10 C8 1_555 1_555
H10 C10 1_555 1_555
H11 C10 1_555 1_555
H12 C10 1_555 1_555
C11 C8 1_555 1_555
H13 C11 1_555 1_555
H14 C11 1_555 1_555
H15 C11 1_555 1_555
C12 O2 1_555 1_555
O2 Cs1 1_555 1_555
C13 C12 1_555 1_555
H16 C2 1_555 1_555
H17 C3 1_555 1_555
H18 C12 1_555 1_555
H19 C13 1_555 1_555
H20 C12 1_555 1_555
H21 C13 1_555 1_555
H22 C6 1_555 1_555
H23 C6 1_555 1_555
H24 C6 1_555 1_555
Cs1A P1 1_555 1_555
Cs1A_2 O1A 1_555 1_555
Cs1_2 O1 1_555 1_555
Cs1A_3 O2A 1_555 1_555
P1A Cs1 1_555 1_555
O1A Cs1 1_555 1_555
O1_2 Cs1 1_555 1_555
O1A_2 Cs1A 1_555 1_555
C1A P1A 1_555 1_555
C2A C1A 1_555 1_555
C3A P1A 1_555 1_555
C4A C2A 1_555 1_555
C5A C4A 1_555 1_555
H1A C5A 1_555 1_555
H2A C5A 1_555 1_555
H3A C5A 1_555 1_555
C6A C4A 1_555 1_555
C7A C4A 1_555 1_555
H4A C7A 1_555 1_555
H5A C7A 1_555 1_555
H6A C7A 1_555 1_555
C8A C3A 1_555 1_555
C9A C8A 1_555 1_555
H7A C9A 1_555 1_555
H8A C9A 1_555 1_555
H9A C9A 1_555 1_555
C10A C8A 1_555 1_555
H10A C10A 1_555 1_555
H11A C10A 1_555 1_555
H12A C10A 1_555 1_555
C11A C8A 1_555 1_555
H13A C11A 1_555 1_555
H14A C11A 1_555 1_555
H15A C11A 1_555 1_555
C12A O2A 1_555 1_555
O2A C13 1_555 1_555
O2A_2 Cs1A 1_555 1_555
C13A O2 1_555 1_555
H16A C2A 1_555 1_555
H17A C3A 1_555 1_555
H18A C12A 1_555 1_555
H19A C13A 1_555 1_555
H20A C12A 1_555 1_555
H21A C13A 1_555 1_555
H22A C6A 1_555 1_555
H23A C6A 1_555 1_555
H24A C6A 1_555 1_555
O1 Cs1A 1_555 1_555
C2 C3 1_555 1_555
Cs1A P1A 1_555 1_555
Cs1A O1A 1_555 1_555
Cs1A_2 O1_2 1_555 1_555
Cs1_2 O1A_2 1_555 1_555
O1A C1A 1_555 1_555
C2A C3A 1_555 1_555
C12A C13A 1_555 1_555

#END
