
#######################################################################
#
#                 Cambridge Crystallographic Data Centre
#                                CCDC 
#
#######################################################################
#
# If this CIF has been generated from an entry in the Cambridge 
# Structural Database, then it will include bibliographic, chemical, 
# crystal, experimental, refinement or atomic coordinate data resulting 
# from the CCDC's data processing and validation procedures.
#
#######################################################################

data_OHIXUA01
_symmetry_cell_setting           monoclinic
_symmetry_space_group_name_H-M   'P 21/c'
_symmetry_Int_Tables_number      14
_space_group_name_Hall           '-P 2ybc'
loop_
_symmetry_equiv_pos_site_id
_symmetry_equiv_pos_as_xyz
1 x,y,z
2 -x,1/2+y,1/2-z
3 -x,-y,-z
4 x,1/2-y,1/2+z
_cell_length_a                   8.6147(6)
_cell_length_b                   16.5484(12)
_cell_length_c                   9.3691(7)
_cell_angle_alpha                90
_cell_angle_beta                 93.617(1)
_cell_angle_gamma                90
_cell_volume                     1332.99
loop_
_atom_site_label
_atom_site_type_symbol
_atom_site_fract_x
_atom_site_fract_y
_atom_site_fract_z
C1 C 0.3241(6) 0.1782(3) 0.5005(6)
H1 H 0.4106 0.2075 0.4695
C2 C 0.1697(6) 0.0814(3) 0.5510(6)
H2 H 0.1288 0.0285 0.5604
C3 C 0.0985(6) 0.1501(3) 0.5905(6)
H3 H 0.0014 0.1544 0.6325
C4 C 0.1741(6) 0.2967(3) 0.5795(6)
C5 C 0.0763(6) 0.3223(3) 0.6831(6)
H4 H 0.0234 0.2847 0.7393
C6 C 0.0594(6) 0.4041(3) 0.7008(5)
H5 H -0.0074 0.4242 0.7695
C7 C 0.1405(6) 0.4578(3) 0.6176(6)
H6 H 0.1316 0.5147 0.6284
C8 C 0.2342(6) 0.4243(3) 0.5190(5)
C9 C 0.4032(6) 0.4469(3) 0.3164(6)
H7 H 0.4237 0.3917 0.2970
C10 C 0.3168(7) 0.5575(3) 0.4179(6)
H8 H 0.2657 0.5935 0.4784
C11 C 0.4039(6) 0.5773(3) 0.3082(6)
H9 H 0.4274 0.6308 0.2797
Cd1 Cd 0.5000 0.0000 0.5000
N1 N 0.3105(5) 0.0992(3) 0.4950(5)
N2 N 0.1965(5) 0.2129(3) 0.5570(5)
N3 N 0.2520(5) 0.3450(3) 0.4983(5)
N4 N 0.3170(5) 0.4740(3) 0.4241(5)
N5 N 0.4531(5) 0.5079(2) 0.2443(5)
O1 O 0.6956(4) 0.0945(2) 0.5444(4)
H10 H 0.7004 0.1249 0.4731
H11 H 0.730(9) 0.113(5) 0.625(9)
C1B C 0.6759(6) -0.1782(3) 0.4995(6)
H1B H 0.5894 -0.2075 0.5305
C2B C 0.8303(6) -0.0814(3) 0.4490(6)
H2B H 0.8712 -0.0285 0.4396
C3B C 0.9015(6) -0.1501(3) 0.4095(6)
H3B H 0.9986 -0.1544 0.3675
C4B C 0.8259(6) -0.2967(3) 0.4205(6)
C5B C 0.9237(6) -0.3223(3) 0.3169(6)
H4B H 0.9766 -0.2847 0.2607
C6B C 0.9406(6) -0.4041(3) 0.2992(5)
H5B H 1.0074 -0.4242 0.2305
C7B C 0.8595(6) -0.4578(3) 0.3824(6)
H6B H 0.8684 -0.5147 0.3716
C8B C 0.7658(6) -0.4243(3) 0.4810(5)
C9B C 0.5968(6) -0.4469(3) 0.6836(6)
H7B H 0.5763 -0.3917 0.7030
C10B C 0.6832(7) -0.5575(3) 0.5821(6)
H8B H 0.7343 -0.5935 0.5216
C11B C 0.5961(6) -0.5773(3) 0.6918(6)
H9B H 0.5726 -0.6308 0.7203
N1B N 0.6895(5) -0.0992(3) 0.5050(5)
N2B N 0.8035(5) -0.2129(3) 0.4430(5)
N3B N 0.7480(5) -0.3450(3) 0.5017(5)
N4B N 0.6830(5) -0.4740(3) 0.5759(5)
N5B N 0.5469(5) -0.5079(2) 0.7557(5)
O1B O 0.3044(4) -0.0945(2) 0.4556(4)
H10B H 0.2996 -0.1249 0.5269
H11B H 0.270(9) -0.113(5) 0.375(9)
Cd1A Cd 0.5000 -0.5000 1.0000
Cd1A_2 Cd 0.5000 0.5000 0.0000
N5A N 0.5469(5) 0.0079(2) 0.2557(5)
N5C N 0.4531(5) -0.0079(2) 0.7443(5)
N6 N 0.7308(6) 0.2206(3) 0.8407(5)
O2 O 0.8082(5) 0.2732(3) 0.9129(5)
O3 O 0.8011(5) 0.1581(2) 0.8016(4)
O4 O 0.5908(4) 0.2300(2) 0.8099(5)
loop_
_geom_bond_atom_site_label_1
_geom_bond_atom_site_label_2
_geom_bond_site_symmetry_1
_geom_bond_site_symmetry_2
C1 H1 1_555 1_555
C2 H2 1_555 1_555
C3 C2 1_555 1_555
H3 C3 1_555 1_555
C4 C5 1_555 1_555
C5 H4 1_555 1_555
C6 C5 1_555 1_555
H5 C6 1_555 1_555
C7 C6 1_555 1_555
H6 C7 1_555 1_555
C8 C7 1_555 1_555
C9 H7 1_555 1_555
C10 H8 1_555 1_555
C11 C10 1_555 1_555
H9 C11 1_555 1_555
Cd1 N1 1_555 1_555
N1 C1 1_555 1_555
N2 C1 1_555 1_555
N3 C4 1_555 1_555
N4 C8 1_555 1_555
N5 C9 1_555 1_555
O1 Cd1 1_555 1_555
H10 O1 1_555 1_555
H11 O1 1_555 1_555
N6 O2 1_555 1_555
O3 N6 1_555 1_555
O4 N6 1_555 1_555
C1B H1B 1_555 1_555
C2B H2B 1_555 1_555
C3B C2B 1_555 1_555
H3B C3B 1_555 1_555
C4B C5B 1_555 1_555
C5B H4B 1_555 1_555
C6B C5B 1_555 1_555
H5B C6B 1_555 1_555
C7B C6B 1_555 1_555
H6B C7B 1_555 1_555
C8B C7B 1_555 1_555
C9B H7B 1_555 1_555
C10B H8B 1_555 1_555
C11B C10B 1_555 1_555
H9B C11B 1_555 1_555
N1B Cd1 1_555 1_555
N2B C1B 1_555 1_555
N3B C4B 1_555 1_555
N4B C8B 1_555 1_555
N5B C9B 1_555 1_555
O1B Cd1 1_555 1_555
H10B O1B 1_555 1_555
H11B O1B 1_555 1_555
Cd1A N5B 1_555 1_555
Cd1A_2 N5 1_555 1_555
N5A Cd1 1_555 1_555
N5C Cd1 1_555 1_555
C2 N1 1_555 1_555
C3 N2 1_555 1_555
C4 N2 1_555 1_555
C8 N3 1_555 1_555
C9 N4 1_555 1_555
C10 N4 1_555 1_555
C11 N5 1_555 1_555
C1B N1B 1_555 1_555
C2B N1B 1_555 1_555
C3B N2B 1_555 1_555
C4B N2B 1_555 1_555
C8B N3B 1_555 1_555
C9B N4B 1_555 1_555
C10B N4B 1_555 1_555
C11B N5B 1_555 1_555

#END
