
#######################################################################
#
#                 Cambridge Crystallographic Data Centre
#                                CCDC 
#
#######################################################################
#
# If this CIF has been generated from an entry in the Cambridge 
# Structural Database, then it will include bibliographic, chemical, 
# crystal, experimental, refinement or atomic coordinate data resulting 
# from the CCDC's data processing and validation procedures.
#
#######################################################################

data_OHIXEK
_symmetry_cell_setting           monoclinic
_symmetry_space_group_name_H-M   'P 21/n'
_symmetry_Int_Tables_number      14
_space_group_name_Hall           '-P 2yn'
loop_
_symmetry_equiv_pos_site_id
_symmetry_equiv_pos_as_xyz
1 x,y,z
2 1/2-x,1/2+y,1/2-z
3 -x,-y,-z
4 1/2+x,1/2-y,1/2+z
_cell_length_a                   9.3561(9)
_cell_length_b                   10.9855(11)
_cell_length_c                   11.4548(12)
_cell_angle_alpha                90
_cell_angle_beta                 95.176(2)
_cell_angle_gamma                90
_cell_volume                     1172.54
loop_
_atom_site_label
_atom_site_type_symbol
_atom_site_fract_x
_atom_site_fract_y
_atom_site_fract_z
Zn1 Zn 1.0000 0.0000 0.0000
O1 O 1.22991(19) 0.00991(16) -0.02631(15)
O2 O 1.35747(19) 0.05718(17) 0.13611(15)
O3 O 1.40571(19) -0.10626(16) 0.04202(16)
N1 N 0.9957(2) 0.18520(18) 0.05975(16)
N2 N 0.9013(2) 0.36276(18) 0.09916(17)
N3 N 0.7382(2) 0.48450(17) -0.01166(18)
N4 N 0.5842(2) 0.59913(18) -0.13668(17)
N5 N 0.5332(2) 0.56965(18) -0.32659(17)
N6 N 1.3323(2) -0.01308(18) 0.05189(18)
C1 C 0.8852(3) 0.2577(2) 0.03710(19)
H1 H 0.8060 0.2394 -0.0149
C2 C 1.0892(3) 0.2478(2) 0.1393(2)
H2 H 1.1784 0.2192 0.1699
C3 C 1.0321(3) 0.3562(2) 0.1658(2)
H3 H 1.0723 0.4143 0.2179
C4 C 0.8042(3) 0.4634(2) 0.0939(2)
C5 C 0.7833(3) 0.5288(2) 0.1940(2)
H4 H 0.8304 0.5088 0.2665
C6 C 0.6888(3) 0.6254(2) 0.1808(2)
H5 H 0.6707 0.6719 0.2457
C7 C 0.6209(3) 0.6538(2) 0.0720(2)
H6 H 0.5590 0.7200 0.0615
C8 C 0.6492(3) 0.5791(2) -0.0208(2)
C9 C 0.4932(3) 0.6931(2) -0.1764(2)
H7 H 0.4599 0.7566 -0.1326
C10 C 0.4633(3) 0.6727(2) -0.2922(2)
H8 H 0.4038 0.7213 -0.3421
C11 C 0.6050(3) 0.5279(2) -0.2308(2)
H9 H 0.6625 0.4588 -0.2279
O1B O 0.77009(19) -0.00991(16) 0.02631(15)
O2B O 0.64253(19) -0.05718(17) -0.13611(15)
O3B O 0.59429(19) 0.10626(16) -0.04202(16)
N1B N 1.0043(2) -0.18520(18) -0.05975(16)
N2B N 1.0987(2) -0.36276(18) -0.09916(17)
N3B N 1.2618(2) -0.48450(17) 0.01166(18)
N4B N 1.4158(2) -0.59913(18) 0.13668(17)
N5B N 1.4668(2) -0.56965(18) 0.32659(17)
N6B N 0.6677(2) 0.01308(18) -0.05189(18)
C1B C 1.1148(3) -0.2577(2) -0.03710(19)
H1B H 1.1940 -0.2394 0.0149
C2B C 0.9108(3) -0.2478(2) -0.1393(2)
H2B H 0.8216 -0.2192 -0.1699
C3B C 0.9679(3) -0.3562(2) -0.1658(2)
H3B H 0.9277 -0.4143 -0.2179
C4B C 1.1958(3) -0.4634(2) -0.0939(2)
C5B C 1.2167(3) -0.5288(2) -0.1940(2)
H4B H 1.1696 -0.5088 -0.2665
C6B C 1.3112(3) -0.6254(2) -0.1808(2)
H5B H 1.3293 -0.6719 -0.2457
C7B C 1.3791(3) -0.6538(2) -0.0720(2)
H6B H 1.4410 -0.7200 -0.0615
C8B C 1.3508(3) -0.5791(2) 0.0208(2)
C9B C 1.5068(3) -0.6931(2) 0.1764(2)
H7B H 1.5401 -0.7566 0.1326
C10B C 1.5367(3) -0.6727(2) 0.2922(2)
H8B H 1.5962 -0.7213 0.3421
C11B C 1.3950(3) -0.5279(2) 0.2308(2)
H9B H 1.3375 -0.4588 0.2279
Zn1A Zn 0.5000 0.5000 -0.5000
Zn1A_2 Zn 1.5000 -0.5000 0.5000
N5A N 0.9668(2) 0.06965(18) -0.17341(17)
N5C N 1.0332(2) -0.06965(18) 0.17341(17)
loop_
_geom_bond_atom_site_label_1
_geom_bond_atom_site_label_2
_geom_bond_site_symmetry_1
_geom_bond_site_symmetry_2
Zn1 O1 1_555 1_555
O1 N6 1_555 1_555
O2 N6 1_555 1_555
O3 N6 1_555 1_555
N1 Zn1 1_555 1_555
N2 C1 1_555 1_555
N3 C4 1_555 1_555
N4 C8 1_555 1_555
N5 C10 1_555 1_555
C1 N1 1_555 1_555
H1 C1 1_555 1_555
C2 N1 1_555 1_555
H2 C2 1_555 1_555
C3 N2 1_555 1_555
H3 C3 1_555 1_555
C4 N2 1_555 1_555
C5 C4 1_555 1_555
H4 C5 1_555 1_555
C6 C5 1_555 1_555
H5 C6 1_555 1_555
C7 C6 1_555 1_555
H6 C7 1_555 1_555
C8 N3 1_555 1_555
C9 N4 1_555 1_555
H7 C9 1_555 1_555
C10 C9 1_555 1_555
H8 C10 1_555 1_555
C11 N4 1_555 1_555
H9 C11 1_555 1_555
O1B Zn1 1_555 1_555
O2B N6B 1_555 1_555
O3B N6B 1_555 1_555
N1B Zn1 1_555 1_555
N2B C1B 1_555 1_555
N3B C4B 1_555 1_555
N4B C8B 1_555 1_555
N5B C10B 1_555 1_555
N6B O1B 1_555 1_555
C1B N1B 1_555 1_555
H1B C1B 1_555 1_555
C2B N1B 1_555 1_555
H2B C2B 1_555 1_555
C3B N2B 1_555 1_555
H3B C3B 1_555 1_555
C4B N2B 1_555 1_555
C5B C4B 1_555 1_555
H4B C5B 1_555 1_555
C6B C5B 1_555 1_555
H5B C6B 1_555 1_555
C7B C6B 1_555 1_555
H6B C7B 1_555 1_555
C8B N3B 1_555 1_555
C9B N4B 1_555 1_555
H7B C9B 1_555 1_555
C10B C9B 1_555 1_555
H8B C10B 1_555 1_555
C11B N4B 1_555 1_555
H9B C11B 1_555 1_555
Zn1A N5 1_555 1_555
Zn1A_2 N5B 1_555 1_555
N5A Zn1 1_555 1_555
N5C Zn1 1_555 1_555
N5 C11 1_555 1_555
C2 C3 1_555 1_555
C7 C8 1_555 1_555
N5B C11B 1_555 1_555
C2B C3B 1_555 1_555
C7B C8B 1_555 1_555

#END
