
#######################################################################
#
#                 Cambridge Crystallographic Data Centre
#                                CCDC 
#
#######################################################################
#
# If this CIF has been generated from an entry in the Cambridge 
# Structural Database, then it will include bibliographic, chemical, 
# crystal, experimental, refinement or atomic coordinate data resulting 
# from the CCDC's data processing and validation procedures.
#
#######################################################################

data_OHIXUA
_symmetry_cell_setting           monoclinic
_symmetry_space_group_name_H-M   'C 2'
_symmetry_Int_Tables_number      5
_space_group_name_Hall           'C 2y'
loop_
_symmetry_equiv_pos_site_id
_symmetry_equiv_pos_as_xyz
1 x,y,z
2 -x,y,-z
3 1/2+x,1/2+y,z
4 1/2-x,1/2+y,-z
_cell_length_a                   9.3655(9)
_cell_length_b                   16.551(2)
_cell_length_c                   8.6129(8)
_cell_angle_alpha                90
_cell_angle_beta                 93.664(2)
_cell_angle_gamma                90
_cell_volume                     1332.34
loop_
_atom_site_label
_atom_site_type_symbol
_atom_site_fract_x
_atom_site_fract_y
_atom_site_fract_z
Cd1 Cd 0.5000 0.5105 1.0000
N1 N 0.4756(11) 0.4138(7) 0.8089(13)
C1 C 0.5497(10) 0.4290(6) 0.6675(11)
H1 H 0.5655 0.4805 0.6287
C2 C 0.5926(10) 0.3613(6) 0.5997(11)
H2 H 0.6306 0.3587 0.5027
N2 N 0.5720(17) 0.2956(9) 0.6951(18)
C3 C 0.5001(10) 0.3318(7) 0.8237(11)
C4 C 0.5808(11) 0.2148(6) 0.6737(11)
C5 C 0.6811(10) 0.1883(6) 0.5754(11)
H3 H 0.7347 0.2249 0.5214
C6 C 0.7000(11) 0.1065(6) 0.5592(12)
H4 H 0.7676 0.0871 0.4939
C7 C 0.6175(10) 0.0522(6) 0.6410(10)
H5 H 0.6278 -0.0036 0.6336
C8 C 0.5175(10) 0.0888(6) 0.7355(10)
N3 N 0.2429(6) 0.0123(9) 0.9563(6)
C9 C 0.3094(11) -0.0623(7) 0.9009(12)
H6 H 0.2797 -0.1148 0.9198
C10 C 0.4211(11) -0.0409(7) 0.8175(11)
H7 H 0.4824 -0.0758 0.7694
N4 N 0.4268(11) 0.0359(6) 0.8173(11)
C11 C 0.3171(14) 0.0645(8) 0.9062(15)
H8 H 0.3028 0.1192 0.9249
N5 N 0.4981(8) 0.1635(5) 0.7512(9)
O1 O 0.5281(15) 0.6062(6) 1.1925(12)
H9 H 0.4807 0.5935 1.2655
H10 H 0.512(9) 0.6567(17) 1.188(9)
H11 H 0.4603 0.3050 0.8968
N1A N 0.5244(11) 0.4138(7) 1.1911(13)
C1A C 0.4503(10) 0.4290(6) 1.3325(11)
H1A H 0.4345 0.4805 1.3713
C2A C 0.4074(10) 0.3613(6) 1.4003(11)
H2A H 0.3694 0.3587 1.4973
N2A N 0.4280(17) 0.2956(9) 1.3049(18)
C3A C 0.4999(10) 0.3318(7) 1.1763(11)
C4A C 0.4192(11) 0.2148(6) 1.3263(11)
C5A C 0.3189(10) 0.1883(6) 1.4246(11)
H3A H 0.2653 0.2249 1.4786
C6A C 0.3000(11) 0.1065(6) 1.4408(12)
H4A H 0.2324 0.0871 1.5061
C7A C 0.3825(10) 0.0522(6) 1.3590(10)
H5A H 0.3722 -0.0036 1.3664
C8A C 0.4825(10) 0.0888(6) 1.2645(10)
N3A N 0.7571(6) 0.0123(9) 1.0437(6)
C9A C 0.6906(11) -0.0623(7) 1.0991(12)
H6A H 0.7203 -0.1148 1.0802
C10A C 0.5789(11) -0.0409(7) 1.1825(11)
H7A H 0.5176 -0.0758 1.2306
N4A N 0.5732(11) 0.0359(6) 1.1827(11)
C11A C 0.6829(14) 0.0645(8) 1.0938(15)
H8A H 0.6972 0.1192 1.0751
N5A N 0.5019(8) 0.1635(5) 1.2488(9)
O1A O 0.4719(15) 0.6062(6) 0.8075(12)
H9A H 0.5193 0.5935 0.7345
H10A H 0.488(9) 0.6567(17) 0.812(9)
H11A H 0.5397 0.3050 1.1032
Cd1B Cd 0.0000 0.0105 1.0000
Cd1B_2 Cd 1.0000 0.0105 1.0000
N3B N 0.7429(6) 0.5123(9) 0.9563(6)
N3C N 0.2571(6) 0.5123(9) 1.0437(6)
N6 N 0.1601(8) 0.2908(5) 0.7705(9)
O2 O 0.0732(13) 0.2337(6) 0.6941(11)
O3 O 0.1908(9) 0.2800(5) 0.9072(8)
O4 O 0.1985(7) 0.3524(4) 0.7001(8)
loop_
_geom_bond_atom_site_label_1
_geom_bond_atom_site_label_2
_geom_bond_site_symmetry_1
_geom_bond_site_symmetry_2
Cd1 N1 1_555 1_555
N1 C1 1_555 1_555
C1 H1 1_555 1_555
C2 C1 1_555 1_555
H2 C2 1_555 1_555
N2 C2 1_555 1_555
C3 N1 1_555 1_555
C4 N2 1_555 1_555
C5 C4 1_555 1_555
H3 C5 1_555 1_555
C6 C5 1_555 1_555
H4 C6 1_555 1_555
C7 C6 1_555 1_555
H5 C7 1_555 1_555
C8 C7 1_555 1_555
N3 C9 1_555 1_555
C9 H6 1_555 1_555
C10 C9 1_555 1_555
H7 C10 1_555 1_555
N4 C8 1_555 1_555
C11 N3 1_555 1_555
H8 C11 1_555 1_555
N5 C4 1_555 1_555
O1 Cd1 1_555 1_555
H9 O1 1_555 1_555
H10 O1 1_555 1_555
H11 C3 1_555 1_555
N6 O2 1_555 1_555
O3 N6 1_555 1_555
O4 N6 1_555 1_555
N1A Cd1 1_555 1_555
C1A N1A 1_555 1_555
H1A C1A 1_555 1_555
C2A C1A 1_555 1_555
H2A C2A 1_555 1_555
N2A C2A 1_555 1_555
C3A N1A 1_555 1_555
C4A N2A 1_555 1_555
C5A C4A 1_555 1_555
H3A C5A 1_555 1_555
C6A C5A 1_555 1_555
H4A C6A 1_555 1_555
C7A C6A 1_555 1_555
H5A C7A 1_555 1_555
C8A C7A 1_555 1_555
N3A C9A 1_555 1_555
C9A H6A 1_555 1_555
C10A C9A 1_555 1_555
H7A C10A 1_555 1_555
N4A C8A 1_555 1_555
C11A N3A 1_555 1_555
H8A C11A 1_555 1_555
N5A C4A 1_555 1_555
O1A Cd1 1_555 1_555
H9A O1A 1_555 1_555
H10A O1A 1_555 1_555
H11A C3A 1_555 1_555
Cd1B N3 1_555 1_555
Cd1B_2 N3A 1_555 1_555
N3B Cd1 1_555 1_555
N3C Cd1 1_555 1_555
N2 C3 1_555 1_555
C8 N5 1_555 1_555
C10 N4 1_555 1_555
N4 C11 1_555 1_555
N2A C3A 1_555 1_555
C8A N5A 1_555 1_555
C10A N4A 1_555 1_555
N4A C11A 1_555 1_555

#END
