
#######################################################################
#
#                 Cambridge Crystallographic Data Centre
#                                CCDC 
#
#######################################################################
#
# If this CIF has been generated from an entry in the Cambridge 
# Structural Database, then it will include bibliographic, chemical, 
# crystal, experimental, refinement or atomic coordinate data resulting 
# from the CCDC's data processing and validation procedures.
#
#######################################################################

data_OHIXOU
_symmetry_cell_setting           monoclinic
_symmetry_space_group_name_H-M   'P 21/c'
_symmetry_Int_Tables_number      14
_space_group_name_Hall           '-P 2ybc'
loop_
_symmetry_equiv_pos_site_id
_symmetry_equiv_pos_as_xyz
1 x,y,z
2 -x,1/2+y,1/2-z
3 -x,-y,-z
4 x,1/2-y,1/2+z
_cell_length_a                   8.607(2)
_cell_length_b                   16.275(4)
_cell_length_c                   9.231(2)
_cell_angle_alpha                90
_cell_angle_beta                 92.960(4)
_cell_angle_gamma                90
_cell_volume                     1291.34
loop_
_atom_site_label
_atom_site_type_symbol
_atom_site_fract_x
_atom_site_fract_y
_atom_site_fract_z
C1 C 0.3289(5) 0.7109(2) -0.0675(4)
C2 C 0.4288(5) 0.6852(2) -0.1720(4)
H1 H 0.4826 0.7227 -0.2266
C3 C 0.4446(5) 0.6011(3) -0.1913(4)
H2 H 0.5121 0.5812 -0.2586
C4 C 0.3602(5) 0.5467(3) -0.1108(4)
H3 H 0.3672 0.4902 -0.1241
C5 C 0.2647(5) 0.5805(2) -0.0093(4)
C6 C 0.1747(5) 0.8300(2) 0.0101(4)
H4 H 0.0903 0.7999 0.0401
C7 C 0.4036(5) 0.8600(2) -0.0760(4)
H5 H 0.5010 0.8560 -0.1146
C8 C 0.3278(5) 0.9297(2) -0.0396(4)
H6 H 0.3664 0.9827 -0.0489
C9 C 0.1004(5) 0.5559(2) 0.1988(4)
H7 H 0.0882 0.6109 0.2230
C10 C 0.0883(5) 0.4239(3) 0.1989(4)
H8 H 0.0651 0.3704 0.2257
C11 C 0.1707(5) 0.4443(3) 0.0827(4)
H9 H 0.2126 0.4085 0.0164
N1 N 0.1839(4) 0.91021(19) 0.0136(4)
N2 N 0.3046(4) 0.7960(2) -0.0432(4)
N3 N 0.0432(4) 0.4940(2) 0.2728(4)
N4 N 0.1793(4) 0.5295(2) 0.0831(4)
N5 N 0.2482(4) 0.6609(2) 0.0131(4)
O1 O 0.1698(3) 1.09414(17) 0.0420(3)
H10 H 0.1761 1.1044 0.1290
Zn1 Zn 0.0000 1.0000 0.0000
H11 H 0.188(7) 1.137(2) -0.001(4)
C1B C -0.3289(5) 1.2891(2) 0.0675(4)
C2B C -0.4288(5) 1.3148(2) 0.1720(4)
H1B H -0.4826 1.2773 0.2266
C3B C -0.4446(5) 1.3989(3) 0.1913(4)
H2B H -0.5121 1.4188 0.2586
C4B C -0.3602(5) 1.4533(3) 0.1108(4)
H3B H -0.3672 1.5098 0.1241
C5B C -0.2647(5) 1.4195(2) 0.0093(4)
C6B C -0.1747(5) 1.1700(2) -0.0101(4)
H4B H -0.0903 1.2001 -0.0401
C7B C -0.4036(5) 1.1400(2) 0.0760(4)
H5B H -0.5010 1.1440 0.1146
C8B C -0.3278(5) 1.0703(2) 0.0396(4)
H6B H -0.3664 1.0173 0.0489
C9B C -0.1004(5) 1.4441(2) -0.1988(4)
H7B H -0.0882 1.3891 -0.2230
C10B C -0.0883(5) 1.5761(3) -0.1989(4)
H8B H -0.0651 1.6296 -0.2257
C11B C -0.1707(5) 1.5557(3) -0.0827(4)
H9B H -0.2126 1.5915 -0.0164
N1B N -0.1839(4) 1.08979(19) -0.0136(4)
N2B N -0.3046(4) 1.2040(2) 0.0432(4)
N3B N -0.0432(4) 1.5060(2) -0.2728(4)
N4B N -0.1793(4) 1.4705(2) -0.0831(4)
N5B N -0.2482(4) 1.3391(2) -0.0131(4)
O1B O -0.1698(3) 0.90586(17) -0.0420(3)
H10B H -0.1761 0.8956 -0.1290
H11B H -0.188(7) 0.863(2) 0.001(4)
N3A N -0.0432(4) 0.9940(2) 0.2272(4)
N3C N 0.0432(4) 1.0060(2) -0.2272(4)
Zn1A Zn 0.0000 0.5000 0.5000
Zn1A_2 Zn 0.0000 1.5000 -0.5000
N6 N 0.7708(4) 0.7217(2) 0.1612(4)
O2 O 0.6992(4) 0.65797(17) 0.2026(3)
O3 O 0.6961(4) 0.7753(2) 0.0901(4)
O4 O 0.9111(4) 0.7299(2) 0.1930(4)
loop_
_geom_bond_atom_site_label_1
_geom_bond_atom_site_label_2
_geom_bond_site_symmetry_1
_geom_bond_site_symmetry_2
C1 C2 1_555 1_555
C2 H1 1_555 1_555
C3 C2 1_555 1_555
H2 C3 1_555 1_555
C4 C3 1_555 1_555
H3 C4 1_555 1_555
C5 C4 1_555 1_555
C6 H4 1_555 1_555
C7 H5 1_555 1_555
C8 C7 1_555 1_555
H6 C8 1_555 1_555
C9 H7 1_555 1_555
C10 H8 1_555 1_555
C11 C10 1_555 1_555
H9 C11 1_555 1_555
N1 C6 1_555 1_555
N2 C1 1_555 1_555
N3 C9 1_555 1_555
N4 C5 1_555 1_555
N5 C1 1_555 1_555
O1 H10 1_555 1_555
Zn1 N1 1_555 1_555
H11 O1 1_555 1_555
N6 O2 1_555 1_555
O3 N6 1_555 1_555
O4 N6 1_555 1_555
C1B C2B 1_555 1_555
C2B H1B 1_555 1_555
C3B C2B 1_555 1_555
H2B C3B 1_555 1_555
C4B C3B 1_555 1_555
H3B C4B 1_555 1_555
C5B C4B 1_555 1_555
C6B H4B 1_555 1_555
C7B H5B 1_555 1_555
C8B C7B 1_555 1_555
H6B C8B 1_555 1_555
C9B H7B 1_555 1_555
C10B H8B 1_555 1_555
C11B C10B 1_555 1_555
H9B C11B 1_555 1_555
N1B Zn1 1_555 1_555
N2B C1B 1_555 1_555
N3B C9B 1_555 1_555
N4B C5B 1_555 1_555
N5B C1B 1_555 1_555
O1B Zn1 1_555 1_555
H10B O1B 1_555 1_555
H11B O1B 1_555 1_555
N3A Zn1 1_555 1_555
N3C Zn1 1_555 1_555
Zn1A N3 1_555 1_555
Zn1A_2 N3B 1_555 1_555
C5 N5 1_555 1_555
C6 N2 1_555 1_555
C7 N2 1_555 1_555
C8 N1 1_555 1_555
C9 N4 1_555 1_555
C10 N3 1_555 1_555
C11 N4 1_555 1_555
O1 Zn1 1_555 1_555
C5B N5B 1_555 1_555
C6B N1B 1_555 1_555
C6B N2B 1_555 1_555
C7B N2B 1_555 1_555
C8B N1B 1_555 1_555
C9B N4B 1_555 1_555
C10B N3B 1_555 1_555
C11B N4B 1_555 1_555

#END
