
#######################################################################
#
#                 Cambridge Crystallographic Data Centre
#                                CCDC 
#
#######################################################################
#
# If this CIF has been generated from an entry in the Cambridge 
# Structural Database, then it will include bibliographic, chemical, 
# crystal, experimental, refinement or atomic coordinate data resulting 
# from the CCDC's data processing and validation procedures.
#
#######################################################################

data_OHIYIP
_symmetry_cell_setting           triclinic
_symmetry_space_group_name_H-M   'P -1'
_symmetry_Int_Tables_number      2
_space_group_name_Hall           '-P 1'
loop_
_symmetry_equiv_pos_site_id
_symmetry_equiv_pos_as_xyz
1 x,y,z
2 -x,-y,-z
_cell_length_a                   11.3785(5)
_cell_length_b                   11.7799(6)
_cell_length_c                   13.7768(7)
_cell_angle_alpha                71.415(5)
_cell_angle_beta                 66.956(5)
_cell_angle_gamma                78.817(4)
_cell_volume                     1605.57
loop_
_atom_site_label
_atom_site_type_symbol
_atom_site_fract_x
_atom_site_fract_y
_atom_site_fract_z
Zn1 Zn 1.12429(8) 0.49918(7) 0.40593(7)
O1 O 1.1684(5) 0.3383(5) 0.5041(4)
O2 O 0.8154(5) 0.4201(5) 0.5137(4)
O3 O 1.0043(5) 0.4165(5) 0.3760(4)
O4 O 0.9772(5) 0.3403(5) 0.6376(4)
N1 N 1.2678(6) 0.5108(5) 0.2580(5)
N2 N 0.7053(6) 0.2975(5) 0.4442(5)
N3 N 1.0237(6) 0.1218(6) 0.7607(5)
N4 N 0.8519(7) 0.0348(6) 0.8756(6)
N5 N 0.5532(6) 0.1988(6) 0.5775(5)
C1 C 0.9344(7) 0.0572(7) 0.7718(6)
H1 H 0.9293(7) 0.0307(7) 0.7153(6)
C2 C 0.6798(7) 0.1979(7) 0.5263(6)
H2 H 0.7412(7) 0.1367(7) 0.5451(6)
C3 C 0.5951(8) 0.3654(8) 0.4436(7)
H3 H 0.5870(8) 0.4419(8) 0.3948(7)
C4 C 0.8355(7) 0.3298(7) 0.3753(7)
H4 H 0.8879(19) 0.2521(15) 0.377(5)
H5 H 0.826(4) 0.391(4) 0.310(3)
C5 C 1.4509(7) 0.5042(6) 0.0537(6)
C6 C 0.8887(7) 0.3958(6) 0.4269(6)
C7 C 1.1241(8) 0.1700(7) 0.6564(6)
H6 H 1.203(3) 0.172(4) 0.669(3)
H7 H 1.148(6) 0.1141(10) 0.6099(7)
C8 C 0.7134(10) -0.1714(9) 0.7198(8)
H8 H 0.7479(10) -0.2399(9) 0.6924(8)
C9 C 0.6999(9) -0.0543(8) 0.8393(8)
C10 C 1.3853(9) 0.4597(9) 0.2473(8)
H9 H 1.4062(9) 0.4265(9) 0.3116(8)
C11 C 0.5928(9) -0.1094(8) 0.5909(8)
H10 H 0.639(6) -0.183(4) 0.572(5)
H11 H 0.5004(15) -0.117(7) 0.618(2)
H12 H 0.615(7) -0.041(3) 0.526(2)
C12 C 0.4977(9) 0.3029(8) 0.5263(7)
H13 H 0.4087(9) 0.3267(8) 0.5450(7)
C13 C 0.5770(8) 0.0131(8) 0.7181(7)
C14 C 0.4851(9) 0.1020(8) 0.6741(7)
H14 H 0.430(5) 0.141(2) 0.7324(7)
H15 H 0.442(6) 0.0584(17) 0.648(4)
C15 C 1.0002(9) 0.1450(8) 0.8571(8)
H16 H 1.0484(9) 0.1915(8) 0.8709(8)
C16 C 0.7407(10) -0.0380(9) 0.9264(9)
H17 H 0.757(6) -0.116(2) 0.976(5)
H18 H 0.6688(12) -0.004(6) 0.981(4)
C17 C 1.0849(7) 0.2949(6) 0.5946(6)
C18 C 0.6168(9) 0.0322(8) 0.7962(7)
C19 C 0.7507(9) -0.1577(8) 0.8002(8)
C20 C 0.6280(9) -0.0895(8) 0.6777(7)
C21 C 0.5745(10) 0.1492(9) 0.8302(9)
H19 H 0.495(4) 0.139(3) 0.894(4)
H20 H 0.642(4) 0.169(4) 0.848(7)
H21 H 0.560(8) 0.2139(19) 0.770(3)
C22 C 0.8414(11) -0.2536(10) 0.8422(9)
H22 H 0.867(7) -0.315(4) 0.802(5)
H23 H 0.918(4) -0.2173(17) 0.831(7)
H24 H 0.799(3) -0.291(5) 0.9204(19)
C23 C 1.4765(10) 0.4522(9) 0.1509(8)
H25 H 1.5580(10) 0.4119(9) 0.1487(8)
C24 C 0.8934(9) 0.0884(8) 0.9306(8)
H26 H 0.8548(9) 0.0865(8) 1.0059(8)
C25 C 1.3259(12) 0.5497(11) 0.0675(11)
H27 H 1.2986(12) 0.5763(11) 0.0064(11)
C26 C 1.2423(13) 0.5567(11) 0.1673(10)
H28 H 1.1602(13) 0.5972(11) 0.1723(10)
N1A N 1.7322(6) 0.4892(5) -0.2580(5)
C5A C 1.5491(7) 0.4958(6) -0.0537(6)
C10A C 1.6147(9) 0.5403(9) -0.2473(8)
H9A H 1.5938(9) 0.5735(9) -0.3116(8)
C23A C 1.5235(10) 0.5478(9) -0.1509(8)
H25A H 1.4420(10) 0.5881(9) -0.1487(8)
C25A C 1.6741(12) 0.4503(11) -0.0675(11)
H27A H 1.7014(12) 0.4237(11) -0.0064(11)
C26A C 1.7577(13) 0.4433(11) -0.1673(10)
H28A H 1.8398(13) 0.4028(11) -0.1723(10)
Zn1A Zn 0.87571(8) 0.50082(7) 0.59407(7)
O1A O 0.8316(5) 0.6617(5) 0.4959(4)
O2A O 1.1846(5) 0.5799(5) 0.4863(4)
O3A O 0.9957(5) 0.5835(5) 0.6240(4)
O4A O 1.0228(5) 0.6597(5) 0.3624(4)
N2A N 1.2947(6) 0.7025(5) 0.5558(5)
N3A N 0.9763(6) 0.8782(6) 0.2393(5)
N4A N 1.1481(7) 0.9652(6) 0.1244(6)
N5A N 1.4468(6) 0.8012(6) 0.4225(5)
C1A C 1.0656(7) 0.9428(7) 0.2282(6)
H1A H 1.0707(7) 0.9693(7) 0.2847(6)
C2A C 1.3202(7) 0.8021(7) 0.4737(6)
H2A H 1.2588(7) 0.8633(7) 0.4549(6)
C3A C 1.4049(8) 0.6346(8) 0.5564(7)
H3A H 1.4130(8) 0.5581(8) 0.6052(7)
C4A C 1.1645(7) 0.6702(7) 0.6247(7)
H4A H 1.1121(19) 0.7479(15) 0.623(5)
H5A H 1.174(4) 0.609(4) 0.690(3)
C6A C 1.1113(7) 0.6042(6) 0.5731(6)
C7A C 0.8759(8) 0.8300(7) 0.3436(6)
H6A H 0.797(3) 0.828(4) 0.331(3)
H7A H 0.852(6) 0.8859(10) 0.3901(7)
C8A C 1.2866(10) 1.1714(9) 0.2802(8)
H8A H 1.2521(10) 1.2399(9) 0.3076(8)
C9A C 1.3001(9) 1.0543(8) 0.1607(8)
C11A C 1.4072(9) 1.1094(8) 0.4091(8)
H10A H 1.361(6) 1.183(4) 0.428(5)
H11A H 1.4996(15) 1.117(7) 0.382(2)
H12A H 1.385(7) 1.041(3) 0.474(2)
C12A C 1.5023(9) 0.6971(8) 0.4737(7)
H13A H 1.5913(9) 0.6733(8) 0.4550(7)
C13A C 1.4230(8) 0.9869(8) 0.2819(7)
C14A C 1.5149(9) 0.8980(8) 0.3259(7)
H14A H 1.570(5) 0.859(2) 0.2676(7)
H15A H 1.558(6) 0.9416(17) 0.352(4)
C15A C 0.9998(9) 0.8550(8) 0.1429(8)
H16A H 0.9516(9) 0.8085(8) 0.1291(8)
C16A C 1.2593(10) 1.0380(9) 0.0736(9)
H17A H 1.243(6) 1.116(2) 0.024(5)
H18A H 1.3312(12) 1.004(6) 0.019(4)
C17A C 0.9151(7) 0.7051(6) 0.4054(6)
C18A C 1.3832(9) 0.9678(8) 0.2038(7)
C19A C 1.2493(9) 1.1577(8) 0.1998(8)
C20A C 1.3720(9) 1.0895(8) 0.3223(7)
C21A C 1.4255(10) 0.8508(9) 0.1698(9)
H19A H 1.505(4) 0.861(3) 0.106(4)
H20A H 1.358(4) 0.831(4) 0.152(7)
H21A H 1.440(8) 0.7861(19) 0.230(3)
C22A C 1.1586(11) 1.2536(10) 0.1578(9)
H22A H 1.133(7) 1.315(4) 0.198(5)
H23A H 1.082(4) 1.2173(17) 0.169(7)
H24A H 1.201(3) 1.291(5) 0.0796(19)
C24A C 1.1066(9) 0.9116(8) 0.0694(8)
H26A H 1.1452(9) 0.9135(8) -0.0059(8)
Zn1A_2 Zn 1.87571(8) 0.50082(7) -0.40593(7)
N1A_2 N 0.7322(6) 0.4892(5) 0.7420(5)
Cl1 Cl 1.2334(2) 0.8320(2) 0.79660(19)
O5 O 1.2409(9) 0.8994(8) 0.6893(8)
O6 O 1.1015(7) 0.8325(7) 0.8715(6)
O7 O 1.2801(9) 0.7101(9) 0.7965(8)
O8 O 1.3062(11) 0.8772(10) 0.8357(9)
Cl2 Cl 1.2540(3) 0.3594(3) 0.8076(3)
O9 O 1.2508(11) 0.2402(9) 0.8603(9)
O10 O 1.2162(14) 0.3825(12) 0.7147(12)
O11 O 1.3877(19) 0.3827(17) 0.7557(16)
O12 O 1.256(4) 0.434(3) 0.873(3)
Cl3 Cl 1.000000 0.000000 0.500000
O13 O 0.9467(14) 0.0968(13) 0.5414(12)
O14 O 0.9293(17) 0.0442(16) 0.4276(15)
O13A O 1.0533(14) -0.0968(13) 0.4586(12)
O14A O 1.0707(17) -0.0442(16) 0.5724(15)
loop_
_geom_bond_atom_site_label_1
_geom_bond_atom_site_label_2
_geom_bond_site_symmetry_1
_geom_bond_site_symmetry_2
Zn1 O1 1_555 1_555
O1 C17 1_555 1_555
O2 C6 1_555 1_555
O3 Zn1 1_555 1_555
O4 C17 1_555 1_555
N1 Zn1 1_555 1_555
N2 C2 1_555 1_555
N3 C1 1_555 1_555
N4 C1 1_555 1_555
N5 C2 1_555 1_555
C1 H1 1_555 1_555
C2 H2 1_555 1_555
C3 N2 1_555 1_555
H3 C3 1_555 1_555
C4 N2 1_555 1_555
H4 C4 1_555 1_555
H5 C4 1_555 1_555
C5 C23 1_555 1_555
C6 O3 1_555 1_555
C7 N3 1_555 1_555
H6 C7 1_555 1_555
H7 C7 1_555 1_555
C8 H8 1_555 1_555
C9 C16 1_555 1_555
C10 N1 1_555 1_555
H9 C10 1_555 1_555
C11 H10 1_555 1_555
H11 C11 1_555 1_555
H12 C11 1_555 1_555
C12 N5 1_555 1_555
H13 C12 1_555 1_555
C13 C14 1_555 1_555
C14 N5 1_555 1_555
H14 C14 1_555 1_555
H15 C14 1_555 1_555
C15 N3 1_555 1_555
H16 C15 1_555 1_555
C16 N4 1_555 1_555
H17 C16 1_555 1_555
H18 C16 1_555 1_555
C17 C7 1_555 1_555
C18 C9 1_555 1_555
C19 C8 1_555 1_555
C20 C8 1_555 1_555
C21 C18 1_555 1_555
H19 C21 1_555 1_555
H20 C21 1_555 1_555
H21 C21 1_555 1_555
C22 C19 1_555 1_555
H22 C22 1_555 1_555
H23 C22 1_555 1_555
H24 C22 1_555 1_555
C23 C10 1_555 1_555
H25 C23 1_555 1_555
C24 N4 1_555 1_555
H26 C24 1_555 1_555
C25 C5 1_555 1_555
H27 C25 1_555 1_555
C26 N1 1_555 1_555
H28 C26 1_555 1_555
Cl1 O5 1_555 1_555
O6 Cl1 1_555 1_555
O7 Cl1 1_555 1_555
O8 Cl1 1_555 1_555
Cl2 O9 1_555 1_555
O10 Cl2 1_555 1_555
O11 Cl2 1_555 1_555
O12 Cl2 1_555 1_555
Cl3 O13 1_555 1_555
O14 Cl3 1_555 1_555
N1A C10A 1_555 1_555
C5A C5 1_555 1_555
C10A H9A 1_555 1_555
C23A C5A 1_555 1_555
H25A C23A 1_555 1_555
C25A C5A 1_555 1_555
H27A C25A 1_555 1_555
C26A N1A 1_555 1_555
H28A C26A 1_555 1_555
Zn1A O2 1_555 1_555
O1A Zn1A 1_555 1_555
O2A Zn1 1_555 1_555
O3A Zn1A 1_555 1_555
O4A Zn1 1_555 1_555
N2A C2A 1_555 1_555
N3A C1A 1_555 1_555
N4A C1A 1_555 1_555
N5A C2A 1_555 1_555
C1A H1A 1_555 1_555
C2A H2A 1_555 1_555
C3A N2A 1_555 1_555
H3A C3A 1_555 1_555
C4A N2A 1_555 1_555
H4A C4A 1_555 1_555
H5A C4A 1_555 1_555
C6A O2A 1_555 1_555
C7A N3A 1_555 1_555
H6A C7A 1_555 1_555
H7A C7A 1_555 1_555
C8A H8A 1_555 1_555
C9A C16A 1_555 1_555
C11A H10A 1_555 1_555
H11A C11A 1_555 1_555
H12A C11A 1_555 1_555
C12A N5A 1_555 1_555
H13A C12A 1_555 1_555
C13A C14A 1_555 1_555
C14A N5A 1_555 1_555
H14A C14A 1_555 1_555
H15A C14A 1_555 1_555
C15A N3A 1_555 1_555
H16A C15A 1_555 1_555
C16A N4A 1_555 1_555
H17A C16A 1_555 1_555
H18A C16A 1_555 1_555
C17A O1A 1_555 1_555
C18A C9A 1_555 1_555
C19A C8A 1_555 1_555
C20A C8A 1_555 1_555
C21A C18A 1_555 1_555
H19A C21A 1_555 1_555
H20A C21A 1_555 1_555
H21A C21A 1_555 1_555
C22A C19A 1_555 1_555
H22A C22A 1_555 1_555
H23A C22A 1_555 1_555
H24A C22A 1_555 1_555
C24A N4A 1_555 1_555
H26A C24A 1_555 1_555
Zn1A_2 N1A 1_555 1_555
N1A_2 Zn1A 1_555 1_555
O13A Cl3 1_555 1_555
O14A Cl3 1_555 1_555
O4 Zn1A 1_555 1_555
C3 C12 1_555 1_555
C4 C6 1_555 1_555
C9 C19 1_555 1_555
C11 C20 1_555 1_555
C13 C18 1_555 1_555
C13 C20 1_555 1_555
C15 C24 1_555 1_555
C25 C26 1_555 1_555
C10A C23A 1_555 1_555
C25A C26A 1_555 1_555
O3A C6A 1_555 1_555
O4A C17A 1_555 1_555
C3A C12A 1_555 1_555
C4A C6A 1_555 1_555
C7A C17A 1_555 1_555
C9A C19A 1_555 1_555
C11A C20A 1_555 1_555
C13A C18A 1_555 1_555
C13A C20A 1_555 1_555
C15A C24A 1_555 1_555

#END
