
#######################################################################
#
#                 Cambridge Crystallographic Data Centre
#                                CCDC 
#
#######################################################################
#
# If this CIF has been generated from an entry in the Cambridge 
# Structural Database, then it will include bibliographic, chemical, 
# crystal, experimental, refinement or atomic coordinate data resulting 
# from the CCDC's data processing and validation procedures.
#
#######################################################################

data_OHIZIO01
_symmetry_cell_setting           monoclinic
_symmetry_space_group_name_H-M   'P 21/c'
_symmetry_Int_Tables_number      14
_space_group_name_Hall           '-P 2ybc'
loop_
_symmetry_equiv_pos_site_id
_symmetry_equiv_pos_as_xyz
1 x,y,z
2 x,1/2-y,1/2+z
3 -x,-y,-z
4 -x,1/2+y,1/2-z
_cell_length_a                   10.293(1)
_cell_length_b                   5.321(1)
_cell_length_c                   12.439(2)
_cell_angle_alpha                90
_cell_angle_beta                 107.48(1)
_cell_angle_gamma                90
_cell_volume                     649.812
loop_
_atom_site_label
_atom_site_type_symbol
_atom_site_fract_x
_atom_site_fract_y
_atom_site_fract_z
Mn1 Mn 0.23511(3) 0.20042(6) 0.76795(3)
N1 N 0.1003(2) 0.0712(4) 0.5967(1)
C1 C -0.0230(2) 0.1776(4) 0.5676(2)
C2 C 0.1233(2) -0.1063(4) 0.5294(2)
C3 C -0.0471(2) 0.3735(4) 0.6476(2)
O1 O 0.0514(1) 0.4283(3) 0.7306(1)
O2 O -0.1658(2) 0.4631(3) 0.6231(1)
N2 N 0.3912(2) 0.3807(3) 0.9238(2)
C4 C 0.4436(2) 0.5925(4) 0.8964(2)
C5 C 0.4468(2) 0.2883(4) 1.0274(2)
C6 C 0.3760(2) 0.6904(4) 0.7781(2)
O3 O 0.3155(2) 0.5294(3) 0.7074(1)
O4 O 0.3848(2) 0.9208(3) 0.7617(1)
H1 H 0.209(3) -0.179(4) 0.548(2)
H2 H 0.410(2) 0.140(4) 1.047(2)
C2B C -0.1233(2) 0.1063(4) 0.4706(2)
N1B N -0.1003(2) -0.0712(4) 0.4033(1)
C1B C 0.0230(2) -0.1776(4) 0.4324(2)
C3B C 0.0471(2) -0.3735(4) 0.3524(2)
O1B O -0.0514(1) -0.4283(3) 0.2694(1)
O2B O 0.1658(2) -0.4631(3) 0.3769(1)
H1B H -0.209(3) 0.179(4) 0.452(2)
C5B C 0.5532(2) 0.7117(4) 0.9726(2)
N2B N 0.6088(2) 0.6193(3) 1.0762(2)
C4B C 0.5564(2) 0.4075(4) 1.1036(2)
C6B C 0.6240(2) 0.3096(4) 1.2219(2)
O3B O 0.6845(2) 0.4706(3) 1.2926(1)
O4B O 0.6152(2) 0.0792(3) 1.2383(1)
H2B H 0.590(2) 0.860(4) 0.953(2)
Mn1B Mn -0.23511(3) -0.20042(6) 0.23205(3)
O2C O 0.1658(2) -0.0369(3) 0.8769(1)
O4_2 O 0.3848(2) -0.0792(3) 0.7617(1)
Mn1C Mn -0.23511(3) 0.70042(6) 0.73205(3)
Mn1_2 Mn 0.23511(3) 1.20042(6) 0.76795(3)
Mn1A Mn 0.23511(3) -0.70042(6) 0.26795(3)
Mn1B_2 Mn 0.76489(3) 0.79958(6) 1.23205(3)
Mn1B_3 Mn 0.76489(3) -0.20042(6) 1.23205(3)
O2A O -0.1658(2) 0.0369(3) 0.1231(1)
N2B_2 N -0.3912(2) -0.3807(3) 0.0762(2)
O3B_2 O -0.3155(2) -0.5294(3) 0.2926(1)
O4B_2 O -0.3848(2) 0.0792(3) 0.2383(1)
loop_
_geom_bond_atom_site_label_1
_geom_bond_atom_site_label_2
_geom_bond_site_symmetry_1
_geom_bond_site_symmetry_2
Mn1 N1 1_555 1_555
N1 C1 1_555 1_555
C1 C3 1_555 1_555
C2 N1 1_555 1_555
C3 O1 1_555 1_555
O1 Mn1 1_555 1_555
O2 C3 1_555 1_555
N2 Mn1 1_555 1_555
C4 N2 1_555 1_555
C5 N2 1_555 1_555
C6 C4 1_555 1_555
O3 Mn1 1_555 1_555
O4 C6 1_555 1_555
H1 C2 1_555 1_555
H2 C5 1_555 1_555
C2B C1 1_555 1_555
N1B C2B 1_555 1_555
C1B C2 1_555 1_555
C3B C1B 1_555 1_555
O1B C3B 1_555 1_555
O2B C3B 1_555 1_555
H1B C2B 1_555 1_555
C5B C4 1_555 1_555
N2B C5B 1_555 1_555
C4B C5 1_555 1_555
C6B C4B 1_555 1_555
O3B C6B 1_555 1_555
O4B C6B 1_555 1_555
H2B C5B 1_555 1_555
Mn1B N1B 1_555 1_555
O2C Mn1 1_555 1_555
O4_2 Mn1 1_555 1_555
Mn1C O2 1_555 1_555
Mn1_2 O4 1_555 1_555
Mn1A O2B 1_555 1_555
Mn1B_2 N2B 1_555 1_555
Mn1B_3 O4B 1_555 1_555
O2A Mn1B 1_555 1_555
N2B_2 Mn1B 1_555 1_555
O3B_2 Mn1B 1_555 1_555
O4B_2 Mn1B 1_555 1_555
C6 O3 1_555 1_555
N1B C1B 1_555 1_555
O1B Mn1B 1_555 1_555
N2B C4B 1_555 1_555
O3B Mn1B_2 1_555 1_555

#END
