
#######################################################################
#
#                 Cambridge Crystallographic Data Centre
#                                CCDC 
#
#######################################################################
#
# If this CIF has been generated from an entry in the Cambridge 
# Structural Database, then it will include bibliographic, chemical, 
# crystal, experimental, refinement or atomic coordinate data resulting 
# from the CCDC's data processing and validation procedures.
#
#######################################################################

data_OHIZIO
_symmetry_cell_setting           monoclinic
_symmetry_space_group_name_H-M   'P 21/c'
_symmetry_Int_Tables_number      14
_space_group_name_Hall           '-P 2ybc'
loop_
_symmetry_equiv_pos_site_id
_symmetry_equiv_pos_as_xyz
1 x,y,z
2 x,1/2-y,1/2+z
3 -x,-y,-z
4 -x,1/2+y,1/2-z
_cell_length_a                   10.243(2)
_cell_length_b                   5.340(1)
_cell_length_c                   12.430(1)
_cell_angle_alpha                90
_cell_angle_beta                 107.380(7)
_cell_angle_gamma                90
_cell_volume                     648.851
loop_
_atom_site_label
_atom_site_type_symbol
_atom_site_fract_x
_atom_site_fract_y
_atom_site_fract_z
Mn1 Mn 0.76394(4) 0.20094(7) 0.23248(3)
O1 O 0.61378(18) -0.0781(3) 0.23889(14)
O2 O 0.68490(17) -0.4695(3) 0.29319(14)
O3 O 0.83389(18) -0.0382(3) 0.12393(14)
O4 O 1.05188(18) -0.0707(3) 0.23143(14)
N1 N 0.6093(2) -0.6195(4) 0.07659(17)
N2 N 1.1007(2) -0.4278(4) 0.09680(16)
C1 C 0.6238(2) -0.3091(5) 0.2223(2)
C2 C 0.5563(2) -0.4066(5) 0.1040(2)
C3 C 0.4467(2) -0.2872(5) 0.02726(19)
H1 H 0.4118 -0.1405 0.0482
C4 C 0.9525(3) -0.1271(5) 0.1481(2)
C5 C 0.9775(2) -0.3214(5) 0.06779(19)
C6 C 0.8756(2) -0.3937(5) -0.02882(19)
H2 H 0.7901 -0.3176 -0.0466
C3B C 0.5533(2) -0.7128(5) -0.02726(19)
C2B C 0.4437(2) -0.5934(5) -0.1040(2)
N1B N 0.3907(2) -0.3805(4) -0.07659(17)
C1B C 0.3762(2) -0.6909(5) -0.2223(2)
O1B O 0.38622(18) -0.9219(3) -0.23889(14)
O2B O 0.31510(17) -0.5305(3) -0.29319(14)
H1B H 0.5882 -0.8595 -0.0482
C6B C 1.1244(2) -0.6063(5) 0.02882(19)
C5B C 1.0225(2) -0.6786(5) -0.06779(19)
N2B N 0.8993(2) -0.5722(4) -0.09680(16)
C4B C 1.0475(3) -0.8729(5) -0.1481(2)
O3B O 1.16611(18) -0.9618(3) -0.12393(14)
O4B O 0.94812(18) -0.9293(3) -0.23143(14)
H2B H 1.2099 -0.6824 0.0466
Mn1B Mn 0.23606(4) -1.20094(7) -0.23248(3)
O2_2 O 0.68490(17) 0.5305(3) 0.29319(14)
O4C O 0.94812(18) 0.4293(3) 0.26857(14)
N1_2 N 0.6093(2) 0.3805(4) 0.07659(17)
N2C N 0.8993(2) 0.0722(4) 0.40320(16)
Mn1_2 Mn 0.76394(4) -0.79906(7) 0.23248(3)
Mn1C Mn 1.23606(4) -0.29906(7) 0.26752(3)
Mn1B_2 Mn 0.23606(4) -0.20094(7) -0.23248(3)
Mn1A Mn 0.76394(4) -0.70094(7) -0.26752(3)
Mn1B_3 Mn 1.23606(4) -1.20094(7) -0.23248(3)
O2B_2 O 0.31510(17) -1.5305(3) -0.29319(14)
O3B_2 O 0.16611(18) -0.9618(3) -0.12393(14)
O4A O 0.05188(18) -1.4293(3) -0.26857(14)
N1B_2 N 0.3907(2) -1.3805(4) -0.07659(17)
N2A N 0.1007(2) -1.0722(4) -0.40320(16)
loop_
_geom_bond_atom_site_label_1
_geom_bond_atom_site_label_2
_geom_bond_site_symmetry_1
_geom_bond_site_symmetry_2
Mn1 O1 1_555 1_555
O1 C1 1_555 1_555
O2 C1 1_555 1_555
O3 Mn1 1_555 1_555
O4 C4 1_555 1_555
N1 C2 1_555 1_555
N2 C5 1_555 1_555
C1 C2 1_555 1_555
C2 C3 1_555 1_555
C3 H1 1_555 1_555
C4 O3 1_555 1_555
C5 C4 1_555 1_555
C6 C5 1_555 1_555
H2 C6 1_555 1_555
C3B N1 1_555 1_555
C2B C3B 1_555 1_555
N1B C3 1_555 1_555
C1B C2B 1_555 1_555
O1B C1B 1_555 1_555
O2B C1B 1_555 1_555
H1B C3B 1_555 1_555
C6B N2 1_555 1_555
C5B C6B 1_555 1_555
N2B C6 1_555 1_555
C4B C5B 1_555 1_555
O3B C4B 1_555 1_555
O4B C4B 1_555 1_555
H2B C6B 1_555 1_555
Mn1B O1B 1_555 1_555
O2_2 Mn1 1_555 1_555
O4C Mn1 1_555 1_555
N1_2 Mn1 1_555 1_555
N2C Mn1 1_555 1_555
Mn1_2 O2 1_555 1_555
Mn1C O4 1_555 1_555
Mn1B_2 N1B 1_555 1_555
Mn1A N2B 1_555 1_555
Mn1B_3 O3B 1_555 1_555
O2B_2 Mn1B 1_555 1_555
O3B_2 Mn1B 1_555 1_555
O4A Mn1B 1_555 1_555
N1B_2 Mn1B 1_555 1_555
N2A Mn1B 1_555 1_555
N1 Mn1_2 1_555 1_555
N2 Mn1C 1_555 1_555
C2B N1B 1_555 1_555
O2B Mn1B_2 1_555 1_555
C5B N2B 1_555 1_555
O4B Mn1A 1_555 1_555

#END
