
#######################################################################
#
#                 Cambridge Crystallographic Data Centre
#                                CCDC 
#
#######################################################################
#
# If this CIF has been generated from an entry in the Cambridge 
# Structural Database, then it will include bibliographic, chemical, 
# crystal, experimental, refinement or atomic coordinate data resulting 
# from the CCDC's data processing and validation procedures.
#
#######################################################################

data_OHOCEU
_symmetry_cell_setting           monoclinic
_symmetry_space_group_name_H-M   'P 21/c'
_symmetry_Int_Tables_number      14
_space_group_name_Hall           '-P 2ybc'
loop_
_symmetry_equiv_pos_site_id
_symmetry_equiv_pos_as_xyz
1 x,y,z
2 -x,1/2+y,1/2-z
3 -x,-y,-z
4 x,1/2-y,1/2+z
_cell_length_a                   9.579(10)
_cell_length_b                   20.851(7)
_cell_length_c                   15.565(7)
_cell_angle_alpha                90
_cell_angle_beta                 101.006(4)
_cell_angle_gamma                90
_cell_volume                     3051.64
loop_
_atom_site_label
_atom_site_type_symbol
_atom_site_fract_x
_atom_site_fract_y
_atom_site_fract_z
Zn1 Zn 0.47873(7) 0.73127(3) 0.63174(4)
Cl2 Cl 0.26765(14) 0.77269(6) 0.56404(8)
Cl3 Cl 0.62209(15) 0.81050(7) 0.69585(9)
Cl4 Cl 0.45623(16) 0.66456(7) 0.74208(10)
Cl5 Cl 0.56544(19) 0.67691(9) 0.53044(11)
O7 O 0.3476(6) 0.2207(3) 0.5852(3)
O8 O 0.2429(3) 0.57732(14) 0.54450(18)
O9 O 0.0176(4) 0.50070(18) 0.3623(3)
Nd1 Nd 0.22789(2) 0.012758(12) 0.494611(15)
O1 O 0.0430(3) -0.05442(15) 0.42048(19)
O2 O -0.1794(3) -0.08762(15) 0.39332(18)
O3 O 0.1697(3) -0.05603(14) 0.60803(17)
O4 O -0.0583(3) -0.08102(15) 0.5994(2)
O5 O 0.4495(3) 0.01575(16) 0.59396(18)
O6 O 0.6750(3) -0.00996(14) 0.63764(17)
N1 N -0.0969(6) -0.1892(3) 0.1758(4)
H1 H -0.1601 -0.2129 0.1441
N2 N 0.0644(5) -0.1810(2) 0.8266(3)
H2 H 0.0054 -0.1947 0.8577
N3 N 0.5959(5) -0.0559(3) 0.8794(3)
H3 H 0.6595 -0.0768 0.9150
C1 C -0.1272(6) -0.1574(3) 0.2570(3)
H4 H -0.2144 -0.1623 0.2742
C2 C 0.0342(6) -0.1797(3) 0.1530(3)
H5 H 0.0543 -0.1955 0.1009
C3 C 0.1263(5) -0.1482(2) 0.2069(3)
H6 H 0.2173 -0.1446 0.1946
C4 C 0.1015(5) -0.1202(2) 0.2794(3)
H7 H 0.1749 -0.0983 0.3152
C5 C -0.0267(4) -0.1228(2) 0.3021(3)
C6 C -0.0540(4) -0.0864(2) 0.3784(3)
C7 C 0.0097(6) -0.1461(3) 0.7538(3)
H8 H -0.0868 -0.1382 0.7345
C8 C 0.1944(7) -0.1950(3) 0.8528(4)
H9 H 0.2195 -0.2177 0.9048
C9 C 0.2912(7) -0.1798(3) 0.8124(3)
H10 H 0.3847 -0.1931 0.8311
C10 C 0.2517(5) -0.1424(2) 0.7390(3)
H11 H 0.3198 -0.1294 0.7073
C11 C 0.1145(5) -0.1243(2) 0.7125(3)
C12 C 0.0700(4) -0.0833(2) 0.6312(3)
C13 C 0.6237(5) -0.0430(3) 0.7992(3)
H12 H 0.7084 -0.0565 0.7841
C14 C 0.4843(7) -0.0398(3) 0.9069(4)
H13 H 0.4722 -0.0489 0.9635
C15 C 0.3798(6) -0.0073(3) 0.8462(3)
H14 H 0.2930 0.0033 0.8609
C16 C 0.4069(5) 0.0087(2) 0.7649(3)
H15 H 0.3415 0.0328 0.7262
C17 C 0.5277(4) -0.0107(2) 0.7421(3)
C18 C 0.5562(4) -0.0011(2) 0.6521(3)
O10 O 0.3527(3) 0.11659(16) 0.4785(2)
H16 H 0.3401 0.1415 0.5170
O11 O 0.3403(3) -0.09606(14) 0.48175(19)
H17 H 0.4113 -0.0918 0.4601
Nd1B Nd -0.22789(2) -0.012758(12) 0.505389(15)
Nd1B_2 Nd 0.77211(2) -0.012758(12) 0.505389(15)
O2B O 0.1794(3) 0.08762(15) 0.60668(18)
O4B O 0.0583(3) 0.08102(15) 0.4006(2)
O6B O 0.3250(3) 0.00996(14) 0.36236(17)
Cl1? Cl 0.05036(15) 0.51632(9) 0.49925(11)
loop_
_geom_bond_atom_site_label_1
_geom_bond_atom_site_label_2
_geom_bond_site_symmetry_1
_geom_bond_site_symmetry_2
Nd1 O1 1_555 1_555
Zn1 Cl2 1_555 1_555
Cl3 Zn1 1_555 1_555
Cl4 Zn1 1_555 1_555
Cl5 Zn1 1_555 1_555
O1 C6 1_555 1_555
O2 C6 1_555 1_555
O3 Nd1 1_555 1_555
O4 C12 1_555 1_555
O5 Nd1 1_555 1_555
O6 C18 1_555 1_555
N1 H1 1_555 1_555
N2 H2 1_555 1_555
N3 H3 1_555 1_555
C1 N1 1_555 1_555
H4 C1 1_555 1_555
C2 N1 1_555 1_555
H5 C2 1_555 1_555
C3 C2 1_555 1_555
H6 C3 1_555 1_555
C4 C3 1_555 1_555
H7 C4 1_555 1_555
C5 C1 1_555 1_555
C6 C5 1_555 1_555
C7 N2 1_555 1_555
H8 C7 1_555 1_555
C8 N2 1_555 1_555
H9 C8 1_555 1_555
C9 C8 1_555 1_555
H10 C9 1_555 1_555
C10 C9 1_555 1_555
H11 C10 1_555 1_555
C11 C7 1_555 1_555
C12 O3 1_555 1_555
C13 N3 1_555 1_555
H12 C13 1_555 1_555
C14 N3 1_555 1_555
H13 C14 1_555 1_555
C15 C14 1_555 1_555
H14 C15 1_555 1_555
C16 C15 1_555 1_555
H15 C16 1_555 1_555
C17 C13 1_555 1_555
C18 O5 1_555 1_555
O10 Nd1 1_555 1_555
H16 O10 1_555 1_555
O11 Nd1 1_555 1_555
H17 O11 1_555 1_555
Nd1B O2 1_555 1_555
Nd1B_2 O6 1_555 1_555
O2B Nd1 1_555 1_555
O4B Nd1 1_555 1_555
O6B Nd1 1_555 1_555
O4 Nd1B 1_555 1_555
C4 C5 1_555 1_555
C10 C11 1_555 1_555
C11 C12 1_555 1_555
C16 C17 1_555 1_555
C17 C18 1_555 1_555

#END
