
#######################################################################
#
#                 Cambridge Crystallographic Data Centre
#                                CCDC 
#
#######################################################################
#
# If this CIF has been generated from an entry in the Cambridge 
# Structural Database, then it will include bibliographic, chemical, 
# crystal, experimental, refinement or atomic coordinate data resulting 
# from the CCDC's data processing and validation procedures.
#
#######################################################################

data_OHOFIA
_symmetry_cell_setting           trigonal
_symmetry_space_group_name_H-M   'P 3 2 1'
_symmetry_Int_Tables_number      150
_space_group_name_Hall           'P 3 2"'
loop_
_symmetry_equiv_pos_site_id
_symmetry_equiv_pos_as_xyz
1 x,y,z
2 -y,x-y,z
3 y,x,-z
4 -x+y,-x,z
5 -x,-x+y,-z
6 x-y,-y,-z
_cell_length_a                   19.311(3)
_cell_length_b                   19.311(3)
_cell_length_c                   7.772(2)
_cell_angle_alpha                90
_cell_angle_beta                 90
_cell_angle_gamma                120
_cell_volume                     2510
loop_
_atom_site_label
_atom_site_type_symbol
_atom_site_fract_x
_atom_site_fract_y
_atom_site_fract_z
Co1 Co 0.45427(4) 1.0000 0.5000
S1 S 0.37337(6) 0.94876(7) 0.91368(11)
O1 O 0.3005(2) 0.9427(2) 0.8502(3)
O2 O 0.3616(2) 0.8815(2) 1.0184(3)
O3 O 0.4353(2) 0.9710(2) 0.7824(3)
N1 N 0.3330(2) 0.9086(2) 0.4647(4)
N2 N 0.2827(2) 0.9209(2) 0.3615(4)
H1 H 0.2899(23) 0.9618(25) 0.3270(40)
N3 N 0.1191(2) 0.5845(2) 0.2710(4)
H2 H 0.1147(36) 0.5435(35) 0.1984(61)
N4 N 0.0818(2) 0.5736(2) 0.4275(4)
C1 C 0.2168(3) 0.8520(2) 0.3183(5)
C2 C 0.2218(3) 0.7914(3) 0.4024(4)
C3 C 0.2946(3) 0.8288(2) 0.4905(4)
C4 C 0.3273(3) 0.7878(3) 0.5971(5)
H3 H 0.3781(3) 0.8268(3) 0.6437(5)
H4 H 0.3339(3) 0.7506(3) 0.5271(5)
H5 H 0.2909(3) 0.7597(3) 0.6894(5)
C5 C 0.1556(3) 0.8506(3) 0.1977(5)
H6 H 0.1713(3) 0.9042(3) 0.1636(5)
H7 H 0.1047(3) 0.8271(3) 0.2545(5)
H8 H 0.1517(3) 0.8196(3) 0.0978(5)
C6 C 0.1707(3) 0.6607(3) 0.2402(5)
C7 C 0.1688(2) 0.7041(3) 0.3808(4)
C8 C 0.1123(2) 0.6467(2) 0.4941(4)
C9 C 0.0874(3) 0.6615(3) 0.6664(5)
H9 H 0.0480(3) 0.6116(3) 0.7155(5)
H10 H 0.0652(3) 0.6959(3) 0.6531(5)
H11 H 0.1331(3) 0.6865(3) 0.7409(5)
C10 C 0.2204(3) 0.6880(3) 0.0774(5)
H12 H 0.2071(3) 0.6425(3) 0.0057(5)
H13 H 0.2761(3) 0.7139(3) 0.1067(5)
H14 H 0.2095(3) 0.7248(3) 0.0166(5)
S1E S 0.42461(9) 1.05124(7) 1.08632(11)
O1E O 0.3578(3) 1.0573(2) 1.1498(3)
O2E O 0.4801(3) 1.1185(2) 0.9816(3)
O3E O 0.4643(3) 1.0290(2) 1.2176(3)
N1E N 0.4244(3) 1.0914(2) 0.5353(4)
N2E N 0.3618(3) 1.0791(2) 0.6385(4)
H1E H 0.3281(34) 1.0382(25) 0.6730(40)
N3E N 0.5346(3) 1.4155(2) 0.7290(4)
H2E H 0.5712(50) 1.4565(35) 0.8016(61)
N4E N 0.5082(3) 1.4264(2) 0.5725(4)
C1E C 0.3648(4) 1.1480(2) 0.6817(5)
C2E C 0.4304(4) 1.2086(3) 0.5976(4)
C3E C 0.4658(4) 1.1712(2) 0.5095(4)
C4E C 0.5395(4) 1.2122(3) 0.4029(5)
H3E H 0.5513(4) 1.1732(3) 0.3563(5)
H4E H 0.5833(4) 1.2494(3) 0.4729(5)
H5E H 0.5312(4) 1.2403(3) 0.3106(5)
C5E C 0.3050(4) 1.1494(3) 0.8023(5)
H6E H 0.2671(4) 1.0958(3) 0.8364(5)
H7E H 0.2776(4) 1.1729(3) 0.7455(5)
H8E H 0.3321(4) 1.1804(3) 0.9022(5)
C6E C 0.5100(4) 1.3393(3) 0.7598(5)
C7E C 0.4647(4) 1.2959(3) 0.6192(4)
C8E C 0.4656(3) 1.3533(2) 0.5059(4)
C9E C 0.4259(4) 1.3385(3) 0.3336(5)
H9E H 0.4364(4) 1.3884(3) 0.2845(5)
H10E H 0.3693(4) 1.3041(3) 0.3469(5)
H11E H 0.4466(4) 1.3135(3) 0.2591(5)
C10E C 0.5324(4) 1.3120(3) 0.9226(5)
H12E H 0.5646(4) 1.3575(3) 0.9943(5)
H13E H 0.5622(4) 1.2861(3) 0.8933(5)
H14E H 0.4847(4) 1.2752(3) 0.9834(5)
O3E_2 O 0.4643(3) 1.0290(2) 0.2176(3)
N4B N 0.5736(2) 1.0818(2) 0.5725(4)
N4C N 0.4918(3) 0.9182(2) 0.4275(4)
Co1A Co 0.0000 0.45427(4) 0.5000
Co1_2 Co 0.45427(4) 1.0000 1.5000
Co1C Co 0.54573(4) 1.54573(4) 0.5000
O4 O 0.1139(11) 0.8893(12) 0.6808(17)
H15 H 0.1444(11) 0.9395(12) 0.6628(17)
H16 H 0.0873(11) 0.8659(12) 0.7475(17)
loop_
_geom_bond_atom_site_label_1
_geom_bond_atom_site_label_2
_geom_bond_site_symmetry_1
_geom_bond_site_symmetry_2
Co1 O3 1_555 1_555
S1 O1 1_555 1_555
O2 S1 1_555 1_555
O3 S1 1_555 1_555
N1 Co1 1_555 1_555
N2 N1 1_555 1_555
H1 N2 1_555 1_555
N3 H2 1_555 1_555
N4 N3 1_555 1_555
C1 N2 1_555 1_555
C2 C1 1_555 1_555
C3 N1 1_555 1_555
C4 C3 1_555 1_555
H3 C4 1_555 1_555
H4 C4 1_555 1_555
H5 C4 1_555 1_555
C5 C1 1_555 1_555
H6 C5 1_555 1_555
H7 C5 1_555 1_555
H8 C5 1_555 1_555
C6 N3 1_555 1_555
C7 C2 1_555 1_555
C8 N4 1_555 1_555
C9 C8 1_555 1_555
H9 C9 1_555 1_555
H10 C9 1_555 1_555
H11 C9 1_555 1_555
C10 C6 1_555 1_555
H12 C10 1_555 1_555
H13 C10 1_555 1_555
H14 C10 1_555 1_555
O4 H15 1_555 1_555
H16 O4 1_555 1_555
S1E S1 1_555 1_555
O1E S1E 1_555 1_555
O2E S1E 1_555 1_555
O3E S1E 1_555 1_555
N1E Co1 1_555 1_555
N2E N1E 1_555 1_555
H1E N2E 1_555 1_555
N3E H2E 1_555 1_555
N4E N3E 1_555 1_555
C1E N2E 1_555 1_555
C2E C1E 1_555 1_555
C3E N1E 1_555 1_555
C4E C3E 1_555 1_555
H3E C4E 1_555 1_555
H4E C4E 1_555 1_555
H5E C4E 1_555 1_555
C5E C1E 1_555 1_555
H6E C5E 1_555 1_555
H7E C5E 1_555 1_555
H8E C5E 1_555 1_555
C6E N3E 1_555 1_555
C7E C2E 1_555 1_555
C8E N4E 1_555 1_555
C9E C8E 1_555 1_555
H9E C9E 1_555 1_555
H10E C9E 1_555 1_555
H11E C9E 1_555 1_555
C10E C6E 1_555 1_555
H12E C10E 1_555 1_555
H13E C10E 1_555 1_555
H14E C10E 1_555 1_555
O3E_2 Co1 1_555 1_555
N4B Co1 1_555 1_555
N4C Co1 1_555 1_555
Co1A N4 1_555 1_555
Co1_2 O3E 1_555 1_555
Co1C N4E 1_555 1_555
C2 C3 1_555 1_555
C6 C7 1_555 1_555
C7 C8 1_555 1_555
C2E C3E 1_555 1_555
C6E C7E 1_555 1_555
C7E C8E 1_555 1_555

#END
