
#######################################################################
#
#                 Cambridge Crystallographic Data Centre
#                                CCDC 
#
#######################################################################
#
# If this CIF has been generated from an entry in the Cambridge 
# Structural Database, then it will include bibliographic, chemical, 
# crystal, experimental, refinement or atomic coordinate data resulting 
# from the CCDC's data processing and validation procedures.
#
#######################################################################

data_OHOFEW
_symmetry_cell_setting           trigonal
_symmetry_space_group_name_H-M   'P 3 2 1'
_symmetry_Int_Tables_number      150
_space_group_name_Hall           'P 3 2"'
loop_
_symmetry_equiv_pos_site_id
_symmetry_equiv_pos_as_xyz
1 x,y,z
2 -y,x-y,z
3 y,x,-z
4 -x+y,-x,z
5 -x,-x+y,-z
6 x-y,-y,-z
_cell_length_a                   19.3293(14)
_cell_length_b                   19.3293(14)
_cell_length_c                   7.7651(4)
_cell_angle_alpha                90
_cell_angle_beta                 90
_cell_angle_gamma                120
_cell_volume                     2512.52
loop_
_atom_site_label
_atom_site_type_symbol
_atom_site_fract_x
_atom_site_fract_y
_atom_site_fract_z
Co1 Co 0.54392(4) 0.0000 0.5000
S1 S 0.62442(6) 0.05100(6) 0.08587(15)
O1 O 0.6982(2) 0.0575(2) 0.1508(4)
O2 O 0.6363(2) 0.1179(2) -0.0194(4)
O3 O 0.56214(14) 0.02883(13) 0.2182(4)
N1 N 0.6643(2) 0.0910(2) 0.5356(5)
N2 N 0.7146(2) 0.0780(2) 0.6380(5)
H1 H 0.7096(28) 0.0224(35) 0.6949(77)
N3 N 0.8806(2) 0.4144(2) 0.7268(5)
H2 H 0.8907(26) 0.4518(22) 0.7895(60)
N4 N 0.9183(2) 0.4257(2) 0.5727(5)
C1 C 0.7813(2) 0.1468(2) 0.6799(6)
C2 C 0.7762(3) 0.2075(2) 0.5982(6)
C3 C 0.7037(2) 0.1707(2) 0.5084(6)
C4 C 0.6703(3) 0.2109(3) 0.3997(8)
H3 H 0.6319(38) 0.1760(33) 0.3215(79)
H4 H 0.6513(40) 0.2250(38) 0.5091(94)
H5 H 0.7047(27) 0.2545(28) 0.3687(65)
C5 C 0.8410(3) 0.1478(4) 0.8031(9)
H6 H 0.8803(28) 0.1950(27) 0.7974(62)
H7 H 0.8282(32) 0.1465(39) 0.9300(95)
H8 H 0.8467(36) 0.0990(41) 0.7700(92)
C6 C 0.8279(2) 0.3371(2) 0.7580(7)
C7 C 0.8301(2) 0.2950(2) 0.6187(6)
C8 C 0.8865(2) 0.3506(2) 0.5055(7)
C9 C 0.9120(4) 0.3374(3) 0.3330(8)
H9 H 0.9111(46) 0.3685(42) 0.240(11)
H10 H 0.8686(28) 0.2789(24) 0.2882(55)
H11 H 0.9549(38) 0.3375(35) 0.3406(88)
C10 C 0.7791(4) 0.3114(4) 0.9183(9)
H12 H 0.7851(34) 0.3578(37) 0.9876(83)
H13 H 0.7336(41) 0.2713(40) 0.8979(96)
H14 H 0.7906(34) 0.2869(36) 1.0093(91)
S1E S 0.57342(8) -0.05100(6) -0.08587(15)
O1E O 0.6407(3) -0.0575(2) -0.1508(4)
O2E O 0.5184(3) -0.1179(2) 0.0194(4)
O3E O 0.53331(19) -0.02883(13) -0.2182(4)
N1E N 0.5733(3) -0.0910(2) 0.4644(5)
N2E N 0.6366(3) -0.0780(2) 0.3620(5)
H1E H 0.6872(45) -0.0224(35) 0.3051(77)
N3E N 0.4662(3) -0.4144(2) 0.2732(5)
H2E H 0.4389(34) -0.4518(22) 0.2105(60)
N4E N 0.4926(3) -0.4257(2) 0.4273(5)
C1E C 0.6345(3) -0.1468(2) 0.3201(6)
C2E C 0.5687(4) -0.2075(2) 0.4018(6)
C3E C 0.5330(3) -0.1707(2) 0.4916(6)
C4E C 0.4594(4) -0.2109(3) 0.6003(8)
H3E H 0.4559(50) -0.1760(33) 0.6785(79)
H4E H 0.4263(55) -0.2250(38) 0.4909(94)
H5E H 0.4502(39) -0.2545(28) 0.6313(65)
C5E C 0.6932(5) -0.1478(4) 0.1969(9)
H6E H 0.6853(39) -0.1950(27) 0.2026(62)
H7E H 0.6817(50) -0.1465(39) 0.0700(95)
H8E H 0.7477(55) -0.0990(41) 0.2300(92)
C6E C 0.4908(3) -0.3371(2) 0.2420(7)
C7E C 0.5351(3) -0.2950(2) 0.3813(6)
C8E C 0.5359(3) -0.3506(2) 0.4945(7)
C9E C 0.5746(5) -0.3374(3) 0.6670(8)
H9E H 0.5426(62) -0.3685(42) 0.760(11)
H10E H 0.5897(37) -0.2789(24) 0.7118(55)
H11E H 0.6174(52) -0.3375(35) 0.6594(88)
C10E C 0.4677(6) -0.3114(4) 0.0817(9)
H12E H 0.4273(50) -0.3578(37) 0.0124(83)
H13E H 0.4623(57) -0.2713(40) 0.1021(96)
H14E H 0.5037(50) -0.2869(36) -0.0093(91)
O3E_2 O 0.53331(19) -0.02883(13) 0.7818(4)
N4B N 0.4257(2) -0.0817(2) 0.4273(5)
N4C N 0.5074(3) 0.0817(2) 0.5727(5)
Co1A Co 1.0000 0.54392(4) 0.5000
Co1_2 Co 0.54392(4) 0.0000 -0.5000
Co1C Co 0.45608(4) -0.54392(4) 0.5000
loop_
_geom_bond_atom_site_label_1
_geom_bond_atom_site_label_2
_geom_bond_site_symmetry_1
_geom_bond_site_symmetry_2
Co1 O3 1_555 1_555
S1 O1 1_555 1_555
O2 S1 1_555 1_555
O3 S1 1_555 1_555
N1 Co1 1_555 1_555
N2 N1 1_555 1_555
H1 N2 1_555 1_555
N3 H2 1_555 1_555
N4 N3 1_555 1_555
C1 N2 1_555 1_555
C2 C1 1_555 1_555
C3 N1 1_555 1_555
C4 C3 1_555 1_555
H3 C4 1_555 1_555
H4 C4 1_555 1_555
H5 C4 1_555 1_555
C5 C1 1_555 1_555
H6 C5 1_555 1_555
H7 C5 1_555 1_555
H8 C5 1_555 1_555
C6 N3 1_555 1_555
C7 C2 1_555 1_555
C8 N4 1_555 1_555
C9 C8 1_555 1_555
H9 C9 1_555 1_555
H10 C9 1_555 1_555
H11 C9 1_555 1_555
C10 C6 1_555 1_555
H12 C10 1_555 1_555
H13 C10 1_555 1_555
H14 C10 1_555 1_555
S1E S1 1_555 1_555
O1E S1E 1_555 1_555
O2E S1E 1_555 1_555
O3E S1E 1_555 1_555
N1E Co1 1_555 1_555
N2E N1E 1_555 1_555
H1E N2E 1_555 1_555
N3E H2E 1_555 1_555
N4E N3E 1_555 1_555
C1E N2E 1_555 1_555
C2E C1E 1_555 1_555
C3E N1E 1_555 1_555
C4E C3E 1_555 1_555
H3E C4E 1_555 1_555
H4E C4E 1_555 1_555
H5E C4E 1_555 1_555
C5E C1E 1_555 1_555
H6E C5E 1_555 1_555
H7E C5E 1_555 1_555
H8E C5E 1_555 1_555
C6E N3E 1_555 1_555
C7E C2E 1_555 1_555
C8E N4E 1_555 1_555
C9E C8E 1_555 1_555
H9E C9E 1_555 1_555
H10E C9E 1_555 1_555
H11E C9E 1_555 1_555
C10E C6E 1_555 1_555
H12E C10E 1_555 1_555
H13E C10E 1_555 1_555
H14E C10E 1_555 1_555
O3E_2 Co1 1_555 1_555
N4B Co1 1_555 1_555
N4C Co1 1_555 1_555
Co1A N4 1_555 1_555
Co1_2 O3E 1_555 1_555
Co1C N4E 1_555 1_555
C2 C3 1_555 1_555
C6 C7 1_555 1_555
C7 C8 1_555 1_555
C2E C3E 1_555 1_555
C6E C7E 1_555 1_555
C7E C8E 1_555 1_555

#END
