
#######################################################################
#
#                 Cambridge Crystallographic Data Centre
#                                CCDC 
#
#######################################################################
#
# If this CIF has been generated from an entry in the Cambridge 
# Structural Database, then it will include bibliographic, chemical, 
# crystal, experimental, refinement or atomic coordinate data resulting 
# from the CCDC's data processing and validation procedures.
#
#######################################################################

data_OHOPUX
_symmetry_cell_setting           monoclinic
_symmetry_space_group_name_H-M   'P 21/n'
_symmetry_Int_Tables_number      14
_space_group_name_Hall           '-P 2yn'
loop_
_symmetry_equiv_pos_site_id
_symmetry_equiv_pos_as_xyz
1 x,y,z
2 1/2-x,1/2+y,1/2-z
3 -x,-y,-z
4 1/2+x,1/2-y,1/2+z
_cell_length_a                   13.48980(10)
_cell_length_b                   14.70170(10)
_cell_length_c                   22.7228(9)
_cell_angle_alpha                90
_cell_angle_beta                 97.265(4)
_cell_angle_gamma                90
_cell_volume                     4470.28
loop_
_atom_site_label
_atom_site_type_symbol
_atom_site_fract_x
_atom_site_fract_y
_atom_site_fract_z
Fe1 Fe 0.69510(3) 0.95757(3) 0.793250(17)
N1 N 0.22448(19) 0.9702(2) 0.81446(12)
N2 N 0.53189(17) 0.96044(19) 0.79954(11)
N3 N -0.14077(17) 0.95360(18) 0.78589(11)
N4 N 0.16587(18) 0.9641(2) 0.76734(12)
C1 C 0.0630(2) 0.9618(2) 0.77649(13)
C2 C 0.3277(2) 0.9686(2) 0.80558(13)
C3 C 0.3626(2) 0.9566(2) 0.75116(13)
H1 H 0.3188 0.9514 0.7163
C5 C 0.4646(2) 0.9525(2) 0.75074(13)
H3 H 0.4884 0.9437 0.7145
O1 O 0.70910(15) 1.06454(13) 0.84107(8)
O2 O 0.67476(14) 0.99811(14) 0.71392(8)
N5 N 0.73241(17) 0.88112(16) 0.87134(10)
C8 C 0.4968(2) 0.9731(2) 0.85181(13)
H6 H 0.5422 0.9790 0.8860
N6 N 0.66847(17) 0.82376(17) 0.76214(10)
C9 C 0.7467(2) 0.9112(2) 0.92501(12)
H7 H 0.7653 0.8696 0.9553
C10 C 0.7458(2) 1.0262(2) 1.00239(13)
H8 H 0.7613 0.9798 1.0298
C12 C -0.0745(2) 0.9807(2) 0.83175(14)
H10 H -0.0982 0.9976 0.8668
C13 C 0.0274(2) 0.9846(2) 0.82917(14)
H11 H 0.0711 1.0021 0.8622
C14 C 0.7476(2) 0.7838(2) 0.85968(13)
H12 H 0.7411 0.7482 0.8949
H13 H 0.8138 0.7739 0.8485
C16 C -0.0041(2) 0.9334(3) 0.72894(14)
H15 H 0.0182 0.9171 0.6933
C17 C -0.1051(2) 0.9294(2) 0.73518(14)
H16 H -0.1498 0.9093 0.7033
C19 C 0.7334(2) 1.1136(2) 1.02237(13)
H17 H 0.7419 1.1263 1.0628
C20 C 0.7080(3) 1.1825(2) 0.98103(15)
H18 H 0.6975 1.2412 0.9943
C27 C 0.7355(2) 1.0058(2) 0.94117(12)
C28 C 0.3959(2) 0.9777(2) 0.85659(13)
H23 H 0.3739 0.9866 0.8933
C30 C 0.7144(2) 1.0773(2) 0.89961(12)
C33 C 0.6688(2) 0.7559(2) 0.80968(13)
H27 H 0.6839 0.6961 0.7951
H28 H 0.6037 0.7535 0.8236
C34 C 0.6659(2) 0.9545(2) 0.66212(11)
C35 C 0.6512(2) 0.85948(19) 0.65706(12)
C36 C 0.6530(2) 0.7990(2) 0.70781(13)
H29 H 0.6420 0.7374 0.7002
C39 C 0.6705(2) 1.0053(2) 0.61010(12)
H31 H 0.6803 1.0678 0.6126
C41 C 0.6981(2) 1.1653(2) 0.92082(14)
H33 H 0.6806 1.2122 0.8941
C45 C 0.6377(2) 0.8189(2) 0.60058(13)
H37 H 0.6253 0.7568 0.5972
C46 C 0.6605(2) 0.9630(2) 0.55523(12)
H39 H 0.6658 0.9973 0.5214
C47 C 0.6427(2) 0.8700(2) 0.55012(13)
H40 H 0.6341 0.8425 0.5130
Fe1_2 Fe -0.30490(3) 0.95757(3) 0.793250(17)
N3_2 N 0.85923(17) 0.95360(18) 0.78589(11)
C4 C 0.3934(2) 0.9510(2) 0.59363(12)
H2 H 0.4501 0.9162 0.5907
C6 C 0.2176(2) 0.9658(2) 0.59252(15)
H4 H 0.1541 0.9403 0.5896
C7 C 0.4043(2) 1.0447(2) 0.60422(13)
H5 H 0.4677 1.0707 0.6087
C11 C 0.3880(3) 0.7414(2) 0.68173(14)
H9 H 0.4448 0.7463 0.6626
C15 C 0.5008(2) 0.6588(2) 0.47456(15)
H14 H 0.5438 0.6291 0.4521
C18 C 0.3696(2) 0.75036(19) 0.54423(12)
C21 C 0.3214(3) 1.0987(2) 0.60809(15)
H19 H 0.3286 1.1609 0.6148
C22 C 0.2942(2) 0.7606(2) 0.64920(13)
B1 B 0.2859(2) 0.7981(2) 0.58040(14)
C23 C 0.4018(2) 0.7893(2) 0.49360(13)
H20 H 0.3799 0.8476 0.4827
C24 C 0.2997(2) 0.9083(2) 0.58736(12)
C25 C 0.4713(3) 0.6176(2) 0.52445(15)
H21 H 0.4950 0.5600 0.5357
C26 C 0.4064(2) 0.6623(2) 0.55780(14)
H22 H 0.3864 0.6325 0.5905
C29 C 0.3993(3) 0.7157(3) 0.74104(15)
H24 H 0.4625 0.7025 0.7605
C31 C 0.2275(3) 1.0591(2) 0.60182(16)
H25 H 0.1711 1.0948 0.6038
C32 C 0.4650(2) 0.7448(2) 0.45880(14)
H26 H 0.4831 0.7729 0.4251
C37 C 0.1802(2) 0.7717(2) 0.53972(13)
C38 C 0.1426(2) 0.8238(2) 0.49057(13)
H30 H 0.1740 0.8786 0.4841
C40 C 0.1294(2) 0.6895(2) 0.54685(16)
H32 H 0.1516 0.6521 0.5788
C42 C 0.2128(3) 0.7553(3) 0.68168(17)
H34 H 0.1492 0.7692 0.6630
C43 C 0.3171(3) 0.7097(3) 0.77088(16)
H35 H 0.3240 0.6923 0.8105
C44 C 0.2242(3) 0.7299(4) 0.74113(18)
H36 H 0.1683 0.7266 0.7611
C48 C 0.0125(3) 0.7165(3) 0.45921(17)
H42 H -0.0422 0.6984 0.4328
C49 C 0.0603(2) 0.7977(3) 0.45073(15)
H43 H 0.0378 0.8348 0.4186
C50 C 0.0467(3) 0.6622(3) 0.50746(18)
H44 H 0.0147 0.6077 0.5136
O3 O 0.9648(2) 0.8495(2) 0.59387(12)
H38 H 0.9792 0.8090 0.5717
C51 C 0.9267(3) 0.9249(3) 0.5600(2)
H45 H 0.8831 0.9592 0.5819
H46 H 0.8900 0.9041 0.5235
H47 H 0.9809 0.9629 0.5513
O4 O 0.6443(2) 1.2127(2) 0.76278(15)
H41 H 0.6648 1.1732 0.7868
C52 C 0.5452(4) 1.1946(3) 0.7405(3)
H48 H 0.5088 1.1777 0.7725
H49 H 0.5429 1.1456 0.7124
H50 H 0.5156 1.2479 0.7212
loop_
_geom_bond_atom_site_label_1
_geom_bond_atom_site_label_2
_geom_bond_site_symmetry_1
_geom_bond_site_symmetry_2
Fe1 N2 1_555 1_555
N1 N4 1_555 1_555
N2 C5 1_555 1_555
N3 C12 1_555 1_555
N4 C1 1_555 1_555
C1 C13 1_555 1_555
C2 N1 1_555 1_555
C3 C2 1_555 1_555
H1 C3 1_555 1_555
C4 H2 1_555 1_555
C5 C3 1_555 1_555
H3 C5 1_555 1_555
O1 Fe1 1_555 1_555
O2 Fe1 1_555 1_555
C6 H4 1_555 1_555
C7 C4 1_555 1_555
H5 C7 1_555 1_555
N5 Fe1 1_555 1_555
C8 N2 1_555 1_555
H6 C8 1_555 1_555
N6 Fe1 1_555 1_555
C9 N5 1_555 1_555
H7 C9 1_555 1_555
C10 H8 1_555 1_555
C11 H9 1_555 1_555
C12 H10 1_555 1_555
C13 C12 1_555 1_555
H11 C13 1_555 1_555
C14 N5 1_555 1_555
H12 C14 1_555 1_555
H13 C14 1_555 1_555
C15 H14 1_555 1_555
C16 C1 1_555 1_555
H15 C16 1_555 1_555
C17 N3 1_555 1_555
H16 C17 1_555 1_555
C18 B1 1_555 1_555
C19 C10 1_555 1_555
H17 C19 1_555 1_555
C20 C19 1_555 1_555
H18 C20 1_555 1_555
C21 C7 1_555 1_555
H19 C21 1_555 1_555
C22 C11 1_555 1_555
B1 C22 1_555 1_555
C23 C18 1_555 1_555
H20 C23 1_555 1_555
C24 C4 1_555 1_555
C25 C15 1_555 1_555
H21 C25 1_555 1_555
C26 C18 1_555 1_555
H22 C26 1_555 1_555
C27 C9 1_555 1_555
C28 C2 1_555 1_555
H23 C28 1_555 1_555
C29 C11 1_555 1_555
H24 C29 1_555 1_555
C30 O1 1_555 1_555
C31 C6 1_555 1_555
H25 C31 1_555 1_555
C32 C15 1_555 1_555
H26 C32 1_555 1_555
C33 N6 1_555 1_555
H27 C33 1_555 1_555
H28 C33 1_555 1_555
C34 O2 1_555 1_555
C35 C34 1_555 1_555
C36 N6 1_555 1_555
H29 C36 1_555 1_555
C37 B1 1_555 1_555
C38 C37 1_555 1_555
H30 C38 1_555 1_555
C39 C34 1_555 1_555
H31 C39 1_555 1_555
C40 C37 1_555 1_555
H32 C40 1_555 1_555
C41 C20 1_555 1_555
H33 C41 1_555 1_555
C42 C22 1_555 1_555
H34 C42 1_555 1_555
C43 C29 1_555 1_555
H35 C43 1_555 1_555
C44 C42 1_555 1_555
H36 C44 1_555 1_555
C45 C35 1_555 1_555
H37 C45 1_555 1_555
O3 H38 1_555 1_555
C46 C39 1_555 1_555
H39 C46 1_555 1_555
C47 C45 1_555 1_555
H40 C47 1_555 1_555
O4 H41 1_555 1_555
C48 H42 1_555 1_555
C49 C38 1_555 1_555
H43 C49 1_555 1_555
C50 C40 1_555 1_555
H44 C50 1_555 1_555
C51 O3 1_555 1_555
H45 C51 1_555 1_555
H46 C51 1_555 1_555
H47 C51 1_555 1_555
C52 O4 1_555 1_555
H48 C52 1_555 1_555
H49 C52 1_555 1_555
H50 C52 1_555 1_555
Fe1_2 N3 1_555 1_555
N3_2 Fe1 1_555 1_555
C6 C24 1_555 1_555
C8 C28 1_555 1_555
C10 C27 1_555 1_555
C14 C33 1_555 1_555
C16 C17 1_555 1_555
C21 C31 1_555 1_555
B1 C24 1_555 1_555
C23 C32 1_555 1_555
C25 C26 1_555 1_555
C27 C30 1_555 1_555
C30 C41 1_555 1_555
C35 C36 1_555 1_555
C43 C44 1_555 1_555
C46 C47 1_555 1_555
C48 C49 1_555 1_555
C48 C50 1_555 1_555

#END
