
#######################################################################
#
#                 Cambridge Crystallographic Data Centre
#                                CCDC 
#
#######################################################################
#
# If this CIF has been generated from an entry in the Cambridge 
# Structural Database, then it will include bibliographic, chemical, 
# crystal, experimental, refinement or atomic coordinate data resulting 
# from the CCDC's data processing and validation procedures.
#
#######################################################################

data_OHOQIM
_symmetry_cell_setting           triclinic
_symmetry_space_group_name_H-M   'P -1'
_symmetry_Int_Tables_number      2
_space_group_name_Hall           '-P 1'
loop_
_symmetry_equiv_pos_site_id
_symmetry_equiv_pos_as_xyz
1 x,y,z
2 -x,-y,-z
_cell_length_a                   11.9331(3)
_cell_length_b                   14.1303(3)
_cell_length_c                   14.6055(4)
_cell_angle_alpha                106.6760(10)
_cell_angle_beta                 94.1480(10)
_cell_angle_gamma                106.6390(10)
_cell_volume                     2228.14
loop_
_atom_site_label
_atom_site_type_symbol
_atom_site_fract_x
_atom_site_fract_y
_atom_site_fract_z
Fe1 Fe 0.17714(3) 0.16139(2) 0.66599(2)
N1 N -0.27799(17) -0.31874(15) 0.61878(15)
C1 C 0.3905(2) 0.04808(19) 0.6810(2)
C2 C -0.13126(19) -0.12590(17) 0.61600(16)
H1 H -0.2080 -0.1526 0.5775
C3 C -0.6567(2) -0.51939(18) 0.65355(19)
H2 H -0.6840 -0.4613 0.6598
O1 O 0.25007(13) 0.08053(12) 0.57679(12)
N2 N -0.69766(16) -0.69481(15) 0.65620(14)
O2 O 0.05462(13) 0.18572(12) 0.59600(11)
N3 N 0.05595(15) 0.01165(14) 0.67122(13)
C8 C -0.09644(19) -0.18144(17) 0.67096(16)
C9 C -0.4619(2) -0.41662(17) 0.62522(17)
C10 C 0.0175(2) -0.13742(18) 0.72585(18)
H7 H 0.0452 -0.1724 0.7647
N4 N 0.30933(16) 0.17483(15) 0.77761(15)
N5 N -0.35236(17) -0.41213(15) 0.62570(15)
C12 C -0.05309(18) -0.03116(17) 0.61783(16)
H9 H -0.0781 0.0053 0.5793
C13 C -0.5871(2) -0.68881(19) 0.63832(19)
H10 H -0.5621 -0.7480 0.6326
C15 C -0.54356(19) -0.51379(17) 0.63451(17)
C17 C -0.5099(2) -0.3317(2) 0.6198(2)
H12 H -0.4461 -0.2732 0.6139
H13 H -0.5424 -0.3081 0.6787
H14 H -0.5727 -0.3579 0.5631
C19 C 0.3848(2) 0.1247(2) 0.7688(2)
H15 H 0.4411 0.1393 0.8246
C20 C -0.1365(2) -0.3306(2) 0.7437(2)
H16 H -0.1978 -0.3962 0.7380
H17 H -0.1222 -0.2826 0.8100
H18 H -0.0629 -0.3445 0.7285
C21 C -0.50850(19) -0.60156(18) 0.62789(19)
H19 H -0.4310 -0.6009 0.6163
C22 C 0.08934(19) -0.04325(18) 0.72322(17)
H20 H 0.1670 -0.0153 0.7602
C23 C -0.17704(19) -0.28229(17) 0.67403(17)
N6 N 0.11834(16) 0.23174(14) 0.79399(13)
C26 C -0.04013(19) 0.27281(17) 0.71774(16)
C27 C -0.7300(2) -0.61049(18) 0.66353(19)
H22 H -0.8075 -0.6129 0.6763
C28 C 0.3101(2) 0.2480(2) 0.87156(18)
H23 H 0.3488 0.3207 0.8733
H24 H 0.3540 0.2347 0.9241
C30 C 0.32246(19) 0.02801(18) 0.59012(19)
C32 C -0.02230(18) 0.23622(17) 0.62079(16)
C35 C 0.3349(2) -0.0493(2) 0.5103(2)
H29 H 0.2899 -0.0645 0.4484
C38 C -0.08952(19) 0.25463(18) 0.54899(17)
H31 H -0.0780 0.2321 0.4836
C40 C 0.0301(2) 0.26645(18) 0.79927(17)
H33 H 0.0093 0.2898 0.8614
C41 C -0.1726(2) 0.30528(19) 0.57212(18)
H34 H -0.2161 0.3180 0.5224
C42 C -0.1271(2) 0.32141(19) 0.73834(18)
H35 H -0.1406 0.3435 0.8032
C43 C 0.1821(2) 0.2311(2) 0.88400(17)
H36 H 0.1479 0.1634 0.8950
H37 H 0.1760 0.2874 0.9403
C46 C -0.1932(2) 0.3377(2) 0.66658(19)
H40 H -0.2518 0.3706 0.6815
C49 C 0.4691(2) -0.0084(2) 0.6890(3)
H43 H 0.5150 0.0057 0.7501
C50 C 0.4798(2) -0.0832(2) 0.6095(3)
H44 H 0.5331 -0.1206 0.6154
C51 C 0.4124(2) -0.1039(2) 0.5206(3)
H45 H 0.4192 -0.1565 0.4657
Fe1_2 Fe -0.82286(3) -0.83861(2) 0.66599(2)
N2_2 N 0.30234(16) 0.30519(15) 0.65620(14)
C4 C 0.0868(2) -0.4572(2) 0.69259(18)
H3 H 0.0275 -0.5233 0.6639
C5 C 0.2197(2) -0.0988(2) 1.17246(18)
H4 H 0.2476 -0.0703 1.2404
B1 B 0.2959(2) -0.2903(2) 0.94789(19)
C6 C 0.14189(19) -0.42870(18) 0.78829(17)
H5 H 0.1194 -0.4765 0.8232
C7 C 0.2027(2) -0.2937(2) 0.68197(18)
H6 H 0.2242 -0.2464 0.6464
C11 C 0.2690(2) -0.16722(19) 1.11486(17)
H8 H 0.3297 -0.1852 1.1448
C14 C 0.1304(2) -0.0717(2) 1.1321(2)
H11 H 0.0971 -0.0242 1.1715
C16 C 0.28534(19) -0.38434(18) 0.99578(16)
C18 C 0.23287(19) -0.21112(17) 1.01377(16)
C24 C 0.1176(2) -0.3900(2) 0.63886(18)
H21 H 0.0806 -0.4100 0.5733
C25 C 0.22941(18) -0.33206(18) 0.83494(16)
C29 C 0.1413(2) -0.18246(19) 0.97622(18)
H25 H 0.1126 -0.2104 0.9084
C31 C 0.3827(2) -0.4098(2) 1.02667(19)
H26 H 0.4585 -0.3747 1.0155
C33 C 0.2572(2) -0.26603(18) 0.77793(17)
H27 H 0.3159 -0.1995 0.8061
C34 C 0.1770(2) -0.44041(19) 1.01459(18)
H28 H 0.1072 -0.4265 0.9952
C36 C 0.0904(2) -0.1148(2) 1.0338(2)
H30 H 0.0277 -0.0982 1.0050
C37 C 0.43642(19) -0.23094(18) 0.94711(17)
C39 C 0.4983(2) -0.2868(2) 0.88735(18)
H32 H 0.4584 -0.3578 0.8508
C44 C 0.5003(2) -0.12741(19) 0.99811(19)
H38 H 0.4623 -0.0860 1.0395
C45 C 0.1671(2) -0.5155(2) 1.06046(19)
H39 H 0.0916 -0.5520 1.0713
C47 C 0.2663(2) -0.5370(2) 1.09009(19)
H41 H 0.2602 -0.5877 1.1220
C48 C 0.3742(2) -0.4841(2) 1.0731(2)
H42 H 0.4434 -0.4984 1.0931
C52 C 0.6156(2) -0.2427(2) 0.8792(2)
H46 H 0.6540 -0.2836 0.8377
C53 C 0.6187(2) -0.0817(2) 0.9908(2)
H47 H 0.6593 -0.0106 1.0270
C54 C 0.6766(2) -0.1397(2) 0.9313(2)
H48 H 0.7570 -0.1093 0.9263
loop_
_geom_bond_atom_site_label_1
_geom_bond_atom_site_label_2
_geom_bond_site_symmetry_1
_geom_bond_site_symmetry_2
Fe1 O1 1_555 1_555
N1 N5 1_555 1_555
C1 C19 1_555 1_555
C2 H1 1_555 1_555
C3 H2 1_555 1_555
C4 H3 1_555 1_555
C5 H4 1_555 1_555
O1 C30 1_555 1_555
N2 C13 1_555 1_555
O2 Fe1 1_555 1_555
B1 C16 1_555 1_555
N3 Fe1 1_555 1_555
C6 C4 1_555 1_555
H5 C6 1_555 1_555
C7 H6 1_555 1_555
C8 C2 1_555 1_555
C9 N5 1_555 1_555
C10 C8 1_555 1_555
H7 C10 1_555 1_555
N4 Fe1 1_555 1_555
C11 C5 1_555 1_555
H8 C11 1_555 1_555
C12 C2 1_555 1_555
H9 C12 1_555 1_555
C13 H10 1_555 1_555
C14 C5 1_555 1_555
H11 C14 1_555 1_555
C15 C3 1_555 1_555
C16 C31 1_555 1_555
C17 C9 1_555 1_555
H12 C17 1_555 1_555
H13 C17 1_555 1_555
H14 C17 1_555 1_555
C18 B1 1_555 1_555
C19 N4 1_555 1_555
H15 C19 1_555 1_555
C20 H16 1_555 1_555
H17 C20 1_555 1_555
H18 C20 1_555 1_555
C21 C13 1_555 1_555
H19 C21 1_555 1_555
C22 N3 1_555 1_555
H20 C22 1_555 1_555
C23 N1 1_555 1_555
N6 Fe1 1_555 1_555
C24 C4 1_555 1_555
H21 C24 1_555 1_555
C25 B1 1_555 1_555
C26 C32 1_555 1_555
C27 C3 1_555 1_555
H22 C27 1_555 1_555
C28 N4 1_555 1_555
H23 C28 1_555 1_555
H24 C28 1_555 1_555
C29 C18 1_555 1_555
H25 C29 1_555 1_555
C30 C1 1_555 1_555
C31 H26 1_555 1_555
C32 O2 1_555 1_555
C33 C7 1_555 1_555
H27 C33 1_555 1_555
C34 C16 1_555 1_555
H28 C34 1_555 1_555
C35 C30 1_555 1_555
H29 C35 1_555 1_555
C36 C14 1_555 1_555
H30 C36 1_555 1_555
C37 B1 1_555 1_555
C38 C32 1_555 1_555
H31 C38 1_555 1_555
C39 C37 1_555 1_555
H32 C39 1_555 1_555
C40 N6 1_555 1_555
H33 C40 1_555 1_555
C41 C38 1_555 1_555
H34 C41 1_555 1_555
C42 C26 1_555 1_555
H35 C42 1_555 1_555
C43 N6 1_555 1_555
H36 C43 1_555 1_555
H37 C43 1_555 1_555
C44 C37 1_555 1_555
H38 C44 1_555 1_555
C45 C34 1_555 1_555
H39 C45 1_555 1_555
C46 C41 1_555 1_555
H40 C46 1_555 1_555
C47 C45 1_555 1_555
H41 C47 1_555 1_555
C48 C31 1_555 1_555
H42 C48 1_555 1_555
C49 C1 1_555 1_555
H43 C49 1_555 1_555
C50 C49 1_555 1_555
H44 C50 1_555 1_555
C51 C35 1_555 1_555
H45 C51 1_555 1_555
C52 C39 1_555 1_555
H46 C52 1_555 1_555
C53 C44 1_555 1_555
H47 C53 1_555 1_555
C54 C52 1_555 1_555
H48 C54 1_555 1_555
Fe1_2 N2 1_555 1_555
N2_2 Fe1 1_555 1_555
N2 C27 1_555 1_555
N3 C12 1_555 1_555
C6 C25 1_555 1_555
C7 C24 1_555 1_555
C8 C23 1_555 1_555
C9 C15 1_555 1_555
C10 C22 1_555 1_555
C11 C18 1_555 1_555
C15 C21 1_555 1_555
C20 C23 1_555 1_555
C25 C33 1_555 1_555
C26 C40 1_555 1_555
C28 C43 1_555 1_555
C29 C36 1_555 1_555
C42 C46 1_555 1_555
C47 C48 1_555 1_555
C50 C51 1_555 1_555
C53 C54 1_555 1_555

#END
