
#######################################################################
#
#                 Cambridge Crystallographic Data Centre
#                                CCDC 
#
#######################################################################
#
# If this CIF has been generated from an entry in the Cambridge 
# Structural Database, then it will include bibliographic, chemical, 
# crystal, experimental, refinement or atomic coordinate data resulting 
# from the CCDC's data processing and validation procedures.
#
#######################################################################

data_OHOQAE
_symmetry_cell_setting           monoclinic
_symmetry_space_group_name_H-M   'P 21/n'
_symmetry_Int_Tables_number      14
_space_group_name_Hall           '-P 2yn'
loop_
_symmetry_equiv_pos_site_id
_symmetry_equiv_pos_as_xyz
1 x,y,z
2 1/2-x,1/2+y,1/2-z
3 -x,-y,-z
4 1/2+x,1/2-y,1/2+z
_cell_length_a                   13.7711(4)
_cell_length_b                   14.6168(4)
_cell_length_c                   22.6560(5)
_cell_angle_alpha                90
_cell_angle_beta                 97.0780(10)
_cell_angle_gamma                90
_cell_volume                     4525.66
loop_
_atom_site_label
_atom_site_type_symbol
_atom_site_fract_x
_atom_site_fract_y
_atom_site_fract_z
Fe1 Fe 0.69408(4) 0.95728(3) 0.79369(2)
N1 N 0.5369(2) 0.9598(2) 0.80123(12)
N2 N -0.1483(2) 0.9553(2) 0.78527(12)
C1 C 0.2300(3) 0.9849(3) 0.81070(16)
H1 H 0.2123 1.0080 0.8461
C2 C 0.3722(3) 0.9647(3) 0.75129(15)
H2 H 0.3306 0.9622 0.7157
O1 O 0.70809(17) 1.06502(15) 0.84177(9)
O2 O 0.67298(17) 0.99717(16) 0.71394(9)
C3 C 0.6639(2) 0.9533(2) 0.66213(14)
C4 C 0.3346(3) 0.9781(2) 0.80565(15)
C5 C 0.5009(3) 0.9746(2) 0.85273(15)
H3 H 0.5446 0.9793 0.8874
C6 C 0.4707(3) 0.9555(3) 0.75168(16)
H4 H 0.4943 0.9456 0.7155
C7 C 0.7455(2) 0.9112(2) 0.92547(15)
H5 H 0.7633 0.8693 0.9558
N3 N 0.7319(2) 0.88072(19) 0.87178(12)
C8 C 0.7469(3) 0.7835(2) 0.86056(15)
H6 H 0.7406 0.7481 0.8961
H7 H 0.8119 0.7736 0.8494
C9 C 0.6701(3) 0.7541(2) 0.81055(15)
H8 H 0.6859 0.6942 0.7959
H9 H 0.6064 0.7508 0.8246
N4 N 0.6689(2) 0.82253(19) 0.76292(12)
C10 C 0.6572(3) 0.9610(3) 0.55526(15)
H10 H 0.6615 0.9956 0.5212
C11 C 0.0537(3) 0.9612(3) 0.77483(16)
C12 C 0.7439(3) 1.0266(3) 1.00313(15)
H11 H 0.7588 0.9801 1.0307
C15 C 0.6354(2) 0.8166(2) 0.60066(15)
H13 H 0.6230 0.7542 0.5974
C17 C -0.0144(3) 0.9299(3) 0.72870(16)
H15 H 0.0062 0.9103 0.6932
C21 C 0.6685(3) 1.0028(3) 0.60993(14)
H19 H 0.6795 1.0656 0.6122
C22 C 0.6972(3) 1.1656(3) 0.92187(15)
H20 H 0.6795 1.2128 0.8952
C23 C -0.0825(3) 0.9843(3) 0.83003(16)
H21 H -0.1052 1.0031 0.8651
C26 C 0.6395(3) 0.8676(3) 0.55026(15)
H24 H 0.6305 0.8399 0.5130
C27 C 0.4031(3) 0.9831(3) 0.85679(16)
H25 H 0.3817 0.9923 0.8937
C29 C 0.7311(3) 1.1138(3) 1.02300(16)
H26 H 0.7386 1.1264 1.0635
C30 C 0.6520(2) 0.7976(2) 0.70823(15)
H27 H 0.6404 0.7358 0.7007
C31 C 0.6495(2) 0.8577(2) 0.65727(14)
C32 C -0.1120(3) 0.9281(3) 0.73568(16)
H28 H -0.1558 0.9068 0.7041
C33 C 0.7068(3) 1.1831(3) 0.98197(16)
H29 H 0.6969 1.2421 0.9953
C34 C 0.1583(3) 0.9611(3) 0.76911(16)
H30 H 0.1763 0.9425 0.7327
C35 C 0.7135(2) 1.0781(2) 0.90022(14)
C43 C 0.7351(2) 1.0056(2) 0.94195(15)
C52 C 0.0159(3) 0.9876(3) 0.82685(17)
H46 H 0.0581 1.0076 0.8595
Fe1_2 Fe -0.30592(4) 0.95728(3) 0.79369(2)
N2_2 N 0.8517(2) 0.9553(2) 0.78527(12)
C13 C 0.8992(3) 0.7115(2) 0.99301(15)
H12 H 0.8767 0.6536 0.9813
C14 C 0.6817(3) 0.7277(2) 1.03964(15)
C16 C 0.9980(3) 0.8415(3) 0.97583(17)
H14 H 1.0411 0.8711 0.9536
C18 C 0.9058(3) 0.8374(2) 1.05859(16)
H16 H 0.8872 0.8669 1.0918
C19 C 0.9697(3) 0.8818(3) 1.02543(17)
H17 H 0.9934 0.9395 1.0370
C20 C 0.6443(3) 0.6744(3) 0.99041(15)
H18 H 0.6752 0.6195 0.9837
C24 C 0.5629(3) 0.7003(3) 0.95115(16)
H22 H 0.5408 0.6627 0.9192
C25 C 0.5153(3) 0.7809(3) 0.95944(18)
H23 H 0.4611 0.7983 0.9332
C28 C 0.8682(2) 0.7503(2) 1.04443(14)
B1 B 0.7845(3) 0.7018(3) 1.08023(17)
C36 C 0.6304(3) 0.8094(3) 1.04601(17)
H31 H 0.6518 0.8479 1.0777
C37 C 0.7198(3) 0.5329(3) 1.09267(15)
H32 H 0.6572 0.5577 1.0897
C38 C 0.8835(3) 0.7532(3) 1.18241(16)
H33 H 0.9394 0.7469 1.1635
C39 C 0.7989(3) 0.5913(2) 1.08724(14)
C40 C 0.7920(3) 0.7385(2) 1.14922(15)
C41 C 0.8912(3) 0.5490(2) 1.09351(14)
H34 H 0.9463 0.5848 1.0907
C42 C 0.7118(3) 0.7483(3) 1.18092(17)
H35 H 0.6491 0.7395 1.1613
C44 C 0.9615(3) 0.7559(3) 0.95935(15)
H36 H 0.9791 0.7280 0.9253
C45 C 0.7310(3) 0.4399(3) 1.10222(16)
H37 H 0.6762 0.4036 1.1050
C46 C 0.5489(3) 0.8355(3) 1.00704(19)
H38 H 0.5170 0.8901 1.0133
C47 C 0.9033(3) 0.4556(3) 1.10382(14)
H39 H 0.9657 0.4303 1.1082
C48 C 0.8228(3) 0.4002(3) 1.10764(16)
H40 H 0.8303 0.3376 1.1137
C49 C 0.8944(3) 0.7766(3) 1.24230(17)
H41 H 0.9565 0.7866 1.2624
C50 C 0.7230(3) 0.7709(3) 1.24101(18)
H42 H 0.6679 0.7764 1.2607
C51 C 0.8138(3) 0.7850(3) 1.27169(18)
H43 H 0.8206 0.8001 1.3119
O3 O 0.4670(2) 0.6509(2) 1.09289(13)
H44 H 0.4834 0.6901 1.0702
C53 C 0.4265(3) 0.5760(3) 1.0597(2)
H47 H 0.4780 0.5361 1.0506
H48 H 0.3903 0.5974 1.0234
H49 H 0.3834 0.5432 1.0825
O4 O 0.6440(2) 1.2120(2) 0.76308(15)
H45 H 0.6674 1.1667 0.7808
C54 C 0.5480(4) 1.1938(3) 0.7393(3)
H50 H 0.5119 1.1724 0.7702
H51 H 0.5475 1.1477 0.7091
H52 H 0.5183 1.2487 0.7222
loop_
_geom_bond_atom_site_label_1
_geom_bond_atom_site_label_2
_geom_bond_site_symmetry_1
_geom_bond_site_symmetry_2
Fe1 N1 1_555 1_555
N1 C5 1_555 1_555
N2 C23 1_555 1_555
C1 H1 1_555 1_555
C2 H2 1_555 1_555
O1 Fe1 1_555 1_555
O2 Fe1 1_555 1_555
C3 O2 1_555 1_555
C4 C1 1_555 1_555
C5 H3 1_555 1_555
C6 N1 1_555 1_555
H4 C6 1_555 1_555
C7 H5 1_555 1_555
N3 Fe1 1_555 1_555
C8 N3 1_555 1_555
H6 C8 1_555 1_555
H7 C8 1_555 1_555
C9 C8 1_555 1_555
H8 C9 1_555 1_555
H9 C9 1_555 1_555
N4 Fe1 1_555 1_555
C10 H10 1_555 1_555
C11 C17 1_555 1_555
C12 H11 1_555 1_555
C13 H12 1_555 1_555
C14 C20 1_555 1_555
C15 H13 1_555 1_555
C16 H14 1_555 1_555
C17 H15 1_555 1_555
C18 H16 1_555 1_555
C19 C16 1_555 1_555
H17 C19 1_555 1_555
C20 H18 1_555 1_555
C21 C3 1_555 1_555
H19 C21 1_555 1_555
C22 H20 1_555 1_555
C23 H21 1_555 1_555
C24 C20 1_555 1_555
H22 C24 1_555 1_555
C25 C24 1_555 1_555
H23 C25 1_555 1_555
C26 C10 1_555 1_555
H24 C26 1_555 1_555
C27 C4 1_555 1_555
H25 C27 1_555 1_555
C28 C13 1_555 1_555
C29 C12 1_555 1_555
H26 C29 1_555 1_555
C30 N4 1_555 1_555
H27 C30 1_555 1_555
C31 C3 1_555 1_555
B1 C14 1_555 1_555
C32 N2 1_555 1_555
H28 C32 1_555 1_555
C33 C22 1_555 1_555
H29 C33 1_555 1_555
C34 C1 1_555 1_555
H30 C34 1_555 1_555
C35 O1 1_555 1_555
C36 C14 1_555 1_555
H31 C36 1_555 1_555
C37 H32 1_555 1_555
C38 H33 1_555 1_555
C39 B1 1_555 1_555
C40 B1 1_555 1_555
C41 C39 1_555 1_555
H34 C41 1_555 1_555
C42 C40 1_555 1_555
H35 C42 1_555 1_555
C43 C7 1_555 1_555
C44 C13 1_555 1_555
H36 C44 1_555 1_555
C45 C37 1_555 1_555
H37 C45 1_555 1_555
C46 C25 1_555 1_555
H38 C46 1_555 1_555
C47 C41 1_555 1_555
H39 C47 1_555 1_555
C48 C45 1_555 1_555
H40 C48 1_555 1_555
C49 C38 1_555 1_555
H41 C49 1_555 1_555
C50 C42 1_555 1_555
H42 C50 1_555 1_555
C51 C49 1_555 1_555
H43 C51 1_555 1_555
O3 H44 1_555 1_555
O4 H45 1_555 1_555
C52 C11 1_555 1_555
H46 C52 1_555 1_555
C53 O3 1_555 1_555
H47 C53 1_555 1_555
H48 C53 1_555 1_555
H49 C53 1_555 1_555
C54 O4 1_555 1_555
H50 C54 1_555 1_555
H51 C54 1_555 1_555
H52 C54 1_555 1_555
Fe1_2 N2 1_555 1_555
N2_2 Fe1 1_555 1_555
C2 C4 1_555 1_555
C2 C6 1_555 1_555
C5 C27 1_555 1_555
C7 N3 1_555 1_555
C9 N4 1_555 1_555
C10 C21 1_555 1_555
C11 C34 1_555 1_555
C12 C43 1_555 1_555
C15 C26 1_555 1_555
C15 C31 1_555 1_555
C16 C44 1_555 1_555
C17 C32 1_555 1_555
C18 C19 1_555 1_555
C18 C28 1_555 1_555
C22 C35 1_555 1_555
C23 C52 1_555 1_555
C28 B1 1_555 1_555
C29 C33 1_555 1_555
C30 C31 1_555 1_555
C35 C43 1_555 1_555
C36 C46 1_555 1_555
C37 C39 1_555 1_555
C38 C40 1_555 1_555
C47 C48 1_555 1_555
C50 C51 1_555 1_555

#END
