
#######################################################################
#
#                 Cambridge Crystallographic Data Centre
#                                CCDC 
#
#######################################################################
#
# If this CIF has been generated from an entry in the Cambridge 
# Structural Database, then it will include bibliographic, chemical, 
# crystal, experimental, refinement or atomic coordinate data resulting 
# from the CCDC's data processing and validation procedures.
#
#######################################################################

data_OHOREJ
_symmetry_cell_setting           triclinic
_symmetry_space_group_name_H-M   'P -1'
_symmetry_Int_Tables_number      2
_space_group_name_Hall           '-P 1'
loop_
_symmetry_equiv_pos_site_id
_symmetry_equiv_pos_as_xyz
1 x,y,z
2 -x,-y,-z
_cell_length_a                   12.0126(5)
_cell_length_b                   13.9365(6)
_cell_length_c                   15.7137(7)
_cell_angle_alpha                93.666(2)
_cell_angle_beta                 107.727(2)
_cell_angle_gamma                107.489(2)
_cell_volume                     2354.7
loop_
_atom_site_label
_atom_site_type_symbol
_atom_site_fract_x
_atom_site_fract_y
_atom_site_fract_z
Fe1 Fe 0.17891(9) 0.24920(7) 0.14311(7)
O1 O 0.2624(5) 0.1528(4) 0.1448(4)
O2 O 0.0864(5) 0.2464(4) 0.0209(3)
N1 N 0.1076(6) 0.3600(4) 0.1824(4)
N2 N 0.2674(6) 0.2846(5) 0.2841(5)
N3 N 0.0161(6) 0.1261(5) 0.1495(4)
N4 N -0.6654(6) -0.6343(5) 0.1271(4)
N5 N -0.3911(7) -0.3006(5) 0.1044(5)
C1 C -0.0028(7) 0.2829(6) -0.0171(5)
C2 C -0.0353(7) 0.3529(5) 0.0322(5)
C3 C -0.0014(7) 0.0316(6) 0.1096(6)
H1 H 0.0585 0.0223 0.0871
C4 C 0.3073(7) 0.2240(6) 0.3356(6)
H2 H 0.3292 0.2418 0.3980
N6 N -0.2919(6) -0.2159(5) 0.1064(5)
C5 C -0.3012(8) -0.1302(6) 0.1318(6)
C6 C -0.1039(7) -0.0519(6) 0.1004(6)
H3 H -0.1127 -0.1156 0.0719
C7 C 0.0241(6) 0.3895(5) 0.1288(5)
H4 H -0.0002 0.4383 0.1543
C8 C 0.3194(7) 0.1303(6) 0.3007(6)
C9 C -0.5492(7) -0.6361(6) 0.1556(6)
H5 H -0.5353 -0.6931 0.1782
C10 C -0.0721(7) 0.1379(6) 0.1800(5)
H6 H -0.0623 0.2027 0.2067
C11 C -0.1586(7) 0.2910(6) -0.1539(5)
H7 H -0.1997 0.2695 -0.2159
C12 C 0.1488(7) 0.3988(6) 0.2804(5)
H8 H 0.0877 0.3619 0.3058
H9 H 0.1584 0.4707 0.2904
C13 C -0.1945(7) -0.0397(5) 0.1346(5)
C14 C -0.1784(7) 0.0573(6) 0.1735(6)
H10 H -0.2379 0.0689 0.1953
C15 C 0.3610(8) 0.0708(7) 0.3638(7)
H11 H 0.3719 0.0897 0.4244
C16 C -0.6831(7) -0.5528(5) 0.0926(5)
H12 H -0.7634 -0.5506 0.0722
C17 C 0.3015(7) 0.1008(5) 0.2075(6)
C18 C -0.0658(7) 0.2557(6) -0.1099(5)
H13 H -0.0440 0.2116 -0.1435
C19 C 0.2719(7) 0.3838(6) 0.3257(6)
H14 H 0.3388 0.4382 0.3179
H15 H 0.2871 0.3856 0.3901
C20 C 0.3706(8) -0.0414(6) 0.2487(7)
H16 H 0.3885 -0.0984 0.2311
C21 C 0.3294(8) 0.0138(6) 0.1844(7)
H17 H 0.3197 -0.0067 0.1243
C22 C -0.1919(9) 0.3593(7) -0.1060(6)
H18 H -0.2546 0.3840 -0.1357
C23 C -0.4048(9) -0.1167(7) 0.1583(8)
H19 H -0.4790 -0.1739 0.1282
H20 H -0.4180 -0.0550 0.1410
H21 H -0.3844 -0.1123 0.2227
C24 C -0.1303(8) 0.3895(6) -0.0140(6)
H22 H -0.1518 0.4351 0.0182
C25 C 0.3863(8) -0.0146(6) 0.3388(7)
H23 H 0.4132 -0.0533 0.3815
C42 C -0.4658(7) -0.4712(5) 0.1188(5)
C43 C -0.5879(7) -0.4713(5) 0.0857(5)
H38 H -0.6051 -0.4172 0.0592
C44 C -0.3614(7) -0.3822(6) 0.1177(5)
C45 C -0.2366(7) -0.3914(6) 0.1352(6)
H39 H -0.1867 -0.3370 0.1142
H40 H -0.2450 -0.4558 0.1035
H41 H -0.1975 -0.3874 0.1990
C46 C -0.4487(7) -0.5567(6) 0.1528(5)
H42 H -0.3694 -0.5610 0.1739
Fe1_2 Fe -0.82109(9) -0.75080(7) 0.14311(7)
N4_2 N 0.3346(6) 0.3657(5) 0.1271(4)
Fe2 Fe 0.89936(10) 0.41912(8) 0.41247(7)
Cl1 Cl 0.8464(2) 0.41398(19) 0.25878(17)
O3 O 0.9731(5) 0.3174(4) 0.4108(4)
O4 O 1.0310(5) 0.5561(4) 0.4425(4)
N7 N 0.7351(6) 0.3036(5) 0.4024(4)
N8 N 0.7845(5) 0.5023(5) 0.4280(4)
C26 C 0.7166(8) 0.2068(5) 0.3969(6)
H24 H 0.6377 0.1638 0.3913
C27 C 0.7961(7) 0.5923(5) 0.4103(6)
H25 H 0.7343 0.6188 0.4122
C28 C 0.8987(8) 0.6555(6) 0.3873(5)
C29 C 0.6775(7) 0.4440(6) 0.4514(5)
H26 H 0.6139 0.4757 0.4367
H27 H 0.7023 0.4412 0.5158
C30 C 0.6293(7) 0.3384(6) 0.3968(6)
H28 H 0.5725 0.2922 0.4205
H29 H 0.5849 0.3393 0.3341
C31 C 0.9351(8) 0.2176(6) 0.4079(5)
C32 C 1.0118(7) 0.6363(5) 0.4021(5)
C33 C 0.8864(8) 0.7429(6) 0.3510(6)
H30 H 0.8132 0.7570 0.3419
C34 C 1.1053(8) 0.7024(6) 0.3794(5)
H31 H 1.1795 0.6898 0.3886
C35 C 1.0168(9) 0.1651(6) 0.4109(6)
H32 H 1.0978 0.2012 0.4155
C36 C 1.0898(8) 0.7870(6) 0.3431(6)
H33 H 1.1540 0.8307 0.3282
C37 C 0.9808(9) 0.8083(6) 0.3284(6)
H34 H 0.9713 0.8654 0.3038
C38 C 0.8101(8) 0.1609(6) 0.3990(5)
C39 C 0.9813(10) 0.0595(7) 0.4074(7)
H35 H 1.0382 0.0258 0.4110
C40 C 0.7767(9) 0.0549(6) 0.3956(6)
H36 H 0.6962 0.0174 0.3912
C41 C 0.8597(11) 0.0058(7) 0.3986(8)
H37 H 0.8345 -0.0648 0.3947
Fe2A Fe 1.10064(10) 0.58088(8) 0.58753(7)
Cl1A Cl 1.1536(2) 0.58602(19) 0.74122(17)
O3A O 1.0269(5) 0.6826(4) 0.5892(4)
O4A O 0.9690(5) 0.4439(4) 0.5575(4)
N7A N 1.2649(6) 0.6964(5) 0.5976(4)
N8A N 1.2155(5) 0.4977(5) 0.5720(4)
C26A C 1.2834(8) 0.7932(5) 0.6031(6)
H24A H 1.3623 0.8362 0.6087
C27A C 1.2039(7) 0.4077(5) 0.5897(6)
H25A H 1.2657 0.3812 0.5878
C28A C 1.1013(8) 0.3445(6) 0.6127(5)
C29A C 1.3225(7) 0.5560(6) 0.5486(5)
H26A H 1.3861 0.5243 0.5633
H27A H 1.2977 0.5588 0.4842
C30A C 1.3707(7) 0.6616(6) 0.6032(6)
H28A H 1.4275 0.7078 0.5795
H29A H 1.4151 0.6607 0.6659
C31A C 1.0649(8) 0.7824(6) 0.5921(5)
C32A C 0.9882(7) 0.3637(5) 0.5979(5)
C33A C 1.1136(8) 0.2571(6) 0.6490(6)
H30A H 1.1868 0.2430 0.6581
C34A C 0.8947(8) 0.2976(6) 0.6206(5)
H31A H 0.8205 0.3102 0.6114
C35A C 0.9832(9) 0.8349(6) 0.5891(6)
H32A H 0.9022 0.7988 0.5845
C36A C 0.9102(8) 0.2130(6) 0.6569(6)
H33A H 0.8460 0.1693 0.6718
C37A C 1.0192(9) 0.1917(6) 0.6716(6)
H34A H 1.0287 0.1346 0.6962
C38A C 1.1899(8) 0.8391(6) 0.6010(5)
C39A C 1.0187(10) 0.9405(7) 0.5926(7)
H35A H 0.9618 0.9742 0.5890
C40A C 1.2233(9) 0.9451(6) 0.6044(6)
H36A H 1.3038 0.9826 0.6088
C41A C 1.1403(11) 0.9942(7) 0.6014(8)
H37A H 1.1655 1.0648 0.6053
P1 P 0.4929(2) 0.70119(16) 0.37355(15)
F1 F 0.5181(6) 0.6334(5) 0.4513(4)
F2 F 0.4576(6) 0.7715(5) 0.4376(5)
F3 F 0.5271(6) 0.6286(6) 0.3107(4)
F4 F 0.3513(5) 0.6293(5) 0.3345(5)
F5 F 0.4669(7) 0.7670(6) 0.2963(5)
F6 F 0.6347(6) 0.7709(5) 0.4158(5)
O5 O 0.6269(11) 0.2038(8) 0.1834(7)
H43 H 0.6976 0.2449 0.2060
C47 C 0.592(2) 0.1895(14) 0.0874(9)
H44 H 0.5900 0.2527 0.0671
H45 H 0.5114 0.1384 0.0610
H46 H 0.6514 0.1678 0.0693
loop_
_geom_bond_atom_site_label_1
_geom_bond_atom_site_label_2
_geom_bond_site_symmetry_1
_geom_bond_site_symmetry_2
Fe1 O1 1_555 1_555
O1 C17 1_555 1_555
O2 Fe1 1_555 1_555
N1 Fe1 1_555 1_555
N2 Fe1 1_555 1_555
N3 Fe1 1_555 1_555
N4 C9 1_555 1_555
N5 N6 1_555 1_555
C1 O2 1_555 1_555
C2 C1 1_555 1_555
C3 N3 1_555 1_555
H1 C3 1_555 1_555
C4 N2 1_555 1_555
H2 C4 1_555 1_555
N6 C5 1_555 1_555
C5 C13 1_555 1_555
C6 C3 1_555 1_555
H3 C6 1_555 1_555
C7 N1 1_555 1_555
H4 C7 1_555 1_555
C8 C4 1_555 1_555
C9 H5 1_555 1_555
C10 N3 1_555 1_555
H6 C10 1_555 1_555
C11 H7 1_555 1_555
C12 N1 1_555 1_555
H8 C12 1_555 1_555
H9 C12 1_555 1_555
C13 C6 1_555 1_555
C14 C10 1_555 1_555
H10 C14 1_555 1_555
C15 C8 1_555 1_555
H11 C15 1_555 1_555
C16 N4 1_555 1_555
H12 C16 1_555 1_555
C17 C8 1_555 1_555
C18 C1 1_555 1_555
H13 C18 1_555 1_555
C19 N2 1_555 1_555
H14 C19 1_555 1_555
H15 C19 1_555 1_555
C20 H16 1_555 1_555
C21 C17 1_555 1_555
H17 C21 1_555 1_555
C22 C11 1_555 1_555
H18 C22 1_555 1_555
C23 C5 1_555 1_555
H19 C23 1_555 1_555
H20 C23 1_555 1_555
H21 C23 1_555 1_555
C24 C2 1_555 1_555
H22 C24 1_555 1_555
C25 C15 1_555 1_555
H23 C25 1_555 1_555
Fe2 Cl1 1_555 1_555
O3 Fe2 1_555 1_555
O4 Fe2 1_555 1_555
N7 Fe2 1_555 1_555
N8 Fe2 1_555 1_555
C26 N7 1_555 1_555
H24 C26 1_555 1_555
C27 N8 1_555 1_555
H25 C27 1_555 1_555
C28 C27 1_555 1_555
C29 N8 1_555 1_555
H26 C29 1_555 1_555
H27 C29 1_555 1_555
C30 N7 1_555 1_555
H28 C30 1_555 1_555
H29 C30 1_555 1_555
C31 O3 1_555 1_555
C32 O4 1_555 1_555
C33 C28 1_555 1_555
H30 C33 1_555 1_555
C34 C32 1_555 1_555
H31 C34 1_555 1_555
C35 C31 1_555 1_555
H32 C35 1_555 1_555
C36 C34 1_555 1_555
H33 C36 1_555 1_555
C37 C33 1_555 1_555
H34 C37 1_555 1_555
C38 C26 1_555 1_555
C39 C35 1_555 1_555
H35 C39 1_555 1_555
C40 C38 1_555 1_555
H36 C40 1_555 1_555
C41 C39 1_555 1_555
H37 C41 1_555 1_555
P1 F1 1_555 1_555
F2 P1 1_555 1_555
F3 P1 1_555 1_555
F4 P1 1_555 1_555
F5 P1 1_555 1_555
F6 P1 1_555 1_555
C42 C43 1_555 1_555
C43 C16 1_555 1_555
H38 C43 1_555 1_555
C44 N5 1_555 1_555
C45 C44 1_555 1_555
H39 C45 1_555 1_555
H40 C45 1_555 1_555
H41 C45 1_555 1_555
C46 C9 1_555 1_555
H42 C46 1_555 1_555
O5 H43 1_555 1_555
C47 O5 1_555 1_555
H44 C47 1_555 1_555
H45 C47 1_555 1_555
H46 C47 1_555 1_555
Fe1_2 N4 1_555 1_555
N4_2 Fe1 1_555 1_555
Fe2A O4 1_555 1_555
Cl1A Fe2A 1_555 1_555
O3A Fe2A 1_555 1_555
O4A Fe2 1_555 1_555
N7A Fe2A 1_555 1_555
N8A Fe2A 1_555 1_555
C26A N7A 1_555 1_555
H24A C26A 1_555 1_555
C27A N8A 1_555 1_555
H25A C27A 1_555 1_555
C28A C27A 1_555 1_555
C29A N8A 1_555 1_555
H26A C29A 1_555 1_555
H27A C29A 1_555 1_555
C30A N7A 1_555 1_555
H28A C30A 1_555 1_555
H29A C30A 1_555 1_555
C31A O3A 1_555 1_555
C32A O4A 1_555 1_555
C33A C28A 1_555 1_555
H30A C33A 1_555 1_555
C34A C32A 1_555 1_555
H31A C34A 1_555 1_555
C35A C31A 1_555 1_555
H32A C35A 1_555 1_555
C36A C34A 1_555 1_555
H33A C36A 1_555 1_555
C37A C33A 1_555 1_555
H34A C37A 1_555 1_555
C38A C26A 1_555 1_555
C39A C35A 1_555 1_555
H35A C39A 1_555 1_555
C40A C38A 1_555 1_555
H36A C40A 1_555 1_555
C41A C39A 1_555 1_555
H37A C41A 1_555 1_555
C2 C7 1_555 1_555
C11 C18 1_555 1_555
C12 C19 1_555 1_555
C13 C14 1_555 1_555
C20 C21 1_555 1_555
C20 C25 1_555 1_555
C22 C24 1_555 1_555
C28 C32 1_555 1_555
C29 C30 1_555 1_555
C31 C38 1_555 1_555
C36 C37 1_555 1_555
C40 C41 1_555 1_555
C42 C44 1_555 1_555
C42 C46 1_555 1_555
Fe2A O4A 1_555 1_555
C28A C32A 1_555 1_555
C29A C30A 1_555 1_555
C31A C38A 1_555 1_555
C36A C37A 1_555 1_555
C40A C41A 1_555 1_555

#END
