
#######################################################################
#
#                 Cambridge Crystallographic Data Centre
#                                CCDC 
#
#######################################################################
#
# If this CIF has been generated from an entry in the Cambridge 
# Structural Database, then it will include bibliographic, chemical, 
# crystal, experimental, refinement or atomic coordinate data resulting 
# from the CCDC's data processing and validation procedures.
#
#######################################################################

data_OHOREI
_symmetry_cell_setting           orthorhombic
_symmetry_space_group_name_H-M   'P b c a'
_symmetry_Int_Tables_number      61
_space_group_name_Hall           '-P 2ac 2ab'
loop_
_symmetry_equiv_pos_site_id
_symmetry_equiv_pos_as_xyz
1 x,y,z
2 1/2+x,y,1/2-z
3 x,1/2-y,1/2+z
4 1/2-x,1/2+y,z
5 -x,-y,-z
6 1/2-x,-y,1/2+z
7 -x,1/2+y,1/2-z
8 1/2+x,1/2-y,-z
_cell_length_a                   14.5401(12)
_cell_length_b                   6.5807(5)
_cell_length_c                   16.5221(13)
_cell_angle_alpha                90
_cell_angle_beta                 90
_cell_angle_gamma                90
_cell_volume                     1580.9
loop_
_atom_site_label
_atom_site_type_symbol
_atom_site_fract_x
_atom_site_fract_y
_atom_site_fract_z
Zn1 Zn 0.22149(3) -0.22887(8) 0.20837(3)
N1 N 0.0609(2) -0.2295(4) 0.1013(2)
C1 C -0.0882(3) -0.2061(6) 0.0325(2)
C2 C -0.0279(2) -0.1842(5) 0.1021(2)
N2 N 0.0896(2) -0.1796(5) 0.17530(19)
N3 N 0.0219(2) -0.1089(6) 0.22018(19)
N4 N -0.0538(2) -0.1094(5) 0.17452(18)
C3 C -0.1823(3) -0.1671(6) 0.0364(2)
H1 H -0.2090 -0.1283 0.0852
C4 C -0.2353(3) -0.1860(7) -0.0316(3)
H2 H -0.2979 -0.1593 -0.0277
N5 N -0.2008(3) -0.2415(4) -0.1034(2)
C5 C -0.1109(3) -0.2801(5) -0.1078(3)
H3 H -0.0863 -0.3183 -0.1574
C6 C -0.0524(3) -0.2661(5) -0.0420(2)
H4 H 0.0098 -0.2962 -0.0474
O1 O 0.22858(18) -0.4921(4) 0.26035(17)
H5 H 0.172(4) -0.502(8) 0.289(2)
N5G N 0.2992(3) -0.2585(4) 0.1034(2)
Zn1G Zn -0.27851(3) -0.27113(8) -0.20837(3)
Zn1C Zn 0.27851(3) -0.72887(8) 0.20837(3)
O1C O 0.27142(18) 0.0079(4) 0.26035(17)
H5C H 0.328(4) -0.002(8) 0.289(2)
O2 O 0.1248(18) -0.460(6) -0.164(3)
loop_
_geom_bond_atom_site_label_1
_geom_bond_atom_site_label_2
_geom_bond_site_symmetry_1
_geom_bond_site_symmetry_2
Zn1 N2 1_555 1_555
N1 C2 1_555 1_555
C1 C2 1_555 1_555
C2 N4 1_555 1_555
N2 N1 1_555 1_555
N3 N2 1_555 1_555
N4 N3 1_555 1_555
C3 C1 1_555 1_555
H1 C3 1_555 1_555
C4 C3 1_555 1_555
H2 C4 1_555 1_555
N5 C4 1_555 1_555
C5 N5 1_555 1_555
H3 C5 1_555 1_555
C6 C1 1_555 1_555
H4 C6 1_555 1_555
O1 Zn1 1_555 1_555
H5 O1 1_555 1_555
N5G Zn1 1_555 1_555
Zn1G N5 1_555 1_555
Zn1C O1 1_555 1_555
O1C Zn1 1_555 1_555
H5C O1C 1_555 1_555
C5 C6 1_555 1_555

#END
