
#######################################################################
#
#                 Cambridge Crystallographic Data Centre
#                                CCDC 
#
#######################################################################
#
# If this CIF has been generated from an entry in the Cambridge 
# Structural Database, then it will include bibliographic, chemical, 
# crystal, experimental, refinement or atomic coordinate data resulting 
# from the CCDC's data processing and validation procedures.
#
#######################################################################

data_OHOROT
_symmetry_cell_setting           monoclinic
_symmetry_space_group_name_H-M   'P 21/n'
_symmetry_Int_Tables_number      14
_space_group_name_Hall           '-P 2yn'
loop_
_symmetry_equiv_pos_site_id
_symmetry_equiv_pos_as_xyz
1 x,y,z
2 1/2-x,1/2+y,1/2-z
3 -x,-y,-z
4 1/2+x,1/2-y,1/2+z
_cell_length_a                   13.7092(10)
_cell_length_b                   14.5012(10)
_cell_length_c                   22.9555(11)
_cell_angle_alpha                90
_cell_angle_beta                 96.135(3)
_cell_angle_gamma                90
_cell_volume                     4537.41
loop_
_atom_site_label
_atom_site_type_symbol
_atom_site_fract_x
_atom_site_fract_y
_atom_site_fract_z
Fe1 Fe 0.69246(4) 0.44815(4) 0.78686(3)
N1 N 0.5318(2) 0.4483(3) 0.79284(16)
N2 N -0.1489(2) 0.4501(3) 0.78019(17)
O1 O 0.6986(2) 0.5576(2) 0.83307(12)
C2 C 0.3659(3) 0.4569(3) 0.7481(2)
H2 H 0.3218 0.4571 0.7132
N3 N 0.1581(3) 0.4594(3) 0.77102(19)
H3 H 0.1776 0.4460 0.7367
C3 C 0.4667(3) 0.4470(3) 0.7453(2)
H4 H 0.4898 0.4389 0.7080
C4 C 0.2260(4) 0.4790(4) 0.8148(2)
C5 C 0.3992(3) 0.4682(4) 0.8516(2)
H5 H 0.3780 0.4759 0.8893
N4 N 0.7266(2) 0.3725(2) 0.86488(15)
C8 C 0.4974(3) 0.4585(3) 0.8451(2)
H8 H 0.5430 0.4589 0.8793
C9 C 0.3314(3) 0.4664(3) 0.8018(2)
C10 C -0.0893(3) 0.4858(4) 0.8244(2)
H9 H -0.1176 0.5089 0.8575
C11 C -0.1057(3) 0.4192(3) 0.7337(2)
H10 H -0.1463 0.3934 0.7016
C12 C -0.0058(4) 0.4232(3) 0.7300(3)
H11 H 0.0208 0.4015 0.6960
C15 C 0.0547(3) 0.4587(4) 0.7761(2)
C16 C 0.0128(4) 0.4909(4) 0.8245(2)
H13 H 0.0526 0.5159 0.8571
O2 O 0.6740(2) 0.4881(2) 0.70892(12)
C17 C 0.7401(3) 0.4048(3) 0.91722(19)
H14 H 0.7603 0.3629 0.9480
C18 C 0.6656(3) 0.4436(3) 0.65736(18)
O3 O 0.2067(2) 0.4989(3) 0.86485(15)
C20 C 0.7435(3) 0.2749(3) 0.85395(19)
H15 H 0.7359 0.2386 0.8897
H16 H 0.8110 0.2658 0.8434
C22 C 0.6507(3) 0.3469(3) 0.65356(18)
C24 C 0.7269(3) 0.5003(3) 0.93288(19)
C25 C 0.6538(3) 0.2865(3) 0.70358(19)
H19 H 0.6431 0.2227 0.6963
N5 N 0.6700(2) 0.3123(2) 0.75731(15)
C27 C 0.6700(3) 0.2432(3) 0.80436(19)
H20 H 0.6887 0.1819 0.7901
H21 H 0.6039 0.2384 0.8177
C29 C 0.6363(3) 0.3062(3) 0.59769(19)
H23 H 0.6237 0.2419 0.5945
C31 C 0.6688(3) 0.4947(3) 0.60600(19)
H25 H 0.6784 0.5595 0.6083
C34 C 0.6850(3) 0.6607(3) 0.9115(2)
H28 H 0.6642 0.7078 0.8842
C35 C 0.7035(3) 0.5720(3) 0.89130(18)
C37 C 0.6581(3) 0.4520(3) 0.55184(19)
H30 H 0.6629 0.4872 0.5173
C38 C 0.7244(4) 0.6120(3) 1.0116(2)
H31 H 0.7334 0.6265 1.0522
C40 C 0.6966(3) 0.6804(4) 0.9707(2)
H32 H 0.6855 0.7413 0.9836
C42 C 0.6402(3) 0.3575(3) 0.5477(2)
H34 H 0.6307 0.3286 0.5104
C43 C 0.7389(3) 0.5234(3) 0.99312(19)
H35 H 0.7573 0.4768 1.0213
Fe1_2 Fe -0.30754(4) 0.44815(4) 0.78686(3)
N2_2 N 0.8511(2) 0.4501(3) 0.78019(17)
C1 C 0.3904(3) 0.4512(3) 0.59173(18)
H1 H 0.4462 0.4136 0.5880
C6 C 0.4043(3) 0.5449(3) 0.60299(19)
H6 H 0.4687 0.5697 0.6073
C7 C 0.2188(3) 0.4698(3) 0.5921(2)
H7 H 0.1544 0.4449 0.5895
C13 C 0.3246(4) 0.6021(3) 0.6079(2)
H12 H 0.3339 0.6663 0.6150
C14 C 0.2975(3) 0.4101(3) 0.58566(18)
C19 C 0.1793(3) 0.2731(3) 0.5390(2)
C21 C 0.2103(4) 0.2555(4) 0.6784(2)
H17 H 0.1468 0.2694 0.6597
C23 C 0.3817(4) 0.2427(3) 0.6779(2)
H18 H 0.4392 0.2483 0.6584
C26 C 0.2909(3) 0.2611(3) 0.6461(2)
C28 C 0.3918(4) 0.2169(4) 0.7361(2)
H22 H 0.4551 0.2036 0.7552
C30 C 0.1419(3) 0.3265(3) 0.4912(2)
H24 H 0.1730 0.3833 0.4842
C32 C 0.0598(3) 0.2995(4) 0.4528(2)
H26 H 0.0363 0.3380 0.4209
B1 B 0.2830(4) 0.2988(4) 0.5781(2)
C33 C 0.1305(3) 0.1887(3) 0.5459(2)
H27 H 0.1540 0.1489 0.5772
C36 C 0.2312(4) 0.5644(3) 0.6024(2)
H29 H 0.1757 0.6027 0.6055
C39 C 0.3654(3) 0.2504(3) 0.54080(18)
C41 C 0.4019(3) 0.1618(3) 0.5536(2)
H33 H 0.3816 0.1302 0.5865
C44 C 0.0141(3) 0.2176(4) 0.4617(2)
H36 H -0.0414 0.1989 0.4361
C45 C 0.0494(4) 0.1621(4) 0.5084(3)
H37 H 0.0178 0.1053 0.5148
C46 C 0.3964(3) 0.2901(3) 0.4900(2)
H38 H 0.3735 0.3501 0.4788
C47 C 0.3106(4) 0.2102(4) 0.7667(2)
H39 H 0.3173 0.1925 0.8068
C48 C 0.2209(4) 0.2296(4) 0.7381(2)
H40 H 0.1644 0.2257 0.7586
C49 C 0.4586(3) 0.2459(3) 0.4555(2)
H42 H 0.4766 0.2753 0.4212
C50 C 0.4668(4) 0.1182(3) 0.5199(2)
H43 H 0.4922 0.0592 0.5312
C51 C 0.4947(4) 0.1596(4) 0.4703(2)
H44 H 0.5379 0.1293 0.4469
O4 O -0.0304(3) 0.3508(3) 0.59532(17)
H41 H 0.0071 0.3215 0.5754
C52 C -0.0707(4) 0.4261(4) 0.5628(3)
H46 H -0.1086 0.4641 0.5876
H47 H -0.1139 0.4036 0.5290
H48 H -0.0178 0.4631 0.5492
O5 O 0.6359(3) 0.7065(3) 0.75907(17)
H45 H 0.6487 0.6730 0.7887
C53 C 0.5432(4) 0.6854(4) 0.7323(3)
H49 H 0.5009 0.6671 0.7621
H50 H 0.5478 0.6345 0.7046
H51 H 0.5152 0.7397 0.7112
loop_
_geom_bond_atom_site_label_1
_geom_bond_atom_site_label_2
_geom_bond_site_symmetry_1
_geom_bond_site_symmetry_2
Fe1 N1 1_555 1_555
N1 C3 1_555 1_555
N2 C10 1_555 1_555
O1 Fe1 1_555 1_555
C1 H1 1_555 1_555
C2 H2 1_555 1_555
N3 H3 1_555 1_555
C3 C2 1_555 1_555
H4 C3 1_555 1_555
C4 N3 1_555 1_555
C5 H5 1_555 1_555
C6 C1 1_555 1_555
H6 C6 1_555 1_555
C7 H7 1_555 1_555
N4 Fe1 1_555 1_555
C8 N1 1_555 1_555
H8 C8 1_555 1_555
C9 C2 1_555 1_555
C10 H9 1_555 1_555
C11 N2 1_555 1_555
H10 C11 1_555 1_555
C12 C11 1_555 1_555
H11 C12 1_555 1_555
C13 C6 1_555 1_555
H12 C13 1_555 1_555
C14 C1 1_555 1_555
C15 N3 1_555 1_555
C16 C10 1_555 1_555
H13 C16 1_555 1_555
O2 Fe1 1_555 1_555
C17 N4 1_555 1_555
H14 C17 1_555 1_555
C18 O2 1_555 1_555
O3 C4 1_555 1_555
C19 C30 1_555 1_555
C20 N4 1_555 1_555
H15 C20 1_555 1_555
H16 C20 1_555 1_555
C21 H17 1_555 1_555
C22 C18 1_555 1_555
C23 H18 1_555 1_555
C24 C17 1_555 1_555
C25 C22 1_555 1_555
H19 C25 1_555 1_555
N5 Fe1 1_555 1_555
C26 C21 1_555 1_555
C27 C20 1_555 1_555
H20 C27 1_555 1_555
H21 C27 1_555 1_555
C28 C23 1_555 1_555
H22 C28 1_555 1_555
C29 C22 1_555 1_555
H23 C29 1_555 1_555
C30 H24 1_555 1_555
C31 C18 1_555 1_555
H25 C31 1_555 1_555
C32 C30 1_555 1_555
H26 C32 1_555 1_555
B1 C14 1_555 1_555
C33 C19 1_555 1_555
H27 C33 1_555 1_555
C34 H28 1_555 1_555
C35 O1 1_555 1_555
C36 C7 1_555 1_555
H29 C36 1_555 1_555
C37 C31 1_555 1_555
H30 C37 1_555 1_555
C38 H31 1_555 1_555
C39 B1 1_555 1_555
C40 C34 1_555 1_555
H32 C40 1_555 1_555
C41 C39 1_555 1_555
H33 C41 1_555 1_555
C42 C29 1_555 1_555
H34 C42 1_555 1_555
C43 C24 1_555 1_555
H35 C43 1_555 1_555
C44 C32 1_555 1_555
H36 C44 1_555 1_555
C45 C33 1_555 1_555
H37 C45 1_555 1_555
C46 C39 1_555 1_555
H38 C46 1_555 1_555
C47 C28 1_555 1_555
H39 C47 1_555 1_555
C48 C21 1_555 1_555
H40 C48 1_555 1_555
O4 H41 1_555 1_555
C49 C46 1_555 1_555
H42 C49 1_555 1_555
C50 C41 1_555 1_555
H43 C50 1_555 1_555
C51 C49 1_555 1_555
H44 C51 1_555 1_555
O5 H45 1_555 1_555
C52 O4 1_555 1_555
H46 C52 1_555 1_555
H47 C52 1_555 1_555
H48 C52 1_555 1_555
C53 O5 1_555 1_555
H49 C53 1_555 1_555
H50 C53 1_555 1_555
H51 C53 1_555 1_555
Fe1_2 N2 1_555 1_555
N2_2 Fe1 1_555 1_555
C4 C9 1_555 1_555
C5 C8 1_555 1_555
C5 C9 1_555 1_555
C7 C14 1_555 1_555
C12 C15 1_555 1_555
C13 C36 1_555 1_555
C15 C16 1_555 1_555
C19 B1 1_555 1_555
C23 C26 1_555 1_555
C24 C35 1_555 1_555
C25 N5 1_555 1_555
N5 C27 1_555 1_555
C26 B1 1_555 1_555
C34 C35 1_555 1_555
C37 C42 1_555 1_555
C38 C40 1_555 1_555
C38 C43 1_555 1_555
C44 C45 1_555 1_555
C47 C48 1_555 1_555
C50 C51 1_555 1_555

#END
