
#######################################################################
#
#                 Cambridge Crystallographic Data Centre
#                                CCDC 
#
#######################################################################
#
# If this CIF has been generated from an entry in the Cambridge 
# Structural Database, then it will include bibliographic, chemical, 
# crystal, experimental, refinement or atomic coordinate data resulting 
# from the CCDC's data processing and validation procedures.
#
#######################################################################

data_OHOSEJ
_symmetry_cell_setting           monoclinic
_symmetry_space_group_name_H-M   'P 21/c'
_symmetry_Int_Tables_number      14
_space_group_name_Hall           '-P 2ybc'
loop_
_symmetry_equiv_pos_site_id
_symmetry_equiv_pos_as_xyz
1 x,y,z
2 x,1/2-y,1/2+z
3 -x,-y,-z
4 -x,1/2+y,1/2-z
_cell_length_a                   10.419(2)
_cell_length_b                   16.289(5)
_cell_length_c                   8.937(4)
_cell_angle_alpha                90
_cell_angle_beta                 107.83(3)
_cell_angle_gamma                90
_cell_volume                     1443.89
loop_
_atom_site_label
_atom_site_type_symbol
_atom_site_fract_x
_atom_site_fract_y
_atom_site_fract_z
Cu1 Cu 0.10056(4) 0.16351(3) 0.33355(5)
O1 O 0.0638(3) 0.22759(16) 0.4949(3)
O2 O -0.0505(3) 0.27888(16) 0.6438(3)
O3 O 0.2670(3) 0.22154(16) 0.3503(3)
O4 O 0.1984(3) 0.35366(16) 0.3156(3)
N1 N 0.1645(3) 0.07033(19) 0.2272(3)
N2 N -0.0363(3) 0.07939(18) 0.3448(3)
C1 C 0.2629(4) 0.0703(2) 0.1613(4)
H1 H 0.3159 0.1183 0.1670
C2 C 0.2900(4) 0.0011(2) 0.0836(4)
H2 H 0.3612 0.0021 0.0380
C3 C 0.2131(4) -0.0684(2) 0.0736(4)
H3 H 0.2301 -0.1157 0.0204
C4 C 0.1102(4) -0.0687(2) 0.1421(4)
H4 H 0.0557 -0.1159 0.1371
C5 C 0.0892(4) 0.0019(2) 0.2182(4)
C6 C -0.0190(4) 0.0099(2) 0.2884(4)
H5 H -0.0753 -0.0355 0.2921
C7 C -0.1489(3) 0.0949(2) 0.4000(4)
C8 C -0.2584(4) 0.0421(2) 0.3614(5)
H6 H -0.2572 -0.0052 0.2997
C9 C -0.3698(4) 0.0571(3) 0.4114(5)
H7 H -0.4441 0.0203 0.3838
C10 C -0.3725(4) 0.1256(2) 0.5012(5)
H8 H -0.4486 0.1364 0.5356
C11 C -0.2629(4) 0.1784(2) 0.5407(4)
H9 H -0.2647 0.2250 0.6040
C12 C -0.1501(4) 0.1655(2) 0.4908(4)
C13 C -0.0373(4) 0.2274(2) 0.5462(4)
C14 C 0.2789(4) 0.2982(2) 0.3334(4)
C15 C 0.4247(4) 0.3221(2) 0.3431(6)
F1 F 0.5024(3) 0.3268(2) 0.4933(4)
F2 F 0.4851(3) 0.26836(17) 0.2750(4)
F3 F 0.4330(3) 0.39331(18) 0.2789(5)
O2A O -0.0505(3) 0.22112(16) 0.1438(3)
Cu1A Cu 0.10056(4) 0.33649(3) 0.83355(5)
loop_
_geom_bond_atom_site_label_1
_geom_bond_atom_site_label_2
_geom_bond_site_symmetry_1
_geom_bond_site_symmetry_2
Cu1 O1 1_555 1_555
O1 C13 1_555 1_555
O2 C13 1_555 1_555
O3 Cu1 1_555 1_555
O4 C14 1_555 1_555
N1 Cu1 1_555 1_555
N2 Cu1 1_555 1_555
C1 N1 1_555 1_555
H1 C1 1_555 1_555
C2 C1 1_555 1_555
H2 C2 1_555 1_555
C3 C2 1_555 1_555
H3 C3 1_555 1_555
C4 C3 1_555 1_555
H4 C4 1_555 1_555
C5 N1 1_555 1_555
C6 N2 1_555 1_555
H5 C6 1_555 1_555
C7 N2 1_555 1_555
C8 C7 1_555 1_555
H6 C8 1_555 1_555
C9 C8 1_555 1_555
H7 C9 1_555 1_555
C10 C9 1_555 1_555
H8 C10 1_555 1_555
C11 C10 1_555 1_555
H9 C11 1_555 1_555
C12 C7 1_555 1_555
C13 C12 1_555 1_555
C14 O3 1_555 1_555
C15 C14 1_555 1_555
F1 C15 1_555 1_555
F2 C15 1_555 1_555
F3 C15 1_555 1_555
O2A Cu1 1_555 1_555
Cu1A O2 1_555 1_555
C4 C5 1_555 1_555
C5 C6 1_555 1_555
C11 C12 1_555 1_555

#END
