
#######################################################################
#
#                 Cambridge Crystallographic Data Centre
#                                CCDC 
#
#######################################################################
#
# If this CIF has been generated from an entry in the Cambridge 
# Structural Database, then it will include bibliographic, chemical, 
# crystal, experimental, refinement or atomic coordinate data resulting 
# from the CCDC's data processing and validation procedures.
#
#######################################################################

data_OHOSEK
_symmetry_cell_setting           tetragonal
_symmetry_space_group_name_H-M   'P 4/n c c'
_symmetry_Int_Tables_number      130
_space_group_name_Hall           '-P 4a 2ac'
loop_
_symmetry_equiv_pos_site_id
_symmetry_equiv_pos_as_xyz
1 x,y,z
2 1/2-y,x,z
3 1/2-x,1/2-y,z
4 y,1/2-x,z
5 1/2+x,-y,1/2-z
6 -x,1/2+y,1/2-z
7 1/2+y,1/2+x,1/2-z
8 -y,-x,1/2-z
9 -x,-y,-z
10 1/2+y,-x,-z
11 1/2+x,1/2+y,-z
12 -y,1/2+x,-z
13 1/2-x,y,1/2+z
14 x,1/2-y,1/2+z
15 1/2-y,1/2-x,1/2+z
16 y,x,1/2+z
_cell_length_a                   14.6829(10)
_cell_length_b                   14.6829(10)
_cell_length_c                   17.920(3)
_cell_angle_alpha                90
_cell_angle_beta                 90
_cell_angle_gamma                90
_cell_volume                     3863.33
loop_
_atom_site_label
_atom_site_type_symbol
_atom_site_fract_x
_atom_site_fract_y
_atom_site_fract_z
Fe1 Fe 1.2500 0.7500 1.2500
S1 S 1.0153(3) 0.9847(3) 1.2500
C1 C 1.0940(8) 0.9060(8) 1.2500
N1 N 1.1481(6) 0.8519(6) 1.2500
N2 N 1.1784(6) 0.6731(6) 1.1618(4)
C2 C 1.1355(9) 0.7127(9) 1.1046(7)
H1 H 1.1328 0.7774 1.1037
C3 C 1.0953(9) 0.6663(9) 1.0474(7)
H2 H 1.0686 0.6994 1.0074
C4 C 1.0927(8) 0.5754(9) 1.0465(6)
C5 C 1.1432(9) 0.5307(9) 1.1024(7)
H3 H 1.1491 0.4663 1.1020
C6 C 1.1837(9) 0.5817(9) 1.1577(7)
H4 H 1.2173 0.5506 1.1951
C7 C 1.0438(9) 0.5205(9) 0.9861(6)
O1 O 1.0277(8) 0.5822(7) 0.9269(5)
H5 H 1.0155 0.5530 0.8878
C8 C 1.1047(10) 0.4460(12) 0.9547(8)
H6 H 1.0720 0.4130 0.9154
H7 H 1.1600 0.4733 0.9338
H8 H 1.1213 0.4036 0.9947
Fe1H Fe 0.7500 0.2500 0.7500
Fe1H_2 Fe 1.7500 1.2500 0.7500
S1B S 1.4847(3) 0.5153(3) 1.2500
C1B C 1.4060(8) 0.5940(8) 1.2500
N1B N 1.3519(6) 0.6481(6) 1.2500
N2H N 0.8216(6) 0.3269(6) 0.8382(4)
N2B N 1.3216(6) 0.8269(6) 1.1618(4)
N2J N 1.6784(6) 1.1731(6) 0.8382(4)
N2F N 1.1731(6) 0.6784(6) 1.3382(4)
N2G N 1.3269(6) 0.8216(6) 1.3382(4)
C2H C 0.8645(9) 0.2873(9) 0.8954(7)
C2B C 1.3645(9) 0.7873(9) 1.1046(7)
C2J C 1.6355(9) 1.2127(9) 0.8954(7)
H1H H 0.8672 0.2226 0.8963
H1B H 1.3672 0.7226 1.1037
H1J H 1.6328 1.2774 0.8963
C3H C 0.9047(9) 0.3337(9) 0.9526(7)
C3B C 1.4047(9) 0.8337(9) 1.0474(7)
C3J C 1.5953(9) 1.1663(9) 0.9526(7)
H2H H 0.9314 0.3006 0.9926
H2B H 1.4314 0.8006 1.0074
H2J H 1.5686 1.1994 0.9926
C4H C 0.9073(8) 0.4246(9) 0.9535(6)
C4B C 1.4073(8) 0.9246(9) 1.0465(6)
C4J C 1.5927(8) 1.0754(9) 0.9535(6)
C5H C 0.8568(9) 0.4693(9) 0.8976(7)
C5B C 1.3568(9) 0.9693(9) 1.1024(7)
C5J C 1.6432(9) 1.0307(9) 0.8976(7)
H3H H 0.8509 0.5337 0.8980
H3B H 1.3509 1.0337 1.1020
H3J H 1.6491 0.9663 0.8980
C6H C 0.8163(9) 0.4183(9) 0.8423(7)
C6B C 1.3163(9) 0.9183(9) 1.1577(7)
C6J C 1.6837(9) 1.0817(9) 0.8423(7)
H4H H 0.7827 0.4494 0.8049
H4B H 1.2827 0.9494 1.1951
H4J H 1.7173 1.0506 0.8049
C7H C 0.9562(9) 0.4795(9) 1.0139(6)
C7B C 1.4562(9) 0.9795(9) 0.9861(6)
C7J C 1.5438(9) 1.0205(9) 1.0139(6)
O1H O 0.9723(8) 0.4178(7) 1.0731(5)
O1B O 1.4723(8) 0.9178(7) 0.9269(5)
O1J O 1.5277(8) 1.0822(7) 1.0731(5)
H5H H 0.9845 0.4470 1.1122
H5B H 1.4845 0.9470 0.8878
H5J H 1.5155 1.0530 1.1122
C8H C 0.8953(10) 0.5540(12) 1.0453(8)
C8B C 1.3953(10) 1.0540(12) 0.9547(8)
C8J C 1.6047(10) 0.9460(12) 1.0453(8)
H6H H 0.9280 0.5870 1.0846
H6B H 1.4280 1.0870 0.9154
H6J H 1.5720 0.9130 1.0846
H7H H 0.8400 0.5267 1.0662
H7B H 1.3400 1.0267 0.9338
H7J H 1.6600 0.9733 1.0662
H8H H 0.8787 0.5964 1.0053
H8B H 1.3787 1.0964 0.9947
H8J H 1.6213 0.9036 1.0053
C10 C 0.2500 0.2500 0.664(6)
C11 C 0.2500 0.2500 0.742(6)
N4 N 0.2500 0.2500 0.603(6)
C9? C 0.2500 0.2500 0.861(8)
N3? N 0.381(10) 0.255(17) 0.772(9)
C12? C 0.334(16) 0.24(3) 0.821(12)
loop_
_geom_bond_atom_site_label_1
_geom_bond_atom_site_label_2
_geom_bond_site_symmetry_1
_geom_bond_site_symmetry_2
Fe1 N1 1_555 1_555
S1 C1 1_555 1_555
C1 N1 1_555 1_555
N2 Fe1 1_555 1_555
C2 N2 1_555 1_555
H1 C2 1_555 1_555
C3 C2 1_555 1_555
H2 C3 1_555 1_555
C4 C3 1_555 1_555
C5 C4 1_555 1_555
H3 C5 1_555 1_555
C6 N2 1_555 1_555
H4 C6 1_555 1_555
C7 C4 1_555 1_555
O1 C7 1_555 1_555
H5 O1 1_555 1_555
C8 C7 1_555 1_555
H6 C8 1_555 1_555
H7 C8 1_555 1_555
H8 C8 1_555 1_555
C10 C11 1_555 1_555
N4 C10 1_555 1_555
Fe1H N2H 1_555 1_555
Fe1H_2 N2J 1_555 1_555
S1B C1B 1_555 1_555
C1B N1B 1_555 1_555
N1B Fe1 1_555 1_555
N2H C2H 1_555 1_555
N2B Fe1 1_555 1_555
N2J C2J 1_555 1_555
N2F Fe1 1_555 1_555
N2G Fe1 1_555 1_555
C2H H1H 1_555 1_555
C2B N2B 1_555 1_555
C2J H1J 1_555 1_555
H1B C2B 1_555 1_555
C3H C2H 1_555 1_555
C3B C2B 1_555 1_555
C3J C2J 1_555 1_555
H2H C3H 1_555 1_555
H2B C3B 1_555 1_555
H2J C3J 1_555 1_555
C4H C3H 1_555 1_555
C4B C3B 1_555 1_555
C4J C3J 1_555 1_555
C5H C4H 1_555 1_555
C5B C4B 1_555 1_555
C5J C4J 1_555 1_555
H3H C5H 1_555 1_555
H3B C5B 1_555 1_555
H3J C5J 1_555 1_555
C6H N2H 1_555 1_555
C6B N2B 1_555 1_555
C6J N2J 1_555 1_555
H4H C6H 1_555 1_555
H4B C6B 1_555 1_555
H4J C6J 1_555 1_555
C7H C7 1_555 1_555
C7B C4B 1_555 1_555
C7J C4J 1_555 1_555
O1H C7H 1_555 1_555
O1B C7B 1_555 1_555
O1J C7J 1_555 1_555
H5H O1H 1_555 1_555
H5B O1B 1_555 1_555
H5J O1J 1_555 1_555
C8H C7H 1_555 1_555
C8B C7B 1_555 1_555
C8J C7J 1_555 1_555
H6H C8H 1_555 1_555
H6B C8B 1_555 1_555
H6J C8J 1_555 1_555
H7H C8H 1_555 1_555
H7B C8B 1_555 1_555
H7J C8J 1_555 1_555
H8H C8H 1_555 1_555
H8B C8B 1_555 1_555
H8J C8J 1_555 1_555
C5 C6 1_555 1_555
C4H C7H 1_555 1_555
C5H C6H 1_555 1_555
C5B C6B 1_555 1_555
C5J C6J 1_555 1_555
C7B C7J 1_555 1_555

#END
