
#######################################################################
#
#                 Cambridge Crystallographic Data Centre
#                                CCDC 
#
#######################################################################
#
# If this CIF has been generated from an entry in the Cambridge 
# Structural Database, then it will include bibliographic, chemical, 
# crystal, experimental, refinement or atomic coordinate data resulting 
# from the CCDC's data processing and validation procedures.
#
#######################################################################

data_OHOSUA
_symmetry_cell_setting           tetragonal
_symmetry_space_group_name_H-M   'P 4/n c c'
_symmetry_Int_Tables_number      130
_space_group_name_Hall           '-P 4a 2ac'
loop_
_symmetry_equiv_pos_site_id
_symmetry_equiv_pos_as_xyz
1 x,y,z
2 1/2-y,x,z
3 1/2-x,1/2-y,z
4 y,1/2-x,z
5 1/2+x,-y,1/2-z
6 -x,1/2+y,1/2-z
7 1/2+y,1/2+x,1/2-z
8 -y,-x,1/2-z
9 -x,-y,-z
10 1/2+y,-x,-z
11 1/2+x,1/2+y,-z
12 -y,1/2+x,-z
13 1/2-x,y,1/2+z
14 x,1/2-y,1/2+z
15 1/2-y,1/2-x,1/2+z
16 y,x,1/2+z
_cell_length_a                   14.675(3)
_cell_length_b                   14.675(3)
_cell_length_c                   17.984(7)
_cell_angle_alpha                90
_cell_angle_beta                 90
_cell_angle_gamma                90
_cell_volume                     3872.96
loop_
_atom_site_label
_atom_site_type_symbol
_atom_site_fract_x
_atom_site_fract_y
_atom_site_fract_z
Fe1 Fe 1.2500 0.7500 1.2500
S1 S 1.01381(18) 0.98619(18) 1.2500
C1 C 1.0932(5) 0.9068(5) 1.2500
N1 N 1.1482(4) 0.8518(4) 1.2500
N2 N 1.1797(3) 0.6725(3) 1.1607(2)
C2 C 1.1372(5) 0.7136(5) 1.1040(3)
H1 H 1.1357 0.7783 1.1030
C3 C 1.0950(5) 0.6658(5) 1.0462(3)
H2 H 1.0665 0.6983 1.0069
C4 C 1.0943(4) 0.5723(5) 1.0459(3)
C5 C 1.1426(5) 0.5275(5) 1.1033(3)
H3 H 1.1480 0.4630 1.1041
C6 C 1.1819(5) 0.5812(5) 1.1587(4)
H4 H 1.2126 0.5507 1.1980
C7 C 1.0474(5) 0.5181(5) 0.9844(3)
O1 O 1.0297(4) 0.5820(4) 0.9263(2)
H5 H 1.0173 0.5538 0.8869
C8 C 1.1060(5) 0.4407(6) 0.9568(4)
H6 H 1.0736 0.4076 0.9175
H7 H 1.1632 0.4651 0.9369
H8 H 1.1193 0.3991 0.9980
Fe1H Fe 0.7500 0.2500 0.7500
Fe1H_2 Fe 1.7500 1.2500 0.7500
S1B S 1.48619(18) 0.51381(18) 1.2500
C1B C 1.4068(5) 0.5932(5) 1.2500
N1B N 1.3518(4) 0.6482(4) 1.2500
N2H N 0.8203(3) 0.3275(3) 0.8393(2)
N2B N 1.3203(3) 0.8275(3) 1.1607(2)
N2J N 1.6797(3) 1.1725(3) 0.8393(2)
N2F N 1.1725(3) 0.6797(3) 1.3393(2)
N2G N 1.3275(3) 0.8203(3) 1.3393(2)
C2H C 0.8628(5) 0.2864(5) 0.8960(3)
C2B C 1.3628(5) 0.7864(5) 1.1040(3)
C2J C 1.6372(5) 1.2136(5) 0.8960(3)
H1H H 0.8643 0.2217 0.8970
H1B H 1.3643 0.7217 1.1030
H1J H 1.6357 1.2783 0.8970
C3H C 0.9050(5) 0.3342(5) 0.9538(3)
C3B C 1.4050(5) 0.8342(5) 1.0462(3)
C3J C 1.5950(5) 1.1658(5) 0.9538(3)
H2H H 0.9335 0.3017 0.9931
H2B H 1.4335 0.8017 1.0069
H2J H 1.5665 1.1983 0.9931
C4H C 0.9057(4) 0.4277(5) 0.9541(3)
C4B C 1.4057(4) 0.9277(5) 1.0459(3)
C4J C 1.5943(4) 1.0723(5) 0.9541(3)
C5H C 0.8574(5) 0.4725(5) 0.8967(3)
C5B C 1.3574(5) 0.9725(5) 1.1033(3)
C5J C 1.6426(5) 1.0275(5) 0.8967(3)
H3H H 0.8520 0.5370 0.8959
H3B H 1.3520 1.0370 1.1041
H3J H 1.6480 0.9630 0.8959
C6H C 0.8181(5) 0.4188(5) 0.8413(4)
C6B C 1.3181(5) 0.9188(5) 1.1587(4)
C6J C 1.6819(5) 1.0812(5) 0.8413(4)
H4H H 0.7874 0.4493 0.8020
H4B H 1.2874 0.9493 1.1980
H4J H 1.7126 1.0507 0.8020
C7H C 0.9526(5) 0.4819(5) 1.0156(3)
C7B C 1.4526(5) 0.9819(5) 0.9844(3)
C7J C 1.5474(5) 1.0181(5) 1.0156(3)
O1H O 0.9703(4) 0.4180(4) 1.0737(2)
O1B O 1.4703(4) 0.9180(4) 0.9263(2)
O1J O 1.5297(4) 1.0820(4) 1.0737(2)
H5H H 0.9827 0.4462 1.1131
H5B H 1.4827 0.9462 0.8869
H5J H 1.5173 1.0538 1.1131
C8H C 0.8940(5) 0.5593(6) 1.0432(4)
C8B C 1.3940(5) 1.0593(6) 0.9568(4)
C8J C 1.6060(5) 0.9407(6) 1.0432(4)
H6H H 0.9264 0.5924 1.0825
H6B H 1.4264 1.0924 0.9175
H6J H 1.5736 0.9076 1.0825
H7H H 0.8368 0.5349 1.0631
H7B H 1.3368 1.0349 0.9369
H7J H 1.6632 0.9651 1.0631
H8H H 0.8807 0.6009 1.0020
H8B H 1.3807 1.1009 0.9980
H8J H 1.6193 0.8991 1.0020
C10 C 0.380(6) 0.230(7) 0.789(4)
O3 O 0.352(5) 0.299(6) 0.740(3)
C9? C 0.2500 0.2500 0.567(3)
O2? O 0.322(3) 0.273(4) 0.612(2)
S2? S 0.4810(15) 0.4438(15) 0.7546(17)
loop_
_geom_bond_atom_site_label_1
_geom_bond_atom_site_label_2
_geom_bond_site_symmetry_1
_geom_bond_site_symmetry_2
Fe1 N1 1_555 1_555
S1 C1 1_555 1_555
C1 N1 1_555 1_555
N2 Fe1 1_555 1_555
C2 N2 1_555 1_555
H1 C2 1_555 1_555
C3 C2 1_555 1_555
H2 C3 1_555 1_555
C4 C3 1_555 1_555
C5 C4 1_555 1_555
H3 C5 1_555 1_555
C6 N2 1_555 1_555
H4 C6 1_555 1_555
C7 C4 1_555 1_555
O1 C7 1_555 1_555
H5 O1 1_555 1_555
C8 C7 1_555 1_555
H6 C8 1_555 1_555
H7 C8 1_555 1_555
H8 C8 1_555 1_555
C10 O3 1_555 1_555
Fe1H N2H 1_555 1_555
Fe1H_2 N2J 1_555 1_555
S1B C1B 1_555 1_555
C1B N1B 1_555 1_555
N1B Fe1 1_555 1_555
N2H C2H 1_555 1_555
N2B Fe1 1_555 1_555
N2J C2J 1_555 1_555
N2F Fe1 1_555 1_555
N2G Fe1 1_555 1_555
C2H H1H 1_555 1_555
C2B N2B 1_555 1_555
C2J H1J 1_555 1_555
H1B C2B 1_555 1_555
C3H C2H 1_555 1_555
C3B C2B 1_555 1_555
C3J C2J 1_555 1_555
H2H C3H 1_555 1_555
H2B C3B 1_555 1_555
H2J C3J 1_555 1_555
C4H C3H 1_555 1_555
C4B C3B 1_555 1_555
C4J C3J 1_555 1_555
C5H C4H 1_555 1_555
C5B C4B 1_555 1_555
C5J C4J 1_555 1_555
H3H C5H 1_555 1_555
H3B C5B 1_555 1_555
H3J C5J 1_555 1_555
C6H N2H 1_555 1_555
C6B N2B 1_555 1_555
C6J N2J 1_555 1_555
H4H C6H 1_555 1_555
H4B C6B 1_555 1_555
H4J C6J 1_555 1_555
C7H C7 1_555 1_555
C7B C4B 1_555 1_555
C7J C4J 1_555 1_555
O1H C7H 1_555 1_555
O1B C7B 1_555 1_555
O1J C7J 1_555 1_555
H5H O1H 1_555 1_555
H5B O1B 1_555 1_555
H5J O1J 1_555 1_555
C8H C7H 1_555 1_555
C8B C7B 1_555 1_555
C8J C7J 1_555 1_555
H6H C8H 1_555 1_555
H6B C8B 1_555 1_555
H6J C8J 1_555 1_555
H7H C8H 1_555 1_555
H7B C8B 1_555 1_555
H7J C8J 1_555 1_555
H8H C8H 1_555 1_555
H8B C8B 1_555 1_555
H8J C8J 1_555 1_555
C5 C6 1_555 1_555
C4H C7H 1_555 1_555
C5H C6H 1_555 1_555
C5B C6B 1_555 1_555
C5J C6J 1_555 1_555
C7B C7J 1_555 1_555

#END
