
#######################################################################
#
#                 Cambridge Crystallographic Data Centre
#                                CCDC 
#
#######################################################################
#
# If this CIF has been generated from an entry in the Cambridge 
# Structural Database, then it will include bibliographic, chemical, 
# crystal, experimental, refinement or atomic coordinate data resulting 
# from the CCDC's data processing and validation procedures.
#
#######################################################################

data_OHOSOU01
_symmetry_cell_setting           orthorhombic
_symmetry_space_group_name_H-M   'P c c n'
_symmetry_Int_Tables_number      56
_space_group_name_Hall           '-P 2ab 2ac'
loop_
_symmetry_equiv_pos_site_id
_symmetry_equiv_pos_as_xyz
1 x,y,z
2 1/2-x,1/2-y,z
3 1/2+x,-y,1/2-z
4 -x,1/2+y,1/2-z
5 -x,-y,-z
6 1/2+x,1/2+y,-z
7 1/2-x,y,1/2+z
8 x,1/2-y,1/2+z
_cell_length_a                   14.4934(6)
_cell_length_b                   14.5117(5)
_cell_length_c                   17.8874(6)
_cell_angle_alpha                90
_cell_angle_beta                 90
_cell_angle_gamma                90
_cell_volume                     3762.15
loop_
_atom_site_label
_atom_site_type_symbol
_atom_site_fract_x
_atom_site_fract_y
_atom_site_fract_z
Fe1 Fe 1.2500 -0.2500 0.74871(13)
S1 S 1.0241(5) -0.4898(4) 0.7499(4)
O1 O 1.0748(6) -0.0427(5) 0.4243(5)
H1 H 1.0444 -0.0452 0.3844
N1 N 1.1494(7) -0.3460(6) 0.7463(5)
C1 C 1.0891(10) -0.3938(9) 0.7500(8)
O2 O 1.0230(6) -0.0875(6) 1.0740(5)
H2 H 1.0160 -0.0601 1.1150
N2 N 1.1707(8) -0.1843(8) 0.6624(5)
C2 C 1.2180(9) -0.1343(8) 0.6030(7)
H3 H 1.2833 -0.1291 0.6031
N3 N 1.1771(6) -0.1754(6) 0.8362(3)
C3 C 1.1684(8) -0.0961(7) 0.5487(6)
H4 H 1.1992 -0.0653 0.5090
C4 C 1.0676(8) -0.1002(7) 0.5485(6)
C5 C 1.0275(9) -0.1386(8) 0.6107(6)
H5 H 0.9624 -0.1397 0.6167
C6 C 1.0855(10) -0.1757(9) 0.6644(8)
H6 H 1.0563 -0.1975 0.7085
C7 C 1.0138(9) -0.0516(8) 0.4864(7)
C8 C 0.9323(8) -0.1108(8) 0.4620(7)
H7 H 0.9536 -0.1737 0.4519
H8 H 0.8860 -0.1121 0.5020
H9 H 0.9048 -0.0847 0.4167
C9 C 1.1861(7) -0.0806(7) 0.8415(6)
H10 H 1.2217 -0.0486 0.8052
C10 C 1.1446(9) -0.0318(9) 0.8982(7)
H11 H 1.1520 0.0332 0.9002
C11 C 1.0917(8) -0.0758(7) 0.9530(6)
C12 C 1.0978(12) -0.1657(11) 0.9517(9)
H12 H 1.0729 -0.2002 0.9920
C13 C 1.1407(8) -0.2130(8) 0.8917(6)
H13 H 1.1419 -0.2784 0.8939
C14 C 1.0450(8) -0.0202(7) 1.0155(6)
C15 C 1.1036(11) 0.0508(10) 1.0423(8)
H14 H 1.0760 0.0791 1.0867
H15 H 1.1639 0.0246 1.0553
H16 H 1.1115 0.0976 1.0034
Fe1D Fe 0.7500 0.2500 0.25129(13)
Fe1D_2 Fe 0.7500 0.2500 1.25129(13)
S1A S 1.4759(5) -0.0102(4) 0.7499(4)
O1D O 0.9252(6) 0.0427(5) 0.5757(5)
H1D H 0.9556 0.0452 0.6156
N1A N 1.3506(7) -0.1540(6) 0.7463(5)
C1A C 1.4109(10) -0.1062(9) 0.7500(8)
O2D O 0.9770(6) 0.0875(6) 0.9260(5)
H2D H 0.9840 0.0601 0.8850
N2D N 0.8293(8) 0.1843(8) 0.3376(5)
N2A N 1.3293(8) -0.3157(8) 0.6624(5)
C2D C 0.7820(9) 0.1343(8) 0.3970(7)
H3D H 0.7167 0.1291 0.3969
N3D N 0.8229(6) 0.1754(6) 1.1638(3)
N3A N 1.3229(6) -0.3246(6) 0.8362(3)
C3D C 0.8316(8) 0.0961(7) 0.4513(6)
H4D H 0.8008 0.0653 0.4910
C4D C 0.9324(8) 0.1002(7) 0.4515(6)
C5D C 0.9725(9) 0.1386(8) 0.3893(6)
H5D H 1.0376 0.1397 0.3833
C6D C 0.9145(10) 0.1757(9) 0.3356(8)
H6D H 0.9437 0.1975 0.2915
C7D C 0.9862(9) 0.0516(8) 0.5136(7)
C8D C 1.0677(8) 0.1108(8) 0.5380(7)
H7D H 1.0464 0.1737 0.5481
H8D H 1.1140 0.1121 0.4980
H9D H 1.0952 0.0847 0.5833
C9D C 0.8139(7) 0.0806(7) 1.1585(6)
H10D H 0.7783 0.0486 1.1948
C10D C 0.8554(9) 0.0318(9) 1.1018(7)
H11D H 0.8480 -0.0332 1.0998
C11D C 0.9083(8) 0.0758(7) 1.0470(6)
C12D C 0.9022(12) 0.1657(11) 1.0483(9)
H12D H 0.9271 0.2002 1.0080
C13D C 0.8593(8) 0.2130(8) 1.1083(6)
H13D H 0.8581 0.2784 1.1061
C14D C 0.9550(8) 0.0202(7) 0.9845(6)
C15D C 0.8964(11) -0.0508(10) 0.9577(8)
H14D H 0.9240 -0.0791 0.9133
H15D H 0.8361 -0.0246 0.9447
H16D H 0.8885 -0.0976 0.9966
O4 O 0.871(4) -0.171(4) 0.253(2)
C18 C 0.879(7) -0.267(4) 0.259(4)
C19 C 0.838(8) -0.315(5) 0.325(5)
O3? O 0.721(8) -0.170(4) 0.122(3)
C16? C 0.7500 -0.2500 0.085(4)
C17? C 0.7500 -0.2500 0.001(4)
S2? S 0.4841(6) 0.0492(6) 0.2479(4)
S3? S 0.5940(16) -0.0415(15) 0.2760(13)
loop_
_geom_bond_atom_site_label_1
_geom_bond_atom_site_label_2
_geom_bond_site_symmetry_1
_geom_bond_site_symmetry_2
Fe1 N1 1_555 1_555
S1 C1 1_555 1_555
O1 H1 1_555 1_555
N1 C1 1_555 1_555
O2 H2 1_555 1_555
N2 Fe1 1_555 1_555
C2 N2 1_555 1_555
H3 C2 1_555 1_555
N3 Fe1 1_555 1_555
C3 C2 1_555 1_555
H4 C3 1_555 1_555
C4 C3 1_555 1_555
C5 C4 1_555 1_555
H5 C5 1_555 1_555
C6 N2 1_555 1_555
H6 C6 1_555 1_555
C7 O1 1_555 1_555
C8 C7 1_555 1_555
H7 C8 1_555 1_555
H8 C8 1_555 1_555
H9 C8 1_555 1_555
C9 N3 1_555 1_555
H10 C9 1_555 1_555
C10 C9 1_555 1_555
H11 C10 1_555 1_555
C11 C10 1_555 1_555
C12 C11 1_555 1_555
H12 C12 1_555 1_555
C13 N3 1_555 1_555
H13 C13 1_555 1_555
C14 O2 1_555 1_555
C15 C14 1_555 1_555
H14 C15 1_555 1_555
H15 C15 1_555 1_555
H16 C15 1_555 1_555
O4 C18 1_555 1_555
C18 C19 1_555 1_555
Fe1D N2D 1_555 1_555
Fe1D_2 N3D 1_555 1_555
S1A C1A 1_555 1_555
O1D H1D 1_555 1_555
N1A Fe1 1_555 1_555
C1A N1A 1_555 1_555
O2D H2D 1_555 1_555
N2D C2D 1_555 1_555
N2A Fe1 1_555 1_555
C2D H3D 1_555 1_555
N3D C9D 1_555 1_555
N3A Fe1 1_555 1_555
C3D C2D 1_555 1_555
H4D C3D 1_555 1_555
C4D C3D 1_555 1_555
C5D C4D 1_555 1_555
H5D C5D 1_555 1_555
C6D N2D 1_555 1_555
H6D C6D 1_555 1_555
C7D C7 1_555 1_555
C8D C7D 1_555 1_555
H7D C8D 1_555 1_555
H8D C8D 1_555 1_555
H9D C8D 1_555 1_555
C9D H10D 1_555 1_555
C10D C9D 1_555 1_555
H11D C10D 1_555 1_555
C11D C10D 1_555 1_555
C12D C11D 1_555 1_555
H12D C12D 1_555 1_555
C13D N3D 1_555 1_555
H13D C13D 1_555 1_555
C14D C14 1_555 1_555
C15D C14D 1_555 1_555
H14D C15D 1_555 1_555
H15D C15D 1_555 1_555
H16D C15D 1_555 1_555
C4 C7 1_555 1_555
C5 C6 1_555 1_555
C11 C14 1_555 1_555
C12 C13 1_555 1_555
O1D C7D 1_555 1_555
O2D C14D 1_555 1_555
C4D C7D 1_555 1_555
C5D C6D 1_555 1_555
C11D C14D 1_555 1_555
C12D C13D 1_555 1_555

#END
