
#######################################################################
#
#                 Cambridge Crystallographic Data Centre
#                                CCDC 
#
#######################################################################
#
# If this CIF has been generated from an entry in the Cambridge 
# Structural Database, then it will include bibliographic, chemical, 
# crystal, experimental, refinement or atomic coordinate data resulting 
# from the CCDC's data processing and validation procedures.
#
#######################################################################

data_OHOTIO
_symmetry_cell_setting           orthorhombic
_symmetry_space_group_name_H-M   'P b c a'
_symmetry_Int_Tables_number      61
_space_group_name_Hall           '-P 2ac 2ab'
loop_
_symmetry_equiv_pos_site_id
_symmetry_equiv_pos_as_xyz
1 x,y,z
2 1/2+x,y,1/2-z
3 x,1/2-y,1/2+z
4 1/2-x,1/2+y,z
5 -x,-y,-z
6 1/2-x,-y,1/2+z
7 -x,1/2+y,1/2-z
8 1/2+x,1/2-y,-z
_cell_length_a                   17.076(3)
_cell_length_b                   18.007(3)
_cell_length_c                   15.895(3)
_cell_angle_alpha                90
_cell_angle_beta                 90
_cell_angle_gamma                90
_cell_volume                     4887.51
loop_
_atom_site_label
_atom_site_type_symbol
_atom_site_fract_x
_atom_site_fract_y
_atom_site_fract_z
Fe1 Fe 0.36964(4) 0.50040(4) 0.25488(5)
Cu1 Cu 0.49720(4) 0.68151(4) 0.44133(4)
Cu2 Cu 0.23726(4) 0.34015(4) 0.45016(4)
N1 N 0.4623(3) 0.5936(3) 0.3803(3)
C1 C 0.4282(3) 0.5555(3) 0.3344(4)
N2 N 0.2650(3) 0.4292(2) 0.3878(3)
C2 C 0.3047(3) 0.4587(3) 0.3392(4)
N3 N 0.3384(3) 0.3078(3) 0.4942(3)
C3 C 0.3997(3) 0.3063(3) 0.5204(4)
N4 N 0.0931(3) 0.2444(3) 0.4506(4)
C4 C 0.1466(3) 0.2832(3) 0.4525(4)
N5 N 0.4474(2) 0.4200(2) 0.2639(3)
C5 C 0.4449(3) 0.3623(3) 0.3154(4)
H1 H 0.3989 0.3550 0.3480
C6 C 0.5054(4) 0.3124(3) 0.3245(4)
H2 H 0.5012 0.2721 0.3628
C7 C 0.5724(4) 0.3219(3) 0.2768(4)
H3 H 0.6149 0.2881 0.2814
C8 C 0.5761(4) 0.3810(3) 0.2230(4)
H4 H 0.6217 0.3887 0.1899
C9 C 0.5139(3) 0.4296(3) 0.2167(3)
C10 C 0.5120(3) 0.4942(3) 0.1617(3)
C11 C 0.5724(4) 0.5141(4) 0.1086(4)
H5 H 0.6189 0.4853 0.1062
C12 C 0.5644(4) 0.5762(4) 0.0595(4)
H6 H 0.6059 0.5913 0.0235
C13 C 0.4961(4) 0.6164(4) 0.0625(4)
H7 H 0.4890 0.6591 0.0283
C14 C 0.4380(3) 0.5928(3) 0.1166(4)
H8 H 0.3905 0.6203 0.1183
N6 N 0.4445(2) 0.5340(2) 0.1662(3)
N7 N 0.2912(3) 0.5805(2) 0.2418(3)
C15 C 0.2881(3) 0.6443(3) 0.2860(4)
H9 H 0.3318 0.6576 0.3197
C16 C 0.2245(4) 0.6909(3) 0.2844(4)
H10 H 0.2247 0.7360 0.3154
C17 C 0.1598(4) 0.6708(3) 0.2367(5)
H11 H 0.1141 0.7008 0.2365
C18 C 0.1631(3) 0.6071(3) 0.1900(4)
H12 H 0.1200 0.5933 0.1556
C19 C 0.2281(3) 0.5635(3) 0.1930(3)
C20 C 0.2368(3) 0.4933(3) 0.1476(3)
C21 C 0.1859(4) 0.4691(4) 0.0858(4)
H13 H 0.1429 0.4994 0.0695
C22 C 0.1972(4) 0.4020(4) 0.0482(4)
H14 H 0.1622 0.3851 0.0059
C23 C 0.2604(4) 0.3588(3) 0.0721(4)
H15 H 0.2688 0.3112 0.0480
C24 C 0.3110(3) 0.3870(3) 0.1322(4)
H16 H 0.3551 0.3579 0.1480
N8 N 0.3009(3) 0.4530(2) 0.1689(3)
Cu1D Cu 0.50280(4) 0.31849(4) 0.55867(4)
C3D C 0.6003(3) 0.6937(3) 0.4796(4)
N4C N 0.4069(3) 0.7444(3) 0.4506(4)
Cu1C Cu 0.00280(4) 0.18151(4) 0.44133(4)
loop_
_geom_bond_atom_site_label_1
_geom_bond_atom_site_label_2
_geom_bond_site_symmetry_1
_geom_bond_site_symmetry_2
Fe1 C1 1_555 1_555
Cu1 N1 1_555 1_555
Cu2 N2 1_555 1_555
N1 C1 1_555 1_555
N2 C2 1_555 1_555
C2 Fe1 1_555 1_555
N3 Cu2 1_555 1_555
C3 N3 1_555 1_555
N4 C4 1_555 1_555
C4 Cu2 1_555 1_555
N5 Fe1 1_555 1_555
C5 N5 1_555 1_555
H1 C5 1_555 1_555
C6 C5 1_555 1_555
H2 C6 1_555 1_555
C7 C6 1_555 1_555
H3 C7 1_555 1_555
C8 C7 1_555 1_555
H4 C8 1_555 1_555
C9 N5 1_555 1_555
C10 C9 1_555 1_555
C11 C10 1_555 1_555
H5 C11 1_555 1_555
C12 C11 1_555 1_555
H6 C12 1_555 1_555
C13 C12 1_555 1_555
H7 C13 1_555 1_555
C14 C13 1_555 1_555
H8 C14 1_555 1_555
N6 Fe1 1_555 1_555
N7 Fe1 1_555 1_555
C15 N7 1_555 1_555
H9 C15 1_555 1_555
C16 C15 1_555 1_555
H10 C16 1_555 1_555
C17 C16 1_555 1_555
H11 C17 1_555 1_555
C18 C17 1_555 1_555
H12 C18 1_555 1_555
C19 N7 1_555 1_555
C20 C19 1_555 1_555
C21 C20 1_555 1_555
H13 C21 1_555 1_555
C22 C21 1_555 1_555
H14 C22 1_555 1_555
C23 C22 1_555 1_555
H15 C23 1_555 1_555
C24 C23 1_555 1_555
H16 C24 1_555 1_555
N8 Fe1 1_555 1_555
Cu1D C3 1_555 1_555
C3D Cu1 1_555 1_555
N4C Cu1 1_555 1_555
Cu1C N4 1_555 1_555
C8 C9 1_555 1_555
C10 N6 1_555 1_555
C14 N6 1_555 1_555
C18 C19 1_555 1_555
C20 N8 1_555 1_555
C24 N8 1_555 1_555

#END
