
#######################################################################
#
#                 Cambridge Crystallographic Data Centre
#                                CCDC 
#
#######################################################################
#
# If this CIF has been generated from an entry in the Cambridge 
# Structural Database, then it will include bibliographic, chemical, 
# crystal, experimental, refinement or atomic coordinate data resulting 
# from the CCDC's data processing and validation procedures.
#
#######################################################################

data_OHOXOA
_symmetry_cell_setting           monoclinic
_symmetry_space_group_name_H-M   'C 2/c'
_symmetry_Int_Tables_number      15
_space_group_name_Hall           '-C 2yn'
loop_
_symmetry_equiv_pos_site_id
_symmetry_equiv_pos_as_xyz
1 x,y,z
2 -x,y,1/2-z
3 1/2+x,1/2+y,z
4 1/2-x,1/2+y,1/2-z
5 -x,-y,-z
6 x,-y,1/2+z
7 1/2-x,1/2-y,-z
8 1/2+x,1/2-y,1/2+z
_cell_length_a                   17.460(4)
_cell_length_b                   10.224(2)
_cell_length_c                   16.415(5)
_cell_angle_alpha                90
_cell_angle_beta                 118.368(4)
_cell_angle_gamma                90
_cell_volume                     2578.38
loop_
_atom_site_label
_atom_site_type_symbol
_atom_site_fract_x
_atom_site_fract_y
_atom_site_fract_z
Cu1 Cu 0.14661(3) 0.30654(4) 0.01087(3)
O1 O 0.1696(2) 0.2393(3) 0.1846(2)
O2 O 0.11878(16) 0.4143(2) 0.09207(17)
N1 N 0.17287(19) 0.1526(3) -0.04604(19)
N2 N 0.23721(19) 0.1116(3) -0.0647(2)
N3 N 0.1230(2) -0.0232(3) -0.1366(2)
N4 N 0.03042(18) 0.2102(3) -0.0411(2)
N5 N 0.1124(2) 0.5681(3) 0.3771(2)
C1 C 0.1067(2) 0.0712(3) -0.0910(2)
C2 C 0.2046(3) 0.0054(3) -0.1178(3)
H1 H 0.2357 -0.0440 -0.1397
C3 C 0.0257(2) 0.0984(3) -0.0883(2)
C4 C -0.0397(2) 0.2462(4) -0.0340(3)
H2 H -0.0376 0.3229 -0.0025
C5 C -0.1149(3) 0.1734(4) -0.0717(3)
H3 H -0.1625 0.2002 -0.0650
C6 C -0.1193(2) 0.0603(4) -0.1196(3)
H4 H -0.1698 0.0102 -0.1456
C7 C -0.0480(2) 0.0229(4) -0.1285(3)
H5 H -0.0497 -0.0523 -0.1612
C8 C 0.1288(2) 0.4263(3) 0.2404(2)
C9 C 0.1268(3) 0.3641(4) 0.3136(3)
H6 H 0.1307 0.2734 0.3188
C10 C 0.1187(3) 0.4392(4) 0.3794(3)
H7 H 0.1177 0.3959 0.4287
C11 C 0.1142(3) 0.6261(4) 0.3057(3)
H8 H 0.1092 0.7168 0.3016
C12 C 0.1230(3) 0.5605(4) 0.2372(3)
H9 H 0.1251 0.6065 0.1894
C13 C 0.1407(2) 0.3513(3) 0.1680(3)
Cu1E Cu 0.14661(3) 0.69346(4) 0.51087(3)
Cu1F Cu 0.35339(3) 0.19346(4) -0.01087(3)
N2F N 0.26279(19) 0.3884(3) 0.0647(2)
N5E N 0.1124(2) 0.4319(3) -0.1229(2)
loop_
_geom_bond_atom_site_label_1
_geom_bond_atom_site_label_2
_geom_bond_site_symmetry_1
_geom_bond_site_symmetry_2
Cu1 O1 1_555 1_555
O1 C13 1_555 1_555
O2 Cu1 1_555 1_555
N1 Cu1 1_555 1_555
N2 N1 1_555 1_555
N3 C1 1_555 1_555
N4 Cu1 1_555 1_555
N5 C10 1_555 1_555
C1 N1 1_555 1_555
C2 N2 1_555 1_555
H1 C2 1_555 1_555
C3 N4 1_555 1_555
C4 N4 1_555 1_555
H2 C4 1_555 1_555
C5 C4 1_555 1_555
H3 C5 1_555 1_555
C6 C5 1_555 1_555
H4 C6 1_555 1_555
C7 C3 1_555 1_555
H5 C7 1_555 1_555
C8 C9 1_555 1_555
C9 H6 1_555 1_555
C10 C9 1_555 1_555
H7 C10 1_555 1_555
C11 N5 1_555 1_555
H8 C11 1_555 1_555
C12 C8 1_555 1_555
H9 C12 1_555 1_555
C13 O2 1_555 1_555
Cu1E N5 1_555 1_555
Cu1F N2 1_555 1_555
N2F Cu1 1_555 1_555
N5E Cu1 1_555 1_555
N3 C2 1_555 1_555
C1 C3 1_555 1_555
C6 C7 1_555 1_555
C8 C13 1_555 1_555
C11 C12 1_555 1_555

#END
