
#######################################################################
#
#                 Cambridge Crystallographic Data Centre
#                                CCDC 
#
#######################################################################
#
# If this CIF has been generated from an entry in the Cambridge 
# Structural Database, then it will include bibliographic, chemical, 
# crystal, experimental, refinement or atomic coordinate data resulting 
# from the CCDC's data processing and validation procedures.
#
#######################################################################

data_OHOXIS
_symmetry_cell_setting           triclinic
_symmetry_space_group_name_H-M   'P -1'
_symmetry_Int_Tables_number      2
_space_group_name_Hall           '-P 1'
loop_
_symmetry_equiv_pos_site_id
_symmetry_equiv_pos_as_xyz
1 x,y,z
2 -x,-y,-z
_cell_length_a                   7.2230(5)
_cell_length_b                   7.4380(5)
_cell_length_c                   11.5910(11)
_cell_angle_alpha                77.727(4)
_cell_angle_beta                 80.513(4)
_cell_angle_gamma                74.160(6)
_cell_volume                     581.595
loop_
_atom_site_label
_atom_site_type_symbol
_atom_site_fract_x
_atom_site_fract_y
_atom_site_fract_z
Cu1 Cu 0.08418(5) 1.02363(5) 0.74959(3)
N1 N -0.1038(4) 0.8889(4) 0.8505(2)
C1 C -0.2383(4) 0.8384(4) 0.8973(3)
C2 C -0.4024(4) 0.7789(4) 0.9553(3)
C3 C -0.5782(4) 0.8593(4) 0.9068(2)
N2 N -0.7209(4) 0.9266(4) 0.8653(2)
C4 C -0.3916(5) 0.6363(4) 1.0629(3)
O1 O -0.5444(3) 0.5983(4) 1.1213(2)
N3 N -0.2177(4) 0.5464(4) 1.0960(3)
H1 H -0.151(5) 0.626(5) 1.105(4)
H2 H -0.216(6) 0.452(4) 1.159(2)
N4 N 0.2773(4) 1.1490(4) 0.6451(2)
C5 C 0.4190(4) 1.1757(4) 0.5903(3)
C6 C 0.5910(4) 1.2065(4) 0.5234(3)
C7 C 0.7582(4) 1.1532(4) 0.5823(3)
N5 N 0.8931(4) 1.1104(4) 0.6314(2)
C8 C 0.6037(4) 1.2753(4) 0.3959(3)
O2 O 0.7692(3) 1.2811(3) 0.3367(2)
N6 N 0.4474(4) 1.3250(4) 0.3425(2)
H3 H 0.334(3) 1.330(5) 0.387(3)
H4 H 0.453(5) 1.388(5) 0.2678(14)
O3 O -0.0560(3) 1.3017(4) 0.8223(2)
H5 H -0.052(5) 1.399(4) 0.761(2)
H6 H -0.177(2) 1.307(5) 0.856(3)
N2_2 N 0.2791(4) 0.9266(4) 0.8653(2)
N5_2 N -0.1069(4) 1.1104(4) 0.6314(2)
O2A O 0.2308(3) 0.7189(3) 0.6633(2)
Cu1_2 Cu -0.91582(5) 1.02363(5) 0.74959(3)
Cu1_3 Cu 1.08418(5) 1.02363(5) 0.74959(3)
Cu1A Cu 0.91582(5) 0.97637(5) 0.25041(3)
O4 O -0.0455(4) 1.5656(4) 0.6081(2)
H7 H -0.029(6) 1.540(6) 0.5355(18)
H8 H 0.038(5) 1.630(5) 0.617(3)
loop_
_geom_bond_atom_site_label_1
_geom_bond_atom_site_label_2
_geom_bond_site_symmetry_1
_geom_bond_site_symmetry_2
Cu1 N1 1_555 1_555
N1 C1 1_555 1_555
C1 C2 1_555 1_555
C2 C3 1_555 1_555
C3 N2 1_555 1_555
N2 Cu1_2 1_555 1_555
C4 C2 1_555 1_555
O1 C4 1_555 1_555
N3 C4 1_555 1_555
H1 N3 1_555 1_555
H2 N3 1_555 1_555
N4 Cu1 1_555 1_555
C5 N4 1_555 1_555
C6 C5 1_555 1_555
C7 C6 1_555 1_555
N5 C7 1_555 1_555
C8 C6 1_555 1_555
O2 C8 1_555 1_555
N6 C8 1_555 1_555
H3 N6 1_555 1_555
H4 N6 1_555 1_555
O3 Cu1 1_555 1_555
H5 O3 1_555 1_555
H6 O3 1_555 1_555
O4 H7 1_555 1_555
H8 O4 1_555 1_555
N2_2 Cu1 1_555 1_555
N5_2 Cu1 1_555 1_555
O2A Cu1 1_555 1_555
Cu1_3 N5 1_555 1_555
Cu1A O2 1_555 1_555

#END
