
#######################################################################
#
#                 Cambridge Crystallographic Data Centre
#                                CCDC 
#
#######################################################################
#
# If this CIF has been generated from an entry in the Cambridge 
# Structural Database, then it will include bibliographic, chemical, 
# crystal, experimental, refinement or atomic coordinate data resulting 
# from the CCDC's data processing and validation procedures.
#
#######################################################################

data_OHUCOK
_symmetry_cell_setting           monoclinic
_symmetry_space_group_name_H-M   'P 21/c'
_symmetry_Int_Tables_number      14
_space_group_name_Hall           '-P 2ybc'
loop_
_symmetry_equiv_pos_site_id
_symmetry_equiv_pos_as_xyz
1 x,y,z
2 -x,1/2+y,1/2-z
3 -x,-y,-z
4 x,1/2-y,1/2+z
_cell_length_a                   19.7224
_cell_length_b                   19.1365
_cell_length_c                   10.2021
_cell_angle_alpha                90
_cell_angle_beta                 94.4853
_cell_angle_gamma                90
_cell_volume                     3838.66
loop_
_atom_site_label
_atom_site_type_symbol
_atom_site_fract_x
_atom_site_fract_y
_atom_site_fract_z
Pb1 Pb 0.770744(18) 0.359033(17) 0.09804(3)
Pb2 Pb 0.842380(18) 0.465050(18) -0.57023(3)
Pb3 Pb 0.72209(2) 0.546320(19) -0.02890(3)
Pb4 Pb 1.228380(18) 0.313850(18) -0.23326(3)
Pb5 Pb 0.720310(17) 0.608790(17) -0.40281(3)
Pb6 Pb 0.726220(18) 0.335670(18) -0.30289(3)
P1 P 0.81874(11) 0.47409(12) -0.2280(2)
O1 O 0.8058(4) 0.4321(4) -0.3579(6)
O2 O 0.7822(4) 0.4383(4) -0.1210(6)
O3 O 0.7983(4) 0.5510(4) -0.2431(7)
C1 C 0.9094(5) 0.4720(5) -0.1869(8)
C2 C 0.9416(5) 0.4146(5) -0.1263(9)
C3 C 1.0127(5) 0.4130(5) -0.1043(9)
C4 C 1.0515(5) 0.4688(5) -0.1449(9)
C5 C 1.1283(4) 0.4682(5) -0.1251(9)
C6 C 1.0196(5) 0.5264(5) -0.2024(10)
C7 C 0.9490(5) 0.5280(5) -0.2272(10)
O4 O 1.1577(4) 0.4194(5) -0.0611(8)
O5 O 1.1599(4) 0.5177(4) -0.1736(8)
H1 H 0.912270 0.374700 -0.100820
H2 H 1.035370 0.371670 -0.055860
H3 H 1.048090 0.56697 -0.225260
H4 H 0.925240 0.567760 -0.27424
P2 P 0.82753(12) 0.28677(12) 0.4254(2)
O6 O 0.8031(3) 0.3553(3) 0.3541(6)
O7 O 0.8124(4) 0.2215(4) 0.3436(7)
O8 O 0.8016(4) 0.2804(4) 0.5621(7)
C8 C 0.9193(4) 0.2976(5) 0.4464(8)
C9 C 0.9605(5) 0.2776(5) 0.3459(9)
C10 C 1.0298(5) 0.2901(6) 0.3559(9)
C11 C 1.0605(5) 0.3264(5) 0.4646(9)
C12 C 1.1350(5) 0.3414(5) 0.4741(9)
C13 C 1.0194(5) 0.3480(6) 0.5654(9)
C14 C 0.9503(5) 0.3334(5) 0.5549(9)
O9 O 1.1713(4) 0.3186(4) 0.3886(8)
O10 O 1.1584(4) 0.3808(4) 0.5714(8)
H5 H 0.939892 0.253644 0.263879
H6 H 1.057564 0.271217 0.282893
H7 H 1.042007 0.373999 0.643387
H8 H 0.922533 0.350632 0.627617
P3 P 0.69199(11) 0.50977(11) 0.2680(2)
O11 O 0.7095(3) 0.5826(3) 0.2105(6)
O12 O 0.7339(4) 0.4956(4) 0.3981(7)
O13 O 0.7000(3) 0.4534(3) 0.1649(7)
C15 C 0.6034(4) 0.5104(4) 0.2975(9)
C16 C 0.5702(5) 0.5697(5) 0.3421(11)
C17 C 0.5011(5) 0.5692(5) 0.3502(11)
C18 C 0.4626(5) 0.5088(5) 0.3155(9)
C19 C 0.3867(5) 0.5075(6) 0.3149(10)
C20 C 0.4959(6) 0.4482(6) 0.2811(14)
C21 C 0.5662(5) 0.4494(5) 0.2715(13)
O14 O 0.3572(5) 0.5562(6) 0.3655(10)
O15 O 0.3566(4) 0.4555(5) 0.2594(9)
H9 H 0.596028 0.612738 0.3693
H10 H 0.479964 0.613502 0.382196
H11 H 0.470746 0.403695 0.265034
H12 H 0.590089 0.407329 0.241769
P4 P 0.32357(12) 0.28141(12) 0.1096(2)
O16 O 0.2890(4) 0.3250(4) 0.0013(7)
O17 O 0.3051(4) 0.3041(4) 0.2491(8)
O18 O 0.3053(3) 0.2035(3) 0.0976(7)
C22 C 0.4161(5) 0.2910(5) 0.0973(8)
C23 C 0.4401(5) 0.3301(5) -0.0063(9)
C24 C 0.5098(5) 0.3354(6) -0.0156(10)
C25 C 0.5554(5) 0.3032(5) 0.0759(9)
C26 C 0.6312(5) 0.3128(5) 0.0707(10)
C27 C 0.5315(5) 0.2659(6) 0.1816(11)
C28 C 0.4613(5) 0.2603(5) 0.1894(11)
O19 O 0.6540(3) 0.3401(5) -0.0302(7)
O20 O 0.6711(3) 0.2945(4) 0.1709(7)
H13 H 0.405427 0.352925 -0.068639
H14 H 0.528909 0.362987 -0.088547
H15 H 0.56463 0.245963 0.252703
H16 H 0.441891 0.232725 0.260561
O21 O 1.1441(5) 0.2054(5) -0.3791(8)
H17 H 1.128450 0.163950 -0.332020
H18 H 1.133180 0.210910 -0.476160
O22 O 0.6527(5) 0.3338(6) -0.5380(9)
H19 H 0.680990 0.346180 -0.60831
H20 H 0.611350 0.301840 -0.530200
Pb1_2 Pb 0.770744(18) 0.359033(17) -0.90196(3)
Pb1C Pb 0.770744(18) 0.140967(17) -0.40196(3)
Pb1B Pb 1.229256(18) 0.640967(17) -0.09804(3)
Pb1C_2 Pb 0.770744(18) 0.140967(17) 0.59804(3)
Pb2_2 Pb 0.842380(18) 0.465050(18) 0.42977(3)
Pb2B Pb 1.157620(18) 0.534950(18) -0.42977(3)
Pb2B_2 Pb 1.157620(18) 0.534950(18) 0.57023(3)
Pb3B Pb 1.27791(2) 0.453680(19) 0.02890(3)
Pb3B_2 Pb 0.27791(2) 0.453680(19) 0.02890(3)
Pb4B Pb 0.771620(18) 0.686150(18) 0.23326(3)
Pb4B_2 Pb 0.771620(18) 0.686150(18) -0.76674(3)
Pb4A Pb 0.771620(18) 0.813850(18) -0.26674(3)
Pb4C Pb 1.228380(18) 0.186150(18) 0.26674(3)
Pb4_2 Pb 1.228380(18) 0.313850(18) 0.76674(3)
Pb4C_2 Pb 0.228380(18) 0.186150(18) 0.26674(3)
Pb4_3 Pb 0.228380(18) 0.313850(18) -0.23326(3)
Pb5B Pb 1.279690(17) 0.391210(17) -0.59719(3)
Pb5A Pb 1.279690(17) 0.108790(17) -0.09719(3)
Pb5B_2 Pb 1.279690(17) 0.391210(17) 0.40281(3)
Pb5_2 Pb 0.720310(17) 0.608790(17) 0.59719(3)
Pb5B_3 Pb 0.279690(17) 0.391210(17) 0.40281(3)
Pb5A_2 Pb 0.279690(17) 0.108790(17) -0.09719(3)
Pb6C Pb 0.726220(18) 0.164330(18) 0.19711(3)
Pb6_2 Pb 0.726220(18) 0.335670(18) 0.69711(3)
Pb6B Pb 0.273780(18) 0.664330(18) 0.30289(3)
O4B O 0.8423(4) 0.5806(5) 0.0611(8)
O5B O 0.8401(4) 0.4823(4) 0.1736(8)
O5B_2 O 0.8401(4) 0.4823(4) -0.8264(8)
O6_2 O 0.8031(3) 0.3553(3) -0.6459(6)
O7C O 0.8124(4) 0.2785(4) -0.1564(7)
O8C O 0.8016(4) 0.2196(4) 0.0621(7)
O8_2 O 0.8016(4) 0.2804(4) -0.4379(7)
O9C O 1.1713(4) 0.1814(4) -0.1114(8)
O9B O 0.8287(4) 0.6814(4) -0.3886(8)
O10B O 0.8416(4) 0.6192(4) -0.5714(8)
O10_2 O 1.1584(4) 0.3808(4) -0.4286(8)
O11B O 1.2905(3) 0.4174(3) -0.2105(6)
O12_2 O 0.7339(4) 0.4956(4) -0.6019(7)
O14B O 0.6428(5) 0.4438(6) -0.3655(10)
O15B O 0.6434(4) 0.5445(5) -0.2594(9)
P4C P 1.32357(12) 0.21859(12) -0.3904(2)
O16B O 0.7110(4) 0.6750(4) -0.0013(7)
O16_2 O 1.2890(4) 0.3250(4) 0.0013(7)
O17C O 1.3051(4) 0.1959(4) -0.2509(8)
O17B O 0.6949(4) 0.6959(4) -0.2491(8)
O18C O 1.3053(3) 0.2965(3) -0.4024(7)
O18A O 0.6947(3) 0.7035(3) -0.5976(7)
O20C O 0.6711(3) 0.2055(4) -0.3291(7)
loop_
_geom_bond_atom_site_label_1
_geom_bond_atom_site_label_2
_geom_bond_site_symmetry_1
_geom_bond_site_symmetry_2
Pb1 O2 1_555 1_555
Pb2 O1 1_555 1_555
Pb3 O2 1_555 1_555
Pb4 O4 1_555 1_555
Pb5 O3 1_555 1_555
Pb6 O1 1_555 1_555
P1 O1 1_555 1_555
O2 Pb6 1_555 1_555
O3 Pb3 1_555 1_555
C1 P1 1_555 1_555
C2 C1 1_555 1_555
C3 C2 1_555 1_555
C4 C3 1_555 1_555
C5 C4 1_555 1_555
C6 C4 1_555 1_555
C7 C1 1_555 1_555
O4 C5 1_555 1_555
O5 C5 1_555 1_555
H1 C2 1_555 1_555
H2 C3 1_555 1_555
H3 C6 1_555 1_555
H4 C7 1_555 1_555
P2 O6 1_555 1_555
O6 Pb1 1_555 1_555
O7 P2 1_555 1_555
O8 P2 1_555 1_555
C8 P2 1_555 1_555
C9 C8 1_555 1_555
C10 C9 1_555 1_555
C11 C10 1_555 1_555
C12 C11 1_555 1_555
C13 C11 1_555 1_555
C14 C8 1_555 1_555
O9 C12 1_555 1_555
O10 C12 1_555 1_555
H5 C9 1_555 1_555
H6 C10 1_555 1_555
H7 C13 1_555 1_555
H8 C14 1_555 1_555
P3 O11 1_555 1_555
O11 Pb3 1_555 1_555
O12 P3 1_555 1_555
O13 Pb1 1_555 1_555
C15 P3 1_555 1_555
C16 C15 1_555 1_555
C17 C16 1_555 1_555
C18 C17 1_555 1_555
C19 C18 1_555 1_555
C20 C18 1_555 1_555
C21 C15 1_555 1_555
O14 C19 1_555 1_555
O15 C19 1_555 1_555
H9 C16 1_555 1_555
H10 C17 1_555 1_555
H11 C20 1_555 1_555
H12 C21 1_555 1_555
P4 O16 1_555 1_555
O16 Pb3B_2 1_555 1_555
O17 P4 1_555 1_555
O18 P4 1_555 1_555
C22 P4 1_555 1_555
C23 C22 1_555 1_555
C24 C23 1_555 1_555
C25 C24 1_555 1_555
C26 C25 1_555 1_555
C27 C25 1_555 1_555
C28 C22 1_555 1_555
O19 Pb1 1_555 1_555
O20 Pb1 1_555 1_555
H13 C23 1_555 1_555
H14 C24 1_555 1_555
H15 C27 1_555 1_555
H16 C28 1_555 1_555
O21 Pb4 1_555 1_555
H17 O21 1_555 1_555
H18 O21 1_555 1_555
O22 Pb6 1_555 1_555
H19 O22 1_555 1_555
H20 O22 1_555 1_555
Pb1_2 O5B_2 1_555 1_555
Pb1C O8_2 1_555 1_555
Pb1B O5 1_555 1_555
Pb1C_2 O7 1_555 1_555
Pb2_2 O6 1_555 1_555
Pb2B O5 1_555 1_555
Pb2B_2 O10 1_555 1_555
Pb3B O4 1_555 1_555
Pb3B_2 O15 1_555 1_555
Pb4B O11 1_555 1_555
Pb4B_2 O10B 1_555 1_555
Pb4A O9B 1_555 1_555
Pb4C O9 1_555 1_555
Pb4_2 O10 1_555 1_555
Pb4C_2 O17 1_555 1_555
Pb4_3 O16 1_555 1_555
Pb5B O10_2 1_555 1_555
Pb5A O9C 1_555 1_555
Pb5B_2 O9 1_555 1_555
Pb5_2 O12 1_555 1_555
Pb5B_3 O15 1_555 1_555
Pb5A_2 O18 1_555 1_555
Pb6C O7 1_555 1_555
Pb6_2 O8 1_555 1_555
Pb6B O14 1_555 1_555
O4B Pb3 1_555 1_555
O5B Pb1 1_555 1_555
O5B_2 Pb2 1_555 1_555
O6_2 Pb2 1_555 1_555
O7C Pb1 1_555 1_555
O8C Pb1 1_555 1_555
O8_2 Pb6 1_555 1_555
O9C Pb4 1_555 1_555
O9B Pb5 1_555 1_555
O10B Pb2 1_555 1_555
O10_2 Pb4 1_555 1_555
O11B Pb4 1_555 1_555
O12_2 Pb2 1_555 1_555
O14B Pb6 1_555 1_555
O15B Pb3 1_555 1_555
P4C O17C 1_555 1_555
O16B Pb3 1_555 1_555
O16_2 Pb4 1_555 1_555
O17C Pb4 1_555 1_555
O17B Pb5 1_555 1_555
O18C Pb4 1_555 1_555
O18A Pb5 1_555 1_555
O20C Pb6 1_555 1_555
Pb3 O13 1_555 1_555
Pb3 O5B 1_555 1_555
Pb5 O10B 1_555 1_555
Pb5 O12_2 1_555 1_555
Pb5 O15B 1_555 1_555
Pb6 O19 1_555 1_555
Pb6 O7C 1_555 1_555
P1 O2 1_555 1_555
P1 O3 1_555 1_555
C6 C7 1_555 1_555
O5 Pb3B 1_555 1_555
O8 Pb1C_2 1_555 1_555
C13 C14 1_555 1_555
O10 Pb5B_2 1_555 1_555
P3 O13 1_555 1_555
O12 Pb2_2 1_555 1_555
C20 C21 1_555 1_555
O17 Pb5B_3 1_555 1_555
O18 Pb4C_2 1_555 1_555
C26 O19 1_555 1_555
C26 O20 1_555 1_555
C27 C28 1_555 1_555
O20 Pb6C 1_555 1_555
Pb1_2 O6_2 1_555 1_555
Pb1C O20C 1_555 1_555
Pb2_2 O5B 1_555 1_555
Pb2B O10_2 1_555 1_555
Pb3B O11B 1_555 1_555
Pb3B O16_2 1_555 1_555
Pb4B O4B 1_555 1_555
Pb4B O16B 1_555 1_555
Pb4B_2 O18A 1_555 1_555
Pb4A O17B 1_555 1_555
Pb5B O18C 1_555 1_555
Pb5A O17C 1_555 1_555
Pb6C O8C 1_555 1_555
P4C O18C 1_555 1_555

#END
