
#######################################################################
#
#                 Cambridge Crystallographic Data Centre
#                                CCDC 
#
#######################################################################
#
# If this CIF has been generated from an entry in the Cambridge 
# Structural Database, then it will include bibliographic, chemical, 
# crystal, experimental, refinement or atomic coordinate data resulting 
# from the CCDC's data processing and validation procedures.
#
#######################################################################

data_OHUCIE
_symmetry_cell_setting           orthorhombic
_symmetry_space_group_name_H-M   'A b a 2'
_symmetry_Int_Tables_number      41
_space_group_name_Hall           'A 2 -2ab'
loop_
_symmetry_equiv_pos_site_id
_symmetry_equiv_pos_as_xyz
1 x,y,z
2 -x,-y,z
3 1/2+x,1/2-y,z
4 1/2-x,1/2+y,z
5 x,1/2+y,1/2+z
6 -x,1/2-y,1/2+z
7 1/2+x,-y,1/2+z
8 1/2-x,y,1/2+z
_cell_length_a                   16.7424
_cell_length_b                   20.1623
_cell_length_c                   6.0014
_cell_angle_alpha                90
_cell_angle_beta                 90
_cell_angle_gamma                90
_cell_volume                     2025.86
loop_
_atom_site_label
_atom_site_type_symbol
_atom_site_fract_x
_atom_site_fract_y
_atom_site_fract_z
Pb1 Pb 0.00000 0.50000 0.286991
Pb2 Pb 0.159190(11) 0.538340(8) 0.76478(5)
P1 P 0.05194(9) 0.41109(6) 0.82677(19)
O1 O 0.2661(3) 0.4328(3) 0.7747(12)
O2 O 0.0722(3) 0.4457(2) 0.6052(6)
C1 C 0.0844(4) 0.3257(2) 0.8049(8)
O3 O 0.1011(3) 0.4450(2) 1.0137(6)
O4 O 0.2050(3) 0.1041(2) 0.6095(7)
O5 O -0.0367(3) 0.4121(2) 0.8879(7)
C2 C 0.1542(3) 0.1208(2) 0.7542(10)
C3 C 0.1328(3) 0.1925(2) 0.7766(11)
O6 O 0.1178(3) 0.0791(2) 0.8799(6)
C4 C 0.1531(5) 0.2369(3) 0.6064(10)
C5 C 0.0895(5) 0.2150(3) 0.9598(8)
C6 C 0.1272(5) 0.3027(3) 0.6210(10)
C7 C 0.0672(4) 0.2812(3) 0.9773(9)
H1 H 0.027020 0.297090 1.112620
H2 H 0.071660 0.187560 1.043480
H3 H 0.183530 0.224600 0.44103
H4 H 0.135830 0.336410 0.471960
Pb1_2 Pb 0.00000 0.50000 1.286991
Pb1D Pb 0.00000 0.00000 0.786991
Pb1D_2 Pb 0.00000 1.00000 0.786991
Pb2A Pb -0.159190(11) 0.461660(8) 0.76478(5)
Pb2C Pb 0.340810(11) 0.038340(8) 0.76478(5)
Pb2D Pb 0.159190(11) 0.038340(8) 0.26478(5)
Pb2D_2 Pb 0.159190(11) 0.038340(8) 1.26478(5)
Pb2B Pb -0.340810(11) 0.961660(8) 0.76478(5)
Pb2E Pb -0.159190(11) 0.961660(8) 0.26478(5)
Pb2E_2 Pb -0.159190(11) 0.961660(8) 1.26478(5)
P1A P -0.05194(9) 0.58891(6) 0.82677(19)
O1A O -0.2661(3) 0.5672(3) 0.7747(12)
O2A O -0.0722(3) 0.5543(2) 0.6052(6)
C1A C -0.0844(4) 0.6743(2) 0.8049(8)
O3A O -0.1011(3) 0.5550(2) 1.0137(6)
O3_2 O 0.1011(3) 0.4450(2) 0.0137(6)
O3A_2 O -0.1011(3) 0.5550(2) 0.0137(6)
O4A O -0.2050(3) 0.8959(2) 0.6095(7)
O4C O 0.2950(3) 0.6041(2) 0.6095(7)
O4D O 0.2050(3) 0.6041(2) 1.1095(7)
O4B O -0.2950(3) 0.3959(2) 0.6095(7)
O4E O -0.2050(3) 0.3959(2) 1.1095(7)
O5A O 0.0367(3) 0.5879(2) 0.8879(7)
O5_2 O -0.0367(3) 0.4121(2) -0.1121(7)
O5A_2 O 0.0367(3) 0.5879(2) -0.1121(7)
C2A C -0.1542(3) 0.8792(2) 0.7542(10)
C3A C -0.1328(3) 0.8075(2) 0.7766(11)
O6A O -0.1178(3) 0.9209(2) 0.8799(6)
O6D O 0.1178(3) 0.5791(2) 0.3799(6)
O6E O -0.1178(3) 0.4209(2) 0.3799(6)
C4A C -0.1531(5) 0.7631(3) 0.6064(10)
C5A C -0.0895(5) 0.7850(3) 0.9598(8)
C6A C -0.1272(5) 0.6973(3) 0.6210(10)
C7A C -0.0672(4) 0.7188(3) 0.9773(9)
H1A H -0.027020 0.702910 1.112620
H2A H -0.071660 0.812440 1.043480
H3A H -0.183530 0.775400 0.44103
H4A H -0.135830 0.663590 0.471960
loop_
_geom_bond_atom_site_label_1
_geom_bond_atom_site_label_2
_geom_bond_site_symmetry_1
_geom_bond_site_symmetry_2
Pb1 O2 1_555 1_555
Pb2 O1 1_555 1_555
P1 O2 1_555 1_555
O2 Pb2 1_555 1_555
C1 P1 1_555 1_555
O3 Pb2 1_555 1_555
O4 C2 1_555 1_555
O5 P1 1_555 1_555
C2 C3 1_555 1_555
C3 C4 1_555 1_555
O6 C2 1_555 1_555
C4 C6 1_555 1_555
C5 C3 1_555 1_555
C6 C1 1_555 1_555
C7 C1 1_555 1_555
H1 C7 1_555 1_555
H2 C5 1_555 1_555
H3 C4 1_555 1_555
H4 C6 1_555 1_555
Pb1_2 O3 1_555 1_555
Pb1D O6 1_555 1_555
Pb1D_2 O6A 1_555 1_555
Pb2A O5 1_555 1_555
Pb2C O4 1_555 1_555
Pb2D O4 1_555 1_555
Pb2D_2 O6 1_555 1_555
Pb2B O4A 1_555 1_555
Pb2E O4A 1_555 1_555
Pb2E_2 O6A 1_555 1_555
P1A O2A 1_555 1_555
O1A Pb2A 1_555 1_555
O2A Pb1 1_555 1_555
C1A P1A 1_555 1_555
O3A Pb1_2 1_555 1_555
O3_2 Pb1 1_555 1_555
O3A_2 Pb1 1_555 1_555
O4A C2A 1_555 1_555
O4C Pb2 1_555 1_555
O4D Pb2 1_555 1_555
O4B Pb2A 1_555 1_555
O4E Pb2A 1_555 1_555
O5A Pb2 1_555 1_555
O5_2 Pb1 1_555 1_555
O5A_2 Pb1 1_555 1_555
C2A C3A 1_555 1_555
C3A C4A 1_555 1_555
O6A C2A 1_555 1_555
O6D Pb1 1_555 1_555
O6E Pb1 1_555 1_555
C4A C6A 1_555 1_555
C5A C3A 1_555 1_555
C6A C1A 1_555 1_555
C7A C1A 1_555 1_555
H1A C7A 1_555 1_555
H2A C5A 1_555 1_555
H3A C4A 1_555 1_555
H4A C6A 1_555 1_555
Pb2 O6D 1_555 1_555
P1 O3 1_555 1_555
O5 Pb1_2 1_555 1_555
C5 C7 1_555 1_555
Pb1_2 O5A 1_555 1_555
Pb2A O2A 1_555 1_555
Pb2A O3A 1_555 1_555
Pb2A O6E 1_555 1_555
P1A O3A 1_555 1_555
P1A O5A 1_555 1_555
C5A C7A 1_555 1_555

#END
