
#######################################################################
#
#                 Cambridge Crystallographic Data Centre
#                                CCDC 
#
#######################################################################
#
# If this CIF has been generated from an entry in the Cambridge 
# Structural Database, then it will include bibliographic, chemical, 
# crystal, experimental, refinement or atomic coordinate data resulting 
# from the CCDC's data processing and validation procedures.
#
#######################################################################

data_OHUGED
_symmetry_cell_setting           triclinic
_symmetry_space_group_name_H-M   'P 1'
_symmetry_Int_Tables_number      1
_space_group_name_Hall           'P 1'
loop_
_symmetry_equiv_pos_site_id
_symmetry_equiv_pos_as_xyz
1 x,y,z
_cell_length_a                   8.1549(5)
_cell_length_b                   6.6221(3)
_cell_length_c                   9.0743(6)
_cell_angle_alpha                90.002(3)
_cell_angle_beta                 91.575(3)
_cell_angle_gamma                89.986(3)
_cell_volume                     489.85
loop_
_atom_site_label
_atom_site_type_symbol
_atom_site_fract_x
_atom_site_fract_y
_atom_site_fract_z
Mn1 Mn 0.39605(10) -0.04356(12) 0.47553(8)
Mn2 Mn 0.72818(11) 0.45619(13) 0.81960(8)
S1 S 0.7224(2) -0.0405(3) 0.73065(18)
S2 S 0.4013(3) -0.5406(3) 0.56477(18)
N1 N 0.2787(9) -0.0380(11) 0.2466(7)
N2 N 0.5987(9) -0.0002(11) 0.3086(7)
N3 N 0.8435(9) 0.4626(11) 1.0488(7)
N4 N 0.5251(9) 0.4989(12) 0.9883(7)
O1 O 0.1683(8) -0.1130(10) 0.5918(6)
O2 O 0.9519(7) 0.3867(9) 0.7045(6)
O3 O 0.7656(8) 0.0146(12) 0.3313(6)
H1 H 0.7874 0.0130 0.4200
O4 O 0.3590(8) 0.5165(12) 0.9649(7)
H2 H 0.3376 0.5153 0.8761
O5 O 0.7173(7) 0.1240(9) 0.8394(5)
O6 O 0.8454(7) 0.0102(9) 0.6184(5)
O7 O 0.5601(8) -0.0654(10) 0.6587(5)
O8 O 0.7740(8) -0.2250(10) 0.8070(7)
O9 O 0.2790(7) -0.4881(9) 0.6782(6)
O10 O 0.5607(9) -0.5653(11) 0.6366(6)
O11 O 0.4064(7) -0.3779(8) 0.4562(5)
O12 O 0.3483(8) -0.7264(9) 0.4886(6)
C1 C 0.1188(13) -0.0587(15) 0.2147(9)
H3 H 0.0479 -0.0814 0.2916
C2 C 0.0541(14) -0.0481(18) 0.0733(10)
H4 H -0.0583 -0.0625 0.0560
C3 C 0.1543(15) -0.0169(19) -0.0395(10)
H5 H 0.1121 -0.0082 -0.1356
C4 C 0.3240(12) 0.0024(16) -0.0102(9)
H6 H 0.3962 0.0225 -0.0864
C5 C 0.3802(12) -0.0090(13) 0.1329(8)
C6 C 0.5564(11) 0.0092(14) 0.1729(8)
H7 H 0.6341 0.0271 0.1009
C7 C 1.0048(15) 0.4427(15) 1.0787(10)
H8 H 1.0758 0.4201 1.0020
C8 C 1.0672(16) 0.4552(16) 1.2212(11)
H9 H 1.1796 0.4441 1.2397
C9 C 0.9639(15) 0.4839(18) 1.3347(10)
H10 H 1.0053 0.4904 1.4312
C10 C 0.8014(12) 0.5030(16) 1.3065(9)
H11 H 0.7295 0.5234 1.3830
C11 C 0.7431(11) 0.4918(13) 1.1616(8)
C12 C 0.5699(12) 0.5090(14) 1.1217(8)
H12 H 0.4929 0.5274 1.1942
Mn1_2 Mn 0.39605(10) -1.04356(12) 0.47553(8)
Mn2_2 Mn 0.72818(11) -0.54381(13) 0.81960(8)
O8_2 O 0.7740(8) 0.7750(10) 0.8070(7)
O10_2 O 0.5607(9) 0.4347(11) 0.6366(6)
O12_2 O 0.3483(8) 0.2736(9) 0.4886(6)
loop_
_geom_bond_atom_site_label_1
_geom_bond_atom_site_label_2
_geom_bond_site_symmetry_1
_geom_bond_site_symmetry_2
Mn1 N1 1_555 1_555
Mn2 N3 1_555 1_555
S1 O5 1_555 1_555
S2 O9 1_555 1_555
N1 C1 1_555 1_555
N2 Mn1 1_555 1_555
N3 C7 1_555 1_555
N4 Mn2 1_555 1_555
O1 Mn1 1_555 1_555
O2 Mn2 1_555 1_555
O3 N2 1_555 1_555
H1 O3 1_555 1_555
O4 N4 1_555 1_555
H2 O4 1_555 1_555
O5 Mn2 1_555 1_555
O6 S1 1_555 1_555
O7 Mn1 1_555 1_555
O8 S1 1_555 1_555
O10 S2 1_555 1_555
O11 Mn1 1_555 1_555
O12 S2 1_555 1_555
C1 H3 1_555 1_555
C2 C1 1_555 1_555
H4 C2 1_555 1_555
C3 C2 1_555 1_555
H5 C3 1_555 1_555
C4 C3 1_555 1_555
H6 C4 1_555 1_555
C5 N1 1_555 1_555
C6 N2 1_555 1_555
H7 C6 1_555 1_555
C7 H8 1_555 1_555
C8 C7 1_555 1_555
H9 C8 1_555 1_555
C9 C8 1_555 1_555
H10 C9 1_555 1_555
C10 C9 1_555 1_555
H11 C10 1_555 1_555
C11 N3 1_555 1_555
C12 N4 1_555 1_555
H12 C12 1_555 1_555
Mn1_2 O12 1_555 1_555
Mn2_2 O8 1_555 1_555
O8_2 Mn2 1_555 1_555
O10_2 Mn2 1_555 1_555
O12_2 Mn1 1_555 1_555
S1 O7 1_555 1_555
S2 O11 1_555 1_555
O10 Mn2_2 1_555 1_555
C4 C5 1_555 1_555
C5 C6 1_555 1_555
C10 C11 1_555 1_555
C11 C12 1_555 1_555

#END
