
#######################################################################
#
#                 Cambridge Crystallographic Data Centre
#                                CCDC 
#
#######################################################################
#
# If this CIF has been generated from an entry in the Cambridge 
# Structural Database, then it will include bibliographic, chemical, 
# crystal, experimental, refinement or atomic coordinate data resulting 
# from the CCDC's data processing and validation procedures.
#
#######################################################################

data_OHUJEG01
_symmetry_cell_setting           monoclinic
_symmetry_space_group_name_H-M   'P 21/n'
_symmetry_Int_Tables_number      14
_space_group_name_Hall           '-P 2yn'
loop_
_symmetry_equiv_pos_site_id
_symmetry_equiv_pos_as_xyz
1 x,y,z
2 1/2-x,1/2+y,1/2-z
3 -x,-y,-z
4 1/2+x,1/2-y,1/2+z
_cell_length_a                   7.2958(4)
_cell_length_b                   11.7214(6)
_cell_length_c                   16.3979(9)
_cell_angle_alpha                90
_cell_angle_beta                 101.1150(10)
_cell_angle_gamma                90
_cell_volume                     1376
loop_
_atom_site_label
_atom_site_type_symbol
_atom_site_fract_x
_atom_site_fract_y
_atom_site_fract_z
Zn1 Zn 0.7321(1) 0.7422(1) 0.5135(1)
Cl1 Cl 0.9698(1) 0.6654(1) 0.5990(1)
Cl2 Cl 0.5108(1) 0.8401(1) 0.5594(1)
C1 C 0.4124(3) 0.6392(2) 0.3979(1)
C2 C 0.3122(3) 0.5605(2) 0.3436(1)
C3 C 0.3992(3) 0.4583(2) 0.3294(1)
C4 C 0.5807(3) 0.4394(2) 0.3688(1)
C5 C 0.6715(3) 0.5225(2) 0.4215(1)
C6 C 0.1189(3) 0.5851(2) 0.3050(1)
C7 C -0.1434(3) 0.5583(2) 0.2262(1)
C8 C -0.2229(3) 0.4132(2) 0.1173(1)
C9 C -0.2809(3) 0.4986(2) 0.1649(1)
C10 C -0.4712(3) 0.5241(2) 0.1521(1)
C11 C -0.5932(3) 0.4602(2) 0.0955(1)
C12 C -0.5246(3) 0.3748(2) 0.0519(1)
N1 N 0.5891(3) 0.6209(2) 0.4361(1)
N2 N 0.0116(3) 0.6649(2) 0.3219(1)
N3 N -0.1644(3) 0.6469(2) 0.2698(1)
N4 N -0.3412(2) 0.3526(2) 0.0614(1)
O1 O 0.0317(2) 0.5137(1) 0.2445(1)
N4A N 0.8412(2) 0.8526(2) 0.4386(1)
Zn1A Zn -0.2321(1) 0.2422(1) -0.0135(1)
loop_
_geom_bond_atom_site_label_1
_geom_bond_atom_site_label_2
_geom_bond_site_symmetry_1
_geom_bond_site_symmetry_2
Zn1 Cl1 1_555 1_555
Cl2 Zn1 1_555 1_555
C1 C2 1_555 1_555
C2 C3 1_555 1_555
C3 C4 1_555 1_555
C4 C5 1_555 1_555
C5 N1 1_555 1_555
C6 C2 1_555 1_555
C7 C9 1_555 1_555
C8 C9 1_555 1_555
C9 C10 1_555 1_555
C10 C11 1_555 1_555
C11 C12 1_555 1_555
C12 N4 1_555 1_555
N1 Zn1 1_555 1_555
N2 C6 1_555 1_555
N3 C7 1_555 1_555
N4 C8 1_555 1_555
O1 C6 1_555 1_555
N4A Zn1 1_555 1_555
Zn1A N4 1_555 1_555
C1 N1 1_555 1_555
C7 O1 1_555 1_555
N2 N3 1_555 1_555

#END
