
#######################################################################
#
#                 Cambridge Crystallographic Data Centre
#                                CCDC 
#
#######################################################################
#
# If this CIF has been generated from an entry in the Cambridge 
# Structural Database, then it will include bibliographic, chemical, 
# crystal, experimental, refinement or atomic coordinate data resulting 
# from the CCDC's data processing and validation procedures.
#
#######################################################################

data_OHUQIR
_symmetry_cell_setting           orthorhombic
_symmetry_space_group_name_H-M   'P b c a'
_symmetry_Int_Tables_number      61
_space_group_name_Hall           '-P 2ac 2ab'
loop_
_symmetry_equiv_pos_site_id
_symmetry_equiv_pos_as_xyz
1 x,y,z
2 1/2+x,y,1/2-z
3 x,1/2-y,1/2+z
4 1/2-x,1/2+y,z
5 -x,-y,-z
6 1/2-x,-y,1/2+z
7 -x,1/2+y,1/2-z
8 1/2+x,1/2-y,-z
_cell_length_a                   6.58720(10)
_cell_length_b                   16.32370(10)
_cell_length_c                   20.0457(4)
_cell_angle_alpha                90
_cell_angle_beta                 90
_cell_angle_gamma                90
_cell_volume                     2155.46
loop_
_atom_site_label
_atom_site_type_symbol
_atom_site_fract_x
_atom_site_fract_y
_atom_site_fract_z
Zn1 Zn -0.33312(7) 0.87508(2) 0.07365(2)
P1 P 0.01546(14) 0.73279(6) 0.05725(5)
O1 O -0.2216(4) 0.95900(15) 0.26309(12)
O2 O -0.6037(4) 0.94905(17) 0.06850(13)
O3 O -0.0619(4) 0.81675(16) 0.07196(13)
O4 O 0.2336(4) 0.72351(16) 0.08739(12)
O5 O -0.4465(4) 0.81644(15) 0.15697(12)
O6 O -0.2089(4) 0.94998(15) 0.15173(13)
C1 C -0.2590(6) 0.9250(2) 0.20929(18)
O7 O -0.0977(4) 0.66452(18) 0.09747(15)
C2 C -0.5985(6) 0.9990(2) 0.02109(17)
O8 O -0.3940(4) 0.80644(16) 0.26595(12)
C3 C -0.3759(5) 0.8423(2) 0.21173(18)
O10 O 0.0175(4) 0.71431(16) -0.01682(12)
O11 O -0.7377(4) 1.04807(15) 0.00513(13)
C2D C -0.4015(6) 1.0010(2) -0.02109(17)
O2D O -0.3963(4) 1.05095(17) -0.06850(13)
O11D O -0.2623(4) 0.95193(15) -0.00513(13)
P1G P -0.48454(14) 0.76721(6) -0.05725(5)
O3G O -0.5619(4) 0.68325(16) -0.07196(13)
O4G O -0.2664(4) 0.77649(16) -0.08739(12)
O7G O -0.5977(4) 0.83548(18) -0.09747(15)
O10G O -0.4825(4) 0.78569(16) 0.01682(12)
Zn1D Zn -0.66688(7) 1.12492(2) -0.07365(2)
O1D O -0.7784(4) 1.04100(15) -0.26309(12)
O5D O -0.5535(4) 1.18356(15) -0.15697(12)
O6D O -0.7911(4) 1.05002(15) -0.15173(13)
C1D C -0.7410(6) 1.0750(2) -0.20929(18)
O8D O -0.6060(4) 1.19356(16) -0.26595(12)
C3D C -0.6241(5) 1.1577(2) -0.21173(18)
Zn1G Zn 0.16688(7) 0.62492(2) -0.07365(2)
Zn1G_2 Zn -0.83312(7) 0.62492(2) -0.07365(2)
O3D O -0.9381(4) 1.18325(16) -0.07196(13)
O10C O -0.5175(4) 1.21431(16) -0.01682(12)
O9 O -0.9567(4) 0.59842(17) 0.39106(16)
Na1 Na -0.3317(2) 0.88969(10) 0.35934(8)
O12 O -0.9146(5) 0.61656(16) 0.22274(14)
Na2 Na -1.1135(3) 0.69349(10) 0.30182(8)
loop_
_geom_bond_atom_site_label_1
_geom_bond_atom_site_label_2
_geom_bond_site_symmetry_1
_geom_bond_site_symmetry_2
Zn1 O2 1_555 1_555
P1 O3 1_555 1_555
O1 C1 1_555 1_555
O2 C2 1_555 1_555
O3 Zn1 1_555 1_555
O4 P1 1_555 1_555
O5 Zn1 1_555 1_555
O6 Zn1 1_555 1_555
C1 O6 1_555 1_555
O7 P1 1_555 1_555
C2 O11 1_555 1_555
O8 C3 1_555 1_555
C3 O5 1_555 1_555
O10 P1 1_555 1_555
O11 Zn1D 1_555 1_555
C2D C2 1_555 1_555
O2D C2D 1_555 1_555
O11D Zn1 1_555 1_555
P1G O3G 1_555 1_555
O3G Zn1G_2 1_555 1_555
O4G P1G 1_555 1_555
O7G P1G 1_555 1_555
O10G Zn1 1_555 1_555
Zn1D O2D 1_555 1_555
O1D C1D 1_555 1_555
O5D Zn1D 1_555 1_555
O6D Zn1D 1_555 1_555
C1D O6D 1_555 1_555
O8D C3D 1_555 1_555
C3D O5D 1_555 1_555
Zn1G O10 1_555 1_555
O3D Zn1D 1_555 1_555
O10C Zn1D 1_555 1_555
C1 C3 1_555 1_555
C2D O11D 1_555 1_555
P1G O10G 1_555 1_555
C1D C3D 1_555 1_555

#END
