
#######################################################################
#
#                 Cambridge Crystallographic Data Centre
#                                CCDC 
#
#######################################################################
#
# If this CIF has been generated from an entry in the Cambridge 
# Structural Database, then it will include bibliographic, chemical, 
# crystal, experimental, refinement or atomic coordinate data resulting 
# from the CCDC's data processing and validation procedures.
#
#######################################################################

data_OHUQAJ
_symmetry_cell_setting           triclinic
_symmetry_space_group_name_H-M   'P -1'
_symmetry_Int_Tables_number      2
_space_group_name_Hall           '-P 1'
loop_
_symmetry_equiv_pos_site_id
_symmetry_equiv_pos_as_xyz
1 x,y,z
2 -x,-y,-z
_cell_length_a                   10.1808(2)
_cell_length_b                   13.6420(3)
_cell_length_c                   20.9663(5)
_cell_angle_alpha                84.2560(10)
_cell_angle_beta                 79.7350(10)
_cell_angle_gamma                81.0310(10)
_cell_volume                     2822.45
loop_
_atom_site_label
_atom_site_type_symbol
_atom_site_fract_x
_atom_site_fract_y
_atom_site_fract_z
Zn1 Zn -1.22539(8) 0.14111(5) 0.16050(3)
Zn2 Zn -0.55497(6) 0.45138(5) -0.15461(3)
O1 O -1.2250(4) 0.2654(3) 0.10120(19)
O2 O -1.0062(5) 0.2159(4) 0.0869(2)
O3 O -0.7126(4) 0.4063(4) -0.0858(2)
O4 O -0.8024(5) 0.4919(4) -0.1641(3)
O5 O -1.2796(4) 0.4697(4) -0.1805(2)
O6 O -1.4093(4) 0.4019(3) -0.0985(2)
O7 O -1.1764(5) 0.1938(4) 0.2378(2)
O8 O -1.4179(5) 0.1387(4) 0.2046(2)
O9 O -0.5621(4) 0.5944(3) -0.1285(2)
N1 N -1.2516(7) 0.0631(5) 0.0801(3)
N2 N -1.1004(8) 0.0052(5) 0.1702(4)
N3 N -0.5321(5) 0.3136(4) -0.1989(3)
N4 N -0.5380(4) 0.4942(4) -0.2560(2)
C1 C -1.0907(6) 0.3353(4) 0.0084(3)
C2 C -0.9664(5) 0.3619(4) -0.0196(3)
H1 H -0.8933 0.3448 0.0023
H2 H -1.0460 0.4687 -0.1565
H3 H -1.2870 0.3417 -0.0054
H4 H -1.3862 0.1659 0.0432
H5 H -1.3805 0.0830 -0.0555
H6 H -1.2547 -0.0791 -0.0602
H7 H -1.1237 -0.1477 0.0178
H8 H -1.0184 -0.1983 0.0947
H9 H -0.8536 -0.2259 0.1597
H10 H -0.8760 -0.1208 0.2468
H11 H -1.0184 0.0368 0.2463
H12 H -0.5377 0.2218 -0.1178
H13 H -0.5210 0.0722 -0.1711
H14 H -0.5052 0.0872 -0.2847
H15 H -0.4973 0.2371 -0.3425
H16 H -0.5051 0.3856 -0.3911
H17 H -0.5183 0.5544 -0.4354
H18 H -0.5543 0.6846 -0.3637
H19 H -0.5549 0.6415 -0.2516
C3 C -0.9501(6) 0.4139(4) -0.0803(3)
C4 C -1.0584(6) 0.4355(4) -0.1135(3)
C5 C -1.1834(5) 0.4091(4) -0.0862(3)
C6 C -1.1993(5) 0.3593(4) -0.0250(3)
C7 C -1.1051(7) 0.2686(5) 0.0703(3)
C8 C -0.8121(7) 0.4401(5) -0.1123(4)
C9 C -1.2974(6) 0.4291(4) -0.1254(3)
C10 C -1.3261(9) 0.1002(6) 0.0354(4)
C11 C -1.3296(15) 0.0501(10) -0.0173(6)
C12 C -1.2527(18) -0.0415(13) -0.0215(7)
C13 C -1.1779(14) -0.0800(9) 0.0237(6)
C14 C -1.1785(9) -0.0268(6) 0.0742(4)
C15 C -1.0952(11) -0.0598(7) 0.1248(5)
C16 C -1.014(2) -0.1496(10) 0.1252(8)
C17 C -0.940(3) -0.1721(13) 0.1728(12)
C18 C -0.939(3) -0.1065(13) 0.2163(11)
C19 C -1.0246(18) -0.0179(9) 0.2158(7)
C20 C -0.5323(9) 0.2251(6) -0.1657(4)
C21 C -0.5200(11) 0.1383(6) -0.1955(5)
C22 C -0.5093(12) 0.1441(7) -0.2607(5)
C23 C -0.5086(10) 0.2333(7) -0.2953(4)
C24 C -0.5212(6) 0.3187(5) -0.2637(3)
C25 C -0.5251(6) 0.4212(5) -0.2956(3)
C26 C -0.5168(6) 0.4406(5) -0.3627(3)
C27 C -0.5281(7) 0.5376(7) -0.3877(3)
C28 C -0.5441(7) 0.6128(6) -0.3470(4)
C29 C -0.5469(6) 0.5879(5) -0.2811(3)
O6_2 O -0.4093(4) 0.4019(3) -0.0985(2)
Zn2_2 Zn -1.55497(6) 0.45138(5) -0.15461(3)
Zn3 Zn -1.12325(6) 1.24267(5) -0.51131(3)
O10 O -0.9634(4) 1.1593(3) -0.47545(19)
O11 O -0.8454(4) 1.2563(3) -0.5466(2)
O12 O -0.2624(4) 1.1516(3) -0.4685(2)
O13 O -0.3779(5) 1.2785(4) -0.5138(3)
O14 O -0.5181(4) 0.9000(3) -0.3307(2)
O15 O -0.7170(5) 0.8795(3) -0.3525(2)
O16 O -1.0810(4) 1.1710(3) -0.59786(19)
N5 N -1.1566(5) 1.3373(4) -0.4328(2)
N6 N -1.1314(4) 1.3869(3) -0.5590(2)
H20 H -0.6125 1.2464 -0.5209
H21 H -0.4155 1.0296 -0.4092
H22 H -0.8093 1.0262 -0.4229
H23 H -1.1560 1.2343 -0.3580
H24 H -1.1889 1.3470 -0.2763
H25 H -1.2053 1.5184 -0.3062
H26 H -1.1899 1.5762 -0.4173
H27 H -1.1943 1.6155 -0.5185
H28 H -1.1814 1.6481 -0.6325
H29 H -1.1288 1.5166 -0.6995
H30 H -1.1015 1.3515 -0.6515
C30 C -0.7284(5) 1.1419(4) -0.4756(3)
C31 C -0.6109(5) 1.1852(4) -0.4918(3)
C32 C -0.4952(5) 1.1454(4) -0.4668(3)
C33 C -0.4969(5) 1.0589(4) -0.4257(3)
C34 C -0.6140(5) 1.0140(4) -0.4083(2)
C35 C -0.7274(5) 1.0562(4) -0.4339(3)
C36 C -0.8535(6) 1.1893(4) -0.5016(3)
C37 C -0.3714(6) 1.1959(5) -0.4844(3)
C38 C -0.6156(6) 0.9240(4) -0.3613(3)
C39 C -1.1638(7) 1.3070(5) -0.3699(4)
C40 C -1.1830(7) 1.3717(7) -0.3218(3)
C41 C -1.1919(7) 1.4705(6) -0.3389(4)
C42 C -1.1835(6) 1.5038(5) -0.4036(4)
C43 C -1.1665(5) 1.4355(5) -0.4496(3)
C44 C -1.1579(5) 1.4626(4) -0.5205(3)
C45 C -1.1749(6) 1.5611(5) -0.5463(3)
C46 C -1.1654(7) 1.5798(5) -0.6123(4)
C47 C -1.1373(7) 1.5025(6) -0.6517(3)
C48 C -1.1210(6) 1.4067(5) -0.6231(3)
O12_2 O -1.2624(4) 1.1516(3) -0.4685(2)
Zn3_2 Zn -0.12325(6) 1.24267(5) -0.51131(3)
O17 O -0.2377(6) -0.2539(5) -0.1063(3)
O18 O -0.9367(5) 0.6465(4) -0.2262(2)
O19 O -0.7859(6) 0.3465(4) 0.2184(2)
O20 O -1.2884(5) 0.7621(4) -0.3281(2)
O21 O -0.5530(6) 1.3489(5) 0.0328(3)
O22 O -1.0957(6) 1.0151(4) -0.3991(3)
O23 O -1.2042(12) 0.9280(9) -0.2808(5)
O24 O -0.6270(6) 1.0879(5) 0.1615(3)
loop_
_geom_bond_atom_site_label_1
_geom_bond_atom_site_label_2
_geom_bond_site_symmetry_1
_geom_bond_site_symmetry_2
Zn1 O1 1_555 1_555
Zn2 O3 1_555 1_555
Zn3 O10 1_555 1_555
O1 C7 1_555 1_555
O2 C7 1_555 1_555
O3 C8 1_555 1_555
O4 C8 1_555 1_555
O5 C9 1_555 1_555
O6 C9 1_555 1_555
O7 Zn1 1_555 1_555
O8 Zn1 1_555 1_555
O9 Zn2 1_555 1_555
O10 C36 1_555 1_555
O11 C36 1_555 1_555
O12 C37 1_555 1_555
O13 C37 1_555 1_555
O14 C38 1_555 1_555
O15 C38 1_555 1_555
O16 Zn3 1_555 1_555
N1 Zn1 1_555 1_555
N2 Zn1 1_555 1_555
N3 Zn2 1_555 1_555
N4 Zn2 1_555 1_555
N5 Zn3 1_555 1_555
N6 Zn3 1_555 1_555
C1 C2 1_555 1_555
C2 H1 1_555 1_555
H2 C4 1_555 1_555
H3 C6 1_555 1_555
H4 C10 1_555 1_555
H5 C11 1_555 1_555
H6 C12 1_555 1_555
H7 C13 1_555 1_555
H8 C16 1_555 1_555
H9 C17 1_555 1_555
H10 C18 1_555 1_555
H11 C19 1_555 1_555
H12 C20 1_555 1_555
H13 C21 1_555 1_555
H14 C22 1_555 1_555
H15 C23 1_555 1_555
H16 C26 1_555 1_555
H17 C27 1_555 1_555
H18 C28 1_555 1_555
H19 C29 1_555 1_555
H20 C31 1_555 1_555
H21 C33 1_555 1_555
H22 C35 1_555 1_555
H23 C39 1_555 1_555
H24 C40 1_555 1_555
H25 C41 1_555 1_555
H26 C42 1_555 1_555
H27 C45 1_555 1_555
H28 C46 1_555 1_555
H29 C47 1_555 1_555
H30 C48 1_555 1_555
C3 C2 1_555 1_555
C4 C3 1_555 1_555
C5 C4 1_555 1_555
C6 C1 1_555 1_555
C7 C1 1_555 1_555
C8 C3 1_555 1_555
C9 C5 1_555 1_555
C10 N1 1_555 1_555
C11 C10 1_555 1_555
C12 C11 1_555 1_555
C13 C12 1_555 1_555
C14 N1 1_555 1_555
C15 N2 1_555 1_555
C16 C15 1_555 1_555
C17 C16 1_555 1_555
C18 C17 1_555 1_555
C19 N2 1_555 1_555
C20 N3 1_555 1_555
C21 C20 1_555 1_555
C22 C21 1_555 1_555
C23 C22 1_555 1_555
C24 N3 1_555 1_555
C25 N4 1_555 1_555
C26 C25 1_555 1_555
C27 C26 1_555 1_555
C28 C27 1_555 1_555
C29 N4 1_555 1_555
C30 C31 1_555 1_555
C31 C32 1_555 1_555
C32 C33 1_555 1_555
C33 C34 1_555 1_555
C34 C35 1_555 1_555
C35 C30 1_555 1_555
C36 C30 1_555 1_555
C37 C32 1_555 1_555
C38 C34 1_555 1_555
C39 N5 1_555 1_555
C40 C39 1_555 1_555
C41 C40 1_555 1_555
C42 C41 1_555 1_555
C43 N5 1_555 1_555
C44 N6 1_555 1_555
C45 C44 1_555 1_555
C46 C45 1_555 1_555
C47 C46 1_555 1_555
C48 N6 1_555 1_555
O6_2 Zn2 1_555 1_555
O12_2 Zn3 1_555 1_555
Zn2_2 O6 1_555 1_555
Zn3_2 O12 1_555 1_555
C5 C6 1_555 1_555
C13 C14 1_555 1_555
C14 C15 1_555 1_555
C18 C19 1_555 1_555
C23 C24 1_555 1_555
C24 C25 1_555 1_555
C28 C29 1_555 1_555
C42 C43 1_555 1_555
C43 C44 1_555 1_555
C47 C48 1_555 1_555

#END
