
#######################################################################
#
#                 Cambridge Crystallographic Data Centre
#                                CCDC 
#
#######################################################################
#
# If this CIF has been generated from an entry in the Cambridge 
# Structural Database, then it will include bibliographic, chemical, 
# crystal, experimental, refinement or atomic coordinate data resulting 
# from the CCDC's data processing and validation procedures.
#
#######################################################################

data_OHUQUE
_symmetry_cell_setting           monoclinic
_symmetry_space_group_name_H-M   'P 21'
_symmetry_Int_Tables_number      4
_space_group_name_Hall           'P 2yb'
loop_
_symmetry_equiv_pos_site_id
_symmetry_equiv_pos_as_xyz
1 x,y,z
2 -x,1/2+y,-z
_cell_length_a                   18.6048(4)
_cell_length_b                   12.4654(3)
_cell_length_c                   21.7405(5)
_cell_angle_alpha                90
_cell_angle_beta                 91.489(2)
_cell_angle_gamma                90
_cell_volume                     5040.27
loop_
_atom_site_label
_atom_site_type_symbol
_atom_site_fract_x
_atom_site_fract_y
_atom_site_fract_z
N1 N 0.0847(3) -0.0668(5) 0.0987(3)
C1 C 0.0792(4) -0.1733(6) 0.1106(3)
H1 H 0.0331 -0.2021 0.1186
C2 C 0.1374(4) -0.2414(6) 0.1116(3)
H2 H 0.1314 -0.3153 0.1210
C3 C 0.2057(4) -0.2011(6) 0.0987(4)
C4 C 0.2103(4) -0.0928(6) 0.0861(3)
H3 H 0.2557 -0.0622 0.0773
C5 C 0.1493(4) -0.0276(6) 0.0860(3)
H4 H 0.1539 0.0465 0.0768
N2 N 0.3934(3) -0.3980(5) 0.0996(3)
C6 C 0.3285(4) -0.4390(6) 0.0819(3)
H5 H 0.3255 -0.5116 0.0689
C7 C 0.2660(4) -0.3768(6) 0.0824(4)
H6 H 0.2210 -0.4069 0.0702
C8 C 0.2707(4) -0.2705(6) 0.1009(4)
C9 C 0.3379(4) -0.2310(6) 0.1188(3)
H7 H 0.3428 -0.1582 0.1310
C10 C 0.3972(4) -0.2968(6) 0.1191(4)
H8 H 0.4421 -0.2693 0.1336
N3 N 0.9024(3) -0.8733(5) 0.0887(3)
C11 C 0.8374(4) -0.9191(6) 0.0967(4)
H9 H 0.8353 -0.9920 0.1093
C12 C 0.7742(4) -0.8633(6) 0.0873(4)
H10 H 0.7294 -0.8981 0.0925
C13 C 0.7764(4) -0.7562(6) 0.0702(4)
C14 C 0.8437(4) -0.7083(6) 0.0616(3)
H11 H 0.8475 -0.6352 0.0498
C15 C 0.9043(4) -0.7710(6) 0.0709(4)
H12 H 0.9499 -0.7393 0.0643
N4 N 0.5839(3) -0.5665(5) 0.0624(3)
C16 C 0.6467(4) -0.5282(6) 0.0865(4)
H13 H 0.6470 -0.4580 0.1035
C17 C 0.7099(4) -0.5848(6) 0.0878(3)
H14 H 0.7527 -0.5540 0.1047
C18 C 0.7099(4) -0.6878(6) 0.0641(4)
C19 C 0.6461(4) -0.7280(6) 0.0392(3)
H15 H 0.6443 -0.7990 0.0233
C20 C 0.5852(4) -0.6647(6) 0.0374(4)
H16 H 0.5427 -0.6917 0.0178
N5 N 0.0914(3) -0.4551(5) 0.2525(3)
C21 C 0.1579(4) -0.4880(7) 0.2390(3)
H17 H 0.1644 -0.5603 0.2264
C22 C 0.2181(4) -0.4207(6) 0.2425(4)
H18 H 0.2642 -0.4472 0.2326
C23 C 0.2096(4) -0.3153(6) 0.2605(4)
C24 C 0.1404(4) -0.2793(6) 0.2722(4)
H19 H 0.1322 -0.2063 0.2824
C25 C 0.0837(4) -0.3512(6) 0.2687(4)
H20 H 0.0371 -0.3262 0.2782
N6 N 0.3940(3) -0.1065(5) 0.2665(3)
C26 C 0.3988(4) -0.2118(6) 0.2817(4)
H21 H 0.4448 -0.2396 0.2932
C27 C 0.3418(4) -0.2797(6) 0.2815(3)
H22 H 0.3483 -0.3531 0.2920
C28 C 0.2732(4) -0.2400(6) 0.2655(4)
C29 C 0.2672(4) -0.1309(6) 0.2528(4)
H23 H 0.2215 -0.1002 0.2437
C30 C 0.3269(4) -0.0684(6) 0.2536(3)
H24 H 0.3215 0.0058 0.2446
N7 N 0.9093(3) 0.3558(5) 0.2524(3)
C31 C 0.9101(4) 0.2505(6) 0.2405(3)
H25 H 0.9552 0.2160 0.2357
C32 C 0.8479(4) 0.1897(6) 0.2349(3)
H26 H 0.8506 0.1143 0.2291
C33 C 0.7808(4) 0.2412(6) 0.2380(3)
C34 C 0.7810(4) 0.3493(6) 0.2508(3)
H27 H 0.7368 0.3868 0.2543
C35 C 0.8461(4) 0.4041(6) 0.2586(3)
H28 H 0.8452 0.4782 0.2686
N8 N 0.5830(3) 0.0672(5) 0.2321(3)
C36 C 0.6441(4) 0.0235(7) 0.2552(3)
H29 H 0.6420 -0.0465 0.2723
C37 C 0.7098(4) 0.0753(6) 0.2553(4)
H30 H 0.7522 0.0405 0.2702
C38 C 0.7121(4) 0.1800(6) 0.2329(4)
C39 C 0.6502(4) 0.2251(6) 0.2087(4)
H31 H 0.6506 0.2962 0.1930
C40 C 0.5867(4) 0.1652(6) 0.2076(4)
H32 H 0.5447 0.1952 0.1887
N9 N 0.9170(3) -0.5820(5) 0.5862(3)
C41 C 0.9201(4) -0.6861(6) 0.5759(4)
H33 H 0.9660 -0.7190 0.5737
C42 C 0.8604(4) -0.7490(6) 0.5682(4)
H34 H 0.8658 -0.8237 0.5609
C43 C 0.7924(4) -0.7052(6) 0.5710(4)
C44 C 0.7884(4) -0.5943(6) 0.5817(4)
H35 H 0.7431 -0.5597 0.5847
C45 C 0.8521(4) -0.5359(6) 0.5879(4)
H36 H 0.8493 -0.4605 0.5935
N10 N 0.6019(3) -0.8994(5) 0.5664(3)
C46 C 0.6660(4) -0.9410(6) 0.5807(4)
H37 H 0.6687 -1.0149 0.5912
C47 C 0.7286(4) -0.8817(6) 0.5810(4)
H38 H 0.7734 -0.9151 0.5908
C48 C 0.7260(4) -0.7716(6) 0.5668(4)
C49 C 0.6595(4) -0.7297(6) 0.5516(3)
H39 H 0.6548 -0.6559 0.5414
C50 C 0.5990(4) -0.7956(6) 0.5511(4)
H40 H 0.5537 -0.7655 0.5393
N11 N 1.1029(3) -0.4000(6) 0.5975(3)
C51 C 1.1688(4) -0.4434(7) 0.5982(4)
H41 H 1.1725 -0.5194 0.5984
C52 C 1.2313(4) -0.3847(7) 0.5988(4)
H42 H 1.2767 -0.4193 0.5980
C53 C 1.2263(4) -0.2723(7) 0.6004(4)
C54 C 1.1590(4) -0.2272(7) 0.5996(4)
H43 H 1.1540 -0.1513 0.5999
C55 C 1.0992(4) -0.2911(7) 0.5982(4)
H44 H 1.0532 -0.2580 0.5976
N12 N 1.4160(3) -0.0750(5) 0.6019(3)
C56 C 1.4178(4) -0.1743(6) 0.6266(3)
H45 H 1.4617 -0.1999 0.6443
C57 C 1.3582(4) -0.2397(6) 0.6269(3)
H46 H 1.3620 -0.3100 0.6436
C58 C 1.2912(4) -0.2032(6) 0.6024(3)
C59 C 1.2905(4) -0.0982(6) 0.5786(3)
H47 H 1.2470 -0.0682 0.5624
C60 C 1.3524(4) -0.0398(6) 0.5787(3)
H48 H 1.3507 0.0302 0.5614
Ni1 Ni 0.48698(5) -0.01574(7) 0.24844(4)
Ni2 Ni 1.01081(5) -0.49194(8) 0.59391(4)
Ni3 Ni 0.00284(5) -0.55629(8) 0.25290(4)
Ni4 Ni -0.00578(5) 0.03199(8) 0.09742(4)
Ni5 Ni 0.48853(5) -0.48418(7) 0.08051(4)
Ni6 Ni 0.49181(5) -0.48820(8) 0.41660(4)
O1 O 0.9429(3) -0.1774(4) 0.6991(2)
O2 O 0.5479(3) -0.3391(4) -0.0882(2)
O3 O 0.6367(3) -0.2574(4) -0.0003(2)
O4 O 0.7153(3) -0.2409(4) -0.0832(2)
O5 O 0.2056(3) -0.6322(4) -0.0066(2)
O6 O 0.7911(3) -0.3514(5) 0.0023(2)
O7 O 0.7125(3) -0.2530(4) 0.0854(2)
O8 O 0.6323(3) -0.2584(4) 0.1668(2)
O9 O 0.5433(3) -0.3437(4) 0.0802(2)
O10 O 0.5613(3) -0.1318(4) 0.0820(3)
O11 O 0.7768(3) -0.1339(4) 0.1731(3)
O12 O 0.8045(3) -0.3474(4) 0.1725(2)
O13 O 0.7091(3) -0.2594(4) 0.2520(2)
O14 O 0.5443(3) -0.1561(4) 0.2448(2)
O15 O 0.5562(3) -0.3688(4) 0.2544(3)
O16 O 0.6329(3) -0.2385(4) 0.3334(2)
O17 O 0.8112(3) -0.1702(4) 0.3274(2)
O18 O 0.7666(3) -0.3762(5) 0.3466(3)
O19 O 0.7126(3) -0.2176(4) 0.4177(2)
O20 O 0.5531(3) -0.1370(4) 0.4232(2)
O21 O 0.5489(3) -0.3493(4) 0.4103(2)
O22 O 0.7954(3) -0.1257(4) 0.5093(2)
O23 O 0.7903(3) -0.3448(5) 0.4947(3)
O24 O 0.6375(3) -0.2688(4) 0.4988(2)
O25 O 0.7150(3) -0.2490(4) 0.5840(2)
O26 O 0.5481(3) -0.3412(4) 0.5868(2)
O27 O 0.4360(3) -0.6294(4) 0.4259(2)
O28 O 0.3638(3) 0.2653(4) 0.3340(2)
O29 O 0.8199(3) -0.3035(4) 0.6668(2)
O30 O 0.7653(3) -0.1018(5) 0.6644(3)
O31 O 0.2821(3) 0.2549(4) 0.2496(2)
O32 O 0.4565(3) 0.3383(4) 0.2513(2)
O33 O 0.9418(3) -0.4363(4) 0.2142(3)
O34 O 0.4309(3) 0.1255(4) 0.2529(3)
O35 O 0.6362(3) -0.2443(4) -0.1678(2)
O36 O 0.1756(3) -0.7102(5) 0.1622(2)
O37 O 0.9613(3) -0.3800(4) 0.6540(2)
O38 O 0.0622(3) -0.5876(4) -0.0543(2)
O39 O 0.0507(3) -0.8472(4) 0.1479(2)
O40 O 0.4351(3) -0.6260(4) 0.0808(2)
O41 O 0.0757(3) -0.7070(4) 0.0557(2)
O42 O 0.1073(3) -0.4881(5) 0.0467(2)
O43 O 0.9058(3) 0.0016(5) 0.5687(3)
O44 O 0.9375(3) -0.0981(4) 0.4645(2)
O45 O 0.9384(3) -0.2902(4) 0.3510(2)
O46 O 0.9512(3) -0.0773(4) 0.3325(3)
O47 O 0.9204(3) -0.2136(4) 0.2307(2)
O48 O 0.9376(3) -0.3129(4) 0.1148(3)
O49 O 0.2472(3) 0.1011(5) 0.1647(3)
O50 O 0.0358(3) -0.6342(4) 0.1743(3)
O51 O 0.9208(3) -0.2221(4) 0.5724(2)
O52 O 0.4609(3) -0.0275(4) 0.1548(2)
O53 O 0.5139(3) 0.0080(5) 0.3394(2)
O54 O 0.4616(3) -0.4799(4) 0.3244(2)
O55 O 0.5243(3) -0.5039(4) 0.5071(2)
O56 O 0.5150(3) -0.5138(5) 0.1711(2)
O57 O 0.4607(3) -0.4572(4) -0.0109(2)
O58 O 0.9756(3) -0.4054(5) 0.5165(3)
O59 O -0.0217(3) -0.4987(4) 0.3413(2)
O60 O -0.0381(3) -0.0196(4) 0.1830(2)
O61 O 0.0281(3) 0.0889(4) 0.0124(2)
V1 V 0.74142(6) -0.24809(10) 0.00308(6)
V2 V 0.60691(6) -0.24189(10) -0.08467(5)
V3 V 0.26103(7) 0.22763(10) 0.16488(6)
V4 V 0.39314(6) 0.24560(10) 0.25188(5)
V5 V 0.74029(7) -0.22402(10) 0.66751(6)
V6 V 0.60709(6) -0.24458(10) 0.58088(5)
V7 V 0.60428(6) -0.24667(10) 0.08170(5)
V8 V 0.73853(7) -0.24848(10) 0.16981(5)
V9 V 0.60179(6) -0.25694(10) 0.24897(5)
V10 V 0.73732(6) -0.25666(10) 0.33600(5)
V11 V 0.60343(6) -0.24442(10) 0.41593(5)
V12 V 0.74121(6) -0.24037(10) 0.49976(6)
V13 V 0.11133(7) -0.59919(10) 0.00919(6)
V14 V 0.08204(7) -0.72470(10) 0.13723(6)
V15 V 0.91236(7) -0.26846(10) 0.65038(6)
V16 V 0.89148(7) -0.10665(10) 0.52811(6)
V17 V 0.90741(7) -0.18869(10) 0.31130(6)
V18 V 0.90376(7) -0.33102(10) 0.18121(6)
N3_2 N -0.0976(3) 0.1267(5) 0.0887(3)
N7_2 N -0.0907(3) -0.6442(5) 0.2524(3)
N10A N 0.3981(3) -0.3994(5) 0.4336(3)
N12A N 0.5840(3) -0.5750(5) 0.3981(3)
Ni2A Ni 0.98919(5) 0.00806(8) 0.40609(4)
Ni3_2 Ni 1.00284(5) 0.44371(8) 0.25290(4)
Ni3A Ni 0.99716(5) -0.05629(8) 0.74710(4)
Ni3_3 Ni 1.00284(5) -0.55629(8) 0.25290(4)
Ni4_2 Ni 0.99422(5) -0.96801(8) 0.09742(4)
Ni4A Ni 0.00578(5) -0.46801(8) -0.09742(4)
Ni4_3 Ni -0.00578(5) -0.96801(8) 0.09742(4)
Ni6A Ni 0.50819(5) -0.98820(8) 0.58340(4)
Ni6A_2 Ni 1.50819(5) 0.01180(8) 0.58340(4)
O1A O 0.0571(3) -0.6774(4) 0.3009(2)
O4A O 0.2847(3) 0.2591(4) 0.0832(2)
O5A O 0.7944(3) -0.1322(4) 0.0066(2)
O27A O 0.5640(3) -0.1294(4) 0.5741(2)
O28A O 0.6362(3) -0.2347(4) 0.6660(2)
O31A O 0.7179(3) -0.2451(4) 0.7504(2)
O33_2 O -0.0582(3) -0.4363(4) 0.2142(3)
O35A O 0.3638(3) 0.2557(4) 0.1678(2)
O36_2 O 0.1756(3) 0.2898(5) 0.1622(2)
O38A O -0.0622(3) -0.0876(4) 0.0543(2)
O39_2 O 0.0507(3) 0.1528(4) 0.1479(2)
O40A O 0.5649(3) -0.1260(4) -0.0808(2)
O44A O 1.0625(3) -0.5981(4) 0.5355(2)
O46A O 1.0488(3) -0.5773(4) 0.6675(3)
V1A V 0.25858(6) -0.74809(10) -0.00308(6)
V2A V 0.39309(6) -0.74189(10) 0.08467(5)
V3A V 0.73897(7) -0.27237(10) -0.16488(6)
V3_2 V 0.26103(7) -0.77237(10) 0.16488(6)
V4A V 0.60686(6) -0.25440(10) -0.25188(5)
V5A V 0.25971(7) 0.27598(10) 0.33249(6)
V6A V 0.39291(6) -0.74458(10) 0.41912(5)
V6A_2 V 0.39291(6) 0.25542(10) 0.41912(5)
O62 O 0.8825(7) 0.5105(11) 0.4351(6)
O63 O 0.0935(3) 0.9918(5) 0.2476(3)
loop_
_geom_bond_atom_site_label_1
_geom_bond_atom_site_label_2
_geom_bond_site_symmetry_1
_geom_bond_site_symmetry_2
N1 C1 1_555 1_555
C1 H1 1_555 1_555
C2 C1 1_555 1_555
H2 C2 1_555 1_555
C3 C2 1_555 1_555
C4 C3 1_555 1_555
H3 C4 1_555 1_555
C5 N1 1_555 1_555
H4 C5 1_555 1_555
N2 C6 1_555 1_555
C6 H5 1_555 1_555
C7 C6 1_555 1_555
H6 C7 1_555 1_555
C8 C3 1_555 1_555
C9 C8 1_555 1_555
H7 C9 1_555 1_555
C10 N2 1_555 1_555
H8 C10 1_555 1_555
N3 C11 1_555 1_555
C11 H9 1_555 1_555
C12 C11 1_555 1_555
H10 C12 1_555 1_555
C13 C12 1_555 1_555
C14 C13 1_555 1_555
H11 C14 1_555 1_555
C15 N3 1_555 1_555
H12 C15 1_555 1_555
N4 C16 1_555 1_555
C16 H13 1_555 1_555
C17 C16 1_555 1_555
H14 C17 1_555 1_555
C18 C13 1_555 1_555
C19 C18 1_555 1_555
H15 C19 1_555 1_555
C20 N4 1_555 1_555
H16 C20 1_555 1_555
N5 C21 1_555 1_555
C21 H17 1_555 1_555
C22 C21 1_555 1_555
H18 C22 1_555 1_555
C23 C22 1_555 1_555
C24 C23 1_555 1_555
H19 C24 1_555 1_555
C25 N5 1_555 1_555
H20 C25 1_555 1_555
N6 C26 1_555 1_555
C26 H21 1_555 1_555
C27 C26 1_555 1_555
H22 C27 1_555 1_555
C28 C23 1_555 1_555
C29 C28 1_555 1_555
H23 C29 1_555 1_555
C30 N6 1_555 1_555
H24 C30 1_555 1_555
N7 C31 1_555 1_555
C31 H25 1_555 1_555
C32 C31 1_555 1_555
H26 C32 1_555 1_555
C33 C32 1_555 1_555
C34 C33 1_555 1_555
H27 C34 1_555 1_555
C35 N7 1_555 1_555
H28 C35 1_555 1_555
N8 C36 1_555 1_555
C36 H29 1_555 1_555
C37 C36 1_555 1_555
H30 C37 1_555 1_555
C38 C33 1_555 1_555
C39 C38 1_555 1_555
H31 C39 1_555 1_555
C40 N8 1_555 1_555
H32 C40 1_555 1_555
N9 C41 1_555 1_555
C41 H33 1_555 1_555
C42 C41 1_555 1_555
H34 C42 1_555 1_555
C43 C42 1_555 1_555
C44 C43 1_555 1_555
H35 C44 1_555 1_555
C45 N9 1_555 1_555
H36 C45 1_555 1_555
N10 C46 1_555 1_555
C46 H37 1_555 1_555
C47 C46 1_555 1_555
H38 C47 1_555 1_555
C48 C43 1_555 1_555
C49 C48 1_555 1_555
H39 C49 1_555 1_555
C50 N10 1_555 1_555
H40 C50 1_555 1_555
N11 C51 1_555 1_555
C51 H41 1_555 1_555
C52 C51 1_555 1_555
H42 C52 1_555 1_555
C53 C52 1_555 1_555
C54 C53 1_555 1_555
H43 C54 1_555 1_555
C55 N11 1_555 1_555
H44 C55 1_555 1_555
N12 C56 1_555 1_555
C56 H45 1_555 1_555
C57 C56 1_555 1_555
H46 C57 1_555 1_555
C58 C53 1_555 1_555
C59 C58 1_555 1_555
H47 C59 1_555 1_555
C60 N12 1_555 1_555
H48 C60 1_555 1_555
Ni1 N6 1_555 1_555
Ni2 N9 1_555 1_555
Ni3 N5 1_555 1_555
Ni4 N1 1_555 1_555
Ni5 N2 1_555 1_555
Ni6 O21 1_555 1_555
O1 V15 1_555 1_555
O2 V2 1_555 1_555
O3 V1 1_555 1_555
O4 V1 1_555 1_555
O5 V13 1_555 1_555
O6 V1 1_555 1_555
O7 V1 1_555 1_555
O8 V7 1_555 1_555
O9 Ni5 1_555 1_555
O10 V7 1_555 1_555
O11 V8 1_555 1_555
O12 V8 1_555 1_555
O13 V8 1_555 1_555
O14 Ni1 1_555 1_555
O15 V9 1_555 1_555
O16 V9 1_555 1_555
O17 V10 1_555 1_555
O18 V10 1_555 1_555
O19 V10 1_555 1_555
O20 V11 1_555 1_555
O21 V11 1_555 1_555
O22 V12 1_555 1_555
O23 V12 1_555 1_555
O24 V6 1_555 1_555
O25 V5 1_555 1_555
O26 V6 1_555 1_555
O27 Ni6 1_555 1_555
O28 V4 1_555 1_555
O29 V5 1_555 1_555
O30 V5 1_555 1_555
O31 V3 1_555 1_555
O32 V4 1_555 1_555
O33 V18 1_555 1_555
O34 Ni1 1_555 1_555
O35 V2 1_555 1_555
O36 V14 1_555 1_555
O37 Ni2 1_555 1_555
O38 V13 1_555 1_555
O39 V14 1_555 1_555
O40 Ni5 1_555 1_555
O41 V13 1_555 1_555
O42 V13 1_555 1_555
O43 V16 1_555 1_555
O44 V16 1_555 1_555
O45 V17 1_555 1_555
O46 V17 1_555 1_555
O47 V17 1_555 1_555
O48 V18 1_555 1_555
O49 V3 1_555 1_555
O50 Ni3 1_555 1_555
O51 V15 1_555 1_555
O52 Ni1 1_555 1_555
O53 Ni1 1_555 1_555
O54 Ni6 1_555 1_555
O55 Ni6 1_555 1_555
O56 Ni5 1_555 1_555
O57 Ni5 1_555 1_555
O58 Ni2 1_555 1_555
O59 Ni3 1_555 1_555
O60 Ni4 1_555 1_555
O61 Ni4 1_555 1_555
V1 O5A 1_555 1_555
V2 O3 1_555 1_555
V3 O4A 1_555 1_555
V4 O31 1_555 1_555
V5 O28A 1_555 1_555
V6 O25 1_555 1_555
V7 O3 1_555 1_555
V8 O7 1_555 1_555
V9 O8 1_555 1_555
V10 O13 1_555 1_555
V11 O16 1_555 1_555
V12 O19 1_555 1_555
V14 O41 1_555 1_555
V15 O29 1_555 1_555
V16 O22 1_555 1_555
V17 O17 1_555 1_555
V18 O12 1_555 1_555
N3_2 Ni4 1_555 1_555
N7_2 Ni3 1_555 1_555
N10A Ni6 1_555 1_555
N12A Ni6 1_555 1_555
Ni2A O44 1_555 1_555
Ni3_2 N7 1_555 1_555
Ni3A O1 1_555 1_555
Ni3_3 O33 1_555 1_555
Ni4_2 N3 1_555 1_555
Ni4A O38 1_555 1_555
Ni4_3 O39 1_555 1_555
Ni6A N10 1_555 1_555
Ni6A_2 N12 1_555 1_555
O1A Ni3 1_555 1_555
O27A V6 1_555 1_555
O28A V6 1_555 1_555
O31A V5 1_555 1_555
O33_2 Ni3 1_555 1_555
O35A V3 1_555 1_555
O36_2 V3 1_555 1_555
O38A Ni4 1_555 1_555
O39_2 Ni4 1_555 1_555
O40A V2 1_555 1_555
O44A Ni2 1_555 1_555
O46A Ni2 1_555 1_555
V1A O5 1_555 1_555
V2A O40 1_555 1_555
V3A O4 1_555 1_555
V3_2 O36 1_555 1_555
V4A O35 1_555 1_555
V5A O28 1_555 1_555
V6A O27 1_555 1_555
V6A_2 O28 1_555 1_555
C4 C5 1_555 1_555
C7 C8 1_555 1_555
C9 C10 1_555 1_555
C14 C15 1_555 1_555
N4 Ni5 1_555 1_555
C17 C18 1_555 1_555
C19 C20 1_555 1_555
C24 C25 1_555 1_555
C27 C28 1_555 1_555
C29 C30 1_555 1_555
C34 C35 1_555 1_555
N8 Ni1 1_555 1_555
C37 C38 1_555 1_555
C39 C40 1_555 1_555
C44 C45 1_555 1_555
C47 C48 1_555 1_555
C49 C50 1_555 1_555
N11 Ni2 1_555 1_555
C54 C55 1_555 1_555
C57 C58 1_555 1_555
C59 C60 1_555 1_555
O4 V2 1_555 1_555
O7 V7 1_555 1_555
O8 V8 1_555 1_555
O9 V7 1_555 1_555
O13 V9 1_555 1_555
O14 V9 1_555 1_555
O16 V10 1_555 1_555
O19 V11 1_555 1_555
O24 V11 1_555 1_555
O24 V12 1_555 1_555
O25 V12 1_555 1_555
O31 V5A 1_555 1_555
O34 V4 1_555 1_555
O35 V3A 1_555 1_555
O37 V15 1_555 1_555
O46 Ni2A 1_555 1_555
O47 V18 1_555 1_555
O50 V14 1_555 1_555
O51 V16 1_555 1_555
V4 O35A 1_555 1_555

#END
