
#######################################################################
#
#                 Cambridge Crystallographic Data Centre
#                                CCDC 
#
#######################################################################
#
# If this CIF has been generated from an entry in the Cambridge 
# Structural Database, then it will include bibliographic, chemical, 
# crystal, experimental, refinement or atomic coordinate data resulting 
# from the CCDC's data processing and validation procedures.
#
#######################################################################

data_OHUVIY
_symmetry_cell_setting           monoclinic
_symmetry_space_group_name_H-M   'P 21/a'
_symmetry_Int_Tables_number      14
_space_group_name_Hall           '-P 2yab'
loop_
_symmetry_equiv_pos_site_id
_symmetry_equiv_pos_as_xyz
1 x,y,z
2 1/2-x,1/2+y,-z
3 -x,-y,-z
4 1/2+x,1/2-y,z
_cell_length_a                   6.2891(4)
_cell_length_b                   6.3974(4)
_cell_length_c                   10.3618(6)
_cell_angle_alpha                90
_cell_angle_beta                 94.526(6)
_cell_angle_gamma                90
_cell_volume                     415.595
loop_
_atom_site_label
_atom_site_type_symbol
_atom_site_fract_x
_atom_site_fract_y
_atom_site_fract_z
C1 C 0.0849(14) 0.4131(14) 0.5121(8)
O1 O 0.1351(9) 0.3587(10) 0.6302(6)
H1 H 0.065(15) 0.404(16) 0.692(7)
O2 O 0.1696(10) 0.3373(10) 0.4213(6)
C2 C -0.0578(14) 0.5465(12) 0.0563(8)
O3 O 0.0109(11) 0.4813(9) 0.1682(6)
O4 O -0.2041(9) 0.6749(10) 0.0341(6)
Tl1 Tl 0.44987(6) 0.46035(6) 0.19890(4)
C1B C -0.0849(14) 0.5869(14) 0.4879(8)
O1B O -0.1351(9) 0.6413(10) 0.3698(6)
H1B H -0.065(15) 0.596(16) 0.308(7)
O2B O -0.1696(10) 0.6627(10) 0.5787(6)
C2B C 0.0578(14) 0.4535(12) -0.0563(8)
O3B O -0.0109(11) 0.5187(9) -0.1682(6)
O4B O 0.2041(9) 0.3251(10) -0.0341(6)
Tl1B Tl -0.44987(6) 0.53965(6) -0.19890(4)
O2B_2 O -0.1696(10) 0.6627(10) -0.4213(6)
O3A O -0.5109(11) 0.9813(9) -0.1682(6)
O3C O 0.5109(11) 0.0187(9) 0.1682(6)
O4A O -0.2959(9) 0.1749(10) -0.0341(6)
O4C O 0.2959(9) 0.8251(10) 0.0341(6)
Tl1A Tl 0.05013(6) -0.03965(6) -0.19890(4)
Tl1A_2 Tl 0.05013(6) 0.96035(6) -0.19890(4)
Tl1B_2 Tl -0.44987(6) 0.53965(6) 0.80110(4)
Tl1C Tl -0.05013(6) 0.03965(6) 0.19890(4)
Tl1C_2 Tl -0.05013(6) 1.03965(6) 0.19890(4)
loop_
_geom_bond_atom_site_label_1
_geom_bond_atom_site_label_2
_geom_bond_site_symmetry_1
_geom_bond_site_symmetry_2
C1 O1 1_555 1_555
O1 H1 1_555 1_555
O2 C1 1_555 1_555
C2 O3 1_555 1_555
O3 Tl1 1_555 1_555
O4 C2 1_555 1_555
Tl1 O2 1_555 1_555
C1B C1 1_555 1_555
O1B C1B 1_555 1_555
H1B O1B 1_555 1_555
O2B C1B 1_555 1_555
C2B C2 1_555 1_555
O3B C2B 1_555 1_555
O4B Tl1 1_555 1_555
Tl1B O4 1_555 1_555
O2B_2 Tl1B 1_555 1_555
O3A Tl1B 1_555 1_555
O3C Tl1 1_555 1_555
O4A Tl1B 1_555 1_555
O4C Tl1 1_555 1_555
Tl1A O4B 1_555 1_555
Tl1A_2 O3B 1_555 1_555
Tl1B_2 O2B 1_555 1_555
Tl1C O3 1_555 1_555
Tl1C_2 O4 1_555 1_555
C2B O4B 1_555 1_555
O3B Tl1B 1_555 1_555
O4A Tl1C 1_555 1_555
O4C Tl1A_2 1_555 1_555

#END
