
#######################################################################
#
#                 Cambridge Crystallographic Data Centre
#                                CCDC 
#
#######################################################################
#
# If this CIF has been generated from an entry in the Cambridge 
# Structural Database, then it will include bibliographic, chemical, 
# crystal, experimental, refinement or atomic coordinate data resulting 
# from the CCDC's data processing and validation procedures.
#
#######################################################################

data_OHUVUK
_symmetry_cell_setting           monoclinic
_symmetry_space_group_name_H-M   'P 21'
_symmetry_Int_Tables_number      4
_space_group_name_Hall           'P 2yb'
loop_
_symmetry_equiv_pos_site_id
_symmetry_equiv_pos_as_xyz
1 x,y,z
2 -x,1/2+y,-z
_cell_length_a                   7.6546(2)
_cell_length_b                   7.5178(2)
_cell_length_c                   8.0420(3)
_cell_angle_alpha                90
_cell_angle_beta                 108.302(3)
_cell_angle_gamma                90
_cell_volume                     439.373
loop_
_atom_site_label
_atom_site_type_symbol
_atom_site_fract_x
_atom_site_fract_y
_atom_site_fract_z
Zn1 Zn 0.19543(3) 0.0030(7) 0.92497(3)
N1 N 0.2243(4) 0.003(2) 0.5493(4)
N2 N -0.0505(10) 0.2996(4) 1.0191(9)
N3 N 0.4388(2) 0.0029(16) 1.1098(2)
N4 N 0.6421(3) -0.004(2) 1.3694(3)
C1 C 0.2166(3) -0.007(3) 0.6860(3)
C2 C 0.0413(13) 0.1983(7) 0.9803(12)
C3 C 0.4642(3) 0.007(3) 1.2782(3)
H1 H 0.3701 0.0173 1.3280
C4 C 0.7359(3) -0.004(2) 1.2519(4)
H2 H 0.8627 -0.0129 1.2765
C5 C 0.6112(3) 0.012(2) 1.0940(4)
H3 H 0.6374 0.0277 0.9895
C6 C 0.7203(5) -0.008(3) 1.5611(4)
H4 H 0.8074 -0.1039 1.5952
H5 H 0.6235 -0.0263 1.6116
H6 H 0.7811 0.1025 1.6018
Zn1A Zn -0.19543(3) 0.5030(7) 1.07503(3)
N2A N 0.0505(10) -0.2004(4) 0.9809(9)
loop_
_geom_bond_atom_site_label_1
_geom_bond_atom_site_label_2
_geom_bond_site_symmetry_1
_geom_bond_site_symmetry_2
Zn1 N3 1_555 1_555
N1 C1 1_555 1_555
N2 C2 1_555 1_555
N3 C3 1_555 1_555
N4 C3 1_555 1_555
C1 Zn1 1_555 1_555
C2 Zn1 1_555 1_555
C3 H1 1_555 1_555
C4 N4 1_555 1_555
H2 C4 1_555 1_555
C5 N3 1_555 1_555
H3 C5 1_555 1_555
C6 N4 1_555 1_555
H4 C6 1_555 1_555
H5 C6 1_555 1_555
H6 C6 1_555 1_555
Zn1A N2 1_555 1_555
N2A Zn1 1_555 1_555
C4 C5 1_555 1_555

#END
