
#######################################################################
#
#                 Cambridge Crystallographic Data Centre
#                                CCDC 
#
#######################################################################
#
# If this CIF has been generated from an entry in the Cambridge 
# Structural Database, then it will include bibliographic, chemical, 
# crystal, experimental, refinement or atomic coordinate data resulting 
# from the CCDC's data processing and validation procedures.
#
#######################################################################

data_OHUXAS
_symmetry_cell_setting           orthorhombic
_symmetry_space_group_name_H-M   'P n a 21'
_symmetry_Int_Tables_number      33
_space_group_name_Hall           'P 2c -2n'
loop_
_symmetry_equiv_pos_site_id
_symmetry_equiv_pos_as_xyz
1 x,y,z
2 -x,-y,1/2+z
3 1/2-x,1/2+y,1/2+z
4 1/2+x,1/2-y,z
_cell_length_a                   9.4723(5)
_cell_length_b                   18.0251(8)
_cell_length_c                   7.0451(3)
_cell_angle_alpha                90
_cell_angle_beta                 90
_cell_angle_gamma                90
_cell_volume                     1202.87
loop_
_atom_site_label
_atom_site_type_symbol
_atom_site_fract_x
_atom_site_fract_y
_atom_site_fract_z
N1 N 0.2751(7) 0.1891(3) 0.6987(10)
C1 C 0.3575(6) 0.1449(3) 0.5855(9)
C2 C 0.1883(9) 0.2363(4) 0.6059(10)
H1 H 0.1336 0.2687 0.6776
Zn1 Zn 0.25321(5) 0.18686(3) -0.0009(3)
O1 O 0.3189(4) 0.29723(19) -0.0056(8)
O2 O 0.5473(4) 0.27139(18) -0.0075(7)
O3 O 0.4147(4) 0.1151(2) 0.0754(6)
O4 O 0.5093(5) 0.0537(3) 0.3174(6)
C3 C 0.4785(5) 0.3972(3) -0.0196(9)
C4 C 0.5520(8) 0.5394(3) -0.0363(11)
H2 H 0.5808 0.5886 -0.0448
N2 N 0.2373(5) 0.4391(3) -0.0173(18)
H3 H 0.1778 0.4751 -0.0162
H4 H 0.2078 0.3940 -0.0137
N3 N 0.2552(5) 0.1944(3) 0.3077(15)
N4 N 0.4481(5) 0.1002(3) 0.6733(7)
H5 H 0.4528 0.1000 0.7952
H6 H 0.5020 0.0714 0.6081
C5 C 0.4464(5) 0.3157(3) -0.0097(10)
C6 C 0.3754(6) 0.4532(3) -0.0245(11)
N5 N 0.4147(6) 0.5258(3) -0.0298(11)
C7 C 0.6545(6) 0.4858(3) -0.0314(9)
H7 H 0.7495 0.4989 -0.0338
N6 N 0.6161(4) 0.4140(2) -0.0231(9)
C8 C 0.4319(6) 0.1014(3) 0.2481(9)
C9 C 0.3455(7) 0.1487(3) 0.3838(8)
C10 C 0.1765(9) 0.2390(4) 0.4134(9)
H8 H 0.1137 0.2719 0.3566
N1_2 N 0.2751(7) 0.1891(3) -0.3013(10)
Zn1_2 Zn 0.25321(5) 0.18686(3) 0.9991(3)
Zn1C Zn 0.75321(5) 0.31314(3) -0.0009(3)
O2C O 0.0473(4) 0.22861(18) -0.0075(7)
N6C N 0.1161(4) 0.0860(2) -0.0231(9)
loop_
_geom_bond_atom_site_label_1
_geom_bond_atom_site_label_2
_geom_bond_site_symmetry_1
_geom_bond_site_symmetry_2
N1 C1 1_555 1_555
C1 N4 1_555 1_555
C2 N1 1_555 1_555
H1 C2 1_555 1_555
Zn1 O1 1_555 1_555
O1 C5 1_555 1_555
O2 C5 1_555 1_555
O3 Zn1 1_555 1_555
O4 C8 1_555 1_555
C3 C5 1_555 1_555
C4 H2 1_555 1_555
N2 H3 1_555 1_555
H4 N2 1_555 1_555
N3 Zn1 1_555 1_555
N4 H5 1_555 1_555
H6 N4 1_555 1_555
C6 C3 1_555 1_555
N5 C4 1_555 1_555
C7 C4 1_555 1_555
H7 C7 1_555 1_555
N6 C3 1_555 1_555
C8 O3 1_555 1_555
C9 C1 1_555 1_555
C10 C2 1_555 1_555
H8 C10 1_555 1_555
N1_2 Zn1 1_555 1_555
Zn1_2 N1 1_555 1_555
Zn1C O2 1_555 1_555
O2C Zn1 1_555 1_555
N6C Zn1 1_555 1_555
N2 C6 1_555 1_555
N3 C9 1_555 1_555
N3 C10 1_555 1_555
C6 N5 1_555 1_555
C7 N6 1_555 1_555
N6 Zn1C 1_555 1_555
C8 C9 1_555 1_555

#END
