
#######################################################################
#
#                 Cambridge Crystallographic Data Centre
#                                CCDC 
#
#######################################################################
#
# If this CIF has been generated from an entry in the Cambridge 
# Structural Database, then it will include bibliographic, chemical, 
# crystal, experimental, refinement or atomic coordinate data resulting 
# from the CCDC's data processing and validation procedures.
#
#######################################################################

data_OJABUY
_symmetry_cell_setting           monoclinic
_symmetry_space_group_name_H-M   'C 2/c'
_symmetry_Int_Tables_number      15
_space_group_name_Hall           '-C 2yn'
loop_
_symmetry_equiv_pos_site_id
_symmetry_equiv_pos_as_xyz
1 x,y,z
2 -x,y,1/2-z
3 1/2+x,1/2+y,z
4 1/2-x,1/2+y,1/2-z
5 -x,-y,-z
6 x,-y,1/2+z
7 1/2-x,1/2-y,-z
8 1/2+x,1/2-y,1/2+z
_cell_length_a                   24.4845(18)
_cell_length_b                   10.5330(8)
_cell_length_c                   10.1562(8)
_cell_angle_alpha                90
_cell_angle_beta                 103.1140(10)
_cell_angle_gamma                90
_cell_volume                     2550.93
loop_
_atom_site_label
_atom_site_type_symbol
_atom_site_fract_x
_atom_site_fract_y
_atom_site_fract_z
Cu1 Cu 0.0000 0.0000 0.0000
N1 N 0.07500(7) -0.08541(18) 0.01738(19)
O1 O 0.07757(10) 0.2041(2) -0.1027(2)
O2 O 0.03666(6) 0.15974(14) 0.06680(17)
O3 O 0.0000 -0.0486(2) 0.2500
H1 H 0.0265 -0.0941 0.2914
C1 C 0.08993(10) 0.3448(2) 0.0841(2)
C2 C 0.14574(11) 0.3780(3) 0.1125(3)
C3 C 0.16505(15) 0.4873(3) 0.1868(3)
H2 H 0.2030 0.5075 0.2068
C4 C 0.12789(18) 0.5635(3) 0.2295(4)
H3 H 0.1406 0.6363 0.2788
C5 C 0.07249(18) 0.5350(3) 0.2013(4)
H4 H 0.0473 0.5890 0.2292
C6 C 0.05361(13) 0.4254(3) 0.1308(3)
H5 H 0.0157 0.4051 0.1143
C7 C 0.06666(9) 0.2272(2) 0.0075(2)
C8 C 0.11733(9) -0.0684(3) 0.1243(3)
H6 H 0.1117 -0.0161 0.1939
C9 C 0.16888(10) -0.1245(3) 0.1364(3)
H7 H 0.1974 -0.1088 0.2122
C10 C 0.17833(11) -0.2050(3) 0.0351(3)
C11 C 0.13491(12) -0.2197(3) -0.0750(3)
H8 H 0.1397 -0.2701 -0.1468
C12 C 0.08435(10) -0.1610(3) -0.0811(2)
H9 H 0.0554 -0.1744 -0.1567
C13 C 0.23351(13) -0.2724(5) 0.0438(4)
H10 H 0.2450 -0.3393 0.1033
Cl1 Cl 0.19504(3) 0.27989(11) 0.06534(10)
N1F N 0.42500(7) -0.41459(18) -0.01738(19)
C8F C 0.38267(9) -0.4316(3) -0.1243(3)
H6F H 0.3883 -0.4839 -0.1939
C9F C 0.33112(10) -0.3755(3) -0.1364(3)
H7F H 0.3026 -0.3912 -0.2122
C10F C 0.32167(11) -0.2950(3) -0.0351(3)
C11F C 0.36509(12) -0.2803(3) 0.0750(3)
H8F H 0.3603 -0.2299 0.1468
C12F C 0.41565(10) -0.3390(3) 0.0811(2)
H9F H 0.4446 -0.3256 0.1567
C13F C 0.26649(13) -0.2276(5) -0.0438(4)
H10F H 0.2550 -0.1607 -0.1033
H1A H -0.0265 -0.0941 0.2086
O1D O -0.07757(10) -0.2041(2) 0.1027(2)
O2D O -0.03666(6) -0.15974(14) -0.06680(17)
C1D C -0.08993(10) -0.3448(2) -0.0841(2)
C2D C -0.14574(11) -0.3780(3) -0.1125(3)
C3D C -0.16505(15) -0.4873(3) -0.1868(3)
H2D H -0.2030 -0.5075 -0.2068
C4D C -0.12789(18) -0.5635(3) -0.2295(4)
H3D H -0.1406 -0.6363 -0.2788
C5D C -0.07249(18) -0.5350(3) -0.2013(4)
H4D H -0.0473 -0.5890 -0.2292
C6D C -0.05361(13) -0.4254(3) -0.1308(3)
H5D H -0.0157 -0.4051 -0.1143
C7D C -0.06666(9) -0.2272(2) -0.0075(2)
Cl1D Cl -0.19504(3) -0.27989(11) -0.06534(10)
Cu1A Cu 0.0000 0.0000 0.5000
Cu1B Cu 0.5000 -0.5000 0.0000
N1D N -0.07500(7) 0.08541(18) -0.01738(19)
O3D O 0.0000 0.0486(2) -0.2500
loop_
_geom_bond_atom_site_label_1
_geom_bond_atom_site_label_2
_geom_bond_site_symmetry_1
_geom_bond_site_symmetry_2
Cu1 N1 1_555 1_555
N1 C8 1_555 1_555
O1 C7 1_555 1_555
O2 Cu1 1_555 1_555
O3 Cu1 1_555 1_555
H1 O3 1_555 1_555
C1 C2 1_555 1_555
C2 C3 1_555 1_555
C3 H2 1_555 1_555
C4 C3 1_555 1_555
H3 C4 1_555 1_555
C5 C4 1_555 1_555
H4 C5 1_555 1_555
C6 C1 1_555 1_555
H5 C6 1_555 1_555
C7 O2 1_555 1_555
C8 H6 1_555 1_555
C9 C8 1_555 1_555
H7 C9 1_555 1_555
C10 C9 1_555 1_555
C11 C10 1_555 1_555
H8 C11 1_555 1_555
C12 N1 1_555 1_555
H9 C12 1_555 1_555
C13 C10 1_555 1_555
H10 C13 1_555 1_555
Cl1 C2 1_555 1_555
N1F C8F 1_555 1_555
C8F H6F 1_555 1_555
C9F C8F 1_555 1_555
H7F C9F 1_555 1_555
C10F C9F 1_555 1_555
C11F C10F 1_555 1_555
H8F C11F 1_555 1_555
C12F N1F 1_555 1_555
H9F C12F 1_555 1_555
C13F C13 1_555 1_555
H10F C13F 1_555 1_555
H1A O3 1_555 1_555
O1D C7D 1_555 1_555
O2D Cu1 1_555 1_555
C1D C2D 1_555 1_555
C2D C3D 1_555 1_555
C3D H2D 1_555 1_555
C4D C3D 1_555 1_555
H3D C4D 1_555 1_555
C5D C4D 1_555 1_555
H4D C5D 1_555 1_555
C6D C1D 1_555 1_555
H5D C6D 1_555 1_555
C7D O2D 1_555 1_555
Cl1D C2D 1_555 1_555
Cu1A O3 1_555 1_555
Cu1B N1F 1_555 1_555
N1D Cu1 1_555 1_555
O3D Cu1 1_555 1_555
C1 C7 1_555 1_555
C5 C6 1_555 1_555
C11 C12 1_555 1_555
C10F C13F 1_555 1_555
C11F C12F 1_555 1_555
C1D C7D 1_555 1_555
C5D C6D 1_555 1_555

#END
