
#######################################################################
#
#                 Cambridge Crystallographic Data Centre
#                                CCDC 
#
#######################################################################
#
# If this CIF has been generated from an entry in the Cambridge 
# Structural Database, then it will include bibliographic, chemical, 
# crystal, experimental, refinement or atomic coordinate data resulting 
# from the CCDC's data processing and validation procedures.
#
#######################################################################

data_OJACAF
_symmetry_cell_setting           monoclinic
_symmetry_space_group_name_H-M   'C 2/c'
_symmetry_Int_Tables_number      15
_space_group_name_Hall           '-C 2yn'
loop_
_symmetry_equiv_pos_site_id
_symmetry_equiv_pos_as_xyz
1 x,y,z
2 -x,y,1/2-z
3 1/2+x,1/2+y,z
4 1/2-x,1/2+y,1/2-z
5 -x,-y,-z
6 x,-y,1/2+z
7 1/2-x,1/2-y,-z
8 1/2+x,1/2-y,1/2+z
_cell_length_a                   22.052(2)
_cell_length_b                   6.2108(6)
_cell_length_c                   22.407(2)
_cell_angle_alpha                90
_cell_angle_beta                 106.6500(10)
_cell_angle_gamma                90
_cell_volume                     2940.21
loop_
_atom_site_label
_atom_site_type_symbol
_atom_site_fract_x
_atom_site_fract_y
_atom_site_fract_z
Zn1 Zn 0.0000 0.93084(6) 0.2500
N1 N -0.00670(10) 1.1249(3) 0.17516(10)
O1 O 0.07216(9) 0.7335(3) 0.27489(9)
O2 O 0.12540(10) 1.0338(3) 0.27442(12)
C1 C 0.18404(13) 0.7140(4) 0.30678(12)
C2 C 0.24074(14) 0.8106(5) 0.30744(15)
H1 H 0.2406 0.9485 0.2913
C3 C 0.29732(16) 0.7052(6) 0.33171(16)
H2 H 0.3355 0.7705 0.3325
C4 C 0.29591(17) 0.5021(7) 0.35467(15)
C5 C 0.24078(19) 0.4013(6) 0.35350(17)
H3 H 0.2413 0.2624 0.3692
C6 C 0.18449(16) 0.5063(5) 0.32903(15)
H4 H 0.1465 0.4377 0.3274
C7 C 0.12360(13) 0.8378(5) 0.28306(12)
C8 C -0.04356(15) 1.0731(5) 0.11891(13)
H5 H -0.0659 0.9443 0.1142
C9 C -0.05022(16) 1.2005(5) 0.06750(14)
H6 H -0.0759 1.1557 0.0289
C10 C -0.01900(14) 1.3945(4) 0.07281(13)
C11 C 0.01836(15) 1.4497(4) 0.13129(13)
H7 H 0.0400 1.5800 0.1373
C12 C 0.02379(13) 1.3127(4) 0.18092(12)
H8 H 0.0497 1.3527 0.2199
C13 C -0.02298(17) 1.5336(5) 0.01690(15)
H9 H -0.0655 1.5261 -0.0112
H10 H -0.0147 1.6820 0.0302
Cl1 Cl 0.36850(7) 0.3715(3) 0.38685(7)
N1D N 0.00670(10) 1.8751(3) -0.17516(10)
C8D C 0.04356(15) 1.9269(5) -0.11891(13)
H5D H 0.0659 2.0557 -0.1142
C9D C 0.05022(16) 1.7995(5) -0.06750(14)
H6D H 0.0759 1.8443 -0.0289
C10D C 0.01900(14) 1.6055(4) -0.07281(13)
C11D C -0.01836(15) 1.5503(4) -0.13129(13)
H7D H -0.0400 1.4200 -0.1373
C12D C -0.02379(13) 1.6873(4) -0.18092(12)
H8D H -0.0497 1.6473 -0.2199
C13D C 0.02298(17) 1.4664(5) -0.01690(15)
H9D H 0.0655 1.4739 0.0112
H10D H 0.0147 1.3180 -0.0302
O1A O -0.07216(9) 0.7335(3) 0.22511(9)
O2A O -0.12540(10) 1.0338(3) 0.22558(12)
C1A C -0.18404(13) 0.7140(4) 0.19322(12)
C2A C -0.24074(14) 0.8106(5) 0.19256(15)
H1A H -0.2406 0.9485 0.2087
C3A C -0.29732(16) 0.7052(6) 0.16829(16)
H2A H -0.3355 0.7705 0.1675
C4A C -0.29591(17) 0.5021(7) 0.14533(15)
C5A C -0.24078(19) 0.4013(6) 0.14650(17)
H3A H -0.2413 0.2624 0.1308
C6A C -0.18449(16) 0.5063(5) 0.17097(15)
H4A H -0.1465 0.4377 0.1726
C7A C -0.12360(13) 0.8378(5) 0.21694(12)
Cl1A Cl -0.36850(7) 0.3715(3) 0.11315(7)
Zn1D Zn 0.0000 2.06916(6) -0.2500
N1A N 0.00670(10) 1.1249(3) 0.32484(10)
loop_
_geom_bond_atom_site_label_1
_geom_bond_atom_site_label_2
_geom_bond_site_symmetry_1
_geom_bond_site_symmetry_2
Zn1 N1 1_555 1_555
N1 C8 1_555 1_555
O1 Zn1 1_555 1_555
O2 C7 1_555 1_555
C1 C2 1_555 1_555
C2 H1 1_555 1_555
C3 C2 1_555 1_555
H2 C3 1_555 1_555
C4 C3 1_555 1_555
C5 C4 1_555 1_555
H3 C5 1_555 1_555
C6 C1 1_555 1_555
H4 C6 1_555 1_555
C7 O1 1_555 1_555
C8 H5 1_555 1_555
C9 C8 1_555 1_555
H6 C9 1_555 1_555
C10 C9 1_555 1_555
C11 C10 1_555 1_555
H7 C11 1_555 1_555
C12 N1 1_555 1_555
H8 C12 1_555 1_555
C13 C10 1_555 1_555
H9 C13 1_555 1_555
H10 C13 1_555 1_555
Cl1 C4 1_555 1_555
N1D C8D 1_555 1_555
C8D H5D 1_555 1_555
C9D C8D 1_555 1_555
H6D C9D 1_555 1_555
C10D C9D 1_555 1_555
C11D C10D 1_555 1_555
H7D C11D 1_555 1_555
C12D N1D 1_555 1_555
H8D C12D 1_555 1_555
C13D C13 1_555 1_555
H9D C13D 1_555 1_555
H10D C13D 1_555 1_555
O1A Zn1 1_555 1_555
O2A C7A 1_555 1_555
C1A C2A 1_555 1_555
C2A H1A 1_555 1_555
C3A C2A 1_555 1_555
H2A C3A 1_555 1_555
C4A C3A 1_555 1_555
C5A C4A 1_555 1_555
H3A C5A 1_555 1_555
C6A C1A 1_555 1_555
H4A C6A 1_555 1_555
C7A O1A 1_555 1_555
Cl1A C4A 1_555 1_555
Zn1D N1D 1_555 1_555
N1A Zn1 1_555 1_555
C1 C7 1_555 1_555
C5 C6 1_555 1_555
C11 C12 1_555 1_555
C10D C13D 1_555 1_555
C11D C12D 1_555 1_555
C1A C7A 1_555 1_555
C5A C6A 1_555 1_555

#END
