
#######################################################################
#
#                 Cambridge Crystallographic Data Centre
#                                CCDC 
#
#######################################################################
#
# If this CIF has been generated from an entry in the Cambridge 
# Structural Database, then it will include bibliographic, chemical, 
# crystal, experimental, refinement or atomic coordinate data resulting 
# from the CCDC's data processing and validation procedures.
#
#######################################################################

data_OJAFOW
_symmetry_cell_setting           monoclinic
_symmetry_space_group_name_H-M   'C 2/c'
_symmetry_Int_Tables_number      15
_space_group_name_Hall           '-C 2yn'
loop_
_symmetry_equiv_pos_site_id
_symmetry_equiv_pos_as_xyz
1 x,y,z
2 -x,y,1/2-z
3 1/2+x,1/2+y,z
4 1/2-x,1/2+y,1/2-z
5 -x,-y,-z
6 x,-y,1/2+z
7 1/2-x,1/2-y,-z
8 1/2+x,1/2-y,1/2+z
_cell_length_a                   36.038(12)
_cell_length_b                   19.963(7)
_cell_length_c                   8.853(3)
_cell_angle_alpha                90
_cell_angle_beta                 95.622(6)
_cell_angle_gamma                90
_cell_volume                     6338.45
loop_
_atom_site_label
_atom_site_type_symbol
_atom_site_fract_x
_atom_site_fract_y
_atom_site_fract_z
Ag1 Ag 0.0000 0.0000 -0.5000
Ag2 Ag 0.2500 -0.2500 0.5000
S1 S 0.2057(3) 0.3996(4) 0.5263(13)
S2 S 0.0912(2) 0.2320(3) 0.3587(10)
N1 N 0.1431(3) 0.0076(6) 0.1048(14)
C1 C 0.1678(4) 0.0155(7) 0.2244(18)
N2 N 0.0414(3) 0.0231(8) -0.3233(16)
C2 C 0.0960(4) 0.0499(8) -0.0818(19)
N3 N 0.2215(4) -0.1633(6) 0.4041(16)
C3 C 0.1245(4) 0.0633(8) 0.0482(17)
C4 C 0.0855(4) -0.0140(7) -0.1239(18)
H1 H 0.0969 -0.0504 -0.0730
C5 C 0.1870(4) -0.0451(7) 0.2865(17)
C6 C 0.2153(5) -0.0438(7) 0.4031(18)
H2 H 0.2232 -0.0032 0.4468
C7 C 0.1659(6) 0.2014(7) 0.3078(16)
C8 C 0.1761(4) -0.1074(7) 0.2320(17)
H3 H 0.1565 -0.1115 0.1558
C9 C 0.1560(5) 0.1343(7) 0.2364(17)
C10 C 0.1311(5) 0.1263(7) 0.1103(18)
H4 H 0.1186 0.1633 0.0664
C11 C 0.2135(6) 0.2818(9) 0.376(2)
H5 H 0.2382 0.2950 0.3749
C12 C 0.0586(5) -0.0241(8) -0.239(2)
H6 H 0.0517 -0.0682 -0.2609
C13 C 0.1902(7) 0.3229(8) 0.435(2)
C14 C 0.0790(5) 0.1012(8) -0.162(2)
H7 H 0.0854 0.1452 -0.1363
C15 C 0.1944(5) -0.1642(8) 0.291(2)
H8 H 0.1872 -0.2055 0.2497
O1 O 0.0866(5) 0.1699(8) 0.415(2)
C16 C 0.1401(5) 0.2453(8) 0.3604(18)
C17 C 0.1749(4) 0.0794(7) 0.2980(17)
H9 H 0.1918 0.0833 0.3841
C18 C 0.0522(5) 0.0883(9) -0.280(2)
H10 H 0.0410 0.1243 -0.3331
C19 C 0.1542(7) 0.3068(7) 0.427(2)
H11 H 0.1376 0.3365 0.4653
C20 C 0.2031(6) 0.2200(8) 0.3145(18)
H12 H 0.2207 0.1916 0.2785
C21 C 0.2318(5) -0.1029(8) 0.4549(18)
H13 H 0.2516 -0.1003 0.5307
O2 O 0.0766(5) 0.2343(9) 0.203(2)
O3 O 0.0770(4) 0.2832(8) 0.445(2)
O4 O 0.1796(6) 0.4451(9) 0.497(3)
O5 O 0.2205(6) 0.3852(9) 0.666(3)
O6 O 0.2397(7) 0.4162(10) 0.461(3)
S1D S -0.2057(3) -0.3996(4) -1.5263(13)
S2D S -0.0912(2) -0.2320(3) -1.3587(10)
N1D N -0.1431(3) -0.0076(6) -1.1048(14)
C1D C -0.1678(4) -0.0155(7) -1.2244(18)
N2D N -0.0414(3) -0.0231(8) -0.6767(16)
C2D C -0.0960(4) -0.0499(8) -0.9182(19)
N3D N -0.2215(4) 0.1633(6) -1.4041(16)
C3D C -0.1245(4) -0.0633(8) -1.0482(17)
C4D C -0.0855(4) 0.0140(7) -0.8761(18)
H1D H -0.0969 0.0504 -0.9270
C5D C -0.1870(4) 0.0451(7) -1.2865(17)
C6D C -0.2153(5) 0.0438(7) -1.4031(18)
H2D H -0.2232 0.0032 -1.4468
C7D C -0.1659(6) -0.2014(7) -1.3078(16)
C8D C -0.1761(4) 0.1074(7) -1.2320(17)
H3D H -0.1565 0.1115 -1.1558
C9D C -0.1560(5) -0.1343(7) -1.2364(17)
C10D C -0.1311(5) -0.1263(7) -1.1103(18)
H4D H -0.1186 -0.1633 -1.0664
C11D C -0.2135(6) -0.2818(9) -1.376(2)
H5D H -0.2382 -0.2950 -1.3749
C12D C -0.0586(5) 0.0241(8) -0.761(2)
H6D H -0.0517 0.0682 -0.7391
C13D C -0.1902(7) -0.3229(8) -1.435(2)
C14D C -0.0790(5) -0.1012(8) -0.838(2)
H7D H -0.0854 -0.1452 -0.8637
C15D C -0.1944(5) 0.1642(8) -1.291(2)
H8D H -0.1872 0.2055 -1.2497
O1D O -0.0866(5) -0.1699(8) -1.415(2)
C16D C -0.1401(5) -0.2453(8) -1.3604(18)
C17D C -0.1749(4) -0.0794(7) -1.2980(17)
H9D H -0.1918 -0.0833 -1.3841
C18D C -0.0522(5) -0.0883(9) -0.720(2)
H10D H -0.0410 -0.1243 -0.6669
C19D C -0.1542(7) -0.3068(7) -1.427(2)
H11D H -0.1376 -0.3365 -1.4653
C20D C -0.2031(6) -0.2200(8) -1.3145(18)
H12D H -0.2207 -0.1916 -1.2785
C21D C -0.2318(5) 0.1029(8) -1.4549(18)
H13D H -0.2516 0.1003 -1.5307
O2D O -0.0766(5) -0.2343(9) -1.203(2)
O3D O -0.0770(4) -0.2832(8) -1.445(2)
O4D O -0.1796(6) -0.4451(9) -1.497(3)
O5D O -0.2205(6) -0.3852(9) -1.666(3)
O6D O -0.2397(7) -0.4162(10) -1.461(3)
Ag2B Ag -0.2500 0.2500 -1.5000
N3F N 0.2785(4) -0.3367(6) 0.5959(16)
O7 O 0.1779(6) 0.4398(9) 0.121(2)
O8 O 0.0055(6) 0.1568(11) 0.076(2)
O9 O 0.1784(7) 0.3292(11) 0.910(3)
loop_
_geom_bond_atom_site_label_1
_geom_bond_atom_site_label_2
_geom_bond_site_symmetry_1
_geom_bond_site_symmetry_2
Ag1 N2 1_555 1_555
Ag2 N3 1_555 1_555
S1 C13 1_555 1_555
S2 O1 1_555 1_555
N1 C1 1_555 1_555
C1 C5 1_555 1_555
N2 C12 1_555 1_555
C2 C3 1_555 1_555
N3 C15 1_555 1_555
C3 N1 1_555 1_555
C4 C2 1_555 1_555
H1 C4 1_555 1_555
C5 C6 1_555 1_555
C6 H2 1_555 1_555
C7 C9 1_555 1_555
C8 C5 1_555 1_555
H3 C8 1_555 1_555
C9 C10 1_555 1_555
C10 C3 1_555 1_555
H4 C10 1_555 1_555
C11 H5 1_555 1_555
C12 C4 1_555 1_555
H6 C12 1_555 1_555
C13 C11 1_555 1_555
C14 C2 1_555 1_555
H7 C14 1_555 1_555
C15 C8 1_555 1_555
H8 C15 1_555 1_555
C16 S2 1_555 1_555
C17 C1 1_555 1_555
H9 C17 1_555 1_555
C18 N2 1_555 1_555
H10 C18 1_555 1_555
C19 C13 1_555 1_555
H11 C19 1_555 1_555
C20 C7 1_555 1_555
H12 C20 1_555 1_555
C21 N3 1_555 1_555
H13 C21 1_555 1_555
O2 S2 1_555 1_555
O3 S2 1_555 1_555
O4 S1 1_555 1_555
O5 S1 1_555 1_555
O6 S1 1_555 1_555
S1D C13D 1_555 1_555
S2D O1D 1_555 1_555
N1D C1D 1_555 1_555
C1D C5D 1_555 1_555
N2D Ag1 1_555 1_555
C2D C3D 1_555 1_555
N3D C15D 1_555 1_555
C3D N1D 1_555 1_555
C4D C2D 1_555 1_555
H1D C4D 1_555 1_555
C5D C6D 1_555 1_555
C6D H2D 1_555 1_555
C7D C9D 1_555 1_555
C8D C5D 1_555 1_555
H3D C8D 1_555 1_555
C9D C10D 1_555 1_555
C10D C3D 1_555 1_555
H4D C10D 1_555 1_555
C11D H5D 1_555 1_555
C12D N2D 1_555 1_555
H6D C12D 1_555 1_555
C13D C11D 1_555 1_555
C14D C2D 1_555 1_555
H7D C14D 1_555 1_555
C15D C8D 1_555 1_555
H8D C15D 1_555 1_555
C16D S2D 1_555 1_555
C17D C1D 1_555 1_555
H9D C17D 1_555 1_555
C18D N2D 1_555 1_555
H10D C18D 1_555 1_555
C19D C13D 1_555 1_555
H11D C19D 1_555 1_555
C20D C7D 1_555 1_555
H12D C20D 1_555 1_555
C21D N3D 1_555 1_555
H13D C21D 1_555 1_555
O2D S2D 1_555 1_555
O3D S2D 1_555 1_555
O4D S1D 1_555 1_555
O5D S1D 1_555 1_555
O6D S1D 1_555 1_555
Ag2B N3D 1_555 1_555
N3F Ag2 1_555 1_555
C6 C21 1_555 1_555
C7 C16 1_555 1_555
C9 C17 1_555 1_555
C11 C20 1_555 1_555
C14 C18 1_555 1_555
C16 C19 1_555 1_555
C4D C12D 1_555 1_555
C6D C21D 1_555 1_555
C7D C16D 1_555 1_555
C9D C17D 1_555 1_555
C11D C20D 1_555 1_555
C14D C18D 1_555 1_555
C16D C19D 1_555 1_555

#END
