
#######################################################################
#
#                 Cambridge Crystallographic Data Centre
#                                CCDC 
#
#######################################################################
#
# If this CIF has been generated from an entry in the Cambridge 
# Structural Database, then it will include bibliographic, chemical, 
# crystal, experimental, refinement or atomic coordinate data resulting 
# from the CCDC's data processing and validation procedures.
#
#######################################################################

data_OJAGOX
_symmetry_cell_setting           monoclinic
_symmetry_space_group_name_H-M   'C 2/c'
_symmetry_Int_Tables_number      15
_space_group_name_Hall           '-C 2yn'
loop_
_symmetry_equiv_pos_site_id
_symmetry_equiv_pos_as_xyz
1 x,y,z
2 -x,y,1/2-z
3 1/2+x,1/2+y,z
4 1/2-x,1/2+y,1/2-z
5 -x,-y,-z
6 x,-y,1/2+z
7 1/2-x,1/2-y,-z
8 1/2+x,1/2-y,1/2+z
_cell_length_a                   27.0043(10)
_cell_length_b                   7.9145(3)
_cell_length_c                   17.9803(6)
_cell_angle_alpha                90
_cell_angle_beta                 129.491(2)
_cell_angle_gamma                90
_cell_volume                     2965.62
loop_
_atom_site_label
_atom_site_type_symbol
_atom_site_fract_x
_atom_site_fract_y
_atom_site_fract_z
C1 C -0.0060(2) -0.2643(7) 0.3717(4)
C2 C -0.0032(3) -0.3850(8) 0.4388(4)
C3 C -0.0176(3) -0.5548(8) 0.4129(5)
H1 H -0.0295 -0.5915 0.3544
C4 C 0.0139(3) -0.3314(8) 0.5253(4)
H2 H 0.0232 -0.2180 0.5423
C5 C 0.1085(3) 0.1008(7) 0.2666(4)
H3 H 0.0909 0.0334 0.2126
C6 C 0.1601(3) 0.2052(8) 0.2973(4)
C7 C 0.1866(3) 0.3010(10) 0.3792(5)
H4 H 0.2217 0.3709 0.4035
C8 C 0.1600(4) 0.2907(10) 0.4242(5)
H5 H 0.1767 0.3552 0.4788
C9 C 0.1092(3) 0.1854(9) 0.3879(4)
H6 H 0.0922 0.1786 0.4194
C10 C 0.2359(3) 0.2648(9) 0.2678(4)
C11 C 0.2394(3) 0.2640(8) 0.1879(4)
C12 C 0.1859(3) 0.2873(10) 0.0922(5)
H7 H 0.1463 0.3064 0.0765
C13 C 0.1900(3) 0.2829(10) 0.0200(5)
H8 H 0.1530 0.3000 -0.0433
C14 C 0.2475(3) 0.2537(8) 0.0385(4)
C15 C 0.3016(3) 0.2328(9) 0.1362(4)
H9 H 0.3415 0.2164 0.1521
C16 C 0.2980(3) 0.2356(9) 0.2086(4)
H10 H 0.3348 0.2185 0.2720
Cd1 Cd 0.0000 -0.08668(6) 0.2500
N1 N 0.0832(2) 0.0923(6) 0.3097(4)
N2 N 0.1800(2) 0.2072(7) 0.2421(3)
H11 H 0.1534 0.1666 0.1848
O1 O -0.0402(2) -0.3019(6) 0.2844(3)
O2 O 0.0277(2) -0.1324(6) 0.4041(3)
O3 O 0.2805(2) 0.3117(8) 0.3492(3)
C1D C 0.0060(2) -0.7357(7) 0.6283(4)
C2D C 0.0032(3) -0.6150(8) 0.5612(4)
C3D C 0.0176(3) -0.4452(8) 0.5871(5)
H1D H 0.0295 -0.4085 0.6456
C4D C -0.0139(3) -0.6686(8) 0.4747(4)
H2D H -0.0232 -0.7820 0.4577
O1D O 0.0402(2) -0.6981(6) 0.7156(3)
O2D O -0.0277(2) -0.8676(6) 0.5959(3)
C5F C 0.3915(3) 0.3992(7) -0.2666(4)
H3F H 0.4091 0.4666 -0.2126
C6F C 0.3399(3) 0.2948(8) -0.2973(4)
C7F C 0.3134(3) 0.1990(10) -0.3792(5)
H4F H 0.2783 0.1291 -0.4035
C8F C 0.3400(4) 0.2093(10) -0.4242(5)
H5F H 0.3233 0.1448 -0.4788
C9F C 0.3908(3) 0.3146(9) -0.3879(4)
H6F H 0.4078 0.3214 -0.4194
C10F C 0.2641(3) 0.2352(9) -0.2678(4)
C11F C 0.2606(3) 0.2360(8) -0.1879(4)
C12F C 0.3141(3) 0.2127(10) -0.0922(5)
H7F H 0.3537 0.1936 -0.0765
C13F C 0.3100(3) 0.2171(10) -0.0200(5)
H8F H 0.3470 0.2000 0.0433
C14F C 0.2525(3) 0.2463(8) -0.0385(4)
C15F C 0.1984(3) 0.2672(9) -0.1362(4)
H9F H 0.1585 0.2836 -0.1521
C16F C 0.2020(3) 0.2644(9) -0.2086(4)
H10F H 0.1652 0.2815 -0.2720
N1F N 0.4168(2) 0.4077(6) -0.3097(4)
N2F N 0.3200(2) 0.2928(7) -0.2421(3)
H11F H 0.3466 0.3334 -0.1848
O3F O 0.2195(2) 0.1883(8) -0.3492(3)
Cd1D Cd 0.0000 -0.91332(6) 0.7500
Cd1F Cd 0.5000 0.58668(6) -0.2500
N1A N -0.0832(2) 0.0923(6) 0.1903(4)
O1A O 0.0402(2) -0.3019(6) 0.2156(3)
O2A O -0.0277(2) -0.1324(6) 0.0959(3)
H12 H 0.414(4) 0.515(11) 0.470(3)
H13 H 0.368(3) 0.418(7) 0.413(5)
O4 O 0.3948(2) 0.4760(7) 0.4140(3)
loop_
_geom_bond_atom_site_label_1
_geom_bond_atom_site_label_2
_geom_bond_site_symmetry_1
_geom_bond_site_symmetry_2
C1 C2 1_555 1_555
C2 C3 1_555 1_555
C3 H1 1_555 1_555
C4 C2 1_555 1_555
H2 C4 1_555 1_555
C5 H3 1_555 1_555
C6 C5 1_555 1_555
C7 C6 1_555 1_555
H4 C7 1_555 1_555
C8 C7 1_555 1_555
H5 C8 1_555 1_555
C9 C8 1_555 1_555
H6 C9 1_555 1_555
C10 C11 1_555 1_555
C11 C12 1_555 1_555
C12 H7 1_555 1_555
C13 C12 1_555 1_555
H8 C13 1_555 1_555
C14 C13 1_555 1_555
C15 C14 1_555 1_555
H9 C15 1_555 1_555
C16 C11 1_555 1_555
H10 C16 1_555 1_555
Cd1 N1 1_555 1_555
N1 C5 1_555 1_555
N2 C6 1_555 1_555
H11 N2 1_555 1_555
O1 C1 1_555 1_555
O2 C1 1_555 1_555
O3 C10 1_555 1_555
H12 O4 1_555 1_555
H13 O4 1_555 1_555
C1D C2D 1_555 1_555
C2D C3D 1_555 1_555
C3D C4 1_555 1_555
H1D C3D 1_555 1_555
C4D C3 1_555 1_555
H2D C4D 1_555 1_555
O1D C1D 1_555 1_555
O2D C1D 1_555 1_555
C5F H3F 1_555 1_555
C6F C5F 1_555 1_555
C7F C6F 1_555 1_555
H4F C7F 1_555 1_555
C8F C7F 1_555 1_555
H5F C8F 1_555 1_555
C9F C8F 1_555 1_555
H6F C9F 1_555 1_555
C10F C11F 1_555 1_555
C11F C12F 1_555 1_555
C12F H7F 1_555 1_555
C13F C12F 1_555 1_555
H8F C13F 1_555 1_555
C14F C14 1_555 1_555
C15F C14F 1_555 1_555
H9F C15F 1_555 1_555
C16F C11F 1_555 1_555
H10F C16F 1_555 1_555
N1F C5F 1_555 1_555
N2F C6F 1_555 1_555
H11F N2F 1_555 1_555
O3F C10F 1_555 1_555
Cd1D O1D 1_555 1_555
Cd1F N1F 1_555 1_555
N1A Cd1 1_555 1_555
O1A Cd1 1_555 1_555
O2A Cd1 1_555 1_555
C9 N1 1_555 1_555
C10 N2 1_555 1_555
C15 C16 1_555 1_555
Cd1 O1 1_555 1_555
Cd1 O2 1_555 1_555
C2D C4D 1_555 1_555
O2D Cd1D 1_555 1_555
C9F N1F 1_555 1_555
C10F N2F 1_555 1_555
C13F C14F 1_555 1_555
C15F C16F 1_555 1_555

#END
