
#######################################################################
#
#                 Cambridge Crystallographic Data Centre
#                                CCDC 
#
#######################################################################
#
# If this CIF has been generated from an entry in the Cambridge 
# Structural Database, then it will include bibliographic, chemical, 
# crystal, experimental, refinement or atomic coordinate data resulting 
# from the CCDC's data processing and validation procedures.
#
#######################################################################

data_OJAGIR
_symmetry_cell_setting           monoclinic
_symmetry_space_group_name_H-M   'C 2/c'
_symmetry_Int_Tables_number      15
_space_group_name_Hall           '-C 2yn'
loop_
_symmetry_equiv_pos_site_id
_symmetry_equiv_pos_as_xyz
1 x,y,z
2 -x,y,1/2-z
3 1/2+x,1/2+y,z
4 1/2-x,1/2+y,1/2-z
5 -x,-y,-z
6 x,-y,1/2+z
7 1/2-x,1/2-y,-z
8 1/2+x,1/2-y,1/2+z
_cell_length_a                   23.1681(11)
_cell_length_b                   13.0753(6)
_cell_length_c                   13.2643(6)
_cell_angle_alpha                90
_cell_angle_beta                 97.251(3)
_cell_angle_gamma                90
_cell_volume                     3986.02
loop_
_atom_site_label
_atom_site_type_symbol
_atom_site_fract_x
_atom_site_fract_y
_atom_site_fract_z
C1 C 0.13312(8) 0.96525(15) 1.15367(13)
H1 H 0.1187 0.9025 1.1721
C2 C 0.12116(7) 1.05220(14) 1.20735(13)
C3 C 0.14191(9) 1.14547(15) 1.17736(15)
H2 H 0.1346 1.2052 1.2117
C4 C 0.17353(9) 1.14860(16) 1.09607(15)
H3 H 0.1871 1.2107 1.0743
C5 C 0.18488(8) 1.05974(16) 1.04761(14)
H4 H 0.2069 1.0622 0.9937
C6 C 0.06887(8) 0.96708(15) 1.33522(14)
C7 C 0.03264(7) 0.98706(14) 1.41927(13)
C8 C 0.02800(8) 0.90811(14) 1.48834(13)
H5 H 0.0464 0.8460 1.4803
C9 C 0.00384(7) 1.07839(14) 1.43136(13)
H6 H 0.0060 1.1311 1.3849
C10 C 0.25456(8) 0.82624(16) 0.86084(14)
C11 C 0.28819(8) 0.86307(15) 0.77983(14)
C12 C 0.31670(8) 0.79310(16) 0.72473(15)
H7 H 0.3148 0.7237 0.7394
C13 C 0.34773(9) 0.82510(16) 0.64876(16)
H8 H 0.3668 0.7778 0.6123
C14 C 0.35036(8) 0.92828(16) 0.62706(15)
C15 C 0.32203(8) 0.99941(16) 0.68021(16)
H9 H 0.3238 1.0687 0.6650
C16 C 0.29105(8) 0.96621(15) 0.75614(15)
H10 H 0.2718 1.0136 0.7920
C17 C 0.42896(8) 0.91441(15) 0.52767(15)
C18 C 0.43484(9) 0.89724(18) 0.42763(16)
H11 H 0.4050 0.9142 0.3768
C19 C 0.48600(10) 0.85417(17) 0.40348(16)
H12 H 0.4903 0.8423 0.3357
C20 C 0.53052(8) 0.82857(14) 0.47810(15)
C21 C 0.52321(9) 0.84584(17) 0.57858(16)
H13 H 0.5527 0.8284 0.6299
C22 C 0.47228(9) 0.88894(19) 0.60301(16)
H14 H 0.4675 0.9006 0.6706
C23 C 0.58444(8) 0.77777(14) 0.45101(16)
N1 N 0.16496(6) 0.96917(12) 1.07590(11)
N2 N 0.08781(7) 1.05112(12) 1.28870(11)
H15 H 0.0784 1.1096 1.3114
O1 O 0.08082(8) 0.88033(11) 1.31228(12)
O2 O 0.22474(6) 0.89074(11) 0.90261(10)
O3 O 0.25498(6) 0.73245(11) 0.88436(10)
O4 O 0.37867(6) 0.96457(12) 0.54858(12)
O5 O 0.62231(6) 0.75485(12) 0.52573(12)
O6 O 0.58908(6) 0.75736(11) 0.36117(12)
Zn1 Zn 0.186378(9) 0.834058(17) 1.012802(16)
C1D C -0.13312(8) 1.03475(15) 1.84633(13)
H1D H -0.1187 1.0975 1.8279
C2D C -0.12116(7) 0.94780(14) 1.79265(13)
C3D C -0.14191(9) 0.85453(15) 1.82264(15)
H2D H -0.1346 0.7948 1.7883
C4D C -0.17353(9) 0.85140(16) 1.90393(15)
H3D H -0.1871 0.7893 1.9257
C5D C -0.18488(8) 0.94026(16) 1.95239(14)
H4D H -0.2069 0.9378 2.0063
C6D C -0.06887(8) 1.03292(15) 1.66478(14)
C7D C -0.03264(7) 1.01294(14) 1.58073(13)
C8D C -0.02800(8) 1.09189(14) 1.51166(13)
H5D H -0.0464 1.1540 1.5197
C9D C -0.00384(7) 0.92161(14) 1.56864(13)
H6D H -0.0060 0.8689 1.6151
N1D N -0.16496(6) 1.03083(12) 1.92410(11)
N2D N -0.08781(7) 0.94888(12) 1.71130(11)
H15D H -0.0784 0.8904 1.6886
O1D O -0.08082(8) 1.11967(11) 1.68772(12)
C10D C -0.25456(8) 1.17376(16) 2.13916(14)
C11D C -0.28819(8) 1.13693(15) 2.22017(14)
C12D C -0.31670(8) 1.20690(16) 2.27527(15)
H7D H -0.3148 1.2763 2.2606
C13D C -0.34773(9) 1.17490(16) 2.35124(16)
H8D H -0.3668 1.2222 2.3877
C14D C -0.35036(8) 1.07172(16) 2.37294(15)
C15D C -0.32203(8) 1.00059(16) 2.31979(16)
H9D H -0.3238 0.9313 2.3350
C16D C -0.29105(8) 1.03379(15) 2.24386(15)
H10D H -0.2718 0.9864 2.2080
C17D C -0.42896(8) 1.08559(15) 2.47233(15)
C18D C -0.43484(9) 1.10276(18) 2.57237(16)
H11D H -0.4050 1.0858 2.6232
C19D C -0.48600(10) 1.14583(17) 2.59652(16)
H12D H -0.4903 1.1577 2.6643
C20D C -0.53052(8) 1.17143(14) 2.52190(15)
C21D C -0.52321(9) 1.15416(17) 2.42142(16)
H13D H -0.5527 1.1716 2.3701
C22D C -0.47228(9) 1.11106(19) 2.39699(16)
H14D H -0.4675 1.0994 2.3294
C23D C -0.58444(8) 1.22223(14) 2.54899(16)
O2D O -0.22474(6) 1.10926(11) 2.09739(10)
O3D O -0.25498(6) 1.26755(11) 2.11564(10)
O4D O -0.37867(6) 1.03543(12) 2.45142(12)
O5D O -0.62231(6) 1.24515(12) 2.47427(12)
O6D O -0.58908(6) 1.24264(11) 2.63883(12)
Zn1D Zn -0.186378(9) 1.165942(17) 1.987198(16)
O3B O -0.24502(6) 1.23245(11) 1.88436(10)
O3F O 0.24502(6) 0.76755(11) 1.11564(10)
O5C O -0.12231(6) 1.25485(12) 1.97427(12)
O5G O 0.12231(6) 0.74515(12) 1.02573(12)
Zn1B Zn -0.313622(9) 1.334058(17) 2.012802(16)
Zn1C Zn -0.686378(9) 1.334058(17) 2.487198(16)
Zn1F Zn 0.313622(9) 0.665942(17) 0.987198(16)
Zn1G Zn 0.686378(9) 0.665942(17) 0.512802(16)
loop_
_geom_bond_atom_site_label_1
_geom_bond_atom_site_label_2
_geom_bond_site_symmetry_1
_geom_bond_site_symmetry_2
C1 H1 1_555 1_555
C2 C1 1_555 1_555
C3 C2 1_555 1_555
H2 C3 1_555 1_555
C4 C3 1_555 1_555
H3 C4 1_555 1_555
C5 C4 1_555 1_555
H4 C5 1_555 1_555
C6 C7 1_555 1_555
C7 C8 1_555 1_555
C8 H5 1_555 1_555
C9 C7 1_555 1_555
H6 C9 1_555 1_555
C10 C11 1_555 1_555
C11 C12 1_555 1_555
C12 H7 1_555 1_555
C13 C12 1_555 1_555
H8 C13 1_555 1_555
C14 C13 1_555 1_555
C15 C14 1_555 1_555
H9 C15 1_555 1_555
C16 C11 1_555 1_555
H10 C16 1_555 1_555
C17 C18 1_555 1_555
C18 H11 1_555 1_555
C19 C18 1_555 1_555
H12 C19 1_555 1_555
C20 C19 1_555 1_555
C21 C20 1_555 1_555
H13 C21 1_555 1_555
C22 C17 1_555 1_555
H14 C22 1_555 1_555
C23 C20 1_555 1_555
N1 C1 1_555 1_555
N2 C2 1_555 1_555
H15 N2 1_555 1_555
O1 C6 1_555 1_555
O2 C10 1_555 1_555
O3 C10 1_555 1_555
O4 C14 1_555 1_555
O5 C23 1_555 1_555
O6 C23 1_555 1_555
Zn1 N1 1_555 1_555
C1D H1D 1_555 1_555
C2D C1D 1_555 1_555
C3D C2D 1_555 1_555
H2D C3D 1_555 1_555
C4D C3D 1_555 1_555
H3D C4D 1_555 1_555
C5D C4D 1_555 1_555
H4D C5D 1_555 1_555
C6D C7D 1_555 1_555
C7D C8D 1_555 1_555
C8D C9 1_555 1_555
H5D C8D 1_555 1_555
C9D C8 1_555 1_555
H6D C9D 1_555 1_555
N1D C1D 1_555 1_555
N2D C2D 1_555 1_555
H15D N2D 1_555 1_555
O1D C6D 1_555 1_555
C10D C11D 1_555 1_555
C11D C12D 1_555 1_555
C12D H7D 1_555 1_555
C13D C12D 1_555 1_555
H8D C13D 1_555 1_555
C14D C13D 1_555 1_555
C15D C14D 1_555 1_555
H9D C15D 1_555 1_555
C16D C11D 1_555 1_555
H10D C16D 1_555 1_555
C17D C18D 1_555 1_555
C18D H11D 1_555 1_555
C19D C18D 1_555 1_555
H12D C19D 1_555 1_555
C20D C19D 1_555 1_555
C21D C20D 1_555 1_555
H13D C21D 1_555 1_555
C22D C17D 1_555 1_555
H14D C22D 1_555 1_555
C23D C20D 1_555 1_555
O2D C10D 1_555 1_555
O3D C10D 1_555 1_555
O4D C14D 1_555 1_555
O5D C23D 1_555 1_555
O6D C23D 1_555 1_555
Zn1D N1D 1_555 1_555
O3B Zn1D 1_555 1_555
O3F Zn1 1_555 1_555
O5C Zn1D 1_555 1_555
O5G Zn1 1_555 1_555
Zn1B O3D 1_555 1_555
Zn1C O5D 1_555 1_555
Zn1F O3 1_555 1_555
Zn1G O5 1_555 1_555
C5 N1 1_555 1_555
C6 N2 1_555 1_555
C15 C16 1_555 1_555
C17 O4 1_555 1_555
C21 C22 1_555 1_555
O2 Zn1 1_555 1_555
C5D N1D 1_555 1_555
C6D N2D 1_555 1_555
C7D C9D 1_555 1_555
C15D C16D 1_555 1_555
C17D O4D 1_555 1_555
C21D C22D 1_555 1_555
O2D Zn1D 1_555 1_555

#END
