
#######################################################################
#
#                 Cambridge Crystallographic Data Centre
#                                CCDC 
#
#######################################################################
#
# If this CIF has been generated from an entry in the Cambridge 
# Structural Database, then it will include bibliographic, chemical, 
# crystal, experimental, refinement or atomic coordinate data resulting 
# from the CCDC's data processing and validation procedures.
#
#######################################################################

data_OJAKAM
_symmetry_cell_setting           triclinic
_symmetry_space_group_name_H-M   'P -1'
_symmetry_Int_Tables_number      2
_space_group_name_Hall           '-P 1'
loop_
_symmetry_equiv_pos_site_id
_symmetry_equiv_pos_as_xyz
1 x,y,z
2 -x,-y,-z
_cell_length_a                   10.158(2)
_cell_length_b                   10.654(2)
_cell_length_c                   15.477(3)
_cell_angle_alpha                106.43(3)
_cell_angle_beta                 91.56(3)
_cell_angle_gamma                115.34(3)
_cell_volume                     1430.6
loop_
_atom_site_label
_atom_site_type_symbol
_atom_site_fract_x
_atom_site_fract_y
_atom_site_fract_z
C1 C 0.8731(4) 0.2816(4) 0.3924(3)
H1 H 0.8528 0.3601 0.4185
C2 C 0.9281(6) 0.1088(5) 0.3721(3)
H2 H 0.9528 0.0400 0.3840
C3 C 0.8436(7) 0.2800(5) 0.2313(3)
H3 H 0.9300 0.3697 0.2342
H4 H 0.7616 0.3032 0.2414
C4 C 0.8078(5) 0.1687(5) 0.1375(3)
C5 C 0.9066(5) 0.1966(5) 0.0772(3)
C6 C 0.8761(7) 0.0918(6) -0.0079(3)
C7 C 0.7472(8) -0.0391(6) -0.0337(3)
C8 C 0.6467(7) -0.0669(5) 0.0268(4)
C9 C 0.6771(6) 0.0391(6) 0.1131(3)
C10 C 1.0431(7) 0.3432(8) 0.1024(5)
H5 H 1.0160 0.4163 0.0957
H6 H 1.1124 0.3356 0.0629
H7 H 1.0874 0.3707 0.1647
C11 C 0.7174(10) -0.1503(8) -0.1278(4)
H8 H 0.7597 -0.0996 -0.1701
H9 H 0.6126 -0.2082 -0.1481
H10 H 0.7610 -0.2134 -0.1248
C12 C 0.5700(7) 0.0109(8) 0.1798(4)
H11 H 0.4710 -0.0499 0.1465
H12 H 0.5776 0.1027 0.2184
H13 H 0.5935 -0.0380 0.2167
C13 C 0.9876(7) 0.1202(8) -0.0722(4)
H14 H 1.0843 0.1937 -0.0376
H15 H 0.9943 0.0305 -0.1023
C14 C 0.9837(6) 0.1703(6) -0.2209(3)
H16 H 1.0480 0.1331 -0.2440
C15 C 0.8381(6) 0.2606(6) -0.2069(4)
H17 H 0.7781 0.3011 -0.2198
C16 C 0.5061(9) -0.2093(7) 0.0024(5)
H18 H 0.4225 -0.1880 0.0097
H19 H 0.4941 -0.2654 -0.0612
C17 C 0.3891(8) -0.3892(7) 0.0835(7)
H20 H 0.2917 -0.4094 0.0668
C18 C 0.5802(10) -0.3906(8) 0.1427(6)
H21 H 0.6398 -0.4117 0.1770
C19 C 0.7262(4) 0.3549(4) 0.6096(3)
C20 C 0.6351(4) 0.4358(4) 0.6168(2)
C21 C 0.4830(4) 0.3634(4) 0.6106(2)
H22 H 0.4365 0.2636 0.6033
C22 C 0.4002(4) 0.4385(4) 0.6153(2)
C23 C 0.4698(4) 0.5871(4) 0.6255(3)
H23 H 0.4143 0.6381 0.6284
C24 C 0.6212(4) 0.6596(4) 0.6314(3)
H24 H 0.6676 0.7590 0.6375
C25 C 0.7030(4) 0.5843(4) 0.6280(3)
H25 H 0.8053 0.6337 0.6333
C26 C 0.2357(4) 0.3623(4) 0.6085(2)
Cd1 Cd 0.93105(3) 0.24140(3) 0.590662(17)
N1 N 0.9071(4) 0.2085(4) 0.4380(2)
N2 N 0.9111(5) 0.1163(4) 0.2900(3)
N3 N 0.8722(4) 0.2266(4) 0.3043(2)
N4 N 0.9424(5) 0.1720(5) -0.1417(3)
N5 N 0.8470(6) 0.2304(7) -0.1304(3)
N6 N 0.9237(4) 0.2273(4) -0.2639(2)
N7 N 0.5065(6) -0.2979(5) 0.0596(4)
N8 N 0.6303(8) -0.2994(7) 0.0941(5)
N9 N 0.4349(9) -0.4470(8) 0.1357(6)
O1 O 0.6654(3) 0.2175(3) 0.5839(2)
O2 O 0.8647(3) 0.4292(3) 0.6298(2)
O3 O 0.1672(3) 0.2239(3) 0.5874(2)
O4 O 0.1683(3) 0.4387(3) 0.6234(2)
O5 O 0.8098(4) -0.0162(4) 0.5532(3)
H26 H 0.743(7) -0.047(7) 0.560(4)
H27 H 0.812(5) -0.088(6) 0.509(4)
Cd1_2 Cd 0.93105(3) 0.24140(3) -0.409338(17)
Cd1_3 Cd -0.06895(3) 0.24140(3) 0.590662(17)
N6_2 N 0.9237(4) 0.2273(4) 0.7361(2)
O3_2 O 1.1672(3) 0.2239(3) 0.5874(2)
O4_2 O 1.1683(3) 0.4387(3) 0.6234(2)
H28 H 0.454(6) -0.024(7) 0.391(4)
H29 H 0.523(6) 0.112(6) 0.453(4)
O6 O 0.4758(5) 0.0735(5) 0.4078(3)
loop_
_geom_bond_atom_site_label_1
_geom_bond_atom_site_label_2
_geom_bond_site_symmetry_1
_geom_bond_site_symmetry_2
C1 H1 1_555 1_555
C2 H2 1_555 1_555
C3 H3 1_555 1_555
H4 C3 1_555 1_555
C4 C3 1_555 1_555
C5 C4 1_555 1_555
C6 C5 1_555 1_555
C7 C6 1_555 1_555
C8 C7 1_555 1_555
C9 C4 1_555 1_555
C10 C5 1_555 1_555
H5 C10 1_555 1_555
H6 C10 1_555 1_555
H7 C10 1_555 1_555
C11 C7 1_555 1_555
H8 C11 1_555 1_555
H9 C11 1_555 1_555
H10 C11 1_555 1_555
C12 C9 1_555 1_555
H11 C12 1_555 1_555
H12 C12 1_555 1_555
H13 C12 1_555 1_555
C13 C6 1_555 1_555
H14 C13 1_555 1_555
H15 C13 1_555 1_555
C14 H16 1_555 1_555
C15 H17 1_555 1_555
C16 C8 1_555 1_555
H18 C16 1_555 1_555
H19 C16 1_555 1_555
C17 H20 1_555 1_555
C18 H21 1_555 1_555
C19 C20 1_555 1_555
C20 C21 1_555 1_555
C21 H22 1_555 1_555
C22 C21 1_555 1_555
C23 C22 1_555 1_555
H23 C23 1_555 1_555
C24 C23 1_555 1_555
H24 C24 1_555 1_555
C25 C20 1_555 1_555
H25 C25 1_555 1_555
C26 C22 1_555 1_555
Cd1 N1 1_555 1_555
N1 C1 1_555 1_555
N2 C2 1_555 1_555
N3 C1 1_555 1_555
N4 C13 1_555 1_555
N5 C15 1_555 1_555
N6 C14 1_555 1_555
N7 C16 1_555 1_555
N8 C18 1_555 1_555
N9 C17 1_555 1_555
O1 C19 1_555 1_555
O2 C19 1_555 1_555
O3 C26 1_555 1_555
O4 C26 1_555 1_555
O5 Cd1 1_555 1_555
H26 O5 1_555 1_555
H27 O5 1_555 1_555
H28 O6 1_555 1_555
H29 O6 1_555 1_555
Cd1_2 N6 1_555 1_555
Cd1_3 O3 1_555 1_555
N6_2 Cd1 1_555 1_555
O3_2 Cd1 1_555 1_555
O4_2 Cd1 1_555 1_555
C2 N1 1_555 1_555
C3 N3 1_555 1_555
C8 C9 1_555 1_555
C14 N4 1_555 1_555
C15 N6 1_555 1_555
C17 N7 1_555 1_555
C18 N9 1_555 1_555
C24 C25 1_555 1_555
Cd1 O1 1_555 1_555
Cd1 O2 1_555 1_555
N2 N3 1_555 1_555
N4 N5 1_555 1_555
N7 N8 1_555 1_555
O4 Cd1_3 1_555 1_555

#END
