
#######################################################################
#
#                 Cambridge Crystallographic Data Centre
#                                CCDC 
#
#######################################################################
#
# If this CIF has been generated from an entry in the Cambridge 
# Structural Database, then it will include bibliographic, chemical, 
# crystal, experimental, refinement or atomic coordinate data resulting 
# from the CCDC's data processing and validation procedures.
#
#######################################################################

data_OJAKEQ
_symmetry_cell_setting           triclinic
_symmetry_space_group_name_H-M   'P -1'
_symmetry_Int_Tables_number      2
_space_group_name_Hall           '-P 1'
loop_
_symmetry_equiv_pos_site_id
_symmetry_equiv_pos_as_xyz
1 x,y,z
2 -x,-y,-z
_cell_length_a                   10.388(2)
_cell_length_b                   11.619(2)
_cell_length_c                   14.162(3)
_cell_angle_alpha                67.89(3)
_cell_angle_beta                 86.21(3)
_cell_angle_gamma                70.39(3)
_cell_volume                     1488.22
loop_
_atom_site_label
_atom_site_type_symbol
_atom_site_fract_x
_atom_site_fract_y
_atom_site_fract_z
C1 C 0.9335(4) 0.3209(4) 0.2792(3)
H1 H 1.0267 0.2731 0.2885
C2 C 0.7275(4) 0.4176(5) 0.2206(4)
H2 H 0.6487 0.4490 0.1781
C3 C 0.9153(4) 0.3896(5) 0.4299(3)
H3 H 0.9323 0.3063 0.4873
H4 H 0.8457 0.4571 0.4475
C4 C 1.0455(4) 0.4231(4) 0.4112(3)
C5 C 1.0411(4) 0.5443(4) 0.3361(3)
C6 C 1.1591(4) 0.5778(4) 0.3171(3)
C7 C 1.2803(4) 0.4959(4) 0.3786(3)
C8 C 1.2841(4) 0.3739(4) 0.4528(3)
C9 C 1.1679(4) 0.3347(4) 0.4666(3)
C10 C 0.9096(4) 0.6384(5) 0.2727(4)
H5 H 0.9044 0.7276 0.2582
H6 H 0.8328 0.6221 0.3099
H7 H 0.9082 0.6254 0.2098
C11 C 1.4043(5) 0.5389(5) 0.3640(4)
H8 H 1.4699 0.4831 0.4212
H9 H 1.3774 0.6286 0.3590
H10 H 1.4447 0.5323 0.3024
C12 C 1.1782(6) 0.1962(5) 0.5369(4)
H11 H 1.1409 0.1974 0.6005
H12 H 1.2726 0.1406 0.5493
H13 H 1.1278 0.1626 0.5056
C13 C 1.1605(5) 0.6959(4) 0.2235(3)
H14 H 1.2547 0.6853 0.2066
H15 H 1.1122 0.6968 0.1667
C14 C 1.0196(5) 0.9356(4) 0.1639(3)
H16 H 0.9898 0.9444 0.1002
C15 C 1.0562(5) 0.9728(4) 0.2910(3)
H17 H 1.0550 1.0174 0.3337
C16 C 1.4142(5) 0.2844(5) 0.5195(3)
H18 H 1.4455 0.3349 0.5483
H19 H 1.3937 0.2148 0.5758
C17 C 1.6328(7) 0.1416(6) 0.3641(5)
H20 H 1.6521 0.1111 0.3110
C18 C 1.6586(5) 0.1845(5) 0.4875(4)
H21 H 1.6971 0.1929 0.5410
C19 C 0.6527(4) 0.2327(4) 0.0260(3)
C20 C 0.5397(4) 0.2075(4) -0.0172(3)
C21 C 0.5673(4) 0.1515(4) -0.0901(3)
H22 H 0.6545 0.1325 -0.1140
C22 C 0.4670(4) 0.1233(3) -0.1280(3)
C23 C 0.3370(4) 0.1491(3) -0.0901(3)
H23 H 0.2702 0.1274 -0.1134
C24 C 0.3070(3) 0.2067(3) -0.0182(3)
C25 C 0.4086(4) 0.2371(4) 0.0170(3)
H24 H 0.3884 0.2778 0.0641
C26 C 0.4958(4) 0.0605(4) -0.2053(3)
C27 C 0.1668(4) 0.2317(4) 0.0222(3)
Cd1 Cd 0.89703(3) 0.25471(3) 0.08121(2)
N1 N 0.8505(3) 0.3398(4) 0.2035(3)
N2 N 0.7306(3) 0.4442(4) 0.3030(3)
N3 N 0.8645(3) 0.3800(4) 0.3394(3)
N4 N 1.0988(3) 0.8235(3) 0.2339(2)
N5 N 1.1232(4) 0.8460(4) 0.3167(3)
N6 N 0.9894(4) 1.0328(3) 0.1977(3)
N7 N 1.5248(4) 0.2245(4) 0.4655(3)
N8 N 1.5059(5) 0.1978(5) 0.3842(4)
N9 N 1.7303(6) 0.1322(5) 0.4257(4)
O1 O 0.7724(3) 0.1871(3) 0.0009(2)
O2 O 0.6262(3) 0.2952(3) 0.0836(3)
O3 O 0.6195(4) 0.0420(4) -0.2349(3)
H25 H 0.6338 -0.0024 -0.2704
O4 O 0.4092(4) 0.0308(4) -0.2359(3)
O5 O 0.0832(3) 0.1949(3) -0.0089(2)
O6 O 0.1373(3) 0.2889(3) 0.0854(2)
O7 O 0.8389(4) 0.4606(3) -0.0533(3)
H26 H 0.853(6) 0.525(6) -0.045(5)
H27 H 0.769(7) 0.496(7) -0.090(5)
Cd1_2 Cd 0.89703(3) 1.25471(3) 0.08121(2)
Cd1_3 Cd -0.10297(3) 0.25471(3) 0.08121(2)
N6_2 N 0.9894(4) 0.0328(3) 0.1977(3)
O5_2 O 1.0832(3) 0.1949(3) -0.0089(2)
O6_2 O 1.1373(3) 0.2889(3) 0.0854(2)
O8 O 0.5931(4) 0.5731(5) 0.8347(4)
H28 H 0.546(5) 0.545(5) 0.886(4)
O9 O 0.2737(4) 0.1653(5) 0.2884(4)
H29 H 0.249(3) 0.231(3) 0.234(2)
H30 H 0.348(11) 0.193(11) 0.318(9)
loop_
_geom_bond_atom_site_label_1
_geom_bond_atom_site_label_2
_geom_bond_site_symmetry_1
_geom_bond_site_symmetry_2
C1 H1 1_555 1_555
C2 H2 1_555 1_555
C3 H3 1_555 1_555
H4 C3 1_555 1_555
C4 C3 1_555 1_555
C5 C4 1_555 1_555
C6 C5 1_555 1_555
C7 C6 1_555 1_555
C8 C7 1_555 1_555
C9 C4 1_555 1_555
C10 C5 1_555 1_555
H5 C10 1_555 1_555
H6 C10 1_555 1_555
H7 C10 1_555 1_555
C11 C7 1_555 1_555
H8 C11 1_555 1_555
H9 C11 1_555 1_555
H10 C11 1_555 1_555
C12 C9 1_555 1_555
H11 C12 1_555 1_555
H12 C12 1_555 1_555
H13 C12 1_555 1_555
C13 C6 1_555 1_555
H14 C13 1_555 1_555
H15 C13 1_555 1_555
C14 H16 1_555 1_555
C15 H17 1_555 1_555
C16 C8 1_555 1_555
H18 C16 1_555 1_555
H19 C16 1_555 1_555
C17 H20 1_555 1_555
C18 H21 1_555 1_555
C19 C20 1_555 1_555
C20 C21 1_555 1_555
C21 H22 1_555 1_555
C22 C21 1_555 1_555
C23 C22 1_555 1_555
H23 C23 1_555 1_555
C24 C23 1_555 1_555
C25 C20 1_555 1_555
H24 C25 1_555 1_555
C26 C22 1_555 1_555
C27 C24 1_555 1_555
Cd1 N1 1_555 1_555
N1 C1 1_555 1_555
N2 C2 1_555 1_555
N3 C1 1_555 1_555
N4 C13 1_555 1_555
N5 C15 1_555 1_555
N6 C14 1_555 1_555
N7 C16 1_555 1_555
N8 C17 1_555 1_555
N9 C17 1_555 1_555
O1 C19 1_555 1_555
O2 C19 1_555 1_555
O3 C26 1_555 1_555
H25 O3 1_555 1_555
O4 C26 1_555 1_555
O5 C27 1_555 1_555
O6 C27 1_555 1_555
O7 Cd1 1_555 1_555
H26 O7 1_555 1_555
H27 O7 1_555 1_555
O8 H28 1_555 1_555
O9 H29 1_555 1_555
H30 O9 1_555 1_555
Cd1_2 N6 1_555 1_555
Cd1_3 O5 1_555 1_555
N6_2 Cd1 1_555 1_555
O5_2 Cd1 1_555 1_555
O6_2 Cd1 1_555 1_555
C2 N1 1_555 1_555
C3 N3 1_555 1_555
C8 C9 1_555 1_555
C14 N4 1_555 1_555
C15 N6 1_555 1_555
C18 N7 1_555 1_555
C18 N9 1_555 1_555
C24 C25 1_555 1_555
Cd1 O1 1_555 1_555
Cd1 O2 1_555 1_555
N2 N3 1_555 1_555
N4 N5 1_555 1_555
N7 N8 1_555 1_555
O6 Cd1_3 1_555 1_555

#END
