
#######################################################################
#
#                 Cambridge Crystallographic Data Centre
#                                CCDC 
#
#######################################################################
#
# If this CIF has been generated from an entry in the Cambridge 
# Structural Database, then it will include bibliographic, chemical, 
# crystal, experimental, refinement or atomic coordinate data resulting 
# from the CCDC's data processing and validation procedures.
#
#######################################################################

data_OJAKIU
_symmetry_cell_setting           monoclinic
_symmetry_space_group_name_H-M   'P 21/n'
_symmetry_Int_Tables_number      14
_space_group_name_Hall           '-P 2yn'
loop_
_symmetry_equiv_pos_site_id
_symmetry_equiv_pos_as_xyz
1 x,y,z
2 1/2-x,1/2+y,1/2-z
3 -x,-y,-z
4 1/2+x,1/2-y,1/2+z
_cell_length_a                   8.6070(17)
_cell_length_b                   20.393(4)
_cell_length_c                   15.481(3)
_cell_angle_alpha                90
_cell_angle_beta                 91.28(3)
_cell_angle_gamma                90
_cell_volume                     2716.59
loop_
_atom_site_label
_atom_site_type_symbol
_atom_site_fract_x
_atom_site_fract_y
_atom_site_fract_z
C1 C 0.9542(7) 0.9103(3) 0.1087(4)
H1 H 1.0073 0.8975 0.1589
C2 C 0.8030(9) 0.9555(4) 0.0204(4)
H2 H 0.7257 0.9826 -0.0027
C3 C 1.0882(7) 0.8347(3) 0.0032(4)
H3 H 1.1767 0.8345 0.0431
H4 H 1.1260 0.8465 -0.0533
C4 C 1.0212(6) 0.7659(3) -0.0016(4)
C5 C 0.9478(7) 0.7438(3) -0.0781(4)
C6 C 0.8810(7) 0.6812(3) -0.0796(4)
C7 C 0.8937(7) 0.6394(3) -0.0081(4)
C8 C 0.9715(7) 0.6614(3) 0.0661(4)
C9 C 1.0340(7) 0.7245(3) 0.0700(4)
C10 C 0.9380(10) 0.7871(4) -0.1584(4)
H5 H 0.9487 0.7604 -0.2090
H6 H 1.0198 0.8190 -0.1559
H7 H 0.8393 0.8090 -0.1607
C11 C 0.8235(9) 0.5710(3) -0.0116(5)
H8 H 0.8946 0.5403 0.0148
H9 H 0.8038 0.5588 -0.0707
H10 H 0.7277 0.5707 0.0190
C12 C 1.1121(9) 0.7486(3) 0.1530(4)
H11 H 1.0634 0.7885 0.1710
H12 H 1.2202 0.7566 0.1431
H13 H 1.1021 0.7160 0.1972
C13 C 0.7863(8) 0.6587(3) -0.1578(4)
H14 H 0.6971 0.6341 -0.1384
H15 H 0.7478 0.6969 -0.1889
C14 C 1.0096(7) 0.5875(3) -0.2067(4)
H16 H 1.0743 0.5911 -0.1580
C15 C 0.9141(8) 0.5620(3) -0.3283(4)
H17 H 0.9017 0.5421 -0.3821
C16 C 0.9814(8) 0.6192(4) 0.1460(4)
H18 H 0.9429 0.6441 0.1944
H19 H 0.9139 0.5815 0.1377
C17 C 1.2597(8) 0.5830(3) 0.1194(5)
H20 H 1.2623 0.5883 0.0597
C18 C 1.3187(10) 0.5630(4) 0.2486(5)
H21 H 1.3761 0.5499 0.2971
C19 C 0.6043(7) 1.1006(3) 0.1097(3)
C20 C 0.5623(6) 1.1685(3) 0.0790(3)
C21 C 0.6113(6) 1.2244(3) 0.1225(3)
H22 H 0.6634 1.2207 0.1755
C22 C 0.5828(6) 1.2865(2) 0.0868(3)
C23 C 0.5059(7) 1.2921(3) 0.0077(3)
H23 H 0.4906 1.3332 -0.0171
C24 C 0.4509(6) 1.2357(3) -0.0352(4)
C25 C 0.4804(6) 1.1746(3) 0.0013(4)
H24 H 0.4446 1.1371 -0.0270
C26 C 0.6351(7) 1.3475(3) 0.1346(4)
C27 C 0.3660(7) 1.2429(3) -0.1194(4)
N1 N 0.8446(6) 0.9557(2) 0.1046(3)
N2 N 0.8806(8) 0.9141(4) -0.0263(4)
N3 N 0.9775(6) 0.8857(2) 0.0310(3)
N4 N 0.8749(6) 0.6175(2) -0.2172(3)
N5 N 0.8126(6) 0.6024(3) -0.2968(4)
N6 N 1.0394(6) 0.5515(2) -0.2754(3)
N7 N 1.1378(6) 0.5960(3) 0.1678(3)
N8 N 1.1737(9) 0.5845(4) 0.2534(4)
N9 N 1.3772(7) 0.5615(3) 0.1686(4)
O1 O 0.6998(5) 1.09696(19) 0.1740(3)
O2 O 0.5523(5) 1.05257(19) 0.0715(3)
O3 O 0.6618(6) 1.3435(2) 0.2140(3)
O4 O 0.6487(6) 1.3992(2) 0.0916(3)
O5 O 0.3373(6) 1.2935(2) -0.1551(3)
O6 O 0.3220(7) 1.1850(2) -0.1499(3)
H25 H 0.2708 1.1901 -0.1947
O7 O 0.8352(6) 1.0033(2) 0.3119(3)
H26 H 0.8459 0.9655 0.3290
Zn1 Zn 0.72868(8) 1.00307(3) 0.19788(4)
H27 H 0.910(10) 1.026(4) 0.327(5)
N6C N 0.5394(6) 0.9485(2) 0.2246(3)
Zn1C Zn 1.22868(8) 0.49693(3) -0.30212(4)
loop_
_geom_bond_atom_site_label_1
_geom_bond_atom_site_label_2
_geom_bond_site_symmetry_1
_geom_bond_site_symmetry_2
C1 H1 1_555 1_555
C2 H2 1_555 1_555
C3 H3 1_555 1_555
H4 C3 1_555 1_555
C4 C3 1_555 1_555
C5 C4 1_555 1_555
C6 C5 1_555 1_555
C7 C6 1_555 1_555
C8 C7 1_555 1_555
C9 C4 1_555 1_555
C10 C5 1_555 1_555
H5 C10 1_555 1_555
H6 C10 1_555 1_555
H7 C10 1_555 1_555
C11 C7 1_555 1_555
H8 C11 1_555 1_555
H9 C11 1_555 1_555
H10 C11 1_555 1_555
C12 C9 1_555 1_555
H11 C12 1_555 1_555
H12 C12 1_555 1_555
H13 C12 1_555 1_555
C13 C6 1_555 1_555
H14 C13 1_555 1_555
H15 C13 1_555 1_555
C14 H16 1_555 1_555
C15 H17 1_555 1_555
C16 C8 1_555 1_555
H18 C16 1_555 1_555
H19 C16 1_555 1_555
C17 H20 1_555 1_555
C18 H21 1_555 1_555
C19 C20 1_555 1_555
C20 C21 1_555 1_555
C21 H22 1_555 1_555
C22 C21 1_555 1_555
C23 C22 1_555 1_555
H23 C23 1_555 1_555
C24 C23 1_555 1_555
C25 C20 1_555 1_555
H24 C25 1_555 1_555
C26 C22 1_555 1_555
C27 C24 1_555 1_555
N1 C1 1_555 1_555
N2 C2 1_555 1_555
N3 C1 1_555 1_555
N4 C13 1_555 1_555
N5 C15 1_555 1_555
N6 C14 1_555 1_555
N7 C16 1_555 1_555
N8 C18 1_555 1_555
N9 C17 1_555 1_555
O1 C19 1_555 1_555
O2 C19 1_555 1_555
O3 C26 1_555 1_555
O4 C26 1_555 1_555
O5 C27 1_555 1_555
O6 C27 1_555 1_555
H25 O6 1_555 1_555
O7 H26 1_555 1_555
Zn1 N1 1_555 1_555
H27 O7 1_555 1_555
N6C Zn1 1_555 1_555
Zn1C N6 1_555 1_555
C2 N1 1_555 1_555
C3 N3 1_555 1_555
C8 C9 1_555 1_555
C14 N4 1_555 1_555
C15 N6 1_555 1_555
C17 N7 1_555 1_555
C18 N9 1_555 1_555
C24 C25 1_555 1_555
N2 N3 1_555 1_555
N4 N5 1_555 1_555
N7 N8 1_555 1_555
O1 Zn1 1_555 1_555
O7 Zn1 1_555 1_555

#END
