
#######################################################################
#
#                 Cambridge Crystallographic Data Centre
#                                CCDC 
#
#######################################################################
#
# If this CIF has been generated from an entry in the Cambridge 
# Structural Database, then it will include bibliographic, chemical, 
# crystal, experimental, refinement or atomic coordinate data resulting 
# from the CCDC's data processing and validation procedures.
#
#######################################################################

data_OJALES
_symmetry_cell_setting           orthorhombic
_symmetry_space_group_name_H-M   'P 21 21 21'
_symmetry_Int_Tables_number      19
_space_group_name_Hall           'P 2ac 2ab'
loop_
_symmetry_equiv_pos_site_id
_symmetry_equiv_pos_as_xyz
1 x,y,z
2 1/2-x,-y,1/2+z
3 -x,1/2+y,1/2-z
4 1/2+x,1/2-y,-z
_cell_length_a                   6.4790(4)
_cell_length_b                   7.6577(4)
_cell_length_c                   30.7746(19)
_cell_angle_alpha                90
_cell_angle_beta                 90
_cell_angle_gamma                90
_cell_volume                     1526.86
loop_
_atom_site_label
_atom_site_type_symbol
_atom_site_fract_x
_atom_site_fract_y
_atom_site_fract_z
Zn1 Zn 0.12573(12) 0.48766(10) 0.01666(2)
N1 N 0.1917(9) 0.4143(7) 0.08201(18)
H1 H 0.0798 0.4189 0.0970
O1 O 0.3434(7) 0.2859(7) 0.00767(16)
O2 O -0.1279(9) 0.6024(7) 0.04675(16)
O3 O 0.4980(7) 0.0621(6) 0.04052(16)
O4 O -0.1931(7) 0.8106(7) -0.00242(18)
C1 C 0.3823(13) 0.5194(11) 0.1481(2)
C2 C 0.3805(12) 0.1942(9) 0.0403(2)
C3 C 0.3372(12) 0.5431(9) 0.1002(2)
H2 H 0.2811 0.6592 0.0958
H3 H 0.4660 0.5359 0.0843
C4 C 0.2726(10) 0.2330(9) 0.0829(2)
H4 H 0.3722 0.2220 0.1067
C5 C -0.2239(11) 0.7302(9) 0.0325(2)
H5 H -0.3312 0.7714 0.0498
C6 C 0.0087(14) 0.0964(11) 0.1362(3)
H6 H -0.0376 0.2145 0.1437
C7 C 0.0964(12) 0.1030(9) 0.0901(2)
H7 H 0.1454 -0.0127 0.0825
H8 H -0.0149 0.1319 0.0702
C8 C 0.1687(14) 0.0427(15) 0.1695(3)
H9 H 0.1072 0.0415 0.1979
H10 H 0.2811 0.1244 0.1691
H11 H 0.2194 -0.0718 0.1626
C9 C -0.1795(13) -0.0228(19) 0.1376(3)
H12 H -0.2338 -0.0258 0.1666
H13 H -0.1402 -0.1386 0.1290
H14 H -0.2830 0.0208 0.1181
C10 C 0.460(2) 0.458(2) 0.2350(3)
H15 H 0.4856 0.4343 0.2642
C11 C 0.2290(15) 0.5402(13) 0.1788(3)
H16 H 0.0977 0.5741 0.1700
C12 C 0.5749(14) 0.4706(14) 0.1623(3)
H17 H 0.6813 0.4586 0.1422
C13 C 0.6137(19) 0.4389(17) 0.2055(3)
H18 H 0.7447 0.4047 0.2145
C14 C 0.2675(17) 0.512(2) 0.2223(3)
H19 H 0.1638 0.5284 0.2428
Zn1C Zn -0.37427(12) 1.01234(10) -0.01666(2)
Zn1C_2 Zn 0.62573(12) 0.01234(10) -0.01666(2)
O3C O -0.0020(7) 0.4379(6) -0.04052(16)
O4C O 0.3069(7) 0.6894(7) 0.00242(18)
loop_
_geom_bond_atom_site_label_1
_geom_bond_atom_site_label_2
_geom_bond_site_symmetry_1
_geom_bond_site_symmetry_2
Zn1 N1 1_555 1_555
N1 H1 1_555 1_555
O1 Zn1 1_555 1_555
O2 Zn1 1_555 1_555
O3 C2 1_555 1_555
O4 C5 1_555 1_555
C1 C3 1_555 1_555
C2 O1 1_555 1_555
C3 N1 1_555 1_555
H2 C3 1_555 1_555
H3 C3 1_555 1_555
C4 N1 1_555 1_555
H4 C4 1_555 1_555
C5 O2 1_555 1_555
H5 C5 1_555 1_555
C6 H6 1_555 1_555
C7 C4 1_555 1_555
H7 C7 1_555 1_555
H8 C7 1_555 1_555
C8 C6 1_555 1_555
H9 C8 1_555 1_555
H10 C8 1_555 1_555
H11 C8 1_555 1_555
C9 C6 1_555 1_555
H12 C9 1_555 1_555
H13 C9 1_555 1_555
H14 C9 1_555 1_555
C10 H15 1_555 1_555
C11 C1 1_555 1_555
H16 C11 1_555 1_555
C12 C1 1_555 1_555
H17 C12 1_555 1_555
C13 C10 1_555 1_555
H18 C13 1_555 1_555
C14 C10 1_555 1_555
H19 C14 1_555 1_555
Zn1C O4 1_555 1_555
Zn1C_2 O3 1_555 1_555
O3C Zn1 1_555 1_555
O4C Zn1 1_555 1_555
C2 C4 1_555 1_555
C6 C7 1_555 1_555
C11 C14 1_555 1_555
C12 C13 1_555 1_555

#END
