
#######################################################################
#
#                 Cambridge Crystallographic Data Centre
#                                CCDC 
#
#######################################################################
#
# If this CIF has been generated from an entry in the Cambridge 
# Structural Database, then it will include bibliographic, chemical, 
# crystal, experimental, refinement or atomic coordinate data resulting 
# from the CCDC's data processing and validation procedures.
#
#######################################################################

data_OJAMAO
_symmetry_cell_setting           monoclinic
_symmetry_space_group_name_H-M   'C 2/c'
_symmetry_Int_Tables_number      15
_space_group_name_Hall           '-C 2yn'
loop_
_symmetry_equiv_pos_site_id
_symmetry_equiv_pos_as_xyz
1 x,y,z
2 -x,y,1/2-z
3 1/2+x,1/2+y,z
4 1/2-x,1/2+y,1/2-z
5 -x,-y,-z
6 x,-y,1/2+z
7 1/2-x,1/2-y,-z
8 1/2+x,1/2-y,1/2+z
_cell_length_a                   9.3857(11)
_cell_length_b                   18.173(2)
_cell_length_c                   10.3908(13)
_cell_angle_alpha                90
_cell_angle_beta                 102.975(14)
_cell_angle_gamma                90
_cell_volume                     1727.07
loop_
_atom_site_label
_atom_site_type_symbol
_atom_site_fract_x
_atom_site_fract_y
_atom_site_fract_z
Pb1 Pb 0.5000 0.075149(19) 0.2500
C1 C 0.1404(10) 0.0953(5) 0.1019(8)
H1 H 0.1548 0.0451 0.0929
C2 C 0.0015(9) 0.1225(6) 0.0665(7)
H2 H -0.0776 0.0915 0.0356
C3 C -0.0182(10) 0.1966(6) 0.0777(8)
H3 H -0.1116 0.2167 0.0539
C4 C 0.1011(10) 0.2416(5) 0.1244(8)
H4 H 0.0891 0.2922 0.1313
C5 C 0.2379(8) 0.2103(4) 0.1607(6)
C6 C 0.3736(8) 0.2542(3) 0.2099(6)
C7 C 0.3688(10) 0.3303(4) 0.2101(7)
H5 H 0.2807 0.3554 0.1844
C8 C 0.5000 0.3677(5) 0.2500
N1 N 0.3855(12) 0.0774(5) 0.5157(9)
N2 N 0.2561(7) 0.1377(3) 0.1487(5)
N3 N 0.5000 0.2168(4) 0.2500
O1 O 0.4152(12) 0.1235(4) 0.4531(7)
O2 O 0.3435(14) 0.0169(7) 0.4400(14)
O3 O 0.3463(11) 0.0746(5) 0.6169(7)
Cl1 Cl 0.5000 0.46186(15) 0.2500
Pb1D Pb 0.5000 -0.075149(19) 0.7500
Pb1D_2 Pb 0.5000 -0.075149(19) -0.2500
C1A C 0.8596(10) 0.0953(5) 0.3981(8)
H1A H 0.8452 0.0451 0.4071
C2A C 0.9985(9) 0.1225(6) 0.4335(7)
H2A H 1.0776 0.0915 0.4644
C3A C 1.0182(10) 0.1966(6) 0.4223(8)
H3A H 1.1116 0.2167 0.4461
C4A C 0.8989(10) 0.2416(5) 0.3756(8)
H4A H 0.9109 0.2922 0.3687
C5A C 0.7621(8) 0.2103(4) 0.3393(6)
C6A C 0.6264(8) 0.2542(3) 0.2901(6)
C7A C 0.6312(10) 0.3303(4) 0.2899(7)
H5A H 0.7193 0.3554 0.3156
N1A N 0.6145(12) 0.0774(5) -0.0157(9)
N2A N 0.7439(7) 0.1377(3) 0.3513(5)
O1A O 0.5848(12) 0.1235(4) 0.0469(7)
O2A O 0.6565(14) 0.0169(7) 0.0600(14)
O3A O 0.6537(11) 0.0746(5) -0.1169(7)
O3D O 0.6537(11) -0.0746(5) 0.3831(7)
O3E O 0.3463(11) -0.0746(5) 0.1169(7)
loop_
_geom_bond_atom_site_label_1
_geom_bond_atom_site_label_2
_geom_bond_site_symmetry_1
_geom_bond_site_symmetry_2
Pb1 N2 1_555 1_555
C1 H1 1_555 1_555
C2 C1 1_555 1_555
H2 C2 1_555 1_555
C3 C2 1_555 1_555
H3 C3 1_555 1_555
C4 C3 1_555 1_555
H4 C4 1_555 1_555
C5 C4 1_555 1_555
C6 C5 1_555 1_555
C7 C6 1_555 1_555
H5 C7 1_555 1_555
C8 C7 1_555 1_555
N1 O1 1_555 1_555
N2 C1 1_555 1_555
N3 Pb1 1_555 1_555
O1 Pb1 1_555 1_555
O2 Pb1 1_555 1_555
O3 N1 1_555 1_555
Cl1 C8 1_555 1_555
Pb1D O3 1_555 1_555
Pb1D_2 O3A 1_555 1_555
C1A H1A 1_555 1_555
C2A C1A 1_555 1_555
H2A C2A 1_555 1_555
C3A C2A 1_555 1_555
H3A C3A 1_555 1_555
C4A C3A 1_555 1_555
H4A C4A 1_555 1_555
C5A C4A 1_555 1_555
C6A N3 1_555 1_555
C7A C8 1_555 1_555
H5A C7A 1_555 1_555
N1A O1A 1_555 1_555
N2A Pb1 1_555 1_555
O1A Pb1 1_555 1_555
O2A Pb1 1_555 1_555
O3A N1A 1_555 1_555
O3D Pb1 1_555 1_555
O3E Pb1 1_555 1_555
C5 N2 1_555 1_555
C6 N3 1_555 1_555
N1 O2 1_555 1_555
C1A N2A 1_555 1_555
C5A C6A 1_555 1_555
C5A N2A 1_555 1_555
C6A C7A 1_555 1_555
N1A O2A 1_555 1_555

#END
