
#######################################################################
#
#                 Cambridge Crystallographic Data Centre
#                                CCDC 
#
#######################################################################
#
# If this CIF has been generated from an entry in the Cambridge 
# Structural Database, then it will include bibliographic, chemical, 
# crystal, experimental, refinement or atomic coordinate data resulting 
# from the CCDC's data processing and validation procedures.
#
#######################################################################

data_OJAMES
_symmetry_cell_setting           monoclinic
_symmetry_space_group_name_H-M   'C 2/c'
_symmetry_Int_Tables_number      15
_space_group_name_Hall           '-C 2yn'
loop_
_symmetry_equiv_pos_site_id
_symmetry_equiv_pos_as_xyz
1 x,y,z
2 -x,y,1/2-z
3 1/2+x,1/2+y,z
4 1/2-x,1/2+y,1/2-z
5 -x,-y,-z
6 x,-y,1/2+z
7 1/2-x,1/2-y,-z
8 1/2+x,1/2-y,1/2+z
_cell_length_a                   9.9809(9)
_cell_length_b                   18.569(2)
_cell_length_c                   10.2374(10)
_cell_angle_alpha                90
_cell_angle_beta                 99.570(7)
_cell_angle_gamma                90
_cell_volume                     1870.95
loop_
_atom_site_label
_atom_site_type_symbol
_atom_site_fract_x
_atom_site_fract_y
_atom_site_fract_z
Pb1 Pb 0.0000 0.078356(13) 0.2500
C1 C 0.3333(6) 0.0947(4) 0.3812(9)
H1 H 0.3206 0.0453 0.3865
C2 C 0.4621(7) 0.1221(5) 0.4170(7)
H2 H 0.5353 0.0918 0.4457
C3 C 0.4802(8) 0.1951(5) 0.4092(7)
H3 H 0.5662 0.2150 0.4336
C4 C 0.3702(8) 0.2388(5) 0.3652(7)
H4 H 0.3813 0.2883 0.3586
C5 C 0.2418(6) 0.2076(3) 0.3305(6)
C6 C 0.1169(7) 0.2505(3) 0.2858(6)
C7 C 0.1200(10) 0.3261(3) 0.2829(8)
H5 H 0.2018 0.3509 0.3029
C8 C 0.0000 0.3623(4) 0.2500
Cl1 Cl 0.0000 0.45503(12) 0.2500
N1 N 0.2249(5) 0.1366(3) 0.3389(6)
N2 N 0.0000 0.2142(3) 0.2500
Cl2 Cl 0.13875(14) 0.09778(7) -0.03392(13)
O1 O 0.0013(5) 0.1040(3) -0.0079(6)
O2 O 0.1422(6) 0.0591(3) -0.1507(6)
O3 O 0.1985(9) 0.1662(3) -0.0427(9)
O4 O 0.2150(6) 0.0579(5) 0.0726(6)
Pb1D Pb 0.0000 -0.078356(13) -0.2500
C1A C -0.3333(6) 0.0947(4) 0.1188(9)
H1A H -0.3206 0.0453 0.1135
C2A C -0.4621(7) 0.1221(5) 0.0830(7)
H2A H -0.5353 0.0918 0.0543
C3A C -0.4802(8) 0.1951(5) 0.0908(7)
H3A H -0.5662 0.2150 0.0664
C4A C -0.3702(8) 0.2388(5) 0.1348(7)
H4A H -0.3813 0.2883 0.1414
C5A C -0.2418(6) 0.2076(3) 0.1695(6)
C6A C -0.1169(7) 0.2505(3) 0.2142(6)
C7A C -0.1200(10) 0.3261(3) 0.2171(8)
H5A H -0.2018 0.3509 0.1971
N1A N -0.2249(5) 0.1366(3) 0.1611(6)
Cl2D Cl -0.13875(14) -0.09778(7) 0.03392(13)
O1D O -0.0013(5) -0.1040(3) 0.0079(6)
O1A O -0.0013(5) 0.1040(3) 0.5079(6)
O2D O -0.1422(6) -0.0591(3) 0.1507(6)
O2E O 0.1422(6) -0.0591(3) 0.3493(6)
O3D O -0.1985(9) -0.1662(3) 0.0427(9)
O4D O -0.2150(6) -0.0579(5) -0.0726(6)
O4A O -0.2150(6) 0.0579(5) 0.4274(6)
loop_
_geom_bond_atom_site_label_1
_geom_bond_atom_site_label_2
_geom_bond_site_symmetry_1
_geom_bond_site_symmetry_2
Pb1 N1 1_555 1_555
C1 H1 1_555 1_555
C2 C1 1_555 1_555
H2 C2 1_555 1_555
C3 C2 1_555 1_555
H3 C3 1_555 1_555
C4 C3 1_555 1_555
H4 C4 1_555 1_555
C5 C4 1_555 1_555
C6 C5 1_555 1_555
C7 C6 1_555 1_555
H5 C7 1_555 1_555
C8 C7 1_555 1_555
Cl1 C8 1_555 1_555
N1 C1 1_555 1_555
N2 Pb1 1_555 1_555
Cl2 O1 1_555 1_555
O1 Pb1 1_555 1_555
O2 Cl2 1_555 1_555
O3 Cl2 1_555 1_555
O4 Pb1 1_555 1_555
Pb1D O2 1_555 1_555
C1A H1A 1_555 1_555
C2A C1A 1_555 1_555
H2A C2A 1_555 1_555
C3A C2A 1_555 1_555
H3A C3A 1_555 1_555
C4A C3A 1_555 1_555
H4A C4A 1_555 1_555
C5A C4A 1_555 1_555
C6A N2 1_555 1_555
C7A C8 1_555 1_555
H5A C7A 1_555 1_555
N1A Pb1 1_555 1_555
Cl2D O1D 1_555 1_555
O1D Pb1D 1_555 1_555
O1A Pb1 1_555 1_555
O2D Pb1 1_555 1_555
O2E Pb1 1_555 1_555
O3D Cl2D 1_555 1_555
O4D Pb1D 1_555 1_555
O4A Pb1 1_555 1_555
C5 N1 1_555 1_555
C6 N2 1_555 1_555
Cl2 O4 1_555 1_555
C1A N1A 1_555 1_555
C5A C6A 1_555 1_555
C5A N1A 1_555 1_555
C6A C7A 1_555 1_555
Cl2D O2D 1_555 1_555
Cl2D O4D 1_555 1_555

#END
