
#######################################################################
#
#                 Cambridge Crystallographic Data Centre
#                                CCDC 
#
#######################################################################
#
# If this CIF has been generated from an entry in the Cambridge 
# Structural Database, then it will include bibliographic, chemical, 
# crystal, experimental, refinement or atomic coordinate data resulting 
# from the CCDC's data processing and validation procedures.
#
#######################################################################

data_OJANES
_symmetry_cell_setting           monoclinic
_symmetry_space_group_name_H-M   'C 2/c'
_symmetry_Int_Tables_number      15
_space_group_name_Hall           '-C 2yn'
loop_
_symmetry_equiv_pos_site_id
_symmetry_equiv_pos_as_xyz
1 x,y,z
2 1/2+x,1/2+y,z
3 x,-y,1/2+z
4 1/2+x,1/2-y,1/2+z
5 -x,-y,-z
6 1/2-x,1/2-y,-z
7 -x,y,1/2-z
8 1/2-x,1/2+y,1/2-z
_cell_length_a                   16.074(2)
_cell_length_b                   6.5279(7)
_cell_length_c                   20.005(2)
_cell_angle_alpha                90.00
_cell_angle_beta                 103.420(15)
_cell_angle_gamma                90.00
_cell_volume                     2041.8
loop_
_atom_site_label
_atom_site_type_symbol
_atom_site_fract_x
_atom_site_fract_y
_atom_site_fract_z
Hg1 Hg 0.18805(3) 0.97227(6) 0.09190(2)
Hg2 Hg 0.19696(2) 0.25696(5) -0.11069(2)
O1 O 0.1019(5) 0.7412(11) 0.0148(4)
O2 O 0.1566(7) 0.6835(13) 0.1618(4)
O3 O 0.1119(6) 0.4193(12) -0.0119(5)
O4 O 0.1949(8) 0.8805(15) 0.2510(5)
O5 O 0.2240(5) 0.5833(10) 0.0460(4)
O6 O 0.1103(7) 0.6284(18) 0.2534(5)
N1 N -0.0926(5) 0.9702(12) 0.1229(5)
N2 N 0.1540(7) 0.7325(13) 0.2226(5)
N3 N 0.1467(6) 0.5781(12) 0.0160(5)
N4 N 0.0448(6) 1.0673(12) 0.1087(5)
C1 C 0.0383(8) 1.2450(15) 0.1376(6)
C2 C -0.0201(6) 0.9327(14) 0.1009(6)
C3 C -0.1015(7) 1.1517(15) 0.1543(6)
C4 C -0.0355(7) 1.2990(16) 0.1618(6)
Hg2E Hg 0.30304(2) 1.24304(5) 0.11069(2)
Hg1E Hg 0.31195(3) 0.52773(6) -0.09190(2)
O5E O 0.2760(5) -0.0833(10) -0.0460(4)
O6B O 0.1103(7) 0.3716(18) -0.2466(5)
N1D N 0.0926(5) 0.0298(12) -0.1229(5)
Hg2E_2 Hg 0.30304(2) 0.24304(5) 0.11069(2)
Hg2B Hg 0.19696(2) 0.74304(5) 0.38931(2)
Hg2D Hg -0.19696(2) 0.74304(5) 0.11069(2)
loop_
_geom_bond_atom_site_label_1
_geom_bond_atom_site_label_2
_geom_bond_site_symmetry_1
_geom_bond_site_symmetry_2
Hg1 O1 1_555 1_555
Hg2 O3 1_555 1_555
O1 N3 1_555 1_555
O2 Hg1 1_555 1_555
O3 N3 1_555 1_555
O4 N2 1_555 1_555
O5 Hg1 1_555 1_555
O6 N2 1_555 1_555
N1 C2 1_555 1_555
N2 O2 1_555 1_555
N3 O5 1_555 1_555
N4 Hg1 1_555 1_555
C1 N4 1_555 1_555
C2 N4 1_555 1_555
C3 N1 1_555 1_555
C4 C1 1_555 1_555
Hg2E Hg1 1_555 1_555
Hg1E Hg2 1_555 1_555
O5E Hg2 1_555 1_555
O6B Hg2 1_555 1_555
N1D Hg2 1_555 1_555
Hg2E_2 O5 1_555 1_555
Hg2B O6 1_555 1_555
Hg2D N1 1_555 1_555
C3 C4 1_555 1_555

#END
