
#######################################################################
#
#                 Cambridge Crystallographic Data Centre
#                                CCDC 
#
#######################################################################
#
# If this CIF has been generated from an entry in the Cambridge 
# Structural Database, then it will include bibliographic, chemical, 
# crystal, experimental, refinement or atomic coordinate data resulting 
# from the CCDC's data processing and validation procedures.
#
#######################################################################

data_OJAPEV
_symmetry_cell_setting           monoclinic
_symmetry_space_group_name_H-M   'C 2/c'
_symmetry_Int_Tables_number      15
_space_group_name_Hall           '-C 2yn'
loop_
_symmetry_equiv_pos_site_id
_symmetry_equiv_pos_as_xyz
1 x,y,z
2 -x,y,1/2-z
3 1/2+x,1/2+y,z
4 1/2-x,1/2+y,1/2-z
5 -x,-y,-z
6 x,-y,1/2+z
7 1/2-x,1/2-y,-z
8 1/2+x,1/2-y,1/2+z
_cell_length_a                   18.343(5)
_cell_length_b                   10.345(2)
_cell_length_c                   23.242(6)
_cell_angle_alpha                90
_cell_angle_beta                 94.373(3)
_cell_angle_gamma                90
_cell_volume                     4397.52
loop_
_atom_site_label
_atom_site_type_symbol
_atom_site_fract_x
_atom_site_fract_y
_atom_site_fract_z
Cd1 Cd 0.984930(14) 0.09925(3) 0.572216(11)
O1 O 1.05128(15) 0.2753(3) 0.61489(13)
N1 N 1.06725(18) -0.0330(3) 0.62862(13)
C1 C 1.1218(3) -0.0974(4) 0.60762(18)
H1 H 1.1270 -0.0927 0.5673
Cl1 Cl 0.90018(6) 0.12007(13) 0.65482(5)
N2 N 1.22536(18) -0.2241(3) 0.79719(13)
C2 C 1.1716(2) -0.1714(4) 0.64136(16)
H2 H 1.2099 -0.2155 0.6241
Cl2 Cl 0.92298(6) -0.09675(9) 0.51339(4)
N3 N 1.30552(16) -0.1532(3) 0.90436(12)
C3 C 1.1654(2) -0.1806(4) 0.70011(16)
N4 N 1.41431(17) 0.2346(3) 1.02207(14)
C4 C 1.1096(3) -0.1126(4) 0.72207(18)
H3 H 1.1033 -0.1155 0.7622
C5 C 1.0624(2) -0.0397(5) 0.68581(18)
H4 H 1.0249 0.0079 0.7022
C6 C 1.2169(2) -0.2657(4) 0.73691(17)
H5 H 1.1984 -0.3555 0.7352
H6 H 1.2654 -0.2651 0.7209
C7 C 1.2647(2) -0.3211(4) 0.83330(16)
H7 H 1.3148 -0.3316 0.8209
H8 H 1.2393 -0.4054 0.8289
C8 C 1.2683(2) -0.2789(4) 0.89596(16)
H9 H 1.2181 -0.2721 0.9086
H10 H 1.2948 -0.3450 0.9202
C9 C 1.2674(2) -0.0577(4) 0.86623(18)
H11 H 1.2933 0.0262 0.8702
H12 H 1.2172 -0.0452 0.8780
C10 C 1.2640(3) -0.1008(4) 0.80401(19)
H13 H 1.2384 -0.0346 0.7793
H14 H 1.3142 -0.1104 0.7917
C11 C 1.3017(2) -0.1142(4) 0.96502(17)
H15 H 1.3232 -0.1839 0.9901
H16 H 1.2497 -0.1056 0.9729
C12 C 1.34035(19) 0.0107(4) 0.98135(15)
C13 C 1.3093(3) 0.0972(5) 1.0168(3)
H17 H 1.2615 0.0815 1.0283
C14 C 1.4089(2) 0.0430(4) 0.9654(2)
H18 H 1.4330 -0.0120 0.9401
C15 C 1.3464(2) 0.2068(5) 1.0361(2)
H19 H 1.3230 0.2650 1.0604
C16 C 1.4427(2) 0.1545(4) 0.98584(19)
H20 H 1.4893 0.1749 0.9731
Cd1D Cd 1.015070(14) -0.09925(3) 0.427784(11)
Cd1C Cd 0.515070(14) -0.40075(3) -0.072216(11)
Cd1G Cd 1.484930(14) 0.40075(3) 1.072216(11)
O1D O 0.94872(15) -0.2753(3) 0.38511(13)
N1D N 0.93275(18) 0.0330(3) 0.37138(13)
C1D C 0.8782(3) 0.0974(4) 0.39238(18)
H1D H 0.8730 0.0927 0.4327
Cl1D Cl 1.09982(6) -0.12007(13) 0.34518(5)
N2D N 0.77464(18) 0.2241(3) 0.20281(13)
C2D C 0.8284(2) 0.1714(4) 0.35864(16)
H2D H 0.7901 0.2155 0.3759
Cl2D Cl 1.07702(6) 0.09675(9) 0.48661(4)
N3D N 0.69448(16) 0.1532(3) 0.09564(12)
C3D C 0.8346(2) 0.1806(4) 0.29989(16)
N4D N 0.58569(17) -0.2346(3) -0.02207(14)
N4C N 1.08569(17) -0.2654(3) 0.47793(14)
N4G N 0.91431(17) 0.2654(3) 0.52207(14)
C4D C 0.8904(3) 0.1126(4) 0.27793(18)
H3D H 0.8967 0.1155 0.2378
C5D C 0.9376(2) 0.0397(5) 0.31419(18)
H4D H 0.9751 -0.0079 0.2978
C6D C 0.7831(2) 0.2657(4) 0.26309(17)
H5D H 0.8016 0.3555 0.2648
H6D H 0.7346 0.2651 0.2791
C7D C 0.7353(2) 0.3211(4) 0.16670(16)
H7D H 0.6852 0.3316 0.1791
H8D H 0.7607 0.4054 0.1711
C8D C 0.7317(2) 0.2789(4) 0.10404(16)
H9D H 0.7819 0.2721 0.0914
H10D H 0.7052 0.3450 0.0798
C9D C 0.7326(2) 0.0577(4) 0.13377(18)
H11D H 0.7067 -0.0262 0.1298
H12D H 0.7828 0.0452 0.1220
C10D C 0.7360(3) 0.1008(4) 0.19599(19)
H13D H 0.7616 0.0346 0.2207
H14D H 0.6858 0.1104 0.2083
C11D C 0.6983(2) 0.1142(4) 0.03498(17)
H15D H 0.6768 0.1839 0.0099
H16D H 0.7503 0.1056 0.0271
C12D C 0.65965(19) -0.0107(4) 0.01865(15)
C13D C 0.6907(3) -0.0972(5) -0.0168(3)
H17D H 0.7385 -0.0815 -0.0283
C14D C 0.5911(2) -0.0430(4) 0.0346(2)
H18D H 0.5670 0.0120 0.0599
C15D C 0.6536(2) -0.2068(5) -0.0361(2)
H19D H 0.6770 -0.2650 -0.0604
C16D C 0.5573(2) -0.1545(4) 0.01416(19)
H20D H 0.5107 -0.1749 0.0269
C17 C 1.0736(2) -0.4657(4) 0.86035(19)
H21 H 1.1185 -0.4531 0.8862
H22 H 1.0377 -0.5143 0.8816
C18 C 1.0898(11) -0.533(2) 0.8116(7)
H23 H 1.1416 -0.5571 0.8148
H24 H 1.0795 -0.4783 0.7775
H25 H 1.0596 -0.6111 0.8079
O2 O 1.0443(17) -0.345(2) 0.8422(10)
H26 H 1.0305 -0.3048 0.8709
O3 O 1.0538(9) -0.7181(14) 0.7351(7)
O4 O 0.9784(9) -0.5151(19) 0.8059(6)
loop_
_geom_bond_atom_site_label_1
_geom_bond_atom_site_label_2
_geom_bond_site_symmetry_1
_geom_bond_site_symmetry_2
Cd1 O1 1_555 1_555
N1 Cd1 1_555 1_555
C1 N1 1_555 1_555
H1 C1 1_555 1_555
Cl1 Cd1 1_555 1_555
N2 C6 1_555 1_555
C2 C1 1_555 1_555
H2 C2 1_555 1_555
Cl2 Cd1 1_555 1_555
N3 C8 1_555 1_555
C3 C2 1_555 1_555
N4 C15 1_555 1_555
C4 C3 1_555 1_555
H3 C4 1_555 1_555
C5 N1 1_555 1_555
H4 C5 1_555 1_555
C6 C3 1_555 1_555
H5 C6 1_555 1_555
H6 C6 1_555 1_555
C7 N2 1_555 1_555
H7 C7 1_555 1_555
H8 C7 1_555 1_555
C8 C7 1_555 1_555
H9 C8 1_555 1_555
H10 C8 1_555 1_555
C9 N3 1_555 1_555
H11 C9 1_555 1_555
H12 C9 1_555 1_555
C10 N2 1_555 1_555
H13 C10 1_555 1_555
H14 C10 1_555 1_555
C11 N3 1_555 1_555
H15 C11 1_555 1_555
H16 C11 1_555 1_555
C12 C11 1_555 1_555
C13 C12 1_555 1_555
H17 C13 1_555 1_555
C14 C12 1_555 1_555
H18 C14 1_555 1_555
C15 C13 1_555 1_555
H19 C15 1_555 1_555
C16 N4 1_555 1_555
H20 C16 1_555 1_555
C17 H21 1_555 1_555
H22 C17 1_555 1_555
C18 C17 1_555 1_555
H23 C18 1_555 1_555
H24 C18 1_555 1_555
H25 C18 1_555 1_555
O2 C17 1_555 1_555
H26 O2 1_555 1_555
Cd1D Cl2 1_555 1_555
Cd1C N4D 1_555 1_555
Cd1G N4 1_555 1_555
O1D Cd1D 1_555 1_555
N1D Cd1D 1_555 1_555
C1D N1D 1_555 1_555
H1D C1D 1_555 1_555
Cl1D Cd1D 1_555 1_555
N2D C6D 1_555 1_555
C2D C1D 1_555 1_555
H2D C2D 1_555 1_555
Cl2D Cd1 1_555 1_555
N3D C8D 1_555 1_555
C3D C2D 1_555 1_555
N4D C15D 1_555 1_555
N4C Cd1D 1_555 1_555
N4G Cd1 1_555 1_555
C4D C3D 1_555 1_555
H3D C4D 1_555 1_555
C5D N1D 1_555 1_555
H4D C5D 1_555 1_555
C6D C3D 1_555 1_555
H5D C6D 1_555 1_555
H6D C6D 1_555 1_555
C7D N2D 1_555 1_555
H7D C7D 1_555 1_555
H8D C7D 1_555 1_555
C8D C7D 1_555 1_555
H9D C8D 1_555 1_555
H10D C8D 1_555 1_555
C9D N3D 1_555 1_555
H11D C9D 1_555 1_555
H12D C9D 1_555 1_555
C10D N2D 1_555 1_555
H13D C10D 1_555 1_555
H14D C10D 1_555 1_555
C11D N3D 1_555 1_555
H15D C11D 1_555 1_555
H16D C11D 1_555 1_555
C12D C11D 1_555 1_555
C13D C12D 1_555 1_555
H17D C13D 1_555 1_555
C14D C12D 1_555 1_555
H18D C14D 1_555 1_555
C15D C13D 1_555 1_555
H19D C15D 1_555 1_555
C16D N4D 1_555 1_555
H20D C16D 1_555 1_555
C4 C5 1_555 1_555
C9 C10 1_555 1_555
C14 C16 1_555 1_555
Cd1D Cl2D 1_555 1_555
C4D C5D 1_555 1_555
C9D C10D 1_555 1_555
C14D C16D 1_555 1_555

#END
