
#######################################################################
#
#                 Cambridge Crystallographic Data Centre
#                                CCDC 
#
#######################################################################
#
# If this CIF has been generated from an entry in the Cambridge 
# Structural Database, then it will include bibliographic, chemical, 
# crystal, experimental, refinement or atomic coordinate data resulting 
# from the CCDC's data processing and validation procedures.
#
#######################################################################

data_OJAPIZ
_symmetry_cell_setting           monoclinic
_symmetry_space_group_name_H-M   'P 21/c'
_symmetry_Int_Tables_number      14
_space_group_name_Hall           '-P 2ybc'
loop_
_symmetry_equiv_pos_site_id
_symmetry_equiv_pos_as_xyz
1 x,y,z
2 -x,1/2+y,1/2-z
3 -x,-y,-z
4 x,1/2-y,1/2+z
_cell_length_a                   11.513(6)
_cell_length_b                   7.453(4)
_cell_length_c                   15.136(8)
_cell_angle_alpha                90
_cell_angle_beta                 101.486(9)
_cell_angle_gamma                90
_cell_volume                     1272.76
loop_
_atom_site_label
_atom_site_type_symbol
_atom_site_fract_x
_atom_site_fract_y
_atom_site_fract_z
Cd1 Cd 0.0000 0.0000 0.0000
O3 O -0.1445(2) 0.1471(3) 0.06466(15)
O4 O 0.0216(2) 0.2661(4) -0.06738(18)
C1 C 0.4745(3) -0.0701(4) 0.41075(19)
H1 H 0.5512 -0.0530 0.3917
H2 H 0.4190 -0.1286 0.3607
N1 N 0.4263(2) 0.1067(3) 0.43048(15)
N2 N 0.1493(2) 0.0712(4) 0.12180(16)
C2 C 0.3536(3) 0.1007(5) 0.1938(2)
H3 H 0.4344 0.0875 0.1896
C3 C 0.3242(2) 0.1657(4) 0.27156(19)
C4 C 0.4921(2) -0.1890(4) 0.49353(17)
H4 H 0.4147 -0.2105 0.5107
H5 H 0.5242 -0.3064 0.4793
C5 C 0.2643(3) 0.0547(5) 0.1216(2)
H6 H 0.2865 0.0086 0.0689
C6 C 0.2052(3) 0.1822(5) 0.2725(2)
H7 H 0.1810 0.2262 0.3249
C7 C 0.4177(3) 0.2252(4) 0.3511(2)
H8 H 0.4956 0.2285 0.3328
H9 H 0.3992 0.3485 0.3683
C8 C 0.1216(3) 0.1352(6) 0.1982(2)
H10 H 0.0402 0.1485 0.2007
Cd1_2 Cd 1.0000 0.0000 1.0000
O3B O 0.1445(2) -0.1471(3) -0.06466(15)
O4B O -0.0216(2) -0.2661(4) 0.06738(18)
C1B C 0.5255(3) 0.0701(4) 0.58925(19)
H1B H 0.4488 0.0530 0.6083
H2B H 0.5810 0.1286 0.6393
N1B N 0.5737(2) -0.1067(3) 0.56952(15)
N2B N 0.8507(2) -0.0712(4) 0.87820(16)
N2B_2 N -0.1493(2) -0.0712(4) -0.12180(16)
C2B C 0.6464(3) -0.1007(5) 0.8062(2)
H3B H 0.5656 -0.0875 0.8104
C3B C 0.6758(2) -0.1657(4) 0.72844(19)
C4B C 0.5079(2) 0.1890(4) 0.50647(17)
H4B H 0.5853 0.2105 0.4893
H5B H 0.4758 0.3064 0.5207
C5B C 0.7357(3) -0.0547(5) 0.8784(2)
H6B H 0.7135 -0.0086 0.9311
C6B C 0.7948(3) -0.1822(5) 0.7275(2)
H7B H 0.8190 -0.2262 0.6751
C7B C 0.5823(3) -0.2252(4) 0.6489(2)
H8B H 0.5044 -0.2285 0.6672
H9B H 0.6008 -0.3485 0.6317
C8B C 0.8784(3) -0.1352(6) 0.8018(2)
H10B H 0.9598 -0.1485 0.7993
O1 O 0.2973(3) -0.3836(4) 0.3055(2)
O5 O 0.1278(3) -0.3772(6) 0.2242(3)
N3 N 0.2346(3) -0.3817(4) 0.22866(18)
O6 O 0.2767(3) -0.3851(6) 0.1614(2)
O2 O 0.2074(3) -0.5081(3) -0.0152(2)
loop_
_geom_bond_atom_site_label_1
_geom_bond_atom_site_label_2
_geom_bond_site_symmetry_1
_geom_bond_site_symmetry_2
Cd1 O3 1_555 1_555
O1 N3 1_555 1_555
O4 Cd1 1_555 1_555
C1 H1 1_555 1_555
H2 C1 1_555 1_555
O5 N3 1_555 1_555
N1 C1 1_555 1_555
N2 Cd1 1_555 1_555
C2 H3 1_555 1_555
C3 C2 1_555 1_555
N3 O6 1_555 1_555
C4 C1 1_555 1_555
H4 C4 1_555 1_555
H5 C4 1_555 1_555
C5 N2 1_555 1_555
H6 C5 1_555 1_555
C6 C3 1_555 1_555
H7 C6 1_555 1_555
C7 N1 1_555 1_555
H8 C7 1_555 1_555
H9 C7 1_555 1_555
C8 N2 1_555 1_555
H10 C8 1_555 1_555
Cd1_2 N2B 1_555 1_555
O3B Cd1 1_555 1_555
O4B Cd1 1_555 1_555
C1B H1B 1_555 1_555
H2B C1B 1_555 1_555
N1B C4 1_555 1_555
N2B C5B 1_555 1_555
N2B_2 Cd1 1_555 1_555
C2B H3B 1_555 1_555
C3B C2B 1_555 1_555
C4B N1 1_555 1_555
H4B C4B 1_555 1_555
H5B C4B 1_555 1_555
C5B C2B 1_555 1_555
H6B C5B 1_555 1_555
C6B C3B 1_555 1_555
H7B C6B 1_555 1_555
C7B N1B 1_555 1_555
H8B C7B 1_555 1_555
H9B C7B 1_555 1_555
C8B N2B 1_555 1_555
H10B C8B 1_555 1_555
C2 C5 1_555 1_555
C3 C7 1_555 1_555
C6 C8 1_555 1_555
C1B N1B 1_555 1_555
C1B C4B 1_555 1_555
C3B C7B 1_555 1_555
C6B C8B 1_555 1_555

#END
