
#######################################################################
#
#                 Cambridge Crystallographic Data Centre
#                                CCDC 
#
#######################################################################
#
# If this CIF has been generated from an entry in the Cambridge 
# Structural Database, then it will include bibliographic, chemical, 
# crystal, experimental, refinement or atomic coordinate data resulting 
# from the CCDC's data processing and validation procedures.
#
#######################################################################

data_OJAROI
_symmetry_cell_setting           triclinic
_symmetry_space_group_name_H-M   'P -1'
_symmetry_Int_Tables_number      2
_space_group_name_Hall           '-P 1'
loop_
_symmetry_equiv_pos_site_id
_symmetry_equiv_pos_as_xyz
1 x,y,z
2 -x,-y,-z
_cell_length_a                   10.8904(7)
_cell_length_b                   12.8137(9)
_cell_length_c                   17.3860(11)
_cell_angle_alpha                105.159(1)
_cell_angle_beta                 94.273(1)
_cell_angle_gamma                94.113(1)
_cell_volume                     2324.71
loop_
_atom_site_label
_atom_site_type_symbol
_atom_site_fract_x
_atom_site_fract_y
_atom_site_fract_z
Ag1 Ag 0.18943(6) 0.11946(6) -0.47207(5)
Ag2 Ag -0.77686(9) -0.12793(8) -0.38271(5)
Ag3 Ag 0.29475(5) 0.49965(5) 0.23345(3)
Ag4 Ag 0.23917(9) 0.14363(8) 0.84104(7)
C1 C 0.1308(6) 0.6645(6) -0.2261(4)
H1 H 0.1406 0.6760 -0.1709
C2 C 0.1684(7) 0.7450(6) -0.2591(5)
H2 H 0.2037 0.8107 -0.2251
C3 C 0.1061(7) 0.6383(6) -0.3853(4)
H3 H 0.0978 0.6283 -0.4404
C4 C 0.0654(7) 0.5533(6) -0.3559(4)
H4 H 0.0296 0.4883 -0.3906
C5 C 0.0784(6) 0.5659(5) -0.2741(4)
C6 C 0.0379(6) 0.4775(5) -0.2385(4)
C7 C -0.0512(6) 0.3938(5) -0.2780(4)
H5 H -0.0886 0.3925 -0.3282
C8 C -0.0844(6) 0.3119(5) -0.2423(4)
C9 C -0.0261(6) 0.3193(6) -0.1661(4)
H6 H -0.0433 0.2652 -0.1407
C10 C 0.0585(6) 0.4093(5) -0.1286(4)
C11 C 0.1203(6) 0.4245(5) -0.0465(4)
C12 C 0.0899(7) 0.3591(6) 0.0020(4)
H7 H 0.0303 0.3004 -0.0170
C13 C 0.1475(7) 0.3803(6) 0.0787(4)
H8 H 0.1253 0.3350 0.1103
C14 C 0.2645(6) 0.5277(6) 0.0623(4)
H9 H 0.3245 0.5857 0.0829
C15 C 0.2100(6) 0.5111(5) -0.0157(4)
H10 H 0.2334 0.5572 -0.0465
C16 C -0.1922(5) 0.2300(5) -0.2771(4)
C17 C -0.2165(6) 0.1695(5) -0.3577(4)
C18 C -0.3287(6) 0.1095(5) -0.3852(4)
H11 H -0.3443 0.0706 -0.4387
C19 C -0.4187(6) 0.1071(5) -0.3324(4)
C20 C -0.3946(6) 0.1599(6) -0.2530(4)
H12 H -0.4533 0.1551 -0.2176
C21 C -0.2831(6) 0.2203(6) -0.2260(4)
H13 H -0.2674 0.2559 -0.1718
C22 C 0.3056(7) 0.3815(6) 0.7055(4)
H14 H 0.2778 0.3822 0.6537
C23 C 0.2701(7) 0.2969(6) 0.7330(4)
H15 H 0.2168 0.2407 0.6994
C24 C 0.3811(8) 0.3710(7) 0.8525(5)
H16 H 0.4079 0.3672 0.9037
C25 C 0.4210(7) 0.4614(6) 0.8304(4)
H17 H 0.4722 0.5173 0.8659
C26 C 0.3836(6) 0.4684(6) 0.7535(4)
C27 C 0.4210(6) 0.5641(5) 0.7237(4)
C28 C 0.4826(6) 0.6605(6) 0.7741(4)
H18 H 0.4978 0.6686 0.8288
C29 C 0.5204(6) 0.7432(6) 0.7411(4)
C30 C 0.4963(6) 0.7275(6) 0.6595(4)
H19 H 0.5217 0.7813 0.6356
C31 C 0.4337(6) 0.6305(5) 0.6139(4)
C32 C 0.4004(6) 0.6068(5) 0.5258(4)
C33 C 0.4467(6) 0.6730(6) 0.4790(4)
H20 H 0.4981 0.7361 0.5027
C34 C 0.4144(7) 0.6425(6) 0.3983(4)
H21 H 0.4460 0.6866 0.3682
C35 C 0.2974(7) 0.4908(6) 0.4040(4)
H22 H 0.2466 0.4281 0.3780
C36 C 0.3234(7) 0.5132(6) 0.4854(4)
H23 H 0.2903 0.4669 0.5133
C37 C 0.5766(7) 0.8486(6) 0.7962(4)
C38 C 0.7001(6) 0.8892(6) 0.8020(4)
C39 C 0.7447(6) 0.9859(6) 0.8575(4)
H24 H 0.8277 1.0114 0.8615
C40 C 0.6646(6) 1.0444(6) 0.9070(4)
C41 C 0.5415(7) 1.0052(6) 0.8999(4)
H25 H 0.4875 1.0445 0.9326
C42 C 0.4986(7) 0.9103(6) 0.8462(4)
H26 H 0.4153 0.8856 0.8424
N1 N 0.2334(5) 0.4628(5) 0.1092(3)
N2 N 0.0900(5) 0.4847(4) -0.1643(3)
N3 N 0.1571(5) 0.7347(5) -0.3387(4)
N4 N 0.3072(6) 0.2886(5) 0.8065(4)
N5 N 0.3966(5) 0.5506(4) 0.6452(3)
N6 N 0.3410(5) 0.5539(5) 0.3599(3)
S1 S -0.10488(15) 0.16305(15) -0.42875(9)
S2 S -0.56987(16) 0.04501(15) -0.37136(12)
S3 S 0.81117(17) 0.81302(16) 0.74534(11)
S4 S 0.72239(18) 1.16483(15) 0.98169(11)
O1 O 0.0092(4) 0.1448(5) -0.3884(3)
O2 O 0.2156(10) 0.0737(8) 0.9442(7)
H27 H 0.2093 0.1077 0.9926
H28 H 0.2184 0.0069 0.9422
O3 O -0.0982(5) 0.2637(4) -0.4525(3)
O4 O 0.1479(6) 0.2695(6) -0.5145(4)
H29 H 0.0771 0.2934 -0.5126
H30 H 0.1715 0.2680 -0.5602
O5 O -0.1524(5) 0.0714(4) -0.4974(3)
O6 O 0.0781(8) 0.0198(8) 0.7252(7)
H31 H 0.0449 0.0503 0.6923
H32 H 0.0236 -0.0258 0.7337
O7 O -0.5589(5) -0.0619(4) -0.4220(3)
O8 O -0.6158(5) 0.1201(5) -0.4150(4)
O9 O -0.6387(5) 0.0409(5) -0.3035(4)
O10 O 0.7817(7) 0.8144(6) 0.6639(4)
O11 O 0.7968(5) 0.7050(4) 0.7570(3)
O12 O 0.9306(5) 0.8707(5) 0.7781(4)
O13 O 0.8422(5) 1.1956(5) 0.9610(3)
O14 O 0.7312(6) 1.1333(5) 1.0559(3)
O15 O 0.6347(7) 1.2423(5) 0.9786(5)
Ag1_2 Ag -0.81057(6) 0.11946(6) -0.47207(5)
Ag1A Ag -0.18943(6) -0.11946(6) -0.52793(5)
Ag2_2 Ag 0.22314(9) 0.87207(8) -0.38271(5)
Ag2A Ag -0.22314(9) 0.12793(8) -0.61729(5)
N3_2 N -0.8429(5) -0.2653(5) -0.3387(4)
O5A O -0.8476(5) -0.0714(4) -0.5026(3)
O5A_2 O 0.1524(5) -0.0714(4) -0.5026(3)
O8_2 O 0.3842(5) 0.1201(5) -0.4150(4)
O16 O 0.4044(9) 1.2781(9) 1.0239(5)
H33 H 0.4671 1.2864 0.9990
H34 H 0.3619 1.3313 1.0251
O17 O 1.0436(7) 1.1249(7) 1.0468(5)
H35 H 0.9792 1.1350 1.0199
H36 H 1.0235 1.1243 1.0932
loop_
_geom_bond_atom_site_label_1
_geom_bond_atom_site_label_2
_geom_bond_site_symmetry_1
_geom_bond_site_symmetry_2
Ag1 O1 1_555 1_555
Ag2 O7 1_555 1_555
Ag3 N1 1_555 1_555
Ag4 N4 1_555 1_555
C1 H1 1_555 1_555
C2 C1 1_555 1_555
H2 C2 1_555 1_555
C3 H3 1_555 1_555
C4 C3 1_555 1_555
H4 C4 1_555 1_555
C5 C1 1_555 1_555
C6 C5 1_555 1_555
C7 C6 1_555 1_555
H5 C7 1_555 1_555
C8 C7 1_555 1_555
C9 C8 1_555 1_555
H6 C9 1_555 1_555
C10 C9 1_555 1_555
C11 C10 1_555 1_555
C12 C11 1_555 1_555
H7 C12 1_555 1_555
C13 C12 1_555 1_555
H8 C13 1_555 1_555
C14 H9 1_555 1_555
C15 C11 1_555 1_555
H10 C15 1_555 1_555
C16 C8 1_555 1_555
C17 C16 1_555 1_555
C18 C17 1_555 1_555
H11 C18 1_555 1_555
C19 C18 1_555 1_555
C20 C19 1_555 1_555
H12 C20 1_555 1_555
C21 C16 1_555 1_555
H13 C21 1_555 1_555
C22 H14 1_555 1_555
C23 C22 1_555 1_555
H15 C23 1_555 1_555
C24 H16 1_555 1_555
C25 C24 1_555 1_555
H17 C25 1_555 1_555
C26 C22 1_555 1_555
C27 C26 1_555 1_555
C28 C27 1_555 1_555
H18 C28 1_555 1_555
C29 C28 1_555 1_555
C30 C29 1_555 1_555
H19 C30 1_555 1_555
C31 C30 1_555 1_555
C32 C31 1_555 1_555
C33 C32 1_555 1_555
H20 C33 1_555 1_555
C34 C33 1_555 1_555
H21 C34 1_555 1_555
C35 H22 1_555 1_555
C36 C32 1_555 1_555
H23 C36 1_555 1_555
C37 C29 1_555 1_555
C38 C37 1_555 1_555
C39 C38 1_555 1_555
H24 C39 1_555 1_555
C40 C39 1_555 1_555
C41 C40 1_555 1_555
H25 C41 1_555 1_555
C42 C37 1_555 1_555
H26 C42 1_555 1_555
N1 C13 1_555 1_555
N2 C6 1_555 1_555
N3 C2 1_555 1_555
N4 C23 1_555 1_555
N5 C27 1_555 1_555
N6 Ag3 1_555 1_555
S1 C17 1_555 1_555
S2 C19 1_555 1_555
S3 C38 1_555 1_555
S4 C40 1_555 1_555
O1 S1 1_555 1_555
O2 Ag4 1_555 1_555
H27 O2 1_555 1_555
H28 O2 1_555 1_555
O3 S1 1_555 1_555
O4 Ag1 1_555 1_555
H29 O4 1_555 1_555
H30 O4 1_555 1_555
O5 S1 1_555 1_555
O6 Ag4 1_555 1_555
H31 O6 1_555 1_555
H32 O6 1_555 1_555
O7 S2 1_555 1_555
O8 S2 1_555 1_555
O9 Ag2 1_555 1_555
O10 S3 1_555 1_555
O11 S3 1_555 1_555
O12 S3 1_555 1_555
O13 S4 1_555 1_555
O14 S4 1_555 1_555
O15 S4 1_555 1_555
O16 H33 1_555 1_555
H34 O16 1_555 1_555
O17 H35 1_555 1_555
H36 O17 1_555 1_555
Ag1_2 O8 1_555 1_555
Ag1A O5 1_555 1_555
Ag2_2 N3 1_555 1_555
Ag2A O5 1_555 1_555
N3_2 Ag2 1_555 1_555
O5A Ag2 1_555 1_555
O5A_2 Ag1 1_555 1_555
O8_2 Ag1 1_555 1_555
C3 N3 1_555 1_555
C4 C5 1_555 1_555
C10 N2 1_555 1_555
C14 C15 1_555 1_555
C14 N1 1_555 1_555
C20 C21 1_555 1_555
C24 N4 1_555 1_555
C25 C26 1_555 1_555
C31 N5 1_555 1_555
C34 N6 1_555 1_555
C35 C36 1_555 1_555
C35 N6 1_555 1_555
C41 C42 1_555 1_555
S2 O9 1_555 1_555
Ag1_2 O5A 1_555 1_555

#END
