
#######################################################################
#
#                 Cambridge Crystallographic Data Centre
#                                CCDC 
#
#######################################################################
#
# If this CIF has been generated from an entry in the Cambridge 
# Structural Database, then it will include bibliographic, chemical, 
# crystal, experimental, refinement or atomic coordinate data resulting 
# from the CCDC's data processing and validation procedures.
#
#######################################################################

data_OJARAU
_symmetry_cell_setting           triclinic
_symmetry_space_group_name_H-M   'P -1'
_symmetry_Int_Tables_number      2
_space_group_name_Hall           '-P 1'
loop_
_symmetry_equiv_pos_site_id
_symmetry_equiv_pos_as_xyz
1 x,y,z
2 -x,-y,-z
_cell_length_a                   8.2928(16)
_cell_length_b                   11.423(2)
_cell_length_c                   12.436(2)
_cell_angle_alpha                101.262(2)
_cell_angle_beta                 103.547(2)
_cell_angle_gamma                96.798(2)
_cell_volume                     1106.45
loop_
_atom_site_label
_atom_site_type_symbol
_atom_site_fract_x
_atom_site_fract_y
_atom_site_fract_z
Cd1 Cd 0.23473(3) -0.19539(2) 0.08956(2)
S1 S 0.45666(11) 0.09474(8) 0.27144(8)
S2 S 0.92389(12) -0.16858(8) 0.18761(9)
O1 O 0.4205(3) 0.1655(2) 0.3685(2)
O2 O 0.4598(4) -0.2357(3) 0.0000(3)
H1 H 0.5426 -0.2640 0.0338
H2 H 0.4717 -0.2323 -0.0654
O3 O 0.4276(3) 0.1486(2) 0.1726(2)
O4 O 0.2492(4) -0.0420(3) -0.0112(3)
H3 H 0.3262 0.0109 0.0373
H4 H 0.1763 -0.0048 -0.0438
O5 O 0.3713(3) -0.0314(2) 0.2402(2)
O6 O 1.0625(4) -0.2110(3) 0.2526(3)
O7 O 0.7696(3) -0.2554(2) 0.1432(3)
O8 O 0.9771(4) -0.1195(3) 0.0979(3)
N1 N 1.0623(4) 0.6746(3) 0.9246(3)
N2 N 0.7404(4) 0.5399(2) 0.5133(3)
N3 N 0.3790(4) 0.6890(3) 0.1999(3)
C1 C 0.9416(5) 0.7140(4) 0.8556(3)
H5 H 0.9095 0.7866 0.8840
C2 C 0.8623(5) 0.6533(3) 0.7456(3)
H6 H 0.7797 0.6853 0.7015
C3 C 0.9057(4) 0.5443(3) 0.7003(3)
C4 C 1.0999(6) 0.5682(4) 0.8808(4)
H7 H 1.1807 0.5372 0.9274
C5 C 0.8301(4) 0.4789(3) 0.5798(3)
C6 C 0.8517(4) 0.3600(3) 0.5397(3)
H8 H 0.9143 0.3198 0.5885
C7 C 0.7787(4) 0.3029(3) 0.4269(3)
C8 C 0.6874(4) 0.3676(3) 0.3579(3)
H9 H 0.6381 0.3325 0.2813
C9 C 0.6701(4) 0.4853(3) 0.4040(3)
C10 C 0.5706(4) 0.5562(3) 0.3328(3)
C11 C 0.5094(6) 0.5151(4) 0.2154(3)
H10 H 0.5297 0.4413 0.1790
C12 C 0.4192(5) 0.5842(4) 0.1540(4)
H11 H 0.3836 0.5565 0.0754
C13 C 0.4351(5) 0.7274(3) 0.3132(3)
H12 H 0.4076 0.7994 0.3476
C14 C 0.5312(5) 0.6661(3) 0.3808(3)
H13 H 0.5700 0.6979 0.4588
C15 C 0.8056(4) 0.1786(3) 0.3794(3)
C16 C 0.9696(5) 0.1553(3) 0.4008(3)
H14 H 1.0556 0.2140 0.4513
C17 C 1.0088(5) 0.0473(3) 0.3492(4)
H15 H 1.1195 0.0339 0.3647
C18 C 0.8803(4) -0.0407(3) 0.2740(3)
C19 C 0.7160(4) -0.0224(3) 0.2569(3)
H16 H 0.6298 -0.0839 0.2107
C20 C 0.6771(4) 0.0856(3) 0.3071(3)
C21 C 1.0282(5) 0.5018(3) 0.7726(3)
H17 H 1.0609 0.4284 0.7474
Cd1_2 Cd 0.23473(3) 0.80461(2) 0.08956(2)
Cd1_3 Cd 1.23473(3) -0.19539(2) 0.08956(2)
Cd1_4 Cd 1.23473(3) 0.80461(2) 1.08956(2)
O6_2 O 0.0625(4) -0.2110(3) 0.2526(3)
O8_2 O -0.0229(4) -0.1195(3) 0.0979(3)
N1_2 N 0.0623(4) -0.3254(3) -0.0754(3)
N3_2 N 0.3790(4) -0.3110(3) 0.1999(3)
loop_
_geom_bond_atom_site_label_1
_geom_bond_atom_site_label_2
_geom_bond_site_symmetry_1
_geom_bond_site_symmetry_2
Cd1 O2 1_555 1_555
S1 O1 1_555 1_555
S2 O6 1_555 1_555
O2 H1 1_555 1_555
H2 O2 1_555 1_555
O3 S1 1_555 1_555
O4 Cd1 1_555 1_555
H3 O4 1_555 1_555
H4 O4 1_555 1_555
O5 Cd1 1_555 1_555
O6 Cd1_3 1_555 1_555
O7 S2 1_555 1_555
O8 S2 1_555 1_555
N1 C1 1_555 1_555
N2 C5 1_555 1_555
N3 C12 1_555 1_555
C1 H5 1_555 1_555
C2 C1 1_555 1_555
H6 C2 1_555 1_555
C3 C2 1_555 1_555
C4 N1 1_555 1_555
H7 C4 1_555 1_555
C5 C3 1_555 1_555
C6 C5 1_555 1_555
H8 C6 1_555 1_555
C7 C6 1_555 1_555
C8 C7 1_555 1_555
H9 C8 1_555 1_555
C9 N2 1_555 1_555
C10 C9 1_555 1_555
C11 C10 1_555 1_555
H10 C11 1_555 1_555
C12 C11 1_555 1_555
H11 C12 1_555 1_555
C13 N3 1_555 1_555
H12 C13 1_555 1_555
C14 C10 1_555 1_555
H13 C14 1_555 1_555
C15 C7 1_555 1_555
C16 C15 1_555 1_555
H14 C16 1_555 1_555
C17 C16 1_555 1_555
H15 C17 1_555 1_555
C18 S2 1_555 1_555
C19 C18 1_555 1_555
H16 C19 1_555 1_555
C20 S1 1_555 1_555
C21 C3 1_555 1_555
H17 C21 1_555 1_555
Cd1_2 N3 1_555 1_555
Cd1_3 O8 1_555 1_555
Cd1_4 N1 1_555 1_555
O6_2 Cd1 1_555 1_555
O8_2 Cd1 1_555 1_555
N1_2 Cd1 1_555 1_555
N3_2 Cd1 1_555 1_555
S1 O5 1_555 1_555
C4 C21 1_555 1_555
C8 C9 1_555 1_555
C13 C14 1_555 1_555
C15 C20 1_555 1_555
C17 C18 1_555 1_555
C19 C20 1_555 1_555

#END
