
#######################################################################
#
#                 Cambridge Crystallographic Data Centre
#                                CCDC 
#
#######################################################################
#
# If this CIF has been generated from an entry in the Cambridge 
# Structural Database, then it will include bibliographic, chemical, 
# crystal, experimental, refinement or atomic coordinate data resulting 
# from the CCDC's data processing and validation procedures.
#
#######################################################################

data_OJARAU01
_symmetry_cell_setting           triclinic
_symmetry_space_group_name_H-M   'P -1'
_symmetry_Int_Tables_number      2
_space_group_name_Hall           '-P 1'
loop_
_symmetry_equiv_pos_site_id
_symmetry_equiv_pos_as_xyz
1 x,y,z
2 -x,-y,-z
_cell_length_a                   8.2940(12)
_cell_length_b                   11.4148(16)
_cell_length_c                   12.4639(17)
_cell_angle_alpha                101.344(2)
_cell_angle_beta                 103.745(2)
_cell_angle_gamma                96.701(2)
_cell_volume                     1107.16
loop_
_atom_site_label
_atom_site_type_symbol
_atom_site_fract_x
_atom_site_fract_y
_atom_site_fract_z
Cd1 Cd 1.23461(7) 0.30473(5) 0.58959(5)
S1 S 0.9235(2) 0.33173(19) 0.68622(18)
S2 S 0.4571(2) 0.59476(17) 0.77168(16)
N1 N 0.3800(8) 1.1894(6) 0.7005(5)
N2 N 0.7422(7) 1.0407(6) 1.0146(5)
N3 N 1.0638(9) 1.1747(6) 1.4247(6)
O1 O 0.9768(8) 0.3810(6) 0.5977(5)
O2 O 1.0639(7) 0.2885(6) 0.7524(6)
O3 O 0.7699(7) 0.2449(5) 0.6431(6)
O4 O 0.3707(6) 0.4692(5) 0.7412(4)
O5 O 0.4207(7) 0.6658(5) 0.8683(5)
O6 O 0.4276(7) 0.6492(5) 0.6731(5)
C1 C 0.4208(11) 1.0846(8) 0.6529(7)
H1 H 0.3866 1.0569 0.5743
C2 C 0.5117(12) 1.0169(8) 0.7171(7)
H2 H 0.5331 0.9432 0.6810
C3 C 0.5716(9) 1.0557(7) 0.8331(6)
C4 C 0.5303(11) 1.1665(7) 0.8812(7)
H3 H 0.5672 1.1979 0.9593
C5 C 0.4347(10) 1.2290(8) 0.8124(7)
H4 H 0.4080 1.3017 0.8461
C6 C 0.6684(10) 0.9856(7) 0.9045(6)
C7 C 0.6909(9) 0.8667(7) 0.8577(6)
H5 H 0.6473 0.8328 0.7803
C8 C 0.7771(9) 0.8023(7) 0.9271(6)
C9 C 0.8531(9) 0.8595(7) 1.0390(6)
H6 H 0.9183 0.8194 1.0865
C10 C 0.8320(9) 0.9777(7) 1.0807(6)
C11 C 1.1020(11) 1.0679(8) 1.3818(7)
H7 H 1.1832 1.0371 1.4284
C12 C 1.0287(11) 1.0011(8) 1.2731(7)
H8 H 1.0601 0.9272 1.2479
C13 C 0.9055(9) 1.0450(7) 1.1996(6)
C14 C 0.8613(10) 1.1514(8) 1.2458(7)
H9 H 0.7782 1.1830 1.2015
C15 C 0.9379(10) 1.2132(8) 1.3576(7)
H10 H 0.9011 1.2833 1.3872
C16 C 0.8059(9) 0.6785(7) 0.8799(6)
C17 C 0.9705(9) 0.6561(7) 0.9011(7)
H11 H 1.0565 0.7150 0.9516
C18 C 1.0104(10) 0.5466(8) 0.8480(7)
H12 H 1.1214 0.5338 0.8625
C19 C 0.8814(9) 0.4580(7) 0.7737(7)
C20 C 0.7151(9) 0.4784(7) 0.7566(6)
H13 H 0.6283 0.4178 0.7095
C21 C 0.6768(8) 0.5855(7) 0.8075(6)
O7 O 1.4612(7) 0.2635(6) 0.4995(5)
O8 O 1.2478(8) 0.4616(6) 0.4898(5)
Cd1_2 Cd 0.23461(7) 0.30473(5) 0.58959(5)
Cd1_3 Cd 0.23461(7) 1.30473(5) 0.58959(5)
Cd1_4 Cd 1.23461(7) 1.30473(5) 1.58959(5)
N1_2 N 1.3800(8) 0.1894(6) 0.7005(5)
N3_2 N 1.0638(9) 0.1747(6) 0.4247(6)
O4_2 O 1.3707(6) 0.4692(5) 0.7412(4)
loop_
_geom_bond_atom_site_label_1
_geom_bond_atom_site_label_2
_geom_bond_site_symmetry_1
_geom_bond_site_symmetry_2
Cd1 O1 1_555 1_555
S1 O1 1_555 1_555
S2 O4 1_555 1_555
N1 C1 1_555 1_555
N2 C6 1_555 1_555
N3 C11 1_555 1_555
O2 Cd1 1_555 1_555
O3 S1 1_555 1_555
O4 Cd1_2 1_555 1_555
O5 S2 1_555 1_555
O6 S2 1_555 1_555
C1 H1 1_555 1_555
C2 C1 1_555 1_555
H2 C2 1_555 1_555
C3 C2 1_555 1_555
C4 C3 1_555 1_555
H3 C4 1_555 1_555
C5 N1 1_555 1_555
H4 C5 1_555 1_555
C6 C3 1_555 1_555
C7 C6 1_555 1_555
H5 C7 1_555 1_555
C8 C7 1_555 1_555
C9 C8 1_555 1_555
H6 C9 1_555 1_555
C10 N2 1_555 1_555
C11 H7 1_555 1_555
C12 C11 1_555 1_555
H8 C12 1_555 1_555
C13 C10 1_555 1_555
C14 C13 1_555 1_555
H9 C14 1_555 1_555
C15 N3 1_555 1_555
H10 C15 1_555 1_555
C16 C8 1_555 1_555
C17 C16 1_555 1_555
H11 C17 1_555 1_555
C18 C17 1_555 1_555
H12 C18 1_555 1_555
C19 S1 1_555 1_555
C20 C19 1_555 1_555
H13 C20 1_555 1_555
C21 S2 1_555 1_555
O7 Cd1 1_555 1_555
O8 Cd1 1_555 1_555
Cd1_3 N1 1_555 1_555
Cd1_4 N3 1_555 1_555
N1_2 Cd1 1_555 1_555
N3_2 Cd1 1_555 1_555
O4_2 Cd1 1_555 1_555
S1 O2 1_555 1_555
C4 C5 1_555 1_555
C9 C10 1_555 1_555
C12 C13 1_555 1_555
C14 C15 1_555 1_555
C16 C21 1_555 1_555
C18 C19 1_555 1_555
C20 C21 1_555 1_555

#END
