
#######################################################################
#
#                 Cambridge Crystallographic Data Centre
#                                CCDC 
#
#######################################################################
#
# If this CIF has been generated from an entry in the Cambridge 
# Structural Database, then it will include bibliographic, chemical, 
# crystal, experimental, refinement or atomic coordinate data resulting 
# from the CCDC's data processing and validation procedures.
#
#######################################################################

data_OJASID
_symmetry_cell_setting           triclinic
_symmetry_space_group_name_H-M   'P -1'
_symmetry_Int_Tables_number      2
_space_group_name_Hall           '-P 1'
loop_
_symmetry_equiv_pos_site_id
_symmetry_equiv_pos_as_xyz
1 x,y,z
2 -x,-y,-z
_cell_length_a                   9.979(5)
_cell_length_b                   10.302(5)
_cell_length_c                   15.743(5)
_cell_angle_alpha                80.924(5)
_cell_angle_beta                 73.374(5)
_cell_angle_gamma                65.235(5)
_cell_volume                     1406.82
loop_
_atom_site_label
_atom_site_type_symbol
_atom_site_fract_x
_atom_site_fract_y
_atom_site_fract_z
C1 C 0.4137(4) 0.2785(4) 0.6218(3)
H1 H 0.4475 0.1970 0.5902
C2 C 0.4027(5) 0.4743(4) 0.6685(3)
H2 H 0.4265 0.5497 0.6751
C3 C 0.2787(5) 0.4490(5) 0.7148(3)
H3 H 0.2009 0.5052 0.7592
C4 C 0.6313(5) 0.3416(4) 0.5471(3)
C5 C 0.7047(5) 0.4314(5) 0.5403(3)
H4 H 0.6626 0.5106 0.5751
C6 C 0.8463(5) 0.3977(5) 0.4783(3)
H5 H 0.9008 0.4547 0.4715
C7 C 0.9043(5) 0.2790(5) 0.4275(3)
H6 H 0.9965 0.2553 0.3849
C8 C 0.8186(5) 0.1978(4) 0.4430(3)
C9 C 0.7876(5) 0.0213(5) 0.3682(3)
H7 H 0.6822 0.0652 0.3782
C10 C 1.0234(5) -0.1278(5) 0.3268(3)
H8 H 1.1088 -0.2066 0.3024
C11 C 1.0239(5) -0.0240(5) 0.3695(3)
H9 H 1.1084 -0.0174 0.3794
C12 C -0.1344(5) 0.2820(5) 0.8694(3)
H10 H -0.1060 0.1994 0.9055
C13 C -0.1276(5) 0.4555(5) 0.7722(3)
H11 H -0.0904 0.5128 0.7288
C14 C -0.2760(5) 0.4807(5) 0.8079(3)
H12 H -0.3591 0.5573 0.7935
C15 C -0.4118(5) 0.3491(4) 0.9243(3)
C16 C -0.5579(5) 0.4409(5) 0.9187(3)
H13 H -0.5758 0.5195 0.8789
C17 C -0.6768(5) 0.4093(5) 0.9760(3)
H14 H -0.7769 0.4675 0.9746
C18 C -0.6465(5) 0.2919(5) 1.0350(3)
H15 H -0.7242 0.2703 1.0748
C19 C -0.4952(5) 0.2084(4) 1.0317(3)
C20 C -0.3239(5) 0.0271(4) 1.1177(3)
H16 H -0.2498 0.0649 1.1031
C21 C -0.5345(5) -0.0017(5) 1.1243(3)
H17 H -0.6283 0.0114 1.1163
C22 C -0.4491(5) -0.1073(5) 1.1730(3)
H18 H -0.4749 -0.1814 1.2042
N1 N 0.2866(4) 0.3249(4) 0.6853(2)
N2 N 0.4869(4) 0.3664(4) 0.6096(2)
N3 N 0.6838(4) 0.2268(4) 0.5000(2)
N4 N 0.8739(4) 0.0703(4) 0.3956(2)
N5 N 0.8741(4) -0.0975(4) 0.3254(2)
N6 N -0.0392(4) 0.3285(4) 0.8115(2)
N7 N -0.2805(4) 0.3712(4) 0.8696(2)
N8 N -0.3783(4) 0.2334(4) 0.9789(2)
N9 N -0.3170(4) -0.0893(4) 1.1698(2)
N10 N -0.4525(4) 0.0830(4) 1.0889(2)
Zn1 Zn 0.17611(5) 0.20059(5) 0.75204(3)
N5A N 0.1259(4) 0.0975(4) 0.6746(2)
N9A N 0.3170(4) 0.0893(4) 0.8302(2)
Zn1A Zn -0.17611(5) -0.20059(5) 1.24796(3)
Zn1A_2 Zn 0.82389(5) -0.20059(5) 0.24796(3)
F1 F 0.7563(3) 0.9021(3) 0.5782(2)
F2 F 0.5965(4) 0.8320(4) 0.5386(2)
F3 F 0.5154(3) 0.9528(3) 0.66210(18)
F4 F 0.5551(3) 0.7196(3) 0.6711(2)
F5 F 0.7163(4) 0.7874(3) 0.7121(2)
F6 F 0.7970(3) 0.6655(3) 0.5892(2)
P1 P 0.65665(13) 0.81093(12) 0.62480(8)
F7 F 0.0324(3) 0.9536(3) 0.8577(2)
F8 F -0.0881(5) 0.8432(4) 0.8123(3)
F9 F -0.1097(4) 0.8475(4) 0.9574(3)
F10 F 0.0259(3) 0.6402(3) 0.88771(18)
F11 F 0.1468(4) 0.7497(4) 0.9326(2)
F12 F 0.1662(4) 0.7473(4) 0.7876(2)
P2 P 0.02810(12) 0.79748(12) 0.87278(7)
loop_
_geom_bond_atom_site_label_1
_geom_bond_atom_site_label_2
_geom_bond_site_symmetry_1
_geom_bond_site_symmetry_2
C1 H1 1_555 1_555
C2 H2 1_555 1_555
C3 C2 1_555 1_555
H3 C3 1_555 1_555
C4 C5 1_555 1_555
C5 H4 1_555 1_555
C6 C5 1_555 1_555
H5 C6 1_555 1_555
C7 C6 1_555 1_555
H6 C7 1_555 1_555
C8 C7 1_555 1_555
C9 H7 1_555 1_555
C10 H8 1_555 1_555
C11 C10 1_555 1_555
H9 C11 1_555 1_555
C12 H10 1_555 1_555
C13 H11 1_555 1_555
C14 C13 1_555 1_555
H12 C14 1_555 1_555
C15 C16 1_555 1_555
C16 H13 1_555 1_555
C17 C16 1_555 1_555
H14 C17 1_555 1_555
C18 C17 1_555 1_555
H15 C18 1_555 1_555
C19 C18 1_555 1_555
C20 H16 1_555 1_555
C21 H17 1_555 1_555
C22 C21 1_555 1_555
H18 C22 1_555 1_555
N1 C1 1_555 1_555
N2 C1 1_555 1_555
N3 C4 1_555 1_555
N4 C8 1_555 1_555
N5 C9 1_555 1_555
N6 C12 1_555 1_555
N7 C12 1_555 1_555
N8 C15 1_555 1_555
N9 C20 1_555 1_555
N10 C19 1_555 1_555
Zn1 N1 1_555 1_555
F1 P1 1_555 1_555
F2 P1 1_555 1_555
F3 P1 1_555 1_555
F4 P1 1_555 1_555
F5 P1 1_555 1_555
F6 P1 1_555 1_555
F7 P2 1_555 1_555
F8 P2 1_555 1_555
F9 P2 1_555 1_555
F10 P2 1_555 1_555
F11 P2 1_555 1_555
F12 P2 1_555 1_555
N5A Zn1 1_555 1_555
N9A Zn1 1_555 1_555
Zn1A N9 1_555 1_555
Zn1A_2 N5 1_555 1_555
C2 N2 1_555 1_555
C3 N1 1_555 1_555
C4 N2 1_555 1_555
C8 N3 1_555 1_555
C9 N4 1_555 1_555
C10 N5 1_555 1_555
C11 N4 1_555 1_555
C13 N6 1_555 1_555
C14 N7 1_555 1_555
C15 N7 1_555 1_555
C19 N8 1_555 1_555
C20 N10 1_555 1_555
C21 N10 1_555 1_555
C22 N9 1_555 1_555
N6 Zn1 1_555 1_555

#END
