
#######################################################################
#
#                 Cambridge Crystallographic Data Centre
#                                CCDC 
#
#######################################################################
#
# If this CIF has been generated from an entry in the Cambridge 
# Structural Database, then it will include bibliographic, chemical, 
# crystal, experimental, refinement or atomic coordinate data resulting 
# from the CCDC's data processing and validation procedures.
#
#######################################################################

data_OJASOJ
_symmetry_cell_setting           monoclinic
_symmetry_space_group_name_H-M   'P 21/n'
_symmetry_Int_Tables_number      14
_space_group_name_Hall           '-P 2yn'
loop_
_symmetry_equiv_pos_site_id
_symmetry_equiv_pos_as_xyz
1 x,y,z
2 1/2-x,1/2+y,1/2-z
3 -x,-y,-z
4 1/2+x,1/2-y,1/2+z
_cell_length_a                   11.5527(12)
_cell_length_b                   26.816(3)
_cell_length_c                   15.4979(16)
_cell_angle_alpha                90
_cell_angle_beta                 109.134(2)
_cell_angle_gamma                90
_cell_volume                     4535.96
loop_
_atom_site_label
_atom_site_type_symbol
_atom_site_fract_x
_atom_site_fract_y
_atom_site_fract_z
C1 C 0.6063(4) 0.21518(17) 0.0706(3)
H1 H 0.5886 0.2342 0.0177
C2 C 0.5949(4) 0.18087(16) 0.1924(3)
H2 H 0.5662 0.1722 0.2399
C3 C 0.7000(4) 0.16377(17) 0.1824(3)
H3 H 0.7557 0.1416 0.2202
C4 C 0.8005(4) 0.18087(16) 0.0628(3)
C5 C 0.8967(4) 0.14804(18) 0.0979(3)
H4 H 0.9037 0.1287 0.1492
C6 C 0.9829(4) 0.14543(19) 0.0523(3)
H5 H 1.0503 0.1244 0.0738
C7 C 0.9680(4) 0.17381(17) -0.0241(3)
H6 H 1.0240 0.1722 -0.0556
C8 C 0.8679(4) 0.20484(16) -0.0527(3)
C9 C 0.8911(4) 0.23053(17) -0.2004(3)
H7 H 0.9476 0.2062 -0.2023
C10 C 0.7668(4) 0.29324(17) -0.2349(3)
H8 H 0.7229 0.3205 -0.2661
C11 C 0.7626(4) 0.27545(17) -0.1543(3)
H9 H 0.7149 0.2877 -0.1209
C12 C 0.0753(4) 0.27659(17) 0.0955(3)
H10 H 0.0859 0.2558 0.1456
C13 C 0.1013(4) 0.31369(18) -0.0193(3)
H11 H 0.1350 0.3228 -0.0639
C14 C -0.0021(4) 0.33370(17) -0.0096(3)
H12 H -0.0514 0.3586 -0.0451
C15 C -0.1146(4) 0.31556(17) 0.1029(3)
C16 C -0.2120(4) 0.34669(17) 0.0633(3)
H13 H -0.2184 0.3647 0.0106
C17 C -0.3002(4) 0.34990(17) 0.1058(3)
H14 H -0.3687 0.3699 0.0806
C18 C -0.2876(4) 0.32382(17) 0.1847(3)
H15 H -0.3456 0.3258 0.2143
C19 C -0.1832(4) 0.29425(16) 0.2180(3)
C20 C -0.2048(4) 0.27501(17) 0.3695(3)
H16 H -0.2592 0.3007 0.3692
C21 C -0.0848(4) 0.21164(16) 0.4089(3)
H17 H -0.0419 0.1849 0.4429
C22 C -0.0814(4) 0.22559(17) 0.3260(3)
H18 H -0.0357 0.2111 0.2931
C23 C 0.3537(4) 0.12826(17) 0.0505(3)
H19 H 0.3965 0.1354 0.0105
C24 C 0.3175(5) 0.0725(2) 0.1620(4)
H20 H 0.3753 0.0762 0.2224
H21 H 0.2893 0.0386 0.1532
H22 H 0.2491 0.0943 0.1548
C25 C 0.4695(5) 0.0510(2) 0.0849(4)
H23 H 0.4993 0.0627 0.0375
H24 H 0.4343 0.0184 0.0693
H25 H 0.5360 0.0493 0.1415
C26 C 0.3369(4) 0.35786(18) 0.1387(3)
H26 H 0.2941 0.3455 0.1755
C27 C 0.2277(5) 0.43498(19) 0.1352(4)
H27 H 0.1601 0.4412 0.0806
H28 H 0.2641 0.4661 0.1609
H29 H 0.1990 0.4177 0.1785
C28 C 0.3819(5) 0.42460(19) 0.0538(4)
H30 H 0.4669 0.4294 0.0883
H31 H 0.3459 0.4559 0.0291
H32 H 0.3748 0.4016 0.0049
Cd1 Cd 0.34253(3) 0.244430(12) 0.08564(2)
N1 N 0.5364(3) 0.21311(14) 0.1222(2)
N2 N 0.7074(3) 0.18627(14) 0.1038(2)
N3 N 0.7847(3) 0.20969(13) -0.0093(2)
N4 N 0.8427(3) 0.23572(14) -0.1311(2)
N5 N 0.8471(4) 0.26436(14) -0.2636(3)
N6 N 0.1491(3) 0.27759(14) 0.0474(2)
N7 N -0.0182(3) 0.30908(14) 0.0643(3)
N8 N -0.0985(3) 0.28879(14) 0.1771(2)
N9 N -0.1594(3) 0.26568(13) 0.3001(2)
N10 N -0.1623(3) 0.24347(14) 0.4359(3)
N11 N 0.3765(4) 0.08519(15) 0.0944(3)
N12 N 0.3184(3) 0.40458(14) 0.1133(3)
O1 O 0.2791(3) 0.16001(12) 0.0587(2)
O2 O 0.4069(3) 0.32857(12) 0.1177(2)
Cd1C Cd -0.15747(3) 0.255570(12) 0.58564(2)
Cd1C_2 Cd 0.84253(3) 0.255570(12) -0.41436(2)
N5C N 0.3471(4) 0.23564(14) 0.2364(3)
N10C N 0.3377(3) 0.25653(14) -0.0641(3)
C29 C 0.1555(5) 0.4346(2) 0.8409(3)
H33 H 0.2188 0.4234 0.8211
C30 C 0.2467(5) 0.5175(2) 0.8488(4)
H34 H 0.2997 0.4999 0.8227
H35 H 0.2939 0.5304 0.9076
H36 H 0.2078 0.5446 0.8094
C31 C 0.0596(5) 0.5039(2) 0.8920(4)
H37 H 0.0060 0.4777 0.8978
H38 H 0.0132 0.5284 0.8496
H39 H 0.0976 0.5191 0.9505
N13 N 0.1532(4) 0.48332(16) 0.8589(3)
O3 O 0.0825(4) 0.40381(15) 0.8481(3)
C32 C 0.3591(5) 0.5928(2) 0.6556(3)
H40 H 0.2811 0.5925 0.6607
C33 C 0.3203(6) 0.5067(2) 0.6055(5)
H41 H 0.2427 0.5140 0.6127
H42 H 0.3588 0.4796 0.6451
H43 H 0.3080 0.4974 0.5432
C34 C 0.5208(6) 0.5465(2) 0.6226(4)
H44 H 0.5658 0.5765 0.6452
H45 H 0.5153 0.5415 0.5601
H46 H 0.5621 0.5186 0.6586
N14 N 0.3987(4) 0.55071(17) 0.6287(3)
O4 O 0.4174(3) 0.63184(13) 0.6742(2)
F1 F 0.5456(3) 0.48261(11) 0.8215(2)
F2 F 0.7171(3) 0.43613(12) 0.8844(2)
F3 F 0.5562(3) 0.42871(13) 0.9353(2)
F4 F 0.5992(3) 0.36657(11) 0.8534(2)
F5 F 0.4294(2) 0.41294(10) 0.79192(19)
F6 F 0.5909(3) 0.42057(12) 0.74021(19)
P1 P 0.57429(11) 0.42462(5) 0.83840(8)
F7 F 0.6871(3) 0.12888(12) 0.8368(2)
F8 F 0.5239(3) 0.14956(12) 0.8798(2)
F9 F 0.6531(3) 0.08910(13) 0.9557(2)
F10 F 0.4624(3) 0.06877(12) 0.8648(2)
F11 F 0.6259(3) 0.04838(11) 0.8230(2)
F12 F 0.4966(3) 0.10838(11) 0.74607(19)
P2 P 0.57530(12) 0.09915(5) 0.85077(9)
loop_
_geom_bond_atom_site_label_1
_geom_bond_atom_site_label_2
_geom_bond_site_symmetry_1
_geom_bond_site_symmetry_2
C1 H1 1_555 1_555
C2 H2 1_555 1_555
C3 C2 1_555 1_555
H3 C3 1_555 1_555
C4 C5 1_555 1_555
C5 H4 1_555 1_555
C6 C5 1_555 1_555
H5 C6 1_555 1_555
C7 C6 1_555 1_555
H6 C7 1_555 1_555
C8 C7 1_555 1_555
C9 H7 1_555 1_555
C10 H8 1_555 1_555
C11 C10 1_555 1_555
H9 C11 1_555 1_555
C12 H10 1_555 1_555
C13 H11 1_555 1_555
C14 C13 1_555 1_555
H12 C14 1_555 1_555
C15 C16 1_555 1_555
C16 H13 1_555 1_555
C17 C16 1_555 1_555
H14 C17 1_555 1_555
C18 C17 1_555 1_555
H15 C18 1_555 1_555
C19 C18 1_555 1_555
C20 H16 1_555 1_555
C21 H17 1_555 1_555
C22 C21 1_555 1_555
H18 C22 1_555 1_555
C23 H19 1_555 1_555
C24 H20 1_555 1_555
H21 C24 1_555 1_555
H22 C24 1_555 1_555
C25 H23 1_555 1_555
H24 C25 1_555 1_555
H25 C25 1_555 1_555
C26 H26 1_555 1_555
C27 H27 1_555 1_555
H28 C27 1_555 1_555
H29 C27 1_555 1_555
C28 H30 1_555 1_555
H31 C28 1_555 1_555
H32 C28 1_555 1_555
Cd1 N1 1_555 1_555
N1 C1 1_555 1_555
N2 C1 1_555 1_555
N3 C4 1_555 1_555
N4 C8 1_555 1_555
N5 C9 1_555 1_555
N6 C12 1_555 1_555
N7 C12 1_555 1_555
N8 C15 1_555 1_555
N9 C19 1_555 1_555
N10 C20 1_555 1_555
N11 C23 1_555 1_555
N12 C26 1_555 1_555
O1 C23 1_555 1_555
O2 C26 1_555 1_555
C29 H33 1_555 1_555
C30 H34 1_555 1_555
H35 C30 1_555 1_555
H36 C30 1_555 1_555
C31 H37 1_555 1_555
H38 C31 1_555 1_555
H39 C31 1_555 1_555
N13 C29 1_555 1_555
O3 C29 1_555 1_555
C32 H40 1_555 1_555
C33 H41 1_555 1_555
H42 C33 1_555 1_555
H43 C33 1_555 1_555
C34 H44 1_555 1_555
H45 C34 1_555 1_555
H46 C34 1_555 1_555
N14 C32 1_555 1_555
O4 C32 1_555 1_555
F1 P1 1_555 1_555
F2 P1 1_555 1_555
F3 P1 1_555 1_555
F4 P1 1_555 1_555
F5 P1 1_555 1_555
F6 P1 1_555 1_555
F7 P2 1_555 1_555
F8 P2 1_555 1_555
F9 P2 1_555 1_555
F10 P2 1_555 1_555
F11 P2 1_555 1_555
F12 P2 1_555 1_555
Cd1C N10 1_555 1_555
Cd1C_2 N5 1_555 1_555
N5C Cd1 1_555 1_555
N10C Cd1 1_555 1_555
C2 N1 1_555 1_555
C3 N2 1_555 1_555
C4 N2 1_555 1_555
C8 N3 1_555 1_555
C9 N4 1_555 1_555
C10 N5 1_555 1_555
C11 N4 1_555 1_555
C13 N6 1_555 1_555
C14 N7 1_555 1_555
C15 N7 1_555 1_555
C19 N8 1_555 1_555
C20 N9 1_555 1_555
C21 N10 1_555 1_555
C22 N9 1_555 1_555
C24 N11 1_555 1_555
C25 N11 1_555 1_555
C27 N12 1_555 1_555
C28 N12 1_555 1_555
Cd1 N6 1_555 1_555
Cd1 O1 1_555 1_555
Cd1 O2 1_555 1_555
C30 N13 1_555 1_555
C31 N13 1_555 1_555
C33 N14 1_555 1_555
C34 N14 1_555 1_555

#END
