
#######################################################################
#
#                 Cambridge Crystallographic Data Centre
#                                CCDC 
#
#######################################################################
#
# If this CIF has been generated from an entry in the Cambridge 
# Structural Database, then it will include bibliographic, chemical, 
# crystal, experimental, refinement or atomic coordinate data resulting 
# from the CCDC's data processing and validation procedures.
#
#######################################################################

data_OJASIC
_symmetry_cell_setting           monoclinic
_symmetry_space_group_name_H-M   'P 21/c'
_symmetry_Int_Tables_number      14
_space_group_name_Hall           '-P 2ybc'
loop_
_symmetry_equiv_pos_site_id
_symmetry_equiv_pos_as_xyz
1 x,y,z
2 -x,1/2+y,1/2-z
3 -x,-y,-z
4 x,1/2-y,1/2+z
_cell_length_a                   11.5171(7)
_cell_length_b                   27.088(2)
_cell_length_c                   7.8068(7)
_cell_angle_alpha                90
_cell_angle_beta                 91.576(7)
_cell_angle_gamma                90
_cell_volume                     2434.61
loop_
_atom_site_label
_atom_site_type_symbol
_atom_site_fract_x
_atom_site_fract_y
_atom_site_fract_z
Cr1 Cr 0.25574(3) 0.167570(14) -0.32626(5)
Cu1 Cu 0.24142(3) 0.218444(10) 0.10378(4)
C1 C 0.4848(2) 0.23820(9) 0.0107(3)
H1 H 0.4590 0.2702 -0.0111
C2 C 0.5977(2) 0.22593(10) -0.0271(4)
H2 H 0.6477 0.2494 -0.0710
C3 C 0.6350(2) 0.17801(10) 0.0017(4)
H3 H 0.7103 0.1687 -0.0242
C4 C 0.5588(2) 0.14388(9) 0.0696(3)
H4 H 0.5823 0.1115 0.0889
C5 C 0.4473(2) 0.15886(9) 0.1082(3)
C6 C 0.0581(2) 0.16543(9) 0.2572(3)
C7 C -0.0434(2) 0.15502(9) 0.3412(3)
H5 H -0.0550 0.1242 0.3906
C8 C -0.1274(2) 0.19166(10) 0.3498(3)
H6 H -0.1970 0.1855 0.4036
C9 C -0.1069(2) 0.23713(10) 0.2781(4)
H7 H -0.1630 0.2618 0.2806
C10 C -0.0013(2) 0.24577(9) 0.2019(3)
H8 H 0.0135 0.2768 0.1564
C11 C 0.4542(2) 0.04244(9) 0.2477(3)
C12 C 0.4442(2) -0.00691(9) 0.2012(3)
H9 H 0.3801 -0.0179 0.1368
C13 C 0.5312(2) -0.03949(10) 0.2523(3)
H10 H 0.5272 -0.0726 0.2216
C14 C 0.6235(2) -0.02178(10) 0.3494(3)
H11 H 0.6814 -0.0430 0.3900
C15 C 0.6289(2) 0.02821(10) 0.3859(3)
H12 H 0.6931 0.0400 0.4481
C16 C -0.1299(2) 0.03316(11) 0.0919(4)
H13 H -0.1907 0.0440 0.0206
C17 C -0.1367(3) -0.01364(11) 0.1608(4)
H14 H -0.2002 -0.0338 0.1346
C18 C -0.0488(3) -0.03017(10) 0.2682(4)
H15 H -0.0524 -0.0613 0.3182
C19 C 0.0455(2) 0.00045(9) 0.3006(3)
H16 H 0.1070 -0.0098 0.3718
C20 C 0.0464(2) 0.04649(9) 0.2248(3)
C21 C 0.3545(2) 0.12682(9) 0.1782(3)
C22 C 0.3538(2) 0.07608(9) 0.2181(3)
C23 C 0.1519(2) 0.07786(9) 0.2360(3)
C24 C 0.1538(2) 0.12974(9) 0.2320(3)
N1 N 0.41168(18) 0.20578(7) 0.0774(3)
N2 N 0.07972(17) 0.21058(7) 0.1924(2)
N3 N 0.54630(18) 0.06050(8) 0.3360(3)
N4 N -0.04050(19) 0.06363(8) 0.1223(3)
N5 N 0.25376(17) 0.15115(7) 0.1928(2)
N6 N 0.25156(18) 0.05317(7) 0.2361(3)
O1 O 0.18718(15) 0.18024(7) -0.1472(2)
O2 O 0.20278(17) 0.11797(6) -0.4136(2)
O4 O 0.39420(16) 0.16066(7) -0.2841(2)
O6 O 0.23515(15) 0.21487(6) -0.4681(2)
Cu1C Cu 0.24142(3) 0.281556(10) -0.39622(4)
O6C O 0.23515(15) 0.28513(6) 0.0319(2)
O3 O -0.0478(2) 0.14507(8) -0.1192(3)
H17 H -0.040(3) 0.1225(15) -0.045(5)
H20 H 0.013(3) 0.1531(15) -0.136(5)
O5 O 0.59736(19) 0.14988(8) -0.4708(3)
H18 H 0.581(3) 0.1279(15) -0.529(5)
H19 H 0.541(4) 0.1523(15) -0.418(5)
O7 O 0.2086(3) -0.09737(10) 0.3362(5)
H21 H 0.261(4) -0.1150(16) 0.358(5)
H22 H 0.167(4) -0.1131(17) 0.286(6)
loop_
_geom_bond_atom_site_label_1
_geom_bond_atom_site_label_2
_geom_bond_site_symmetry_1
_geom_bond_site_symmetry_2
Cr1 O1 1_555 1_555
Cu1 N1 1_555 1_555
C1 H1 1_555 1_555
C2 C1 1_555 1_555
H2 C2 1_555 1_555
C3 C2 1_555 1_555
H3 C3 1_555 1_555
C4 C3 1_555 1_555
H4 C4 1_555 1_555
C5 C4 1_555 1_555
C6 C7 1_555 1_555
C7 H5 1_555 1_555
C8 C7 1_555 1_555
H6 C8 1_555 1_555
C9 C8 1_555 1_555
H7 C9 1_555 1_555
C10 C9 1_555 1_555
H8 C10 1_555 1_555
C11 C12 1_555 1_555
C12 H9 1_555 1_555
C13 C12 1_555 1_555
H10 C13 1_555 1_555
C14 C13 1_555 1_555
H11 C14 1_555 1_555
C15 C14 1_555 1_555
H12 C15 1_555 1_555
C16 H13 1_555 1_555
C17 C16 1_555 1_555
H14 C17 1_555 1_555
C18 C17 1_555 1_555
H15 C18 1_555 1_555
C19 C18 1_555 1_555
H16 C19 1_555 1_555
C20 C19 1_555 1_555
C21 C5 1_555 1_555
C22 C11 1_555 1_555
C23 C20 1_555 1_555
C24 C6 1_555 1_555
N1 C1 1_555 1_555
N2 Cu1 1_555 1_555
N3 C11 1_555 1_555
N4 C16 1_555 1_555
N5 Cu1 1_555 1_555
N6 C22 1_555 1_555
O1 Cu1 1_555 1_555
O2 Cr1 1_555 1_555
O3 H17 1_555 1_555
O4 Cr1 1_555 1_555
O5 H18 1_555 1_555
O6 Cr1 1_555 1_555
O7 H21 1_555 1_555
H19 O5 1_555 1_555
H20 O3 1_555 1_555
H22 O7 1_555 1_555
Cu1C O6 1_555 1_555
O6C Cu1 1_555 1_555
C5 N1 1_555 1_555
C6 N2 1_555 1_555
C10 N2 1_555 1_555
C15 N3 1_555 1_555
C20 N4 1_555 1_555
C21 C22 1_555 1_555
C21 N5 1_555 1_555
C23 C24 1_555 1_555
C23 N6 1_555 1_555
C24 N5 1_555 1_555

#END
