
#######################################################################
#
#                 Cambridge Crystallographic Data Centre
#                                CCDC 
#
#######################################################################
#
# If this CIF has been generated from an entry in the Cambridge 
# Structural Database, then it will include bibliographic, chemical, 
# crystal, experimental, refinement or atomic coordinate data resulting 
# from the CCDC's data processing and validation procedures.
#
#######################################################################

data_OJASEZ
_symmetry_cell_setting           tetragonal
_symmetry_space_group_name_H-M   'I 41/a'
_symmetry_Int_Tables_number      88
_space_group_name_Hall           '-I 4ad'
loop_
_symmetry_equiv_pos_site_id
_symmetry_equiv_pos_as_xyz
1 x,y,z
2 1/2-x,-y,1/2+z
3 3/4-y,1/4+x,1/4+z
4 3/4+y,3/4-x,3/4+z
5 1/2+x,1/2+y,1/2+z
6 -x,1/2-y,z
7 1/4-y,3/4+x,3/4+z
8 1/4+y,1/4-x,1/4+z
9 -x,-y,-z
10 1/2+x,y,1/2-z
11 1/4+y,3/4-x,3/4-z
12 1/4-y,1/4+x,1/4-z
13 1/2-x,1/2-y,1/2-z
14 x,1/2+y,-z
15 3/4+y,1/4-x,1/4-z
16 3/4-y,3/4+x,3/4-z
_cell_length_a                   13.770(2)
_cell_length_b                   13.770(2)
_cell_length_c                   59.621(9)
_cell_angle_alpha                90
_cell_angle_beta                 90
_cell_angle_gamma                90
_cell_volume                     11304.9
loop_
_atom_site_label
_atom_site_type_symbol
_atom_site_fract_x
_atom_site_fract_y
_atom_site_fract_z
Pb1 Pb 0.74310(5) 0.73654(4) 1.097741(9)
S1 S 0.7489(3) 0.4520(2) 0.94061(5)
S2 S 0.7192(3) 0.6301(4) 0.85976(5)
C1 C 0.8898(10) 0.6638(10) 1.05498(19)
H1 H 0.9315 0.6599 1.0672
C2 C 0.9282(9) 0.6475(9) 1.03376(18)
H2 H 0.9932 0.6310 1.0320
C3 C 0.8676(9) 0.6563(8) 1.01509(17)
C4 C 0.7699(9) 0.6761(10) 1.01939(19)
H3 H 0.7261 0.6802 1.0075
C5 C 0.7381(10) 0.6897(10) 1.0409(2)
H4 H 0.6727 0.7032 1.0432
C6 C 0.9065(9) 0.6384(8) 0.99226(17)
C7 C 0.8471(10) 0.6397(9) 0.97321(18)
H5 H 0.7806 0.6509 0.9743
C8 C 0.8922(9) 0.6236(8) 0.95256(17)
C9 C 0.9912(9) 0.6066(8) 0.95182(18)
H6 H 1.0220 0.5950 0.9382
C10 C 1.0441(9) 0.6071(8) 0.97165(18)
C11 C 1.1523(10) 0.5947(8) 0.97172(19)
C12 C 1.2042(11) 0.5746(11) 0.9523(2)
H7 H 1.1717 0.5714 0.9387
C13 C 1.3013(13) 0.5596(14) 0.9529(3)
H8 H 1.3343 0.5436 0.9398
C14 C 1.3030(11) 0.5841(14) 0.9918(3)
H9 H 1.3364 0.5862 1.0053
C15 C 1.2041(10) 0.5981(11) 0.9916(2)
H10 H 1.1716 0.6101 1.0050
C16 C 0.8394(9) 0.6260(9) 0.93069(17)
C17 C 0.7780(9) 0.5527(8) 0.92335(18)
C18 C 0.7398(10) 0.5557(10) 0.90150(18)
H11 H 0.6983 0.5068 0.8966
C19 C 0.7637(10) 0.6306(10) 0.8873(2)
C20 C 0.8236(12) 0.7046(11) 0.8942(2)
H12 H 0.8406 0.7545 0.8845
C21 C 0.8586(10) 0.7028(10) 0.9165(2)
H13 H 0.8956 0.7546 0.9217
N1 N 0.7970(8) 0.6845(7) 1.05888(16)
N2 N 1.0031(7) 0.6235(7) 0.99154(15)
N3 N 1.3517(10) 0.5677(13) 0.9728(3)
O1 O 0.8401(7) 0.4146(7) 0.94838(17)
O2 O 0.8997(10) 0.8342(11) 1.0931(3)
O3 O 0.6888(8) 0.4906(8) 0.95869(16)
O4 O 0.6941(7) 0.3849(7) 0.92615(15)
O5 O 0.7224(19) 0.5329(14) 0.8523(2)
O6 O 0.6202(10) 0.6444(13) 0.86085(19)
O7 O 0.7682(13) 0.6949(17) 0.8473(2)
N4 N 0.569(3) 0.582(2) 1.1010(5)
O8 O 0.5868(17) 0.6418(19) 1.0847(4)
O9 O 0.533(2) 0.4963(18) 1.1037(5)
O10 O 0.5992(15) 0.6219(15) 1.1217(3)
Pb1F Pb 0.51346(4) 0.49310(5) 0.847741(9)
Pb1M Pb 0.74310(5) 0.23654(4) 0.902259(9)
Pb1N Pb 0.48654(4) 0.50690(5) 1.152259(9)
O4M O 0.6941(7) 0.8849(7) 1.07385(15)
O6G O 0.8944(13) 0.6298(10) 1.11085(19)
O10K O 0.6281(15) 0.8492(15) 1.1283(3)
K1 K 1.5252(4) 0.5715(6) 0.97283(11)
O11 O 1.5019(12) 0.437(4) 0.9560(5)
O12 O 1.5000 0.7500 1.0085(7)
O13 O 1.5000 0.7500 0.9207(15)
loop_
_geom_bond_atom_site_label_1
_geom_bond_atom_site_label_2
_geom_bond_site_symmetry_1
_geom_bond_site_symmetry_2
Pb1 N1 1_555 1_555
S1 C17 1_555 1_555
S2 C19 1_555 1_555
C1 H1 1_555 1_555
C2 C1 1_555 1_555
H2 C2 1_555 1_555
C3 C2 1_555 1_555
C4 C3 1_555 1_555
H3 C4 1_555 1_555
C5 C4 1_555 1_555
H4 C5 1_555 1_555
C6 C3 1_555 1_555
C7 C6 1_555 1_555
H5 C7 1_555 1_555
C8 C7 1_555 1_555
C9 C8 1_555 1_555
H6 C9 1_555 1_555
C10 C9 1_555 1_555
C11 C10 1_555 1_555
C12 C11 1_555 1_555
H7 C12 1_555 1_555
C13 C12 1_555 1_555
H8 C13 1_555 1_555
C14 H9 1_555 1_555
C15 C11 1_555 1_555
H10 C15 1_555 1_555
C16 C8 1_555 1_555
C17 C16 1_555 1_555
C18 C17 1_555 1_555
H11 C18 1_555 1_555
C19 C18 1_555 1_555
C20 C19 1_555 1_555
H12 C20 1_555 1_555
C21 C16 1_555 1_555
H13 C21 1_555 1_555
N1 C1 1_555 1_555
N2 C6 1_555 1_555
N3 C13 1_555 1_555
O1 S1 1_555 1_555
O2 Pb1 1_555 1_555
O3 S1 1_555 1_555
O4 S1 1_555 1_555
O5 S2 1_555 1_555
O6 S2 1_555 1_555
O7 S2 1_555 1_555
N4 O8 1_555 1_555
O8 Pb1 1_555 1_555
O9 N4 1_555 1_555
O10 Pb1 1_555 1_555
Pb1F O6 1_555 1_555
Pb1M O4 1_555 1_555
Pb1N O10 1_555 1_555
O4M Pb1 1_555 1_555
O6G Pb1 1_555 1_555
O10K Pb1 1_555 1_555
C5 N1 1_555 1_555
C10 N2 1_555 1_555
C14 C15 1_555 1_555
C14 N3 1_555 1_555
C20 C21 1_555 1_555
N4 O10 1_555 1_555

#END
