
#######################################################################
#
#                 Cambridge Crystallographic Data Centre
#                                CCDC 
#
#######################################################################
#
# If this CIF has been generated from an entry in the Cambridge 
# Structural Database, then it will include bibliographic, chemical, 
# crystal, experimental, refinement or atomic coordinate data resulting 
# from the CCDC's data processing and validation procedures.
#
#######################################################################

data_OJATUO
_symmetry_cell_setting           monoclinic
_symmetry_space_group_name_H-M   'P 21/c'
_symmetry_Int_Tables_number      14
_space_group_name_Hall           '-P 2ybc'
loop_
_symmetry_equiv_pos_site_id
_symmetry_equiv_pos_as_xyz
1 x,y,z
2 -x,1/2+y,1/2-z
3 -x,-y,-z
4 x,1/2-y,1/2+z
_cell_length_a                   10.6112(10)
_cell_length_b                   11.9262(2)
_cell_length_c                   17.9852(3)
_cell_angle_alpha                90
_cell_angle_beta                 104.9660(10)
_cell_angle_gamma                90
_cell_volume                     2198.84
loop_
_atom_site_label
_atom_site_type_symbol
_atom_site_fract_x
_atom_site_fract_y
_atom_site_fract_z
Sn1 Sn 0.4753(1) 0.6651(1) 0.2175(1)
Cl1 Cl 0.8789(1) 0.4404(1) 0.3399(1)
O1 O 0.5287(2) 0.4782(2) 0.2560(1)
O2 O 0.5844(3) 0.3320(2) 0.3350(2)
N1 N 0.6123(4) 0.6784(3) 0.5456(2)
C1 C 0.6768(3) 0.7070(3) 0.2395(2)
C2 C 0.7607(4) 0.6497(4) 0.2057(3)
C3 C 0.8910(5) 0.6791(6) 0.2193(3)
C4 C 0.9387(5) 0.7668(6) 0.2690(4)
C5 C 0.8582(5) 0.8236(4) 0.3045(4)
C6 C 0.7272(4) 0.7940(4) 0.2899(3)
C7 C 0.3654(3) 0.6758(3) 0.3005(2)
C8 C 0.3827(4) 0.7608(3) 0.3548(2)
C9 C 0.3212(5) 0.7567(4) 0.4138(3)
C10 C 0.2381(5) 0.6700(4) 0.4181(3)
C11 C 0.2161(4) 0.5868(4) 0.3635(3)
C12 C 0.2795(3) 0.5889(3) 0.3047(2)
C13 C 0.3591(3) 0.5942(3) 0.1135(2)
C14 C 0.4004(4) 0.5069(3) 0.0749(2)
C15 C 0.3153(5) 0.4562(4) 0.0113(3)
C16 C 0.1899(5) 0.4951(4) -0.0144(3)
C17 C 0.1477(4) 0.5844(5) 0.0225(3)
C18 C 0.2317(4) 0.6329(4) 0.0866(2)
C19 C 0.5862(3) 0.4356(3) 0.3192(2)
C20 C 0.6641(3) 0.5073(3) 0.3845(2)
C21 C 0.7992(3) 0.5170(3) 0.3962(2)
C22 C 0.8695(4) 0.5856(3) 0.4549(2)
C23 C 0.8075(4) 0.6401(3) 0.5031(3)
C24 C 0.6745(4) 0.6267(3) 0.4952(2)
C25 C 0.6025(3) 0.5609(3) 0.4340(2)
O2A O 0.4156(3) 0.8320(2) 0.1650(2)
Sn1A Sn 0.5247(1) 0.1651(1) 0.2825(1)
loop_
_geom_bond_atom_site_label_1
_geom_bond_atom_site_label_2
_geom_bond_site_symmetry_1
_geom_bond_site_symmetry_2
Sn1 O1 1_555 1_555
Cl1 C21 1_555 1_555
O1 C19 1_555 1_555
O2 C19 1_555 1_555
N1 C24 1_555 1_555
C1 Sn1 1_555 1_555
C2 C1 1_555 1_555
C3 C2 1_555 1_555
C4 C3 1_555 1_555
C5 C4 1_555 1_555
C6 C1 1_555 1_555
C7 Sn1 1_555 1_555
C8 C7 1_555 1_555
C9 C8 1_555 1_555
C10 C9 1_555 1_555
C11 C10 1_555 1_555
C12 C7 1_555 1_555
C13 Sn1 1_555 1_555
C14 C13 1_555 1_555
C15 C14 1_555 1_555
C16 C15 1_555 1_555
C17 C16 1_555 1_555
C18 C13 1_555 1_555
C19 C20 1_555 1_555
C20 C21 1_555 1_555
C21 C22 1_555 1_555
C22 C23 1_555 1_555
C23 C24 1_555 1_555
C24 C25 1_555 1_555
C25 C20 1_555 1_555
O2A Sn1 1_555 1_555
Sn1A O2 1_555 1_555
C5 C6 1_555 1_555
C11 C12 1_555 1_555
C17 C18 1_555 1_555

#END
