
#######################################################################
#
#                 Cambridge Crystallographic Data Centre
#                                CCDC 
#
#######################################################################
#
# If this CIF has been generated from an entry in the Cambridge 
# Structural Database, then it will include bibliographic, chemical, 
# crystal, experimental, refinement or atomic coordinate data resulting 
# from the CCDC's data processing and validation procedures.
#
#######################################################################

data_OJATAW
_symmetry_cell_setting           monoclinic
_symmetry_space_group_name_H-M   'P 2/n'
_symmetry_Int_Tables_number      13
_space_group_name_Hall           '-P 2yac'
loop_
_symmetry_equiv_pos_site_id
_symmetry_equiv_pos_as_xyz
1 x,y,z
2 1/2-x,y,1/2-z
3 -x,-y,-z
4 1/2+x,-y,1/2+z
_cell_length_a                   11.915(3)
_cell_length_b                   8.1768(18)
_cell_length_c                   15.913(4)
_cell_angle_alpha                90
_cell_angle_beta                 106.617(4)
_cell_angle_gamma                90
_cell_volume                     1485.6
loop_
_atom_site_label
_atom_site_type_symbol
_atom_site_fract_x
_atom_site_fract_y
_atom_site_fract_z
C1 C 1.0438(4) 0.9144(5) 0.2137(3)
H1 H 1.0996 0.8314 0.2137
C2 C 0.9254(3) 1.1174(5) 0.1761(3)
H2 H 0.8824 1.2054 0.1430
C3 C 0.9207(4) 1.0717(5) 0.2566(3)
H3 H 0.8742 1.1194 0.2897
C4 C 1.0208(3) 0.8560(5) 0.3625(3)
C5 C 1.1216(3) 0.7642(5) 0.3948(3)
H4 H 1.1796 0.7573 0.3645
C6 C 1.1339(4) 0.6832(6) 0.4731(3)
H5 H 1.2014 0.6181 0.4974
C7 C 1.0480(4) 0.6963(5) 0.5167(3)
H6 H 1.0546 0.6409 0.5704
C8 C 0.9529(3) 0.7939(5) 0.4777(3)
C9 C 0.7575(3) 0.8965(5) 0.4766(3)
H7 H 0.7403 0.9458 0.4203
C10 C 0.8511(4) 0.7596(5) 0.5962(3)
H8 H 0.9077 0.6973 0.6381
C11 C 0.7456(4) 0.8134(6) 0.6028(3)
H9 H 0.7165 0.7957 0.6518
Cd1 Cd 1.0000 1.0000 0.0000
N1 N 1.0022(3) 1.0169(4) 0.1488(2)
N2 N 0.9968(3) 0.9423(4) 0.2809(2)
N3 N 0.9377(3) 0.8749(4) 0.4030(2)
N4 N 0.8584(3) 0.8150(4) 0.5154(2)
N5 N 0.6866(3) 0.8986(4) 0.5268(2)
O1 O 1.0670(3) 0.7257(4) 0.0184(2)
H10 H 1.0320 0.6749 0.0493
H11 H 1.053(4) 0.666(5) -0.0260(19)
C1A C 0.4562(4) 0.9144(5) 0.2863(3)
H1A H 0.4004 0.8314 0.2863
C2A C 0.5746(3) 1.1174(5) 0.3239(3)
H2A H 0.6176 1.2054 0.3570
C3A C 0.5793(4) 1.0717(5) 0.2434(3)
H3A H 0.6258 1.1194 0.2103
C4A C 0.4792(3) 0.8560(5) 0.1375(3)
C5A C 0.3784(3) 0.7642(5) 0.1052(3)
H4A H 0.3204 0.7573 0.1355
C6A C 0.3661(4) 0.6832(6) 0.0269(3)
H5A H 0.2986 0.6181 0.0026
C7A C 0.4520(4) 0.6963(5) -0.0167(3)
H6A H 0.4454 0.6409 -0.0704
C8A C 0.5471(3) 0.7939(5) 0.0223(3)
C9A C 0.7425(3) 0.8965(5) 0.0234(3)
H7A H 0.7597 0.9458 0.0797
C10A C 0.6489(4) 0.7596(5) -0.0962(3)
H8A H 0.5923 0.6973 -0.1381
C11A C 0.7544(4) 0.8134(6) -0.1028(3)
H9A H 0.7835 0.7957 -0.1518
N1A N 0.4978(3) 1.0169(4) 0.3512(2)
N2A N 0.5032(3) 0.9423(4) 0.2191(2)
N3A N 0.5623(3) 0.8749(4) 0.0970(2)
N4A N 0.6416(3) 0.8150(4) -0.0154(2)
N5A N 0.8134(3) 0.8986(4) -0.0268(2)
O1B O 0.9330(3) 1.2743(4) -0.0184(2)
H10B H 0.9680 1.3251 -0.0493
H11B H 0.947(4) 1.334(5) 0.0260(19)
Cd1A Cd 0.5000 1.0000 0.5000
N1B N 0.9978(3) 0.9831(4) -0.1488(2)
N5C N 1.1866(3) 1.1014(4) 0.0268(2)
F1 F 0.7489(3) 0.5455(6) 0.1494(2)
F2 F 0.7500 0.3516(6) 0.2500
F3 F 0.6097(2) 0.5410(4) 0.21891(18)
F4 F 0.7500 0.7363(6) 0.2500
P1 P 0.7500 0.5435(2) 0.2500
F1A F 0.7511(3) 0.5455(6) 0.3506(2)
F3A F 0.8903(2) 0.5410(4) 0.28109(18)
N6 N 0.7500 0.5074(7) 0.7500
O2 O 0.8434(3) 0.5861(4) 0.7633(2)
O3 O 0.7500 0.3540(6) 0.7500
O2A O 0.6566(3) 0.5861(4) 0.7367(2)
O4 O 0.9656(3) 0.5179(4) 0.1118(2)
H12 H 0.914(6) 0.540(8) 0.134(5)
H13 H 1.032(4) 0.497(5) 0.152(3)
loop_
_geom_bond_atom_site_label_1
_geom_bond_atom_site_label_2
_geom_bond_site_symmetry_1
_geom_bond_site_symmetry_2
C1 H1 1_555 1_555
C2 H2 1_555 1_555
C3 C2 1_555 1_555
H3 C3 1_555 1_555
C4 C5 1_555 1_555
C5 H4 1_555 1_555
C6 C5 1_555 1_555
H5 C6 1_555 1_555
C7 C6 1_555 1_555
H6 C7 1_555 1_555
C8 C7 1_555 1_555
C9 H7 1_555 1_555
C10 H8 1_555 1_555
C11 C10 1_555 1_555
H9 C11 1_555 1_555
Cd1 N1 1_555 1_555
N1 C1 1_555 1_555
N2 C1 1_555 1_555
N3 C4 1_555 1_555
N4 C8 1_555 1_555
N5 C9 1_555 1_555
O1 Cd1 1_555 1_555
H10 O1 1_555 1_555
H11 O1 1_555 1_555
F1 P1 1_555 1_555
F2 P1 1_555 1_555
F3 P1 1_555 1_555
F4 P1 1_555 1_555
P1 F1A 1_555 1_555
N6 O2 1_555 1_555
O3 N6 1_555 1_555
O4 H12 1_555 1_555
H13 O4 1_555 1_555
C1A H1A 1_555 1_555
C2A H2A 1_555 1_555
C3A C2A 1_555 1_555
H3A C3A 1_555 1_555
C4A C5A 1_555 1_555
C5A H4A 1_555 1_555
C6A C5A 1_555 1_555
H5A C6A 1_555 1_555
C7A C6A 1_555 1_555
H6A C7A 1_555 1_555
C8A C7A 1_555 1_555
C9A H7A 1_555 1_555
C10A H8A 1_555 1_555
C11A C10A 1_555 1_555
H9A C11A 1_555 1_555
N1A C1A 1_555 1_555
N2A C1A 1_555 1_555
N3A C4A 1_555 1_555
N4A C8A 1_555 1_555
N5A Cd1 1_555 1_555
O1B Cd1 1_555 1_555
H10B O1B 1_555 1_555
H11B O1B 1_555 1_555
Cd1A N5 1_555 1_555
N1B Cd1 1_555 1_555
N5C Cd1 1_555 1_555
F3A P1 1_555 1_555
O2A N6 1_555 1_555
C2 N1 1_555 1_555
C3 N2 1_555 1_555
C4 N2 1_555 1_555
C8 N3 1_555 1_555
C9 N4 1_555 1_555
C10 N4 1_555 1_555
C11 N5 1_555 1_555
C2A N1A 1_555 1_555
C3A N2A 1_555 1_555
C4A N2A 1_555 1_555
C8A N3A 1_555 1_555
C9A N4A 1_555 1_555
C9A N5A 1_555 1_555
C10A N4A 1_555 1_555
C11A N5A 1_555 1_555
N1A Cd1A 1_555 1_555

#END
