
#######################################################################
#
#                 Cambridge Crystallographic Data Centre
#                                CCDC 
#
#######################################################################
#
# If this CIF has been generated from an entry in the Cambridge 
# Structural Database, then it will include bibliographic, chemical, 
# crystal, experimental, refinement or atomic coordinate data resulting 
# from the CCDC's data processing and validation procedures.
#
#######################################################################

data_OJECUC
_symmetry_cell_setting           monoclinic
_symmetry_space_group_name_H-M   'P 21/c'
_symmetry_Int_Tables_number      14
_space_group_name_Hall           '-P 2ybc'
loop_
_symmetry_equiv_pos_site_id
_symmetry_equiv_pos_as_xyz
1 x,y,z
2 -x,1/2+y,1/2-z
3 -x,-y,-z
4 x,1/2-y,1/2+z
_cell_length_a                   16.5970(5)
_cell_length_b                   12.1135(3)
_cell_length_c                   12.9058(4)
_cell_angle_alpha                90
_cell_angle_beta                 106.227(3)
_cell_angle_gamma                90
_cell_volume                     2491.32
loop_
_atom_site_label
_atom_site_type_symbol
_atom_site_fract_x
_atom_site_fract_y
_atom_site_fract_z
Ag1 Ag 0.09141(2) 0.77779(3) 0.18200(2)
S1 S 0.27682(6) 0.61951(9) 0.22946(8)
S2 S 0.23926(7) 1.01915(8) 0.18232(8)
C1 C 0.3104(3) 0.5067(4) 0.3246(4)
C2 C 0.0800(2) 0.7301(3) -0.0711(3)
C3 C -0.0223(2) 0.6509(3) -0.0084(3)
C7 C -0.0131(3) 0.6114(3) -0.1827(3)
C10 C -0.0538(3) 0.5943(3) -0.1045(3)
H5 H -0.1008 0.5465 -0.1159
C11 C -0.1325(3) 0.5874(5) 0.0620(4)
H6 H -0.1491 0.5909 0.1290
H7 H -0.1247 0.5101 0.0444
H8 H -0.1763 0.6208 0.0032
C13 C 0.1790(4) 1.1439(5) 0.1369(5)
C14 C -0.0401(3) 0.5526(5) -0.2879(4)
H12 H -0.0876 0.5041 -0.2887
H13 H -0.0571 0.6065 -0.3465
H14 H 0.0066 0.5083 -0.2977
N1 N 0.0447(2) 0.7159(3) 0.0106(2)
N2 N 0.0519(2) 0.6804(3) -0.1685(2)
N5 N 0.1458(2) 0.7960(3) -0.0543(3)
H15 H 0.1703 0.8066 -0.1058
H16 H 0.1651 0.8292 0.0084
O1 O 0.3526(2) 0.6710(3) 0.2294(4)
O2 O 0.2348(4) 0.5673(4) 0.1323(3)
O3 O 0.2261(3) 0.6841(4) 0.2785(3)
O4 O 0.3081(2) 1.0312(3) 0.1367(4)
O5 O 0.2591(3) 1.0244(4) 0.2954(3)
O6 O 0.1815(3) 0.9342(3) 0.1339(3)
O8 O -0.05532(19) 0.6464(3) 0.0756(2)
F1 F 0.2474(2) 0.4522(4) 0.3408(4)
F2 F 0.3571(4) 0.5387(3) 0.4149(3)
F3 F 0.1118(2) 1.1479(3) 0.1707(3)
F4 F 0.2247(3) 1.2326(3) 0.1766(4)
F5 F 0.1591(2) 1.1561(3) 0.0341(3)
F6 F 0.3520(3) 0.4320(3) 0.2861(3)
Ag1C Ag 0.09141(2) 0.72221(3) -0.31800(2)
N2C N 0.0519(2) 0.8196(3) 0.3315(2)
Ag2 Ag 0.53513(2) 0.64742(2) 0.27774(3)
C4 C 0.5950(3) 0.8361(3) 0.4430(3)
C5 C 0.4983(2) 0.8947(3) 0.2877(3)
C6 C 0.5616(2) 1.0235(3) 0.4147(3)
C8 C 0.6072(3) 0.9426(3) 0.4803(3)
H1 H 0.6454 0.9596 0.5482
C9 C 0.6298(3) 1.1682(4) 0.5309(4)
H2 H 0.6241 1.2478 0.5400
H3 H 0.6844 1.1525 0.5190
H4 H 0.6255 1.1297 0.5959
C12 C 0.6378(3) 0.7427(4) 0.5112(4)
H9 H 0.6744 0.7714 0.5791
H10 H 0.6716 0.7017 0.4728
H11 H 0.5958 0.6934 0.5265
N3 N 0.5422(2) 0.8111(3) 0.3461(3)
N4 N 0.50702(19) 1.0010(2) 0.3193(3)
N6 N 0.4436(2) 0.8718(3) 0.1930(3)
H17 H 0.4146 0.9253 0.1535
H18 H 0.4363 0.8031 0.1700
O7 O 0.56362(19) 1.1305(2) 0.4388(2)
Ag2A Ag 0.46487(2) 1.14742(2) 0.22226(3)
N4A N 0.49298(19) 0.5010(2) 0.1807(3)
loop_
_geom_bond_atom_site_label_1
_geom_bond_atom_site_label_2
_geom_bond_site_symmetry_1
_geom_bond_site_symmetry_2
Ag1 N1 1_555 1_555
Ag2 N3 1_555 1_555
S1 C1 1_555 1_555
S2 C13 1_555 1_555
C1 F1 1_555 1_555
C2 N1 1_555 1_555
C3 C10 1_555 1_555
C4 C8 1_555 1_555
C5 N3 1_555 1_555
C6 C8 1_555 1_555
C7 C10 1_555 1_555
C8 H1 1_555 1_555
C9 H2 1_555 1_555
H3 C9 1_555 1_555
H4 C9 1_555 1_555
C10 H5 1_555 1_555
C11 H6 1_555 1_555
H7 C11 1_555 1_555
H8 C11 1_555 1_555
C12 C4 1_555 1_555
H9 C12 1_555 1_555
H10 C12 1_555 1_555
H11 C12 1_555 1_555
C13 F3 1_555 1_555
C14 C7 1_555 1_555
H12 C14 1_555 1_555
H13 C14 1_555 1_555
H14 C14 1_555 1_555
N1 C3 1_555 1_555
N2 C2 1_555 1_555
N3 C4 1_555 1_555
N4 C5 1_555 1_555
N5 C2 1_555 1_555
H15 N5 1_555 1_555
H16 N5 1_555 1_555
N6 C5 1_555 1_555
H17 N6 1_555 1_555
H18 N6 1_555 1_555
O1 S1 1_555 1_555
O2 S1 1_555 1_555
O3 Ag1 1_555 1_555
O4 S2 1_555 1_555
O5 S2 1_555 1_555
O6 Ag1 1_555 1_555
O7 C6 1_555 1_555
O8 C3 1_555 1_555
F2 C1 1_555 1_555
F4 C13 1_555 1_555
F5 C13 1_555 1_555
F6 C1 1_555 1_555
Ag1C N2 1_555 1_555
Ag2A N4 1_555 1_555
N2C Ag1 1_555 1_555
N4A Ag2 1_555 1_555
S1 O3 1_555 1_555
S2 O6 1_555 1_555
C6 N4 1_555 1_555
C7 N2 1_555 1_555
C9 O7 1_555 1_555
C11 O8 1_555 1_555

#END
