
#######################################################################
#
#                 Cambridge Crystallographic Data Centre
#                                CCDC 
#
#######################################################################
#
# If this CIF has been generated from an entry in the Cambridge 
# Structural Database, then it will include bibliographic, chemical, 
# crystal, experimental, refinement or atomic coordinate data resulting 
# from the CCDC's data processing and validation procedures.
#
#######################################################################

data_OJEDIQ
_symmetry_cell_setting           monoclinic
_symmetry_space_group_name_H-M   'P 21/c'
_symmetry_Int_Tables_number      14
_space_group_name_Hall           '-P 2ybc'
loop_
_symmetry_equiv_pos_site_id
_symmetry_equiv_pos_as_xyz
1 x,y,z
2 -x,1/2+y,1/2-z
3 -x,-y,-z
4 x,1/2-y,1/2+z
_cell_length_a                   7.8357(4)
_cell_length_b                   21.0896(12)
_cell_length_c                   9.4155(5)
_cell_angle_alpha                90
_cell_angle_beta                 112.9040(10)
_cell_angle_gamma                90
_cell_volume                     1433.26
loop_
_atom_site_label
_atom_site_type_symbol
_atom_site_fract_x
_atom_site_fract_y
_atom_site_fract_z
Co1 Co 0.4728(1) 0.1810(1) 0.7591(1)
V1 V 0.1593(1) 0.2707(1) 0.8884(1)
V2 V 0.9144(1) 0.1684(1) 1.0279(1)
O1 O 0.6868(3) 0.1820(1) 0.9768(3)
O2 O 0.9479(3) 0.0972(1) 0.9823(3)
O3 O 0.5967(4) 0.2694(1) 0.7236(3)
O4 O 0.3088(4) 0.2266(1) 0.8518(3)
O5 O 0.2681(3) 0.1869(1) 0.5447(3)
O6 O 0.0359(3) 0.3217(1) 0.7317(3)
O7 O -0.0130(4) 0.2242(1) 0.9185(3)
C1 C 0.2690(5) 0.0734(2) 0.8532(4)
C2 C 0.2331(5) 0.0099(2) 0.8771(4)
C3 C 0.3269(5) -0.0372(2) 0.8386(4)
C4 C 0.4578(5) -0.0216(2) 0.7761(4)
C5 C 0.4832(4) 0.0428(2) 0.7541(4)
C6 C 0.6132(4) 0.0618(2) 0.6890(4)
C7 C 0.7152(5) 0.0152(2) 0.6501(4)
C8 C 0.8396(5) 0.0360(2) 0.5859(4)
C9 C 0.8542(5) 0.0997(2) 0.5612(4)
C10 C 0.7471(5) 0.1421(2) 0.6038(4)
C11 C 0.5651(5) -0.0679(2) 0.7358(4)
C12 C 0.6887(5) -0.0507(2) 0.6765(4)
N1 N 0.3908(4) 0.0899(1) 0.7939(3)
N2 N 0.6314(4) 0.1247(1) 0.6680(3)
H1 H 0.2070(50) 0.0972(19) 0.8770(40)
H2 H 0.1550(50) 0.0011(18) 0.9160(40)
H3 H 0.3100(60) -0.0740(20) 0.8430(50)
H4 H 0.9050(60) 0.0068(19) 0.5590(50)
H5 H 0.9410(60) 0.1133(19) 0.5240(50)
H6 H 0.7500(60) 0.1849(19) 0.5860(50)
H7 H 0.5580(50) -0.1059(19) 0.7560(50)
H8 H 0.7610(60) -0.0770(20) 0.6580(50)
O5C O 0.2681(3) 0.3131(1) 1.0447(3)
O6C O 1.0359(3) 0.1783(1) 1.2317(3)
O7_2 O 0.9870(4) 0.2242(1) 0.9185(3)
V1C V 0.1593(1) 0.2293(1) 0.3884(1)
V2C V -0.0856(1) 0.3316(1) 0.5279(1)
V2_2 V -0.0856(1) 0.1684(1) 1.0279(1)
loop_
_geom_bond_atom_site_label_1
_geom_bond_atom_site_label_2
_geom_bond_site_symmetry_1
_geom_bond_site_symmetry_2
Co1 O1 1_555 1_555
V1 O4 1_555 1_555
V2 O1 1_555 1_555
O2 V2 1_555 1_555
O3 Co1 1_555 1_555
O4 Co1 1_555 1_555
O5 Co1 1_555 1_555
O6 V1 1_555 1_555
O7 V1 1_555 1_555
C1 C2 1_555 1_555
C2 C3 1_555 1_555
C3 C4 1_555 1_555
C4 C5 1_555 1_555
C5 C6 1_555 1_555
C6 C7 1_555 1_555
C7 C8 1_555 1_555
C8 C9 1_555 1_555
C9 C10 1_555 1_555
C10 N2 1_555 1_555
C11 C4 1_555 1_555
C12 C7 1_555 1_555
N1 Co1 1_555 1_555
N2 Co1 1_555 1_555
H1 C1 1_555 1_555
H2 C2 1_555 1_555
H3 C3 1_555 1_555
H4 C8 1_555 1_555
H5 C9 1_555 1_555
H6 C10 1_555 1_555
H7 C11 1_555 1_555
H8 C12 1_555 1_555
O5C V1 1_555 1_555
O6C V2 1_555 1_555
O7_2 V2 1_555 1_555
V1C O5 1_555 1_555
V2C O6 1_555 1_555
V2_2 O7 1_555 1_555
C1 N1 1_555 1_555
C5 N1 1_555 1_555
C6 N2 1_555 1_555
C11 C12 1_555 1_555

#END
