
#######################################################################
#
#                 Cambridge Crystallographic Data Centre
#                                CCDC 
#
#######################################################################
#
# If this CIF has been generated from an entry in the Cambridge 
# Structural Database, then it will include bibliographic, chemical, 
# crystal, experimental, refinement or atomic coordinate data resulting 
# from the CCDC's data processing and validation procedures.
#
#######################################################################

data_OJEDIQ01
_symmetry_cell_setting           monoclinic
_symmetry_space_group_name_H-M   'P 21/c'
_symmetry_Int_Tables_number      14
_space_group_name_Hall           '-P 2ybc'
loop_
_symmetry_equiv_pos_site_id
_symmetry_equiv_pos_as_xyz
1 x,y,z
2 x,1/2-y,1/2+z
3 -x,-y,-z
4 -x,1/2+y,1/2-z
_cell_length_a                   7.8519(9)
_cell_length_b                   21.183(2)
_cell_length_c                   9.4627(11)
_cell_angle_alpha                90
_cell_angle_beta                 112.827(2)
_cell_angle_gamma                90
_cell_volume                     1450.63
loop_
_atom_site_label
_atom_site_type_symbol
_atom_site_fract_x
_atom_site_fract_y
_atom_site_fract_z
V1 V 0.83880(6) 0.73019(2) 0.11222(5)
V2 V 1.08257(7) 0.83120(2) -0.02994(5)
Co1 Co 0.52616(5) 0.817570(19) 0.24477(4)
O1 O 0.4089(4) 0.72928(11) 0.2842(3)
O2 O 0.9963(4) 0.78013(15) 0.0759(3)
O3 O 1.0515(3) 0.90297(12) 0.0077(3)
O4 O 0.6875(3) 0.77097(13) 0.1512(3)
O5 O 0.9726(3) 0.68132(12) 0.2669(2)
O6 O 0.7339(3) 0.68679(11) -0.0405(2)
O7 O 1.3086(3) 0.81620(11) 0.0299(2)
C1 C 0.2519(5) 0.85707(18) 0.3982(4)
H1 H 0.2423 0.8144 0.4165
C2 C 0.1443(5) 0.8994(2) 0.4394(4)
H2 H 0.0634 0.8852 0.4827
C3 C 0.1595(5) 0.9624(2) 0.4151(4)
H3 H 0.0883 0.9916 0.4414
C4 C 0.2829(4) 0.98282(17) 0.3504(4)
C5 C 0.3078(5) 1.04787(19) 0.3224(4)
H4 H 0.2376 1.0785 0.3453
C6 C 0.4318(6) 1.06530(17) 0.2632(4)
H5 H 0.4476 1.1079 0.2475
C7 C 0.5386(5) 1.01931(16) 0.2247(3)
C8 C 0.6708(5) 1.03478(18) 0.1629(4)
H6 H 0.6939 1.0768 0.1481
C9 C 0.7636(5) 0.98806(19) 0.1254(4)
H7 H 0.8506 0.9979 0.0845
C10 C 0.7281(4) 0.92536(17) 0.1484(4)
H8 H 0.7921 0.8938 0.1213
C11 C 0.5135(4) 0.95545(15) 0.2459(3)
C12 C 0.3840(4) 0.93654(15) 0.3118(3)
N1 N 0.3672(3) 0.87425(12) 0.3342(3)
N2 N 0.6057(3) 0.90875(12) 0.2077(3)
O5A O 0.9726(3) 0.81868(12) -0.2331(2)
Co1A Co 0.52616(5) 0.682430(19) -0.25523(4)
O6A O 0.7339(3) 0.81321(11) 0.4595(2)
O7_2 O 0.3086(3) 0.81620(11) 0.0299(2)
V2A V 1.08257(7) 0.66880(2) 0.47006(5)
Co1_2 Co 1.52616(5) 0.817570(19) 0.24477(4)
loop_
_geom_bond_atom_site_label_1
_geom_bond_atom_site_label_2
_geom_bond_site_symmetry_1
_geom_bond_site_symmetry_2
V1 O2 1_555 1_555
V2 O2 1_555 1_555
Co1 O1 1_555 1_555
O3 V2 1_555 1_555
O4 V1 1_555 1_555
O5 V1 1_555 1_555
O6 V1 1_555 1_555
O7 V2 1_555 1_555
C1 H1 1_555 1_555
C2 C1 1_555 1_555
H2 C2 1_555 1_555
C3 C2 1_555 1_555
H3 C3 1_555 1_555
C4 C3 1_555 1_555
C5 C4 1_555 1_555
H4 C5 1_555 1_555
C6 C5 1_555 1_555
H5 C6 1_555 1_555
C7 C6 1_555 1_555
C8 C7 1_555 1_555
H6 C8 1_555 1_555
C9 C8 1_555 1_555
H7 C9 1_555 1_555
C10 C9 1_555 1_555
H8 C10 1_555 1_555
C11 C7 1_555 1_555
C12 C4 1_555 1_555
N1 Co1 1_555 1_555
N2 Co1 1_555 1_555
O5A V2 1_555 1_555
Co1A O6 1_555 1_555
O6A Co1 1_555 1_555
O7_2 Co1 1_555 1_555
V2A O5 1_555 1_555
Co1_2 O7 1_555 1_555
Co1 O4 1_555 1_555
C1 N1 1_555 1_555
C10 N2 1_555 1_555
C11 C12 1_555 1_555
C11 N2 1_555 1_555
C12 N1 1_555 1_555

#END
