
#######################################################################
#
#                 Cambridge Crystallographic Data Centre
#                                CCDC 
#
#######################################################################
#
# If this CIF has been generated from an entry in the Cambridge 
# Structural Database, then it will include bibliographic, chemical, 
# crystal, experimental, refinement or atomic coordinate data resulting 
# from the CCDC's data processing and validation procedures.
#
#######################################################################

data_OJEDEM
_symmetry_cell_setting           triclinic
_symmetry_space_group_name_H-M   'P -1'
_symmetry_Int_Tables_number      2
_space_group_name_Hall           '-P 1'
loop_
_symmetry_equiv_pos_site_id
_symmetry_equiv_pos_as_xyz
1 x,y,z
2 -x,-y,-z
_cell_length_a                   7.8353(5)
_cell_length_b                   9.2300(6)
_cell_length_c                   10.7162(7)
_cell_angle_alpha                88.8300(10)
_cell_angle_beta                 70.8910(10)
_cell_angle_gamma                76.4440(10)
_cell_volume                     710.55
loop_
_atom_site_label
_atom_site_type_symbol
_atom_site_fract_x
_atom_site_fract_y
_atom_site_fract_z
Cu1 Cu 0.4869(1) 0.8810(1) 0.2965(1)
V1 V 0.2096(1) 0.6469(1) 0.4367(1)
V2 V 0.8370(1) 0.6241(1) 0.3510(1)
O1 O 0.2932(2) 0.9869(2) 0.4569(2)
O2 O 0.3953(2) 0.7010(2) 0.3363(1)
O3 O 0.0861(2) 0.7846(2) 0.5455(2)
O4 O 0.2752(2) 0.4828(2) 0.5174(2)
O5 O 0.7141(2) 0.8035(2) 0.3777(1)
O6 O 0.0741(2) 0.6070(2) 0.3420(2)
O7 O 0.8463(2) 0.5607(2) 0.2092(2)
C1 C 0.5627(3) 1.1894(2) 0.2991(2)
C2 C 0.6491(3) 1.3024(2) 0.2397(2)
C3 C 0.7529(3) 1.2858(2) 0.1075(2)
C4 C 0.7688(3) 1.1560(2) 0.0328(2)
C5 C 0.6788(3) 1.0486(2) 0.1008(2)
C6 C 0.6931(3) 0.9123(2) 0.0319(2)
C7 C 0.7936(3) 0.8870(2) -0.1039(2)
C8 C 0.8031(3) 0.7489(2) -0.1639(2)
C9 C 0.7159(3) 0.6479(2) -0.0885(2)
C10 C 0.6177(3) 0.6837(2) 0.0468(2)
C11 C 0.8698(3) 1.1278(2) -0.1064(2)
C12 C 0.8805(3) 0.9998(2) -0.1720(2)
N1 N 0.5783(2) 1.0643(2) 0.2318(2)
N2 N 0.6062(2) 0.8127(2) 0.1056(2)
H1 H 0.5020(40) 1.1980(30) 0.3910(30)
H2 H 0.6320(40) 1.3840(30) 0.2900(30)
H3 H 0.8160(40) 1.3540(30) 0.0700(30)
H4 H 0.7150(40) 0.5600(30) -0.1220(30)
H5 H 0.5610(40) 0.6140(30) 0.0960(30)
H6 H 0.9260(40) 1.1990(40) -0.1520(30)
H7 H 0.9420(40) 0.9820(30) -0.2640(30)
H8 H 0.8680(40) 0.7340(30) -0.2560(30)
O4A O 0.7248(2) 0.5172(2) 0.4826(2)
O6_2 O 1.0741(2) 0.6070(2) 0.3420(2)
V2A V 0.1630(1) 0.3759(1) 0.6490(1)
V2_2 V -0.1630(1) 0.6241(1) 0.3510(1)
loop_
_geom_bond_atom_site_label_1
_geom_bond_atom_site_label_2
_geom_bond_site_symmetry_1
_geom_bond_site_symmetry_2
Cu1 O1 1_555 1_555
V1 O2 1_555 1_555
V2 O5 1_555 1_555
O2 Cu1 1_555 1_555
O3 V1 1_555 1_555
O4 V1 1_555 1_555
O5 Cu1 1_555 1_555
O6 V1 1_555 1_555
O7 V2 1_555 1_555
C1 C2 1_555 1_555
C2 C3 1_555 1_555
C3 C4 1_555 1_555
C4 C5 1_555 1_555
C5 C6 1_555 1_555
C6 C7 1_555 1_555
C7 C8 1_555 1_555
C8 C9 1_555 1_555
C9 C10 1_555 1_555
C10 N2 1_555 1_555
C11 C4 1_555 1_555
C12 C7 1_555 1_555
N1 Cu1 1_555 1_555
N2 Cu1 1_555 1_555
H1 C1 1_555 1_555
H2 C2 1_555 1_555
H3 C3 1_555 1_555
H4 C9 1_555 1_555
H5 C10 1_555 1_555
H6 C11 1_555 1_555
H7 C12 1_555 1_555
H8 C8 1_555 1_555
O4A V2 1_555 1_555
O6_2 V2 1_555 1_555
V2A O4 1_555 1_555
V2_2 O6 1_555 1_555
C1 N1 1_555 1_555
C5 N1 1_555 1_555
C6 N2 1_555 1_555
C11 C12 1_555 1_555

#END
