
#######################################################################
#
#                 Cambridge Crystallographic Data Centre
#                                CCDC 
#
#######################################################################
#
# If this CIF has been generated from an entry in the Cambridge 
# Structural Database, then it will include bibliographic, chemical, 
# crystal, experimental, refinement or atomic coordinate data resulting 
# from the CCDC's data processing and validation procedures.
#
#######################################################################

data_OJEGUG01
_symmetry_cell_setting           monoclinic
_symmetry_space_group_name_H-M   'P 21/c'
_symmetry_Int_Tables_number      14
_space_group_name_Hall           '-P 2ybc'
loop_
_symmetry_equiv_pos_site_id
_symmetry_equiv_pos_as_xyz
1 x,y,z
2 -x,1/2+y,1/2-z
3 -x,-y,-z
4 x,1/2-y,1/2+z
_cell_length_a                   14.695(3)
_cell_length_b                   6.9747(14)
_cell_length_c                   18.807(3)
_cell_angle_alpha                90
_cell_angle_beta                 126.603(10)
_cell_angle_gamma                90
_cell_volume                     1547.44
loop_
_atom_site_label
_atom_site_type_symbol
_atom_site_fract_x
_atom_site_fract_y
_atom_site_fract_z
O1 O 0.0431(5) 0.1722(15) 0.1747(4)
H11 H 0.000(4) 0.268(7) 0.170(4)
H12 H 0.004(4) 0.092(6) 0.132(3)
N1 N 0.5233(3) 0.3293(5) 0.3254(2)
N2 N 0.4319(3) 0.3551(4) 0.3253(2)
Cu1 Cu 0.33828(4) 0.62016(7) 0.09438(3)
N3 N 0.3889(3) 0.4283(5) 0.0425(2)
N4 N 0.4502(3) 0.2642(5) 0.0825(2)
N5 N 0.4664(3) 0.1761(5) 0.0314(2)
N6 N 0.4160(3) 0.2806(5) -0.0436(2)
H1 H 0.4150 0.2523 -0.0886
N7 N 0.3116(3) 0.5711(5) -0.0988(2)
H2 H 0.2978 0.5540 -0.1496
N8 N 0.2308(3) 0.8839(5) -0.1399(2)
N9 N 0.2068(3) 1.0158(5) -0.1001(2)
N10 N 0.2360(3) 0.9507(5) -0.0244(2)
N11 N 0.2788(3) 0.7705(5) -0.0127(2)
N12 N 0.4018(3) 0.4848(5) 0.2062(2)
N13 N 0.5058(3) 0.4048(5) 0.2550(2)
N14 N 0.2550(3) 0.5126(5) 0.2262(2)
H3 H 0.2369 0.4926 0.2615
N15 N 0.0778(3) 0.6550(5) 0.1198(2)
H4 H 0.0490 0.6432 0.1482
N16 N 0.0252(3) 0.7332(6) 0.0382(2)
N17 N 0.0946(3) 0.7217(6) 0.0184(2)
N18 N 0.1939(3) 0.6402(5) 0.0861(2)
C1 C 0.3684(3) 0.4341(6) -0.0367(3)
C2 C 0.2749(3) 0.7368(6) -0.0841(2)
C3 C 0.3598(3) 0.4533(5) 0.2515(2)
C4 C 0.1799(2) 0.6004(4) 0.14844(18)
N1A N 0.4767(3) 0.8293(5) 0.1746(2)
Cu1A Cu 0.66172(4) 0.12016(7) 0.40562(3)
O2 O 0.0545(2) 0.1561(4) 0.32680(18)
H5 H 0.1142 0.2344 0.3581
H6 H 0.0509 0.1583 0.2800
O3 O 0.2121(3) 0.1547(6) 0.1003(2)
H7 H 0.228(5) 0.092(9) 0.076(4)
H10 H 0.145(5) 0.164(8) 0.057(4)
O4 O 0.3061(3) 0.9498(5) 0.2555(2)
H8 H 0.265(4) 1.022(7) 0.211(3)
H9 H 0.357(3) 1.005(7) 0.256(4)
loop_
_geom_bond_atom_site_label_1
_geom_bond_atom_site_label_2
_geom_bond_site_symmetry_1
_geom_bond_site_symmetry_2
O1 H11 1_555 1_555
N1 N2 1_555 1_555
N2 C3 1_555 1_555
Cu1 N3 1_555 1_555
N3 N4 1_555 1_555
N4 N5 1_555 1_555
N5 N6 1_555 1_555
N6 H1 1_555 1_555
N7 H2 1_555 1_555
N8 N9 1_555 1_555
N9 N10 1_555 1_555
N10 N11 1_555 1_555
N11 Cu1 1_555 1_555
N12 Cu1 1_555 1_555
N13 N1 1_555 1_555
N14 H3 1_555 1_555
N15 H4 1_555 1_555
N16 N15 1_555 1_555
N17 N16 1_555 1_555
N18 Cu1 1_555 1_555
C1 N3 1_555 1_555
C2 N7 1_555 1_555
C3 N12 1_555 1_555
C4 N14 1_555 1_555
O2 H5 1_555 1_555
H6 O2 1_555 1_555
O3 H7 1_555 1_555
O4 H8 1_555 1_555
H9 O4 1_555 1_555
H10 O3 1_555 1_555
H12 O1 1_555 1_555
N1A Cu1 1_555 1_555
Cu1A N1 1_555 1_555
N6 C1 1_555 1_555
N7 C1 1_555 1_555
N8 C2 1_555 1_555
N11 C2 1_555 1_555
N12 N13 1_555 1_555
N14 C3 1_555 1_555
N15 C4 1_555 1_555
N17 N18 1_555 1_555
N18 C4 1_555 1_555

#END
