
#######################################################################
#
#                 Cambridge Crystallographic Data Centre
#                                CCDC 
#
#######################################################################
#
# If this CIF has been generated from an entry in the Cambridge 
# Structural Database, then it will include bibliographic, chemical, 
# crystal, experimental, refinement or atomic coordinate data resulting 
# from the CCDC's data processing and validation procedures.
#
#######################################################################

data_OJIBUF
_symmetry_cell_setting           triclinic
_symmetry_space_group_name_H-M   'P -1'
_symmetry_Int_Tables_number      2
_space_group_name_Hall           '-P 1'
loop_
_symmetry_equiv_pos_site_id
_symmetry_equiv_pos_as_xyz
1 x,y,z
2 -x,-y,-z
_cell_length_a                   11.3534(17)
_cell_length_b                   15.891(2)
_cell_length_c                   17.369(3)
_cell_angle_alpha                111.098(2)
_cell_angle_beta                 97.685(2)
_cell_angle_gamma                104.313(2)
_cell_volume                     2745.53
loop_
_atom_site_label
_atom_site_type_symbol
_atom_site_fract_x
_atom_site_fract_y
_atom_site_fract_z
Zn1 Zn -0.07556(10) -0.23489(7) 1.59858(6)
O1 O -0.1286(5) -0.3836(4) 1.5325(3)
H1 H -0.0832 -0.4090 1.5661
H2 H -0.1078 -0.3996 1.4771
O2 O -0.0255(6) -0.0834(4) 1.6563(4)
H3 H 0.0641 -0.0555 1.6618
H4 H -0.0744 -0.0619 1.6207
O3 O 0.0893(6) -0.2329(4) 1.6751(4)
C1 C 0.2106(10) -0.1657(9) 1.7120(9)
H5 H 0.2660 -0.1931 1.7363
H6 H 0.2066 -0.1085 1.7571
H7 H 0.2434 -0.1489 1.6683
O4 O -0.2503(5) 0.4460(4) 1.8658(3)
O5 O -0.5245(5) 0.3868(4) 1.8193(4)
O6 O -0.6827(5) 0.2016(4) 1.7770(4)
O7 O -0.6171(5) 0.0256(4) 1.7059(3)
O8 O -0.4570(5) -0.0266(4) 1.7839(3)
O9 O -0.3425(6) 0.0580(4) 1.9670(4)
O10 O -0.1373(6) 0.2251(4) 1.9980(4)
O11 O -0.0941(5) 0.3778(4) 1.9306(3)
S1 S 0.0365(3) 0.5336(2) 1.6794(2)
O12 O 0.0905(9) 0.6274(6) 1.7284(5)
O13 O -0.0746(7) 0.5108(5) 1.6180(4)
O14 O 0.1234(8) 0.4847(7) 1.6362(5)
S2 S -0.3009(2) -0.16352(16) 1.51056(14)
O15 O -0.2587(6) -0.2274(4) 1.5427(3)
O16 O -0.3666(7) -0.2111(5) 1.4212(4)
O17 O -0.1992(6) -0.0785(4) 1.5298(4)
N1 N 0.0213(7) -0.2227(5) 1.5021(4)
N2 N 0.3505(6) -0.1946(4) 1.1894(4)
N3 N 0.8309(6) -0.2563(5) 0.6906(4)
C2 C 0.0962(9) -0.2777(6) 1.4769(6)
H8 H 0.1026 -0.3215 1.5015
C3 C 0.1625(9) -0.2718(6) 1.4175(5)
H9 H 0.2135 -0.3113 1.4020
C4 C 0.1566(7) -0.2098(5) 1.3800(5)
C5 C 0.0825(8) -0.1529(6) 1.4068(5)
H10 H 0.0755 -0.1086 1.3829
C6 C 0.0187(8) -0.1597(6) 1.4677(5)
H11 H -0.0290 -0.1181 1.4860
C7 C 0.2252(7) -0.2038(5) 1.3143(5)
C8 C 0.3294(7) -0.2345(6) 1.3067(5)
H12 H 0.3581 -0.2599 1.3446
C9 C 0.3921(7) -0.2287(5) 1.2445(4)
H13 H 0.4642 -0.2487 1.2409
C10 C 0.2496(7) -0.1640(6) 1.1946(5)
H14 H 0.2223 -0.1393 1.1556
C11 C 0.1859(7) -0.1685(5) 1.2562(5)
H15 H 0.1147 -0.1473 1.2589
C12 C 0.4170(7) -0.1913(5) 1.1212(5)
H16 H 0.5083 -0.1606 1.1470
H17 H 0.3878 -0.1523 1.0943
C13 C 0.3936(8) -0.2896(6) 1.0541(5)
H18 H 0.3032 -0.3186 1.0254
H19 H 0.4174 -0.3299 1.0814
C14 C 0.4685(8) -0.2861(6) 0.9887(5)
C15 C 0.5999(8) -0.2530(6) 1.0135(5)
H20 H 0.6409 -0.2327 1.0715
C16 C 0.6709(8) -0.2490(6) 0.9558(5)
H21 H 0.7598 -0.2257 0.9742
C17 C 0.6125(8) -0.2792(5) 0.8706(5)
C18 C 0.4819(8) -0.3119(6) 0.8450(5)
H22 H 0.4409 -0.3323 0.7870
C19 C 0.4119(8) -0.3148(6) 0.9042(5)
H23 H 0.3229 -0.3371 0.8860
C20 C 0.6897(8) -0.2736(6) 0.8086(5)
C21 C 0.8086(8) -0.2063(6) 0.8335(5)
H24 H 0.8441 -0.1648 0.8918
C22 C 0.8747(8) -0.2002(6) 0.7734(5)
H25 H 0.9553 -0.1536 0.7920
C23 C 0.7181(9) -0.3224(7) 0.6664(6)
H26 H 0.6864 -0.3643 0.6078
C24 C 0.6459(9) -0.3327(6) 0.7216(5)
H27 H 0.5659 -0.3802 0.7009
C25 C -0.0594(7) 0.4120(6) 1.8727(5)
C26 C 0.0504(8) 0.4111(6) 1.8455(5)
H28 H 0.1063 0.3850 1.8676
C27 C 0.0790(8) 0.4479(7) 1.7864(6)
H29 H 0.1559 0.4491 1.7702
C28 C -0.0020(8) 0.4824(6) 1.7514(6)
C29 C -0.1133(8) 0.4841(6) 1.7782(6)
H30 H -0.1682 0.5107 1.7558
C30 C -0.1442(7) 0.4476(5) 1.8368(5)
C31 C -0.3266(8) 0.4949(6) 1.8398(6)
H31 H -0.3505 0.4697 1.7768
H32 H -0.2793 0.5637 1.8624
C32 C -0.4417(8) 0.4809(6) 1.8730(7)
H33 H -0.4195 0.4878 1.9325
H34 H -0.4825 0.5288 1.8715
C33 C -0.6440(8) 0.3681(7) 1.8342(7)
H35 H -0.6796 0.4181 1.8314
H36 H -0.6382 0.3692 1.8920
C34 C -0.7286(8) 0.2728(6) 1.7696(6)
H37 H -0.8143 0.2621 1.7787
H38 H -0.7328 0.2708 1.7116
C35 C -0.7677(8) 0.1072(6) 1.7289(6)
H39 H -0.8471 0.1103 1.7005
H40 H -0.7869 0.0759 1.7678
C36 C -0.7133(8) 0.0496(6) 1.6633(6)
H41 H -0.7797 -0.0092 1.6219
H42 H -0.6771 0.0866 1.6321
C37 C -0.5545(7) -0.0257(5) 1.6557(5)
C38 C -0.5747(8) -0.0530(6) 1.5687(5)
H43 H -0.6393 -0.0401 1.5386
C39 C -0.4984(9) -0.1001(6) 1.5258(5)
H44 H -0.5101 -0.1169 1.4664
C40 C -0.4087(8) -0.1222(6) 1.5663(5)
C41 C -0.3914(8) -0.0990(6) 1.6541(5)
H45 H -0.3294 -0.1153 1.6828
C42 C -0.4643(7) -0.0527(5) 1.6980(5)
C43 C -0.3905(9) -0.0700(6) 1.8250(5)
H46 H -0.3005 -0.0493 1.8259
H47 H -0.4243 -0.1402 1.7944
C44 C -0.4073(9) -0.0393(6) 1.9150(5)
H48 H -0.4978 -0.0517 1.9127
H49 H -0.3773 -0.0785 1.9413
C45 C -0.2208(9) 0.0766(7) 2.0075(7)
H50 H -0.1753 0.0498 1.9649
H51 H -0.2198 0.0451 2.0474
C46 C -0.1548(8) 0.1822(6) 2.0561(5)
H52 H -0.2055 0.2109 2.0936
H53 H -0.0724 0.1933 2.0922
C47 C -0.0493(8) 0.3182(6) 2.0380(5)
H54 H 0.0220 0.3191 2.0783
H55 H -0.0895 0.3632 2.0707
C48 C -0.0019(7) 0.3489(6) 1.9719(5)
H56 H 0.0775 0.4026 1.9994
H57 H 0.0152 0.2955 1.9289
Zn1_2 Zn 0.92444(10) -0.23489(7) 0.59858(6)
N3_2 N -0.1691(6) -0.2563(5) 1.6906(4)
N4 N -0.9771(8) 0.0719(7) 1.8627(6)
O18 O -0.9297(11) 0.0376(11) 1.8979(12)
O19 O -0.9302(9) 0.1573(7) 1.8770(8)
O20 O -1.0710(7) 0.0268(6) 1.8026(5)
O21 O -0.5955(19) -0.3815(12) 1.3937(11)
C49 C -0.590(2) -0.4001(19) 1.4738(17)
H58 H -0.5262 -0.4309 1.4798
H59 H -0.6719 -0.4415 1.4704
H60 H -0.5680 -0.3393 1.5233
O22 O -0.373(3) -0.4393(17) 1.3496(16)
C50 C -0.329(3) -0.504(2) 1.3788(19)
H61 H -0.2429 -0.4718 1.4136
H62 H -0.3328 -0.5603 1.3297
H63 H -0.3840 -0.5224 1.4129
loop_
_geom_bond_atom_site_label_1
_geom_bond_atom_site_label_2
_geom_bond_site_symmetry_1
_geom_bond_site_symmetry_2
Zn1 O1 1_555 1_555
O1 H1 1_555 1_555
H2 O1 1_555 1_555
O2 Zn1 1_555 1_555
H3 O2 1_555 1_555
H4 O2 1_555 1_555
O3 Zn1 1_555 1_555
C1 O3 1_555 1_555
H5 C1 1_555 1_555
H6 C1 1_555 1_555
H7 C1 1_555 1_555
O4 C30 1_555 1_555
O5 C32 1_555 1_555
O6 C34 1_555 1_555
O7 C36 1_555 1_555
O8 C42 1_555 1_555
O9 C44 1_555 1_555
O10 C46 1_555 1_555
O11 C25 1_555 1_555
S1 O12 1_555 1_555
O13 S1 1_555 1_555
O14 S1 1_555 1_555
S2 O15 1_555 1_555
O15 Zn1 1_555 1_555
O16 S2 1_555 1_555
O17 S2 1_555 1_555
N1 Zn1 1_555 1_555
N2 C9 1_555 1_555
N3 C22 1_555 1_555
C2 N1 1_555 1_555
H8 C2 1_555 1_555
C3 C2 1_555 1_555
H9 C3 1_555 1_555
C4 C3 1_555 1_555
C5 C4 1_555 1_555
H10 C5 1_555 1_555
C6 N1 1_555 1_555
H11 C6 1_555 1_555
C7 C4 1_555 1_555
C8 C7 1_555 1_555
H12 C8 1_555 1_555
C9 C8 1_555 1_555
H13 C9 1_555 1_555
C10 N2 1_555 1_555
H14 C10 1_555 1_555
C11 C7 1_555 1_555
H15 C11 1_555 1_555
C12 N2 1_555 1_555
H16 C12 1_555 1_555
H17 C12 1_555 1_555
C13 C12 1_555 1_555
H18 C13 1_555 1_555
H19 C13 1_555 1_555
C14 C13 1_555 1_555
C15 C14 1_555 1_555
H20 C15 1_555 1_555
C16 C15 1_555 1_555
H21 C16 1_555 1_555
C17 C16 1_555 1_555
C18 C17 1_555 1_555
H22 C18 1_555 1_555
C19 C14 1_555 1_555
H23 C19 1_555 1_555
C20 C17 1_555 1_555
C21 C20 1_555 1_555
H24 C21 1_555 1_555
C22 C21 1_555 1_555
H25 C22 1_555 1_555
C23 N3 1_555 1_555
H26 C23 1_555 1_555
C24 C20 1_555 1_555
H27 C24 1_555 1_555
C25 C26 1_555 1_555
C26 H28 1_555 1_555
C27 C26 1_555 1_555
H29 C27 1_555 1_555
C28 S1 1_555 1_555
C29 C28 1_555 1_555
H30 C29 1_555 1_555
C30 C25 1_555 1_555
C31 O4 1_555 1_555
H31 C31 1_555 1_555
H32 C31 1_555 1_555
C32 C31 1_555 1_555
H33 C32 1_555 1_555
H34 C32 1_555 1_555
C33 O5 1_555 1_555
H35 C33 1_555 1_555
H36 C33 1_555 1_555
C34 C33 1_555 1_555
H37 C34 1_555 1_555
H38 C34 1_555 1_555
C35 O6 1_555 1_555
H39 C35 1_555 1_555
H40 C35 1_555 1_555
C36 C35 1_555 1_555
H41 C36 1_555 1_555
H42 C36 1_555 1_555
C37 O7 1_555 1_555
C38 C37 1_555 1_555
H43 C38 1_555 1_555
C39 C38 1_555 1_555
H44 C39 1_555 1_555
C40 S2 1_555 1_555
C41 C40 1_555 1_555
H45 C41 1_555 1_555
C42 C37 1_555 1_555
C43 O8 1_555 1_555
H46 C43 1_555 1_555
H47 C43 1_555 1_555
C44 C43 1_555 1_555
H48 C44 1_555 1_555
H49 C44 1_555 1_555
C45 O9 1_555 1_555
H50 C45 1_555 1_555
H51 C45 1_555 1_555
C46 C45 1_555 1_555
H52 C46 1_555 1_555
H53 C46 1_555 1_555
C47 O10 1_555 1_555
H54 C47 1_555 1_555
H55 C47 1_555 1_555
C48 O11 1_555 1_555
H56 C48 1_555 1_555
H57 C48 1_555 1_555
N4 O18 1_555 1_555
O19 N4 1_555 1_555
O20 N4 1_555 1_555
O21 C49 1_555 1_555
C49 H58 1_555 1_555
H59 C49 1_555 1_555
H60 C49 1_555 1_555
O22 C50 1_555 1_555
C50 H61 1_555 1_555
H62 C50 1_555 1_555
H63 C50 1_555 1_555
Zn1_2 N3 1_555 1_555
N3_2 Zn1 1_555 1_555
C5 C6 1_555 1_555
C10 C11 1_555 1_555
C18 C19 1_555 1_555
C23 C24 1_555 1_555
C27 C28 1_555 1_555
C29 C30 1_555 1_555
C39 C40 1_555 1_555
C41 C42 1_555 1_555
C47 C48 1_555 1_555

#END
