
#######################################################################
#
#                 Cambridge Crystallographic Data Centre
#                                CCDC 
#
#######################################################################
#
# If this CIF has been generated from an entry in the Cambridge 
# Structural Database, then it will include bibliographic, chemical, 
# crystal, experimental, refinement or atomic coordinate data resulting 
# from the CCDC's data processing and validation procedures.
#
#######################################################################

data_OJICAM
_symmetry_cell_setting           monoclinic
_symmetry_space_group_name_H-M   'C 2/c'
_symmetry_Int_Tables_number      15
_space_group_name_Hall           '-C 2yn'
loop_
_symmetry_equiv_pos_site_id
_symmetry_equiv_pos_as_xyz
1 x,y,z
2 -x,y,1/2-z
3 1/2+x,1/2+y,z
4 1/2-x,1/2+y,1/2-z
5 -x,-y,-z
6 x,-y,1/2+z
7 1/2-x,1/2-y,-z
8 1/2+x,1/2-y,1/2+z
_cell_length_a                   28.756(3)
_cell_length_b                   33.394(4)
_cell_length_c                   15.5720(18)
_cell_angle_alpha                90
_cell_angle_beta                 98.303(2)
_cell_angle_gamma                90
_cell_volume                     14796.7
loop_
_atom_site_label
_atom_site_type_symbol
_atom_site_fract_x
_atom_site_fract_y
_atom_site_fract_z
O2 O 0.17749(11) 0.20435(9) 0.0138(2)
O3 O 0.27655(12) 0.18070(12) 0.0657(2)
O4 O 0.31971(15) 0.18101(11) 0.2385(3)
O5 O 0.26435(17) 0.15918(11) 0.3800(3)
O6 O 0.20192(15) 0.20184(14) 0.4466(2)
O7 O 0.15283(14) 0.27870(15) 0.3897(3)
O8 O 0.14677(12) 0.31448(10) 0.2244(3)
O9 O 0.12359(10) 0.25625(9) 0.0777(2)
S1 S -0.02206(4) 0.16426(3) 0.02739(7)
O10 O -0.04749(12) 0.18598(9) -0.0446(2)
O11 O -0.03219(12) 0.17941(11) 0.1111(2)
O12 O -0.02751(12) 0.12147(9) 0.0186(2)
S2 S 0.17816(12) 0.03061(9) 0.4670(3)
O13 O 0.1589(2) 0.01983(18) 0.3754(6)
O14 O 0.1511(5) 0.0240(7) 0.5509(10)
O15 O 0.2237(3) 0.0106(3) 0.4832(8)
C24 C 0.10294(16) 0.22113(13) 0.0486(3)
C25 C 0.05572(16) 0.21106(13) 0.0514(3)
H23 H 0.0356 0.2300 0.0729
C26 C 0.03832(17) 0.17419(13) 0.0235(3)
C27 C 0.06641(18) 0.14709(15) -0.0098(3)
H24 H 0.0542 0.1218 -0.0296
C28 C 0.11304(17) 0.15671(14) -0.0146(3)
H25 H 0.1322 0.1378 -0.0386
C29 C 0.13216(16) 0.19272(13) 0.0142(3)
C30 C 0.20579(17) 0.17849(16) -0.0312(3)
H26 H 0.1932 0.1783 -0.0938
H27 H 0.2043 0.1508 -0.0089
C31 C 0.25573(18) 0.19228(16) -0.0190(3)
H28 H 0.2727 0.1798 -0.0631
H29 H 0.2571 0.2217 -0.0254
C32 C 0.32396(19) 0.1894(3) 0.0869(4)
H30 H 0.3283 0.2187 0.0945
H31 H 0.3411 0.1807 0.0395
C33 C 0.3428(2) 0.1686(3) 0.1681(5)
H32 H 0.3388 0.1394 0.1597
H33 H 0.3769 0.1742 0.1822
C34 C 0.3366(2) 0.1626(2) 0.3212(4)
H34 H 0.3457 0.1838 0.3648
H35 H 0.3650 0.1466 0.3157
C35 C 0.3004(3) 0.13571(19) 0.3530(4)
H36 H 0.2869 0.1175 0.3058
H37 H 0.3155 0.1192 0.4021
C36 C 0.2279(3) 0.13988(18) 0.4203(4)
C37 C 0.2257(3) 0.0977(2) 0.4186(5)
H38 H 0.2469 0.0809 0.3937
C38 C 0.1850(2) 0.08274(18) 0.4619(4)
C39 C 0.1580(3) 0.1075(3) 0.5065(5)
H39 H 0.1367 0.0974 0.5426
C40 C 0.1636(2) 0.1436(3) 0.4956(5)
H40 H 0.1419 0.1603 0.5192
C41 C 0.1961(3) 0.1640(3) 0.4552(4)
C42 C 0.1677(2) 0.2257(3) 0.4880(4)
H41 H 0.1353 0.2179 0.4637
H42 H 0.1722 0.2204 0.5512
C43 C 0.1748(3) 0.2687(3) 0.4723(4)
H43 H 0.1615 0.2849 0.5162
H44 H 0.2088 0.2746 0.4774
C44 C 0.1514(2) 0.3212(2) 0.3769(5)
H45 H 0.1836 0.3318 0.3779
H46 H 0.1370 0.3344 0.4235
C45 C 0.1231(2) 0.32860(19) 0.2920(4)
H47 H 0.0925 0.3149 0.2893
H48 H 0.1172 0.3577 0.2847
C46 C 0.1224(2) 0.32126(15) 0.1403(4)
H49 H 0.1454 0.3273 0.1005
H50 H 0.1019 0.3450 0.1417
C47 C 0.09295(16) 0.28596(14) 0.1057(3)
H51 H 0.0762 0.2748 0.1515
H52 H 0.0693 0.2944 0.0563
O16 O 0.05414(10) -0.04193(8) 0.01328(17)
Zn1 Zn 0.0000 -0.010287(17) 0.2500
O1 O -0.01134(9) -0.01117(8) 0.10943(16)
H1 H -0.0353 -0.0313 0.0893
H2 H 0.0182 -0.0180 0.0883
N1 N 0.05165(11) 0.03671(9) 0.2516(2)
N2 N 0.19381(13) 0.20519(11) 0.2175(2)
N3 N 0.44743(10) 0.44519(8) 0.25270(19)
C1 C 0.08105(13) 0.03839(11) 0.1928(3)
H3 H 0.0824 0.0163 0.1547
C2 C 0.10959(15) 0.07095(12) 0.1853(3)
H4 H 0.1305 0.0708 0.1434
C3 C 0.10793(14) 0.10392(11) 0.2385(3)
C4 C 0.07723(14) 0.10181(12) 0.2997(3)
H5 H 0.0749 0.1235 0.3384
C5 C 0.05038(14) 0.06824(11) 0.3037(2)
H6 H 0.0297 0.0673 0.3460
C6 C 0.13775(14) 0.13941(11) 0.2328(2)
C7 C 0.18040(16) 0.13525(13) 0.2042(3)
H7 H 0.1910 0.1096 0.1893
C8 C 0.20826(16) 0.16919(14) 0.1968(3)
H8 H 0.2378 0.1664 0.1769
C9 C 0.15290(16) 0.20992(13) 0.2480(3)
H9 H 0.1436 0.2358 0.2644
C10 C 0.12379(15) 0.17713(13) 0.2559(3)
H10 H 0.0946 0.1806 0.2769
C11 C 0.22322(17) 0.24110(13) 0.2042(3)
H11 H 0.2029 0.2627 0.1761
H12 H 0.2463 0.2340 0.1653
C12 C 0.24908(17) 0.25600(14) 0.2909(3)
H13 H 0.2260 0.2657 0.3276
H14 H 0.2670 0.2337 0.3217
C13 C 0.28208(15) 0.28930(13) 0.2766(3)
C14 C 0.32956(16) 0.28196(12) 0.2797(3)
H15 H 0.3407 0.2553 0.2878
C15 C 0.36135(15) 0.31235(12) 0.2713(3)
H16 H 0.3938 0.3063 0.2745
C16 C 0.34595(14) 0.35155(11) 0.2584(2)
C17 C 0.29828(14) 0.35926(12) 0.2515(3)
H17 H 0.2869 0.3857 0.2399
C18 C 0.26686(16) 0.32836(13) 0.2615(3)
H18 H 0.2343 0.3342 0.2578
C19 C 0.38030(12) 0.38443(11) 0.2545(2)
C20 C 0.42410(13) 0.38285(11) 0.3070(2)
H19 H 0.4317 0.3607 0.3446
C21 C 0.45571(13) 0.41282(11) 0.3044(2)
H20 H 0.4851 0.4109 0.3407
C22 C 0.40540(13) 0.44682(11) 0.2015(2)
H21 H 0.3987 0.4690 0.1636
C23 C 0.37171(13) 0.41728(11) 0.2023(2)
H22 H 0.3423 0.4199 0.1662
Zn1B Zn 0.5000 0.489713(17) 0.2500
Zn1B_2 Zn -0.5000 0.489713(17) 0.2500
O1A O 0.01134(9) -0.01117(8) 0.39057(16)
H1A H 0.0353 -0.0313 0.4107
H2A H -0.0182 -0.0180 0.4117
N1A N -0.05165(11) 0.03671(9) 0.2484(2)
N2A N -0.19381(13) 0.20519(11) 0.2825(2)
N3A N -0.44743(10) 0.44519(8) 0.24730(19)
N3B N -0.05257(10) -0.05481(8) 0.25270(19)
N3C N 0.05257(10) -0.05481(8) 0.24730(19)
C1A C -0.08105(13) 0.03839(11) 0.3072(3)
H3A H -0.0824 0.0163 0.3453
C2A C -0.10959(15) 0.07095(12) 0.3147(3)
H4A H -0.1305 0.0708 0.3566
C3A C -0.10793(14) 0.10392(11) 0.2615(3)
C4A C -0.07723(14) 0.10181(12) 0.2003(3)
H5A H -0.0749 0.1235 0.1616
C5A C -0.05038(14) 0.06824(11) 0.1963(2)
H6A H -0.0297 0.0673 0.1540
C6A C -0.13775(14) 0.13941(11) 0.2672(2)
C7A C -0.18040(16) 0.13525(13) 0.2958(3)
H7A H -0.1910 0.1096 0.3107
C8A C -0.20826(16) 0.16919(14) 0.3032(3)
H8A H -0.2378 0.1664 0.3231
C9A C -0.15290(16) 0.20992(13) 0.2520(3)
H9A H -0.1436 0.2358 0.2356
C10A C -0.12379(15) 0.17713(13) 0.2441(3)
H10A H -0.0946 0.1806 0.2231
C11A C -0.22322(17) 0.24110(13) 0.2958(3)
H11A H -0.2029 0.2627 0.3239
H12A H -0.2463 0.2340 0.3347
C12A C -0.24908(17) 0.25600(14) 0.2091(3)
H13A H -0.2260 0.2657 0.1724
H14A H -0.2670 0.2337 0.1783
C13A C -0.28208(15) 0.28930(13) 0.2234(3)
C14A C -0.32956(16) 0.28196(12) 0.2203(3)
H15A H -0.3407 0.2553 0.2122
C15A C -0.36135(15) 0.31235(12) 0.2287(3)
H16A H -0.3938 0.3063 0.2255
C16A C -0.34595(14) 0.35155(11) 0.2416(2)
C17A C -0.29828(14) 0.35926(12) 0.2485(3)
H17A H -0.2869 0.3857 0.2601
C18A C -0.26686(16) 0.32836(13) 0.2385(3)
H18A H -0.2343 0.3342 0.2422
C19A C -0.38030(12) 0.38443(11) 0.2455(2)
C20A C -0.42410(13) 0.38285(11) 0.1930(2)
H19A H -0.4317 0.3607 0.1554
C21A C -0.45571(13) 0.41282(11) 0.1956(2)
H20A H -0.4851 0.4109 0.1593
C22A C -0.40540(13) 0.44682(11) 0.2985(2)
H21A H -0.3987 0.4690 0.3364
C23A C -0.37171(13) 0.41728(11) 0.2977(2)
H22A H -0.3423 0.4199 0.3338
O17? O 0.2098(2) 0.01604(14) 0.3991(3)
O18? O 0.1425(5) 0.0184(7) 0.5162(12)
O19? O 0.2282(6) 0.0168(7) 0.5324(13)
S3? S 0.1853(5) 0.0247(4) 0.4695(9)
loop_
_geom_bond_atom_site_label_1
_geom_bond_atom_site_label_2
_geom_bond_site_symmetry_1
_geom_bond_site_symmetry_2
Zn1 O1 1_555 1_555
O1 H1 1_555 1_555
H2 O1 1_555 1_555
N1 Zn1 1_555 1_555
N2 C8 1_555 1_555
N3 C21 1_555 1_555
C1 N1 1_555 1_555
H3 C1 1_555 1_555
C2 C1 1_555 1_555
H4 C2 1_555 1_555
C3 C2 1_555 1_555
C4 C3 1_555 1_555
H5 C4 1_555 1_555
C5 N1 1_555 1_555
H6 C5 1_555 1_555
C6 C3 1_555 1_555
C7 C6 1_555 1_555
H7 C7 1_555 1_555
C8 C7 1_555 1_555
H8 C8 1_555 1_555
C9 N2 1_555 1_555
H9 C9 1_555 1_555
C10 C6 1_555 1_555
H10 C10 1_555 1_555
C11 N2 1_555 1_555
H11 C11 1_555 1_555
H12 C11 1_555 1_555
C12 C11 1_555 1_555
H13 C12 1_555 1_555
H14 C12 1_555 1_555
C13 C12 1_555 1_555
C14 C13 1_555 1_555
H15 C14 1_555 1_555
C15 C14 1_555 1_555
H16 C15 1_555 1_555
C16 C15 1_555 1_555
C17 C16 1_555 1_555
H17 C17 1_555 1_555
C18 C13 1_555 1_555
H18 C18 1_555 1_555
C19 C16 1_555 1_555
C20 C19 1_555 1_555
H19 C20 1_555 1_555
C21 C20 1_555 1_555
H20 C21 1_555 1_555
C22 N3 1_555 1_555
H21 C22 1_555 1_555
C23 C19 1_555 1_555
H22 C23 1_555 1_555
O2 C29 1_555 1_555
O3 C31 1_555 1_555
O4 C33 1_555 1_555
O5 C35 1_555 1_555
O6 C41 1_555 1_555
O7 C43 1_555 1_555
O8 C45 1_555 1_555
O9 C24 1_555 1_555
S1 O10 1_555 1_555
O11 S1 1_555 1_555
O12 S1 1_555 1_555
S2 O13 1_555 1_555
O14 S2 1_555 1_555
O15 S2 1_555 1_555
C24 C25 1_555 1_555
C25 H23 1_555 1_555
C26 S1 1_555 1_555
C27 C26 1_555 1_555
H24 C27 1_555 1_555
C28 C27 1_555 1_555
H25 C28 1_555 1_555
C29 C24 1_555 1_555
C30 O2 1_555 1_555
H26 C30 1_555 1_555
H27 C30 1_555 1_555
C31 C30 1_555 1_555
H28 C31 1_555 1_555
H29 C31 1_555 1_555
C32 O3 1_555 1_555
H30 C32 1_555 1_555
H31 C32 1_555 1_555
C33 C32 1_555 1_555
H32 C33 1_555 1_555
H33 C33 1_555 1_555
C34 O4 1_555 1_555
H34 C34 1_555 1_555
H35 C34 1_555 1_555
C35 C34 1_555 1_555
H36 C35 1_555 1_555
H37 C35 1_555 1_555
C36 O5 1_555 1_555
C37 C36 1_555 1_555
H38 C37 1_555 1_555
C38 S2 1_555 1_555
C39 C38 1_555 1_555
H39 C39 1_555 1_555
C40 C39 1_555 1_555
H40 C40 1_555 1_555
C41 C36 1_555 1_555
C42 O6 1_555 1_555
H41 C42 1_555 1_555
H42 C42 1_555 1_555
C43 C42 1_555 1_555
H43 C43 1_555 1_555
H44 C43 1_555 1_555
C44 O7 1_555 1_555
H45 C44 1_555 1_555
H46 C44 1_555 1_555
C45 C44 1_555 1_555
H47 C45 1_555 1_555
H48 C45 1_555 1_555
C46 O8 1_555 1_555
H49 C46 1_555 1_555
H50 C46 1_555 1_555
C47 O9 1_555 1_555
H51 C47 1_555 1_555
H52 C47 1_555 1_555
Zn1B N3 1_555 1_555
Zn1B_2 N3A 1_555 1_555
O1A Zn1 1_555 1_555
H1A O1A 1_555 1_555
H2A O1A 1_555 1_555
N1A Zn1 1_555 1_555
N2A C8A 1_555 1_555
N3A C21A 1_555 1_555
N3B Zn1 1_555 1_555
N3C Zn1 1_555 1_555
C1A N1A 1_555 1_555
H3A C1A 1_555 1_555
C2A C1A 1_555 1_555
H4A C2A 1_555 1_555
C3A C2A 1_555 1_555
C4A C3A 1_555 1_555
H5A C4A 1_555 1_555
C5A N1A 1_555 1_555
H6A C5A 1_555 1_555
C6A C3A 1_555 1_555
C7A C6A 1_555 1_555
H7A C7A 1_555 1_555
C8A C7A 1_555 1_555
H8A C8A 1_555 1_555
C9A N2A 1_555 1_555
H9A C9A 1_555 1_555
C10A C6A 1_555 1_555
H10A C10A 1_555 1_555
C11A N2A 1_555 1_555
H11A C11A 1_555 1_555
H12A C11A 1_555 1_555
C12A C11A 1_555 1_555
H13A C12A 1_555 1_555
H14A C12A 1_555 1_555
C13A C12A 1_555 1_555
C14A C13A 1_555 1_555
H15A C14A 1_555 1_555
C15A C14A 1_555 1_555
H16A C15A 1_555 1_555
C16A C15A 1_555 1_555
C17A C16A 1_555 1_555
H17A C17A 1_555 1_555
C18A C13A 1_555 1_555
H18A C18A 1_555 1_555
C19A C16A 1_555 1_555
C20A C19A 1_555 1_555
H19A C20A 1_555 1_555
C21A C20A 1_555 1_555
H20A C21A 1_555 1_555
C22A N3A 1_555 1_555
H21A C22A 1_555 1_555
C23A C19A 1_555 1_555
H22A C23A 1_555 1_555
C4 C5 1_555 1_555
C9 C10 1_555 1_555
C17 C18 1_555 1_555
C22 C23 1_555 1_555
C25 C26 1_555 1_555
C28 C29 1_555 1_555
C37 C38 1_555 1_555
C40 C41 1_555 1_555
C46 C47 1_555 1_555
C4A C5A 1_555 1_555
C9A C10A 1_555 1_555
C17A C18A 1_555 1_555
C22A C23A 1_555 1_555

#END
