
#######################################################################
#
#                 Cambridge Crystallographic Data Centre
#                                CCDC 
#
#######################################################################
#
# If this CIF has been generated from an entry in the Cambridge 
# Structural Database, then it will include bibliographic, chemical, 
# crystal, experimental, refinement or atomic coordinate data resulting 
# from the CCDC's data processing and validation procedures.
#
#######################################################################

data_OJICEQ
_symmetry_cell_setting           orthorhombic
_symmetry_space_group_name_H-M   'C m c 21'
_symmetry_Int_Tables_number      36
_space_group_name_Hall           'C 2n -2'
loop_
_symmetry_equiv_pos_site_id
_symmetry_equiv_pos_as_xyz
1 x,y,z
2 -x,-y,1/2+z
3 x,-y,1/2+z
4 -x,y,z
5 1/2+x,1/2+y,z
6 1/2-x,1/2-y,1/2+z
7 1/2+x,1/2-y,1/2+z
8 1/2-x,1/2+y,z
_cell_length_a                   35.882(6)
_cell_length_b                   24.607(4)
_cell_length_c                   21.956(4)
_cell_angle_alpha                90
_cell_angle_beta                 90
_cell_angle_gamma                90
_cell_volume                     19386
loop_
_atom_site_label
_atom_site_type_symbol
_atom_site_fract_x
_atom_site_fract_y
_atom_site_fract_z
S3 S 1.63533(17) 0.3249(3) 0.0068(4)
S4 S 1.63077(16) 0.3171(3) -0.5196(4)
O11 O 1.7533(3) 0.1960(3) -0.1088(6)
O12 O 1.7823(3) 0.1268(4) -0.2056(3)
O13 O 1.7471(3) 0.1313(4) -0.3325(3)
O14 O 1.7478(4) 0.2250(4) -0.4173(6)
O15 O 1.7784(3) 0.3204(4) -0.4039(6)
O16 O 1.8254(2) 0.3591(7) -0.3047(3)
O17 O 1.8155(3) 0.3597(7) -0.1791(4)
O18 O 1.7684(3) 0.2982(4) -0.1016(6)
O19 O 1.6514(4) 0.3707(6) 0.0358(9)
O20 O 1.6199(5) 0.2845(8) 0.0447(7)
O21 O 1.6105(3) 0.3403(4) -0.0442(5)
O22 O 1.6039(3) 0.3273(5) -0.4733(6)
O23 O 1.6320(4) 0.3574(5) -0.5638(6)
O24 O 1.6263(4) 0.2631(5) -0.5440(7)
C26 C 1.7341(3) 0.2799(4) -0.0720(6)
C27 C 1.7066(4) 0.3127(3) -0.0469(6)
H33 H 1.7103 0.3509 -0.0441
C28 C 1.6736(3) 0.2898(6) -0.0258(5)
C29 C 1.6681(2) 0.2339(6) -0.0299(5)
H34 H 1.6456 0.2182 -0.0156
C30 C 1.6957(3) 0.2011(4) -0.0551(5)
H35 H 1.6919 0.1630 -0.0579
C31 C 1.7286(3) 0.2241(4) -0.0761(5)
C32 C 1.7509(3) 0.1385(3) -0.1109(5)
H36 H 1.7282 0.1274 -0.1335
H37 H 1.7492 0.1237 -0.0691
C33 C 1.7848(3) 0.1163(5) -0.1421(3)
H38 H 1.8075 0.1337 -0.1253
H39 H 1.7867 0.0767 -0.1350
C34 C 1.7606(4) 0.0882(5) -0.2380(3)
H40 H 1.7337 0.0959 -0.2320
H41 H 1.7658 0.0512 -0.2225
C35 C 1.7700(4) 0.0915(5) -0.3044(3)
H42 H 1.7966 0.1013 -0.3094
H43 H 1.7659 0.0557 -0.3239
C36 C 1.7482(5) 0.1300(4) -0.3972(3)
H44 H 1.7375 0.0953 -0.4121
H45 H 1.7743 0.1324 -0.4115
C37 C 1.7261(3) 0.1769(3) -0.4218(4)
H46 H 1.7195 0.1700 -0.4648
H47 H 1.7028 0.1811 -0.3982
C38 C 1.7265(2) 0.2720(3) -0.4415(5)
C39 C 1.6919(2) 0.2732(3) -0.4700(5)
H48 H 1.6790 0.2403 -0.4781
C40 C 1.6762(2) 0.3227(5) -0.4868(5)
C41 C 1.6951(3) 0.3709(3) -0.4750(5)
H49 H 1.6843 0.4046 -0.4864
C42 C 1.7296(3) 0.3696(3) -0.4464(5)
H50 H 1.7425 0.4026 -0.4384
C43 C 1.7453(2) 0.3202(4) -0.4297(5)
C44 C 1.8012(3) 0.3677(4) -0.4052(5)
H51 H 1.7871 0.3991 -0.3889
H52 H 1.8084 0.3760 -0.4477
C45 C 1.8353(2) 0.3580(7) -0.3673(3)
H53 H 1.8463 0.3223 -0.3777
H54 H 1.8541 0.3865 -0.3758
C46 C 1.8563(3) 0.3580(9) -0.2645(3)
H55 H 1.8779 0.3761 -0.2837
H56 H 1.8633 0.3199 -0.2556
C47 C 1.8462(5) 0.3866(8) -0.2066(3)
H57 H 1.8677 0.3866 -0.1784
H58 H 1.8395 0.4249 -0.2154
C48 C 1.8116(3) 0.3704(7) -0.1159(3)
H59 H 1.8161 0.4095 -0.1078
H60 H 1.8302 0.3491 -0.0926
C49 C 1.7730(3) 0.3552(4) -0.0960(5)
H61 H 1.7691 0.3664 -0.0531
H62 H 1.7544 0.3743 -0.1216
Zn1 Zn 1.5000 0.52140(6) 0.7431(2)
Zn2 Zn 1.57329(3) 0.50051(13) 0.9950(3)
S1 S 1.5000 0.5054(3) 0.9063(4)
S2 S 1.5000 0.5084(2) 0.5846(3)
O1 O 1.5000 0.5231(5) 0.8393(6)
O2 O 1.5363(3) 0.5315(5) 0.9347(5)
O3 O 1.5000 0.4467(6) 0.9098(6)
O4 O 1.4684(2) 0.5298(3) 0.5550(4)
O5 O 1.5000 0.4526(4) 0.5783(5)
O6 O 1.5000 0.5267(5) 0.6452(6)
O7 O 1.6152(3) 0.4661(6) 1.0551(5)
H1 H 1.6289 0.4465 1.0322
C1 C 1.6439(6) 0.4984(10) 1.0822(13)
H2 H 1.6605 0.4750 1.1061
H3 H 1.6326 0.5257 1.1090
H4 H 1.6582 0.5166 1.0502
O8 O 1.6168(3) 0.5282(6) 0.9450(6)
H5 H 1.6070 0.5520 0.9219
C2 C 1.6326(8) 0.5035(11) 0.8920(8)
H6 H 1.6503 0.5288 0.8730
H7 H 1.6128 0.4947 0.8630
H8 H 1.6457 0.4702 0.9037
O9 O 1.5713(3) 0.4243(5) 0.9427(5)
H9 H 1.5452 0.4176 0.9315
H10 H 1.5804 0.3944 0.9681
O10 O 1.5710(2) 0.5675(4) 1.0438(5)
H11 H 1.5959 0.5841 1.0441
H12 H 1.5637 0.5583 1.0856
N1 N 1.5429(2) 0.5822(3) 0.7477(8)
C3 C 1.5566(5) 0.6050(8) 0.7950(8)
H13 H 1.5449 0.5971 0.8328
C4 C 1.5857(6) 0.6387(9) 0.7966(8)
H14 H 1.5928 0.6550 0.8341
C5 C 1.6063(3) 0.6504(4) 0.7435(10)
C6 C 1.5930(6) 0.6304(7) 0.6893(9)
H15 H 1.6040 0.6410 0.6517
C7 C 1.5634(6) 0.5945(8) 0.6904(10)
H16 H 1.5560 0.5772 0.6537
C8 C 1.6414(3) 0.6842(5) 0.7401(10)
C9 C 1.6570(4) 0.7057(6) 0.8004(6)
H17 H 1.6448 0.6995 0.8383
C10 C 1.6894(5) 0.7342(8) 0.7964(11)
H18 H 1.7008 0.7462 0.8330
N2 N 1.7054(3) 0.7457(4) 0.7458(10)
C11 C 1.6878(7) 0.7268(9) 0.6885(11)
H19 H 1.6986 0.7347 0.6500
C12 C 1.6557(7) 0.6980(9) 0.6928(13)
H20 H 1.6436 0.6879 0.6559
C13 C 1.7399(3) 0.7748(5) 0.7401(9)
H21 H 1.7430 0.7991 0.7757
H22 H 1.7391 0.7977 0.7030
C14 C 1.7744(4) 0.7347(5) 0.7361(9)
H23 H 1.7740 0.7087 0.7704
H24 H 1.7738 0.7140 0.6974
C15 C 1.8100(3) 0.7709(5) 0.7390(10)
C16 C 1.8298(5) 0.7830(7) 0.7980(8)
H25 H 1.8217 0.7679 0.8356
C17 C 1.8584(5) 0.8151(7) 0.7947(10)
H26 H 1.8717 0.8211 0.8315
C18 C 1.8711(3) 0.8406(4) 0.7456(10)
C19 C 1.8540(3) 0.8247(6) 0.6903(6)
H27 H 1.8634 0.8381 0.6528
C20 C 1.8234(5) 0.7898(7) 0.6904(9)
H28 H 1.8124 0.7798 0.6526
C21 C 1.9008(3) 0.8837(5) 0.7473(9)
C22 C 1.9265(5) 0.8826(7) 0.7861(10)
H29 H 1.9275 0.8542 0.8153
C23 C 1.9538(3) 0.9237(6) 0.7861(6)
H30 H 1.9702 0.9251 0.8200
N3 N 1.95829(19) 0.9602(3) 0.7428(7)
C24 C 1.9328(5) 0.9550(7) 0.6976(7)
H31 H 1.9335 0.9796 0.6642
C25 C 1.9061(5) 0.9157(7) 0.6988(8)
H32 H 1.8908 0.9108 0.6639
Zn1D Zn 2.0000 1.02140(6) 0.7431(2)
Zn1D_2 Zn 1.0000 0.02140(6) 0.7431(2)
Zn2C Zn 1.42671(3) 0.50051(13) 0.9950(3)
Zn2A Zn 1.42671(3) 0.49949(13) 0.4950(3)
Zn2B Zn 1.57329(3) 0.49949(13) 0.4950(3)
O2C O 1.4637(3) 0.5315(5) 0.9347(5)
O4C O 1.5316(2) 0.5298(3) 0.5550(4)
O4A O 1.5316(2) 0.4702(3) 1.0550(4)
O4B O 1.4684(2) 0.4702(3) 1.0550(4)
O7C O 1.3848(3) 0.4661(6) 1.0551(5)
H1C H 1.3711 0.4465 1.0322
C1C C 1.3561(6) 0.4984(10) 1.0822(13)
H2C H 1.3395 0.4750 1.1061
H3C H 1.3674 0.5257 1.1090
H4C H 1.3418 0.5166 1.0502
O8C O 1.3832(3) 0.5282(6) 0.9450(6)
H5C H 1.3930 0.5520 0.9219
C2C C 1.3674(8) 0.5035(11) 0.8920(8)
H6C H 1.3497 0.5288 0.8730
H7C H 1.3872 0.4947 0.8630
H8C H 1.3543 0.4702 0.9037
O9C O 1.4287(3) 0.4243(5) 0.9427(5)
H9C H 1.4548 0.4176 0.9315
H10C H 1.4196 0.3944 0.9681
O10C O 1.4290(2) 0.5675(4) 1.0438(5)
H11C H 1.4041 0.5841 1.0441
H12C H 1.4363 0.5583 1.0856
N1D N 1.0429(2) 0.0822(3) 0.7477(8)
N1C N 1.4571(2) 0.5822(3) 0.7477(8)
C3D C 1.0566(5) 0.1050(8) 0.7950(8)
H13D H 1.0449 0.0971 0.8328
C4D C 1.0857(6) 0.1387(9) 0.7966(8)
H14D H 1.0928 0.1550 0.8341
C5D C 1.1063(3) 0.1504(4) 0.7435(10)
C6D C 1.0930(6) 0.1304(7) 0.6893(9)
H15D H 1.1040 0.1410 0.6517
C7D C 1.0634(6) 0.0945(8) 0.6904(10)
H16D H 1.0560 0.0772 0.6537
C8D C 1.1414(3) 0.1842(5) 0.7401(10)
C9D C 1.1570(4) 0.2057(6) 0.8004(6)
H17D H 1.1448 0.1995 0.8383
C10D C 1.1894(5) 0.2342(8) 0.7964(11)
H18D H 1.2008 0.2462 0.8330
N2D N 1.2054(3) 0.2457(4) 0.7458(10)
C11D C 1.1878(7) 0.2268(9) 0.6885(11)
H19D H 1.1986 0.2347 0.6500
C12D C 1.1557(7) 0.1980(9) 0.6928(13)
H20D H 1.1436 0.1879 0.6559
C13D C 1.2399(3) 0.2748(5) 0.7401(9)
H21D H 1.2430 0.2991 0.7757
H22D H 1.2391 0.2977 0.7030
C14D C 1.2744(4) 0.2347(5) 0.7361(9)
H23D H 1.2740 0.2087 0.7704
H24D H 1.2738 0.2140 0.6974
C15D C 1.3100(3) 0.2709(5) 0.7390(10)
C16D C 1.3298(5) 0.2830(7) 0.7980(8)
H25D H 1.3217 0.2679 0.8356
C17D C 1.3584(5) 0.3151(7) 0.7947(10)
H26D H 1.3717 0.3211 0.8315
C18D C 1.3711(3) 0.3406(4) 0.7456(10)
C19D C 1.3540(3) 0.3247(6) 0.6903(6)
H27D H 1.3634 0.3381 0.6528
C20D C 1.3234(5) 0.2898(7) 0.6904(9)
H28D H 1.3124 0.2798 0.6526
C21D C 1.4008(3) 0.3837(5) 0.7473(9)
C22D C 1.4265(5) 0.3826(7) 0.7861(10)
H29D H 1.4275 0.3542 0.8153
C23D C 1.4538(3) 0.4237(6) 0.7861(6)
H30D H 1.4702 0.4251 0.8200
N3D N 1.45829(19) 0.4602(3) 0.7428(7)
N3G N 1.54171(19) 0.4602(3) 0.7428(7)
C24D C 1.4328(5) 0.4550(7) 0.6976(7)
H31D H 1.4335 0.4796 0.6642
C25D C 1.4061(5) 0.4157(7) 0.6988(8)
H32D H 1.3908 0.4108 0.6639
loop_
_geom_bond_atom_site_label_1
_geom_bond_atom_site_label_2
_geom_bond_site_symmetry_1
_geom_bond_site_symmetry_2
Zn1 O1 1_555 1_555
Zn2 O2 1_555 1_555
S1 O1 1_555 1_555
S2 O4 1_555 1_555
O2 S1 1_555 1_555
O3 S1 1_555 1_555
O4 Zn2A 1_555 1_555
O5 S2 1_555 1_555
O6 Zn1 1_555 1_555
O7 Zn2 1_555 1_555
H1 O7 1_555 1_555
C1 O7 1_555 1_555
H2 C1 1_555 1_555
H3 C1 1_555 1_555
H4 C1 1_555 1_555
O8 Zn2 1_555 1_555
H5 O8 1_555 1_555
C2 O8 1_555 1_555
H6 C2 1_555 1_555
H7 C2 1_555 1_555
H8 C2 1_555 1_555
O9 Zn2 1_555 1_555
H9 O9 1_555 1_555
H10 O9 1_555 1_555
O10 Zn2 1_555 1_555
H11 O10 1_555 1_555
H12 O10 1_555 1_555
N1 Zn1 1_555 1_555
C3 N1 1_555 1_555
H13 C3 1_555 1_555
C4 C3 1_555 1_555
H14 C4 1_555 1_555
C5 C4 1_555 1_555
C6 C5 1_555 1_555
H15 C6 1_555 1_555
C7 N1 1_555 1_555
H16 C7 1_555 1_555
C8 C5 1_555 1_555
C9 C8 1_555 1_555
H17 C9 1_555 1_555
C10 C9 1_555 1_555
H18 C10 1_555 1_555
N2 C10 1_555 1_555
C11 N2 1_555 1_555
H19 C11 1_555 1_555
C12 C8 1_555 1_555
H20 C12 1_555 1_555
C13 N2 1_555 1_555
H21 C13 1_555 1_555
H22 C13 1_555 1_555
C14 C13 1_555 1_555
H23 C14 1_555 1_555
H24 C14 1_555 1_555
C15 C14 1_555 1_555
C16 C15 1_555 1_555
H25 C16 1_555 1_555
C17 C16 1_555 1_555
H26 C17 1_555 1_555
C18 C17 1_555 1_555
C19 C18 1_555 1_555
H27 C19 1_555 1_555
C20 C15 1_555 1_555
H28 C20 1_555 1_555
C21 C18 1_555 1_555
C22 C21 1_555 1_555
H29 C22 1_555 1_555
C23 C22 1_555 1_555
H30 C23 1_555 1_555
N3 C23 1_555 1_555
C24 N3 1_555 1_555
H31 C24 1_555 1_555
C25 C21 1_555 1_555
H32 C25 1_555 1_555
S3 O19 1_555 1_555
S4 O22 1_555 1_555
O11 C31 1_555 1_555
O12 C33 1_555 1_555
O13 C35 1_555 1_555
O14 C37 1_555 1_555
O15 C43 1_555 1_555
O16 C45 1_555 1_555
O17 C47 1_555 1_555
O18 C26 1_555 1_555
O20 S3 1_555 1_555
O21 S3 1_555 1_555
O23 S4 1_555 1_555
O24 S4 1_555 1_555
C26 C27 1_555 1_555
C27 H33 1_555 1_555
C28 S3 1_555 1_555
C29 C28 1_555 1_555
H34 C29 1_555 1_555
C30 C29 1_555 1_555
H35 C30 1_555 1_555
C31 C26 1_555 1_555
C32 O11 1_555 1_555
H36 C32 1_555 1_555
H37 C32 1_555 1_555
C33 C32 1_555 1_555
H38 C33 1_555 1_555
H39 C33 1_555 1_555
C34 O12 1_555 1_555
H40 C34 1_555 1_555
H41 C34 1_555 1_555
C35 C34 1_555 1_555
H42 C35 1_555 1_555
H43 C35 1_555 1_555
C36 O13 1_555 1_555
H44 C36 1_555 1_555
H45 C36 1_555 1_555
C37 C36 1_555 1_555
H46 C37 1_555 1_555
H47 C37 1_555 1_555
C38 O14 1_555 1_555
C39 C38 1_555 1_555
H48 C39 1_555 1_555
C40 S4 1_555 1_555
C41 C40 1_555 1_555
H49 C41 1_555 1_555
C42 C41 1_555 1_555
H50 C42 1_555 1_555
C43 C38 1_555 1_555
C44 O15 1_555 1_555
H51 C44 1_555 1_555
H52 C44 1_555 1_555
C45 C44 1_555 1_555
H53 C45 1_555 1_555
H54 C45 1_555 1_555
C46 O16 1_555 1_555
H55 C46 1_555 1_555
H56 C46 1_555 1_555
C47 C46 1_555 1_555
H57 C47 1_555 1_555
H58 C47 1_555 1_555
C48 O17 1_555 1_555
H59 C48 1_555 1_555
H60 C48 1_555 1_555
C49 O18 1_555 1_555
H61 C49 1_555 1_555
H62 C49 1_555 1_555
Zn1D N3 1_555 1_555
Zn1D_2 N1D 1_555 1_555
Zn2C O2C 1_555 1_555
Zn2B O4C 1_555 1_555
O2C S1 1_555 1_555
O4C S2 1_555 1_555
O4A Zn2 1_555 1_555
O4B Zn2C 1_555 1_555
O7C Zn2C 1_555 1_555
H1C O7C 1_555 1_555
C1C O7C 1_555 1_555
H2C C1C 1_555 1_555
H3C C1C 1_555 1_555
H4C C1C 1_555 1_555
O8C Zn2C 1_555 1_555
H5C O8C 1_555 1_555
C2C O8C 1_555 1_555
H6C C2C 1_555 1_555
H7C C2C 1_555 1_555
H8C C2C 1_555 1_555
O9C Zn2C 1_555 1_555
H9C O9C 1_555 1_555
H10C O9C 1_555 1_555
O10C Zn2C 1_555 1_555
H11C O10C 1_555 1_555
H12C O10C 1_555 1_555
N1D C3D 1_555 1_555
N1C Zn1 1_555 1_555
C3D H13D 1_555 1_555
C4D C3D 1_555 1_555
H14D C4D 1_555 1_555
C5D C4D 1_555 1_555
C6D C5D 1_555 1_555
H15D C6D 1_555 1_555
C7D N1D 1_555 1_555
H16D C7D 1_555 1_555
C8D C5D 1_555 1_555
C9D C8D 1_555 1_555
H17D C9D 1_555 1_555
C10D C9D 1_555 1_555
H18D C10D 1_555 1_555
N2D C10D 1_555 1_555
C11D N2D 1_555 1_555
H19D C11D 1_555 1_555
C12D C8D 1_555 1_555
H20D C12D 1_555 1_555
C13D N2D 1_555 1_555
H21D C13D 1_555 1_555
H22D C13D 1_555 1_555
C14D C13D 1_555 1_555
H23D C14D 1_555 1_555
H24D C14D 1_555 1_555
C15D C14D 1_555 1_555
C16D C15D 1_555 1_555
H25D C16D 1_555 1_555
C17D C16D 1_555 1_555
H26D C17D 1_555 1_555
C18D C17D 1_555 1_555
C19D C18D 1_555 1_555
H27D C19D 1_555 1_555
C20D C15D 1_555 1_555
H28D C20D 1_555 1_555
C21D C18D 1_555 1_555
C22D C21D 1_555 1_555
H29D C22D 1_555 1_555
C23D C22D 1_555 1_555
H30D C23D 1_555 1_555
N3D Zn1 1_555 1_555
N3G Zn1 1_555 1_555
C24D N3D 1_555 1_555
H31D C24D 1_555 1_555
C25D C21D 1_555 1_555
H32D C25D 1_555 1_555
S2 O6 1_555 1_555
C6 C7 1_555 1_555
C11 C12 1_555 1_555
C19 C20 1_555 1_555
C24 C25 1_555 1_555
C27 C28 1_555 1_555
C30 C31 1_555 1_555
C39 C40 1_555 1_555
C42 C43 1_555 1_555
C48 C49 1_555 1_555
C6D C7D 1_555 1_555
C11D C12D 1_555 1_555
C19D C20D 1_555 1_555
C23D N3D 1_555 1_555
C24D C25D 1_555 1_555

#END
