
#######################################################################
#
#                 Cambridge Crystallographic Data Centre
#                                CCDC 
#
#######################################################################
#
# If this CIF has been generated from an entry in the Cambridge 
# Structural Database, then it will include bibliographic, chemical, 
# crystal, experimental, refinement or atomic coordinate data resulting 
# from the CCDC's data processing and validation procedures.
#
#######################################################################

data_OJOBIY02
_symmetry_cell_setting           orthorhombic
_symmetry_space_group_name_H-M   'I m m 2'
_symmetry_Int_Tables_number      44
_space_group_name_Hall           'I 2 -2'
loop_
_symmetry_equiv_pos_site_id
_symmetry_equiv_pos_as_xyz
1 x,y,z
2 -x,-y,z
3 x,-y,z
4 -x,y,z
5 1/2+x,1/2+y,1/2+z
6 1/2-x,1/2-y,1/2+z
7 1/2+x,1/2-y,1/2+z
8 1/2-x,1/2+y,1/2+z
_cell_length_a                   7.1040(10)
_cell_length_b                   15.982(3)
_cell_length_c                   7.7020(10)
_cell_angle_alpha                90
_cell_angle_beta                 90
_cell_angle_gamma                90
_cell_volume                     874.455
loop_
_atom_site_label
_atom_site_type_symbol
_atom_site_fract_x
_atom_site_fract_y
_atom_site_fract_z
Mn1 Mn 0.5000 0.69596(3) 0.50509(13)
O1 O 0.7217(3) 0.63803(12) 0.6390(4)
O2 O 0.8144(3) 0.73485(13) 0.8385(4)
C1 C 0.8335(3) 0.66752(17) 0.7464(4)
C2 C 1.0000 0.6180(2) 0.7714(7)
H1 H 1.0000 0.5949 0.8879
H2 H 1.0000 0.5717 0.6897
O3 O 0.5000 0.79460(19) 0.7284(5)
H3 H 0.593(7) 0.777(3) 0.796(8)
N1 N 0.5000 0.57710(18) 0.3130(5)
C3 C 0.5000 0.5000 0.4302(8)
H4 H 0.610(6) 0.5000 0.507(9)
C4 C 0.6567(4) 0.57436(17) 0.1893(5)
H5 H 0.7737 0.5748 0.2542
H6 H 0.6533 0.6249 0.1197
N2 N 0.6583(5) 0.5000 0.0688(5)
C5 C 0.5000 0.5000 -0.0461(8)
H7 H 0.5000 0.543(3) -0.109(10)
Mn1_2 Mn 1.5000 0.69596(3) 0.50509(13)
Mn1E Mn 1.0000 0.80404(3) 1.00509(13)
Mn1A Mn 0.5000 0.30404(3) 0.50509(13)
Mn1E_2 Mn 0.0000 0.80404(3) 1.00509(13)
Mn1_3 Mn -0.5000 0.69596(3) 0.50509(13)
O1C O 1.2783(3) 0.63803(12) 0.6390(4)
O1C_2 O 0.2783(3) 0.63803(12) 0.6390(4)
O1_2 O -0.2783(3) 0.63803(12) 0.6390(4)
O1_3 O 1.7217(3) 0.63803(12) 0.6390(4)
O2C O 1.1856(3) 0.73485(13) 0.8385(4)
O2C_2 O 0.1856(3) 0.73485(13) 0.8385(4)
O2_2 O -0.1856(3) 0.73485(13) 0.8385(4)
O2E O 0.6856(3) 0.76515(13) 0.3385(4)
O2F O 0.3144(3) 0.76515(13) 0.3385(4)
O2E_2 O 1.6856(3) 0.76515(13) 0.3385(4)
O2F_2 O 1.3144(3) 0.76515(13) 0.3385(4)
C1C C 1.1665(3) 0.66752(17) 0.7464(4)
C1C_2 C 0.1665(3) 0.66752(17) 0.7464(4)
C1_2 C -0.1665(3) 0.66752(17) 0.7464(4)
C2_2 C 0.0000 0.6180(2) 0.7714(7)
H1_2 H 0.0000 0.5949 0.8879
H2_2 H 0.0000 0.5717 0.6897
O3_2 O 1.5000 0.79460(19) 0.7284(5)
H3C H 0.407(7) 0.777(3) 0.796(8)
H3C_2 H 1.407(7) 0.777(3) 0.796(8)
H3_2 H 1.593(7) 0.777(3) 0.796(8)
N1A N 0.5000 0.42290(18) 0.3130(5)
N1_2 N 1.5000 0.57710(18) 0.3130(5)
H4A H 0.390(6) 0.5000 0.507(9)
C4A C 0.3433(4) 0.42564(17) 0.1893(5)
C4C C 0.3433(4) 0.57436(17) 0.1893(5)
C4B C 0.6567(4) 0.42564(17) 0.1893(5)
H5A H 0.2263 0.4252 0.2542
H5B H 0.7737 0.4252 0.2542
H5C H 0.2263 0.5748 0.2542
H6A H 0.3467 0.3751 0.1197
H6B H 0.6533 0.3751 0.1197
H6C H 0.3467 0.6249 0.1197
N2A N 0.3417(5) 0.5000 0.0688(5)
H7A H 0.5000 0.457(3) -0.109(10)
loop_
_geom_bond_atom_site_label_1
_geom_bond_atom_site_label_2
_geom_bond_site_symmetry_1
_geom_bond_site_symmetry_2
Mn1 O1 1_555 1_555
O1 C1 1_555 1_555
O2 C1 1_555 1_555
C1 C2 1_555 1_555
C2 H1 1_555 1_555
H2 C2 1_555 1_555
O3 Mn1 1_555 1_555
H3 O3 1_555 1_555
N1 Mn1 1_555 1_555
C3 N1 1_555 1_555
H4 C3 1_555 1_555
C4 N1 1_555 1_555
H5 C4 1_555 1_555
H6 C4 1_555 1_555
N2 C4 1_555 1_555
C5 N2 1_555 1_555
H7 C5 1_555 1_555
Mn1_2 O1C 1_555 1_555
Mn1E O2 1_555 1_555
Mn1A N1A 1_555 1_555
Mn1E_2 O2C_2 1_555 1_555
Mn1_3 O1_2 1_555 1_555
O1C C1C 1_555 1_555
O1C_2 Mn1 1_555 1_555
O1_2 C1_2 1_555 1_555
O1_3 Mn1_2 1_555 1_555
O2C Mn1E 1_555 1_555
O2C_2 C1C_2 1_555 1_555
O2_2 Mn1E_2 1_555 1_555
O2E Mn1 1_555 1_555
O2F Mn1 1_555 1_555
O2E_2 Mn1_2 1_555 1_555
O2F_2 Mn1_2 1_555 1_555
C1C C2 1_555 1_555
C1C_2 O1C_2 1_555 1_555
C1_2 O2_2 1_555 1_555
C2_2 C1C_2 1_555 1_555
H1_2 C2_2 1_555 1_555
H2_2 C2_2 1_555 1_555
O3_2 Mn1_2 1_555 1_555
H3C O3 1_555 1_555
H3C_2 O3_2 1_555 1_555
H3_2 O3_2 1_555 1_555
N1A C3 1_555 1_555
N1_2 Mn1_2 1_555 1_555
H4A C3 1_555 1_555
C4A N1A 1_555 1_555
C4C N1 1_555 1_555
C4B N2 1_555 1_555
H5A C4A 1_555 1_555
H5B C4B 1_555 1_555
H5C C4C 1_555 1_555
H6A C4A 1_555 1_555
H6B C4B 1_555 1_555
H6C C4C 1_555 1_555
N2A C5 1_555 1_555
H7A C5 1_555 1_555
O2C C1C 1_555 1_555
C1_2 C2_2 1_555 1_555
N1A C4B 1_555 1_555
C4A N2A 1_555 1_555
C4C N2A 1_555 1_555

#END
