
#######################################################################
#
#                 Cambridge Crystallographic Data Centre
#                                CCDC 
#
#######################################################################
#
# If this CIF has been generated from an entry in the Cambridge 
# Structural Database, then it will include bibliographic, chemical, 
# crystal, experimental, refinement or atomic coordinate data resulting 
# from the CCDC's data processing and validation procedures.
#
#######################################################################

data_OJONOQ
_symmetry_cell_setting           rhombohedral
_symmetry_space_group_name_H-M   'R -3'
_symmetry_Int_Tables_number      148
_space_group_name_Hall           '-R 3'
loop_
_symmetry_equiv_pos_site_id
_symmetry_equiv_pos_as_xyz
1 x,y,z
2 -y,x-y,z
3 -x+y,-x,z
4 2/3+x,1/3+y,1/3+z
5 2/3-y,1/3+x-y,1/3+z
6 2/3-x+y,1/3-x,1/3+z
7 1/3+x,2/3+y,2/3+z
8 2/3+y,1/3-x+y,1/3-z
9 2/3+x-y,1/3+x,1/3-z
10 -x,-y,-z
11 y,-x+y,-z
12 x-y,x,-z
13 1/3-x,2/3-y,2/3-z
14 1/3+y,2/3-x+y,2/3-z
15 1/3+x-y,2/3+x,2/3-z
16 2/3-x,1/3-y,1/3-z
17 1/3-y,2/3+x-y,2/3+z
18 1/3-x+y,2/3-x,2/3+z
_cell_length_a                   30.8690(10)
_cell_length_b                   30.8690(10)
_cell_length_c                   7.2307(2)
_cell_angle_alpha                90
_cell_angle_beta                 90
_cell_angle_gamma                120.00
_cell_volume                     5967
loop_
_atom_site_label
_atom_site_type_symbol
_atom_site_fract_x
_atom_site_fract_y
_atom_site_fract_z
Er1 Er 0.220822(11) 0.110153(11) 0.32744(4)
O1 O 0.16010(17) 0.05263(18) 0.5517(7)
O2 O 0.21246(17) 0.02556(17) 0.3412(7)
O3 O 0.28281(17) 0.10711(17) 0.1256(7)
O4 O 0.36036(17) 0.14583(17) 0.0051(7)
O5 O 0.11962(17) -0.02414(17) 0.6750(7)
O6 O 0.17184(17) -0.05126(18) 0.4625(7)
O7 O 0.27101(18) 0.11114(19) 0.5877(7)
O9 O 0.1668(2) 0.0562(2) 0.0882(7)
O10 O 0.2238(2) 0.16297(19) 0.0734(7)
C1 C 0.3265(2) 0.1434(2) 0.1070(9)
C2 C 0.1506(2) 0.0086(2) 0.5688(9)
C3 C 0.1813(2) -0.0070(2) 0.4453(9)
C1O C 0.3402(2) 0.1899(2) 0.2263(9)
O3O O 0.38386(17) 0.22622(17) 0.2077(7)
O4O O 0.30631(17) 0.18750(17) 0.3282(7)
O1K O 0.10747(25) 0.16010(17) 0.4483(7)
O2K O 0.18690(24) 0.21246(17) 0.6588(7)
O5K O 0.14376(24) 0.11962(17) 0.3250(7)
O6K O 0.22310(25) 0.17184(17) 0.5375(7)
C2K C 0.1420(3) 0.1506(2) 0.4312(9)
C3K C 0.1883(3) 0.1813(2) 0.5547(9)
Er1K Er 0.110669(16) 0.220822(11) 0.67256(4)
O7K O 0.15987(26) 0.27101(18) 0.4123(7)
O9K O 0.1106(3) 0.1668(2) 0.9118(7)
O10K O 0.06083(28) 0.2238(2) 0.9266(7)
Er1O Er 0.445845(11) 0.223180(11) 0.00589(4)
Er1J Er 0.110153(11) -0.110669(16) 0.67256(4)
O3K O 0.17570(24) 0.28281(17) 0.8744(7)
O4Q O 0.11880(24) 0.30631(17) 0.6718(7)
O5A O 0.02414(17) 0.14376(24) 0.6750(7)
O6A O 0.05126(18) 0.22310(25) 0.4625(7)
O8 O 0.2427(2) 0.0336(2) 0.8398(8)
O11 O 0.3653(2) 0.1266(2) 0.5184(8)
O12 O 0.0357(2) 0.1219(3) 0.1773(9)
O13 O 0.2839(2) 0.2855(2) 0.7399(10)
O14 O 0.3622(3) 0.0566(2) -0.0091(10)
O15 O 0.0549(6) 0.0331(6) 0.251(6)
loop_
_geom_bond_atom_site_label_1
_geom_bond_atom_site_label_2
_geom_bond_site_symmetry_1
_geom_bond_site_symmetry_2
Er1 O1 1_555 1_555
O1 C2 1_555 1_555
O2 Er1 1_555 1_555
O3 Er1 1_555 1_555
O4 C1 1_555 1_555
O5 C2 1_555 1_555
O6 C3 1_555 1_555
O7 Er1 1_555 1_555
O9 Er1 1_555 1_555
O10 Er1 1_555 1_555
C1 O3 1_555 1_555
C2 C3 1_555 1_555
C3 O2 1_555 1_555
C1O C1 1_555 1_555
O3O C1O 1_555 1_555
O4O Er1 1_555 1_555
O1K C2K 1_555 1_555
O2K C3K 1_555 1_555
O5K Er1 1_555 1_555
O6K Er1 1_555 1_555
C2K O5K 1_555 1_555
C3K O6K 1_555 1_555
Er1K O1K 1_555 1_555
O7K Er1K 1_555 1_555
O9K Er1K 1_555 1_555
O10K Er1K 1_555 1_555
Er1O O4 1_555 1_555
Er1J O5 1_555 1_555
O3K Er1K 1_555 1_555
O4Q Er1K 1_555 1_555
O5A Er1K 1_555 1_555
O6A Er1K 1_555 1_555
O6 Er1J 1_555 1_555
C1O O4O 1_555 1_555
O3O Er1O 1_555 1_555
O2K Er1K 1_555 1_555
C2K C3K 1_555 1_555

#END
