
#######################################################################
#
#                 Cambridge Crystallographic Data Centre
#                                CCDC 
#
#######################################################################
#
# If this CIF has been generated from an entry in the Cambridge 
# Structural Database, then it will include bibliographic, chemical, 
# crystal, experimental, refinement or atomic coordinate data resulting 
# from the CCDC's data processing and validation procedures.
#
#######################################################################

data_OJOQEJ02
_symmetry_cell_setting           monoclinic
_symmetry_space_group_name_H-M   'C 2/c'
_symmetry_Int_Tables_number      15
_space_group_name_Hall           '-C 2yn'
loop_
_symmetry_equiv_pos_site_id
_symmetry_equiv_pos_as_xyz
1 x,y,z
2 1/2+x,1/2+y,z
3 -x,y,1/2-z
4 1/2-x,1/2+y,1/2-z
5 -x,-y,-z
6 1/2-x,1/2-y,-z
7 x,-y,1/2+z
8 1/2+x,1/2-y,1/2+z
_cell_length_a                   11.5867(14)
_cell_length_b                   7.6801(10)
_cell_length_c                   8.5641(11)
_cell_angle_alpha                90
_cell_angle_beta                 90.338(2)
_cell_angle_gamma                90
_cell_volume                     762.08
loop_
_atom_site_label
_atom_site_type_symbol
_atom_site_fract_x
_atom_site_fract_y
_atom_site_fract_z
Cu1 Cu 0.2500 0.2500 0.0000
O1 O 0.14812(11) 0.01170(19) -0.11100(15)
O2 O 0.21146(11) -0.1726(2) -0.28960(14)
N1 N 0.39871(13) 0.09830(19) 0.00246(17)
C1 C 0.50223(18) 0.1723(3) -0.0103(3)
H1 H 0.5071 0.2929 -0.0183
C2 C 0.39718(18) -0.0748(3) 0.0119(3)
H2 H 0.3266 -0.1318 0.0198
C3 C 0.16564(17) -0.0330(3) -0.2471(2)
H3 H 0.1428 0.0440 -0.3252
Cu1F Cu 0.2500 -0.2500 -0.5000
Cu1A Cu 0.7500 -0.2500 0.0000
Cu1F_2 Cu 0.2500 0.7500 0.5000
O1E O 0.35188(11) 0.48830(19) 0.11100(15)
O2E O 0.28854(11) 0.6726(2) 0.28960(14)
O2F O 0.21146(11) 0.1726(2) 0.21040(14)
O2C O 0.28854(11) 0.3274(2) -0.21040(14)
N1D N 0.60129(13) -0.09830(19) -0.00246(17)
N1E N 0.10129(13) 0.40170(19) -0.00246(17)
C1D C 0.49777(18) -0.1723(3) 0.0103(3)
H1D H 0.4929 -0.2929 0.0183
C2D C 0.60282(18) 0.0748(3) -0.0119(3)
H2D H 0.6734 0.1318 -0.0198
C3E C 0.33436(17) 0.5330(3) 0.2471(2)
H3E H 0.3572 0.4560 0.3252
loop_
_geom_bond_atom_site_label_1
_geom_bond_atom_site_label_2
_geom_bond_site_symmetry_1
_geom_bond_site_symmetry_2
Cu1 O1 1_555 1_555
O1 C3 1_555 1_555
O2 C3 1_555 1_555
N1 Cu1 1_555 1_555
C1 N1 1_555 1_555
H1 C1 1_555 1_555
C2 N1 1_555 1_555
H2 C2 1_555 1_555
C3 H3 1_555 1_555
Cu1F O2 1_555 1_555
Cu1A N1D 1_555 1_555
Cu1F_2 O2E 1_555 1_555
O1E Cu1 1_555 1_555
O2E C3E 1_555 1_555
O2F Cu1 1_555 1_555
O2C Cu1 1_555 1_555
N1D C1D 1_555 1_555
N1E Cu1 1_555 1_555
C1D C2 1_555 1_555
H1D C1D 1_555 1_555
C2D C1 1_555 1_555
H2D C2D 1_555 1_555
C3E O1E 1_555 1_555
H3E C3E 1_555 1_555
N1D C2D 1_555 1_555

#END
