
#######################################################################
#
#                 Cambridge Crystallographic Data Centre
#                                CCDC 
#
#######################################################################
#
# If this CIF has been generated from an entry in the Cambridge 
# Structural Database, then it will include bibliographic, chemical, 
# crystal, experimental, refinement or atomic coordinate data resulting 
# from the CCDC's data processing and validation procedures.
#
#######################################################################

data_OJOQAF01
_symmetry_cell_setting           tetragonal
_symmetry_space_group_name_H-M   'P 41 21 2'
_symmetry_Int_Tables_number      92
_space_group_name_Hall           'P 4abw 2nw'
loop_
_symmetry_equiv_pos_site_id
_symmetry_equiv_pos_as_xyz
1 x,y,z
2 -x,-y,1/2+z
3 1/2+x,1/2-y,3/4-z
4 1/2-x,1/2+y,1/4-z
5 -y,-x,1/2-z
6 y,x,-z
7 1/2+y,1/2-x,3/4+z
8 1/2-y,1/2+x,1/4+z
_cell_length_a                   7.85050(10)
_cell_length_b                   7.85050(10)
_cell_length_c                   18.1513(5)
_cell_angle_alpha                90
_cell_angle_beta                 90
_cell_angle_gamma                90
_cell_volume                     1118.67
loop_
_atom_site_label
_atom_site_type_symbol
_atom_site_fract_x
_atom_site_fract_y
_atom_site_fract_z
Cu1 Cu 1.26627(4) 0.26627(4) 0.0000
O1 O 1.1303(3) 0.3879(3) 0.07594(13)
C1 C 1.1710(4) 0.5157(4) 0.11449(17)
H1 H 1.2827 0.5597 0.1079
O2 O 1.0792(3) 0.5887(3) 0.15995(13)
N1 N 1.0870 0.0870 0.0000
C2 C 0.9193(4) 0.1239(4) 0.00905(19)
H2 H 0.8889 0.2399 0.0162
C3 C 0.7894(4) 0.0044(4) 0.00865(17)
H3 H 0.6738 0.0380 0.0141
C4 C 0.8331(4) -0.1669(4) 0.0000
C5 C 0.6992(4) -0.3008(4) 0.0000
C6 C 0.5533(4) -0.2852(4) -0.04349(17)
H4 H 0.5372 -0.1873 -0.0734
C7 C 0.4330(4) -0.4128(4) -0.04267(17)
H5 H 0.3358 -0.4021 -0.0735
N2 N 0.4478(3) -0.5522(3) 0.0000
Cu1C Cu 1.23373(4) 0.76627(4) 0.2500
Cu1_2 Cu 0.26627(4) -0.73373(4) 0.0000
Cu1B Cu 1.76627(4) 0.23373(4) -0.2500
O1E O 1.3879(3) 0.1303(3) -0.07594(13)
C1E C 1.5157(4) 0.1710(4) -0.11449(17)
H1E H 1.5597 0.2827 -0.1079
O2E O 1.5887(3) 0.0792(3) -0.15995(13)
O2C O 1.4208(3) 0.0887(3) 0.09005(13)
O2F O 1.0887(3) 0.4208(3) -0.09005(13)
C2E C 1.1239(4) -0.0807(4) -0.00905(19)
H2E H 1.2399 -0.1111 -0.0162
C3E C 1.0044(4) -0.2106(4) -0.00865(17)
H3E H 1.0380 -0.3262 -0.0141
C6E C 0.7148(4) -0.4467(4) 0.04349(17)
H4E H 0.8127 -0.4628 0.0734
C7E C 0.5872(4) -0.5670(4) 0.04267(17)
H5E H 0.5979 -0.6642 0.0735
N2_2 N 1.4478(3) 0.4478(3) 0.0000
loop_
_geom_bond_atom_site_label_1
_geom_bond_atom_site_label_2
_geom_bond_site_symmetry_1
_geom_bond_site_symmetry_2
Cu1 O1 1_555 1_555
O1 C1 1_555 1_555
C1 H1 1_555 1_555
O2 C1 1_555 1_555
N1 Cu1 1_555 1_555
C2 N1 1_555 1_555
H2 C2 1_555 1_555
C3 C2 1_555 1_555
H3 C3 1_555 1_555
C4 C3 1_555 1_555
C5 C4 1_555 1_555
C6 C5 1_555 1_555
H4 C6 1_555 1_555
C7 C6 1_555 1_555
H5 C7 1_555 1_555
N2 C7 1_555 1_555
Cu1C O2 1_555 1_555
Cu1_2 N2 1_555 1_555
Cu1B O2E 1_555 1_555
O1E Cu1 1_555 1_555
C1E O1E 1_555 1_555
H1E C1E 1_555 1_555
O2E C1E 1_555 1_555
O2C Cu1 1_555 1_555
O2F Cu1 1_555 1_555
C2E N1 1_555 1_555
H2E C2E 1_555 1_555
C3E C4 1_555 1_555
H3E C3E 1_555 1_555
C6E C5 1_555 1_555
H4E C6E 1_555 1_555
C7E N2 1_555 1_555
H5E C7E 1_555 1_555
N2_2 Cu1 1_555 1_555
C2E C3E 1_555 1_555
C6E C7E 1_555 1_555

#END
