
#######################################################################
#
#                 Cambridge Crystallographic Data Centre
#                                CCDC 
#
#######################################################################
#
# If this CIF has been generated from an entry in the Cambridge 
# Structural Database, then it will include bibliographic, chemical, 
# crystal, experimental, refinement or atomic coordinate data resulting 
# from the CCDC's data processing and validation procedures.
#
#######################################################################

data_OJOQAF
_symmetry_cell_setting           tetragonal
_symmetry_space_group_name_H-M   'P 41 21 2'
_symmetry_Int_Tables_number      92
_space_group_name_Hall           'P 4abw 2nw'
loop_
_symmetry_equiv_pos_site_id
_symmetry_equiv_pos_as_xyz
1 x,y,z
2 -x,-y,1/2+z
3 1/2-y,1/2+x,1/4+z
4 1/2+y,1/2-x,3/4+z
5 y,x,-z
6 -y,-x,1/2-z
7 1/2-x,1/2+y,1/4-z
8 1/2+x,1/2-y,3/4-z
_cell_length_a                   7.8534(2)
_cell_length_b                   7.8534(2)
_cell_length_c                   18.4799(8)
_cell_angle_alpha                90
_cell_angle_beta                 90
_cell_angle_gamma                90
_cell_volume                     1139.76
loop_
_atom_site_label
_atom_site_type_symbol
_atom_site_fract_x
_atom_site_fract_y
_atom_site_fract_z
Cu1 Cu 0.23734(3) 0.23734(3) 0.0000
N1 N 0.42017(19) 0.42017(19) 0.0000
N2 N 1.05590(19) 1.05590(19) 0.0000
C1 C 0.5839(2) 0.3812(2) 0.01085(12)
H1 H 0.6121 0.2678 0.0189
C2 C 0.7138(3) 0.5005(3) 0.01080(12)
H2 H 0.8264 0.4678 0.0178
C3 C 0.6710(2) 0.6710(2) 0.0000
C4 C 0.8051(2) 0.8051(2) 0.0000
C5 C 0.7882(3) 0.9503(3) 0.04225(12)
H3 H 0.6919 0.9662 0.0708
C6 C 0.9165(3) 1.0708(3) 0.04132(11)
H4 H 0.9056 1.1664 0.0707
O1 O 0.37397(19) 0.1110(2) 0.07207(8)
O2 O 0.4173(2) -0.0839(2) 0.15710(9)
C7 C 0.3302(3) -0.0038(3) 0.11448(11)
H5 H 0.2153 -0.0324 0.1135
C2D C 0.5005(3) 0.7138(3) -0.01080(12)
C1D C 0.3812(2) 0.5839(2) -0.01085(12)
H1D H 0.2678 0.6121 -0.0189
H2D H 0.4678 0.8264 -0.0178
C6D C 1.0708(3) 0.9165(3) -0.04132(11)
C5D C 0.9503(3) 0.7882(3) -0.04225(12)
H3D H 0.9662 0.6919 -0.0708
H4D H 1.1664 0.9056 -0.0707
O1D O 0.1110(2) 0.37397(19) -0.07207(8)
O2D O -0.0839(2) 0.4173(2) -0.15710(9)
C7D C -0.0038(3) 0.3302(3) -0.11448(11)
H5D H -0.0324 0.2153 -0.1135
N2_2 N 0.05590(19) 0.05590(19) 0.0000
O2C O 0.4161(2) 0.0827(2) -0.09290(9)
O2F O 0.0827(2) 0.4161(2) 0.09290(9)
Cu1_2 Cu 1.23734(3) 1.23734(3) 0.0000
Cu1B Cu 0.26266(3) -0.26266(3) 0.2500
Cu1C Cu -0.26266(3) 0.26266(3) -0.2500
loop_
_geom_bond_atom_site_label_1
_geom_bond_atom_site_label_2
_geom_bond_site_symmetry_1
_geom_bond_site_symmetry_2
Cu1 N1 1_555 1_555
N1 C1 1_555 1_555
N2 C6 1_555 1_555
C1 H1 1_555 1_555
C2 C1 1_555 1_555
H2 C2 1_555 1_555
C3 C2 1_555 1_555
C4 C3 1_555 1_555
C5 C4 1_555 1_555
H3 C5 1_555 1_555
C6 C5 1_555 1_555
H4 C6 1_555 1_555
O1 Cu1 1_555 1_555
O2 C7 1_555 1_555
C7 O1 1_555 1_555
H5 C7 1_555 1_555
C2D C3 1_555 1_555
C1D N1 1_555 1_555
H1D C1D 1_555 1_555
H2D C2D 1_555 1_555
C6D N2 1_555 1_555
C5D C4 1_555 1_555
H3D C5D 1_555 1_555
H4D C6D 1_555 1_555
O1D Cu1 1_555 1_555
O2D C7D 1_555 1_555
C7D O1D 1_555 1_555
H5D C7D 1_555 1_555
N2_2 Cu1 1_555 1_555
O2C Cu1 1_555 1_555
O2F Cu1 1_555 1_555
Cu1_2 N2 1_555 1_555
Cu1B O2 1_555 1_555
Cu1C O2D 1_555 1_555
C2D C1D 1_555 1_555
C6D C5D 1_555 1_555

#END
