
#######################################################################
#
#                 Cambridge Crystallographic Data Centre
#                                CCDC 
#
#######################################################################
#
# If this CIF has been generated from an entry in the Cambridge 
# Structural Database, then it will include bibliographic, chemical, 
# crystal, experimental, refinement or atomic coordinate data resulting 
# from the CCDC's data processing and validation procedures.
#
#######################################################################

data_OJOQEJ01
_symmetry_cell_setting           monoclinic
_symmetry_space_group_name_H-M   'C 2/c'
_symmetry_Int_Tables_number      15
_space_group_name_Hall           '-C 2yn'
loop_
_symmetry_equiv_pos_site_id
_symmetry_equiv_pos_as_xyz
1 x,y,z
2 1/2+x,1/2+y,z
3 x,-y,1/2+z
4 1/2+x,1/2-y,1/2+z
5 -x,-y,-z
6 1/2-x,1/2-y,-z
7 -x,y,1/2-z
8 1/2-x,1/2+y,1/2-z
_cell_length_a                   11.5799(11)
_cell_length_b                   7.6759(7)
_cell_length_c                   8.5592(8)
_cell_angle_alpha                90
_cell_angle_beta                 90.235(5)
_cell_angle_gamma                90
_cell_volume                     760.788
loop_
_atom_site_label
_atom_site_type_symbol
_atom_site_fract_x
_atom_site_fract_y
_atom_site_fract_z
Cu1 Cu 0.2500 0.2500 0.0000
N1 N 0.1011(2) 0.0978(3) -0.0017(4)
C1 C -0.0024(3) 0.1732(4) 0.0107(5)
H1 H -0.0071 0.2938 0.0188
C2 C 0.1029(3) -0.0755(4) -0.0119(6)
H2 H 0.1736 -0.1323 -0.0199
C3 C 0.3348(3) 0.0324(4) -0.2531(4)
H3 H 0.3583 -0.0442 -0.1750
O1 O 0.2883(2) 0.1728(3) -0.2111(3)
O2 O 0.3518(2) -0.0116(3) -0.3896(3)
C2D C -0.1029(3) 0.0755(4) 0.0119(6)
N1D N -0.1011(2) -0.0978(3) 0.0017(4)
C1D C 0.0024(3) -0.1732(4) -0.0107(5)
H1D H 0.0071 -0.2938 -0.0188
H2D H -0.1736 0.1323 0.0199
C3E C 0.1652(3) 0.4676(4) 0.2531(4)
H3E H 0.1417 0.5442 0.1750
O1E O 0.2117(2) 0.3272(3) 0.2111(3)
O2E O 0.1482(2) 0.5116(3) 0.3896(3)
N1E N 0.3989(2) 0.4022(3) 0.0017(4)
O2B O 0.3518(2) 0.0116(3) 0.1104(3)
O2G O 0.1482(2) 0.4884(3) -0.1104(3)
Cu1B Cu 0.2500 -0.2500 -0.5000
Cu1A Cu -0.2500 -0.2500 0.0000
Cu1B_2 Cu 0.2500 0.7500 0.5000
loop_
_geom_bond_atom_site_label_1
_geom_bond_atom_site_label_2
_geom_bond_site_symmetry_1
_geom_bond_site_symmetry_2
Cu1 N1 1_555 1_555
N1 C1 1_555 1_555
C1 H1 1_555 1_555
C2 N1 1_555 1_555
H2 C2 1_555 1_555
C3 H3 1_555 1_555
O1 Cu1 1_555 1_555
O2 C3 1_555 1_555
C2D C1 1_555 1_555
N1D C2D 1_555 1_555
C1D C2 1_555 1_555
H1D C1D 1_555 1_555
H2D C2D 1_555 1_555
C3E H3E 1_555 1_555
O1E Cu1 1_555 1_555
O2E C3E 1_555 1_555
N1E Cu1 1_555 1_555
O2B Cu1 1_555 1_555
O2G Cu1 1_555 1_555
Cu1B O2 1_555 1_555
Cu1A N1D 1_555 1_555
Cu1B_2 O2E 1_555 1_555
C3 O1 1_555 1_555
N1D C1D 1_555 1_555
C3E O1E 1_555 1_555

#END
