
#######################################################################
#
#                 Cambridge Crystallographic Data Centre
#                                CCDC 
#
#######################################################################
#
# If this CIF has been generated from an entry in the Cambridge 
# Structural Database, then it will include bibliographic, chemical, 
# crystal, experimental, refinement or atomic coordinate data resulting 
# from the CCDC's data processing and validation procedures.
#
#######################################################################

data_OJOTEM
_symmetry_cell_setting           triclinic
_symmetry_space_group_name_H-M   'P -1'
_symmetry_Int_Tables_number      2
_space_group_name_Hall           '-P 1'
loop_
_symmetry_equiv_pos_site_id
_symmetry_equiv_pos_as_xyz
1 x,y,z
2 -x,-y,-z
_cell_length_a                   9.970(3)
_cell_length_b                   10.613(3)
_cell_length_c                   11.088(2)
_cell_angle_alpha                115.554(13)
_cell_angle_beta                 91.351(17)
_cell_angle_gamma                111.681(17)
_cell_volume                     959.887
loop_
_atom_site_label
_atom_site_type_symbol
_atom_site_fract_x
_atom_site_fract_y
_atom_site_fract_z
Ni1 Ni 0.5000 0.0000 0.0000
O1 O 0.36427(18) 0.0558(2) 0.13801(17)
N1 N 0.53144(19) -0.1321(2) 0.08367(18)
N2 N 0.6137(2) -0.1917(2) 0.2279(2)
H1 H 0.6642 -0.1813 0.2982
N3 N 0.68664(19) 0.1894(2) 0.14007(18)
N4 N 0.9191(2) 0.3484(2) 0.2308(2)
H2 H 1.0130 0.3921 0.2385
C1 C 0.4604(4) -0.2868(3) 0.0378(3)
H4 H 0.3887 -0.3563 -0.0427
C2 C 0.5092(4) -0.3240(3) 0.1262(3)
H5 H 0.4773 -0.4217 0.1189
C3 C 0.6232(3) -0.0804(3) 0.1978(2)
H6 H 0.6878 0.0226 0.2518
C4 C 0.8215(2) 0.2275(3) 0.1192(3)
H7 H 0.8459 0.1766 0.0369
C5 C 0.8436(3) 0.3901(3) 0.3300(3)
H8 H 0.8828 0.4700 0.4193
C6 C 0.7001(3) 0.2922(3) 0.2729(2)
H9 H 0.6222 0.2942 0.3170
H14 H 0.330(3) 0.115(4) 0.147(3)
H16 H 0.370(4) 0.048(4) 0.206(3)
O1A O 0.63573(18) -0.0558(2) -0.13801(17)
H14A H 0.670(3) -0.115(4) -0.147(3)
H16A H 0.630(4) -0.048(4) -0.206(3)
N1A N 0.46856(19) 0.1321(2) -0.08367(18)
N2A N 0.3863(2) 0.1917(2) -0.2279(2)
H1A H 0.3358 0.1813 -0.2982
C1A C 0.5396(4) 0.2868(3) -0.0378(3)
H4A H 0.6113 0.3563 0.0427
C2A C 0.4908(4) 0.3240(3) -0.1262(3)
H5A H 0.5227 0.4217 -0.1189
C3A C 0.3768(3) 0.0804(3) -0.1978(2)
H6A H 0.3122 -0.0226 -0.2518
N3A N 0.31336(19) -0.1894(2) -0.14007(18)
N4A N 0.0809(2) -0.3484(2) -0.2308(2)
H2A H -0.0130 -0.3921 -0.2385
C4A C 0.1785(2) -0.2275(3) -0.1192(3)
H7A H 0.1541 -0.1766 -0.0369
C5A C 0.1564(3) -0.3901(3) -0.3300(3)
H8A H 0.1172 -0.4700 -0.4193
C6A C 0.2999(3) -0.2922(3) -0.2729(2)
H9A H 0.3778 -0.2942 -0.3170
Ni2 Ni 0.0000 0.0000 0.5000
O2 O -0.12842(15) 0.09912(16) 0.45893(15)
O3 O 0.20048(13) 0.17180(14) 0.50554(13)
O4 O 0.10245(14) 0.28201(17) 0.41999(16)
O5 O 0.23059(16) 0.24797(16) 0.17222(14)
O6 O 0.22880(16) 0.47806(16) 0.25336(15)
N5 N -0.03061(17) -0.13179(18) 0.29099(15)
N6 N -0.0974(2) -0.2164(2) 0.06991(17)
H3 H -0.1155 -0.2165 -0.0063
C7 C -0.0739(3) -0.2879(3) 0.2224(2)
H10 H -0.0748 -0.3485 0.2632
C8 C -0.1154(3) -0.3410(3) 0.0857(2)
H11 H -0.1493 -0.4424 0.0169
C9 C -0.0465(2) -0.0935(2) 0.1941(2)
H12 H -0.0248 0.0063 0.2106
C10 C 0.20901(18) 0.26967(19) 0.46573(17)
C11 C 0.36152(18) 0.38399(18) 0.47901(17)
C12 C 0.47439(18) 0.43980(19) 0.58931(17)
H13 H 0.4570 0.3987 0.6494
C13 C 0.38741(18) 0.44452(19) 0.38770(17)
C14 C 0.27218(18) 0.3852(2) 0.26191(17)
H15 H -0.175(3) 0.137(3) 0.504(3)
H20 H -0.069(4) 0.165(4) 0.445(3)
C13A C 0.61259(18) 0.55548(19) 0.61230(17)
C11A C 0.63848(18) 0.61601(18) 0.52099(17)
C10A C 0.79099(18) 0.73033(19) 0.53427(17)
O3A O 0.79952(13) 0.82820(14) 0.49446(13)
O4A O 0.89755(14) 0.71799(17) 0.58001(16)
C12A C 0.52561(18) 0.56020(19) 0.41069(17)
H13A H 0.5430 0.6013 0.3506
C14A C 0.72782(18) 0.6148(2) 0.73809(17)
O5A O 0.76941(16) 0.75203(16) 0.82778(14)
O6A O 0.77120(16) 0.52194(16) 0.74664(15)
O2A O 0.12842(15) -0.09912(16) 0.54107(15)
H15A H 0.175(3) -0.137(3) 0.496(3)
H20A H 0.069(4) -0.165(4) 0.555(3)
N5A N 0.03061(17) 0.13179(18) 0.70901(15)
N6A N 0.0974(2) 0.2164(2) 0.93009(17)
H3A H 0.1155 0.2165 1.0063
C7A C 0.0739(3) 0.2879(3) 0.7776(2)
H10A H 0.0748 0.3485 0.7368
C8A C 0.1154(3) 0.3410(3) 0.9143(2)
H11A H 0.1493 0.4424 0.9831
C9A C 0.0465(2) 0.0935(2) 0.8059(2)
H12A H 0.0248 -0.0063 0.7894
O3A_2 O -0.20048(13) -0.17180(14) 0.49446(13)
Ni2_2 Ni 1.0000 1.0000 0.5000
O7 O 0.4005(2) 0.0507(2) 0.38615(19)
H19 H 0.375(4) -0.026(5) 0.375(4)
H21 H 0.336(4) 0.084(4) 0.421(4)
O8 O 0.3245(2) 0.7872(2) 0.4169(2)
H17 H 0.395(4) 0.816(4) 0.472(4)
H18 H 0.299(4) 0.694(4) 0.372(4)
loop_
_geom_bond_atom_site_label_1
_geom_bond_atom_site_label_2
_geom_bond_site_symmetry_1
_geom_bond_site_symmetry_2
Ni1 O1 1_555 1_555
Ni2 O2 1_555 1_555
O1 H14 1_555 1_555
O2 H15 1_555 1_555
O3 Ni2 1_555 1_555
O4 C10 1_555 1_555
O5 C14 1_555 1_555
O6 C14 1_555 1_555
O7 H19 1_555 1_555
O8 H17 1_555 1_555
N1 Ni1 1_555 1_555
N2 H1 1_555 1_555
N3 Ni1 1_555 1_555
N4 H2 1_555 1_555
N5 Ni2 1_555 1_555
N6 H3 1_555 1_555
C1 N1 1_555 1_555
H4 C1 1_555 1_555
C2 N2 1_555 1_555
H5 C2 1_555 1_555
C3 N1 1_555 1_555
H6 C3 1_555 1_555
C4 N3 1_555 1_555
H7 C4 1_555 1_555
C5 N4 1_555 1_555
H8 C5 1_555 1_555
C6 N3 1_555 1_555
H9 C6 1_555 1_555
C7 N5 1_555 1_555
H10 C7 1_555 1_555
C8 N6 1_555 1_555
H11 C8 1_555 1_555
C9 N5 1_555 1_555
H12 C9 1_555 1_555
C10 O3 1_555 1_555
C11 C10 1_555 1_555
C12 C11 1_555 1_555
H13 C12 1_555 1_555
C13 C11 1_555 1_555
C14 C13 1_555 1_555
H16 O1 1_555 1_555
H18 O8 1_555 1_555
H20 O2 1_555 1_555
H21 O7 1_555 1_555
C13A C12 1_555 1_555
C11A C13A 1_555 1_555
C10A C11A 1_555 1_555
O3A C10A 1_555 1_555
O4A C10A 1_555 1_555
C12A C13 1_555 1_555
H13A C12A 1_555 1_555
C14A C13A 1_555 1_555
O5A C14A 1_555 1_555
O6A C14A 1_555 1_555
O1A Ni1 1_555 1_555
H14A O1A 1_555 1_555
H16A O1A 1_555 1_555
N1A Ni1 1_555 1_555
N2A H1A 1_555 1_555
C1A N1A 1_555 1_555
H4A C1A 1_555 1_555
C2A N2A 1_555 1_555
H5A C2A 1_555 1_555
C3A N1A 1_555 1_555
H6A C3A 1_555 1_555
N3A Ni1 1_555 1_555
N4A H2A 1_555 1_555
C4A N3A 1_555 1_555
H7A C4A 1_555 1_555
C5A N4A 1_555 1_555
H8A C5A 1_555 1_555
C6A N3A 1_555 1_555
H9A C6A 1_555 1_555
O2A Ni2 1_555 1_555
H15A O2A 1_555 1_555
H20A O2A 1_555 1_555
N5A Ni2 1_555 1_555
N6A H3A 1_555 1_555
C7A N5A 1_555 1_555
H10A C7A 1_555 1_555
C8A N6A 1_555 1_555
H11A C8A 1_555 1_555
C9A N5A 1_555 1_555
H12A C9A 1_555 1_555
O3A_2 Ni2 1_555 1_555
Ni2_2 O3A 1_555 1_555
N2 C3 1_555 1_555
N4 C4 1_555 1_555
N6 C9 1_555 1_555
C1 C2 1_555 1_555
C5 C6 1_555 1_555
C7 C8 1_555 1_555
C11A C12A 1_555 1_555
N2A C3A 1_555 1_555
C1A C2A 1_555 1_555
N4A C4A 1_555 1_555
C5A C6A 1_555 1_555
N6A C9A 1_555 1_555
C7A C8A 1_555 1_555

#END
