
#######################################################################
#
#                 Cambridge Crystallographic Data Centre
#                                CCDC 
#
#######################################################################
#
# If this CIF has been generated from an entry in the Cambridge 
# Structural Database, then it will include bibliographic, chemical, 
# crystal, experimental, refinement or atomic coordinate data resulting 
# from the CCDC's data processing and validation procedures.
#
#######################################################################

data_OJOTAI01
_symmetry_cell_setting           triclinic
_symmetry_space_group_name_H-M   'P -1'
_symmetry_Int_Tables_number      2
_space_group_name_Hall           '-P 1'
loop_
_symmetry_equiv_pos_site_id
_symmetry_equiv_pos_as_xyz
1 x,y,z
2 -x,-y,-z
_cell_length_a                   10.036(1)
_cell_length_b                   10.650(1)
_cell_length_c                   11.102(1)
_cell_angle_alpha                114.72(2)
_cell_angle_beta                 95.75(1)
_cell_angle_gamma                108.46(2)
_cell_volume                     984.457
loop_
_atom_site_label
_atom_site_type_symbol
_atom_site_fract_x
_atom_site_fract_y
_atom_site_fract_z
Mn1 Mn -0.5000 0.0000 0.5000
O1 O -0.62567(17) 0.11404(19) 0.46312(17)
O3 O 0.38926(16) 0.7175(2) 0.57835(18)
O4 O 0.29088(16) 0.81993(17) 0.48703(16)
O5 O 0.26735(19) 0.74854(19) 0.82165(16)
O6 O 0.26902(18) 0.51901(19) 0.73812(17)
N1 N -0.3975(2) 0.2182(3) 0.9388(2)
H1 H -0.3758 0.2183 1.0158
N2 N -0.4711(2) 0.1344(2) 0.72257(18)
C1 C 0.1356(2) 0.6138(2) 0.51918(19)
C2 C 0.1119(2) 0.5544(2) 0.60907(19)
C3 C 0.0229(2) 0.5588(2) 0.4117(2)
C4 C 0.2840(2) 0.7263(2) 0.52999(19)
C5 C -0.4501(3) 0.0967(3) 0.8157(2)
H4 H -0.4689 -0.0010 0.7998
C6 C -0.4283(4) 0.2897(3) 0.7917(3)
H5 H -0.4312 0.3484 0.7495
C7 C -0.3831(4) 0.3418(3) 0.9253(3)
H6 H -0.3490 0.4411 0.9946
C8 C 0.2264(2) 0.6125(2) 0.7321(2)
H13 H 0.0371 0.6007 0.3506
H14 H -0.6336 0.1384 0.3995
H15 H -0.5936 0.1956 0.5398
C3A C -0.0229(2) 0.4412(2) 0.5883(2)
C1A C -0.1356(2) 0.3862(2) 0.48082(19)
C2A C -0.1119(2) 0.4456(2) 0.39093(19)
C8A C -0.2264(2) 0.3875(2) 0.2679(2)
O5A O -0.26735(19) 0.25146(19) 0.17835(16)
O6A O -0.26902(18) 0.48099(19) 0.26188(17)
C4A C -0.2840(2) 0.2737(2) 0.47001(19)
O3A O -0.38926(16) 0.2825(2) 0.42165(18)
O4A O -0.29088(16) 0.18007(17) 0.51297(16)
Mn1_2 Mn 0.5000 1.0000 0.5000
O1A O -0.37433(17) -0.11404(19) 0.53688(17)
O4_2 O -0.70912(16) -0.18007(17) 0.48703(16)
N2A N -0.5289(2) -0.1344(2) 0.27743(18)
C5A C -0.5499(3) -0.0967(3) 0.1843(2)
N1A N -0.6025(2) -0.2182(3) 0.0612(2)
H1A H -0.6242 -0.2183 -0.0158
C7A C -0.6169(4) -0.3418(3) 0.0747(3)
C6A C -0.5717(4) -0.2897(3) 0.2083(3)
H5A H -0.5688 -0.3484 0.2505
H6A H -0.6510 -0.4411 0.0054
H4A H -0.5311 0.0010 0.2002
H13A H -0.0371 0.3993 0.6494
H14A H -0.3664 -0.1384 0.6005
H15A H -0.4064 -0.1956 0.4602
Mn2 Mn 0.0000 0.0000 0.0000
O2 O 0.1345(2) -0.0640(2) -0.14764(19)
N3 N 0.3556(4) 0.3965(3) 0.3301(3)
H2 H 0.3943 0.4720 0.4117
N4 N 0.1981(2) 0.1987(2) 0.1461(2)
N5 N -0.1116(3) 0.2003(3) -0.2310(2)
H3 H -0.1642 0.1903 -0.3031
N6 N -0.0316(2) 0.1399(2) -0.0893(2)
C9 C 0.2144(3) 0.3023(3) 0.2772(3)
H7 H 0.1411 0.3068 0.3218
C10 C 0.3302(3) 0.2336(3) 0.1244(3)
H8 H 0.3503 0.1803 0.0426
C11 C 0.4276(3) 0.3522(3) 0.2325(3)
H9 H 0.5264 0.3975 0.2412
C12 C -0.1231(3) 0.0901(3) -0.2009(3)
H10 H -0.1891 -0.0094 -0.2546
C13 C 0.0416(4) 0.2928(4) -0.0458(3)
H11 H 0.1153 0.3594 0.0356
C14 C -0.0055(5) 0.3304(4) -0.1321(4)
H12 H 0.0261 0.4248 -0.1274
H16 H 0.1998 -0.0971 -0.1383
H17 H 0.1787 0.0233 -0.1404
O2A O -0.1345(2) 0.0640(2) 0.14764(19)
H16A H -0.1998 0.0971 0.1383
H17A H -0.1787 -0.0233 0.1404
N4A N -0.1981(2) -0.1987(2) -0.1461(2)
C9A C -0.2144(3) -0.3023(3) -0.2772(3)
N3A N -0.3556(4) -0.3965(3) -0.3301(3)
H2A H -0.3943 -0.4720 -0.4117
C11A C -0.4276(3) -0.3522(3) -0.2325(3)
C10A C -0.3302(3) -0.2336(3) -0.1244(3)
H8A H -0.3503 -0.1803 -0.0426
H9A H -0.5264 -0.3975 -0.2412
H7A H -0.1411 -0.3068 -0.3218
N6A N 0.0316(2) -0.1399(2) 0.0893(2)
C12A C 0.1231(3) -0.0901(3) 0.2009(3)
N5A N 0.1116(3) -0.2003(3) 0.2310(2)
H3A H 0.1642 -0.1903 0.3031
C14A C 0.0055(5) -0.3304(4) 0.1321(4)
C13A C -0.0416(4) -0.2928(4) 0.0458(3)
H11A H -0.1153 -0.3594 -0.0356
H12A H -0.0261 -0.4248 0.1274
H10A H 0.1891 0.0094 0.2546
O7 O 0.1710(2) 0.2110(2) 0.5745(2)
H18 H 0.1565 0.2405 0.6547
H19 H 0.2000 0.2882 0.5623
O8 O 0.1031(2) 0.9537(2) 0.6124(2)
H20 H 0.1653 0.9268 0.5725
H21 H 0.0489 0.8794 0.6209
loop_
_geom_bond_atom_site_label_1
_geom_bond_atom_site_label_2
_geom_bond_site_symmetry_1
_geom_bond_site_symmetry_2
Mn1 O1 1_555 1_555
Mn2 O2 1_555 1_555
O1 H14 1_555 1_555
O2 H16 1_555 1_555
O3 C4 1_555 1_555
O4 C4 1_555 1_555
O5 C8 1_555 1_555
O6 C8 1_555 1_555
N1 H1 1_555 1_555
N2 Mn1 1_555 1_555
N3 H2 1_555 1_555
N4 Mn2 1_555 1_555
N5 H3 1_555 1_555
N6 Mn2 1_555 1_555
C1 C2 1_555 1_555
C2 C8 1_555 1_555
C3 C1 1_555 1_555
C4 C1 1_555 1_555
C5 N1 1_555 1_555
H4 C5 1_555 1_555
C6 N2 1_555 1_555
H5 C6 1_555 1_555
C7 N1 1_555 1_555
H6 C7 1_555 1_555
C9 N3 1_555 1_555
H7 C9 1_555 1_555
C10 N4 1_555 1_555
H8 C10 1_555 1_555
C11 N3 1_555 1_555
H9 C11 1_555 1_555
C12 N5 1_555 1_555
H10 C12 1_555 1_555
C13 N6 1_555 1_555
H11 C13 1_555 1_555
C14 N5 1_555 1_555
H12 C14 1_555 1_555
O7 H18 1_555 1_555
O8 H20 1_555 1_555
H13 C3 1_555 1_555
H15 O1 1_555 1_555
H17 O2 1_555 1_555
H19 O7 1_555 1_555
H21 O8 1_555 1_555
C3A C2 1_555 1_555
C1A C3A 1_555 1_555
C2A C3 1_555 1_555
C8A C2A 1_555 1_555
O5A C8A 1_555 1_555
O6A C8A 1_555 1_555
C4A C1A 1_555 1_555
O3A C4A 1_555 1_555
O4A Mn1 1_555 1_555
Mn1_2 O4 1_555 1_555
O1A Mn1 1_555 1_555
O4_2 Mn1 1_555 1_555
N2A Mn1 1_555 1_555
C5A N2A 1_555 1_555
N1A C5A 1_555 1_555
H1A N1A 1_555 1_555
C7A N1A 1_555 1_555
C6A N2A 1_555 1_555
H5A C6A 1_555 1_555
H6A C7A 1_555 1_555
H4A C5A 1_555 1_555
H13A C3A 1_555 1_555
O2A Mn2 1_555 1_555
H16A O2A 1_555 1_555
H17A O2A 1_555 1_555
N4A Mn2 1_555 1_555
C9A N4A 1_555 1_555
N3A C9A 1_555 1_555
H2A N3A 1_555 1_555
C11A N3A 1_555 1_555
C10A N4A 1_555 1_555
H8A C10A 1_555 1_555
H9A C11A 1_555 1_555
H7A C9A 1_555 1_555
N6A Mn2 1_555 1_555
C12A N6A 1_555 1_555
N5A C12A 1_555 1_555
H3A N5A 1_555 1_555
C14A N5A 1_555 1_555
C13A N6A 1_555 1_555
H11A C13A 1_555 1_555
H12A C14A 1_555 1_555
H10A C12A 1_555 1_555
H14A O1A 1_555 1_555
H15A O1A 1_555 1_555
N2 C5 1_555 1_555
N4 C9 1_555 1_555
N6 C12 1_555 1_555
C6 C7 1_555 1_555
C10 C11 1_555 1_555
C13 C14 1_555 1_555
C1A C2A 1_555 1_555
C4A O4A 1_555 1_555
C7A C6A 1_555 1_555
C11A C10A 1_555 1_555
C14A C13A 1_555 1_555

#END
