
#######################################################################
#
#                 Cambridge Crystallographic Data Centre
#                                CCDC 
#
#######################################################################
#
# If this CIF has been generated from an entry in the Cambridge 
# Structural Database, then it will include bibliographic, chemical, 
# crystal, experimental, refinement or atomic coordinate data resulting 
# from the CCDC's data processing and validation procedures.
#
#######################################################################

data_OJOTOW
_symmetry_cell_setting           triclinic
_symmetry_space_group_name_H-M   'P -1'
_symmetry_Int_Tables_number      2
_space_group_name_Hall           '-P 1'
loop_
_symmetry_equiv_pos_site_id
_symmetry_equiv_pos_as_xyz
1 x,y,z
2 -x,-y,-z
_cell_length_a                   11.4577(15)
_cell_length_b                   14.224(2)
_cell_length_c                   15.1894(18)
_cell_angle_alpha                72.997(10)
_cell_angle_beta                 68.693(9)
_cell_angle_gamma                74.492(12)
_cell_volume                     2169.1
loop_
_atom_site_label
_atom_site_type_symbol
_atom_site_fract_x
_atom_site_fract_y
_atom_site_fract_z
Mn1 Mn 0.77311(4) 0.00984(3) 0.21767(3)
O1 O 0.94557(17) -0.00319(14) 0.24925(13)
O2 O 0.92613(18) 0.13593(15) 0.29574(15)
O3 O 1.2902(2) 0.06774(18) 0.45363(16)
O4 O 1.43595(19) -0.06676(17) 0.41819(14)
O5 O 1.58841(18) -0.13931(15) 0.20987(15)
O6 O 1.58278(17) 0.01612(14) 0.21702(14)
O7 O 1.2066(2) -0.08890(17) 0.06579(15)
O8 O 1.11756(19) 0.07296(15) 0.05014(13)
O9 O 0.7064(2) 0.15739(17) 0.25770(16)
O10 O 0.8622(2) 0.09461(16) 0.07762(14)
O11 O 0.8368(2) -0.12176(16) 0.15190(15)
O12 O 0.6995(2) -0.07766(18) 0.36947(15)
C1 C 0.9906(2) 0.0588(2) 0.26655(18)
C2 C 1.1309(3) 0.0338(2) 0.25331(19)
C3 C 1.1758(3) 0.0397(2) 0.32527(19)
H1 H 1.1179 0.0664 0.3790
C4 C 1.3029(3) 0.0073(2) 0.31985(19)
C5 C 1.3464(3) 0.0030(2) 0.40444(19)
C6 C 1.3889(3) -0.0289(2) 0.23879(19)
C7 C 1.5302(2) -0.0542(2) 0.22222(18)
C8 C 1.3438(3) -0.0347(2) 0.16731(19)
H2 H 1.4018 -0.0607 0.1133
C9 C 1.2166(3) -0.0035(2) 0.17301(19)
C10 C 1.1753(3) -0.0072(2) 0.08963(19)
H39 H 0.646(3) 0.151(3) 0.3107(18)
H40 H 0.767(3) 0.157(3) 0.277(3)
H41 H 0.9424(18) 0.091(3) 0.061(3)
H42 H 0.844(4) 0.095(3) 0.029(2)
H43 H 0.872(4) -0.115(4) 0.0919(15)
H44 H 0.769(2) -0.143(2) 0.169(2)
H45 H 0.6197(18) -0.072(3) 0.384(3)
H46 H 0.712(4) -0.063(3) 0.414(2)
O6_2 O 0.58278(17) 0.01612(14) 0.21702(14)
Mn1_2 Mn 1.77311(4) 0.00984(3) 0.21767(3)
Mn2 Mn 1.24752(4) -0.49605(3) 0.24375(3)
N1 N 1.2745(3) -0.57577(19) 0.39098(19)
N2 N 1.2674(3) -0.6914(2) 0.5247(2)
H3 H 1.2442 -0.7420 0.5727
N3 N 1.4109(2) -0.41737(19) 0.20989(18)
N4 N 1.5186(3) -0.31051(19) 0.20862(18)
H4 H 1.5347 -0.2567 0.2162
N5 N 1.3756(2) -0.62534(18) 0.18073(18)
N6 N 1.4639(2) -0.78275(18) 0.18133(18)
H5 H 1.5008 -0.8443 0.2009
N7 N 1.2189(2) -0.42115(18) 0.09762(18)
N8 N 1.2284(3) -0.3158(2) -0.0413(2)
H6 H 1.2561 -0.2709 -0.0940
N9 N 1.0842(2) -0.57645(18) 0.28412(18)
N10 N 0.9771(3) -0.69126(19) 0.30397(18)
H7 H 0.9615 -0.7480 0.3024
N11 N 1.1160(2) -0.36551(18) 0.30225(19)
N12 N 1.0396(2) -0.20612(19) 0.29703(19)
H8 H 1.0099 -0.1432 0.2748
C11 C 1.2189(3) -0.6506(3) 0.4508(2)
H9 H 1.1531 -0.6728 0.4427
C12 C 1.3596(4) -0.6395(2) 0.5115(2)
C13 C 1.4338(5) -0.6679(3) 0.5812(3)
H10 H 1.4854 -0.6172 0.5668
H11 H 1.4897 -0.7328 0.5754
H12 H 1.3750 -0.6725 0.6473
C14 C 1.3625(4) -0.5700(2) 0.4296(3)
H13 H 1.4183 -0.5230 0.4019
C15 C 1.4037(3) -0.3299(2) 0.2271(2)
H14 H 1.3261 -0.2863 0.2499
C16 C 1.6080(3) -0.3890(2) 0.1756(2)
C17 C 1.7475(4) -0.3909(3) 0.1442(4)
H15 H 1.7929 -0.4461 0.1112
H16 H 1.7745 -0.4005 0.2010
H17 H 1.7669 -0.3275 0.0999
C18 C 1.5398(3) -0.4546(2) 0.1768(2)
H18 H 1.5754 -0.5167 0.1577
C19 C 1.4279(3) -0.7085(2) 0.2289(2)
H19 H 1.4388 -0.7152 0.2897
C20 C 1.4329(3) -0.7459(2) 0.0968(2)
C21 C 1.4613(4) -0.8081(3) 0.0261(2)
H20 H 1.4453 -0.7657 -0.0335
H21 H 1.4065 -0.8587 0.0536
H22 H 1.5508 -0.8412 0.0115
C22 C 1.3792(3) -0.6489(2) 0.0975(2)
H23 H 1.3482 -0.6033 0.0478
C23 C 1.2812(4) -0.3546(3) 0.0299(3)
H24 H 1.3544 -0.3363 0.0312
C24 C 1.1244(3) -0.3576(3) -0.0184(2)
C25 C 1.0416(4) -0.3288(3) -0.0817(3)
H25 H 0.9833 -0.3762 -0.0600
H26 H 1.0947 -0.3297 -0.1487
H27 H 0.9923 -0.2613 -0.0780
C26 C 1.1208(3) -0.4234(2) 0.0670(2)
H28 H 1.0590 -0.4653 0.1010
C27 C 1.0908(3) -0.6655(2) 0.2717(2)
H29 H 1.1678 -0.7065 0.2431
C28 C 0.8882(3) -0.6149(3) 0.3400(3)
C29 C 0.7504(4) -0.6185(4) 0.3825(4)
H30 H 0.7053 -0.5592 0.4093
H31 H 0.7378 -0.6787 0.4341
H32 H 0.7169 -0.6200 0.3321
C30 C 0.9562(3) -0.5448(2) 0.3277(2)
H33 H 0.9208 -0.4825 0.3465
C31 C 1.0762(3) -0.2797(2) 0.2495(2)
H34 H 1.0740 -0.2712 0.1857
C32 C 1.0560(3) -0.2455(2) 0.3864(2)
C33 C 1.0261(4) -0.1829(3) 0.4581(2)
H35 H 1.0334 -0.2262 0.5199
H36 H 0.9391 -0.1449 0.4674
H37 H 1.0862 -0.1366 0.4340
C34 C 1.1027(3) -0.3438(2) 0.3885(2)
H38 H 1.1234 -0.3912 0.4419
O13 O 0.5068(2) 0.15727(18) 0.41631(16)
H47 H 0.444(3) 0.129(3) 0.428(4)
H48 H 0.538(4) 0.125(3) 0.461(2)
loop_
_geom_bond_atom_site_label_1
_geom_bond_atom_site_label_2
_geom_bond_site_symmetry_1
_geom_bond_site_symmetry_2
Mn1 O1 1_555 1_555
O1 C1 1_555 1_555
O2 C1 1_555 1_555
O3 C5 1_555 1_555
O4 C5 1_555 1_555
O5 C7 1_555 1_555
O6 C7 1_555 1_555
O7 C10 1_555 1_555
O8 C10 1_555 1_555
O9 Mn1 1_555 1_555
O10 Mn1 1_555 1_555
O11 Mn1 1_555 1_555
O12 Mn1 1_555 1_555
C1 C2 1_555 1_555
C2 C3 1_555 1_555
C3 H1 1_555 1_555
C4 C3 1_555 1_555
C5 C4 1_555 1_555
C6 C4 1_555 1_555
C7 C6 1_555 1_555
C8 C6 1_555 1_555
H2 C8 1_555 1_555
C9 C2 1_555 1_555
C10 C9 1_555 1_555
Mn2 N1 1_555 1_555
N1 C11 1_555 1_555
N2 H3 1_555 1_555
N3 Mn2 1_555 1_555
N4 H4 1_555 1_555
N5 Mn2 1_555 1_555
N6 H5 1_555 1_555
N7 Mn2 1_555 1_555
N8 H6 1_555 1_555
N9 Mn2 1_555 1_555
N10 H7 1_555 1_555
N11 Mn2 1_555 1_555
N12 H8 1_555 1_555
C11 N2 1_555 1_555
H9 C11 1_555 1_555
C12 N2 1_555 1_555
C13 C12 1_555 1_555
H10 C13 1_555 1_555
H11 C13 1_555 1_555
H12 C13 1_555 1_555
C14 N1 1_555 1_555
H13 C14 1_555 1_555
C15 N3 1_555 1_555
H14 C15 1_555 1_555
C16 N4 1_555 1_555
C17 C16 1_555 1_555
H15 C17 1_555 1_555
H16 C17 1_555 1_555
H17 C17 1_555 1_555
C18 N3 1_555 1_555
H18 C18 1_555 1_555
C19 N5 1_555 1_555
H19 C19 1_555 1_555
C20 N6 1_555 1_555
C21 C20 1_555 1_555
H20 C21 1_555 1_555
H21 C21 1_555 1_555
H22 C21 1_555 1_555
C22 N5 1_555 1_555
H23 C22 1_555 1_555
C23 N7 1_555 1_555
H24 C23 1_555 1_555
C24 N8 1_555 1_555
C25 C24 1_555 1_555
H25 C25 1_555 1_555
H26 C25 1_555 1_555
H27 C25 1_555 1_555
C26 N7 1_555 1_555
H28 C26 1_555 1_555
C27 N9 1_555 1_555
H29 C27 1_555 1_555
C28 N10 1_555 1_555
C29 C28 1_555 1_555
H30 C29 1_555 1_555
H31 C29 1_555 1_555
H32 C29 1_555 1_555
C30 N9 1_555 1_555
H33 C30 1_555 1_555
C31 N11 1_555 1_555
H34 C31 1_555 1_555
C32 N12 1_555 1_555
C33 C32 1_555 1_555
H35 C33 1_555 1_555
H36 C33 1_555 1_555
H37 C33 1_555 1_555
C34 N11 1_555 1_555
H38 C34 1_555 1_555
O13 H47 1_555 1_555
H39 O9 1_555 1_555
H40 O9 1_555 1_555
H41 O10 1_555 1_555
H42 O10 1_555 1_555
H43 O11 1_555 1_555
H44 O11 1_555 1_555
H45 O12 1_555 1_555
H46 O12 1_555 1_555
H48 O13 1_555 1_555
O6_2 Mn1 1_555 1_555
Mn1_2 O6 1_555 1_555
C8 C9 1_555 1_555
N4 C15 1_555 1_555
N6 C19 1_555 1_555
N8 C23 1_555 1_555
N10 C27 1_555 1_555
N12 C31 1_555 1_555
C12 C14 1_555 1_555
C16 C18 1_555 1_555
C20 C22 1_555 1_555
C24 C26 1_555 1_555
C28 C30 1_555 1_555
C32 C34 1_555 1_555

#END
