
#######################################################################
#
#                 Cambridge Crystallographic Data Centre
#                                CCDC 
#
#######################################################################
#
# If this CIF has been generated from an entry in the Cambridge 
# Structural Database, then it will include bibliographic, chemical, 
# crystal, experimental, refinement or atomic coordinate data resulting 
# from the CCDC's data processing and validation procedures.
#
#######################################################################

data_OJOTIQ
_symmetry_cell_setting           triclinic
_symmetry_space_group_name_H-M   'P -1'
_symmetry_Int_Tables_number      2
_space_group_name_Hall           '-P 1'
loop_
_symmetry_equiv_pos_site_id
_symmetry_equiv_pos_as_xyz
1 x,y,z
2 -x,-y,-z
_cell_length_a                   7.1719(16)
_cell_length_b                   9.7324(15)
_cell_length_c                   9.816(2)
_cell_angle_alpha                92.764(12)
_cell_angle_beta                 101.288(16)
_cell_angle_gamma                95.304(14)
_cell_volume                     667.479
loop_
_atom_site_label
_atom_site_type_symbol
_atom_site_fract_x
_atom_site_fract_y
_atom_site_fract_z
Mn1 Mn 0.0000 0.0000 0.0000
O1 O 0.11521(14) -0.15662(10) -0.12036(11)
O2 O -0.05793(16) -0.28918(11) -0.30091(12)
O3 O 0.39792(15) -0.24848(11) 0.16376(11)
O4 O 0.46703(15) -0.33228(11) -0.03341(12)
O5 O 0.27838(17) 0.11544(12) 0.05770(14)
O6 O 0.07382(17) -0.11806(12) 0.18012(13)
C5 C 0.0177(2) -0.38959(15) -0.08460(15)
C6 C -0.1499(2) -0.47912(15) -0.10515(15)
H8 H -0.2533 -0.4647 -0.1780
C7 C 0.1699(2) -0.41134(15) 0.02222(15)
C8 C 0.0256(2) -0.26974(15) -0.17585(16)
C9 C 0.3594(2) -0.32216(14) 0.05188(16)
H9 H 0.363(2) 0.081(2) 0.108(2)
H10 H 0.338(3) 0.1799(19) 0.030(2)
H11 H 0.084(4) -0.076(2) 0.2551(18)
H12 H 0.166(2) -0.161(2) 0.177(3)
C7A C -0.1699(2) -0.58866(15) -0.02222(15)
C5A C -0.0177(2) -0.61041(15) 0.08460(15)
C6A C 0.1499(2) -0.52088(15) 0.10515(15)
H8A H 0.2533 -0.5353 0.1780
C8A C -0.0256(2) -0.73026(15) 0.17585(16)
O1A O -0.11521(14) -0.84338(10) 0.12036(11)
O2A O 0.05793(16) -0.71082(11) 0.30091(12)
C9A C -0.3594(2) -0.67784(14) -0.05188(16)
O3A O -0.39792(15) -0.75152(11) -0.16376(11)
O4A O -0.46703(15) -0.66772(11) 0.03341(12)
O5A O -0.27838(17) -0.11544(12) -0.05770(14)
H9A H -0.363(2) -0.081(2) -0.108(2)
H10A H -0.338(3) -0.1799(19) -0.030(2)
O6A O -0.07382(17) 0.11806(12) -0.18012(13)
H11A H -0.084(4) 0.076(2) -0.2551(18)
H12A H -0.166(2) 0.161(2) -0.177(3)
O1A_2 O -0.11521(14) 0.15662(10) 0.12036(11)
Mn1_2 Mn 0.0000 -1.0000 0.0000
O7 O -0.1248(2) -0.04241(14) -0.41646(14)
H13 H -0.100(4) -0.1145(18) -0.382(3)
H14 H -0.073(3) -0.035(3) -0.477(2)
O8 O 0.57918(17) 0.01300(12) 0.22000(14)
H15 H 0.676(2) 0.042(3) 0.195(3)
H16 H 0.554(3) -0.0666(15) 0.195(3)
N1 N -0.64064(19) -0.41275(15) -0.30495(15)
H1 H -0.6071 -0.4022 -0.2136
N2 N -0.76137(19) -0.50107(14) -0.51103(15)
H2 H -0.8222 -0.5593 -0.5803
C1 C -0.8141(3) -0.65044(19) -0.3181(2)
H3 H -0.9026 -0.7086 -0.3917
H4 H -0.8812 -0.6244 -0.2444
H5 H -0.7071 -0.7019 -0.2791
C2 C -0.7404(2) -0.52394(17) -0.37712(17)
C3 C -0.6731(2) -0.37190(17) -0.52513(19)
H6 H -0.6667 -0.3301 -0.6098
C4 C -0.5981(3) -0.31674(18) -0.39571(19)
H7 H -0.5288 -0.2281 -0.3714
O9? O -0.4726(5) -0.0355(5) -0.5215(4)
H17? H -0.526(6) -0.018(7) -0.458(4)
H18? H -0.396(5) 0.020(4) -0.473(5)
loop_
_geom_bond_atom_site_label_1
_geom_bond_atom_site_label_2
_geom_bond_site_symmetry_1
_geom_bond_site_symmetry_2
Mn1 O1 1_555 1_555
O1 C8 1_555 1_555
O2 C8 1_555 1_555
O3 C9 1_555 1_555
O4 C9 1_555 1_555
O5 Mn1 1_555 1_555
O6 Mn1 1_555 1_555
O7 H13 1_555 1_555
O8 H15 1_555 1_555
N1 H1 1_555 1_555
N2 H2 1_555 1_555
C1 H3 1_555 1_555
H4 C1 1_555 1_555
H5 C1 1_555 1_555
C2 N1 1_555 1_555
C3 N2 1_555 1_555
H6 C3 1_555 1_555
C4 N1 1_555 1_555
H7 C4 1_555 1_555
C5 C6 1_555 1_555
C6 H8 1_555 1_555
C7 C5 1_555 1_555
C8 C5 1_555 1_555
C9 C7 1_555 1_555
H9 O5 1_555 1_555
H10 O5 1_555 1_555
H11 O6 1_555 1_555
H12 O6 1_555 1_555
H14 O7 1_555 1_555
H16 O8 1_555 1_555
C7A C6 1_555 1_555
C5A C7A 1_555 1_555
C6A C7 1_555 1_555
H8A C6A 1_555 1_555
C8A C5A 1_555 1_555
O1A C8A 1_555 1_555
O2A C8A 1_555 1_555
C9A C7A 1_555 1_555
O3A C9A 1_555 1_555
O4A C9A 1_555 1_555
O5A Mn1 1_555 1_555
H9A O5A 1_555 1_555
H10A O5A 1_555 1_555
O6A Mn1 1_555 1_555
H11A O6A 1_555 1_555
H12A O6A 1_555 1_555
O1A_2 Mn1 1_555 1_555
Mn1_2 O1A 1_555 1_555
N2 C2 1_555 1_555
C1 C2 1_555 1_555
C3 C4 1_555 1_555
C5A C6A 1_555 1_555

#END
