
#######################################################################
#
#                 Cambridge Crystallographic Data Centre
#                                CCDC 
#
#######################################################################
#
# If this CIF has been generated from an entry in the Cambridge 
# Structural Database, then it will include bibliographic, chemical, 
# crystal, experimental, refinement or atomic coordinate data resulting 
# from the CCDC's data processing and validation procedures.
#
#######################################################################

data_OJOTAI
_symmetry_cell_setting           triclinic
_symmetry_space_group_name_H-M   'P -1'
_symmetry_Int_Tables_number      2
_space_group_name_Hall           '-P 1'
loop_
_symmetry_equiv_pos_site_id
_symmetry_equiv_pos_as_xyz
1 x,y,z
2 -x,-y,-z
_cell_length_a                   10.172(1)
_cell_length_b                   10.685(1)
_cell_length_c                   11.292(1)
_cell_angle_alpha                115.791(5)
_cell_angle_beta                 91.574(5)
_cell_angle_gamma                111.240(5)
_cell_volume                     1004.62
loop_
_atom_site_label
_atom_site_type_symbol
_atom_site_fract_x
_atom_site_fract_y
_atom_site_fract_z
Mn1 Mn 0.5000 0.5000 0.0000
O1 O 0.29081(11) 0.31990(12) -0.01305(11)
O2 O 0.38928(12) 0.21726(14) 0.07814(13)
O3 O 0.26917(13) 0.01918(13) 0.23829(12)
O4 O 0.26717(13) 0.24842(13) 0.32171(11)
O5 O 0.62545(12) 0.38569(14) 0.03674(12)
N1 N 0.5289(2) 0.6344(2) 0.22264(13)
N2 N 0.6021(2) 0.7178(2) 0.43867(14)
C1 C 0.28406(15) 0.2262(2) 0.03008(14)
C2 C 0.22622(15) 0.1124(2) 0.23188(14)
C3 C 0.13554(15) 0.1136(2) 0.01903(14)
C4 C 0.0231(2) 0.0588(2) -0.08815(14)
C5 C 0.11185(15) 0.0543(2) 0.10908(14)
C6 C 0.5499(2) 0.5967(2) 0.3159(2)
C7 C 0.6164(3) 0.8415(2) 0.4250(2)
C8 C 0.5714(3) 0.7897(2) 0.2920(2)
H1 H 0.0384 0.0991 -0.1474
H2 H 0.5301 0.4972 0.2980
H3 H 0.6509 0.9425 0.4934
H4 H 0.5703 0.8505 0.2531
H11 H 0.6233 0.7177 0.5130
H14 H 0.5602 0.3206 0.0537
H15 H 0.6818 0.3400 -0.0020
C5A C -0.11185(15) -0.0543(2) -0.10908(14)
C2A C -0.22622(15) -0.1124(2) -0.23188(14)
O3A O -0.26917(13) -0.01918(13) -0.23829(12)
O4A O -0.26717(13) -0.24842(13) -0.32171(11)
C3A C -0.13554(15) -0.1136(2) -0.01903(14)
C1A C -0.28406(15) -0.2262(2) -0.03008(14)
O1A O -0.29081(11) -0.31990(12) 0.01305(11)
O2A O -0.38928(12) -0.21726(14) -0.07814(13)
C4A C -0.0231(2) -0.0588(2) 0.08815(14)
H1A H -0.0384 -0.0991 0.1474
O5A O 0.37455(12) 0.61431(14) -0.03674(12)
H14A H 0.4398 0.6794 -0.0537
H15A H 0.3182 0.6600 0.0020
N1A N 0.4711(2) 0.3656(2) -0.22264(13)
N2A N 0.3979(2) 0.2822(2) -0.43867(14)
C6A C 0.4501(2) 0.4033(2) -0.3159(2)
C7A C 0.3836(3) 0.1585(2) -0.4250(2)
C8A C 0.4286(3) 0.2103(2) -0.2920(2)
H2A H 0.4699 0.5028 -0.2980
H3A H 0.3491 0.0575 -0.4934
H4A H 0.4297 0.1495 -0.2531
H11A H 0.3767 0.2823 -0.5130
O1A_2 O 0.70919(11) 0.68010(12) 0.01305(11)
Mn1_2 Mn -0.5000 -0.5000 0.0000
Mn2 Mn 0.0000 0.5000 0.5000
O6 O 0.1351(2) 0.4372(2) 0.35303(13)
N3 N -0.1983(2) 0.3010(2) 0.35415(15)
N4 N -0.4273(2) 0.1472(2) 0.2667(2)
N5 N -0.0317(2) 0.6401(2) 0.41087(15)
N6 N -0.1111(2) 0.7007(2) 0.2694(2)
C9 C -0.3301(2) 0.2666(2) 0.3760(2)
C10 C -0.3550(3) 0.1033(2) 0.1688(2)
C11 C -0.2141(2) 0.1977(2) 0.2230(2)
C12 C -0.1227(2) 0.5897(2) 0.2989(2)
C13 C -0.0064(4) 0.8300(3) 0.3677(3)
C14 C 0.0412(3) 0.7925(3) 0.4541(2)
H5 H -0.3526 0.3188 0.4572
H6 H -0.3949 0.0231 0.0814
H7 H -0.1393 0.1929 0.1781
H8 H -0.1881 0.4882 0.2464
H9 H 0.0274 0.9272 0.3749
H10 H 0.1128 0.8609 0.5329
H12 H -0.5191 0.1062 0.2596
H13 H -0.1609 0.6914 0.2006
H16 H 0.1786 0.3816 0.3456
H17 H 0.1235 0.4415 0.2770
O6A O -0.1351(2) 0.5628(2) 0.64697(13)
H16A H -0.1786 0.6184 0.6544
H17A H -0.1235 0.5585 0.7230
N3A N 0.1983(2) 0.6990(2) 0.64585(15)
N4A N 0.4273(2) 0.8528(2) 0.7333(2)
C9A C 0.3301(2) 0.7334(2) 0.6240(2)
C10A C 0.3550(3) 0.8967(2) 0.8312(2)
C11A C 0.2141(2) 0.8023(2) 0.7770(2)
H5A H 0.3526 0.6812 0.5428
H6A H 0.3949 0.9769 0.9186
H7A H 0.1393 0.8071 0.8219
H12A H 0.5191 0.8938 0.7404
N5A N 0.0317(2) 0.3599(2) 0.58913(15)
N6A N 0.1111(2) 0.2993(2) 0.7306(2)
C12A C 0.1227(2) 0.4103(2) 0.7011(2)
C13A C 0.0064(4) 0.1700(3) 0.6323(3)
C14A C -0.0412(3) 0.2075(3) 0.5459(2)
H8A H 0.1881 0.5118 0.7536
H9A H -0.0274 0.0728 0.6251
H10A H -0.1128 0.1391 0.4671
H13A H 0.1609 0.3086 0.7994
O7 O 0.10239(15) 0.4526(2) 0.11226(14)
H18 H 0.1603 0.4208 0.0703
H19 H 0.1336 0.5612 0.1337
O8 O 0.17151(15) 0.71162(15) 0.07531(15)
H20 H 0.2031 0.8212 0.1311
H21 H 0.0905 0.6800 0.0148
loop_
_geom_bond_atom_site_label_1
_geom_bond_atom_site_label_2
_geom_bond_site_symmetry_1
_geom_bond_site_symmetry_2
Mn1 O1 1_555 1_555
Mn2 O6 1_555 1_555
O1 C1 1_555 1_555
O2 C1 1_555 1_555
O3 C2 1_555 1_555
O4 C2 1_555 1_555
O5 Mn1 1_555 1_555
O6 H16 1_555 1_555
O7 H18 1_555 1_555
O8 H20 1_555 1_555
N1 Mn1 1_555 1_555
N2 C6 1_555 1_555
N3 Mn2 1_555 1_555
N4 C9 1_555 1_555
N5 Mn2 1_555 1_555
N6 C12 1_555 1_555
C1 C3 1_555 1_555
C2 C5 1_555 1_555
C3 C4 1_555 1_555
C4 H1 1_555 1_555
C5 C3 1_555 1_555
C6 N1 1_555 1_555
C7 N2 1_555 1_555
C8 N1 1_555 1_555
C9 N3 1_555 1_555
C10 N4 1_555 1_555
C11 N3 1_555 1_555
C12 N5 1_555 1_555
C13 N6 1_555 1_555
C14 N5 1_555 1_555
H2 C6 1_555 1_555
H3 C7 1_555 1_555
H4 C8 1_555 1_555
H5 C9 1_555 1_555
H6 C10 1_555 1_555
H7 C11 1_555 1_555
H8 C12 1_555 1_555
H9 C13 1_555 1_555
H10 C14 1_555 1_555
H11 N2 1_555 1_555
H12 N4 1_555 1_555
H13 N6 1_555 1_555
H14 O5 1_555 1_555
H15 O5 1_555 1_555
H17 O6 1_555 1_555
H19 O7 1_555 1_555
H21 O8 1_555 1_555
C5A C4 1_555 1_555
C2A C5A 1_555 1_555
O3A C2A 1_555 1_555
O4A C2A 1_555 1_555
C3A C5A 1_555 1_555
C1A C3A 1_555 1_555
O1A C1A 1_555 1_555
O2A C1A 1_555 1_555
C4A C5 1_555 1_555
H1A C4A 1_555 1_555
O5A Mn1 1_555 1_555
H14A O5A 1_555 1_555
H15A O5A 1_555 1_555
N1A Mn1 1_555 1_555
N2A C6A 1_555 1_555
C6A N1A 1_555 1_555
C7A N2A 1_555 1_555
C8A N1A 1_555 1_555
H2A C6A 1_555 1_555
H3A C7A 1_555 1_555
H4A C8A 1_555 1_555
H11A N2A 1_555 1_555
O6A Mn2 1_555 1_555
H16A O6A 1_555 1_555
H17A O6A 1_555 1_555
N3A Mn2 1_555 1_555
N4A C9A 1_555 1_555
C9A N3A 1_555 1_555
C10A N4A 1_555 1_555
C11A N3A 1_555 1_555
H5A C9A 1_555 1_555
H6A C10A 1_555 1_555
H7A C11A 1_555 1_555
H12A N4A 1_555 1_555
N5A Mn2 1_555 1_555
N6A C12A 1_555 1_555
C12A N5A 1_555 1_555
C13A N6A 1_555 1_555
C14A N5A 1_555 1_555
H8A C12A 1_555 1_555
H9A C13A 1_555 1_555
H10A C14A 1_555 1_555
H13A N6A 1_555 1_555
O1A_2 Mn1 1_555 1_555
Mn1_2 O1A 1_555 1_555
C7 C8 1_555 1_555
C10 C11 1_555 1_555
C13 C14 1_555 1_555
C3A C4A 1_555 1_555
C7A C8A 1_555 1_555
C10A C11A 1_555 1_555
C13A C14A 1_555 1_555

#END
