
#######################################################################
#
#                 Cambridge Crystallographic Data Centre
#                                CCDC 
#
#######################################################################
#
# If this CIF has been generated from an entry in the Cambridge 
# Structural Database, then it will include bibliographic, chemical, 
# crystal, experimental, refinement or atomic coordinate data resulting 
# from the CCDC's data processing and validation procedures.
#
#######################################################################

data_OJUFOO
_symmetry_cell_setting           triclinic
_symmetry_space_group_name_H-M   'P -1'
_symmetry_Int_Tables_number      2
_space_group_name_Hall           '-P 1'
loop_
_symmetry_equiv_pos_site_id
_symmetry_equiv_pos_as_xyz
1 x,y,z
2 -x,-y,-z
_cell_length_a                   8.1189(4)
_cell_length_b                   9.3033(4)
_cell_length_c                   10.5462(5)
_cell_angle_alpha                104.65
_cell_angle_beta                 95.141(2)
_cell_angle_gamma                105.3270(10)
_cell_volume                     732.749
loop_
_atom_site_label
_atom_site_type_symbol
_atom_site_fract_x
_atom_site_fract_y
_atom_site_fract_z
Mn1 Mn 0.23663(8) 0.95449(7) 0.10717(6)
O1 O 0.1754(4) 1.0640(3) -0.0370(3)
O2 O 0.0177(4) 1.2216(3) -0.0601(3)
O3 O 0.4981(4) 1.1176(3) 0.1392(3)
O4 O 0.6699(4) 1.2228(3) 0.0113(3)
N1 N 0.1667(5) 1.1157(4) 0.2874(3)
N2 N 0.2897(4) 0.8714(4) 0.2887(3)
C1 C 0.1061(6) 1.2346(5) 0.2887(4)
H3 H 0.0786 1.2528 0.2078
C2 C 0.0807(6) 1.3346(6) 0.4034(5)
H4 H 0.0398 1.4179 0.3988
C3 C 0.1171(6) 1.3073(6) 0.5222(5)
H5 H 0.1030 1.3731 0.6002
C4 C 0.1758(6) 1.1796(5) 0.5262(4)
C5 C 0.2081(6) 1.1395(6) 0.6460(5)
H6 H 0.1908 1.2004 0.7253
C6 C 0.2634(6) 1.0145(6) 0.6464(5)
H7 H 0.2827 0.9902 0.7256
C7 C 0.2923(6) 0.9195(6) 0.5259(5)
C8 C 0.3482(6) 0.7880(6) 0.5211(5)
H8 H 0.3684 0.7595 0.5981
C9 C 0.3725(6) 0.7028(6) 0.4031(5)
H9 H 0.4086 0.6150 0.3984
C10 C 0.3425(6) 0.7486(5) 0.2881(5)
H10 H 0.3605 0.6898 0.2080
C11 C 0.2022(5) 1.0881(5) 0.4062(4)
C12 C 0.2620(5) 0.9555(5) 0.4065(4)
C13 C 0.1583(5) 1.1972(5) -0.0229(4)
C14 C 0.3067(6) 1.3391(5) 0.0412(5)
H11 H 0.2847 1.4342 0.0512
C15 C 0.4677(6) 1.3446(5) 0.0858(4)
H12 H 0.5423 1.4439 0.1278
C16 C 0.5463(5) 1.2148(5) 0.0786(4)
O2A O -0.0177(4) 0.7784(3) 0.0601(3)
O4A O 0.3301(4) 0.7772(3) -0.0113(3)
Mn1A Mn -0.23663(8) 1.04551(7) -0.10717(6)
Mn1A_2 Mn 0.76337(8) 1.04551(7) -0.10717(6)
O5 O -0.0509(6) 0.5131(5) 0.1701(4)
H1 H -0.107(8) 0.426(4) 0.118(5)
H2 H -0.023(10) 0.588(6) 0.136(7)
loop_
_geom_bond_atom_site_label_1
_geom_bond_atom_site_label_2
_geom_bond_site_symmetry_1
_geom_bond_site_symmetry_2
Mn1 O1 1_555 1_555
O1 C13 1_555 1_555
O2 C13 1_555 1_555
O3 Mn1 1_555 1_555
O4 C16 1_555 1_555
O5 H1 1_555 1_555
H2 O5 1_555 1_555
N1 Mn1 1_555 1_555
N2 Mn1 1_555 1_555
C1 N1 1_555 1_555
H3 C1 1_555 1_555
C2 C1 1_555 1_555
H4 C2 1_555 1_555
C3 C2 1_555 1_555
H5 C3 1_555 1_555
C4 C3 1_555 1_555
C5 C4 1_555 1_555
H6 C5 1_555 1_555
C6 C5 1_555 1_555
H7 C6 1_555 1_555
C7 C6 1_555 1_555
C8 C7 1_555 1_555
H8 C8 1_555 1_555
C9 C8 1_555 1_555
H9 C9 1_555 1_555
C10 N2 1_555 1_555
H10 C10 1_555 1_555
C11 N1 1_555 1_555
C12 N2 1_555 1_555
C13 C14 1_555 1_555
C14 H11 1_555 1_555
C15 C14 1_555 1_555
H12 C15 1_555 1_555
C16 O3 1_555 1_555
O2A Mn1 1_555 1_555
O4A Mn1 1_555 1_555
Mn1A O2 1_555 1_555
Mn1A_2 O4 1_555 1_555
C4 C11 1_555 1_555
C7 C12 1_555 1_555
C9 C10 1_555 1_555
C11 C12 1_555 1_555
C15 C16 1_555 1_555

#END
