
#######################################################################
#
#                 Cambridge Crystallographic Data Centre
#                                CCDC 
#
#######################################################################
#
# If this CIF has been generated from an entry in the Cambridge 
# Structural Database, then it will include bibliographic, chemical, 
# crystal, experimental, refinement or atomic coordinate data resulting 
# from the CCDC's data processing and validation procedures.
#
#######################################################################

data_OJUFUU01
_symmetry_cell_setting           monoclinic
_symmetry_space_group_name_H-M   'P 21/c'
_symmetry_Int_Tables_number      14
_space_group_name_Hall           '-P 2ybc'
loop_
_symmetry_equiv_pos_site_id
_symmetry_equiv_pos_as_xyz
1 x,y,z
2 x,1/2-y,1/2+z
3 -x,-y,-z
4 -x,1/2+y,1/2-z
_cell_length_a                   11.4546(3)
_cell_length_b                   13.3064(4)
_cell_length_c                   8.8076(3)
_cell_angle_alpha                90
_cell_angle_beta                 111.455(1)
_cell_angle_gamma                90
_cell_volume                     1249.43
loop_
_atom_site_label
_atom_site_type_symbol
_atom_site_fract_x
_atom_site_fract_y
_atom_site_fract_z
Mn1 Mn 0.69716(3) 0.07607(2) 0.59959(4)
O1 O 0.74854(2) 0.18055(2) 0.4436(2)
O2 O 0.71405(2) 0.31362(2) 0.2848(2)
O3 O 0.51300(2) 0.10816(2) 0.43674(2)
O4 O 0.36322(2) 0.02231(2) 0.24622(2)
N1 N 0.90487(2) 0.04165(2) 0.7194(2)
N2 N 0.74192(2) -0.06551(2) 0.4752(2)
C1 C 0.69156(2) 0.22474(2) 0.3113(3)
C2 C 0.5977(2) 0.17132(2) 0.1694(3)
H1 H 0.6089 0.1805 0.0710
C3 C 0.5009(2) 0.11285(2) 0.1600(3)
H2 H 0.4539 0.0894 0.0561
C4 C 0.4568(2) 0.07946(2) 0.2915(3)
C5 C 0.9820(2) 0.09265(2) 0.8486(3)
H3 H 0.9511 0.1493 0.8832
C6 C 1.1050(2) 0.06513(2) 0.9325(3)
H4 H 1.1561 0.1034 1.0198
C7 C 1.1504(2) -0.0194(2) 0.8851(3)
H5 H 1.2319 -0.0410 0.9422
C8 C 1.0732(2) -0.07206(2) 0.7510(3)
H6 H 1.1026 -0.1293 0.7158
C9 C 0.9514(2) -0.03884(2) 0.6691(3)
C10 C 0.8634(2) -0.09286(2) 0.5231(3)
C11 C 0.9045(2) -0.16634(2) 0.4437(3)
H7 H 0.9893 -0.1821 0.4772
C12 C 0.8175(3) -0.21586(2) 0.3137(3)
H8 H 0.8431 -0.2654 0.2582
C13 C 0.6922(3) -0.19148(2) 0.2665(3)
H9 H 0.6318 -0.2250 0.1808
C14 C 0.6592(2) -0.11608(2) 0.3502(3)
H10 H 0.5748 -0.0992 0.3182
O2A O 0.71405(2) 0.18638(2) 0.7848(2)
O4B O 0.63678(2) -0.02231(2) 0.75378(2)
Mn1A Mn 0.69716(3) 0.42393(2) 0.09959(4)
Mn1B Mn 0.30284(3) -0.07607(2) 0.40041(4)
loop_
_geom_bond_atom_site_label_1
_geom_bond_atom_site_label_2
_geom_bond_site_symmetry_1
_geom_bond_site_symmetry_2
Mn1 O1 1_555 1_555
O1 C1 1_555 1_555
O2 C1 1_555 1_555
O3 Mn1 1_555 1_555
O4 C4 1_555 1_555
N1 Mn1 1_555 1_555
N2 Mn1 1_555 1_555
C1 C2 1_555 1_555
C2 H1 1_555 1_555
C3 C2 1_555 1_555
H2 C3 1_555 1_555
C4 O3 1_555 1_555
C5 N1 1_555 1_555
H3 C5 1_555 1_555
C6 C5 1_555 1_555
H4 C6 1_555 1_555
C7 C6 1_555 1_555
H5 C7 1_555 1_555
C8 C7 1_555 1_555
H6 C8 1_555 1_555
C9 N1 1_555 1_555
C10 N2 1_555 1_555
C11 C10 1_555 1_555
H7 C11 1_555 1_555
C12 C11 1_555 1_555
H8 C12 1_555 1_555
C13 C12 1_555 1_555
H9 C13 1_555 1_555
C14 N2 1_555 1_555
H10 C14 1_555 1_555
O2A Mn1 1_555 1_555
O4B Mn1 1_555 1_555
Mn1A O2 1_555 1_555
Mn1B O4 1_555 1_555
C3 C4 1_555 1_555
C8 C9 1_555 1_555
C9 C10 1_555 1_555
C13 C14 1_555 1_555

#END
