
#######################################################################
#
#                 Cambridge Crystallographic Data Centre
#                                CCDC 
#
#######################################################################
#
# If this CIF has been generated from an entry in the Cambridge 
# Structural Database, then it will include bibliographic, chemical, 
# crystal, experimental, refinement or atomic coordinate data resulting 
# from the CCDC's data processing and validation procedures.
#
#######################################################################

data_OJUVEV
_symmetry_cell_setting           monoclinic
_symmetry_space_group_name_H-M   'P 21/m'
_symmetry_Int_Tables_number      11
_space_group_name_Hall           '-P 2yb'
loop_
_symmetry_equiv_pos_site_id
_symmetry_equiv_pos_as_xyz
1 x,y,z
2 -x,1/2+y,-z
3 -x,-y,-z
4 x,1/2-y,z
_cell_length_a                   9.3319(4)
_cell_length_b                   22.4980(10)
_cell_length_c                   10.1430(4)
_cell_angle_alpha                90
_cell_angle_beta                 112.340(2)
_cell_angle_gamma                90
_cell_volume                     1969.68
loop_
_atom_site_label
_atom_site_type_symbol
_atom_site_fract_x
_atom_site_fract_y
_atom_site_fract_z
C1 C 0.4898(3) 0.13094(12) 0.2545(3)
C2 C 0.6303(3) 0.05118(13) 0.4108(3)
H1 H 0.6992 0.0383 0.5021
C3 C 0.4696(3) 0.02941(13) 0.1720(3)
H2 H 0.4287 0.0016 0.0964
C4 C 0.4283(3) 0.08915(12) 0.1457(3)
C5 C 0.5957(3) 0.11152(12) 0.3889(3)
C6 C 0.5675(3) 0.00929(13) 0.3037(3)
C7 C 0.6075(4) -0.05602(14) 0.3331(4)
H3 H 0.5543 -0.0791 0.2462
H4 H 0.7197 -0.0613 0.3635
H5 H 0.5743 -0.0698 0.4087
C8 C 0.3170(4) 0.10840(14) 0.0000(3)
H6 H 0.2826 0.0735 -0.0619
H7 H 0.2271 0.1279 0.0088
H8 H 0.3690 0.1363 -0.0413
Li1 Li 0.6204(7) 0.2500 0.2576(8)
Br1 Br 0.88075(5) 0.2500 0.27035(5)
C9 C 0.6733(4) 0.15490(14) 0.5069(3)
H9 H 0.7401 0.1333 0.5920
H10 H 0.7361 0.1827 0.4772
H11 H 0.5945 0.1770 0.5287
N1 N 0.4544(2) 0.19247(9) 0.2300(2)
C10 C 0.3648(3) 0.21610(12) 0.2972(3)
C11 C 0.2840(3) 0.18456(13) 0.3612(3)
H12 H 0.2871 0.1423 0.3616
H13 H 0.2247 0.2048 0.4053
O1 O 0.9300(3) 0.10927(10) 0.1104(3)
C12 C 0.8265(5) 0.10592(19) -0.0467(5)
H14 H 0.8316 0.1444 -0.0919
H15 H 0.7181 0.1002 -0.0551
C13 C 0.8751(5) 0.0722(2) 0.1919(5)
H16 H 0.7782 0.0887 0.1951
H17 H 0.8523 0.0322 0.1479
Li2 Li 1.0439(5) 0.1829(2) 0.1752(5)
C14 C 0.9915(5) 0.0677(3) 0.3352(5)
H18 H 1.0905 0.0556 0.3308
H19 H 1.0037 0.1064 0.3827
H20 H 0.9590 0.0380 0.3890
C15 C 0.8648(6) 0.0598(2) -0.1236(5)
H21 H 0.9685 0.0669 -0.1233
H22 H 0.8630 0.0214 -0.0784
H23 H 0.7891 0.0593 -0.2221
Li3 Li 0.3438(8) 0.2500 0.0539(7)
Br2 Br 1.04630(4) 0.2500 -0.02192(4)
O2 O 0.3653(3) 0.2500 -0.1306(3)
C16 C 0.2357(6) 0.2500 -0.2659(5)
C17 C 0.1509(9) 0.2965(4) -0.3266(7)
C18 C 0.5100(8) 0.2740(3) -0.1407(8)
C19 C 0.5831(11) 0.2292(4) -0.1957(15)
N1C N 0.4544(2) 0.30753(9) 0.2300(2)
C10C C 0.3648(3) 0.28390(12) 0.2972(3)
Li2C Li 1.0439(5) 0.3171(2) 0.1752(5)
Li3_2 Li 1.3438(8) 0.2500 0.0539(7)
Br2_2 Br 0.04630(4) 0.2500 -0.02192(4)
C17C C 0.1509(9) 0.2035(4) -0.3266(7)
C18C C 0.5100(8) 0.2260(3) -0.1407(8)
C19C C 0.5831(11) 0.2708(4) -0.1957(15)
loop_
_geom_bond_atom_site_label_1
_geom_bond_atom_site_label_2
_geom_bond_site_symmetry_1
_geom_bond_site_symmetry_2
C1 C4 1_555 1_555
C2 H1 1_555 1_555
C3 H2 1_555 1_555
C4 C3 1_555 1_555
C5 C1 1_555 1_555
C6 C2 1_555 1_555
C7 C6 1_555 1_555
H3 C7 1_555 1_555
H4 C7 1_555 1_555
H5 C7 1_555 1_555
C8 C4 1_555 1_555
H6 C8 1_555 1_555
H7 C8 1_555 1_555
H8 C8 1_555 1_555
Li1 Br1 1_555 1_555
Br1 Li2 1_555 1_555
C9 C5 1_555 1_555
H9 C9 1_555 1_555
H10 C9 1_555 1_555
H11 C9 1_555 1_555
N1 C1 1_555 1_555
C10 N1 1_555 1_555
C11 C10 1_555 1_555
H12 C11 1_555 1_555
H13 C11 1_555 1_555
O1 C12 1_555 1_555
C12 H14 1_555 1_555
H15 C12 1_555 1_555
C13 O1 1_555 1_555
H16 C13 1_555 1_555
H17 C13 1_555 1_555
Li2 O1 1_555 1_555
C14 C13 1_555 1_555
H18 C14 1_555 1_555
H19 C14 1_555 1_555
H20 C14 1_555 1_555
C15 C12 1_555 1_555
H21 C15 1_555 1_555
H22 C15 1_555 1_555
H23 C15 1_555 1_555
Li3 N1 1_555 1_555
Br2 Li2 1_555 1_555
O2 Li3 1_555 1_555
C16 O2 1_555 1_555
C17 C16 1_555 1_555
C18 O2 1_555 1_555
C19 C18 1_555 1_555
N1C Li1 1_555 1_555
C10C C10 1_555 1_555
Li2C Br1 1_555 1_555
Li3_2 Br2 1_555 1_555
Br2_2 Li3 1_555 1_555
C17C C16 1_555 1_555
C18C O2 1_555 1_555
C19C C18 1_555 1_555
C2 C5 1_555 1_555
C3 C6 1_555 1_555
Li1 N1 1_555 1_555
Li3 N1C 1_555 1_555
Br2 Li2C 1_555 1_555
C18 C18C 1_555 1_555
C19 C18C 1_555 1_555
C19 C19C 1_555 1_555
N1C C10C 1_555 1_555
C18C C19C 1_555 1_555

#END
