
#######################################################################
#
#                 Cambridge Crystallographic Data Centre
#                                CCDC 
#
#######################################################################
#
# If this CIF has been generated from an entry in the Cambridge 
# Structural Database, then it will include bibliographic, chemical, 
# crystal, experimental, refinement or atomic coordinate data resulting 
# from the CCDC's data processing and validation procedures.
#
#######################################################################

data_OKASEZ
_symmetry_cell_setting           triclinic
_symmetry_space_group_name_H-M   'P -1'
_symmetry_Int_Tables_number      2
_space_group_name_Hall           '-P 1'
loop_
_symmetry_equiv_pos_site_id
_symmetry_equiv_pos_as_xyz
1 x,y,z
2 -x,-y,-z
_cell_length_a                   9.2580(5)
_cell_length_b                   9.4240(5)
_cell_length_c                   9.6540(5)
_cell_angle_alpha                90.9640(9)
_cell_angle_beta                 112.6910(9)
_cell_angle_gamma                101.1450(10)
_cell_volume                     758.542
loop_
_atom_site_label
_atom_site_type_symbol
_atom_site_fract_x
_atom_site_fract_y
_atom_site_fract_z
Co1 Co 0.5000 0.5000 0.0000
Co2 Co 0.80423(6) 0.56580(6) 0.49773(6)
Co3 Co 0.91554(6) 0.15485(6) -0.12240(6)
O1 O 1.0985(3) 0.2959(3) 0.0607(3)
O2 O 0.9891(3) 0.2382(3) -0.3016(3)
N1 N 0.7353(3) 0.4584(3) 0.1652(3)
O3 O 0.7766(3) 0.3069(3) -0.1549(3)
O4 O 1.2150(3) 0.3475(4) 0.3096(3)
N2 N 0.9653(3) 0.4278(3) 0.3302(3)
O5 O 0.5795(3) 0.3870(3) -0.1276(3)
N3 N 0.8320(3) 0.4738(3) 0.3118(3)
C1 C 0.8096(4) 0.4005(4) 0.0895(4)
C2 C 0.9556(4) 0.3838(4) 0.1927(4)
C3 C 1.0984(4) 0.3374(4) 0.1856(4)
C4 C 0.7185(4) 0.3602(4) -0.0751(4)
C5 C 1.1547(4) 0.0751(4) -0.2193(4)
C6 C 1.0960(5) 0.1867(4) -0.3191(4)
N4 N 1.0895(4) 0.0420(3) -0.1184(3)
O6 O 0.3926(3) 0.3094(3) 0.0523(4)
O7 O 0.7360(4) 0.0109(4) -0.2945(4)
O8 O 1.1578(4) 0.2236(3) -0.4145(3)
N5 N 1.2782(4) -0.0802(4) -0.0756(4)
H1 H 1.3424 -0.1369 -0.0359
N6 N 1.1665(4) -0.0516(3) -0.0322(4)
C7 C 1.2726(5) -0.0045(4) -0.1926(4)
C8 C 1.3775(5) -0.0164(5) -0.2730(5)
O9 O 1.4668(4) -0.1012(4) -0.2443(4)
O10 O 1.3661(4) 0.0670(4) -0.3845(4)
O11 O 0.7234(4) 0.3509(4) 0.5409(4)
O12 O 0.5634(4) 0.5643(5) 0.4002(4)
H2 H 0.304(3) 0.296(5) 0.063(5)
H3 H 0.441(5) 0.246(4) 0.093(5)
H4 H 0.652(4) -0.029(6) -0.283(6)
H5 H 0.710(7) 0.012(8) -0.388(3)
H6 H 1.274(8) 0.121(8) -0.403(7)
H7 H 0.514(7) 0.602(6) 0.320(5)
H8 H 0.679(7) 0.342(8) 0.602(6)
H9 H 0.507(7) 0.480(4) 0.389(7)
H10 H 0.799(5) 0.308(7) 0.569(7)
Co2A Co 0.19577(6) 0.43420(6) -0.49773(6)
Co2_2 Co -0.19577(6) 0.56580(6) -0.50227(6)
Co2_3 Co -0.19577(6) 0.56580(6) 0.49773(6)
Co2A_2 Co 1.19577(6) 0.43420(6) -0.49773(6)
Co2A_3 Co 1.19577(6) 0.43420(6) 0.50227(6)
Co3A Co 0.08446(6) 0.84515(6) 0.12240(6)
Co3_2 Co -0.08446(6) 1.15485(6) -0.12240(6)
Co3A_2 Co 1.08446(6) -0.15485(6) 0.12240(6)
O1A O -0.0985(3) 0.7041(3) -0.0607(3)
O2A O 0.0109(3) 0.7618(3) 0.3016(3)
N1A N 0.2647(3) 0.5416(3) -0.1652(3)
O3A O 0.2234(3) 0.6931(3) 0.1549(3)
O4A O -0.2150(3) 0.6525(4) -0.3096(3)
O4_2 O 0.2150(3) 0.3475(4) -0.6904(3)
O4A_2 O 0.7850(3) 0.6525(4) 0.6904(3)
N2A N 0.0347(3) 0.5722(3) -0.3302(3)
N2_2 N -0.0347(3) 0.4278(3) -0.6698(3)
N2A_2 N 1.0347(3) 0.5722(3) 0.6698(3)
O5A O 0.4205(3) 0.6130(3) 0.1276(3)
N3A N 0.1680(3) 0.5262(3) -0.3118(3)
C1A C 0.1904(4) 0.5995(4) -0.0895(4)
C2A C 0.0444(4) 0.6162(4) -0.1927(4)
C3A C -0.0984(4) 0.6626(4) -0.1856(4)
C4A C 0.2815(4) 0.6398(4) 0.0751(4)
C5A C -0.1547(4) 0.9249(4) 0.2193(4)
C6A C -0.0960(5) 0.8133(4) 0.3191(4)
N4A N -0.0895(4) 0.9580(3) 0.1184(3)
O6A O 0.6074(3) 0.6906(3) -0.0523(4)
O7A O 0.2640(4) 0.9891(4) 0.2945(4)
O8A O -0.1578(4) 0.7764(3) 0.4145(3)
O8_2 O 0.1578(4) 0.2236(3) -0.4145(3)
O8A_2 O 0.8422(4) 0.7764(3) 0.4145(3)
N5A N -0.2782(4) 1.0802(4) 0.0756(4)
H1A H -0.3424 1.1369 0.0359
N6A N -0.1665(4) 1.0516(3) 0.0322(4)
N6_2 N 0.1665(4) 0.9484(3) -0.0322(4)
N6A_2 N 0.8335(4) 0.0516(3) 0.0322(4)
C7A C -0.2726(5) 1.0045(4) 0.1926(4)
C8A C -0.3775(5) 1.0164(5) 0.2730(5)
O9A O -0.4668(4) 1.1012(4) 0.2443(4)
O10A O -0.3661(4) 0.9330(4) 0.3845(4)
O11A O 0.2766(4) 0.6491(4) -0.5409(4)
O12A O 0.4366(4) 0.4357(5) -0.4002(4)
H2A H 0.696(3) 0.704(5) -0.063(5)
H3A H 0.559(5) 0.754(4) -0.093(5)
H4A H 0.348(4) 1.029(6) 0.283(6)
H5A H 0.290(7) 0.988(8) 0.388(3)
H6A H -0.274(8) 0.879(8) 0.403(7)
H7A H 0.486(7) 0.398(6) -0.320(5)
H8A H 0.321(7) 0.658(8) -0.602(6)
H9A H 0.493(7) 0.520(4) -0.389(7)
H10A H 0.201(5) 0.692(7) -0.569(7)
loop_
_geom_bond_atom_site_label_1
_geom_bond_atom_site_label_2
_geom_bond_site_symmetry_1
_geom_bond_site_symmetry_2
Co1 N1 1_555 1_555
Co2 N3 1_555 1_555
Co3 O1 1_555 1_555
O1 C3 1_555 1_555
O2 Co3 1_555 1_555
N1 N3 1_555 1_555
O3 Co3 1_555 1_555
O4 C3 1_555 1_555
N2 N3 1_555 1_555
O5 Co1 1_555 1_555
C1 N1 1_555 1_555
C2 N2 1_555 1_555
C3 C2 1_555 1_555
C4 O3 1_555 1_555
C5 C6 1_555 1_555
C6 O2 1_555 1_555
N4 Co3 1_555 1_555
O6 Co1 1_555 1_555
O7 Co3 1_555 1_555
O8 C6 1_555 1_555
N5 H1 1_555 1_555
N6 N4 1_555 1_555
C7 C5 1_555 1_555
C8 C7 1_555 1_555
O9 C8 1_555 1_555
O10 C8 1_555 1_555
O11 Co2 1_555 1_555
O12 Co2 1_555 1_555
H2 O6 1_555 1_555
H3 O6 1_555 1_555
H4 O7 1_555 1_555
H5 O7 1_555 1_555
H6 O10 1_555 1_555
H7 O12 1_555 1_555
H8 O11 1_555 1_555
H9 O12 1_555 1_555
H10 O11 1_555 1_555
Co2A O4_2 1_555 1_555
Co2_2 O4A 1_555 1_555
Co2_3 O8A 1_555 1_555
Co2A_2 O8 1_555 1_555
Co2A_3 O4 1_555 1_555
Co3A O1A 1_555 1_555
Co3_2 N6A 1_555 1_555
Co3A_2 N6 1_555 1_555
O1A C3A 1_555 1_555
O2A Co3A 1_555 1_555
N1A Co1 1_555 1_555
O3A Co3A 1_555 1_555
O4A C3A 1_555 1_555
O4A_2 Co2 1_555 1_555
N2A Co2_2 1_555 1_555
N2_2 Co2A 1_555 1_555
N2A_2 Co2 1_555 1_555
O5A Co1 1_555 1_555
N3A Co2A 1_555 1_555
C1A N1A 1_555 1_555
C2A N2A 1_555 1_555
C3A C2A 1_555 1_555
C4A O3A 1_555 1_555
C5A C6A 1_555 1_555
C6A O2A 1_555 1_555
N4A Co3A 1_555 1_555
O6A Co1 1_555 1_555
O7A Co3A 1_555 1_555
O8A C6A 1_555 1_555
O8_2 Co2A 1_555 1_555
O8A_2 Co2 1_555 1_555
N5A H1A 1_555 1_555
N6A N4A 1_555 1_555
N6_2 Co3A 1_555 1_555
N6A_2 Co3 1_555 1_555
C7A C5A 1_555 1_555
C8A C7A 1_555 1_555
O9A C8A 1_555 1_555
O10A C8A 1_555 1_555
O11A Co2A 1_555 1_555
O12A Co2A 1_555 1_555
H2A O6A 1_555 1_555
H3A O6A 1_555 1_555
H4A O7A 1_555 1_555
H5A O7A 1_555 1_555
H6A O10A 1_555 1_555
H7A O12A 1_555 1_555
H8A O11A 1_555 1_555
H9A O12A 1_555 1_555
H10A O11A 1_555 1_555
N2 Co2A_3 1_555 1_555
O5 C4 1_555 1_555
C1 C2 1_555 1_555
C1 C4 1_555 1_555
C5 N4 1_555 1_555
N5 N6 1_555 1_555
N5 C7 1_555 1_555
N1A N3A 1_555 1_555
N2A N3A 1_555 1_555
O5A C4A 1_555 1_555
C1A C2A 1_555 1_555
C1A C4A 1_555 1_555
C5A N4A 1_555 1_555
N5A N6A 1_555 1_555
N5A C7A 1_555 1_555

#END
