
#######################################################################
#
#                 Cambridge Crystallographic Data Centre
#                                CCDC 
#
#######################################################################
#
# If this CIF has been generated from an entry in the Cambridge 
# Structural Database, then it will include bibliographic, chemical, 
# crystal, experimental, refinement or atomic coordinate data resulting 
# from the CCDC's data processing and validation procedures.
#
#######################################################################

data_OKATOJ
_symmetry_cell_setting           tetragonal
_symmetry_space_group_name_H-M   'P 42/n c m'
_symmetry_Int_Tables_number      138
_space_group_name_Hall           '-P 4ac 2ac'
loop_
_symmetry_equiv_pos_site_id
_symmetry_equiv_pos_as_xyz
1 x,y,z
2 1/2-y,x,1/2+z
3 1/2+x,-y,1/2-z
4 1/2-x,1/2-y,z
5 1/2+y,1/2+x,-z
6 y,1/2-x,1/2+z
7 -x,1/2+y,1/2-z
8 -y,-x,-z
9 -x,-y,-z
10 1/2+y,-x,1/2-z
11 1/2-x,y,1/2+z
12 1/2+x,1/2+y,-z
13 1/2-y,1/2-x,z
14 -y,1/2+x,1/2-z
15 x,1/2-y,1/2+z
16 y,x,z
_cell_length_a                   10.5114(5)
_cell_length_b                   10.5114(5)
_cell_length_c                   5.6593(3)
_cell_angle_alpha                90
_cell_angle_beta                 90
_cell_angle_gamma                90
_cell_volume                     625.293
loop_
_atom_site_label
_atom_site_type_symbol
_atom_site_fract_x
_atom_site_fract_y
_atom_site_fract_z
Na1 Na 0.6430(2) 0.6430(2) 0.2850(5)
O1 O 0.6386(2) 0.6386(2) 0.6807(6)
C1 C 0.6156(2) 0.4525(3) 0.9151(5)
C2 C 0.5702(3) 0.5702(3) 0.8387(8)
C1G C 0.5475(3) 0.3844(2) 1.0849(5)
C2G C 0.4298(3) 0.4298(3) 1.1613(8)
O1G O 0.3614(2) 0.3614(2) 1.3193(6)
C1H C 0.3844(2) 0.5475(3) 1.0849(5)
C1O C 0.4525(3) 0.6156(2) 0.9151(5)
Na1G Na 0.3570(2) 0.3570(2) 1.7150(5)
O1A O 0.8614(2) 0.6386(2) 0.1807(6)
O1E O 0.6386(2) 0.8614(2) 0.1807(6)
Na1A Na 0.8570(2) 0.6430(2) 0.7850(5)
Na1E Na 0.6430(2) 0.8570(2) 0.7850(5)
Na1B Na 0.1430(2) 0.3570(2) 1.2150(5)
Na1F Na 0.3570(2) 0.1430(2) 1.2150(5)
O1B O 0.1386(2) 0.3614(2) 1.8193(6)
O1F O 0.3614(2) 0.1386(2) 1.8193(6)
loop_
_geom_bond_atom_site_label_1
_geom_bond_atom_site_label_2
_geom_bond_site_symmetry_1
_geom_bond_site_symmetry_2
Na1 O1 1_555 1_555
O1 C2 1_555 1_555
C1 C2 1_555 1_555
C2 C1O 1_555 1_555
C1G C1 1_555 1_555
C2G C1G 1_555 1_555
O1G C2G 1_555 1_555
C1H C2G 1_555 1_555
C1O C1H 1_555 1_555
Na1G O1G 1_555 1_555
O1A Na1 1_555 1_555
O1E Na1 1_555 1_555
Na1A O1 1_555 1_555
Na1E O1 1_555 1_555
Na1B O1G 1_555 1_555
Na1F O1G 1_555 1_555
O1B Na1G 1_555 1_555
O1F Na1G 1_555 1_555

#END
