
#######################################################################
#
#                 Cambridge Crystallographic Data Centre
#                                CCDC 
#
#######################################################################
#
# If this CIF has been generated from an entry in the Cambridge 
# Structural Database, then it will include bibliographic, chemical, 
# crystal, experimental, refinement or atomic coordinate data resulting 
# from the CCDC's data processing and validation procedures.
#
#######################################################################

data_OKATUP
_symmetry_cell_setting           tetragonal
_symmetry_space_group_name_H-M   'P 4/n'
_symmetry_Int_Tables_number      85
_space_group_name_Hall           '-P 4a'
loop_
_symmetry_equiv_pos_site_id
_symmetry_equiv_pos_as_xyz
1 x,y,z
2 1/2-y,x,z
3 1/2-x,1/2-y,z
4 y,1/2-x,z
5 -x,-y,-z
6 1/2+y,-x,-z
7 1/2+x,1/2+y,-z
8 -y,1/2+x,-z
_cell_length_a                   9.3935(3)
_cell_length_b                   9.3935(3)
_cell_length_c                   6.8508(3)
_cell_angle_alpha                90
_cell_angle_beta                 90
_cell_angle_gamma                90
_cell_volume                     604.5
loop_
_atom_site_label
_atom_site_type_symbol
_atom_site_fract_x
_atom_site_fract_y
_atom_site_fract_z
K1 K 0.2500 0.7500 0.0000
K2 K 0.2500 1.2500 0.1335(4)
O1 O 0.0990(2) 0.9840(4) 0.1237(2)
C1 C 0.1434(2) 0.9942(9) 0.4587(2)
C2 C 0.0444(1) 0.9904(6) 0.3070(2)
C3 C -0.1018(2) 0.9901(7) 0.3465(3)
C3D C 0.1018(2) 1.0099(7) 0.6535(3)
C2D C -0.0444(1) 1.0096(6) 0.6930(2)
O1D O -0.0990(2) 1.0160(4) 0.8763(2)
C1D C -0.1434(2) 1.0058(9) 0.5413(2)
O1B O 0.4010(2) 0.5160(4) 0.1237(2)
C1B C 0.3566(2) 0.5058(9) 0.4587(2)
C2B C 0.4556(1) 0.5096(6) 0.3070(2)
C3B C 0.6018(2) 0.5099(7) 0.3465(3)
C3F C 0.3982(2) 0.4901(7) 0.6535(3)
C2F C 0.5444(1) 0.4904(6) 0.6930(2)
O1F O 0.5990(2) 0.4840(4) 0.8763(2)
C1F C 0.6434(2) 0.4942(9) 0.5413(2)
O1E O 0.4840(4) 0.9010(2) -0.1237(2)
O1G O 0.0160(4) 0.5990(2) -0.1237(2)
O1A O 0.5160(4) 1.0990(2) 0.1237(2)
O1B_2 O 0.4010(2) 1.5160(4) 0.1237(2)
O1C O -0.0160(4) 1.4010(2) 0.1237(2)
K1A K -0.2500 1.2500 1.0000
K2D K -0.2500 0.7500 0.8665(4)
K2_2 K 0.2500 0.2500 0.1335(4)
K1A_2 K 0.7500 0.2500 1.0000
K2D_2 K 0.7500 0.7500 0.8665(4)
loop_
_geom_bond_atom_site_label_1
_geom_bond_atom_site_label_2
_geom_bond_site_symmetry_1
_geom_bond_site_symmetry_2
K1 O1 1_555 1_555
K2 O1 1_555 1_555
O1 C2 1_555 1_555
C1 C2 1_555 1_555
C2 C3 1_555 1_555
C3 C1D 1_555 1_555
C3D C1 1_555 1_555
C2D C3D 1_555 1_555
O1D C2D 1_555 1_555
C1D C2D 1_555 1_555
O1B K1 1_555 1_555
C1B C2B 1_555 1_555
C2B O1B 1_555 1_555
C3B C2B 1_555 1_555
C3F C1B 1_555 1_555
C2F C3F 1_555 1_555
O1F C2F 1_555 1_555
C1F C3B 1_555 1_555
O1E K1 1_555 1_555
O1G K1 1_555 1_555
O1A K2 1_555 1_555
O1B_2 K2 1_555 1_555
O1C K2 1_555 1_555
K1A O1D 1_555 1_555
K2D O1D 1_555 1_555
K2_2 O1B 1_555 1_555
K1A_2 O1F 1_555 1_555
K2D_2 O1F 1_555 1_555
C2F C1F 1_555 1_555

#END
