
#######################################################################
#
#                 Cambridge Crystallographic Data Centre
#                                CCDC 
#
#######################################################################
#
# If this CIF has been generated from an entry in the Cambridge 
# Structural Database, then it will include bibliographic, chemical, 
# crystal, experimental, refinement or atomic coordinate data resulting 
# from the CCDC's data processing and validation procedures.
#
#######################################################################

data_OKAVAX
_symmetry_cell_setting           tetragonal
_symmetry_space_group_name_H-M   'P 42/n c m'
_symmetry_Int_Tables_number      138
_space_group_name_Hall           '-P 4ac 2ac'
loop_
_symmetry_equiv_pos_site_id
_symmetry_equiv_pos_as_xyz
1 x,y,z
2 1/2-y,x,1/2+z
3 1/2+x,-y,1/2-z
4 1/2-x,1/2-y,z
5 1/2+y,1/2+x,-z
6 y,1/2-x,1/2+z
7 -x,1/2+y,1/2-z
8 -y,-x,-z
9 -x,-y,-z
10 1/2+y,-x,1/2-z
11 1/2-x,y,1/2+z
12 1/2+x,1/2+y,-z
13 1/2-y,1/2-x,z
14 -y,1/2+x,1/2-z
15 x,1/2-y,1/2+z
16 y,x,z
_cell_length_a                   10.9531(4)
_cell_length_b                   10.9531(4)
_cell_length_c                   6.4985(3)
_cell_angle_alpha                90
_cell_angle_beta                 90
_cell_angle_gamma                90
_cell_volume                     779.628
loop_
_atom_site_label
_atom_site_type_symbol
_atom_site_fract_x
_atom_site_fract_y
_atom_site_fract_z
K1 K 0.6318(1) 0.6318(1) 0.3208(3)
O1 O 0.6295(2) 0.6295(2) 0.7125(5)
C1 C 0.6091(3) 0.4529(3) 0.9228(6)
C2 C 0.5643(4) 0.5643(4) 0.8520(9)
C1G C 0.5471(3) 0.3909(3) 1.0772(6)
C2G C 0.4357(4) 0.4357(4) 1.1480(9)
O1G O 0.3705(2) 0.3705(2) 1.2875(5)
C1H C 0.3909(3) 0.5471(3) 1.0772(6)
C1O C 0.4529(3) 0.6091(3) 0.9228(6)
K1G K 0.3682(1) 0.3682(1) 1.6792(3)
O1A O 0.8705(2) 0.6295(2) 0.2125(5)
O1E O 0.6295(2) 0.8705(2) 0.2125(5)
K1A K 0.8682(1) 0.6318(1) 0.8208(3)
K1E K 0.6318(1) 0.8682(1) 0.8208(3)
K1B K 0.1318(1) 0.3682(1) 1.1792(3)
K1F K 0.3682(1) 0.1318(1) 1.1792(3)
O1B O 0.1295(2) 0.3705(2) 1.7875(5)
O1F O 0.3705(2) 0.1295(2) 1.7875(5)
loop_
_geom_bond_atom_site_label_1
_geom_bond_atom_site_label_2
_geom_bond_site_symmetry_1
_geom_bond_site_symmetry_2
K1 O1 1_555 1_555
O1 C2 1_555 1_555
C1 C2 1_555 1_555
C2 C1O 1_555 1_555
C1G C1 1_555 1_555
C2G C1G 1_555 1_555
O1G C2G 1_555 1_555
C1H C2G 1_555 1_555
C1O C1H 1_555 1_555
K1G O1G 1_555 1_555
O1A K1 1_555 1_555
O1E K1 1_555 1_555
K1A O1 1_555 1_555
K1E O1 1_555 1_555
K1B O1G 1_555 1_555
K1F O1G 1_555 1_555
O1B K1G 1_555 1_555
O1F K1G 1_555 1_555

#END
