
#######################################################################
#
#                 Cambridge Crystallographic Data Centre
#                                CCDC 
#
#######################################################################
#
# If this CIF has been generated from an entry in the Cambridge 
# Structural Database, then it will include bibliographic, chemical, 
# crystal, experimental, refinement or atomic coordinate data resulting 
# from the CCDC's data processing and validation procedures.
#
#######################################################################

data_OKEHIV
_symmetry_cell_setting           monoclinic
_symmetry_space_group_name_H-M   'P 21/c'
_symmetry_Int_Tables_number      14
_space_group_name_Hall           '-P 2ybc'
loop_
_symmetry_equiv_pos_site_id
_symmetry_equiv_pos_as_xyz
1 x,y,z
2 x,1/2-y,1/2+z
3 -x,-y,-z
4 -x,1/2+y,1/2-z
_cell_length_a                   6.401(2)
_cell_length_b                   6.055(2)
_cell_length_c                   19.719(7)
_cell_angle_alpha                90
_cell_angle_beta                 91.848(6)
_cell_angle_gamma                90
_cell_volume                     763.873
loop_
_atom_site_label
_atom_site_type_symbol
_atom_site_fract_x
_atom_site_fract_y
_atom_site_fract_z
Mn1 Mn 0.07652(11) 0.34607(11) 0.29962(3)
O1 O 0.4041(5) 0.4038(5) 0.57552(15)
O2 O 0.3313(5) 0.0730(5) 0.61587(15)
O3 O 0.0526(5) -0.0315(5) 0.29264(16)
O4 O 0.1000(5) -0.3422(5) 0.35052(15)
O5 O -0.2444(5) 0.3216(6) 0.33492(16)
O6 O 0.3684(5) 0.3460(6) 0.24939(17)
N1 N 0.2202(6) 0.2026(5) 0.39079(18)
N2 N 0.2835(6) 0.2865(6) 0.44987(18)
H1 H 0.3196 0.4222 0.4555
C1 C 0.3465(7) 0.2089(7) 0.5692(2)
C2 C 0.2852(6) 0.1374(8) 0.4997(2)
C3 C 0.2183(7) -0.0565(7) 0.4710(2)
H2 H 0.2027 -0.1923 0.4923
C4 C 0.1792(7) -0.0072(7) 0.4038(2)
C5 C 0.1050(6) -0.1417(8) 0.3453(2)
H3 H -0.293(9) 0.436(5) 0.362(2)
H4 H -0.259(9) 0.192(4) 0.360(2)
H5 H 0.495(4) 0.321(9) 0.2717(18)
H6 H 0.384(7) 0.328(9) 0.2034(6)
O3C O -0.0526(5) 0.4685(5) 0.20736(16)
O4_2 O 0.1000(5) 0.6578(5) 0.35052(15)
Mn1C Mn -0.07652(11) -0.15393(11) 0.20038(3)
Mn1_2 Mn 0.07652(11) -0.65393(11) 0.29962(3)
loop_
_geom_bond_atom_site_label_1
_geom_bond_atom_site_label_2
_geom_bond_site_symmetry_1
_geom_bond_site_symmetry_2
Mn1 O3 1_555 1_555
O1 C1 1_555 1_555
O2 C1 1_555 1_555
O3 C5 1_555 1_555
O4 C5 1_555 1_555
O5 Mn1 1_555 1_555
O6 Mn1 1_555 1_555
N1 Mn1 1_555 1_555
N2 N1 1_555 1_555
H1 N2 1_555 1_555
C1 C2 1_555 1_555
C2 N2 1_555 1_555
C3 C2 1_555 1_555
H2 C3 1_555 1_555
C4 N1 1_555 1_555
C5 C4 1_555 1_555
H3 O5 1_555 1_555
H4 O5 1_555 1_555
H5 O6 1_555 1_555
H6 O6 1_555 1_555
O3C Mn1 1_555 1_555
O4_2 Mn1 1_555 1_555
Mn1C O3 1_555 1_555
Mn1_2 O4 1_555 1_555
C3 C4 1_555 1_555

#END
