
#######################################################################
#
#                 Cambridge Crystallographic Data Centre
#                                CCDC 
#
#######################################################################
#
# If this CIF has been generated from an entry in the Cambridge 
# Structural Database, then it will include bibliographic, chemical, 
# crystal, experimental, refinement or atomic coordinate data resulting 
# from the CCDC's data processing and validation procedures.
#
#######################################################################

data_OKEHIV01
_symmetry_cell_setting           monoclinic
_symmetry_space_group_name_H-M   'P 21/c'
_symmetry_Int_Tables_number      14
_space_group_name_Hall           '-P 2ybc'
loop_
_symmetry_equiv_pos_site_id
_symmetry_equiv_pos_as_xyz
1 x,y,z
2 x,1/2-y,1/2+z
3 -x,-y,-z
4 -x,1/2+y,1/2-z
_cell_length_a                   6.4681(6)
_cell_length_b                   6.1154(6)
_cell_length_c                   19.932(2)
_cell_angle_alpha                90
_cell_angle_beta                 91.956(8)
_cell_angle_gamma                90
_cell_volume                     787.951
loop_
_atom_site_label
_atom_site_type_symbol
_atom_site_fract_x
_atom_site_fract_y
_atom_site_fract_z
Mn1 Mn 0.07632(5) 0.65458(4) 0.299570(14)
N1 N 0.2204(3) 0.7983(3) 0.39114(8)
C1 C 0.1793(3) 1.0094(3) 0.40382(9)
C2 C 0.2183(3) 1.0569(3) 0.47152(10)
H1 H 0.204(3) 1.195(4) 0.4953(11)
C3 C 0.2845(3) 0.8621(3) 0.49959(10)
N2 N 0.2836(3) 0.7132(3) 0.44979(8)
H2 H 0.343(4) 0.584(5) 0.4507(12)
C4 C 0.1053(3) 1.1418(3) 0.34517(10)
O1 O 0.0544(2) 1.0316(2) 0.29289(6)
O2 O 0.1001(3) 1.3434(2) 0.35057(8)
C5 C 0.3443(3) 0.7903(3) 0.56953(10)
O3 O 0.4023(3) 0.5953(3) 0.57539(7)
O4 O 0.3308(2) 0.9259(3) 0.61583(6)
O5 O 0.3669(3) 0.6554(3) 0.24969(10)
H3 H 0.375(5) 0.645(5) 0.2091(16)
H4 H 0.464(5) 0.662(4) 0.2663(15)
O6 O -0.2441(3) 0.6781(3) 0.33436(9)
H5 H -0.282(4) 0.587(5) 0.3614(14)
H6 H -0.273(5) 0.777(6) 0.3537(15)
O1C O -0.0544(2) 0.5316(2) 0.20711(6)
O2_2 O 0.1001(3) 0.3434(2) 0.35057(8)
Mn1C Mn -0.07632(5) 1.15458(4) 0.200430(14)
Mn1_2 Mn 0.07632(5) 1.65458(4) 0.299570(14)
loop_
_geom_bond_atom_site_label_1
_geom_bond_atom_site_label_2
_geom_bond_site_symmetry_1
_geom_bond_site_symmetry_2
Mn1 N1 1_555 1_555
N1 C1 1_555 1_555
C1 C2 1_555 1_555
C2 H1 1_555 1_555
C3 C2 1_555 1_555
N2 N1 1_555 1_555
H2 N2 1_555 1_555
C4 C1 1_555 1_555
O1 Mn1 1_555 1_555
O2 C4 1_555 1_555
C5 C3 1_555 1_555
O3 C5 1_555 1_555
O4 C5 1_555 1_555
O5 Mn1 1_555 1_555
H3 O5 1_555 1_555
H4 O5 1_555 1_555
O6 Mn1 1_555 1_555
H5 O6 1_555 1_555
H6 O6 1_555 1_555
O1C Mn1 1_555 1_555
O2_2 Mn1 1_555 1_555
Mn1C O1 1_555 1_555
Mn1_2 O2 1_555 1_555
C3 N2 1_555 1_555
C4 O1 1_555 1_555

#END
