
#######################################################################
#
#                 Cambridge Crystallographic Data Centre
#                                CCDC 
#
#######################################################################
#
# If this CIF has been generated from an entry in the Cambridge 
# Structural Database, then it will include bibliographic, chemical, 
# crystal, experimental, refinement or atomic coordinate data resulting 
# from the CCDC's data processing and validation procedures.
#
#######################################################################

data_OKEHOC
_symmetry_cell_setting           monoclinic
_symmetry_space_group_name_H-M   'C 2/c'
_symmetry_Int_Tables_number      15
_space_group_name_Hall           '-C 2yn'
loop_
_symmetry_equiv_pos_site_id
_symmetry_equiv_pos_as_xyz
1 x,y,z
2 -x,y,1/2-z
3 1/2+x,1/2+y,z
4 1/2-x,1/2+y,1/2-z
5 -x,-y,-z
6 x,-y,1/2+z
7 1/2-x,1/2-y,-z
8 1/2+x,1/2-y,1/2+z
_cell_length_a                   35.192(3)
_cell_length_b                   13.1317(13)
_cell_length_c                   13.3261(13)
_cell_angle_alpha                90
_cell_angle_beta                 110.793(2)
_cell_angle_gamma                90
_cell_volume                     5757.3
loop_
_atom_site_label
_atom_site_type_symbol
_atom_site_fract_x
_atom_site_fract_y
_atom_site_fract_z
C1 C 0.39735(11) 0.3395(3) 0.5906(3)
C2 C 0.52950(10) 0.1816(3) 0.6140(3)
C3 C 0.44099(10) 0.3495(3) 0.6021(3)
C4 C 0.46398(10) 0.2624(3) 0.6047(3)
H1 H 0.4524 0.1982 0.6009
C5 C 0.50393(10) 0.2724(3) 0.6129(3)
C6 C 0.52180(11) 0.3681(3) 0.6231(3)
H2 H 0.5489 0.3745 0.6292
C7 C 0.49927(11) 0.4530(3) 0.6240(3)
C8 C 0.45832(11) 0.4439(3) 0.6102(3)
H3 H 0.4427 0.5019 0.6065
C9 C 0.55609(11) 0.5663(3) 0.6616(3)
H4 H 0.5642 0.5362 0.6058
H5 H 0.5720 0.5354 0.7297
C10 C 0.56284(11) 0.6787(3) 0.6660(3)
C11 C 0.59918(11) 0.7180(3) 0.6645(3)
H6 H 0.6202 0.6745 0.6659
C12 C 0.60388(12) 0.8218(3) 0.6608(4)
H7 H 0.6283 0.8470 0.6591
C13 C 0.54038(12) 0.8500(3) 0.6633(4)
H8 H 0.5202 0.8952 0.6649
C14 C 0.53271(12) 0.7474(3) 0.6650(4)
H9 H 0.5078 0.7244 0.6654
C15 C 0.28377(10) 0.3456(3) 0.3641(3)
C16 C 0.15341(12) 0.4615(3) 0.0836(3)
C17 C 0.25863(10) 0.3718(3) 0.2502(3)
C18 C 0.21934(10) 0.4049(3) 0.2224(3)
H10 H 0.2079 0.4134 0.2748
C19 C 0.19675(10) 0.4256(3) 0.1160(3)
C20 C 0.21386(11) 0.4144(3) 0.0389(3)
H11 H 0.1986 0.4285 -0.0325
C21 C 0.25388(11) 0.3821(3) 0.0670(3)
C22 C 0.27654(11) 0.3604(3) 0.1727(3)
H12 H 0.3033 0.3385 0.1920
C23 C 0.30832(11) 0.3613(3) -0.0001(3)
H13 H 0.3190 0.3008 0.0422
H14 H 0.3232 0.4200 0.0384
C24 C 0.31274(11) 0.3529(3) -0.1079(3)
C25 C 0.28074(12) 0.3723(3) -0.2018(3)
H15 H 0.2557 0.3927 -0.1996
C26 C 0.28597(11) 0.3615(3) -0.2979(3)
H16 H 0.2642 0.3767 -0.3604
C27 C 0.35120(12) 0.3101(3) -0.2157(3)
H17 H 0.3756 0.2874 -0.2199
C28 C 0.34870(12) 0.3208(3) -0.1168(3)
H18 H 0.3711 0.3065 -0.0555
N1 N 0.57476(9) 0.8884(2) 0.6596(3)
N2 N 0.32079(9) 0.3302(2) -0.3067(2)
Ni1 Ni 0.577421(13) 0.04077(3) 0.63419(4)
Ni2 Ni 0.325564(13) 0.30316(4) 0.54789(4)
O1 O 0.37427(7) 0.41506(19) 0.5702(2)
O2 O 0.38373(7) 0.25204(18) 0.6001(2)
O3 O 0.51615(7) 0.09210(18) 0.6157(2)
O4 O 0.56507(7) 0.19488(17) 0.6161(2)
O5 O 0.51408(8) 0.55039(18) 0.6393(2)
O6 O 0.27096(7) 0.36666(19) 0.43971(19)
O7 O 0.31730(7) 0.3032(2) 0.3851(2)
O8 O 0.13853(10) 0.5023(3) -0.0067(3)
O9 O 0.13608(7) 0.45255(19) 0.1495(2)
O10 O 0.26684(8) 0.3719(2) -0.0176(2)
O11 O 0.59340(8) 0.0680(2) 0.7967(2)
H19 H 0.6120 0.0265 0.8314
H20 H 0.6022 0.1286 0.8104
O12 O 0.55562(8) 0.0206(2) 0.4698(2)
H21 H 0.5683 -0.0282 0.4539
H22 H 0.5304 0.0067 0.4485
O13 O 0.30278(8) 0.1588(2) 0.5385(2)
H23 H 0.2773 0.1619 0.5241
H24 H 0.3076 0.1264 0.4890
N1_2 N 0.57476(9) -0.1116(2) 0.6596(3)
N2_2 N 0.32079(9) 0.3302(2) 0.6933(2)
Ni1_2 Ni 0.577421(13) 1.04077(3) 0.63419(4)
Ni1G Ni 0.077421(13) 0.45923(3) 0.13419(4)
Ni2_2 Ni 0.325564(13) 0.30316(4) -0.45211(4)
O9G O 0.63608(7) 0.04745(19) 0.6495(2)
loop_
_geom_bond_atom_site_label_1
_geom_bond_atom_site_label_2
_geom_bond_site_symmetry_1
_geom_bond_site_symmetry_2
C1 C3 1_555 1_555
C2 C5 1_555 1_555
C3 C4 1_555 1_555
C4 H1 1_555 1_555
C5 C4 1_555 1_555
C6 C5 1_555 1_555
H2 C6 1_555 1_555
C7 C6 1_555 1_555
C8 C3 1_555 1_555
H3 C8 1_555 1_555
C9 H4 1_555 1_555
H5 C9 1_555 1_555
C10 C9 1_555 1_555
C11 C10 1_555 1_555
H6 C11 1_555 1_555
C12 C11 1_555 1_555
H7 C12 1_555 1_555
C13 H8 1_555 1_555
C14 C10 1_555 1_555
H9 C14 1_555 1_555
C15 C17 1_555 1_555
C16 C19 1_555 1_555
C17 C18 1_555 1_555
C18 H10 1_555 1_555
C19 C18 1_555 1_555
C20 C19 1_555 1_555
H11 C20 1_555 1_555
C21 C20 1_555 1_555
C22 C17 1_555 1_555
H12 C22 1_555 1_555
C23 H13 1_555 1_555
H14 C23 1_555 1_555
C24 C23 1_555 1_555
C25 C24 1_555 1_555
H15 C25 1_555 1_555
C26 C25 1_555 1_555
H16 C26 1_555 1_555
C27 H17 1_555 1_555
C28 C24 1_555 1_555
H18 C28 1_555 1_555
N1 C12 1_555 1_555
N2 C26 1_555 1_555
Ni1 O3 1_555 1_555
Ni2 O1 1_555 1_555
O1 C1 1_555 1_555
O2 C1 1_555 1_555
O3 C2 1_555 1_555
O4 C2 1_555 1_555
O5 C7 1_555 1_555
O6 C15 1_555 1_555
O7 C15 1_555 1_555
O8 C16 1_555 1_555
O9 C16 1_555 1_555
O10 C21 1_555 1_555
O11 Ni1 1_555 1_555
H19 O11 1_555 1_555
H20 O11 1_555 1_555
O12 Ni1 1_555 1_555
H21 O12 1_555 1_555
H22 O12 1_555 1_555
O13 Ni2 1_555 1_555
H23 O13 1_555 1_555
H24 O13 1_555 1_555
N1_2 Ni1 1_555 1_555
N2_2 Ni2 1_555 1_555
Ni1_2 N1 1_555 1_555
Ni1G O9 1_555 1_555
Ni2_2 N2 1_555 1_555
O9G Ni1 1_555 1_555
C7 C8 1_555 1_555
C9 O5 1_555 1_555
C13 C14 1_555 1_555
C13 N1 1_555 1_555
C21 C22 1_555 1_555
C23 O10 1_555 1_555
C27 C28 1_555 1_555
C27 N2 1_555 1_555
Ni1 O4 1_555 1_555
Ni2 O2 1_555 1_555
Ni2 O6 1_555 1_555
Ni2 O7 1_555 1_555

#END
