
#######################################################################
#
#                 Cambridge Crystallographic Data Centre
#                                CCDC 
#
#######################################################################
#
# If this CIF has been generated from an entry in the Cambridge 
# Structural Database, then it will include bibliographic, chemical, 
# crystal, experimental, refinement or atomic coordinate data resulting 
# from the CCDC's data processing and validation procedures.
#
#######################################################################

data_OKEJIY
_symmetry_cell_setting           triclinic
_symmetry_space_group_name_H-M   'P -1'
_symmetry_Int_Tables_number      2
_space_group_name_Hall           '-P 1'
loop_
_symmetry_equiv_pos_site_id
_symmetry_equiv_pos_as_xyz
1 x,y,z
2 -x,-y,-z
_cell_length_a                   10.0539(13)
_cell_length_b                   13.3653(17)
_cell_length_c                   18.131(2)
_cell_angle_alpha                99.365(2)
_cell_angle_beta                 90.751(3)
_cell_angle_gamma                102.923(2)
_cell_volume                     2339.86
loop_
_atom_site_label
_atom_site_type_symbol
_atom_site_fract_x
_atom_site_fract_y
_atom_site_fract_z
C1 C 0.0966(3) 0.3102(3) 0.14708(17)
C2 C 0.1988(3) 0.2596(2) 0.10411(16)
C3 C 0.3383(3) 0.2954(2) 0.12584(16)
H1 H 0.3673 0.3510 0.1649
C4 C 0.4309(3) 0.2472(2) 0.08867(17)
C5 C 0.3922(3) 0.1628(2) 0.03089(16)
H2 H 0.4563 0.1317 0.0056
C6 C 0.2509(3) 0.1267(3) 0.01245(18)
C7 C 0.1551(3) 0.1736(2) 0.04906(16)
H3 H 0.0624 0.1474 0.0367
C8 C 0.5765(3) 0.2828(2) 0.11855(18)
C9 C 0.2847(3) 0.0063(2) -0.09684(18)
H4 H 0.2389 -0.0612 -0.1246
H5 H 0.3686 -0.0010 -0.0735
C10 C 0.3183(3) 0.0832(3) -0.14986(17)
C11 C 0.2243(4) 0.1357(3) -0.1699(2)
H6 H 0.1385 0.1250 -0.1499
C12 C 0.2565(3) 0.2034(3) -0.2191(2)
H7 H 0.1922 0.2398 -0.2303
C13 C 0.4662(4) 0.1690(3) -0.2323(2)
H8 H 0.5509 0.1798 -0.2536
C14 C 0.4420(4) 0.1014(3) -0.1827(2)
H9 H 0.5090 0.0676 -0.1711
C15 C -0.3875(3) 0.2749(3) 0.61615(19)
C16 C -0.2588(3) 0.2428(3) 0.58825(18)
C17 C -0.1370(3) 0.2896(3) 0.62359(18)
H10 H -0.1310 0.3452 0.6627
C18 C -0.0188(3) 0.2554(2) 0.60195(16)
C19 C -0.0315(3) 0.1712(2) 0.54493(17)
H11 H 0.0455 0.1465 0.5311
C20 C -0.1558(3) 0.1229(2) 0.50790(18)
C21 C -0.2709(3) 0.1596(3) 0.52943(18)
H12 H -0.3554 0.1287 0.5047
C22 C 0.1175(3) 0.3060(3) 0.64331(18)
C23 C -0.2645(3) 0.0045(2) 0.40226(18)
H13 H -0.2627 -0.0641 0.3753
H14 H -0.3509 -0.0005 0.4263
C24 C -0.2536(3) 0.0809(3) 0.34698(17)
C25 C -0.1296(3) 0.1192(3) 0.3208(2)
H15 H -0.0530 0.0985 0.3363
C26 C -0.1172(3) 0.1884(3) 0.27154(18)
H16 H -0.0308 0.2151 0.2557
C27 C -0.3432(4) 0.1846(3) 0.2714(2)
H17 H -0.4181 0.2072 0.2556
C28 C -0.3636(4) 0.1130(3) 0.3235(2)
H18 H -0.4497 0.0893 0.3407
C29 C 0.4390(3) 1.4828(3) 0.40009(18)
H19 H 0.3589 1.5058 0.3959
C30 C 0.6437(4) 1.4718(3) 0.3954(2)
H20 H 0.7369 1.4872 0.3880
C31 C 0.5788(4) 1.3887(3) 0.4230(2)
H21 H 0.6161 1.3360 0.4362
C32 C 0.3304(4) 1.3229(3) 0.44952(19)
H22 H 0.2522 1.3543 0.4561
H23 H 0.3536 1.3050 0.4970
C33 C 0.2930(4) 1.2246(3) 0.39084(19)
C34 C 0.2856(3) 1.1275(3) 0.40874(17)
H24 H 0.3051 1.1208 0.4578
C35 C 0.2496(3) 1.0401(3) 0.35434(18)
H25 H 0.2413 0.9748 0.3678
C36 C 0.2252(3) 1.0466(3) 0.27962(17)
C37 C 0.2339(3) 1.1455(3) 0.26294(18)
H26 H 0.2177 1.1525 0.2136
C38 C 0.2660(4) 1.2344(3) 0.31738(19)
H27 H 0.2694 1.2997 0.3048
C39 C 0.1889(3) 0.9522(2) 0.22236(17)
C40 C 0.1252(4) 0.8571(3) 0.23849(18)
H28 H 0.1022 0.8519 0.2875
C41 C 0.0942(3) 0.7699(3) 0.18504(18)
H29 H 0.0512 0.7067 0.1984
C42 C 0.1255(3) 0.7734(3) 0.11154(18)
C43 C 0.1877(4) 0.8677(3) 0.0939(2)
H30 H 0.2093 0.8721 0.0446
C44 C 0.2189(4) 0.9555(3) 0.14682(18)
H31 H 0.2607 1.0186 0.1329
C45 C 0.0973(4) 0.6754(3) 0.05243(19)
H32 H 0.0834 0.6941 0.0039
H33 H 0.1767 0.6452 0.0506
C46 C -0.0176(3) 0.5195(3) 0.10473(19)
H34 H 0.0627 0.5071 0.1235
C47 C -0.1537(4) 0.5915(3) 0.05011(19)
H35 H -0.1878 0.6363 0.0248
C48 C -0.2274(4) 0.5094(3) 0.0762(2)
H36 H -0.3221 0.4870 0.0714
Co1 Co -0.18452(5) 0.33572(3) 0.17074(2)
Co2 Co 0.40676(5) 0.33623(3) -0.32642(2)
N1 N 0.3764(3) 0.2204(2) -0.25231(15)
N2 N -0.1398(3) 0.4632(2) 0.11190(15)
N3 N -0.0225(3) 0.5973(2) 0.06699(16)
N4 N 0.4447(3) 1.3971(2) 0.42776(15)
N5 N 0.5574(3) 1.5316(2) 0.37942(15)
N6 N -0.2250(3) 0.2193(2) 0.24517(14)
O1 O -0.0276(2) 0.27635(19) 0.12683(12)
O2 O 0.1430(2) 0.3842(2) 0.20016(13)
O3 O 0.6089(2) 0.35258(18) 0.17506(13)
O4 O 0.6652(2) 0.23840(18) 0.08775(13)
O5 O 0.1986(2) 0.03952(17) -0.04017(12)
O6 O -0.3801(2) 0.33962(19) 0.67554(14)
O7 O -0.4989(2) 0.23458(18) 0.58123(13)
O8 O 0.1203(2) 0.3769(2) 0.69911(14)
O9 O 0.2189(2) 0.2708(2) 0.62225(12)
O10 O -0.1573(2) 0.03668(17) 0.45667(12)
O11 O -0.0744(2) 0.43160(18) 0.26643(12)
H37 H 0.0078 0.4541 0.2558
H38 H -0.1109 0.4828 0.2801
O12 O 0.4070(3) 0.4379(2) -0.22592(13)
H39 H 0.3280 0.4500 -0.2201
H40 H 0.4648 0.4947 -0.2272
Co1_2 Co 0.81548(5) 0.33572(3) 0.17074(2)
Co2A Co 0.59324(5) 1.66377(3) 0.32642(2)
Co2_2 Co -0.59324(5) 0.33623(3) 0.67358(2)
Co2_3 Co 0.40676(5) 0.33623(3) 0.67358(2)
N5A N 0.4426(3) 0.4684(2) -0.37942(15)
O3_2 O -0.3911(2) 0.35258(18) 0.17506(13)
O4_2 O -0.3348(2) 0.23840(18) 0.08775(13)
O6_2 O 0.6199(2) 0.33962(19) -0.32446(14)
O7_2 O 0.5011(2) 0.23458(18) -0.41877(13)
O9_2 O 0.2189(2) 0.2708(2) -0.37775(12)
O13 O 0.3040(2) 0.5732(2) 0.17300(13)
H41 H 0.2546 0.5155 0.1802
H42 H 0.3260 0.6136 0.2148
O14 O 0.0136(5) 0.4226(4) 0.4343(3)
H43 H 0.0363 0.4134 0.3892
H44 H 0.0624 0.4795 0.4578
H45? H 0.4112 0.5833 0.0605
H46? H 0.5067 0.6372 0.1174
O15? O 0.4955(5) 0.5992(4) 0.0744(3)
loop_
_geom_bond_atom_site_label_1
_geom_bond_atom_site_label_2
_geom_bond_site_symmetry_1
_geom_bond_site_symmetry_2
C1 C2 1_555 1_555
C2 C3 1_555 1_555
C3 H1 1_555 1_555
C4 C3 1_555 1_555
C5 C4 1_555 1_555
H2 C5 1_555 1_555
C6 C5 1_555 1_555
C7 C2 1_555 1_555
H3 C7 1_555 1_555
C8 C4 1_555 1_555
C9 H4 1_555 1_555
H5 C9 1_555 1_555
C10 C9 1_555 1_555
C11 C10 1_555 1_555
H6 C11 1_555 1_555
C12 C11 1_555 1_555
H7 C12 1_555 1_555
C13 H8 1_555 1_555
C14 C10 1_555 1_555
H9 C14 1_555 1_555
C15 C16 1_555 1_555
C16 C17 1_555 1_555
C17 H10 1_555 1_555
C18 C17 1_555 1_555
C19 C18 1_555 1_555
H11 C19 1_555 1_555
C20 C19 1_555 1_555
C21 C16 1_555 1_555
H12 C21 1_555 1_555
C22 C18 1_555 1_555
C23 H13 1_555 1_555
H14 C23 1_555 1_555
C24 C23 1_555 1_555
C25 C24 1_555 1_555
H15 C25 1_555 1_555
C26 C25 1_555 1_555
H16 C26 1_555 1_555
C27 H17 1_555 1_555
C28 C24 1_555 1_555
H18 C28 1_555 1_555
C29 H19 1_555 1_555
C30 H20 1_555 1_555
C31 C30 1_555 1_555
H21 C31 1_555 1_555
C32 H22 1_555 1_555
H23 C32 1_555 1_555
C33 C32 1_555 1_555
C34 C33 1_555 1_555
H24 C34 1_555 1_555
C35 C34 1_555 1_555
H25 C35 1_555 1_555
C36 C35 1_555 1_555
C37 C36 1_555 1_555
H26 C37 1_555 1_555
C38 C33 1_555 1_555
H27 C38 1_555 1_555
C39 C36 1_555 1_555
C40 C39 1_555 1_555
H28 C40 1_555 1_555
C41 C40 1_555 1_555
H29 C41 1_555 1_555
C42 C41 1_555 1_555
C43 C42 1_555 1_555
H30 C43 1_555 1_555
C44 C39 1_555 1_555
H31 C44 1_555 1_555
C45 C42 1_555 1_555
H32 C45 1_555 1_555
H33 C45 1_555 1_555
C46 H34 1_555 1_555
C47 H35 1_555 1_555
C48 C47 1_555 1_555
H36 C48 1_555 1_555
Co1 N2 1_555 1_555
Co2 N1 1_555 1_555
N1 C12 1_555 1_555
N2 C46 1_555 1_555
N3 C45 1_555 1_555
N4 C29 1_555 1_555
N5 C29 1_555 1_555
N6 C26 1_555 1_555
O1 C1 1_555 1_555
O2 C1 1_555 1_555
O3 C8 1_555 1_555
O4 C8 1_555 1_555
O5 C6 1_555 1_555
O6 C15 1_555 1_555
O7 C15 1_555 1_555
O8 C22 1_555 1_555
O9 C22 1_555 1_555
O10 C20 1_555 1_555
O11 Co1 1_555 1_555
H37 O11 1_555 1_555
H38 O11 1_555 1_555
O12 Co2 1_555 1_555
H39 O12 1_555 1_555
H40 O12 1_555 1_555
O13 H41 1_555 1_555
H42 O13 1_555 1_555
O14 H43 1_555 1_555
H44 O14 1_555 1_555
Co1_2 O3 1_555 1_555
Co2A N5 1_555 1_555
Co2_2 O6 1_555 1_555
Co2_3 O9 1_555 1_555
N5A Co2 1_555 1_555
O3_2 Co1 1_555 1_555
O4_2 Co1 1_555 1_555
O6_2 Co2 1_555 1_555
O7_2 Co2 1_555 1_555
O9_2 Co2 1_555 1_555
C6 C7 1_555 1_555
C9 O5 1_555 1_555
C13 C14 1_555 1_555
C13 N1 1_555 1_555
C20 C21 1_555 1_555
C23 O10 1_555 1_555
C27 C28 1_555 1_555
C27 N6 1_555 1_555
C30 N5 1_555 1_555
C31 N4 1_555 1_555
C32 N4 1_555 1_555
C37 C38 1_555 1_555
C43 C44 1_555 1_555
C46 N3 1_555 1_555
C47 N3 1_555 1_555
C48 N2 1_555 1_555
Co1 N6 1_555 1_555
Co1 O1 1_555 1_555
O4 Co1_2 1_555 1_555
O7 Co2_2 1_555 1_555

#END
