
#######################################################################
#
#                 Cambridge Crystallographic Data Centre
#                                CCDC 
#
#######################################################################
#
# If this CIF has been generated from an entry in the Cambridge 
# Structural Database, then it will include bibliographic, chemical, 
# crystal, experimental, refinement or atomic coordinate data resulting 
# from the CCDC's data processing and validation procedures.
#
#######################################################################

data_OKERIG
_symmetry_cell_setting           triclinic
_symmetry_space_group_name_H-M   'P -1'
_symmetry_Int_Tables_number      2
_space_group_name_Hall           '-P 1'
loop_
_symmetry_equiv_pos_site_id
_symmetry_equiv_pos_as_xyz
1 x,y,z
2 -x,-y,-z
_cell_length_a                   6.31493(75)
_cell_length_b                   3.6201(12)
_cell_length_c                   18.4226(27)
_cell_angle_alpha                94.855(28)
_cell_angle_beta                 109.9259(93)
_cell_angle_gamma                89.246(32)
_cell_volume                     394.465
loop_
_atom_site_label
_atom_site_type_symbol
_atom_site_fract_x
_atom_site_fract_y
_atom_site_fract_z
Ni1 Ni 0.00000 0.00000 0.00000
Cl1 Cl 0.2165(10) -0.4306(55) -0.04414(34)
C1 C 0.711092 0.163624 0.521892
C2 C 0.580465 0.113865 0.444502
C3 C 0.630630 0.049760 0.577390
C4 C 0.618152 0.199628 0.378300
C5 C 0.723400 0.065120 0.657120
O1 O 0.791893 0.350944 0.375684
O2 O 0.913360 0.195720 0.697460
N1 N 0.430351 0.089008 0.315493
C6 C 0.400619 0.127005 0.236727
C7 C 0.548528 0.300776 0.209611
H1 H 0.688164 0.415924 0.240483
C8 C 0.218663 -0.003256 0.173650
H2 H 0.091349 -0.134151 0.175420
N2 N 0.457985 0.277911 0.129776
N3 N 0.254118 0.090009 0.107551
H3 H 0.524348 0.374556 0.096039
H4 H 0.856409 0.276263 0.536962
Ni1_2 Ni 0.00000 -1.00000 0.00000
Ni1_3 Ni 1.00000 0.00000 1.00000
Ni1_4 Ni 0.00000 1.00000 0.00000
Cl1_2 Cl 0.2165(10) 0.5694(55) -0.04414(34)
Cl1A Cl -0.2165(10) -0.5694(55) 0.04414(34)
Cl1A_2 Cl -0.2165(10) 0.4306(55) 0.04414(34)
C1A C 0.288908 -0.163624 0.478108
C2A C 0.419535 -0.113865 0.555498
C3A C 0.369370 -0.049760 0.422610
C4A C 0.381848 -0.199628 0.621700
C5A C 0.276600 -0.065120 0.342880
O1A O 0.208107 -0.350944 0.624316
O2A O 0.086640 -0.195720 0.302540
N1A N 0.569649 -0.089008 0.684507
C6A C 0.599381 -0.127005 0.763273
C7A C 0.451472 -0.300776 0.790389
H1A H 0.311836 -0.415924 0.759517
C8A C 0.781337 0.003256 0.826350
H2A H 0.908651 0.134151 0.824580
N2A N 0.542015 -0.277911 0.870224
N3A N 0.745882 -0.090009 0.892449
N3A_2 N -0.254118 -0.090009 -0.107551
H3A H 0.475652 -0.374556 0.903961
H4A H 0.143591 -0.276263 0.463038
loop_
_geom_bond_atom_site_label_1
_geom_bond_atom_site_label_2
_geom_bond_site_symmetry_1
_geom_bond_site_symmetry_2
Ni1 Cl1 1_555 1_555
Cl1 Ni1_2 1_555 1_555
C1 C2 1_555 1_555
C2 C4 1_555 1_555
C3 C1 1_555 1_555
C4 O1 1_555 1_555
C5 C3 1_555 1_555
O2 C5 1_555 1_555
N1 C4 1_555 1_555
C6 N1 1_555 1_555
C7 C6 1_555 1_555
H1 C7 1_555 1_555
C8 C6 1_555 1_555
H2 C8 1_555 1_555
N2 C7 1_555 1_555
N3 Ni1 1_555 1_555
H3 N2 1_555 1_555
H4 C1 1_555 1_555
Ni1_2 Cl1A 1_555 1_555
Ni1_3 N3A 1_555 1_555
Ni1_4 Cl1_2 1_555 1_555
Cl1_2 Ni1 1_555 1_555
Cl1A Ni1 1_555 1_555
Cl1A_2 Ni1 1_555 1_555
C1A C2A 1_555 1_555
C2A C3 1_555 1_555
C3A C2 1_555 1_555
C4A C2A 1_555 1_555
C5A N1 1_555 1_555
O1A C4A 1_555 1_555
O2A C5A 1_555 1_555
N1A C5 1_555 1_555
C6A N1A 1_555 1_555
C7A C6A 1_555 1_555
H1A C7A 1_555 1_555
C8A C6A 1_555 1_555
H2A C8A 1_555 1_555
N2A C7A 1_555 1_555
N3A C8A 1_555 1_555
N3A_2 Ni1 1_555 1_555
H3A N2A 1_555 1_555
H4A C1A 1_555 1_555
C8 N3 1_555 1_555
N2 N3 1_555 1_555
Ni1_4 Cl1A_2 1_555 1_555
C1A C3A 1_555 1_555
C3A C5A 1_555 1_555
C4A N1A 1_555 1_555
N2A N3A 1_555 1_555

#END
