
#######################################################################
#
#                 Cambridge Crystallographic Data Centre
#                                CCDC 
#
#######################################################################
#
# If this CIF has been generated from an entry in the Cambridge 
# Structural Database, then it will include bibliographic, chemical, 
# crystal, experimental, refinement or atomic coordinate data resulting 
# from the CCDC's data processing and validation procedures.
#
#######################################################################

data_OKETAZ
_symmetry_cell_setting           triclinic
_symmetry_space_group_name_H-M   'P -1'
_symmetry_Int_Tables_number      2
_space_group_name_Hall           '-P 1'
loop_
_symmetry_equiv_pos_site_id
_symmetry_equiv_pos_as_xyz
1 x,y,z
2 -x,-y,-z
_cell_length_a                   16.5806(11)
_cell_length_b                   18.3543(13)
_cell_length_c                   24.4848(17)
_cell_angle_alpha                80.5890(10)
_cell_angle_beta                 71.2790(10)
_cell_angle_gamma                67.0840(10)
_cell_volume                     6493.8
loop_
_atom_site_label
_atom_site_type_symbol
_atom_site_fract_x
_atom_site_fract_y
_atom_site_fract_z
Na1 Na 0.0293(3) 0.3576(3) -0.25231(18)
Na2 Na 0.0445(3) 0.1705(3) -0.29076(17)
O64 O -0.0305(5) 0.4781(5) -0.2001(3)
O65 O -0.0537(4) 0.2762(4) -0.2328(3)
O66 O -0.3007(4) 0.4759(4) -0.2503(3)
O67 O 0.0203(5) 0.0540(5) -0.2992(3)
Mo1 Mo -0.13032(5) 0.64791(5) -0.37917(3)
Mo2 Mo -0.25279(5) 0.54955(5) -0.41304(3)
Mo3 Mo -0.17774(5) 0.39962(5) -0.43171(3)
Mo4 Mo 0.03652(5) 0.56856(5) -0.37445(3)
Mo5 Mo 0.04381(5) 0.29264(4) -0.41995(3)
Mo6 Mo 0.13885(5) 0.36179(5) -0.39883(3)
Mo7 Mo -0.86982(5) 0.88089(5) -0.13947(3)
Mo8 Mo -0.75324(5) 0.97413(5) -0.09451(3)
Mo9 Mo -0.15631(5) 0.14533(4) -0.08751(3)
Mo10 Mo -0.83942(5) 1.11722(5) -0.06009(3)
Mo11 Mo -1.04002(5) 0.94929(5) -0.13321(3)
Mo12 Mo -1.06933(5) 1.21634(4) -0.05896(3)
Mn1 Mn -0.22834(9) 0.09464(8) -0.32566(6)
Mn2 Mn -0.41231(9) 0.68112(9) -0.15927(6)
Mn3 Mn 0.0000 0.5000 -0.5000
Mn4 Mn 0.21898(9) 0.39562(8) -0.17205(6)
Mn5 Mn -0.52941(9) 0.80120(8) -0.34526(6)
Mn6 Mn -1.0000 1.0000 0.0000
P1 P 0.09214(16) 0.28327(14) -0.13606(10)
P2 P -0.68513(15) 0.91100(14) -0.22568(10)
P3 P -0.19921(16) 0.07923(15) -0.18676(10)
P4 P -0.92689(14) 1.07895(13) -0.15742(9)
P5 P -0.34641(15) 0.66988(15) -0.30352(10)
P6 P -0.09333(15) 0.45253(14) -0.33876(9)
P7 P -0.12979(16) 0.23071(15) -0.35171(10)
P8 P 0.18527(15) 0.44369(15) -0.31040(10)
O1 O 0.0022(3) 0.4544(3) -0.3491(2)
O2 O -0.2049(4) 0.6445(3) -0.4331(2)
O3 O 0.0825(4) 0.2892(3) -0.3520(2)
O4 O -0.0757(4) 0.6121(4) -0.3153(2)
O5 O 0.0719(4) 0.3858(3) -0.4572(2)
O6 O -0.1340(3) 0.4874(3) -0.4657(2)
O7 O -0.0215(3) 0.5791(3) -0.4345(2)
O8 O -0.0450(4) 0.3233(3) -0.4714(2)
O9 O 0.1666(4) 0.3735(3) -0.3248(2)
O10 O 0.1010(4) 0.5204(3) -0.3096(2)
O11 O -0.3202(4) 0.5762(4) -0.4566(3)
O12 O 0.0827(4) 0.6380(4) -0.3959(3)
O13 O -0.0305(4) 0.2261(4) -0.3685(2)
O14 O -0.3417(4) 0.6094(4) -0.3429(2)
O15 O -0.1571(4) 0.5324(3) -0.3576(2)
O16 O -0.4271(4) 0.7466(3) -0.3058(2)
O17 O -0.2567(4) 0.6865(4) -0.3230(2)
O18 O 0.2102(4) 0.4281(4) -0.2556(2)
O19 O -0.2735(4) 0.4579(3) -0.3677(2)
O20 O -0.2292(4) 0.3947(4) -0.4787(3)
O21 O -0.3597(4) 0.6325(4) -0.2417(2)
O22 O 0.1475(4) 0.4745(3) -0.4219(2)
O23 O -0.0867(4) 0.3870(3) -0.3737(2)
O24 O -0.1859(4) 0.2998(4) -0.3835(3)
O25 O -0.1737(5) 0.2502(4) -0.2846(3)
O26 O -0.1350(4) 0.1529(4) -0.3577(3)
O27 O 0.1260(4) 0.2180(4) -0.4593(2)
O28 O 0.2443(4) 0.3045(4) -0.4340(2)
O29 O 0.2701(4) 0.4530(4) -0.3599(3)
O30 O -0.1235(4) 0.7368(4) -0.4013(3)
O31 O -0.1303(4) 0.4346(3) -0.2733(2)
O32 O -0.1922(4) 0.1463(3) -0.1623(2)
O33 O -0.9334(4) 0.9249(4) -0.1984(2)
O34 O -0.9732(4) 1.1817(3) -0.0115(2)
O35 O -0.9389(4) 1.1349(3) -0.1122(2)
O36 O -0.1550(3) 0.0280(3) -0.0761(2)
O37 O -1.1324(3) 0.9797(3) 0.0330(2)
O38 O -1.0192(4) 1.0690(3) -0.1451(2)
O39 O -0.9148(3) 0.8845(3) 0.0311(2)
O40 O -0.1150(4) 0.2303(3) -0.1244(2)
O41 O -0.9756(3) 0.9299(3) -0.0744(2)
O42 O -0.0077(4) 0.2942(3) -0.1065(2)
O43 O -0.8912(4) 1.1097(3) -0.2174(2)
O44 O -0.2631(4) 0.1903(4) -0.0460(3)
O45 O -1.0717(4) 0.8711(4) -0.1209(3)
O46 O -1.1531(4) 1.2804(4) -0.0111(3)
O47 O -0.7494(4) 1.0748(3) -0.1300(2)
O48 O -0.8567(4) 0.9985(3) -0.1452(2)
O49 O -0.6638(4) 0.9258(3) -0.1722(2)
O50 O -0.6753(4) 0.9404(4) -0.0579(3)
O51 O 0.1203(4) 0.2496(4) -0.1985(2)
O52 O 0.1060(4) 0.3606(4) -0.1495(3)
O53 O -0.7831(4) 1.1192(4) -0.0153(3)
O54 O 0.1539(4) 0.2263(4) -0.1003(2)
O55 O -0.8577(4) 0.7852(4) -0.1307(2)
O56 O -0.5996(4) 0.8615(4) -0.2668(2)
O57 O -0.2247(4) 0.1044(4) -0.2421(3)
O58 O -0.1117(4) 0.0058(3) -0.1935(2)
O59 O -0.7891(4) 0.8735(3) -0.0852(2)
O60 O -0.7551(4) 0.8708(3) -0.2060(2)
O61 O -0.7219(4) 0.9929(4) -0.2591(2)
O62 O -0.2815(4) 0.0572(4) -0.1414(3)
O63 O -0.4901(5) 0.7928(4) -0.1930(3)
N1 N -0.5310(5) 0.6396(4) -0.1187(3)
N2 N -0.3530(5) 0.5569(5) -0.1251(3)
N3 N -0.2968(5) 0.7219(5) -0.1675(3)
N4 N -0.4541(5) 0.7551(5) -0.0783(3)
N5 N 0.1983(5) 0.3973(5) -0.0751(3)
N6 N 0.1280(5) 0.5214(4) -0.1440(3)
N7 N 0.3412(5) 0.4359(5) -0.1939(3)
N8 N 0.3469(5) 0.2845(5) -0.1726(3)
N9 N -0.6319(5) 0.7361(5) -0.3232(3)
N10 N -0.5075(5) 0.7373(4) -0.4258(3)
N11 N -0.6204(5) 0.9172(5) -0.3830(3)
N12 N -0.4374(5) 0.8685(4) -0.4013(3)
N13 N -0.3341(6) 0.0356(5) -0.3027(3)
N14 N -0.3672(5) 0.1925(5) -0.3230(3)
N15 N -0.1180(5) -0.0272(5) -0.3488(4)
N16 N -0.2009(5) 0.0807(5) -0.4229(3)
C1 C -0.6178(7) 0.6812(7) -0.1153(4)
H1 H -0.6340 0.7331 -0.1304
C2 C -0.6859(8) 0.6489(7) -0.0895(4)
H2 H -0.7467 0.6790 -0.0873
C3 C -0.6615(8) 0.5719(7) -0.0676(5)
H3 H -0.7059 0.5496 -0.0504
C4 C -0.5715(8) 0.5281(7) -0.0712(5)
C5 C -0.5080(6) 0.5641(6) -0.0960(4)
C6 C -0.4134(6) 0.5204(6) -0.1001(4)
C7 C -0.3855(7) 0.4397(7) -0.0817(4)
C8 C -0.2924(8) 0.3989(8) -0.0888(5)
H4 H -0.2715 0.3461 -0.0762
C9 C -0.2327(8) 0.4358(7) -0.1138(4)
H5 H -0.1703 0.4083 -0.1201
C10 C -0.2654(7) 0.5145(6) -0.1297(4)
H6 H -0.2237 0.5401 -0.1448
C11 C -0.5406(8) 0.4458(7) -0.0488(5)
H7 H -0.5834 0.4226 -0.0289
C12 C -0.4509(8) 0.4032(8) -0.0566(5)
H8 H -0.4320 0.3497 -0.0455
C13 C -0.2218(6) 0.7048(6) -0.2104(4)
H9 H -0.2090 0.6656 -0.2349
C14 C -0.1614(7) 0.7429(6) -0.2202(4)
H10 H -0.1089 0.7295 -0.2511
C15 C -0.1782(7) 0.8002(6) -0.1847(4)
H11 H -0.1384 0.8273 -0.1920
C16 C -0.2556(7) 0.8176(6) -0.1373(4)
C17 C -0.3149(6) 0.7777(6) -0.1303(4)
C18 C -0.3960(6) 0.7926(5) -0.0823(4)
C19 C -0.4129(7) 0.8457(6) -0.0405(4)
C20 C -0.4897(7) 0.8560(6) 0.0056(4)
H12 H -0.5023 0.8896 0.0343
C21 C -0.5473(7) 0.8183(6) 0.0100(4)
H13 H -0.5994 0.8257 0.0411
C22 C -0.5261(6) 0.7687(6) -0.0331(4)
H14 H -0.5659 0.7428 -0.0300
C23 C -0.2751(7) 0.8710(6) -0.0950(4)
H15 H -0.2353 0.8971 -0.0988
C24 C -0.3496(6) 0.8846(6) -0.0494(4)
H16 H -0.3605 0.9205 -0.0228
C25 C 0.2260(7) 0.3343(7) -0.0398(4)
H17 H 0.2602 0.2851 -0.0558
C26 C 0.2058(7) 0.3396(7) 0.0199(5)
H18 H 0.2276 0.2952 0.0429
C27 C 0.1532(8) 0.4115(7) 0.0433(5)
H19 H 0.1378 0.4157 0.0830
C28 C 0.1225(6) 0.4783(6) 0.0090(4)
C29 C 0.1462(7) 0.4683(6) -0.0509(4)
C30 C 0.1108(6) 0.5339(6) -0.0875(4)
C31 C 0.0566(7) 0.6084(6) -0.0642(4)
C32 C 0.0225(7) 0.6717(7) -0.1014(5)
H20 H -0.0131 0.7219 -0.0874
C33 C 0.0424(8) 0.6585(7) -0.1579(5)
H21 H 0.0219 0.6997 -0.1836
C34 C 0.0946(7) 0.5816(6) -0.1768(5)
H22 H 0.1060 0.5730 -0.2154
C35 C 0.0666(7) 0.5544(7) 0.0310(5)
H23 H 0.0496 0.5613 0.0704
C36 C 0.0380(8) 0.6167(8) -0.0047(5)
H24 H 0.0051 0.6666 0.0103
C37 C 0.3402(8) 0.5080(7) -0.2099(5)
H25 H 0.2866 0.5462 -0.2157
C38 C 0.4159(8) 0.5316(8) -0.2190(5)
H26 H 0.4126 0.5834 -0.2300
C39 C 0.4934(9) 0.4742(8) -0.2107(5)
H27 H 0.5440 0.4874 -0.2155
C40 C 0.4993(7) 0.3978(7) -0.1955(5)
C41 C 0.4202(7) 0.3777(6) -0.1880(4)
C42 C 0.4220(6) 0.2987(6) -0.1758(4)
C43 C 0.5049(7) 0.2392(7) -0.1699(4)
C44 C 0.5048(7) 0.1637(7) -0.1609(4)
H28 H 0.5571 0.1224 -0.1561
C45 C 0.4306(8) 0.1471(8) -0.1585(5)
H29 H 0.4320 0.0953 -0.1524
C46 C 0.3511(7) 0.2108(6) -0.1656(4)
H30 H 0.3006 0.2000 -0.1652
C47 C 0.5788(9) 0.3320(8) -0.1886(5)
H31 H 0.6320 0.3415 -0.1938
C48 C 0.5806(8) 0.2606(8) -0.1755(5)
H32 H 0.6337 0.2216 -0.1696
C49 C -0.6905(7) 0.7322(7) -0.2730(5)
H33 H -0.6840 0.7483 -0.2411
C50 C -0.7616(8) 0.7057(7) -0.2646(5)
H34 H -0.8017 0.7048 -0.2281
C51 C -0.7713(8) 0.6815(7) -0.3101(5)
H35 H -0.8198 0.6651 -0.3049
C52 C -0.7105(8) 0.6804(7) -0.3652(5)
C53 C -0.6401(7) 0.7100(6) -0.3696(4)
C54 C -0.5742(6) 0.7097(6) -0.4226(4)
C55 C -0.5771(7) 0.6823(6) -0.4725(4)
C56 C -0.5107(7) 0.6811(7) -0.5230(5)
H36 H -0.5124 0.6629 -0.5557
C57 C -0.4427(7) 0.7060(6) -0.5264(4)
H37 H -0.3967 0.7045 -0.5606
C58 C -0.4441(6) 0.7342(6) -0.4761(4)
H38 H -0.3977 0.7519 -0.4780
C59 C -0.7134(8) 0.6557(7) -0.4155(5)
H39 H -0.7615 0.6403 -0.4136
C60 C -0.6516(8) 0.6533(7) -0.4648(5)
H40 H -0.6545 0.6327 -0.4961
C61 C -0.7121(7) 0.9415(7) -0.3717(4)
H41 H -0.7415 0.9055 -0.3566
C62 C -0.7636(7) 1.0218(7) -0.3829(4)
H42 H -0.8265 1.0380 -0.3756
C63 C -0.7228(7) 1.0738(7) -0.4035(5)
H43 H -0.7573 1.1261 -0.4108
C64 C -0.6296(7) 1.0513(6) -0.4141(4)
C65 C -0.5782(6) 0.9713(6) -0.4040(4)
C66 C -0.4833(6) 0.9461(6) -0.4150(4)
C67 C -0.4376(7) 0.9998(6) -0.4373(4)
C68 C -0.3429(8) 0.9729(7) -0.4497(5)
H44 H -0.3114 1.0070 -0.4660
C69 C -0.2977(7) 0.8951(6) -0.4373(4)
H45 H -0.2344 0.8754 -0.4452
C70 C -0.3490(7) 0.8433(6) -0.4116(4)
H46 H -0.3178 0.7908 -0.4023
C71 C -0.5826(8) 1.1062(7) -0.4377(5)
H47 H -0.6151 1.1591 -0.4449
C72 C -0.4925(8) 1.0802(7) -0.4488(5)
H48 H -0.4632 1.1160 -0.4650
C73 C -0.3193(8) -0.0406(8) -0.2909(5)
H49 H -0.2614 -0.0742 -0.2888
C74 C -0.3882(9) -0.0743(9) -0.2810(5)
H50 H -0.3741 -0.1287 -0.2752
C75 C -0.4682(9) -0.0282(8) -0.2804(5)
H51 H -0.5132 -0.0498 -0.2726
C76 C -0.4927(8) 0.0534(8) -0.2907(5)
C77 C -0.4175(7) 0.0835(6) -0.3030(4)
C78 C -0.4368(7) 0.1651(6) -0.3124(4)
C79 C -0.5260(7) 0.2178(7) -0.3124(4)
C80 C -0.5414(8) 0.2976(7) -0.3193(5)
H52 H -0.6000 0.3336 -0.3173
C81 C -0.4707(7) 0.3251(7) -0.3292(4)
H53 H -0.4806 0.3789 -0.3351
C82 C -0.3831(7) 0.2687(6) -0.3302(4)
H54 H -0.3352 0.2862 -0.3361
C83 C -0.5782(9) 0.1095(8) -0.2933(5)
H55 H -0.6251 0.0911 -0.2886
C84 C -0.5961(9) 0.1844(8) -0.3017(5)
H56 H -0.6554 0.2180 -0.3010
C85 C -0.0776(7) -0.0764(7) -0.3141(5)
H57 H -0.0932 -0.0622 -0.2762
C86 C -0.0102(8) -0.1514(8) -0.3304(5)
H58 H 0.0196 -0.1856 -0.3046
C87 C 0.0089(9) -0.1713(9) -0.3857(5)
H59 H 0.0499 -0.2217 -0.3968
C88 C -0.0280(8) -0.1225(7) -0.4238(5)
C89 C -0.0945(6) -0.0459(6) -0.4042(4)
C90 C -0.1383(7) 0.0115(6) -0.4431(4)
C91 C -0.1082(7) -0.0055(7) -0.5025(5)
C92 C -0.1462(8) 0.0556(7) -0.5386(5)
H60 H -0.1266 0.0476 -0.5780
C93 C -0.2090(8) 0.1252(8) -0.5202(5)
H61 H -0.2335 0.1652 -0.5454
C94 C -0.2361(8) 0.1342(8) -0.4604(5)
H62 H -0.2821 0.1813 -0.4462
C95 C -0.0102(9) -0.1344(8) -0.4844(5)
H63 H 0.0279 -0.1843 -0.4981
C96 C -0.0438(8) -0.0804(8) -0.5208(6)
H64 H -0.0248 -0.0913 -0.5596
O5A O -0.0719(4) 0.6142(3) -0.5428(2)
O6A O 0.1340(3) 0.5126(3) -0.5343(2)
O7A O 0.0215(3) 0.4209(3) -0.5655(2)
O37A O -0.8676(3) 1.0203(3) -0.0330(2)
O39A O -1.0852(3) 1.1155(3) -0.0311(2)
O41A O -1.0244(3) 1.0701(3) 0.0744(2)
Mo1A Mo 0.13032(5) 0.35209(5) -0.62083(3)
Mo2A Mo 0.25279(5) 0.45045(5) -0.58696(3)
Mo3A Mo 0.17774(5) 0.60038(5) -0.56829(3)
Mo4A Mo -0.03652(5) 0.43144(5) -0.62555(3)
Mo5A Mo -0.04381(5) 0.70736(4) -0.58005(3)
Mo6A Mo -0.13885(5) 0.63821(5) -0.60117(3)
O2A O 0.2049(4) 0.3555(3) -0.5669(2)
O4A O 0.0757(4) 0.3879(4) -0.6847(2)
P6A P 0.09333(15) 0.54747(14) -0.66124(9)
O1A O -0.0022(3) 0.5456(3) -0.6509(2)
O15A O 0.1571(4) 0.4676(3) -0.6424(2)
O23A O 0.0867(4) 0.6130(3) -0.6263(2)
O31A O 0.1303(4) 0.5654(3) -0.7267(2)
Mn2A Mn 0.41231(9) 0.31888(9) -0.84073(6)
Mn5A Mn 0.52941(9) 0.19880(8) -0.65474(6)
P2A P 0.68513(15) 0.08900(14) -0.77432(10)
P5A P 0.34641(15) 0.33012(15) -0.69648(10)
O14A O 0.3417(4) 0.3906(4) -0.6571(2)
O16A O 0.4271(4) 0.2534(3) -0.6942(2)
O17A O 0.2567(4) 0.3135(4) -0.6770(2)
O21A O 0.3597(4) 0.3675(4) -0.7583(2)
O49A O 0.6638(4) 0.0742(3) -0.8278(2)
O56A O 0.5996(4) 0.1385(4) -0.7332(2)
O60A O 0.7551(4) 0.1292(3) -0.7940(2)
O61A O 0.7219(4) 0.0071(4) -0.7409(2)
O63A O 0.4901(5) 0.2072(4) -0.8070(3)
N1A N 0.5310(5) 0.3604(4) -0.8813(3)
N2A N 0.3530(5) 0.4431(5) -0.8749(3)
N3A N 0.2968(5) 0.2781(5) -0.8325(3)
N4A N 0.4541(5) 0.2449(5) -0.9217(3)
N9A N 0.6319(5) 0.2639(5) -0.6768(3)
N10A N 0.5075(5) 0.2627(4) -0.5742(3)
N11A N 0.6204(5) 0.0828(5) -0.6170(3)
N12A N 0.4374(5) 0.1315(4) -0.5987(3)
C1A C 0.6178(7) 0.3188(7) -0.8847(4)
H1A H 0.6340 0.2669 -0.8696
C2A C 0.6859(8) 0.3511(7) -0.9105(4)
H2A H 0.7467 0.3210 -0.9127
C3A C 0.6615(8) 0.4281(7) -0.9324(5)
H3A H 0.7059 0.4504 -0.9496
C4A C 0.5715(8) 0.4719(7) -0.9288(5)
C5A C 0.5080(6) 0.4359(6) -0.9040(4)
C6A C 0.4134(6) 0.4796(6) -0.8999(4)
C7A C 0.3855(7) 0.5603(7) -0.9183(4)
C8A C 0.2924(8) 0.6011(8) -0.9112(5)
H4A H 0.2715 0.6539 -0.9238
C9A C 0.2327(8) 0.5642(7) -0.8862(4)
H5A H 0.1703 0.5917 -0.8799
C10A C 0.2654(7) 0.4855(6) -0.8703(4)
H6A H 0.2237 0.4599 -0.8552
C11A C 0.5406(8) 0.5542(7) -0.9512(5)
H7A H 0.5834 0.5774 -0.9711
C12A C 0.4509(8) 0.5968(8) -0.9434(5)
H8A H 0.4320 0.6503 -0.9545
C13A C 0.2218(6) 0.2952(6) -0.7896(4)
H9A H 0.2090 0.3344 -0.7651
C14A C 0.1614(7) 0.2571(6) -0.7798(4)
H10A H 0.1089 0.2705 -0.7489
C15A C 0.1782(7) 0.1998(6) -0.8153(4)
H11A H 0.1384 0.1727 -0.8080
C16A C 0.2556(7) 0.1824(6) -0.8627(4)
C17A C 0.3149(6) 0.2223(6) -0.8697(4)
C18A C 0.3960(6) 0.2074(5) -0.9177(4)
C19A C 0.4129(7) 0.1543(6) -0.9595(4)
C20A C 0.4897(7) 0.1440(6) -1.0056(4)
H12A H 0.5023 0.1104 -1.0343
C21A C 0.5473(7) 0.1817(6) -1.0100(4)
H13A H 0.5994 0.1743 -1.0411
C22A C 0.5261(6) 0.2313(6) -0.9669(4)
H14A H 0.5659 0.2572 -0.9700
C23A C 0.2751(7) 0.1290(6) -0.9050(4)
H15A H 0.2353 0.1029 -0.9012
C24A C 0.3496(6) 0.1154(6) -0.9506(4)
H16A H 0.3605 0.0795 -0.9772
C49A C 0.6905(7) 0.2678(7) -0.7270(5)
H33A H 0.6840 0.2517 -0.7589
C50A C 0.7616(8) 0.2943(7) -0.7354(5)
H34A H 0.8017 0.2952 -0.7719
C51A C 0.7713(8) 0.3185(7) -0.6899(5)
H35A H 0.8198 0.3349 -0.6951
C52A C 0.7105(8) 0.3196(7) -0.6348(5)
C53A C 0.6401(7) 0.2900(6) -0.6304(4)
C54A C 0.5742(6) 0.2903(6) -0.5774(4)
C55A C 0.5771(7) 0.3177(6) -0.5275(4)
C56A C 0.5107(7) 0.3189(7) -0.4770(5)
H36A H 0.5124 0.3371 -0.4443
C57A C 0.4427(7) 0.2940(6) -0.4736(4)
H37A H 0.3967 0.2955 -0.4394
C58A C 0.4441(6) 0.2658(6) -0.5239(4)
H38A H 0.3977 0.2481 -0.5220
C59A C 0.7134(8) 0.3443(7) -0.5845(5)
H39A H 0.7615 0.3597 -0.5864
C60A C 0.6516(8) 0.3467(7) -0.5352(5)
H40A H 0.6545 0.3673 -0.5039
C61A C 0.7121(7) 0.0585(7) -0.6283(4)
H41A H 0.7415 0.0945 -0.6434
C62A C 0.7636(7) -0.0218(7) -0.6171(4)
H42A H 0.8265 -0.0380 -0.6244
C63A C 0.7228(7) -0.0738(7) -0.5965(5)
H43A H 0.7573 -0.1261 -0.5892
C64A C 0.6296(7) -0.0513(6) -0.5859(4)
C65A C 0.5782(6) 0.0287(6) -0.5960(4)
C66A C 0.4833(6) 0.0539(6) -0.5850(4)
C67A C 0.4376(7) 0.0002(6) -0.5627(4)
C68A C 0.3429(8) 0.0271(7) -0.5503(5)
H44A H 0.3114 -0.0070 -0.5340
C69A C 0.2977(7) 0.1049(6) -0.5627(4)
H45A H 0.2344 0.1246 -0.5548
C70A C 0.3490(7) 0.1567(6) -0.5884(4)
H46A H 0.3178 0.2092 -0.5977
C71A C 0.5826(8) -0.1062(7) -0.5623(5)
H47A H 0.6151 -0.1591 -0.5551
C72A C 0.4925(8) -0.0802(7) -0.5512(5)
H48A H 0.4632 -0.1160 -0.5350
O30A O 0.1235(4) 0.2632(4) -0.5987(3)
O11A O 0.3202(4) 0.4238(4) -0.5434(3)
O19A O 0.2735(4) 0.5421(3) -0.6323(2)
O8A O 0.0450(4) 0.6767(3) -0.5286(2)
O20A O 0.2292(4) 0.6053(4) -0.5213(3)
Mn1A Mn 0.22834(9) 0.90536(8) -0.67434(6)
P3A P 0.19921(16) 0.92077(15) -0.81324(10)
P7A P 0.12979(16) 0.76929(15) -0.64829(10)
O13A O 0.0305(4) 0.7739(4) -0.6315(2)
O24A O 0.1859(4) 0.7002(4) -0.6165(3)
O25A O 0.1737(5) 0.7498(4) -0.7154(3)
O26A O 0.1350(4) 0.8471(4) -0.6423(3)
O32A O 0.1922(4) 0.8537(3) -0.8377(2)
O57A O 0.2247(4) 0.8956(4) -0.7579(3)
O58A O 0.1117(4) 0.9942(3) -0.8065(2)
O62A O 0.2815(4) 0.9428(4) -0.8586(3)
N13A N 0.3341(6) 0.9644(5) -0.6973(3)
N14A N 0.3672(5) 0.8075(5) -0.6770(3)
N15A N 0.1180(5) 1.0272(5) -0.6512(4)
N16A N 0.2009(5) 0.9193(5) -0.5771(3)
C73A C 0.3193(8) 1.0406(8) -0.7091(5)
H49A H 0.2614 1.0742 -0.7112
C74A C 0.3882(9) 1.0743(9) -0.7190(5)
H50A H 0.3741 1.1287 -0.7248
C75A C 0.4682(9) 1.0282(8) -0.7196(5)
H51A H 0.5132 1.0498 -0.7274
C76A C 0.4927(8) 0.9466(8) -0.7093(5)
C77A C 0.4175(7) 0.9165(6) -0.6970(4)
C78A C 0.4368(7) 0.8349(6) -0.6876(4)
C79A C 0.5260(7) 0.7822(7) -0.6876(4)
C80A C 0.5414(8) 0.7024(7) -0.6807(5)
H52A H 0.6000 0.6664 -0.6827
C81A C 0.4707(7) 0.6749(7) -0.6708(4)
H53A H 0.4806 0.6211 -0.6649
C82A C 0.3831(7) 0.7313(6) -0.6698(4)
H54A H 0.3352 0.7138 -0.6639
C83A C 0.5782(9) 0.8905(8) -0.7067(5)
H55A H 0.6251 0.9089 -0.7114
C84A C 0.5961(9) 0.8156(8) -0.6983(5)
H56A H 0.6554 0.7820 -0.6990
C85A C 0.0776(7) 1.0764(7) -0.6859(5)
H57A H 0.0932 1.0622 -0.7238
C86A C 0.0102(8) 1.1514(8) -0.6696(5)
H58A H -0.0196 1.1856 -0.6954
C87A C -0.0089(9) 1.1713(9) -0.6143(5)
H59A H -0.0499 1.2217 -0.6032
C88A C 0.0280(8) 1.1225(7) -0.5762(5)
C89A C 0.0945(6) 1.0459(6) -0.5958(4)
C90A C 0.1383(7) 0.9885(6) -0.5569(4)
C91A C 0.1082(7) 1.0055(7) -0.4975(5)
C92A C 0.1462(8) 0.9444(7) -0.4614(5)
H60A H 0.1266 0.9524 -0.4220
C93A C 0.2090(8) 0.8748(8) -0.4798(5)
H61A H 0.2335 0.8348 -0.4546
C94A C 0.2361(8) 0.8658(8) -0.5396(5)
H62A H 0.2821 0.8187 -0.5538
C95A C 0.0102(9) 1.1344(8) -0.5156(5)
H63A H -0.0279 1.1843 -0.5019
C96A C 0.0438(8) 1.0804(8) -0.4792(6)
H64A H 0.0248 1.0913 -0.4404
Mn4A Mn -0.21898(9) 0.60438(8) -0.82795(6)
P1A P -0.09214(16) 0.71673(14) -0.86394(10)
P8A P -0.18527(15) 0.55631(15) -0.68960(10)
O9A O -0.1666(4) 0.6265(3) -0.6752(2)
O10A O -0.1010(4) 0.4796(3) -0.6904(2)
O18A O -0.2102(4) 0.5719(4) -0.7444(2)
O29A O -0.2701(4) 0.5470(4) -0.6401(3)
O42A O 0.0077(4) 0.7058(3) -0.8935(2)
O51A O -0.1203(4) 0.7504(4) -0.8015(2)
O52A O -0.1060(4) 0.6394(4) -0.8505(3)
O54A O -0.1539(4) 0.7737(4) -0.8997(2)
N5A N -0.1983(5) 0.6027(5) -0.9249(3)
N6A N -0.1280(5) 0.4786(4) -0.8560(3)
N7A N -0.3412(5) 0.5641(5) -0.8061(3)
N8A N -0.3469(5) 0.7155(5) -0.8274(3)
C25A C -0.2260(7) 0.6657(7) -0.9602(4)
H17A H -0.2602 0.7149 -0.9442
C26A C -0.2058(7) 0.6604(7) -1.0199(5)
H18A H -0.2276 0.7048 -1.0429
C27A C -0.1532(8) 0.5885(7) -1.0433(5)
H19A H -0.1378 0.5843 -1.0830
C28A C -0.1225(6) 0.5217(6) -1.0090(4)
C29A C -0.1462(7) 0.5317(6) -0.9491(4)
C30A C -0.1108(6) 0.4661(6) -0.9125(4)
C31A C -0.0566(7) 0.3916(6) -0.9358(4)
C32A C -0.0225(7) 0.3283(7) -0.8986(5)
H20A H 0.0131 0.2781 -0.9126
C33A C -0.0424(8) 0.3415(7) -0.8421(5)
H21A H -0.0219 0.3003 -0.8164
C34A C -0.0946(7) 0.4184(6) -0.8232(5)
H22A H -0.1060 0.4270 -0.7846
C35A C -0.0666(7) 0.4456(7) -1.0310(5)
H23A H -0.0496 0.4387 -1.0704
C36A C -0.0380(8) 0.3833(8) -0.9953(5)
H24A H -0.0051 0.3334 -1.0103
C37A C -0.3402(8) 0.4920(7) -0.7901(5)
H25A H -0.2866 0.4538 -0.7843
C38A C -0.4159(8) 0.4684(8) -0.7810(5)
H26A H -0.4126 0.4166 -0.7700
C39A C -0.4934(9) 0.5258(8) -0.7893(5)
H27A H -0.5440 0.5126 -0.7845
C40A C -0.4993(7) 0.6022(7) -0.8045(5)
C41A C -0.4202(7) 0.6223(6) -0.8120(4)
C42A C -0.4220(6) 0.7013(6) -0.8242(4)
C43A C -0.5049(7) 0.7608(7) -0.8301(4)
C44A C -0.5048(7) 0.8363(7) -0.8391(4)
H28A H -0.5571 0.8776 -0.8439
C45A C -0.4306(8) 0.8529(8) -0.8415(5)
H29A H -0.4320 0.9047 -0.8476
C46A C -0.3511(7) 0.7892(6) -0.8344(4)
H30A H -0.3006 0.8000 -0.8348
C47A C -0.5788(9) 0.6680(8) -0.8114(5)
H31A H -0.6320 0.6585 -0.8062
C48A C -0.5806(8) 0.7394(8) -0.8245(5)
H32A H -0.6337 0.7784 -0.8304
O12A O -0.0827(4) 0.3620(4) -0.6041(3)
O22A O -0.1475(4) 0.5255(3) -0.5781(2)
O3A O -0.0825(4) 0.7108(3) -0.6480(2)
O27A O -0.1260(4) 0.7820(4) -0.5407(2)
O28A O -0.2443(4) 0.6955(4) -0.5660(2)
Mo7A Mo -1.13018(5) 1.11911(5) 0.13947(3)
Mo8A Mo -1.24676(5) 1.02587(5) 0.09451(3)
Mo9A Mo 0.15631(5) 0.85467(4) -0.91249(3)
Mo10A Mo -1.16058(5) 0.88278(5) 0.06009(3)
Mo11A Mo -0.95998(5) 1.05071(5) 0.13321(3)
Mo12A Mo -0.93067(5) 0.78366(4) 0.05896(3)
P4_2 P 0.07311(14) 0.07895(13) -0.15742(9)
O35_2 O 0.0611(4) 0.1349(3) -0.1122(2)
O38_2 O -0.0192(4) 0.0690(3) -0.1451(2)
O43_2 O 0.1088(4) 0.1097(3) -0.2174(2)
O48_2 O 0.1433(4) -0.0015(3) -0.1452(2)
O36_2 O -1.1550(3) 1.0280(3) -0.0761(2)
O40_2 O -1.1150(4) 1.2303(3) -0.1244(2)
O33A O -1.0666(4) 1.0751(4) 0.1984(2)
O55A O -1.1423(4) 1.2148(4) 0.1307(2)
O59A O -1.2109(4) 1.1265(3) 0.0852(2)
O47A O -1.2506(4) 0.9252(3) 0.1300(2)
O50A O -1.3247(4) 1.0596(4) 0.0579(3)
O44A O 0.2631(4) 0.8097(4) -0.9540(3)
O34A O -1.0268(4) 0.8183(3) 0.0115(2)
O53A O -1.2169(4) 0.8808(4) 0.0153(3)
O45A O -0.9283(4) 1.1289(4) 0.1209(3)
O46A O -0.8469(4) 0.7196(4) 0.0111(3)
Mo12_2 Mo -0.06933(5) 0.21634(4) -0.05896(3)
O39A_2 O -0.0852(3) 0.1155(3) -0.0311(2)
O54_2 O -0.8461(4) 1.2263(4) -0.1003(2)
O58_2 O -1.1117(4) 1.0058(3) -0.1935(2)
Mo9_2 Mo -1.15631(5) 1.14533(4) -0.08751(3)
O42_2 O -1.0077(4) 1.2942(3) -0.1065(2)
Mo11_2 Mo -0.04002(5) -0.05071(5) -0.13321(3)
Mo9A_2 Mo -0.84369(5) 0.85467(4) 0.08751(3)
Mo10_2 Mo 0.16058(5) 0.11722(5) -0.06009(3)
Mo8A_2 Mo 0.75324(5) 0.02587(5) -0.90549(3)
Mo7A_2 Mo 0.86982(5) 0.11911(5) -0.86053(3)
Mo11A_2 Mo 0.04002(5) 1.05071(5) -0.86679(3)
Mo12A_2 Mo 0.06933(5) 0.78366(4) -0.94104(3)
Mo10A_2 Mo -0.16058(5) 0.88278(5) -0.93991(3)
O48A O -1.1433(4) 1.0015(3) 0.1452(2)
O60A_2 O -1.2449(4) 1.1292(3) 0.2060(2)
O49A_2 O -1.3362(4) 1.0742(3) 0.1722(2)
O36A O 0.1550(3) 0.9720(3) -0.9239(2)
O38A O 0.0192(4) 0.9310(3) -0.8549(2)
O39_2 O 0.0852(3) 0.8845(3) -0.9689(2)
O40A O 0.1150(4) 0.7697(3) -0.8756(2)
O35A O -1.0611(4) 0.8651(3) 0.1122(2)
O54A_2 O -1.1539(4) 0.7737(4) 0.1003(2)
O36A_2 O -0.8450(3) 0.9720(3) 0.0761(2)
O38A_2 O -0.9808(4) 0.9310(3) 0.1451(2)
O58A_2 O -0.8883(4) 0.9942(3) 0.1935(2)
O40A_2 O -0.8850(4) 0.7697(3) 0.1244(2)
O42A_2 O -0.9923(4) 0.7058(3) 0.1065(2)
Mo7_2 Mo 0.13018(5) -0.11911(5) -0.13947(3)
Mo8_2 Mo 0.24676(5) -0.02587(5) -0.09451(3)
loop_
_geom_bond_atom_site_label_1
_geom_bond_atom_site_label_2
_geom_bond_site_symmetry_1
_geom_bond_site_symmetry_2
Mo1 Mo4 1_555 1_555
Mo2 Mo3 1_555 1_555
Mo3 O6 1_555 1_555
Mo4 O1 1_555 1_555
Mo5 Mo6 1_555 1_555
Mo6 O1 1_555 1_555
Mo7 Mo11 1_555 1_555
Mo8 Mo10 1_555 1_555
Mo9 O32 1_555 1_555
Mo10 O34 1_555 1_555
Mo11 O33 1_555 1_555
Mo12 O34 1_555 1_555
Mn1 O26 1_555 1_555
Mn2 O21 1_555 1_555
Mn3 O5 1_555 1_555
Mn4 O18 1_555 1_555
Mn5 O16 1_555 1_555
Mn6 O37 1_555 1_555
P1 O42 1_555 1_555
P2 O49 1_555 1_555
P3 O32 1_555 1_555
P4 O35 1_555 1_555
P5 O14 1_555 1_555
P6 O1 1_555 1_555
P7 O13 1_555 1_555
P8 O9 1_555 1_555
O2 Mo1 1_555 1_555
O3 Mo5 1_555 1_555
O4 Mo1 1_555 1_555
O5 Mo5 1_555 1_555
O6 Mo2 1_555 1_555
O7 Mo1 1_555 1_555
O8 Mo3 1_555 1_555
O9 Mo6 1_555 1_555
O10 Mo4 1_555 1_555
O11 Mo2 1_555 1_555
O12 Mo4 1_555 1_555
O13 Mo5 1_555 1_555
O14 Mo2 1_555 1_555
O15 Mo1 1_555 1_555
O16 P5 1_555 1_555
O17 Mo1 1_555 1_555
O18 P8 1_555 1_555
O19 Mo2 1_555 1_555
O20 Mo3 1_555 1_555
O21 P5 1_555 1_555
O22 Mo4 1_555 1_555
O23 Mo3 1_555 1_555
O24 Mo3 1_555 1_555
O25 P7 1_555 1_555
O26 P7 1_555 1_555
O27 Mo5 1_555 1_555
O28 Mo6 1_555 1_555
O29 P8 1_555 1_555
O30 Mo1 1_555 1_555
O31 P6 1_555 1_555
O33 Mo7 1_555 1_555
O35 Mo10 1_555 1_555
O36 Mo9 1_555 1_555
O37 Mo8A 1_555 1_555
O38 Mo11 1_555 1_555
O39 Mn6 1_555 1_555
O40 Mo9 1_555 1_555
O41 Mo7 1_555 1_555
O42 Mo12_2 1_555 1_555
O43 P4 1_555 1_555
O44 Mo9 1_555 1_555
O45 Mo11 1_555 1_555
O46 Mo12 1_555 1_555
O47 Mo8 1_555 1_555
O48 Mo7 1_555 1_555
O49 Mo8 1_555 1_555
O50 Mo8 1_555 1_555
O51 P1 1_555 1_555
O52 Mn4 1_555 1_555
O53 Mo10 1_555 1_555
O54 P1 1_555 1_555
O55 Mo7 1_555 1_555
O56 Mn5 1_555 1_555
O57 Mn1 1_555 1_555
O58 P3 1_555 1_555
O59 Mo7 1_555 1_555
O60 Mo7 1_555 1_555
O61 P2 1_555 1_555
O62 P3 1_555 1_555
O63 Mn2 1_555 1_555
N1 Mn2 1_555 1_555
N2 Mn2 1_555 1_555
N3 Mn2 1_555 1_555
N4 Mn2 1_555 1_555
N5 Mn4 1_555 1_555
N6 Mn4 1_555 1_555
N7 Mn4 1_555 1_555
N8 Mn4 1_555 1_555
N9 Mn5 1_555 1_555
N10 Mn5 1_555 1_555
N11 Mn5 1_555 1_555
N12 Mn5 1_555 1_555
N13 Mn1 1_555 1_555
N14 Mn1 1_555 1_555
N15 Mn1 1_555 1_555
N16 Mn1 1_555 1_555
C1 N1 1_555 1_555
H1 C1 1_555 1_555
C2 C1 1_555 1_555
H2 C2 1_555 1_555
C3 C2 1_555 1_555
H3 C3 1_555 1_555
C4 C3 1_555 1_555
C5 N1 1_555 1_555
C6 N2 1_555 1_555
C7 C6 1_555 1_555
C8 C7 1_555 1_555
H4 C8 1_555 1_555
C9 C8 1_555 1_555
H5 C9 1_555 1_555
C10 N2 1_555 1_555
H6 C10 1_555 1_555
C11 C4 1_555 1_555
H7 C11 1_555 1_555
C12 C7 1_555 1_555
H8 C12 1_555 1_555
C13 N3 1_555 1_555
H9 C13 1_555 1_555
C14 C13 1_555 1_555
H10 C14 1_555 1_555
C15 C14 1_555 1_555
H11 C15 1_555 1_555
C16 C15 1_555 1_555
C17 N3 1_555 1_555
C18 N4 1_555 1_555
C19 C18 1_555 1_555
C20 C19 1_555 1_555
H12 C20 1_555 1_555
C21 C20 1_555 1_555
H13 C21 1_555 1_555
C22 N4 1_555 1_555
H14 C22 1_555 1_555
C23 C16 1_555 1_555
H15 C23 1_555 1_555
C24 C19 1_555 1_555
H16 C24 1_555 1_555
C25 N5 1_555 1_555
H17 C25 1_555 1_555
C26 C25 1_555 1_555
H18 C26 1_555 1_555
C27 C26 1_555 1_555
H19 C27 1_555 1_555
C28 C27 1_555 1_555
C29 N5 1_555 1_555
C30 N6 1_555 1_555
C31 C30 1_555 1_555
C32 C31 1_555 1_555
H20 C32 1_555 1_555
C33 C32 1_555 1_555
H21 C33 1_555 1_555
C34 N6 1_555 1_555
H22 C34 1_555 1_555
C35 C28 1_555 1_555
H23 C35 1_555 1_555
C36 C31 1_555 1_555
H24 C36 1_555 1_555
C37 N7 1_555 1_555
H25 C37 1_555 1_555
C38 C37 1_555 1_555
H26 C38 1_555 1_555
C39 C38 1_555 1_555
H27 C39 1_555 1_555
C40 C39 1_555 1_555
C41 N7 1_555 1_555
C42 N8 1_555 1_555
C43 C42 1_555 1_555
C44 C43 1_555 1_555
H28 C44 1_555 1_555
C45 C44 1_555 1_555
H29 C45 1_555 1_555
C46 N8 1_555 1_555
H30 C46 1_555 1_555
C47 C40 1_555 1_555
H31 C47 1_555 1_555
C48 C43 1_555 1_555
H32 C48 1_555 1_555
C49 N9 1_555 1_555
H33 C49 1_555 1_555
C50 C49 1_555 1_555
H34 C50 1_555 1_555
C51 C50 1_555 1_555
H35 C51 1_555 1_555
C52 C51 1_555 1_555
C53 N9 1_555 1_555
C54 N10 1_555 1_555
C55 C54 1_555 1_555
C56 C55 1_555 1_555
H36 C56 1_555 1_555
C57 C56 1_555 1_555
H37 C57 1_555 1_555
C58 N10 1_555 1_555
H38 C58 1_555 1_555
C59 C52 1_555 1_555
H39 C59 1_555 1_555
C60 C55 1_555 1_555
H40 C60 1_555 1_555
C61 N11 1_555 1_555
H41 C61 1_555 1_555
C62 C61 1_555 1_555
H42 C62 1_555 1_555
C63 C62 1_555 1_555
H43 C63 1_555 1_555
C64 C63 1_555 1_555
C65 N11 1_555 1_555
C66 N12 1_555 1_555
C67 C66 1_555 1_555
C68 C67 1_555 1_555
H44 C68 1_555 1_555
C69 C68 1_555 1_555
H45 C69 1_555 1_555
C70 N12 1_555 1_555
H46 C70 1_555 1_555
C71 C64 1_555 1_555
H47 C71 1_555 1_555
C72 C67 1_555 1_555
H48 C72 1_555 1_555
C73 N13 1_555 1_555
H49 C73 1_555 1_555
C74 C73 1_555 1_555
H50 C74 1_555 1_555
C75 C74 1_555 1_555
H51 C75 1_555 1_555
C76 C75 1_555 1_555
C77 N13 1_555 1_555
C78 N14 1_555 1_555
C79 C78 1_555 1_555
C80 C79 1_555 1_555
H52 C80 1_555 1_555
C81 C80 1_555 1_555
H53 C81 1_555 1_555
C82 N14 1_555 1_555
H54 C82 1_555 1_555
C83 C76 1_555 1_555
H55 C83 1_555 1_555
C84 C79 1_555 1_555
H56 C84 1_555 1_555
C85 N15 1_555 1_555
H57 C85 1_555 1_555
C86 C85 1_555 1_555
H58 C86 1_555 1_555
C87 C86 1_555 1_555
H59 C87 1_555 1_555
C88 C87 1_555 1_555
C89 N15 1_555 1_555
C90 N16 1_555 1_555
C91 C90 1_555 1_555
C92 C91 1_555 1_555
H60 C92 1_555 1_555
C93 C92 1_555 1_555
H61 C93 1_555 1_555
C94 N16 1_555 1_555
H62 C94 1_555 1_555
C95 C88 1_555 1_555
H63 C95 1_555 1_555
C96 C91 1_555 1_555
H64 C96 1_555 1_555
O5A Mn3 1_555 1_555
O6A Mn3 1_555 1_555
O7A Mn3 1_555 1_555
O37A Mo8 1_555 1_555
O39A Mo12 1_555 1_555
O41A Mn6 1_555 1_555
Mo1A O7A 1_555 1_555
Mo2A O6A 1_555 1_555
Mo3A O6A 1_555 1_555
Mo4A O7A 1_555 1_555
Mo5A O5A 1_555 1_555
Mo6A O5A 1_555 1_555
O2A Mo1A 1_555 1_555
O4A Mo1A 1_555 1_555
P6A O1A 1_555 1_555
O1A Mo4A 1_555 1_555
O15A Mo1A 1_555 1_555
O23A Mo3A 1_555 1_555
O31A P6A 1_555 1_555
Mn2A O21A 1_555 1_555
Mn5A O16A 1_555 1_555
P2A O49A 1_555 1_555
P5A O14A 1_555 1_555
O14A Mo2A 1_555 1_555
O16A P5A 1_555 1_555
O17A Mo1A 1_555 1_555
O21A P5A 1_555 1_555
O49A Mo8A_2 1_555 1_555
O56A Mn5A 1_555 1_555
O60A P2A 1_555 1_555
O61A P2A 1_555 1_555
O63A Mn2A 1_555 1_555
N1A Mn2A 1_555 1_555
N2A Mn2A 1_555 1_555
N3A Mn2A 1_555 1_555
N4A Mn2A 1_555 1_555
N9A Mn5A 1_555 1_555
N10A Mn5A 1_555 1_555
N11A Mn5A 1_555 1_555
N12A Mn5A 1_555 1_555
C1A N1A 1_555 1_555
H1A C1A 1_555 1_555
C2A C1A 1_555 1_555
H2A C2A 1_555 1_555
C3A C2A 1_555 1_555
H3A C3A 1_555 1_555
C4A C3A 1_555 1_555
C5A N1A 1_555 1_555
C6A N2A 1_555 1_555
C7A C6A 1_555 1_555
C8A C7A 1_555 1_555
H4A C8A 1_555 1_555
C9A C8A 1_555 1_555
H5A C9A 1_555 1_555
C10A N2A 1_555 1_555
H6A C10A 1_555 1_555
C11A C4A 1_555 1_555
H7A C11A 1_555 1_555
C12A C7A 1_555 1_555
H8A C12A 1_555 1_555
C13A N3A 1_555 1_555
H9A C13A 1_555 1_555
C14A C13A 1_555 1_555
H10A C14A 1_555 1_555
C15A C14A 1_555 1_555
H11A C15A 1_555 1_555
C16A C15A 1_555 1_555
C17A N3A 1_555 1_555
C18A N4A 1_555 1_555
C19A C18A 1_555 1_555
C20A C19A 1_555 1_555
H12A C20A 1_555 1_555
C21A C20A 1_555 1_555
H13A C21A 1_555 1_555
C22A N4A 1_555 1_555
H14A C22A 1_555 1_555
C23A C16A 1_555 1_555
H15A C23A 1_555 1_555
C24A C19A 1_555 1_555
H16A C24A 1_555 1_555
C49A N9A 1_555 1_555
H33A C49A 1_555 1_555
C50A C49A 1_555 1_555
H34A C50A 1_555 1_555
C51A C50A 1_555 1_555
H35A C51A 1_555 1_555
C52A C51A 1_555 1_555
C53A N9A 1_555 1_555
C54A N10A 1_555 1_555
C55A C54A 1_555 1_555
C56A C55A 1_555 1_555
H36A C56A 1_555 1_555
C57A C56A 1_555 1_555
H37A C57A 1_555 1_555
C58A N10A 1_555 1_555
H38A C58A 1_555 1_555
C59A C52A 1_555 1_555
H39A C59A 1_555 1_555
C60A C55A 1_555 1_555
H40A C60A 1_555 1_555
C61A N11A 1_555 1_555
H41A C61A 1_555 1_555
C62A C61A 1_555 1_555
H42A C62A 1_555 1_555
C63A C62A 1_555 1_555
H43A C63A 1_555 1_555
C64A C63A 1_555 1_555
C65A N11A 1_555 1_555
C66A N12A 1_555 1_555
C67A C66A 1_555 1_555
C68A C67A 1_555 1_555
H44A C68A 1_555 1_555
C69A C68A 1_555 1_555
H45A C69A 1_555 1_555
C70A N12A 1_555 1_555
H46A C70A 1_555 1_555
C71A C64A 1_555 1_555
H47A C71A 1_555 1_555
C72A C67A 1_555 1_555
H48A C72A 1_555 1_555
O30A Mo1A 1_555 1_555
O11A Mo2A 1_555 1_555
O19A Mo2A 1_555 1_555
O8A Mo3A 1_555 1_555
O20A Mo3A 1_555 1_555
Mn1A O26A 1_555 1_555
P3A O32A 1_555 1_555
P7A O13A 1_555 1_555
O13A Mo5A 1_555 1_555
O24A Mo3A 1_555 1_555
O25A P7A 1_555 1_555
O26A P7A 1_555 1_555
O32A Mo9A 1_555 1_555
O57A Mn1A 1_555 1_555
O58A P3A 1_555 1_555
O62A P3A 1_555 1_555
N13A Mn1A 1_555 1_555
N14A Mn1A 1_555 1_555
N15A Mn1A 1_555 1_555
N16A Mn1A 1_555 1_555
C73A N13A 1_555 1_555
H49A C73A 1_555 1_555
C74A C73A 1_555 1_555
H50A C74A 1_555 1_555
C75A C74A 1_555 1_555
H51A C75A 1_555 1_555
C76A C75A 1_555 1_555
C77A N13A 1_555 1_555
C78A N14A 1_555 1_555
C79A C78A 1_555 1_555
C80A C79A 1_555 1_555
H52A C80A 1_555 1_555
C81A C80A 1_555 1_555
H53A C81A 1_555 1_555
C82A N14A 1_555 1_555
H54A C82A 1_555 1_555
C83A C76A 1_555 1_555
H55A C83A 1_555 1_555
C84A C79A 1_555 1_555
H56A C84A 1_555 1_555
C85A N15A 1_555 1_555
H57A C85A 1_555 1_555
C86A C85A 1_555 1_555
H58A C86A 1_555 1_555
C87A C86A 1_555 1_555
H59A C87A 1_555 1_555
C88A C87A 1_555 1_555
C89A N15A 1_555 1_555
C90A N16A 1_555 1_555
C91A C90A 1_555 1_555
C92A C91A 1_555 1_555
H60A C92A 1_555 1_555
C93A C92A 1_555 1_555
H61A C93A 1_555 1_555
C94A N16A 1_555 1_555
H62A C94A 1_555 1_555
C95A C88A 1_555 1_555
H63A C95A 1_555 1_555
C96A C91A 1_555 1_555
H64A C96A 1_555 1_555
Mn4A O18A 1_555 1_555
P1A O42A 1_555 1_555
P8A O9A 1_555 1_555
O9A Mo6A 1_555 1_555
O10A Mo4A 1_555 1_555
O18A P8A 1_555 1_555
O29A P8A 1_555 1_555
O42A Mo12A_2 1_555 1_555
O51A P1A 1_555 1_555
O52A Mn4A 1_555 1_555
O54A P1A 1_555 1_555
N5A Mn4A 1_555 1_555
N6A Mn4A 1_555 1_555
N7A Mn4A 1_555 1_555
N8A Mn4A 1_555 1_555
C25A N5A 1_555 1_555
H17A C25A 1_555 1_555
C26A C25A 1_555 1_555
H18A C26A 1_555 1_555
C27A C26A 1_555 1_555
H19A C27A 1_555 1_555
C28A C27A 1_555 1_555
C29A N5A 1_555 1_555
C30A N6A 1_555 1_555
C31A C30A 1_555 1_555
C32A C31A 1_555 1_555
H20A C32A 1_555 1_555
C33A C32A 1_555 1_555
H21A C33A 1_555 1_555
C34A N6A 1_555 1_555
H22A C34A 1_555 1_555
C35A C28A 1_555 1_555
H23A C35A 1_555 1_555
C36A C31A 1_555 1_555
H24A C36A 1_555 1_555
C37A N7A 1_555 1_555
H25A C37A 1_555 1_555
C38A C37A 1_555 1_555
H26A C38A 1_555 1_555
C39A C38A 1_555 1_555
H27A C39A 1_555 1_555
C40A C39A 1_555 1_555
C41A N7A 1_555 1_555
C42A N8A 1_555 1_555
C43A C42A 1_555 1_555
C44A C43A 1_555 1_555
H28A C44A 1_555 1_555
C45A C44A 1_555 1_555
H29A C45A 1_555 1_555
C46A N8A 1_555 1_555
H30A C46A 1_555 1_555
C47A C40A 1_555 1_555
H31A C47A 1_555 1_555
C48A C43A 1_555 1_555
H32A C48A 1_555 1_555
O12A Mo4A 1_555 1_555
O22A Mo4A 1_555 1_555
O3A Mo5A 1_555 1_555
O27A Mo5A 1_555 1_555
O28A Mo6A 1_555 1_555
Mo7A O41A 1_555 1_555
Mo8A Mo10A 1_555 1_555
Mo9A O44A 1_555 1_555
Mo10A O37 1_555 1_555
Mo11A O41A 1_555 1_555
Mo12A O39 1_555 1_555
P4_2 O35_2 1_555 1_555
O35_2 Mo12_2 1_555 1_555
O38_2 Mo9 1_555 1_555
O43_2 P4_2 1_555 1_555
O48_2 P4_2 1_555 1_555
O36_2 Mo11 1_555 1_555
O40_2 Mo12 1_555 1_555
O33A Mo7A 1_555 1_555
O55A Mo7A 1_555 1_555
O59A Mo7A 1_555 1_555
O47A Mo8A 1_555 1_555
O50A Mo8A 1_555 1_555
O34A Mo10A 1_555 1_555
O53A Mo10A 1_555 1_555
O45A Mo11A 1_555 1_555
O46A Mo12A 1_555 1_555
Mo12_2 Mo9 1_555 1_555
O39A_2 Mo9 1_555 1_555
O54_2 Mo10 1_555 1_555
O58_2 Mo11 1_555 1_555
Mo9_2 Mo12 1_555 1_555
O42_2 Mo12 1_555 1_555
Mo11_2 O36 1_555 1_555
Mo9A_2 O39 1_555 1_555
Mo10_2 O54 1_555 1_555
Mo7A_2 O60A 1_555 1_555
Mo11A_2 O58A 1_555 1_555
Mo12A_2 Mo9A 1_555 1_555
Mo10A_2 O54A 1_555 1_555
O48A Mo7A 1_555 1_555
O60A_2 Mo7A 1_555 1_555
O49A_2 Mo8A 1_555 1_555
O36A Mo9A 1_555 1_555
O38A Mo9A 1_555 1_555
O39_2 Mo9A 1_555 1_555
O40A Mo9A 1_555 1_555
O35A Mo10A 1_555 1_555
O54A_2 Mo10A 1_555 1_555
O36A_2 Mo11A 1_555 1_555
O38A_2 Mo11A 1_555 1_555
O58A_2 Mo11A 1_555 1_555
O40A_2 Mo12A 1_555 1_555
O42A_2 Mo12A 1_555 1_555
Mo7_2 O48_2 1_555 1_555
Mo8_2 O48_2 1_555 1_555
Mo2 O2 1_555 1_555
Mo2 O15 1_555 1_555
Mo3 O19 1_555 1_555
Mo4 O4 1_555 1_555
Mo4 O7 1_555 1_555
Mo5 O23 1_555 1_555
Mo5 O8 1_555 1_555
Mo6 O5 1_555 1_555
Mo6 O3 1_555 1_555
Mo6 O22 1_555 1_555
Mo8 O48 1_555 1_555
Mo8 O59 1_555 1_555
Mo10 O37A 1_555 1_555
Mo10 O47 1_555 1_555
Mo11 O41 1_555 1_555
Mo12 O35 1_555 1_555
Mn3 O6 1_555 1_555
Mn3 O7 1_555 1_555
Mn6 O41 1_555 1_555
Mn6 O37A 1_555 1_555
Mn6 O39A 1_555 1_555
P1 O52 1_555 1_555
P2 O56 1_555 1_555
P2 O60 1_555 1_555
P3 O57 1_555 1_555
P4 O38 1_555 1_555
P4 O48 1_555 1_555
P5 O17 1_555 1_555
P6 O15 1_555 1_555
P6 O23 1_555 1_555
P7 O24 1_555 1_555
P8 O10 1_555 1_555
O38 Mo9_2 1_555 1_555
O40 Mo12_2 1_555 1_555
O58 Mo11_2 1_555 1_555
C4 C5 1_555 1_555
C5 C6 1_555 1_555
C9 C10 1_555 1_555
C11 C12 1_555 1_555
C16 C17 1_555 1_555
C17 C18 1_555 1_555
C21 C22 1_555 1_555
C23 C24 1_555 1_555
C28 C29 1_555 1_555
C29 C30 1_555 1_555
C33 C34 1_555 1_555
C35 C36 1_555 1_555
C40 C41 1_555 1_555
C41 C42 1_555 1_555
C45 C46 1_555 1_555
C47 C48 1_555 1_555
C52 C53 1_555 1_555
C53 C54 1_555 1_555
C57 C58 1_555 1_555
C59 C60 1_555 1_555
C64 C65 1_555 1_555
C65 C66 1_555 1_555
C69 C70 1_555 1_555
C71 C72 1_555 1_555
C76 C77 1_555 1_555
C77 C78 1_555 1_555
C81 C82 1_555 1_555
C83 C84 1_555 1_555
C88 C89 1_555 1_555
C89 C90 1_555 1_555
C93 C94 1_555 1_555
C95 C96 1_555 1_555
O39A Mo9_2 1_555 1_555
Mo1A Mo4A 1_555 1_555
Mo2A O2A 1_555 1_555
Mo2A O15A 1_555 1_555
Mo2A Mo3A 1_555 1_555
Mo3A O19A 1_555 1_555
Mo4A O4A 1_555 1_555
Mo5A O8A 1_555 1_555
Mo5A O23A 1_555 1_555
Mo5A Mo6A 1_555 1_555
Mo6A O1A 1_555 1_555
Mo6A O3A 1_555 1_555
Mo6A O22A 1_555 1_555
P6A O15A 1_555 1_555
P6A O23A 1_555 1_555
P2A O56A 1_555 1_555
P5A O17A 1_555 1_555
C4A C5A 1_555 1_555
C5A C6A 1_555 1_555
C9A C10A 1_555 1_555
C11A C12A 1_555 1_555
C16A C17A 1_555 1_555
C17A C18A 1_555 1_555
C21A C22A 1_555 1_555
C23A C24A 1_555 1_555
C52A C53A 1_555 1_555
C53A C54A 1_555 1_555
C57A C58A 1_555 1_555
C59A C60A 1_555 1_555
C64A C65A 1_555 1_555
C65A C66A 1_555 1_555
C69A C70A 1_555 1_555
C71A C72A 1_555 1_555
P3A O57A 1_555 1_555
P7A O24A 1_555 1_555
C76A C77A 1_555 1_555
C77A C78A 1_555 1_555
C81A C82A 1_555 1_555
C83A C84A 1_555 1_555
C88A C89A 1_555 1_555
C89A C90A 1_555 1_555
C93A C94A 1_555 1_555
C95A C96A 1_555 1_555
P1A O52A 1_555 1_555
P8A O10A 1_555 1_555
C28A C29A 1_555 1_555
C29A C30A 1_555 1_555
C33A C34A 1_555 1_555
C35A C36A 1_555 1_555
C40A C41A 1_555 1_555
C41A C42A 1_555 1_555
C45A C46A 1_555 1_555
C47A C48A 1_555 1_555
Mo7A Mo11A 1_555 1_555
Mo8A O59A 1_555 1_555
Mo8A O48A 1_555 1_555
Mo10A O47A 1_555 1_555
Mo11A O33A 1_555 1_555
Mo12A O34A 1_555 1_555
Mo12A Mo9A_2 1_555 1_555
Mo12A O35A 1_555 1_555
P4_2 O38_2 1_555 1_555
O35_2 Mo10_2 1_555 1_555
O38_2 Mo11_2 1_555 1_555
O36_2 Mo9_2 1_555 1_555
O40_2 Mo9_2 1_555 1_555
Mo12_2 O39A_2 1_555 1_555
Mo11_2 Mo7_2 1_555 1_555
Mo9A_2 O36A_2 1_555 1_555
Mo9A_2 O38A_2 1_555 1_555
Mo9A_2 O40A_2 1_555 1_555
Mo10_2 Mo8_2 1_555 1_555
Mo11A_2 O36A 1_555 1_555
Mo11A_2 O38A 1_555 1_555
Mo12A_2 O39_2 1_555 1_555
Mo12A_2 O40A 1_555 1_555

#END
