
#######################################################################
#
#                 Cambridge Crystallographic Data Centre
#                                CCDC 
#
#######################################################################
#
# If this CIF has been generated from an entry in the Cambridge 
# Structural Database, then it will include bibliographic, chemical, 
# crystal, experimental, refinement or atomic coordinate data resulting 
# from the CCDC's data processing and validation procedures.
#
#######################################################################

data_OKEWUX
_symmetry_cell_setting           triclinic
_symmetry_space_group_name_H-M   'P -1'
_symmetry_Int_Tables_number      2
_space_group_name_Hall           '-P 1'
loop_
_symmetry_equiv_pos_site_id
_symmetry_equiv_pos_as_xyz
1 x,y,z
2 -x,-y,-z
_cell_length_a                   6.9721(3)
_cell_length_b                   8.3039(4)
_cell_length_c                   10.0576(5)
_cell_angle_alpha                102.586(2)
_cell_angle_beta                 93.856(2)
_cell_angle_gamma                107.143(2)
_cell_volume                     537.627
loop_
_atom_site_label
_atom_site_type_symbol
_atom_site_fract_x
_atom_site_fract_y
_atom_site_fract_z
Ni1 Ni 0.88880(4) 0.82767(3) 1.12950(3)
N1 N 0.5890(3) 0.8305(2) 1.12870(19)
N2 N 0.1893(3) 0.8304(2) 1.13031(19)
C1 C 0.8324(3) 0.6502(3) 0.6873(2)
C2 C 0.8759(3) 0.7177(3) 0.5736(2)
H1 H 0.9486 0.8376 0.5865
C3 C 0.8134(3) 0.6102(3) 0.4413(2)
C4 C 0.7116(4) 0.4335(3) 0.4215(2)
H2 H 0.6721 0.3596 0.3311
C5 C 0.6680(4) 0.3659(3) 0.5350(3)
C6 C 0.7246(4) 0.4737(3) 0.6668(2)
C7 C 0.8999(3) 0.7676(3) 0.8299(2)
C8 C 0.8489(3) 0.6885(3) 0.3210(2)
C9 C 0.4391(4) 0.7184(3) 1.0332(2)
C10 C 0.2409(4) 0.7179(3) 1.0341(2)
C11 C 0.3401(4) 0.9430(3) 1.2269(3)
C12 C 0.5378(4) 0.9426(3) 1.2258(3)
O1 O 0.8184(2) 0.7107(2) 0.92680(15)
O2 O 1.0347(2) 0.91059(19) 0.84520(15)
O3 O 0.8070(2) 0.5933(2) 0.19960(16)
O4 O 0.9176(3) 0.8523(2) 0.34189(16)
H3 H 0.599(4) 0.250(4) 0.521(3)
H4 H 0.689(4) 0.428(4) 0.752(3)
H5 H 0.472(4) 0.647(4) 0.972(3)
H6 H 0.141(4) 0.638(3) 0.969(3)
H7 H 0.317(4) 1.023(4) 1.290(3)
H8 H 0.644(4) 1.020(3) 1.292(3)
Ni1_2 Ni -0.11120(4) 0.82767(3) 1.12950(3)
Ni1A Ni 1.11120(4) 1.17233(3) 0.87050(3)
Ni1_3 Ni 0.88880(4) 0.82767(3) 0.12950(3)
N2_2 N 1.1893(3) 0.8304(2) 1.13031(19)
O2A O 0.9653(2) 1.08941(19) 1.15480(15)
O3_2 O 0.8070(2) 0.5933(2) 1.19960(16)
O4_2 O 0.9176(3) 0.8523(2) 1.34189(16)
loop_
_geom_bond_atom_site_label_1
_geom_bond_atom_site_label_2
_geom_bond_site_symmetry_1
_geom_bond_site_symmetry_2
Ni1 N1 1_555 1_555
N1 C9 1_555 1_555
N2 C10 1_555 1_555
C1 C2 1_555 1_555
C2 H1 1_555 1_555
C3 C2 1_555 1_555
C4 C3 1_555 1_555
H2 C4 1_555 1_555
C5 C4 1_555 1_555
C6 C1 1_555 1_555
C7 C1 1_555 1_555
C8 C3 1_555 1_555
C9 C10 1_555 1_555
C10 H6 1_555 1_555
C11 N2 1_555 1_555
C12 N1 1_555 1_555
O1 Ni1 1_555 1_555
O2 C7 1_555 1_555
O3 C8 1_555 1_555
O4 C8 1_555 1_555
H3 C5 1_555 1_555
H4 C6 1_555 1_555
H5 C9 1_555 1_555
H7 C11 1_555 1_555
H8 C12 1_555 1_555
Ni1_2 N2 1_555 1_555
Ni1A O2 1_555 1_555
Ni1_3 O3 1_555 1_555
N2_2 Ni1 1_555 1_555
O2A Ni1 1_555 1_555
O3_2 Ni1 1_555 1_555
O4_2 Ni1 1_555 1_555
C5 C6 1_555 1_555
C7 O1 1_555 1_555
C11 C12 1_555 1_555
O4 Ni1_3 1_555 1_555

#END
