
#######################################################################
#
#                 Cambridge Crystallographic Data Centre
#                                CCDC 
#
#######################################################################
#
# If this CIF has been generated from an entry in the Cambridge 
# Structural Database, then it will include bibliographic, chemical, 
# crystal, experimental, refinement or atomic coordinate data resulting 
# from the CCDC's data processing and validation procedures.
#
#######################################################################

data_OKEWOR
_symmetry_cell_setting           triclinic
_symmetry_space_group_name_H-M   'P -1'
_symmetry_Int_Tables_number      2
_space_group_name_Hall           '-P 1'
loop_
_symmetry_equiv_pos_site_id
_symmetry_equiv_pos_as_xyz
1 x,y,z
2 -x,-y,-z
_cell_length_a                   7.0878(5)
_cell_length_b                   8.2937(7)
_cell_length_c                   10.0615(8)
_cell_angle_alpha                101.988(3)
_cell_angle_beta                 93.525(4)
_cell_angle_gamma                107.925(3)
_cell_volume                     545.454
loop_
_atom_site_label
_atom_site_type_symbol
_atom_site_fract_x
_atom_site_fract_y
_atom_site_fract_z
Co1 Co 0.60359(5) 0.66785(4) 0.87416(3)
O1 O 0.6781(3) 0.8015(2) 1.07418(18)
O2 O 0.4788(3) 0.5925(2) 1.15705(19)
O3 O 0.5746(3) 0.6499(2) 1.65989(19)
O4 O 0.6973(3) 0.9075(2) 1.79953(19)
N1 N 0.9070(3) 0.6651(3) 0.8760(2)
N2 N 1.2996(3) 0.6654(3) 0.8738(2)
C1 C 0.6707(4) 0.8558(3) 1.3139(3)
C2 C 0.6265(4) 0.7863(4) 1.4274(3)
C3 C 0.6886(4) 0.8931(4) 1.5588(3)
C4 C 0.7911(4) 1.0696(4) 1.5773(3)
C5 C 0.8358(5) 1.1392(4) 1.4648(3)
C6 C 0.7787(4) 1.0329(4) 1.3340(3)
C7 C 0.6057(4) 0.7406(3) 1.1719(3)
C8 C 0.6501(4) 0.8131(4) 1.6795(3)
C9 C 0.9569(4) 0.5531(4) 0.7801(3)
C10 C 1.1519(4) 0.5542(4) 0.7787(3)
C11 C 1.0549(4) 0.7773(4) 0.9697(3)
C12 C 1.2503(4) 0.7784(4) 0.9692(3)
H1 H 1.023(5) 0.862(4) 1.036(4)
H2 H 1.342(5) 0.849(4) 1.035(4)
H3 H 0.859(5) 0.479(4) 0.716(3)
H4 H 1.179(5) 0.479(4) 0.715(3)
H5 H 0.813(4) 1.081(4) 1.251(3)
H6 H 0.829(5) 1.133(4) 1.665(4)
H7 H 0.903(4) 1.258(4) 1.480(3)
H8 H 0.553(5) 0.668(4) 1.419(3)
Co1A Co 0.39641(5) 0.33215(4) 1.12584(3)
Co1_2 Co 0.60359(5) 0.66785(4) 1.87416(3)
Co1_3 Co 1.60359(5) 0.66785(4) 0.87416(3)
O2A O 0.5212(3) 0.4075(2) 0.84295(19)
O3_2 O 0.5746(3) 0.6499(2) 0.65989(19)
O4_2 O 0.6973(3) 0.9075(2) 0.79953(19)
N2_2 N 0.2996(3) 0.6654(3) 0.8738(2)
loop_
_geom_bond_atom_site_label_1
_geom_bond_atom_site_label_2
_geom_bond_site_symmetry_1
_geom_bond_site_symmetry_2
Co1 O1 1_555 1_555
O1 C7 1_555 1_555
O2 C7 1_555 1_555
O3 C8 1_555 1_555
O4 C8 1_555 1_555
N1 Co1 1_555 1_555
N2 C10 1_555 1_555
C1 C2 1_555 1_555
C2 C3 1_555 1_555
C3 C4 1_555 1_555
C4 C5 1_555 1_555
C5 C6 1_555 1_555
C6 C1 1_555 1_555
C7 C1 1_555 1_555
C8 C3 1_555 1_555
C9 N1 1_555 1_555
C10 C9 1_555 1_555
C11 N1 1_555 1_555
C12 N2 1_555 1_555
H1 C11 1_555 1_555
H2 C12 1_555 1_555
H3 C9 1_555 1_555
H4 C10 1_555 1_555
H5 C6 1_555 1_555
H6 C4 1_555 1_555
H7 C5 1_555 1_555
H8 C2 1_555 1_555
Co1A O2 1_555 1_555
Co1_2 O3 1_555 1_555
Co1_3 N2 1_555 1_555
O2A Co1 1_555 1_555
O3_2 Co1 1_555 1_555
O4_2 Co1 1_555 1_555
N2_2 Co1 1_555 1_555
O4 Co1_2 1_555 1_555
C11 C12 1_555 1_555

#END
