
#######################################################################
#
#                 Cambridge Crystallographic Data Centre
#                                CCDC 
#
#######################################################################
#
# If this CIF has been generated from an entry in the Cambridge 
# Structural Database, then it will include bibliographic, chemical, 
# crystal, experimental, refinement or atomic coordinate data resulting 
# from the CCDC's data processing and validation procedures.
#
#######################################################################

data_OKIGOE
_symmetry_cell_setting           triclinic
_symmetry_space_group_name_H-M   'P -1'
_symmetry_Int_Tables_number      2
_space_group_name_Hall           '-P 1'
loop_
_symmetry_equiv_pos_site_id
_symmetry_equiv_pos_as_xyz
1 x,y,z
2 -x,-y,-z
_cell_length_a                   7.9891(3)
_cell_length_b                   9.5539(4)
_cell_length_c                   12.4286(6)
_cell_angle_alpha                75.9870(15)
_cell_angle_beta                 74.8250(15)
_cell_angle_gamma                75.889(3)
_cell_volume                     871.67
loop_
_atom_site_label
_atom_site_type_symbol
_atom_site_fract_x
_atom_site_fract_y
_atom_site_fract_z
Er1 Er 0.73447(2) 0.705579(19) 0.997814(14)
O1 O 0.7073(4) 0.4560(4) 1.0517(3)
O2 O 0.6589(4) 0.9217(4) 1.0771(3)
O3 O 0.9832(4) 0.8357(4) 0.9413(3)
O4 O 0.8978(4) 0.6163(4) 1.1295(3)
O5 O 1.0684(4) 0.3957(4) 1.1437(3)
O6 O 0.5409(4) 0.2872(4) 1.8922(3)
O7 O 0.7936(4) 0.1446(4) 1.9251(3)
C1 C 0.9251(5) 0.3294(5) 1.5017(4)
C2 C 0.7756(5) 0.4247(5) 1.5502(4)
C3 C 0.6984(8) 0.5458(7) 1.4787(5)
H1 H 0.6021 0.6113 1.5104
C4 C 0.7595(7) 0.5709(6) 1.3641(4)
H2 H 0.7060 0.6534 1.3190
C5 C 0.9024(5) 0.4731(5) 1.3141(4)
C6 C 0.9847(5) 0.3570(5) 1.3821(4)
H3 H 1.0829 0.2942 1.3491
C7 C 1.0051(7) 0.2097(7) 1.5738(5)
H4 H 1.1072 0.1486 1.5431
C8 C 0.9370(6) 0.1807(7) 1.6876(4)
H5 H 0.9925 0.1002 1.7333
C9 C 0.7829(5) 0.2720(5) 1.7366(4)
C10 C 0.7067(6) 0.3897(5) 1.6690(4)
H6 H 0.6054 0.4503 1.7013
C11 C 0.9605(5) 0.4959(5) 1.1879(4)
C12 C 0.7012(5) 0.2322(5) 1.8608(4)
O8 O 0.6657(4) 0.8925(3) 0.8424(3)
O9 O 0.5618(4) 0.6927(4) 0.8654(3)
C13 C 0.4387(5) 0.9683(5) 0.4865(4)
C14 C 0.3604(6) 0.8590(5) 0.5690(4)
H7 H 0.2767 0.8191 0.5528
C15 C 0.4063(6) 0.8108(5) 0.6727(4)
H8 H 0.3563 0.7369 0.7255
C16 C 0.5295(5) 0.8737(5) 0.6989(4)
C17 C 0.6024(6) 0.9834(5) 0.6217(4)
H9 H 0.6801 1.0266 0.6410
C18 C 0.5872(5) 0.8167(5) 0.8081(4)
C13A C 0.5613(5) 1.0317(5) 0.5135(4)
C14A C 0.6396(6) 1.1410(5) 0.4310(4)
H7A H 0.7233 1.1809 0.4472
C15A C 0.5937(6) 1.1892(5) 0.3273(4)
H8A H 0.6437 1.2631 0.2745
C16A C 0.4705(5) 1.1263(5) 0.3011(4)
C17A C 0.3976(6) 1.0166(5) 0.3783(4)
H9A H 0.3199 0.9734 0.3590
C18A C 0.4128(5) 1.1833(5) 0.1919(4)
O8A O 0.3343(4) 1.1075(3) 0.1576(3)
O9A O 0.4382(4) 1.3073(4) 0.1346(3)
O4A O 1.1022(4) 0.3837(4) 0.8705(3)
O5A O 0.9316(4) 0.6043(4) 0.8563(3)
O6A O 1.4591(4) 0.7128(4) 0.1078(3)
O7A O 1.2064(4) 0.8554(4) 0.0749(3)
C1A C 1.0749(5) 0.6706(5) 0.4983(4)
C2A C 1.2244(5) 0.5753(5) 0.4498(4)
C3A C 1.3016(8) 0.4542(7) 0.5213(5)
H1A H 1.3979 0.3887 0.4896
C4A C 1.2405(7) 0.4291(6) 0.6359(4)
H2A H 1.2940 0.3466 0.6810
C5A C 1.0976(5) 0.5269(5) 0.6859(4)
C6A C 1.0153(5) 0.6430(5) 0.6179(4)
H3A H 0.9171 0.7058 0.6509
C7A C 0.9949(7) 0.7903(7) 0.4262(5)
H4A H 0.8928 0.8514 0.4569
C8A C 1.0630(6) 0.8193(7) 0.3124(4)
H5A H 1.0075 0.8998 0.2667
C9A C 1.2171(5) 0.7280(5) 0.2634(4)
C10A C 1.2933(6) 0.6103(5) 0.3310(4)
H6A H 1.3946 0.5497 0.2987
C11A C 1.0395(5) 0.5041(5) 0.8121(4)
C12A C 1.2988(5) 0.7678(5) 0.1392(4)
Er1A Er 1.26553(2) 0.294421(19) 1.002186(14)
O1A O 1.2927(4) 0.5440(4) 0.9483(3)
O2A O 1.3411(4) 0.0783(4) 0.9229(3)
O3A O 1.0168(4) 0.1643(4) 1.0587(3)
O6A_2 O 0.4591(4) 0.7128(4) 1.1078(3)
Er1A_2 Er 0.26553(2) 0.294421(19) 2.002186(14)
Er1A_3 Er 0.26553(2) 1.294421(19) 0.002186(14)
Er1_2 Er 1.73447(2) 0.705579(19) -0.002186(14)
O6_2 O 1.5409(4) 0.2872(4) 0.8922(3)
O8A_2 O 1.3343(4) 0.1075(3) 1.1576(3)
O9A_2 O 1.4382(4) 0.3073(4) 1.1346(3)
loop_
_geom_bond_atom_site_label_1
_geom_bond_atom_site_label_2
_geom_bond_site_symmetry_1
_geom_bond_site_symmetry_2
Er1 O1 1_555 1_555
O2 Er1 1_555 1_555
O3 Er1 1_555 1_555
O4 Er1 1_555 1_555
O5 C11 1_555 1_555
O6 C12 1_555 1_555
O7 C12 1_555 1_555
C1 C2 1_555 1_555
C2 C3 1_555 1_555
C3 H1 1_555 1_555
C4 C3 1_555 1_555
H2 C4 1_555 1_555
C5 C4 1_555 1_555
C6 C1 1_555 1_555
H3 C6 1_555 1_555
C7 C1 1_555 1_555
H4 C7 1_555 1_555
C8 C7 1_555 1_555
H5 C8 1_555 1_555
C9 C8 1_555 1_555
C10 C2 1_555 1_555
H6 C10 1_555 1_555
C11 O4 1_555 1_555
C12 C9 1_555 1_555
O8 Er1 1_555 1_555
O9 Er1 1_555 1_555
C13 C14 1_555 1_555
C14 H7 1_555 1_555
C15 C14 1_555 1_555
H8 C15 1_555 1_555
C16 C15 1_555 1_555
C17 C16 1_555 1_555
H9 C17 1_555 1_555
C18 O8 1_555 1_555
C13A C13 1_555 1_555
C14A C13A 1_555 1_555
H7A C14A 1_555 1_555
C15A C14A 1_555 1_555
H8A C15A 1_555 1_555
C16A C15A 1_555 1_555
C17A C13 1_555 1_555
H9A C17A 1_555 1_555
C18A C16A 1_555 1_555
O8A C18A 1_555 1_555
O9A C18A 1_555 1_555
O4A C11A 1_555 1_555
O5A Er1 1_555 1_555
O6A C12A 1_555 1_555
O7A C12A 1_555 1_555
C1A C2A 1_555 1_555
C2A C3A 1_555 1_555
C3A H1A 1_555 1_555
C4A C3A 1_555 1_555
H2A C4A 1_555 1_555
C5A C4A 1_555 1_555
C6A C1A 1_555 1_555
H3A C6A 1_555 1_555
C7A C1A 1_555 1_555
H4A C7A 1_555 1_555
C8A C7A 1_555 1_555
H5A C8A 1_555 1_555
C9A C8A 1_555 1_555
C10A C2A 1_555 1_555
H6A C10A 1_555 1_555
C11A O5A 1_555 1_555
C12A C9A 1_555 1_555
Er1A O5 1_555 1_555
O1A Er1A 1_555 1_555
O2A Er1A 1_555 1_555
O3A Er1A 1_555 1_555
O6A_2 Er1 1_555 1_555
Er1A_2 O6 1_555 1_555
Er1A_3 O8A 1_555 1_555
Er1_2 O6A 1_555 1_555
O6_2 Er1A 1_555 1_555
O8A_2 Er1A 1_555 1_555
O9A_2 Er1A 1_555 1_555
C5 C11 1_555 1_555
C5 C6 1_555 1_555
C9 C10 1_555 1_555
O9 C18 1_555 1_555
C16 C18 1_555 1_555
C17 C13A 1_555 1_555
C16A C17A 1_555 1_555
O9A Er1A_3 1_555 1_555
O4A Er1A 1_555 1_555
C5A C11A 1_555 1_555
C5A C6A 1_555 1_555
C9A C10A 1_555 1_555

#END
