
#######################################################################
#
#                 Cambridge Crystallographic Data Centre
#                                CCDC 
#
#######################################################################
#
# If this CIF has been generated from an entry in the Cambridge 
# Structural Database, then it will include bibliographic, chemical, 
# crystal, experimental, refinement or atomic coordinate data resulting 
# from the CCDC's data processing and validation procedures.
#
#######################################################################

data_OKIHAR
_symmetry_cell_setting           orthorhombic
_symmetry_space_group_name_H-M   'P 21 21 21'
_symmetry_Int_Tables_number      19
_space_group_name_Hall           'P 2ac 2ab'
loop_
_symmetry_equiv_pos_site_id
_symmetry_equiv_pos_as_xyz
1 x,y,z
2 1/2-x,-y,1/2+z
3 -x,1/2+y,1/2-z
4 1/2+x,1/2-y,-z
_cell_length_a                   6.873(3)
_cell_length_b                   9.847(4)
_cell_length_c                   16.466(7)
_cell_angle_alpha                90
_cell_angle_beta                 90
_cell_angle_gamma                90
_cell_volume                     1114.39
loop_
_atom_site_label
_atom_site_type_symbol
_atom_site_fract_x
_atom_site_fract_y
_atom_site_fract_z
Zn1 Zn 0.23308(5) 0.65100(3) 0.634577(17)
N1 N 0.3657(3) 0.4899(2) 0.71029(13)
N2 N 0.5874(3) 0.2989(2) 0.79354(14)
N3 N -0.0033(3) 0.6544(3) 0.71101(14)
O1 O 0.4964(3) 0.59813(18) 0.57203(11)
O2 O 0.7285(3) 0.44026(18) 0.56087(11)
O3 O 0.1020(4) 0.5391(3) 0.54279(15)
O4 O 0.1638(4) 0.8260(2) 0.57098(15)
S1 S -0.23112(12) 0.64058(9) 0.85125(4)
C1 C 0.5917(4) 0.4960(3) 0.59661(16)
C2 C 0.5299(4) 0.4405(3) 0.67848(16)
C3 C 0.6394(4) 0.3439(3) 0.71977(16)
C4 C 0.4247(4) 0.3504(4) 0.82461(17)
C5 C 0.3139(4) 0.4455(3) 0.78343(18)
C6 C -0.0975(4) 0.6479(3) 0.76908(17)
H1 H 0.753(4) 0.310(2) 0.6969(14)
H2 H 0.389(4) 0.318(3) 0.8778(9)
H3 H 0.194(2) 0.478(3) 0.8058(15)
H4 H 0.166(4) 0.469(2) 0.5244(19)
H5 H -0.018(2) 0.512(3) 0.552(2)
H6 H 0.146(9) 0.844(4) 0.5197(9)
H7 H 0.156(6) 0.904(2) 0.596(2)
N2B N 0.4126(3) 0.7989(2) 0.70646(14)
Zn1B Zn 0.76692(5) 0.15100(3) 0.865423(17)
O5 O 0.3069(4) 0.3456(3) 0.45960(17)
H8 H 0.422(3) 0.350(4) 0.438(2)
H9 H 0.277(5) 0.2593(15) 0.461(2)
loop_
_geom_bond_atom_site_label_1
_geom_bond_atom_site_label_2
_geom_bond_site_symmetry_1
_geom_bond_site_symmetry_2
Zn1 N1 1_555 1_555
N1 C2 1_555 1_555
N2 C3 1_555 1_555
N3 Zn1 1_555 1_555
O1 Zn1 1_555 1_555
O2 C1 1_555 1_555
O3 Zn1 1_555 1_555
O4 Zn1 1_555 1_555
O5 H8 1_555 1_555
S1 C6 1_555 1_555
C1 O1 1_555 1_555
C2 C1 1_555 1_555
C3 C2 1_555 1_555
C4 N2 1_555 1_555
C5 N1 1_555 1_555
C6 N3 1_555 1_555
H1 C3 1_555 1_555
H2 C4 1_555 1_555
H3 C5 1_555 1_555
H4 O3 1_555 1_555
H5 O3 1_555 1_555
H6 O4 1_555 1_555
H7 O4 1_555 1_555
H9 O5 1_555 1_555
N2B Zn1 1_555 1_555
Zn1B N2 1_555 1_555
C4 C5 1_555 1_555

#END
