
#######################################################################
#
#                 Cambridge Crystallographic Data Centre
#                                CCDC 
#
#######################################################################
#
# If this CIF has been generated from an entry in the Cambridge 
# Structural Database, then it will include bibliographic, chemical, 
# crystal, experimental, refinement or atomic coordinate data resulting 
# from the CCDC's data processing and validation procedures.
#
#######################################################################

data_OKIHOG
_symmetry_cell_setting           orthorhombic
_symmetry_space_group_name_H-M   'P b c n'
_symmetry_Int_Tables_number      60
_space_group_name_Hall           '-P 2n 2ab'
loop_
_symmetry_equiv_pos_site_id
_symmetry_equiv_pos_as_xyz
1 x,y,z
2 1/2+x,1/2-y,-z
3 -x,y,1/2-z
4 1/2-x,1/2-y,1/2+z
5 -x,-y,-z
6 1/2-x,1/2+y,z
7 x,-y,1/2+z
8 1/2+x,1/2+y,1/2-z
_cell_length_a                   14.3447(7)
_cell_length_b                   14.5900(6)
_cell_length_c                   25.5191(11)
_cell_angle_alpha                90
_cell_angle_beta                 90
_cell_angle_gamma                90
_cell_volume                     5340.87
loop_
_atom_site_label
_atom_site_type_symbol
_atom_site_fract_x
_atom_site_fract_y
_atom_site_fract_z
Hg1 Hg 0.668298(8) 0.627264(7) 0.327411(4)
S1 S 0.84598(5) 0.63585(5) 0.36251(3)
S2 S 1.11942(4) 0.81176(4) 0.58191(2)
O1 O 1.12031(16) 0.88933(14) 0.45970(8)
O2 O 1.03249(15) 0.71640(15) 0.31163(8)
C1 C 1.1347(2) 0.8871(2) 0.40428(12)
H1 H 1.2021 0.8872 0.3960
H2 H 1.1054 0.9409 0.3874
C2 C 1.0903(2) 0.8006(2) 0.38575(12)
H3 H 1.0264 0.7967 0.4001
H4 H 1.1262 0.7477 0.3993
C3 C 1.0858(3) 0.7948(2) 0.32633(12)
H5 H 1.0565 0.8509 0.3121
H6 H 1.1495 0.7899 0.3118
C4 C 1.0695(2) 0.6316(2) 0.31889(10)
C5 C 1.1638(2) 0.6131(2) 0.32519(11)
H7 H 1.2072 0.6620 0.3281
C6 C 1.1944(2) 0.5233(2) 0.32715(11)
H8 H 1.2591 0.5108 0.3308
C7 C 1.1321(3) 0.4519(2) 0.32395(12)
H9 H 1.1536 0.3904 0.3255
C8 C 1.0377(2) 0.4701(2) 0.31851(11)
H10 H 0.9948 0.4207 0.3164
C9 C 1.0052(2) 0.5594(2) 0.31617(11)
C10 C 0.9037(2) 0.5788(2) 0.30765(11)
H11 H 0.8713 0.5201 0.3006
H12 H 0.8971 0.6176 0.2760
C11 C 0.8590(2) 0.55350(19) 0.41645(11)
H13 H 0.7968 0.5307 0.4271
H14 H 0.8964 0.5005 0.4045
C12 C 0.90624(19) 0.59801(17) 0.46271(10)
C13 C 1.0028(2) 0.5994(2) 0.46680(11)
H15 H 1.0398 0.5729 0.4399
C14 C 0.8542(2) 0.63778(19) 0.50238(11)
H16 H 0.7880 0.6379 0.5001
C15 C 1.0459(2) 0.63938(19) 0.50990(12)
H17 H 1.1121 0.6399 0.5121
C16 C 0.89756(19) 0.67744(19) 0.54546(10)
H18 H 0.8607 0.7042 0.5723
C17 C 0.99355(19) 0.67859(17) 0.54977(10)
C18 C 1.0390(2) 0.71917(18) 0.59760(10)
H19 H 1.0732 0.6704 0.6165
H20 H 0.9900 0.7428 0.6213
C19 C 1.04071(19) 0.89966(18) 0.55657(11)
H21 H 1.0005 0.8733 0.5289
H22 H 1.0002 0.9226 0.5851
C20 C 1.09726(18) 0.97679(19) 0.53449(11)
C21 C 1.1106(2) 1.0570(2) 0.56286(12)
H23 H 1.0840 1.0622 0.5968
C22 C 1.1616(2) 1.1296(2) 0.54291(15)
H24 H 1.1693 1.1843 0.5626
C23 C 1.2009(2) 1.1210(2) 0.49416(15)
H25 H 1.2369 1.1702 0.4805
C24 C 1.1895(2) 1.0424(2) 0.46440(13)
H26 H 1.2168 1.0376 0.4306
C25 C 1.13695(19) 0.97021(19) 0.48501(12)
S3 S 0.64363(6) 0.73860(5) 0.25495(3)
C26 C 0.5985(2) 0.6657(2) 0.21099(12)
N1 N 0.5677(3) 0.6188(2) 0.17912(12)
S4 S 0.63274(6) 0.47099(5) 0.29329(3)
C27 C 0.7183(2) 0.4109(2) 0.32180(12)
N2 N 0.7758(2) 0.3676(2) 0.34087(13)
Hg1A Hg 1.168298(8) 0.872736(7) 0.672589(4)
S2A S 0.61942(4) 0.68824(4) 0.41809(2)
loop_
_geom_bond_atom_site_label_1
_geom_bond_atom_site_label_2
_geom_bond_site_symmetry_1
_geom_bond_site_symmetry_2
Hg1 S1 1_555 1_555
S1 C10 1_555 1_555
S2 C18 1_555 1_555
O1 C1 1_555 1_555
O2 C3 1_555 1_555
C1 H1 1_555 1_555
H2 C1 1_555 1_555
C2 C1 1_555 1_555
H3 C2 1_555 1_555
H4 C2 1_555 1_555
C3 C2 1_555 1_555
H5 C3 1_555 1_555
H6 C3 1_555 1_555
C4 O2 1_555 1_555
C5 C4 1_555 1_555
H7 C5 1_555 1_555
C6 C5 1_555 1_555
H8 C6 1_555 1_555
C7 C6 1_555 1_555
H9 C7 1_555 1_555
C8 C7 1_555 1_555
H10 C8 1_555 1_555
C9 C4 1_555 1_555
C10 C9 1_555 1_555
H11 C10 1_555 1_555
H12 C10 1_555 1_555
C11 S1 1_555 1_555
H13 C11 1_555 1_555
H14 C11 1_555 1_555
C12 C11 1_555 1_555
C13 C12 1_555 1_555
H15 C13 1_555 1_555
C14 C12 1_555 1_555
H16 C14 1_555 1_555
C15 C13 1_555 1_555
H17 C15 1_555 1_555
C16 C14 1_555 1_555
H18 C16 1_555 1_555
C17 C15 1_555 1_555
C18 C17 1_555 1_555
H19 C18 1_555 1_555
H20 C18 1_555 1_555
C19 S2 1_555 1_555
H21 C19 1_555 1_555
H22 C19 1_555 1_555
C20 C19 1_555 1_555
C21 C20 1_555 1_555
H23 C21 1_555 1_555
C22 C21 1_555 1_555
H24 C22 1_555 1_555
C23 C22 1_555 1_555
H25 C23 1_555 1_555
C24 C23 1_555 1_555
H26 C24 1_555 1_555
C25 O1 1_555 1_555
S3 Hg1 1_555 1_555
C26 S3 1_555 1_555
N1 C26 1_555 1_555
S4 Hg1 1_555 1_555
C27 S4 1_555 1_555
N2 C27 1_555 1_555
Hg1A S2 1_555 1_555
S2A Hg1 1_555 1_555
C8 C9 1_555 1_555
C16 C17 1_555 1_555
C20 C25 1_555 1_555
C24 C25 1_555 1_555

#END
