
#######################################################################
#
#                 Cambridge Crystallographic Data Centre
#                                CCDC 
#
#######################################################################
#
# If this CIF has been generated from an entry in the Cambridge 
# Structural Database, then it will include bibliographic, chemical, 
# crystal, experimental, refinement or atomic coordinate data resulting 
# from the CCDC's data processing and validation procedures.
#
#######################################################################

data_OKIHEW
_symmetry_cell_setting           monoclinic
_symmetry_space_group_name_H-M   'P 21/n'
_symmetry_Int_Tables_number      14
_space_group_name_Hall           '-P 2yn'
loop_
_symmetry_equiv_pos_site_id
_symmetry_equiv_pos_as_xyz
1 x,y,z
2 1/2-x,1/2+y,1/2-z
3 -x,-y,-z
4 1/2+x,1/2-y,1/2+z
_cell_length_a                   12.365(13)
_cell_length_b                   11.292(12)
_cell_length_c                   24.13(3)
_cell_angle_alpha                90
_cell_angle_beta                 91.121(16)
_cell_angle_gamma                90
_cell_volume                     3368.52
loop_
_atom_site_label
_atom_site_type_symbol
_atom_site_fract_x
_atom_site_fract_y
_atom_site_fract_z
Hg1 Hg 0.467588(19) 0.84172(2) 0.419769(10)
Hg2 Hg -0.161240(19) 0.68576(2) 0.291840(11)
S1 S 0.28956(10) 0.80671(12) 0.36493(6)
S2 S 0.01708(11) 0.70274(13) 0.34429(6)
S3 S 0.57997(13) 0.99115(15) 0.36962(8)
S4 S 0.47794(14) 0.77093(16) 0.51592(7)
S5 S 0.73861(14) 0.52607(16) 0.34823(10)
S6 S -0.22857(14) 0.71405(18) 0.19790(7)
O1 O 0.0263(3) 0.9333(4) 0.41751(17)
O2 O 0.1173(3) 0.9973(4) 0.29822(16)
N1 N 0.7634(4) 0.8559(5) 0.3421(3)
N2 N 0.6373(4) 0.9291(5) 0.5588(2)
N3 N 0.5602(5) 0.6640(5) 0.3774(3)
N4 N -0.4171(5) 0.8456(6) 0.2236(3)
C1 C 0.0669(5) 1.0517(5) 0.4097(3)
H1 H 0.1453 1.0493 0.4022
H2 H 0.0558 1.0994 0.4435
C2 C 0.0060(5) 1.1068(6) 0.3608(2)
H3 H 0.0384 1.1849 0.3527
H4 H -0.0700 1.1203 0.3713
C3 C 0.0070(5) 1.0312(6) 0.3082(3)
H5 H -0.0384 0.9599 0.3130
H6 H -0.0224 1.0771 0.2764
C4 C 0.1345(4) 0.9177(5) 0.2563(2)
C5 C 0.0552(5) 0.8863(6) 0.2158(2)
H7 H -0.0151 0.9200 0.2165
C6 C 0.0825(5) 0.8050(6) 0.1747(2)
H8 H 0.0301 0.7848 0.1469
C7 C 0.1838(6) 0.7532(6) 0.1733(2)
H9 H 0.2002 0.6973 0.1453
C8 C 0.2628(5) 0.7840(6) 0.2139(2)
H10 H 0.3328 0.7495 0.2129
C9 C 0.2379(4) 0.8655(5) 0.2557(2)
C10 C 0.3203(4) 0.8904(5) 0.3014(2)
H11 H 0.3207 0.9762 0.3098
H12 H 0.3932 0.8683 0.2887
C11 C 0.3015(5) 0.6525(5) 0.3399(2)
H13 H 0.2604 0.6440 0.3045
H14 H 0.3784 0.6348 0.3327
C12 C 0.2589(4) 0.5642(5) 0.3817(2)
C13 C 0.3287(5) 0.5246(6) 0.4249(2)
H15 H 0.3993 0.5573 0.4287
C14 C 0.2948(6) 0.4379(7) 0.4618(3)
H16 H 0.3420 0.4132 0.4911
C15 C 0.1937(6) 0.3877(6) 0.4563(3)
H17 H 0.1717 0.3277 0.4812
C16 C 0.1246(6) 0.4253(6) 0.4142(3)
H18 H 0.0554 0.3895 0.4102
C17 C 0.1546(5) 0.5157(5) 0.3771(3)
C18 C 0.0743(5) 0.5530(6) 0.3330(3)
H19 H 0.0144 0.4949 0.3315
H20 H 0.1101 0.5517 0.2967
C19 C -0.0337(5) 0.6985(6) 0.4157(2)
H21 H -0.1005 0.7466 0.4174
H22 H -0.0528 0.6159 0.4251
C20 C 0.0475(4) 0.7445(5) 0.4580(2)
C21 C 0.0949(5) 0.6699(6) 0.4975(3)
H23 H 0.0756 0.5885 0.4980
C22 C 0.1709(5) 0.7135(7) 0.5365(3)
H24 H 0.2031 0.6622 0.5633
C23 C 0.1982(5) 0.8326(7) 0.5351(2)
H25 H 0.2493 0.8624 0.5615
C24 C 0.1530(5) 0.9092(6) 0.4963(2)
H26 H 0.1733 0.9903 0.4959
C25 C 0.0768(4) 0.8654(5) 0.4576(2)
C26 C 0.6859(5) 0.9066(6) 0.3532(3)
C27 C 0.5744(5) 0.8650(6) 0.5395(2)
C28 C 0.6343(5) 0.6099(6) 0.3661(3)
C29 C -0.3396(6) 0.7939(7) 0.2142(3)
Hg2_2 Hg 0.838760(19) 0.68576(2) 0.291840(11)
S5_2 S -0.26139(14) 0.52607(16) 0.34823(10)
N1_2 N -0.2366(4) 0.8559(5) 0.3421(3)
loop_
_geom_bond_atom_site_label_1
_geom_bond_atom_site_label_2
_geom_bond_site_symmetry_1
_geom_bond_site_symmetry_2
Hg1 S1 1_555 1_555
Hg2 S2 1_555 1_555
S1 C10 1_555 1_555
S2 C18 1_555 1_555
S3 Hg1 1_555 1_555
S4 Hg1 1_555 1_555
S5 C28 1_555 1_555
S6 Hg2 1_555 1_555
O1 C1 1_555 1_555
O2 C3 1_555 1_555
N1 C26 1_555 1_555
N2 C27 1_555 1_555
N3 Hg1 1_555 1_555
N4 C29 1_555 1_555
C1 H1 1_555 1_555
H2 C1 1_555 1_555
C2 C1 1_555 1_555
H3 C2 1_555 1_555
H4 C2 1_555 1_555
C3 C2 1_555 1_555
H5 C3 1_555 1_555
H6 C3 1_555 1_555
C4 O2 1_555 1_555
C5 C4 1_555 1_555
H7 C5 1_555 1_555
C6 C5 1_555 1_555
H8 C6 1_555 1_555
C7 C6 1_555 1_555
H9 C7 1_555 1_555
C8 C7 1_555 1_555
H10 C8 1_555 1_555
C9 C4 1_555 1_555
C10 C9 1_555 1_555
H11 C10 1_555 1_555
H12 C10 1_555 1_555
C11 S1 1_555 1_555
H13 C11 1_555 1_555
H14 C11 1_555 1_555
C12 C11 1_555 1_555
C13 C12 1_555 1_555
H15 C13 1_555 1_555
C14 C13 1_555 1_555
H16 C14 1_555 1_555
C15 C14 1_555 1_555
H17 C15 1_555 1_555
C16 C15 1_555 1_555
H18 C16 1_555 1_555
C17 C12 1_555 1_555
C18 C17 1_555 1_555
H19 C18 1_555 1_555
H20 C18 1_555 1_555
C19 S2 1_555 1_555
H21 C19 1_555 1_555
H22 C19 1_555 1_555
C20 C19 1_555 1_555
C21 C20 1_555 1_555
H23 C21 1_555 1_555
C22 C21 1_555 1_555
H24 C22 1_555 1_555
C23 C22 1_555 1_555
H25 C23 1_555 1_555
C24 C23 1_555 1_555
H26 C24 1_555 1_555
C25 O1 1_555 1_555
C26 S3 1_555 1_555
C27 S4 1_555 1_555
C28 N3 1_555 1_555
C29 S6 1_555 1_555
Hg2_2 S5 1_555 1_555
S5_2 Hg2 1_555 1_555
N1_2 Hg2 1_555 1_555
N1 Hg2_2 1_555 1_555
C8 C9 1_555 1_555
C16 C17 1_555 1_555
C20 C25 1_555 1_555
C24 C25 1_555 1_555

#END
