
#######################################################################
#
#                 Cambridge Crystallographic Data Centre
#                                CCDC 
#
#######################################################################
#
# If this CIF has been generated from an entry in the Cambridge 
# Structural Database, then it will include bibliographic, chemical, 
# crystal, experimental, refinement or atomic coordinate data resulting 
# from the CCDC's data processing and validation procedures.
#
#######################################################################

data_OKIHIA
_symmetry_cell_setting           triclinic
_symmetry_space_group_name_H-M   'P -1'
_symmetry_Int_Tables_number      2
_space_group_name_Hall           '-P 1'
loop_
_symmetry_equiv_pos_site_id
_symmetry_equiv_pos_as_xyz
1 x,y,z
2 -x,-y,-z
_cell_length_a                   11.207(5)
_cell_length_b                   11.897(5)
_cell_length_c                   14.134(6)
_cell_angle_alpha                103.71(2)
_cell_angle_beta                 89.77(2)
_cell_angle_gamma                114.574(18)
_cell_volume                     1655.4
loop_
_atom_site_label
_atom_site_type_symbol
_atom_site_fract_x
_atom_site_fract_y
_atom_site_fract_z
Hg1 Hg 0.058832(19) 0.449616(16) 0.767287(13)
Hg2 Hg 1.041605(19) 0.950354(16) 0.767074(14)
S1 S 0.78434(12) 0.87335(10) 0.74877(9)
S2 S 0.30801(11) 0.50872(10) 0.76333(8)
S3 S 0.10194(15) 0.92231(12) 0.92174(9)
S4 S 0.12695(18) 0.03602(15) 0.62788(12)
S5 S -0.01939(17) 0.36551(13) 0.90771(10)
S6 S -0.02939(15) 0.46135(11) 0.61516(9)
O1 O 0.5218(3) 0.6311(3) 0.9398(2)
O2 O 0.5538(3) 0.9017(3) 0.8765(2)
N1 N 0.1018(5) 0.6795(4) 0.8661(3)
N2 N 0.0115(6) 0.2064(5) 0.6431(4)
N3 N 0.0694(5) 0.1735(4) 0.8795(3)
N4 N -0.0136(6) 0.7108(5) 0.6637(4)
C1 C 0.6087(5) 0.7594(4) 0.9912(3)
H1 H 0.6737 0.8007 0.9483
H2 H 0.6570 0.7597 1.0498
C2 C 0.5249(5) 0.8287(4) 1.0204(3)
H3 H 0.5810 0.9163 1.0605
H4 H 0.4589 0.7843 1.0615
C3 C 0.4542(5) 0.8371(4) 0.9336(3)
H5 H 0.3943 0.7504 0.8942
H6 H 0.4013 0.8856 0.9559
C4 C 0.5142(5) 0.9223(4) 0.7931(3)
C5 C 0.3859(5) 0.8824(5) 0.7577(4)
H7 H 0.3163 0.8332 0.7899
C6 C 0.3574(6) 0.9133(5) 0.6757(4)
H8 H 0.2681 0.8835 0.6505
C7 C 0.4572(6) 0.9870(5) 0.6295(4)
H9 H 0.4372 1.0130 0.5753
C8 C 0.5859(6) 1.0226(5) 0.6627(4)
H10 H 0.6550 1.0711 0.6297
C9 C 0.6170(5) 0.9886(4) 0.7444(3)
C10 C 0.7552(5) 1.0178(4) 0.7764(4)
H11 H 0.7741 1.0577 0.8478
H12 H 0.8163 1.0799 0.7430
C11 C 0.7484(5) 0.8141(4) 0.6166(3)
H13 H 0.7773 0.8879 0.5874
H14 H 0.8002 0.7652 0.5919
C12 C 0.6041(5) 0.7294(4) 0.5827(3)
C13 C 0.5338(5) 0.6295(4) 0.6239(3)
H15 H 0.5769 0.6156 0.6747
C14 C 0.5409(6) 0.7473(4) 0.5080(3)
H16 H 0.5883 0.8147 0.4784
C15 C 0.4095(6) 0.6687(5) 0.4755(4)
H17 H 0.3670 0.6823 0.4242
C16 C 0.3400(5) 0.5701(5) 0.5180(3)
H18 H 0.2495 0.5163 0.4959
C17 C 0.4018(5) 0.5494(4) 0.5925(3)
C18 C 0.3282(5) 0.4425(4) 0.6375(3)
H19 H 0.3775 0.3899 0.6364
H20 H 0.2407 0.3871 0.5998
C19 C 0.3394(5) 0.4070(4) 0.8285(3)
H21 H 0.3122 0.4220 0.8953
H22 H 0.2860 0.3161 0.7940
C20 C 0.4810(5) 0.4336(4) 0.8349(3)
C21 C 0.5257(5) 0.3455(4) 0.7863(3)
H23 H 0.4644 0.2645 0.7476
C22 C 0.6578(6) 0.3739(5) 0.7936(4)
H24 H 0.6874 0.3122 0.7609
C23 C 0.7476(5) 0.4924(5) 0.8485(4)
H25 H 0.8390 0.5123 0.8521
C24 C 0.7060(5) 0.5820(4) 0.8981(4)
H26 H 0.7682 0.6633 0.9358
C25 C 0.5747(5) 0.5527(4) 0.8922(3)
C26 C 0.1003(5) 0.7774(4) 0.8861(3)
C27 C 0.0568(5) 0.1357(4) 0.6375(4)
C28 C 0.0351(5) 0.2531(4) 0.8890(3)
C29 C -0.0181(6) 0.6100(5) 0.6468(4)
Hg2_2 Hg 0.041605(19) 0.950354(16) 0.767074(14)
Hg2_3 Hg 0.041605(19) -0.049646(16) 0.767074(14)
S3_2 S 1.10194(15) 0.92231(12) 0.92174(9)
S4_2 S 1.12695(18) 1.03602(15) 0.62788(12)
N3_2 N 1.0694(5) 1.1735(4) 0.8795(3)
N4_2 N 0.9864(6) 0.7108(5) 0.6637(4)
loop_
_geom_bond_atom_site_label_1
_geom_bond_atom_site_label_2
_geom_bond_site_symmetry_1
_geom_bond_site_symmetry_2
Hg1 S2 1_555 1_555
Hg2 S1 1_555 1_555
S1 C10 1_555 1_555
S2 C18 1_555 1_555
S3 C26 1_555 1_555
S4 C27 1_555 1_555
S5 Hg1 1_555 1_555
S6 Hg1 1_555 1_555
O1 C1 1_555 1_555
O2 C3 1_555 1_555
N1 Hg1 1_555 1_555
N2 Hg1 1_555 1_555
N3 C28 1_555 1_555
N4 C29 1_555 1_555
C1 H1 1_555 1_555
H2 C1 1_555 1_555
C2 C1 1_555 1_555
H3 C2 1_555 1_555
H4 C2 1_555 1_555
C3 C2 1_555 1_555
H5 C3 1_555 1_555
H6 C3 1_555 1_555
C4 O2 1_555 1_555
C5 C4 1_555 1_555
H7 C5 1_555 1_555
C6 C5 1_555 1_555
H8 C6 1_555 1_555
C7 C6 1_555 1_555
H9 C7 1_555 1_555
C8 C7 1_555 1_555
H10 C8 1_555 1_555
C9 C4 1_555 1_555
C10 C9 1_555 1_555
H11 C10 1_555 1_555
H12 C10 1_555 1_555
C11 S1 1_555 1_555
H13 C11 1_555 1_555
H14 C11 1_555 1_555
C12 C11 1_555 1_555
C13 C12 1_555 1_555
H15 C13 1_555 1_555
C14 C12 1_555 1_555
H16 C14 1_555 1_555
C15 C14 1_555 1_555
H17 C15 1_555 1_555
C16 C15 1_555 1_555
H18 C16 1_555 1_555
C17 C13 1_555 1_555
C18 C17 1_555 1_555
H19 C18 1_555 1_555
H20 C18 1_555 1_555
C19 S2 1_555 1_555
H21 C19 1_555 1_555
H22 C19 1_555 1_555
C20 C19 1_555 1_555
C21 C20 1_555 1_555
H23 C21 1_555 1_555
C22 C21 1_555 1_555
H24 C22 1_555 1_555
C23 C22 1_555 1_555
H25 C23 1_555 1_555
C24 C23 1_555 1_555
H26 C24 1_555 1_555
C25 O1 1_555 1_555
C26 N1 1_555 1_555
C27 N2 1_555 1_555
C28 S5 1_555 1_555
C29 S6 1_555 1_555
Hg2_2 S3 1_555 1_555
Hg2_3 S4 1_555 1_555
S3_2 Hg2 1_555 1_555
S4_2 Hg2 1_555 1_555
N3_2 Hg2 1_555 1_555
N4_2 Hg2 1_555 1_555
N3 Hg2_3 1_555 1_555
N4 Hg2_2 1_555 1_555
C8 C9 1_555 1_555
C16 C17 1_555 1_555
C20 C25 1_555 1_555
C24 C25 1_555 1_555

#END
