
#######################################################################
#
#                 Cambridge Crystallographic Data Centre
#                                CCDC 
#
#######################################################################
#
# If this CIF has been generated from an entry in the Cambridge 
# Structural Database, then it will include bibliographic, chemical, 
# crystal, experimental, refinement or atomic coordinate data resulting 
# from the CCDC's data processing and validation procedures.
#
#######################################################################

data_OKIJOI
_symmetry_cell_setting           triclinic
_symmetry_space_group_name_H-M   'P -1'
_symmetry_Int_Tables_number      2
_space_group_name_Hall           '-P 1'
loop_
_symmetry_equiv_pos_site_id
_symmetry_equiv_pos_as_xyz
1 x,y,z
2 -x,-y,-z
_cell_length_a                   10.6963(7)
_cell_length_b                   11.5687(7)
_cell_length_c                   13.6314(9)
_cell_angle_alpha                74.4470(10)
_cell_angle_beta                 77.4280(10)
_cell_angle_gamma                87.1810(10)
_cell_volume                     1585.98
loop_
_atom_site_label
_atom_site_type_symbol
_atom_site_fract_x
_atom_site_fract_y
_atom_site_fract_z
Ag1 Ag 1.46223(4) 0.49940(4) 0.36860(3)
C1 C 1.1953(5) 0.6048(5) 0.4940(4)
F1 F 1.7050(7) 0.9025(5) 0.2525(5)
N1 N 1.2850(5) 0.5724(4) 0.4502(4)
O1 O 1.6027(5) 0.6626(5) 0.3702(4)
S1 S 1.73190(17) 0.67565(16) 0.31687(14)
C2 C 1.0788(5) 0.6525(5) 0.5471(4)
F2 F 1.8390(6) 0.8358(6) 0.1459(4)
N2 N 0.7425(4) 0.7966(3) 0.6845(3)
O2 O 1.7724(8) 0.5866(6) 0.2630(6)
C3 C 1.0662(5) 0.7750(5) 0.5286(4)
H1 H 1.1315 0.8260 0.4847
F3 F 1.6435(7) 0.8044(7) 0.1614(5)
N3 N 0.5391(5) 1.3147(4) 0.4024(4)
O3 O 1.8230(7) 0.7006(7) 0.3708(6)
C4 C 0.9556(5) 0.8207(5) 0.5762(4)
H2 H 0.9468 0.9033 0.5648
N4 N 0.4563(7) 0.5534(5) 1.1894(4)
C5 C 0.8577(4) 0.7459(4) 0.6404(4)
C6 C 0.8722(5) 0.6229(4) 0.6591(4)
H3 H 0.8065 0.5718 0.7026
C7 C 0.9835(5) 0.5759(5) 0.6136(4)
H4 H 0.9944 0.4932 0.6276
C8 C 0.6962(4) 0.9034(4) 0.6260(3)
C9 C 0.7032(4) 0.9204(4) 0.5202(4)
H5 H 0.7352 0.8598 0.4888
C10 C 0.6634(5) 1.0262(4) 0.4614(4)
H6 H 0.6697 1.0379 0.3903
C11 C 0.6139(4) 1.1151(4) 0.5091(4)
C12 C 0.5719(5) 1.2271(4) 0.4478(4)
C13 C 0.6040(4) 1.0987(4) 0.6148(4)
H7 H 0.5697 1.1584 0.6464
C14 C 0.6456(5) 0.9930(4) 0.6727(3)
H8 H 0.6396 0.9816 0.7438
C15 C 0.6820(5) 0.7457(4) 0.7905(3)
C16 C 0.5494(5) 0.7437(5) 0.8213(4)
H9 H 0.5000 0.7752 0.7722
C17 C 0.4901(6) 0.6952(5) 0.9243(4)
H10 H 0.4012 0.6946 0.9443
C18 C 0.5622(6) 0.6483(5) 0.9967(4)
C19 C 0.5022(7) 0.5953(5) 1.1046(4)
C20 C 0.6951(7) 0.6486(6) 0.9665(5)
H11 H 0.7443 0.6158 1.0155
C21 C 0.7533(6) 0.6970(6) 0.8645(4)
H12 H 0.8422 0.6971 0.8448
C22 C 1.7304(8) 0.8101(8) 0.2135(6)
Ag1_2 Ag 0.46223(4) 1.49940(4) 0.36860(3)
Ag1_3 Ag 0.46223(4) 0.49940(4) 1.36860(3)
N3_2 N 1.5391(5) 0.3147(4) 0.4024(4)
N4_2 N 1.4563(7) 0.5534(5) 0.1894(4)
C23 C 0.7077(13) 0.0214(11) 0.9225(9)
H13 H 0.6537 -0.0301 0.9782
C24 C 0.6680(11) 0.1338(10) 0.8791(8)
H14 H 0.5870 0.1603 0.9045
C25 C 0.7504(11) 0.2066(11) 0.7971(8)
H15 H 0.7236 0.2832 0.7673
C26 C 0.8689(11) 0.1721(11) 0.7577(8)
H16 H 0.9217 0.2248 0.7022
C27 C 0.9120(13) 0.0588(12) 0.7995(10)
H17 H 0.9930 0.0334 0.7729
C28 C 0.8292(14) -0.0154(12) 0.8830(9)
H18 H 0.8559 -0.0919 0.9132
C29 C 0.9085(11) 0.3894(18) 0.0206(13)
H19 H 0.9317 0.4588 -0.0328
C30 C 0.8730(11) 0.4004(15) 0.1226(13)
H20 H 0.8710 0.4734 0.1392
C31 C 0.8416(10) 0.2938(15) 0.1951(11)
H21 H 0.8166 0.2932 0.2650
C32 C 0.8455(12) 0.1877(16) 0.1687(15)
H22 H 0.8232 0.1177 0.2218
C33 C 0.8809(12) 0.1786(16) 0.0677(14)
H23 H 0.8834 0.1055 0.0512
C34 C 0.9114(10) 0.2830(16) -0.0056(12)
H24 H 0.9349 0.2828 -0.0753
loop_
_geom_bond_atom_site_label_1
_geom_bond_atom_site_label_2
_geom_bond_site_symmetry_1
_geom_bond_site_symmetry_2
Ag1 N1 1_555 1_555
C1 N1 1_555 1_555
F1 C22 1_555 1_555
O1 Ag1 1_555 1_555
S1 O1 1_555 1_555
C2 C1 1_555 1_555
F2 C22 1_555 1_555
N2 C5 1_555 1_555
O2 S1 1_555 1_555
C3 C2 1_555 1_555
H1 C3 1_555 1_555
F3 C22 1_555 1_555
N3 C12 1_555 1_555
O3 S1 1_555 1_555
C4 C3 1_555 1_555
H2 C4 1_555 1_555
N4 C19 1_555 1_555
C5 C4 1_555 1_555
C6 C5 1_555 1_555
H3 C6 1_555 1_555
C7 C2 1_555 1_555
H4 C7 1_555 1_555
C8 N2 1_555 1_555
C9 C8 1_555 1_555
H5 C9 1_555 1_555
C10 C9 1_555 1_555
H6 C10 1_555 1_555
C11 C10 1_555 1_555
C12 C11 1_555 1_555
C13 C11 1_555 1_555
H7 C13 1_555 1_555
C14 C8 1_555 1_555
H8 C14 1_555 1_555
C15 N2 1_555 1_555
C16 C15 1_555 1_555
H9 C16 1_555 1_555
C17 C16 1_555 1_555
H10 C17 1_555 1_555
C18 C17 1_555 1_555
C19 C18 1_555 1_555
C20 C18 1_555 1_555
H11 C20 1_555 1_555
C21 C15 1_555 1_555
H12 C21 1_555 1_555
C22 S1 1_555 1_555
C23 H13 1_555 1_555
C24 C23 1_555 1_555
H14 C24 1_555 1_555
C25 C24 1_555 1_555
H15 C25 1_555 1_555
C26 C25 1_555 1_555
H16 C26 1_555 1_555
C27 C26 1_555 1_555
H17 C27 1_555 1_555
C28 C23 1_555 1_555
H18 C28 1_555 1_555
C29 H19 1_555 1_555
C30 C29 1_555 1_555
H20 C30 1_555 1_555
C31 C30 1_555 1_555
H21 C31 1_555 1_555
C32 C31 1_555 1_555
H22 C32 1_555 1_555
C33 C32 1_555 1_555
H23 C33 1_555 1_555
C34 C29 1_555 1_555
H24 C34 1_555 1_555
Ag1_2 N3 1_555 1_555
Ag1_3 N4 1_555 1_555
N3_2 Ag1 1_555 1_555
N4_2 Ag1 1_555 1_555
C6 C7 1_555 1_555
C13 C14 1_555 1_555
C20 C21 1_555 1_555
C27 C28 1_555 1_555
C33 C34 1_555 1_555

#END
