
#######################################################################
#
#                 Cambridge Crystallographic Data Centre
#                                CCDC 
#
#######################################################################
#
# If this CIF has been generated from an entry in the Cambridge 
# Structural Database, then it will include bibliographic, chemical, 
# crystal, experimental, refinement or atomic coordinate data resulting 
# from the CCDC's data processing and validation procedures.
#
#######################################################################

data_OKIKID
_symmetry_cell_setting           triclinic
_symmetry_space_group_name_H-M   'P -1'
_symmetry_Int_Tables_number      2
_space_group_name_Hall           '-P 1'
loop_
_symmetry_equiv_pos_site_id
_symmetry_equiv_pos_as_xyz
1 x,y,z
2 -x,-y,-z
_cell_length_a                   11.5437(8)
_cell_length_b                   12.2903(9)
_cell_length_c                   13.5429(10)
_cell_angle_alpha                76.7510(10)
_cell_angle_beta                 72.6150(10)
_cell_angle_gamma                79.0900(10)
_cell_volume                     1769.67
loop_
_atom_site_label
_atom_site_type_symbol
_atom_site_fract_x
_atom_site_fract_y
_atom_site_fract_z
Ag1 Ag 1.02323(5) 0.54651(5) 0.20326(4)
C1 C 0.7406(7) 0.6630(6) 0.3178(6)
C2 C 0.6238(6) 0.7163(5) 0.3731(5)
C3 C 0.6114(6) 0.7353(6) 0.4726(5)
H1 H 0.6763 0.7131 0.5033
C4 C 0.5013(6) 0.7879(6) 0.5259(5)
H2 H 0.4915 0.8003 0.5933
C5 C 0.4058(5) 0.8220(5) 0.4796(4)
C6 C 0.4187(6) 0.8000(5) 0.3809(5)
H3 H 0.3535 0.8209 0.3507
C7 C 0.5276(7) 0.7472(6) 0.3275(5)
H4 H 0.5364 0.7325 0.2611
C8 C 0.2414(5) 0.8229(5) 0.6403(4)
C9 C 0.2505(6) 0.7062(5) 0.6621(5)
H5 H 0.2855 0.6655 0.6080
C10 C 0.2078(6) 0.6508(5) 0.7631(5)
H6 H 0.2164 0.5724 0.7778
C11 C 0.1520(6) 0.7109(6) 0.8435(5)
C12 C 0.1410(6) 0.8277(6) 0.8221(5)
H7 H 0.1030 0.8684 0.8758
C13 C 0.1865(6) 0.8832(5) 0.7209(5)
H8 H 0.1805 0.9615 0.7065
C14 C 0.1124(6) 0.6531(6) 0.9499(6)
C15 C 0.2473(5) 0.9854(5) 0.4902(4)
C16 C 0.1258(5) 1.0297(5) 0.5265(5)
H9 H 0.0746 0.9887 0.5837
C17 C 0.0802(6) 1.1339(5) 0.4786(5)
H10 H -0.0010 1.1631 0.5043
C18 C 0.1551(6) 1.1948(5) 0.3926(5)
C19 C 0.1073(6) 1.2991(6) 0.3390(5)
C20 C 0.2774(6) 1.1516(5) 0.3562(5)
H11 H 0.3288 1.1921 0.2987
C21 C 0.3213(5) 1.0489(5) 0.4059(5)
H12 H 0.4034 1.0212 0.3820
N1 N 0.8336(6) 0.6229(6) 0.2771(5)
N2 N 0.2935(4) 0.8772(4) 0.5361(4)
N3 N 0.0848(6) 0.6078(6) 1.0347(5)
N4 N 0.0700(6) 1.3835(5) 0.2957(5)
Ag1_2 Ag 0.02323(5) 0.54651(5) 1.20326(4)
Ag1_3 Ag 0.02323(5) 1.54651(5) 0.20326(4)
N3_2 N 1.0848(6) 0.6078(6) 0.0347(5)
N4_2 N 1.0700(6) 0.3835(5) 0.2957(5)
Ag2 Ag 0.35703(5) 0.59578(5) 0.05299(4)
Ag3 Ag 0.52084(5) 0.41944(5) 0.16974(4)
C22 C 0.2770(7) 0.5420(6) 0.3044(5)
C23 C 0.1945(10) 0.5633(7) 0.4104(6)
C24 C 0.6551(6) 0.6157(5) 0.0216(6)
C25 C 0.7137(9) 0.7227(7) -0.0018(7)
C26 C 0.5928(6) 0.1853(6) 0.1136(6)
C27 C 0.6022(11) 0.0564(8) 0.1357(9)
F1 F 0.1562(6) 0.4762(6) 0.4737(4)
F2 F 0.0973(12) 0.6255(9) 0.4075(6)
F3 F 0.2419(12) 0.6040(15) 0.4580(8)
F4 F 0.6888(15) 0.7753(8) 0.0663(6)
F5 F 0.8245(9) 0.7044(8) -0.0195(15)
F6 F 0.7010(11) 0.7909(7) -0.0812(7)
F7 F 0.6061(7) 0.0132(5) 0.2389(7)
F8 F 0.5095(9) 0.0219(5) 0.1330(9)
F9 F 0.7040(8) 0.0074(5) 0.0899(7)
O1 O 0.2457(6) 0.6018(5) 0.2280(4)
O2 O 0.3611(5) 0.4660(6) 0.3093(4)
O3 O 0.6180(6) 0.5759(5) 0.1135(4)
O4 O 0.6558(6) 0.5833(4) -0.0586(4)
O5 O 0.5426(4) 0.2322(4) 0.1882(4)
O6 O 0.6389(6) 0.2251(4) 0.0204(4)
Ag2A Ag 0.64297(5) 0.40422(5) -0.05299(4)
Ag3A Ag 0.47916(5) 0.58056(5) -0.16974(4)
C22A C 0.7230(7) 0.4580(6) -0.3044(5)
C23A C 0.8055(10) 0.4367(7) -0.4104(6)
C24A C 0.3449(6) 0.3843(5) -0.0216(6)
C25A C 0.2863(9) 0.2773(7) 0.0018(7)
C26A C 0.4072(6) 0.8147(6) -0.1136(6)
C27A C 0.3978(11) 0.9436(8) -0.1357(9)
F1A F 0.8438(6) 0.5238(6) -0.4737(4)
F2A F 0.9027(12) 0.3745(9) -0.4075(6)
F3A F 0.7581(12) 0.3960(15) -0.4580(8)
F4A F 0.3112(15) 0.2247(8) -0.0663(6)
F5A F 0.1755(9) 0.2956(8) 0.0195(15)
F6A F 0.2990(11) 0.2091(7) 0.0812(7)
F7A F 0.3939(7) 0.9868(5) -0.2389(7)
F8A F 0.4905(9) 0.9781(5) -0.1330(9)
F9A F 0.2960(8) 0.9926(5) -0.0899(7)
O1A O 0.7543(6) 0.3982(5) -0.2280(4)
O2A O 0.6389(5) 0.5340(6) -0.3093(4)
O3A O 0.3820(6) 0.4241(5) -0.1135(4)
O4A O 0.3442(6) 0.4167(4) 0.0586(4)
O5A O 0.4574(4) 0.7678(4) -0.1882(4)
O6A O 0.3611(6) 0.7749(4) -0.0204(4)
C28 C 0.8520(11) 0.1287(11) 0.8302(10)
H13 H 0.7929 0.1129 0.8980
H14 H 0.8260 0.2040 0.7960
Cl1 Cl 0.8480(3) 0.0368(3) 0.7573(3)
Cl2 Cl 0.9929(4) 0.1281(4) 0.8513(5)
loop_
_geom_bond_atom_site_label_1
_geom_bond_atom_site_label_2
_geom_bond_site_symmetry_1
_geom_bond_site_symmetry_2
Ag1 N1 1_555 1_555
Ag2 Ag3 1_555 1_555
Ag3 O2 1_555 1_555
C1 C2 1_555 1_555
C2 C3 1_555 1_555
C3 H1 1_555 1_555
C4 C3 1_555 1_555
H2 C4 1_555 1_555
C5 C4 1_555 1_555
C6 C5 1_555 1_555
H3 C6 1_555 1_555
C7 C2 1_555 1_555
H4 C7 1_555 1_555
C8 C9 1_555 1_555
C9 H5 1_555 1_555
C10 C9 1_555 1_555
H6 C10 1_555 1_555
C11 C10 1_555 1_555
C12 C11 1_555 1_555
H7 C12 1_555 1_555
C13 C8 1_555 1_555
H8 C13 1_555 1_555
C14 C11 1_555 1_555
C15 C16 1_555 1_555
C16 H9 1_555 1_555
C17 C16 1_555 1_555
H10 C17 1_555 1_555
C18 C17 1_555 1_555
C19 C18 1_555 1_555
C20 C18 1_555 1_555
H11 C20 1_555 1_555
C21 C15 1_555 1_555
H12 C21 1_555 1_555
C22 C23 1_555 1_555
C23 F1 1_555 1_555
C24 C25 1_555 1_555
C25 F4 1_555 1_555
C26 C27 1_555 1_555
C27 F7 1_555 1_555
C28 H13 1_555 1_555
H14 C28 1_555 1_555
Cl1 C28 1_555 1_555
Cl2 C28 1_555 1_555
F2 C23 1_555 1_555
F3 C23 1_555 1_555
F5 C25 1_555 1_555
F6 C25 1_555 1_555
F8 C27 1_555 1_555
F9 C27 1_555 1_555
N1 C1 1_555 1_555
N2 C5 1_555 1_555
N3 C14 1_555 1_555
N4 C19 1_555 1_555
O1 Ag2 1_555 1_555
O2 C22 1_555 1_555
O3 Ag3 1_555 1_555
O4 C24 1_555 1_555
O5 Ag3 1_555 1_555
O6 C26 1_555 1_555
Ag1_2 N3 1_555 1_555
Ag1_3 N4 1_555 1_555
Ag2A Ag3 1_555 1_555
Ag3A Ag2 1_555 1_555
C22A C23A 1_555 1_555
C23A F1A 1_555 1_555
C24A C25A 1_555 1_555
C25A F4A 1_555 1_555
C26A C27A 1_555 1_555
C27A F7A 1_555 1_555
F2A C23A 1_555 1_555
F3A C23A 1_555 1_555
F5A C25A 1_555 1_555
F6A C25A 1_555 1_555
F8A C27A 1_555 1_555
F9A C27A 1_555 1_555
N3_2 Ag1 1_555 1_555
N4_2 Ag1 1_555 1_555
O1A Ag2A 1_555 1_555
O2A Ag3A 1_555 1_555
O3A Ag3A 1_555 1_555
O4A Ag2 1_555 1_555
O5A Ag3A 1_555 1_555
O6A Ag2 1_555 1_555
C6 C7 1_555 1_555
C8 N2 1_555 1_555
C12 C13 1_555 1_555
C15 N2 1_555 1_555
C20 C21 1_555 1_555
C22 O1 1_555 1_555
C24 O3 1_555 1_555
C26 O5 1_555 1_555
O4 Ag2A 1_555 1_555
O6 Ag2A 1_555 1_555
Ag2A Ag3A 1_555 1_555
C22A O1A 1_555 1_555
C22A O2A 1_555 1_555
C24A O3A 1_555 1_555
C24A O4A 1_555 1_555
C26A O5A 1_555 1_555
C26A O6A 1_555 1_555

#END
