
#######################################################################
#
#                 Cambridge Crystallographic Data Centre
#                                CCDC 
#
#######################################################################
#
# If this CIF has been generated from an entry in the Cambridge 
# Structural Database, then it will include bibliographic, chemical, 
# crystal, experimental, refinement or atomic coordinate data resulting 
# from the CCDC's data processing and validation procedures.
#
#######################################################################

data_OKILEA
_symmetry_cell_setting           rhombohedral
_symmetry_space_group_name_H-M   'R -3'
_symmetry_Int_Tables_number      148
_space_group_name_Hall           '-R 3'
loop_
_symmetry_equiv_pos_site_id
_symmetry_equiv_pos_as_xyz
1 x,y,z
2 -y,x-y,z
3 -x+y,-x,z
4 2/3+x,1/3+y,1/3+z
5 2/3-y,1/3+x-y,1/3+z
6 2/3-x+y,1/3-x,1/3+z
7 1/3+x,2/3+y,2/3+z
8 1/3-y,2/3+x-y,2/3+z
9 1/3-x+y,2/3-x,2/3+z
10 -x,-y,-z
11 y,-x+y,-z
12 x-y,x,-z
13 1/3-x,2/3-y,2/3-z
14 1/3+y,2/3-x+y,2/3-z
15 1/3+x-y,2/3+x,2/3-z
16 2/3-x,1/3-y,1/3-z
17 2/3+y,1/3-x+y,1/3-z
18 2/3+x-y,1/3+x,1/3-z
_cell_length_a                   25.5178(3)
_cell_length_b                   25.5178(3)
_cell_length_c                   14.2324(4)
_cell_angle_alpha                90
_cell_angle_beta                 90
_cell_angle_gamma                120
_cell_volume                     8025.93
loop_
_atom_site_label
_atom_site_type_symbol
_atom_site_fract_x
_atom_site_fract_y
_atom_site_fract_z
Mn1 Mn 0.402434(16) 0.079699(15) 0.81217(2)
Mn2 Mn 0.5000 0.0000 0.5000
N1 N 0.49446(9) 0.09064(9) 0.80942(12)
N2 N 0.57631(8) 0.08000(8) 0.82599(11)
O1 O 0.57676(8) 0.03375(10) 0.58772(11)
O2 O 0.63660(7) 0.04904(8) 0.70721(10)
O3 O 0.47945(9) 0.06282(9) 0.56203(11)
O4 O 0.41851(7) 0.06864(8) 0.66577(10)
O5 O 0.35765(14) -0.02013(9) 0.83087(14)
H1 H 0.3492 -0.0390 0.8829
H2 H 0.3432 -0.0456 0.7863
O6 O 0.31044(9) 0.05497(10) 0.76296(15)
H3 H 0.2994 0.0813 0.7619
H4 H 0.2932 0.0291 0.7194
O7 O 0.55366(11) 0.06716(11) 0.39138(15)
H5 H 0.5465 0.0963 0.3935
H6 H 0.5914 0.0831 0.3808
C1 C 0.59090(10) 0.04849(11) 0.67103(14)
C2 C 0.55699(10) 0.06705(10) 0.73427(14)
C3 C 0.50658(10) 0.07402(10) 0.72421(14)
C4 C 0.46569(11) 0.06749(11) 0.64490(15)
C5 C 0.53758(10) 0.09399(11) 0.86752(14)
C6 C 0.54159(11) 0.11133(13) 0.96715(16)
C7 C 0.55869(12) 0.08391(15) 1.03579(17)
H7 H 0.5678 0.0542 1.0189
C8 C 0.56211(14) 0.10089(19) 1.12957(19)
H8 H 0.5730 0.0821 1.1753
C9 C 0.54929(17) 0.14577(19) 1.1548(2)
H9 H 0.5528 0.1579 1.2172
C10 C 0.53147(16) 0.17219(17) 1.0875(2)
H10 H 0.5215 0.2013 1.1048
C11 C 0.52829(13) 0.15565(14) 0.99352(19)
H11 H 0.5172 0.1745 0.9482
Mn1I Mn 0.597566(16) -0.079699(15) 0.18783(2)
Mn1E Mn 0.343932(22) -0.069101(16) 0.14550(2)
Mn1N Mn 0.656068(22) 0.069101(16) 0.85450(2)
N1I N 0.50554(9) -0.09064(9) 0.19058(12)
N2I N 0.42369(8) -0.08000(8) 0.17401(11)
N2D N 0.58667(8) -0.17036(11) 0.15932(11)
N2M N 0.41333(8) 0.17036(11) 0.84068(11)
O1I O 0.42324(8) -0.03375(10) 0.41228(11)
O2I O 0.36340(7) -0.04904(8) 0.29279(10)
O2D O 0.61763(8) -0.07911(11) 0.04054(10)
O2M O 0.38237(8) 0.07911(11) 0.95946(10)
O3I O 0.52055(9) -0.06282(9) 0.43797(11)
O4I O 0.58149(7) -0.06864(8) 0.33423(10)
O5I O 0.64235(14) 0.02013(9) 0.16913(14)
H1I H 0.6508 0.0390 0.1171
H2I H 0.6568 0.0456 0.2137
O6I O 0.68956(9) -0.05497(10) 0.23704(15)
H3I H 0.7006 -0.0813 0.2381
H4I H 0.7068 -0.0291 0.2806
O7I O 0.44634(11) -0.06716(11) 0.60862(15)
H5I H 0.4535 -0.0963 0.6065
H6I H 0.4086 -0.0831 0.6192
C1I C 0.40910(10) -0.04849(11) 0.32897(14)
C2I C 0.44301(10) -0.06705(10) 0.26573(14)
C3I C 0.49342(10) -0.07402(10) 0.27579(14)
C4I C 0.53431(11) -0.06749(11) 0.35510(15)
C5I C 0.46242(10) -0.09399(11) 0.13248(14)
C6I C 0.45841(11) -0.11133(13) 0.03285(16)
C7I C 0.44131(12) -0.08391(15) -0.03579(17)
H7I H 0.4322 -0.0542 -0.0189
C8I C 0.43789(14) -0.10089(19) -0.12957(19)
H8I H 0.4270 -0.0821 -0.1753
C9I C 0.45071(17) -0.14577(19) -0.1548(2)
H9I H 0.4472 -0.1579 -0.2172
C10I C 0.46853(16) -0.17219(17) -0.0875(2)
H10I H 0.4785 -0.2013 -0.1048
C11I C 0.47171(13) -0.15565(14) 0.00648(19)
H11I H 0.4828 -0.1745 0.0518
loop_
_geom_bond_atom_site_label_1
_geom_bond_atom_site_label_2
_geom_bond_site_symmetry_1
_geom_bond_site_symmetry_2
Mn1 N1 1_555 1_555
Mn2 O1 1_555 1_555
N1 C3 1_555 1_555
N2 C2 1_555 1_555
O1 C1 1_555 1_555
O2 C1 1_555 1_555
O3 Mn2 1_555 1_555
O4 Mn1 1_555 1_555
O5 Mn1 1_555 1_555
H1 O5 1_555 1_555
H2 O5 1_555 1_555
O6 Mn1 1_555 1_555
H3 O6 1_555 1_555
H4 O6 1_555 1_555
O7 Mn2 1_555 1_555
H5 O7 1_555 1_555
H6 O7 1_555 1_555
C1 C2 1_555 1_555
C2 C3 1_555 1_555
C3 C4 1_555 1_555
C4 O3 1_555 1_555
C5 N1 1_555 1_555
C6 C5 1_555 1_555
C7 C6 1_555 1_555
H7 C7 1_555 1_555
C8 C7 1_555 1_555
H8 C8 1_555 1_555
C9 C8 1_555 1_555
H9 C9 1_555 1_555
C10 C9 1_555 1_555
H10 C10 1_555 1_555
C11 C6 1_555 1_555
H11 C11 1_555 1_555
Mn1I N1I 1_555 1_555
Mn1E N2I 1_555 1_555
Mn1N N2 1_555 1_555
N1I C3I 1_555 1_555
N2I C2I 1_555 1_555
N2D Mn1I 1_555 1_555
N2M Mn1 1_555 1_555
O1I Mn2 1_555 1_555
O2I Mn1E 1_555 1_555
O2D Mn1I 1_555 1_555
O2M Mn1 1_555 1_555
O3I Mn2 1_555 1_555
O4I Mn1I 1_555 1_555
O5I Mn1I 1_555 1_555
H1I O5I 1_555 1_555
H2I O5I 1_555 1_555
O6I Mn1I 1_555 1_555
H3I O6I 1_555 1_555
H4I O6I 1_555 1_555
O7I Mn2 1_555 1_555
H5I O7I 1_555 1_555
H6I O7I 1_555 1_555
C1I O1I 1_555 1_555
C2I C1I 1_555 1_555
C3I C2I 1_555 1_555
C4I O3I 1_555 1_555
C5I N1I 1_555 1_555
C6I C5I 1_555 1_555
C7I C6I 1_555 1_555
H7I C7I 1_555 1_555
C8I C7I 1_555 1_555
H8I C8I 1_555 1_555
C9I C8I 1_555 1_555
H9I C9I 1_555 1_555
C10I C9I 1_555 1_555
H10I C10I 1_555 1_555
C11I C6I 1_555 1_555
H11I C11I 1_555 1_555
N2 C5 1_555 1_555
O2 Mn1N 1_555 1_555
O4 C4 1_555 1_555
C10 C11 1_555 1_555
N2I C5I 1_555 1_555
O2I C1I 1_555 1_555
O4I C4I 1_555 1_555
C3I C4I 1_555 1_555
C10I C11I 1_555 1_555

#END
