
#######################################################################
#
#                 Cambridge Crystallographic Data Centre
#                                CCDC 
#
#######################################################################
#
# If this CIF has been generated from an entry in the Cambridge 
# Structural Database, then it will include bibliographic, chemical, 
# crystal, experimental, refinement or atomic coordinate data resulting 
# from the CCDC's data processing and validation procedures.
#
#######################################################################

data_OKILIE
_symmetry_cell_setting           rhombohedral
_symmetry_space_group_name_H-M   'R 3 c'
_symmetry_Int_Tables_number      161
_space_group_name_Hall           'R 3 -2"c'
loop_
_symmetry_equiv_pos_site_id
_symmetry_equiv_pos_as_xyz
1 x,y,z
2 -y,x-y,z
3 -x+y,-x,z
4 -y,-x,1/2+z
5 -x+y,y,1/2+z
6 x,x-y,1/2+z
7 2/3+x,1/3+y,1/3+z
8 2/3-y,1/3+x-y,1/3+z
9 2/3-x+y,1/3-x,1/3+z
10 2/3-y,1/3-x,5/6+z
11 2/3-x+y,1/3+y,5/6+z
12 2/3+x,1/3+x-y,5/6+z
13 1/3+x,2/3+y,2/3+z
14 1/3-y,2/3+x-y,2/3+z
15 1/3-x+y,2/3-x,2/3+z
16 1/3-y,2/3-x,1/6+z
17 1/3-x+y,2/3+y,1/6+z
18 1/3+x,2/3+x-y,1/6+z
_cell_length_a                   28.5972(6)
_cell_length_b                   28.5972(6)
_cell_length_c                   8.7442(5)
_cell_angle_alpha                90
_cell_angle_beta                 90
_cell_angle_gamma                120
_cell_volume                     6192.95
loop_
_atom_site_label
_atom_site_type_symbol
_atom_site_fract_x
_atom_site_fract_y
_atom_site_fract_z
Mn1 Mn 0.90688(4) 0.24168(4) 0.95029(14)
O1 O 0.8817(2) 0.18134(19) 0.7706(5)
O2 O 0.81950(18) 0.12178(19) 0.6263(5)
O3 O 0.70146(17) 0.07043(18) 0.6304(6)
O4 O 0.65017(17) 0.07126(19) 0.8193(5)
O5 O 0.94454(19) 0.30722(18) 0.7828(5)
H1 H 0.9809 0.3167 0.7808
H2 H 0.9331 0.3281 0.7953
N1 N 0.8175(2) 0.2146(2) 0.8948(6)
N2 N 0.7288(2) 0.1697(2) 0.9154(6)
H3 H 0.6969 0.1613 0.9458
C1 C 0.7960(3) 0.1684(3) 0.8074(7)
C2 C 0.7403(3) 0.1388(3) 0.8171(8)
C3 C 0.7745(3) 0.2147(3) 0.9564(8)
C4 C 0.8349(4) 0.1575(3) 0.7330(8)
C5 C 0.6937(3) 0.0907(3) 0.7581(9)
C6 C 0.7775(3) 0.2606(3) 1.0499(9)
C7 C 0.7315(3) 0.2492(3) 1.1427(8)
H4 H 0.7019 0.2147 1.1535
C8 C 0.7350(4) 0.2935(4) 1.2139(10)
H5 H 0.7055 0.2894 1.2701
C9 C 0.7788(4) 0.3422(4) 1.2061(11)
H6 H 0.7808 0.3700 1.2666
C10 C 0.8213(4) 0.3526(4) 1.1098(12)
H7 H 0.8498 0.3877 1.0965
C11 C 0.8209(4) 0.3120(3) 1.0373(9)
H8 H 0.8503 0.3182 0.9771
Mn1C Mn 0.75832(4) 0.09312(4) 0.45029(14)
Mn1K Mn 0.57355(4) -0.00147(6) 0.78362(14)
O2C O 0.87822(19) 0.18050(18) 1.1263(5)
O3C O 0.92957(18) 0.29854(17) 1.1304(6)
O4Q O 0.98350(17) 0.24558(25) 0.9860(5)
loop_
_geom_bond_atom_site_label_1
_geom_bond_atom_site_label_2
_geom_bond_site_symmetry_1
_geom_bond_site_symmetry_2
Mn1 O1 1_555 1_555
O1 C4 1_555 1_555
O2 C4 1_555 1_555
O3 C5 1_555 1_555
O4 C5 1_555 1_555
O5 Mn1 1_555 1_555
H1 O5 1_555 1_555
H2 O5 1_555 1_555
N1 Mn1 1_555 1_555
N2 H3 1_555 1_555
C1 N1 1_555 1_555
C2 N2 1_555 1_555
C3 N1 1_555 1_555
C4 C1 1_555 1_555
C5 C2 1_555 1_555
C6 C3 1_555 1_555
C7 C6 1_555 1_555
H4 C7 1_555 1_555
C8 C7 1_555 1_555
H5 C8 1_555 1_555
C9 C8 1_555 1_555
H6 C9 1_555 1_555
C10 C9 1_555 1_555
H7 C10 1_555 1_555
C11 C6 1_555 1_555
H8 C11 1_555 1_555
Mn1C O2 1_555 1_555
Mn1K O4 1_555 1_555
O2C Mn1 1_555 1_555
O3C Mn1 1_555 1_555
O4Q Mn1 1_555 1_555
O3 Mn1C 1_555 1_555
N2 C3 1_555 1_555
C1 C2 1_555 1_555
C10 C11 1_555 1_555

#END
