
#######################################################################
#
#                 Cambridge Crystallographic Data Centre
#                                CCDC 
#
#######################################################################
#
# If this CIF has been generated from an entry in the Cambridge 
# Structural Database, then it will include bibliographic, chemical, 
# crystal, experimental, refinement or atomic coordinate data resulting 
# from the CCDC's data processing and validation procedures.
#
#######################################################################

data_OKILAW
_symmetry_cell_setting           orthorhombic
_symmetry_space_group_name_H-M   'P 21 21 21'
_symmetry_Int_Tables_number      19
_space_group_name_Hall           'P 2ac 2ab'
loop_
_symmetry_equiv_pos_site_id
_symmetry_equiv_pos_as_xyz
1 x,y,z
2 1/2-x,-y,1/2+z
3 -x,1/2+y,1/2-z
4 1/2+x,1/2-y,-z
_cell_length_a                   16.224(3)
_cell_length_b                   16.644(3)
_cell_length_c                   18.176(4)
_cell_angle_alpha                90
_cell_angle_beta                 90
_cell_angle_gamma                90
_cell_volume                     4908.11
loop_
_atom_site_label
_atom_site_type_symbol
_atom_site_fract_x
_atom_site_fract_y
_atom_site_fract_z
Cd1 Cd 0.733858(16) 0.219946(15) 0.081336(15)
Cd2 Cd 0.818251(17) 0.017133(18) 0.152464(18)
Cd3 Cd 0.817444(15) 0.269309(16) -0.113505(15)
Cd4 Cd 0.767630(18) 0.525740(18) 0.314160(17)
O1 O 0.80758(18) 0.32094(17) 0.00359(15)
O2 O 0.8705(2) 0.4403(2) 0.00746(18)
O3 O 0.8809(2) 0.5561(2) 0.09802(19)
H1 H 0.8807 0.5180 0.0694
O4 O 0.8282(2) 0.58602(18) 0.20635(18)
O5 O 0.70093(14) 0.09319(16) 0.13565(16)
O6 O 0.60190(18) 0.01662(19) 0.1786(2)
H2 H 0.5520 0.0190 0.1854
O7 O 0.45222(18) 0.0207(2) 0.1924(3)
O8 O 0.35014(15) 0.10639(16) 0.17464(16)
O9 O 0.85137(16) 0.14828(16) 0.11083(18)
O10 O 0.95102(16) 0.23636(18) 0.0981(2)
H3 H 1.0015 0.2374 0.0994
O11 O 1.10316(16) 0.23800(17) 0.1062(2)
O12 O 1.20405(15) 0.15339(17) 0.13435(18)
O13 O 0.65886(19) -0.07864(18) -0.23102(19)
O14 O 0.6520(3) -0.0543(2) -0.1129(2)
H4 H 0.6644 -0.0180 -0.0844
O15 O 0.6906(3) 0.0577(2) -0.02878(18)
O16 O 0.75498(17) 0.17495(16) -0.03394(15)
O17 O 0.7101(3) 0.4546(2) 0.4102(2)
H5 H 0.6862 0.4793 0.4434
H6 H 0.6630 0.4289 0.3893
N1 N 0.76213(19) 0.32971(18) 0.14628(18)
N2 N 0.7594(2) 0.43433(19) 0.22409(18)
N3 N 0.59367(17) 0.21759(18) 0.10521(17)
N4 N 0.45655(17) 0.22382(19) 0.12315(17)
N5 N 0.95840(18) 0.0248(2) 0.1435(2)
N6 N 1.09635(18) 0.0267(2) 0.14875(19)
N7 N 0.73183(19) 0.06779(18) -0.26115(18)
N8 N 0.76980(19) 0.16527(18) -0.18424(17)
C1 C 0.6811(3) 0.3090(3) 0.2597(2)
C2 C 0.7039(3) 0.2299(3) 0.2758(3)
H7 H 0.7550 0.2105 0.2607
C3 C 0.6516(4) 0.1821(3) 0.3132(3)
H8 H 0.6682 0.1308 0.3270
C4 C 0.5718(4) 0.2093(4) 0.3317(4)
H9 H 0.5340 0.1749 0.3538
C5 C 0.5507(3) 0.2879(4) 0.3161(4)
H10 H 0.4994 0.3077 0.3301
C6 C 0.6063(3) 0.3375(3) 0.2796(3)
H11 H 0.5919 0.3904 0.2689
C7 C 0.7370(2) 0.3574(2) 0.2121(2)
C8 C 0.8034(2) 0.3910(2) 0.1141(2)
C9 C 0.8035(2) 0.4554(2) 0.1618(2)
C10 C 0.8307(3) 0.3826(3) 0.0369(2)
C11 C 0.8402(3) 0.5371(3) 0.1571(3)
C12 C 0.5259(2) 0.3498(2) 0.0834(3)
C13 C 0.5918(3) 0.3854(3) 0.0488(3)
H12 H 0.6365 0.3540 0.0345
C14 C 0.5928(3) 0.4676(3) 0.0350(3)
H13 H 0.6381 0.4912 0.0124
C15 C 0.5259(4) 0.5137(3) 0.0550(4)
H14 H 0.5246 0.5683 0.0440
C16 C 0.4625(4) 0.4792(3) 0.0907(5)
H15 H 0.4183 0.5110 0.1051
C17 C 0.4608(3) 0.3978(3) 0.1068(4)
H16 H 0.4169 0.3756 0.1327
C18 C 0.5252(2) 0.2632(2) 0.1019(2)
C19 C 0.5674(2) 0.1454(2) 0.1321(2)
C20 C 0.4829(2) 0.1489(2) 0.1428(2)
C21 C 0.6267(2) 0.0818(2) 0.1487(3)
C22 C 0.4249(2) 0.0886(3) 0.1719(2)
C23 C 1.0287(2) -0.1056(3) 0.1652(3)
C24 C 0.9643(3) -0.1443(3) 0.2022(4)
H17 H 0.9217 -0.1143 0.2227
C25 C 0.9640(4) -0.2269(4) 0.2084(4)
H18 H 0.9205 -0.2523 0.2323
C26 C 1.0270(4) -0.2719(3) 0.1799(4)
H19 H 1.0255 -0.3276 0.1834
C27 C 1.0909(3) -0.2356(3) 0.1468(3)
H20 H 1.1348 -0.2662 0.1296
C28 C 1.0923(3) -0.1517(3) 0.1380(3)
H21 H 1.1361 -0.1273 0.1138
C29 C 1.0282(2) -0.0178(2) 0.1541(2)
C30 C 0.9845(2) 0.1021(2) 0.1306(2)
C31 C 1.0696(2) 0.1030(2) 0.1350(2)
C32 C 0.9259(2) 0.1658(2) 0.1124(3)
C33 C 1.1279(2) 0.1697(3) 0.1250(3)
C34 C 0.7993(2) 0.1876(3) -0.3176(2)
C35 C 0.8308(3) 0.1502(3) -0.3794(3)
H22 H 0.8317 0.0944 -0.3815
C36 C 0.8612(4) 0.1944(4) -0.4386(3)
H23 H 0.8822 0.1686 -0.4800
C37 C 0.8595(4) 0.2782(4) -0.4345(3)
H24 H 0.8769 0.3089 -0.4743
C38 C 0.8324(4) 0.3148(3) -0.3723(3)
H25 H 0.8351 0.3705 -0.3687
C39 C 0.8007(3) 0.2709(3) -0.3140(3)
H26 H 0.7804 0.2972 -0.2726
C40 C 0.7666(2) 0.1405(2) -0.2544(2)
C41 C 0.7109(2) 0.0446(2) -0.1922(2)
C42 C 0.7350(3) 0.1058(2) -0.1442(2)
C43 C 0.6721(3) -0.0339(3) -0.1795(3)
C44 C 0.7252(3) 0.1130(3) -0.0644(2)
Cd2A Cd 0.681749(17) -0.017133(18) -0.347536(18)
Cd3C Cd 0.317444(15) 0.230691(16) 0.113505(15)
Cd3C_2 Cd 1.317444(15) 0.230691(16) 0.113505(15)
Cd4B Cd 0.232370(18) 0.025740(18) 0.185840(17)
Cd4B_2 Cd 1.232370(18) 0.025740(18) 0.185840(17)
O8C O 0.85014(15) 0.39361(16) -0.17464(16)
O8B O 0.64986(15) 0.60639(16) 0.32536(16)
O12C O 0.70405(15) 0.34661(17) -0.13435(18)
O12B O 0.79595(15) 0.65339(17) 0.36565(18)
O13A O 0.84114(19) 0.07864(18) 0.26898(19)
N4C N 0.95655(17) 0.27618(19) -0.12315(17)
N6B N 0.90365(18) 0.5267(2) 0.35125(19)
N7A N 0.76817(19) -0.06779(18) 0.23885(18)
loop_
_geom_bond_atom_site_label_1
_geom_bond_atom_site_label_2
_geom_bond_site_symmetry_1
_geom_bond_site_symmetry_2
Cd1 O1 1_555 1_555
Cd2 O5 1_555 1_555
Cd3 O1 1_555 1_555
Cd4 O4 1_555 1_555
O1 C10 1_555 1_555
O2 C10 1_555 1_555
O3 H1 1_555 1_555
O4 C11 1_555 1_555
O5 Cd1 1_555 1_555
O6 H2 1_555 1_555
O7 C22 1_555 1_555
O8 C22 1_555 1_555
O9 Cd1 1_555 1_555
O10 H3 1_555 1_555
O11 C33 1_555 1_555
O12 C33 1_555 1_555
O13 C43 1_555 1_555
O14 H4 1_555 1_555
O15 C44 1_555 1_555
O16 Cd1 1_555 1_555
O17 Cd4 1_555 1_555
H5 O17 1_555 1_555
H6 O17 1_555 1_555
N1 Cd1 1_555 1_555
N2 Cd4 1_555 1_555
N3 Cd1 1_555 1_555
N4 C18 1_555 1_555
N5 Cd2 1_555 1_555
N6 C29 1_555 1_555
N7 C40 1_555 1_555
N8 Cd3 1_555 1_555
C1 C2 1_555 1_555
C2 H7 1_555 1_555
C3 C2 1_555 1_555
H8 C3 1_555 1_555
C4 C3 1_555 1_555
H9 C4 1_555 1_555
C5 C4 1_555 1_555
H10 C5 1_555 1_555
C6 C1 1_555 1_555
H11 C6 1_555 1_555
C7 N1 1_555 1_555
C8 N1 1_555 1_555
C9 N2 1_555 1_555
C10 C8 1_555 1_555
C11 O3 1_555 1_555
C12 C13 1_555 1_555
C13 H12 1_555 1_555
C14 C13 1_555 1_555
H13 C14 1_555 1_555
C15 C14 1_555 1_555
H14 C15 1_555 1_555
C16 C15 1_555 1_555
H15 C16 1_555 1_555
C17 C12 1_555 1_555
H16 C17 1_555 1_555
C18 N3 1_555 1_555
C19 N3 1_555 1_555
C20 N4 1_555 1_555
C21 O5 1_555 1_555
C22 C20 1_555 1_555
C23 C24 1_555 1_555
C24 H17 1_555 1_555
C25 C24 1_555 1_555
H18 C25 1_555 1_555
C26 C25 1_555 1_555
H19 C26 1_555 1_555
C27 C26 1_555 1_555
H20 C27 1_555 1_555
C28 C23 1_555 1_555
H21 C28 1_555 1_555
C29 N5 1_555 1_555
C30 N5 1_555 1_555
C31 N6 1_555 1_555
C32 O9 1_555 1_555
C33 C31 1_555 1_555
C34 C35 1_555 1_555
C35 H22 1_555 1_555
C36 C35 1_555 1_555
H23 C36 1_555 1_555
C37 C36 1_555 1_555
H24 C37 1_555 1_555
C38 C37 1_555 1_555
H25 C38 1_555 1_555
C39 C34 1_555 1_555
H26 C39 1_555 1_555
C40 N8 1_555 1_555
C41 N7 1_555 1_555
C42 N8 1_555 1_555
C43 O14 1_555 1_555
C44 O16 1_555 1_555
Cd2A O13 1_555 1_555
Cd3C O8 1_555 1_555
Cd3C_2 O12 1_555 1_555
Cd4B O8 1_555 1_555
Cd4B_2 O12 1_555 1_555
O8C Cd3 1_555 1_555
O8B Cd4 1_555 1_555
O12C Cd3 1_555 1_555
O12B Cd4 1_555 1_555
O13A Cd2 1_555 1_555
N4C Cd3 1_555 1_555
N6B Cd4 1_555 1_555
N7A Cd2 1_555 1_555
Cd2 O9 1_555 1_555
Cd3 O16 1_555 1_555
O6 C21 1_555 1_555
O10 C32 1_555 1_555
N2 C7 1_555 1_555
N4 Cd3C 1_555 1_555
N6 Cd4B_2 1_555 1_555
N7 Cd2A 1_555 1_555
C1 C7 1_555 1_555
C5 C6 1_555 1_555
C8 C9 1_555 1_555
C9 C11 1_555 1_555
C12 C18 1_555 1_555
C16 C17 1_555 1_555
C19 C20 1_555 1_555
C19 C21 1_555 1_555
C23 C29 1_555 1_555
C27 C28 1_555 1_555
C30 C31 1_555 1_555
C30 C32 1_555 1_555
C34 C40 1_555 1_555
C38 C39 1_555 1_555
C41 C42 1_555 1_555
C41 C43 1_555 1_555
C42 C44 1_555 1_555

#END
