
#######################################################################
#
#                 Cambridge Crystallographic Data Centre
#                                CCDC 
#
#######################################################################
#
# If this CIF has been generated from an entry in the Cambridge 
# Structural Database, then it will include bibliographic, chemical, 
# crystal, experimental, refinement or atomic coordinate data resulting 
# from the CCDC's data processing and validation procedures.
#
#######################################################################

data_OKINEC
_symmetry_cell_setting           orthorhombic
_symmetry_space_group_name_H-M   'P n m a'
_symmetry_Int_Tables_number      62
_space_group_name_Hall           '-P 2ac 2n'
loop_
_symmetry_equiv_pos_site_id
_symmetry_equiv_pos_as_xyz
1 x,y,z
2 1/2-x,-y,1/2+z
3 -x,1/2+y,-z
4 1/2+x,1/2-y,1/2-z
5 -x,-y,-z
6 1/2+x,y,1/2-z
7 x,1/2-y,z
8 1/2-x,1/2+y,1/2+z
_cell_length_a                   9.9360(3)
_cell_length_b                   16.2142(10)
_cell_length_c                   9.5490(5)
_cell_angle_alpha                90
_cell_angle_beta                 90
_cell_angle_gamma                90
_cell_volume                     1538.38
loop_
_atom_site_label
_atom_site_type_symbol
_atom_site_fract_x
_atom_site_fract_y
_atom_site_fract_z
Li1 Li 0.5130(3) 1.00022(19) 0.2536(3)
O1 O 0.69907(12) 0.96866(7) 0.25735(13)
O2 O 0.89700(12) 0.90704(8) 0.22749(13)
O3 O 0.51361(12) 0.92418(8) -0.10037(14)
O4 O 0.73412(12) 0.93172(8) -0.05684(14)
H1 H 0.7338 0.9634 -0.1227
O5 O 0.48184(13) 1.07080(9) 0.41887(14)
H2 H 0.5530 1.1011 0.4497
H3 H 0.4187 1.1007 0.4279
C1 C 0.7898(2) 0.7500 0.1901(3)
H6 H 0.8502 0.7500 0.2713
C2 C 0.69656(16) 0.82659(10) 0.19314(18)
H7 H 0.6346 0.8179 0.2716
C3 C 0.60769(17) 0.82731(10) 0.05867(17)
H8 H 0.5137 0.8211 0.0880
C4 C 0.6456(3) 0.7500 -0.0318(3)
H9 H 0.5954 0.7500 -0.1201
C5 C 0.77238(17) 0.90621(11) 0.22565(18)
C6 C 0.61519(18) 0.90081(11) -0.03874(18)
C7 C 0.7949(3) 0.7500 -0.0593(3)
H10 H 0.8316 0.7500 -0.1489
C8 C 0.8693(2) 0.7500 0.0564(3)
H11 H 0.9629 0.7500 0.0547
Li1F Li 0.5130(3) 0.49978(19) 0.2536(3)
Li1E Li 1.0130(3) 1.00022(19) 0.2464(3)
Li1D Li 0.4870(3) 0.99978(19) -0.2536(3)
Li1C Li 1.0130(3) 0.49978(19) 0.2464(3)
Li1B Li 0.4870(3) 0.50022(19) -0.2536(3)
O1F O 0.69907(12) 0.53134(7) 0.25735(13)
O2F O 0.89700(12) 0.59296(8) 0.22749(13)
O2E O 0.39700(12) 0.90704(8) 0.27251(13)
O2C O 0.39700(12) 0.59296(8) 0.27251(13)
O3F O 0.51361(12) 0.57582(8) -0.10037(14)
O3D O 0.48639(12) 1.07582(8) 0.10037(14)
O3B O 0.48639(12) 0.42418(8) 0.10037(14)
O4F O 0.73412(12) 0.56828(8) -0.05684(14)
H1F H 0.7338 0.5366 -0.1227
O5F O 0.48184(13) 0.42920(9) 0.41887(14)
H2F H 0.5530 0.3989 0.4497
H3F H 0.4187 0.3993 0.4279
C2F C 0.69656(16) 0.67341(10) 0.19314(18)
H7F H 0.6346 0.6821 0.2716
C3F C 0.60769(17) 0.67269(10) 0.05867(17)
H8F H 0.5137 0.6789 0.0880
C5F C 0.77238(17) 0.59379(11) 0.22565(18)
C6F C 0.61519(18) 0.59919(11) -0.03874(18)
O6 O 0.25654(16) 0.83669(11) -0.0625(2)
H4 H 0.3349 0.8661 -0.0721
H5 H 0.2409 0.8266 -0.1618
loop_
_geom_bond_atom_site_label_1
_geom_bond_atom_site_label_2
_geom_bond_site_symmetry_1
_geom_bond_site_symmetry_2
Li1 O1 1_555 1_555
O1 C5 1_555 1_555
O2 C5 1_555 1_555
O3 C6 1_555 1_555
O4 H1 1_555 1_555
O5 Li1 1_555 1_555
H2 O5 1_555 1_555
H3 O5 1_555 1_555
O6 H4 1_555 1_555
H5 O6 1_555 1_555
C1 H6 1_555 1_555
C2 C1 1_555 1_555
H7 C2 1_555 1_555
C3 C2 1_555 1_555
H8 C3 1_555 1_555
C4 C3 1_555 1_555
H9 C4 1_555 1_555
C5 C2 1_555 1_555
C6 O4 1_555 1_555
C7 C4 1_555 1_555
H10 C7 1_555 1_555
C8 C1 1_555 1_555
H11 C8 1_555 1_555
Li1F O1F 1_555 1_555
Li1E O2 1_555 1_555
Li1D O3 1_555 1_555
Li1C O2F 1_555 1_555
Li1B O3F 1_555 1_555
O1F C5F 1_555 1_555
O2F C5F 1_555 1_555
O2E Li1 1_555 1_555
O2C Li1F 1_555 1_555
O3F C6F 1_555 1_555
O3D Li1 1_555 1_555
O3B Li1F 1_555 1_555
O4F H1F 1_555 1_555
O5F Li1F 1_555 1_555
H2F O5F 1_555 1_555
H3F O5F 1_555 1_555
C2F C1 1_555 1_555
H7F C2F 1_555 1_555
C3F C4 1_555 1_555
H8F C3F 1_555 1_555
C5F C2F 1_555 1_555
C6F O4F 1_555 1_555
C3 C6 1_555 1_555
C7 C8 1_555 1_555
C2F C3F 1_555 1_555
C3F C6F 1_555 1_555

#END
