
#######################################################################
#
#                 Cambridge Crystallographic Data Centre
#                                CCDC 
#
#######################################################################
#
# If this CIF has been generated from an entry in the Cambridge 
# Structural Database, then it will include bibliographic, chemical, 
# crystal, experimental, refinement or atomic coordinate data resulting 
# from the CCDC's data processing and validation procedures.
#
#######################################################################

data_OKINIG
_symmetry_cell_setting           monoclinic
_symmetry_space_group_name_H-M   'P 21'
_symmetry_Int_Tables_number      4
_space_group_name_Hall           'P 2yb'
loop_
_symmetry_equiv_pos_site_id
_symmetry_equiv_pos_as_xyz
1 x,y,z
2 -x,1/2+y,-z
_cell_length_a                   9.4778(3)
_cell_length_b                   17.6920(8)
_cell_length_c                   9.9538(4)
_cell_angle_alpha                90
_cell_angle_beta                 104.419(3)
_cell_angle_gamma                90
_cell_volume                     1616.49
loop_
_atom_site_label
_atom_site_type_symbol
_atom_site_fract_x
_atom_site_fract_y
_atom_site_fract_z
Li1 Li 0.2197(8) 0.2591(5) 0.0509(8)
Li2 Li 0.1292(7) 0.1381(4) 0.1930(6)
Li3 Li 0.0271(6) 0.4073(4) 0.4464(6)
Li4 Li 0.0272(6) 0.4802(4) -0.0478(6)
Li5 Li 0.8622(8) 0.4593(6) 0.6558(8)
Li6 Li -0.1332(6) 0.4832(3) 0.1707(6)
Li7 Li 0.8987(7) 0.1925(4) 0.6441(7)
Li8 Li -0.1347(6) 0.2425(4) 0.2962(7)
O1 O 0.1539(3) 0.24723(16) 0.2287(3)
O2 O 0.0495(2) 0.30030(15) 0.3813(2)
O3 O 0.0650(3) 0.46250(15) 0.2850(3)
O4 O 0.1649(3) 0.44027(19) 0.1089(3)
O5 O 0.8365(2) 0.42624(15) 0.4701(2)
O6 O 0.7295(3) 0.42633(15) 0.2446(2)
O7 O 0.7554(3) 0.26066(16) 0.4248(3)
O8 O 0.7537(3) 0.2694(2) 0.6446(3)
O9 O 0.2607(3) 0.13834(15) 0.0734(3)
O10 O 0.2067(3) 0.08890(14) -0.1392(2)
O11 O 0.1638(2) -0.03830(15) 0.0246(2)
O12 O 0.2805(3) -0.05632(17) 0.2455(2)
O13 O 0.8297(3) -0.06264(16) 0.3882(2)
O14 O 0.9473(2) -0.06152(17) 0.2209(3)
O15 O 0.8562(3) 0.13286(15) 0.2645(3)
O16 O 0.9426(3) 0.08974(15) 0.0909(3)
O17 O 0.3083(3) 0.27613(18) -0.1106(3)
H1 H 0.2486 0.2661 -0.1910
H2 H 0.3974 0.2806 -0.1317
O18 O 0.0163(4) 0.29928(17) -0.0533(3)
H3 H 0.0526 0.3363 -0.1041
H4 H 0.0101 0.2564 -0.0997
O19 O 0.1623(6) 0.0785(2) 0.3630(4)
H5 H 0.1704 0.0889 0.4444
H6 H 0.2538 0.0804 0.3472
O20 O 0.8304(3) 0.09841(16) 0.5503(3)
H7 H 0.8578 0.0473 0.5846
H8 H 0.8196 0.0882 0.4606
O21 O 1.0971(3) 0.22918(16) 0.6372(3)
H9 H 1.0777 0.2565 0.5653
H10 H 1.1603 0.1971 0.6179
O22 O 0.9516(3) 0.15794(15) 0.8368(3)
H11 H 1.0393 0.1355 0.8476
H12 H 0.9154 0.1368 0.8976
O23 O -0.2030(3) 0.29491(16) 0.1104(3)
H13 H -0.2353 0.3348 0.1395
H14 H -0.1269 0.3109 0.0723
C1 C 0.2972(4) 0.33292(19) 0.3978(4)
H21 H 0.2984 0.3387 0.4960
C2 C 0.3089(4) 0.4146(2) 0.3389(3)
H22 H 0.3247 0.4495 0.4178
C3 C 0.4463(3) 0.4191(2) 0.2812(3)
H23 H 0.4496 0.4672 0.2334
C4 C 0.5799(4) 0.4108(2) 0.4064(3)
H24 H 0.5730 0.4515 0.4712
C5 C 0.5661(3) 0.3350(2) 0.4828(3)
H25 H 0.5408 0.3475 0.5698
C6 C 0.4375(3) 0.28870(19) 0.3919(3)
H26 H 0.4354 0.2375 0.4288
C7 C 0.1573(4) 0.2902(2) 0.3289(3)
C8 C 0.1707(4) 0.4403(2) 0.2348(4)
C9 C 0.7252(4) 0.42118(19) 0.3688(3)
C10 C 0.7034(4) 0.2861(2) 0.5184(4)
C11 C 0.4479(4) 0.2863(2) 0.2438(3)
H27 H 0.4535 0.2413 0.1970
C12 C 0.4485(3) 0.3536(2) 0.1855(4)
H28 H 0.4501 0.3598 0.0931
C13 C 0.4331(3) 0.0523(2) 0.0145(4)
H29 H 0.4565 0.0425 -0.0744
C14 C 0.4232(3) -0.0269(2) 0.0843(3)
H30 H 0.4317 -0.0656 0.0163
C15 C 0.5564(3) -0.0364(2) 0.2100(4)
H31 H 0.5532 -0.0854 0.2549
C16 C 0.6947(3) -0.0296(2) 0.1565(3)
H32 H 0.6838 -0.0654 0.0795
C17 C 0.7018(3) 0.0521(2) 0.0939(4)
H33 H 0.6949 0.0457 -0.0054
C18 C 0.5644(3) 0.0961(2) 0.1068(3)
H34 H 0.5670 0.1480 0.0734
C19 C 0.2913(3) 0.0966(2) -0.0169(3)
C20 C 0.2800(4) -0.04100(19) 0.1228(3)
C21 C 0.8328(4) -0.0526(2) 0.2656(4)
C22 C 0.8423(4) 0.0951(2) 0.1554(4)
C23 C 0.5566(4) 0.0957(2) 0.2562(3)
H35 H 0.5544 0.1398 0.3067
C24 C 0.5531(3) 0.0271(2) 0.3095(4)
H36 H 0.5490 0.0190 0.4008
Li2_2 Li 1.1292(7) 0.1381(4) 0.1930(6)
Li3_2 Li 1.0271(6) 0.4073(4) 0.4464(6)
Li3A Li 0.9729(6) -0.0927(4) 0.5536(6)
Li4A Li -0.0272(6) -0.0198(4) 0.0478(6)
Li4A_2 Li 0.9728(6) -0.0198(4) 0.0478(6)
Li5A Li 0.1378(8) -0.0407(6) 0.3442(8)
Li5A_2 Li 1.1378(8) -0.0407(6) 0.3442(8)
Li6_2 Li 0.8668(6) 0.4832(3) 0.1707(6)
Li6A Li 0.1332(6) -0.0168(3) -0.1707(6)
Li8_2 Li 0.8653(6) 0.2425(4) 0.2962(7)
O5_2 O -0.1635(2) 0.42624(15) 0.4701(2)
O6_2 O -0.2705(3) 0.42633(15) 0.2446(2)
O7_2 O -0.2446(3) 0.26066(16) 0.4248(3)
O10A O -0.2067(3) 0.58890(14) 0.1392(2)
O11A O -0.1638(2) 0.46170(15) -0.0246(2)
O12A O 0.7195(3) 0.44368(17) 0.7545(2)
O13A O 0.1703(3) 0.43736(16) 0.6118(2)
O14A O 0.0527(2) 0.43848(17) -0.2209(3)
O14A_2 O 1.0527(2) 0.43848(17) 0.7791(3)
O15_2 O -0.1438(3) 0.13286(15) 0.2645(3)
O16_2 O -0.0574(3) 0.08974(15) 0.0909(3)
O16A O 0.0574(3) 0.58974(15) -0.0909(3)
O19A O 0.8377(6) 0.5785(2) 0.6370(4)
H5A H 0.8296 0.5889 0.5556
H6A H 0.7462 0.5804 0.6528
O24 O 0.6017(3) 0.25827(19) 0.8500(3)
H15 H 0.6554 0.2715 0.7809
H16 H 0.6563 0.2776 0.9229
O25 O 0.3000(3) 0.11496(17) -0.3741(3)
H17 H 0.2784 0.1003 -0.3009
H18 H 0.3965 0.1249 -0.3487
O26 O 0.5946(3) 0.1159(2) -0.2934(4)
H19 H 0.6610 0.1078 -0.3458
H20 H 0.6299 0.1583 -0.2374
loop_
_geom_bond_atom_site_label_1
_geom_bond_atom_site_label_2
_geom_bond_site_symmetry_1
_geom_bond_site_symmetry_2
Li1 O1 1_555 1_555
Li2 O1 1_555 1_555
Li3 O2 1_555 1_555
Li4 O4 1_555 1_555
Li5 O5 1_555 1_555
Li6 O3 1_555 1_555
Li7 O8 1_555 1_555
Li8 O2 1_555 1_555
O1 C7 1_555 1_555
O2 C7 1_555 1_555
O3 Li3 1_555 1_555
O4 C8 1_555 1_555
O5 C9 1_555 1_555
O6 C9 1_555 1_555
O7 C10 1_555 1_555
O8 C10 1_555 1_555
O9 Li1 1_555 1_555
O10 C19 1_555 1_555
O11 C20 1_555 1_555
O12 C20 1_555 1_555
O13 C21 1_555 1_555
O14 C21 1_555 1_555
O15 C22 1_555 1_555
O16 C22 1_555 1_555
O17 Li1 1_555 1_555
H1 O17 1_555 1_555
H2 O17 1_555 1_555
O18 Li1 1_555 1_555
H3 O18 1_555 1_555
H4 O18 1_555 1_555
O19 Li2 1_555 1_555
H5 O19 1_555 1_555
H6 O19 1_555 1_555
O20 Li7 1_555 1_555
H7 O20 1_555 1_555
H8 O20 1_555 1_555
O21 Li7 1_555 1_555
H9 O21 1_555 1_555
H10 O21 1_555 1_555
O22 Li7 1_555 1_555
H11 O22 1_555 1_555
H12 O22 1_555 1_555
O23 Li8 1_555 1_555
H13 O23 1_555 1_555
H14 O23 1_555 1_555
O24 H15 1_555 1_555
H16 O24 1_555 1_555
O25 H17 1_555 1_555
H18 O25 1_555 1_555
O26 H19 1_555 1_555
H20 O26 1_555 1_555
C1 H21 1_555 1_555
C2 C1 1_555 1_555
H22 C2 1_555 1_555
C3 C2 1_555 1_555
H23 C3 1_555 1_555
C4 C3 1_555 1_555
H24 C4 1_555 1_555
C5 C4 1_555 1_555
H25 C5 1_555 1_555
C6 C1 1_555 1_555
H26 C6 1_555 1_555
C7 C1 1_555 1_555
C8 O3 1_555 1_555
C9 C4 1_555 1_555
C10 C5 1_555 1_555
C11 C6 1_555 1_555
H27 C11 1_555 1_555
C12 C3 1_555 1_555
H28 C12 1_555 1_555
C13 H29 1_555 1_555
C14 C13 1_555 1_555
H30 C14 1_555 1_555
C15 C14 1_555 1_555
H31 C15 1_555 1_555
C16 C15 1_555 1_555
H32 C16 1_555 1_555
C17 C16 1_555 1_555
H33 C17 1_555 1_555
C18 C13 1_555 1_555
H34 C18 1_555 1_555
C19 O9 1_555 1_555
C20 C14 1_555 1_555
C21 C16 1_555 1_555
C22 C17 1_555 1_555
C23 C18 1_555 1_555
H35 C23 1_555 1_555
C24 C15 1_555 1_555
H36 C24 1_555 1_555
Li2_2 O16 1_555 1_555
Li3_2 O5 1_555 1_555
Li3A O13 1_555 1_555
Li4A O11 1_555 1_555
Li4A_2 O14 1_555 1_555
Li5A O12 1_555 1_555
Li5A_2 O14 1_555 1_555
Li6_2 O6 1_555 1_555
Li6A O10 1_555 1_555
Li8_2 O7 1_555 1_555
O5_2 Li3 1_555 1_555
O6_2 Li6 1_555 1_555
O7_2 Li8 1_555 1_555
O10A Li6 1_555 1_555
O11A Li4 1_555 1_555
O12A Li5 1_555 1_555
O13A Li3 1_555 1_555
O14A Li4 1_555 1_555
O14A_2 Li5 1_555 1_555
O15_2 Li8 1_555 1_555
O16_2 Li2 1_555 1_555
O16A Li4 1_555 1_555
O19A Li5 1_555 1_555
H5A O19A 1_555 1_555
H6A O19A 1_555 1_555
Li2 O9 1_555 1_555
Li6 O11A 1_555 1_555
O11 Li6A 1_555 1_555
O15 Li8_2 1_555 1_555
O16 Li4A_2 1_555 1_555
O19 Li5A 1_555 1_555
C2 C8 1_555 1_555
C5 C6 1_555 1_555
C11 C12 1_555 1_555
C13 C19 1_555 1_555
C17 C18 1_555 1_555
C23 C24 1_555 1_555
Li4A O16_2 1_555 1_555

#END
