
#######################################################################
#
#                 Cambridge Crystallographic Data Centre
#                                CCDC 
#
#######################################################################
#
# If this CIF has been generated from an entry in the Cambridge 
# Structural Database, then it will include bibliographic, chemical, 
# crystal, experimental, refinement or atomic coordinate data resulting 
# from the CCDC's data processing and validation procedures.
#
#######################################################################

data_OKIPEE
_symmetry_cell_setting           triclinic
_symmetry_space_group_name_H-M   'P -1'
_symmetry_Int_Tables_number      2
_space_group_name_Hall           '-P 1'
loop_
_symmetry_equiv_pos_site_id
_symmetry_equiv_pos_as_xyz
1 x,y,z
2 -x,-y,-z
_cell_length_a                   8.1702(3)
_cell_length_b                   9.6589(5)
_cell_length_c                   9.8979(5)
_cell_angle_alpha                116.718(3)
_cell_angle_beta                 94.178(4)
_cell_angle_gamma                98.515(4)
_cell_volume                     681.358
loop_
_atom_site_label
_atom_site_type_symbol
_atom_site_fract_x
_atom_site_fract_y
_atom_site_fract_z
Cs1 Cs 0.764778(17) 0.450020(14) 0.187513(14)
O1 O 1.0616(2) 0.69651(19) 0.48095(18)
H1 H 1.1426 0.6402 0.4878
O2 O 1.0402(2) 0.74270(19) 0.72116(18)
O3 O 0.7309(2) 0.48208(17) 0.51112(17)
O4 O 0.6558(2) 0.57791(17) 0.74414(17)
O5 O 0.5312(2) 1.19448(19) 0.92761(18)
O6 O 0.3108(2) 1.08012(19) 0.74172(18)
H2 H 0.2558 1.1466 0.8128
O7 O 0.8789(2) 1.33322(17) 0.84114(17)
O8 O 0.6373(2) 1.29292(17) 0.69263(17)
H3 H 0.6660 1.4076 0.7192
O9 O 0.8019(2) 0.68885(18) 0.05016(18)
H4 H 0.7648 0.6580 -0.0525
H5 H 0.9206 0.6902 0.0648
C1 C 0.8417(3) 0.8213(2) 0.5904(2)
H6 H 0.8267 0.8113 0.4871
C2 C 0.6736(3) 0.7389(2) 0.6128(2)
H7 H 0.5942 0.7038 0.5191
C3 C 0.6018(3) 0.8631(2) 0.7439(2)
H8 H 0.5002 0.8130 0.7647
C4 C 0.5609(3) 0.9826(2) 0.6858(2)
H9 H 0.4880 0.9234 0.5862
C5 C 0.7302(3) 1.0654(2) 0.6647(2)
H10 H 0.7232 1.0326 0.5549
C6 C 0.8758(3) 1.0008(2) 0.7073(2)
H11 H 0.9833 1.0555 0.7001
C7 C 0.9905(3) 0.7497(2) 0.6065(2)
C8 C 0.6899(3) 0.5896(2) 0.6263(2)
C9 C 0.4695(3) 1.0976(2) 0.7978(2)
C10 C 0.7587(3) 1.2455(2) 0.7455(2)
C11 C 0.8738(3) 1.0202(2) 0.8667(2)
H12 H 0.9644 1.0769 0.9452
C12 C 0.7318(3) 0.9496(2) 0.8857(2)
H13 H 0.7141 0.9532 0.9789
Cs1A Cs 1.235222(17) 0.549980(14) 0.812487(14)
Cs1A_2 Cs 0.235222(17) 0.549980(14) 0.812487(14)
Cs1_2 Cs 0.764778(17) 1.450020(14) 1.187513(14)
Cs1A_3 Cs 1.235222(17) 1.549980(14) 0.812487(14)
O2A O 0.9598(2) 0.25730(19) 0.27884(18)
O4A O 0.3442(2) 0.42209(17) 0.25586(17)
O5_2 O 0.5312(2) 0.19448(19) -0.07239(18)
O7_2 O 0.8789(2) 0.33322(17) -0.15886(17)
O7A O 1.1211(2) 0.66678(17) 0.15886(17)
loop_
_geom_bond_atom_site_label_1
_geom_bond_atom_site_label_2
_geom_bond_site_symmetry_1
_geom_bond_site_symmetry_2
Cs1 O1 1_555 1_555
O1 H1 1_555 1_555
O2 C7 1_555 1_555
O3 Cs1 1_555 1_555
O4 C8 1_555 1_555
O5 C9 1_555 1_555
O6 H2 1_555 1_555
O7 C10 1_555 1_555
O8 H3 1_555 1_555
O9 Cs1 1_555 1_555
H4 O9 1_555 1_555
H5 O9 1_555 1_555
C1 H6 1_555 1_555
C2 C1 1_555 1_555
H7 C2 1_555 1_555
C3 C2 1_555 1_555
H8 C3 1_555 1_555
C4 C3 1_555 1_555
H9 C4 1_555 1_555
C5 C4 1_555 1_555
H10 C5 1_555 1_555
C6 C1 1_555 1_555
H11 C6 1_555 1_555
C7 O1 1_555 1_555
C8 O3 1_555 1_555
C9 O6 1_555 1_555
C10 O8 1_555 1_555
C11 C6 1_555 1_555
H12 C11 1_555 1_555
C12 C3 1_555 1_555
H13 C12 1_555 1_555
Cs1A O2 1_555 1_555
Cs1A_2 O4 1_555 1_555
Cs1_2 O5 1_555 1_555
Cs1A_3 O7 1_555 1_555
O2A Cs1 1_555 1_555
O4A Cs1 1_555 1_555
O5_2 Cs1 1_555 1_555
O7_2 Cs1 1_555 1_555
O7A Cs1 1_555 1_555
O7 Cs1_2 1_555 1_555
C1 C7 1_555 1_555
C2 C8 1_555 1_555
C4 C9 1_555 1_555
C5 C6 1_555 1_555
C5 C10 1_555 1_555
C11 C12 1_555 1_555

#END
