
#######################################################################
#
#                 Cambridge Crystallographic Data Centre
#                                CCDC 
#
#######################################################################
#
# If this CIF has been generated from an entry in the Cambridge 
# Structural Database, then it will include bibliographic, chemical, 
# crystal, experimental, refinement or atomic coordinate data resulting 
# from the CCDC's data processing and validation procedures.
#
#######################################################################

data_OKIPAA
_symmetry_cell_setting           triclinic
_symmetry_space_group_name_H-M   'P -1'
_symmetry_Int_Tables_number      2
_space_group_name_Hall           '-P 1'
loop_
_symmetry_equiv_pos_site_id
_symmetry_equiv_pos_as_xyz
1 x,y,z
2 -x,-y,-z
_cell_length_a                   8.2294(3)
_cell_length_b                   9.6363(5)
_cell_length_c                   9.6873(6)
_cell_angle_alpha                117.415(2)
_cell_angle_beta                 94.302(4)
_cell_angle_gamma                99.489(4)
_cell_volume                     662.54
loop_
_atom_site_label
_atom_site_type_symbol
_atom_site_fract_x
_atom_site_fract_y
_atom_site_fract_z
Rb1 Rb 0.78774(2) 0.43668(2) 0.18308(2)
O1 O 1.06006(18) 0.69152(17) 0.47729(16)
H1 H 1.1459 0.6442 0.4915
O2 O 1.04130(18) 0.74721(17) 0.72607(15)
O3 O 0.73170(17) 0.47880(16) 0.50333(15)
O4 O 0.66195(18) 0.57576(16) 0.74391(15)
O5 O 0.54132(18) 1.19936(17) 0.93718(15)
O6 O 0.32111(17) 1.08046(17) 0.74211(15)
H2 H 0.2617 1.1451 0.8060
O7 O 0.88602(17) 1.33885(16) 0.84458(15)
O8 O 0.64278(17) 1.29127(15) 0.69191(15)
H3 H 0.6510 1.3991 0.7192
O9 O 0.78953(17) 0.67604(16) 0.06154(15)
H4 H 0.7608 0.6599 -0.0314
H5 H 0.8960 0.6797 0.0659
C1 C 0.8444(2) 0.8206(2) 0.5873(2)
H6 H 0.8287 0.8072 0.4802
C2 C 0.6767(2) 0.7373(2) 0.6113(2)
H7 H 0.5956 0.7008 0.5154
C3 C 0.6091(2) 0.8638(2) 0.7481(2)
H8 H 0.5090 0.8131 0.7709
C4 C 0.5671(2) 0.9816(2) 0.6881(2)
H9 H 0.4921 0.9188 0.5859
C5 C 0.7340(2) 1.0650(2) 0.6630(2)
H10 H 0.7235 1.0292 0.5496
C6 C 0.8811(2) 1.0031(2) 0.7066(2)
H11 H 0.9876 1.0589 0.6980
C7 C 0.9913(2) 0.7496(2) 0.6063(2)
C8 C 0.6923(2) 0.5868(2) 0.6226(2)
C9 C 0.4782(2) 1.0993(2) 0.8029(2)
C10 C 0.7643(2) 1.2462(2) 0.7453(2)
C11 C 0.8826(2) 1.0276(2) 0.8713(2)
H12 H 0.9743 1.0881 0.9518
C12 C 0.7424(2) 0.9557(2) 0.8926(2)
H13 H 0.7277 0.9617 0.9893
Rb1A Rb 1.21226(2) 0.56332(2) 0.81692(2)
Rb1_2 Rb 0.78774(2) 1.43668(2) 1.18308(2)
Rb1A_2 Rb 1.21226(2) 1.56332(2) 0.81692(2)
O2A O 0.95870(18) 0.25279(17) 0.27393(15)
O5_2 O 0.54132(18) 0.19936(17) -0.06282(15)
O7A O 1.11398(17) 0.66115(16) 0.15542(15)
O7_2 O 0.88602(17) 0.33885(16) -0.15542(15)
loop_
_geom_bond_atom_site_label_1
_geom_bond_atom_site_label_2
_geom_bond_site_symmetry_1
_geom_bond_site_symmetry_2
Rb1 O1 1_555 1_555
O1 H1 1_555 1_555
O2 C7 1_555 1_555
O3 Rb1 1_555 1_555
O4 C8 1_555 1_555
O5 C9 1_555 1_555
O6 H2 1_555 1_555
O7 C10 1_555 1_555
O8 H3 1_555 1_555
O9 Rb1 1_555 1_555
H4 O9 1_555 1_555
H5 O9 1_555 1_555
C1 H6 1_555 1_555
C2 C1 1_555 1_555
H7 C2 1_555 1_555
C3 C2 1_555 1_555
H8 C3 1_555 1_555
C4 C3 1_555 1_555
H9 C4 1_555 1_555
C5 C4 1_555 1_555
H10 C5 1_555 1_555
C6 C1 1_555 1_555
H11 C6 1_555 1_555
C7 O1 1_555 1_555
C8 O3 1_555 1_555
C9 O6 1_555 1_555
C10 O8 1_555 1_555
C11 C6 1_555 1_555
H12 C11 1_555 1_555
C12 C3 1_555 1_555
H13 C12 1_555 1_555
Rb1A O2 1_555 1_555
Rb1_2 O5 1_555 1_555
Rb1A_2 O7 1_555 1_555
O2A Rb1 1_555 1_555
O5_2 Rb1 1_555 1_555
O7A Rb1 1_555 1_555
O7_2 Rb1 1_555 1_555
O7 Rb1_2 1_555 1_555
C1 C7 1_555 1_555
C2 C8 1_555 1_555
C4 C9 1_555 1_555
C5 C6 1_555 1_555
C5 C10 1_555 1_555
C11 C12 1_555 1_555

#END
