
#######################################################################
#
#                 Cambridge Crystallographic Data Centre
#                                CCDC 
#
#######################################################################
#
# If this CIF has been generated from an entry in the Cambridge 
# Structural Database, then it will include bibliographic, chemical, 
# crystal, experimental, refinement or atomic coordinate data resulting 
# from the CCDC's data processing and validation procedures.
#
#######################################################################

data_OKIQUV
_symmetry_cell_setting           triclinic
_symmetry_space_group_name_H-M   'P -1'
_symmetry_Int_Tables_number      2
_space_group_name_Hall           '-P 1'
loop_
_symmetry_equiv_pos_site_id
_symmetry_equiv_pos_as_xyz
1 x,y,z
2 -x,-y,-z
_cell_length_a                   7.5728(10)
_cell_length_b                   8.0887(10)
_cell_length_c                   12.3471(15)
_cell_angle_alpha                87.566(3)
_cell_angle_beta                 78.346(2)
_cell_angle_gamma                70.194(2)
_cell_volume                     696.625
loop_
_atom_site_label
_atom_site_type_symbol
_atom_site_fract_x
_atom_site_fract_y
_atom_site_fract_z
Ag1 Ag 0.29787(5) 0.16843(5) 0.27314(3)
S1 S 0.13721(14) -0.06051(14) 0.30630(8)
N1 N 0.4409(5) -0.1337(5) -0.1255(3)
N2 N 0.5966(5) -0.2382(5) 0.5778(3)
C1 C 0.2770(6) -0.2622(6) 0.0219(4)
H1 H 0.2547 -0.3624 0.0518
C2 C 0.4038(6) -0.2728(6) -0.0770(4)
H2 H 0.4669 -0.3826 -0.1120
C3 C 0.3453(5) 0.0229(6) -0.0734(3)
H3 H 0.3668 0.1219 -0.1060
C4 C 0.2171(5) 0.0449(6) 0.0259(3)
H4 H 0.1540 0.1562 0.0587
C5 C 0.1834(5) -0.1006(5) 0.0761(3)
C6 C 0.0435(6) -0.0840(6) 0.1846(3)
H5 H 0.0048 -0.1873 0.1925
H6 H -0.0699 0.0173 0.1824
C7 C 0.3244(6) -0.2731(6) 0.3092(4)
H7 H 0.2690 -0.3660 0.3206
H8 H 0.4163 -0.2970 0.2396
C8 C 0.4212(6) -0.2650(5) 0.4029(3)
C9 C 0.3372(6) -0.2803(6) 0.5120(4)
H9 H 0.2204 -0.2995 0.5286
C10 C 0.4288(6) -0.2669(6) 0.5954(3)
H10 H 0.3710 -0.2784 0.6680
C11 C 0.6755(6) -0.2234(7) 0.4726(4)
H11 H 0.7923 -0.2042 0.4580
C12 C 0.5940(6) -0.2351(7) 0.3843(3)
H12 H 0.6549 -0.2229 0.3126
N3 N -0.0415(5) 0.4623(5) 0.1974(3)
O1 O 0.1207(6) 0.4598(6) 0.2048(4)
O2 O -0.0926(6) 0.3408(6) 0.2368(4)
O3 O -0.1410(6) 0.5812(5) 0.1480(4)
Ag1A Ag 0.70213(5) -0.16843(5) -0.27314(3)
Ag1A_2 Ag 0.70213(5) -0.16843(5) 0.72686(3)
N1A N 0.5591(5) 0.1337(5) 0.1255(3)
N2A N 0.4034(5) 0.2382(5) 0.4222(3)
loop_
_geom_bond_atom_site_label_1
_geom_bond_atom_site_label_2
_geom_bond_site_symmetry_1
_geom_bond_site_symmetry_2
Ag1 S1 1_555 1_555
S1 C6 1_555 1_555
N1 C2 1_555 1_555
N2 C10 1_555 1_555
C1 H1 1_555 1_555
C2 C1 1_555 1_555
H2 C2 1_555 1_555
C3 N1 1_555 1_555
H3 C3 1_555 1_555
C4 C3 1_555 1_555
H4 C4 1_555 1_555
C5 C1 1_555 1_555
C6 C5 1_555 1_555
H5 C6 1_555 1_555
H6 C6 1_555 1_555
C7 S1 1_555 1_555
H7 C7 1_555 1_555
H8 C7 1_555 1_555
C8 C7 1_555 1_555
C9 C8 1_555 1_555
H9 C9 1_555 1_555
C10 C9 1_555 1_555
H10 C10 1_555 1_555
C11 N2 1_555 1_555
H11 C11 1_555 1_555
C12 C8 1_555 1_555
H12 C12 1_555 1_555
N3 O1 1_555 1_555
O1 Ag1 1_555 1_555
O2 N3 1_555 1_555
O3 N3 1_555 1_555
Ag1A N1 1_555 1_555
Ag1A_2 N2 1_555 1_555
N1A Ag1 1_555 1_555
N2A Ag1 1_555 1_555
C4 C5 1_555 1_555
C11 C12 1_555 1_555

#END
