
#######################################################################
#
#                 Cambridge Crystallographic Data Centre
#                                CCDC 
#
#######################################################################
#
# If this CIF has been generated from an entry in the Cambridge 
# Structural Database, then it will include bibliographic, chemical, 
# crystal, experimental, refinement or atomic coordinate data resulting 
# from the CCDC's data processing and validation procedures.
#
#######################################################################

data_OKIQEF
_symmetry_cell_setting           monoclinic
_symmetry_space_group_name_H-M   'P 21/n'
_symmetry_Int_Tables_number      14
_space_group_name_Hall           '-P 2yn'
loop_
_symmetry_equiv_pos_site_id
_symmetry_equiv_pos_as_xyz
1 x,y,z
2 1/2-x,1/2+y,1/2-z
3 -x,-y,-z
4 1/2+x,1/2-y,1/2+z
_cell_length_a                   9.961(2)
_cell_length_b                   17.750(4)
_cell_length_c                   15.444(4)
_cell_angle_alpha                90
_cell_angle_beta                 92.662(5)
_cell_angle_gamma                90
_cell_volume                     2727.67
loop_
_atom_site_label
_atom_site_type_symbol
_atom_site_fract_x
_atom_site_fract_y
_atom_site_fract_z
C1 C 1.4069(7) -0.3239(4) 0.2839(5)
O1 O 1.4874(5) -0.3276(3) 0.2255(3)
C2 C 1.1573(6) -0.1273(3) 0.2943(4)
C3 C 1.1671(7) -0.1745(4) 0.3633(5)
H1 H 1.1209 -0.1633 0.4126
C4 C 1.2290(8) -0.1433(4) 0.2231(5)
H2 H 1.2220 -0.1114 0.1753
C5 C 1.3112(8) -0.2054(4) 0.2208(5)
H3 H 1.3607 -0.2143 0.1723
C6 C 1.2453(7) -0.2395(4) 0.3614(5)
H4 H 1.2474 -0.2729 0.4079
C7 C 1.3205(7) -0.2541(4) 0.2891(4)
Cd1 Cd 1.59489(5) -0.43305(3) 0.23998(3)
Cd2 Cd 1.0000 0.0000 0.5000
C8 C -0.3454(7) -0.4711(4) 0.4427(5)
H5 H -0.4226 -0.5006 0.4413
O2 O 0.8279(4) 0.0705(3) 0.4296(3)
C9 C 1.0720(6) -0.0579(4) 0.2944(5)
N1 N -0.3009(6) -0.4300(3) 0.3746(4)
N2 N 0.8675(5) -0.1041(3) 0.4824(4)
O3 O 1.0667(5) -0.0174(3) 0.3591(3)
C10 C 0.7216(7) 0.0452(4) 0.3948(5)
C11 C -0.0500(6) -0.3864(4) 0.5419(4)
C12 C 0.7952(7) -0.1315(4) 0.5429(5)
H6 H 0.8088 -0.1204 0.6015
O4 O 1.0076(5) -0.0423(3) 0.2260(3)
O5 O 0.7046(5) 0.0378(3) 0.3136(3)
N3 N -0.1614(6) -0.4141(3) 0.4897(4)
C13 C 0.7111(7) -0.1805(4) 0.4226(5)
H7 H 0.6591 -0.2080 0.3823
C14 C 0.0067(7) -0.4306(4) 0.6057(4)
H8 H -0.0275 -0.4783 0.6163
N4 N 0.6975(5) -0.1782(3) 0.5102(4)
C15 C 0.1674(7) -0.3324(4) 0.6373(5)
C16 C 0.1154(7) -0.4034(4) 0.6539(5)
H9 H 0.1546 -0.4327 0.6982
C17 C 0.6068(6) 0.0211(4) 0.4486(4)
C18 C 0.6107(7) 0.0396(4) 0.5354(5)
H10 H 0.6839 0.0657 0.5600
C19 C 0.5939(6) -0.2141(4) 0.5580(5)
C20 C 0.3850(7) -0.2780(4) 0.6424(5)
C21 C 0.4282(7) -0.3106(4) 0.5685(5)
H11 H 0.3869 -0.3541 0.5468
C22 C 0.5335(7) -0.2788(4) 0.5259(5)
H12 H 0.5635 -0.3010 0.4758
C23 C -0.2583(8) -0.4619(4) 0.5133(5)
H13 H -0.2649 -0.4844 0.5673
C24 C 0.4977(7) -0.0186(4) 0.4128(5)
H14 H 0.4954 -0.0315 0.3544
C25 C -0.1897(7) -0.3965(4) 0.4042(5)
H15 H -0.1372 -0.3652 0.3714
C26 C 0.4483(8) -0.2147(4) 0.6766(5)
H16 H 0.4199 -0.1935 0.7277
C27 C 0.8145(7) -0.1349(4) 0.4067(5)
H17 H 0.8460 -0.1255 0.3520
C28 C 0.1088(7) -0.2880(4) 0.5746(5)
H18 H 0.1422 -0.2400 0.5643
C29 C 0.5545(7) -0.1829(4) 0.6345(5)
H19 H 0.5987 -0.1408 0.6577
C30 C -0.0009(7) -0.3152(4) 0.5265(5)
H20 H -0.0420 -0.2853 0.4835
O6 O 0.2791(5) -0.3078(3) 0.6881(3)
O7 O 1.3924(5) -0.3771(3) 0.3370(3)
C1B C 0.5931(7) 0.3239(4) 0.7161(5)
O1B O 0.5126(5) 0.3276(3) 0.7745(3)
C2B C 0.8427(6) 0.1273(3) 0.7057(4)
C3B C 0.8329(7) 0.1745(4) 0.6367(5)
H1B H 0.8791 0.1633 0.5874
C4B C 0.7710(8) 0.1433(4) 0.7769(5)
H2B H 0.7780 0.1114 0.8247
C5B C 0.6888(8) 0.2054(4) 0.7792(5)
H3B H 0.6393 0.2143 0.8277
C6B C 0.7547(7) 0.2395(4) 0.6386(5)
H4B H 0.7526 0.2729 0.5921
C7B C 0.6795(7) 0.2541(4) 0.7109(4)
Cd1B Cd 0.40511(5) 0.43305(3) 0.76002(3)
Cd1_2 Cd -0.40511(5) -0.43305(3) 0.23998(3)
Cd1A Cd 0.90511(5) 0.06695(3) 0.26002(3)
Cd1C Cd 0.09489(5) -0.06695(3) 0.73998(3)
Cd1B_2 Cd 2.40511(5) 0.43305(3) 0.76002(3)
Cd1C_2 Cd 1.09489(5) -0.06695(3) 0.73998(3)
Cd2_2 Cd 0.0000 0.0000 0.5000
C8B C 2.3454(7) 0.4711(4) 0.5573(5)
H5B H 2.4226 0.5006 0.5587
O2B O 0.1721(4) -0.0705(3) 0.5704(3)
O2B_2 O 1.1721(4) -0.0705(3) 0.5704(3)
C9B C 0.9280(6) 0.0579(4) 0.7056(5)
N1B N 2.3009(6) 0.4300(3) 0.6254(4)
N1_2 N 1.6991(6) -0.4300(3) 0.3746(4)
N1B_2 N 0.3009(6) 0.4300(3) 0.6254(4)
N2B N 1.1325(5) 0.1041(3) 0.5176(4)
O3B O 0.9333(5) 0.0174(3) 0.6409(3)
O3A O 1.4333(5) -0.5174(3) 0.1409(3)
O3C O 0.5667(5) 0.5174(3) 0.8591(3)
C10B C 0.2784(7) -0.0452(4) 0.6052(5)
C11B C 2.0500(6) 0.3864(4) 0.4581(4)
C12B C 1.2048(7) 0.1315(4) 0.4571(5)
H6B H 1.1912 0.1204 0.3985
O4B O 0.9924(5) 0.0423(3) 0.7740(3)
O4A O 1.4924(5) -0.5423(3) 0.2740(3)
O4C O 0.5076(5) 0.5423(3) 0.7260(3)
O5B O 0.2954(5) -0.0378(3) 0.6864(3)
O5A O 1.7954(5) -0.4622(3) 0.1864(3)
O5C O 0.2046(5) 0.4622(3) 0.8136(3)
N3B N 2.1614(6) 0.4141(3) 0.5103(4)
C13B C 1.2889(7) 0.1805(4) 0.5774(5)
H7B H 1.3409 0.2080 0.6177
C14B C 1.9933(7) 0.4306(4) 0.3943(4)
H8B H 2.0275 0.4783 0.3837
N4B N 1.3025(5) 0.1782(3) 0.4898(4)
C15B C 1.8326(7) 0.3324(4) 0.3627(5)
C16B C 1.8846(7) 0.4034(4) 0.3461(5)
H9B H 1.8454 0.4327 0.3018
C17B C 0.3932(6) -0.0211(4) 0.5514(4)
C18B C 0.3893(7) -0.0396(4) 0.4646(5)
H10B H 0.3161 -0.0657 0.4400
C19B C 1.4061(6) 0.2141(4) 0.4420(5)
C20B C 1.6150(7) 0.2780(4) 0.3576(5)
C21B C 1.5718(7) 0.3106(4) 0.4315(5)
H11B H 1.6131 0.3541 0.4532
C22B C 1.4665(7) 0.2788(4) 0.4741(5)
H12B H 1.4365 0.3010 0.5242
C23B C 2.2583(8) 0.4619(4) 0.4867(5)
H13B H 2.2649 0.4844 0.4327
C24B C 0.5023(7) 0.0186(4) 0.5872(5)
H14B H 0.5046 0.0315 0.6456
C25B C 2.1897(7) 0.3965(4) 0.5958(5)
H15B H 2.1372 0.3652 0.6286
C26B C 1.5517(8) 0.2147(4) 0.3234(5)
H16B H 1.5801 0.1935 0.2723
C27B C 1.1855(7) 0.1349(4) 0.5933(5)
H17B H 1.1540 0.1255 0.6480
C28B C 1.8912(7) 0.2880(4) 0.4254(5)
H18B H 1.8578 0.2400 0.4357
C29B C 1.4455(7) 0.1829(4) 0.3655(5)
H19B H 1.4013 0.1408 0.3423
C30B C 2.0009(7) 0.3152(4) 0.4735(5)
H20B H 2.0420 0.2853 0.5165
O6B O 1.7209(5) 0.3078(3) 0.3119(3)
O7B O 0.6076(5) 0.3771(3) 0.6630(3)
loop_
_geom_bond_atom_site_label_1
_geom_bond_atom_site_label_2
_geom_bond_site_symmetry_1
_geom_bond_site_symmetry_2
C1 O1 1_555 1_555
O1 Cd1 1_555 1_555
C2 C3 1_555 1_555
C3 H1 1_555 1_555
C4 C2 1_555 1_555
H2 C4 1_555 1_555
C5 C4 1_555 1_555
H3 C5 1_555 1_555
C6 C3 1_555 1_555
H4 C6 1_555 1_555
C7 C1 1_555 1_555
Cd1 O7 1_555 1_555
Cd2 O2 1_555 1_555
C8 H5 1_555 1_555
O2 C10 1_555 1_555
C9 C2 1_555 1_555
N1 C8 1_555 1_555
N2 Cd2 1_555 1_555
O3 Cd2 1_555 1_555
C10 O5 1_555 1_555
C11 N3 1_555 1_555
C12 N2 1_555 1_555
H6 C12 1_555 1_555
O4 C9 1_555 1_555
O5 Cd1A 1_555 1_555
N3 C23 1_555 1_555
C13 H7 1_555 1_555
C14 C11 1_555 1_555
H8 C14 1_555 1_555
N4 C12 1_555 1_555
C15 C16 1_555 1_555
C16 C14 1_555 1_555
H9 C16 1_555 1_555
C17 C10 1_555 1_555
C18 C17 1_555 1_555
H10 C18 1_555 1_555
C19 N4 1_555 1_555
C20 C21 1_555 1_555
C21 H11 1_555 1_555
C22 C19 1_555 1_555
H12 C22 1_555 1_555
C23 C8 1_555 1_555
H13 C23 1_555 1_555
C24 C17 1_555 1_555
H14 C24 1_555 1_555
C25 N1 1_555 1_555
H15 C25 1_555 1_555
C26 C20 1_555 1_555
H16 C26 1_555 1_555
C27 N2 1_555 1_555
H17 C27 1_555 1_555
C28 C15 1_555 1_555
H18 C28 1_555 1_555
C29 C19 1_555 1_555
H19 C29 1_555 1_555
C30 C11 1_555 1_555
H20 C30 1_555 1_555
O6 C15 1_555 1_555
O7 C1 1_555 1_555
C1B O1B 1_555 1_555
O1B Cd1B 1_555 1_555
C2B C3B 1_555 1_555
C3B H1B 1_555 1_555
C4B C2B 1_555 1_555
H2B C4B 1_555 1_555
C5B C4B 1_555 1_555
H3B C5B 1_555 1_555
C6B C3B 1_555 1_555
H4B C6B 1_555 1_555
C7B C1B 1_555 1_555
Cd1B N1B_2 1_555 1_555
Cd1_2 N1 1_555 1_555
Cd1A O3 1_555 1_555
Cd1C O5B 1_555 1_555
Cd1B_2 N1B 1_555 1_555
Cd1C_2 O3B 1_555 1_555
Cd2_2 O2B 1_555 1_555
C8B H5B 1_555 1_555
O2B C10B 1_555 1_555
O2B_2 Cd2 1_555 1_555
C9B C2B 1_555 1_555
N1B C8B 1_555 1_555
N1_2 Cd1 1_555 1_555
N2B Cd2 1_555 1_555
O3B Cd2 1_555 1_555
O3A Cd1 1_555 1_555
O3C Cd1B 1_555 1_555
C10B O5B 1_555 1_555
C11B N3B 1_555 1_555
C12B N2B 1_555 1_555
H6B C12B 1_555 1_555
O4B Cd1C_2 1_555 1_555
O4A Cd1 1_555 1_555
O4C Cd1B 1_555 1_555
O5A Cd1 1_555 1_555
O5C Cd1B 1_555 1_555
N3B C23B 1_555 1_555
C13B H7B 1_555 1_555
C14B C11B 1_555 1_555
H8B C14B 1_555 1_555
N4B C12B 1_555 1_555
C15B C16B 1_555 1_555
C16B C14B 1_555 1_555
H9B C16B 1_555 1_555
C17B C10B 1_555 1_555
C18B C24 1_555 1_555
H10B C18B 1_555 1_555
C19B N4B 1_555 1_555
C20B C21B 1_555 1_555
C21B H11B 1_555 1_555
C22B C19B 1_555 1_555
H12B C22B 1_555 1_555
C23B C8B 1_555 1_555
H13B C23B 1_555 1_555
C24B C18 1_555 1_555
H14B C24B 1_555 1_555
C25B N1B 1_555 1_555
H15B C25B 1_555 1_555
C26B C20B 1_555 1_555
H16B C26B 1_555 1_555
C27B N2B 1_555 1_555
H17B C27B 1_555 1_555
C28B C15B 1_555 1_555
H18B C28B 1_555 1_555
C29B C19B 1_555 1_555
H19B C29B 1_555 1_555
C30B C11B 1_555 1_555
H20B C30B 1_555 1_555
O6B C15B 1_555 1_555
O7B C1B 1_555 1_555
C5 C7 1_555 1_555
C6 C7 1_555 1_555
C9 O3 1_555 1_555
O4 Cd1A 1_555 1_555
N3 C25 1_555 1_555
C13 N4 1_555 1_555
C13 C27 1_555 1_555
C20 O6 1_555 1_555
C21 C22 1_555 1_555
C26 C29 1_555 1_555
C28 C30 1_555 1_555
C5B C7B 1_555 1_555
C6B C7B 1_555 1_555
Cd1B O7B 1_555 1_555
C9B O3B 1_555 1_555
C9B O4B 1_555 1_555
N3B C25B 1_555 1_555
C13B N4B 1_555 1_555
C13B C27B 1_555 1_555
C17B C18B 1_555 1_555
C17B C24B 1_555 1_555
C20B O6B 1_555 1_555
C21B C22B 1_555 1_555
C26B C29B 1_555 1_555
C28B C30B 1_555 1_555

#END
