
#######################################################################
#
#                 Cambridge Crystallographic Data Centre
#                                CCDC 
#
#######################################################################
#
# If this CIF has been generated from an entry in the Cambridge 
# Structural Database, then it will include bibliographic, chemical, 
# crystal, experimental, refinement or atomic coordinate data resulting 
# from the CCDC's data processing and validation procedures.
#
#######################################################################

data_OKIQOP
_symmetry_cell_setting           monoclinic
_symmetry_space_group_name_H-M   'P 21/c'
_symmetry_Int_Tables_number      14
_space_group_name_Hall           '-P 2ybc'
loop_
_symmetry_equiv_pos_site_id
_symmetry_equiv_pos_as_xyz
1 x,y,z
2 -x,1/2+y,1/2-z
3 -x,-y,-z
4 x,1/2-y,1/2+z
_cell_length_a                   12.1170(16)
_cell_length_b                   18.247(2)
_cell_length_c                   21.183(3)
_cell_angle_alpha                90
_cell_angle_beta                 97.541(3)
_cell_angle_gamma                90
_cell_volume                     4643.03
loop_
_atom_site_label
_atom_site_type_symbol
_atom_site_fract_x
_atom_site_fract_y
_atom_site_fract_z
O1 O 0.2624(2) 0.32145(13) -0.19117(12)
O2 O 0.4404(2) 0.29221(16) -0.16039(13)
C1 C 0.3431(4) 0.3019(2) -0.15000(19)
N1 N 0.2561(2) 0.16756(16) -0.22908(15)
C2 C 0.2035(3) 0.1398(2) -0.18055(19)
H1 H 0.1311 0.1512 -0.1738
C3 C 0.2712(3) 0.0941(2) -0.1443(2)
H2 H 0.2549 0.0688 -0.1085
C4 C 0.3554(3) 0.1368(2) -0.22046(18)
H3 H 0.4103 0.1452 -0.2464
N2 N 0.3682(2) 0.09173(16) -0.16976(15)
C5 C 0.4639(3) 0.0487(2) -0.14624(19)
C6 C 0.4530(4) -0.0085(3) -0.1064(2)
H4 H 0.3829 -0.0208 -0.0964
C7 C 0.5652(3) 0.0627(2) -0.1628(2)
H5 H 0.5738 0.1003 -0.1914
Mn1 Mn 0.19191(5) 0.27197(3) -0.27737(3)
O5 O 0.3255(2) 0.23720(14) 0.15280(12)
O6 O 0.1496(2) 0.25629(13) 0.11905(12)
C17 C 0.3170(3) 0.28890(19) -0.08300(17)
N5 N 1.0140(2) 0.03635(16) 0.14052(15)
N6 N 1.1151(3) 0.11928(17) 0.19786(15)
O9 O 0.7377(2) -0.07319(14) -0.06876(12)
C20 C 0.2749(3) 0.26418(19) 0.04238(17)
C21 C 0.2493(3) 0.25176(19) 0.10885(18)
C24 C 0.9403(3) 0.0075(2) 0.08788(18)
C25 C 0.8022(3) -0.0438(2) -0.01615(18)
C26 C 0.2136(3) 0.30406(19) -0.06528(17)
H16 H 0.1573 0.3225 -0.0951
C27 C 0.1935(3) 0.29196(19) -0.00313(18)
H17 H 0.1236 0.3028 0.0082
C28 C 0.9571(3) -0.0621(2) 0.06470(18)
H18 H 1.0151 -0.0913 0.0837
C30 C 0.3984(3) 0.2615(2) -0.03742(18)
H20 H 0.4687 0.2516 -0.0485
C32 C 0.7851(3) 0.02510(19) 0.00804(18)
H21 H 0.7277 0.0546 -0.0111
C34 C 0.8863(3) -0.0872(2) 0.01315(18)
H22 H 0.8956 -0.1342 -0.0021
C36 C 1.0522(3) 0.1058(2) 0.14423(19)
H23 H 1.0356 0.1403 0.1121
C37 C 1.1173(3) 0.0548(2) 0.23033(19)
H24 H 1.1553 0.0471 0.2708
C38 C 0.6453(3) -0.0324(2) -0.09549(19)
C41 C 1.0560(3) 0.0035(2) 0.1952(2)
H27 H 1.0452 -0.0450 0.2067
C45 C 0.8539(3) 0.04970(19) 0.06060(18)
H31 H 0.8414 0.0954 0.0777
C48 C 0.3783(3) 0.24835(19) 0.02391(19)
H34 H 0.4343 0.2287 0.0533
C49 C 0.6571(3) 0.0218(3) -0.1376(2)
H35 H 0.7266 0.0316 -0.1498
C52 C 0.5447(4) -0.0487(3) -0.0805(2)
H38 H 0.5361 -0.0870 -0.0527
O12 O 0.02458(19) 0.22957(13) -0.27052(12)
H39 H 0.0082 0.2379 -0.2334
H40 H -0.0220 0.2511 -0.2979
Mn1C Mn 1.19191(5) 0.22803(3) 0.22263(3)
Mn1C_2 Mn 0.19191(5) 0.22803(3) 0.22263(3)
O5C O 0.3255(2) 0.26280(14) -0.34720(12)
O6C O 0.1496(2) 0.24371(13) -0.38095(12)
N6C N 0.1151(3) 0.38072(17) -0.30214(15)
O3 O -0.1753(2) 0.25211(13) 0.14928(11)
O4 O -0.3452(2) 0.21429(14) 0.11698(12)
C8 C -0.2488(3) 0.23280(19) 0.10560(18)
C9 C -0.2252(3) 0.22933(18) 0.03792(17)
C10 C -0.3102(3) 0.21171(19) -0.00969(18)
H6 H -0.3813 0.2030 0.0007
N3 N -0.2455(3) 0.35990(18) -0.24271(16)
C11 C -0.3037(4) 0.4241(2) -0.2479(2)
H7 H -0.3736 0.4303 -0.2714
C12 C -0.1537(3) 0.3766(2) -0.2057(2)
H8 H -0.0971 0.3431 -0.1936
C13 C -0.2456(4) 0.4767(2) -0.2144(2)
H9 H -0.2675 0.5252 -0.2107
N4 N -0.1498(3) 0.44655(18) -0.18722(16)
C14 C -0.0622(3) 0.4811(2) -0.14532(19)
C15 C -0.0282(3) 0.5506(2) -0.15800(19)
H10 H -0.0639 0.5764 -0.1927
C16 C -0.0123(3) 0.4443(2) -0.0934(2)
H11 H -0.0373 0.3977 -0.0844
Mn2 Mn -0.31069(5) 0.25213(3) -0.28206(3)
O7 O -0.2438(2) 0.19996(14) -0.19803(12)
O8 O -0.47652(19) 0.28555(14) -0.26804(12)
H12 H -0.5010 0.2569 -0.2414
H13 H -0.5185 0.2832 -0.3034
C18 C -0.1849(3) 0.21631(18) -0.08798(17)
C19 C -0.0991(3) 0.23385(18) -0.04020(17)
H14 H -0.0274 0.2406 -0.0504
N7 N 0.5356(3) 0.44967(17) 0.13086(15)
C22 C -0.1617(4) 0.2067(2) -0.15558(19)
C23 C -0.2912(3) 0.20684(19) -0.07213(18)
H15 H -0.3501 0.1972 -0.1038
O10 O 0.1954(2) 0.58202(14) -0.03140(14)
C29 C -0.1188(3) 0.24135(17) 0.02208(17)
H19 H -0.0611 0.2544 0.0534
O11 O -0.0619(2) 0.20661(15) -0.16456(12)
N8 N 0.6316(3) 0.36009(17) 0.18310(15)
C31 C 0.4505(3) 0.4841(2) 0.08786(19)
C33 C 0.2794(3) 0.5465(2) 0.0070(2)
C35 C 0.1119(3) 0.5446(2) -0.0684(2)
C39 C 0.4119(3) 0.5534(2) 0.1006(2)
H25 H 0.4437 0.5790 0.1364
C40 C 0.0755(3) 0.4756(2) -0.0538(2)
H26 H 0.1092 0.4506 -0.0181
C42 C 0.0593(3) 0.5822(2) -0.1191(2)
H28 H 0.0823 0.6294 -0.1275
C43 C 0.4076(3) 0.4484(2) 0.0335(2)
H29 H 0.4362 0.4030 0.0240
C44 C 0.5445(3) 0.3771(2) 0.14232(19)
H30 H 0.4941 0.3428 0.1233
C46 C 0.3262(3) 0.5840(2) 0.0599(2)
H32 H 0.3000 0.6304 0.0684
C47 C 0.6821(3) 0.4261(2) 0.19849(19)
H33 H 0.7473 0.4322 0.2265
C50 C 0.6233(3) 0.4810(2) 0.1671(2)
H36 H 0.6400 0.5307 0.1699
C51 C 0.3224(3) 0.4791(2) -0.0073(2)
H37 H 0.2937 0.4547 -0.0443
O3C O -0.1753(2) 0.24789(13) -0.35072(11)
O4C O -0.3452(2) 0.28571(14) -0.38302(12)
Mn2C Mn 0.68931(5) 0.24787(3) 0.21794(3)
Mn2C_2 Mn -0.31069(5) 0.24787(3) 0.21794(3)
N8C N -0.3684(3) 0.13991(17) -0.31690(15)
loop_
_geom_bond_atom_site_label_1
_geom_bond_atom_site_label_2
_geom_bond_site_symmetry_1
_geom_bond_site_symmetry_2
O1 C1 1_555 1_555
O2 C1 1_555 1_555
C1 C17 1_555 1_555
N1 C2 1_555 1_555
C2 H1 1_555 1_555
C3 C2 1_555 1_555
H2 C3 1_555 1_555
C4 N1 1_555 1_555
H3 C4 1_555 1_555
N2 C3 1_555 1_555
C5 N2 1_555 1_555
C6 C5 1_555 1_555
H4 C6 1_555 1_555
C7 C5 1_555 1_555
H5 C7 1_555 1_555
O3 C8 1_555 1_555
O4 C8 1_555 1_555
C8 C9 1_555 1_555
C9 C10 1_555 1_555
C10 H6 1_555 1_555
N3 C11 1_555 1_555
C11 H7 1_555 1_555
C12 N3 1_555 1_555
H8 C12 1_555 1_555
C13 C11 1_555 1_555
H9 C13 1_555 1_555
N4 C12 1_555 1_555
C14 N4 1_555 1_555
C15 C14 1_555 1_555
H10 C15 1_555 1_555
C16 C14 1_555 1_555
H11 C16 1_555 1_555
Mn1 O1 1_555 1_555
Mn2 N3 1_555 1_555
O5 C21 1_555 1_555
O6 C21 1_555 1_555
O7 Mn2 1_555 1_555
O8 Mn2 1_555 1_555
H12 O8 1_555 1_555
H13 O8 1_555 1_555
C17 C26 1_555 1_555
N5 C24 1_555 1_555
C18 C19 1_555 1_555
C19 H14 1_555 1_555
N6 C36 1_555 1_555
O9 C25 1_555 1_555
C20 C21 1_555 1_555
N7 C31 1_555 1_555
C22 O7 1_555 1_555
C23 C10 1_555 1_555
H15 C23 1_555 1_555
C24 C28 1_555 1_555
C25 C32 1_555 1_555
C26 H16 1_555 1_555
O10 C33 1_555 1_555
C27 C20 1_555 1_555
H17 C27 1_555 1_555
C28 H18 1_555 1_555
C29 C9 1_555 1_555
H19 C29 1_555 1_555
O11 C22 1_555 1_555
N8 C44 1_555 1_555
C30 C17 1_555 1_555
H20 C30 1_555 1_555
C31 C39 1_555 1_555
C32 H21 1_555 1_555
C33 C46 1_555 1_555
C34 C25 1_555 1_555
H22 C34 1_555 1_555
C35 O10 1_555 1_555
C36 N5 1_555 1_555
H23 C36 1_555 1_555
C37 N6 1_555 1_555
H24 C37 1_555 1_555
C38 O9 1_555 1_555
C39 H25 1_555 1_555
C40 C16 1_555 1_555
H26 C40 1_555 1_555
C41 N5 1_555 1_555
H27 C41 1_555 1_555
C42 C15 1_555 1_555
H28 C42 1_555 1_555
C43 C31 1_555 1_555
H29 C43 1_555 1_555
C44 N7 1_555 1_555
H30 C44 1_555 1_555
C45 C24 1_555 1_555
H31 C45 1_555 1_555
C46 C39 1_555 1_555
H32 C46 1_555 1_555
C47 N8 1_555 1_555
H33 C47 1_555 1_555
C48 C20 1_555 1_555
H34 C48 1_555 1_555
C49 C7 1_555 1_555
H35 C49 1_555 1_555
C50 N7 1_555 1_555
H36 C50 1_555 1_555
C51 C33 1_555 1_555
H37 C51 1_555 1_555
C52 C6 1_555 1_555
H38 C52 1_555 1_555
O12 Mn1 1_555 1_555
H39 O12 1_555 1_555
H40 O12 1_555 1_555
O3C Mn2 1_555 1_555
O4C Mn2 1_555 1_555
Mn1C N6 1_555 1_555
Mn1C_2 O5 1_555 1_555
Mn2C N8 1_555 1_555
Mn2C_2 O3 1_555 1_555
O5C Mn1 1_555 1_555
O6C Mn1 1_555 1_555
N6C Mn1 1_555 1_555
N8C Mn2 1_555 1_555
N1 Mn1 1_555 1_555
C4 N2 1_555 1_555
O4 Mn2C_2 1_555 1_555
C13 N4 1_555 1_555
O6 Mn1C_2 1_555 1_555
C18 C22 1_555 1_555
C18 C23 1_555 1_555
C19 C29 1_555 1_555
C26 C27 1_555 1_555
C28 C34 1_555 1_555
C30 C48 1_555 1_555
C32 C45 1_555 1_555
C35 C40 1_555 1_555
C35 C42 1_555 1_555
C37 C41 1_555 1_555
C38 C49 1_555 1_555
C38 C52 1_555 1_555
C43 C51 1_555 1_555
C47 C50 1_555 1_555

#END
