
#######################################################################
#
#                 Cambridge Crystallographic Data Centre
#                                CCDC 
#
#######################################################################
#
# If this CIF has been generated from an entry in the Cambridge 
# Structural Database, then it will include bibliographic, chemical, 
# crystal, experimental, refinement or atomic coordinate data resulting 
# from the CCDC's data processing and validation procedures.
#
#######################################################################

data_OKIQIJ
_symmetry_cell_setting           monoclinic
_symmetry_space_group_name_H-M   'P 21/n'
_symmetry_Int_Tables_number      14
_space_group_name_Hall           '-P 2yn'
loop_
_symmetry_equiv_pos_site_id
_symmetry_equiv_pos_as_xyz
1 x,y,z
2 1/2-x,1/2+y,1/2-z
3 -x,-y,-z
4 1/2+x,1/2-y,1/2+z
_cell_length_a                   6.3784(9)
_cell_length_b                   17.552(3)
_cell_length_c                   22.179(3)
_cell_angle_alpha                90
_cell_angle_beta                 93.715(3)
_cell_angle_gamma                90
_cell_volume                     2477.8
loop_
_atom_site_label
_atom_site_type_symbol
_atom_site_fract_x
_atom_site_fract_y
_atom_site_fract_z
C1 C 0.2741(6) 0.2503(2) 0.84608(14)
C2 C 0.2758(5) 0.2585(2) 0.77819(14)
C3 C 0.0928(6) 0.2494(2) 0.74193(14)
H1 H -0.0319 0.2378 0.7594
C4 C 0.0937(6) 0.2574(2) 0.68014(14)
H2 H -0.0316 0.2533 0.6565
C5 C 0.2785(5) 0.2713(2) 0.65287(14)
C6 C 0.4597(6) 0.2807(2) 0.68893(14)
H3 H 0.5850 0.2913 0.6714
C7 C 0.4582(6) 0.2746(2) 0.75098(14)
H4 H 0.5824 0.2815 0.7747
C8 C 0.2814(6) 0.2735(2) 0.58445(15)
C9 C 0.2591(6) 0.3764(2) 0.39242(16)
H5 H 0.2739 0.3416 0.3614
C10 C 0.1667(6) 0.4283(2) 0.47321(17)
H6 H 0.1031 0.4362 0.5093
C11 C 0.2875(7) 0.4795(2) 0.44661(16)
H7 H 0.3246 0.5279 0.4608
C12 C 0.4911(6) 0.4751(2) 0.35346(16)
C13 C 0.6855(7) 0.4959(3) 0.37494(18)
H8 H 0.7230 0.4913 0.4160
C14 C 0.8291(7) 0.5237(3) 0.33671(19)
H9 H 0.9623 0.5386 0.3518
C15 C 0.7743(7) 0.5291(2) 0.27761(19)
C16 C 0.5829(8) 0.5076(3) 0.25525(18)
H10 H 0.5477 0.5110 0.2140
C17 C 0.4379(7) 0.4802(3) 0.29365(17)
H11 H 0.3049 0.4654 0.2784
C18 C 0.9903(6) 0.5244(2) 0.19275(17)
C19 C 1.0976(6) 0.5697(2) 0.15500(16)
H12 H 1.1108 0.6217 0.1621
C20 C 1.1863(6) 0.5365(2) 0.10596(17)
H13 H 1.2581 0.5665 0.0795
C21 C 1.1682(6) 0.4599(2) 0.09642(16)
C22 C 1.0600(6) 0.4155(2) 0.13480(17)
H14 H 1.0461 0.3635 0.1276
C23 C 0.9715(7) 0.4476(2) 0.18421(17)
H15 H 0.9010 0.4176 0.2109
C24 C 1.3327(6) 0.3557(2) 0.04200(16)
H16 H 1.3463 0.3229 0.0750
C25 C 1.3397(6) 0.4008(2) -0.04607(17)
H17 H 1.3595 0.4052 -0.0871
C26 C 1.2587(6) 0.4553(2) -0.01255(16)
H18 H 1.2146 0.5035 -0.0253
N1 N 0.1510(5) 0.36352(18) 0.44000(12)
N2 N 0.3447(5) 0.44588(19) 0.39423(13)
N3 N 1.3897(5) 0.33739(18) -0.01200(12)
N4 N 1.2540(5) 0.42522(19) 0.04480(13)
Ni1 Ni 0.02313(7) 0.26306(3) 0.464598(18)
O1 O 0.1036(4) 0.23622(16) 0.86829(10)
O2 O 0.4485(4) 0.25778(15) 0.87495(9)
O3 O 0.3118(4) 0.20591(13) 0.45436(10)
H19 H 0.4009 0.2376 0.4423
H20 H 0.3565 0.1875 0.4882
O4 O 0.1059(4) 0.28126(14) 0.55556(9)
O5 O 0.4558(4) 0.26550(17) 0.56236(10)
O6 O 0.9192(5) 0.56315(16) 0.24167(12)
O7 O -0.2586(4) 0.32335(14) 0.47745(10)
H21 H -0.3118 0.3184 0.5114
H22 H -0.3482 0.3264 0.4475
N3C N -0.1103(5) 0.16261(18) 0.48800(12)
Ni1C Ni 1.52313(7) 0.23694(3) -0.035402(18)
Ni1C_2 Ni 0.52313(7) 0.23694(3) 0.964598(18)
O2C O -0.0515(4) 0.24222(15) 0.37495(9)
loop_
_geom_bond_atom_site_label_1
_geom_bond_atom_site_label_2
_geom_bond_site_symmetry_1
_geom_bond_site_symmetry_2
C1 C2 1_555 1_555
C2 C3 1_555 1_555
C3 H1 1_555 1_555
C4 C3 1_555 1_555
H2 C4 1_555 1_555
C5 C4 1_555 1_555
C6 C5 1_555 1_555
H3 C6 1_555 1_555
C7 C2 1_555 1_555
H4 C7 1_555 1_555
C8 C5 1_555 1_555
C9 H5 1_555 1_555
C10 H6 1_555 1_555
C11 C10 1_555 1_555
H7 C11 1_555 1_555
C12 C13 1_555 1_555
C13 H8 1_555 1_555
C14 C13 1_555 1_555
H9 C14 1_555 1_555
C15 C14 1_555 1_555
C16 C15 1_555 1_555
H10 C16 1_555 1_555
C17 C12 1_555 1_555
H11 C17 1_555 1_555
C18 C19 1_555 1_555
C19 H12 1_555 1_555
C20 C19 1_555 1_555
H13 C20 1_555 1_555
C21 C20 1_555 1_555
C22 C21 1_555 1_555
H14 C22 1_555 1_555
C23 C18 1_555 1_555
H15 C23 1_555 1_555
C24 H16 1_555 1_555
C25 H17 1_555 1_555
C26 C25 1_555 1_555
H18 C26 1_555 1_555
N1 C9 1_555 1_555
N2 C9 1_555 1_555
N3 C24 1_555 1_555
N4 C21 1_555 1_555
Ni1 N1 1_555 1_555
O1 C1 1_555 1_555
O2 C1 1_555 1_555
O3 Ni1 1_555 1_555
H19 O3 1_555 1_555
H20 O3 1_555 1_555
O4 C8 1_555 1_555
O5 C8 1_555 1_555
O6 C15 1_555 1_555
O7 Ni1 1_555 1_555
H21 O7 1_555 1_555
H22 O7 1_555 1_555
N3C Ni1 1_555 1_555
Ni1C N3 1_555 1_555
Ni1C_2 O2 1_555 1_555
O2C Ni1 1_555 1_555
C6 C7 1_555 1_555
C10 N1 1_555 1_555
C11 N2 1_555 1_555
C12 N2 1_555 1_555
C16 C17 1_555 1_555
C18 O6 1_555 1_555
C22 C23 1_555 1_555
C24 N4 1_555 1_555
C25 N3 1_555 1_555
C26 N4 1_555 1_555
Ni1 O4 1_555 1_555

#END
