
#######################################################################
#
#                 Cambridge Crystallographic Data Centre
#                                CCDC 
#
#######################################################################
#
# If this CIF has been generated from an entry in the Cambridge 
# Structural Database, then it will include bibliographic, chemical, 
# crystal, experimental, refinement or atomic coordinate data resulting 
# from the CCDC's data processing and validation procedures.
#
#######################################################################

data_OKIRIK
_symmetry_cell_setting           triclinic
_symmetry_space_group_name_H-M   'P -1'
_symmetry_Int_Tables_number      2
_space_group_name_Hall           '-P 1'
loop_
_symmetry_equiv_pos_site_id
_symmetry_equiv_pos_as_xyz
1 x,y,z
2 -x,-y,-z
_cell_length_a                   7.6202(14)
_cell_length_b                   12.079(2)
_cell_length_c                   13.207(2)
_cell_angle_alpha                73.250(3)
_cell_angle_beta                 85.746(4)
_cell_angle_gamma                74.538(4)
_cell_volume                     1121.92
loop_
_atom_site_label
_atom_site_type_symbol
_atom_site_fract_x
_atom_site_fract_y
_atom_site_fract_z
Ag1 Ag 0.31530(7) 0.23648(5) 0.11039(4)
S1 S 0.1094(2) 0.33793(14) -0.04910(12)
O1 O 0.1758(7) 0.2188(5) 0.2910(4)
O2 O 0.1641(10) 0.0726(5) 0.2282(4)
N1 N 0.5254(7) 0.6316(5) -0.1382(4)
N2 N 0.4193(7) -0.0814(5) -0.1081(4)
C1 C 0.3439(9) 0.6589(6) -0.1454(5)
H1 H 0.2789 0.7352 -0.1434
C2 C 0.2475(9) 0.5822(6) -0.1557(5)
H2 H 0.1213 0.6069 -0.1619
C3 C 0.3404(8) 0.4671(5) -0.1567(4)
C4 C 0.5276(9) 0.4385(6) -0.1505(5)
H3 H 0.5958 0.3630 -0.1530
C5 C 0.6135(9) 0.5215(7) -0.1407(6)
H4 H 0.7398 0.4995 -0.1356
C6 C 0.2443(9) 0.3776(6) -0.1674(5)
H5 H 0.1656 0.4114 -0.2291
H6 H 0.3327 0.3067 -0.1763
C7 C 0.0102(8) 0.2323(6) -0.0834(6)
H7 H -0.0546 0.2713 -0.1501
H8 H -0.0777 0.2097 -0.0297
C8 C 0.1491(8) 0.1214(6) -0.0931(5)
C9 C 0.2216(9) 0.1078(6) -0.1899(5)
H9 H 0.1798 0.1669 -0.2520
C10 C 0.3544(10) 0.0073(6) -0.1936(6)
H10 H 0.4017 0.0007 -0.2592
C11 C 0.3458(9) -0.0692(6) -0.0146(5)
H11 H 0.3870 -0.1307 0.0462
C12 C 0.2138(8) 0.0290(6) -0.0046(5)
H12 H 0.1679 0.0333 0.0618
C13 C 0.1408(10) 0.1219(7) 0.3002(6)
C14 C 0.0663(8) 0.0586(6) 0.4050(5)
C15 C 0.0733(9) 0.0943(6) 0.4946(5)
H13 H 0.1231 0.1576 0.4914
C16 C -0.0062(10) -0.0358(6) 0.4114(5)
H14 H -0.0102 -0.0605 0.3513
Ag1A Ag 0.68470(7) 0.76352(5) -0.11039(4)
Ag1A_2 Ag 0.68470(7) -0.23648(5) -0.11039(4)
Ag1A_3 Ag -0.31530(7) -0.23648(5) 0.88961(4)
Ag1_2 Ag 0.31530(7) 1.23648(5) 0.11039(4)
S1A S 0.8906(2) 0.66207(14) 0.04910(12)
O1A O -0.1758(7) -0.2188(5) 0.7090(4)
O1A_2 O 0.8242(7) 0.7812(5) -0.2910(4)
O2A O -0.1641(10) -0.0726(5) 0.7718(4)
N1A N 0.4746(7) 0.3684(5) 0.1382(4)
N2A N 0.5807(7) 1.0814(5) 0.1081(4)
N2A_2 N 0.5807(7) 0.0814(5) 0.1081(4)
N2_2 N 0.4193(7) 0.9186(5) -0.1081(4)
C1A C 0.6561(9) 0.3411(6) 0.1454(5)
H1A H 0.7211 0.2648 0.1434
C2A C 0.7525(9) 0.4178(6) 0.1557(5)
H2A H 0.8787 0.3931 0.1619
C3A C 0.6596(8) 0.5329(5) 0.1567(4)
C4A C 0.4724(9) 0.5615(6) 0.1505(5)
H3A H 0.4042 0.6370 0.1530
C5A C 0.3865(9) 0.4785(7) 0.1407(6)
H4A H 0.2602 0.5005 0.1356
C6A C 0.7557(9) 0.6224(6) 0.1674(5)
H5A H 0.8344 0.5886 0.2291
H6A H 0.6673 0.6933 0.1763
C7A C 0.9898(8) 0.7677(6) 0.0834(6)
H7A H 1.0546 0.7287 0.1501
H8A H 1.0777 0.7903 0.0297
C8A C 0.8509(8) 0.8786(6) 0.0931(5)
C9A C 0.7784(9) 0.8922(6) 0.1899(5)
H9A H 0.8202 0.8331 0.2520
C10A C 0.6456(10) 0.9927(6) 0.1936(6)
H10A H 0.5983 0.9993 0.2592
C11A C 0.6542(9) 1.0692(6) 0.0146(5)
H11A H 0.6130 1.1307 -0.0462
C12A C 0.7862(8) 0.9710(6) 0.0046(5)
H12A H 0.8321 0.9667 -0.0618
C13A C -0.1408(10) -0.1219(7) 0.6998(6)
C14A C -0.0663(8) -0.0586(6) 0.5950(5)
C15A C -0.0733(9) -0.0943(6) 0.5054(5)
H13A H -0.1231 -0.1576 0.5086
C16A C 0.0062(10) 0.0358(6) 0.5886(5)
H14A H 0.0102 0.0605 0.6487
S2 S 0.4716(4) 0.6487(2) 0.5569(2)
O3 O 0.2962(10) 0.6426(8) 0.5195(8)
C17 C 0.4360(13) 0.7949(8) 0.5676(8)
H15 H 0.3544 0.8051 0.6251
H16 H 0.3840 0.8514 0.5030
H17 H 0.5502 0.8078 0.5806
C18 C 0.6168(15) 0.6618(9) 0.4514(7)
H18 H 0.6527 0.5876 0.4331
H19 H 0.7226 0.6807 0.4698
H20 H 0.5564 0.7243 0.3922
O4 O 0.0274(8) 0.4154(5) 0.3651(4)
H21 H 0.0786 0.3542 0.3439
H22 H -0.0578 0.4003 0.4088
O5 O 0.0986(10) 0.6410(6) 0.3544(5)
H23 H 0.0683 0.5760 0.3692
H24 H 0.1631 0.6433 0.4035
O6 O 0.3135(8) 0.8237(5) 0.2405(4)
H25 H 0.2998 0.7744 0.2958
H26 H 0.2750 0.8957 0.2409
loop_
_geom_bond_atom_site_label_1
_geom_bond_atom_site_label_2
_geom_bond_site_symmetry_1
_geom_bond_site_symmetry_2
Ag1 S1 1_555 1_555
S1 C6 1_555 1_555
O1 Ag1 1_555 1_555
O2 C13 1_555 1_555
N1 C1 1_555 1_555
N2 C10 1_555 1_555
C1 H1 1_555 1_555
C2 C1 1_555 1_555
H2 C2 1_555 1_555
C3 C2 1_555 1_555
C4 C3 1_555 1_555
H3 C4 1_555 1_555
C5 N1 1_555 1_555
H4 C5 1_555 1_555
C6 C3 1_555 1_555
H5 C6 1_555 1_555
H6 C6 1_555 1_555
C7 S1 1_555 1_555
H7 C7 1_555 1_555
H8 C7 1_555 1_555
C8 C7 1_555 1_555
C9 C8 1_555 1_555
H9 C9 1_555 1_555
C10 C9 1_555 1_555
H10 C10 1_555 1_555
C11 N2 1_555 1_555
H11 C11 1_555 1_555
C12 C8 1_555 1_555
H12 C12 1_555 1_555
C13 O1 1_555 1_555
C14 C13 1_555 1_555
C15 C14 1_555 1_555
H13 C15 1_555 1_555
C16 C14 1_555 1_555
H14 C16 1_555 1_555
S2 O3 1_555 1_555
C17 S2 1_555 1_555
H15 C17 1_555 1_555
H16 C17 1_555 1_555
H17 C17 1_555 1_555
C18 S2 1_555 1_555
H18 C18 1_555 1_555
H19 C18 1_555 1_555
H20 C18 1_555 1_555
O4 H21 1_555 1_555
H22 O4 1_555 1_555
O5 H23 1_555 1_555
H24 O5 1_555 1_555
O6 H25 1_555 1_555
H26 O6 1_555 1_555
Ag1A N1 1_555 1_555
Ag1A_2 N2 1_555 1_555
Ag1A_3 O1A 1_555 1_555
Ag1_2 N2A 1_555 1_555
S1A Ag1A 1_555 1_555
O1A C13A 1_555 1_555
O1A_2 Ag1A 1_555 1_555
O2A C13A 1_555 1_555
N1A Ag1 1_555 1_555
N2A C10A 1_555 1_555
N2A_2 Ag1 1_555 1_555
N2_2 Ag1A 1_555 1_555
C1A N1A 1_555 1_555
H1A C1A 1_555 1_555
C2A C1A 1_555 1_555
H2A C2A 1_555 1_555
C3A C2A 1_555 1_555
C4A C3A 1_555 1_555
H3A C4A 1_555 1_555
C5A N1A 1_555 1_555
H4A C5A 1_555 1_555
C6A S1A 1_555 1_555
H5A C6A 1_555 1_555
H6A C6A 1_555 1_555
C7A S1A 1_555 1_555
H7A C7A 1_555 1_555
H8A C7A 1_555 1_555
C8A C7A 1_555 1_555
C9A C8A 1_555 1_555
H9A C9A 1_555 1_555
C10A C9A 1_555 1_555
H10A C10A 1_555 1_555
C11A N2A 1_555 1_555
H11A C11A 1_555 1_555
C12A C8A 1_555 1_555
H12A C12A 1_555 1_555
C13A C14A 1_555 1_555
C14A C15A 1_555 1_555
C15A C16 1_555 1_555
H13A C15A 1_555 1_555
C16A C15 1_555 1_555
H14A C16A 1_555 1_555
C4 C5 1_555 1_555
C11 C12 1_555 1_555
C3A C6A 1_555 1_555
C4A C5A 1_555 1_555
C11A C12A 1_555 1_555
C14A C16A 1_555 1_555

#END
