
#######################################################################
#
#                 Cambridge Crystallographic Data Centre
#                                CCDC 
#
#######################################################################
#
# If this CIF has been generated from an entry in the Cambridge 
# Structural Database, then it will include bibliographic, chemical, 
# crystal, experimental, refinement or atomic coordinate data resulting 
# from the CCDC's data processing and validation procedures.
#
#######################################################################

data_OKISAD
_symmetry_cell_setting           triclinic
_symmetry_space_group_name_H-M   'P -1'
_symmetry_Int_Tables_number      2
_space_group_name_Hall           '-P 1'
loop_
_symmetry_equiv_pos_site_id
_symmetry_equiv_pos_as_xyz
1 x,y,z
2 -x,-y,-z
_cell_length_a                   6.8147(10)
_cell_length_b                   10.3938(15)
_cell_length_c                   14.487(2)
_cell_angle_alpha                106.352(2)
_cell_angle_beta                 97.049(2)
_cell_angle_gamma                107.237(2)
_cell_volume                     916.296
loop_
_atom_site_label
_atom_site_type_symbol
_atom_site_fract_x
_atom_site_fract_y
_atom_site_fract_z
Cd1 Cd -1.0000 -0.5000 -0.5000
Cd2 Cd -0.26655(5) -0.08184(4) -0.39206(3)
S1 S -0.80221(18) -0.12456(12) -0.44290(8)
S2 S -0.23454(19) -0.38058(12) -0.31942(9)
O1 O -0.9579(5) -0.2698(3) -0.4901(2)
O2 O -0.7753(6) -0.4431(4) -0.3526(3)
O3 O -1.7431(5) -0.5006(3) -0.5891(2)
O4 O -0.7397(5) -0.0691(4) -0.5214(2)
O5 O -0.3661(6) -0.2583(4) -0.5450(3)
O6 O -0.3375(6) -0.2857(4) -0.3471(3)
O7 O -0.6169(5) -0.1249(4) -0.3803(3)
O8 O -0.9016(5) -0.0344(3) -0.3804(2)
O9 O -0.3433(7) -0.4353(4) -0.2517(3)
O10 O -0.0130(6) -0.3007(5) -0.2756(3)
N7 N -0.1636(6) 0.0922(4) -0.2365(3)
N8 N -0.1211(6) 0.1496(4) -0.0610(3)
N9 N -0.3323(6) -0.0717(4) -0.1661(3)
H7 H -0.3604 -0.0947 -0.1154
H8 H -0.3880 -0.1330 -0.2244
N10 N -0.0037(7) 0.2744(4) -0.2929(3)
H9 H 0.0751 0.3609 -0.2829
H10 H -0.0600 0.2163 -0.3522
C4 C -0.2024(7) 0.0592(5) -0.1542(4)
C5 C -0.0382(7) 0.2304(5) -0.2170(3)
C6 C 0.0081(8) 0.2809(5) -0.0513(4)
N11 N 0.0546(6) 0.3265(4) -0.1264(3)
N12 N 0.0961(7) 0.3713(4) 0.0392(3)
H11 H 0.1801 0.4562 0.0484
H12 H 0.0695 0.3454 0.0891
H13 H -0.639(5) -0.379(6) -0.347(5)
H14 H -0.824(10) -0.377(5) -0.311(4)
H15 H -0.243(6) -0.282(7) -0.537(5)
H16 H -0.493(6) -0.332(5) -0.550(5)
Cd1_2 Cd -2.0000 -0.5000 -0.5000
Cd1_3 Cd 0.0000 -0.5000 -0.5000
Cd2_2 Cd -1.26655(5) -0.08184(4) -0.39206(3)
Cd2A Cd -0.73345(5) 0.08184(4) -0.60794(3)
Cd2_3 Cd -1.26655(5) -1.08184(4) -0.39206(3)
Cd2A_2 Cd -1.73345(5) -0.91816(4) -0.60794(3)
Cd2A_3 Cd -0.73345(5) -0.91816(4) -0.60794(3)
S1A S -1.19779(18) -0.87544(12) -0.55710(8)
S2A S -1.76546(19) -0.61942(12) -0.68058(9)
O1A O -1.0421(5) -0.7302(3) -0.5099(2)
O2A O -1.2247(6) -0.5569(4) -0.6474(3)
O3_2 O -0.7431(5) -0.5006(3) -0.5891(2)
O3A O -1.2569(5) -0.4994(3) -0.4109(2)
O3A_2 O -0.2569(5) -0.4994(3) -0.4109(2)
O4A O -0.2603(5) 0.0691(4) -0.4786(2)
O4A_2 O -1.2603(5) -0.9309(4) -0.4786(2)
O4_2 O -1.7397(5) -1.0691(4) -0.5214(2)
O5A O -1.6339(6) -0.7417(4) -0.4550(3)
O6A O -1.6625(6) -0.7143(4) -0.6529(3)
O7A O -1.3831(5) -0.8751(4) -0.6197(3)
O8_2 O 0.0984(5) -0.0344(3) -0.3804(2)
O8A O -1.0984(5) -0.9656(3) -0.6196(2)
O8A_2 O -2.0984(5) -0.9656(3) -0.6196(2)
O9A O -1.6567(7) -0.5647(4) -0.7483(3)
O10A O -1.9870(6) -0.6993(5) -0.7244(3)
N7A N -1.8364(6) -1.0922(4) -0.7635(3)
N8A N -1.8789(6) -1.1496(4) -0.9390(3)
N9A N -1.6677(6) -0.9283(4) -0.8339(3)
H7A H -1.6396 -0.9053 -0.8846
H8A H -1.6120 -0.8670 -0.7756
N10A N -1.9963(7) -1.2744(4) -0.7071(3)
H9A H -2.0751 -1.3609 -0.7171
H10A H -1.9400 -1.2163 -0.6478
C4A C -1.7976(7) -1.0592(5) -0.8458(4)
C5A C -1.9618(7) -1.2304(5) -0.7830(3)
C6A C -2.0081(8) -1.2809(5) -0.9487(4)
N11A N -2.0546(6) -1.3265(4) -0.8736(3)
N12A N -2.0961(7) -1.3713(4) -1.0392(3)
H11A H -2.1801 -1.4562 -1.0484
H12A H -2.0695 -1.3454 -1.0891
H13A H -1.361(5) -0.621(6) -0.653(5)
H14A H -1.176(10) -0.623(5) -0.689(4)
H15A H -1.757(6) -0.718(7) -0.463(5)
H16A H -1.507(6) -0.668(5) -0.450(5)
N1 N -0.3994(6) -0.1633(4) 0.0066(3)
N2 N -0.5728(6) -0.3403(4) 0.0755(3)
N3 N -0.3435(7) -0.1120(4) 0.1772(3)
N4 N -0.1881(7) 0.0589(4) 0.1105(3)
H1 H -0.1646 0.0851 0.0604
H2 H -0.1309 0.1183 0.1693
N5 N -0.6171(7) -0.3878(4) -0.0903(3)
H3 H -0.6992 -0.4727 -0.0981
H4 H -0.5930 -0.3633 -0.1409
C1 C -0.3114(7) -0.0720(5) 0.0970(4)
C2 C -0.5287(7) -0.2955(5) -0.0009(4)
N6 N -0.4975(7) -0.2804(5) 0.2454(3)
H5 H -0.5783 -0.3644 0.2403
H6 H -0.4322 -0.2185 0.3027
C3 C -0.4732(7) -0.2461(5) 0.1645(4)
H17 H -0.279(8) -0.058(5) 0.233(4)
loop_
_geom_bond_atom_site_label_1
_geom_bond_atom_site_label_2
_geom_bond_site_symmetry_1
_geom_bond_site_symmetry_2
Cd1 O1 1_555 1_555
Cd2 O5 1_555 1_555
S1 O1 1_555 1_555
S2 O6 1_555 1_555
O2 Cd1 1_555 1_555
O3 Cd1_2 1_555 1_555
O4 S1 1_555 1_555
O5 H15 1_555 1_555
O6 Cd2 1_555 1_555
O7 Cd2 1_555 1_555
O8 S1 1_555 1_555
O9 S2 1_555 1_555
O10 S2 1_555 1_555
N1 C1 1_555 1_555
N2 C2 1_555 1_555
N3 C1 1_555 1_555
N4 H1 1_555 1_555
H2 N4 1_555 1_555
N5 H3 1_555 1_555
H4 N5 1_555 1_555
C1 N4 1_555 1_555
C2 N1 1_555 1_555
N6 H5 1_555 1_555
H6 N6 1_555 1_555
C3 N2 1_555 1_555
N7 Cd2 1_555 1_555
N8 C4 1_555 1_555
N9 H7 1_555 1_555
H8 N9 1_555 1_555
N10 H9 1_555 1_555
H10 N10 1_555 1_555
C4 N7 1_555 1_555
C5 N7 1_555 1_555
C6 N8 1_555 1_555
N11 C5 1_555 1_555
N12 C6 1_555 1_555
H11 N12 1_555 1_555
H12 N12 1_555 1_555
H13 O2 1_555 1_555
H14 O2 1_555 1_555
H16 O5 1_555 1_555
H17 N3 1_555 1_555
Cd1_3 O3A_2 1_555 1_555
Cd2_2 O8 1_555 1_555
Cd2A O4 1_555 1_555
Cd2_3 O4A_2 1_555 1_555
Cd2A_2 O4_2 1_555 1_555
Cd2A_3 O8A 1_555 1_555
S1A O1A 1_555 1_555
S2A O3 1_555 1_555
O1A Cd1 1_555 1_555
O2A Cd1 1_555 1_555
O3_2 Cd1 1_555 1_555
O3A Cd1 1_555 1_555
O3A_2 S2 1_555 1_555
O4A Cd2 1_555 1_555
O4A_2 S1A 1_555 1_555
O5A Cd2A_2 1_555 1_555
O6A Cd2A_2 1_555 1_555
O7A Cd2A_2 1_555 1_555
O8_2 Cd2 1_555 1_555
O8A S1A 1_555 1_555
O8A_2 Cd2A_2 1_555 1_555
O9A S2A 1_555 1_555
O10A S2A 1_555 1_555
N7A Cd2A_2 1_555 1_555
N8A C4A 1_555 1_555
N9A H7A 1_555 1_555
H8A N9A 1_555 1_555
N10A H9A 1_555 1_555
H10A N10A 1_555 1_555
C4A N7A 1_555 1_555
C5A N7A 1_555 1_555
C6A N8A 1_555 1_555
N11A C5A 1_555 1_555
N12A C6A 1_555 1_555
H11A N12A 1_555 1_555
H12A N12A 1_555 1_555
H13A O2A 1_555 1_555
H14A O2A 1_555 1_555
H15A O5A 1_555 1_555
H16A O5A 1_555 1_555
S1 O7 1_555 1_555
N3 C3 1_555 1_555
N5 C2 1_555 1_555
N6 C3 1_555 1_555
N9 C4 1_555 1_555
N10 C5 1_555 1_555
C6 N11 1_555 1_555
S1A O7A 1_555 1_555
S2A O6A 1_555 1_555
N9A C4A 1_555 1_555
N10A C5A 1_555 1_555
C6A N11A 1_555 1_555

#END
