
#######################################################################
#
#                 Cambridge Crystallographic Data Centre
#                                CCDC 
#
#######################################################################
#
# If this CIF has been generated from an entry in the Cambridge 
# Structural Database, then it will include bibliographic, chemical, 
# crystal, experimental, refinement or atomic coordinate data resulting 
# from the CCDC's data processing and validation procedures.
#
#######################################################################

data_OKISOR
_symmetry_cell_setting           triclinic
_symmetry_space_group_name_H-M   'P -1'
_symmetry_Int_Tables_number      2
_space_group_name_Hall           '-P 1'
loop_
_symmetry_equiv_pos_site_id
_symmetry_equiv_pos_as_xyz
1 x,y,z
2 -x,-y,-z
_cell_length_a                   6.65880(10)
_cell_length_b                   9.2325(2)
_cell_length_c                   9.7163(2)
_cell_angle_alpha                65.8430(10)
_cell_angle_beta                 73.3020(10)
_cell_angle_gamma                71.0830(10)
_cell_volume                     507.242
loop_
_atom_site_label
_atom_site_type_symbol
_atom_site_fract_x
_atom_site_fract_y
_atom_site_fract_z
Cd1 Cd 0.86860(3) 0.78331(2) 0.60458(2)
Cd2 Cd 1.32779(3) 0.40138(2) 0.66060(2)
S1 S 0.63869(10) 1.19089(8) 0.42888(8)
S2 S 1.16257(10) 0.62600(8) 0.30813(8)
O1 O 0.8027(4) 1.0370(3) 0.4380(3)
O2 O 0.4912(4) 1.2215(3) 0.3292(3)
O3 O 1.0058(4) 0.7531(3) 0.3643(2)
O4 O 1.0477(3) 0.5038(2) 0.3247(2)
O5 O 0.7601(3) 1.3217(2) 0.3604(2)
O6 O 0.5198(3) 1.1847(2) 0.5842(2)
O7 O 1.2584(3) 0.6952(3) 0.1491(2)
O8 O 1.3357(3) 0.5388(2) 0.4023(2)
N1 N 0.8124(4) 0.7960(3) 0.8410(3)
N2 N 0.7216(4) 0.7465(3) 1.0939(3)
N3 N 0.8117(5) 0.9298(3) 0.8734(3)
N4 N 0.7360(5) 0.5402(3) 1.0028(3)
H1 H 0.7602 0.5074 0.9272
H2 H 0.6987 0.4773 1.0949
N5 N 0.7371(5) 1.0003(3) 1.0954(3)
H3 H 0.7621 1.0955 1.0424
H4 H 0.7003 0.9713 1.1935
C1 C 0.7563(4) 0.6895(3) 0.9771(3)
C2 C 0.7557(4) 0.8968(3) 1.0246(3)
H5 H 0.856(5) 1.008(4) 0.805(4)
Cd1A Cd 0.13140(3) 1.21669(2) 0.39542(2)
Cd1A_2 Cd 1.13140(3) 0.21669(2) 0.39542(2)
Cd1A_3 Cd 1.13140(3) 1.21669(2) 0.39542(2)
Cd2A Cd 0.67221(3) 0.59862(2) 0.33940(2)
Cd2A_2 Cd 0.67221(3) 1.59862(2) 0.33940(2)
Cd2_2 Cd 0.32779(3) 1.40138(2) 0.66060(2)
Cd2A_3 Cd 1.67221(3) 0.59862(2) 0.33940(2)
Cd2A_4 Cd 0.67221(3) 0.59862(2) 1.33940(2)
O2A O 0.5088(4) 0.7785(3) 0.6708(3)
O4A O 0.9523(3) 0.4962(2) 0.6753(2)
O5A O 1.2399(3) 0.6783(2) 0.6396(2)
O6_2 O 1.5198(3) 0.1847(2) 0.5842(2)
O8A O 1.6643(3) 0.4612(2) 0.5977(2)
N2A N 1.2784(4) 0.2535(3) 0.9061(3)
loop_
_geom_bond_atom_site_label_1
_geom_bond_atom_site_label_2
_geom_bond_site_symmetry_1
_geom_bond_site_symmetry_2
Cd1 O1 1_555 1_555
Cd2 O8 1_555 1_555
S1 O1 1_555 1_555
S2 O3 1_555 1_555
O2 S1 1_555 1_555
O3 Cd1 1_555 1_555
O4 S2 1_555 1_555
O5 S1 1_555 1_555
O6 S1 1_555 1_555
O7 S2 1_555 1_555
O8 S2 1_555 1_555
N1 Cd1 1_555 1_555
N2 C1 1_555 1_555
N3 N1 1_555 1_555
N4 H1 1_555 1_555
H2 N4 1_555 1_555
N5 H3 1_555 1_555
H4 N5 1_555 1_555
C1 N1 1_555 1_555
C2 N2 1_555 1_555
H5 N3 1_555 1_555
Cd1A O2 1_555 1_555
Cd1A_2 O4 1_555 1_555
Cd1A_3 O5 1_555 1_555
Cd2A O4 1_555 1_555
Cd2A_2 O5 1_555 1_555
Cd2_2 O6 1_555 1_555
Cd2A_3 O8 1_555 1_555
Cd2A_4 N2 1_555 1_555
O2A Cd1 1_555 1_555
O4A Cd1 1_555 1_555
O5A Cd1 1_555 1_555
O6_2 Cd2 1_555 1_555
O8A Cd2 1_555 1_555
N2A Cd2 1_555 1_555
Cd2 O4A 1_555 1_555
Cd2 O5A 1_555 1_555
N3 C2 1_555 1_555
N4 C1 1_555 1_555
N5 C2 1_555 1_555
Cd2A_3 O8A 1_555 1_555

#END
