
#######################################################################
#
#                 Cambridge Crystallographic Data Centre
#                                CCDC 
#
#######################################################################
#
# If this CIF has been generated from an entry in the Cambridge 
# Structural Database, then it will include bibliographic, chemical, 
# crystal, experimental, refinement or atomic coordinate data resulting 
# from the CCDC's data processing and validation procedures.
#
#######################################################################

data_OKISIL
_symmetry_cell_setting           monoclinic
_symmetry_space_group_name_H-M   'P 21/c'
_symmetry_Int_Tables_number      14
_space_group_name_Hall           '-P 2ybc'
loop_
_symmetry_equiv_pos_site_id
_symmetry_equiv_pos_as_xyz
1 x,y,z
2 -x,1/2+y,1/2-z
3 -x,-y,-z
4 x,1/2-y,1/2+z
_cell_length_a                   9.8131(4)
_cell_length_b                   6.4065(3)
_cell_length_c                   12.9635(6)
_cell_angle_alpha                90
_cell_angle_beta                 110.819(2)
_cell_angle_gamma                90
_cell_volume                     761.772
loop_
_atom_site_label
_atom_site_type_symbol
_atom_site_fract_x
_atom_site_fract_y
_atom_site_fract_z
H1 H -0.113(5) 0.142(8) 0.015(4)
H2 H -0.141(5) 0.217(6) 0.097(4)
Cd1 Cd 0.35550(2) 0.24175(3) 0.203344(17)
Cd2 Cd 0.0000 0.5000 0.0000
S1 S 0.27949(8) 0.71030(11) 0.23015(6)
O1 O 0.4208(2) 0.6092(3) 0.2384(2)
O2 O 0.2595(2) 0.8989(3) 0.16204(19)
O3 O 0.2802(3) 0.7557(3) 0.3388(2)
O4 O 0.1659(2) 0.5548(3) 0.17425(18)
O5 O -0.0722(3) 0.1943(4) 0.0655(3)
N1 N 0.3073(3) 0.2828(4) 0.0259(2)
N2 N 0.1672(3) 0.3210(4) -0.0455(2)
N3 N 0.3060(3) 0.2656(3) -0.1446(2)
C1 C 0.3864(4) 0.2503(4) -0.0369(3)
H3 H 0.4857 0.2206 -0.0096
C2 C 0.1727(3) 0.3086(5) -0.1444(3)
H4 H 0.0919 0.3279 -0.2084
H1B H 0.113(5) 0.858(8) -0.015(4)
H2B H 0.141(5) 0.783(6) -0.097(4)
Cd1B Cd -0.35550(2) 0.75825(3) -0.203344(17)
Cd1A Cd 0.64450(2) 0.74175(3) 0.296656(17)
Cd1_2 Cd 0.35550(2) 1.24175(3) 0.203344(17)
Cd1C Cd 0.35550(2) 0.25825(3) -0.296656(17)
Cd1C_2 Cd -0.64450(2) 0.25825(3) -0.296656(17)
Cd1B_2 Cd -0.35550(2) -0.24175(3) -0.203344(17)
Cd1A_2 Cd -0.35550(2) 0.74175(3) 0.296656(17)
S1B S -0.27949(8) 0.28970(11) -0.23015(6)
O1B O -0.4208(2) 0.3908(3) -0.2384(2)
O1A O 0.5792(2) 0.1092(3) 0.2616(2)
O1C O -0.5792(2) 0.8908(3) -0.2616(2)
O2B O -0.2595(2) 0.1011(3) -0.16204(19)
O2_2 O 0.2595(2) -0.1011(3) 0.16204(19)
O2B_2 O -0.2595(2) 1.1011(3) -0.16204(19)
O3B O -0.2802(3) 0.2443(3) -0.3388(2)
O4B O -0.1659(2) 0.4452(3) -0.17425(18)
O5B O 0.0722(3) 0.8057(4) -0.0655(3)
N1B N -0.3073(3) 0.7172(4) -0.0259(2)
N2B N -0.1672(3) 0.6790(4) 0.0455(2)
N3B N -0.3060(3) 0.7344(3) 0.1446(2)
N3C N 0.3060(3) 0.2344(3) 0.3554(2)
N3A N -0.3060(3) 0.7656(3) -0.3554(2)
C1B C -0.3864(4) 0.7497(4) 0.0369(3)
H3B H -0.4857 0.7794 0.0096
C2B C -0.1727(3) 0.6914(5) 0.1444(3)
H4B H -0.0919 0.6721 0.2084
loop_
_geom_bond_atom_site_label_1
_geom_bond_atom_site_label_2
_geom_bond_site_symmetry_1
_geom_bond_site_symmetry_2
H1 O5 1_555 1_555
H2 O5 1_555 1_555
Cd1 O1 1_555 1_555
Cd2 O4 1_555 1_555
S1 O1 1_555 1_555
O1 Cd1A 1_555 1_555
O2 S1 1_555 1_555
O3 S1 1_555 1_555
O4 Cd1 1_555 1_555
O5 Cd2 1_555 1_555
N1 Cd1 1_555 1_555
N2 Cd2 1_555 1_555
N3 C1 1_555 1_555
C1 N1 1_555 1_555
H3 C1 1_555 1_555
C2 N2 1_555 1_555
H4 C2 1_555 1_555
H1B O5B 1_555 1_555
H2B O5B 1_555 1_555
Cd1B O1B 1_555 1_555
Cd1_2 O2 1_555 1_555
Cd1C N3 1_555 1_555
Cd1C_2 O1B 1_555 1_555
Cd1B_2 O2B 1_555 1_555
Cd1A_2 N3B 1_555 1_555
S1B O1B 1_555 1_555
O1A Cd1 1_555 1_555
O1C Cd1B 1_555 1_555
O2B S1B 1_555 1_555
O2_2 Cd1 1_555 1_555
O2B_2 Cd1B 1_555 1_555
O3B S1B 1_555 1_555
O4B Cd2 1_555 1_555
O5B Cd2 1_555 1_555
N1B Cd1B 1_555 1_555
N2B Cd2 1_555 1_555
N3B C1B 1_555 1_555
N3C Cd1 1_555 1_555
N3A Cd1B 1_555 1_555
C1B N1B 1_555 1_555
H3B C1B 1_555 1_555
C2B N2B 1_555 1_555
H4B C2B 1_555 1_555
S1 O4 1_555 1_555
N1 N2 1_555 1_555
N3 C2 1_555 1_555
Cd1B O4B 1_555 1_555
S1B O4B 1_555 1_555
N1B N2B 1_555 1_555
N3B C2B 1_555 1_555

#END
