
#######################################################################
#
#                 Cambridge Crystallographic Data Centre
#                                CCDC 
#
#######################################################################
#
# If this CIF has been generated from an entry in the Cambridge 
# Structural Database, then it will include bibliographic, chemical, 
# crystal, experimental, refinement or atomic coordinate data resulting 
# from the CCDC's data processing and validation procedures.
#
#######################################################################

data_OKITIM02
_symmetry_cell_setting           tetragonal
_symmetry_space_group_name_H-M   'P 41 21 2'
_symmetry_Int_Tables_number      92
_space_group_name_Hall           'P 4abw 2nw'
loop_
_symmetry_equiv_pos_site_id
_symmetry_equiv_pos_as_xyz
1 x,y,z
2 -x,-y,1/2+z
3 1/2-y,1/2+x,1/4+z
4 1/2+y,1/2-x,3/4+z
5 1/2-x,1/2+y,1/4-z
6 1/2+x,1/2-y,3/4-z
7 y,x,-z
8 -y,-x,1/2-z
_cell_length_a                   15.8773(12)
_cell_length_b                   15.8773(12)
_cell_length_c                   21.684(3)
_cell_angle_alpha                90
_cell_angle_beta                 90
_cell_angle_gamma                90
_cell_volume                     5466.29
loop_
_atom_site_label
_atom_site_type_symbol
_atom_site_fract_x
_atom_site_fract_y
_atom_site_fract_z
C1 C -0.4132(5) -0.3595(5) 0.3595(3)
H1 H -0.4621 -0.3900 0.3476
C2 C -0.3844(4) -0.2977(4) 0.3217(3)
H2 H -0.4150 -0.2842 0.2854
C3 C -0.3103(4) -0.2533(4) 0.3354(3)
C4 C -0.2680(5) -0.2815(5) 0.3859(3)
H3 H -0.2139 -0.2592 0.3949
C5 C -0.3024(5) -0.3420(5) 0.4244(4)
H4 H -0.2726 -0.3577 0.4606
C6 C -0.2794(4) -0.1818(4) 0.2986(3)
C7 C -0.3073(5) -0.1665(5) 0.2379(3)
H5 H -0.3483 -0.2025 0.2201
C8 C -0.2764(5) -0.1008(5) 0.2046(3)
H6 H -0.2948 -0.0926 0.1634
C9 C -0.2172(5) -0.0447(5) 0.2308(3)
H7 H -0.1969 0.0021 0.2079
C10 C -0.1892(4) -0.0594(4) 0.2909(3)
C11 C -0.2205(5) -0.1258(4) 0.3233(3)
H8 H -0.2015 -0.1345 0.3644
C12 C -0.1267(4) -0.0035(4) 0.3202(3)
C13 C -0.0750(4) 0.0919(4) 0.3826(3)
C14 C -0.0675(4) 0.1612(4) 0.4270(3)
C15 C 0.0055(5) 0.1643(5) 0.4640(3)
H9 H 0.0473 0.1217 0.4606
C16 C 0.0156(5) 0.2285(5) 0.5045(4)
H10 H 0.0651 0.2308 0.5290
C17 C -0.0450(5) 0.2912(4) 0.5111(3)
H11 H -0.0378 0.3340 0.5413
C18 C -0.1156(4) 0.2915(4) 0.4737(3)
C19 C -0.1265(4) 0.2254(4) 0.4310(3)
H12 H -0.1745 0.2248 0.4049
C20 C -0.1809(4) 0.3575(4) 0.4784(3)
C21 C -0.2367(5) 0.3756(5) 0.4305(3)
H13 H -0.2309 0.3484 0.3917
C22 C -0.3015(5) 0.4344(4) 0.4400(3)
H14 H -0.3389 0.4455 0.4068
C23 C -0.2595(5) 0.4598(5) 0.5380(3)
H15 H -0.2663 0.4889 0.5760
C24 C -0.1929(5) 0.4023(5) 0.5325(3)
H16 H -0.1556 0.3939 0.5662
Cd1 Cd 0.05796(3) -0.05796(3) 0.2500
N1 N -0.3760(4) -0.3792(4) 0.4123(3)
N2 N -0.0446(3) -0.0059(3) 0.3155(2)
N3 N -0.0118(4) 0.0546(3) 0.3556(2)
N4 N -0.1494(4) 0.0567(3) 0.3618(2)
N5 N -0.2307(4) 0.0752(4) 0.3830(3)
H21 H -0.2508 0.0310 0.4055
H22 H -0.2650 0.0842 0.3499
N6 N -0.3136(3) 0.4753(3) 0.4926(3)
C1G C 0.3595(5) 0.4132(5) 0.1405(3)
H1G H 0.3900 0.4621 0.1524
C2G C 0.2977(4) 0.3844(4) 0.1783(3)
H2G H 0.2842 0.4150 0.2146
C3G C 0.2533(4) 0.3103(4) 0.1646(3)
C4G C 0.2815(5) 0.2680(5) 0.1141(3)
H3G H 0.2592 0.2139 0.1051
C5G C 0.3420(5) 0.3024(5) 0.0756(4)
H4G H 0.3577 0.2726 0.0394
C6G C 0.1818(4) 0.2794(4) 0.2014(3)
C7G C 0.1665(5) 0.3073(5) 0.2621(3)
H5G H 0.2025 0.3483 0.2799
C8G C 0.1008(5) 0.2764(5) 0.2954(3)
H6G H 0.0926 0.2948 0.3366
C9G C 0.0447(5) 0.2172(5) 0.2692(3)
H7G H -0.0021 0.1969 0.2921
C10G C 0.0594(4) 0.1892(4) 0.2091(3)
C11G C 0.1258(4) 0.2205(5) 0.1767(3)
H8G H 0.1345 0.2015 0.1356
C12G C 0.0035(4) 0.1267(4) 0.1798(3)
C13G C -0.0919(4) 0.0750(4) 0.1174(3)
C14G C -0.1612(4) 0.0675(4) 0.0730(3)
C15G C -0.1643(5) -0.0055(5) 0.0360(3)
H9G H -0.1217 -0.0473 0.0394
C16G C -0.2285(5) -0.0156(5) -0.0045(4)
H10G H -0.2308 -0.0651 -0.0290
C17G C -0.2912(4) 0.0450(5) -0.0111(3)
H11G H -0.3340 0.0378 -0.0413
C18G C -0.2915(4) 0.1156(4) 0.0263(3)
C19G C -0.2254(4) 0.1265(4) 0.0690(3)
H12G H -0.2248 0.1745 0.0951
C20G C -0.3575(4) 0.1809(4) 0.0216(3)
C21G C -0.3756(5) 0.2367(5) 0.0695(3)
H13G H -0.3484 0.2309 0.1083
C22G C -0.4344(4) 0.3015(5) 0.0600(3)
H14G H -0.4455 0.3389 0.0932
C23G C -0.4598(5) 0.2595(5) -0.0380(3)
H15G H -0.4889 0.2663 -0.0760
C24G C -0.4023(5) 0.1929(5) -0.0325(3)
H16G H -0.3939 0.1556 -0.0662
Cd1B Cd -0.44204(3) -0.44204(3) 0.5000
Cd1C Cd 0.44204(3) 0.44204(3) 0.0000
Cd1B_2 Cd -0.44204(3) 0.55796(3) 0.5000
Cd1C_2 Cd -0.55796(3) 0.44204(3) 0.0000
N1E N 0.1240(4) -0.1208(4) 0.3377(3)
N1C N 0.1208(4) -0.1240(4) 0.1623(3)
N1G N 0.3792(4) 0.3760(4) 0.0877(3)
N2G N 0.0059(3) 0.0446(3) 0.1845(2)
N3G N -0.0546(3) 0.0118(4) 0.1444(2)
N4G N -0.0567(3) 0.1494(4) 0.1382(2)
N5G N -0.0752(4) 0.2307(4) 0.1170(3)
H21G H -0.0310 0.2508 0.0945
H22G H -0.0842 0.2650 0.1501
N6C N -0.0247(3) -0.1864(3) 0.2426(3)
N6E N 0.1864(3) 0.0247(3) 0.2574(3)
N6G N -0.4753(3) 0.3136(3) 0.0074(3)
C25 C 0.5208(9) -1.0620(9) -0.0435(10)
H17 H 0.5630 -1.1014 -0.0320
C26 C 0.5002(13) -1.0455(12) -0.1028(9)
H18 H 0.5235 -1.0692 -0.1392
C27 C 0.4302(13) -0.9789(13) -0.0971(8)
H19 H 0.3997 -0.9516 -0.1291
C28 C 0.4229(8) -0.9688(8) -0.0357(8)
C29 C 0.3735(9) -0.9204(9) 0.0046(9)
H20 H 0.3314 -0.8813 -0.0078
O2 O 0.4756(10) -1.0174(10) -0.0019(7)
O3 O 0.3938(14) -0.9366(13) 0.0605(8)
O1 O 0.7635(7) -0.2320(7) 0.0508(3)
Cl2 Cl 0.73094(14) -0.26906(14) 0.0000
O5 O 0.6550(17) -0.2205(18) 0.0064(17)
O1F O 0.7680(7) -0.2365(7) -0.0508(3)
O5F O 0.7795(18) -0.3450(17) -0.0064(17)
Cl1 Cl 0.62040(17) -0.62040(17) -0.2500
O6 O 0.5955(10) -0.6667(9) -0.1919(7)
O7 O 0.5621(16) -0.6411(14) -0.2876(10)
O6G O 0.6667(9) -0.5955(10) -0.3081(7)
O7G O 0.6411(14) -0.5621(16) -0.2124(10)
O4? O 0.6691(6) -0.3309(6) 0.0000
O8? O 0.5509(14) -0.5509(14) -0.2500
O9? O 0.6673(19) -0.6903(16) -0.2703(13)
loop_
_geom_bond_atom_site_label_1
_geom_bond_atom_site_label_2
_geom_bond_site_symmetry_1
_geom_bond_site_symmetry_2
C1 H1 1_555 1_555
C2 C1 1_555 1_555
H2 C2 1_555 1_555
C3 C2 1_555 1_555
C4 C3 1_555 1_555
H3 C4 1_555 1_555
C5 C4 1_555 1_555
H4 C5 1_555 1_555
C6 C3 1_555 1_555
C7 C6 1_555 1_555
H5 C7 1_555 1_555
C8 C7 1_555 1_555
H6 C8 1_555 1_555
C9 C8 1_555 1_555
H7 C9 1_555 1_555
C10 C9 1_555 1_555
C11 C6 1_555 1_555
H8 C11 1_555 1_555
C12 C10 1_555 1_555
C13 C14 1_555 1_555
C14 C15 1_555 1_555
C15 H9 1_555 1_555
C16 C15 1_555 1_555
H10 C16 1_555 1_555
C17 C16 1_555 1_555
H11 C17 1_555 1_555
C18 C17 1_555 1_555
C19 C14 1_555 1_555
H12 C19 1_555 1_555
C20 C18 1_555 1_555
C21 C20 1_555 1_555
H13 C21 1_555 1_555
C22 C21 1_555 1_555
H14 C22 1_555 1_555
C23 H15 1_555 1_555
C24 C20 1_555 1_555
H16 C24 1_555 1_555
C25 H17 1_555 1_555
C26 C25 1_555 1_555
H18 C26 1_555 1_555
C27 C26 1_555 1_555
H19 C27 1_555 1_555
C28 C27 1_555 1_555
C29 C28 1_555 1_555
H20 C29 1_555 1_555
Cd1 N2 1_555 1_555
N1 C1 1_555 1_555
N2 C12 1_555 1_555
N3 C13 1_555 1_555
N4 C12 1_555 1_555
N5 N4 1_555 1_555
H21 N5 1_555 1_555
H22 N5 1_555 1_555
N6 C22 1_555 1_555
O1 Cl2 1_555 1_555
O2 C25 1_555 1_555
O3 C29 1_555 1_555
Cl1 O6 1_555 1_555
Cl2 O5 1_555 1_555
O7 Cl1 1_555 1_555
C1G H1G 1_555 1_555
C2G C1G 1_555 1_555
H2G C2G 1_555 1_555
C3G C2G 1_555 1_555
C4G C3G 1_555 1_555
H3G C4G 1_555 1_555
C5G C4G 1_555 1_555
H4G C5G 1_555 1_555
C6G C3G 1_555 1_555
C7G C6G 1_555 1_555
H5G C7G 1_555 1_555
C8G C7G 1_555 1_555
H6G C8G 1_555 1_555
C9G C8G 1_555 1_555
H7G C9G 1_555 1_555
C10G C9G 1_555 1_555
C11G C6G 1_555 1_555
H8G C11G 1_555 1_555
C12G C10G 1_555 1_555
C13G C14G 1_555 1_555
C14G C15G 1_555 1_555
C15G H9G 1_555 1_555
C16G C15G 1_555 1_555
H10G C16G 1_555 1_555
C17G C16G 1_555 1_555
H11G C17G 1_555 1_555
C18G C17G 1_555 1_555
C19G C14G 1_555 1_555
H12G C19G 1_555 1_555
C20G C18G 1_555 1_555
C21G C20G 1_555 1_555
H13G C21G 1_555 1_555
C22G C21G 1_555 1_555
H14G C22G 1_555 1_555
C23G H15G 1_555 1_555
C24G C20G 1_555 1_555
H16G C24G 1_555 1_555
Cd1B N1 1_555 1_555
Cd1C N1G 1_555 1_555
Cd1B_2 N6 1_555 1_555
Cd1C_2 N6G 1_555 1_555
N1E Cd1 1_555 1_555
N1C Cd1 1_555 1_555
N1G C1G 1_555 1_555
N2G Cd1 1_555 1_555
N3G C13G 1_555 1_555
N4G C12G 1_555 1_555
N5G N4G 1_555 1_555
H21G N5G 1_555 1_555
H22G N5G 1_555 1_555
N6C Cd1 1_555 1_555
N6E Cd1 1_555 1_555
N6G C22G 1_555 1_555
O1F Cl2 1_555 1_555
O5F Cl2 1_555 1_555
O6G Cl1 1_555 1_555
O7G Cl1 1_555 1_555
C5 N1 1_555 1_555
C10 C11 1_555 1_555
C13 N4 1_555 1_555
C18 C19 1_555 1_555
C23 C24 1_555 1_555
C23 N6 1_555 1_555
C28 O2 1_555 1_555
N2 N3 1_555 1_555
C5G N1G 1_555 1_555
C10G C11G 1_555 1_555
C12G N2G 1_555 1_555
C13G N4G 1_555 1_555
C18G C19G 1_555 1_555
C23G C24G 1_555 1_555
C23G N6G 1_555 1_555
N2G N3G 1_555 1_555

#END
