
#######################################################################
#
#                 Cambridge Crystallographic Data Centre
#                                CCDC 
#
#######################################################################
#
# If this CIF has been generated from an entry in the Cambridge 
# Structural Database, then it will include bibliographic, chemical, 
# crystal, experimental, refinement or atomic coordinate data resulting 
# from the CCDC's data processing and validation procedures.
#
#######################################################################

data_OKITIM01
_symmetry_cell_setting           tetragonal
_symmetry_space_group_name_H-M   'P 41 21 2'
_symmetry_Int_Tables_number      92
_space_group_name_Hall           'P 4abw 2nw'
loop_
_symmetry_equiv_pos_site_id
_symmetry_equiv_pos_as_xyz
1 x,y,z
2 -x,-y,1/2+z
3 1/2-y,1/2+x,1/4+z
4 1/2+y,1/2-x,3/4+z
5 1/2-x,1/2+y,1/4-z
6 1/2+x,1/2-y,3/4-z
7 y,x,-z
8 -y,-x,1/2-z
_cell_length_a                   15.8539(10)
_cell_length_b                   15.8539(10)
_cell_length_c                   21.660(3)
_cell_angle_alpha                90
_cell_angle_beta                 90
_cell_angle_gamma                90
_cell_volume                     5444.16
loop_
_atom_site_label
_atom_site_type_symbol
_atom_site_fract_x
_atom_site_fract_y
_atom_site_fract_z
C1 C -0.4125(5) -0.3593(5) 0.3602(3)
H1 H -0.4621 -0.3893 0.3492
C2 C -0.3846(4) -0.2979(4) 0.3205(3)
H2 H -0.4151 -0.2857 0.2838
C3 C -0.3108(4) -0.2532(5) 0.3348(3)
C4 C -0.2673(5) -0.2812(5) 0.3863(3)
H3 H -0.2133 -0.2586 0.3956
C5 C -0.3026(5) -0.3423(5) 0.4244(4)
H4 H -0.2732 -0.3579 0.4608
C6 C -0.2797(4) -0.1818(4) 0.2982(3)
C7 C -0.3074(5) -0.1661(5) 0.2379(3)
H5 H -0.3489 -0.2019 0.2202
C8 C -0.2762(6) -0.1006(6) 0.2041(4)
H6 H -0.2943 -0.0927 0.1627
C9 C -0.2172(5) -0.0445(5) 0.2304(3)
H7 H -0.1971 0.0028 0.2078
C10 C -0.1893(5) -0.0601(4) 0.2903(3)
C11 C -0.2208(5) -0.1265(4) 0.3232(3)
H8 H -0.2020 -0.1351 0.3644
C12 C -0.1270(4) -0.0034(4) 0.3204(3)
C13 C -0.0750(4) 0.0922(4) 0.3828(3)
C14 C -0.0675(4) 0.1615(4) 0.4273(3)
C15 C 0.0050(5) 0.1628(5) 0.4646(3)
H9 H 0.0456 0.1189 0.4617
C16 C 0.0167(5) 0.2289(5) 0.5053(4)
H10 H 0.0664 0.2313 0.5297
C17 C -0.0440(5) 0.2919(5) 0.5109(3)
H11 H -0.0367 0.3351 0.5408
C18 C -0.1154(4) 0.2923(4) 0.4732(3)
C19 C -0.1260(4) 0.2250(4) 0.4311(3)
H12 H -0.1742 0.2237 0.4051
C20 C -0.1811(5) 0.3579(5) 0.4787(3)
C21 C -0.2370(5) 0.3754(5) 0.4310(3)
H13 H -0.2314 0.3476 0.3923
C22 C -0.3010(5) 0.4338(5) 0.4400(3)
H14 H -0.3382 0.4449 0.4066
C23 C -0.2586(5) 0.4600(5) 0.5375(3)
H15 H -0.2647 0.4899 0.5752
C24 C -0.1926(5) 0.4029(5) 0.5326(3)
H16 H -0.1553 0.3948 0.5664
Cd1 Cd 0.05812(3) -0.05812(3) 0.2500
N1 N -0.3751(4) -0.3797(4) 0.4122(3)
N2 N -0.0447(3) -0.0057(4) 0.3155(3)
N3 N -0.0115(4) 0.0549(3) 0.3555(2)
N4 N -0.1491(4) 0.0571(3) 0.3620(2)
N5 N -0.2301(4) 0.0739(4) 0.3839(3)
H21 H -0.2502 0.0298 0.4064
H22 H -0.2644 0.0829 0.3508
N6 N -0.3134(3) 0.4755(4) 0.4932(3)
C1G C 0.3593(5) 0.4125(5) 0.1398(3)
H1G H 0.3893 0.4621 0.1508
C2G C 0.2979(4) 0.3846(4) 0.1795(3)
H2G H 0.2857 0.4151 0.2162
C3G C 0.2532(5) 0.3108(4) 0.1652(3)
C4G C 0.2812(5) 0.2673(5) 0.1137(3)
H3G H 0.2586 0.2133 0.1044
C5G C 0.3423(5) 0.3026(5) 0.0756(4)
H4G H 0.3579 0.2732 0.0392
C6G C 0.1818(4) 0.2797(4) 0.2018(3)
C7G C 0.1661(5) 0.3074(5) 0.2621(3)
H5G H 0.2019 0.3489 0.2798
C8G C 0.1006(6) 0.2762(6) 0.2959(4)
H6G H 0.0927 0.2943 0.3373
C9G C 0.0445(5) 0.2172(5) 0.2696(3)
H7G H -0.0028 0.1971 0.2922
C10G C 0.0601(4) 0.1893(5) 0.2097(3)
C11G C 0.1265(4) 0.2208(5) 0.1768(3)
H8G H 0.1351 0.2020 0.1356
C12G C 0.0034(4) 0.1270(4) 0.1796(3)
C13G C -0.0922(4) 0.0750(4) 0.1172(3)
C14G C -0.1615(4) 0.0675(4) 0.0727(3)
C15G C -0.1628(5) -0.0050(5) 0.0354(3)
H9G H -0.1189 -0.0456 0.0383
C16G C -0.2289(5) -0.0167(5) -0.0053(4)
H10G H -0.2313 -0.0664 -0.0297
C17G C -0.2919(5) 0.0440(5) -0.0109(3)
H11G H -0.3351 0.0367 -0.0408
C18G C -0.2923(4) 0.1154(4) 0.0268(3)
C19G C -0.2250(4) 0.1260(4) 0.0689(3)
H12G H -0.2237 0.1742 0.0949
C20G C -0.3579(5) 0.1811(5) 0.0213(3)
C21G C -0.3754(5) 0.2370(5) 0.0690(3)
H13G H -0.3476 0.2314 0.1077
C22G C -0.4338(5) 0.3010(5) 0.0600(3)
H14G H -0.4449 0.3382 0.0934
C23G C -0.4600(5) 0.2586(5) -0.0375(3)
H15G H -0.4899 0.2647 -0.0752
C24G C -0.4029(5) 0.1926(5) -0.0326(3)
H16G H -0.3948 0.1553 -0.0664
Cd1B Cd -0.44188(3) -0.44188(3) 0.5000
Cd1C Cd 0.44188(3) 0.44188(3) 0.0000
Cd1B_2 Cd -0.44188(3) 0.55812(3) 0.5000
Cd1C_2 Cd -0.55812(3) 0.44188(3) 0.0000
N1E N 0.1249(4) -0.1203(4) 0.3378(3)
N1C N 0.1203(4) -0.1249(4) 0.1622(3)
N1G N 0.3797(4) 0.3751(4) 0.0878(3)
N2G N 0.0057(4) 0.0447(3) 0.1845(3)
N3G N -0.0549(3) 0.0115(4) 0.1445(2)
N4G N -0.0571(3) 0.1491(4) 0.1380(2)
N5G N -0.0739(4) 0.2301(4) 0.1161(3)
H21G H -0.0298 0.2502 0.0936
H22G H -0.0829 0.2644 0.1492
N6E N 0.1866(3) 0.0245(4) 0.2568(3)
N6C N -0.0245(4) -0.1866(3) 0.2432(3)
N6G N -0.4755(4) 0.3134(3) 0.0068(3)
C25 C 0.5215(9) -1.0644(8) -0.0431(10)
H17 H 0.5634 -1.1050 -0.0331
C26 C 0.5014(12) -1.0434(12) -0.1019(9)
H18 H 0.5244 -1.0648 -0.1392
C27 C 0.4321(12) -0.9766(12) -0.0936(8)
H19 H 0.4019 -0.9467 -0.1245
C28 C 0.4247(7) -0.9708(7) -0.0321(7)
C29 C 0.3726(8) -0.9215(8) 0.0066(8)
H20 H 0.3318 -0.8819 -0.0071
O2 O 0.4767(9) -1.0220(9) 0.0002(7)
O3 O 0.3891(13) -0.9387(13) 0.0629(7)
O1 O 0.7645(7) -0.2350(8) 0.0517(3)
Cl2 Cl 0.73077(14) -0.26923(14) 0.0000
O5 O 0.6561(15) -0.2177(17) 0.004(2)
O1F O 0.7650(8) -0.2355(7) -0.0517(3)
O5F O 0.7823(17) -0.3439(15) -0.004(2)
Cl1 Cl 0.62084(17) -0.62084(17) -0.2500
O6 O 0.5950(10) -0.6619(10) -0.1911(7)
O7 O 0.6617(15) -0.5601(17) -0.2184(10)
O6G O 0.6619(10) -0.5950(10) -0.3089(7)
O7G O 0.5601(17) -0.6617(15) -0.2816(10)
O4? O 0.6696(7) -0.3304(7) 0.0000
O8? O 0.5583(5) -0.5583(5) -0.2500
O9? O 0.6674(19) -0.6930(15) -0.2672(14)
loop_
_geom_bond_atom_site_label_1
_geom_bond_atom_site_label_2
_geom_bond_site_symmetry_1
_geom_bond_site_symmetry_2
C1 H1 1_555 1_555
C2 C1 1_555 1_555
H2 C2 1_555 1_555
C3 C2 1_555 1_555
C4 C3 1_555 1_555
H3 C4 1_555 1_555
C5 C4 1_555 1_555
H4 C5 1_555 1_555
C6 C3 1_555 1_555
C7 C6 1_555 1_555
H5 C7 1_555 1_555
C8 C7 1_555 1_555
H6 C8 1_555 1_555
C9 C8 1_555 1_555
H7 C9 1_555 1_555
C10 C9 1_555 1_555
C11 C6 1_555 1_555
H8 C11 1_555 1_555
C12 C10 1_555 1_555
C13 C14 1_555 1_555
C14 C15 1_555 1_555
C15 H9 1_555 1_555
C16 C15 1_555 1_555
H10 C16 1_555 1_555
C17 C16 1_555 1_555
H11 C17 1_555 1_555
C18 C17 1_555 1_555
C19 C14 1_555 1_555
H12 C19 1_555 1_555
C20 C18 1_555 1_555
C21 C20 1_555 1_555
H13 C21 1_555 1_555
C22 C21 1_555 1_555
H14 C22 1_555 1_555
C23 H15 1_555 1_555
C24 C20 1_555 1_555
H16 C24 1_555 1_555
C25 H17 1_555 1_555
C26 C25 1_555 1_555
H18 C26 1_555 1_555
C27 C26 1_555 1_555
H19 C27 1_555 1_555
C28 C27 1_555 1_555
C29 C28 1_555 1_555
H20 C29 1_555 1_555
Cd1 N2 1_555 1_555
N1 C1 1_555 1_555
N2 C12 1_555 1_555
N3 C13 1_555 1_555
N4 C12 1_555 1_555
N5 N4 1_555 1_555
H21 N5 1_555 1_555
H22 N5 1_555 1_555
N6 C22 1_555 1_555
O1 Cl2 1_555 1_555
O2 C25 1_555 1_555
O3 C29 1_555 1_555
Cl1 O6 1_555 1_555
Cl2 O5 1_555 1_555
O7 Cl1 1_555 1_555
C1G H1G 1_555 1_555
C2G C1G 1_555 1_555
H2G C2G 1_555 1_555
C3G C2G 1_555 1_555
C4G C3G 1_555 1_555
H3G C4G 1_555 1_555
C5G C4G 1_555 1_555
H4G C5G 1_555 1_555
C6G C3G 1_555 1_555
C7G C6G 1_555 1_555
H5G C7G 1_555 1_555
C8G C7G 1_555 1_555
H6G C8G 1_555 1_555
C9G C8G 1_555 1_555
H7G C9G 1_555 1_555
C10G C9G 1_555 1_555
C11G C6G 1_555 1_555
H8G C11G 1_555 1_555
C12G C10G 1_555 1_555
C13G C14G 1_555 1_555
C14G C15G 1_555 1_555
C15G H9G 1_555 1_555
C16G C15G 1_555 1_555
H10G C16G 1_555 1_555
C17G C16G 1_555 1_555
H11G C17G 1_555 1_555
C18G C17G 1_555 1_555
C19G C14G 1_555 1_555
H12G C19G 1_555 1_555
C20G C18G 1_555 1_555
C21G C20G 1_555 1_555
H13G C21G 1_555 1_555
C22G C21G 1_555 1_555
H14G C22G 1_555 1_555
C23G H15G 1_555 1_555
C24G C20G 1_555 1_555
H16G C24G 1_555 1_555
Cd1B N1 1_555 1_555
Cd1C N1G 1_555 1_555
Cd1B_2 N6 1_555 1_555
Cd1C_2 N6G 1_555 1_555
N1E Cd1 1_555 1_555
N1C Cd1 1_555 1_555
N1G C1G 1_555 1_555
N2G Cd1 1_555 1_555
N3G C13G 1_555 1_555
N4G C12G 1_555 1_555
N5G N4G 1_555 1_555
H21G N5G 1_555 1_555
H22G N5G 1_555 1_555
N6E Cd1 1_555 1_555
N6C Cd1 1_555 1_555
N6G C22G 1_555 1_555
O1F Cl2 1_555 1_555
O5F Cl2 1_555 1_555
O6G Cl1 1_555 1_555
O7G Cl1 1_555 1_555
C5 N1 1_555 1_555
C10 C11 1_555 1_555
C13 N4 1_555 1_555
C18 C19 1_555 1_555
C23 C24 1_555 1_555
C23 N6 1_555 1_555
C28 O2 1_555 1_555
N2 N3 1_555 1_555
C5G N1G 1_555 1_555
C10G C11G 1_555 1_555
C12G N2G 1_555 1_555
C13G N4G 1_555 1_555
C18G C19G 1_555 1_555
C23G C24G 1_555 1_555
C23G N6G 1_555 1_555
N2G N3G 1_555 1_555

#END
