
#######################################################################
#
#                 Cambridge Crystallographic Data Centre
#                                CCDC 
#
#######################################################################
#
# If this CIF has been generated from an entry in the Cambridge 
# Structural Database, then it will include bibliographic, chemical, 
# crystal, experimental, refinement or atomic coordinate data resulting 
# from the CCDC's data processing and validation procedures.
#
#######################################################################

data_OKITIM
_symmetry_cell_setting           tetragonal
_symmetry_space_group_name_H-M   'P 43 21 2'
_symmetry_Int_Tables_number      96
_space_group_name_Hall           'P 4nw 2abw'
loop_
_symmetry_equiv_pos_site_id
_symmetry_equiv_pos_as_xyz
1 x,y,z
2 -x,-y,1/2+z
3 1/2-y,1/2+x,3/4+z
4 1/2+y,1/2-x,1/4+z
5 1/2-x,1/2+y,3/4-z
6 1/2+x,1/2-y,1/4-z
7 y,x,-z
8 -y,-x,1/2-z
_cell_length_a                   15.826(2)
_cell_length_b                   15.826(2)
_cell_length_c                   21.639(6)
_cell_angle_alpha                90
_cell_angle_beta                 90
_cell_angle_gamma                90
_cell_volume                     5419.75
loop_
_atom_site_label
_atom_site_type_symbol
_atom_site_fract_x
_atom_site_fract_y
_atom_site_fract_z
C1 C 0.4137(6) 0.3594(6) -0.3605(4)
H1 H 0.4636 0.3889 -0.3492
C2 C 0.3850(5) 0.2965(5) -0.3217(4)
H2 H 0.4163 0.2827 -0.2856
C3 C 0.3119(6) 0.2537(6) -0.3346(4)
C4 C 0.2671(6) 0.2803(6) -0.3868(4)
H3 H 0.2134 0.2572 -0.3964
C5 C 0.3042(6) 0.3425(6) -0.4247(4)
H4 H 0.2754 0.3578 -0.4616
C6 C 0.2807(5) 0.1805(5) -0.2988(4)
C7 C 0.3080(5) 0.1671(6) -0.2374(4)
H5 H 0.3481 0.2040 -0.2190
C8 C 0.2765(7) 0.1012(7) -0.2053(4)
H6 H 0.2956 0.0927 -0.1642
C9 C 0.2176(6) 0.0454(6) -0.2292(4)
H7 H 0.1968 -0.0008 -0.2058
C10 C 0.1900(6) 0.0607(5) -0.2908(3)
C11 C 0.2215(6) 0.1269(6) -0.3239(4)
H8 H 0.2022 0.1361 -0.3649
C12 C 0.1278(5) 0.0037(5) -0.3205(4)
C13 C 0.0757(5) -0.0909(5) -0.3818(3)
C14 C 0.0679(5) -0.1615(6) -0.4269(4)
C15 C -0.0053(6) -0.1625(6) -0.4640(4)
H9 H -0.0464 -0.1189 -0.4607
C16 C -0.0160(7) -0.2285(6) -0.5051(5)
H10 H -0.0651 -0.2313 -0.5303
C17 C 0.0447(6) -0.2896(6) -0.5092(5)
H11 H 0.0376 -0.3331 -0.5390
C18 C 0.1154(5) -0.2917(5) -0.4727(4)
C19 C 0.1261(5) -0.2243(5) -0.4311(4)
H12 H 0.1749 -0.2226 -0.4055
C20 C 0.1807(5) -0.3580(5) -0.4783(4)
C21 C 0.2383(7) -0.3758(6) -0.4306(4)
H13 H 0.2337 -0.3475 -0.3920
C22 C 0.3005(7) -0.4335(6) -0.4398(4)
H14 H 0.3378 -0.4445 -0.4063
C23 C 0.2571(5) -0.4602(6) -0.5369(4)
H15 H 0.2624 -0.4902 -0.5747
C24 C 0.1913(6) -0.4026(6) -0.5314(4)
H16 H 0.1534 -0.3944 -0.5649
Cd1 Cd -0.05803(3) 0.05803(3) -0.2500
N1 N 0.3758(5) 0.3808(5) -0.4123(3)
N2 N 0.0454(4) 0.0062(4) -0.3152(3)
N3 N 0.0119(5) -0.0548(4) -0.3546(3)
N4 N 0.1494(5) -0.0560(4) -0.3621(3)
N5 N 0.2301(5) -0.0749(5) -0.3831(4)
H21 H 0.2502 -0.0307 -0.4056
H22 H 0.2644 -0.0838 -0.3500
N6 N 0.3133(4) -0.4761(4) -0.4925(4)
C1G C -0.3594(6) -0.4137(6) -0.1395(4)
H1G H -0.3889 -0.4636 -0.1508
C2G C -0.2965(5) -0.3850(5) -0.1783(4)
H2G H -0.2827 -0.4163 -0.2144
C3G C -0.2537(6) -0.3119(6) -0.1654(4)
C4G C -0.2803(6) -0.2671(6) -0.1132(4)
H3G H -0.2572 -0.2134 -0.1036
C5G C -0.3425(6) -0.3042(6) -0.0753(4)
H4G H -0.3578 -0.2754 -0.0384
C6G C -0.1805(5) -0.2807(5) -0.2012(4)
C7G C -0.1671(6) -0.3080(5) -0.2626(4)
H5G H -0.2040 -0.3481 -0.2810
C8G C -0.1012(7) -0.2765(7) -0.2947(4)
H6G H -0.0927 -0.2956 -0.3358
C9G C -0.0454(6) -0.2176(6) -0.2708(4)
H7G H 0.0008 -0.1968 -0.2942
C10G C -0.0607(5) -0.1900(6) -0.2092(3)
C11G C -0.1269(6) -0.2215(6) -0.1761(4)
H8G H -0.1361 -0.2022 -0.1351
C12G C -0.0037(5) -0.1278(5) -0.1795(4)
C13G C 0.0909(5) -0.0757(5) -0.1182(3)
C14G C 0.1615(6) -0.0679(5) -0.0731(4)
C15G C 0.1625(6) 0.0053(6) -0.0360(4)
H9G H 0.1189 0.0464 -0.0393
C16G C 0.2285(6) 0.0160(7) 0.0051(5)
H10G H 0.2313 0.0651 0.0303
C17G C 0.2896(6) -0.0447(6) 0.0092(5)
H11G H 0.3331 -0.0376 0.0390
C18G C 0.2917(5) -0.1154(5) -0.0273(4)
C19G C 0.2243(5) -0.1261(5) -0.0689(4)
H12G H 0.2226 -0.1749 -0.0945
C20G C 0.3580(5) -0.1807(5) -0.0217(4)
C21G C 0.3758(6) -0.2383(7) -0.0694(4)
H13G H 0.3475 -0.2337 -0.1080
C22G C 0.4335(6) -0.3005(7) -0.0602(4)
H14G H 0.4445 -0.3378 -0.0937
C23G C 0.4602(6) -0.2571(5) 0.0369(4)
H15G H 0.4902 -0.2624 0.0747
C24G C 0.4026(6) -0.1913(6) 0.0314(4)
H16G H 0.3944 -0.1534 0.0649
Cd1B Cd 0.44197(3) 0.44197(3) -0.5000
Cd1C Cd -0.44197(3) -0.44197(3) 0.0000
Cd1B_2 Cd 0.44197(3) -0.55803(3) -0.5000
Cd1C_2 Cd 0.55803(3) -0.44197(3) 0.0000
N1E N -0.1242(5) 0.1192(5) -0.3377(3)
N1C N -0.1192(5) 0.1242(5) -0.1623(3)
N1G N -0.3808(5) -0.3758(5) -0.0877(3)
N2G N -0.0062(4) -0.0454(4) -0.1848(3)
N3G N 0.0548(4) -0.0119(5) -0.1454(3)
N4G N 0.0560(4) -0.1494(5) -0.1379(3)
N5G N 0.0749(5) -0.2301(5) -0.1169(4)
H21G H 0.0307 -0.2502 -0.0944
H22G H 0.0838 -0.2644 -0.1500
N6E N -0.1867(4) -0.0239(4) -0.2575(4)
N6C N 0.0239(4) 0.1867(4) -0.2425(4)
N6G N 0.4761(4) -0.3133(4) -0.0075(4)
C25 C -0.5277(13) 1.0714(13) 0.0328(15)
H17 H -0.5667 1.1121 0.0177
C26 C -0.5131(15) 1.0500(16) 0.0923(14)
H18 H -0.5399 1.0728 0.1279
C27 C -0.4445(16) 0.9817(15) 0.0908(8)
H19 H -0.4202 0.9536 0.1253
C28 C -0.4255(9) 0.9695(9) 0.0313(7)
C29 C -0.3732(10) 0.9221(10) -0.0087(9)
H20 H -0.3331 0.8809 0.0040
O6 O -0.4748(9) 1.0224(9) -0.0006(8)
O7 O -0.3883(15) 0.9432(15) -0.0643(8)
Cl1 Cl -0.73045(17) 0.26955(17) 0.0000
O1 O -0.7658(10) 0.2368(13) -0.0523(5)
O2 O -0.724(3) 0.3394(12) -0.0026(17)
O1F O -0.7632(13) 0.2342(10) 0.0523(5)
O2F O -0.6606(12) 0.276(3) 0.0026(17)
Cl2? Cl -0.1221(2) 0.8779(2) 0.0000
O3? O -0.1653(12) 0.9009(12) -0.0588(9)
O4? O -0.1852(17) 0.9408(18) 0.0265(12)
O5? O -0.062(3) 0.938(3) 0.0000
loop_
_geom_bond_atom_site_label_1
_geom_bond_atom_site_label_2
_geom_bond_site_symmetry_1
_geom_bond_site_symmetry_2
C1 H1 1_555 1_555
C2 C1 1_555 1_555
H2 C2 1_555 1_555
C3 C2 1_555 1_555
C4 C3 1_555 1_555
H3 C4 1_555 1_555
C5 C4 1_555 1_555
H4 C5 1_555 1_555
C6 C3 1_555 1_555
C7 C6 1_555 1_555
H5 C7 1_555 1_555
C8 C7 1_555 1_555
H6 C8 1_555 1_555
C9 C8 1_555 1_555
H7 C9 1_555 1_555
C10 C9 1_555 1_555
C11 C6 1_555 1_555
H8 C11 1_555 1_555
C12 C10 1_555 1_555
C13 C14 1_555 1_555
C14 C15 1_555 1_555
C15 H9 1_555 1_555
C16 C15 1_555 1_555
H10 C16 1_555 1_555
C17 C16 1_555 1_555
H11 C17 1_555 1_555
C18 C17 1_555 1_555
C19 C14 1_555 1_555
H12 C19 1_555 1_555
C20 C18 1_555 1_555
C21 C20 1_555 1_555
H13 C21 1_555 1_555
C22 C21 1_555 1_555
H14 C22 1_555 1_555
C23 H15 1_555 1_555
C24 C20 1_555 1_555
H16 C24 1_555 1_555
C25 H17 1_555 1_555
C26 C25 1_555 1_555
H18 C26 1_555 1_555
C27 C26 1_555 1_555
H19 C27 1_555 1_555
C28 C27 1_555 1_555
C29 C28 1_555 1_555
H20 C29 1_555 1_555
Cd1 N2 1_555 1_555
Cl1 O1 1_555 1_555
N1 C1 1_555 1_555
N2 C12 1_555 1_555
N3 C13 1_555 1_555
N4 C12 1_555 1_555
N5 N4 1_555 1_555
H21 N5 1_555 1_555
H22 N5 1_555 1_555
N6 C22 1_555 1_555
O2 Cl1 1_555 1_555
O6 C25 1_555 1_555
O7 C29 1_555 1_555
C1G H1G 1_555 1_555
C2G C1G 1_555 1_555
H2G C2G 1_555 1_555
C3G C2G 1_555 1_555
C4G C3G 1_555 1_555
H3G C4G 1_555 1_555
C5G C4G 1_555 1_555
H4G C5G 1_555 1_555
C6G C3G 1_555 1_555
C7G C6G 1_555 1_555
H5G C7G 1_555 1_555
C8G C7G 1_555 1_555
H6G C8G 1_555 1_555
C9G C8G 1_555 1_555
H7G C9G 1_555 1_555
C10G C9G 1_555 1_555
C11G C6G 1_555 1_555
H8G C11G 1_555 1_555
C12G C10G 1_555 1_555
C13G C14G 1_555 1_555
C14G C15G 1_555 1_555
C15G H9G 1_555 1_555
C16G C15G 1_555 1_555
H10G C16G 1_555 1_555
C17G C16G 1_555 1_555
H11G C17G 1_555 1_555
C18G C17G 1_555 1_555
C19G C14G 1_555 1_555
H12G C19G 1_555 1_555
C20G C18G 1_555 1_555
C21G C20G 1_555 1_555
H13G C21G 1_555 1_555
C22G C21G 1_555 1_555
H14G C22G 1_555 1_555
C23G H15G 1_555 1_555
C24G C20G 1_555 1_555
H16G C24G 1_555 1_555
Cd1B N1 1_555 1_555
Cd1C N1G 1_555 1_555
Cd1B_2 N6 1_555 1_555
Cd1C_2 N6G 1_555 1_555
N1E Cd1 1_555 1_555
N1C Cd1 1_555 1_555
N1G C1G 1_555 1_555
N2G Cd1 1_555 1_555
N3G C13G 1_555 1_555
N4G C12G 1_555 1_555
N5G N4G 1_555 1_555
H21G N5G 1_555 1_555
H22G N5G 1_555 1_555
N6E Cd1 1_555 1_555
N6C Cd1 1_555 1_555
N6G C22G 1_555 1_555
O1F Cl1 1_555 1_555
O2F Cl1 1_555 1_555
C5 N1 1_555 1_555
C10 C11 1_555 1_555
C13 N4 1_555 1_555
C18 C19 1_555 1_555
C23 C24 1_555 1_555
C23 N6 1_555 1_555
C28 O6 1_555 1_555
N2 N3 1_555 1_555
C5G N1G 1_555 1_555
C10G C11G 1_555 1_555
C12G N2G 1_555 1_555
C13G N4G 1_555 1_555
C18G C19G 1_555 1_555
C23G C24G 1_555 1_555
C23G N6G 1_555 1_555
N2G N3G 1_555 1_555

#END
