
#######################################################################
#
#                 Cambridge Crystallographic Data Centre
#                                CCDC 
#
#######################################################################
#
# If this CIF has been generated from an entry in the Cambridge 
# Structural Database, then it will include bibliographic, chemical, 
# crystal, experimental, refinement or atomic coordinate data resulting 
# from the CCDC's data processing and validation procedures.
#
#######################################################################

data_OKIVAG01
_symmetry_cell_setting           tetragonal
_symmetry_space_group_name_H-M   'P 43 21 2'
_symmetry_Int_Tables_number      96
_space_group_name_Hall           'P 4nw 2abw'
loop_
_symmetry_equiv_pos_site_id
_symmetry_equiv_pos_as_xyz
1 x,y,z
2 -x,-y,1/2+z
3 1/2-y,1/2+x,3/4+z
4 1/2+y,1/2-x,1/4+z
5 1/2-x,1/2+y,3/4-z
6 1/2+x,1/2-y,1/4-z
7 y,x,-z
8 -y,-x,1/2-z
_cell_length_a                   15.8926(19)
_cell_length_b                   15.8926(19)
_cell_length_c                   21.972(5)
_cell_angle_alpha                90
_cell_angle_beta                 90
_cell_angle_gamma                90
_cell_volume                     5549.57
loop_
_atom_site_label
_atom_site_type_symbol
_atom_site_fract_x
_atom_site_fract_y
_atom_site_fract_z
C1 C -0.4154(4) -0.3601(4) -0.3622(3)
H1 H -0.4644 -0.3905 -0.3510
C2 C -0.3873(4) -0.2974(4) -0.3232(3)
H2 H -0.4181 -0.2849 -0.2873
C3 C -0.3135(4) -0.2525(4) -0.3365(3)
C4 C -0.2713(4) -0.2804(4) -0.3876(3)
H3 H -0.2178 -0.2572 -0.3970
C5 C -0.3050(4) -0.3410(4) -0.4252(3)
H4 H -0.2752 -0.3561 -0.4611
C6 C -0.2832(4) -0.1813(4) -0.2993(3)
C7 C -0.3089(4) -0.1676(4) -0.2399(3)
H5 H -0.3489 -0.2045 -0.2219
C8 C -0.2775(5) -0.1015(5) -0.2065(3)
H6 H -0.2959 -0.0935 -0.1658
C9 C -0.2194(5) -0.0465(4) -0.2314(3)
H7 H -0.1988 -0.0002 -0.2084
C10 C -0.1915(4) -0.0602(3) -0.2914(2)
C11 C -0.2236(4) -0.1253(4) -0.3244(3)
H8 H -0.2055 -0.1332 -0.3652
C12 C -0.1284(4) -0.0041(4) -0.3205(2)
C13 C -0.0774(3) 0.0913(3) -0.3812(2)
C14 C -0.0686(4) 0.1598(4) -0.4253(3)
C15 C 0.0021(5) 0.1621(4) -0.4612(3)
H9 H 0.0437 0.1195 -0.4579
C16 C 0.0118(5) 0.2283(4) -0.5030(4)
H10 H 0.0603 0.2296 -0.5283
C17 C -0.0459(5) 0.2900(4) -0.5081(4)
H11 H -0.0380 0.3338 -0.5370
C18 C -0.1186(4) 0.2900(4) -0.4704(3)
C19 C -0.1285(4) 0.2246(4) -0.4295(3)
H12 H -0.1765 0.2234 -0.4038
C20 C -0.1835(4) 0.3571(4) -0.4767(3)
C21 C -0.2391(5) 0.3759(5) -0.4293(3)
H13 H -0.2330 0.3487 -0.3911
C22 C -0.3025(5) 0.4335(4) -0.4375(3)
H14 H -0.3390 0.4452 -0.4043
C23 C -0.2602(5) 0.4582(5) -0.5344(3)
H15 H -0.2661 0.4877 -0.5718
C24 C -0.1947(4) 0.4008(5) -0.5287(3)
H16 H -0.1573 0.3922 -0.5618
Cd1 Cd 0.05630(2) -0.05630(2) -0.2500
N1 N -0.3788(3) -0.3796(4) -0.4130(2)
N2 N -0.0149(3) 0.0558(3) -0.3540(2)
N3 N -0.0475(3) -0.0052(3) -0.3163(2)
N4 N -0.1503(3) 0.0561(3) -0.3616(2)
N5 N -0.2318(4) 0.0741(3) -0.3835(3)
H21 H -0.2606 0.0253 -0.3891
H22 H -0.2594 0.1067 -0.3560
N6 N -0.3150(3) 0.4738(3) -0.4901(2)
C1G C 0.3601(4) 0.4154(4) -0.1378(3)
H1G H 0.3905 0.4644 -0.1490
C2G C 0.2974(4) 0.3873(4) -0.1768(3)
H2G H 0.2849 0.4181 -0.2127
C3G C 0.2525(4) 0.3135(4) -0.1635(3)
C4G C 0.2804(4) 0.2713(4) -0.1124(3)
H3G H 0.2572 0.2178 -0.1030
C5G C 0.3410(4) 0.3050(4) -0.0748(3)
H4G H 0.3561 0.2752 -0.0389
C6G C 0.1813(4) 0.2832(4) -0.2007(3)
C7G C 0.1676(4) 0.3089(4) -0.2601(3)
H5G H 0.2045 0.3489 -0.2781
C8G C 0.1015(5) 0.2775(5) -0.2935(3)
H6G H 0.0935 0.2959 -0.3342
C9G C 0.0465(4) 0.2194(5) -0.2686(3)
H7G H 0.0002 0.1988 -0.2916
C10G C 0.0602(3) 0.1915(4) -0.2086(2)
C11G C 0.1253(4) 0.2236(4) -0.1756(3)
H8G H 0.1332 0.2055 -0.1348
C12G C 0.0041(4) 0.1284(4) -0.1795(2)
C13G C -0.0913(3) 0.0774(3) -0.1188(2)
C14G C -0.1598(4) 0.0686(4) -0.0747(3)
C15G C -0.1621(4) -0.0021(5) -0.0388(3)
H9G H -0.1195 -0.0437 -0.0421
C16G C -0.2283(4) -0.0118(5) 0.0030(4)
H10G H -0.2296 -0.0603 0.0283
C17G C -0.2900(4) 0.0459(5) 0.0081(4)
H11G H -0.3338 0.0380 0.0370
C18G C -0.2900(4) 0.1186(4) -0.0296(3)
C19G C -0.2246(4) 0.1285(4) -0.0705(3)
H12G H -0.2234 0.1765 -0.0962
C20G C -0.3571(4) 0.1835(4) -0.0233(3)
C21G C -0.3759(5) 0.2391(5) -0.0707(3)
H13G H -0.3487 0.2330 -0.1089
C22G C -0.4335(4) 0.3025(5) -0.0625(3)
H14G H -0.4452 0.3390 -0.0957
C23G C -0.4582(5) 0.2602(5) 0.0344(3)
H15G H -0.4877 0.2661 0.0718
C24G C -0.4008(5) 0.1947(4) 0.0287(3)
H16G H -0.3922 0.1573 0.0618
Cd1B Cd -0.44370(2) -0.44370(2) -0.5000
Cd1C Cd 0.44370(2) 0.44370(2) 0.0000
Cd1B_2 Cd -0.44370(2) 0.55630(2) -0.5000
Cd1C_2 Cd -0.55630(2) 0.44370(2) 0.0000
N1E N 0.1212(3) -0.1204(4) -0.3370(2)
N1C N 0.1204(4) -0.1212(3) -0.1630(2)
N1G N 0.3796(4) 0.3788(3) -0.0870(2)
N2G N -0.0558(3) 0.0149(3) -0.1460(2)
N3G N 0.0052(3) 0.0475(3) -0.1837(2)
N4G N -0.0561(3) 0.1503(3) -0.1384(2)
N5G N -0.0741(3) 0.2318(4) -0.1165(3)
H21G H -0.0253 0.2606 -0.1109
H22G H -0.1067 0.2594 -0.1440
N6E N 0.1850(3) 0.0262(3) -0.2599(2)
N6C N -0.0262(3) -0.1850(3) -0.2401(2)
N6G N -0.4738(3) 0.3150(3) -0.0099(2)
C25 C 1.0595(13) -0.6159(11) -0.0292(10)
H17 H 1.0790 -0.6505 -0.0615
C26 C 0.9965(12) -0.5584(12) -0.0298(8)
H18 H 0.9623 -0.5446 -0.0638
C27 C 0.9901(9) -0.5215(8) 0.0304(8)
C28 C 1.0498(13) -0.5564(14) 0.0687(8)
H19 H 1.0612 -0.5453 0.1103
C29 C 0.9275(11) -0.4582(10) 0.0422(11)
H20 H 0.8876 -0.4364 0.0142
O1 O 1.0877(11) -0.6116(11) 0.0294(11)
O2 O 0.9361(18) -0.4377(16) 0.0966(11)
Cl1 Cl 0.11959(15) -0.88041(15) 0.0000
O6 O 0.1760(11) -0.9016(10) -0.0497(7)
O7 O 0.0623(14) -0.8483(14) -0.0344(9)
O6F O 0.0984(10) -0.8240(11) 0.0497(7)
O7F O 0.1517(14) -0.9377(14) 0.0344(9)
Cl2 Cl 0.73117(15) -0.26883(15) 0.0000
O3 O 0.7610(10) -0.2287(8) -0.0503(3)
O5 O 0.6632(10) -0.2153(12) 0.002(2)
O3F O 0.7713(8) -0.2390(10) 0.0503(3)
O5F O 0.7847(12) -0.3368(10) -0.002(2)
O4? O 0.6710(4) -0.3290(4) 0.0000
loop_
_geom_bond_atom_site_label_1
_geom_bond_atom_site_label_2
_geom_bond_site_symmetry_1
_geom_bond_site_symmetry_2
C1 H1 1_555 1_555
C2 C1 1_555 1_555
H2 C2 1_555 1_555
C3 C2 1_555 1_555
C4 C3 1_555 1_555
H3 C4 1_555 1_555
C5 C4 1_555 1_555
H4 C5 1_555 1_555
C6 C3 1_555 1_555
C7 C6 1_555 1_555
H5 C7 1_555 1_555
C8 C7 1_555 1_555
H6 C8 1_555 1_555
C9 C8 1_555 1_555
H7 C9 1_555 1_555
C10 C9 1_555 1_555
C11 C6 1_555 1_555
H8 C11 1_555 1_555
C12 C10 1_555 1_555
C13 C14 1_555 1_555
C14 C15 1_555 1_555
C15 H9 1_555 1_555
C16 C15 1_555 1_555
H10 C16 1_555 1_555
C17 C16 1_555 1_555
H11 C17 1_555 1_555
C18 C17 1_555 1_555
C19 C14 1_555 1_555
H12 C19 1_555 1_555
C20 C18 1_555 1_555
C21 C20 1_555 1_555
H13 C21 1_555 1_555
C22 C21 1_555 1_555
H14 C22 1_555 1_555
C23 H15 1_555 1_555
C24 C20 1_555 1_555
H16 C24 1_555 1_555
C25 H17 1_555 1_555
C26 C25 1_555 1_555
H18 C26 1_555 1_555
C27 C26 1_555 1_555
C28 C27 1_555 1_555
H19 C28 1_555 1_555
C29 C27 1_555 1_555
H20 C29 1_555 1_555
O1 C25 1_555 1_555
O2 C29 1_555 1_555
Cd1 N3 1_555 1_555
Cl1 O6 1_555 1_555
Cl2 O3 1_555 1_555
N1 C1 1_555 1_555
N2 C13 1_555 1_555
N3 C12 1_555 1_555
N4 C12 1_555 1_555
N5 N4 1_555 1_555
H21 N5 1_555 1_555
H22 N5 1_555 1_555
N6 C22 1_555 1_555
O5 Cl2 1_555 1_555
O7 Cl1 1_555 1_555
C1G H1G 1_555 1_555
C2G C1G 1_555 1_555
H2G C2G 1_555 1_555
C3G C2G 1_555 1_555
C4G C3G 1_555 1_555
H3G C4G 1_555 1_555
C5G C4G 1_555 1_555
H4G C5G 1_555 1_555
C6G C3G 1_555 1_555
C7G C6G 1_555 1_555
H5G C7G 1_555 1_555
C8G C7G 1_555 1_555
H6G C8G 1_555 1_555
C9G C8G 1_555 1_555
H7G C9G 1_555 1_555
C10G C9G 1_555 1_555
C11G C6G 1_555 1_555
H8G C11G 1_555 1_555
C12G C10G 1_555 1_555
C13G C14G 1_555 1_555
C14G C15G 1_555 1_555
C15G H9G 1_555 1_555
C16G C15G 1_555 1_555
H10G C16G 1_555 1_555
C17G C16G 1_555 1_555
H11G C17G 1_555 1_555
C18G C17G 1_555 1_555
C19G C14G 1_555 1_555
H12G C19G 1_555 1_555
C20G C18G 1_555 1_555
C21G C20G 1_555 1_555
H13G C21G 1_555 1_555
C22G C21G 1_555 1_555
H14G C22G 1_555 1_555
C23G H15G 1_555 1_555
C24G C20G 1_555 1_555
H16G C24G 1_555 1_555
Cd1B N1 1_555 1_555
Cd1C N1G 1_555 1_555
Cd1B_2 N6 1_555 1_555
Cd1C_2 N6G 1_555 1_555
N1E Cd1 1_555 1_555
N1C Cd1 1_555 1_555
N1G C1G 1_555 1_555
N2G C13G 1_555 1_555
N3G Cd1 1_555 1_555
N4G C12G 1_555 1_555
N5G N4G 1_555 1_555
H21G N5G 1_555 1_555
H22G N5G 1_555 1_555
N6E Cd1 1_555 1_555
N6C Cd1 1_555 1_555
N6G C22G 1_555 1_555
O3F Cl2 1_555 1_555
O5F Cl2 1_555 1_555
O6F Cl1 1_555 1_555
O7F Cl1 1_555 1_555
C5 N1 1_555 1_555
C10 C11 1_555 1_555
C13 N4 1_555 1_555
C18 C19 1_555 1_555
C23 C24 1_555 1_555
C23 N6 1_555 1_555
C28 O1 1_555 1_555
N2 N3 1_555 1_555
C5G N1G 1_555 1_555
C10G C11G 1_555 1_555
C12G N3G 1_555 1_555
C13G N4G 1_555 1_555
C18G C19G 1_555 1_555
C23G C24G 1_555 1_555
C23G N6G 1_555 1_555
N2G N3G 1_555 1_555

#END
