
#######################################################################
#
#                 Cambridge Crystallographic Data Centre
#                                CCDC 
#
#######################################################################
#
# If this CIF has been generated from an entry in the Cambridge 
# Structural Database, then it will include bibliographic, chemical, 
# crystal, experimental, refinement or atomic coordinate data resulting 
# from the CCDC's data processing and validation procedures.
#
#######################################################################

data_OKIVIO02
_symmetry_cell_setting           tetragonal
_symmetry_space_group_name_H-M   'P 41 21 2'
_symmetry_Int_Tables_number      92
_space_group_name_Hall           'P 4abw 2nw'
loop_
_symmetry_equiv_pos_site_id
_symmetry_equiv_pos_as_xyz
1 x,y,z
2 -x,-y,1/2+z
3 1/2-y,1/2+x,1/4+z
4 1/2+y,1/2-x,3/4+z
5 1/2-x,1/2+y,1/4-z
6 1/2+x,1/2-y,3/4-z
7 y,x,-z
8 -y,-x,1/2-z
_cell_length_a                   15.8271(9)
_cell_length_b                   15.8271(9)
_cell_length_c                   21.856(2)
_cell_angle_alpha                90
_cell_angle_beta                 90
_cell_angle_gamma                90
_cell_volume                     5474.86
loop_
_atom_site_label
_atom_site_type_symbol
_atom_site_fract_x
_atom_site_fract_y
_atom_site_fract_z
C1 C -0.4155(4) -0.3593(4) 0.3606(3)
H1 H -0.4647 -0.3880 0.3501
C2 C -0.3866(3) -0.2983(4) 0.3218(3)
H2 H -0.4166 -0.2859 0.2864
C3 C -0.3125(3) -0.2543(4) 0.3350(2)
C4 C -0.2688(4) -0.2824(4) 0.3861(3)
H3 H -0.2159 -0.2598 0.3950
C5 C -0.3028(4) -0.3437(4) 0.4239(3)
H4 H -0.2729 -0.3601 0.4585
C6 C -0.2813(3) -0.1822(3) 0.2977(2)
C7 C -0.3084(4) -0.1679(4) 0.2382(2)
H5 H -0.3476 -0.2042 0.2204
C8 C -0.2777(5) -0.1007(4) 0.2057(3)
H6 H -0.2970 -0.0916 0.1660
C9 C -0.2189(4) -0.0460(4) 0.2302(2)
H7 H -0.1988 -0.0006 0.2075
C10 C -0.1900(4) -0.0601(3) 0.2899(2)
C11 C -0.2223(4) -0.1272(4) 0.3229(2)
H8 H -0.2042 -0.1358 0.3629
C12 C -0.1275(3) -0.0041(3) 0.3195(2)
C13 C -0.0768(3) 0.0910(3) 0.3817(2)
C14 C -0.0689(3) 0.1606(3) 0.4256(2)
C15 C 0.0026(4) 0.1611(4) 0.4626(3)
H9 H 0.0425 0.1183 0.4595
C16 C 0.0135(4) 0.2267(4) 0.5043(4)
H10 H 0.0614 0.2280 0.5289
C17 C -0.0460(4) 0.2893(4) 0.5094(3)
H11 H -0.0394 0.3317 0.5385
C18 C -0.1157(4) 0.2895(4) 0.4714(3)
C19 C -0.1264(4) 0.2242(3) 0.4300(3)
H12 H -0.1737 0.2238 0.4048
C20 C -0.1823(4) 0.3575(4) 0.4774(3)
C21 C -0.1925(4) 0.4032(4) 0.5305(3)
H13 H -0.1549 0.3960 0.5628
C22 C -0.2589(4) 0.4600(4) 0.5357(3)
H14 H -0.2652 0.4888 0.5725
C23 C -0.3017(4) 0.4328(4) 0.4389(3)
H15 H -0.3388 0.4427 0.4067
C24 C -0.2386(4) 0.3758(4) 0.4299(3)
H16 H -0.2330 0.3491 0.3922
Cd1 Cd 0.05770(2) -0.05770(2) 0.2500
N1 N -0.3774(3) -0.3801(3) 0.4125(2)
N2 N -0.0460(3) -0.0061(3) 0.3150(2)
N3 N -0.0133(3) 0.0549(3) 0.3544(2)
N4 N -0.1501(3) 0.0558(3) 0.36081(19)
N5 N -0.2316(4) 0.0730(3) 0.3826(3)
H21 H -0.2574 0.0244 0.3909
H22 H -0.2605 0.1007 0.3542
N6 N -0.3139(3) 0.4758(3) 0.4913(2)
C1G C 0.3593(4) 0.4155(4) 0.1394(3)
H1G H 0.3880 0.4647 0.1499
C2G C 0.2983(4) 0.3866(3) 0.1782(3)
H2G H 0.2859 0.4166 0.2136
C3G C 0.2543(4) 0.3125(3) 0.1650(2)
C4G C 0.2824(4) 0.2688(4) 0.1139(3)
H3G H 0.2598 0.2159 0.1050
C5G C 0.3437(4) 0.3028(4) 0.0761(3)
H4G H 0.3601 0.2729 0.0415
C6G C 0.1822(3) 0.2813(3) 0.2023(2)
C7G C 0.1679(4) 0.3084(4) 0.2618(2)
H5G H 0.2042 0.3476 0.2796
C8G C 0.1007(4) 0.2777(5) 0.2943(3)
H6G H 0.0916 0.2970 0.3340
C9G C 0.0460(4) 0.2189(4) 0.2698(2)
H7G H 0.0006 0.1988 0.2925
C10G C 0.0601(3) 0.1900(4) 0.2101(2)
C11G C 0.1272(4) 0.2223(4) 0.1771(2)
H8G H 0.1358 0.2042 0.1371
C12G C 0.0041(3) 0.1275(3) 0.1805(2)
C13G C -0.0910(3) 0.0768(3) 0.1183(2)
C14G C -0.1606(3) 0.0689(3) 0.0744(2)
C15G C -0.1611(4) -0.0026(4) 0.0374(3)
H9G H -0.1183 -0.0425 0.0405
C16G C -0.2267(4) -0.0135(4) -0.0043(4)
H10G H -0.2280 -0.0614 -0.0289
C17G C -0.2893(4) 0.0460(4) -0.0094(3)
H11G H -0.3317 0.0394 -0.0385
C18G C -0.2895(4) 0.1157(4) 0.0286(3)
C19G C -0.2242(3) 0.1264(4) 0.0700(3)
H12G H -0.2238 0.1737 0.0952
C20G C -0.3575(4) 0.1823(4) 0.0226(3)
C21G C -0.4032(4) 0.1925(4) -0.0305(3)
H13G H -0.3960 0.1549 -0.0628
C22G C -0.4600(4) 0.2589(4) -0.0357(3)
H14G H -0.4888 0.2652 -0.0725
C23G C -0.4328(4) 0.3017(4) 0.0611(3)
H15G H -0.4427 0.3388 0.0933
C24G C -0.3758(4) 0.2386(4) 0.0701(3)
H16G H -0.3491 0.2330 0.1078
Cd1B Cd -0.44230(2) -0.44230(2) 0.5000
Cd1C Cd 0.44230(2) 0.44230(2) 0.0000
Cd1B_2 Cd -0.44230(2) 0.55770(2) 0.5000
Cd1C_2 Cd -0.55770(2) 0.44230(2) 0.0000
N1E N 0.1226(3) -0.1199(3) 0.3375(2)
N1C N 0.1199(3) -0.1226(3) 0.1625(2)
N1G N 0.3801(3) 0.3774(3) 0.0875(2)
N2G N 0.0061(3) 0.0460(3) 0.1850(2)
N3G N -0.0549(3) 0.0133(3) 0.1456(2)
N4G N -0.0558(3) 0.1501(3) 0.13919(19)
N5G N -0.0730(3) 0.2316(4) 0.1174(3)
H21G H -0.0244 0.2574 0.1091
H22G H -0.1007 0.2605 0.1458
N6E N 0.1861(3) 0.0242(3) 0.2587(2)
N6C N -0.0242(3) -0.1861(3) 0.2413(2)
N6G N -0.4758(3) 0.3139(3) 0.0087(2)
C25 C 0.5860(7) -0.8702(9) -0.2692(7)
H17 H 0.6247 -0.8262 -0.2663
C26 C 0.5716(9) -0.9047(9) -0.3252(7)
H18 H 0.5963 -0.8894 -0.3622
C27 C 0.5066(8) -0.9736(8) -0.3144(6)
H19 H 0.4832 -1.0096 -0.3435
C28 C 0.4900(6) -0.9718(6) -0.2545(6)
C29 C 0.4293(7) -1.0306(6) -0.2270(5)
H20 H 0.4054 -1.0676 -0.2552
O5 O 0.4032(9) -1.0413(12) -0.1742(6)
S1 S 0.5373(4) -0.9028(4) -0.2045(4)
Cl1 Cl 0.12094(13) -0.87906(13) 0.0000
O3 O 0.1773(9) -0.8860(12) 0.0437(8)
O6 O 0.0553(9) -0.8644(15) 0.0322(5)
O3F O 0.1140(12) -0.8227(9) -0.0437(8)
O6F O 0.1356(15) -0.9447(9) -0.0322(5)
Cl2 Cl 0.73119(11) -0.26881(11) 0.0000
O1 O 0.7669(7) -0.2372(8) 0.0499(3)
O4 O 0.7882(12) -0.3325(13) -0.002(2)
O1F O 0.7628(8) -0.2331(7) -0.0499(3)
O4F O 0.6675(13) -0.2118(12) 0.002(2)
O2? O 0.6722(5) -0.3278(5) 0.0000
loop_
_geom_bond_atom_site_label_1
_geom_bond_atom_site_label_2
_geom_bond_site_symmetry_1
_geom_bond_site_symmetry_2
C1 H1 1_555 1_555
C2 C1 1_555 1_555
H2 C2 1_555 1_555
C3 C2 1_555 1_555
C4 C3 1_555 1_555
H3 C4 1_555 1_555
C5 C4 1_555 1_555
H4 C5 1_555 1_555
C6 C3 1_555 1_555
C7 C6 1_555 1_555
H5 C7 1_555 1_555
C8 C7 1_555 1_555
H6 C8 1_555 1_555
C9 C8 1_555 1_555
H7 C9 1_555 1_555
C10 C9 1_555 1_555
C11 C6 1_555 1_555
H8 C11 1_555 1_555
C12 C10 1_555 1_555
C13 C14 1_555 1_555
C14 C15 1_555 1_555
C15 H9 1_555 1_555
C16 C15 1_555 1_555
H10 C16 1_555 1_555
C17 C16 1_555 1_555
H11 C17 1_555 1_555
C18 C17 1_555 1_555
C19 C14 1_555 1_555
H12 C19 1_555 1_555
C20 C18 1_555 1_555
C21 C20 1_555 1_555
H13 C21 1_555 1_555
C22 C21 1_555 1_555
H14 C22 1_555 1_555
C23 H15 1_555 1_555
C24 C20 1_555 1_555
H16 C24 1_555 1_555
C25 H17 1_555 1_555
C26 C25 1_555 1_555
H18 C26 1_555 1_555
C27 C26 1_555 1_555
H19 C27 1_555 1_555
C28 C27 1_555 1_555
C29 C28 1_555 1_555
H20 C29 1_555 1_555
Cd1 N2 1_555 1_555
Cl1 O3 1_555 1_555
Cl2 O1 1_555 1_555
N1 C1 1_555 1_555
N2 C12 1_555 1_555
N3 C13 1_555 1_555
N4 C12 1_555 1_555
N5 N4 1_555 1_555
H21 N5 1_555 1_555
H22 N5 1_555 1_555
N6 C22 1_555 1_555
O4 Cl2 1_555 1_555
O5 C29 1_555 1_555
O6 Cl1 1_555 1_555
S1 C25 1_555 1_555
C1G H1G 1_555 1_555
C2G C1G 1_555 1_555
H2G C2G 1_555 1_555
C3G C2G 1_555 1_555
C4G C3G 1_555 1_555
H3G C4G 1_555 1_555
C5G C4G 1_555 1_555
H4G C5G 1_555 1_555
C6G C3G 1_555 1_555
C7G C6G 1_555 1_555
H5G C7G 1_555 1_555
C8G C7G 1_555 1_555
H6G C8G 1_555 1_555
C9G C8G 1_555 1_555
H7G C9G 1_555 1_555
C10G C9G 1_555 1_555
C11G C6G 1_555 1_555
H8G C11G 1_555 1_555
C12G C10G 1_555 1_555
C13G C14G 1_555 1_555
C14G C15G 1_555 1_555
C15G H9G 1_555 1_555
C16G C15G 1_555 1_555
H10G C16G 1_555 1_555
C17G C16G 1_555 1_555
H11G C17G 1_555 1_555
C18G C17G 1_555 1_555
C19G C14G 1_555 1_555
H12G C19G 1_555 1_555
C20G C18G 1_555 1_555
C21G C20G 1_555 1_555
H13G C21G 1_555 1_555
C22G C21G 1_555 1_555
H14G C22G 1_555 1_555
C23G H15G 1_555 1_555
C24G C20G 1_555 1_555
H16G C24G 1_555 1_555
Cd1B N1 1_555 1_555
Cd1C N1G 1_555 1_555
Cd1B_2 N6 1_555 1_555
Cd1C_2 N6G 1_555 1_555
N1E Cd1 1_555 1_555
N1C Cd1 1_555 1_555
N1G C1G 1_555 1_555
N2G Cd1 1_555 1_555
N3G C13G 1_555 1_555
N4G C12G 1_555 1_555
N5G N4G 1_555 1_555
H21G N5G 1_555 1_555
H22G N5G 1_555 1_555
N6E Cd1 1_555 1_555
N6C Cd1 1_555 1_555
N6G C22G 1_555 1_555
O1F Cl2 1_555 1_555
O3F Cl1 1_555 1_555
O4F Cl2 1_555 1_555
O6F Cl1 1_555 1_555
C5 N1 1_555 1_555
C10 C11 1_555 1_555
C13 N4 1_555 1_555
C18 C19 1_555 1_555
C23 C24 1_555 1_555
C23 N6 1_555 1_555
C28 S1 1_555 1_555
N2 N3 1_555 1_555
C5G N1G 1_555 1_555
C10G C11G 1_555 1_555
C12G N2G 1_555 1_555
C13G N4G 1_555 1_555
C18G C19G 1_555 1_555
C23G C24G 1_555 1_555
C23G N6G 1_555 1_555
N2G N3G 1_555 1_555

#END
