
#######################################################################
#
#                 Cambridge Crystallographic Data Centre
#                                CCDC 
#
#######################################################################
#
# If this CIF has been generated from an entry in the Cambridge 
# Structural Database, then it will include bibliographic, chemical, 
# crystal, experimental, refinement or atomic coordinate data resulting 
# from the CCDC's data processing and validation procedures.
#
#######################################################################

data_OKIVIO01
_symmetry_cell_setting           tetragonal
_symmetry_space_group_name_H-M   'P 41 21 2'
_symmetry_Int_Tables_number      92
_space_group_name_Hall           'P 4abw 2nw'
loop_
_symmetry_equiv_pos_site_id
_symmetry_equiv_pos_as_xyz
1 x,y,z
2 -x,-y,1/2+z
3 1/2-y,1/2+x,1/4+z
4 1/2+y,1/2-x,3/4+z
5 1/2-x,1/2+y,1/4-z
6 1/2+x,1/2-y,3/4-z
7 y,x,-z
8 -y,-x,1/2-z
_cell_length_a                   15.8440(10)
_cell_length_b                   15.8440(10)
_cell_length_c                   21.837(3)
_cell_angle_alpha                90
_cell_angle_beta                 90
_cell_angle_gamma                90
_cell_volume                     5481.79
loop_
_atom_site_label
_atom_site_type_symbol
_atom_site_fract_x
_atom_site_fract_y
_atom_site_fract_z
C1 C -0.4151(4) -0.3595(4) 0.3604(3)
H1 H -0.4639 -0.3886 0.3497
C2 C -0.3863(4) -0.2985(4) 0.3213(3)
H2 H -0.4160 -0.2865 0.2856
C3 C -0.3116(4) -0.2537(4) 0.3349(3)
C4 C -0.2681(4) -0.2821(4) 0.3864(3)
H3 H -0.2153 -0.2597 0.3956
C5 C -0.3024(4) -0.3428(4) 0.4239(3)
H4 H -0.2725 -0.3592 0.4586
C6 C -0.2808(4) -0.1813(4) 0.2973(3)
C7 C -0.3079(4) -0.1673(4) 0.2382(3)
H5 H -0.3475 -0.2033 0.2206
C8 C -0.2769(5) -0.1007(5) 0.2052(3)
H6 H -0.2952 -0.0926 0.1652
C9 C -0.2189(5) -0.0452(4) 0.2301(3)
H7 H -0.1993 0.0005 0.2075
C10 C -0.1900(4) -0.0594(4) 0.2901(3)
C11 C -0.2221(4) -0.1267(4) 0.3229(3)
H8 H -0.2041 -0.1355 0.3629
C12 C -0.1275(4) -0.0038(4) 0.3197(3)
C13 C -0.0763(4) 0.0916(3) 0.3822(2)
C14 C -0.0685(4) 0.1607(4) 0.4260(3)
C15 C 0.0030(5) 0.1617(5) 0.4628(3)
H9 H 0.0431 0.1191 0.4597
C16 C 0.0139(5) 0.2277(4) 0.5047(4)
H10 H 0.0615 0.2288 0.5296
C17 C -0.0454(5) 0.2906(4) 0.5093(3)
H11 H -0.0384 0.3335 0.5379
C18 C -0.1156(4) 0.2905(4) 0.4713(3)
C19 C -0.1267(4) 0.2249(4) 0.4304(3)
H12 H -0.1742 0.2241 0.4054
C20 C -0.1823(4) 0.3580(4) 0.4777(3)
C21 C -0.1927(4) 0.4032(5) 0.5311(3)
H13 H -0.1552 0.3958 0.5635
C22 C -0.2591(5) 0.4595(5) 0.5363(3)
H14 H -0.2660 0.4878 0.5733
C23 C -0.3011(5) 0.4335(4) 0.4388(3)
H15 H -0.3373 0.4445 0.4063
C24 C -0.2383(4) 0.3758(4) 0.4303(3)
H16 H -0.2330 0.3483 0.3928
Cd1 Cd 0.05772(2) -0.05772(2) 0.2500
N1 N -0.3775(3) -0.3796(4) 0.4126(2)
N2 N -0.0457(3) -0.0060(3) 0.3158(2)
N3 N -0.0128(3) 0.0552(3) 0.3550(2)
N4 N -0.1498(4) 0.0562(3) 0.3611(2)
N5 N -0.2310(4) 0.0738(3) 0.3829(3)
H21 H -0.2568 0.0252 0.3912
H22 H -0.2599 0.1015 0.3544
N6 N -0.3137(3) 0.4755(3) 0.4913(2)
C1G C 0.3595(4) 0.4151(4) 0.1396(3)
H1G H 0.3886 0.4639 0.1503
C2G C 0.2985(4) 0.3863(4) 0.1787(3)
H2G H 0.2865 0.4160 0.2144
C3G C 0.2537(4) 0.3116(4) 0.1651(3)
C4G C 0.2821(4) 0.2681(4) 0.1136(3)
H3G H 0.2597 0.2153 0.1044
C5G C 0.3428(4) 0.3024(4) 0.0761(3)
H4G H 0.3592 0.2725 0.0414
C6G C 0.1813(4) 0.2808(4) 0.2027(3)
C7G C 0.1673(4) 0.3079(4) 0.2618(3)
H5G H 0.2033 0.3475 0.2794
C8G C 0.1007(5) 0.2769(5) 0.2948(3)
H6G H 0.0926 0.2952 0.3348
C9G C 0.0452(4) 0.2189(5) 0.2699(3)
H7G H -0.0005 0.1993 0.2925
C10G C 0.0594(4) 0.1900(4) 0.2099(3)
C11G C 0.1267(4) 0.2221(4) 0.1771(3)
H8G H 0.1355 0.2041 0.1371
C12G C 0.0038(4) 0.1275(4) 0.1803(3)
C13G C -0.0916(3) 0.0763(4) 0.1178(2)
C14G C -0.1607(4) 0.0685(4) 0.0740(3)
C15G C -0.1617(5) -0.0030(5) 0.0372(3)
H9G H -0.1191 -0.0431 0.0403
C16G C -0.2277(4) -0.0139(5) -0.0047(4)
H10G H -0.2288 -0.0615 -0.0296
C17G C -0.2906(4) 0.0454(5) -0.0093(3)
H11G H -0.3335 0.0384 -0.0379
C18G C -0.2905(4) 0.1156(4) 0.0287(3)
C19G C -0.2249(4) 0.1267(4) 0.0696(3)
H12G H -0.2241 0.1742 0.0946
C20G C -0.3580(4) 0.1823(4) 0.0223(3)
C21G C -0.4032(5) 0.1927(4) -0.0311(3)
H13G H -0.3958 0.1552 -0.0635
C22G C -0.4595(5) 0.2591(5) -0.0363(3)
H14G H -0.4878 0.2660 -0.0733
C23G C -0.4335(4) 0.3011(5) 0.0612(3)
H15G H -0.4445 0.3373 0.0937
C24G C -0.3758(4) 0.2383(4) 0.0697(3)
H16G H -0.3483 0.2330 0.1072
Cd1B Cd -0.44228(2) -0.44228(2) 0.5000
Cd1C Cd 0.44228(2) 0.44228(2) 0.0000
Cd1B_2 Cd -0.44228(2) 0.55772(2) 0.5000
Cd1C_2 Cd -0.55772(2) 0.44228(2) 0.0000
N1E N 0.1225(3) -0.1204(4) 0.3374(2)
N1C N 0.1204(4) -0.1225(3) 0.1626(2)
N1G N 0.3796(4) 0.3775(3) 0.0874(2)
N2G N 0.0060(3) 0.0457(3) 0.1842(2)
N3G N -0.0552(3) 0.0128(3) 0.1450(2)
N4G N -0.0562(3) 0.1498(4) 0.1389(2)
N5G N -0.0738(3) 0.2310(4) 0.1171(3)
H21G H -0.0252 0.2568 0.1088
H22G H -0.1015 0.2599 0.1456
N6E N 0.1863(3) 0.0245(3) 0.2587(2)
N6C N -0.0245(3) -0.1863(3) 0.2413(2)
N6G N -0.4755(3) 0.3137(3) 0.0087(2)
C25 C 0.5853(7) -0.8704(9) -0.2691(7)
H17 H 0.6241 -0.8265 -0.2669
C26 C 0.5692(9) -0.9052(9) -0.3240(8)
H18 H 0.5929 -0.8901 -0.3614
C27 C 0.5047(9) -0.9739(8) -0.3128(7)
H19 H 0.4808 -1.0097 -0.3417
C28 C 0.4891(6) -0.9725(6) -0.2525(7)
C29 C 0.4279(8) -1.0329(7) -0.2266(7)
H20 H 0.4035 -1.0692 -0.2551
O5 O 0.4038(10) -1.0431(12) -0.1732(8)
S1 S 0.5379(5) -0.9032(5) -0.2040(5)
Cl1 Cl 0.12078(15) -0.87922(15) 0.0000
O3 O 0.1764(10) -0.8861(13) 0.0434(8)
O6 O 0.0575(9) -0.8629(15) 0.0325(5)
O3F O 0.1139(13) -0.8236(10) -0.0434(8)
O6F O 0.1371(15) -0.9425(9) -0.0325(5)
Cl2 Cl 0.73122(13) -0.26878(13) 0.0000
O1 O 0.7631(8) -0.2341(8) 0.0511(3)
O4 O 0.7881(15) -0.3347(13) 0.008(2)
O1F O 0.7659(8) -0.2369(8) -0.0511(3)
O4F O 0.6653(13) -0.2119(15) -0.008(2)
O2? O 0.6719(6) -0.3281(6) 0.0000
loop_
_geom_bond_atom_site_label_1
_geom_bond_atom_site_label_2
_geom_bond_site_symmetry_1
_geom_bond_site_symmetry_2
C1 H1 1_555 1_555
C2 C1 1_555 1_555
H2 C2 1_555 1_555
C3 C2 1_555 1_555
C4 C3 1_555 1_555
H3 C4 1_555 1_555
C5 C4 1_555 1_555
H4 C5 1_555 1_555
C6 C3 1_555 1_555
C7 C6 1_555 1_555
H5 C7 1_555 1_555
C8 C7 1_555 1_555
H6 C8 1_555 1_555
C9 C8 1_555 1_555
H7 C9 1_555 1_555
C10 C9 1_555 1_555
C11 C6 1_555 1_555
H8 C11 1_555 1_555
C12 C10 1_555 1_555
C13 C14 1_555 1_555
C14 C15 1_555 1_555
C15 H9 1_555 1_555
C16 C15 1_555 1_555
H10 C16 1_555 1_555
C17 C16 1_555 1_555
H11 C17 1_555 1_555
C18 C17 1_555 1_555
C19 C14 1_555 1_555
H12 C19 1_555 1_555
C20 C18 1_555 1_555
C21 C20 1_555 1_555
H13 C21 1_555 1_555
C22 C21 1_555 1_555
H14 C22 1_555 1_555
C23 H15 1_555 1_555
C24 C20 1_555 1_555
H16 C24 1_555 1_555
C25 H17 1_555 1_555
C26 C25 1_555 1_555
H18 C26 1_555 1_555
C27 C26 1_555 1_555
H19 C27 1_555 1_555
C28 C27 1_555 1_555
C29 C28 1_555 1_555
H20 C29 1_555 1_555
Cd1 N2 1_555 1_555
Cl1 O3 1_555 1_555
Cl2 O1 1_555 1_555
N1 C1 1_555 1_555
N2 C12 1_555 1_555
N3 C13 1_555 1_555
N4 C12 1_555 1_555
N5 N4 1_555 1_555
H21 N5 1_555 1_555
H22 N5 1_555 1_555
N6 C22 1_555 1_555
O4 Cl2 1_555 1_555
O5 C29 1_555 1_555
O6 Cl1 1_555 1_555
S1 C25 1_555 1_555
C1G H1G 1_555 1_555
C2G C1G 1_555 1_555
H2G C2G 1_555 1_555
C3G C2G 1_555 1_555
C4G C3G 1_555 1_555
H3G C4G 1_555 1_555
C5G C4G 1_555 1_555
H4G C5G 1_555 1_555
C6G C3G 1_555 1_555
C7G C6G 1_555 1_555
H5G C7G 1_555 1_555
C8G C7G 1_555 1_555
H6G C8G 1_555 1_555
C9G C8G 1_555 1_555
H7G C9G 1_555 1_555
C10G C9G 1_555 1_555
C11G C6G 1_555 1_555
H8G C11G 1_555 1_555
C12G C10G 1_555 1_555
C13G C14G 1_555 1_555
C14G C15G 1_555 1_555
C15G H9G 1_555 1_555
C16G C15G 1_555 1_555
H10G C16G 1_555 1_555
C17G C16G 1_555 1_555
H11G C17G 1_555 1_555
C18G C17G 1_555 1_555
C19G C14G 1_555 1_555
H12G C19G 1_555 1_555
C20G C18G 1_555 1_555
C21G C20G 1_555 1_555
H13G C21G 1_555 1_555
C22G C21G 1_555 1_555
H14G C22G 1_555 1_555
C23G H15G 1_555 1_555
C24G C20G 1_555 1_555
H16G C24G 1_555 1_555
Cd1B N1 1_555 1_555
Cd1C N1G 1_555 1_555
Cd1B_2 N6 1_555 1_555
Cd1C_2 N6G 1_555 1_555
N1E Cd1 1_555 1_555
N1C Cd1 1_555 1_555
N1G C1G 1_555 1_555
N2G Cd1 1_555 1_555
N3G C13G 1_555 1_555
N4G C12G 1_555 1_555
N5G N4G 1_555 1_555
H21G N5G 1_555 1_555
H22G N5G 1_555 1_555
N6E Cd1 1_555 1_555
N6C Cd1 1_555 1_555
N6G C22G 1_555 1_555
O1F Cl2 1_555 1_555
O3F Cl1 1_555 1_555
O4F Cl2 1_555 1_555
O6F Cl1 1_555 1_555
C5 N1 1_555 1_555
C10 C11 1_555 1_555
C13 N4 1_555 1_555
C18 C19 1_555 1_555
C23 C24 1_555 1_555
C23 N6 1_555 1_555
C28 S1 1_555 1_555
N2 N3 1_555 1_555
C5G N1G 1_555 1_555
C10G C11G 1_555 1_555
C12G N2G 1_555 1_555
C13G N4G 1_555 1_555
C18G C19G 1_555 1_555
C23G C24G 1_555 1_555
C23G N6G 1_555 1_555
N2G N3G 1_555 1_555

#END
