
#######################################################################
#
#                 Cambridge Crystallographic Data Centre
#                                CCDC 
#
#######################################################################
#
# If this CIF has been generated from an entry in the Cambridge 
# Structural Database, then it will include bibliographic, chemical, 
# crystal, experimental, refinement or atomic coordinate data resulting 
# from the CCDC's data processing and validation procedures.
#
#######################################################################

data_OKIVIO
_symmetry_cell_setting           tetragonal
_symmetry_space_group_name_H-M   'P 41 21 2'
_symmetry_Int_Tables_number      92
_space_group_name_Hall           'P 4abw 2nw'
loop_
_symmetry_equiv_pos_site_id
_symmetry_equiv_pos_as_xyz
1 x,y,z
2 -x,-y,1/2+z
3 1/2-y,1/2+x,1/4+z
4 1/2+y,1/2-x,3/4+z
5 1/2-x,1/2+y,1/4-z
6 1/2+x,1/2-y,3/4-z
7 y,x,-z
8 -y,-x,1/2-z
_cell_length_a                   15.8318(13)
_cell_length_b                   15.8318(13)
_cell_length_c                   21.957(4)
_cell_angle_alpha                90
_cell_angle_beta                 90
_cell_angle_gamma                90
_cell_volume                     5503.43
loop_
_atom_site_label
_atom_site_type_symbol
_atom_site_fract_x
_atom_site_fract_y
_atom_site_fract_z
C1 C -0.4162(4) -0.3593(4) 0.3610(3)
H1 H -0.4650 -0.3885 0.3503
C2 C -0.3876(4) -0.2982(4) 0.3226(3)
H2 H -0.4178 -0.2855 0.2874
C3 C -0.3129(4) -0.2542(4) 0.3355(3)
C4 C -0.2694(5) -0.2818(5) 0.3865(3)
H3 H -0.2168 -0.2588 0.3957
C5 C -0.3037(5) -0.3435(4) 0.4238(3)
H4 H -0.2735 -0.3603 0.4580
C6 C -0.2814(4) -0.1826(4) 0.2980(3)
C7 C -0.3080(4) -0.1682(4) 0.2383(3)
H5 H -0.3471 -0.2042 0.2203
C8 C -0.2767(6) -0.1009(5) 0.2063(3)
H6 H -0.2957 -0.0919 0.1667
C9 C -0.2187(5) -0.0467(4) 0.2302(3)
H7 H -0.1983 -0.0016 0.2073
C10 C -0.1900(4) -0.0603(4) 0.2904(3)
C11 C -0.2229(4) -0.1270(4) 0.3233(3)
H8 H -0.2056 -0.1349 0.3634
C12 C -0.1278(4) -0.0040(4) 0.3193(3)
C13 C -0.0767(4) 0.0912(4) 0.3821(3)
C14 C -0.0692(4) 0.1600(4) 0.4255(3)
C15 C 0.0023(5) 0.1609(5) 0.4627(3)
H9 H 0.0420 0.1178 0.4601
C16 C 0.0134(5) 0.2268(5) 0.5036(4)
H10 H 0.0620 0.2289 0.5273
C17 C -0.0465(5) 0.2888(4) 0.5096(3)
H11 H -0.0403 0.3304 0.5391
C18 C -0.1156(4) 0.2893(4) 0.4717(3)
C19 C -0.1265(4) 0.2238(4) 0.4302(3)
H12 H -0.1739 0.2236 0.4051
C20 C -0.1828(4) 0.3570(4) 0.4773(3)
C21 C -0.1930(5) 0.4024(5) 0.5307(3)
H13 H -0.1557 0.3949 0.5629
C22 C -0.2598(4) 0.4595(5) 0.5357(3)
H14 H -0.2665 0.4881 0.5724
C23 C -0.3009(5) 0.4329(4) 0.4388(3)
H15 H -0.3373 0.4436 0.4064
C24 C -0.2384(5) 0.3759(4) 0.4299(3)
H16 H -0.2325 0.3495 0.3923
Cd1 Cd 0.05741(2) -0.05741(2) 0.2500
N1 N -0.3781(4) -0.3796(4) 0.4129(2)
N2 N -0.0467(3) -0.0056(3) 0.3146(2)
N3 N -0.0137(4) 0.0552(3) 0.3543(2)
N4 N -0.1504(4) 0.0553(3) 0.3611(2)
N5 N -0.2317(4) 0.0719(4) 0.3827(3)
H21 H -0.2575 0.0233 0.3910
H22 H -0.2606 0.0996 0.3543
N6 N -0.3143(3) 0.4754(3) 0.4911(2)
C1G C 0.3593(4) 0.4162(4) 0.1390(3)
H1G H 0.3885 0.4650 0.1497
C2G C 0.2982(4) 0.3876(4) 0.1774(3)
H2G H 0.2855 0.4178 0.2126
C3G C 0.2542(4) 0.3129(4) 0.1645(3)
C4G C 0.2818(5) 0.2694(5) 0.1135(3)
H3G H 0.2588 0.2168 0.1043
C5G C 0.3435(4) 0.3037(5) 0.0762(3)
H4G H 0.3603 0.2735 0.0420
C6G C 0.1826(4) 0.2814(4) 0.2020(3)
C7G C 0.1682(4) 0.3080(4) 0.2617(3)
H5G H 0.2042 0.3471 0.2797
C8G C 0.1009(5) 0.2767(6) 0.2937(3)
H6G H 0.0919 0.2957 0.3333
C9G C 0.0467(4) 0.2187(5) 0.2698(3)
H7G H 0.0016 0.1983 0.2927
C10G C 0.0603(4) 0.1900(4) 0.2096(3)
C11G C 0.1270(4) 0.2229(4) 0.1767(3)
H8G H 0.1349 0.2056 0.1366
C12G C 0.0040(4) 0.1278(4) 0.1807(3)
C13G C -0.0912(4) 0.0767(4) 0.1179(3)
C14G C -0.1600(4) 0.0692(4) 0.0745(3)
C15G C -0.1609(5) -0.0023(5) 0.0373(3)
H9G H -0.1178 -0.0420 0.0399
C16G C -0.2268(5) -0.0134(5) -0.0036(4)
H10G H -0.2289 -0.0620 -0.0273
C17G C -0.2888(4) 0.0465(5) -0.0096(3)
H11G H -0.3304 0.0403 -0.0391
C18G C -0.2893(4) 0.1156(4) 0.0283(3)
C19G C -0.2238(4) 0.1265(4) 0.0698(3)
H12G H -0.2236 0.1739 0.0949
C20G C -0.3570(4) 0.1828(4) 0.0227(3)
C21G C -0.4024(5) 0.1930(5) -0.0307(3)
H13G H -0.3949 0.1557 -0.0629
C22G C -0.4595(5) 0.2598(4) -0.0357(3)
H14G H -0.4881 0.2665 -0.0724
C23G C -0.4329(4) 0.3009(5) 0.0612(3)
H15G H -0.4436 0.3373 0.0936
C24G C -0.3759(4) 0.2384(5) 0.0701(3)
H16G H -0.3495 0.2325 0.1077
Cd1B Cd -0.44259(2) -0.44259(2) 0.5000
Cd1C Cd 0.44259(2) 0.44259(2) 0.0000
Cd1B_2 Cd -0.44259(2) 0.55741(2) 0.5000
Cd1C_2 Cd -0.55741(2) 0.44259(2) 0.0000
N1E N 0.1219(4) -0.1204(4) 0.3371(2)
N1C N 0.1204(4) -0.1219(4) 0.1629(2)
N1G N 0.3796(4) 0.3781(4) 0.0871(2)
N2G N 0.0056(3) 0.0467(3) 0.1854(2)
N3G N -0.0552(3) 0.0137(4) 0.1457(2)
N4G N -0.0553(3) 0.1504(4) 0.1389(2)
N5G N -0.0719(4) 0.2317(4) 0.1173(3)
H21G H -0.0233 0.2575 0.1090
H22G H -0.0996 0.2606 0.1457
N6E N 0.1857(3) 0.0246(3) 0.2589(2)
N6C N -0.0246(3) -0.1857(3) 0.2411(2)
N6G N -0.4754(3) 0.3143(3) 0.0089(2)
C25 C 0.5863(8) -0.8699(9) -0.2690(7)
H17 H 0.6249 -0.8258 -0.2661
C26 C 0.5726(9) -0.9045(9) -0.3248(7)
H18 H 0.5977 -0.8894 -0.3615
C27 C 0.5076(8) -0.9730(8) -0.3140(6)
H19 H 0.4841 -1.0090 -0.3428
C28 C 0.4911(6) -0.9708(6) -0.2544(6)
C29 C 0.4305(6) -1.0296(5) -0.2267(5)
H20 H 0.4080 -1.0667 -0.2552
O5 O 0.4019(8) -1.0423(11) -0.1754(6)
S1 S 0.5374(4) -0.9019(4) -0.2043(4)
Cl1 Cl 0.12052(15) -0.87948(15) 0.0000
O3 O 0.1762(10) -0.8860(12) 0.0452(8)
O6 O 0.0546(10) -0.8655(18) 0.0320(5)
O3F O 0.1140(12) -0.8238(10) -0.0452(8)
O6F O 0.1345(18) -0.9454(10) -0.0320(5)
Cl2 Cl 0.73070(13) -0.26930(13) 0.0000
O1 O 0.7706(8) -0.2464(11) 0.0487(4)
O4 O 0.7862(13) -0.3300(15) -0.016(2)
O1F O 0.7536(11) -0.2294(8) -0.0487(4)
O4F O 0.6700(15) -0.2138(13) 0.016(2)
O2? O 0.6705(6) -0.3295(6) 0.0000
loop_
_geom_bond_atom_site_label_1
_geom_bond_atom_site_label_2
_geom_bond_site_symmetry_1
_geom_bond_site_symmetry_2
C1 H1 1_555 1_555
C2 C1 1_555 1_555
H2 C2 1_555 1_555
C3 C2 1_555 1_555
C4 C3 1_555 1_555
H3 C4 1_555 1_555
C5 C4 1_555 1_555
H4 C5 1_555 1_555
C6 C3 1_555 1_555
C7 C6 1_555 1_555
H5 C7 1_555 1_555
C8 C7 1_555 1_555
H6 C8 1_555 1_555
C9 C8 1_555 1_555
H7 C9 1_555 1_555
C10 C9 1_555 1_555
C11 C6 1_555 1_555
H8 C11 1_555 1_555
C12 C10 1_555 1_555
C13 C14 1_555 1_555
C14 C15 1_555 1_555
C15 H9 1_555 1_555
C16 C15 1_555 1_555
H10 C16 1_555 1_555
C17 C16 1_555 1_555
H11 C17 1_555 1_555
C18 C17 1_555 1_555
C19 C14 1_555 1_555
H12 C19 1_555 1_555
C20 C18 1_555 1_555
C21 C20 1_555 1_555
H13 C21 1_555 1_555
C22 C21 1_555 1_555
H14 C22 1_555 1_555
C23 H15 1_555 1_555
C24 C20 1_555 1_555
H16 C24 1_555 1_555
C25 H17 1_555 1_555
C26 C25 1_555 1_555
H18 C26 1_555 1_555
C27 C26 1_555 1_555
H19 C27 1_555 1_555
C28 C27 1_555 1_555
C29 C28 1_555 1_555
H20 C29 1_555 1_555
Cd1 N2 1_555 1_555
Cl1 O3 1_555 1_555
Cl2 O1 1_555 1_555
N1 C1 1_555 1_555
N2 C12 1_555 1_555
N3 C13 1_555 1_555
N4 C12 1_555 1_555
N5 N4 1_555 1_555
H21 N5 1_555 1_555
H22 N5 1_555 1_555
N6 C22 1_555 1_555
O4 Cl2 1_555 1_555
O5 C29 1_555 1_555
O6 Cl1 1_555 1_555
S1 C25 1_555 1_555
C1G H1G 1_555 1_555
C2G C1G 1_555 1_555
H2G C2G 1_555 1_555
C3G C2G 1_555 1_555
C4G C3G 1_555 1_555
H3G C4G 1_555 1_555
C5G C4G 1_555 1_555
H4G C5G 1_555 1_555
C6G C3G 1_555 1_555
C7G C6G 1_555 1_555
H5G C7G 1_555 1_555
C8G C7G 1_555 1_555
H6G C8G 1_555 1_555
C9G C8G 1_555 1_555
H7G C9G 1_555 1_555
C10G C9G 1_555 1_555
C11G C6G 1_555 1_555
H8G C11G 1_555 1_555
C12G C10G 1_555 1_555
C13G C14G 1_555 1_555
C14G C15G 1_555 1_555
C15G H9G 1_555 1_555
C16G C15G 1_555 1_555
H10G C16G 1_555 1_555
C17G C16G 1_555 1_555
H11G C17G 1_555 1_555
C18G C17G 1_555 1_555
C19G C14G 1_555 1_555
H12G C19G 1_555 1_555
C20G C18G 1_555 1_555
C21G C20G 1_555 1_555
H13G C21G 1_555 1_555
C22G C21G 1_555 1_555
H14G C22G 1_555 1_555
C23G H15G 1_555 1_555
C24G C20G 1_555 1_555
H16G C24G 1_555 1_555
Cd1B N1 1_555 1_555
Cd1C N1G 1_555 1_555
Cd1B_2 N6 1_555 1_555
Cd1C_2 N6G 1_555 1_555
N1E Cd1 1_555 1_555
N1C Cd1 1_555 1_555
N1G C1G 1_555 1_555
N2G Cd1 1_555 1_555
N3G C13G 1_555 1_555
N4G C12G 1_555 1_555
N5G N4G 1_555 1_555
H21G N5G 1_555 1_555
H22G N5G 1_555 1_555
N6E Cd1 1_555 1_555
N6C Cd1 1_555 1_555
N6G C22G 1_555 1_555
O1F Cl2 1_555 1_555
O3F Cl1 1_555 1_555
O4F Cl2 1_555 1_555
O6F Cl1 1_555 1_555
C5 N1 1_555 1_555
C10 C11 1_555 1_555
C13 N4 1_555 1_555
C18 C19 1_555 1_555
C23 C24 1_555 1_555
C23 N6 1_555 1_555
C28 S1 1_555 1_555
N2 N3 1_555 1_555
C5G N1G 1_555 1_555
C10G C11G 1_555 1_555
C12G N2G 1_555 1_555
C13G N4G 1_555 1_555
C18G C19G 1_555 1_555
C23G C24G 1_555 1_555
C23G N6G 1_555 1_555
N2G N3G 1_555 1_555

#END
