
#######################################################################
#
#                 Cambridge Crystallographic Data Centre
#                                CCDC 
#
#######################################################################
#
# If this CIF has been generated from an entry in the Cambridge 
# Structural Database, then it will include bibliographic, chemical, 
# crystal, experimental, refinement or atomic coordinate data resulting 
# from the CCDC's data processing and validation procedures.
#
#######################################################################

data_OKIWEL02
_symmetry_cell_setting           tetragonal
_symmetry_space_group_name_H-M   'P 43 21 2'
_symmetry_Int_Tables_number      96
_space_group_name_Hall           'P 4nw 2abw'
loop_
_symmetry_equiv_pos_site_id
_symmetry_equiv_pos_as_xyz
1 x,y,z
2 -x,-y,1/2+z
3 1/2-y,1/2+x,3/4+z
4 1/2+y,1/2-x,1/4+z
5 1/2-x,1/2+y,3/4-z
6 1/2+x,1/2-y,1/4-z
7 y,x,-z
8 -y,-x,1/2-z
_cell_length_a                   15.8721(9)
_cell_length_b                   15.8721(9)
_cell_length_c                   21.636(3)
_cell_angle_alpha                90
_cell_angle_beta                 90
_cell_angle_gamma                90
_cell_volume                     5450.62
loop_
_atom_site_label
_atom_site_type_symbol
_atom_site_fract_x
_atom_site_fract_y
_atom_site_fract_z
C1 C 0.9113(4) -0.1406(4) -0.3603(3)
H1 H 0.9607 -0.1104 -0.3493
C2 C 0.8833(4) -0.2022(4) -0.3202(3)
H2 H 0.9134 -0.2146 -0.2833
C3 C 0.8086(4) -0.2466(4) -0.3354(3)
C4 C 0.7675(4) -0.2198(4) -0.3870(3)
H3 H 0.7151 -0.2448 -0.3979
C5 C 0.8008(4) -0.1569(4) -0.4241(3)
H4 H 0.7697 -0.1387 -0.4591
C6 C 0.7794(4) -0.3190(4) -0.2978(3)
C7 C 0.8074(4) -0.3349(4) -0.2382(3)
H5 H 0.8481 -0.2989 -0.2198
C8 C 0.7766(5) -0.4028(5) -0.2054(4)
H6 H 0.7957 -0.4121 -0.1644
C9 C 0.7183(5) -0.4579(5) -0.2310(3)
H7 H 0.6992 -0.5059 -0.2088
C10 C 0.6887(4) -0.4404(3) -0.2901(3)
C11 C 0.7186(4) -0.3738(4) -0.3233(3)
H8 H 0.6984 -0.3641 -0.3640
C12 C 0.6261(4) -0.4969(4) -0.3200(3)
C13 C 0.5747(4) -0.5915(3) -0.3827(3)
C14 C 0.5667(4) -0.6624(4) -0.4271(3)
C15 C 0.4949(5) -0.6639(5) -0.4635(3)
H9 H 0.4539 -0.6206 -0.4602
C16 C 0.4841(5) -0.7301(5) -0.5049(4)
H10 H 0.4356 -0.7317 -0.5307
C17 C 0.5432(5) -0.7929(4) -0.5087(4)
H11 H 0.5347 -0.8377 -0.5372
C18 C 0.6152(4) -0.7928(4) -0.4719(3)
C19 C 0.6252(4) -0.7252(4) -0.4305(3)
H12 H 0.6733 -0.7234 -0.4045
C20 C 0.6807(4) -0.8585(4) -0.4775(3)
C21 C 0.6915(4) -0.9044(4) -0.5317(3)
H13 H 0.6528 -0.8978 -0.5648
C22 C 0.7586(4) -0.9600(4) -0.5376(3)
H14 H 0.7661 -0.9884 -0.5758
C23 C 0.8016(4) -0.9329(4) -0.4399(3)
H15 H 0.8400 -0.9427 -0.4070
C24 C 0.7374(4) -0.8755(4) -0.4305(3)
H16 H 0.7322 -0.8476 -0.3918
Cd1 Cd 0.44169(2) -0.44169(2) -0.2500
N1 N 0.8747(3) -0.1211(4) -0.4123(2)
N2 N 0.5444(3) -0.4939(3) -0.3163(2)
N3 N 0.5110(4) -0.5547(3) -0.3557(2)
N4 N 0.6481(4) -0.5576(3) -0.3615(2)
N5 N 0.7296(4) -0.5766(3) -0.3830(3)
H21 H 0.7572 -0.5279 -0.3920
H22 H 0.7580 -0.6048 -0.3531
N6 N 0.8129(3) -0.9752(3) -0.4920(3)
C1G C 0.1406(4) -0.9113(4) -0.1397(3)
H1G H 0.1104 -0.9607 -0.1507
C2G C 0.2022(4) -0.8833(4) -0.1798(3)
H2G H 0.2146 -0.9134 -0.2167
C3G C 0.2466(4) -0.8086(4) -0.1646(3)
C4G C 0.2198(4) -0.7675(4) -0.1130(3)
H3G H 0.2448 -0.7151 -0.1021
C5G C 0.1569(4) -0.8008(4) -0.0759(3)
H4G H 0.1387 -0.7697 -0.0409
C6G C 0.3190(4) -0.7794(4) -0.2022(3)
C7G C 0.3349(4) -0.8074(4) -0.2618(3)
H5G H 0.2989 -0.8481 -0.2802
C8G C 0.4028(5) -0.7766(5) -0.2946(4)
H6G H 0.4121 -0.7957 -0.3356
C9G C 0.4579(5) -0.7183(5) -0.2690(3)
H7G H 0.5059 -0.6992 -0.2912
C10G C 0.4404(3) -0.6887(4) -0.2099(3)
C11G C 0.3738(4) -0.7186(4) -0.1767(3)
H8G H 0.3641 -0.6984 -0.1360
C12G C 0.4969(4) -0.6261(4) -0.1800(3)
C13G C 0.5915(3) -0.5747(4) -0.1173(3)
C14G C 0.6624(4) -0.5667(4) -0.0729(3)
C15G C 0.6639(5) -0.4949(5) -0.0365(3)
H9G H 0.6206 -0.4539 -0.0398
C16G C 0.7301(5) -0.4841(5) 0.0049(4)
H10G H 0.7317 -0.4356 0.0307
C17G C 0.7929(4) -0.5432(5) 0.0087(4)
H11G H 0.8377 -0.5347 0.0372
C18G C 0.7928(4) -0.6152(4) -0.0281(3)
C19G C 0.7252(4) -0.6252(4) -0.0695(3)
H12G H 0.7234 -0.6733 -0.0955
C20G C 0.8585(4) -0.6807(4) -0.0225(3)
C21G C 0.9044(4) -0.6915(4) 0.0317(3)
H13G H 0.8978 -0.6528 0.0648
C22G C 0.9600(4) -0.7586(4) 0.0376(3)
H14G H 0.9884 -0.7661 0.0758
C23G C 0.9329(4) -0.8016(4) -0.0601(3)
H15G H 0.9427 -0.8400 -0.0930
C24G C 0.8755(4) -0.7374(4) -0.0695(3)
H16G H 0.8476 -0.7322 -0.1082
Cd1B Cd 0.94169(2) -0.05831(2) -0.5000
Cd1C Cd 0.05831(2) -0.94169(2) 0.0000
Cd1B_2 Cd 0.94169(2) -1.05831(2) -0.5000
Cd1C_2 Cd 1.05831(2) -0.94169(2) 0.0000
N1E N 0.3747(3) -0.3789(4) -0.3377(2)
N1C N 0.3789(4) -0.3747(3) -0.1623(2)
N1G N 0.1211(4) -0.8747(3) -0.0877(2)
N2G N 0.4939(3) -0.5444(3) -0.1837(2)
N3G N 0.5547(3) -0.5110(4) -0.1443(2)
N4G N 0.5576(3) -0.6481(4) -0.1385(2)
N5G N 0.5766(3) -0.7296(4) -0.1170(3)
H21G H 0.5279 -0.7572 -0.1080
H22G H 0.6048 -0.7580 -0.1469
N6E N 0.3129(3) -0.5248(3) -0.2580(3)
N6C N 0.5248(3) -0.3129(3) -0.2420(3)
N6G N 0.9752(3) -0.8129(3) -0.0080(3)
C25 C -0.3703(17) 0.072(2) 0.2786(8)
H17 H -0.3288 0.1077 0.2966
C26 C -0.4215(17) 0.023(2) 0.3128(12)
H18 H -0.4211 0.0199 0.3566
C27 C -0.4792(12) -0.0242(11) 0.2709(17)
C28 C -0.4632(12) -0.0046(13) 0.2119(17)
H19 H -0.4936 -0.0287 0.1785
C29 C -0.5475(16) -0.0863(15) 0.2828(15)
H20 H -0.5824 -0.1149 0.2539
O7 O -0.5475(17) -0.0916(16) 0.3403(14)
S1 S -0.3847(8) 0.0663(9) 0.2012(6)
Cl1 Cl -0.23077(14) -0.23077(14) 0.0000
O1 O -0.2613(7) -0.2681(7) -0.0528(3)
O2 O -0.2863(18) -0.1559(15) -0.008(2)
O1F O -0.2681(7) -0.2613(7) 0.0528(3)
O2F O -0.1559(15) -0.2863(18) 0.008(2)
Cl2 Cl -0.62008(16) -0.62008(16) 0.0000
O4 O -0.6547(14) -0.5528(17) 0.0308(10)
O5 O -0.6729(16) -0.5953(8) -0.0507(7)
O4F O -0.5528(17) -0.6547(14) -0.0308(10)
O5F O -0.5953(8) -0.6729(16) 0.0507(7)
O3? O -0.1708(6) -0.1708(6) 0.0000
O6? O -0.681(3) -0.681(3) 0.0000
loop_
_geom_bond_atom_site_label_1
_geom_bond_atom_site_label_2
_geom_bond_site_symmetry_1
_geom_bond_site_symmetry_2
C1 H1 1_555 1_555
C2 C1 1_555 1_555
H2 C2 1_555 1_555
C3 C2 1_555 1_555
C4 C3 1_555 1_555
H3 C4 1_555 1_555
C5 C4 1_555 1_555
H4 C5 1_555 1_555
C6 C3 1_555 1_555
C7 C6 1_555 1_555
H5 C7 1_555 1_555
C8 C7 1_555 1_555
H6 C8 1_555 1_555
C9 C8 1_555 1_555
H7 C9 1_555 1_555
C10 C9 1_555 1_555
C11 C6 1_555 1_555
H8 C11 1_555 1_555
C12 C10 1_555 1_555
C13 C14 1_555 1_555
C14 C15 1_555 1_555
C15 H9 1_555 1_555
C16 C15 1_555 1_555
H10 C16 1_555 1_555
C17 C16 1_555 1_555
H11 C17 1_555 1_555
C18 C17 1_555 1_555
C19 C14 1_555 1_555
H12 C19 1_555 1_555
C20 C18 1_555 1_555
C21 C20 1_555 1_555
H13 C21 1_555 1_555
C22 C21 1_555 1_555
H14 C22 1_555 1_555
C23 H15 1_555 1_555
C24 C20 1_555 1_555
H16 C24 1_555 1_555
C25 H17 1_555 1_555
C26 C25 1_555 1_555
H18 C26 1_555 1_555
C27 C26 1_555 1_555
C28 C27 1_555 1_555
H19 C28 1_555 1_555
C29 C27 1_555 1_555
H20 C29 1_555 1_555
Cd1 N2 1_555 1_555
Cl1 O1 1_555 1_555
Cl2 O4 1_555 1_555
N1 C1 1_555 1_555
N2 C12 1_555 1_555
N3 C13 1_555 1_555
N4 C12 1_555 1_555
N5 N4 1_555 1_555
H21 N5 1_555 1_555
H22 N5 1_555 1_555
N6 C22 1_555 1_555
O2 Cl1 1_555 1_555
O5 Cl2 1_555 1_555
O7 C29 1_555 1_555
S1 C25 1_555 1_555
C1G H1G 1_555 1_555
C2G C1G 1_555 1_555
H2G C2G 1_555 1_555
C3G C2G 1_555 1_555
C4G C3G 1_555 1_555
H3G C4G 1_555 1_555
C5G C4G 1_555 1_555
H4G C5G 1_555 1_555
C6G C3G 1_555 1_555
C7G C6G 1_555 1_555
H5G C7G 1_555 1_555
C8G C7G 1_555 1_555
H6G C8G 1_555 1_555
C9G C8G 1_555 1_555
H7G C9G 1_555 1_555
C10G C9G 1_555 1_555
C11G C6G 1_555 1_555
H8G C11G 1_555 1_555
C12G C10G 1_555 1_555
C13G C14G 1_555 1_555
C14G C15G 1_555 1_555
C15G H9G 1_555 1_555
C16G C15G 1_555 1_555
H10G C16G 1_555 1_555
C17G C16G 1_555 1_555
H11G C17G 1_555 1_555
C18G C17G 1_555 1_555
C19G C14G 1_555 1_555
H12G C19G 1_555 1_555
C20G C18G 1_555 1_555
C21G C20G 1_555 1_555
H13G C21G 1_555 1_555
C22G C21G 1_555 1_555
H14G C22G 1_555 1_555
C23G H15G 1_555 1_555
C24G C20G 1_555 1_555
H16G C24G 1_555 1_555
Cd1B N1 1_555 1_555
Cd1C N1G 1_555 1_555
Cd1B_2 N6 1_555 1_555
Cd1C_2 N6G 1_555 1_555
N1E Cd1 1_555 1_555
N1C Cd1 1_555 1_555
N1G C1G 1_555 1_555
N2G Cd1 1_555 1_555
N3G C13G 1_555 1_555
N4G C12G 1_555 1_555
N5G N4G 1_555 1_555
H21G N5G 1_555 1_555
H22G N5G 1_555 1_555
N6E Cd1 1_555 1_555
N6C Cd1 1_555 1_555
N6G C22G 1_555 1_555
O1F Cl1 1_555 1_555
O2F Cl1 1_555 1_555
O4F Cl2 1_555 1_555
O5F Cl2 1_555 1_555
C5 N1 1_555 1_555
C10 C11 1_555 1_555
C13 N4 1_555 1_555
C18 C19 1_555 1_555
C23 C24 1_555 1_555
C23 N6 1_555 1_555
C28 S1 1_555 1_555
N2 N3 1_555 1_555
C5G N1G 1_555 1_555
C10G C11G 1_555 1_555
C12G N2G 1_555 1_555
C13G N4G 1_555 1_555
C18G C19G 1_555 1_555
C23G C24G 1_555 1_555
C23G N6G 1_555 1_555
N2G N3G 1_555 1_555

#END
