
#######################################################################
#
#                 Cambridge Crystallographic Data Centre
#                                CCDC 
#
#######################################################################
#
# If this CIF has been generated from an entry in the Cambridge 
# Structural Database, then it will include bibliographic, chemical, 
# crystal, experimental, refinement or atomic coordinate data resulting 
# from the CCDC's data processing and validation procedures.
#
#######################################################################

data_OKIWEL
_symmetry_cell_setting           tetragonal
_symmetry_space_group_name_H-M   'P 43 21 2'
_symmetry_Int_Tables_number      96
_space_group_name_Hall           'P 4nw 2abw'
loop_
_symmetry_equiv_pos_site_id
_symmetry_equiv_pos_as_xyz
1 x,y,z
2 -x,-y,1/2+z
3 1/2-y,1/2+x,3/4+z
4 1/2+y,1/2-x,1/4+z
5 1/2-x,1/2+y,3/4-z
6 1/2+x,1/2-y,1/4-z
7 y,x,-z
8 -y,-x,1/2-z
_cell_length_a                   15.8731(10)
_cell_length_b                   15.8731(10)
_cell_length_c                   21.776(3)
_cell_angle_alpha                90
_cell_angle_beta                 90
_cell_angle_gamma                90
_cell_volume                     5486.58
loop_
_atom_site_label
_atom_site_type_symbol
_atom_site_fract_x
_atom_site_fract_y
_atom_site_fract_z
C1 C 0.9136(4) 0.8586(4) -0.3604(3)
H1 H 0.9635 0.8881 -0.3496
C2 C 0.8857(4) 0.7974(4) -0.3213(3)
H2 H 0.9161 0.7850 -0.2848
C3 C 0.8115(4) 0.7530(4) -0.3356(3)
C4 C 0.7686(4) 0.7806(4) -0.3872(3)
H3 H 0.7154 0.7569 -0.3972
C5 C 0.8028(4) 0.8425(5) -0.4242(3)
H4 H 0.7726 0.8591 -0.4599
C6 C 0.7815(4) 0.6807(4) -0.2984(3)
C7 C 0.8077(4) 0.6667(4) -0.2383(3)
H5 H 0.8474 0.7038 -0.2200
C8 C 0.7767(6) 0.5991(5) -0.2049(3)
H6 H 0.7955 0.5902 -0.1640
C9 C 0.7175(5) 0.5434(5) -0.2309(3)
H7 H 0.6970 0.4964 -0.2084
C10 C 0.6901(4) 0.5592(4) -0.2903(3)
C11 C 0.7215(4) 0.6251(4) -0.3235(3)
H8 H 0.7024 0.6336 -0.3644
C12 C 0.6281(4) 0.5031(4) -0.3197(3)
C13 C 0.5757(4) 0.4084(4) -0.3819(3)
C14 C 0.5674(4) 0.3384(4) -0.4263(3)
C15 C 0.4960(5) 0.3368(5) -0.4638(3)
H9 H 0.4552 0.3805 -0.4612
C16 C 0.4853(5) 0.2723(5) -0.5042(4)
H10 H 0.4362 0.2708 -0.5292
C17 C 0.5436(5) 0.2100(4) -0.5096(4)
H11 H 0.5352 0.1667 -0.5391
C18 C 0.6171(4) 0.2080(4) -0.4718(3)
C19 C 0.6269(4) 0.2749(4) -0.4301(3)
H12 H 0.6750 0.2766 -0.4043
C20 C 0.6819(4) 0.1423(4) -0.4780(3)
C21 C 0.6928(5) 0.0986(5) -0.5317(3)
H13 H 0.6556 0.1074 -0.5652
C22 C 0.7596(4) 0.0405(4) -0.5368(3)
H14 H 0.7662 0.0109 -0.5744
C23 C 0.8017(5) 0.0675(4) -0.4390(3)
H15 H 0.8396 0.0570 -0.4060
C24 C 0.7390(5) 0.1245(5) -0.4294(3)
H16 H 0.7336 0.1520 -0.3909
Cd1 Cd 0.44214(2) 0.55786(2) -0.2500
N1 N 0.8758(4) 0.8798(4) -0.4126(2)
N2 N 0.5448(3) 0.5054(3) -0.3160(2)
N3 N 0.5121(3) 0.4459(3) -0.3551(2)
N4 N 0.6493(4) 0.4434(3) -0.3609(2)
N5 N 0.7311(4) 0.4243(4) -0.3821(3)
H21 H 0.7587 0.4730 -0.3910
H22 H 0.7595 0.3961 -0.3522
N6 N 0.8139(3) 0.0250(3) -0.4916(3)
C1G C 0.1414(4) 0.0864(4) -0.1396(3)
H1G H 0.1119 0.0365 -0.1504
C2G C 0.2026(4) 0.1143(4) -0.1787(3)
H2G H 0.2150 0.0839 -0.2152
C3G C 0.2470(4) 0.1885(4) -0.1644(3)
C4G C 0.2194(4) 0.2314(4) -0.1128(3)
H3G H 0.2431 0.2846 -0.1028
C5G C 0.1575(5) 0.1972(4) -0.0758(3)
H4G H 0.1409 0.2274 -0.0401
C6G C 0.3193(4) 0.2185(4) -0.2016(3)
C7G C 0.3333(4) 0.1923(4) -0.2617(3)
H5G H 0.2962 0.1526 -0.2800
C8G C 0.4009(5) 0.2233(6) -0.2951(3)
H6G H 0.4098 0.2045 -0.3360
C9G C 0.4566(5) 0.2825(5) -0.2691(3)
H7G H 0.5036 0.3030 -0.2916
C10G C 0.4408(4) 0.3099(4) -0.2097(3)
C11G C 0.3749(4) 0.2785(4) -0.1765(3)
H8G H 0.3664 0.2976 -0.1356
C12G C 0.4969(4) 0.3719(4) -0.1803(3)
C13G C 0.5916(4) 0.4243(4) -0.1181(3)
C14G C 0.6616(4) 0.4326(4) -0.0737(3)
C15G C 0.6632(5) 0.5040(5) -0.0362(3)
H9G H 0.6195 0.5448 -0.0388
C16G C 0.7277(5) 0.5147(5) 0.0042(4)
H10G H 0.7292 0.5638 0.0292
C17G C 0.7900(4) 0.4564(5) 0.0096(4)
H11G H 0.8333 0.4648 0.0391
C18G C 0.7920(4) 0.3829(4) -0.0282(3)
C19G C 0.7251(4) 0.3731(4) -0.0699(3)
H12G H 0.7234 0.3250 -0.0957
C20G C 0.8577(4) 0.3181(4) -0.0220(3)
C21G C 0.9014(5) 0.3072(5) 0.0317(3)
H13G H 0.8926 0.3444 0.0652
C22G C 0.9595(4) 0.2404(4) 0.0368(3)
H14G H 0.9891 0.2338 0.0744
C23G C 0.9325(4) 0.1983(5) -0.0610(3)
H15G H 0.9430 0.1604 -0.0940
C24G C 0.8755(5) 0.2610(5) -0.0706(3)
H16G H 0.8480 0.2664 -0.1091
Cd1B Cd 0.94214(2) 0.94214(2) -0.5000
Cd1C Cd 0.05786(2) 0.05786(2) 0.0000
Cd1B_2 Cd 0.94214(2) -0.05786(2) -0.5000
Cd1C_2 Cd 1.05786(2) 0.05786(2) 0.0000
N1E N 0.3758(4) 0.6202(4) -0.3374(2)
N1C N 0.3798(4) 0.6242(4) -0.1626(2)
N1G N 0.1202(4) 0.1242(4) -0.0874(2)
N2G N 0.4946(3) 0.4552(3) -0.1840(2)
N3G N 0.5541(3) 0.4879(3) -0.1449(2)
N4G N 0.5566(3) 0.3507(4) -0.1391(2)
N5G N 0.5757(4) 0.2689(4) -0.1179(3)
H21G H 0.5270 0.2413 -0.1090
H22G H 0.6039 0.2405 -0.1478
N6E N 0.3139(3) 0.4750(3) -0.2584(3)
N6C N 0.5250(3) 0.6861(3) -0.2416(3)
N6G N 0.9750(3) 0.1861(3) -0.0084(3)
C25 C -0.3678(9) 0.0746(9) 0.2778(6)
H17 H -0.3265 0.1091 0.2969
C26 C -0.4211(10) 0.0246(9) 0.3081(8)
H18 H -0.4225 0.0189 0.3515
C27 C -0.4780(6) -0.0211(6) 0.2653(11)
C28 C -0.4628(7) -0.0025(7) 0.2070(11)
H19 H -0.4925 -0.0257 0.1731
C29 C -0.5446(9) -0.0820(8) 0.2834(10)
H20 H -0.5778 -0.1086 0.2527
O7 O -0.5567(10) -0.0983(8) 0.3382(8)
S1 S -0.3830(4) 0.0685(4) 0.2014(5)
Cl1 Cl -0.23162(13) 0.76838(13) 0.0000
O1 O -0.2613(8) 0.7273(7) -0.0522(3)
O2 O -0.2769(16) 0.8422(13) -0.0080(16)
O1F O -0.2727(7) 0.7387(8) 0.0522(3)
O2F O -0.1578(13) 0.7231(16) 0.0080(16)
Cl2 Cl -0.62109(16) 0.37891(16) 0.0000
O4 O -0.642(2) 0.4484(9) 0.0287(6)
O5 O -0.6645(18) 0.4030(9) -0.0534(6)
O4F O -0.5516(9) 0.358(2) -0.0287(6)
O5F O -0.5970(9) 0.3355(18) 0.0534(6)
O3? O -0.1722(7) 0.8278(7) 0.0000
O6? O -0.6856(17) 0.3144(17) 0.0000
loop_
_geom_bond_atom_site_label_1
_geom_bond_atom_site_label_2
_geom_bond_site_symmetry_1
_geom_bond_site_symmetry_2
C1 H1 1_555 1_555
C2 C1 1_555 1_555
H2 C2 1_555 1_555
C3 C2 1_555 1_555
C4 C3 1_555 1_555
H3 C4 1_555 1_555
C5 C4 1_555 1_555
H4 C5 1_555 1_555
C6 C3 1_555 1_555
C7 C6 1_555 1_555
H5 C7 1_555 1_555
C8 C7 1_555 1_555
H6 C8 1_555 1_555
C9 C8 1_555 1_555
H7 C9 1_555 1_555
C10 C9 1_555 1_555
C11 C6 1_555 1_555
H8 C11 1_555 1_555
C12 C10 1_555 1_555
C13 C14 1_555 1_555
C14 C15 1_555 1_555
C15 H9 1_555 1_555
C16 C15 1_555 1_555
H10 C16 1_555 1_555
C17 C16 1_555 1_555
H11 C17 1_555 1_555
C18 C17 1_555 1_555
C19 C14 1_555 1_555
H12 C19 1_555 1_555
C20 C18 1_555 1_555
C21 C20 1_555 1_555
H13 C21 1_555 1_555
C22 C21 1_555 1_555
H14 C22 1_555 1_555
C23 H15 1_555 1_555
C24 C20 1_555 1_555
H16 C24 1_555 1_555
C25 H17 1_555 1_555
C26 C25 1_555 1_555
H18 C26 1_555 1_555
C27 C26 1_555 1_555
C28 C27 1_555 1_555
H19 C28 1_555 1_555
C29 C27 1_555 1_555
H20 C29 1_555 1_555
Cd1 N2 1_555 1_555
Cl1 O1 1_555 1_555
Cl2 O4 1_555 1_555
N1 C1 1_555 1_555
N2 C12 1_555 1_555
N3 C13 1_555 1_555
N4 C12 1_555 1_555
N5 N4 1_555 1_555
H21 N5 1_555 1_555
H22 N5 1_555 1_555
N6 C22 1_555 1_555
O2 Cl1 1_555 1_555
O5 Cl2 1_555 1_555
O7 C29 1_555 1_555
S1 C25 1_555 1_555
C1G H1G 1_555 1_555
C2G C1G 1_555 1_555
H2G C2G 1_555 1_555
C3G C2G 1_555 1_555
C4G C3G 1_555 1_555
H3G C4G 1_555 1_555
C5G C4G 1_555 1_555
H4G C5G 1_555 1_555
C6G C3G 1_555 1_555
C7G C6G 1_555 1_555
H5G C7G 1_555 1_555
C8G C7G 1_555 1_555
H6G C8G 1_555 1_555
C9G C8G 1_555 1_555
H7G C9G 1_555 1_555
C10G C9G 1_555 1_555
C11G C6G 1_555 1_555
H8G C11G 1_555 1_555
C12G C10G 1_555 1_555
C13G C14G 1_555 1_555
C14G C15G 1_555 1_555
C15G H9G 1_555 1_555
C16G C15G 1_555 1_555
H10G C16G 1_555 1_555
C17G C16G 1_555 1_555
H11G C17G 1_555 1_555
C18G C17G 1_555 1_555
C19G C14G 1_555 1_555
H12G C19G 1_555 1_555
C20G C18G 1_555 1_555
C21G C20G 1_555 1_555
H13G C21G 1_555 1_555
C22G C21G 1_555 1_555
H14G C22G 1_555 1_555
C23G H15G 1_555 1_555
C24G C20G 1_555 1_555
H16G C24G 1_555 1_555
Cd1B N1 1_555 1_555
Cd1C N1G 1_555 1_555
Cd1B_2 N6 1_555 1_555
Cd1C_2 N6G 1_555 1_555
N1E Cd1 1_555 1_555
N1C Cd1 1_555 1_555
N1G C1G 1_555 1_555
N2G Cd1 1_555 1_555
N3G C13G 1_555 1_555
N4G C12G 1_555 1_555
N5G N4G 1_555 1_555
H21G N5G 1_555 1_555
H22G N5G 1_555 1_555
N6E Cd1 1_555 1_555
N6C Cd1 1_555 1_555
N6G C22G 1_555 1_555
O1F Cl1 1_555 1_555
O2F Cl1 1_555 1_555
O4F Cl2 1_555 1_555
O5F Cl2 1_555 1_555
C5 N1 1_555 1_555
C10 C11 1_555 1_555
C13 N4 1_555 1_555
C18 C19 1_555 1_555
C23 C24 1_555 1_555
C23 N6 1_555 1_555
C28 S1 1_555 1_555
N2 N3 1_555 1_555
C5G N1G 1_555 1_555
C10G C11G 1_555 1_555
C12G N2G 1_555 1_555
C13G N4G 1_555 1_555
C18G C19G 1_555 1_555
C23G C24G 1_555 1_555
C23G N6G 1_555 1_555
N2G N3G 1_555 1_555

#END
