
#######################################################################
#
#                 Cambridge Crystallographic Data Centre
#                                CCDC 
#
#######################################################################
#
# If this CIF has been generated from an entry in the Cambridge 
# Structural Database, then it will include bibliographic, chemical, 
# crystal, experimental, refinement or atomic coordinate data resulting 
# from the CCDC's data processing and validation procedures.
#
#######################################################################

data_OKIXIQ01
_symmetry_cell_setting           tetragonal
_symmetry_space_group_name_H-M   'P 41 21 2'
_symmetry_Int_Tables_number      92
_space_group_name_Hall           'P 4abw 2nw'
loop_
_symmetry_equiv_pos_site_id
_symmetry_equiv_pos_as_xyz
1 x,y,z
2 -x,-y,1/2+z
3 1/2-y,1/2+x,1/4+z
4 1/2+y,1/2-x,3/4+z
5 1/2-x,1/2+y,1/4-z
6 1/2+x,1/2-y,3/4-z
7 y,x,-z
8 -y,-x,1/2-z
_cell_length_a                   15.8725(12)
_cell_length_b                   15.8725(12)
_cell_length_c                   21.673(3)
_cell_angle_alpha                90
_cell_angle_beta                 90
_cell_angle_gamma                90
_cell_volume                     5460.21
loop_
_atom_site_label
_atom_site_type_symbol
_atom_site_fract_x
_atom_site_fract_y
_atom_site_fract_z
C1 C -0.0363(4) -0.2453(4) 0.7864(3)
H1 H -0.0048 -0.2411 0.8236
C2 C -0.0929(4) -0.3115(4) 0.7798(3)
H2 H -0.0982 -0.3521 0.8118
C3 C -0.1414(3) -0.3188(3) 0.7275(3)
C4 C -0.1268(4) -0.2585(4) 0.6811(3)
H3 H -0.1565 -0.2616 0.6431
C5 C -0.0696(4) -0.1955(4) 0.6909(3)
H4 H -0.0616 -0.1551 0.6591
C6 C -0.2082(3) -0.3847(4) 0.7213(3)
C7 C -0.2060(3) -0.4571(4) 0.7573(3)
H5 H -0.1614 -0.4655 0.7859
C8 C -0.2689(4) -0.5168(4) 0.7515(4)
H6 H -0.2661 -0.5667 0.7756
C9 C -0.3351(4) -0.5057(4) 0.7119(3)
H7 H -0.3782 -0.5470 0.7090
C10 C -0.3386(3) -0.4330(3) 0.6758(2)
C11 C -0.2743(3) -0.3731(3) 0.6804(3)
H8 H -0.2760 -0.3241 0.6552
C12 C -0.4084(3) -0.4250(3) 0.6317(2)
C13 C -0.5050(3) -0.3740(3) 0.5703(2)
C14 C -0.5609(3) -0.3121(3) 0.5403(2)
C15 C -0.5446(4) -0.2822(4) 0.4810(3)
H9 H -0.4969 -0.3016 0.4587
C16 C -0.5992(4) -0.2236(4) 0.4549(3)
H10 H -0.5891 -0.2036 0.4143
C17 C -0.6682(3) -0.1939(3) 0.4875(3)
H11 H -0.7048 -0.1535 0.4694
C18 C -0.6840(3) -0.2234(4) 0.5470(3)
C19 C -0.6299(4) -0.2829(4) 0.5721(3)
H12 H -0.6408 -0.3040 0.6123
C20 C -0.7565(4) -0.1915(4) 0.5846(3)
C21 C -0.7855(4) -0.2361(4) 0.6358(3)
H13 H -0.7643 -0.2908 0.6445
C22 C -0.8444(4) -0.2006(4) 0.6731(3)
H14 H -0.8611 -0.2310 0.7088
C23 C -0.8594(4) -0.0876(4) 0.6108(3)
H15 H -0.8876 -0.0367 0.6004
C24 C -0.7984(4) -0.1174(3) 0.5704(3)
H16 H -0.7857 -0.0875 0.5336
Cd1 Cd -0.55908(2) -0.55908(2) 0.5000
N1 N -0.0243(3) -0.1875(3) 0.7426(2)
N2 N -0.4452(3) -0.4880(3) 0.6050(2)
N3 N -0.5063(3) -0.4561(3) 0.5666(2)
N4 N -0.4446(3) -0.3513(3) 0.6110(2)
N5 N -0.4260(3) -0.2701(3) 0.6325(3)
H24 H -0.4093 -0.2376 0.6002
H25 H -0.4728 -0.2473 0.6499
N6 N -0.8806(3) -0.1256(3) 0.6628(2)
C1F C -0.2453(4) -0.0363(4) 0.2136(3)
H1F H -0.2411 -0.0048 0.1764
C2F C -0.3115(4) -0.0929(4) 0.2202(3)
H2F H -0.3521 -0.0982 0.1882
C3F C -0.3188(3) -0.1414(3) 0.2725(3)
C4F C -0.2585(4) -0.1268(4) 0.3189(3)
H3F H -0.2616 -0.1565 0.3569
C5F C -0.1955(4) -0.0696(4) 0.3091(3)
H4F H -0.1551 -0.0616 0.3409
C6F C -0.3847(4) -0.2082(3) 0.2787(3)
C7F C -0.4571(4) -0.2060(3) 0.2427(3)
H5F H -0.4655 -0.1614 0.2141
C8F C -0.5168(4) -0.2689(4) 0.2485(4)
H6F H -0.5667 -0.2661 0.2244
C9F C -0.5057(4) -0.3351(4) 0.2881(3)
H7F H -0.5470 -0.3782 0.2910
C10F C -0.4330(3) -0.3386(3) 0.3242(2)
C11F C -0.3731(3) -0.2743(3) 0.3196(3)
H8F H -0.3241 -0.2760 0.3448
C12F C -0.4250(3) -0.4084(3) 0.3683(2)
C13F C -0.3740(3) -0.5050(3) 0.4297(2)
C14F C -0.3121(3) -0.5609(3) 0.4597(2)
C15F C -0.2822(4) -0.5446(4) 0.5190(3)
H9F H -0.3016 -0.4969 0.5413
C16F C -0.2236(4) -0.5992(4) 0.5451(3)
H10F H -0.2036 -0.5891 0.5857
C17F C -0.1939(3) -0.6682(3) 0.5125(3)
H11F H -0.1535 -0.7048 0.5306
C18F C -0.2234(4) -0.6840(3) 0.4530(3)
C19F C -0.2829(4) -0.6299(4) 0.4279(3)
H12F H -0.3040 -0.6408 0.3877
C20F C -0.1915(4) -0.7565(4) 0.4154(3)
C21F C -0.2361(4) -0.7855(4) 0.3642(3)
H13F H -0.2908 -0.7643 0.3555
C22F C -0.2006(4) -0.8444(4) 0.3269(3)
H14F H -0.2310 -0.8611 0.2912
C23F C -0.0876(4) -0.8594(4) 0.3892(3)
H15F H -0.0367 -0.8876 0.3996
C24F C -0.1174(3) -0.7984(4) 0.4296(3)
H16F H -0.0875 -0.7857 0.4664
Cd1B Cd -0.94092(2) -0.05908(2) 0.7500
Cd1B_2 Cd 0.05908(2) -0.05908(2) 0.7500
Cd1C Cd -0.05908(2) -0.94092(2) 0.2500
Cd1C_2 Cd -0.05908(2) 0.05908(2) 0.2500
N1D N -0.4757(3) -0.6875(3) 0.5074(2)
N1C N -0.6875(3) -0.4757(3) 0.4926(2)
N1F N -0.1875(3) -0.0243(3) 0.2574(2)
N2F N -0.4880(3) -0.4452(3) 0.3950(2)
N3F N -0.4561(3) -0.5063(3) 0.4334(2)
N4F N -0.3513(3) -0.4446(3) 0.3890(2)
N5F N -0.2701(3) -0.4260(3) 0.3675(3)
H24F H -0.2376 -0.4093 0.3998
H25F H -0.2473 -0.4728 0.3501
N6C N -0.6256(3) -0.6194(3) 0.4128(2)
N6D N -0.6194(3) -0.6256(3) 0.5872(2)
N6F N -0.1256(3) -0.8806(3) 0.3372(2)
C25 C -0.4669(11) -0.9099(10) 0.2337(6)
C26 C -0.4263(9) -0.8810(8) 0.1810(8)
H17 H -0.3863 -0.8366 0.1839
C27 C -0.4442(10) -0.9170(9) 0.1240(6)
H18 H -0.4164 -0.8972 0.0880
C28 C -0.5026(10) -0.9819(9) 0.1198(5)
H19 H -0.5149 -1.0065 0.0808
C29 C -0.5432(7) -1.0108(7) 0.1725(7)
C30 C -0.5253(9) -0.9748(9) 0.2295(5)
H20 H -0.5531 -0.9946 0.2655
C31 C -0.6091(9) -1.0778(9) 0.1716(8)
H21 H -0.6594 -1.0567 0.1504
H22 H -0.6236 -1.0935 0.2140
H23 H -0.5875 -1.1274 0.1497
N7 N -0.4466(12) -0.8841(11) 0.2885(8)
H26 H -0.4059 -0.8471 0.2932
H27 H -0.4736 -0.9037 0.3209
Cl1 Cl -0.12184(12) -0.12184(12) 0.0000
O4 O -0.1110(13) -0.1773(9) -0.0454(8)
O5 O -0.1355(15) -0.0588(7) -0.0345(5)
O4F O -0.1773(9) -0.1110(13) 0.0454(8)
O5F O -0.0588(7) -0.1355(15) 0.0345(5)
Cl2? Cl -0.7404(3) -0.7190(3) -0.0020(9)
O1? O -0.7843(13) -0.6470(9) -0.0017(14)
O2? O -0.7636(6) -0.7643(6) -0.0515(3)
O3? O -0.6720(6) -0.6720(6) 0.0000
loop_
_geom_bond_atom_site_label_1
_geom_bond_atom_site_label_2
_geom_bond_site_symmetry_1
_geom_bond_site_symmetry_2
C1 H1 1_555 1_555
C2 C1 1_555 1_555
H2 C2 1_555 1_555
C3 C2 1_555 1_555
C4 C3 1_555 1_555
H3 C4 1_555 1_555
C5 C4 1_555 1_555
H4 C5 1_555 1_555
C6 C3 1_555 1_555
C7 C6 1_555 1_555
H5 C7 1_555 1_555
C8 C7 1_555 1_555
H6 C8 1_555 1_555
C9 C8 1_555 1_555
H7 C9 1_555 1_555
C10 C9 1_555 1_555
C11 C6 1_555 1_555
H8 C11 1_555 1_555
C12 C10 1_555 1_555
C13 C14 1_555 1_555
C14 C15 1_555 1_555
C15 H9 1_555 1_555
C16 C15 1_555 1_555
H10 C16 1_555 1_555
C17 C16 1_555 1_555
H11 C17 1_555 1_555
C18 C17 1_555 1_555
C19 C14 1_555 1_555
H12 C19 1_555 1_555
C20 C18 1_555 1_555
C21 C20 1_555 1_555
H13 C21 1_555 1_555
C22 C21 1_555 1_555
H14 C22 1_555 1_555
C23 H15 1_555 1_555
C24 C20 1_555 1_555
H16 C24 1_555 1_555
C25 C26 1_555 1_555
C26 H17 1_555 1_555
C27 C26 1_555 1_555
H18 C27 1_555 1_555
C28 C27 1_555 1_555
H19 C28 1_555 1_555
C29 C28 1_555 1_555
C30 C25 1_555 1_555
H20 C30 1_555 1_555
C31 C29 1_555 1_555
H21 C31 1_555 1_555
H22 C31 1_555 1_555
H23 C31 1_555 1_555
Cd1 N3 1_555 1_555
Cl1 O4 1_555 1_555
N1 C1 1_555 1_555
N2 C12 1_555 1_555
N3 C13 1_555 1_555
N4 C12 1_555 1_555
N5 N4 1_555 1_555
H24 N5 1_555 1_555
H25 N5 1_555 1_555
N6 C22 1_555 1_555
N7 C25 1_555 1_555
H26 N7 1_555 1_555
H27 N7 1_555 1_555
O5 Cl1 1_555 1_555
C1F H1F 1_555 1_555
C2F C1F 1_555 1_555
H2F C2F 1_555 1_555
C3F C2F 1_555 1_555
C4F C3F 1_555 1_555
H3F C4F 1_555 1_555
C5F C4F 1_555 1_555
H4F C5F 1_555 1_555
C6F C3F 1_555 1_555
C7F C6F 1_555 1_555
H5F C7F 1_555 1_555
C8F C7F 1_555 1_555
H6F C8F 1_555 1_555
C9F C8F 1_555 1_555
H7F C9F 1_555 1_555
C10F C9F 1_555 1_555
C11F C6F 1_555 1_555
H8F C11F 1_555 1_555
C12F C10F 1_555 1_555
C13F C14F 1_555 1_555
C14F C15F 1_555 1_555
C15F H9F 1_555 1_555
C16F C15F 1_555 1_555
H10F C16F 1_555 1_555
C17F C16F 1_555 1_555
H11F C17F 1_555 1_555
C18F C17F 1_555 1_555
C19F C14F 1_555 1_555
H12F C19F 1_555 1_555
C20F C18F 1_555 1_555
C21F C20F 1_555 1_555
H13F C21F 1_555 1_555
C22F C21F 1_555 1_555
H14F C22F 1_555 1_555
C23F H15F 1_555 1_555
C24F C20F 1_555 1_555
H16F C24F 1_555 1_555
Cd1B N6 1_555 1_555
Cd1B_2 N1 1_555 1_555
Cd1C N6F 1_555 1_555
Cd1C_2 N1F 1_555 1_555
N1D Cd1 1_555 1_555
N1C Cd1 1_555 1_555
N1F C1F 1_555 1_555
N2F C12F 1_555 1_555
N3F Cd1 1_555 1_555
N4F C12F 1_555 1_555
N5F N4F 1_555 1_555
H24F N5F 1_555 1_555
H25F N5F 1_555 1_555
N6C Cd1 1_555 1_555
N6D Cd1 1_555 1_555
N6F C22F 1_555 1_555
O4F Cl1 1_555 1_555
O5F Cl1 1_555 1_555
C5 N1 1_555 1_555
C10 C11 1_555 1_555
C13 N4 1_555 1_555
C18 C19 1_555 1_555
C23 C24 1_555 1_555
C23 N6 1_555 1_555
C29 C30 1_555 1_555
N2 N3 1_555 1_555
C5F N1F 1_555 1_555
C10F C11F 1_555 1_555
C13F N3F 1_555 1_555
C13F N4F 1_555 1_555
C18F C19F 1_555 1_555
C23F C24F 1_555 1_555
C23F N6F 1_555 1_555
N2F N3F 1_555 1_555

#END
