
#######################################################################
#
#                 Cambridge Crystallographic Data Centre
#                                CCDC 
#
#######################################################################
#
# If this CIF has been generated from an entry in the Cambridge 
# Structural Database, then it will include bibliographic, chemical, 
# crystal, experimental, refinement or atomic coordinate data resulting 
# from the CCDC's data processing and validation procedures.
#
#######################################################################

data_OKIYAJ
_symmetry_cell_setting           tetragonal
_symmetry_space_group_name_H-M   'P 43 21 2'
_symmetry_Int_Tables_number      96
_space_group_name_Hall           'P 4nw 2abw'
loop_
_symmetry_equiv_pos_site_id
_symmetry_equiv_pos_as_xyz
1 x,y,z
2 -x,-y,1/2+z
3 1/2-y,1/2+x,3/4+z
4 1/2+y,1/2-x,1/4+z
5 1/2-x,1/2+y,3/4-z
6 1/2+x,1/2-y,1/4-z
7 y,x,-z
8 -y,-x,1/2-z
_cell_length_a                   15.8800(13)
_cell_length_b                   15.8800(13)
_cell_length_c                   21.505(3)
_cell_angle_alpha                90
_cell_angle_beta                 90
_cell_angle_gamma                90
_cell_volume                     5423.01
loop_
_atom_site_label
_atom_site_type_symbol
_atom_site_fract_x
_atom_site_fract_y
_atom_site_fract_z
C1 C -0.7984(4) -0.8432(4) -0.4251(3)
H1 H -0.7683 -0.8600 -0.4611
C2 C -0.7643(4) -0.7817(4) -0.3870(3)
H2 H -0.7107 -0.7586 -0.3967
C3 C -0.8075(4) -0.7532(4) -0.3347(3)
C4 C -0.8811(4) -0.7975(4) -0.3197(3)
H3 H -0.9108 -0.7853 -0.2825
C5 C -0.9100(4) -0.8597(4) -0.3602(3)
H4 H -0.9597 -0.8893 -0.3490
C6 C -0.7774(4) -0.6814(4) -0.2974(3)
C7 C -0.7165(4) -0.6273(4) -0.3223(3)
H5 H -0.6949 -0.6387 -0.3626
C8 C -0.6871(4) -0.5587(3) -0.2908(2)
C9 C -0.7188(4) -0.5415(4) -0.2311(3)
H6 H -0.7004 -0.4933 -0.2088
C10 C -0.7775(5) -0.5959(5) -0.2053(3)
H7 H -0.7977 -0.5858 -0.1644
C11 C -0.8072(4) -0.6644(4) -0.2383(3)
H8 H -0.8483 -0.7002 -0.2201
C12 C -0.6243(4) -0.5032(4) -0.3207(3)
C13 C -0.5737(3) -0.4071(3) -0.3836(2)
C14 C -0.5656(3) -0.3371(4) -0.4272(3)
C15 C -0.4922(5) -0.3328(4) -0.4622(3)
H9 H -0.4504 -0.3754 -0.4585
C16 C -0.4805(5) -0.2659(4) -0.5026(4)
H10 H -0.4306 -0.2628 -0.5268
C17 C -0.5405(4) -0.2036(4) -0.5080(3)
H11 H -0.5329 -0.1590 -0.5368
C18 C -0.6129(4) -0.2064(4) -0.4708(3)
C19 C -0.6244(4) -0.2732(4) -0.4322(3)
H12 H -0.6743 -0.2761 -0.4080
C20 C -0.6797(4) -0.1399(4) -0.4779(3)
C21 C -0.6903(4) -0.0934(4) -0.5311(3)
H13 H -0.6512 -0.0992 -0.5642
C22 C -0.7569(4) -0.0385(4) -0.5369(3)
H14 H -0.7630 -0.0089 -0.5750
C23 C -0.8016(4) -0.0677(4) -0.4399(3)
H15 H -0.8404 -0.0586 -0.4070
C24 C -0.7369(4) -0.1247(4) -0.4304(3)
H16 H -0.7317 -0.1532 -0.3917
Cd1 Cd -0.44115(2) -0.55885(2) -0.2500
N2 N -0.8734(3) -0.8801(3) -0.4125(2)
N3 N -0.5436(3) -0.5062(3) -0.3173(2)
N4 N -0.5102(3) -0.4447(3) -0.3561(2)
N5 N -0.6472(3) -0.4433(3) -0.3621(2)
N6 N -0.7283(4) -0.4243(3) -0.3839(3)
H26 H -0.7543 -0.4735 -0.3940
H27 H -0.7585 -0.3977 -0.3542
N7 N -0.8129(3) -0.0246(3) -0.4928(3)
C1G C -0.1568(4) -0.2016(4) -0.0749(3)
H1G H -0.1400 -0.2317 -0.0389
C2G C -0.2183(4) -0.2357(4) -0.1130(3)
H2G H -0.2414 -0.2893 -0.1033
C3G C -0.2468(4) -0.1925(4) -0.1653(3)
C4G C -0.2025(4) -0.1189(4) -0.1803(3)
H3G H -0.2147 -0.0892 -0.2175
C5G C -0.1403(4) -0.0900(4) -0.1398(3)
H4G H -0.1107 -0.0403 -0.1510
C6G C -0.3186(4) -0.2226(4) -0.2026(3)
C7G C -0.3727(4) -0.2835(4) -0.1777(3)
H5G H -0.3613 -0.3051 -0.1374
C8G C -0.4413(3) -0.3129(4) -0.2092(2)
C9G C -0.4585(4) -0.2812(4) -0.2689(3)
H6G H -0.5067 -0.2996 -0.2912
C10G C -0.4041(5) -0.2225(5) -0.2947(3)
H7G H -0.4142 -0.2023 -0.3356
C11G C -0.3356(4) -0.1928(4) -0.2617(3)
H8G H -0.2998 -0.1517 -0.2799
C12G C -0.4968(4) -0.3757(4) -0.1793(3)
C13G C -0.5929(3) -0.4263(3) -0.1164(2)
C14G C -0.6629(4) -0.4344(3) -0.0728(3)
C15G C -0.6672(4) -0.5078(5) -0.0378(3)
H9G H -0.6246 -0.5496 -0.0415
C16G C -0.7341(4) -0.5195(5) 0.0026(4)
H10G H -0.7372 -0.5694 0.0268
C17G C -0.7964(4) -0.4595(4) 0.0080(3)
H11G H -0.8410 -0.4671 0.0368
C18G C -0.7936(4) -0.3871(4) -0.0292(3)
C19G C -0.7268(4) -0.3756(4) -0.0678(3)
H12G H -0.7239 -0.3257 -0.0920
C20G C -0.8601(4) -0.3203(4) -0.0221(3)
C21G C -0.9066(4) -0.3097(4) 0.0311(3)
H13G H -0.9008 -0.3488 0.0642
C22G C -0.9615(4) -0.2431(4) 0.0369(3)
H14G H -0.9911 -0.2370 0.0750
C23G C -0.9323(4) -0.1984(4) -0.0601(3)
H15G H -0.9414 -0.1596 -0.0930
C24G C -0.8753(4) -0.2631(4) -0.0696(3)
H16G H -0.8468 -0.2683 -0.1083
Cd1B Cd -0.94115(2) -0.94115(2) -0.5000
Cd1C Cd -0.05885(2) -0.05885(2) 0.0000
Cd1B_2 Cd -0.94115(2) 0.05885(2) -0.5000
Cd1C_2 Cd -1.05885(2) -0.05885(2) 0.0000
N2E N -0.3734(3) -0.6199(3) -0.3375(2)
N2C N -0.3801(3) -0.6266(3) -0.1625(2)
N2G N -0.1199(3) -0.1266(3) -0.0875(2)
N3G N -0.4938(3) -0.4564(3) -0.1827(2)
N4G N -0.5553(3) -0.4898(3) -0.1439(2)
N5G N -0.5567(3) -0.3528(3) -0.1379(2)
N6G N -0.5757(3) -0.2717(4) -0.1161(3)
H26G H -0.5265 -0.2457 -0.1060
H27G H -0.6023 -0.2415 -0.1458
N7E N -0.3129(3) -0.4754(3) -0.2572(3)
N7C N -0.5246(3) -0.6871(3) -0.2428(3)
N7G N -0.9754(3) -0.1871(3) -0.0072(3)
C25 C 0.428(2) -0.0265(17) 0.268(3)
C26 C 0.372(2) -0.067(2) 0.229(3)
H17 H 0.3281 -0.1014 0.2458
C27 C 0.379(2) -0.059(2) 0.165(3)
H18 H 0.3410 -0.0868 0.1379
C28 C 0.4432(18) -0.009(2) 0.140(3)
C29 C 0.4994(17) 0.032(2) 0.179(3)
H19 H 0.5430 0.0656 0.1622
C30 C 0.4917(19) 0.023(2) 0.243(3)
H20 H 0.5301 0.0511 0.2701
C31 C 0.420(4) -0.036(3) 0.339(3)
H21 H 0.3743 -0.0757 0.3481
H22 H 0.4068 0.0189 0.3571
H23 H 0.4728 -0.0572 0.3557
N1 N 0.451(3) -0.001(3) 0.079(3)
H24 H 0.4910 0.0305 0.0629
H25 H 0.4151 -0.0268 0.0536
Cl1 Cl 0.11934(15) -0.11934(15) 0.2500
O3 O 0.1042(9) -0.1875(9) 0.2221(11)
O4 O 0.1208(19) -0.0662(11) 0.2131(6)
O3G O 0.1875(9) -0.1042(9) 0.2779(11)
O4G O 0.0662(11) -0.1208(19) 0.2869(6)
Cl2 Cl 0.22935(14) -0.77065(14) 0.0000
O1 O 0.2613(6) -0.7369(6) -0.0516(3)
O5 O 0.2942(12) -0.8510(11) -0.0095(18)
O1F O 0.2631(6) -0.7387(6) 0.0516(3)
O5F O 0.1490(11) -0.7058(12) 0.0095(18)
O2? O 0.1708(4) -0.8292(4) 0.0000
loop_
_geom_bond_atom_site_label_1
_geom_bond_atom_site_label_2
_geom_bond_site_symmetry_1
_geom_bond_site_symmetry_2
C1 H1 1_555 1_555
C2 C1 1_555 1_555
H2 C2 1_555 1_555
C3 C2 1_555 1_555
C4 C3 1_555 1_555
H3 C4 1_555 1_555
C5 C4 1_555 1_555
H4 C5 1_555 1_555
C6 C3 1_555 1_555
C7 C6 1_555 1_555
H5 C7 1_555 1_555
C8 C7 1_555 1_555
C9 C8 1_555 1_555
H6 C9 1_555 1_555
C10 C9 1_555 1_555
H7 C10 1_555 1_555
C11 C6 1_555 1_555
H8 C11 1_555 1_555
C12 C8 1_555 1_555
C13 C14 1_555 1_555
C14 C15 1_555 1_555
C15 H9 1_555 1_555
C16 C15 1_555 1_555
H10 C16 1_555 1_555
C17 C16 1_555 1_555
H11 C17 1_555 1_555
C18 C17 1_555 1_555
C19 C14 1_555 1_555
H12 C19 1_555 1_555
C20 C18 1_555 1_555
C21 C20 1_555 1_555
H13 C21 1_555 1_555
C22 C21 1_555 1_555
H14 C22 1_555 1_555
C23 H15 1_555 1_555
C24 C20 1_555 1_555
H16 C24 1_555 1_555
C25 C26 1_555 1_555
C26 H17 1_555 1_555
C27 C26 1_555 1_555
H18 C27 1_555 1_555
C28 C27 1_555 1_555
C29 C28 1_555 1_555
H19 C29 1_555 1_555
C30 C25 1_555 1_555
H20 C30 1_555 1_555
C31 C25 1_555 1_555
H21 C31 1_555 1_555
H22 C31 1_555 1_555
H23 C31 1_555 1_555
N1 C28 1_555 1_555
H24 N1 1_555 1_555
H25 N1 1_555 1_555
Cd1 N3 1_555 1_555
Cl1 O3 1_555 1_555
Cl2 O1 1_555 1_555
N2 C1 1_555 1_555
N3 C12 1_555 1_555
N4 C13 1_555 1_555
N5 C12 1_555 1_555
N6 N5 1_555 1_555
H26 N6 1_555 1_555
H27 N6 1_555 1_555
N7 C22 1_555 1_555
O4 Cl1 1_555 1_555
O5 Cl2 1_555 1_555
C1G H1G 1_555 1_555
C2G C1G 1_555 1_555
H2G C2G 1_555 1_555
C3G C2G 1_555 1_555
C4G C3G 1_555 1_555
H3G C4G 1_555 1_555
C5G C4G 1_555 1_555
H4G C5G 1_555 1_555
C6G C3G 1_555 1_555
C7G C6G 1_555 1_555
H5G C7G 1_555 1_555
C8G C7G 1_555 1_555
C9G C8G 1_555 1_555
H6G C9G 1_555 1_555
C10G C9G 1_555 1_555
H7G C10G 1_555 1_555
C11G C6G 1_555 1_555
H8G C11G 1_555 1_555
C12G C8G 1_555 1_555
C13G C14G 1_555 1_555
C14G C15G 1_555 1_555
C15G H9G 1_555 1_555
C16G C15G 1_555 1_555
H10G C16G 1_555 1_555
C17G C16G 1_555 1_555
H11G C17G 1_555 1_555
C18G C17G 1_555 1_555
C19G C14G 1_555 1_555
H12G C19G 1_555 1_555
C20G C18G 1_555 1_555
C21G C20G 1_555 1_555
H13G C21G 1_555 1_555
C22G C21G 1_555 1_555
H14G C22G 1_555 1_555
C23G H15G 1_555 1_555
C24G C20G 1_555 1_555
H16G C24G 1_555 1_555
Cd1B N2 1_555 1_555
Cd1C N2G 1_555 1_555
Cd1B_2 N7 1_555 1_555
Cd1C_2 N7G 1_555 1_555
N2E Cd1 1_555 1_555
N2C Cd1 1_555 1_555
N2G C1G 1_555 1_555
N3G Cd1 1_555 1_555
N4G C13G 1_555 1_555
N5G C12G 1_555 1_555
N6G N5G 1_555 1_555
H26G N6G 1_555 1_555
H27G N6G 1_555 1_555
N7E Cd1 1_555 1_555
N7C Cd1 1_555 1_555
N7G C22G 1_555 1_555
O1F Cl2 1_555 1_555
O3G Cl1 1_555 1_555
O4G Cl1 1_555 1_555
O5F Cl2 1_555 1_555
C5 N2 1_555 1_555
C10 C11 1_555 1_555
C13 N5 1_555 1_555
C18 C19 1_555 1_555
C23 C24 1_555 1_555
C23 N7 1_555 1_555
C29 C30 1_555 1_555
N3 N4 1_555 1_555
C5G N2G 1_555 1_555
C10G C11G 1_555 1_555
C12G N3G 1_555 1_555
C13G N5G 1_555 1_555
C18G C19G 1_555 1_555
C23G C24G 1_555 1_555
C23G N7G 1_555 1_555
N3G N4G 1_555 1_555

#END
