
#######################################################################
#
#                 Cambridge Crystallographic Data Centre
#                                CCDC 
#
#######################################################################
#
# If this CIF has been generated from an entry in the Cambridge 
# Structural Database, then it will include bibliographic, chemical, 
# crystal, experimental, refinement or atomic coordinate data resulting 
# from the CCDC's data processing and validation procedures.
#
#######################################################################

data_OKIYIR
_symmetry_cell_setting           tetragonal
_symmetry_space_group_name_H-M   'P 43 21 2'
_symmetry_Int_Tables_number      96
_space_group_name_Hall           'P 4nw 2abw'
loop_
_symmetry_equiv_pos_site_id
_symmetry_equiv_pos_as_xyz
1 x,y,z
2 -x,-y,1/2+z
3 1/2-y,1/2+x,3/4+z
4 1/2+y,1/2-x,1/4+z
5 1/2-x,1/2+y,3/4-z
6 1/2+x,1/2-y,1/4-z
7 y,x,-z
8 -y,-x,1/2-z
_cell_length_a                   15.8508(9)
_cell_length_b                   15.8508(9)
_cell_length_c                   21.766(2)
_cell_angle_alpha                90
_cell_angle_beta                 90
_cell_angle_gamma                90
_cell_volume                     5468.66
loop_
_atom_site_label
_atom_site_type_symbol
_atom_site_fract_x
_atom_site_fract_y
_atom_site_fract_z
C1 C 0.2529(4) -0.4643(4) -0.5345(3)
H1 H 0.2567 -0.4952 -0.5707
C2 C 0.1868(4) -0.4082(4) -0.5279(3)
H2 H 0.1467 -0.4035 -0.5589
C3 C 0.1796(4) -0.3593(4) -0.4762(3)
C4 C 0.2392(4) -0.3744(4) -0.4304(3)
H3 H 0.2359 -0.3455 -0.3933
C5 C 0.3030(4) -0.4322(4) -0.4400(3)
H4 H 0.3421 -0.4406 -0.4087
C6 C 0.1140(4) -0.2929(4) -0.4699(3)
C7 C 0.0413(4) -0.2934(4) -0.5060(4)
H5 H 0.0330 -0.3367 -0.5342
C8 C -0.0180(5) -0.2311(4) -0.5004(4)
H6 H -0.0672 -0.2341 -0.5237
C9 C -0.0063(4) -0.1638(4) -0.4610(3)
H7 H -0.0461 -0.1208 -0.4586
C10 C 0.0663(3) -0.1613(4) -0.4247(3)
C11 C 0.1258(4) -0.2257(4) -0.4292(3)
H8 H 0.1739 -0.2239 -0.4048
C12 C 0.0750(3) -0.0916(3) -0.3813(2)
C13 C 0.1256(3) 0.0045(4) -0.3197(2)
C14 C 0.1873(4) 0.0613(3) -0.2891(3)
C15 C 0.2170(4) 0.0452(4) -0.2306(3)
H9 H 0.1983 -0.0020 -0.2091
C16 C 0.2751(5) 0.1002(4) -0.2040(3)
H10 H 0.2942 0.0907 -0.1642
C17 C 0.3046(4) 0.1693(4) -0.2370(3)
H11 H 0.3440 0.2052 -0.2194
C18 C 0.2758(4) 0.1849(4) -0.2959(3)
C19 C 0.2162(4) 0.1303(4) -0.3212(3)
H12 H 0.1957 0.1407 -0.3605
C20 C 0.3067(4) 0.2573(4) -0.3334(3)
C21 C 0.3827(4) 0.2985(4) -0.3204(3)
H13 H 0.4126 0.2855 -0.2848
C22 C 0.4130(4) 0.3587(4) -0.3605(3)
H14 H 0.4631 0.3860 -0.3507
C23 C 0.2986(4) 0.3440(4) -0.4225(3)
H15 H 0.2683 0.3601 -0.4572
C24 C 0.2634(4) 0.2855(4) -0.3847(3)
H16 H 0.2099 0.2643 -0.3933
Cd1 Cd -0.05969(2) 0.05969(2) -0.2500
N1 N 0.3115(3) -0.4763(3) -0.4913(2)
N2 N 0.0110(3) -0.0542(3) -0.3547(2)
N3 N 0.0439(3) 0.0068(3) -0.3162(2)
N4 N 0.1484(3) -0.0561(3) -0.3601(2)
N5 N 0.2304(4) -0.0746(3) -0.3810(3)
H17 H 0.2584 -0.0265 -0.3866
H18 H 0.2570 -0.1058 -0.3531
N6 N 0.3738(3) 0.3801(3) -0.4132(2)
C1G C 0.4643(4) -0.2529(4) 0.0345(3)
H1G H 0.4952 -0.2567 0.0707
C2G C 0.4082(4) -0.1868(4) 0.0279(3)
H2G H 0.4035 -0.1467 0.0589
C3G C 0.3593(4) -0.1796(4) -0.0238(3)
C4G C 0.3744(4) -0.2392(4) -0.0696(3)
H3G H 0.3455 -0.2359 -0.1067
C5G C 0.4322(4) -0.3030(4) -0.0600(3)
H4G H 0.4406 -0.3421 -0.0913
C6G C 0.2929(4) -0.1140(4) -0.0301(3)
C7G C 0.2934(4) -0.0413(4) 0.0060(4)
H5G H 0.3367 -0.0330 0.0342
C8G C 0.2311(4) 0.0180(5) 0.0004(4)
H6G H 0.2341 0.0672 0.0237
C9G C 0.1638(4) 0.0063(4) -0.0390(3)
H7G H 0.1208 0.0461 -0.0414
C10G C 0.1613(4) -0.0663(3) -0.0753(3)
C11G C 0.2257(4) -0.1258(4) -0.0708(3)
H8G H 0.2239 -0.1739 -0.0952
C12G C 0.0916(3) -0.0750(3) -0.1187(2)
C13G C -0.0045(4) -0.1256(3) -0.1803(2)
C14G C -0.0613(3) -0.1873(4) -0.2109(3)
C15G C -0.0452(4) -0.2170(4) -0.2694(3)
H9G H 0.0020 -0.1983 -0.2909
C16G C -0.1002(4) -0.2751(5) -0.2960(3)
H10G H -0.0907 -0.2942 -0.3358
C17G C -0.1693(4) -0.3046(4) -0.2630(3)
H11G H -0.2052 -0.3440 -0.2806
C18G C -0.1849(4) -0.2758(4) -0.2041(3)
C19G C -0.1303(4) -0.2162(4) -0.1788(3)
H12G H -0.1407 -0.1957 -0.1395
C20G C -0.2573(4) -0.3067(4) -0.1666(3)
C21G C -0.2985(4) -0.3827(4) -0.1796(3)
H13G H -0.2855 -0.4126 -0.2152
C22G C -0.3587(4) -0.4130(4) -0.1395(3)
H14G H -0.3860 -0.4631 -0.1493
C23G C -0.3440(4) -0.2986(4) -0.0775(3)
H15G H -0.3601 -0.2683 -0.0428
C24G C -0.2855(4) -0.2634(4) -0.1153(3)
H16G H -0.2643 -0.2099 -0.1067
Cd1B Cd 0.44031(2) 0.44031(2) -0.5000
Cd1B_2 Cd 0.44031(2) -0.55969(2) -0.5000
Cd1C Cd -0.44031(2) -0.44031(2) 0.0000
Cd1C_2 Cd 0.55969(2) -0.44031(2) 0.0000
N1E N -0.1885(3) -0.0237(3) -0.2587(2)
N1C N 0.0237(3) 0.1885(3) -0.2413(2)
N1G N 0.4763(3) -0.3115(3) -0.0087(2)
N2G N 0.0542(3) -0.0110(3) -0.1453(2)
N3G N -0.0068(3) -0.0439(3) -0.1838(2)
N4G N 0.0561(3) -0.1484(3) -0.1399(2)
N5G N 0.0746(3) -0.2304(4) -0.1190(3)
H17G H 0.0265 -0.2584 -0.1134
H18G H 0.1058 -0.2570 -0.1469
N6C N -0.1199(3) 0.1262(3) -0.1632(2)
N6E N -0.1262(3) 0.1199(3) -0.3368(2)
N6G N -0.3801(3) -0.3738(3) -0.0868(2)
Cl1 Cl 0.37347(13) 0.62653(13) 0.2500
O1 O 0.3683(11) 0.5566(10) 0.2122(6)
O2 O 0.3325(19) 0.5942(8) 0.3005(6)
O1G O 0.4434(10) 0.6317(11) 0.2878(6)
O2G O 0.4058(8) 0.6675(19) 0.1995(6)
Cl2 Cl 0.27001(13) 0.27001(13) 0.0000
O4 O 0.2369(5) 0.2340(5) -0.0528(3)
O6 O 0.2169(16) 0.3548(9) 0.0042(13)
O4F O 0.2340(5) 0.2369(5) 0.0528(3)
O6F O 0.3548(9) 0.2169(16) -0.0042(13)
N7 N 1.0931(16) 0.4340(16) 0.9178(9)
H19 H 1.1247 0.4198 0.9482
H20 H 1.0993 0.4099 0.8827
C25 C 1.0383(9) 0.4898(9) 0.9246(6)
C26 C 1.0283(9) 0.5289(9) 0.9813(5)
H21 H 1.0594 0.5105 1.0150
C27 C 0.9718(10) 0.5953(10) 0.9877(7)
H22 H 0.9651 0.6215 1.0256
C28 C 0.9253(9) 0.6227(8) 0.9374(9)
H23 H 0.8874 0.6672 0.9416
C29 C 0.9353(10) 0.5836(11) 0.8807(8)
H24 H 0.9041 0.6020 0.8470
C30 C 0.9918(11) 0.5172(11) 0.8743(5)
H25 H 0.9984 0.4910 0.8363
O3? O 0.3440(12) 0.7122(13) 0.2448(12)
O5? O 0.3268(7) 0.3268(7) 0.0000
loop_
_geom_bond_atom_site_label_1
_geom_bond_atom_site_label_2
_geom_bond_site_symmetry_1
_geom_bond_site_symmetry_2
C1 H1 1_555 1_555
C2 C1 1_555 1_555
H2 C2 1_555 1_555
C3 C2 1_555 1_555
C4 C3 1_555 1_555
H3 C4 1_555 1_555
C5 C4 1_555 1_555
H4 C5 1_555 1_555
C6 C3 1_555 1_555
C7 C6 1_555 1_555
H5 C7 1_555 1_555
C8 C7 1_555 1_555
H6 C8 1_555 1_555
C9 C8 1_555 1_555
H7 C9 1_555 1_555
C10 C9 1_555 1_555
C11 C6 1_555 1_555
H8 C11 1_555 1_555
C12 C10 1_555 1_555
C13 C14 1_555 1_555
C14 C15 1_555 1_555
C15 H9 1_555 1_555
C16 C15 1_555 1_555
H10 C16 1_555 1_555
C17 C16 1_555 1_555
H11 C17 1_555 1_555
C18 C17 1_555 1_555
C19 C14 1_555 1_555
H12 C19 1_555 1_555
C20 C18 1_555 1_555
C21 C20 1_555 1_555
H13 C21 1_555 1_555
C22 C21 1_555 1_555
H14 C22 1_555 1_555
C23 H15 1_555 1_555
C24 C20 1_555 1_555
H16 C24 1_555 1_555
Cd1 N3 1_555 1_555
Cl1 O1 1_555 1_555
Cl2 O4 1_555 1_555
N1 C1 1_555 1_555
N2 C12 1_555 1_555
N3 C13 1_555 1_555
N4 C12 1_555 1_555
N5 N4 1_555 1_555
H17 N5 1_555 1_555
H18 N5 1_555 1_555
N6 C22 1_555 1_555
N7 H19 1_555 1_555
H20 N7 1_555 1_555
C25 N7 1_555 1_555
C26 C25 1_555 1_555
H21 C26 1_555 1_555
C27 C26 1_555 1_555
H22 C27 1_555 1_555
C28 C27 1_555 1_555
H23 C28 1_555 1_555
C29 C28 1_555 1_555
H24 C29 1_555 1_555
C30 C25 1_555 1_555
H25 C30 1_555 1_555
O2 Cl1 1_555 1_555
O6 Cl2 1_555 1_555
C1G H1G 1_555 1_555
C2G C1G 1_555 1_555
H2G C2G 1_555 1_555
C3G C2G 1_555 1_555
C4G C3G 1_555 1_555
H3G C4G 1_555 1_555
C5G C4G 1_555 1_555
H4G C5G 1_555 1_555
C6G C3G 1_555 1_555
C7G C6G 1_555 1_555
H5G C7G 1_555 1_555
C8G C7G 1_555 1_555
H6G C8G 1_555 1_555
C9G C8G 1_555 1_555
H7G C9G 1_555 1_555
C10G C9G 1_555 1_555
C11G C6G 1_555 1_555
H8G C11G 1_555 1_555
C12G C10G 1_555 1_555
C13G C14G 1_555 1_555
C14G C15G 1_555 1_555
C15G H9G 1_555 1_555
C16G C15G 1_555 1_555
H10G C16G 1_555 1_555
C17G C16G 1_555 1_555
H11G C17G 1_555 1_555
C18G C17G 1_555 1_555
C19G C14G 1_555 1_555
H12G C19G 1_555 1_555
C20G C18G 1_555 1_555
C21G C20G 1_555 1_555
H13G C21G 1_555 1_555
C22G C21G 1_555 1_555
H14G C22G 1_555 1_555
C23G H15G 1_555 1_555
C24G C20G 1_555 1_555
H16G C24G 1_555 1_555
Cd1B N6 1_555 1_555
Cd1B_2 N1 1_555 1_555
Cd1C N6G 1_555 1_555
Cd1C_2 N1G 1_555 1_555
N1E Cd1 1_555 1_555
N1C Cd1 1_555 1_555
N1G C1G 1_555 1_555
N2G C12G 1_555 1_555
N3G Cd1 1_555 1_555
N4G C12G 1_555 1_555
N5G N4G 1_555 1_555
H17G N5G 1_555 1_555
H18G N5G 1_555 1_555
N6C Cd1 1_555 1_555
N6E Cd1 1_555 1_555
N6G C22G 1_555 1_555
O1G Cl1 1_555 1_555
O2G Cl1 1_555 1_555
O4F Cl2 1_555 1_555
O6F Cl2 1_555 1_555
C5 N1 1_555 1_555
C10 C11 1_555 1_555
C13 N4 1_555 1_555
C18 C19 1_555 1_555
C23 C24 1_555 1_555
C23 N6 1_555 1_555
N2 N3 1_555 1_555
C29 C30 1_555 1_555
C5G N1G 1_555 1_555
C10G C11G 1_555 1_555
C13G N3G 1_555 1_555
C13G N4G 1_555 1_555
C18G C19G 1_555 1_555
C23G C24G 1_555 1_555
C23G N6G 1_555 1_555
N2G N3G 1_555 1_555

#END
