
#######################################################################
#
#                 Cambridge Crystallographic Data Centre
#                                CCDC 
#
#######################################################################
#
# If this CIF has been generated from an entry in the Cambridge 
# Structural Database, then it will include bibliographic, chemical, 
# crystal, experimental, refinement or atomic coordinate data resulting 
# from the CCDC's data processing and validation procedures.
#
#######################################################################

data_OKIYIR02
_symmetry_cell_setting           tetragonal
_symmetry_space_group_name_H-M   'P 43 21 2'
_symmetry_Int_Tables_number      96
_space_group_name_Hall           'P 4nw 2abw'
loop_
_symmetry_equiv_pos_site_id
_symmetry_equiv_pos_as_xyz
1 x,y,z
2 -x,-y,1/2+z
3 1/2-y,1/2+x,3/4+z
4 1/2+y,1/2-x,1/4+z
5 1/2-x,1/2+y,3/4-z
6 1/2+x,1/2-y,1/4-z
7 y,x,-z
8 -y,-x,1/2-z
_cell_length_a                   15.8029(19)
_cell_length_b                   15.8029(19)
_cell_length_c                   21.845(5)
_cell_angle_alpha                90
_cell_angle_beta                 90
_cell_angle_gamma                90
_cell_volume                     5455.39
loop_
_atom_site_label
_atom_site_type_symbol
_atom_site_fract_x
_atom_site_fract_y
_atom_site_fract_z
C1 C 0.2531(3) -0.4640(4) -0.5342(3)
H1 H 0.2570 -0.4946 -0.5704
C2 C 0.1870(3) -0.4079(3) -0.5273(3)
H2 H 0.1468 -0.4032 -0.5581
C3 C 0.1795(3) -0.3590(3) -0.4761(3)
C4 C 0.2397(3) -0.3747(3) -0.4304(3)
H3 H 0.2365 -0.3459 -0.3933
C5 C 0.3031(4) -0.4322(3) -0.4400(3)
H4 H 0.3423 -0.4407 -0.4089
C6 C 0.1145(3) -0.2928(3) -0.4693(3)
C7 C 0.0415(4) -0.2931(3) -0.5051(3)
H5 H 0.0329 -0.3364 -0.5333
C8 C -0.0175(4) -0.2308(4) -0.4994(4)
H6 H -0.0668 -0.2338 -0.5225
C9 C -0.0060(4) -0.1639(4) -0.4605(3)
H7 H -0.0461 -0.1209 -0.4583
C10 C 0.0671(3) -0.1609(3) -0.4239(2)
C11 C 0.1263(3) -0.2256(3) -0.4292(3)
H8 H 0.1749 -0.2239 -0.4052
C12 C 0.0753(3) -0.0913(3) -0.3809(2)
C13 C 0.1262(3) 0.0048(3) -0.3196(2)
C14 C 0.1876(3) 0.0620(3) -0.2896(2)
C15 C 0.2170(4) 0.0457(3) -0.2309(2)
H9 H 0.1982 -0.0015 -0.2095
C16 C 0.2752(4) 0.1012(4) -0.2047(3)
H10 H 0.2942 0.0919 -0.1650
C17 C 0.3047(3) 0.1699(3) -0.2374(2)
H11 H 0.3440 0.2062 -0.2196
C18 C 0.2766(3) 0.1854(3) -0.2965(3)
C19 C 0.2171(3) 0.1299(3) -0.3213(3)
H12 H 0.1970 0.1396 -0.3607
C20 C 0.3072(3) 0.2577(3) -0.3341(2)
C21 C 0.3836(3) 0.2990(3) -0.3207(3)
H13 H 0.4135 0.2861 -0.2852
C22 C 0.4137(3) 0.3589(3) -0.3609(3)
H14 H 0.4642 0.3861 -0.3514
C23 C 0.2986(3) 0.3439(4) -0.4225(3)
H15 H 0.2682 0.3598 -0.4571
C24 C 0.2641(3) 0.2856(3) -0.3850(3)
H16 H 0.2106 0.2640 -0.3937
Cd1 Cd -0.059488(19) 0.059488(19) -0.2500
N1 N 0.3115(3) -0.4762(3) -0.4911(2)
N2 N 0.0117(3) -0.0543(3) -0.35449(19)
N3 N 0.0445(2) 0.0067(3) -0.3159(2)
N4 N 0.1490(3) -0.0559(2) -0.3599(2)
N5 N 0.2307(3) -0.0744(3) -0.3809(3)
H17 H 0.2586 -0.0263 -0.3864
H18 H 0.2573 -0.1056 -0.3529
N6 N 0.3744(3) 0.3804(3) -0.41305(19)
C1G C 0.4640(4) -0.2531(3) 0.0342(3)
H1G H 0.4946 -0.2570 0.0704
C2G C 0.4079(3) -0.1870(3) 0.0273(3)
H2G H 0.4032 -0.1468 0.0581
C3G C 0.3590(3) -0.1795(3) -0.0239(3)
C4G C 0.3747(3) -0.2397(3) -0.0696(3)
H3G H 0.3459 -0.2365 -0.1067
C5G C 0.4322(3) -0.3031(4) -0.0600(3)
H4G H 0.4407 -0.3423 -0.0911
C6G C 0.2928(3) -0.1145(3) -0.0307(3)
C7G C 0.2931(3) -0.0415(4) 0.0051(3)
H5G H 0.3364 -0.0329 0.0333
C8G C 0.2308(4) 0.0175(4) -0.0006(4)
H6G H 0.2338 0.0668 0.0225
C9G C 0.1639(4) 0.0060(4) -0.0395(3)
H7G H 0.1209 0.0461 -0.0417
C10G C 0.1609(3) -0.0671(3) -0.0761(2)
C11G C 0.2256(3) -0.1263(3) -0.0708(3)
H8G H 0.2239 -0.1749 -0.0948
C12G C 0.0913(3) -0.0753(3) -0.1191(2)
C13G C -0.0048(3) -0.1262(3) -0.1804(2)
C14G C -0.0620(3) -0.1876(3) -0.2104(2)
C15G C -0.0457(3) -0.2170(4) -0.2691(2)
H9G H 0.0015 -0.1982 -0.2905
C16G C -0.1012(4) -0.2752(4) -0.2953(3)
H10G H -0.0919 -0.2942 -0.3350
C17G C -0.1699(3) -0.3047(3) -0.2626(2)
H11G H -0.2062 -0.3440 -0.2804
C18G C -0.1854(3) -0.2766(3) -0.2035(3)
C19G C -0.1299(3) -0.2171(3) -0.1787(3)
H12G H -0.1396 -0.1970 -0.1393
C20G C -0.2577(3) -0.3072(3) -0.1659(2)
C21G C -0.2990(3) -0.3836(3) -0.1793(3)
H13G H -0.2861 -0.4135 -0.2148
C22G C -0.3589(3) -0.4137(3) -0.1391(3)
H14G H -0.3861 -0.4642 -0.1486
C23G C -0.3439(4) -0.2986(3) -0.0775(3)
H15G H -0.3598 -0.2682 -0.0429
C24G C -0.2856(3) -0.2641(3) -0.1150(3)
H16G H -0.2640 -0.2106 -0.1063
Cd1B Cd 0.440512(19) 0.440512(19) -0.5000
Cd1B_2 Cd 0.440512(19) -0.559488(19) -0.5000
Cd1C Cd -0.440512(19) -0.440512(19) 0.0000
Cd1C_2 Cd 0.559488(19) -0.440512(19) 0.0000
N1E N -0.1885(3) -0.0238(3) -0.2589(2)
N1C N 0.0238(3) 0.1885(3) -0.2411(2)
N1G N 0.4762(3) -0.3115(3) -0.0089(2)
N2G N 0.0543(3) -0.0117(3) -0.14551(19)
N3G N -0.0067(3) -0.0445(2) -0.1841(2)
N4G N 0.0559(2) -0.1490(3) -0.1401(2)
N5G N 0.0744(3) -0.2307(3) -0.1191(3)
H17G H 0.0263 -0.2586 -0.1136
H18G H 0.1056 -0.2573 -0.1471
N6C N -0.1196(3) 0.1256(3) -0.16305(19)
N6E N -0.1256(3) 0.1196(3) -0.33695(19)
N6G N -0.3804(3) -0.3744(3) -0.08695(19)
Cl1 Cl 0.37356(11) 0.62644(11) 0.2500
O1 O 0.3704(9) 0.5591(9) 0.2109(5)
O2 O 0.3267(13) 0.5938(7) 0.3011(5)
O1G O 0.4409(9) 0.6296(9) 0.2891(5)
O2G O 0.4062(7) 0.6733(13) 0.1989(5)
Cl2 Cl 0.27005(11) 0.27005(11) 0.0000
O4 O 0.2363(4) 0.2347(5) -0.0529(2)
O6 O 0.2221(14) 0.3550(7) 0.0060(10)
O4F O 0.2347(5) 0.2363(4) 0.0529(2)
O6F O 0.3550(7) 0.2221(14) -0.0060(10)
N7 N 0.0972(10) 0.4308(10) 0.9217(6)
H19 H 0.1281 0.4171 0.9525
H20 H 0.1041 0.4057 0.8871
C25 C 0.0398(7) 0.4900(7) 0.9273(4)
C26 C 0.0290(7) 0.5305(7) 0.9833(4)
H21 H 0.0598 0.5129 1.0172
C27 C -0.0279(9) 0.5972(8) 0.9884(6)
H22 H -0.0351 0.6243 1.0258
C28 C -0.0739(8) 0.6235(7) 0.9376(8)
H23 H -0.1119 0.6681 0.9410
C29 C -0.0630(9) 0.5830(9) 0.8817(7)
H24 H -0.0938 0.6006 0.8477
C30 C -0.0062(9) 0.5162(9) 0.8765(4)
H25 H 0.0011 0.4892 0.8391
O3? O 0.2871(12) 0.6563(11) 0.2556(11)
O5? O 0.3279(6) 0.3279(6) 0.0000
loop_
_geom_bond_atom_site_label_1
_geom_bond_atom_site_label_2
_geom_bond_site_symmetry_1
_geom_bond_site_symmetry_2
C1 H1 1_555 1_555
C2 C1 1_555 1_555
H2 C2 1_555 1_555
C3 C2 1_555 1_555
C4 C3 1_555 1_555
H3 C4 1_555 1_555
C5 C4 1_555 1_555
H4 C5 1_555 1_555
C6 C3 1_555 1_555
C7 C6 1_555 1_555
H5 C7 1_555 1_555
C8 C7 1_555 1_555
H6 C8 1_555 1_555
C9 C8 1_555 1_555
H7 C9 1_555 1_555
C10 C9 1_555 1_555
C11 C6 1_555 1_555
H8 C11 1_555 1_555
C12 C10 1_555 1_555
C13 C14 1_555 1_555
C14 C15 1_555 1_555
C15 H9 1_555 1_555
C16 C15 1_555 1_555
H10 C16 1_555 1_555
C17 C16 1_555 1_555
H11 C17 1_555 1_555
C18 C17 1_555 1_555
C19 C14 1_555 1_555
H12 C19 1_555 1_555
C20 C18 1_555 1_555
C21 C20 1_555 1_555
H13 C21 1_555 1_555
C22 C21 1_555 1_555
H14 C22 1_555 1_555
C23 H15 1_555 1_555
C24 C20 1_555 1_555
H16 C24 1_555 1_555
Cd1 N3 1_555 1_555
Cl1 O1 1_555 1_555
Cl2 O4 1_555 1_555
N1 C1 1_555 1_555
N2 C12 1_555 1_555
N3 C13 1_555 1_555
N4 C12 1_555 1_555
N5 N4 1_555 1_555
H17 N5 1_555 1_555
H18 N5 1_555 1_555
N6 C22 1_555 1_555
N7 H19 1_555 1_555
H20 N7 1_555 1_555
C25 N7 1_555 1_555
C26 C25 1_555 1_555
H21 C26 1_555 1_555
C27 C26 1_555 1_555
H22 C27 1_555 1_555
C28 C27 1_555 1_555
H23 C28 1_555 1_555
C29 C28 1_555 1_555
H24 C29 1_555 1_555
C30 C25 1_555 1_555
H25 C30 1_555 1_555
O2 Cl1 1_555 1_555
O6 Cl2 1_555 1_555
C1G H1G 1_555 1_555
C2G C1G 1_555 1_555
H2G C2G 1_555 1_555
C3G C2G 1_555 1_555
C4G C3G 1_555 1_555
H3G C4G 1_555 1_555
C5G C4G 1_555 1_555
H4G C5G 1_555 1_555
C6G C3G 1_555 1_555
C7G C6G 1_555 1_555
H5G C7G 1_555 1_555
C8G C7G 1_555 1_555
H6G C8G 1_555 1_555
C9G C8G 1_555 1_555
H7G C9G 1_555 1_555
C10G C9G 1_555 1_555
C11G C6G 1_555 1_555
H8G C11G 1_555 1_555
C12G C10G 1_555 1_555
C13G C14G 1_555 1_555
C14G C15G 1_555 1_555
C15G H9G 1_555 1_555
C16G C15G 1_555 1_555
H10G C16G 1_555 1_555
C17G C16G 1_555 1_555
H11G C17G 1_555 1_555
C18G C17G 1_555 1_555
C19G C14G 1_555 1_555
H12G C19G 1_555 1_555
C20G C18G 1_555 1_555
C21G C20G 1_555 1_555
H13G C21G 1_555 1_555
C22G C21G 1_555 1_555
H14G C22G 1_555 1_555
C23G H15G 1_555 1_555
C24G C20G 1_555 1_555
H16G C24G 1_555 1_555
Cd1B N6 1_555 1_555
Cd1B_2 N1 1_555 1_555
Cd1C N6G 1_555 1_555
Cd1C_2 N1G 1_555 1_555
N1E Cd1 1_555 1_555
N1C Cd1 1_555 1_555
N1G C1G 1_555 1_555
N2G C12G 1_555 1_555
N3G Cd1 1_555 1_555
N4G C12G 1_555 1_555
N5G N4G 1_555 1_555
H17G N5G 1_555 1_555
H18G N5G 1_555 1_555
N6C Cd1 1_555 1_555
N6E Cd1 1_555 1_555
N6G C22G 1_555 1_555
O1G Cl1 1_555 1_555
O2G Cl1 1_555 1_555
O4F Cl2 1_555 1_555
O6F Cl2 1_555 1_555
C5 N1 1_555 1_555
C10 C11 1_555 1_555
C13 N4 1_555 1_555
C18 C19 1_555 1_555
C23 C24 1_555 1_555
C23 N6 1_555 1_555
N2 N3 1_555 1_555
C29 C30 1_555 1_555
C5G N1G 1_555 1_555
C10G C11G 1_555 1_555
C13G N3G 1_555 1_555
C13G N4G 1_555 1_555
C18G C19G 1_555 1_555
C23G C24G 1_555 1_555
C23G N6G 1_555 1_555
N2G N3G 1_555 1_555

#END
