
#######################################################################
#
#                 Cambridge Crystallographic Data Centre
#                                CCDC 
#
#######################################################################
#
# If this CIF has been generated from an entry in the Cambridge 
# Structural Database, then it will include bibliographic, chemical, 
# crystal, experimental, refinement or atomic coordinate data resulting 
# from the CCDC's data processing and validation procedures.
#
#######################################################################

data_OKOCAS
_symmetry_cell_setting           monoclinic
_symmetry_space_group_name_H-M   'P 21/c'
_symmetry_Int_Tables_number      14
_space_group_name_Hall           '-P 2ybc'
loop_
_symmetry_equiv_pos_site_id
_symmetry_equiv_pos_as_xyz
1 x,y,z
2 x,1/2-y,1/2+z
3 -x,-y,-z
4 -x,1/2+y,1/2-z
_cell_length_a                   7.7480(15)
_cell_length_b                   23.051(5)
_cell_length_c                   14.608(3)
_cell_angle_alpha                90
_cell_angle_beta                 96.21(3)
_cell_angle_gamma                90
_cell_volume                     2593.67
loop_
_atom_site_label
_atom_site_type_symbol
_atom_site_fract_x
_atom_site_fract_y
_atom_site_fract_z
Np1 Np 0.32291(3) 0.291003(12) 0.525068(18)
O1 O 0.2801(8) 0.3034(3) 0.4009(4)
O2 O 0.3522(8) 0.2766(3) 0.6492(4)
O3 O 0.0207(7) 0.3314(2) 0.5406(4)
O4 O 0.2359(7) 0.3932(2) 0.5633(4)
O5 O -0.4029(7) 0.3388(3) 0.5481(4)
O6 O -0.3013(8) 0.3694(3) 0.4191(4)
O7 O 0.1712(7) 0.1982(2) 0.5061(4)
O8 O 0.0309(9) 0.1431(3) 0.5949(5)
O9 O 0.5335(8) 0.2163(3) 0.4963(5)
O10 O 0.4791(11) 0.1563(3) 0.3812(5)
C1 C -0.0477(10) 0.4296(3) 0.5758(5)
C2 C -0.2276(10) 0.4237(3) 0.5536(5)
C3 C -0.3358(12) 0.4668(4) 0.5795(6)
H19 H -0.4554 0.4616 0.5702
C4 C -0.2688(15) 0.5173(4) 0.6189(7)
H20 H -0.3434 0.5468 0.6330
C5 C -0.0926(16) 0.5245(4) 0.6375(8)
H21 H -0.0480 0.5584 0.6653
C6 C 0.0174(11) 0.4813(4) 0.6150(6)
H22 H 0.1368 0.4867 0.6261
C7 C 0.0738(9) 0.3820(3) 0.5569(5)
C8 C -0.3137(8) 0.3728(3) 0.5011(5)
C9 C 0.3136(13) 0.1146(5) 0.5764(8)
C10 C 0.4626(14) 0.1209(5) 0.5312(8)
C11 C 0.600(2) 0.0826(8) 0.5516(15)
H23 H 0.6983 0.0861 0.5206
C12 C 0.594(3) 0.0404(10) 0.616(2)
H24 H 0.6918 0.0186 0.6348
C13 C 0.437(4) 0.0301(11) 0.653(2)
H25 H 0.4235 -0.0030 0.6879
C14 C 0.307(2) 0.0682(7) 0.6377(12)
H26 H 0.2092 0.0638 0.6689
C15 C 0.1612(11) 0.1540(4) 0.5595(6)
C16 C 0.4921(10) 0.1676(4) 0.4638(6)
O5_2 O 0.5971(7) 0.3388(3) 0.5481(4)
Np1_2 Np -0.67709(3) 0.291003(12) 0.525068(18)
Co1 Co 0.83828(11) 0.25156(4) 0.27029(6)
N1 N 0.8422(8) 0.2434(3) 0.4035(4)
H1 H 0.7435 0.2569 0.4211
H2 H 0.9312 0.2633 0.4313
H3 H 0.8537 0.2061 0.4187
N2 N 1.0722(9) 0.2164(3) 0.2771(5)
H4 H 1.1522 0.2441 0.2856
H5 H 1.0839 0.1977 0.2248
H6 H 1.0856 0.1915 0.3239
N3 N 0.6073(9) 0.2871(3) 0.2649(5)
H7 H 0.6183 0.3254 0.2716
H8 H 0.5512 0.2729 0.3100
H9 H 0.5478 0.2792 0.2108
N4 N 0.8316(9) 0.2586(3) 0.1371(4)
H10 H 0.7313 0.2745 0.1145
H11 H 0.8416 0.2236 0.1125
H12 H 0.9189 0.2810 0.1235
N5 N 0.7291(8) 0.1744(3) 0.2526(4)
H13 H 0.6141 0.1782 0.2469
H14 H 0.7624 0.1521 0.3011
H15 H 0.7616 0.1581 0.2020
N6 N 0.9433(10) 0.3282(3) 0.2895(5)
H16 H 0.8601 0.3549 0.2891
H17 H 1.0090 0.3358 0.2445
H18 H 1.0087 0.3290 0.3434
O11 O 0.2909(17) 0.0834(5) 0.2657(7)
O12 O 0.9912(18) 0.4124(6) 0.8445(9)
loop_
_geom_bond_atom_site_label_1
_geom_bond_atom_site_label_2
_geom_bond_site_symmetry_1
_geom_bond_site_symmetry_2
Np1 O1 1_555 1_555
Co1 N1 1_555 1_555
O2 Np1 1_555 1_555
O3 Np1 1_555 1_555
O4 Np1 1_555 1_555
O5 C8 1_555 1_555
O6 C8 1_555 1_555
O7 Np1 1_555 1_555
O8 C15 1_555 1_555
O9 Np1 1_555 1_555
O10 C16 1_555 1_555
N1 H1 1_555 1_555
H2 N1 1_555 1_555
H3 N1 1_555 1_555
N2 Co1 1_555 1_555
H4 N2 1_555 1_555
H5 N2 1_555 1_555
H6 N2 1_555 1_555
N3 Co1 1_555 1_555
H7 N3 1_555 1_555
H8 N3 1_555 1_555
H9 N3 1_555 1_555
N4 Co1 1_555 1_555
H10 N4 1_555 1_555
H11 N4 1_555 1_555
H12 N4 1_555 1_555
N5 Co1 1_555 1_555
H13 N5 1_555 1_555
H14 N5 1_555 1_555
H15 N5 1_555 1_555
N6 Co1 1_555 1_555
H16 N6 1_555 1_555
H17 N6 1_555 1_555
H18 N6 1_555 1_555
C1 C2 1_555 1_555
C2 C3 1_555 1_555
C3 H19 1_555 1_555
C4 C3 1_555 1_555
H20 C4 1_555 1_555
C5 C4 1_555 1_555
H21 C5 1_555 1_555
C6 C1 1_555 1_555
H22 C6 1_555 1_555
C7 O3 1_555 1_555
C8 C2 1_555 1_555
C9 C10 1_555 1_555
C10 C11 1_555 1_555
C11 H23 1_555 1_555
C12 C11 1_555 1_555
H24 C12 1_555 1_555
C13 C12 1_555 1_555
H25 C13 1_555 1_555
C14 C9 1_555 1_555
H26 C14 1_555 1_555
C15 O7 1_555 1_555
C16 O9 1_555 1_555
O5_2 Np1 1_555 1_555
Np1_2 O5 1_555 1_555
O4 C7 1_555 1_555
C1 C7 1_555 1_555
C5 C6 1_555 1_555
C9 C15 1_555 1_555
C10 C16 1_555 1_555
C13 C14 1_555 1_555

#END
