
#######################################################################
#
#                 Cambridge Crystallographic Data Centre
#                                CCDC 
#
#######################################################################
#
# If this CIF has been generated from an entry in the Cambridge 
# Structural Database, then it will include bibliographic, chemical, 
# crystal, experimental, refinement or atomic coordinate data resulting 
# from the CCDC's data processing and validation procedures.
#
#######################################################################

data_OKONUX
_symmetry_cell_setting           hexagonal
_symmetry_space_group_name_H-M   'P 65 2 2'
_symmetry_Int_Tables_number      179
_space_group_name_Hall           "P 65 2' (0,0,1)"
loop_
_symmetry_equiv_pos_site_id
_symmetry_equiv_pos_as_xyz
1 x,y,z
2 -y,x-y,2/3+z
3 -x+y,-x,1/3+z
4 -x,-y,1/2+z
5 y,-x+y,1/6+z
6 x-y,x,5/6+z
7 y,x,2/3-z
8 x-y,-y,-z
9 -x,-x+y,1/3-z
10 -y,-x,1/6-z
11 -x+y,y,1/2-z
12 x,x-y,5/6-z
_cell_length_a                   15.339(1)
_cell_length_b                   15.339(1)
_cell_length_c                   18.668(4)
_cell_angle_alpha                90
_cell_angle_beta                 90
_cell_angle_gamma                120
_cell_volume                     3803.84
loop_
_atom_site_label
_atom_site_type_symbol
_atom_site_fract_x
_atom_site_fract_y
_atom_site_fract_z
Sm1 Sm 0.727917(17) 0.272083(17) 0.0833
Mo1 Mo 0.87384(4) 0.15195(4) 0.35597(3)
O1 O 0.8312(4) 0.2226(3) 0.2686(2)
O2 O 0.7038(4) 0.1993(3) 0.1987(2)
O3 O 0.7305(4) 0.0616(3) 0.3416(2)
O4 O 0.7035(3) -0.0098(3) 0.1957(2)
O5 O 0.4969(4) -0.1249(4) 0.3170(3)
O6 O 0.5822(4) -0.1787(3) 0.2519(3)
O7 O 0.9304(4) 0.1134(4) 0.2949(2)
O8 O 0.8760(4) 0.0951(4) 0.4337(2)
O9 O 0.5524(4) 0.1576(5) 0.0573(3)
O10 O 0.7077(6) 0.1056(5) 0.0667(3)
O11 O 0.6344(5) 0.3272(5) 0.1615(3)
C1 C 0.7407(5) 0.1736(5) 0.2492(3)
C2 C 0.6742(5) 0.0784(5) 0.2898(3)
H1 H 0.6206 0.0846 0.3135
C3 C 0.6268(5) -0.0094(5) 0.2362(3)
H2 H 0.5833 0.0018 0.2037
C4 C 0.5633(5) -0.1110(5) 0.2728(3)
O1I O 0.7774(3) 0.1688(4) -0.1019(2)
O2I O 0.8007(3) 0.2962(4) -0.0320(2)
O3I O 0.9384(3) 0.2695(4) -0.1749(2)
O4I O 1.0098(3) 0.2965(3) -0.0290(2)
O5I O 1.1249(4) 0.5031(4) -0.1503(3)
O6I O 1.1787(3) 0.4178(4) -0.0852(3)
C1I C 0.8264(5) 0.2593(5) -0.0825(3)
C2I C 0.9216(5) 0.3258(5) -0.1231(3)
H1I H 0.9154 0.3794 -0.1468
C3I C 1.0094(5) 0.3732(5) -0.0695(3)
H2I H 0.9982 0.4167 -0.0370
C4I C 1.1110(5) 0.4367(5) -0.1061(3)
O9I O 0.8424(5) 0.4476(4) 0.1094(3)
O10I O 0.8944(5) 0.2923(6) 0.1000(3)
O11I O 0.6728(5) 0.3656(5) 0.0052(3)
Mo1I Mo 0.84805(4) 0.12616(4) -0.18930(3)
O7I O 0.8866(4) 0.0696(4) -0.1282(2)
O8I O 0.9049(4) 0.1240(4) -0.2670(2)
O4D O 0.9902(3) 0.2867(4) 0.3624(2)
O6D O 0.8213(3) 0.2391(5) 0.4186(3)
Mo1E Mo 0.72189(6) -0.12616(4) 0.18930(3)
Mo1H Mo 1.12616(4) 0.27811(6) -0.02264(3)
O4G O 0.7133(4) 0.0098(3) -0.1957(2)
O6G O 0.7609(5) 0.1787(3) -0.2519(3)
O12 O 0.9347(7) 0.4941(8) 0.6002(4)
O13 O 0.8589(9) 0.1411(9) 0.5833
O14 O 0.9644(13) -0.0178(6) 0.4167
O15 O 0.6166(18) -0.0762(17) 0.4612(7)
N1 N 1.0000 0.2176(6) 0.1667
loop_
_geom_bond_atom_site_label_1
_geom_bond_atom_site_label_2
_geom_bond_site_symmetry_1
_geom_bond_site_symmetry_2
Sm1 O2 1_555 1_555
Mo1 O1 1_555 1_555
O1 C1 1_555 1_555
O2 C1 1_555 1_555
O3 Mo1 1_555 1_555
O4 C3 1_555 1_555
O5 C4 1_555 1_555
O6 C4 1_555 1_555
O7 Mo1 1_555 1_555
O8 Mo1 1_555 1_555
O9 Sm1 1_555 1_555
O10 Sm1 1_555 1_555
O11 Sm1 1_555 1_555
C1 C2 1_555 1_555
C2 O3 1_555 1_555
H1 C2 1_555 1_555
C3 C2 1_555 1_555
H2 C3 1_555 1_555
C4 C3 1_555 1_555
O1I C1I 1_555 1_555
O2I Sm1 1_555 1_555
O3I C2I 1_555 1_555
O4I C3I 1_555 1_555
O5I C4I 1_555 1_555
O6I C4I 1_555 1_555
C1I O2I 1_555 1_555
C2I C1I 1_555 1_555
H1I C2I 1_555 1_555
C3I C2I 1_555 1_555
H2I C3I 1_555 1_555
C4I C3I 1_555 1_555
O9I Sm1 1_555 1_555
O10I Sm1 1_555 1_555
O11I Sm1 1_555 1_555
Mo1I O1I 1_555 1_555
O7I Mo1I 1_555 1_555
O8I Mo1I 1_555 1_555
O4D Mo1 1_555 1_555
O6D Mo1 1_555 1_555
Mo1E O4 1_555 1_555
Mo1H O4I 1_555 1_555
O4G Mo1I 1_555 1_555
O6G Mo1I 1_555 1_555
O6 Mo1E 1_555 1_555
O3I Mo1I 1_555 1_555
O6I Mo1H 1_555 1_555

#END
