
#######################################################################
#
#                 Cambridge Crystallographic Data Centre
#                                CCDC 
#
#######################################################################
#
# If this CIF has been generated from an entry in the Cambridge 
# Structural Database, then it will include bibliographic, chemical, 
# crystal, experimental, refinement or atomic coordinate data resulting 
# from the CCDC's data processing and validation procedures.
#
#######################################################################

data_OKOPIN
_symmetry_cell_setting           hexagonal
_symmetry_space_group_name_H-M   'P 65 2 2'
_symmetry_Int_Tables_number      179
_space_group_name_Hall           "P 65 2' (0,0,1)"
loop_
_symmetry_equiv_pos_site_id
_symmetry_equiv_pos_as_xyz
1 x,y,z
2 -y,x-y,2/3+z
3 -x+y,-x,1/3+z
4 -x,-y,1/2+z
5 y,-x+y,1/6+z
6 x-y,x,5/6+z
7 y,x,2/3-z
8 x-y,-y,-z
9 -x,-x+y,1/3-z
10 -y,-x,1/6-z
11 -x+y,y,1/2-z
12 x,x-y,5/6-z
_cell_length_a                   15.3351(2)
_cell_length_b                   15.3351(2)
_cell_length_c                   18.7435(3)
_cell_angle_alpha                90
_cell_angle_beta                 90
_cell_angle_gamma                120
_cell_volume                     3817.28
loop_
_atom_site_label
_atom_site_type_symbol
_atom_site_fract_x
_atom_site_fract_y
_atom_site_fract_z
Eu1 Eu 0.72747(3) 0.27253(3) 0.0833
Mo1 Mo 0.87321(7) 0.15243(7) 0.35449(4)
O1 O 0.8291(6) 0.2230(6) 0.2680(4)
O2 O 0.7031(6) 0.2000(5) 0.1982(4)
O3 O 0.7295(6) 0.0612(5) 0.3401(3)
O4 O 0.7020(6) -0.0109(5) 0.1944(3)
O5 O 0.4970(6) -0.1255(6) 0.3158(4)
O6 O 0.5816(5) -0.1794(5) 0.2502(4)
O7 O 0.9291(7) 0.1145(6) 0.2924(4)
O8 O 0.8759(7) 0.0951(7) 0.4308(4)
O9 O 0.5519(6) 0.1582(7) 0.0585(4)
O10 O 0.7066(9) 0.1075(7) 0.0654(5)
O11 O 0.6356(7) 0.3286(6) 0.1610(4)
C1 C 0.7379(9) 0.1726(8) 0.2488(6)
C2 C 0.6735(8) 0.0787(8) 0.2879(5)
H1 H 0.6193 0.0840 0.3115
C3 C 0.6269(8) -0.0097(8) 0.2351(5)
H2 H 0.5828 0.0010 0.2028
C4 C 0.5632(9) -0.1127(8) 0.2714(6)
O1I O 0.7770(6) 0.1709(6) -0.1013(4)
O2I O 0.8000(5) 0.2969(6) -0.0315(4)
O3I O 0.9388(5) 0.2705(6) -0.1734(3)
O4I O 1.0109(5) 0.2980(6) -0.0277(3)
O5I O 1.1255(6) 0.5030(6) -0.1491(4)
O6I O 1.1794(5) 0.4184(5) -0.0835(4)
C1I C 0.8274(8) 0.2621(9) -0.0821(6)
C2I C 0.9213(8) 0.3265(8) -0.1212(5)
H1I H 0.9160 0.3807 -0.1448
C3I C 1.0097(8) 0.3731(8) -0.0684(5)
H2I H 0.9990 0.4172 -0.0361
C4I C 1.1127(8) 0.4368(9) -0.1047(6)
O9I O 0.8418(7) 0.4481(6) 0.1082(4)
O10I O 0.8925(7) 0.2934(9) 0.1013(5)
O11I O 0.6714(6) 0.3644(7) 0.0057(4)
Mo1I Mo 0.84757(7) 0.12679(7) -0.18782(4)
O7I O 0.8855(6) 0.0709(7) -0.1257(4)
O8I O 0.9049(7) 0.1241(7) -0.2641(4)
O4D O 0.9891(5) 0.2871(8) 0.3611(3)
O6D O 0.8206(5) 0.2390(7) 0.4169(4)
Mo1E Mo 0.72078(10) -0.12679(7) 0.18782(4)
Mo1H Mo 1.12679(7) 0.27922(10) -0.02116(4)
O4G O 0.7129(8) 0.0109(5) -0.1944(3)
O6G O 0.7610(7) 0.1794(5) -0.2502(4)
O12 O 0.9329(8) 0.4949(10) 0.5994(5)
O13 O 0.8558(16) 0.1442(16) 0.5833
O14 O 0.977(4) -0.012(2) 0.4167
O15 O 0.6360(18) -0.0743(19) 0.4546(9)
N1 N 1.0000 0.2187(9) 0.1667
loop_
_geom_bond_atom_site_label_1
_geom_bond_atom_site_label_2
_geom_bond_site_symmetry_1
_geom_bond_site_symmetry_2
Eu1 O2 1_555 1_555
Mo1 O1 1_555 1_555
O1 C1 1_555 1_555
O2 C1 1_555 1_555
O3 Mo1 1_555 1_555
O4 C3 1_555 1_555
O5 C4 1_555 1_555
O6 C4 1_555 1_555
O7 Mo1 1_555 1_555
O8 Mo1 1_555 1_555
O9 Eu1 1_555 1_555
O10 Eu1 1_555 1_555
O11 Eu1 1_555 1_555
C1 C2 1_555 1_555
C2 O3 1_555 1_555
H1 C2 1_555 1_555
C3 C2 1_555 1_555
H2 C3 1_555 1_555
C4 C3 1_555 1_555
O1I C1I 1_555 1_555
O2I Eu1 1_555 1_555
O3I C2I 1_555 1_555
O4I C3I 1_555 1_555
O5I C4I 1_555 1_555
O6I C4I 1_555 1_555
C1I O2I 1_555 1_555
C2I C1I 1_555 1_555
H1I C2I 1_555 1_555
C3I C2I 1_555 1_555
H2I C3I 1_555 1_555
C4I C3I 1_555 1_555
O9I Eu1 1_555 1_555
O10I Eu1 1_555 1_555
O11I Eu1 1_555 1_555
Mo1I O1I 1_555 1_555
O7I Mo1I 1_555 1_555
O8I Mo1I 1_555 1_555
O4D Mo1 1_555 1_555
O6D Mo1 1_555 1_555
Mo1E O4 1_555 1_555
Mo1H O4I 1_555 1_555
O4G Mo1I 1_555 1_555
O6G Mo1I 1_555 1_555
O6 Mo1E 1_555 1_555
O3I Mo1I 1_555 1_555
O6I Mo1H 1_555 1_555

#END
