
#######################################################################
#
#                 Cambridge Crystallographic Data Centre
#                                CCDC 
#
#######################################################################
#
# If this CIF has been generated from an entry in the Cambridge 
# Structural Database, then it will include bibliographic, chemical, 
# crystal, experimental, refinement or atomic coordinate data resulting 
# from the CCDC's data processing and validation procedures.
#
#######################################################################

data_OKOPOT
_symmetry_cell_setting           hexagonal
_symmetry_space_group_name_H-M   'P 65 2 2'
_symmetry_Int_Tables_number      179
_space_group_name_Hall           "P 65 2' (0,0,1)"
loop_
_symmetry_equiv_pos_site_id
_symmetry_equiv_pos_as_xyz
1 x,y,z
2 -y,x-y,2/3+z
3 -x+y,-x,1/3+z
4 -x,-y,1/2+z
5 y,-x+y,1/6+z
6 x-y,x,5/6+z
7 y,x,2/3-z
8 x-y,-y,-z
9 -x,-x+y,1/3-z
10 -y,-x,1/6-z
11 -x+y,y,1/2-z
12 x,x-y,5/6-z
_cell_length_a                   15.3017(2)
_cell_length_b                   15.3017(2)
_cell_length_c                   18.5504(3)
_cell_angle_alpha                90
_cell_angle_beta                 90
_cell_angle_gamma                120
_cell_volume                     3761.52
loop_
_atom_site_label
_atom_site_type_symbol
_atom_site_fract_x
_atom_site_fract_y
_atom_site_fract_z
Ho1 Ho 0.72771(4) 0.27229(4) 0.0833
Mo1 Mo 0.87330(10) 0.15297(10) 0.35518(6)
O1 O 0.8298(8) 0.2239(8) 0.2667(5)
O2 O 0.7038(7) 0.1997(7) 0.1960(5)
O3 O 0.7276(8) 0.0624(7) 0.3407(4)
O4 O 0.7014(7) -0.0094(7) 0.1941(5)
O5 O 0.4968(9) -0.1240(9) 0.3173(6)
O6 O 0.5798(7) -0.1799(8) 0.2514(6)
O7 O 0.9303(9) 0.1136(8) 0.2945(5)
O8 O 0.8751(9) 0.0967(9) 0.4337(5)
O9 O 0.5555(9) 0.1583(10) 0.0582(6)
O10 O 0.7073(14) 0.1092(10) 0.0668(7)
O11 O 0.6353(9) 0.3262(9) 0.1613(6)
C1 C 0.7426(13) 0.1777(11) 0.2465(8)
C2 C 0.6712(12) 0.0781(12) 0.2878(8)
H1 H 0.6172 0.0846 0.3111
C3 C 0.6257(11) -0.0080(11) 0.2350(6)
H2 H 0.5821 0.0032 0.2022
C4 C 0.5601(13) -0.1107(12) 0.2732(8)
O1I O 0.7761(8) 0.1702(8) -0.1000(5)
O2I O 0.8003(7) 0.2962(7) -0.0293(5)
O3I O 0.9376(7) 0.2724(8) -0.1740(4)
O4I O 1.0094(7) 0.2986(7) -0.0274(5)
O5I O 1.1240(9) 0.5032(9) -0.1506(6)
O6I O 1.1799(8) 0.4202(7) -0.0847(6)
C1I C 0.8223(11) 0.2574(13) -0.0798(8)
C2I C 0.9219(12) 0.3288(12) -0.1211(8)
H1I H 0.9154 0.3828 -0.1444
C3I C 1.0080(11) 0.3743(11) -0.0683(6)
H2I H 0.9968 0.4179 -0.0355
C4I C 1.1107(12) 0.4399(13) -0.1065(8)
O9I O 0.8417(10) 0.4445(9) 0.1085(6)
O10I O 0.8908(10) 0.2927(14) 0.0999(7)
O11I O 0.6738(9) 0.3647(9) 0.0054(6)
Mo1I Mo 0.84703(10) 0.12670(10) -0.18851(6)
O7I O 0.8864(8) 0.0697(9) -0.1278(5)
O8I O 0.9033(9) 0.1249(9) -0.2670(5)
O4D O 0.9906(7) 0.2892(10) 0.3608(5)
O6D O 0.8201(8) 0.2403(11) 0.4181(6)
Mo1E Mo 0.72033(14) -0.12670(10) 0.18851(6)
Mo1H Mo 1.12670(10) 0.27967(14) -0.02185(6)
O4G O 0.7108(10) 0.0094(7) -0.1941(5)
O6G O 0.7597(11) 0.1799(8) -0.2514(6)
O12 O 0.9350(14) 0.4974(15) 0.6006(9)
O13 O 0.8587(17) 0.1413(17) 0.5833
O14 O 0.968(3) -0.0160(13) 0.4167
O15 O 0.617(3) -0.076(3) 0.4596(12)
N1 N 1.0000 0.2195(13) 0.1667
loop_
_geom_bond_atom_site_label_1
_geom_bond_atom_site_label_2
_geom_bond_site_symmetry_1
_geom_bond_site_symmetry_2
Ho1 O2 1_555 1_555
Mo1 O1 1_555 1_555
O1 C1 1_555 1_555
O2 C1 1_555 1_555
O3 Mo1 1_555 1_555
O4 C3 1_555 1_555
O5 C4 1_555 1_555
O6 C4 1_555 1_555
O7 Mo1 1_555 1_555
O8 Mo1 1_555 1_555
O9 Ho1 1_555 1_555
O10 Ho1 1_555 1_555
O11 Ho1 1_555 1_555
C1 C2 1_555 1_555
C2 O3 1_555 1_555
H1 C2 1_555 1_555
C3 C2 1_555 1_555
H2 C3 1_555 1_555
C4 C3 1_555 1_555
O1I C1I 1_555 1_555
O2I Ho1 1_555 1_555
O3I C2I 1_555 1_555
O4I C3I 1_555 1_555
O5I C4I 1_555 1_555
O6I C4I 1_555 1_555
C1I O2I 1_555 1_555
C2I C1I 1_555 1_555
H1I C2I 1_555 1_555
C3I C2I 1_555 1_555
H2I C3I 1_555 1_555
C4I C3I 1_555 1_555
O9I Ho1 1_555 1_555
O10I Ho1 1_555 1_555
O11I Ho1 1_555 1_555
Mo1I O1I 1_555 1_555
O7I Mo1I 1_555 1_555
O8I Mo1I 1_555 1_555
O4D Mo1 1_555 1_555
O6D Mo1 1_555 1_555
Mo1E O4 1_555 1_555
Mo1H O4I 1_555 1_555
O4G Mo1I 1_555 1_555
O6G Mo1I 1_555 1_555
O6 Mo1E 1_555 1_555
O3I Mo1I 1_555 1_555
O6I Mo1H 1_555 1_555

#END
