
#######################################################################
#
#                 Cambridge Crystallographic Data Centre
#                                CCDC 
#
#######################################################################
#
# If this CIF has been generated from an entry in the Cambridge 
# Structural Database, then it will include bibliographic, chemical, 
# crystal, experimental, refinement or atomic coordinate data resulting 
# from the CCDC's data processing and validation procedures.
#
#######################################################################

data_OKOPUZ
_symmetry_cell_setting           hexagonal
_symmetry_space_group_name_H-M   'P 65 2 2'
_symmetry_Int_Tables_number      179
_space_group_name_Hall           "P 65 2' (0,0,1)"
loop_
_symmetry_equiv_pos_site_id
_symmetry_equiv_pos_as_xyz
1 x,y,z
2 -y,x-y,2/3+z
3 -x+y,-x,1/3+z
4 -x,-y,1/2+z
5 y,-x+y,1/6+z
6 x-y,x,5/6+z
7 y,x,2/3-z
8 x-y,-y,-z
9 -x,-x+y,1/3-z
10 -y,-x,1/6-z
11 -x+y,y,1/2-z
12 x,x-y,5/6-z
_cell_length_a                   15.295(1)
_cell_length_b                   15.295(1)
_cell_length_c                   18.597(2)
_cell_angle_alpha                90
_cell_angle_beta                 90
_cell_angle_gamma                120
_cell_volume                     3767.67
loop_
_atom_site_label
_atom_site_type_symbol
_atom_site_fract_x
_atom_site_fract_y
_atom_site_fract_z
Y1 Y 0.72758(8) 0.27242(8) 0.0833
Mo1 Mo 0.87311(11) 0.15302(11) 0.35478(7)
O1 O 0.8295(8) 0.2226(7) 0.2662(5)
O2 O 0.7037(8) 0.2021(7) 0.1965(5)
O3 O 0.7288(8) 0.0617(7) 0.3402(5)
O4 O 0.7004(8) -0.0105(7) 0.1943(5)
O5 O 0.4970(8) -0.1234(8) 0.3160(5)
O6 O 0.5811(8) -0.1794(7) 0.2512(6)
O7 O 0.9298(9) 0.1132(8) 0.2939(5)
O8 O 0.8741(8) 0.0951(9) 0.4330(5)
O9 O 0.5568(8) 0.1610(10) 0.0569(6)
O10 O 0.7065(11) 0.1083(9) 0.0659(7)
O11 O 0.6358(9) 0.3256(9) 0.1596(6)
C1 C 0.7400(12) 0.1753(12) 0.2475(9)
C2 C 0.6721(12) 0.0784(11) 0.2887(8)
H1 H 0.6180 0.0841 0.3125
C3 C 0.6267(11) -0.0079(10) 0.2349(8)
H2 H 0.5828 0.0034 0.2024
C4 C 0.5612(12) -0.1124(12) 0.2724(8)
O1I O 0.7774(7) 0.1705(8) -0.0995(5)
O2I O 0.7979(7) 0.2963(8) -0.0298(5)
O3I O 0.9383(7) 0.2712(8) -0.1735(5)
O4I O 1.0105(7) 0.2996(8) -0.0276(5)
O5I O 1.1234(8) 0.5030(8) -0.1493(5)
O6I O 1.1794(7) 0.4189(8) -0.0845(6)
C1I C 0.8247(12) 0.2600(12) -0.0808(9)
C2I C 0.9216(11) 0.3279(12) -0.1220(8)
H1I H 0.9159 0.3820 -0.1458
C3I C 1.0079(10) 0.3733(11) -0.0682(8)
H2I H 0.9966 0.4172 -0.0357
C4I C 1.1124(12) 0.4388(12) -0.1057(8)
O9I O 0.8390(10) 0.4432(8) 0.1098(6)
O10I O 0.8917(9) 0.2935(11) 0.1008(7)
O11I O 0.6744(9) 0.3642(9) 0.0071(6)
Mo1I Mo 0.84698(11) 0.12689(11) -0.18811(7)
O7I O 0.8868(8) 0.0702(9) -0.1272(5)
O8I O 0.9049(9) 0.1259(8) -0.2663(5)
O4D O 0.9895(7) 0.2891(11) 0.3610(5)
O6D O 0.8206(7) 0.2395(11) 0.4179(6)
Mo1E Mo 0.72009(16) -0.12689(11) 0.18811(7)
Mo1H Mo 1.12689(11) 0.27991(16) -0.02145(7)
O4G O 0.7109(11) 0.0105(7) -0.1943(5)
O6G O 0.7605(11) 0.1794(7) -0.2512(6)
O12 O 0.9359(15) 0.4947(17) 0.6016(9)
O13 O 0.8562(17) 0.1438(17) 0.5833
O14 O 0.959(3) -0.0207(16) 0.4167
O15 O 0.634(2) -0.065(2) 0.4581(14)
N1 N 1.0000 0.2197(12) 0.1667
loop_
_geom_bond_atom_site_label_1
_geom_bond_atom_site_label_2
_geom_bond_site_symmetry_1
_geom_bond_site_symmetry_2
Y1 O2 1_555 1_555
Mo1 O1 1_555 1_555
O1 C1 1_555 1_555
O2 C1 1_555 1_555
O3 Mo1 1_555 1_555
O4 C3 1_555 1_555
O5 C4 1_555 1_555
O6 C4 1_555 1_555
O7 Mo1 1_555 1_555
O8 Mo1 1_555 1_555
O9 Y1 1_555 1_555
O10 Y1 1_555 1_555
O11 Y1 1_555 1_555
C1 C2 1_555 1_555
C2 O3 1_555 1_555
H1 C2 1_555 1_555
C3 C2 1_555 1_555
H2 C3 1_555 1_555
C4 C3 1_555 1_555
O1I C1I 1_555 1_555
O2I Y1 1_555 1_555
O3I C2I 1_555 1_555
O4I C3I 1_555 1_555
O5I C4I 1_555 1_555
O6I C4I 1_555 1_555
C1I O2I 1_555 1_555
C2I C1I 1_555 1_555
H1I C2I 1_555 1_555
C3I C2I 1_555 1_555
H2I C3I 1_555 1_555
C4I C3I 1_555 1_555
O9I Y1 1_555 1_555
O10I Y1 1_555 1_555
O11I Y1 1_555 1_555
Mo1I O1I 1_555 1_555
O7I Mo1I 1_555 1_555
O8I Mo1I 1_555 1_555
O4D Mo1 1_555 1_555
O6D Mo1 1_555 1_555
Mo1E O4 1_555 1_555
Mo1H O4I 1_555 1_555
O4G Mo1I 1_555 1_555
O6G Mo1I 1_555 1_555
O6 Mo1E 1_555 1_555
O3I Mo1I 1_555 1_555
O6I Mo1H 1_555 1_555

#END
