
#######################################################################
#
#                 Cambridge Crystallographic Data Centre
#                                CCDC 
#
#######################################################################
#
# If this CIF has been generated from an entry in the Cambridge 
# Structural Database, then it will include bibliographic, chemical, 
# crystal, experimental, refinement or atomic coordinate data resulting 
# from the CCDC's data processing and validation procedures.
#
#######################################################################

data_OKOQEL
_symmetry_cell_setting           triclinic
_symmetry_space_group_name_H-M   'P -1'
_symmetry_Int_Tables_number      2
_space_group_name_Hall           '-P 1'
loop_
_symmetry_equiv_pos_site_id
_symmetry_equiv_pos_as_xyz
1 x,y,z
2 -x,-y,-z
_cell_length_a                   8.9031(9)
_cell_length_b                   10.9120(11)
_cell_length_c                   14.4304(15)
_cell_angle_alpha                103.6150(10)
_cell_angle_beta                 102.272(2)
_cell_angle_gamma                97.5290(10)
_cell_volume                     1306.97
loop_
_atom_site_label
_atom_site_type_symbol
_atom_site_fract_x
_atom_site_fract_y
_atom_site_fract_z
Cu1 Cu 0.35051(5) 0.25821(3) 0.37287(3)
N1 N 0.3615(3) 0.0871(2) 0.38046(18)
N2 N 0.3662(3) -0.5603(2) 0.38885(18)
C3 C 0.4748(4) -0.4938(3) 0.3579(2)
H5 H 0.5499 -0.5353 0.3349
C4 C 0.4791(4) -0.3669(3) 0.3588(2)
H6 H 0.5575 -0.3239 0.3381
C5 C 0.3660(3) -0.3028(3) 0.3908(2)
C6 C 0.2563(4) -0.3712(3) 0.4254(2)
H7 H 0.1806 -0.3319 0.4494
C7 C 0.2611(4) -0.4982(3) 0.4238(2)
H8 H 0.1884 -0.5421 0.4481
C8 C 0.3625(3) -0.1686(3) 0.3870(2)
C9 C 0.2970(3) 0.0380(3) 0.4436(2)
H9 H 0.2521 0.0911 0.4858
C10 C 0.4260(3) 0.0074(3) 0.3202(2)
H10 H 0.4699 0.0388 0.2754
C11 C 0.4298(3) -0.1182(3) 0.3218(2)
H11 H 0.4771 -0.1689 0.2796
C12 C 0.2942(3) -0.0870(3) 0.4487(2)
H12 H 0.2470 -0.1167 0.4929
Cu1_2 Cu 0.35051(5) -0.74179(3) 0.37287(3)
N2_2 N 0.3662(3) 0.4397(2) 0.38885(18)
Cu2 Cu -0.83167(5) 0.17350(3) 0.12325(3)
N3 N -0.8416(3) 0.3453(2) 0.11667(19)
N4 N -0.8541(3) 0.9941(2) 0.10949(18)
C13 C -0.7673(4) 0.3991(3) 0.0598(2)
H13 H -0.7112 0.3503 0.0230
C14 C -0.9212(4) 0.4170(3) 0.1684(2)
H14 H -0.9740 0.3809 0.2076
C15 C -0.7608(4) 0.9259(3) 0.0652(2)
H15 H -0.6938 0.9665 0.0355
C16 C -0.9547(4) 0.9307(3) 0.1479(2)
H16 H -1.0244 0.9743 0.1756
C17 C -0.8526(3) 0.5993(3) 0.1084(2)
C18 C -0.8585(3) 0.7337(3) 0.1055(2)
C19 C -0.7599(4) 0.7980(3) 0.0619(2)
H17 H -0.6934 0.7549 0.0304
C20 C -0.9587(4) 0.8032(3) 0.1478(2)
H18 H -1.0288 0.7639 0.1763
C21 C -0.9297(4) 0.5424(3) 0.1672(2)
H19 H -0.9865 0.5887 0.2052
C22 C -0.7703(4) 0.5231(3) 0.0536(2)
H20 H -0.7175 0.5559 0.0130
Cu2_2 Cu -0.83167(5) 1.17350(3) 0.12325(3)
N4_2 N -0.8541(3) -0.0059(2) 0.10949(18)
S1 S -0.03944(9) 0.18900(7) 0.36447(6)
S2 S -0.43886(9) 0.24229(7) 0.15505(5)
O1 O 0.0684(2) 0.2081(2) 0.30348(16)
O2 O -0.5032(3) 0.1630(2) 0.05490(16)
O3 O -0.5496(2) 0.2329(2) 0.21613(15)
O4 O -0.3732(3) 0.3739(2) 0.16117(19)
O5 O 0.0203(3) 0.2690(2) 0.46598(16)
O6 O -0.0930(3) 0.0551(2) 0.35788(18)
C1 C -0.2072(4) 0.2477(3) 0.3142(2)
H1 H -0.2850 0.2373 0.3511
H2 H -0.1776 0.3386 0.3205
C2 C -0.2780(3) 0.1767(3) 0.2062(2)
H3 H -0.3133 0.0866 0.2002
H4 H -0.1987 0.1830 0.1698
O7 O 0.6966(4) 0.6359(2) 0.1793(2)
H21 H 0.6729 0.5576 0.1807
H22 H 0.7623 0.6367 0.1436
O8 O 0.1297(4) 0.2094(2) 0.64446(19)
H23 H 0.1251 0.1297 0.6437
H24 H 0.0876 0.2086 0.5845
O9 O 0.6341(4) 0.8612(3) 0.1430(2)
H25 H 0.5562 0.8558 0.1691
H26 H 0.5943 0.8565 0.0819
loop_
_geom_bond_atom_site_label_1
_geom_bond_atom_site_label_2
_geom_bond_site_symmetry_1
_geom_bond_site_symmetry_2
Cu1 N1 1_555 1_555
Cu2 N3 1_555 1_555
S1 O1 1_555 1_555
S2 O2 1_555 1_555
O3 S2 1_555 1_555
O4 S2 1_555 1_555
O5 S1 1_555 1_555
O6 S1 1_555 1_555
N1 C9 1_555 1_555
N2 C3 1_555 1_555
N3 C13 1_555 1_555
N4 C15 1_555 1_555
C1 S1 1_555 1_555
H1 C1 1_555 1_555
H2 C1 1_555 1_555
C2 S2 1_555 1_555
H3 C2 1_555 1_555
H4 C2 1_555 1_555
C3 H5 1_555 1_555
C4 C3 1_555 1_555
H6 C4 1_555 1_555
C5 C4 1_555 1_555
C6 C5 1_555 1_555
H7 C6 1_555 1_555
C7 N2 1_555 1_555
H8 C7 1_555 1_555
C8 C5 1_555 1_555
C9 H9 1_555 1_555
C10 N1 1_555 1_555
H10 C10 1_555 1_555
C11 C8 1_555 1_555
H11 C11 1_555 1_555
C12 C8 1_555 1_555
H12 C12 1_555 1_555
C13 H13 1_555 1_555
C14 N3 1_555 1_555
H14 C14 1_555 1_555
C15 H15 1_555 1_555
C16 N4 1_555 1_555
H16 C16 1_555 1_555
C17 C18 1_555 1_555
C18 C19 1_555 1_555
C19 C15 1_555 1_555
H17 C19 1_555 1_555
C20 C16 1_555 1_555
H18 C20 1_555 1_555
C21 C14 1_555 1_555
H19 C21 1_555 1_555
C22 C13 1_555 1_555
H20 C22 1_555 1_555
O7 H21 1_555 1_555
O8 H23 1_555 1_555
O9 H25 1_555 1_555
H22 O7 1_555 1_555
H24 O8 1_555 1_555
H26 O9 1_555 1_555
Cu1_2 N2 1_555 1_555
Cu2_2 N4 1_555 1_555
N2_2 Cu1 1_555 1_555
N4_2 Cu2 1_555 1_555
C1 C2 1_555 1_555
C6 C7 1_555 1_555
C9 C12 1_555 1_555
C10 C11 1_555 1_555
C17 C21 1_555 1_555
C17 C22 1_555 1_555
C18 C20 1_555 1_555

#END
