
#######################################################################
#
#                 Cambridge Crystallographic Data Centre
#                                CCDC 
#
#######################################################################
#
# If this CIF has been generated from an entry in the Cambridge 
# Structural Database, then it will include bibliographic, chemical, 
# crystal, experimental, refinement or atomic coordinate data resulting 
# from the CCDC's data processing and validation procedures.
#
#######################################################################

data_OKOQAG
_symmetry_cell_setting           hexagonal
_symmetry_space_group_name_H-M   'P 65 2 2'
_symmetry_Int_Tables_number      179
_space_group_name_Hall           "P 65 2' (0,0,1)"
loop_
_symmetry_equiv_pos_site_id
_symmetry_equiv_pos_as_xyz
1 x,y,z
2 -y,x-y,2/3+z
3 -x+y,-x,1/3+z
4 -x,-y,1/2+z
5 y,-x+y,1/6+z
6 x-y,x,5/6+z
7 y,x,2/3-z
8 x-y,-y,-z
9 -x,-x+y,1/3-z
10 -y,-x,1/6-z
11 -x+y,y,1/2-z
12 x,x-y,5/6-z
_cell_length_a                   15.2645(1)
_cell_length_b                   15.2645(1)
_cell_length_c                   18.4749(3)
_cell_angle_alpha                90
_cell_angle_beta                 90
_cell_angle_gamma                120
_cell_volume                     3728.02
loop_
_atom_site_label
_atom_site_type_symbol
_atom_site_fract_x
_atom_site_fract_y
_atom_site_fract_z
Yb1 Yb 0.72762(2) 0.27238(2) 0.0833
Mo1 Mo 0.87345(6) 0.15377(6) 0.35485(4)
O1 O 0.8306(5) 0.2244(5) 0.2654(3)
O2 O 0.7036(5) 0.2015(5) 0.1945(4)
O3 O 0.7294(5) 0.0639(4) 0.3406(3)
O4 O 0.7014(5) -0.0093(5) 0.1939(3)
O5 O 0.4950(5) -0.1235(5) 0.3178(4)
O6 O 0.5792(5) -0.1791(5) 0.2504(4)
O7 O 0.9301(6) 0.1136(5) 0.2942(4)
O8 O 0.8747(6) 0.0959(6) 0.4339(3)
O9 O 0.5590(6) 0.1616(7) 0.0577(4)
O10 O 0.7086(9) 0.1121(7) 0.0654(4)
O11 O 0.6349(7) 0.3248(6) 0.1590(5)
C1 C 0.7406(7) 0.1760(7) 0.2459(5)
C2 C 0.6726(7) 0.0810(7) 0.2878(5)
H1 H 0.6189 0.0880 0.3115
C3 C 0.6257(7) -0.0073(7) 0.2344(4)
H2 H 0.5819 0.0035 0.2013
C4 C 0.5612(7) -0.1104(7) 0.2720(5)
O1I O 0.7756(5) 0.1694(5) -0.0987(3)
O2I O 0.7985(5) 0.2964(5) -0.0278(4)
O3I O 0.9361(4) 0.2706(5) -0.1739(3)
O4I O 1.0093(5) 0.2986(5) -0.0272(3)
O5I O 1.1235(5) 0.5050(5) -0.1511(4)
O6I O 1.1791(5) 0.4208(5) -0.0837(4)
C1I C 0.8240(7) 0.2594(7) -0.0792(5)
C2I C 0.9190(7) 0.3274(7) -0.1211(5)
H1I H 0.9120 0.3811 -0.1448
C3I C 1.0073(7) 0.3743(7) -0.0677(4)
H2I H 0.9965 0.4181 -0.0346
C4I C 1.1104(7) 0.4388(7) -0.1053(5)
O9I O 0.8384(7) 0.4410(6) 0.1090(4)
O10I O 0.8879(7) 0.2914(9) 0.1013(4)
O11I O 0.6752(6) 0.3651(7) 0.0077(5)
Mo1I Mo 0.84623(6) 0.12655(6) -0.18818(4)
O7I O 0.8864(5) 0.0699(6) -0.1275(4)
O8I O 0.9041(6) 0.1253(6) -0.2672(3)
O4D O 0.9907(5) 0.2893(7) 0.3606(3)
O6D O 0.8209(5) 0.2417(7) 0.4171(4)
Mo1E Mo 0.71968(8) -0.12655(6) 0.18818(4)
Mo1H Mo 1.12655(6) 0.28032(8) -0.02152(4)
O4G O 0.7107(7) 0.0093(5) -0.1939(3)
O6G O 0.7583(7) 0.1791(5) -0.2504(4)
O12 O 0.9387(10) 0.4996(12) 0.6015(7)
O13 O 0.8600(15) 0.1400(15) 0.5833
O14 O 0.963(2) -0.0184(10) 0.4167
O15 O 0.6197(17) -0.0720(18) 0.4612(11)
N1 N 1.0000 0.2209(9) 0.1667
loop_
_geom_bond_atom_site_label_1
_geom_bond_atom_site_label_2
_geom_bond_site_symmetry_1
_geom_bond_site_symmetry_2
Yb1 O2 1_555 1_555
Mo1 O1 1_555 1_555
O1 C1 1_555 1_555
O2 C1 1_555 1_555
O3 Mo1 1_555 1_555
O4 C3 1_555 1_555
O5 C4 1_555 1_555
O6 C4 1_555 1_555
O7 Mo1 1_555 1_555
O8 Mo1 1_555 1_555
O9 Yb1 1_555 1_555
O10 Yb1 1_555 1_555
O11 Yb1 1_555 1_555
C1 C2 1_555 1_555
C2 O3 1_555 1_555
H1 C2 1_555 1_555
C3 C2 1_555 1_555
H2 C3 1_555 1_555
C4 C3 1_555 1_555
O1I C1I 1_555 1_555
O2I Yb1 1_555 1_555
O3I C2I 1_555 1_555
O4I C3I 1_555 1_555
O5I C4I 1_555 1_555
O6I C4I 1_555 1_555
C1I O2I 1_555 1_555
C2I C1I 1_555 1_555
H1I C2I 1_555 1_555
C3I C2I 1_555 1_555
H2I C3I 1_555 1_555
C4I C3I 1_555 1_555
O9I Yb1 1_555 1_555
O10I Yb1 1_555 1_555
O11I Yb1 1_555 1_555
Mo1I O1I 1_555 1_555
O7I Mo1I 1_555 1_555
O8I Mo1I 1_555 1_555
O4D Mo1 1_555 1_555
O6D Mo1 1_555 1_555
Mo1E O4 1_555 1_555
Mo1H O4I 1_555 1_555
O4G Mo1I 1_555 1_555
O6G Mo1I 1_555 1_555
O6 Mo1E 1_555 1_555
O3I Mo1I 1_555 1_555
O6I Mo1H 1_555 1_555

#END
