
#######################################################################
#
#                 Cambridge Crystallographic Data Centre
#                                CCDC 
#
#######################################################################
#
# If this CIF has been generated from an entry in the Cambridge 
# Structural Database, then it will include bibliographic, chemical, 
# crystal, experimental, refinement or atomic coordinate data resulting 
# from the CCDC's data processing and validation procedures.
#
#######################################################################

data_OKORUC
_symmetry_cell_setting           triclinic
_symmetry_space_group_name_H-M   'P -1'
_symmetry_Int_Tables_number      2
_space_group_name_Hall           '-P 1'
loop_
_symmetry_equiv_pos_site_id
_symmetry_equiv_pos_as_xyz
1 x,y,z
2 -x,-y,-z
_cell_length_a                   7.781(2)
_cell_length_b                   9.048(3)
_cell_length_c                   10.230(3)
_cell_angle_alpha                111.583(4)
_cell_angle_beta                 101.318(4)
_cell_angle_gamma                101.330(4)
_cell_volume                     627.544
loop_
_atom_site_label
_atom_site_type_symbol
_atom_site_fract_x
_atom_site_fract_y
_atom_site_fract_z
Na1 Na 0.09483(11) 1.14755(9) 0.70878(8)
B1 B 0.1941(4) 0.8901(3) 0.5484(3)
H1 H 0.296(3) 0.963(3) 0.661(2)
H2 H 0.197(3) 0.973(2) 0.486(2)
H3 H 0.054(3) 0.861(2) 0.558(2)
B2 B -0.0944(4) 1.3775(3) 0.6965(3)
H4 H -0.110(3) 1.306(3) 0.765(2)
H5 H 0.045(3) 1.391(3) 0.682(2)
H6 H -0.112(3) 1.500(3) 0.751(2)
N1 N 0.2394(2) 0.72390(19) 0.46284(17)
C1 C 0.2445(3) 0.6224(3) 0.5496(2)
H7 H 0.2296 0.5052 0.4853
H8 H 0.1457 0.6260 0.5977
C2 C 0.4333(3) 0.7021(3) 0.6645(3)
H9 H 0.4256 0.7816 0.7588
H10 H 0.4828 0.6161 0.6821
C3 C 0.5547(3) 0.7924(3) 0.5996(3)
H11 H 0.6014 0.9133 0.6635
H12 H 0.6603 0.7483 0.5881
C4 C 0.4306(3) 0.7584(3) 0.4517(2)
H13 H 0.4611 0.8561 0.4291
H14 H 0.4443 0.6614 0.3730
O1 O 0.3573(2) 1.36449(18) 0.88662(16)
C5 C 0.3238(4) 1.5002(4) 0.9952(3)
H15 H 0.3091 1.4724 1.0781
H16 H 0.2079 1.5170 0.9518
C6 C 0.5259(4) 1.3448(3) 0.9491(3)
H17 H 0.5535 1.2543 0.8738
H18 H 0.5156 1.3131 1.0307
O2 O 0.0173(2) 1.04560(18) 0.88390(16)
C7 C 0.0139(5) 0.8836(3) 0.8758(3)
H19 H -0.1132 0.8091 0.8257
H20 H 0.0917 0.8392 0.8144
C8 C -0.0749(4) 1.1208(3) 0.9872(3)
H21 H -0.0566 1.2381 1.0026
H22 H -0.2081 1.0628 0.9447
Na1A Na -0.09483(11) 0.85245(9) 0.29122(8)
Na1A_2 Na 0.90517(11) 1.85245(9) 1.29122(8)
Na1A_3 Na -0.09483(11) 0.85245(9) 1.29122(8)
B1A B -0.1941(4) 1.1099(3) 0.4516(3)
H1A H -0.296(3) 1.037(3) 0.339(2)
H2A H -0.197(3) 1.027(2) 0.514(2)
H3A H -0.054(3) 1.139(2) 0.442(2)
B2A B 0.0944(4) 0.6225(3) 0.3035(3)
H4A H 0.110(3) 0.694(3) 0.235(2)
H5A H -0.045(3) 0.609(3) 0.318(2)
H6A H 0.112(3) 0.500(3) 0.249(2)
N1A N -0.2394(2) 1.27610(19) 0.53716(17)
C1A C -0.2445(3) 1.3776(3) 0.4504(2)
H7A H -0.2296 1.4948 0.5147
H8A H -0.1457 1.3740 0.4023
C2A C -0.4333(3) 1.2979(3) 0.3355(3)
H9A H -0.4256 1.2184 0.2412
H10A H -0.4828 1.3839 0.3179
C3A C -0.5547(3) 1.2076(3) 0.4004(3)
H11A H -0.6014 1.0867 0.3365
H12A H -0.6603 1.2517 0.4119
C4A C -0.4306(3) 1.2416(3) 0.5483(2)
H13A H -0.4611 1.1439 0.5709
H14A H -0.4443 1.3386 0.6270
O1A O -0.3573(2) 0.63551(18) 0.11338(16)
O1A_2 O 0.6427(2) 1.63551(18) 1.11338(16)
C5A C 0.6762(4) 1.4998(4) 1.0048(3)
H15A H 0.6909 1.5276 0.9219
H16A H 0.7921 1.4830 1.0482
C6A C 0.4741(4) 1.6552(3) 1.0509(3)
H17A H 0.4465 1.7457 1.1262
H18A H 0.4844 1.6869 0.9693
O2A O -0.0173(2) 0.95440(18) 0.11610(16)
O2A_2 O -0.0173(2) 0.95440(18) 1.11610(16)
C7A C -0.0139(5) 1.1164(3) 1.1242(3)
H19A H 0.1132 1.1909 1.1743
H20A H -0.0917 1.1608 1.1856
C8A C 0.0749(4) 0.8792(3) 1.0128(3)
H21A H 0.0566 0.7619 0.9974
H22A H 0.2081 0.9372 1.0553
loop_
_geom_bond_atom_site_label_1
_geom_bond_atom_site_label_2
_geom_bond_site_symmetry_1
_geom_bond_site_symmetry_2
Na1 H1 1_555 1_555
B1 H1 1_555 1_555
H2 Na1 1_555 1_555
H3 Na1 1_555 1_555
B2 H4 1_555 1_555
H4 Na1 1_555 1_555
H5 Na1 1_555 1_555
H6 B2 1_555 1_555
N1 B1 1_555 1_555
C1 N1 1_555 1_555
H7 C1 1_555 1_555
H8 C1 1_555 1_555
C2 C1 1_555 1_555
H9 C2 1_555 1_555
H10 C2 1_555 1_555
C3 C2 1_555 1_555
H11 C3 1_555 1_555
H12 C3 1_555 1_555
C4 N1 1_555 1_555
H13 C4 1_555 1_555
H14 C4 1_555 1_555
O1 Na1 1_555 1_555
C5 O1 1_555 1_555
H15 C5 1_555 1_555
H16 C5 1_555 1_555
C6 O1 1_555 1_555
H17 C6 1_555 1_555
H18 C6 1_555 1_555
O2 Na1 1_555 1_555
C7 O2 1_555 1_555
H19 C7 1_555 1_555
H20 C7 1_555 1_555
C8 O2 1_555 1_555
H21 C8 1_555 1_555
H22 C8 1_555 1_555
Na1A H2 1_555 1_555
Na1A_2 O1A_2 1_555 1_555
Na1A_3 O2A_2 1_555 1_555
B1A H1A 1_555 1_555
H1A Na1A 1_555 1_555
H2A Na1 1_555 1_555
H3A Na1A 1_555 1_555
B2A N1 1_555 1_555
H4A Na1A 1_555 1_555
H5A Na1A 1_555 1_555
H6A B2A 1_555 1_555
N1A B2 1_555 1_555
C1A N1A 1_555 1_555
H7A C1A 1_555 1_555
H8A C1A 1_555 1_555
C2A C1A 1_555 1_555
H9A C2A 1_555 1_555
H10A C2A 1_555 1_555
C3A C2A 1_555 1_555
H11A C3A 1_555 1_555
H12A C3A 1_555 1_555
C4A N1A 1_555 1_555
H13A C4A 1_555 1_555
H14A C4A 1_555 1_555
O1A Na1A 1_555 1_555
O1A_2 C5A 1_555 1_555
C5A C6 1_555 1_555
H15A C5A 1_555 1_555
H16A C5A 1_555 1_555
C6A C5 1_555 1_555
H17A C6A 1_555 1_555
H18A C6A 1_555 1_555
O2A Na1A 1_555 1_555
O2A_2 C7A 1_555 1_555
C7A C8 1_555 1_555
H19A C7A 1_555 1_555
H20A C7A 1_555 1_555
C8A C7 1_555 1_555
H21A C8A 1_555 1_555
H22A C8A 1_555 1_555
B1 H2 1_555 1_555
B1 H3 1_555 1_555
B2 H5 1_555 1_555
C3 C4 1_555 1_555
Na1A H2A 1_555 1_555
B1A H2A 1_555 1_555
B1A H3A 1_555 1_555
B1A N1A 1_555 1_555
B2A H4A 1_555 1_555
B2A H5A 1_555 1_555
C3A C4A 1_555 1_555
O1A_2 C6A 1_555 1_555
O2A_2 C8A 1_555 1_555

#END
