
#######################################################################
#
#                 Cambridge Crystallographic Data Centre
#                                CCDC 
#
#######################################################################
#
# If this CIF has been generated from an entry in the Cambridge 
# Structural Database, then it will include bibliographic, chemical, 
# crystal, experimental, refinement or atomic coordinate data resulting 
# from the CCDC's data processing and validation procedures.
#
#######################################################################

data_OKOVOA
_symmetry_cell_setting           monoclinic
_symmetry_space_group_name_H-M   'P 21/n'
_symmetry_Int_Tables_number      14
_space_group_name_Hall           '-P 2yn'
loop_
_symmetry_equiv_pos_site_id
_symmetry_equiv_pos_as_xyz
1 x,y,z
2 1/2-x,1/2+y,1/2-z
3 -x,-y,-z
4 1/2+x,1/2-y,1/2+z
_cell_length_a                   8.7012(12)
_cell_length_b                   12.620(3)
_cell_length_c                   9.4980(15)
_cell_angle_alpha                90
_cell_angle_beta                 93.628(14)
_cell_angle_gamma                90
_cell_volume                     1040.88
loop_
_atom_site_label
_atom_site_type_symbol
_atom_site_fract_x
_atom_site_fract_y
_atom_site_fract_z
Ag1 Ag 0.56198(9) 0.20483(7) 0.37465(8)
S1 S 0.7043(3) -0.0631(2) 0.3136(2)
C1 C 0.3032(8) 0.2323(7) 0.1271(8)
C2 C 0.2800(11) 0.0845(8) 0.2682(8)
H1 H 0.3169 0.0425 0.3435
C3 C 0.1469(11) 0.0550(8) 0.1929(10)
H2 H 0.0916 -0.0049 0.2158
C4 C 0.1009(10) 0.1188(8) 0.0831(10)
H3 H 0.0132 0.0994 0.0281
C5 C 0.6622(13) 0.0928(8) 0.0609(12)
H4 H 0.7387 0.0990 0.1334
C6 C 0.5536(10) -0.0005(8) 0.0589(9)
C7 C 0.5614(12) -0.0720(9) 0.1655(11)
C8 C 0.4605(12) -0.1517(10) 0.1534(13)
H5 H 0.4631 -0.2015 0.2257
C9 C 0.6498(10) 0.1662(8) -0.0395(11)
H6 H 0.7126 0.2259 -0.0348
N1 N 0.3754(8) 0.3207(6) 0.0987(8)
H7 H 0.4564 0.3393 0.1494
H8 H 0.3416 0.3600 0.0294
N2 N 0.3585(8) 0.1718(6) 0.2366(7)
N3 N 0.1723(8) 0.2064(6) 0.0493(7)
O1 O 0.6448(11) -0.1442(9) 0.4106(8)
O2 O 0.7060(12) 0.0353(7) 0.3713(9)
O3 O 0.8397(8) -0.1015(6) 0.2597(7)
Ag1C Ag 0.06198(9) 0.29517(7) -0.12535(8)
Ag1A Ag -0.06198(9) -0.29517(7) -0.87465(8)
Ag1B Ag 0.43802(9) -0.20483(7) -0.37465(8)
S1B S 0.2957(3) 0.0631(2) -0.3136(2)
C1A C 0.1968(8) -0.2677(7) -0.6271(8)
C2A C 0.2200(11) -0.4155(8) -0.7682(8)
H1A H 0.1831 -0.4575 -0.8435
C3A C 0.3531(11) -0.4450(8) -0.6929(10)
H2A H 0.4084 -0.5049 -0.7158
C4A C 0.3991(10) -0.3812(8) -0.5831(10)
H3A H 0.4868 -0.4006 -0.5281
C5B C 0.3378(13) -0.0928(8) -0.0609(12)
H4B H 0.2613 -0.0990 -0.1334
C6B C 0.4464(10) 0.0005(8) -0.0589(9)
C7B C 0.4386(12) 0.0720(9) -0.1655(11)
C8B C 0.5395(12) 0.1517(10) -0.1534(13)
H5B H 0.5369 0.2015 -0.2257
C9B C 0.3502(10) -0.1662(8) 0.0395(11)
H6B H 0.2874 -0.2259 0.0348
N1A N 0.1246(8) -0.1793(6) -0.5987(8)
H7A H 0.0436 -0.1607 -0.6494
H8A H 0.1584 -0.1400 -0.5294
N2A N 0.1415(8) -0.3282(6) -0.7366(7)
N2B N 0.6415(8) -0.1718(6) -0.2366(7)
N3C N 0.6723(8) 0.2936(6) 0.5493(7)
N3A N 0.3277(8) -0.2936(6) -0.5493(7)
O1B O 0.3552(11) 0.1442(9) -0.4106(8)
O2B O 0.2940(12) -0.0353(7) -0.3713(9)
O3B O 0.1603(8) 0.1015(6) -0.2597(7)
loop_
_geom_bond_atom_site_label_1
_geom_bond_atom_site_label_2
_geom_bond_site_symmetry_1
_geom_bond_site_symmetry_2
Ag1 N2 1_555 1_555
S1 C7 1_555 1_555
C1 N1 1_555 1_555
C2 H1 1_555 1_555
C3 C2 1_555 1_555
H2 C3 1_555 1_555
C4 C3 1_555 1_555
H3 C4 1_555 1_555
C5 H4 1_555 1_555
C6 C5 1_555 1_555
C7 C6 1_555 1_555
C8 C7 1_555 1_555
H5 C8 1_555 1_555
C9 C5 1_555 1_555
H6 C9 1_555 1_555
N1 H7 1_555 1_555
H8 N1 1_555 1_555
N2 C1 1_555 1_555
N3 C1 1_555 1_555
O1 S1 1_555 1_555
O2 Ag1 1_555 1_555
O3 S1 1_555 1_555
Ag1C N3 1_555 1_555
Ag1A N2A 1_555 1_555
Ag1B N2B 1_555 1_555
S1B C7B 1_555 1_555
C1A N1A 1_555 1_555
C2A H1A 1_555 1_555
C3A C2A 1_555 1_555
H2A C3A 1_555 1_555
C4A C3A 1_555 1_555
H3A C4A 1_555 1_555
C5B H4B 1_555 1_555
C6B C6 1_555 1_555
C7B C6B 1_555 1_555
C8B C9 1_555 1_555
H5B C8B 1_555 1_555
C9B C8 1_555 1_555
H6B C9B 1_555 1_555
N1A H7A 1_555 1_555
H8A N1A 1_555 1_555
N2A C1A 1_555 1_555
N3C Ag1 1_555 1_555
N3A Ag1B 1_555 1_555
O1B S1B 1_555 1_555
O2B Ag1B 1_555 1_555
O3B S1B 1_555 1_555
S1 O2 1_555 1_555
C2 N2 1_555 1_555
C4 N3 1_555 1_555
S1B O2B 1_555 1_555
C1A N3A 1_555 1_555
C2A N2A 1_555 1_555
C4A N3A 1_555 1_555
C5B C6B 1_555 1_555
C5B C9B 1_555 1_555
C7B C8B 1_555 1_555

#END
