
#######################################################################
#
#                 Cambridge Crystallographic Data Centre
#                                CCDC 
#
#######################################################################
#
# If this CIF has been generated from an entry in the Cambridge 
# Structural Database, then it will include bibliographic, chemical, 
# crystal, experimental, refinement or atomic coordinate data resulting 
# from the CCDC's data processing and validation procedures.
#
#######################################################################

data_OKOVUG
_symmetry_cell_setting           monoclinic
_symmetry_space_group_name_H-M   'P 21/c'
_symmetry_Int_Tables_number      14
_space_group_name_Hall           '-P 2ybc'
loop_
_symmetry_equiv_pos_site_id
_symmetry_equiv_pos_as_xyz
1 x,y,z
2 -x,1/2+y,1/2-z
3 -x,-y,-z
4 x,1/2-y,1/2+z
_cell_length_a                   10.334(2)
_cell_length_b                   11.744(2)
_cell_length_c                   12.855(5)
_cell_angle_alpha                90
_cell_angle_beta                 126.221(19)
_cell_angle_gamma                90
_cell_volume                     1258.61
loop_
_atom_site_label
_atom_site_type_symbol
_atom_site_fract_x
_atom_site_fract_y
_atom_site_fract_z
Ag1 Ag 0.22353(3) 0.78932(2) 0.32513(2)
S1 S 0.00880(12) 1.04848(7) 0.26952(8)
C1 C 0.1354(5) 1.1582(3) 0.1639(4)
H1 H 0.1754 1.2075 0.2332
C2 C 0.0468(4) 1.0664(3) 0.1509(3)
C3 C -0.0164(3) 0.9895(3) 0.0462(3)
C4 C -0.1096(4) 0.8922(3) 0.0285(3)
H2 H -0.1314 0.8772 0.0877
C5 C 0.1672(5) 1.1791(3) 0.0728(4)
H3 H 0.2279 1.2421 0.0824
C6 C 0.5424(4) 0.8488(3) 0.0171(4)
H4 H 0.4632 0.8725 -0.0703
H5 H 0.5854 0.7763 0.0172
H6 H 0.6272 0.9040 0.0599
C7 C 0.4885(5) 0.9624(3) 0.3661(4)
H7 H 0.4038 0.9607 0.3764
H8 H 0.5059 1.0394 0.3520
H9 H 0.5852 0.9332 0.4427
C8 C 0.4431(4) 0.8907(3) 0.2532(3)
C9 C 0.5199(4) 0.9033(3) 0.1948(3)
H10 H 0.6051 0.9538 0.2275
C10 C 0.4663(4) 0.8388(3) 0.0865(3)
C11 C 0.2838(4) 0.7504(3) 0.1069(3)
N1 N 0.3458(3) 0.7643(2) 0.0396(2)
N2 N 0.1748(4) 0.6688(3) 0.0686(3)
H11 H 0.1460 0.6271 0.0032
H12 H 0.1333 0.6578 0.1092
N3 N 0.3265(3) 0.8135(2) 0.2112(2)
O1 O -0.1596(4) 1.0606(4) 0.2046(3)
O2 O 0.0930(7) 1.1378(4) 0.3605(4)
O3 O 0.0659(4) 0.9383(3) 0.3245(3)
Ag1B Ag -0.22353(3) 1.21068(2) -0.32513(2)
Ag1A Ag -0.22353(3) 1.28932(2) 0.17487(2)
Ag1C Ag 0.22353(3) 0.71068(2) -0.17487(2)
S1B S -0.00880(12) 0.95152(7) -0.26952(8)
C1B C -0.1354(5) 0.8418(3) -0.1639(4)
H1B H -0.1754 0.7925 -0.2332
C2B C -0.0468(4) 0.9336(3) -0.1509(3)
C3B C 0.0164(3) 1.0105(3) -0.0462(3)
C4B C 0.1096(4) 1.1078(3) -0.0285(3)
H2B H 0.1314 1.1228 -0.0877
C5B C -0.1672(5) 0.8209(3) -0.0728(4)
H3B H -0.2279 0.7579 -0.0824
C6B C -0.5424(4) 1.1512(3) -0.0171(4)
H4B H -0.4632 1.1275 0.0703
H5B H -0.5854 1.2237 -0.0172
H6B H -0.6272 1.0960 -0.0599
C7B C -0.4885(5) 1.0376(3) -0.3661(4)
H7B H -0.4038 1.0393 -0.3764
H8B H -0.5059 0.9606 -0.3520
H9B H -0.5852 1.0668 -0.4427
C8B C -0.4431(4) 1.1093(3) -0.2532(3)
C9B C -0.5199(4) 1.0967(3) -0.1948(3)
H10B H -0.6051 1.0462 -0.2275
C10B C -0.4663(4) 1.1612(3) -0.0865(3)
C11B C -0.2838(4) 1.2496(3) -0.1069(3)
N1B N -0.3458(3) 1.2357(2) -0.0396(2)
N1A N -0.3458(3) 1.2643(2) -0.5396(2)
N1C N 0.3458(3) 0.7357(2) 0.5396(2)
N2B N -0.1748(4) 1.3312(3) -0.0686(3)
H11B H -0.1460 1.3729 -0.0032
H12B H -0.1333 1.3422 -0.1092
N3B N -0.3265(3) 1.1865(2) -0.2112(2)
O1B O 0.1596(4) 0.9394(4) -0.2046(3)
O2B O -0.0930(7) 0.8622(4) -0.3605(4)
O3B O -0.0659(4) 1.0617(3) -0.3245(3)
loop_
_geom_bond_atom_site_label_1
_geom_bond_atom_site_label_2
_geom_bond_site_symmetry_1
_geom_bond_site_symmetry_2
Ag1 N3 1_555 1_555
S1 C2 1_555 1_555
C1 H1 1_555 1_555
C2 C1 1_555 1_555
C3 C2 1_555 1_555
C4 C3 1_555 1_555
H2 C4 1_555 1_555
C5 C1 1_555 1_555
H3 C5 1_555 1_555
C6 H4 1_555 1_555
H5 C6 1_555 1_555
H6 C6 1_555 1_555
C7 H7 1_555 1_555
H8 C7 1_555 1_555
H9 C7 1_555 1_555
C8 C7 1_555 1_555
C9 C8 1_555 1_555
H10 C9 1_555 1_555
C10 C6 1_555 1_555
C11 N1 1_555 1_555
N1 C10 1_555 1_555
N2 C11 1_555 1_555
H11 N2 1_555 1_555
H12 N2 1_555 1_555
N3 C8 1_555 1_555
O1 S1 1_555 1_555
O2 S1 1_555 1_555
O3 Ag1 1_555 1_555
Ag1B N1A 1_555 1_555
Ag1A N1B 1_555 1_555
Ag1C N1 1_555 1_555
S1B C2B 1_555 1_555
C1B H1B 1_555 1_555
C2B C1B 1_555 1_555
C3B C3 1_555 1_555
C4B C5 1_555 1_555
H2B C4B 1_555 1_555
C5B C4 1_555 1_555
H3B C5B 1_555 1_555
C6B H4B 1_555 1_555
H5B C6B 1_555 1_555
H6B C6B 1_555 1_555
C7B H7B 1_555 1_555
H8B C7B 1_555 1_555
H9B C7B 1_555 1_555
C8B C7B 1_555 1_555
C9B C8B 1_555 1_555
H10B C9B 1_555 1_555
C10B C6B 1_555 1_555
C11B N1B 1_555 1_555
N1B C10B 1_555 1_555
N1C Ag1 1_555 1_555
N2B C11B 1_555 1_555
H11B N2B 1_555 1_555
H12B N2B 1_555 1_555
N3B Ag1B 1_555 1_555
O1B S1B 1_555 1_555
O2B S1B 1_555 1_555
O3B Ag1B 1_555 1_555
S1 O3 1_555 1_555
C9 C10 1_555 1_555
C11 N3 1_555 1_555
S1B O3B 1_555 1_555
C1B C5B 1_555 1_555
C2B C3B 1_555 1_555
C3B C4B 1_555 1_555
C8B N3B 1_555 1_555
C9B C10B 1_555 1_555
C11B N3B 1_555 1_555

#END
