
#######################################################################
#
#                 Cambridge Crystallographic Data Centre
#                                CCDC 
#
#######################################################################
#
# If this CIF has been generated from an entry in the Cambridge 
# Structural Database, then it will include bibliographic, chemical, 
# crystal, experimental, refinement or atomic coordinate data resulting 
# from the CCDC's data processing and validation procedures.
#
#######################################################################

data_OKUBOL
_symmetry_cell_setting           orthorhombic
_symmetry_space_group_name_H-M   'P b c n'
_symmetry_Int_Tables_number      60
_space_group_name_Hall           '-P 2n 2ab'
loop_
_symmetry_equiv_pos_site_id
_symmetry_equiv_pos_as_xyz
1 x,y,z
2 1/2+x,1/2+y,1/2-z
3 x,-y,1/2+z
4 1/2-x,1/2+y,z
5 -x,-y,-z
6 1/2-x,1/2-y,1/2+z
7 -x,y,1/2-z
8 1/2+x,1/2-y,-z
_cell_length_a                   6.447(2)
_cell_length_b                   10.893(3)
_cell_length_c                   23.536(10)
_cell_angle_alpha                90
_cell_angle_beta                 90
_cell_angle_gamma                90
_cell_volume                     1652.87
loop_
_atom_site_label
_atom_site_type_symbol
_atom_site_fract_x
_atom_site_fract_y
_atom_site_fract_z
Ag1 Ag 0.19830(11) 0.10175(7) 0.22636(3)
Ag2 Ag 0.16226(11) -0.20007(7) 0.29555(4)
O1 O 0.2682(11) 0.0032(6) 0.3127(3)
O2 O 0.4880(10) 0.1438(5) 0.3396(3)
O3 O 0.7688(10) -0.1127(5) 0.2962(3)
O4 O 0.5459(9) -0.2527(5) 0.3243(3)
C1 C 0.4224(13) 0.0391(8) 0.3397(4)
C2 C 0.6260(13) -0.1498(8) 0.3280(4)
C3 C 0.5460(13) -0.0599(7) 0.3724(4)
C4 C 0.7237(15) -0.0092(9) 0.4071(4)
H1 H 0.6821 0.0629 0.4276
H2 H 0.8396 0.0109 0.3832
C5 C 0.7737(18) -0.1118(10) 0.4477(4)
H3 H 0.8348 -0.0807 0.4819
H4 H 0.8690 -0.1680 0.4302
C6 C 0.5701(18) -0.1747(10) 0.4599(4)
H5 H 0.5276 -0.1587 0.4982
H6 H 0.5825 -0.2618 0.4548
C7 C 0.4147(18) -0.1223(9) 0.4177(4)
H7 H 0.3314 -0.1861 0.4013
H8 H 0.3255 -0.0638 0.4360
Ag1F Ag -0.19830(11) 0.10175(7) 0.27364(3)
Ag2C Ag 0.33774(11) 0.29993(7) 0.29555(4)
O2F O 0.5120(10) 0.1438(5) 0.1604(3)
O3F O 0.2312(10) -0.1127(5) 0.2038(3)
O4A O 0.0459(9) 0.2473(5) 0.1757(3)
Ag1C Ag 0.30170(11) -0.39825(7) 0.22636(3)
Ag2F Ag -0.16226(11) -0.20007(7) 0.20445(4)
O2C O 0.0120(10) -0.3562(5) 0.3396(3)
Ag1F_2 Ag 0.80170(11) 0.10175(7) 0.27364(3)
Ag2F_2 Ag 0.83774(11) -0.20007(7) 0.20445(4)
Ag1A Ag 0.69830(11) -0.39825(7) 0.27364(3)
loop_
_geom_bond_atom_site_label_1
_geom_bond_atom_site_label_2
_geom_bond_site_symmetry_1
_geom_bond_site_symmetry_2
Ag1 O1 1_555 1_555
Ag2 O1 1_555 1_555
O1 C1 1_555 1_555
O2 C1 1_555 1_555
O3 C2 1_555 1_555
O4 Ag2 1_555 1_555
C1 C3 1_555 1_555
C2 O4 1_555 1_555
C3 C2 1_555 1_555
C4 C3 1_555 1_555
H1 C4 1_555 1_555
H2 C4 1_555 1_555
C5 C4 1_555 1_555
H3 C5 1_555 1_555
H4 C5 1_555 1_555
C6 C5 1_555 1_555
H5 C6 1_555 1_555
H6 C6 1_555 1_555
C7 C3 1_555 1_555
H7 C7 1_555 1_555
H8 C7 1_555 1_555
Ag1F Ag1 1_555 1_555
Ag2C Ag1 1_555 1_555
O2F Ag1 1_555 1_555
O3F Ag1 1_555 1_555
O4A Ag1 1_555 1_555
Ag1C Ag2 1_555 1_555
Ag2F Ag2 1_555 1_555
O2C Ag2 1_555 1_555
Ag1F_2 O2 1_555 1_555
Ag2F_2 O3 1_555 1_555
Ag1A O4 1_555 1_555
Ag2 O3F 1_555 1_555
O2 Ag2C 1_555 1_555
O3 Ag1F_2 1_555 1_555
C6 C7 1_555 1_555
Ag1C Ag1A 1_555 1_555
Ag2F_2 Ag1A 1_555 1_555

#END
