
#######################################################################
#
#                 Cambridge Crystallographic Data Centre
#                                CCDC 
#
#######################################################################
#
# If this CIF has been generated from an entry in the Cambridge 
# Structural Database, then it will include bibliographic, chemical, 
# crystal, experimental, refinement or atomic coordinate data resulting 
# from the CCDC's data processing and validation procedures.
#
#######################################################################

data_OKUBIF
_symmetry_cell_setting           monoclinic
_symmetry_space_group_name_H-M   'P 21/c'
_symmetry_Int_Tables_number      14
_space_group_name_Hall           '-P 2ybc'
loop_
_symmetry_equiv_pos_site_id
_symmetry_equiv_pos_as_xyz
1 x,y,z
2 x,1/2-y,1/2+z
3 -x,-y,-z
4 -x,1/2+y,1/2-z
_cell_length_a                   15.619(17)
_cell_length_b                   3.699(4)
_cell_length_c                   11.178(12)
_cell_angle_alpha                90
_cell_angle_beta                 98.951(15)
_cell_angle_gamma                90
_cell_volume                     637.941
loop_
_atom_site_label
_atom_site_type_symbol
_atom_site_fract_x
_atom_site_fract_y
_atom_site_fract_z
Ag1 Ag 0.03883(3) 0.02499(15) 0.12381(4)
F1 F 0.4733(2) -0.1691(11) 0.3525(3)
O1 O 0.0801(2) 0.2582(11) 0.3360(3)
O2 O 0.1192(3) 0.1157(11) 0.5310(3)
C1 C 0.1343(3) 0.1429(14) 0.4231(4)
C2 C 0.2234(3) 0.0429(12) 0.4006(5)
C3 C 0.2520(4) 0.1367(15) 0.2939(5)
C4 C 0.3357(4) 0.0682(15) 0.2772(5)
C5 C 0.3907(3) -0.0976(14) 0.3683(5)
C6 C 0.3649(4) -0.1951(16) 0.4763(5)
C7 C 0.2809(3) -0.1206(14) 0.4921(5)
H1 H 0.214(3) 0.250(12) 0.240(4)
H2 H 0.358(4) 0.144(19) 0.217(6)
H3 H 0.401(4) -0.321(19) 0.527(6)
H4 H 0.264(3) -0.178(13) 0.565(4)
Ag1B Ag -0.03883(3) -0.02499(15) -0.12381(4)
O1C O -0.0801(2) -0.2418(11) 0.1640(3)
O2A O 0.1192(3) 0.3843(11) 0.0310(3)
Ag1C Ag -0.03883(3) 0.52499(15) 0.37619(4)
Ag1A Ag 0.03883(3) 0.47501(15) 0.62381(4)
loop_
_geom_bond_atom_site_label_1
_geom_bond_atom_site_label_2
_geom_bond_site_symmetry_1
_geom_bond_site_symmetry_2
Ag1 O1 1_555 1_555
F1 C5 1_555 1_555
O1 C1 1_555 1_555
O2 C1 1_555 1_555
C1 C2 1_555 1_555
C2 C3 1_555 1_555
C3 C4 1_555 1_555
C4 C5 1_555 1_555
C5 C6 1_555 1_555
C6 C7 1_555 1_555
C7 C2 1_555 1_555
H1 C3 1_555 1_555
H2 C4 1_555 1_555
H3 C6 1_555 1_555
H4 C7 1_555 1_555
Ag1B Ag1 1_555 1_555
O1C Ag1 1_555 1_555
O2A Ag1 1_555 1_555
Ag1C O1 1_555 1_555
Ag1A O2 1_555 1_555
Ag1C Ag1A 1_555 1_555

#END
