
#######################################################################
#
#                 Cambridge Crystallographic Data Centre
#                                CCDC 
#
#######################################################################
#
# If this CIF has been generated from an entry in the Cambridge 
# Structural Database, then it will include bibliographic, chemical, 
# crystal, experimental, refinement or atomic coordinate data resulting 
# from the CCDC's data processing and validation procedures.
#
#######################################################################

data_OKUGOR
_symmetry_cell_setting           triclinic
_symmetry_space_group_name_H-M   'P -1'
_symmetry_Int_Tables_number      2
_space_group_name_Hall           '-P 1'
loop_
_symmetry_equiv_pos_site_id
_symmetry_equiv_pos_as_xyz
1 x,y,z
2 -x,-y,-z
_cell_length_a                   9.835(2)
_cell_length_b                   10.351(2)
_cell_length_c                   18.781(4)
_cell_angle_alpha                84.61(3)
_cell_angle_beta                 84.43(3)
_cell_angle_gamma                84.42(3)
_cell_volume                     1887
loop_
_atom_site_label
_atom_site_type_symbol
_atom_site_fract_x
_atom_site_fract_y
_atom_site_fract_z
Ho1 Ho 0.76102(4) 0.49930(5) 0.49449(2)
S1 S 0.7084(4) 1.0298(4) 0.13536(16)
S2 S 0.5693(4) 0.1628(4) 0.94269(18)
C1 C 0.7071(12) 0.8753(15) -0.1171(6)
H1 H 0.6422 0.8865 -0.0782
C2 C 0.6615(14) 0.8715(14) -0.1861(7)
H2 H 0.5687 0.8714 -0.1919
C3 C 0.7585(15) 0.8679(13) -0.2445(7)
H3 H 0.7306 0.8729 -0.2907
C4 C 0.8978(14) 0.8566(15) -0.2346(6)
H4 H 0.9635 0.8518 -0.2735
C5 C 0.9363(12) 0.8527(11) -0.1649(5)
H5 H 1.0295 0.8424 -0.1588
C6 C 0.8472(13) 0.8628(13) -0.1053(6)
C7 C 0.8914(12) 0.8529(14) -0.0375(6)
C8 C 0.8208(10) 0.9413(10) 0.0850(5)
C9 C 0.8723(11) 0.7355(14) 0.3039(6)
H6 H 0.8001 0.7138 0.3373
C10 C 0.8465(12) 0.7984(13) 0.2366(6)
H7 H 0.7566 0.8242 0.2267
C11 C 0.9545(12) 0.8233(12) 0.1839(5)
C12 C 1.0887(11) 0.8019(12) 0.2035(6)
H8 H 1.1604 0.8268 0.1707
C13 C 1.1172(9) 0.7446(8) 0.2704(5)
H9 H 1.2074 0.7322 0.2823
C14 C 1.0105(10) 0.7051(11) 0.3204(6)
C15 C 1.0416(10) 0.6366(10) 0.3900(5)
C16 C 0.7169(14) 0.3606(11) 1.1688(6)
H10 H 0.6381 0.3199 1.1647
C17 C 0.7741(17) 0.3602(13) 1.2379(7)
H11 H 0.7325 0.3158 1.2783
C18 C 0.892(2) 0.4262(10) 1.2448(10)
H12 H 0.9292 0.4282 1.2883
C19 C 0.9441(16) 0.4851(17) 1.1830(8)
H13 H 1.0216 0.5286 1.1860
C20 C 0.8994(16) 0.4899(15) 1.1167(8)
H14 H 0.9440 0.5356 1.0778
C21 C 0.7870(14) 0.4261(15) 1.1082(6)
C22 C 0.7371(13) 0.4343(15) 1.0347(6)
C23 C 0.6239(10) 0.3060(11) 0.9523(6)
C24 C 0.4623(10) 0.3807(10) 0.7348(6)
H15 H 0.3981 0.3348 0.7170
C25 C 0.4924(12) 0.3534(12) 0.8070(6)
H16 H 0.4519 0.2881 0.8367
C26 C 0.5864(10) 0.4293(11) 0.8325(5)
C27 C 0.6458(12) 0.5219(13) 0.7887(6)
H17 H 0.7072 0.5712 0.8064
C28 C 0.6172(12) 0.5448(11) 0.7187(6)
H18 H 0.6596 0.6093 0.6893
C29 C 0.5257(11) 0.4733(13) 0.6907(6)
C30 C 0.4864(11) 0.5002(12) 0.6143(5)
C31 C 0.639(3) 0.191(3) 0.5514(14)
H19 H 0.5677 0.1399 0.5418
H20 H 0.6306 0.2056 0.6014
H21 H 0.7269 0.1449 0.5393
N1 N 0.8120(8) 0.9301(10) 0.0144(4)
N2 N 0.9290(10) 0.8665(9) 0.1121(5)
N3 N 0.6718(10) 0.3220(11) 1.0175(5)
N4 N 0.6260(11) 0.4133(10) 0.9058(5)
N5 N 0.7769(12) 0.7567(5) 0.5382(6)
O1 O 1.0010(8) 0.8007(10) -0.0209(5)
O2 O 0.9434(9) 0.5905(7) 0.4290(5)
O3 O 1.1651(7) 0.6171(9) 0.4060(4)
O4 O 0.7523(10) 0.5300(8) 0.9925(4)
O5 O 0.5694(8) 0.5599(7) 0.5685(4)
O6 O 0.3702(7) 0.4654(9) 0.6005(4)
O7 O 0.7076(9) 0.7441(10) 0.4800(5)
O8 O 0.7773(19) 0.8593(16) 0.5529(8)
O9 O 0.8279(10) 0.6611(8) 0.5644(5)
O10 O 0.8788(8) 0.3304(10) 0.4341(5)
O11 O 0.6285(8) 0.3149(9) 0.5085(5)
Ho1A Ho 1.23898(4) 0.50070(5) 0.50551(2)
Ho1A_2 Ho 0.23898(4) 0.50070(5) 0.50551(2)
O3A O 0.8349(7) 0.3829(9) 0.5940(4)
O6A O 0.6298(7) 0.5346(9) 0.3995(4)
O12 O 1.173(3) -0.086(2) 0.5887(14)
O13 O 1.352(4) -0.045(3) 0.6693(19)
loop_
_geom_bond_atom_site_label_1
_geom_bond_atom_site_label_2
_geom_bond_site_symmetry_1
_geom_bond_site_symmetry_2
Ho1 O2 1_555 1_555
S1 C8 1_555 1_555
S2 C23 1_555 1_555
C1 H1 1_555 1_555
C2 C1 1_555 1_555
H2 C2 1_555 1_555
C3 C2 1_555 1_555
H3 C3 1_555 1_555
C4 C3 1_555 1_555
H4 C4 1_555 1_555
C5 C4 1_555 1_555
H5 C5 1_555 1_555
C6 C1 1_555 1_555
C7 C6 1_555 1_555
C8 N1 1_555 1_555
C9 H6 1_555 1_555
C10 C9 1_555 1_555
H7 C10 1_555 1_555
C11 C10 1_555 1_555
C12 C11 1_555 1_555
H8 C12 1_555 1_555
C13 C12 1_555 1_555
H9 C13 1_555 1_555
C14 C9 1_555 1_555
C15 C14 1_555 1_555
C16 H10 1_555 1_555
C17 C16 1_555 1_555
H11 C17 1_555 1_555
C18 C17 1_555 1_555
H12 C18 1_555 1_555
C19 C18 1_555 1_555
H13 C19 1_555 1_555
C20 C19 1_555 1_555
H14 C20 1_555 1_555
C21 C16 1_555 1_555
C22 C21 1_555 1_555
C23 N3 1_555 1_555
C24 H15 1_555 1_555
C25 C24 1_555 1_555
H16 C25 1_555 1_555
C26 C25 1_555 1_555
C27 C26 1_555 1_555
H17 C27 1_555 1_555
C28 C27 1_555 1_555
H18 C28 1_555 1_555
C29 C24 1_555 1_555
C30 C29 1_555 1_555
C31 H19 1_555 1_555
H20 C31 1_555 1_555
H21 C31 1_555 1_555
N1 C7 1_555 1_555
N2 C8 1_555 1_555
N3 C22 1_555 1_555
N4 C23 1_555 1_555
N5 O7 1_555 1_555
O1 C7 1_555 1_555
O2 C15 1_555 1_555
O3 C15 1_555 1_555
O4 C22 1_555 1_555
O5 Ho1 1_555 1_555
O6 C30 1_555 1_555
O7 Ho1 1_555 1_555
O8 N5 1_555 1_555
O9 Ho1 1_555 1_555
O10 Ho1 1_555 1_555
O11 Ho1 1_555 1_555
Ho1A O3 1_555 1_555
Ho1A_2 O6 1_555 1_555
O3A Ho1 1_555 1_555
O6A Ho1 1_555 1_555
C5 C6 1_555 1_555
C11 N2 1_555 1_555
C13 C14 1_555 1_555
C20 C21 1_555 1_555
C26 N4 1_555 1_555
C28 C29 1_555 1_555
C30 O5 1_555 1_555
C31 O11 1_555 1_555
N5 O9 1_555 1_555

#END
