
#######################################################################
#
#                 Cambridge Crystallographic Data Centre
#                                CCDC 
#
#######################################################################
#
# If this CIF has been generated from an entry in the Cambridge 
# Structural Database, then it will include bibliographic, chemical, 
# crystal, experimental, refinement or atomic coordinate data resulting 
# from the CCDC's data processing and validation procedures.
#
#######################################################################

data_OKUHEI
_symmetry_cell_setting           tetragonal
_symmetry_space_group_name_H-M   'I -4 2 d'
_symmetry_Int_Tables_number      122
_space_group_name_Hall           'I -4 2bw'
loop_
_symmetry_equiv_pos_site_id
_symmetry_equiv_pos_as_xyz
1 x,y,z
2 y,-x,-z
3 -x,-y,z
4 -y,x,-z
5 1/2-x,y,3/4-z
6 1/2-y,-x,3/4+z
7 1/2+x,-y,3/4-z
8 1/2+y,x,3/4+z
9 1/2+x,1/2+y,1/2+z
10 1/2+y,1/2-x,1/2-z
11 1/2-x,1/2-y,1/2+z
12 1/2-y,1/2+x,1/2-z
13 -x,1/2+y,1/4-z
14 -y,1/2-x,1/4+z
15 x,1/2-y,1/4-z
16 y,1/2+x,1/4+z
_cell_length_a                   11.789(6)
_cell_length_b                   11.789(6)
_cell_length_c                   42.57(2)
_cell_angle_alpha                90
_cell_angle_beta                 90
_cell_angle_gamma                90
_cell_volume                     5916.4
loop_
_atom_site_label
_atom_site_type_symbol
_atom_site_fract_x
_atom_site_fract_y
_atom_site_fract_z
Cu1 Cu 0.5000 0.0000 0.16426(2)
O1 O 0.2429(4) 0.3530(4) 0.14894(13)
N1 N 0.3851(5) 0.1105(4) 0.16721(14)
N2 N 0.2757(5) 0.2599(5) 0.16085(14)
C1 C 0.4460(8) 0.2500 0.1250
C2 C 0.5185(6) 0.3398(6) 0.14048(16)
C3 C 0.3701(6) 0.1984(5) 0.15068(16)
C4 C 0.3037(6) 0.1041(7) 0.19453(18)
C5 C 0.2105(6) 0.1948(6) 0.18528(16)
C6 C 0.3675(7) 0.1359(7) 0.22261(16)
C7 C 0.2604(6) -0.0149(8) 0.19592(19)
C8 C 0.1711(8) 0.2745(8) 0.2095(2)
C9 C 0.1081(7) 0.1443(7) 0.1679(2)
H1 H 0.4809 0.4111 0.1398
H2 H 0.5885 0.3450 0.1295
H3 H 0.5324 0.3193 0.1617
H4 H 0.4018 0.0711 0.2319
H5 H 0.3172 0.1701 0.2373
H6 H 0.4247 0.1888 0.2169
H7 H 0.1948 -0.0232 0.1832
H8 H 0.2417 -0.0317 0.2171
H9 H 0.3177 -0.0655 0.1889
H10 H 0.2273 0.2762 0.2255
H11 H 0.1016 0.2482 0.2181
H12 H 0.1609 0.3488 0.2013
H13 H 0.0459 0.1955 0.1690
H14 H 0.0874 0.0742 0.1773
H15 H 0.1278 0.1319 0.1465
Cu1L Cu 0.5000 0.5000 0.08574(2)
O1N O 0.2429(4) 0.1470(4) 0.10106(13)
N1N N 0.3851(5) 0.3895(4) 0.08279(14)
N1B N 0.6149(5) -0.1105(4) 0.16721(14)
N2N N 0.2757(5) 0.2401(5) 0.08915(14)
C2N C 0.5185(6) 0.1602(6) 0.10952(16)
C3N C 0.3701(6) 0.3016(5) 0.09932(16)
C4N C 0.3037(6) 0.3959(7) 0.05547(18)
C5N C 0.2105(6) 0.3052(6) 0.06472(16)
C6N C 0.3675(7) 0.3641(7) 0.02739(16)
C7N C 0.2604(6) 0.5149(8) 0.05408(19)
C8N C 0.1711(8) 0.2255(8) 0.0405(2)
C9N C 0.1081(7) 0.3557(7) 0.0821(2)
H1N H 0.4809 0.0889 0.1102
H2N H 0.5885 0.1550 0.1205
H3N H 0.5324 0.1807 0.0883
H4N H 0.4018 0.4289 0.0181
H5N H 0.3172 0.3299 0.0127
H6N H 0.4247 0.3112 0.0331
H7N H 0.1948 0.5232 0.0668
H8N H 0.2417 0.5317 0.0329
H9N H 0.3177 0.5655 0.0611
H10N H 0.2273 0.2238 0.0245
H11N H 0.1016 0.2518 0.0319
H12N H 0.1609 0.1512 0.0487
H13N H 0.0459 0.3045 0.0810
H14N H 0.0874 0.4258 0.0727
H15N H 0.1278 0.3681 0.1035
Cl1 Cl 0.8305(6) 0.1568(8) 0.11168(16)
Cl2 Cl 0.8381(5) 0.2013(4) 0.04650(14)
C10 C 0.8198(12) 0.0891(12) 0.0726(3)
P1 P 0.5000 0.5000 0.22851(5)
F1 F 0.5481(4) 0.3739(3) 0.22802(12)
F2 F 0.4120(4) 0.4663(4) 0.20212(11)
F3 F 0.4112(5) 0.4671(4) 0.25461(12)
F1B F 0.4519(4) 0.6261(3) 0.22802(12)
F2B F 0.5880(4) 0.5337(4) 0.20212(11)
F3B F 0.5888(5) 0.5329(4) 0.25461(12)
Cl3? Cl 0.9294(10) 0.0706(10) 0.0977(3)
loop_
_geom_bond_atom_site_label_1
_geom_bond_atom_site_label_2
_geom_bond_site_symmetry_1
_geom_bond_site_symmetry_2
Cu1 N1 1_555 1_555
Cl1 C10 1_555 1_555
Cl2 C10 1_555 1_555
P1 F1 1_555 1_555
F2 P1 1_555 1_555
F3 P1 1_555 1_555
O1 N2 1_555 1_555
N1 C3 1_555 1_555
N2 C3 1_555 1_555
C1 C2 1_555 1_555
C2 H1 1_555 1_555
C3 C1 1_555 1_555
C4 N1 1_555 1_555
C5 N2 1_555 1_555
C6 C4 1_555 1_555
C7 C4 1_555 1_555
C8 C5 1_555 1_555
C9 C5 1_555 1_555
H2 C2 1_555 1_555
H3 C2 1_555 1_555
H4 C6 1_555 1_555
H5 C6 1_555 1_555
H6 C6 1_555 1_555
H7 C7 1_555 1_555
H8 C7 1_555 1_555
H9 C7 1_555 1_555
H10 C8 1_555 1_555
H11 C8 1_555 1_555
H12 C8 1_555 1_555
H13 C9 1_555 1_555
H14 C9 1_555 1_555
H15 C9 1_555 1_555
Cu1L N1N 1_555 1_555
F1B P1 1_555 1_555
F2B P1 1_555 1_555
F3B P1 1_555 1_555
O1N N2N 1_555 1_555
N1N C3N 1_555 1_555
N1B Cu1 1_555 1_555
N2N C3N 1_555 1_555
C2N C1 1_555 1_555
C3N C1 1_555 1_555
C4N N1N 1_555 1_555
C5N N2N 1_555 1_555
C6N C4N 1_555 1_555
C7N C4N 1_555 1_555
C8N C5N 1_555 1_555
C9N C5N 1_555 1_555
H1N C2N 1_555 1_555
H2N C2N 1_555 1_555
H3N C2N 1_555 1_555
H4N C6N 1_555 1_555
H5N C6N 1_555 1_555
H6N C6N 1_555 1_555
H7N C7N 1_555 1_555
H8N C7N 1_555 1_555
H9N C7N 1_555 1_555
H10N C8N 1_555 1_555
H11N C8N 1_555 1_555
H12N C8N 1_555 1_555
H13N C9N 1_555 1_555
H14N C9N 1_555 1_555
H15N C9N 1_555 1_555
C4 C5 1_555 1_555
C4N C5N 1_555 1_555

#END
