
#######################################################################
#
#                 Cambridge Crystallographic Data Centre
#                                CCDC 
#
#######################################################################
#
# If this CIF has been generated from an entry in the Cambridge 
# Structural Database, then it will include bibliographic, chemical, 
# crystal, experimental, refinement or atomic coordinate data resulting 
# from the CCDC's data processing and validation procedures.
#
#######################################################################

data_OKUQIU
_symmetry_cell_setting           orthorhombic
_symmetry_space_group_name_H-M   'C 2 2 21'
_symmetry_Int_Tables_number      20
_space_group_name_Hall           'C 2n 2'
loop_
_symmetry_equiv_pos_site_id
_symmetry_equiv_pos_as_xyz
1 x,y,z
2 -x,-y,1/2+z
3 -x,y,1/2-z
4 x,-y,-z
5 1/2+x,1/2+y,z
6 1/2-x,1/2-y,1/2+z
7 1/2-x,1/2+y,1/2-z
8 1/2+x,1/2-y,-z
_cell_length_a                   8.206(2)
_cell_length_b                   24.610(7)
_cell_length_c                   29.623(9)
_cell_angle_alpha                90
_cell_angle_beta                 90
_cell_angle_gamma                90
_cell_volume                     5982.35
loop_
_atom_site_label
_atom_site_type_symbol
_atom_site_fract_x
_atom_site_fract_y
_atom_site_fract_z
Tb1 Tb 1.0000 1.018818(15) 0.2500
Tb2 Tb 0.5000 0.954117(15) 0.2500
Tb3 Tb 1.01868(4) 0.745373(12) -0.017356(11)
O1 O 0.7833(7) 0.9922(2) 0.2017(2)
O2 O 0.6245(7) 0.9239(2) 0.1828(2)
O3 O 0.9227(6) 0.8260(2) 0.0099(2)
O4 O 0.6769(7) 0.8253(2) 0.04031(19)
O5 O 1.3505(7) 0.7747(2) 0.07645(19)
O6 O 1.1238(7) 0.7344(2) 0.05268(18)
O7 O 1.3186(7) 0.8935(2) 0.2191(2)
O8 O 1.0917(7) 0.9414(2) 0.2112(2)
O9 O 1.1537(7) 1.0524(2) 0.18896(19)
O10 O 1.4006(6) 1.0182(2) 0.20185(19)
O11 O 1.1195(7) 1.1960(2) 0.07320(19)
O12 O 1.2954(6) 1.2010(2) 0.0171(2)
N1 N 0.8552(8) 1.1087(2) 0.2266(2)
C1 C 0.7393(10) 0.9561(3) 0.1739(3)
C2 C 0.8200(9) 0.9500(3) 0.1280(3)
C3 C 0.9400(10) 0.9854(3) 0.1132(3)
H1 H 0.9672 1.0156 0.1305
C4 C 1.0186(14) 0.9759(3) 0.0733(3)
H2 H 1.0979 1.0000 0.0631
C5 C 0.9795(12) 0.9302(3) 0.0479(3)
H3 H 1.0370 0.9228 0.0216
C6 C 0.8575(9) 0.8959(3) 0.0614(3)
C7 C 0.8172(10) 0.8454(3) 0.0350(3)
C8 C 0.7759(9) 0.9066(3) 0.1015(3)
H4 H 0.6906 0.8842 0.1105
C9 C 1.2015(10) 0.7646(3) 0.0801(3)
C10 C 1.1136(9) 0.7889(3) 0.1184(3)
C11 C 0.9520(9) 0.7727(3) 0.1281(3)
H5 H 0.9019 0.7463 0.1106
C12 C 0.8686(10) 0.7959(3) 0.1635(3)
H6 H 0.7651 0.7836 0.1711
C13 C 0.9400(9) 0.8379(3) 0.1877(3)
H7 H 0.8803 0.8555 0.2100
C14 C 1.0989(9) 0.8539(3) 0.1791(3)
C15 C 1.1735(10) 0.9005(3) 0.2051(3)
C16 C 1.1843(9) 0.8288(3) 0.1445(3)
H8 H 1.2913 0.8392 0.1388
C17 C 1.2980(9) 1.0437(3) 0.1780(3)
C18 C 1.3511(9) 1.0641(3) 0.1321(3)
C19 C 1.4794(13) 1.0396(3) 0.1087(3)
H9 H 1.5327 1.0100 0.1215
C20 C 1.5282(15) 1.0580(4) 0.0672(4)
H10 H 1.6095 1.0399 0.0513
C21 C 1.4548(12) 1.1045(3) 0.0489(3)
H11 H 1.4914 1.1187 0.0216
C22 C 1.3258(10) 1.1294(3) 0.0719(3)
C23 C 1.2433(9) 1.1781(3) 0.0534(3)
C24 C 1.2742(9) 1.1084(3) 0.1129(3)
H12 H 1.1865 1.1243 0.1277
C25 C 0.7102(11) 1.1100(3) 0.2063(3)
H13 H 0.6642 1.0771 0.1974
C26 C 0.6241(12) 1.1572(4) 0.1976(4)
H14 H 0.5225 1.1558 0.1837
C27 C 0.6910(11) 1.2060(3) 0.2098(3)
H15 H 0.6343 1.2382 0.2050
C28 C 0.8456(10) 1.2068(3) 0.2296(3)
C29 C 0.9250(9) 1.2570(3) 0.2406(3)
H16 H 0.8730 1.2898 0.2346
C30 C 0.9220(9) 1.1568(3) 0.2387(3)
C29B C 1.0750(9) 1.2570(3) 0.2594(3)
C28B C 1.1544(10) 1.2068(3) 0.2704(3)
C27B C 1.3090(11) 1.2060(3) 0.2902(3)
C26B C 1.3759(12) 1.1572(4) 0.3024(4)
C25B C 1.2898(11) 1.1100(3) 0.2937(3)
N1B N 1.1448(8) 1.1087(2) 0.2734(2)
C30B C 1.0780(9) 1.1568(3) 0.2613(3)
H13B H 1.3358 1.0771 0.3026
H14B H 1.4775 1.1558 0.3163
H15B H 1.3657 1.2382 0.2950
H16B H 1.1270 1.2898 0.2654
O1B O 1.2167(7) 0.9922(2) 0.2983(2)
O2B O 1.3755(7) 0.9239(2) 0.3172(2)
O3B O 1.0773(6) 0.8260(2) 0.4901(2)
O4B O 1.3231(7) 0.8253(2) 0.45969(19)
C1B C 1.2607(10) 0.9561(3) 0.3261(3)
C2B C 1.1800(9) 0.9500(3) 0.3720(3)
C3B C 1.0600(10) 0.9854(3) 0.3868(3)
H1B H 1.0328 1.0156 0.3695
C4B C 0.9814(14) 0.9759(3) 0.4267(3)
H2B H 0.9021 1.0000 0.4369
C5B C 1.0205(12) 0.9302(3) 0.4521(3)
H3B H 0.9630 0.9228 0.4784
C6B C 1.1425(9) 0.8959(3) 0.4386(3)
C7B C 1.1828(10) 0.8454(3) 0.4650(3)
C8B C 1.2241(9) 0.9066(3) 0.3985(3)
H4B H 1.3094 0.8842 0.3895
O5B O 0.6495(7) 0.7747(2) 0.42355(19)
O6B O 0.8762(7) 0.7344(2) 0.44732(18)
O7B O 0.6814(7) 0.8935(2) 0.2809(2)
O8B O 0.9083(7) 0.9414(2) 0.2888(2)
C9B C 0.7985(10) 0.7646(3) 0.4199(3)
C10B C 0.8864(9) 0.7889(3) 0.3816(3)
C11B C 1.0480(9) 0.7727(3) 0.3719(3)
H5B H 1.0981 0.7463 0.3894
C12B C 1.1314(10) 0.7959(3) 0.3365(3)
H6B H 1.2349 0.7836 0.3289
C13B C 1.0600(9) 0.8379(3) 0.3123(3)
H7B H 1.1197 0.8555 0.2900
C14B C 0.9011(9) 0.8539(3) 0.3209(3)
C15B C 0.8265(10) 0.9005(3) 0.2949(3)
C16B C 0.8157(9) 0.8288(3) 0.3555(3)
H8B H 0.7087 0.8392 0.3612
O9B O 0.8463(7) 1.0524(2) 0.31104(19)
O10B O 0.5994(6) 1.0182(2) 0.29815(19)
O11B O 0.8805(7) 1.1960(2) 0.42680(19)
O12B O 0.7046(6) 1.2010(2) 0.4829(2)
C17B C 0.7020(9) 1.0437(3) 0.3220(3)
C18B C 0.6489(9) 1.0641(3) 0.3679(3)
C19B C 0.5206(13) 1.0396(3) 0.3913(3)
H9B H 0.4673 1.0100 0.3785
C20B C 0.4718(15) 1.0580(4) 0.4328(4)
H10B H 0.3905 1.0399 0.4487
C21B C 0.5452(12) 1.1045(3) 0.4511(3)
H11B H 0.5086 1.1187 0.4784
C22B C 0.6742(10) 1.1294(3) 0.4281(3)
C23B C 0.7567(9) 1.1781(3) 0.4466(3)
C24B C 0.7258(9) 1.1084(3) 0.3871(3)
H12B H 0.8135 1.1243 0.3723
Tb3B Tb 0.98132(4) 0.745373(12) 0.517356(11)
O2B_2 O 0.3755(7) 0.9239(2) 0.3172(2)
O7_2 O 0.3186(7) 0.8935(2) 0.2191(2)
O10_2 O 0.4006(6) 1.0182(2) 0.20185(19)
O4G O 1.1769(7) 0.6747(2) -0.04031(19)
O5G O 0.8505(7) 0.7253(2) -0.07645(19)
O11C O 1.1195(7) 0.8040(2) -0.07320(19)
O12C O 1.2954(6) 0.7990(2) -0.0171(2)
O12D O 0.7954(6) 0.7010(2) 0.0171(2)
Tb3G Tb 0.51868(4) 0.754627(12) 0.017356(11)
Tb3G_2 Tb 1.51868(4) 0.754627(12) 0.017356(11)
Tb2_2 Tb 1.5000 0.954117(15) 0.2500
Tb3C Tb 1.01868(4) 1.254627(12) 0.017356(11)
Tb3D Tb 1.51868(4) 1.245373(12) -0.017356(11)
Tb3E Tb 1.48132(4) 0.754627(12) 0.482644(11)
Tb3E_2 Tb 0.48132(4) 0.754627(12) 0.482644(11)
Tb3A Tb 0.98132(4) 1.254627(12) 0.482644(11)
Tb3F Tb 0.48132(4) 1.245373(12) 0.517356(11)
O4E O 0.8231(7) 0.6747(2) 0.54031(19)
O5E O 1.1495(7) 0.7253(2) 0.57645(19)
O11A O 0.8805(7) 0.8040(2) 0.57320(19)
O12A O 0.7046(6) 0.7990(2) 0.5171(2)
O12F O 1.2046(6) 0.7010(2) 0.4829(2)
loop_
_geom_bond_atom_site_label_1
_geom_bond_atom_site_label_2
_geom_bond_site_symmetry_1
_geom_bond_site_symmetry_2
Tb1 O1 1_555 1_555
Tb2 O2 1_555 1_555
Tb3 O3 1_555 1_555
O1 C1 1_555 1_555
O2 C1 1_555 1_555
O3 C7 1_555 1_555
O4 C7 1_555 1_555
O5 C9 1_555 1_555
O6 Tb3 1_555 1_555
O7 C15 1_555 1_555
O8 Tb1 1_555 1_555
O9 Tb1 1_555 1_555
O10 C17 1_555 1_555
O11 C23 1_555 1_555
O12 C23 1_555 1_555
N1 Tb1 1_555 1_555
C1 C2 1_555 1_555
C2 C3 1_555 1_555
C3 H1 1_555 1_555
C4 C3 1_555 1_555
H2 C4 1_555 1_555
C5 C4 1_555 1_555
H3 C5 1_555 1_555
C6 C5 1_555 1_555
C7 C6 1_555 1_555
C8 C2 1_555 1_555
H4 C8 1_555 1_555
C9 O6 1_555 1_555
C10 C9 1_555 1_555
C11 C10 1_555 1_555
H5 C11 1_555 1_555
C12 C11 1_555 1_555
H6 C12 1_555 1_555
C13 C12 1_555 1_555
H7 C13 1_555 1_555
C14 C13 1_555 1_555
C15 O8 1_555 1_555
C16 C10 1_555 1_555
H8 C16 1_555 1_555
C17 O9 1_555 1_555
C18 C17 1_555 1_555
C19 C18 1_555 1_555
H9 C19 1_555 1_555
C20 C19 1_555 1_555
H10 C20 1_555 1_555
C21 C20 1_555 1_555
H11 C21 1_555 1_555
C22 C21 1_555 1_555
C23 C22 1_555 1_555
C24 C18 1_555 1_555
H12 C24 1_555 1_555
C25 N1 1_555 1_555
H13 C25 1_555 1_555
C26 C25 1_555 1_555
H14 C26 1_555 1_555
C27 C26 1_555 1_555
H15 C27 1_555 1_555
C28 C27 1_555 1_555
C29 C28 1_555 1_555
H16 C29 1_555 1_555
C30 N1 1_555 1_555
C29B C29 1_555 1_555
C28B C29B 1_555 1_555
C27B C28B 1_555 1_555
C26B C27B 1_555 1_555
C25B C26B 1_555 1_555
N1B Tb1 1_555 1_555
C30B C30 1_555 1_555
H13B C25B 1_555 1_555
H14B C26B 1_555 1_555
H15B C27B 1_555 1_555
H16B C29B 1_555 1_555
O1B Tb1 1_555 1_555
O2B C1B 1_555 1_555
O3B C7B 1_555 1_555
O4B C7B 1_555 1_555
C1B O1B 1_555 1_555
C2B C1B 1_555 1_555
C3B C2B 1_555 1_555
H1B C3B 1_555 1_555
C4B C3B 1_555 1_555
H2B C4B 1_555 1_555
C5B C4B 1_555 1_555
H3B C5B 1_555 1_555
C6B C5B 1_555 1_555
C7B C6B 1_555 1_555
C8B C2B 1_555 1_555
H4B C8B 1_555 1_555
O5B C9B 1_555 1_555
O6B C9B 1_555 1_555
O7B Tb2 1_555 1_555
O8B Tb1 1_555 1_555
C9B C10B 1_555 1_555
C10B C11B 1_555 1_555
C11B H5B 1_555 1_555
C12B C11B 1_555 1_555
H6B C12B 1_555 1_555
C13B C12B 1_555 1_555
H7B C13B 1_555 1_555
C14B C13B 1_555 1_555
C15B O7B 1_555 1_555
C16B C10B 1_555 1_555
H8B C16B 1_555 1_555
O9B Tb1 1_555 1_555
O10B Tb2 1_555 1_555
O11B C23B 1_555 1_555
O12B C23B 1_555 1_555
C17B O9B 1_555 1_555
C18B C17B 1_555 1_555
C19B C18B 1_555 1_555
H9B C19B 1_555 1_555
C20B C19B 1_555 1_555
H10B C20B 1_555 1_555
C21B C20B 1_555 1_555
H11B C21B 1_555 1_555
C22B C21B 1_555 1_555
C23B C22B 1_555 1_555
C24B C18B 1_555 1_555
H12B C24B 1_555 1_555
Tb3B O3B 1_555 1_555
O2B_2 Tb2 1_555 1_555
O7_2 Tb2 1_555 1_555
O10_2 Tb2 1_555 1_555
O4G Tb3 1_555 1_555
O5G Tb3 1_555 1_555
O11C Tb3 1_555 1_555
O12C Tb3 1_555 1_555
O12D Tb3 1_555 1_555
Tb3G O4 1_555 1_555
Tb3G_2 O5 1_555 1_555
Tb2_2 O7 1_555 1_555
Tb3C O11 1_555 1_555
Tb3D O12 1_555 1_555
Tb3E O4B 1_555 1_555
Tb3E_2 O5B 1_555 1_555
Tb3A O11B 1_555 1_555
Tb3F O12B 1_555 1_555
O4E Tb3B 1_555 1_555
O5E Tb3B 1_555 1_555
O11A Tb3B 1_555 1_555
O12A Tb3B 1_555 1_555
O12F Tb3B 1_555 1_555
O10 Tb2_2 1_555 1_555
O12 Tb3C 1_555 1_555
C6 C8 1_555 1_555
C14 C15 1_555 1_555
C14 C16 1_555 1_555
C22 C24 1_555 1_555
C28 C30 1_555 1_555
C28B C30B 1_555 1_555
C25B N1B 1_555 1_555
N1B C30B 1_555 1_555
O2B Tb2_2 1_555 1_555
C6B C8B 1_555 1_555
O6B Tb3B 1_555 1_555
O8B C15B 1_555 1_555
C14B C15B 1_555 1_555
C14B C16B 1_555 1_555
O10B C17B 1_555 1_555
O12B Tb3A 1_555 1_555
C22B C24B 1_555 1_555
O12C Tb3G_2 1_555 1_555
O12D Tb3G 1_555 1_555
Tb3E O12F 1_555 1_555
Tb3E_2 O12A 1_555 1_555

#END
