
#######################################################################
#
#                 Cambridge Crystallographic Data Centre
#                                CCDC 
#
#######################################################################
#
# If this CIF has been generated from an entry in the Cambridge 
# Structural Database, then it will include bibliographic, chemical, 
# crystal, experimental, refinement or atomic coordinate data resulting 
# from the CCDC's data processing and validation procedures.
#
#######################################################################

data_OKUTIY
_symmetry_cell_setting           triclinic
_symmetry_space_group_name_H-M   'P -1'
_symmetry_Int_Tables_number      2
_space_group_name_Hall           '-P 1'
loop_
_symmetry_equiv_pos_site_id
_symmetry_equiv_pos_as_xyz
1 x,y,z
2 -x,-y,-z
_cell_length_a                   7.67390(10)
_cell_length_b                   8.95170(10)
_cell_length_c                   10.6171(2)
_cell_angle_alpha                88.6620(10)
_cell_angle_beta                 80.5190(10)
_cell_angle_gamma                83.8590(10)
_cell_volume                     715.233
loop_
_atom_site_label
_atom_site_type_symbol
_atom_site_fract_x
_atom_site_fract_y
_atom_site_fract_z
Zn1 Zn 0.11802(2) 0.51139(2) 0.596368(16)
C1 C 0.7556(2) -0.32269(19) 0.62964(16)
C2 C 0.6250(2) -0.2127(2) 0.70639(17)
H1 H 0.6556 -0.1773 0.7806
C3 C 0.4681(2) -0.1608(2) 0.67747(17)
H2 H 0.4376 -0.1951 0.6029
C4 C 0.3386(2) -0.05253(19) 0.75507(17)
C5 C 0.3833(3) 0.0237(2) 0.85607(18)
H3 H 0.4991 0.0112 0.8730
C6 C 0.2556(3) 0.1179(2) 0.9309(2)
H4 H 0.2856 0.1680 0.9987
C7 C 0.0834(3) 0.1384(2) 0.90598(19)
H5 H -0.0025 0.2005 0.9581
C8 C 0.0389(2) 0.0670(2) 0.80406(17)
C9 C 0.1649(2) -0.0292(2) 0.72870(17)
H6 H 0.1342 -0.0783 0.6606
C10 C -0.1749(2) 0.1132(2) 0.66257(18)
H7 H -0.3008 0.1084 0.6637
H8 H -0.1109 0.0323 0.6090
C11 C -0.1247(2) 0.26214(19) 0.60391(16)
C12 C 0.4227(2) 0.4381(2) 0.73307(17)
H9 H 0.4737 0.3916 0.6564
C13 C 0.5210(2) 0.4333(2) 0.83131(17)
H10 H 0.6358 0.3848 0.8197
C14 C 0.4493(2) 0.50029(19) 0.94628(15)
C15 C 0.2790(3) 0.5691(4) 0.9558(2)
H11 H 0.2237 0.6152 1.0316
C16 C 0.1897(3) 0.5701(3) 0.8532(2)
H12 H 0.0750 0.6184 0.8619
N1 N 0.25893(18) 0.50598(16) 0.74345(13)
O1 O 0.71930(18) -0.37468(16) 0.52988(13)
O2 O 0.89754(18) -0.35535(17) 0.67301(15)
O3 O -0.13773(17) 0.09061(16) 0.78829(13)
O4 O -0.0247(2) 0.33173(16) 0.65487(14)
O5 O -0.1917(2) 0.30164(16) 0.50702(13)
Zn1A Zn -0.11802(2) 0.48861(2) 0.403632(16)
Zn1_2 Zn -0.88198(2) 1.51139(2) 0.596368(16)
Zn1_3 Zn 1.11802(2) -0.48861(2) 0.596368(16)
Zn1A_2 Zn -1.11802(2) 1.48861(2) 0.403632(16)
Zn1A_3 Zn 0.88198(2) -0.51139(2) 0.403632(16)
Zn1A_4 Zn 0.88198(2) 0.48861(2) 1.403632(16)
C1A C -0.7556(2) 1.32269(19) 0.37036(16)
C2A C -0.6250(2) 1.2127(2) 0.29361(17)
H1A H -0.6556 1.1773 0.2194
C3A C -0.4681(2) 1.1608(2) 0.32253(17)
H2A H -0.4376 1.1951 0.3971
C4A C -0.3386(2) 1.05253(19) 0.24493(17)
C5A C -0.3833(3) 0.9763(2) 0.14393(18)
H3A H -0.4991 0.9888 0.1270
C6A C -0.2556(3) 0.8821(2) 0.0691(2)
H4A H -0.2856 0.8320 0.0013
C7A C -0.0834(3) 0.8616(2) 0.09402(19)
H5A H 0.0025 0.7995 0.0419
C8A C -0.0389(2) 0.9330(2) 0.19594(17)
C9A C -0.1649(2) 1.0292(2) 0.27130(17)
H6A H -0.1342 1.0783 0.3394
C10A C 0.1749(2) 0.8868(2) 0.33743(18)
H7A H 0.3008 0.8916 0.3363
H8A H 0.1109 0.9677 0.3910
C11A C 0.1247(2) 0.73786(19) 0.39609(16)
C12A C 0.5773(2) 0.5619(2) 1.26693(17)
H9A H 0.5263 0.6084 1.3436
C13A C 0.4790(2) 0.5667(2) 1.16869(17)
H10A H 0.3642 0.6152 1.1803
C14A C 0.5507(2) 0.49971(19) 1.05372(15)
C15A C 0.7210(3) 0.4309(4) 1.0442(2)
H11A H 0.7763 0.3848 0.9684
C16A C 0.8103(3) 0.4299(3) 1.1468(2)
H12A H 0.9250 0.3816 1.1381
N1A N 0.74107(18) 0.49402(16) 1.25655(13)
N1A_2 N -0.25893(18) 0.49402(16) 0.25655(13)
O1A O -0.71930(18) 1.37468(16) 0.47012(13)
O1_2 O -0.28070(18) 0.62532(16) 0.52988(13)
O1A_2 O 0.28070(18) 0.37468(16) 0.47012(13)
O2A O -0.89754(18) 1.35535(17) 0.32699(15)
O2_2 O -0.10246(18) 0.64465(17) 0.67301(15)
O2A_2 O 0.10246(18) 0.35535(17) 0.32699(15)
O3A O 0.13773(17) 0.90939(16) 0.21171(13)
O4A O 0.0247(2) 0.66827(16) 0.34513(14)
O5A O 0.1917(2) 0.69836(16) 0.49298(13)
loop_
_geom_bond_atom_site_label_1
_geom_bond_atom_site_label_2
_geom_bond_site_symmetry_1
_geom_bond_site_symmetry_2
Zn1 N1 1_555 1_555
C1 C2 1_555 1_555
C2 H1 1_555 1_555
C3 C2 1_555 1_555
H2 C3 1_555 1_555
C4 C3 1_555 1_555
C5 C4 1_555 1_555
H3 C5 1_555 1_555
C6 C5 1_555 1_555
H4 C6 1_555 1_555
C7 C6 1_555 1_555
H5 C7 1_555 1_555
C8 C7 1_555 1_555
C9 C4 1_555 1_555
H6 C9 1_555 1_555
C10 H7 1_555 1_555
H8 C10 1_555 1_555
C11 C10 1_555 1_555
C12 H9 1_555 1_555
C13 C12 1_555 1_555
H10 C13 1_555 1_555
C14 C13 1_555 1_555
C15 C14 1_555 1_555
H11 C15 1_555 1_555
C16 C15 1_555 1_555
H12 C16 1_555 1_555
N1 C12 1_555 1_555
O1 C1 1_555 1_555
O2 C1 1_555 1_555
O3 C8 1_555 1_555
O4 Zn1 1_555 1_555
O5 C11 1_555 1_555
Zn1A O5 1_555 1_555
Zn1_2 O1A 1_555 1_555
Zn1_3 O2 1_555 1_555
Zn1A_2 O2A 1_555 1_555
Zn1A_3 O1 1_555 1_555
Zn1A_4 N1A 1_555 1_555
C1A C2A 1_555 1_555
C2A H1A 1_555 1_555
C3A C2A 1_555 1_555
H2A C3A 1_555 1_555
C4A C3A 1_555 1_555
C5A C4A 1_555 1_555
H3A C5A 1_555 1_555
C6A C5A 1_555 1_555
H4A C6A 1_555 1_555
C7A C6A 1_555 1_555
H5A C7A 1_555 1_555
C8A C7A 1_555 1_555
C9A C4A 1_555 1_555
H6A C9A 1_555 1_555
C10A H7A 1_555 1_555
H8A C10A 1_555 1_555
C11A C10A 1_555 1_555
C12A H9A 1_555 1_555
C13A C12A 1_555 1_555
H10A C13A 1_555 1_555
C14A C14 1_555 1_555
C15A C14A 1_555 1_555
H11A C15A 1_555 1_555
C16A C15A 1_555 1_555
H12A C16A 1_555 1_555
N1A C12A 1_555 1_555
N1A_2 Zn1A 1_555 1_555
O1A C1A 1_555 1_555
O1_2 Zn1A 1_555 1_555
O1A_2 Zn1 1_555 1_555
O2A C1A 1_555 1_555
O2_2 Zn1 1_555 1_555
O2A_2 Zn1A 1_555 1_555
O3A C8A 1_555 1_555
O4A Zn1A 1_555 1_555
O5A Zn1 1_555 1_555
C8 C9 1_555 1_555
C10 O3 1_555 1_555
C11 O4 1_555 1_555
C16 N1 1_555 1_555
C8A C9A 1_555 1_555
C10A O3A 1_555 1_555
C11A O4A 1_555 1_555
C11A O5A 1_555 1_555
C13A C14A 1_555 1_555
C16A N1A 1_555 1_555

#END
