
#######################################################################
#
#                 Cambridge Crystallographic Data Centre
#                                CCDC 
#
#######################################################################
#
# If this CIF has been generated from an entry in the Cambridge 
# Structural Database, then it will include bibliographic, chemical, 
# crystal, experimental, refinement or atomic coordinate data resulting 
# from the CCDC's data processing and validation procedures.
#
#######################################################################

data_OKUTEU
_symmetry_cell_setting           monoclinic
_symmetry_space_group_name_H-M   'P 21/c'
_symmetry_Int_Tables_number      14
_space_group_name_Hall           '-P 2ybc'
loop_
_symmetry_equiv_pos_site_id
_symmetry_equiv_pos_as_xyz
1 x,y,z
2 -x,1/2+y,1/2-z
3 -x,-y,-z
4 x,1/2-y,1/2+z
_cell_length_a                   14.7711(17)
_cell_length_b                   7.8605(8)
_cell_length_c                   18.214(2)
_cell_angle_alpha                90
_cell_angle_beta                 127.939(7)
_cell_angle_gamma                90
_cell_volume                     1667.87
loop_
_atom_site_label
_atom_site_type_symbol
_atom_site_fract_x
_atom_site_fract_y
_atom_site_fract_z
Mn1 Mn 0.43055(3) 0.15796(5) 0.35190(2)
C1 C 0.3808(2) 0.3597(4) 0.47377(18)
C2 C 0.2940(3) 0.4822(6) 0.4600(2)
H1 H 0.3020 0.4871 0.5169
H2 H 0.3111 0.5945 0.4493
C3 C 0.1326(2) 0.4961(4) 0.2969(2)
C4 C 0.1921(3) 0.5784(5) 0.2723(3)
H3 H 0.2698 0.6023 0.3167
C5 C 0.1347(3) 0.6255(6) 0.1806(4)
H4 H 0.1750 0.6815 0.1637
C6 C 0.0201(3) 0.5922(5) 0.1134(3)
H5 H -0.0164 0.6252 0.0521
C7 C -0.0411(2) 0.5087(4) 0.1378(2)
C8 C 0.0162(2) 0.4604(4) 0.2293(2)
H6 H -0.0235 0.4030 0.2462
C9 C -0.1634(2) 0.4683(4) 0.0711(2)
H7 H -0.1942 0.4113 0.0960
C10 C -0.2370(2) 0.5006(4) -0.0194(2)
H8 H -0.2116 0.5563 -0.0488
C11 C -0.3585(2) 0.4496(4) -0.07409(18)
C12 C 0.1710(3) 0.1403(5) 0.1960(2)
H9 H 0.1739 0.1902 0.2437
C13 C 0.0649(3) 0.0980(5) 0.1151(2)
H10 H -0.0009 0.1199 0.1095
C14 C 0.0561(2) 0.0251(4) 0.04393(17)
C15 C 0.1567(3) -0.0102(11) 0.0602(3)
H11 H 0.1564 -0.0667 0.0152
C16 C 0.2598(3) 0.0367(10) 0.1430(3)
H12 H 0.3270 0.0112 0.1514
N1 N 0.2683(2) 0.1144(3) 0.20988(15)
O1 O 0.35514(16) 0.2716(3) 0.40657(13)
O2 O 0.4595(2) 0.4010(3) 0.31437(15)
H13 H 0.446(3) 0.444(4) 0.2660(17)
H14 H 0.476(3) 0.487(3) 0.348(2)
O3 O 0.47477(18) 0.3599(3) 0.55372(14)
O4 O 0.39040(17) -0.0848(3) 0.38314(13)
H15 H 0.433(3) -0.170(3) 0.401(2)
H16 H 0.378(3) -0.076(4) 0.422(2)
O5 O 0.17722(17) 0.4418(4) 0.38459(16)
O6 O -0.42956(18) 0.4808(3) -0.15974(13)
O7 O -0.39126(15) 0.3732(3) -0.03299(12)
Mn1B Mn -0.43055(3) -0.15796(5) -0.35190(2)
Mn1A Mn 0.56945(3) -0.34204(5) 0.14810(2)
Mn1C Mn -0.56945(3) 0.34204(5) -0.14810(2)
C1B C -0.3808(2) -0.3597(4) -0.47377(18)
C2B C -0.2940(3) -0.4822(6) -0.4600(2)
H1B H -0.3020 -0.4871 -0.5169
H2B H -0.3111 -0.5945 -0.4493
C3B C -0.1326(2) -0.4961(4) -0.2969(2)
C4B C -0.1921(3) -0.5784(5) -0.2723(3)
H3B H -0.2698 -0.6023 -0.3167
C5B C -0.1347(3) -0.6255(6) -0.1806(4)
H4B H -0.1750 -0.6815 -0.1637
C6B C -0.0201(3) -0.5922(5) -0.1134(3)
H5B H 0.0164 -0.6252 -0.0521
C7B C 0.0411(2) -0.5087(4) -0.1378(2)
C8B C -0.0162(2) -0.4604(4) -0.2293(2)
H6B H 0.0235 -0.4030 -0.2462
C9B C 0.1634(2) -0.4683(4) -0.0711(2)
H7B H 0.1942 -0.4113 -0.0960
C10B C 0.2370(2) -0.5006(4) 0.0194(2)
H8B H 0.2116 -0.5563 0.0488
C11B C 0.3585(2) -0.4496(4) 0.07409(18)
C12B C -0.1710(3) -0.1403(5) -0.1960(2)
H9B H -0.1739 -0.1902 -0.2437
C13B C -0.0649(3) -0.0980(5) -0.1151(2)
H10B H 0.0009 -0.1199 -0.1095
C14B C -0.0561(2) -0.0251(4) -0.04393(17)
C15B C -0.1567(3) 0.0102(11) -0.0602(3)
H11B H -0.1564 0.0667 -0.0152
C16B C -0.2598(3) -0.0367(10) -0.1430(3)
H12B H -0.3270 -0.0112 -0.1514
N1B N -0.2683(2) -0.1144(3) -0.20988(15)
O1B O -0.35514(16) -0.2716(3) -0.40657(13)
O2B O -0.4595(2) -0.4010(3) -0.31437(15)
H13B H -0.446(3) -0.444(4) -0.2660(17)
H14B H -0.476(3) -0.487(3) -0.348(2)
O3B O -0.47477(18) -0.3599(3) -0.55372(14)
O4B O -0.39040(17) 0.0848(3) -0.38314(13)
H15B H -0.433(3) 0.170(3) -0.401(2)
H16B H -0.378(3) 0.076(4) -0.422(2)
O5B O -0.17722(17) -0.4418(4) -0.38459(16)
O6B O 0.42956(18) -0.4808(3) 0.15974(13)
O6A O -0.57044(18) -0.0192(3) -0.34026(13)
O6C O 0.57044(18) 0.0192(3) 0.34026(13)
O7B O 0.39126(15) -0.3732(3) 0.03299(12)
O7A O -0.60874(15) -0.1268(3) -0.46701(12)
O7C O 0.60874(15) 0.1268(3) 0.46701(12)
loop_
_geom_bond_atom_site_label_1
_geom_bond_atom_site_label_2
_geom_bond_site_symmetry_1
_geom_bond_site_symmetry_2
Mn1 N1 1_555 1_555
C1 C2 1_555 1_555
C2 H1 1_555 1_555
H2 C2 1_555 1_555
C3 C4 1_555 1_555
C4 H3 1_555 1_555
C5 C4 1_555 1_555
H4 C5 1_555 1_555
C6 C5 1_555 1_555
H5 C6 1_555 1_555
C7 C6 1_555 1_555
C8 C3 1_555 1_555
H6 C8 1_555 1_555
C9 C7 1_555 1_555
H7 C9 1_555 1_555
C10 C9 1_555 1_555
H8 C10 1_555 1_555
C11 C10 1_555 1_555
C12 H9 1_555 1_555
C13 C12 1_555 1_555
H10 C13 1_555 1_555
C14 C13 1_555 1_555
C15 C14 1_555 1_555
H11 C15 1_555 1_555
C16 C15 1_555 1_555
H12 C16 1_555 1_555
N1 C12 1_555 1_555
O1 Mn1 1_555 1_555
O2 Mn1 1_555 1_555
H13 O2 1_555 1_555
H14 O2 1_555 1_555
O3 C1 1_555 1_555
O4 Mn1 1_555 1_555
H15 O4 1_555 1_555
H16 O4 1_555 1_555
O5 C2 1_555 1_555
O6 C11 1_555 1_555
O7 C11 1_555 1_555
Mn1B N1B 1_555 1_555
Mn1A O6B 1_555 1_555
Mn1C O6 1_555 1_555
C1B C2B 1_555 1_555
C2B H1B 1_555 1_555
H2B C2B 1_555 1_555
C3B C4B 1_555 1_555
C4B H3B 1_555 1_555
C5B C4B 1_555 1_555
H4B C5B 1_555 1_555
C6B C5B 1_555 1_555
H5B C6B 1_555 1_555
C7B C6B 1_555 1_555
C8B C3B 1_555 1_555
H6B C8B 1_555 1_555
C9B C7B 1_555 1_555
H7B C9B 1_555 1_555
C10B C9B 1_555 1_555
H8B C10B 1_555 1_555
C11B C10B 1_555 1_555
C12B H9B 1_555 1_555
C13B C12B 1_555 1_555
H10B C13B 1_555 1_555
C14B C14 1_555 1_555
C15B C14B 1_555 1_555
H11B C15B 1_555 1_555
C16B C15B 1_555 1_555
H12B C16B 1_555 1_555
N1B C12B 1_555 1_555
O1B Mn1B 1_555 1_555
O2B Mn1B 1_555 1_555
H13B O2B 1_555 1_555
H14B O2B 1_555 1_555
O3B C1B 1_555 1_555
O4B Mn1B 1_555 1_555
H15B O4B 1_555 1_555
H16B O4B 1_555 1_555
O5B C2B 1_555 1_555
O6B C11B 1_555 1_555
O6A Mn1B 1_555 1_555
O6C Mn1 1_555 1_555
O7B Mn1A 1_555 1_555
O7A Mn1B 1_555 1_555
O7C Mn1 1_555 1_555
C1 O1 1_555 1_555
C3 O5 1_555 1_555
C7 C8 1_555 1_555
C16 N1 1_555 1_555
O7 Mn1C 1_555 1_555
C1B O1B 1_555 1_555
C3B O5B 1_555 1_555
C7B C8B 1_555 1_555
C11B O7B 1_555 1_555
C13B C14B 1_555 1_555
C16B N1B 1_555 1_555

#END
