
#######################################################################
#
#                 Cambridge Crystallographic Data Centre
#                                CCDC 
#
#######################################################################
#
# If this CIF has been generated from an entry in the Cambridge 
# Structural Database, then it will include bibliographic, chemical, 
# crystal, experimental, refinement or atomic coordinate data resulting 
# from the CCDC's data processing and validation procedures.
#
#######################################################################

data_OKUVEW
_symmetry_cell_setting           triclinic
_symmetry_space_group_name_H-M   'P -1'
_symmetry_Int_Tables_number      2
_space_group_name_Hall           '-P 1'
loop_
_symmetry_equiv_pos_site_id
_symmetry_equiv_pos_as_xyz
1 x,y,z
2 -x,-y,-z
_cell_length_a                   7.5213(12)
_cell_length_b                   9.5403(15)
_cell_length_c                   15.238(2)
_cell_angle_alpha                73.893(2)
_cell_angle_beta                 79.037(2)
_cell_angle_gamma                81.934(2)
_cell_volume                     1026.86
loop_
_atom_site_label
_atom_site_type_symbol
_atom_site_fract_x
_atom_site_fract_y
_atom_site_fract_z
Cd1 Cd 0.5000 0.5000 0.0000
Cd2 Cd 0.84792(5) 0.42859(4) 0.25236(3)
C1 C 0.4005(8) 1.0326(6) 0.1031(4)
O1 O 0.5346(6) 0.5158(4) 0.1460(3)
N1 N 0.8183(6) 0.4436(5) 0.4084(3)
C2 C 0.1699(8) 0.9032(6) 0.0778(4)
H1 H 0.0594 0.9053 0.0583
C3 C 0.5464(7) 0.6257(6) 0.1740(4)
C4 C 0.1711(7) 0.6341(5) 0.1213(3)
C5 C 1.0393(7) 0.2330(6) 0.4233(4)
O2 O 0.6173(6) 0.2707(5) 0.3021(3)
N2 N 1.0477(6) 0.2462(5) 0.3318(3)
C6 C 1.1511(7) 0.1227(6) 0.4777(4)
C7 C 0.4305(7) 0.7654(6) 0.1409(4)
C8 C 0.7808(8) 0.4357(6) 0.5949(4)
H2 H 0.7664 0.4333 0.6573
C9 C 0.7073(7) 0.5428(6) 0.4443(4)
H3 H 0.6417 0.6158 0.4054
C10 C 0.6854(8) 0.5419(7) 0.5363(4)
H4 H 0.6063 0.6129 0.5585
C11 C 0.4930(8) 0.8981(6) 0.1373(4)
H5 H 0.6012 0.8962 0.1588
O3 O 0.9431(8) 0.3383(6) 0.1260(3)
C12 C 1.2725(8) 0.0297(6) 0.4333(4)
H6 H 1.3499 -0.0415 0.4663
C13 C 1.1622(8) 0.1539(6) 0.2919(4)
H7 H 1.1664 0.1629 0.2293
O4 O 0.3934(6) 1.2869(4) 0.0534(3)
C14 C 0.2367(8) 1.0339(6) 0.0725(4)
H8 H 0.1722 1.1226 0.0486
C15 C 0.4764(9) 1.1728(6) 0.0976(4)
C16 C 1.2772(8) 0.0433(7) 0.3414(4)
H9 H 1.3556 -0.0198 0.3117
N3 N 1.2240(7) 0.0262(5) 0.6405(3)
H10 H 1.3044 -0.0456 0.6347
O5 O 0.6517(6) 0.6274(4) 0.2281(3)
C17 C 0.9141(7) 0.3377(6) 0.4649(4)
O6 O 0.6106(7) 1.1689(5) 0.1343(3)
C18 C 1.0160(8) 0.2192(6) 0.6108(4)
C19 C 1.1344(8) 0.1181(6) 0.5734(4)
C20 C 1.1628(9) 0.0697(6) 0.7146(4)
H11 H 1.2023 0.0254 0.7710
N4 N 1.0350(7) 0.1865(5) 0.7026(3)
C21 C 0.2653(7) 0.7683(5) 0.1117(3)
C22 C 0.9007(7) 0.3305(6) 0.5596(4)
O7 O 0.1907(5) 0.5745(4) 0.0560(3)
O8 O 0.0694(5) 0.5941(4) 0.1985(3)
H12 H 0.863(7) 0.312(7) 0.105(4)
H13 H 1.003(8) 0.402(6) 0.089(3)
H14 H 0.632(9) 0.283(6) 0.2451(9)
H15 H 0.648(10) 0.185(3) 0.329(3)
Cd1_2 Cd 0.5000 -0.5000 0.0000
Cd1_3 Cd 0.5000 1.5000 0.0000
Cd2A Cd 0.15208(5) 0.57141(4) -0.25236(3)
Cd2_2 Cd -0.15208(5) 0.42859(4) 0.25236(3)
Cd2A_2 Cd 1.15208(5) 0.57141(4) -0.25236(3)
C1A C 0.5995(8) -0.0326(6) -0.1031(4)
O1A O 0.4654(6) 0.4842(4) -0.1460(3)
N1A N 0.1817(6) 0.5564(5) -0.4084(3)
C2A C 0.8301(8) 0.0968(6) -0.0778(4)
H1A H 0.9406 0.0947 -0.0583
C3A C 0.4536(7) 0.3743(6) -0.1740(4)
C4A C 0.8289(7) 0.3659(5) -0.1213(3)
C5A C -0.0393(7) 0.7670(6) -0.4233(4)
O2A O 0.3827(6) 0.7293(5) -0.3021(3)
N2A N -0.0477(6) 0.7538(5) -0.3318(3)
C6A C -0.1511(7) 0.8773(6) -0.4777(4)
C7A C 0.5695(7) 0.2346(6) -0.1409(4)
C8A C 0.2192(8) 0.5643(6) -0.5949(4)
H2A H 0.2336 0.5667 -0.6573
C9A C 0.2927(7) 0.4572(6) -0.4443(4)
H3A H 0.3583 0.3842 -0.4054
C10A C 0.3146(8) 0.4581(7) -0.5363(4)
H4A H 0.3937 0.3871 -0.5585
C11A C 0.5070(8) 0.1019(6) -0.1373(4)
H5A H 0.3988 0.1038 -0.1588
O3A O 0.0569(8) 0.6617(6) -0.1260(3)
C12A C -0.2725(8) 0.9703(6) -0.4333(4)
H6A H -0.3499 1.0415 -0.4663
C13A C -0.1622(8) 0.8461(6) -0.2919(4)
H7A H -0.1664 0.8371 -0.2293
O4A O 0.6066(6) -0.2869(4) -0.0534(3)
O4_2 O 0.3934(6) 0.2869(4) 0.0534(3)
O4A_2 O 0.6066(6) 0.7131(4) -0.0534(3)
C14A C 0.7633(8) -0.0339(6) -0.0725(4)
H8A H 0.8278 -0.1226 -0.0486
C15A C 0.5236(9) -0.1728(6) -0.0976(4)
C16A C -0.2772(8) 0.9567(7) -0.3414(4)
H9A H -0.3556 1.0198 -0.3117
N3A N -0.2240(7) 0.9738(5) -0.6405(3)
H10A H -0.3044 1.0456 -0.6347
O5A O 0.3483(6) 0.3726(4) -0.2281(3)
C17A C 0.0859(7) 0.6623(6) -0.4649(4)
O6A O 0.3894(7) -0.1689(5) -0.1343(3)
C18A C -0.0160(8) 0.7808(6) -0.6108(4)
C19A C -0.1344(8) 0.8819(6) -0.5734(4)
C20A C -0.1628(9) 0.9303(6) -0.7146(4)
H11A H -0.2023 0.9746 -0.7710
N4A N -0.0350(7) 0.8135(5) -0.7026(3)
C21A C 0.7347(7) 0.2317(5) -0.1117(3)
C22A C 0.0993(7) 0.6695(6) -0.5596(4)
O7A O 0.8093(5) 0.4255(4) -0.0560(3)
O8A O 0.9306(5) 0.4059(4) -0.1985(3)
O8_2 O 1.0694(5) 0.5941(4) 0.1985(3)
O8A_2 O -0.0694(5) 0.4059(4) -0.1985(3)
H12A H 0.137(7) 0.688(7) -0.105(4)
H13A H -0.003(8) 0.598(6) -0.089(3)
H14A H 0.368(9) 0.717(6) -0.2451(9)
H15A H 0.352(10) 0.815(3) -0.329(3)
loop_
_geom_bond_atom_site_label_1
_geom_bond_atom_site_label_2
_geom_bond_site_symmetry_1
_geom_bond_site_symmetry_2
Cd1 O1 1_555 1_555
Cd2 N1 1_555 1_555
C1 C11 1_555 1_555
O1 C3 1_555 1_555
N1 C9 1_555 1_555
C2 H1 1_555 1_555
C3 C7 1_555 1_555
C4 C21 1_555 1_555
C5 N2 1_555 1_555
O2 Cd2 1_555 1_555
N2 Cd2 1_555 1_555
C6 C5 1_555 1_555
C7 C11 1_555 1_555
C8 H2 1_555 1_555
C9 H3 1_555 1_555
C10 C8 1_555 1_555
H4 C10 1_555 1_555
C11 H5 1_555 1_555
O3 Cd2 1_555 1_555
C12 C6 1_555 1_555
H6 C12 1_555 1_555
C13 N2 1_555 1_555
H7 C13 1_555 1_555
O4 C15 1_555 1_555
C14 C1 1_555 1_555
H8 C14 1_555 1_555
C15 C1 1_555 1_555
C16 C12 1_555 1_555
H9 C16 1_555 1_555
N3 H10 1_555 1_555
O5 Cd2 1_555 1_555
C17 N1 1_555 1_555
O6 C15 1_555 1_555
C18 C19 1_555 1_555
C19 C6 1_555 1_555
C20 N3 1_555 1_555
H11 C20 1_555 1_555
N4 C18 1_555 1_555
C21 C2 1_555 1_555
C22 C8 1_555 1_555
O7 Cd1 1_555 1_555
O8 C4 1_555 1_555
H12 O3 1_555 1_555
H13 O3 1_555 1_555
H14 O2 1_555 1_555
H15 O2 1_555 1_555
Cd1_2 O4A 1_555 1_555
Cd1_3 O4 1_555 1_555
Cd2A N1A 1_555 1_555
Cd2_2 O8 1_555 1_555
Cd2A_2 O8A 1_555 1_555
C1A C11A 1_555 1_555
O1A Cd1 1_555 1_555
N1A C9A 1_555 1_555
C2A H1A 1_555 1_555
C3A O1A 1_555 1_555
C4A C21A 1_555 1_555
C5A N2A 1_555 1_555
O2A Cd2A 1_555 1_555
N2A Cd2A 1_555 1_555
C6A C5A 1_555 1_555
C7A C3A 1_555 1_555
C8A H2A 1_555 1_555
C9A H3A 1_555 1_555
C10A C8A 1_555 1_555
H4A C10A 1_555 1_555
C11A C7A 1_555 1_555
H5A C11A 1_555 1_555
O3A Cd2A 1_555 1_555
C12A C6A 1_555 1_555
H6A C12A 1_555 1_555
C13A N2A 1_555 1_555
H7A C13A 1_555 1_555
O4A C15A 1_555 1_555
O4_2 Cd1 1_555 1_555
O4A_2 Cd1 1_555 1_555
C14A C1A 1_555 1_555
H8A C14A 1_555 1_555
C15A C1A 1_555 1_555
C16A C12A 1_555 1_555
H9A C16A 1_555 1_555
N3A H10A 1_555 1_555
O5A Cd2A 1_555 1_555
C17A N1A 1_555 1_555
O6A C15A 1_555 1_555
C18A C19A 1_555 1_555
C19A C6A 1_555 1_555
C20A N3A 1_555 1_555
H11A C20A 1_555 1_555
N4A C18A 1_555 1_555
C21A C2A 1_555 1_555
C22A C8A 1_555 1_555
O7A Cd1 1_555 1_555
O8A C4A 1_555 1_555
O8_2 Cd2 1_555 1_555
O8A_2 Cd2A 1_555 1_555
H12A O3A 1_555 1_555
H13A O3A 1_555 1_555
H14A O2A 1_555 1_555
H15A O2A 1_555 1_555
C2 C14 1_555 1_555
C3 O5 1_555 1_555
C4 O7 1_555 1_555
C5 C17 1_555 1_555
C7 C21 1_555 1_555
C9 C10 1_555 1_555
C13 C16 1_555 1_555
N3 C19 1_555 1_555
C17 C22 1_555 1_555
C18 C22 1_555 1_555
C20 N4 1_555 1_555
C2A C14A 1_555 1_555
C3A O5A 1_555 1_555
C4A O7A 1_555 1_555
C5A C17A 1_555 1_555
C7A C21A 1_555 1_555
C9A C10A 1_555 1_555
C13A C16A 1_555 1_555
N3A C19A 1_555 1_555
C17A C22A 1_555 1_555
C18A C22A 1_555 1_555
C20A N4A 1_555 1_555

#END
