
#######################################################################
#
#                 Cambridge Crystallographic Data Centre
#                                CCDC 
#
#######################################################################
#
# If this CIF has been generated from an entry in the Cambridge 
# Structural Database, then it will include bibliographic, chemical, 
# crystal, experimental, refinement or atomic coordinate data resulting 
# from the CCDC's data processing and validation procedures.
#
#######################################################################

data_OKUVOG
_symmetry_cell_setting           monoclinic
_symmetry_space_group_name_H-M   'P 21/c'
_symmetry_Int_Tables_number      14
_space_group_name_Hall           '-P 2ybc'
loop_
_symmetry_equiv_pos_site_id
_symmetry_equiv_pos_as_xyz
1 x,y,z
2 -x,1/2+y,1/2-z
3 -x,-y,-z
4 x,1/2-y,1/2+z
_cell_length_a                   7.2116(13)
_cell_length_b                   16.029(3)
_cell_length_c                   17.056(3)
_cell_angle_alpha                90
_cell_angle_beta                 98.882(2)
_cell_angle_gamma                90
_cell_volume                     1947.94
loop_
_atom_site_label
_atom_site_type_symbol
_atom_site_fract_x
_atom_site_fract_y
_atom_site_fract_z
N1 N 0.1350(11) 0.7575(5) 0.6339(4)
C1 C 0.1524(11) 0.7732(5) 0.7149(5)
C2 C -0.0017(12) 0.8127(5) 0.7331(5)
O1 O 0.3591(11) 0.3407(4) 1.4174(4)
O2 O 0.6018(12) 0.4157(5) 1.4022(5)
C3 C 0.4342(15) 0.4073(6) 1.4011(5)
Cd1 Cd 0.34857(9) 0.77389(4) 1.04494(3)
C4 C 0.4794(12) 0.7191(5) 0.7612(5)
H1 H 0.4976 0.7067 0.7097
C5 C 0.2905(12) 0.7724(4) 0.8551(5)
N2 N 0.4258(10) 0.7554(5) 0.9145(4)
N3 N 0.1088(11) 0.8304(4) 0.9491(4)
O3 O 0.2551(10) 0.6253(4) 1.0133(4)
C6 C 0.5810(13) 0.7222(5) 0.8996(5)
H2 H 0.6739 0.7103 0.9423
O4 O 0.5046(9) 0.6507(4) 1.1006(4)
C7 C 0.3837(12) 0.6024(6) 1.0649(5)
C8 C -0.1703(14) 0.8860(6) 0.8321(6)
H3 H -0.2656 0.9054 0.7934
N4 N -0.1212(10) 0.8221(5) 0.6602(4)
H4 H -0.2299 0.8453 0.6526
C9 C -0.0246(12) 0.8383(5) 0.8095(5)
C10 C -0.0312(13) 0.7873(6) 0.6048(5)
H5 H -0.0816 0.7847 0.5512
C11 C 0.3091(12) 0.7546(5) 0.7755(4)
C12 C 0.1204(12) 0.8135(5) 0.8723(5)
C13 C 0.3901(16) 0.5097(5) 1.0879(6)
H6 H 0.5176 0.4946 1.1101
H7 H 0.3530 0.4762 1.0407
C14 C -0.0279(16) 0.4408(7) 1.1802(7)
H8 H -0.1498 0.4224 1.1634
C15 C 0.0393(14) 0.4458(6) 1.2607(6)
H9 H -0.0354 0.4294 1.2978
C16 C 0.6169(12) 0.7032(5) 0.8232(5)
H10 H 0.7312 0.6805 0.8152
C17 C 0.3297(13) 0.4979(5) 1.2275(5)
H11 H 0.4512 0.5176 1.2429
C18 C 0.2606(14) 0.4912(5) 1.1480(5)
C19 C 0.0810(15) 0.4621(6) 1.1261(6)
H12 H 0.0334 0.4570 1.0725
C20 C -0.1749(16) 0.9041(6) 0.9080(6)
H13 H -0.2721 0.9361 0.9221
C21 C 0.2217(14) 0.4760(5) 1.2856(5)
C22 C -0.0314(15) 0.8744(5) 0.9667(6)
H14 H -0.0366 0.8864 1.0197
C23 C 0.3035(15) 0.4811(6) 1.3726(6)
H15 H 0.2018 0.4828 1.4037
H16 H 0.3736 0.5328 1.3820
N1C N 0.1350(11) 0.7425(5) 1.1339(4)
O1A O 0.6409(11) 0.8407(4) 1.0826(4)
O2A O 0.3982(12) 0.9157(5) 1.0978(5)
Cd1C Cd 0.34857(9) 0.72611(4) 0.54494(3)
Cd1A Cd 0.65143(9) 0.27389(4) 1.45506(3)
loop_
_geom_bond_atom_site_label_1
_geom_bond_atom_site_label_2
_geom_bond_site_symmetry_1
_geom_bond_site_symmetry_2
N1 C1 1_555 1_555
C1 C2 1_555 1_555
C2 N4 1_555 1_555
O1 C3 1_555 1_555
O2 C3 1_555 1_555
C3 C23 1_555 1_555
Cd1 N2 1_555 1_555
C4 H1 1_555 1_555
C5 N2 1_555 1_555
N2 C6 1_555 1_555
N3 Cd1 1_555 1_555
O3 Cd1 1_555 1_555
C6 H2 1_555 1_555
O4 Cd1 1_555 1_555
C7 O3 1_555 1_555
C8 H3 1_555 1_555
N4 H4 1_555 1_555
C9 C2 1_555 1_555
C10 N1 1_555 1_555
H5 C10 1_555 1_555
C11 C1 1_555 1_555
C12 C5 1_555 1_555
C13 C7 1_555 1_555
H6 C13 1_555 1_555
H7 C13 1_555 1_555
C14 H8 1_555 1_555
C15 C14 1_555 1_555
H9 C15 1_555 1_555
C16 C4 1_555 1_555
H10 C16 1_555 1_555
C17 H11 1_555 1_555
C18 C13 1_555 1_555
C19 C14 1_555 1_555
H12 C19 1_555 1_555
C20 C8 1_555 1_555
H13 C20 1_555 1_555
C21 C15 1_555 1_555
C22 N3 1_555 1_555
H14 C22 1_555 1_555
C23 C21 1_555 1_555
H15 C23 1_555 1_555
H16 C23 1_555 1_555
N1C Cd1 1_555 1_555
O1A Cd1 1_555 1_555
O2A Cd1 1_555 1_555
Cd1C N1 1_555 1_555
Cd1A O1 1_555 1_555
O2 Cd1A 1_555 1_555
C4 C11 1_555 1_555
C5 C11 1_555 1_555
N3 C12 1_555 1_555
C6 C16 1_555 1_555
O4 C7 1_555 1_555
C8 C9 1_555 1_555
N4 C10 1_555 1_555
C9 C12 1_555 1_555
C17 C18 1_555 1_555
C17 C21 1_555 1_555
C18 C19 1_555 1_555
C20 C22 1_555 1_555

#END
