
#######################################################################
#
#                 Cambridge Crystallographic Data Centre
#                                CCDC 
#
#######################################################################
#
# If this CIF has been generated from an entry in the Cambridge 
# Structural Database, then it will include bibliographic, chemical, 
# crystal, experimental, refinement or atomic coordinate data resulting 
# from the CCDC's data processing and validation procedures.
#
#######################################################################

data_OKUWUN
_symmetry_cell_setting           monoclinic
_symmetry_space_group_name_H-M   'C 2/c'
_symmetry_Int_Tables_number      15
_space_group_name_Hall           '-C 2yn'
loop_
_symmetry_equiv_pos_site_id
_symmetry_equiv_pos_as_xyz
1 x,y,z
2 -x,y,1/2-z
3 1/2+x,1/2+y,z
4 1/2-x,1/2+y,1/2-z
5 -x,-y,-z
6 x,-y,1/2+z
7 1/2-x,1/2-y,-z
8 1/2+x,1/2-y,1/2+z
_cell_length_a                   19.2559(8)
_cell_length_b                   15.4069(8)
_cell_length_c                   10.7376(7)
_cell_angle_alpha                90
_cell_angle_beta                 103.3470(9)
_cell_angle_gamma                90
_cell_volume                     3099.52
loop_
_atom_site_label
_atom_site_type_symbol
_atom_site_fract_x
_atom_site_fract_y
_atom_site_fract_z
Pb1 Pb 0.63388(3) 0.91315(5) 0.44029(6)
Pb2 Pb 0.5000 1.08350(7) 0.2500
As1 As 0.55741(8) 1.10045(11) 0.58875(16)
S1 S 0.7909(3) 1.4061(4) 0.7318(5)
C1 C 0.6252(9) 1.1898(12) 0.6300(18)
C2 C 0.6984(10) 1.1759(15) 0.632(3)
H1 H 0.7137 1.1214 0.6125
C3 C 0.7465(10) 1.2420(15) 0.663(3)
H2 H 0.7942 1.2320 0.6635
C4 C 0.7260(9) 1.3214(12) 0.6923(16)
C5 C 0.6591(10) 1.3367(15) 0.690(3)
H3 H 0.6457 1.3927 0.7069
C6 C 0.6070(11) 1.2719(19) 0.664(3)
H4 H 0.5605 1.2838 0.6700
O1 O 0.5716(6) 1.0393(8) 0.4648(11)
O2 O 0.5701(6) 1.0363(8) 0.7194(10)
O3 O 0.4778(6) 1.1470(8) 0.5462(12)
O4 O 0.7831(7) 1.4581(8) 0.6168(13)
O5 O 0.7735(9) 1.4537(10) 0.8359(14)
O6 O 0.8588(7) 1.3652(11) 0.7726(16)
Pb1A Pb 0.36612(3) 0.91315(5) 0.05971(6)
Pb1E Pb 0.63388(3) 1.08685(5) 0.94029(6)
Pb1D Pb 0.36612(3) 1.08685(5) 0.55971(6)
Pb1F Pb 0.86612(3) 1.58685(5) 0.55971(6)
Pb1C Pb 0.86612(3) 1.41315(5) 1.05971(6)
Pb1D_2 Pb 0.36612(3) 1.08685(5) -0.44029(6)
Pb1E_2 Pb 0.63388(3) 1.08685(5) -0.05971(6)
Pb1G Pb 0.13388(3) 1.58685(5) -0.05971(6)
Pb1B Pb 0.13388(3) 1.41315(5) -0.55971(6)
Pb2D Pb 0.5000 0.91650(7) 0.7500
Pb2D_2 Pb 0.5000 0.91650(7) -0.2500
As1A As 0.44259(8) 1.10045(11) -0.08875(16)
S1A S 0.2091(3) 1.4061(4) -0.2318(5)
C1A C 0.3748(9) 1.1898(12) -0.1300(18)
C2A C 0.3016(10) 1.1759(15) -0.132(3)
H1A H 0.2863 1.1214 -0.1125
C3A C 0.2535(10) 1.2420(15) -0.163(3)
H2A H 0.2058 1.2320 -0.1635
C4A C 0.2740(9) 1.3214(12) -0.1923(16)
C5A C 0.3409(10) 1.3367(15) -0.190(3)
H3A H 0.3543 1.3927 -0.2069
C6A C 0.3930(11) 1.2719(19) -0.164(3)
H4A H 0.4395 1.2838 -0.1700
O1A O 0.4284(6) 1.0393(8) 0.0352(11)
O2A O 0.4299(6) 1.0363(8) -0.2194(10)
O2E O 0.5701(6) 0.9637(8) 0.2194(10)
O2D O 0.4299(6) 0.9637(8) 0.2806(10)
O3A O 0.5222(6) 1.1470(8) -0.0462(12)
O3D O 0.5222(6) 0.8530(8) 0.4538(12)
O3E O 0.4778(6) 0.8530(8) 0.0462(12)
O4A O 0.2169(7) 1.4581(8) -0.1168(13)
O4F O 0.7169(7) 1.0419(8) 0.3832(13)
O4G O 0.2831(7) 1.0419(8) 0.1168(13)
O5A O 0.2265(9) 1.4537(10) -0.3359(14)
O5C O 0.7265(9) 0.9537(10) 0.6641(14)
O5B O 0.2735(9) 0.9537(10) -0.1641(14)
O6A O 0.1412(7) 1.3652(11) -0.2726(16)
O7 O 0.7500 0.7500 0.5000
O9 O 0.648(2) 0.733(3) 0.480(4)
O8? O 0.710(2) 0.660(5) 0.542(5)
loop_
_geom_bond_atom_site_label_1
_geom_bond_atom_site_label_2
_geom_bond_site_symmetry_1
_geom_bond_site_symmetry_2
Pb1 O1 1_555 1_555
Pb2 O1 1_555 1_555
As1 C1 1_555 1_555
S1 C4 1_555 1_555
C1 C2 1_555 1_555
C2 H1 1_555 1_555
C3 C2 1_555 1_555
H2 C3 1_555 1_555
C4 C3 1_555 1_555
C5 C4 1_555 1_555
H3 C5 1_555 1_555
C6 C1 1_555 1_555
H4 C6 1_555 1_555
O1 As1 1_555 1_555
O2 As1 1_555 1_555
O3 As1 1_555 1_555
O4 S1 1_555 1_555
O5 S1 1_555 1_555
O6 S1 1_555 1_555
Pb1A O1A 1_555 1_555
Pb1E O2 1_555 1_555
Pb1D O3 1_555 1_555
Pb1F O4 1_555 1_555
Pb1C O5 1_555 1_555
Pb1D_2 O2A 1_555 1_555
Pb1E_2 O3A 1_555 1_555
Pb1G O4A 1_555 1_555
Pb1B O5A 1_555 1_555
Pb2D O2 1_555 1_555
Pb2D_2 O2A 1_555 1_555
As1A C1A 1_555 1_555
S1A C4A 1_555 1_555
C1A C2A 1_555 1_555
C2A H1A 1_555 1_555
C3A C2A 1_555 1_555
H2A C3A 1_555 1_555
C4A C3A 1_555 1_555
C5A C4A 1_555 1_555
H3A C5A 1_555 1_555
C6A C1A 1_555 1_555
H4A C6A 1_555 1_555
O1A Pb2 1_555 1_555
O2A As1A 1_555 1_555
O2E Pb1 1_555 1_555
O2D Pb2 1_555 1_555
O3A As1A 1_555 1_555
O3D Pb1 1_555 1_555
O3E Pb1A 1_555 1_555
O4A S1A 1_555 1_555
O4F Pb1 1_555 1_555
O4G Pb1A 1_555 1_555
O5A S1A 1_555 1_555
O5C Pb1 1_555 1_555
O5B Pb1A 1_555 1_555
O6A S1A 1_555 1_555
Pb2 O2E 1_555 1_555
C5 C6 1_555 1_555
Pb1A O2D 1_555 1_555
As1A O1A 1_555 1_555
C5A C6A 1_555 1_555

#END
