
#######################################################################
#
#                 Cambridge Crystallographic Data Centre
#                                CCDC 
#
#######################################################################
#
# If this CIF has been generated from an entry in the Cambridge 
# Structural Database, then it will include bibliographic, chemical, 
# crystal, experimental, refinement or atomic coordinate data resulting 
# from the CCDC's data processing and validation procedures.
#
#######################################################################

data_OKUXAU
_symmetry_cell_setting           triclinic
_symmetry_space_group_name_H-M   'P -1'
_symmetry_Int_Tables_number      2
_space_group_name_Hall           '-P 1'
loop_
_symmetry_equiv_pos_site_id
_symmetry_equiv_pos_as_xyz
1 x,y,z
2 -x,-y,-z
_cell_length_a                   7.235(3)
_cell_length_b                   11.312(6)
_cell_length_c                   13.252(7)
_cell_angle_alpha                89.627(12)
_cell_angle_beta                 82.503(13)
_cell_angle_gamma                75.133(11)
_cell_volume                     1038.89
loop_
_atom_site_label
_atom_site_type_symbol
_atom_site_fract_x
_atom_site_fract_y
_atom_site_fract_z
Pb1 Pb 0.84895(4) 0.56231(2) 0.870884(19)
As1 As 0.38184(10) 0.47489(6) 0.86590(5)
S1 S 0.7193(4) -0.10755(18) 0.79169(18)
N1 N 0.8291(10) 0.4992(6) 0.6876(5)
N2 N 0.9519(8) 0.3412(5) 0.8316(5)
C1 C 0.4909(10) 0.3033(6) 0.8397(5)
C2 C 0.5445(11) 0.2300(6) 0.9222(6)
H1 H 0.5348 0.2649 0.9866
C3 C 0.6117(12) 0.1050(6) 0.9062(6)
H2 H 0.6438 0.0550 0.9606
C4 C 0.6317(11) 0.0541(6) 0.8098(6)
C5 C 0.5817(12) 0.1278(7) 0.7285(6)
H3 H 0.5968 0.0932 0.6635
C6 C 0.5101(11) 0.2512(6) 0.7441(6)
H4 H 0.4741 0.3004 0.6897
C7 C 0.7476(14) 0.5801(10) 0.6219(7)
H5 H 0.7069 0.6627 0.6407
C8 C 0.7229(16) 0.5426(12) 0.5260(8)
H6 H 0.6625 0.6002 0.4824
C9 C 0.784(2) 0.4263(14) 0.4959(8)
H7 H 0.7683 0.4021 0.4313
C10 C 0.8715(16) 0.3414(11) 0.5618(7)
H8 H 0.9167 0.2593 0.5418
C11 C 0.8915(12) 0.3801(8) 0.6592(6)
C12 C 0.9724(11) 0.2961(7) 0.7367(6)
C13 C 1.0606(14) 0.1740(8) 0.7131(8)
H9 H 1.0770 0.1439 0.6465
C14 C 1.1242(14) 0.0974(8) 0.7906(10)
H10 H 1.1847 0.0152 0.7762
C15 C 1.0977(13) 0.1429(8) 0.8877(9)
H11 H 1.1380 0.0924 0.9405
C16 C 1.0111(11) 0.2638(7) 0.9058(7)
H12 H 0.9917 0.2946 0.9723
O1 O 0.2989(7) 0.5211(5) 0.7514(4)
H13 H 0.2842 0.5951 0.7465
O2 O 0.5313(7) 0.5552(4) 0.8910(4)
O3 O 0.1853(7) 0.4974(4) 0.9525(3)
O4 O 0.7827(14) -0.1313(6) 0.6858(5)
O5 O 0.5605(11) -0.1560(6) 0.8289(6)
O6 O 0.8771(12) -0.1445(6) 0.8537(6)
Pb1_2 Pb -0.15105(4) 0.56231(2) 0.870884(19)
Pb1A Pb 0.15105(4) 0.43769(2) 1.129116(19)
O3_2 O 1.1853(7) 0.4974(4) 0.9525(3)
O3A O 0.8147(7) 0.5026(4) 1.0475(3)
O7 O 0.7412(11) 0.2404(5) 0.2505(6)
H14 H 0.7912 0.1848 0.2049
H15 H 0.6401 0.2260 0.2827
O8 O 0.502(3) 0.1201(13) 0.4669(10)
H16 H 0.6239 0.1095 0.4596
H17 H 0.4753 0.0596 0.4401
H18? H 0.7988 0.0535 0.4733
H19? H 0.9958 0.0349 0.4443
O9? O 0.886(3) 0.0845(12) 0.4433(9)
loop_
_geom_bond_atom_site_label_1
_geom_bond_atom_site_label_2
_geom_bond_site_symmetry_1
_geom_bond_site_symmetry_2
Pb1 N1 1_555 1_555
As1 C1 1_555 1_555
S1 C4 1_555 1_555
N1 C7 1_555 1_555
N2 Pb1 1_555 1_555
C1 C2 1_555 1_555
C2 H1 1_555 1_555
C3 C2 1_555 1_555
H2 C3 1_555 1_555
C4 C3 1_555 1_555
C5 C4 1_555 1_555
H3 C5 1_555 1_555
C6 C1 1_555 1_555
H4 C6 1_555 1_555
C7 H5 1_555 1_555
C8 C7 1_555 1_555
H6 C8 1_555 1_555
C9 C8 1_555 1_555
H7 C9 1_555 1_555
C10 C9 1_555 1_555
H8 C10 1_555 1_555
C11 N1 1_555 1_555
C12 N2 1_555 1_555
C13 C12 1_555 1_555
H9 C13 1_555 1_555
C14 C13 1_555 1_555
H10 C14 1_555 1_555
C15 C14 1_555 1_555
H11 C15 1_555 1_555
C16 N2 1_555 1_555
H12 C16 1_555 1_555
O1 As1 1_555 1_555
H13 O1 1_555 1_555
O2 Pb1 1_555 1_555
O3 As1 1_555 1_555
O4 S1 1_555 1_555
O5 S1 1_555 1_555
O6 S1 1_555 1_555
O7 H14 1_555 1_555
H15 O7 1_555 1_555
O8 H16 1_555 1_555
H17 O8 1_555 1_555
Pb1_2 O3 1_555 1_555
Pb1A O3 1_555 1_555
O3_2 Pb1 1_555 1_555
O3A Pb1 1_555 1_555
As1 O2 1_555 1_555
C5 C6 1_555 1_555
C10 C11 1_555 1_555
C11 C12 1_555 1_555
C15 C16 1_555 1_555

#END
