
#######################################################################
#
#                 Cambridge Crystallographic Data Centre
#                                CCDC 
#
#######################################################################
#
# If this CIF has been generated from an entry in the Cambridge 
# Structural Database, then it will include bibliographic, chemical, 
# crystal, experimental, refinement or atomic coordinate data resulting 
# from the CCDC's data processing and validation procedures.
#
#######################################################################

data_OKUYAV
_symmetry_cell_setting           orthorhombic
_symmetry_space_group_name_H-M   'P b a 2'
_symmetry_Int_Tables_number      32
_space_group_name_Hall           'P 2 -2ab'
loop_
_symmetry_equiv_pos_site_id
_symmetry_equiv_pos_as_xyz
1 x,y,z
2 -x,-y,z
3 1/2+x,1/2-y,z
4 1/2-x,1/2+y,z
_cell_length_a                   15.8940(4)
_cell_length_b                   8.4255(2)
_cell_length_c                   12.3941(3)
_cell_angle_alpha                90
_cell_angle_beta                 90
_cell_angle_gamma                90
_cell_volume                     1659.75
loop_
_atom_site_label
_atom_site_type_symbol
_atom_site_fract_x
_atom_site_fract_y
_atom_site_fract_z
Zn1 Zn 0.2414(7) 0.875(1) 0.849(1)
Zn2 Zn 0.2430(7) 0.866(1) 1.134(1)
P1 P 0.3846(7) 1.125(1) 0.776(1)
P2 P 0.3832(7) 1.105(2) 1.219(1)
P3 P 0.6557(4) 1.354(1) 1.000
O1 O 0.344(1) 0.961(2) 0.779(2)
O2 O 0.665(1) 1.451(3) 0.897(1)
O3 O 0.348(1) 0.939(2) 1.205(2)
O4 O 0.668(1) 1.453(2) 1.102(1)
O5 O 0.7199(8) 1.219(1) 0.991(2)
O6 O 0.322(1) 1.254(2) 0.748(2)
O7 O 0.315(1) 1.230(2) 1.235(2)
O8 O 0.457(1) 1.122(3) 0.696(2)
O9 O 0.440(1) 1.092(2) 1.320(2)
C1 C 0.4024(7) 1.106(2) 0.997(1)
C2 C 0.5495(6) 1.286(2) 1.000(1)
C3 C 0.509(1) 1.255(4) 0.902(1)
C4 C 0.4326(8) 1.174(2) 0.901(1)
C5 C 0.511(1) 1.243(4) 1.097(1)
C6 C 0.4367(9) 1.153(3) 1.095(1)
H1 H 0.528(4) 1.29(1) 1.162(2)
H2 H 0.536(4) 1.28(1) 0.837(1)
H3 H 0.368(3) 1.017(5) 0.993(2)
Zn1B Zn -0.2586(7) 1.625(1) 0.849(1)
Zn1B_2 Zn 0.7414(7) 1.625(1) 0.849(1)
Zn1A Zn 0.7586(7) 1.125(1) 0.849(1)
Zn1C Zn 0.2586(7) 1.375(1) 0.849(1)
Zn1A_2 Zn -0.2414(7) 1.125(1) 0.849(1)
Zn2B Zn -0.2570(7) 1.634(1) 1.134(1)
Zn2B_2 Zn 0.7430(7) 1.634(1) 1.134(1)
Zn2A Zn 0.7570(7) 1.134(1) 1.134(1)
Zn2C Zn 0.2570(7) 1.366(1) 1.134(1)
Zn2A_2 Zn -0.2430(7) 1.134(1) 1.134(1)
P1B P -0.1154(7) 1.375(1) 0.776(1)
P2B P -0.1168(7) 1.395(2) 1.219(1)
P3B P 0.1557(4) 1.146(1) 1.000
O1B O -0.156(1) 1.539(2) 0.779(2)
O2B O 0.165(1) 1.049(3) 0.897(1)
O2_2 O -0.335(1) 1.451(3) 0.897(1)
O3B O -0.152(1) 1.561(2) 1.205(2)
O4B O 0.168(1) 1.047(2) 1.102(1)
O4_2 O -0.332(1) 1.453(2) 1.102(1)
O5B O 0.2199(8) 1.281(1) 0.991(2)
O5A O 0.2801(8) 0.781(1) 0.991(2)
O5C O -0.2199(8) 1.719(1) 0.991(2)
O6B O -0.178(1) 1.246(2) 0.748(2)
O6C O 0.178(1) 0.754(2) 0.748(2)
O6A O -0.322(1) 1.746(2) 0.748(2)
O7B O -0.185(1) 1.270(2) 1.235(2)
O7C O 0.185(1) 0.730(2) 1.235(2)
O7A O -0.315(1) 1.770(2) 1.235(2)
O8B O -0.043(1) 1.378(3) 0.696(2)
O9B O -0.060(1) 1.408(2) 1.320(2)
C1B C -0.0976(7) 1.394(2) 0.997(1)
C2B C 0.0495(6) 1.214(2) 1.000(1)
C3B C 0.009(1) 1.245(4) 0.902(1)
C4B C -0.0674(8) 1.326(2) 0.901(1)
C5B C 0.011(1) 1.257(4) 1.097(1)
C6B C -0.0633(9) 1.347(3) 1.095(1)
H1B H 0.028(4) 1.21(1) 1.162(2)
H2B H 0.036(4) 1.22(1) 0.837(1)
H3B H -0.132(3) 1.483(5) 0.993(2)
O10 O 0.134(1) 0.704(2) 0.515(3)
N1 N 0.2053(5) 0.145(3) 0.498(3)
C7 C 0.0432(6) 0.032(3) 0.496(3)
C8 C 0.076(1) 0.101(3) 0.588(3)
C9 C 0.155(1) 0.171(2) 0.584(3)
C10 C 0.174(1) 0.082(3) 0.406(3)
C11 C 0.093(1) 0.019(3) 0.405(3)
H4 H 0.049(3) 0.09(1) 0.654(3)
H5 H 0.169(3) 0.247(9) 0.635(6)
H6 H 0.203(3) 0.09(1) 0.342(4)
H7 H 0.075(3) -0.04(1) 0.347(5)
N1A N -0.2053(5) -0.145(3) 0.498(3)
C7A C -0.0432(6) -0.032(3) 0.496(3)
C8A C -0.076(1) -0.101(3) 0.588(3)
C9A C -0.155(1) -0.171(2) 0.584(3)
C10A C -0.174(1) -0.082(3) 0.406(3)
C11A C -0.093(1) -0.019(3) 0.405(3)
H4A H -0.049(3) -0.09(1) 0.654(3)
H5A H -0.169(3) -0.247(9) 0.635(6)
H6A H -0.203(3) -0.09(1) 0.342(4)
H7A H -0.075(3) 0.04(1) 0.347(5)
loop_
_geom_bond_atom_site_label_1
_geom_bond_atom_site_label_2
_geom_bond_site_symmetry_1
_geom_bond_site_symmetry_2
Zn1 O1 1_555 1_555
Zn2 O3 1_555 1_555
P1 O1 1_555 1_555
P2 O3 1_555 1_555
P3 O2 1_555 1_555
O2 Zn1B_2 1_555 1_555
O4 P3 1_555 1_555
O5 P3 1_555 1_555
O6 P1 1_555 1_555
O7 P2 1_555 1_555
O8 P1 1_555 1_555
O9 P2 1_555 1_555
C1 C4 1_555 1_555
C2 P3 1_555 1_555
C3 C2 1_555 1_555
C4 P1 1_555 1_555
C5 C2 1_555 1_555
C6 P2 1_555 1_555
H1 C5 1_555 1_555
H2 C3 1_555 1_555
H3 C1 1_555 1_555
N1 C9 1_555 1_555
C7 C8 1_555 1_555
C8 C9 1_555 1_555
C9 H5 1_555 1_555
C10 N1 1_555 1_555
C11 C7 1_555 1_555
H4 C8 1_555 1_555
H6 C10 1_555 1_555
H7 C11 1_555 1_555
Zn1B O1B 1_555 1_555
Zn1A O5 1_555 1_555
Zn1C O6 1_555 1_555
Zn1A_2 O6B 1_555 1_555
Zn2B O3B 1_555 1_555
Zn2B_2 O4 1_555 1_555
Zn2A O5 1_555 1_555
Zn2C O7 1_555 1_555
Zn2A_2 O7B 1_555 1_555
P1B O1B 1_555 1_555
P2B O3B 1_555 1_555
P3B O2B 1_555 1_555
O2B Zn1 1_555 1_555
O2_2 Zn1B 1_555 1_555
O4B Zn2 1_555 1_555
O4_2 Zn2B 1_555 1_555
O5B Zn1C 1_555 1_555
O5A Zn1 1_555 1_555
O5C Zn1B 1_555 1_555
O6B P1B 1_555 1_555
O6C Zn1 1_555 1_555
O6A Zn1B 1_555 1_555
O7B P2B 1_555 1_555
O7C Zn2 1_555 1_555
O7A Zn2B 1_555 1_555
O8B P1B 1_555 1_555
O9B P2B 1_555 1_555
C1B C4B 1_555 1_555
C2B P3B 1_555 1_555
C3B C2B 1_555 1_555
C4B P1B 1_555 1_555
C5B C2B 1_555 1_555
C6B P2B 1_555 1_555
H1B C5B 1_555 1_555
H2B C3B 1_555 1_555
H3B C1B 1_555 1_555
N1A C9A 1_555 1_555
C7A C7 1_555 1_555
C8A C7A 1_555 1_555
C9A C8A 1_555 1_555
C10A N1A 1_555 1_555
C11A C7A 1_555 1_555
H4A C8A 1_555 1_555
H5A C9A 1_555 1_555
H6A C10A 1_555 1_555
H7A C11A 1_555 1_555
Zn2 O5A 1_555 1_555
C1 C6 1_555 1_555
C3 C4 1_555 1_555
C5 C6 1_555 1_555
C10 C11 1_555 1_555
Zn2B O5C 1_555 1_555
Zn2C O5B 1_555 1_555
P3B O4B 1_555 1_555
P3B O5B 1_555 1_555
C1B C6B 1_555 1_555
C3B C4B 1_555 1_555
C5B C6B 1_555 1_555
C10A C11A 1_555 1_555

#END
