
#######################################################################
#
#                 Cambridge Crystallographic Data Centre
#                                CCDC 
#
#######################################################################
#
# If this CIF has been generated from an entry in the Cambridge 
# Structural Database, then it will include bibliographic, chemical, 
# crystal, experimental, refinement or atomic coordinate data resulting 
# from the CCDC's data processing and validation procedures.
#
#######################################################################

data_OLAQOI
_symmetry_cell_setting           hexagonal
_symmetry_space_group_name_H-M   'P 65 2 2'
_symmetry_Int_Tables_number      179
_space_group_name_Hall           "P 65 2' (0,0,1)"
loop_
_symmetry_equiv_pos_site_id
_symmetry_equiv_pos_as_xyz
1 x,y,z
2 -x,-y,1/2+z
3 -y,x-y,2/3+z
4 -x+y,-x,1/3+z
5 x-y,x,5/6+z
6 y,-x+y,1/6+z
7 x-y,-y,-z
8 -x,-x+y,1/3-z
9 y,x,2/3-z
10 -y,-x,1/6-z
11 x,x-y,5/6-z
12 -x+y,y,1/2-z
_cell_length_a                   34.58(3)
_cell_length_b                   34.58(3)
_cell_length_c                   20.76(2)
_cell_angle_alpha                90
_cell_angle_beta                 90
_cell_angle_gamma                120
_cell_volume                     21498.5
loop_
_atom_site_label
_atom_site_type_symbol
_atom_site_fract_x
_atom_site_fract_y
_atom_site_fract_z
K1 K 0.40346(19) 0.7544(2) 0.0200(4)
O15 O 0.4584(2) 0.7656(2) 0.1314(4)
O16 O 0.4063(4) 0.8026(4) 0.1429(7)
O17 O 0.5050(2) 0.7252(2) 0.0697(4)
K2 K 0.6898(4) 0.6254(4) -0.1505(7)
O18 O 0.7201(3) 0.5811(3) -0.1016(6)
O19 O 0.7257(5) 0.7257(5) -0.1667
O20 O 0.7206(3) 0.8639(4) 0.0161(6)
O21 O 0.7078(3) 0.9528(3) 0.1286(6)
O22 O 0.6643(3) 0.6643 -0.1667
O23 O 0.8358(7) 0.8980(8) 0.0857(14)
Cu1 Cu 0.66578(3) 0.68723(2) 0.23517(5)
Cu2 Cu 0.70962(3) 0.63986(2) 0.30223(4)
Cu3 Cu 0.62012(2) 0.55287(3) 0.30510(4)
Cu4 Cu 0.57448(2) 0.59914(2) 0.23147(4)
Cu5 Cu 0.56026(2) 0.70466(2) 0.22822(4)
Cu6 Cu 0.66766(2) 0.60020(2) 0.12553(4)
Cu7 Cu 0.77027(4) 0.77027(4) 0.3333
Cu8 Cu 0.49269(3) 0.49269(3) 0.3333
Cl1 Cl 0.63118(6) 0.63118(6) 0.3333
S1 S 0.63120(4) 0.72783(4) 0.26042(7)
S2 S 0.63345(4) 0.53456(5) 0.40709(8)
S3 S 0.63027(4) 0.63417(4) 0.15638(7)
S4 S 0.67618(4) 0.58226(4) 0.22833(7)
S5 S 0.73830(5) 0.71268(5) 0.26283(8)
S6 S 0.55009(4) 0.52688(4) 0.26458(8)
O1 O 0.62199(14) 0.85621(12) 0.1905(3)
O2 O 0.68204(16) 0.86481(16) 0.1383(3)
O3 O 0.64281(15) 0.42031(17) 0.5213(3)
O4 O 0.60028(16) 0.38220(18) 0.4348(3)
O5 O 0.6457(3) 0.6480(3) -0.0734(4)
O6 O 0.6713(3) 0.7211(3) -0.0362(4)
O7 O 0.73550(14) 0.51326(16) 0.0841(2)
O8 O 0.68467(19) 0.45519(17) 0.1410(4)
O9 O 0.8766(2) 0.8283(3) 0.1719(5)
O10 O 0.8314(3) 0.8127(2) 0.0958(5)
O11 O 0.4505(2) 0.3733(2) 0.1915(4)
O12 O 0.5202(3) 0.3903(2) 0.1684(5)
N1 N 0.58495(16) 0.76686(16) 0.1920(3)
H1 H 0.5728 0.7649 0.1519
H2 H 0.5765 0.7828 0.2181
N2 N 0.68563(14) 0.49492(16) 0.4590(3)
H3 H 0.7072 0.4892 0.4434
H4 H 0.6850 0.4917 0.5031
N3 N 0.67638(19) 0.63200(19) 0.0387(2)
H5 H 0.7059 0.6447 0.0269
H6 H 0.6597 0.6110 0.0080
N4 N 0.68622(13) 0.55596(12) 0.0950(2)
H7 H 0.6689 0.5410 0.0599
H8 H 0.7153 0.5719 0.0811
N5 N 0.8126(2) 0.8047(2) 0.2578(4)
H9 H 0.8139 0.8319 0.2542
H10 H 0.8408 0.8104 0.2685
N6 N 0.4758(2) 0.4396(2) 0.2873(3)
H11 H 0.4674 0.4169 0.3167
H12 H 0.4509 0.4332 0.2633
C1 C 0.6593(2) 0.7893(2) 0.2360(3)
C2 C 0.6339(2) 0.7911(2) 0.1864(5)
H13 H 0.6411 0.7787 0.1477
C3 C 0.6478(3) 0.8448(2) 0.1670(4)
C4 C 0.6558(3) 0.8113(2) 0.2937(4)
H14 H 0.6247 0.8038 0.2998
H15 H 0.6748 0.8437 0.2890
H16 H 0.6656 0.8012 0.3312
C5 C 0.7002(3) 0.7968(3) 0.2173(5)
H17 H 0.7163 0.7946 0.2547
H18 H 0.7172 0.8267 0.1984
H19 H 0.6966 0.7744 0.1852
C6 C 0.60956(18) 0.47593(19) 0.4379(3)
C7 C 0.64212(18) 0.46085(18) 0.4331(3)
H20 H 0.6468 0.4586 0.3860
C8 C 0.6263(2) 0.4183(2) 0.4582(3)
C9 C 0.5964(2) 0.4748(2) 0.5072(4)
H21 H 0.5746 0.4849 0.5104
H22 H 0.6229 0.4945 0.5327
H23 H 0.5832 0.4442 0.5236
C10 C 0.5662(2) 0.4471(3) 0.3988(5)
H24 H 0.5461 0.4591 0.4038
H25 H 0.5515 0.4163 0.4146
H26 H 0.5737 0.4476 0.3531
C11 C 0.62261(19) 0.65347(18) 0.0753(4)
C12 C 0.6640(2) 0.66672(17) 0.03813(15)
H27 H 0.6888 0.6943 0.0580
C13 C 0.6566(3) 0.6779(2) -0.03162(18)
C14 C 0.5814(2) 0.6108(3) 0.0426(4)
H28 H 0.5542 0.6022 0.0673
H29 H 0.5874 0.5859 0.0420
H30 H 0.5775 0.6181 -0.0017
C15 C 0.6146(3) 0.6949(2) 0.0844(4)
H31 H 0.5872 0.6854 0.1091
H32 H 0.6119 0.7058 0.0421
H33 H 0.6400 0.7188 0.1076
C16 C 0.70530(18) 0.54885(18) 0.2071(3)
C17 C 0.68311(19) 0.5235(2) 0.1405(4)
H34 H 0.6506 0.5034 0.1494
C18 C 0.7006(2) 0.4946(2) 0.1213(3)
C19 C 0.75275(19) 0.58413(19) 0.2017(4)
H35 H 0.7562 0.6044 0.1663
H36 H 0.7711 0.5704 0.1932
H37 H 0.7624 0.6010 0.2421
C20 C 0.69406(19) 0.51543(18) 0.2599(4)
H38 H 0.6619 0.4942 0.2596
H39 H 0.7026 0.5309 0.3015
H40 H 0.7104 0.4993 0.2532
C21 C 0.78570(16) 0.73673(18) 0.2023(3)
C22 C 0.80284(13) 0.7858(2) 0.2009(2)
H41 H 0.7779 0.7896 0.1839
C23 C 0.84197(15) 0.8101(3) 0.1524(2)
C24 C 0.8172(2) 0.7257(2) 0.2192(4)
H42 H 0.8318 0.7411 0.2593
H43 H 0.8396 0.7349 0.1849
H44 H 0.8029 0.6934 0.2255
C25 C 0.7667(3) 0.7137(3) 0.1471(5)
H45 H 0.7430 0.7194 0.1333
H46 H 0.7541 0.6816 0.1549
H47 H 0.7895 0.7233 0.1133
C26 C 0.52904(18) 0.47987(19) 0.2057(3)
C27 C 0.5103(2) 0.43882(18) 0.2419(4)
H48 H 0.5345 0.4393 0.2687
C28 C 0.4915(3) 0.3954(3) 0.1911(4)
C29 C 0.49395(19) 0.48664(18) 0.1655(3)
H49 H 0.5094 0.5153 0.1428
H50 H 0.4715 0.4864 0.1946
H51 H 0.4792 0.4624 0.1340
C30 C 0.5704(2) 0.4889(2) 0.1637(4)
H52 H 0.5819 0.5175 0.1412
H53 H 0.5614 0.4648 0.1321
H54 H 0.5938 0.4899 0.1915
Co1 Co 0.63271(3) 0.36729(3) 0.5834
O13 O 0.68380(19) 0.4186(2) 0.6474(3)
O14 O 0.6851(3) 0.3651(3) 0.5354(5)
Cu1H Cu 0.68723(2) 0.66578(3) 0.43150(5)
Cu2H Cu 0.63986(2) 0.70962(3) 0.36444(4)
Cu3H Cu 0.55287(3) 0.62012(2) 0.36157(4)
Cu4H Cu 0.59914(2) 0.57448(2) 0.43520(4)
Cu5H Cu 0.70466(2) 0.56026(2) 0.43845(4)
Cu6H Cu 0.60020(2) 0.66766(2) 0.54114(4)
S1H S 0.72783(4) 0.63120(4) 0.40625(7)
S2H S 0.53456(5) 0.63345(4) 0.25958(8)
S3H S 0.63417(4) 0.63027(4) 0.51029(7)
S4H S 0.58226(4) 0.67618(4) 0.43834(7)
S5H S 0.71268(5) 0.73830(5) 0.40384(8)
S6H S 0.52688(4) 0.55009(4) 0.40209(8)
O1H O 0.85621(12) 0.62199(14) 0.4762(3)
O2H O 0.86481(16) 0.68204(16) 0.5284(3)
O3H O 0.42031(17) 0.64281(15) 0.1454(3)
O3I O 0.57969(17) 0.35719(15) 0.6454(3)
O4H O 0.38220(18) 0.60028(16) 0.2319(3)
O5H O 0.6480(3) 0.6457(3) 0.7401(4)
O6H O 0.7211(3) 0.6713(3) 0.7029(4)
O7H O 0.51326(16) 0.73550(14) 0.5826(2)
O8H O 0.45519(17) 0.68467(19) 0.5257(4)
O9H O 0.8283(3) 0.8766(2) 0.4948(5)
O10H O 0.8127(2) 0.8314(3) 0.5709(5)
O11H O 0.3733(2) 0.4505(2) 0.4752(4)
O12H O 0.3903(2) 0.5202(3) 0.4983(5)
N1H N 0.76686(16) 0.58495(16) 0.4747(3)
H1H H 0.7649 0.5728 0.5148
H2H H 0.7828 0.5765 0.4486
N2H N 0.49492(16) 0.68563(14) 0.2077(3)
H3H H 0.4892 0.7072 0.2233
H4H H 0.4917 0.6850 0.1636
N3H N 0.63200(19) 0.67638(19) 0.6280(2)
H5H H 0.6447 0.7059 0.6398
H6H H 0.6110 0.6597 0.6587
N4H N 0.55596(12) 0.68622(13) 0.5717(2)
H7H H 0.5410 0.6689 0.6068
H8H H 0.5719 0.7153 0.5856
N5H N 0.8047(2) 0.8126(2) 0.4089(4)
H9H H 0.8319 0.8139 0.4125
H10H H 0.8104 0.8408 0.3982
N6H N 0.4396(2) 0.4758(2) 0.3794(3)
H11H H 0.4169 0.4674 0.3500
H12H H 0.4332 0.4509 0.4034
C1H C 0.7893(2) 0.6593(2) 0.4307(3)
C2H C 0.7911(2) 0.6339(2) 0.4803(5)
H13H H 0.7787 0.6411 0.5190
C3H C 0.8448(2) 0.6478(3) 0.4997(4)
C4H C 0.8113(2) 0.6558(3) 0.3730(4)
H14H H 0.8038 0.6247 0.3669
H15H H 0.8437 0.6748 0.3777
H16H H 0.8012 0.6656 0.3355
C5H C 0.7968(3) 0.7002(3) 0.4494(5)
H17H H 0.7946 0.7163 0.4120
H18H H 0.8267 0.7172 0.4683
H19H H 0.7744 0.6966 0.4815
C6H C 0.47593(19) 0.60956(18) 0.2288(3)
C7H C 0.46085(18) 0.64212(18) 0.2336(3)
H20H H 0.4586 0.6468 0.2807
C8H C 0.4183(2) 0.6263(2) 0.2085(3)
C9H C 0.4748(2) 0.5964(2) 0.1595(4)
H21H H 0.4849 0.5746 0.1563
H22H H 0.4945 0.6229 0.1340
H23H H 0.4442 0.5832 0.1431
C10H C 0.4471(3) 0.5662(2) 0.2679(5)
H24H H 0.4591 0.5461 0.2629
H25H H 0.4163 0.5515 0.2521
H26H H 0.4476 0.5737 0.3136
C11H C 0.65347(18) 0.62261(19) 0.5914(4)
C12H C 0.66672(17) 0.6640(2) 0.62854(15)
H27H H 0.6943 0.6888 0.6087
C13H C 0.6779(2) 0.6566(3) 0.69829(18)
C14H C 0.6108(3) 0.5814(2) 0.6241(4)
H28H H 0.6022 0.5542 0.5994
H29H H 0.5859 0.5874 0.6247
H30H H 0.6181 0.5775 0.6684
C15H C 0.6949(2) 0.6146(3) 0.5823(4)
H31H H 0.6854 0.5872 0.5576
H32H H 0.7058 0.6119 0.6246
H33H H 0.7188 0.6400 0.5591
C16H C 0.54885(18) 0.70530(18) 0.4596(3)
C17H C 0.5235(2) 0.68311(19) 0.5262(4)
H34H H 0.5034 0.6506 0.5173
C18H C 0.4946(2) 0.7006(2) 0.5454(3)
C19H C 0.58413(19) 0.75275(19) 0.4650(4)
H35H H 0.6044 0.7562 0.5004
H36H H 0.5704 0.7711 0.4735
H37H H 0.6010 0.7624 0.4246
C20H C 0.51543(18) 0.69406(19) 0.4068(4)
H38H H 0.4942 0.6619 0.4071
H39H H 0.5309 0.7026 0.3652
H40H H 0.4993 0.7104 0.4135
C21H C 0.73673(18) 0.78570(16) 0.4644(3)
C22H C 0.7858(2) 0.80284(13) 0.4658(2)
H41H H 0.7896 0.7779 0.4828
C23H C 0.8101(3) 0.84197(15) 0.5143(2)
C24H C 0.7257(2) 0.8172(2) 0.4475(4)
H42H H 0.7411 0.8318 0.4074
H43H H 0.7349 0.8396 0.4818
H44H H 0.6934 0.8029 0.4412
C25H C 0.7137(3) 0.7667(3) 0.5196(5)
H45H H 0.7194 0.7430 0.5334
H46H H 0.6816 0.7541 0.5118
H47H H 0.7233 0.7895 0.5534
C26H C 0.47987(19) 0.52904(18) 0.4610(3)
C27H C 0.43882(18) 0.5103(2) 0.4248(4)
H48H H 0.4393 0.5345 0.3980
C28H C 0.3954(3) 0.4915(3) 0.4756(4)
C29H C 0.48664(18) 0.49395(19) 0.5012(3)
H49H H 0.5153 0.5094 0.5239
H50H H 0.4864 0.4715 0.4721
H51H H 0.4624 0.4792 0.5327
C30H C 0.4889(2) 0.5704(2) 0.5030(4)
H52H H 0.5175 0.5819 0.5255
H53H H 0.4648 0.5614 0.5346
H54H H 0.4899 0.5938 0.4752
Co1H Co 0.36729(3) 0.63271(3) 0.0833
O13I O 0.5814(2) 0.31620(19) 0.5193(3)
O14I O 0.6349(3) 0.3149(3) 0.6313(5)
loop_
_geom_bond_atom_site_label_1
_geom_bond_atom_site_label_2
_geom_bond_site_symmetry_1
_geom_bond_site_symmetry_2
Cu1 Cl1 1_555 1_555
Cu2 Cl1 1_555 1_555
Cu3 Cl1 1_555 1_555
Cu4 Cl1 1_555 1_555
Cu5 S1 1_555 1_555
Cu6 S3 1_555 1_555
Cu7 S5 1_555 1_555
Cu8 S6 1_555 1_555
Cl1 Cu1H 1_555 1_555
S1 Cu1 1_555 1_555
S2 Cu3 1_555 1_555
S3 Cu1 1_555 1_555
S4 Cu2 1_555 1_555
S5 Cu1 1_555 1_555
S6 Cu3 1_555 1_555
O1 C3 1_555 1_555
O2 C3 1_555 1_555
O3 C8 1_555 1_555
O4 C8 1_555 1_555
O5 C13 1_555 1_555
O6 C13 1_555 1_555
O7 C18 1_555 1_555
O8 C18 1_555 1_555
O9 C23 1_555 1_555
O10 C23 1_555 1_555
O11 C28 1_555 1_555
O12 C28 1_555 1_555
N1 Cu5 1_555 1_555
H1 N1 1_555 1_555
H2 N1 1_555 1_555
N2 H3 1_555 1_555
H4 N2 1_555 1_555
N3 Cu6 1_555 1_555
H5 N3 1_555 1_555
H6 N3 1_555 1_555
N4 Cu6 1_555 1_555
H7 N4 1_555 1_555
H8 N4 1_555 1_555
N5 Cu7 1_555 1_555
H9 N5 1_555 1_555
H10 N5 1_555 1_555
N6 Cu8 1_555 1_555
H11 N6 1_555 1_555
H12 N6 1_555 1_555
C1 S1 1_555 1_555
C2 N1 1_555 1_555
H13 C2 1_555 1_555
C3 C2 1_555 1_555
C4 C1 1_555 1_555
H14 C4 1_555 1_555
H15 C4 1_555 1_555
H16 C4 1_555 1_555
C5 C1 1_555 1_555
H17 C5 1_555 1_555
H18 C5 1_555 1_555
H19 C5 1_555 1_555
C6 S2 1_555 1_555
C7 N2 1_555 1_555
H20 C7 1_555 1_555
C8 C7 1_555 1_555
C9 C6 1_555 1_555
H21 C9 1_555 1_555
H22 C9 1_555 1_555
H23 C9 1_555 1_555
C10 C6 1_555 1_555
H24 C10 1_555 1_555
H25 C10 1_555 1_555
H26 C10 1_555 1_555
C11 S3 1_555 1_555
C12 N3 1_555 1_555
H27 C12 1_555 1_555
C13 C12 1_555 1_555
C14 C11 1_555 1_555
H28 C14 1_555 1_555
H29 C14 1_555 1_555
H30 C14 1_555 1_555
C15 C11 1_555 1_555
H31 C15 1_555 1_555
H32 C15 1_555 1_555
H33 C15 1_555 1_555
C16 S4 1_555 1_555
C17 N4 1_555 1_555
H34 C17 1_555 1_555
C18 C17 1_555 1_555
C19 C16 1_555 1_555
H35 C19 1_555 1_555
H36 C19 1_555 1_555
H37 C19 1_555 1_555
C20 C16 1_555 1_555
H38 C20 1_555 1_555
H39 C20 1_555 1_555
H40 C20 1_555 1_555
C21 S5 1_555 1_555
C22 N5 1_555 1_555
H41 C22 1_555 1_555
C23 C22 1_555 1_555
C24 C21 1_555 1_555
H42 C24 1_555 1_555
H43 C24 1_555 1_555
H44 C24 1_555 1_555
C25 C21 1_555 1_555
H45 C25 1_555 1_555
H46 C25 1_555 1_555
H47 C25 1_555 1_555
C26 S6 1_555 1_555
C27 N6 1_555 1_555
H48 C27 1_555 1_555
C28 C27 1_555 1_555
C29 C26 1_555 1_555
H49 C29 1_555 1_555
H50 C29 1_555 1_555
H51 C29 1_555 1_555
C30 C26 1_555 1_555
H52 C30 1_555 1_555
H53 C30 1_555 1_555
H54 C30 1_555 1_555
Co1 O3 1_555 1_555
O13 Co1 1_555 1_555
O14 Co1 1_555 1_555
Cu1H S1H 1_555 1_555
Cu2H Cl1 1_555 1_555
Cu3H Cl1 1_555 1_555
Cu4H Cl1 1_555 1_555
Cu5H S2 1_555 1_555
Cu6H S3H 1_555 1_555
S1H Cu2 1_555 1_555
S2H Cu4 1_555 1_555
S3H Cu1H 1_555 1_555
S4H Cu2H 1_555 1_555
S5H Cu7 1_555 1_555
S6H Cu8 1_555 1_555
O1H C3H 1_555 1_555
O2H C3H 1_555 1_555
O3H C8H 1_555 1_555
O3I Co1 1_555 1_555
O4H C8H 1_555 1_555
O5H C13H 1_555 1_555
O6H C13H 1_555 1_555
O7H C18H 1_555 1_555
O8H C18H 1_555 1_555
O9H C23H 1_555 1_555
O10H C23H 1_555 1_555
O11H C28H 1_555 1_555
O12H C28H 1_555 1_555
N1H Cu5H 1_555 1_555
H1H N1H 1_555 1_555
H2H N1H 1_555 1_555
N2H Cu5 1_555 1_555
H3H N2H 1_555 1_555
H4H N2H 1_555 1_555
N3H Cu6H 1_555 1_555
H5H N3H 1_555 1_555
H6H N3H 1_555 1_555
N4H Cu6H 1_555 1_555
H7H N4H 1_555 1_555
H8H N4H 1_555 1_555
N5H Cu7 1_555 1_555
H9H N5H 1_555 1_555
H10H N5H 1_555 1_555
N6H Cu8 1_555 1_555
H11H N6H 1_555 1_555
H12H N6H 1_555 1_555
C1H S1H 1_555 1_555
C2H N1H 1_555 1_555
H13H C2H 1_555 1_555
C3H C2H 1_555 1_555
C4H C1H 1_555 1_555
H14H C4H 1_555 1_555
H15H C4H 1_555 1_555
H16H C4H 1_555 1_555
C5H C1H 1_555 1_555
H17H C5H 1_555 1_555
H18H C5H 1_555 1_555
H19H C5H 1_555 1_555
C6H S2H 1_555 1_555
C7H N2H 1_555 1_555
H20H C7H 1_555 1_555
C8H C7H 1_555 1_555
C9H C6H 1_555 1_555
H21H C9H 1_555 1_555
H22H C9H 1_555 1_555
H23H C9H 1_555 1_555
C10H C6H 1_555 1_555
H24H C10H 1_555 1_555
H25H C10H 1_555 1_555
H26H C10H 1_555 1_555
C11H S3H 1_555 1_555
C12H N3H 1_555 1_555
H27H C12H 1_555 1_555
C13H C12H 1_555 1_555
C14H C11H 1_555 1_555
H28H C14H 1_555 1_555
H29H C14H 1_555 1_555
H30H C14H 1_555 1_555
C15H C11H 1_555 1_555
H31H C15H 1_555 1_555
H32H C15H 1_555 1_555
H33H C15H 1_555 1_555
C16H S4H 1_555 1_555
C17H N4H 1_555 1_555
H34H C17H 1_555 1_555
C18H C17H 1_555 1_555
C19H C16H 1_555 1_555
H35H C19H 1_555 1_555
H36H C19H 1_555 1_555
H37H C19H 1_555 1_555
C20H C16H 1_555 1_555
H38H C20H 1_555 1_555
H39H C20H 1_555 1_555
H40H C20H 1_555 1_555
C21H S5H 1_555 1_555
C22H N5H 1_555 1_555
H41H C22H 1_555 1_555
C23H C22H 1_555 1_555
C24H C21H 1_555 1_555
H42H C24H 1_555 1_555
H43H C24H 1_555 1_555
H44H C24H 1_555 1_555
C25H C21H 1_555 1_555
H45H C25H 1_555 1_555
H46H C25H 1_555 1_555
H47H C25H 1_555 1_555
C26H S6H 1_555 1_555
C27H N6H 1_555 1_555
H48H C27H 1_555 1_555
C28H C27H 1_555 1_555
C29H C26H 1_555 1_555
H49H C29H 1_555 1_555
H50H C29H 1_555 1_555
H51H C29H 1_555 1_555
C30H C26H 1_555 1_555
H52H C30H 1_555 1_555
H53H C30H 1_555 1_555
H54H C30H 1_555 1_555
Co1H O3H 1_555 1_555
O13I Co1 1_555 1_555
O14I Co1 1_555 1_555
Cu2 S5 1_555 1_555
Cu3 S4 1_555 1_555
Cu4 S3 1_555 1_555
Cu4 S6 1_555 1_555
Cu5 S2H 1_555 1_555
Cu6 S4 1_555 1_555
S1 Cu2H 1_555 1_555
S2 Cu4H 1_555 1_555
N2 Cu5H 1_555 1_555
C1 C2 1_555 1_555
C6 C7 1_555 1_555
C11 C12 1_555 1_555
C16 C17 1_555 1_555
C21 C22 1_555 1_555
C26 C27 1_555 1_555
Cu1H S5H 1_555 1_555
Cu2H S5H 1_555 1_555
Cu3H S2H 1_555 1_555
Cu3H S4H 1_555 1_555
Cu3H S6H 1_555 1_555
Cu4H S3H 1_555 1_555
Cu4H S6H 1_555 1_555
Cu5H S1H 1_555 1_555
Cu6H S4H 1_555 1_555
C1H C2H 1_555 1_555
C6H C7H 1_555 1_555
C11H C12H 1_555 1_555
C16H C17H 1_555 1_555
C21H C22H 1_555 1_555
C26H C27H 1_555 1_555

#END
