
#######################################################################
#
#                 Cambridge Crystallographic Data Centre
#                                CCDC 
#
#######################################################################
#
# If this CIF has been generated from an entry in the Cambridge 
# Structural Database, then it will include bibliographic, chemical, 
# crystal, experimental, refinement or atomic coordinate data resulting 
# from the CCDC's data processing and validation procedures.
#
#######################################################################

data_OLAWOO
_symmetry_cell_setting           hexagonal
_symmetry_space_group_name_H-M   'P 63'
_symmetry_Int_Tables_number      173
_space_group_name_Hall           'P 6c'
loop_
_symmetry_equiv_pos_site_id
_symmetry_equiv_pos_as_xyz
1 x,y,z
2 x-y,x,1/2+z
3 -y,x-y,z
4 -x,-y,1/2+z
5 -x+y,-x,z
6 y,-x+y,1/2+z
_cell_length_a                   18.1980(12)
_cell_length_b                   18.1980(12)
_cell_length_c                   25.236(2)
_cell_angle_alpha                90
_cell_angle_beta                 90
_cell_angle_gamma                120
_cell_volume                     7237.66
loop_
_atom_site_label
_atom_site_type_symbol
_atom_site_fract_x
_atom_site_fract_y
_atom_site_fract_z
Cl1 Cl 0.6667 0.3333 0.23448(9)
Cl2 Cl 0.6844(5) 0.7518(4) 0.3493(4)
O17 O 0.6083(5) 0.7802(5) 0.4363(4)
O18 O 0.6217(5) 0.8271(6) 0.2745(4)
O19 O 0.1358(8) 0.1250(7) 0.3274(6)
O20 O 0.3039(5) 0.3595(5) 0.4246(4)
O21 O 0.0014(10) 0.1527(9) 0.3767(8)
O22 O 0.6667 0.3333 0.5632(9)
O23 O 0.2826(10) 0.2857(6) 0.3220(4)
O24 O 0.3076(11) 0.4033(13) 0.0869(4)
O25 O 0.2685(15) 0.5115(15) 0.1806(9)
O26 O 0.1841(13) 0.3123(15) 0.1725(8)
O27 O 0.4126(15) 0.569(2) 0.0637(12)
O28 O 0.597(3) 0.720(2) 0.0983(9)
O29 O 0.2843(13) 0.2192(13) 0.0050(9)
O30 O 0.224(2) 0.046(2) 0.0384(17)
La1 La 0.3333 0.6667 0.33670(2)
La2 La 0.0000 0.0000 0.15641(5)
Pd1 Pd 0.63654(3) 0.52890(3) 0.342606(18)
Pd2 Pd 0.44101(3) 0.30233(4) 0.12765(2)
Cu1 Cu 0.6667 0.3333 0.34301(6)
Cu2 Cu 0.49584(7) 0.31250(6) 0.27690(3)
Cu3 Cu 0.6667 0.3333 0.11633(5)
Cu4 Cu 0.64678(5) 0.46592(5) 0.19920(3)
S1 S 0.72928(10) 0.47845(9) 0.34633(6)
S2 S 0.56235(10) 0.45496(9) 0.26982(5)
S3 S 0.44257(10) 0.23360(11) 0.20260(6)
S4 S 0.58301(9) 0.39230(9) 0.12274(5)
O1 O 0.7883(4) 0.6726(5) 0.4959(3)
O2 O 0.9147(5) 0.6951(6) 0.4666(4)
O3 O 0.4618(3) 0.6463(3) 0.3282(2)
O4 O 0.3466(3) 0.5334(4) 0.2993(3)
O5 O 0.1311(10) 0.0883(10) 0.2138(6)
O6 O 0.1547(12) 0.1152(12) 0.1323(8)
O9 O 0.4439(4) 0.4528(5) -0.0238(3)
O10 O 0.5667(4) 0.4722(4) -0.05642(19)
O11 O 0.3333 0.6667 0.2356(5)
O12 O 0.2542(3) 0.6923(3) 0.4124(2)
O13 O 0.013(3) 0.066(2) 0.2575(16)
O14 O 0.0520(19) 0.1548(19) 0.1096(13)
N1 N 0.7081(4) 0.6097(4) 0.4030(2)
H1 H 0.7167 0.6630 0.3958
H2 H 0.6777 0.5915 0.4340
N2 N 0.5473(4) 0.5664(4) 0.3483(2)
H3 H 0.5308 0.5615 0.3832
H4 H 0.5731 0.6230 0.3395
N3 N 0.3107(4) 0.2317(7) 0.1338(3)
H5 H 0.2891 0.2671 0.1278
H6 H 0.2910 0.1917 0.1072
N4 N 0.4356(4) 0.3526(5) 0.0546(3)
H7 H 0.3978 0.3090 0.0333
H8 H 0.4148 0.3889 0.0597
C1 C 0.7825(4) 0.5275(4) 0.4109(3)
C2 C 0.7929(4) 0.6160(4) 0.4113(3)
H9 H 0.8302 0.6483 0.3808
C3 C 0.8356(6) 0.6659(6) 0.4626(3)
C4 C 0.7230(5) 0.4720(5) 0.4568(3)
H10 H 0.6696 0.4728 0.4553
H11 H 0.7508 0.4949 0.4910
H12 H 0.7113 0.4135 0.4530
C5 C 0.8663(5) 0.5275(6) 0.4112(4)
H13 H 0.8550 0.4689 0.4111
H14 H 0.8985 0.5565 0.4431
H15 H 0.8994 0.5572 0.3797
C6 C 0.4939(4) 0.5045(4) 0.2592(2)
C7 C 0.4696(4) 0.5197(4) 0.3152(3)
H16 H 0.4317 0.4633 0.3321
C8 C 0.4230(4) 0.5696(4) 0.3139(3)
C9 C 0.5445(6) 0.5889(5) 0.2300(3)
H17 H 0.5944 0.6274 0.2510
H18 H 0.5087 0.6144 0.2247
H19 H 0.5628 0.5791 0.1955
C10 C 0.4161(6) 0.4420(6) 0.2288(3)
H20 H 0.3869 0.3883 0.2483
H21 H 0.4331 0.4321 0.1939
H22 H 0.3779 0.4649 0.2245
C11 C 0.3269(5) 0.1478(5) 0.2053(3)
C12 C 0.2771(5) 0.1883(7) 0.1838(4)
H23 H 0.2806 0.2309 0.2102
C13 C 0.1802(7) 0.1198(8) 0.1756(4)
C14 C 0.3068(6) 0.1195(7) 0.2612(4)
H24 H 0.3140 0.1671 0.2833
H25 H 0.3451 0.1000 0.2737
H26 H 0.2480 0.0730 0.2637
C15 C 0.3153(6) 0.0780(6) 0.1689(4)
H27 H 0.3484 0.0527 0.1820
H28 H 0.3349 0.1011 0.1333
H29 H 0.2551 0.0346 0.1675
C16 C 0.5869(4) 0.4583(4) 0.0641(2)
C17 C 0.5183(4) 0.3993(4) 0.0262(2)
H30 H 0.5335 0.3568 0.0131
C18 C 0.5079(5) 0.4447(4) -0.0222(3)
C19 C 0.5724(6) 0.5289(5) 0.0822(3)
H31 H 0.5163 0.5047 0.0988
H32 H 0.5753 0.5635 0.0517
H33 H 0.6161 0.5644 0.1080
C20 C 0.6742(5) 0.4957(6) 0.0410(3)
H34 H 0.6840 0.4500 0.0292
H35 H 0.7164 0.5299 0.0679
H36 H 0.6795 0.5318 0.0107
S2B S 0.54504(9) 1.10739(13) 0.26982(5)
O3B O 0.3537(3) 0.8155(4) 0.3282(2)
O4B O 0.4666(4) 0.8132(5) 0.2993(3)
N2B N 0.4336(4) 0.9809(6) 0.3483(2)
H3B H 0.4385 0.9693 0.3832
H4B H 0.3770 0.9501 0.3395
C6B C 0.4955(4) 0.9894(6) 0.2592(2)
C7B C 0.4803(4) 0.9499(6) 0.3152(3)
H16B H 0.5367 0.9684 0.3321
C8B C 0.4304(4) 0.8534(6) 0.3139(3)
C9B C 0.4111(5) 0.9556(8) 0.2300(3)
H17B H 0.3726 0.9670 0.2510
H18B H 0.3856 0.8943 0.2247
H19B H 0.4209 0.9837 0.1955
C10B C 0.5580(6) 0.9741(8) 0.2288(3)
H20B H 0.6117 0.9986 0.2483
H21B H 0.5679 1.0010 0.1939
H22B H 0.5351 0.9130 0.2245
S2D S -0.10739(13) 0.43765(10) 0.26982(5)
O3D O 0.1845(4) 0.5382(3) 0.3282(2)
O4D O 0.1868(5) 0.6534(3) 0.2993(3)
N2D N 0.0191(6) 0.4527(4) 0.3483(2)
H3D H 0.0307 0.4692 0.3832
H4D H 0.0499 0.4269 0.3395
C6D C 0.0106(6) 0.5061(4) 0.2592(2)
C7D C 0.0501(6) 0.5304(4) 0.3152(3)
H16D H 0.0316 0.5683 0.3321
C8D C 0.1466(6) 0.5770(4) 0.3139(3)
C9D C 0.0444(8) 0.4555(6) 0.2300(3)
H17D H 0.0330 0.4056 0.2510
H18D H 0.1057 0.4913 0.2247
H19D H 0.0163 0.4372 0.1955
C10D C 0.0259(8) 0.5839(6) 0.2288(3)
H20D H 0.0014 0.6131 0.2483
H21D H -0.0010 0.5669 0.1939
H22D H 0.0870 0.6221 0.2245
O12B O 0.3077(3) 0.5619(4) 0.4124(2)
O12D O 0.4381(4) 0.7458(3) 0.4124(2)
Pd1B Pd 0.47110(3) 1.10764(4) 0.342606(18)
Pd1D Pd -0.10764(4) 0.36346(3) 0.342606(18)
Cu2B Cu 0.68750(6) 1.18334(9) 0.27690(3)
Cu2D Cu -0.18334(9) 0.50416(7) 0.27690(3)
Cu4B Cu 0.53408(5) 1.18086(7) 0.19920(3)
Cu4D Cu -0.18086(7) 0.35322(5) 0.19920(3)
S1B S 0.52155(9) 0.25083(13) 0.34633(6)
O1B O 0.3274(5) 0.1157(6) 0.4959(3)
O2B O 0.3049(6) 0.2196(8) 0.4666(4)
N1B N 0.3903(4) 0.0984(6) 0.4030(2)
H1B H 0.3370 0.0537 0.3958
H2B H 0.4085 0.0862 0.4340
C1B C 0.4725(4) 0.2550(6) 0.4109(3)
C2B C 0.3840(4) 0.1769(6) 0.4113(3)
H9B H 0.3517 0.1819 0.3808
C3B C 0.3341(6) 0.1697(8) 0.4626(3)
C4B C 0.5280(5) 0.2510(7) 0.4568(3)
H10B H 0.5272 0.1968 0.4553
H11B H 0.5051 0.2559 0.4910
H12B H 0.5865 0.2978 0.4530
C5B C 0.4725(6) 0.3388(8) 0.4112(4)
H13B H 0.5311 0.3861 0.4111
H14B H 0.4435 0.3420 0.4431
H15B H 0.4428 0.3422 0.3797
S3D S 0.79103(15) 0.55743(10) 0.20260(6)
O5D O 0.9572(14) 0.8689(10) 0.2138(6)
O6D O 0.9605(17) 0.8453(12) 0.1323(8)
N3D N 0.9210(8) 0.6893(4) 0.1338(3)
H5D H 0.9780 0.7109 0.1278
H6D H 0.9007 0.7090 0.1072
C11D C 0.8209(7) 0.6731(5) 0.2053(3)
C12D C 0.9112(9) 0.7229(5) 0.1838(4)
H23D H 0.9503 0.7194 0.2102
C13D C 0.9396(11) 0.8198(7) 0.1756(4)
C14D C 0.8127(9) 0.6932(6) 0.2612(4)
H24D H 0.8531 0.6860 0.2833
H25D H 0.7549 0.6549 0.2737
H26D H 0.8250 0.7520 0.2637
C15D C 0.7627(8) 0.6847(6) 0.1689(4)
H27D H 0.7043 0.6516 0.1820
H28D H 0.7662 0.6651 0.1333
H29D H 0.7795 0.7449 0.1675
S1B_2 S 0.52155(9) 1.25083(13) 0.34633(6)
O1B_2 O 0.3274(5) 1.1157(6) 0.4959(3)
O2B_2 O 0.3049(6) 1.2196(8) 0.4666(4)
N1B_2 N 0.3903(4) 1.0984(6) 0.4030(2)
H1B_2 H 0.3370 1.0537 0.3958
H2B_2 H 0.4085 1.0862 0.4340
C1B_2 C 0.4725(4) 1.2550(6) 0.4109(3)
C2B_2 C 0.3840(4) 1.1769(6) 0.4113(3)
H9B_2 H 0.3517 1.1819 0.3808
C3B_2 C 0.3341(6) 1.1697(8) 0.4626(3)
C4B_2 C 0.5280(5) 1.2510(7) 0.4568(3)
H10B_2 H 0.5272 1.1968 0.4553
H11B_2 H 0.5051 1.2559 0.4910
H12B_2 H 0.5865 1.2978 0.4530
C5B_2 C 0.4725(6) 1.3388(8) 0.4112(4)
H13B_2 H 0.5311 1.3861 0.4111
H14B_2 H 0.4435 1.3420 0.4431
H15B_2 H 0.4428 1.3422 0.3797
S3B S 0.76640(11) 1.20897(15) 0.20260(6)
O5B O 0.9117(10) 1.0428(14) 0.2138(6)
O6B O 0.8848(12) 1.0395(17) 0.1323(8)
N3B N 0.7683(7) 1.0790(8) 0.1338(3)
H5B H 0.7329 1.0220 0.1278
H6B H 0.8083 1.0993 0.1072
C11B C 0.8522(5) 1.1791(7) 0.2053(3)
C12B C 0.8117(7) 1.0888(9) 0.1838(4)
H23B H 0.7691 1.0497 0.2102
C13B C 0.8802(8) 1.0604(11) 0.1756(4)
C14B C 0.8805(7) 1.1873(9) 0.2612(4)
H24B H 0.8329 1.1469 0.2833
H25B H 0.9000 1.2451 0.2737
H26B H 0.9270 1.1750 0.2637
C15B C 0.9220(6) 1.2373(8) 0.1689(4)
H27B H 0.9473 1.2957 0.1820
H28B H 0.8989 1.2338 0.1333
H29B H 0.9654 1.2205 0.1675
S4B S 0.60770(9) 1.19071(13) 0.12274(5)
O9B O 0.5472(5) 0.9911(6) -0.0238(3)
O10B O 0.5278(4) 1.0945(6) -0.05642(19)
N4B N 0.6474(5) 1.0830(6) 0.0546(3)
H7B H 0.6910 1.0888 0.0333
H8B H 0.6111 1.0259 0.0597
C16B C 0.5417(4) 1.1286(6) 0.0641(2)
C17B C 0.6007(4) 1.1190(6) 0.0262(2)
H30B H 0.6432 1.1767 0.0131
C18B C 0.5553(4) 1.0632(6) -0.0222(3)
C19B C 0.4711(5) 1.0435(8) 0.0822(3)
H31B H 0.4953 1.0116 0.0988
H32B H 0.4365 1.0118 0.0517
H33B H 0.4356 1.0517 0.1080
C20B C 0.5043(6) 1.1785(8) 0.0410(3)
H34B H 0.5500 1.2340 0.0292
H35B H 0.4701 1.1865 0.0679
H36B H 0.4682 1.1477 0.0107
S4D S -0.19071(13) 0.41699(9) 0.12274(5)
O9D O 0.0089(6) 0.5561(4) -0.0238(3)
O10D O -0.0945(6) 0.4333(4) -0.05642(19)
N4D N -0.0830(6) 0.5644(4) 0.0546(3)
H7D H -0.0888 0.6022 0.0333
H8D H -0.0259 0.5852 0.0597
C16D C -0.1286(6) 0.4131(4) 0.0641(2)
C17D C -0.1190(6) 0.4817(4) 0.0262(2)
H30D H -0.1767 0.4665 0.0131
C18D C -0.0632(6) 0.4921(5) -0.0222(3)
C19D C -0.0435(8) 0.4276(6) 0.0822(3)
H31D H -0.0116 0.4837 0.0988
H32D H -0.0118 0.4247 0.0517
H33D H -0.0517 0.3839 0.1080
C20D C -0.1785(8) 0.3258(5) 0.0410(3)
H34D H -0.2340 0.3160 0.0292
H35D H -0.1865 0.2836 0.0679
H36D H -0.1477 0.3205 0.0107
Pd2D Pd 0.86132(5) 0.55899(3) 0.12765(2)
Pd2B Pd 0.69767(4) 1.13868(5) 0.12765(2)
O13B O -0.066(2) -0.053(4) 0.2575(16)
O13D O 0.053(4) -0.013(3) 0.2575(16)
O14B O -0.1548(19) -0.1028(27) 0.1096(13)
O14D O 0.1028(27) -0.0520(19) 0.1096(13)
O5B_2 O -0.0883(10) 0.0428(14) 0.2138(6)
O5D_2 O -0.0428(14) -0.1311(10) 0.2138(6)
O6B_2 O -0.1152(12) 0.0395(17) 0.1323(8)
O6D_2 O -0.0395(17) -0.1547(12) 0.1323(8)
S1D S 0.74917(13) 0.27072(10) 0.34633(6)
S4B_2 S 0.60770(9) 0.19071(13) 0.12274(5)
S4D_2 S 0.80929(13) 0.41699(9) 0.12274(5)
Cu2D_2 Cu 0.81666(9) 0.50416(7) 0.27690(3)
Cu4B_2 Cu 0.53408(5) 0.18086(7) 0.19920(3)
S1D_2 S -0.25083(13) 0.27072(10) 0.34633(6)
N1D N -0.0984(6) 0.2919(4) 0.4030(2)
S1D_3 S 0.74917(13) 1.27072(10) 0.34633(6)
S1_2 S -0.27072(10) 0.47845(9) 0.34633(6)
S3D_2 S -0.20897(15) 0.55743(10) 0.20260(6)
S3_2 S 0.44257(10) 1.23360(11) 0.20260(6)
S3B_2 S -0.23360(11) 0.20897(15) 0.20260(6)
Pd1B_2 Pd 0.47110(3) 0.10764(4) 0.342606(18)
La2D La 1.0000 1.0000 0.15641(5)
Cu1B Cu 0.6667 1.3334 0.34301(6)
Cu2_2 Cu 0.49584(7) 1.31250(6) 0.27690(3)
Cu4D_2 Cu 0.81914(7) 1.35322(5) 0.19920(3)
Cu3B Cu 0.6667 1.3334 0.11633(5)
Pd2D_2 Pd -0.13868(5) 0.55899(3) 0.12765(2)
Cu3D Cu -0.3334 0.3333 0.11633(5)
N4D_2 N 0.9170(6) 0.5644(4) 0.0546(3)
H1D H -0.0537 0.2833 0.3958
H2D H -0.0862 0.3223 0.4340
H7D_2 H 0.9112 0.6022 0.0333
H8D_2 H 0.9741 0.5852 0.0597
O7? O 0.142(2) 0.149(2) 0.1859(13)
O8? O 0.1519(12) 0.0541(13) 0.1399(8)
O15? O 0.033(3) 0.075(2) 0.076(2)
O16? O 0.6844(5) 0.7518(4) 0.3493(4)
O31? O 0.2937(15) 0.1590(15) 0.0282(10)
O32? O 0.2323(14) -0.0151(15) 0.0585(10)
O33? O 0.1433(17) 0.1455(16) -0.0010(12)
loop_
_geom_bond_atom_site_label_1
_geom_bond_atom_site_label_2
_geom_bond_site_symmetry_1
_geom_bond_site_symmetry_2
La1 O3 1_555 1_555
La2 O5 1_555 1_555
Pd1 S1 1_555 1_555
Pd2 S3 1_555 1_555
Cu1 S1 1_555 1_555
Cu2 S2 1_555 1_555
Cu3 S4 1_555 1_555
Cu4 S2 1_555 1_555
S1 C1 1_555 1_555
S2 Pd1 1_555 1_555
S3 Cu2 1_555 1_555
S4 Pd2 1_555 1_555
O1 C3 1_555 1_555
O2 C3 1_555 1_555
O3 C8 1_555 1_555
O4 La1 1_555 1_555
O5 C13 1_555 1_555
O6 La2 1_555 1_555
O9 C18 1_555 1_555
O10 C18 1_555 1_555
O11 La1 1_555 1_555
O12 La1 1_555 1_555
O13 La2 1_555 1_555
O14 La2 1_555 1_555
N1 Pd1 1_555 1_555
H1 N1 1_555 1_555
H2 N1 1_555 1_555
N2 Pd1 1_555 1_555
H3 N2 1_555 1_555
H4 N2 1_555 1_555
N3 Pd2 1_555 1_555
H5 N3 1_555 1_555
H6 N3 1_555 1_555
N4 Pd2 1_555 1_555
H7 N4 1_555 1_555
H8 N4 1_555 1_555
C1 C2 1_555 1_555
C2 N1 1_555 1_555
H9 C2 1_555 1_555
C3 C2 1_555 1_555
C4 C1 1_555 1_555
H10 C4 1_555 1_555
H11 C4 1_555 1_555
H12 C4 1_555 1_555
C5 C1 1_555 1_555
H13 C5 1_555 1_555
H14 C5 1_555 1_555
H15 C5 1_555 1_555
C6 S2 1_555 1_555
C7 N2 1_555 1_555
H16 C7 1_555 1_555
C8 O4 1_555 1_555
C9 C6 1_555 1_555
H17 C9 1_555 1_555
H18 C9 1_555 1_555
H19 C9 1_555 1_555
C10 C6 1_555 1_555
H20 C10 1_555 1_555
H21 C10 1_555 1_555
H22 C10 1_555 1_555
C11 S3 1_555 1_555
C12 N3 1_555 1_555
H23 C12 1_555 1_555
C13 O6 1_555 1_555
C14 C11 1_555 1_555
H24 C14 1_555 1_555
H25 C14 1_555 1_555
H26 C14 1_555 1_555
C15 C11 1_555 1_555
H27 C15 1_555 1_555
H28 C15 1_555 1_555
H29 C15 1_555 1_555
C16 S4 1_555 1_555
C17 N4 1_555 1_555
H30 C17 1_555 1_555
C18 C17 1_555 1_555
C19 C16 1_555 1_555
H31 C19 1_555 1_555
H32 C19 1_555 1_555
H33 C19 1_555 1_555
C20 C16 1_555 1_555
H34 C20 1_555 1_555
H35 C20 1_555 1_555
H36 C20 1_555 1_555
S2B C6B 1_555 1_555
O3B La1 1_555 1_555
O4B La1 1_555 1_555
N2B H3B 1_555 1_555
H4B N2B 1_555 1_555
C6B C7B 1_555 1_555
C7B N2B 1_555 1_555
H16B C7B 1_555 1_555
C8B O3B 1_555 1_555
C9B C6B 1_555 1_555
H17B C9B 1_555 1_555
H18B C9B 1_555 1_555
H19B C9B 1_555 1_555
C10B C6B 1_555 1_555
H20B C10B 1_555 1_555
H21B C10B 1_555 1_555
H22B C10B 1_555 1_555
S2D C6D 1_555 1_555
O3D La1 1_555 1_555
O4D La1 1_555 1_555
N2D H3D 1_555 1_555
H4D N2D 1_555 1_555
C6D C7D 1_555 1_555
C7D N2D 1_555 1_555
H16D C7D 1_555 1_555
C8D O3D 1_555 1_555
C9D C6D 1_555 1_555
H17D C9D 1_555 1_555
H18D C9D 1_555 1_555
H19D C9D 1_555 1_555
C10D C6D 1_555 1_555
H20D C10D 1_555 1_555
H21D C10D 1_555 1_555
H22D C10D 1_555 1_555
O12B La1 1_555 1_555
O12D La1 1_555 1_555
Pd1B S2B 1_555 1_555
Pd1D S2D 1_555 1_555
Cu2B S2B 1_555 1_555
Cu2D S2D 1_555 1_555
Cu4B S2B 1_555 1_555
Cu4D S2D 1_555 1_555
S1B Cu1 1_555 1_555
O1B C3B 1_555 1_555
O2B C3B 1_555 1_555
N1B H1B 1_555 1_555
H2B N1B 1_555 1_555
C1B S1B 1_555 1_555
C2B N1B 1_555 1_555
H9B C2B 1_555 1_555
C3B C2B 1_555 1_555
C4B C1B 1_555 1_555
H10B C4B 1_555 1_555
H11B C4B 1_555 1_555
H12B C4B 1_555 1_555
C5B C1B 1_555 1_555
H13B C5B 1_555 1_555
H14B C5B 1_555 1_555
H15B C5B 1_555 1_555
S3D Cu4 1_555 1_555
O5D C13D 1_555 1_555
O6D C13D 1_555 1_555
N3D H5D 1_555 1_555
H6D N3D 1_555 1_555
C11D S3D 1_555 1_555
C12D N3D 1_555 1_555
H23D C12D 1_555 1_555
C13D C12D 1_555 1_555
C14D C11D 1_555 1_555
H24D C14D 1_555 1_555
H25D C14D 1_555 1_555
H26D C14D 1_555 1_555
C15D C11D 1_555 1_555
H27D C15D 1_555 1_555
H28D C15D 1_555 1_555
H29D C15D 1_555 1_555
S1B_2 Pd1B 1_555 1_555
O1B_2 C3B_2 1_555 1_555
O2B_2 C3B_2 1_555 1_555
N1B_2 Pd1B 1_555 1_555
H1B_2 N1B_2 1_555 1_555
H2B_2 N1B_2 1_555 1_555
C1B_2 S1B_2 1_555 1_555
C2B_2 N1B_2 1_555 1_555
H9B_2 C2B_2 1_555 1_555
C3B_2 C2B_2 1_555 1_555
C4B_2 C1B_2 1_555 1_555
H10B_2 C4B_2 1_555 1_555
H11B_2 C4B_2 1_555 1_555
H12B_2 C4B_2 1_555 1_555
C5B_2 C1B_2 1_555 1_555
H13B_2 C5B_2 1_555 1_555
H14B_2 C5B_2 1_555 1_555
H15B_2 C5B_2 1_555 1_555
S3B Cu2B 1_555 1_555
O5B C13B 1_555 1_555
O6B C13B 1_555 1_555
N3B H5B 1_555 1_555
H6B N3B 1_555 1_555
C11B S3B 1_555 1_555
C12B N3B 1_555 1_555
H23B C12B 1_555 1_555
C13B C12B 1_555 1_555
C14B C11B 1_555 1_555
H24B C14B 1_555 1_555
H25B C14B 1_555 1_555
H26B C14B 1_555 1_555
C15B C11B 1_555 1_555
H27B C15B 1_555 1_555
H28B C15B 1_555 1_555
H29B C15B 1_555 1_555
S4B Cu4B 1_555 1_555
O9B C18B 1_555 1_555
O10B C18B 1_555 1_555
N4B H7B 1_555 1_555
H8B N4B 1_555 1_555
C16B S4B 1_555 1_555
C17B N4B 1_555 1_555
H30B C17B 1_555 1_555
C18B C17B 1_555 1_555
C19B C16B 1_555 1_555
H31B C19B 1_555 1_555
H32B C19B 1_555 1_555
H33B C19B 1_555 1_555
C20B C16B 1_555 1_555
H34B C20B 1_555 1_555
H35B C20B 1_555 1_555
H36B C20B 1_555 1_555
S4D Cu4D 1_555 1_555
O9D C18D 1_555 1_555
O10D C18D 1_555 1_555
N4D H7D 1_555 1_555
H8D N4D 1_555 1_555
C16D S4D 1_555 1_555
C17D N4D 1_555 1_555
H30D C17D 1_555 1_555
C18D C17D 1_555 1_555
C19D C16D 1_555 1_555
H31D C19D 1_555 1_555
H32D C19D 1_555 1_555
H33D C19D 1_555 1_555
C20D C16D 1_555 1_555
H34D C20D 1_555 1_555
H35D C20D 1_555 1_555
H36D C20D 1_555 1_555
Pd2D S3D 1_555 1_555
Pd2B S3B 1_555 1_555
O13B La2 1_555 1_555
O13D La2 1_555 1_555
O14B La2 1_555 1_555
O14D La2 1_555 1_555
O5B_2 La2 1_555 1_555
O5D_2 La2 1_555 1_555
O6B_2 La2 1_555 1_555
O6D_2 La2 1_555 1_555
S1D Cu1 1_555 1_555
S4B_2 Cu3 1_555 1_555
S4D_2 Cu3 1_555 1_555
Cu2D_2 S1 1_555 1_555
Cu4B_2 S3 1_555 1_555
S1D_2 Pd1D 1_555 1_555
N1D Pd1D 1_555 1_555
S1D_3 Cu2B 1_555 1_555
S1_2 Cu2D 1_555 1_555
S3D_2 Cu2D 1_555 1_555
S3_2 Cu4B 1_555 1_555
S3B_2 Cu4D 1_555 1_555
Pd1B_2 S1B 1_555 1_555
La2D O5D 1_555 1_555
Cu1B S1B_2 1_555 1_555
Cu2_2 S1B_2 1_555 1_555
Cu4D_2 S3B 1_555 1_555
Cu3B S4B 1_555 1_555
Pd2D_2 S4D 1_555 1_555
Cu3D S4D 1_555 1_555
N4D_2 Pd2D 1_555 1_555
H1D N1D 1_555 1_555
H2D N1D 1_555 1_555
H7D_2 N4D_2 1_555 1_555
H8D_2 N4D_2 1_555 1_555
Cu2 S1B 1_555 1_555
Cu4 S4 1_555 1_555
C6 C7 1_555 1_555
C7 C8 1_555 1_555
C11 C12 1_555 1_555
C12 C13 1_555 1_555
C16 C17 1_555 1_555
O4B C8B 1_555 1_555
N2B Pd1B 1_555 1_555
C7B C8B 1_555 1_555
O4D C8D 1_555 1_555
N2D Pd1D 1_555 1_555
C7D C8D 1_555 1_555
N1B Pd1B_2 1_555 1_555
C1B C2B 1_555 1_555
S3D Cu2D_2 1_555 1_555
O6D La2D 1_555 1_555
N3D Pd2D 1_555 1_555
C11D C12D 1_555 1_555
C1B_2 C2B_2 1_555 1_555
O5B La2D 1_555 1_555
O6B La2D 1_555 1_555
N3B Pd2B 1_555 1_555
C11B C12B 1_555 1_555
S4B Pd2B 1_555 1_555
N4B Pd2B 1_555 1_555
C16B C17B 1_555 1_555
N4D Pd2D_2 1_555 1_555
C16D C17D 1_555 1_555
Pd2D S4D_2 1_555 1_555
S4B_2 Cu4B_2 1_555 1_555
S1D_3 Cu1B 1_555 1_555
S3D_2 Pd2D_2 1_555 1_555
S3_2 Cu2_2 1_555 1_555

#END
