
#######################################################################
#
#                 Cambridge Crystallographic Data Centre
#                                CCDC 
#
#######################################################################
#
# If this CIF has been generated from an entry in the Cambridge 
# Structural Database, then it will include bibliographic, chemical, 
# crystal, experimental, refinement or atomic coordinate data resulting 
# from the CCDC's data processing and validation procedures.
#
#######################################################################

data_OLEGOC
_symmetry_cell_setting           triclinic
_symmetry_space_group_name_H-M   'P -1'
_symmetry_Int_Tables_number      2
_space_group_name_Hall           '-P 1'
loop_
_symmetry_equiv_pos_site_id
_symmetry_equiv_pos_as_xyz
1 x,y,z
2 -x,-y,-z
_cell_length_a                   9.444(3)
_cell_length_b                   10.021(3)
_cell_length_c                   12.670(3)
_cell_angle_alpha                74.024(2)
_cell_angle_beta                 78.452(2)
_cell_angle_gamma                66.042(2)
_cell_volume                     1048.09
loop_
_atom_site_label
_atom_site_type_symbol
_atom_site_fract_x
_atom_site_fract_y
_atom_site_fract_z
Pu1 Pu -0.309260(18) -0.449810(17) -0.491110(13)
P1 P -0.58757(13) -0.38511(13) -0.31471(10)
P2 P 0.01696(13) -0.49303(13) -0.68278(10)
P3 P -0.40691(14) -0.75721(13) -0.32064(10)
P4 P -0.16239(14) -0.14863(13) -0.62350(11)
O1 O -0.1203(4) -0.5349(4) -0.6213(3)
O2 O 0.1064(4) -0.4617(4) -0.6129(3)
O3 O -0.5304(4) -0.7408(4) -0.3891(3)
O4 O -0.5848(4) -0.4419(4) -0.4166(3)
O5 O -0.7280(4) -0.2477(4) -0.2955(3)
O6 O -0.2054(4) -0.2677(4) -0.5401(3)
O7 O -0.2921(4) -0.6831(4) -0.3791(3)
O8 O -0.4348(4) -0.3570(4) -0.3374(3)
O9 O -0.3088(4) -0.9262(4) -0.2810(3)
O10 O -0.2940(4) 0.0050(4) -0.6223(3)
C1 C -0.5784(5) -0.5338(5) -0.1942(4)
C2 C -0.4995(5) -0.6872(5) -0.1968(4)
O12 O 0.1273(4) -0.6182(4) -0.7441(3)
O13 O -0.0153(4) -0.1296(4) -0.6009(3)
C3 C -0.0553(5) -0.3243(5) -0.7868(4)
C4 C -0.1289(6) -0.1813(6) -0.7611(4)
C5 C -0.0362(6) -0.3356(6) -0.8967(4)
H1 H 0.0105 -0.4316 -0.9143
C6 C -0.1771(6) -0.0552(6) -0.8468(5)
H2 H -0.2272 0.0412 -0.8302
C7 C -0.0842(7) -0.2088(7) -0.9807(5)
H3 H -0.0699 -0.2184 -1.0550
C8 C -0.1527(7) -0.0690(7) -0.9559(5)
H4 H -0.1832 0.0179 -1.0134
C9 C -0.4951(6) -0.7922(6) -0.0976(4)
H5 H -0.4455 -0.8957 -0.0980
C10 C -0.6468(6) -0.4924(6) -0.0941(4)
H6 H -0.7008 -0.3895 -0.0929
C11 C -0.6372(7) -0.5994(6) 0.0041(4)
H7 H -0.6822 -0.5696 0.0721
C12 C -0.5618(6) -0.7487(6) 0.0020(4)
H8 H -0.5553 -0.8223 0.0687
Pu1A Pu 0.309260(18) -0.550190(17) -0.508890(13)
Pu1A_2 Pu -0.690740(18) -0.550190(17) -0.508890(13)
O2A O -0.1064(4) -0.5383(4) -0.3871(3)
O3A O -0.4696(4) -0.2592(4) -0.6109(3)
O4A O -0.4152(4) -0.5581(4) -0.5834(3)
O11 O -1.0358(4) -0.1813(4) -0.2535(3)
H9 H -1.088(9) -0.094(9) -0.273(6)
H10 H -0.942(9) -0.201(8) -0.274(6)
O14 O -0.5727(5) 0.1058(4) -0.7163(4)
H11 H -0.494(9) 0.067(8) -0.681(6)
H12 H -0.639(9) 0.178(9) -0.688(6)
loop_
_geom_bond_atom_site_label_1
_geom_bond_atom_site_label_2
_geom_bond_site_symmetry_1
_geom_bond_site_symmetry_2
Pu1 O1 1_555 1_555
P1 O4 1_555 1_555
P2 O1 1_555 1_555
P3 O3 1_555 1_555
P4 O6 1_555 1_555
O2 P2 1_555 1_555
O3 Pu1A_2 1_555 1_555
O4 Pu1 1_555 1_555
O5 P1 1_555 1_555
O6 Pu1 1_555 1_555
O7 Pu1 1_555 1_555
O8 Pu1 1_555 1_555
O9 P3 1_555 1_555
O10 P4 1_555 1_555
C1 P1 1_555 1_555
C2 P3 1_555 1_555
O11 H9 1_555 1_555
O12 P2 1_555 1_555
O13 P4 1_555 1_555
O14 H11 1_555 1_555
C3 P2 1_555 1_555
C4 P4 1_555 1_555
C5 C3 1_555 1_555
H1 C5 1_555 1_555
C6 C4 1_555 1_555
H2 C6 1_555 1_555
C7 C5 1_555 1_555
H3 C7 1_555 1_555
C8 C6 1_555 1_555
H4 C8 1_555 1_555
C9 C2 1_555 1_555
H5 C9 1_555 1_555
C10 C1 1_555 1_555
H6 C10 1_555 1_555
C11 C10 1_555 1_555
H7 C11 1_555 1_555
C12 C9 1_555 1_555
H8 C12 1_555 1_555
H10 O11 1_555 1_555
H12 O14 1_555 1_555
Pu1A O2 1_555 1_555
Pu1A_2 O4 1_555 1_555
O2A Pu1 1_555 1_555
O3A Pu1 1_555 1_555
O4A Pu1 1_555 1_555
P1 O8 1_555 1_555
P3 O7 1_555 1_555
C1 C2 1_555 1_555
C3 C4 1_555 1_555
C7 C8 1_555 1_555
C11 C12 1_555 1_555
Pu1A_2 O4A 1_555 1_555

#END
