
#######################################################################
#
#                 Cambridge Crystallographic Data Centre
#                                CCDC 
#
#######################################################################
#
# If this CIF has been generated from an entry in the Cambridge 
# Structural Database, then it will include bibliographic, chemical, 
# crystal, experimental, refinement or atomic coordinate data resulting 
# from the CCDC's data processing and validation procedures.
#
#######################################################################

data_OLEGES
_symmetry_cell_setting           triclinic
_symmetry_space_group_name_H-M   'P -1'
_symmetry_Int_Tables_number      2
_space_group_name_Hall           '-P 1'
loop_
_symmetry_equiv_pos_site_id
_symmetry_equiv_pos_as_xyz
1 x,y,z
2 -x,-y,-z
_cell_length_a                   9.4667(12)
_cell_length_b                   10.0445(13)
_cell_length_c                   12.6712(16)
_cell_angle_alpha                74.042(2)
_cell_angle_beta                 78.299(2)
_cell_angle_gamma                65.809(1)
_cell_volume                     1051.12
loop_
_atom_site_label
_atom_site_type_symbol
_atom_site_fract_x
_atom_site_fract_y
_atom_site_fract_z
Ce1 Ce 0.68916(3) 0.54935(3) 0.50875(2)
P1 P 0.59317(14) 0.24198(14) 0.67987(10)
P2 P 1.01804(14) 0.50732(14) 0.31766(10)
P3 P 0.83728(15) 0.85080(14) 0.37733(11)
O1 O 0.8803(4) 0.4655(4) 0.3801(3)
O2 O 0.7076(4) 0.3162(4) 0.6211(3)
O3 O 1.1070(4) 0.5394(4) 0.3866(3)
O4 O 0.4162(4) 0.5585(3) 0.5847(3)
O5 O 0.4701(4) 0.2592(4) 0.6124(3)
O6 O 0.7939(4) 0.7327(4) 0.4614(3)
P4 P 0.41347(14) 0.61473(14) 0.68651(10)
O7 O 0.5658(4) 0.6423(4) 0.6636(3)
O9 O 0.6905(4) 0.0729(4) 0.7192(3)
O10 O 0.9845(4) 0.8692(4) 0.3992(3)
O11 O 1.1278(4) 0.3813(4) 0.2566(3)
O12 O 0.2727(4) 0.7522(4) 0.7052(3)
O13 O 0.7053(4) 1.0056(4) 0.3782(3)
C1 C 0.4219(5) 0.4665(5) 0.8067(4)
C2 C 0.9450(6) 0.6746(6) 0.2141(4)
C3 C 0.3540(6) 0.5071(6) 0.9071(4)
H1 H 0.2993 0.6098 0.9089
C4 C 0.8702(6) 0.8179(6) 0.2401(4)
C5 C 0.4992(5) 0.3134(5) 0.8034(4)
C6 C 0.5038(6) 0.2077(6) 0.9027(4)
H2 H 0.5525 0.1044 0.9015
C7 C 0.4392(6) 0.2497(6) 1.0027(4)
H3 H 0.4460 0.1760 1.0691
C8 C 0.3650(6) 0.3994(6) 1.0049(4)
H4 H 0.3214 0.4290 1.0732
C9 C 0.8227(6) 0.9444(6) 0.1541(4)
H5 H 0.7731 1.0409 0.1706
C10 C 0.9647(6) 0.6643(6) 0.1046(4)
H6 H 1.0126 0.5685 0.0868
C11 C 0.8471(6) 0.9304(7) 0.0449(5)
H7 H 0.8164 1.0170 -0.0126
C12 C 0.9159(6) 0.7909(7) 0.0202(5)
H8 H 0.9301 0.7810 -0.0541
Ce1A Ce 1.31084(3) 0.45065(3) 0.49125(2)
Ce1A_2 Ce 0.31084(3) 0.45065(3) 0.49125(2)
O3A O 0.8930(4) 0.4606(4) 0.6134(3)
O4A O 0.5838(4) 0.4415(3) 0.4153(3)
O5A O 0.5299(4) 0.7408(4) 0.3876(3)
O8 O 1.0356(4) 0.1826(4) 0.2533(3)
H11 H 1.094(7) 0.087(7) 0.276(5)
H12 H 0.951(7) 0.197(7) 0.270(5)
O14 O 0.4256(4) 1.1068(4) 0.2845(3)
H9 H 0.486(7) 1.075(7) 0.326(5)
H10 H 0.354(7) 1.209(7) 0.306(5)
loop_
_geom_bond_atom_site_label_1
_geom_bond_atom_site_label_2
_geom_bond_site_symmetry_1
_geom_bond_site_symmetry_2
Ce1 O1 1_555 1_555
P1 O2 1_555 1_555
P2 O1 1_555 1_555
P3 O6 1_555 1_555
O2 Ce1 1_555 1_555
O3 P2 1_555 1_555
O4 Ce1 1_555 1_555
O5 P1 1_555 1_555
O6 Ce1 1_555 1_555
P4 O4 1_555 1_555
O7 Ce1 1_555 1_555
O8 H11 1_555 1_555
O9 P1 1_555 1_555
O10 P3 1_555 1_555
O11 P2 1_555 1_555
O12 P4 1_555 1_555
O13 P3 1_555 1_555
C1 P4 1_555 1_555
C2 P2 1_555 1_555
C3 C1 1_555 1_555
H1 C3 1_555 1_555
C4 P3 1_555 1_555
C5 P1 1_555 1_555
C6 C5 1_555 1_555
H2 C6 1_555 1_555
C7 C6 1_555 1_555
H3 C7 1_555 1_555
C8 C3 1_555 1_555
H4 C8 1_555 1_555
C9 C4 1_555 1_555
H5 C9 1_555 1_555
C10 C2 1_555 1_555
H6 C10 1_555 1_555
O14 H9 1_555 1_555
C11 C9 1_555 1_555
H7 C11 1_555 1_555
C12 C10 1_555 1_555
H8 C12 1_555 1_555
H10 O14 1_555 1_555
H12 O8 1_555 1_555
Ce1A O3 1_555 1_555
Ce1A_2 O4 1_555 1_555
O3A Ce1 1_555 1_555
O4A Ce1 1_555 1_555
O5A Ce1 1_555 1_555
O5 Ce1A_2 1_555 1_555
P4 O7 1_555 1_555
C1 C5 1_555 1_555
C2 C4 1_555 1_555
C7 C8 1_555 1_555
C11 C12 1_555 1_555
Ce1A_2 O4A 1_555 1_555

#END
