
#######################################################################
#
#                 Cambridge Crystallographic Data Centre
#                                CCDC 
#
#######################################################################
#
# If this CIF has been generated from an entry in the Cambridge 
# Structural Database, then it will include bibliographic, chemical, 
# crystal, experimental, refinement or atomic coordinate data resulting 
# from the CCDC's data processing and validation procedures.
#
#######################################################################

data_OLERUS
_symmetry_cell_setting           monoclinic
_symmetry_space_group_name_H-M   'P 21/c'
_symmetry_Int_Tables_number      14
_space_group_name_Hall           '-P 2ybc'
loop_
_symmetry_equiv_pos_site_id
_symmetry_equiv_pos_as_xyz
1 x,y,z
2 x,1/2-y,1/2+z
3 -x,-y,-z
4 -x,1/2+y,1/2-z
_cell_length_a                   11.0015(2)
_cell_length_b                   8.3934(1)
_cell_length_c                   8.9823(1)
_cell_angle_alpha                90
_cell_angle_beta                 105.989(1)
_cell_angle_gamma                90
_cell_volume                     797.339
loop_
_atom_site_label
_atom_site_type_symbol
_atom_site_fract_x
_atom_site_fract_y
_atom_site_fract_z
Br1 Br -0.21365(2) 0.09049(3) -0.01586(3)
Cu1 Cu 0.0000 0.0000 0.0000
O1 O 0.4010(2) 0.3796(3) 0.0731(3)
N1 N 0.1406(2) 0.4279(3) -0.0309(3)
N2 N 0.0669(2) 0.2972(3) -0.0732(3)
N3 N 0.0184(2) 0.3047(3) -0.2207(3)
N4 N 0.0594(2) 0.4387(3) -0.2768(3)
C1 C 0.1358(3) 0.5127(3) -0.1574(3)
H1 H 0.1796 0.6095 -0.1613
C2 C 0.2136(3) 0.4561(3) 0.1303(3)
H2 H 0.2416 0.5686 0.1428
H3 H 0.1593 0.4364 0.1998
C3 C 0.3272(3) 0.3483(4) 0.1748(4)
H4 H 0.3001 0.2354 0.1664
H5 H 0.3766 0.3693 0.2829
C4 C 0.5097(4) 0.2820(6) 0.1005(5)
H6 H 0.4848 0.1699 0.1004
H7 H 0.5517 0.2996 0.0189
H8 H 0.5679 0.3089 0.2012
Br1B Br 0.21365(2) -0.09049(3) 0.01586(3)
O1B O -0.4010(2) -0.3796(3) -0.0731(3)
N1B N -0.1406(2) -0.4279(3) 0.0309(3)
N2B N -0.0669(2) -0.2972(3) 0.0732(3)
N3B N -0.0184(2) -0.3047(3) 0.2207(3)
N4B N -0.0594(2) -0.4387(3) 0.2768(3)
C1B C -0.1358(3) -0.5127(3) 0.1574(3)
H1B H -0.1796 -0.6095 0.1613
C2B C -0.2136(3) -0.4561(3) -0.1303(3)
H2B H -0.2416 -0.5686 -0.1428
H3B H -0.1593 -0.4364 -0.1998
C3B C -0.3272(3) -0.3483(4) -0.1748(4)
H4B H -0.3001 -0.2354 -0.1664
H5B H -0.3766 -0.3693 -0.2829
C4B C -0.5097(4) -0.2820(6) -0.1005(5)
H6B H -0.4848 -0.1699 -0.1004
H7B H -0.5517 -0.2996 -0.0189
H8B H -0.5679 -0.3089 -0.2012
N4A N 0.0594(2) 0.0613(3) 0.2232(3)
N4C N -0.0594(2) -0.0613(3) -0.2232(3)
Cu1A Cu 0.0000 0.5000 -0.5000
Cu1A_2 Cu 0.0000 -0.5000 0.5000
loop_
_geom_bond_atom_site_label_1
_geom_bond_atom_site_label_2
_geom_bond_site_symmetry_1
_geom_bond_site_symmetry_2
Br1 Cu1 1_555 1_555
Cu1 N2 1_555 1_555
O1 C3 1_555 1_555
N1 N2 1_555 1_555
N2 N3 1_555 1_555
N3 N4 1_555 1_555
N4 C1 1_555 1_555
C1 N1 1_555 1_555
H1 C1 1_555 1_555
C2 N1 1_555 1_555
H2 C2 1_555 1_555
H3 C2 1_555 1_555
C3 C2 1_555 1_555
H4 C3 1_555 1_555
H5 C3 1_555 1_555
C4 O1 1_555 1_555
H6 C4 1_555 1_555
H7 C4 1_555 1_555
H8 C4 1_555 1_555
Br1B Cu1 1_555 1_555
O1B C3B 1_555 1_555
N1B N2B 1_555 1_555
N2B Cu1 1_555 1_555
N3B N2B 1_555 1_555
N4B N3B 1_555 1_555
C1B N1B 1_555 1_555
H1B C1B 1_555 1_555
C2B N1B 1_555 1_555
H2B C2B 1_555 1_555
H3B C2B 1_555 1_555
C3B C2B 1_555 1_555
H4B C3B 1_555 1_555
H5B C3B 1_555 1_555
C4B O1B 1_555 1_555
H6B C4B 1_555 1_555
H7B C4B 1_555 1_555
H8B C4B 1_555 1_555
N4A Cu1 1_555 1_555
N4C Cu1 1_555 1_555
Cu1A N4 1_555 1_555
Cu1A_2 N4B 1_555 1_555
N4B C1B 1_555 1_555

#END
