
#######################################################################
#
#                 Cambridge Crystallographic Data Centre
#                                CCDC 
#
#######################################################################
#
# If this CIF has been generated from an entry in the Cambridge 
# Structural Database, then it will include bibliographic, chemical, 
# crystal, experimental, refinement or atomic coordinate data resulting 
# from the CCDC's data processing and validation procedures.
#
#######################################################################

data_OLERUS02
_symmetry_cell_setting           monoclinic
_symmetry_space_group_name_H-M   'P 21/c'
_symmetry_Int_Tables_number      14
_space_group_name_Hall           '-P 2ybc'
loop_
_symmetry_equiv_pos_site_id
_symmetry_equiv_pos_as_xyz
1 x,y,z
2 x,1/2-y,1/2+z
3 -x,-y,-z
4 -x,1/2+y,1/2-z
_cell_length_a                   11.116(7)
_cell_length_b                   8.489(5)
_cell_length_c                   9.023(5)
_cell_angle_alpha                90
_cell_angle_beta                 106.293(12)
_cell_angle_gamma                90
_cell_volume                     817.25
loop_
_atom_site_label
_atom_site_type_symbol
_atom_site_fract_x
_atom_site_fract_y
_atom_site_fract_z
Br1 Br -0.210514(19) 0.09209(3) -0.01560(2)
Cu1 Cu 0.0000 0.0000 0.0000
O1 O 0.4000(2) 0.3769(4) 0.0763(3)
N1 N 0.14167(16) 0.42758(19) -0.03214(18)
N2 N 0.07013(18) 0.2977(2) -0.0742(2)
N3 N 0.02075(18) 0.3054(2) -0.2211(2)
N4 N 0.05986(16) 0.43869(19) -0.27688(18)
C1 C 0.13509(19) 0.5123(2) -0.1585(2)
H1 H 0.1764 0.6068 -0.1624
C2 C 0.2141(2) 0.4560(3) 0.1280(2)
H2 H 0.2427 0.5645 0.1391
H3 H 0.1609 0.4399 0.1954
C3 C 0.3248(2) 0.3483(3) 0.1753(3)
H4 H 0.2973 0.2394 0.1669
H5 H 0.3718 0.3687 0.2815
C4 C 0.5083(3) 0.2777(8) 0.1091(6)
H6 H 0.4825 0.1694 0.0971
H7 H 0.5566 0.3017 0.0389
H8 H 0.5584 0.2955 0.2132
Br1B Br 0.210514(19) -0.09209(3) 0.01560(2)
O1B O -0.4000(2) -0.3769(4) -0.0763(3)
N1B N -0.14167(16) -0.42758(19) 0.03214(18)
N2B N -0.07013(18) -0.2977(2) 0.0742(2)
N3B N -0.02075(18) -0.3054(2) 0.2211(2)
N4B N -0.05986(16) -0.43869(19) 0.27688(18)
C1B C -0.13509(19) -0.5123(2) 0.1585(2)
H1B H -0.1764 -0.6068 0.1624
C2B C -0.2141(2) -0.4560(3) -0.1280(2)
H2B H -0.2427 -0.5645 -0.1391
H3B H -0.1609 -0.4399 -0.1954
C3B C -0.3248(2) -0.3483(3) -0.1753(3)
H4B H -0.2973 -0.2394 -0.1669
H5B H -0.3718 -0.3687 -0.2815
C4B C -0.5083(3) -0.2777(8) -0.1091(6)
H6B H -0.4825 -0.1694 -0.0971
H7B H -0.5566 -0.3017 -0.0389
H8B H -0.5584 -0.2955 -0.2132
N4A N 0.05986(16) 0.06131(19) 0.22312(18)
N4C N -0.05986(16) -0.06131(19) -0.22312(18)
Cu1A Cu 0.0000 0.5000 -0.5000
Cu1A_2 Cu 0.0000 -0.5000 0.5000
loop_
_geom_bond_atom_site_label_1
_geom_bond_atom_site_label_2
_geom_bond_site_symmetry_1
_geom_bond_site_symmetry_2
Br1 Cu1 1_555 1_555
Cu1 N2 1_555 1_555
O1 C3 1_555 1_555
N1 N2 1_555 1_555
N2 N3 1_555 1_555
N3 N4 1_555 1_555
N4 C1 1_555 1_555
C1 N1 1_555 1_555
H1 C1 1_555 1_555
C2 N1 1_555 1_555
H2 C2 1_555 1_555
H3 C2 1_555 1_555
C3 C2 1_555 1_555
H4 C3 1_555 1_555
H5 C3 1_555 1_555
C4 O1 1_555 1_555
H6 C4 1_555 1_555
H7 C4 1_555 1_555
H8 C4 1_555 1_555
Br1B Cu1 1_555 1_555
O1B C3B 1_555 1_555
N1B N2B 1_555 1_555
N2B Cu1 1_555 1_555
N3B N2B 1_555 1_555
N4B N3B 1_555 1_555
C1B N1B 1_555 1_555
H1B C1B 1_555 1_555
C2B N1B 1_555 1_555
H2B C2B 1_555 1_555
H3B C2B 1_555 1_555
C3B C2B 1_555 1_555
H4B C3B 1_555 1_555
H5B C3B 1_555 1_555
C4B O1B 1_555 1_555
H6B C4B 1_555 1_555
H7B C4B 1_555 1_555
H8B C4B 1_555 1_555
N4A Cu1 1_555 1_555
N4C Cu1 1_555 1_555
Cu1A N4 1_555 1_555
Cu1A_2 N4B 1_555 1_555
N4B C1B 1_555 1_555

#END
