
#######################################################################
#
#                 Cambridge Crystallographic Data Centre
#                                CCDC 
#
#######################################################################
#
# If this CIF has been generated from an entry in the Cambridge 
# Structural Database, then it will include bibliographic, chemical, 
# crystal, experimental, refinement or atomic coordinate data resulting 
# from the CCDC's data processing and validation procedures.
#
#######################################################################

data_OLESED
_symmetry_cell_setting           monoclinic
_symmetry_space_group_name_H-M   'P 21/n'
_symmetry_Int_Tables_number      14
_space_group_name_Hall           '-P 2yn'
loop_
_symmetry_equiv_pos_site_id
_symmetry_equiv_pos_as_xyz
1 x,y,z
2 1/2+x,1/2-y,1/2+z
3 -x,-y,-z
4 1/2-x,1/2+y,1/2-z
_cell_length_a                   12.0458(5)
_cell_length_b                   15.2355(4)
_cell_length_c                   21.0978(9)
_cell_angle_alpha                90
_cell_angle_beta                 95.409(2)
_cell_angle_gamma                90
_cell_volume                     3854.71
loop_
_atom_site_label
_atom_site_type_symbol
_atom_site_fract_x
_atom_site_fract_y
_atom_site_fract_z
Cu1 Cu 0.04803(8) 0.11635(7) 0.11296(4)
Fe1 Fe 0.28193(9) 0.28277(8) -0.06478(5)
C1 C 0.8435(7) 0.0994(6) 1.0331(4)
H1 H 0.8120 0.0991 1.0717
C2 C 0.9969(6) 0.1053(6) 0.9776(4)
H2 H 1.0739 0.1088 0.9773
C3 C 0.7729(6) 0.0937(5) 0.9766(3)
H3 H 0.6962 0.0894 0.9779
C4 C 0.9315(6) 0.1005(6) 0.9193(3)
H4 H 0.9648 0.1013 0.8813
C5 C 0.8181(6) 0.0945(5) 0.9187(3)
C6 C 0.7446(6) 0.0906(5) 0.8572(3)
C7 C 0.6412(6) 0.0514(6) 0.8553(3)
H5 H 0.6181 0.0242 0.8913
C8 C 0.7793(6) 0.1255(6) 0.8017(3)
H6 H 0.8502 0.1497 0.8020
C9 C 0.5725(6) 0.0534(6) 0.7989(3)
H7 H 0.5013 0.0294 0.7972
C10 C 0.7093(6) 0.1243(5) 0.7461(3)
H8 H 0.7327 0.1474 0.7088
C11 C 0.5338(5) 0.0921(5) 0.6878(3)
C12 C 0.4429(5) 0.1509(5) 0.6830(3)
C13 C 0.4160(6) 0.2091(6) 0.7301(4)
H9 H 0.4592 0.2112 0.7690
C14 C 0.3262(7) 0.2630(6) 0.7191(4)
H10 H 0.3082 0.3020 0.7504
C15 C 0.2615(7) 0.2597(7) 0.6611(4)
H11 H 0.1992 0.2958 0.6546
C16 C 0.2868(6) 0.2047(6) 0.6133(4)
H12 H 0.2436 0.2046 0.5744
C17 C 0.3776(5) 0.1494(5) 0.6236(3)
C18 C 0.4159(5) 0.0909(5) 0.5786(3)
C19 C 0.2919(6) 0.0244(5) 0.4945(3)
H13 H 0.2783 -0.0213 0.5220
C20 C 0.3852(6) 0.1541(6) 0.4738(3)
H14 H 0.4363 0.1974 0.4876
C21 C 0.2409(6) 0.0250(5) 0.4333(3)
H15 H 0.1921 -0.0201 0.4199
C22 C 0.3366(6) 0.1564(6) 0.4142(3)
H16 H 0.3533 0.2018 0.3872
C23 C 0.2610(5) 0.0911(5) 0.3919(3)
C24 C 0.2091(5) 0.0932(5) 0.3254(3)
C25 C 0.1016(6) 0.0640(6) 0.3090(3)
H17 H 0.0610 0.0399 0.3401
C26 C 0.2656(6) 0.1282(6) 0.2771(3)
H18 H 0.3379 0.1494 0.2858
C27 C 0.0544(6) 0.0701(6) 0.2481(3)
H19 H -0.0180 0.0497 0.2386
C28 C 0.2145(6) 0.1315(6) 0.2168(3)
H20 H 0.2552 0.1533 0.1850
C29 C 0.5046(7) 0.3243(7) -0.0332(4)
C30 C 0.1714(6) 0.2585(6) 0.0455(4)
C31 C 0.2394(6) 0.1734(6) 0.0379(4)
C32 C 0.5011(7) 0.2654(6) -0.0923(4)
C33 C 0.1005(7) 0.2696(7) -0.1599(4)
C34 C 0.1432(7) 0.3632(8) -0.1633(4)
N1 N 0.1094(5) 0.1053(4) 0.2003(3)
N2 N 0.9537(5) 0.1051(5) 1.0338(3)
N3 N 0.6088(4) 0.0902(4) 0.7465(2)
N4 N 0.5624(5) 0.0378(4) 0.6449(3)
N5 N 0.5008(5) 0.0370(5) 0.5873(2)
N6 N 0.3608(4) 0.0896(4) 0.5142(2)
O1 O 0.2310(4) 0.1111(4) 0.0732(2)
O2 O 0.1103(5) 0.2628(4) 0.0887(3)
O3 O 0.1815(4) 0.3160(4) 0.0030(3)
O4 O 0.3029(4) 0.1767(4) -0.0084(3)
O5 O 0.1067(6) 0.4146(5) -0.2041(3)
O6 O 0.0182(5) 0.2468(5) -0.1941(3)
O7 O 0.2255(5) 0.3841(4) -0.1203(3)
O8 O 0.1593(4) 0.2212(4) -0.1204(3)
O9 O 0.5857(5) 0.2452(4) -0.1169(3)
O10 O 0.5916(5) 0.3438(5) -0.0033(3)
O11 O 0.4027(5) 0.2431(4) -0.1149(2)
O12 O 0.4074(5) 0.3481(4) -0.0192(3)
N2_2 N -0.0463(5) 0.1051(5) 0.0338(3)
Cu1_2 Cu 1.04803(8) 0.11635(7) 1.11296(4)
O13 O -0.5210(8) 0.1673(7) -0.8232(4)
O14 O -1.0781(11) -0.0360(10) -0.5966(6)
O15 O -1.1917(10) -0.0254(8) -0.7086(6)
O16 O -0.1082(11) 0.1746(10) -0.3688(6)
O17 O -0.1959(12) -0.0391(11) 0.1627(7)
O18 O -0.3994(13) 0.0508(11) 0.1091(7)
O19 O -0.5164(16) 0.0576(12) -0.0014(9)
loop_
_geom_bond_atom_site_label_1
_geom_bond_atom_site_label_2
_geom_bond_site_symmetry_1
_geom_bond_site_symmetry_2
Cu1 N1 1_555 1_555
Fe1 O3 1_555 1_555
C1 H1 1_555 1_555
C2 H2 1_555 1_555
C3 C1 1_555 1_555
H3 C3 1_555 1_555
C4 C2 1_555 1_555
H4 C4 1_555 1_555
C5 C3 1_555 1_555
C6 C5 1_555 1_555
C7 C6 1_555 1_555
H5 C7 1_555 1_555
C8 C6 1_555 1_555
H6 C8 1_555 1_555
C9 C7 1_555 1_555
H7 C9 1_555 1_555
C10 C8 1_555 1_555
H8 C10 1_555 1_555
C11 C12 1_555 1_555
C12 C13 1_555 1_555
C13 H9 1_555 1_555
C14 C13 1_555 1_555
H10 C14 1_555 1_555
C15 C14 1_555 1_555
H11 C15 1_555 1_555
C16 C15 1_555 1_555
H12 C16 1_555 1_555
C17 C12 1_555 1_555
C18 C17 1_555 1_555
C19 H13 1_555 1_555
C20 H14 1_555 1_555
C21 C19 1_555 1_555
H15 C21 1_555 1_555
C22 C20 1_555 1_555
H16 C22 1_555 1_555
C23 C21 1_555 1_555
C24 C23 1_555 1_555
C25 C24 1_555 1_555
H17 C25 1_555 1_555
C26 C24 1_555 1_555
H18 C26 1_555 1_555
C27 C25 1_555 1_555
H19 C27 1_555 1_555
C28 C26 1_555 1_555
H20 C28 1_555 1_555
C29 C32 1_555 1_555
C30 C31 1_555 1_555
C31 O1 1_555 1_555
C32 O9 1_555 1_555
C33 C34 1_555 1_555
C34 O5 1_555 1_555
N1 C27 1_555 1_555
N2 C1 1_555 1_555
N3 C9 1_555 1_555
N4 C11 1_555 1_555
N5 C18 1_555 1_555
N6 C18 1_555 1_555
O1 Cu1 1_555 1_555
O2 Cu1 1_555 1_555
O3 C30 1_555 1_555
O4 Fe1 1_555 1_555
O6 C33 1_555 1_555
O7 Fe1 1_555 1_555
O8 Fe1 1_555 1_555
O10 C29 1_555 1_555
O11 Fe1 1_555 1_555
O12 Fe1 1_555 1_555
N2_2 Cu1 1_555 1_555
Cu1_2 N2 1_555 1_555
C2 N2 1_555 1_555
C4 C5 1_555 1_555
C10 N3 1_555 1_555
C11 N3 1_555 1_555
C16 C17 1_555 1_555
C19 N6 1_555 1_555
C20 N6 1_555 1_555
C22 C23 1_555 1_555
C28 N1 1_555 1_555
C29 O12 1_555 1_555
C30 O2 1_555 1_555
C31 O4 1_555 1_555
C32 O11 1_555 1_555
C33 O8 1_555 1_555
C34 O7 1_555 1_555
N4 N5 1_555 1_555

#END
