
#######################################################################
#
#                 Cambridge Crystallographic Data Centre
#                                CCDC 
#
#######################################################################
#
# If this CIF has been generated from an entry in the Cambridge 
# Structural Database, then it will include bibliographic, chemical, 
# crystal, experimental, refinement or atomic coordinate data resulting 
# from the CCDC's data processing and validation procedures.
#
#######################################################################

data_OLIHIB
_symmetry_cell_setting           triclinic
_symmetry_space_group_name_H-M   'P -1'
_symmetry_Int_Tables_number      2
_space_group_name_Hall           '-P 1'
loop_
_symmetry_equiv_pos_site_id
_symmetry_equiv_pos_as_xyz
1 x,y,z
2 -x,-y,-z
_cell_length_a                   9.6326(7)
_cell_length_b                   13.4328(10)
_cell_length_c                   13.4775(10)
_cell_angle_alpha                91.9520(10)
_cell_angle_beta                 110.5190(10)
_cell_angle_gamma                109.6060(10)
_cell_volume                     1515.65
loop_
_atom_site_label
_atom_site_type_symbol
_atom_site_fract_x
_atom_site_fract_y
_atom_site_fract_z
C1 C 0.62645(18) 0.46200(12) 0.53543(12)
C2 C 0.52286(18) 0.43869(12) 0.42709(12)
C3 C 0.39778(18) 0.47623(12) 0.39056(12)
C4 C 0.54760(18) 0.37336(12) 0.34601(12)
C5 C 0.9594(2) 0.52919(15) 0.61572(15)
H1 H 0.9580 0.5667 0.5545
H2 H 1.0536 0.5095 0.6401
H3 H 0.9631 0.5763 0.6745
C6 C 0.3771(2) 0.56901(15) 0.21208(14)
H4 H 0.3855 0.6308 0.2578
H5 H 0.3164 0.5696 0.1368
H6 H 0.4843 0.5730 0.2207
O1 O 0.63422(13) 0.42957(9) 0.29938(9)
H19 H 0.6423 0.3888 0.2549
O2 O 0.48595(14) 0.27457(9) 0.32903(9)
S1 S 0.78075(5) 0.40914(3) 0.57519(3)
S2 S 0.27595(5) 0.44651(3) 0.25080(3)
C1A C 0.37355(18) 0.53800(12) 0.46457(12)
C2A C 0.47714(18) 0.56131(12) 0.57291(12)
C3A C 0.60222(18) 0.52377(12) 0.60944(12)
C4A C 0.45240(18) 0.62664(12) 0.65399(12)
C5A C 0.0406(2) 0.47081(15) 0.38428(15)
H1A H 0.0420 0.4333 0.4455
H2A H -0.0536 0.4905 0.3599
H3A H 0.0369 0.4237 0.3255
C6A C 0.6229(2) 0.43099(15) 0.78792(14)
H4A H 0.6145 0.3692 0.7422
H5A H 0.6836 0.4304 0.8632
H6A H 0.5157 0.4270 0.7793
O1A O 0.36578(13) 0.57043(9) 0.70062(9)
H19A H 0.3577 0.6112 0.7451
O2A O 0.51405(14) 0.72543(9) 0.67097(9)
S1A S 0.21925(5) 0.59086(3) 0.42481(3)
S2A S 0.72405(5) 0.55349(3) 0.74920(3)
C7 C 0.89560(17) 0.90200(11) 0.43293(12)
C8 C 1.03461(17) 0.96089(12) 0.41658(11)
C9 C 0.8339(2) 0.68709(13) 0.43385(14)
H7 H 0.9481 0.7076 0.4494
H8 H 0.7765 0.6130 0.3953
H9 H 0.8180 0.6928 0.5014
C10 C 1.2285(2) 0.86263(14) 0.37644(14)
H10 H 1.3202 0.9178 0.4330
H11 H 1.2639 0.8365 0.3245
H12 H 1.1807 0.8028 0.4086
C11 C 0.57411(17) 0.61219(11) 0.02531(12)
C12 C 0.65919(17) 0.54768(12) 0.07350(11)
C13 C 0.58507(17) 0.43567(12) 0.04650(11)
C14 C 0.67975(17) 0.36330(11) 0.08479(12)
C15 C 0.7486(2) 0.78595(14) -0.04600(14)
H13 H 0.8274 0.7522 -0.0355
H14 H 0.8013 0.8638 -0.0380
H15 H 0.6649 0.7580 -0.1182
C16 C 0.9827(2) 0.59660(14) 0.10826(15)
H16 H 0.9631 0.5211 0.0869
H17 H 1.0945 0.6338 0.1567
H18 H 0.9598 0.6303 0.0442
Cu1 Cu 0.85773(2) 0.775801(15) 0.216129(15)
O3 O 0.68897(13) 0.32954(9) 0.17301(9)
O4 O 0.73914(14) 0.34102(9) 0.02395(9)
S3 S 0.75843(4) 0.77595(3) 0.35119(3)
S4 S 1.08095(4) 0.91970(3) 0.30809(3)
S5 S 0.66001(4) 0.75595(3) 0.05392(3)
S6 S 0.85406(4) 0.60498(3) 0.17674(3)
C17 C 0.86181(17) 0.94100(12) 0.51556(12)
C18 C 0.71010(18) 0.87873(12) 0.53223(12)
O5 O 0.73134(13) 0.81030(9) 0.59833(9)
H20 H 0.6519 0.7864 0.6154
O6 O 0.58794(13) 0.89407(10) 0.48950(9)
C7A C 1.10440(17) 1.09800(11) 0.56707(12)
C8A C 0.96539(17) 1.03911(12) 0.58342(11)
C9A C 1.1661(2) 1.31291(13) 0.56615(14)
H7A H 1.0519 1.2924 0.5506
H8A H 1.2235 1.3870 0.6047
H9A H 1.1820 1.3072 0.4986
C10A C 0.7715(2) 1.13737(14) 0.62356(14)
H10A H 0.6798 1.0822 0.5670
H11A H 0.7361 1.1635 0.6755
H12A H 0.8193 1.1972 0.5914
C11A C 0.42589(17) 0.38781(11) -0.02531(12)
C12A C 0.34081(17) 0.45232(12) -0.07350(11)
C13A C 0.41493(17) 0.56433(12) -0.04650(11)
C14A C 0.32025(17) 0.63670(11) -0.08479(12)
C15A C 0.2514(2) 0.21405(14) 0.04600(14)
H13A H 0.1726 0.2478 0.0355
H14A H 0.1987 0.1362 0.0380
H15A H 0.3351 0.2420 0.1182
C16A C 0.0173(2) 0.40340(14) -0.10826(15)
H16A H 0.0369 0.4789 -0.0869
H17A H -0.0945 0.3662 -0.1567
H18A H 0.0402 0.3697 -0.0442
Cu1A Cu 0.14227(2) 0.224199(15) -0.216129(15)
Cu1A_2 Cu 1.14227(2) 1.224199(15) 0.783871(15)
O3A O 0.31103(13) 0.67046(9) -0.17301(9)
O4A O 0.26086(14) 0.65898(9) -0.02395(9)
S3A S 1.24157(4) 1.22405(3) 0.64881(3)
S3A_2 S 0.24157(4) 0.22405(3) -0.35119(3)
S4A S 0.91905(4) 1.08030(3) 0.69191(3)
S4A_2 S -0.08095(4) 0.08030(3) -0.30809(3)
S5A S 0.33999(4) 0.24405(3) -0.05392(3)
S6A S 0.14594(4) 0.39502(3) -0.17674(3)
C17A C 1.13819(17) 1.05900(12) 0.48444(12)
C18A C 1.28990(18) 1.12127(12) 0.46777(12)
O5A O 1.26866(13) 1.18970(9) 0.40167(9)
H20A H 1.3481 1.2136 0.3846
O6A O 1.41206(13) 1.10593(10) 0.51050(9)
C19 C 0.65421(19) 0.02489(12) 0.07876(13)
C20 C 0.5201(2) -0.02308(12) 0.10433(13)
C21 C 0.36801(19) -0.04756(12) 0.02517(13)
C22 C 0.2221(2) -0.09716(13) 0.05257(14)
C23 C 0.8869(3) 0.15841(17) 0.27046(18)
H21 H 0.8415 0.1271 0.3220
H22 H 0.8353 0.2069 0.2365
H23 H 1.0018 0.1986 0.3081
C24 C 0.5117(3) 0.05295(16) 0.29369(16)
H24 H 0.4021 0.0491 0.2558
H25 H 0.5868 0.1208 0.2882
H26 H 0.5311 0.0490 0.3696
O7 O 0.15096(16) -0.20336(10) 0.02905(12)
H27 H 0.2022 -0.2291 0.0036
O8 O 0.17138(16) -0.04394(10) 0.09323(11)
S7 S 0.85437(5) 0.05333(4) 0.16934(4)
S8 S 0.53941(5) -0.05845(3) 0.23338(3)
C19A C 0.34579(19) -0.02489(12) -0.07876(13)
C20A C 0.4799(2) 0.02308(12) -0.10433(13)
C21A C 0.63199(19) 0.04756(12) -0.02517(13)
C22A C 0.7779(2) 0.09716(13) -0.05257(14)
C23A C 0.1131(3) -0.15841(17) -0.27046(18)
H21A H 0.1585 -0.1271 -0.3220
H22A H 0.1647 -0.2069 -0.2365
H23A H -0.0018 -0.1986 -0.3081
C24A C 0.4883(3) -0.05295(16) -0.29369(16)
H24A H 0.5979 -0.0491 -0.2558
H25A H 0.4132 -0.1208 -0.2882
H26A H 0.4689 -0.0490 -0.3696
O7A O 0.84904(16) 0.20336(10) -0.02905(12)
H27A H 0.7978 0.2291 -0.0036
O8A O 0.82862(16) 0.04394(10) -0.09323(11)
S7A S 0.14563(5) -0.05333(4) -0.16934(4)
S8A S 0.46059(5) 0.05845(3) -0.23338(3)
loop_
_geom_bond_atom_site_label_1
_geom_bond_atom_site_label_2
_geom_bond_site_symmetry_1
_geom_bond_site_symmetry_2
C1 C2 1_555 1_555
C2 C3 1_555 1_555
C3 S2 1_555 1_555
C4 C2 1_555 1_555
C5 H1 1_555 1_555
H2 C5 1_555 1_555
H3 C5 1_555 1_555
C6 H4 1_555 1_555
H5 C6 1_555 1_555
H6 C6 1_555 1_555
C7 C8 1_555 1_555
C8 S4 1_555 1_555
C9 H7 1_555 1_555
H8 C9 1_555 1_555
H9 C9 1_555 1_555
C10 H10 1_555 1_555
H11 C10 1_555 1_555
H12 C10 1_555 1_555
C11 C12 1_555 1_555
C12 C13 1_555 1_555
C13 C14 1_555 1_555
C14 O3 1_555 1_555
C15 H13 1_555 1_555
H14 C15 1_555 1_555
H15 C15 1_555 1_555
C16 H16 1_555 1_555
H17 C16 1_555 1_555
H18 C16 1_555 1_555
Cu1 S3 1_555 1_555
O1 C4 1_555 1_555
H19 O1 1_555 1_555
O2 C4 1_555 1_555
O4 C14 1_555 1_555
S1 C1 1_555 1_555
S2 C6 1_555 1_555
S3 C7 1_555 1_555
S4 C10 1_555 1_555
S5 C11 1_555 1_555
S6 C12 1_555 1_555
C17 C7 1_555 1_555
C18 C17 1_555 1_555
O5 C18 1_555 1_555
H20 O5 1_555 1_555
O6 C18 1_555 1_555
C19 C20 1_555 1_555
C20 C21 1_555 1_555
C21 C22 1_555 1_555
C22 O7 1_555 1_555
C23 H21 1_555 1_555
H22 C23 1_555 1_555
H23 C23 1_555 1_555
C24 H24 1_555 1_555
H25 C24 1_555 1_555
H26 C24 1_555 1_555
O7 H27 1_555 1_555
O8 C22 1_555 1_555
S7 C19 1_555 1_555
S8 C20 1_555 1_555
C1A C3 1_555 1_555
C2A C1A 1_555 1_555
C3A C1 1_555 1_555
C4A C2A 1_555 1_555
C5A H1A 1_555 1_555
H2A C5A 1_555 1_555
H3A C5A 1_555 1_555
C6A H4A 1_555 1_555
H5A C6A 1_555 1_555
H6A C6A 1_555 1_555
C7A C8A 1_555 1_555
C8A C17 1_555 1_555
C9A H7A 1_555 1_555
H8A C9A 1_555 1_555
H9A C9A 1_555 1_555
C10A H10A 1_555 1_555
H11A C10A 1_555 1_555
H12A C10A 1_555 1_555
C11A C13 1_555 1_555
C12A C11A 1_555 1_555
C13A C11 1_555 1_555
C14A C13A 1_555 1_555
C15A H13A 1_555 1_555
H14A C15A 1_555 1_555
H15A C15A 1_555 1_555
C16A H16A 1_555 1_555
H17A C16A 1_555 1_555
H18A C16A 1_555 1_555
Cu1A S3A_2 1_555 1_555
Cu1A_2 S3A 1_555 1_555
O1A C4A 1_555 1_555
H19A O1A 1_555 1_555
O2A C4A 1_555 1_555
O3A C14A 1_555 1_555
O4A C14A 1_555 1_555
S1A C1A 1_555 1_555
S2A C3A 1_555 1_555
S3A C7A 1_555 1_555
S4A C8A 1_555 1_555
S4A_2 Cu1A 1_555 1_555
S5A C11A 1_555 1_555
S6A C12A 1_555 1_555
C17A C8 1_555 1_555
C18A C17A 1_555 1_555
O5A C18A 1_555 1_555
H20A O5A 1_555 1_555
O6A C18A 1_555 1_555
C19A C21 1_555 1_555
C20A C19A 1_555 1_555
C21A C19 1_555 1_555
C22A C21A 1_555 1_555
C23A H21A 1_555 1_555
H22A C23A 1_555 1_555
H23A C23A 1_555 1_555
C24A H24A 1_555 1_555
H25A C24A 1_555 1_555
H26A C24A 1_555 1_555
O7A C22A 1_555 1_555
H27A O7A 1_555 1_555
O8A C22A 1_555 1_555
S7A C19A 1_555 1_555
S8A C20A 1_555 1_555
C5 S1 1_555 1_555
C9 S3 1_555 1_555
C15 S5 1_555 1_555
C16 S6 1_555 1_555
Cu1 S4 1_555 1_555
Cu1 S5 1_555 1_555
Cu1 S6 1_555 1_555
C23 S7 1_555 1_555
C24 S8 1_555 1_555
C2A C3A 1_555 1_555
C5A S1A 1_555 1_555
C6A S2A 1_555 1_555
C7A C17A 1_555 1_555
C9A S3A 1_555 1_555
C10A S4A 1_555 1_555
C12A C13A 1_555 1_555
C15A S5A 1_555 1_555
C16A S6A 1_555 1_555
Cu1A S5A 1_555 1_555
Cu1A S6A 1_555 1_555
Cu1A_2 S4A 1_555 1_555
C20A C21A 1_555 1_555
C23A S7A 1_555 1_555
C24A S8A 1_555 1_555

#END
