
#######################################################################
#
#                 Cambridge Crystallographic Data Centre
#                                CCDC 
#
#######################################################################
#
# If this CIF has been generated from an entry in the Cambridge 
# Structural Database, then it will include bibliographic, chemical, 
# crystal, experimental, refinement or atomic coordinate data resulting 
# from the CCDC's data processing and validation procedures.
#
#######################################################################

data_OLIMUS
_symmetry_cell_setting           monoclinic
_symmetry_space_group_name_H-M   'P 21/c'
_symmetry_Int_Tables_number      14
_space_group_name_Hall           '-P 2ybc'
loop_
_symmetry_equiv_pos_site_id
_symmetry_equiv_pos_as_xyz
1 x,y,z
2 -x,1/2+y,1/2-z
3 -x,-y,-z
4 x,1/2-y,1/2+z
_cell_length_a                   9.1437(7)
_cell_length_b                   16.5084(10)
_cell_length_c                   26.4142(17)
_cell_angle_alpha                90
_cell_angle_beta                 101.367(2)
_cell_angle_gamma                90
_cell_volume                     3908.96
loop_
_atom_site_label
_atom_site_type_symbol
_atom_site_fract_x
_atom_site_fract_y
_atom_site_fract_z
Mn1 Mn 0.71737(10) 0.49519(5) 0.75972(3)
Cr1 Cr 0.21301(10) 0.32034(5) 0.75421(3)
O1 O 0.4223(4) 0.3287(2) 0.79663(13)
O2 O 0.7942(4) 0.4013(2) 0.71599(14)
O3 O 0.2863(4) 0.4132(2) 0.71601(14)
O4 O 0.2777(4) 0.2392(2) 0.70575(14)
O5 O 0.4913(4) 0.4893(2) 0.71870(13)
O6 O 0.6259(4) 0.4073(2) 0.80336(14)
O7 O 1.1367(4) 0.3973(2) 0.80200(14)
O8 O 0.2195(4) 0.0845(2) 0.78917(14)
O9 O 0.1786(4) 0.2187(2) 0.79215(13)
O10 O 0.9341(4) 0.4732(2) 0.80361(14)
O17 O 0.3072(4) 0.1042(2) 0.69880(15)
O18 O 1.0020(4) 0.3287(2) 0.71498(13)
C1 C 0.4960(6) 0.3866(3) 0.7828(2)
C3 C 0.4180(6) 0.4351(3) 0.7350(2)
C6 C 0.2734(6) 0.1655(3) 0.7208(2)
C25 C 0.9238(6) 0.3800(3) 0.73374(19)
C34 C 1.0047(6) 0.4208(3) 0.7843(2)
C35 C 0.2172(5) 0.1545(3) 0.7728(2)
Mn1A Mn 0.28263(10) -0.00481(5) 0.74028(3)
Cr1_2 Cr 1.21301(10) 0.32034(5) 0.75421(3)
O7_2 O 0.1367(4) 0.3973(2) 0.80200(14)
O8A O 0.7805(4) 0.5845(2) 0.71083(14)
O17A O 0.6928(4) 0.6042(2) 0.80120(15)
O18_2 O 0.0020(4) 0.3287(2) 0.71498(13)
F1 F 0.4842(5) 0.4862(2) 0.56445(18)
N1 N 0.7084(5) 0.2489(2) 0.50842(17)
C10 C 0.6147(6) 0.2875(3) 0.54182(19)
C16 C 0.4457(7) 0.3618(5) 0.6034(2)
C27 C 0.5070(8) 0.4046(4) 0.5684(2)
C28 C 0.5543(6) 0.2423(4) 0.5749(2)
C29 C 0.4693(7) 0.2797(5) 0.6064(2)
C32 C 0.5937(7) 0.3701(3) 0.5374(2)
H1 H 0.6371 0.4017 0.5141
H2 H 0.3882 0.3881 0.6248
H3 H 0.5697 0.1853 0.5766
H4 H 0.4273 0.2483 0.6301
H5 H 0.6470 0.2330 0.4767
H6 H 0.7812 0.2864 0.5019
H7 H 0.7568 0.2026 0.5254
O11 O 0.8152(4) 0.0978(2) 0.55478(14)
O12 O 0.9901(4) 0.2375(2) 0.57658(13)
O13 O 0.9391(3) 0.3629(2) 0.50276(13)
O14 O 0.5306(4) 0.2300(2) 0.41338(14)
O15 O 0.7087(4) 0.3687(2) 0.42661(13)
O16 O 0.6089(4) 0.0918(2) 0.47224(13)
C2 C 0.9450(6) 0.1907(3) 0.6166(2)
C4 C 0.4709(6) 0.3086(3) 0.3991(2)
C5 C 1.0173(6) 0.3205(3) 0.5901(2)
C7 C 0.9608(6) 0.4007(3) 0.4579(2)
C8 C 0.8365(6) 0.4049(3) 0.4177(2)
C9 C 0.9337(6) 0.1046(3) 0.5999(2)
C11 C 1.0657(6) 0.3619(3) 0.5453(2)
C12 C 0.4209(6) 0.1711(3) 0.4202(2)
C13 C 0.5886(6) 0.3575(3) 0.3825(2)
C15 C 0.8476(7) 0.4423(3) 0.3718(2)
C17 C 0.8923(6) -0.0420(3) 0.5435(2)
C18 C 0.8030(6) 0.0249(3) 0.5284(2)
C19 C 0.4956(6) 0.0910(3) 0.4257(2)
C20 C 0.6753(7) -0.0465(3) 0.4538(2)
C21 C 0.6928(6) 0.0226(3) 0.4834(2)
C22 C 1.0952(6) 0.4320(3) 0.4508(2)
C24 C 1.1072(7) 0.4682(3) 0.4040(2)
C26 C 0.9838(8) 0.4733(3) 0.3654(2)
C30 C 0.7680(7) -0.1129(3) 0.4686(2)
C31 C 0.8738(7) -0.1107(3) 0.5127(2)
H8 H 0.7623 0.4467 0.3448
H9 H 1.1801 0.4288 0.4780
H10 H 1.2002 0.4891 0.3991
H11 H 0.9912 0.4984 0.3336
H12 H 0.9653 -0.0408 0.5745
H13 H 0.6007 -0.0488 0.4232
H14 H 0.7576 -0.1601 0.4476
H15 H 0.9350 -0.1568 0.5227
H16 H 1.0169 0.1961 0.6477
H17 H 0.8509 0.2091 0.6220
H18 H 0.9288 0.3451 0.5965
H19 H 1.0936 0.3245 0.6202
H20 H 0.9115 0.0716 0.6269
H21 H 1.0254 0.0876 0.5916
H22 H 1.1455 0.3326 0.5357
H23 H 1.0972 0.4156 0.5544
H24 H 0.3869 0.3040 0.3716
H25 H 0.4416 0.3337 0.4278
H26 H 0.3830 0.1830 0.4503
H27 H 0.3413 0.1711 0.3910
H28 H 0.5495 0.4087 0.3700
H29 H 0.6247 0.3299 0.3559
H30 H 0.5405 0.0811 0.3967
H31 H 0.4248 0.0496 0.4279
O19 O 1.1586(5) 0.7212(3) 0.17810(19)
C33 C 1.0666(7) 0.7203(4) 0.1283(2)
H35 H 1.1262 0.7283 0.1031
H36 H 0.9946 0.7624 0.1258
H37 H 1.0173 0.6695 0.1228
N2 N 0.6281(9) 0.0611(5) 0.6623(3)
C14 C 0.6766(10) 0.1070(6) 0.6946(3)
C23 C 0.7325(15) 0.1621(8) 0.7306(5)
H32 H 0.6582 0.1759 0.7497
H33 H 0.8164 0.1397 0.7533
H34 H 0.7620 0.2092 0.7146
loop_
_geom_bond_atom_site_label_1
_geom_bond_atom_site_label_2
_geom_bond_site_symmetry_1
_geom_bond_site_symmetry_2
Mn1 O2 1_555 1_555
Cr1 O1 1_555 1_555
F1 C27 1_555 1_555
O1 C1 1_555 1_555
O2 C25 1_555 1_555
O3 Cr1 1_555 1_555
O4 Cr1 1_555 1_555
O5 Mn1 1_555 1_555
O6 Mn1 1_555 1_555
O7 C34 1_555 1_555
O8 C35 1_555 1_555
O9 Cr1 1_555 1_555
O10 Mn1 1_555 1_555
O11 C9 1_555 1_555
O12 C2 1_555 1_555
O13 C7 1_555 1_555
O14 C4 1_555 1_555
O15 C8 1_555 1_555
O16 C19 1_555 1_555
O17 C6 1_555 1_555
O18 C25 1_555 1_555
O19 C33 1_555 1_555
N1 C10 1_555 1_555
N2 C14 1_555 1_555
C1 O6 1_555 1_555
C2 C9 1_555 1_555
C3 O3 1_555 1_555
C4 C13 1_555 1_555
C5 O12 1_555 1_555
C6 O4 1_555 1_555
C7 C8 1_555 1_555
C8 C15 1_555 1_555
C9 H20 1_555 1_555
C10 C28 1_555 1_555
C11 O13 1_555 1_555
C12 O14 1_555 1_555
C13 O15 1_555 1_555
C14 C23 1_555 1_555
C15 C26 1_555 1_555
C16 C27 1_555 1_555
C17 C18 1_555 1_555
C18 O11 1_555 1_555
C19 C12 1_555 1_555
C20 C21 1_555 1_555
C21 O16 1_555 1_555
C22 C7 1_555 1_555
C23 H32 1_555 1_555
C24 C22 1_555 1_555
C25 C34 1_555 1_555
C26 C24 1_555 1_555
C27 C32 1_555 1_555
C28 C29 1_555 1_555
C29 C16 1_555 1_555
C30 C20 1_555 1_555
C31 C17 1_555 1_555
C32 C10 1_555 1_555
C33 H35 1_555 1_555
C34 O10 1_555 1_555
C35 O9 1_555 1_555
H1 C32 1_555 1_555
H2 C16 1_555 1_555
H3 C28 1_555 1_555
H4 C29 1_555 1_555
H5 N1 1_555 1_555
H6 N1 1_555 1_555
H7 N1 1_555 1_555
H8 C15 1_555 1_555
H9 C22 1_555 1_555
H10 C24 1_555 1_555
H11 C26 1_555 1_555
H12 C17 1_555 1_555
H13 C20 1_555 1_555
H14 C30 1_555 1_555
H15 C31 1_555 1_555
H16 C2 1_555 1_555
H17 C2 1_555 1_555
H18 C5 1_555 1_555
H19 C5 1_555 1_555
H21 C9 1_555 1_555
H22 C11 1_555 1_555
H23 C11 1_555 1_555
H24 C4 1_555 1_555
H25 C4 1_555 1_555
H26 C12 1_555 1_555
H27 C12 1_555 1_555
H28 C13 1_555 1_555
H29 C13 1_555 1_555
H30 C19 1_555 1_555
H31 C19 1_555 1_555
H33 C23 1_555 1_555
H34 C23 1_555 1_555
H36 C33 1_555 1_555
H37 C33 1_555 1_555
Mn1A O8 1_555 1_555
Cr1_2 O7 1_555 1_555
O7_2 Cr1 1_555 1_555
O8A Mn1 1_555 1_555
O17A Mn1 1_555 1_555
O18_2 Cr1 1_555 1_555
O5 C3 1_555 1_555
O17 Mn1A 1_555 1_555
O18 Cr1_2 1_555 1_555
C1 C3 1_555 1_555
C5 C11 1_555 1_555
C6 C35 1_555 1_555
C18 C21 1_555 1_555
C30 C31 1_555 1_555

#END
