
#######################################################################
#
#                 Cambridge Crystallographic Data Centre
#                                CCDC 
#
#######################################################################
#
# If this CIF has been generated from an entry in the Cambridge 
# Structural Database, then it will include bibliographic, chemical, 
# crystal, experimental, refinement or atomic coordinate data resulting 
# from the CCDC's data processing and validation procedures.
#
#######################################################################

data_OLIPOO
_symmetry_cell_setting           monoclinic
_symmetry_space_group_name_H-M   'P 21/c'
_symmetry_Int_Tables_number      14
_space_group_name_Hall           '-P 2ybc'
loop_
_symmetry_equiv_pos_site_id
_symmetry_equiv_pos_as_xyz
1 x,y,z
2 x,1/2-y,1/2+z
3 -x,-y,-z
4 -x,1/2+y,1/2-z
_cell_length_a                   8.5468(8)
_cell_length_b                   11.7744(11)
_cell_length_c                   23.277(2)
_cell_angle_alpha                90
_cell_angle_beta                 96.143(2)
_cell_angle_gamma                90
_cell_volume                     2328.99
loop_
_atom_site_label
_atom_site_type_symbol
_atom_site_fract_x
_atom_site_fract_y
_atom_site_fract_z
Pb1 Pb 0.58004(3) 0.69830(2) 0.145256(10)
O1 O 0.7518(9) 0.5630(6) 0.0840(4)
O2 O 0.9766(7) 0.5953(6) 0.0543(3)
O3 O 0.8283(11) 0.7320(7) 0.0769(5)
O4 O 0.6809(13) 1.0484(6) 0.2075(4)
O5 O 0.6865(8) 0.8712(5) 0.2219(3)
O6 O 0.6194(9) 0.9356(6) 0.1372(3)
O7 O 0.703(3) 0.6086(12) 0.2480(8)
N1 N 0.3284(8) 0.7686(6) 0.1861(3)
N2 N 0.1797(7) 0.7925(4) 0.2564(3)
N3 N 0.8550(8) 0.6283(6) 0.0729(3)
N4 N 0.6621(8) 0.9531(6) 0.1892(4)
N5 N 0.8280(16) 0.5640(9) 0.3326(6)
N6 N 0.4297(8) 0.7482(6) 0.5491(2)
N7 N 0.2949(7) 0.7475(5) 0.4631(2)
N8 N -0.4121(7) 1.0190(5) 0.3744(3)
N9 N -0.2061(6) 0.9061(5) 0.3843(2)
C1 C 0.3273(10) 0.7921(6) 0.2418(4)
H1 H 0.4166 0.8064 0.2672
C2 C 0.1766(9) 0.7534(7) 0.1654(3)
H2 H 0.1421 0.7362 0.1272
C3 C 0.0803(9) 0.7664(7) 0.2078(3)
H3 H -0.0286 0.7593 0.2046
C4 C 0.1331(9) 0.8069(5) 0.3129(3)
C5 C -0.0112(8) 0.8487(6) 0.3197(3)
H4 H -0.0801 0.8704 0.2880
C6 C -0.0538(7) 0.8585(6) 0.3762(3)
C7 C 0.0439(8) 0.8261(5) 0.4230(3)
H5 H 0.0135 0.8334 0.4600
C8 C 0.1890(9) 0.7821(5) 0.4148(3)
C9 C 0.2381(8) 0.7727(6) 0.3601(3)
H6 H 0.3374 0.7447 0.3549
C10 C 0.810(3) 0.5732(19) 0.2718(7)
H7 H 0.8908 0.5485 0.2512
C11 C 0.957(2) 0.5274(12) 0.3730(11)
H8 H 1.0395 0.4982 0.3524
H9 H 0.9213 0.4690 0.3973
H10 H 0.9956 0.5906 0.3964
C12 C 0.724(4) 0.571(3) 0.3773(13)
H11 H 0.6232 0.5981 0.3612
H12 H 0.7676 0.6214 0.4070
H13 H 0.7124 0.4964 0.3934
C13 C 0.3176(9) 0.7999(5) 0.5155(4)
H14 H 0.2620 0.8631 0.5260
C14 C 0.3994(9) 0.6582(7) 0.4643(3)
H15 H 0.4106 0.6068 0.4346
C15 C 0.4813(10) 0.6601(7) 0.5163(4)
H16 H 0.5614 0.6096 0.5289
C16 C -0.2962(8) 0.8796(6) 0.4282(3)
H17 H -0.2747 0.8249 0.4568
C17 C -0.2804(8) 0.9892(5) 0.3533(3)
H18 H -0.2440 1.0221 0.3209
C18 C -0.4210(8) 0.9487(6) 0.4212(3)
H19 H -0.5025 0.9492 0.4447
N6A N 0.4297(8) 0.7518(6) 0.0491(2)
N8C N 0.4121(7) 0.5190(5) 0.1256(3)
Pb1A Pb 0.58004(3) 0.80170(2) 0.645256(10)
Pb1C Pb -0.58004(3) 1.19830(2) 0.354744(10)
loop_
_geom_bond_atom_site_label_1
_geom_bond_atom_site_label_2
_geom_bond_site_symmetry_1
_geom_bond_site_symmetry_2
Pb1 O1 1_555 1_555
O1 N3 1_555 1_555
O2 N3 1_555 1_555
O3 Pb1 1_555 1_555
O4 N4 1_555 1_555
O5 Pb1 1_555 1_555
O6 Pb1 1_555 1_555
O7 Pb1 1_555 1_555
N1 Pb1 1_555 1_555
N2 C1 1_555 1_555
N3 O3 1_555 1_555
N4 O5 1_555 1_555
N5 C10 1_555 1_555
N6 C13 1_555 1_555
N7 C8 1_555 1_555
N8 C17 1_555 1_555
N9 C6 1_555 1_555
C1 N1 1_555 1_555
H1 C1 1_555 1_555
C2 N1 1_555 1_555
H2 C2 1_555 1_555
C3 N2 1_555 1_555
H3 C3 1_555 1_555
C4 N2 1_555 1_555
C5 C4 1_555 1_555
H4 C5 1_555 1_555
C6 C5 1_555 1_555
C7 C6 1_555 1_555
H5 C7 1_555 1_555
C8 C7 1_555 1_555
C9 C4 1_555 1_555
H6 C9 1_555 1_555
C10 O7 1_555 1_555
H7 C10 1_555 1_555
C11 N5 1_555 1_555
H8 C11 1_555 1_555
H9 C11 1_555 1_555
H10 C11 1_555 1_555
C12 N5 1_555 1_555
H11 C12 1_555 1_555
H12 C12 1_555 1_555
H13 C12 1_555 1_555
C13 N7 1_555 1_555
H14 C13 1_555 1_555
C14 N7 1_555 1_555
H15 C14 1_555 1_555
C15 N6 1_555 1_555
H16 C15 1_555 1_555
C16 N9 1_555 1_555
H17 C16 1_555 1_555
C17 N9 1_555 1_555
H18 C17 1_555 1_555
C18 N8 1_555 1_555
H19 C18 1_555 1_555
N6A Pb1 1_555 1_555
N8C Pb1 1_555 1_555
Pb1A N6 1_555 1_555
Pb1C N8 1_555 1_555
O6 N4 1_555 1_555
C2 C3 1_555 1_555
C8 C9 1_555 1_555
C14 C15 1_555 1_555
C16 C18 1_555 1_555

#END
