
#######################################################################
#
#                 Cambridge Crystallographic Data Centre
#                                CCDC 
#
#######################################################################
#
# If this CIF has been generated from an entry in the Cambridge 
# Structural Database, then it will include bibliographic, chemical, 
# crystal, experimental, refinement or atomic coordinate data resulting 
# from the CCDC's data processing and validation procedures.
#
#######################################################################

data_OLIPUU
_symmetry_cell_setting           triclinic
_symmetry_space_group_name_H-M   'P -1'
_symmetry_Int_Tables_number      2
_space_group_name_Hall           '-P 1'
loop_
_symmetry_equiv_pos_site_id
_symmetry_equiv_pos_as_xyz
1 x,y,z
2 -x,-y,-z
_cell_length_a                   8.6278(6)
_cell_length_b                   9.5870(7)
_cell_length_c                   11.5759(8)
_cell_angle_alpha                84.345(4)
_cell_angle_beta                 84.226(5)
_cell_angle_gamma                75.040(4)
_cell_volume                     917.724
loop_
_atom_site_label
_atom_site_type_symbol
_atom_site_fract_x
_atom_site_fract_y
_atom_site_fract_z
Pb1 Pb 0.01484(4) 0.24088(4) 0.31810(2)
O1 O 0.1371(8) -0.0290(7) 0.4035(6)
O2 O 0.0601(8) -0.2281(7) 0.4259(6)
O3 O -0.0604(10) -0.0500(9) 0.3092(6)
O4 O -0.4387(9) 0.3719(8) 0.1426(6)
O5 O -0.2065(12) 0.2289(10) 0.1651(7)
O6 O -0.2654(13) 0.4344(10) 0.2368(11)
N1 N 0.0446(9) -0.1036(9) 0.3797(7)
N2 N -0.3066(10) 0.3482(9) 0.1817(7)
N3 N 0.2510(8) 0.6236(8) 0.1960(6)
N4 N 0.0976(10) 0.4728(9) 0.2385(7)
N5 N 0.6848(9) 0.8419(8) 0.0302(6)
N6 N 0.8233(9) 0.8371(9) -0.1405(7)
N7 N 0.5690(9) 0.7912(9) 0.4472(6)
N8 N 0.7162(10) 0.7876(9) 0.5946(7)
C1 C 0.3786(10) 0.6941(10) 0.2082(7)
C2 C 0.4655(10) 0.7383(10) 0.1107(7)
H1 H 0.4411 0.7281 0.0343
C3 C 0.5896(11) 0.7981(10) 0.1298(8)
C4 C 0.6253(11) 0.8185(10) 0.2393(8)
H2 H 0.7095 0.8624 0.2493
C5 C 0.5343(11) 0.7731(10) 0.3344(7)
C6 C 0.4092(10) 0.7111(10) 0.3204(8)
H3 H 0.3465 0.6812 0.3858
C7 C 0.2210(11) 0.5152(11) 0.2691(8)
H4 H 0.2803 0.4740 0.3343
C8 C 0.0449(12) 0.5622(11) 0.1421(8)
H5 H -0.0449 0.5596 0.1018
C9 C 0.1415(11) 0.6551(11) 0.1133(8)
H6 H 0.1344 0.7262 0.0495
C10 C 0.7229(12) 0.7778(11) -0.0716(8)
H7 H 0.6825 0.7004 -0.0908
C11 C 0.8508(13) 0.9444(11) -0.0807(8)
H8 H 0.9183 1.0063 -0.1097
C12 C 0.7681(12) 0.9492(10) 0.0253(8)
H9 H 0.7671 1.0124 0.0839
C13 C 0.7199(12) 0.7620(11) 0.4849(8)
H10 H 0.8160 0.7274 0.4374
C14 C 0.5560(11) 0.8316(10) 0.6330(8)
H11 H 0.5161 0.8566 0.7097
C15 C 0.4624(11) 0.8336(10) 0.5423(7)
H12 H 0.3482 0.8589 0.5447
N6A N 0.1767(9) 0.1629(9) 0.1405(7)
N8A N 0.2838(10) 0.2124(9) 0.4054(7)
Pb1A Pb 0.98516(4) 0.75912(4) -0.31810(2)
Pb1A_2 Pb 0.98516(4) 0.75912(4) 0.68190(2)
loop_
_geom_bond_atom_site_label_1
_geom_bond_atom_site_label_2
_geom_bond_site_symmetry_1
_geom_bond_site_symmetry_2
Pb1 O1 1_555 1_555
O1 N1 1_555 1_555
O2 N1 1_555 1_555
O3 N1 1_555 1_555
O4 N2 1_555 1_555
O5 Pb1 1_555 1_555
O6 Pb1 1_555 1_555
N2 O5 1_555 1_555
N3 C1 1_555 1_555
N4 Pb1 1_555 1_555
N5 C3 1_555 1_555
N6 C10 1_555 1_555
N7 C5 1_555 1_555
N8 C13 1_555 1_555
C1 C2 1_555 1_555
C2 H1 1_555 1_555
C3 C2 1_555 1_555
C4 C3 1_555 1_555
H2 C4 1_555 1_555
C5 C4 1_555 1_555
C6 C1 1_555 1_555
H3 C6 1_555 1_555
C7 N3 1_555 1_555
H4 C7 1_555 1_555
C8 N4 1_555 1_555
H5 C8 1_555 1_555
C9 N3 1_555 1_555
H6 C9 1_555 1_555
C10 N5 1_555 1_555
H7 C10 1_555 1_555
C11 N6 1_555 1_555
H8 C11 1_555 1_555
C12 N5 1_555 1_555
H9 C12 1_555 1_555
C13 N7 1_555 1_555
H10 C13 1_555 1_555
C14 N8 1_555 1_555
H11 C14 1_555 1_555
C15 N7 1_555 1_555
H12 C15 1_555 1_555
N6A Pb1 1_555 1_555
N8A Pb1 1_555 1_555
Pb1A N6 1_555 1_555
Pb1A_2 N8 1_555 1_555
O6 N2 1_555 1_555
N4 C7 1_555 1_555
C5 C6 1_555 1_555
C8 C9 1_555 1_555
C11 C12 1_555 1_555
C14 C15 1_555 1_555

#END
