
#######################################################################
#
#                 Cambridge Crystallographic Data Centre
#                                CCDC 
#
#######################################################################
#
# If this CIF has been generated from an entry in the Cambridge 
# Structural Database, then it will include bibliographic, chemical, 
# crystal, experimental, refinement or atomic coordinate data resulting 
# from the CCDC's data processing and validation procedures.
#
#######################################################################

data_OLIREG
_symmetry_cell_setting           orthorhombic
_symmetry_space_group_name_H-M   'P b c a'
_symmetry_Int_Tables_number      61
_space_group_name_Hall           '-P 2ac 2ab'
loop_
_symmetry_equiv_pos_site_id
_symmetry_equiv_pos_as_xyz
1 x,y,z
2 1/2+x,y,1/2-z
3 x,1/2-y,1/2+z
4 1/2-x,1/2+y,z
5 -x,-y,-z
6 1/2-x,-y,1/2+z
7 -x,1/2+y,1/2-z
8 1/2+x,1/2-y,-z
_cell_length_a                   13.0056(2)
_cell_length_b                   13.75480(10)
_cell_length_c                   30.0991(4)
_cell_angle_alpha                90
_cell_angle_beta                 90
_cell_angle_gamma                90
_cell_volume                     5384.41
loop_
_atom_site_label
_atom_site_type_symbol
_atom_site_fract_x
_atom_site_fract_y
_atom_site_fract_z
Pb1 Pb -0.22013(3) 0.04358(3) 0.531160(18)
Pb2 Pb 0.5000 0.0000 0.5000
Pb3 Pb -0.05141(4) -0.20685(3) 0.500126(18)
P1 P 0.0403(2) -0.0106(2) 0.56082(12)
P2 P 0.3605(2) -0.1294(2) 0.59141(13)
P3 P 0.3060(2) 0.2075(2) 0.46357(12)
P4 P 0.0685(2) 0.3667(3) 0.39964(12)
N1 N 0.2056(8) -0.0030(7) 0.6185(4)
H1 H 0.2330 0.0267 0.5943
N2 N 0.2723(7) 0.3222(8) 0.3907(4)
C1 C 0.2237(10) 0.0009(10) 0.7037(5)
C2 C 0.2954(12) -0.0504(10) 0.7269(6)
H2 H 0.3588 -0.0628 0.7137
C3 C 0.2772(14) -0.0847(11) 0.7693(6)
H3 H 0.3273 -0.1202 0.7842
C4 C 0.1859(15) -0.0662(11) 0.7888(5)
H4 H 0.1730 -0.0900 0.8172
C5 C 0.1119(13) -0.0129(12) 0.7674(5)
H5 H 0.0508 0.0023 0.7818
C6 C 0.1282(12) 0.0180(11) 0.7247(5)
H6 H 0.0763 0.0504 0.7095
C7 C 0.2498(9) 0.0459(10) 0.6588(5)
H7 H 0.2265 0.1129 0.6590
H8 H 0.3240 0.0470 0.6558
C8 C 0.0920(9) 0.0124(10) 0.6169(5)
H9 H 0.0765 0.0788 0.6255
H10 H 0.0589 -0.0308 0.6379
C9 C 0.2333(9) -0.1082(9) 0.6159(5)
H11 H 0.1820 -0.1418 0.5983
H12 H 0.2319 -0.1356 0.6456
C10 C 0.3636(11) 0.3278(9) 0.3153(5)
C11 C 0.4623(10) 0.2871(10) 0.3163(5)
H13 H 0.4987 0.2853 0.3428
C12 C 0.5055(14) 0.2502(12) 0.2786(7)
H14 H 0.5713 0.2238 0.2797
C13 C 0.4529(17) 0.2517(12) 0.2394(6)
H15 H 0.4842 0.2276 0.2139
C14 C 0.3558(18) 0.2877(11) 0.2368(6)
H16 H 0.3197 0.2867 0.2102
C15 C 0.3115(13) 0.3266(11) 0.2757(5)
H17 H 0.2453 0.3520 0.2744
C16 C 0.3220(10) 0.3803(9) 0.3564(5)
H18 H 0.2730 0.4287 0.3465
H19 H 0.3787 0.4148 0.3701
C17 C 0.3381(8) 0.2430(8) 0.4066(4)
H20 H 0.3304 0.1873 0.3872
H21 H 0.4094 0.2636 0.4054
C18 C 0.1687(10) 0.2881(10) 0.3767(5)
H22 H 0.1644 0.2883 0.3445
H23 H 0.1582 0.2219 0.3869
O1 O -0.0529(6) 0.0561(7) 0.5576(3)
O2 O 0.0166(7) -0.1178(6) 0.5577(3)
O3 O 0.1253(6) 0.0249(6) 0.5307(3)
O4 O 0.3654(6) -0.0690(7) 0.5500(3)
O5 O 0.3659(7) -0.2377(7) 0.5868(4)
O6 O 0.4381(7) -0.0933(7) 0.6272(3)
H24 H 0.4786 -0.0550 0.6159
O7 O 0.3096(8) 0.2995(7) 0.4925(3)
O8 O 0.2000(6) 0.1608(6) 0.4629(3)
O9 O 0.3862(7) 0.1361(6) 0.4799(4)
O10 O 0.0622(7) 0.3532(7) 0.4505(3)
O11 O 0.0839(7) 0.4718(7) 0.3873(4)
O12 O -0.0297(6) 0.3219(8) 0.3771(3)
H25 H -0.0800 0.3317 0.3929
P1D P 0.9597(2) 0.0106(2) 0.43918(12)
P2D P 0.6395(2) 0.1294(2) 0.40859(13)
N1D N 0.7944(8) 0.0030(7) 0.3815(4)
H1D H 0.7670 -0.0267 0.4057
C1D C 0.7763(10) -0.0009(10) 0.2963(5)
C2D C 0.7046(12) 0.0504(10) 0.2731(6)
H2D H 0.6412 0.0628 0.2863
C3D C 0.7228(14) 0.0847(11) 0.2307(6)
H3D H 0.6727 0.1202 0.2158
C4D C 0.8141(15) 0.0662(11) 0.2112(5)
H4D H 0.8270 0.0900 0.1828
C5D C 0.8881(13) 0.0129(12) 0.2326(5)
H5D H 0.9492 -0.0023 0.2182
C6D C 0.8718(12) -0.0180(11) 0.2753(5)
H6D H 0.9237 -0.0504 0.2905
C7D C 0.7502(9) -0.0459(10) 0.3412(5)
H7D H 0.7735 -0.1129 0.3410
H8D H 0.6760 -0.0470 0.3442
C8D C 0.9080(9) -0.0124(10) 0.3831(5)
H9D H 0.9235 -0.0788 0.3745
H10D H 0.9411 0.0308 0.3621
C9D C 0.7667(9) 0.1082(9) 0.3841(5)
H11D H 0.8180 0.1418 0.4017
H12D H 0.7681 0.1356 0.3544
O1D O 1.0529(6) -0.0561(7) 0.4424(3)
O2D O 0.9834(7) 0.1178(6) 0.4423(3)
O3D O 0.8747(6) -0.0249(6) 0.4693(3)
O4D O 0.6346(6) 0.0690(7) 0.4500(3)
O5D O 0.6341(7) 0.2377(7) 0.4132(4)
O6D O 0.5619(7) 0.0933(7) 0.3728(3)
H24D H 0.5214 0.0550 0.3841
P3D P 0.6940(2) -0.2075(2) 0.53643(12)
P4D P 0.9315(2) -0.3667(3) 0.60036(12)
N2D N 0.7277(7) -0.3222(8) 0.6093(4)
C10D C 0.6364(11) -0.3278(9) 0.6847(5)
C11D C 0.5377(10) -0.2871(10) 0.6837(5)
H13D H 0.5013 -0.2853 0.6572
C12D C 0.4945(14) -0.2502(12) 0.7214(7)
H14D H 0.4287 -0.2238 0.7203
C13D C 0.5471(17) -0.2517(12) 0.7606(6)
H15D H 0.5158 -0.2276 0.7861
C14D C 0.6442(18) -0.2877(11) 0.7632(6)
H16D H 0.6803 -0.2867 0.7898
C15D C 0.6885(13) -0.3266(11) 0.7243(5)
H17D H 0.7547 -0.3520 0.7256
C16D C 0.6780(10) -0.3803(9) 0.6436(5)
H18D H 0.7270 -0.4287 0.6535
H19D H 0.6213 -0.4148 0.6299
C17D C 0.6619(8) -0.2430(8) 0.5934(4)
H20D H 0.6696 -0.1873 0.6128
H21D H 0.5906 -0.2636 0.5946
C18D C 0.8313(10) -0.2881(10) 0.6233(5)
H22D H 0.8356 -0.2883 0.6555
H23D H 0.8418 -0.2219 0.6131
O7D O 0.6904(8) -0.2995(7) 0.5075(3)
O8D O 0.8000(6) -0.1608(6) 0.5371(3)
O9D O 0.6138(7) -0.1361(6) 0.5201(4)
O10D O 0.9378(7) -0.3532(7) 0.5495(3)
O11D O 0.9161(7) -0.4718(7) 0.6127(4)
O12D O 1.0297(6) -0.3219(8) 0.6229(3)
H25D H 1.0800 -0.3317 0.6071
Pb1D Pb 1.22013(3) -0.04358(3) 0.468840(18)
Pb3D Pb 1.05141(4) 0.20685(3) 0.499874(18)
O3D_2 O -0.1253(6) -0.0249(6) 0.4693(3)
O7G O -0.1904(8) 0.2005(7) 0.5075(3)
O10C O 0.4378(7) -0.1468(7) 0.4505(3)
O10G O 0.5622(7) 0.1468(7) 0.5495(3)
O8D_2 O -0.2000(6) -0.1608(6) 0.5371(3)
O10D_2 O -0.0622(7) -0.3532(7) 0.5495(3)
Pb1D_2 Pb 0.22013(3) -0.04358(3) 0.468840(18)
Pb1G Pb 0.27987(3) 0.45642(3) 0.468840(18)
Pb3D_2 Pb 0.05141(4) 0.20685(3) 0.499874(18)
Pb2C Pb 0.0000 0.5000 0.5000
Pb1_2 Pb 0.77987(3) 0.04358(3) 0.531160(18)
Pb1C Pb 0.72013(3) -0.45642(3) 0.531160(18)
Pb3_2 Pb 0.94859(4) -0.20685(3) 0.500126(18)
Pb2C_2 Pb 1.0000 -0.5000 0.5000
O3_2 O 1.1253(6) 0.0249(6) 0.5307(3)
O7C O 1.1904(8) -0.2005(7) 0.4925(3)
O8_2 O 1.2000(6) 0.1608(6) 0.4629(3)
O10_2 O 1.0622(7) 0.3532(7) 0.4505(3)
O13 O 0.1983(6) -0.3491(8) 0.5742(3)
loop_
_geom_bond_atom_site_label_1
_geom_bond_atom_site_label_2
_geom_bond_site_symmetry_1
_geom_bond_site_symmetry_2
Pb1 O1 1_555 1_555
Pb2 O4 1_555 1_555
Pb3 O2 1_555 1_555
P1 C8 1_555 1_555
P2 C9 1_555 1_555
P3 C17 1_555 1_555
P4 C18 1_555 1_555
N1 H1 1_555 1_555
N2 C16 1_555 1_555
C1 C2 1_555 1_555
C2 H2 1_555 1_555
C3 C2 1_555 1_555
H3 C3 1_555 1_555
C4 C3 1_555 1_555
H4 C4 1_555 1_555
C5 C4 1_555 1_555
H5 C5 1_555 1_555
C6 C1 1_555 1_555
H6 C6 1_555 1_555
C7 N1 1_555 1_555
H7 C7 1_555 1_555
H8 C7 1_555 1_555
C8 N1 1_555 1_555
H9 C8 1_555 1_555
H10 C8 1_555 1_555
C9 N1 1_555 1_555
H11 C9 1_555 1_555
H12 C9 1_555 1_555
C10 C11 1_555 1_555
C11 H13 1_555 1_555
C12 C11 1_555 1_555
H14 C12 1_555 1_555
C13 C12 1_555 1_555
H15 C13 1_555 1_555
C14 C13 1_555 1_555
H16 C14 1_555 1_555
C15 C10 1_555 1_555
H17 C15 1_555 1_555
C16 C10 1_555 1_555
H18 C16 1_555 1_555
H19 C16 1_555 1_555
C17 N2 1_555 1_555
H20 C17 1_555 1_555
H21 C17 1_555 1_555
C18 N2 1_555 1_555
H22 C18 1_555 1_555
H23 C18 1_555 1_555
O1 P1 1_555 1_555
O2 P1 1_555 1_555
O3 P1 1_555 1_555
O4 P2 1_555 1_555
O5 P2 1_555 1_555
O6 P2 1_555 1_555
H24 O6 1_555 1_555
O7 P3 1_555 1_555
O8 P3 1_555 1_555
O9 Pb2 1_555 1_555
O10 P4 1_555 1_555
O11 P4 1_555 1_555
O12 P4 1_555 1_555
H25 O12 1_555 1_555
P1D C8D 1_555 1_555
P2D C9D 1_555 1_555
N1D H1D 1_555 1_555
C1D C2D 1_555 1_555
C2D H2D 1_555 1_555
C3D C2D 1_555 1_555
H3D C3D 1_555 1_555
C4D C3D 1_555 1_555
H4D C4D 1_555 1_555
C5D C4D 1_555 1_555
H5D C5D 1_555 1_555
C6D C1D 1_555 1_555
H6D C6D 1_555 1_555
C7D N1D 1_555 1_555
H7D C7D 1_555 1_555
H8D C7D 1_555 1_555
C8D N1D 1_555 1_555
H9D C8D 1_555 1_555
H10D C8D 1_555 1_555
C9D N1D 1_555 1_555
H11D C9D 1_555 1_555
H12D C9D 1_555 1_555
O1D P1D 1_555 1_555
O2D P1D 1_555 1_555
O3D P1D 1_555 1_555
O4D Pb2 1_555 1_555
O5D P2D 1_555 1_555
O6D P2D 1_555 1_555
H24D O6D 1_555 1_555
P3D C17D 1_555 1_555
P4D C18D 1_555 1_555
N2D C16D 1_555 1_555
C10D C11D 1_555 1_555
C11D H13D 1_555 1_555
C12D C11D 1_555 1_555
H14D C12D 1_555 1_555
C13D C12D 1_555 1_555
H15D C13D 1_555 1_555
C14D C13D 1_555 1_555
H16D C14D 1_555 1_555
C15D C10D 1_555 1_555
H17D C15D 1_555 1_555
C16D C10D 1_555 1_555
H18D C16D 1_555 1_555
H19D C16D 1_555 1_555
C17D N2D 1_555 1_555
H20D C17D 1_555 1_555
H21D C17D 1_555 1_555
C18D N2D 1_555 1_555
H22D C18D 1_555 1_555
H23D C18D 1_555 1_555
O7D P3D 1_555 1_555
O8D P3D 1_555 1_555
O9D Pb2 1_555 1_555
O10D P4D 1_555 1_555
O11D P4D 1_555 1_555
O12D P4D 1_555 1_555
H25D O12D 1_555 1_555
Pb1D O1D 1_555 1_555
Pb3D O2D 1_555 1_555
O3D_2 Pb1 1_555 1_555
O7G Pb1 1_555 1_555
O10C Pb2 1_555 1_555
O10G Pb2 1_555 1_555
O8D_2 Pb3 1_555 1_555
O10D_2 Pb3 1_555 1_555
Pb1D_2 O3 1_555 1_555
Pb1G O7 1_555 1_555
Pb3D_2 O8 1_555 1_555
Pb2C O10 1_555 1_555
Pb1_2 O3D 1_555 1_555
Pb1C O7D 1_555 1_555
Pb3_2 O8D 1_555 1_555
Pb2C_2 O10D 1_555 1_555
O3_2 Pb1D 1_555 1_555
O7C Pb1D 1_555 1_555
O8_2 Pb3D 1_555 1_555
O10_2 Pb3D 1_555 1_555
P3 O9 1_555 1_555
C1 C7 1_555 1_555
C5 C6 1_555 1_555
C14 C15 1_555 1_555
O10 Pb3D_2 1_555 1_555
P2D O4D 1_555 1_555
C1D C7D 1_555 1_555
C5D C6D 1_555 1_555
P3D O9D 1_555 1_555
C14D C15D 1_555 1_555
O10D Pb3_2 1_555 1_555

#END
