
#######################################################################
#
#                 Cambridge Crystallographic Data Centre
#                                CCDC 
#
#######################################################################
#
# If this CIF has been generated from an entry in the Cambridge 
# Structural Database, then it will include bibliographic, chemical, 
# crystal, experimental, refinement or atomic coordinate data resulting 
# from the CCDC's data processing and validation procedures.
#
#######################################################################

data_OLITOS
_symmetry_cell_setting           monoclinic
_symmetry_space_group_name_H-M   'P 21/c'
_symmetry_Int_Tables_number      14
_space_group_name_Hall           '-P 2ybc'
loop_
_symmetry_equiv_pos_site_id
_symmetry_equiv_pos_as_xyz
1 x,y,z
2 x,1/2-y,1/2+z
3 -x,-y,-z
4 -x,1/2+y,1/2-z
_cell_length_a                   11.3856(14)
_cell_length_b                   4.9098(6)
_cell_length_c                   24.348(3)
_cell_angle_alpha                90
_cell_angle_beta                 90.702(2)
_cell_angle_gamma                90
_cell_volume                     1360.98
loop_
_atom_site_label
_atom_site_type_symbol
_atom_site_fract_x
_atom_site_fract_y
_atom_site_fract_z
Ba1 Ba -0.09784(2) -0.00316(4) -0.416680(9)
S1 S 0.15277(8) 0.4218(2) -0.46473(4)
S2 S 0.22628(9) 0.0633(2) -0.18223(4)
O1 O 0.1211(2) 0.1342(6) -0.46873(11)
O2 O 0.0747(3) 0.5635(6) -0.42735(13)
O3 O 0.1605(3) 0.5469(6) -0.51857(13)
O4 O 0.1359(3) -0.0355(6) -0.14542(13)
O5 O 0.3370(3) -0.0739(7) -0.17419(14)
O6 O 0.2324(3) 0.3582(6) -0.17966(12)
O7 O -0.3408(4) 0.0022(7) -0.43157(19)
N1 N 0.4714(4) 0.6223(13) -0.4181(2)
N2 N 0.4446(4) 0.4295(10) -0.38140(19)
H1 H 0.4911 0.3805 -0.3551
N3 N 0.0767(4) -0.0023(6) -0.32838(16)
N4 N 0.1532(3) -0.2120(7) -0.32752(14)
H2 H 0.1606 -0.3253 -0.3542
C1 C 0.3391(4) 0.3219(10) -0.38972(19)
H3 H 0.3034 0.1884 -0.3686
C2 C 0.2926(4) 0.4464(9) -0.43582(18)
C3 C 0.3783(4) 0.6356(13) -0.4513(2)
H4 H 0.3709 0.7545 -0.4809
C4 C 0.2160(4) -0.2256(9) -0.28105(17)
H7 H 0.2733 -0.3540 -0.2722
C5 C 0.1800(4) -0.0146(7) -0.24914(18)
C6 C 0.0937(4) 0.1192(9) -0.28060(16)
H8 H 0.0536 0.2739 -0.2693
O1B O -0.1211(2) -0.1342(6) -0.53127(11)
O3B O -0.1605(3) 0.4531(6) -0.48143(13)
O4C O -0.1359(3) 0.4645(6) -0.35458(13)
O2_2 O 0.0747(3) -0.4365(6) -0.42735(13)
O3B_2 O -0.1605(3) -0.5469(6) -0.48143(13)
Ba1B Ba 0.09784(2) 0.00316(4) -0.583320(9)
Ba1_2 Ba -0.09784(2) -1.00316(4) -0.416680(9)
Ba1B_2 Ba 0.09784(2) 1.00316(4) -0.583320(9)
Ba1_3 Ba -0.09784(2) 0.99684(4) -0.416680(9)
O4C_2 O -0.1359(3) -0.5355(6) -0.35458(13)
O6C O -0.2324(3) -0.1418(6) -0.32034(12)
Ba1C Ba 0.09784(2) 0.49684(4) -0.083320(9)
Ba1C_2 Ba 0.09784(2) -0.50316(4) -0.083320(9)
O8 O 0.4784(5) 0.0043(7) -0.7229(2)
H5 H 0.4827 0.1505 -0.7385
H6 H 0.4234 0.0228 -0.7021
loop_
_geom_bond_atom_site_label_1
_geom_bond_atom_site_label_2
_geom_bond_site_symmetry_1
_geom_bond_site_symmetry_2
Ba1 O1 1_555 1_555
S1 O1 1_555 1_555
S2 O4 1_555 1_555
O1 Ba1B 1_555 1_555
O2 S1 1_555 1_555
O3 S1 1_555 1_555
O4 Ba1C 1_555 1_555
O5 S2 1_555 1_555
O6 S2 1_555 1_555
O7 Ba1 1_555 1_555
O8 H5 1_555 1_555
N1 N2 1_555 1_555
N2 H1 1_555 1_555
N3 Ba1 1_555 1_555
N4 N3 1_555 1_555
H2 N4 1_555 1_555
C1 N2 1_555 1_555
H3 C1 1_555 1_555
C2 S1 1_555 1_555
C3 N1 1_555 1_555
H4 C3 1_555 1_555
H6 O8 1_555 1_555
C4 N4 1_555 1_555
H7 C4 1_555 1_555
C5 S2 1_555 1_555
C6 N3 1_555 1_555
H8 C6 1_555 1_555
O1B Ba1 1_555 1_555
O3B Ba1 1_555 1_555
O4C Ba1 1_555 1_555
O2_2 Ba1 1_555 1_555
O3B_2 Ba1 1_555 1_555
Ba1B O3 1_555 1_555
Ba1_2 O3B_2 1_555 1_555
Ba1B_2 O3 1_555 1_555
Ba1_3 O2 1_555 1_555
O4C_2 Ba1 1_555 1_555
O6C Ba1 1_555 1_555
Ba1C O6 1_555 1_555
Ba1C_2 O4 1_555 1_555
C1 C2 1_555 1_555
C2 C3 1_555 1_555
C4 C5 1_555 1_555
C5 C6 1_555 1_555
O1B Ba1B 1_555 1_555
O3B Ba1_3 1_555 1_555
O4C Ba1_3 1_555 1_555
Ba1_2 O4C_2 1_555 1_555

#END
