
#######################################################################
#
#                 Cambridge Crystallographic Data Centre
#                                CCDC 
#
#######################################################################
#
# If this CIF has been generated from an entry in the Cambridge 
# Structural Database, then it will include bibliographic, chemical, 
# crystal, experimental, refinement or atomic coordinate data resulting 
# from the CCDC's data processing and validation procedures.
#
#######################################################################

data_OLITAE
_symmetry_cell_setting           orthorhombic
_symmetry_space_group_name_H-M   'P b c a'
_symmetry_Int_Tables_number      61
_space_group_name_Hall           '-P 2ac 2ab'
loop_
_symmetry_equiv_pos_site_id
_symmetry_equiv_pos_as_xyz
1 x,y,z
2 1/2+x,y,1/2-z
3 x,1/2-y,1/2+z
4 1/2-x,1/2+y,z
5 -x,-y,-z
6 1/2-x,-y,1/2+z
7 -x,1/2+y,1/2-z
8 1/2+x,1/2-y,-z
_cell_length_a                   9.979(3)
_cell_length_b                   7.848(3)
_cell_length_c                   20.583(7)
_cell_angle_alpha                90
_cell_angle_beta                 90
_cell_angle_gamma                90
_cell_volume                     1611.96
loop_
_atom_site_label
_atom_site_type_symbol
_atom_site_fract_x
_atom_site_fract_y
_atom_site_fract_z
S1 S 0.45291(5) 0.05603(7) 0.38549(3)
Na1 Na 0.16154(8) -0.08326(11) 0.47939(4)
O1 O 0.36491(16) -0.0545(2) 0.42171(8)
O2 O 0.58926(16) -0.0106(3) 0.38212(7)
O3 O 0.00666(17) 0.1151(2) 0.43370(8)
O4 O 0.22474(15) 0.1827(2) 0.53694(8)
C1 C 0.3944(2) 0.0526(3) 0.30567(10)
C2 C 0.2823(2) -0.0280(3) 0.28302(11)
H1 H 0.2209 -0.0902 0.3074
O5 O 0.45081(18) 0.2311(2) 0.40650(9)
N1 N 0.2783(2) 0.0000(3) 0.21898(10)
H2 H 0.2165 -0.0391 0.1940
N2 N 0.3809(2) 0.0957(3) 0.19775(9)
C3 C 0.4514(2) 0.1278(3) 0.25073(11)
H3 H 0.5294 0.1926 0.2513
H4 H 0.1637 0.2157 0.5600
H5 H 0.0535 0.2040 0.4316
H6 H 0.2790 0.1480 0.5620
H7 H -0.0366 0.1102 0.3985
O3D O -0.00666(17) -0.1151(2) 0.56630(8)
O4C O 0.27526(15) -0.3173(2) 0.53694(8)
O5C O 0.04919(18) -0.2689(2) 0.40650(9)
Na1D Na -0.16154(8) 0.08326(11) 0.52061(4)
Na1C Na 0.33846(8) 0.41674(11) 0.47939(4)
loop_
_geom_bond_atom_site_label_1
_geom_bond_atom_site_label_2
_geom_bond_site_symmetry_1
_geom_bond_site_symmetry_2
S1 O1 1_555 1_555
Na1 O1 1_555 1_555
O2 S1 1_555 1_555
O3 Na1 1_555 1_555
O4 Na1 1_555 1_555
C1 S1 1_555 1_555
C2 C1 1_555 1_555
H1 C2 1_555 1_555
O5 S1 1_555 1_555
N1 C2 1_555 1_555
H2 N1 1_555 1_555
N2 N1 1_555 1_555
C3 C1 1_555 1_555
H3 C3 1_555 1_555
H4 O4 1_555 1_555
H5 O3 1_555 1_555
H6 O4 1_555 1_555
H7 O3 1_555 1_555
O3D Na1 1_555 1_555
O4C Na1 1_555 1_555
O5C Na1 1_555 1_555
Na1D O3 1_555 1_555
Na1C O4 1_555 1_555
O5 Na1C 1_555 1_555
N2 C3 1_555 1_555
O3D Na1D 1_555 1_555

#END
