
#######################################################################
#
#                 Cambridge Crystallographic Data Centre
#                                CCDC 
#
#######################################################################
#
# If this CIF has been generated from an entry in the Cambridge 
# Structural Database, then it will include bibliographic, chemical, 
# crystal, experimental, refinement or atomic coordinate data resulting 
# from the CCDC's data processing and validation procedures.
#
#######################################################################

data_OLITIM
_symmetry_cell_setting           triclinic
_symmetry_space_group_name_H-M   'P -1'
_symmetry_Int_Tables_number      2
_space_group_name_Hall           '-P 1'
loop_
_symmetry_equiv_pos_site_id
_symmetry_equiv_pos_as_xyz
1 x,y,z
2 -x,-y,-z
_cell_length_a                   5.9972(6)
_cell_length_b                   9.2102(9)
_cell_length_c                   12.9567(13)
_cell_angle_alpha                76.536(2)
_cell_angle_beta                 89.264(2)
_cell_angle_gamma                79.057(2)
_cell_volume                     682.975
loop_
_atom_site_label
_atom_site_type_symbol
_atom_site_fract_x
_atom_site_fract_y
_atom_site_fract_z
Ca1 Ca 0.17844(8) 0.06194(5) -0.30140(4)
S1 S 0.07168(10) 0.76859(6) -0.44150(5)
S2 S -0.14606(10) 0.23417(7) -0.11128(5)
O1 O 0.0955(3) 0.80872(19) -0.55705(14)
O2 O -0.1607(3) 0.7646(2) -0.41310(17)
O3 O 0.1828(3) 0.8614(2) -0.39121(14)
O4 O -0.1098(3) 0.2121(2) -0.21951(14)
O5 O 0.0625(3) 0.2258(2) -0.05471(15)
O6 O -0.2900(3) 0.1333(2) -0.05558(15)
O7 O 0.0238(3) -0.1345(2) -0.17515(15)
O8 O 0.4320(3) -0.0162(2) -0.14785(14)
O9 O 0.5400(3) 0.0243(2) -0.37785(17)
N1 N 0.2885(4) 0.3280(2) -0.34246(18)
N2 N 0.4841(4) 0.3812(2) -0.35116(17)
H1 H 0.6162 0.3238 -0.3378
N3 N -0.5988(4) 0.6120(3) -0.13859(19)
N4 N -0.4005(4) 0.6625(3) -0.1505(2)
H2 H -0.3912 0.7569 -0.1615
C1 C 0.4503(4) 0.5323(3) -0.3827(2)
H3 H 0.5613 0.5920 -0.3926
C2 C 0.2210(4) 0.5826(3) -0.39771(18)
C3 C 0.1281(4) 0.4519(3) -0.3717(2)
H4 H -0.0267 0.4514 -0.3743
C4 C -0.2202(5) 0.5495(3) -0.1433(2)
H5 H -0.0687 0.5589 -0.1495
H6 H 0.5274 0.0295 -0.1281
H7 H 0.3778 -0.0487 -0.0890
H8 H -0.0320 -0.1328 -0.1142
H9 H 0.6314 0.0841 -0.3990
H10 H 0.1112 -0.2151 -0.1583
H11 H 0.6074 -0.0602 -0.3844
C5 C -0.3025(4) 0.4177(3) -0.1252(2)
C6 C -0.5388(5) 0.4631(3) -0.1227(2)
H12 H -0.6404 0.3966 -0.1114
O1A O -0.0955(3) 0.19128(19) -0.44295(14)
O3_2 O 0.1828(3) -0.1386(2) -0.39121(14)
Ca1A Ca -0.17844(8) 0.93806(5) -0.69860(4)
Ca1_2 Ca 0.17844(8) 1.06194(5) -0.30140(4)
loop_
_geom_bond_atom_site_label_1
_geom_bond_atom_site_label_2
_geom_bond_site_symmetry_1
_geom_bond_site_symmetry_2
Ca1 O4 1_555 1_555
S1 O1 1_555 1_555
S2 O4 1_555 1_555
O1 Ca1A 1_555 1_555
O2 S1 1_555 1_555
O3 S1 1_555 1_555
O5 S2 1_555 1_555
O6 S2 1_555 1_555
O7 Ca1 1_555 1_555
O8 Ca1 1_555 1_555
O9 Ca1 1_555 1_555
N1 Ca1 1_555 1_555
N2 N1 1_555 1_555
H1 N2 1_555 1_555
N3 N4 1_555 1_555
N4 H2 1_555 1_555
C1 N2 1_555 1_555
H3 C1 1_555 1_555
C2 S1 1_555 1_555
C3 N1 1_555 1_555
H4 C3 1_555 1_555
C4 N4 1_555 1_555
H5 C4 1_555 1_555
H6 O8 1_555 1_555
H7 O8 1_555 1_555
H8 O7 1_555 1_555
H9 O9 1_555 1_555
H10 O7 1_555 1_555
H11 O9 1_555 1_555
C5 S2 1_555 1_555
C6 N3 1_555 1_555
H12 C6 1_555 1_555
O1A Ca1 1_555 1_555
O3_2 Ca1 1_555 1_555
Ca1_2 O3 1_555 1_555
C1 C2 1_555 1_555
C2 C3 1_555 1_555
C4 C5 1_555 1_555
C5 C6 1_555 1_555

#END
