
#######################################################################
#
#                 Cambridge Crystallographic Data Centre
#                                CCDC 
#
#######################################################################
#
# If this CIF has been generated from an entry in the Cambridge 
# Structural Database, then it will include bibliographic, chemical, 
# crystal, experimental, refinement or atomic coordinate data resulting 
# from the CCDC's data processing and validation procedures.
#
#######################################################################

data_OLIWAH
_symmetry_cell_setting           orthorhombic
_symmetry_space_group_name_H-M   'P 21 21 21'
_symmetry_Int_Tables_number      19
_space_group_name_Hall           'P 2ac 2ab'
loop_
_symmetry_equiv_pos_site_id
_symmetry_equiv_pos_as_xyz
1 x,y,z
2 1/2-x,-y,1/2+z
3 1/2+x,1/2-y,-z
4 -x,1/2+y,1/2-z
_cell_length_a                   9.2667(17)
_cell_length_b                   12.1242(15)
_cell_length_c                   21.099(19)
_cell_angle_alpha                90
_cell_angle_beta                 90
_cell_angle_gamma                90
_cell_volume                     2370.5
loop_
_atom_site_label
_atom_site_type_symbol
_atom_site_fract_x
_atom_site_fract_y
_atom_site_fract_z
Co1 Co 0.47553(4) 0.27408(3) 0.112641(18)
O1 O 0.5592(2) 0.37952(19) 0.04278(10)
O2 O 0.7496(3) 0.4364(2) 0.09848(10)
O3 O 0.8609(3) 0.3841(2) -0.13193(10)
O4 O 0.8843(2) 0.33189(19) -0.03307(10)
N1 N 0.8640(3) 0.1152(2) 0.06410(13)
H1 H 0.9237 0.0983 0.0344
N2 N 0.6678(3) 0.1819(2) 0.11031(13)
N3 N 0.5567(3) 0.4430(3) 0.28687(13)
H2 H 0.6013 0.4935 0.3077
N4 N 0.4956(3) 0.3350(2) 0.20653(11)
N5 N 0.0464(3) 0.3993(2) 0.09310(14)
H3 H -0.0449 0.3868 0.0910
N6 N 0.2794(3) 0.3674(2) 0.10667(13)
C1 C 0.6727(3) 0.4370(3) 0.05116(14)
C2 C 0.7031(4) 0.5207(3) 0.00014(15)
H4 H 0.6643 0.5906 0.0066
C3 C 0.7781(4) 0.5075(3) -0.05283(16)
H5 H 0.7896 0.5685 -0.0791
C4 C 0.8450(3) 0.4018(3) -0.07299(14)
C5 C 0.7391(4) 0.1671(3) 0.05724(15)
H6 H 0.7049 0.1910 0.0181
C6 C 0.7376(5) 0.1277(4) 0.22220(17)
H7 H 0.6566 0.1564 0.2423
C7 C 0.8449(6) 0.0754(5) 0.2556(2)
H8 H 0.8358 0.0691 0.2993
C8 C 0.9660(5) 0.0319(5) 0.2265(2)
H9 H 1.0349 -0.0038 0.2511
C9 C 0.9870(4) 0.0399(4) 0.1626(2)
H10 H 1.0687 0.0110 0.1431
C10 C 0.8803(4) 0.0934(3) 0.12806(16)
C11 C 0.7562(4) 0.1357(3) 0.15640(15)
C12 C 0.5805(4) 0.4137(3) 0.22590(15)
H11 H 0.6504 0.4464 0.2004
C13 C 0.2983(4) 0.2336(4) 0.26540(17)
H12 H 0.2701 0.1887 0.2319
C14 C 0.2316(5) 0.2272(4) 0.32345(19)
H13 H 0.1574 0.1765 0.3292
C15 C 0.2720(5) 0.2946(4) 0.37396(19)
H14 H 0.2245 0.2874 0.4126
C16 C 0.3801(4) 0.3712(3) 0.36810(17)
H15 H 0.4068 0.4168 0.4015
C17 C 0.4476(4) 0.3767(3) 0.30915(15)
C18 C 0.4088(4) 0.3092(3) 0.25871(14)
C19 C 0.1485(3) 0.3258(3) 0.10643(16)
H16 H 0.1292 0.2519 0.1148
C20 C 0.3578(4) 0.5656(3) 0.0915(2)
H17 H 0.4556 0.5541 0.0987
C21 C 0.3046(5) 0.6689(4) 0.0785(3)
H18 H 0.3678 0.7285 0.0775
C22 C 0.1584(6) 0.6869(4) 0.0670(3)
H19 H 0.1270 0.7579 0.0576
C23 C 0.0604(5) 0.6034(3) 0.0691(2)
H20 H -0.0371 0.6157 0.0614
C24 C 0.1132(4) 0.4986(3) 0.08331(15)
C25 C 0.2599(4) 0.4791(3) 0.09322(15)
O3B O 0.3609(3) 0.1159(2) 0.13193(10)
O4B O 0.3843(2) 0.16811(19) 0.03307(10)
Co1B Co 0.97553(4) 0.22592(3) -0.112641(18)
loop_
_geom_bond_atom_site_label_1
_geom_bond_atom_site_label_2
_geom_bond_site_symmetry_1
_geom_bond_site_symmetry_2
Co1 O1 1_555 1_555
O1 C1 1_555 1_555
O2 C1 1_555 1_555
O3 C4 1_555 1_555
O4 C4 1_555 1_555
N1 H1 1_555 1_555
N2 Co1 1_555 1_555
N3 H2 1_555 1_555
N4 Co1 1_555 1_555
N5 H3 1_555 1_555
N6 Co1 1_555 1_555
C1 C2 1_555 1_555
C2 H4 1_555 1_555
C3 C2 1_555 1_555
H5 C3 1_555 1_555
C4 C3 1_555 1_555
C5 N1 1_555 1_555
H6 C5 1_555 1_555
C6 H7 1_555 1_555
C7 C6 1_555 1_555
H8 C7 1_555 1_555
C8 C7 1_555 1_555
H9 C8 1_555 1_555
C9 C8 1_555 1_555
H10 C9 1_555 1_555
C10 N1 1_555 1_555
C11 N2 1_555 1_555
C12 N3 1_555 1_555
H11 C12 1_555 1_555
C13 H12 1_555 1_555
C14 C13 1_555 1_555
H13 C14 1_555 1_555
C15 C14 1_555 1_555
H14 C15 1_555 1_555
C16 C15 1_555 1_555
H15 C16 1_555 1_555
C17 N3 1_555 1_555
C18 N4 1_555 1_555
C19 N5 1_555 1_555
H16 C19 1_555 1_555
C20 H17 1_555 1_555
C21 C20 1_555 1_555
H18 C21 1_555 1_555
C22 C21 1_555 1_555
H19 C22 1_555 1_555
C23 C22 1_555 1_555
H20 C23 1_555 1_555
C24 N5 1_555 1_555
C25 N6 1_555 1_555
O3B Co1 1_555 1_555
O4B Co1 1_555 1_555
Co1B O3 1_555 1_555
O4 Co1B 1_555 1_555
N2 C5 1_555 1_555
N4 C12 1_555 1_555
N6 C19 1_555 1_555
C6 C11 1_555 1_555
C9 C10 1_555 1_555
C10 C11 1_555 1_555
C13 C18 1_555 1_555
C16 C17 1_555 1_555
C17 C18 1_555 1_555
C20 C25 1_555 1_555
C23 C24 1_555 1_555
C24 C25 1_555 1_555

#END
