
#######################################################################
#
#                 Cambridge Crystallographic Data Centre
#                                CCDC 
#
#######################################################################
#
# If this CIF has been generated from an entry in the Cambridge 
# Structural Database, then it will include bibliographic, chemical, 
# crystal, experimental, refinement or atomic coordinate data resulting 
# from the CCDC's data processing and validation procedures.
#
#######################################################################

data_OLIXIQ
_symmetry_cell_setting           orthorhombic
_symmetry_space_group_name_H-M   'P 21 21 21'
_symmetry_Int_Tables_number      19
_space_group_name_Hall           'P 2ac 2ab'
loop_
_symmetry_equiv_pos_site_id
_symmetry_equiv_pos_as_xyz
1 x,y,z
2 1/2-x,-y,1/2+z
3 -x,1/2+y,1/2-z
4 1/2+x,1/2-y,-z
_cell_length_a                   6.7093(9)
_cell_length_b                   15.336(3)
_cell_length_c                   20.210(3)
_cell_angle_alpha                90
_cell_angle_beta                 90
_cell_angle_gamma                90
_cell_volume                     2079.48
loop_
_atom_site_label
_atom_site_type_symbol
_atom_site_fract_x
_atom_site_fract_y
_atom_site_fract_z
Mn1 Mn -0.00979(6) 0.39805(2) 0.171244(17)
N1 N -0.0230(4) 0.42888(14) 0.06355(10)
N2 N -0.0065(4) 0.26908(13) 0.11978(9)
O1 O 0.1203(3) 0.34887(13) 0.25991(9)
O2 O 0.3221(3) 0.38181(14) 0.34320(9)
O3 O 0.3030(3) 0.44880(13) 0.17610(9)
H1 H 0.355(5) 0.4875(18) 0.1520(15)
O4 O 0.6777(3) 0.37675(11) 0.20711(9)
H2 H 0.650(6) 0.3306(17) 0.2274(17)
O5 O 0.8784(3) 0.52225(12) 0.19948(11)
O6 O 0.6459(3) 0.59918(14) 0.25045(13)
C1 C -0.0316(5) 0.5074(2) 0.03669(16)
H15 H -0.0379 0.5556 0.0645
C2 C -0.0315(5) 0.5210(2) -0.03183(16)
H16 H -0.0384 0.5772 -0.0490
C3 C -0.0215(5) 0.4516(2) -0.07266(14)
H17 H -0.0193 0.4599 -0.1182
C4 C -0.0144(5) 0.3672(2) -0.04666(12)
C5 C -0.0086(5) 0.2895(2) -0.08624(13)
H18 H -0.0055 0.2944 -0.1321
C6 C -0.0074(5) 0.2105(2) -0.05858(14)
H19 H -0.0068 0.1614 -0.0856
C7 C -0.0071(5) 0.19955(18) 0.01218(12)
C8 C -0.0066(5) 0.11834(19) 0.04343(15)
H20 H -0.0085 0.0675 0.0184
C9 C -0.0034(5) 0.11388(18) 0.11094(15)
H21 H -0.0016 0.0601 0.1322
C10 C -0.0029(5) 0.19077(17) 0.14733(13)
H22 H 0.0001 0.1870 0.1932
C11 C -0.0102(5) 0.27405(17) 0.05233(11)
C12 C -0.0150(4) 0.35877(17) 0.02287(11)
C13 C 0.2654(4) 0.38954(18) 0.28493(12)
C14 C 0.3759(4) 0.45574(19) 0.24209(13)
H23 H 0.3415 0.5140 0.2584
C15 C 0.6027(4) 0.44594(18) 0.24681(13)
H24 H 0.6340 0.4316 0.2929
C16 C 0.7158(4) 0.52992(17) 0.22992(14)
O4_2 O -0.3223(3) 0.37675(11) 0.20711(9)
O5_2 O -0.1216(3) 0.52225(12) 0.19948(11)
Mn1_2 Mn 0.99021(6) 0.39805(2) 0.171244(17)
H2_2 H -0.350(6) 0.3306(17) 0.2274(17)
O7 O -0.0165(4) 0.19440(15) 0.32786(11)
H3 H 0.048(5) 0.2368(18) 0.3119(17)
H4 H 0.039(7) 0.1459(18) 0.322(2)
O8 O 0.4147(5) 0.2368(2) 0.42085(14)
H5 H 0.372(9) 0.233(4) 0.4604(13)
H6 H 0.379(8) 0.279(3) 0.396(3)
O9 O 0.6220(5) 0.22952(18) 0.26598(16)
H7 H 0.535(5) 0.191(2) 0.2634(19)
H8 H 0.725(5) 0.210(3) 0.285(2)
O10 O 0.4547(5) 0.56282(18) 0.09144(13)
H9 H 0.514(7) 0.609(2) 0.103(2)
H10 H 0.424(7) 0.566(3) 0.0513(11)
O11 O -0.1806(6) 0.2555(2) 0.44580(14)
H11 H -0.122(7) 0.225(3) 0.4159(19)
H12 H -0.306(4) 0.256(5) 0.436(4)
O12 O 0.0504(5) 0.40839(19) 0.45313(14)
H13 H -0.027(8) 0.362(3) 0.453(2)
H14 H 0.124(6) 0.398(3) 0.4199(16)
loop_
_geom_bond_atom_site_label_1
_geom_bond_atom_site_label_2
_geom_bond_site_symmetry_1
_geom_bond_site_symmetry_2
Mn1 N1 1_555 1_555
N1 C1 1_555 1_555
N2 Mn1 1_555 1_555
O1 Mn1 1_555 1_555
O2 C13 1_555 1_555
O3 Mn1 1_555 1_555
H1 O3 1_555 1_555
O4 H2 1_555 1_555
O5 C16 1_555 1_555
O6 C16 1_555 1_555
O7 H3 1_555 1_555
H4 O7 1_555 1_555
O8 H5 1_555 1_555
H6 O8 1_555 1_555
O9 H7 1_555 1_555
H8 O9 1_555 1_555
O10 H9 1_555 1_555
H10 O10 1_555 1_555
O11 H11 1_555 1_555
H12 O11 1_555 1_555
O12 H13 1_555 1_555
H14 O12 1_555 1_555
C1 H15 1_555 1_555
C2 C1 1_555 1_555
H16 C2 1_555 1_555
C3 C2 1_555 1_555
H17 C3 1_555 1_555
C4 C3 1_555 1_555
C5 C4 1_555 1_555
H18 C5 1_555 1_555
C6 C5 1_555 1_555
H19 C6 1_555 1_555
C7 C6 1_555 1_555
C8 C7 1_555 1_555
H20 C8 1_555 1_555
C9 C8 1_555 1_555
H21 C9 1_555 1_555
C10 N2 1_555 1_555
H22 C10 1_555 1_555
C11 N2 1_555 1_555
C12 N1 1_555 1_555
C13 O1 1_555 1_555
C14 O3 1_555 1_555
H23 C14 1_555 1_555
C15 O4 1_555 1_555
H24 C15 1_555 1_555
C16 C15 1_555 1_555
O4_2 Mn1 1_555 1_555
O5_2 Mn1 1_555 1_555
Mn1_2 O4 1_555 1_555
H2_2 O4_2 1_555 1_555
O5 Mn1_2 1_555 1_555
C4 C12 1_555 1_555
C7 C11 1_555 1_555
C9 C10 1_555 1_555
C11 C12 1_555 1_555
C13 C14 1_555 1_555
C14 C15 1_555 1_555

#END
