
#######################################################################
#
#                 Cambridge Crystallographic Data Centre
#                                CCDC 
#
#######################################################################
#
# If this CIF has been generated from an entry in the Cambridge 
# Structural Database, then it will include bibliographic, chemical, 
# crystal, experimental, refinement or atomic coordinate data resulting 
# from the CCDC's data processing and validation procedures.
#
#######################################################################

data_OLIYEO
_symmetry_cell_setting           orthorhombic
_symmetry_space_group_name_H-M   'C m c m'
_symmetry_Int_Tables_number      63
_space_group_name_Hall           '-C 2n 2'
loop_
_symmetry_equiv_pos_site_id
_symmetry_equiv_pos_as_xyz
1 x,y,z
2 -x,-y,1/2+z
3 -x,y,1/2-z
4 x,-y,-z
5 1/2+x,1/2+y,z
6 1/2-x,1/2-y,1/2+z
7 1/2-x,1/2+y,1/2-z
8 1/2+x,1/2-y,-z
9 -x,-y,-z
10 x,y,1/2-z
11 x,-y,1/2+z
12 -x,y,z
13 1/2-x,1/2-y,-z
14 1/2+x,1/2+y,1/2-z
15 1/2+x,1/2-y,1/2+z
16 1/2-x,1/2+y,z
_cell_length_a                   6.7752(3)
_cell_length_b                   12.3840(5)
_cell_length_c                   7.8908(3)
_cell_angle_alpha                90
_cell_angle_beta                 90
_cell_angle_gamma                90
_cell_volume                     662.07
loop_
_atom_site_label
_atom_site_type_symbol
_atom_site_fract_x
_atom_site_fract_y
_atom_site_fract_z
Cu1 Cu 0.0000 0.5000 0.5000
F1 F 0.0000 0.3421(2) 0.6035(4)
H1 H 0.0000 0.340(7) 0.7500
F2 F 0.0000 0.4337(2) 0.2500
C1 C 0.3976(3) 0.40939(16) 0.4692(3)
H3 H 0.3285 0.3441 0.4470
N1 N 0.2957(4) 0.5000 0.5000
Cu1A Cu 0.0000 0.5000 0.0000
Cu1A_2 Cu 0.0000 0.5000 1.0000
Cu1_2 Cu 1.0000 0.5000 0.5000
F1B F 0.0000 0.3421(2) 0.8965(4)
F1C F 0.0000 0.6579(2) 0.3965(4)
F2A F 0.0000 0.5663(2) 0.7500
C1K C 0.6024(3) 0.40939(16) 0.4692(3)
C1H C 0.6024(3) 0.59061(16) 0.5308(3)
C1C C 0.3976(3) 0.59061(16) 0.5308(3)
H3K H 0.6715 0.3441 0.4470
H3C H 0.3285 0.6559 0.5530
H3H H 0.6715 0.6559 0.5530
N1H N 0.7043(4) 0.5000 0.5000
N1H_2 N -0.2957(4) 0.5000 0.5000
F3 F 0.0000 0.2411(3) 0.2500
H2 H 0.0000 0.315(2) 0.2500
loop_
_geom_bond_atom_site_label_1
_geom_bond_atom_site_label_2
_geom_bond_site_symmetry_1
_geom_bond_site_symmetry_2
Cu1 F1 1_555 1_555
F1 H1 1_555 1_555
H1 F1B 1_555 1_555
F2 Cu1 1_555 1_555
F3 H2 1_555 1_555
C1 H3 1_555 1_555
N1 Cu1 1_555 1_555
Cu1A F2 1_555 1_555
Cu1A_2 F1B 1_555 1_555
Cu1_2 N1H 1_555 1_555
F1C Cu1 1_555 1_555
F2A Cu1 1_555 1_555
C1K C1 1_555 1_555
C1H C1C 1_555 1_555
C1C N1 1_555 1_555
H3K C1K 1_555 1_555
H3C C1C 1_555 1_555
H3H C1H 1_555 1_555
N1H C1K 1_555 1_555
N1H_2 Cu1 1_555 1_555
C1 N1 1_555 1_555
Cu1A_2 F2A 1_555 1_555
C1H N1H 1_555 1_555

#END
