
#######################################################################
#
#                 Cambridge Crystallographic Data Centre
#                                CCDC 
#
#######################################################################
#
# If this CIF has been generated from an entry in the Cambridge 
# Structural Database, then it will include bibliographic, chemical, 
# crystal, experimental, refinement or atomic coordinate data resulting 
# from the CCDC's data processing and validation procedures.
#
#######################################################################

data_OLIZAK
_symmetry_cell_setting           monoclinic
_symmetry_space_group_name_H-M   'P 21/c'
_symmetry_Int_Tables_number      14
_space_group_name_Hall           '-P 2ybc'
loop_
_symmetry_equiv_pos_site_id
_symmetry_equiv_pos_as_xyz
1 x,y,z
2 x,1/2-y,1/2+z
3 -x,-y,-z
4 -x,1/2+y,1/2-z
_cell_length_a                   4.1614(10)
_cell_length_b                   9.391(2)
_cell_length_c                   21.571(3)
_cell_angle_alpha                90
_cell_angle_beta                 95.020(10)
_cell_angle_gamma                90
_cell_volume                     839.755
loop_
_atom_site_label
_atom_site_type_symbol
_atom_site_fract_x
_atom_site_fract_y
_atom_site_fract_z
K1 K 0.14533(9) 0.88691(4) 0.400597(18)
O1 O -0.3616(3) 1.08161(12) 0.36809(6)
O2 O -0.0596(4) 1.42910(15) 0.23638(6)
N1 N -0.1679(4) 1.22833(16) 0.29427(7)
N2 N -0.3943(4) 1.71163(17) 0.33655(8)
N3 N -0.8238(4) 1.59565(16) 0.44838(7)
N4 N -0.7275(4) 1.14414(17) 0.49494(8)
C1 C -0.1780(4) 1.37460(18) 0.28018(8)
C2 C -0.3456(4) 1.44146(17) 0.32824(7)
C3 C -0.4417(4) 1.33835(16) 0.36916(7)
C4 C -0.3241(4) 1.19805(16) 0.34570(7)
C5 C -0.3752(4) 1.59091(17) 0.33237(8)
C6 C -0.6115(4) 1.34901(16) 0.42127(7)
C7 C -0.7304(4) 1.48459(17) 0.43802(7)
C8 C -0.6715(4) 1.23226(17) 0.46078(8)
H1 H -0.095(6) 1.164(3) 0.2740(10)
O1_2 O 0.6384(3) 1.08161(12) 0.36809(6)
O2C O 0.0596(4) 0.92910(15) 0.26362(6)
N2_2 N -0.3943(4) 0.71163(17) 0.33655(8)
N2_3 N 0.6057(4) 0.71163(17) 0.33655(8)
N3_2 N 0.1762(4) 0.59565(16) 0.44838(7)
N4_2 N 0.2725(4) 1.14414(17) 0.49494(8)
N4B N -0.2725(4) 0.85586(17) 0.50506(8)
N4B_2 N 0.7275(4) 0.85586(17) 0.50506(8)
K1_2 K -0.85467(9) 0.88691(4) 0.400597(18)
K1C K -0.14533(9) 1.38691(4) 0.099403(18)
K1_3 K -0.85467(9) 1.88691(4) 0.400597(18)
K1_4 K 0.14533(9) 1.88691(4) 0.400597(18)
K1B K -1.14533(9) 1.11309(4) 0.599403(18)
K1B_2 K -0.14533(9) 1.11309(4) 0.599403(18)
loop_
_geom_bond_atom_site_label_1
_geom_bond_atom_site_label_2
_geom_bond_site_symmetry_1
_geom_bond_site_symmetry_2
K1 O1 1_555 1_555
O1 C4 1_555 1_555
O2 C1 1_555 1_555
N1 C1 1_555 1_555
N2 C5 1_555 1_555
N3 C7 1_555 1_555
N4 C8 1_555 1_555
C1 C2 1_555 1_555
C2 C3 1_555 1_555
C3 C4 1_555 1_555
C4 N1 1_555 1_555
C5 C2 1_555 1_555
C6 C3 1_555 1_555
C7 C6 1_555 1_555
C8 C6 1_555 1_555
H1 N1 1_555 1_555
O1_2 K1 1_555 1_555
O2C K1 1_555 1_555
N2_2 K1 1_555 1_555
N2_3 K1 1_555 1_555
N3_2 K1 1_555 1_555
N4_2 K1 1_555 1_555
N4B K1 1_555 1_555
N4B_2 K1 1_555 1_555
K1_2 O1 1_555 1_555
K1C O2 1_555 1_555
K1_3 N2 1_555 1_555
K1_4 N2 1_555 1_555
K1B N4 1_555 1_555
K1B_2 N4 1_555 1_555
N3 K1_3 1_555 1_555
N4 K1_2 1_555 1_555
N2_2 K1_2 1_555 1_555
N4_2 K1B_2 1_555 1_555
N4B K1_2 1_555 1_555
N4B K1B_2 1_555 1_555

#END
