
#######################################################################
#
#                 Cambridge Crystallographic Data Centre
#                                CCDC 
#
#######################################################################
#
# If this CIF has been generated from an entry in the Cambridge 
# Structural Database, then it will include bibliographic, chemical, 
# crystal, experimental, refinement or atomic coordinate data resulting 
# from the CCDC's data processing and validation procedures.
#
#######################################################################

data_OLOCAU
_symmetry_cell_setting           monoclinic
_symmetry_space_group_name_H-M   'C 2/c'
_symmetry_Int_Tables_number      15
_space_group_name_Hall           '-C 2yn'
loop_
_symmetry_equiv_pos_site_id
_symmetry_equiv_pos_as_xyz
1 x,y,z
2 -x,y,1/2-z
3 1/2+x,1/2+y,z
4 1/2-x,1/2+y,1/2-z
5 -x,-y,-z
6 x,-y,1/2+z
7 1/2-x,1/2-y,-z
8 1/2+x,1/2-y,1/2+z
_cell_length_a                   35.332(7)
_cell_length_b                   18.535(3)
_cell_length_c                   35.992(7)
_cell_angle_alpha                90
_cell_angle_beta                 115.187(3)
_cell_angle_gamma                90
_cell_volume                     21329.4
loop_
_atom_site_label
_atom_site_type_symbol
_atom_site_fract_x
_atom_site_fract_y
_atom_site_fract_z
Cu1 Cu 0.5000 0.54643(5) 0.2500
Cu2 Cu 0.5000 0.83114(5) 0.2500
Cu3 Cu 0.54152(3) 0.18704(4) 0.09593(3)
Cu4 Cu 0.69547(3) 0.19040(4) 0.37329(3)
Cl1 Cl 0.5000 0.68878(8) 0.2500
P1 P 0.62945(5) 0.37772(8) 0.23215(5)
P2 P 0.58150(5) 0.38179(8) 0.40051(5)
P3 P 0.37066(5) 0.99916(8) 0.26672(5)
N1 N 0.49866(14) 0.5406(2) 0.30623(14)
N2 N 0.47300(15) 0.8371(2) 0.29008(15)
N3 N 0.56367(14) 0.5403(2) 0.27700(14)
N4 N 0.68227(16) 1.1644(3) 0.42136(17)
N5 N 0.64965(15) 0.4392(3) 0.26815(16)
H1 H 0.6771 0.4421 0.2799
N6 N 0.55112(16) 0.9507(3) 0.41302(18)
H2 H 0.5549 0.9038 0.4166
N7 N 0.60037(17) 0.3380(3) 0.44502(17)
H3 H 0.6261 0.3482 0.4626
N8 N 0.34127(17) 0.9554(3) 0.22455(17)
H4 H 0.3393 0.9085 0.2271
C1 C 0.62799(16) 0.4885(3) 0.28259(17)
N9 N 0.69263(16) 0.2979(3) 0.38475(17)
N10 N 0.70918(16) 0.2144(3) 0.32545(17)
N11 N 0.55731(17) 0.2948(3) 0.10359(16)
C2 C 0.58419(16) 0.4923(3) 0.26490(18)
H5 H 0.5686 0.4594 0.2436
C3 C 0.64396(19) 1.0912(3) 0.44923(18)
C4 C 0.42141(18) 0.8882(3) 0.30936(18)
N12 N 0.30170(16) 1.0833(3) 0.13860(17)
C5 C 0.4980(2) 0.5389(3) 0.3829(2)
H6 H 0.4973 0.5384 0.4091
N13 N 0.51815(17) 0.2130(3) 0.44340(16)
C6 C 0.59051(18) 0.3933(3) 0.14902(19)
N14 N 0.39758(17) 1.1609(3) 0.36764(18)
C7 C 0.38839(19) 1.1144(3) 0.3369(2)
H7 H 0.4107 1.0929 0.3327
N15 N 0.38912(17) 0.9374(3) 0.30290(18)
H8 H 0.3774 0.9349 0.3201
C8 C 0.62849(19) 0.5844(3) 0.3268(2)
H9 H 0.6433 0.6170 0.3486
C9 C 0.44260(18) 0.8853(3) 0.28414(19)
H10 H 0.4352 0.9186 0.2621
C10 C 0.58566(18) 0.5844(3) 0.30841(18)
H11 H 0.5710 0.6167 0.3182
C11 C 0.48470(19) 0.7924(3) 0.3219(2)
H12 H 0.5064 0.7587 0.3260
C12 C 0.7411(2) 0.1822(3) 0.3217(2)
H13 H 0.7573 0.1477 0.3417
C13 C 0.4668(2) 0.7930(4) 0.3489(2)
H14 H 0.4765 0.7610 0.3717
C14 C 0.65010(19) 0.5355(3) 0.3133(2)
H15 H 0.6798 0.5352 0.3253
N16 N 0.47238(16) 1.0796(3) 0.41481(17)
C15 C 0.65352(18) 1.1144(3) 0.41698(19)
H16 H 0.6387 1.0934 0.3907
C16 C 0.52318(18) 0.4939(3) 0.33564(17)
H17 H 0.5405 0.4616 0.3294
C17 C 0.4735(2) 0.5860(3) 0.3525(2)
H18 H 0.4554 0.6184 0.3577
C18 C 0.5788(2) 0.2862(3) 0.45709(19)
C19 C 0.53887(19) 0.2638(3) 0.43214(18)
H19 H 0.5251 0.2849 0.4057
C20 C 0.4516(3) 1.0375(4) 0.4288(3)
H20 H 0.4306 1.0585 0.4353
C21 C 0.51706(19) 0.9800(3) 0.41793(19)
C22 C 0.47467(19) 0.5870(3) 0.3155(2)
H21 H 0.4582 0.6212 0.2955
C23 C 0.5485(3) 0.3370(4) 0.0712(2)
H22 H 0.5338 0.3184 0.0442
C24 C 0.5773(2) 0.3225(3) 0.1416(2)
H23 H 0.5825 0.2918 0.1644
C25 C 0.5612(3) 0.4107(4) 0.0773(2)
H24 H 0.5552 0.4407 0.0540
C26 C 0.5812(2) 0.4386(4) 0.1147(2)
H25 H 0.5891 0.4880 0.1182
C27 C 0.68606(19) 0.2620(3) 0.2969(2)
H26 H 0.6632 0.2841 0.2997
C28 C 0.5976(2) 0.2563(4) 0.4955(2)
H27 H 0.6248 0.2713 0.5141
C29 C 0.6675(3) 1.1211(4) 0.4881(2)
H28 H 0.6636 1.1052 0.5113
C30 C 0.4588(3) 0.9635(5) 0.4348(3)
H29 H 0.4400 0.9335 0.4403
C31 C 0.4341(2) 0.8406(4) 0.3429(2)
H30 H 0.4209 0.8409 0.3610
C32 C 0.7029(2) 1.1938(4) 0.4587(2)
H31 H 0.7231 1.2302 0.4623
C33 C 0.3664(3) 1.1910(4) 0.3737(3)
H32 H 0.3728 1.2247 0.3955
C34 C 0.5375(3) 0.1848(4) 0.4811(2)
H33 H 0.5231 0.1500 0.4897
C35 C 0.5054(2) 1.0513(3) 0.4102(2)
H34 H 0.5213 1.0820 0.4011
C36 C 0.4940(2) 0.9343(4) 0.4324(3)
H35 H 0.5023 0.8858 0.4401
C37 C 0.7515(2) 0.1977(4) 0.2893(3)
H36 H 0.7743 0.1741 0.2871
C38 C 0.6958(3) 1.1730(5) 0.4920(2)
H37 H 0.7110 1.1953 0.5179
C39 C 0.3249(3) 1.1746(5) 0.3492(3)
H38 H 0.3031 1.1965 0.3541
C40 C 0.5767(3) 0.2040(5) 0.5073(2)
H39 H 0.5899 0.1819 0.5335
P4 P 0.58476(5) 0.99485(8) 0.40120(5)
O1 O 0.59700(13) 0.3336(2) 0.23668(14)
O2 O 0.56129(14) 0.3354(2) 0.36399(13)
O3 O 0.40372(14) 1.0427(2) 0.26271(15)
O4 O 0.56541(14) 1.0424(2) 0.36465(14)
N17 N 0.55795(14) 0.8361(2) 0.29843(15)
N18 N 0.66964(17) 0.3315(3) 0.23347(17)
H40 H 0.6770 0.3393 0.2133
N19 N 0.61223(16) 0.4215(3) 0.18842(16)
H41 H 0.6173 0.4681 0.1900
N20 N 0.61490(15) 0.9327(3) 0.39607(16)
H42 H 0.6399 0.9287 0.4165
C41 C 0.56770(16) 0.8824(3) 0.32920(17)
H43 H 0.5470 0.9163 0.3278
N21 N 0.62139(17) 0.4272(3) 0.40114(16)
H44 H 0.6211 0.4743 0.4043
C42 C 0.65671(18) 0.3975(3) 0.39707(17)
N22 N 0.61378(17) 1.0388(3) 0.44345(16)
H45 H 0.6097 1.0278 0.4652
C43 C 0.31934(19) 0.9829(3) 0.1857(2)
N23 N 0.33751(16) 1.0455(3) 0.27792(19)
H46 H 0.3108 1.0386 0.2622
N24 N 0.54969(16) 0.4438(3) 0.40473(16)
H47 H 0.5488 0.4473 0.4287
C44 C 0.52398(17) 0.4916(3) 0.37371(18)
C45 C 0.60590(17) 0.8848(3) 0.36312(18)
C46 C 0.6590(2) 0.3262(3) 0.38849(19)
H48 H 0.6363 0.2954 0.3850
C47 C 0.3477(2) 1.0958(3) 0.3106(2)
C48 C 0.63611(18) 0.8364(3) 0.3633(2)
H49 H 0.6631 0.8360 0.3856
C49 C 0.32250(19) 1.0560(3) 0.1758(2)
H50 H 0.3405 1.0870 0.1970
C50 C 0.6904(2) 0.4430(3) 0.4018(2)
H51 H 0.6897 0.4928 0.4077
C51 C 0.2761(2) 1.0394(4) 0.1078(2)
H52 H 0.2609 1.0587 0.0810
C52 C 0.7245(2) 0.3414(4) 0.3892(2)
H53 H 0.7482 0.3224 0.3864
C53 C 0.7276(2) 0.2487(4) 0.2600(3)
H54 H 0.7345 0.2613 0.2380
C54 C 0.6271(2) 0.7896(4) 0.3315(2)
H55 H 0.6477 0.7562 0.3319
C55 C 0.2936(2) 0.9396(3) 0.1542(2)
H56 H 0.2906 0.8902 0.1594
C56 C 0.58806(19) 0.7906(3) 0.2987(2)
H57 H 0.5823 0.7591 0.2761
C57 C 0.6936(2) 0.2806(3) 0.2634(2)
C58 C 0.3158(2) 1.1262(4) 0.3178(3)
H58 H 0.2875 1.1136 0.3010
C59 C 0.2718(2) 0.9670(4) 0.1148(3)
H59 H 0.2543 0.9366 0.0931
C60 C 0.7233(2) 0.4148(4) 0.3978(3)
H60 H 0.7461 0.4450 0.4008
Cl2 Cl 0.52115(12) 0.18643(15) 0.15896(13)
Cl3 Cl 0.78152(13) 0.19269(18) 0.42331(12)
Cl6 Cl 0.61120(19) 0.18971(19) 0.32346(17)
Cu3A Cu 0.45848(3) 0.18704(4) 0.40407(3)
Cu3A_2 Cu 0.45848(3) 1.18704(4) 0.40407(3)
Cu3_2 Cu 0.54152(3) 1.18704(4) 0.09593(3)
Cu4A Cu 0.30453(3) 0.19040(4) 0.12671(3)
Cu4_2 Cu 0.69547(3) 1.19040(4) 0.37329(3)
Cu4A_2 Cu 0.30453(3) 1.19040(4) 0.12671(3)
P1A P 0.37055(5) 0.37772(8) 0.26785(5)
P2A P 0.41850(5) 0.38179(8) 0.09949(5)
P3A P 0.62934(5) 0.99916(8) 0.23328(5)
N1A N 0.50134(14) 0.5406(2) 0.19377(14)
N2A N 0.52700(15) 0.8371(2) 0.20992(15)
N3A N 0.43633(14) 0.5403(2) 0.22300(14)
N4A N 0.31773(16) 1.1644(3) 0.07864(17)
N4_2 N 0.68227(16) 0.1644(3) 0.42136(17)
N4A_2 N 0.31773(16) 0.1644(3) 0.07864(17)
N5A N 0.35035(15) 0.4392(3) 0.23185(16)
H1A H 0.3229 0.4421 0.2201
N6A N 0.44888(16) 0.9507(3) 0.08698(18)
H2A H 0.4451 0.9038 0.0834
N7A N 0.39963(17) 0.3380(3) 0.05498(17)
H3A H 0.3739 0.3482 0.0374
N8A N 0.65873(17) 0.9554(3) 0.27545(17)
H4A H 0.6607 0.9085 0.2729
C1A C 0.37201(16) 0.4885(3) 0.21741(17)
N9A N 0.30737(16) 0.2979(3) 0.11525(17)
N10A N 0.29082(16) 0.2144(3) 0.17455(17)
N11A N 0.44269(17) 0.2948(3) 0.39641(16)
C2A C 0.41581(16) 0.4923(3) 0.23510(18)
H5A H 0.4314 0.4594 0.2564
C3A C 0.35604(19) 1.0912(3) 0.05077(18)
C4A C 0.57859(18) 0.8882(3) 0.19064(18)
N12A N 0.69830(16) 1.0833(3) 0.36140(17)
N12A_2 N 0.69830(16) 0.0833(3) 0.36140(17)
N12_2 N 0.30170(16) 0.0833(3) 0.13860(17)
C5A C 0.5020(2) 0.5389(3) 0.1171(2)
H6A H 0.5027 0.5384 0.0909
N13A N 0.48185(17) 0.2130(3) 0.05660(16)
C6A C 0.40949(18) 0.3933(3) 0.35098(19)
N14A N 0.60242(17) 1.1609(3) 0.13236(18)
N14A_2 N 0.60242(17) 0.1609(3) 0.13236(18)
N14_2 N 0.39758(17) 0.1609(3) 0.36764(18)
C7A C 0.61161(19) 1.1144(3) 0.1631(2)
H7A H 0.5893 1.0929 0.1673
N15A N 0.61088(17) 0.9374(3) 0.19710(18)
H8A H 0.6226 0.9349 0.1799
C8A C 0.37151(19) 0.5844(3) 0.1732(2)
H9A H 0.3567 0.6170 0.1514
C9A C 0.55740(18) 0.8853(3) 0.21586(19)
H10A H 0.5648 0.9186 0.2379
C10A C 0.41434(18) 0.5844(3) 0.19159(18)
H11A H 0.4290 0.6167 0.1818
C11A C 0.51530(19) 0.7924(3) 0.1781(2)
H12A H 0.4936 0.7587 0.1740
C12A C 0.2589(2) 0.1822(3) 0.1783(2)
H13A H 0.2427 0.1477 0.1583
C13A C 0.5332(2) 0.7930(4) 0.1511(2)
H14A H 0.5235 0.7610 0.1283
C14A C 0.34990(19) 0.5355(3) 0.1867(2)
H15A H 0.3202 0.5352 0.1747
N16A N 0.52762(16) 1.0796(3) 0.08519(17)
N16A_2 N 0.52762(16) 0.0796(3) 0.08519(17)
N16_2 N 0.47238(16) 0.0796(3) 0.41481(17)
C15A C 0.34648(18) 1.1144(3) 0.08302(19)
H16A H 0.3613 1.0934 0.1093
C16A C 0.47682(18) 0.4939(3) 0.16436(17)
H17A H 0.4595 0.4616 0.1706
C17A C 0.5265(2) 0.5860(3) 0.1475(2)
H18A H 0.5446 0.6184 0.1423
C18A C 0.4212(2) 0.2862(3) 0.04291(19)
C19A C 0.46113(19) 0.2638(3) 0.06786(18)
H19A H 0.4749 0.2849 0.0943
C20A C 0.5484(3) 1.0375(4) 0.0712(3)
H20A H 0.5694 1.0585 0.0647
C21A C 0.48294(19) 0.9800(3) 0.08207(19)
C22A C 0.52533(19) 0.5870(3) 0.1845(2)
H21A H 0.5418 0.6212 0.2045
C23A C 0.4515(3) 0.3370(4) 0.4288(2)
H22A H 0.4662 0.3184 0.4558
C24A C 0.4227(2) 0.3225(3) 0.3584(2)
H23A H 0.4175 0.2918 0.3356
C25A C 0.4388(3) 0.4107(4) 0.4227(2)
H24A H 0.4448 0.4407 0.4460
C26A C 0.4188(2) 0.4386(4) 0.3853(2)
H25A H 0.4109 0.4880 0.3818
C27A C 0.31394(19) 0.2620(3) 0.2031(2)
H26A H 0.3368 0.2841 0.2003
C28A C 0.4024(2) 0.2563(4) 0.0045(2)
H27A H 0.3752 0.2713 -0.0141
C29A C 0.3325(3) 1.1211(4) 0.0119(2)
H28A H 0.3364 1.1052 -0.0113
C30A C 0.5412(3) 0.9635(5) 0.0652(3)
H29A H 0.5600 0.9335 0.0597
C31A C 0.5659(2) 0.8406(4) 0.1571(2)
H30A H 0.5791 0.8409 0.1390
C32A C 0.2971(2) 1.1938(4) 0.0413(2)
H31A H 0.2769 1.2302 0.0377
C33A C 0.6336(3) 1.1910(4) 0.1263(3)
H32A H 0.6272 1.2247 0.1045
C34A C 0.4625(3) 0.1848(4) 0.0189(2)
H33A H 0.4769 0.1500 0.0103
C35A C 0.4946(2) 1.0513(3) 0.0898(2)
H34A H 0.4787 1.0820 0.0989
C36A C 0.5060(2) 0.9343(4) 0.0676(3)
H35A H 0.4977 0.8858 0.0599
C37A C 0.2485(2) 0.1977(4) 0.2107(3)
H36A H 0.2257 0.1741 0.2129
C38A C 0.3042(3) 1.1730(5) 0.0080(2)
H37A H 0.2890 1.1953 -0.0179
C39A C 0.6751(3) 1.1746(5) 0.1508(3)
H38A H 0.6969 1.1965 0.1459
C40A C 0.4233(3) 0.2040(5) -0.0073(2)
H39A H 0.4101 0.1819 -0.0335
P4A P 0.41524(5) 0.99485(8) 0.09880(5)
O1A O 0.40300(13) 0.3336(2) 0.26332(14)
O2A O 0.43871(14) 0.3354(2) 0.13601(13)
O3A O 0.59628(14) 1.0427(2) 0.23729(15)
O4A O 0.43459(14) 1.0424(2) 0.13535(14)
N17A N 0.44205(14) 0.8361(2) 0.20157(15)
N18A N 0.33036(17) 0.3315(3) 0.26653(17)
H40A H 0.3230 0.3393 0.2867
N19A N 0.38777(16) 0.4215(3) 0.31158(16)
H41A H 0.3827 0.4681 0.3100
N20A N 0.38510(15) 0.9327(3) 0.10393(16)
H42A H 0.3601 0.9287 0.0835
C41A C 0.43230(16) 0.8824(3) 0.17080(17)
H43A H 0.4530 0.9163 0.1722
N21A N 0.37861(17) 0.4272(3) 0.09886(16)
H44A H 0.3789 0.4743 0.0957
C42A C 0.34329(18) 0.3975(3) 0.10293(17)
N22A N 0.38622(17) 1.0388(3) 0.05655(16)
H45A H 0.3903 1.0278 0.0348
C43A C 0.68066(19) 0.9829(3) 0.3143(2)
N23A N 0.66249(16) 1.0455(3) 0.22208(19)
H46A H 0.6892 1.0386 0.2378
N24A N 0.45031(16) 0.4438(3) 0.09527(16)
H47A H 0.4512 0.4473 0.0713
C44A C 0.47602(17) 0.4916(3) 0.12629(18)
C45A C 0.39410(17) 0.8848(3) 0.13688(18)
C46A C 0.3410(2) 0.3262(3) 0.11151(19)
H48A H 0.3637 0.2954 0.1150
C47A C 0.6523(2) 1.0958(3) 0.1894(2)
C48A C 0.36389(18) 0.8364(3) 0.1367(2)
H49A H 0.3369 0.8360 0.1144
C49A C 0.67750(19) 1.0560(3) 0.3242(2)
H50A H 0.6595 1.0870 0.3030
C50A C 0.3096(2) 0.4430(3) 0.0982(2)
H51A H 0.3103 0.4928 0.0923
C51A C 0.7239(2) 1.0394(4) 0.3922(2)
H52A H 0.7391 1.0587 0.4190
C52A C 0.2755(2) 0.3414(4) 0.1108(2)
H53A H 0.2518 0.3224 0.1136
C53A C 0.2724(2) 0.2487(4) 0.2400(3)
H54A H 0.2655 0.2613 0.2620
C54A C 0.3729(2) 0.7896(4) 0.1685(2)
H55A H 0.3523 0.7562 0.1681
C55A C 0.7064(2) 0.9396(3) 0.3458(2)
H56A H 0.7094 0.8902 0.3406
C56A C 0.41194(19) 0.7906(3) 0.2013(2)
H57A H 0.4177 0.7591 0.2239
C57A C 0.3064(2) 0.2806(3) 0.2366(2)
C58A C 0.6842(2) 1.1262(4) 0.1822(3)
H58A H 0.7125 1.1136 0.1990
C59A C 0.7282(2) 0.9670(4) 0.3852(3)
H59A H 0.7457 0.9366 0.4069
C60A C 0.2767(2) 0.4148(4) 0.1022(3)
H60A H 0.2539 0.4450 0.0992
Cl2A Cl 0.47885(12) 0.18643(15) 0.34104(13)
Cl3A Cl 0.21848(13) 0.19269(18) 0.07669(12)
Cl6A Cl 0.38880(19) 0.18971(19) 0.17654(17)
Cl4 Cl 0.56241(17) 0.1837(2) 0.02383(17)
O5 O 0.5000 0.1888(4) 0.2500
O6 O 0.6851(2) 0.3992(5) 0.5058(2)
Cl5 Cl 0.5080(3) 0.2837(5) -0.04558(19)
O7 O 0.3479(3) 0.5736(4) 0.3049(3)
O8 O 0.7554(3) 1.0096(5) 0.2721(3)
O9 O 0.2909(3) 0.3714(4) 0.3222(3)
O10 O 0.5541(4) 0.4690(5) 0.4896(2)
O11 O 0.2561(2) 0.4644(5) 0.1902(3)
O12 O 0.6283(5) 0.5794(5) 0.4298(4)
O13 O 0.5759(4) -0.1978(5) 0.4340(4)
O14 O 0.6913(5) 0.8108(6) 0.2662(5)
O15 O 0.6157(6) 0.0275(8) 0.0217(5)
O16 O 0.5338(4) 0.2714(7) 0.3127(4)
O17 O 0.6950(4) -0.0939(10) 0.4692(4)
O18 O 0.6737(5) 0.8828(9) 0.1572(12)
O19 O 0.5000 0.3960(12) 0.2500
O20 O 0.8347(4) 0.2852(10) 0.3981(4)
O21 O 0.4200(7) 0.1867(5) 0.2623(9)
Cl7 Cl 0.5000 -0.0159(12) 0.2500
O22 O 0.5368(4) 0.1033(7) 0.3132(4)
O23 O 0.5809(12) -0.327(2) 0.3915(11)
O24 O 0.3746(9) 0.6804(14) 0.2859(9)
O25 O 0.5479(7) 0.3928(11) 0.5517(6)
O26 O 0.5886(7) 0.6189(13) 0.4849(6)
O27 O 0.7316(8) 0.5250(14) 0.5034(8)
O28 O 0.7128(11) 0.6959(16) 0.3103(11)
loop_
_geom_bond_atom_site_label_1
_geom_bond_atom_site_label_2
_geom_bond_site_symmetry_1
_geom_bond_site_symmetry_2
Cu1 Cl1 1_555 1_555
Cu2 Cl1 1_555 1_555
Cu3 N11 1_555 1_555
Cu4 N9 1_555 1_555
P1 N5 1_555 1_555
P2 N7 1_555 1_555
P3 N8 1_555 1_555
N1 Cu1 1_555 1_555
N2 Cu2 1_555 1_555
N3 Cu1 1_555 1_555
N4 C15 1_555 1_555
N5 H1 1_555 1_555
N6 H2 1_555 1_555
N7 H3 1_555 1_555
N8 H4 1_555 1_555
C1 N5 1_555 1_555
N9 C46 1_555 1_555
N10 Cu4 1_555 1_555
N11 C23 1_555 1_555
C2 N3 1_555 1_555
H5 C2 1_555 1_555
C3 C15 1_555 1_555
C4 N15 1_555 1_555
N12 C49 1_555 1_555
C5 H6 1_555 1_555
N13 C19 1_555 1_555
C6 C24 1_555 1_555
N14 C7 1_555 1_555
C7 H7 1_555 1_555
N15 P3 1_555 1_555
H8 N15 1_555 1_555
C8 H9 1_555 1_555
C9 N2 1_555 1_555
H10 C9 1_555 1_555
C10 N3 1_555 1_555
H11 C10 1_555 1_555
C11 N2 1_555 1_555
H12 C11 1_555 1_555
C12 N10 1_555 1_555
H13 C12 1_555 1_555
C13 C11 1_555 1_555
H14 C13 1_555 1_555
C14 C1 1_555 1_555
H15 C14 1_555 1_555
N16 C20 1_555 1_555
C15 H16 1_555 1_555
C16 N1 1_555 1_555
H17 C16 1_555 1_555
C17 C5 1_555 1_555
H18 C17 1_555 1_555
C18 N7 1_555 1_555
C19 C18 1_555 1_555
H19 C19 1_555 1_555
C20 H20 1_555 1_555
C21 N6 1_555 1_555
C22 N1 1_555 1_555
H21 C22 1_555 1_555
C23 H22 1_555 1_555
C24 N11 1_555 1_555
H23 C24 1_555 1_555
C25 C23 1_555 1_555
H24 C25 1_555 1_555
C26 C6 1_555 1_555
H25 C26 1_555 1_555
C27 N10 1_555 1_555
H26 C27 1_555 1_555
C28 C18 1_555 1_555
H27 C28 1_555 1_555
C29 C3 1_555 1_555
H28 C29 1_555 1_555
C30 C20 1_555 1_555
H29 C30 1_555 1_555
C31 C4 1_555 1_555
H30 C31 1_555 1_555
C32 N4 1_555 1_555
H31 C32 1_555 1_555
C33 N14 1_555 1_555
H32 C33 1_555 1_555
C34 N13 1_555 1_555
H33 C34 1_555 1_555
C35 N16 1_555 1_555
H34 C35 1_555 1_555
C36 C21 1_555 1_555
H35 C36 1_555 1_555
C37 C12 1_555 1_555
H36 C37 1_555 1_555
C38 C29 1_555 1_555
H37 C38 1_555 1_555
C39 C33 1_555 1_555
H38 C39 1_555 1_555
C40 C28 1_555 1_555
H39 C40 1_555 1_555
P4 N6 1_555 1_555
O1 P1 1_555 1_555
O2 P2 1_555 1_555
O3 P3 1_555 1_555
O4 P4 1_555 1_555
N17 Cu2 1_555 1_555
N18 P1 1_555 1_555
H40 N18 1_555 1_555
N19 P1 1_555 1_555
H41 N19 1_555 1_555
N20 P4 1_555 1_555
H42 N20 1_555 1_555
C41 N17 1_555 1_555
H43 C41 1_555 1_555
N21 P2 1_555 1_555
H44 N21 1_555 1_555
C42 N21 1_555 1_555
N22 C3 1_555 1_555
H45 N22 1_555 1_555
C43 N8 1_555 1_555
N23 P3 1_555 1_555
H46 N23 1_555 1_555
N24 P2 1_555 1_555
H47 N24 1_555 1_555
C44 C5 1_555 1_555
C45 N20 1_555 1_555
C46 C42 1_555 1_555
H48 C46 1_555 1_555
C47 C7 1_555 1_555
C48 C45 1_555 1_555
H49 C48 1_555 1_555
C49 C43 1_555 1_555
H50 C49 1_555 1_555
C50 C42 1_555 1_555
H51 C50 1_555 1_555
C51 N12 1_555 1_555
H52 C51 1_555 1_555
C52 N9 1_555 1_555
H53 C52 1_555 1_555
C53 C37 1_555 1_555
H54 C53 1_555 1_555
C54 C48 1_555 1_555
H55 C54 1_555 1_555
C55 C43 1_555 1_555
H56 C55 1_555 1_555
C56 N17 1_555 1_555
H57 C56 1_555 1_555
C57 C27 1_555 1_555
C58 C39 1_555 1_555
H58 C58 1_555 1_555
C59 C51 1_555 1_555
H59 C59 1_555 1_555
C60 C50 1_555 1_555
H60 C60 1_555 1_555
Cl2 Cu3 1_555 1_555
Cl3 Cu4 1_555 1_555
Cl6 Cu4 1_555 1_555
Cu3A N13 1_555 1_555
Cu3A_2 N14 1_555 1_555
Cu3_2 N14A 1_555 1_555
Cu4A N4A_2 1_555 1_555
Cu4_2 N4 1_555 1_555
Cu4A_2 N12 1_555 1_555
P1A N5A 1_555 1_555
P2A N7A 1_555 1_555
P3A N8A 1_555 1_555
N1A Cu1 1_555 1_555
N2A Cu2 1_555 1_555
N3A Cu1 1_555 1_555
N4A Cu4A_2 1_555 1_555
N4_2 Cu4 1_555 1_555
N5A H1A 1_555 1_555
N6A H2A 1_555 1_555
N7A H3A 1_555 1_555
N8A H4A 1_555 1_555
C1A N5A 1_555 1_555
N9A Cu4A 1_555 1_555
N10A Cu4A 1_555 1_555
N11A Cu3A 1_555 1_555
C2A N3A 1_555 1_555
H5A C2A 1_555 1_555
C3A C15A 1_555 1_555
C4A N15A 1_555 1_555
N12A Cu4_2 1_555 1_555
N12A_2 Cu4 1_555 1_555
N12_2 Cu4A 1_555 1_555
C5A H6A 1_555 1_555
N13A Cu3 1_555 1_555
C6A C24A 1_555 1_555
N14A C7A 1_555 1_555
N14A_2 Cu3 1_555 1_555
N14_2 Cu3A 1_555 1_555
C7A H7A 1_555 1_555
N15A P3A 1_555 1_555
H8A N15A 1_555 1_555
C8A H9A 1_555 1_555
C9A N2A 1_555 1_555
H10A C9A 1_555 1_555
C10A N3A 1_555 1_555
H11A C10A 1_555 1_555
C11A N2A 1_555 1_555
H12A C11A 1_555 1_555
C12A N10A 1_555 1_555
H13A C12A 1_555 1_555
C13A C11A 1_555 1_555
H14A C13A 1_555 1_555
C14A C1A 1_555 1_555
H15A C14A 1_555 1_555
N16A Cu3_2 1_555 1_555
N16A_2 Cu3 1_555 1_555
N16_2 Cu3A 1_555 1_555
C15A N4A 1_555 1_555
H16A C15A 1_555 1_555
C16A N1A 1_555 1_555
H17A C16A 1_555 1_555
C17A C5A 1_555 1_555
H18A C17A 1_555 1_555
C18A N7A 1_555 1_555
C19A N13A 1_555 1_555
H19A C19A 1_555 1_555
C20A N16A 1_555 1_555
H20A C20A 1_555 1_555
C21A N6A 1_555 1_555
C22A N1A 1_555 1_555
H21A C22A 1_555 1_555
C23A N11A 1_555 1_555
H22A C23A 1_555 1_555
C24A N11A 1_555 1_555
H23A C24A 1_555 1_555
C25A C23A 1_555 1_555
H24A C25A 1_555 1_555
C26A C6A 1_555 1_555
H25A C26A 1_555 1_555
C27A N10A 1_555 1_555
H26A C27A 1_555 1_555
C28A C18A 1_555 1_555
H27A C28A 1_555 1_555
C29A C3A 1_555 1_555
H28A C29A 1_555 1_555
C30A C20A 1_555 1_555
H29A C30A 1_555 1_555
C31A C4A 1_555 1_555
H30A C31A 1_555 1_555
C32A N4A 1_555 1_555
H31A C32A 1_555 1_555
C33A N14A 1_555 1_555
H32A C33A 1_555 1_555
C34A N13A 1_555 1_555
H33A C34A 1_555 1_555
C35A N16A 1_555 1_555
H34A C35A 1_555 1_555
C36A C21A 1_555 1_555
H35A C36A 1_555 1_555
C37A C12A 1_555 1_555
H36A C37A 1_555 1_555
C38A C29A 1_555 1_555
H37A C38A 1_555 1_555
C39A C33A 1_555 1_555
H38A C39A 1_555 1_555
C40A C28A 1_555 1_555
H39A C40A 1_555 1_555
P4A N6A 1_555 1_555
O1A P1A 1_555 1_555
O2A P2A 1_555 1_555
O3A P3A 1_555 1_555
O4A P4A 1_555 1_555
N17A Cu2 1_555 1_555
N18A P1A 1_555 1_555
H40A N18A 1_555 1_555
N19A P1A 1_555 1_555
H41A N19A 1_555 1_555
N20A P4A 1_555 1_555
H42A N20A 1_555 1_555
C41A N17A 1_555 1_555
H43A C41A 1_555 1_555
N21A P2A 1_555 1_555
H44A N21A 1_555 1_555
C42A N21A 1_555 1_555
N22A C3A 1_555 1_555
H45A N22A 1_555 1_555
C43A N8A 1_555 1_555
N23A P3A 1_555 1_555
H46A N23A 1_555 1_555
N24A P2A 1_555 1_555
H47A N24A 1_555 1_555
C44A C5A 1_555 1_555
C45A N20A 1_555 1_555
C46A N9A 1_555 1_555
H48A C46A 1_555 1_555
C47A C7A 1_555 1_555
C48A C45A 1_555 1_555
H49A C48A 1_555 1_555
C49A N12A 1_555 1_555
H50A C49A 1_555 1_555
C50A C42A 1_555 1_555
H51A C50A 1_555 1_555
C51A N12A 1_555 1_555
H52A C51A 1_555 1_555
C52A N9A 1_555 1_555
H53A C52A 1_555 1_555
C53A C37A 1_555 1_555
H54A C53A 1_555 1_555
C54A C48A 1_555 1_555
H55A C54A 1_555 1_555
C55A C43A 1_555 1_555
H56A C55A 1_555 1_555
C56A N17A 1_555 1_555
H57A C56A 1_555 1_555
C57A C27A 1_555 1_555
C58A C39A 1_555 1_555
H58A C58A 1_555 1_555
C59A C51A 1_555 1_555
H59A C59A 1_555 1_555
C60A C50A 1_555 1_555
H60A C60A 1_555 1_555
Cl2A Cu3A 1_555 1_555
Cl3A Cu4A 1_555 1_555
Cl6A Cu4A 1_555 1_555
C1 C2 1_555 1_555
C4 C9 1_555 1_555
C6 N19 1_555 1_555
C8 C10 1_555 1_555
C8 C14 1_555 1_555
C13 C31 1_555 1_555
N16 Cu3A_2 1_555 1_555
C16 C44 1_555 1_555
C17 C22 1_555 1_555
C21 C35 1_555 1_555
C25 C26 1_555 1_555
C30 C36 1_555 1_555
C32 C38 1_555 1_555
C34 C40 1_555 1_555
P4 N22 1_555 1_555
N18 C57 1_555 1_555
C41 C45 1_555 1_555
N23 C47 1_555 1_555
N24 C44 1_555 1_555
C47 C58 1_555 1_555
C52 C60 1_555 1_555
C53 C57 1_555 1_555
C54 C56 1_555 1_555
C55 C59 1_555 1_555
C1A C2A 1_555 1_555
C4A C9A 1_555 1_555
C6A N19A 1_555 1_555
C8A C10A 1_555 1_555
C8A C14A 1_555 1_555
C13A C31A 1_555 1_555
C16A C44A 1_555 1_555
C17A C22A 1_555 1_555
C18A C19A 1_555 1_555
C21A C35A 1_555 1_555
C25A C26A 1_555 1_555
C30A C36A 1_555 1_555
C32A C38A 1_555 1_555
C34A C40A 1_555 1_555
P4A N22A 1_555 1_555
N18A C57A 1_555 1_555
C41A C45A 1_555 1_555
C42A C46A 1_555 1_555
C43A C49A 1_555 1_555
N23A C47A 1_555 1_555
N24A C44A 1_555 1_555
C47A C58A 1_555 1_555
C52A C60A 1_555 1_555
C53A C57A 1_555 1_555
C54A C56A 1_555 1_555
C55A C59A 1_555 1_555

#END
