
#######################################################################
#
#                 Cambridge Crystallographic Data Centre
#                                CCDC 
#
#######################################################################
#
# If this CIF has been generated from an entry in the Cambridge 
# Structural Database, then it will include bibliographic, chemical, 
# crystal, experimental, refinement or atomic coordinate data resulting 
# from the CCDC's data processing and validation procedures.
#
#######################################################################

data_OLOJUU03
_symmetry_cell_setting           monoclinic
_symmetry_space_group_name_H-M   'C 2/c'
_symmetry_Int_Tables_number      15
_space_group_name_Hall           '-C 2yn'
loop_
_symmetry_equiv_pos_site_id
_symmetry_equiv_pos_as_xyz
1 x,y,z
2 -x,y,1/2-z
3 1/2+x,1/2+y,z
4 1/2-x,1/2+y,1/2-z
5 -x,-y,-z
6 x,-y,1/2+z
7 1/2-x,1/2-y,-z
8 1/2+x,1/2-y,1/2+z
_cell_length_a                   16.9730(18)
_cell_length_b                   10.5237(11)
_cell_length_c                   7.2383(8)
_cell_angle_alpha                90
_cell_angle_beta                 110.751(1)
_cell_angle_gamma                90
_cell_volume                     1209.02
loop_
_atom_site_label
_atom_site_type_symbol
_atom_site_fract_x
_atom_site_fract_y
_atom_site_fract_z
Cd1 Cd 0.0000 0.92907(3) 0.2500
Cl1 Cl 0.09565(6) 1.07753(8) 0.51160(13)
N1 N 0.07586(18) 0.7469(3) 0.4005(4)
C1 C 0.1509(3) 0.7484(5) 0.5446(7)
H1 H 0.1744 0.8260 0.5983
C2 C 0.1953(3) 0.6371(7) 0.6173(8)
H2 H 0.2484 0.6409 0.7154
C3 C 0.1615(4) 0.5243(6) 0.5457(9)
H3 H 0.1915 0.4500 0.5936
C4 C 0.0815(4) 0.5177(4) 0.3995(7)
C5 C 0.0410(3) 0.6346(3) 0.3277(6)
C6 C 0.0369(4) 0.4012(4) 0.3176(8)
H4 H 0.0627 0.3238 0.3643
Cd1D Cd 0.0000 1.07093(3) 0.7500
Cd1D_2 Cd 0.0000 1.07093(3) -0.2500
Cl1D Cl -0.09565(6) 0.92247(8) 0.48840(13)
Cl1A Cl -0.09565(6) 1.07753(8) -0.01160(13)
Cl1E Cl 0.09565(6) 0.92247(8) 0.01160(13)
N1A N -0.07586(18) 0.7469(3) 0.0995(4)
C1A C -0.1509(3) 0.7484(5) -0.0446(7)
H1A H -0.1744 0.8260 -0.0983
C2A C -0.1953(3) 0.6371(7) -0.1173(8)
H2A H -0.2484 0.6409 -0.2154
C3A C -0.1615(4) 0.5243(6) -0.0457(9)
H3A H -0.1915 0.4500 -0.0936
C4A C -0.0815(4) 0.5177(4) 0.1005(7)
C5A C -0.0410(3) 0.6346(3) 0.1723(6)
C6A C -0.0369(4) 0.4012(4) 0.1824(8)
H4A H -0.0627 0.3238 0.1357
loop_
_geom_bond_atom_site_label_1
_geom_bond_atom_site_label_2
_geom_bond_site_symmetry_1
_geom_bond_site_symmetry_2
Cd1 Cl1 1_555 1_555
Cl1 Cd1D 1_555 1_555
N1 Cd1 1_555 1_555
C1 N1 1_555 1_555
H1 C1 1_555 1_555
C2 C1 1_555 1_555
H2 C2 1_555 1_555
C3 C2 1_555 1_555
H3 C3 1_555 1_555
C4 C3 1_555 1_555
C5 N1 1_555 1_555
C6 C4 1_555 1_555
H4 C6 1_555 1_555
Cd1D Cl1D 1_555 1_555
Cd1D_2 Cl1A 1_555 1_555
Cl1D Cd1 1_555 1_555
Cl1A Cd1 1_555 1_555
Cl1E Cd1 1_555 1_555
N1A Cd1 1_555 1_555
C1A N1A 1_555 1_555
H1A C1A 1_555 1_555
C2A C1A 1_555 1_555
H2A C2A 1_555 1_555
C3A C2A 1_555 1_555
H3A C3A 1_555 1_555
C4A C3A 1_555 1_555
C5A C5 1_555 1_555
C6A C6 1_555 1_555
H4A C6A 1_555 1_555
C4 C5 1_555 1_555
Cd1D_2 Cl1E 1_555 1_555
N1A C5A 1_555 1_555
C4A C5A 1_555 1_555
C4A C6A 1_555 1_555

#END
