
#######################################################################
#
#                 Cambridge Crystallographic Data Centre
#                                CCDC 
#
#######################################################################
#
# If this CIF has been generated from an entry in the Cambridge 
# Structural Database, then it will include bibliographic, chemical, 
# crystal, experimental, refinement or atomic coordinate data resulting 
# from the CCDC's data processing and validation procedures.
#
#######################################################################

data_OLOJII
_symmetry_cell_setting           triclinic
_symmetry_space_group_name_H-M   'P -1'
_symmetry_Int_Tables_number      2
_space_group_name_Hall           '-P 1'
loop_
_symmetry_equiv_pos_site_id
_symmetry_equiv_pos_as_xyz
1 x,y,z
2 -x,-y,-z
_cell_length_a                   7.2342(4)
_cell_length_b                   8.0693(5)
_cell_length_c                   9.3975(6)
_cell_angle_alpha                96.1140(10)
_cell_angle_beta                 102.3500(10)
_cell_angle_gamma                116.0530(10)
_cell_volume                     468.706
loop_
_atom_site_label
_atom_site_type_symbol
_atom_site_fract_x
_atom_site_fract_y
_atom_site_fract_z
Co1 Co 0.59863(6) 0.81673(5) 0.67725(4)
O1 O 0.6569(3) 0.5746(3) 0.6870(2)
O2 O 0.8620(3) 0.8419(3) 0.8516(2)
O3 O 1.4033(3) 0.7048(3) 0.8083(2)
O4 O 1.0931(3) 0.6602(3) 0.6600(2)
N1 N 0.8300(4) 0.9316(3) 0.5603(3)
O5 O 0.3430(3) 0.7086(3) 0.4829(2)
O6 O 0.5962(4) 1.0663(3) 0.7297(3)
C1 C 0.8078(4) 0.6723(4) 0.8059(3)
C2 C 0.9101(4) 0.5805(4) 0.9022(3)
C3 C 0.8154(4) 0.5053(4) 1.0089(3)
C4 C 1.0975(4) 0.5761(4) 0.8926(3)
C5 C 1.2038(4) 0.6544(4) 0.7769(3)
C6 C 0.9991(5) 1.1008(4) 0.6194(3)
C7 C 0.8319(5) 0.8298(4) 0.4400(3)
H1 H 0.232(3) 0.683(4) 0.512(3)
H2 H 0.297(6) 0.596(2) 0.438(4)
H3 H 0.510(5) 1.084(6) 0.770(4)
H4 H 0.624(6) 1.144(5) 0.674(4)
H7 H 0.6907 0.5092 1.0150
H8 H 1.0034 1.1752 0.7041
H9 H 0.7166 0.7096 0.3955
C4A C 0.9025(4) 0.4239(4) 1.1074(3)
C2A C 1.0899(4) 0.4195(4) 1.0978(3)
C1A C 1.1922(4) 0.3277(4) 1.1941(3)
O1A O 1.3431(3) 0.4254(3) 1.3130(2)
O2A O 1.1380(3) 0.1581(3) 1.1484(2)
C3A C 1.1846(4) 0.4947(4) 0.9911(3)
H7A H 1.3093 0.4908 0.9850
C5A C 0.7962(4) 0.3456(4) 1.2231(3)
O3A O 0.5967(3) 0.2952(3) 1.1917(2)
O4A O 0.9069(3) 0.3398(3) 1.3400(2)
C7A C 1.1681(5) 1.1702(4) 0.5600(3)
N1A N 1.1700(4) 1.0684(3) 0.4397(3)
C6A C 1.0009(5) 0.8992(4) 0.3806(3)
H8A H 0.9966 0.8248 0.2959
H9A H 1.2834 1.2904 0.6045
Co1A Co 1.40137(6) 0.18327(5) 1.32275(4)
O5A O 1.6570(3) 0.2914(3) 1.5171(2)
H1A H 1.768(3) 0.317(4) 1.488(3)
H2A H 1.703(6) 0.404(2) 1.562(4)
O6A O 1.4038(4) -0.0663(3) 1.2703(3)
H3A H 1.490(5) -0.084(6) 1.230(4)
H4A H 1.376(6) -0.144(5) 1.326(4)
O3_2 O 0.4033(3) 0.7048(3) 0.8083(2)
Co1_2 Co 1.59863(6) 0.81673(5) 0.67725(4)
Co1A_2 Co 0.40137(6) 0.18327(5) 1.32275(4)
Co1A_3 Co 1.40137(6) 1.18327(5) 0.32275(4)
O3A_2 O 1.5967(3) 0.2952(3) 1.1917(2)
N1A_2 N 1.1700(4) 0.0684(3) 1.4397(3)
O7 O 1.3414(4) 1.1001(4) 0.8937(3)
H5 H 1.218(3) 1.023(5) 0.897(5)
H6 H 1.424(5) 1.160(5) 0.980(2)
loop_
_geom_bond_atom_site_label_1
_geom_bond_atom_site_label_2
_geom_bond_site_symmetry_1
_geom_bond_site_symmetry_2
Co1 O1 1_555 1_555
O1 C1 1_555 1_555
O2 Co1 1_555 1_555
O3 C5 1_555 1_555
O4 C5 1_555 1_555
N1 Co1 1_555 1_555
O5 Co1 1_555 1_555
O6 Co1 1_555 1_555
O7 H5 1_555 1_555
C1 O2 1_555 1_555
C2 C1 1_555 1_555
C3 C2 1_555 1_555
C4 C2 1_555 1_555
C5 C4 1_555 1_555
C6 N1 1_555 1_555
C7 N1 1_555 1_555
H1 O5 1_555 1_555
H2 O5 1_555 1_555
H3 O6 1_555 1_555
H4 O6 1_555 1_555
H6 O7 1_555 1_555
H7 C3 1_555 1_555
H8 C6 1_555 1_555
H9 C7 1_555 1_555
C4A C3 1_555 1_555
C2A C4A 1_555 1_555
C1A C2A 1_555 1_555
O1A C1A 1_555 1_555
O2A C1A 1_555 1_555
C3A C4 1_555 1_555
H7A C3A 1_555 1_555
C5A C4A 1_555 1_555
O3A C5A 1_555 1_555
O4A C5A 1_555 1_555
C7A C6 1_555 1_555
N1A C7A 1_555 1_555
C6A C7 1_555 1_555
H8A C6A 1_555 1_555
H9A C7A 1_555 1_555
Co1A O1A 1_555 1_555
O5A Co1A 1_555 1_555
H1A O5A 1_555 1_555
H2A O5A 1_555 1_555
O6A Co1A 1_555 1_555
H3A O6A 1_555 1_555
H4A O6A 1_555 1_555
O3_2 Co1 1_555 1_555
Co1_2 O3 1_555 1_555
Co1A_2 O3A 1_555 1_555
Co1A_3 N1A 1_555 1_555
O3A_2 Co1A 1_555 1_555
N1A_2 Co1A 1_555 1_555
C2A C3A 1_555 1_555
O2A Co1A 1_555 1_555
N1A C6A 1_555 1_555

#END
