
#######################################################################
#
#                 Cambridge Crystallographic Data Centre
#                                CCDC 
#
#######################################################################
#
# If this CIF has been generated from an entry in the Cambridge 
# Structural Database, then it will include bibliographic, chemical, 
# crystal, experimental, refinement or atomic coordinate data resulting 
# from the CCDC's data processing and validation procedures.
#
#######################################################################

data_OLOJUU01
_symmetry_cell_setting           monoclinic
_symmetry_space_group_name_H-M   'C 2/c'
_symmetry_Int_Tables_number      15
_space_group_name_Hall           '-C 2yn'
loop_
_symmetry_equiv_pos_site_id
_symmetry_equiv_pos_as_xyz
1 x,y,z
2 1/2+x,1/2+y,z
3 -x,y,1/2-z
4 1/2-x,1/2+y,1/2-z
5 -x,-y,-z
6 1/2-x,1/2-y,-z
7 x,-y,1/2+z
8 1/2+x,1/2-y,1/2+z
_cell_length_a                   16.9339(18)
_cell_length_b                   10.5113(11)
_cell_length_c                   7.2284(7)
_cell_angle_alpha                90
_cell_angle_beta                 110.643(2)
_cell_angle_gamma                90
_cell_volume                     1204.03
loop_
_atom_site_label
_atom_site_type_symbol
_atom_site_fract_x
_atom_site_fract_y
_atom_site_fract_z
Cd1 Cd 0.0000 0.07085(3) 0.7500
Cl1 Cl 0.09579(5) -0.07723(7) 1.01153(10)
N1 N 0.07649(15) 0.2525(2) 0.9015(4)
C1 C 0.0411(2) 0.3656(3) 0.8272(4)
C2 C 0.0814(3) 0.4813(3) 0.9004(6)
C3 C 0.1616(4) 0.4760(6) 1.0472(7)
H1 H 0.1917 0.5504 1.0947
C4 C 0.1948(3) 0.3618(6) 1.1190(7)
H2 H 0.2474 0.3571 1.2192
C5 C 0.1508(2) 0.2526(4) 1.0440(5)
H3 H 0.1746 0.1750 1.0964
C6 C 0.0373(4) 0.5981(3) 0.8190(7)
H4 H 0.0630 0.6755 0.8667
Cd1D Cd 0.0000 -0.07085(3) 1.2500
Cl1F Cl 0.09579(5) 0.07723(7) 0.51153(10)
Cl1D Cl -0.09579(5) 0.07723(7) 0.98847(10)
Cl1B Cl -0.09579(5) -0.07723(7) 0.48847(10)
N1B N -0.07649(15) 0.2525(2) 0.5985(4)
C1B C -0.0411(2) 0.3656(3) 0.6728(4)
C2B C -0.0814(3) 0.4813(3) 0.5996(6)
C3B C -0.1616(4) 0.4760(6) 0.4528(7)
H1B H -0.1917 0.5504 0.4053
C4B C -0.1948(3) 0.3618(6) 0.3810(7)
H2B H -0.2474 0.3571 0.2808
C5B C -0.1508(2) 0.2526(4) 0.4560(5)
H3B H -0.1746 0.1750 0.4036
C6B C -0.0373(4) 0.5981(3) 0.6810(7)
H4B H -0.0630 0.6755 0.6333
loop_
_geom_bond_atom_site_label_1
_geom_bond_atom_site_label_2
_geom_bond_site_symmetry_1
_geom_bond_site_symmetry_2
Cd1 Cl1 1_555 1_555
Cl1 Cd1D 1_555 1_555
N1 Cd1 1_555 1_555
C1 N1 1_555 1_555
C2 C1 1_555 1_555
C3 C2 1_555 1_555
H1 C3 1_555 1_555
C4 C3 1_555 1_555
H2 C4 1_555 1_555
C5 N1 1_555 1_555
H3 C5 1_555 1_555
C6 C2 1_555 1_555
H4 C6 1_555 1_555
Cd1D Cl1D 1_555 1_555
Cl1F Cd1 1_555 1_555
Cl1D Cd1 1_555 1_555
Cl1B Cd1 1_555 1_555
N1B Cd1 1_555 1_555
C1B C1 1_555 1_555
C2B C1B 1_555 1_555
C3B C2B 1_555 1_555
H1B C3B 1_555 1_555
C4B C3B 1_555 1_555
H2B C4B 1_555 1_555
C5B N1B 1_555 1_555
H3B C5B 1_555 1_555
C6B C6 1_555 1_555
H4B C6B 1_555 1_555
C4 C5 1_555 1_555
N1B C1B 1_555 1_555
C2B C6B 1_555 1_555
C4B C5B 1_555 1_555

#END
