
#######################################################################
#
#                 Cambridge Crystallographic Data Centre
#                                CCDC 
#
#######################################################################
#
# If this CIF has been generated from an entry in the Cambridge 
# Structural Database, then it will include bibliographic, chemical, 
# crystal, experimental, refinement or atomic coordinate data resulting 
# from the CCDC's data processing and validation procedures.
#
#######################################################################

data_OLOJUU02
_symmetry_cell_setting           monoclinic
_symmetry_space_group_name_H-M   'C 2/c'
_symmetry_Int_Tables_number      15
_space_group_name_Hall           '-C 2yn'
loop_
_symmetry_equiv_pos_site_id
_symmetry_equiv_pos_as_xyz
1 x,y,z
2 1/2+x,1/2+y,z
3 -x,y,1/2-z
4 1/2-x,1/2+y,1/2-z
5 -x,-y,-z
6 1/2-x,1/2-y,-z
7 x,-y,1/2+z
8 1/2+x,1/2-y,1/2+z
_cell_length_a                   16.994
_cell_length_b                   10.5431(7)
_cell_length_c                   7.25090(10)
_cell_angle_alpha                90
_cell_angle_beta                 110.686(3)
_cell_angle_gamma                90
_cell_volume                     1215.38
loop_
_atom_site_label
_atom_site_type_symbol
_atom_site_fract_x
_atom_site_fract_y
_atom_site_fract_z
N1 N 0.5764(5) 0.7531(8) 0.9017(12)
Cl1 Cl 0.59562(15) 0.4229(3) 1.0118(3)
Cd1 Cd 0.5000 0.57103(10) 0.7500
C1 C 0.6513(7) 0.7499(14) 1.0448(17)
C2 C 0.6965(9) 0.865(2) 1.118(2)
C3 C 0.6632(12) 0.9739(17) 1.049(2)
C4 C 0.5798(11) 0.9821(11) 0.898(2)
C5 C 0.5408(7) 0.8662(9) 0.8285(15)
C6 C 0.5388(12) 1.0979(10) 0.822(2)
N1B N 0.4236(5) 0.7531(8) 0.5983(12)
Cl1F Cl 0.59562(15) 0.5771(3) 0.5118(3)
Cl1D Cl 0.40438(15) 0.5771(3) 0.9882(3)
Cl1B Cl 0.40438(15) 0.4229(3) 0.4882(3)
Cd1F Cd 0.5000 0.42897(10) 1.2500
Cd1F_2 Cd 0.5000 0.42897(10) 0.2500
C1B C 0.3487(7) 0.7499(14) 0.4552(17)
C2B C 0.3035(9) 0.865(2) 0.382(2)
C3B C 0.3368(12) 0.9739(17) 0.451(2)
C4B C 0.4202(11) 0.9821(11) 0.602(2)
C5B C 0.4592(7) 0.8662(9) 0.6715(15)
C6B C 0.4612(12) 1.0979(10) 0.678(2)
loop_
_geom_bond_atom_site_label_1
_geom_bond_atom_site_label_2
_geom_bond_site_symmetry_1
_geom_bond_site_symmetry_2
N1 Cd1 1_555 1_555
Cl1 Cd1 1_555 1_555
Cd1 N1B 1_555 1_555
C1 N1 1_555 1_555
C2 C1 1_555 1_555
C3 C2 1_555 1_555
C4 C3 1_555 1_555
C5 N1 1_555 1_555
C6 C4 1_555 1_555
N1B C1B 1_555 1_555
Cl1F Cd1 1_555 1_555
Cl1D Cd1 1_555 1_555
Cl1B Cd1 1_555 1_555
Cd1F Cl1 1_555 1_555
Cd1F_2 Cl1F 1_555 1_555
C1B C2B 1_555 1_555
C2B C3B 1_555 1_555
C3B C4B 1_555 1_555
C4B C5B 1_555 1_555
C5B C5 1_555 1_555
C6B C6 1_555 1_555
C4 C5 1_555 1_555
N1B C5B 1_555 1_555
Cl1D Cd1F 1_555 1_555
Cl1B Cd1F_2 1_555 1_555
C4B C6B 1_555 1_555

#END
