
#######################################################################
#
#                 Cambridge Crystallographic Data Centre
#                                CCDC 
#
#######################################################################
#
# If this CIF has been generated from an entry in the Cambridge 
# Structural Database, then it will include bibliographic, chemical, 
# crystal, experimental, refinement or atomic coordinate data resulting 
# from the CCDC's data processing and validation procedures.
#
#######################################################################

data_OLOKIJ
_symmetry_cell_setting           triclinic
_symmetry_space_group_name_H-M   'P -1'
_symmetry_Int_Tables_number      2
_space_group_name_Hall           '-P 1'
loop_
_symmetry_equiv_pos_site_id
_symmetry_equiv_pos_as_xyz
1 x,y,z
2 -x,-y,-z
_cell_length_a                   10.0177(6)
_cell_length_b                   10.8091(6)
_cell_length_c                   21.8916(12)
_cell_angle_alpha                76.1040(10)
_cell_angle_beta                 85.5040(10)
_cell_angle_gamma                63.3010(10)
_cell_volume                     2054.56
loop_
_atom_site_label
_atom_site_type_symbol
_atom_site_fract_x
_atom_site_fract_y
_atom_site_fract_z
Co1 Co 0.0000 0.5000 0.5000
Co2 Co 0.5000 0.5000 0.0000
C1 C 0.1942(3) 0.2216(3) 0.45235(12)
H1 H 0.1028 0.2200 0.4498
C2 C 0.3135(3) 0.1324(3) 0.42379(12)
H2 H 0.3006 0.0747 0.4017
C3 C 0.4523(3) 0.1280(2) 0.42774(10)
C4 C 0.4638(3) 0.2091(3) 0.46471(11)
H3 H 0.5565 0.2042 0.4720
C5 C 0.3382(3) 0.2980(3) 0.49104(11)
H4 H 0.3497 0.3523 0.5155
C6 C 0.5819(3) 0.0427(3) 0.39161(11)
H5 H 0.5919 -0.0533 0.3991
H6 H 0.6733 0.0369 0.4070
C7 C 0.5619(3) 0.1087(3) 0.32034(11)
H7 H 0.6454 0.0473 0.2992
H8 H 0.4715 0.1127 0.3050
C8 C 0.5524(3) 0.2572(3) 0.30303(11)
H9 H 0.4655 0.3205 0.3219
H10 H 0.6404 0.2548 0.3200
C9 C 0.6506(3) 0.3575(3) 0.13362(11)
H11 H 0.7357 0.3513 0.1115
C10 C 0.6649(3) 0.3074(3) 0.19813(11)
H12 H 0.7579 0.2692 0.2183
C11 C 0.5416(3) 0.3140(3) 0.23281(11)
C12 C 0.4077(3) 0.3716(3) 0.19910(11)
H13 H 0.3212 0.3780 0.2200
C13 C 0.4021(3) 0.4191(3) 0.13505(11)
H14 H 0.3105 0.4567 0.1138
C14 C 0.1539(3) 0.6929(3) 0.01486(11)
H15 H 0.1395 0.6341 -0.0060
C15 C 0.0321(3) 0.7859(3) 0.04114(11)
H16 H -0.0606 0.7868 0.0386
C16 C 0.0470(3) 0.8775(3) 0.07116(10)
C17 C 0.1879(3) 0.8710(3) 0.07133(11)
H17 H 0.2035 0.9335 0.0891
C18 C 0.3047(3) 0.7733(3) 0.04557(11)
H18 H 0.3985 0.7703 0.0477
C19 C -0.0784(3) 0.9722(3) 0.10571(11)
H19 H -0.1704 1.0155 0.0806
H20 H -0.0571 1.0478 0.1116
C20 C -0.0992(3) 0.8888(3) 0.17018(11)
H21 H -0.1843 0.9522 0.1899
H22 H -0.1209 0.8136 0.1642
C21 C 0.0373(3) 0.8242(3) 0.21360(11)
H23 H 0.1209 0.7570 0.1948
H24 H 0.0623 0.8990 0.2174
C22 C -0.0360(3) 0.7422(3) 0.38662(11)
H25 H -0.0638 0.7903 0.4190
C23 C -0.0258(3) 0.8162(3) 0.32756(11)
H26 H -0.0476 0.9117 0.3207
C24 C 0.0167(3) 0.7490(3) 0.27844(11)
C25 C 0.0402(3) 0.6080(3) 0.29170(11)
H27 H 0.0649 0.5589 0.2598
C26 C 0.0268(3) 0.5415(3) 0.35245(11)
H28 H 0.0432 0.4472 0.3602
N1 N 0.2017(2) 0.3106(2) 0.48357(8)
N2 N 0.5212(2) 0.4144(2) 0.10120(8)
N3 N 0.2916(2) 0.6822(2) 0.01759(8)
N4 N -0.0085(2) 0.6050(2) 0.40074(8)
O1 O -0.1366(2) 0.41115(19) 0.48337(10)
H29 H -0.185(4) 0.377(3) 0.5124(15)
H30 H -0.142(3) 0.390(3) 0.4541(13)
O2 O 0.3746(2) 0.3917(2) -0.00523(10)
H31 H 0.318(3) 0.407(3) -0.0272(13)
H32 H 0.392(3) 0.311(4) 0.0179(15)
N2A N 0.4788(2) 0.5856(2) -0.10120(8)
C9A C 0.3494(3) 0.6425(3) -0.13362(11)
H11A H 0.2643 0.6487 -0.1115
C10A C 0.3351(3) 0.6926(3) -0.19813(11)
H12A H 0.2421 0.7308 -0.2183
C11A C 0.4584(3) 0.6860(3) -0.23281(11)
C8A C 0.4476(3) 0.7428(3) -0.30303(11)
C7A C 0.4381(3) 0.8913(3) -0.32034(11)
C6A C 0.4181(3) 0.9573(3) -0.39161(11)
C3A C 0.5477(3) 0.8720(2) -0.42774(10)
C2A C 0.6865(3) 0.8676(3) -0.42379(12)
C1A C 0.8058(3) 0.7784(3) -0.45235(12)
H1A H 0.8972 0.7800 -0.4498
N1A N 0.7983(2) 0.6894(2) -0.48357(8)
Co1A Co 1.0000 0.5000 -0.5000
N4A N 1.0085(2) 0.3950(2) -0.40074(8)
C22A C 1.0360(3) 0.2578(3) -0.38662(11)
H25A H 1.0638 0.2097 -0.4190
C23A C 1.0258(3) 0.1838(3) -0.32756(11)
H26A H 1.0476 0.0883 -0.3207
C24A C 0.9833(3) 0.2510(3) -0.27844(11)
C21A C 0.9627(3) 0.1758(3) -0.21360(11)
C20A C 1.0992(3) 0.1112(3) -0.17018(11)
C19A C 1.0784(3) 0.0278(3) -0.10571(11)
C16A C 0.9530(3) 0.1225(3) -0.07116(10)
C15A C 0.9679(3) 0.2141(3) -0.04114(11)
C14A C 0.8461(3) 0.3071(3) -0.01486(11)
H15A H 0.8605 0.3659 0.0060
N3A N 0.7084(2) 0.3178(2) -0.01759(8)
N1A_2 N -0.2017(2) 0.6894(2) 0.51643(8)
N4A_2 N 0.0085(2) 0.3950(2) 0.59926(8)
O1A O 0.1366(2) 0.58885(19) 0.51663(10)
H29A H 0.185(4) 0.623(3) 0.4876(15)
H30A H 0.142(3) 0.610(3) 0.5459(13)
O2A O 0.6254(2) 0.6083(2) 0.00523(10)
H31A H 0.682(3) 0.593(3) 0.0272(13)
H32A H 0.608(3) 0.689(4) -0.0179(15)
C18A C 0.6953(3) 0.2267(3) -0.04557(11)
C17A C 0.8121(3) 0.1290(3) -0.07133(11)
H17A H 0.7965 0.0665 -0.0891
H18A H 0.6015 0.2297 -0.0477
H16A H 1.0606 0.2132 -0.0386
H19A H 1.1704 -0.0155 -0.0806
H20A H 1.0571 -0.0478 -0.1116
H21A H 1.1843 0.0478 -0.1899
H22A H 1.1209 0.1864 -0.1642
H23A H 0.8791 0.2430 -0.1948
H24A H 0.9377 0.1010 -0.2174
C25A C 0.9598(3) 0.3920(3) -0.29170(11)
H27A H 0.9351 0.4411 -0.2598
C26A C 0.9732(3) 0.4585(3) -0.35245(11)
H28A H 0.9568 0.5528 -0.3602
C5A C 0.6618(3) 0.7020(3) -0.49104(11)
C4A C 0.5362(3) 0.7909(3) -0.46471(11)
H3A H 0.4435 0.7958 -0.4720
H4A H 0.6503 0.6477 -0.5155
H2A H 0.6994 0.9253 -0.4017
H5A H 0.4081 1.0533 -0.3991
H6A H 0.3267 0.9631 -0.4070
H7A H 0.3546 0.9527 -0.2992
H8A H 0.5285 0.8873 -0.3050
H9A H 0.5345 0.6795 -0.3219
H10A H 0.3596 0.7452 -0.3200
C12A C 0.5923(3) 0.6284(3) -0.19910(11)
H13A H 0.6788 0.6220 -0.2200
C13A C 0.5979(3) 0.5809(3) -0.13505(11)
H14A H 0.6895 0.5433 -0.1138
N5 N 0.3154(3) -0.3338(3) 0.42851(11)
N6 N 0.4233(3) 0.1410(3) 0.07806(12)
C27 C 0.4473(4) -0.4346(3) 0.41781(14)
H33 H 0.4749 -0.5266 0.4417
C28 C 0.5453(3) -0.4141(3) 0.37464(13)
H34 H 0.6348 -0.4904 0.3692
C29 C 0.5099(3) -0.2771(3) 0.33874(11)
C30 C 0.3729(3) -0.1716(3) 0.34940(13)
H35 H 0.3422 -0.0785 0.3263
C31 C 0.2815(3) -0.2039(3) 0.39432(14)
H36 H 0.1909 -0.1302 0.4009
C32 C 0.6170(3) -0.2524(3) 0.29171(12)
H37 H 0.7110 -0.2819 0.3134
H38 H 0.5774 -0.1512 0.2730
C33 C 0.6467(3) -0.3312(3) 0.23971(12)
H39 H 0.6745 -0.4308 0.2585
H40 H 0.7306 -0.3257 0.2161
C34 C 0.5127(3) -0.2728(3) 0.19449(13)
H41 H 0.5325 -0.3371 0.1671
H42 H 0.4256 -0.2684 0.2184
C35 C 0.5360(4) 0.0226(4) 0.06889(13)
H43 H 0.5974 0.0308 0.0356
C36 C 0.5703(3) -0.1130(3) 0.10482(12)
H44 H 0.6515 -0.1923 0.0957
C37 C 0.4794(3) -0.1270(3) 0.15499(12)
C38 C 0.3626(3) -0.0038(3) 0.16578(14)
H45 H 0.3001 -0.0078 0.1991
C39 C 0.3393(4) 0.1258(3) 0.12651(15)
H46 H 0.2598 0.2074 0.1346
N7 N -0.1107(4) 0.1925(5) 0.3876(2)
O3 O -0.1120(3) 0.3059(3) 0.37198(15)
O4 O -0.0588(5) 0.1049(4) 0.3585(3)
O5 O -0.1735(6) 0.1747(6) 0.4371(2)
N8 N 0.0532(3) 0.5180(4) -0.11824(14)
O6 O -0.0221(3) 0.5023(3) -0.15314(13)
O7 O 0.1600(3) 0.4240(3) -0.08725(13)
O8 O 0.0250(3) 0.6403(4) -0.1173(2)
O9 O 0.1405(8) 0.2357(16) 0.2640(3)
O10? O 0.084(4) 0.164(3) 0.2568(14)
loop_
_geom_bond_atom_site_label_1
_geom_bond_atom_site_label_2
_geom_bond_site_symmetry_1
_geom_bond_site_symmetry_2
Co1 N1 1_555 1_555
Co2 N2 1_555 1_555
C1 H1 1_555 1_555
C2 C1 1_555 1_555
H2 C2 1_555 1_555
C3 C2 1_555 1_555
C4 C3 1_555 1_555
H3 C4 1_555 1_555
C5 C4 1_555 1_555
H4 C5 1_555 1_555
C6 C3 1_555 1_555
H5 C6 1_555 1_555
H6 C6 1_555 1_555
C7 C6 1_555 1_555
H7 C7 1_555 1_555
H8 C7 1_555 1_555
C8 C7 1_555 1_555
H9 C8 1_555 1_555
H10 C8 1_555 1_555
C9 H11 1_555 1_555
C10 C9 1_555 1_555
H12 C10 1_555 1_555
C11 C8 1_555 1_555
C12 C11 1_555 1_555
H13 C12 1_555 1_555
C13 C12 1_555 1_555
H14 C13 1_555 1_555
C14 H15 1_555 1_555
C15 C14 1_555 1_555
H16 C15 1_555 1_555
C16 C15 1_555 1_555
C17 C16 1_555 1_555
H17 C17 1_555 1_555
C18 C17 1_555 1_555
H18 C18 1_555 1_555
C19 C16 1_555 1_555
H19 C19 1_555 1_555
H20 C19 1_555 1_555
C20 C19 1_555 1_555
H21 C20 1_555 1_555
H22 C20 1_555 1_555
C21 C20 1_555 1_555
H23 C21 1_555 1_555
H24 C21 1_555 1_555
C22 H25 1_555 1_555
C23 C22 1_555 1_555
H26 C23 1_555 1_555
C24 C21 1_555 1_555
C25 C24 1_555 1_555
H27 C25 1_555 1_555
C26 C25 1_555 1_555
H28 C26 1_555 1_555
N1 C1 1_555 1_555
N2 C9 1_555 1_555
N3 Co2 1_555 1_555
N4 Co1 1_555 1_555
N5 C27 1_555 1_555
N6 C35 1_555 1_555
N7 O3 1_555 1_555
N8 O6 1_555 1_555
O1 Co1 1_555 1_555
H29 O1 1_555 1_555
H30 O1 1_555 1_555
O2 Co2 1_555 1_555
H31 O2 1_555 1_555
H32 O2 1_555 1_555
O4 N7 1_555 1_555
O5 N7 1_555 1_555
O7 N8 1_555 1_555
O8 N8 1_555 1_555
C27 H33 1_555 1_555
C28 C27 1_555 1_555
H34 C28 1_555 1_555
C29 C28 1_555 1_555
C30 C29 1_555 1_555
H35 C30 1_555 1_555
C31 N5 1_555 1_555
H36 C31 1_555 1_555
C32 C29 1_555 1_555
H37 C32 1_555 1_555
H38 C32 1_555 1_555
C33 C32 1_555 1_555
H39 C33 1_555 1_555
H40 C33 1_555 1_555
C34 C33 1_555 1_555
H41 C34 1_555 1_555
H42 C34 1_555 1_555
C35 H43 1_555 1_555
C36 C35 1_555 1_555
H44 C36 1_555 1_555
C37 C34 1_555 1_555
C38 C37 1_555 1_555
H45 C38 1_555 1_555
C39 N6 1_555 1_555
H46 C39 1_555 1_555
N2A Co2 1_555 1_555
C9A N2A 1_555 1_555
H11A C9A 1_555 1_555
C10A C9A 1_555 1_555
H12A C10A 1_555 1_555
C11A C10A 1_555 1_555
C8A C11A 1_555 1_555
C7A C8A 1_555 1_555
C6A C7A 1_555 1_555
C3A C6A 1_555 1_555
C2A C3A 1_555 1_555
C1A C2A 1_555 1_555
H1A C1A 1_555 1_555
N1A C1A 1_555 1_555
Co1A N1A 1_555 1_555
N4A Co1A 1_555 1_555
C22A N4A 1_555 1_555
H25A C22A 1_555 1_555
C23A C22A 1_555 1_555
H26A C23A 1_555 1_555
C24A C23A 1_555 1_555
C21A C24A 1_555 1_555
C20A C21A 1_555 1_555
C19A C20A 1_555 1_555
C16A C19A 1_555 1_555
C15A C16A 1_555 1_555
C14A C15A 1_555 1_555
H15A C14A 1_555 1_555
N3A Co2 1_555 1_555
N1A_2 Co1 1_555 1_555
N4A_2 Co1 1_555 1_555
O1A Co1 1_555 1_555
H29A O1A 1_555 1_555
H30A O1A 1_555 1_555
O2A Co2 1_555 1_555
H31A O2A 1_555 1_555
H32A O2A 1_555 1_555
C18A N3A 1_555 1_555
C17A C16A 1_555 1_555
H17A C17A 1_555 1_555
H18A C18A 1_555 1_555
H16A C15A 1_555 1_555
H19A C19A 1_555 1_555
H20A C19A 1_555 1_555
H21A C20A 1_555 1_555
H22A C20A 1_555 1_555
H23A C21A 1_555 1_555
H24A C21A 1_555 1_555
C25A C24A 1_555 1_555
H27A C25A 1_555 1_555
C26A N4A 1_555 1_555
H28A C26A 1_555 1_555
C5A N1A 1_555 1_555
C4A C3A 1_555 1_555
H3A C4A 1_555 1_555
H4A C5A 1_555 1_555
H2A C2A 1_555 1_555
H5A C6A 1_555 1_555
H6A C6A 1_555 1_555
H7A C7A 1_555 1_555
H8A C7A 1_555 1_555
H9A C8A 1_555 1_555
H10A C8A 1_555 1_555
C12A C11A 1_555 1_555
H13A C12A 1_555 1_555
C13A N2A 1_555 1_555
H14A C13A 1_555 1_555
C5 N1 1_555 1_555
C10 C11 1_555 1_555
C13 N2 1_555 1_555
C14 N3 1_555 1_555
C18 N3 1_555 1_555
C22 N4 1_555 1_555
C23 C24 1_555 1_555
C26 N4 1_555 1_555
C30 C31 1_555 1_555
C36 C37 1_555 1_555
C38 C39 1_555 1_555
C14A N3A 1_555 1_555
C18A C17A 1_555 1_555
C25A C26A 1_555 1_555
C5A C4A 1_555 1_555
C12A C13A 1_555 1_555

#END
