
#######################################################################
#
#                 Cambridge Crystallographic Data Centre
#                                CCDC 
#
#######################################################################
#
# If this CIF has been generated from an entry in the Cambridge 
# Structural Database, then it will include bibliographic, chemical, 
# crystal, experimental, refinement or atomic coordinate data resulting 
# from the CCDC's data processing and validation procedures.
#
#######################################################################

data_OLOKUV
_symmetry_cell_setting           orthorhombic
_symmetry_space_group_name_H-M   'P b c a'
_symmetry_Int_Tables_number      61
_space_group_name_Hall           '-P 2ac 2ab'
loop_
_symmetry_equiv_pos_site_id
_symmetry_equiv_pos_as_xyz
1 x,y,z
2 1/2+x,y,1/2-z
3 1/2-x,1/2+y,z
4 x,1/2-y,1/2+z
5 -x,-y,-z
6 1/2-x,-y,1/2+z
7 1/2+x,1/2-y,-z
8 -x,1/2+y,1/2-z
_cell_length_a                   9.2974(5)
_cell_length_b                   15.2169(8)
_cell_length_c                   16.1024(8)
_cell_angle_alpha                90
_cell_angle_beta                 90
_cell_angle_gamma                90
_cell_volume                     2278.13
loop_
_atom_site_label
_atom_site_type_symbol
_atom_site_fract_x
_atom_site_fract_y
_atom_site_fract_z
Zn1 Zn -0.11101(3) -0.43902(2) -0.05173(2)
S1 S 0.16362(6) -0.61536(4) -0.41858(3)
O1 O 0.0455(2) -0.53490(10) -0.06630(10)
O2 O 0.2083(2) -0.53400(10) -0.45950(10)
O3 O 0.0317(2) -0.64980(10) -0.45560(10)
O4 O 0.2786(2) -0.68070(10) -0.41720(10)
O5 O 0.0347(2) -0.33020(10) -0.05330(10)
O6 O -0.2785(2) -0.35350(10) -0.04500(10)
N1 N -0.0993(2) -0.44810(10) -0.18150(10)
C1 C -0.1713(3) -0.4014(2) -0.2370(2)
C2 C -0.1507(3) -0.4121(2) -0.3222(2)
C3 C -0.0557(3) -0.4736(2) -0.3505(2)
C4 C 0.0231(2) -0.5251(2) -0.29330(10)
C5 C 0.1254(2) -0.5915(2) -0.31400(10)
C6 C 0.1944(3) -0.6373(2) -0.2523(2)
C7 C 0.1682(3) -0.6215(2) -0.1677(2)
C8 C 0.0728(3) -0.55690(10) -0.1438(2)
C9 C -0.0027(3) -0.50930(10) -0.20790(10)
H1 H -0.239(2) -0.3600(10) -0.217(2)
H2 H -0.208(3) -0.376(2) -0.356(2)
H3 H -0.039(3) -0.486(2) -0.4070(10)
H4 H 0.265(2) -0.6800(10) -0.266(2)
H5 H 0.213(3) -0.656(2) -0.1260(10)
H6 H 0.015(3) -0.2760(10) -0.058(2)
H7 H 0.077(3) -0.331(2) -0.0080(10)
H8 H -0.275(3) -0.300(2) -0.059(2)
H9 H -0.357(2) -0.368(2) -0.023(2)
Zn1A Zn 0.38899(3) -0.43902(2) -0.44827(2)
Zn1D Zn 0.11101(3) -0.56098(2) 0.05173(2)
O1D O -0.0455(2) -0.46510(10) 0.06630(10)
O2A O -0.2917(2) -0.53400(10) -0.04050(10)
loop_
_geom_bond_atom_site_label_1
_geom_bond_atom_site_label_2
_geom_bond_site_symmetry_1
_geom_bond_site_symmetry_2
Zn1 O1 1_555 1_555
S1 O2 1_555 1_555
O1 C8 1_555 1_555
O2 Zn1A 1_555 1_555
O3 S1 1_555 1_555
O4 S1 1_555 1_555
O5 Zn1 1_555 1_555
O6 Zn1 1_555 1_555
N1 Zn1 1_555 1_555
C1 N1 1_555 1_555
C2 C1 1_555 1_555
C3 C2 1_555 1_555
C4 C3 1_555 1_555
C5 S1 1_555 1_555
C6 C5 1_555 1_555
C7 C6 1_555 1_555
C8 C7 1_555 1_555
C9 N1 1_555 1_555
H1 C1 1_555 1_555
H2 C2 1_555 1_555
H3 C3 1_555 1_555
H4 C6 1_555 1_555
H5 C7 1_555 1_555
H6 O5 1_555 1_555
H7 O5 1_555 1_555
H8 O6 1_555 1_555
H9 O6 1_555 1_555
Zn1D O1 1_555 1_555
O1D Zn1 1_555 1_555
O2A Zn1 1_555 1_555
C4 C5 1_555 1_555
C4 C9 1_555 1_555
C8 C9 1_555 1_555
Zn1D O1D 1_555 1_555

#END
