
#######################################################################
#
#                 Cambridge Crystallographic Data Centre
#                                CCDC 
#
#######################################################################
#
# If this CIF has been generated from an entry in the Cambridge 
# Structural Database, then it will include bibliographic, chemical, 
# crystal, experimental, refinement or atomic coordinate data resulting 
# from the CCDC's data processing and validation procedures.
#
#######################################################################

data_OLOKEF
_symmetry_cell_setting           triclinic
_symmetry_space_group_name_H-M   'P -1'
_symmetry_Int_Tables_number      2
_space_group_name_Hall           '-P 1'
loop_
_symmetry_equiv_pos_site_id
_symmetry_equiv_pos_as_xyz
1 x,y,z
2 -x,-y,-z
_cell_length_a                   6.9100(10)
_cell_length_b                   7.3890(10)
_cell_length_c                   8.2230(10)
_cell_angle_alpha                90.08(7)
_cell_angle_beta                 109.83(8)
_cell_angle_gamma                93.37(7)
_cell_volume                     394.169
loop_
_atom_site_label
_atom_site_type_symbol
_atom_site_fract_x
_atom_site_fract_y
_atom_site_fract_z
Ni1 Ni 0.0000 0.5000 0.0000
Ni2 Ni 0.5000 0.0000 0.0000
O1 O 0.5524(4) 0.2356(3) 0.1490(3)
O2 O 0.2549(4) 0.3621(4) 0.0385(3)
O3 O 0.1707(4) 0.7297(3) 0.1046(3)
O4 O 0.4875(4) 0.8589(4) 0.2103(3)
O5 O 0.0415(5) 0.5832(5) -0.2315(4)
O6 O 0.1856(4) 0.0133(4) -0.1066(4)
C1 C 0.4190(6) 0.3387(5) 0.1597(5)
C2 C 0.4605(6) 0.4286(5) 0.3332(4)
C3 C 0.4188(5) 0.6079(5) 0.3572(5)
C4 C 0.5421(6) 0.3230(5) 0.4774(5)
C5 C 0.3524(6) 0.7395(5) 0.2120(4)
H1 H 0.149(4) 0.648(5) -0.228(6)
H2 H 0.039(7) 0.483(3) -0.283(6)
H3 H 0.138(7) -0.070(3) -0.057(5)
H4 H 0.154(7) 0.116(2) -0.081(5)
H5 H 0.5710 0.2040 0.4625
C4A C 0.4579(6) 0.6770(5) 0.5226(5)
C2A C 0.5395(6) 0.5714(5) 0.6668(4)
C1A C 0.5810(6) 0.6613(5) 0.8403(5)
O1A O 0.4476(4) 0.7644(3) 0.8510(3)
O2A O 0.7451(4) 0.6379(4) 0.9615(3)
C3A C 0.5812(5) 0.3921(5) 0.6428(5)
C5A C 0.6476(6) 0.2605(5) 0.7880(4)
O3A O 0.8293(4) 0.2703(3) 0.8954(3)
O4A O 0.5125(4) 0.1411(4) 0.7897(3)
H5A H 0.4290 0.7960 0.5375
O2A_2 O -0.2549(4) 0.6379(4) -0.0385(3)
O3A_2 O -0.1707(4) 0.2703(3) -0.1046(3)
O5A O -0.0415(5) 0.4168(5) 0.2315(4)
H1A H -0.149(4) 0.352(5) 0.228(6)
H2A H -0.039(7) 0.517(3) 0.283(6)
Ni1A Ni 1.0000 0.5000 1.0000
Ni2A Ni 0.5000 1.0000 1.0000
Ni2_2 Ni 0.5000 1.0000 0.0000
Ni2A_2 Ni 0.5000 0.0000 1.0000
O1A_2 O 0.4476(4) -0.2356(3) -0.1490(3)
O4_2 O 0.4875(4) -0.1411(4) 0.2103(3)
O4A_2 O 0.5125(4) 0.1411(4) -0.2103(3)
O6A O 0.8144(4) -0.0133(4) 0.1066(4)
H3A H 0.862(7) 0.070(3) 0.057(5)
H4A H 0.846(7) -0.116(2) 0.081(5)
O7 O 0.1490(10) 0.0410(10) -0.5200(10)
O8 O 0.0960(10) 0.2780(10) -0.4230(10)
loop_
_geom_bond_atom_site_label_1
_geom_bond_atom_site_label_2
_geom_bond_site_symmetry_1
_geom_bond_site_symmetry_2
Ni1 O2 1_555 1_555
Ni2 O1 1_555 1_555
O1 C1 1_555 1_555
O2 C1 1_555 1_555
O3 Ni1 1_555 1_555
O4 C5 1_555 1_555
O5 Ni1 1_555 1_555
O6 Ni2 1_555 1_555
C1 C2 1_555 1_555
C2 C3 1_555 1_555
C3 C5 1_555 1_555
C4 C2 1_555 1_555
C5 O3 1_555 1_555
H1 O5 1_555 1_555
H2 O5 1_555 1_555
H3 O6 1_555 1_555
H4 O6 1_555 1_555
H5 C4 1_555 1_555
C4A C3 1_555 1_555
C2A C4A 1_555 1_555
C1A C2A 1_555 1_555
O1A C1A 1_555 1_555
O2A C1A 1_555 1_555
C3A C4 1_555 1_555
C5A C3A 1_555 1_555
O3A C5A 1_555 1_555
O4A C5A 1_555 1_555
H5A C4A 1_555 1_555
O2A_2 Ni1 1_555 1_555
O3A_2 Ni1 1_555 1_555
O5A Ni1 1_555 1_555
H1A O5A 1_555 1_555
H2A O5A 1_555 1_555
Ni1A O2A 1_555 1_555
Ni2A O1A 1_555 1_555
Ni2_2 O4 1_555 1_555
Ni2A_2 O4A 1_555 1_555
O1A_2 Ni2 1_555 1_555
O4_2 Ni2 1_555 1_555
O4A_2 Ni2 1_555 1_555
O6A Ni2 1_555 1_555
H3A O6A 1_555 1_555
H4A O6A 1_555 1_555
C2A C3A 1_555 1_555
O3A Ni1A 1_555 1_555

#END
