
#######################################################################
#
#                 Cambridge Crystallographic Data Centre
#                                CCDC 
#
#######################################################################
#
# If this CIF has been generated from an entry in the Cambridge 
# Structural Database, then it will include bibliographic, chemical, 
# crystal, experimental, refinement or atomic coordinate data resulting 
# from the CCDC's data processing and validation procedures.
#
#######################################################################

data_OLOKUV01
_symmetry_cell_setting           orthorhombic
_symmetry_space_group_name_H-M   'P b c a'
_symmetry_Int_Tables_number      61
_space_group_name_Hall           '-P 2ac 2ab'
loop_
_symmetry_equiv_pos_site_id
_symmetry_equiv_pos_as_xyz
1 x,y,z
2 1/2+x,y,1/2-z
3 1/2-x,1/2+y,z
4 x,1/2-y,1/2+z
5 -x,-y,-z
6 1/2-x,-y,1/2+z
7 1/2+x,1/2-y,-z
8 -x,1/2+y,1/2-z
_cell_length_a                   9.348(2)
_cell_length_b                   15.241(3)
_cell_length_c                   16.142(3)
_cell_angle_alpha                90
_cell_angle_beta                 90
_cell_angle_gamma                90
_cell_volume                     2299.8
loop_
_atom_site_label
_atom_site_type_symbol
_atom_site_fract_x
_atom_site_fract_y
_atom_site_fract_z
Zn1 Zn 0.61031(5) 0.06095(3) 0.05158(3)
S1 S 0.83743(12) -0.11534(7) 0.08152(7)
O1 O 0.4641(4) 0.1704(2) 0.0522(2)
O2 O 0.7915(3) -0.03455(16) 0.04096(17)
O3 O 0.7237(3) -0.18146(18) 0.08344(17)
C1 C 1.1685(5) 0.0986(3) 0.2626(3)
C2 C 1.1501(5) 0.0876(3) 0.1777(3)
C3 C 1.0553(5) 0.0265(3) 0.1499(3)
C4 C 0.8752(4) -0.0912(3) 0.1863(3)
C5 C 0.8069(5) -0.1367(3) 0.2478(3)
C6 C 0.8328(5) -0.1206(3) 0.3328(3)
C7 C 0.9263(4) -0.0568(3) 0.3559(2)
C8 C 0.9758(5) -0.0248(3) 0.2065(3)
C9 C 1.0013(5) -0.0094(3) 0.2925(3)
O4 O 0.9539(3) -0.03458(18) 0.43372(16)
N1 N 1.0975(4) 0.0525(2) 0.3185(2)
O5 O 0.7766(3) 0.1463(2) 0.0446(2)
O6 O 0.9688(3) -0.14904(19) 0.04440(19)
H1 H 1.236(4) 0.139(2) 0.283(2)
H2 H 0.785(4) -0.157(2) 0.375(2)
H3 H 0.732(4) -0.182(2) 0.238(2)
H4 H 0.499(5) 0.2289(16) 0.051(3)
H5 H 1.204(5) 0.120(3) 0.144(3)
H6 H 0.873(3) 0.137(3) 0.029(3)
H7 H 0.772(6) 0.2076(15) 0.052(4)
H8 H 1.032(5) 0.014(3) 0.094(3)
H9 H 0.416(5) 0.169(3) 0.000(2)
O4A O 0.4539(3) -0.03458(18) 0.06628(16)
O4E O 0.5461(3) 0.03458(18) -0.06628(16)
N1A N 0.5975(4) 0.0525(2) 0.1815(2)
Zn1A Zn 1.11031(5) 0.06095(3) 0.44842(3)
Zn1E Zn 0.88969(5) -0.06095(3) 0.55158(3)
loop_
_geom_bond_atom_site_label_1
_geom_bond_atom_site_label_2
_geom_bond_site_symmetry_1
_geom_bond_site_symmetry_2
Zn1 O1 1_555 1_555
S1 O2 1_555 1_555
O1 H4 1_555 1_555
O2 Zn1 1_555 1_555
O3 S1 1_555 1_555
C1 C2 1_555 1_555
C2 C3 1_555 1_555
C3 C8 1_555 1_555
C4 S1 1_555 1_555
C5 C4 1_555 1_555
C6 C5 1_555 1_555
C7 C6 1_555 1_555
C8 C4 1_555 1_555
C9 C7 1_555 1_555
O4 C7 1_555 1_555
N1 C1 1_555 1_555
O5 Zn1 1_555 1_555
O6 S1 1_555 1_555
H1 C1 1_555 1_555
H2 C6 1_555 1_555
H3 C5 1_555 1_555
H5 C2 1_555 1_555
H6 O5 1_555 1_555
H7 O5 1_555 1_555
H8 C3 1_555 1_555
H9 O1 1_555 1_555
O4A Zn1 1_555 1_555
O4E Zn1 1_555 1_555
N1A Zn1 1_555 1_555
Zn1A O4 1_555 1_555
Zn1E O4 1_555 1_555
C8 C9 1_555 1_555
C9 N1 1_555 1_555
N1 Zn1A 1_555 1_555

#END
