
#######################################################################
#
#                 Cambridge Crystallographic Data Centre
#                                CCDC 
#
#######################################################################
#
# If this CIF has been generated from an entry in the Cambridge 
# Structural Database, then it will include bibliographic, chemical, 
# crystal, experimental, refinement or atomic coordinate data resulting 
# from the CCDC's data processing and validation procedures.
#
#######################################################################

data_OLOPIO
_symmetry_cell_setting           monoclinic
_symmetry_space_group_name_H-M   'C 2/c'
_symmetry_Int_Tables_number      15
_space_group_name_Hall           '-C 2yn'
loop_
_symmetry_equiv_pos_site_id
_symmetry_equiv_pos_as_xyz
1 x,y,z
2 1/2+x,1/2+y,z
3 -x,y,1/2-z
4 1/2-x,1/2+y,1/2-z
5 -x,-y,-z
6 1/2-x,1/2-y,-z
7 x,-y,1/2+z
8 1/2+x,1/2-y,1/2+z
_cell_length_a                   12.0307(15)
_cell_length_b                   8.6139(10)
_cell_length_c                   19.528(3)
_cell_angle_alpha                90
_cell_angle_beta                 99.4990(10)
_cell_angle_gamma                90
_cell_volume                     1995.96
loop_
_atom_site_label
_atom_site_type_symbol
_atom_site_fract_x
_atom_site_fract_y
_atom_site_fract_z
Cu1 Cu 0.20580(9) 0.08679(12) 0.32724(5)
N1 N 0.0720(8) -0.1703(12) 0.0287(5)
N2 N 0.0117(6) -0.0220(10) 0.1242(4)
N3 N 0.1313(7) 0.0663(10) 0.2302(5)
N4 N 0.3870(8) 0.1383(9) 0.3058(4)
N5 N 0.5781(7) 0.0559(10) 0.3575(4)
N6 N 0.6601(7) -0.1954(10) 0.3308(4)
N7 N 0.2408(7) -0.1408(9) 0.3327(4)
N8 N 0.2498(7) 0.0837(9) 0.4312(4)
C1 C 0.0497(8) -0.1005(13) 0.0740(6)
C2 C 0.0794(8) 0.0194(11) 0.1795(6)
C3 C 0.4762(10) 0.0951(10) 0.3277(5)
C4 C 0.6190(8) -0.0810(13) 0.3413(5)
C5 C 0.3111(10) -0.1739(13) 0.4010(5)
H1 H 0.3056 -0.2831 0.4121
H2 H 0.3894 -0.1506 0.3991
H3 H 0.1979 -0.1225 0.4648
H4 H 0.3205 -0.0789 0.4975
C6 C 0.2727(11) -0.0796(13) 0.4548(6)
N6A N 0.1601(7) 0.3046(10) 0.3308(4)
Cu1A Cu 0.70580(9) -0.41321(12) 0.32724(5)
loop_
_geom_bond_atom_site_label_1
_geom_bond_atom_site_label_2
_geom_bond_site_symmetry_1
_geom_bond_site_symmetry_2
Cu1 N3 1_555 1_555
N1 C1 1_555 1_555
N2 C1 1_555 1_555
N3 C2 1_555 1_555
N4 Cu1 1_555 1_555
N5 C3 1_555 1_555
N6 C4 1_555 1_555
N7 Cu1 1_555 1_555
N8 Cu1 1_555 1_555
C2 N2 1_555 1_555
C3 N4 1_555 1_555
C4 N5 1_555 1_555
C5 N7 1_555 1_555
H1 C5 1_555 1_555
H2 C5 1_555 1_555
H3 C6 1_555 1_555
H4 C6 1_555 1_555
C6 N8 1_555 1_555
N6A Cu1 1_555 1_555
Cu1A N6 1_555 1_555
C5 C6 1_555 1_555

#END
