
#######################################################################
#
#                 Cambridge Crystallographic Data Centre
#                                CCDC 
#
#######################################################################
#
# If this CIF has been generated from an entry in the Cambridge 
# Structural Database, then it will include bibliographic, chemical, 
# crystal, experimental, refinement or atomic coordinate data resulting 
# from the CCDC's data processing and validation procedures.
#
#######################################################################

data_OLOQUB
_symmetry_cell_setting           triclinic
_symmetry_space_group_name_H-M   'P -1'
_symmetry_Int_Tables_number      2
_space_group_name_Hall           '-P 1'
loop_
_symmetry_equiv_pos_site_id
_symmetry_equiv_pos_as_xyz
1 x,y,z
2 -x,-y,-z
_cell_length_a                   6.9874(10)
_cell_length_b                   11.7096(19)
_cell_length_c                   11.8247(17)
_cell_angle_alpha                112.339(17)
_cell_angle_beta                 96.728(17)
_cell_angle_gamma                102.930(18)
_cell_volume                     849.97
loop_
_atom_site_label
_atom_site_type_symbol
_atom_site_fract_x
_atom_site_fract_y
_atom_site_fract_z
O5 O 0.2143(9) 0.6223(7) 0.5590(6)
C15 C 0.0362(8) 0.5834(6) 0.6024(5)
H13 H 0.0144 0.6627 0.6581
H14 H 0.0732 0.5414 0.6547
C16 C 0.1609(11) 0.4986(6) 0.4777(7)
H15 H 0.1991 0.4534 0.5263
H16 H 0.2514 0.4944 0.4210
C15A C -0.0362(8) 0.4166(6) 0.3976(5)
O5A O -0.2143(9) 0.3777(7) 0.4410(6)
C16A C -0.1609(11) 0.5014(6) 0.5223(7)
H13A H -0.0144 0.3373 0.3419
H14A H -0.0732 0.4586 0.3453
H15A H -0.1991 0.5466 0.4737
H16A H -0.2514 0.5056 0.5790
Cu1 Cu 0.46837(5) 0.46261(4) 0.86988(4)
Cl1 Cl 0.31858(9) 0.61274(6) 1.02872(7)
N1 N 0.2223(3) 0.3366(2) 0.7413(2)
C1 C 0.0367(4) 0.3408(3) 0.7597(3)
H1 H 0.0247 0.3972 0.8372
C2 C -0.1358(4) 0.2647(3) 0.6681(3)
H2 H -0.2613 0.2705 0.6843
C3 C 0.2334(4) 0.2516(3) 0.6295(3)
H3 H 0.3601 0.2461 0.6160
C4 C 0.0677(4) 0.1720(3) 0.5338(3)
H4 H 0.0826 0.1140 0.4581
C5 C -0.1223(4) 0.1802(3) 0.5528(3)
C6 C -0.3090(4) 0.1055(3) 0.4498(3)
O1 O -0.4722(3) 0.1196(3) 0.4592(2)
O2 O -0.2703(3) 0.02413(19) 0.34799(19)
C7 C -0.4318(4) -0.0455(3) 0.2363(3)
H5 H -0.5087 0.0109 0.2263
H6 H -0.5221 -0.1180 0.2423
C8 C -0.3367(4) -0.0918(3) 0.1277(3)
H7 H -0.2583 -0.1469 0.1391
H8 H -0.4402 -0.1419 0.0511
O3 O -0.2062(3) 0.01898(19) 0.1183(2)
C9 C -0.0085(4) 0.0482(3) 0.1655(3)
O4 O 0.0695(3) -0.0133(2) 0.2067(2)
C10 C 0.1069(4) 0.1696(3) 0.1602(3)
C11 C 0.0268(4) 0.2310(3) 0.0952(3)
H9 H -0.1072 0.1979 0.0517
C12 C 0.1486(4) 0.3422(3) 0.0960(3)
H10 H 0.0930 0.3825 0.0520
C13 C 0.3076(4) 0.2257(3) 0.2262(3)
H11 H 0.3659 0.1887 0.2728
C14 C 0.4174(4) 0.3355(3) 0.2216(3)
H12 H 0.5512 0.3711 0.2655
N2 N 0.3430(3) 0.3951(2) 0.1571(2)
Cl1A Cl 0.68142(9) 0.38726(6) 0.97128(7)
N1A N 0.7777(3) 0.6634(2) 0.2587(2)
C1A C 0.9633(4) 0.6592(3) 0.2403(3)
H1A H 0.9753 0.6028 0.1628
C2A C 1.1358(4) 0.7353(3) 0.3319(3)
H2A H 1.2613 0.7295 0.3157
C3A C 0.7666(4) 0.7484(3) 0.3705(3)
H3A H 0.6399 0.7539 0.3840
C4A C 0.9323(4) 0.8280(3) 0.4662(3)
H4A H 0.9174 0.8860 0.5419
C5A C 1.1223(4) 0.8198(3) 0.4472(3)
C6A C 1.3090(4) 0.8945(3) 0.5502(3)
O1A O 1.4722(3) 0.8804(3) 0.5408(2)
O2A O 1.2703(3) 0.97587(19) 0.65201(19)
C7A C 1.4318(4) 1.0455(3) 0.7637(3)
H5A H 1.5087 0.9891 0.7737
H6A H 1.5221 1.1180 0.7577
C8A C 1.3367(4) 1.0918(3) 0.8723(3)
H7A H 1.2583 1.1469 0.8609
H8A H 1.4402 1.1419 0.9489
O3A O 1.2062(3) 0.98102(19) 0.8817(2)
C9A C 1.0085(4) 0.9518(3) 0.8345(3)
O4A O 0.9305(3) 1.0133(2) 0.7933(2)
C10A C 0.8931(4) 0.8304(3) 0.8398(3)
C11A C 0.9732(4) 0.7690(3) 0.9048(3)
H9A H 1.1072 0.8021 0.9483
C12A C 0.8514(4) 0.6578(3) 0.9040(3)
H10A H 0.9070 0.6175 0.9480
C13A C 0.6924(4) 0.7743(3) 0.7738(3)
H11A H 0.6341 0.8113 0.7272
C14A C 0.5826(4) 0.6645(3) 0.7784(3)
H12A H 0.4488 0.6289 0.7345
N2A N 0.6570(3) 0.6049(2) 0.8429(2)
Cu1A Cu 0.53163(5) 0.53739(4) 1.13012(4)
Cu1A_2 Cu 0.53163(5) 0.53739(4) 0.13012(4)
N1A_2 N 0.7777(3) 0.6634(2) 1.2587(2)
N2_2 N 0.3430(3) 0.3951(2) 1.1571(2)
loop_
_geom_bond_atom_site_label_1
_geom_bond_atom_site_label_2
_geom_bond_site_symmetry_1
_geom_bond_site_symmetry_2
Cu1 Cl1 1_555 1_555
Cl1 Cu1A 1_555 1_555
N1 Cu1 1_555 1_555
C1 N1 1_555 1_555
H1 C1 1_555 1_555
C2 C1 1_555 1_555
H2 C2 1_555 1_555
C3 N1 1_555 1_555
H3 C3 1_555 1_555
C4 C3 1_555 1_555
H4 C4 1_555 1_555
C5 C2 1_555 1_555
C6 C5 1_555 1_555
O1 C6 1_555 1_555
O2 C6 1_555 1_555
C7 O2 1_555 1_555
H5 C7 1_555 1_555
H6 C7 1_555 1_555
C8 C7 1_555 1_555
H7 C8 1_555 1_555
H8 C8 1_555 1_555
O3 C8 1_555 1_555
C9 O3 1_555 1_555
O4 C9 1_555 1_555
C10 C9 1_555 1_555
C11 C10 1_555 1_555
H9 C11 1_555 1_555
C12 C11 1_555 1_555
H10 C12 1_555 1_555
C13 C10 1_555 1_555
H11 C13 1_555 1_555
C14 C13 1_555 1_555
H12 C14 1_555 1_555
N2 C12 1_555 1_555
O5 C15 1_555 1_555
C15 H13 1_555 1_555
H14 C15 1_555 1_555
C16 O5 1_555 1_555
H15 C16 1_555 1_555
H16 C16 1_555 1_555
C15A C16 1_555 1_555
O5A C15A 1_555 1_555
C16A C15 1_555 1_555
H13A C15A 1_555 1_555
H14A C15A 1_555 1_555
H15A C16A 1_555 1_555
H16A C16A 1_555 1_555
Cl1A Cu1 1_555 1_555
N1A C1A 1_555 1_555
C1A H1A 1_555 1_555
C2A C1A 1_555 1_555
H2A C2A 1_555 1_555
C3A N1A 1_555 1_555
H3A C3A 1_555 1_555
C4A C3A 1_555 1_555
H4A C4A 1_555 1_555
C5A C2A 1_555 1_555
C6A C5A 1_555 1_555
O1A C6A 1_555 1_555
O2A C6A 1_555 1_555
C7A O2A 1_555 1_555
H5A C7A 1_555 1_555
H6A C7A 1_555 1_555
C8A C7A 1_555 1_555
H7A C8A 1_555 1_555
H8A C8A 1_555 1_555
O3A C8A 1_555 1_555
C9A O3A 1_555 1_555
O4A C9A 1_555 1_555
C10A C9A 1_555 1_555
C11A C10A 1_555 1_555
H9A C11A 1_555 1_555
C12A C11A 1_555 1_555
H10A C12A 1_555 1_555
C13A C10A 1_555 1_555
H11A C13A 1_555 1_555
C14A C13A 1_555 1_555
H12A C14A 1_555 1_555
N2A Cu1 1_555 1_555
Cu1A Cl1A 1_555 1_555
Cu1A_2 N2 1_555 1_555
N1A_2 Cu1A 1_555 1_555
N2_2 Cu1A 1_555 1_555
C4 C5 1_555 1_555
C14 N2 1_555 1_555
C15 C16 1_555 1_555
C15A C16A 1_555 1_555
O5A C16A 1_555 1_555
N1A Cu1A_2 1_555 1_555
C4A C5A 1_555 1_555
C12A N2A 1_555 1_555
C14A N2A 1_555 1_555

#END
