
#######################################################################
#
#                 Cambridge Crystallographic Data Centre
#                                CCDC 
#
#######################################################################
#
# If this CIF has been generated from an entry in the Cambridge 
# Structural Database, then it will include bibliographic, chemical, 
# crystal, experimental, refinement or atomic coordinate data resulting 
# from the CCDC's data processing and validation procedures.
#
#######################################################################

data_OLOQOV
_symmetry_cell_setting           monoclinic
_symmetry_space_group_name_H-M   'C 2/c'
_symmetry_Int_Tables_number      15
_space_group_name_Hall           '-C 2yn'
loop_
_symmetry_equiv_pos_site_id
_symmetry_equiv_pos_as_xyz
1 x,y,z
2 1/2+x,1/2+y,z
3 x,-y,1/2+z
4 1/2+x,1/2-y,1/2+z
5 -x,-y,-z
6 1/2-x,1/2-y,-z
7 -x,y,1/2-z
8 1/2-x,1/2+y,1/2-z
_cell_length_a                   11.4740(11)
_cell_length_b                   11.5821(14)
_cell_length_c                   10.9650(14)
_cell_angle_alpha                90
_cell_angle_beta                 106.670(18)
_cell_angle_gamma                90
_cell_volume                     1395.93
loop_
_atom_site_label
_atom_site_type_symbol
_atom_site_fract_x
_atom_site_fract_y
_atom_site_fract_z
Cu1 Cu 0.0000 0.05969(5) 0.2500
Cl1 Cl 0.0000 0.25909(10) 0.2500
N1 N -0.1001(2) 0.0042(2) 0.0847(3)
C1 C -0.1079(3) -0.1080(3) 0.0501(3)
C2 C -0.1802(3) -0.1473(3) -0.0660(3)
C3 C -0.2486(3) -0.0679(3) -0.1525(3)
C4 C -0.2395(3) 0.0488(3) -0.1203(4)
C5 C -0.1648(3) 0.0805(3) -0.0018(3)
C6 C -0.3350(3) -0.1102(3) -0.2737(3)
C7 C -0.4775(3) -0.0562(3) -0.4670(3)
O1 O -0.3619(2) -0.2111(2) -0.2956(3)
O2 O -0.3823(2) -0.0244(2) -0.3539(2)
H1 H -0.059(4) -0.161(4) 0.112(5)
H2 H -0.181(3) -0.232(3) -0.090(4)
H3 H -0.281(5) 0.105(5) -0.176(5)
H4 H -0.150(4) 0.163(3) 0.026(4)
H5 H -0.441(4) -0.113(4) -0.522(4)
H6 H -0.546(3) -0.096(3) -0.443(4)
C7D C -0.5225(3) 0.0562(3) -0.5330(3)
O2D O -0.6177(2) 0.0244(2) -0.6461(2)
C6D C -0.6650(3) 0.1102(3) -0.7263(3)
C3D C -0.7514(3) 0.0679(3) -0.8475(3)
C2D C -0.8198(3) 0.1473(3) -0.9340(3)
C1D C -0.8921(3) 0.1080(3) -1.0501(3)
N1D N -0.8999(2) -0.0042(2) -1.0847(3)
C5D C -0.8352(3) -0.0805(3) -0.9982(3)
C4D C -0.7605(3) -0.0488(3) -0.8797(4)
H3D H -0.719(5) -0.105(5) -0.824(5)
H4D H -0.850(4) -0.163(3) -1.026(4)
H1D H -0.941(4) 0.161(4) -1.112(5)
H2D H -0.819(3) 0.232(3) -0.910(4)
O1D O -0.6381(2) 0.2111(2) -0.7044(3)
H5D H -0.559(4) 0.113(4) -0.478(4)
H6D H -0.454(3) 0.096(3) -0.557(4)
N1F N 0.1001(2) 0.0042(2) 0.4153(3)
Cu1B Cu -1.0000 -0.05969(5) -1.2500
loop_
_geom_bond_atom_site_label_1
_geom_bond_atom_site_label_2
_geom_bond_site_symmetry_1
_geom_bond_site_symmetry_2
Cu1 Cl1 1_555 1_555
N1 Cu1 1_555 1_555
C1 N1 1_555 1_555
C2 C1 1_555 1_555
C3 C2 1_555 1_555
C4 C3 1_555 1_555
C5 N1 1_555 1_555
C6 C3 1_555 1_555
C7 O2 1_555 1_555
O1 C6 1_555 1_555
O2 C6 1_555 1_555
H1 C1 1_555 1_555
H2 C2 1_555 1_555
H3 C4 1_555 1_555
H4 C5 1_555 1_555
H5 C7 1_555 1_555
H6 C7 1_555 1_555
C7D C7 1_555 1_555
O2D C7D 1_555 1_555
C6D O2D 1_555 1_555
C3D C6D 1_555 1_555
C2D C3D 1_555 1_555
C1D C2D 1_555 1_555
N1D C1D 1_555 1_555
C5D N1D 1_555 1_555
C4D C3D 1_555 1_555
H3D C4D 1_555 1_555
H4D C5D 1_555 1_555
H1D C1D 1_555 1_555
H2D C2D 1_555 1_555
O1D C6D 1_555 1_555
H5D C7D 1_555 1_555
H6D C7D 1_555 1_555
N1F Cu1 1_555 1_555
Cu1B N1D 1_555 1_555
C4 C5 1_555 1_555
C5D C4D 1_555 1_555

#END
