
#######################################################################
#
#                 Cambridge Crystallographic Data Centre
#                                CCDC 
#
#######################################################################
#
# If this CIF has been generated from an entry in the Cambridge 
# Structural Database, then it will include bibliographic, chemical, 
# crystal, experimental, refinement or atomic coordinate data resulting 
# from the CCDC's data processing and validation procedures.
#
#######################################################################

data_OLOSEN
_symmetry_cell_setting           triclinic
_symmetry_space_group_name_H-M   'P -1'
_symmetry_Int_Tables_number      2
_space_group_name_Hall           '-P 1'
loop_
_symmetry_equiv_pos_site_id
_symmetry_equiv_pos_as_xyz
1 x,y,z
2 -x,-y,-z
_cell_length_a                   9.588(2)
_cell_length_b                   10.322(3)
_cell_length_c                   10.861(3)
_cell_angle_alpha                72.139(5)
_cell_angle_beta                 64.783(5)
_cell_angle_gamma                62.722(5)
_cell_volume                     855.964
loop_
_atom_site_label
_atom_site_type_symbol
_atom_site_fract_x
_atom_site_fract_y
_atom_site_fract_z
Ar1 Ar 0.649(3) 0.172(2) 0.4580(19)
C1 C 0.827(2) 0.2626(18) 0.0766(16)
C2 C 0.7302(15) 0.4124(14) 0.1175(16)
C3 C 0.8069(15) 0.4856(14) 0.1368(16)
H1 H 0.9209 0.4425 0.1211
C4 C 0.7154(15) 0.6226(15) 0.1792(16)
H2 H 0.7680 0.6739 0.1884
C5 C 0.5453(15) 0.6829(15) 0.2079(16)
H3 H 0.4823 0.7729 0.2414
C6 C 0.4687(15) 0.6116(14) 0.1876(16)
H4 H 0.3546 0.6548 0.2036
C7 C 0.5604(15) 0.4761(14) 0.1436(16)
H5 H 0.5077 0.4269 0.1313
C8 C 0.944(2) -0.125(2) 0.256(2)
C9 C 0.920(2) -0.2044(18) 0.4005(15)
C10 C 1.0185(18) -0.2171(16) 0.4678(15)
H6 H 1.1007 -0.1780 0.4248
C11 C 0.9943(19) -0.2886(18) 0.5998(15)
H7 H 1.0569 -0.2943 0.6486
C12 C 0.880(2) -0.3506(19) 0.6591(15)
H8 H 0.8733 -0.4077 0.7448
C13 C 0.776(2) -0.3313(19) 0.5962(15)
H9 H 0.6899 -0.3653 0.6421
C14 C 0.799(2) -0.2605(19) 0.4629(16)
H10 H 0.7328 -0.2514 0.4163
C15 C 1.5038(17) -0.0653(16) -0.0883(15)
H11 H 1.5097 -0.1151 -0.1497
C16 C 1.6473(19) -0.0677(16) -0.0881(15)
H12 H 1.7487 -0.1133 -0.1531
N1 N 1.3575(15) 0.0061(13) -0.0034(12)
O1 O 0.9826(12) 0.2062(10) 0.0593(10)
O2 O 0.7515(13) 0.1992(11) 0.0596(10)
O3 O 1.0692(16) -0.0916(13) 0.1995(11)
O4 O 0.8378(12) -0.0981(10) 0.2010(9)
Rh1 Rh 1.12324(15) 0.00361(14) -0.00175(14)
N1A N 1.6425(15) -0.0061(13) 0.0034(12)
C15A C 1.4962(17) 0.0653(16) 0.0883(15)
H11A H 1.4903 0.1151 0.1497
C16A C 1.3527(19) 0.0677(16) 0.0881(15)
H12A H 1.2513 0.1133 0.1531
C1A C 1.173(2) -0.2626(18) -0.0766(16)
C2A C 1.2698(15) -0.4124(14) -0.1175(16)
C3A C 1.1931(15) -0.4856(14) -0.1368(16)
H1A H 1.0791 -0.4425 -0.1211
C4A C 1.2846(15) -0.6226(15) -0.1792(16)
H2A H 1.2320 -0.6739 -0.1884
C5A C 1.4547(15) -0.6829(15) -0.2079(16)
H3A H 1.5177 -0.7729 -0.2414
C6A C 1.5313(15) -0.6116(14) -0.1876(16)
H4A H 1.6454 -0.6548 -0.2036
C7A C 1.4396(15) -0.4761(14) -0.1436(16)
H5A H 1.4923 -0.4269 -0.1313
O1A O 1.0174(12) -0.2062(10) -0.0593(10)
O2A O 1.2485(13) -0.1992(11) -0.0596(10)
C8A C 1.056(2) 0.125(2) -0.256(2)
C9A C 1.080(2) 0.2044(18) -0.4005(15)
C10A C 0.9815(18) 0.2171(16) -0.4678(15)
H6A H 0.8993 0.1780 -0.4248
C11A C 1.0057(19) 0.2886(18) -0.5998(15)
H7A H 0.9431 0.2943 -0.6486
C12A C 1.120(2) 0.3506(19) -0.6591(15)
H8A H 1.1267 0.4077 -0.7448
C13A C 1.224(2) 0.3313(19) -0.5962(15)
H9A H 1.3101 0.3653 -0.6421
C14A C 1.201(2) 0.2605(19) -0.4629(16)
H10A H 1.2672 0.2514 -0.4163
O3A O 0.9308(16) 0.0916(13) -0.1995(11)
O4A O 1.1622(12) 0.0981(10) -0.2010(9)
Rh1A Rh 1.87676(15) -0.00361(14) 0.00175(14)
Rh1A_2 Rh 0.87676(15) -0.00361(14) 0.00175(14)
O1A_2 O 2.0174(12) -0.2062(10) -0.0593(10)
O2_2 O 1.7515(13) 0.1992(11) 0.0596(10)
O3A_2 O 1.9308(16) 0.0916(13) -0.1995(11)
O4_2 O 1.8378(12) -0.0981(10) 0.2010(9)
Rh1_2 Rh 2.12324(15) 0.00361(14) -0.00175(14)
loop_
_geom_bond_atom_site_label_1
_geom_bond_atom_site_label_2
_geom_bond_site_symmetry_1
_geom_bond_site_symmetry_2
C1 C2 1_555 1_555
C2 C3 1_555 1_555
C3 H1 1_555 1_555
C4 C3 1_555 1_555
H2 C4 1_555 1_555
C5 C4 1_555 1_555
H3 C5 1_555 1_555
C6 C5 1_555 1_555
H4 C6 1_555 1_555
C7 C2 1_555 1_555
H5 C7 1_555 1_555
C8 C9 1_555 1_555
C9 C10 1_555 1_555
C10 H6 1_555 1_555
C11 C10 1_555 1_555
H7 C11 1_555 1_555
C12 C11 1_555 1_555
H8 C12 1_555 1_555
C13 C12 1_555 1_555
H9 C13 1_555 1_555
C14 C9 1_555 1_555
H10 C14 1_555 1_555
C15 H11 1_555 1_555
C16 C15 1_555 1_555
H12 C16 1_555 1_555
N1 C15 1_555 1_555
O1 C1 1_555 1_555
O2 C1 1_555 1_555
O3 C8 1_555 1_555
O4 C8 1_555 1_555
Rh1 N1 1_555 1_555
N1A C16 1_555 1_555
C15A N1A 1_555 1_555
H11A C15A 1_555 1_555
C16A N1 1_555 1_555
H12A C16A 1_555 1_555
C1A C2A 1_555 1_555
C2A C3A 1_555 1_555
C3A H1A 1_555 1_555
C4A C3A 1_555 1_555
H2A C4A 1_555 1_555
C5A C4A 1_555 1_555
H3A C5A 1_555 1_555
C6A C5A 1_555 1_555
H4A C6A 1_555 1_555
C7A C2A 1_555 1_555
H5A C7A 1_555 1_555
O1A C1A 1_555 1_555
O2A Rh1 1_555 1_555
C8A C9A 1_555 1_555
C9A C10A 1_555 1_555
C10A H6A 1_555 1_555
C11A C10A 1_555 1_555
H7A C11A 1_555 1_555
C12A C11A 1_555 1_555
H8A C12A 1_555 1_555
C13A C12A 1_555 1_555
H9A C13A 1_555 1_555
C14A C9A 1_555 1_555
H10A C14A 1_555 1_555
O3A C8A 1_555 1_555
O4A Rh1 1_555 1_555
Rh1A N1A 1_555 1_555
Rh1A_2 O2 1_555 1_555
O1A_2 Rh1A 1_555 1_555
O2_2 Rh1A 1_555 1_555
O3A_2 Rh1A 1_555 1_555
O4_2 Rh1A 1_555 1_555
Rh1_2 Rh1A 1_555 1_555
C6 C7 1_555 1_555
C13 C14 1_555 1_555
O1 Rh1 1_555 1_555
O3 Rh1 1_555 1_555
O4 Rh1A_2 1_555 1_555
Rh1 Rh1A_2 1_555 1_555
C15A C16A 1_555 1_555
C1A O2A 1_555 1_555
C6A C7A 1_555 1_555
O1A Rh1A_2 1_555 1_555
C8A O4A 1_555 1_555
C13A C14A 1_555 1_555
O3A Rh1A_2 1_555 1_555

#END
