
#######################################################################
#
#                 Cambridge Crystallographic Data Centre
#                                CCDC 
#
#######################################################################
#
# If this CIF has been generated from an entry in the Cambridge 
# Structural Database, then it will include bibliographic, chemical, 
# crystal, experimental, refinement or atomic coordinate data resulting 
# from the CCDC's data processing and validation procedures.
#
#######################################################################

data_OLOSAJ
_symmetry_cell_setting           triclinic
_symmetry_space_group_name_H-M   'P -1'
_symmetry_Int_Tables_number      2
_space_group_name_Hall           '-P 1'
loop_
_symmetry_equiv_pos_site_id
_symmetry_equiv_pos_as_xyz
1 x,y,z
2 -x,-y,-z
_cell_length_a                   9.572(2)
_cell_length_b                   10.424(2)
_cell_length_c                   10.977(2)
_cell_angle_alpha                71.270(5)
_cell_angle_beta                 66.062(4)
_cell_angle_gamma                63.155(4)
_cell_volume                     880.317
loop_
_atom_site_label
_atom_site_type_symbol
_atom_site_fract_x
_atom_site_fract_y
_atom_site_fract_z
C1 C 0.539(2) 0.1368(19) 0.2502(19)
C2 C 0.5634(18) 0.2106(17) 0.1091(15)
C3 C 0.4750(17) 0.2085(16) 0.0361(15)
H1 H 0.4004 0.1616 0.0771
C4 C 0.4989(19) 0.2770(18) -0.0991(16)
H2 H 0.4397 0.2760 -0.1480
C5 C 0.611(2) 0.347(2) -0.1607(16)
H3 H 0.6283 0.3908 -0.2511
C6 C 0.697(2) 0.351(2) -0.0873(16)
H4 H 0.7686 0.4013 -0.1271
C7 C 0.6771(19) 0.2785(18) 0.0470(15)
H5 H 0.7397 0.2760 0.0947
C8 C 0.3318(18) 0.2520(17) 0.5759(17)
C9 C 0.2319(14) 0.4027(14) 0.6154(15)
C10 C 0.0638(14) 0.4625(14) 0.6408(14)
H6 H 0.0108 0.4111 0.6327
C11 C -0.0258(15) 0.5980(14) 0.6779(16)
H7 H -0.1391 0.6390 0.6938
C12 C 0.0529(15) 0.6729(15) 0.6916(18)
H8 H -0.0077 0.7632 0.7197
C13 C 0.2204(15) 0.6143(15) 0.6637(18)
H9 H 0.2738 0.6668 0.6694
C14 C 0.3101(15) 0.4787(14) 0.6276(17)
H10 H 0.4234 0.4382 0.6114
C15 C 0.0025(17) 0.0542(16) 0.5923(16)
H11 H 0.0005 0.0947 0.6573
C16 C -0.1428(18) 0.0619(17) 0.5881(17)
H12 H -0.2410 0.1045 0.6523
N1 N 0.1449(14) -0.0099(14) 0.5052(14)
O1 O 0.4173(12) 0.0972(12) 0.3061(11)
O2 O 0.6469(12) 0.1115(11) 0.3033(11)
O3 O 0.2545(12) 0.1885(11) 0.5631(11)
O4 O 0.4855(11) 0.2006(11) 0.5604(11)
Rh1 Rh 0.37726(15) -0.00617(15) 0.50248(16)
N1A N -0.1449(14) 0.0099(14) 0.4948(14)
C15A C -0.0025(17) -0.0542(16) 0.4077(16)
H11A H -0.0005 -0.0947 0.3427
C16A C 0.1428(18) -0.0619(17) 0.4119(17)
H12A H 0.2410 -0.1045 0.3477
C1A C 0.461(2) -0.1368(19) 0.7498(19)
C2A C 0.4366(18) -0.2106(17) 0.8909(15)
C3A C 0.5250(17) -0.2085(16) 0.9639(15)
H1A H 0.5996 -0.1616 0.9229
C4A C 0.5011(19) -0.2770(18) 1.0991(16)
H2A H 0.5603 -0.2760 1.1480
C5A C 0.389(2) -0.347(2) 1.1607(16)
H3A H 0.3717 -0.3908 1.2511
C6A C 0.303(2) -0.351(2) 1.0873(16)
H4A H 0.2314 -0.4013 1.1271
C7A C 0.3229(19) -0.2785(18) 0.9530(15)
H5A H 0.2603 -0.2760 0.9053
O1A O 0.5827(12) -0.0972(12) 0.6939(11)
O2A O 0.3531(12) -0.1115(11) 0.6967(11)
C8A C 0.6682(18) -0.2520(17) 0.4241(17)
C9A C 0.7681(14) -0.4027(14) 0.3846(15)
C10A C 0.9362(14) -0.4625(14) 0.3592(14)
H6A H 0.9892 -0.4111 0.3673
C11A C 1.0258(15) -0.5980(14) 0.3221(16)
H7A H 1.1391 -0.6390 0.3062
C12A C 0.9471(15) -0.6729(15) 0.3084(18)
H8A H 1.0077 -0.7632 0.2803
C13A C 0.7796(15) -0.6143(15) 0.3363(18)
H9A H 0.7262 -0.6668 0.3306
C14A C 0.6899(15) -0.4787(14) 0.3724(17)
H10A H 0.5766 -0.4382 0.3886
O3A O 0.7455(12) -0.1885(11) 0.4369(11)
O4A O 0.5145(11) -0.2006(11) 0.4396(11)
Rh1A Rh -0.37726(15) 0.00617(15) 0.49752(16)
Rh1A_2 Rh 0.62274(15) 0.00617(15) 0.49752(16)
O1A_2 O -0.4173(12) -0.0972(12) 0.6939(11)
O2_2 O -0.3531(12) 0.1115(11) 0.3033(11)
O3A_2 O -0.2545(12) -0.1885(11) 0.4369(11)
O4_2 O -0.5145(11) 0.2006(11) 0.5604(11)
Rh1_2 Rh -0.62274(15) -0.00617(15) 0.50248(16)
C17 C 0.0000 0.5000 0.0000
O5 O -0.003(5) 0.589(4) 0.012(4)
O5A O 0.003(5) 0.411(4) -0.012(4)
loop_
_geom_bond_atom_site_label_1
_geom_bond_atom_site_label_2
_geom_bond_site_symmetry_1
_geom_bond_site_symmetry_2
C1 C2 1_555 1_555
C2 C3 1_555 1_555
C3 H1 1_555 1_555
C4 C3 1_555 1_555
H2 C4 1_555 1_555
C5 C4 1_555 1_555
H3 C5 1_555 1_555
C6 C5 1_555 1_555
H4 C6 1_555 1_555
C7 C2 1_555 1_555
H5 C7 1_555 1_555
C8 C9 1_555 1_555
C9 C10 1_555 1_555
C10 H6 1_555 1_555
C11 C10 1_555 1_555
H7 C11 1_555 1_555
C12 C11 1_555 1_555
H8 C12 1_555 1_555
C13 C12 1_555 1_555
H9 C13 1_555 1_555
C14 C9 1_555 1_555
H10 C14 1_555 1_555
C15 H11 1_555 1_555
C16 C15 1_555 1_555
H12 C16 1_555 1_555
C17 O5 1_555 1_555
N1 C15 1_555 1_555
O1 C1 1_555 1_555
O2 C1 1_555 1_555
O3 C8 1_555 1_555
O4 C8 1_555 1_555
Rh1 N1 1_555 1_555
N1A C16 1_555 1_555
C15A N1A 1_555 1_555
H11A C15A 1_555 1_555
C16A N1 1_555 1_555
H12A C16A 1_555 1_555
O5A C17 1_555 1_555
C1A C2A 1_555 1_555
C2A C3A 1_555 1_555
C3A H1A 1_555 1_555
C4A C3A 1_555 1_555
H2A C4A 1_555 1_555
C5A C4A 1_555 1_555
H3A C5A 1_555 1_555
C6A C5A 1_555 1_555
H4A C6A 1_555 1_555
C7A C2A 1_555 1_555
H5A C7A 1_555 1_555
O1A C1A 1_555 1_555
O2A Rh1 1_555 1_555
C8A C9A 1_555 1_555
C9A C10A 1_555 1_555
C10A H6A 1_555 1_555
C11A C10A 1_555 1_555
H7A C11A 1_555 1_555
C12A C11A 1_555 1_555
H8A C12A 1_555 1_555
C13A C12A 1_555 1_555
H9A C13A 1_555 1_555
C14A C9A 1_555 1_555
H10A C14A 1_555 1_555
O3A C8A 1_555 1_555
O4A Rh1 1_555 1_555
Rh1A N1A 1_555 1_555
Rh1A_2 O2 1_555 1_555
O1A_2 Rh1A 1_555 1_555
O2_2 Rh1A 1_555 1_555
O3A_2 Rh1A 1_555 1_555
O4_2 Rh1A 1_555 1_555
Rh1_2 Rh1A 1_555 1_555
C6 C7 1_555 1_555
C13 C14 1_555 1_555
O1 Rh1 1_555 1_555
O3 Rh1 1_555 1_555
O4 Rh1A_2 1_555 1_555
Rh1 Rh1A_2 1_555 1_555
C15A C16A 1_555 1_555
C1A O2A 1_555 1_555
C6A C7A 1_555 1_555
O1A Rh1A_2 1_555 1_555
C8A O4A 1_555 1_555
C13A C14A 1_555 1_555
O3A Rh1A_2 1_555 1_555

#END
