
#######################################################################
#
#                 Cambridge Crystallographic Data Centre
#                                CCDC 
#
#######################################################################
#
# If this CIF has been generated from an entry in the Cambridge 
# Structural Database, then it will include bibliographic, chemical, 
# crystal, experimental, refinement or atomic coordinate data resulting 
# from the CCDC's data processing and validation procedures.
#
#######################################################################

data_OLOVIU
_symmetry_cell_setting           orthorhombic
_symmetry_space_group_name_H-M   'P c a b'
_symmetry_Int_Tables_number      61
_space_group_name_Hall           '-P 2bc 2ac'
loop_
_symmetry_equiv_pos_site_id
_symmetry_equiv_pos_as_xyz
1 x,y,z
2 x,1/2+y,1/2-z
3 1/2-x,y,1/2+z
4 1/2+x,1/2-y,z
5 -x,-y,-z
6 -x,1/2-y,1/2+z
7 1/2+x,-y,1/2-z
8 1/2-x,1/2+y,-z
_cell_length_a                   28.73(2)
_cell_length_b                   27.26(2)
_cell_length_c                   23.95(2)
_cell_angle_alpha                90
_cell_angle_beta                 90
_cell_angle_gamma                90
_cell_volume                     18757.2
loop_
_atom_site_label
_atom_site_type_symbol
_atom_site_fract_x
_atom_site_fract_y
_atom_site_fract_z
Cu1 Cu 0.74236(5) 0.08377(5) 0.98500(6)
Cu2 Cu 0.73772(5) -0.02419(5) 1.01783(6)
Cu3 Cu 0.72981(5) 0.32223(5) 0.99951(6)
Cu4 Cu 0.79626(6) 0.23829(5) 0.96000(7)
O1 O 0.6967(3) 0.0809(3) 1.0438(3)
O2 O 0.6973(3) 0.0034(3) 1.0750(3)
O3 O 0.6996(3) 0.0582(3) 0.9303(3)
O4 O 0.6896(3) -0.0186(3) 0.9615(3)
O5 O 0.7209(3) -0.0994(3) 1.0274(4)
O6 O 0.7116(3) -0.1774(3) 1.0413(3)
O7 O 0.7315(3) 0.1622(3) 0.9680(4)
O8 O 0.7298(3) 0.2420(3) 0.9708(3)
O9 O 0.7628(3) 0.3057(3) 1.0684(3)
O10 O 0.8077(3) 0.2432(3) 1.0403(3)
N1 N 0.7937(3) 0.0868(3) 0.9309(4)
N2 N 0.7934(4) 0.1005(3) 1.0366(4)
N3 N 0.7880(4) -0.0345(3) 0.9637(4)
N4 N 0.7921(4) -0.0223(3) 1.0691(4)
N5 N 0.6704(3) 0.3282(3) 1.0391(4)
N6 N 0.6903(4) 0.3388(3) 0.9356(4)
N7 N 0.8638(4) 0.2346(3) 0.9462(5)
N8 N 0.7946(4) 0.2251(3) 0.8791(4)
C1 C 0.7908(5) 0.0798(5) 0.8754(5)
H1 H 0.7624(5) 0.0701(5) 0.8606(5)
C2 C 0.8267(6) 0.0860(5) 0.8404(6)
H2 H 0.8223(6) 0.0815(5) 0.8022(6)
C3 C 0.8690(6) 0.0988(5) 0.8598(6)
C4 C 0.8743(5) 0.1074(4) 0.9171(6)
H3 H 0.9025(5) 0.1174(4) 0.9324(6)
C5 C 0.8354(5) 0.1002(4) 0.9497(5)
C6 C 0.8357(4) 0.1090(4) 1.0120(5)
C7 C 0.8733(4) 0.1244(5) 1.0416(6)
H4 H 0.9017(4) 0.1290(5) 1.0235(6)
C8 C 0.8698(5) 0.1332(6) 1.0983(6)
C9 C 0.8281(5) 0.1246(5) 1.1232(5)
H5 H 0.8246(5) 0.1289(5) 1.1615(5)
C10 C 0.7919(5) 0.1096(4) 1.0916(5)
H6 H 0.7635(5) 0.1052(4) 1.1095(5)
C11 C 0.9130(6) 0.1037(6) 0.8217(6)
H7 H 0.9276(33) 0.1349(26) 0.8281(50)
H8 H 0.9039(9) 0.1013(60) 0.7832(7)
H9 H 0.9346(25) 0.0779(36) 0.8303(47)
C12 C 0.9123(5) 0.1523(7) 1.1315(7)
H10 H 0.9062(18) 0.1496(43) 1.1708(7)
H11 H 0.9180(26) 0.1860(15) 1.1221(39)
H12 H 0.9392(11) 0.1330(29) 1.1222(39)
C13 C 0.7837(5) -0.0466(4) 0.9098(5)
H13 H 0.7541(5) -0.0526(4) 0.8958(5)
C14 C 0.8209(6) -0.0505(5) 0.8740(6)
H14 H 0.8161(6) -0.0592(5) 0.8369(6)
C15 C 0.8667(6) -0.0414(5) 0.8934(6)
C16 C 0.8713(5) -0.0302(4) 0.9488(6)
H15 H 0.9005(5) -0.0241(4) 0.9641(6)
C17 C 0.8316(5) -0.0279(4) 0.9820(5)
C18 C 0.8346(5) -0.0188(4) 1.0438(5)
C19 C 0.8738(5) -0.0097(5) 1.0720(7)
H16 H 0.9017(5) -0.0073(5) 1.0526(7)
C20 C 0.8737(8) -0.0039(7) 1.1290(8)
C21 C 0.8305(8) -0.0112(6) 1.1551(7)
H17 H 0.8292(8) -0.0109(6) 1.1939(7)
C22 C 0.7904(6) -0.0185(5) 1.1259(5)
H18 H 0.7621(6) -0.0209(5) 1.1445(5)
C23 C 0.9063(6) -0.0449(7) 0.8556(7)
H19 H 0.8978(12) -0.0320(32) 0.8197(13)
H20 H 0.9153(21) -0.0786(8) 0.8517(30)
H21 H 0.9319(12) -0.0263(28) 0.8704(20)
C24 C 0.9155(8) 0.0060(8) 1.1629(10)
H22 H 0.9426(10) 0.0054(58) 1.1394(14)
H23 H 0.9185(31) -0.0187(35) 1.1913(42)
H24 H 0.9128(27) 0.0376(27) 1.1802(55)
C25 C 0.6632(5) 0.3201(5) 1.0926(6)
H25 H 0.6885(5) 0.3143(5) 1.1159(6)
C26 C 0.6197(6) 0.3200(6) 1.1147(7)
H26 H 0.6166(6) 0.3158(6) 1.1531(7)
C27 C 0.5790(5) 0.3259(6) 1.0829(7)
C28 C 0.5879(4) 0.3346(5) 1.0269(6)
H27 H 0.5631(4) 0.3402(5) 1.0029(6)
C29 C 0.6322(4) 0.3350(4) 1.0058(6)
C30 C 0.6444(4) 0.3436(4) 0.9461(5)
C31 C 0.6117(5) 0.3518(5) 0.9043(7)
H28 H 0.5802(5) 0.3543(5) 0.9127(7)
C32 C 0.6277(7) 0.3562(6) 0.8491(7)
C33 C 0.6730(6) 0.3536(5) 0.8392(6)
H29 H 0.6840(6) 0.3577(5) 0.8030(6)
C34 C 0.7045(6) 0.3446(5) 0.8828(5)
H30 H 0.7361(6) 0.3425(5) 0.8748(5)
C35 C 0.5319(6) 0.3238(9) 1.1046(9)
H31 H 0.5182(14) 0.2928(18) 1.0952(39)
H32 H 0.5137(12) 0.3498(26) 1.0885(36)
H33 H 0.5325(7) 0.3275(40) 1.1444(10)
C36 C 0.5900(6) 0.3648(8) 0.8038(8)
H34 H 0.5620(13) 0.3767(37) 0.8211(9)
H35 H 0.5836(26) 0.3345(11) 0.7848(29)
H36 H 0.6010(16) 0.3886(29) 0.7774(25)
C37 C 0.8985(5) 0.2390(5) 0.9826(7)
H37 H 0.8912(5) 0.2415(5) 1.0204(7)
C38 C 0.9447(6) 0.2401(6) 0.9674(8)
H38 H 0.9674(6) 0.2436(6) 0.9947(8)
C39 C 0.9574(5) 0.2362(6) 0.9130(8)
C40 C 0.9221(5) 0.2315(5) 0.8759(7)
H39 H 0.9294(5) 0.2286(5) 0.8382(7)
C41 C 0.8756(5) 0.2310(4) 0.8916(6)
C42 C 0.8362(5) 0.2240(4) 0.8528(5)
C43 C 0.8391(6) 0.2159(5) 0.7959(6)
H40 H 0.8682(6) 0.2150(5) 0.7789(6)
C44 C 0.7999(6) 0.2091(5) 0.7641(6)
C45 C 0.7589(6) 0.2112(5) 0.7902(6)
H41 H 0.7317(6) 0.2069(5) 0.7699(6)
C46 C 0.7564(6) 0.2195(4) 0.8469(6)
H42 H 0.7273(6) 0.2213(4) 0.8637(6)
C47 C 1.0062(6) 0.2382(8) 0.8969(9)
H43 H 1.0137(11) 0.2101(24) 0.8745(41)
H44 H 1.0253(6) 0.2382(43) 0.9299(9)
H45 H 1.0119(10) 0.2675(23) 0.8759(43)
C48 C 0.8045(7) 0.2009(6) 0.7012(6)
H46 H 0.8157(37) 0.2304(15) 0.6839(9)
H47 H 0.7746(10) 0.1926(39) 0.6859(10)
H48 H 0.8260(30) 0.1746(28) 0.6944(6)
C49 C 0.6831(4) 0.0478(4) 1.0769(5)
C50 C 0.6489(4) 0.0621(5) 1.1210(5)
H49 H 0.6178(4) 0.0612(5) 1.1054(5)
H50 H 0.6552(4) 0.0955(5) 1.1327(5)
C51 C 0.6509(5) 0.0286(5) 1.1719(5)
H51 H 0.6468(5) -0.0052(5) 1.1601(5)
H52 H 0.6255(5) 0.0367(5) 1.1970(5)
C52 C 0.6972(5) 0.0337(5) 1.2027(5)
O11 O 0.7210(4) 0.0702(3) 1.2003(4)
N9 N 0.7087(5) -0.0053(4) 1.2344(5)
H53 H 0.7338(5) -0.0049(4) 1.2539(5)
H54 H 0.6908(5) -0.0307(4) 1.2351(5)
C53 C 0.6791(4) 0.0173(5) 0.9295(5)
C54 C 0.6401(5) 0.0088(5) 0.8889(5)
H55 H 0.6426(5) -0.0244(5) 0.8746(5)
H56 H 0.6108(5) 0.0112(5) 0.9088(5)
C55 C 0.6389(5) 0.0433(5) 0.8407(5)
H57 H 0.6112(5) 0.0372(5) 0.8186(5)
H58 H 0.6374(5) 0.0767(5) 0.8544(5)
C56 C 0.6808(5) 0.0373(5) 0.8050(5)
O12 O 0.7050(4) 0.0009(3) 0.8017(4)
N10 N 0.6943(4) 0.0776(4) 0.7731(4)
H59 H 0.7187(4) 0.0759(4) 0.7524(4)
H60 H 0.6782(4) 0.1042(4) 0.7741(4)
C57 C 0.6953(4) -0.1340(5) 1.0429(5)
C58 C 0.6453(6) -0.1249(6) 1.0587(8)
H61 H 0.6423(6) -0.0941(6) 1.0786(8)
H62 H 0.6338(6) -0.1511(6) 1.0825(8)
C59 C 0.6147(8) -0.1231(9) 0.9975(10)
H63 H 0.6186(8) -0.0912(9) 0.9802(10)
H64 H 0.6267(8) -0.1477(9) 0.9721(10)
C60 C 0.5646(8) -0.1322(9) 1.0075(9)
O13 O 0.5394(9) -0.1414(10) 0.9699(10)
N11 N 0.5486(6) -0.1231(9) 1.0515(10)
H65 H 0.5189(6) -0.1231(9) 1.0559(10)
H66 H 0.5666(6) -0.1164(9) 1.0791(10)
C61 C 0.7095(5) 0.2008(5) 0.9766(5)
C62 C 0.6586(5) 0.1980(6) 0.9871(8)
H67 H 0.6544(5) 0.1948(6) 1.0271(8)
H68 H 0.6454(5) 0.2294(6) 0.9765(8)
C63 C 0.6316(5) 0.1615(6) 0.9618(10)
H69 H 0.6465(5) 0.1301(6) 0.9681(10)
H70 H 0.6314(5) 0.1673(6) 0.9218(10)
C64 C 0.5801(9) 0.1580(9) 0.9822(16)
O14 O 0.5646(8) 0.1707(14) 1.0193(11)
N12 N 0.5548(7) 0.1419(8) 0.9292(10)
H71 H 0.5249(7) 0.1427(8) 0.9277(10)
H72 H 0.5705(7) 0.1319(8) 0.9007(10)
C65 C 0.7924(5) 0.2733(5) 1.0762(5)
C66 C 0.8143(6) 0.2678(5) 1.1324(6)
H73 H 0.8477(6) 0.2714(5) 1.1282(6)
H74 H 0.8085(6) 0.2347(5) 1.1455(6)
C67 C 0.7980(6) 0.3032(5) 1.1769(6)
H75 H 0.8080(6) 0.2914(5) 1.2132(6)
H76 H 0.7643(6) 0.3044(5) 1.1768(6)
C68 C 0.8174(7) 0.3554(6) 1.1676(6)
O15 O 0.8527(6) 0.3629(6) 1.1429(6)
N13 N 0.7903(5) 0.3908(4) 1.1904(5)
H77 H 0.7982(5) 0.4211(4) 1.1876(5)
H78 H 0.7652(5) 0.3829(4) 1.2077(5)
O6G O 0.7884(3) 0.3226(3) 0.9587(3)
Cu3G Cu 0.77019(5) -0.17777(5) 1.00049(6)
Cu4G Cu 0.70374(6) -0.26171(5) 1.04000(7)
Cl1 Cl 0.3245(2) 0.1404(2) 0.7732(2)
O16 O 0.3528(7) 0.0994(7) 0.7596(8)
O17 O 0.3181(8) 0.1704(8) 0.7247(9)
O18 O 0.3489(10) 0.1690(9) 0.8131(11)
O19 O 0.2804(9) 0.1224(11) 0.7902(13)
Cl2 Cl 0.50495(15) 0.0777(2) 0.4694(3)
O24 O 0.5161(4) 0.1277(4) 0.4669(5)
O25 O 0.4647(7) 0.0688(7) 0.4968(9)
O26 O 0.5438(6) 0.0533(7) 0.4888(10)
O27 O 0.4969(14) 0.0617(13) 0.4126(11)
Cl3 Cl 0.6188(2) 0.2013(2) 0.7895(2)
O31 O 0.6505(6) 0.1867(7) 0.7497(8)
O32 O 0.6377(8) 0.2314(8) 0.8267(9)
O33 O 0.5988(9) 0.1614(9) 0.8108(11)
O34 O 0.5832(9) 0.2239(10) 0.7617(11)
O35 O 0.4299(17) 0.2012(18) 0.1131(21)
C69 C 0.4478(20) 0.2120(21) 0.1668(25)
O37 O 0.5737(20) 0.1734(21) 0.1470(24)
O20? O 0.3058(9) 0.1653(9) 0.8182(9)
O21? O 0.3690(10) 0.1721(11) 0.7656(15)
O22? O 0.3454(12) 0.0959(11) 0.7890(13)
O23? O 0.3027(12) 0.1409(13) 0.7237(13)
O28? O 0.5377(7) 0.0458(8) 0.4479(11)
O29? O 0.4604(7) 0.0657(8) 0.4565(11)
O30? O 0.5075(16) 0.0691(15) 0.5324(11)
O36? O 0.5617(18) 0.2101(19) 0.2245(22)
loop_
_geom_bond_atom_site_label_1
_geom_bond_atom_site_label_2
_geom_bond_site_symmetry_1
_geom_bond_site_symmetry_2
Cu1 O1 1_555 1_555
Cu2 O2 1_555 1_555
Cu3 O8 1_555 1_555
Cu4 O8 1_555 1_555
O1 C49 1_555 1_555
O2 C49 1_555 1_555
O3 Cu1 1_555 1_555
O4 Cu2 1_555 1_555
O5 Cu2 1_555 1_555
O6 C57 1_555 1_555
O7 Cu1 1_555 1_555
O8 C61 1_555 1_555
O9 Cu3 1_555 1_555
O10 Cu4 1_555 1_555
N1 Cu1 1_555 1_555
N2 Cu1 1_555 1_555
N3 Cu2 1_555 1_555
N4 Cu2 1_555 1_555
N5 Cu3 1_555 1_555
N6 Cu3 1_555 1_555
N7 Cu4 1_555 1_555
N8 Cu4 1_555 1_555
C1 N1 1_555 1_555
H1 C1 1_555 1_555
C2 C1 1_555 1_555
H2 C2 1_555 1_555
C3 C2 1_555 1_555
C4 C3 1_555 1_555
H3 C4 1_555 1_555
C5 N1 1_555 1_555
C6 N2 1_555 1_555
C7 C6 1_555 1_555
H4 C7 1_555 1_555
C8 C7 1_555 1_555
C9 C8 1_555 1_555
H5 C9 1_555 1_555
C10 N2 1_555 1_555
H6 C10 1_555 1_555
C11 C3 1_555 1_555
H7 C11 1_555 1_555
H8 C11 1_555 1_555
H9 C11 1_555 1_555
C12 C8 1_555 1_555
H10 C12 1_555 1_555
H11 C12 1_555 1_555
H12 C12 1_555 1_555
C13 N3 1_555 1_555
H13 C13 1_555 1_555
C14 C13 1_555 1_555
H14 C14 1_555 1_555
C15 C14 1_555 1_555
C16 C15 1_555 1_555
H15 C16 1_555 1_555
C17 N3 1_555 1_555
C18 N4 1_555 1_555
C19 C18 1_555 1_555
H16 C19 1_555 1_555
C20 C19 1_555 1_555
C21 C20 1_555 1_555
H17 C21 1_555 1_555
C22 N4 1_555 1_555
H18 C22 1_555 1_555
C23 C15 1_555 1_555
H19 C23 1_555 1_555
H20 C23 1_555 1_555
H21 C23 1_555 1_555
C24 C20 1_555 1_555
H22 C24 1_555 1_555
H23 C24 1_555 1_555
H24 C24 1_555 1_555
C25 N5 1_555 1_555
H25 C25 1_555 1_555
C26 C25 1_555 1_555
H26 C26 1_555 1_555
C27 C26 1_555 1_555
C28 C27 1_555 1_555
H27 C28 1_555 1_555
C29 N5 1_555 1_555
C30 N6 1_555 1_555
C31 C30 1_555 1_555
H28 C31 1_555 1_555
C32 C31 1_555 1_555
C33 C32 1_555 1_555
H29 C33 1_555 1_555
C34 N6 1_555 1_555
H30 C34 1_555 1_555
C35 C27 1_555 1_555
H31 C35 1_555 1_555
H32 C35 1_555 1_555
H33 C35 1_555 1_555
C36 C32 1_555 1_555
H34 C36 1_555 1_555
H35 C36 1_555 1_555
H36 C36 1_555 1_555
C37 N7 1_555 1_555
H37 C37 1_555 1_555
C38 C37 1_555 1_555
H38 C38 1_555 1_555
C39 C38 1_555 1_555
C40 C39 1_555 1_555
H39 C40 1_555 1_555
C41 N7 1_555 1_555
C42 N8 1_555 1_555
C43 C42 1_555 1_555
H40 C43 1_555 1_555
C44 C43 1_555 1_555
C45 C44 1_555 1_555
H41 C45 1_555 1_555
C46 N8 1_555 1_555
H42 C46 1_555 1_555
C47 C39 1_555 1_555
H43 C47 1_555 1_555
H44 C47 1_555 1_555
H45 C47 1_555 1_555
C48 C44 1_555 1_555
H46 C48 1_555 1_555
H47 C48 1_555 1_555
H48 C48 1_555 1_555
C49 C50 1_555 1_555
C50 H49 1_555 1_555
H50 C50 1_555 1_555
C51 C50 1_555 1_555
H51 C51 1_555 1_555
H52 C51 1_555 1_555
C52 C51 1_555 1_555
O11 C52 1_555 1_555
N9 C52 1_555 1_555
H53 N9 1_555 1_555
H54 N9 1_555 1_555
C53 O3 1_555 1_555
C54 C53 1_555 1_555
H55 C54 1_555 1_555
H56 C54 1_555 1_555
C55 C54 1_555 1_555
H57 C55 1_555 1_555
H58 C55 1_555 1_555
C56 C55 1_555 1_555
O12 C56 1_555 1_555
N10 C56 1_555 1_555
H59 N10 1_555 1_555
H60 N10 1_555 1_555
C57 O5 1_555 1_555
C58 C57 1_555 1_555
H61 C58 1_555 1_555
H62 C58 1_555 1_555
C59 C58 1_555 1_555
H63 C59 1_555 1_555
H64 C59 1_555 1_555
C60 C59 1_555 1_555
O13 C60 1_555 1_555
N11 C60 1_555 1_555
H65 N11 1_555 1_555
H66 N11 1_555 1_555
C61 O7 1_555 1_555
C62 C61 1_555 1_555
H67 C62 1_555 1_555
H68 C62 1_555 1_555
C63 C62 1_555 1_555
H69 C63 1_555 1_555
H70 C63 1_555 1_555
C64 C63 1_555 1_555
O14 C64 1_555 1_555
N12 C64 1_555 1_555
H71 N12 1_555 1_555
H72 N12 1_555 1_555
C65 O9 1_555 1_555
C66 C65 1_555 1_555
H73 C66 1_555 1_555
H74 C66 1_555 1_555
C67 C66 1_555 1_555
H75 C67 1_555 1_555
H76 C67 1_555 1_555
C68 C67 1_555 1_555
O15 C68 1_555 1_555
N13 C68 1_555 1_555
H77 N13 1_555 1_555
H78 N13 1_555 1_555
Cl1 O16 1_555 1_555
O17 Cl1 1_555 1_555
O18 Cl1 1_555 1_555
O19 Cl1 1_555 1_555
Cl2 O24 1_555 1_555
O25 Cl2 1_555 1_555
O26 Cl2 1_555 1_555
O27 Cl2 1_555 1_555
Cl3 O31 1_555 1_555
O32 Cl3 1_555 1_555
O33 Cl3 1_555 1_555
O34 Cl3 1_555 1_555
O35 C69 1_555 1_555
O6G Cu3 1_555 1_555
Cu3G O6 1_555 1_555
Cu4G O6 1_555 1_555
Cu4 O6G 1_555 1_555
O4 C53 1_555 1_555
O10 C65 1_555 1_555
C4 C5 1_555 1_555
C5 C6 1_555 1_555
C9 C10 1_555 1_555
C16 C17 1_555 1_555
C17 C18 1_555 1_555
C21 C22 1_555 1_555
C28 C29 1_555 1_555
C29 C30 1_555 1_555
C33 C34 1_555 1_555
C40 C41 1_555 1_555
C41 C42 1_555 1_555
C45 C46 1_555 1_555

#END
