
#######################################################################
#
#                 Cambridge Crystallographic Data Centre
#                                CCDC 
#
#######################################################################
#
# If this CIF has been generated from an entry in the Cambridge 
# Structural Database, then it will include bibliographic, chemical, 
# crystal, experimental, refinement or atomic coordinate data resulting 
# from the CCDC's data processing and validation procedures.
#
#######################################################################

data_OLOZAQ
_symmetry_cell_setting           monoclinic
_symmetry_space_group_name_H-M   'P 21/n'
_symmetry_Int_Tables_number      14
_space_group_name_Hall           '-P 2yn'
loop_
_symmetry_equiv_pos_site_id
_symmetry_equiv_pos_as_xyz
1 x,y,z
2 1/2+x,1/2-y,1/2+z
3 -x,-y,-z
4 1/2-x,1/2+y,1/2-z
_cell_length_a                   5.9702(10)
_cell_length_b                   17.740(3)
_cell_length_c                   8.7425(15)
_cell_angle_alpha                90
_cell_angle_beta                 109.351(3)
_cell_angle_gamma                90
_cell_volume                     873.621
loop_
_atom_site_label
_atom_site_type_symbol
_atom_site_fract_x
_atom_site_fract_y
_atom_site_fract_z
C1 C 1.4534(5) 0.08907(16) -0.0880(3)
C2 C 1.2078(6) 0.1219(2) 0.2910(4)
C3 C 1.2316(6) 0.1705(2) 0.4195(4)
C4 C 1.0703(5) 0.16302(17) 0.5041(3)
C5 C 0.8980(6) 0.1067(2) 0.4579(4)
C6 C 0.8899(6) 0.0609(2) 0.3273(4)
C7 C 1.0814(6) 0.21323(19) 0.6377(4)
Cd1 Cd 1.0000 0.0000 0.0000
H1 H 1.298(8) 0.126(2) 0.246(5)
H2 H 1.368(8) 0.210(3) 0.457(5)
H3 H 0.795(8) 0.100(3) 0.523(6)
H4 H 0.767(8) 0.028(2) 0.284(5)
N1 N 1.2999(4) 0.07118(15) -0.0433(3)
N2 N 1.0427(4) 0.06835(15) 0.2442(3)
N3 N 1.0867(6) 0.25238(18) 0.7429(4)
Se1 Se 1.69087(5) 0.117420(18) -0.16153(4)
C1B C 0.5466(5) -0.08907(16) 0.0880(3)
N1B N 0.7001(4) -0.07118(15) 0.0433(3)
Se1B Se 0.30913(5) -0.117420(18) 0.16153(4)
C2B C 0.7922(6) -0.1219(2) -0.2910(4)
C3B C 0.7684(6) -0.1705(2) -0.4195(4)
C4B C 0.9297(5) -0.16302(17) -0.5041(3)
C5B C 1.1020(6) -0.1067(2) -0.4579(4)
C6B C 1.1101(6) -0.0609(2) -0.3273(4)
C7B C 0.9186(6) -0.21323(19) -0.6377(4)
H1B H 0.702(8) -0.126(2) -0.246(5)
H2B H 0.632(8) -0.210(3) -0.457(5)
H3B H 1.205(8) -0.100(3) -0.523(6)
H4B H 1.233(8) -0.028(2) -0.284(5)
N2B N 0.9573(4) -0.06835(15) -0.2442(3)
N3B N 0.9133(6) -0.25238(18) -0.7429(4)
Se1_2 Se 0.69087(5) 0.117420(18) -0.16153(4)
Se1B_2 Se 1.30913(5) -0.117420(18) 0.16153(4)
Cd1_2 Cd 2.0000 0.0000 0.0000
Cd1_3 Cd 0.0000 0.0000 0.0000
loop_
_geom_bond_atom_site_label_1
_geom_bond_atom_site_label_2
_geom_bond_site_symmetry_1
_geom_bond_site_symmetry_2
C1 N1 1_555 1_555
C2 C3 1_555 1_555
C3 C4 1_555 1_555
C4 C5 1_555 1_555
C5 C6 1_555 1_555
C6 H4 1_555 1_555
C7 C4 1_555 1_555
Cd1 N1 1_555 1_555
H1 C2 1_555 1_555
H2 C3 1_555 1_555
H3 C5 1_555 1_555
N2 C2 1_555 1_555
N3 C7 1_555 1_555
Se1 C1 1_555 1_555
C1B N1B 1_555 1_555
N1B Cd1 1_555 1_555
Se1B C1B 1_555 1_555
C2B C3B 1_555 1_555
C3B C4B 1_555 1_555
C4B C5B 1_555 1_555
C5B C6B 1_555 1_555
C6B H4B 1_555 1_555
C7B C4B 1_555 1_555
H1B C2B 1_555 1_555
H2B C3B 1_555 1_555
H3B C5B 1_555 1_555
N2B Cd1 1_555 1_555
N3B C7B 1_555 1_555
Se1_2 Cd1 1_555 1_555
Se1B_2 Cd1 1_555 1_555
Cd1_2 Se1 1_555 1_555
Cd1_3 Se1B 1_555 1_555
C6 N2 1_555 1_555
Cd1 N2 1_555 1_555
C2B N2B 1_555 1_555
C6B N2B 1_555 1_555

#END
