
#######################################################################
#
#                 Cambridge Crystallographic Data Centre
#                                CCDC 
#
#######################################################################
#
# If this CIF has been generated from an entry in the Cambridge 
# Structural Database, then it will include bibliographic, chemical, 
# crystal, experimental, refinement or atomic coordinate data resulting 
# from the CCDC's data processing and validation procedures.
#
#######################################################################

data_OLUBEC
_symmetry_cell_setting           monoclinic
_symmetry_space_group_name_H-M   'P 21/c'
_symmetry_Int_Tables_number      14
_space_group_name_Hall           '-P 2ybc'
loop_
_symmetry_equiv_pos_site_id
_symmetry_equiv_pos_as_xyz
1 x,y,z
2 x,1/2-y,1/2+z
3 -x,-y,-z
4 -x,1/2+y,1/2-z
_cell_length_a                   9.2163(18)
_cell_length_b                   7.9897(16)
_cell_length_c                   21.386(4)
_cell_angle_alpha                90
_cell_angle_beta                 97.52(3)
_cell_angle_gamma                90
_cell_volume                     1561.22
loop_
_atom_site_label
_atom_site_type_symbol
_atom_site_fract_x
_atom_site_fract_y
_atom_site_fract_z
Te1 Te 0.22046(2) 0.52925(3) 0.226028(8)
Ni1 Ni 0.42305(4) 0.41128(5) 0.126560(16)
V1 V 0.06963(5) 0.93754(7) 0.19788(2)
V2 V 0.39253(5) 0.14768(6) 0.24732(2)
O1 O 0.0340(3) 0.4385(3) 0.23600(11)
O2 O 0.3153(3) 0.3349(3) 0.27275(10)
O3 O -0.0064(3) 1.0569(3) 0.14290(13)
O4 O 0.2540(3) 0.9989(3) 0.22511(12)
O5 O 0.4878(2) 0.5708(3) 0.19292(10)
O6 O 0.4838(2) 0.1854(3) 0.18877(10)
O7 O 0.0758(3) 0.7430(3) 0.16961(11)
O8 O 0.2276(2) 0.4372(3) 0.14776(10)
C1 C 0.7446(4) 0.4572(5) 0.11011(16)
H1 H 0.7590 0.5099 0.1492
C2 C 0.8637(4) 0.4399(5) 0.07627(17)
H2 H 0.9555 0.4796 0.0930
C3 C 0.8444(4) 0.3646(5) 0.01867(17)
H3 H 0.9223 0.3556 -0.0047
C4 C 0.7057(3) 0.3002(4) -0.00530(14)
C5 C 0.6747(4) 0.2147(5) -0.06449(15)
H4 H 0.7482 0.2034 -0.0901
C6 C 0.5397(4) 0.1497(5) -0.08394(15)
H5 H 0.5228 0.0936 -0.1223
C7 C 0.4237(4) 0.1668(4) -0.04594(14)
C8 C 0.2822(4) 0.1029(4) -0.06216(15)
H6 H 0.2581 0.0455 -0.0999
C9 C 0.1797(4) 0.1256(5) -0.02197(17)
H7 H 0.0856 0.0832 -0.0324
C10 C 0.2159(4) 0.2121(4) 0.03448(15)
H8 H 0.1457 0.2245 0.0617
C11 C 0.4508(3) 0.2538(4) 0.01131(14)
C12 C 0.5931(3) 0.3209(4) 0.03159(13)
N1 N 0.6111(3) 0.4008(3) 0.08841(12)
N2 N 0.3483(3) 0.2774(3) 0.05036(12)
O4_2 O 0.2540(3) -0.0011(3) 0.22511(12)
O1C O -0.0340(3) 0.9385(3) 0.26400(11)
V2C V 0.60747(5) 0.64768(6) 0.25268(2)
V2_2 V 0.39253(5) 1.14768(6) 0.24732(2)
O5C O 0.5122(2) 0.0708(3) 0.30708(10)
V1C V -0.06963(5) 0.43754(7) 0.30212(2)
loop_
_geom_bond_atom_site_label_1
_geom_bond_atom_site_label_2
_geom_bond_site_symmetry_1
_geom_bond_site_symmetry_2
Te1 O1 1_555 1_555
Ni1 O5 1_555 1_555
V1 O3 1_555 1_555
V2 O2 1_555 1_555
O1 V1C 1_555 1_555
O2 Te1 1_555 1_555
O4 V1 1_555 1_555
O5 V2C 1_555 1_555
O6 Ni1 1_555 1_555
O7 Te1 1_555 1_555
O8 Te1 1_555 1_555
C1 H1 1_555 1_555
C2 C1 1_555 1_555
H2 C2 1_555 1_555
C3 C2 1_555 1_555
H3 C3 1_555 1_555
C4 C3 1_555 1_555
C5 C4 1_555 1_555
H4 C5 1_555 1_555
C6 C5 1_555 1_555
H5 C6 1_555 1_555
C7 C6 1_555 1_555
C8 C7 1_555 1_555
H6 C8 1_555 1_555
C9 C8 1_555 1_555
H7 C9 1_555 1_555
C10 C9 1_555 1_555
H8 C10 1_555 1_555
C11 C7 1_555 1_555
C12 C4 1_555 1_555
N1 Ni1 1_555 1_555
N2 Ni1 1_555 1_555
O4_2 V2 1_555 1_555
O1C V1 1_555 1_555
V2_2 O4 1_555 1_555
O5C V2 1_555 1_555
Ni1 O8 1_555 1_555
V1 O7 1_555 1_555
V2 O6 1_555 1_555
C1 N1 1_555 1_555
C10 N2 1_555 1_555
C11 N2 1_555 1_555
C11 C12 1_555 1_555
C12 N1 1_555 1_555

#END
