
#######################################################################
#
#                 Cambridge Crystallographic Data Centre
#                                CCDC 
#
#######################################################################
#
# If this CIF has been generated from an entry in the Cambridge 
# Structural Database, then it will include bibliographic, chemical, 
# crystal, experimental, refinement or atomic coordinate data resulting 
# from the CCDC's data processing and validation procedures.
#
#######################################################################

data_OLUCON
_symmetry_cell_setting           monoclinic
_symmetry_space_group_name_H-M   'P 21/c'
_symmetry_Int_Tables_number      14
_space_group_name_Hall           '-P 2ybc'
loop_
_symmetry_equiv_pos_site_id
_symmetry_equiv_pos_as_xyz
1 x,y,z
2 x,1/2-y,1/2+z
3 -x,-y,-z
4 -x,1/2+y,1/2-z
_cell_length_a                   14.8153(2)
_cell_length_b                   11.3098(2)
_cell_length_c                   20.5755(4)
_cell_angle_alpha                90
_cell_angle_beta                 96.5010(10)
_cell_angle_gamma                90
_cell_volume                     3425.42
loop_
_atom_site_label
_atom_site_type_symbol
_atom_site_fract_x
_atom_site_fract_y
_atom_site_fract_z
Ag1 Ag 0.18322(5) 0.40127(6) 0.07671(4)
Ag2 Ag 0.38716(6) 0.34178(6) 0.03547(4)
N1 N 0.3897(5) 0.1528(5) 0.0322(4)
N2 N 0.1711(5) 0.5906(5) 0.0844(3)
N3 N 0.3957(5) -0.4696(6) 0.0325(4)
C1 C 0.1645(6) 0.8354(7) 0.0886(4)
N4 N 0.1744(5) 1.2111(6) 0.0817(4)
C3 C 0.3946(5) -0.0929(7) 0.0310(4)
C4 C 0.2238(6) 0.6519(7) 0.1290(4)
H2 H 0.2634 0.6110 0.1593
C5 C 0.4103(6) -0.0294(7) 0.0879(4)
H3 H 0.4236 -0.0686 0.1275
C6 C 0.3742(6) 0.0936(7) -0.0231(5)
H4 H 0.3611 0.1356 -0.0619
C8 C 0.3969(5) -0.2238(7) 0.0316(4)
C9 C 0.3480(7) -0.4097(7) -0.0148(4)
H6 H 0.3137 -0.4516 -0.0478
C10 C 0.2221(6) 0.7729(7) 0.1320(4)
H7 H 0.2603 0.8123 0.1638
C11 C 0.1140(6) 0.6518(7) 0.0435(5)
H8 H 0.0755 0.6106 0.0125
C12 C 0.4464(6) -0.2871(7) 0.0800(4)
H9 H 0.4815 -0.2480 0.1137
C13 C 0.4066(6) 0.0919(7) 0.0865(5)
H10 H 0.4164 0.1328 0.1259
C14 C 0.1982(7) 1.0321(8) 0.1398(5)
H11 H 0.2180 0.9950 0.1792
C15 C 0.2028(7) 1.1538(8) 0.1359(5)
H12 H 0.2265 1.1965 0.1725
C16 C 0.4440(6) -0.4085(8) 0.0786(5)
H13 H 0.4782 -0.4497 0.1119
C18 C 0.3470(6) -0.2879(7) -0.0175(4)
H14 H 0.3132 -0.2491 -0.0519
C19 C 0.3764(6) -0.0287(7) -0.0258(4)
H15 H 0.3657 -0.0673 -0.0658
C20 C 0.1652(6) 0.9646(7) 0.0871(4)
C21 C 0.1348(6) 1.0273(7) 0.0316(5)
H16 H 0.1105 0.9872 -0.0058
C23 C 0.1400(6) 1.1479(8) 0.0308(5)
H18 H 0.1183 1.1874 -0.0075
C28 C 0.1082(6) 0.7721(7) 0.0440(5)
H21 H 0.0664 0.8109 0.0142
N3_2 N 0.3957(5) 0.5304(6) 0.0325(4)
Ag2_2 Ag 0.38716(6) -0.65822(6) 0.03547(4)
N4_2 N 0.1744(5) 0.2111(6) 0.0817(4)
Ag1_2 Ag 0.18322(5) 1.40127(6) 0.07671(4)
S1 S -0.08262(16) 0.3598(3) -0.34481(12)
C2 C -0.2548(5) 0.3704(7) -0.3135(4)
H1 H -0.2469 0.4520 -0.3131
O1 O 0.1966(4) 0.1379(5) -0.2464(3)
C7 C 0.0208(6) 0.4410(8) -0.1638(4)
H5 H 0.0067 0.4919 -0.1309
O2 O 0.1055(6) 0.4265(7) -0.0422(4)
O3 O -0.4988(5) 0.1571(6) -0.3349(4)
C17 C 0.1151(5) 0.2894(7) -0.2005(4)
O5 O -0.0988(4) 0.4784(8) -0.3657(3)
C22 C -0.1964(7) 0.1759(9) -0.3266(5)
H17 H -0.1487 0.1271 -0.3355
C24 C -0.3356(6) 0.3221(7) -0.3010(4)
C25 C -0.2757(8) 0.1283(9) -0.3135(5)
H19 H -0.2822 0.0466 -0.3131
C26 C -0.1861(6) 0.2977(8) -0.3267(4)
C27 C 0.0569(5) 0.2866(8) -0.2578(4)
H20 H 0.0671 0.2318 -0.2899
C29 C -0.0147(5) 0.3614(8) -0.2686(4)
O6 O 0.2275(5) 0.3491(7) -0.0744(3)
O7 O -0.0426(4) 0.2783(9) -0.3858(3)
O8 O -0.4132(5) 0.5032(9) -0.3070(5)
C30 C 0.1926(6) 0.2051(9) -0.2011(5)
C31 C -0.0334(6) 0.4424(8) -0.2215(5)
H22 H -0.0813 0.4957 -0.2291
C32 C -0.4081(8) 0.3990(14) -0.2826(6)
C33 C 0.1459(8) 0.3837(8) -0.0842(5)
C34 C -0.4376(9) 0.1446(12) -0.2913(5)
C35 C -0.3471(7) 0.1992(8) -0.3009(4)
C36 C 0.0954(6) 0.3685(7) -0.1512(4)
O9 O 0.2564(5) 0.2098(8) -0.1534(4)
O10 O -0.4388(8) 0.0826(12) -0.2429(5)
O11 O -0.4597(6) 0.3663(9) -0.2431(5)
O4 O 0.3267(4) 0.4030(6) 0.1693(3)
O12 O 0.3628(14) 0.352(2) -0.2184(12)
loop_
_geom_bond_atom_site_label_1
_geom_bond_atom_site_label_2
_geom_bond_site_symmetry_1
_geom_bond_site_symmetry_2
Ag1 Ag2 1_555 1_555
Ag2 N1 1_555 1_555
S1 O5 1_555 1_555
N1 C6 1_555 1_555
N2 Ag1 1_555 1_555
N3 C9 1_555 1_555
C1 C10 1_555 1_555
N4 C15 1_555 1_555
C2 H1 1_555 1_555
C3 C5 1_555 1_555
C4 N2 1_555 1_555
H2 C4 1_555 1_555
C5 H3 1_555 1_555
C6 H4 1_555 1_555
O1 C30 1_555 1_555
C7 H5 1_555 1_555
C8 C3 1_555 1_555
C9 H6 1_555 1_555
C10 C4 1_555 1_555
H7 C10 1_555 1_555
C11 N2 1_555 1_555
H8 C11 1_555 1_555
C12 C8 1_555 1_555
H9 C12 1_555 1_555
C13 N1 1_555 1_555
H10 C13 1_555 1_555
C14 H11 1_555 1_555
C15 C14 1_555 1_555
H12 C15 1_555 1_555
O2 C33 1_555 1_555
C16 N3 1_555 1_555
H13 C16 1_555 1_555
O3 C34 1_555 1_555
C17 C27 1_555 1_555
C18 C8 1_555 1_555
H14 C18 1_555 1_555
C19 C3 1_555 1_555
H15 C19 1_555 1_555
C20 C1 1_555 1_555
C21 C20 1_555 1_555
H16 C21 1_555 1_555
C22 H17 1_555 1_555
C23 N4 1_555 1_555
H18 C23 1_555 1_555
C24 C2 1_555 1_555
C25 C22 1_555 1_555
H19 C25 1_555 1_555
C26 S1 1_555 1_555
C27 H20 1_555 1_555
C28 C1 1_555 1_555
H21 C28 1_555 1_555
C29 S1 1_555 1_555
O6 C33 1_555 1_555
O7 S1 1_555 1_555
O8 C32 1_555 1_555
C30 C17 1_555 1_555
C31 C7 1_555 1_555
H22 C31 1_555 1_555
C32 C24 1_555 1_555
C33 C36 1_555 1_555
C34 C35 1_555 1_555
C35 C24 1_555 1_555
C36 C7 1_555 1_555
O9 C30 1_555 1_555
O10 C34 1_555 1_555
O11 C32 1_555 1_555
N3_2 Ag2 1_555 1_555
Ag2_2 N3 1_555 1_555
N4_2 Ag1 1_555 1_555
Ag1_2 N4 1_555 1_555
C2 C26 1_555 1_555
C5 C13 1_555 1_555
C6 C19 1_555 1_555
C9 C18 1_555 1_555
C11 C28 1_555 1_555
C12 C16 1_555 1_555
C14 C20 1_555 1_555
C17 C36 1_555 1_555
C21 C23 1_555 1_555
C22 C26 1_555 1_555
C25 C35 1_555 1_555
C27 C29 1_555 1_555
C29 C31 1_555 1_555

#END
