
#######################################################################
#
#                 Cambridge Crystallographic Data Centre
#                                CCDC 
#
#######################################################################
#
# If this CIF has been generated from an entry in the Cambridge 
# Structural Database, then it will include bibliographic, chemical, 
# crystal, experimental, refinement or atomic coordinate data resulting 
# from the CCDC's data processing and validation procedures.
#
#######################################################################

data_OLUCIH
_symmetry_cell_setting           monoclinic
_symmetry_space_group_name_H-M   'C 2/c'
_symmetry_Int_Tables_number      15
_space_group_name_Hall           '-C 2yn'
loop_
_symmetry_equiv_pos_site_id
_symmetry_equiv_pos_as_xyz
1 x,y,z
2 1/2+x,1/2+y,z
3 x,-y,1/2+z
4 1/2+x,1/2-y,1/2+z
5 -x,-y,-z
6 1/2-x,1/2-y,-z
7 -x,y,1/2-z
8 1/2-x,1/2+y,1/2-z
_cell_length_a                   18.84610(10)
_cell_length_b                   11.4196(4)
_cell_length_c                   14.1240(4)
_cell_angle_alpha                90
_cell_angle_beta                 114.040(2)
_cell_angle_gamma                90
_cell_volume                     2776.04
loop_
_atom_site_label
_atom_site_type_symbol
_atom_site_fract_x
_atom_site_fract_y
_atom_site_fract_z
Ag1 Ag 0.00859(3) 0.04798(4) 0.12475(4)
N1 N 0.0114(3) 0.2368(4) 0.1256(4)
N2 N 0.0066(3) 0.8598(4) 0.1264(4)
C6 C 0.0764(4) 0.2992(5) 0.1470(5)
H1 H 0.123(4) 0.256(7) 0.157(6)
C7 C 0.0785(4) 0.4195(5) 0.1489(5)
H2 H 0.123(3) 0.455(5) 0.167(4)
C8 C 0.0106(3) 0.4840(4) 0.1279(4)
C9 C 0.0087(3) 0.6138(4) 0.1284(4)
C10 C 0.0767(4) 0.6788(5) 0.1624(5)
H3 H 0.130(4) 0.645(6) 0.193(5)
C11 C 0.0730(4) 0.8004(5) 0.1603(6)
H4 H 0.119(4) 0.843(6) 0.184(5)
C12 C -0.0589(4) 0.7976(5) 0.0949(5)
H5 H -0.108(4) 0.827(6) 0.070(5)
C13 C -0.0600(4) 0.6780(5) 0.0950(5)
H6 H -0.107(4) 0.637(6) 0.073(5)
C14 C -0.0572(4) 0.4193(5) 0.1052(5)
H7 H -0.110(4) 0.462(6) 0.094(5)
C15 C -0.0536(4) 0.2989(6) 0.1056(6)
H8 H -0.100(4) 0.259(6) 0.087(5)
N2_2 N 0.0066(3) -0.1402(4) 0.1264(4)
Ag1_2 Ag 0.00859(3) 1.04798(4) 0.12475(4)
C1 C 0.2494(3) 0.2258(5) 0.5945(4)
C2 C 0.2700(3) 0.3370(4) 0.5758(4)
C3 C 0.2298(3) 0.1377(4) 0.5210(4)
C4 C 0.3038(3) 0.4196(5) 0.6646(4)
C5 C 0.2148(3) 0.0163(5) 0.5519(4)
O2 O 0.1692(2) 0.0096(3) 0.5964(3)
O3 O 0.2516(3) -0.0666(3) 0.5372(3)
O4 O 0.2659(2) 0.4205(4) 0.7246(3)
H11 H 0.296(7) 0.466(11) 0.807(11)
O5 O 0.3634(2) 0.4729(4) 0.6821(3)
H12 H 0.246(3) 0.211(5) 0.647(4)
C3E C 0.2702(3) 0.3623(4) 0.4790(4)
C1E C 0.2506(3) 0.2742(5) 0.4055(4)
C2E C 0.2300(3) 0.1630(4) 0.4242(4)
C4E C 0.1962(3) 0.0804(5) 0.3354(4)
O4E O 0.2341(2) 0.0795(4) 0.2754(3)
H11E H 0.204(7) 0.034(11) 0.193(11)
O5E O 0.1366(2) 0.0271(4) 0.3179(3)
H12E H 0.254(3) 0.289(5) 0.353(4)
C5E C 0.2852(3) 0.4837(5) 0.4481(4)
O2E O 0.3308(2) 0.4904(3) 0.4036(3)
O3E O 0.2484(3) 0.5666(3) 0.4628(3)
O1 O 0.2535(4) 0.7896(5) 0.3640(4)
H9 H 0.249(4) 0.839(7) 0.414(6)
H10 H 0.252(5) 0.734(7) 0.391(6)
loop_
_geom_bond_atom_site_label_1
_geom_bond_atom_site_label_2
_geom_bond_site_symmetry_1
_geom_bond_site_symmetry_2
Ag1 N1 1_555 1_555
N1 C6 1_555 1_555
N2 C11 1_555 1_555
C1 C2 1_555 1_555
C2 C4 1_555 1_555
C3 C1 1_555 1_555
C4 O4 1_555 1_555
C5 C3 1_555 1_555
C6 H1 1_555 1_555
C7 C6 1_555 1_555
H2 C7 1_555 1_555
C8 C7 1_555 1_555
C9 C8 1_555 1_555
C10 C9 1_555 1_555
H3 C10 1_555 1_555
C11 C10 1_555 1_555
H4 C11 1_555 1_555
C12 N2 1_555 1_555
H5 C12 1_555 1_555
C13 C9 1_555 1_555
H6 C13 1_555 1_555
C14 C8 1_555 1_555
H7 C14 1_555 1_555
C15 N1 1_555 1_555
H8 C15 1_555 1_555
O1 H9 1_555 1_555
H10 O1 1_555 1_555
O2 C5 1_555 1_555
O3 C5 1_555 1_555
O4 H11 1_555 1_555
O5 C4 1_555 1_555
H12 C1 1_555 1_555
N2_2 Ag1 1_555 1_555
Ag1_2 N2 1_555 1_555
C3E C2 1_555 1_555
C1E C3E 1_555 1_555
C2E C3 1_555 1_555
C4E C2E 1_555 1_555
O4E C4E 1_555 1_555
H11E O4E 1_555 1_555
O5E C4E 1_555 1_555
H12E C1E 1_555 1_555
C5E C3E 1_555 1_555
O2E C5E 1_555 1_555
O3E C5E 1_555 1_555
C12 C13 1_555 1_555
C14 C15 1_555 1_555
C1E C2E 1_555 1_555

#END
