
#######################################################################
#
#                 Cambridge Crystallographic Data Centre
#                                CCDC 
#
#######################################################################
#
# If this CIF has been generated from an entry in the Cambridge 
# Structural Database, then it will include bibliographic, chemical, 
# crystal, experimental, refinement or atomic coordinate data resulting 
# from the CCDC's data processing and validation procedures.
#
#######################################################################

data_OLUGOR
_symmetry_cell_setting           triclinic
_symmetry_space_group_name_H-M   'P -1'
_symmetry_Int_Tables_number      2
_space_group_name_Hall           '-P 1'
loop_
_symmetry_equiv_pos_site_id
_symmetry_equiv_pos_as_xyz
1 x,y,z
2 -x,-y,-z
_cell_length_a                   8.82890(10)
_cell_length_b                   11.12850(10)
_cell_length_c                   12.9991(2)
_cell_angle_alpha                113.7090(10)
_cell_angle_beta                 95.8260(10)
_cell_angle_gamma                108.1790(10)
_cell_volume                     1072.55
loop_
_atom_site_label
_atom_site_type_symbol
_atom_site_fract_x
_atom_site_fract_y
_atom_site_fract_z
C1 C -0.3568(2) 0.0448(2) -0.25021(17)
C2 C -0.0066(3) 0.1027(2) -0.1150(2)
C3 C 0.0229(3) -0.1111(2) -0.32263(18)
C4 C -0.2817(3) -0.1367(3) -0.4515(2)
C5 C -0.2644(3) -0.1782(2) -0.23979(19)
C6 C -0.0164(3) 0.1287(3) -0.3254(2)
C7 C -0.3502(2) 0.1963(2) -0.19982(16)
C8 C -0.4966(3) 0.2193(2) -0.2012(2)
H1 H -0.5994 0.1401 -0.2345
C9 C -0.4946(3) 0.3559(3) -0.1548(2)
H2 H -0.5956 0.3697 -0.1570
C10 C -0.3454(3) 0.4726(3) -0.1051(2)
H3 H -0.3435 0.5664 -0.0730
C11 C -0.1994(3) 0.4511(2) -0.10287(19)
H4 H -0.0969 0.5306 -0.0685
C12 C -0.2016(3) 0.3149(2) -0.15016(17)
H5 H -0.1003 0.3017 -0.1488
C13 C -0.7012(4) -0.0409(3) -0.0631(2)
H6 H -0.8173 -0.0536 -0.0813
H7 H -0.6330 0.0400 -0.0729
H8 H -0.6662 -0.0229 0.0175
C14 C -0.7813(4) -0.2889(3) -0.1313(2)
H9 H -0.8997 -0.3060 -0.1526
H10 H -0.7515 -0.2754 -0.0508
C15 C -0.7482(4) -0.4117(3) -0.2140(2)
H11 H -0.6318 -0.3983 -0.1895
H12 H -0.8208 -0.5019 -0.2171
C16 C -0.7349(3) -0.5113(3) -0.4131(2)
H13 H -0.7995 -0.6106 -0.4301
H14 H -0.6160 -0.4907 -0.3882
C17 C -0.7703(3) -0.4898(3) -0.5180(2)
H15 H -0.7256 -0.5438 -0.5795
H16 H -0.8909 -0.5237 -0.5493
C18 C -0.7329(4) -0.3068(4) -0.5733(2)
H17 H -0.6950 -0.3569 -0.6399
H18 H -0.6780 -0.2038 -0.5448
H19 H -0.8527 -0.3354 -0.5972
Li1 Li -0.6808(4) -0.2117(4) -0.3125(3)
O1 O -0.49711(17) -0.04626(15) -0.27534(13)
O2 O 0.0710(2) 0.1761(2) -0.02041(16)
O3 O 0.11578(19) -0.16575(18) -0.34746(14)
O4 O -0.3574(3) -0.1962(3) -0.54568(16)
O5 O -0.3329(2) -0.2652(2) -0.21695(17)
O6 O 0.0584(3) 0.2130(2) -0.3495(2)
O7 O -0.6825(2) -0.16713(17) -0.14001(13)
O8 O -0.7821(2) -0.41445(16) -0.32481(14)
O9 O -0.69347(19) -0.34203(17) -0.48281(13)
W1 W -0.140620(9) -0.023540(8) -0.282800(7)
O3_2 O -0.88422(19) -0.16575(18) -0.34746(14)
Li1_2 Li 0.3192(4) -0.2117(4) -0.3125(3)
loop_
_geom_bond_atom_site_label_1
_geom_bond_atom_site_label_2
_geom_bond_site_symmetry_1
_geom_bond_site_symmetry_2
C1 C7 1_555 1_555
C2 O2 1_555 1_555
C3 O3 1_555 1_555
C4 O4 1_555 1_555
C5 O5 1_555 1_555
C6 O6 1_555 1_555
C7 C8 1_555 1_555
C8 H1 1_555 1_555
C9 C8 1_555 1_555
H2 C9 1_555 1_555
C10 C9 1_555 1_555
H3 C10 1_555 1_555
C11 C10 1_555 1_555
H4 C11 1_555 1_555
C12 C7 1_555 1_555
H5 C12 1_555 1_555
C13 H6 1_555 1_555
H7 C13 1_555 1_555
H8 C13 1_555 1_555
C14 H9 1_555 1_555
H10 C14 1_555 1_555
C15 C14 1_555 1_555
H11 C15 1_555 1_555
H12 C15 1_555 1_555
C16 H13 1_555 1_555
H14 C16 1_555 1_555
C17 C16 1_555 1_555
H15 C17 1_555 1_555
H16 C17 1_555 1_555
C18 H17 1_555 1_555
H18 C18 1_555 1_555
H19 C18 1_555 1_555
Li1 O1 1_555 1_555
O1 C1 1_555 1_555
O3 Li1_2 1_555 1_555
O7 C13 1_555 1_555
O8 C15 1_555 1_555
O9 C17 1_555 1_555
W1 C1 1_555 1_555
O3_2 Li1 1_555 1_555
C2 W1 1_555 1_555
C3 W1 1_555 1_555
C4 W1 1_555 1_555
C5 W1 1_555 1_555
C6 W1 1_555 1_555
C11 C12 1_555 1_555
C14 O7 1_555 1_555
C16 O8 1_555 1_555
C18 O9 1_555 1_555
Li1 O7 1_555 1_555
Li1 O9 1_555 1_555
Li1 O8 1_555 1_555

#END
