
#######################################################################
#
#                 Cambridge Crystallographic Data Centre
#                                CCDC 
#
#######################################################################
#
# If this CIF has been generated from an entry in the Cambridge 
# Structural Database, then it will include bibliographic, chemical, 
# crystal, experimental, refinement or atomic coordinate data resulting 
# from the CCDC's data processing and validation procedures.
#
#######################################################################

data_OLUNEO
_symmetry_cell_setting           orthorhombic
_symmetry_space_group_name_H-M   'I 2 2 2'
_symmetry_Int_Tables_number      23
_space_group_name_Hall           'I 2 2'
loop_
_symmetry_equiv_pos_site_id
_symmetry_equiv_pos_as_xyz
1 x,y,z
2 -x,-y,z
3 -x,y,-z
4 x,-y,-z
5 1/2+x,1/2+y,1/2+z
6 1/2-x,1/2-y,1/2+z
7 1/2-x,1/2+y,1/2-z
8 1/2+x,1/2-y,1/2-z
_cell_length_a                   11.534(2)
_cell_length_b                   14.485(3)
_cell_length_c                   21.033(4)
_cell_angle_alpha                90
_cell_angle_beta                 90
_cell_angle_gamma                90
_cell_volume                     3513.98
loop_
_atom_site_label
_atom_site_type_symbol
_atom_site_fract_x
_atom_site_fract_y
_atom_site_fract_z
Rh1 Rh 0.0000 -0.088700(19) 0.0000
N1 N -0.1167(4) -0.0802(4) -0.07350(18)
N2 N 0.1340(3) -0.0799(4) -0.06550(19)
N3 N 0.0000 0.3097(2) 0.0000
C1 C -0.1641(3) -0.0005(6) -0.08933(13)
H1 H -0.2231 -0.0012 -0.1195
C2 C -0.1521(4) -0.1560(2) -0.1131(2)
C3 C -0.1279(4) -0.1554(3) -0.17697(19)
H2 H -0.0854 -0.1069 -0.1941
C4 C -0.1659(4) -0.2263(3) -0.2165(2)
H3 H -0.1500 -0.2237 -0.2598
C5 C -0.2270(5) -0.3003(3) -0.1923(2)
C6 C -0.2504(6) -0.2996(4) -0.1284(3)
H4 H -0.2929 -0.3480 -0.1110
C7 C -0.2128(4) -0.2293(4) -0.0889(2)
H5 H -0.2289 -0.2319 -0.0456
C8 C -0.2734(6) -0.3765(4) -0.2355(3)
H6 H -0.3126 -0.4221 -0.2102
H7 H -0.2100 -0.4050 -0.2577
H8 H -0.3266 -0.3506 -0.2656
C9 C 0.2094(4) -0.1554(3) -0.07849(19)
C10 C 0.3243(4) -0.1526(3) -0.0623(2)
H9 H 0.3544 -0.0996 -0.0435
C11 C 0.3970(4) -0.2278(4) -0.0735(2)
H10 H 0.4751 -0.2241 -0.0629
C12 C 0.3543(5) -0.3071(3) -0.1000(3)
C13 C 0.2380(7) -0.3102(4) -0.1167(3)
H11 H 0.2075 -0.3637 -0.1347
C14 C 0.1662(4) -0.2341(4) -0.1068(2)
H12 H 0.0889 -0.2364 -0.1194
C15 C 0.4317(6) -0.3913(4) -0.1098(4)
H13 H 0.3880 -0.4395 -0.1299
H14 H 0.4596 -0.4125 -0.0694
H15 H 0.4963 -0.3747 -0.1362
C16 C 0.0000 0.2304(3) 0.0000
C17 C 0.0000 0.4067(3) 0.0000
C18 C -0.1033(3) 0.45180(18) 0.0001(4)
H16 H 0.1727 0.4191 -0.0004
Rh1A Rh 0.0000 0.088700(19) 0.0000
N1A N 0.1167(4) 0.0802(4) -0.07350(18)
C1A C 0.1641(3) 0.0005(6) -0.08933(13)
N2A N -0.1340(3) 0.0799(4) -0.06550(19)
N1C N -0.1167(4) 0.0802(4) 0.07350(18)
C1C C -0.1641(3) 0.0005(6) 0.08933(13)
N2B N -0.1340(3) -0.0799(4) 0.06550(19)
N1B N 0.1167(4) -0.0802(4) 0.07350(18)
C1B C 0.1641(3) -0.0005(6) 0.08933(13)
N2C N 0.1340(3) 0.0799(4) 0.06550(19)
C16A C 0.0000 -0.2304(3) 0.0000
C18C C -0.1033(3) 0.54820(18) -0.0001(4)
C17A C 0.0000 0.5933(3) 0.0000
N3A N 0.0000 0.6903(2) 0.0000
C16A_2 C 0.0000 0.7696(3) 0.0000
Rh1_2 Rh 0.0000 0.911300(19) 0.0000
C18A C 0.1033(3) 0.54820(18) 0.0001(4)
C18B C 0.1033(3) 0.45180(18) -0.0001(4)
H16C H 0.1727 0.5809 0.0004
H16A H -0.1727 0.5809 -0.0004
H16B H -0.1727 0.4191 0.0004
C9C C 0.2094(4) 0.1554(3) 0.07849(19)
C10C C 0.3243(4) 0.1526(3) 0.0623(2)
H9C H 0.3544 0.0996 0.0435
C11C C 0.3970(4) 0.2278(4) 0.0735(2)
H10C H 0.4751 0.2241 0.0629
C12C C 0.3543(5) 0.3071(3) 0.1000(3)
C13C C 0.2380(7) 0.3102(4) 0.1167(3)
H11C H 0.2075 0.3637 0.1347
C14C C 0.1662(4) 0.2341(4) 0.1068(2)
H12C H 0.0889 0.2364 0.1194
C15C C 0.4317(6) 0.3913(4) 0.1098(4)
H13C H 0.3880 0.4395 0.1299
H14C H 0.4596 0.4125 0.0694
H15C H 0.4963 0.3747 0.1362
H1B H 0.2231 -0.0012 0.1195
C2B C 0.1521(4) -0.1560(2) 0.1131(2)
C3B C 0.1279(4) -0.1554(3) 0.17697(19)
H2B H 0.0854 -0.1069 0.1941
C4B C 0.1659(4) -0.2263(3) 0.2165(2)
H3B H 0.1500 -0.2237 0.2598
C5B C 0.2270(5) -0.3003(3) 0.1923(2)
C6B C 0.2504(6) -0.2996(4) 0.1284(3)
H4B H 0.2929 -0.3480 0.1110
C7B C 0.2128(4) -0.2293(4) 0.0889(2)
H5B H 0.2289 -0.2319 0.0456
C8B C 0.2734(6) -0.3765(4) 0.2355(3)
H6B H 0.3126 -0.4221 0.2102
H7B H 0.2100 -0.4050 0.2577
H8B H 0.3266 -0.3506 0.2656
C9B C -0.2094(4) -0.1554(3) 0.07849(19)
C10B C -0.3243(4) -0.1526(3) 0.0623(2)
H9B H -0.3544 -0.0996 0.0435
C11B C -0.3970(4) -0.2278(4) 0.0735(2)
H10B H -0.4751 -0.2241 0.0629
C12B C -0.3543(5) -0.3071(3) 0.1000(3)
C13B C -0.2380(7) -0.3102(4) 0.1167(3)
H11B H -0.2075 -0.3637 0.1347
C14B C -0.1662(4) -0.2341(4) 0.1068(2)
H12B H -0.0889 -0.2364 0.1194
C15B C -0.4317(6) -0.3913(4) 0.1098(4)
H13B H -0.3880 -0.4395 0.1299
H14B H -0.4596 -0.4125 0.0694
H15B H -0.4963 -0.3747 0.1362
H1C H -0.2231 0.0012 0.1195
C2C C -0.1521(4) 0.1560(2) 0.1131(2)
C3C C -0.1279(4) 0.1554(3) 0.17697(19)
H2C H -0.0854 0.1069 0.1941
C4C C -0.1659(4) 0.2263(3) 0.2165(2)
H3C H -0.1500 0.2237 0.2598
C5C C -0.2270(5) 0.3003(3) 0.1923(2)
C6C C -0.2504(6) 0.2996(4) 0.1284(3)
H4C H -0.2929 0.3480 0.1110
C7C C -0.2128(4) 0.2293(4) 0.0889(2)
H5C H -0.2289 0.2319 0.0456
C8C C -0.2734(6) 0.3765(4) 0.2355(3)
H6C H -0.3126 0.4221 0.2102
H7C H -0.2100 0.4050 0.2577
H8C H -0.3266 0.3506 0.2656
C9A C -0.2094(4) 0.1554(3) -0.07849(19)
C10A C -0.3243(4) 0.1526(3) -0.0623(2)
H9A H -0.3544 0.0996 -0.0435
C11A C -0.3970(4) 0.2278(4) -0.0735(2)
H10A H -0.4751 0.2241 -0.0629
C12A C -0.3543(5) 0.3071(3) -0.1000(3)
C13A C -0.2380(7) 0.3102(4) -0.1167(3)
H11A H -0.2075 0.3637 -0.1347
C14A C -0.1662(4) 0.2341(4) -0.1068(2)
H12A H -0.0889 0.2364 -0.1194
C15A C -0.4317(6) 0.3913(4) -0.1098(4)
H13A H -0.3880 0.4395 -0.1299
H14A H -0.4596 0.4125 -0.0694
H15A H -0.4963 0.3747 -0.1362
H1A H 0.2231 0.0012 -0.1195
C2A C 0.1521(4) 0.1560(2) -0.1131(2)
C3A C 0.1279(4) 0.1554(3) -0.17697(19)
H2A H 0.0854 0.1069 -0.1941
C4A C 0.1659(4) 0.2263(3) -0.2165(2)
H3A H 0.1500 0.2237 -0.2598
C5A C 0.2270(5) 0.3003(3) -0.1923(2)
C6A C 0.2504(6) 0.2996(4) -0.1284(3)
H4A H 0.2929 0.3480 -0.1110
C7A C 0.2128(4) 0.2293(4) -0.0889(2)
H5A H 0.2289 0.2319 -0.0456
C8A C 0.2734(6) 0.3765(4) -0.2355(3)
H6A H 0.3126 0.4221 -0.2102
H7A H 0.2100 0.4050 -0.2577
H8A H 0.3266 0.3506 -0.2656
C19 C 0.5000 0.0000 -0.1719(6)
H17 H 0.5000 0.0000 -0.1277
C20 C 0.5384(7) -0.0720(6) -0.2019(7)
H18 H 0.5661 -0.1224 -0.1792
C21 C 0.5382(10) -0.0737(9) -0.2638(7)
H19 H 0.5647 -0.1263 -0.2846
C22 C 0.5000 0.0000 -0.2996(7)
H20 H 0.5000 0.0000 -0.3438
C21A C 0.4618(10) 0.0737(9) -0.2638(7)
C20A C 0.4616(7) 0.0720(6) -0.2019(7)
H18A H 0.4339 0.1224 -0.1792
H19A H 0.4353 0.1263 -0.2846
loop_
_geom_bond_atom_site_label_1
_geom_bond_atom_site_label_2
_geom_bond_site_symmetry_1
_geom_bond_site_symmetry_2
Rh1 N1 1_555 1_555
N1 C1 1_555 1_555
N2 Rh1 1_555 1_555
N3 C16 1_555 1_555
C1 H1 1_555 1_555
C2 N1 1_555 1_555
C3 C2 1_555 1_555
H2 C3 1_555 1_555
C4 C3 1_555 1_555
H3 C4 1_555 1_555
C5 C4 1_555 1_555
C6 C5 1_555 1_555
H4 C6 1_555 1_555
C7 C2 1_555 1_555
H5 C7 1_555 1_555
C8 C5 1_555 1_555
H6 C8 1_555 1_555
H7 C8 1_555 1_555
H8 C8 1_555 1_555
C9 N2 1_555 1_555
C10 C9 1_555 1_555
H9 C10 1_555 1_555
C11 C10 1_555 1_555
H10 C11 1_555 1_555
C12 C11 1_555 1_555
C13 C12 1_555 1_555
H11 C13 1_555 1_555
C14 C9 1_555 1_555
H12 C14 1_555 1_555
C15 C12 1_555 1_555
H13 C15 1_555 1_555
H14 C15 1_555 1_555
H15 C15 1_555 1_555
C16 Rh1A 1_555 1_555
C17 N3 1_555 1_555
C18 C17 1_555 1_555
H16 C18B 1_555 1_555
C19 H17 1_555 1_555
C20 C19 1_555 1_555
H18 C20 1_555 1_555
C21 C20 1_555 1_555
H19 C21 1_555 1_555
C22 C21 1_555 1_555
H20 C22 1_555 1_555
Rh1A Rh1 1_555 1_555
N1A Rh1A 1_555 1_555
C1A N2 1_555 1_555
N2A C1 1_555 1_555
N1C Rh1A 1_555 1_555
C1C N1C 1_555 1_555
N2B Rh1 1_555 1_555
N1B Rh1 1_555 1_555
C1B N1B 1_555 1_555
N2C Rh1A 1_555 1_555
C16A Rh1 1_555 1_555
C18C C18 1_555 1_555
C17A C18C 1_555 1_555
N3A C17A 1_555 1_555
C16A_2 N3A 1_555 1_555
Rh1_2 C16A_2 1_555 1_555
C18A C17A 1_555 1_555
C18B C17 1_555 1_555
H16C C18A 1_555 1_555
H16A C18C 1_555 1_555
H16B C18 1_555 1_555
C9C N2C 1_555 1_555
C10C C9C 1_555 1_555
H9C C10C 1_555 1_555
C11C C10C 1_555 1_555
H10C C11C 1_555 1_555
C12C C11C 1_555 1_555
C13C C12C 1_555 1_555
H11C C13C 1_555 1_555
C14C C9C 1_555 1_555
H12C C14C 1_555 1_555
C15C C12C 1_555 1_555
H13C C15C 1_555 1_555
H14C C15C 1_555 1_555
H15C C15C 1_555 1_555
H1B C1B 1_555 1_555
C2B N1B 1_555 1_555
C3B C2B 1_555 1_555
H2B C3B 1_555 1_555
C4B C3B 1_555 1_555
H3B C4B 1_555 1_555
C5B C4B 1_555 1_555
C6B C5B 1_555 1_555
H4B C6B 1_555 1_555
C7B C2B 1_555 1_555
H5B C7B 1_555 1_555
C8B C5B 1_555 1_555
H6B C8B 1_555 1_555
H7B C8B 1_555 1_555
H8B C8B 1_555 1_555
C9B N2B 1_555 1_555
C10B C9B 1_555 1_555
H9B C10B 1_555 1_555
C11B C10B 1_555 1_555
H10B C11B 1_555 1_555
C12B C11B 1_555 1_555
C13B C12B 1_555 1_555
H11B C13B 1_555 1_555
C14B C9B 1_555 1_555
H12B C14B 1_555 1_555
C15B C12B 1_555 1_555
H13B C15B 1_555 1_555
H14B C15B 1_555 1_555
H15B C15B 1_555 1_555
H1C C1C 1_555 1_555
C2C N1C 1_555 1_555
C3C C2C 1_555 1_555
H2C C3C 1_555 1_555
C4C C3C 1_555 1_555
H3C C4C 1_555 1_555
C5C C4C 1_555 1_555
C6C C5C 1_555 1_555
H4C C6C 1_555 1_555
C7C C2C 1_555 1_555
H5C C7C 1_555 1_555
C8C C5C 1_555 1_555
H6C C8C 1_555 1_555
H7C C8C 1_555 1_555
H8C C8C 1_555 1_555
C9A N2A 1_555 1_555
C10A C9A 1_555 1_555
H9A C10A 1_555 1_555
C11A C10A 1_555 1_555
H10A C11A 1_555 1_555
C12A C11A 1_555 1_555
C13A C12A 1_555 1_555
H11A C13A 1_555 1_555
C14A C9A 1_555 1_555
H12A C14A 1_555 1_555
C15A C12A 1_555 1_555
H13A C15A 1_555 1_555
H14A C15A 1_555 1_555
H15A C15A 1_555 1_555
H1A C1A 1_555 1_555
C2A N1A 1_555 1_555
C3A C2A 1_555 1_555
H2A C3A 1_555 1_555
C4A C3A 1_555 1_555
H3A C4A 1_555 1_555
C5A C4A 1_555 1_555
C6A C5A 1_555 1_555
H4A C6A 1_555 1_555
C7A C2A 1_555 1_555
H5A C7A 1_555 1_555
C8A C5A 1_555 1_555
H6A C8A 1_555 1_555
H7A C8A 1_555 1_555
H8A C8A 1_555 1_555
C21A C22 1_555 1_555
C20A C19 1_555 1_555
H18A C20A 1_555 1_555
H19A C21A 1_555 1_555
C6 C7 1_555 1_555
C13 C14 1_555 1_555
Rh1A N2A 1_555 1_555
N1A C1A 1_555 1_555
C1C N2B 1_555 1_555
C1B N2C 1_555 1_555
C18A C18B 1_555 1_555
C13C C14C 1_555 1_555
C6B C7B 1_555 1_555
C13B C14B 1_555 1_555
C6C C7C 1_555 1_555
C13A C14A 1_555 1_555
C6A C7A 1_555 1_555
C21A C20A 1_555 1_555

#END
