
#######################################################################
#
#                 Cambridge Crystallographic Data Centre
#                                CCDC 
#
#######################################################################
#
# If this CIF has been generated from an entry in the Cambridge 
# Structural Database, then it will include bibliographic, chemical, 
# crystal, experimental, refinement or atomic coordinate data resulting 
# from the CCDC's data processing and validation procedures.
#
#######################################################################

data_OLUROC
_symmetry_cell_setting           rhombohedral
_symmetry_space_group_name_H-M   'R -3 c'
_symmetry_Int_Tables_number      167
_space_group_name_Hall           '-R 3 2"c'
loop_
_symmetry_equiv_pos_site_id
_symmetry_equiv_pos_as_xyz
1 x,y,z
2 -y,x-y,z
3 -x+y,-x,z
4 y,x,1/2-z
5 2/3+x,1/3+y,1/3+z
6 2/3-y,1/3+x-y,1/3+z
7 2/3-x+y,1/3-x,1/3+z
8 2/3+y,1/3+x,5/6-z
9 1/3+x,2/3+y,2/3+z
10 1/3+y,2/3+x,1/6-z
11 -x+y,y,1/2+z
12 x,x-y,1/2+z
13 2/3+y,1/3-x+y,1/3-z
14 2/3+x-y,1/3+x,1/3-z
15 2/3-x+y,1/3+y,5/6+z
16 2/3+x,1/3+x-y,5/6+z
17 1/3-x+y,2/3+y,1/6+z
18 1/3+x,2/3+x-y,1/6+z
19 -x,-y,-z
20 y,-x+y,-z
21 x-y,x,-z
22 -y,-x,1/2+z
23 1/3-x,2/3-y,2/3-z
24 1/3+y,2/3-x+y,2/3-z
25 1/3+x-y,2/3+x,2/3-z
26 1/3-y,2/3-x,1/6+z
27 2/3-x,1/3-y,1/3-z
28 2/3-y,1/3-x,5/6+z
29 x-y,-y,1/2-z
30 -x,-x+y,1/2-z
31 1/3-y,2/3+x-y,2/3+z
32 1/3-x+y,2/3-x,2/3+z
33 1/3+x-y,2/3-y,1/6-z
34 1/3-x,2/3-x+y,1/6-z
35 2/3+x-y,1/3-y,5/6-z
36 2/3-x,1/3-x+y,5/6-z
_cell_length_a                   17.7099(14)
_cell_length_b                   17.7099(14)
_cell_length_c                   32.977(3)
_cell_angle_alpha                90
_cell_angle_beta                 90
_cell_angle_gamma                120.00
_cell_volume                     8957.24
loop_
_atom_site_label
_atom_site_type_symbol
_atom_site_fract_x
_atom_site_fract_y
_atom_site_fract_z
In1 In 0.00534(2) -0.32799(2) 0.0833
C1 C 0.1286(3) -0.2474(3) 0.00858(11)
C2 C 0.1823(3) -0.2333(3) -0.02461(14)
C3 C 0.1554(4) -0.3723(3) -0.01995(16)
H1 H 0.1618 -0.4180 -0.0299
C4 C 0.1030(3) -0.3874(3) 0.01361(14)
H2 H 0.0767 -0.4417 0.0262
C5 C 0.2307(4) -0.1481(3) -0.04690(15)
C6 C 0.1105(3) -0.1785(3) 0.02477(13)
N1 N 0.0899(2) -0.3245(2) 0.02796(10)
N2 N 0.1973(3) -0.2956(3) -0.03879(12)
O1 O 0.05791(19) -0.20037(19) 0.05449(9)
O2 O 0.3071(3) -0.0960(2) -0.03601(12)
O3 O 0.3308(3) 0.1973(3) 0.07638(10)
O4 O 0.1471(2) -0.1072(2) 0.00841(11)
O2P O -0.0698(4) -0.4293(2) 0.13066(12)
In1N In 0.33334(3) 0.00534(2) -0.0834
N1N N 0.2523(3) 0.0088(2) -0.13871(10)
C1N C 0.2907(4) 0.0859(3) -0.15809(11)
C2N C 0.2511(4) 0.1000(3) -0.19128(14)
C5N C 0.2879(5) 0.1852(3) -0.21357(15)
O2N O 0.2636(4) 0.2373(2) -0.20268(12)
In1G In 0.33868(2) 0.33867(2) -0.2500
N1H N 0.4232(2) 0.3422(2) -0.30537(10)
N1G N 0.3422(2) 0.4232(2) -0.19463(10)
C1G C 0.4193(3) 0.4619(3) -0.17525(11)
C2G C 0.4334(3) 0.5156(3) -0.14206(14)
C5G C 0.5186(3) 0.5640(4) -0.11977(15)
O2G O 0.5707(2) 0.6404(3) -0.13066(12)
In1O In 0.67201(2) 0.66666(3) -0.0834
In1DA In 0.66132(2) -0.00000(3) -0.2500
N1IA N 0.5768(2) -0.0811(3) -0.19463(10)
C1IA C 0.5381(3) -0.0427(4) -0.17525(11)
C2IA C 0.4844(3) -0.0823(4) -0.14206(14)
C5IA C 0.4360(4) -0.0455(5) -0.11977(15)
O2IA O 0.3596(3) -0.0698(4) -0.13066(12)
N1T N 0.4144(3) 0.0899(2) -0.02796(10)
C1T C 0.3760(4) 0.1286(3) -0.00858(11)
C2T C 0.4156(4) 0.1823(3) 0.02461(14)
C5T C 0.3788(5) 0.2307(4) 0.04690(15)
O2T O 0.4031(4) 0.3071(3) 0.03601(12)
In1A In 0.32799(2) 0.33333(3) 0.0833
O3GA O 0.0025(3) -0.4668(4) 0.09029(10)
N2T N 0.4929(4) 0.1973(3) 0.03879(12)
C3T C 0.5277(5) 0.1554(4) 0.01995(16)
H1T H 0.5798 0.1618 0.0299
C4T C 0.4904(4) 0.1030(3) -0.01361(14)
H2T H 0.5184 0.0767 -0.0262
C6T C 0.2890(4) 0.1105(3) -0.02477(13)
O1T O 0.25828(27) 0.05791(19) -0.05449(9)
O1N O 0.40839(27) 0.13296(19) -0.11218(9)
C6N C 0.3777(4) 0.1548(3) -0.14190(13)
O4N O 0.4124(3) 0.2261(2) -0.15826(11)
O3S O 0.1973(3) -0.1335(4) -0.07638(10)
O3AA O 0.4694(3) 0.0025(3) -0.09029(10)
O4T O 0.2543(3) 0.1471(2) -0.00841(11)
N2IA N 0.4694(3) -0.1596(4) -0.12788(12)
C3IA C 0.5113(4) -0.1944(5) -0.14672(16)
H1IA H 0.5049 -0.2465 -0.1368
C4IA C 0.5637(3) -0.1571(4) -0.18028(14)
H2IA H 0.5900 -0.1851 -0.1929
C6IA C 0.5562(3) 0.0443(4) -0.19144(13)
O1IA O 0.60876(19) 0.07505(27) -0.22116(9)
O3N O 0.5332(4) 0.5306(3) -0.09029(10)
N2G N 0.3711(3) 0.5306(3) -0.12788(12)
C3G C 0.2944(3) 0.4887(4) -0.14672(16)
H1G H 0.2487 0.4951 -0.1368
C4G C 0.2793(3) 0.4363(3) -0.18028(14)
H2G H 0.2250 0.4100 -0.1929
C6G C 0.4882(3) 0.4438(3) -0.19144(13)
O1H O 0.39124(19) 0.46630(19) -0.27884(9)
O1G O 0.46630(19) 0.39124(19) -0.22116(9)
O2W O 0.2373(2) 0.2636(4) -0.29732(12)
O3IA O 0.3359(3) 0.1998(4) -0.24305(10)
O3EA O 0.1998(4) 0.3359(3) -0.25695(10)
N2N N 0.1738(4) 0.0377(3) -0.20546(12)
C3N C 0.1390(5) -0.0390(3) -0.18662(16)
H1N H 0.0869 -0.0847 -0.1966
C4N C 0.1763(4) -0.0541(3) -0.15306(14)
H2N H 0.1483 -0.1084 -0.1405
N1I N 0.0088(2) -0.2434(2) 0.13871(10)
O1I O 0.13296(19) -0.27542(19) 0.11218(9)
O2S O -0.0960(2) -0.4031(4) 0.03601(12)
O3B O -0.1335(4) -0.3308(3) 0.07638(10)
O4IA O 0.5196(2) 0.0790(3) -0.17508(11)
O4G O 0.5595(2) 0.4804(2) -0.17508(11)
C1H C 0.4619(3) 0.4193(3) -0.32475(11)
C4H C 0.4363(3) 0.2793(3) -0.31972(14)
C6H C 0.4438(3) 0.4882(3) -0.30856(13)
C2H C 0.5156(3) 0.4334(3) -0.35794(14)
C3H C 0.4887(4) 0.2944(3) -0.35328(16)
H2H H 0.4100 0.2250 -0.3071
O4H O 0.4804(2) 0.5595(2) -0.32492(11)
C5H C 0.5640(4) 0.5186(3) -0.38023(15)
N2H N 0.5306(3) 0.3711(3) -0.37212(12)
H1H H 0.4951 0.2487 -0.3632
O2H O 0.6404(3) 0.5707(2) -0.36934(12)
O3W O 0.5306(3) 0.5332(4) -0.40971(10)
In1J In 0.66667(3) 0.67201(2) -0.4167
Cr1 Cr 0.0000 -1.0000 -1.0000
O5 O 0.10660(19) -0.94270(19) -0.96433(9)
O5A O -0.05730(19) -0.95070(27) -0.96433(9)
O5B O -0.04930(27) -1.10660(19) -0.96433(9)
O5R O -0.10660(19) -1.05730(19) -1.03567(9)
O5S O 0.05730(19) -1.04930(27) -1.03567(9)
O5T O 0.04930(27) -0.89340(19) -1.03567(9)
O6 O 0.1112(2) -0.0368(2) -0.90454(11)
O7 O 0.3333 -0.3333 -0.9772(4)
O9 O 0.2832(4) -0.9873(4) -0.8870(2)
In2? In 0.0000 -1.0000 -1.0000
O8? O 0.3333 -0.3333 -0.0658(5)
loop_
_geom_bond_atom_site_label_1
_geom_bond_atom_site_label_2
_geom_bond_site_symmetry_1
_geom_bond_site_symmetry_2
In1 N1 1_555 1_555
C1 C2 1_555 1_555
C2 C5 1_555 1_555
C3 H1 1_555 1_555
C4 C3 1_555 1_555
H2 C4 1_555 1_555
C5 O2 1_555 1_555
C6 C1 1_555 1_555
N1 C1 1_555 1_555
N2 C2 1_555 1_555
O1 In1 1_555 1_555
O2 In1N 1_555 1_555
O3 C5T 1_555 1_555
O4 C6 1_555 1_555
Cr1 O5 1_555 1_555
O2P In1 1_555 1_555
In1N N1N 1_555 1_555
N1N C1N 1_555 1_555
C1N C2N 1_555 1_555
C2N C5N 1_555 1_555
C5N O2N 1_555 1_555
O2N In1G 1_555 1_555
In1G N1H 1_555 1_555
N1H C1H 1_555 1_555
N1G In1G 1_555 1_555
C1G N1G 1_555 1_555
C2G C1G 1_555 1_555
C5G C2G 1_555 1_555
O2G C5G 1_555 1_555
In1O O2G 1_555 1_555
In1DA N1IA 1_555 1_555
N1IA C1IA 1_555 1_555
C1IA C2IA 1_555 1_555
C2IA C5IA 1_555 1_555
C5IA O2IA 1_555 1_555
O2IA In1N 1_555 1_555
N1T In1N 1_555 1_555
C1T N1T 1_555 1_555
C2T C1T 1_555 1_555
C5T C2T 1_555 1_555
O2T C5T 1_555 1_555
In1A O3 1_555 1_555
O3GA In1 1_555 1_555
N2T C2T 1_555 1_555
C3T N2T 1_555 1_555
H1T C3T 1_555 1_555
C4T N1T 1_555 1_555
H2T C4T 1_555 1_555
C6T C1T 1_555 1_555
O1T In1N 1_555 1_555
O1N In1N 1_555 1_555
C6N C1N 1_555 1_555
O4N C6N 1_555 1_555
O3S C5 1_555 1_555
O3AA In1N 1_555 1_555
O4T C6T 1_555 1_555
N2IA C2IA 1_555 1_555
C3IA N2IA 1_555 1_555
H1IA C3IA 1_555 1_555
C4IA N1IA 1_555 1_555
H2IA C4IA 1_555 1_555
C6IA C1IA 1_555 1_555
O1IA In1DA 1_555 1_555
O3N C5G 1_555 1_555
N2G C2G 1_555 1_555
C3G N2G 1_555 1_555
H1G C3G 1_555 1_555
C4G N1G 1_555 1_555
H2G C4G 1_555 1_555
C6G C1G 1_555 1_555
O1H In1G 1_555 1_555
O1G In1G 1_555 1_555
O2W In1G 1_555 1_555
O3IA C5N 1_555 1_555
O3EA In1G 1_555 1_555
N2N C2N 1_555 1_555
C3N N2N 1_555 1_555
H1N C3N 1_555 1_555
C4N N1N 1_555 1_555
H2N C4N 1_555 1_555
N1I In1 1_555 1_555
O1I In1 1_555 1_555
O2S In1 1_555 1_555
O3B In1 1_555 1_555
O5A Cr1 1_555 1_555
O5B Cr1 1_555 1_555
O5R Cr1 1_555 1_555
O5S Cr1 1_555 1_555
O5T Cr1 1_555 1_555
O4IA C6IA 1_555 1_555
O4G C6G 1_555 1_555
C1H C6H 1_555 1_555
C4H N1H 1_555 1_555
C6H O1H 1_555 1_555
C2H C1H 1_555 1_555
C3H C4H 1_555 1_555
H2H C4H 1_555 1_555
O4H C6H 1_555 1_555
C5H C2H 1_555 1_555
N2H C2H 1_555 1_555
H1H C3H 1_555 1_555
O2H C5H 1_555 1_555
O3W C5H 1_555 1_555
In1J O2H 1_555 1_555
C3 N2 1_555 1_555
C4 N1 1_555 1_555
C6 O1 1_555 1_555
In1N O3S 1_555 1_555
In1G O3IA 1_555 1_555
In1O O3N 1_555 1_555
C5IA O3AA 1_555 1_555
O2T In1A 1_555 1_555
C3T C4T 1_555 1_555
C6T O1T 1_555 1_555
O1N C6N 1_555 1_555
C3IA C4IA 1_555 1_555
C6IA O1IA 1_555 1_555
C3G C4G 1_555 1_555
C6G O1G 1_555 1_555
C3N C4N 1_555 1_555
C3H N2H 1_555 1_555
O3W In1J 1_555 1_555

#END
