
#######################################################################
#
#                 Cambridge Crystallographic Data Centre
#                                CCDC 
#
#######################################################################
#
# If this CIF has been generated from an entry in the Cambridge 
# Structural Database, then it will include bibliographic, chemical, 
# crystal, experimental, refinement or atomic coordinate data resulting 
# from the CCDC's data processing and validation procedures.
#
#######################################################################

data_OLUTAR
_symmetry_cell_setting           monoclinic
_symmetry_space_group_name_H-M   'P 21/n'
_symmetry_Int_Tables_number      14
_space_group_name_Hall           '-P 2yn'
loop_
_symmetry_equiv_pos_site_id
_symmetry_equiv_pos_as_xyz
1 x,y,z
2 1/2-x,1/2+y,1/2-z
3 -x,-y,-z
4 1/2+x,1/2-y,1/2+z
_cell_length_a                   11.6537(4)
_cell_length_b                   27.6665(9)
_cell_length_c                   12.1243(4)
_cell_angle_alpha                90
_cell_angle_beta                 96.479(2)
_cell_angle_gamma                90
_cell_volume                     3884.12
loop_
_atom_site_label
_atom_site_type_symbol
_atom_site_fract_x
_atom_site_fract_y
_atom_site_fract_z
Re1 Re 0.279143(16) 0.355933(6) 0.211500(15)
P1 P 0.38960(10) 0.41267(4) 0.10679(9)
Na1 Na 0.64741(15) 0.27399(6) 0.43900(14)
O1 O 0.1769(3) 0.28470(11) 0.3710(3)
O2 O 0.2932(3) 0.27145(11) 0.0519(3)
O3 O 0.0356(3) 0.38078(11) 0.0909(3)
O4 O 0.3087(2) 0.41608(9) 0.3308(2)
O5 O 0.5107(3) 0.32324(10) 0.3579(3)
O6 O 0.7883(3) 0.32437(11) 0.3973(3)
O7 O 0.5498(3) 0.26723(12) 0.5948(3)
O8 O 0.6166(3) 0.21451(12) 0.3094(3)
B1 B 0.3159(4) 0.46960(17) 0.2878(4)
C1 C 0.2111(4) 0.31265(16) 0.3114(4)
C2 C 0.2868(4) 0.30456(17) 0.1151(4)
C3 C 0.1287(4) 0.37311(14) 0.1342(4)
C4 C 0.4114(4) 0.39625(15) 0.3914(3)
H1 H 0.3990 0.3888 0.4690
H2 H 0.4775 0.4187 0.3914
C5 C 0.4310(3) 0.35012(16) 0.3262(3)
C6 C 0.3635(4) 0.50590(14) 0.3874(3)
H3 H 0.4443 0.4962 0.4150
C7 C 0.2884(4) 0.50035(15) 0.4840(3)
H4 H 0.3001 0.4675 0.5156
H5 H 0.3158 0.5237 0.5430
C8 C 0.1586(4) 0.50827(16) 0.4518(3)
H6 H 0.1162 0.4965 0.5128
H7 H 0.1436 0.5434 0.4434
C9 C 0.1113(3) 0.48259(15) 0.3438(3)
H8 H 0.0338 0.4958 0.3189
H9 H 0.1018 0.4479 0.3602
C10 C 0.1866(3) 0.48708(14) 0.2473(3)
H10 H 0.1538 0.4651 0.1863
C11 C 0.1898(4) 0.53863(14) 0.1999(3)
H11 H 0.1094 0.5497 0.1794
H12 H 0.2279 0.5375 0.1310
C12 C 0.2526(3) 0.57614(14) 0.2784(3)
H13 H 0.2696 0.6049 0.2346
H14 H 0.2003 0.5864 0.3329
C13 C 0.3662(4) 0.55770(14) 0.3419(3)
H15 H 0.3883 0.5798 0.4049
H16 H 0.4275 0.5595 0.2917
C14 C 0.4076(3) 0.46705(13) 0.1916(3)
H17 H 0.4878 0.4682 0.2286
H18 H 0.3958 0.4957 0.1428
C15 C 0.3261(3) 0.43266(13) -0.0311(3)
C16 C 0.2177(4) 0.45461(14) -0.0425(3)
H19 H 0.1782 0.4587 0.0213
C17 C 0.1664(4) 0.47049(14) -0.1441(3)
H20 H 0.0926 0.4854 -0.1500
C18 C 0.2232(4) 0.46455(15) -0.2375(4)
H21 H 0.1883 0.4752 -0.3078
C19 C 0.3298(4) 0.44320(15) -0.2281(4)
H22 H 0.3686 0.4391 -0.2923
C20 C 0.3820(4) 0.42748(14) -0.1255(3)
H23 H 0.4564 0.4131 -0.1200
C21 C 0.5324(4) 0.39220(14) 0.0788(3)
C22 C 0.5499(4) 0.34430(14) 0.0507(3)
H24 H 0.4880 0.3219 0.0502
C23 C 0.6553(4) 0.32860(16) 0.0234(4)
H25 H 0.6648 0.2958 0.0030
C24 C 0.7467(4) 0.36016(17) 0.0256(3)
H26 H 0.8196 0.3492 0.0076
C25 C 0.7316(4) 0.40771(15) 0.0540(3)
H27 H 0.7944 0.4297 0.0561
C26 C 0.6256(4) 0.42356(15) 0.0794(3)
H28 H 0.6160 0.4566 0.0977
C27 C 0.7608(4) 0.37204(15) 0.3542(4)
H29 H 0.7200 0.3907 0.4075
H30 H 0.7102 0.3699 0.2831
C28 C 0.8725(4) 0.39633(16) 0.3369(4)
H31 H 0.8717 0.4309 0.3580
H32 H 0.8887 0.3936 0.2587
C29 C 0.9603(4) 0.36796(15) 0.4144(4)
H33 H 1.0384 0.3696 0.3899
H34 H 0.9635 0.3796 0.4919
C30 C 0.9110(4) 0.31795(17) 0.4022(4)
H35 H 0.9316 0.3025 0.3334
H36 H 0.9401 0.2976 0.4664
C31 C 0.5637(5) 0.30520(19) 0.6746(5)
H37 H 0.5718 0.3367 0.6375
H38 H 0.6334 0.2996 0.7277
C32 C 0.4576(5) 0.30495(19) 0.7340(5)
H39 H 0.4368 0.3381 0.7555
H40 H 0.4684 0.2844 0.8011
C33 C 0.3673(5) 0.2842(2) 0.6483(5)
H41 H 0.3056 0.2676 0.6836
H42 H 0.3323 0.3096 0.5976
C34 C 0.4357(4) 0.24925(18) 0.5885(4)
H43 H 0.4351 0.2170 0.6236
H44 H 0.4022 0.2463 0.5101
C35 C 0.5277(5) 0.2215(2) 0.2158(5)
H45 H 0.4970 0.2549 0.2145
H46 H 0.5584 0.2149 0.1445
C36 C 0.4400(4) 0.18703(18) 0.2359(5)
H47 H 0.3902 0.1788 0.1669
H48 H 0.3915 0.1989 0.2922
C37 C 0.5149(5) 0.1438(2) 0.2794(5)
H49 H 0.4805 0.1275 0.3406
H50 H 0.5212 0.1201 0.2193
C38 C 0.6281(5) 0.16334(16) 0.3192(4)
H51 H 0.6506 0.1540 0.3974
H52 H 0.6873 0.1513 0.2734
Na1C Na 0.14741(15) 0.22601(6) -0.06100(14)
O2C O 0.7932(3) 0.22855(11) 0.5519(3)
loop_
_geom_bond_atom_site_label_1
_geom_bond_atom_site_label_2
_geom_bond_site_symmetry_1
_geom_bond_site_symmetry_2
Re1 P1 1_555 1_555
P1 C14 1_555 1_555
Na1 O5 1_555 1_555
O1 C1 1_555 1_555
O2 C2 1_555 1_555
O3 C3 1_555 1_555
O4 Re1 1_555 1_555
O5 C5 1_555 1_555
O6 Na1 1_555 1_555
O7 Na1 1_555 1_555
O8 Na1 1_555 1_555
B1 O4 1_555 1_555
C1 Re1 1_555 1_555
C2 Re1 1_555 1_555
C3 Re1 1_555 1_555
C4 O4 1_555 1_555
H1 C4 1_555 1_555
H2 C4 1_555 1_555
C5 Re1 1_555 1_555
C6 B1 1_555 1_555
H3 C6 1_555 1_555
C7 C6 1_555 1_555
H4 C7 1_555 1_555
H5 C7 1_555 1_555
C8 C7 1_555 1_555
H6 C8 1_555 1_555
H7 C8 1_555 1_555
C9 C8 1_555 1_555
H8 C9 1_555 1_555
H9 C9 1_555 1_555
C10 B1 1_555 1_555
H10 C10 1_555 1_555
C11 C10 1_555 1_555
H11 C11 1_555 1_555
H12 C11 1_555 1_555
C12 C11 1_555 1_555
H13 C12 1_555 1_555
H14 C12 1_555 1_555
C13 C6 1_555 1_555
H15 C13 1_555 1_555
H16 C13 1_555 1_555
C14 B1 1_555 1_555
H17 C14 1_555 1_555
H18 C14 1_555 1_555
C15 P1 1_555 1_555
C16 C15 1_555 1_555
H19 C16 1_555 1_555
C17 C16 1_555 1_555
H20 C17 1_555 1_555
C18 C17 1_555 1_555
H21 C18 1_555 1_555
C19 C18 1_555 1_555
H22 C19 1_555 1_555
C20 C15 1_555 1_555
H23 C20 1_555 1_555
C21 P1 1_555 1_555
C22 C21 1_555 1_555
H24 C22 1_555 1_555
C23 C22 1_555 1_555
H25 C23 1_555 1_555
C24 C23 1_555 1_555
H26 C24 1_555 1_555
C25 C24 1_555 1_555
H27 C25 1_555 1_555
C26 C21 1_555 1_555
H28 C26 1_555 1_555
C27 O6 1_555 1_555
H29 C27 1_555 1_555
H30 C27 1_555 1_555
C28 C27 1_555 1_555
H31 C28 1_555 1_555
H32 C28 1_555 1_555
C29 C28 1_555 1_555
H33 C29 1_555 1_555
H34 C29 1_555 1_555
C30 O6 1_555 1_555
H35 C30 1_555 1_555
H36 C30 1_555 1_555
C31 O7 1_555 1_555
H37 C31 1_555 1_555
H38 C31 1_555 1_555
C32 C31 1_555 1_555
H39 C32 1_555 1_555
H40 C32 1_555 1_555
C33 C32 1_555 1_555
H41 C33 1_555 1_555
H42 C33 1_555 1_555
C34 O7 1_555 1_555
H43 C34 1_555 1_555
H44 C34 1_555 1_555
C35 O8 1_555 1_555
H45 C35 1_555 1_555
H46 C35 1_555 1_555
C36 C35 1_555 1_555
H47 C36 1_555 1_555
H48 C36 1_555 1_555
C37 C36 1_555 1_555
H49 C37 1_555 1_555
H50 C37 1_555 1_555
C38 O8 1_555 1_555
H51 C38 1_555 1_555
H52 C38 1_555 1_555
Na1C O2 1_555 1_555
O2C Na1 1_555 1_555
C4 C5 1_555 1_555
C9 C10 1_555 1_555
C12 C13 1_555 1_555
C19 C20 1_555 1_555
C25 C26 1_555 1_555
C29 C30 1_555 1_555
C33 C34 1_555 1_555
C37 C38 1_555 1_555

#END
