
#######################################################################
#
#                 Cambridge Crystallographic Data Centre
#                                CCDC 
#
#######################################################################
#
# If this CIF has been generated from an entry in the Cambridge 
# Structural Database, then it will include bibliographic, chemical, 
# crystal, experimental, refinement or atomic coordinate data resulting 
# from the CCDC's data processing and validation procedures.
#
#######################################################################

data_OLUTEV
_symmetry_cell_setting           orthorhombic
_symmetry_space_group_name_H-M   'C m c a'
_symmetry_Int_Tables_number      64
_space_group_name_Hall           '-C 2bc 2'
loop_
_symmetry_equiv_pos_site_id
_symmetry_equiv_pos_as_xyz
1 x,y,z
2 1/2-x,-y,1/2+z
3 x,-y,-z
4 1/2-x,y,1/2-z
5 1/2+x,1/2+y,z
6 -x,1/2-y,1/2+z
7 1/2+x,1/2-y,-z
8 -x,1/2+y,1/2-z
9 -x,-y,-z
10 1/2+x,y,1/2-z
11 -x,y,z
12 1/2+x,-y,1/2+z
13 1/2-x,1/2-y,-z
14 x,1/2+y,1/2-z
15 1/2-x,1/2+y,z
16 x,1/2-y,1/2+z
_cell_length_a                   11.724(2)
_cell_length_b                   12.829(2)
_cell_length_c                   11.745(2)
_cell_angle_alpha                90
_cell_angle_beta                 90
_cell_angle_gamma                90
_cell_volume                     1766.53
loop_
_atom_site_label
_atom_site_type_symbol
_atom_site_fract_x
_atom_site_fract_y
_atom_site_fract_z
C1 C 0.1007(5) 0.2672(4) 0.8539(4)
H1 H 0.1689 0.2245 0.8575
H2 H 0.1020 0.3150 0.9179
C2 C 0.0000 0.1306(6) 0.7637(6)
H3 H -0.0670 0.0863 0.7667
C3 C 0.0000 0.1929(6) 0.6506(6)
H4 H 0.0669 0.1742 0.6066
C4 C 0.1002(4) 0.3298(4) 0.7415(4)
H5 H 0.1008 0.4037 0.7589
H6 H 0.1690 0.3139 0.6990
N1 N 0.0000 0.2007(4) 0.8616(4)
N2 N 0.0000 0.3058(4) 0.6706(4)
Cu1 Cu 0.0000 0.10703(7) 1.01425(6)
I1 I 0.19553(4) 0.0000 1.0000
C1J C -0.1007(5) 0.2672(4) 0.8539(4)
H1J H -0.1689 0.2245 0.8575
H2J H -0.1020 0.3150 0.9179
H3J H 0.0670 0.0863 0.7667
H4J H -0.0669 0.1742 0.6066
C4J C -0.1002(4) 0.3298(4) 0.7415(4)
H5J H -0.1008 0.4037 0.7589
H6J H -0.1690 0.3139 0.6990
N2E N 0.0000 0.1942(4) 1.1706(4)
Cu1E Cu 0.0000 0.39297(7) 0.51425(6)
Cu1B Cu 0.0000 -0.10703(7) 0.98575(6)
I1H I -0.19553(4) 0.0000 1.0000
loop_
_geom_bond_atom_site_label_1
_geom_bond_atom_site_label_2
_geom_bond_site_symmetry_1
_geom_bond_site_symmetry_2
C1 H1 1_555 1_555
H2 C1 1_555 1_555
C2 H3 1_555 1_555
C3 C2 1_555 1_555
H4 C3 1_555 1_555
C4 C1 1_555 1_555
H5 C4 1_555 1_555
H6 C4 1_555 1_555
N1 C1 1_555 1_555
N2 C3 1_555 1_555
Cu1 N1 1_555 1_555
I1 Cu1 1_555 1_555
C1J N1 1_555 1_555
H1J C1J 1_555 1_555
H2J C1J 1_555 1_555
H3J C2 1_555 1_555
H4J C3 1_555 1_555
C4J N2 1_555 1_555
H5J C4J 1_555 1_555
H6J C4J 1_555 1_555
N2E Cu1 1_555 1_555
Cu1E N2 1_555 1_555
Cu1B I1 1_555 1_555
I1H Cu1 1_555 1_555
C2 N1 1_555 1_555
C4 N2 1_555 1_555
C1J C4J 1_555 1_555
Cu1B I1H 1_555 1_555

#END
