
#######################################################################
#
#                 Cambridge Crystallographic Data Centre
#                                CCDC 
#
#######################################################################
#
# If this CIF has been generated from an entry in the Cambridge 
# Structural Database, then it will include bibliographic, chemical, 
# crystal, experimental, refinement or atomic coordinate data resulting 
# from the CCDC's data processing and validation procedures.
#
#######################################################################

data_OLUTIZ
_symmetry_cell_setting           monoclinic
_symmetry_space_group_name_H-M   'C 2/m'
_symmetry_Int_Tables_number      12
_space_group_name_Hall           '-C 2y'
loop_
_symmetry_equiv_pos_site_id
_symmetry_equiv_pos_as_xyz
1 x,y,z
2 -x,y,-z
3 1/2+x,1/2+y,z
4 1/2-x,1/2+y,-z
5 -x,-y,-z
6 x,-y,z
7 1/2-x,1/2-y,-z
8 1/2+x,1/2-y,z
_cell_length_a                   10.1972(7)
_cell_length_b                   12.1811(6)
_cell_length_c                   6.7879(5)
_cell_angle_alpha                90
_cell_angle_beta                 120.25(1)
_cell_angle_gamma                90
_cell_volume                     728.34
loop_
_atom_site_label
_atom_site_type_symbol
_atom_site_fract_x
_atom_site_fract_y
_atom_site_fract_z
N1 N 0.1747(3) 0.1409(2) 0.9360(4)
H1 H 0.1525 0.1339 1.0495
C1 C 0.1005(3) 0.2423(2) 0.8102(5)
H2 H -0.0079 0.2364 0.7510
H3 H 0.1162 0.2490 0.6811
C2 C 0.3413(3) 0.1546(3) 1.0462(5)
H4 H 0.3692 0.1567 0.9291
H5 H 0.3906 0.0914 1.1422
I1 I 0.20934(3) 0.0000 0.45932(4)
Cu1 Cu 0.09101(6) 0.0000 0.73059(9)
N1F N 0.3253(3) 0.3591(2) 1.0640(4)
N1E N 0.1747(3) -0.1409(2) 0.9360(4)
H1F H 0.3475 0.3661 0.9505
H1E H 0.1525 -0.1339 1.0495
C1F C 0.3995(3) 0.2577(2) 1.1898(5)
H2F H 0.5079 0.2636 1.2490
H3F H 0.3838 0.2510 1.3189
C2F C 0.1587(3) 0.3454(3) 0.9538(5)
H4F H 0.1308 0.3433 1.0709
H5F H 0.1094 0.4086 0.8578
I1A I -0.20934(3) 0.0000 0.54068(4)
Cu1A Cu -0.09101(6) 0.0000 0.26941(9)
Cu1C Cu 0.40899(6) 0.5000 1.26941(9)
loop_
_geom_bond_atom_site_label_1
_geom_bond_atom_site_label_2
_geom_bond_site_symmetry_1
_geom_bond_site_symmetry_2
N1 H1 1_555 1_555
C1 N1 1_555 1_555
H2 C1 1_555 1_555
H3 C1 1_555 1_555
C2 N1 1_555 1_555
H4 C2 1_555 1_555
H5 C2 1_555 1_555
I1 Cu1 1_555 1_555
Cu1 N1 1_555 1_555
N1F H1F 1_555 1_555
N1E Cu1 1_555 1_555
H1E N1E 1_555 1_555
C1F C2 1_555 1_555
H2F C1F 1_555 1_555
H3F C1F 1_555 1_555
C2F C1 1_555 1_555
H4F C2F 1_555 1_555
H5F C2F 1_555 1_555
I1A Cu1 1_555 1_555
Cu1A I1 1_555 1_555
Cu1C N1F 1_555 1_555
N1F C1F 1_555 1_555
N1F C2F 1_555 1_555
I1A Cu1A 1_555 1_555

#END
