
#######################################################################
#
#                 Cambridge Crystallographic Data Centre
#                                CCDC 
#
#######################################################################
#
# If this CIF has been generated from an entry in the Cambridge 
# Structural Database, then it will include bibliographic, chemical, 
# crystal, experimental, refinement or atomic coordinate data resulting 
# from the CCDC's data processing and validation procedures.
#
#######################################################################

data_OLUVEX
_symmetry_cell_setting           orthorhombic
_symmetry_space_group_name_H-M   'P b c a'
_symmetry_Int_Tables_number      61
_space_group_name_Hall           '-P 2ac 2ab'
loop_
_symmetry_equiv_pos_site_id
_symmetry_equiv_pos_as_xyz
1 x,y,z
2 1/2-x,-y,1/2+z
3 1/2+x,1/2-y,-z
4 -x,1/2+y,1/2-z
5 -x,-y,-z
6 1/2+x,y,1/2-z
7 1/2-x,1/2+y,z
8 x,1/2-y,1/2+z
_cell_length_a                   19.3122(4)
_cell_length_b                   16.5116(3)
_cell_length_c                   25.1186(5)
_cell_angle_alpha                90
_cell_angle_beta                 90
_cell_angle_gamma                90
_cell_volume                     8009.7
loop_
_atom_site_label
_atom_site_type_symbol
_atom_site_fract_x
_atom_site_fract_y
_atom_site_fract_z
Fe1 Fe 0.487255(13) 0.253540(14) 0.418510(9)
O1 O 0.57355(6) 0.30159(7) 0.38742(4)
O2 O 0.40710(6) 0.31201(7) 0.38466(4)
O3 O 0.20328(7) 0.19065(8) 0.45224(5)
O4 O 0.20379(7) 0.26747(8) 0.37875(5)
O5 O 0.76331(7) 0.16080(8) 0.46235(5)
O6 O 0.77327(7) 0.23826(7) 0.38942(5)
N1 N 0.55248(8) 0.17916(8) 0.46362(5)
N2 N 0.41388(8) 0.18845(8) 0.46163(5)
N3 N 0.48697(8) 0.16492(9) 0.35145(5)
N4 N 0.49048(8) 0.15305(8) -0.01636(5)
C1 C 0.34228(10) 0.31049(10) 0.39388(6)
C2 C 0.31006(9) 0.24650(10) 0.42177(6)
C3 C 0.34710(10) 0.19217(10) 0.45538(6)
H1 H 0.3202 0.1547 0.4753
C4 C 0.44357(10) 0.13637(10) 0.50053(6)
C5 C 0.40561(10) 0.09369(11) 0.53851(7)
H2 H 0.3566 0.0986 0.5390
C6 C 0.43738(12) 0.04475(12) 0.57520(7)
H3 H 0.4104 0.0155 0.6003
C7 C 0.50865(12) 0.03816(12) 0.57553(7)
H4 H 0.5308 0.0039 0.6007
C8 C 0.54740(11) 0.08118(11) 0.53948(7)
H5 H 0.5965 0.0771 0.5405
C9 C 0.51620(10) 0.13090(10) 0.50126(6)
C10 C 0.61971(9) 0.17511(10) 0.45953(6)
H6 H 0.6422 0.1343 0.4798
C11 C 0.66269(9) 0.22576(10) 0.42774(6)
C12 C 0.63725(10) 0.29228(11) 0.39820(6)
C13 C 0.68116(9) 0.36210(11) 0.38128(7)
C14 C 0.71575(10) 0.40788(11) 0.41880(8)
H7 H 0.7171 0.3904 0.4548
C15 C 0.74840(12) 0.47890(13) 0.40430(12)
H8 H 0.7713 0.5106 0.4305
C16 C 0.74794(14) 0.50377(16) 0.35247(14)
H9 H 0.7710 0.5523 0.3425
C17 C 0.71426(14) 0.45863(17) 0.31487(11)
H10 H 0.7148 0.4755 0.2787
C18 C 0.67931(11) 0.38851(13) 0.32890(8)
H11 H 0.6543 0.3588 0.3029
C19 C 0.30536(9) 0.38660(10) 0.37851(7)
C20 C 0.32157(10) 0.42505(12) 0.33118(7)
H12 H 0.3517 0.3996 0.3064
C21 C 0.29392(12) 0.50079(13) 0.31970(8)
H13 H 0.3048 0.5267 0.2870
C22 C 0.25051(12) 0.53859(13) 0.35591(9)
H14 H 0.2320 0.5906 0.3483
C23 C 0.23451(12) 0.50051(13) 0.40265(9)
H15 H 0.2046 0.5262 0.4274
C24 C 0.26147(10) 0.42501(12) 0.41418(7)
H16 H 0.2499 0.3992 0.4468
C25 C 0.23501(9) 0.23234(11) 0.42090(7)
C26 C 0.12943(11) 0.26060(15) 0.37590(9)
H17 H 0.1082 0.2779 0.4099
H18 H 0.1159 0.2038 0.3688
C27 C 0.10581(14) 0.3145(2) 0.33133(10)
H19 H 0.1237 0.2937 0.2975
H20 H 0.1232 0.3695 0.3372
H21 H 0.0551 0.3153 0.3302
C28 C 0.73638(10) 0.20558(11) 0.42992(7)
C29 C 0.84699(11) 0.22396(13) 0.39012(9)
H22 H 0.8567 0.1654 0.3862
H23 H 0.8671 0.2427 0.4242
C30 C 0.87759(13) 0.27013(17) 0.34462(10)
H24 H 0.8645 0.3273 0.3475
H25 H 0.8602 0.2480 0.3110
H26 H 0.9282 0.2654 0.3456
C31 C 0.54786(11) 0.07808(12) 0.29145(7)
H27 H 0.5913 0.0584 0.2793
C32 C 0.54572(10) 0.13418(12) 0.33221(7)
H28 H 0.5883 0.1518 0.3473
C33 C 0.42865(10) 0.13704(11) 0.32941(7)
H29 H 0.3858 0.1569 0.3426
C34 C 0.42709(10) 0.08117(12) 0.28872(7)
H30 H 0.3839 0.0637 0.2747
C35 C 0.48803(10) 0.05051(10) 0.26834(6)
C36 C 0.48916(10) -0.00526(11) 0.22091(6)
H31 H 0.4474 -0.0400 0.2212
H32 H 0.5304 -0.0408 0.2227
C37 C 0.49108(10) 0.04438(10) 0.16963(6)
H33 H 0.5315 0.0812 0.1708
H34 H 0.4489 0.0783 0.1677
C38 C 0.49558(10) -0.00740(10) 0.11931(6)
H35 H 0.5389 -0.0395 0.1199
H36 H 0.4560 -0.0455 0.1182
C39 C 0.49444(10) 0.04584(10) 0.07053(6)
C40 C 0.55359(10) 0.08315(10) 0.05156(6)
H37 H 0.5970 0.0726 0.0679
C41 C 0.54965(10) 0.13543(10) 0.00910(6)
H38 H 0.5911 0.1605 -0.0029
C42 C 0.43369(10) 0.11698(11) 0.00229(7)
H39 H 0.3908 0.1285 -0.0147
C43 C 0.43344(10) 0.06406(10) 0.04465(7)
H40 H 0.3912 0.0401 0.0560
Fe1G Fe 0.487255(13) 0.246460(14) -0.081490(9)
N4G N 0.49048(8) 0.34695(8) 0.48364(5)
O7 O 0.7153(2) 0.1835(2) 0.28675(14)
H41 H 0.7344 0.2021 0.3142
C44 C 0.7464(3) 0.2135(3) 0.24341(17)
H42 H 0.7527 0.2720 0.2476
H43 H 0.7176 0.2030 0.2120
H44 H 0.7916 0.1875 0.2388
loop_
_geom_bond_atom_site_label_1
_geom_bond_atom_site_label_2
_geom_bond_site_symmetry_1
_geom_bond_site_symmetry_2
Fe1 O1 1_555 1_555
O1 C12 1_555 1_555
O2 Fe1 1_555 1_555
O3 C25 1_555 1_555
O4 C25 1_555 1_555
O5 C28 1_555 1_555
O6 C28 1_555 1_555
N1 Fe1 1_555 1_555
N2 Fe1 1_555 1_555
N3 Fe1 1_555 1_555
N4 C41 1_555 1_555
C1 O2 1_555 1_555
C2 C1 1_555 1_555
C3 N2 1_555 1_555
H1 C3 1_555 1_555
C4 N2 1_555 1_555
C5 C4 1_555 1_555
H2 C5 1_555 1_555
C6 C5 1_555 1_555
H3 C6 1_555 1_555
C7 C6 1_555 1_555
H4 C7 1_555 1_555
C8 C7 1_555 1_555
H5 C8 1_555 1_555
C9 N1 1_555 1_555
C10 N1 1_555 1_555
H6 C10 1_555 1_555
C11 C10 1_555 1_555
C12 C11 1_555 1_555
C13 C12 1_555 1_555
C14 C13 1_555 1_555
H7 C14 1_555 1_555
C15 C14 1_555 1_555
H8 C15 1_555 1_555
C16 C15 1_555 1_555
H9 C16 1_555 1_555
C17 C16 1_555 1_555
H10 C17 1_555 1_555
C18 C13 1_555 1_555
H11 C18 1_555 1_555
C19 C1 1_555 1_555
C20 C19 1_555 1_555
H12 C20 1_555 1_555
C21 C20 1_555 1_555
H13 C21 1_555 1_555
C22 C21 1_555 1_555
H14 C22 1_555 1_555
C23 C22 1_555 1_555
H15 C23 1_555 1_555
C24 C19 1_555 1_555
H16 C24 1_555 1_555
C25 C2 1_555 1_555
C26 O4 1_555 1_555
H17 C26 1_555 1_555
H18 C26 1_555 1_555
C27 C26 1_555 1_555
H19 C27 1_555 1_555
H20 C27 1_555 1_555
H21 C27 1_555 1_555
C28 C11 1_555 1_555
C29 O6 1_555 1_555
H22 C29 1_555 1_555
H23 C29 1_555 1_555
C30 C29 1_555 1_555
H24 C30 1_555 1_555
H25 C30 1_555 1_555
H26 C30 1_555 1_555
C31 H27 1_555 1_555
C32 N3 1_555 1_555
H28 C32 1_555 1_555
C33 N3 1_555 1_555
H29 C33 1_555 1_555
C34 C33 1_555 1_555
H30 C34 1_555 1_555
C35 C31 1_555 1_555
C36 C35 1_555 1_555
H31 C36 1_555 1_555
H32 C36 1_555 1_555
C37 C36 1_555 1_555
H33 C37 1_555 1_555
H34 C37 1_555 1_555
C38 C37 1_555 1_555
H35 C38 1_555 1_555
H36 C38 1_555 1_555
C39 C38 1_555 1_555
C40 C39 1_555 1_555
H37 C40 1_555 1_555
C41 C40 1_555 1_555
H38 C41 1_555 1_555
C42 N4 1_555 1_555
H39 C42 1_555 1_555
C43 C39 1_555 1_555
H40 C43 1_555 1_555
O7 H41 1_555 1_555
C44 O7 1_555 1_555
H42 C44 1_555 1_555
H43 C44 1_555 1_555
H44 C44 1_555 1_555
Fe1G N4 1_555 1_555
N4G Fe1 1_555 1_555
C2 C3 1_555 1_555
C4 C9 1_555 1_555
C8 C9 1_555 1_555
C17 C18 1_555 1_555
C23 C24 1_555 1_555
C31 C32 1_555 1_555
C34 C35 1_555 1_555
C42 C43 1_555 1_555

#END
