
#######################################################################
#
#                 Cambridge Crystallographic Data Centre
#                                CCDC 
#
#######################################################################
#
# If this CIF has been generated from an entry in the Cambridge 
# Structural Database, then it will include bibliographic, chemical, 
# crystal, experimental, refinement or atomic coordinate data resulting 
# from the CCDC's data processing and validation procedures.
#
#######################################################################

data_OLUVIB01
_symmetry_cell_setting           triclinic
_symmetry_space_group_name_H-M   'P -1'
_symmetry_Int_Tables_number      2
_space_group_name_Hall           '-P 1'
loop_
_symmetry_equiv_pos_site_id
_symmetry_equiv_pos_as_xyz
1 x,y,z
2 -x,-y,-z
_cell_length_a                   10.3326(16)
_cell_length_b                   10.8298(17)
_cell_length_c                   15.673(3)
_cell_angle_alpha                74.763(14)
_cell_angle_beta                 80.991(14)
_cell_angle_gamma                64.329(15)
_cell_volume                     1523.29
loop_
_atom_site_label
_atom_site_type_symbol
_atom_site_fract_x
_atom_site_fract_y
_atom_site_fract_z
Fe1 Fe 0.59205(6) 0.32778(5) 0.33357(4)
O1 O 0.7468(3) 0.2592(2) 0.41987(17)
O2 O 0.4041(3) 0.3811(2) 0.40409(16)
O3 O 1.1698(3) 0.2135(3) 0.3629(2)
O4 O 0.0456(3) 0.7373(3) 0.3172(2)
N1 N 0.7519(3) 0.2816(3) 0.23634(19)
N2 N 0.4715(3) 0.3951(3) 0.22345(19)
N3 N 0.6092(3) 0.1151(3) 0.3635(2)
N4 N 0.5614(3) -0.0707(3) 0.3898(2)
N5 N 0.5344(3) -0.2612(3) 0.3574(2)
N6 N 0.5761(3) -0.4617(3) 0.3230(2)
C1 C 0.8810(5) 0.2240(3) 0.4085(3)
C2 C 0.9537(4) 0.2178(3) 0.3251(3)
C3 C 0.8883(4) 0.2425(3) 0.2456(3)
H1 H 0.9500 0.2293 0.1939
C4 C 0.7042(4) 0.2898(3) 0.1546(2)
C5 C 0.7904(4) 0.2380(4) 0.0844(3)
H2 H 0.8919 0.1955 0.0882
C6 C 0.7309(4) 0.2472(4) 0.0087(3)
H3 H 0.7919 0.2120 -0.0393
C7 C 0.5847(4) 0.3066(3) 0.0023(3)
H4 H 0.5448 0.3131 -0.0502
C8 C 0.4957(4) 0.3567(3) 0.0716(2)
H5 H 0.3944 0.3960 0.0671
C9 C 0.5527(4) 0.3505(3) 0.1487(2)
C10 C 0.3366(4) 0.4862(3) 0.2192(3)
H6 H 0.2990 0.5265 0.1620
C11 C 0.2417(4) 0.5304(3) 0.2914(3)
C12 C 0.2788(4) 0.4664(4) 0.3805(3)
C13 C 0.9593(5) 0.1802(4) 0.4917(3)
H7 H 0.9867 0.2544 0.4959
H8 H 1.0459 0.0933 0.4904
H9 H 0.8965 0.1642 0.5431
C14 C 0.1645(5) 0.4838(4) 0.4544(3)
H10 H 0.1562 0.3943 0.4790
H11 H 0.0723 0.5555 0.4314
H12 H 0.1906 0.5129 0.5009
C15 C 1.1096(4) 0.1832(4) 0.3157(3)
C16 C 1.1996(4) 0.1067(4) 0.2453(3)
C17 C 1.3053(4) 0.1441(4) 0.1986(3)
H13 H 1.3175 0.2210 0.2088
C18 C 1.3950(5) 0.0709(4) 0.1362(3)
H14 H 1.4651 0.1004 0.1020
C19 C 1.3822(5) -0.0442(4) 0.1242(3)
H15 H 1.4436 -0.0950 0.0819
C20 C 1.2798(5) -0.0856(4) 0.1738(3)
H16 H 1.2741 -0.1678 0.1671
C21 C 1.1857(4) -0.0104(4) 0.2327(3)
H17 H 1.1125 -0.0374 0.2644
C22 C 0.1022(4) 0.6504(4) 0.2713(3)
C23 C 0.0249(4) 0.6694(4) 0.1921(3)
C24 C 0.0244(4) 0.5572(4) 0.1658(3)
H18 H 0.0799 0.4642 0.1962
C25 C -0.0548(5) 0.5776(5) 0.0966(3)
H19 H -0.0531 0.4994 0.0790
C26 C -0.1363(5) 0.7118(6) 0.0532(3)
H20 H -0.1916 0.7269 0.0054
C27 C -0.1377(5) 0.8248(5) 0.0792(3)
H21 H -0.1936 0.9175 0.0487
C28 C -0.0594(4) 0.8050(4) 0.1487(3)
H22 H -0.0628 0.8835 0.1669
C29 C 0.5077(4) 0.0707(4) 0.3753(2)
H23 H 0.4080 0.1304 0.3738
C30 C 0.7354(4) -0.0034(4) 0.3701(3)
H24 H 0.8285 -0.0036 0.3635
C31 C 0.7094(4) -0.1194(4) 0.3872(3)
H25 H 0.7780 -0.2143 0.3955
C32 C 0.4766(4) -0.1520(4) 0.4078(3)
H26 H 0.3762 -0.0893 0.3921
H27 H 0.4761 -0.1953 0.4718
C33 C 0.5163(4) -0.3813(4) 0.3819(3)
H28 H 0.4666 -0.4061 0.4353
C34 C 0.6346(5) -0.3885(4) 0.2591(3)
H29 H 0.6865 -0.4196 0.2076
C35 C 0.6101(5) -0.2653(4) 0.2775(3)
H30 H 0.6394 -0.1952 0.2421
Fe1_2 Fe 0.59205(6) -0.67222(5) 0.33357(4)
N6_2 N 0.5761(3) 0.5383(3) 0.3230(2)
loop_
_geom_bond_atom_site_label_1
_geom_bond_atom_site_label_2
_geom_bond_site_symmetry_1
_geom_bond_site_symmetry_2
Fe1 O1 1_555 1_555
O1 C1 1_555 1_555
O2 Fe1 1_555 1_555
O3 C15 1_555 1_555
O4 C22 1_555 1_555
N1 Fe1 1_555 1_555
N2 Fe1 1_555 1_555
N3 Fe1 1_555 1_555
N4 C29 1_555 1_555
N5 C32 1_555 1_555
N6 C33 1_555 1_555
C1 C2 1_555 1_555
C2 C3 1_555 1_555
C3 N1 1_555 1_555
H1 C3 1_555 1_555
C4 N1 1_555 1_555
C5 C4 1_555 1_555
H2 C5 1_555 1_555
C6 C5 1_555 1_555
H3 C6 1_555 1_555
C7 C6 1_555 1_555
H4 C7 1_555 1_555
C8 C7 1_555 1_555
H5 C8 1_555 1_555
C9 N2 1_555 1_555
C10 N2 1_555 1_555
H6 C10 1_555 1_555
C11 C10 1_555 1_555
C12 O2 1_555 1_555
C13 C1 1_555 1_555
H7 C13 1_555 1_555
H8 C13 1_555 1_555
H9 C13 1_555 1_555
C14 C12 1_555 1_555
H10 C14 1_555 1_555
H11 C14 1_555 1_555
H12 C14 1_555 1_555
C15 C2 1_555 1_555
C16 C15 1_555 1_555
C17 C16 1_555 1_555
H13 C17 1_555 1_555
C18 C17 1_555 1_555
H14 C18 1_555 1_555
C19 C18 1_555 1_555
H15 C19 1_555 1_555
C20 C19 1_555 1_555
H16 C20 1_555 1_555
C21 C16 1_555 1_555
H17 C21 1_555 1_555
C22 C11 1_555 1_555
C23 C22 1_555 1_555
C24 C23 1_555 1_555
H18 C24 1_555 1_555
C25 C24 1_555 1_555
H19 C25 1_555 1_555
C26 C25 1_555 1_555
H20 C26 1_555 1_555
C27 C26 1_555 1_555
H21 C27 1_555 1_555
C28 C23 1_555 1_555
H22 C28 1_555 1_555
C29 N3 1_555 1_555
H23 C29 1_555 1_555
C30 N3 1_555 1_555
H24 C30 1_555 1_555
C31 N4 1_555 1_555
H25 C31 1_555 1_555
C32 N4 1_555 1_555
H26 C32 1_555 1_555
H27 C32 1_555 1_555
C33 N5 1_555 1_555
H28 C33 1_555 1_555
C34 N6 1_555 1_555
H29 C34 1_555 1_555
C35 N5 1_555 1_555
H30 C35 1_555 1_555
Fe1_2 N6 1_555 1_555
N6_2 Fe1 1_555 1_555
C4 C9 1_555 1_555
C8 C9 1_555 1_555
C11 C12 1_555 1_555
C20 C21 1_555 1_555
C27 C28 1_555 1_555
C30 C31 1_555 1_555
C34 C35 1_555 1_555

#END
