
#######################################################################
#
#                 Cambridge Crystallographic Data Centre
#                                CCDC 
#
#######################################################################
#
# If this CIF has been generated from an entry in the Cambridge 
# Structural Database, then it will include bibliographic, chemical, 
# crystal, experimental, refinement or atomic coordinate data resulting 
# from the CCDC's data processing and validation procedures.
#
#######################################################################

data_OLUVIB02
_symmetry_cell_setting           triclinic
_symmetry_space_group_name_H-M   'P -1'
_symmetry_Int_Tables_number      2
_space_group_name_Hall           '-P 1'
loop_
_symmetry_equiv_pos_site_id
_symmetry_equiv_pos_as_xyz
1 x,y,z
2 -x,-y,-z
_cell_length_a                   10.4117(14)
_cell_length_b                   10.5247(12)
_cell_length_c                   15.4338(18)
_cell_angle_alpha                74.913(10)
_cell_angle_beta                 79.006(11)
_cell_angle_gamma                64.091(13)
_cell_volume                     1463.03
loop_
_atom_site_label
_atom_site_type_symbol
_atom_site_fract_x
_atom_site_fract_y
_atom_site_fract_z
Fe1 Fe 0.57895(7) 0.34355(6) 0.33130(5)
O1 O 0.7015(3) 0.2839(3) 0.4268(2)
O2 O 0.4091(3) 0.3925(3) 0.4153(2)
O3 O 1.1422(4) 0.2032(4) 0.3865(2)
O4 O 0.0164(4) 0.7151(4) 0.3463(3)
N1 N 0.7377(4) 0.2945(3) 0.2422(2)
N2 N 0.4647(4) 0.4011(3) 0.2326(3)
N3 N 0.5951(4) 0.1395(3) 0.3569(2)
N4 N 0.5468(4) -0.0509(3) 0.3852(3)
N5 N 0.5213(4) -0.2494(3) 0.3528(2)
N6 N 0.5647(4) -0.4548(3) 0.3167(2)
C1 C 0.8351(5) 0.2375(4) 0.4212(3)
C2 C 0.9257(5) 0.2265(4) 0.3393(3)
C3 C 0.8718(5) 0.2524(4) 0.2545(3)
H1 H 0.9394 0.2376 0.2032
C4 C 0.6981(5) 0.2999(4) 0.1594(3)
C5 C 0.7909(5) 0.2514(5) 0.0853(3)
H2 H 0.8916 0.2151 0.0873
C6 C 0.7360(6) 0.2564(5) 0.0091(3)
H3 H 0.7998 0.2232 -0.0410
C7 C 0.5909(5) 0.3085(4) 0.0046(3)
H4 H 0.5551 0.3119 -0.0485
C8 C 0.4977(5) 0.3557(4) 0.0766(3)
H5 H 0.3976 0.3884 0.0739
C9 C 0.5490(5) 0.3563(4) 0.1543(3)
C10 C 0.3283(5) 0.4832(4) 0.2323(3)
H6 H 0.2877 0.5183 0.1761
C11 C 0.2352(5) 0.5246(4) 0.3105(3)
C12 C 0.2813(5) 0.4652(4) 0.3978(3)
C13 C 0.8962(6) 0.1809(5) 0.5114(3)
H7 H 0.8392 0.2484 0.5515
H8 H 0.9956 0.1708 0.5034
H9 H 0.8934 0.0867 0.5379
C14 C 0.1756(5) 0.4736(5) 0.4805(4)
H10 H 0.1431 0.3961 0.4905
H11 H 0.0931 0.5671 0.4715
H12 H 0.2221 0.4632 0.5330
C15 C 1.0792(5) 0.1846(5) 0.3342(3)
C16 C 1.1729(5) 0.1084(5) 0.2590(3)
C17 C 1.2758(5) 0.1514(5) 0.2077(3)
H13 H 1.2872 0.2299 0.2195
C18 C 1.3619(6) 0.0841(5) 0.1402(3)
H14 H 1.4294 0.1185 0.1041
C19 C 1.3511(6) -0.0348(5) 0.1242(3)
H15 H 1.4111 -0.0829 0.0777
C20 C 1.2504(6) -0.0816(5) 0.1778(4)
H16 H 1.2433 -0.1644 0.1692
C21 C 1.1627(5) -0.0101(5) 0.2421(3)
H17 H 1.0922 -0.0416 0.2765
C22 C 0.0898(5) 0.6340(5) 0.2945(4)
C23 C 0.0235(5) 0.6587(5) 0.2088(3)
C24 C 0.0252(5) 0.5460(5) 0.1773(3)
H18 H 0.0773 0.4493 0.2062
C25 C -0.0478(5) 0.5726(5) 0.1048(4)
H19 H -0.0465 0.4944 0.0844
C26 C -0.1234(5) 0.7129(6) 0.0611(4)
H20 H -0.1730 0.7313 0.0105
C27 C -0.1253(5) 0.8249(5) 0.0922(4)
H21 H -0.1753 0.9214 0.0621
C28 C -0.0554(5) 0.7988(5) 0.1667(4)
H22 H -0.0615 0.8774 0.1891
C29 C 0.4930(5) 0.0955(4) 0.3694(3)
H23 H 0.3939 0.1573 0.3677
C30 C 0.7201(5) 0.0171(4) 0.3656(3)
H24 H 0.8134 0.0153 0.3596
C31 C 0.6908(5) -0.0995(5) 0.3839(3)
H25 H 0.7580 -0.1973 0.3939
C32 C 0.4605(5) -0.1346(5) 0.4045(3)
H26 H 0.3614 -0.0704 0.3890
H27 H 0.4568 -0.1773 0.4697
C33 C 0.5085(5) -0.3750(4) 0.3797(3)
H28 H 0.4648 -0.4038 0.4367
C34 C 0.6167(5) -0.3743(4) 0.2474(3)
H29 H 0.6642 -0.4032 0.1923
C35 C 0.5909(5) -0.2474(5) 0.2680(3)
H30 H 0.6160 -0.1725 0.2313
Fe1_2 Fe 0.57895(7) -0.65645(6) 0.33130(5)
N6_2 N 0.5647(4) 0.5452(3) 0.3167(2)
loop_
_geom_bond_atom_site_label_1
_geom_bond_atom_site_label_2
_geom_bond_site_symmetry_1
_geom_bond_site_symmetry_2
Fe1 O1 1_555 1_555
O1 C1 1_555 1_555
O2 Fe1 1_555 1_555
O3 C15 1_555 1_555
O4 C22 1_555 1_555
N1 Fe1 1_555 1_555
N2 Fe1 1_555 1_555
N3 Fe1 1_555 1_555
N4 C29 1_555 1_555
N5 C32 1_555 1_555
N6 C33 1_555 1_555
C1 C2 1_555 1_555
C2 C3 1_555 1_555
C3 N1 1_555 1_555
H1 C3 1_555 1_555
C4 N1 1_555 1_555
C5 C4 1_555 1_555
H2 C5 1_555 1_555
C6 C5 1_555 1_555
H3 C6 1_555 1_555
C7 C6 1_555 1_555
H4 C7 1_555 1_555
C8 C7 1_555 1_555
H5 C8 1_555 1_555
C9 N2 1_555 1_555
C10 N2 1_555 1_555
H6 C10 1_555 1_555
C11 C10 1_555 1_555
C12 O2 1_555 1_555
C13 C1 1_555 1_555
H7 C13 1_555 1_555
H8 C13 1_555 1_555
H9 C13 1_555 1_555
C14 C12 1_555 1_555
H10 C14 1_555 1_555
H11 C14 1_555 1_555
H12 C14 1_555 1_555
C15 C2 1_555 1_555
C16 C15 1_555 1_555
C17 C16 1_555 1_555
H13 C17 1_555 1_555
C18 C17 1_555 1_555
H14 C18 1_555 1_555
C19 C18 1_555 1_555
H15 C19 1_555 1_555
C20 C19 1_555 1_555
H16 C20 1_555 1_555
C21 C16 1_555 1_555
H17 C21 1_555 1_555
C22 C11 1_555 1_555
C23 C22 1_555 1_555
C24 C23 1_555 1_555
H18 C24 1_555 1_555
C25 C24 1_555 1_555
H19 C25 1_555 1_555
C26 C25 1_555 1_555
H20 C26 1_555 1_555
C27 C26 1_555 1_555
H21 C27 1_555 1_555
C28 C23 1_555 1_555
H22 C28 1_555 1_555
C29 N3 1_555 1_555
H23 C29 1_555 1_555
C30 N3 1_555 1_555
H24 C30 1_555 1_555
C31 N4 1_555 1_555
H25 C31 1_555 1_555
C32 N4 1_555 1_555
H26 C32 1_555 1_555
H27 C32 1_555 1_555
C33 N5 1_555 1_555
H28 C33 1_555 1_555
C34 N6 1_555 1_555
H29 C34 1_555 1_555
C35 N5 1_555 1_555
H30 C35 1_555 1_555
Fe1_2 N6 1_555 1_555
N6_2 Fe1 1_555 1_555
C4 C9 1_555 1_555
C8 C9 1_555 1_555
C11 C12 1_555 1_555
C20 C21 1_555 1_555
C27 C28 1_555 1_555
C30 C31 1_555 1_555
C34 C35 1_555 1_555

#END
