
#######################################################################
#
#                 Cambridge Crystallographic Data Centre
#                                CCDC 
#
#######################################################################
#
# If this CIF has been generated from an entry in the Cambridge 
# Structural Database, then it will include bibliographic, chemical, 
# crystal, experimental, refinement or atomic coordinate data resulting 
# from the CCDC's data processing and validation procedures.
#
#######################################################################

data_OLUZUR
_symmetry_cell_setting           orthorhombic
_symmetry_space_group_name_H-M   'I m m a'
_symmetry_Int_Tables_number      74
_space_group_name_Hall           '-I 2b 2'
loop_
_symmetry_equiv_pos_site_id
_symmetry_equiv_pos_as_xyz
1 x,y,z
2 1/2+x,1/2+y,1/2+z
3 1/2+x,1/2-y,1/2-z
4 1/2-x,y,1/2-z
5 -x,1/2-y,z
6 x,-y,-z
7 -x,1/2+y,-z
8 1/2-x,-y,1/2+z
9 -x,-y,-z
10 1/2-x,1/2-y,1/2-z
11 1/2-x,1/2+y,1/2+z
12 1/2+x,-y,1/2+z
13 x,1/2+y,-z
14 -x,y,z
15 x,1/2-y,z
16 1/2+x,y,1/2-z
_cell_length_a                   8.92885(3)
_cell_length_b                   7.098858(20)
_cell_length_c                   9.25930(3)
_cell_angle_alpha                90
_cell_angle_beta                 90
_cell_angle_gamma                90
_cell_volume                     586.897
loop_
_atom_site_label
_atom_site_type_symbol
_atom_site_fract_x
_atom_site_fract_y
_atom_site_fract_z
Zn1 Zn 0.25000 0.25000 0.25000
Al1 Al 0.50000 0.00000 0.50000
F1 F 0.50000 -0.25000 0.4447(3)
F2 F 0.35870(18) 0.04613(19) 0.36854(17)
N1 N 0.4192(3) 0.25000 0.0894(4)
C1 C 0.3804(6) 0.25000 -0.0465(5)
N2 N 0.50000 0.25000 -0.1338(6)
H1 H 0.28031 0.25000 -0.08068
H2 H 0.50000 0.25000 -0.22892
Zn1M Zn 0.75000 0.25000 0.25000
Al1L Al 0.50000 -0.50000 0.50000
Al1L_2 Al 0.50000 0.50000 0.50000
Al1K Al 0.00000 0.00000 0.00000
Al1J Al 0.00000 0.50000 0.00000
F1L F 0.50000 0.25000 0.5553(3)
F2N F 0.35870(18) 0.45387(19) 0.36854(17)
F2C F 0.14130(18) 0.04613(19) 0.13146(17)
F2I F 0.14130(18) 0.45387(19) 0.13146(17)
F2M F 0.64130(18) 0.04613(19) 0.36854(17)
F2H F 0.64130(18) -0.04613(19) 0.63146(17)
F2E F 0.35870(18) -0.04613(19) 0.63146(17)
N1M N 0.5808(3) 0.25000 0.0894(4)
N1C N 0.0808(3) 0.25000 0.4106(4)
C1M C 0.6196(6) 0.25000 -0.0465(5)
H1M H 0.71969 0.25000 -0.08068
loop_
_geom_bond_atom_site_label_1
_geom_bond_atom_site_label_2
_geom_bond_site_symmetry_1
_geom_bond_site_symmetry_2
Zn1 F2 1_555 1_555
Al1 F1 1_555 1_555
F1 Al1L 1_555 1_555
F2 Al1 1_555 1_555
N1 Zn1 1_555 1_555
C1 N1 1_555 1_555
N2 C1 1_555 1_555
H1 C1 1_555 1_555
H2 N2 1_555 1_555
Zn1M F2M 1_555 1_555
Al1L_2 F1L 1_555 1_555
Al1K F2C 1_555 1_555
Al1J F2I 1_555 1_555
F1L Al1 1_555 1_555
F2N Zn1 1_555 1_555
F2C Zn1 1_555 1_555
F2I Zn1 1_555 1_555
F2M Al1 1_555 1_555
F2H Al1 1_555 1_555
F2E Al1 1_555 1_555
N1M N1 1_555 1_555
N1C Zn1 1_555 1_555
C1M N2 1_555 1_555
H1M C1M 1_555 1_555
Zn1M N1M 1_555 1_555
Al1L_2 F2N 1_555 1_555
N1M C1M 1_555 1_555

#END
