
#######################################################################
#
#                 Cambridge Crystallographic Data Centre
#                                CCDC 
#
#######################################################################
#
# If this CIF has been generated from an entry in the Cambridge 
# Structural Database, then it will include bibliographic, chemical, 
# crystal, experimental, refinement or atomic coordinate data resulting 
# from the CCDC's data processing and validation procedures.
#
#######################################################################

data_OMACAH
_symmetry_cell_setting           monoclinic
_symmetry_space_group_name_H-M   'P 21/c'
_symmetry_Int_Tables_number      14
_space_group_name_Hall           '-P 2ybc'
loop_
_symmetry_equiv_pos_site_id
_symmetry_equiv_pos_as_xyz
1 x,y,z
2 -x,1/2+y,1/2-z
3 -x,-y,-z
4 x,1/2-y,1/2+z
_cell_length_a                   15.0103(19)
_cell_length_b                   16.738(2)
_cell_length_c                   10.8576(14)
_cell_angle_alpha                90
_cell_angle_beta                 102.245(2)
_cell_angle_gamma                90
_cell_volume                     2665.83
loop_
_atom_site_label
_atom_site_type_symbol
_atom_site_fract_x
_atom_site_fract_y
_atom_site_fract_z
Ni1 Ni 0.46795(3) 0.96979(3) 0.70891(5)
C1 C 0.3142(3) 0.9460(3) 0.7486(4)
C2 C 0.2186(3) 0.9417(3) 0.7700(4)
C3 C 0.1975(3) 0.9795(3) 0.8749(4)
H1 H 0.2422 1.0080 0.9300
C4 C 0.1101(3) 0.9748(3) 0.8972(5)
H2 H 0.0960 0.9996 0.9673
C5 C 0.0446(3) 0.9333(3) 0.8148(4)
C6 C 0.0628(3) 0.8960(3) 0.7094(5)
H3 H 0.0174 0.8685 0.6538
C7 C 0.1511(3) 0.9006(3) 0.6886(4)
H4 H 0.1648 0.8754 0.6185
C8 C -0.1218(3) 0.9281(3) 0.7685(4)
C9 C -0.1931(3) 0.8935(3) 0.8105(4)
H5 H -0.1821 0.8673 0.8878
C10 C -0.2806(3) 0.8972(3) 0.7391(4)
H6 H -0.3282 0.8750 0.7702
C11 C -0.2989(3) 0.9337(3) 0.6216(4)
C12 C -0.2265(3) 0.9693(3) 0.5807(5)
H7 H -0.2376 0.9948 0.5029
C13 C -0.1381(3) 0.9678(3) 0.6527(5)
H8 H -0.0908 0.9927 0.6244
C14 C -0.3926(3) 0.9362(3) 0.5410(4)
C15 C 0.4979(3) 0.8076(3) 0.8350(5)
H9 H 0.4663 0.7841 0.7610
C16 C 0.5622(3) 0.8948(3) 0.9649(4)
H10 H 0.5854 0.9426 1.0020
C17 C 0.6116(3) 0.8066(3) 1.1549(5)
H11 H 0.5927 0.7536 1.1752
H12 H 0.5897 0.8443 1.2095
C18 C 0.7140(3) 0.8097(3) 1.1817(5)
C19 C 0.7610(3) 0.8413(3) 1.2939(5)
H13 H 0.7288 0.8617 1.3512
C20 C 0.8559(3) 0.8435(3) 1.3233(5)
H14 H 0.8868 0.8637 1.4004
C21 C 0.9046(3) 0.8147(3) 1.2351(5)
C22 C 0.8570(3) 0.7837(3) 1.1224(5)
H15 H 0.8887 0.7638 1.0641
C23 C 0.7623(3) 0.7820(3) 1.0951(5)
H16 H 0.7312 0.7621 1.0180
C24 C 1.0069(3) 0.8159(3) 1.2611(4)
C25 C 1.0581(3) 0.7864(3) 1.3733(5)
H17 H 1.0294 0.7709 1.4375
C26 C 1.1515(3) 0.7802(3) 1.3899(5)
H18 H 1.1854 0.7606 1.4656
C27 C 1.1954(3) 0.8026(3) 1.2961(5)
C28 C 1.1448(3) 0.8354(3) 1.1864(5)
H19 H 1.1738 0.8533 1.1239
C29 C 1.0509(3) 0.8416(3) 1.1694(5)
H20 H 1.0173 0.8634 1.0952
C30 C 1.2961(3) 0.7843(3) 1.3114(5)
H21 H 1.3231 0.7803 1.4007
H22 H 1.3025 0.7327 1.2737
N1 N 1.4364(2) 0.9419(2) 1.2337(4)
N2 N 1.3420(3) 0.8508(3) 1.1301(5)
N3 N 0.5181(2) 0.8873(2) 0.8469(3)
N4 N 0.5276(3) 0.7687(3) 0.9380(5)
N5 N 0.5688(2) 0.8249(2) 1.0238(4)
C31 C 1.3964(3) 0.9115(3) 1.1211(4)
H23 H 1.4061 0.9311 1.0449
C32 C 1.4051(3) 0.8983(3) 1.3155(5)
H24 H 1.4210 0.9045 1.4025
N6 N 1.3469(2) 0.8434(2) 1.2553(4)
O1 O 0.36829(19) 0.99720(18) 0.8097(3)
O2 O 0.33904(19) 0.90199(19) 0.6685(3)
O3 O -0.46084(19) 0.9191(2) 0.5874(3)
O4 O -0.39782(19) 0.95510(19) 0.4274(3)
O5 O -0.0387(2) 0.9256(2) 0.8510(3)
Ni1B Ni 1.53205(3) 1.03021(3) 1.29109(5)
Ni1_2 Ni -0.53205(3) 0.96979(3) 0.70891(5)
Ni1B_2 Ni -0.46795(3) 1.03021(3) 0.29109(5)
N1B N 0.5636(2) 1.0581(2) 0.7663(4)
O3_2 O 0.53916(19) 0.9191(2) 0.5874(3)
O4B O 0.39782(19) 1.04490(19) 0.5726(3)
loop_
_geom_bond_atom_site_label_1
_geom_bond_atom_site_label_2
_geom_bond_site_symmetry_1
_geom_bond_site_symmetry_2
Ni1 N3 1_555 1_555
C1 C2 1_555 1_555
C2 C3 1_555 1_555
C3 H1 1_555 1_555
C4 C3 1_555 1_555
H2 C4 1_555 1_555
C5 C4 1_555 1_555
C6 C5 1_555 1_555
H3 C6 1_555 1_555
C7 C2 1_555 1_555
H4 C7 1_555 1_555
C8 C9 1_555 1_555
C9 H5 1_555 1_555
C10 C9 1_555 1_555
H6 C10 1_555 1_555
C11 C10 1_555 1_555
C12 C11 1_555 1_555
H7 C12 1_555 1_555
C13 C8 1_555 1_555
H8 C13 1_555 1_555
C14 C11 1_555 1_555
C15 H9 1_555 1_555
C16 H10 1_555 1_555
C17 H11 1_555 1_555
H12 C17 1_555 1_555
C18 C17 1_555 1_555
C19 C18 1_555 1_555
H13 C19 1_555 1_555
C20 C19 1_555 1_555
H14 C20 1_555 1_555
C21 C20 1_555 1_555
C22 C21 1_555 1_555
H15 C22 1_555 1_555
C23 C18 1_555 1_555
H16 C23 1_555 1_555
C24 C21 1_555 1_555
C25 C24 1_555 1_555
H17 C25 1_555 1_555
C26 C25 1_555 1_555
H18 C26 1_555 1_555
C27 C26 1_555 1_555
C28 C27 1_555 1_555
H19 C28 1_555 1_555
C29 C24 1_555 1_555
H20 C29 1_555 1_555
C30 C27 1_555 1_555
H21 C30 1_555 1_555
H22 C30 1_555 1_555
N1 C31 1_555 1_555
N2 C31 1_555 1_555
N3 C15 1_555 1_555
N4 C15 1_555 1_555
N5 C16 1_555 1_555
C31 H23 1_555 1_555
C32 N1 1_555 1_555
H24 C32 1_555 1_555
N6 C30 1_555 1_555
O1 Ni1 1_555 1_555
O2 Ni1 1_555 1_555
O3 C14 1_555 1_555
O4 C14 1_555 1_555
O5 C5 1_555 1_555
Ni1B N1 1_555 1_555
Ni1_2 O3 1_555 1_555
Ni1B_2 O4 1_555 1_555
N1B Ni1 1_555 1_555
O3_2 Ni1 1_555 1_555
O4B Ni1 1_555 1_555
C1 O1 1_555 1_555
C1 O2 1_555 1_555
C6 C7 1_555 1_555
C8 O5 1_555 1_555
C12 C13 1_555 1_555
C16 N3 1_555 1_555
C17 N5 1_555 1_555
C22 C23 1_555 1_555
C28 C29 1_555 1_555
N2 N6 1_555 1_555
N4 N5 1_555 1_555
C32 N6 1_555 1_555

#END
