
#######################################################################
#
#                 Cambridge Crystallographic Data Centre
#                                CCDC 
#
#######################################################################
#
# If this CIF has been generated from an entry in the Cambridge 
# Structural Database, then it will include bibliographic, chemical, 
# crystal, experimental, refinement or atomic coordinate data resulting 
# from the CCDC's data processing and validation procedures.
#
#######################################################################

data_OMACOV
_symmetry_cell_setting           monoclinic
_symmetry_space_group_name_H-M   'P 21'
_symmetry_Int_Tables_number      4
_space_group_name_Hall           'P 2yb'
loop_
_symmetry_equiv_pos_site_id
_symmetry_equiv_pos_as_xyz
1 x,y,z
2 -x,1/2+y,-z
_cell_length_a                   6.2057(10)
_cell_length_b                   16.634(3)
_cell_length_c                   14.671(3)
_cell_angle_alpha                90
_cell_angle_beta                 100.005(2)
_cell_angle_gamma                90
_cell_volume                     1491.39
loop_
_atom_site_label
_atom_site_type_symbol
_atom_site_fract_x
_atom_site_fract_y
_atom_site_fract_z
Cd1 Cd -0.16126(8) 1.08601(5) 1.38273(3)
C1 C 0.0969(15) 0.9355(7) 1.4842(7)
H1 H -0.0015 0.9375 1.5253
C2 C 0.2524(14) 0.9635(5) 1.3736(5)
H2 H 0.2938 0.9882 1.3225
C3 C 0.5279(13) 0.8485(6) 1.3952(5)
H3 H 0.5209 0.7954 1.4219
H4 H 0.6637 0.8735 1.4244
C4 C 0.5268(18) 0.8406(6) 1.2923(7)
C5 C 0.3572(14) 0.8021(5) 1.2339(6)
H5 H 0.2395 0.7819 1.2582
C6 C 0.3604(14) 0.7936(5) 1.1413(5)
H6 H 0.2429 0.7689 1.1037
C7 C 0.5354(13) 0.8210(5) 1.1024(6)
C8 C 0.703(2) 0.8563(7) 1.1606(8)
H7 H 0.8232 0.8747 1.1367
C9 C 0.7006(14) 0.8656(6) 1.2535(6)
H8 H 0.8198 0.8895 1.2909
C10 C 0.5299(15) 0.8139(4) 1.0016(7)
C11 C 0.3452(16) 0.8236(6) 0.9365(7)
H9 H 0.2149 0.8352 0.9569
C12 C 0.3409(18) 0.8172(7) 0.8432(8)
H10 H 0.2098 0.8246 0.8024
C13 C 0.5289(12) 0.8000(5) 0.8092(5)
C14 C 0.7174(14) 0.7880(6) 0.8721(6)
H11 H 0.8463 0.7755 0.8510
C15 C 0.7198(14) 0.7941(6) 0.9673(6)
H12 H 0.8493 0.7848 1.0084
C16 C 0.5102(16) 0.7967(6) 0.7070(7)
H13 H 0.3909 0.7608 0.6825
H14 H 0.4719 0.8498 0.6820
C17 C 0.7967(13) 0.6982(5) 0.6790(6)
H15 H 0.7494 0.6558 0.7118
C18 C 0.9723(13) 0.7685(5) 0.5997(5)
H16 H 1.0780 0.7846 0.5657
C19 C -0.3495(12) 1.0692(5) 1.2006(5)
C20 C -0.4898(12) 1.0658(5) 1.1064(4)
C21 C -0.6979(14) 1.0360(5) 1.0941(5)
H17 H -0.7535 1.0179 1.1453
C22 C -0.8261(13) 1.0320(5) 1.0089(6)
H18 H -0.9651 1.0094 1.0018
C23 C -0.7466(11) 1.0623(5) 0.9324(5)
C24 C -0.5385(12) 1.0928(7) 0.9428(4)
H19 H -0.4843 1.1121 0.8918
C25 C -0.4090(11) 1.0946(8) 1.0302(4)
H20 H -0.2677 1.1153 1.0377
C26 C -0.7726(11) 1.0760(8) 0.7387(4)
C27 C -0.8207(14) 1.1347(5) 0.6762(6)
H21 H -0.9346 1.1700 0.6807
C28 C -0.7034(14) 1.1434(5) 0.6054(5)
H22 H -0.7364 1.1848 0.5626
C29 C -0.5347(10) 1.0896(7) 0.5981(4)
C30 C -0.4879(13) 1.0306(5) 0.6619(5)
H23 H -0.3736 0.9954 0.6579
C31 C -0.6054(13) 1.0214(5) 0.7328(6)
H24 H -0.5739 0.9799 0.7756
C32 C -0.3979(12) 1.0982(7) 0.5219(5)
N1 N 0.0965(11) 0.9893(4) 1.4158(5)
N2 N 0.2448(14) 0.8812(5) 1.4879(6)
N3 N 0.3446(10) 0.8963(4) 1.4140(4)
N4 N 0.9591(11) 0.6933(4) 0.6328(5)
N5 N 0.8221(14) 0.8157(4) 0.6202(5)
N6 N 0.7102(10) 0.7694(4) 0.6733(4)
O1 O -0.4477(7) 1.0705(4) 1.2697(3)
O2 O -0.1480(8) 1.0708(4) 1.2087(3)
O3 O -0.3952(11) 1.1633(4) 0.4804(5)
O4 O -0.3039(10) 1.0371(4) 0.5015(5)
O5 O -1.0303(9) 0.9813(4) 0.8162(4)
O6 O -1.0767(10) 1.1303(4) 0.8244(4)
S1 S -0.9343(3) 1.06061(13) 0.82644(14)
Cd1A Cd 1.16126(8) 0.58601(5) 0.61727(3)
Cd1_2 Cd -0.16126(8) 1.08601(5) 0.38273(3)
N4A N 0.0409(11) 1.1933(4) 1.3672(5)
O4_2 O -0.3039(10) 1.0371(4) 1.5015(5)
loop_
_geom_bond_atom_site_label_1
_geom_bond_atom_site_label_2
_geom_bond_site_symmetry_1
_geom_bond_site_symmetry_2
Cd1 N1 1_555 1_555
C1 H1 1_555 1_555
C2 H2 1_555 1_555
C3 H3 1_555 1_555
H4 C3 1_555 1_555
C4 C3 1_555 1_555
C5 C4 1_555 1_555
H5 C5 1_555 1_555
C6 C5 1_555 1_555
H6 C6 1_555 1_555
C7 C6 1_555 1_555
C8 C7 1_555 1_555
H7 C8 1_555 1_555
C9 C4 1_555 1_555
H8 C9 1_555 1_555
C10 C7 1_555 1_555
C11 C10 1_555 1_555
H9 C11 1_555 1_555
C12 C11 1_555 1_555
H10 C12 1_555 1_555
C13 C12 1_555 1_555
C14 C13 1_555 1_555
H11 C14 1_555 1_555
C15 C10 1_555 1_555
H12 C15 1_555 1_555
C16 C13 1_555 1_555
H13 C16 1_555 1_555
H14 C16 1_555 1_555
C17 H15 1_555 1_555
C18 H16 1_555 1_555
C19 C20 1_555 1_555
C20 C21 1_555 1_555
C21 H17 1_555 1_555
C22 C21 1_555 1_555
H18 C22 1_555 1_555
C23 C22 1_555 1_555
C24 C23 1_555 1_555
H19 C24 1_555 1_555
C25 C20 1_555 1_555
H20 C25 1_555 1_555
C26 C27 1_555 1_555
C27 H21 1_555 1_555
C28 C27 1_555 1_555
H22 C28 1_555 1_555
C29 C28 1_555 1_555
C30 C29 1_555 1_555
H23 C30 1_555 1_555
C31 C26 1_555 1_555
H24 C31 1_555 1_555
C32 C29 1_555 1_555
N1 C1 1_555 1_555
N2 C1 1_555 1_555
N3 C2 1_555 1_555
N4 C17 1_555 1_555
N5 C18 1_555 1_555
N6 C16 1_555 1_555
O1 Cd1 1_555 1_555
O2 C19 1_555 1_555
O3 C32 1_555 1_555
O4 C32 1_555 1_555
O5 S1 1_555 1_555
O6 S1 1_555 1_555
S1 C23 1_555 1_555
Cd1A N4 1_555 1_555
Cd1_2 O4 1_555 1_555
N4A Cd1 1_555 1_555
O4_2 Cd1 1_555 1_555
C2 N1 1_555 1_555
C3 N3 1_555 1_555
C8 C9 1_555 1_555
C14 C15 1_555 1_555
C17 N6 1_555 1_555
C18 N4 1_555 1_555
C19 O1 1_555 1_555
C24 C25 1_555 1_555
C26 S1 1_555 1_555
C30 C31 1_555 1_555
N2 N3 1_555 1_555
N5 N6 1_555 1_555

#END
