
#######################################################################
#
#                 Cambridge Crystallographic Data Centre
#                                CCDC 
#
#######################################################################
#
# If this CIF has been generated from an entry in the Cambridge 
# Structural Database, then it will include bibliographic, chemical, 
# crystal, experimental, refinement or atomic coordinate data resulting 
# from the CCDC's data processing and validation procedures.
#
#######################################################################

data_OMAFOY
_symmetry_cell_setting           monoclinic
_symmetry_space_group_name_H-M   'P 21/c'
_symmetry_Int_Tables_number      14
_space_group_name_Hall           '-P 2ybc'
loop_
_symmetry_equiv_pos_site_id
_symmetry_equiv_pos_as_xyz
1 x,y,z
2 -x,1/2+y,1/2-z
3 -x,-y,-z
4 x,1/2-y,1/2+z
_cell_length_a                   9.4191(19)
_cell_length_b                   12.478(3)
_cell_length_c                   17.794(5)
_cell_angle_alpha                90
_cell_angle_beta                 115.00(2)
_cell_angle_gamma                90
_cell_volume                     1895.41
loop_
_atom_site_label
_atom_site_type_symbol
_atom_site_fract_x
_atom_site_fract_y
_atom_site_fract_z
Co1 Co 1.20504(3) 0.918420(19) 0.745780(15)
O1 O 0.94693(17) 0.90889(11) 0.72921(9)
O2 O 1.06654(16) 1.05723(11) 0.72180(9)
O3 O 0.41635(16) 0.96961(11) 0.75146(9)
O4 O 0.38779(18) 1.13545(12) 0.79017(10)
N1 N 0.73873(19) 1.25641(13) 0.73794(10)
N2 N 1.1314(2) 0.89224(14) 0.61969(10)
N3 N 0.9822(2) 0.85024(15) 0.48968(11)
N4 N 0.7376(2) 0.43949(13) 0.62924(10)
N5 N 0.7073(2) 0.52174(15) 0.51365(11)
C1 C 0.8404(2) 1.18803(15) 0.72952(12)
H1 H 0.9263 1.2160 0.7233
C2 C 0.8244(2) 1.07756(15) 0.72966(12)
C3 C 0.9520(2) 1.00955(15) 0.72551(12)
C4 C 0.6959(2) 1.03593(15) 0.73903(11)
H2 H 0.6804 0.9622 0.7382
C5 C 0.5913(2) 1.10542(15) 0.74957(12)
C6 C 0.6174(2) 1.21476(16) 0.74872(12)
H3 H 0.5473 1.2615 0.7560
C7 C 0.4531(2) 1.06803(15) 0.76519(12)
C8 C 1.2202(3) 0.8928(2) 0.57530(14)
H4 H 1.3266 0.9086 0.5970
C9 C 1.1302(3) 0.8673(2) 0.49545(15)
H5 H 1.1623 0.8622 0.4528
C10 C 0.9893(3) 0.86627(18) 0.56577(13)
H6 H 0.9040 0.8598 0.5788
C11 C 0.8432(3) 0.82009(19) 0.41511(13)
H7 H 0.8321 0.8687 0.3704
H8 H 0.7511 0.8278 0.4260
C12 C 0.8509(3) 0.70557(19) 0.38756(14)
H9 H 0.9434 0.6987 0.3770
H10 H 0.7604 0.6931 0.3355
C13 C 0.8559(3) 0.6182(2) 0.44861(15)
H11 H 0.8786 0.5500 0.4298
H12 H 0.9403 0.6336 0.5024
C14 C 0.7045(3) 0.6089(2) 0.45777(15)
H13 H 0.6842 0.6760 0.4790
H14 H 0.6194 0.5967 0.4036
C15 C 0.6682(3) 0.4168(2) 0.49381(14)
H15 H 0.6348 0.3858 0.4416
C16 C 0.6875(3) 0.36661(19) 0.56497(13)
H16 H 0.6697 0.2941 0.5698
C17 C 0.7471(3) 0.53146(18) 0.59509(13)
H17 H 0.7778 0.5956 0.6241
Co1_2 Co 0.20504(3) 0.918420(19) 0.745780(15)
Co1A Co 0.79496(3) 0.418420(19) 0.754220(15)
Co1A_2 Co 0.79496(3) 1.418420(19) 0.754220(15)
O3_2 O 1.41635(16) 0.96961(11) 0.75146(9)
N1A N 1.26127(19) 0.75641(13) 0.76206(10)
N4A N 1.2624(2) 0.93949(13) 0.87076(10)
O5 O 0.6795(3) 0.79681(17) 0.62726(13)
H18 H 0.7677 0.8295 0.6680
H19 H 0.6448 0.7368 0.6531
O6 O 0.5047(6) 0.6160(4) 0.9751(3)
H20 H 0.538(8) 0.637(6) 1.0261(16)
H21 H 0.553(8) 0.556(3) 0.989(5)
loop_
_geom_bond_atom_site_label_1
_geom_bond_atom_site_label_2
_geom_bond_site_symmetry_1
_geom_bond_site_symmetry_2
Co1 O1 1_555 1_555
O1 C3 1_555 1_555
O2 Co1 1_555 1_555
O3 C7 1_555 1_555
O4 C7 1_555 1_555
N1 C1 1_555 1_555
N2 Co1 1_555 1_555
N3 C9 1_555 1_555
N4 C16 1_555 1_555
N5 C14 1_555 1_555
C1 H1 1_555 1_555
C2 C1 1_555 1_555
C3 O2 1_555 1_555
C4 C2 1_555 1_555
H2 C4 1_555 1_555
C5 C4 1_555 1_555
C6 N1 1_555 1_555
H3 C6 1_555 1_555
C7 C5 1_555 1_555
C8 N2 1_555 1_555
H4 C8 1_555 1_555
C9 C8 1_555 1_555
H5 C9 1_555 1_555
C10 N2 1_555 1_555
H6 C10 1_555 1_555
C11 N3 1_555 1_555
H7 C11 1_555 1_555
H8 C11 1_555 1_555
C12 C11 1_555 1_555
H9 C12 1_555 1_555
H10 C12 1_555 1_555
C13 C12 1_555 1_555
H11 C13 1_555 1_555
H12 C13 1_555 1_555
C14 C13 1_555 1_555
H13 C14 1_555 1_555
H14 C14 1_555 1_555
C15 N5 1_555 1_555
H15 C15 1_555 1_555
C16 C15 1_555 1_555
H16 C16 1_555 1_555
C17 N4 1_555 1_555
H17 C17 1_555 1_555
O5 H18 1_555 1_555
H19 O5 1_555 1_555
O6 H20 1_555 1_555
H21 O6 1_555 1_555
Co1_2 O3 1_555 1_555
Co1A N4 1_555 1_555
Co1A_2 N1 1_555 1_555
O3_2 Co1 1_555 1_555
N1A Co1 1_555 1_555
N4A Co1 1_555 1_555
N3 C10 1_555 1_555
N5 C17 1_555 1_555
C2 C3 1_555 1_555
C5 C6 1_555 1_555

#END
