
#######################################################################
#
#                 Cambridge Crystallographic Data Centre
#                                CCDC 
#
#######################################################################
#
# If this CIF has been generated from an entry in the Cambridge 
# Structural Database, then it will include bibliographic, chemical, 
# crystal, experimental, refinement or atomic coordinate data resulting 
# from the CCDC's data processing and validation procedures.
#
#######################################################################

data_OMARAV
_symmetry_cell_setting           triclinic
_symmetry_space_group_name_H-M   'P -1'
_symmetry_Int_Tables_number      2
_space_group_name_Hall           '-P 1'
loop_
_symmetry_equiv_pos_site_id
_symmetry_equiv_pos_as_xyz
1 x,y,z
2 -x,-y,-z
_cell_length_a                   6.96700(10)
_cell_length_b                   10.19600(10)
_cell_length_c                   11.0340(2)
_cell_angle_alpha                63.3090(7)
_cell_angle_beta                 84.6170(7)
_cell_angle_gamma                85.9780(10)
_cell_volume                     696.851
loop_
_atom_site_label
_atom_site_type_symbol
_atom_site_fract_x
_atom_site_fract_y
_atom_site_fract_z
Ca1 Ca 0.23105(7) -0.03141(5) 0.22608(5)
S1 S -0.27696(9) -0.15356(7) 0.33915(6)
S2 S -0.24971(9) -0.60407(7) 0.20444(6)
C1 C -0.2625(4) -0.3456(3) 0.3918(3)
C2 C -0.2611(4) -0.3944(3) 0.2934(3)
H1 H -0.2651 -0.3262 0.2002
C3 C -0.2538(4) -0.5448(3) 0.3325(3)
C4 C -0.2479(4) -0.6456(3) 0.4701(3)
C5 C -0.2473(3) -0.5933(3) 0.5677(3)
C6 C -0.2560(4) -0.4435(3) 0.5292(3)
H2 H -0.2575 -0.4081 0.5956
O1 O -0.0947(3) -0.0970(2) 0.2633(2)
O2 O -0.4329(3) -0.0981(2) 0.24752(19)
O3 O -0.3160(4) -0.1323(2) 0.4598(2)
O4 O -0.3520(3) -0.4913(2) 0.0937(2)
O5 O -0.0458(3) -0.6194(2) 0.1648(2)
O6 O -0.3431(3) -0.7454(2) 0.2678(2)
O7 O -0.2426(3) -0.7949(2) 0.5179(2)
H3 H -0.282(6) -0.811(5) 0.456(3)
O8 O -0.2422(3) -0.6970(2) 0.69985(18)
H4 H -0.244(6) -0.651(4) 0.747(4)
O9 O 0.0609(3) 0.1779(2) 0.0432(2)
H5 H -0.035(4) 0.158(5) 0.013(5)
H6 H 0.031(5) 0.251(3) 0.060(4)
O10 O 0.4415(3) 0.1920(2) 0.0945(2)
H7 H 0.506(5) 0.208(4) 0.148(3)
H8 H 0.390(6) 0.273(2) 0.039(3)
O11 O 0.2715(3) -0.0712(2) 0.02519(19)
H9 H 0.349(5) -0.132(3) 0.011(4)
H10 H 0.256(6) 0.005(3) -0.049(2)
O12 O 0.1419(4) 0.1105(3) 0.3412(2)
H11 H 0.181(6) 0.106(4) 0.414(2)
H12 H 0.094(8) 0.196(2) 0.294(4)
O8A O 0.2422(3) -0.3030(2) 0.30015(18)
Ca1A Ca -0.23105(7) -0.96859(5) 0.77392(5)
O7A O 0.2426(3) -0.2051(2) 0.4821(2)
H4A H 0.244(6) -0.349(4) 0.253(4)
O2_2 O 0.5671(3) -0.0981(2) 0.24752(19)
H3A H 0.282(6) -0.189(5) 0.544(3)
Ca1_2 Ca -0.76895(7) -0.03141(5) 0.22608(5)
O13 O 0.2432(3) -0.4224(2) 0.1352(2)
H13 H 0.352(2) -0.447(4) 0.109(4)
H14 H 0.158(3) -0.477(4) 0.133(5)
loop_
_geom_bond_atom_site_label_1
_geom_bond_atom_site_label_2
_geom_bond_site_symmetry_1
_geom_bond_site_symmetry_2
Ca1 O1 1_555 1_555
S1 C1 1_555 1_555
S2 C3 1_555 1_555
C1 C2 1_555 1_555
C2 H1 1_555 1_555
C3 C2 1_555 1_555
C4 C3 1_555 1_555
C5 C4 1_555 1_555
C6 C1 1_555 1_555
H2 C6 1_555 1_555
O1 S1 1_555 1_555
O2 S1 1_555 1_555
O3 S1 1_555 1_555
O4 S2 1_555 1_555
O5 S2 1_555 1_555
O6 S2 1_555 1_555
O7 C4 1_555 1_555
H3 O7 1_555 1_555
O8 C5 1_555 1_555
H4 O8 1_555 1_555
O9 Ca1 1_555 1_555
H5 O9 1_555 1_555
H6 O9 1_555 1_555
O10 Ca1 1_555 1_555
H7 O10 1_555 1_555
H8 O10 1_555 1_555
O11 Ca1 1_555 1_555
H9 O11 1_555 1_555
H10 O11 1_555 1_555
O12 Ca1 1_555 1_555
H11 O12 1_555 1_555
H12 O12 1_555 1_555
O13 H13 1_555 1_555
H14 O13 1_555 1_555
O8A Ca1 1_555 1_555
Ca1A O7 1_555 1_555
O7A Ca1 1_555 1_555
H4A O8A 1_555 1_555
O2_2 Ca1 1_555 1_555
H3A O7A 1_555 1_555
Ca1_2 O2 1_555 1_555
C5 C6 1_555 1_555
O8 Ca1A 1_555 1_555

#END
