
#######################################################################
#
#                 Cambridge Crystallographic Data Centre
#                                CCDC 
#
#######################################################################
#
# If this CIF has been generated from an entry in the Cambridge 
# Structural Database, then it will include bibliographic, chemical, 
# crystal, experimental, refinement or atomic coordinate data resulting 
# from the CCDC's data processing and validation procedures.
#
#######################################################################

data_OMAXIK
_symmetry_cell_setting           orthorhombic
_symmetry_space_group_name_H-M   'P 21 21 21'
_symmetry_Int_Tables_number      19
_space_group_name_Hall           'P 2ac 2ab'
loop_
_symmetry_equiv_pos_site_id
_symmetry_equiv_pos_as_xyz
1 x,y,z
2 1/2-x,-y,1/2+z
3 -x,1/2+y,1/2-z
4 1/2+x,1/2-y,-z
_cell_length_a                   7.7095(12)
_cell_length_b                   10.9140(17)
_cell_length_c                   14.571(2)
_cell_angle_alpha                90
_cell_angle_beta                 90
_cell_angle_gamma                90
_cell_volume                     1226.03
loop_
_atom_site_label
_atom_site_type_symbol
_atom_site_fract_x
_atom_site_fract_y
_atom_site_fract_z
Ag1 Ag 0.69450(5) 0.40877(4) 0.84211(3)
S1 S 0.52324(17) 0.35928(11) 0.43543(8)
O1 O 0.4149(6) 0.2692(3) 0.4769(3)
O2 O 0.6420(5) 0.3270(3) 0.3641(2)
N1 N 0.7158(6) 0.4527(4) 0.6807(3)
N2 N 0.7659(5) 0.5100(4) 0.4961(3)
N3 N 0.1181(6) 0.5712(4) 0.3639(3)
N4 N 0.4762(5) 0.5637(4) 0.3445(3)
C1 C 0.6162(7) 0.4032(5) 0.6158(3)
H1 H 0.5276 0.3495 0.6319
C2 C 0.6444(6) 0.4316(4) 0.5240(3)
C3 C 0.8611(7) 0.5603(5) 0.5621(4)
H2 H 0.9456 0.6176 0.5468
C4 C 0.8369(7) 0.5291(5) 0.6533(4)
H3 H 0.9096 0.5638 0.6972
C5 C 0.3893(6) 0.4789(4) 0.3918(3)
C6 C 0.2110(7) 0.4818(5) 0.4020(4)
H4 H 0.1556 0.4210 0.4358
C7 C 0.2040(8) 0.6548(5) 0.3173(4)
H5 H 0.1423 0.7185 0.2902
C8 C 0.3807(7) 0.6518(5) 0.3070(4)
H6 H 0.4350 0.7129 0.2730
N5 N 0.7066(7) 0.1286(5) 0.8626(4)
O3 O 0.7468(12) 0.1862(5) 0.7954(5)
O4 O 0.6364(14) 0.1858(6) 0.9232(5)
O5 O 0.7347(7) 0.0188(4) 0.8702(4)
Ag1A Ag 0.80550(5) 0.59123(4) 0.34211(3)
Ag1A_2 Ag -0.19450(5) 0.59123(4) 0.34211(3)
N2A N 0.7341(5) 0.4900(4) 0.9961(3)
N3A N 0.3819(6) 0.4288(4) 0.8639(3)
N4A N 1.0238(5) 0.4363(4) 0.8445(3)
loop_
_geom_bond_atom_site_label_1
_geom_bond_atom_site_label_2
_geom_bond_site_symmetry_1
_geom_bond_site_symmetry_2
Ag1 N1 1_555 1_555
S1 O1 1_555 1_555
O2 S1 1_555 1_555
N1 C1 1_555 1_555
N2 C2 1_555 1_555
N3 C6 1_555 1_555
N4 C5 1_555 1_555
C1 H1 1_555 1_555
C2 S1 1_555 1_555
C3 N2 1_555 1_555
H2 C3 1_555 1_555
C4 N1 1_555 1_555
H3 C4 1_555 1_555
C5 S1 1_555 1_555
C6 C5 1_555 1_555
H4 C6 1_555 1_555
C7 N3 1_555 1_555
H5 C7 1_555 1_555
C8 N4 1_555 1_555
H6 C8 1_555 1_555
N5 O3 1_555 1_555
O3 Ag1 1_555 1_555
O4 N5 1_555 1_555
O5 N5 1_555 1_555
Ag1A N2 1_555 1_555
Ag1A_2 N3 1_555 1_555
N2A Ag1 1_555 1_555
N3A Ag1 1_555 1_555
N4A Ag1 1_555 1_555
N4 Ag1A 1_555 1_555
C1 C2 1_555 1_555
C3 C4 1_555 1_555
C7 C8 1_555 1_555

#END
