
#######################################################################
#
#                 Cambridge Crystallographic Data Centre
#                                CCDC 
#
#######################################################################
#
# If this CIF has been generated from an entry in the Cambridge 
# Structural Database, then it will include bibliographic, chemical, 
# crystal, experimental, refinement or atomic coordinate data resulting 
# from the CCDC's data processing and validation procedures.
#
#######################################################################

data_OMEBIS
_symmetry_cell_setting           monoclinic
_symmetry_space_group_name_H-M   'C 2/c'
_symmetry_Int_Tables_number      15
_space_group_name_Hall           '-C 2yn'
loop_
_symmetry_equiv_pos_site_id
_symmetry_equiv_pos_as_xyz
1 x,y,z
2 -x,y,1/2-z
3 1/2+x,1/2+y,z
4 1/2-x,1/2+y,1/2-z
5 -x,-y,-z
6 x,-y,1/2+z
7 1/2-x,1/2-y,-z
8 1/2+x,1/2-y,1/2+z
_cell_length_a                   22.880(5)
_cell_length_b                   12.496(3)
_cell_length_c                   22.617(8)
_cell_angle_alpha                90
_cell_angle_beta                 143.126(12)
_cell_angle_gamma                90
_cell_volume                     3880.21
loop_
_atom_site_label
_atom_site_type_symbol
_atom_site_fract_x
_atom_site_fract_y
_atom_site_fract_z
Zn1 Zn -0.17161(2) 0.36443(3) 0.66099(2)
O1 O -0.04294(15) 0.42765(19) 0.78568(15)
O2 O -0.09606(16) 0.4747(2) 0.83224(17)
O3 O 0.32855(16) 0.68380(19) 1.16940(17)
O4 O 0.73637(15) 0.48607(17) 1.57406(14)
O5 O 0.66673(17) 0.33848(18) 1.48544(16)
O6 O -0.11049(17) 0.3083(2) 0.63659(18)
H1 H -0.1280 0.2601 0.5987
N1 N -0.20678(19) 0.2550(2) 0.69298(19)
N2 N -0.2090(2) 0.1653(2) 0.7747(2)
C1 C -0.0341(2) 0.4770(3) 0.8427(2)
C2 C 0.0600(2) 0.5360(2) 0.9271(2)
C3 C 0.1179(2) 0.5636(3) 0.9257(2)
H2 H 0.0966 0.5479 0.8704
C4 C 0.2070(2) 0.6143(3) 1.0059(3)
H3 H 0.2444 0.6350 1.0039
C5 C 0.2389(2) 0.6336(2) 1.0888(2)
C6 C 0.1824(3) 0.6082(3) 1.0914(2)
H4 H 0.2047 0.6225 1.1474
C7 C 0.0918(2) 0.5609(3) 1.0096(2)
H5 H 0.0523 0.5460 1.0100
C8 C 0.4076(2) 0.6191(3) 1.2456(2)
C9 C 0.4929(2) 0.6711(3) 1.3305(2)
H6 H 0.4944 0.7454 1.3335
C10 C 0.5755(2) 0.6132(2) 1.4104(2)
H7 H 0.6321 0.6486 1.4676
C11 C 0.5749(2) 0.5014(2) 1.4060(2)
C12 C 0.4894(2) 0.4504(3) 1.3199(2)
H8 H 0.4885 0.3762 1.3160
C13 C 0.4050(2) 0.5079(3) 1.2394(2)
H9 H 0.3479 0.4729 1.1824
C14 C 0.6638(2) 0.4375(3) 1.4923(2)
C15 C -0.2925(3) 0.1394(3) 0.6778(3)
H10 H -0.3410 0.0928 0.6513
C16 C -0.2908(3) 0.1949(3) 0.6276(3)
H11 H -0.3387 0.1927 0.5597
C17 C -0.1594(2) 0.2342(3) 0.7809(2)
H12 H -0.0994 0.2637 0.8394
C18 C -0.1803(3) 0.1227(3) 0.8566(3)
H13 H -0.2318 0.0769 0.8296
H14 H -0.1729 0.1818 0.8900
C19 C -0.0862(3) 0.0597(3) 0.9307(3)
C20 C 0.0021(3) 0.1094(3) 1.0116(3)
H15 H 0.0042 0.1828 1.0199
C21 C -0.0886(3) -0.0502(3) 0.9187(3)
H16 H -0.1479 -0.0843 0.8643
H17 H -0.0631 0.3452 0.6641
Zn1_2 Zn -1.17161(2) 0.36443(3) -0.33901(2)
Zn1_3 Zn 0.82839(2) 0.36443(3) 1.66099(2)
Zn1D Zn 0.17161(2) -0.36443(3) 1.33901(2)
O1_2 O -1.04294(15) 0.42765(19) -0.21432(15)
O2_2 O -1.09606(16) 0.4747(2) -0.16776(17)
O3_2 O -0.67145(16) 0.68380(19) 0.16940(17)
O4_2 O -0.26363(15) 0.48607(17) 0.57406(14)
O4_3 O -1.26363(15) 0.48607(17) -0.42594(14)
O5_2 O -0.33327(17) 0.33848(18) 0.48544(16)
O5_3 O -1.33327(17) 0.33848(18) -0.51456(16)
O6_2 O -1.11049(17) 0.3083(2) -0.36341(18)
H1_2 H -1.1280 0.2601 -0.4013
N1D N 0.20678(19) -0.2550(2) 1.30702(19)
N1_2 N -1.20678(19) 0.2550(2) -0.30702(19)
N2D N 0.2090(2) -0.1653(2) 1.2253(2)
C1_2 C -1.0341(2) 0.4770(3) -0.1573(2)
C2_2 C -0.9400(2) 0.5360(2) -0.0729(2)
C3_2 C -0.8821(2) 0.5636(3) -0.0743(2)
H2_2 H -0.9034 0.5479 -0.1296
C4_2 C -0.7930(2) 0.6143(3) 0.0059(3)
H3_2 H -0.7556 0.6350 0.0039
C5_2 C -0.7611(2) 0.6336(2) 0.0888(2)
C6_2 C -0.8176(3) 0.6082(3) 0.0914(2)
H4_2 H -0.7953 0.6225 0.1474
C7_2 C -0.9082(2) 0.5609(3) 0.0096(2)
H5_2 H -0.9477 0.5460 0.0100
C8_2 C -0.5924(2) 0.6191(3) 0.2456(2)
C9_2 C -0.5071(2) 0.6711(3) 0.3305(2)
H6_2 H -0.5056 0.7454 0.3335
C10_2 C -0.4245(2) 0.6132(2) 0.4104(2)
H7_2 H -0.3679 0.6486 0.4676
C11_2 C -0.4251(2) 0.5014(2) 0.4060(2)
C12_2 C -0.5106(2) 0.4504(3) 0.3199(2)
H8_2 H -0.5115 0.3762 0.3160
C13_2 C -0.5950(2) 0.5079(3) 0.2394(2)
H9_2 H -0.6521 0.4729 0.1824
C14_2 C -0.3362(2) 0.4375(3) 0.4923(2)
C15D C 0.2925(3) -0.1394(3) 1.3222(3)
H10D H 0.3410 -0.0928 1.3487
C16D C 0.2908(3) -0.1949(3) 1.3724(3)
H11D H 0.3387 -0.1927 1.4403
C17D C 0.1594(2) -0.2342(3) 1.2191(2)
H12D H 0.0994 -0.2637 1.1606
C18D C 0.1803(3) -0.1227(3) 1.1434(3)
H13D H 0.2318 -0.0769 1.1704
H14D H 0.1729 -0.1818 1.1100
C19D C 0.0862(3) -0.0597(3) 1.0693(3)
C20D C -0.0021(3) -0.1094(3) 0.9884(3)
H15D H -0.0042 -0.1828 0.9801
C21D C 0.0886(3) 0.0502(3) 1.0813(3)
H16D H 0.1479 0.0843 1.1357
H17_2 H -1.0631 0.3452 -0.3359
loop_
_geom_bond_atom_site_label_1
_geom_bond_atom_site_label_2
_geom_bond_site_symmetry_1
_geom_bond_site_symmetry_2
Zn1 O1 1_555 1_555
O1 C1 1_555 1_555
O2 C1 1_555 1_555
O3 C5 1_555 1_555
O4 C14 1_555 1_555
O5 C14 1_555 1_555
O6 Zn1 1_555 1_555
H1 O6 1_555 1_555
N1 Zn1 1_555 1_555
N2 C15 1_555 1_555
C1 C2 1_555 1_555
C2 C3 1_555 1_555
C3 H2 1_555 1_555
C4 C3 1_555 1_555
H3 C4 1_555 1_555
C5 C4 1_555 1_555
C6 C5 1_555 1_555
H4 C6 1_555 1_555
C7 C2 1_555 1_555
H5 C7 1_555 1_555
C8 O3 1_555 1_555
C9 C8 1_555 1_555
H6 C9 1_555 1_555
C10 C9 1_555 1_555
H7 C10 1_555 1_555
C11 C10 1_555 1_555
C12 C11 1_555 1_555
H8 C12 1_555 1_555
C13 C8 1_555 1_555
H9 C13 1_555 1_555
C14 C11 1_555 1_555
C15 H10 1_555 1_555
C16 N1 1_555 1_555
H11 C16 1_555 1_555
C17 N1 1_555 1_555
H12 C17 1_555 1_555
C18 N2 1_555 1_555
H13 C18 1_555 1_555
H14 C18 1_555 1_555
C19 C18 1_555 1_555
C20 C19 1_555 1_555
H15 C20 1_555 1_555
C21 C19 1_555 1_555
H16 C21 1_555 1_555
H17 O6 1_555 1_555
Zn1_2 O1_2 1_555 1_555
Zn1_3 O4 1_555 1_555
Zn1D N1D 1_555 1_555
O1_2 C1_2 1_555 1_555
O2_2 C1_2 1_555 1_555
O3_2 C5_2 1_555 1_555
O4_2 Zn1 1_555 1_555
O4_3 Zn1_2 1_555 1_555
O5_2 Zn1 1_555 1_555
O5_3 Zn1_2 1_555 1_555
O6_2 Zn1_2 1_555 1_555
H1_2 O6_2 1_555 1_555
N1D C16D 1_555 1_555
N1_2 Zn1_2 1_555 1_555
N2D C15D 1_555 1_555
C1_2 C2_2 1_555 1_555
C2_2 C3_2 1_555 1_555
C3_2 H2_2 1_555 1_555
C4_2 C3_2 1_555 1_555
H3_2 C4_2 1_555 1_555
C5_2 C4_2 1_555 1_555
C6_2 C5_2 1_555 1_555
H4_2 C6_2 1_555 1_555
C7_2 C2_2 1_555 1_555
H5_2 C7_2 1_555 1_555
C8_2 O3_2 1_555 1_555
C9_2 C8_2 1_555 1_555
H6_2 C9_2 1_555 1_555
C10_2 C9_2 1_555 1_555
H7_2 C10_2 1_555 1_555
C11_2 C10_2 1_555 1_555
C12_2 C11_2 1_555 1_555
H8_2 C12_2 1_555 1_555
C13_2 C8_2 1_555 1_555
H9_2 C13_2 1_555 1_555
C14_2 O4_2 1_555 1_555
C15D H10D 1_555 1_555
C16D C15D 1_555 1_555
H11D C16D 1_555 1_555
C17D N1D 1_555 1_555
H12D C17D 1_555 1_555
C18D N2D 1_555 1_555
H13D C18D 1_555 1_555
H14D C18D 1_555 1_555
C19D C18D 1_555 1_555
C20D C21 1_555 1_555
H15D C20D 1_555 1_555
C21D C20 1_555 1_555
H16D C21D 1_555 1_555
H17_2 O6_2 1_555 1_555
O5 Zn1_3 1_555 1_555
N2 C17 1_555 1_555
C6 C7 1_555 1_555
C12 C13 1_555 1_555
C15 C16 1_555 1_555
O5_2 C14_2 1_555 1_555
N2D C17D 1_555 1_555
C6_2 C7_2 1_555 1_555
C11_2 C14_2 1_555 1_555
C12_2 C13_2 1_555 1_555
C19D C20D 1_555 1_555
C19D C21D 1_555 1_555

#END
