
#######################################################################
#
#                 Cambridge Crystallographic Data Centre
#                                CCDC 
#
#######################################################################
#
# If this CIF has been generated from an entry in the Cambridge 
# Structural Database, then it will include bibliographic, chemical, 
# crystal, experimental, refinement or atomic coordinate data resulting 
# from the CCDC's data processing and validation procedures.
#
#######################################################################

data_OMEBAK
_symmetry_cell_setting           triclinic
_symmetry_space_group_name_H-M   'P -1'
_symmetry_Int_Tables_number      2
_space_group_name_Hall           '-P 1'
loop_
_symmetry_equiv_pos_site_id
_symmetry_equiv_pos_as_xyz
1 x,y,z
2 -x,-y,-z
_cell_length_a                   8.8207(18)
_cell_length_b                   11.273(2)
_cell_length_c                   14.120(3)
_cell_angle_alpha                112.20(3)
_cell_angle_beta                 98.62(3)
_cell_angle_gamma                98.91(3)
_cell_volume                     1250.49
loop_
_atom_site_label
_atom_site_type_symbol
_atom_site_fract_x
_atom_site_fract_y
_atom_site_fract_z
C1 C 0.1765(4) 1.5711(4) 1.7078(2)
C2 C 0.2636(4) 1.4717(4) 1.6503(2)
C3 C 0.2528(5) 1.4364(4) 1.5437(3)
H1 H 0.1852 1.4681 1.5070
C4 C 0.3425(5) 1.3541(5) 1.4922(3)
H2 H 0.3368 1.3309 1.4209
C5 C 0.4410(4) 1.3063(4) 1.5476(3)
C6 C 0.4481(5) 1.3366(4) 1.6518(3)
H3 H 0.5101 1.3001 1.6874
C7 C 0.3619(5) 1.4223(4) 1.7031(3)
H4 H 0.3704 1.4471 1.7748
C8 C 0.4764(4) 1.1336(4) 1.3978(3)
C9 C 0.5358(4) 1.1464(4) 1.3163(3)
H5 H 0.6203 1.2153 1.3292
C10 C 0.4668(5) 1.0543(4) 1.2149(3)
H6 H 0.5043 1.0621 1.1588
C11 C 0.3432(4) 0.9514(4) 1.1962(3)
C12 C 0.2920(5) 0.9371(5) 1.2806(3)
H7 H 0.2127 0.8651 1.2690
C13 C 0.3589(5) 1.0299(5) 1.3815(3)
H8 H 0.3237 1.0216 1.4380
C14 C 0.2556(5) 0.8557(4) 1.0867(3)
C15 C 0.0782(4) 0.8793(3) 0.7122(2)
H9 H 0.0328 0.7950 0.6606
C16 C 0.1888(5) 1.0403(4) 0.8621(3)
H10 H 0.2332 1.0873 0.9336
C17 C 0.1698(6) 1.0932(4) 0.7902(3)
H11 H 0.1993 1.1816 0.8029
C18 C 0.0246(5) 1.1111(4) 0.5921(3)
H12 H 0.0409 1.1860 0.6540
C19 C 0.0511(4) 0.9958(3) 0.5959(2)
C20 C 0.0266(5) 0.8842(4) 0.5041(2)
H13 H 0.0442 0.8062 0.5067
C21 C -0.1501(4) 0.6496(4) 0.9276(3)
H14 H -0.0899 0.6119 0.9632
C22 C -0.2203(4) 0.7575(4) 0.8381(3)
H15 H -0.2159 0.8084 0.7994
C23 C -0.3513(4) 0.7081(4) 0.8604(3)
H16 H -0.4522 0.7189 0.8417
C24 C -0.4048(4) 0.5680(3) 0.9600(2)
C25 C -0.3810(4) 0.4491(4) 0.9572(3)
H17 H -0.3007 0.4152 0.9286
C26 C -0.5227(4) 0.6197(4) 1.0028(3)
H18 H -0.5375 0.7004 1.0047
N1 N 0.1320(3) 0.9069(3) 0.81249(19)
N2 N 0.0981(3) 0.9896(3) 0.69488(19)
N3 N -0.0932(3) 0.7223(3) 0.8805(2)
N4 N -0.3061(3) 0.6373(3) 0.9173(2)
O1 O 0.5409(3) 1.2277(3) 1.4998(2)
O2 O 0.0651(3) 1.5949(3) 1.65988(19)
O3 O 0.2310(3) 1.6313(3) 1.80670(17)
O4 O 0.2804(3) 0.8881(3) 1.01385(19)
O5 O 0.1652(3) 0.7510(3) 1.0733(2)
Zn1 Zn 0.13359(4) 0.77401(4) 0.87784(3)
C1_2 C 0.1765(4) 0.5711(4) 0.7078(2)
C2_2 C 0.2636(4) 0.4717(4) 0.6503(2)
C3_2 C 0.2528(5) 0.4364(4) 0.5437(3)
H1_2 H 0.1852 0.4681 0.5070
C4_2 C 0.3425(5) 0.3541(5) 0.4922(3)
H2_2 H 0.3368 0.3309 0.4209
C5_2 C 0.4410(4) 0.3063(4) 0.5476(3)
C6_2 C 0.4481(5) 0.3366(4) 0.6518(3)
H3_2 H 0.5101 0.3001 0.6874
C7_2 C 0.3619(5) 0.4223(4) 0.7031(3)
H4_2 H 0.3704 0.4471 0.7748
C8_2 C 0.4764(4) 0.1336(4) 0.3978(3)
C9_2 C 0.5358(4) 0.1464(4) 0.3163(3)
H5_2 H 0.6203 0.2153 0.3292
C10_2 C 0.4668(5) 0.0543(4) 0.2149(3)
H6_2 H 0.5043 0.0621 0.1588
C11_2 C 0.3432(4) -0.0486(4) 0.1962(3)
C12_2 C 0.2920(5) -0.0629(5) 0.2806(3)
H7_2 H 0.2127 -0.1349 0.2690
C13_2 C 0.3589(5) 0.0299(5) 0.3815(3)
H8_2 H 0.3237 0.0216 0.4380
C14_2 C 0.2556(5) -0.1443(4) 0.0867(3)
C15A C -0.0782(4) 1.1207(3) 0.2878(2)
H9A H -0.0328 1.2050 0.3394
C16A C -0.1888(5) 0.9597(4) 0.1379(3)
H10A H -0.2332 0.9127 0.0664
C17A C -0.1698(6) 0.9068(4) 0.2098(3)
H11A H -0.1993 0.8184 0.1971
C18A C -0.0246(5) 0.8889(4) 0.4079(3)
H12A H -0.0409 0.8140 0.3460
C19A C -0.0511(4) 1.0042(3) 0.4041(2)
C20A C -0.0266(5) 1.1158(4) 0.4959(2)
H13A H -0.0442 1.1938 0.4933
C21A C -0.8499(4) 0.3504(4) 1.0724(3)
H14A H -0.9101 0.3881 1.0368
C22A C -0.7797(4) 0.2425(4) 1.1619(3)
H15A H -0.7841 0.1916 1.2006
C23A C -0.6487(4) 0.2919(4) 1.1396(3)
H16A H -0.5478 0.2811 1.1583
C24A C -0.5952(4) 0.4320(3) 1.0400(2)
C25A C -0.6190(4) 0.5509(4) 1.0428(3)
H17A H -0.6993 0.5848 1.0714
C26A C -0.4773(4) 0.3803(4) 0.9972(3)
H18A H -0.4625 0.2996 0.9953
N1A N -0.1320(3) 1.0931(3) 0.18751(19)
N2A N -0.0981(3) 1.0104(3) 0.30512(19)
N3A N -0.9068(3) 0.2777(3) 1.1195(2)
N3A_2 N 0.0932(3) 1.2777(3) 0.1195(2)
N4A N -0.6939(3) 0.3627(3) 1.0827(2)
O1_2 O 0.5409(3) 0.2277(3) 0.4998(2)
O2_2 O 0.0651(3) 0.5949(3) 0.65988(19)
O3_2 O 0.2310(3) 0.6313(3) 0.80670(17)
O3A O -0.2310(3) 1.3687(3) 0.19330(17)
O4_2 O 0.2804(3) -0.1119(3) 0.01385(19)
O4A O -0.2804(3) 1.1119(3) -0.01385(19)
O5_2 O 0.1652(3) -0.2490(3) 0.0733(2)
Zn1A Zn -0.13359(4) 1.22599(4) 0.12216(3)
Zn1_2 Zn 0.13359(4) 1.77401(4) 1.87784(3)
Zn1A_2 Zn -1.13359(4) 0.22599(4) 1.12216(3)
Zn1_3 Zn 0.13359(4) -0.22599(4) -0.12216(3)
O6 O 0.9641(7) 0.6295(5) 0.1660(4)
H19 H 1.0130 0.5691 0.1418
H20 H 0.8659 0.5963 0.1402
O7 O 0.8444(10) 0.3802(9) 0.6586(7)
H21 H 0.9038 0.4366 0.6458
H22 H 0.7528 0.3421 0.6191
loop_
_geom_bond_atom_site_label_1
_geom_bond_atom_site_label_2
_geom_bond_site_symmetry_1
_geom_bond_site_symmetry_2
C1 C2 1_555 1_555
C2 C3 1_555 1_555
C3 H1 1_555 1_555
C4 C3 1_555 1_555
H2 C4 1_555 1_555
C5 C4 1_555 1_555
C6 C5 1_555 1_555
H3 C6 1_555 1_555
C7 C2 1_555 1_555
H4 C7 1_555 1_555
C8 C9 1_555 1_555
C9 H5 1_555 1_555
C10 C9 1_555 1_555
H6 C10 1_555 1_555
C11 C10 1_555 1_555
C12 C11 1_555 1_555
H7 C12 1_555 1_555
C13 C8 1_555 1_555
H8 C13 1_555 1_555
C14 C11 1_555 1_555
C15 H9 1_555 1_555
C16 H10 1_555 1_555
C17 C16 1_555 1_555
H11 C17 1_555 1_555
C18 H12 1_555 1_555
C19 C18 1_555 1_555
C20 C19 1_555 1_555
H13 C20 1_555 1_555
C21 H14 1_555 1_555
C22 H15 1_555 1_555
C23 C22 1_555 1_555
H16 C23 1_555 1_555
C24 C25 1_555 1_555
C25 H17 1_555 1_555
C26 C24 1_555 1_555
H18 C26 1_555 1_555
N1 C15 1_555 1_555
N2 C15 1_555 1_555
N3 C21 1_555 1_555
N4 C21 1_555 1_555
O1 C5 1_555 1_555
O2 C1 1_555 1_555
O3 C1 1_555 1_555
O4 C14 1_555 1_555
O5 C14 1_555 1_555
Zn1 N1 1_555 1_555
O6 H19 1_555 1_555
H20 O6 1_555 1_555
O7 H21 1_555 1_555
H22 O7 1_555 1_555
C1_2 C2_2 1_555 1_555
C2_2 C3_2 1_555 1_555
C3_2 H1_2 1_555 1_555
C4_2 C3_2 1_555 1_555
H2_2 C4_2 1_555 1_555
C5_2 C4_2 1_555 1_555
C6_2 C5_2 1_555 1_555
H3_2 C6_2 1_555 1_555
C7_2 C2_2 1_555 1_555
H4_2 C7_2 1_555 1_555
C8_2 C9_2 1_555 1_555
C9_2 H5_2 1_555 1_555
C10_2 C9_2 1_555 1_555
H6_2 C10_2 1_555 1_555
C11_2 C10_2 1_555 1_555
C12_2 C11_2 1_555 1_555
H7_2 C12_2 1_555 1_555
C13_2 C8_2 1_555 1_555
H8_2 C13_2 1_555 1_555
C14_2 C11_2 1_555 1_555
C15A H9A 1_555 1_555
C16A H10A 1_555 1_555
C17A C16A 1_555 1_555
H11A C17A 1_555 1_555
C18A C20 1_555 1_555
H12A C18A 1_555 1_555
C19A C18A 1_555 1_555
C20A C18 1_555 1_555
H13A C20A 1_555 1_555
C21A H14A 1_555 1_555
C22A H15A 1_555 1_555
C23A C22A 1_555 1_555
H16A C23A 1_555 1_555
C24A C25A 1_555 1_555
C25A C26 1_555 1_555
H17A C25A 1_555 1_555
C26A C25 1_555 1_555
H18A C26A 1_555 1_555
N1A C15A 1_555 1_555
N2A C15A 1_555 1_555
N3A C21A 1_555 1_555
N3A_2 Zn1A 1_555 1_555
N4A C21A 1_555 1_555
O1_2 C5_2 1_555 1_555
O2_2 C1_2 1_555 1_555
O3_2 Zn1 1_555 1_555
O3A Zn1A 1_555 1_555
O4_2 C14_2 1_555 1_555
O4A Zn1A 1_555 1_555
O5_2 C14_2 1_555 1_555
Zn1A N1A 1_555 1_555
Zn1_2 O3 1_555 1_555
Zn1A_2 N3A 1_555 1_555
Zn1_3 O4_2 1_555 1_555
C6 C7 1_555 1_555
C8 O1 1_555 1_555
C12 C13 1_555 1_555
C16 N1 1_555 1_555
C17 N2 1_555 1_555
C19 N2 1_555 1_555
C22 N3 1_555 1_555
C23 N4 1_555 1_555
C24 N4 1_555 1_555
N3 Zn1 1_555 1_555
O4 Zn1 1_555 1_555
C1_2 O3_2 1_555 1_555
C6_2 C7_2 1_555 1_555
C8_2 O1_2 1_555 1_555
C12_2 C13_2 1_555 1_555
C16A N1A 1_555 1_555
C17A N2A 1_555 1_555
C19A C20A 1_555 1_555
C19A N2A 1_555 1_555
C22A N3A 1_555 1_555
C23A N4A 1_555 1_555
C24A C26A 1_555 1_555
C24A N4A 1_555 1_555

#END
