
#######################################################################
#
#                 Cambridge Crystallographic Data Centre
#                                CCDC 
#
#######################################################################
#
# If this CIF has been generated from an entry in the Cambridge 
# Structural Database, then it will include bibliographic, chemical, 
# crystal, experimental, refinement or atomic coordinate data resulting 
# from the CCDC's data processing and validation procedures.
#
#######################################################################

data_OMECIS
_symmetry_cell_setting           triclinic
_symmetry_space_group_name_H-M   'P -1'
_symmetry_Int_Tables_number      2
_space_group_name_Hall           '-P 1'
loop_
_symmetry_equiv_pos_site_id
_symmetry_equiv_pos_as_xyz
1 x,y,z
2 -x,-y,-z
_cell_length_a                   8.5950(2)
_cell_length_b                   8.7670(2)
_cell_length_c                   9.2860(2)
_cell_angle_alpha                65.2180(14)
_cell_angle_beta                 81.3610(12)
_cell_angle_gamma                75.2070(12)
_cell_volume                     613.484
loop_
_atom_site_label
_atom_site_type_symbol
_atom_site_fract_x
_atom_site_fract_y
_atom_site_fract_z
Ni1 Ni 0.0000 0.0000 0.0000
N1 N 0.1758(2) -0.1595(2) 0.1570(2)
N2 N -0.0434(2) -0.2236(2) 0.0057(2)
C1 C 0.2037(3) -0.3266(3) 0.1455(2)
C2 C 0.0421(3) -0.3643(2) 0.1421(2)
C3 C -0.2123(3) -0.2275(3) 0.0009(3)
C4 C -0.2896(3) -0.0807(4) -0.1437(3)
C5 C 0.3249(2) -0.0958(4) 0.1389(3)
O1 O -0.1787(1) -0.0243(1) 0.1959(1)
O2 O -0.1453(2) 0.1668(2) 0.2830(2)
O3 O -0.1473(1) -0.3385(2) 0.5011(2)
O4 O -0.3583(1) -0.3937(2) 0.4331(2)
C6 C -0.3587(2) 0.0221(2) 0.4010(2)
C7 C -0.3990(2) -0.1395(2) 0.4752(2)
C8 C -0.4606(2) 0.1594(2) 0.4281(2)
C9 C -0.2141(2) 0.0555(2) 0.2854(2)
C10 C -0.2873(2) -0.2979(2) 0.4675(2)
H1 H 0.1310 -0.1744 0.2583
H2 H 0.0094 -0.2369 -0.0846
H3 H 0.2625 -0.4180 0.2379
H4 H 0.2696 -0.3234 0.0476
H5 H 0.0580 -0.4751 0.1315
H6 H -0.0220 -0.3727 0.2420
H7 H -0.2727 -0.2198 0.0980
H8 H -0.2175 -0.3381 -0.0011
H9 H -0.3920 -0.1041 -0.1573
H10 H -0.2179 -0.0782 -0.2383
H11 H 0.3967 -0.1781 0.2252
H12 H 0.3821 -0.0902 0.0365
H13 H -0.2935 -0.4868 0.4426
H14 H -0.4339 0.2693 0.3798
N1A N -0.1758(2) 0.1595(2) -0.1570(2)
C1A C -0.2037(3) 0.3266(3) -0.1455(2)
C2A C -0.0421(3) 0.3643(2) -0.1421(2)
N2A N 0.0434(2) 0.2236(2) -0.0057(2)
C8A C -0.5394(2) -0.1594(2) 0.5719(2)
C6A C -0.6413(2) -0.0221(2) 0.5990(2)
C7A C -0.6010(2) 0.1395(2) 0.5248(2)
C10A C -0.7127(2) 0.2979(2) 0.5325(2)
O3A O -0.8527(1) 0.3385(2) 0.4989(2)
O4A O -0.6417(1) 0.3937(2) 0.5669(2)
H13A H -0.7065 0.4868 0.5574
C9A C -0.7859(2) -0.0555(2) 0.7146(2)
O1A O -0.8213(1) 0.0243(1) 0.8041(1)
Ni1A Ni -1.0000 0.0000 1.0000
O2A O -0.8547(2) -0.1668(2) 0.7170(2)
H14A H -0.5661 -0.2693 0.6202
O1A_2 O 0.1787(1) 0.0243(1) -0.1959(1)
C3A C 0.2123(3) 0.2275(3) -0.0009(3)
C4A C 0.2896(3) 0.0807(4) 0.1437(3)
H9A H 0.3920 0.1041 0.1573
H10A H 0.2179 0.0782 0.2383
H7A H 0.2727 0.2198 -0.0980
H8A H 0.2175 0.3381 0.0011
H2A H -0.0094 0.2369 0.0846
H5A H -0.0580 0.4751 -0.1315
H6A H 0.0220 0.3727 -0.2420
H3A H -0.2625 0.4180 -0.2379
H4A H -0.2696 0.3234 -0.0476
C5A C -0.3249(2) 0.0958(4) -0.1389(3)
H11A H -0.3967 0.1781 -0.2252
H12A H -0.3821 0.0902 -0.0365
H1A H -0.1310 0.1744 -0.2583
O5 O -0.1606(1) -0.6827(2) 0.4792(1)
H15 H -0.0680(20) -0.6670(30) 0.4720(30)
H16 H -0.1610(30) -0.7310(30) 0.4200(30)
loop_
_geom_bond_atom_site_label_1
_geom_bond_atom_site_label_2
_geom_bond_site_symmetry_1
_geom_bond_site_symmetry_2
Ni1 N1 1_555 1_555
N1 C1 1_555 1_555
N2 Ni1 1_555 1_555
C1 C2 1_555 1_555
C2 N2 1_555 1_555
C3 N2 1_555 1_555
C4 C3 1_555 1_555
C5 N1 1_555 1_555
O1 Ni1 1_555 1_555
O2 C9 1_555 1_555
O3 C10 1_555 1_555
O4 C10 1_555 1_555
C6 C7 1_555 1_555
C7 C10 1_555 1_555
C8 C6 1_555 1_555
C9 O1 1_555 1_555
O5 H15 1_555 1_555
H1 N1 1_555 1_555
H2 N2 1_555 1_555
H3 C1 1_555 1_555
H4 C1 1_555 1_555
H5 C2 1_555 1_555
H6 C2 1_555 1_555
H7 C3 1_555 1_555
H8 C3 1_555 1_555
H9 C4 1_555 1_555
H10 C4 1_555 1_555
H11 C5 1_555 1_555
H12 C5 1_555 1_555
H13 O4 1_555 1_555
H14 C8 1_555 1_555
H16 O5 1_555 1_555
N1A Ni1 1_555 1_555
C1A N1A 1_555 1_555
C2A C1A 1_555 1_555
N2A Ni1 1_555 1_555
C8A C7 1_555 1_555
C6A C8A 1_555 1_555
C7A C8 1_555 1_555
C10A C7A 1_555 1_555
O3A C10A 1_555 1_555
O4A C10A 1_555 1_555
H13A O4A 1_555 1_555
C9A C6A 1_555 1_555
O1A C9A 1_555 1_555
Ni1A O1A 1_555 1_555
O2A C9A 1_555 1_555
H14A C8A 1_555 1_555
O1A_2 Ni1 1_555 1_555
C3A N2A 1_555 1_555
C4A C5 1_555 1_555
H9A C4A 1_555 1_555
H10A C4A 1_555 1_555
H7A C3A 1_555 1_555
H8A C3A 1_555 1_555
H2A N2A 1_555 1_555
H5A C2A 1_555 1_555
H6A C2A 1_555 1_555
H3A C1A 1_555 1_555
H4A C1A 1_555 1_555
C5A C4 1_555 1_555
H11A C5A 1_555 1_555
H12A C5A 1_555 1_555
H1A N1A 1_555 1_555
C6 C9 1_555 1_555
N1A C5A 1_555 1_555
C2A N2A 1_555 1_555
C6A C7A 1_555 1_555
C3A C4A 1_555 1_555

#END
