
#######################################################################
#
#                 Cambridge Crystallographic Data Centre
#                                CCDC 
#
#######################################################################
#
# If this CIF has been generated from an entry in the Cambridge 
# Structural Database, then it will include bibliographic, chemical, 
# crystal, experimental, refinement or atomic coordinate data resulting 
# from the CCDC's data processing and validation procedures.
#
#######################################################################

data_OMEFER
_symmetry_cell_setting           monoclinic
_symmetry_space_group_name_H-M   'P 21/n'
_symmetry_Int_Tables_number      14
_space_group_name_Hall           '-P 2yn'
loop_
_symmetry_equiv_pos_site_id
_symmetry_equiv_pos_as_xyz
1 x,y,z
2 1/2+x,1/2-y,1/2+z
3 -x,-y,-z
4 1/2-x,1/2+y,1/2-z
_cell_length_a                   12.1329(9)
_cell_length_b                   10.4929(9)
_cell_length_c                   15.2841(17)
_cell_angle_alpha                90
_cell_angle_beta                 98.315(8)
_cell_angle_gamma                90
_cell_volume                     1925.35
loop_
_atom_site_label
_atom_site_type_symbol
_atom_site_fract_x
_atom_site_fract_y
_atom_site_fract_z
Cu1 Cu 0.61855(3) 0.57603(3) 0.99662(2)
Cu2 Cu 0.73038(3) 0.89423(3) 1.20225(2)
C1 C 0.6773(2) 0.8402(3) 1.02482(17)
C2 C 0.6342(2) 0.8753(3) 0.92971(17)
C3 C 0.5485(2) 0.7850(2) 0.87937(17)
C4 C 0.7325(2) 0.8910(3) 0.87840(17)
C5 C 0.7834(3) 0.7896(3) 0.8441(2)
C6 C 0.8723(3) 0.8094(5) 0.7989(3)
C7 C 0.9114(3) 0.9281(5) 0.7874(3)
C8 C 0.8603(4) 1.0310(5) 0.8203(3)
C9 C 0.7712(3) 1.0122(4) 0.8661(3)
C10 C 0.7210(2) 0.3741(2) 1.10447(18)
C11 C 0.7147(2) 0.2930(3) 1.02154(18)
C12 C 0.6034(2) 0.3053(2) 0.96037(18)
C13 C 0.8138(2) 0.3280(3) 0.97557(19)
C14 C 0.9183(3) 0.2820(4) 1.0110(3)
C15 C 1.0110(3) 0.3191(5) 0.9738(3)
C16 C 1.0027(3) 0.3980(4) 0.9023(3)
C17 C 0.8992(3) 0.4401(4) 0.8656(3)
C18 C 0.8054(3) 0.4060(3) 0.9022(2)
O1 O 0.70560(17) 0.93189(18) 1.07584(13)
O2 O 0.68645(17) 0.72737(17) 1.05166(13)
O3 O 0.48220(16) 0.83393(18) 0.81918(13)
O4 O 0.54712(17) 0.66719(18) 0.89546(13)
O5 O 0.69672(17) 0.49026(17) 1.09794(13)
O6 O 0.75544(16) 0.32186(17) 1.17703(12)
O7 O 0.56165(17) 0.20700(18) 0.92715(15)
O8 O 0.55857(15) 0.41564(16) 0.94664(12)
O9 O 0.7923(3) 1.0795(2) 1.2358(2)
O10 O 0.56907(18) 0.9159(3) 1.20539(16)
O11 O 0.8793(2) 0.8247(3) 1.1971(2)
H1 H 0.604(2) 0.952(3) 0.9342(19)
H2 H 0.723(2) 0.209(3) 1.0396(17)
H3 H 0.925(3) 0.232(3) 1.061(3)
H4 H 1.067(3) 0.423(3) 0.873(3)
H5 H 0.735(3) 0.435(3) 0.873(2)
H6 H 0.775(3) 1.135(4) 1.218(3)
H7 H 0.973(3) 0.935(3) 0.756(3)
H8 H 0.759(3) 0.710(3) 0.853(2)
H9 H 0.543(3) 0.871(4) 1.172(3)
H10 H 0.796(5) 1.091(5) 1.284(4)
H11 H 0.878(4) 1.120(5) 0.812(3)
H12 H 0.744(4) 1.073(5) 0.895(3)
H13 H 0.889(3) 0.493(4) 0.818(3)
H14 H 0.556(3) 0.990(4) 1.196(3)
H15 H 0.900(4) 0.743(4) 0.774(3)
H16 H 1.068(4) 0.302(4) 0.993(3)
H17 H 0.894(3) 0.792(4) 1.228(3)
H18 H 0.896(5) 0.814(5) 1.150(4)
O8B O 0.44143(15) 0.58436(16) 1.05336(12)
O6C O 0.74456(16) 0.82186(17) 1.32297(12)
Cu2C Cu 0.76962(3) 0.39423(3) 1.29775(2)
Cu1B Cu 0.38145(3) 0.42397(3) 1.00338(2)
loop_
_geom_bond_atom_site_label_1
_geom_bond_atom_site_label_2
_geom_bond_site_symmetry_1
_geom_bond_site_symmetry_2
Cu1 O2 1_555 1_555
Cu2 O1 1_555 1_555
C1 C2 1_555 1_555
C2 C3 1_555 1_555
C3 O3 1_555 1_555
C4 C2 1_555 1_555
C5 C4 1_555 1_555
C6 C5 1_555 1_555
C7 C6 1_555 1_555
C8 C7 1_555 1_555
C9 C4 1_555 1_555
C10 C11 1_555 1_555
C11 C12 1_555 1_555
C12 O7 1_555 1_555
C13 C11 1_555 1_555
C14 C13 1_555 1_555
C15 C14 1_555 1_555
C16 C15 1_555 1_555
C17 C16 1_555 1_555
C18 C13 1_555 1_555
O1 C1 1_555 1_555
O2 C1 1_555 1_555
O4 Cu1 1_555 1_555
O5 Cu1 1_555 1_555
O6 C10 1_555 1_555
O8 Cu1 1_555 1_555
O9 Cu2 1_555 1_555
O10 Cu2 1_555 1_555
O11 Cu2 1_555 1_555
H1 C2 1_555 1_555
H2 C11 1_555 1_555
H3 C14 1_555 1_555
H4 C16 1_555 1_555
H5 C18 1_555 1_555
H6 O9 1_555 1_555
H7 C7 1_555 1_555
H8 C5 1_555 1_555
H9 O10 1_555 1_555
H10 O9 1_555 1_555
H11 C8 1_555 1_555
H12 C9 1_555 1_555
H13 C17 1_555 1_555
H14 O10 1_555 1_555
H15 C6 1_555 1_555
H16 C15 1_555 1_555
H17 O11 1_555 1_555
H18 O11 1_555 1_555
O8B Cu1 1_555 1_555
O6C Cu2 1_555 1_555
Cu2C O6 1_555 1_555
Cu1B O8 1_555 1_555
C3 O4 1_555 1_555
C8 C9 1_555 1_555
C10 O5 1_555 1_555
C12 O8 1_555 1_555
C17 C18 1_555 1_555
O8B Cu1B 1_555 1_555

#END
