
#######################################################################
#
#                 Cambridge Crystallographic Data Centre
#                                CCDC 
#
#######################################################################
#
# If this CIF has been generated from an entry in the Cambridge 
# Structural Database, then it will include bibliographic, chemical, 
# crystal, experimental, refinement or atomic coordinate data resulting 
# from the CCDC's data processing and validation procedures.
#
#######################################################################

data_OMEHAP
_symmetry_cell_setting           monoclinic
_symmetry_space_group_name_H-M   'P 21/c'
_symmetry_Int_Tables_number      14
_space_group_name_Hall           '-P 2ybc'
loop_
_symmetry_equiv_pos_site_id
_symmetry_equiv_pos_as_xyz
1 x,y,z
2 -x,1/2+y,1/2-z
3 -x,-y,-z
4 x,1/2-y,1/2+z
_cell_length_a                   8.791(8)
_cell_length_b                   10.577(6)
_cell_length_c                   8.663(6)
_cell_angle_alpha                90
_cell_angle_beta                 95.630(10)
_cell_angle_gamma                90
_cell_volume                     801.621
loop_
_atom_site_label
_atom_site_type_symbol
_atom_site_fract_x
_atom_site_fract_y
_atom_site_fract_z
Fe1 Fe 0.36559(8) 0.06865(8) 0.19593(9)
O1 O 0.4081(4) 0.1503(4) 0.4288(5)
O2 O 0.2936(5) 0.2389(4) 0.6227(5)
C1 C -0.2807(6) 0.0484(5) 0.1435(7)
C2 C -0.1377(6) 0.0754(5) 0.2506(7)
C3 C 0.0051(6) 0.0337(5) 0.2102(6)
H1 H 0.0074 -0.0205 0.1260
O3 O -0.4042(5) 0.0907(5) 0.1810(6)
C4 C -0.0027(7) 0.1790(6) 0.4716(7)
H2 H -0.0027 0.2237 0.5641
C5 C 0.2917(6) 0.1809(5) 0.4961(6)
O4 O -0.2629(5) -0.0135(5) 0.0219(5)
C6 C 0.1345(6) 0.1418(5) 0.4172(6)
N1 N 0.1391(5) 0.0688(4) 0.2881(5)
C7 C -0.1397(6) 0.1483(6) 0.3853(7)
H3 H -0.2320 0.1761 0.4169
O5 O 0.4036(6) -0.1232(5) 0.2718(8)
H4 H 0.3358 -0.1615 0.3176
H5 H 0.4862 -0.1608 0.2564
O2C O 0.2936(5) 0.2611(4) 0.1227(5)
O3_2 O 0.5958(5) 0.0907(5) 0.1810(6)
O4B O 0.2629(5) 0.0135(5) -0.0219(5)
Fe1C Fe 0.36559(8) 0.43135(8) 0.69593(9)
Fe1_2 Fe -0.63441(8) 0.06865(8) 0.19593(9)
Fe1B Fe -0.36559(8) -0.06865(8) -0.19593(9)
loop_
_geom_bond_atom_site_label_1
_geom_bond_atom_site_label_2
_geom_bond_site_symmetry_1
_geom_bond_site_symmetry_2
Fe1 O1 1_555 1_555
O1 C5 1_555 1_555
O2 C5 1_555 1_555
C1 C2 1_555 1_555
C2 C3 1_555 1_555
C3 H1 1_555 1_555
O3 C1 1_555 1_555
C4 H2 1_555 1_555
C5 C6 1_555 1_555
O4 C1 1_555 1_555
C6 C4 1_555 1_555
N1 Fe1 1_555 1_555
C7 C2 1_555 1_555
H3 C7 1_555 1_555
O5 Fe1 1_555 1_555
H4 O5 1_555 1_555
H5 O5 1_555 1_555
O2C Fe1 1_555 1_555
O3_2 Fe1 1_555 1_555
O4B Fe1 1_555 1_555
Fe1C O2 1_555 1_555
Fe1_2 O3 1_555 1_555
Fe1B O4 1_555 1_555
C3 N1 1_555 1_555
C4 C7 1_555 1_555
C6 N1 1_555 1_555

#END
