
#######################################################################
#
#                 Cambridge Crystallographic Data Centre
#                                CCDC 
#
#######################################################################
#
# If this CIF has been generated from an entry in the Cambridge 
# Structural Database, then it will include bibliographic, chemical, 
# crystal, experimental, refinement or atomic coordinate data resulting 
# from the CCDC's data processing and validation procedures.
#
#######################################################################

data_OMESUV
_symmetry_cell_setting           triclinic
_symmetry_space_group_name_H-M   'P -1'
_symmetry_Int_Tables_number      2
_space_group_name_Hall           '-P 1'
loop_
_symmetry_equiv_pos_site_id
_symmetry_equiv_pos_as_xyz
1 x,y,z
2 -x,-y,-z
_cell_length_a                   9.6096(13)
_cell_length_b                   10.4902(11)
_cell_length_c                   15.864(2)
_cell_angle_alpha                95.121(3)
_cell_angle_beta                 107.158(7)
_cell_angle_gamma                94.574(4)
_cell_volume                     1512.44
loop_
_atom_site_label
_atom_site_type_symbol
_atom_site_fract_x
_atom_site_fract_y
_atom_site_fract_z
Co1 Co 0.15552(5) 0.37894(4) 0.49434(3)
C1 C -0.1089(3) 0.3772(3) 0.57762(19)
C2 C -0.1481(3) 0.2670(3) 0.62341(19)
C3 C -0.0594(4) 0.1669(3) 0.6382(2)
H1 H 0.0240 0.1686 0.6199
C4 C -0.0963(4) 0.0654(3) 0.6804(2)
H2 H -0.0379 -0.0017 0.6901
C5 C -0.2209(4) 0.0634(3) 0.7083(2)
C6 C -0.2642(4) -0.0452(3) 0.7536(2)
C7 C -0.3089(4) 0.1617(3) 0.6923(2)
H3 H -0.3931 0.1593 0.7099
C8 C -0.2733(4) 0.2632(3) 0.6505(2)
H4 H -0.3329 0.3294 0.6405
C9 C 0.3056(3) 0.1972(3) 0.4903(2)
C10 C 0.4059(3) 0.0947(3) 0.4945(2)
C11 C 0.3867(4) -0.0114(3) 0.5372(2)
H5 H 0.3109 -0.0190 0.5624
C12 C 0.5197(4) 0.1066(3) 0.4573(2)
H6 H 0.5332 0.1782 0.4288
C13 C 0.0024(4) 0.3394(3) 0.2950(2)
H7 H 0.0924 0.3814 0.2967
C14 C -0.1038(4) 0.3123(3) 0.2141(2)
H8 H -0.0852 0.3361 0.1630
C15 C -0.2392(4) 0.2492(3) 0.2091(2)
C16 C -0.2576(4) 0.2143(3) 0.2877(2)
H9 H -0.3455 0.1702 0.2877
C17 C -0.1459(4) 0.2450(3) 0.3653(2)
H10 H -0.1607 0.2202 0.4171
C18 C -0.3537(4) 0.2230(3) 0.1229(2)
C19 C -0.4674(4) 0.2053(3) -0.0159(2)
C20 C -0.5110(5) 0.2047(4) -0.1083(2)
H11 H -0.4490 0.2428 -0.1365
C21 C -0.6474(5) 0.1464(4) -0.1559(3)
H12 H -0.6779 0.1455 -0.2173
C22 C -0.7430(5) 0.0877(4) -0.1153(3)
H13 H -0.8357 0.0502 -0.1497
C23 C -0.7002(4) 0.0854(4) -0.0246(3)
H14 H -0.7617 0.0454 0.0031
C24 C -0.5628(4) 0.1447(3) 0.0235(2)
C25 C 0.4418(4) 0.5337(3) 0.6166(2)
H15 H 0.4479 0.5566 0.5624
C26 C 0.5554(4) 0.5782(3) 0.6915(2)
H16 H 0.6360 0.6298 0.6875
C27 C 0.5493(4) 0.5456(3) 0.7736(2)
C28 C 0.4236(4) 0.4710(3) 0.7742(2)
H17 H 0.4134 0.4483 0.8276
C29 C 0.3149(4) 0.4309(3) 0.6962(2)
H18 H 0.2314 0.3818 0.6986
C30 C 0.6709(4) 0.5876(3) 0.8540(2)
C31 C 0.8700(4) 0.6862(3) 0.9474(2)
C32 C 0.9992(4) 0.7640(4) 0.9896(3)
H19 H 1.0378 0.8240 0.9603
C33 C 1.0684(5) 0.7490(5) 1.0768(3)
H20 H 1.1561 0.7995 1.1068
C34 C 1.0111(5) 0.6611(5) 1.1208(3)
H21 H 1.0608 0.6547 1.1800
C35 C 0.8832(5) 0.5828(4) 1.0800(2)
H22 H 0.8446 0.5236 1.1097
C36 C 0.8148(4) 0.5970(3) 0.9920(2)
N1 N -0.0158(3) 0.3090(3) 0.37125(18)
N2 N -0.3373(3) 0.2550(3) 0.04796(19)
N3 N -0.4868(3) 0.1574(3) 0.11202(18)
H23 H -0.5177 0.1291 0.1533
N4 N 0.3222(3) 0.4587(3) 0.61710(18)
N5 N 0.7780(3) 0.6785(3) 0.86081(18)
N6 N 0.6873(3) 0.5357(3) 0.93146(18)
H24 H 0.6291 0.4759 0.9410
O1 O 0.0125(2) 0.3835(2) 0.56338(16)
O2 O -0.1992(2) 0.4575(2) 0.55762(15)
O3 O -0.3802(3) -0.0547(3) 0.77004(19)
O4 O -0.1671(3) -0.1265(3) 0.77381(19)
H25 H -0.195(6) -0.196(5) 0.800(4)
O5 O 0.2066(3) 0.1886(2) 0.52764(16)
O6 O 0.3226(3) 0.2934(2) 0.45061(16)
Co1A Co -0.15552(5) 0.62106(4) 0.50566(3)
Co1A_2 Co 0.84448(5) -0.37894(4) 0.50566(3)
C1A C 0.1089(3) 0.6228(3) 0.42238(19)
C2A C 0.1481(3) 0.7330(3) 0.37659(19)
C3A C 0.0594(4) 0.8331(3) 0.3618(2)
H1A H -0.0240 0.8314 0.3801
C4A C 0.0963(4) 0.9346(3) 0.3196(2)
H2A H 0.0379 1.0017 0.3099
C5A C 0.2209(4) 0.9366(3) 0.2917(2)
C6A C 0.2642(4) 1.0452(3) 0.2464(2)
C7A C 0.3089(4) 0.8383(3) 0.3077(2)
H3A H 0.3931 0.8407 0.2901
C8A C 0.2733(4) 0.7368(3) 0.3495(2)
H4A H 0.3329 0.6706 0.3595
C9A C 0.6944(3) -0.1972(3) 0.5097(2)
C10A C 0.5941(3) -0.0947(3) 0.5055(2)
C11A C 0.6133(4) 0.0114(3) 0.4628(2)
H5A H 0.6891 0.0190 0.4376
C12A C 0.4803(4) -0.1066(3) 0.5427(2)
H6A H 0.4668 -0.1782 0.5712
C13A C -0.0024(4) 0.6606(3) 0.7050(2)
H7A H -0.0924 0.6186 0.7033
C14A C 0.1038(4) 0.6877(3) 0.7859(2)
H8A H 0.0852 0.6639 0.8370
C15A C 0.2392(4) 0.7508(3) 0.7909(2)
C16A C 0.2576(4) 0.7857(3) 0.7123(2)
H9A H 0.3455 0.8298 0.7123
C17A C 0.1459(4) 0.7550(3) 0.6347(2)
H10A H 0.1607 0.7798 0.5829
C18A C 0.3537(4) 0.7770(3) 0.8771(2)
C19A C 0.4674(4) 0.7947(3) 1.0159(2)
C20A C 0.5110(5) 0.7953(4) 1.1083(2)
H11A H 0.4490 0.7572 1.1365
C21A C 0.6474(5) 0.8536(4) 1.1559(3)
H12A H 0.6779 0.8545 1.2173
C22A C 0.7430(5) 0.9123(4) 1.1153(3)
H13A H 0.8357 0.9498 1.1497
C23A C 0.7002(4) 0.9146(4) 1.0246(3)
H14A H 0.7617 0.9546 0.9969
C24A C 0.5628(4) 0.8553(3) 0.9765(2)
C25A C -0.4418(4) 0.4663(3) 0.3834(2)
H15A H -0.4479 0.4434 0.4376
C26A C -0.5554(4) 0.4218(3) 0.3085(2)
H16A H -0.6360 0.3702 0.3125
C27A C -0.5493(4) 0.4544(3) 0.2264(2)
C28A C -0.4236(4) 0.5290(3) 0.2258(2)
H17A H -0.4134 0.5517 0.1724
C29A C -0.3149(4) 0.5691(3) 0.3038(2)
H18A H -0.2314 0.6182 0.3014
C30A C -0.6709(4) 0.4124(3) 0.1460(2)
C31A C -0.8700(4) 0.3138(3) 0.0526(2)
C32A C -0.9992(4) 0.2360(4) 0.0104(3)
H19A H -1.0378 0.1760 0.0397
C33A C -1.0684(5) 0.2510(5) -0.0768(3)
H20A H -1.1561 0.2005 -0.1068
C34A C -1.0111(5) 0.3389(5) -0.1208(3)
H21A H -1.0608 0.3453 -0.1800
C35A C -0.8832(5) 0.4172(4) -0.0800(2)
H22A H -0.8446 0.4764 -0.1097
C36A C -0.8148(4) 0.4030(3) 0.0080(2)
N1A N 0.0158(3) 0.6910(3) 0.62875(18)
N2A N 0.3373(3) 0.7450(3) 0.95204(19)
N3A N 0.4868(3) 0.8426(3) 0.88798(18)
H23A H 0.5177 0.8709 0.8467
N4A N -0.3222(3) 0.5413(3) 0.38290(18)
N5A N -0.7780(3) 0.3215(3) 0.13919(18)
N6A N -0.6873(3) 0.4643(3) 0.06854(18)
H24A H -0.6291 0.5241 0.0590
O1A O -0.0125(2) 0.6165(2) 0.43662(16)
O2A O 0.1992(2) 0.5425(2) 0.44238(15)
O3A O 0.3802(3) 1.0547(3) 0.22996(19)
O4A O 0.1671(3) 1.1265(3) 0.22619(19)
H25A H 0.195(6) 1.196(5) 0.200(4)
O5A O 0.7934(3) -0.1886(2) 0.47236(16)
O5A_2 O -0.2066(3) 0.8114(2) 0.47236(16)
O6A O 0.6774(3) -0.2934(2) 0.54939(16)
O6A_2 O -0.3226(3) 0.7066(2) 0.54939(16)
loop_
_geom_bond_atom_site_label_1
_geom_bond_atom_site_label_2
_geom_bond_site_symmetry_1
_geom_bond_site_symmetry_2
Co1 N1 1_555 1_555
C1 C2 1_555 1_555
C2 C3 1_555 1_555
C3 H1 1_555 1_555
C4 C3 1_555 1_555
H2 C4 1_555 1_555
C5 C4 1_555 1_555
C6 C5 1_555 1_555
C7 C5 1_555 1_555
H3 C7 1_555 1_555
C8 C2 1_555 1_555
H4 C8 1_555 1_555
C9 C10 1_555 1_555
C10 C11 1_555 1_555
C11 H5 1_555 1_555
C12 C10 1_555 1_555
H6 C12 1_555 1_555
C13 H7 1_555 1_555
C14 C13 1_555 1_555
H8 C14 1_555 1_555
C15 C14 1_555 1_555
C16 C15 1_555 1_555
H9 C16 1_555 1_555
C17 C16 1_555 1_555
H10 C17 1_555 1_555
C18 C15 1_555 1_555
C19 C20 1_555 1_555
C20 H11 1_555 1_555
C21 C20 1_555 1_555
H12 C21 1_555 1_555
C22 C21 1_555 1_555
H13 C22 1_555 1_555
C23 C22 1_555 1_555
H14 C23 1_555 1_555
C24 C19 1_555 1_555
C25 H15 1_555 1_555
C26 C25 1_555 1_555
H16 C26 1_555 1_555
C27 C26 1_555 1_555
C28 C27 1_555 1_555
H17 C28 1_555 1_555
C29 C28 1_555 1_555
H18 C29 1_555 1_555
C30 C27 1_555 1_555
C31 C32 1_555 1_555
C32 H19 1_555 1_555
C33 C32 1_555 1_555
H20 C33 1_555 1_555
C34 C33 1_555 1_555
H21 C34 1_555 1_555
C35 C34 1_555 1_555
H22 C35 1_555 1_555
C36 C31 1_555 1_555
N1 C13 1_555 1_555
N2 C18 1_555 1_555
N3 C18 1_555 1_555
H23 N3 1_555 1_555
N4 Co1 1_555 1_555
N5 C30 1_555 1_555
N6 C30 1_555 1_555
H24 N6 1_555 1_555
O1 Co1 1_555 1_555
O2 C1 1_555 1_555
O3 C6 1_555 1_555
O4 C6 1_555 1_555
H25 O4 1_555 1_555
O5 Co1 1_555 1_555
O6 Co1 1_555 1_555
Co1A O2 1_555 1_555
Co1A_2 O5A 1_555 1_555
C1A C2A 1_555 1_555
C2A C3A 1_555 1_555
C3A H1A 1_555 1_555
C4A C3A 1_555 1_555
H2A C4A 1_555 1_555
C5A C4A 1_555 1_555
C6A C5A 1_555 1_555
C7A C5A 1_555 1_555
H3A C7A 1_555 1_555
C8A C2A 1_555 1_555
H4A C8A 1_555 1_555
C9A C10A 1_555 1_555
C10A C11A 1_555 1_555
C11A C12 1_555 1_555
H5A C11A 1_555 1_555
C12A C11 1_555 1_555
H6A C12A 1_555 1_555
C13A H7A 1_555 1_555
C14A C13A 1_555 1_555
H8A C14A 1_555 1_555
C15A C14A 1_555 1_555
C16A C15A 1_555 1_555
H9A C16A 1_555 1_555
C17A C16A 1_555 1_555
H10A C17A 1_555 1_555
C18A C15A 1_555 1_555
C19A C20A 1_555 1_555
C20A H11A 1_555 1_555
C21A C20A 1_555 1_555
H12A C21A 1_555 1_555
C22A C21A 1_555 1_555
H13A C22A 1_555 1_555
C23A C22A 1_555 1_555
H14A C23A 1_555 1_555
C24A C19A 1_555 1_555
C25A H15A 1_555 1_555
C26A C25A 1_555 1_555
H16A C26A 1_555 1_555
C27A C26A 1_555 1_555
C28A C27A 1_555 1_555
H17A C28A 1_555 1_555
C29A C28A 1_555 1_555
H18A C29A 1_555 1_555
C30A C27A 1_555 1_555
C31A C32A 1_555 1_555
C32A H19A 1_555 1_555
C33A C32A 1_555 1_555
H20A C33A 1_555 1_555
C34A C33A 1_555 1_555
H21A C34A 1_555 1_555
C35A C34A 1_555 1_555
H22A C35A 1_555 1_555
C36A C31A 1_555 1_555
N1A Co1A 1_555 1_555
N2A C18A 1_555 1_555
N3A C18A 1_555 1_555
H23A N3A 1_555 1_555
N4A Co1A 1_555 1_555
N5A C30A 1_555 1_555
N6A C30A 1_555 1_555
H24A N6A 1_555 1_555
O1A Co1A 1_555 1_555
O2A Co1 1_555 1_555
O3A C6A 1_555 1_555
O4A C6A 1_555 1_555
H25A O4A 1_555 1_555
O5A C9A 1_555 1_555
O5A_2 Co1A 1_555 1_555
O6A Co1A_2 1_555 1_555
O6A_2 Co1A 1_555 1_555
C1 O1 1_555 1_555
C7 C8 1_555 1_555
C9 O5 1_555 1_555
C9 O6 1_555 1_555
C17 N1 1_555 1_555
C19 N2 1_555 1_555
C23 C24 1_555 1_555
C24 N3 1_555 1_555
C25 N4 1_555 1_555
C29 N4 1_555 1_555
C31 N5 1_555 1_555
C35 C36 1_555 1_555
C36 N6 1_555 1_555
C1A O1A 1_555 1_555
C1A O2A 1_555 1_555
C7A C8A 1_555 1_555
C9A O6A 1_555 1_555
C10A C12A 1_555 1_555
C13A N1A 1_555 1_555
C17A N1A 1_555 1_555
C19A N2A 1_555 1_555
C23A C24A 1_555 1_555
C24A N3A 1_555 1_555
C25A N4A 1_555 1_555
C29A N4A 1_555 1_555
C31A N5A 1_555 1_555
C35A C36A 1_555 1_555
C36A N6A 1_555 1_555

#END
