
#######################################################################
#
#                 Cambridge Crystallographic Data Centre
#                                CCDC 
#
#######################################################################
#
# If this CIF has been generated from an entry in the Cambridge 
# Structural Database, then it will include bibliographic, chemical, 
# crystal, experimental, refinement or atomic coordinate data resulting 
# from the CCDC's data processing and validation procedures.
#
#######################################################################

data_OMETEG
_symmetry_cell_setting           triclinic
_symmetry_space_group_name_H-M   'P -1'
_symmetry_Int_Tables_number      2
_space_group_name_Hall           '-P 1'
loop_
_symmetry_equiv_pos_site_id
_symmetry_equiv_pos_as_xyz
1 x,y,z
2 -x,-y,-z
_cell_length_a                   8.7966(10)
_cell_length_b                   9.0647(10)
_cell_length_c                   12.7578(18)
_cell_angle_alpha                102.534(5)
_cell_angle_beta                 106.203(3)
_cell_angle_gamma                90.450(5)
_cell_volume                     951.056
loop_
_atom_site_label
_atom_site_type_symbol
_atom_site_fract_x
_atom_site_fract_y
_atom_site_fract_z
Zn1 Zn 0.56509(4) 0.83398(4) 0.70327(3)
C1 C 0.4920(4) 1.1591(4) 0.7537(3)
H1 H 0.5405 1.1656 0.6986
C2 C 0.4345(4) 1.2878(3) 0.8044(3)
H2 H 0.4421 1.3782 0.7824
C3 C 0.3649(3) 1.2811(3) 0.8889(2)
C4 C 0.3544(4) 1.1413(3) 0.9159(3)
H3 H 0.3082 1.1317 0.9716
C5 C 0.4118(4) 1.0193(4) 0.8609(3)
H4 H 0.4026 0.9269 0.8800
C6 C 0.3011(3) 1.4124(3) 0.9473(2)
C7 C 0.2004(3) 1.5544(3) 1.0651(2)
C8 C 0.1392(4) 1.6162(4) 1.1537(3)
H5 H 0.1357 1.5635 1.2080
C9 C 0.0842(4) 1.7583(4) 1.1571(3)
H6 H 0.0434 1.8030 1.2153
C10 C 0.0885(4) 1.8375(4) 1.0747(3)
H7 H 0.0507 1.9336 1.0801
C11 C 0.1463(4) 1.7781(4) 0.9867(3)
H8 H 0.1469 1.8303 0.9316
C12 C 0.2046(3) 1.6348(3) 0.9840(2)
C13 C 0.8468(3) 0.8984(3) 0.6479(2)
C14 C 0.9256(3) 0.9523(3) 0.5710(2)
C15 C 0.8372(3) 0.9983(4) 0.4772(3)
H9 H 0.7273 0.9969 0.4612
C16 C 1.0887(3) 0.9539(4) 0.5926(3)
H10 H 1.1490 0.9223 0.6550
C17 C 0.3028(3) 0.6450(3) 0.6432(2)
C18 C 0.1471(4) 0.5665(4) 0.5687(2)
C19 C 0.1045(5) 0.5596(6) 0.4565(3)
H11 H 0.1743 0.6006 0.4257
C20 C 0.0412(5) 0.5074(6) 0.6122(3)
H12 H 0.0675 0.5124 0.6888
N1 N 0.4812(3) 1.0251(3) 0.7803(2)
N2 N 0.2620(3) 1.4153(3) 1.0405(2)
N3 N 0.2699(3) 1.5413(3) 0.9097(2)
H13 H 0.2875 1.5609 0.8509
O1 O 0.6962(2) 0.9007(3) 0.62110(18)
O2 O 0.7244(3) 0.7695(4) 0.8209(2)
H14 H 0.816(6) 0.783(5) 0.811(4)
H15 H 0.725(6) 0.697(6) 0.861(4)
O3 O 0.9302(2) 0.8567(3) 0.73061(19)
O4 O 0.3883(2) 0.7063(3) 0.59625(17)
O5 O 0.3432(3) 0.6529(3) 0.74573(18)
Zn1A Zn 1.43491(4) 1.16602(4) 0.29673(3)
Zn1A_2 Zn -0.56509(4) 0.16602(4) 0.29673(3)
C1A C 1.5080(4) 0.8409(4) 0.2463(3)
H1A H 1.4595 0.8344 0.3014
C2A C 1.5655(4) 0.7122(3) 0.1956(3)
H2A H 1.5579 0.6218 0.2176
C3A C 1.6351(3) 0.7189(3) 0.1111(2)
C4A C 1.6456(4) 0.8587(3) 0.0841(3)
H3A H 1.6918 0.8683 0.0284
C5A C 1.5882(4) 0.9807(4) 0.1391(3)
H4A H 1.5974 1.0731 0.1200
C6A C 1.6989(3) 0.5876(3) 0.0527(2)
C7A C 1.7996(3) 0.4456(3) -0.0651(2)
C8A C 1.8608(4) 0.3838(4) -0.1537(3)
H5A H 1.8643 0.4365 -0.2080
C9A C 1.9158(4) 0.2417(4) -0.1571(3)
H6A H 1.9566 0.1970 -0.2153
C10A C 1.9115(4) 0.1625(4) -0.0747(3)
H7A H 1.9493 0.0664 -0.0801
C11A C 1.8537(4) 0.2219(4) 0.0133(3)
H8A H 1.8531 0.1697 0.0684
C12A C 1.7954(3) 0.3652(3) 0.0160(2)
C13A C 1.1532(3) 1.1016(3) 0.3521(2)
C14A C 1.0744(3) 1.0477(3) 0.4290(2)
C15A C 1.1628(3) 1.0017(4) 0.5228(3)
H9A H 1.2727 1.0031 0.5388
C16A C 0.9113(3) 1.0461(4) 0.4074(3)
H10A H 0.8510 1.0777 0.3450
C17A C -0.3028(3) 0.3550(3) 0.3568(2)
C18A C -0.1471(4) 0.4335(4) 0.4313(2)
C19A C -0.1045(5) 0.4404(6) 0.5435(3)
H11A H -0.1743 0.3994 0.5743
C20A C -0.0412(5) 0.4926(6) 0.3878(3)
H12A H -0.0675 0.4876 0.3112
N1A N 1.5188(3) 0.9749(3) 0.2197(2)
N2A N 1.7380(3) 0.5847(3) -0.0405(2)
N3A N 1.7301(3) 0.4587(3) 0.0903(2)
H13A H 1.7125 0.4391 0.1491
O1A O 1.3038(2) 1.0993(3) 0.37890(18)
O2A O 1.2756(3) 1.2305(4) 0.1791(2)
H14A H 1.184(6) 1.217(5) 0.189(4)
H15A H 1.275(6) 1.303(6) 0.139(4)
O3A O 1.0698(2) 1.1433(3) 0.26939(19)
O4A O -0.3883(2) 0.2937(3) 0.40375(17)
O4A_2 O 1.6117(2) 1.2937(3) 0.40375(17)
O5A O -0.3432(3) 0.3471(3) 0.25427(18)
loop_
_geom_bond_atom_site_label_1
_geom_bond_atom_site_label_2
_geom_bond_site_symmetry_1
_geom_bond_site_symmetry_2
Zn1 N1 1_555 1_555
C1 H1 1_555 1_555
C2 C1 1_555 1_555
H2 C2 1_555 1_555
C3 C2 1_555 1_555
C4 C3 1_555 1_555
H3 C4 1_555 1_555
C5 C4 1_555 1_555
H4 C5 1_555 1_555
C6 C3 1_555 1_555
C7 C8 1_555 1_555
C8 H5 1_555 1_555
C9 C8 1_555 1_555
H6 C9 1_555 1_555
C10 C9 1_555 1_555
H7 C10 1_555 1_555
C11 C10 1_555 1_555
H8 C11 1_555 1_555
C12 C7 1_555 1_555
C13 C14 1_555 1_555
C14 C15 1_555 1_555
C15 H9 1_555 1_555
C16 C14 1_555 1_555
H10 C16 1_555 1_555
C17 C18 1_555 1_555
C18 C19 1_555 1_555
C19 H11 1_555 1_555
C20 C18 1_555 1_555
H12 C20 1_555 1_555
N1 C1 1_555 1_555
N2 C6 1_555 1_555
N3 C6 1_555 1_555
H13 N3 1_555 1_555
O1 Zn1 1_555 1_555
O2 Zn1 1_555 1_555
H14 O2 1_555 1_555
H15 O2 1_555 1_555
O3 C13 1_555 1_555
O4 Zn1 1_555 1_555
O5 C17 1_555 1_555
Zn1A N1A 1_555 1_555
Zn1A_2 O4A 1_555 1_555
C1A H1A 1_555 1_555
C2A C1A 1_555 1_555
H2A C2A 1_555 1_555
C3A C2A 1_555 1_555
C4A C3A 1_555 1_555
H3A C4A 1_555 1_555
C5A C4A 1_555 1_555
H4A C5A 1_555 1_555
C6A C3A 1_555 1_555
C7A C8A 1_555 1_555
C8A H5A 1_555 1_555
C9A C8A 1_555 1_555
H6A C9A 1_555 1_555
C10A C9A 1_555 1_555
H7A C10A 1_555 1_555
C11A C10A 1_555 1_555
H8A C11A 1_555 1_555
C12A C7A 1_555 1_555
C13A C14A 1_555 1_555
C14A C15A 1_555 1_555
C15A C16 1_555 1_555
H9A C15A 1_555 1_555
C16A C15 1_555 1_555
H10A C16A 1_555 1_555
C17A C18A 1_555 1_555
C18A C19A 1_555 1_555
C19A C20 1_555 1_555
H11A C19A 1_555 1_555
C20A C19 1_555 1_555
H12A C20A 1_555 1_555
N1A C1A 1_555 1_555
N2A C6A 1_555 1_555
N3A C6A 1_555 1_555
H13A N3A 1_555 1_555
O1A Zn1A 1_555 1_555
O2A Zn1A 1_555 1_555
H14A O2A 1_555 1_555
H15A O2A 1_555 1_555
O3A C13A 1_555 1_555
O4A C17A 1_555 1_555
O4A_2 Zn1A 1_555 1_555
O5A C17A 1_555 1_555
C5 N1 1_555 1_555
C7 N2 1_555 1_555
C11 C12 1_555 1_555
C12 N3 1_555 1_555
C13 O1 1_555 1_555
C17 O4 1_555 1_555
C5A N1A 1_555 1_555
C7A N2A 1_555 1_555
C11A C12A 1_555 1_555
C12A N3A 1_555 1_555
C13A O1A 1_555 1_555
C14A C16A 1_555 1_555
C18A C20A 1_555 1_555

#END
