
#######################################################################
#
#                 Cambridge Crystallographic Data Centre
#                                CCDC 
#
#######################################################################
#
# If this CIF has been generated from an entry in the Cambridge 
# Structural Database, then it will include bibliographic, chemical, 
# crystal, experimental, refinement or atomic coordinate data resulting 
# from the CCDC's data processing and validation procedures.
#
#######################################################################

data_OMEVEI
_symmetry_cell_setting           monoclinic
_symmetry_space_group_name_H-M   'P 21/n'
_symmetry_Int_Tables_number      14
_space_group_name_Hall           '-P 2yn'
loop_
_symmetry_equiv_pos_site_id
_symmetry_equiv_pos_as_xyz
1 x,y,z
2 1/2-x,1/2+y,1/2-z
3 -x,-y,-z
4 1/2+x,1/2-y,1/2+z
_cell_length_a                   7.6761(5)
_cell_length_b                   17.3018(12)
_cell_length_c                   11.3406(8)
_cell_angle_alpha                90
_cell_angle_beta                 108.375(8)
_cell_angle_gamma                90
_cell_volume                     1429.36
loop_
_atom_site_label
_atom_site_type_symbol
_atom_site_fract_x
_atom_site_fract_y
_atom_site_fract_z
Eu1 Eu 0.510550(16) 0.192932(5) 0.005694(9)
S1 S 0.35931(8) 0.16059(3) -0.33684(5)
S2 S 0.30381(8) -0.15709(3) -0.34199(5)
S3 S 0.11495(8) 0.00373(4) -0.77582(5)
O1 O 0.5011(3) 0.19750(10) -0.37521(16)
O2 O 0.4461(3) -0.19913(10) -0.37301(16)
O3 O 0.1246(3) -0.19545(9) -0.38832(15)
O4 O 0.4122(2) 0.14252(9) -0.20462(14)
O5 O 0.1867(2) 0.20359(9) -0.37813(15)
O6 O 0.3524(2) -0.13890(9) -0.20940(14)
O7 O 0.3429(3) 0.24698(10) 0.13826(16)
H1 H 0.3875 0.2414 0.2124
H2 H 0.2317 0.2560 0.1242
O8 O 0.2373(3) 0.12311(10) -0.02120(16)
H3 H 0.2181 0.1102 0.0324
H4 H 0.2002 0.0974 -0.0676
O9 O 0.6405(3) 0.06728(10) 0.00139(16)
H5 H 0.7101 0.0522 0.0639
H6 H 0.6660 0.0609 -0.0579
O10 O 0.7632(3) 0.21098(12) -0.07667(19)
H7 H 0.7913 0.1755 -0.1138
H8 H 0.8535 0.2340 -0.0462
O11 O 0.2080(3) -0.06013(12) -0.81323(17)
O12 O -0.0839(3) -0.00893(11) -0.81100(16)
O13 O 0.1600(3) 0.07916(12) -0.81398(17)
C1 C 0.3094(3) 0.07082(12) -0.4157(2)
C2 C 0.2774(3) -0.06671(13) -0.4188(2)
C3 C 0.1958(3) 0.00391(13) -0.61047(19)
C4 C 0.3293(3) 0.00184(13) -0.35104(19)
H9 H 0.3760 0.0010 -0.2648
C5 C 0.2449(3) 0.07309(13) -0.5462(2)
H10 H 0.2352 0.1197 -0.5885
C6 C 0.2087(3) -0.06647(13) -0.5481(2)
H11 H 0.1722 -0.1122 -0.5919
Eu1A Eu -0.010550(16) -0.307068(5) -0.505694(9)
Eu1C Eu 0.010550(16) 0.307068(5) -0.494306(9)
Eu1B Eu 0.489450(16) -0.192932(5) -0.005694(9)
O3A O 0.3754(3) 0.30455(9) -0.11168(15)
O5C O 0.6867(2) 0.29641(9) 0.12187(15)
O6B O 0.6476(2) 0.13890(9) 0.20940(14)
loop_
_geom_bond_atom_site_label_1
_geom_bond_atom_site_label_2
_geom_bond_site_symmetry_1
_geom_bond_site_symmetry_2
Eu1 O4 1_555 1_555
S1 O1 1_555 1_555
S2 O2 1_555 1_555
S3 O11 1_555 1_555
O3 S2 1_555 1_555
O4 S1 1_555 1_555
O5 S1 1_555 1_555
O6 S2 1_555 1_555
O7 Eu1 1_555 1_555
H1 O7 1_555 1_555
H2 O7 1_555 1_555
O8 Eu1 1_555 1_555
H3 O8 1_555 1_555
H4 O8 1_555 1_555
O9 Eu1 1_555 1_555
H5 O9 1_555 1_555
H6 O9 1_555 1_555
O10 Eu1 1_555 1_555
H7 O10 1_555 1_555
H8 O10 1_555 1_555
O12 S3 1_555 1_555
O13 S3 1_555 1_555
C1 S1 1_555 1_555
C2 S2 1_555 1_555
C3 S3 1_555 1_555
C4 C1 1_555 1_555
H9 C4 1_555 1_555
C5 C1 1_555 1_555
H10 C5 1_555 1_555
C6 C2 1_555 1_555
H11 C6 1_555 1_555
Eu1A O3 1_555 1_555
Eu1C O5 1_555 1_555
Eu1B O6 1_555 1_555
O3A Eu1 1_555 1_555
O5C Eu1 1_555 1_555
O6B Eu1 1_555 1_555
C2 C4 1_555 1_555
C3 C5 1_555 1_555
C3 C6 1_555 1_555

#END
