
#######################################################################
#
#                 Cambridge Crystallographic Data Centre
#                                CCDC 
#
#######################################################################
#
# If this CIF has been generated from an entry in the Cambridge 
# Structural Database, then it will include bibliographic, chemical, 
# crystal, experimental, refinement or atomic coordinate data resulting 
# from the CCDC's data processing and validation procedures.
#
#######################################################################

data_OMEVUY
_symmetry_cell_setting           monoclinic
_symmetry_space_group_name_H-M   'P 21/n'
_symmetry_Int_Tables_number      14
_space_group_name_Hall           '-P 2yn'
loop_
_symmetry_equiv_pos_site_id
_symmetry_equiv_pos_as_xyz
1 x,y,z
2 1/2-x,1/2+y,1/2-z
3 -x,-y,-z
4 1/2+x,1/2-y,1/2+z
_cell_length_a                   11.3560(7)
_cell_length_b                   7.0833(5)
_cell_length_c                   15.1125(10)
_cell_angle_alpha                90
_cell_angle_beta                 101.3750(10)
_cell_angle_gamma                90
_cell_volume                     1191.74
loop_
_atom_site_label
_atom_site_type_symbol
_atom_site_fract_x
_atom_site_fract_y
_atom_site_fract_z
Ag1 Ag 0.99430(2) 0.13221(4) 0.829669(18)
Ag2 Ag 1.07051(2) 0.45543(4) 1.231120(19)
C1 C 0.7978(3) 0.3502(5) 1.1310(2)
C2 C 0.8837(3) 0.3137(5) 1.0704(2)
C3 C 1.2485(3) 0.2389(5) 0.9763(3)
C4 C 1.1857(3) 0.2221(5) 1.0462(2)
C5 C 1.0554(3) 0.2592(5) 1.0354(2)
C6 C 0.8665(3) 0.2766(5) 0.9786(2)
C7 C 0.7574(3) 0.2837(5) 0.9066(2)
C8 C 1.2473(3) 0.1628(5) 1.1292(3)
C9 C 1.4253(3) 0.1411(5) 1.0794(3)
C10 C 1.3706(4) 0.2010(6) 0.9943(3)
N1 N 1.0384(4) -0.0121(6) 0.7178(2)
N2 N 0.9764(2) 0.2413(4) 0.95760(19)
N3 N 1.0043(2) 0.3046(4) 1.10593(19)
N4 N 1.3648(3) 0.1189(4) 1.1469(2)
O1 O 0.8336(2) 0.3827(4) 1.21156(17)
O2 O 0.6845(2) 0.3433(4) 1.09417(18)
O3 O 0.7653(2) 0.2668(4) 0.82700(17)
O4 O 0.6555(2) 0.3112(4) 0.93142(18)
H1 H 0.988(4) -0.045(6) 0.686(3)
H2 H 1.081(4) 0.050(6) 0.688(3)
H3 H 1.075(3) -0.117(6) 0.734(3)
H4 H 1.511(3) 0.105(4) 1.097(2)
H5 H 1.408(3) 0.218(5) 0.950(3)
H6 H 1.209(3) 0.151(5) 1.183(3)
H7 H 1.210(3) 0.276(5) 0.917(2)
H8 H 0.671(5) 0.338(7) 1.021(4)
Ag1B Ag 1.00570(2) 0.86779(4) 1.170331(18)
Ag2B Ag 0.92949(2) 0.54457(4) 0.768880(19)
Ag2A Ag 1.42949(2) -0.04457(4) 1.268880(19)
N4A N 1.1352(3) 0.6189(4) 1.3531(2)
loop_
_geom_bond_atom_site_label_1
_geom_bond_atom_site_label_2
_geom_bond_site_symmetry_1
_geom_bond_site_symmetry_2
Ag1 N1 1_555 1_555
Ag2 N3 1_555 1_555
C1 C2 1_555 1_555
C2 C6 1_555 1_555
C3 C4 1_555 1_555
C4 C5 1_555 1_555
C5 N2 1_555 1_555
C6 C7 1_555 1_555
C7 O3 1_555 1_555
C8 C4 1_555 1_555
C9 C10 1_555 1_555
C10 C3 1_555 1_555
N1 H1 1_555 1_555
N2 Ag1 1_555 1_555
N3 C2 1_555 1_555
N4 C8 1_555 1_555
O1 C1 1_555 1_555
O2 C1 1_555 1_555
O4 C7 1_555 1_555
H2 N1 1_555 1_555
H3 N1 1_555 1_555
H4 C9 1_555 1_555
H5 C10 1_555 1_555
H6 C8 1_555 1_555
H7 C3 1_555 1_555
H8 O2 1_555 1_555
Ag1B Ag2 1_555 1_555
Ag2B Ag1 1_555 1_555
Ag2A N4 1_555 1_555
N4A Ag2 1_555 1_555
C5 N3 1_555 1_555
C6 N2 1_555 1_555
C9 N4 1_555 1_555

#END
