
#######################################################################
#
#                 Cambridge Crystallographic Data Centre
#                                CCDC 
#
#######################################################################
#
# If this CIF has been generated from an entry in the Cambridge 
# Structural Database, then it will include bibliographic, chemical, 
# crystal, experimental, refinement or atomic coordinate data resulting 
# from the CCDC's data processing and validation procedures.
#
#######################################################################

data_OMEVOS
_symmetry_cell_setting           monoclinic
_symmetry_space_group_name_H-M   'P 21/n'
_symmetry_Int_Tables_number      14
_space_group_name_Hall           '-P 2yn'
loop_
_symmetry_equiv_pos_site_id
_symmetry_equiv_pos_as_xyz
1 x,y,z
2 1/2-x,1/2+y,1/2-z
3 -x,-y,-z
4 1/2+x,1/2-y,1/2+z
_cell_length_a                   10.2073(4)
_cell_length_b                   9.9453(4)
_cell_length_c                   13.4594(6)
_cell_angle_alpha                90
_cell_angle_beta                 111.8280(10)
_cell_angle_gamma                90
_cell_volume                     1268.37
loop_
_atom_site_label
_atom_site_type_symbol
_atom_site_fract_x
_atom_site_fract_y
_atom_site_fract_z
H1 H 0.792(3) 0.750(4) 0.884(3)
C1 C 0.6938(4) 1.3549(4) 0.9080(3)
C2 C 0.6973(4) 1.2072(4) 0.8902(3)
N1 N 0.8138(3) 1.1491(3) 0.8808(2)
C3 C 1.0142(4) 0.9481(4) 0.8556(3)
O1 O 0.4095(3) 1.2318(3) 0.9062(2)
O2 O 0.5879(3) 1.4006(3) 0.9288(2)
Ag1 Ag 0.98326(3) 1.28015(3) 0.88458(2)
Ag2 Ag 0.52626(3) 0.81090(3) 0.84990(2)
O3 O 0.7888(3) 1.4278(3) 0.9042(2)
N2 N 0.6566(3) 0.9867(3) 0.8691(2)
O4 O 0.3735(3) 1.0175(3) 0.8485(3)
N3 N 1.0848(4) 0.7176(3) 0.8603(3)
N4 N 0.3974(4) 0.6369(4) 0.8344(3)
N5 N 1.1658(4) 1.3954(4) 0.8965(3)
C4 C 0.9626(4) 0.6836(4) 0.8697(3)
C5 C 0.8600(4) 0.7824(4) 0.8720(3)
C6 C 0.5993(4) 1.1074(4) 0.8828(3)
C7 C 0.4528(4) 1.1145(4) 0.8780(3)
C8 C 0.7856(4) 1.0163(4) 0.8698(3)
C9 C 1.1071(4) 0.8496(4) 0.8527(3)
C10 C 0.8869(4) 0.9132(4) 0.8652(3)
H2 H 0.948(4) 0.589(5) 0.873(3)
H3 H 1.205(5) 0.870(5) 0.845(4)
H4 H 1.029(4) 1.025(5) 0.851(3)
H5 H 1.195(5) 1.438(5) 0.960(4)
H6 H 0.337(5) 0.617(5) 0.776(4)
H7 H 1.150(5) 1.449(5) 0.841(4)
H8 H 0.449(7) 0.559(7) 0.863(5)
H9 H 0.361(6) 0.658(6) 0.877(4)
H10 H 1.234(6) 1.352(6) 0.902(5)
H11 H 1.128(10) 0.666(9) 0.832(8)
Ag1A Ag 0.51674(3) 0.78015(3) 0.61542(2)
Ag2A Ag 0.97374(3) 1.31090(3) 0.65010(2)
loop_
_geom_bond_atom_site_label_1
_geom_bond_atom_site_label_2
_geom_bond_site_symmetry_1
_geom_bond_site_symmetry_2
H1 C5 1_555 1_555
C1 C2 1_555 1_555
C2 N1 1_555 1_555
N1 Ag1 1_555 1_555
C3 C9 1_555 1_555
O1 C7 1_555 1_555
O2 C1 1_555 1_555
Ag1 O3 1_555 1_555
Ag2 N2 1_555 1_555
O3 C1 1_555 1_555
N2 C6 1_555 1_555
O4 Ag2 1_555 1_555
N3 C4 1_555 1_555
N4 Ag2 1_555 1_555
N5 Ag1 1_555 1_555
C4 C5 1_555 1_555
C5 C10 1_555 1_555
C6 C2 1_555 1_555
C7 O4 1_555 1_555
C8 N1 1_555 1_555
C9 N3 1_555 1_555
C10 C3 1_555 1_555
H2 C4 1_555 1_555
H3 C9 1_555 1_555
H4 C3 1_555 1_555
H5 N5 1_555 1_555
H6 N4 1_555 1_555
H7 N5 1_555 1_555
H8 N4 1_555 1_555
H9 N4 1_555 1_555
H10 N5 1_555 1_555
H11 N3 1_555 1_555
Ag1A Ag2 1_555 1_555
Ag2A Ag1 1_555 1_555
N2 C8 1_555 1_555
C6 C7 1_555 1_555
C8 C10 1_555 1_555

#END
