
#######################################################################
#
#                 Cambridge Crystallographic Data Centre
#                                CCDC 
#
#######################################################################
#
# If this CIF has been generated from an entry in the Cambridge 
# Structural Database, then it will include bibliographic, chemical, 
# crystal, experimental, refinement or atomic coordinate data resulting 
# from the CCDC's data processing and validation procedures.
#
#######################################################################

data_OMEVIM
_symmetry_cell_setting           triclinic
_symmetry_space_group_name_H-M   'P -1'
_symmetry_Int_Tables_number      2
_space_group_name_Hall           '-P 1'
loop_
_symmetry_equiv_pos_site_id
_symmetry_equiv_pos_as_xyz
1 x,y,z
2 -x,-y,-z
_cell_length_a                   7.8318(6)
_cell_length_b                   10.5694(8)
_cell_length_c                   10.8238(8)
_cell_angle_alpha                114.860(2)
_cell_angle_beta                 96.655(3)
_cell_angle_gamma                104.402(3)
_cell_volume                     762.22
loop_
_atom_site_label
_atom_site_type_symbol
_atom_site_fract_x
_atom_site_fract_y
_atom_site_fract_z
La1 La 0.045869(19) 0.699935(16) 0.806922(14)
O1 O 0.3322(3) 0.9180(3) 0.8673(3)
H1 H 0.353(8) 0.992(7) 0.918(6)
H2 H 0.432(9) 0.890(8) 0.832(7)
O2 O 0.1690(3) 0.5880(3) 0.9489(2)
H3 H 0.243(10) 0.648(9) 1.044(8)
H4 H 0.26(2) 0.59(3) 0.895(18)
O3 O 0.3099(3) 0.6195(3) 0.7291(3)
H5 H 0.364(5) 0.697(5) 0.806(4)
H6 H 0.331(7) 0.623(7) 0.662(6)
O4 O -0.2850(3) 0.6152(3) 0.6475(2)
H7 H -0.332(6) 0.529(4) 0.605(4)
H8 H -0.326(10) 0.668(7) 0.728(5)
O5 O -0.2118(3) 0.6428(3) 0.9154(3)
H9 H -0.209(8) 0.687(8) 1.013(7)
H10 H -0.305(8) 0.579(7) 0.862(6)
S1 S -0.17674(8) 0.98342(7) 0.81767(6)
O6 O -0.0273(3) 0.9241(2) 0.8205(2)
O7 O -0.1299(3) 1.1333(2) 0.9300(2)
O8 O -0.3459(3) 0.8830(3) 0.8130(2)
C1 C -0.2105(3) 0.9947(3) 0.6579(3)
C2 C -0.1799(3) 1.1325(3) 0.6627(3)
H11 H -0.140(6) 1.222(5) 0.741(4)
C3 C -0.2041(3) 1.1372(3) 0.5349(3)
S2 S -0.16793(8) 1.30712(7) 0.53079(7)
O9 O -0.0561(3) 1.3054(2) 0.4317(2)
O10 O -0.0746(3) 1.4225(2) 0.6743(2)
O11 O -0.3473(3) 1.3127(3) 0.4843(2)
C4 C -0.2626(4) 1.0103(3) 0.4074(3)
H12 H -0.269(7) 1.021(7) 0.319(6)
C5 C -0.2968(3) 0.8734(3) 0.4059(3)
S3 S -0.37722(9) 0.71285(7) 0.23987(7)
O12 O -0.4600(3) 0.5887(3) 0.2652(2)
O13 O -0.2173(3) 0.6965(3) 0.1850(2)
O14 O -0.5052(4) 0.7410(3) 0.1547(3)
C6 C -0.2687(3) 0.8643(3) 0.5312(3)
H13 H -0.288(6) 0.774(6) 0.530(5)
La1A La -0.045869(19) 1.300065(16) 1.193078(14)
La1A_2 La -0.045869(19) 1.300065(16) 0.193078(14)
La1_2 La 0.045869(19) 1.699935(16) 0.806922(14)
O7A O 0.1299(3) 0.8667(2) 1.0700(2)
O9A O 0.0561(3) 0.6946(2) 0.5683(2)
O10_2 O -0.0746(3) 0.4225(2) 0.6743(2)
loop_
_geom_bond_atom_site_label_1
_geom_bond_atom_site_label_2
_geom_bond_site_symmetry_1
_geom_bond_site_symmetry_2
La1 O1 1_555 1_555
O1 H1 1_555 1_555
H2 O1 1_555 1_555
O2 La1 1_555 1_555
H3 O2 1_555 1_555
H4 O2 1_555 1_555
O3 La1 1_555 1_555
H5 O3 1_555 1_555
H6 O3 1_555 1_555
O4 La1 1_555 1_555
H7 O4 1_555 1_555
H8 O4 1_555 1_555
O5 La1 1_555 1_555
H9 O5 1_555 1_555
H10 O5 1_555 1_555
S1 O6 1_555 1_555
O6 La1 1_555 1_555
O7 S1 1_555 1_555
O8 S1 1_555 1_555
C1 S1 1_555 1_555
C2 C1 1_555 1_555
H11 C2 1_555 1_555
C3 C2 1_555 1_555
S2 C3 1_555 1_555
O9 S2 1_555 1_555
O10 S2 1_555 1_555
O11 S2 1_555 1_555
C4 C3 1_555 1_555
H12 C4 1_555 1_555
C5 C4 1_555 1_555
S3 C5 1_555 1_555
O12 S3 1_555 1_555
O13 S3 1_555 1_555
O14 S3 1_555 1_555
C6 C1 1_555 1_555
H13 C6 1_555 1_555
La1A O7 1_555 1_555
La1A_2 O9 1_555 1_555
La1_2 O10 1_555 1_555
O7A La1 1_555 1_555
O9A La1 1_555 1_555
O10_2 La1 1_555 1_555
C5 C6 1_555 1_555

#END
