
#######################################################################
#
#                 Cambridge Crystallographic Data Centre
#                                CCDC 
#
#######################################################################
#
# If this CIF has been generated from an entry in the Cambridge 
# Structural Database, then it will include bibliographic, chemical, 
# crystal, experimental, refinement or atomic coordinate data resulting 
# from the CCDC's data processing and validation procedures.
#
#######################################################################

data_OMEYAH
_symmetry_cell_setting           triclinic
_symmetry_space_group_name_H-M   'P -1'
_symmetry_Int_Tables_number      2
_space_group_name_Hall           '-P 1'
loop_
_symmetry_equiv_pos_site_id
_symmetry_equiv_pos_as_xyz
1 x,y,z
2 -x,-y,-z
_cell_length_a                   9.6827(15)
_cell_length_b                   10.9009(17)
_cell_length_c                   14.134(2)
_cell_angle_alpha                67.564(2)
_cell_angle_beta                 75.093(2)
_cell_angle_gamma                67.708(2)
_cell_volume                     1264.78
loop_
_atom_site_label
_atom_site_type_symbol
_atom_site_fract_x
_atom_site_fract_y
_atom_site_fract_z
Co1 Co 0.28049(6) 0.32284(5) 0.44277(4)
O1 O 0.3365(3) 0.2394(3) 0.3268(2)
O2 O 0.1131(7) 0.270(2) 0.2935(14)
O3 O 0.1887(3) 0.3509(3) 0.5993(2)
O4 O 0.2433(3) 0.1534(3) 0.5699(2)
O5 O 0.0523(3) 0.4044(4) 0.4197(3)
H1 H 0.057(6) 0.380(6) 0.369(3)
H2 H -0.011(5) 0.473(4) 0.438(4)
N1 N 0.5114(4) 0.2579(4) 0.4619(3)
N2 N 0.3359(4) 0.5074(4) 0.3716(3)
C1 C 0.2540(5) 0.2401(5) 0.2712(4)
C2 C 0.3279(5) 0.1685(5) 0.1912(4)
C3 C 0.2439(6) 0.1412(8) 0.1417(5)
H3 H 0.1398 0.1670 0.1584
C4 C 0.3106(6) 0.0770(7) 0.0686(5)
H4 H 0.2501 0.0603 0.0364
C5 C 0.4638(5) 0.0357(4) 0.0400(3)
C6 C 0.5467(5) 0.0551(6) 0.0962(4)
H5 H 0.6512 0.0230 0.0834
C7 C 0.4808(5) 0.1195(6) 0.1696(4)
H6 H 0.5410 0.1303 0.2057
C8 C 0.1913(4) 0.2242(4) 0.6296(3)
C9 C 0.1335(4) 0.1596(4) 0.7392(3)
C10 C 0.0788(5) 0.2330(4) 0.8090(3)
H7 H 0.0785 0.3250 0.7880
C11 C 0.0247(5) 0.1715(5) 0.9096(3)
H8 H -0.0134 0.2235 0.9549
C12 C 0.0260(4) 0.0337(4) 0.9447(3)
C13 C 0.0816(5) -0.0394(5) 0.8738(3)
H9 H 0.0839 -0.1320 0.8952
C14 C 0.1333(5) 0.0217(5) 0.7727(3)
H10 H 0.1682 -0.0291 0.7267
C15 C 0.5949(5) 0.1274(5) 0.5082(4)
H11 H 0.5493 0.0577 0.5370
C16 C 0.7460(6) 0.0918(6) 0.5152(5)
H12 H 0.8023 -0.0002 0.5456
C17 C 0.8101(6) 0.1974(6) 0.4754(6)
H13 H 0.9107 0.1778 0.4802
C18 C 0.7256(6) 0.3310(6) 0.4290(5)
H14 H 0.7684 0.4027 0.4020
C19 C 0.5764(5) 0.3587(4) 0.4226(3)
C20 C 0.4772(5) 0.4997(5) 0.3720(3)
C21 C 0.5234(6) 0.6162(5) 0.3291(4)
H15 H 0.6207 0.6100 0.3323
C22 C 0.4238(7) 0.7424(6) 0.2814(5)
H16 H 0.4547 0.8215 0.2498
C23 C 0.2801(7) 0.7510(6) 0.2805(6)
H17 H 0.2108 0.8353 0.2492
C24 C 0.2413(6) 0.6298(5) 0.3279(5)
H18 H 0.1428 0.6348 0.3291
Co1A Co 0.71951(6) -0.32284(5) -0.44277(4)
Co1A_2 Co -0.28049(6) -0.32284(5) 1.55723(4)
O1A O 0.6635(3) -0.2394(3) -0.3268(2)
O2A O 0.8869(7) -0.270(2) -0.2935(14)
O3A O -0.1887(3) -0.3509(3) 1.4007(2)
O3A_2 O 0.8113(3) -0.3509(3) -0.5993(2)
O4A O -0.2433(3) -0.1534(3) 1.4301(2)
O4A_2 O 0.7567(3) -0.1534(3) -0.5699(2)
O5A O 0.9477(3) -0.4044(4) -0.4197(3)
H1A H 0.943(6) -0.380(6) -0.369(3)
H2A H 1.011(5) -0.473(4) -0.438(4)
N1A N 0.4886(4) -0.2579(4) -0.4619(3)
N2A N 0.6641(4) -0.5074(4) -0.3716(3)
C1A C 0.7460(5) -0.2401(5) -0.2712(4)
C2A C 0.6721(5) -0.1685(5) -0.1912(4)
C3A C 0.7561(6) -0.1412(8) -0.1417(5)
H3A H 0.8602 -0.1670 -0.1584
C4A C 0.6894(6) -0.0770(7) -0.0686(5)
H4A H 0.7499 -0.0603 -0.0364
C5A C 0.5362(5) -0.0357(4) -0.0400(3)
C6A C 0.4533(5) -0.0551(6) -0.0962(4)
H5A H 0.3488 -0.0230 -0.0834
C7A C 0.5192(5) -0.1195(6) -0.1696(4)
H6A H 0.4590 -0.1303 -0.2057
C8A C -0.1913(4) -0.2242(4) 1.3704(3)
C9A C -0.1335(4) -0.1596(4) 1.2608(3)
C10A C -0.0788(5) -0.2330(4) 1.1910(3)
H7A H -0.0785 -0.3250 1.2120
C11A C -0.0247(5) -0.1715(5) 1.0904(3)
H8A H 0.0134 -0.2235 1.0451
C12A C -0.0260(4) -0.0337(4) 1.0553(3)
C13A C -0.0816(5) 0.0394(5) 1.1262(3)
H9A H -0.0839 0.1320 1.1048
C14A C -0.1333(5) -0.0217(5) 1.2273(3)
H10A H -0.1682 0.0291 1.2733
C15A C 0.4051(5) -0.1274(5) -0.5082(4)
H11A H 0.4507 -0.0577 -0.5370
C16A C 0.2540(6) -0.0918(6) -0.5152(5)
H12A H 0.1977 0.0002 -0.5456
C17A C 0.1899(6) -0.1974(6) -0.4754(6)
H13A H 0.0893 -0.1778 -0.4802
C18A C 0.2744(6) -0.3310(6) -0.4290(5)
H14A H 0.2316 -0.4027 -0.4020
C19A C 0.4236(5) -0.3587(4) -0.4226(3)
C20A C 0.5228(5) -0.4997(5) -0.3720(3)
C21A C 0.4766(6) -0.6162(5) -0.3291(4)
H15A H 0.3793 -0.6100 -0.3323
C22A C 0.5762(7) -0.7424(6) -0.2814(5)
H16A H 0.5453 -0.8215 -0.2498
C23A C 0.7199(7) -0.7510(6) -0.2805(6)
H17A H 0.7892 -0.8353 -0.2492
C24A C 0.7587(6) -0.6298(5) -0.3279(5)
H18A H 0.8572 -0.6348 -0.3291
O6 O 0.945(3) 0.478(2) 0.128(2)
O7 O 0.834(4) 0.427(3) 0.022(2)
O8 O 0.643(5) 0.458(5) 0.091(4)
O9? O 0.904(4) 0.385(4) 0.116(3)
O10? O 0.788(4) 0.464(4) 0.119(3)
O11? O 0.701(6) 0.469(5) 0.034(4)
O12? O 0.130(3) 0.337(3) 0.251(2)
loop_
_geom_bond_atom_site_label_1
_geom_bond_atom_site_label_2
_geom_bond_site_symmetry_1
_geom_bond_site_symmetry_2
Co1 O1 1_555 1_555
O1 C1 1_555 1_555
O2 C1 1_555 1_555
O3 Co1 1_555 1_555
O4 Co1 1_555 1_555
O5 Co1 1_555 1_555
H1 O5 1_555 1_555
H2 O5 1_555 1_555
N1 Co1 1_555 1_555
N2 Co1 1_555 1_555
C1 C2 1_555 1_555
C2 C3 1_555 1_555
C3 H3 1_555 1_555
C4 C3 1_555 1_555
H4 C4 1_555 1_555
C5 C4 1_555 1_555
C6 C5 1_555 1_555
H5 C6 1_555 1_555
C7 C2 1_555 1_555
H6 C7 1_555 1_555
C8 O3 1_555 1_555
C9 C8 1_555 1_555
C10 C9 1_555 1_555
H7 C10 1_555 1_555
C11 C10 1_555 1_555
H8 C11 1_555 1_555
C12 C11 1_555 1_555
C13 C12 1_555 1_555
H9 C13 1_555 1_555
C14 C9 1_555 1_555
H10 C14 1_555 1_555
C15 N1 1_555 1_555
H11 C15 1_555 1_555
C16 C15 1_555 1_555
H12 C16 1_555 1_555
C17 C16 1_555 1_555
H13 C17 1_555 1_555
C18 C17 1_555 1_555
H14 C18 1_555 1_555
C19 N1 1_555 1_555
C20 N2 1_555 1_555
C21 C20 1_555 1_555
H15 C21 1_555 1_555
C22 C21 1_555 1_555
H16 C22 1_555 1_555
C23 C22 1_555 1_555
H17 C23 1_555 1_555
C24 N2 1_555 1_555
H18 C24 1_555 1_555
Co1A O1A 1_555 1_555
Co1A_2 O3A 1_555 1_555
O1A C1A 1_555 1_555
O2A C1A 1_555 1_555
O3A C8A 1_555 1_555
O3A_2 Co1A 1_555 1_555
O4A Co1A_2 1_555 1_555
O4A_2 Co1A 1_555 1_555
O5A Co1A 1_555 1_555
H1A O5A 1_555 1_555
H2A O5A 1_555 1_555
N1A Co1A 1_555 1_555
N2A Co1A 1_555 1_555
C1A C2A 1_555 1_555
C2A C3A 1_555 1_555
C3A H3A 1_555 1_555
C4A C3A 1_555 1_555
H4A C4A 1_555 1_555
C5A C5 1_555 1_555
C6A C5A 1_555 1_555
H5A C6A 1_555 1_555
C7A C2A 1_555 1_555
H6A C7A 1_555 1_555
C8A O4A 1_555 1_555
C9A C8A 1_555 1_555
C10A C9A 1_555 1_555
H7A C10A 1_555 1_555
C11A C10A 1_555 1_555
H8A C11A 1_555 1_555
C12A C12 1_555 1_555
C13A C12A 1_555 1_555
H9A C13A 1_555 1_555
C14A C9A 1_555 1_555
H10A C14A 1_555 1_555
C15A N1A 1_555 1_555
H11A C15A 1_555 1_555
C16A C15A 1_555 1_555
H12A C16A 1_555 1_555
C17A C16A 1_555 1_555
H13A C17A 1_555 1_555
C18A C17A 1_555 1_555
H14A C18A 1_555 1_555
C19A N1A 1_555 1_555
C20A N2A 1_555 1_555
C21A C20A 1_555 1_555
H15A C21A 1_555 1_555
C22A C21A 1_555 1_555
H16A C22A 1_555 1_555
C23A C22A 1_555 1_555
H17A C23A 1_555 1_555
C24A N2A 1_555 1_555
H18A C24A 1_555 1_555
O4 C8 1_555 1_555
C6 C7 1_555 1_555
C13 C14 1_555 1_555
C18 C19 1_555 1_555
C19 C20 1_555 1_555
C23 C24 1_555 1_555
C4A C5A 1_555 1_555
C6A C7A 1_555 1_555
C11A C12A 1_555 1_555
C13A C14A 1_555 1_555
C18A C19A 1_555 1_555
C19A C20A 1_555 1_555
C23A C24A 1_555 1_555

#END
