
#######################################################################
#
#                 Cambridge Crystallographic Data Centre
#                                CCDC 
#
#######################################################################
#
# If this CIF has been generated from an entry in the Cambridge 
# Structural Database, then it will include bibliographic, chemical, 
# crystal, experimental, refinement or atomic coordinate data resulting 
# from the CCDC's data processing and validation procedures.
#
#######################################################################

data_OMEYEL
_symmetry_cell_setting           triclinic
_symmetry_space_group_name_H-M   'P -1'
_symmetry_Int_Tables_number      2
_space_group_name_Hall           '-P 1'
loop_
_symmetry_equiv_pos_site_id
_symmetry_equiv_pos_as_xyz
1 x,y,z
2 -x,-y,-z
_cell_length_a                   9.750(2)
_cell_length_b                   10.916(2)
_cell_length_c                   14.277(3)
_cell_angle_alpha                68.120(3)
_cell_angle_beta                 74.156(4)
_cell_angle_gamma                67.459(4)
_cell_volume                     1287.23
loop_
_atom_site_label
_atom_site_type_symbol
_atom_site_fract_x
_atom_site_fract_y
_atom_site_fract_z
Zn1 Zn 0.28618(5) 0.31582(5) 0.44306(4)
O2 O 0.2425(4) 0.1593(3) 0.5720(2)
O3 O 0.1871(3) 0.3551(3) 0.6071(2)
O4 O 0.1146(4) 0.2565(6) 0.3049(4)
O5 O 0.3386(3) 0.2282(3) 0.3321(2)
O6 O 0.0547(4) 0.4026(4) 0.4256(3)
H1 H -0.015(7) 0.488(6) 0.414(4)
H2 H 0.050(8) 0.389(7) 0.387(5)
N2 N 0.3371(4) 0.5031(4) 0.3721(3)
N3 N 0.5163(4) 0.2557(4) 0.4619(3)
C4 C 0.1916(5) 0.2302(5) 0.6339(3)
C5 C 0.1348(5) 0.1610(5) 0.7422(3)
C6 C 0.1340(6) 0.0250(5) 0.7730(3)
H3 H 0.1686 -0.0247 0.7260
C7 C 0.0819(6) -0.0370(5) 0.8732(3)
H4 H 0.0834 -0.1288 0.8926
C8 C 0.0271(5) 0.0339(5) 0.9459(3)
C9 C 0.0263(6) 0.1704(5) 0.9126(3)
H5 H -0.0115 0.2217 0.9586
C10 C 0.0803(5) 0.2331(5) 0.8125(3)
H6 H 0.0796 0.3247 0.7929
C11 C 0.2542(5) 0.2201(6) 0.2848(4)
C12 C 0.3276(5) 0.1549(5) 0.2001(4)
C13 C 0.2432(6) 0.1237(7) 0.1540(5)
H7 H 0.1402 0.1430 0.1754
C14 C 0.3111(6) 0.0638(7) 0.0762(5)
H8 H 0.2522 0.0438 0.0460
C15 C 0.4644(5) 0.0326(5) 0.0415(3)
C16 C 0.5463(5) 0.0548(6) 0.0952(4)
H9 H 0.6504 0.0284 0.0784
C17 C 0.4798(5) 0.1143(6) 0.1727(4)
H10 H 0.5394 0.1271 0.2069
C18 C 0.2412(6) 0.6251(6) 0.3289(5)
H11 H 0.1432 0.6294 0.3314
C19 C 0.2797(8) 0.7443(6) 0.2812(6)
H12 H 0.2109 0.8271 0.2499
C20 C 0.4234(7) 0.7379(6) 0.2811(6)
H13 H 0.4524 0.8176 0.2505
C21 C 0.5239(6) 0.6142(5) 0.3260(4)
H14 H 0.6211 0.6091 0.3267
C22 C 0.4782(5) 0.4968(4) 0.3704(3)
C23 C 0.5785(5) 0.3582(5) 0.4201(3)
C24 C 0.7268(6) 0.3333(6) 0.4237(5)
H15 H 0.7677 0.4058 0.3959
C25 C 0.8138(7) 0.2009(7) 0.4686(6)
H16 H 0.9144 0.1822 0.4709
C26 C 0.7491(6) 0.0961(6) 0.5101(6)
H17 H 0.8057 0.0052 0.5400
C27 C 0.6006(6) 0.1284(5) 0.5064(4)
H18 H 0.5564 0.0581 0.5364
Zn1A Zn -0.28618(5) -0.31582(5) 1.55694(4)
Zn1A_2 Zn 0.71382(5) -0.31582(5) -0.44306(4)
O2A O -0.2425(4) -0.1593(3) 1.4280(2)
O2A_2 O 0.7575(4) -0.1593(3) -0.5720(2)
O3A O -0.1871(3) -0.3551(3) 1.3929(2)
O3A_2 O 0.8129(3) -0.3551(3) -0.6071(2)
O4A O 0.8854(4) -0.2565(6) -0.3049(4)
O5A O 0.6614(3) -0.2282(3) -0.3321(2)
O6A O 0.9453(4) -0.4026(4) -0.4256(3)
H1A H 1.015(7) -0.488(6) -0.414(4)
H2A H 0.950(8) -0.389(7) -0.387(5)
N2A N 0.6629(4) -0.5031(4) -0.3721(3)
N3A N 0.4837(4) -0.2557(4) -0.4619(3)
C4A C -0.1916(5) -0.2302(5) 1.3661(3)
C5A C -0.1348(5) -0.1610(5) 1.2578(3)
C6A C -0.1340(6) -0.0250(5) 1.2270(3)
H3A H -0.1686 0.0247 1.2740
C7A C -0.0819(6) 0.0370(5) 1.1268(3)
H4A H -0.0834 0.1288 1.1074
C8A C -0.0271(5) -0.0339(5) 1.0541(3)
C9A C -0.0263(6) -0.1704(5) 1.0874(3)
H5A H 0.0115 -0.2217 1.0414
C10A C -0.0803(5) -0.2331(5) 1.1875(3)
H6A H -0.0796 -0.3247 1.2071
C11A C 0.7458(5) -0.2201(6) -0.2848(4)
C12A C 0.6724(5) -0.1549(5) -0.2001(4)
C13A C 0.7568(6) -0.1237(7) -0.1540(5)
H7A H 0.8598 -0.1430 -0.1754
C14A C 0.6889(6) -0.0638(7) -0.0762(5)
H8A H 0.7478 -0.0438 -0.0460
C15A C 0.5356(5) -0.0326(5) -0.0415(3)
C16A C 0.4537(5) -0.0548(6) -0.0952(4)
H9A H 0.3496 -0.0284 -0.0784
C17A C 0.5202(5) -0.1143(6) -0.1727(4)
H10A H 0.4606 -0.1271 -0.2069
C18A C 0.7588(6) -0.6251(6) -0.3289(5)
H11A H 0.8568 -0.6294 -0.3314
C19A C 0.7203(8) -0.7443(6) -0.2812(6)
H12A H 0.7891 -0.8271 -0.2499
C20A C 0.5766(7) -0.7379(6) -0.2811(6)
H13A H 0.5476 -0.8176 -0.2505
C21A C 0.4761(6) -0.6142(5) -0.3260(4)
H14A H 0.3789 -0.6091 -0.3267
C22A C 0.5218(5) -0.4968(4) -0.3704(3)
C23A C 0.4215(5) -0.3582(5) -0.4201(3)
C24A C 0.2732(6) -0.3333(6) -0.4237(5)
H15A H 0.2323 -0.4058 -0.3959
C25A C 0.1862(7) -0.2009(7) -0.4686(6)
H16A H 0.0856 -0.1822 -0.4709
C26A C 0.2509(6) -0.0961(6) -0.5101(6)
H17A H 0.1943 -0.0052 -0.5400
C27A C 0.3994(6) -0.1284(5) -0.5064(4)
H18A H 0.4436 -0.0581 -0.5364
O1 O 0.467(2) 0.484(2) 0.9203(14)
N1 N 0.2025(16) 0.5085(15) 0.9999(12)
C1 C 0.3524(16) 0.5154(18) 0.9848(15)
C2 C 0.067(2) 0.486(2) 1.0665(16)
C3 C 0.161(3) 0.538(2) 0.8983(14)
O7? O 0.0353(17) 0.5358(15) 0.8983(11)
O8? O 0.314(3) 0.509(3) 0.926(2)
O9? O 0.622(2) 0.4765(19) 0.9192(14)
O10? O 0.759(4) 0.503(3) 0.919(2)
O11? O 0.5000 0.5000 1.0000
loop_
_geom_bond_atom_site_label_1
_geom_bond_atom_site_label_2
_geom_bond_site_symmetry_1
_geom_bond_site_symmetry_2
O1 C1 1_555 1_555
N1 C1 1_555 1_555
C2 N1 1_555 1_555
C3 N1 1_555 1_555
Zn1 O2 1_555 1_555
O2 C4 1_555 1_555
O3 Zn1 1_555 1_555
O4 C11 1_555 1_555
O5 Zn1 1_555 1_555
O6 Zn1 1_555 1_555
H1 O6 1_555 1_555
H2 O6 1_555 1_555
N2 Zn1 1_555 1_555
N3 Zn1 1_555 1_555
C4 O3 1_555 1_555
C5 C4 1_555 1_555
C6 C5 1_555 1_555
H3 C6 1_555 1_555
C7 C6 1_555 1_555
H4 C7 1_555 1_555
C8 C7 1_555 1_555
C9 C8 1_555 1_555
H5 C9 1_555 1_555
C10 C5 1_555 1_555
H6 C10 1_555 1_555
C11 O5 1_555 1_555
C12 C11 1_555 1_555
C13 C12 1_555 1_555
H7 C13 1_555 1_555
C14 C13 1_555 1_555
H8 C14 1_555 1_555
C15 C14 1_555 1_555
C16 C15 1_555 1_555
H9 C16 1_555 1_555
C17 C12 1_555 1_555
H10 C17 1_555 1_555
C18 N2 1_555 1_555
H11 C18 1_555 1_555
C19 C18 1_555 1_555
H12 C19 1_555 1_555
C20 C19 1_555 1_555
H13 C20 1_555 1_555
C21 C20 1_555 1_555
H14 C21 1_555 1_555
C22 N2 1_555 1_555
C23 N3 1_555 1_555
C24 C23 1_555 1_555
H15 C24 1_555 1_555
C25 C24 1_555 1_555
H16 C25 1_555 1_555
C26 C25 1_555 1_555
H17 C26 1_555 1_555
C27 N3 1_555 1_555
H18 C27 1_555 1_555
Zn1A O2A 1_555 1_555
Zn1A_2 O2A_2 1_555 1_555
O2A C4A 1_555 1_555
O3A Zn1A 1_555 1_555
O3A_2 Zn1A_2 1_555 1_555
O4A C11A 1_555 1_555
O5A Zn1A_2 1_555 1_555
O6A Zn1A_2 1_555 1_555
H1A O6A 1_555 1_555
H2A O6A 1_555 1_555
N2A Zn1A_2 1_555 1_555
N3A Zn1A_2 1_555 1_555
C4A O3A 1_555 1_555
C5A C4A 1_555 1_555
C6A C5A 1_555 1_555
H3A C6A 1_555 1_555
C7A C6A 1_555 1_555
H4A C7A 1_555 1_555
C8A C8 1_555 1_555
C9A C8A 1_555 1_555
H5A C9A 1_555 1_555
C10A C5A 1_555 1_555
H6A C10A 1_555 1_555
C11A O5A 1_555 1_555
C12A C11A 1_555 1_555
C13A C12A 1_555 1_555
H7A C13A 1_555 1_555
C14A C13A 1_555 1_555
H8A C14A 1_555 1_555
C15A C15 1_555 1_555
C16A C15A 1_555 1_555
H9A C16A 1_555 1_555
C17A C12A 1_555 1_555
H10A C17A 1_555 1_555
C18A N2A 1_555 1_555
H11A C18A 1_555 1_555
C19A C18A 1_555 1_555
H12A C19A 1_555 1_555
C20A C19A 1_555 1_555
H13A C20A 1_555 1_555
C21A C20A 1_555 1_555
H14A C21A 1_555 1_555
C22A N2A 1_555 1_555
C23A N3A 1_555 1_555
C24A C23A 1_555 1_555
H15A C24A 1_555 1_555
C25A C24A 1_555 1_555
H16A C25A 1_555 1_555
C26A C25A 1_555 1_555
H17A C26A 1_555 1_555
C27A N3A 1_555 1_555
H18A C27A 1_555 1_555
C9 C10 1_555 1_555
C16 C17 1_555 1_555
C21 C22 1_555 1_555
C22 C23 1_555 1_555
C26 C27 1_555 1_555
C7A C8A 1_555 1_555
C9A C10A 1_555 1_555
C14A C15A 1_555 1_555
C16A C17A 1_555 1_555
C21A C22A 1_555 1_555
C22A C23A 1_555 1_555
C26A C27A 1_555 1_555

#END
