
#######################################################################
#
#                 Cambridge Crystallographic Data Centre
#                                CCDC 
#
#######################################################################
#
# If this CIF has been generated from an entry in the Cambridge 
# Structural Database, then it will include bibliographic, chemical, 
# crystal, experimental, refinement or atomic coordinate data resulting 
# from the CCDC's data processing and validation procedures.
#
#######################################################################

data_OMEZUC01
_symmetry_cell_setting           monoclinic
_symmetry_space_group_name_H-M   'P 21/n'
_symmetry_Int_Tables_number      14
_space_group_name_Hall           '-P 2yn'
loop_
_symmetry_equiv_pos_site_id
_symmetry_equiv_pos_as_xyz
1 x,y,z
2 1/2-x,1/2+y,1/2-z
3 -x,-y,-z
4 1/2+x,1/2-y,1/2+z
_cell_length_a                   14.3219(9)
_cell_length_b                   5.7110(3)
_cell_length_c                   15.0857(9)
_cell_angle_alpha                90
_cell_angle_beta                 109.377(7)
_cell_angle_gamma                90
_cell_volume                     1164
loop_
_atom_site_label
_atom_site_type_symbol
_atom_site_fract_x
_atom_site_fract_y
_atom_site_fract_z
N1 N 0.4769(6) 0.9384(13) 0.1969(5)
Cu1 Cu 0.49853(13) 0.2567(3) 0.23947(9)
S1 S 0.4305(2) 0.4987(4) 0.10913(17)
N2 N 0.4469(6) 0.4024(13) 0.3395(5)
O1 O 0.6130(6) 0.8756(11) 0.4305(5)
N3 N 0.6397(5) 0.3386(12) 0.3194(5)
C1 C 0.4817(7) 0.6091(16) 0.3782(6)
C2 C 0.2913(7) 0.483(2) 0.3636(6)
H1 H 0.2282 0.4318 0.3588
C3 C 0.8364(8) 0.4330(18) 0.4256(7)
H2 H 0.9019 0.4656 0.4608
C4 C 0.5875(8) 0.6832(15) 0.3958(6)
C5 C 0.4234(7) 0.765(2) 0.4120(6)
H3 H 0.4496 0.9064 0.4395
C6 C 0.3273(8) 0.7022(17) 0.4034(6)
H4 H 0.2873 0.8028 0.4235
C7 C 0.6645(7) 0.5290(17) 0.3792(6)
C8 C 0.3526(7) 0.3503(17) 0.3327(6)
H5 H 0.3273 0.2092 0.3039
C9 C 0.7626(8) 0.5772(18) 0.4295(7)
H6 H 0.7782 0.7110 0.4666
C10 C 0.7148(7) 0.2021(17) 0.3173(7)
H7 H 0.6988 0.0728 0.2777
C11 C 0.8127(7) 0.233(2) 0.3676(6)
H8 H 0.8610 0.1288 0.3637
C12 C 0.4570(6) 0.7585(18) 0.1607(5)
N1_2 N 0.4769(6) -0.0616(13) 0.1969(5)
Cu1_2 Cu 0.49853(13) 1.2567(3) 0.23947(9)
loop_
_geom_bond_atom_site_label_1
_geom_bond_atom_site_label_2
_geom_bond_site_symmetry_1
_geom_bond_site_symmetry_2
N1 C12 1_555 1_555
Cu1 S1 1_555 1_555
S1 C12 1_555 1_555
N2 Cu1 1_555 1_555
O1 C4 1_555 1_555
N3 Cu1 1_555 1_555
C1 N2 1_555 1_555
C2 H1 1_555 1_555
C3 H2 1_555 1_555
C4 C1 1_555 1_555
C5 C1 1_555 1_555
H3 C5 1_555 1_555
C6 C2 1_555 1_555
H4 C6 1_555 1_555
C7 N3 1_555 1_555
C8 N2 1_555 1_555
H5 C8 1_555 1_555
C9 C3 1_555 1_555
H6 C9 1_555 1_555
C10 N3 1_555 1_555
H7 C10 1_555 1_555
C11 C3 1_555 1_555
H8 C11 1_555 1_555
N1_2 Cu1 1_555 1_555
Cu1_2 N1 1_555 1_555
C2 C8 1_555 1_555
C4 C7 1_555 1_555
C5 C6 1_555 1_555
C7 C9 1_555 1_555
C10 C11 1_555 1_555

#END
