
#######################################################################
#
#                 Cambridge Crystallographic Data Centre
#                                CCDC 
#
#######################################################################
#
# If this CIF has been generated from an entry in the Cambridge 
# Structural Database, then it will include bibliographic, chemical, 
# crystal, experimental, refinement or atomic coordinate data resulting 
# from the CCDC's data processing and validation procedures.
#
#######################################################################

data_OMEZUC
_symmetry_cell_setting           orthorhombic
_symmetry_space_group_name_H-M   'P n m a'
_symmetry_Int_Tables_number      62
_space_group_name_Hall           '-P 2ac 2n'
loop_
_symmetry_equiv_pos_site_id
_symmetry_equiv_pos_as_xyz
1 x,y,z
2 1/2-x,-y,1/2+z
3 1/2+x,1/2-y,1/2-z
4 -x,1/2+y,-z
5 -x,-y,-z
6 1/2+x,y,1/2-z
7 1/2-x,1/2+y,1/2+z
8 x,1/2-y,z
_cell_length_a                   8.1396(2)
_cell_length_b                   13.4112(3)
_cell_length_c                   11.0248(2)
_cell_angle_alpha                90
_cell_angle_beta                 90
_cell_angle_gamma                90
_cell_volume                     1203.49
loop_
_atom_site_label
_atom_site_type_symbol
_atom_site_fract_x
_atom_site_fract_y
_atom_site_fract_z
Cu1 Cu 0.26659(4) 0.2500 0.93398(3)
S1 S -0.01892(7) 0.2500 0.96381(5)
O1 O 0.6331(2) 0.2500 1.2398(2)
N1 N 0.34098(17) 0.13803(10) 1.04818(13)
C1 C 0.5081(3) 0.2500 1.1788(2)
C2 C 0.4353(2) 0.15011(13) 1.14699(16)
C3 C 0.2865(2) 0.04534(13) 1.02408(18)
H1 H 0.2227 0.0358 0.9551
C4 C 0.4146(3) -0.02313(15) 1.1988(2)
H2 H 0.4382 -0.0765 1.2497
C5 C 0.4736(2) 0.07139(15) 1.22443(18)
H3 H 0.5382 0.0822 1.2927
C6 C 0.3203(2) -0.03644(14) 1.0962(2)
H4 H 0.2803 -0.0992 1.0758
C7 C -0.0968(3) 0.2500 0.8248(2)
N2 N -0.1533(3) 0.2500 0.72891(19)
Cu1B Cu -0.23341(4) 0.2500 0.56602(3)
N1G N 0.34098(17) 0.36197(10) 1.04818(13)
C2G C 0.4353(2) 0.34989(13) 1.14699(16)
C3G C 0.2865(2) 0.45466(13) 1.02408(18)
H1G H 0.2227 0.4642 0.9551
C4G C 0.4146(3) 0.52313(15) 1.1988(2)
H2G H 0.4382 0.5765 1.2497
C5G C 0.4736(2) 0.42861(15) 1.22443(18)
H3G H 0.5382 0.4178 1.2927
C6G C 0.3203(2) 0.53644(14) 1.0962(2)
H4G H 0.2803 0.5992 1.0758
N2B N 0.3467(3) 0.2500 0.77109(19)
loop_
_geom_bond_atom_site_label_1
_geom_bond_atom_site_label_2
_geom_bond_site_symmetry_1
_geom_bond_site_symmetry_2
Cu1 S1 1_555 1_555
S1 C7 1_555 1_555
O1 C1 1_555 1_555
N1 Cu1 1_555 1_555
C1 C2 1_555 1_555
C2 N1 1_555 1_555
C3 N1 1_555 1_555
H1 C3 1_555 1_555
C4 H2 1_555 1_555
C5 C2 1_555 1_555
H3 C5 1_555 1_555
C6 C3 1_555 1_555
H4 C6 1_555 1_555
C7 N2 1_555 1_555
N2 Cu1B 1_555 1_555
N1G Cu1 1_555 1_555
C2G C1 1_555 1_555
C3G N1G 1_555 1_555
H1G C3G 1_555 1_555
C4G H2G 1_555 1_555
C5G C2G 1_555 1_555
H3G C5G 1_555 1_555
C6G C3G 1_555 1_555
H4G C6G 1_555 1_555
N2B Cu1 1_555 1_555
C4 C5 1_555 1_555
C4 C6 1_555 1_555
N1G C2G 1_555 1_555
C4G C5G 1_555 1_555
C4G C6G 1_555 1_555

#END
