
#######################################################################
#
#                 Cambridge Crystallographic Data Centre
#                                CCDC 
#
#######################################################################
#
# If this CIF has been generated from an entry in the Cambridge 
# Structural Database, then it will include bibliographic, chemical, 
# crystal, experimental, refinement or atomic coordinate data resulting 
# from the CCDC's data processing and validation procedures.
#
#######################################################################

data_OMICUJ
_symmetry_cell_setting           monoclinic
_symmetry_space_group_name_H-M   'C 2/c'
_symmetry_Int_Tables_number      15
_space_group_name_Hall           '-C 2yn'
loop_
_symmetry_equiv_pos_site_id
_symmetry_equiv_pos_as_xyz
1 x,y,z
2 -x,y,1/2-z
3 1/2+x,1/2+y,z
4 1/2-x,1/2+y,1/2-z
5 -x,-y,-z
6 x,-y,1/2+z
7 1/2-x,1/2-y,-z
8 1/2+x,1/2-y,1/2+z
_cell_length_a                   22.339(5)
_cell_length_b                   9.697(5)
_cell_length_c                   15.663(5)
_cell_angle_alpha                90
_cell_angle_beta                 116.931(5)
_cell_angle_gamma                90
_cell_volume                     3024.98
loop_
_atom_site_label
_atom_site_type_symbol
_atom_site_fract_x
_atom_site_fract_y
_atom_site_fract_z
Zn1 Zn 0.23487(3) 0.14049(5) 0.66094(4)
Zn2 Zn 0.17573(3) 0.67806(5) 0.53199(4)
C1 C 0.1073(2) 0.0431(4) 0.4979(3)
H1 H 0.1038 -0.0291 0.5344
C2 C 0.0648(2) 0.0665(4) 0.4040(3)
H2 H 0.0276 0.0141 0.3645
C3 C 0.14394(18) 0.2257(4) 0.4579(3)
H3 H 0.1697 0.3022 0.4599
C4 C 0.06485(18) 0.2471(4) 0.2853(3)
H4 H 0.0576 0.1748 0.2388
H5 H 0.1004 0.3060 0.2866
C5 C 0.0000 0.3337(5) 0.2500
C6 C 0.0013(2) 0.4339(4) 0.3287(3)
H6 H 0.0469 0.4673 0.3651
H7 H -0.0267 0.5128 0.2971
C7 C -0.0851(2) 0.3719(5) 0.3817(3)
H8 H -0.1217 0.4010 0.3259
C8 C 0.0179(2) 0.3289(4) 0.4873(3)
H9 H 0.0645 0.3226 0.5183
C9 C -0.0246(2) 0.2919(4) 0.5231(3)
H10 H -0.0121 0.2536 0.5832
N1 N 0.15621(17) 0.1429(4) 0.5303(2)
N2 N 0.08821(15) 0.1832(3) 0.3796(2)
N3 N -0.02105(16) 0.3775(3) 0.3963(2)
N4 N -0.08947(17) 0.3202(4) 0.4561(2)
O1 O 0.23400(15) -0.1660(3) 0.5817(2)
O2 O 0.30928(14) 0.0323(3) 0.6633(2)
O3 O 0.35429(15) -0.1638(3) 0.6061(2)
O4 O 0.20865(17) 0.5030(4) 0.5972(2)
P1 P 0.30533(5) -0.12192(10) 0.64397(7)
H11 H 0.3390 -0.1903 0.7404
P2 P 0.27674(5) 0.46319(10) 0.67541(7)
H12 H 0.3206 0.4657 0.6392
O5 O 0.27954(18) 0.3151(3) 0.7036(3)
O6 O 0.30282(17) 0.5591(3) 0.7609(2)
Zn1A Zn -0.23487(3) 0.14049(5) -0.16094(4)
Zn1C Zn 0.26513(3) 0.64049(5) 0.83906(4)
Zn1C_2 Zn 0.26513(3) -0.35951(5) 0.83906(4)
Zn1_2 Zn 0.23487(3) 1.14049(5) 0.66094(4)
Zn2C Zn 0.32427(3) 0.17806(5) 0.96801(4)
Zn2D Zn -0.17573(3) 0.32194(5) 0.46801(4)
Zn2_2 Zn 0.17573(3) -0.32194(5) 0.53199(4)
Zn2F Zn 0.32427(3) -0.17806(5) 0.46801(4)
Zn2E Zn 0.17573(3) 0.32194(5) 0.03199(4)
Zn2F_2 Zn 0.32427(3) 0.82194(5) 0.46801(4)
C1A C -0.1073(2) 0.0431(4) 0.0021(3)
H1A H -0.1038 -0.0291 -0.0344
C2A C -0.0648(2) 0.0665(4) 0.0960(3)
H2A H -0.0276 0.0141 0.1355
C3A C -0.14394(18) 0.2257(4) 0.0421(3)
H3A H -0.1697 0.3022 0.0401
C4A C -0.06485(18) 0.2471(4) 0.2147(3)
H4A H -0.0576 0.1748 0.2612
H5A H -0.1004 0.3060 0.2134
C6A C -0.0013(2) 0.4339(4) 0.1713(3)
H6A H -0.0469 0.4673 0.1349
H7A H 0.0267 0.5128 0.2029
C7A C 0.0851(2) 0.3719(5) 0.1183(3)
H8A H 0.1217 0.4010 0.1741
C8A C -0.0179(2) 0.3289(4) 0.0127(3)
H9A H -0.0645 0.3226 -0.0183
C9A C 0.0246(2) 0.2919(4) -0.0231(3)
H10A H 0.0121 0.2536 -0.0832
N1A N -0.15621(17) 0.1429(4) -0.0303(2)
N2A N -0.08821(15) 0.1832(3) 0.1204(2)
N3A N 0.02105(16) 0.3775(3) 0.1037(2)
N4A N 0.08947(17) 0.3202(4) 0.0439(2)
N4D N 0.08947(17) 0.6798(4) 0.5439(2)
N4G N 0.41053(17) 0.1798(4) 0.9561(2)
O1_2 O 0.23400(15) 0.8340(3) 0.5817(2)
O1C O 0.26600(15) 0.3340(3) 0.9183(2)
O2_2 O 0.30928(14) 1.0323(3) 0.6633(2)
O2A O -0.30928(14) 0.0323(3) -0.1633(2)
O3_2 O 0.35429(15) 0.8362(3) 0.6061(2)
O3F O 0.14571(15) 0.6638(3) 0.3939(2)
O3E O 0.35429(15) 0.1638(3) 1.1061(2)
O4C O 0.29135(17) 0.0030(4) 0.9028(2)
P1_2 P 0.30533(5) 0.87808(10) 0.64397(7)
H11_2 H 0.3390 0.8097 0.7404
P2C P 0.22326(5) -0.03681(10) 0.82459(7)
H12C H 0.1794 -0.0343 0.8608
O5C O 0.22046(18) -0.1849(3) 0.7964(3)
O5A O -0.27954(18) 0.3151(3) -0.2036(3)
O6C O 0.19718(17) 0.0591(3) 0.7391(2)
O6B O -0.19718(17) 0.0591(3) -0.2391(2)
O7 O 0.0651(2) 0.1346(6) 0.7268(4)
H13 H 0.102(3) 0.111(10) 0.724(6)
H14 H 0.077(4) 0.193(8) 0.774(5)
loop_
_geom_bond_atom_site_label_1
_geom_bond_atom_site_label_2
_geom_bond_site_symmetry_1
_geom_bond_site_symmetry_2
Zn1 N1 1_555 1_555
Zn2 O4 1_555 1_555
C1 H1 1_555 1_555
C2 C1 1_555 1_555
H2 C2 1_555 1_555
C3 H3 1_555 1_555
C4 H4 1_555 1_555
H5 C4 1_555 1_555
C5 C4 1_555 1_555
C6 C5 1_555 1_555
H6 C6 1_555 1_555
H7 C6 1_555 1_555
C7 H8 1_555 1_555
C8 H9 1_555 1_555
C9 C8 1_555 1_555
H10 C9 1_555 1_555
N1 C1 1_555 1_555
N2 C2 1_555 1_555
N3 C6 1_555 1_555
N4 C7 1_555 1_555
O1 P1 1_555 1_555
O2 Zn1 1_555 1_555
O3 P1 1_555 1_555
O4 P2 1_555 1_555
P1 O2 1_555 1_555
H11 P1 1_555 1_555
P2 H12 1_555 1_555
O5 Zn1 1_555 1_555
O6 P2 1_555 1_555
O7 H13 1_555 1_555
H14 O7 1_555 1_555
Zn1A N1A 1_555 1_555
Zn1C O6 1_555 1_555
Zn1C_2 O5C 1_555 1_555
Zn1_2 O2_2 1_555 1_555
Zn2C N4G 1_555 1_555
Zn2D N4 1_555 1_555
Zn2_2 O1 1_555 1_555
Zn2F O3 1_555 1_555
Zn2E N4A 1_555 1_555
Zn2F_2 O3_2 1_555 1_555
C1A H1A 1_555 1_555
C2A C1A 1_555 1_555
H2A C2A 1_555 1_555
C3A H3A 1_555 1_555
C4A C5 1_555 1_555
H4A C4A 1_555 1_555
H5A C4A 1_555 1_555
C6A C5 1_555 1_555
H6A C6A 1_555 1_555
H7A C6A 1_555 1_555
C7A H8A 1_555 1_555
C8A H9A 1_555 1_555
C9A C8A 1_555 1_555
H10A C9A 1_555 1_555
N1A C1A 1_555 1_555
N2A C2A 1_555 1_555
N3A C6A 1_555 1_555
N4A C7A 1_555 1_555
N4D Zn2 1_555 1_555
O1_2 Zn2 1_555 1_555
O1C Zn2C 1_555 1_555
O2_2 P1_2 1_555 1_555
O2A Zn1A 1_555 1_555
O3_2 P1_2 1_555 1_555
O3F Zn2 1_555 1_555
O3E Zn2C 1_555 1_555
O4C Zn2C 1_555 1_555
P1_2 O1_2 1_555 1_555
H11_2 P1_2 1_555 1_555
P2C O4C 1_555 1_555
H12C P2C 1_555 1_555
O5C P2C 1_555 1_555
O5A Zn1A 1_555 1_555
O6C Zn1 1_555 1_555
O6B Zn1A 1_555 1_555
C3 N1 1_555 1_555
C3 N2 1_555 1_555
C4 N2 1_555 1_555
C7 N3 1_555 1_555
C8 N3 1_555 1_555
C9 N4 1_555 1_555
P2 O5 1_555 1_555
C3A N1A 1_555 1_555
C3A N2A 1_555 1_555
C4A N2A 1_555 1_555
C7A N3A 1_555 1_555
C8A N3A 1_555 1_555
C9A N4A 1_555 1_555
P2C O6C 1_555 1_555

#END
