
#######################################################################
#
#                 Cambridge Crystallographic Data Centre
#                                CCDC 
#
#######################################################################
#
# If this CIF has been generated from an entry in the Cambridge 
# Structural Database, then it will include bibliographic, chemical, 
# crystal, experimental, refinement or atomic coordinate data resulting 
# from the CCDC's data processing and validation procedures.
#
#######################################################################

data_OMIDEU
_symmetry_cell_setting           monoclinic
_symmetry_space_group_name_H-M   'P 21/n'
_symmetry_Int_Tables_number      14
_space_group_name_Hall           '-P 2yn'
loop_
_symmetry_equiv_pos_site_id
_symmetry_equiv_pos_as_xyz
1 x,y,z
2 1/2-x,1/2+y,1/2-z
3 -x,-y,-z
4 1/2+x,1/2-y,1/2+z
_cell_length_a                   13.4824(7)
_cell_length_b                   17.0829(6)
_cell_length_c                   18.1315(6)
_cell_angle_alpha                90
_cell_angle_beta                 110.104(5)
_cell_angle_gamma                90
_cell_volume                     3921.58
loop_
_atom_site_label
_atom_site_type_symbol
_atom_site_fract_x
_atom_site_fract_y
_atom_site_fract_z
Zn1 Zn -0.14315(5) 0.09073(4) 0.50100(3)
Zn2 Zn 0.18128(6) 0.08625(4) 0.08181(3)
C1 C -0.1787(6) 0.0783(4) 0.3473(3)
C2 C -0.1626(5) 0.0773(3) 0.2692(3)
C3 C -0.2528(5) 0.0757(4) 0.2024(3)
H1 H -0.3193 0.0758 0.2072
C4 C -0.2438(6) 0.0738(4) 0.1290(3)
H2 H -0.3040 0.0710 0.0843
C5 C -0.1458(5) 0.0763(4) 0.1220(3)
H3 H -0.1406 0.0764 0.0722
C6 C -0.0546(5) 0.0785(3) 0.1869(3)
C7 C -0.0643(5) 0.0782(3) 0.2610(3)
H4 H -0.0039 0.0787 0.3055
C8 C 0.0530(5) 0.0782(3) 0.1764(3)
C9 C -0.0260(5) 0.1279(3) 0.6561(3)
C10 C 0.0692(5) 0.1540(3) 0.7229(3)
C11 C 0.0821(4) 0.1318(3) 0.7992(3)
H5 H 0.0298 0.1023 0.8087
C12 C 0.1705(5) 0.1527(3) 0.8610(3)
C13 C 0.1887(6) 0.1266(3) 0.9446(3)
C14 C 0.2453(5) 0.1986(4) 0.8459(3)
H6 H 0.3049 0.2138 0.8875
C15 C 0.2349(5) 0.2226(4) 0.7716(3)
H7 H 0.2856 0.2544 0.7627
C16 C 0.1477(5) 0.1988(4) 0.7108(3)
H8 H 0.1410 0.2131 0.6598
C17 C -0.3858(6) 0.2007(3) 0.5511(3)
H9 H -0.4122 0.2288 0.5843
C18 C -0.2857(6) 0.1942(3) 0.5572(3)
H10 H -0.2299 0.2187 0.5957
C19 C -0.3723(5) 0.1252(3) 0.4582(3)
H11 H -0.3895 0.0917 0.4151
C20 C -0.5559(5) 0.1415(3) 0.4561(3)
H12 H -0.5764 0.1234 0.4995
H13 H -0.5682 0.0988 0.4188
C21 C -0.5993(5) 0.2455(3) 0.3469(3)
H14 H -0.6402 0.2931 0.3303
H15 H -0.5254 0.2604 0.3670
C22 C -0.7081(5) 0.1827(3) 0.2205(3)
H16 H -0.7723 0.2024 0.2206
C23 C -0.5411(5) 0.1602(4) 0.2558(3)
H17 H -0.4687 0.1596 0.2830
C24 C -0.5938(6) 0.1250(4) 0.1857(3)
H18 H -0.5623 0.0956 0.1566
C25 C -0.6150(5) 0.2764(3) 0.4753(3)
H19 H -0.6319 0.2571 0.5199
H20 H -0.5413 0.2919 0.4944
C26 C -0.7840(5) 0.3592(4) 0.4339(3)
H21 H -0.8323 0.3225 0.4389
C27 C -0.8032(5) 0.4349(3) 0.4153(3)
H22 H -0.8685 0.4592 0.4042
C28 C -0.6408(5) 0.4157(4) 0.4324(2)
H23 H -0.5710 0.4235 0.4361
C29 C -0.6286(5) 0.2086(3) 0.4164(3)
C30 C -0.7423(5) 0.1757(3) 0.3840(3)
H24 H -0.7907 0.2194 0.3669
H25 H -0.7489 0.1444 0.3379
C31 C -0.7975(5) 0.1501(4) 0.5023(3)
H26 H -0.7907 0.2001 0.5238
C32 C -0.8307(5) 0.0861(4) 0.5290(3)
H27 H -0.8510 0.0846 0.5732
C33 C -0.7975(5) 0.0515(3) 0.4268(3)
H28 H -0.7901 0.0224 0.3856
N1 N -0.2748(4) 0.1466(3) 0.4993(2)
N2 N -0.4444(4) 0.1575(3) 0.4858(2)
N3 N -0.6980(4) 0.1390(3) 0.1647(2)
N4 N -0.6163(4) 0.1961(3) 0.2773(2)
N5 N -0.7131(4) 0.4714(3) 0.4151(2)
N6 N -0.6800(4) 0.3462(3) 0.4442(2)
N7 N -0.7756(4) 0.1283(3) 0.4380(2)
N8 N -0.8309(4) 0.0226(3) 0.4820(2)
O1 O -0.2636(4) 0.0573(3) 0.3519(2)
O2 O -0.0997(3) 0.1014(2) 0.40753(19)
O3 O 0.0526(3) 0.0969(3) 0.10868(18)
O4 O 0.1314(3) 0.0605(2) 0.2320(2)
O5 O -0.1006(3) 0.0963(3) 0.66927(19)
O6 O -0.0253(3) 0.1405(2) 0.58631(18)
O7 O 0.1108(4) 0.1175(2) 0.96688(19)
O8 O 0.2817(4) 0.1159(3) 0.9902(2)
Zn1B Zn -0.85685(5) -0.09073(4) 0.49900(3)
Zn2A Zn -0.68128(6) 0.58625(4) 0.41819(3)
Zn2_2 Zn -0.81872(6) 0.08625(4) 0.08181(3)
Zn2_3 Zn 0.18128(6) 0.08625(4) 1.08181(3)
N3_2 N 0.3020(4) 0.1390(3) 0.1647(2)
N5A N 0.2131(4) -0.0286(3) 0.0849(2)
N8B N -0.1691(4) -0.0226(3) 0.5180(2)
O7_2 O 0.1108(4) 0.1175(2) -0.03312(19)
O9 O -1.0555(14) 0.4320(9) 0.4159(8)
O10 O -0.2558(5) 0.0792(4) 0.7321(3)
H29 H -0.221(6) 0.100(5) 0.705(4)
H30 H -0.207(5) 0.056(5) 0.770(4)
O11 O -0.9958(5) 0.2454(4) 0.3668(4)
H31 H -1.023(8) 0.199(3) 0.354(5)
H32 H -0.992(8) 0.252(5) 0.418(2)
O12 O -0.5310(8) 0.9698(5) 0.3678(4)
H33 H -0.592(4) 0.984(8) 0.350(7)
H34 H -0.499(8) 0.938(6) 0.351(7)
O13 O -0.9818(8) 0.2860(5) 0.5168(5)
H35 H -0.971(10) 0.334(2) 0.521(8)
H36 H -1.042(4) 0.279(7) 0.518(4)
O14 O -0.8984(7) 0.2928(5) 0.2398(4)
H37 H -0.957(3) 0.271(3) 0.223(3)
O15 O -0.4009(9) 0.9421(6) 0.2632(5)
H38 H -0.377(6) 0.927(4) 0.3076(19)
O16 O -0.6002(17) 0.2197(11) 0.6598(10)
H39 H -0.600(12) 0.180(5) 0.632(6)
O17? O -1.0324(17) 0.4312(12) 0.5017(10)
loop_
_geom_bond_atom_site_label_1
_geom_bond_atom_site_label_2
_geom_bond_site_symmetry_1
_geom_bond_site_symmetry_2
Zn1 N1 1_555 1_555
Zn2 O3 1_555 1_555
C1 C2 1_555 1_555
C2 C3 1_555 1_555
C3 H1 1_555 1_555
C4 C3 1_555 1_555
H2 C4 1_555 1_555
C5 C4 1_555 1_555
H3 C5 1_555 1_555
C6 C5 1_555 1_555
C7 C2 1_555 1_555
H4 C7 1_555 1_555
C8 C6 1_555 1_555
C9 C10 1_555 1_555
C10 C11 1_555 1_555
C11 H5 1_555 1_555
C12 C11 1_555 1_555
C13 C12 1_555 1_555
C14 C12 1_555 1_555
H6 C14 1_555 1_555
C15 C14 1_555 1_555
H7 C15 1_555 1_555
C16 C10 1_555 1_555
H8 C16 1_555 1_555
C17 H9 1_555 1_555
C18 C17 1_555 1_555
H10 C18 1_555 1_555
C19 H11 1_555 1_555
C20 H12 1_555 1_555
H13 C20 1_555 1_555
C21 H14 1_555 1_555
H15 C21 1_555 1_555
C22 H16 1_555 1_555
C23 H17 1_555 1_555
C24 C23 1_555 1_555
H18 C24 1_555 1_555
C25 H19 1_555 1_555
H20 C25 1_555 1_555
C26 H21 1_555 1_555
C27 C26 1_555 1_555
H22 C27 1_555 1_555
C28 H23 1_555 1_555
C29 C20 1_555 1_555
C30 C29 1_555 1_555
H24 C30 1_555 1_555
H25 C30 1_555 1_555
C31 H26 1_555 1_555
C32 C31 1_555 1_555
H27 C32 1_555 1_555
C33 H28 1_555 1_555
N1 C18 1_555 1_555
N2 C17 1_555 1_555
N3 C22 1_555 1_555
N4 C21 1_555 1_555
N5 C27 1_555 1_555
N6 C25 1_555 1_555
N7 C30 1_555 1_555
N8 C32 1_555 1_555
O1 C1 1_555 1_555
O2 Zn1 1_555 1_555
O3 C8 1_555 1_555
O4 C8 1_555 1_555
O5 C9 1_555 1_555
O6 Zn1 1_555 1_555
O7 C13 1_555 1_555
O8 C13 1_555 1_555
O10 H29 1_555 1_555
H30 O10 1_555 1_555
O11 H31 1_555 1_555
H32 O11 1_555 1_555
O12 H33 1_555 1_555
H34 O12 1_555 1_555
O13 H35 1_555 1_555
H36 O13 1_555 1_555
O14 H37 1_555 1_555
O15 H38 1_555 1_555
O16 H39 1_555 1_555
Zn1B N8 1_555 1_555
Zn2A N5 1_555 1_555
Zn2_2 N3 1_555 1_555
Zn2_3 O7 1_555 1_555
N3_2 Zn2 1_555 1_555
N5A Zn2 1_555 1_555
N8B Zn1 1_555 1_555
O7_2 Zn2 1_555 1_555
C1 O2 1_555 1_555
C6 C7 1_555 1_555
C9 O6 1_555 1_555
C15 C16 1_555 1_555
C19 N1 1_555 1_555
C19 N2 1_555 1_555
C20 N2 1_555 1_555
C21 C29 1_555 1_555
C22 N4 1_555 1_555
C23 N4 1_555 1_555
C24 N3 1_555 1_555
C25 C29 1_555 1_555
C26 N6 1_555 1_555
C28 N5 1_555 1_555
C28 N6 1_555 1_555
C31 N7 1_555 1_555
C33 N7 1_555 1_555
C33 N8 1_555 1_555

#END
