
#######################################################################
#
#                 Cambridge Crystallographic Data Centre
#                                CCDC 
#
#######################################################################
#
# If this CIF has been generated from an entry in the Cambridge 
# Structural Database, then it will include bibliographic, chemical, 
# crystal, experimental, refinement or atomic coordinate data resulting 
# from the CCDC's data processing and validation procedures.
#
#######################################################################

data_OMIDAQ
_symmetry_cell_setting           triclinic
_symmetry_space_group_name_H-M   'P -1'
_symmetry_Int_Tables_number      2
_space_group_name_Hall           '-P 1'
loop_
_symmetry_equiv_pos_site_id
_symmetry_equiv_pos_as_xyz
1 x,y,z
2 -x,-y,-z
_cell_length_a                   10.661(5)
_cell_length_b                   10.935(5)
_cell_length_c                   12.624(5)
_cell_angle_alpha                84.683(5)
_cell_angle_beta                 87.190(5)
_cell_angle_gamma                63.678(5)
_cell_volume                     1313.36
loop_
_atom_site_label
_atom_site_type_symbol
_atom_site_fract_x
_atom_site_fract_y
_atom_site_fract_z
Zn1 Zn 0.34460(6) 0.38370(5) 0.37548(4)
Zn2 Zn 0.52245(5) 0.04451(5) 0.71455(4)
C1 C 0.2686(5) 0.5713(4) 0.5578(3)
H1 H 0.3335 0.6046 0.5378
C2 C 0.1475(5) 0.4580(5) 0.5639(4)
H2 H 0.1144 0.3960 0.5485
C3 C 0.1019(5) 0.5399(5) 0.6440(4)
H3 H 0.0304 0.5474 0.6921
C4 C 0.1680(4) 0.7196(4) 0.7066(3)
H4 H 0.0796 0.7985 0.6898
H5 H 0.2419 0.7461 0.6856
C5 C 0.1743(4) 0.6873(4) 0.8282(3)
C6 C 0.3029(4) 0.5563(4) 0.8676(3)
H6 H 0.3856 0.5617 0.8367
H7 H 0.3082 0.5567 0.9440
C7 C 0.4058(4) 0.3355(4) 0.7814(3)
H8 H 0.4685 0.3551 0.7379
C8 C 0.2919(5) 0.2320(5) 0.8597(4)
H9 H 0.2612 0.1655 0.8790
C9 C 0.2386(5) 0.3570(4) 0.8970(4)
H10 H 0.1676 0.3914 0.9475
C10 C 0.1853(4) 0.8076(4) 0.8779(3)
H11 H 0.1077 0.8926 0.8524
H12 H 0.1747 0.7966 0.9545
C11 C 0.4344(4) 0.7601(4) 0.9157(3)
H13 H 0.4515 0.6963 0.9739
C12 C 0.5227(4) 0.8123(4) 0.8740(3)
C13 C 0.3343(4) 0.9068(4) 0.7806(3)
H14 H 0.2683 0.9616 0.7298
C14 C 0.0396(4) 0.6833(4) 0.8770(3)
H15 H 0.0271 0.6108 0.8473
H16 H 0.0525 0.6604 0.9531
C15 C -0.1810(4) 0.8428(4) 0.7797(3)
H17 H -0.1698 0.7872 0.7250
C16 C -0.1415(4) 0.9172(5) 0.9239(4)
H18 H -0.1014 0.9242 0.9855
C17 C -0.2649(5) 1.0102(5) 0.8797(4)
H19 H -0.3237 1.0934 0.9063
C18 C 0.4029(4) 0.1530(4) 0.5114(3)
C19 C 0.5289(4) 0.1893(4) 0.5157(3)
C20 C 0.2026(4) 0.5041(4) 0.1893(3)
C21 C 0.3228(5) 0.5492(5) 0.1927(4)
O1 O 0.3894(3) 0.0772(3) 0.5862(2)
O2 O 0.3244(3) 0.2031(3) 0.4324(2)
O3 O 0.6078(3) 0.1364(3) 0.5936(3)
O4 O 0.5401(3) 0.2679(3) 0.4420(3)
O5 O 0.1987(3) 0.4237(3) 0.2660(2)
O6 O 0.1199(4) 0.5488(5) 0.1148(3)
O7 O 0.4025(3) 0.4999(4) 0.2733(3)
O8 O 0.3352(4) 0.6240(4) 0.1190(3)
N1 N 0.2511(4) 0.4800(4) 0.5079(3)
N2 N 0.1812(4) 0.6105(4) 0.6411(3)
N3 N 0.3101(3) 0.4236(3) 0.8454(3)
N4 N 0.3987(4) 0.2178(3) 0.7888(3)
N5 N 0.3153(4) 0.8198(3) 0.8552(3)
N6 N 0.4577(4) 0.9045(3) 0.7886(3)
N7 N -0.0886(3) 0.8115(3) 0.8592(3)
N8 N -0.2890(3) 0.9626(3) 0.7902(3)
Zn2_2 Zn 0.52245(5) 1.04451(5) 0.71455(4)
Zn2_3 Zn -0.47755(5) 1.04451(5) 0.71455(4)
N6_2 N 0.4577(4) -0.0955(3) 0.7886(3)
N8_2 N 0.7110(3) -0.0374(3) 0.7902(3)
O9 O 0.0003(7) 0.1495(6) 0.8370(6)
H20 H -0.085(4) 0.166(11) 0.823(8)
H21 H 0.031(10) 0.164(12) 0.774(4)
O10 O 0.8962(9) 0.0923(12) 0.6479(7)
H22 H 0.977(7) 0.091(16) 0.648(12)
H23 H 0.849(13) 0.138(15) 0.592(8)
O11 O 1.0883(8) 0.1182(10) 0.4961(9)
H24 H 1.096(18) 0.139(15) 0.559(6)
H25 H 1.145(15) 0.034(6) 0.488(12)
loop_
_geom_bond_atom_site_label_1
_geom_bond_atom_site_label_2
_geom_bond_site_symmetry_1
_geom_bond_site_symmetry_2
Zn1 O2 1_555 1_555
Zn2 O1 1_555 1_555
C1 H1 1_555 1_555
C2 H2 1_555 1_555
C3 C2 1_555 1_555
H3 C3 1_555 1_555
C4 H4 1_555 1_555
H5 C4 1_555 1_555
C5 C4 1_555 1_555
C6 C5 1_555 1_555
H6 C6 1_555 1_555
H7 C6 1_555 1_555
C7 H8 1_555 1_555
C8 H9 1_555 1_555
C9 C8 1_555 1_555
H10 C9 1_555 1_555
C10 C5 1_555 1_555
H11 C10 1_555 1_555
H12 C10 1_555 1_555
C11 H13 1_555 1_555
C12 C11 1_555 1_555
C13 H14 1_555 1_555
C14 C5 1_555 1_555
H15 C14 1_555 1_555
H16 C14 1_555 1_555
C15 H17 1_555 1_555
C16 H18 1_555 1_555
C17 C16 1_555 1_555
H19 C17 1_555 1_555
C18 C19 1_555 1_555
C19 O3 1_555 1_555
C20 C21 1_555 1_555
C21 O7 1_555 1_555
O1 C18 1_555 1_555
O2 C18 1_555 1_555
O3 Zn2 1_555 1_555
O4 Zn1 1_555 1_555
O5 Zn1 1_555 1_555
O6 C20 1_555 1_555
O7 Zn1 1_555 1_555
O8 C21 1_555 1_555
N1 Zn1 1_555 1_555
N2 C1 1_555 1_555
N3 C6 1_555 1_555
N4 Zn2 1_555 1_555
N5 C10 1_555 1_555
N6 C12 1_555 1_555
N7 C14 1_555 1_555
N8 C15 1_555 1_555
O9 H20 1_555 1_555
H21 O9 1_555 1_555
O10 H22 1_555 1_555
H23 O10 1_555 1_555
O11 H24 1_555 1_555
H25 O11 1_555 1_555
Zn2_2 N6 1_555 1_555
Zn2_3 N8 1_555 1_555
N6_2 Zn2 1_555 1_555
N8_2 Zn2 1_555 1_555
C1 N1 1_555 1_555
C2 N1 1_555 1_555
C3 N2 1_555 1_555
C4 N2 1_555 1_555
C7 N3 1_555 1_555
C7 N4 1_555 1_555
C8 N4 1_555 1_555
C9 N3 1_555 1_555
C11 N5 1_555 1_555
C13 N5 1_555 1_555
C13 N6 1_555 1_555
C15 N7 1_555 1_555
C16 N7 1_555 1_555
C17 N8 1_555 1_555
C19 O4 1_555 1_555
C20 O5 1_555 1_555

#END
