
#######################################################################
#
#                 Cambridge Crystallographic Data Centre
#                                CCDC 
#
#######################################################################
#
# If this CIF has been generated from an entry in the Cambridge 
# Structural Database, then it will include bibliographic, chemical, 
# crystal, experimental, refinement or atomic coordinate data resulting 
# from the CCDC's data processing and validation procedures.
#
#######################################################################

data_OMIDOE
_symmetry_cell_setting           triclinic
_symmetry_space_group_name_H-M   'P -1'
_symmetry_Int_Tables_number      2
_space_group_name_Hall           '-P 1'
loop_
_symmetry_equiv_pos_site_id
_symmetry_equiv_pos_as_xyz
1 x,y,z
2 -x,-y,-z
_cell_length_a                   11.3460(15)
_cell_length_b                   11.8220(14)
_cell_length_c                   16.6630(14)
_cell_angle_alpha                107.758(9)
_cell_angle_beta                 91.612(9)
_cell_angle_gamma                112.609(12)
_cell_volume                     1937.92
loop_
_atom_site_label
_atom_site_type_symbol
_atom_site_fract_x
_atom_site_fract_y
_atom_site_fract_z
Zn1 Zn 0.74363(6) 0.40993(6) 0.39309(4)
Zn2 Zn 0.87521(6) 0.52251(6) 0.09817(4)
C1 C 0.7131(5) 0.4787(5) 0.5732(3)
H1 H 0.6732 0.5306 0.5647
C2 C 0.7887(7) 0.3753(6) 0.6339(4)
H2 H 0.8106 0.3431 0.6738
C3 C 0.8079(7) 0.3476(6) 0.5526(4)
H3 H 0.8470 0.2929 0.5265
C4 C 0.6865(5) 0.5146(5) 0.7263(3)
H4 H 0.5986 0.5041 0.7117
H5 H 0.6836 0.4625 0.7619
C5 C 0.7686(5) 0.6593(4) 0.7801(3)
C6 C 0.7111(5) 0.6909(5) 0.8630(3)
H6 H 0.6235 0.6807 0.8479
H7 H 0.7615 0.7816 0.8976
C7 C 0.8050(5) 0.6245(5) 0.9710(3)
H8 H 0.8891 0.6881 0.9819
C8 C 0.5990(5) 0.5080(5) 0.9174(3)
H9 H 0.5171 0.4768 0.8860
C9 C 0.6329(5) 0.4616(5) 0.9747(3)
H10 H 0.5781 0.3914 0.9890
C10 C 0.9108(5) 0.6883(6) 0.8090(3)
H11 H 0.9110 0.6184 0.8278
H12 H 0.9457 0.7677 0.8584
C11 C 1.0559(5) 0.6217(5) 0.7146(3)
H13 H 1.0372 0.5437 0.7244
C12 C 1.0558(5) 0.8082(5) 0.7204(4)
H14 H 1.0376 0.8815 0.7337
C13 C 1.1409(5) 0.7849(5) 0.6715(4)
H15 H 1.1922 0.8401 0.6447
C14 C 0.7634(5) 0.7549(5) 0.7347(3)
H16 H 0.7882 0.7300 0.6789
H17 H 0.8269 0.8419 0.7676
C15 C 0.5395(5) 0.6825(5) 0.6580(3)
H18 H 0.5434 0.6190 0.6101
C16 C 0.5956(6) 0.8425(5) 0.7813(4)
H19 H 0.6434 0.9084 0.8321
C17 C 0.4711(6) 0.8086(5) 0.7490(4)
H20 H 0.4173 0.8460 0.7753
C18 C 0.6915(6) 0.6249(5) 0.4058(3)
C19 C 0.6709(5) 0.7077(5) 0.3592(3)
C20 C 0.6939(5) 0.6926(5) 0.2756(3)
C21 C 0.7279(5) 0.5849(5) 0.2210(4)
C22 C 0.6702(5) 0.7693(5) 0.2342(4)
H21 H 0.6852 0.7595 0.1784
C23 C 0.6239(5) 0.8607(5) 0.2764(4)
C24 C 0.6004(6) 0.8765(6) 0.3592(4)
H22 H 0.5682 0.9371 0.3866
C25 C 0.6252(7) 0.8011(6) 0.4006(4)
H23 H 0.6113 0.8125 0.4567
C26 C 0.5131(5) 0.9061(5) 0.0952(4)
H24 H 0.5954 0.9538 0.0864
C27 C 0.4968(5) 0.8802(5) 0.1707(4)
C28 C 0.3759(5) 0.8039(5) 0.1820(3)
H25 H 0.3659 0.7841 0.2320
C29 C 0.2683(5) 0.7561(5) 0.1189(3)
C30 C 0.2821(5) 0.7873(5) 0.0444(3)
C31 C 0.4069(5) 0.8609(5) 0.0328(4)
H26 H 0.4183 0.8795 -0.0175
C32 C 0.1387(5) 0.6653(5) 0.1318(3)
C33 C 0.1701(5) 0.7520(5) -0.0245(3)
O1 O 0.6276(5) 0.6046(5) 0.4633(3)
O2 O 0.7717(4) 0.5742(4) 0.3794(3)
O3 O 0.6435(4) 0.4757(4) 0.1873(3)
O4 O 0.8469(4) 0.6237(4) 0.2078(3)
O5 O 0.6028(4) 0.9385(3) 0.2345(3)
O6 O 0.1364(4) 0.6164(4) 0.1879(3)
O7 O 0.0412(4) 0.6422(4) 0.0810(2)
O8 O 0.1263(5) 0.8355(4) -0.0180(3)
O9 O 0.1325(4) 0.6472(4) -0.0875(2)
N1 N 0.7602(4) 0.4135(5) 0.5131(3)
N2 N 0.7298(4) 0.4610(4) 0.6471(3)
N3 N 0.7081(4) 0.6100(4) 0.9143(2)
N4 N 0.7642(4) 0.5367(4) 1.0089(3)
N5 N 1.0004(4) 0.7036(4) 0.7469(3)
N6 N 1.1414(4) 0.6667(4) 0.6668(3)
N7 N 0.6373(4) 0.7595(4) 0.7237(3)
N8 N 0.4365(4) 0.7089(4) 0.6703(3)
Zn1A Zn 1.25637(6) 0.59007(6) 0.60691(4)
Zn1A_2 Zn 0.25637(6) 0.59007(6) 0.60691(4)
Zn2_2 Zn -0.12479(6) 0.52251(6) 0.09817(4)
Zn2A Zn 0.12479(6) 0.47749(6) -0.09817(4)
Zn2_3 Zn 0.87521(6) 0.52251(6) 1.09817(4)
O7_2 O 1.0412(4) 0.6422(4) 0.0810(2)
O9A O 0.8675(4) 0.3528(4) 0.0875(2)
N4_2 N 0.7642(4) 0.5367(4) 0.0089(3)
N6A N 0.8586(4) 0.3333(4) 0.3332(3)
N8A N 0.5635(4) 0.2911(4) 0.3297(3)
O10 O 0.0591(7) 0.9586(5) 0.1311(4)
O11 O 0.1826(7) 1.0734(6) -0.0490(5)
O12 O 0.0185(8) 0.8811(8) 0.2694(5)
O13? O 0.097(3) 0.911(3) 0.344(2)
O14? O 0.061(5) 0.894(4) 0.397(3)
loop_
_geom_bond_atom_site_label_1
_geom_bond_atom_site_label_2
_geom_bond_site_symmetry_1
_geom_bond_site_symmetry_2
Zn1 O2 1_555 1_555
Zn2 O4 1_555 1_555
C1 H1 1_555 1_555
C2 H2 1_555 1_555
C3 C2 1_555 1_555
H3 C3 1_555 1_555
C4 H4 1_555 1_555
H5 C4 1_555 1_555
C5 C4 1_555 1_555
C6 C5 1_555 1_555
H6 C6 1_555 1_555
H7 C6 1_555 1_555
C7 H8 1_555 1_555
C8 H9 1_555 1_555
C9 C8 1_555 1_555
H10 C9 1_555 1_555
C10 C5 1_555 1_555
H11 C10 1_555 1_555
H12 C10 1_555 1_555
C11 H13 1_555 1_555
C12 H14 1_555 1_555
C13 C12 1_555 1_555
H15 C13 1_555 1_555
C14 C5 1_555 1_555
H16 C14 1_555 1_555
H17 C14 1_555 1_555
C15 H18 1_555 1_555
C16 H19 1_555 1_555
C17 C16 1_555 1_555
H20 C17 1_555 1_555
C18 C19 1_555 1_555
C19 C20 1_555 1_555
C20 C21 1_555 1_555
C21 O3 1_555 1_555
C22 C20 1_555 1_555
H21 C22 1_555 1_555
C23 C22 1_555 1_555
C24 C23 1_555 1_555
H22 C24 1_555 1_555
C25 C19 1_555 1_555
H23 C25 1_555 1_555
C26 H24 1_555 1_555
C27 C26 1_555 1_555
C28 C27 1_555 1_555
H25 C28 1_555 1_555
C29 C28 1_555 1_555
C30 C29 1_555 1_555
C31 C26 1_555 1_555
H26 C31 1_555 1_555
C32 C29 1_555 1_555
C33 C30 1_555 1_555
O1 C18 1_555 1_555
O2 C18 1_555 1_555
O4 C21 1_555 1_555
O5 C23 1_555 1_555
O6 C32 1_555 1_555
O7 C32 1_555 1_555
O8 C33 1_555 1_555
O9 C33 1_555 1_555
N1 Zn1 1_555 1_555
N2 C1 1_555 1_555
N3 C6 1_555 1_555
N4 C7 1_555 1_555
N5 C10 1_555 1_555
N6 C11 1_555 1_555
N7 C14 1_555 1_555
N8 C15 1_555 1_555
Zn1A N6 1_555 1_555
Zn1A_2 N8 1_555 1_555
Zn2_2 O7 1_555 1_555
Zn2A O9 1_555 1_555
Zn2_3 N4 1_555 1_555
O7_2 Zn2 1_555 1_555
O9A Zn2 1_555 1_555
N4_2 Zn2 1_555 1_555
N6A Zn1 1_555 1_555
N8A Zn1 1_555 1_555
C1 N1 1_555 1_555
C2 N2 1_555 1_555
C3 N1 1_555 1_555
C4 N2 1_555 1_555
C7 N3 1_555 1_555
C8 N3 1_555 1_555
C9 N4 1_555 1_555
C11 N5 1_555 1_555
C12 N5 1_555 1_555
C13 N6 1_555 1_555
C15 N7 1_555 1_555
C16 N7 1_555 1_555
C17 N8 1_555 1_555
C24 C25 1_555 1_555
C27 O5 1_555 1_555
C30 C31 1_555 1_555

#END
