
#######################################################################
#
#                 Cambridge Crystallographic Data Centre
#                                CCDC 
#
#######################################################################
#
# If this CIF has been generated from an entry in the Cambridge 
# Structural Database, then it will include bibliographic, chemical, 
# crystal, experimental, refinement or atomic coordinate data resulting 
# from the CCDC's data processing and validation procedures.
#
#######################################################################

data_OMIHEX
_symmetry_cell_setting           monoclinic
_symmetry_space_group_name_H-M   'P 21/c'
_symmetry_Int_Tables_number      14
_space_group_name_Hall           '-P 2ybc'
loop_
_symmetry_equiv_pos_site_id
_symmetry_equiv_pos_as_xyz
1 x,y,z
2 x,1/2-y,1/2+z
3 -x,-y,-z
4 -x,1/2+y,1/2-z
_cell_length_a                   9.285(2)
_cell_length_b                   4.1502(9)
_cell_length_c                   22.096(5)
_cell_angle_alpha                90
_cell_angle_beta                 97.380(11)
_cell_angle_gamma                90
_cell_volume                     844.407
loop_
_atom_site_label
_atom_site_type_symbol
_atom_site_fract_x
_atom_site_fract_y
_atom_site_fract_z
I1 I 0.07520(6) 0.17441(16) 0.16977(3)
Cu1 Cu 0.06232(12) 0.1809(4) 0.28898(6)
N1 N 0.2750(7) 0.177(2) 0.3313(3)
C1 C 0.3114(10) 0.306(3) 0.3852(4)
H1 H 0.2396 0.4074 0.4039
C2 C 0.4526(11) 0.298(3) 0.4162(5)
C3 C 0.5573(11) 0.154(3) 0.3880(5)
H2 H 0.6530 0.1492 0.4066
C4 C 0.5187(11) 0.010(3) 0.3301(6)
H3 H 0.5878 -0.0904 0.3097
C5 C 0.3762(10) 0.025(3) 0.3053(5)
H4 H 0.3489 -0.0764 0.2681
C6 C 0.4858(11) 0.441(3) 0.4749(5)
C6B C 0.5142(11) 0.559(3) 0.5251(5)
C2B C 0.5474(11) 0.702(3) 0.5838(5)
C1B C 0.6886(10) 0.694(3) 0.6148(4)
N1B N 0.7250(7) 0.823(2) 0.6687(3)
C5B C 0.6238(10) 0.975(3) 0.6947(5)
C4B C 0.4813(11) 0.990(3) 0.6699(6)
C3B C 0.4427(11) 0.846(3) 0.6120(5)
H2B H 0.3470 0.8508 0.5934
H3B H 0.4122 1.0904 0.6903
H4B H 0.6511 1.0764 0.7319
H1B H 0.7604 0.5926 0.5961
I1C I -0.07520(6) -0.32559(16) 0.33023(3)
Cu1C Cu -0.06232(12) -0.3191(4) 0.21102(6)
Cu1C_2 Cu -0.06232(12) 0.6809(4) 0.21102(6)
I1C_2 I -0.07520(6) 0.67441(16) 0.33023(3)
Cu1B Cu 0.93768(12) 0.8191(4) 0.71102(6)
Cu1_2 Cu 0.06232(12) -0.8191(4) 0.28898(6)
I1_2 I 0.07520(6) -0.82559(16) 0.16977(3)
N1C N -0.2750(7) -0.323(2) 0.1687(3)
O1 O 0.889(3) 0.115(10) 0.5001(8)
loop_
_geom_bond_atom_site_label_1
_geom_bond_atom_site_label_2
_geom_bond_site_symmetry_1
_geom_bond_site_symmetry_2
I1 Cu1 1_555 1_555
Cu1 N1 1_555 1_555
N1 C1 1_555 1_555
C1 H1 1_555 1_555
C2 C1 1_555 1_555
C3 C2 1_555 1_555
H2 C3 1_555 1_555
C4 C3 1_555 1_555
H3 C4 1_555 1_555
C5 N1 1_555 1_555
H4 C5 1_555 1_555
C6 C2 1_555 1_555
C6B C6 1_555 1_555
C2B C6B 1_555 1_555
C1B C2B 1_555 1_555
N1B C1B 1_555 1_555
C5B N1B 1_555 1_555
C4B C5B 1_555 1_555
C3B C2B 1_555 1_555
H2B C3B 1_555 1_555
H3B C4B 1_555 1_555
H4B C5B 1_555 1_555
H1B C1B 1_555 1_555
I1C Cu1 1_555 1_555
Cu1C I1 1_555 1_555
Cu1C_2 I1 1_555 1_555
I1C_2 Cu1 1_555 1_555
Cu1B N1B 1_555 1_555
Cu1_2 I1C 1_555 1_555
I1_2 Cu1C 1_555 1_555
N1C Cu1C 1_555 1_555
C4 C5 1_555 1_555
C4B C3B 1_555 1_555
I1C Cu1C 1_555 1_555
Cu1C_2 I1C_2 1_555 1_555
Cu1_2 I1_2 1_555 1_555

#END
