
#######################################################################
#
#                 Cambridge Crystallographic Data Centre
#                                CCDC 
#
#######################################################################
#
# If this CIF has been generated from an entry in the Cambridge 
# Structural Database, then it will include bibliographic, chemical, 
# crystal, experimental, refinement or atomic coordinate data resulting 
# from the CCDC's data processing and validation procedures.
#
#######################################################################

data_OMIROS
_symmetry_cell_setting           monoclinic
_symmetry_space_group_name_H-M   'C 2/c'
_symmetry_Int_Tables_number      15
_space_group_name_Hall           '-C 2yn'
loop_
_symmetry_equiv_pos_site_id
_symmetry_equiv_pos_as_xyz
1 x,y,z
2 -x,y,1/2-z
3 1/2+x,1/2+y,z
4 1/2-x,1/2+y,1/2-z
5 -x,-y,-z
6 x,-y,1/2+z
7 1/2-x,1/2-y,-z
8 1/2+x,1/2-y,1/2+z
_cell_length_a                   22.846(5)
_cell_length_b                   11.659(2)
_cell_length_c                   7.6080(15)
_cell_angle_alpha                90
_cell_angle_beta                 93.77(3)
_cell_angle_gamma                90
_cell_volume                     2022.09
loop_
_atom_site_label
_atom_site_type_symbol
_atom_site_fract_x
_atom_site_fract_y
_atom_site_fract_z
Mn1 Mn 0.0000 0.37345(4) 1.2500
C1 C 0.08059(10) 0.42551(19) 0.9330(3)
C2 C 0.14383(9) 0.40059(18) 0.8973(3)
C3 C 0.17426(10) 0.4723(2) 0.7940(3)
H1 H 0.1557 0.5349 0.7385
C4 C 0.23263(11) 0.4508(2) 0.7730(4)
H2 H 0.2524 0.4993 0.6998
C5 C 0.23280(9) 0.29622(18) 0.9543(3)
C6 C 0.17361(9) 0.31024(18) 0.9791(3)
H3 H 0.1543 0.2595 1.0497
C7 C -0.02781(12) 0.11360(19) 1.2000(3)
C8 C -0.05453(16) 0.0087(2) 1.1513(4)
C9 C -0.02532(17) -0.0958(2) 1.2038(5)
H4 H -0.0427 -0.1654 1.1715
C10 C -0.10852(17) 0.0140(3) 1.0564(5)
H5 H -0.1281 -0.0533 1.0235
C11 C -0.13262(15) 0.1163(4) 1.0117(5)
H6 H -0.1688 0.1200 0.9482
C12 C -0.10265(11) 0.2165(3) 1.0620(4)
H7 H -0.1194 0.2867 1.0298
N1 N 0.26240(8) 0.36527(18) 0.8509(3)
N2 N -0.05151(8) 0.21587(17) 1.1535(3)
O1 O 0.05492(7) 0.35577(14) 1.0228(2)
O2 O 0.06128(8) 0.51777(16) 0.8717(3)
Mn1D Mn 0.0000 0.62655(4) 0.7500
Mn1F Mn 0.5000 0.12655(4) 0.7500
Mn1B Mn 0.5000 -0.12655(4) 1.2500
C1F C 0.41941(10) 0.07449(19) 1.0670(3)
C2F C 0.35617(9) 0.09941(18) 1.1027(3)
C3F C 0.32574(10) 0.0277(2) 1.2060(3)
H1F H 0.3443 -0.0349 1.2615
C4F C 0.26737(11) 0.0492(2) 1.2270(4)
H2F H 0.2476 0.0007 1.3002
C5F C 0.26720(9) 0.20378(18) 1.0457(3)
C6F C 0.32639(9) 0.18976(18) 1.0209(3)
H3F H 0.3457 0.2405 0.9503
C7A C 0.02781(12) 0.11360(19) 1.3000(3)
C8A C 0.05453(16) 0.0087(2) 1.3487(4)
C9A C 0.02532(17) -0.0958(2) 1.2962(5)
H4A H 0.0427 -0.1654 1.3285
C10A C 0.10852(17) 0.0140(3) 1.4436(5)
H5A H 0.1281 -0.0533 1.4765
C11A C 0.13262(15) 0.1163(4) 1.4883(5)
H6A H 0.1688 0.1200 1.5518
C12A C 0.10265(11) 0.2165(3) 1.4380(4)
H7A H 0.1194 0.2867 1.4702
N1F N 0.23760(8) 0.13473(18) 1.1491(3)
N2A N 0.05151(8) 0.21587(17) 1.3465(3)
O1F O 0.44508(7) 0.14423(14) 0.9772(2)
O1A O -0.05492(7) 0.35577(14) 1.4772(2)
O2F O 0.43872(8) -0.01777(16) 1.1283(3)
O2D O -0.06128(8) 0.48223(16) 1.1283(3)
O2E O 0.06128(8) 0.48223(16) 1.3717(3)
loop_
_geom_bond_atom_site_label_1
_geom_bond_atom_site_label_2
_geom_bond_site_symmetry_1
_geom_bond_site_symmetry_2
Mn1 N2 1_555 1_555
C1 C2 1_555 1_555
C2 C3 1_555 1_555
C3 H1 1_555 1_555
C4 C3 1_555 1_555
H2 C4 1_555 1_555
C5 C6 1_555 1_555
C6 C2 1_555 1_555
H3 C6 1_555 1_555
C7 C8 1_555 1_555
C8 C9 1_555 1_555
C9 H4 1_555 1_555
C10 C8 1_555 1_555
H5 C10 1_555 1_555
C11 C10 1_555 1_555
H6 C11 1_555 1_555
C12 C11 1_555 1_555
H7 C12 1_555 1_555
N1 C4 1_555 1_555
N2 C7 1_555 1_555
O1 Mn1 1_555 1_555
O2 C1 1_555 1_555
Mn1D O2 1_555 1_555
Mn1F O1F 1_555 1_555
Mn1B O2F 1_555 1_555
C1F C2F 1_555 1_555
C2F C3F 1_555 1_555
C3F H1F 1_555 1_555
C4F C3F 1_555 1_555
H2F C4F 1_555 1_555
C5F C5 1_555 1_555
C6F C2F 1_555 1_555
H3F C6F 1_555 1_555
C7A C7 1_555 1_555
C8A C7A 1_555 1_555
C9A C9 1_555 1_555
H4A C9A 1_555 1_555
C10A C8A 1_555 1_555
H5A C10A 1_555 1_555
C11A C10A 1_555 1_555
H6A C11A 1_555 1_555
C12A C11A 1_555 1_555
H7A C12A 1_555 1_555
N1F C4F 1_555 1_555
N2A Mn1 1_555 1_555
O1F C1F 1_555 1_555
O1A Mn1 1_555 1_555
O2F C1F 1_555 1_555
O2D Mn1 1_555 1_555
O2E Mn1 1_555 1_555
C1 O1 1_555 1_555
C5 N1 1_555 1_555
C12 N2 1_555 1_555
C5F C6F 1_555 1_555
C5F N1F 1_555 1_555
C7A N2A 1_555 1_555
C8A C9A 1_555 1_555
C12A N2A 1_555 1_555

#END
