
#######################################################################
#
#                 Cambridge Crystallographic Data Centre
#                                CCDC 
#
#######################################################################
#
# If this CIF has been generated from an entry in the Cambridge 
# Structural Database, then it will include bibliographic, chemical, 
# crystal, experimental, refinement or atomic coordinate data resulting 
# from the CCDC's data processing and validation procedures.
#
#######################################################################

data_OMIVUC
_symmetry_cell_setting           monoclinic
_symmetry_space_group_name_H-M   'P 21/n'
_symmetry_Int_Tables_number      14
_space_group_name_Hall           '-P 2yn'
loop_
_symmetry_equiv_pos_site_id
_symmetry_equiv_pos_as_xyz
1 x,y,z
2 1/2-x,1/2+y,1/2-z
3 -x,-y,-z
4 1/2+x,1/2-y,1/2+z
_cell_length_a                   13.655(3)
_cell_length_b                   8.165(2)
_cell_length_c                   23.753(5)
_cell_angle_alpha                90
_cell_angle_beta                 104.74(3)
_cell_angle_gamma                90
_cell_volume                     2561.14
loop_
_atom_site_label
_atom_site_type_symbol
_atom_site_fract_x
_atom_site_fract_y
_atom_site_fract_z
Cu1 Cu 0.40187(2) 0.02851(4) -0.098770(12)
O1 O 0.22272(14) 0.3786(2) -0.33456(7)
O2 O 0.42274(13) -0.1277(2) -0.03442(7)
H1 H 0.4033 -0.0984 -0.0051
H2 H 0.4798 -0.1727 -0.0238
O3 O 0.29374(13) 0.1261(2) -0.07102(7)
O4 O 0.50401(13) -0.0781(2) -0.12955(7)
O5 O 0.40477(13) 0.2831(2) -0.00955(8)
O6 O 0.62610(14) 0.0554(2) -0.06627(8)
O7 O 0.34834(16) 0.4473(2) 0.06826(8)
H3 H 0.3871 0.4190 0.0477
O8 O 0.80755(15) 0.0568(2) -0.07945(8)
H4 H 0.7622 0.0715 -0.0618
N1 N 0.40069(15) 0.2150(2) -0.15419(8)
N2 N 0.31884(16) 0.1599(2) -0.34446(8)
C1 C 0.3160(2) 0.2274(3) -0.02942(11)
C2 C 0.59514(19) -0.0301(3) -0.11115(11)
C3 C 0.2340(2) 0.2825(3) -0.00319(11)
C4 C 0.6679(2) -0.0757(3) -0.14604(11)
C5 C 0.35852(18) 0.1906(3) -0.21094(10)
H5 H 0.3318 0.0854 -0.2233
C6 C 0.2546(2) 0.3875(3) 0.04489(11)
C7 C 0.7697(2) -0.0294(3) -0.12822(11)
C8 C 0.35222(18) 0.3120(3) -0.25244(10)
C9 C 0.1768(3) 0.4339(3) 0.07073(12)
C10 C 0.8368(2) -0.0711(3) -0.16223(13)
C11 C 0.3916(2) 0.4641(3) -0.23389(11)
H6 H 0.3870 0.5510 -0.2610
C12 C 0.0812(3) 0.3753(4) 0.04683(14)
H7 H 0.0281 0.4066 0.0638
C13 C 0.8002(2) -0.1578(4) -0.21257(13)
H8 H 0.8452 -0.1861 -0.2357
C14 C 0.4378(2) 0.4895(3) -0.17574(12)
H9 H 0.4670 0.5926 -0.1625
C15 C 0.0591(2) 0.2727(4) -0.00089(14)
H10 H -0.0081 0.2347 -0.0164
C16 C 0.7001(2) -0.2055(4) -0.23074(13)
H11 H 0.6768 -0.2660 -0.2658
C17 C 0.4408(2) 0.3618(3) -0.13714(12)
H12 H 0.4724 0.3790 -0.0971
C18 C 0.1354(2) 0.2261(3) -0.02563(12)
H13 H 0.1209 0.1548 -0.0583
C19 C 0.6342(2) -0.1645(3) -0.19759(12)
H14 H 0.5652 -0.1969 -0.2100
C20 C 0.29354(19) 0.2853(3) -0.31446(10)
C21 C 0.2010(3) 0.5431(4) 0.12344(14)
H15 H 0.1384 0.5703 0.1344
H16 H 0.2330 0.6439 0.1145
H17 H 0.2474 0.4862 0.1558
C22 C 0.9460(2) -0.0185(4) -0.14119(14)
H18 H 0.9833 -0.0534 -0.1693
H19 H 0.9761 -0.0690 -0.1033
H20 H 0.9494 0.1010 -0.1373
C23 C 0.4103(2) 0.0592(3) -0.32593(11)
H21 H 0.4549 0.1078 -0.2904
H22 H 0.4473 0.0613 -0.3568
C24 C 0.2585(2) 0.1333(3) -0.40464(10)
H23 H 0.1875 0.1658 -0.4077
H24 H 0.2589 0.0152 -0.4140
C25 C 0.3882(2) -0.1179(3) -0.31343(13)
H25 H 0.3618 -0.1224 -0.2788
H26 H 0.4507 -0.1822 -0.3067
H27 H 0.3379 -0.1631 -0.3468
C26 C 0.2980(2) 0.2291(4) -0.44860(11)
H28 H 0.2974 0.3462 -0.4397
H29 H 0.2547 0.2088 -0.4877
H30 H 0.3674 0.1944 -0.4469
Cu1A Cu 0.09813(2) 0.52851(4) -0.401230(12)
O1A O 0.27728(14) -0.1214(2) -0.16544(7)
loop_
_geom_bond_atom_site_label_1
_geom_bond_atom_site_label_2
_geom_bond_site_symmetry_1
_geom_bond_site_symmetry_2
Cu1 O2 1_555 1_555
O1 C20 1_555 1_555
O2 H1 1_555 1_555
H2 O2 1_555 1_555
O3 Cu1 1_555 1_555
O4 Cu1 1_555 1_555
O5 C1 1_555 1_555
O6 C2 1_555 1_555
O7 H3 1_555 1_555
O8 H4 1_555 1_555
N1 Cu1 1_555 1_555
N2 C20 1_555 1_555
C1 O3 1_555 1_555
C2 O4 1_555 1_555
C3 C1 1_555 1_555
C4 C2 1_555 1_555
C5 N1 1_555 1_555
H5 C5 1_555 1_555
C6 O7 1_555 1_555
C7 O8 1_555 1_555
C8 C5 1_555 1_555
C9 C6 1_555 1_555
C10 C7 1_555 1_555
C11 C8 1_555 1_555
H6 C11 1_555 1_555
C12 C9 1_555 1_555
H7 C12 1_555 1_555
C13 C10 1_555 1_555
H8 C13 1_555 1_555
C14 C11 1_555 1_555
H9 C14 1_555 1_555
C15 C12 1_555 1_555
H10 C15 1_555 1_555
C16 C13 1_555 1_555
H11 C16 1_555 1_555
C17 N1 1_555 1_555
H12 C17 1_555 1_555
C18 C3 1_555 1_555
H13 C18 1_555 1_555
C19 C4 1_555 1_555
H14 C19 1_555 1_555
C20 C8 1_555 1_555
C21 C9 1_555 1_555
H15 C21 1_555 1_555
H16 C21 1_555 1_555
H17 C21 1_555 1_555
C22 C10 1_555 1_555
H18 C22 1_555 1_555
H19 C22 1_555 1_555
H20 C22 1_555 1_555
C23 N2 1_555 1_555
H21 C23 1_555 1_555
H22 C23 1_555 1_555
C24 N2 1_555 1_555
H23 C24 1_555 1_555
H24 C24 1_555 1_555
C25 C23 1_555 1_555
H25 C25 1_555 1_555
H26 C25 1_555 1_555
H27 C25 1_555 1_555
C26 C24 1_555 1_555
H28 C26 1_555 1_555
H29 C26 1_555 1_555
H30 C26 1_555 1_555
Cu1A O1 1_555 1_555
O1A Cu1 1_555 1_555
C3 C6 1_555 1_555
C4 C7 1_555 1_555
C14 C17 1_555 1_555
C15 C18 1_555 1_555
C16 C19 1_555 1_555

#END
