
#######################################################################
#
#                 Cambridge Crystallographic Data Centre
#                                CCDC 
#
#######################################################################
#
# If this CIF has been generated from an entry in the Cambridge 
# Structural Database, then it will include bibliographic, chemical, 
# crystal, experimental, refinement or atomic coordinate data resulting 
# from the CCDC's data processing and validation procedures.
#
#######################################################################

data_OMOBEY
_symmetry_cell_setting           triclinic
_symmetry_space_group_name_H-M   'P -1'
_symmetry_Int_Tables_number      2
_space_group_name_Hall           '-P 1'
loop_
_symmetry_equiv_pos_site_id
_symmetry_equiv_pos_as_xyz
1 x,y,z
2 -x,-y,-z
_cell_length_a                   7.3708(6)
_cell_length_b                   8.9752(8)
_cell_length_c                   9.5877(8)
_cell_angle_alpha                87.155(1)
_cell_angle_beta                 86.674(1)
_cell_angle_gamma                83.414(1)
_cell_volume                     628.431
loop_
_atom_site_label
_atom_site_type_symbol
_atom_site_fract_x
_atom_site_fract_y
_atom_site_fract_z
Tb1 Tb 0.14473(3) 0.13773(3) -0.39590(2)
O1 O 0.6333(5) 0.0848(4) 0.3938(4)
O2 O -0.0385(5) 0.0325(4) 0.2088(4)
O3 O 0.3664(5) 0.2135(4) 0.4498(3)
O4 O 0.1350(5) 0.0083(4) 0.3881(3)
O5 O -0.0312(5) 0.2879(4) -0.2247(4)
O6 O 0.1254(5) 0.4235(4) -0.3733(4)
O7 O -0.1051(5) 0.2743(4) -0.5232(4)
H1 H -0.199(4) 0.241(3) -0.542(6)
H2 H -0.111(4) 0.363(2) -0.551(6)
N1 N 0.3590(6) 0.1902(5) -0.2159(4)
N2 N 0.6194(6) 0.2515(5) -0.1402(4)
H3 H 0.7260 0.2821 -0.1430
C1 C 0.5191(7) 0.2352(6) -0.2506(5)
H4 H 0.5598 0.2541 -0.3427
C2 C 0.5194(7) 0.2102(5) -0.0231(5)
C3 C 0.5590(7) 0.1954(6) 0.1178(5)
H5 H 0.6705 0.2178 0.1471
C4 C 0.4282(7) 0.1464(5) 0.2123(5)
C5 C 0.2573(7) 0.1115(5) 0.1664(5)
C6 C 0.2225(7) 0.1255(5) 0.0254(5)
H6 H 0.1115 0.1031 -0.0049
C7 C 0.3552(7) 0.1732(5) -0.0699(5)
C8 C 0.4772(7) 0.1441(5) 0.3635(5)
C9 C 0.1097(7) 0.0505(5) 0.2590(5)
C10 C 0.0164(8) 0.4141(6) -0.2683(6)
C11 C -0.0623(14) 0.5508(8) -0.1955(9)
H7 H -0.1107 0.6254 -0.2628
H8 H 0.0315 0.5893 -0.1471
H9 H -0.1585 0.5260 -0.1296
Tb1A Tb 0.85527(3) -0.13773(3) 0.39590(2)
Tb1A_2 Tb -0.14473(3) -0.13773(3) 0.39590(2)
Tb1_2 Tb 0.14473(3) 0.13773(3) 0.60410(2)
O1A O 0.3667(5) -0.0848(4) -0.3938(4)
O2A O 0.0385(5) -0.0325(4) -0.2088(4)
O3_2 O 0.3664(5) 0.2135(4) -0.5502(3)
O4A O -0.1350(5) -0.0083(4) -0.3881(3)
O4_2 O 0.1350(5) 0.0083(4) -0.6119(3)
loop_
_geom_bond_atom_site_label_1
_geom_bond_atom_site_label_2
_geom_bond_site_symmetry_1
_geom_bond_site_symmetry_2
Tb1 O5 1_555 1_555
O1 C8 1_555 1_555
O2 C9 1_555 1_555
O3 C8 1_555 1_555
O4 C9 1_555 1_555
O5 C10 1_555 1_555
O6 Tb1 1_555 1_555
O7 Tb1 1_555 1_555
H1 O7 1_555 1_555
H2 O7 1_555 1_555
N1 Tb1 1_555 1_555
N2 H3 1_555 1_555
C1 N1 1_555 1_555
H4 C1 1_555 1_555
C2 N2 1_555 1_555
C3 C2 1_555 1_555
H5 C3 1_555 1_555
C4 C3 1_555 1_555
C5 C4 1_555 1_555
C6 C5 1_555 1_555
H6 C6 1_555 1_555
C7 N1 1_555 1_555
C8 C4 1_555 1_555
C9 C5 1_555 1_555
C10 O6 1_555 1_555
C11 C10 1_555 1_555
H7 C11 1_555 1_555
H8 C11 1_555 1_555
H9 C11 1_555 1_555
Tb1A O1 1_555 1_555
Tb1A_2 O2 1_555 1_555
Tb1_2 O3 1_555 1_555
O1A Tb1 1_555 1_555
O2A Tb1 1_555 1_555
O3_2 Tb1 1_555 1_555
O4A Tb1 1_555 1_555
O4_2 Tb1 1_555 1_555
O4 Tb1A_2 1_555 1_555
O4 Tb1_2 1_555 1_555
N2 C1 1_555 1_555
C2 C7 1_555 1_555
C6 C7 1_555 1_555

#END
