
#######################################################################
#
#                 Cambridge Crystallographic Data Centre
#                                CCDC 
#
#######################################################################
#
# If this CIF has been generated from an entry in the Cambridge 
# Structural Database, then it will include bibliographic, chemical, 
# crystal, experimental, refinement or atomic coordinate data resulting 
# from the CCDC's data processing and validation procedures.
#
#######################################################################

data_OMODIE
_symmetry_cell_setting           monoclinic
_symmetry_space_group_name_H-M   'P 21/c'
_symmetry_Int_Tables_number      14
_space_group_name_Hall           '-P 2ybc'
loop_
_symmetry_equiv_pos_site_id
_symmetry_equiv_pos_as_xyz
1 x,y,z
2 -x,1/2+y,1/2-z
3 -x,-y,-z
4 x,1/2-y,1/2+z
_cell_length_a                   10.0746(17)
_cell_length_b                   18.642(3)
_cell_length_c                   8.0525(14)
_cell_angle_alpha                90
_cell_angle_beta                 95.421(2)
_cell_angle_gamma                90
_cell_volume                     1505.58
loop_
_atom_site_label
_atom_site_type_symbol
_atom_site_fract_x
_atom_site_fract_y
_atom_site_fract_z
Ag1 Ag 0.65386(7) 0.07421(4) -0.39367(8)
C1 C 0.3797(8) 0.0843(5) -0.2460(10)
H1 H 0.3550 0.0826 -0.3601
C2 C 0.2813(9) 0.0890(5) -0.1367(11)
H2 H 0.1923 0.0909 -0.1795
C3 C 0.4403(8) 0.0899(4) 0.0819(10)
C4 C 0.5383(8) 0.0856(4) -0.0266(11)
H3 H 0.6272 0.0850 0.0166
C5 C 0.4722(8) 0.0913(4) 0.2707(9)
C6 C 0.9936(8) 0.2318(4) -0.3368(10)
C7 C 0.8271(8) 0.2987(5) -0.2404(10)
H4 H 0.7941 0.3420 -0.2042
C8 C 0.7437(9) 0.2389(5) -0.2568(12)
H5 H 0.6561 0.2435 -0.2308
C9 C 0.9108(8) 0.1731(5) -0.3462(11)
H6 H 0.9438 0.1296 -0.3807
C10 C 1.1292(7) 0.2299(4) -0.3987(9)
C11 C 0.9310(7) 0.0110(4) -0.5438(9)
C12 C -0.0379(8) 0.0318(4) -0.0438(9)
Gd1 Gd 0.14084(4) 0.105243(18) 0.25955(4)
N1 N 0.3110(6) 0.0907(3) 0.0260(8)
N2 N 0.5094(7) 0.0822(4) -0.1905(8)
N3 N 0.9536(6) 0.2947(3) -0.2760(8)
N4 N 0.7844(7) 0.1762(4) -0.3076(9)
O1 O 0.3719(5) 0.0936(3) 0.3543(7)
O2 O 0.5905(6) 0.0886(3) 0.3255(7)
O3 O 1.2053(5) 0.2811(3) -0.3586(7)
O4 O 1.1555(5) 0.1774(3) -0.4872(6)
O5 O 0.8320(5) -0.0174(3) -0.4905(6)
O6 O 0.9325(5) 0.0566(3) -0.6574(7)
O7 O 0.0010(5) 0.0933(3) 0.0024(7)
O8 O -0.1296(5) 0.0169(3) -0.1533(7)
Ag1_2 Ag 0.65386(7) 0.07421(4) -1.39367(8)
Ag1_3 Ag 0.65386(7) 0.07421(4) 0.60633(8)
Ag1B Ag 1.34614(7) -0.07421(4) -0.60633(8)
Ag1C Ag -0.34614(7) 0.42579(4) 0.10633(8)
C1_2 C 0.3797(8) 0.0843(5) -1.2460(10)
H1_2 H 0.3550 0.0826 -1.3601
C2_2 C 0.2813(9) 0.0890(5) -1.1367(11)
H2_2 H 0.1923 0.0909 -1.1795
C3_2 C 0.4403(8) 0.0899(4) -0.9181(10)
C4_2 C 0.5383(8) 0.0856(4) -1.0266(11)
H3_2 H 0.6272 0.0850 -0.9834
C5_2 C 0.4722(8) 0.0913(4) -0.7293(9)
C6C C -0.0064(8) 0.2682(4) 0.1632(10)
C7C C -0.1729(8) 0.2013(5) 0.2596(10)
H4C H -0.2059 0.1580 0.2958
C8C C -0.2563(9) 0.2611(5) 0.2432(12)
H5C H -0.3439 0.2565 0.2692
C9C C -0.0892(8) 0.3269(5) 0.1538(11)
H6C H -0.0562 0.3704 0.1193
C10C C 0.1292(7) 0.2701(4) 0.1013(9)
C11B C 1.0690(7) -0.0110(4) -0.4562(9)
C12B C 0.0379(8) -0.0318(4) 0.0438(9)
Gd1_2 Gd 0.14084(4) 0.105243(18) -0.74045(4)
Gd1C Gd 1.14084(4) 0.394757(18) -0.24045(4)
Gd1_3 Gd 1.14084(4) 0.105243(18) -0.74045(4)
Gd1B Gd 0.85916(4) -0.105243(18) -0.25955(4)
Gd1B_2 Gd -0.14084(4) -0.105243(18) -0.25955(4)
Gd1C_2 Gd 0.14084(4) 0.394757(18) -0.24045(4)
N1_2 N 0.3110(6) 0.0907(3) -0.9740(8)
N2_2 N 0.5094(7) 0.0822(4) -1.1905(8)
N3C N -0.0464(6) 0.2053(3) 0.2240(8)
N3C_2 N -0.0464(6) 0.2053(3) -0.7760(8)
N4C N -0.2156(7) 0.3238(4) 0.1924(9)
N4_2 N 0.7844(7) 0.1762(4) -1.3076(9)
O1_2 O 0.3719(5) 0.0936(3) -0.6457(7)
O2_2 O 0.5905(6) 0.0886(3) -0.6745(7)
O2_3 O 0.5905(6) 0.0886(3) -1.6745(7)
O3C O 0.2053(5) 0.2189(3) 0.1414(7)
O3C_2 O 0.2053(5) 0.2189(3) -0.8586(7)
O4C O 0.1555(5) 0.3226(3) 0.0128(6)
O4_2 O 0.1555(5) 0.1774(3) 0.5128(6)
O4_3 O 0.1555(5) 0.1774(3) -0.4872(6)
O5B O 1.1680(5) 0.0174(3) -0.5095(6)
O5B_2 O 0.1680(5) 0.0174(3) 0.4905(6)
O5_2 O 0.8320(5) -0.0174(3) -1.4905(6)
O5B_3 O 0.1680(5) 0.0174(3) -0.5095(6)
O6B O 1.0675(5) -0.0566(3) -0.3426(7)
O6_2 O -0.0675(5) 0.0566(3) 0.3426(7)
O6_3 O -0.0675(5) 0.0566(3) -0.6574(7)
O7B O -0.0010(5) -0.0933(3) -0.0024(7)
O7_2 O 0.0010(5) 0.0933(3) -0.9976(7)
O8B O 0.1296(5) -0.0169(3) 0.1533(7)
O8B_2 O 0.1296(5) -0.0169(3) -0.8467(7)
O9 O 0.4601(8) 0.2576(5) 0.0107(14)
H7 H 0.3870 0.2523 0.0541
H8 H 0.4583 0.3016 -0.0215
loop_
_geom_bond_atom_site_label_1
_geom_bond_atom_site_label_2
_geom_bond_site_symmetry_1
_geom_bond_site_symmetry_2
Ag1 N2 1_555 1_555
C1 H1 1_555 1_555
C2 C1 1_555 1_555
H2 C2 1_555 1_555
C3 C4 1_555 1_555
C4 H3 1_555 1_555
C5 C3 1_555 1_555
C6 C9 1_555 1_555
C7 H4 1_555 1_555
C8 C7 1_555 1_555
H5 C8 1_555 1_555
C9 H6 1_555 1_555
C10 C6 1_555 1_555
C11 O5 1_555 1_555
C12 O7 1_555 1_555
Gd1 N1 1_555 1_555
N1 C2 1_555 1_555
N2 C1 1_555 1_555
N3 C6 1_555 1_555
N4 Ag1 1_555 1_555
O1 C5 1_555 1_555
O2 C5 1_555 1_555
O3 C10 1_555 1_555
O4 C10 1_555 1_555
O5 Ag1 1_555 1_555
O6 C11 1_555 1_555
O7 Gd1 1_555 1_555
O8 C12 1_555 1_555
O9 H7 1_555 1_555
H8 O9 1_555 1_555
Ag1_2 N2_2 1_555 1_555
Ag1_3 O2 1_555 1_555
Ag1B O5B 1_555 1_555
Ag1C N4C 1_555 1_555
C1_2 H1_2 1_555 1_555
C2_2 C1_2 1_555 1_555
H2_2 C2_2 1_555 1_555
C3_2 C4_2 1_555 1_555
C4_2 H3_2 1_555 1_555
C5_2 C3_2 1_555 1_555
C6C C9C 1_555 1_555
C7C H4C 1_555 1_555
C8C C7C 1_555 1_555
H5C C8C 1_555 1_555
C9C H6C 1_555 1_555
C10C C6C 1_555 1_555
C11B C11 1_555 1_555
C12B C12 1_555 1_555
Gd1_2 N1_2 1_555 1_555
Gd1C N3 1_555 1_555
Gd1_3 O4 1_555 1_555
Gd1B O5 1_555 1_555
Gd1B_2 O8 1_555 1_555
Gd1C_2 O4C 1_555 1_555
N1_2 C2_2 1_555 1_555
N2_2 C1_2 1_555 1_555
N3C Gd1 1_555 1_555
N3C_2 Gd1_2 1_555 1_555
N4C C8C 1_555 1_555
N4_2 Ag1_2 1_555 1_555
O1_2 C5_2 1_555 1_555
O2_2 Ag1 1_555 1_555
O2_3 Ag1_2 1_555 1_555
O3C Gd1 1_555 1_555
O3C_2 Gd1_2 1_555 1_555
O4C C10C 1_555 1_555
O4_2 Gd1 1_555 1_555
O4_3 Gd1_2 1_555 1_555
O5B C11B 1_555 1_555
O5B_2 Gd1 1_555 1_555
O5_2 Ag1_2 1_555 1_555
O5B_3 Gd1_2 1_555 1_555
O6B C11B 1_555 1_555
O6_2 Gd1 1_555 1_555
O6_3 Gd1_2 1_555 1_555
O7B C12B 1_555 1_555
O7_2 Gd1_2 1_555 1_555
O8B Gd1 1_555 1_555
O8B_2 Gd1_2 1_555 1_555
C3 N1 1_555 1_555
C4 N2 1_555 1_555
C7 N3 1_555 1_555
C8 N4 1_555 1_555
C9 N4 1_555 1_555
Gd1 O1 1_555 1_555
O3 Gd1C 1_555 1_555
O6 Gd1_3 1_555 1_555
C3_2 N1_2 1_555 1_555
C4_2 N2_2 1_555 1_555
C5_2 O2_2 1_555 1_555
C6C N3C 1_555 1_555
C7C N3C 1_555 1_555
C9C N4C 1_555 1_555
C10C O3C 1_555 1_555
C12B O8B 1_555 1_555
Gd1_2 O1_2 1_555 1_555
Gd1_3 O5B 1_555 1_555
Gd1B O6B 1_555 1_555
Gd1B_2 O7B 1_555 1_555

#END
