
#######################################################################
#
#                 Cambridge Crystallographic Data Centre
#                                CCDC 
#
#######################################################################
#
# If this CIF has been generated from an entry in the Cambridge 
# Structural Database, then it will include bibliographic, chemical, 
# crystal, experimental, refinement or atomic coordinate data resulting 
# from the CCDC's data processing and validation procedures.
#
#######################################################################

data_OMODAW
_symmetry_cell_setting           monoclinic
_symmetry_space_group_name_H-M   'C 2/c'
_symmetry_Int_Tables_number      15
_space_group_name_Hall           '-C 2yn'
loop_
_symmetry_equiv_pos_site_id
_symmetry_equiv_pos_as_xyz
1 x,y,z
2 -x,y,1/2-z
3 1/2+x,1/2+y,z
4 1/2-x,1/2+y,1/2-z
5 -x,-y,-z
6 x,-y,1/2+z
7 1/2-x,1/2-y,-z
8 1/2+x,1/2-y,1/2+z
_cell_length_a                   28.4486(5)
_cell_length_b                   10.4208(2)
_cell_length_c                   9.2501(1)
_cell_angle_alpha                90
_cell_angle_beta                 96.839(1)
_cell_angle_gamma                90
_cell_volume                     2722.75
loop_
_atom_site_label
_atom_site_type_symbol
_atom_site_fract_x
_atom_site_fract_y
_atom_site_fract_z
Ba1 Ba 0.5000 0.51594(3) 0.2500
S1 S 0.67662(3) 0.29214(9) 0.08854(9)
O1 O 0.59611(8) 0.4232(3) 0.2189(2)
O2 O 0.54765(8) 0.4354(3) 0.0154(3)
O3 O 0.87488(10) 0.1849(3) 0.5261(3)
H1 H 0.8800 0.1564 0.6104
O4 O 0.54788(12) 0.7302(3) 0.1603(4)
H2 H 0.5659 0.7176 0.1004
H3 H 0.5245 0.7660 0.1231
O5 O 0.5000 0.2526(6) 0.2500
H4 H 0.4849 0.2219 0.3123
N1 N 0.69022(11) 0.0918(3) 0.2806(3)
N2 N 0.66467(18) -0.0072(3) 0.3297(6)
N3 N 0.6233(2) 0.0002(4) 0.2626(6)
N4 N 0.61889(12) 0.1012(4) 0.1664(4)
C1 C 0.82939(13) 0.1577(4) 0.4675(4)
C2 C 0.79809(15) 0.0934(4) 0.5444(4)
H7 H 0.8079 0.0639 0.6380
C3 C 0.75253(16) 0.0729(4) 0.4831(4)
H8 H 0.7312 0.0317 0.5361
C4 C 0.73821(13) 0.1137(3) 0.3417(4)
C5 C 0.76992(13) 0.1749(4) 0.2633(3)
H9 H 0.7606 0.2013 0.1682
C6 C 0.81535(13) 0.1966(4) 0.3273(4)
H10 H 0.8368 0.2382 0.2750
C7 C 0.61968(12) 0.3356(4) -0.0039(4)
H11 H 0.6247 0.3913 -0.0847
H12 H 0.6044 0.2582 -0.0446
C8 C 0.58580(12) 0.4023(3) 0.0866(3)
C9 C 0.66128(12) 0.1568(3) 0.1809(4)
Ba1D Ba 0.5000 0.48406(3) -0.2500
Ba1D_2 Ba 0.5000 0.48406(3) 0.7500
S1A S 0.32338(3) 0.29214(9) 0.41146(9)
O1A O 0.40389(8) 0.4232(3) 0.2811(2)
O2A O 0.45235(8) 0.4354(3) 0.4846(3)
O2D O 0.45235(8) 0.5646(3) -0.0154(3)
O2E O 0.54765(8) 0.5646(3) 0.5154(3)
O3A O 0.12512(10) 0.1849(3) -0.0261(3)
H1A H 0.1200 0.1564 -0.1104
O4A O 0.45212(12) 0.7302(3) 0.3397(4)
H2A H 0.4341 0.7176 0.3996
H3A H 0.4755 0.7660 0.3769
H4A H 0.5151 0.2219 0.1877
N1A N 0.30978(11) 0.0918(3) 0.2194(3)
N2A N 0.33533(18) -0.0072(3) 0.1703(6)
N3A N 0.3767(2) 0.0002(4) 0.2374(6)
N4A N 0.38111(12) 0.1012(4) 0.3336(4)
C1A C 0.17061(13) 0.1577(4) 0.0325(4)
C2A C 0.20191(15) 0.0934(4) -0.0444(4)
H7A H 0.1921 0.0639 -0.1380
C3A C 0.24747(16) 0.0729(4) 0.0169(4)
H8A H 0.2688 0.0317 -0.0361
C4A C 0.26179(13) 0.1137(3) 0.1583(4)
C5A C 0.23008(13) 0.1749(4) 0.2367(3)
H9A H 0.2394 0.2013 0.3318
C6A C 0.18465(13) 0.1966(4) 0.1727(4)
H10A H 0.1632 0.2382 0.2250
C7A C 0.38032(12) 0.3356(4) 0.5039(4)
H11A H 0.3753 0.3913 0.5847
H12A H 0.3956 0.2582 0.5446
C8A C 0.41420(12) 0.4023(3) 0.4134(3)
C9A C 0.33872(12) 0.1568(3) 0.3191(4)
O6 O 0.4730(3) 0.0989(7) 0.5111(14)
H5 H 0.4909 0.1648 0.5148
H6 H 0.4445 0.1244 0.5082
loop_
_geom_bond_atom_site_label_1
_geom_bond_atom_site_label_2
_geom_bond_site_symmetry_1
_geom_bond_site_symmetry_2
Ba1 O1 1_555 1_555
S1 C7 1_555 1_555
O1 C8 1_555 1_555
O2 Ba1 1_555 1_555
O3 H1 1_555 1_555
O4 Ba1 1_555 1_555
H2 O4 1_555 1_555
H3 O4 1_555 1_555
O5 Ba1 1_555 1_555
H4 O5 1_555 1_555
O6 H5 1_555 1_555
H6 O6 1_555 1_555
N1 N2 1_555 1_555
N2 N3 1_555 1_555
N3 N4 1_555 1_555
N4 C9 1_555 1_555
C1 O3 1_555 1_555
C2 C1 1_555 1_555
H7 C2 1_555 1_555
C3 C2 1_555 1_555
H8 C3 1_555 1_555
C4 N1 1_555 1_555
C5 C4 1_555 1_555
H9 C5 1_555 1_555
C6 C1 1_555 1_555
H10 C6 1_555 1_555
C7 H11 1_555 1_555
H12 C7 1_555 1_555
C8 O2 1_555 1_555
C9 S1 1_555 1_555
Ba1D O2 1_555 1_555
Ba1D_2 O2A 1_555 1_555
S1A C7A 1_555 1_555
O1A Ba1 1_555 1_555
O2A Ba1 1_555 1_555
O2D Ba1 1_555 1_555
O2E Ba1 1_555 1_555
O3A H1A 1_555 1_555
O4A Ba1 1_555 1_555
H2A O4A 1_555 1_555
H3A O4A 1_555 1_555
H4A O5 1_555 1_555
N1A N2A 1_555 1_555
N2A N3A 1_555 1_555
N3A N4A 1_555 1_555
N4A C9A 1_555 1_555
C1A O3A 1_555 1_555
C2A C1A 1_555 1_555
H7A C2A 1_555 1_555
C3A C2A 1_555 1_555
H8A C3A 1_555 1_555
C4A N1A 1_555 1_555
C5A C4A 1_555 1_555
H9A C5A 1_555 1_555
C6A C1A 1_555 1_555
H10A C6A 1_555 1_555
C7A H11A 1_555 1_555
H12A C7A 1_555 1_555
C8A O1A 1_555 1_555
C9A S1A 1_555 1_555
N1 C9 1_555 1_555
C3 C4 1_555 1_555
C5 C6 1_555 1_555
C7 C8 1_555 1_555
Ba1D O2D 1_555 1_555
Ba1D_2 O2E 1_555 1_555
O2A C8A 1_555 1_555
N1A C9A 1_555 1_555
C3A C4A 1_555 1_555
C5A C6A 1_555 1_555
C7A C8A 1_555 1_555

#END
