
#######################################################################
#
#                 Cambridge Crystallographic Data Centre
#                                CCDC 
#
#######################################################################
#
# If this CIF has been generated from an entry in the Cambridge 
# Structural Database, then it will include bibliographic, chemical, 
# crystal, experimental, refinement or atomic coordinate data resulting 
# from the CCDC's data processing and validation procedures.
#
#######################################################################

data_OMOFIF
_symmetry_cell_setting           monoclinic
_symmetry_space_group_name_H-M   'P 21/c'
_symmetry_Int_Tables_number      14
_space_group_name_Hall           '-P 2ybc'
loop_
_symmetry_equiv_pos_site_id
_symmetry_equiv_pos_as_xyz
1 x,y,z
2 x,1/2-y,1/2+z
3 -x,-y,-z
4 -x,1/2+y,1/2-z
_cell_length_a                   8.2495(3)
_cell_length_b                   3.85910(10)
_cell_length_c                   19.2181(6)
_cell_angle_alpha                90
_cell_angle_beta                 93.1680(10)
_cell_angle_gamma                90
_cell_volume                     610.886
loop_
_atom_site_label
_atom_site_type_symbol
_atom_site_fract_x
_atom_site_fract_y
_atom_site_fract_z
K1 K 0.65764(4) 0.83397(8) 0.09807(2)
O1 O 0.48284(11) 0.3237(3) 0.16159(5)
C1 C 0.25917(17) 0.5604(4) 0.06215(7)
C2 C 0.04523(17) 0.3646(4) 0.13496(7)
C3 C 0.21060(16) 0.4062(4) 0.12382(7)
C4 C 0.33595(16) 0.2848(3) 0.17294(7)
N1 N 0.30456(19) 0.6841(4) 0.01222(7)
N2 N -0.08969(17) 0.3260(4) 0.14582(8)
N3 N 0.29245(15) 0.1317(3) 0.23191(6)
H1 H 0.3657 0.0598 0.2621
H2 H 0.1914 0.1056 0.2395
O1_2 O 0.48284(11) 1.3237(3) 0.16159(5)
N1B N 0.69544(19) 0.3159(4) -0.01222(7)
N1B_2 N 0.69544(19) 1.3159(4) -0.01222(7)
N2_2 N 0.91031(17) 0.3260(4) 0.14582(8)
N2_3 N 0.91031(17) 1.3260(4) 0.14582(8)
K1_2 K 0.65764(4) -0.16603(8) 0.09807(2)
K1B K 0.34236(4) 0.16603(8) -0.09807(2)
K1B_2 K 0.34236(4) 1.16603(8) -0.09807(2)
K1_3 K -0.34236(4) -0.16603(8) 0.09807(2)
K1_4 K -0.34236(4) 0.83397(8) 0.09807(2)
loop_
_geom_bond_atom_site_label_1
_geom_bond_atom_site_label_2
_geom_bond_site_symmetry_1
_geom_bond_site_symmetry_2
K1 O1 1_555 1_555
O1 C4 1_555 1_555
C1 C3 1_555 1_555
C2 C3 1_555 1_555
C3 C4 1_555 1_555
C4 N3 1_555 1_555
N1 C1 1_555 1_555
N2 C2 1_555 1_555
N3 H1 1_555 1_555
H2 N3 1_555 1_555
O1_2 K1 1_555 1_555
N1B K1 1_555 1_555
N1B_2 K1 1_555 1_555
N2_2 K1 1_555 1_555
N2_3 K1 1_555 1_555
K1_2 O1 1_555 1_555
K1B N1 1_555 1_555
K1B_2 N1 1_555 1_555
K1_3 N2 1_555 1_555
K1_4 N2 1_555 1_555
N1B K1_2 1_555 1_555
N2_2 K1_2 1_555 1_555

#END
