
#######################################################################
#
#                 Cambridge Crystallographic Data Centre
#                                CCDC 
#
#######################################################################
#
# If this CIF has been generated from an entry in the Cambridge 
# Structural Database, then it will include bibliographic, chemical, 
# crystal, experimental, refinement or atomic coordinate data resulting 
# from the CCDC's data processing and validation procedures.
#
#######################################################################

data_OMOFUR
_symmetry_cell_setting           triclinic
_symmetry_space_group_name_H-M   'P -1'
_symmetry_Int_Tables_number      2
_space_group_name_Hall           '-P 1'
loop_
_symmetry_equiv_pos_site_id
_symmetry_equiv_pos_as_xyz
1 x,y,z
2 -x,-y,-z
_cell_length_a                   7.5120(10)
_cell_length_b                   8.0150(10)
_cell_length_c                   8.8860(10)
_cell_angle_alpha                111.88(2)
_cell_angle_beta                 101.38(2)
_cell_angle_gamma                106.57(2)
_cell_volume                     447.278
loop_
_atom_site_label
_atom_site_type_symbol
_atom_site_fract_x
_atom_site_fract_y
_atom_site_fract_z
I1 I 0.66521(3) 0.45728(2) 0.71603(2)
Cu1 Cu 0.68233(6) 0.56643(5) 0.46985(4)
O1 O 1.2643(4) 0.0298(3) 0.4614(3)
H1 H 1.3728 0.1203 0.5366
N1 N 0.7466(4) 0.3641(3) 0.2925(3)
N2 N 1.1649(4) 0.1353(3) 0.4103(3)
C1 C 0.8788(4) 0.1151(4) 0.2265(4)
C2 C 0.8458(4) 0.2684(4) 0.3421(4)
H2 H 0.8965 0.3063 0.4618
C3 C 0.6805(4) 0.3120(4) 0.1225(4)
H3 H 0.6160 0.3835 0.0862
C4 C 0.7020(4) 0.1592(4) -0.0019(4)
H4 H 0.6518 0.1259 -0.1206
C5 C 0.7984(4) 0.0558(4) 0.0508(4)
H5 H 0.8094 -0.0538 -0.0318
C6 C 0.9983(4) 0.0200(4) 0.2906(3)
C7 C 0.9181(5) -0.1990(4) 0.2110(4)
H6 H 1.0239 -0.2407 0.2434
H7 H 0.8660 -0.2536 0.0851
H8 H 0.8119 -0.2458 0.2523
Cu1A Cu 0.31767(6) 0.43357(5) 0.53015(4)
I1A I 0.33479(3) 0.54272(2) 0.28397(2)
N2A N 0.8351(4) 0.8647(3) 0.5897(3)
Cu1A_2 Cu 1.31767(6) 0.43357(5) 0.53015(4)
loop_
_geom_bond_atom_site_label_1
_geom_bond_atom_site_label_2
_geom_bond_site_symmetry_1
_geom_bond_site_symmetry_2
I1 Cu1 1_555 1_555
Cu1 N1 1_555 1_555
O1 H1 1_555 1_555
N1 C2 1_555 1_555
N2 O1 1_555 1_555
C1 C2 1_555 1_555
C2 H2 1_555 1_555
C3 N1 1_555 1_555
H3 C3 1_555 1_555
C4 C3 1_555 1_555
H4 C4 1_555 1_555
C5 C1 1_555 1_555
H5 C5 1_555 1_555
C6 N2 1_555 1_555
C7 C6 1_555 1_555
H6 C7 1_555 1_555
H7 C7 1_555 1_555
H8 C7 1_555 1_555
Cu1A I1 1_555 1_555
I1A Cu1 1_555 1_555
N2A Cu1 1_555 1_555
Cu1A_2 N2 1_555 1_555
C1 C6 1_555 1_555
C4 C5 1_555 1_555
Cu1A I1A 1_555 1_555

#END
