
#######################################################################
#
#                 Cambridge Crystallographic Data Centre
#                                CCDC 
#
#######################################################################
#
# If this CIF has been generated from an entry in the Cambridge 
# Structural Database, then it will include bibliographic, chemical, 
# crystal, experimental, refinement or atomic coordinate data resulting 
# from the CCDC's data processing and validation procedures.
#
#######################################################################

data_OMOGAY
_symmetry_cell_setting           triclinic
_symmetry_space_group_name_H-M   'P -1'
_symmetry_Int_Tables_number      2
_space_group_name_Hall           '-P 1'
loop_
_symmetry_equiv_pos_site_id
_symmetry_equiv_pos_as_xyz
1 x,y,z
2 -x,-y,-z
_cell_length_a                   7.5859(8)
_cell_length_b                   8.9838(10)
_cell_length_c                   10.6729(11)
_cell_angle_alpha                80.441(2)
_cell_angle_beta                 72.913(2)
_cell_angle_gamma                77.096(2)
_cell_volume                     673.746
loop_
_atom_site_label
_atom_site_type_symbol
_atom_site_fract_x
_atom_site_fract_y
_atom_site_fract_z
Co1 Co 0.83036(3) 0.35696(3) 0.22259(2)
O1 O 0.7289(2) 0.19179(17) 0.16733(15)
O2 O 0.4511(2) 0.3372(2) 0.1647(2)
O3 O 0.1030(2) 0.14802(19) 0.26572(15)
O4 O 0.0919(2) 0.31488(17) 0.09364(15)
O5 O 0.7081(2) 0.52355(19) 0.10190(18)
N1 N 0.8709(2) 0.5479(2) 0.30335(17)
N2 N 0.7186(2) 0.31094(18) 0.42295(16)
C1 C 0.6565(3) 0.1807(2) 0.4767(2)
H1 H 0.6572 0.1110 0.4211
C2 C 0.5914(3) 0.1450(3) 0.6109(2)
H2 H 0.5528 0.0519 0.6454
C3 C 0.5852(3) 0.2508(3) 0.6922(2)
H3 H 0.5386 0.2313 0.7830
C4 C 0.6483(3) 0.3856(3) 0.6385(2)
H4 H 0.6438 0.4583 0.6926
C5 C 0.7187(3) 0.4121(2) 0.50289(19)
C6 C 0.8006(3) 0.5484(2) 0.4349(2)
C7 C 0.8073(3) 0.6683(3) 0.4998(2)
H5 H 0.7605 0.6656 0.5909
C8 C 0.8839(3) 0.7907(3) 0.4273(3)
H6 H 0.8923 0.8708 0.4692
C9 C 0.9481(4) 0.7942(3) 0.2924(3)
H7 H 0.9950 0.8785 0.2416
C10 C 0.9416(3) 0.6699(3) 0.2338(2)
H8 H 0.9880 0.6711 0.1428
C11 C 0.5715(3) 0.2196(2) 0.14186(19)
C12 C 0.5312(3) 0.1026(2) 0.07308(17)
C13 C 0.3478(3) 0.1008(2) 0.07097(17)
C14 C 0.6797(3) 0.0012(2) 0.00293(18)
H9 H 0.8010 0.0016 0.0056
C15 C 0.1734(3) 0.1956(2) 0.15196(19)
H10 H 0.775(3) 0.573(3) 0.0368(18)
H11 H 0.618(3) 0.493(3) 0.087(2)
C14A C 0.3203(3) -0.0012(2) -0.00293(18)
C12A C 0.4688(3) -0.1026(2) -0.07308(17)
C11A C 0.4285(3) -0.2196(2) -0.14186(19)
O1A O 0.2711(2) -0.19179(17) -0.16733(15)
O2A O 0.5489(2) -0.3372(2) -0.1647(2)
C13A C 0.6522(3) -0.1008(2) -0.07097(17)
C15A C 0.8266(3) -0.1956(2) -0.15196(19)
O3A O 0.8970(2) -0.14802(19) -0.26572(15)
O4A O 0.9081(2) -0.31488(17) -0.09364(15)
H9A H 0.1990 -0.0016 -0.0056
Co1A Co 0.16964(3) -0.35696(3) -0.22259(2)
O5A O 0.2919(2) -0.52355(19) -0.10190(18)
H10A H 0.225(3) -0.573(3) -0.0368(18)
H11A H 0.382(3) -0.493(3) -0.087(2)
N1A N 0.1291(2) -0.5479(2) -0.30335(17)
N2A N 0.2814(2) -0.31094(18) -0.42295(16)
C1A C 0.3435(3) -0.1807(2) -0.4767(2)
H1A H 0.3428 -0.1110 -0.4211
C2A C 0.4086(3) -0.1450(3) -0.6109(2)
H2A H 0.4472 -0.0519 -0.6454
C3A C 0.4148(3) -0.2508(3) -0.6922(2)
H3A H 0.4614 -0.2313 -0.7830
C4A C 0.3517(3) -0.3856(3) -0.6385(2)
H4A H 0.3562 -0.4583 -0.6926
C5A C 0.2813(3) -0.4121(2) -0.50289(19)
C6A C 0.1994(3) -0.5484(2) -0.4349(2)
C7A C 0.1927(3) -0.6683(3) -0.4998(2)
H5A H 0.2395 -0.6656 -0.5909
C8A C 0.1161(3) -0.7907(3) -0.4273(3)
H6A H 0.1077 -0.8708 -0.4692
C9A C 0.0519(4) -0.7942(3) -0.2924(3)
H7A H 0.0050 -0.8785 -0.2416
C10A C 0.0584(3) -0.6699(3) -0.2338(2)
H8A H 0.0120 -0.6711 -0.1428
O4_2 O 1.0919(2) 0.31488(17) 0.09364(15)
Co1_2 Co -0.16964(3) 0.35696(3) 0.22259(2)
Co1A_2 Co 1.16964(3) -0.35696(3) -0.22259(2)
O4A_2 O -0.0919(2) -0.31488(17) -0.09364(15)
loop_
_geom_bond_atom_site_label_1
_geom_bond_atom_site_label_2
_geom_bond_site_symmetry_1
_geom_bond_site_symmetry_2
Co1 O1 1_555 1_555
O1 C11 1_555 1_555
O2 C11 1_555 1_555
O3 C15 1_555 1_555
O4 C15 1_555 1_555
O5 Co1 1_555 1_555
N1 Co1 1_555 1_555
N2 Co1 1_555 1_555
C1 N2 1_555 1_555
H1 C1 1_555 1_555
C2 C1 1_555 1_555
H2 C2 1_555 1_555
C3 C2 1_555 1_555
H3 C3 1_555 1_555
C4 C3 1_555 1_555
H4 C4 1_555 1_555
C5 N2 1_555 1_555
C6 N1 1_555 1_555
C7 C6 1_555 1_555
H5 C7 1_555 1_555
C8 C7 1_555 1_555
H6 C8 1_555 1_555
C9 C8 1_555 1_555
H7 C9 1_555 1_555
C10 N1 1_555 1_555
H8 C10 1_555 1_555
C11 C12 1_555 1_555
C12 C13 1_555 1_555
C13 C15 1_555 1_555
C14 C12 1_555 1_555
H9 C14 1_555 1_555
H10 O5 1_555 1_555
H11 O5 1_555 1_555
C14A C13 1_555 1_555
C12A C14A 1_555 1_555
C11A C12A 1_555 1_555
O1A C11A 1_555 1_555
O2A C11A 1_555 1_555
C13A C14 1_555 1_555
C15A C13A 1_555 1_555
O3A C15A 1_555 1_555
O4A C15A 1_555 1_555
H9A C14A 1_555 1_555
Co1A O1A 1_555 1_555
O5A Co1A 1_555 1_555
H10A O5A 1_555 1_555
H11A O5A 1_555 1_555
N1A Co1A 1_555 1_555
N2A Co1A 1_555 1_555
C1A N2A 1_555 1_555
H1A C1A 1_555 1_555
C2A C1A 1_555 1_555
H2A C2A 1_555 1_555
C3A C2A 1_555 1_555
H3A C3A 1_555 1_555
C4A C3A 1_555 1_555
H4A C4A 1_555 1_555
C5A N2A 1_555 1_555
C6A N1A 1_555 1_555
C7A C6A 1_555 1_555
H5A C7A 1_555 1_555
C8A C7A 1_555 1_555
H6A C8A 1_555 1_555
C9A C8A 1_555 1_555
H7A C9A 1_555 1_555
C10A N1A 1_555 1_555
H8A C10A 1_555 1_555
O4_2 Co1 1_555 1_555
Co1_2 O4 1_555 1_555
Co1A_2 O4A 1_555 1_555
O4A_2 Co1A 1_555 1_555
C4 C5 1_555 1_555
C5 C6 1_555 1_555
C9 C10 1_555 1_555
C12A C13A 1_555 1_555
C4A C5A 1_555 1_555
C5A C6A 1_555 1_555
C9A C10A 1_555 1_555

#END
