
#######################################################################
#
#                 Cambridge Crystallographic Data Centre
#                                CCDC 
#
#######################################################################
#
# If this CIF has been generated from an entry in the Cambridge 
# Structural Database, then it will include bibliographic, chemical, 
# crystal, experimental, refinement or atomic coordinate data resulting 
# from the CCDC's data processing and validation procedures.
#
#######################################################################

data_OMORIS
_symmetry_cell_setting           orthorhombic
_symmetry_space_group_name_H-M   'P n a 21'
_symmetry_Int_Tables_number      33
_space_group_name_Hall           'P 2c -2n'
loop_
_symmetry_equiv_pos_site_id
_symmetry_equiv_pos_as_xyz
1 x,y,z
2 -x,-y,1/2+z
3 1/2+x,1/2-y,z
4 1/2-x,1/2+y,1/2+z
_cell_length_a                   10.561(2)
_cell_length_b                   9.1870(19)
_cell_length_c                   13.352(3)
_cell_angle_alpha                90
_cell_angle_beta                 90
_cell_angle_gamma                90
_cell_volume                     1295.46
loop_
_atom_site_label
_atom_site_type_symbol
_atom_site_fract_x
_atom_site_fract_y
_atom_site_fract_z
Mn1 Mn 0.40853(6) 0.14387(7) 0.51104(6)
N1 N 0.3993(4) 0.3768(4) 0.5728(3)
N2 N 0.2912(4) 0.4469(4) 0.6016(3)
H1 H 0.2211 0.4166 0.5762
O1 O 0.6010(3) 0.2305(3) 0.5165(4)
O2 O 0.7212(3) 0.4253(4) 0.5471(3)
O3 O 0.1810(4) 0.6035(4) 0.6949(3)
O4 O 0.4515(4) 0.0324(6) 0.6527(4)
H2 H 0.5144 -0.0186 0.6713
H3 H 0.4064 0.0433 0.7049
O5 O 0.3615(4) 0.2465(4) 0.3701(3)
H4 H 0.3458 0.2057 0.3143
H5 H 0.3260 0.3295 0.3672
O6 O 0.4730(5) -0.0415(5) 0.4313(5)
H6 H 0.4255 -0.1157 0.4250
H7 H 0.5442 -0.0661 0.4072
C1 C 0.6188(4) 0.3596(5) 0.5455(4)
C2 C 0.5048(4) 0.4440(5) 0.5828(4)
C3 C 0.5149(5) 0.5917(6) 0.6255(6)
H8 H 0.5109 0.6633 0.5722
H9 H 0.5955 0.6024 0.6594
C4 C 0.4086(5) 0.6175(9) 0.6985(7)
H10 H 0.4309 0.5736 0.7622
H11 H 0.3999 0.7214 0.7092
C5 C 0.2844(4) 0.5582(6) 0.6657(4)
Mn1B Mn 0.90853(6) 0.35613(7) 0.51104(6)
O2B O 0.2212(3) 0.0747(4) 0.5471(3)
Cl1 Cl 0.21271(18) 0.15751(18) 0.84399(14)
O7 O 0.2881(18) 0.0336(17) 0.8203(15)
O8 O 0.0898(12) 0.091(2) 0.8740(15)
O9 O 0.2588(17) 0.230(2) 0.9259(12)
O10 O 0.1898(19) 0.2369(16) 0.7601(10)
O11? O 0.3074(16) 0.2549(16) 0.8016(14)
O12? O 0.2668(17) 0.0200(14) 0.8477(16)
O13? O 0.1076(15) 0.165(2) 0.7806(14)
O14? O 0.1804(17) 0.2087(18) 0.9386(9)
loop_
_geom_bond_atom_site_label_1
_geom_bond_atom_site_label_2
_geom_bond_site_symmetry_1
_geom_bond_site_symmetry_2
Mn1 N1 1_555 1_555
Cl1 O7 1_555 1_555
N1 N2 1_555 1_555
N2 H1 1_555 1_555
O1 Mn1 1_555 1_555
O2 C1 1_555 1_555
O3 C5 1_555 1_555
O4 Mn1 1_555 1_555
H2 O4 1_555 1_555
H3 O4 1_555 1_555
O5 Mn1 1_555 1_555
H4 O5 1_555 1_555
H5 O5 1_555 1_555
O6 Mn1 1_555 1_555
H6 O6 1_555 1_555
H7 O6 1_555 1_555
O8 Cl1 1_555 1_555
O9 Cl1 1_555 1_555
O10 Cl1 1_555 1_555
C1 O1 1_555 1_555
C2 N1 1_555 1_555
C3 C2 1_555 1_555
H8 C3 1_555 1_555
H9 C3 1_555 1_555
C4 C3 1_555 1_555
H10 C4 1_555 1_555
H11 C4 1_555 1_555
C5 N2 1_555 1_555
Mn1B O2 1_555 1_555
O2B Mn1 1_555 1_555
C1 C2 1_555 1_555
C4 C5 1_555 1_555

#END
