
#######################################################################
#
#                 Cambridge Crystallographic Data Centre
#                                CCDC 
#
#######################################################################
#
# If this CIF has been generated from an entry in the Cambridge 
# Structural Database, then it will include bibliographic, chemical, 
# crystal, experimental, refinement or atomic coordinate data resulting 
# from the CCDC's data processing and validation procedures.
#
#######################################################################

data_OMORUE
_symmetry_cell_setting           tetragonal
_symmetry_space_group_name_H-M   'P 43 21 2'
_symmetry_Int_Tables_number      96
_space_group_name_Hall           'P 4nw 2abw'
loop_
_symmetry_equiv_pos_site_id
_symmetry_equiv_pos_as_xyz
1 x,y,z
2 -x,-y,1/2+z
3 1/2-y,1/2+x,3/4+z
4 1/2+y,1/2-x,1/4+z
5 1/2-x,1/2+y,3/4-z
6 1/2+x,1/2-y,1/4-z
7 y,x,-z
8 -y,-x,1/2-z
_cell_length_a                   12.9021(18)
_cell_length_b                   12.9021(18)
_cell_length_c                   28.909(6)
_cell_angle_alpha                90
_cell_angle_beta                 90
_cell_angle_gamma                90
_cell_volume                     4812.31
loop_
_atom_site_label
_atom_site_type_symbol
_atom_site_fract_x
_atom_site_fract_y
_atom_site_fract_z
Cu1 Cu -0.13143(8) -0.00463(6) -0.03965(2)
O1 O -0.1234(3) -0.1234(3) 0.0000
S1 S -0.0756(4) 0.2367(2) 0.06609(10)
N1 N -0.0942(6) 0.0837(5) 0.0120(2)
O2 O -0.1499(5) 0.1168(4) -0.07593(16)
C1 C -0.1686(8) 0.2101(6) -0.0611(3)
C2 C -0.2115(7) 0.2824(6) -0.0957(3)
C3 C -0.1117(11) 0.1824(7) 0.0139(3)
N2 N -0.1551(8) 0.2455(6) -0.0188(2)
C4 C -0.2070(8) 0.2596(7) -0.1422(3)
H1 H -0.1731 0.1999 -0.1519
N3 N -0.3014(5) 0.4110(5) -0.16181(19)
C5 C -0.2562(8) 0.3740(6) -0.0831(3)
H2 H -0.2578 0.3948 -0.0523
C6 C -0.2997(8) 0.4357(6) -0.1179(3)
H3 H -0.3293 0.4985 -0.1093
C7 C -0.2503(8) 0.3215(7) -0.1736(3)
H4 H -0.2458 0.3034 -0.2046
C8 C -0.0365(12) 0.1144(9) 0.0827(3)
N4 N 0.0446(7) -0.0486(6) -0.0524(2)
C9 C 0.0076(16) 0.0932(11) 0.1304(4)
H5 H 0.0264 0.0214 0.1328
H6 H -0.0435 0.1094 0.1534
H7 H 0.0680 0.1355 0.1352
Cu1F Cu -0.00463(6) -0.13143(8) 0.03965(2)
Cu1D Cu -0.36857(8) 0.49537(6) -0.21035(2)
Cu1C Cu 0.49537(6) -0.36857(8) 0.21035(2)
S1F S 0.2367(2) -0.0756(4) -0.06609(10)
N1F N 0.0837(5) -0.0942(6) -0.0120(2)
O2F O 0.1168(4) -0.1499(5) 0.07593(16)
C1F C 0.2101(6) -0.1686(8) 0.0611(3)
C2F C 0.2824(6) -0.2115(7) 0.0957(3)
C3F C 0.1824(7) -0.1117(11) -0.0139(3)
N2F N 0.2455(6) -0.1551(8) 0.0188(2)
C4F C 0.2596(7) -0.2070(8) 0.1422(3)
H1F H 0.1999 -0.1731 0.1519
N3D N -0.1986(5) -0.0890(5) -0.08819(19)
N3F N 0.4110(5) -0.3014(5) 0.16181(19)
N3C N -0.0890(5) -0.1986(5) 0.08819(19)
C5F C 0.3740(6) -0.2562(8) 0.0831(3)
H2F H 0.3948 -0.2578 0.0523
C6F C 0.4357(6) -0.2997(8) 0.1179(3)
H3F H 0.4985 -0.3293 0.1093
C7F C 0.3215(7) -0.2503(8) 0.1736(3)
H4F H 0.3034 -0.2458 0.2046
C8F C 0.1144(9) -0.0365(12) -0.0827(3)
N4F N -0.0486(6) 0.0446(7) 0.0524(2)
C9F C 0.0932(11) 0.0076(16) -0.1304(4)
H5F H 0.0214 0.0264 -0.1328
H6F H 0.1094 -0.0435 -0.1534
H7F H 0.1355 0.0680 -0.1352
F1 F -0.0552(15) 0.0720(17) -0.2140(4)
F2 F -0.1745(17) 0.0988(17) -0.2308(7)
B1 B -0.092(2) 0.092(2) -0.2500
F1G F -0.0720(17) 0.0552(15) -0.2860(4)
F2G F -0.0988(17) 0.1745(17) -0.2692(7)
loop_
_geom_bond_atom_site_label_1
_geom_bond_atom_site_label_2
_geom_bond_site_symmetry_1
_geom_bond_site_symmetry_2
Cu1 O1 1_555 1_555
O1 Cu1F 1_555 1_555
S1 C3 1_555 1_555
N1 Cu1 1_555 1_555
O2 Cu1 1_555 1_555
C1 O2 1_555 1_555
C2 C1 1_555 1_555
C3 N1 1_555 1_555
N2 C1 1_555 1_555
C4 C2 1_555 1_555
H1 C4 1_555 1_555
F1 B1 1_555 1_555
F2 B1 1_555 1_555
N3 C6 1_555 1_555
C5 C2 1_555 1_555
H2 C5 1_555 1_555
C6 C5 1_555 1_555
H3 C6 1_555 1_555
C7 C4 1_555 1_555
H4 C7 1_555 1_555
C8 S1 1_555 1_555
N4 Cu1 1_555 1_555
C9 C8 1_555 1_555
H5 C9 1_555 1_555
H6 C9 1_555 1_555
H7 C9 1_555 1_555
B1 F1G 1_555 1_555
Cu1F N1F 1_555 1_555
Cu1D N3 1_555 1_555
Cu1C N3F 1_555 1_555
S1F C3F 1_555 1_555
N1F N4 1_555 1_555
O2F Cu1F 1_555 1_555
C1F O2F 1_555 1_555
C2F C1F 1_555 1_555
C3F N1F 1_555 1_555
N2F C1F 1_555 1_555
C4F C2F 1_555 1_555
H1F C4F 1_555 1_555
F2G B1 1_555 1_555
N3D Cu1 1_555 1_555
N3F C6F 1_555 1_555
N3C Cu1F 1_555 1_555
C5F C2F 1_555 1_555
H2F C5F 1_555 1_555
C6F C5F 1_555 1_555
H3F C6F 1_555 1_555
C7F C4F 1_555 1_555
H4F C7F 1_555 1_555
C8F N4 1_555 1_555
N4F N1 1_555 1_555
C9F C8F 1_555 1_555
H5F C9F 1_555 1_555
H6F C9F 1_555 1_555
H7F C9F 1_555 1_555
C3 N2 1_555 1_555
N3 C7 1_555 1_555
C8 N4F 1_555 1_555
Cu1F N4F 1_555 1_555
S1F C8F 1_555 1_555
C3F N2F 1_555 1_555
N3F C7F 1_555 1_555

#END
