
#######################################################################
#
#                 Cambridge Crystallographic Data Centre
#                                CCDC 
#
#######################################################################
#
# If this CIF has been generated from an entry in the Cambridge 
# Structural Database, then it will include bibliographic, chemical, 
# crystal, experimental, refinement or atomic coordinate data resulting 
# from the CCDC's data processing and validation procedures.
#
#######################################################################

data_OMOSUF
_symmetry_cell_setting           orthorhombic
_symmetry_space_group_name_H-M   'P b c a'
_symmetry_Int_Tables_number      61
_space_group_name_Hall           '-P 2ac 2ab'
loop_
_symmetry_equiv_pos_site_id
_symmetry_equiv_pos_as_xyz
1 x,y,z
2 1/2-x,-y,1/2+z
3 -x,1/2+y,1/2-z
4 1/2+x,1/2-y,-z
5 -x,-y,-z
6 1/2+x,y,1/2-z
7 x,1/2-y,1/2+z
8 1/2-x,1/2+y,z
_cell_length_a                   10.332(2)
_cell_length_b                   11.271(2)
_cell_length_c                   18.767(4)
_cell_angle_alpha                90
_cell_angle_beta                 90
_cell_angle_gamma                90
_cell_volume                     2185.45
loop_
_atom_site_label
_atom_site_type_symbol
_atom_site_fract_x
_atom_site_fract_y
_atom_site_fract_z
Zn1 Zn 0.25178(4) 0.38364(5) 0.16194(3)
N1 N 0.3914(3) 0.3840(3) 0.2352(2)
O1 O 0.4831(3) 0.3842(2) 0.07998(17)
N2 N 0.2283(4) 0.1326(3) 0.1503(3)
N3 N 0.3738(3) 0.3197(3) 0.29533(18)
N4 N 0.2605(3) 0.2278(3) 0.1114(2)
N5 N 0.3131(3) 0.0713(3) 0.05041(17)
C1 C 0.3126(4) 0.1890(3) 0.0520(2)
C2 C 0.6049(4) 0.4162(4) 0.1099(2)
H1 H 0.6539 0.4635 0.0761
H2 H 0.6544 0.3456 0.1211
C3 C 0.3661(4) 0.2682(3) -0.0042(2)
H3 H 0.3063 0.3330 -0.0127
H4 H 0.3753 0.2240 -0.0483
C4 C 0.4964(4) 0.3179(4) 0.0173(2)
H5 H 0.5572 0.2536 0.0249
H6 H 0.5299 0.3681 -0.0204
C5 C 0.5795(4) 0.4875(4) 0.1774(2)
H7 H 0.6612 0.5178 0.1953
H8 H 0.5253 0.5550 0.1657
C6 C 0.5156(4) 0.4171(4) 0.2343(2)
N6 N 0.2599(3) 0.0408(4) 0.1119(2)
N7 N 0.5734(4) 0.3748(2) 0.2925(2)
N8 N 0.4823(3) 0.3142(3) 0.32969(18)
Zn1E Zn 0.75178(4) 0.38364(5) 0.33806(3)
Zn1G Zn 0.24822(4) -0.11636(5) 0.16194(3)
N6G N 0.2401(3) 0.5408(4) 0.1119(2)
N7E N 0.0734(4) 0.3748(2) 0.2075(2)
loop_
_geom_bond_atom_site_label_1
_geom_bond_atom_site_label_2
_geom_bond_site_symmetry_1
_geom_bond_site_symmetry_2
Zn1 N1 1_555 1_555
N1 N3 1_555 1_555
O1 C2 1_555 1_555
N2 N4 1_555 1_555
N3 N8 1_555 1_555
N4 Zn1 1_555 1_555
N5 C1 1_555 1_555
C1 N4 1_555 1_555
C2 H1 1_555 1_555
H2 C2 1_555 1_555
C3 C1 1_555 1_555
H3 C3 1_555 1_555
H4 C3 1_555 1_555
C4 O1 1_555 1_555
H5 C4 1_555 1_555
H6 C4 1_555 1_555
C5 C2 1_555 1_555
H7 C5 1_555 1_555
H8 C5 1_555 1_555
C6 N1 1_555 1_555
N6 N2 1_555 1_555
N7 C6 1_555 1_555
N8 N7 1_555 1_555
Zn1E N7 1_555 1_555
Zn1G N6 1_555 1_555
N6G Zn1 1_555 1_555
N7E Zn1 1_555 1_555
N5 N6 1_555 1_555
C3 C4 1_555 1_555
C5 C6 1_555 1_555

#END
