
#######################################################################
#
#                 Cambridge Crystallographic Data Centre
#                                CCDC 
#
#######################################################################
#
# If this CIF has been generated from an entry in the Cambridge 
# Structural Database, then it will include bibliographic, chemical, 
# crystal, experimental, refinement or atomic coordinate data resulting 
# from the CCDC's data processing and validation procedures.
#
#######################################################################

data_OMOTAM
_symmetry_cell_setting           monoclinic
_symmetry_space_group_name_H-M   'P 21/n'
_symmetry_Int_Tables_number      14
_space_group_name_Hall           '-P 2yn'
loop_
_symmetry_equiv_pos_site_id
_symmetry_equiv_pos_as_xyz
1 x,y,z
2 1/2-x,1/2+y,1/2-z
3 -x,-y,-z
4 1/2+x,1/2-y,1/2+z
_cell_length_a                   9.5521(19)
_cell_length_b                   8.5587(17)
_cell_length_c                   13.791(3)
_cell_angle_alpha                90
_cell_angle_beta                 96.22(3)
_cell_angle_gamma                90
_cell_volume                     1120.83
loop_
_atom_site_label
_atom_site_type_symbol
_atom_site_fract_x
_atom_site_fract_y
_atom_site_fract_z
Cd1 Cd 0.842747(19) 1.15235(2) 0.917918(13)
Cd2 Cd 0.5000 1.0000 1.0000
N1 N 0.7115(2) 0.9576(3) 0.83494(17)
Cl1 Cl 0.40218(7) 0.72784(8) 1.04946(5)
N2 N 0.5952(2) 0.8890(3) 0.86282(16)
N3 N 0.7427(3) 0.9007(3) 0.75280(18)
N4 N 0.6465(2) 0.7903(3) 0.72425(17)
C1 C 0.5576(3) 0.7850(3) 0.79257(18)
C2 C 0.4406(4) 0.6704(4) 0.7962(2)
H1 H 0.3685 0.7184 0.8307
H2 H 0.4767 0.5810 0.8342
C3 C 0.3730(3) 0.6128(4) 0.7001(2)
N5 N 0.4397(2) 0.5647(3) 0.62508(16)
N6 N 0.2346(3) 0.5937(3) 0.68200(18)
N7 N 0.3377(2) 0.5141(3) 0.55858(17)
N8 N 0.2160(2) 0.5315(3) 0.59304(17)
O1 O 0.9701(3) 1.3244(3) 1.01735(19)
H3 H 0.9638 1.3014 1.0744
Cd1B Cd 0.157253(19) 0.84765(2) 1.082082(13)
Cd1A Cd 0.657253(19) 0.65235(2) 0.582082(13)
Cd1C Cd 0.342747(19) 0.34765(2) 0.417918(13)
Cd1C_2 Cd 0.342747(19) 1.34765(2) 1.417918(13)
Cd1A_2 Cd 0.657253(19) 1.65235(2) 1.582082(13)
Cd2A Cd 0.0000 0.5000 0.5000
Cd2A_2 Cd 1.0000 1.5000 1.5000
N1B N 0.2885(2) 1.0424(3) 1.16506(17)
Cl1B Cl 0.59782(7) 1.27216(8) 0.95054(5)
N2B N 0.4048(2) 1.1110(3) 1.13718(16)
N3B N 0.2573(3) 1.0993(3) 1.24720(18)
N4B N 0.3535(2) 1.2097(3) 1.27575(17)
N4A N 0.8535(2) 1.2903(3) 0.77575(17)
N4C N 0.1465(2) 0.7097(3) 1.22425(17)
C1B C 0.4424(3) 1.2150(3) 1.20743(18)
C2B C 0.5594(4) 1.3296(4) 1.2038(2)
H1B H 0.6315 1.2816 1.1693
H2B H 0.5233 1.4190 1.1658
C3B C 0.6270(3) 1.3872(4) 1.2999(2)
N5B N 0.5603(2) 1.4353(3) 1.37492(16)
N5A N 1.0603(2) 1.0647(3) 0.87492(16)
N5C N -0.0603(2) 0.9353(3) 1.12508(16)
N6B N 0.7654(3) 1.4063(3) 1.31800(18)
N7B N 0.6623(2) 1.4859(3) 1.44142(17)
N7C N 0.8377(2) 0.9859(3) 1.05858(17)
N7A N 0.1623(2) 1.0141(3) 0.94142(17)
N8B N 0.7840(2) 1.4685(3) 1.40696(17)
N8A N 0.2840(2) 1.0315(3) 0.90696(17)
N8C N 0.7160(2) 0.9685(3) 1.09304(17)
O1B O 0.0299(3) 0.6756(3) 0.98265(19)
H3B H 0.0362 0.6986 0.9256
O2 O 0.9734(3) 0.2840(5) 0.2081(2)
O3 O 0.2396(5) 0.3974(6) 0.9701(5)
loop_
_geom_bond_atom_site_label_1
_geom_bond_atom_site_label_2
_geom_bond_site_symmetry_1
_geom_bond_site_symmetry_2
Cd1 N1 1_555 1_555
Cd2 Cl1 1_555 1_555
N1 N2 1_555 1_555
Cl1 Cd1B 1_555 1_555
N2 Cd2 1_555 1_555
N3 N1 1_555 1_555
N4 N3 1_555 1_555
C1 N2 1_555 1_555
C2 C1 1_555 1_555
H1 C2 1_555 1_555
H2 C2 1_555 1_555
C3 C2 1_555 1_555
N5 C3 1_555 1_555
N6 C3 1_555 1_555
N7 N5 1_555 1_555
N8 N6 1_555 1_555
O1 Cd1 1_555 1_555
H3 O1 1_555 1_555
Cd1B N1B 1_555 1_555
Cd1A N4 1_555 1_555
Cd1C N7 1_555 1_555
Cd1C_2 N4B 1_555 1_555
Cd1A_2 N7B 1_555 1_555
Cd2A N8 1_555 1_555
Cd2A_2 N8B 1_555 1_555
N1B N2B 1_555 1_555
Cl1B Cd1 1_555 1_555
N2B Cd2 1_555 1_555
N3B N1B 1_555 1_555
N4B N3B 1_555 1_555
N4A Cd1 1_555 1_555
N4C Cd1B 1_555 1_555
C1B N2B 1_555 1_555
C2B C1B 1_555 1_555
H1B C2B 1_555 1_555
H2B C2B 1_555 1_555
C3B C2B 1_555 1_555
N5B Cd1C_2 1_555 1_555
N5A Cd1 1_555 1_555
N5C Cd1B 1_555 1_555
N6B C3B 1_555 1_555
N7B N5B 1_555 1_555
N7C Cd1 1_555 1_555
N7A Cd1B 1_555 1_555
N8B N6B 1_555 1_555
N8A Cd2 1_555 1_555
N8C Cd2 1_555 1_555
O1B Cd1B 1_555 1_555
H3B O1B 1_555 1_555
Cd2 Cl1B 1_555 1_555
N4 C1 1_555 1_555
N5 Cd1A 1_555 1_555
N7 N8 1_555 1_555
N4B C1B 1_555 1_555
C3B N5B 1_555 1_555
N7B N8B 1_555 1_555
N7C N8C 1_555 1_555
N7A N8A 1_555 1_555

#END
