
#######################################################################
#
#                 Cambridge Crystallographic Data Centre
#                                CCDC 
#
#######################################################################
#
# If this CIF has been generated from an entry in the Cambridge 
# Structural Database, then it will include bibliographic, chemical, 
# crystal, experimental, refinement or atomic coordinate data resulting 
# from the CCDC's data processing and validation procedures.
#
#######################################################################

data_OMOXOE
_symmetry_cell_setting           orthorhombic
_symmetry_space_group_name_H-M   'P b c a'
_symmetry_Int_Tables_number      61
_space_group_name_Hall           '-P 2ac 2ab'
loop_
_symmetry_equiv_pos_site_id
_symmetry_equiv_pos_as_xyz
1 x,y,z
2 1/2-x,-y,1/2+z
3 -x,1/2+y,1/2-z
4 1/2+x,1/2-y,-z
5 -x,-y,-z
6 1/2+x,y,1/2-z
7 x,1/2-y,1/2+z
8 1/2-x,1/2+y,z
_cell_length_a                   19.882(2)
_cell_length_b                   9.1333(11)
_cell_length_c                   23.539(3)
_cell_angle_alpha                90
_cell_angle_beta                 90
_cell_angle_gamma                90
_cell_volume                     4274.41
loop_
_atom_site_label
_atom_site_type_symbol
_atom_site_fract_x
_atom_site_fract_y
_atom_site_fract_z
O1 O -0.05986(11) -0.2075(2) 0.30901(9)
C1 C -0.02819(16) -0.2181(4) 0.35551(15)
C2 C -0.04354(16) -0.0999(4) 0.39808(13)
C3 C -0.01962(16) 0.0414(4) 0.39333(13)
C4 C 0.02275(16) 0.0814(4) 0.34309(14)
Co1 Co 0.07985(2) 0.13459(5) 0.251419(19)
N1 N 0.16388(13) 0.0475(3) 0.20788(12)
N2 N 0.16096(13) 0.2485(3) 0.29061(12)
N3 N -0.08361(17) 0.1179(4) 0.47478(13)
O2 O 0.01030(13) -0.3201(3) 0.36931(11)
O3 O 0.00925(11) 0.1964(3) 0.31602(10)
O4 O 0.06893(11) -0.0032(3) 0.32718(10)
O5 O 0.01005(13) -0.0032(3) 0.21350(11)
H1 H 0.0029 0.0528 0.1853
H2 H 0.0038 -0.0912 0.2030
C5 C -0.0099(2) 0.2969(4) 0.43590(17)
H5 H -0.0271 0.3488 0.4683
H6 H -0.0219 0.3483 0.4018
H7 H 0.0382 0.2904 0.4386
C6 C -0.03910(18) 0.1469(4) 0.43444(15)
C7 C -0.08999(17) -0.1343(4) 0.44232(14)
C8 C -0.1204(2) -0.2754(5) 0.44825(16)
H8 H -0.1067 -0.3532 0.4256
C9 C -0.1703(3) -0.2938(7) 0.4879(2)
H9 H -0.1901 -0.3854 0.4922
C10 C -0.1924(3) -0.1744(6) 0.5230(2)
H10 H -0.2274 -0.1882 0.5487
C11 C -0.1625(3) -0.0419(6) 0.51856(19)
H11 H -0.1760 0.0350 0.5418
C12 C -0.1105(2) -0.0212(5) 0.47835(15)
C13 C 0.1649(2) -0.0492(4) 0.16596(15)
H12 H 0.1241 -0.0847 0.1523
C14 C 0.2240(2) -0.1003(5) 0.14136(17)
H13 H 0.2225 -0.1668 0.1115
C15 C 0.2836(2) -0.0519(5) 0.16144(18)
H14 H 0.3234 -0.0868 0.1456
C16 C 0.28635(17) 0.0499(4) 0.20570(16)
C17 C 0.34659(19) 0.1062(5) 0.2301(2)
H15 H 0.3879 0.0735 0.2165
C18 C 0.34530(19) 0.2063(5) 0.2725(2)
H16 H 0.3855 0.2410 0.2875
C19 C 0.28273(16) 0.2592(4) 0.29450(16)
C20 C 0.2780(2) 0.3640(4) 0.33753(16)
H17 H 0.3168 0.4037 0.3533
C21 C 0.21628(19) 0.4083(4) 0.35631(15)
H18 H 0.2126 0.4778 0.3850
C22 C 0.15893(19) 0.3474(4) 0.33176(15)
H19 H 0.1171 0.3778 0.3449
C23 C 0.22383(17) 0.0982(4) 0.22735(15)
C24 C 0.22217(16) 0.2053(4) 0.27216(14)
O1B O 0.05986(11) 0.2925(2) 0.19099(9)
Co1B Co -0.07985(2) -0.36541(5) 0.248581(19)
O6 O 0.12892(17) 0.6605(4) 0.43977(15)
H3 H 0.0960 0.6590 0.4168
H4 H 0.1200 0.7216 0.4660
loop_
_geom_bond_atom_site_label_1
_geom_bond_atom_site_label_2
_geom_bond_site_symmetry_1
_geom_bond_site_symmetry_2
O1 C1 1_555 1_555
C1 C2 1_555 1_555
C2 C3 1_555 1_555
C3 C4 1_555 1_555
C4 O3 1_555 1_555
Co1 N1 1_555 1_555
N1 C13 1_555 1_555
N2 Co1 1_555 1_555
N3 C6 1_555 1_555
O2 C1 1_555 1_555
O3 Co1 1_555 1_555
O4 C4 1_555 1_555
O5 Co1 1_555 1_555
H1 O5 1_555 1_555
H2 O5 1_555 1_555
O6 H3 1_555 1_555
H4 O6 1_555 1_555
C5 H5 1_555 1_555
H6 C5 1_555 1_555
H7 C5 1_555 1_555
C6 C3 1_555 1_555
C7 C2 1_555 1_555
C8 C7 1_555 1_555
H8 C8 1_555 1_555
C9 C8 1_555 1_555
H9 C9 1_555 1_555
C10 C9 1_555 1_555
H10 C10 1_555 1_555
C11 C10 1_555 1_555
H11 C11 1_555 1_555
C12 N3 1_555 1_555
C13 H12 1_555 1_555
C14 C13 1_555 1_555
H13 C14 1_555 1_555
C15 C14 1_555 1_555
H14 C15 1_555 1_555
C16 C15 1_555 1_555
C17 C16 1_555 1_555
H15 C17 1_555 1_555
C18 C17 1_555 1_555
H16 C18 1_555 1_555
C19 C18 1_555 1_555
C20 C19 1_555 1_555
H17 C20 1_555 1_555
C21 C20 1_555 1_555
H18 C21 1_555 1_555
C22 N2 1_555 1_555
H19 C22 1_555 1_555
C23 N1 1_555 1_555
C24 N2 1_555 1_555
O1B Co1 1_555 1_555
Co1B O1 1_555 1_555
Co1 O4 1_555 1_555
C5 C6 1_555 1_555
C7 C12 1_555 1_555
C11 C12 1_555 1_555
C16 C23 1_555 1_555
C19 C24 1_555 1_555
C21 C22 1_555 1_555
C23 C24 1_555 1_555

#END
