
#######################################################################
#
#                 Cambridge Crystallographic Data Centre
#                                CCDC 
#
#######################################################################
#
# If this CIF has been generated from an entry in the Cambridge 
# Structural Database, then it will include bibliographic, chemical, 
# crystal, experimental, refinement or atomic coordinate data resulting 
# from the CCDC's data processing and validation procedures.
#
#######################################################################

data_OMOXUK
_symmetry_cell_setting           orthorhombic
_symmetry_space_group_name_H-M   'P b c a'
_symmetry_Int_Tables_number      61
_space_group_name_Hall           '-P 2ac 2ab'
loop_
_symmetry_equiv_pos_site_id
_symmetry_equiv_pos_as_xyz
1 x,y,z
2 1/2-x,-y,1/2+z
3 1/2+x,1/2-y,-z
4 -x,1/2+y,1/2-z
5 -x,-y,-z
6 1/2+x,y,1/2-z
7 1/2-x,1/2+y,z
8 x,1/2-y,1/2+z
_cell_length_a                   19.949(6)
_cell_length_b                   9.190(3)
_cell_length_c                   23.493(7)
_cell_angle_alpha                90
_cell_angle_beta                 90
_cell_angle_gamma                90
_cell_volume                     4307
loop_
_atom_site_label
_atom_site_type_symbol
_atom_site_fract_x
_atom_site_fract_y
_atom_site_fract_z
O1 O 0.86984(19) 0.6597(4) 0.05922(17)
H3 H 0.9031 0.6583 0.0822
H4 H 0.8794 0.7216 0.0331
Zn1 Zn 0.918932(18) 0.13416(4) 0.250698(16)
C1 C 0.77437(16) 0.0968(3) 0.27219(15)
N1 N 0.83378(13) 0.0452(3) 0.29228(12)
N2 N 0.83811(13) 0.2482(3) 0.20937(12)
N3 N 1.08340(16) 0.1169(4) 0.02556(14)
O2 O 1.05840(11) -0.2089(2) 0.19090(10)
O3 O 0.98878(14) -0.3211(3) 0.13025(11)
O4 O 0.98899(11) 0.1929(2) 0.18466(10)
O5 O 0.93058(11) -0.0078(2) 0.17278(11)
O6 O 0.98653(13) -0.0088(3) 0.28886(12)
H1 H 0.9954 0.0474 0.3166
H2 H 0.9947 -0.0958 0.2990
C2 C 1.02671(16) -0.2196(3) 0.14440(14)
C3 C 0.97594(16) 0.0780(3) 0.15718(14)
C4 C 1.0097(2) 0.2957(4) 0.06523(17)
H5 H 1.0266 0.3484 0.0330
H6 H 1.0220 0.3455 0.0996
H7 H 0.9617 0.2895 0.0628
C5 C 1.03884(18) 0.1457(3) 0.06567(14)
C6 C 1.01871(15) 0.0392(3) 0.10707(13)
C7 C 1.04229(16) -0.1012(3) 0.10145(13)
C8 C 1.08900(18) -0.1345(4) 0.05789(15)
C9 C 1.1190(2) -0.2743(4) 0.05132(17)
H8 H 1.1047 -0.3524 0.0734
C10 C 1.1695(3) -0.2924(6) 0.0119(2)
H9 H 1.1892 -0.3834 0.0075
C11 C 1.1921(3) -0.1735(6) -0.0224(2)
H10 H 1.2274 -0.1867 -0.0478
C12 C 1.1622(3) -0.0420(6) -0.0178(2)
H11 H 1.1761 0.0347 -0.0408
C13 C 1.1097(2) -0.0212(4) 0.02200(15)
C14 C 0.8323(2) -0.0517(4) 0.33446(16)
H12 H 0.8727 -0.0873 0.3486
C15 C 0.7724(2) -0.1018(4) 0.35826(17)
H13 H 0.7730 -0.1681 0.3882
C16 C 0.7136(2) -0.0529(4) 0.33740(18)
H14 H 0.6735 -0.0876 0.3525
C17 C 0.71206(17) 0.0491(4) 0.29339(16)
C18 C 0.65213(19) 0.1060(4) 0.2686(2)
H15 H 0.6108 0.0735 0.2818
C19 C 0.65387(18) 0.2060(4) 0.2263(2)
H16 H 0.6140 0.2410 0.2111
C20 C 0.71671(16) 0.2585(4) 0.20471(16)
C21 C 0.7218(2) 0.3638(4) 0.16138(16)
H17 H 0.6833 0.4029 0.1451
C22 C 0.78341(19) 0.4077(4) 0.14355(16)
H18 H 0.7876 0.4776 0.1151
C23 C 0.84050(18) 0.3466(4) 0.16857(15)
H19 H 0.8823 0.3769 0.1557
C24 C 0.77650(15) 0.2035(3) 0.22761(15)
Zn1C Zn 1.081068(18) -0.36584(4) 0.249302(16)
O2C O 0.94160(11) 0.2911(2) 0.30910(10)
loop_
_geom_bond_atom_site_label_1
_geom_bond_atom_site_label_2
_geom_bond_site_symmetry_1
_geom_bond_site_symmetry_2
O1 H3 1_555 1_555
Zn1 N1 1_555 1_555
C1 N1 1_555 1_555
N1 C14 1_555 1_555
N2 Zn1 1_555 1_555
N3 C5 1_555 1_555
O2 C2 1_555 1_555
O3 C2 1_555 1_555
O4 Zn1 1_555 1_555
O5 Zn1 1_555 1_555
O6 Zn1 1_555 1_555
H1 O6 1_555 1_555
H2 O6 1_555 1_555
H4 O1 1_555 1_555
C2 C7 1_555 1_555
C3 O4 1_555 1_555
C4 H5 1_555 1_555
H6 C4 1_555 1_555
H7 C4 1_555 1_555
C5 C4 1_555 1_555
C6 C3 1_555 1_555
C7 C6 1_555 1_555
C8 C7 1_555 1_555
C9 C8 1_555 1_555
H8 C9 1_555 1_555
C10 C9 1_555 1_555
H9 C10 1_555 1_555
C11 C10 1_555 1_555
H10 C11 1_555 1_555
C12 C11 1_555 1_555
H11 C12 1_555 1_555
C13 N3 1_555 1_555
C14 H12 1_555 1_555
C15 C14 1_555 1_555
H13 C15 1_555 1_555
C16 C15 1_555 1_555
H14 C16 1_555 1_555
C17 C1 1_555 1_555
C18 C17 1_555 1_555
H15 C18 1_555 1_555
C19 C18 1_555 1_555
H16 C19 1_555 1_555
C20 C19 1_555 1_555
C21 C20 1_555 1_555
H17 C21 1_555 1_555
C22 C21 1_555 1_555
H18 C22 1_555 1_555
C23 N2 1_555 1_555
H19 C23 1_555 1_555
C24 C1 1_555 1_555
Zn1C O2 1_555 1_555
O2C Zn1 1_555 1_555
N2 C24 1_555 1_555
O5 C3 1_555 1_555
C5 C6 1_555 1_555
C8 C13 1_555 1_555
C12 C13 1_555 1_555
C16 C17 1_555 1_555
C20 C24 1_555 1_555
C22 C23 1_555 1_555

#END
