
#######################################################################
#
#                 Cambridge Crystallographic Data Centre
#                                CCDC 
#
#######################################################################
#
# If this CIF has been generated from an entry in the Cambridge 
# Structural Database, then it will include bibliographic, chemical, 
# crystal, experimental, refinement or atomic coordinate data resulting 
# from the CCDC's data processing and validation procedures.
#
#######################################################################

data_OMOYUL
_symmetry_cell_setting           orthorhombic
_symmetry_space_group_name_H-M   'P b c a'
_symmetry_Int_Tables_number      61
_space_group_name_Hall           '-P 2ac 2ab'
loop_
_symmetry_equiv_pos_site_id
_symmetry_equiv_pos_as_xyz
1 x,y,z
2 1/2-x,-y,1/2+z
3 -x,1/2+y,1/2-z
4 1/2+x,1/2-y,-z
5 -x,-y,-z
6 1/2+x,y,1/2-z
7 x,1/2-y,1/2+z
8 1/2-x,1/2+y,z
_cell_length_a                   19.394(3)
_cell_length_b                   11.9131(19)
_cell_length_c                   19.845(3)
_cell_angle_alpha                90
_cell_angle_beta                 90
_cell_angle_gamma                90
_cell_volume                     4585.04
loop_
_atom_site_label
_atom_site_type_symbol
_atom_site_fract_x
_atom_site_fract_y
_atom_site_fract_z
Dy1 Dy -0.682689(5) 0.714028(9) 0.956701(5)
C1 C -0.56371(13) 0.6873(2) 0.83845(13)
C2 C -0.54997(12) 0.5810(2) 0.87799(12)
C3 C -0.50269(13) 0.5008(2) 0.85694(13)
H1 H -0.4742 0.5170 0.8205
C4 C -0.53706(13) 0.3860(2) 0.94134(13)
H2 H -0.5346 0.3180 0.9643
C5 C -0.58184(13) 0.4664(2) 0.96446(12)
H3 H -0.6076 0.4523 1.0031
C6 C -0.67072(12) 0.6169(2) 1.11071(13)
C7 C -0.67969(10) 0.7362(2) 1.12893(12)
C8 C -0.67807(14) 0.7795(2) 1.19371(15)
H4 H -0.6730 0.7292 1.2292
C9 C -0.69034(13) 0.9570(2) 1.15612(14)
H5 H -0.6933 1.0338 1.1639
C10 C -0.69348(12) 0.9185(2) 1.09048(13)
H6 H -0.6998 0.9696 1.0556
C11 C -0.74750(11) 0.95280(19) 0.90616(11)
C12 C -0.78576(12) 0.87887(19) 0.85736(11)
C13 C -0.83393(12) 0.9227(2) 0.81324(12)
H7 H -0.8395 1.0002 0.8110
C14 C -0.86147(14) 0.7472(2) 0.77803(13)
H8 H -0.8884 0.6985 0.7526
C15 C -0.81043(13) 0.7031(2) 0.81959(14)
H9 H -0.8026 0.6261 0.8194
N1 N -0.58921(10) 0.56465(17) 0.93267(10)
N2 N -0.49666(11) 0.40089(18) 0.88723(11)
N3 N -0.68769(10) 0.80965(18) 1.07613(11)
N4 N -0.68320(12) 0.8884(2) 1.20875(11)
N5 N -0.77228(10) 0.76842(17) 0.85979(10)
N6 N -0.87286(11) 0.85737(18) 0.77370(10)
O1 O -0.61666(9) 0.74330(15) 0.85835(8)
O2 O -0.52582(10) 0.71074(15) 0.79068(10)
O3 O -0.67530(9) 0.59378(16) 1.04879(8)
O4 O -0.66100(9) 0.54769(14) 1.15702(8)
O5 O -0.69873(9) 0.90741(14) 0.93882(9)
O6 O -0.76565(8) 1.05253(13) 0.91117(8)
O7 O -0.79825(10) 0.73078(19) 0.99706(11)
O8 O -0.57693(10) 0.79688(15) 0.99208(11)
H11 H -0.8264(17) 0.693(3) 0.9854(18)
H13 H -0.814(2) 0.766(4) 1.030(2)
H16 H -0.5430(17) 0.805(2) 0.9675(16)
H22 H -0.5646(17) 0.813(3) 1.0275(18)
Dy1G Dy -0.817311(5) 1.214028(9) 0.956701(5)
O6G O -0.73435(8) 0.55253(13) 0.91117(8)
O9 O -0.45786(10) 0.83068(17) 0.92396(11)
H17 H -0.4634(17) 0.875(3) 0.8919(18)
H18 H -0.441(2) 0.868(4) 0.953(2)
O10 O -0.84839(11) 0.8220(2) 1.11183(11)
H10 H -0.887(2) 0.798(3) 1.1125(18)
H19 H -0.8477(18) 0.883(3) 1.1230(18)
O11 O -0.61496(10) 0.95454(17) 0.79344(11)
H15 H -0.6285(16) 0.952(3) 0.7578(17)
H20 H -0.6200(16) 0.895(3) 0.8116(16)
O12 O -0.51829(10) 0.8443(2) 1.11888(10)
H14 H -0.5174(19) 0.788(3) 1.1356(18)
H25 H -0.5273(17) 0.891(3) 1.1479(18)
O13 O -0.97245(12) 0.96056(16) 0.68745(10)
H21 H -0.9456(18) 0.932(3) 0.7149(17)
H23 H -1.0087(18) 0.953(3) 0.6974(16)
O14 O -0.90163(11) 0.58316(19) 0.95763(10)
H12 H -0.9265(17) 0.596(3) 0.9326(16)
H24 H -0.880(2) 0.527(4) 0.9508(18)
loop_
_geom_bond_atom_site_label_1
_geom_bond_atom_site_label_2
_geom_bond_site_symmetry_1
_geom_bond_site_symmetry_2
Dy1 N1 1_555 1_555
C1 C2 1_555 1_555
C2 C3 1_555 1_555
C3 H1 1_555 1_555
C4 H2 1_555 1_555
C5 C4 1_555 1_555
H3 C5 1_555 1_555
C6 C7 1_555 1_555
C7 C8 1_555 1_555
C8 H4 1_555 1_555
C9 H5 1_555 1_555
C10 C9 1_555 1_555
H6 C10 1_555 1_555
C11 C12 1_555 1_555
C12 C13 1_555 1_555
C13 H7 1_555 1_555
C14 H8 1_555 1_555
C15 C14 1_555 1_555
H9 C15 1_555 1_555
N1 C2 1_555 1_555
N2 C3 1_555 1_555
N3 Dy1 1_555 1_555
N4 C8 1_555 1_555
N5 Dy1 1_555 1_555
N6 C13 1_555 1_555
O1 Dy1 1_555 1_555
O2 C1 1_555 1_555
O3 Dy1 1_555 1_555
O4 C6 1_555 1_555
O5 Dy1 1_555 1_555
O6 C11 1_555 1_555
O7 Dy1 1_555 1_555
O8 Dy1 1_555 1_555
O9 H17 1_555 1_555
O10 H10 1_555 1_555
O11 H15 1_555 1_555
O12 H14 1_555 1_555
O13 H21 1_555 1_555
O14 H12 1_555 1_555
H11 O7 1_555 1_555
H13 O7 1_555 1_555
H16 O8 1_555 1_555
H18 O9 1_555 1_555
H19 O10 1_555 1_555
H20 O11 1_555 1_555
H22 O8 1_555 1_555
H23 O13 1_555 1_555
H24 O14 1_555 1_555
H25 O12 1_555 1_555
Dy1G O6 1_555 1_555
O6G Dy1 1_555 1_555
C1 O1 1_555 1_555
C4 N2 1_555 1_555
C5 N1 1_555 1_555
C6 O3 1_555 1_555
C7 N3 1_555 1_555
C9 N4 1_555 1_555
C10 N3 1_555 1_555
C11 O5 1_555 1_555
C12 N5 1_555 1_555
C14 N6 1_555 1_555
C15 N5 1_555 1_555

#END
