
#######################################################################
#
#                 Cambridge Crystallographic Data Centre
#                                CCDC 
#
#######################################################################
#
# If this CIF has been generated from an entry in the Cambridge 
# Structural Database, then it will include bibliographic, chemical, 
# crystal, experimental, refinement or atomic coordinate data resulting 
# from the CCDC's data processing and validation procedures.
#
#######################################################################

data_OMOYEV
_symmetry_cell_setting           monoclinic
_symmetry_space_group_name_H-M   'P 21/c'
_symmetry_Int_Tables_number      14
_space_group_name_Hall           '-P 2ybc'
loop_
_symmetry_equiv_pos_site_id
_symmetry_equiv_pos_as_xyz
1 x,y,z
2 -x,1/2+y,1/2-z
3 -x,-y,-z
4 x,1/2-y,1/2+z
_cell_length_a                   9.3163(3)
_cell_length_b                   19.6622(7)
_cell_length_c                   18.7964(7)
_cell_angle_alpha                90
_cell_angle_beta                 111.337(3)
_cell_angle_gamma                90
_cell_volume                     3207.1
loop_
_atom_site_label
_atom_site_type_symbol
_atom_site_fract_x
_atom_site_fract_y
_atom_site_fract_z
C1 C 0.4553(4) 0.51473(18) 0.24420(19)
Ni1 Ni 0.33356(4) 0.21751(2) 0.39513(2)
O1 O 0.4134(2) 0.21717(11) 0.51857(10)
N1 N 0.5122(2) 0.26137(12) 0.36825(13)
N2 N 0.5694(2) 0.61929(12) 0.11329(13)
N3 N 0.1461(2) 0.18821(12) 0.41909(14)
O2 O 0.3276(3) 0.21854(15) 0.61441(12)
C2 C 0.1534(3) 0.18980(15) 0.49070(17)
C3 C 0.0140(3) 0.17478(15) 0.36164(18)
N4 N 0.2570(3) 0.42497(13) 0.45009(15)
C4 C 0.0660(4) 0.4804(2) 0.2497(2)
H1 H 0.0216 0.5169 0.2178
O3 O 0.1587(2) 0.19727(10) 0.28436(11)
N5 N 0.6379(3) 0.31052(13) 0.30166(14)
N6 N 0.4774(3) 0.54708(13) 0.17775(14)
C5 C 0.3118(3) 0.20969(17) 0.54723(17)
C6 C 0.1896(3) 0.43377(16) 0.37169(19)
C7 C 0.6452(3) 0.29277(15) 0.41894(16)
C8 C 0.0272(4) 0.17909(16) 0.28370(18)
C9 C 0.3939(3) 0.58096(15) -0.01767(16)
H2 H 0.4316 0.6105 -0.0454
C10 C 0.4533(3) 0.57965(15) 0.06149(16)
C11 C 0.7241(3) 0.32357(16) 0.37783(17)
C12 C 0.3957(3) 0.53465(15) 0.10115(16)
C13 C 0.2988(3) 0.35903(17) 0.46169(19)
H3 H 0.3501 0.3408 0.5100
N7 N 0.2609(2) 0.32316(12) 0.39921(14)
C14 C 0.6611(4) 0.34190(18) 0.23621(19)
H4 H 0.6093 0.3149 0.1909
H5 H 0.7703 0.3422 0.2449
C15 C 0.1915(3) 0.36977(15) 0.34091(18)
C16 C 0.1311(3) 0.36048(17) 0.26218(19)
H6 H 0.1327 0.3182 0.2403
C17 C 0.5147(3) 0.27406(16) 0.30003(17)
H7 H 0.4387 0.2593 0.2551
C18 C 0.5769(3) 0.59738(16) 0.18035(18)
H8 H 0.6453 0.6151 0.2259
C19 C 0.2181(3) 0.49147(18) -0.01298(19)
H9 H 0.1376 0.4624 -0.0396
C20 C 0.5212(3) 0.44423(17) 0.25768(18)
H10 H 0.5029 0.4194 0.2956
O4 O -0.0869(2) 0.16567(15) 0.22698(14)
C21 C 0.6007(3) 0.41337(18) 0.22288(18)
H11 H 0.6224 0.4383 0.1859
C22 C -0.1100(4) 0.16158(18) 0.4509(2)
H12 H -0.1975 0.1519 0.4619
C23 C 0.0253(4) 0.17701(17) 0.5086(2)
H13 H 0.0308 0.1788 0.5590
C24 C 0.7016(3) 0.29601(16) 0.49838(17)
H14 H 0.6494 0.2760 0.5268
C25 C -0.1171(4) 0.16034(17) 0.3765(2)
H15 H -0.2089 0.1499 0.3368
C26 C 0.8608(3) 0.35890(17) 0.4122(2)
H16 H 0.9121 0.3799 0.3840
C27 C 0.9151(4) 0.36098(19) 0.4901(2)
H17 H 1.0070 0.3838 0.5157
C28 C 0.2766(3) 0.48930(17) 0.06498(19)
H18 H 0.2391 0.4593 0.0923
C29 C 0.8380(3) 0.33017(18) 0.5328(2)
H19 H 0.8799 0.3328 0.5859
C30 C 0.1275(3) 0.49037(18) 0.3274(2)
H20 H 0.1273 0.5329 0.3490
C31 C 0.2753(3) 0.53571(17) -0.05326(18)
H21 H 0.2326 0.5351 -0.1063
C32 C 0.4535(3) 0.51024(17) 0.51646(19)
H22 H 0.4838 0.5480 0.5483
C33 C 0.3020(4) 0.47859(17) 0.5078(2)
H23 H 0.3083 0.4597 0.5565
H24 H 0.2232 0.5135 0.4938
C34 C 0.0686(4) 0.4170(2) 0.2177(2)
H25 H 0.0272 0.4123 0.1649
C1B C 0.5447(4) 0.48527(18) 0.75580(19)
Ni1B Ni 0.66644(4) 0.78249(2) 0.60487(2)
Ni1A Ni 0.66644(4) 0.71751(2) 0.10487(2)
Ni1C Ni 0.33356(4) 0.28249(2) 0.89513(2)
O1B O 0.5866(2) 0.78283(11) 0.48143(10)
N1B N 0.4878(2) 0.73863(12) 0.63175(13)
N2B N 0.4306(2) 0.38071(12) 0.88671(13)
N2A N 0.4306(2) 0.11929(12) 0.38671(13)
N2C N 0.5694(2) 0.88071(12) 0.61329(13)
N3B N 0.8539(2) 0.81179(12) 0.58091(14)
O2B O 0.6724(3) 0.78146(15) 0.38559(12)
C2B C 0.8466(3) 0.81020(15) 0.50930(17)
C3B C 0.9860(3) 0.82522(15) 0.63836(18)
N4B N 0.7430(3) 0.57503(13) 0.54991(15)
C4B C 0.9340(4) 0.5196(2) 0.7503(2)
H1B H 0.9784 0.4831 0.7822
O3B O 0.8413(2) 0.80273(10) 0.71564(11)
N5B N 0.3621(3) 0.68948(13) 0.69834(14)
N6B N 0.5226(3) 0.45292(13) 0.82225(14)
C5B C 0.6882(3) 0.79031(17) 0.45277(17)
C6B C 0.8104(3) 0.56623(16) 0.62831(19)
C7B C 0.3548(3) 0.70723(15) 0.58106(16)
C8B C 0.9728(4) 0.82091(16) 0.71630(18)
C9B C 0.6061(3) 0.41904(15) 1.01767(16)
H2B H 0.5684 0.3895 1.0454
C10B C 0.5467(3) 0.42035(15) 0.93851(16)
C11B C 0.2759(3) 0.67643(16) 0.62217(17)
C12B C 0.6043(3) 0.46535(15) 0.89885(16)
C13B C 0.7012(3) 0.64097(17) 0.53831(19)
H3B H 0.6499 0.6592 0.4900
N7B N 0.7391(2) 0.67684(12) 0.60079(14)
C14B C 0.3389(4) 0.65810(18) 0.76379(19)
H4B H 0.3907 0.6851 0.8091
H5B H 0.2297 0.6578 0.7551
C15B C 0.8085(3) 0.63023(15) 0.65909(18)
C16B C 0.8689(3) 0.63952(17) 0.73782(19)
H6B H 0.8673 0.6818 0.7597
C17B C 0.4853(3) 0.72594(16) 0.69997(17)
H7B H 0.5613 0.7407 0.7449
C18B C 0.4231(3) 0.40262(16) 0.81965(18)
H8B H 0.3547 0.3849 0.7741
C19B C 0.7819(3) 0.50853(18) 1.01298(19)
H9B H 0.8624 0.5376 1.0396
C20B C 0.4788(3) 0.55577(17) 0.74232(18)
H10B H 0.4971 0.5806 0.7044
O4B O 1.0869(2) 0.83433(15) 0.77302(14)
C21B C 0.3993(3) 0.58663(18) 0.77712(18)
H11B H 0.3776 0.5617 0.8141
C22B C 1.1100(4) 0.83842(18) 0.5491(2)
H12B H 1.1975 0.8481 0.5381
C23B C 0.9747(4) 0.82299(17) 0.4914(2)
H13B H 0.9692 0.8212 0.4410
C24B C 0.2984(3) 0.70399(16) 0.50162(17)
H14B H 0.3506 0.7240 0.4732
C25B C 1.1171(4) 0.83966(17) 0.6235(2)
H15B H 1.2089 0.8501 0.6632
C26B C 0.1392(3) 0.64110(17) 0.5878(2)
H16B H 0.0879 0.6201 0.6160
C27B C 0.0849(4) 0.63902(19) 0.5099(2)
H17B H -0.0070 0.6162 0.4843
C28B C 0.7234(3) 0.51070(17) 0.93502(19)
H18B H 0.7609 0.5407 0.9077
C29B C 0.1620(3) 0.66983(18) 0.4672(2)
H19B H 0.1201 0.6672 0.4141
C30B C 0.8725(3) 0.50963(18) 0.6726(2)
H20B H 0.8727 0.4671 0.6510
C31B C 0.7247(3) 0.46429(17) 1.05326(18)
H21B H 0.7674 0.4649 1.1063
C32B C 0.5465(3) 0.48976(17) 0.48354(19)
H22B H 0.5162 0.4520 0.4517
C33B C 0.6980(4) 0.52141(17) 0.4922(2)
H23B H 0.6917 0.5403 0.4435
H24B H 0.7768 0.4865 0.5062
C34B C 0.9314(4) 0.5830(2) 0.7823(2)
H25B H 0.9728 0.5877 0.8351
O5 O 0.2184(3) 0.1520(2) 0.14935(17)
H26 H 0.2028 0.1783 0.1821
H27 H 0.1926 0.1825 0.1148
O6 O 0.5797(3) 0.15771(17) 0.16490(19)
H28 H 0.6774 0.1598 0.1842
H29 H 0.5565 0.1974 0.1464
loop_
_geom_bond_atom_site_label_1
_geom_bond_atom_site_label_2
_geom_bond_site_symmetry_1
_geom_bond_site_symmetry_2
C1 N6 1_555 1_555
Ni1 O1 1_555 1_555
O1 C5 1_555 1_555
N1 Ni1 1_555 1_555
N2 C10 1_555 1_555
N3 Ni1 1_555 1_555
O2 C5 1_555 1_555
C2 N3 1_555 1_555
C3 N3 1_555 1_555
N4 C6 1_555 1_555
C4 H1 1_555 1_555
O3 Ni1 1_555 1_555
N5 C11 1_555 1_555
N6 C12 1_555 1_555
C5 C2 1_555 1_555
C6 C15 1_555 1_555
C7 N1 1_555 1_555
C8 C3 1_555 1_555
C9 H2 1_555 1_555
C10 C9 1_555 1_555
C11 C7 1_555 1_555
C12 C10 1_555 1_555
C13 N4 1_555 1_555
H3 C13 1_555 1_555
N7 Ni1 1_555 1_555
C14 N5 1_555 1_555
H4 C14 1_555 1_555
H5 C14 1_555 1_555
C15 N7 1_555 1_555
C16 C15 1_555 1_555
H6 C16 1_555 1_555
C17 N1 1_555 1_555
H7 C17 1_555 1_555
C18 N2 1_555 1_555
H8 C18 1_555 1_555
C19 H9 1_555 1_555
C20 C1 1_555 1_555
H10 C20 1_555 1_555
O4 C8 1_555 1_555
C21 C14 1_555 1_555
H11 C21 1_555 1_555
C22 H12 1_555 1_555
C23 C2 1_555 1_555
H13 C23 1_555 1_555
C24 C7 1_555 1_555
H14 C24 1_555 1_555
C25 C3 1_555 1_555
H15 C25 1_555 1_555
C26 C11 1_555 1_555
H16 C26 1_555 1_555
C27 C26 1_555 1_555
H17 C27 1_555 1_555
C28 C12 1_555 1_555
H18 C28 1_555 1_555
C29 C24 1_555 1_555
H19 C29 1_555 1_555
C30 C4 1_555 1_555
H20 C30 1_555 1_555
C31 C9 1_555 1_555
H21 C31 1_555 1_555
C32 H22 1_555 1_555
C33 N4 1_555 1_555
H23 C33 1_555 1_555
H24 C33 1_555 1_555
C34 C4 1_555 1_555
H25 C34 1_555 1_555
O5 H26 1_555 1_555
O6 H28 1_555 1_555
H27 O5 1_555 1_555
H29 O6 1_555 1_555
C1B N6B 1_555 1_555
Ni1B O1B 1_555 1_555
Ni1A N2 1_555 1_555
Ni1C N2B 1_555 1_555
O1B C5B 1_555 1_555
N1B Ni1B 1_555 1_555
N2B C10B 1_555 1_555
N2A Ni1 1_555 1_555
N2C Ni1B 1_555 1_555
N3B Ni1B 1_555 1_555
O2B C5B 1_555 1_555
C2B N3B 1_555 1_555
C3B N3B 1_555 1_555
N4B C6B 1_555 1_555
C4B H1B 1_555 1_555
O3B Ni1B 1_555 1_555
N5B C11B 1_555 1_555
N6B C12B 1_555 1_555
C5B C2B 1_555 1_555
C6B C15B 1_555 1_555
C7B N1B 1_555 1_555
C8B C3B 1_555 1_555
C9B H2B 1_555 1_555
C10B C9B 1_555 1_555
C11B C7B 1_555 1_555
C12B C10B 1_555 1_555
C13B N4B 1_555 1_555
H3B C13B 1_555 1_555
N7B Ni1B 1_555 1_555
C14B N5B 1_555 1_555
H4B C14B 1_555 1_555
H5B C14B 1_555 1_555
C15B N7B 1_555 1_555
C16B C15B 1_555 1_555
H6B C16B 1_555 1_555
C17B N1B 1_555 1_555
H7B C17B 1_555 1_555
C18B N2B 1_555 1_555
H8B C18B 1_555 1_555
C19B H9B 1_555 1_555
C20B C1B 1_555 1_555
H10B C20B 1_555 1_555
O4B C8B 1_555 1_555
C21B C14B 1_555 1_555
H11B C21B 1_555 1_555
C22B H12B 1_555 1_555
C23B C2B 1_555 1_555
H13B C23B 1_555 1_555
C24B C7B 1_555 1_555
H14B C24B 1_555 1_555
C25B C3B 1_555 1_555
H15B C25B 1_555 1_555
C26B C11B 1_555 1_555
H16B C26B 1_555 1_555
C27B C26B 1_555 1_555
H17B C27B 1_555 1_555
C28B C12B 1_555 1_555
H18B C28B 1_555 1_555
C29B C24B 1_555 1_555
H19B C29B 1_555 1_555
C30B C4B 1_555 1_555
H20B C30B 1_555 1_555
C31B C9B 1_555 1_555
H21B C31B 1_555 1_555
C32B C32 1_555 1_555
H22B C32B 1_555 1_555
C33B N4B 1_555 1_555
H23B C33B 1_555 1_555
H24B C33B 1_555 1_555
C34B C4B 1_555 1_555
H25B C34B 1_555 1_555
O3 C8 1_555 1_555
N5 C17 1_555 1_555
N6 C18 1_555 1_555
C6 C30 1_555 1_555
C13 N7 1_555 1_555
C16 C34 1_555 1_555
C19 C28 1_555 1_555
C19 C31 1_555 1_555
C20 C21 1_555 1_555
C22 C23 1_555 1_555
C22 C25 1_555 1_555
C27 C29 1_555 1_555
C32 C33 1_555 1_555
O3B C8B 1_555 1_555
N5B C17B 1_555 1_555
N6B C18B 1_555 1_555
C6B C30B 1_555 1_555
C13B N7B 1_555 1_555
C16B C34B 1_555 1_555
C19B C28B 1_555 1_555
C19B C31B 1_555 1_555
C20B C21B 1_555 1_555
C22B C23B 1_555 1_555
C22B C25B 1_555 1_555
C27B C29B 1_555 1_555
C32B C33B 1_555 1_555

#END
