
#######################################################################
#
#                 Cambridge Crystallographic Data Centre
#                                CCDC 
#
#######################################################################
#
# If this CIF has been generated from an entry in the Cambridge 
# Structural Database, then it will include bibliographic, chemical, 
# crystal, experimental, refinement or atomic coordinate data resulting 
# from the CCDC's data processing and validation procedures.
#
#######################################################################

data_OMUHOU
_symmetry_cell_setting           orthorhombic
_symmetry_space_group_name_H-M   'P 21 21 21'
_symmetry_Int_Tables_number      19
_space_group_name_Hall           'P 2ac 2ab'
loop_
_symmetry_equiv_pos_site_id
_symmetry_equiv_pos_as_xyz
1 x,y,z
2 1/2-x,-y,1/2+z
3 1/2+x,1/2-y,-z
4 -x,1/2+y,1/2-z
_cell_length_a                   6.2347(4)
_cell_length_b                   11.4209(7)
_cell_length_c                   24.0805(15)
_cell_angle_alpha                90
_cell_angle_beta                 90
_cell_angle_gamma                90
_cell_volume                     1714.67
loop_
_atom_site_label
_atom_site_type_symbol
_atom_site_fract_x
_atom_site_fract_y
_atom_site_fract_z
C1 C 0.0357(6) -0.0979(3) -0.40737(14)
C2 C -0.1298(6) -0.1768(3) -0.41367(16)
H1 H -0.2730 -0.1533 -0.4061
C3 C -0.0883(6) -0.2898(3) -0.43094(16)
H2 H -0.2036 -0.3429 -0.4364
C4 C 0.1220(6) -0.3264(3) -0.44039(16)
C5 C 0.2865(6) -0.2470(3) -0.43374(14)
H3 H 0.4299 -0.2710 -0.4408
C6 C 0.2470(5) -0.1337(4) -0.41712(14)
H4 H 0.3622 -0.0802 -0.4123
C7 C 0.1728(6) -0.4456(3) -0.46062(15)
C8 C 0.6506(6) -0.6765(3) -0.38048(15)
H5 H 0.8027 -0.6941 -0.3888
H6 H 0.6163 -0.6007 -0.3984
C9 C 0.6290(5) -0.6609(3) -0.31805(15)
C10 C 0.7880(6) -0.7310(3) -0.28406(15)
C11 C 0.8001(6) -0.6716(3) -0.22734(15)
H7 H 0.9475 -0.6445 -0.2191
H8 H 0.7517 -0.7248 -0.1974
C12 C 0.6452(6) -0.5677(3) -0.23457(16)
H9 H 0.6683 -0.5020 -0.2078
C13 C 0.4170(6) -0.6185(3) -0.23452(16)
H10 H 0.3081 -0.5555 -0.2334
H11 H 0.3948 -0.6715 -0.2025
C14 C 0.4073(6) -0.6871(3) -0.29066(16)
H12 H 0.3887 -0.7721 -0.2841
H13 H 0.2881 -0.6586 -0.3142
C15 C 0.5200(7) -0.4429(3) -0.31788(14)
H14 H 0.3731 -0.4678 -0.3094
H15 H 0.5367 -0.4346 -0.3582
H16 H 0.5488 -0.3676 -0.2999
C16 C 0.6776(6) -0.5345(3) -0.29643(16)
C17 C 0.9041(6) -0.4929(3) -0.31072(15)
H17 H 1.0089 -0.5502 -0.2973
H18 H 0.9309 -0.4171 -0.2930
H19 H 0.9179 -0.4847 -0.3511
N1 N -0.0051(6) 0.0209(2) -0.39361(11)
H20 H 0.1016 0.0476 -0.3704
H21 H -0.1331 0.0258 -0.3747
O1 O 0.0018(4) -0.5110(2) -0.47062(11)
O2 O 0.3563(4) -0.4803(2) -0.46719(12)
O3 O 0.5770(4) -0.79101(19) -0.46994(11)
O4 O 0.5228(4) -0.89644(19) -0.38328(9)
O5 O 0.2697(4) -0.7466(2) -0.41208(10)
O6 O 0.8900(4) -0.8153(2) -0.29871(11)
Ag1 Ag 0.47944(4) -0.63910(2) -0.528710(12)
S1 S 0.48981(17) -0.78660(7) -0.41201(3)
H22 H 0.038(6) -0.573(3) -0.4825(15)
N1B N 0.4949(6) -0.5209(2) -0.60639(11)
H20B H 0.6016 -0.5476 -0.6296
H21B H 0.3669 -0.5258 -0.6253
O3B O 0.0770(4) -0.70899(19) -0.53006(11)
O5B O 0.7697(4) -0.7534(2) -0.58792(10)
Ag1B Ag 0.97944(4) -0.86090(2) -0.471290(12)
Ag1B_2 Ag -0.02056(4) -0.86090(2) -0.471290(12)
Ag1B_3 Ag -0.02056(4) 0.13910(2) -0.471290(12)
loop_
_geom_bond_atom_site_label_1
_geom_bond_atom_site_label_2
_geom_bond_site_symmetry_1
_geom_bond_site_symmetry_2
C1 C2 1_555 1_555
C2 H1 1_555 1_555
C3 C2 1_555 1_555
H2 C3 1_555 1_555
C4 C3 1_555 1_555
C5 C4 1_555 1_555
H3 C5 1_555 1_555
C6 C1 1_555 1_555
H4 C6 1_555 1_555
C7 C4 1_555 1_555
C8 H5 1_555 1_555
H6 C8 1_555 1_555
C9 C8 1_555 1_555
C10 C9 1_555 1_555
C11 C10 1_555 1_555
H7 C11 1_555 1_555
H8 C11 1_555 1_555
C12 C11 1_555 1_555
H9 C12 1_555 1_555
C13 C12 1_555 1_555
H10 C13 1_555 1_555
H11 C13 1_555 1_555
C14 C9 1_555 1_555
H12 C14 1_555 1_555
H13 C14 1_555 1_555
C15 H14 1_555 1_555
H15 C15 1_555 1_555
H16 C15 1_555 1_555
C16 C9 1_555 1_555
C17 C16 1_555 1_555
H17 C17 1_555 1_555
H18 C17 1_555 1_555
H19 C17 1_555 1_555
N1 C1 1_555 1_555
H20 N1 1_555 1_555
H21 N1 1_555 1_555
O1 C7 1_555 1_555
O2 C7 1_555 1_555
O3 Ag1 1_555 1_555
O4 S1 1_555 1_555
O5 S1 1_555 1_555
O6 C10 1_555 1_555
Ag1 O2 1_555 1_555
S1 C8 1_555 1_555
H22 O1 1_555 1_555
N1B Ag1 1_555 1_555
H20B N1B 1_555 1_555
H21B N1B 1_555 1_555
O3B Ag1 1_555 1_555
O5B Ag1 1_555 1_555
Ag1B O3 1_555 1_555
Ag1B_2 O5 1_555 1_555
Ag1B_3 N1 1_555 1_555
C5 C6 1_555 1_555
C12 C16 1_555 1_555
C13 C14 1_555 1_555
C15 C16 1_555 1_555
O3 S1 1_555 1_555
O3B Ag1B_2 1_555 1_555

#END
