
#######################################################################
#
#                 Cambridge Crystallographic Data Centre
#                                CCDC 
#
#######################################################################
#
# If this CIF has been generated from an entry in the Cambridge 
# Structural Database, then it will include bibliographic, chemical, 
# crystal, experimental, refinement or atomic coordinate data resulting 
# from the CCDC's data processing and validation procedures.
#
#######################################################################

data_OMUHEK
_symmetry_cell_setting           orthorhombic
_symmetry_space_group_name_H-M   'P 21 21 21'
_symmetry_Int_Tables_number      19
_space_group_name_Hall           'P 2ac 2ab'
loop_
_symmetry_equiv_pos_site_id
_symmetry_equiv_pos_as_xyz
1 x,y,z
2 1/2-x,-y,1/2+z
3 1/2+x,1/2-y,-z
4 -x,1/2+y,1/2-z
_cell_length_a                   6.2517(2)
_cell_length_b                   11.4326(4)
_cell_length_c                   24.1372(9)
_cell_angle_alpha                90
_cell_angle_beta                 90
_cell_angle_gamma                90
_cell_volume                     1725.16
loop_
_atom_site_label
_atom_site_type_symbol
_atom_site_fract_x
_atom_site_fract_y
_atom_site_fract_z
C1 C -0.4628(4) -0.0977(2) -0.09275(10)
C2 C -0.6289(4) -0.1770(2) -0.08573(12)
H1 H -0.7720 -0.1531 -0.0926
C3 C -0.2520(4) -0.1337(2) -0.08302(11)
H2 H -0.1370 -0.0802 -0.0876
C4 C -0.2127(4) -0.2472(2) -0.06676(10)
H3 H -0.0694 -0.2717 -0.0605
C5 C -0.3777(4) -0.3263(2) -0.05930(10)
C6 C -0.5879(4) -0.2907(2) -0.06877(11)
H4 H -0.7026 -0.3442 -0.0636
C7 C -0.3262(4) -0.4458(2) -0.03980(10)
C8 C -0.0918(4) -0.6875(2) -0.20954(11)
H5 H -0.1110 -0.7724 -0.2160
H6 H -0.2109 -0.6585 -0.1863
C9 C 0.1301(4) -0.6615(2) -0.18188(10)
C10 C 0.2891(4) -0.7321(2) -0.21589(10)
C11 C 0.3019(5) -0.6725(2) -0.27231(11)
H7 H 0.2545 -0.7256 -0.3023
H8 H 0.4490 -0.6452 -0.2803
C12 C 0.1469(4) -0.5690(2) -0.26530(11)
H9 H 0.1699 -0.5033 -0.2920
C13 C -0.0797(4) -0.6195(2) -0.26533(11)
H10 H -0.1015 -0.6727 -0.2972
H11 H -0.1882 -0.5565 -0.2667
C14 C 0.1784(4) -0.5354(2) -0.20325(11)
C15 C 0.0211(5) -0.4437(2) -0.18235(10)
H12 H 0.0499 -0.4272 -0.1432
H13 H -0.1253 -0.4732 -0.1864
H14 H 0.0375 -0.3718 -0.2040
C16 C 0.4062(4) -0.4946(3) -0.18915(12)
H15 H 0.5096 -0.5525 -0.2024
H16 H 0.4203 -0.4859 -0.1489
H17 H 0.4339 -0.4192 -0.2071
C17 C 0.1525(4) -0.6773(2) -0.11948(10)
H18 H 0.1196 -0.6015 -0.1015
H19 H 0.3041 -0.6956 -0.1113
N1 N -0.5033(4) 0.02058(17) -0.10612(8)
H20 H -0.6310 0.0255 -0.1249
H21 H -0.3971 0.0473 -0.1292
O1 O -0.4974(3) -0.51096(17) -0.02931(8)
O2 O -0.1441(3) -0.48021(15) -0.03306(9)
O3 O 0.0780(3) -0.79117(14) -0.03013(7)
O4 O 0.0247(3) -0.89666(15) -0.11639(7)
O5 O -0.2285(3) -0.74666(18) -0.08811(8)
O6 O 0.3908(3) -0.81607(18) -0.20084(8)
Ag1 Ag -0.01888(3) -0.638940(16) 0.028540(8)
S1 S -0.00928(11) -0.78683(5) -0.08794(2)
H22 H -0.455(5) -0.568(3) -0.0165(12)
N1B N -0.0033(4) -0.52058(17) 0.10612(8)
H20B H -0.1310 -0.5255 0.1249
H21B H 0.1029 -0.5473 0.1292
O3B O -0.4220(3) -0.70883(14) 0.03013(7)
O5B O 0.2715(3) -0.75334(18) 0.08811(8)
Ag1B Ag 0.48112(3) -0.861060(16) -0.028540(8)
Ag1B_2 Ag -0.51888(3) -0.861060(16) -0.028540(8)
Ag1B_3 Ag -0.51888(3) 0.138940(16) -0.028540(8)
loop_
_geom_bond_atom_site_label_1
_geom_bond_atom_site_label_2
_geom_bond_site_symmetry_1
_geom_bond_site_symmetry_2
C1 C2 1_555 1_555
C2 H1 1_555 1_555
C3 C1 1_555 1_555
H2 C3 1_555 1_555
C4 C3 1_555 1_555
H3 C4 1_555 1_555
C5 C4 1_555 1_555
C6 C2 1_555 1_555
H4 C6 1_555 1_555
C7 C5 1_555 1_555
C8 H5 1_555 1_555
H6 C8 1_555 1_555
C9 C8 1_555 1_555
C10 C9 1_555 1_555
C11 C10 1_555 1_555
H7 C11 1_555 1_555
H8 C11 1_555 1_555
C12 C11 1_555 1_555
H9 C12 1_555 1_555
C13 C8 1_555 1_555
H10 C13 1_555 1_555
H11 C13 1_555 1_555
C14 C9 1_555 1_555
C15 C14 1_555 1_555
H12 C15 1_555 1_555
H13 C15 1_555 1_555
H14 C15 1_555 1_555
C16 C14 1_555 1_555
H15 C16 1_555 1_555
H16 C16 1_555 1_555
H17 C16 1_555 1_555
C17 C9 1_555 1_555
H18 C17 1_555 1_555
H19 C17 1_555 1_555
N1 C1 1_555 1_555
H20 N1 1_555 1_555
H21 N1 1_555 1_555
O1 C7 1_555 1_555
O2 C7 1_555 1_555
O3 Ag1 1_555 1_555
O4 S1 1_555 1_555
O5 S1 1_555 1_555
O6 C10 1_555 1_555
Ag1 O2 1_555 1_555
S1 C17 1_555 1_555
H22 O1 1_555 1_555
N1B Ag1 1_555 1_555
H20B N1B 1_555 1_555
H21B N1B 1_555 1_555
O3B Ag1 1_555 1_555
O5B Ag1 1_555 1_555
Ag1B O3 1_555 1_555
Ag1B_2 O5 1_555 1_555
Ag1B_3 N1 1_555 1_555
C5 C6 1_555 1_555
C12 C13 1_555 1_555
C12 C14 1_555 1_555
O3 S1 1_555 1_555
O3B Ag1B_2 1_555 1_555

#END
