
#######################################################################
#
#                 Cambridge Crystallographic Data Centre
#                                CCDC 
#
#######################################################################
#
# If this CIF has been generated from an entry in the Cambridge 
# Structural Database, then it will include bibliographic, chemical, 
# crystal, experimental, refinement or atomic coordinate data resulting 
# from the CCDC's data processing and validation procedures.
#
#######################################################################

data_OMUHIO
_symmetry_cell_setting           monoclinic
_symmetry_space_group_name_H-M   'P 21/n'
_symmetry_Int_Tables_number      14
_space_group_name_Hall           '-P 2yn'
loop_
_symmetry_equiv_pos_site_id
_symmetry_equiv_pos_as_xyz
1 x,y,z
2 1/2-x,1/2+y,1/2-z
3 -x,-y,-z
4 1/2+x,1/2-y,1/2+z
_cell_length_a                   15.1059(7)
_cell_length_b                   6.1847(3)
_cell_length_c                   18.7605(9)
_cell_angle_alpha                90
_cell_angle_beta                 97.0990(10)
_cell_angle_gamma                90
_cell_volume                     1739.27
loop_
_atom_site_label
_atom_site_type_symbol
_atom_site_fract_x
_atom_site_fract_y
_atom_site_fract_z
C1 C 0.18845(18) -0.7370(5) 0.00823(15)
C2 C 0.17170(19) -0.5263(5) -0.01500(15)
H1 H 0.2132 -0.4149 -0.0002
C3 C 0.09422(19) -0.4788(5) -0.05982(15)
H2 H 0.0824 -0.3338 -0.0747
C4 C 0.03368(19) -0.6403(5) -0.08323(15)
C5 C 0.05283(19) -0.8535(5) -0.06162(16)
H3 H 0.0131 -0.9668 -0.0783
C6 C 0.12960(19) -0.8990(5) -0.01598(16)
H4 H 0.1420 -1.0438 -0.0011
C7 C -0.05095(19) -0.5795(5) -0.12635(15)
C8 C 0.01954(19) 0.0683(5) -0.40061(15)
C9 C 0.01652(18) -0.0964(4) -0.34084(15)
C10 C 0.0365(2) -0.3151(5) -0.37749(17)
H5 H 0.0238 -0.4396 -0.3472
H6 H 0.0005 -0.3292 -0.4251
C11 C 0.1375(2) -0.3014(5) -0.38516(17)
H7 H 0.1717 -0.4128 -0.3555
H8 H 0.1481 -0.3190 -0.4359
C12 C 0.16266(19) -0.0725(5) -0.35763(16)
H9 H 0.2282 -0.0483 -0.3449
C13 C 0.11711(19) 0.0863(5) -0.41330(16)
H10 H 0.1399 0.2352 -0.4045
H11 H 0.1255 0.0425 -0.4628
C14 C 0.10702(18) -0.0479(5) -0.29373(15)
C15 C 0.1301(2) -0.2095(5) -0.23252(17)
H12 H 0.1292 -0.3565 -0.2521
H13 H 0.0862 -0.1979 -0.1984
H14 H 0.1897 -0.1776 -0.2079
C16 C 0.1094(2) 0.1782(5) -0.26029(17)
H15 H 0.0949 0.2862 -0.2982
H16 H 0.1692 0.2067 -0.2354
H17 H 0.0657 0.1864 -0.2259
C17 C -0.06618(18) -0.0809(5) -0.30216(15)
H18 H -0.0881 0.0699 -0.3064
H19 H -0.0478 -0.1093 -0.2505
N1 N 0.26315(16) -0.7829(4) 0.06025(13)
H20 H 0.2821 -0.9223 0.0542
H21 H 0.3093 -0.6910 0.0536
O1 O -0.07246(13) -0.3931(3) -0.14044(11)
O2 O -0.10222(15) -0.7499(3) -0.14695(13)
O3 O -0.13343(13) -0.4708(3) -0.30692(11)
O4 O -0.17849(14) -0.2341(3) -0.40834(11)
O5 O -0.23000(13) -0.1632(3) -0.29318(10)
O6 O -0.04258(14) 0.1663(3) -0.43211(11)
Ag1 Ag -0.226870(15) -0.25758(4) -0.174040(12)
S1 S -0.15682(5) -0.25428(11) -0.33128(4)
H22 H -0.150(2) -0.709(5) -0.1649(19)
N1B N -0.26315(16) -0.2171(4) -0.06025(13)
H20B H -0.2821 -0.0777 -0.0542
H21B H -0.3093 -0.3090 -0.0536
O3A O -0.36657(13) 0.0292(3) -0.19308(11)
O5A O -0.27000(13) -0.6632(3) -0.20682(10)
Ag1A Ag -0.273130(15) -0.75758(4) -0.325960(12)
Ag1A_2 Ag -0.273130(15) 0.24242(4) -0.325960(12)
Ag1B Ag 0.226870(15) -0.74242(4) 0.174040(12)
loop_
_geom_bond_atom_site_label_1
_geom_bond_atom_site_label_2
_geom_bond_site_symmetry_1
_geom_bond_site_symmetry_2
C1 C2 1_555 1_555
C2 H1 1_555 1_555
C3 C2 1_555 1_555
H2 C3 1_555 1_555
C4 C3 1_555 1_555
C5 C4 1_555 1_555
H3 C5 1_555 1_555
C6 C1 1_555 1_555
H4 C6 1_555 1_555
C7 C4 1_555 1_555
C8 C9 1_555 1_555
C9 C10 1_555 1_555
C10 H5 1_555 1_555
H6 C10 1_555 1_555
C11 C10 1_555 1_555
H7 C11 1_555 1_555
H8 C11 1_555 1_555
C12 C11 1_555 1_555
H9 C12 1_555 1_555
C13 C8 1_555 1_555
H10 C13 1_555 1_555
H11 C13 1_555 1_555
C14 C9 1_555 1_555
C15 C14 1_555 1_555
H12 C15 1_555 1_555
H13 C15 1_555 1_555
H14 C15 1_555 1_555
C16 C14 1_555 1_555
H15 C16 1_555 1_555
H16 C16 1_555 1_555
H17 C16 1_555 1_555
C17 C9 1_555 1_555
H18 C17 1_555 1_555
H19 C17 1_555 1_555
N1 C1 1_555 1_555
H20 N1 1_555 1_555
H21 N1 1_555 1_555
O1 C7 1_555 1_555
O2 C7 1_555 1_555
O3 S1 1_555 1_555
O4 S1 1_555 1_555
O5 Ag1 1_555 1_555
O6 C8 1_555 1_555
Ag1 O1 1_555 1_555
S1 C17 1_555 1_555
H22 O2 1_555 1_555
N1B Ag1 1_555 1_555
H20B N1B 1_555 1_555
H21B N1B 1_555 1_555
O3A Ag1 1_555 1_555
O5A Ag1 1_555 1_555
Ag1A O3 1_555 1_555
Ag1A_2 O5 1_555 1_555
Ag1B N1 1_555 1_555
C5 C6 1_555 1_555
C12 C13 1_555 1_555
C12 C14 1_555 1_555
O5 S1 1_555 1_555
O5A Ag1A 1_555 1_555

#END
