
#######################################################################
#
#                 Cambridge Crystallographic Data Centre
#                                CCDC 
#
#######################################################################
#
# If this CIF has been generated from an entry in the Cambridge 
# Structural Database, then it will include bibliographic, chemical, 
# crystal, experimental, refinement or atomic coordinate data resulting 
# from the CCDC's data processing and validation procedures.
#
#######################################################################

data_OMUJEM
_symmetry_cell_setting           monoclinic
_symmetry_space_group_name_H-M   'P 21'
_symmetry_Int_Tables_number      4
_space_group_name_Hall           'P 2yb'
loop_
_symmetry_equiv_pos_site_id
_symmetry_equiv_pos_as_xyz
1 x,y,z
2 -x,1/2+y,-z
_cell_length_a                   9.8734(2)
_cell_length_b                   17.1654(3)
_cell_length_c                   12.4840(2)
_cell_angle_alpha                90
_cell_angle_beta                 95.238(2)
_cell_angle_gamma                90
_cell_volume                     2106.96
loop_
_atom_site_label
_atom_site_type_symbol
_atom_site_fract_x
_atom_site_fract_y
_atom_site_fract_z
Co1 Co 0.22645(3) 0.328471(14) 0.82307(2)
K1 K 0.27516(6) 0.06924(3) 1.20631(5)
C1 C 0.2413(4) 0.38100(19) 1.1566(2)
H1 H 0.3285 0.3900 1.1369
C2 C 0.2243(5) 0.3397(3) 1.2517(3)
H2 H 0.2991 0.3199 1.2936
C3 C 0.0950(5) 0.3291(3) 1.2818(3)
H3 H 0.0825 0.3029 1.3453
C4 C -0.0145(5) 0.3567(2) 1.2195(3)
H4 H -0.1016 0.3501 1.2408
C5 C 0.0043(4) 0.3943(2) 1.1250(2)
H5 H -0.0717 0.4108 1.0816
C6 C 0.1305(3) 0.40839(15) 1.0921(2)
C7 C 0.1434(3) 0.45544(15) 0.99021(19)
H6 H 0.0715 0.4949 0.9882
C8 C 0.2757(3) 0.50005(17) 0.9906(2)
H7 H 0.2769 0.5286 0.9246
H8 H 0.3506 0.4642 0.9973
H9 H 0.2836 0.5356 1.0502
N1 N 0.11317(18) 0.40731(11) 0.89210(14)
C9 C -0.0103(2) 0.41716(14) 0.84220(18)
O1 O -0.10267(17) 0.46200(10) 0.86606(15)
C10 C -0.0358(2) 0.36693(13) 0.74482(18)
N2 N 0.07222(16) 0.32359(12) 0.72636(13)
C11 C -0.1542(2) 0.36247(16) 0.6759(2)
H10 H -0.2307 0.3913 0.6891
C12 C -0.1553(2) 0.31423(17) 0.5874(2)
H11 H -0.2337 0.3101 0.5405
C13 C -0.0407(3) 0.27201(16) 0.5679(2)
H12 H -0.0404 0.2405 0.5074
C14 C 0.0733(2) 0.27777(13) 0.64037(18)
C15 C 0.2061(3) 0.23721(14) 0.6344(2)
O2 O 0.22736(19) 0.20053(11) 0.55140(14)
N3 N 0.2917(2) 0.24955(11) 0.72183(16)
C16 C 0.4282(2) 0.21218(14) 0.7252(2)
H13 H 0.4754 0.2270 0.7946
C17 C 0.5130(3) 0.24623(17) 0.6400(2)
H14 H 0.5210 0.3016 0.6498
H15 H 0.4693 0.2354 0.5697
H16 H 0.6019 0.2231 0.6469
C18 C 0.4216(2) 0.12332(16) 0.7260(2)
C19 C 0.4176(3) 0.07842(17) 0.6337(3)
H17 H 0.4188 0.1024 0.5670
C20 C 0.4116(4) -0.0018(2) 0.6403(4)
H18 H 0.4092 -0.0315 0.5778
C21 C 0.4093(4) -0.0382(2) 0.7380(4)
H19 H 0.4042 -0.0922 0.7416
C22 C 0.4144(3) 0.0044(2) 0.8281(3)
H20 H 0.4122 -0.0202 0.8943
C23 C 0.4228(3) 0.08469(17) 0.8237(3)
H21 H 0.4295 0.1133 0.8873
C24 C 0.1973(4) 0.58574(18) 0.7196(2)
H22 H 0.1274 0.5591 0.7488
C25 C 0.2021(5) 0.6663(2) 0.7294(3)
H23 H 0.1360 0.6929 0.7633
C26 C 0.3055(5) 0.70551(19) 0.6882(3)
H24 H 0.3105 0.7594 0.6944
C27 C 0.4018(4) 0.6659(2) 0.6380(3)
H25 H 0.4726 0.6928 0.6104
C28 C 0.3935(4) 0.58550(18) 0.6282(3)
H26 H 0.4588 0.5590 0.5932
C29 C 0.2901(3) 0.54399(16) 0.66955(19)
C30 C 0.2743(3) 0.45595(15) 0.65500(19)
H27 H 0.1760 0.4465 0.6464
C31 C 0.3278(3) 0.42424(16) 0.5534(2)
H28 H 0.2965 0.3717 0.5416
H29 H 0.4255 0.4249 0.5612
H30 H 0.2953 0.4560 0.4932
N4 N 0.32581(19) 0.41067(11) 0.75138(15)
C32 C 0.4556(2) 0.41949(14) 0.78897(18)
O3 O 0.54473(17) 0.46104(10) 0.75359(14)
C33 C 0.4918(2) 0.36762(13) 0.88353(18)
N5 N 0.38806(16) 0.32490(12) 0.91136(13)
C34 C 0.6200(2) 0.35798(15) 0.9381(2)
H31 H 0.6934 0.3879 0.9207
C35 C 0.6355(3) 0.30242(16) 1.0192(2)
H32 H 0.7198 0.2957 1.0578
C36 C 0.5275(3) 0.25758(16) 1.0426(2)
H33 H 0.5382 0.2197 1.0960
C37 C 0.4019(2) 0.26936(14) 0.98548(18)
C38 C 0.2735(3) 0.22340(14) 0.99324(19)
O4 O 0.2778(2) 0.16855(11) 1.06003(17)
N6 N 0.17234(19) 0.24812(11) 0.92514(15)
C39 C 0.0320(2) 0.22127(14) 0.9283(2)
H34 H -0.0256 0.2673 0.9142
C40 C -0.0042(3) 0.18840(18) 1.0365(2)
H35 H 0.0299 0.2226 1.0936
H36 H 0.0360 0.1378 1.0476
H37 H -0.1013 0.1843 1.0360
C41 C -0.0119(2) 0.16306(14) 0.8399(2)
C42 C 0.0773(3) 0.11047(16) 0.8027(2)
H38 H 0.1679 0.1111 0.8308
C43 C 0.0361(3) 0.05730(19) 0.7255(3)
H39 H 0.0992 0.0236 0.6994
C44 C -0.0974(4) 0.0533(2) 0.6862(3)
H40 H -0.1259 0.0159 0.6351
C45 C -0.1883(3) 0.1039(2) 0.7220(3)
H41 H -0.2792 0.1012 0.6953
C46 C -0.1466(3) 0.15968(18) 0.7979(3)
H42 H -0.2092 0.1950 0.8209
O5 O 0.1744(3) 0.10123(18) 1.3896(2)
H43 H 0.208(4) 0.1466(19) 1.423(3)
C47 C 0.1069(5) 0.0479(3) 1.4402(3)
H44 H 0.0364 0.0727 1.4760
H45 H 0.1683 0.0215 1.4921
H46 H 0.0670 0.0109 1.3889
K1A K -0.27516(6) 0.56924(3) 0.79369(5)
K1A_2 K 0.72484(6) 0.56924(3) 0.79369(5)
O1A O 0.10267(17) -0.03800(10) 1.13394(15)
O3A O 0.45527(17) -0.03896(10) 1.24641(14)
loop_
_geom_bond_atom_site_label_1
_geom_bond_atom_site_label_2
_geom_bond_site_symmetry_1
_geom_bond_site_symmetry_2
Co1 N1 1_555 1_555
K1 O4 1_555 1_555
C1 H1 1_555 1_555
C2 C1 1_555 1_555
H2 C2 1_555 1_555
C3 C2 1_555 1_555
H3 C3 1_555 1_555
C4 C3 1_555 1_555
H4 C4 1_555 1_555
C5 C4 1_555 1_555
H5 C5 1_555 1_555
C6 C1 1_555 1_555
C7 C6 1_555 1_555
H6 C7 1_555 1_555
C8 C7 1_555 1_555
H7 C8 1_555 1_555
H8 C8 1_555 1_555
H9 C8 1_555 1_555
N1 C7 1_555 1_555
C9 N1 1_555 1_555
O1 C9 1_555 1_555
C10 C9 1_555 1_555
N2 Co1 1_555 1_555
C11 C10 1_555 1_555
H10 C11 1_555 1_555
C12 C11 1_555 1_555
H11 C12 1_555 1_555
C13 C12 1_555 1_555
H12 C13 1_555 1_555
C14 N2 1_555 1_555
C15 C14 1_555 1_555
O2 C15 1_555 1_555
N3 Co1 1_555 1_555
C16 N3 1_555 1_555
H13 C16 1_555 1_555
C17 C16 1_555 1_555
H14 C17 1_555 1_555
H15 C17 1_555 1_555
H16 C17 1_555 1_555
C18 C16 1_555 1_555
C19 C18 1_555 1_555
H17 C19 1_555 1_555
C20 C19 1_555 1_555
H18 C20 1_555 1_555
C21 C20 1_555 1_555
H19 C21 1_555 1_555
C22 C21 1_555 1_555
H20 C22 1_555 1_555
C23 C18 1_555 1_555
H21 C23 1_555 1_555
C24 H22 1_555 1_555
C25 C24 1_555 1_555
H23 C25 1_555 1_555
C26 C25 1_555 1_555
H24 C26 1_555 1_555
C27 C26 1_555 1_555
H25 C27 1_555 1_555
C28 C27 1_555 1_555
H26 C28 1_555 1_555
C29 C24 1_555 1_555
C30 C29 1_555 1_555
H27 C30 1_555 1_555
C31 C30 1_555 1_555
H28 C31 1_555 1_555
H29 C31 1_555 1_555
H30 C31 1_555 1_555
N4 Co1 1_555 1_555
C32 N4 1_555 1_555
O3 C32 1_555 1_555
C33 C32 1_555 1_555
N5 Co1 1_555 1_555
C34 C33 1_555 1_555
H31 C34 1_555 1_555
C35 C34 1_555 1_555
H32 C35 1_555 1_555
C36 C35 1_555 1_555
H33 C36 1_555 1_555
C37 N5 1_555 1_555
C38 C37 1_555 1_555
O4 C38 1_555 1_555
N6 Co1 1_555 1_555
C39 N6 1_555 1_555
H34 C39 1_555 1_555
C40 C39 1_555 1_555
H35 C40 1_555 1_555
H36 C40 1_555 1_555
H37 C40 1_555 1_555
C41 C39 1_555 1_555
C42 C41 1_555 1_555
H38 C42 1_555 1_555
C43 C42 1_555 1_555
H39 C43 1_555 1_555
C44 C43 1_555 1_555
H40 C44 1_555 1_555
C45 C44 1_555 1_555
H41 C45 1_555 1_555
C46 C41 1_555 1_555
H42 C46 1_555 1_555
O5 K1 1_555 1_555
H43 O5 1_555 1_555
C47 O5 1_555 1_555
H44 C47 1_555 1_555
H45 C47 1_555 1_555
H46 C47 1_555 1_555
K1A O1 1_555 1_555
K1A_2 O3 1_555 1_555
O1A K1 1_555 1_555
O3A K1 1_555 1_555
C5 C6 1_555 1_555
C10 N2 1_555 1_555
C13 C14 1_555 1_555
C15 N3 1_555 1_555
C22 C23 1_555 1_555
C28 C29 1_555 1_555
C30 N4 1_555 1_555
C33 N5 1_555 1_555
C36 C37 1_555 1_555
C38 N6 1_555 1_555
C45 C46 1_555 1_555

#END
