
#######################################################################
#
#                 Cambridge Crystallographic Data Centre
#                                CCDC 
#
#######################################################################
#
# If this CIF has been generated from an entry in the Cambridge 
# Structural Database, then it will include bibliographic, chemical, 
# crystal, experimental, refinement or atomic coordinate data resulting 
# from the CCDC's data processing and validation procedures.
#
#######################################################################

data_OMUREU
_symmetry_cell_setting           monoclinic
_symmetry_space_group_name_H-M   'P 21/c'
_symmetry_Int_Tables_number      14
_space_group_name_Hall           '-P 2ybc'
loop_
_symmetry_equiv_pos_site_id
_symmetry_equiv_pos_as_xyz
1 x,y,z
2 -x,1/2+y,1/2-z
3 -x,-y,-z
4 x,1/2-y,1/2+z
_cell_length_a                   11.4932(6)
_cell_length_b                   8.4885(5)
_cell_length_c                   12.0493(6)
_cell_angle_alpha                90
_cell_angle_beta                 100.5680(10)
_cell_angle_gamma                90
_cell_volume                     1155.59
loop_
_atom_site_label
_atom_site_type_symbol
_atom_site_fract_x
_atom_site_fract_y
_atom_site_fract_z
Sn1 Sn 0.220557(11) 0.720530(17) 0.277754(11)
C1 C 0.43467(18) 0.7063(2) 0.48400(17)
C2 C 0.54116(19) 0.7251(3) 0.55808(18)
H1 H 0.5564 0.6708 0.6282
C3 C 0.62522(18) 0.8258(3) 0.52698(17)
H2 H 0.6990 0.8412 0.5761
C4 C 0.60115(17) 0.9035(2) 0.42416(16)
C5 C 0.49253(17) 0.8767(2) 0.35391(16)
H3 H 0.4754 0.9283 0.2828
C6 C 0.33493(18) 0.6047(3) 0.51139(17)
C7 C 0.68938(17) 1.0165(2) 0.39068(17)
C8 C 0.03593(18) 0.4313(3) 0.15171(19)
H4 H -0.0263 0.4664 0.0940
C9 C 0.1726(2) 0.2252(3) 0.2259(2)
H5 H 0.1406 0.1371 0.2635
H6 H 0.2018 0.3069 0.2815
H7 H 0.2378 0.1876 0.1906
C10 C 0.0341(2) 0.1908(3) 0.0435(2)
H8 H 0.0976 0.1667 0.0019
H9 H -0.0299 0.2463 -0.0062
H10 H 0.0035 0.0926 0.0699
N1 N 0.41178(15) 0.7804(2) 0.38378(15)
N2 N 0.08032(16) 0.2900(2) 0.14012(16)
O1 O 0.24696(13) 0.58251(18) 0.42919(12)
O2 O 0.34304(14) 0.5502(2) 0.60647(13)
O3 O 0.66808(12) 1.05354(18) 0.28467(12)
O4 O 0.77204(12) 1.06654(18) 0.46173(12)
O5 O 0.06923(14) 0.5217(2) 0.23218(13)
Sn1A Sn 0.779443(11) 1.220530(17) 0.222246(11)
O3A O 0.33192(12) 0.55354(18) 0.21533(12)
loop_
_geom_bond_atom_site_label_1
_geom_bond_atom_site_label_2
_geom_bond_site_symmetry_1
_geom_bond_site_symmetry_2
Sn1 N1 1_555 1_555
C1 C2 1_555 1_555
C2 H1 1_555 1_555
C3 C2 1_555 1_555
H2 C3 1_555 1_555
C4 C3 1_555 1_555
C5 C4 1_555 1_555
H3 C5 1_555 1_555
C6 C1 1_555 1_555
C7 C4 1_555 1_555
C8 H4 1_555 1_555
C9 H5 1_555 1_555
H6 C9 1_555 1_555
H7 C9 1_555 1_555
C10 H8 1_555 1_555
H9 C10 1_555 1_555
H10 C10 1_555 1_555
N1 C1 1_555 1_555
N2 C8 1_555 1_555
O1 Sn1 1_555 1_555
O2 C6 1_555 1_555
O3 C7 1_555 1_555
O4 C7 1_555 1_555
O5 Sn1 1_555 1_555
Sn1A O3 1_555 1_555
O3A Sn1 1_555 1_555
C5 N1 1_555 1_555
C6 O1 1_555 1_555
C8 O5 1_555 1_555
C9 N2 1_555 1_555
C10 N2 1_555 1_555

#END
