
#######################################################################
#
#                 Cambridge Crystallographic Data Centre
#                                CCDC 
#
#######################################################################
#
# If this CIF has been generated from an entry in the Cambridge 
# Structural Database, then it will include bibliographic, chemical, 
# crystal, experimental, refinement or atomic coordinate data resulting 
# from the CCDC's data processing and validation procedures.
#
#######################################################################

data_OMURIY
_symmetry_cell_setting           monoclinic
_symmetry_space_group_name_H-M   'C 2/c'
_symmetry_Int_Tables_number      15
_space_group_name_Hall           '-C 2yn'
loop_
_symmetry_equiv_pos_site_id
_symmetry_equiv_pos_as_xyz
1 x,y,z
2 -x,y,1/2-z
3 1/2+x,1/2+y,z
4 1/2-x,1/2+y,1/2-z
5 -x,-y,-z
6 x,-y,1/2+z
7 1/2-x,1/2-y,-z
8 1/2+x,1/2-y,1/2+z
_cell_length_a                   13.5948(14)
_cell_length_b                   6.6759(7)
_cell_length_c                   20.200(2)
_cell_angle_alpha                90
_cell_angle_beta                 90.007(2)
_cell_angle_gamma                90
_cell_volume                     1833.3
loop_
_atom_site_label
_atom_site_type_symbol
_atom_site_fract_x
_atom_site_fract_y
_atom_site_fract_z
Sn1 Sn 0.235270(14) 0.48951(3) 0.445514(9)
Sn2 Sn 0.023900(14) 0.29438(3) 0.041030(9)
C1 C 0.1603(2) 0.7964(4) 0.33457(13)
C2 C 0.1301(2) 0.8824(4) 0.27595(15)
H1 H 0.1229 1.0205 0.2725
C3 C 0.1104(2) 0.7597(5) 0.22225(14)
H2 H 0.0917 0.8148 0.1819
C4 C 0.11904(19) 0.5551(4) 0.22924(13)
C5 C 0.1495(2) 0.4795(4) 0.29027(13)
H3 H 0.1555 0.3415 0.2953
C6 C 0.1874(2) 0.9224(4) 0.39377(13)
C7 C 0.0942(2) 0.4113(4) 0.17406(13)
N1 N 0.17036(16) 0.5973(3) 0.34172(10)
O1 O 0.22612(15) 0.8269(3) 0.44288(9)
O2 O 0.17164(19) 1.1039(3) 0.39271(11)
O3 O 0.1100(2) 0.2331(3) 0.18044(12)
O4 O 0.05821(17) 0.4935(3) 0.12223(10)
O5 O 0.09307(14) 0.4904(3) 0.47935(10)
Sn1F Sn 0.264730(14) 1.01049(3) 0.554486(9)
Sn2E Sn 0.023900(14) 0.70562(3) 0.541030(9)
Sn2A Sn -0.023900(14) 0.29438(3) 0.458970(9)
O1F O 0.27388(15) 0.6731(3) 0.55712(9)
O5E O 0.09307(14) 0.5096(3) -0.02065(10)
O5A O -0.09307(14) 0.4904(3) 0.02065(10)
loop_
_geom_bond_atom_site_label_1
_geom_bond_atom_site_label_2
_geom_bond_site_symmetry_1
_geom_bond_site_symmetry_2
Sn1 N1 1_555 1_555
Sn2 O4 1_555 1_555
C1 C2 1_555 1_555
C2 H1 1_555 1_555
C3 C2 1_555 1_555
H2 C3 1_555 1_555
C4 C3 1_555 1_555
C5 C4 1_555 1_555
H3 C5 1_555 1_555
C6 C1 1_555 1_555
C7 C4 1_555 1_555
N1 C1 1_555 1_555
O1 Sn1 1_555 1_555
O2 C6 1_555 1_555
O3 C7 1_555 1_555
O4 C7 1_555 1_555
O5 Sn1 1_555 1_555
Sn1F O1 1_555 1_555
Sn2E O5 1_555 1_555
Sn2A O5 1_555 1_555
O1F Sn1 1_555 1_555
O5E Sn2 1_555 1_555
O5A Sn2 1_555 1_555
C5 N1 1_555 1_555
C6 O1 1_555 1_555
Sn1F O1F 1_555 1_555

#END
