
#######################################################################
#
#                 Cambridge Crystallographic Data Centre
#                                CCDC 
#
#######################################################################
#
# If this CIF has been generated from an entry in the Cambridge 
# Structural Database, then it will include bibliographic, chemical, 
# crystal, experimental, refinement or atomic coordinate data resulting 
# from the CCDC's data processing and validation procedures.
#
#######################################################################

data_OMURUK
_symmetry_cell_setting           triclinic
_symmetry_space_group_name_H-M   'P -1'
_symmetry_Int_Tables_number      2
_space_group_name_Hall           '-P 1'
loop_
_symmetry_equiv_pos_site_id
_symmetry_equiv_pos_as_xyz
1 x,y,z
2 -x,-y,-z
_cell_length_a                   7.0892(10)
_cell_length_b                   7.2714(10)
_cell_length_c                   23.400(3)
_cell_angle_alpha                81.699(2)
_cell_angle_beta                 85.914(2)
_cell_angle_gamma                63.423(2)
_cell_volume                     1067.44
loop_
_atom_site_label
_atom_site_type_symbol
_atom_site_fract_x
_atom_site_fract_y
_atom_site_fract_z
Sn1 Sn 0.22204(3) -0.10296(3) 0.232950(8)
Sn2 Sn 0.52935(3) -0.67257(3) 0.240850(9)
Sn3 Sn -0.02309(3) -0.44163(3) 0.271660(8)
C1 C 0.6680(5) -0.1861(5) 0.16657(12)
C2 C 0.6283(5) -0.1075(5) 0.10367(11)
C3 C 0.4670(5) -0.1116(5) 0.07537(11)
H1 H 0.3791 -0.1625 0.0957
C4 C 0.4325(4) -0.0388(4) 0.01529(11)
C5 C 0.7616(5) -0.0280(5) 0.07247(12)
H2 H 0.8708 -0.0247 0.0914
C6 C 0.2695(5) -0.0435(5) -0.01494(12)
H3 H 0.1818 -0.0962 0.0046
C7 C 0.3930(5) -1.0014(5) 0.33496(11)
C8 C 0.4455(4) -1.0371(5) 0.39753(11)
C9 C 0.4295(5) -0.8735(5) 0.42414(11)
H4 H 0.3918 -0.7443 0.4027
C10 C 0.4701(4) -0.9005(4) 0.48388(11)
C11 C 0.5050(5) -1.2351(5) 0.42944(11)
H5 H 0.5157 -1.3450 0.4113
C12 C 0.5470(5) -1.2648(5) 0.48729(12)
H6 H 0.5874 -1.3957 0.5079
C13 C 0.3369(5) -0.6339(5) 0.14150(11)
C14 C 0.1904(5) -0.5970(5) 0.09434(11)
C15 C 0.0124(5) -0.6351(5) 0.10584(12)
H7 H -0.0111 -0.6876 0.1429
C16 C -0.1255(5) -0.5950(5) 0.06284(12)
H8 H -0.2440 -0.6181 0.0709
C17 C 0.2276(5) -0.5202(5) 0.03983(11)
H9 H 0.3443 -0.4933 0.0330
C18 C -0.0900(5) -0.5182(5) 0.00581(11)
C19 C -0.0381(5) -0.2352(5) 0.36046(12)
C20 C -0.0399(5) -0.1127(5) 0.40641(11)
C21 C 0.0120(5) -0.2117(5) 0.46155(12)
H10 H 0.0407 -0.3507 0.4694
C22 C 0.0227(4) -0.1070(5) 0.50654(11)
C23 C -0.0890(5) 0.0993(5) 0.39387(12)
H11 H -0.1288 0.1670 0.3567
C24 C 0.0784(5) -0.2056(5) 0.56384(12)
H12 H 0.1082 -0.3446 0.5727
O1 O 0.2535(3) -0.4064(3) 0.25140(8)
O2 O 0.5427(4) -0.2486(4) 0.19590(9)
O3 O 0.8285(4) -0.1942(4) 0.18839(9)
O4 O 0.3809(4) -1.1491(4) 0.31423(9)
O5 O 0.3560(4) -0.8285(4) 0.30643(8)
O6 O 0.3269(4) -0.7432(4) 0.18895(8)
O7 O 0.4640(4) -0.5565(4) 0.13712(9)
O8 O 0.0359(4) -0.4276(4) 0.37029(9)
O9 O -0.1080(4) -0.1422(4) 0.30987(9)
Sn1A Sn 0.77796(3) 0.10296(3) -0.232950(8)
Sn1A_2 Sn 0.77796(3) -0.89704(3) 0.767050(8)
Sn1A_3 Sn -0.22204(3) -0.89704(3) -0.232950(8)
Sn1_2 Sn 0.22204(3) -1.10296(3) 0.232950(8)
Sn2A Sn -0.52935(3) -0.32743(3) -0.240850(9)
Sn2A_2 Sn 0.47065(3) -1.32743(3) 0.759150(9)
Sn3_2 Sn 0.97691(3) -0.44163(3) 0.271660(8)
Sn3A Sn 0.02309(3) 0.44163(3) -0.271660(8)
Sn3A_2 Sn 0.02309(3) 0.44163(3) 0.728340(8)
Sn3A_3 Sn 0.02309(3) -0.55837(3) -0.271660(8)
C1A C 0.3320(5) 0.1861(5) -0.16657(12)
C2A C 0.3717(5) 0.1075(5) -0.10367(11)
C3A C 0.5330(5) 0.1116(5) -0.07537(11)
H1A H 0.6209 0.1625 -0.0957
C4A C 0.5675(4) 0.0388(4) -0.01529(11)
C5A C 0.2384(5) 0.0280(5) -0.07247(12)
H2A H 0.1292 0.0247 -0.0914
C6A C 0.7305(5) 0.0435(5) 0.01494(12)
H3A H 0.8182 0.0962 -0.0046
C7A C 0.6070(5) -0.9986(5) 0.66504(11)
C8A C 0.5545(4) -0.9629(5) 0.60247(11)
C9A C 0.5705(5) -1.1265(5) 0.57586(11)
H4A H 0.6082 -1.2557 0.5973
C10A C 0.5299(4) -1.0995(4) 0.51612(11)
C11A C 0.4950(5) -0.7649(5) 0.57056(11)
H5A H 0.4843 -0.6550 0.5887
C12A C 0.4530(5) -0.7352(5) 0.51271(12)
H6A H 0.4126 -0.6043 0.4921
C13A C -0.3369(5) -0.3661(5) -0.14150(11)
C14A C -0.1904(5) -0.4030(5) -0.09434(11)
C15A C -0.0124(5) -0.3649(5) -0.10584(12)
H7A H 0.0111 -0.3124 -0.1429
C16A C 0.1255(5) -0.4050(5) -0.06284(12)
H8A H 0.2440 -0.3819 -0.0709
C17A C -0.2276(5) -0.4798(5) -0.03983(11)
H9A H -0.3443 -0.5067 -0.0330
C18A C 0.0900(5) -0.4818(5) -0.00581(11)
C19A C 0.0381(5) 0.2352(5) 0.63954(12)
C20A C 0.0399(5) 0.1127(5) 0.59359(11)
C21A C -0.0120(5) 0.2117(5) 0.53845(12)
H10A H -0.0407 0.3507 0.5306
C22A C -0.0227(4) 0.1070(5) 0.49346(11)
C23A C 0.0890(5) -0.0993(5) 0.60613(12)
H11A H 0.1288 -0.1670 0.6433
C24A C -0.0784(5) 0.2056(5) 0.43616(12)
H12A H -0.1082 0.3446 0.4273
O1A O -0.2535(3) -0.5936(3) -0.25140(8)
O2A O 0.4573(4) 0.2486(4) -0.19590(9)
O2A_2 O -0.5427(4) -0.7514(4) -0.19590(9)
O3A O 0.1715(4) 0.1942(4) -0.18839(9)
O3_2 O -0.1715(4) -0.1942(4) 0.18839(9)
O3A_2 O 0.1715(4) -0.8058(4) -0.18839(9)
O4_2 O 0.3809(4) -0.1491(4) 0.31423(9)
O4A O 0.6191(4) -0.8509(4) 0.68577(9)
O4A_2 O -0.3809(4) -0.8509(4) -0.31423(9)
O5A O -0.3560(4) -0.1715(4) -0.30643(8)
O5A_2 O 0.6440(4) -1.1715(4) 0.69357(8)
O6A O -0.3269(4) -0.2568(4) -0.18895(8)
O7A O -0.4640(4) -0.4435(4) -0.13712(9)
O8A O -0.0359(4) 0.4276(4) 0.62971(9)
O8A_2 O -0.0359(4) -0.5724(4) -0.37029(9)
O9A O 0.1080(4) 0.1422(4) 0.69013(9)
O9A_2 O 0.1080(4) -0.8578(4) -0.30987(9)
loop_
_geom_bond_atom_site_label_1
_geom_bond_atom_site_label_2
_geom_bond_site_symmetry_1
_geom_bond_site_symmetry_2
Sn1 O1 1_555 1_555
Sn2 O1 1_555 1_555
Sn3 O1 1_555 1_555
C1 C2 1_555 1_555
C2 C3 1_555 1_555
C3 H1 1_555 1_555
C4 C3 1_555 1_555
C5 C2 1_555 1_555
H2 C5 1_555 1_555
C6 C4 1_555 1_555
H3 C6 1_555 1_555
C7 C8 1_555 1_555
C8 C9 1_555 1_555
C9 H4 1_555 1_555
C10 C9 1_555 1_555
C11 C8 1_555 1_555
H5 C11 1_555 1_555
C12 C11 1_555 1_555
H6 C12 1_555 1_555
C13 C14 1_555 1_555
C14 C15 1_555 1_555
C15 H7 1_555 1_555
C16 C15 1_555 1_555
H8 C16 1_555 1_555
C17 C14 1_555 1_555
H9 C17 1_555 1_555
C18 C16 1_555 1_555
C19 C20 1_555 1_555
C20 C21 1_555 1_555
C21 H10 1_555 1_555
C22 C21 1_555 1_555
C23 C20 1_555 1_555
H11 C23 1_555 1_555
C24 C22 1_555 1_555
H12 C24 1_555 1_555
O2 Sn1 1_555 1_555
O3 C1 1_555 1_555
O4 C7 1_555 1_555
O5 Sn2 1_555 1_555
O6 Sn2 1_555 1_555
O7 Sn2 1_555 1_555
O8 Sn3 1_555 1_555
O9 Sn3 1_555 1_555
Sn1A O2A 1_555 1_555
Sn1A_2 O4A 1_555 1_555
Sn1A_3 O1A 1_555 1_555
Sn1_2 O4 1_555 1_555
Sn2A O1A 1_555 1_555
Sn2A_2 O5A_2 1_555 1_555
Sn3_2 O3 1_555 1_555
Sn3A O3A 1_555 1_555
Sn3A_2 O8A 1_555 1_555
Sn3A_3 O1A 1_555 1_555
C1A C2A 1_555 1_555
C2A C3A 1_555 1_555
C3A H1A 1_555 1_555
C4A C4 1_555 1_555
C5A C6 1_555 1_555
H2A C5A 1_555 1_555
C6A C5 1_555 1_555
H3A C6A 1_555 1_555
C7A C8A 1_555 1_555
C8A C9A 1_555 1_555
C9A H4A 1_555 1_555
C10A C10 1_555 1_555
C11A C8A 1_555 1_555
H5A C11A 1_555 1_555
C12A C10 1_555 1_555
H6A C12A 1_555 1_555
C13A C14A 1_555 1_555
C14A C15A 1_555 1_555
C15A H7A 1_555 1_555
C16A C15A 1_555 1_555
H8A C16A 1_555 1_555
C17A C18 1_555 1_555
H9A C17A 1_555 1_555
C18A C17 1_555 1_555
C19A C20A 1_555 1_555
C20A C21A 1_555 1_555
C21A H10A 1_555 1_555
C22A C22 1_555 1_555
C23A C24 1_555 1_555
H11A C23A 1_555 1_555
C24A C23 1_555 1_555
H12A C24A 1_555 1_555
O2A C1A 1_555 1_555
O2A_2 Sn1A_3 1_555 1_555
O3A C1A 1_555 1_555
O3_2 Sn3 1_555 1_555
O3A_2 Sn3A_3 1_555 1_555
O4_2 Sn1 1_555 1_555
O4A C7A 1_555 1_555
O4A_2 Sn1A_3 1_555 1_555
O5A Sn2A 1_555 1_555
O5A_2 C7A 1_555 1_555
O6A Sn2A 1_555 1_555
O7A Sn2A 1_555 1_555
O8A C19A 1_555 1_555
O8A_2 Sn3A_3 1_555 1_555
O9A Sn3A_2 1_555 1_555
O9A_2 Sn3A_3 1_555 1_555
C1 O2 1_555 1_555
C7 O5 1_555 1_555
C12 C10A 1_555 1_555
C13 O6 1_555 1_555
C13 O7 1_555 1_555
C18 C18A 1_555 1_555
C19 O8 1_555 1_555
C19 O9 1_555 1_555
C2A C5A 1_555 1_555
C3A C4A 1_555 1_555
C4A C6A 1_555 1_555
C9A C10A 1_555 1_555
C11A C12A 1_555 1_555
C13A O6A 1_555 1_555
C13A O7A 1_555 1_555
C14A C17A 1_555 1_555
C16A C18A 1_555 1_555
C19A O9A 1_555 1_555
C20A C23A 1_555 1_555
C21A C22A 1_555 1_555
C22A C24A 1_555 1_555

#END
