
#######################################################################
#
#                 Cambridge Crystallographic Data Centre
#                                CCDC 
#
#######################################################################
#
# If this CIF has been generated from an entry in the Cambridge 
# Structural Database, then it will include bibliographic, chemical, 
# crystal, experimental, refinement or atomic coordinate data resulting 
# from the CCDC's data processing and validation procedures.
#
#######################################################################

data_OMUTOG
_symmetry_cell_setting           tetragonal
_symmetry_space_group_name_H-M   'P -4 21 c'
_symmetry_Int_Tables_number      114
_space_group_name_Hall           'P -4 2n'
loop_
_symmetry_equiv_pos_site_id
_symmetry_equiv_pos_as_xyz
1 x,y,z
2 -x,-y,z
3 y,-x,-z
4 -y,x,-z
5 1/2-x,1/2+y,1/2-z
6 1/2+x,1/2-y,1/2-z
7 1/2-y,1/2-x,1/2+z
8 1/2+y,1/2+x,1/2+z
_cell_length_a                   14.160(2)
_cell_length_b                   14.160(2)
_cell_length_c                   20.245(4)
_cell_angle_alpha                90
_cell_angle_beta                 90
_cell_angle_gamma                90
_cell_volume                     4059.24
loop_
_atom_site_label
_atom_site_type_symbol
_atom_site_fract_x
_atom_site_fract_y
_atom_site_fract_z
Cd1 Cd 1.0000 0.0000 0.0000
Cd2 Cd 1.0000 0.0000 0.5000
C1 C 1.0470(7) 0.1290(7) 0.1265(5)
H1 H 1.0243 0.0834 0.1554
C2 C 1.1068(7) 0.2614(7) 0.0904(5)
C3 C 1.1460(9) 0.3511(8) 0.0826(7)
H2 H 1.1608 0.3900 0.1181
C4 C 1.1605(11) 0.3769(10) 0.0190(8)
H3 H 1.1888 0.4352 0.0116
C5 C 1.1369(12) 0.3233(12) -0.0366(9)
H4 H 1.1450 0.3479 -0.0788
C6 C 1.1001(8) 0.2309(8) -0.0277(5)
H5 H 1.0878 0.1913 -0.0633
C7 C 1.0840(7) 0.2031(7) 0.0353(6)
C8 C 0.9080(8) 0.1646(9) 0.4098(8)
H6 H 0.9198 0.1301 0.3716
C9 C 0.8966(7) 0.2000(7) 0.5099(5)
C10 C 0.8990(9) 0.2007(9) 0.5777(7)
H7 H 0.9215 0.1497 0.6020
C11 C 0.8652(12) 0.2841(11) 0.6083(6)
H8 H 0.8647 0.2877 0.6542
C12 C 0.8325(13) 0.3610(11) 0.5717(8)
H9 H 0.8099 0.4140 0.5937
C13 C 0.8331(9) 0.3600(8) 0.5047(9)
H10 H 0.8139 0.4120 0.4801
C14 C 0.8637(7) 0.2778(7) 0.4751(4)
C15 C 0.8517(8) 0.3137(10) 0.3528(6)
H11 H 0.7953 0.3500 0.3627
H12 H 0.8385 0.2750 0.3144
C16 C 0.9322(9) 0.3817(9) 0.3364(7)
H13 H 0.9501 0.4154 0.3762
H14 H 0.9098 0.4278 0.3046
C17 C 1.0193(8) 0.3323(8) 0.3082(5)
H15 H 1.0728 0.3750 0.3107
H16 H 1.0337 0.2775 0.3351
C18 C 1.0063(8) 0.3014(8) 0.2375(3)
H17 H 0.9493 0.2637 0.2340
H18 H 0.9987 0.3566 0.2097
C19 C 1.0885(8) 0.2450(8) 0.2138(4)
H19 H 1.1448 0.2835 0.2179
H20 H 1.0961 0.1910 0.2429
N1 N 1.0465(6) 0.1180(5) 0.0607(3)
N2 N 1.0828(6) 0.2109(6) 0.1469(4)
N3 N 0.9242(7) 0.1305(7) 0.4693(5)
N4 N 0.8730(6) 0.2531(7) 0.4081(4)
Cd2_2 Cd 1.0000 0.0000 -0.5000
C1A C 0.9530(7) -0.1290(7) 0.1265(5)
C1B C 1.1290(7) -0.0470(7) -0.1265(5)
C1C C 0.8710(7) 0.0470(7) -0.1265(5)
H1A H 0.9757 -0.0834 0.1554
H1B H 1.0834 -0.0243 -0.1554
H1C H 0.9166 0.0243 -0.1554
C2A C 0.8932(7) -0.2614(7) 0.0904(5)
C2B C 1.2614(7) -0.1068(7) -0.0904(5)
C2C C 0.7386(7) 0.1068(7) -0.0904(5)
C3A C 0.8540(9) -0.3511(8) 0.0826(7)
C3B C 1.3511(8) -0.1460(9) -0.0826(7)
C3C C 0.6489(8) 0.1460(9) -0.0826(7)
H2A H 0.8392 -0.3900 0.1181
H2B H 1.3900 -0.1608 -0.1181
H2C H 0.6100 0.1608 -0.1181
C4A C 0.8395(11) -0.3769(10) 0.0190(8)
C4B C 1.3769(10) -0.1605(11) -0.0190(8)
C4C C 0.6231(10) 0.1605(11) -0.0190(8)
H3A H 0.8112 -0.4352 0.0116
H3B H 1.4352 -0.1888 -0.0116
H3C H 0.5648 0.1888 -0.0116
C5A C 0.8631(12) -0.3233(12) -0.0366(9)
C5B C 1.3233(12) -0.1369(12) 0.0366(9)
C5C C 0.6767(12) 0.1369(12) 0.0366(9)
H4A H 0.8550 -0.3479 -0.0788
H4B H 1.3479 -0.1450 0.0788
H4C H 0.6521 0.1450 0.0788
C6A C 0.8999(8) -0.2309(8) -0.0277(5)
C6B C 1.2309(8) -0.1001(8) 0.0277(5)
C6C C 0.7691(8) 0.1001(8) 0.0277(5)
H5A H 0.9122 -0.1913 -0.0633
H5B H 1.1913 -0.0878 0.0633
H5C H 0.8087 0.0878 0.0633
C7A C 0.9160(7) -0.2031(7) 0.0353(6)
C7B C 1.2031(7) -0.0840(7) -0.0353(6)
C7C C 0.7969(7) 0.0840(7) -0.0353(6)
C8A C 1.0920(8) -0.1646(9) 0.4098(8)
C8B C 1.1646(9) 0.0920(8) -0.4098(8)
C8C C 0.8354(9) -0.0920(8) -0.4098(8)
H6A H 1.0802 -0.1301 0.3716
H6B H 1.1301 0.0802 -0.3716
H6C H 0.8699 -0.0802 -0.3716
C9A C 1.1034(7) -0.2000(7) 0.5099(5)
C9B C 1.2000(7) 0.1034(7) -0.5099(5)
C9C C 0.8000(7) -0.1034(7) -0.5099(5)
C10A C 1.1010(9) -0.2007(9) 0.5777(7)
C10B C 1.2007(9) 0.1010(9) -0.5777(7)
C10C C 0.7993(9) -0.1010(9) -0.5777(7)
H7A H 1.0785 -0.1497 0.6020
H7B H 1.1497 0.0785 -0.6020
H7C H 0.8503 -0.0785 -0.6020
C11A C 1.1348(12) -0.2841(11) 0.6083(6)
C11B C 1.2841(11) 0.1348(12) -0.6083(6)
C11C C 0.7159(11) -0.1348(12) -0.6083(6)
H8A H 1.1353 -0.2877 0.6542
H8B H 1.2877 0.1353 -0.6542
H8C H 0.7123 -0.1353 -0.6542
C12A C 1.1675(13) -0.3610(11) 0.5717(8)
C12B C 1.3610(11) 0.1675(13) -0.5717(8)
C12C C 0.6390(11) -0.1675(13) -0.5717(8)
H9A H 1.1901 -0.4140 0.5937
H9B H 1.4140 0.1901 -0.5937
H9C H 0.5860 -0.1901 -0.5937
C13A C 1.1669(9) -0.3600(8) 0.5047(9)
C13B C 1.3600(8) 0.1669(9) -0.5047(9)
C13C C 0.6400(8) -0.1669(9) -0.5047(9)
H10A H 1.1861 -0.4120 0.4801
H10B H 1.4120 0.1861 -0.4801
H10C H 0.5880 -0.1861 -0.4801
C14A C 1.1363(7) -0.2778(7) 0.4751(4)
C14B C 1.2778(7) 0.1363(7) -0.4751(4)
C14C C 0.7222(7) -0.1363(7) -0.4751(4)
C15A C 1.1483(8) -0.3137(10) 0.3528(6)
C15B C 1.3137(10) 0.1483(8) -0.3528(6)
C15C C 0.6863(10) -0.1483(8) -0.3528(6)
H11A H 1.2047 -0.3500 0.3627
H11B H 1.3500 0.2047 -0.3627
H11C H 0.6500 -0.2047 -0.3627
H12A H 1.1615 -0.2750 0.3144
H12B H 1.2750 0.1615 -0.3144
H12C H 0.7250 -0.1615 -0.3144
C16A C 1.0678(9) -0.3817(9) 0.3364(7)
C16B C 1.3817(9) 0.0678(9) -0.3364(7)
C16C C 0.6183(9) -0.0678(9) -0.3364(7)
H13A H 1.0499 -0.4154 0.3762
H13B H 1.4154 0.0499 -0.3762
H13C H 0.5846 -0.0499 -0.3762
H14A H 1.0902 -0.4278 0.3046
H14B H 1.4278 0.0902 -0.3046
H14C H 0.5722 -0.0902 -0.3046
C17A C 0.9807(8) -0.3323(8) 0.3082(5)
C17B C 1.3323(8) -0.0193(8) -0.3082(5)
C17C C 0.6677(8) 0.0193(8) -0.3082(5)
H15A H 0.9272 -0.3750 0.3107
H15B H 1.3750 -0.0728 -0.3107
H15C H 0.6250 0.0728 -0.3107
H16A H 0.9663 -0.2775 0.3351
H16B H 1.2775 -0.0337 -0.3351
H16C H 0.7225 0.0337 -0.3351
C18A C 0.9937(8) -0.3014(8) 0.2375(3)
C18B C 1.3014(8) -0.0063(8) -0.2375(3)
C18C C 0.6986(8) 0.0063(8) -0.2375(3)
H17A H 1.0507 -0.2637 0.2340
H17B H 1.2637 0.0507 -0.2340
H17C H 0.7363 -0.0507 -0.2340
H18A H 1.0013 -0.3566 0.2097
H18B H 1.3566 0.0013 -0.2097
H18C H 0.6434 -0.0013 -0.2097
C19A C 0.9115(8) -0.2450(8) 0.2138(4)
C19B C 1.2450(8) -0.0885(8) -0.2138(4)
C19C C 0.7550(8) 0.0885(8) -0.2138(4)
H19A H 0.8552 -0.2835 0.2179
H19B H 1.2835 -0.1448 -0.2179
H19C H 0.7165 0.1448 -0.2179
H20A H 0.9039 -0.1910 0.2429
H20B H 1.1910 -0.0961 -0.2429
H20C H 0.8090 0.0961 -0.2429
N1A N 0.9535(6) -0.1180(5) 0.0607(3)
N1B N 1.1180(5) -0.0465(6) -0.0607(3)
N1C N 0.8820(5) 0.0465(6) -0.0607(3)
N2A N 0.9172(6) -0.2109(6) 0.1469(4)
N2B N 1.2109(6) -0.0828(6) -0.1469(4)
N2C N 0.7891(6) 0.0828(6) -0.1469(4)
N3A N 1.0758(7) -0.1305(7) 0.4693(5)
N3B N 1.1305(7) 0.0758(7) -0.4693(5)
N3C N 0.8695(7) -0.0758(7) -0.4693(5)
N3B_2 N 1.1305(7) 0.0758(7) 0.5307(5)
N3C_2 N 0.8695(7) -0.0758(7) 0.5307(5)
N4A N 1.1270(6) -0.2531(7) 0.4081(4)
N4B N 1.2531(7) 0.1270(6) -0.4081(4)
N4C N 0.7469(7) -0.1270(6) -0.4081(4)
Cl1 Cl 0.1918(2) 0.9500(2) 0.23315(15)
O1 O 0.2543(18) 0.9322(18) 0.2740(11)
O2 O 0.2120(14) 1.0001(16) 0.1803(8)
O3 O 0.1183(16) 0.988(2) 0.2605(8)
O4 O 0.182(3) 0.867(2) 0.2113(18)
O5 O 1.0000 0.0000 0.3560(15)
loop_
_geom_bond_atom_site_label_1
_geom_bond_atom_site_label_2
_geom_bond_site_symmetry_1
_geom_bond_site_symmetry_2
Cd1 N1 1_555 1_555
Cd2 N3 1_555 1_555
C1 H1 1_555 1_555
C2 C3 1_555 1_555
C3 H2 1_555 1_555
C4 C3 1_555 1_555
H3 C4 1_555 1_555
C5 C4 1_555 1_555
H4 C5 1_555 1_555
C6 C5 1_555 1_555
H5 C6 1_555 1_555
C7 C2 1_555 1_555
C8 H6 1_555 1_555
C9 C10 1_555 1_555
C10 H7 1_555 1_555
C11 C10 1_555 1_555
H8 C11 1_555 1_555
C12 C11 1_555 1_555
H9 C12 1_555 1_555
C13 C12 1_555 1_555
H10 C13 1_555 1_555
C14 C9 1_555 1_555
C15 H11 1_555 1_555
H12 C15 1_555 1_555
C16 C15 1_555 1_555
H13 C16 1_555 1_555
H14 C16 1_555 1_555
C17 C16 1_555 1_555
H15 C17 1_555 1_555
H16 C17 1_555 1_555
C18 C17 1_555 1_555
H17 C18 1_555 1_555
H18 C18 1_555 1_555
C19 C18 1_555 1_555
H19 C19 1_555 1_555
H20 C19 1_555 1_555
N1 C1 1_555 1_555
N2 C1 1_555 1_555
N3 C8 1_555 1_555
N4 C8 1_555 1_555
Cl1 O1 1_555 1_555
O2 Cl1 1_555 1_555
O3 Cl1 1_555 1_555
O4 Cl1 1_555 1_555
Cd2_2 N3B 1_555 1_555
C1A H1A 1_555 1_555
C1B H1B 1_555 1_555
C1C H1C 1_555 1_555
C2A C3A 1_555 1_555
C2B C3B 1_555 1_555
C2C C3C 1_555 1_555
C3A H2A 1_555 1_555
C3B H2B 1_555 1_555
C3C H2C 1_555 1_555
C4A C3A 1_555 1_555
C4B C3B 1_555 1_555
C4C C3C 1_555 1_555
H3A C4A 1_555 1_555
H3B C4B 1_555 1_555
H3C C4C 1_555 1_555
C5A C4A 1_555 1_555
C5B C4B 1_555 1_555
C5C C4C 1_555 1_555
H4A C5A 1_555 1_555
H4B C5B 1_555 1_555
H4C C5C 1_555 1_555
C6A C5A 1_555 1_555
C6B C5B 1_555 1_555
C6C C5C 1_555 1_555
H5A C6A 1_555 1_555
H5B C6B 1_555 1_555
H5C C6C 1_555 1_555
C7A C2A 1_555 1_555
C7B C2B 1_555 1_555
C7C C2C 1_555 1_555
C8A H6A 1_555 1_555
C8B H6B 1_555 1_555
C8C H6C 1_555 1_555
C9A C10A 1_555 1_555
C9B C10B 1_555 1_555
C9C C10C 1_555 1_555
C10A H7A 1_555 1_555
C10B H7B 1_555 1_555
C10C H7C 1_555 1_555
C11A C10A 1_555 1_555
C11B C10B 1_555 1_555
C11C C10C 1_555 1_555
H8A C11A 1_555 1_555
H8B C11B 1_555 1_555
H8C C11C 1_555 1_555
C12A C11A 1_555 1_555
C12B C11B 1_555 1_555
C12C C11C 1_555 1_555
H9A C12A 1_555 1_555
H9B C12B 1_555 1_555
H9C C12C 1_555 1_555
C13A C12A 1_555 1_555
C13B C12B 1_555 1_555
C13C C12C 1_555 1_555
H10A C13A 1_555 1_555
H10B C13B 1_555 1_555
H10C C13C 1_555 1_555
C14A C9A 1_555 1_555
C14B C9B 1_555 1_555
C14C C9C 1_555 1_555
C15A H11A 1_555 1_555
C15B H11B 1_555 1_555
C15C H11C 1_555 1_555
H12A C15A 1_555 1_555
H12B C15B 1_555 1_555
H12C C15C 1_555 1_555
C16A C15A 1_555 1_555
C16B C15B 1_555 1_555
C16C C15C 1_555 1_555
H13A C16A 1_555 1_555
H13B C16B 1_555 1_555
H13C C16C 1_555 1_555
H14A C16A 1_555 1_555
H14B C16B 1_555 1_555
H14C C16C 1_555 1_555
C17A C16A 1_555 1_555
C17B C16B 1_555 1_555
C17C C16C 1_555 1_555
H15A C17A 1_555 1_555
H15B C17B 1_555 1_555
H15C C17C 1_555 1_555
H16A C17A 1_555 1_555
H16B C17B 1_555 1_555
H16C C17C 1_555 1_555
C18A C17A 1_555 1_555
C18B C17B 1_555 1_555
C18C C17C 1_555 1_555
H17A C18A 1_555 1_555
H17B C18B 1_555 1_555
H17C C18C 1_555 1_555
H18A C18A 1_555 1_555
H18B C18B 1_555 1_555
H18C C18C 1_555 1_555
C19A C18A 1_555 1_555
C19B C18B 1_555 1_555
C19C C18C 1_555 1_555
H19A C19A 1_555 1_555
H19B C19B 1_555 1_555
H19C C19C 1_555 1_555
H20A C19A 1_555 1_555
H20B C19B 1_555 1_555
H20C C19C 1_555 1_555
N1A Cd1 1_555 1_555
N1B Cd1 1_555 1_555
N1C Cd1 1_555 1_555
N2A C1A 1_555 1_555
N2B C1B 1_555 1_555
N2C C1C 1_555 1_555
N3A Cd2 1_555 1_555
N3B C8B 1_555 1_555
N3C Cd2_2 1_555 1_555
N3B_2 Cd2 1_555 1_555
N3C_2 Cd2 1_555 1_555
N4A C8A 1_555 1_555
N4B C8B 1_555 1_555
N4C C8C 1_555 1_555
C2 N2 1_555 1_555
C6 C7 1_555 1_555
C7 N1 1_555 1_555
C9 N3 1_555 1_555
C13 C14 1_555 1_555
C14 N4 1_555 1_555
C15 N4 1_555 1_555
C19 N2 1_555 1_555
C1A N1A 1_555 1_555
C1B N1B 1_555 1_555
C1C N1C 1_555 1_555
C2A N2A 1_555 1_555
C2B N2B 1_555 1_555
C2C N2C 1_555 1_555
C6A C7A 1_555 1_555
C6B C7B 1_555 1_555
C6C C7C 1_555 1_555
C7A N1A 1_555 1_555
C7B N1B 1_555 1_555
C7C N1C 1_555 1_555
C8A N3A 1_555 1_555
C8C N3C 1_555 1_555
C9A N3A 1_555 1_555
C9B N3B 1_555 1_555
C9C N3C 1_555 1_555
C13A C14A 1_555 1_555
C13B C14B 1_555 1_555
C13C C14C 1_555 1_555
C14A N4A 1_555 1_555
C14B N4B 1_555 1_555
C14C N4C 1_555 1_555
C15A N4A 1_555 1_555
C15B N4B 1_555 1_555
C15C N4C 1_555 1_555
C19A N2A 1_555 1_555
C19B N2B 1_555 1_555
C19C N2C 1_555 1_555

#END
