
#######################################################################
#
#                 Cambridge Crystallographic Data Centre
#                                CCDC 
#
#######################################################################
#
# If this CIF has been generated from an entry in the Cambridge 
# Structural Database, then it will include bibliographic, chemical, 
# crystal, experimental, refinement or atomic coordinate data resulting 
# from the CCDC's data processing and validation procedures.
#
#######################################################################

data_OMUTIA
_symmetry_cell_setting           triclinic
_symmetry_space_group_name_H-M   'P -1'
_symmetry_Int_Tables_number      2
_space_group_name_Hall           '-P 1'
loop_
_symmetry_equiv_pos_site_id
_symmetry_equiv_pos_as_xyz
1 x,y,z
2 -x,-y,-z
_cell_length_a                   6.7694(13)
_cell_length_b                   10.426(2)
_cell_length_c                   11.446(2)
_cell_angle_alpha                70.626(2)
_cell_angle_beta                 75.957(2)
_cell_angle_gamma                78.696(2)
_cell_volume                     733.399
loop_
_atom_site_label
_atom_site_type_symbol
_atom_site_fract_x
_atom_site_fract_y
_atom_site_fract_z
C1 C 0.2418(5) 0.0090(3) 0.5058(3)
C2 C 0.2423(5) -0.0116(3) 0.6310(3)
H1 H 0.2687 -0.0992 0.6853
C3 C 0.2020(5) 0.1027(3) 0.6732(3)
C4 C 0.1557(5) 0.2354(3) 0.5906(3)
C5 C 0.1599(5) 0.2547(3) 0.4647(3)
H2 H 0.1343 0.3421 0.4099
C6 C 0.2035(5) 0.1399(3) 0.4217(3)
C7 C 0.2652(6) -0.0029(4) 0.3146(4)
H3 H 0.2850 -0.0398 0.2483
C8 C 0.2370(6) 0.0822(4) 0.8033(3)
C9 C 0.0957(5) 0.3607(4) 0.6356(3)
C10 C 0.5459(6) 0.4786(4) 0.0613(3)
Mn1 Mn 0.23364(9) 0.29019(5) 0.11916(5)
Mn2 Mn 0.5000 0.5000 0.5000
N1 N 0.2791(5) -0.0794(3) 0.4329(3)
H4 H 0.3061 -0.1672 0.4590
N2 N 0.2210(5) 0.1298(3) 0.3007(3)
O1 O 0.2061(4) -0.0295(3) 0.8869(2)
O2 O 0.3069(4) 0.1775(3) 0.8205(2)
O3 O -0.0542(4) 0.3639(3) 0.7237(2)
O4 O 0.1959(4) 0.4607(2) 0.5761(2)
O5 O 0.4709(4) 0.3859(3) 0.1534(2)
O6 O 0.6889(4) 0.5424(3) 0.0560(2)
O7 O 0.4445(5) 0.1505(3) 0.0306(3)
H5 H 0.5654 0.1409 0.0440
H6 H 0.4462 0.1714 -0.0480
O8 O 0.0077(4) 0.2479(3) 0.0326(3)
H7 H -0.0637 0.1882 0.0868
H8 H 0.0694 0.2160 -0.0279
O9 O -0.0111(4) 0.4303(2) 0.1946(2)
H9 H -0.0907 0.4709 0.1427
H10 H 0.0389 0.4896 0.2110
O10 O 0.6133(4) 0.3535(2) 0.3800(2)
H11 H 0.5179 0.3514 0.3445
H12 H 0.7172 0.3811 0.3245
O11 O 0.4006(4) 0.6690(3) 0.3445(2)
H13 H 0.3157 0.6473 0.3125
H14 H 0.5013 0.6989 0.2872
C1A C 0.7582(5) 0.9910(3) -0.5058(3)
C2A C 0.7577(5) 1.0116(3) -0.6310(3)
H1A H 0.7313 1.0992 -0.6853
C3A C 0.7980(5) 0.8973(3) -0.6732(3)
C4A C 0.8443(5) 0.7646(3) -0.5906(3)
C5A C 0.8401(5) 0.7453(3) -0.4647(3)
H2A H 0.8657 0.6579 -0.4099
C6A C 0.7965(5) 0.8601(3) -0.4217(3)
C7A C 0.7348(6) 1.0029(4) -0.3146(4)
H3A H 0.7150 1.0398 -0.2483
C8A C 0.7630(6) 0.9178(4) -0.8033(3)
C9A C 0.9043(5) 0.6393(4) -0.6356(3)
C10A C 0.4541(6) 0.5214(4) -0.0613(3)
Mn1A Mn 0.76636(9) 0.70981(5) -0.11916(5)
Mn2_2 Mn 0.5000 0.5000 -0.5000
N1A N 0.7209(5) 1.0794(3) -0.4329(3)
H4A H 0.6939 1.1672 -0.4590
N2A N 0.7790(5) 0.8702(3) -0.3007(3)
O1A O 0.7939(4) 1.0295(3) -0.8869(2)
O2A O 0.6931(4) 0.8225(3) -0.8205(2)
O3A O 1.0542(4) 0.6361(3) -0.7237(2)
O4A O 0.8041(4) 0.5393(2) -0.5761(2)
O4A_2 O 0.8041(4) 0.5393(2) 0.4239(2)
O5A O 0.5291(4) 0.6141(3) -0.1534(2)
O6A O 0.3111(4) 0.4576(3) -0.0560(2)
O7A O 0.5555(5) 0.8495(3) -0.0306(3)
H5A H 0.4346 0.8591 -0.0440
H6A H 0.5538 0.8286 0.0480
O8A O 0.9923(4) 0.7521(3) -0.0326(3)
H7A H 1.0637 0.8118 -0.0868
H8A H 0.9306 0.7840 0.0279
O9A O 1.0111(4) 0.5697(2) -0.1946(2)
H9A H 1.0907 0.5291 -0.1427
H10A H 0.9611 0.5104 -0.2110
O10A O 0.3867(4) 0.6465(2) 0.6200(2)
H11A H 0.4821 0.6486 0.6555
H12A H 0.2828 0.6189 0.6755
O11A O 0.5994(4) 0.3310(3) 0.6555(2)
H13A H 0.6843 0.3527 0.6875
H14A H 0.4987 0.3011 0.7128
loop_
_geom_bond_atom_site_label_1
_geom_bond_atom_site_label_2
_geom_bond_site_symmetry_1
_geom_bond_site_symmetry_2
C1 C2 1_555 1_555
C2 H1 1_555 1_555
C3 C2 1_555 1_555
C4 C3 1_555 1_555
C5 C4 1_555 1_555
H2 C5 1_555 1_555
C6 C1 1_555 1_555
C7 H3 1_555 1_555
C8 C3 1_555 1_555
C9 C4 1_555 1_555
C10 O5 1_555 1_555
Mn1 N2 1_555 1_555
Mn2 O4 1_555 1_555
N1 C1 1_555 1_555
H4 N1 1_555 1_555
N2 C6 1_555 1_555
O1 C8 1_555 1_555
O2 C8 1_555 1_555
O3 C9 1_555 1_555
O4 C9 1_555 1_555
O5 Mn1 1_555 1_555
O6 C10 1_555 1_555
O7 Mn1 1_555 1_555
H5 O7 1_555 1_555
H6 O7 1_555 1_555
O8 Mn1 1_555 1_555
H7 O8 1_555 1_555
H8 O8 1_555 1_555
O9 Mn1 1_555 1_555
H9 O9 1_555 1_555
H10 O9 1_555 1_555
O10 Mn2 1_555 1_555
H11 O10 1_555 1_555
H12 O10 1_555 1_555
O11 Mn2 1_555 1_555
H13 O11 1_555 1_555
H14 O11 1_555 1_555
C1A C2A 1_555 1_555
C2A H1A 1_555 1_555
C3A C2A 1_555 1_555
C4A C3A 1_555 1_555
C5A C4A 1_555 1_555
H2A C5A 1_555 1_555
C6A C1A 1_555 1_555
C7A H3A 1_555 1_555
C8A C3A 1_555 1_555
C9A C4A 1_555 1_555
C10A C10 1_555 1_555
Mn1A O6 1_555 1_555
Mn2_2 O4A 1_555 1_555
N1A C1A 1_555 1_555
H4A N1A 1_555 1_555
N2A C6A 1_555 1_555
O1A C8A 1_555 1_555
O2A C8A 1_555 1_555
O3A C9A 1_555 1_555
O4A C9A 1_555 1_555
O4A_2 Mn2 1_555 1_555
O5A C10A 1_555 1_555
O6A Mn1 1_555 1_555
O7A Mn1A 1_555 1_555
H5A O7A 1_555 1_555
H6A O7A 1_555 1_555
O8A Mn1A 1_555 1_555
H7A O8A 1_555 1_555
H8A O8A 1_555 1_555
O9A Mn1A 1_555 1_555
H9A O9A 1_555 1_555
H10A O9A 1_555 1_555
O10A Mn2 1_555 1_555
H11A O10A 1_555 1_555
H12A O10A 1_555 1_555
O11A Mn2 1_555 1_555
H13A O11A 1_555 1_555
H14A O11A 1_555 1_555
C5 C6 1_555 1_555
C7 N1 1_555 1_555
C7 N2 1_555 1_555
C5A C6A 1_555 1_555
C7A N1A 1_555 1_555
C7A N2A 1_555 1_555
C10A O6A 1_555 1_555
Mn1A N2A 1_555 1_555
Mn1A O5A 1_555 1_555

#END
