
#######################################################################
#
#                 Cambridge Crystallographic Data Centre
#                                CCDC 
#
#######################################################################
#
# If this CIF has been generated from an entry in the Cambridge 
# Structural Database, then it will include bibliographic, chemical, 
# crystal, experimental, refinement or atomic coordinate data resulting 
# from the CCDC's data processing and validation procedures.
#
#######################################################################

data_OMUYUR
_symmetry_cell_setting           triclinic
_symmetry_space_group_name_H-M   'P -1'
_symmetry_Int_Tables_number      2
_space_group_name_Hall           '-P 1'
loop_
_symmetry_equiv_pos_site_id
_symmetry_equiv_pos_as_xyz
1 x,y,z
2 -x,-y,-z
_cell_length_a                   10.4390(9)
_cell_length_b                   13.3980(11)
_cell_length_c                   13.4460(11)
_cell_angle_alpha                110.8840(10)
_cell_angle_beta                 99.4750(10)
_cell_angle_gamma                97.9500(10)
_cell_volume                     1693.01
loop_
_atom_site_label
_atom_site_type_symbol
_atom_site_fract_x
_atom_site_fract_y
_atom_site_fract_z
Cu1 Cu 0.62186(4) 0.46042(4) 0.28941(3)
Cu2 Cu 0.38569(4) 0.87994(4) -0.05961(4)
Cl1 Cl 0.55728(9) 0.93667(8) -0.12465(9)
S1 S 0.81030(10) 0.65285(8) 0.23654(8)
O1 O 0.7962(3) 0.5553(3) 0.2617(2)
O2 O 0.9471(3) 0.6936(4) 0.2419(3)
O3 O 0.7471(4) 0.7346(3) 0.3017(3)
O4 O 0.5250(3) 0.4955(2) -0.2264(2)
O5 O 0.4035(3) 0.6737(2) -0.1619(2)
O6 O 0.4889(3) 0.7969(2) 0.0042(2)
N1 N 0.7572(3) 0.4088(3) 0.3754(2)
N2 N 0.6214(3) 0.5623(3) 0.4429(3)
N3 N 0.2202(3) 0.8217(3) -0.0206(3)
N4 N 0.2537(3) 0.9386(3) -0.1398(3)
C1 C 0.8271(4) 0.3329(4) 0.3379(3)
H1 H 0.8150 0.2969 0.2627
C2 C 0.9172(5) 0.3057(4) 0.4069(4)
H2 H 0.9643 0.2524 0.3778
C3 C 0.9366(5) 0.3574(4) 0.5176(4)
H3 H 0.9957 0.3386 0.5643
C4 C 0.8664(4) 0.4394(4) 0.5606(3)
C5 C 0.8777(5) 0.4988(4) 0.6748(4)
H4 H 0.9358 0.4847 0.7259
C6 C 0.8053(5) 0.5752(4) 0.7095(3)
H5 H 0.8129 0.6110 0.7842
C7 C 0.7165(4) 0.6025(3) 0.6337(3)
C8 C 0.6374(5) 0.6810(4) 0.6626(4)
H6 H 0.6406 0.7207 0.7359
C9 C 0.5569(5) 0.6985(4) 0.5836(4)
H7 H 0.5067 0.7516 0.6026
C10 C 0.5491(5) 0.6369(3) 0.4736(4)
H8 H 0.4915 0.6485 0.4202
C11 C 0.7040(4) 0.5455(3) 0.5217(3)
C12 C 0.7778(4) 0.4624(3) 0.4847(3)
C13 C 0.7239(4) 0.6096(3) 0.0991(3)
C14 C 0.7462(4) 0.5172(3) 0.0195(3)
H9 H 0.8068 0.4791 0.0395
C15 C 0.6799(4) 0.4820(3) -0.0879(3)
H10 H 0.6970 0.4204 -0.1392
C16 C 0.5857(4) 0.5369(3) -0.1232(3)
C17 C 0.5684(3) 0.6336(3) -0.0421(3)
C18 C 0.6366(4) 0.6669(3) 0.0671(3)
H11 H 0.6228 0.7294 0.1194
C19 C 0.4818(3) 0.7034(3) -0.0687(3)
C20 C 0.2733(4) 0.9994(4) -0.1966(4)
H12 H 0.3588 1.0184 -0.2050
C21 C 0.1712(5) 1.0365(4) -0.2447(4)
H13 H 0.1893 1.0797 -0.2838
C22 C 0.0431(5) 1.0087(4) -0.2340(4)
H14 H -0.0260 1.0316 -0.2669
C23 C 0.0192(4) 0.9459(3) -0.1734(3)
C24 C -0.1077(4) 0.9163(4) -0.1517(4)
H15 H -0.1811 0.9367 -0.1822
C25 C -0.1223(4) 0.8593(4) -0.0880(4)
H16 H -0.2052 0.8439 -0.0733
C26 C -0.0148(4) 0.8221(3) -0.0424(4)
C27 C -0.0222(5) 0.7624(4) 0.0245(5)
H17 H -0.1027 0.7419 0.0403
C28 C 0.0886(6) 0.7348(4) 0.0659(5)
H18 H 0.0835 0.6948 0.1097
C29 C 0.2099(5) 0.7658(4) 0.0435(4)
H19 H 0.2851 0.7472 0.0737
C30 C 0.1107(4) 0.8494(3) -0.0621(3)
C31 C 0.1282(4) 0.9123(3) -0.1278(3)
Cu1A Cu 0.37814(4) 0.53958(4) -0.28941(3)
Cu2A Cu 0.61431(4) 1.12006(4) 0.05961(4)
Cl1A Cl 0.44272(9) 1.06333(8) 0.12465(9)
O4A O 0.4750(3) 0.5045(2) 0.2264(2)
O5A O 0.5965(3) 0.3263(2) 0.1619(2)
O7 O 0.2794(13) 1.0152(10) 0.3586(10)
N5 N 0.3783(10) 0.8796(8) 0.3601(8)
C32 C 0.3623(15) 0.9666(12) 0.3427(13)
H20 H 0.4266 0.9938 0.3132
C33 C 0.2904(15) 0.8230(17) 0.3980(17)
H21 H 0.2269 0.7669 0.3370
H22 H 0.2449 0.8725 0.4425
H23 H 0.3386 0.7902 0.4408
C34 C 0.4994(12) 0.8411(11) 0.3362(13)
H24 H 0.5648 0.9008 0.3396
H25 H 0.4786 0.7843 0.2642
H26 H 0.5338 0.8129 0.3891
O8 O 0.8566(9) 0.8326(9) 0.5324(7)
H27 H 0.883(4) 0.876(7) 0.474(3)
H28 H 0.859(4) 0.905(3) 0.598(8)
loop_
_geom_bond_atom_site_label_1
_geom_bond_atom_site_label_2
_geom_bond_site_symmetry_1
_geom_bond_site_symmetry_2
Cu1 O1 1_555 1_555
Cu2 Cl1 1_555 1_555
Cl1 Cu2A 1_555 1_555
S1 O1 1_555 1_555
O2 S1 1_555 1_555
O3 S1 1_555 1_555
O4 C16 1_555 1_555
O5 Cu2 1_555 1_555
O6 Cu2 1_555 1_555
O7 C32 1_555 1_555
O8 H27 1_555 1_555
N1 Cu1 1_555 1_555
N2 Cu1 1_555 1_555
N3 Cu2 1_555 1_555
N4 Cu2 1_555 1_555
N5 C32 1_555 1_555
C1 N1 1_555 1_555
H1 C1 1_555 1_555
C2 C1 1_555 1_555
H2 C2 1_555 1_555
C3 C2 1_555 1_555
H3 C3 1_555 1_555
C4 C3 1_555 1_555
C5 C4 1_555 1_555
H4 C5 1_555 1_555
C6 C5 1_555 1_555
H5 C6 1_555 1_555
C7 C6 1_555 1_555
C8 C7 1_555 1_555
H6 C8 1_555 1_555
C9 C8 1_555 1_555
H7 C9 1_555 1_555
C10 N2 1_555 1_555
H8 C10 1_555 1_555
C11 N2 1_555 1_555
C12 N1 1_555 1_555
C13 S1 1_555 1_555
C14 C13 1_555 1_555
H9 C14 1_555 1_555
C15 C14 1_555 1_555
H10 C15 1_555 1_555
C16 C15 1_555 1_555
C17 C16 1_555 1_555
C18 C13 1_555 1_555
H11 C18 1_555 1_555
C19 O5 1_555 1_555
C20 N4 1_555 1_555
H12 C20 1_555 1_555
C21 C20 1_555 1_555
H13 C21 1_555 1_555
C22 C21 1_555 1_555
H14 C22 1_555 1_555
C23 C22 1_555 1_555
C24 C23 1_555 1_555
H15 C24 1_555 1_555
C25 C24 1_555 1_555
H16 C25 1_555 1_555
C26 C25 1_555 1_555
C27 C26 1_555 1_555
H17 C27 1_555 1_555
C28 C27 1_555 1_555
H18 C28 1_555 1_555
C29 N3 1_555 1_555
H19 C29 1_555 1_555
C30 N3 1_555 1_555
C31 N4 1_555 1_555
C32 H20 1_555 1_555
C33 N5 1_555 1_555
H21 C33 1_555 1_555
H22 C33 1_555 1_555
H23 C33 1_555 1_555
C34 N5 1_555 1_555
H24 C34 1_555 1_555
H25 C34 1_555 1_555
H26 C34 1_555 1_555
H28 O8 1_555 1_555
Cu1A O4 1_555 1_555
Cu2A Cl1A 1_555 1_555
Cl1A Cu2 1_555 1_555
O4A Cu1 1_555 1_555
O5A Cu1 1_555 1_555
O5 Cu1A 1_555 1_555
O6 C19 1_555 1_555
C4 C12 1_555 1_555
C7 C11 1_555 1_555
C9 C10 1_555 1_555
C11 C12 1_555 1_555
C17 C18 1_555 1_555
C17 C19 1_555 1_555
C23 C31 1_555 1_555
C26 C30 1_555 1_555
C28 C29 1_555 1_555
C30 C31 1_555 1_555

#END
