
#######################################################################
#
#                 Cambridge Crystallographic Data Centre
#                                CCDC 
#
#######################################################################
#
# If this CIF has been generated from an entry in the Cambridge 
# Structural Database, then it will include bibliographic, chemical, 
# crystal, experimental, refinement or atomic coordinate data resulting 
# from the CCDC's data processing and validation procedures.
#
#######################################################################

data_OMUZIG
_symmetry_cell_setting           monoclinic
_symmetry_space_group_name_H-M   'P 21/c'
_symmetry_Int_Tables_number      14
_space_group_name_Hall           '-P 2ybc'
loop_
_symmetry_equiv_pos_site_id
_symmetry_equiv_pos_as_xyz
1 x,y,z
2 -x,1/2+y,1/2-z
3 -x,-y,-z
4 x,1/2-y,1/2+z
_cell_length_a                   9.4917(4)
_cell_length_b                   22.2895(11)
_cell_length_c                   11.3300(5)
_cell_angle_alpha                90
_cell_angle_beta                 117.433(3)
_cell_angle_gamma                90
_cell_volume                     2127.49
loop_
_atom_site_label
_atom_site_type_symbol
_atom_site_fract_x
_atom_site_fract_y
_atom_site_fract_z
Cd1 Cd 0.03176(6) 0.466229(17) 0.26521(4)
S1 S -0.2410(2) 0.48576(11) 0.06406(16)
S2 S 0.2407(2) 0.53341(7) 0.44567(17)
P1 P 0.21382(18) 0.32769(6) 0.36600(13)
O1 O 0.1043(6) 0.37204(17) 0.2677(4)
N1 N -0.1632(7) 0.5112(3) -0.1403(5)
N2 N 0.1100(7) 0.5508(3) 0.6191(5)
C1 C -0.1918(7) 0.5010(2) -0.0539(5)
C2 C 0.1614(8) 0.5428(2) 0.5471(6)
C3 C 0.2945(7) 0.3542(2) 0.5348(5)
C4 C 0.4478(8) 0.3762(3) 0.6007(7)
H1 H 0.5157 0.3733 0.5624
C5 C 0.4986(9) 0.4025(4) 0.7237(8)
H2 H 0.6010 0.4179 0.7676
C6 C 0.4015(9) 0.4064(3) 0.7821(7)
H3 H 0.4388 0.4233 0.8663
C7 C 0.2480(9) 0.3852(3) 0.7165(6)
H4 H 0.1814 0.3883 0.7560
C8 C 0.1932(8) 0.3595(3) 0.5928(6)
H5 H 0.0891 0.3458 0.5479
C9 C 0.1126(7) 0.2584(2) 0.3552(5)
C10 C 0.1507(9) 0.2201(3) 0.4608(6)
H6 H 0.2361 0.2291 0.5426
C11 C 0.0631(9) 0.1682(3) 0.4468(7)
H7 H 0.0875 0.1435 0.5198
C12 C -0.0582(9) 0.1537(3) 0.3262(7)
H8 H -0.1154 0.1186 0.3168
C13 C -0.0977(9) 0.1907(3) 0.2167(7)
H9 H -0.1801 0.1804 0.1342
C14 C -0.0134(7) 0.2430(3) 0.2317(6)
H10 H -0.0405 0.2683 0.1591
C15 C 0.3794(8) 0.3133(3) 0.3338(6)
C16 C 0.4236(10) 0.3581(4) 0.2732(8)
H11 H 0.3658 0.3936 0.2468
C17 C 0.5554(12) 0.3496(6) 0.2523(10)
H12 H 0.5863 0.3794 0.2117
C18 C 0.6397(13) 0.2971(7) 0.2919(13)
H13 H 0.7288 0.2916 0.2789
C19 C 0.5936(12) 0.2527(6) 0.3504(14)
H14 H 0.6506 0.2170 0.3755
C20 C 0.4648(10) 0.2604(4) 0.3720(8)
H15 H 0.4346 0.2302 0.4123
Cd1B Cd -0.03176(6) 0.533771(17) -0.26521(4)
Cd1B_2 Cd -0.03176(6) 0.533771(17) 0.73479(4)
N1B N 0.1632(7) 0.4888(3) 0.1403(5)
N2B N -0.1100(7) 0.4492(3) 0.3809(5)
loop_
_geom_bond_atom_site_label_1
_geom_bond_atom_site_label_2
_geom_bond_site_symmetry_1
_geom_bond_site_symmetry_2
Cd1 S1 1_555 1_555
S1 C1 1_555 1_555
S2 Cd1 1_555 1_555
P1 O1 1_555 1_555
O1 Cd1 1_555 1_555
N1 C1 1_555 1_555
N2 C2 1_555 1_555
C2 S2 1_555 1_555
C3 P1 1_555 1_555
C4 C3 1_555 1_555
H1 C4 1_555 1_555
C5 C4 1_555 1_555
H2 C5 1_555 1_555
C6 C5 1_555 1_555
H3 C6 1_555 1_555
C7 C6 1_555 1_555
H4 C7 1_555 1_555
C8 C3 1_555 1_555
H5 C8 1_555 1_555
C9 P1 1_555 1_555
C10 C9 1_555 1_555
H6 C10 1_555 1_555
C11 C10 1_555 1_555
H7 C11 1_555 1_555
C12 C11 1_555 1_555
H8 C12 1_555 1_555
C13 C12 1_555 1_555
H9 C13 1_555 1_555
C14 C9 1_555 1_555
H10 C14 1_555 1_555
C15 P1 1_555 1_555
C16 C15 1_555 1_555
H11 C16 1_555 1_555
C17 C16 1_555 1_555
H12 C17 1_555 1_555
C18 C17 1_555 1_555
H13 C18 1_555 1_555
C19 C18 1_555 1_555
H14 C19 1_555 1_555
C20 C15 1_555 1_555
H15 C20 1_555 1_555
Cd1B N1 1_555 1_555
Cd1B_2 N2 1_555 1_555
N1B Cd1 1_555 1_555
N2B Cd1 1_555 1_555
C7 C8 1_555 1_555
C13 C14 1_555 1_555
C19 C20 1_555 1_555

#END
