
#######################################################################
#
#                 Cambridge Crystallographic Data Centre
#                                CCDC 
#
#######################################################################
#
# If this CIF has been generated from an entry in the Cambridge 
# Structural Database, then it will include bibliographic, chemical, 
# crystal, experimental, refinement or atomic coordinate data resulting 
# from the CCDC's data processing and validation procedures.
#
#######################################################################

data_ONADUD
_symmetry_cell_setting           monoclinic
_symmetry_space_group_name_H-M   'P 21/c'
_symmetry_Int_Tables_number      14
_space_group_name_Hall           '-P 2ybc'
loop_
_symmetry_equiv_pos_site_id
_symmetry_equiv_pos_as_xyz
1 x,y,z
2 -x,1/2+y,1/2-z
3 -x,-y,-z
4 x,1/2-y,1/2+z
_cell_length_a                   19.5404(4)
_cell_length_b                   13.6621(3)
_cell_length_c                   26.2612(5)
_cell_angle_alpha                90
_cell_angle_beta                 108.9330(10)
_cell_angle_gamma                90
_cell_volume                     6631.47
loop_
_atom_site_label
_atom_site_type_symbol
_atom_site_fract_x
_atom_site_fract_y
_atom_site_fract_z
C1 C 0.0441(3) 0.6951(4) 0.1310(2)
H1 H 0.0768 0.6925 0.1120
C2 C -0.0292(4) 0.7006(5) 0.1016(3)
H2 H -0.0447 0.7027 0.0642
C3 C -0.0770(3) 0.7027(5) 0.1287(3)
H3 H -0.1263 0.7051 0.1099
C4 C -0.0525(3) 0.7012(4) 0.1855(3)
C5 C -0.0984(3) 0.7041(5) 0.2182(4)
H4 H -0.1483 0.7066 0.2016
C6 C -0.0720(3) 0.7033(5) 0.2720(4)
H5 H -0.1036 0.7052 0.2919
C7 C 0.0051(3) 0.6997(4) 0.2995(3)
C8 C 0.0379(4) 0.6983(4) 0.3559(3)
H6 H 0.0096 0.7019 0.3782
C9 C 0.1105(4) 0.6919(4) 0.3774(3)
H7 H 0.1325 0.6936 0.4145
C10 C 0.1524(3) 0.6826(4) 0.3435(2)
H8 H 0.2022 0.6750 0.3590
C11 C 0.0225(3) 0.6963(4) 0.2113(2)
C12 C 0.0515(3) 0.6938(3) 0.2689(2)
C13 C 0.3038(4) 0.5449(5) 0.1065(3)
H9 H 0.2535 0.5466 0.0943
C14 C 0.3401(5) 0.5372(5) 0.0688(3)
H10 H 0.3143 0.5337 0.0323
C15 C 0.4131(5) 0.5349(5) 0.0863(3)
H11 H 0.4376 0.5303 0.0613
C16 C 0.4525(4) 0.5393(4) 0.1410(3)
C17 C 0.5295(4) 0.5374(5) 0.1648(4)
H12 H 0.5579 0.5353 0.1425
C18 C 0.5618(4) 0.5386(5) 0.2180(4)
H13 H 0.6121 0.5370 0.2315
C19 C 0.5219(3) 0.5422(4) 0.2548(3)
C20 C 0.5524(3) 0.5398(4) 0.3105(3)
H14 H 0.6024 0.5378 0.3265
C21 C 0.5083(3) 0.5403(4) 0.3420(3)
H15 H 0.5279 0.5386 0.3793
C22 C 0.4336(3) 0.5436(4) 0.3169(2)
H16 H 0.4042 0.5433 0.3386
C23 C 0.4110(3) 0.5457(4) 0.1765(2)
C24 C 0.4458(3) 0.5456(3) 0.2331(2)
C25 C 0.0871(3) 0.4490(4) 0.1780(2)
H17 H 0.1182 0.4489 0.1577
C26 C 0.0130(3) 0.4518(4) 0.1503(3)
H18 H -0.0042 0.4529 0.1129
C27 C -0.0337(3) 0.4530(4) 0.1794(3)
H19 H -0.0834 0.4545 0.1618
C28 C -0.0062(3) 0.4518(4) 0.2359(3)
C29 C -0.0491(3) 0.4546(4) 0.2704(3)
H20 H -0.0992 0.4572 0.2554
C30 C -0.0191(3) 0.4536(4) 0.3240(3)
H21 H -0.0489 0.4561 0.3453
C31 C 0.0579(3) 0.4487(4) 0.3495(3)
C32 C 0.0931(3) 0.4468(4) 0.4049(3)
H22 H 0.0664 0.4497 0.4285
C33 C 0.1666(4) 0.4409(5) 0.4246(3)
H23 H 0.1901 0.4407 0.4615
C34 C 0.2063(3) 0.4351(4) 0.3893(2)
H24 H 0.2564 0.4301 0.4032
C35 C 0.0698(3) 0.4475(3) 0.2596(2)
C36 C 0.1011(3) 0.4445(3) 0.3164(2)
C37 C 0.3664(3) 1.2953(4) 0.1584(2)
H25 H 0.3163 1.2961 0.1427
C38 C 0.4091(4) 1.2873(5) 0.1250(3)
H26 H 0.3878 1.2829 0.0879
C39 C 0.4823(4) 1.2858(4) 0.1477(3)
H27 H 0.5112 1.2818 0.1257
C40 C 0.5145(3) 1.2902(4) 0.2030(2)
C41 C 0.5904(3) 1.2870(4) 0.2308(3)
H28 H 0.6221 1.2825 0.2110
C42 C 0.6175(3) 1.2904(4) 0.2848(3)
H29 H 0.6674 1.2897 0.3015
C43 C 0.5707(3) 1.2952(4) 0.3173(2)
C44 C 0.5942(3) 1.2980(4) 0.3729(3)
H30 H 0.6434 1.2955 0.3921
C45 C 0.5447(3) 1.3045(5) 0.3999(3)
H31 H 0.5598 1.3061 0.4373
C46 C 0.4719(3) 1.3085(4) 0.3701(2)
H32 H 0.4388 1.3143 0.3886
C47 C 0.4676(3) 1.2963(3) 0.2334(2)
C48 C 0.4959(3) 1.2987(3) 0.2910(2)
C49 C 0.2111(3) 0.8924(4) 0.2090(2)
H33 H 0.1952 0.8686 0.1740
C50 C 0.2285(2) 0.9924(4) 0.2169(2)
C51 C 0.2189(3) 1.0518(4) 0.1668(2)
C52 C 0.2518(2) 1.0276(4) 0.2691(2)
C53 C 0.2750(2) 1.1343(4) 0.2830(2)
C54 C 0.2589(3) 0.9626(4) 0.3103(2)
H34 H 0.2761 0.9839 0.3459
C55 C 0.2408(3) 0.8658(4) 0.2991(2)
H35 H 0.2457 0.8232 0.3277
Cu1 Cu 0.17365(3) 0.67184(4) 0.23345(2)
Cu2 Cu 0.29638(3) 0.56566(4) 0.21856(2)
Cu3 Cu 0.22066(3) 0.42763(4) 0.27873(2)
Cu4 Cu 0.34406(3) 1.32417(4) 0.26661(2)
N1 N 0.0705(2) 0.6933(3) 0.18402(18)
N2 N 0.1243(2) 0.6843(3) 0.29012(18)
N3 N 0.3379(2) 0.5497(3) 0.15860(18)
N4 N 0.4024(2) 0.5470(3) 0.26435(17)
N5 N 0.1159(2) 0.4464(3) 0.23007(18)
N6 N 0.1745(2) 0.4365(3) 0.33634(18)
N7 N 0.3943(2) 1.3018(3) 0.21096(17)
N8 N 0.4468(2) 1.3047(3) 0.31745(17)
N9 N 0.2163(2) 0.8301(3) 0.24908(18)
O1 O 0.25408(16) 0.5880(2) 0.27526(13)
H39 H 0.2811 0.6157 0.3037
O2 O 0.20952(18) 0.6310(3) 0.17661(14)
H40 H 0.2178 0.6722 0.1551
O3 O 0.26425(17) 0.4080(2) 0.22220(13)
H41 H 0.2370 0.3758 0.1957
O4 O 0.30819(17) 0.3653(2) 0.32390(13)
H42 H 0.2963 0.3093 0.3323
O5 O 0.2656(3) 1.0408(4) 0.1447(2)
O6 O 0.1639(2) 1.1042(3) 0.15098(17)
O7 O 0.2906(2) 1.1818(3) 0.24891(16)
O8 O 0.2773(2) 1.1650(3) 0.32891(16)
Cu4_2 Cu 0.34406(3) 0.32417(4) 0.26661(2)
O3_2 O 0.26425(17) 1.4080(2) 0.22220(13)
H41_2 H 0.2370 1.3758 0.1957
O4_2 O 0.30819(17) 1.3653(2) 0.32390(13)
H42_2 H 0.2963 1.3093 0.3323
C56 C 0.5570(3) 0.7653(6) 0.5084(3)
H36 H 0.6035 0.7860 0.5277
C57 C 0.5024(3) 0.8347(5) 0.4934(2)
H37 H 0.5122 0.8998 0.5035
C58 C 0.4324(3) 0.8059(4) 0.4628(2)
C59 C 0.3718(3) 0.8805(5) 0.4481(2)
C60 C 0.4209(3) 0.7079(4) 0.4489(2)
C61 C 0.3514(3) 0.6656(4) 0.4108(3)
C62 C 0.4788(3) 0.6434(5) 0.4668(2)
H38 H 0.4706 0.5776 0.4578
N10 N 0.5465(3) 0.6710(5) 0.4967(2)
O9 O 0.3884(3) 0.9677(3) 0.4469(2)
O10 O 0.3095(2) 0.8484(3) 0.44036(19)
O11 O 0.3371(2) 0.6895(3) 0.36325(16)
O12 O 0.3163(3) 0.6082(4) 0.4302(2)
O13 O 0.1866(3) 0.3007(3) 0.1349(2)
H43 H 0.1648 0.3065 0.1013
H44 H 0.1725 0.2476 0.1452
O14 O 0.2832(3) 0.1101(4) 0.43019(18)
H45 H 0.2868 0.1323 0.4009
H46 H 0.3184 0.0712 0.4435
O15 O 0.3634(3) 0.4821(4) 0.5159(2)
H47 H 0.3705 0.5337 0.5002
H48 H 0.3815 0.4343 0.5038
O16 O 0.2655(4) 0.7144(6) 0.5061(3)
H49 H 0.2867 0.7614 0.4962
H50 H 0.2570 0.6703 0.4820
O17 O 0.1843(3) 0.9506(4) 0.4260(2)
H51 H 0.2027 1.0065 0.4362
H52 H 0.2185 0.9122 0.4260
O18 O 0.2699(4) 0.1275(5) 0.0537(2)
H53 H 0.2922 0.0981 0.0353
H54 H 0.2635 0.0869 0.0762
O19 O 0.1955(4) 0.7520(7) 0.5805(3)
H55 H 0.1648 0.7093 0.5824
H56 H 0.1723 0.8014 0.5640
O20 O 0.2240(5) 0.2008(5) 0.5015(4)
H57 H 0.2343 0.1839 0.4737
H58 H 0.2597 0.1899 0.5297
O21 O 0.1258(5) 0.3885(8) 0.0346(3)
H59 H 0.0852 0.4069 0.0367
H60 H 0.1183 0.3722 0.0020
O22 O 0.1215(5) 0.9120(6) 0.5028(3)
H61 H 0.1449 0.8780 0.4869
H62 H 0.1034 0.9606 0.4827
O23 O 0.0996(9) 0.0891(11) 0.0426(4)
O24 O 0.0026(8) 0.7964(13) 0.4723(6)
O25 O 0.0649(11) 0.8845(12) 0.0404(10)
loop_
_geom_bond_atom_site_label_1
_geom_bond_atom_site_label_2
_geom_bond_site_symmetry_1
_geom_bond_site_symmetry_2
C1 H1 1_555 1_555
C2 C1 1_555 1_555
H2 C2 1_555 1_555
C3 C2 1_555 1_555
H3 C3 1_555 1_555
C4 C3 1_555 1_555
C5 C4 1_555 1_555
H4 C5 1_555 1_555
C6 C5 1_555 1_555
H5 C6 1_555 1_555
C7 C6 1_555 1_555
C8 C7 1_555 1_555
H6 C8 1_555 1_555
C9 C8 1_555 1_555
H7 C9 1_555 1_555
C10 C9 1_555 1_555
H8 C10 1_555 1_555
C11 C4 1_555 1_555
C12 C7 1_555 1_555
C13 H9 1_555 1_555
C14 C13 1_555 1_555
H10 C14 1_555 1_555
C15 C14 1_555 1_555
H11 C15 1_555 1_555
C16 C15 1_555 1_555
C17 C16 1_555 1_555
H12 C17 1_555 1_555
C18 C17 1_555 1_555
H13 C18 1_555 1_555
C19 C18 1_555 1_555
C20 C19 1_555 1_555
H14 C20 1_555 1_555
C21 C20 1_555 1_555
H15 C21 1_555 1_555
C22 C21 1_555 1_555
H16 C22 1_555 1_555
C23 C16 1_555 1_555
C24 C19 1_555 1_555
C25 H17 1_555 1_555
C26 C25 1_555 1_555
H18 C26 1_555 1_555
C27 C26 1_555 1_555
H19 C27 1_555 1_555
C28 C27 1_555 1_555
C29 C28 1_555 1_555
H20 C29 1_555 1_555
C30 C29 1_555 1_555
H21 C30 1_555 1_555
C31 C30 1_555 1_555
C32 C31 1_555 1_555
H22 C32 1_555 1_555
C33 C32 1_555 1_555
H23 C33 1_555 1_555
C34 C33 1_555 1_555
H24 C34 1_555 1_555
C35 C28 1_555 1_555
C36 C31 1_555 1_555
C37 H25 1_555 1_555
C38 C37 1_555 1_555
H26 C38 1_555 1_555
C39 C38 1_555 1_555
H27 C39 1_555 1_555
C40 C39 1_555 1_555
C41 C40 1_555 1_555
H28 C41 1_555 1_555
C42 C41 1_555 1_555
H29 C42 1_555 1_555
C43 C42 1_555 1_555
C44 C43 1_555 1_555
H30 C44 1_555 1_555
C45 C44 1_555 1_555
H31 C45 1_555 1_555
C46 C45 1_555 1_555
H32 C46 1_555 1_555
C47 C40 1_555 1_555
C48 C43 1_555 1_555
C49 H33 1_555 1_555
C50 C49 1_555 1_555
C51 C50 1_555 1_555
C52 C50 1_555 1_555
C53 C52 1_555 1_555
C54 C52 1_555 1_555
H34 C54 1_555 1_555
C55 C54 1_555 1_555
H35 C55 1_555 1_555
C56 H36 1_555 1_555
C57 C56 1_555 1_555
H37 C57 1_555 1_555
C58 C57 1_555 1_555
C59 C58 1_555 1_555
C60 C58 1_555 1_555
C61 C60 1_555 1_555
C62 C60 1_555 1_555
H38 C62 1_555 1_555
Cu1 N1 1_555 1_555
Cu2 N3 1_555 1_555
Cu3 N5 1_555 1_555
Cu4 N7 1_555 1_555
N1 C1 1_555 1_555
N2 C10 1_555 1_555
N3 C13 1_555 1_555
N4 C22 1_555 1_555
N5 C25 1_555 1_555
N6 C34 1_555 1_555
N7 C37 1_555 1_555
N8 C46 1_555 1_555
N9 C49 1_555 1_555
N10 C56 1_555 1_555
O1 Cu1 1_555 1_555
H39 O1 1_555 1_555
O2 Cu1 1_555 1_555
H40 O2 1_555 1_555
O3 Cu2 1_555 1_555
H41 O3 1_555 1_555
O4 Cu3 1_555 1_555
H42 O4 1_555 1_555
O5 C51 1_555 1_555
O6 C51 1_555 1_555
O7 C53 1_555 1_555
O8 C53 1_555 1_555
O9 C59 1_555 1_555
O10 C59 1_555 1_555
O11 C61 1_555 1_555
O12 C61 1_555 1_555
O13 H43 1_555 1_555
H44 O13 1_555 1_555
O14 H45 1_555 1_555
H46 O14 1_555 1_555
O15 H47 1_555 1_555
H48 O15 1_555 1_555
O16 H49 1_555 1_555
H50 O16 1_555 1_555
O17 H51 1_555 1_555
H52 O17 1_555 1_555
O18 H53 1_555 1_555
H54 O18 1_555 1_555
O19 H55 1_555 1_555
H56 O19 1_555 1_555
O20 H57 1_555 1_555
H58 O20 1_555 1_555
O21 H59 1_555 1_555
H60 O21 1_555 1_555
O22 H61 1_555 1_555
H62 O22 1_555 1_555
Cu4_2 O3 1_555 1_555
O3_2 Cu4 1_555 1_555
H41_2 O3_2 1_555 1_555
O4_2 Cu4 1_555 1_555
H42_2 O4_2 1_555 1_555
C11 C12 1_555 1_555
C11 N1 1_555 1_555
C12 N2 1_555 1_555
C23 C24 1_555 1_555
C23 N3 1_555 1_555
C24 N4 1_555 1_555
C35 C36 1_555 1_555
C35 N5 1_555 1_555
C36 N6 1_555 1_555
C47 C48 1_555 1_555
C47 N7 1_555 1_555
C48 N8 1_555 1_555
C55 N9 1_555 1_555
C62 N10 1_555 1_555
Cu1 N2 1_555 1_555
Cu1 N9 1_555 1_555
Cu2 N4 1_555 1_555
Cu2 O1 1_555 1_555
Cu2 O2 1_555 1_555
Cu3 N6 1_555 1_555
Cu3 O1 1_555 1_555
Cu3 O3 1_555 1_555
Cu4 N8 1_555 1_555
Cu4 O7 1_555 1_555
O4 Cu4_2 1_555 1_555

#END
