
#######################################################################
#
#                 Cambridge Crystallographic Data Centre
#                                CCDC 
#
#######################################################################
#
# If this CIF has been generated from an entry in the Cambridge 
# Structural Database, then it will include bibliographic, chemical, 
# crystal, experimental, refinement or atomic coordinate data resulting 
# from the CCDC's data processing and validation procedures.
#
#######################################################################

data_ONAFEP
_symmetry_cell_setting           triclinic
_symmetry_space_group_name_H-M   'P -1'
_symmetry_Int_Tables_number      2
_space_group_name_Hall           '-P 1'
loop_
_symmetry_equiv_pos_site_id
_symmetry_equiv_pos_as_xyz
1 x,y,z
2 -x,-y,-z
_cell_length_a                   11.09720(10)
_cell_length_b                   11.14540(10)
_cell_length_c                   11.50680(10)
_cell_angle_alpha                81.4820(10)
_cell_angle_beta                 84.0780(10)
_cell_angle_gamma                69.7330(10)
_cell_volume                     1318.29
loop_
_atom_site_label
_atom_site_type_symbol
_atom_site_fract_x
_atom_site_fract_y
_atom_site_fract_z
C1 C 1.10982(19) 1.3490(2) 0.8304(2)
C2 C 1.07548(19) 1.48879(19) 0.84796(19)
C3 C 1.1634(2) 1.5227(2) 0.9033(2)
H1 H 1.2341 1.4589 0.9369
C4 C 1.1452(2) 1.6502(2) 0.9079(2)
H2 H 1.2044 1.6708 0.9457
C5 C 0.9588(2) 1.7132(2) 0.81133(19)
H3 H 0.8883 1.7790 0.7796
C6 C 0.96747(19) 1.58724(19) 0.80529(18)
C7 C 0.8533(2) 1.5663(2) 0.7606(2)
C8 C 1.57801(19) 1.25433(19) 0.91134(18)
C9 C 1.53927(18) 1.14824(19) 0.87585(17)
C10 C 1.41097(19) 1.1563(2) 0.89271(19)
H4 H 1.3535 1.2260 0.9274
C11 C 1.4496(2) 0.9695(2) 0.8126(2)
H5 H 1.4197 0.9081 0.7910
C12 C 1.5786(2) 0.9533(2) 0.7925(2)
H6 H 1.6335 0.8828 0.7573
C13 C 1.62604(18) 1.04308(19) 0.82503(17)
C14 C 1.76950(19) 1.01595(19) 0.80828(19)
C15 C 1.9199(3) 1.2836(3) 0.5928(2)
H7 H 1.9713 1.3107 0.6346
C16 C 1.9786(3) 1.2026(3) 0.5064(3)
H8 H 2.0672 1.1771 0.4911
C17 C 1.9053(3) 1.1610(3) 0.4445(2)
H9 H 1.9434 1.1058 0.3878
C18 C 1.7719(3) 1.2026(3) 0.4677(2)
C19 C 1.6836(3) 1.1674(4) 0.4075(3)
H10 H 1.7157 1.1118 0.3503
C20 C 1.5557(3) 1.2132(4) 0.4324(3)
H11 H 1.5016 1.1886 0.3918
C21 C 1.5010(3) 1.2989(3) 0.5199(2)
C22 C 1.3688(3) 1.3566(3) 0.5457(2)
H12 H 1.3093 1.3363 0.5081
C23 C 1.3286(3) 1.4421(3) 0.6257(2)
H13 H 1.2410 1.4822 0.6420
C24 C 1.4184(2) 1.4700(3) 0.6838(2)
H14 H 1.3891 1.5287 0.7387
C25 C 1.7207(2) 1.2835(2) 0.55532(19)
C26 C 1.5852(2) 1.3327(2) 0.58122(19)
Cu1 Cu 1.17627(2) 1.09274(2) 0.89049(2)
Cu2 Cu 2.01665(2) 0.92894(2) 0.88526(2)
Cu3 Cu 1.69121(2) 1.43432(3) 0.74104(2)
Cu4 Cu 1.5000 1.5000 1.0000
N1 N 1.04561(16) 1.74649(16) 0.86013(15)
N2 N 1.36523(16) 1.06969(17) 0.86195(16)
N3 N 1.79446(18) 1.3232(2) 0.61763(17)
N4 N 1.54396(18) 1.41554(19) 0.66325(16)
O1 O 1.13121(14) 1.27024(14) 0.92382(14)
O2 O 1.12492(16) 1.32068(16) 0.72934(15)
O3 O 0.84422(15) 1.45517(15) 0.79210(15)
O4 O 0.77428(19) 1.65577(19) 0.7046(2)
O5 O 1.69060(14) 1.25138(15) 0.89173(16)
O6 O 1.48677(15) 1.34224(16) 0.95730(15)
O7 O 1.82948(13) 0.96663(14) 0.90235(13)
O8 O 1.81953(16) 1.03006(18) 0.71014(15)
O9 O 0.99710(15) 1.10407(15) 0.90722(14)
O10 O 1.19772(15) 0.91663(16) 0.86567(16)
O11 O 1.42674(18) 1.45919(19) 1.15067(16)
H15 H 0.946(3) 1.156(3) 0.880(3)
H16 H 1.414(3) 1.408(3) 1.150(3)
H17 H 1.234(4) 0.879(4) 0.910(4)
C1_2 C 2.10982(19) 0.3490(2) 0.8304(2)
C2_2 C 2.07548(19) 0.48879(19) 0.84796(19)
C3_2 C 2.1634(2) 0.5227(2) 0.9033(2)
H1_2 H 2.2341 0.4589 0.9369
C4_2 C 2.1452(2) 0.6502(2) 0.9079(2)
H2_2 H 2.2044 0.6708 0.9457
C5_2 C 1.9588(2) 0.7132(2) 0.81133(19)
H3_2 H 1.8883 0.7790 0.7796
C6_2 C 1.96747(19) 0.58724(19) 0.80529(18)
C7_2 C 1.8533(2) 0.5663(2) 0.7606(2)
C8A C 1.42199(19) 1.74567(19) 1.08866(18)
C9A C 1.46073(18) 1.85176(19) 1.12415(17)
C10A C 1.58903(19) 1.8437(2) 1.10729(19)
H4A H 1.6465 1.7740 1.0726
C11A C 1.5504(2) 2.0305(2) 1.1874(2)
H5A H 1.5803 2.0919 1.2090
C12A C 1.4214(2) 2.0467(2) 1.2075(2)
H6A H 1.3665 2.1172 1.2427
C13A C 1.37396(18) 1.95692(19) 1.17497(17)
C14A C 1.23050(19) 1.98405(19) 1.19172(19)
C15A C 1.0801(3) 1.7164(3) 1.4072(2)
H7A H 1.0287 1.6893 1.3654
C16A C 1.0214(3) 1.7974(3) 1.4936(3)
H8A H 0.9328 1.8229 1.5089
C17A C 1.0947(3) 1.8390(3) 1.5555(2)
H9A H 1.0566 1.8942 1.6122
C18A C 1.2281(3) 1.7974(3) 1.5323(2)
C19A C 1.3164(3) 1.8326(4) 1.5925(3)
H10A H 1.2843 1.8882 1.6497
C20A C 1.4443(3) 1.7868(4) 1.5676(3)
H11A H 1.4984 1.8114 1.6082
C21A C 1.4990(3) 1.7011(3) 1.4801(2)
C22A C 1.6312(3) 1.6434(3) 1.4543(2)
H12A H 1.6907 1.6637 1.4919
C23A C 1.6714(3) 1.5579(3) 1.3743(2)
H13A H 1.7590 1.5178 1.3580
C24A C 1.5816(2) 1.5300(3) 1.3162(2)
H14A H 1.6109 1.4713 1.2613
C25A C 1.2793(2) 1.7165(2) 1.44468(19)
C26A C 1.4148(2) 1.6673(2) 1.41878(19)
Cu1A Cu 1.82373(2) 1.90726(2) 1.10951(2)
Cu1A_2 Cu 1.82373(2) 0.90726(2) 1.10951(2)
Cu1_2 Cu 1.17627(2) 2.09274(2) 0.89049(2)
Cu1_3 Cu 2.17627(2) 0.09274(2) 0.89049(2)
Cu1_4 Cu 2.17627(2) 1.09274(2) 0.89049(2)
Cu2A Cu 0.98335(2) 2.07106(2) 1.11474(2)
Cu2_2 Cu 1.01665(2) 1.92894(2) 0.88526(2)
Cu2_3 Cu 1.01665(2) 0.92894(2) 0.88526(2)
Cu2A_2 Cu 0.98335(2) 1.07106(2) 1.11474(2)
Cu2A_3 Cu 1.98335(2) 1.07106(2) 1.11474(2)
Cu3A Cu 1.30879(2) 1.56568(3) 1.25896(2)
Cu3_2 Cu 0.69121(2) 1.43432(3) 0.74104(2)
Cu3_3 Cu 1.69121(2) 0.43432(3) 0.74104(2)
N1_2 N 2.04561(16) 0.74649(16) 0.86013(15)
N1A N 0.95439(16) 2.25351(16) 1.13987(15)
N2A N 1.63477(16) 1.93031(17) 1.13805(16)
N3A N 1.20554(18) 1.6768(2) 1.38237(17)
N4A N 1.45604(18) 1.58446(19) 1.33675(16)
O1_2 O 2.13121(14) 0.27024(14) 0.92382(14)
O1A O 1.86879(14) 1.72976(14) 1.07618(14)
O2_2 O 2.12492(16) 0.32068(16) 0.72934(15)
O3_2 O 1.84422(15) 0.45517(15) 0.79210(15)
O3_3 O 1.84422(15) 1.45517(15) 0.79210(15)
O3A O 1.15578(15) 1.54483(15) 1.20790(15)
O4_2 O 1.77428(19) 0.65577(19) 0.7046(2)
O5A O 1.30940(14) 1.74862(15) 1.10827(16)
O6A O 1.51323(15) 1.65776(16) 1.04270(15)
O7A O 1.17052(13) 2.03337(14) 1.09765(13)
O7A_2 O 1.17052(13) 1.03337(14) 1.09765(13)
O7_2 O 1.82948(13) 1.96663(14) 0.90235(13)
O8A O 1.18047(16) 1.96994(18) 1.28986(15)
O9_2 O 1.99710(15) 1.10407(15) 0.90722(14)
O9A O 2.00290(15) 0.89593(15) 1.09278(14)
O9A_2 O 2.00290(15) 1.89593(15) 1.09278(14)
O9A_3 O 1.00290(15) 1.89593(15) 1.09278(14)
O9_3 O 0.99710(15) 2.10407(15) 0.90722(14)
O10_2 O 2.19772(15) 0.91663(16) 0.86567(16)
O10A O 1.80228(15) 2.08337(16) 1.13433(16)
O10A_2 O 0.80228(15) 2.08337(16) 1.13433(16)
O11A O 1.57326(18) 1.54081(19) 0.84933(16)
H15_2 H 1.946(3) 1.156(3) 0.880(3)
H15A H 2.054(3) 0.844(3) 1.120(3)
H15A_2 H 2.054(3) 1.844(3) 1.120(3)
H15A_3 H 1.054(3) 1.844(3) 1.120(3)
H15_3 H 0.946(3) 2.156(3) 0.880(3)
H16A H 1.586(3) 1.592(3) 0.850(3)
H17_2 H 2.234(4) 0.879(4) 0.910(4)
H17A H 1.766(4) 2.121(4) 1.090(4)
H17A_2 H 0.766(4) 2.121(4) 1.090(4)
loop_
_geom_bond_atom_site_label_1
_geom_bond_atom_site_label_2
_geom_bond_site_symmetry_1
_geom_bond_site_symmetry_2
C1 C2 1_555 1_555
C2 C3 1_555 1_555
C3 H1 1_555 1_555
C4 C3 1_555 1_555
H2 C4 1_555 1_555
C5 H3 1_555 1_555
C6 C2 1_555 1_555
C7 C6 1_555 1_555
C8 C9 1_555 1_555
C9 C10 1_555 1_555
C10 H4 1_555 1_555
C11 H5 1_555 1_555
C12 C11 1_555 1_555
H6 C12 1_555 1_555
C13 C9 1_555 1_555
C14 C13 1_555 1_555
C15 H7 1_555 1_555
C16 C15 1_555 1_555
H8 C16 1_555 1_555
C17 C16 1_555 1_555
H9 C17 1_555 1_555
C18 C17 1_555 1_555
C19 C18 1_555 1_555
H10 C19 1_555 1_555
C20 C19 1_555 1_555
H11 C20 1_555 1_555
C21 C20 1_555 1_555
C22 C21 1_555 1_555
H12 C22 1_555 1_555
C23 C22 1_555 1_555
H13 C23 1_555 1_555
C24 C23 1_555 1_555
H14 C24 1_555 1_555
C25 C18 1_555 1_555
C26 C21 1_555 1_555
Cu1 N2 1_555 1_555
Cu2 O7 1_555 1_555
Cu3 N3 1_555 1_555
Cu4 O6 1_555 1_555
N1 C4 1_555 1_555
N2 C10 1_555 1_555
N3 C15 1_555 1_555
N4 C24 1_555 1_555
O1 C1 1_555 1_555
O2 C1 1_555 1_555
O3 C7 1_555 1_555
O4 C7 1_555 1_555
O5 C8 1_555 1_555
O6 C8 1_555 1_555
O7 C14 1_555 1_555
O8 C14 1_555 1_555
O9 Cu1 1_555 1_555
O10 Cu1 1_555 1_555
O11 Cu4 1_555 1_555
H15 O9 1_555 1_555
H16 O11 1_555 1_555
H17 O10 1_555 1_555
C1_2 C2_2 1_555 1_555
C2_2 C3_2 1_555 1_555
C3_2 H1_2 1_555 1_555
C4_2 C3_2 1_555 1_555
H2_2 C4_2 1_555 1_555
C5_2 H3_2 1_555 1_555
C6_2 C2_2 1_555 1_555
C7_2 C6_2 1_555 1_555
C8A C9A 1_555 1_555
C9A C10A 1_555 1_555
C10A H4A 1_555 1_555
C11A H5A 1_555 1_555
C12A C11A 1_555 1_555
H6A C12A 1_555 1_555
C13A C9A 1_555 1_555
C14A C13A 1_555 1_555
C15A H7A 1_555 1_555
C16A C15A 1_555 1_555
H8A C16A 1_555 1_555
C17A C16A 1_555 1_555
H9A C17A 1_555 1_555
C18A C17A 1_555 1_555
C19A C18A 1_555 1_555
H10A C19A 1_555 1_555
C20A C19A 1_555 1_555
H11A C20A 1_555 1_555
C21A C20A 1_555 1_555
C22A C21A 1_555 1_555
H12A C22A 1_555 1_555
C23A C22A 1_555 1_555
H13A C23A 1_555 1_555
C24A C23A 1_555 1_555
H14A C24A 1_555 1_555
C25A C18A 1_555 1_555
C26A C21A 1_555 1_555
Cu1A N2A 1_555 1_555
Cu1A_2 O7 1_555 1_555
Cu1_2 O7A 1_555 1_555
Cu1_3 O1_2 1_555 1_555
Cu1_4 O9_2 1_555 1_555
Cu2A N1A 1_555 1_555
Cu2_2 N1 1_555 1_555
Cu2_3 O9 1_555 1_555
Cu2A_2 O9 1_555 1_555
Cu2A_3 O9_2 1_555 1_555
Cu3A O11 1_555 1_555
Cu3_2 O3 1_555 1_555
Cu3_3 O3_2 1_555 1_555
N1_2 Cu2 1_555 1_555
N2A C10A 1_555 1_555
N3A C15A 1_555 1_555
N4A C24A 1_555 1_555
O1_2 C1_2 1_555 1_555
O1A Cu1A 1_555 1_555
O2_2 C1_2 1_555 1_555
O3_2 C7_2 1_555 1_555
O3_3 Cu3 1_555 1_555
O3A Cu3A 1_555 1_555
O4_2 C7_2 1_555 1_555
O5A C8A 1_555 1_555
O6A Cu4 1_555 1_555
O7A C14A 1_555 1_555
O7A_2 Cu1 1_555 1_555
O7_2 Cu1A 1_555 1_555
O8A C14A 1_555 1_555
O9_2 Cu2 1_555 1_555
O9A Cu2 1_555 1_555
O9A_2 Cu1A 1_555 1_555
O9A_3 Cu2A 1_555 1_555
O9_3 Cu1_2 1_555 1_555
O10_2 Cu2 1_555 1_555
O10A Cu1A 1_555 1_555
O10A_2 Cu2A 1_555 1_555
O11A Cu3 1_555 1_555
H15_2 O9_2 1_555 1_555
H15A O9A 1_555 1_555
H15A_2 O9A_2 1_555 1_555
H15A_3 O9A_3 1_555 1_555
H15_3 O9_3 1_555 1_555
H16A O11A 1_555 1_555
H17_2 O10_2 1_555 1_555
H17A O10A 1_555 1_555
H17A_2 O10A_2 1_555 1_555
C5 C6 1_555 1_555
C5 N1 1_555 1_555
C11 N2 1_555 1_555
C12 C13 1_555 1_555
C25 C26 1_555 1_555
C25 N3 1_555 1_555
C26 N4 1_555 1_555
Cu1 O1 1_555 1_555
Cu3 N4 1_555 1_555
Cu3 O5 1_555 1_555
Cu4 O11A 1_555 1_555
O10 Cu2_3 1_555 1_555
C4_2 N1_2 1_555 1_555
C5_2 C6_2 1_555 1_555
C5_2 N1_2 1_555 1_555
C8A O6A 1_555 1_555
C11A N2A 1_555 1_555
C12A C13A 1_555 1_555
C25A C26A 1_555 1_555
C25A N3A 1_555 1_555
C26A N4A 1_555 1_555
Cu1A_2 O9A 1_555 1_555
Cu1_4 O10_2 1_555 1_555
Cu2A O7A 1_555 1_555
Cu2A O9_3 1_555 1_555
Cu2_2 O9A_3 1_555 1_555
Cu2_2 O9_3 1_555 1_555
Cu2A_2 O7A_2 1_555 1_555
Cu2A_3 O9A 1_555 1_555
Cu3A N3A 1_555 1_555
Cu3A N4A 1_555 1_555
Cu3A O5A 1_555 1_555

#END
