
#######################################################################
#
#                 Cambridge Crystallographic Data Centre
#                                CCDC 
#
#######################################################################
#
# If this CIF has been generated from an entry in the Cambridge 
# Structural Database, then it will include bibliographic, chemical, 
# crystal, experimental, refinement or atomic coordinate data resulting 
# from the CCDC's data processing and validation procedures.
#
#######################################################################

data_ONAMEW
_symmetry_cell_setting           orthorhombic
_symmetry_space_group_name_H-M   'P b c a'
_symmetry_Int_Tables_number      61
_space_group_name_Hall           '-P 2ac 2ab'
loop_
_symmetry_equiv_pos_site_id
_symmetry_equiv_pos_as_xyz
1 x,y,z
2 1/2-x,-y,1/2+z
3 -x,1/2+y,1/2-z
4 1/2+x,1/2-y,-z
5 -x,-y,-z
6 1/2+x,y,1/2-z
7 x,1/2-y,1/2+z
8 1/2-x,1/2+y,z
_cell_length_a                   17.4668(16)
_cell_length_b                   9.8509(10)
_cell_length_c                   20.573(2)
_cell_angle_alpha                90
_cell_angle_beta                 90
_cell_angle_gamma                90
_cell_volume                     3539.87
loop_
_atom_site_label
_atom_site_type_symbol
_atom_site_fract_x
_atom_site_fract_y
_atom_site_fract_z
Mn1 Mn 0.64843(3) 0.39888(5) 0.88459(2)
Mn2 Mn 0.5000 0.5000 1.0000
N1 N 0.59486(15) 0.6133(3) 0.88013(13)
N2 N 0.53874(16) 0.6537(3) 0.92460(13)
N3 N 0.54579(16) 0.8043(3) 0.84772(13)
N4 N 0.53484(19) 0.9174(3) 0.80745(15)
H1 H 0.4961 0.8992 0.7831
H2 H 0.5228 0.9869 0.8306
N5 N 0.37684(15) 0.5256(3) 0.96479(13)
N6 N 0.32167(16) 0.5693(3) 1.00934(13)
N7 N 0.27409(16) 0.5849(3) 0.91288(13)
N8 N 0.22055(18) 0.6163(4) 0.86436(15)
H3 H 0.2240 0.6812 0.8366
H4 H 0.2267 0.5417 0.8433
N9 N 0.46730(16) 0.6496(3) 1.07409(13)
N10 N 0.49954(17) 0.7429(3) 1.09731(15)
N11 N 0.5305(2) 0.8337(4) 1.1211(2)
N12 N 0.76027(17) 0.4841(3) 0.85575(15)
N13 N 0.78858(16) 0.5842(3) 0.87554(14)
N14 N 0.8173(2) 0.6814(4) 0.89581(18)
N15 N 0.6110(2) 0.3587(4) 0.78442(17)
N16 N 0.6491(2) 0.3487(3) 0.74142(17)
N17 N 0.6886(3) 0.3390(5) 0.69417(19)
C1 C 0.50943(19) 0.7683(3) 0.90372(16)
C2 C 0.59788(19) 0.7062(3) 0.83459(15)
C3 C 0.4475(2) 0.8481(4) 0.93468(19)
H5 H 0.4291 0.8007 0.9723
H6 H 0.4063 0.8602 0.9043
H7 H 0.4670 0.9353 0.9474
C4 C 0.6478(2) 0.7080(4) 0.77684(16)
H8 H 0.6799 0.6290 0.7770
H9 H 0.6791 0.7881 0.7777
H10 H 0.6169 0.7083 0.7383
C5 C 0.2604(2) 0.6042(4) 0.97697(16)
C6 C 0.3468(2) 0.5366(4) 0.90654(16)
C7 C 0.1873(2) 0.6590(5) 1.00241(19)
H11 H 0.1735 0.6113 1.0414
H12 H 0.1478 0.6473 0.9704
H13 H 0.1933 0.7538 1.0119
C8 C 0.3829(2) 0.5034(4) 0.84360(17)
H14 H 0.4370 0.4920 0.8496
H15 H 0.3738 0.5758 0.8133
H16 H 0.3613 0.4208 0.8269
Mn1D Mn 0.35157(3) 0.60112(5) 1.11541(2)
Mn1G Mn 0.85157(3) 0.89888(5) 0.88459(2)
Mn1G_2 Mn 0.85157(3) -0.10112(5) 0.88459(2)
N1D N 0.40514(15) 0.3867(3) 1.11987(13)
N2D N 0.46126(16) 0.3463(3) 1.07540(13)
N3D N 0.45421(16) 0.1957(3) 1.15228(13)
N4D N 0.46516(19) 0.0826(3) 1.19255(15)
H1D H 0.5039 0.1008 1.2169
H2D H 0.4772 0.0131 1.1694
N5D N 0.62316(15) 0.4744(3) 1.03521(13)
N6D N 0.67833(16) 0.4307(3) 0.99066(13)
N7D N 0.72591(16) 0.4151(3) 1.08712(13)
N8D N 0.77945(18) 0.3837(4) 1.13564(15)
H3D H 0.7760 0.3188 1.1634
H4D H 0.7733 0.4583 1.1567
N9D N 0.53270(16) 0.3504(3) 0.92591(13)
N10D N 0.50046(17) 0.2571(3) 0.90269(15)
N11D N 0.4695(2) 0.1663(4) 0.8789(2)
N12G N 0.73973(17) -0.0159(3) 0.85575(15)
N12D N 0.23973(17) 0.5159(3) 1.14425(15)
N13G N 0.71142(16) 0.0842(3) 0.87554(14)
N14G N 0.6827(2) 0.1814(4) 0.89581(18)
N14C N 0.3173(2) 0.8186(4) 1.10419(18)
N15D N 0.3890(2) 0.6413(4) 1.21558(17)
N16D N 0.3509(2) 0.6513(3) 1.25858(17)
N17D N 0.3114(3) 0.6610(5) 1.30583(19)
C1D C 0.49057(19) 0.2317(3) 1.09628(16)
C2D C 0.40212(19) 0.2938(3) 1.16541(15)
C3D C 0.5525(2) 0.1519(4) 1.06532(19)
H5D H 0.5709 0.1993 1.0277
H6D H 0.5937 0.1398 1.0957
H7D H 0.5330 0.0647 1.0526
C4D C 0.3522(2) 0.2920(4) 1.22316(16)
H8D H 0.3201 0.3710 1.2230
H9D H 0.3209 0.2119 1.2223
H10D H 0.3831 0.2917 1.2617
C5D C 0.7396(2) 0.3958(4) 1.02303(16)
C6D C 0.6532(2) 0.4634(4) 1.09346(16)
C7D C 0.8127(2) 0.3410(5) 0.99759(19)
H11D H 0.8265 0.3887 0.9586
H12D H 0.8522 0.3527 1.0296
H13D H 0.8067 0.2462 0.9881
C8D C 0.6171(2) 0.4966(4) 1.15640(17)
H14D H 0.5630 0.5080 1.1504
H15D H 0.6262 0.4242 1.1867
H16D H 0.6387 0.5792 1.1731
loop_
_geom_bond_atom_site_label_1
_geom_bond_atom_site_label_2
_geom_bond_site_symmetry_1
_geom_bond_site_symmetry_2
Mn1 N1 1_555 1_555
Mn2 N2 1_555 1_555
N1 N2 1_555 1_555
N2 C1 1_555 1_555
N3 N4 1_555 1_555
N4 H1 1_555 1_555
H2 N4 1_555 1_555
N5 Mn2 1_555 1_555
N6 N5 1_555 1_555
N7 N8 1_555 1_555
N8 H3 1_555 1_555
H4 N8 1_555 1_555
N9 Mn2 1_555 1_555
N10 N9 1_555 1_555
N11 N10 1_555 1_555
N12 Mn1 1_555 1_555
N13 N12 1_555 1_555
N14 N13 1_555 1_555
N15 Mn1 1_555 1_555
N16 N15 1_555 1_555
N17 N16 1_555 1_555
C1 N3 1_555 1_555
C2 N1 1_555 1_555
C3 C1 1_555 1_555
H5 C3 1_555 1_555
H6 C3 1_555 1_555
H7 C3 1_555 1_555
C4 C2 1_555 1_555
H8 C4 1_555 1_555
H9 C4 1_555 1_555
H10 C4 1_555 1_555
C5 N6 1_555 1_555
C6 N5 1_555 1_555
C7 C5 1_555 1_555
H11 C7 1_555 1_555
H12 C7 1_555 1_555
H13 C7 1_555 1_555
C8 C6 1_555 1_555
H14 C8 1_555 1_555
H15 C8 1_555 1_555
H16 C8 1_555 1_555
Mn1D N6 1_555 1_555
Mn1G N14 1_555 1_555
Mn1G_2 N12G 1_555 1_555
N1D Mn1D 1_555 1_555
N2D Mn2 1_555 1_555
N3D N4D 1_555 1_555
N4D H1D 1_555 1_555
H2D N4D 1_555 1_555
N5D Mn2 1_555 1_555
N6D Mn1 1_555 1_555
N7D N8D 1_555 1_555
N8D H3D 1_555 1_555
H4D N8D 1_555 1_555
N9D Mn1 1_555 1_555
N10D N9D 1_555 1_555
N11D N10D 1_555 1_555
N12G N13G 1_555 1_555
N12D Mn1D 1_555 1_555
N13G N14G 1_555 1_555
N14G Mn1 1_555 1_555
N14C Mn1D 1_555 1_555
N15D Mn1D 1_555 1_555
N16D N15D 1_555 1_555
N17D N16D 1_555 1_555
C1D N2D 1_555 1_555
C2D N1D 1_555 1_555
C3D C1D 1_555 1_555
H5D C3D 1_555 1_555
H6D C3D 1_555 1_555
H7D C3D 1_555 1_555
C4D C2D 1_555 1_555
H8D C4D 1_555 1_555
H9D C4D 1_555 1_555
H10D C4D 1_555 1_555
C5D N6D 1_555 1_555
C6D N5D 1_555 1_555
C7D C5D 1_555 1_555
H11D C7D 1_555 1_555
H12D C7D 1_555 1_555
H13D C7D 1_555 1_555
C8D C6D 1_555 1_555
H14D C8D 1_555 1_555
H15D C8D 1_555 1_555
H16D C8D 1_555 1_555
Mn2 N9D 1_555 1_555
N3 C2 1_555 1_555
N7 C5 1_555 1_555
N7 C6 1_555 1_555
N9 Mn1D 1_555 1_555
N1D N2D 1_555 1_555
N3D C1D 1_555 1_555
N3D C2D 1_555 1_555
N5D N6D 1_555 1_555
N7D C5D 1_555 1_555
N7D C6D 1_555 1_555

#END
