
#######################################################################
#
#                 Cambridge Crystallographic Data Centre
#                                CCDC 
#
#######################################################################
#
# If this CIF has been generated from an entry in the Cambridge 
# Structural Database, then it will include bibliographic, chemical, 
# crystal, experimental, refinement or atomic coordinate data resulting 
# from the CCDC's data processing and validation procedures.
#
#######################################################################

data_ONAROL
_symmetry_cell_setting           monoclinic
_symmetry_space_group_name_H-M   'P 21/n'
_symmetry_Int_Tables_number      14
_space_group_name_Hall           '-P 2yn'
loop_
_symmetry_equiv_pos_site_id
_symmetry_equiv_pos_as_xyz
1 x,y,z
2 1/2-x,1/2+y,1/2-z
3 -x,-y,-z
4 1/2+x,1/2-y,1/2+z
_cell_length_a                   6.6015(13)
_cell_length_b                   7.5135(15)
_cell_length_c                   32.483(7)
_cell_angle_alpha                90
_cell_angle_beta                 91.03(3)
_cell_angle_gamma                90
_cell_volume                     1610.91
loop_
_atom_site_label
_atom_site_type_symbol
_atom_site_fract_x
_atom_site_fract_y
_atom_site_fract_z
Ag1 Ag 0.69085(4) 0.59082(4) 0.011115(7)
O1 O -0.0152(4) 0.0256(4) 0.17405(8)
N1 N 0.1331(5) 0.0570(4) 0.19615(9)
O2 O 0.9227(5) 0.4411(5) 0.19765(9)
O3 O 0.6298(5) 0.3813(4) 0.06041(8)
C1 C 0.2979(5) 0.1925(5) 0.13668(10)
H1 H 0.1835 0.1611 0.1201
C2 C 0.4647(5) 0.1988(5) 0.20400(10)
H2 H 0.4661 0.1702 0.2325
C3 C 0.4629(5) 0.2789(5) 0.11975(10)
C4 C 0.3043(5) 0.1534(5) 0.17818(10)
O4 O 0.7984(4) 0.2929(5) 0.24800(8)
O5 O 0.1472(4) 0.0114(5) 0.23237(8)
N2 N 0.7941(5) 0.3457(5) 0.21248(9)
C5 C 0.6276(6) 0.3273(5) 0.14430(10)
H3 H 0.7412 0.3858 0.1329
C6 C 0.6219(5) 0.2878(5) 0.18604(10)
C7 C 0.4635(6) 0.3259(5) 0.07427(10)
O6 O 0.3015(4) 0.3065(4) 0.05418(7)
N3 N 0.4970(6) 0.8393(5) 0.04532(9)
H4 H 0.5703 0.9431 0.0438
H5 H 0.3758 0.8564 0.0315
C8 C 0.2763(5) 0.7255(5) 0.09892(10)
C9 C 0.4596(5) 0.8007(5) 0.08650(10)
C10 C 0.5782(6) 0.7824(5) 0.15681(11)
H6 H 0.6829 0.8017 0.1768
C11 C 0.3962(6) 0.7097(5) 0.16902(10)
H7 H 0.3761 0.6799 0.1971
C12 C 0.2454(6) 0.6811(5) 0.14026(11)
H8 H 0.1200 0.6313 0.1483
C13 C 0.6104(6) 0.8271(5) 0.11667(11)
H9 H 0.7369 0.8767 0.1092
C14 C 0.1210(6) 0.6897(6) 0.06869(12)
N4 N -0.0015(5) 0.6578(6) 0.04438(12)
Ag1B Ag 0.30915(4) 0.40918(4) -0.011115(7)
Ag1_2 Ag -0.30915(4) 0.59082(4) 0.011115(7)
O6B O 0.6985(4) 0.6935(4) -0.05418(7)
N4_2 N 0.9985(5) 0.6578(6) 0.04438(12)
O7 O 0.8677(12) 0.0997(9) 0.0361(3)
H10 H 0.8109 0.1961 0.0433
H11 H 0.9080 0.1090 0.0115
loop_
_geom_bond_atom_site_label_1
_geom_bond_atom_site_label_2
_geom_bond_site_symmetry_1
_geom_bond_site_symmetry_2
Ag1 O3 1_555 1_555
O1 N1 1_555 1_555
N1 C4 1_555 1_555
O2 N2 1_555 1_555
O3 C7 1_555 1_555
C1 H1 1_555 1_555
C2 H2 1_555 1_555
C3 C1 1_555 1_555
C4 C1 1_555 1_555
O4 N2 1_555 1_555
O5 N1 1_555 1_555
N2 C6 1_555 1_555
C5 C3 1_555 1_555
H3 C5 1_555 1_555
C6 C2 1_555 1_555
C7 C3 1_555 1_555
O6 C7 1_555 1_555
N3 Ag1 1_555 1_555
H4 N3 1_555 1_555
H5 N3 1_555 1_555
C8 C9 1_555 1_555
C9 N3 1_555 1_555
C10 H6 1_555 1_555
C11 C10 1_555 1_555
H7 C11 1_555 1_555
C12 C8 1_555 1_555
H8 C12 1_555 1_555
C13 C9 1_555 1_555
H9 C13 1_555 1_555
C14 C8 1_555 1_555
N4 C14 1_555 1_555
O7 H10 1_555 1_555
H11 O7 1_555 1_555
Ag1B O6 1_555 1_555
Ag1_2 N4 1_555 1_555
O6B Ag1 1_555 1_555
N4_2 Ag1 1_555 1_555
C2 C4 1_555 1_555
C5 C6 1_555 1_555
C10 C13 1_555 1_555
C11 C12 1_555 1_555

#END
