
#######################################################################
#
#                 Cambridge Crystallographic Data Centre
#                                CCDC 
#
#######################################################################
#
# If this CIF has been generated from an entry in the Cambridge 
# Structural Database, then it will include bibliographic, chemical, 
# crystal, experimental, refinement or atomic coordinate data resulting 
# from the CCDC's data processing and validation procedures.
#
#######################################################################

data_ONAVAB
_symmetry_cell_setting           monoclinic
_symmetry_space_group_name_H-M   'P 21/c'
_symmetry_Int_Tables_number      14
_space_group_name_Hall           '-P 2ybc'
loop_
_symmetry_equiv_pos_site_id
_symmetry_equiv_pos_as_xyz
1 x,y,z
2 -x,1/2+y,1/2-z
3 -x,-y,-z
4 x,1/2-y,1/2+z
_cell_length_a                   5.7742(12)
_cell_length_b                   14.465(3)
_cell_length_c                   9.5903(19)
_cell_angle_alpha                90
_cell_angle_beta                 101.30(3)
_cell_angle_gamma                90
_cell_volume                     785.49
loop_
_atom_site_label
_atom_site_type_symbol
_atom_site_fract_x
_atom_site_fract_y
_atom_site_fract_z
C1 C 0.0891(5) 0.7590(2) 0.5284(3)
C2 C -0.1234(6) 0.7194(2) 0.4334(3)
H1 H -0.1086 0.7295 0.3355
H2 H -0.2613 0.7533 0.4485
C3 C -0.1667(6) 0.6163(2) 0.4535(3)
H3 H -0.2730 0.5932 0.3697
H4 H -0.0182 0.5834 0.4618
C4 C -0.2697(6) 0.59616(19) 0.5816(3)
N1 N 0.1759(5) 0.73566(18) 0.6630(3)
N2 N 0.3656(5) 0.7909(2) 0.7055(3)
N3 N 0.3939(5) 0.8444(2) 0.6016(3)
N4 N 0.2212(5) 0.82599(18) 0.4877(3)
N5 N -0.3003(4) 0.5687(2) 0.7979(3)
N6 N -0.1432(5) 0.58029(19) 0.7129(3)
N7 N -0.5105(4) 0.57878(18) 0.7182(3)
N8 N -0.4994(3) 0.59574(12) 0.58244(18)
O1 O 0.2348(3) 0.47421(12) 0.90403(18)
H5 H 0.3471 0.4421 0.8839
H6 H 0.2332 0.4628 0.9908
Zn1 Zn 0.19633(6) 0.60748(2) 0.80009(4)
N4C N 0.2212(5) 0.67401(18) 0.9877(3)
N7_2 N 0.4895(4) 0.57878(18) 0.7182(3)
Zn1C Zn 0.19633(6) 0.89252(2) 0.30009(4)
Zn1_2 Zn -0.80367(6) 0.60748(2) 0.80009(4)
loop_
_geom_bond_atom_site_label_1
_geom_bond_atom_site_label_2
_geom_bond_site_symmetry_1
_geom_bond_site_symmetry_2
C1 C2 1_555 1_555
C2 H1 1_555 1_555
H2 C2 1_555 1_555
C3 C2 1_555 1_555
H3 C3 1_555 1_555
H4 C3 1_555 1_555
C4 C3 1_555 1_555
N1 C1 1_555 1_555
N2 N1 1_555 1_555
N3 N2 1_555 1_555
N4 C1 1_555 1_555
N5 N6 1_555 1_555
N6 C4 1_555 1_555
N7 N5 1_555 1_555
N8 C4 1_555 1_555
O1 H5 1_555 1_555
H6 O1 1_555 1_555
Zn1 N1 1_555 1_555
N4C Zn1 1_555 1_555
N7_2 Zn1 1_555 1_555
Zn1C N4 1_555 1_555
Zn1_2 N7 1_555 1_555
N3 N4 1_555 1_555
N6 Zn1 1_555 1_555
N7 N8 1_555 1_555
O1 Zn1 1_555 1_555

#END
