
#######################################################################
#
#                 Cambridge Crystallographic Data Centre
#                                CCDC 
#
#######################################################################
#
# If this CIF has been generated from an entry in the Cambridge 
# Structural Database, then it will include bibliographic, chemical, 
# crystal, experimental, refinement or atomic coordinate data resulting 
# from the CCDC's data processing and validation procedures.
#
#######################################################################

data_ONAVIJ
_symmetry_cell_setting           monoclinic
_symmetry_space_group_name_H-M   'P 21/c'
_symmetry_Int_Tables_number      14
_space_group_name_Hall           '-P 2ybc'
loop_
_symmetry_equiv_pos_site_id
_symmetry_equiv_pos_as_xyz
1 x,y,z
2 -x,1/2+y,1/2-z
3 -x,-y,-z
4 x,1/2-y,1/2+z
_cell_length_a                   9.1257(18)
_cell_length_b                   9.2252(18)
_cell_length_c                   7.5961(15)
_cell_angle_alpha                90
_cell_angle_beta                 104.03(3)
_cell_angle_gamma                90
_cell_volume                     620.412
loop_
_atom_site_label
_atom_site_type_symbol
_atom_site_fract_x
_atom_site_fract_y
_atom_site_fract_z
Mn1 Mn 1.0000 1.0000 0.0000
O1 O 1.13296(14) 1.18958(13) 0.11828(18)
N1 N 1.41544(15) 0.74065(15) 0.0512(2)
O2 O 0.96290(18) 0.97481(17) 0.2712(2)
N2 N 1.18743(15) 0.71077(15) 0.0832(2)
N3 N 1.31199(15) 0.64378(15) 0.0765(2)
C1 C 1.34779(16) 0.86913(16) 0.0435(2)
N4 N 1.20633(14) 0.85448(14) 0.06172(19)
C2 C 1.4209(2) 1.01008(15) 0.0158(3)
H1 H 1.4277 1.0709 0.1216
H2 H 1.3579 1.0597 -0.0879
H5 H 1.197(3) 1.232(3) 0.066(4)
H6 H 1.183(2) 1.178(2) 0.214(3)
H7 H 0.928(3) 1.040(3) 0.311(3)
H8 H 0.963(3) 0.908(3) 0.324(3)
Mn1_2 Mn 2.0000 1.0000 0.0000
O1B O 0.86704(14) 0.81042(13) -0.11828(18)
N1B N 1.58456(15) 1.25935(15) -0.0512(2)
O2B O 1.03710(18) 1.02519(17) -0.2712(2)
N2B N 1.81257(15) 1.28923(15) -0.0832(2)
N3B N 1.68801(15) 1.35622(15) -0.0765(2)
C1B C 1.65221(16) 1.13087(16) -0.0435(2)
N4B N 1.79367(14) 1.14552(14) -0.06172(19)
N4B_2 N 0.79367(14) 1.14552(14) -0.06172(19)
C2B C 1.5791(2) 0.98992(15) -0.0158(3)
H1B H 1.5723 0.9291 -0.1216
H2B H 1.6421 0.9403 0.0879
H5B H 0.803(3) 0.768(3) -0.066(4)
H6B H 0.817(2) 0.822(2) -0.214(3)
H7B H 1.072(3) 0.960(3) -0.311(3)
H8B H 1.037(3) 1.092(3) -0.324(3)
O3 O 0.69629(14) 0.64325(14) 0.04156(19)
H3 H 0.611(3) 0.671(2) 0.034(3)
H4 H 0.699(3) 0.563(4) 0.010(4)
loop_
_geom_bond_atom_site_label_1
_geom_bond_atom_site_label_2
_geom_bond_site_symmetry_1
_geom_bond_site_symmetry_2
Mn1 O1 1_555 1_555
O1 H5 1_555 1_555
N1 N3 1_555 1_555
O2 Mn1 1_555 1_555
N2 N3 1_555 1_555
C1 N1 1_555 1_555
N4 Mn1 1_555 1_555
O3 H3 1_555 1_555
C2 C1 1_555 1_555
H1 C2 1_555 1_555
H2 C2 1_555 1_555
H4 O3 1_555 1_555
H6 O1 1_555 1_555
H7 O2 1_555 1_555
H8 O2 1_555 1_555
Mn1_2 N4B 1_555 1_555
O1B Mn1 1_555 1_555
N1B N3B 1_555 1_555
O2B Mn1 1_555 1_555
N2B N3B 1_555 1_555
C1B N1B 1_555 1_555
N4B N2B 1_555 1_555
N4B_2 Mn1 1_555 1_555
C2B C2 1_555 1_555
H1B C2B 1_555 1_555
H2B C2B 1_555 1_555
H5B O1B 1_555 1_555
H6B O1B 1_555 1_555
H7B O2B 1_555 1_555
H8B O2B 1_555 1_555
N2 N4 1_555 1_555
C1 N4 1_555 1_555
C1B N4B 1_555 1_555
C1B C2B 1_555 1_555

#END
