
#######################################################################
#
#                 Cambridge Crystallographic Data Centre
#                                CCDC 
#
#######################################################################
#
# If this CIF has been generated from an entry in the Cambridge 
# Structural Database, then it will include bibliographic, chemical, 
# crystal, experimental, refinement or atomic coordinate data resulting 
# from the CCDC's data processing and validation procedures.
#
#######################################################################

data_ONAWIK02
_symmetry_cell_setting           monoclinic
_symmetry_space_group_name_H-M   'P 21/c'
_symmetry_Int_Tables_number      14
_space_group_name_Hall           '-P 2ybc'
loop_
_symmetry_equiv_pos_site_id
_symmetry_equiv_pos_as_xyz
1 x,y,z
2 -x,1/2+y,1/2-z
3 -x,-y,-z
4 x,1/2-y,1/2+z
_cell_length_a                   7.4564(13)
_cell_length_b                   17.654(3)
_cell_length_c                   8.7158(16)
_cell_angle_alpha                90
_cell_angle_beta                 114.808(3)
_cell_angle_gamma                90
_cell_volume                     1041.43
loop_
_atom_site_label
_atom_site_type_symbol
_atom_site_fract_x
_atom_site_fract_y
_atom_site_fract_z
Cu1 Cu 0.5000 0.5000 0.0000
Cl1 Cl 0.89989(8) 0.53462(3) 0.18901(7)
N1 N 0.3760(3) 0.40441(10) 0.3801(2)
N2 N 0.5737(3) 0.41159(11) 0.4737(2)
N3 N 0.4874(3) 0.45367(10) 0.2092(2)
N4 N -0.3044(3) 0.18930(11) 0.3380(2)
N5 N -0.4647(3) 0.22228(11) 0.3485(2)
N6 N -0.4333(2) 0.10114(10) 0.4324(2)
C1 C 0.2516(4) 0.37016(15) 0.4535(3)
H1 H 0.1968 0.4101 0.4992
H2 H 0.3325 0.3369 0.5471
C2 C 0.0858(3) 0.32517(12) 0.3255(3)
H3 H 0.1395 0.2905 0.2675
H4 H -0.0057 0.3597 0.2408
C3 C -0.0270(3) 0.27968(12) 0.4041(3)
H5 H 0.0653 0.2478 0.4950
H6 H -0.0915 0.3143 0.4533
C4 C -0.1804(4) 0.23051(16) 0.2732(3)
H7 H -0.2650 0.2624 0.1783
H8 H -0.1138 0.1939 0.2301
C5 C 0.6343(3) 0.44185(12) 0.3659(3)
H9 H 0.7671 0.4542 0.3945
C6 C 0.3274(3) 0.42973(13) 0.2248(3)
H10 H 0.1986 0.4306 0.1383
C7 C -0.5364(3) 0.16680(12) 0.4055(3)
H11 H -0.6498 0.1721 0.4261
C8 C -0.2885(3) 0.11779(13) 0.3861(3)
H12 H -0.1906 0.0839 0.3875
Cu1A Cu -0.5000 0.0000 0.5000
Cu1A_2 Cu 1.5000 1.0000 -0.5000
Cl1B Cl 0.10011(8) 0.46538(3) -0.18901(7)
N1B N 0.6240(3) 0.59559(10) -0.3801(2)
N2B N 0.4263(3) 0.58841(11) -0.4737(2)
N3B N 0.5126(3) 0.54633(10) -0.2092(2)
N4B N 1.3044(3) 0.81070(11) -0.3380(2)
N5B N 1.4647(3) 0.77772(11) -0.3485(2)
N6B N 1.4333(2) 0.89886(10) -0.4324(2)
N6A N 0.4333(2) 0.60114(10) 0.0676(2)
N6C N 0.5667(2) 0.39886(10) -0.0676(2)
C1B C 0.7484(4) 0.62984(15) -0.4535(3)
H1B H 0.8032 0.5899 -0.4992
H2B H 0.6675 0.6631 -0.5471
C2B C 0.9142(3) 0.67483(12) -0.3255(3)
H3B H 0.8605 0.7095 -0.2675
H4B H 1.0057 0.6403 -0.2408
C3B C 1.0270(3) 0.72032(12) -0.4041(3)
H5B H 0.9347 0.7522 -0.4950
H6B H 1.0915 0.6857 -0.4533
C4B C 1.1804(4) 0.76949(16) -0.2732(3)
H7B H 1.2650 0.7376 -0.1783
H8B H 1.1138 0.8061 -0.2301
C5B C 0.3657(3) 0.55815(12) -0.3659(3)
H9B H 0.2329 0.5458 -0.3945
C6B C 0.6726(3) 0.57027(13) -0.2248(3)
H10B H 0.8014 0.5694 -0.1383
C7B C 1.5364(3) 0.83320(12) -0.4055(3)
H11B H 1.6498 0.8279 -0.4261
C8B C 1.2885(3) 0.88221(13) -0.3861(3)
H12B H 1.1906 0.9161 -0.3875
loop_
_geom_bond_atom_site_label_1
_geom_bond_atom_site_label_2
_geom_bond_site_symmetry_1
_geom_bond_site_symmetry_2
Cu1 Cl1 1_555 1_555
N1 N2 1_555 1_555
N2 C5 1_555 1_555
N3 Cu1 1_555 1_555
N4 N5 1_555 1_555
N5 C7 1_555 1_555
N6 C7 1_555 1_555
C1 N1 1_555 1_555
H1 C1 1_555 1_555
H2 C1 1_555 1_555
C2 C1 1_555 1_555
H3 C2 1_555 1_555
H4 C2 1_555 1_555
C3 C2 1_555 1_555
H5 C3 1_555 1_555
H6 C3 1_555 1_555
C4 N4 1_555 1_555
H7 C4 1_555 1_555
H8 C4 1_555 1_555
C5 N3 1_555 1_555
H9 C5 1_555 1_555
C6 N1 1_555 1_555
H10 C6 1_555 1_555
C7 H11 1_555 1_555
C8 N4 1_555 1_555
H12 C8 1_555 1_555
Cu1A N6 1_555 1_555
Cu1A_2 N6B 1_555 1_555
Cl1B Cu1 1_555 1_555
N1B N2B 1_555 1_555
N2B C5B 1_555 1_555
N3B Cu1 1_555 1_555
N4B N5B 1_555 1_555
N5B C7B 1_555 1_555
N6B C7B 1_555 1_555
N6A Cu1 1_555 1_555
N6C Cu1 1_555 1_555
C1B N1B 1_555 1_555
H1B C1B 1_555 1_555
H2B C1B 1_555 1_555
C2B C1B 1_555 1_555
H3B C2B 1_555 1_555
H4B C2B 1_555 1_555
C3B C2B 1_555 1_555
H5B C3B 1_555 1_555
H6B C3B 1_555 1_555
C4B N4B 1_555 1_555
H7B C4B 1_555 1_555
H8B C4B 1_555 1_555
C5B N3B 1_555 1_555
H9B C5B 1_555 1_555
C6B N1B 1_555 1_555
H10B C6B 1_555 1_555
C7B H11B 1_555 1_555
C8B N4B 1_555 1_555
H12B C8B 1_555 1_555
N3 C6 1_555 1_555
N6 C8 1_555 1_555
C3 C4 1_555 1_555
N3B C6B 1_555 1_555
N6B C8B 1_555 1_555
C3B C4B 1_555 1_555

#END
