
#######################################################################
#
#                 Cambridge Crystallographic Data Centre
#                                CCDC 
#
#######################################################################
#
# If this CIF has been generated from an entry in the Cambridge 
# Structural Database, then it will include bibliographic, chemical, 
# crystal, experimental, refinement or atomic coordinate data resulting 
# from the CCDC's data processing and validation procedures.
#
#######################################################################

data_ONAWUW
_symmetry_cell_setting           orthorhombic
_symmetry_space_group_name_H-M   'P b c n'
_symmetry_Int_Tables_number      60
_space_group_name_Hall           '-P 2n 2ab'
loop_
_symmetry_equiv_pos_site_id
_symmetry_equiv_pos_as_xyz
1 x,y,z
2 1/2-x,1/2-y,1/2+z
3 1/2+x,1/2-y,-z
4 -x,y,1/2-z
5 -x,-y,-z
6 1/2+x,1/2+y,1/2-z
7 1/2-x,1/2+y,z
8 x,-y,1/2+z
_cell_length_a                   11.5493(4)
_cell_length_b                   15.5884(4)
_cell_length_c                   20.1112(6)
_cell_angle_alpha                90
_cell_angle_beta                 90
_cell_angle_gamma                90
_cell_volume                     3620.72
loop_
_atom_site_label
_atom_site_type_symbol
_atom_site_fract_x
_atom_site_fract_y
_atom_site_fract_z
Ni1 Ni -0.5000 0.5000 0.5000
O1 O -0.68350(16) 0.49295(11) 0.50046(9)
O2 O -0.74310(17) 0.41391(13) 0.41364(10)
N1 N -0.50823(19) 0.55688(14) 0.59204(12)
H1 H -0.4351 0.5779 0.6023
N2 N -0.49300(19) 0.38440(14) 0.55005(12)
H2 H -0.5664 0.3599 0.5493
N3 N -0.4311(2) 0.30214(14) 0.45109(12)
N4 N -0.6710(2) 0.12146(14) 0.30122(12)
N5 N -0.7109(2) 0.10609(16) 0.19430(13)
C1 C -0.5351(3) 0.48654(17) 0.63890(16)
H3 H -0.6188 0.4732 0.6373
H4 H -0.5154 0.5042 0.6848
C2 C -0.4652(3) 0.40762(18) 0.61966(15)
H5 H -0.3814 0.4199 0.6239
H6 H -0.4844 0.3593 0.6496
C3 C -0.4099(3) 0.32221(19) 0.52085(15)
H7 H -0.3306 0.3458 0.5252
H8 H -0.4131 0.2683 0.5469
C4 C -0.5915(2) 0.62906(18) 0.59570(15)
H9 H -0.5900 0.6529 0.6413
H10 H -0.6704 0.6066 0.5876
C5 C -0.5405(3) 0.25488(18) 0.44075(15)
H11 H -0.6064 0.2948 0.4465
H12 H -0.5474 0.2095 0.4750
C6 C -0.5477(3) 0.2140(2) 0.37210(16)
H13 H -0.5461 0.2593 0.3376
H14 H -0.4800 0.1761 0.3651
C7 C -0.6580(3) 0.16234(19) 0.36572(14)
H15 H -0.6589 0.1176 0.4007
H16 H -0.7250 0.2007 0.3735
C8 C -0.7123(3) 0.1572(2) 0.24620(15)
H17 H -0.7402 0.2144 0.2445
C9 C -0.6676(5) 0.0327(2) 0.2184(2)
H18 H -0.6567 -0.0183 0.1932
C10 C -0.6419(5) 0.0411(2) 0.2835(2)
H19 H -0.6093 -0.0016 0.3115
C11 C -0.7613(2) 0.45903(17) 0.46428(14)
C12 C -0.8846(3) 0.47866(18) 0.48353(15)
C13 C -0.9098(2) 0.52908(19) 0.53868(15)
H20 H -0.8484 0.5492 0.5660
C14 C -0.9775(3) 0.44958(19) 0.44567(16)
H21 H -0.9629 0.4142 0.4081
Ni1_2 Ni -1.5000 0.5000 0.5000
O1D O -1.31650(16) 0.50705(11) 0.49954(9)
O1D_2 O -0.31650(16) 0.50705(11) 0.49954(9)
O2D O -1.25690(17) 0.58609(13) 0.58636(10)
N1D N -0.49177(19) 0.44312(14) 0.40796(12)
H1D H -0.5649 0.4221 0.3977
N2D N -0.50700(19) 0.61560(14) 0.44995(12)
H2D H -0.4336 0.6401 0.4507
N3D N -0.5689(2) 0.69786(14) 0.54891(12)
N4D N -0.3290(2) 0.87854(14) 0.69878(12)
N5D N -0.2891(2) 0.89391(16) 0.80570(13)
C1D C -0.4649(3) 0.51346(17) 0.36110(16)
H3D H -0.3812 0.5268 0.3627
H4D H -0.4846 0.4958 0.3152
C2D C -0.5348(3) 0.59238(18) 0.38034(15)
H5D H -0.6186 0.5801 0.3761
H6D H -0.5156 0.6407 0.3504
C3D C -0.5901(3) 0.67779(19) 0.47915(15)
H7D H -0.6694 0.6542 0.4748
H8D H -0.5869 0.7317 0.4531
C4D C -0.4085(2) 0.37094(18) 0.40430(15)
H9D H -0.4100 0.3471 0.3587
H10D H -0.3296 0.3934 0.4124
C5D C -0.4595(3) 0.74512(18) 0.55925(15)
H11D H -0.3936 0.7052 0.5535
H12D H -0.4526 0.7905 0.5250
C6D C -0.4523(3) 0.7860(2) 0.62790(16)
H13D H -0.4539 0.7407 0.6624
H14D H -0.5200 0.8239 0.6349
C7D C -0.3420(3) 0.83766(19) 0.63428(14)
H15D H -0.3411 0.8824 0.5993
H16D H -0.2750 0.7993 0.6265
C8D C -0.2877(3) 0.8428(2) 0.75380(15)
H17D H -0.2598 0.7856 0.7555
C9D C -0.3324(5) 0.9673(2) 0.7816(2)
H18D H -0.3433 1.0183 0.8068
C10D C -0.3581(5) 0.9589(2) 0.7165(2)
H19D H -0.3907 1.0016 0.6885
C11D C -1.2387(2) 0.54097(17) 0.53572(14)
C12D C -1.1154(3) 0.52134(18) 0.51647(15)
C13D C -1.0902(2) 0.47092(19) 0.46132(15)
H20D H -1.1516 0.4508 0.4340
C14D C -1.0225(3) 0.55042(19) 0.55433(16)
H21D H -1.0371 0.5858 0.5919
O3 O -0.21833(19) 0.20616(13) 0.41214(10)
H22 H -0.2412 0.1713 0.3832
H24 H -0.2761 0.2263 0.4313
H23 H 0.0688 0.3241 0.3278
O4 O 0.1375(2) 0.31582(15) 0.31581(13)
H25 H 0.1689 0.3378 0.3495
O5 O -0.1056(2) 0.32123(15) 0.32486(13)
H26 H -0.1414 0.2877 0.3503
H27 H -0.1147 0.3197 0.2834
loop_
_geom_bond_atom_site_label_1
_geom_bond_atom_site_label_2
_geom_bond_site_symmetry_1
_geom_bond_site_symmetry_2
Ni1 O1 1_555 1_555
O1 C11 1_555 1_555
O2 C11 1_555 1_555
N1 Ni1 1_555 1_555
H1 N1 1_555 1_555
N2 Ni1 1_555 1_555
H2 N2 1_555 1_555
N3 C3 1_555 1_555
N4 C7 1_555 1_555
N5 C8 1_555 1_555
C1 N1 1_555 1_555
H3 C1 1_555 1_555
H4 C1 1_555 1_555
C2 N2 1_555 1_555
H5 C2 1_555 1_555
H6 C2 1_555 1_555
C3 N2 1_555 1_555
H7 C3 1_555 1_555
H8 C3 1_555 1_555
C4 N1 1_555 1_555
H9 C4 1_555 1_555
H10 C4 1_555 1_555
C5 N3 1_555 1_555
H11 C5 1_555 1_555
H12 C5 1_555 1_555
C6 C5 1_555 1_555
H13 C6 1_555 1_555
H14 C6 1_555 1_555
C7 C6 1_555 1_555
H15 C7 1_555 1_555
H16 C7 1_555 1_555
C8 N4 1_555 1_555
H17 C8 1_555 1_555
C9 N5 1_555 1_555
H18 C9 1_555 1_555
C10 N4 1_555 1_555
H19 C10 1_555 1_555
C11 C12 1_555 1_555
C12 C13 1_555 1_555
C13 H20 1_555 1_555
C14 C12 1_555 1_555
H21 C14 1_555 1_555
O3 H22 1_555 1_555
H23 O4 1_555 1_555
O4 H25 1_555 1_555
H24 O3 1_555 1_555
O5 H26 1_555 1_555
H27 O5 1_555 1_555
Ni1_2 O1D 1_555 1_555
O1D C11D 1_555 1_555
O1D_2 Ni1 1_555 1_555
O2D C11D 1_555 1_555
N1D Ni1 1_555 1_555
H1D N1D 1_555 1_555
N2D Ni1 1_555 1_555
H2D N2D 1_555 1_555
N3D C4 1_555 1_555
N4D C7D 1_555 1_555
N5D C8D 1_555 1_555
C1D N1D 1_555 1_555
H3D C1D 1_555 1_555
H4D C1D 1_555 1_555
C2D N2D 1_555 1_555
H5D C2D 1_555 1_555
H6D C2D 1_555 1_555
C3D N2D 1_555 1_555
H7D C3D 1_555 1_555
H8D C3D 1_555 1_555
C4D N3 1_555 1_555
H9D C4D 1_555 1_555
H10D C4D 1_555 1_555
C5D N3D 1_555 1_555
H11D C5D 1_555 1_555
H12D C5D 1_555 1_555
C6D C5D 1_555 1_555
H13D C6D 1_555 1_555
H14D C6D 1_555 1_555
C7D C6D 1_555 1_555
H15D C7D 1_555 1_555
H16D C7D 1_555 1_555
C8D N4D 1_555 1_555
H17D C8D 1_555 1_555
C9D N5D 1_555 1_555
H18D C9D 1_555 1_555
C10D N4D 1_555 1_555
H19D C10D 1_555 1_555
C11D C12D 1_555 1_555
C12D C13D 1_555 1_555
C13D C14 1_555 1_555
H20D C13D 1_555 1_555
C14D C13 1_555 1_555
H21D C14D 1_555 1_555
C1 C2 1_555 1_555
C9 C10 1_555 1_555
N1D C4D 1_555 1_555
N3D C3D 1_555 1_555
C1D C2D 1_555 1_555
C9D C10D 1_555 1_555
C12D C14D 1_555 1_555

#END
