
#######################################################################
#
#                 Cambridge Crystallographic Data Centre
#                                CCDC 
#
#######################################################################
#
# If this CIF has been generated from an entry in the Cambridge 
# Structural Database, then it will include bibliographic, chemical, 
# crystal, experimental, refinement or atomic coordinate data resulting 
# from the CCDC's data processing and validation procedures.
#
#######################################################################

data_ONAWIK01
_symmetry_cell_setting           monoclinic
_symmetry_space_group_name_H-M   'P 21/c'
_symmetry_Int_Tables_number      14
_space_group_name_Hall           '-P 2ybc'
loop_
_symmetry_equiv_pos_site_id
_symmetry_equiv_pos_as_xyz
1 x,y,z
2 -x,1/2+y,1/2-z
3 -x,-y,-z
4 x,1/2-y,1/2+z
_cell_length_a                   7.447(2)
_cell_length_b                   17.601(4)
_cell_length_c                   8.716(2)
_cell_angle_alpha                90
_cell_angle_beta                 114.85(3)
_cell_angle_gamma                90
_cell_volume                     1036.67
loop_
_atom_site_label
_atom_site_type_symbol
_atom_site_fract_x
_atom_site_fract_y
_atom_site_fract_z
Cu1 Cu 0.5000 0.5000 0.0000
C1 C 0.5367(6) 0.6667(2) 0.0956(5)
H1 H 0.6497 0.6718 0.0761
C2 C 0.2875(6) 0.6182(3) 0.1137(5)
H2 H 0.1898 0.5848 0.1119
C3 C 0.1827(8) 0.7311(3) 0.2270(5)
H3 H 0.2668 0.7635 0.3192
H4 H 0.1186 0.6951 0.2719
H5 H -0.0648 0.7469 0.0061
H6 H 0.0889 0.8133 0.0436
C4 C 0.0266(6) 0.7793(2) 0.0944(5)
C5 C -0.0859(6) 0.8255(2) 0.1740(4)
H7 H -0.1380 0.7914 0.2329
H8 H 0.0050 0.8603 0.2566
C6 C -0.2535(7) 0.8700(3) 0.0445(5)
H9 H -0.2003 0.9096 -0.0019
H10 H -0.3335 0.8365 -0.0472
C7 C -0.3283(6) 0.9292(2) 0.2742(5)
H11 H -0.2004 0.9296 0.3597
C8 C -0.6336(6) 0.9413(2) 0.1351(5)
H12 H -0.7657 0.9528 0.1070
Cl1 Cl 0.89995(14) 0.53507(7) 0.18906(12)
N1 N 0.4327(5) 0.60123(19) 0.0676(4)
N2 N 0.3052(5) 0.6897(2) 0.1619(4)
N3 N 0.4647(6) 0.7227(2) 0.1525(5)
N4 N -0.3771(5) 0.9042(2) 0.1185(4)
N5 N -0.5725(5) 0.9116(2) 0.0262(4)
N6 N -0.4881(5) 0.95373(19) 0.2911(4)
Cu1A Cu -0.5000 1.0000 0.5000
Cu1A_2 Cu 1.5000 0.0000 -0.5000
C1B C 0.4633(6) 0.3333(2) -0.0956(5)
H1B H 0.3503 0.3282 -0.0761
C2B C 0.7125(6) 0.3818(3) -0.1137(5)
H2B H 0.8102 0.4152 -0.1119
C3B C 0.8173(8) 0.2689(3) -0.2270(5)
H3B H 0.7332 0.2365 -0.3192
H4B H 0.8814 0.3049 -0.2719
H5B H 1.0648 0.2531 -0.0061
H6B H 0.9111 0.1867 -0.0436
C4B C 0.9734(6) 0.2207(2) -0.0944(5)
C5B C 1.0859(6) 0.1745(2) -0.1740(4)
H7B H 1.1380 0.2086 -0.2329
H8B H 0.9950 0.1397 -0.2566
C6B C 1.2535(7) 0.1300(3) -0.0445(5)
H9B H 1.2003 0.0904 0.0019
H10B H 1.3335 0.1635 0.0472
C7B C 1.3283(6) 0.0708(2) -0.2742(5)
H11B H 1.2004 0.0704 -0.3597
C8B C 1.6336(6) 0.0587(2) -0.1351(5)
H12B H 1.7657 0.0472 -0.1070
Cl1B Cl 0.10005(14) 0.46493(7) -0.18906(12)
N1B N 0.5673(5) 0.39877(19) -0.0676(4)
N2B N 0.6948(5) 0.3103(2) -0.1619(4)
N3B N 0.5353(6) 0.2773(2) -0.1525(5)
N4B N 1.3771(5) 0.0958(2) -0.1185(4)
N5B N 1.5725(5) 0.0884(2) -0.0262(4)
N6B N 1.4881(5) 0.04627(19) -0.2911(4)
N6A N 0.4881(5) 0.45373(19) 0.2089(4)
N6C N 0.5119(5) 0.54627(19) -0.2089(4)
loop_
_geom_bond_atom_site_label_1
_geom_bond_atom_site_label_2
_geom_bond_site_symmetry_1
_geom_bond_site_symmetry_2
Cu1 Cl1 1_555 1_555
C1 H1 1_555 1_555
C2 H2 1_555 1_555
C3 H3 1_555 1_555
H4 C3 1_555 1_555
H5 C4 1_555 1_555
H6 C4 1_555 1_555
C4 C3 1_555 1_555
C5 C4 1_555 1_555
H7 C5 1_555 1_555
H8 C5 1_555 1_555
C6 C5 1_555 1_555
H9 C6 1_555 1_555
H10 C6 1_555 1_555
C7 H11 1_555 1_555
C8 H12 1_555 1_555
N1 Cu1 1_555 1_555
N2 C2 1_555 1_555
N3 C1 1_555 1_555
N4 C6 1_555 1_555
N5 C8 1_555 1_555
N6 C7 1_555 1_555
Cu1A N6 1_555 1_555
Cu1A_2 N6B 1_555 1_555
C1B H1B 1_555 1_555
C2B H2B 1_555 1_555
C3B H3B 1_555 1_555
H4B C3B 1_555 1_555
H5B C4B 1_555 1_555
H6B C4B 1_555 1_555
C4B C3B 1_555 1_555
C5B C4B 1_555 1_555
H7B C5B 1_555 1_555
H8B C5B 1_555 1_555
C6B C5B 1_555 1_555
H9B C6B 1_555 1_555
H10B C6B 1_555 1_555
C7B H11B 1_555 1_555
C8B H12B 1_555 1_555
Cl1B Cu1 1_555 1_555
N1B Cu1 1_555 1_555
N2B C2B 1_555 1_555
N3B C1B 1_555 1_555
N4B C6B 1_555 1_555
N5B C8B 1_555 1_555
N6B C7B 1_555 1_555
N6A Cu1 1_555 1_555
N6C Cu1 1_555 1_555
C1 N1 1_555 1_555
C2 N1 1_555 1_555
C3 N2 1_555 1_555
C7 N4 1_555 1_555
C8 N6 1_555 1_555
N2 N3 1_555 1_555
N4 N5 1_555 1_555
C1B N1B 1_555 1_555
C2B N1B 1_555 1_555
C3B N2B 1_555 1_555
C7B N4B 1_555 1_555
C8B N6B 1_555 1_555
N2B N3B 1_555 1_555
N4B N5B 1_555 1_555

#END
