
#######################################################################
#
#                 Cambridge Crystallographic Data Centre
#                                CCDC 
#
#######################################################################
#
# If this CIF has been generated from an entry in the Cambridge 
# Structural Database, then it will include bibliographic, chemical, 
# crystal, experimental, refinement or atomic coordinate data resulting 
# from the CCDC's data processing and validation procedures.
#
#######################################################################

data_ONEFIX
_symmetry_cell_setting           monoclinic
_symmetry_space_group_name_H-M   'C 2/m'
_symmetry_Int_Tables_number      12
_space_group_name_Hall           '-C 2y'
loop_
_symmetry_equiv_pos_site_id
_symmetry_equiv_pos_as_xyz
1 x,y,z
2 -x,y,-z
3 1/2+x,1/2+y,z
4 1/2-x,1/2+y,-z
5 -x,-y,-z
6 x,-y,z
7 1/2-x,1/2-y,-z
8 1/2+x,1/2-y,z
_cell_length_a                   12.774(3)
_cell_length_b                   24.012(5)
_cell_length_c                   18.148(4)
_cell_angle_alpha                90
_cell_angle_beta                 106.63(3)
_cell_angle_gamma                90
_cell_volume                     5333.69
loop_
_atom_site_label
_atom_site_type_symbol
_atom_site_fract_x
_atom_site_fract_y
_atom_site_fract_z
Ag2 Ag 0.7446(9) 0.2403(3) 0.5002(7)
Ag4 Ag 0.8119(4) 0.19961(18) 1.0157(2)
O2 O 0.980(2) 0.1488(11) 1.0959(15)
O19 O 0.8086(17) 0.2123(9) 0.8949(12)
O20 O 0.7589(15) 0.2971(8) 0.8852(10)
N2 N 0.772(2) 0.2530(12) 0.6223(15)
C7 C 0.7934(18) 0.2077(10) 0.6620(12)
H5 H 0.8030 0.1742 0.6369
C8 C 0.803(2) 0.2063(11) 0.7384(16)
H6 H 0.8198 0.1724 0.7663
C9 C 0.787(2) 0.2550(11) 0.7753(14)
C10 C 0.764(2) 0.3025(12) 0.7361(15)
H7 H 0.7515 0.3362 0.7598
C11 C 0.7572(18) 0.2996(10) 0.6522(13)
H8 H 0.7422 0.3322 0.6214
C12 C 0.7822(18) 0.2564(10) 0.8600(12)
Ag2F Ag 0.7554(9) 0.2597(3) 0.4998(7)
Ag2F_2 Ag 0.7554(9) 0.2597(3) 1.4998(7)
Ag2_2 Ag 0.7446(9) 0.2403(3) -0.4998(7)
Ag2_3 Ag 0.7446(9) 0.2403(3) 1.5002(7)
Ag2F_3 Ag 0.7554(9) 0.2597(3) -0.5002(7)
Ag4F Ag 0.6881(4) 0.30039(18) -0.0157(2)
Ag4F_2 Ag 0.6881(4) 0.30039(18) 0.9843(2)
Ag4_2 Ag 0.8119(4) 0.19961(18) 0.0157(2)
O2F O 0.520(2) 0.3512(11) -0.0959(15)
O2F_2 O 0.520(2) 0.3512(11) 0.9041(15)
O2_2 O 0.980(2) 0.1488(11) 0.0959(15)
O19F O 0.6914(17) 0.2877(9) 0.1051(12)
O19F_2 O 0.6914(17) 0.2877(9) 1.1051(12)
O19_2 O 0.8086(17) 0.2123(9) -0.1051(12)
O20F O 0.7411(15) 0.2029(8) 0.1148(10)
O20F_2 O 0.7411(15) 0.2029(8) 1.1148(10)
O20_2 O 0.7589(15) 0.2971(8) -0.1148(10)
N2F N 0.728(2) 0.2470(12) 0.3777(15)
N2F_2 N 0.728(2) 0.2470(12) 1.3777(15)
N2_2 N 0.772(2) 0.2530(12) -0.3777(15)
N2_3 N 0.772(2) 0.2530(12) 1.6223(15)
N2F_3 N 0.728(2) 0.2470(12) -0.6223(15)
C7F C 0.7066(18) 0.2923(10) 0.3380(12)
C7F_2 C 0.7066(18) 0.2923(10) 1.3380(12)
C7_2 C 0.7934(18) 0.2077(10) -0.3380(12)
H5F H 0.6970 0.3258 0.3631
H5F_2 H 0.6970 0.3258 1.3631
H5_2 H 0.8030 0.1742 -0.3631
C8F C 0.697(2) 0.2937(11) 0.2616(16)
C8F_2 C 0.697(2) 0.2937(11) 1.2616(16)
C8_2 C 0.803(2) 0.2063(11) -0.2616(16)
H6F H 0.6802 0.3276 0.2337
H6F_2 H 0.6802 0.3276 1.2337
H6_2 H 0.8198 0.1724 -0.2337
C9F C 0.713(2) 0.2450(11) 0.2247(14)
C9F_2 C 0.713(2) 0.2450(11) 1.2247(14)
C9_2 C 0.787(2) 0.2550(11) -0.2247(14)
C10F C 0.736(2) 0.1975(12) 0.2639(15)
C10F_2 C 0.736(2) 0.1975(12) 1.2639(15)
C10_2 C 0.764(2) 0.3025(12) -0.2639(15)
H7F H 0.7485 0.1638 0.2402
H7F_2 H 0.7485 0.1638 1.2402
H7_2 H 0.7515 0.3362 -0.2402
C11F C 0.7428(18) 0.2004(10) 0.3478(13)
C11F_2 C 0.7428(18) 0.2004(10) 1.3478(13)
C11_2 C 0.7572(18) 0.2996(10) -0.3478(13)
H8F H 0.7578 0.1678 0.3786
H8F_2 H 0.7578 0.1678 1.3786
H8_2 H 0.7422 0.3322 -0.3786
C12F C 0.7178(18) 0.2436(10) 0.1400(12)
C12F_2 C 0.7178(18) 0.2436(10) 1.1400(12)
C12_2 C 0.7822(18) 0.2564(10) -0.1400(12)
Na1 Na 1.0000 0.5000 0.5000
Na2 Na 0.0000 0.928(3) 0.0000
Na3 Na 1.038(8) 0.5000 0.878(6)
W1 W 0.48384(10) 0.42668(4) 0.32870(5)
W2 W 0.25457(11) 0.5000 0.34850(7)
W3 W 0.5104(8) 0.35528(8) 0.4907(5)
W4 W 0.27108(10) 0.42729(5) 0.51985(8)
Si1 Si 0.5000 0.5000 0.5000
Ag1 Ag 0.5000 0.17875(10) 0.5000
Ag3 Ag 0.5000 0.2095(3) 1.0000
O1 O 0.5000 0.1206(11) 1.0000
O3 O 0.140(3) 0.5000 0.277(2)
O4 O 0.446(3) 0.5000 0.416(2)
O5 O 0.466(2) 0.3642(12) 0.3905(16)
O6 O 0.637(2) 0.4232(11) 0.3767(16)
O7 O 0.3326(17) 0.4446(8) 0.3114(12)
O8 O 0.648(2) 0.3677(11) 0.5083(15)
O9 O 0.5000 0.2861(11) 0.5000
O10 O 0.222(2) 0.4440(10) 0.4130(14)
O11 O 0.1629(16) 0.3932(8) 0.5281(11)
O12 O 0.239(3) 0.5000 0.541(2)
O13 O 0.503(2) 0.5000 0.2980(17)
O14 O 0.4743(18) 0.3918(10) 0.2470(13)
O15 O 0.544(2) 0.4456(11) 0.4588(14)
O16 O 0.370(3) 0.5000 0.471(2)
O17 O 0.531(3) 0.1292(12) 0.890(2)
O18 O 0.5286(17) 0.2189(8) 0.8899(12)
N1 N 0.5160(17) 0.1772(9) 0.6223(13)
C1 C 0.5271(16) 0.2258(9) 0.6592(13)
H1 H 0.5314 0.2597 0.6332
C2 C 0.533(2) 0.2255(12) 0.7429(15)
H2 H 0.5358 0.2588 0.7716
C3 C 0.533(2) 0.1747(13) 0.7746(17)
C4 C 0.523(2) 0.1259(14) 0.7357(18)
H3 H 0.5221 0.0906 0.7590
C5 C 0.516(2) 0.1327(13) 0.6580(17)
H4 H 0.5096 0.0995 0.6286
C6 C 0.535(2) 0.1741(9) 0.8620(15)
W1E W 0.48384(10) 0.57332(4) 0.32870(5)
W1A W 0.51616(10) 0.42668(4) 0.67130(5)
W1D W 0.51616(10) 0.57332(4) 0.67130(5)
W2A W 0.74543(11) 0.5000 0.65150(7)
W3A W 0.4896(8) 0.35528(8) 0.5093(5)
W3D W 0.4896(8) 0.64472(8) 0.5093(5)
W3E W 0.5104(8) 0.64472(8) 0.4907(5)
W4E W 0.27108(10) 0.57271(5) 0.51985(8)
W4A W 0.72892(10) 0.42729(5) 0.48015(8)
W4D W 0.72892(10) 0.57271(5) 0.48015(8)
Ag1D Ag 0.5000 0.82125(10) 0.5000
Ag1F Ag 0.0000 0.32125(10) 0.5000
Ag1B Ag 0.0000 0.67875(10) 0.5000
Ag1F_2 Ag 1.0000 0.32125(10) 0.5000
Ag1B_2 Ag 1.0000 0.67875(10) 0.5000
Ag3_2 Ag 0.5000 0.2095(3) 0.0000
Ag3D Ag 0.5000 0.7905(3) 0.0000
Ag3D_2 Ag 0.5000 0.7905(3) 1.0000
O1_2 O 0.5000 0.1206(11) 0.0000
O3A O 0.860(3) 0.5000 0.723(2)
O4A O 0.554(3) 0.5000 0.584(2)
O5A O 0.534(2) 0.3642(12) 0.6095(16)
O5E O 0.466(2) 0.6358(12) 0.3905(16)
O5D O 0.534(2) 0.6358(12) 0.6095(16)
O6A O 0.363(2) 0.4232(11) 0.6233(16)
O6E O 0.637(2) 0.5768(11) 0.3767(16)
O6D O 0.363(2) 0.5768(11) 0.6233(16)
O7E O 0.3326(17) 0.5554(8) 0.3114(12)
O7A O 0.6674(17) 0.4446(8) 0.6886(12)
O7D O 0.6674(17) 0.5554(8) 0.6886(12)
O8A O 0.352(2) 0.3677(11) 0.4917(15)
O8D O 0.352(2) 0.6323(11) 0.4917(15)
O8E O 0.648(2) 0.6323(11) 0.5083(15)
O9D O 0.5000 0.7139(11) 0.5000
O10E O 0.222(2) 0.5560(10) 0.4130(14)
O10A O 0.778(2) 0.4440(10) 0.5870(14)
O10D O 0.778(2) 0.5560(10) 0.5870(14)
O11E O 0.1629(16) 0.6068(8) 0.5281(11)
O11A O 0.8371(16) 0.3932(8) 0.4719(11)
O11D O 0.8371(16) 0.6068(8) 0.4719(11)
O11G O 0.6629(16) 0.1068(8) 0.5281(11)
O11F O 0.3371(16) 0.1068(8) 0.4719(11)
O11C O 0.3371(16) 0.8932(8) 0.4719(11)
O11B O 0.6629(16) 0.8932(8) 0.5281(11)
O12A O 0.761(3) 0.5000 0.459(2)
O13A O 0.497(2) 0.5000 0.7020(17)
O14E O 0.4743(18) 0.6082(10) 0.2470(13)
O14A O 0.5257(18) 0.3918(10) 0.7530(13)
O14D O 0.5257(18) 0.6082(10) 0.7530(13)
O15A O 0.456(2) 0.4456(11) 0.5412(14)
O15D O 0.456(2) 0.5544(11) 0.5412(14)
O15E O 0.544(2) 0.5544(11) 0.4588(14)
O16A O 0.630(3) 0.5000 0.529(2)
O17A O 0.469(3) 0.1292(12) 0.110(2)
O17D O 0.469(3) 0.8708(12) 0.110(2)
O17E O 0.531(3) 0.8708(12) 0.890(2)
O18A O 0.4714(17) 0.2189(8) 0.1101(12)
O18D O 0.4714(17) 0.7811(8) 0.1101(12)
O18E O 0.5286(17) 0.7811(8) 0.8899(12)
O18A_2 O 0.4714(17) 0.2189(8) 1.1101(12)
O18_2 O 0.5286(17) 0.2189(8) -0.1101(12)
N1A N 0.4840(17) 0.1772(9) 0.3777(13)
N1D N 0.4840(17) 0.8228(9) 0.3777(13)
N1E N 0.5160(17) 0.8228(9) 0.6223(13)
C1A C 0.4729(16) 0.2258(9) 0.3408(13)
C1D C 0.4729(16) 0.7742(9) 0.3408(13)
C1E C 0.5271(16) 0.7742(9) 0.6592(13)
H1A H 0.4686 0.2597 0.3668
H1D H 0.4686 0.7403 0.3668
H1E H 0.5314 0.7403 0.6332
C2A C 0.467(2) 0.2255(12) 0.2571(15)
C2D C 0.467(2) 0.7745(12) 0.2571(15)
C2E C 0.533(2) 0.7745(12) 0.7429(15)
H2A H 0.4642 0.2588 0.2284
H2D H 0.4642 0.7412 0.2284
H2E H 0.5358 0.7412 0.7716
C3A C 0.467(2) 0.1747(13) 0.2254(17)
C3D C 0.467(2) 0.8253(13) 0.2254(17)
C3E C 0.533(2) 0.8253(13) 0.7746(17)
C4A C 0.477(2) 0.1259(14) 0.2643(18)
C4D C 0.477(2) 0.8741(14) 0.2643(18)
C4E C 0.523(2) 0.8741(14) 0.7357(18)
H3A H 0.4779 0.0906 0.2410
H3D H 0.4779 0.9094 0.2410
H3E H 0.5221 0.9094 0.7590
C5A C 0.484(2) 0.1327(13) 0.3420(17)
C5D C 0.484(2) 0.8673(13) 0.3420(17)
C5E C 0.516(2) 0.8673(13) 0.6580(17)
H4A H 0.4904 0.0995 0.3714
H4D H 0.4904 0.9005 0.3714
H4E H 0.5096 0.9005 0.6286
C6A C 0.465(2) 0.1741(9) 0.1380(15)
C6D C 0.465(2) 0.8259(9) 0.1380(15)
C6E C 0.535(2) 0.8259(9) 0.8620(15)
Ag5? Ag 0.5000 0.7622(5) 1.0000
Ag6? Ag 0.7358(7) 0.6891(3) -0.0028(5)
loop_
_geom_bond_atom_site_label_1
_geom_bond_atom_site_label_2
_geom_bond_site_symmetry_1
_geom_bond_site_symmetry_2
W1 O5 1_555 1_555
W2 O3 1_555 1_555
W3 O5 1_555 1_555
W4 O10 1_555 1_555
Si1 O4 1_555 1_555
Ag1 O9 1_555 1_555
Ag2 N2 1_555 1_555
Ag3 O1 1_555 1_555
Ag4 O2 1_555 1_555
O4 W2 1_555 1_555
O5 W3A 1_555 1_555
O6 W1 1_555 1_555
O7 W1 1_555 1_555
O8 W3 1_555 1_555
O9 W3 1_555 1_555
O10 W2 1_555 1_555
O11 W4 1_555 1_555
O12 W4 1_555 1_555
O13 W1 1_555 1_555
O14 W1 1_555 1_555
O15 W1 1_555 1_555
O16 W2 1_555 1_555
O17 C6 1_555 1_555
O18 Ag3 1_555 1_555
O19 Ag4 1_555 1_555
O20 C12 1_555 1_555
N1 Ag1 1_555 1_555
N2 C7 1_555 1_555
C1 N1 1_555 1_555
H1 C1 1_555 1_555
C2 C1 1_555 1_555
H2 C2 1_555 1_555
C3 C2 1_555 1_555
C4 C3 1_555 1_555
H3 C4 1_555 1_555
C5 N1 1_555 1_555
H4 C5 1_555 1_555
C6 O18 1_555 1_555
C7 H5 1_555 1_555
C8 C7 1_555 1_555
H6 C8 1_555 1_555
C9 C8 1_555 1_555
C10 C9 1_555 1_555
H7 C10 1_555 1_555
C11 N2 1_555 1_555
H8 C11 1_555 1_555
C12 O19 1_555 1_555
W1E O13 1_555 1_555
W1A O5A 1_555 1_555
W1D O5D 1_555 1_555
W2A O3A 1_555 1_555
W3A W3 1_555 1_555
W3D W3E 1_555 1_555
W3E O5E 1_555 1_555
W4E O12 1_555 1_555
W4A O6 1_555 1_555
W4D O6E 1_555 1_555
Ag1D O9D 1_555 1_555
Ag1F O11 1_555 1_555
Ag1B O11E 1_555 1_555
Ag1F_2 O11A 1_555 1_555
Ag1B_2 O11D 1_555 1_555
Ag2F Ag2 1_555 1_555
Ag2F_2 Ag2_3 1_555 1_555
Ag2_2 Ag2F_3 1_555 1_555
Ag2_3 N2F_2 1_555 1_555
Ag2F_3 N2_2 1_555 1_555
Ag3_2 O1_2 1_555 1_555
Ag3D O18D 1_555 1_555
Ag3D_2 O18E 1_555 1_555
Ag4F O2F 1_555 1_555
Ag4F_2 O20 1_555 1_555
Ag4_2 O2_2 1_555 1_555
O2F_2 Ag4F_2 1_555 1_555
O4A Si1 1_555 1_555
O5A W3 1_555 1_555
O5E W1E 1_555 1_555
O5D W3D 1_555 1_555
O6A W4 1_555 1_555
O6E W1E 1_555 1_555
O6D W1D 1_555 1_555
O7E W2 1_555 1_555
O7A W1A 1_555 1_555
O7D W1D 1_555 1_555
O8A W3 1_555 1_555
O8D W3D 1_555 1_555
O8E W3D 1_555 1_555
O9D W3D 1_555 1_555
O10E W2 1_555 1_555
O10A W2A 1_555 1_555
O10D W2A 1_555 1_555
O11E W4E 1_555 1_555
O11A W4A 1_555 1_555
O11D W4D 1_555 1_555
O11G Ag1 1_555 1_555
O11F Ag1 1_555 1_555
O11C Ag1D 1_555 1_555
O11B Ag1D 1_555 1_555
O12A W4A 1_555 1_555
O13A W1A 1_555 1_555
O14E W1E 1_555 1_555
O14A W1A 1_555 1_555
O14D W1D 1_555 1_555
O15A W4 1_555 1_555
O15D Si1 1_555 1_555
O15E Si1 1_555 1_555
O16A Si1 1_555 1_555
O17A C6A 1_555 1_555
O17D C6D 1_555 1_555
O17E C6E 1_555 1_555
O18A Ag3_2 1_555 1_555
O18D C6D 1_555 1_555
O18E C6E 1_555 1_555
O18A_2 Ag3 1_555 1_555
O18_2 Ag3_2 1_555 1_555
O19F Ag4F 1_555 1_555
O19F_2 Ag4F_2 1_555 1_555
O19_2 Ag4_2 1_555 1_555
O20F Ag4_2 1_555 1_555
O20F_2 Ag4 1_555 1_555
O20_2 Ag4F 1_555 1_555
N1A Ag1 1_555 1_555
N1D Ag1D 1_555 1_555
N1E Ag1D 1_555 1_555
N2F Ag2 1_555 1_555
N2F_2 Ag2F_2 1_555 1_555
N2_2 Ag2_2 1_555 1_555
N2_3 Ag2F_2 1_555 1_555
N2F_3 Ag2_2 1_555 1_555
C1A N1A 1_555 1_555
C1D N1D 1_555 1_555
C1E N1E 1_555 1_555
H1A C1A 1_555 1_555
H1D C1D 1_555 1_555
H1E C1E 1_555 1_555
C2A C1A 1_555 1_555
C2D C1D 1_555 1_555
C2E C1E 1_555 1_555
H2A C2A 1_555 1_555
H2D C2D 1_555 1_555
H2E C2E 1_555 1_555
C3A C2A 1_555 1_555
C3D C2D 1_555 1_555
C3E C2E 1_555 1_555
C4A C3A 1_555 1_555
C4D C3D 1_555 1_555
C4E C3E 1_555 1_555
H3A C4A 1_555 1_555
H3D C4D 1_555 1_555
H3E C4E 1_555 1_555
C5A N1A 1_555 1_555
C5D N1D 1_555 1_555
C5E N1E 1_555 1_555
H4A C5A 1_555 1_555
H4D C5D 1_555 1_555
H4E C5E 1_555 1_555
C6A O18A 1_555 1_555
C6D C3D 1_555 1_555
C6E C3E 1_555 1_555
C7F N2F 1_555 1_555
C7F_2 N2F_2 1_555 1_555
C7_2 N2_2 1_555 1_555
H5F C7F 1_555 1_555
H5F_2 C7F_2 1_555 1_555
H5_2 C7_2 1_555 1_555
C8F C7F 1_555 1_555
C8F_2 C7F_2 1_555 1_555
C8_2 C7_2 1_555 1_555
H6F C8F 1_555 1_555
H6F_2 C8F_2 1_555 1_555
H6_2 C8_2 1_555 1_555
C9F C8F 1_555 1_555
C9F_2 C8F_2 1_555 1_555
C9_2 C8_2 1_555 1_555
C10F C9F 1_555 1_555
C10F_2 C9F_2 1_555 1_555
C10_2 C9_2 1_555 1_555
H7F C10F 1_555 1_555
H7F_2 C10F_2 1_555 1_555
H7_2 C10_2 1_555 1_555
C11F N2F 1_555 1_555
C11F_2 N2F_2 1_555 1_555
C11_2 N2_2 1_555 1_555
H8F C11F 1_555 1_555
H8F_2 C11F_2 1_555 1_555
H8_2 C11_2 1_555 1_555
C12F O19F 1_555 1_555
C12F_2 O19F_2 1_555 1_555
C12_2 O19_2 1_555 1_555
W2 O7 1_555 1_555
W3 O15 1_555 1_555
W4 O8A 1_555 1_555
Si1 O15 1_555 1_555
Si1 O16 1_555 1_555
Si1 O15A 1_555 1_555
O4 O16 1_555 1_555
O8 W3A 1_555 1_555
O8 W4A 1_555 1_555
O9 W3A 1_555 1_555
O15 W4A 1_555 1_555
N2 Ag2F 1_555 1_555
C3 C6 1_555 1_555
C4 C5 1_555 1_555
C9 C12 1_555 1_555
C10 C11 1_555 1_555
W1E O7E 1_555 1_555
W1E O15E 1_555 1_555
W1A O6A 1_555 1_555
W1A O15A 1_555 1_555
W1D O13A 1_555 1_555
W1D O15D 1_555 1_555
W2A O4A 1_555 1_555
W2A O7A 1_555 1_555
W2A O7D 1_555 1_555
W2A O16A 1_555 1_555
W3A O5A 1_555 1_555
W3A O8A 1_555 1_555
W3A O15A 1_555 1_555
W3D O5E 1_555 1_555
W3D O15D 1_555 1_555
W3E O5D 1_555 1_555
W3E O8D 1_555 1_555
W3E O8E 1_555 1_555
W3E O9D 1_555 1_555
W3E O15E 1_555 1_555
W4E O6D 1_555 1_555
W4E O8D 1_555 1_555
W4E O10E 1_555 1_555
W4E O15D 1_555 1_555
W4A O10A 1_555 1_555
W4D O8E 1_555 1_555
W4D O10D 1_555 1_555
W4D O12A 1_555 1_555
W4D O15E 1_555 1_555
Ag2F N2F 1_555 1_555
Ag2_3 N2_3 1_555 1_555
Ag2F_3 N2F_3 1_555 1_555
O4A O16A 1_555 1_555
O20F C12F 1_555 1_555
O20F_2 C12F_2 1_555 1_555
O20_2 C12_2 1_555 1_555
C3A C6A 1_555 1_555
C4A C5A 1_555 1_555
C4D C5D 1_555 1_555
C4E C5E 1_555 1_555
C9F C12F 1_555 1_555
C9F_2 C12F_2 1_555 1_555
C9_2 C12_2 1_555 1_555
C10F C11F 1_555 1_555
C10F_2 C11F_2 1_555 1_555
C10_2 C11_2 1_555 1_555

#END
