
#######################################################################
#
#                 Cambridge Crystallographic Data Centre
#                                CCDC 
#
#######################################################################
#
# If this CIF has been generated from an entry in the Cambridge 
# Structural Database, then it will include bibliographic, chemical, 
# crystal, experimental, refinement or atomic coordinate data resulting 
# from the CCDC's data processing and validation procedures.
#
#######################################################################

data_ONEHEV
_symmetry_cell_setting           monoclinic
_symmetry_space_group_name_H-M   'P 21/c'
_symmetry_Int_Tables_number      14
_space_group_name_Hall           '-P 2ybc'
loop_
_symmetry_equiv_pos_site_id
_symmetry_equiv_pos_as_xyz
1 x,y,z
2 -x,1/2+y,1/2-z
3 -x,-y,-z
4 x,1/2-y,1/2+z
_cell_length_a                   10.1907(5)
_cell_length_b                   12.2584(5)
_cell_length_c                   17.4174(8)
_cell_angle_alpha                90
_cell_angle_beta                 95.359(4)
_cell_angle_gamma                90
_cell_volume                     2166.3
loop_
_atom_site_label
_atom_site_type_symbol
_atom_site_fract_x
_atom_site_fract_y
_atom_site_fract_z
Zn1 Zn 0.53480(4) 0.34613(4) 0.03721(3)
C1 C 0.6246(4) 0.1490(3) 0.1345(2)
H1 H 0.6976 0.1843 0.1591
C2 C 0.4484(4) 0.1130(3) 0.0657(3)
H2 H 0.3729 0.1216 0.0319
C3 C 0.6728(4) -0.0397(3) 0.1853(2)
H3 H 0.7590 -0.0112 0.2033
H4 H 0.6855 -0.1016 0.1521
C4 C 0.6038(4) -0.0778(3) 0.2541(2)
H5 H 0.5929 -0.0154 0.2872
H6 H 0.6609 -0.1293 0.2832
C5 C 0.4694(4) -0.1313(3) 0.2355(2)
H7 H 0.4379 -0.1593 0.2826
H8 H 0.4067 -0.0774 0.2140
C6 C 0.5585(4) -0.3603(3) 0.1333(3)
H9 H 0.6060 -0.4239 0.1272
C7 C 0.4292(4) -0.2270(3) 0.1082(2)
H10 H 0.3699 -0.1778 0.0835
C8 C 0.9245(4) 0.4334(3) 0.0899(2)
C9 C 1.0378(4) 0.3898(3) 0.0649(2)
H11 H 1.0331 0.3239 0.0383
C10 C 1.1581(4) 0.4417(3) 0.0783(2)
C11 C 1.1637(4) 0.5421(3) 0.1175(2)
H12 H 1.2430 0.5796 0.1257
C12 C 1.0507(4) 0.5847(3) 0.1437(2)
C13 C 0.9306(4) 0.5312(3) 0.1302(2)
H13 H 0.8550 0.5607 0.1480
C14 C 0.7939(4) 0.3768(3) 0.0685(2)
C15 C 1.2782(4) 0.3907(3) 0.0493(2)
N1 N 0.5314(3) 0.1968(3) 0.0878(2)
N2 N 0.5988(3) 0.0440(3) 0.1409(2)
N3 N 0.4857(4) 0.0186(3) 0.0968(2)
N4 N 0.4781(3) -0.2205(3) 0.1806(2)
N5 N 0.5632(3) -0.3056(3) 0.1985(2)
N6 N 0.4771(3) -0.3144(3) 0.07547(19)
O1 O 0.6898(3) 0.4220(2) 0.08875(17)
O2 O 0.7911(3) 0.2918(2) 0.02960(16)
O3 O 1.2675(3) 0.3032(2) 0.01391(17)
O4 O 1.3888(3) 0.4404(2) 0.06436(16)
O5 O 1.1665(3) 0.7712(2) 0.1749(2)
O6 O 1.0785(4) 0.6721(3) 0.27805(18)
O7 O 0.9308(3) 0.7613(2) 0.1829(2)
S1 S 1.05823(10) 0.70741(8) 0.19919(6)
Zn1B Zn 0.46520(4) -0.34613(4) -0.03721(3)
Zn1_2 Zn 1.53480(4) 0.34613(4) 0.03721(3)
Zn1_3 Zn -0.46520(4) 0.34613(4) 0.03721(3)
C1B C 0.3754(4) -0.1490(3) -0.1345(2)
H1B H 0.3024 -0.1843 -0.1591
C2B C 0.5516(4) -0.1130(3) -0.0657(3)
H2B H 0.6271 -0.1216 -0.0319
C3B C 0.3272(4) 0.0397(3) -0.1853(2)
H3B H 0.2410 0.0112 -0.2033
H4B H 0.3145 0.1016 -0.1521
C4B C 0.3962(4) 0.0778(3) -0.2541(2)
H5B H 0.4071 0.0154 -0.2872
H6B H 0.3391 0.1293 -0.2832
C5B C 0.5306(4) 0.1313(3) -0.2355(2)
H7B H 0.5621 0.1593 -0.2826
H8B H 0.5933 0.0774 -0.2140
C6B C 0.4415(4) 0.3603(3) -0.1333(3)
H9B H 0.3940 0.4239 -0.1272
C7B C 0.5708(4) 0.2270(3) -0.1082(2)
H10B H 0.6301 0.1778 -0.0835
C8_2 C -0.0755(4) 0.4334(3) 0.0899(2)
C9_2 C 0.0378(4) 0.3898(3) 0.0649(2)
H11_2 H 0.0331 0.3239 0.0383
C10_2 C 0.1581(4) 0.4417(3) 0.0783(2)
C11_2 C 0.1637(4) 0.5421(3) 0.1175(2)
H12_2 H 0.2430 0.5796 0.1257
C12_2 C 0.0507(4) 0.5847(3) 0.1437(2)
C13_2 C -0.0694(4) 0.5312(3) 0.1302(2)
H13_2 H -0.1450 0.5607 0.1480
C14_2 C -0.2061(4) 0.3768(3) 0.0685(2)
C15_2 C 0.2782(4) 0.3907(3) 0.0493(2)
N1B N 0.4686(3) -0.1968(3) -0.0878(2)
N2B N 0.4012(3) -0.0440(3) -0.1409(2)
N3B N 0.5143(4) -0.0186(3) -0.0968(2)
N4B N 0.5219(3) 0.2205(3) -0.1806(2)
N5B N 0.4368(3) 0.3056(3) -0.1985(2)
N6B N 0.5229(3) 0.3144(3) -0.07547(19)
O1_2 O -0.3102(3) 0.4220(2) 0.08875(17)
O1B O 0.3102(3) -0.4220(2) -0.08875(17)
O2_2 O -0.2089(3) 0.2918(2) 0.02960(16)
O3_2 O 0.2675(3) 0.3032(2) 0.01391(17)
O4_2 O 0.3888(3) 0.4404(2) 0.06436(16)
O4B O 0.6112(3) -0.4404(2) -0.06436(16)
O5_2 O 0.1665(3) 0.7712(2) 0.1749(2)
O6_2 O 0.0785(4) 0.6721(3) 0.27805(18)
O7_2 O -0.0692(3) 0.7613(2) 0.1829(2)
S1_2 S 0.05823(10) 0.70741(8) 0.19919(6)
Zn2 Zn 0.0000 0.5000 0.5000
O8 O -0.1459(3) 0.4661(3) 0.40972(18)
H14 H -0.1460 0.4037 0.3890
H15 H -0.1784 0.5147 0.3788
O9 O 0.1144(4) 0.3695(3) 0.4590(3)
H16 H 0.088(8) 0.341(7) 0.420(5)
H17 H 0.144(7) 0.330(6) 0.475(4)
O10 O 0.0883(3) 0.6051(2) 0.42977(18)
H18 H 0.1113 0.6673 0.4478
H19 H 0.0563 0.6095 0.3829
O8B O 0.1459(3) 0.5339(3) 0.59028(18)
H14B H 0.1460 0.5963 0.6110
H15B H 0.1784 0.4853 0.6212
O9B O -0.1144(4) 0.6305(3) 0.5410(3)
H16B H -0.088(8) 0.659(7) 0.580(5)
H17B H -0.144(7) 0.670(6) 0.525(4)
O10B O -0.0883(3) 0.3949(2) 0.57023(18)
H18B H -0.1113 0.3327 0.5522
H19B H -0.0563 0.3905 0.6171
O11 O 0.2139(3) 0.1396(3) 0.1848(2)
H20 H 0.2913 0.1568 0.2023
H21 H 0.1528 0.1777 0.2015
loop_
_geom_bond_atom_site_label_1
_geom_bond_atom_site_label_2
_geom_bond_site_symmetry_1
_geom_bond_site_symmetry_2
Zn1 N1 1_555 1_555
Zn2 O8 1_555 1_555
C1 H1 1_555 1_555
C2 H2 1_555 1_555
C3 H3 1_555 1_555
H4 C3 1_555 1_555
C4 C3 1_555 1_555
H5 C4 1_555 1_555
H6 C4 1_555 1_555
C5 C4 1_555 1_555
H7 C5 1_555 1_555
H8 C5 1_555 1_555
C6 H9 1_555 1_555
C7 H10 1_555 1_555
C8 C9 1_555 1_555
C9 H11 1_555 1_555
C10 C9 1_555 1_555
C11 C10 1_555 1_555
H12 C11 1_555 1_555
C12 C11 1_555 1_555
C13 C8 1_555 1_555
H13 C13 1_555 1_555
C14 C8 1_555 1_555
C15 C10 1_555 1_555
N1 C1 1_555 1_555
N2 C1 1_555 1_555
N3 C2 1_555 1_555
N4 C5 1_555 1_555
N5 C6 1_555 1_555
N6 C6 1_555 1_555
O1 Zn1 1_555 1_555
O2 C14 1_555 1_555
O3 C15 1_555 1_555
O4 C15 1_555 1_555
O5 S1 1_555 1_555
O6 S1 1_555 1_555
O7 S1 1_555 1_555
O8 H14 1_555 1_555
H15 O8 1_555 1_555
O9 Zn2 1_555 1_555
H16 O9 1_555 1_555
H17 O9 1_555 1_555
O10 Zn2 1_555 1_555
H18 O10 1_555 1_555
H19 O10 1_555 1_555
O11 H20 1_555 1_555
H21 O11 1_555 1_555
S1 C12 1_555 1_555
Zn1B N6 1_555 1_555
Zn1_2 O4 1_555 1_555
Zn1_3 O1_2 1_555 1_555
C1B H1B 1_555 1_555
C2B H2B 1_555 1_555
C3B H3B 1_555 1_555
H4B C3B 1_555 1_555
C4B C3B 1_555 1_555
H5B C4B 1_555 1_555
H6B C4B 1_555 1_555
C5B C4B 1_555 1_555
H7B C5B 1_555 1_555
H8B C5B 1_555 1_555
C6B H9B 1_555 1_555
C7B H10B 1_555 1_555
C8_2 C9_2 1_555 1_555
C9_2 H11_2 1_555 1_555
C10_2 C9_2 1_555 1_555
C11_2 C10_2 1_555 1_555
H12_2 C11_2 1_555 1_555
C12_2 C11_2 1_555 1_555
C13_2 C8_2 1_555 1_555
H13_2 C13_2 1_555 1_555
C14_2 C8_2 1_555 1_555
C15_2 C10_2 1_555 1_555
N1B Zn1B 1_555 1_555
N2B C1B 1_555 1_555
N3B C2B 1_555 1_555
N4B C5B 1_555 1_555
N5B C6B 1_555 1_555
N6B Zn1 1_555 1_555
O1_2 C14_2 1_555 1_555
O1B Zn1B 1_555 1_555
O2_2 C14_2 1_555 1_555
O3_2 C15_2 1_555 1_555
O4_2 Zn1 1_555 1_555
O4B Zn1B 1_555 1_555
O5_2 S1_2 1_555 1_555
O6_2 S1_2 1_555 1_555
O7_2 S1_2 1_555 1_555
O8B Zn2 1_555 1_555
H14B O8B 1_555 1_555
H15B O8B 1_555 1_555
O9B Zn2 1_555 1_555
H16B O9B 1_555 1_555
H17B O9B 1_555 1_555
O10B Zn2 1_555 1_555
H18B O10B 1_555 1_555
H19B O10B 1_555 1_555
S1_2 C12_2 1_555 1_555
C2 N1 1_555 1_555
C3 N2 1_555 1_555
C7 N4 1_555 1_555
C7 N6 1_555 1_555
C12 C13 1_555 1_555
C14 O1 1_555 1_555
N2 N3 1_555 1_555
N4 N5 1_555 1_555
C1B N1B 1_555 1_555
C2B N1B 1_555 1_555
C3B N2B 1_555 1_555
C6B N6B 1_555 1_555
C7B N4B 1_555 1_555
C7B N6B 1_555 1_555
C12_2 C13_2 1_555 1_555
C15_2 O4_2 1_555 1_555
N2B N3B 1_555 1_555
N4B N5B 1_555 1_555

#END
