
#######################################################################
#
#                 Cambridge Crystallographic Data Centre
#                                CCDC 
#
#######################################################################
#
# If this CIF has been generated from an entry in the Cambridge 
# Structural Database, then it will include bibliographic, chemical, 
# crystal, experimental, refinement or atomic coordinate data resulting 
# from the CCDC's data processing and validation procedures.
#
#######################################################################

data_ONEHIZ
_symmetry_cell_setting           triclinic
_symmetry_space_group_name_H-M   'P -1'
_symmetry_Int_Tables_number      2
_space_group_name_Hall           '-P 1'
loop_
_symmetry_equiv_pos_site_id
_symmetry_equiv_pos_as_xyz
1 x,y,z
2 -x,-y,-z
_cell_length_a                   9.2465(6)
_cell_length_b                   9.6319(11)
_cell_length_c                   14.1462(14)
_cell_angle_alpha                83.248(9)
_cell_angle_beta                 81.753(7)
_cell_angle_gamma                66.827(9)
_cell_volume                     1143.67
loop_
_atom_site_label
_atom_site_type_symbol
_atom_site_fract_x
_atom_site_fract_y
_atom_site_fract_z
Cd1 Cd 0.0000 1.0000 0.0000
Cd2 Cd 0.53007(2) 0.18157(2) 0.491515(16)
C1 C 0.2778(4) 0.9956(4) 0.1190(3)
H1 H 0.1974 1.0666 0.1559
C2 C 0.3942(4) 0.8460(4) 0.0104(2)
H2 H 0.4174 0.7886 -0.0423
C3 C 0.6678(3) 0.7460(3) 0.0636(2)
H3 H 0.7292 0.8065 0.0676
H4 H 0.7029 0.6978 0.0034
C4 C 0.6968(4) 0.6249(4) 0.1463(2)
H5 H 0.8083 0.5600 0.1421
H6 H 0.6693 0.6730 0.2065
C5 C 0.6006(4) 0.5298(4) 0.1452(2)
H7 H 0.4889 0.5938 0.1516
H8 H 0.6257 0.4837 0.0844
C6 C 0.5420(4) 0.3955(4) 0.3004(2)
H9 H 0.4379 0.4608 0.3154
C7 C 0.7641(4) 0.2167(4) 0.3035(2)
H10 H 0.8456 0.1291 0.3236
C8 C 0.8610(3) -0.2474(3) 0.5984(2)
C9 C 0.7974(3) -0.2946(3) 0.6851(2)
H11 H 0.6988 -0.2327 0.7128
C10 C 0.8801(3) -0.4332(3) 0.7303(2)
C11 C 1.0247(3) -0.5282(3) 0.6874(2)
H12 H 1.0772 -0.6235 0.7164
C12 C 1.0913(3) -0.4820(3) 0.6017(2)
C13 C 1.0094(3) -0.3399(3) 0.5577(2)
H13 H 1.0542 -0.3069 0.5010
C14 C 0.7651(3) -0.1010(3) 0.5460(2)
C15 C 1.2459(3) -0.5876(3) 0.5553(2)
N1 N 0.2514(3) 0.9416(3) 0.0418(2)
N2 N 0.4990(3) 0.8450(3) 0.06588(19)
N3 N 0.4264(3) 0.9393(3) 0.1377(2)
N4 N 0.6341(3) 0.4116(3) 0.22335(19)
N5 N 0.7793(3) 0.2971(3) 0.2242(2)
N6 N 0.6197(3) 0.2723(3) 0.35348(19)
O1 O 0.6142(2) -0.0499(2) 0.57131(15)
O2 O 0.8268(2) -0.0365(2) 0.48234(16)
O3 O 1.3162(2) -0.5417(2) 0.48382(16)
O4 O 1.3004(2) -0.7239(2) 0.59028(15)
O5 O 0.7966(2) -0.6442(2) 0.81767(17)
O6 O 0.9109(2) -0.5240(3) 0.90888(16)
O7 O 0.6456(2) -0.3865(3) 0.86317(16)
O8 O 0.6345(2) 0.2849(2) 0.58817(16)
H14 H 0.6463 0.3649 0.5635
H15 H 0.7209 0.2208 0.6076
O9 O -0.0472(3) 1.2352(2) 0.04443(17)
H16 H -0.0549 1.3121 0.0059
H17 H -0.0960 1.2636 0.0988
O10 O -0.0431(3) 0.9136(3) 0.15636(17)
H18 H -0.1335 0.9175 0.1808
H19 H 0.0289 0.8258 0.1631
S1 S 0.80077(9) -0.50076(9) 0.83929(6)
Cd2A Cd -0.53007(2) 1.81843(2) -0.491515(16)
Cd2A_2 Cd 0.46993(2) -0.18157(2) 0.508485(16)
Cd2_2 Cd 1.53007(2) -0.81843(2) 0.491515(16)
Cd2_3 Cd -0.46993(2) 1.18157(2) 0.491515(16)
Cd2A_3 Cd -0.53007(2) 0.81843(2) 0.508485(16)
C1A C -0.2778(4) 1.0044(4) -0.1190(3)
H1A H -0.1974 0.9334 -0.1559
C2A C -0.3942(4) 1.1540(4) -0.0104(2)
H2A H -0.4174 1.2114 0.0423
C3A C -0.6678(3) 1.2540(3) -0.0636(2)
H3A H -0.7292 1.1935 -0.0676
H4A H -0.7029 1.3022 -0.0034
C4A C -0.6968(4) 1.3751(4) -0.1463(2)
H5A H -0.8083 1.4400 -0.1421
H6A H -0.6693 1.3270 -0.2065
C5A C -0.6006(4) 1.4702(4) -0.1452(2)
H7A H -0.4889 1.4062 -0.1516
H8A H -0.6257 1.5163 -0.0844
C6A C -0.5420(4) 1.6045(4) -0.3004(2)
H9A H -0.4379 1.5392 -0.3154
C7A C -0.7641(4) 1.7833(4) -0.3035(2)
H10A H -0.8456 1.8709 -0.3236
C8_2 C -0.1390(3) 0.7526(3) 0.5984(2)
C9_2 C -0.2026(3) 0.7054(3) 0.6851(2)
H11_2 H -0.3012 0.7673 0.7128
C10_2 C -0.1199(3) 0.5668(3) 0.7303(2)
C11_2 C 0.0247(3) 0.4718(3) 0.6874(2)
H12_2 H 0.0772 0.3765 0.7164
C12_2 C 0.0913(3) 0.5180(3) 0.6017(2)
C13_2 C 0.0094(3) 0.6601(3) 0.5577(2)
H13_2 H 0.0542 0.6931 0.5010
C14_2 C -0.2349(3) 0.8990(3) 0.5460(2)
C15_2 C 0.2459(3) 0.4124(3) 0.5553(2)
N1A N -0.2514(3) 1.0584(3) -0.0418(2)
N2A N -0.4990(3) 1.1550(3) -0.06588(19)
N3A N -0.4264(3) 1.0607(3) -0.1377(2)
N4A N -0.6341(3) 1.5884(3) -0.22335(19)
N5A N -0.7793(3) 1.7029(3) -0.2242(2)
N6A N -0.6197(3) 1.7277(3) -0.35348(19)
O1_2 O -0.3858(2) 0.9501(2) 0.57131(15)
O1A O 0.3858(2) 0.0499(2) 0.42869(15)
O1A_2 O -0.6142(2) 2.0499(2) -0.57131(15)
O1_3 O -0.3858(2) 1.9501(2) -0.42869(15)
O2_2 O -0.1732(2) 0.9635(2) 0.48234(16)
O2A O -0.8268(2) 2.0365(2) -0.48234(16)
O3_2 O 0.3162(2) 0.4583(2) 0.48382(16)
O3A O -0.3162(2) 1.5417(2) -0.48382(16)
O4_2 O 0.3004(2) 0.2761(2) 0.59028(15)
O4A O -0.3004(2) 1.7239(2) -0.59028(15)
O5_2 O -0.2034(2) 0.3558(2) 0.81767(17)
O6_2 O -0.0891(2) 0.4760(3) 0.90888(16)
O7_2 O -0.3544(2) 0.6135(3) 0.86317(16)
O8A O -0.6345(2) 1.7151(2) -0.58817(16)
H14A H -0.6463 1.6351 -0.5635
H15A H -0.7209 1.7792 -0.6076
O9A O 0.0472(3) 0.7648(2) -0.04443(17)
H16A H 0.0549 0.6879 -0.0059
H17A H 0.0960 0.7364 -0.0988
O10A O 0.0431(3) 1.0864(3) -0.15636(17)
H18A H 0.1335 1.0825 -0.1808
H19A H -0.0289 1.1742 -0.1631
S1_2 S -0.19923(9) 0.49924(9) 0.83929(6)
O11 O 0.3226(3) 0.0596(3) 0.74726(17)
H20 H 0.4076 0.0318 0.7729
H21 H 0.3160 0.1226 0.6996
O12 O 0.0920(3) 0.9064(3) 0.34742(18)
H22 H 0.0748 0.8669 0.3019
H23 H 0.0146 0.9297 0.3908
loop_
_geom_bond_atom_site_label_1
_geom_bond_atom_site_label_2
_geom_bond_site_symmetry_1
_geom_bond_site_symmetry_2
Cd1 N1 1_555 1_555
Cd2 N6 1_555 1_555
C1 H1 1_555 1_555
C2 H2 1_555 1_555
C3 H3 1_555 1_555
H4 C3 1_555 1_555
C4 C3 1_555 1_555
H5 C4 1_555 1_555
H6 C4 1_555 1_555
C5 C4 1_555 1_555
H7 C5 1_555 1_555
H8 C5 1_555 1_555
C6 H9 1_555 1_555
C7 H10 1_555 1_555
C8 C9 1_555 1_555
C9 H11 1_555 1_555
C10 C9 1_555 1_555
C11 C10 1_555 1_555
H12 C11 1_555 1_555
C12 C11 1_555 1_555
C13 C8 1_555 1_555
H13 C13 1_555 1_555
C14 C8 1_555 1_555
C15 C12 1_555 1_555
N1 C1 1_555 1_555
N2 C2 1_555 1_555
N3 C1 1_555 1_555
N4 C5 1_555 1_555
N5 C7 1_555 1_555
N6 C6 1_555 1_555
O1 Cd2 1_555 1_555
O2 Cd2 1_555 1_555
O3 C15 1_555 1_555
O4 C15 1_555 1_555
O5 S1 1_555 1_555
O6 S1 1_555 1_555
O7 S1 1_555 1_555
O8 Cd2 1_555 1_555
H14 O8 1_555 1_555
H15 O8 1_555 1_555
O9 Cd1 1_555 1_555
H16 O9 1_555 1_555
H17 O9 1_555 1_555
O10 Cd1 1_555 1_555
H18 O10 1_555 1_555
H19 O10 1_555 1_555
O11 H20 1_555 1_555
H21 O11 1_555 1_555
O12 H22 1_555 1_555
H23 O12 1_555 1_555
S1 C10 1_555 1_555
Cd2A N6A 1_555 1_555
Cd2A_2 O1 1_555 1_555
Cd2_2 O3 1_555 1_555
Cd2_3 O1_2 1_555 1_555
Cd2A_3 O1_2 1_555 1_555
C1A H1A 1_555 1_555
C2A H2A 1_555 1_555
C3A H3A 1_555 1_555
H4A C3A 1_555 1_555
C4A C3A 1_555 1_555
H5A C4A 1_555 1_555
H6A C4A 1_555 1_555
C5A C4A 1_555 1_555
H7A C5A 1_555 1_555
H8A C5A 1_555 1_555
C6A H9A 1_555 1_555
C7A H10A 1_555 1_555
C8_2 C9_2 1_555 1_555
C9_2 H11_2 1_555 1_555
C10_2 C9_2 1_555 1_555
C11_2 C10_2 1_555 1_555
H12_2 C11_2 1_555 1_555
C12_2 C11_2 1_555 1_555
C13_2 C8_2 1_555 1_555
H13_2 C13_2 1_555 1_555
C14_2 C8_2 1_555 1_555
C15_2 C12_2 1_555 1_555
N1A Cd1 1_555 1_555
N2A C2A 1_555 1_555
N3A C1A 1_555 1_555
N4A C5A 1_555 1_555
N5A C7A 1_555 1_555
N6A C6A 1_555 1_555
O1_2 C14_2 1_555 1_555
O1A Cd2 1_555 1_555
O1A_2 Cd2A 1_555 1_555
O1_3 Cd2A 1_555 1_555
O2_2 Cd2_3 1_555 1_555
O2A Cd2A 1_555 1_555
O3_2 Cd2 1_555 1_555
O3A Cd2A 1_555 1_555
O4_2 Cd2 1_555 1_555
O4A Cd2A 1_555 1_555
O5_2 S1_2 1_555 1_555
O6_2 S1_2 1_555 1_555
O7_2 S1_2 1_555 1_555
O8A Cd2A 1_555 1_555
H14A O8A 1_555 1_555
H15A O8A 1_555 1_555
O9A Cd1 1_555 1_555
H16A O9A 1_555 1_555
H17A O9A 1_555 1_555
O10A Cd1 1_555 1_555
H18A O10A 1_555 1_555
H19A O10A 1_555 1_555
S1_2 C10_2 1_555 1_555
C2 N1 1_555 1_555
C3 N2 1_555 1_555
C6 N4 1_555 1_555
C7 N6 1_555 1_555
C12 C13 1_555 1_555
C14 O1 1_555 1_555
C14 O2 1_555 1_555
N2 N3 1_555 1_555
N4 N5 1_555 1_555
O4 Cd2_2 1_555 1_555
Cd2A_2 O1A 1_555 1_555
C1A N1A 1_555 1_555
C2A N1A 1_555 1_555
C3A N2A 1_555 1_555
C6A N4A 1_555 1_555
C7A N6A 1_555 1_555
C12_2 C13_2 1_555 1_555
C14_2 O2_2 1_555 1_555
C15_2 O3_2 1_555 1_555
C15_2 O4_2 1_555 1_555
N2A N3A 1_555 1_555
N4A N5A 1_555 1_555

#END
