
#######################################################################
#
#                 Cambridge Crystallographic Data Centre
#                                CCDC 
#
#######################################################################
#
# If this CIF has been generated from an entry in the Cambridge 
# Structural Database, then it will include bibliographic, chemical, 
# crystal, experimental, refinement or atomic coordinate data resulting 
# from the CCDC's data processing and validation procedures.
#
#######################################################################

data_ONEHUL
_symmetry_cell_setting           triclinic
_symmetry_space_group_name_H-M   'P -1'
_symmetry_Int_Tables_number      2
_space_group_name_Hall           '-P 1'
loop_
_symmetry_equiv_pos_site_id
_symmetry_equiv_pos_as_xyz
1 x,y,z
2 -x,-y,-z
_cell_length_a                   9.4961(10)
_cell_length_b                   10.2213(13)
_cell_length_c                   15.2844(14)
_cell_angle_alpha                98.274(9)
_cell_angle_beta                 105.767(8)
_cell_angle_gamma                99.808(10)
_cell_volume                     1378.27
loop_
_atom_site_label
_atom_site_type_symbol
_atom_site_fract_x
_atom_site_fract_y
_atom_site_fract_z
Zn1 Zn 0.32370(10) 0.16745(8) 0.34299(6)
Zn2 Zn 1.0000 0.0000 1.0000
C1 C 0.3392(10) 0.2842(9) 0.5393(6)
H1 H 0.4157 0.3586 0.5461
C2 C 0.1698(11) 0.1061(10) 0.4898(7)
H2 H 0.1055 0.0289 0.4497
C3 C 0.317(2) 0.3305(17) 0.7012(10)
H3 H 0.2612 0.4013 0.7015
H4 H 0.4231 0.3743 0.7211
C4 C 0.288(2) 0.245(2) 0.7741(13)
H5 H 0.2844 0.2991 0.8306
H6 H 0.1993 0.1713 0.7489
C5 C 0.4569(17) 0.1594(18) 0.8939(10)
H7 H 0.4929 0.2413 0.9416
H8 H 0.3659 0.1087 0.9009
C6 C 0.7163(11) 0.1165(12) 0.9441(6)
H9 H 0.7690 0.2047 0.9720
C7 C 0.6570(10) -0.0931(11) 0.8940(7)
H10 H 0.6656 -0.1826 0.8810
C8 C 0.6381(10) 0.2973(8) 0.3447(6)
H11 H 0.6063 0.3532 0.3038
C9 C 0.6442(10) 0.1505(9) 0.4274(6)
H12 H 0.6128 0.0815 0.4559
C10 C 0.9197(10) 0.3771(10) 0.3795(7)
H13 H 0.8954 0.4444 0.3426
H14 H 0.9674 0.3175 0.3477
C11 C 1.0282(9) 0.4474(9) 0.4733(7)
H15 H 1.1212 0.4909 0.4647
H16 H 1.0505 0.3796 0.5102
C12 C 0.2800(10) 0.4128(8) 0.3103(7)
C13 C 0.1981(8) 0.5158(7) 0.2695(5)
C14 C 0.0652(9) 0.4747(8) 0.1972(5)
H17 H 0.0255 0.3829 0.1728
C15 C -0.0086(9) 0.5689(8) 0.1613(5)
C16 C 0.0504(9) 0.7067(8) 0.1964(5)
H18 H 0.0009 0.7699 0.1710
C17 C 0.1827(8) 0.7497(7) 0.2689(5)
C18 C 0.2549(8) 0.6528(7) 0.3056(5)
H19 H 0.3427 0.6808 0.3553
C19 C 0.2560(8) 0.8968(7) 0.3096(5)
N1 N 0.2729(7) 0.1903(7) 0.4638(5)
N2 N 0.2775(11) 0.2539(9) 0.6045(5)
N3 N 0.1685(10) 0.1422(8) 0.5743(6)
N4 N 0.5691(11) 0.0789(14) 0.9039(6)
N5 N 0.5292(9) -0.0566(13) 0.8707(8)
N6 N 0.7758(7) 0.0103(7) 0.9385(4)
N7 N 0.5477(7) 0.2053(6) 0.3697(5)
N8 N 0.7806(7) 0.2975(7) 0.3867(5)
N9 N 0.7873(8) 0.2026(8) 0.4402(6)
O1 O 0.2247(6) 0.2882(5) 0.2683(4)
O2 O 0.3884(8) 0.4507(6) 0.3805(5)
O3 O -0.1551(11) 0.4196(10) -0.0018(7)
O4 O -0.2792(7) 0.4318(7) 0.1168(5)
O5 O -0.2298(11) 0.6234(10) 0.0444(7)
O6 O 0.1951(6) 0.9863(5) 0.2708(3)
O7 O 0.3692(6) 0.9285(5) 0.3773(4)
O8 O 1.0495(6) -0.0049(7) 0.8709(4)
H20 H 0.9776 0.0064 0.8273
H21 H 1.0840 -0.0729 0.8548
O9 O 1.0701(8) 0.2148(7) 1.0382(7)
H22 H 0.9993 0.2564 1.0245
H23 H 1.1340 0.2334 1.0096
S1 S -0.1833(3) 0.5079(3) 0.07354(18)
C20 C 0.4193(19) 0.2014(19) 0.7841(11)
H28 H 0.4989 0.2729 0.7818
H29 H 0.4069 0.1231 0.7363
Zn1A Zn 1.67630(10) -0.16745(8) 1.65701(6)
Zn1_2 Zn 0.32370(10) 1.16745(8) 0.34299(6)
Zn1A_2 Zn 1.67630(10) 0.83255(8) 0.65701(6)
Zn1_3 Zn 0.32370(10) -0.83255(8) 0.34299(6)
C1A C 1.6608(10) -0.2842(9) 1.4607(6)
H1A H 1.5843 -0.3586 1.4539
C2A C 1.8302(11) -0.1061(10) 1.5102(7)
H2A H 1.8945 -0.0289 1.5503
C3A C 1.683(2) -0.3305(17) 1.2988(10)
H3A H 1.7388 -0.4013 1.2985
H4A H 1.5769 -0.3743 1.2789
C4A C 1.712(2) -0.245(2) 1.2259(13)
H5A H 1.7156 -0.2991 1.1694
H6A H 1.8007 -0.1713 1.2511
C5A C 1.5431(17) -0.1594(18) 1.1061(10)
H7A H 1.5071 -0.2413 1.0584
H8A H 1.6341 -0.1087 1.0991
C6A C 1.2837(11) -0.1165(12) 1.0559(6)
H9A H 1.2310 -0.2047 1.0280
C7A C 1.3430(10) 0.0931(11) 1.1060(7)
H10A H 1.3344 0.1826 1.1190
C8A C 1.3619(10) 0.7027(8) 0.6553(6)
H11A H 1.3937 0.6468 0.6962
C9A C 1.3558(10) 0.8495(9) 0.5726(6)
H12A H 1.3872 0.9185 0.5441
C10A C 1.0803(10) 0.6229(10) 0.6205(7)
H13A H 1.1046 0.5556 0.6574
H14A H 1.0326 0.6825 0.6523
C11A C 0.9718(9) 0.5526(9) 0.5267(7)
H15A H 0.8788 0.5091 0.5353
H16A H 0.9495 0.6204 0.4898
C12_2 C 0.2800(10) -0.5872(8) 0.3103(7)
C13_2 C 0.1981(8) -0.4842(7) 0.2695(5)
C14_2 C 0.0652(9) -0.5253(8) 0.1972(5)
H17_2 H 0.0255 -0.6171 0.1728
C15_2 C -0.0086(9) -0.4311(8) 0.1613(5)
C16_2 C 0.0504(9) -0.2933(8) 0.1964(5)
H18_2 H 0.0009 -0.2301 0.1710
C17_2 C 0.1827(8) -0.2503(7) 0.2689(5)
C18_2 C 0.2549(8) -0.3472(7) 0.3056(5)
H19_2 H 0.3427 -0.3192 0.3553
C19_2 C 0.2560(8) -0.1032(7) 0.3096(5)
N1A N 1.7271(7) -0.1903(7) 1.5362(5)
N2A N 1.7225(11) -0.2539(9) 1.3955(5)
N3A N 1.8315(10) -0.1422(8) 1.4257(6)
N4A N 1.4309(11) -0.0789(14) 1.0961(6)
N5A N 1.4708(9) 0.0566(13) 1.1293(8)
N6A N 1.2242(7) -0.0103(7) 1.0615(4)
N7A N 1.4523(7) 0.7947(6) 0.6303(5)
N7A_2 N 1.4523(7) -0.2053(6) 1.6303(5)
N8A N 1.2194(7) 0.7025(7) 0.6133(5)
N9A N 1.2127(8) 0.7974(8) 0.5598(6)
O1_2 O 0.2247(6) -0.7118(5) 0.2683(4)
O1A O 1.7753(6) -0.2882(5) 1.7317(4)
O2_2 O 0.3884(8) -0.5493(6) 0.3805(5)
O3_2 O -0.1551(11) -0.5804(10) -0.0018(7)
O4_2 O -0.2792(7) -0.5682(7) 0.1168(5)
O5_2 O -0.2298(11) -0.3766(10) 0.0444(7)
O6_2 O 0.1951(6) -0.0137(5) 0.2708(3)
O6A O 1.8049(6) 0.0137(5) 1.7292(3)
O7_2 O 0.3692(6) -0.0715(5) 0.3773(4)
O8A O 0.9505(6) 0.0049(7) 1.1291(4)
H20A H 1.0224 -0.0064 1.1727
H21A H 0.9160 0.0729 1.1452
O9A O 0.9299(8) -0.2148(7) 0.9618(7)
H22A H 1.0007 -0.2564 0.9755
H23A H 0.8660 -0.2334 0.9904
S1_2 S -0.1833(3) -0.4921(3) 0.07354(18)
C20A C 1.5807(19) -0.2014(19) 1.2159(11)
H28A H 1.5011 -0.2729 1.2182
H29A H 1.5931 -0.1231 1.2637
O10 O 0.4429(9) 0.4198(9) 0.1485(5)
H24 H 0.4016 0.4876 0.1541
H25 H 0.5245 0.4432 0.1356
O11 O 0.7796(7) 0.1854(7) 0.1706(4)
H26 H 0.7813 0.2619 0.1532
H27 H 0.6895 0.1484 0.1654
loop_
_geom_bond_atom_site_label_1
_geom_bond_atom_site_label_2
_geom_bond_site_symmetry_1
_geom_bond_site_symmetry_2
Zn1 N1 1_555 1_555
Zn2 N6 1_555 1_555
C1 H1 1_555 1_555
C2 H2 1_555 1_555
C3 H3 1_555 1_555
H4 C3 1_555 1_555
C4 C3 1_555 1_555
H5 C4 1_555 1_555
H6 C4 1_555 1_555
C5 H7 1_555 1_555
H8 C5 1_555 1_555
C6 H9 1_555 1_555
C7 H10 1_555 1_555
C8 H11 1_555 1_555
C9 H12 1_555 1_555
C10 H13 1_555 1_555
H14 C10 1_555 1_555
C11 C10 1_555 1_555
H15 C11 1_555 1_555
H16 C11 1_555 1_555
C12 C13 1_555 1_555
C13 C14 1_555 1_555
C14 H17 1_555 1_555
C15 C14 1_555 1_555
C16 C15 1_555 1_555
H18 C16 1_555 1_555
C17 C16 1_555 1_555
C18 C13 1_555 1_555
H19 C18 1_555 1_555
C19 C17 1_555 1_555
N1 C1 1_555 1_555
N2 C1 1_555 1_555
N3 C2 1_555 1_555
N4 C5 1_555 1_555
N5 C7 1_555 1_555
N6 C6 1_555 1_555
N7 Zn1 1_555 1_555
N8 C8 1_555 1_555
N9 C9 1_555 1_555
O1 Zn1 1_555 1_555
O2 C12 1_555 1_555
O3 S1 1_555 1_555
O4 S1 1_555 1_555
O5 S1 1_555 1_555
O6 C19 1_555 1_555
O7 C19 1_555 1_555
O8 Zn2 1_555 1_555
H20 O8 1_555 1_555
H21 O8 1_555 1_555
O9 Zn2 1_555 1_555
H22 O9 1_555 1_555
H23 O9 1_555 1_555
O10 H24 1_555 1_555
H25 O10 1_555 1_555
O11 H26 1_555 1_555
H27 O11 1_555 1_555
S1 C15 1_555 1_555
C20 C4 1_555 1_555
H28 C20 1_555 1_555
H29 C20 1_555 1_555
Zn1A N1A 1_555 1_555
Zn1_2 O6 1_555 1_555
Zn1A_2 N7A 1_555 1_555
Zn1_3 O1_2 1_555 1_555
C1A H1A 1_555 1_555
C2A H2A 1_555 1_555
C3A H3A 1_555 1_555
H4A C3A 1_555 1_555
C4A C3A 1_555 1_555
H5A C4A 1_555 1_555
H6A C4A 1_555 1_555
C5A H7A 1_555 1_555
H8A C5A 1_555 1_555
C6A H9A 1_555 1_555
C7A H10A 1_555 1_555
C8A H11A 1_555 1_555
C9A H12A 1_555 1_555
C10A H13A 1_555 1_555
H14A C10A 1_555 1_555
C11A C11 1_555 1_555
H15A C11A 1_555 1_555
H16A C11A 1_555 1_555
C12_2 C13_2 1_555 1_555
C13_2 C14_2 1_555 1_555
C14_2 H17_2 1_555 1_555
C15_2 C14_2 1_555 1_555
C16_2 C15_2 1_555 1_555
H18_2 C16_2 1_555 1_555
C17_2 C16_2 1_555 1_555
C18_2 C13_2 1_555 1_555
H19_2 C18_2 1_555 1_555
C19_2 C17_2 1_555 1_555
N1A C1A 1_555 1_555
N2A C1A 1_555 1_555
N3A C2A 1_555 1_555
N4A C5A 1_555 1_555
N5A C7A 1_555 1_555
N6A Zn2 1_555 1_555
N7A C8A 1_555 1_555
N7A_2 Zn1A 1_555 1_555
N8A C8A 1_555 1_555
N9A C9A 1_555 1_555
O1_2 C12_2 1_555 1_555
O1A Zn1A 1_555 1_555
O2_2 C12_2 1_555 1_555
O3_2 S1_2 1_555 1_555
O4_2 S1_2 1_555 1_555
O5_2 S1_2 1_555 1_555
O6_2 Zn1 1_555 1_555
O6A Zn1A 1_555 1_555
O7_2 C19_2 1_555 1_555
O8A Zn2 1_555 1_555
H20A O8A 1_555 1_555
H21A O8A 1_555 1_555
O9A Zn2 1_555 1_555
H22A O9A 1_555 1_555
H23A O9A 1_555 1_555
S1_2 C15_2 1_555 1_555
C20A C4A 1_555 1_555
H28A C20A 1_555 1_555
H29A C20A 1_555 1_555
C2 N1 1_555 1_555
C3 N2 1_555 1_555
C5 C20 1_555 1_555
C6 N4 1_555 1_555
C7 N6 1_555 1_555
C8 N7 1_555 1_555
C9 N7 1_555 1_555
C10 N8 1_555 1_555
C12 O1 1_555 1_555
C17 C18 1_555 1_555
N2 N3 1_555 1_555
N4 N5 1_555 1_555
N8 N9 1_555 1_555
C2A N1A 1_555 1_555
C3A N2A 1_555 1_555
C5A C20A 1_555 1_555
C6A N4A 1_555 1_555
C6A N6A 1_555 1_555
C7A N6A 1_555 1_555
C9A N7A 1_555 1_555
C10A C11A 1_555 1_555
C10A N8A 1_555 1_555
C17_2 C18_2 1_555 1_555
C19_2 O6_2 1_555 1_555
N2A N3A 1_555 1_555
N4A N5A 1_555 1_555
N8A N9A 1_555 1_555

#END
