
#######################################################################
#
#                 Cambridge Crystallographic Data Centre
#                                CCDC 
#
#######################################################################
#
# If this CIF has been generated from an entry in the Cambridge 
# Structural Database, then it will include bibliographic, chemical, 
# crystal, experimental, refinement or atomic coordinate data resulting 
# from the CCDC's data processing and validation procedures.
#
#######################################################################

data_ONESAC
_symmetry_cell_setting           monoclinic
_symmetry_space_group_name_H-M   'C 2/m'
_symmetry_Int_Tables_number      12
_space_group_name_Hall           '-C 2y'
loop_
_symmetry_equiv_pos_site_id
_symmetry_equiv_pos_as_xyz
1 x,y,z
2 -x,y,-z
3 1/2+x,1/2+y,z
4 1/2-x,1/2+y,-z
5 -x,-y,-z
6 x,-y,z
7 1/2-x,1/2-y,-z
8 1/2+x,1/2-y,z
_cell_length_a                   16.3896(8)
_cell_length_b                   28.9887(14)
_cell_length_c                   15.5718(8)
_cell_angle_alpha                90
_cell_angle_beta                 110.2480(10)
_cell_angle_gamma                90
_cell_volume                     6941.17
loop_
_atom_site_label
_atom_site_type_symbol
_atom_site_fract_x
_atom_site_fract_y
_atom_site_fract_z
Mn1 Mn 0.2500 0.2500 0.0000
Cl1 Cl 0.13831(3) 0.26522(2) 0.25156(4)
Cl2 Cl 0.24702(5) 0.20334(3) 0.41851(4)
Cl3 Cl 0.40706(5) 0.14796(3) 0.40780(4)
Cl4 Cl 0.45998(4) 0.15669(2) 0.23276(4)
O1 O 0.32514(9) 0.20523(5) 0.07823(9)
O2 O 0.19557(9) 0.25495(5) 0.08956(9)
N1 N 0.36086(11) 0.30682(6) 0.08608(12)
N2 N 0.20327(10) 0.36568(6) 0.06881(12)
H3 H 0.2156 0.3938 0.0486
H4 H 0.1999 0.3441 0.0244
C1 C 0.43778(14) 0.29666(8) 0.07757(16)
H5 H 0.4405 0.2708 0.0410
C2 C 0.51275(15) 0.32145(10) 0.11864(18)
H6 H 0.5656 0.3128 0.1108
C3 C 0.50965(17) 0.35905(13) 0.1714(2)
H7 H 0.5602 0.3771 0.2000
C4 C 0.43147(17) 0.37018(11) 0.1820(2)
H8 H 0.4277 0.3960 0.2179
C5 C 0.35894(13) 0.34320(7) 0.13970(15)
C6 C 0.27518(13) 0.35283(7) 0.15544(15)
H9 H 0.2578 0.3251 0.1821
H10 H 0.2844 0.3783 0.2001
C7 C 0.11739(13) 0.36845(8) 0.08271(14)
H11 H 0.1174 0.3953 0.1221
H12 H 0.1086 0.3403 0.1143
C8 C 0.04377(12) 0.37327(7) -0.00760(14)
H13 H 0.0455 0.3474 -0.0484
H14 H 0.0505 0.4024 -0.0376
C9 C 0.31272(12) 0.20539(7) 0.15969(13)
C10 C 0.24147(12) 0.23109(7) 0.16466(13)
C11 C 0.22278(13) 0.23130(7) 0.24528(14)
C12 C 0.27320(15) 0.20498(8) 0.32027(15)
C13 C 0.34497(15) 0.18070(8) 0.31608(15)
C14 C 0.36618(13) 0.18249(7) 0.23664(14)
Mn1A Mn -0.2500 0.2500 0.0000
Cl1F Cl 0.36169(3) 0.23478(2) -0.25156(4)
Cl2F Cl 0.25298(5) 0.29666(3) -0.41851(4)
Cl3F Cl 0.09294(5) 0.35204(3) -0.40780(4)
Cl4F Cl 0.04002(4) 0.34331(2) -0.23276(4)
O1F O 0.17486(9) 0.29477(5) -0.07823(9)
O2F O 0.30443(9) 0.24505(5) -0.08956(9)
N1A N -0.36086(11) 0.30682(6) -0.08608(12)
N1F N 0.13914(11) 0.19318(6) -0.08608(12)
N2A N -0.20327(10) 0.36568(6) -0.06881(12)
H3A H -0.2156 0.3938 -0.0486
H4A H -0.1999 0.3441 -0.0244
C1A C -0.43778(14) 0.29666(8) -0.07757(16)
H5A H -0.4405 0.2708 -0.0410
C2A C -0.51275(15) 0.32145(10) -0.11864(18)
H6A H -0.5656 0.3128 -0.1108
C3A C -0.50965(17) 0.35905(13) -0.1714(2)
H7A H -0.5602 0.3771 -0.2000
C4A C -0.43147(17) 0.37018(11) -0.1820(2)
H8A H -0.4277 0.3960 -0.2179
C5A C -0.35894(13) 0.34320(7) -0.13970(15)
C6A C -0.27518(13) 0.35283(7) -0.15544(15)
H9A H -0.2578 0.3251 -0.1821
H10A H -0.2844 0.3783 -0.2001
C7A C -0.11739(13) 0.36845(8) -0.08271(14)
H11A H -0.1174 0.3953 -0.1221
H12A H -0.1086 0.3403 -0.1143
C8A C -0.04377(12) 0.37327(7) 0.00760(14)
H13A H -0.0455 0.3474 0.0484
H14A H -0.0505 0.4024 0.0376
C9F C 0.18728(12) 0.29461(7) -0.15969(13)
C10F C 0.25853(12) 0.26891(7) -0.16466(13)
C11F C 0.27722(13) 0.26870(7) -0.24528(14)
C12F C 0.22680(15) 0.29502(8) -0.32027(15)
C13F C 0.15503(15) 0.31930(8) -0.31608(15)
C14F C 0.13382(13) 0.31751(7) -0.23664(14)
Mn2 Mn 0.24807(3) 0.5000 0.12985(3)
Cl5 Cl 0.18356(4) 0.39225(2) 0.33891(4)
Cl6 Cl 0.14195(4) 0.44585(3) 0.49474(4)
Cl7 Cl 0.28446(4) 0.392432(18) -0.09827(4)
Cl8 Cl 0.29786(3) 0.445910(19) -0.26896(3)
O3 O 0.22696(10) 0.45515(5) 0.20864(10)
O4 O 0.26264(9) 0.45490(5) 0.04524(9)
O5 O 0.10509(16) 0.5000 0.05024(19)
H1 H 0.0707(16) 0.5000 0.079(2)
O6 O 0.38913(15) 0.5000 0.21611(16)
H2 H 0.4323(13) 0.5000 0.202(2)
C15 C 0.20669(12) 0.47567(7) 0.27552(13)
C16 C 0.18549(13) 0.45220(8) 0.34227(14)
C17 C 0.16585(13) 0.47621(8) 0.41111(14)
C18 C 0.27107(11) 0.47571(7) -0.02840(13)
C19 C 0.28120(12) 0.45207(7) -0.10209(13)
C20 C 0.28932(12) 0.47635(7) -0.17666(13)
Cl5E Cl 0.18356(4) 0.60775(2) 0.33891(4)
Cl6E Cl 0.14195(4) 0.55415(3) 0.49474(4)
Cl7E Cl 0.28446(4) 0.607568(18) -0.09827(4)
Cl8E Cl 0.29786(3) 0.554090(19) -0.26896(3)
O3E O 0.22696(10) 0.54485(5) 0.20864(10)
O4E O 0.26264(9) 0.54510(5) 0.04524(9)
C15E C 0.20669(12) 0.52433(7) 0.27552(13)
C16E C 0.18549(13) 0.54780(8) 0.34227(14)
C17E C 0.16585(13) 0.52379(8) 0.41111(14)
C18E C 0.27107(11) 0.52429(7) -0.02840(13)
C19E C 0.28120(12) 0.54793(7) -0.10209(13)
C20E C 0.28932(12) 0.52365(7) -0.17666(13)
loop_
_geom_bond_atom_site_label_1
_geom_bond_atom_site_label_2
_geom_bond_site_symmetry_1
_geom_bond_site_symmetry_2
Mn1 O1 1_555 1_555
Mn2 O3 1_555 1_555
Cl1 C11 1_555 1_555
Cl2 C12 1_555 1_555
Cl3 C13 1_555 1_555
Cl4 C14 1_555 1_555
Cl5 C16 1_555 1_555
Cl6 C17 1_555 1_555
Cl7 C19 1_555 1_555
Cl8 C20 1_555 1_555
O1 C9 1_555 1_555
O2 Mn1 1_555 1_555
O3 C15 1_555 1_555
O4 Mn2 1_555 1_555
O5 Mn2 1_555 1_555
H1 O5 1_555 1_555
O6 Mn2 1_555 1_555
H2 O6 1_555 1_555
N1 Mn1 1_555 1_555
N2 H3 1_555 1_555
H4 N2 1_555 1_555
C1 N1 1_555 1_555
H5 C1 1_555 1_555
C2 C1 1_555 1_555
H6 C2 1_555 1_555
C3 C2 1_555 1_555
H7 C3 1_555 1_555
C4 C3 1_555 1_555
H8 C4 1_555 1_555
C5 N1 1_555 1_555
C6 N2 1_555 1_555
H9 C6 1_555 1_555
H10 C6 1_555 1_555
C7 N2 1_555 1_555
H11 C7 1_555 1_555
H12 C7 1_555 1_555
C8 C7 1_555 1_555
H13 C8 1_555 1_555
H14 C8 1_555 1_555
C9 C10 1_555 1_555
C10 O2 1_555 1_555
C11 C10 1_555 1_555
C12 C11 1_555 1_555
C13 C12 1_555 1_555
C14 C9 1_555 1_555
C15 C16 1_555 1_555
C16 C17 1_555 1_555
C17 C17E 1_555 1_555
C18 O4 1_555 1_555
C19 C18 1_555 1_555
C20 C19 1_555 1_555
Mn1A N1A 1_555 1_555
Cl1F C11F 1_555 1_555
Cl2F C12F 1_555 1_555
Cl3F C13F 1_555 1_555
Cl4F C14F 1_555 1_555
Cl5E C16E 1_555 1_555
Cl6E C17E 1_555 1_555
Cl7E C19E 1_555 1_555
Cl8E C20E 1_555 1_555
O1F Mn1 1_555 1_555
O2F Mn1 1_555 1_555
O3E Mn2 1_555 1_555
O4E Mn2 1_555 1_555
N1A C1A 1_555 1_555
N1F Mn1 1_555 1_555
N2A H3A 1_555 1_555
H4A N2A 1_555 1_555
C1A H5A 1_555 1_555
C2A C1A 1_555 1_555
H6A C2A 1_555 1_555
C3A C2A 1_555 1_555
H7A C3A 1_555 1_555
C4A C3A 1_555 1_555
H8A C4A 1_555 1_555
C5A N1A 1_555 1_555
C6A N2A 1_555 1_555
H9A C6A 1_555 1_555
H10A C6A 1_555 1_555
C7A N2A 1_555 1_555
H11A C7A 1_555 1_555
H12A C7A 1_555 1_555
C8A C8 1_555 1_555
H13A C8A 1_555 1_555
H14A C8A 1_555 1_555
C9F O1F 1_555 1_555
C10F O2F 1_555 1_555
C11F C10F 1_555 1_555
C12F C11F 1_555 1_555
C13F C12F 1_555 1_555
C14F C9F 1_555 1_555
C15E C15 1_555 1_555
C16E C15E 1_555 1_555
C17E C16E 1_555 1_555
C18E C18 1_555 1_555
C19E C18E 1_555 1_555
C20E C20 1_555 1_555
C4 C5 1_555 1_555
C5 C6 1_555 1_555
C13 C14 1_555 1_555
O3E C15E 1_555 1_555
O4E C18E 1_555 1_555
C4A C5A 1_555 1_555
C5A C6A 1_555 1_555
C7A C8A 1_555 1_555
C9F C10F 1_555 1_555
C13F C14F 1_555 1_555
C19E C20E 1_555 1_555

#END
