
#######################################################################
#
#                 Cambridge Crystallographic Data Centre
#                                CCDC 
#
#######################################################################
#
# If this CIF has been generated from an entry in the Cambridge 
# Structural Database, then it will include bibliographic, chemical, 
# crystal, experimental, refinement or atomic coordinate data resulting 
# from the CCDC's data processing and validation procedures.
#
#######################################################################

data_ONICIY
_symmetry_cell_setting           monoclinic
_symmetry_space_group_name_H-M   'C 2/c'
_symmetry_Int_Tables_number      15
_space_group_name_Hall           '-C 2yn'
loop_
_symmetry_equiv_pos_site_id
_symmetry_equiv_pos_as_xyz
1 x,y,z
2 -x,y,1/2-z
3 1/2+x,1/2+y,z
4 1/2-x,1/2+y,1/2-z
5 -x,-y,-z
6 x,-y,1/2+z
7 1/2-x,1/2-y,-z
8 1/2+x,1/2-y,1/2+z
_cell_length_a                   13.2213(14)
_cell_length_b                   13.4991(14)
_cell_length_c                   19.0033(16)
_cell_angle_alpha                90
_cell_angle_beta                 99.122(6)
_cell_angle_gamma                90
_cell_volume                     3348.73
loop_
_atom_site_label
_atom_site_type_symbol
_atom_site_fract_x
_atom_site_fract_y
_atom_site_fract_z
C1 C 0.3063(5) -0.0310(5) 0.5696(3)
C2 C 0.2994(6) -0.1345(5) 0.5784(4)
C3 C 0.2193(6) 0.0279(6) 0.5597(4)
C4 C 0.1268(7) -0.0171(8) 0.5588(6)
H1 H 0.0677 0.0213 0.5526
O1 O 0.4071(7) 0.3040(5) 0.6998(3)
C5 C 0.2034(7) -0.1759(6) 0.5763(5)
H2 H 0.1974 -0.2440 0.5816
C6 C 0.1187(7) -0.1194(8) 0.5668(6)
H3 H 0.0547 -0.1485 0.5655
C7 C 0.3933(7) -0.1972(5) 0.5946(5)
H4 H 0.4460 -0.1709 0.5697
H5 H 0.3775 -0.2639 0.5773
C8 C 0.2258(8) 0.1410(7) 0.5522(6)
H6 H 0.2976 0.1595 0.5611
H7 H 0.1995 0.1581 0.5032
C9 C 0.4335(12) -0.2012(10) 0.6729(8)
H8 H 0.4937 -0.2420 0.6810
H9 H 0.3822 -0.2286 0.6977
H10 H 0.4505 -0.1354 0.6902
C10 C 0.1743(12) 0.1987(10) 0.5962(13)
H11 H 0.1840 0.2675 0.5866
H12 H 0.2010 0.1849 0.6452
H13 H 0.1026 0.1832 0.5872
C11 C 0.3580(6) 0.3598(8) 0.7302(4)
H14 H 0.3451 0.3415 0.7751
N1 N 0.3210(7) 0.4455(8) 0.7041(4)
C12 C 0.3384(10) 0.4814(10) 0.6365(6)
H15 H 0.3060 0.5448 0.6275
H16 H 0.3102 0.4356 0.5999
H17 H 0.4107 0.4880 0.6366
C13 C 0.2700(19) 0.5077(16) 0.7472(8)
H18 H 0.2487 0.5674 0.7216
H19 H 0.3156 0.5238 0.7901
H20 H 0.2110 0.4739 0.7590
Cu1 Cu 0.5000 0.0000 0.5000
Mn1 Mn 0.5000 0.18642(11) 0.7500
O2 O 0.4097(4) 0.0820(3) 0.6800(2)
O3 O 0.5904(3) 0.0811(3) 0.5640(2)
O4 O 0.5920(4) 0.1618(4) 0.6655(2)
N2 N 0.4046(4) 0.0110(4) 0.5704(3)
C14 C 0.4456(5) 0.0638(4) 0.6253(3)
C15 C 0.5516(5) 0.1074(5) 0.6178(4)
C1A C 0.6937(5) -0.0310(5) 0.9304(3)
C2A C 0.7006(6) -0.1345(5) 0.9216(4)
C3A C 0.7807(6) 0.0279(6) 0.9403(4)
C4A C 0.8732(7) -0.0171(8) 0.9412(6)
H1A H 0.9323 0.0213 0.9474
O1A O 0.5929(7) 0.3040(5) 0.8002(3)
C5A C 0.7966(7) -0.1759(6) 0.9237(5)
H2A H 0.8026 -0.2440 0.9184
C6A C 0.8813(7) -0.1194(8) 0.9332(6)
H3A H 0.9453 -0.1485 0.9345
C7A C 0.6067(7) -0.1972(5) 0.9054(5)
H4A H 0.5540 -0.1709 0.9303
H5A H 0.6225 -0.2639 0.9227
C8A C 0.7742(8) 0.1410(7) 0.9478(6)
H6A H 0.7024 0.1595 0.9389
H7A H 0.8005 0.1581 0.9968
C9A C 0.5665(12) -0.2012(10) 0.8271(8)
H8A H 0.5063 -0.2420 0.8190
H9A H 0.6178 -0.2286 0.8023
H10A H 0.5495 -0.1354 0.8098
C10A C 0.8257(12) 0.1987(10) 0.9038(13)
H11A H 0.8160 0.2675 0.9134
H12A H 0.7990 0.1849 0.8548
H13A H 0.8974 0.1832 0.9128
C11A C 0.6420(6) 0.3598(8) 0.7698(4)
H14A H 0.6549 0.3415 0.7249
N1A N 0.6790(7) 0.4455(8) 0.7959(4)
C12A C 0.6616(10) 0.4814(10) 0.8635(6)
H15A H 0.6940 0.5448 0.8725
H16A H 0.6898 0.4356 0.9001
H17A H 0.5893 0.4880 0.8634
C13A C 0.7300(19) 0.5077(16) 0.7528(8)
H18A H 0.7513 0.5674 0.7784
H19A H 0.6844 0.5238 0.7099
H20A H 0.7890 0.4739 0.7410
Cu1A Cu 0.5000 0.0000 1.0000
O2A O 0.5903(4) 0.0820(3) 0.8200(2)
O3A O 0.4096(3) 0.0811(3) 0.9360(2)
O3D O 0.4096(3) -0.0811(3) 0.4360(2)
O4A O 0.4080(4) 0.1618(4) 0.8345(2)
N2A N 0.5954(4) 0.0110(4) 0.9296(3)
N2D N 0.5954(4) -0.0110(4) 0.4296(3)
C14A C 0.5544(5) 0.0638(4) 0.8747(3)
C15A C 0.4484(5) 0.1074(5) 0.8822(4)
loop_
_geom_bond_atom_site_label_1
_geom_bond_atom_site_label_2
_geom_bond_site_symmetry_1
_geom_bond_site_symmetry_2
C1 C2 1_555 1_555
C2 C5 1_555 1_555
C3 C1 1_555 1_555
C4 C3 1_555 1_555
H1 C4 1_555 1_555
O1 C11 1_555 1_555
C5 H2 1_555 1_555
C6 C4 1_555 1_555
H3 C6 1_555 1_555
C7 C2 1_555 1_555
H4 C7 1_555 1_555
H5 C7 1_555 1_555
C8 C3 1_555 1_555
H6 C8 1_555 1_555
H7 C8 1_555 1_555
C9 C7 1_555 1_555
H8 C9 1_555 1_555
H9 C9 1_555 1_555
H10 C9 1_555 1_555
C10 C8 1_555 1_555
H11 C10 1_555 1_555
H12 C10 1_555 1_555
H13 C10 1_555 1_555
C11 H14 1_555 1_555
N1 C11 1_555 1_555
C12 N1 1_555 1_555
H15 C12 1_555 1_555
H16 C12 1_555 1_555
H17 C12 1_555 1_555
C13 N1 1_555 1_555
H18 C13 1_555 1_555
H19 C13 1_555 1_555
H20 C13 1_555 1_555
Cu1 O3 1_555 1_555
Mn1 O1 1_555 1_555
O2 Mn1 1_555 1_555
O3 C15 1_555 1_555
O4 Mn1 1_555 1_555
N2 C1 1_555 1_555
C14 O2 1_555 1_555
C15 O4 1_555 1_555
C1A C2A 1_555 1_555
C2A C5A 1_555 1_555
C3A C1A 1_555 1_555
C4A C3A 1_555 1_555
H1A C4A 1_555 1_555
O1A Mn1 1_555 1_555
C5A H2A 1_555 1_555
C6A C4A 1_555 1_555
H3A C6A 1_555 1_555
C7A C2A 1_555 1_555
H4A C7A 1_555 1_555
H5A C7A 1_555 1_555
C8A C3A 1_555 1_555
H6A C8A 1_555 1_555
H7A C8A 1_555 1_555
C9A C7A 1_555 1_555
H8A C9A 1_555 1_555
H9A C9A 1_555 1_555
H10A C9A 1_555 1_555
C10A C8A 1_555 1_555
H11A C10A 1_555 1_555
H12A C10A 1_555 1_555
H13A C10A 1_555 1_555
C11A O1A 1_555 1_555
H14A C11A 1_555 1_555
N1A C11A 1_555 1_555
C12A N1A 1_555 1_555
H15A C12A 1_555 1_555
H16A C12A 1_555 1_555
H17A C12A 1_555 1_555
C13A N1A 1_555 1_555
H18A C13A 1_555 1_555
H19A C13A 1_555 1_555
H20A C13A 1_555 1_555
Cu1A O3A 1_555 1_555
O2A Mn1 1_555 1_555
O3A C15A 1_555 1_555
O3D Cu1 1_555 1_555
O4A Mn1 1_555 1_555
N2A C1A 1_555 1_555
N2D Cu1 1_555 1_555
C14A O2A 1_555 1_555
C15A O4A 1_555 1_555
C5 C6 1_555 1_555
Cu1 N2 1_555 1_555
N2 C14 1_555 1_555
C14 C15 1_555 1_555
C5A C6A 1_555 1_555
Cu1A N2A 1_555 1_555
N2A C14A 1_555 1_555
C14A C15A 1_555 1_555

#END
