
#######################################################################
#
#                 Cambridge Crystallographic Data Centre
#                                CCDC 
#
#######################################################################
#
# If this CIF has been generated from an entry in the Cambridge 
# Structural Database, then it will include bibliographic, chemical, 
# crystal, experimental, refinement or atomic coordinate data resulting 
# from the CCDC's data processing and validation procedures.
#
#######################################################################

data_ONIDIZ
_symmetry_cell_setting           triclinic
_symmetry_space_group_name_H-M   'P -1'
_symmetry_Int_Tables_number      2
_space_group_name_Hall           '-P 1'
loop_
_symmetry_equiv_pos_site_id
_symmetry_equiv_pos_as_xyz
1 x,y,z
2 -x,-y,-z
_cell_length_a                   8.3248(5)
_cell_length_b                   11.4279(4)
_cell_length_c                   13.2954(7)
_cell_angle_alpha                98.680(4)
_cell_angle_beta                 105.648(5)
_cell_angle_gamma                96.347(4)
_cell_volume                     1188.73
loop_
_atom_site_label
_atom_site_type_symbol
_atom_site_fract_x
_atom_site_fract_y
_atom_site_fract_z
Zn1 Zn 0.43362(3) 0.29578(2) 0.29530(2)
O1 O 0.2300(2) 0.02973(13) 0.25195(14)
H1 H 0.1890 0.0660 0.2945
O2 O 0.7646(2) 0.29496(14) 0.20423(14)
H2 H 0.7582 0.3667 0.2140
O3 O 0.52606(19) 0.47404(13) 0.32007(12)
O4 O 0.7257(2) 0.51207(14) 0.24053(14)
O5 O 0.24241(19) 0.32555(13) 0.36255(12)
O6 O 0.1194(2) 0.15179(15) 0.38410(15)
N1 N 0.3709(2) 0.10048(16) 0.24703(14)
N2 N 0.6216(2) 0.23072(16) 0.21344(15)
N3 N 0.5959(2) 0.28259(15) 0.44960(14)
N4 N 1.2661(2) 0.31592(16) 1.14245(14)
C1 C 0.4641(3) 0.04399(19) 0.20043(17)
C2 C 0.6159(3) 0.1159(2) 0.19183(18)
C3 C 0.7516(3) 0.0568(2) 0.1605(2)
H3 H 0.8599 0.0918 0.2114
H4 H 0.7549 0.0725 0.0913
C4 C 0.7246(3) -0.0779(2) 0.1556(2)
H5 H 0.7983 -0.1140 0.1190
H6 H 0.7546 -0.0941 0.2273
C5 C 0.5439(4) -0.1338(2) 0.0988(2)
H7 H 0.5335 -0.2202 0.0914
H8 H 0.5124 -0.1149 0.0280
C6 C 0.4255(3) -0.0886(2) 0.1586(2)
H9 H 0.3108 -0.1084 0.1117
H10 H 0.4314 -0.1299 0.2178
C7 C 0.6252(3) 0.5435(2) 0.29085(18)
C8 C 0.6178(3) 0.6755(2) 0.3164(2)
H11 H 0.7196 0.7210 0.3128
H12 H 0.6067 0.6954 0.3867
H13 H 0.5223 0.6943 0.2659
C9 C 0.1424(3) 0.2644(2) 0.39731(18)
C10 C 0.0402(3) 0.3300(2) 0.4574(2)
H14 H 0.1067 0.4044 0.4986
H15 H 0.0076 0.2817 0.5039
H16 H -0.0590 0.3458 0.4081
C11 C 0.6648(3) 0.3824(2) 0.52209(17)
H17 H 0.6400 0.4552 0.5039
C12 C 0.7700(3) 0.38430(19) 0.62191(18)
H18 H 0.8148 0.4569 0.6687
C13 C 0.8094(3) 0.27781(19) 0.65277(17)
C14 C 0.7351(3) 0.1737(2) 0.57894(18)
H19 H 0.7552 0.0997 0.5961
C15 C 0.6316(3) 0.1794(2) 0.48033(18)
H20 H 0.5838 0.1080 0.4324
C16 C 0.9281(3) 0.27288(19) 0.75852(17)
H21 H 1.0411 0.2747 0.7511
H22 H 0.8967 0.1967 0.7775
C17 C 0.9335(3) 0.3725(2) 0.84938(18)
H23 H 0.9724 0.4490 0.8337
H24 H 0.8204 0.3738 0.8559
C18 C 1.0490(3) 0.35602(19) 0.95316(18)
C19 C 0.9880(3) 0.3075(2) 1.02731(18)
H25 H 0.8721 0.2872 1.0150
C20 C 1.0981(3) 0.2891(2) 1.11965(18)
H26 H 1.0535 0.2566 1.1682
C21 C 1.3250(3) 0.3645(2) 1.07149(18)
H27 H 1.4413 0.3855 1.0863
C22 C 1.2229(3) 0.3851(2) 0.97754(18)
H28 H 1.2707 0.4184 0.9306
Zn1_2 Zn 1.43362(3) 0.29578(2) 1.29530(2)
N4_2 N 0.2661(2) 0.31592(16) 0.14245(14)
O7 O 0.8812(6) 0.9562(4) 0.4197(3)
H29 H 0.915(8) 0.937(6) 0.482(3)
H30 H 0.938(7) 1.022(4) 0.416(5)
loop_
_geom_bond_atom_site_label_1
_geom_bond_atom_site_label_2
_geom_bond_site_symmetry_1
_geom_bond_site_symmetry_2
Zn1 O3 1_555 1_555
O1 H1 1_555 1_555
O2 H2 1_555 1_555
O3 C7 1_555 1_555
O4 C7 1_555 1_555
O5 Zn1 1_555 1_555
O6 C9 1_555 1_555
N1 Zn1 1_555 1_555
N2 Zn1 1_555 1_555
N3 Zn1 1_555 1_555
N4 C20 1_555 1_555
C1 N1 1_555 1_555
C2 N2 1_555 1_555
C3 C2 1_555 1_555
H3 C3 1_555 1_555
H4 C3 1_555 1_555
C4 C3 1_555 1_555
H5 C4 1_555 1_555
H6 C4 1_555 1_555
C5 C4 1_555 1_555
H7 C5 1_555 1_555
H8 C5 1_555 1_555
C6 C1 1_555 1_555
H9 C6 1_555 1_555
H10 C6 1_555 1_555
C7 C8 1_555 1_555
C8 H11 1_555 1_555
H12 C8 1_555 1_555
H13 C8 1_555 1_555
C9 O5 1_555 1_555
C10 C9 1_555 1_555
H14 C10 1_555 1_555
H15 C10 1_555 1_555
H16 C10 1_555 1_555
C11 N3 1_555 1_555
H17 C11 1_555 1_555
C12 C11 1_555 1_555
H18 C12 1_555 1_555
C13 C12 1_555 1_555
C14 C13 1_555 1_555
H19 C14 1_555 1_555
C15 N3 1_555 1_555
H20 C15 1_555 1_555
C16 C13 1_555 1_555
H21 C16 1_555 1_555
H22 C16 1_555 1_555
C17 C16 1_555 1_555
H23 C17 1_555 1_555
H24 C17 1_555 1_555
C18 C17 1_555 1_555
C19 C18 1_555 1_555
H25 C19 1_555 1_555
C20 C19 1_555 1_555
H26 C20 1_555 1_555
C21 N4 1_555 1_555
H27 C21 1_555 1_555
C22 C18 1_555 1_555
H28 C22 1_555 1_555
O7 H29 1_555 1_555
H30 O7 1_555 1_555
Zn1_2 N4 1_555 1_555
N4_2 Zn1 1_555 1_555
O1 N1 1_555 1_555
O2 N2 1_555 1_555
C1 C2 1_555 1_555
C5 C6 1_555 1_555
C14 C15 1_555 1_555
C21 C22 1_555 1_555

#END
