
#######################################################################
#
#                 Cambridge Crystallographic Data Centre
#                                CCDC 
#
#######################################################################
#
# If this CIF has been generated from an entry in the Cambridge 
# Structural Database, then it will include bibliographic, chemical, 
# crystal, experimental, refinement or atomic coordinate data resulting 
# from the CCDC's data processing and validation procedures.
#
#######################################################################

data_ONIGUO
_symmetry_cell_setting           triclinic
_symmetry_space_group_name_H-M   'P -1'
_symmetry_Int_Tables_number      2
_space_group_name_Hall           '-P 1'
loop_
_symmetry_equiv_pos_site_id
_symmetry_equiv_pos_as_xyz
1 x,y,z
2 -x,-y,-z
_cell_length_a                   8.2600(9)
_cell_length_b                   10.2239(11)
_cell_length_c                   12.5281(13)
_cell_angle_alpha                90.573(3)
_cell_angle_beta                 106.301(2)
_cell_angle_gamma                106.344(3)
_cell_volume                     969.866
loop_
_atom_site_label
_atom_site_type_symbol
_atom_site_fract_x
_atom_site_fract_y
_atom_site_fract_z
Cd1 Cd 0.20470(4) 0.11970(3) 0.48597(3)
O1 O 0.2744(5) -0.1207(3) 0.4822(3)
O3 O 0.7464(6) 0.1961(4) 1.0492(3)
O5 O 0.2462(5) -0.6294(3) 0.4932(3)
O7 O 0.0345(5) -0.7754(3) 0.3637(3)
O9 O 0.0163(4) -0.0855(3) 0.4071(3)
O10 O 0.4117(5) 0.1613(4) 0.3901(3)
H7 H 0.504(5) 0.142(5) 0.425(5)
H8 H 0.435(7) 0.239(3) 0.368(5)
N1 N 0.3952(5) 0.1331(4) 0.6564(3)
N2 N 0.8915(12) 0.0773(11) 0.9838(5)
C1 C 0.7664(9) 0.1367(6) 0.9710(5)
C2 C 0.6744(7) 0.2369(6) 0.7906(4)
H9 H 0.7811 0.3103 0.8131
C3 C 0.6425(7) 0.1310(6) 0.8565(4)
C4 C 0.1128(6) -0.6549(5) 0.4090(4)
C5 C 0.3641(7) 0.0306(5) 0.7206(4)
H10 H 0.2558 -0.0410 0.6962
C6 C -0.1037(7) -0.5716(5) 0.2659(4)
H11 H -0.1534 -0.6624 0.2304
C7 C 0.4849(8) 0.0260(6) 0.8215(4)
H12 H 0.4603 -0.0476 0.8658
C8 C -0.1759(7) -0.4700(5) 0.2229(4)
H13 H -0.2732 -0.4906 0.1569
C9 C 0.5472(7) 0.2334(5) 0.6912(4)
H14 H 0.5688 0.3059 0.6453
C10 C 0.0414(6) -0.5417(5) 0.3608(4)
C11 C -0.1072(7) -0.3384(5) 0.2755(4)
H15 H -0.1605 -0.2697 0.2475
C12 C 0.1179(6) -0.1623(5) 0.4244(4)
C13 C 0.1146(6) -0.4084(5) 0.4120(4)
H16 H 0.2154 -0.3871 0.4760
C14 C 0.0405(6) -0.3065(5) 0.3699(4)
C15 C 1.0136(17) 0.0745(15) 1.0953(6)
H17 H 1.1074 0.1636 1.1140
H18 H 0.9471 0.0680 1.1505
C16 C 0.923(2) 0.0050(19) 0.8937(7)
H19 H 0.8068 -0.0346 0.8377
H20 H 0.9930 0.0765 0.8578
Cd1_2 Cd 0.20470(4) -0.88030(3) 0.48597(3)
Cd1A Cd -0.20470(4) -0.11970(3) 0.51403(3)
Cd1A_2 Cd 1.79530(4) -0.11970(3) 1.51403(3)
Cd1A_3 Cd -0.20470(4) 0.88030(3) 0.51403(3)
O1A O -0.2744(5) 0.1207(3) 0.5178(3)
O3A O 1.2536(6) -0.1961(4) 0.9508(3)
O5_2 O 0.2462(5) 0.3706(3) 0.4932(3)
O5A O -0.2462(5) -0.3706(3) 0.5068(3)
O5A_2 O -0.2462(5) 0.6294(3) 0.5068(3)
O7_2 O 0.0345(5) 0.2246(3) 0.3637(3)
O7A O -0.0345(5) -0.2246(3) 0.6363(3)
O7A_2 O -0.0345(5) 0.7754(3) 0.6363(3)
O9A O -0.0163(4) 0.0855(3) 0.5929(3)
O10A O -0.4117(5) -0.1613(4) 0.6099(3)
H7A H -0.504(5) -0.142(5) 0.575(5)
H8A H -0.435(7) -0.239(3) 0.632(5)
N1A N 1.6048(5) -0.1331(4) 1.3436(3)
N1A_2 N -0.3952(5) -0.1331(4) 0.3436(3)
N2A N 1.1085(12) -0.0773(11) 1.0162(5)
C1A C 1.2336(9) -0.1367(6) 1.0290(5)
C2A C 1.3256(7) -0.2369(6) 1.2094(4)
H9A H 1.2189 -0.3103 1.1869
C3A C 1.3575(7) -0.1310(6) 1.1435(4)
C4A C -0.1128(6) 0.6549(5) 0.5910(4)
C5A C 1.6359(7) -0.0306(5) 1.2794(4)
H10A H 1.7442 0.0410 1.3038
C6A C 0.1037(7) 0.5716(5) 0.7341(4)
H11A H 0.1534 0.6624 0.7696
C7A C 1.5151(8) -0.0260(6) 1.1785(4)
H12A H 1.5397 0.0476 1.1342
C8A C 0.1759(7) 0.4700(5) 0.7771(4)
H13A H 0.2732 0.4906 0.8431
C9A C 1.4528(7) -0.2334(5) 1.3088(4)
H14A H 1.4312 -0.3059 1.3547
C10A C -0.0414(6) 0.5417(5) 0.6392(4)
C11A C 0.1072(7) 0.3384(5) 0.7245(4)
H15A H 0.1605 0.2697 0.7525
C12A C -0.1179(6) 0.1623(5) 0.5756(4)
C13A C -0.1146(6) 0.4084(5) 0.5880(4)
H16A H -0.2154 0.3871 0.5240
C14A C -0.0405(6) 0.3065(5) 0.6301(4)
C15A C 0.9864(17) -0.0745(15) 0.9047(6)
H17A H 0.8926 -0.1636 0.8860
H18A H 1.0529 -0.0680 0.8495
C16A C 1.077(2) -0.0050(19) 1.1063(7)
H19A H 1.1932 0.0346 1.1623
H20A H 1.0070 -0.0765 1.1422
O2 O 0.5145(6) -0.4315(5) 0.6540(4)
H1 H 0.422(5) -0.498(5) 0.631(6)
H2 H 0.590(7) -0.432(7) 0.621(5)
O4 O 0.6487(8) -0.4651(5) 0.8870(4)
H3 H 0.596(10) -0.457(8) 0.821(2)
H4 H 0.643(11) -0.409(7) 0.934(4)
O6 O 0.4539(7) -0.6929(5) 0.9769(4)
H5 H 0.515(8) -0.740(7) 1.014(6)
H6 H 0.509(8) -0.631(6) 0.946(6)
O8 O 1.0000 -0.5000 1.0000
loop_
_geom_bond_atom_site_label_1
_geom_bond_atom_site_label_2
_geom_bond_site_symmetry_1
_geom_bond_site_symmetry_2
Cd1 O1 1_555 1_555
O1 C12 1_555 1_555
O2 H1 1_555 1_555
H2 O2 1_555 1_555
O3 C1 1_555 1_555
O4 H3 1_555 1_555
H4 O4 1_555 1_555
O5 C4 1_555 1_555
O6 H5 1_555 1_555
H6 O6 1_555 1_555
O7 C4 1_555 1_555
O9 Cd1 1_555 1_555
O10 Cd1 1_555 1_555
H7 O10 1_555 1_555
H8 O10 1_555 1_555
N1 Cd1 1_555 1_555
N2 C1 1_555 1_555
C1 C3 1_555 1_555
C2 H9 1_555 1_555
C3 C2 1_555 1_555
C4 C10 1_555 1_555
C5 N1 1_555 1_555
H10 C5 1_555 1_555
C6 H11 1_555 1_555
C7 C3 1_555 1_555
H12 C7 1_555 1_555
C8 C6 1_555 1_555
H13 C8 1_555 1_555
C9 N1 1_555 1_555
H14 C9 1_555 1_555
C10 C6 1_555 1_555
C11 C8 1_555 1_555
H15 C11 1_555 1_555
C12 O9 1_555 1_555
C13 C10 1_555 1_555
H16 C13 1_555 1_555
C14 C11 1_555 1_555
C15 N2 1_555 1_555
H17 C15 1_555 1_555
H18 C15 1_555 1_555
C16 N2 1_555 1_555
H19 C16 1_555 1_555
H20 C16 1_555 1_555
Cd1_2 O5 1_555 1_555
Cd1A O9 1_555 1_555
Cd1A_2 N1A 1_555 1_555
Cd1A_3 O5A_2 1_555 1_555
O1A Cd1A 1_555 1_555
O3A C1A 1_555 1_555
O5_2 Cd1 1_555 1_555
O5A Cd1A 1_555 1_555
O5A_2 C4A 1_555 1_555
O7_2 Cd1 1_555 1_555
O7A Cd1A 1_555 1_555
O7A_2 Cd1A_3 1_555 1_555
O9A Cd1 1_555 1_555
O10A Cd1A 1_555 1_555
H7A O10A 1_555 1_555
H8A O10A 1_555 1_555
N1A C5A 1_555 1_555
N1A_2 Cd1A 1_555 1_555
N2A C1A 1_555 1_555
C1A C3A 1_555 1_555
C2A H9A 1_555 1_555
C3A C2A 1_555 1_555
C4A O7A_2 1_555 1_555
C5A H10A 1_555 1_555
C6A H11A 1_555 1_555
C7A C3A 1_555 1_555
H12A C7A 1_555 1_555
C8A C6A 1_555 1_555
H13A C8A 1_555 1_555
C9A N1A 1_555 1_555
H14A C9A 1_555 1_555
C10A C4A 1_555 1_555
C11A C8A 1_555 1_555
H15A C11A 1_555 1_555
C12A O1A 1_555 1_555
C13A C10A 1_555 1_555
H16A C13A 1_555 1_555
C14A C11A 1_555 1_555
C15A C16 1_555 1_555
H17A C15A 1_555 1_555
H18A C15A 1_555 1_555
C16A C15 1_555 1_555
H19A C16A 1_555 1_555
H20A C16A 1_555 1_555
O7 Cd1_2 1_555 1_555
C2 C9 1_555 1_555
C5 C7 1_555 1_555
C12 C14 1_555 1_555
C13 C14 1_555 1_555
Cd1A O9A 1_555 1_555
O9A C12A 1_555 1_555
N2A C15A 1_555 1_555
N2A C16A 1_555 1_555
C2A C9A 1_555 1_555
C5A C7A 1_555 1_555
C6A C10A 1_555 1_555
C12A C14A 1_555 1_555
C13A C14A 1_555 1_555

#END
