
#######################################################################
#
#                 Cambridge Crystallographic Data Centre
#                                CCDC 
#
#######################################################################
#
# If this CIF has been generated from an entry in the Cambridge 
# Structural Database, then it will include bibliographic, chemical, 
# crystal, experimental, refinement or atomic coordinate data resulting 
# from the CCDC's data processing and validation procedures.
#
#######################################################################

data_ONIJUR
_symmetry_cell_setting           monoclinic
_symmetry_space_group_name_H-M   'P 21/c'
_symmetry_Int_Tables_number      14
_space_group_name_Hall           '-P 2ybc'
loop_
_symmetry_equiv_pos_site_id
_symmetry_equiv_pos_as_xyz
1 x,y,z
2 -x,1/2+y,1/2-z
3 -x,-y,-z
4 x,1/2-y,1/2+z
_cell_length_a                   15.1562(7)
_cell_length_b                   8.5590(4)
_cell_length_c                   20.9681(12)
_cell_angle_alpha                90
_cell_angle_beta                 91.309(4)
_cell_angle_gamma                90
_cell_volume                     2719.31
loop_
_atom_site_label
_atom_site_type_symbol
_atom_site_fract_x
_atom_site_fract_y
_atom_site_fract_z
Ni1 Ni 0.25947(3) 0.54221(5) 0.25872(2)
N1 N 0.1325(2) 0.5014(4) 0.21677(17)
N2 N 0.1852(2) 0.5130(4) 0.33625(16)
N3 N 0.3573(2) 0.5567(4) 0.32603(17)
N4 N 0.3703(2) 0.5724(4) 0.20167(17)
N5 N 0.2400(2) 0.7802(4) 0.25345(17)
N6 N 0.1954(2) 1.0499(4) 0.2326(2)
N7 N 0.2720(2) 1.2987(4) 0.25081(18)
C1 C 0.1061(3) 0.4960(5) 0.1554(2)
H1 H 0.1444 0.5329 0.1249
C2 C 0.0253(3) 0.4388(5) 0.1352(2)
H2 H 0.0089 0.4410 0.0922
C3 C -0.0310(3) 0.3783(5) 0.1796(2)
H3 H -0.0852 0.3362 0.1670
C4 C -0.0053(3) 0.3814(5) 0.2433(2)
H4 H -0.0418 0.3405 0.2742
C5 C 0.0756(3) 0.4463(4) 0.26052(19)
C6 C 0.1074(3) 0.4609(4) 0.32866(19)
C7 C 0.2301(3) 0.5511(6) 0.3963(2)
H5 H 0.2058 0.4892 0.4304
H6 H 0.2213 0.6607 0.4062
C8 C 0.3287(3) 0.5170(6) 0.3907(2)
H7 H 0.3619 0.5781 0.4219
H8 H 0.3398 0.4073 0.3991
C9 C 0.4356(3) 0.5809(4) 0.3084(2)
C10 C 0.4458(3) 0.5950(5) 0.2382(2)
C11 C 0.5249(3) 0.6297(5) 0.2097(2)
H9 H 0.5751 0.6495 0.2348
C12 C 0.5291(3) 0.6349(5) 0.1434(2)
H10 H 0.5825 0.6537 0.1237
C13 C 0.4532(3) 0.6117(5) 0.1076(2)
H11 H 0.4540 0.6168 0.0633
C14 C 0.3752(3) 0.5804(5) 0.1389(2)
H12 H 0.3240 0.5643 0.1145
C15 C 0.0483(3) 0.4111(5) 0.3810(2)
C16 C -0.0345(3) 0.4772(5) 0.3896(2)
H13 H -0.0548 0.5570 0.3630
C17 C -0.0862(3) 0.4226(6) 0.4384(2)
H14 H -0.1413 0.4673 0.4448
C18 C -0.0575(3) 0.3034(6) 0.4778(2)
H15 H -0.0935 0.2669 0.5099
C19 C 0.0244(3) 0.2382(6) 0.4694(2)
H16 H 0.0443 0.1590 0.4965
C20 C 0.0771(3) 0.2900(5) 0.4210(2)
H17 H 0.1319 0.2442 0.4149
C21 C 0.5140(3) 0.5949(5) 0.3525(2)
C22 C 0.5144(3) 0.7094(5) 0.4003(2)
H18 H 0.4667 0.7768 0.4042
C23 C 0.5867(3) 0.7212(5) 0.4420(2)
H19 H 0.5872 0.7973 0.4736
C24 C 0.6578(3) 0.6218(5) 0.4370(2)
H20 H 0.7060 0.6314 0.4649
C25 C 0.6572(3) 0.5077(5) 0.3902(2)
H21 H 0.7047 0.4395 0.3873
C26 C 0.5863(3) 0.4946(5) 0.3480(2)
H22 H 0.5867 0.4185 0.3163
C27 C 0.2239(2) 0.9100(5) 0.2455(2)
C28 C 0.2405(3) 1.1776(5) 0.2437(2)
Ni1_2 Ni 0.25947(3) 1.54221(5) 0.25872(2)
N7_2 N 0.2720(2) 0.2987(4) 0.25081(18)
Cl1 Cl 0.25581(7) -0.00553(12) 0.46294(5)
O1 O 0.3295(3) -0.1095(5) 0.46856(19)
O2 O 0.1878(2) -0.0695(4) 0.42192(18)
O3 O 0.2205(3) 0.0231(5) 0.52475(17)
O4 O 0.2847(2) 0.1410(4) 0.43719(18)
loop_
_geom_bond_atom_site_label_1
_geom_bond_atom_site_label_2
_geom_bond_site_symmetry_1
_geom_bond_site_symmetry_2
Ni1 N1 1_555 1_555
N1 C1 1_555 1_555
N2 Ni1 1_555 1_555
N3 Ni1 1_555 1_555
N4 Ni1 1_555 1_555
N5 Ni1 1_555 1_555
N6 C27 1_555 1_555
N7 C28 1_555 1_555
C1 H1 1_555 1_555
C2 C1 1_555 1_555
H2 C2 1_555 1_555
C3 C2 1_555 1_555
H3 C3 1_555 1_555
C4 C3 1_555 1_555
H4 C4 1_555 1_555
C5 N1 1_555 1_555
C6 N2 1_555 1_555
C7 N2 1_555 1_555
H5 C7 1_555 1_555
H6 C7 1_555 1_555
C8 N3 1_555 1_555
H7 C8 1_555 1_555
H8 C8 1_555 1_555
C9 N3 1_555 1_555
C10 N4 1_555 1_555
C11 C10 1_555 1_555
H9 C11 1_555 1_555
C12 C11 1_555 1_555
H10 C12 1_555 1_555
C13 C12 1_555 1_555
H11 C13 1_555 1_555
C14 N4 1_555 1_555
H12 C14 1_555 1_555
C15 C6 1_555 1_555
C16 C15 1_555 1_555
H13 C16 1_555 1_555
C17 C16 1_555 1_555
H14 C17 1_555 1_555
C18 C17 1_555 1_555
H15 C18 1_555 1_555
C19 C18 1_555 1_555
H16 C19 1_555 1_555
C20 C15 1_555 1_555
H17 C20 1_555 1_555
C21 C9 1_555 1_555
C22 C21 1_555 1_555
H18 C22 1_555 1_555
C23 C22 1_555 1_555
H19 C23 1_555 1_555
C24 C23 1_555 1_555
H20 C24 1_555 1_555
C25 C24 1_555 1_555
H21 C25 1_555 1_555
C26 C21 1_555 1_555
H22 C26 1_555 1_555
C27 N5 1_555 1_555
C28 N6 1_555 1_555
Cl1 O1 1_555 1_555
O2 Cl1 1_555 1_555
O3 Cl1 1_555 1_555
O4 Cl1 1_555 1_555
Ni1_2 N7 1_555 1_555
N7_2 Ni1 1_555 1_555
C4 C5 1_555 1_555
C5 C6 1_555 1_555
C7 C8 1_555 1_555
C9 C10 1_555 1_555
C13 C14 1_555 1_555
C19 C20 1_555 1_555
C25 C26 1_555 1_555

#END
