
#######################################################################
#
#                 Cambridge Crystallographic Data Centre
#                                CCDC 
#
#######################################################################
#
# If this CIF has been generated from an entry in the Cambridge 
# Structural Database, then it will include bibliographic, chemical, 
# crystal, experimental, refinement or atomic coordinate data resulting 
# from the CCDC's data processing and validation procedures.
#
#######################################################################

data_ONIJIF
_symmetry_cell_setting           monoclinic
_symmetry_space_group_name_H-M   'P 21/a'
_symmetry_Int_Tables_number      14
_space_group_name_Hall           '-P 2yab'
loop_
_symmetry_equiv_pos_site_id
_symmetry_equiv_pos_as_xyz
1 x,y,z
2 1/2-x,1/2+y,-z
3 -x,-y,-z
4 1/2+x,1/2-y,z
_cell_length_a                   12.169(7)
_cell_length_b                   7.866(3)
_cell_length_c                   13.898(8)
_cell_angle_alpha                90
_cell_angle_beta                 110.61(2)
_cell_angle_gamma                90
_cell_volume                     1245.19
loop_
_atom_site_label
_atom_site_type_symbol
_atom_site_fract_x
_atom_site_fract_y
_atom_site_fract_z
C1 C 0.2771(13) 0.068(2) 0.3777(12)
C2 C 0.2745(13) 0.252(2) 0.3782(12)
C3 C 0.3527(11) 0.311(2) 0.4750(10)
C4 C 0.3987(12) 0.156(2) 0.5438(11)
C5 C 0.3569(12) 0.010(2) 0.4761(11)
O1 O 0.2111(9) -0.0148(14) 0.3003(8)
O2 O 0.2119(8) 0.3389(15) 0.3025(7)
O3 O -0.0257(9) -0.0979(13) 0.1786(9)
O4 O 0.3786(9) 0.4584(15) 0.5030(8)
O5 O 0.0133(8) 0.1533(14) 0.3322(8)
O6 O 0.4595(9) 0.1591(15) 0.6343(7)
O7 O -0.0256(9) 0.4338(14) 0.2042(8)
O8 O 0.3839(9) -0.1430(15) 0.5004(8)
O9 O 0.1201(10) 0.3754(14) 0.0816(8)
O10 O -0.1136(8) 0.1878(15) 0.0511(7)
O11 O -0.1370(8) -0.0241(13) -0.0778(7)
O12 O -0.3017(8) 0.1521(15) -0.0804(8)
O13 O -0.1426(9) 0.2738(14) -0.1234(8)
Er1 Er 0.06272(6) 0.17524(9) 0.18063(5)
S1 S -0.1740(3) 0.1497(5) -0.0585(3)
O11B O 0.1370(8) 0.0241(13) 0.0778(7)
Er1B Er -0.06272(6) -0.17524(9) -0.18063(5)
K1 K 0.3217(3) 0.6557(5) 0.3121(3)
loop_
_geom_bond_atom_site_label_1
_geom_bond_atom_site_label_2
_geom_bond_site_symmetry_1
_geom_bond_site_symmetry_2
C1 C2 1_555 1_555
C2 C3 1_555 1_555
C3 C4 1_555 1_555
C4 C5 1_555 1_555
C5 C1 1_555 1_555
O1 C1 1_555 1_555
O2 C2 1_555 1_555
O3 Er1 1_555 1_555
O4 C3 1_555 1_555
O5 Er1 1_555 1_555
O6 C4 1_555 1_555
O7 Er1 1_555 1_555
O8 C5 1_555 1_555
O9 Er1 1_555 1_555
O10 Er1 1_555 1_555
O11 S1 1_555 1_555
O12 S1 1_555 1_555
O13 S1 1_555 1_555
Er1 O1 1_555 1_555
S1 O10 1_555 1_555
O11B Er1 1_555 1_555
Er1B O11 1_555 1_555
O2 Er1 1_555 1_555

#END
