
#######################################################################
#
#                 Cambridge Crystallographic Data Centre
#                                CCDC 
#
#######################################################################
#
# If this CIF has been generated from an entry in the Cambridge 
# Structural Database, then it will include bibliographic, chemical, 
# crystal, experimental, refinement or atomic coordinate data resulting 
# from the CCDC's data processing and validation procedures.
#
#######################################################################

data_ONIJOL
_symmetry_cell_setting           triclinic
_symmetry_space_group_name_H-M   'P -1'
_symmetry_Int_Tables_number      2
_space_group_name_Hall           '-P 1'
loop_
_symmetry_equiv_pos_site_id
_symmetry_equiv_pos_as_xyz
1 x,y,z
2 -x,-y,-z
_cell_length_a                   7.6859(12)
_cell_length_b                   10.917(2)
_cell_length_c                   11.816(2)
_cell_angle_alpha                62.705(8)
_cell_angle_beta                 77.318(9)
_cell_angle_gamma                86.091(9)
_cell_volume                     858.956
loop_
_atom_site_label
_atom_site_type_symbol
_atom_site_fract_x
_atom_site_fract_y
_atom_site_fract_z
C1 C 0.8544(8) 1.1717(7) 0.4747(6)
H1 H 0.8766 1.0980 0.4551
C2 C 0.9321(7) 1.2991(8) 0.3849(6)
H2 H 1.0060 1.3108 0.3066
C3 C 0.8991(8) 1.4067(7) 0.4126(7)
H3 H 0.9478 1.4940 0.3523
C4 C 0.7928(7) 1.3868(7) 0.5309(6)
H4 H 0.7696 1.4596 0.5518
C5 C 0.7223(7) 1.2565(6) 0.6168(6)
C6 C 0.6150(7) 1.2210(6) 0.7496(6)
C7 C 0.5970(8) 1.3324(6) 0.7916(6)
C8 C 0.7318(8) 1.3597(6) 0.8381(6)
H5 H 0.8296 1.3036 0.8508
C9 C 0.7215(9) 1.4692(7) 0.8656(6)
H6 H 0.8125 1.4872 0.8970
C10 C 0.5791(11) 1.5519(7) 0.8472(7)
H7 H 0.5743 1.6271 0.8647
C11 C 0.4421(10) 1.5253(8) 0.8029(8)
H8 H 0.3440 1.5811 0.7917
C12 C 0.4516(9) 1.4143(8) 0.7752(7)
H9 H 0.3594 1.3953 0.7455
C13 C 0.4477(7) 1.0507(6) 0.9520(5)
H10 H 0.3357 1.0072 0.9619
H11 H 0.4211 1.1295 0.9692
C14 C 0.2383(9) 0.8287(6) 0.8489(6)
C15 C -0.0656(8) 0.8226(6) 0.8550(6)
C16 C 0.6552(8) 0.8520(8) 0.5314(8)
C17 C 0.7826(11) 0.7901(8) 0.3692(8)
N1 N 0.7487(6) 1.1496(5) 0.5886(5)
N2 N 0.5517(5) 1.0970(5) 0.8183(5)
N3 N 0.3783(6) 0.8703(5) 0.8220(5)
N4 N 0.0821(7) 0.7620(6) 0.8916(6)
N5 N -0.1980(6) 0.8598(5) 0.8283(5)
N6 N 0.6421(6) 0.8963(6) 0.6023(5)
N7 N 0.6503(8) 0.7968(8) 0.4553(7)
N8 N 0.8832(10) 0.7822(10) 0.2897(8)
Cu1 Cu 0.60290(8) 0.97830(8) 0.72323(7)
C1A C 0.1456(8) 0.8283(7) 1.5253(6)
H1A H 0.1234 0.9020 1.5449
C2A C 0.0679(7) 0.7009(8) 1.6151(6)
H2A H -0.0060 0.6892 1.6934
C3A C 0.1009(8) 0.5933(7) 1.5874(7)
H3A H 0.0522 0.5060 1.6477
C4A C 0.2072(7) 0.6132(7) 1.4691(6)
H4A H 0.2304 0.5404 1.4482
C5A C 0.2777(7) 0.7435(6) 1.3832(6)
C6A C 0.3850(7) 0.7790(6) 1.2504(6)
C7A C 0.4030(8) 0.6676(6) 1.2084(6)
C8A C 0.2682(8) 0.6403(6) 1.1619(6)
H5A H 0.1704 0.6964 1.1492
C9A C 0.2785(9) 0.5308(7) 1.1344(6)
H6A H 0.1875 0.5128 1.1030
C10A C 0.4209(11) 0.4481(7) 1.1528(7)
H7A H 0.4257 0.3729 1.1353
C11A C 0.5579(10) 0.4747(8) 1.1971(8)
H8A H 0.6560 0.4189 1.2083
C12A C 0.5484(9) 0.5857(8) 1.2248(7)
H9A H 0.6406 0.6047 1.2545
C13A C 0.5523(7) 0.9493(6) 1.0480(5)
H10A H 0.6643 0.9928 1.0381
H11A H 0.5789 0.8705 1.0308
C14A C 0.7617(9) 1.1713(6) 1.1511(6)
C15A C 1.0656(8) 1.1774(6) 1.1450(6)
C16A C 0.3448(8) 1.1480(8) 1.4686(8)
C17A C 0.2174(11) 1.2099(8) 1.6308(8)
N1A N 0.2513(6) 0.8504(5) 1.4114(5)
N2A N 0.4483(5) 0.9030(5) 1.1817(5)
N3A N 0.6217(6) 1.1297(5) 1.1780(5)
N4A N 0.9179(7) 1.2380(6) 1.1084(6)
N5_2 N 0.8020(6) 0.8598(5) 0.8283(5)
N5A N 0.1980(6) 1.1402(5) 1.1717(5)
N5A_2 N 1.1980(6) 1.1402(5) 1.1717(5)
N6A N 0.3579(6) 1.1037(6) 1.3977(5)
N7A N 0.3497(8) 1.2032(8) 1.5447(7)
N8A N 0.1168(10) 1.2178(10) 1.7103(8)
Cu1_2 Cu -0.39710(8) 0.97830(8) 0.72323(7)
Cu1A Cu 0.39710(8) 1.02170(8) 1.27677(7)
Cu1A_2 Cu 1.39710(8) 1.02170(8) 1.27677(7)
loop_
_geom_bond_atom_site_label_1
_geom_bond_atom_site_label_2
_geom_bond_site_symmetry_1
_geom_bond_site_symmetry_2
C1 H1 1_555 1_555
C2 C1 1_555 1_555
H2 C2 1_555 1_555
C3 C2 1_555 1_555
H3 C3 1_555 1_555
C4 C3 1_555 1_555
H4 C4 1_555 1_555
C5 C4 1_555 1_555
C6 C5 1_555 1_555
C7 C6 1_555 1_555
C8 C7 1_555 1_555
H5 C8 1_555 1_555
C9 C8 1_555 1_555
H6 C9 1_555 1_555
C10 C9 1_555 1_555
H7 C10 1_555 1_555
C11 C10 1_555 1_555
H8 C11 1_555 1_555
C12 C7 1_555 1_555
H9 C12 1_555 1_555
C13 H10 1_555 1_555
H11 C13 1_555 1_555
C14 N3 1_555 1_555
C15 N4 1_555 1_555
C16 N6 1_555 1_555
C17 N7 1_555 1_555
N1 C1 1_555 1_555
N2 C6 1_555 1_555
N3 Cu1 1_555 1_555
N4 C14 1_555 1_555
N5 C15 1_555 1_555
N6 Cu1 1_555 1_555
N7 C16 1_555 1_555
N8 C17 1_555 1_555
Cu1 N1 1_555 1_555
C1A H1A 1_555 1_555
C2A C1A 1_555 1_555
H2A C2A 1_555 1_555
C3A C2A 1_555 1_555
H3A C3A 1_555 1_555
C4A C3A 1_555 1_555
H4A C4A 1_555 1_555
C5A C4A 1_555 1_555
C6A C5A 1_555 1_555
C7A C6A 1_555 1_555
C8A C7A 1_555 1_555
H5A C8A 1_555 1_555
C9A C8A 1_555 1_555
H6A C9A 1_555 1_555
C10A C9A 1_555 1_555
H7A C10A 1_555 1_555
C11A C10A 1_555 1_555
H8A C11A 1_555 1_555
C12A C7A 1_555 1_555
H9A C12A 1_555 1_555
C13A C13 1_555 1_555
H10A C13A 1_555 1_555
H11A C13A 1_555 1_555
C14A N3A 1_555 1_555
C15A N4A 1_555 1_555
C16A N6A 1_555 1_555
C17A N7A 1_555 1_555
N1A C1A 1_555 1_555
N2A C6A 1_555 1_555
N3A Cu1A 1_555 1_555
N4A C14A 1_555 1_555
N5_2 Cu1 1_555 1_555
N5A Cu1A 1_555 1_555
N5A_2 C15A 1_555 1_555
N6A Cu1A 1_555 1_555
N7A C16A 1_555 1_555
N8A C17A 1_555 1_555
Cu1_2 N5 1_555 1_555
Cu1A N1A 1_555 1_555
Cu1A_2 N5A_2 1_555 1_555
C5 N1 1_555 1_555
C11 C12 1_555 1_555
C13 N2 1_555 1_555
N2 Cu1 1_555 1_555
C5A N1A 1_555 1_555
C11A C12A 1_555 1_555
C13A N2A 1_555 1_555
N2A Cu1A 1_555 1_555

#END
