
#######################################################################
#
#                 Cambridge Crystallographic Data Centre
#                                CCDC 
#
#######################################################################
#
# If this CIF has been generated from an entry in the Cambridge 
# Structural Database, then it will include bibliographic, chemical, 
# crystal, experimental, refinement or atomic coordinate data resulting 
# from the CCDC's data processing and validation procedures.
#
#######################################################################

data_ONIWAK
_symmetry_cell_setting           triclinic
_symmetry_space_group_name_H-M   'P -1'
_symmetry_Int_Tables_number      2
_space_group_name_Hall           '-P 1'
loop_
_symmetry_equiv_pos_site_id
_symmetry_equiv_pos_as_xyz
1 x,y,z
2 -x,-y,-z
_cell_length_a                   8.3322(8)
_cell_length_b                   10.1986(9)
_cell_length_c                   17.4515(15)
_cell_angle_alpha                84.0260(10)
_cell_angle_beta                 78.1240(10)
_cell_angle_gamma                83.9770(10)
_cell_volume                     1438.03
loop_
_atom_site_label
_atom_site_type_symbol
_atom_site_fract_x
_atom_site_fract_y
_atom_site_fract_z
C1 C 0.3527(8) -0.0619(6) 0.5904(3)
H1 H 0.3987 -0.0799 0.6363
C2 C 0.3247(9) -0.1669(6) 0.5509(3)
C3 C 0.2570(8) -0.1399(6) 0.4842(3)
H2 H 0.2366 -0.2105 0.4570
C4 C 0.2187(7) -0.0088(6) 0.4570(3)
C5 C 0.2458(8) 0.0942(6) 0.4973(3)
H3 H 0.2173 0.1829 0.4791
C6 C 0.3141(7) 0.0691(6) 0.5636(3)
C7 C 0.1490(9) 0.0179(6) 0.3876(4)
C8 C 0.0898(9) 0.0333(6) 0.3292(4)
C9 C 0.0274(8) 0.0461(6) 0.2576(3)
C10 C -0.0220(8) -0.0632(5) 0.2309(3)
H4 H -0.0185 -0.1463 0.2609
C11 C -0.0769(8) -0.0515(5) 0.1603(3)
C12 C -0.0781(8) 0.0702(6) 0.1159(3)
H5 H -0.1134 0.0782 0.0670
C13 C -0.0284(8) 0.1790(6) 0.1425(4)
C14 C 0.0217(8) 0.1688(6) 0.2137(3)
H6 H 0.0521 0.2447 0.2328
C15 C 0.3515(7) 0.1788(6) 0.6072(4)
C16 C 0.3764(9) -0.3062(6) 0.5786(4)
C17 C -0.1314(8) -0.1686(6) 0.1291(3)
C18 C -0.0274(7) 0.3086(5) 0.0943(3)
C19 C 0.3573(9) 0.7293(6) 0.1765(4)
H7 H 0.3665 0.6566 0.2146
C20 C 0.4050(8) 0.8493(6) 0.1874(4)
H8 H 0.4482 0.8581 0.2328
C21 C 0.3918(7) 0.9587(5) 0.1337(3)
C22 C 0.3312(8) 0.9367(6) 0.0671(4)
H9 H 0.3214 1.0076 0.0280
C23 C 0.2863(8) 0.8157(7) 0.0575(4)
H10 H 0.2466 0.8034 0.0117
C24 C 0.4391(7) 1.0901(6) 0.1440(4)
C25 C 0.5302(8) 1.1040(6) 0.2026(4)
H11 H 0.5591 1.0301 0.2364
C26 C 0.5755(8) 1.2282(6) 0.2091(4)
H12 H 0.6334 1.2389 0.2492
C27 C 0.4031(9) 1.2019(6) 0.0967(4)
H13 H 0.3438 1.1949 0.0565
C28 C 0.4510(9) 1.3229(6) 0.1063(4)
H14 H 0.4210 1.3991 0.0745
C29 C 0.9637(14) 0.3932(12) 0.6007(7)
H15 H 0.9584 0.3388 0.6508
H16 H 1.0578 0.4468 0.5918
H17 H 0.9766 0.3356 0.5579
C30 C 0.8060(13) 0.5909(10) 0.6802(6)
H18 H 0.7239 0.6673 0.6854
H19 H 0.9167 0.6216 0.6678
H20 H 0.7926 0.5345 0.7297
N1 N 0.2973(6) 0.7131(5) 0.1121(3)
N2 N 0.5416(7) 1.3333(5) 0.1616(3)
O1 O 0.3438(6) 0.2932(4) 0.5709(2)
O2 O 0.3889(7) 0.1546(5) 0.6723(3)
O3 O 0.4531(7) -0.3260(5) 0.6316(3)
O4 O 0.3361(8) -0.4019(4) 0.5463(3)
O5 O -0.0737(6) -0.2818(4) 0.1558(3)
O6 O -0.2182(6) -0.1502(4) 0.0790(3)
O7 O -0.0774(6) 0.3156(4) 0.0300(2)
O8 O 0.0236(6) 0.4030(4) 0.1200(3)
O9 O 0.2520(6) 0.5961(4) 0.1026(3)
O10 O 0.5889(7) 1.4498(4) 0.1690(3)
O11 O 0.2718(7) 0.4546(5) 0.7218(3)
H21 H 0.3274 0.4699 0.7552
H22 H 0.2242 0.3842 0.7376
O12 O -0.2295(6) 0.5928(5) 0.0498(3)
H23 H -0.2712 0.6725 0.0477
H24 H -0.2902 0.5489 0.0866
O13 O 0.6417(6) 0.4077(4) 0.6384(3)
S1 S 0.7786(3) 0.49911(19) 0.60382(11)
Zn1 Zn 0.41707(10) 0.44062(7) 0.61352(5)
Zn2 Zn 0.02263(10) 0.58612(6) 0.07592(4)
C1A C -0.3527(8) 1.0619(6) -0.5904(3)
H1A H -0.3987 1.0799 -0.6363
C2A C -0.3247(9) 1.1669(6) -0.5509(3)
C3A C -0.2570(8) 1.1399(6) -0.4842(3)
H2A H -0.2366 1.2105 -0.4570
C4A C -0.2187(7) 1.0088(6) -0.4570(3)
C5A C -0.2458(8) 0.9058(6) -0.4973(3)
H3A H -0.2173 0.8171 -0.4791
C6A C -0.3141(7) 0.9309(6) -0.5636(3)
C7A C -0.1490(9) 0.9821(6) -0.3876(4)
C8A C -0.0898(9) 0.9667(6) -0.3292(4)
C9A C -0.0274(8) 0.9539(6) -0.2576(3)
C10A C 0.0220(8) 1.0632(5) -0.2309(3)
H4A H 0.0185 1.1463 -0.2609
C11A C 0.0769(8) 1.0515(5) -0.1603(3)
C12A C 0.0781(8) 0.9298(6) -0.1159(3)
H5A H 0.1134 0.9218 -0.0670
C13A C 0.0284(8) 0.8210(6) -0.1425(4)
C14A C -0.0217(8) 0.8312(6) -0.2137(3)
H6A H -0.0521 0.7553 -0.2328
C15A C -0.3515(7) 0.8212(6) -0.6072(4)
C16A C -0.3764(9) 1.3062(6) -0.5786(4)
C17A C 0.1314(8) 1.1686(6) -0.1291(3)
C18A C 0.0274(7) 0.6914(5) -0.0943(3)
C19A C -0.3573(9) 0.2707(6) -0.1765(4)
H7A H -0.3665 0.3434 -0.2146
C20A C -0.4050(8) 0.1507(6) -0.1874(4)
H8A H -0.4482 0.1419 -0.2328
C21A C -0.3918(7) 0.0413(5) -0.1337(3)
C22A C -0.3312(8) 0.0633(6) -0.0671(4)
H9A H -0.3214 -0.0076 -0.0280
C23A C -0.2863(8) 0.1843(7) -0.0575(4)
H10A H -0.2466 0.1966 -0.0117
C24A C -0.4391(7) -0.0901(6) -0.1440(4)
C25A C -0.5302(8) -0.1040(6) -0.2026(4)
H11A H -0.5591 -0.0301 -0.2364
C26A C -0.5755(8) -0.2282(6) -0.2091(4)
H12A H -0.6334 -0.2389 -0.2492
C27A C -0.4031(9) -0.2019(6) -0.0967(4)
H13A H -0.3438 -0.1949 -0.0565
C28A C -0.4510(9) -0.3229(6) -0.1063(4)
H14A H -0.4210 -0.3991 -0.0745
C29A C -0.9637(14) 0.6068(12) -0.6007(7)
H15A H -0.9584 0.6612 -0.6508
H16A H -1.0578 0.5532 -0.5918
H17A H -0.9766 0.6644 -0.5579
C30A C -0.8060(13) 0.4091(10) -0.6802(6)
H18A H -0.7239 0.3327 -0.6854
H19A H -0.9167 0.3784 -0.6678
H20A H -0.7926 0.4655 -0.7297
N1A N -0.2973(6) 0.2869(5) -0.1121(3)
N2A N -0.5416(7) -0.3333(5) -0.1616(3)
O1A O -0.3438(6) 0.7068(4) -0.5709(2)
O2A O -0.3889(7) 0.8454(5) -0.6723(3)
O3A O -0.4531(7) 1.3260(5) -0.6316(3)
O3_2 O 0.4531(7) 0.6740(5) 0.6316(3)
O3A_2 O -0.4531(7) 0.3260(5) -0.6316(3)
O4A O -0.3361(8) 1.4019(4) -0.5463(3)
O4_2 O 0.3361(8) 0.5981(4) 0.5463(3)
O4A_2 O -0.3361(8) 0.4019(4) -0.5463(3)
O5A O 0.0737(6) 1.2818(4) -0.1558(3)
O5_2 O -0.0737(6) 0.7182(4) 0.1558(3)
O5A_2 O 0.0737(6) 0.2818(4) -0.1558(3)
O6A O 0.2182(6) 1.1502(4) -0.0790(3)
O7A O 0.0774(6) 0.6844(4) -0.0300(2)
O8A O -0.0236(6) 0.5970(4) -0.1200(3)
O9A O -0.2520(6) 0.4039(4) -0.1026(3)
O10A O -0.5889(7) -0.4498(4) -0.1690(3)
O11A O -0.2718(7) 0.5454(5) -0.7218(3)
H21A H -0.3274 0.5301 -0.7552
H22A H -0.2242 0.6158 -0.7376
O12A O 0.2295(6) 0.4072(5) -0.0498(3)
H23A H 0.2712 0.3275 -0.0477
H24A H 0.2902 0.4511 -0.0866
O13A O -0.6417(6) 0.5923(4) -0.6384(3)
S1A S -0.7786(3) 0.50089(19) -0.60382(11)
Zn1A Zn -0.41707(10) 0.55938(7) -0.61352(5)
Zn1_2 Zn 0.41707(10) -0.55938(7) 0.61352(5)
Zn1A_2 Zn -0.41707(10) 1.55938(7) -0.61352(5)
Zn2A Zn -0.02263(10) 0.41388(6) -0.07592(4)
Zn2_2 Zn 0.02263(10) -0.41388(6) 0.07592(4)
Zn2A_2 Zn -0.02263(10) 1.41388(6) -0.07592(4)
loop_
_geom_bond_atom_site_label_1
_geom_bond_atom_site_label_2
_geom_bond_site_symmetry_1
_geom_bond_site_symmetry_2
C1 H1 1_555 1_555
C2 C1 1_555 1_555
C3 C2 1_555 1_555
H2 C3 1_555 1_555
C4 C3 1_555 1_555
C5 C4 1_555 1_555
H3 C5 1_555 1_555
C6 C1 1_555 1_555
C7 C4 1_555 1_555
C8 C7 1_555 1_555
C9 C8 1_555 1_555
C10 C9 1_555 1_555
H4 C10 1_555 1_555
C11 C10 1_555 1_555
C12 C11 1_555 1_555
H5 C12 1_555 1_555
C13 C12 1_555 1_555
C14 C9 1_555 1_555
H6 C14 1_555 1_555
C15 C6 1_555 1_555
C16 C2 1_555 1_555
C17 C11 1_555 1_555
C18 C13 1_555 1_555
C19 H7 1_555 1_555
C20 C19 1_555 1_555
H8 C20 1_555 1_555
C21 C20 1_555 1_555
C22 C21 1_555 1_555
H9 C22 1_555 1_555
C23 C22 1_555 1_555
H10 C23 1_555 1_555
C24 C21 1_555 1_555
C25 C24 1_555 1_555
H11 C25 1_555 1_555
C26 C25 1_555 1_555
H12 C26 1_555 1_555
C27 C24 1_555 1_555
H13 C27 1_555 1_555
C28 C27 1_555 1_555
H14 C28 1_555 1_555
C29 H15 1_555 1_555
H16 C29 1_555 1_555
H17 C29 1_555 1_555
C30 H18 1_555 1_555
H19 C30 1_555 1_555
H20 C30 1_555 1_555
N1 C19 1_555 1_555
N2 C26 1_555 1_555
O1 C15 1_555 1_555
O2 C15 1_555 1_555
O3 C16 1_555 1_555
O4 C16 1_555 1_555
O5 C17 1_555 1_555
O6 C17 1_555 1_555
O7 C18 1_555 1_555
O8 C18 1_555 1_555
O9 N1 1_555 1_555
O10 N2 1_555 1_555
O11 H21 1_555 1_555
H22 O11 1_555 1_555
O12 H23 1_555 1_555
H24 O12 1_555 1_555
O13 S1 1_555 1_555
S1 C29 1_555 1_555
Zn1 O1 1_555 1_555
Zn2 O8 1_555 1_555
C1A H1A 1_555 1_555
C2A C1A 1_555 1_555
C3A C2A 1_555 1_555
H2A C3A 1_555 1_555
C4A C3A 1_555 1_555
C5A C4A 1_555 1_555
H3A C5A 1_555 1_555
C6A C1A 1_555 1_555
C7A C4A 1_555 1_555
C8A C7A 1_555 1_555
C9A C8A 1_555 1_555
C10A C9A 1_555 1_555
H4A C10A 1_555 1_555
C11A C10A 1_555 1_555
C12A C11A 1_555 1_555
H5A C12A 1_555 1_555
C13A C12A 1_555 1_555
C14A C9A 1_555 1_555
H6A C14A 1_555 1_555
C15A C6A 1_555 1_555
C16A C2A 1_555 1_555
C17A C11A 1_555 1_555
C18A C13A 1_555 1_555
C19A H7A 1_555 1_555
C20A C19A 1_555 1_555
H8A C20A 1_555 1_555
C21A C20A 1_555 1_555
C22A C21A 1_555 1_555
H9A C22A 1_555 1_555
C23A C22A 1_555 1_555
H10A C23A 1_555 1_555
C24A C21A 1_555 1_555
C25A C24A 1_555 1_555
H11A C25A 1_555 1_555
C26A C25A 1_555 1_555
H12A C26A 1_555 1_555
C27A C24A 1_555 1_555
H13A C27A 1_555 1_555
C28A C27A 1_555 1_555
H14A C28A 1_555 1_555
C29A H15A 1_555 1_555
H16A C29A 1_555 1_555
H17A C29A 1_555 1_555
C30A H18A 1_555 1_555
H19A C30A 1_555 1_555
H20A C30A 1_555 1_555
N1A C19A 1_555 1_555
N2A C26A 1_555 1_555
O1A C15A 1_555 1_555
O2A C15A 1_555 1_555
O3A C16A 1_555 1_555
O3_2 Zn1 1_555 1_555
O3A_2 Zn1A 1_555 1_555
O4A C16A 1_555 1_555
O4_2 Zn1 1_555 1_555
O4A_2 Zn1A 1_555 1_555
O5A C17A 1_555 1_555
O5_2 Zn2 1_555 1_555
O5A_2 Zn2A 1_555 1_555
O6A C17A 1_555 1_555
O7A Zn2 1_555 1_555
O8A C18A 1_555 1_555
O9A N1A 1_555 1_555
O10A N2A 1_555 1_555
O11A H21A 1_555 1_555
H22A O11A 1_555 1_555
O12A H23A 1_555 1_555
H24A O12A 1_555 1_555
O13A S1A 1_555 1_555
S1A C29A 1_555 1_555
Zn1A O1A 1_555 1_555
Zn1_2 O3 1_555 1_555
Zn1A_2 O3A 1_555 1_555
Zn2A O7 1_555 1_555
Zn2_2 O5 1_555 1_555
Zn2A_2 O5A 1_555 1_555
C5 C6 1_555 1_555
C13 C14 1_555 1_555
C23 N1 1_555 1_555
C28 N2 1_555 1_555
C30 S1 1_555 1_555
O4 Zn1_2 1_555 1_555
O9 Zn2 1_555 1_555
O11 Zn1 1_555 1_555
O12 Zn2 1_555 1_555
O13 Zn1 1_555 1_555
C5A C6A 1_555 1_555
C13A C14A 1_555 1_555
C18A O7A 1_555 1_555
C23A N1A 1_555 1_555
C28A N2A 1_555 1_555
C30A S1A 1_555 1_555
O4A Zn1A_2 1_555 1_555
O8A Zn2A 1_555 1_555
O9A Zn2A 1_555 1_555
O11A Zn1A 1_555 1_555
O12A Zn2A 1_555 1_555
O13A Zn1A 1_555 1_555

#END
