
#######################################################################
#
#                 Cambridge Crystallographic Data Centre
#                                CCDC 
#
#######################################################################
#
# If this CIF has been generated from an entry in the Cambridge 
# Structural Database, then it will include bibliographic, chemical, 
# crystal, experimental, refinement or atomic coordinate data resulting 
# from the CCDC's data processing and validation procedures.
#
#######################################################################

data_ONOJUX
_symmetry_cell_setting           triclinic
_symmetry_space_group_name_H-M   'P -1'
_symmetry_Int_Tables_number      2
_space_group_name_Hall           '-P 1'
loop_
_symmetry_equiv_pos_site_id
_symmetry_equiv_pos_as_xyz
1 x,y,z
2 -x,-y,-z
_cell_length_a                   7.6983(4)
_cell_length_b                   8.5720(7)
_cell_length_c                   22.6023(12)
_cell_angle_alpha                86.022(2)
_cell_angle_beta                 82.7180(17)
_cell_angle_gamma                72.227(3)
_cell_volume                     1408.14
loop_
_atom_site_label
_atom_site_type_symbol
_atom_site_fract_x
_atom_site_fract_y
_atom_site_fract_z
Cu1 Cu 0.84765(8) 0.97110(8) 0.05028(3)
Cu2 Cu 0.73715(9) 0.53745(9) 0.25833(3)
Cu3 Cu 0.65057(8) 0.03519(7) 0.44997(2)
N1 N 0.5787(5) 1.0780(5) 0.06659(18)
N2 N 0.2834(6) 1.1126(7) 0.0879(2)
N3 N 0.8352(5) 0.7687(5) 0.09543(18)
N4 N 0.7921(6) 0.6077(5) 0.17391(19)
N5 N 0.4727(6) 0.6748(6) 0.2573(2)
N6 N 0.1737(6) 0.7522(7) 0.2683(2)
N7 N 1.0037(6) 0.4064(6) 0.2607(2)
N8 N 1.2654(9) 0.2498(9) 0.2928(3)
N9 N 0.6788(6) 0.4328(5) 0.33703(19)
N10 N 0.6622(5) 0.2434(5) 0.40849(18)
N11 N 0.9179(5) -0.0745(5) 0.43230(18)
N12 N 1.1887(7) -0.2631(8) 0.4172(2)
N13 N 1.1081(5) 0.8663(5) 0.01520(19)
N14 N 1.2104(6) 0.7528(5) 0.0410(2)
N15 N 1.3037(8) 0.6478(8) 0.0657(3)
N16 N 0.9230(6) 1.0905(6) 0.1277(2)
N17 N 0.8068(6) 1.1450(6) 0.1664(2)
N18 N 0.6926(7) 1.2000(8) 0.2046(2)
N19 N 0.5636(5) 0.9376(5) 0.36979(19)
N20 N 0.6768(5) 0.8611(5) 0.33413(18)
N21 N 0.7870(6) 0.7839(6) 0.2986(2)
N22 N 0.3929(5) 0.1398(5) 0.48949(19)
N23 N 0.2869(5) 0.2527(5) 0.46515(19)
N24 N 0.1880(7) 0.3608(6) 0.4428(2)
C1 C 0.4505(7) 1.0028(7) 0.0811(2)
C2 C 0.4880(7) 1.2423(7) 0.0640(2)
C3 C 0.3043(7) 1.2640(8) 0.0773(2)
C4 C 0.8239(7) 0.7473(7) 0.1548(2)
C5 C 0.7804(10) 0.5368(7) 0.1233(2)
C6 C 0.8120(9) 0.6334(7) 0.0749(2)
C7 C 0.4090(8) 0.8328(8) 0.2337(3)
C8 C 0.2232(9) 0.8805(9) 0.2397(3)
C9 C 0.3262(7) 0.6341(7) 0.2800(2)
C10 C 1.0851(8) 0.3256(8) 0.3099(3)
C11 C 1.2978(7) 0.2854(7) 0.2339(2)
C12 C 1.1383(7) 0.3839(7) 0.2168(2)
C13 C 0.6635(7) 0.5003(7) 0.3926(2)
C14 C 0.6554(7) 0.3848(6) 0.4351(2)
C15 C 0.6757(6) 0.2797(7) 0.3495(2)
C16 C 1.0467(6) -0.0011(7) 0.4202(2)
C17 C 1.0069(6) -0.2416(6) 0.4299(2)
C18 C 1.2113(6) -0.1121(6) 0.4110(2)
H1 H 0.1706 1.0888 0.0984
H2 H 0.4747 0.8874 0.0860
H3 H 0.5438 1.3270 0.0545
H4 H 0.2095 1.3656 0.0787
H5 H 0.8366 0.8249 0.1807
H6 H 0.7559 0.4351 0.1218
H7 H 0.8153 0.6101 0.0342
H8 H 0.0516 0.7476 0.2783
H9 H 0.4840 0.8976 0.2164
H10 H 0.1438 0.9818 0.2266
H11 H 0.3289 0.5344 0.3016
H12 H 1.3519 0.1836 0.3177
H13 H 1.0245 0.3241 0.3492
H14 H 1.4114 0.2482 0.2094
H15 H 1.1240 0.4318 0.1779
H16 H 0.6597 0.6097 0.3990
H17 H 0.6460 0.3985 0.4768
H18 H 0.6831 0.2040 0.3199
H19 H 1.2828 -0.3648 0.4131
H20 H 1.0246 0.1143 0.4184
H21 H 0.9500 -0.3263 0.4361
H22 H 1.3250 -0.0889 0.4019
Cu1A Cu 1.15235(8) 1.02890(8) -0.05028(3)
Cu3_2 Cu 0.65057(8) 1.03519(7) 0.44997(2)
Cu3A Cu 0.34943(8) -0.03519(7) 0.55003(2)
N13A N 0.8919(5) 1.1337(5) -0.01520(19)
N19_2 N 0.5636(5) -0.0624(5) 0.36979(19)
N22A N 0.6071(5) -0.1398(5) 0.51051(19)
loop_
_geom_bond_atom_site_label_1
_geom_bond_atom_site_label_2
_geom_bond_site_symmetry_1
_geom_bond_site_symmetry_2
Cu1 N1 1_555 1_555
Cu2 N4 1_555 1_555
Cu3 N10 1_555 1_555
N1 C1 1_555 1_555
N2 C1 1_555 1_555
N3 Cu1 1_555 1_555
N4 C4 1_555 1_555
N5 Cu2 1_555 1_555
N6 C8 1_555 1_555
N7 Cu2 1_555 1_555
N8 C10 1_555 1_555
N9 Cu2 1_555 1_555
N10 C14 1_555 1_555
N11 Cu3 1_555 1_555
N12 C17 1_555 1_555
N13 Cu1 1_555 1_555
N14 N13 1_555 1_555
N15 N14 1_555 1_555
N16 Cu1 1_555 1_555
N17 N16 1_555 1_555
N18 N17 1_555 1_555
N19 N20 1_555 1_555
N20 N21 1_555 1_555
N21 Cu2 1_555 1_555
N22 Cu3 1_555 1_555
N23 N22 1_555 1_555
N24 N23 1_555 1_555
C1 H2 1_555 1_555
C2 N1 1_555 1_555
C3 N2 1_555 1_555
C4 N3 1_555 1_555
C5 N4 1_555 1_555
C6 N3 1_555 1_555
C7 N5 1_555 1_555
C8 C7 1_555 1_555
C9 N5 1_555 1_555
C10 N7 1_555 1_555
C11 N8 1_555 1_555
C12 N7 1_555 1_555
C13 N9 1_555 1_555
C14 C13 1_555 1_555
C15 N9 1_555 1_555
C16 N11 1_555 1_555
C17 N11 1_555 1_555
C18 N12 1_555 1_555
H1 N2 1_555 1_555
H3 C2 1_555 1_555
H4 C3 1_555 1_555
H5 C4 1_555 1_555
H6 C5 1_555 1_555
H7 C6 1_555 1_555
H8 N6 1_555 1_555
H9 C7 1_555 1_555
H10 C8 1_555 1_555
H11 C9 1_555 1_555
H12 N8 1_555 1_555
H13 C10 1_555 1_555
H14 C11 1_555 1_555
H15 C12 1_555 1_555
H16 C13 1_555 1_555
H17 C14 1_555 1_555
H18 C15 1_555 1_555
H19 N12 1_555 1_555
H20 C16 1_555 1_555
H21 C17 1_555 1_555
H22 C18 1_555 1_555
Cu1A N13 1_555 1_555
Cu3_2 N19 1_555 1_555
Cu3A N22 1_555 1_555
N13A Cu1 1_555 1_555
N19_2 Cu3 1_555 1_555
N22A Cu3 1_555 1_555
N6 C9 1_555 1_555
N10 C15 1_555 1_555
C2 C3 1_555 1_555
C5 C6 1_555 1_555
C11 C12 1_555 1_555
C16 C18 1_555 1_555
Cu1A N13A 1_555 1_555
Cu3A N22A 1_555 1_555

#END
