
#######################################################################
#
#                 Cambridge Crystallographic Data Centre
#                                CCDC 
#
#######################################################################
#
# If this CIF has been generated from an entry in the Cambridge 
# Structural Database, then it will include bibliographic, chemical, 
# crystal, experimental, refinement or atomic coordinate data resulting 
# from the CCDC's data processing and validation procedures.
#
#######################################################################

data_ONOKAE
_symmetry_cell_setting           monoclinic
_symmetry_space_group_name_H-M   'C 2/c'
_symmetry_Int_Tables_number      15
_space_group_name_Hall           '-C 2yn'
loop_
_symmetry_equiv_pos_site_id
_symmetry_equiv_pos_as_xyz
1 x,y,z
2 -x,y,1/2-z
3 1/2+x,1/2+y,z
4 1/2-x,1/2+y,1/2-z
5 -x,-y,-z
6 x,-y,1/2+z
7 1/2-x,1/2-y,-z
8 1/2+x,1/2-y,1/2+z
_cell_length_a                   30.6444(17)
_cell_length_b                   9.2536(7)
_cell_length_c                   8.2410(5)
_cell_angle_alpha                90
_cell_angle_beta                 103.093(4)
_cell_angle_gamma                90
_cell_volume                     2276.16
loop_
_atom_site_label
_atom_site_type_symbol
_atom_site_fract_x
_atom_site_fract_y
_atom_site_fract_z
Cu1 Cu 0.216045(17) 0.01243(6) 0.08662(7)
O1 O 0.19409(10) 0.2017(3) -0.0160(4)
O2 O 0.22344(10) 0.4080(3) -0.0835(4)
O3 O 0.22267(10) -0.1237(3) -0.1449(4)
O4 O 0.25542(10) -0.3315(3) -0.1873(4)
N1 N 0.15457(12) -0.0473(4) 0.1027(5)
N2 N 0.01988(16) -0.3112(5) 0.2271(8)
N3 N 0.0000 -0.0840(6) 0.2500
H1 H 0.0000 0.0089 0.2500
C1 C 0.03097(16) -0.1734(6) 0.2141(8)
C2 C 0.12757(17) 0.0491(5) 0.1516(7)
H2 H 0.1365 0.1453 0.1621
C3 C 0.08731(18) 0.0127(6) 0.1869(8)
H3 H 0.0699 0.0831 0.2222
C4 C 0.07284(16) -0.1288(5) 0.1699(7)
C5 C 0.09998(17) -0.2287(6) 0.1149(8)
H4 H 0.0911 -0.3246 0.0983
C6 C 0.14035(17) -0.1838(5) 0.0851(7)
H5 H 0.1586 -0.2523 0.0510
C7 C 0.22631(14) 0.2815(5) -0.0286(5)
C8 C 0.24357(14) -0.2365(5) -0.0959(5)
Cu1A Cu -0.216045(17) 0.01243(6) 0.41338(7)
Cu1C Cu 0.283955(17) -0.48757(6) 0.41338(7)
Cu1E Cu 0.216045(17) -0.01243(6) -0.41338(7)
Cu1F Cu 0.283955(17) -0.51243(6) -0.08662(7)
Cu1F_2 Cu 0.283955(17) 0.48757(6) -0.08662(7)
O1F O 0.30591(10) 0.2983(3) 0.0160(4)
O1A O -0.19409(10) 0.2017(3) 0.5160(4)
O2F O 0.27656(10) 0.0920(3) 0.0835(4)
O2G O -0.27656(10) 0.0920(3) 0.4165(4)
O3F O 0.27733(10) -0.3763(3) 0.1449(4)
O3D O -0.22267(10) 0.1237(3) 0.1449(4)
O3E O 0.22267(10) 0.1237(3) 0.3551(4)
O3A O -0.22267(10) -0.1237(3) 0.6449(4)
O4F O 0.24458(10) -0.1685(3) 0.1873(4)
O4G O -0.24458(10) -0.1685(3) 0.3127(4)
N1A N -0.15457(12) -0.0473(4) 0.3973(5)
N2A N -0.01988(16) -0.3112(5) 0.2729(8)
C1A C -0.03097(16) -0.1734(6) 0.2859(8)
C2A C -0.12757(17) 0.0491(5) 0.3484(7)
H2A H -0.1365 0.1453 0.3379
C3A C -0.08731(18) 0.0127(6) 0.3131(8)
H3A H -0.0699 0.0831 0.2778
C4A C -0.07284(16) -0.1288(5) 0.3301(7)
C5A C -0.09998(17) -0.2287(6) 0.3851(8)
H4A H -0.0911 -0.3246 0.4017
C6A C -0.14035(17) -0.1838(5) 0.4149(7)
H5A H -0.1586 -0.2523 0.4490
C7F C 0.27369(14) 0.2185(5) 0.0286(5)
C8F C 0.25643(14) -0.2635(5) 0.0959(5)
O5 O 0.15231(16) 0.5626(8) -0.3145(10)
H6 H 0.1332(17) 0.581(9) -0.404(4)
H7 H 0.142(2) 0.577(9) -0.230(4)
O6 O 0.0000 0.2272(11) 0.2500
H8 H -0.007(2) 0.2747(12) 0.1628(8)
H8A H 0.007(2) 0.2747(12) 0.3372(8)
O7 O 0.0624(3) -0.5834(9) 0.2059(11)
H9 H 0.052(2) -0.539(6) 0.118(4)
H10 H 0.070(2) -0.535(6) 0.292(4)
loop_
_geom_bond_atom_site_label_1
_geom_bond_atom_site_label_2
_geom_bond_site_symmetry_1
_geom_bond_site_symmetry_2
Cu1 O1 1_555 1_555
O1 C7 1_555 1_555
O2 C7 1_555 1_555
O3 Cu1 1_555 1_555
O4 C8 1_555 1_555
N1 Cu1 1_555 1_555
N2 C1 1_555 1_555
N3 H1 1_555 1_555
C1 N3 1_555 1_555
C2 N1 1_555 1_555
H2 C2 1_555 1_555
C3 C2 1_555 1_555
H3 C3 1_555 1_555
C4 C1 1_555 1_555
C5 C4 1_555 1_555
H4 C5 1_555 1_555
C6 N1 1_555 1_555
H5 C6 1_555 1_555
C7 C7F 1_555 1_555
C8 O3 1_555 1_555
O5 H6 1_555 1_555
H7 O5 1_555 1_555
O6 H8 1_555 1_555
O7 H9 1_555 1_555
H10 O7 1_555 1_555
Cu1A O1A 1_555 1_555
Cu1C O3F 1_555 1_555
Cu1E O3 1_555 1_555
Cu1F O4 1_555 1_555
Cu1F_2 O2 1_555 1_555
O1F Cu1F_2 1_555 1_555
O2F Cu1 1_555 1_555
O2G Cu1A 1_555 1_555
O3F Cu1F 1_555 1_555
O3D Cu1A 1_555 1_555
O3E Cu1 1_555 1_555
O3A Cu1A 1_555 1_555
O4F Cu1 1_555 1_555
O4G Cu1A 1_555 1_555
N1A Cu1A 1_555 1_555
N2A N2 1_555 1_555
C1A N3 1_555 1_555
C2A N1A 1_555 1_555
H2A C2A 1_555 1_555
C3A C2A 1_555 1_555
H3A C3A 1_555 1_555
C4A C1A 1_555 1_555
C5A C4A 1_555 1_555
H4A C5A 1_555 1_555
C6A N1A 1_555 1_555
H5A C6A 1_555 1_555
C7F O1F 1_555 1_555
C8F C8 1_555 1_555
H8A O6 1_555 1_555
C3 C4 1_555 1_555
C5 C6 1_555 1_555
O2F C7F 1_555 1_555
O3F C8F 1_555 1_555
O4F C8F 1_555 1_555
N2A C1A 1_555 1_555
C3A C4A 1_555 1_555
C5A C6A 1_555 1_555

#END
