
#######################################################################
#
#                 Cambridge Crystallographic Data Centre
#                                CCDC 
#
#######################################################################
#
# If this CIF has been generated from an entry in the Cambridge 
# Structural Database, then it will include bibliographic, chemical, 
# crystal, experimental, refinement or atomic coordinate data resulting 
# from the CCDC's data processing and validation procedures.
#
#######################################################################

data_ONOQEO
_symmetry_cell_setting           triclinic
_symmetry_space_group_name_H-M   'P -1'
_symmetry_Int_Tables_number      2
_space_group_name_Hall           '-P 1'
loop_
_symmetry_equiv_pos_site_id
_symmetry_equiv_pos_as_xyz
1 x,y,z
2 -x,-y,-z
_cell_length_a                   9.6084(8)
_cell_length_b                   13.2593(11)
_cell_length_c                   19.0132(19)
_cell_angle_alpha                109.286(4)
_cell_angle_beta                 91.745(4)
_cell_angle_gamma                109.882(3)
_cell_volume                     2122.08
loop_
_atom_site_label
_atom_site_type_symbol
_atom_site_fract_x
_atom_site_fract_y
_atom_site_fract_z
Cu1 Cu 0.64578(3) 0.09976(2) 0.046391(15)
Cu2 Cu 0.62748(3) 0.62523(2) 0.532524(16)
Cl1 Cl 0.60693(6) -0.06580(5) -0.06653(3)
Cl2 Cl 0.85948(6) 0.64817(5) 0.58713(3)
S1 S 0.55900(6) 0.48662(5) 0.40839(3)
P1 P 0.75928(7) 0.26066(5) 0.02684(3)
P2 P 0.59064(7) 0.77998(5) 0.52663(3)
N1 N 0.7648(2) 0.06911(15) 0.12348(10)
N2 N 0.7402(2) 0.27405(16) 0.29390(10)
N3 N 0.6476(2) 0.33335(16) 0.31595(10)
H1 H 0.5718 0.3241 0.2841
N4 N 0.8063(2) 0.44150(16) 0.42895(10)
H2 H 0.8678 0.4088 0.4132
H3 H 0.8301 0.4931 0.4757
C1 C 0.8471(3) 0.00524(19) 0.09608(13)
H4 H 0.8328 -0.0303 0.0445
C2 C 0.9603(3) 0.0005(2) 0.14028(14)
H5 H 1.0086 -0.0453 0.1217
C3 C 0.9886(3) 0.0638(2) 0.21727(14)
H6 H 1.0689 0.0603 0.2464
C4 C 0.9036(3) 0.1277(2) 0.24690(13)
H7 H 0.9168 0.1649 0.3016
C5 C 0.7933(3) 0.12969(18) 0.19893(12)
C6 C 0.7018(3) 0.19860(19) 0.22683(13)
H8 H 0.6209 0.1921 0.1960
C7 C 0.6825(2) 0.41701(18) 0.38473(12)
C8 C 0.6587(3) 0.28024(19) -0.04745(13)
C9 C 0.5413(3) 0.1845(2) -0.09716(13)
H9 H 0.5177 0.1136 -0.0918
C10 C 0.4601(3) 0.1938(2) -0.15435(13)
H10 H 0.3817 0.1293 -0.1869
C11 C 0.4941(3) 0.2980(2) -0.16341(14)
H11 H 0.4397 0.3038 -0.2022
C12 C 0.6106(3) 0.3946(2) -0.11414(17)
H12 H 0.6340 0.4653 -0.1198
C13 C 0.6918(3) 0.3851(2) -0.05654(15)
H13 H 0.7694 0.4499 -0.0237
C14 C 0.9457(3) 0.27663(19) 0.00233(13)
C15 C 0.9993(3) 0.3086(2) -0.05707(13)
H14 H 0.9375 0.3226 -0.0882
C16 C 1.1443(3) 0.3198(2) -0.07053(14)
H15 H 1.1787 0.3411 -0.1106
C17 C 1.2376(3) 0.2995(2) -0.02456(15)
H16 H 1.3350 0.3081 -0.0331
C18 C 1.1846(3) 0.2662(2) 0.03448(15)
H17 H 1.2468 0.2524 0.0656
C19 C 1.0404(3) 0.2534(2) 0.04716(14)
H18 H 1.0051 0.2290 0.0860
C20 C 0.7939(3) 0.39191(19) 0.10908(13)
C21 C 0.9352(3) 0.4750(2) 0.14270(14)
H19 H 1.0188 0.4689 0.1210
C22 C 0.9519(3) 0.5670(2) 0.20852(15)
H20 H 1.0470 0.6218 0.2307
C23 C 0.8300(4) 0.5781(2) 0.24090(15)
H21 H 0.8428 0.6402 0.2850
C24 C 0.6878(4) 0.4967(2) 0.20837(15)
H22 H 0.6049 0.5046 0.2302
C25 C 0.6695(3) 0.4035(2) 0.14283(14)
H23 H 0.5743 0.3483 0.1212
C26 C 0.3956(3) 0.75440(19) 0.49619(13)
C27 C 0.3199(3) 0.8205(2) 0.53788(13)
H24 H 0.3703 0.8837 0.5815
C28 C 0.1684(3) 0.7918(2) 0.51394(15)
H25 H 0.1177 0.8358 0.5419
C29 C 0.0926(3) 0.6983(2) 0.44897(14)
H26 H -0.0085 0.6798 0.4334
C30 C 0.1672(3) 0.6330(2) 0.40727(14)
H27 H 0.1166 0.5707 0.3632
C31 C 0.3182(3) 0.6601(2) 0.43115(14)
H28 H 0.3678 0.6149 0.4034
C32 C 0.6474(2) 0.91115(19) 0.61100(12)
C33 C 0.6519(3) 0.9012(2) 0.68117(13)
H29 H 0.6322 0.8292 0.6843
C34 C 0.6855(3) 0.9971(2) 0.74691(14)
H30 H 0.6849 0.9890 0.7937
C35 C 0.7194(3) 1.1045(2) 0.74242(13)
H31 H 0.7435 1.1691 0.7863
C36 C 0.7182(3) 1.1164(2) 0.67237(13)
H32 H 0.7421 1.1888 0.6695
C37 C 0.6813(3) 1.02012(19) 0.60696(13)
H33 H 0.6790 1.0280 0.5602
C38 C 0.6889(3) 0.83095(18) 0.45710(12)
C39 C 0.8364(3) 0.8390(2) 0.45764(15)
H34 H 0.8794 0.8168 0.4915
C40 C 0.9202(3) 0.8794(2) 0.40807(17)
H35 H 1.0195 0.8852 0.4093
C41 C 0.8576(4) 0.9113(2) 0.35711(16)
H36 H 0.9139 0.9379 0.3235
C42 C 0.7108(3) 0.9038(2) 0.35609(14)
H37 H 0.6683 0.9253 0.3216
C43 C 0.6263(3) 0.8642(2) 0.40541(13)
H38 H 0.5275 0.8599 0.4045
Cu1A Cu 0.35422(3) -0.09976(2) -0.046391(15)
Cu2A Cu 0.37252(3) 0.37477(2) 0.467476(16)
Cl1A Cl 0.39307(6) 0.06580(5) 0.06653(3)
S1A S 0.44100(6) 0.51338(5) 0.59161(3)
loop_
_geom_bond_atom_site_label_1
_geom_bond_atom_site_label_2
_geom_bond_site_symmetry_1
_geom_bond_site_symmetry_2
Cu1 Cl1 1_555 1_555
Cu2 Cl2 1_555 1_555
Cl1 Cu1A 1_555 1_555
S1 Cu2 1_555 1_555
P1 Cu1 1_555 1_555
P2 Cu2 1_555 1_555
N1 Cu1 1_555 1_555
N2 N3 1_555 1_555
N3 H1 1_555 1_555
N4 H2 1_555 1_555
H3 N4 1_555 1_555
C1 N1 1_555 1_555
H4 C1 1_555 1_555
C2 C1 1_555 1_555
H5 C2 1_555 1_555
C3 C2 1_555 1_555
H6 C3 1_555 1_555
C4 C3 1_555 1_555
H7 C4 1_555 1_555
C5 N1 1_555 1_555
C6 N2 1_555 1_555
H8 C6 1_555 1_555
C7 S1 1_555 1_555
C8 P1 1_555 1_555
C9 C8 1_555 1_555
H9 C9 1_555 1_555
C10 C9 1_555 1_555
H10 C10 1_555 1_555
C11 C10 1_555 1_555
H11 C11 1_555 1_555
C12 C11 1_555 1_555
H12 C12 1_555 1_555
C13 C8 1_555 1_555
H13 C13 1_555 1_555
C14 P1 1_555 1_555
C15 C14 1_555 1_555
H14 C15 1_555 1_555
C16 C15 1_555 1_555
H15 C16 1_555 1_555
C17 C16 1_555 1_555
H16 C17 1_555 1_555
C18 C17 1_555 1_555
H17 C18 1_555 1_555
C19 C14 1_555 1_555
H18 C19 1_555 1_555
C20 P1 1_555 1_555
C21 C20 1_555 1_555
H19 C21 1_555 1_555
C22 C21 1_555 1_555
H20 C22 1_555 1_555
C23 C22 1_555 1_555
H21 C23 1_555 1_555
C24 C23 1_555 1_555
H22 C24 1_555 1_555
C25 C20 1_555 1_555
H23 C25 1_555 1_555
C26 P2 1_555 1_555
C27 C26 1_555 1_555
H24 C27 1_555 1_555
C28 C27 1_555 1_555
H25 C28 1_555 1_555
C29 C28 1_555 1_555
H26 C29 1_555 1_555
C30 C29 1_555 1_555
H27 C30 1_555 1_555
C31 C26 1_555 1_555
H28 C31 1_555 1_555
C32 P2 1_555 1_555
C33 C32 1_555 1_555
H29 C33 1_555 1_555
C34 C33 1_555 1_555
H30 C34 1_555 1_555
C35 C34 1_555 1_555
H31 C35 1_555 1_555
C36 C35 1_555 1_555
H32 C36 1_555 1_555
C37 C32 1_555 1_555
H33 C37 1_555 1_555
C38 P2 1_555 1_555
C39 C38 1_555 1_555
H34 C39 1_555 1_555
C40 C39 1_555 1_555
H35 C40 1_555 1_555
C41 C40 1_555 1_555
H36 C41 1_555 1_555
C42 C41 1_555 1_555
H37 C42 1_555 1_555
C43 C38 1_555 1_555
H38 C43 1_555 1_555
Cu1A Cl1A 1_555 1_555
Cu2A S1 1_555 1_555
Cl1A Cu1 1_555 1_555
S1A Cu2 1_555 1_555
N3 C7 1_555 1_555
N4 C7 1_555 1_555
C4 C5 1_555 1_555
C5 C6 1_555 1_555
C12 C13 1_555 1_555
C18 C19 1_555 1_555
C24 C25 1_555 1_555
C30 C31 1_555 1_555
C36 C37 1_555 1_555
C42 C43 1_555 1_555
Cu2A S1A 1_555 1_555

#END
