
#######################################################################
#
#                 Cambridge Crystallographic Data Centre
#                                CCDC 
#
#######################################################################
#
# If this CIF has been generated from an entry in the Cambridge 
# Structural Database, then it will include bibliographic, chemical, 
# crystal, experimental, refinement or atomic coordinate data resulting 
# from the CCDC's data processing and validation procedures.
#
#######################################################################

data_ONOSIU
_symmetry_cell_setting           monoclinic
_symmetry_space_group_name_H-M   'C 2/c'
_symmetry_Int_Tables_number      15
_space_group_name_Hall           '-C 2yn'
loop_
_symmetry_equiv_pos_site_id
_symmetry_equiv_pos_as_xyz
1 x,y,z
2 -x,y,1/2-z
3 1/2+x,1/2+y,z
4 1/2-x,1/2+y,1/2-z
5 -x,-y,-z
6 x,-y,1/2+z
7 1/2-x,1/2-y,-z
8 1/2+x,1/2-y,1/2+z
_cell_length_a                   17.020(2)
_cell_length_b                   13.178(1)
_cell_length_c                   17.604(2)
_cell_angle_alpha                90
_cell_angle_beta                 101.36(1)
_cell_angle_gamma                90
_cell_volume                     3871.04
loop_
_atom_site_label
_atom_site_type_symbol
_atom_site_fract_x
_atom_site_fract_y
_atom_site_fract_z
Fe1 Fe -0.54862(4) 0.70205(6) -0.19442(3)
Fe2 Fe -0.48045(3) 0.83182(4) -0.26807(3)
Fe3 Fe -0.53555(4) 0.64163(6) -0.20853(4)
O1 O -0.37148(8) 0.72385(12) -0.13875(8)
C1 C -0.43087(12) 0.72421(17) -0.19104(12)
O2 O -0.61130(14) 0.8665(2) -0.12174(16)
C2 C -0.57971(15) 0.8271(2) -0.15915(14)
C3 C -0.50889(14) 0.6319(2) -0.10452(15)
O3 O -0.48665(12) 0.60936(18) -0.04190(11)
C4 C -0.64102(14) 0.62818(19) -0.21688(13)
O4 O -0.70543(10) 0.59961(15) -0.22673(12)
C5 C -0.5000 0.5218(3) -0.2500
O5 O -0.5000 0.4403(2) -0.2500
C6 C -0.43122(19) 0.9187(2) -0.19754(15)
O6 O -0.38594(12) 0.97514(15) -0.16501(11)
Li1 Li -0.3069(2) 0.6851(3) -0.04176(19)
N1 N -0.20061(10) 0.75931(13) -0.06856(10)
H1 H -0.2350(16) 0.792(2) -0.1011(16)
N2 N -0.08733(10) 0.66265(15) -0.07243(11)
N3 N -0.14205(12) 0.75910(15) -0.17968(11)
O7 O -0.29849(9) 0.54033(11) -0.03106(8)
C7 C -0.30608(18) 0.47484(19) -0.09733(14)
H2 H -0.3483 0.5000 -0.1401
H3 H -0.2548 0.4710 -0.1158
C8 C -0.3280(3) 0.3740(2) -0.07029(19)
H4 H -0.3028 0.3191 -0.0955
H5 H -0.3868 0.3645 -0.0824
C9 C -0.2982(3) 0.3731(2) 0.01317(18)
H6 H -0.3315 0.3287 0.0394
H7 H -0.2420 0.3495 0.0259
C10 C -0.30465(16) 0.48101(17) 0.03618(13)
H8 H -0.2609 0.4985 0.0802
H9 H -0.3566 0.4935 0.0517
C11 C -0.14595(12) 0.72860(16) -0.10658(11)
C12 C -0.00443(14) 0.6766(3) -0.08132(17)
H10 H -0.0013 0.7346 -0.1154
H11 H 0.0140 0.6153 -0.1041
H12 H 0.0296 0.6891 -0.0305
C13 C -0.09597(14) 0.6104(2) -0.00218(14)
H13 H -0.0761 0.6538 0.0427
H14 H -0.0650 0.5472 0.0026
H15 H -0.1526 0.5947 -0.0042
C14 C -0.19138(17) 0.8427(2) -0.21491(15)
H16 H -0.2451 0.8176 -0.2375
H17 H -0.1672 0.8731 -0.2556
H18 H -0.1952 0.8938 -0.1754
C15 C -0.11555(16) 0.6907(2) -0.23495(14)
H19 H -0.0990 0.6258 -0.2096
H20 H -0.0702 0.7212 -0.2533
H21 H -0.1597 0.6792 -0.2790
Fe1A Fe -0.45138(4) 0.70205(6) -0.30558(3)
Fe2A Fe -0.51955(3) 0.83182(4) -0.23193(3)
Fe3A Fe -0.46445(4) 0.64163(6) -0.29147(4)
O1A O -0.62852(8) 0.72385(12) -0.36125(8)
C1A C -0.56913(12) 0.72421(17) -0.30896(12)
O2A O -0.38870(14) 0.8665(2) -0.37826(16)
C2A C -0.42029(15) 0.8271(2) -0.34085(14)
C3A C -0.49111(14) 0.6319(2) -0.39548(15)
O3A O -0.51335(12) 0.60936(18) -0.45810(11)
C4A C -0.35898(14) 0.62818(19) -0.28312(13)
O4A O -0.29457(10) 0.59961(15) -0.27327(12)
C6A C -0.56878(19) 0.9187(2) -0.30246(15)
O6A O -0.61406(12) 0.97514(15) -0.33499(11)
Li1A Li -0.6931(2) 0.6851(3) -0.45824(19)
Li1F Li -0.1931(2) 0.8149(3) 0.04176(19)
N1F N -0.29939(10) 0.74069(13) 0.06856(10)
N1A N -0.79939(10) 0.75931(13) -0.43144(10)
N1G N -0.70061(10) 0.74069(13) -0.56856(10)
H1F H -0.2650(16) 0.708(2) 0.1011(16)
H1A H -0.7650(16) 0.792(2) -0.3989(16)
H1G H -0.7350(16) 0.708(2) -0.6011(16)
N2F N -0.41267(10) 0.83735(15) 0.07243(11)
N3F N -0.35795(12) 0.74090(15) 0.17968(11)
O7A O -0.70151(9) 0.54033(11) -0.46894(8)
C7A C -0.69392(18) 0.47484(19) -0.40267(14)
H2A H -0.6517 0.5000 -0.3599
H3A H -0.7452 0.4710 -0.3842
C8A C -0.6720(3) 0.3740(2) -0.42971(19)
H4A H -0.6972 0.3191 -0.4045
H5A H -0.6132 0.3645 -0.4176
C9A C -0.7018(3) 0.3731(2) -0.51317(18)
H6A H -0.6685 0.3287 -0.5394
H7A H -0.7580 0.3495 -0.5259
C10A C -0.69535(16) 0.48101(17) -0.53618(13)
H8A H -0.7391 0.4985 -0.5802
H9A H -0.6434 0.4935 -0.5517
C11F C -0.35405(12) 0.77140(16) 0.10658(11)
C12F C -0.49557(14) 0.8234(3) 0.08132(17)
H10F H -0.4987 0.7654 0.1154
H11F H -0.5140 0.8847 0.1041
H12F H -0.5296 0.8109 0.0305
C13F C -0.40403(14) 0.8896(2) 0.00218(14)
H13F H -0.4239 0.8462 -0.0427
H14F H -0.4350 0.9528 -0.0026
H15F H -0.3474 0.9053 0.0042
C14F C -0.30862(17) 0.6573(2) 0.21491(15)
H16F H -0.2549 0.6824 0.2375
H17F H -0.3328 0.6269 0.2556
H18F H -0.3048 0.6062 0.1754
C15F C -0.38445(16) 0.8093(2) 0.23495(14)
H19F H -0.4010 0.8742 0.2096
H20F H -0.4298 0.7788 0.2533
H21F H -0.3403 0.8208 0.2790
loop_
_geom_bond_atom_site_label_1
_geom_bond_atom_site_label_2
_geom_bond_site_symmetry_1
_geom_bond_site_symmetry_2
Fe1 Fe3 1_555 1_555
Fe2 C1 1_555 1_555
Fe3 C3 1_555 1_555
O1 C1 1_555 1_555
C1 Fe1 1_555 1_555
O2 C2 1_555 1_555
C2 Fe1 1_555 1_555
C3 Fe1 1_555 1_555
O3 C3 1_555 1_555
C4 Fe1 1_555 1_555
O4 C4 1_555 1_555
C5 Fe3 1_555 1_555
O5 C5 1_555 1_555
C6 Fe2 1_555 1_555
O6 C6 1_555 1_555
Li1 O1 1_555 1_555
N1 Li1 1_555 1_555
H1 N1 1_555 1_555
N2 C11 1_555 1_555
N3 C11 1_555 1_555
O7 Li1 1_555 1_555
C7 O7 1_555 1_555
H2 C7 1_555 1_555
H3 C7 1_555 1_555
C8 C7 1_555 1_555
H4 C8 1_555 1_555
H5 C8 1_555 1_555
C9 C8 1_555 1_555
H6 C9 1_555 1_555
H7 C9 1_555 1_555
C10 O7 1_555 1_555
H8 C10 1_555 1_555
H9 C10 1_555 1_555
C11 N1 1_555 1_555
C12 N2 1_555 1_555
H10 C12 1_555 1_555
H11 C12 1_555 1_555
H12 C12 1_555 1_555
C13 N2 1_555 1_555
H13 C13 1_555 1_555
H14 C13 1_555 1_555
H15 C13 1_555 1_555
C14 N3 1_555 1_555
H16 C14 1_555 1_555
H17 C14 1_555 1_555
H18 C14 1_555 1_555
C15 N3 1_555 1_555
H19 C15 1_555 1_555
H20 C15 1_555 1_555
H21 C15 1_555 1_555
Fe1A Fe2 1_555 1_555
Fe2A Fe1 1_555 1_555
Fe3A C5 1_555 1_555
O1A C1A 1_555 1_555
C1A Fe1 1_555 1_555
O2A C2A 1_555 1_555
C2A Fe2 1_555 1_555
C3A Fe1A 1_555 1_555
O3A C3A 1_555 1_555
C4A Fe1A 1_555 1_555
O4A C4A 1_555 1_555
C6A Fe2 1_555 1_555
O6A C6A 1_555 1_555
Li1A O1A 1_555 1_555
Li1F N1 1_555 1_555
N1F Li1 1_555 1_555
N1A Li1A 1_555 1_555
N1G Li1A 1_555 1_555
H1F N1F 1_555 1_555
H1A N1A 1_555 1_555
H1G N1G 1_555 1_555
N2F C11F 1_555 1_555
N3F C11F 1_555 1_555
O7A Li1A 1_555 1_555
C7A O7A 1_555 1_555
H2A C7A 1_555 1_555
H3A C7A 1_555 1_555
C8A C7A 1_555 1_555
H4A C8A 1_555 1_555
H5A C8A 1_555 1_555
C9A C8A 1_555 1_555
H6A C9A 1_555 1_555
H7A C9A 1_555 1_555
C10A O7A 1_555 1_555
H8A C10A 1_555 1_555
H9A C10A 1_555 1_555
C11F N1F 1_555 1_555
C12F N2F 1_555 1_555
H10F C12F 1_555 1_555
H11F C12F 1_555 1_555
H12F C12F 1_555 1_555
C13F N2F 1_555 1_555
H13F C13F 1_555 1_555
H14F C13F 1_555 1_555
H15F C13F 1_555 1_555
C14F N3F 1_555 1_555
H16F C14F 1_555 1_555
H17F C14F 1_555 1_555
H18F C14F 1_555 1_555
C15F N3F 1_555 1_555
H19F C15F 1_555 1_555
H20F C15F 1_555 1_555
H21F C15F 1_555 1_555
Fe2 Fe2A 1_555 1_555
Fe3 C4 1_555 1_555
C1 Fe1A 1_555 1_555
C2 Fe2A 1_555 1_555
C6 Fe2A 1_555 1_555
C9 C10 1_555 1_555
Fe1A Fe3A 1_555 1_555
Fe1A C1A 1_555 1_555
Fe1A C2A 1_555 1_555
Fe2A C1A 1_555 1_555
Fe2A C6A 1_555 1_555
Fe3A C3A 1_555 1_555
Fe3A C4A 1_555 1_555
Li1F N1F 1_555 1_555
C9A C10A 1_555 1_555

#END
