
#######################################################################
#
#                 Cambridge Crystallographic Data Centre
#                                CCDC 
#
#######################################################################
#
# If this CIF has been generated from an entry in the Cambridge 
# Structural Database, then it will include bibliographic, chemical, 
# crystal, experimental, refinement or atomic coordinate data resulting 
# from the CCDC's data processing and validation procedures.
#
#######################################################################

data_ONOVET
_symmetry_cell_setting           orthorhombic
_symmetry_space_group_name_H-M   'C m c a'
_symmetry_Int_Tables_number      64
_space_group_name_Hall           '-C 2ac 2'
loop_
_symmetry_equiv_pos_site_id
_symmetry_equiv_pos_as_xyz
1 x,y,z
2 -x,1/2-y,1/2+z
3 -x,1/2+y,1/2-z
4 x,-y,-z
5 1/2+x,1/2+y,z
6 1/2-x,-y,1/2+z
7 1/2-x,y,1/2-z
8 1/2+x,1/2-y,-z
9 -x,-y,-z
10 x,1/2+y,1/2-z
11 x,1/2-y,1/2+z
12 -x,y,z
13 1/2-x,1/2-y,-z
14 1/2+x,y,1/2-z
15 1/2+x,-y,1/2+z
16 1/2-x,1/2+y,z
_cell_length_a                   9.6534(6)
_cell_length_b                   15.6963(10)
_cell_length_c                   8.5162(4)
_cell_angle_alpha                90
_cell_angle_beta                 90
_cell_angle_gamma                90
_cell_volume                     1290.4
loop_
_atom_site_label
_atom_site_type_symbol
_atom_site_fract_x
_atom_site_fract_y
_atom_site_fract_z
Fe1 Fe 0.0000 0.5000 0.0000
N1 N 0.16622(11) 0.56830(7) 0.14665(11)
C1 C 0.2500 0.52955(13) 0.2500
H1 H 0.2500 0.4690 0.2500
C2 C 0.2500 0.69987(13) 0.2500
H2 H 0.2500 0.7604 0.2500
C3 C 0.17138(13) 0.65404(9) 0.14396(14)
H3 H 0.1194 0.6839 0.0669
S1 S 0.0000 0.35488(4) 0.47436(5)
C4 C 0.0000 0.38119(12) 0.2910(2)
N2 N 0.0000 0.40084(11) 0.15825(17)
Fe1E Fe -0.5000 0.5000 0.5000
Fe1E_2 Fe 0.5000 0.5000 0.5000
N1F N 0.33378(11) 0.56830(7) 0.35335(11)
N1K N -0.16622(11) 0.56830(7) 0.14665(11)
N1M N -0.33378(11) 0.56830(7) 0.35335(11)
N1C N 0.16622(11) 0.43170(7) -0.14665(11)
N1H N -0.16622(11) 0.43170(7) -0.14665(11)
C1K C -0.2500 0.52955(13) 0.2500
H1K H -0.2500 0.4690 0.2500
C2K C -0.2500 0.69987(13) 0.2500
H2K H -0.2500 0.7604 0.2500
C3F C 0.32862(13) 0.65404(9) 0.35604(14)
C3K C -0.17138(13) 0.65404(9) 0.14396(14)
C3M C -0.32862(13) 0.65404(9) 0.35604(14)
H3F H 0.3806 0.6839 0.4331
H3K H -0.1194 0.6839 0.0669
H3M H -0.3806 0.6839 0.4331
S1C S 0.0000 0.64512(4) -0.47436(5)
C4C C 0.0000 0.61881(12) -0.2910(2)
N2C N 0.0000 0.59916(11) -0.15825(17)
loop_
_geom_bond_atom_site_label_1
_geom_bond_atom_site_label_2
_geom_bond_site_symmetry_1
_geom_bond_site_symmetry_2
Fe1 N1 1_555 1_555
N1 C1 1_555 1_555
C1 H1 1_555 1_555
C2 H2 1_555 1_555
C3 N1 1_555 1_555
H3 C3 1_555 1_555
S1 C4 1_555 1_555
C4 N2 1_555 1_555
N2 Fe1 1_555 1_555
Fe1E N1M 1_555 1_555
Fe1E_2 N1F 1_555 1_555
N1F C1 1_555 1_555
N1K Fe1 1_555 1_555
N1M C1K 1_555 1_555
N1C Fe1 1_555 1_555
N1H Fe1 1_555 1_555
C1K N1K 1_555 1_555
H1K C1K 1_555 1_555
C2K H2K 1_555 1_555
C3F C2 1_555 1_555
C3K N1K 1_555 1_555
C3M N1M 1_555 1_555
H3F C3F 1_555 1_555
H3K C3K 1_555 1_555
H3M C3M 1_555 1_555
S1C C4C 1_555 1_555
C4C N2C 1_555 1_555
N2C Fe1 1_555 1_555
C2 C3 1_555 1_555
N1F C3F 1_555 1_555
C2K C3K 1_555 1_555
C2K C3M 1_555 1_555

#END
