
#######################################################################
#
#                 Cambridge Crystallographic Data Centre
#                                CCDC 
#
#######################################################################
#
# If this CIF has been generated from an entry in the Cambridge 
# Structural Database, then it will include bibliographic, chemical, 
# crystal, experimental, refinement or atomic coordinate data resulting 
# from the CCDC's data processing and validation procedures.
#
#######################################################################

data_ONUCAC
_symmetry_cell_setting           monoclinic
_symmetry_space_group_name_H-M   'P 21/n'
_symmetry_Int_Tables_number      14
_space_group_name_Hall           '-P 2yn'
loop_
_symmetry_equiv_pos_site_id
_symmetry_equiv_pos_as_xyz
1 x,y,z
2 1/2-x,1/2+y,1/2-z
3 -x,-y,-z
4 1/2+x,1/2-y,1/2+z
_cell_length_a                   14.939(3)
_cell_length_b                   26.386(5)
_cell_length_c                   15.755(3)
_cell_angle_alpha                90
_cell_angle_beta                 95.29(3)
_cell_angle_gamma                90
_cell_volume                     6183.86
loop_
_atom_site_label
_atom_site_type_symbol
_atom_site_fract_x
_atom_site_fract_y
_atom_site_fract_z
Fe1 Fe 0.15128(6) 0.64460(4) 0.42272(5)
Fe2 Fe 0.36246(6) 0.66673(4) 0.49905(5)
Fe3 Fe 0.28061(6) 0.64409(4) 0.30016(5)
Fe4 Fe 0.06111(6) 0.66102(4) 0.21831(5)
O1 O 0.1536(3) 0.66353(17) 0.3020(2)
O2 O 0.2786(3) 0.64200(17) 0.4203(2)
O3 O -0.0381(3) 0.67499(18) 0.2959(2)
O4 O 0.0190(3) 0.6474(2) 0.4236(3)
O5 O 0.1390(3) 0.64846(18) 0.1203(2)
O6 O 0.2820(3) 0.64584(19) 0.1747(3)
O7 O 0.1561(3) 0.71773(18) 0.4604(3)
O8 O 0.2858(3) 0.72335(18) 0.5439(3)
O9 O 0.4108(3) 0.62164(19) 0.3155(2)
O10 O 0.4525(3) 0.61595(17) 0.4559(2)
O11 O 0.3269(3) 0.71725(18) 0.3038(2)
O12 O 0.4161(3) 0.72050(17) 0.4270(2)
O13 O 0.1692(3) 0.62527(19) 0.5475(2)
O14 O 0.3165(3) 0.62166(18) 0.5907(2)
O15 O 0.1437(3) 0.57029(18) 0.3915(3)
O16 O 0.2428(3) 0.56931(18) 0.2923(3)
O17 O -0.0484(3) 0.64504(19) 0.1226(3)
O18 O 0.0179(3) 0.58757(18) 0.2049(3)
C1 C -0.0442(4) 0.6639(3) 0.3743(4)
C2 C -0.1350(5) 0.6698(3) 0.4090(4)
C3 C -0.1256(6) 0.6731(5) 0.5043(5)
H1 H -0.1839 0.6768 0.5244
H2 H -0.0890 0.7018 0.5219
H3 H -0.0978 0.6427 0.5276
C4 C -0.1797(9) 0.7187(7) 0.3727(7)
H4 H -0.1851 0.7172 0.3115
H5 H -0.1435 0.7474 0.3914
H6 H -0.2383 0.7220 0.3924
C5 C -0.1894(9) 0.6271(7) 0.3762(10)
H7 H -0.1639 0.5962 0.3997
H8 H -0.1906 0.6261 0.3152
H9 H -0.2495 0.6308 0.3921
C6 C 0.2210(4) 0.6409(3) 0.1151(4)
C7 C 0.2516(5) 0.6229(3) 0.0306(4)
C8 C 0.1832(8) 0.6348(6) -0.0417(5)
H10 H 0.1789 0.6708 -0.0491
H11 H 0.1259 0.6215 -0.0297
H12 H 0.2009 0.6196 -0.0930
C9 C 0.2605(10) 0.5654(5) 0.0366(7)
H13 H 0.2683 0.5518 -0.0187
H14 H 0.2071 0.5514 0.0569
H15 H 0.3116 0.5568 0.0754
C10 C 0.3425(7) 0.6436(6) 0.0177(6)
H16 H 0.3398 0.6800 0.0158
H17 H 0.3612 0.6311 -0.0351
H18 H 0.3848 0.6332 0.0639
C11 C 0.2080(4) 0.7386(3) 0.5182(4)
C12 C 0.1730(4) 0.7871(3) 0.5563(4)
C13 C 0.1964(10) 0.8290(4) 0.4950(7)
H19 H 0.1732 0.8203 0.4380
H20 H 0.2605 0.8326 0.4973
H21 H 0.1702 0.8604 0.5111
C14 C 0.2210(6) 0.7979(4) 0.6435(5)
H22 H 0.1964 0.8279 0.6667
H23 H 0.2839 0.8027 0.6384
H24 H 0.2129 0.7697 0.6807
C15 C 0.0741(6) 0.7836(6) 0.5595(9)
H25 H 0.0453 0.7813 0.5025
H26 H 0.0530 0.8133 0.5868
H27 H 0.0600 0.7541 0.5911
C16 C 0.4590(4) 0.6037(3) 0.3792(4)
C17 C 0.5274(4) 0.5644(3) 0.3587(4)
C18 C 0.5793(6) 0.5853(4) 0.2868(5)
H28 H 0.5393 0.5885 0.2358
H29 H 0.6272 0.5625 0.2766
H30 H 0.6037 0.6179 0.3029
C19 C 0.5913(5) 0.5520(3) 0.4351(5)
H31 H 0.6241 0.5819 0.4536
H32 H 0.6325 0.5263 0.4203
H33 H 0.5580 0.5399 0.4803
C20 C 0.4756(6) 0.5168(4) 0.3283(6)
H34 H 0.4431 0.5040 0.3734
H35 H 0.5171 0.4915 0.3122
H36 H 0.4342 0.5251 0.2800
C21 C 0.3912(4) 0.7357(3) 0.3509(4)
C22 C 0.4462(5) 0.7777(3) 0.3159(4)
C23 C 0.4139(6) 0.7893(4) 0.2243(5)
H37 H 0.4139 0.7588 0.1911
H38 H 0.4532 0.8137 0.2020
H39 H 0.3540 0.8028 0.2215
C24 C 0.5447(5) 0.7595(4) 0.3220(6)
H40 H 0.5645 0.7518 0.3803
H41 H 0.5819 0.7857 0.3018
H42 H 0.5491 0.7296 0.2878
C25 C 0.4389(7) 0.8251(4) 0.3714(5)
H43 H 0.3784 0.8377 0.3644
H44 H 0.4793 0.8506 0.3544
H45 H 0.4544 0.8165 0.4302
C26 C 0.2354(4) 0.6117(3) 0.5974(4)
C27 C 0.2095(4) 0.5786(3) 0.6730(4)
C28 C 0.2917(5) 0.5687(3) 0.7360(5)
H46 H 0.3138 0.6003 0.7599
H47 H 0.3378 0.5527 0.7069
H48 H 0.2751 0.5470 0.7808
C29 C 0.1734(6) 0.5286(3) 0.6345(5)
H49 H 0.1516 0.5080 0.6784
H50 H 0.2208 0.5110 0.6096
H51 H 0.1253 0.5354 0.5913
C30 C 0.1368(5) 0.6054(3) 0.7164(4)
H52 H 0.1214 0.5856 0.7640
H53 H 0.0846 0.6096 0.6767
H54 H 0.1582 0.6381 0.7360
C31 C 0.1856(4) 0.5481(3) 0.3372(4)
C32 C 0.1702(5) 0.4912(3) 0.3256(4)
C33 C 0.0753(5) 0.4779(3) 0.3454(5)
H55 H 0.0661 0.4894 0.4018
H56 H 0.0672 0.4418 0.3423
H57 H 0.0327 0.4941 0.3048
C34 C 0.1862(7) 0.4746(4) 0.2350(5)
H58 H 0.1500 0.4948 0.1945
H59 H 0.1700 0.4396 0.2274
H60 H 0.2485 0.4789 0.2265
C35 C 0.2393(5) 0.4650(3) 0.3894(5)
H61 H 0.2989 0.4743 0.3773
H62 H 0.2324 0.4289 0.3845
H63 H 0.2297 0.4753 0.4463
C36 C -0.0412(4) 0.5994(3) 0.1444(4)
C37 C -0.0998(5) 0.5586(3) 0.1011(4)
C38 C -0.1889(5) 0.5607(4) 0.1424(5)
H64 H -0.1785 0.5517 0.2015
H65 H -0.2309 0.5374 0.1140
H66 H -0.2129 0.5945 0.1377
C39 C -0.1163(6) 0.5710(3) 0.0059(4)
H67 H -0.1461 0.6031 -0.0012
H68 H -0.1534 0.5451 -0.0221
H69 H -0.0599 0.5724 -0.0186
C40 C -0.0570(6) 0.5069(3) 0.1146(5)
H70 H -0.0002 0.5065 0.0906
H71 H -0.0958 0.4817 0.0872
H72 H -0.0477 0.4999 0.1745
C41 C 0.5477(5) 0.7270(3) 0.7638(4)
H73 H 0.4916 0.7357 0.7866
H74 H 0.5964 0.7354 0.8065
C42 C 0.4745(5) 0.6605(3) 0.6840(4)
H75 H 0.4746 0.6243 0.6730
H76 H 0.4184 0.6689 0.7071
C43 C 0.5691(4) 0.6745(3) 0.5707(4)
H77 H 0.5758 0.6918 0.5173
H78 H 0.5704 0.6383 0.5602
C44 C 0.6422(4) 0.7415(3) 0.6501(4)
H79 H 0.6927 0.7501 0.6906
H80 H 0.6489 0.7600 0.5978
C45 C 0.4803(4) 0.7433(2) 0.6210(4)
H81 H 0.4849 0.7623 0.5688
H82 H 0.4239 0.7524 0.6430
C46 C 0.6336(5) 0.6600(3) 0.7109(5)
H83 H 0.6346 0.6240 0.6989
H84 H 0.6838 0.6675 0.7526
N1 N 0.5570(3) 0.7578(2) 0.6851(3)
N2 N 0.5493(4) 0.6729(2) 0.7467(3)
N3 N 0.6444(4) 0.6881(2) 0.6328(4)
N4 N 0.4802(3) 0.6886(2) 0.6018(3)
Fe4C Fe 0.56111(6) 0.83898(4) 0.71831(5)
N1C N 0.0570(3) 0.7422(2) 0.1851(3)
loop_
_geom_bond_atom_site_label_1
_geom_bond_atom_site_label_2
_geom_bond_site_symmetry_1
_geom_bond_site_symmetry_2
Fe1 O1 1_555 1_555
Fe2 O2 1_555 1_555
Fe3 O1 1_555 1_555
Fe4 O1 1_555 1_555
O2 Fe1 1_555 1_555
O3 Fe4 1_555 1_555
O4 Fe1 1_555 1_555
O5 Fe4 1_555 1_555
O6 Fe3 1_555 1_555
O7 Fe1 1_555 1_555
O8 Fe2 1_555 1_555
O9 Fe3 1_555 1_555
O10 Fe2 1_555 1_555
O11 Fe3 1_555 1_555
O12 Fe2 1_555 1_555
O13 Fe1 1_555 1_555
O14 Fe2 1_555 1_555
O15 Fe1 1_555 1_555
O16 Fe3 1_555 1_555
O17 Fe4 1_555 1_555
O18 Fe4 1_555 1_555
C1 O3 1_555 1_555
C2 C1 1_555 1_555
C3 C2 1_555 1_555
H1 C3 1_555 1_555
H2 C3 1_555 1_555
H3 C3 1_555 1_555
C4 C2 1_555 1_555
H4 C4 1_555 1_555
H5 C4 1_555 1_555
H6 C4 1_555 1_555
C5 C2 1_555 1_555
H7 C5 1_555 1_555
H8 C5 1_555 1_555
H9 C5 1_555 1_555
C6 O5 1_555 1_555
C7 C6 1_555 1_555
C8 C7 1_555 1_555
H10 C8 1_555 1_555
H11 C8 1_555 1_555
H12 C8 1_555 1_555
C9 C7 1_555 1_555
H13 C9 1_555 1_555
H14 C9 1_555 1_555
H15 C9 1_555 1_555
C10 C7 1_555 1_555
H16 C10 1_555 1_555
H17 C10 1_555 1_555
H18 C10 1_555 1_555
C11 O7 1_555 1_555
C12 C11 1_555 1_555
C13 C12 1_555 1_555
H19 C13 1_555 1_555
H20 C13 1_555 1_555
H21 C13 1_555 1_555
C14 C12 1_555 1_555
H22 C14 1_555 1_555
H23 C14 1_555 1_555
H24 C14 1_555 1_555
C15 C12 1_555 1_555
H25 C15 1_555 1_555
H26 C15 1_555 1_555
H27 C15 1_555 1_555
C16 O9 1_555 1_555
C17 C16 1_555 1_555
C18 C17 1_555 1_555
H28 C18 1_555 1_555
H29 C18 1_555 1_555
H30 C18 1_555 1_555
C19 C17 1_555 1_555
H31 C19 1_555 1_555
H32 C19 1_555 1_555
H33 C19 1_555 1_555
C20 C17 1_555 1_555
H34 C20 1_555 1_555
H35 C20 1_555 1_555
H36 C20 1_555 1_555
C21 O11 1_555 1_555
C22 C21 1_555 1_555
C23 C22 1_555 1_555
H37 C23 1_555 1_555
H38 C23 1_555 1_555
H39 C23 1_555 1_555
C24 C22 1_555 1_555
H40 C24 1_555 1_555
H41 C24 1_555 1_555
H42 C24 1_555 1_555
C25 C22 1_555 1_555
H43 C25 1_555 1_555
H44 C25 1_555 1_555
H45 C25 1_555 1_555
C26 O13 1_555 1_555
C27 C26 1_555 1_555
C28 C27 1_555 1_555
H46 C28 1_555 1_555
H47 C28 1_555 1_555
H48 C28 1_555 1_555
C29 C27 1_555 1_555
H49 C29 1_555 1_555
H50 C29 1_555 1_555
H51 C29 1_555 1_555
C30 C27 1_555 1_555
H52 C30 1_555 1_555
H53 C30 1_555 1_555
H54 C30 1_555 1_555
C31 O15 1_555 1_555
C32 C31 1_555 1_555
C33 C32 1_555 1_555
H55 C33 1_555 1_555
H56 C33 1_555 1_555
H57 C33 1_555 1_555
C34 C32 1_555 1_555
H58 C34 1_555 1_555
H59 C34 1_555 1_555
H60 C34 1_555 1_555
C35 C32 1_555 1_555
H61 C35 1_555 1_555
H62 C35 1_555 1_555
H63 C35 1_555 1_555
C36 O17 1_555 1_555
C37 C36 1_555 1_555
C38 C37 1_555 1_555
H64 C38 1_555 1_555
H65 C38 1_555 1_555
H66 C38 1_555 1_555
C39 C37 1_555 1_555
H67 C39 1_555 1_555
H68 C39 1_555 1_555
H69 C39 1_555 1_555
C40 C37 1_555 1_555
H70 C40 1_555 1_555
H71 C40 1_555 1_555
H72 C40 1_555 1_555
C41 H73 1_555 1_555
H74 C41 1_555 1_555
C42 H75 1_555 1_555
H76 C42 1_555 1_555
C43 H77 1_555 1_555
H78 C43 1_555 1_555
C44 H79 1_555 1_555
H80 C44 1_555 1_555
C45 H81 1_555 1_555
H82 C45 1_555 1_555
C46 H83 1_555 1_555
H84 C46 1_555 1_555
N1 C41 1_555 1_555
N2 C41 1_555 1_555
N3 C43 1_555 1_555
N4 Fe2 1_555 1_555
Fe4C N1 1_555 1_555
N1C Fe4 1_555 1_555
Fe3 O2 1_555 1_555
O4 C1 1_555 1_555
O6 C6 1_555 1_555
O8 C11 1_555 1_555
O10 C16 1_555 1_555
O12 C21 1_555 1_555
O14 C26 1_555 1_555
O16 C31 1_555 1_555
O18 C36 1_555 1_555
C42 N2 1_555 1_555
C42 N4 1_555 1_555
C43 N4 1_555 1_555
C44 N1 1_555 1_555
C44 N3 1_555 1_555
C45 N1 1_555 1_555
C45 N4 1_555 1_555
C46 N2 1_555 1_555
C46 N3 1_555 1_555

#END
