
#######################################################################
#
#                 Cambridge Crystallographic Data Centre
#                                CCDC 
#
#######################################################################
#
# If this CIF has been generated from an entry in the Cambridge 
# Structural Database, then it will include bibliographic, chemical, 
# crystal, experimental, refinement or atomic coordinate data resulting 
# from the CCDC's data processing and validation procedures.
#
#######################################################################

data_ONUNUH
_symmetry_cell_setting           orthorhombic
_symmetry_space_group_name_H-M   'P b c a'
_symmetry_Int_Tables_number      61
_space_group_name_Hall           '-P 2ac 2ab'
loop_
_symmetry_equiv_pos_site_id
_symmetry_equiv_pos_as_xyz
1 x,y,z
2 1/2-x,-y,1/2+z
3 1/2+x,1/2-y,-z
4 -x,1/2+y,1/2-z
5 -x,-y,-z
6 1/2+x,y,1/2-z
7 1/2-x,1/2+y,z
8 x,1/2-y,1/2+z
_cell_length_a                   13.031(4)
_cell_length_b                   9.196(3)
_cell_length_c                   21.758(7)
_cell_angle_alpha                90
_cell_angle_beta                 90
_cell_angle_gamma                90
_cell_volume                     2607.33
loop_
_atom_site_label
_atom_site_type_symbol
_atom_site_fract_x
_atom_site_fract_y
_atom_site_fract_z
Cu1 Cu 0.5000 0.0000 0.5000
N1 N 0.52666(9) 0.20750(13) 0.52606(6)
N2 N 0.31872(9) -0.20609(13) 0.66200(6)
O1 O 0.45274(7) -0.04716(11) 0.58342(4)
O2 O 0.59953(8) -0.03065(13) 0.63776(5)
O3 O 0.22997(9) -0.21623(15) 0.64386(6)
O4 O 0.38546(8) -0.29725(11) 0.65175(5)
O5 O 0.82220(7) 0.42399(12) 0.52317(5)
H1 H 0.8286 0.4352 0.5613
C1 C 0.50468(10) -0.03373(19) 0.63275(7)
C2 C 0.43954(11) -0.00936(15) 0.68948(7)
C3 C 0.34603(11) -0.07977(15) 0.69976(6)
C4 C 0.27816(12) -0.03988(18) 0.74569(7)
H2 H 0.2145 -0.0890 0.7506
C5 C 0.30529(12) 0.07380(17) 0.78453(7)
H3 H 0.2600 0.1034 0.8164
C6 C 0.39890(12) 0.14411(17) 0.77663(7)
H4 H 0.4177 0.2210 0.8035
C7 C 0.46529(12) 0.10282(16) 0.72959(7)
H5 H 0.5290 0.1518 0.7248
C8 C 0.60807(11) 0.28192(17) 0.50502(6)
H6 H 0.6490 0.2392 0.4737
C9 C 0.63523(10) 0.41879(15) 0.52697(7)
C10 C 0.57248(12) 0.48217(16) 0.57130(7)
H7 H 0.5881 0.5759 0.5871
C11 C 0.48686(11) 0.40704(17) 0.59228(7)
H8 H 0.4430 0.4489 0.6223
C12 C 0.46659(11) 0.27060(16) 0.56882(7)
H9 H 0.4081 0.2193 0.5834
C13 C 0.72993(14) 0.49341(15) 0.50286(7)
H10 H 0.7281 0.4933 0.4574
H11 H 0.7301 0.5959 0.5168
Cu1B Cu 1.0000 0.5000 0.5000
Cu1B_2 Cu 0.0000 -0.5000 0.5000
N1D N 0.47334(9) -0.20750(13) 0.47394(6)
N2D N 0.68128(9) 0.20609(13) 0.33800(6)
O1D O 0.54726(7) 0.04716(11) 0.41658(4)
O2D O 0.40047(8) 0.03065(13) 0.36224(5)
O3D O 0.77003(9) 0.21623(15) 0.35614(6)
O4D O 0.61454(8) 0.29725(11) 0.34825(5)
O5D O 0.17780(7) -0.42399(12) 0.47683(5)
O5B O 0.32220(7) 0.07601(12) 0.47683(5)
O5F O 0.67780(7) -0.07601(12) 0.52317(5)
H1D H 0.1714 -0.4352 0.4387
H1B H 0.3286 0.0648 0.4387
H1F H 0.6714 -0.0648 0.5613
C1D C 0.49532(10) 0.03373(19) 0.36725(7)
C2D C 0.56046(11) 0.00936(15) 0.31052(7)
C3D C 0.65397(11) 0.07977(15) 0.30024(6)
C4D C 0.72184(12) 0.03988(18) 0.25431(7)
H2D H 0.7855 0.0890 0.2494
C5D C 0.69471(12) -0.07380(17) 0.21547(7)
H3D H 0.7400 -0.1034 0.1836
C6D C 0.60110(12) -0.14411(17) 0.22337(7)
H4D H 0.5823 -0.2210 0.1965
C7D C 0.53471(12) -0.10282(16) 0.27041(7)
H5D H 0.4710 -0.1518 0.2752
C8D C 0.39193(11) -0.28192(17) 0.49498(6)
H6D H 0.3510 -0.2392 0.5263
C9D C 0.36477(10) -0.41879(15) 0.47303(7)
C10D C 0.42752(12) -0.48217(16) 0.42870(7)
H7D H 0.4119 -0.5759 0.4129
C11D C 0.51314(11) -0.40704(17) 0.40772(7)
H8D H 0.5570 -0.4489 0.3777
C12D C 0.53341(11) -0.27060(16) 0.43118(7)
H9D H 0.5919 -0.2193 0.4166
C13D C 0.27007(14) -0.49341(15) 0.49714(7)
H10D H 0.2719 -0.4933 0.5426
H11D H 0.2699 -0.5959 0.4832
loop_
_geom_bond_atom_site_label_1
_geom_bond_atom_site_label_2
_geom_bond_site_symmetry_1
_geom_bond_site_symmetry_2
Cu1 N1 1_555 1_555
N1 C8 1_555 1_555
N2 O3 1_555 1_555
O1 Cu1 1_555 1_555
O2 C1 1_555 1_555
O4 N2 1_555 1_555
O5 H1 1_555 1_555
C1 O1 1_555 1_555
C2 C1 1_555 1_555
C3 N2 1_555 1_555
C4 C3 1_555 1_555
H2 C4 1_555 1_555
C5 C4 1_555 1_555
H3 C5 1_555 1_555
C6 C5 1_555 1_555
H4 C6 1_555 1_555
C7 C2 1_555 1_555
H5 C7 1_555 1_555
C8 H6 1_555 1_555
C9 C8 1_555 1_555
C10 C9 1_555 1_555
H7 C10 1_555 1_555
C11 C10 1_555 1_555
H8 C11 1_555 1_555
C12 N1 1_555 1_555
H9 C12 1_555 1_555
C13 O5 1_555 1_555
H10 C13 1_555 1_555
H11 C13 1_555 1_555
Cu1B O5 1_555 1_555
Cu1B_2 O5D 1_555 1_555
N1D Cu1 1_555 1_555
N2D O3D 1_555 1_555
O1D Cu1 1_555 1_555
O2D C1D 1_555 1_555
O4D N2D 1_555 1_555
O5D H1D 1_555 1_555
O5B Cu1 1_555 1_555
O5F Cu1 1_555 1_555
H1B O5B 1_555 1_555
H1F O5F 1_555 1_555
C1D O1D 1_555 1_555
C2D C1D 1_555 1_555
C3D N2D 1_555 1_555
C4D C3D 1_555 1_555
H2D C4D 1_555 1_555
C5D C4D 1_555 1_555
H3D C5D 1_555 1_555
C6D C5D 1_555 1_555
H4D C6D 1_555 1_555
C7D C2D 1_555 1_555
H5D C7D 1_555 1_555
C8D N1D 1_555 1_555
H6D C8D 1_555 1_555
C9D C8D 1_555 1_555
C10D C9D 1_555 1_555
H7D C10D 1_555 1_555
C11D C10D 1_555 1_555
H8D C11D 1_555 1_555
C12D N1D 1_555 1_555
H9D C12D 1_555 1_555
C13D O5D 1_555 1_555
H10D C13D 1_555 1_555
H11D C13D 1_555 1_555
C2 C3 1_555 1_555
C6 C7 1_555 1_555
C9 C13 1_555 1_555
C11 C12 1_555 1_555
C2D C3D 1_555 1_555
C6D C7D 1_555 1_555
C9D C13D 1_555 1_555
C11D C12D 1_555 1_555

#END
