
#######################################################################
#
#                 Cambridge Crystallographic Data Centre
#                                CCDC 
#
#######################################################################
#
# If this CIF has been generated from an entry in the Cambridge 
# Structural Database, then it will include bibliographic, chemical, 
# crystal, experimental, refinement or atomic coordinate data resulting 
# from the CCDC's data processing and validation procedures.
#
#######################################################################

data_ONUPOD
_symmetry_cell_setting           triclinic
_symmetry_space_group_name_H-M   'P -1'
_symmetry_Int_Tables_number      2
_space_group_name_Hall           '-P 1'
loop_
_symmetry_equiv_pos_site_id
_symmetry_equiv_pos_as_xyz
1 x,y,z
2 -x,-y,-z
_cell_length_a                   9.555(1)
_cell_length_b                   10.687(1)
_cell_length_c                   10.890(1)
_cell_angle_alpha                65.926(1)
_cell_angle_beta                 69.856(1)
_cell_angle_gamma                66.387(1)
_cell_volume                     908.259
loop_
_atom_site_label
_atom_site_type_symbol
_atom_site_fract_x
_atom_site_fract_y
_atom_site_fract_z
Cd1 Cd 0.17730(3) 0.36785(2) 0.50480(2)
O1 O 0.2052(3) 0.3510(3) 0.7135(2)
O2 O -0.0168(3) 0.2577(3) 0.6353(3)
O3 O -0.0068(3) 0.5250(3) 0.6572(2)
C1 C -0.4661(4) 0.1910(3) 1.3663(3)
O4 O -0.2462(3) 0.4331(3) 0.6320(2)
N1 N -0.5253(3) 0.2663(3) 1.4548(3)
N2 N -0.5619(3) 0.0436(3) 1.2944(3)
C2 C -0.3592(4) 0.0516(3) 1.0756(3)
C3 C 0.0381(4) 0.4740(3) 0.8757(3)
C4 C -0.5821(4) 0.1392(3) 1.3560(3)
C5 C -0.1580(4) 0.3104(4) 0.6832(3)
C6 C -0.2183(5) 0.2272(6) 1.3139(5)
H1 H -0.1151 0.2149 1.2649
C7 C -0.2321(4) 0.2172(3) 0.8175(3)
C8 C -0.2074(4) -0.0023(4) 1.0085(3)
H2 H -0.1472 -0.0945 1.0496
C9 C -0.7058(4) 0.0314(4) 1.3148(4)
H3 H -0.7284 -0.0259 1.2835
N3 N -0.7317(3) 0.1860(3) 1.4140(3)
C10 C -0.1443(4) 0.0795(4) 0.8812(3)
H4 H -0.0419 0.0420 0.8376
C11 C -0.3857(4) 0.2689(4) 0.8824(3)
H5 H -0.4475 0.3595 0.8398
C12 C -0.4324(5) 0.3197(4) 1.4740(4)
H6 H -0.4740 0.3715 1.5360
C13 C 0.1435(4) 0.4092(4) 0.9598(4)
H7 H 0.2408 0.3472 0.9332
C14 C -0.1062(4) 0.5648(4) 0.9164(4)
H8 H -0.1787 0.6086 0.8607
C15 C 0.0813(4) 0.4478(4) 0.7395(3)
C16 C -0.2780(5) 0.3015(4) 1.4063(4)
H9 H -0.2161 0.3388 1.4231
C17 C -0.4187(4) -0.0373(3) 1.2195(3)
H10 H -0.4383 -0.1168 1.2136
H11 H -0.3377 -0.0776 1.2715
C18 C -0.4483(4) 0.1864(4) 1.0107(4)
H12 H -0.5516 0.2226 1.0534
C19 C -0.8092(4) 0.1191(4) 1.3892(4)
H13 H -0.9162 0.1316 1.4186
C20 C -0.3127(4) 0.1702(5) 1.2936(4)
H14 H -0.2732 0.1186 1.2316
Cd1A Cd -0.17730(3) 0.63215(2) 1.49520(2)
Cd1A_2 Cd -0.17730(3) 0.63215(2) 0.49520(2)
Cd1_2 Cd -0.82270(3) 0.36785(2) 1.50480(2)
Cd1_3 Cd 0.17730(3) 0.36785(2) 1.50480(2)
Cd1A_3 Cd 0.82270(3) 0.63215(2) -0.50480(2)
O1A O -0.2052(3) 0.6490(3) 1.2865(2)
O2A O 0.0168(3) 0.7423(3) 0.3647(3)
O2A_2 O 0.0168(3) 0.7423(3) 1.3647(3)
O3A O 0.0068(3) 0.4750(3) 1.3428(2)
O3A_2 O 0.0068(3) 0.4750(3) 0.3428(2)
O3_2 O -0.0068(3) 0.5250(3) 1.6572(2)
C1A C 0.4661(4) 0.8090(3) -0.3663(3)
O4A O 0.2462(3) 0.5669(3) 0.3680(2)
O4_2 O -0.2462(3) 0.4331(3) 1.6320(2)
N1A N 0.5253(3) 0.7337(3) -0.4548(3)
N1_2 N 0.4747(3) 0.2663(3) 0.4548(3)
N1A_2 N -0.4747(3) 0.7337(3) 1.5452(3)
N2A N 0.5619(3) 0.9564(3) -0.2944(3)
C2A C 0.3592(4) 0.9484(3) -0.0756(3)
C3A C -0.0381(4) 0.5260(3) 1.1243(3)
C4A C 0.5821(4) 0.8608(3) -0.3560(3)
C5A C 0.1580(4) 0.6896(4) 0.3168(3)
C6A C 0.2183(5) 0.7728(6) -0.3139(5)
H1A H 0.1151 0.7851 -0.2649
C7A C 0.2321(4) 0.7828(3) 0.1825(3)
C8A C 0.2074(4) 1.0023(4) -0.0085(3)
H2A H 0.1472 1.0945 -0.0496
C9A C 0.7058(4) 0.9686(4) -0.3148(4)
H3A H 0.7284 1.0259 -0.2835
N3A N 0.7317(3) 0.8140(3) -0.4140(3)
N3_2 N 0.2683(3) 0.1860(3) 0.4140(3)
N3A_2 N -0.2683(3) 0.8140(3) 1.5860(3)
C10A C 0.1443(4) 0.9205(4) 0.1188(3)
H4A H 0.0419 0.9580 0.1624
C11A C 0.3857(4) 0.7311(4) 0.1176(3)
H5A H 0.4475 0.6405 0.1602
C12A C 0.4324(5) 0.6803(4) -0.4740(4)
H6A H 0.4740 0.6285 -0.5360
C13A C -0.1435(4) 0.5908(4) 1.0402(4)
H7A H -0.2408 0.6528 1.0668
C14A C 0.1062(4) 0.4352(4) 1.0836(4)
H8A H 0.1787 0.3914 1.1393
C15A C -0.0813(4) 0.5522(4) 1.2605(3)
C16A C 0.2780(5) 0.6985(4) -0.4063(4)
H9A H 0.2161 0.6612 -0.4231
C17A C 0.4187(4) 1.0373(3) -0.2195(3)
H10A H 0.4383 1.1168 -0.2136
H11A H 0.3377 1.0776 -0.2715
C18A C 0.4483(4) 0.8136(4) -0.0107(4)
H12A H 0.5516 0.7774 -0.0534
C19A C 0.8092(4) 0.8809(4) -0.3892(4)
H13A H 0.9162 0.8684 -0.4186
C20A C 0.3127(4) 0.8298(5) -0.2936(4)
H14A H 0.2732 0.8814 -0.2316
loop_
_geom_bond_atom_site_label_1
_geom_bond_atom_site_label_2
_geom_bond_site_symmetry_1
_geom_bond_site_symmetry_2
Cd1 O1 1_555 1_555
O1 C15 1_555 1_555
O2 Cd1 1_555 1_555
O3 Cd1 1_555 1_555
C1 N1 1_555 1_555
O4 C5 1_555 1_555
N1 C12 1_555 1_555
N2 C4 1_555 1_555
C2 C8 1_555 1_555
C3 C13 1_555 1_555
C4 C1 1_555 1_555
C5 O2 1_555 1_555
C6 H1 1_555 1_555
C7 C5 1_555 1_555
C8 H2 1_555 1_555
C9 N2 1_555 1_555
H3 C9 1_555 1_555
N3 C4 1_555 1_555
C10 C7 1_555 1_555
H4 C10 1_555 1_555
C11 C7 1_555 1_555
H5 C11 1_555 1_555
C12 H6 1_555 1_555
C13 H7 1_555 1_555
C14 C3 1_555 1_555
H8 C14 1_555 1_555
C15 O3 1_555 1_555
C16 C6 1_555 1_555
H9 C16 1_555 1_555
C17 N2 1_555 1_555
H10 C17 1_555 1_555
H11 C17 1_555 1_555
C18 C2 1_555 1_555
H12 C18 1_555 1_555
C19 C9 1_555 1_555
H13 C19 1_555 1_555
C20 C1 1_555 1_555
H14 C20 1_555 1_555
Cd1A O1A 1_555 1_555
Cd1A_2 O3 1_555 1_555
Cd1_2 N1 1_555 1_555
Cd1_3 O3A 1_555 1_555
Cd1A_3 N1A 1_555 1_555
O1A C15A 1_555 1_555
O2A Cd1A_2 1_555 1_555
O2A_2 Cd1A 1_555 1_555
O3A Cd1A 1_555 1_555
O3A_2 Cd1 1_555 1_555
O3_2 Cd1A 1_555 1_555
C1A N1A 1_555 1_555
O4A Cd1 1_555 1_555
O4_2 Cd1A 1_555 1_555
N1A C12A 1_555 1_555
N1_2 Cd1 1_555 1_555
N1A_2 Cd1A 1_555 1_555
N2A C4A 1_555 1_555
C2A C8A 1_555 1_555
C3A C13A 1_555 1_555
C4A C1A 1_555 1_555
C5A O2A 1_555 1_555
C6A H1A 1_555 1_555
C7A C5A 1_555 1_555
C8A H2A 1_555 1_555
C9A N2A 1_555 1_555
H3A C9A 1_555 1_555
N3A Cd1A_3 1_555 1_555
N3_2 Cd1 1_555 1_555
N3A_2 Cd1A 1_555 1_555
C10A C7A 1_555 1_555
H4A C10A 1_555 1_555
C11A C7A 1_555 1_555
H5A C11A 1_555 1_555
C12A H6A 1_555 1_555
C13A C14 1_555 1_555
H7A C13A 1_555 1_555
C14A C13 1_555 1_555
H8A C14A 1_555 1_555
C15A O3A 1_555 1_555
C16A C6A 1_555 1_555
H9A C16A 1_555 1_555
C17A N2A 1_555 1_555
H10A C17A 1_555 1_555
H11A C17A 1_555 1_555
C18A C2A 1_555 1_555
H12A C18A 1_555 1_555
C19A C9A 1_555 1_555
H13A C19A 1_555 1_555
C20A C1A 1_555 1_555
H14A C20A 1_555 1_555
O4 Cd1A_2 1_555 1_555
C2 C17 1_555 1_555
C3 C15 1_555 1_555
C6 C20 1_555 1_555
C8 C10 1_555 1_555
N3 C19 1_555 1_555
N3 Cd1_2 1_555 1_555
C11 C18 1_555 1_555
C12 C16 1_555 1_555
Cd1A_2 O3A_2 1_555 1_555
Cd1_3 O3_2 1_555 1_555
O4A C5A 1_555 1_555
C2A C17A 1_555 1_555
C3A C14A 1_555 1_555
C3A C15A 1_555 1_555
C4A N3A 1_555 1_555
C6A C20A 1_555 1_555
C8A C10A 1_555 1_555
N3A C19A 1_555 1_555
C11A C18A 1_555 1_555
C12A C16A 1_555 1_555

#END
