
#######################################################################
#
#                 Cambridge Crystallographic Data Centre
#                                CCDC 
#
#######################################################################
#
# If this CIF has been generated from an entry in the Cambridge 
# Structural Database, then it will include bibliographic, chemical, 
# crystal, experimental, refinement or atomic coordinate data resulting 
# from the CCDC's data processing and validation procedures.
#
#######################################################################

data_ONUQUK
_symmetry_cell_setting           triclinic
_symmetry_space_group_name_H-M   'P -1'
_symmetry_Int_Tables_number      2
_space_group_name_Hall           '-P 1'
loop_
_symmetry_equiv_pos_site_id
_symmetry_equiv_pos_as_xyz
1 x,y,z
2 -x,-y,-z
_cell_length_a                   11.057(2)
_cell_length_b                   12.819(3)
_cell_length_c                   19.405(4)
_cell_angle_alpha                80.03(3)
_cell_angle_beta                 73.76(3)
_cell_angle_gamma                69.31(3)
_cell_volume                     2461.93
loop_
_atom_site_label
_atom_site_type_symbol
_atom_site_fract_x
_atom_site_fract_y
_atom_site_fract_z
Cd1 Cd 0.98048(3) 0.29345(2) 0.561981(13)
Cd2 Cd 0.48693(3) 0.81851(2) 0.945798(13)
C1 C 0.7224(4) 0.4220(3) 0.57666(17)
C2 C 0.4872(4) 0.4359(3) 0.5915(2)
H1 H 0.5189 0.3666 0.5727
C3 C 0.3517(5) 0.4878(4) 0.6135(3)
H2 H 0.2930 0.4527 0.6104
C4 C 0.3036(4) 0.5907(4) 0.6397(3)
H3 H 0.2122 0.6259 0.6537
C5 C 0.3901(4) 0.6428(3) 0.6455(2)
H4 H 0.3566 0.7129 0.6633
C6 C 0.5270(3) 0.5909(3) 0.62489(18)
C7 C 0.5772(3) 0.4858(3) 0.59718(18)
C8 C 0.3901(4) 0.9565(3) 0.81110(19)
C9 C 0.3951(4) 0.9723(3) 0.73254(17)
C10 C 0.3355(4) 1.0791(3) 0.7026(2)
H5 H 0.2935 1.1373 0.7325
C11 C 0.3363(4) 1.1017(3) 0.6312(2)
H6 H 0.2968 1.1739 0.6126
C12 C 0.3971(4) 1.0149(3) 0.5874(2)
H7 H 0.3970 1.0284 0.5387
C13 C 0.4581(4) 0.9082(3) 0.61441(19)
H8 H 0.5000 0.8511 0.5836
C14 C 0.4577(3) 0.8851(3) 0.68649(17)
C15 C 0.7445(4) -0.1845(3) 0.89829(19)
C16 C 0.8844(4) -0.1843(3) 0.86545(18)
C17 C 0.9849(4) -0.2862(3) 0.8554(2)
H9 H 0.9636 -0.3519 0.8700
C18 C 1.1151(4) -0.2930(4) 0.8246(2)
H10 H 1.1808 -0.3622 0.8174
C19 C 1.1471(4) -0.1954(4) 0.8043(2)
H11 H 1.2355 -0.1993 0.7853
C20 C 1.0500(4) -0.0929(4) 0.8118(2)
H12 H 1.0729 -0.0279 0.7973
C21 C 0.9166(4) -0.0855(3) 0.84134(18)
C22 C 1.0260(4) 0.3216(3) 0.7126(2)
C23 C 1.0086(4) 0.2851(3) 0.79101(19)
C24 C 0.9436(4) 0.2069(3) 0.82543(19)
C25 C 0.9363(4) 0.1731(3) 0.8979(2)
H13 H 0.8931 0.1215 0.9204
C26 C 0.9927(5) 0.2159(4) 0.9366(2)
H14 H 0.9879 0.1927 0.9852
C27 C 1.0562(5) 0.2930(4) 0.9034(2)
H15 H 1.0936 0.3221 0.9297
C28 C 1.0641(4) 0.3266(4) 0.8323(2)
H16 H 1.1075 0.3785 0.8106
C29 C 0.5518(5) 0.7847(4) 1.1057(2)
H17 H 0.5924 0.8390 1.0860
C30 C 0.5487(6) 0.7441(4) 1.1780(2)
H18 H 0.5866 0.7711 1.2053
C31 C 0.4899(6) 0.6654(4) 1.2072(2)
H19 H 0.4882 0.6367 1.2548
C32 C 0.4309(4) 0.6265(3) 1.1654(2)
C33 C 0.3652(5) 0.5437(4) 1.1924(2)
H20 H 0.3575 0.5154 1.2403
C34 C 0.3153(5) 0.5067(3) 1.1501(2)
H21 H 0.2744 0.4524 1.1690
C35 C 0.3232(4) 0.5490(3) 1.0764(2)
C36 C 0.2736(4) 0.5124(3) 1.0299(3)
H22 H 0.2322 0.4580 1.0463
C37 C 0.2857(5) 0.5565(3) 0.9604(3)
H23 H 0.2543 0.5315 0.9288
C38 C 0.3451(4) 0.6388(3) 0.9370(2)
H24 H 0.3508 0.6694 0.8896
C39 C 0.3840(4) 0.6321(3) 1.04853(19)
C40 C 0.4399(4) 0.6711(3) 1.09387(19)
C41 C 1.0368(4) 0.3494(3) 0.3867(2)
H25 H 0.9883 0.4224 0.3983
C42 C 1.0908(4) 0.3302(4) 0.3145(2)
H26 H 1.0771 0.3887 0.2788
C43 C 1.1644(4) 0.2238(4) 0.2971(2)
H27 H 1.2037 0.2096 0.2492
C44 C 1.1810(4) 0.1351(4) 0.3518(2)
C45 C 1.2535(4) 0.0199(4) 0.3378(2)
H28 H 1.2961 0.0022 0.2907
C46 C 1.2609(4) -0.0615(4) 0.3907(2)
H29 H 1.3059 -0.1352 0.3797
C47 C 1.2007(4) -0.0377(3) 0.4644(2)
C48 C 1.2036(4) -0.1204(3) 0.5211(2)
H30 H 1.2468 -0.1952 0.5121
C49 C 1.1430(4) -0.0920(3) 0.5904(2)
H31 H 1.1433 -0.1467 0.6288
C50 C 1.0805(4) 0.0218(3) 0.6018(2)
H32 H 1.0413 0.0416 0.6488
C51 C 1.1326(3) 0.0742(3) 0.48056(19)
C52 C 1.1218(4) 0.1619(3) 0.42322(19)
S1 S 0.63939(9) 0.65451(7) 0.63683(5)
S2 S 0.78583(10) 0.04602(8) 0.84426(5)
S3 S 0.53522(9) 0.74644(7) 0.72401(5)
S4 S 0.87097(11) 0.15234(8) 0.77306(5)
N1 N 1.0506(3) 0.2688(2) 0.44013(15)
N2 N 1.0747(3) 0.1018(2) 0.54916(15)
N3 N 0.3946(3) 0.6763(2) 0.97894(15)
N4 N 0.5005(3) 0.7498(3) 1.06478(16)
O1 O 0.7565(3) 0.3173(2) 0.58351(16)
O2 O 0.3096(3) 0.9688(2) 0.98065(13)
H33 H 0.3198 1.0318 0.9796
H34 H 0.2323 0.9625 0.9949
O3 O 0.8068(2) 0.47297(19) 0.55540(13)
O4 O 1.1538(3) 0.3578(2) 0.54742(13)
H35 H 1.1402 0.4275 0.5463
H36 H 1.2323 0.3119 0.5432
O5 O 0.4376(3) 0.8585(2) 0.83768(12)
O6 O 0.3370(4) 1.0410(2) 0.84620(15)
O7 O 0.9759(3) 0.2792(2) 0.67825(13)
O8 O 1.0880(3) 0.3886(3) 0.68578(15)
O9 O 0.7139(3) -0.2671(2) 0.89165(14)
O10 O 0.6604(3) -0.1010(2) 0.93022(13)
Cd2_2 Cd 0.48693(3) -0.18149(2) 0.945798(13)
O9_2 O 0.7139(3) 0.7329(2) 0.89165(14)
O10_2 O 0.6604(3) 0.8990(2) 0.93022(13)
loop_
_geom_bond_atom_site_label_1
_geom_bond_atom_site_label_2
_geom_bond_site_symmetry_1
_geom_bond_site_symmetry_2
Cd1 N1 1_555 1_555
Cd2 N3 1_555 1_555
C1 C7 1_555 1_555
C2 H1 1_555 1_555
C3 C2 1_555 1_555
H2 C3 1_555 1_555
C4 C3 1_555 1_555
H3 C4 1_555 1_555
C5 C4 1_555 1_555
H4 C5 1_555 1_555
C6 C5 1_555 1_555
C7 C2 1_555 1_555
C8 C9 1_555 1_555
C9 C10 1_555 1_555
C10 H5 1_555 1_555
C11 C10 1_555 1_555
H6 C11 1_555 1_555
C12 C11 1_555 1_555
H7 C12 1_555 1_555
C13 C12 1_555 1_555
H8 C13 1_555 1_555
C14 C9 1_555 1_555
C15 C16 1_555 1_555
C16 C17 1_555 1_555
C17 H9 1_555 1_555
C18 C17 1_555 1_555
H10 C18 1_555 1_555
C19 C18 1_555 1_555
H11 C19 1_555 1_555
C20 C19 1_555 1_555
H12 C20 1_555 1_555
C21 C16 1_555 1_555
C22 C23 1_555 1_555
C23 C24 1_555 1_555
C24 C25 1_555 1_555
C25 H13 1_555 1_555
C26 C25 1_555 1_555
H14 C26 1_555 1_555
C27 C26 1_555 1_555
H15 C27 1_555 1_555
C28 C23 1_555 1_555
H16 C28 1_555 1_555
C29 H17 1_555 1_555
C30 C29 1_555 1_555
H18 C30 1_555 1_555
C31 C30 1_555 1_555
H19 C31 1_555 1_555
C32 C31 1_555 1_555
C33 C32 1_555 1_555
H20 C33 1_555 1_555
C34 C33 1_555 1_555
H21 C34 1_555 1_555
C35 C34 1_555 1_555
C36 C35 1_555 1_555
H22 C36 1_555 1_555
C37 C36 1_555 1_555
H23 C37 1_555 1_555
C38 C37 1_555 1_555
H24 C38 1_555 1_555
C39 C35 1_555 1_555
C40 C32 1_555 1_555
C41 H25 1_555 1_555
C42 C41 1_555 1_555
H26 C42 1_555 1_555
C43 C42 1_555 1_555
H27 C43 1_555 1_555
C44 C43 1_555 1_555
C45 C44 1_555 1_555
H28 C45 1_555 1_555
C46 C45 1_555 1_555
H29 C46 1_555 1_555
C47 C46 1_555 1_555
C48 C47 1_555 1_555
H30 C48 1_555 1_555
C49 C48 1_555 1_555
H31 C49 1_555 1_555
C50 C49 1_555 1_555
H32 C50 1_555 1_555
C51 C47 1_555 1_555
C52 C44 1_555 1_555
S1 C6 1_555 1_555
S2 C21 1_555 1_555
S3 C14 1_555 1_555
S4 C24 1_555 1_555
N1 C41 1_555 1_555
N2 Cd1 1_555 1_555
N3 C38 1_555 1_555
N4 Cd2 1_555 1_555
O1 Cd1 1_555 1_555
O2 Cd2 1_555 1_555
H33 O2 1_555 1_555
H34 O2 1_555 1_555
O3 Cd1 1_555 1_555
O4 Cd1 1_555 1_555
H35 O4 1_555 1_555
H36 O4 1_555 1_555
O5 Cd2 1_555 1_555
O6 C8 1_555 1_555
O7 Cd1 1_555 1_555
O8 C22 1_555 1_555
O9 C15 1_555 1_555
O10 C15 1_555 1_555
Cd2_2 O9 1_555 1_555
O9_2 Cd2 1_555 1_555
O10_2 Cd2 1_555 1_555
C1 O1 1_555 1_555
C1 O3 1_555 1_555
C6 C7 1_555 1_555
C8 O5 1_555 1_555
C13 C14 1_555 1_555
C20 C21 1_555 1_555
C22 O7 1_555 1_555
C27 C28 1_555 1_555
C29 N4 1_555 1_555
C39 C40 1_555 1_555
C39 N3 1_555 1_555
C40 N4 1_555 1_555
C50 N2 1_555 1_555
C51 C52 1_555 1_555
C51 N2 1_555 1_555
C52 N1 1_555 1_555
S1 S3 1_555 1_555
S2 S4 1_555 1_555
O10 Cd2_2 1_555 1_555

#END
