
#######################################################################
#
#                 Cambridge Crystallographic Data Centre
#                                CCDC 
#
#######################################################################
#
# If this CIF has been generated from an entry in the Cambridge 
# Structural Database, then it will include bibliographic, chemical, 
# crystal, experimental, refinement or atomic coordinate data resulting 
# from the CCDC's data processing and validation procedures.
#
#######################################################################

data_ONUREV
_symmetry_cell_setting           trigonal
_symmetry_space_group_name_H-M   'P -3 c 1'
_symmetry_Int_Tables_number      165
_space_group_name_Hall           '-P 3 2"c'
loop_
_symmetry_equiv_pos_site_id
_symmetry_equiv_pos_as_xyz
1 x,y,z
2 -y,x-y,z
3 -x+y,-x,z
4 y,x,1/2-z
5 x-y,-y,1/2-z
6 -x,-x+y,1/2-z
7 -x,-y,-z
8 y,-x+y,-z
9 x-y,x,-z
10 -y,-x,1/2+z
11 -x+y,y,1/2+z
12 x,x-y,1/2+z
_cell_length_a                   15.881(2)
_cell_length_b                   15.881(2)
_cell_length_c                   16.799(3)
_cell_angle_alpha                90
_cell_angle_beta                 90
_cell_angle_gamma                120
_cell_volume                     3669.19
loop_
_atom_site_label
_atom_site_type_symbol
_atom_site_fract_x
_atom_site_fract_y
_atom_site_fract_z
C1 C 0.3667(3) 0.5092(3) 0.4395(2)
C2 C 0.2883(3) 0.4680(3) 0.4937(2)
H1 H 0.2580 0.5030 0.5080
C3 C 0.2556(4) 0.3767(3) 0.5258(3)
C4 C 0.2995(4) 0.3223(4) 0.5069(3)
C5 C 0.3770(4) 0.3609(3) 0.4570(3)
C6 C 0.4128(3) 0.4541(3) 0.4221(2)
C7 C 0.4963(3) 0.4908(3) 0.3734(3)
C8 C 0.6279(3) 0.6152(3) 0.2940(2)
Dy1 Dy 0.3333 0.6667 0.332187(17)
H2 H 0.513(3) 0.598(3) 0.348(2)
H3 H 0.202(4) 0.350(4) 0.562(3)
H4 H 0.277(3) 0.266(4) 0.522(3)
H5 H 0.396(3) 0.318(3) 0.441(3)
H6 H 0.518(3) 0.464(3) 0.373(3)
H7 H 0.674(3) 0.682(3) 0.317(2)
H8 H 0.652(3) 0.575(3) 0.302(2)
N1 N 0.5374(2) 0.5735(3) 0.3384(2)
N2 N 0.5089(3) 0.7911(3) 0.2399(2)
O1 O 0.39715(18) 0.59400(17) 0.40765(17)
O2 O 0.5118(2) 0.7428(2) 0.29787(19)
O3 O 0.4275(2) 0.7863(2) 0.22640(19)
O4 O 0.5791(3) 0.8372(3) 0.1975(3)
C1A C 0.4908(3) 0.8575(4) 0.4395(2)
C1E C 0.6333(3) 1.1425(4) 0.0605(2)
C1C C 0.5092(3) 1.3667(3) 0.0605(2)
C1_2 C 0.3667(3) 1.5092(3) 0.4395(2)
C1C_2 C 0.5092(3) 0.3667(3) 0.0605(2)
C2A C 0.5320(3) 0.8203(4) 0.4937(2)
C2E C 0.7117(3) 1.1797(4) 0.0063(2)
C2C C 0.4680(3) 1.2883(3) 0.0063(2)
C2_2 C 0.2883(3) 1.4680(3) 0.4937(2)
C2C_2 C 0.4680(3) 0.2883(3) 0.0063(2)
H1A H 0.4970 0.7550 0.5080
H1E H 0.7420 1.2450 -0.0080
H1C H 0.5030 1.2580 -0.0080
H1_2 H 0.2580 1.5030 0.5080
H1C_2 H 0.5030 0.2580 -0.0080
C3A C 0.6233(3) 0.8789(5) 0.5258(3)
C3E C 0.7444(4) 1.1211(5) -0.0258(3)
C3C C 0.3767(3) 1.2556(4) -0.0258(3)
C3_2 C 0.2556(4) 1.3767(3) 0.5258(3)
C3C_2 C 0.3767(3) 0.2556(4) -0.0258(3)
C4A C 0.6777(4) 0.9772(6) 0.5069(3)
C4E C 0.7005(4) 1.0228(6) -0.0069(3)
C4C C 0.3223(4) 1.2995(4) -0.0069(3)
C4_2 C 0.2995(4) 1.3223(4) 0.5069(3)
C4C_2 C 0.3223(4) 0.2995(4) -0.0069(3)
C5A C 0.6391(3) 1.0161(5) 0.4570(3)
C5E C 0.6230(4) 0.9839(5) 0.0430(3)
C5C C 0.3609(3) 1.3770(4) 0.0430(3)
C5_2 C 0.3770(4) 1.3609(3) 0.4570(3)
C5C_2 C 0.3609(3) 0.3770(4) 0.0430(3)
C6A C 0.5459(3) 0.9587(4) 0.4221(2)
C6E C 0.5872(3) 1.0413(4) 0.0779(2)
C6C C 0.4541(3) 1.4128(3) 0.0779(2)
C6_2 C 0.4128(3) 1.4541(3) 0.4221(2)
C6C_2 C 0.4541(3) 0.4128(3) 0.0779(2)
C7A C 0.5092(3) 1.0055(4) 0.3734(3)
C7E C 0.5037(3) 0.9945(4) 0.1266(3)
C7C C 0.4908(3) 1.4963(3) 0.1266(3)
C7_2 C 0.4963(3) 1.4908(3) 0.3734(3)
C7C_2 C 0.4908(3) 0.4963(3) 0.1266(3)
C8A C 0.3848(3) 1.0127(4) 0.2940(2)
C8E C 0.3721(3) 0.9873(4) 0.2060(2)
C8C C 0.6152(3) 1.6279(3) 0.2060(2)
C8_2 C 0.6279(3) 1.6152(3) 0.2940(2)
C8C_2 C 0.6152(3) 0.6279(3) 0.2060(2)
Dy1E Dy 0.6667 1.3334 0.167813(17)
Dy1_2 Dy 0.3333 1.6667 0.332187(17)
Dy1C Dy 0.6667 0.3333 0.167813(17)
H2_2 H 0.513(3) 1.598(3) 0.348(2)
H2C H 0.598(3) 1.513(3) 0.152(2)
H2E H 0.487(3) 1.085(4) 0.152(2)
H2A H 0.402(3) 0.915(4) 0.348(2)
H2C_2 H 0.598(3) 0.513(3) 0.152(2)
H3E H 0.798(4) 1.148(6) -0.062(3)
H3C H 0.350(4) 1.202(4) -0.062(3)
H3A H 0.650(4) 0.852(6) 0.562(3)
H3_2 H 0.202(4) 1.350(4) 0.562(3)
H3C_2 H 0.350(4) 0.202(4) -0.062(3)
H4E H 0.723(3) 0.989(5) -0.022(3)
H4C H 0.266(4) 1.277(3) -0.022(3)
H4A H 0.734(4) 1.011(5) 0.522(3)
H4_2 H 0.277(3) 1.266(4) 0.522(3)
H4C_2 H 0.266(4) 0.277(3) -0.022(3)
H5E H 0.604(3) 0.922(4) 0.059(3)
H5C H 0.318(3) 1.396(3) 0.059(3)
H5A H 0.682(3) 1.078(4) 0.441(3)
H5_2 H 0.396(3) 1.318(3) 0.441(3)
H5C_2 H 0.318(3) 0.396(3) 0.059(3)
H6A H 0.536(3) 1.054(4) 0.373(3)
H6C H 0.464(3) 1.518(3) 0.127(3)
H6_2 H 0.518(3) 1.464(3) 0.373(3)
H6E H 0.482(3) 0.946(4) 0.127(3)
H6C_2 H 0.464(3) 0.518(3) 0.127(3)
H7E H 0.326(3) 1.008(4) 0.183(2)
H7_2 H 0.674(3) 1.682(3) 0.317(2)
H7C H 0.682(3) 1.674(3) 0.183(2)
H7A H 0.318(3) 0.992(4) 0.317(2)
H7C_2 H 0.682(3) 0.674(3) 0.183(2)
H8E H 0.348(3) 0.923(4) 0.198(2)
H8_2 H 0.652(3) 1.575(3) 0.302(2)
H8C H 0.575(3) 1.652(3) 0.198(2)
H8A H 0.425(3) 1.077(4) 0.302(2)
H8C_2 H 0.575(3) 0.652(3) 0.198(2)
N1A N 0.4265(3) 0.9639(4) 0.3384(2)
N1E N 0.4626(2) 1.0361(4) 0.1616(2)
N1C N 0.5735(3) 1.5374(2) 0.1616(2)
N1_2 N 0.5374(2) 1.5735(3) 0.3384(2)
N1C_2 N 0.5735(3) 0.5374(2) 0.1616(2)
N2E N 0.4911(3) 1.2822(4) 0.2601(2)
N2C N 0.7911(3) 1.5089(3) 0.2601(2)
N2D N 0.7178(4) 1.2089(3) 0.2601(2)
N2A N 0.2089(3) 0.7178(4) 0.2399(2)
N2B N 0.2822(4) 0.4911(3) 0.2399(2)
O1A O 0.40600(17) 0.80315(25) 0.40765(17)
O1E O 0.60285(18) 1.19685(25) 0.09235(17)
O1C O 0.59400(17) 1.39715(18) 0.09235(17)
O1D O 0.80315(25) 1.40600(17) 0.09235(17)
O1B O 0.19685(25) 0.60285(18) 0.40765(17)
O1_2 O 0.39715(18) 1.59400(17) 0.40765(17)
O1C_2 O 0.59400(17) 0.39715(18) 0.09235(17)
O2E O 0.4882(2) 1.2310(3) 0.20213(19)
O2C O 0.7428(2) 1.5118(2) 0.20213(19)
O2D O 0.7690(3) 1.2572(2) 0.20213(19)
O2A O 0.2572(2) 0.7690(3) 0.29787(19)
O2B O 0.2310(3) 0.4882(2) 0.29787(19)
O3E O 0.5725(2) 1.3588(3) 0.27360(19)
O3C O 0.7863(2) 1.4275(2) 0.27360(19)
O3D O 0.6412(3) 1.2137(2) 0.27360(19)
O3A O 0.2137(2) 0.6412(3) 0.22640(19)
O3B O 0.3588(3) 0.5725(2) 0.22640(19)
O4D O 0.7419(4) 1.1628(3) 0.3025(3)
O4C O 0.8372(3) 1.5791(3) 0.3025(3)
O4E O 0.4209(3) 1.2581(4) 0.3025(3)
O4A O 0.1628(3) 0.7419(4) 0.1975(3)
O4B O 0.2581(4) 0.4209(3) 0.1975(3)
loop_
_geom_bond_atom_site_label_1
_geom_bond_atom_site_label_2
_geom_bond_site_symmetry_1
_geom_bond_site_symmetry_2
C1 C2 1_555 1_555
C2 H1 1_555 1_555
C3 C2 1_555 1_555
C4 C3 1_555 1_555
C5 C4 1_555 1_555
C6 C1 1_555 1_555
C7 C6 1_555 1_555
C8 H7 1_555 1_555
Dy1 O1 1_555 1_555
H2 N1 1_555 1_555
H3 C3 1_555 1_555
H4 C4 1_555 1_555
H5 C5 1_555 1_555
H6 C7 1_555 1_555
H8 C8 1_555 1_555
N1 C7 1_555 1_555
N2 O2 1_555 1_555
O1 C1 1_555 1_555
O2 Dy1 1_555 1_555
O3 Dy1 1_555 1_555
O4 N2 1_555 1_555
C1A C2A 1_555 1_555
C1E C2E 1_555 1_555
C1C C2C 1_555 1_555
C1_2 C2_2 1_555 1_555
C1C_2 C2C_2 1_555 1_555
C2A H1A 1_555 1_555
C2E H1E 1_555 1_555
C2C H1C 1_555 1_555
C2_2 H1_2 1_555 1_555
C2C_2 H1C_2 1_555 1_555
C3A C2A 1_555 1_555
C3E C2E 1_555 1_555
C3C C2C 1_555 1_555
C3_2 C2_2 1_555 1_555
C3C_2 C2C_2 1_555 1_555
C4A C3A 1_555 1_555
C4E C3E 1_555 1_555
C4C C3C 1_555 1_555
C4_2 C3_2 1_555 1_555
C4C_2 C3C_2 1_555 1_555
C5A C4A 1_555 1_555
C5E C4E 1_555 1_555
C5C C4C 1_555 1_555
C5_2 C4_2 1_555 1_555
C5C_2 C4C_2 1_555 1_555
C6A C1A 1_555 1_555
C6E C1E 1_555 1_555
C6C C1C 1_555 1_555
C6_2 C1_2 1_555 1_555
C6C_2 C1C_2 1_555 1_555
C7A C6A 1_555 1_555
C7E C6E 1_555 1_555
C7C C6C 1_555 1_555
C7_2 C6_2 1_555 1_555
C7C_2 C6C_2 1_555 1_555
C8A C8E 1_555 1_555
C8E H7E 1_555 1_555
C8C C8_2 1_555 1_555
C8_2 H7_2 1_555 1_555
C8C_2 C8 1_555 1_555
Dy1E O1E 1_555 1_555
Dy1_2 O1_2 1_555 1_555
Dy1C O1C_2 1_555 1_555
H2_2 N1_2 1_555 1_555
H2C N1C 1_555 1_555
H2E N1E 1_555 1_555
H2A N1A 1_555 1_555
H2C_2 N1C_2 1_555 1_555
H3E C3E 1_555 1_555
H3C C3C 1_555 1_555
H3A C3A 1_555 1_555
H3_2 C3_2 1_555 1_555
H3C_2 C3C_2 1_555 1_555
H4E C4E 1_555 1_555
H4C C4C 1_555 1_555
H4A C4A 1_555 1_555
H4_2 C4_2 1_555 1_555
H4C_2 C4C_2 1_555 1_555
H5E C5E 1_555 1_555
H5C C5C 1_555 1_555
H5A C5A 1_555 1_555
H5_2 C5_2 1_555 1_555
H5C_2 C5C_2 1_555 1_555
H6A C7A 1_555 1_555
H6C C7C 1_555 1_555
H6_2 C7_2 1_555 1_555
H6E C7E 1_555 1_555
H6C_2 C7C_2 1_555 1_555
H7C C8C 1_555 1_555
H7A C8A 1_555 1_555
H7C_2 C8C_2 1_555 1_555
H8E C8E 1_555 1_555
H8_2 C8_2 1_555 1_555
H8C C8C 1_555 1_555
H8A C8A 1_555 1_555
H8C_2 C8C_2 1_555 1_555
N1A C7A 1_555 1_555
N1E C7E 1_555 1_555
N1C C7C 1_555 1_555
N1_2 C7_2 1_555 1_555
N1C_2 C7C_2 1_555 1_555
N2E O2E 1_555 1_555
N2C O2C 1_555 1_555
N2D O2D 1_555 1_555
N2A O2A 1_555 1_555
N2B O2B 1_555 1_555
O1A Dy1 1_555 1_555
O1E C1E 1_555 1_555
O1C C1C 1_555 1_555
O1D Dy1E 1_555 1_555
O1B Dy1 1_555 1_555
O1_2 C1_2 1_555 1_555
O1C_2 C1C_2 1_555 1_555
O2E Dy1E 1_555 1_555
O2C Dy1E 1_555 1_555
O2D Dy1E 1_555 1_555
O2A Dy1 1_555 1_555
O2B Dy1 1_555 1_555
O3E Dy1E 1_555 1_555
O3C Dy1E 1_555 1_555
O3D Dy1E 1_555 1_555
O3A Dy1 1_555 1_555
O3B Dy1 1_555 1_555
O4D N2D 1_555 1_555
O4C N2C 1_555 1_555
O4E N2E 1_555 1_555
O4A N2A 1_555 1_555
O4B N2B 1_555 1_555
C5 C6 1_555 1_555
C8 N1 1_555 1_555
N2 O3 1_555 1_555
C1A O1A 1_555 1_555
C5A C6A 1_555 1_555
C5E C6E 1_555 1_555
C5C C6C 1_555 1_555
C5_2 C6_2 1_555 1_555
C5C_2 C6C_2 1_555 1_555
C8A N1A 1_555 1_555
C8E N1E 1_555 1_555
C8C N1C 1_555 1_555
C8_2 N1_2 1_555 1_555
C8C_2 N1C_2 1_555 1_555
Dy1E O1C 1_555 1_555
N2E O3E 1_555 1_555
N2C O3C 1_555 1_555
N2D O3D 1_555 1_555
N2A O3A 1_555 1_555
N2B O3B 1_555 1_555

#END
