
#######################################################################
#
#                 Cambridge Crystallographic Data Centre
#                                CCDC 
#
#######################################################################
#
# If this CIF has been generated from an entry in the Cambridge 
# Structural Database, then it will include bibliographic, chemical, 
# crystal, experimental, refinement or atomic coordinate data resulting 
# from the CCDC's data processing and validation procedures.
#
#######################################################################

data_ONUSUM
_symmetry_cell_setting           monoclinic
_symmetry_space_group_name_H-M   'P 21/c'
_symmetry_Int_Tables_number      14
_space_group_name_Hall           '-P 2ybc'
loop_
_symmetry_equiv_pos_site_id
_symmetry_equiv_pos_as_xyz
1 x,y,z
2 -x,1/2+y,1/2-z
3 -x,-y,-z
4 x,1/2-y,1/2+z
_cell_length_a                   11.8506(17)
_cell_length_b                   13.2902(19)
_cell_length_c                   7.0191(10)
_cell_angle_alpha                90
_cell_angle_beta                 106.346(3)
_cell_angle_gamma                90
_cell_volume                     1060.8
loop_
_atom_site_label
_atom_site_type_symbol
_atom_site_fract_x
_atom_site_fract_y
_atom_site_fract_z
Sr1 Sr 0.35458(4) -0.06170(4) 0.76932(7)
O1 O 0.1839(4) 0.0694(3) 0.7047(7)
O2 O 0.3626(3) 0.1330(3) 0.7501(6)
O3 O 0.0110(3) 0.1857(3) 0.6785(8)
H1 H 0.0484 0.1330 0.6915
O4 O 0.2630(3) 0.6005(3) 0.5758(6)
O5 O 0.3688(4) 0.5684(3) 0.9195(6)
O6 O 0.4262(3) 0.4893(3) 0.6494(6)
O7 O 0.2061(4) -0.1965(4) 0.6222(7)
O8 O 0.4684(4) -0.2165(3) 0.9311(7)
S1 S 0.32958(11) 0.52856(11) 0.7187(2)
C1 C 0.2547(5) 0.1442(5) 0.7243(8)
C2 C 0.2056(5) 0.2478(4) 0.7149(8)
C3 C 0.0848(5) 0.2642(5) 0.6925(8)
C4 C 0.0423(4) 0.3619(5) 0.6896(9)
H2 H -0.0365 0.3726 0.6807
C5 C 0.1160(5) 0.4424(5) 0.6998(10)
H3 H 0.0868 0.5076 0.6954
C6 C 0.2349(5) 0.4265(4) 0.7170(9)
C7 C 0.2790(4) 0.3308(4) 0.7250(8)
H4 H 0.3585 0.3212 0.7373
Sr1C Sr 0.35458(4) 0.56170(4) 0.26932(7)
Sr1C_2 Sr 0.35458(4) 0.56170(4) 1.26932(7)
Sr1A Sr 0.64542(4) 0.43830(4) 0.73068(7)
O4C O 0.2630(3) -0.1005(3) 1.0758(6)
O5C O 0.3688(4) -0.0684(3) 0.4195(6)
O6A O 0.5738(3) -0.0107(3) 0.8506(6)
O6C O 0.4262(3) 0.0107(3) 1.1494(6)
loop_
_geom_bond_atom_site_label_1
_geom_bond_atom_site_label_2
_geom_bond_site_symmetry_1
_geom_bond_site_symmetry_2
Sr1 O1 1_555 1_555
O1 C1 1_555 1_555
O2 Sr1 1_555 1_555
O3 H1 1_555 1_555
O4 S1 1_555 1_555
O5 S1 1_555 1_555
O6 S1 1_555 1_555
O7 Sr1 1_555 1_555
O8 Sr1 1_555 1_555
S1 C6 1_555 1_555
C1 O2 1_555 1_555
C2 C1 1_555 1_555
C3 O3 1_555 1_555
C4 C3 1_555 1_555
H2 C4 1_555 1_555
C5 C4 1_555 1_555
H3 C5 1_555 1_555
C6 C5 1_555 1_555
C7 C2 1_555 1_555
H4 C7 1_555 1_555
Sr1C O4 1_555 1_555
Sr1C_2 O5 1_555 1_555
Sr1A O6 1_555 1_555
O4C Sr1 1_555 1_555
O5C Sr1 1_555 1_555
O6A Sr1 1_555 1_555
O6C Sr1 1_555 1_555
O6 Sr1C 1_555 1_555
C2 C3 1_555 1_555
C6 C7 1_555 1_555

#END
