
#######################################################################
#
#                 Cambridge Crystallographic Data Centre
#                                CCDC 
#
#######################################################################
#
# If this CIF has been generated from an entry in the Cambridge 
# Structural Database, then it will include bibliographic, chemical, 
# crystal, experimental, refinement or atomic coordinate data resulting 
# from the CCDC's data processing and validation procedures.
#
#######################################################################

data_ONUTIB
_symmetry_cell_setting           triclinic
_symmetry_space_group_name_H-M   'P -1'
_symmetry_Int_Tables_number      2
_space_group_name_Hall           '-P 1'
loop_
_symmetry_equiv_pos_site_id
_symmetry_equiv_pos_as_xyz
1 x,y,z
2 -x,-y,-z
_cell_length_a                   8.0208(10)
_cell_length_b                   10.2552(13)
_cell_length_c                   10.977(2)
_cell_angle_alpha                114.923(2)
_cell_angle_beta                 102.242(2)
_cell_angle_gamma                100.0310(10)
_cell_volume                     764.012
loop_
_atom_site_label
_atom_site_type_symbol
_atom_site_fract_x
_atom_site_fract_y
_atom_site_fract_z
Cu1 Cu 0.45159(4) 0.63917(3) 1.01272(3)
Cu2 Cu 1.14236(4) 0.36379(3) 1.01707(3)
O1 O 1.1881(2) 0.30634(18) 1.16978(17)
O2 O 1.1856(3) 0.3798(2) 1.39285(19)
O3 O 0.5521(2) 0.49060(16) 0.89722(15)
H1 H 0.5291 0.4547 0.8103
O4 O 0.7803(2) 0.85116(18) 1.36174(17)
O5 O 0.7762(2) 0.77809(17) 1.13751(16)
N1 N 1.0249(3) 0.4856(2) 1.13653(19)
N2 N 0.9372(3) 0.5829(2) 1.12913(19)
N3 N 0.3513(2) 0.7903(2) 1.1359(2)
N4 N 0.3881(2) 0.7324(2) 0.8886(2)
C1 C 1.1492(3) 0.3866(3) 1.2816(3)
C2 C 1.0514(3) 0.4941(3) 1.2652(2)
C3 C 0.9778(3) 0.6016(3) 1.3447(2)
H4 H 0.9759 0.6307 1.4368
C4 C 0.9079(3) 0.6550(2) 1.2532(2)
C5 C 0.8156(3) 0.7716(2) 1.2561(2)
C6 C 0.4084(3) 0.6944(3) 0.7610(3)
H5 H 0.4627 0.6198 0.7253
C7 C 0.3522(4) 0.7613(3) 0.6801(3)
H6 H 0.3673 0.7315 0.5915
C8 C 0.2732(4) 0.8734(3) 0.7334(3)
H7 H 0.2354 0.9210 0.6816
C9 C 0.2510(3) 0.9136(3) 0.8644(3)
H8 H 0.1983 0.9890 0.9019
C10 C 0.3079(3) 0.8412(2) 0.9403(3)
C11 C 0.2894(3) 0.8750(2) 1.0807(2)
C12 C 0.2154(3) 0.9845(3) 1.1534(3)
H9 H 0.1717 1.0407 1.1135
C13 C 0.2073(4) 1.0093(3) 1.2859(3)
H10 H 0.1584 1.0823 1.3360
C14 C 0.2728(3) 0.9242(3) 1.3425(3)
H11 H 0.2699 0.9399 1.4318
C15 C 0.3429(3) 0.8154(3) 1.2647(2)
H12 H 0.3858 0.7574 1.3027
Cu1A Cu 0.54841(4) 0.36083(3) 0.98728(3)
Cu2A Cu 0.85764(4) 0.63621(3) 0.98293(3)
O3A O 0.4479(2) 0.50940(16) 1.10278(15)
O3A_2 O 1.4479(2) 0.50940(16) 1.10278(15)
H1A H 0.4709 0.5453 1.1897
H1A_2 H 1.4709 0.5453 1.1897
O5A O 1.2238(2) 0.22191(17) 0.86249(16)
N2A N 1.0628(3) 0.4171(2) 0.87087(19)
O6 O 0.5615(3) 0.6540(2) 0.41542(18)
H2 H 0.6189 0.6352 0.4758
H3 H 0.6289 0.7210 0.4091
loop_
_geom_bond_atom_site_label_1
_geom_bond_atom_site_label_2
_geom_bond_site_symmetry_1
_geom_bond_site_symmetry_2
Cu1 O3 1_555 1_555
Cu2 O1 1_555 1_555
O1 C1 1_555 1_555
O2 C1 1_555 1_555
O3 H1 1_555 1_555
O4 C5 1_555 1_555
O5 Cu1 1_555 1_555
O6 H2 1_555 1_555
H3 O6 1_555 1_555
N1 Cu2 1_555 1_555
N2 N1 1_555 1_555
N3 Cu1 1_555 1_555
N4 Cu1 1_555 1_555
C1 C2 1_555 1_555
C2 N1 1_555 1_555
C3 C2 1_555 1_555
H4 C3 1_555 1_555
C4 N2 1_555 1_555
C5 O5 1_555 1_555
C6 N4 1_555 1_555
H5 C6 1_555 1_555
C7 C6 1_555 1_555
H6 C7 1_555 1_555
C8 C7 1_555 1_555
H7 C8 1_555 1_555
C9 C8 1_555 1_555
H8 C9 1_555 1_555
C10 N4 1_555 1_555
C11 N3 1_555 1_555
C12 C11 1_555 1_555
H9 C12 1_555 1_555
C13 C12 1_555 1_555
H10 C13 1_555 1_555
C14 C13 1_555 1_555
H11 C14 1_555 1_555
C15 N3 1_555 1_555
H12 C15 1_555 1_555
Cu1A O3 1_555 1_555
Cu2A O3 1_555 1_555
O3A Cu1 1_555 1_555
O3A_2 Cu2 1_555 1_555
H1A O3A 1_555 1_555
H1A_2 O3A_2 1_555 1_555
O5A Cu2 1_555 1_555
N2A Cu2 1_555 1_555
O5 Cu2A 1_555 1_555
N2 Cu2A 1_555 1_555
C3 C4 1_555 1_555
C4 C5 1_555 1_555
C9 C10 1_555 1_555
C10 C11 1_555 1_555
C14 C15 1_555 1_555
Cu1A O3A 1_555 1_555

#END
