
#######################################################################
#
#                 Cambridge Crystallographic Data Centre
#                                CCDC 
#
#######################################################################
#
# If this CIF has been generated from an entry in the Cambridge 
# Structural Database, then it will include bibliographic, chemical, 
# crystal, experimental, refinement or atomic coordinate data resulting 
# from the CCDC's data processing and validation procedures.
#
#######################################################################

data_OPANUP
_symmetry_cell_setting           triclinic
_symmetry_space_group_name_H-M   'P -1'
_symmetry_Int_Tables_number      2
_space_group_name_Hall           '-P 1'
loop_
_symmetry_equiv_pos_site_id
_symmetry_equiv_pos_as_xyz
1 x,y,z
2 -x,-y,-z
_cell_length_a                   7.4383(7)
_cell_length_b                   9.9499(9)
_cell_length_c                   17.1457(16)
_cell_angle_alpha                78.2340(10)
_cell_angle_beta                 89.6140(10)
_cell_angle_gamma                79.2360(10)
_cell_volume                     1219.79
loop_
_atom_site_label
_atom_site_type_symbol
_atom_site_fract_x
_atom_site_fract_y
_atom_site_fract_z
Cd1 Cd -0.23728(4) 0.92876(3) 0.05116(2)
Fe1 Fe 0.27053(9) 0.21080(7) 0.37865(4)
Br1 Br 0.06137(6) 1.02096(4) 0.09996(3)
Br2 Br -0.48994(6) 1.16970(4) 0.02622(3)
C1 C 0.0164(7) 0.1865(4) 0.3520(3)
C2 C 0.1457(8) 0.0637(5) 0.3462(3)
H1 H 0.1692 0.0243 0.2984
C3 C 0.2344(8) 0.0100(5) 0.4216(4)
H2 H 0.3324 -0.0726 0.4349
C4 C 0.1608(8) 0.0958(5) 0.4743(3)
H3 H 0.1983 0.0833 0.5304
C5 C 0.0255(7) 0.2056(5) 0.4314(3)
H4 H -0.0484 0.2812 0.4530
C6 C 0.3281(7) 0.4068(5) 0.3713(3)
C7 C 0.3235(7) 0.3731(5) 0.2946(3)
H5 H 0.2414 0.4253 0.2497
C8 C 0.4582(8) 0.2518(6) 0.2939(4)
H6 H 0.4861 0.2057 0.2488
C9 C 0.5443(7) 0.2106(6) 0.3696(4)
H7 H 0.6420 0.1288 0.3866
C10 C 0.4684(7) 0.3050(6) 0.4176(4)
H8 H 0.5035 0.3002 0.4733
C11 C -0.0945(6) 0.2879(5) 0.2865(3)
C12 C -0.2033(7) 0.3446(4) 0.1489(3)
H9 H -0.3228 0.3907 0.1624
H10 H -0.2209 0.2949 0.1073
C13 C -0.0887(6) 0.4537(4) 0.1181(3)
C14 C -0.1664(6) 0.5934(4) 0.1037(3)
H11 H -0.2901 0.6174 0.1135
C15 C 0.1033(6) 0.6618(4) 0.0639(3)
H12 H 0.1699 0.7321 0.0467
C16 C 0.1915(6) 0.5241(5) 0.0757(3)
H13 H 0.3154 0.5025 0.0654
C17 C 0.0964(7) 0.4191(4) 0.1025(3)
H14 H 0.1548 0.3260 0.1103
C18 C 0.2096(7) 0.5245(5) 0.3989(3)
C19 C -0.0842(7) 0.6846(5) 0.3828(3)
H15 H -0.0235 0.7601 0.3891
H16 H -0.1355 0.6498 0.4334
C20 C -0.2351(7) 0.7383(4) 0.3198(3)
C21 C -0.1997(7) 0.8108(5) 0.2451(3)
H17 H -0.0815 0.8269 0.2356
C22 C -0.4953(7) 0.8355(5) 0.2005(3)
H18 H -0.5855 0.8698 0.1603
C23 C -0.5426(8) 0.7633(6) 0.2720(4)
H19 H -0.6617 0.7482 0.2800
C24 C -0.4085(4) 0.7130(3) 0.33237(18)
H20 H -0.4367 0.6623 0.3812
N1 N -0.1178(4) 0.2454(3) 0.21869(18)
H21 H -0.0819 0.1590 0.2165
N2 N -0.0763(5) 0.6973(3) 0.0766(2)
N3 N 0.0475(6) 0.5730(4) 0.3599(3)
H22 H 0.0210 0.5376 0.3207
N4 N -0.3266(5) 0.8594(4) 0.1852(2)
O1 O 0.2597(5) 0.5766(4) 0.4517(2)
O2 O -0.1614(4) 0.4080(3) 0.2934(2)
Cd1A Cd 0.23728(4) 1.07124(3) -0.05116(2)
Cd1A_2 Cd -0.76272(4) 1.07124(3) -0.05116(2)
Br1A Br -0.06137(6) 0.97904(4) -0.09996(3)
Br2A Br -0.51006(6) 0.83030(4) -0.02622(3)
loop_
_geom_bond_atom_site_label_1
_geom_bond_atom_site_label_2
_geom_bond_site_symmetry_1
_geom_bond_site_symmetry_2
Cd1 Br1 1_555 1_555
Fe1 C1 1_555 1_555
Br1 Cd1A 1_555 1_555
Br2 Cd1 1_555 1_555
C1 C2 1_555 1_555
C2 Fe1 1_555 1_555
H1 C2 1_555 1_555
C3 Fe1 1_555 1_555
H2 C3 1_555 1_555
C4 Fe1 1_555 1_555
H3 C4 1_555 1_555
C5 Fe1 1_555 1_555
H4 C5 1_555 1_555
C6 Fe1 1_555 1_555
C7 Fe1 1_555 1_555
H5 C7 1_555 1_555
C8 Fe1 1_555 1_555
H6 C8 1_555 1_555
C9 Fe1 1_555 1_555
H7 C9 1_555 1_555
C10 Fe1 1_555 1_555
H8 C10 1_555 1_555
C11 C1 1_555 1_555
C12 H9 1_555 1_555
H10 C12 1_555 1_555
C13 C12 1_555 1_555
C14 C13 1_555 1_555
H11 C14 1_555 1_555
C15 H12 1_555 1_555
C16 C15 1_555 1_555
H13 C16 1_555 1_555
C17 C13 1_555 1_555
H14 C17 1_555 1_555
C18 C6 1_555 1_555
C19 H15 1_555 1_555
H16 C19 1_555 1_555
C20 C19 1_555 1_555
C21 C20 1_555 1_555
H17 C21 1_555 1_555
C22 H18 1_555 1_555
C23 C22 1_555 1_555
H19 C23 1_555 1_555
C24 C20 1_555 1_555
H20 C24 1_555 1_555
N1 C11 1_555 1_555
H21 N1 1_555 1_555
N2 Cd1 1_555 1_555
N3 C18 1_555 1_555
H22 N3 1_555 1_555
N4 Cd1 1_555 1_555
O1 C18 1_555 1_555
O2 C11 1_555 1_555
Cd1A Br1A 1_555 1_555
Cd1A_2 Br2 1_555 1_555
Br1A Cd1 1_555 1_555
Br2A Cd1 1_555 1_555
C1 C5 1_555 1_555
C2 C3 1_555 1_555
C3 C4 1_555 1_555
C4 C5 1_555 1_555
C6 C7 1_555 1_555
C6 C10 1_555 1_555
C7 C8 1_555 1_555
C8 C9 1_555 1_555
C9 C10 1_555 1_555
C12 N1 1_555 1_555
C14 N2 1_555 1_555
C15 N2 1_555 1_555
C16 C17 1_555 1_555
C19 N3 1_555 1_555
C21 N4 1_555 1_555
C22 N4 1_555 1_555
C23 C24 1_555 1_555
Cd1A_2 Br2A 1_555 1_555

#END
