
#######################################################################
#
#                 Cambridge Crystallographic Data Centre
#                                CCDC 
#
#######################################################################
#
# If this CIF has been generated from an entry in the Cambridge 
# Structural Database, then it will include bibliographic, chemical, 
# crystal, experimental, refinement or atomic coordinate data resulting 
# from the CCDC's data processing and validation procedures.
#
#######################################################################

data_OPANAV
_symmetry_cell_setting           rhombohedral
_symmetry_space_group_name_H-M   'R -3'
_symmetry_Int_Tables_number      148
_space_group_name_Hall           '-R 3'
loop_
_symmetry_equiv_pos_site_id
_symmetry_equiv_pos_as_xyz
1 x,y,z
2 -y,x-y,z
3 -x+y,-x,z
4 2/3+x,1/3+y,1/3+z
5 2/3-y,1/3+x-y,1/3+z
6 2/3-x+y,1/3-x,1/3+z
7 1/3+x,2/3+y,2/3+z
8 1/3-y,2/3+x-y,2/3+z
9 1/3-x+y,2/3-x,2/3+z
10 -x,-y,-z
11 y,-x+y,-z
12 x-y,x,-z
13 1/3-x,2/3-y,2/3-z
14 1/3+y,2/3-x+y,2/3-z
15 1/3+x-y,2/3+x,2/3-z
16 2/3-x,1/3-y,1/3-z
17 2/3+y,1/3-x+y,1/3-z
18 2/3+x-y,1/3+x,1/3-z
_cell_length_a                   17.1797(3)
_cell_length_b                   17.1797(3)
_cell_length_c                   17.6578(4)
_cell_angle_alpha                90
_cell_angle_beta                 90
_cell_angle_gamma                120
_cell_volume                     4513.34
loop_
_atom_site_label
_atom_site_type_symbol
_atom_site_fract_x
_atom_site_fract_y
_atom_site_fract_z
C1 C 0.3177(2) -0.2616(2) 0.04699(16)
H1 H 0.3072 -0.2134 0.0471
C2 C 0.8842(2) 0.1110(2) -0.05604(18)
H2 H 0.9411 0.1285 -0.0369
C3 C 0.8340(2) 0.1325(3) 0.07218(18)
H3 H 0.8535 0.0959 0.0977
H4 H 0.7797 0.1242 0.0952
H5 H 0.8799 0.1946 0.0759
C4 C 0.9335(2) 0.0933(3) -0.18602(19)
H6 H 0.9069 0.0752 -0.2353
H7 H 0.9541 0.0535 -0.1693
H8 H 0.9834 0.1536 -0.1884
C5 C 0.4838(2) -0.1509(2) 0.04507(16)
C6 C 0.7210(2) 0.0618(2) -0.11143(16)
C7 C 0.4054(2) -0.2455(2) 0.04688(16)
C8 C 0.8168(2) 0.1060(2) -0.00916(17)
C9 C 0.8650(2) 0.0896(2) -0.13142(18)
O1 O 0.46719(15) -0.08695(15) 0.04461(12)
O2 O 0.56187(15) -0.13901(16) 0.04370(13)
N1 N 0.73436(18) 0.07843(17) -0.03608(14)
N2 N 0.63946(19) 0.0396(2) -0.13937(15)
H9 H 0.5983 0.0365 -0.1097
H10 H 0.6286 0.0286 -0.1869
N3 N 0.78367(18) 0.06520(18) -0.16016(14)
Ag1 Ag 0.618014(16) 0.041625(16) 0.044561(12)
C1B C 0.4207(3) -0.3177(2) 0.04699(16)
C1A C 0.2616(2) -0.4207(3) 0.04699(16)
H1B H 0.4794 -0.3072 0.0471
H1A H 0.2134 -0.4794 0.0471
C2D C 0.5557(2) 0.1065(3) 0.27729(18)
C2A C -0.1110(2) -0.2268(3) -0.05604(18)
H2D H 0.5382 0.1459 0.2964
H2A H -0.1285 -0.1874 -0.0369
C3D C 0.5342(3) 0.0348(4) 0.40551(18)
C3A C -0.1325(3) -0.2985(4) 0.07218(18)
H3D H 0.5708 0.0909 0.4310
H3A H -0.0959 -0.2424 0.0977
H4D H 0.5425 -0.0112 0.4285
H4A H -0.1242 -0.3445 0.0952
H5D H 0.4721 0.0186 0.4092
H5A H -0.1946 -0.3147 0.0759
C4D C 0.5734(3) 0.1735(4) 0.14731(19)
C4A C -0.0933(3) -0.1598(4) -0.18602(19)
H6D H 0.5915 0.1650 0.0980
H6A H -0.0752 -0.1683 -0.2353
H7D H 0.6132 0.2339 0.1640
H7A H -0.0535 -0.0994 -0.1693
H8D H 0.5131 0.1631 0.1449
H8A H -0.1536 -0.1702 -0.1884
C5A C 0.1509(2) -0.3653(3) 0.04507(16)
C5B C 0.3653(3) -0.4838(2) 0.04507(16)
C6D C 0.6049(2) -0.0075(3) 0.22190(16)
C6A C -0.0618(2) -0.3408(3) -0.11143(16)
C7B C 0.3491(3) -0.4054(2) 0.04688(16)
C7A C 0.2455(2) -0.3491(3) 0.04688(16)
C8D C 0.5607(2) 0.0441(3) 0.32417(17)
C8A C -0.1060(2) -0.2892(3) -0.00916(17)
C9D C 0.5771(2) 0.1087(3) 0.20191(18)
C9A C -0.0896(2) -0.2246(3) -0.13142(18)
O1A O 0.08695(15) -0.44586(21) 0.04461(12)
O1B O 0.44586(21) -0.46719(15) 0.04461(12)
O1I O 0.53281(15) 0.08695(15) -0.04461(12)
O1J O -0.08695(15) -0.55414(21) -0.04461(12)
O1K O 0.55414(21) -0.53281(15) -0.04461(12)
O2A O 0.13901(16) -0.29912(22) 0.04370(13)
O2B O 0.29912(22) -0.56187(15) 0.04370(13)
N1D N 0.58824(17) -0.01074(25) 0.29725(14)
N1A N -0.07843(17) -0.34407(25) -0.03608(14)
N1B N 0.34407(25) -0.73436(18) -0.03608(14)
N2D N 0.6271(2) -0.06681(28) 0.19396(15)
N2A N -0.0396(2) -0.40014(28) -0.13937(15)
H9D H 0.6302 -0.1049 0.2236
H9A H -0.0365 -0.4382 -0.1097
H10D H 0.6381 -0.0667 0.1464
H10A H -0.0286 -0.4000 -0.1869
N3D N 0.60147(18) 0.05180(25) 0.17317(14)
N3A N -0.06520(18) -0.28153(25) -0.16016(14)
N3E N -0.05180(25) -0.45034(18) 0.17317(14)
N3C N 0.45034(18) -0.60147(18) 0.17317(14)
Ag1A Ag -0.041625(16) -0.423611(23) 0.044561(12)
Ag1B Ag 0.423611(23) -0.618014(16) 0.044561(12)
Ag1I Ag 0.381986(16) -0.041625(16) -0.044561(12)
Ag1H Ag 0.756944(23) 0.048653(16) -0.288772(12)
Ag1J Ag 0.041625(16) -0.576389(23) -0.044561(12)
Ag1K Ag 0.576389(23) -0.381986(16) -0.044561(12)
Ag1D Ag 0.625042(16) -0.090278(23) 0.377894(12)
Ag1F Ag -0.048653(16) -0.291708(16) -0.288772(12)
loop_
_geom_bond_atom_site_label_1
_geom_bond_atom_site_label_2
_geom_bond_site_symmetry_1
_geom_bond_site_symmetry_2
C1 H1 1_555 1_555
C2 H2 1_555 1_555
C3 H3 1_555 1_555
H4 C3 1_555 1_555
H5 C3 1_555 1_555
C4 H6 1_555 1_555
H7 C4 1_555 1_555
H8 C4 1_555 1_555
C5 C7 1_555 1_555
C6 N1 1_555 1_555
C7 C1 1_555 1_555
C8 C2 1_555 1_555
C9 C2 1_555 1_555
O1 C5 1_555 1_555
O2 C5 1_555 1_555
N1 C8 1_555 1_555
N2 C6 1_555 1_555
H9 N2 1_555 1_555
H10 N2 1_555 1_555
N3 C6 1_555 1_555
Ag1 O1 1_555 1_555
C1B C7 1_555 1_555
C1A H1A 1_555 1_555
H1B C1B 1_555 1_555
C2D H2D 1_555 1_555
C2A H2A 1_555 1_555
C3D H3D 1_555 1_555
C3A H3A 1_555 1_555
H4D C3D 1_555 1_555
H4A C3A 1_555 1_555
H5D C3D 1_555 1_555
H5A C3A 1_555 1_555
C4D H6D 1_555 1_555
C4A H6A 1_555 1_555
H7D C4D 1_555 1_555
H7A C4A 1_555 1_555
H8D C4D 1_555 1_555
H8A C4A 1_555 1_555
C5A C7A 1_555 1_555
C5B C7B 1_555 1_555
C6D N1D 1_555 1_555
C6A N1A 1_555 1_555
C7B C1B 1_555 1_555
C7A C1 1_555 1_555
C8D C2D 1_555 1_555
C8A C2A 1_555 1_555
C9D C2D 1_555 1_555
C9A C2A 1_555 1_555
O1A C5A 1_555 1_555
O1B C5B 1_555 1_555
O1I Ag1 1_555 1_555
O1J Ag1A 1_555 1_555
O1K Ag1B 1_555 1_555
O2A C5A 1_555 1_555
O2B C5B 1_555 1_555
N1D C8D 1_555 1_555
N1A C8A 1_555 1_555
N1B Ag1B 1_555 1_555
N2D C6D 1_555 1_555
N2A C6A 1_555 1_555
H9D N2D 1_555 1_555
H9A N2A 1_555 1_555
H10D N2D 1_555 1_555
H10A N2A 1_555 1_555
N3D Ag1 1_555 1_555
N3A C6A 1_555 1_555
N3E Ag1A 1_555 1_555
N3C Ag1B 1_555 1_555
Ag1A O1A 1_555 1_555
Ag1B O1B 1_555 1_555
Ag1I O1 1_555 1_555
Ag1H N3 1_555 1_555
Ag1J O1A 1_555 1_555
Ag1K O1B 1_555 1_555
Ag1D N1D 1_555 1_555
Ag1F N3A 1_555 1_555
C3 C8 1_555 1_555
C4 C9 1_555 1_555
C9 N3 1_555 1_555
N1 Ag1 1_555 1_555
C1A C7B 1_555 1_555
C1A C7A 1_555 1_555
C3D C8D 1_555 1_555
C3A C8A 1_555 1_555
C4D C9D 1_555 1_555
C4A C9A 1_555 1_555
C6D N3D 1_555 1_555
C9D N3D 1_555 1_555
C9A N3A 1_555 1_555
O1I Ag1I 1_555 1_555
O1J Ag1J 1_555 1_555
O1K Ag1K 1_555 1_555
N1A Ag1A 1_555 1_555

#END
