
#######################################################################
#
#                 Cambridge Crystallographic Data Centre
#                                CCDC 
#
#######################################################################
#
# If this CIF has been generated from an entry in the Cambridge 
# Structural Database, then it will include bibliographic, chemical, 
# crystal, experimental, refinement or atomic coordinate data resulting 
# from the CCDC's data processing and validation procedures.
#
#######################################################################

data_OPAQUS
_symmetry_cell_setting           monoclinic
_symmetry_space_group_name_H-M   'P 21/n'
_symmetry_Int_Tables_number      14
_space_group_name_Hall           '-P 2yn'
loop_
_symmetry_equiv_pos_site_id
_symmetry_equiv_pos_as_xyz
1 x,y,z
2 1/2-x,1/2+y,1/2-z
3 -x,-y,-z
4 1/2+x,1/2-y,1/2+z
_cell_length_a                   10.4659(12)
_cell_length_b                   11.1951(12)
_cell_length_c                   12.8158(14)
_cell_angle_alpha                90
_cell_angle_beta                 110.2850(10)
_cell_angle_gamma                90
_cell_volume                     1408.46
loop_
_atom_site_label
_atom_site_type_symbol
_atom_site_fract_x
_atom_site_fract_y
_atom_site_fract_z
Cd1 Cd 0.5000 0.5000 0.5000
N1 N 0.5175(4) 0.8367(4) 0.6685(4)
H1 H 0.5681 0.8989 0.6899
N2 N 0.4586(4) 0.6539(4) 0.5995(4)
N3 N 0.6911(3) 0.6299(3) 0.5550(3)
O1 O 0.9381(5) 0.8775(4) 0.8475(4)
O2 O 0.7352(5) 0.9497(5) 0.7644(5)
O3 O 0.2393(4) 0.6479(4) 0.6027(4)
C1 C 0.8272(6) 0.8772(6) 0.7738(5)
C2 C 0.6915(4) 0.7191(4) 0.6253(4)
C3 C 0.8084(5) 0.7822(5) 0.6842(4)
C4 C 0.9268(5) 0.7510(5) 0.6627(5)
H2 H 1.0082 0.7897 0.7010
C5 C 0.9250(5) 0.6654(5) 0.5873(5)
H3 H 1.0028 0.6482 0.5707
C6 C 0.8048(5) 0.6044(5) 0.5358(4)
H4 H 0.8035 0.5435 0.4862
C7 C 0.5537(5) 0.7379(5) 0.6323(4)
C8 C 0.3464(5) 0.6999(5) 0.6194(5)
C9 C 0.3780(6) 0.8253(5) 0.6667(5)
C10 C 0.2821(7) 0.9173(7) 0.5874(7)
H5 H 0.1904 0.9030 0.5889
C11 C 0.2761(9) 0.8976(8) 0.4705(8)
H6 H 0.2054 0.9462 0.4210
H7 H 0.2573 0.8150 0.4512
H8 H 0.3620 0.9190 0.4641
C12 C 0.3187(11) 1.0446(8) 0.6235(9)
H9 H 0.4075 1.0624 0.6213
H10 H 0.3190 1.0551 0.6979
H11 H 0.2530 1.0975 0.5741
C13 C 0.3714(7) 0.8303(7) 0.7841(6)
H12 H 0.4293 0.7697 0.8293
H13 H 0.2793 0.8171 0.7804
H14 H 0.4014 0.9074 0.8161
Cd1A Cd 0.0000 0.0000 0.0000
Cd1A_2 Cd 1.0000 1.0000 1.0000
N1B N 0.4825(4) 0.1633(4) 0.3315(4)
H1B H 0.4319 0.1011 0.3101
N2B N 0.5414(4) 0.3461(4) 0.4005(4)
N3B N 0.3089(3) 0.3701(3) 0.4450(3)
O1B O 0.0619(5) 0.1225(4) 0.1525(4)
O1A O 0.5619(5) 0.3775(4) 0.6525(4)
O1C O 0.4381(5) 0.6225(4) 0.3475(4)
O2B O 0.2648(5) 0.0503(5) 0.2356(5)
O3B O 0.7607(4) 0.3521(4) 0.3973(4)
C1B C 0.1728(6) 0.1228(6) 0.2262(5)
C2B C 0.3085(4) 0.2809(4) 0.3747(4)
C3B C 0.1916(5) 0.2178(5) 0.3158(4)
C4B C 0.0732(5) 0.2490(5) 0.3373(5)
H2B H -0.0082 0.2103 0.2990
C5B C 0.0750(5) 0.3346(5) 0.4127(5)
H3B H -0.0028 0.3518 0.4293
C6B C 0.1952(5) 0.3956(5) 0.4642(4)
H4B H 0.1965 0.4565 0.5138
C7B C 0.4463(5) 0.2621(5) 0.3677(4)
C8B C 0.6536(5) 0.3001(5) 0.3806(5)
C9B C 0.6220(6) 0.1747(5) 0.3333(5)
C10B C 0.7179(7) 0.0827(7) 0.4126(7)
H5B H 0.8096 0.0970 0.4111
C11B C 0.7239(9) 0.1024(8) 0.5295(8)
H6B H 0.7946 0.0538 0.5790
H7B H 0.7427 0.1850 0.5488
H8B H 0.6380 0.0810 0.5359
C12B C 0.6813(11) -0.0446(8) 0.3765(9)
H9B H 0.5925 -0.0624 0.3787
H10B H 0.6810 -0.0551 0.3021
H11B H 0.7470 -0.0975 0.4259
C13B C 0.6286(7) 0.1697(7) 0.2159(6)
H12B H 0.5707 0.2303 0.1707
H13B H 0.7207 0.1829 0.2196
H14B H 0.5986 0.0926 0.1839
loop_
_geom_bond_atom_site_label_1
_geom_bond_atom_site_label_2
_geom_bond_site_symmetry_1
_geom_bond_site_symmetry_2
Cd1 N2 1_555 1_555
N1 H1 1_555 1_555
N2 C7 1_555 1_555
N3 Cd1 1_555 1_555
O1 C1 1_555 1_555
O2 C1 1_555 1_555
O3 C8 1_555 1_555
C1 C3 1_555 1_555
C2 N3 1_555 1_555
C3 C2 1_555 1_555
C4 C3 1_555 1_555
H2 C4 1_555 1_555
C5 C4 1_555 1_555
H3 C5 1_555 1_555
C6 N3 1_555 1_555
H4 C6 1_555 1_555
C7 N1 1_555 1_555
C8 N2 1_555 1_555
C9 N1 1_555 1_555
C10 C9 1_555 1_555
H5 C10 1_555 1_555
C11 C10 1_555 1_555
H6 C11 1_555 1_555
H7 C11 1_555 1_555
H8 C11 1_555 1_555
C12 C10 1_555 1_555
H9 C12 1_555 1_555
H10 C12 1_555 1_555
H11 C12 1_555 1_555
C13 C9 1_555 1_555
H12 C13 1_555 1_555
H13 C13 1_555 1_555
H14 C13 1_555 1_555
Cd1A O1B 1_555 1_555
Cd1A_2 O1 1_555 1_555
N1B H1B 1_555 1_555
N2B Cd1 1_555 1_555
N3B Cd1 1_555 1_555
O1B C1B 1_555 1_555
O1A Cd1 1_555 1_555
O1C Cd1 1_555 1_555
O2B C1B 1_555 1_555
O3B C8B 1_555 1_555
C1B C3B 1_555 1_555
C2B N3B 1_555 1_555
C3B C2B 1_555 1_555
C4B C3B 1_555 1_555
H2B C4B 1_555 1_555
C5B C4B 1_555 1_555
H3B C5B 1_555 1_555
C6B N3B 1_555 1_555
H4B C6B 1_555 1_555
C7B N1B 1_555 1_555
C8B N2B 1_555 1_555
C9B N1B 1_555 1_555
C10B C9B 1_555 1_555
H5B C10B 1_555 1_555
C11B C10B 1_555 1_555
H6B C11B 1_555 1_555
H7B C11B 1_555 1_555
H8B C11B 1_555 1_555
C12B C10B 1_555 1_555
H9B C12B 1_555 1_555
H10B C12B 1_555 1_555
H11B C12B 1_555 1_555
C13B C9B 1_555 1_555
H12B C13B 1_555 1_555
H13B C13B 1_555 1_555
H14B C13B 1_555 1_555
C2 C7 1_555 1_555
C5 C6 1_555 1_555
C8 C9 1_555 1_555
N2B C7B 1_555 1_555
C2B C7B 1_555 1_555
C5B C6B 1_555 1_555
C8B C9B 1_555 1_555

#END
