
#######################################################################
#
#                 Cambridge Crystallographic Data Centre
#                                CCDC 
#
#######################################################################
#
# If this CIF has been generated from an entry in the Cambridge 
# Structural Database, then it will include bibliographic, chemical, 
# crystal, experimental, refinement or atomic coordinate data resulting 
# from the CCDC's data processing and validation procedures.
#
#######################################################################

data_OPARIH
_symmetry_cell_setting           triclinic
_symmetry_space_group_name_H-M   'P -1'
_symmetry_Int_Tables_number      2
_space_group_name_Hall           '-P 1'
loop_
_symmetry_equiv_pos_site_id
_symmetry_equiv_pos_as_xyz
1 x,y,z
2 -x,-y,-z
_cell_length_a                   11.8105(6)
_cell_length_b                   15.5792(8)
_cell_length_c                   15.8752(8)
_cell_angle_alpha                92.0890(10)
_cell_angle_beta                 101.2730(10)
_cell_angle_gamma                101.8830(10)
_cell_volume                     2794.29
loop_
_atom_site_label
_atom_site_type_symbol
_atom_site_fract_x
_atom_site_fract_y
_atom_site_fract_z
Co1 Co 0.77245(2) 0.262225(17) 0.257935(17)
Co2 Co 1.26063(2) 0.261145(17) 0.240986(17)
Co3 Co 1.03913(2) 0.346055(16) 0.197678(16)
Co4 Co 0.98175(2) 0.166310(16) 0.294876(16)
O1 O 0.89731(11) 0.24274(8) 0.20093(8)
H1 H 0.8730 0.2046 0.1581
O2 O 1.12408(11) 0.26943(8) 0.29028(8)
H2 H 1.1363 0.3001 0.3378
O3 O 0.67346(13) 0.14183(9) 0.23426(10)
O4 O 0.82008(13) 0.07521(9) 0.28745(9)
O5 O 0.33136(17) -0.03356(11) 0.02464(12)
H3 H 0.2726 -0.0432 -0.0145
O6 O 0.3182(2) -0.17641(13) 0.00132(18)
O7 O 0.5617(2) -0.31927(13) 0.21220(18)
O8 O 0.68053(19) -0.24314(13) 0.32175(14)
O9 O 0.81932(14) 0.31211(10) 0.37891(9)
O10 O 0.95650(14) 0.23170(9) 0.40392(9)
O11 O 0.87988(14) 0.57196(10) 0.60096(9)
O12 O 1.01975(13) 0.57743(9) 0.71854(9)
O13 O 1.1619(2) 0.31393(14) 0.79504(12)
O14 O 1.08674(19) 0.19387(12) 0.71410(13)
O15 O 1.34733(13) 0.38390(9) 0.26250(10)
O16 O 1.19435(12) 0.44789(9) 0.21991(9)
O17 O 1.69664(16) 0.54034(12) 0.47528(12)
H4 H 1.7585 0.5465 0.5112
O18 O 1.68861(17) 0.66744(12) 0.54009(13)
O19 O 1.40503(19) 0.82853(11) 0.38838(14)
O20 O 1.22776(18) 0.74966(12) 0.35624(15)
O21 O 1.22278(14) 0.19496(10) 0.12628(10)
O22 O 1.09587(15) 0.28237(10) 0.10149(10)
O23 O 1.14680(15) -0.07189(10) -0.09842(10)
O24 O 0.98400(13) -0.08726(9) -0.19980(9)
O25 O 0.74110(19) 0.12681(15) -0.22307(14)
O26 O 0.8159(3) 0.25747(16) -0.16341(15)
N1 N 0.6127(2) -0.24979(14) 0.25202(17)
N2 N 1.10348(19) 0.27342(13) 0.72801(13)
N3 N 1.33459(19) 0.75774(12) 0.37040(13)
N4 N 0.8182(2) 0.18038(16) -0.17448(14)
N5 N 0.05880(15) 0.58842(11) -0.10051(10)
N6 N 0.65854(16) 0.33403(11) 0.20095(11)
N7 N 1.07395(15) 0.09314(11) 0.38416(11)
N8 N 1.62608(16) -0.19219(12) 0.69738(12)
C1 C 0.63787(18) -0.01257(13) 0.21472(14)
C2 C 0.53867(19) -0.01701(14) 0.14942(14)
H5 H 0.5188 0.0345 0.1297
C3 C 0.4694(2) -0.09802(15) 0.11369(16)
C4 C 0.4950(2) -0.17421(15) 0.14698(18)
H6 H 0.4485 -0.2289 0.1243
C5 C 0.5901(2) -0.16798(15) 0.21411(17)
C6 C 0.6643(2) -0.08872(14) 0.24813(15)
H7 H 0.7300 -0.0865 0.2921
C7 C 0.71801(18) 0.07510(13) 0.24888(13)
C8 C 0.3651(2) -0.10690(16) 0.04062(18)
C9 C 0.94711(18) 0.32911(13) 0.51698(13)
C10 C 0.92480(19) 0.40987(13) 0.54012(13)
H8 H 0.8779 0.4370 0.5003
C11 C 0.97241(18) 0.45047(13) 0.62294(13)
C12 C 1.03462(19) 0.40612(14) 0.68357(13)
H9 H 1.0661 0.4319 0.7393
C13 C 1.0493(2) 0.32385(14) 0.66070(14)
C14 C 1.01009(19) 0.28538(13) 0.57728(14)
H10 H 1.0257 0.2314 0.5622
C15 C 0.90460(19) 0.28758(13) 0.42599(13)
C16 C 0.95470(18) 0.54011(12) 0.64844(12)
C17 C 1.36596(18) 0.53066(13) 0.31345(13)
C18 C 1.47470(19) 0.53100(14) 0.36717(14)
H11 H 1.5069 0.4814 0.3664
C19 C 1.53543(19) 0.60470(14) 0.42190(14)
C20 C 1.4892(2) 0.67946(14) 0.42125(15)
H12 H 1.5297 0.7297 0.4566
C21 C 1.3824(2) 0.67823(14) 0.36759(15)
C22 C 1.31831(19) 0.60527(14) 0.31428(14)
H13 H 1.2452 0.6059 0.2798
C23 C 1.29566(18) 0.44787(13) 0.25988(13)
C24 C 1.6487(2) 0.60788(15) 0.48436(15)
C25 C 1.07530(18) 0.16782(13) -0.00374(12)
C26 C 1.10303(18) 0.08986(13) -0.03047(13)
H14 H 1.1664 0.0705 0.0016
C27 C 1.03530(18) 0.04082(13) -0.10549(13)
C28 C 0.94162(19) 0.07033(14) -0.15277(13)
H15 H 0.8947 0.0376 -0.2021
C29 C 0.9187(2) 0.14884(15) -0.12578(14)
C30 C 0.9833(2) 0.19818(14) -0.05223(13)
H16 H 0.9656 0.2508 -0.0354
C31 C 1.13579(19) 0.21853(13) 0.08049(13)
C32 C 1.05882(18) -0.04610(13) -0.13583(12)
C33 C 0.15944(19) 0.63202(14) -0.04895(13)
H17 H 0.1753 0.6932 -0.0450
C34 C 0.2412(2) 0.59112(14) -0.00123(14)
H18 H 0.3093 0.6246 0.0342
C35 C 0.22108(19) 0.49973(14) -0.00660(14)
C36 C 0.11407(19) 0.45461(14) -0.05757(14)
H19 H 0.0948 0.3934 -0.0615
C37 C 0.03665(19) 0.50031(13) -0.10222(13)
H20 H -0.0346 0.4685 -0.1352
C38 C 0.3061(2) 0.45014(16) 0.03577(16)
H21 H 0.2804 0.3893 0.0319
C39 C 0.4148(2) 0.48246(15) 0.07865(15)
H22 H 0.4407 0.5433 0.0840
C40 C 0.49882(19) 0.43075(15) 0.11890(14)
C41 C 0.6005(2) 0.47071(15) 0.17808(16)
H23 H 0.6176 0.5313 0.1910
C42 C 0.6765(2) 0.42132(15) 0.21785(16)
H24 H 0.7432 0.4497 0.2582
C43 C 0.5608(2) 0.29486(15) 0.14286(15)
H25 H 0.5465 0.2343 0.1302
C44 C 0.4813(2) 0.34031(16) 0.10139(16)
H26 H 0.4153 0.3104 0.0613
C45 C 1.1651(2) 0.13189(14) 0.44702(14)
H27 H 1.1802 0.1927 0.4577
C46 C 1.2381(2) 0.08572(16) 0.49692(15)
H28 H 1.3004 0.1153 0.5402
C47 C 1.2175(2) -0.00536(15) 0.48189(15)
C48 C 1.1212(2) -0.04486(15) 0.41845(16)
H29 H 1.1027 -0.1057 0.4074
C49 C 1.0527(2) 0.00511(14) 0.37172(15)
H30 H 0.9884 -0.0233 0.3294
C50 C 1.2924(2) -0.06097(16) 0.52709(16)
H31 H 1.2602 -0.1210 0.5242
C51 C 1.4006(2) -0.03316(16) 0.57101(15)
H32 H 1.4321 0.0271 0.5762
C52 C 1.4766(2) -0.09038(15) 0.61314(15)
C53 C 1.5833(2) -0.05188(16) 0.66588(17)
H33 H 1.6077 0.0091 0.6733
C54 C 1.6537(2) -0.10391(15) 0.70751(17)
H34 H 1.7241 -0.0766 0.7446
C55 C 1.5230(2) -0.22996(15) 0.64516(14)
H35 H 1.5020 -0.2910 0.6369
C56 C 1.4466(2) -0.18165(16) 0.60303(15)
H36 H 1.3751 -0.2102 0.5679
Co2A Co 1.73937(2) -0.261145(17) 0.759014(17)
Co3A Co 0.96087(2) 0.653945(16) 0.802322(16)
Co3A_2 Co -0.03913(2) 0.653945(16) -0.197678(16)
Co4A Co 1.01825(2) -0.166310(16) -0.294876(16)
O12A O 0.98025(13) 0.42257(9) 0.28146(9)
O24A O 1.01600(13) 0.08726(9) 0.19980(9)
N5A N 0.94120(15) 0.41158(11) 0.10051(10)
N8A N 1.37392(16) 0.19219(12) 0.30262(12)
loop_
_geom_bond_atom_site_label_1
_geom_bond_atom_site_label_2
_geom_bond_site_symmetry_1
_geom_bond_site_symmetry_2
Co1 O1 1_555 1_555
Co2 O2 1_555 1_555
Co3 O1 1_555 1_555
Co4 O1 1_555 1_555
O1 H1 1_555 1_555
O2 Co3 1_555 1_555
H2 O2 1_555 1_555
O3 Co1 1_555 1_555
O4 Co4 1_555 1_555
O5 H3 1_555 1_555
O6 C8 1_555 1_555
O7 N1 1_555 1_555
O8 N1 1_555 1_555
O9 Co1 1_555 1_555
O10 Co4 1_555 1_555
O11 C16 1_555 1_555
O12 C16 1_555 1_555
O13 N2 1_555 1_555
O14 N2 1_555 1_555
O15 Co2 1_555 1_555
O16 Co3 1_555 1_555
O17 H4 1_555 1_555
O18 C24 1_555 1_555
O19 N3 1_555 1_555
O20 N3 1_555 1_555
O21 Co2 1_555 1_555
O22 Co3 1_555 1_555
O23 C32 1_555 1_555
O24 C32 1_555 1_555
O25 N4 1_555 1_555
O26 N4 1_555 1_555
N1 C5 1_555 1_555
N2 C13 1_555 1_555
N3 C21 1_555 1_555
N4 C29 1_555 1_555
N5 C33 1_555 1_555
N6 Co1 1_555 1_555
N7 Co4 1_555 1_555
N8 C54 1_555 1_555
C1 C2 1_555 1_555
C2 H5 1_555 1_555
C3 C2 1_555 1_555
C4 C3 1_555 1_555
H6 C4 1_555 1_555
C5 C4 1_555 1_555
C6 C1 1_555 1_555
H7 C6 1_555 1_555
C7 O3 1_555 1_555
C8 O5 1_555 1_555
C9 C10 1_555 1_555
C10 H8 1_555 1_555
C11 C10 1_555 1_555
C12 C11 1_555 1_555
H9 C12 1_555 1_555
C13 C12 1_555 1_555
C14 C9 1_555 1_555
H10 C14 1_555 1_555
C15 O9 1_555 1_555
C16 C11 1_555 1_555
C17 C18 1_555 1_555
C18 H11 1_555 1_555
C19 C18 1_555 1_555
C20 C19 1_555 1_555
H12 C20 1_555 1_555
C21 C20 1_555 1_555
C22 C17 1_555 1_555
H13 C22 1_555 1_555
C23 O15 1_555 1_555
C24 O17 1_555 1_555
C25 C26 1_555 1_555
C26 H14 1_555 1_555
C27 C26 1_555 1_555
C28 C27 1_555 1_555
H15 C28 1_555 1_555
C29 C28 1_555 1_555
C30 C25 1_555 1_555
H16 C30 1_555 1_555
C31 O21 1_555 1_555
C32 C27 1_555 1_555
C33 H17 1_555 1_555
C34 C33 1_555 1_555
H18 C34 1_555 1_555
C35 C34 1_555 1_555
C36 C35 1_555 1_555
H19 C36 1_555 1_555
C37 N5 1_555 1_555
H20 C37 1_555 1_555
C38 C35 1_555 1_555
H21 C38 1_555 1_555
C39 C38 1_555 1_555
H22 C39 1_555 1_555
C40 C39 1_555 1_555
C41 C40 1_555 1_555
H23 C41 1_555 1_555
C42 N6 1_555 1_555
H24 C42 1_555 1_555
C43 N6 1_555 1_555
H25 C43 1_555 1_555
C44 C40 1_555 1_555
H26 C44 1_555 1_555
C45 N7 1_555 1_555
H27 C45 1_555 1_555
C46 C45 1_555 1_555
H28 C46 1_555 1_555
C47 C46 1_555 1_555
C48 C47 1_555 1_555
H29 C48 1_555 1_555
C49 N7 1_555 1_555
H30 C49 1_555 1_555
C50 C47 1_555 1_555
H31 C50 1_555 1_555
C51 C50 1_555 1_555
H32 C51 1_555 1_555
C52 C51 1_555 1_555
C53 C52 1_555 1_555
H33 C53 1_555 1_555
C54 C53 1_555 1_555
H34 C54 1_555 1_555
C55 N8 1_555 1_555
H35 C55 1_555 1_555
C56 C52 1_555 1_555
H36 C56 1_555 1_555
Co2A N8 1_555 1_555
Co3A O12 1_555 1_555
Co3A_2 N5 1_555 1_555
Co4A O24 1_555 1_555
O12A Co3 1_555 1_555
O24A Co4 1_555 1_555
N5A Co3 1_555 1_555
N8A Co2 1_555 1_555
Co4 O2 1_555 1_555
O4 C7 1_555 1_555
O10 C15 1_555 1_555
O16 C23 1_555 1_555
O22 C31 1_555 1_555
C1 C7 1_555 1_555
C3 C8 1_555 1_555
C5 C6 1_555 1_555
C9 C15 1_555 1_555
C13 C14 1_555 1_555
C17 C23 1_555 1_555
C19 C24 1_555 1_555
C21 C22 1_555 1_555
C25 C31 1_555 1_555
C29 C30 1_555 1_555
C36 C37 1_555 1_555
C41 C42 1_555 1_555
C43 C44 1_555 1_555
C48 C49 1_555 1_555
C55 C56 1_555 1_555

#END
