
#######################################################################
#
#                 Cambridge Crystallographic Data Centre
#                                CCDC 
#
#######################################################################
#
# If this CIF has been generated from an entry in the Cambridge 
# Structural Database, then it will include bibliographic, chemical, 
# crystal, experimental, refinement or atomic coordinate data resulting 
# from the CCDC's data processing and validation procedures.
#
#######################################################################

data_OPEGUM
_symmetry_cell_setting           tetragonal
_symmetry_space_group_name_H-M   'I 41/a m d'
_symmetry_Int_Tables_number      141
_space_group_name_Hall           '-I 4bd 2'
loop_
_symmetry_equiv_pos_site_id
_symmetry_equiv_pos_as_xyz
1 x,y,z
2 1/2-x,-y,1/2+z
3 1/4-y,3/4+x,1/4+z
4 1/4+y,1/4-x,3/4+z
5 1/2-x,y,1/2-z
6 x,-y,-z
7 1/4+y,3/4+x,1/4-z
8 1/4-y,1/4-x,3/4-z
9 1/2+x,1/2+y,1/2+z
10 -x,1/2-y,z
11 3/4-y,1/4+x,3/4+z
12 3/4+y,3/4-x,1/4+z
13 -x,1/2+y,-z
14 1/2+x,1/2-y,1/2-z
15 3/4+y,1/4+x,3/4-z
16 3/4-y,3/4-x,1/4-z
17 -x,-y,-z
18 1/2+x,y,1/2-z
19 3/4+y,1/4-x,3/4-z
20 3/4-y,3/4+x,1/4-z
21 1/2+x,-y,1/2+z
22 -x,y,z
23 3/4-y,1/4-x,3/4+z
24 3/4+y,3/4+x,1/4+z
25 1/2-x,1/2-y,1/2-z
26 x,1/2+y,-z
27 1/4+y,3/4-x,1/4-z
28 1/4-y,1/4+x,3/4-z
29 x,1/2-y,z
30 1/2-x,1/2+y,1/2+z
31 1/4-y,3/4-x,1/4+z
32 1/4+y,1/4+x,3/4+z
_cell_length_a                   21.750(3)
_cell_length_b                   21.750(3)
_cell_length_c                   12.335(3)
_cell_angle_alpha                90
_cell_angle_beta                 90
_cell_angle_gamma                90
_cell_volume                     5835.23
loop_
_atom_site_label
_atom_site_type_symbol
_atom_site_fract_x
_atom_site_fract_y
_atom_site_fract_z
In1 In 0.36416(4) 0.38584(4) 0.1250
O1 O 0.3261(4) 0.3971(4) 0.2920(7)
O2 O 0.2391(4) 0.3935(4) 0.3893(7)
O3 O 0.3324(4) 0.3010(4) 0.0289(8)
O4 O 0.3925(4) 0.3019(5) 0.2171(8)
C1 C 0.2687(5) 0.3955(5) 0.3004(11)
C2 C 0.3462(8) 0.2500 0.0684(15)
C3 C 0.3801(9) 0.2500 0.1764(16)
In1D In 0.13584(4) 0.38584(4) 0.3750
In1S In 0.36416(4) 0.11416(4) 0.1250
O1D O 0.1739(4) 0.3971(4) 0.2080(7)
O1O O 0.3529(4) 0.4239(4) -0.0420(7)
O2D O 0.2609(4) 0.3935(4) 0.1107(7)
O2J O 0.3565(4) 0.4891(4) 0.1393(7)
O3BA O 0.3324(4) 0.1990(4) 0.0289(8)
O3O O 0.4490(4) 0.4176(4) 0.2211(8)
O4BA O 0.3925(4) 0.1981(5) 0.2171(8)
O4O O 0.4481(5) 0.3575(4) 0.0329(8)
C1D C 0.2313(5) 0.3955(5) 0.1996(11)
loop_
_geom_bond_atom_site_label_1
_geom_bond_atom_site_label_2
_geom_bond_site_symmetry_1
_geom_bond_site_symmetry_2
In1 O1 1_555 1_555
O1 C1 1_555 1_555
O2 C1 1_555 1_555
O3 In1 1_555 1_555
O4 In1 1_555 1_555
C1 C1D 1_555 1_555
C2 O3 1_555 1_555
C3 O4 1_555 1_555
In1D O2 1_555 1_555
In1S O3BA 1_555 1_555
O1D In1D 1_555 1_555
O1O In1 1_555 1_555
O2D In1 1_555 1_555
O2J In1 1_555 1_555
O3BA C2 1_555 1_555
O3O In1 1_555 1_555
O4BA C3 1_555 1_555
O4O In1 1_555 1_555
C1D O1D 1_555 1_555
C2 C3 1_555 1_555
In1S O4BA 1_555 1_555
O2D C1D 1_555 1_555

#END
