
#######################################################################
#
#                 Cambridge Crystallographic Data Centre
#                                CCDC 
#
#######################################################################
#
# If this CIF has been generated from an entry in the Cambridge 
# Structural Database, then it will include bibliographic, chemical, 
# crystal, experimental, refinement or atomic coordinate data resulting 
# from the CCDC's data processing and validation procedures.
#
#######################################################################

data_OPEJOJ
_symmetry_cell_setting           monoclinic
_symmetry_space_group_name_H-M   'P 21/c'
_symmetry_Int_Tables_number      14
_space_group_name_Hall           '-P 2ybc'
loop_
_symmetry_equiv_pos_site_id
_symmetry_equiv_pos_as_xyz
1 x,y,z
2 -x,1/2+y,1/2-z
3 -x,-y,-z
4 x,1/2-y,1/2+z
_cell_length_a                   8.6119(3)
_cell_length_b                   8.5655(2)
_cell_length_c                   23.1798(8)
_cell_angle_alpha                90
_cell_angle_beta                 101.945(3)
_cell_angle_gamma                90
_cell_volume                     1672.84
loop_
_atom_site_label
_atom_site_type_symbol
_atom_site_fract_x
_atom_site_fract_y
_atom_site_fract_z
C1 C 0.7765(12) 0.1139(11) 0.6365(4)
H1 H 0.8823 0.1380 0.6520
C2 C 0.7401(14) -0.0213(11) 0.6052(5)
H2 H 0.8213 -0.0887 0.6006
C3 C 0.5889(15) -0.0585(12) 0.5811(5)
H3 H 0.5649 -0.1491 0.5589
C4 C 0.4700(14) 0.0415(11) 0.5901(5)
H4 H 0.3638 0.0187 0.5748
C5 C 0.5121(11) 0.1750(11) 0.6221(4)
C6 C 0.3904(11) 0.2894(11) 0.6338(4)
C7 C 1.2362(11) 0.6778(12) 0.5649(4)
H5 H 1.3440 0.6744 0.5816
C8 C 1.1880(13) 0.7476(13) 0.5111(4)
H6 H 1.2621 0.7909 0.4918
C9 C 1.0290(13) 0.7531(12) 0.4860(4)
H7 H 0.9945 0.7992 0.4493
C10 C 0.9211(11) 0.6899(12) 0.5157(4)
H8 H 0.8128 0.6945 0.4999
C11 C 0.9767(10) 0.6202(10) 0.5692(4)
C12 C 0.8678(11) 0.5430(10) 0.6039(4)
N1 N 0.6631(9) 0.2117(8) 0.6452(3)
N2 N 1.1324(9) 0.6135(9) 0.5946(3)
Br1 Br 1.00089(12) 0.27335(12) 0.77375(5)
Br2 Br 0.53537(13) 0.26796(12) 0.78273(5)
O1 O 0.4387(7) 0.4274(7) 0.6481(3)
O2 O 0.2513(9) 0.2484(9) 0.6304(4)
O3 O 0.9327(8) 0.4501(7) 0.6446(3)
O4 O 0.7254(8) 0.5720(9) 0.5922(4)
Pb1 Pb 0.71046(4) 0.45925(4) 0.703820(15)
Pb2 Pb 1.20661(4) 0.49731(4) 0.695110(15)
Br1A Br 0.99911(12) 0.77335(12) 0.72625(5)
Br2A Br 0.46463(13) 0.76796(12) 0.71727(5)
Br2A_2 Br 1.46463(13) 0.76796(12) 0.71727(5)
O1_2 O 1.4387(7) 0.4274(7) 0.6481(3)
O2_2 O 1.2513(9) 0.2484(9) 0.6304(4)
Pb1A Pb 0.28954(4) -0.04075(4) 0.796180(15)
Pb2A Pb 0.79339(4) -0.00269(4) 0.804890(15)
Pb2_2 Pb 0.20661(4) 0.49731(4) 0.695110(15)
loop_
_geom_bond_atom_site_label_1
_geom_bond_atom_site_label_2
_geom_bond_site_symmetry_1
_geom_bond_site_symmetry_2
C1 H1 1_555 1_555
C2 C1 1_555 1_555
H2 C2 1_555 1_555
C3 C2 1_555 1_555
H3 C3 1_555 1_555
C4 C3 1_555 1_555
H4 C4 1_555 1_555
C5 C4 1_555 1_555
C6 C5 1_555 1_555
C7 H5 1_555 1_555
C8 C7 1_555 1_555
H6 C8 1_555 1_555
C9 C8 1_555 1_555
H7 C9 1_555 1_555
C10 C9 1_555 1_555
H8 C10 1_555 1_555
C11 C10 1_555 1_555
C12 C11 1_555 1_555
N1 C1 1_555 1_555
N2 C7 1_555 1_555
Br1 Pb1 1_555 1_555
Br2 Pb1 1_555 1_555
O1 C6 1_555 1_555
O2 C6 1_555 1_555
O3 C12 1_555 1_555
O4 C12 1_555 1_555
Pb1 N1 1_555 1_555
Pb2 N2 1_555 1_555
Br1A Pb2 1_555 1_555
Br2A Pb1 1_555 1_555
Br2A_2 Pb2 1_555 1_555
O1_2 Pb2 1_555 1_555
O2_2 Pb2 1_555 1_555
Pb1A Br2 1_555 1_555
Pb2A Br1 1_555 1_555
Pb2_2 O1 1_555 1_555
C5 N1 1_555 1_555
C11 N2 1_555 1_555
Br1 Pb2 1_555 1_555
Br2 Pb2A 1_555 1_555
O1 Pb1 1_555 1_555
O2 Pb2_2 1_555 1_555
O3 Pb1 1_555 1_555
O3 Pb2 1_555 1_555
O4 Pb1 1_555 1_555
Br2A Pb2_2 1_555 1_555

#END
