
#######################################################################
#
#                 Cambridge Crystallographic Data Centre
#                                CCDC 
#
#######################################################################
#
# If this CIF has been generated from an entry in the Cambridge 
# Structural Database, then it will include bibliographic, chemical, 
# crystal, experimental, refinement or atomic coordinate data resulting 
# from the CCDC's data processing and validation procedures.
#
#######################################################################

data_OPEKEA
_symmetry_cell_setting           triclinic
_symmetry_space_group_name_H-M   'P -1'
_symmetry_Int_Tables_number      2
_space_group_name_Hall           '-P 1'
loop_
_symmetry_equiv_pos_site_id
_symmetry_equiv_pos_as_xyz
1 x,y,z
2 -x,-y,-z
_cell_length_a                   12.509(2)
_cell_length_b                   13.105(4)
_cell_length_c                   7.902(3)
_cell_angle_alpha                106.79(3)
_cell_angle_beta                 96.01(3)
_cell_angle_gamma                69.58(2)
_cell_volume                     1162.21
loop_
_atom_site_label
_atom_site_type_symbol
_atom_site_fract_x
_atom_site_fract_y
_atom_site_fract_z
V1 V 0.99987(6) -0.00440(6) -0.55158(7)
V2 V 1.00384(6) -0.00493(6) -0.94957(8)
Cl1 Cl 0.45813(5) 0.46722(6) -0.2973(1)
Cl2 Cl 0.38461(5) 0.28026(6) -0.9600(1)
O1 O 1.1509(1) 0.0051(1) -0.4695(2)
O2 O 1.0926(1) -0.1512(1) -1.1015(2)
O3 O 1.0143(1) -0.0264(1) -0.7592(2)
N1 N 0.9389(1) 0.1770(1) -0.4658(2)
N2 N 0.8552(1) -0.0510(1) -1.0437(2)
C1 C 1.1945(2) 0.0809(2) -0.4795(3)
C2 C 1.3140(2) 0.0512(2) -0.4862(3)
C3 C 1.3629(2) 0.1285(2) -0.4951(4)
C4 C 1.2967(2) 0.2379(2) -0.4994(4)
C5 C 1.1807(2) 0.2690(2) -0.4923(3)
C6 C 1.1272(2) 0.1920(2) -0.4814(3)
C7 C 1.0053(2) 0.2337(2) -0.4667(3)
C8 C 0.8216(2) 0.2456(2) -0.4260(3)
C9 C 0.7354(2) 0.2291(2) -0.5438(3)
C10 C 0.6233(2) 0.2981(2) -0.5044(3)
C11 C 0.5994(2) 0.3822(2) -0.3476(3)
C12 C 0.6835(2) 0.3988(2) -0.2280(3)
C13 C 0.7956(2) 0.3299(2) -0.2684(3)
C14 C 1.0744(2) -0.2473(2) -1.1250(2)
C15 C 1.1659(2) -0.3495(2) -1.1768(3)
C16 C 1.1519(2) -0.4518(2) -1.1981(3)
C17 C 1.0466(2) -0.4574(2) -1.1711(4)
C18 C 0.9548(2) -0.3596(2) -1.1259(4)
C19 C 0.9661(2) -0.2527(2) -1.1026(3)
C20 C 0.8640(2) -0.1558(2) -1.0722(3)
C21 C 0.7411(2) 0.0297(2) -1.0212(3)
C22 C 0.7091(2) 0.1136(2) -1.1072(3)
C23 C 0.5987(2) 0.1906(2) -1.0898(4)
C24 C 0.5230(2) 0.1830(2) -0.9837(3)
C25 C 0.5541(2) 0.1008(2) -0.8956(3)
C26 C 0.6641(2) 0.0236(2) -0.9141(3)
H1 H 1.358(2) -0.026(2) -0.492(3)
H2 H 1.449(2) 0.102(2) -0.500(3)
H3 H 1.334(2) 0.287(2) -0.510(3)
H4 H 1.132(2) 0.347(2) -0.496(3)
H5 H 0.966(2) 0.317(2) -0.460(3)
H6 H 0.754(2) 0.174(2) -0.650(3)
H7 H 0.563(2) 0.290(2) -0.589(3)
H8 H 0.668(2) 0.454(2) -0.115(3)
H9 H 0.855(2) 0.338(2) -0.186(3)
H10 H 1.241(2) -0.346(2) -1.186(3)
H11 H 1.215(2) -0.519(2) -1.235(3)
H12 H 1.038(2) -0.528(2) -1.180(3)
H13 H 0.877(2) -0.360(2) -1.102(3)
H14 H 0.7932 -0.1705 -1.0735
H15 H 0.760(2) 0.116(2) -1.184(3)
H16 H 0.574(2) 0.247(2) -1.151(3)
H17 H 0.503(2) 0.096(2) -0.824(3)
H18 H 0.6870 -0.0346 -0.8517
V1A V 1.00013(6) 0.00440(6) -0.44842(7)
V2A V 0.99616(6) 0.00493(6) -1.05043(8)
V2A_2 V 0.99616(6) 0.00493(6) -0.05043(8)
Cl1A Cl 1.54187(5) -0.46722(6) -0.7027(1)
Cl2A Cl 1.61539(5) -0.28026(6) -1.0400(1)
O1A O 0.8491(1) -0.0051(1) -0.5305(2)
O2A O 0.9074(1) 0.1512(1) -0.8985(2)
O3A O 0.9857(1) 0.0264(1) -0.2408(2)
O3A_2 O 0.9857(1) 0.0264(1) -1.2408(2)
N1A N 1.0611(1) -0.1770(1) -0.5342(2)
N2A N 1.1448(1) 0.0510(1) -0.9563(2)
C1A C 0.8055(2) -0.0809(2) -0.5205(3)
C2A C 0.6860(2) -0.0512(2) -0.5138(3)
C3A C 0.6371(2) -0.1285(2) -0.5049(4)
C4A C 0.7033(2) -0.2379(2) -0.5006(4)
C5A C 0.8193(2) -0.2690(2) -0.5077(3)
C6A C 0.8728(2) -0.1920(2) -0.5186(3)
C7A C 0.9947(2) -0.2337(2) -0.5333(3)
C8A C 1.1784(2) -0.2456(2) -0.5740(3)
C9A C 1.2646(2) -0.2291(2) -0.4562(3)
C10A C 1.3767(2) -0.2981(2) -0.4956(3)
C11A C 1.4006(2) -0.3822(2) -0.6524(3)
C12A C 1.3165(2) -0.3988(2) -0.7720(3)
C13A C 1.2044(2) -0.3299(2) -0.7316(3)
C14A C 0.9256(2) 0.2473(2) -0.8750(2)
C15A C 0.8341(2) 0.3495(2) -0.8232(3)
C16A C 0.8481(2) 0.4518(2) -0.8019(3)
C17A C 0.9534(2) 0.4574(2) -0.8289(4)
C18A C 1.0452(2) 0.3596(2) -0.8741(4)
C19A C 1.0339(2) 0.2527(2) -0.8974(3)
C20A C 1.1360(2) 0.1558(2) -0.9278(3)
C21A C 1.2589(2) -0.0297(2) -0.9788(3)
C22A C 1.2909(2) -0.1136(2) -0.8928(3)
C23A C 1.4013(2) -0.1906(2) -0.9102(4)
C24A C 1.4770(2) -0.1830(2) -1.0163(3)
C25A C 1.4459(2) -0.1008(2) -1.1044(3)
C26A C 1.3359(2) -0.0236(2) -1.0859(3)
H1A H 0.642(2) 0.026(2) -0.508(3)
H2A H 0.551(2) -0.102(2) -0.500(3)
H3A H 0.666(2) -0.287(2) -0.490(3)
H4A H 0.868(2) -0.347(2) -0.504(3)
H5A H 1.034(2) -0.317(2) -0.540(3)
H6A H 1.246(2) -0.174(2) -0.350(3)
H7A H 1.437(2) -0.290(2) -0.411(3)
H8A H 1.332(2) -0.454(2) -0.885(3)
H9A H 1.145(2) -0.338(2) -0.814(3)
H10A H 0.759(2) 0.346(2) -0.814(3)
H11A H 0.785(2) 0.519(2) -0.765(3)
H12A H 0.962(2) 0.528(2) -0.820(3)
H13A H 1.123(2) 0.360(2) -0.898(3)
H14A H 1.2068 0.1705 -0.9265
H15A H 1.240(2) -0.116(2) -0.816(3)
H16A H 1.426(2) -0.247(2) -0.849(3)
H17A H 1.497(2) -0.096(2) -1.176(3)
H18A H 1.3130 0.0346 -1.1483
loop_
_geom_bond_atom_site_label_1
_geom_bond_atom_site_label_2
_geom_bond_site_symmetry_1
_geom_bond_site_symmetry_2
V1 O1 1_555 1_555
V2 O2 1_555 1_555
Cl1 C11 1_555 1_555
Cl2 C24 1_555 1_555
O1 C1 1_555 1_555
O2 C14 1_555 1_555
O3 V1 1_555 1_555
N1 V1 1_555 1_555
N2 V2 1_555 1_555
C1 C2 1_555 1_555
C2 C3 1_555 1_555
C3 C4 1_555 1_555
C4 C5 1_555 1_555
C5 C6 1_555 1_555
C6 C1 1_555 1_555
C7 N1 1_555 1_555
C8 N1 1_555 1_555
C9 C8 1_555 1_555
C10 C9 1_555 1_555
C11 C10 1_555 1_555
C12 C11 1_555 1_555
C13 C8 1_555 1_555
C14 C15 1_555 1_555
C15 C16 1_555 1_555
C16 C17 1_555 1_555
C17 C18 1_555 1_555
C18 C19 1_555 1_555
C19 C14 1_555 1_555
C20 N2 1_555 1_555
C21 N2 1_555 1_555
C22 C21 1_555 1_555
C23 C22 1_555 1_555
C24 C23 1_555 1_555
C25 C24 1_555 1_555
C26 C21 1_555 1_555
H1 C2 1_555 1_555
H2 C3 1_555 1_555
H3 C4 1_555 1_555
H4 C5 1_555 1_555
H5 C7 1_555 1_555
H6 C9 1_555 1_555
H7 C10 1_555 1_555
H8 C12 1_555 1_555
H9 C13 1_555 1_555
H10 C15 1_555 1_555
H11 C16 1_555 1_555
H12 C17 1_555 1_555
H13 C18 1_555 1_555
H14 C20 1_555 1_555
H15 C22 1_555 1_555
H16 C23 1_555 1_555
H17 C25 1_555 1_555
H18 C26 1_555 1_555
V1A V1 1_555 1_555
V2A V2 1_555 1_555
V2A_2 O3A 1_555 1_555
Cl1A C11A 1_555 1_555
Cl2A C24A 1_555 1_555
O1A V1 1_555 1_555
O2A V2 1_555 1_555
O3A V1A 1_555 1_555
O3A_2 V2A 1_555 1_555
N1A V1 1_555 1_555
N2A V2 1_555 1_555
C1A O1A 1_555 1_555
C2A C1A 1_555 1_555
C3A C2A 1_555 1_555
C4A C3A 1_555 1_555
C5A C4A 1_555 1_555
C6A C1A 1_555 1_555
C7A N1A 1_555 1_555
C8A N1A 1_555 1_555
C9A C8A 1_555 1_555
C10A C9A 1_555 1_555
C11A C10A 1_555 1_555
C12A C11A 1_555 1_555
C13A C8A 1_555 1_555
C14A O2A 1_555 1_555
C15A C14A 1_555 1_555
C16A C15A 1_555 1_555
C17A C16A 1_555 1_555
C18A C17A 1_555 1_555
C19A C14A 1_555 1_555
C20A N2A 1_555 1_555
C21A N2A 1_555 1_555
C22A C21A 1_555 1_555
C23A C22A 1_555 1_555
C24A C23A 1_555 1_555
C25A C24A 1_555 1_555
C26A C21A 1_555 1_555
H1A C2A 1_555 1_555
H2A C3A 1_555 1_555
H3A C4A 1_555 1_555
H4A C5A 1_555 1_555
H5A C7A 1_555 1_555
H6A C9A 1_555 1_555
H7A C10A 1_555 1_555
H8A C12A 1_555 1_555
H9A C13A 1_555 1_555
H10A C15A 1_555 1_555
H11A C16A 1_555 1_555
H12A C17A 1_555 1_555
H13A C18A 1_555 1_555
H14A C20A 1_555 1_555
H15A C22A 1_555 1_555
H16A C23A 1_555 1_555
H17A C25A 1_555 1_555
H18A C26A 1_555 1_555
V2 O3 1_555 1_555
O1 V1A 1_555 1_555
O2 V2A 1_555 1_555
N1 V1A 1_555 1_555
N2 V2A 1_555 1_555
C6 C7 1_555 1_555
C12 C13 1_555 1_555
C19 C20 1_555 1_555
C25 C26 1_555 1_555
V1A O1A 1_555 1_555
V1A N1A 1_555 1_555
V2A O2A 1_555 1_555
V2A N2A 1_555 1_555
C5A C6A 1_555 1_555
C6A C7A 1_555 1_555
C12A C13A 1_555 1_555
C18A C19A 1_555 1_555
C19A C20A 1_555 1_555
C25A C26A 1_555 1_555

#END
