
#######################################################################
#
#                 Cambridge Crystallographic Data Centre
#                                CCDC 
#
#######################################################################
#
# If this CIF has been generated from an entry in the Cambridge 
# Structural Database, then it will include bibliographic, chemical, 
# crystal, experimental, refinement or atomic coordinate data resulting 
# from the CCDC's data processing and validation procedures.
#
#######################################################################

data_OPEMUS
_symmetry_cell_setting           monoclinic
_symmetry_space_group_name_H-M   'C 2/c'
_symmetry_Int_Tables_number      15
_space_group_name_Hall           '-C 2yn'
loop_
_symmetry_equiv_pos_site_id
_symmetry_equiv_pos_as_xyz
1 x,y,z
2 -x,y,1/2-z
3 1/2+x,1/2+y,z
4 1/2-x,1/2+y,1/2-z
5 -x,-y,-z
6 x,-y,1/2+z
7 1/2-x,1/2-y,-z
8 1/2+x,1/2-y,1/2+z
_cell_length_a                   15.444(2)
_cell_length_b                   16.2132(19)
_cell_length_c                   23.776(3)
_cell_angle_alpha                90
_cell_angle_beta                 102.412(8)
_cell_angle_gamma                90
_cell_volume                     5814.28
loop_
_atom_site_label
_atom_site_type_symbol
_atom_site_fract_x
_atom_site_fract_y
_atom_site_fract_z
Cu1 Cu 0.46588(3) 0.18868(3) 0.403958(16)
Cl1 Cl 0.44569(7) 0.06160(6) 0.34392(4)
O1 O 0.02260(19) 0.24053(16) 0.85749(11)
O2 O -0.0250(2) 0.1283(2) 0.89575(14)
N1 N 0.3351(2) 0.21768(17) 0.37646(12)
N2 N 0.41807(18) 0.14646(16) 0.46755(11)
N3 N 0.58070(19) 0.15424(19) 0.45957(12)
N4 N 0.26090(19) -0.00855(17) 0.70037(11)
C1 C 0.0192(3) 0.1623(2) 0.86456(14)
C2 C 0.0735(2) 0.1106(2) 0.83342(13)
C3 C 0.1455(3) 0.1428(2) 0.81473(17)
H1 H 0.1599 0.1996 0.8204
C4 C 0.1966(3) 0.0923(2) 0.78768(18)
H2 H 0.2467 0.1146 0.7759
C5 C 0.1753(2) 0.0097(2) 0.77767(12)
C6 C 0.1041(3) -0.0215(2) 0.79614(17)
H3 H 0.0881 -0.0777 0.7889
C7 C 0.0549(3) 0.0274(2) 0.82516(18)
H4 H 0.0078 0.0038 0.8396
C8 C 0.2309(2) -0.0476(2) 0.74970(14)
H5 H 0.2835 -0.0652 0.7789
H6 H 0.1958 -0.0975 0.7359
C9 C 0.2044(2) -0.0018(3) 0.64895(15)
H7 H 0.1449 -0.0202 0.6447
C10 C 0.2317(3) 0.0314(3) 0.60256(14)
H8 H 0.1910 0.0364 0.5666
C11 C 0.3183(2) 0.0574(2) 0.60822(13)
C12 C 0.3744(2) 0.0534(2) 0.66223(14)
H9 H 0.4332 0.0740 0.6679
C13 C 0.3441(2) 0.0190(2) 0.70774(14)
H10 H 0.3829 0.0151 0.7445
C14 C 0.3526(2) 0.0893(2) 0.55807(13)
C15 C 0.2956(2) 0.1245(2) 0.51038(13)
H11 H 0.2339 0.1290 0.5090
C16 C 0.3310(2) 0.1527(2) 0.46551(13)
C17 C 0.4739(2) 0.1137(2) 0.51282(13)
C18 C 0.4425(2) 0.0836(2) 0.55947(13)
H12 H 0.4819 0.0597 0.5916
C19 C 0.2824(2) 0.1911(2) 0.41115(14)
C20 C 0.1909(3) 0.1977(2) 0.39607(16)
H13 H 0.1548 0.1795 0.4214
C21 C 0.1536(3) 0.2317(3) 0.34282(17)
H14 H 0.0910 0.2371 0.3312
C22 C 0.2068(3) 0.2575(2) 0.30688(16)
H15 H 0.1817 0.2802 0.2701
C23 C 0.2979(3) 0.2500(2) 0.32519(15)
H16 H 0.3350 0.2683 0.3006
C24 C 0.6629(3) 0.1611(3) 0.45114(17)
H17 H 0.6718 0.1882 0.4174
C25 C 0.7347(3) 0.1307(3) 0.48910(17)
H18 H 0.7926 0.1367 0.4820
C26 C 0.7220(3) 0.0908(3) 0.53846(17)
H19 H 0.7711 0.0689 0.5654
C27 C 0.6374(2) 0.0835(2) 0.54780(15)
H20 H 0.6274 0.0565 0.5813
C28 C 0.5676(2) 0.1158(2) 0.50809(13)
Cu1G Cu -0.03412(3) 0.31132(3) 0.903958(16)
O1G O 0.52260(19) 0.25947(16) 0.35749(11)
O3 O 0.5593(3) 0.3418(3) 0.6647(3)
O4 O 0.5620(7) 0.2736(5) 0.5805(3)
O5 O 0.6887(4) 0.2907(4) 0.6504(3)
O6 O 0.5822(5) 0.2001(3) 0.6611(3)
Cl2 Cl 0.5931(6) 0.2737(8) 0.6400(4)
O7 O 0.3960(4) -0.1633(4) 0.7263(3)
O8 O 0.4220(3) 0.3426(2) 0.49649(14)
O9 O 0.4096(4) 0.5106(4) 0.5256(3)
Cl3? Cl 0.6004(8) 0.2846(8) 0.6358(4)
loop_
_geom_bond_atom_site_label_1
_geom_bond_atom_site_label_2
_geom_bond_site_symmetry_1
_geom_bond_site_symmetry_2
Cu1 Cl1 1_555 1_555
O1 C1 1_555 1_555
O2 C1 1_555 1_555
O3 Cl2 1_555 1_555
O4 Cl2 1_555 1_555
O5 Cl2 1_555 1_555
O6 Cl2 1_555 1_555
N1 Cu1 1_555 1_555
N2 Cu1 1_555 1_555
N3 Cu1 1_555 1_555
N4 C8 1_555 1_555
C1 C2 1_555 1_555
C2 C3 1_555 1_555
C3 H1 1_555 1_555
C4 C3 1_555 1_555
H2 C4 1_555 1_555
C5 C4 1_555 1_555
C6 C5 1_555 1_555
H3 C6 1_555 1_555
C7 C2 1_555 1_555
H4 C7 1_555 1_555
C8 C5 1_555 1_555
H5 C8 1_555 1_555
H6 C8 1_555 1_555
C9 N4 1_555 1_555
H7 C9 1_555 1_555
C10 C9 1_555 1_555
H8 C10 1_555 1_555
C11 C10 1_555 1_555
C12 C11 1_555 1_555
H9 C12 1_555 1_555
C13 N4 1_555 1_555
H10 C13 1_555 1_555
C14 C11 1_555 1_555
C15 C14 1_555 1_555
H11 C15 1_555 1_555
C16 N2 1_555 1_555
C17 N2 1_555 1_555
C18 C14 1_555 1_555
H12 C18 1_555 1_555
C19 N1 1_555 1_555
C20 C19 1_555 1_555
H13 C20 1_555 1_555
C21 C20 1_555 1_555
H14 C21 1_555 1_555
C22 C21 1_555 1_555
H15 C22 1_555 1_555
C23 N1 1_555 1_555
H16 C23 1_555 1_555
C24 N3 1_555 1_555
H17 C24 1_555 1_555
C25 C24 1_555 1_555
H18 C25 1_555 1_555
C26 C25 1_555 1_555
H19 C26 1_555 1_555
C27 C26 1_555 1_555
H20 C27 1_555 1_555
C28 N3 1_555 1_555
Cu1G O1 1_555 1_555
O1G Cu1 1_555 1_555
C6 C7 1_555 1_555
C12 C13 1_555 1_555
C15 C16 1_555 1_555
C16 C19 1_555 1_555
C17 C18 1_555 1_555
C17 C28 1_555 1_555
C22 C23 1_555 1_555
C27 C28 1_555 1_555

#END
