
#######################################################################
#
#                 Cambridge Crystallographic Data Centre
#                                CCDC 
#
#######################################################################
#
# If this CIF has been generated from an entry in the Cambridge 
# Structural Database, then it will include bibliographic, chemical, 
# crystal, experimental, refinement or atomic coordinate data resulting 
# from the CCDC's data processing and validation procedures.
#
#######################################################################

data_OPEMIG
_symmetry_cell_setting           monoclinic
_symmetry_space_group_name_H-M   'P 21'
_symmetry_Int_Tables_number      4
_space_group_name_Hall           'P 2yb'
loop_
_symmetry_equiv_pos_site_id
_symmetry_equiv_pos_as_xyz
1 x,y,z
2 -x,1/2+y,-z
_cell_length_a                   6.5460(5)
_cell_length_b                   13.9906(10)
_cell_length_c                   9.0688(7)
_cell_angle_alpha                90
_cell_angle_beta                 96.0970(10)
_cell_angle_gamma                90
_cell_volume                     825.845
loop_
_atom_site_label
_atom_site_type_symbol
_atom_site_fract_x
_atom_site_fract_y
_atom_site_fract_z
Cd1 Cd -0.08902(3) -0.40549(2) -0.49259(2)
P1 P -0.14411(16) -0.47129(7) -0.87425(10)
P2 P 0.14199(16) -0.45937(7) -1.13002(10)
P3 P -0.08744(14) -0.67492(7) -0.45633(10)
P4 P -0.40176(15) -0.84474(6) -0.43700(10)
N1 N 0.0266(6) -0.3025(2) -0.9622(4)
H1 H 0.0187 -0.2834 -0.8670
N2 N -0.5244(6) -0.6647(3) -0.5243(4)
H2 H -0.6363 -0.7036 -0.5288
C1 C 0.0664(5) -0.4093(3) -0.9547(3)
H3 H 0.1871 -0.4172 -0.8821
C2 C 0.1990(7) -0.2462(3) -1.0155(4)
H4 H 0.3263 -0.2648 -0.9606
H5 H 0.1759 -0.1793 -1.0010
H6 H 0.2053 -0.2586 -1.1190
C3 C -0.1742(8) -0.2742(3) -1.0470(5)
H7 H -0.1876 -0.2059 -1.0461
H8 H -0.2854 -0.3026 -1.0015
H9 H -0.1776 -0.2962 -1.1476
C4 C -0.3388(6) -0.7297(2) -0.5192(4)
H10 H -0.3287 -0.7451 -0.6236
C5 C -0.5321(7) -0.6033(3) -0.3882(5)
H11 H -0.6537 -0.5644 -0.3996
H12 H -0.4130 -0.5629 -0.3758
H13 H -0.5347 -0.6435 -0.3025
C6 C -0.5498(8) -0.6048(3) -0.6603(5)
H14 H -0.6685 -0.5647 -0.6582
H15 H -0.5674 -0.6453 -0.7461
H16 H -0.4300 -0.5657 -0.6643
O1 O -0.3117(5) -0.4988(2) -0.9893(3)
O2 O -0.2019(4) -0.4049(3) -0.7531(2)
O3 O -0.0345(4) -0.56159(18) -0.8015(3)
H17 H -0.0534 -0.5640 -0.7136
O4 O 0.1260(5) -0.56667(19) -1.1153(3)
O5 O 0.3677(5) -0.42910(18) -1.1368(3)
H18 H 0.4430 -0.4621 -1.0795
O6 O 0.0112(4) -0.4140(3) -1.2542(2)
O7 O -0.0881(4) -0.5745(2) -0.5202(3)
O8 O -0.0695(5) -0.67543(19) -0.2873(3)
H19 H 0.0060 -0.6317 -0.2551
O9 O 0.0669(4) -0.7395(3) -0.5186(3)
O10 O -0.4620(4) -0.8197(2) -0.2788(3)
H20 H -0.5703 -0.8464 -0.2660
O11 O -0.2133(4) -0.9050(3) -0.4230(3)
O12 O -0.5849(4) -0.88123(17) -0.5328(3)
Cd1_2 Cd -0.08902(3) -0.40549(2) -1.49259(2)
Cd1A Cd 0.08902(3) -0.90549(2) -0.50741(2)
Cd1A_2 Cd -0.91098(3) -0.90549(2) -0.50741(2)
O6_2 O 0.0112(4) -0.4140(3) -0.2542(2)
O9A O -0.0669(4) -0.2395(3) -0.4814(3)
O11A O 0.2133(4) -0.4050(3) -0.5770(3)
O12A O -0.4151(4) -0.38123(17) -0.4672(3)
loop_
_geom_bond_atom_site_label_1
_geom_bond_atom_site_label_2
_geom_bond_site_symmetry_1
_geom_bond_site_symmetry_2
Cd1 O2 1_555 1_555
P1 C1 1_555 1_555
P2 C1 1_555 1_555
P3 C4 1_555 1_555
P4 C4 1_555 1_555
N1 H1 1_555 1_555
N2 H2 1_555 1_555
C1 N1 1_555 1_555
H3 C1 1_555 1_555
C2 N1 1_555 1_555
H4 C2 1_555 1_555
H5 C2 1_555 1_555
H6 C2 1_555 1_555
C3 N1 1_555 1_555
H7 C3 1_555 1_555
H8 C3 1_555 1_555
H9 C3 1_555 1_555
C4 N2 1_555 1_555
H10 C4 1_555 1_555
C5 N2 1_555 1_555
H11 C5 1_555 1_555
H12 C5 1_555 1_555
H13 C5 1_555 1_555
C6 N2 1_555 1_555
H14 C6 1_555 1_555
H15 C6 1_555 1_555
H16 C6 1_555 1_555
O1 P1 1_555 1_555
O2 P1 1_555 1_555
O3 P1 1_555 1_555
H17 O3 1_555 1_555
O4 P2 1_555 1_555
O5 P2 1_555 1_555
H18 O5 1_555 1_555
O6 P2 1_555 1_555
O7 Cd1 1_555 1_555
O8 P3 1_555 1_555
H19 O8 1_555 1_555
O9 P3 1_555 1_555
O10 P4 1_555 1_555
H20 O10 1_555 1_555
O11 P4 1_555 1_555
O12 P4 1_555 1_555
Cd1_2 O6 1_555 1_555
Cd1A O9 1_555 1_555
Cd1A_2 O12 1_555 1_555
O6_2 Cd1 1_555 1_555
O9A Cd1 1_555 1_555
O11A Cd1 1_555 1_555
O12A Cd1 1_555 1_555
P3 O7 1_555 1_555
O11 Cd1A 1_555 1_555

#END
