
#######################################################################
#
#                 Cambridge Crystallographic Data Centre
#                                CCDC 
#
#######################################################################
#
# If this CIF has been generated from an entry in the Cambridge 
# Structural Database, then it will include bibliographic, chemical, 
# crystal, experimental, refinement or atomic coordinate data resulting 
# from the CCDC's data processing and validation procedures.
#
#######################################################################

data_OPENED
_symmetry_cell_setting           monoclinic
_symmetry_space_group_name_H-M   'C 2/c'
_symmetry_Int_Tables_number      15
_space_group_name_Hall           '-C 2yn'
loop_
_symmetry_equiv_pos_site_id
_symmetry_equiv_pos_as_xyz
1 x,y,z
2 -x,y,1/2-z
3 1/2+x,1/2+y,z
4 1/2-x,1/2+y,1/2-z
5 -x,-y,-z
6 x,-y,1/2+z
7 1/2-x,1/2-y,-z
8 1/2+x,1/2-y,1/2+z
_cell_length_a                   15.729(3)
_cell_length_b                   15.833(3)
_cell_length_c                   16.449(3)
_cell_angle_alpha                90
_cell_angle_beta                 114.84(3)
_cell_angle_gamma                90
_cell_volume                     3717.43
loop_
_atom_site_label
_atom_site_type_symbol
_atom_site_fract_x
_atom_site_fract_y
_atom_site_fract_z
Cu1 Cu 0.5000 0.04628(6) 0.2500
Cu2 Cu 0.5000 0.5000 0.5000
C1 C 0.3674(4) 0.1472(3) 0.1509(4)
C2 C 0.3038(4) 0.1981(3) 0.0713(3)
C3 C 0.2088(4) 0.1802(3) 0.0219(4)
C4 C 0.3434(4) 0.2678(3) 0.0491(4)
C5 C 0.1637(4) 0.1048(4) 0.0430(4)
C6 C 0.3820(5) -0.0741(4) 0.3019(4)
H1 H 0.3863 -0.1102 0.2592
C7 C 0.3335(6) -0.1004(4) 0.3502(5)
H2 H 0.3065 -0.1538 0.3410
C8 C 0.3252(5) -0.0468(4) 0.4121(4)
H3 H 0.2919 -0.0633 0.4447
C9 C 0.3669(4) 0.0317(4) 0.4255(4)
C10 C 0.4156(4) 0.0527(3) 0.3757(4)
H4 H 0.4447 0.1052 0.3852
C11 C 0.3606(4) 0.0938(3) 0.4879(4)
C12 C 0.3676(4) 0.2060(4) 0.5593(4)
C13 C 0.3836(4) 0.2954(4) 0.5863(4)
C14 C 0.3611(4) 0.3292(4) 0.6528(4)
H5 H 0.3335 0.2958 0.6816
C15 C 0.3804(4) 0.4127(4) 0.6750(4)
H6 H 0.3667 0.4366 0.7198
C16 C 0.4200(4) 0.4607(4) 0.6304(4)
H7 H 0.4322 0.5174 0.6457
C17 C 0.4242(4) 0.3478(3) 0.5461(4)
H8 H 0.4403 0.3250 0.5024
N1 N 0.4233(3) 0.0018(3) 0.3144(3)
N2 N 0.3820(3) 0.1754(3) 0.4888(3)
N3 N 0.3326(4) 0.0790(3) 0.5526(3)
N4 N 0.3376(4) 0.1505(3) 0.5999(3)
N5 N 0.4420(3) 0.4297(3) 0.5661(3)
O1 O 0.4023(3) 0.0791(2) 0.1351(3)
O2 O 0.3929(4) 0.1751(3) 0.2263(3)
O3 O 0.0775(3) 0.0970(2) -0.0004(3)
O4 O 0.2150(4) 0.0521(3) 0.0970(4)
H9 H 0.403(6) 0.281(5) 0.079(5)
H10 H 0.330(6) 0.029(2) 0.572(6)
Cu1F Cu 0.0000 0.45372(6) -0.2500
Cu2C Cu 0.0000 0.0000 0.0000
Cu2A Cu 0.5000 0.5000 0.0000
C1F C 0.1326(4) 0.3528(3) -0.1509(4)
C2F C 0.1962(4) 0.3019(3) -0.0713(3)
C3F C 0.2912(4) 0.3198(3) -0.0219(4)
C4F C 0.1566(4) 0.2322(3) -0.0491(4)
C5F C 0.3363(4) 0.3952(4) -0.0430(4)
C6A C 0.6180(5) -0.0741(4) 0.1981(4)
H1A H 0.6137 -0.1102 0.2408
C7A C 0.6665(6) -0.1004(4) 0.1498(5)
H2A H 0.6935 -0.1538 0.1590
C8A C 0.6748(5) -0.0468(4) 0.0879(4)
H3A H 0.7081 -0.0633 0.0553
C9A C 0.6331(4) 0.0317(4) 0.0745(4)
C10A C 0.5844(4) 0.0527(3) 0.1243(4)
H4A H 0.5553 0.1052 0.1148
C11A C 0.6394(4) 0.0938(3) 0.0121(4)
C12A C 0.6324(4) 0.2060(4) -0.0593(4)
C13A C 0.6164(4) 0.2954(4) -0.0863(4)
C14A C 0.6389(4) 0.3292(4) -0.1528(4)
H5A H 0.6665 0.2958 -0.1816
C15A C 0.6196(4) 0.4127(4) -0.1750(4)
H6A H 0.6333 0.4366 -0.2198
C16A C 0.5800(4) 0.4607(4) -0.1304(4)
H7A H 0.5678 0.5174 -0.1457
C17A C 0.5758(4) 0.3478(3) -0.0461(4)
H8A H 0.5597 0.3250 -0.0024
N1A N 0.5767(3) 0.0018(3) 0.1856(3)
N2A N 0.6180(3) 0.1754(3) 0.0112(3)
N3A N 0.6674(4) 0.0790(3) -0.0526(3)
N4A N 0.6624(4) 0.1505(3) -0.0999(3)
N5A N 0.5580(3) 0.4297(3) -0.0661(3)
N5D N 0.5580(3) 0.5703(3) 0.4339(3)
O1F O 0.0977(3) 0.4209(2) -0.1351(3)
O1A O 0.5977(3) 0.0791(2) 0.3649(3)
O2F O 0.1071(4) 0.3249(3) -0.2263(3)
O3F O 0.4225(3) 0.4030(2) 0.0004(3)
O3C O 0.4225(3) 0.5970(2) 0.5004(3)
O3G O 0.5775(3) 0.4030(2) 0.4996(3)
O4F O 0.2850(4) 0.4479(3) -0.0970(4)
H9F H 0.097(6) 0.219(5) -0.079(5)
H10A H 0.670(6) 0.029(2) -0.072(6)
O5 O 0.1112(3) -0.0511(3) 0.1505(3)
H12 H 0.156(4) -0.028(4) 0.142(6)
H13 H 0.127(5) -0.101(2) 0.171(6)
O6 O 0.3281(5) 0.2797(4) 0.3198(4)
H11 H 0.342(6) 0.253(5) 0.369(3)
H14 H 0.361(5) 0.259(5) 0.294(5)
loop_
_geom_bond_atom_site_label_1
_geom_bond_atom_site_label_2
_geom_bond_site_symmetry_1
_geom_bond_site_symmetry_2
Cu1 N1 1_555 1_555
Cu2 N5 1_555 1_555
C1 C2 1_555 1_555
C2 C3 1_555 1_555
C3 C5 1_555 1_555
C4 C2 1_555 1_555
C5 O3 1_555 1_555
C6 H1 1_555 1_555
C7 C6 1_555 1_555
H2 C7 1_555 1_555
C8 C7 1_555 1_555
H3 C8 1_555 1_555
C9 C8 1_555 1_555
C10 C9 1_555 1_555
H4 C10 1_555 1_555
C11 C9 1_555 1_555
C12 C13 1_555 1_555
C13 C14 1_555 1_555
C14 H5 1_555 1_555
C15 C14 1_555 1_555
H6 C15 1_555 1_555
C16 C15 1_555 1_555
H7 C16 1_555 1_555
C17 C13 1_555 1_555
H8 C17 1_555 1_555
N1 C6 1_555 1_555
N2 C11 1_555 1_555
N3 C11 1_555 1_555
N4 C12 1_555 1_555
N5 C16 1_555 1_555
O1 Cu1 1_555 1_555
O2 C1 1_555 1_555
O3 Cu2C 1_555 1_555
O4 C5 1_555 1_555
O5 H12 1_555 1_555
O6 H11 1_555 1_555
H9 C4 1_555 1_555
H10 N3 1_555 1_555
H13 O5 1_555 1_555
H14 O6 1_555 1_555
Cu1F O1F 1_555 1_555
Cu2A N5A 1_555 1_555
C1F C2F 1_555 1_555
C2F C3F 1_555 1_555
C3F C4 1_555 1_555
C4F C3 1_555 1_555
C5F C3F 1_555 1_555
C6A H1A 1_555 1_555
C7A C6A 1_555 1_555
H2A C7A 1_555 1_555
C8A C7A 1_555 1_555
H3A C8A 1_555 1_555
C9A C8A 1_555 1_555
C10A C9A 1_555 1_555
H4A C10A 1_555 1_555
C11A C9A 1_555 1_555
C12A C13A 1_555 1_555
C13A C14A 1_555 1_555
C14A H5A 1_555 1_555
C15A C14A 1_555 1_555
H6A C15A 1_555 1_555
C16A C15A 1_555 1_555
H7A C16A 1_555 1_555
C17A C13A 1_555 1_555
H8A C17A 1_555 1_555
N1A Cu1 1_555 1_555
N2A C11A 1_555 1_555
N3A C11A 1_555 1_555
N4A C12A 1_555 1_555
N5A C16A 1_555 1_555
N5D Cu2 1_555 1_555
O1F C1F 1_555 1_555
O1A Cu1 1_555 1_555
O2F C1F 1_555 1_555
O3F Cu2A 1_555 1_555
O3C Cu2 1_555 1_555
O3G Cu2 1_555 1_555
O4F C5F 1_555 1_555
H9F C4F 1_555 1_555
H10A N3A 1_555 1_555
C1 O1 1_555 1_555
C10 N1 1_555 1_555
C12 N2 1_555 1_555
C17 N5 1_555 1_555
N3 N4 1_555 1_555
C2F C4F 1_555 1_555
C5F O3F 1_555 1_555
C6A N1A 1_555 1_555
C10A N1A 1_555 1_555
C12A N2A 1_555 1_555
C17A N5A 1_555 1_555
N3A N4A 1_555 1_555

#END
