
#######################################################################
#
#                 Cambridge Crystallographic Data Centre
#                                CCDC 
#
#######################################################################
#
# If this CIF has been generated from an entry in the Cambridge 
# Structural Database, then it will include bibliographic, chemical, 
# crystal, experimental, refinement or atomic coordinate data resulting 
# from the CCDC's data processing and validation procedures.
#
#######################################################################

data_OPEPIJ
_symmetry_cell_setting           triclinic
_symmetry_space_group_name_H-M   'P -1'
_symmetry_Int_Tables_number      2
_space_group_name_Hall           '-P 1'
loop_
_symmetry_equiv_pos_site_id
_symmetry_equiv_pos_as_xyz
1 x,y,z
2 -x,-y,-z
_cell_length_a                   10.457(2)
_cell_length_b                   10.969(2)
_cell_length_c                   13.194(3)
_cell_angle_alpha                73.124(4)
_cell_angle_beta                 67.707(3)
_cell_angle_gamma                63.577(3)
_cell_volume                     1240.44
loop_
_atom_site_label
_atom_site_type_symbol
_atom_site_fract_x
_atom_site_fract_y
_atom_site_fract_z
C1 C 0.7652(11) 0.8964(11) 0.4899(9)
C2 C 0.7293(12) 0.8360(11) 0.4238(11)
C3 C 0.5986(12) 0.8068(14) 0.4633(11)
H1 H 0.5299 0.8337 0.5322
C4 C 0.5663(17) 0.7446(15) 0.4104(15)
H2 H 0.4758 0.7291 0.4398
C5 C 0.672(2) 0.7002(16) 0.3061(15)
H3 H 0.6512 0.6566 0.2648
C6 C 0.7980(17) 0.7227(15) 0.2702(13)
H4 H 0.8707 0.6897 0.2042
C7 C 0.8269(14) 0.7932(12) 0.3263(9)
H5 H 0.9159 0.8114 0.2960
C8 C 0.9807(14) 0.7738(12) 0.7424(9)
C9 C 1.1150(8) 0.6815(9) 0.7808(7)
C10 C 1.2572(9) 0.6697(10) 0.7114(6)
H6 H 1.2695 0.7205 0.6389
C11 C 1.3814(7) 0.5837(11) 0.7480(9)
H7 H 1.4786 0.5757 0.7006
C12 C 1.3634(11) 0.5095(11) 0.8541(10)
H8 H 1.4483 0.4507 0.8792
C13 C 1.2212(13) 0.5213(12) 0.9236(7)
H9 H 1.2089 0.4705 0.9960
C14 C 1.0970(9) 0.6073(11) 0.8869(6)
H10 H 0.9997 0.6153 0.9344
C15 C 0.7506(12) 1.1853(12) 0.6981(10)
C16 C 0.7728(10) 1.3095(8) 0.6890(7)
C17 C 0.7566(11) 1.3601(10) 0.7802(6)
H11 H 0.7280 1.3134 0.8528
C18 C 0.7822(14) 1.4790(11) 0.7652(8)
H12 H 0.7711 1.5136 0.8275
C19 C 0.8241(14) 1.5473(10) 0.6591(9)
H13 H 0.8416 1.6285 0.6488
C20 C 0.8403(13) 1.4967(10) 0.5679(7)
H14 H 0.8690 1.5434 0.4953
C21 C 0.8147(11) 1.3778(10) 0.5829(6)
H15 H 0.8258 1.3433 0.5206
C22 C 0.4295(14) 0.8789(14) 0.8097(11)
H16 H 0.4844 0.8221 0.7530
C23 C 0.2959(14) 0.8793(15) 0.8743(10)
H17 H 0.2570 0.8237 0.8613
C24 C 0.2119(14) 0.9568(15) 0.9591(10)
C25 C 0.2713(13) 1.0387(15) 0.9705(10)
H18 H 0.2172 1.0969 1.0262
C26 C 0.4092(13) 1.0378(14) 0.9017(9)
H19 H 0.4479 1.0960 0.9112
C27 C 0.0572(13) 0.9607(17) 1.0278(9)
H20 H 0.0611 0.8651 1.0511
H21 H 0.0280 1.0000 1.0956
Cd1 Cd 1.0000 1.0000 0.5000
Co1 Co 0.70674(10) 0.95271(11) 0.72182(8)
N1 N 0.4881(10) 0.9598(10) 0.8243(8)
O1 O 0.8700(8) 0.9389(9) 0.4411(6)
O2 O 0.6925(9) 0.8946(9) 0.5912(6)
O3 O 0.8522(10) 0.7874(11) 0.8118(8)
O4 O 0.9949(12) 0.8315(11) 0.6468(9)
O5 O 0.7843(10) 1.1335(11) 0.6127(9)
O6 O 0.6969(11) 1.1267(11) 0.7895(10)
C1A C -0.7652(11) 1.1036(11) 1.5101(9)
C2A C -0.7293(12) 1.1640(11) 1.5762(11)
C3A C -0.5986(12) 1.1932(14) 1.5367(11)
H1A H -0.5299 1.1663 1.4678
C4A C -0.5663(17) 1.2554(15) 1.5896(15)
H2A H -0.4758 1.2709 1.5602
C5A C -0.672(2) 1.2998(16) 1.6939(15)
H3A H -0.6512 1.3434 1.7352
C6A C -0.7980(17) 1.2773(15) 1.7298(13)
H4A H -0.8707 1.3103 1.7958
C7A C -0.8269(14) 1.2068(12) 1.6737(9)
H5A H -0.9159 1.1886 1.7040
C8A C -0.9807(14) 1.2262(12) 1.2576(9)
C9A C -1.1150(8) 1.3185(9) 1.2192(7)
C10A C -1.2572(9) 1.3303(10) 1.2886(6)
H6A H -1.2695 1.2795 1.3611
C11A C -1.3814(7) 1.4163(11) 1.2520(9)
H7A H -1.4786 1.4243 1.2994
C12A C -1.3634(11) 1.4905(11) 1.1459(10)
H8A H -1.4483 1.5493 1.1208
C13A C -1.2212(13) 1.4787(12) 1.0764(7)
H9A H -1.2089 1.5295 1.0040
C14A C -1.0970(9) 1.3927(11) 1.1131(6)
H10A H -0.9997 1.3847 1.0656
C15A C -0.7506(12) 0.8147(12) 1.3019(10)
C16A C -0.7728(10) 0.6905(8) 1.3110(7)
C17A C -0.7566(11) 0.6399(10) 1.2198(6)
H11A H -0.7280 0.6866 1.1472
C18A C -0.7822(14) 0.5210(11) 1.2348(8)
H12A H -0.7711 0.4864 1.1725
C19A C -0.8241(14) 0.4527(10) 1.3409(9)
H13A H -0.8416 0.3715 1.3512
C20A C -0.8403(13) 0.5033(10) 1.4321(7)
H14A H -0.8690 0.4566 1.5047
C21A C -0.8147(11) 0.6222(10) 1.4171(6)
H15A H -0.8258 0.6567 1.4794
C22A C -0.4295(14) 1.1211(14) 1.1903(11)
H16A H -0.4844 1.1779 1.2470
C23A C -0.2959(14) 1.1207(15) 1.1257(10)
H17A H -0.2570 1.1763 1.1387
C24A C -0.2119(14) 1.0432(15) 1.0409(10)
C25A C -0.2713(13) 0.9613(15) 1.0295(10)
H18A H -0.2172 0.9031 0.9738
C26A C -0.4092(13) 0.9622(14) 1.0983(9)
H19A H -0.4479 0.9040 1.0888
C27A C -0.0572(13) 1.0393(17) 0.9722(9)
H20A H -0.0611 1.1349 0.9489
H21A H -0.0280 1.0000 0.9044
Cd1_2 Cd -1.0000 1.0000 1.5000
Co1A Co -0.70674(10) 1.04729(11) 1.27818(8)
N1A N -0.4881(10) 1.0402(10) 1.1757(8)
O1A O 1.1300(8) 1.0611(9) 0.5589(6)
O1A_2 O -0.8700(8) 1.0611(9) 1.5589(6)
O2A O -0.6925(9) 1.1054(9) 1.4088(6)
O3A O -0.8522(10) 1.2126(11) 1.1882(8)
O4A O 1.0051(12) 1.1685(11) 0.3532(9)
O4A_2 O -0.9949(12) 1.1685(11) 1.3532(9)
O5A O 1.2157(10) 0.8665(11) 0.3873(9)
O5A_2 O -0.7843(10) 0.8665(11) 1.3873(9)
O6A O -0.6969(11) 0.8733(11) 1.2105(10)
loop_
_geom_bond_atom_site_label_1
_geom_bond_atom_site_label_2
_geom_bond_site_symmetry_1
_geom_bond_site_symmetry_2
C1 C2 1_555 1_555
C2 C3 1_555 1_555
C3 H1 1_555 1_555
C4 C3 1_555 1_555
H2 C4 1_555 1_555
C5 C4 1_555 1_555
H3 C5 1_555 1_555
C6 C5 1_555 1_555
H4 C6 1_555 1_555
C7 C2 1_555 1_555
H5 C7 1_555 1_555
C8 C9 1_555 1_555
C9 C10 1_555 1_555
C10 H6 1_555 1_555
C11 C10 1_555 1_555
H7 C11 1_555 1_555
C12 C11 1_555 1_555
H8 C12 1_555 1_555
C13 C12 1_555 1_555
H9 C13 1_555 1_555
C14 C9 1_555 1_555
H10 C14 1_555 1_555
C15 C16 1_555 1_555
C16 C17 1_555 1_555
C17 H11 1_555 1_555
C18 C17 1_555 1_555
H12 C18 1_555 1_555
C19 C18 1_555 1_555
H13 C19 1_555 1_555
C20 C19 1_555 1_555
H14 C20 1_555 1_555
C21 C16 1_555 1_555
H15 C21 1_555 1_555
C22 H16 1_555 1_555
C23 C22 1_555 1_555
H17 C23 1_555 1_555
C24 C23 1_555 1_555
C25 C24 1_555 1_555
H18 C25 1_555 1_555
C26 C25 1_555 1_555
H19 C26 1_555 1_555
C27 C24 1_555 1_555
H20 C27 1_555 1_555
H21 C27 1_555 1_555
Cd1 O1 1_555 1_555
Co1 N1 1_555 1_555
N1 C22 1_555 1_555
O1 C1 1_555 1_555
O2 C1 1_555 1_555
O3 C8 1_555 1_555
O4 C8 1_555 1_555
O5 C15 1_555 1_555
O6 C15 1_555 1_555
C1A C2A 1_555 1_555
C2A C3A 1_555 1_555
C3A H1A 1_555 1_555
C4A C3A 1_555 1_555
H2A C4A 1_555 1_555
C5A C4A 1_555 1_555
H3A C5A 1_555 1_555
C6A C5A 1_555 1_555
H4A C6A 1_555 1_555
C7A C2A 1_555 1_555
H5A C7A 1_555 1_555
C8A C9A 1_555 1_555
C9A C10A 1_555 1_555
C10A H6A 1_555 1_555
C11A C10A 1_555 1_555
H7A C11A 1_555 1_555
C12A C11A 1_555 1_555
H8A C12A 1_555 1_555
C13A C12A 1_555 1_555
H9A C13A 1_555 1_555
C14A C9A 1_555 1_555
H10A C14A 1_555 1_555
C15A C16A 1_555 1_555
C16A C17A 1_555 1_555
C17A H11A 1_555 1_555
C18A C17A 1_555 1_555
H12A C18A 1_555 1_555
C19A C18A 1_555 1_555
H13A C19A 1_555 1_555
C20A C19A 1_555 1_555
H14A C20A 1_555 1_555
C21A C16A 1_555 1_555
H15A C21A 1_555 1_555
C22A H16A 1_555 1_555
C23A C22A 1_555 1_555
H17A C23A 1_555 1_555
C24A C23A 1_555 1_555
C25A C24A 1_555 1_555
H18A C25A 1_555 1_555
C26A C25A 1_555 1_555
H19A C26A 1_555 1_555
C27A C27 1_555 1_555
H20A C27A 1_555 1_555
H21A C27A 1_555 1_555
Cd1_2 O1A_2 1_555 1_555
Co1A N1A 1_555 1_555
N1A C22A 1_555 1_555
O1A Cd1 1_555 1_555
O1A_2 C1A 1_555 1_555
O2A C1A 1_555 1_555
O3A C8A 1_555 1_555
O4A Cd1 1_555 1_555
O4A_2 C8A 1_555 1_555
O5A Cd1 1_555 1_555
O5A_2 C15A 1_555 1_555
O6A C15A 1_555 1_555
C6 C7 1_555 1_555
C13 C14 1_555 1_555
C20 C21 1_555 1_555
C26 N1 1_555 1_555
Cd1 O4 1_555 1_555
Cd1 O5 1_555 1_555
Co1 O2 1_555 1_555
Co1 O3 1_555 1_555
Co1 O5 1_555 1_555
Co1 O6 1_555 1_555
C6A C7A 1_555 1_555
C13A C14A 1_555 1_555
C20A C21A 1_555 1_555
C24A C27A 1_555 1_555
C26A N1A 1_555 1_555
Cd1_2 O4A_2 1_555 1_555
Cd1_2 O5A_2 1_555 1_555
Co1A O2A 1_555 1_555
Co1A O3A 1_555 1_555
Co1A O5A_2 1_555 1_555
Co1A O6A 1_555 1_555

#END
