
#######################################################################
#
#                 Cambridge Crystallographic Data Centre
#                                CCDC 
#
#######################################################################
#
# If this CIF has been generated from an entry in the Cambridge 
# Structural Database, then it will include bibliographic, chemical, 
# crystal, experimental, refinement or atomic coordinate data resulting 
# from the CCDC's data processing and validation procedures.
#
#######################################################################

data_OPEPEF
_symmetry_cell_setting           triclinic
_symmetry_space_group_name_H-M   'P -1'
_symmetry_Int_Tables_number      2
_space_group_name_Hall           '-P 1'
loop_
_symmetry_equiv_pos_site_id
_symmetry_equiv_pos_as_xyz
1 x,y,z
2 -x,-y,-z
_cell_length_a                   10.2658(14)
_cell_length_b                   11.0981(15)
_cell_length_c                   13.2738(18)
_cell_angle_alpha                76.787(2)
_cell_angle_beta                 67.724(2)
_cell_angle_gamma                64.247(2)
_cell_volume                     1256.73
loop_
_atom_site_label
_atom_site_type_symbol
_atom_site_fract_x
_atom_site_fract_y
_atom_site_fract_z
C1 C -0.2306(5) -0.1121(5) -0.5064(4)
C2 C -0.2748(5) -0.1738(5) -0.5698(3)
C3 C -0.4084(5) -0.1938(5) -0.5277(4)
H1 H -0.4741 -0.1671 -0.4586
C4 C -0.4459(7) -0.2530(7) -0.5866(6)
H2 H -0.5392 -0.2624 -0.5588
C5 C -0.3474(9) -0.2985(7) -0.6858(6)
H3 H -0.3715 -0.3426 -0.7237
C6 C -0.2139(7) -0.2794(7) -0.7294(5)
H4 H -0.1472 -0.3094 -0.7974
C7 C -0.1777(5) -0.2150(5) -0.6719(4)
H5 H -0.0879 -0.1996 -0.7023
C8 C -0.0022(5) -0.2167(5) -0.2792(4)
C9 C 0.1136(5) -0.3094(5) -0.2254(3)
C10 C 0.0718(6) -0.3602(6) -0.1192(4)
H6 H -0.0312 -0.3391 -0.0805
C11 C 0.1778(7) -0.4410(7) -0.0687(5)
H7 H 0.1479 -0.4741 0.0036
C12 C 0.3318(7) -0.4726(6) -0.1283(6)
H8 H 0.4057 -0.5282 -0.0956
C13 C 0.3747(6) -0.4232(6) -0.2333(5)
H9 H 0.4778 -0.4450 -0.2720
C14 C 0.2679(5) -0.3416(5) -0.2831(4)
H10 H 0.2983 -0.3078 -0.3552
C15 C -0.2585(5) 0.1772(5) -0.2820(4)
C16 C -0.2314(4) 0.3028(5) -0.3020(4)
C17 C -0.1972(5) 0.3644(5) -0.4050(4)
H11 H -0.1870 0.3254 -0.4640
C18 C -0.1778(5) 0.4825(6) -0.4222(5)
H12 H -0.1552 0.5232 -0.4926
C19 C -0.1914(6) 0.5414(6) -0.3368(6)
H13 H -0.1785 0.6220 -0.3491
C20 C -0.2241(6) 0.4813(6) -0.2329(5)
H14 H -0.2320 0.5203 -0.1747
C21 C -0.2451(5) 0.3634(5) -0.2153(4)
H15 H -0.2688 0.3234 -0.1448
C22 C -0.5605(5) -0.1105(6) -0.1985(4)
H16 H -0.5044 -0.1652 -0.2564
C23 C -0.7011(5) -0.1129(6) -0.1322(4)
H17 H -0.7380 -0.1680 -0.1466
C24 C -0.7861(5) -0.0346(6) -0.0455(4)
C25 C -0.7259(5) 0.0448(6) -0.0290(3)
H18 H -0.7797 0.1000 0.0286
C26 C -0.5853(5) 0.0430(5) -0.0980(3)
H19 H -0.5461 0.0972 -0.0849
C27 C -0.9401(4) -0.0363(6) 0.0264(3)
H20 H -0.9312 -0.1286 0.0456
H21 H -0.9705 0.0042 0.0935
Cd1 Cd 0.0000 0.0000 -0.5000
N1 N -0.5034(4) -0.0326(4) -0.1822(3)
O1 O -0.1287(3) -0.0661(4) -0.5573(2)
O2 O -0.2997(3) -0.1096(3) -0.4048(2)
O3 O 0.0431(3) -0.1774(3) -0.3767(2)
O4 O -0.1421(3) -0.1801(3) -0.2213(2)
O5 O -0.2211(3) 0.1107(3) -0.3628(2)
O6 O -0.3162(4) 0.1352(4) -0.1877(3)
Zn1 Zn -0.29501(5) -0.03841(6) -0.28352(4)
C1A C -1.7694(5) 0.1121(5) 0.5064(4)
C2A C -1.7252(5) 0.1738(5) 0.5698(3)
C3A C -1.5916(5) 0.1938(5) 0.5277(4)
H1A H -1.5259 0.1671 0.4586
C4A C -1.5541(7) 0.2530(7) 0.5866(6)
H2A H -1.4608 0.2624 0.5588
C5A C -1.6526(9) 0.2985(7) 0.6858(6)
H3A H -1.6285 0.3426 0.7237
C6A C -1.7861(7) 0.2794(7) 0.7294(5)
H4A H -1.8528 0.3094 0.7974
C7A C -1.8223(5) 0.2150(5) 0.6719(4)
H5A H -1.9121 0.1996 0.7023
C8A C -1.9978(5) 0.2167(5) 0.2792(4)
C9A C -2.1136(5) 0.3094(5) 0.2254(3)
C10A C -2.0718(6) 0.3602(6) 0.1192(4)
H6A H -1.9688 0.3391 0.0805
C11A C -2.1778(7) 0.4410(7) 0.0687(5)
H7A H -2.1479 0.4741 -0.0036
C12A C -2.3318(7) 0.4726(6) 0.1283(6)
H8A H -2.4057 0.5282 0.0956
C13A C -2.3747(6) 0.4232(6) 0.2333(5)
H9A H -2.4778 0.4450 0.2720
C14A C -2.2679(5) 0.3416(5) 0.2831(4)
H10A H -2.2983 0.3078 0.3552
C15A C -1.7415(5) -0.1772(5) 0.2820(4)
C16A C -1.7686(4) -0.3028(5) 0.3020(4)
C17A C -1.8028(5) -0.3644(5) 0.4050(4)
H11A H -1.8130 -0.3254 0.4640
C18A C -1.8222(5) -0.4825(6) 0.4222(5)
H12A H -1.8448 -0.5232 0.4926
C19A C -1.8086(6) -0.5414(6) 0.3368(6)
H13A H -1.8215 -0.6220 0.3491
C20A C -1.7759(6) -0.4813(6) 0.2329(5)
H14A H -1.7680 -0.5203 0.1747
C21A C -1.7549(5) -0.3634(5) 0.2153(4)
H15A H -1.7312 -0.3234 0.1448
C22A C -1.4395(5) 0.1105(6) 0.1985(4)
H16A H -1.4956 0.1652 0.2564
C23A C -1.2989(5) 0.1129(6) 0.1322(4)
H17A H -1.2620 0.1680 0.1466
C24A C -1.2139(5) 0.0346(6) 0.0455(4)
C25A C -1.2741(5) -0.0448(6) 0.0290(3)
H18A H -1.2203 -0.1000 -0.0286
C26A C -1.4147(5) -0.0430(5) 0.0980(3)
H19A H -1.4539 -0.0972 0.0849
C27A C -1.0599(4) 0.0363(6) -0.0264(3)
H20A H -1.0688 0.1286 -0.0456
H21A H -1.0295 -0.0042 -0.0935
Cd1_2 Cd -2.0000 0.0000 0.5000
N1A N -1.4966(4) 0.0326(4) 0.1822(3)
O1A O 0.1287(3) 0.0661(4) -0.4427(2)
O1A_2 O -1.8713(3) 0.0661(4) 0.5573(2)
O2A O -1.7003(3) 0.1096(3) 0.4048(2)
O3A O -0.0431(3) 0.1774(3) -0.6233(2)
O3A_2 O -2.0431(3) 0.1774(3) 0.3767(2)
O4A O -1.8579(3) 0.1801(3) 0.2213(2)
O5A O 0.2211(3) -0.1107(3) -0.6372(2)
O5A_2 O -1.7789(3) -0.1107(3) 0.3628(2)
O6A O -1.6838(4) -0.1352(4) 0.1877(3)
Zn1A Zn -1.70499(5) 0.03841(6) 0.28352(4)
loop_
_geom_bond_atom_site_label_1
_geom_bond_atom_site_label_2
_geom_bond_site_symmetry_1
_geom_bond_site_symmetry_2
C1 C2 1_555 1_555
C2 C3 1_555 1_555
C3 H1 1_555 1_555
C4 C3 1_555 1_555
H2 C4 1_555 1_555
C5 C4 1_555 1_555
H3 C5 1_555 1_555
C6 C5 1_555 1_555
H4 C6 1_555 1_555
C7 C2 1_555 1_555
H5 C7 1_555 1_555
C8 C9 1_555 1_555
C9 C10 1_555 1_555
C10 H6 1_555 1_555
C11 C10 1_555 1_555
H7 C11 1_555 1_555
C12 C11 1_555 1_555
H8 C12 1_555 1_555
C13 C12 1_555 1_555
H9 C13 1_555 1_555
C14 C9 1_555 1_555
H10 C14 1_555 1_555
C15 C16 1_555 1_555
C16 C17 1_555 1_555
C17 H11 1_555 1_555
C18 C17 1_555 1_555
H12 C18 1_555 1_555
C19 C18 1_555 1_555
H13 C19 1_555 1_555
C20 C19 1_555 1_555
H14 C20 1_555 1_555
C21 C16 1_555 1_555
H15 C21 1_555 1_555
C22 H16 1_555 1_555
C23 C22 1_555 1_555
H17 C23 1_555 1_555
C24 C23 1_555 1_555
C25 C24 1_555 1_555
H18 C25 1_555 1_555
C26 C25 1_555 1_555
H19 C26 1_555 1_555
C27 C24 1_555 1_555
H20 C27 1_555 1_555
H21 C27 1_555 1_555
Cd1 O1 1_555 1_555
N1 C22 1_555 1_555
O1 C1 1_555 1_555
O2 C1 1_555 1_555
O3 C8 1_555 1_555
O4 C8 1_555 1_555
O5 C15 1_555 1_555
O6 C15 1_555 1_555
Zn1 N1 1_555 1_555
C1A C2A 1_555 1_555
C2A C3A 1_555 1_555
C3A H1A 1_555 1_555
C4A C3A 1_555 1_555
H2A C4A 1_555 1_555
C5A C4A 1_555 1_555
H3A C5A 1_555 1_555
C6A C5A 1_555 1_555
H4A C6A 1_555 1_555
C7A C2A 1_555 1_555
H5A C7A 1_555 1_555
C8A C9A 1_555 1_555
C9A C10A 1_555 1_555
C10A H6A 1_555 1_555
C11A C10A 1_555 1_555
H7A C11A 1_555 1_555
C12A C11A 1_555 1_555
H8A C12A 1_555 1_555
C13A C12A 1_555 1_555
H9A C13A 1_555 1_555
C14A C9A 1_555 1_555
H10A C14A 1_555 1_555
C15A C16A 1_555 1_555
C16A C17A 1_555 1_555
C17A H11A 1_555 1_555
C18A C17A 1_555 1_555
H12A C18A 1_555 1_555
C19A C18A 1_555 1_555
H13A C19A 1_555 1_555
C20A C19A 1_555 1_555
H14A C20A 1_555 1_555
C21A C16A 1_555 1_555
H15A C21A 1_555 1_555
C22A H16A 1_555 1_555
C23A C22A 1_555 1_555
H17A C23A 1_555 1_555
C24A C23A 1_555 1_555
C25A C24A 1_555 1_555
H18A C25A 1_555 1_555
C26A C25A 1_555 1_555
H19A C26A 1_555 1_555
C27A C27 1_555 1_555
H20A C27A 1_555 1_555
H21A C27A 1_555 1_555
Cd1_2 O1A_2 1_555 1_555
N1A C22A 1_555 1_555
O1A Cd1 1_555 1_555
O1A_2 C1A 1_555 1_555
O2A C1A 1_555 1_555
O3A Cd1 1_555 1_555
O3A_2 C8A 1_555 1_555
O4A C8A 1_555 1_555
O5A Cd1 1_555 1_555
O5A_2 C15A 1_555 1_555
O6A C15A 1_555 1_555
Zn1A N1A 1_555 1_555
C6 C7 1_555 1_555
C13 C14 1_555 1_555
C20 C21 1_555 1_555
C26 N1 1_555 1_555
Cd1 O3 1_555 1_555
Cd1 O5 1_555 1_555
O2 Zn1 1_555 1_555
O4 Zn1 1_555 1_555
O5 Zn1 1_555 1_555
O6 Zn1 1_555 1_555
C6A C7A 1_555 1_555
C13A C14A 1_555 1_555
C20A C21A 1_555 1_555
C24A C27A 1_555 1_555
C26A N1A 1_555 1_555
Cd1_2 O3A_2 1_555 1_555
Cd1_2 O5A_2 1_555 1_555
O2A Zn1A 1_555 1_555
O4A Zn1A 1_555 1_555
O5A_2 Zn1A 1_555 1_555
O6A Zn1A 1_555 1_555

#END
