
#######################################################################
#
#                 Cambridge Crystallographic Data Centre
#                                CCDC 
#
#######################################################################
#
# If this CIF has been generated from an entry in the Cambridge 
# Structural Database, then it will include bibliographic, chemical, 
# crystal, experimental, refinement or atomic coordinate data resulting 
# from the CCDC's data processing and validation procedures.
#
#######################################################################

data_OPEQEG
_symmetry_cell_setting           triclinic
_symmetry_space_group_name_H-M   'P -1'
_symmetry_Int_Tables_number      2
_space_group_name_Hall           '-P 1'
loop_
_symmetry_equiv_pos_site_id
_symmetry_equiv_pos_as_xyz
1 x,y,z
2 -x,-y,-z
_cell_length_a                   9.221(5)
_cell_length_b                   12.621(5)
_cell_length_c                   20.643(5)
_cell_angle_alpha                87.710(5)
_cell_angle_beta                 88.066(5)
_cell_angle_gamma                75.595(5)
_cell_volume                     2324.31
loop_
_atom_site_label
_atom_site_type_symbol
_atom_site_fract_x
_atom_site_fract_y
_atom_site_fract_z
C1 C 0.531(2) 0.5207(12) 0.1607(9)
H1 H 0.5996 0.4906 0.1925
C2 C 0.4761(19) 0.6274(13) 0.1480(9)
H2 H 0.4982 0.6844 0.1697
C3 C 0.3848(14) 0.5376(10) 0.0806(6)
H3 H 0.3328 0.5220 0.0459
C4 C 0.2966(19) 0.7433(12) 0.0679(8)
H4 H 0.3635 0.7904 0.0578
H5 H 0.2561 0.7281 0.0275
C5 C 0.1737(17) 0.8005(12) 0.1102(10)
H6 H 0.2148 0.8140 0.1509
H7 H 0.1069 0.7531 0.1198
C6 C 0.085(2) 0.9070(15) 0.0821(12)
H8 H 0.0505 0.8945 0.0398
H9 H -0.0032 0.9335 0.1096
C7 C 0.168(2) 0.9923(12) 0.0750(10)
H10 H 0.1063 1.0544 0.0515
H11 H 0.2568 0.9643 0.0483
C8 C 0.2172(14) 1.0341(12) 0.1372(8)
H12 H 0.2876 0.9740 0.1587
H13 H 0.2700 1.0899 0.1254
C9 C 0.0919(13) 1.0815(11) 0.1851(7)
H14 H 0.0525 1.0228 0.2045
H15 H 0.1316 1.1154 0.2194
C10 C -0.1736(12) 1.1572(8) 0.1493(5)
H16 H -0.2098 1.0997 0.1672
N1 N -0.2536(9) 1.2378(7) 0.1181(4)
C11 C -0.0235(14) 1.2596(10) 0.1242(7)
H17 H 0.0610 1.2872 0.1198
C12 C 0.3980(12) 0.2386(8) 0.2406(4)
C13 C 0.3641(12) 0.2265(9) 0.3117(4)
C14 C 0.4074(14) 0.1317(10) 0.3430(5)
H18 H 0.4628 0.0723 0.3203
C15 C 0.3742(14) 0.1153(10) 0.4091(5)
H19 H 0.4084 0.0466 0.4291
C16 C 0.2916(12) 0.2004(10) 0.4442(4)
C17 C 0.2467(13) 0.1712(10) 0.5126(5)
C18 C 0.2497(11) 0.3073(9) 0.4154(4)
C19 C 0.1728(13) 0.4020(11) 0.4486(5)
H20 H 0.1487 0.3951 0.4924
C20 C 0.1333(14) 0.5018(13) 0.4188(7)
H21 H 0.0799 0.5617 0.4417
C21 C 0.1724(16) 0.5152(11) 0.3536(6)
H22 H 0.1488 0.5846 0.3339
C22 C 0.2444(13) 0.4281(10) 0.3189(5)
H23 H 0.2679 0.4384 0.2753
C23 C 0.2842(11) 0.3220(9) 0.3478(4)
C24 C 0.3603(10) 0.2335(7) 0.0116(4)
C25 C 0.3091(9) 0.2117(7) -0.0535(4)
C26 C 0.3799(10) 0.1134(7) -0.0802(4)
H24 H 0.4460 0.0620 -0.0548
C27 C 0.3571(10) 0.0873(7) -0.1434(4)
H25 H 0.4066 0.0196 -0.1593
C28 C 0.2601(10) 0.1629(8) -0.1823(4)
C29 C 0.2300(11) 0.1339(9) -0.2500(5)
C30 C 0.1822(10) 0.2653(7) -0.1574(4)
C31 C 0.2022(10) 0.2882(7) -0.0910(4)
C32 C 0.1133(11) 0.3877(7) -0.0667(5)
H26 H 0.1233 0.4044 -0.0238
C33 C 0.0119(13) 0.4607(9) -0.1053(5)
H27 H -0.0478 0.5240 -0.0876
C34 C -0.0014(14) 0.4400(10) -0.1699(6)
H28 H -0.0666 0.4911 -0.1958
C35 C 0.0782(12) 0.3474(9) -0.1955(5)
H29 H 0.0668 0.3352 -0.2389
C36 C -0.1751(19) 0.2074(14) 0.5891(8)
H30 H -0.1365 0.2360 0.5521
C37 C -0.197(2) 0.139(2) 0.6807(11)
H31 H -0.1733 0.1090 0.7221
C38 C -0.339(2) 0.1723(19) 0.6547(14)
H32 H -0.4285 0.1648 0.6744
C39 C -0.445(3) 0.271(4) 0.5538(16)
H33 H -0.5216 0.2304 0.5544
H34 H -0.4036 0.2708 0.5100
C40 C -0.518(4) 0.389(3) 0.571(2)
H35 H -0.4408 0.4293 0.5693
H36 H -0.5898 0.4211 0.5385
C41 C -0.586(6) 0.405(4) 0.6281(19)
H37 H -0.5182 0.3743 0.6626
H38 H -0.6702 0.3713 0.6309
C42 C -0.645(3) 0.538(2) 0.6334(18)
H39 H -0.5664 0.5684 0.6495
H40 H -0.6743 0.5722 0.5913
C43 C -0.769(3) 0.5559(19) 0.6773(10)
H41 H -0.7430 0.5034 0.7133
H42 H -0.8513 0.5384 0.6555
C44 C -0.824(3) 0.6617(14) 0.7040(10)
H43 H -0.7540 0.6697 0.7365
H44 H -0.9181 0.6623 0.7266
C45 C -0.7987(15) 0.8465(11) 0.6695(5)
H45 H -0.7391 0.8540 0.7036
C46 C -0.924(2) 0.7738(15) 0.6076(12)
H46 H -0.9688 0.7254 0.5878
C47 C -0.923(3) 0.8780(16) 0.5870(13)
H47 H -0.9720 0.9140 0.5509
N2 N 0.4700(11) 0.4631(6) 0.1193(5)
N3 N 0.3838(12) 0.6379(8) 0.0985(6)
N4 N -0.0302(9) 1.1631(7) 0.1540(4)
C48 C -0.1582(12) 1.3076(9) 0.1026(6)
H48 H -0.1854 1.3754 0.0810
N5 N -0.0962(13) 0.1595(9) 0.6335(6)
N6 N -0.3231(15) 0.2148(12) 0.5991(10)
N7 N -0.8487(15) 0.7575(9) 0.6615(6)
N8 N -0.8414(12) 0.9207(7) 0.6252(4)
O1 O 0.3112(12) 0.3251(8) 0.0356(4)
O2 O 0.4531(9) 0.1633(6) 0.0405(3)
O3 O 0.1571(13) 0.0646(9) -0.2538(3)
O4 O 0.2818(16) 0.1699(13) -0.2964(4)
O5 O 0.5207(11) 0.1878(9) 0.2203(4)
O6 O 0.3033(9) 0.2923(8) 0.2035(3)
O7 O 0.1243(14) 0.2287(10) 0.5366(5)
O8 O 0.3195(14) 0.0987(10) 0.5430(5)
Cd1 Cd 0.48976(7) 0.27929(5) 0.11855(3)
Cd2 Cd 0.15769(8) 0.09891(6) 0.62845(3)
N1_2 N 0.7464(9) 0.2378(7) 0.1181(4)
N8_2 N 0.1586(12) -0.0793(7) 0.6252(4)
O3_2 O 0.1571(13) 0.0646(9) 0.7462(3)
O4_2 O 0.2818(16) 0.1699(13) 0.7036(4)
Cd1_2 Cd -0.51024(7) 1.27929(5) 0.11855(3)
Cd2_2 Cd -0.84231(8) 1.09891(6) 0.62845(3)
Cd2_3 Cd 0.15769(8) 0.09891(6) -0.37155(3)
loop_
_geom_bond_atom_site_label_1
_geom_bond_atom_site_label_2
_geom_bond_site_symmetry_1
_geom_bond_site_symmetry_2
C1 H1 1_555 1_555
C2 C1 1_555 1_555
H2 C2 1_555 1_555
C3 H3 1_555 1_555
C4 H4 1_555 1_555
H5 C4 1_555 1_555
C5 C4 1_555 1_555
H6 C5 1_555 1_555
H7 C5 1_555 1_555
C6 C5 1_555 1_555
H8 C6 1_555 1_555
H9 C6 1_555 1_555
C7 C6 1_555 1_555
H10 C7 1_555 1_555
H11 C7 1_555 1_555
C8 C7 1_555 1_555
H12 C8 1_555 1_555
H13 C8 1_555 1_555
C9 C8 1_555 1_555
H14 C9 1_555 1_555
H15 C9 1_555 1_555
C10 H16 1_555 1_555
N1 C10 1_555 1_555
C11 H17 1_555 1_555
C12 C13 1_555 1_555
C13 C14 1_555 1_555
C14 H18 1_555 1_555
C15 C14 1_555 1_555
H19 C15 1_555 1_555
C16 C15 1_555 1_555
C17 C16 1_555 1_555
C18 C16 1_555 1_555
C19 C18 1_555 1_555
H20 C19 1_555 1_555
C20 C19 1_555 1_555
H21 C20 1_555 1_555
C21 C20 1_555 1_555
H22 C21 1_555 1_555
C22 C21 1_555 1_555
H23 C22 1_555 1_555
C23 C13 1_555 1_555
C24 C25 1_555 1_555
C25 C26 1_555 1_555
C26 H24 1_555 1_555
C27 C26 1_555 1_555
H25 C27 1_555 1_555
C28 C27 1_555 1_555
C29 C28 1_555 1_555
C30 C28 1_555 1_555
C31 C25 1_555 1_555
C32 C31 1_555 1_555
H26 C32 1_555 1_555
C33 C32 1_555 1_555
H27 C33 1_555 1_555
C34 C33 1_555 1_555
H28 C34 1_555 1_555
C35 C30 1_555 1_555
H29 C35 1_555 1_555
C36 H30 1_555 1_555
C37 H31 1_555 1_555
C38 C37 1_555 1_555
H32 C38 1_555 1_555
C39 H33 1_555 1_555
H34 C39 1_555 1_555
C40 C39 1_555 1_555
H35 C40 1_555 1_555
H36 C40 1_555 1_555
C41 C40 1_555 1_555
H37 C41 1_555 1_555
H38 C41 1_555 1_555
C42 C41 1_555 1_555
H39 C42 1_555 1_555
H40 C42 1_555 1_555
C43 C42 1_555 1_555
H41 C43 1_555 1_555
H42 C43 1_555 1_555
C44 C43 1_555 1_555
H43 C44 1_555 1_555
H44 C44 1_555 1_555
C45 H45 1_555 1_555
C46 H46 1_555 1_555
C47 C46 1_555 1_555
H47 C47 1_555 1_555
N2 C1 1_555 1_555
N3 C2 1_555 1_555
N4 C9 1_555 1_555
C48 N1 1_555 1_555
H48 C48 1_555 1_555
N5 C36 1_555 1_555
N6 C36 1_555 1_555
N7 C44 1_555 1_555
N8 C45 1_555 1_555
O1 C24 1_555 1_555
O2 C24 1_555 1_555
O3 C29 1_555 1_555
O4 C29 1_555 1_555
O5 C12 1_555 1_555
O6 C12 1_555 1_555
O7 C17 1_555 1_555
O8 C17 1_555 1_555
Cd1 N2 1_555 1_555
Cd2 N5 1_555 1_555
N1_2 Cd1 1_555 1_555
N8_2 Cd2 1_555 1_555
O3_2 Cd2 1_555 1_555
O4_2 Cd2 1_555 1_555
Cd1_2 N1 1_555 1_555
Cd2_2 N8 1_555 1_555
Cd2_3 O3 1_555 1_555
C3 N2 1_555 1_555
C3 N3 1_555 1_555
C4 N3 1_555 1_555
C10 N4 1_555 1_555
C11 N4 1_555 1_555
C11 C48 1_555 1_555
C18 C23 1_555 1_555
C22 C23 1_555 1_555
C30 C31 1_555 1_555
C34 C35 1_555 1_555
C37 N5 1_555 1_555
C38 N6 1_555 1_555
C39 N6 1_555 1_555
C45 N7 1_555 1_555
C46 N7 1_555 1_555
C47 N8 1_555 1_555
O1 Cd1 1_555 1_555
O2 Cd1 1_555 1_555
O4 Cd2_3 1_555 1_555
O5 Cd1 1_555 1_555
O6 Cd1 1_555 1_555
O7 Cd2 1_555 1_555
O8 Cd2 1_555 1_555

#END
