
#######################################################################
#
#                 Cambridge Crystallographic Data Centre
#                                CCDC 
#
#######################################################################
#
# If this CIF has been generated from an entry in the Cambridge 
# Structural Database, then it will include bibliographic, chemical, 
# crystal, experimental, refinement or atomic coordinate data resulting 
# from the CCDC's data processing and validation procedures.
#
#######################################################################

data_OPEQIK
_symmetry_cell_setting           monoclinic
_symmetry_space_group_name_H-M   'P 21/n'
_symmetry_Int_Tables_number      14
_space_group_name_Hall           '-P 2yn'
loop_
_symmetry_equiv_pos_site_id
_symmetry_equiv_pos_as_xyz
1 x,y,z
2 1/2-x,1/2+y,1/2-z
3 -x,-y,-z
4 1/2+x,1/2-y,1/2+z
_cell_length_a                   15.354(5)
_cell_length_b                   15.174(5)
_cell_length_c                   16.169(5)
_cell_angle_alpha                90
_cell_angle_beta                 117.440(5)
_cell_angle_gamma                90
_cell_volume                     3343.26
loop_
_atom_site_label
_atom_site_type_symbol
_atom_site_fract_x
_atom_site_fract_y
_atom_site_fract_z
C1 C 0.9294(3) 0.1017(3) 0.0451(3)
H1 H 0.9047 0.1529 0.0106
C2 C 1.0252(3) 0.0817(4) 0.0938(4)
H2 H 1.0776 0.1154 0.0980
C3 C 0.9378(3) -0.0216(3) 0.1082(3)
H3 H 0.9208 -0.0744 0.1262
C4 C 1.1210(3) -0.0411(4) 0.1996(4)
H4 H 1.1697 -0.0341 0.1778
H5 H 1.1077 -0.1036 0.1997
C5 C 1.1614(4) -0.0068(6) 0.2963(5)
H6 H 1.1676 0.0567 0.2946
H7 H 1.2269 -0.0307 0.3324
C6 C 1.1018(6) -0.0278(11) 0.3457(7)
H8 H 1.0944 0.0268 0.3730
H9 H 1.0369 -0.0442 0.2981
C7 C 1.1277(7) -0.0852(7) 0.4081(8)
H10 H 1.1965 -0.0733 0.4488
H11 H 1.1259 -0.1403 0.3770
C8 C 1.0842(6) -0.1061(7) 0.4725(6)
H12 H 1.0723 -0.0504 0.4948
H13 H 1.0206 -0.1328 0.4349
C9 C 1.1288(8) -0.1550(12) 0.5431(10)
H14 H 1.1958 -0.1335 0.5751
H15 H 1.1318 -0.2132 0.5197
C10 C 1.0466(3) -0.2348(3) 0.6182(4)
H16 H 1.0218 -0.2791 0.5736
C11 C 1.0837(5) -0.1575(6) 0.7418(5)
H17 H 1.0899 -0.1372 0.7985
C12 C 1.1194(6) -0.1208(5) 0.6885(8)
H18 H 1.1555 -0.0688 0.7030
C13 C 0.6861(3) -0.1382(2) -0.1355(3)
C14 C 0.7290(2) -0.2019(2) -0.1781(2)
C15 C 0.8089(2) -0.2581(2) -0.1223(2)
C16 C 0.8471(3) -0.2631(3) -0.0239(3)
H19 H 0.8207 -0.2275 0.0058
C17 C 0.9216(4) -0.3190(3) 0.0273(3)
H20 H 0.9460 -0.3213 0.0916
C18 C 0.6933(3) -0.2009(2) -0.2723(3)
H21 H 0.6409 -0.1642 -0.3084
C19 C 0.7344(3) -0.2546(2) -0.3154(3)
H22 H 0.7085 -0.2532 -0.3800
C20 C 0.8115(2) -0.3089(2) -0.2652(2)
C21 C 0.8517(2) -0.3124(2) -0.1659(2)
C22 C 0.9285(3) -0.3693(3) -0.1100(3)
H23 H 0.9570 -0.4049 -0.1377
C23 C 0.8473(3) -0.3670(2) -0.3195(2)
C24 C 0.9621(4) -0.3734(3) -0.0163(3)
H24 H 1.0122 -0.4124 0.0192
C25 C 0.6977(2) -0.08296(19) 0.1356(2)
C26 C 0.7500(2) -0.13928(19) 0.2218(2)
C27 C 0.8145(2) -0.2012(2) 0.2220(2)
H25 H 0.8320 -0.2014 0.1741
C28 C 0.7316(2) -0.13196(18) 0.3005(2)
C29 C 0.6761(2) -0.0624(2) 0.3109(2)
H26 H 0.6488 -0.0200 0.2643
C30 C 0.6617(3) -0.0562(2) 0.3874(3)
H27 H 0.6259 -0.0094 0.3932
C31 C 0.7718(2) -0.19710(19) 0.3721(2)
C32 C 0.8305(2) -0.26662(19) 0.3639(2)
C33 C 0.8552(2) -0.2647(2) 0.2930(2)
H28 H 0.8994 -0.3059 0.2917
C34 C 0.7536(3) -0.1889(2) 0.4502(2)
H29 H 0.7784 -0.2312 0.4971
C35 C 0.8581(2) -0.34720(18) 0.4251(2)
C36 C 0.7009(3) -0.1205(3) 0.4579(3)
H30 H 0.6905 -0.1160 0.5100
O1 O 0.74532(19) -0.0863(2) -0.0780(2)
O2 O 0.59570(19) -0.1392(2) -0.1637(2)
O3 O 0.93637(18) -0.3731(2) -0.29659(19)
O4 O 0.78046(19) -0.4033(2) -0.3874(2)
O5 O 0.74610(19) -0.0631(2) 0.0953(2)
O6 O 0.60994(15) -0.06567(14) 0.10922(14)
O7 O 0.94089(15) -0.37925(12) 0.44838(15)
O8 O 0.79419(19) -0.37659(18) 0.4439(2)
O9 O 0.57017(14) -0.00359(12) -0.08333(13)
Ni1 Ni 0.5000 0.0000 0.0000
Ni2 Ni 0.72407(3) 0.01750(3) -0.01057(3)
N1 N 0.87415(19) 0.03606(18) 0.05379(18)
N2 N 1.0305(2) 0.0040(2) 0.1350(2)
N3 N 1.0969(4) -0.1673(4) 0.6136(5)
N4 N 1.0358(3) -0.2319(3) 0.6937(3)
H31 H 0.569(3) -0.0511(13) -0.111(2)
H32 H 0.551(3) 0.0371(15) -0.121(2)
C1B C 0.0706(3) -0.1017(3) -0.0451(3)
H1B H 0.0953 -0.1529 -0.0106
C2B C -0.0252(3) -0.0817(4) -0.0938(4)
H2B H -0.0776 -0.1154 -0.0980
C3B C 0.0622(3) 0.0216(3) -0.1082(3)
H3B H 0.0792 0.0744 -0.1262
C4B C -0.1210(3) 0.0411(4) -0.1996(4)
H4B H -0.1697 0.0341 -0.1778
H5B H -0.1077 0.1036 -0.1997
C5B C -0.1614(4) 0.0068(6) -0.2963(5)
H6B H -0.1676 -0.0567 -0.2946
H7B H -0.2269 0.0307 -0.3324
C6B C -0.1018(6) 0.0278(11) -0.3457(7)
H8B H -0.0944 -0.0268 -0.3730
H9B H -0.0369 0.0442 -0.2981
C7B C -0.1277(7) 0.0852(7) -0.4081(8)
H10B H -0.1965 0.0733 -0.4488
H11B H -0.1259 0.1403 -0.3770
C8B C -0.0842(6) 0.1061(7) -0.4725(6)
H12B H -0.0723 0.0504 -0.4948
H13B H -0.0206 0.1328 -0.4349
C9B C -0.1288(8) 0.1550(12) -0.5431(10)
H14B H -0.1958 0.1335 -0.5751
H15B H -0.1318 0.2132 -0.5197
C10B C -0.0466(3) 0.2348(3) -0.6182(4)
H16B H -0.0218 0.2791 -0.5736
C11B C -0.0837(5) 0.1575(6) -0.7418(5)
H17B H -0.0899 0.1372 -0.7985
C12B C -0.1194(6) 0.1208(5) -0.6885(8)
H18B H -0.1555 0.0688 -0.7030
C13B C 0.3139(3) 0.1382(2) 0.1355(3)
C14B C 0.2710(2) 0.2019(2) 0.1781(2)
C15B C 0.1911(2) 0.2581(2) 0.1223(2)
C16B C 0.1529(3) 0.2631(3) 0.0239(3)
H19B H 0.1793 0.2275 -0.0058
C17B C 0.0784(4) 0.3190(3) -0.0273(3)
H20B H 0.0540 0.3213 -0.0916
C18B C 0.3067(3) 0.2009(2) 0.2723(3)
H21B H 0.3591 0.1642 0.3084
C19B C 0.2656(3) 0.2546(2) 0.3154(3)
H22B H 0.2915 0.2532 0.3800
C20B C 0.1885(2) 0.3089(2) 0.2652(2)
C21B C 0.1483(2) 0.3124(2) 0.1659(2)
C22B C 0.0715(3) 0.3693(3) 0.1100(3)
H23B H 0.0430 0.4049 0.1377
C23B C 0.1527(3) 0.3670(2) 0.3195(2)
C24B C 0.0379(4) 0.3734(3) 0.0163(3)
H24B H -0.0122 0.4124 -0.0192
C25B C 0.3023(2) 0.08296(19) -0.1356(2)
C26B C 0.2500(2) 0.13928(19) -0.2218(2)
C27B C 0.1855(2) 0.2012(2) -0.2220(2)
H25B H 0.1680 0.2014 -0.1741
C28B C 0.2684(2) 0.13196(18) -0.3005(2)
C29B C 0.3239(2) 0.0624(2) -0.3109(2)
H26B H 0.3512 0.0200 -0.2643
C30B C 0.3383(3) 0.0562(2) -0.3874(3)
H27B H 0.3741 0.0094 -0.3932
C31B C 0.2282(2) 0.19710(19) -0.3721(2)
C32B C 0.1695(2) 0.26662(19) -0.3639(2)
C33B C 0.1448(2) 0.2647(2) -0.2930(2)
H28B H 0.1006 0.3059 -0.2917
C34B C 0.2464(3) 0.1889(2) -0.4502(2)
H29B H 0.2216 0.2312 -0.4971
C35B C 0.1419(2) 0.34720(18) -0.4251(2)
C36B C 0.2991(3) 0.1205(3) -0.4579(3)
H30B H 0.3095 0.1160 -0.5100
O1B O 0.25468(19) 0.0863(2) 0.0780(2)
O2B O 0.40430(19) 0.1392(2) 0.1637(2)
O3B O 0.06363(18) 0.3731(2) 0.29659(19)
O4B O 0.21954(19) 0.4033(2) 0.3874(2)
O4A O 0.71954(19) 0.0967(2) -0.1126(2)
O4C O 0.28046(19) -0.0967(2) 0.1126(2)
O5B O 0.25390(19) 0.0631(2) -0.0953(2)
O6B O 0.39006(15) 0.06567(14) -0.10922(14)
O7B O 0.05911(15) 0.37925(12) -0.44838(15)
O7A O 0.55911(15) 0.12075(12) 0.05162(15)
O7C O 0.44089(15) -0.12075(12) -0.05162(15)
O8B O 0.20581(19) 0.37659(18) -0.4439(2)
O8A O 0.70581(19) 0.12341(18) 0.0561(2)
O8C O 0.29419(19) -0.12341(18) -0.0561(2)
O9B O 0.42983(14) 0.00359(12) 0.08333(13)
Ni1A Ni 0.0000 0.5000 -0.5000
Ni1A_2 Ni 1.0000 -0.5000 0.5000
Ni2B Ni 0.27593(3) -0.01750(3) 0.01057(3)
Ni2A Ni 0.77593(3) -0.48250(3) -0.48943(3)
Ni2A_2 Ni 0.77593(3) -0.48250(3) 0.51057(3)
Ni2C Ni 0.22407(3) 0.48250(3) -0.51057(3)
Ni2C_2 Ni 0.22407(3) 0.48250(3) 0.48943(3)
N1B N 0.12585(19) -0.03606(18) -0.05379(18)
N2B N -0.0305(2) -0.0040(2) -0.1350(2)
N3B N -0.0969(4) 0.1673(4) -0.6136(5)
N4B N -0.0358(3) 0.2319(3) -0.6937(3)
H31B H 0.431(3) 0.0511(13) 0.111(2)
H32B H 0.449(3) -0.0371(15) 0.121(2)
loop_
_geom_bond_atom_site_label_1
_geom_bond_atom_site_label_2
_geom_bond_site_symmetry_1
_geom_bond_site_symmetry_2
C1 H1 1_555 1_555
C2 C1 1_555 1_555
H2 C2 1_555 1_555
C3 H3 1_555 1_555
C4 H4 1_555 1_555
H5 C4 1_555 1_555
C5 C4 1_555 1_555
H6 C5 1_555 1_555
H7 C5 1_555 1_555
C6 C5 1_555 1_555
H8 C6 1_555 1_555
H9 C6 1_555 1_555
C7 C6 1_555 1_555
H10 C7 1_555 1_555
H11 C7 1_555 1_555
C8 C7 1_555 1_555
H12 C8 1_555 1_555
H13 C8 1_555 1_555
C9 C8 1_555 1_555
H14 C9 1_555 1_555
H15 C9 1_555 1_555
C10 H16 1_555 1_555
C11 H17 1_555 1_555
C12 C11 1_555 1_555
H18 C12 1_555 1_555
C13 C14 1_555 1_555
C14 C15 1_555 1_555
C15 C16 1_555 1_555
C16 H19 1_555 1_555
C17 C16 1_555 1_555
H20 C17 1_555 1_555
C18 C14 1_555 1_555
H21 C18 1_555 1_555
C19 C18 1_555 1_555
H22 C19 1_555 1_555
C20 C19 1_555 1_555
C21 C15 1_555 1_555
C22 C21 1_555 1_555
H23 C22 1_555 1_555
C23 C20 1_555 1_555
C24 C17 1_555 1_555
H24 C24 1_555 1_555
C25 C26 1_555 1_555
C26 C27 1_555 1_555
C27 H25 1_555 1_555
C28 C26 1_555 1_555
C29 C28 1_555 1_555
H26 C29 1_555 1_555
C30 C29 1_555 1_555
H27 C30 1_555 1_555
C31 C28 1_555 1_555
C32 C31 1_555 1_555
C33 C27 1_555 1_555
H28 C33 1_555 1_555
C34 C31 1_555 1_555
H29 C34 1_555 1_555
C35 C32 1_555 1_555
C36 C30 1_555 1_555
H30 C36 1_555 1_555
O1 C13 1_555 1_555
O2 C13 1_555 1_555
O3 C23 1_555 1_555
O4 C23 1_555 1_555
O5 C25 1_555 1_555
O6 C25 1_555 1_555
O7 C35 1_555 1_555
O8 C35 1_555 1_555
O9 Ni1 1_555 1_555
Ni1 O6 1_555 1_555
Ni2 O1 1_555 1_555
N1 C1 1_555 1_555
N2 C2 1_555 1_555
N3 C9 1_555 1_555
N4 C10 1_555 1_555
H31 O9 1_555 1_555
H32 O9 1_555 1_555
C1B H1B 1_555 1_555
C2B C1B 1_555 1_555
H2B C2B 1_555 1_555
C3B H3B 1_555 1_555
C4B H4B 1_555 1_555
H5B C4B 1_555 1_555
C5B C4B 1_555 1_555
H6B C5B 1_555 1_555
H7B C5B 1_555 1_555
C6B C5B 1_555 1_555
H8B C6B 1_555 1_555
H9B C6B 1_555 1_555
C7B C6B 1_555 1_555
H10B C7B 1_555 1_555
H11B C7B 1_555 1_555
C8B C7B 1_555 1_555
H12B C8B 1_555 1_555
H13B C8B 1_555 1_555
C9B C8B 1_555 1_555
H14B C9B 1_555 1_555
H15B C9B 1_555 1_555
C10B H16B 1_555 1_555
C11B H17B 1_555 1_555
C12B C11B 1_555 1_555
H18B C12B 1_555 1_555
C13B C14B 1_555 1_555
C14B C15B 1_555 1_555
C15B C16B 1_555 1_555
C16B H19B 1_555 1_555
C17B C16B 1_555 1_555
H20B C17B 1_555 1_555
C18B C14B 1_555 1_555
H21B C18B 1_555 1_555
C19B C18B 1_555 1_555
H22B C19B 1_555 1_555
C20B C19B 1_555 1_555
C21B C15B 1_555 1_555
C22B C21B 1_555 1_555
H23B C22B 1_555 1_555
C23B C20B 1_555 1_555
C24B C17B 1_555 1_555
H24B C24B 1_555 1_555
C25B C26B 1_555 1_555
C26B C27B 1_555 1_555
C27B H25B 1_555 1_555
C28B C26B 1_555 1_555
C29B C28B 1_555 1_555
H26B C29B 1_555 1_555
C30B C29B 1_555 1_555
H27B C30B 1_555 1_555
C31B C28B 1_555 1_555
C32B C31B 1_555 1_555
C33B C27B 1_555 1_555
H28B C33B 1_555 1_555
C34B C31B 1_555 1_555
H29B C34B 1_555 1_555
C35B C32B 1_555 1_555
C36B C30B 1_555 1_555
H30B C36B 1_555 1_555
O1B C13B 1_555 1_555
O2B C13B 1_555 1_555
O3B C23B 1_555 1_555
O4B C23B 1_555 1_555
O4A Ni2 1_555 1_555
O4C Ni2B 1_555 1_555
O5B C25B 1_555 1_555
O6B Ni1 1_555 1_555
O7B C35B 1_555 1_555
O7A Ni1 1_555 1_555
O7C Ni1 1_555 1_555
O8B C35B 1_555 1_555
O8A Ni2 1_555 1_555
O8C Ni2B 1_555 1_555
O9B Ni1 1_555 1_555
Ni1A O7B 1_555 1_555
Ni1A_2 O7 1_555 1_555
Ni2B O1B 1_555 1_555
Ni2A O4 1_555 1_555
Ni2A_2 O8 1_555 1_555
Ni2C O8B 1_555 1_555
Ni2C_2 O4B 1_555 1_555
N1B C1B 1_555 1_555
N2B C2B 1_555 1_555
N3B C9B 1_555 1_555
N4B C10B 1_555 1_555
H31B O9B 1_555 1_555
H32B O9B 1_555 1_555
C3 N1 1_555 1_555
C3 N2 1_555 1_555
C4 N2 1_555 1_555
C10 N3 1_555 1_555
C11 N4 1_555 1_555
C12 N3 1_555 1_555
C20 C21 1_555 1_555
C22 C24 1_555 1_555
C32 C33 1_555 1_555
C34 C36 1_555 1_555
O5 Ni2 1_555 1_555
O9 Ni2 1_555 1_555
Ni2 N1 1_555 1_555
C3B N1B 1_555 1_555
C3B N2B 1_555 1_555
C4B N2B 1_555 1_555
C10B N3B 1_555 1_555
C11B N4B 1_555 1_555
C12B N3B 1_555 1_555
C20B C21B 1_555 1_555
C22B C24B 1_555 1_555
C25B O6B 1_555 1_555
C32B C33B 1_555 1_555
C34B C36B 1_555 1_555
O5B Ni2B 1_555 1_555
O9B Ni2B 1_555 1_555
Ni2B N1B 1_555 1_555

#END
