
#######################################################################
#
#                 Cambridge Crystallographic Data Centre
#                                CCDC 
#
#######################################################################
#
# If this CIF has been generated from an entry in the Cambridge 
# Structural Database, then it will include bibliographic, chemical, 
# crystal, experimental, refinement or atomic coordinate data resulting 
# from the CCDC's data processing and validation procedures.
#
#######################################################################

data_OPESIM
_symmetry_cell_setting           monoclinic
_symmetry_space_group_name_H-M   'P 21/c'
_symmetry_Int_Tables_number      14
_space_group_name_Hall           '-P 2ybc'
loop_
_symmetry_equiv_pos_site_id
_symmetry_equiv_pos_as_xyz
1 x,y,z
2 -x,1/2+y,1/2-z
3 -x,-y,-z
4 x,1/2-y,1/2+z
_cell_length_a                   16.251(3)
_cell_length_b                   15.201(3)
_cell_length_c                   16.358(3)
_cell_angle_alpha                90
_cell_angle_beta                 102.82(3)
_cell_angle_gamma                90
_cell_volume                     3940.21
loop_
_atom_site_label
_atom_site_type_symbol
_atom_site_fract_x
_atom_site_fract_y
_atom_site_fract_z
C1 C 0.4117(2) 0.95863(19) 0.09516(19)
H1 H 0.3580 0.9730 0.1085
H2 H 0.4507 1.0061 0.1156
C2 C 0.05009(19) 0.5603(2) 0.40470(19)
H3 H 0.0100 0.5723 0.4392
H4 H 0.0406 0.5005 0.3839
C3 C 0.30892(19) 0.78884(19) 0.10051(19)
H5 H 0.2814 0.8360 0.1190
C4 C 0.26436(19) 0.71557(19) 0.0693(2)
H6 H 0.2063 0.7157 0.0648
C5 C 0.38178(19) 0.64909(19) 0.04649(18)
H7 H 0.4079 0.6010 0.0279
C6 C 0.43029(18) 0.72213(19) 0.07439(18)
H8 H 0.4871 0.7232 0.0727
C7 C 0.39436(18) 0.79338(19) 0.10478(17)
C8 C 0.4455(2) 0.87307(19) 0.1395(2)
H9 H 0.5033 0.8646 0.1344
H10 H 0.4459 0.8784 0.1987
C9 C 0.4002(2) 0.95124(19) 0.00237(19)
H11 H 0.3617 0.9030 -0.0167
H12 H 0.4542 0.9355 -0.0096
C10 C 0.36761(17) 1.03120(18) -0.04885(18)
C11 C 0.36872(19) 1.1158(2) -0.01849(18)
H13 H 0.3911 1.1268 0.0380
C12 C 0.33657(18) 1.18469(19) -0.07181(18)
H14 H 0.3388 1.2414 -0.0501
C13 C 0.3030(2) 1.09022(19) -0.18124(18)
H15 H 0.2806 1.0804 -0.2379
C14 C 0.33370(19) 1.0201(2) -0.13263(19)
H16 H 0.3317 0.9643 -0.1563
C15 C 0.04251(18) 0.54377(19) 0.19746(19)
H17 H -0.0116 0.5221 0.1946
C16 C 0.08467(17) 0.52187(19) 0.13613(19)
H18 H 0.0571 0.4869 0.0918
C17 C 0.19996(18) 0.59829(19) 0.20179(17)
H19 H 0.2553 0.6162 0.2051
C18 C 0.16108(18) 0.62489(19) 0.26394(17)
H20 H 0.1895 0.6613 0.3067
C19 C 0.07979(18) 0.59763(19) 0.26309(18)
C20 C 0.03440(19) 0.6238(2) 0.33042(18)
H21 H -0.0257 0.6265 0.3063
H22 H 0.0527 0.6822 0.3505
C21 C 0.13844(19) 0.5675(2) 0.45783(19)
H23 H 0.1785 0.5601 0.4223
H24 H 0.1463 0.6260 0.4821
C22 C 0.15685(17) 0.50043(19) 0.52730(17)
C23 C 0.17176(19) 0.4141(2) 0.51047(18)
H25 H 0.1679 0.3959 0.4554
C24 C 0.19249(19) 0.35435(19) 0.57500(18)
H26 H 0.2029 0.2964 0.5622
C25 C 0.18232(18) 0.45920(19) 0.67135(18)
H27 H 0.1858 0.4754 0.7268
C26 C 0.16098(17) 0.52241(19) 0.61022(18)
H28 H 0.1494 0.5796 0.6245
C27 C 0.11978(16) 0.33907(17) -0.03673(16)
C28 C 0.04042(17) 0.30773(18) -0.02125(18)
C29 C -0.00081(18) 0.25417(19) -0.09424(19)
C30 C 0.05800(18) 0.25126(18) -0.15113(18)
C31 C 0.12857(16) 0.30906(17) -0.11726(16)
C32 C 0.40399(16) 0.26513(17) 0.69313(16)
C33 C 0.41474(17) 0.33858(18) 0.75007(17)
C34 C 0.49643(18) 0.37772(19) 0.75274(18)
C35 C 0.54053(18) 0.32009(19) 0.70333(19)
C36 C 0.48019(18) 0.25158(19) 0.66358(19)
N1 N 0.29959(14) 0.64371(15) 0.04472(15)
N2 N 0.30292(15) 1.17258(15) -0.15244(14)
N3 N 0.16323(14) 0.54835(15) 0.13697(14)
N4 N 0.19832(14) 0.37578(15) 0.65487(14)
O4 O 0.17123(12) 0.38490(13) 0.01564(12)
O5 O 0.18821(12) 0.32956(13) -0.15256(12)
O6 O 0.04553(14) 0.20759(16) -0.21609(14)
O7 O -0.06985(13) 0.21891(16) -0.10547(15)
O8 O 0.01266(13) 0.32339(15) 0.04126(13)
O9 O 0.36017(12) 0.36220(13) 0.78941(12)
O10 O 0.33644(11) 0.22084(12) 0.67574(12)
O11 O 0.49291(14) 0.19431(16) 0.61465(16)
O12 O 0.61406(13) 0.32729(16) 0.69728(16)
O13 O 0.52473(13) 0.44593(14) 0.79016(14)
O14 O 0.33461(12) 0.45837(13) 0.12039(13)
O15 O 0.12157(13) 0.57257(16) -0.05591(16)
O16 O 0.27810(14) 0.47989(15) -0.07850(14)
O17 O 0.15863(14) 0.18056(14) 0.68875(14)
Mn1 Mn 0.22853(2) 0.51479(3) 0.02962(3)
Mn2 Mn 0.24783(3) 0.27579(3) 0.75363(3)
H29 H 0.3346 0.3955 0.1322
H30 H 0.3743 0.4843 0.1640
H31 H 0.1207 0.5840 -0.0957
H32 H 0.0786 0.5987 -0.0413
H33 H 0.2605 0.4322 -0.1039
H34 H 0.3285 0.4999 -0.0928
H35 H 0.1505 0.1621 0.6368
H36 H 0.1103 0.1885 0.7121
N2_2 N 0.30292(15) 0.17258(15) 0.84756(14)
O5_2 O 0.18821(12) 0.32956(13) 0.84744(12)
Mn2_2 Mn 0.24783(3) 1.27579(3) -0.24637(3)
Mn2_3 Mn 0.24783(3) 0.27579(3) -0.24637(3)
O1 O 0.4165(2) 0.5408(2) -0.1260(2)
H37 H 0.4480 0.6015 -0.1241
H38 H 0.4452 0.4956 -0.0841
O2 O 0.2867(2) 0.6702(3) -0.2023(3)
H39 H 0.2861 0.7136 -0.1481
H40 H 0.3306 0.6321 -0.1892
O3 O 0.12264(17) 0.62345(18) -0.21181(15)
H41 H 0.1780 0.6460 -0.2127
H42 H 0.0699 0.6557 -0.2367
loop_
_geom_bond_atom_site_label_1
_geom_bond_atom_site_label_2
_geom_bond_site_symmetry_1
_geom_bond_site_symmetry_2
C1 H1 1_555 1_555
H2 C1 1_555 1_555
C2 H3 1_555 1_555
H4 C2 1_555 1_555
O1 H37 1_555 1_555
O2 H39 1_555 1_555
O3 H41 1_555 1_555
C3 H5 1_555 1_555
C4 C3 1_555 1_555
H6 C4 1_555 1_555
C5 H7 1_555 1_555
C6 C5 1_555 1_555
H8 C6 1_555 1_555
C7 C3 1_555 1_555
C8 C1 1_555 1_555
H9 C8 1_555 1_555
H10 C8 1_555 1_555
C9 C1 1_555 1_555
H11 C9 1_555 1_555
H12 C9 1_555 1_555
C10 C9 1_555 1_555
C11 C10 1_555 1_555
H13 C11 1_555 1_555
C12 C11 1_555 1_555
H14 C12 1_555 1_555
C13 H15 1_555 1_555
C14 C10 1_555 1_555
H16 C14 1_555 1_555
C15 H17 1_555 1_555
C16 C15 1_555 1_555
H18 C16 1_555 1_555
C17 H19 1_555 1_555
C18 C17 1_555 1_555
H20 C18 1_555 1_555
C19 C15 1_555 1_555
C20 C2 1_555 1_555
H21 C20 1_555 1_555
H22 C20 1_555 1_555
C21 C2 1_555 1_555
H23 C21 1_555 1_555
H24 C21 1_555 1_555
C22 C21 1_555 1_555
C23 C22 1_555 1_555
H25 C23 1_555 1_555
C24 C23 1_555 1_555
H26 C24 1_555 1_555
C25 H27 1_555 1_555
C26 C22 1_555 1_555
H28 C26 1_555 1_555
C27 C28 1_555 1_555
C28 C29 1_555 1_555
C29 C30 1_555 1_555
C30 C31 1_555 1_555
C31 C27 1_555 1_555
C32 C33 1_555 1_555
C33 C34 1_555 1_555
C34 C35 1_555 1_555
C35 C36 1_555 1_555
C36 C32 1_555 1_555
N1 C4 1_555 1_555
N2 C12 1_555 1_555
N3 C16 1_555 1_555
N4 C24 1_555 1_555
O4 C27 1_555 1_555
O5 C31 1_555 1_555
O6 C30 1_555 1_555
O7 C29 1_555 1_555
O8 C28 1_555 1_555
O9 C33 1_555 1_555
O10 C32 1_555 1_555
O11 C36 1_555 1_555
O12 C35 1_555 1_555
O13 C34 1_555 1_555
O14 Mn1 1_555 1_555
O15 Mn1 1_555 1_555
O16 Mn1 1_555 1_555
O17 Mn2 1_555 1_555
Mn1 N1 1_555 1_555
Mn2 N4 1_555 1_555
H29 O14 1_555 1_555
H30 O14 1_555 1_555
H31 O15 1_555 1_555
H32 O15 1_555 1_555
H33 O16 1_555 1_555
H34 O16 1_555 1_555
H35 O17 1_555 1_555
H36 O17 1_555 1_555
H38 O1 1_555 1_555
H40 O2 1_555 1_555
H42 O3 1_555 1_555
N2_2 Mn2 1_555 1_555
O5_2 Mn2 1_555 1_555
Mn2_2 N2 1_555 1_555
Mn2_3 O5 1_555 1_555
C5 N1 1_555 1_555
C6 C7 1_555 1_555
C7 C8 1_555 1_555
C13 C14 1_555 1_555
C13 N2 1_555 1_555
C17 N3 1_555 1_555
C18 C19 1_555 1_555
C19 C20 1_555 1_555
C25 C26 1_555 1_555
C25 N4 1_555 1_555
N3 Mn1 1_555 1_555
O4 Mn1 1_555 1_555
O9 Mn2 1_555 1_555
O10 Mn2 1_555 1_555

#END
