
#######################################################################
#
#                 Cambridge Crystallographic Data Centre
#                                CCDC 
#
#######################################################################
#
# If this CIF has been generated from an entry in the Cambridge 
# Structural Database, then it will include bibliographic, chemical, 
# crystal, experimental, refinement or atomic coordinate data resulting 
# from the CCDC's data processing and validation procedures.
#
#######################################################################

data_OPESOS
_symmetry_cell_setting           monoclinic
_symmetry_space_group_name_H-M   'P 21/c'
_symmetry_Int_Tables_number      14
_space_group_name_Hall           '-P 2ybc'
loop_
_symmetry_equiv_pos_site_id
_symmetry_equiv_pos_as_xyz
1 x,y,z
2 -x,1/2+y,1/2-z
3 -x,-y,-z
4 x,1/2-y,1/2+z
_cell_length_a                   12.765(3)
_cell_length_b                   32.777(7)
_cell_length_c                   18.378(4)
_cell_angle_alpha                90
_cell_angle_beta                 94.61(3)
_cell_angle_gamma                90
_cell_volume                     7664.45
loop_
_atom_site_label
_atom_site_type_symbol
_atom_site_fract_x
_atom_site_fract_y
_atom_site_fract_z
C1 C 0.5926(4) 0.59169(15) -0.1114(3)
C2 C 1.5154(4) 0.44181(13) 0.3546(2)
C3 C 1.4942(3) 0.47706(11) 0.40520(19)
H1 H 1.4576 0.4667 0.4456
H2 H 1.5609 0.4881 0.4252
C4 C 0.9574(4) 0.77193(14) 0.1264(2)
C5 C 0.0381(3) 0.18745(13) -0.3856(2)
C6 C -0.0302(3) 0.15570(11) -0.4273(2)
H3 H -0.0381 0.1320 -0.3966
H4 H 0.0036 0.1470 -0.4702
C7 C 0.8533(3) 0.83646(12) 0.1460(2)
H5 H 0.8900 0.8487 0.1072
H6 H 0.8436 0.8574 0.1821
C8 C 0.9215(4) 0.80188(14) 0.1817(3)
C9 C 0.0605(4) 0.22370(14) -0.4325(3)
C10 C 0.4895(3) 0.52554(12) -0.0993(2)
H7 H 0.5488 0.5161 -0.0674
H8 H 0.4385 0.5373 -0.0690
C11 C 0.5266(4) 0.55812(15) -0.1498(3)
C12 C 1.5861(3) 0.40926(13) 0.3917(3)
C13 C 1.6915(3) 0.42594(10) 0.4179(2)
C14 C 1.7624(3) 0.43843(12) 0.3688(2)
H9 H 1.7476 0.4338 0.3191
C15 C 1.8527(3) 0.45729(12) 0.3930(2)
H10 H 1.8978 0.4659 0.3588
C16 C 1.8160(3) 0.45046(11) 0.5115(2)
H11 H 1.8352 0.4533 0.5611
C17 C 1.7221(3) 0.43218(11) 0.4902(2)
H12 H 1.6783 0.4238 0.5254
C18 C 0.1668(3) 0.44001(11) -0.5032(2)
N1 N 1.8807(2) 0.46427(9) 0.46427(16)
O1 O 0.12853(19) 0.45826(8) -0.55781(13)
H13 H 0.558(2) 0.6005(10) -0.0722(17)
H14 H 0.610(3) 0.6153(13) -0.144(2)
H15 H 1.540(2) 0.4536(9) 0.3121(17)
H16 H 1.450(3) 0.4304(10) 0.3356(19)
H17 H 1.008(3) 0.7904(10) 0.0927(19)
H18 H 0.902(3) 0.7639(9) 0.0976(18)
H19 H 0.007(2) 0.1954(10) -0.3331(19)
H20 H 0.102(2) 0.1750(8) -0.3669(15)
H34 H 0.880(2) 0.7859(9) 0.2185(17)
H35 H 0.988(2) 0.8141(9) 0.2067(17)
H36 H 0.003(3) 0.2334(11) -0.457(2)
H37 H 0.104(2) 0.2175(10) -0.4651(17)
H38 H 0.563(3) 0.5440(11) -0.186(2)
H39 H 0.468(2) 0.5703(9) -0.1773(18)
H40 H 1.549(2) 0.3971(10) 0.4330(18)
H41 H 1.597(3) 0.3893(12) 0.364(2)
C19 C 0.8653(3) 0.54930(13) -0.1023(2)
H45 H 0.9163 0.5443 -0.1346
C20 C 0.7755(4) 0.56800(13) -0.1277(2)
H46 H 0.7665 0.5759 -0.1764
C21 C 0.6962(3) 0.57562(11) -0.0819(2)
C22 C 0.7179(3) 0.56500(11) -0.0095(2)
H47 H 0.6689 0.5704 0.0241
C23 C 0.8110(3) 0.54667(12) 0.0132(2)
H48 H 0.8239 0.5402 0.0624
C24 C 1.4303(3) 0.51103(11) 0.36910(19)
C25 C 1.3283(3) 0.50556(12) 0.3403(2)
H49 H 1.2976 0.4799 0.3414
C26 C 1.2714(3) 0.53790(12) 0.31000(19)
H50 H 1.2025 0.5333 0.2912
C27 C 1.4093(3) 0.58111(12) 0.33321(19)
H51 H 1.4386 0.6070 0.3314
C28 C 1.4697(3) 0.54971(12) 0.3636(2)
H52 H 1.5390 0.5549 0.3809
C29 C 1.1728(3) 0.70853(12) 0.2215(2)
H53 H 1.2415 0.7126 0.2410
C30 C 1.1188(3) 0.74160(11) 0.1918(2)
H54 H 1.1505 0.7672 0.1926
C31 C 1.0180(3) 0.73687(12) 0.1611(2)
C32 C 0.9763(3) 0.69807(12) 0.1645(2)
H55 H 0.9077 0.6932 0.1454
C33 C 1.0354(3) 0.66643(11) 0.19576(19)
H56 H 1.0049 0.6407 0.1970
C34 C -0.1360(3) 0.17321(11) -0.4501(2)
C35 C -0.1672(3) 0.18109(11) -0.5226(2)
H57 H -0.1246 0.1731 -0.5588
C36 C -0.2608(3) 0.20060(11) -0.5414(2)
H58 H -0.2807 0.2046 -0.5907
C37 C -0.2955(3) 0.20559(12) -0.4232(2)
H59 H -0.3395 0.2140 -0.3881
C38 C -0.2043(3) 0.18514(11) -0.4006(2)
H60 H -0.1892 0.1794 -0.3513
C39 C 0.5783(3) 0.79671(12) 0.1325(2)
H61 H 0.5266 0.7912 0.1640
C40 C 0.6690(3) 0.81350(12) 0.1608(2)
H62 H 0.6786 0.8194 0.2104
C41 C 0.7483(3) 0.82196(11) 0.1152(2)
C42 C 0.7267(3) 0.81400(12) 0.0426(2)
H63 H 0.7764 0.8200 0.0098
C43 C 0.6328(3) 0.79739(11) 0.0178(2)
H64 H 0.6197 0.7927 -0.0320
C44 C 0.1132(3) 0.25865(11) -0.39114(19)
C45 C 0.0601(3) 0.29319(12) -0.3763(2)
H65 H -0.0105 0.2953 -0.3929
C46 C 0.1063(3) 0.32487(11) -0.3382(2)
H66 H 0.0663 0.3478 -0.3291
C47 C 0.2610(3) 0.28964(12) -0.3266(2)
H67 H 0.3315 0.2880 -0.3096
C48 C 0.2174(3) 0.25714(12) -0.3637(2)
H68 H 0.2575 0.2340 -0.3705
C49 C 0.2974(3) 0.45753(12) -0.2091(2)
H69 H 0.2279 0.4588 -0.2285
C50 C 0.3384(3) 0.49061(12) -0.1716(2)
H70 H 0.2973 0.5137 -0.1668
C51 C 0.4406(3) 0.48985(12) -0.1408(2)
C52 C 0.4964(3) 0.45470(13) -0.1517(2)
H71 H 0.5658 0.4527 -0.1325
C53 C 0.4514(3) 0.42269(12) -0.1904(2)
H72 H 0.4919 0.3996 -0.1968
C54 C 1.1143(3) 0.55658(11) 0.0842(2)
C55 C 1.1704(3) 0.56135(12) 0.0193(2)
C56 C 1.2620(3) 0.58738(12) 0.0383(2)
C57 C 1.2553(3) 0.59990(11) 0.11542(19)
C58 C 1.1629(3) 0.58080(11) 0.1404(2)
C59 C 1.1851(3) 0.64833(11) 0.41470(19)
C60 C 1.2782(3) 0.66642(11) 0.3892(2)
C61 C 1.3279(3) 0.69114(11) 0.44536(19)
C62 C 1.2705(3) 0.68773(11) 0.5095(2)
C63 C 1.1776(3) 0.66154(11) 0.4915(2)
C64 C 0.4353(3) 0.30747(11) -0.09744(19)
C65 C 0.3912(3) 0.30914(11) -0.0273(2)
C66 C 0.2936(3) 0.33333(11) -0.0365(2)
C67 C 0.2828(3) 0.34721(11) -0.1133(2)
C68 C 0.3725(3) 0.33132(10) -0.1476(2)
C69 C 0.2771(3) 0.40069(11) -0.4202(2)
C70 C 0.1880(3) 0.41591(10) -0.3844(2)
C71 C 0.1235(3) 0.44047(11) -0.43329(19)
C72 C 0.2650(3) 0.41550(11) -0.4974(2)
N2 N 0.8842(2) 0.53763(9) -0.03224(17)
N3 N 1.1331(2) 0.67097(9) 0.22405(14)
N4 N 1.3106(2) 0.57556(9) 0.30633(14)
N5 N -0.3236(2) 0.21386(9) -0.49327(17)
N6 N 0.5583(2) 0.78754(9) 0.06223(17)
N7 N 0.3526(2) 0.42311(9) -0.21922(14)
N8 N 0.2085(2) 0.32397(9) -0.31314(14)
O10 O 1.03337(19) 0.53400(7) 0.08823(12)
O11 O 1.1437(2) 0.54571(8) -0.04060(13)
O12 O 1.3315(2) 0.59602(8) -0.00115(15)
O13 O 1.31588(18) 0.62214(7) 0.15390(13)
O14 O 1.13309(17) 0.58533(7) 0.20423(12)
O15 O 1.12482(17) 0.62570(7) 0.37665(13)
O16 O 1.30910(17) 0.66106(7) 0.32594(12)
O17 O 1.40837(19) 0.71331(8) 0.44059(12)
O18 O 1.2963(2) 0.70427(8) 0.56899(13)
O19 O 1.1085(2) 0.65305(8) 0.53046(15)
O20 O 0.51695(18) 0.28666(7) -0.10936(12)
O21 O 0.4288(2) 0.29155(8) 0.02788(13)
O22 O 0.2320(2) 0.33916(8) 0.01013(15)
O23 O 0.21197(18) 0.36743(7) -0.14490(14)
O24 O 0.38745(17) 0.33746(7) -0.21464(12)
O25 O 0.34836(18) 0.38038(7) -0.39003(14)
O26 O 0.17407(17) 0.40931(7) -0.31764(12)
O27 O 0.04277(18) 0.46094(7) -0.42016(12)
O28 O 0.3243(2) 0.41013(8) -0.54489(15)
Cu1 Cu 1.0000 0.5000 0.0000
Cu2 Cu 1.22119(3) 0.623270(12) 0.26530(2)
Cu3 Cu -0.44126(3) 0.250600(14) -0.52573(2)
Cu4 Cu 0.28092(3) 0.373569(12) -0.26636(2)
Cu5 Cu 2.0000 0.5000 0.5000
C1B C 1.4074(4) 0.40831(15) 0.1114(3)
C2B C 0.4846(4) 0.55819(13) -0.3546(2)
C3B C 0.5058(3) 0.52294(11) -0.40520(19)
H1B H 0.5424 0.5333 -0.4456
H2B H 0.4391 0.5119 -0.4252
C4B C 1.0426(4) 0.22807(14) -0.1264(2)
C5B C 1.9619(3) 0.81255(13) 0.3856(2)
C6B C 2.0302(3) 0.84430(11) 0.4273(2)
H3B H 2.0381 0.8680 0.3966
H4B H 1.9964 0.8530 0.4702
C7B C 1.1467(3) 0.16354(12) -0.1460(2)
H5B H 1.1100 0.1513 -0.1072
H6B H 1.1564 0.1426 -0.1821
C8B C 1.0785(4) 0.19812(14) -0.1817(3)
C9B C 1.9395(4) 0.77630(14) 0.4325(3)
C10B C 1.5105(3) 0.47446(12) 0.0993(2)
H7B H 1.4512 0.4839 0.0674
H8B H 1.5615 0.4627 0.0690
C11B C 1.4734(4) 0.44188(15) 0.1498(3)
C12B C 0.4139(3) 0.59074(13) -0.3917(3)
C13B C 0.3085(3) 0.57406(10) -0.4179(2)
C14B C 0.2376(3) 0.56157(12) -0.3688(2)
H9B H 0.2524 0.5662 -0.3191
C15B C 0.1473(3) 0.54271(12) -0.3930(2)
H10B H 0.1022 0.5341 -0.3588
C16B C 0.1840(3) 0.54954(11) -0.5115(2)
H11B H 0.1648 0.5467 -0.5611
C17B C 0.2779(3) 0.56782(11) -0.4902(2)
H12B H 0.3217 0.5762 -0.5254
C18B C 1.8332(3) 0.55999(11) 0.5032(2)
N1B N 0.1193(2) 0.53573(9) -0.46427(16)
N1B_2 N 2.1193(2) 0.53573(9) 0.53573(16)
O1B O 1.87147(19) 0.54174(8) 0.55781(13)
O1_2 O 2.12853(19) 0.45826(8) 0.44219(13)
H13B H 1.442(2) 0.3995(10) 0.0722(17)
H14B H 1.390(3) 0.3847(13) 0.144(2)
H15B H 0.460(2) 0.5464(9) -0.3121(17)
H16B H 0.550(3) 0.5696(10) -0.3356(19)
H17B H 0.992(3) 0.2096(10) -0.0927(19)
H18B H 1.098(3) 0.2361(9) -0.0976(18)
H19B H 1.993(2) 0.8046(10) 0.3331(19)
H20B H 1.898(2) 0.8250(8) 0.3669(15)
H34B H 1.120(2) 0.2141(9) -0.2185(17)
H35B H 1.012(2) 0.1859(9) -0.2067(17)
H36B H 1.997(3) 0.7666(11) 0.457(2)
H37B H 1.896(2) 0.7825(10) 0.4651(17)
H38B H 1.437(3) 0.4560(11) 0.186(2)
H39B H 1.532(2) 0.4297(9) 0.1773(18)
H40B H 0.451(2) 0.6029(10) -0.4330(18)
H41B H 0.403(3) 0.6107(12) -0.364(2)
C19B C 1.1347(3) 0.45070(13) 0.1023(2)
H45B H 1.0837 0.4557 0.1346
C20B C 1.2245(4) 0.43200(13) 0.1277(2)
H46B H 1.2335 0.4241 0.1764
C21B C 1.3038(3) 0.42438(11) 0.0819(2)
C22B C 1.2821(3) 0.43500(11) 0.0095(2)
H47B H 1.3311 0.4296 -0.0241
C23B C 1.1890(3) 0.45333(12) -0.0132(2)
H48B H 1.1761 0.4598 -0.0624
C24B C 0.5697(3) 0.48897(11) -0.36910(19)
C25B C 0.6717(3) 0.49444(12) -0.3403(2)
H49B H 0.7024 0.5201 -0.3414
C26B C 0.7286(3) 0.46210(12) -0.31000(19)
H50B H 0.7975 0.4667 -0.2912
C27B C 0.5907(3) 0.41889(12) -0.33321(19)
H51B H 0.5614 0.3930 -0.3314
C28B C 0.5303(3) 0.45029(12) -0.3636(2)
H52B H 0.4610 0.4451 -0.3809
C29B C 0.8272(3) 0.29147(12) -0.2215(2)
H53B H 0.7585 0.2874 -0.2410
C30B C 0.8812(3) 0.25840(11) -0.1918(2)
H54B H 0.8495 0.2328 -0.1926
C31B C 0.9820(3) 0.26313(12) -0.1611(2)
C32B C 1.0237(3) 0.30193(12) -0.1645(2)
H55B H 1.0923 0.3068 -0.1454
C33B C 0.9646(3) 0.33357(11) -0.19576(19)
H56B H 0.9951 0.3593 -0.1970
C34B C 2.1360(3) 0.82679(11) 0.4501(2)
C35B C 2.1672(3) 0.81891(11) 0.5226(2)
H57B H 2.1246 0.8269 0.5588
C36B C 2.2608(3) 0.79940(11) 0.5414(2)
H58B H 2.2807 0.7954 0.5907
C37B C 2.2955(3) 0.79441(12) 0.4232(2)
H59B H 2.3395 0.7860 0.3881
C38B C 2.2043(3) 0.81486(11) 0.4006(2)
H60B H 2.1892 0.8206 0.3513
C39B C 1.4217(3) 0.20329(12) -0.1325(2)
H61B H 1.4734 0.2088 -0.1640
C40B C 1.3310(3) 0.18650(12) -0.1608(2)
H62B H 1.3214 0.1806 -0.2104
C41B C 1.2517(3) 0.17804(11) -0.1152(2)
C42B C 1.2733(3) 0.18600(12) -0.0426(2)
H63B H 1.2236 0.1800 -0.0098
C43B C 1.3672(3) 0.20261(11) -0.0178(2)
H64B H 1.3803 0.2073 0.0320
C44B C 1.8868(3) 0.74135(11) 0.39114(19)
C45B C 1.9399(3) 0.70681(12) 0.3763(2)
H65B H 2.0105 0.7047 0.3929
C46B C 1.8937(3) 0.67513(11) 0.3382(2)
H66B H 1.9337 0.6522 0.3291
C47B C 1.7390(3) 0.71036(12) 0.3266(2)
H67B H 1.6685 0.7120 0.3096
C48B C 1.7826(3) 0.74286(12) 0.3637(2)
H68B H 1.7425 0.7660 0.3705
C49B C 1.7026(3) 0.54247(12) 0.2091(2)
H69B H 1.7721 0.5412 0.2285
C50B C 1.6616(3) 0.50939(12) 0.1716(2)
H70B H 1.7027 0.4863 0.1668
C51B C 1.5594(3) 0.51015(12) 0.1408(2)
C52B C 1.5036(3) 0.54530(13) 0.1517(2)
H71B H 1.4342 0.5473 0.1325
C53B C 1.5486(3) 0.57731(12) 0.1904(2)
H72B H 1.5081 0.6004 0.1968
C54B C 0.8857(3) 0.44342(11) -0.0842(2)
C55B C 0.8296(3) 0.43865(12) -0.0193(2)
C56B C 0.7380(3) 0.41262(12) -0.0383(2)
C57B C 0.7447(3) 0.40010(11) -0.11542(19)
C58B C 0.8371(3) 0.41920(11) -0.1404(2)
C59B C 0.8149(3) 0.35167(11) -0.41470(19)
C60B C 0.7218(3) 0.33358(11) -0.3892(2)
C61B C 0.6721(3) 0.30886(11) -0.44536(19)
C62B C 0.7295(3) 0.31227(11) -0.5095(2)
C63B C 0.8224(3) 0.33846(11) -0.4915(2)
C64B C 1.5647(3) 0.69253(11) 0.09744(19)
C65B C 1.6088(3) 0.69086(11) 0.0273(2)
C66B C 1.7064(3) 0.66667(11) 0.0365(2)
C67B C 1.7172(3) 0.65279(11) 0.1133(2)
C68B C 1.6275(3) 0.66868(10) 0.1476(2)
C69B C 1.7229(3) 0.59931(11) 0.4202(2)
C70B C 1.8120(3) 0.58409(10) 0.3844(2)
C71B C 1.8765(3) 0.55953(11) 0.43329(19)
C72B C 1.7350(3) 0.58450(11) 0.4974(2)
N2B N 1.1158(2) 0.46237(9) 0.03224(17)
N3B N 0.8669(2) 0.32903(9) -0.22405(14)
N4B N 0.6894(2) 0.42444(9) -0.30633(14)
N5B N 2.3236(2) 0.78614(9) 0.49327(17)
N6B N 1.4417(2) 0.21246(9) -0.06223(17)
N6A N -0.5583(2) 0.28754(9) -0.56223(17)
N6C N 2.5583(2) 0.71246(9) 0.56223(17)
N7B N 1.6474(2) 0.57689(9) 0.21922(14)
N8B N 1.7915(2) 0.67603(9) 0.31314(14)
O10B O 0.96663(19) 0.46600(7) -0.08823(12)
O11B O 0.8563(2) 0.45429(8) 0.04060(13)
O12B O 0.6685(2) 0.40398(8) 0.00115(15)
O13B O 0.68412(18) 0.37786(7) -0.15390(13)
O14B O 0.86691(17) 0.41467(7) -0.20423(12)
O15B O 0.87518(17) 0.37430(7) -0.37665(13)
O16B O 0.69090(17) 0.33894(7) -0.32594(12)
O17B O 0.59163(19) 0.28669(8) -0.44059(12)
O17B_2 O -0.40837(19) 0.28669(8) -0.44059(12)
O17_2 O 2.40837(19) 0.71331(8) 0.44059(12)
O18B O 0.7037(2) 0.29573(8) -0.56899(13)
O18B_2 O -0.2963(2) 0.29573(8) -0.56899(13)
O18_2 O 2.2963(2) 0.70427(8) 0.56899(13)
O19B O 0.8915(2) 0.34695(8) -0.53046(15)
O20B O 1.48305(18) 0.71334(7) 0.10936(12)
O20C O -0.48305(18) 0.21334(7) -0.60936(12)
O20A O 2.48305(18) 0.78666(7) 0.60936(12)
O21B O 1.5712(2) 0.70845(8) -0.02788(13)
O21C O -0.5712(2) 0.20845(8) -0.47212(13)
O21A O 2.5712(2) 0.79155(8) 0.47212(13)
O22B O 1.7680(2) 0.66084(8) -0.01013(15)
O23B O 1.78803(18) 0.63257(7) 0.14490(14)
O24B O 1.61255(17) 0.66254(7) 0.21464(12)
O25B O 1.65164(18) 0.61962(7) 0.39003(14)
O26B O 1.82593(17) 0.59069(7) 0.31764(12)
O27B O 1.95723(18) 0.53906(7) 0.42016(12)
O27_2 O 2.04277(18) 0.46094(7) 0.57984(12)
O28B O 1.6757(2) 0.58987(8) 0.54489(15)
Cu2B Cu 0.77881(3) 0.376730(12) -0.26530(2)
Cu3B Cu 2.44126(3) 0.749400(14) 0.52573(2)
Cu3A Cu 0.44126(3) 0.750600(14) 0.02573(2)
Cu3B_2 Cu 1.44126(3) 0.749400(14) 0.52573(2)
Cu3C Cu 0.55874(3) 0.249400(14) -0.02573(2)
Cu3C_2 Cu 1.55874(3) 0.249400(14) -0.02573(2)
Cu3_2 Cu 0.55874(3) 0.250600(14) -0.52573(2)
Cu3A_2 Cu 1.44126(3) 0.750600(14) 0.02573(2)
Cu4B Cu 1.71908(3) 0.626431(12) 0.26636(2)
Cu5_2 Cu 0.0000 0.5000 -0.5000
O2 O 0.7460(3) 0.08782(11) 0.66465(18)
H21 H 0.8041 0.0864 0.6815
H22 H 0.7389 0.1103 0.6461
O3 O 0.6203(3) 0.14358(11) 0.7300(2)
H23 H 0.6409 0.1324 0.6841
H24 H 0.6648 0.1661 0.7548
O4 O 0.9380(4) 0.10810(13) -0.26216(19)
H25 H 0.8974 0.0855 -0.2726
H26 H 0.9960 0.0954 -0.2568
O5 O 0.8109(3) 0.16075(10) -0.19331(17)
H27 H 0.8679 0.1394 -0.2058
H28 H 0.8373 0.1631 -0.1416
O6 O 0.5481(3) 0.22583(14) 0.2293(2)
H29 H 0.5422 0.2029 0.2003
H42 H 0.5007 0.2413 0.2131
O7 O 0.4604(3) 0.29897(11) 0.18282(16)
H30 H 0.4344 0.2998 0.1301
H31 H 0.4999 0.3171 0.1807
O8 O 0.0156(3) 0.47647(10) -0.2593(2)
H32 H 0.0484 0.4714 -0.3034
H33 H -0.0459 0.4816 -0.2780
O9 O -0.0944(3) 0.54980(9) -0.28676(17)
H43 H -0.0393 0.5463 -0.2539
H44 H -0.1033 0.5585 -0.3494
loop_
_geom_bond_atom_site_label_1
_geom_bond_atom_site_label_2
_geom_bond_site_symmetry_1
_geom_bond_site_symmetry_2
C1 C11 1_555 1_555
C2 C3 1_555 1_555
C3 H1 1_555 1_555
H2 C3 1_555 1_555
C4 C8 1_555 1_555
C5 C6 1_555 1_555
C6 H3 1_555 1_555
H4 C6 1_555 1_555
C7 H5 1_555 1_555
H6 C7 1_555 1_555
C8 C7 1_555 1_555
C9 C5 1_555 1_555
C10 H7 1_555 1_555
H8 C10 1_555 1_555
C11 C10 1_555 1_555
C12 C2 1_555 1_555
C13 C12 1_555 1_555
C14 C13 1_555 1_555
H9 C14 1_555 1_555
C15 C14 1_555 1_555
H10 C15 1_555 1_555
C16 H11 1_555 1_555
C17 C13 1_555 1_555
H12 C17 1_555 1_555
C18 O1 1_555 1_555
N1 C15 1_555 1_555
O1 Cu5_2 1_555 1_555
O2 H21 1_555 1_555
O3 H23 1_555 1_555
O4 H25 1_555 1_555
O5 H27 1_555 1_555
O6 H29 1_555 1_555
O7 H30 1_555 1_555
O8 H32 1_555 1_555
O9 H43 1_555 1_555
H13 C1 1_555 1_555
H14 C1 1_555 1_555
H15 C2 1_555 1_555
H16 C2 1_555 1_555
H17 C4 1_555 1_555
H18 C4 1_555 1_555
H19 C5 1_555 1_555
H20 C5 1_555 1_555
H22 O2 1_555 1_555
H24 O3 1_555 1_555
H26 O4 1_555 1_555
H28 O5 1_555 1_555
H31 O7 1_555 1_555
H33 O8 1_555 1_555
H34 C8 1_555 1_555
H35 C8 1_555 1_555
H36 C9 1_555 1_555
H37 C9 1_555 1_555
H38 C11 1_555 1_555
H39 C11 1_555 1_555
H40 C12 1_555 1_555
H41 C12 1_555 1_555
H42 O6 1_555 1_555
H44 O9 1_555 1_555
C19 H45 1_555 1_555
C20 C19 1_555 1_555
H46 C20 1_555 1_555
C21 C1 1_555 1_555
C22 C21 1_555 1_555
H47 C22 1_555 1_555
C23 C22 1_555 1_555
H48 C23 1_555 1_555
C24 C3 1_555 1_555
C25 C24 1_555 1_555
H49 C25 1_555 1_555
C26 C25 1_555 1_555
H50 C26 1_555 1_555
C27 H51 1_555 1_555
C28 C24 1_555 1_555
H52 C28 1_555 1_555
C29 H53 1_555 1_555
C30 C29 1_555 1_555
H54 C30 1_555 1_555
C31 C4 1_555 1_555
C32 C31 1_555 1_555
H55 C32 1_555 1_555
C33 C32 1_555 1_555
H56 C33 1_555 1_555
C34 C6 1_555 1_555
C35 C34 1_555 1_555
H57 C35 1_555 1_555
C36 C35 1_555 1_555
H58 C36 1_555 1_555
C37 H59 1_555 1_555
C38 C34 1_555 1_555
H60 C38 1_555 1_555
C39 H61 1_555 1_555
C40 C39 1_555 1_555
H62 C40 1_555 1_555
C41 C7 1_555 1_555
C42 C41 1_555 1_555
H63 C42 1_555 1_555
C43 C42 1_555 1_555
H64 C43 1_555 1_555
C44 C9 1_555 1_555
C45 C44 1_555 1_555
H65 C45 1_555 1_555
C46 C45 1_555 1_555
H66 C46 1_555 1_555
C47 H67 1_555 1_555
C48 C44 1_555 1_555
H68 C48 1_555 1_555
C49 H69 1_555 1_555
C50 C49 1_555 1_555
H70 C50 1_555 1_555
C51 C10 1_555 1_555
C52 C51 1_555 1_555
H71 C52 1_555 1_555
C53 C52 1_555 1_555
H72 C53 1_555 1_555
C54 C55 1_555 1_555
C55 C56 1_555 1_555
C56 C57 1_555 1_555
C57 C58 1_555 1_555
C58 C54 1_555 1_555
C59 C60 1_555 1_555
C60 C61 1_555 1_555
C61 C62 1_555 1_555
C62 C63 1_555 1_555
C63 C59 1_555 1_555
C64 C65 1_555 1_555
C65 C66 1_555 1_555
C66 C67 1_555 1_555
C67 C68 1_555 1_555
C68 C64 1_555 1_555
C69 C70 1_555 1_555
C70 C71 1_555 1_555
C71 C18 1_555 1_555
C72 C18 1_555 1_555
N2 C19 1_555 1_555
N3 C29 1_555 1_555
N4 C26 1_555 1_555
N5 C36 1_555 1_555
N6 C39 1_555 1_555
N7 C49 1_555 1_555
N8 C46 1_555 1_555
O10 C54 1_555 1_555
O11 C55 1_555 1_555
O12 C56 1_555 1_555
O13 C57 1_555 1_555
O14 C58 1_555 1_555
O15 C59 1_555 1_555
O16 C60 1_555 1_555
O17 C61 1_555 1_555
O18 C62 1_555 1_555
O19 C63 1_555 1_555
O20 C64 1_555 1_555
O21 C65 1_555 1_555
O22 C66 1_555 1_555
O23 C67 1_555 1_555
O24 C68 1_555 1_555
O25 C69 1_555 1_555
O26 C70 1_555 1_555
O27 C71 1_555 1_555
O28 C72 1_555 1_555
Cu1 N2 1_555 1_555
Cu2 N3 1_555 1_555
Cu3 N5 1_555 1_555
Cu4 N7 1_555 1_555
Cu5 N1 1_555 1_555
C1B C11B 1_555 1_555
C2B C3B 1_555 1_555
C3B H1B 1_555 1_555
H2B C3B 1_555 1_555
C4B C8B 1_555 1_555
C5B C6B 1_555 1_555
C6B H3B 1_555 1_555
H4B C6B 1_555 1_555
C7B H5B 1_555 1_555
H6B C7B 1_555 1_555
C8B C7B 1_555 1_555
C9B C5B 1_555 1_555
C10B H7B 1_555 1_555
H8B C10B 1_555 1_555
C11B C10B 1_555 1_555
C12B C2B 1_555 1_555
C13B C12B 1_555 1_555
C14B C13B 1_555 1_555
H9B C14B 1_555 1_555
C15B C14B 1_555 1_555
H10B C15B 1_555 1_555
C16B H11B 1_555 1_555
C17B C13B 1_555 1_555
H12B C17B 1_555 1_555
C18B O1B 1_555 1_555
N1B C15B 1_555 1_555
N1B_2 Cu5 1_555 1_555
O1B Cu5 1_555 1_555
O1_2 Cu5 1_555 1_555
H13B C1B 1_555 1_555
H14B C1B 1_555 1_555
H15B C2B 1_555 1_555
H16B C2B 1_555 1_555
H17B C4B 1_555 1_555
H18B C4B 1_555 1_555
H19B C5B 1_555 1_555
H20B C5B 1_555 1_555
H34B C8B 1_555 1_555
H35B C8B 1_555 1_555
H36B C9B 1_555 1_555
H37B C9B 1_555 1_555
H38B C11B 1_555 1_555
H39B C11B 1_555 1_555
H40B C12B 1_555 1_555
H41B C12B 1_555 1_555
C19B H45B 1_555 1_555
C20B C19B 1_555 1_555
H46B C20B 1_555 1_555
C21B C1B 1_555 1_555
C22B C21B 1_555 1_555
H47B C22B 1_555 1_555
C23B C22B 1_555 1_555
H48B C23B 1_555 1_555
C24B C3B 1_555 1_555
C25B C24B 1_555 1_555
H49B C25B 1_555 1_555
C26B C25B 1_555 1_555
H50B C26B 1_555 1_555
C27B H51B 1_555 1_555
C28B C24B 1_555 1_555
H52B C28B 1_555 1_555
C29B H53B 1_555 1_555
C30B C29B 1_555 1_555
H54B C30B 1_555 1_555
C31B C4B 1_555 1_555
C32B C31B 1_555 1_555
H55B C32B 1_555 1_555
C33B C32B 1_555 1_555
H56B C33B 1_555 1_555
C34B C6B 1_555 1_555
C35B C34B 1_555 1_555
H57B C35B 1_555 1_555
C36B C35B 1_555 1_555
H58B C36B 1_555 1_555
C37B H59B 1_555 1_555
C38B C34B 1_555 1_555
H60B C38B 1_555 1_555
C39B H61B 1_555 1_555
C40B C39B 1_555 1_555
H62B C40B 1_555 1_555
C41B C7B 1_555 1_555
C42B C41B 1_555 1_555
H63B C42B 1_555 1_555
C43B C42B 1_555 1_555
H64B C43B 1_555 1_555
C44B C9B 1_555 1_555
C45B C44B 1_555 1_555
H65B C45B 1_555 1_555
C46B C45B 1_555 1_555
H66B C46B 1_555 1_555
C47B H67B 1_555 1_555
C48B C44B 1_555 1_555
H68B C48B 1_555 1_555
C49B H69B 1_555 1_555
C50B C49B 1_555 1_555
H70B C50B 1_555 1_555
C51B C10B 1_555 1_555
C52B C51B 1_555 1_555
H71B C52B 1_555 1_555
C53B C52B 1_555 1_555
H72B C53B 1_555 1_555
C54B C55B 1_555 1_555
C55B C56B 1_555 1_555
C56B C57B 1_555 1_555
C57B C58B 1_555 1_555
C58B C54B 1_555 1_555
C59B C60B 1_555 1_555
C60B C61B 1_555 1_555
C61B C62B 1_555 1_555
C62B C63B 1_555 1_555
C63B C59B 1_555 1_555
C64B C65B 1_555 1_555
C65B C66B 1_555 1_555
C66B C67B 1_555 1_555
C67B C68B 1_555 1_555
C68B C64B 1_555 1_555
C69B C70B 1_555 1_555
C70B C71B 1_555 1_555
C71B C18B 1_555 1_555
C72B C18B 1_555 1_555
N2B Cu1 1_555 1_555
N3B C29B 1_555 1_555
N4B C26B 1_555 1_555
N5B C36B 1_555 1_555
N6B C39B 1_555 1_555
N6A Cu3 1_555 1_555
N6C Cu3B 1_555 1_555
N7B C49B 1_555 1_555
N8B C46B 1_555 1_555
O10B Cu1 1_555 1_555
O11B Cu1 1_555 1_555
O12B C56B 1_555 1_555
O13B C57B 1_555 1_555
O14B C58B 1_555 1_555
O15B C59B 1_555 1_555
O16B C60B 1_555 1_555
O17B C61B 1_555 1_555
O17B_2 Cu3 1_555 1_555
O17_2 Cu3B 1_555 1_555
O18B C62B 1_555 1_555
O18B_2 Cu3 1_555 1_555
O18_2 Cu3B 1_555 1_555
O19B C63B 1_555 1_555
O20B C64B 1_555 1_555
O20C Cu3 1_555 1_555
O20A Cu3B 1_555 1_555
O21B C65B 1_555 1_555
O21C Cu3 1_555 1_555
O21A Cu3B 1_555 1_555
O22B C66B 1_555 1_555
O23B C67B 1_555 1_555
O24B C68B 1_555 1_555
O25B C69B 1_555 1_555
O26B C70B 1_555 1_555
O27B Cu5 1_555 1_555
O27_2 Cu5 1_555 1_555
O28B C72B 1_555 1_555
Cu2B N3B 1_555 1_555
Cu3B N5B 1_555 1_555
Cu3A N6 1_555 1_555
Cu3B_2 O17 1_555 1_555
Cu3C O20 1_555 1_555
Cu3C_2 N6B 1_555 1_555
Cu3_2 O17B 1_555 1_555
Cu3A_2 O20B 1_555 1_555
Cu4B N7B 1_555 1_555
Cu5_2 O27 1_555 1_555
C16 C17 1_555 1_555
C16 N1 1_555 1_555
C20 C21 1_555 1_555
C23 N2 1_555 1_555
C27 C28 1_555 1_555
C27 N4 1_555 1_555
C30 C31 1_555 1_555
C33 N3 1_555 1_555
C37 C38 1_555 1_555
C37 N5 1_555 1_555
C40 C41 1_555 1_555
C43 N6 1_555 1_555
C47 C48 1_555 1_555
C47 N8 1_555 1_555
C50 C51 1_555 1_555
C53 N7 1_555 1_555
C69 C72 1_555 1_555
N4 Cu2 1_555 1_555
N8 Cu4 1_555 1_555
O10 Cu1 1_555 1_555
O11 Cu1 1_555 1_555
O13 Cu2 1_555 1_555
O14 Cu2 1_555 1_555
O15 Cu2 1_555 1_555
O16 Cu2 1_555 1_555
O18 Cu3B_2 1_555 1_555
O21 Cu3C 1_555 1_555
O23 Cu4 1_555 1_555
O24 Cu4 1_555 1_555
O25 Cu4 1_555 1_555
O26 Cu4 1_555 1_555
C16B C17B 1_555 1_555
C16B N1B 1_555 1_555
N1B Cu5_2 1_555 1_555
C19B N2B 1_555 1_555
C20B C21B 1_555 1_555
C23B N2B 1_555 1_555
C27B C28B 1_555 1_555
C27B N4B 1_555 1_555
C30B C31B 1_555 1_555
C33B N3B 1_555 1_555
C37B C38B 1_555 1_555
C37B N5B 1_555 1_555
C40B C41B 1_555 1_555
C43B N6B 1_555 1_555
C47B C48B 1_555 1_555
C47B N8B 1_555 1_555
C50B C51B 1_555 1_555
C53B N7B 1_555 1_555
C54B O10B 1_555 1_555
C55B O11B 1_555 1_555
C69B C72B 1_555 1_555
C71B O27B 1_555 1_555
N4B Cu2B 1_555 1_555
N8B Cu4B 1_555 1_555
O13B Cu2B 1_555 1_555
O14B Cu2B 1_555 1_555
O15B Cu2B 1_555 1_555
O16B Cu2B 1_555 1_555
O18B Cu3_2 1_555 1_555
O21B Cu3A_2 1_555 1_555
O23B Cu4B 1_555 1_555
O24B Cu4B 1_555 1_555
O25B Cu4B 1_555 1_555
O26B Cu4B 1_555 1_555

#END
