
#######################################################################
#
#                 Cambridge Crystallographic Data Centre
#                                CCDC 
#
#######################################################################
#
# If this CIF has been generated from an entry in the Cambridge 
# Structural Database, then it will include bibliographic, chemical, 
# crystal, experimental, refinement or atomic coordinate data resulting 
# from the CCDC's data processing and validation procedures.
#
#######################################################################

data_OPETUZ
_symmetry_cell_setting           monoclinic
_symmetry_space_group_name_H-M   'C 2/c'
_symmetry_Int_Tables_number      15
_space_group_name_Hall           '-C 2yn'
loop_
_symmetry_equiv_pos_site_id
_symmetry_equiv_pos_as_xyz
1 x,y,z
2 -x,y,1/2-z
3 1/2+x,1/2+y,z
4 1/2-x,1/2+y,1/2-z
5 -x,-y,-z
6 x,-y,1/2+z
7 1/2-x,1/2-y,-z
8 1/2+x,1/2-y,1/2+z
_cell_length_a                   13.572(9)
_cell_length_b                   8.229(6)
_cell_length_c                   11.108(7)
_cell_angle_alpha                90
_cell_angle_beta                 118.142(17)
_cell_angle_gamma                90
_cell_volume                     1093.93
loop_
_atom_site_label
_atom_site_type_symbol
_atom_site_fract_x
_atom_site_fract_y
_atom_site_fract_z
Ag1 Ag 0.63096(6) 0.14470(8) 0.40486(7)
O1 O 0.6349(5) 0.4491(7) 0.1196(6)
O2 O 0.6371(5) 0.4498(9) 0.4111(5)
O3 O 0.6423(6) 0.8439(6) 0.1226(8)
O4 O 0.6325(5) 0.8413(8) 0.4136(6)
O5 O 0.4164(7) 0.1387(6) 0.3246(9)
C1 C 0.6389(6) 0.7369(9) 0.2023(8)
C2 C 0.6376(6) 0.5635(10) 0.2025(8)
C3 C 0.6372(5) 0.5599(9) 0.3318(7)
C4 C 0.6363(5) 0.7381(8) 0.3355(7)
Ag1E Ag 0.63096(6) 0.85530(8) -0.09514(7)
Ag1_2 Ag 0.63096(6) 1.14470(8) 0.40486(7)
Ag1A Ag 0.36904(6) 0.14470(8) 0.09514(7)
O3E O 0.6423(6) 0.1561(6) 0.6226(8)
O4_2 O 0.6325(5) -0.1587(8) 0.4136(6)
O5A O 0.5836(7) 0.1387(6) 0.1754(9)
loop_
_geom_bond_atom_site_label_1
_geom_bond_atom_site_label_2
_geom_bond_site_symmetry_1
_geom_bond_site_symmetry_2
Ag1 O2 1_555 1_555
O1 C2 1_555 1_555
O2 C3 1_555 1_555
O3 C1 1_555 1_555
O4 C4 1_555 1_555
O5 Ag1 1_555 1_555
C1 C2 1_555 1_555
C2 C3 1_555 1_555
C3 C4 1_555 1_555
C4 C1 1_555 1_555
Ag1E O3 1_555 1_555
Ag1_2 O4 1_555 1_555
Ag1A O5 1_555 1_555
O3E Ag1 1_555 1_555
O4_2 Ag1 1_555 1_555
O5A Ag1 1_555 1_555
Ag1A O5A 1_555 1_555

#END
