
#######################################################################
#
#                 Cambridge Crystallographic Data Centre
#                                CCDC 
#
#######################################################################
#
# If this CIF has been generated from an entry in the Cambridge 
# Structural Database, then it will include bibliographic, chemical, 
# crystal, experimental, refinement or atomic coordinate data resulting 
# from the CCDC's data processing and validation procedures.
#
#######################################################################

data_OPIVUF
_symmetry_cell_setting           monoclinic
_symmetry_space_group_name_H-M   'P 21/c'
_symmetry_Int_Tables_number      14
_space_group_name_Hall           '-P 2ybc'
loop_
_symmetry_equiv_pos_site_id
_symmetry_equiv_pos_as_xyz
1 x,y,z
2 -x,1/2+y,1/2-z
3 -x,-y,-z
4 x,1/2-y,1/2+z
_cell_length_a                   9.4885(2)
_cell_length_b                   19.0909(5)
_cell_length_c                   10.7822(3)
_cell_angle_alpha                90
_cell_angle_beta                 91.729(1)
_cell_angle_gamma                90
_cell_volume                     1952.24
loop_
_atom_site_label
_atom_site_type_symbol
_atom_site_fract_x
_atom_site_fract_y
_atom_site_fract_z
Ce1 Ce 0.250373(12) 0.488910(6) 0.044454(11)
O1 O 0.36481(18) 0.59579(9) 0.13726(16)
O2 O 0.11149(18) 0.52732(9) 0.22682(15)
O3 O 0.35563(14) 0.38550(8) -0.08949(14)
O4 O 0.15441(15) 0.43254(8) -0.15377(14)
O5 O 0.40721(17) 0.53758(8) -0.11119(14)
O6 O 0.60136(16) 0.56390(9) -0.20963(15)
O7 O 0.08240(16) 0.57357(8) -0.03944(14)
O8 O -0.12143(15) 0.61680(8) -0.11095(15)
N1 N 0.2583(2) 0.27839(12) -0.5149(2)
N2 N 0.2355(2) 0.57398(11) -0.55199(19)
N3 N 0.2240(2) 0.79427(10) -0.25680(19)
C1 C 0.2571(2) 0.39167(11) -0.1700(2)
C2 C 0.2605(2) 0.35168(12) -0.2896(2)
C3 C 0.3308(2) 0.28855(12) -0.2999(2)
H1 H 0.3825 0.2696 -0.2309
C4 C 0.3245(3) 0.25327(13) -0.4130(2)
H2 H 0.3697 0.2090 -0.4180
C5 C 0.1939(3) 0.33982(15) -0.5035(2)
H3 H 0.1484 0.3592 -0.5753
C6 C 0.1888(3) 0.37743(13) -0.3943(2)
H4 H 0.1374 0.4200 -0.3909
C7 C 0.4706(2) 0.55581(11) -0.2066(2)
C8 C 0.3870(2) 0.56655(11) -0.3261(2)
C9 C 0.2410(2) 0.56092(12) -0.3309(2)
H5 H 0.1902 0.5543 -0.2573
C10 C 0.1712(3) 0.56519(13) -0.4448(2)
H6 H 0.0713 0.5617 -0.4470
C11 C 0.3760(3) 0.58129(14) -0.5459(2)
H7 H 0.4240 0.5888 -0.6208
C12 C 0.4547(2) 0.57844(13) -0.4358(2)
H8 H 0.5541 0.5846 -0.4357
C13 C 0.0089(2) 0.61990(11) -0.0946(2)
C14 C 0.0840(2) 0.68248(11) -0.1477(2)
C15 C 0.2238(2) 0.69705(12) -0.1159(2)
H9 H 0.2742 0.6689 -0.0569
C16 C 0.2883(2) 0.75306(13) -0.1715(2)
H10 H 0.3835 0.7631 -0.1482
C17 C 0.0893(2) 0.78025(12) -0.2860(2)
H11 H 0.0417 0.8090 -0.3457
C18 C 0.0154(2) 0.72565(11) -0.2331(2)
H12 H -0.0810 0.7180 -0.2554
H13 H 0.448(3) 0.6048(14) 0.123(3)
H14 H 0.322(3) 0.6266(15) 0.169(3)
H15 H 0.147(3) 0.5462(15) 0.300(3)
H16 H 0.033(3) 0.5435(15) 0.215(3)
Ce1B Ce 0.749627(12) 0.511090(6) -0.044454(11)
Ce1B_2 Ce -0.250373(12) 0.511090(6) -0.044454(11)
O6B O 0.39864(16) 0.43610(9) 0.20963(15)
O8B O 0.12143(15) 0.38320(8) 0.11095(15)
loop_
_geom_bond_atom_site_label_1
_geom_bond_atom_site_label_2
_geom_bond_site_symmetry_1
_geom_bond_site_symmetry_2
Ce1 O1 1_555 1_555
O1 H13 1_555 1_555
O2 Ce1 1_555 1_555
O3 Ce1 1_555 1_555
O4 Ce1 1_555 1_555
O5 Ce1 1_555 1_555
O6 C7 1_555 1_555
O7 Ce1 1_555 1_555
O8 C13 1_555 1_555
N1 C4 1_555 1_555
N2 C10 1_555 1_555
N3 C16 1_555 1_555
C1 O3 1_555 1_555
C2 C1 1_555 1_555
C3 C2 1_555 1_555
H1 C3 1_555 1_555
C4 C3 1_555 1_555
H2 C4 1_555 1_555
C5 N1 1_555 1_555
H3 C5 1_555 1_555
C6 C2 1_555 1_555
H4 C6 1_555 1_555
C7 O5 1_555 1_555
C8 C7 1_555 1_555
C9 C8 1_555 1_555
H5 C9 1_555 1_555
C10 C9 1_555 1_555
H6 C10 1_555 1_555
C11 N2 1_555 1_555
H7 C11 1_555 1_555
C12 C8 1_555 1_555
H8 C12 1_555 1_555
C13 O7 1_555 1_555
C14 C13 1_555 1_555
C15 C14 1_555 1_555
H9 C15 1_555 1_555
C16 C15 1_555 1_555
H10 C16 1_555 1_555
C17 N3 1_555 1_555
H11 C17 1_555 1_555
C18 C14 1_555 1_555
H12 C18 1_555 1_555
H14 O1 1_555 1_555
H15 O2 1_555 1_555
H16 O2 1_555 1_555
Ce1B O6 1_555 1_555
Ce1B_2 O8 1_555 1_555
O6B Ce1 1_555 1_555
O8B Ce1 1_555 1_555
O4 C1 1_555 1_555
C5 C6 1_555 1_555
C11 C12 1_555 1_555
C17 C18 1_555 1_555

#END
