
#######################################################################
#
#                 Cambridge Crystallographic Data Centre
#                                CCDC 
#
#######################################################################
#
# If this CIF has been generated from an entry in the Cambridge 
# Structural Database, then it will include bibliographic, chemical, 
# crystal, experimental, refinement or atomic coordinate data resulting 
# from the CCDC's data processing and validation procedures.
#
#######################################################################

data_OPIYOC
_symmetry_cell_setting           triclinic
_symmetry_space_group_name_H-M   'P -1'
_symmetry_Int_Tables_number      2
_space_group_name_Hall           '-P 1'
loop_
_symmetry_equiv_pos_site_id
_symmetry_equiv_pos_as_xyz
1 x,y,z
2 -x,-y,-z
_cell_length_a                   8.5970(8)
_cell_length_b                   9.2441(9)
_cell_length_c                   11.8821(12)
_cell_angle_alpha                103.269(2)
_cell_angle_beta                 102.055(2)
_cell_angle_gamma                95.831(2)
_cell_volume                     887.651
loop_
_atom_site_label
_atom_site_type_symbol
_atom_site_fract_x
_atom_site_fract_y
_atom_site_fract_z
Cu1 Cu 0.0000 1.0000 0.5000
O1 O 0.2400(5) 1.0379(5) 0.4269(4)
O2 O 0.3364(5) 0.8744(5) 0.3086(4)
O3 O 0.4716(6) 1.0956(5) 0.3943(5)
N1 N 0.3596(6) 0.5573(6) 0.5227(5)
N2 N 0.0710(6) 0.8167(5) 0.5551(4)
N3 N 0.1660(7) 0.5700(6) 0.6319(6)
N4 N -0.0700(6) 0.5873(6) 0.0841(5)
N5 N -0.1247(6) 0.8658(5) 0.3389(4)
N6 N -0.3029(6) 0.6646(6) 0.1285(5)
N7 N 0.3492(6) 1.0026(6) 0.3745(5)
C1 C 0.4025(8) 0.4238(7) 0.5593(7)
H1 H 0.3463 0.3346 0.4979
H2 H 0.3686 0.4211 0.6318
C2 C 0.4189(8) 0.5773(8) 0.4195(7)
H3 H 0.3636 0.4970 0.3501
H4 H 0.3953 0.6721 0.4036
C3 C 0.2352(7) 0.6240(7) 0.5564(6)
C4 C 0.1861(7) 0.7481(6) 0.5178(5)
H5 H 0.2356 0.7833 0.4646
C5 C 0.0030(8) 0.7639(8) 0.6319(6)
H6 H -0.0768 0.8103 0.6609
C6 C 0.0502(8) 0.6419(8) 0.6681(7)
H7 H -0.0006 0.6068 0.7206
C7 C -0.1652(9) 0.4624(10) -0.0081(7)
H8 H -0.1920 0.3826 0.0285
H9 H -0.2654 0.4937 -0.0410
C8 C 0.0991(9) 0.5980(13) 0.1018(10)
H10 H 0.1369 0.5511 0.1654
H11 H 0.1443 0.7040 0.1307
C9 C -0.1427(7) 0.6773(7) 0.1603(5)
C10 C -0.0528(7) 0.7792(7) 0.2667(5)
H12 H 0.0587 0.7860 0.2868
C11 C -0.2847(7) 0.8569(7) 0.3059(5)
H13 H -0.3376 0.9188 0.3534
C12 C -0.3710(8) 0.7565(7) 0.2021(6)
H14 H -0.4822 0.7519 0.1818
Cu1_2 Cu 1.0000 0.0000 0.5000
Cu1_3 Cu 0.0000 0.0000 -0.5000
O1A O -0.2400(5) 0.9621(5) 0.5731(4)
O2A O -0.3364(5) 1.1256(5) 0.6914(4)
O3A O -0.4716(6) 0.9044(5) 0.6057(5)
N1A N 0.6404(6) 0.4427(6) 0.4773(5)
N2A N 0.9290(6) 0.1833(5) 0.4449(4)
N2A_2 N -0.0710(6) 1.1833(5) 0.4449(4)
N3A N 0.8340(7) 0.4300(6) 0.3681(6)
N4A N 0.0700(6) 0.4127(6) -0.0841(5)
N5A N 0.1247(6) 0.1342(5) -0.3389(4)
N5A_2 N 0.1247(6) 1.1342(5) 0.6611(4)
N6A N 0.3029(6) 0.3354(6) -0.1285(5)
N7A N -0.3492(6) 0.9974(6) 0.6255(5)
C1A C 0.5975(8) 0.5762(7) 0.4407(7)
H1A H 0.6537 0.6654 0.5021
H2A H 0.6314 0.5789 0.3682
C2A C 0.5811(8) 0.4227(8) 0.5805(7)
H3A H 0.6364 0.5030 0.6499
H4A H 0.6047 0.3279 0.5964
C3A C 0.7648(7) 0.3760(7) 0.4436(6)
C4A C 0.8139(7) 0.2519(6) 0.4822(5)
H5A H 0.7644 0.2167 0.5354
C5A C 0.9970(8) 0.2361(8) 0.3681(6)
H6A H 1.0768 0.1897 0.3391
C6A C 0.9498(8) 0.3581(8) 0.3319(7)
H7A H 1.0006 0.3932 0.2794
C7A C 0.1652(9) 0.5376(10) 0.0081(7)
H8A H 0.1920 0.6174 -0.0285
H9A H 0.2654 0.5063 0.0410
C8A C -0.0991(9) 0.4020(13) -0.1018(10)
H10A H -0.1369 0.4489 -0.1654
H11A H -0.1443 0.2960 -0.1307
C9A C 0.1427(7) 0.3227(7) -0.1603(5)
C10A C 0.0528(7) 0.2208(7) -0.2667(5)
H12A H -0.0587 0.2140 -0.2868
C11A C 0.2847(7) 0.1431(7) -0.3059(5)
H13A H 0.3376 0.0812 -0.3534
C12A C 0.3710(8) 0.2435(7) -0.2021(6)
H14A H 0.4822 0.2481 -0.1818
O4 O 0.758(2) 0.763(2) 0.8222(17)
O5? O 0.761(3) 0.847(3) 0.876(2)
O6? O 0.851(3) 0.885(3) 0.890(2)
O7? O 0.598(3) 0.740(3) 0.832(2)
O8? O 0.486(3) 0.691(3) 0.863(2)
O9? O 0.568(4) 0.875(4) 0.893(3)
O10? O 0.705(4) 0.954(4) 0.939(3)
loop_
_geom_bond_atom_site_label_1
_geom_bond_atom_site_label_2
_geom_bond_site_symmetry_1
_geom_bond_site_symmetry_2
Cu1 O1 1_555 1_555
O1 N7 1_555 1_555
O2 N7 1_555 1_555
O3 N7 1_555 1_555
N1 C1 1_555 1_555
N2 Cu1 1_555 1_555
N3 C3 1_555 1_555
N4 C7 1_555 1_555
N5 Cu1 1_555 1_555
N6 C9 1_555 1_555
C1 H1 1_555 1_555
H2 C1 1_555 1_555
C2 N1 1_555 1_555
H3 C2 1_555 1_555
H4 C2 1_555 1_555
C3 N1 1_555 1_555
C4 N2 1_555 1_555
H5 C4 1_555 1_555
C5 N2 1_555 1_555
H6 C5 1_555 1_555
C6 N3 1_555 1_555
H7 C6 1_555 1_555
C7 H8 1_555 1_555
H9 C7 1_555 1_555
C8 N4 1_555 1_555
H10 C8 1_555 1_555
H11 C8 1_555 1_555
C9 N4 1_555 1_555
C10 N5 1_555 1_555
H12 C10 1_555 1_555
C11 N5 1_555 1_555
H13 C11 1_555 1_555
C12 N6 1_555 1_555
H14 C12 1_555 1_555
Cu1_2 N2A 1_555 1_555
Cu1_3 N5A 1_555 1_555
O1A Cu1 1_555 1_555
O2A N7A 1_555 1_555
O3A N7A 1_555 1_555
N1A C1A 1_555 1_555
N2A C4A 1_555 1_555
N2A_2 Cu1 1_555 1_555
N3A C3A 1_555 1_555
N4A C7A 1_555 1_555
N5A C10A 1_555 1_555
N5A_2 Cu1 1_555 1_555
N6A C9A 1_555 1_555
N7A O1A 1_555 1_555
C1A C2 1_555 1_555
H1A C1A 1_555 1_555
H2A C1A 1_555 1_555
C2A C1 1_555 1_555
H3A C2A 1_555 1_555
H4A C2A 1_555 1_555
C3A N1A 1_555 1_555
C4A C3A 1_555 1_555
H5A C4A 1_555 1_555
C5A N2A 1_555 1_555
H6A C5A 1_555 1_555
C6A N3A 1_555 1_555
H7A C6A 1_555 1_555
C7A C8 1_555 1_555
H8A C7A 1_555 1_555
H9A C7A 1_555 1_555
C8A C7 1_555 1_555
H10A C8A 1_555 1_555
H11A C8A 1_555 1_555
C9A N4A 1_555 1_555
C10A C9A 1_555 1_555
H12A C10A 1_555 1_555
C11A N5A 1_555 1_555
H13A C11A 1_555 1_555
C12A N6A 1_555 1_555
H14A C12A 1_555 1_555
C3 C4 1_555 1_555
C5 C6 1_555 1_555
C9 C10 1_555 1_555
C11 C12 1_555 1_555
N1A C2A 1_555 1_555
N4A C8A 1_555 1_555
C5A C6A 1_555 1_555
C11A C12A 1_555 1_555

#END
