
#######################################################################
#
#                 Cambridge Crystallographic Data Centre
#                                CCDC 
#
#######################################################################
#
# If this CIF has been generated from an entry in the Cambridge 
# Structural Database, then it will include bibliographic, chemical, 
# crystal, experimental, refinement or atomic coordinate data resulting 
# from the CCDC's data processing and validation procedures.
#
#######################################################################

data_OPIYUI
_symmetry_cell_setting           monoclinic
_symmetry_space_group_name_H-M   'C 2/c'
_symmetry_Int_Tables_number      15
_space_group_name_Hall           '-C 2yn'
loop_
_symmetry_equiv_pos_site_id
_symmetry_equiv_pos_as_xyz
1 x,y,z
2 -x,y,1/2-z
3 1/2+x,1/2+y,z
4 1/2-x,1/2+y,1/2-z
5 -x,-y,-z
6 x,-y,1/2+z
7 1/2-x,1/2-y,-z
8 1/2+x,1/2-y,1/2+z
_cell_length_a                   21.6393(6)
_cell_length_b                   13.1753(3)
_cell_length_c                   12.3516(3)
_cell_angle_alpha                90
_cell_angle_beta                 92.5570(10)
_cell_angle_gamma                90
_cell_volume                     3517.99
loop_
_atom_site_label
_atom_site_type_symbol
_atom_site_fract_x
_atom_site_fract_y
_atom_site_fract_z
C14 C 0.5214(9) 0.4345(16) 0.4657(17)
Cl1 Cl 0.56133(16) 0.5341(3) 0.5445(3)
C14D C 0.4786(9) 0.5655(16) 0.5343(17)
Cl1D Cl 0.43867(16) 0.4659(3) 0.4555(3)
C15 C 0.4353(13) 0.6559(14) 0.378(2)
O1 O 0.4390(8) 0.7323(11) 0.2971(13)
Co1 Co -0.2500 0.2500 0.0000
S1 S -0.33643(5) 0.03991(8) -0.28657(9)
N1 N -0.00832(17) 0.3932(3) 0.0067(3)
N2 N -0.03930(17) 0.2973(3) -0.1427(3)
N3 N -0.15798(16) 0.2755(3) -0.0640(3)
N4 N -0.2907(2) 0.6667(3) 0.0164(3)
N5 N -0.33239(19) 0.5838(3) -0.1358(3)
N6 N -0.28364(15) 0.3996(3) -0.0589(3)
N7 N -0.28002(15) 0.1823(2) -0.1463(3)
C1 C -0.0234(2) 0.4603(4) 0.0963(3)
H1 H -0.0570 0.4309 0.1352
H2 H 0.0123 0.4662 0.1462
C2 C 0.04210(19) 0.4354(4) -0.0556(4)
H3 H 0.0796 0.4400 -0.0099
H4 H 0.0501 0.3914 -0.1164
C3 C -0.05445(19) 0.3409(3) -0.0500(3)
C4 C -0.11453(19) 0.3301(3) -0.0115(3)
H5 H -0.1241 0.3623 0.0527
C5 C -0.1425(2) 0.2320(3) -0.1579(3)
H6 H -0.1715 0.1934 -0.1976
C6 C -0.0841(2) 0.2444(3) -0.1951(4)
H7 H -0.0751 0.2142 -0.2606
C7 C -0.2357(3) 0.6831(3) 0.0886(4)
H8 H -0.2468 0.7234 0.1505
H9 H -0.2200 0.6183 0.1150
C8 C -0.3140(3) 0.7627(3) -0.0285(4)
H10 H -0.3494 0.7497 -0.0776
H11 H -0.3276 0.8056 0.0297
C9 C -0.2986(2) 0.5791(3) -0.0423(3)
C10 C -0.2746(2) 0.4851(3) -0.0051(3)
H12 H -0.2514 0.4835 0.0601
C11 C -0.3166(2) 0.4056(3) -0.1541(4)
H13 H -0.3234 0.3476 -0.1959
C12 C -0.3402(3) 0.4970(4) -0.1896(4)
H14 H -0.3631 0.4983 -0.2551
C13 C -0.30330(18) 0.1238(3) -0.2068(3)
Co1B Co 0.2500 0.7500 0.0000
Co1_2 Co -0.2500 1.2500 0.0000
S1F S -0.16357(5) 0.46009(8) 0.28657(9)
N1D N 0.00832(17) 0.6068(3) -0.0067(3)
N2D N 0.03930(17) 0.7027(3) 0.1427(3)
N3D N 0.15798(16) 0.7245(3) 0.0640(3)
N3F N -0.34202(16) 0.2245(3) 0.0640(3)
N4F N -0.2093(2) 0.8333(3) -0.0164(3)
N5F N -0.16761(19) 0.9162(3) 0.1358(3)
N6F N -0.21636(15) 1.1004(3) 0.0589(3)
N6F_2 N -0.21636(15) 0.1004(3) 0.0589(3)
N7F N -0.21998(15) 0.3177(2) 0.1463(3)
C1D C 0.0234(2) 0.5397(4) -0.0963(3)
H1D H 0.0570 0.5691 -0.1352
H2D H -0.0123 0.5338 -0.1462
C2D C -0.04210(19) 0.5646(4) 0.0556(4)
H3D H -0.0796 0.5600 0.0099
H4D H -0.0501 0.6086 0.1164
C3D C 0.05445(19) 0.6591(3) 0.0500(3)
C4D C 0.11453(19) 0.6699(3) 0.0115(3)
H5D H 0.1241 0.6377 -0.0527
C5D C 0.1425(2) 0.7680(3) 0.1579(3)
H6D H 0.1715 0.8066 0.1976
C6D C 0.0841(2) 0.7556(3) 0.1951(4)
H7D H 0.0751 0.7858 0.2606
C7F C -0.2643(3) 0.8169(3) -0.0886(4)
H8F H -0.2532 0.7766 -0.1505
H9F H -0.2800 0.8817 -0.1150
C8F C -0.1860(3) 0.7373(3) 0.0285(4)
H10F H -0.1506 0.7503 0.0776
H11F H -0.1724 0.6944 -0.0297
C9F C -0.2014(2) 0.9209(3) 0.0423(3)
C10F C -0.2254(2) 1.0149(3) 0.0051(3)
H12F H -0.2486 1.0165 -0.0601
C11F C -0.1834(2) 1.0944(3) 0.1541(4)
H13F H -0.1766 1.1524 0.1959
C12F C -0.1598(3) 1.0030(4) 0.1896(4)
H14F H -0.1369 1.0017 0.2551
C13F C -0.19670(18) 0.3762(3) 0.2068(3)
Cl2? Cl 0.4438(3) 0.4276(5) 0.5181(5)
C16? C 0.4342(11) 0.6970(17) 0.3467(17)
O2? O 0.4617(5) 0.7285(10) 0.2525(13)
loop_
_geom_bond_atom_site_label_1
_geom_bond_atom_site_label_2
_geom_bond_site_symmetry_1
_geom_bond_site_symmetry_2
Co1 N3 1_555 1_555
S1 C13 1_555 1_555
N1 C1 1_555 1_555
N2 C3 1_555 1_555
N3 C4 1_555 1_555
N4 C7 1_555 1_555
N5 C9 1_555 1_555
N6 Co1 1_555 1_555
N7 Co1 1_555 1_555
C1 H1 1_555 1_555
H2 C1 1_555 1_555
C2 N1 1_555 1_555
H3 C2 1_555 1_555
H4 C2 1_555 1_555
C3 N1 1_555 1_555
C4 C3 1_555 1_555
H5 C4 1_555 1_555
C5 N3 1_555 1_555
H6 C5 1_555 1_555
C6 N2 1_555 1_555
H7 C6 1_555 1_555
C7 H8 1_555 1_555
H9 C7 1_555 1_555
C8 N4 1_555 1_555
H10 C8 1_555 1_555
H11 C8 1_555 1_555
C9 N4 1_555 1_555
C10 N6 1_555 1_555
H12 C10 1_555 1_555
C11 N6 1_555 1_555
H13 C11 1_555 1_555
C12 N5 1_555 1_555
H14 C12 1_555 1_555
C13 N7 1_555 1_555
C14 Cl1 1_555 1_555
Cl1 C14D 1_555 1_555
C15 O1 1_555 1_555
Co1B N3D 1_555 1_555
Co1_2 N6F 1_555 1_555
S1F C13F 1_555 1_555
N1D C1D 1_555 1_555
N2D C3D 1_555 1_555
N3D C4D 1_555 1_555
N3F Co1 1_555 1_555
N4F C7F 1_555 1_555
N5F C9F 1_555 1_555
N6F C10F 1_555 1_555
N6F_2 Co1 1_555 1_555
N7F Co1 1_555 1_555
C1D C2 1_555 1_555
H1D C1D 1_555 1_555
H2D C1D 1_555 1_555
C2D C1 1_555 1_555
H3D C2D 1_555 1_555
H4D C2D 1_555 1_555
C3D N1D 1_555 1_555
C4D C3D 1_555 1_555
H5D C4D 1_555 1_555
C5D N3D 1_555 1_555
H6D C5D 1_555 1_555
C6D N2D 1_555 1_555
H7D C6D 1_555 1_555
C7F C8 1_555 1_555
H8F C7F 1_555 1_555
H9F C7F 1_555 1_555
C8F C7 1_555 1_555
H10F C8F 1_555 1_555
H11F C8F 1_555 1_555
C9F N4F 1_555 1_555
C10F C9F 1_555 1_555
H12F C10F 1_555 1_555
C11F N6F 1_555 1_555
H13F C11F 1_555 1_555
C12F N5F 1_555 1_555
H14F C12F 1_555 1_555
C13F N7F 1_555 1_555
C14D Cl1D 1_555 1_555
Cl1D C14 1_555 1_555
C5 C6 1_555 1_555
C9 C10 1_555 1_555
C11 C12 1_555 1_555
N1D C2D 1_555 1_555
N4F C8F 1_555 1_555
C5D C6D 1_555 1_555
C11F C12F 1_555 1_555

#END
