
#######################################################################
#
#                 Cambridge Crystallographic Data Centre
#                                CCDC 
#
#######################################################################
#
# If this CIF has been generated from an entry in the Cambridge 
# Structural Database, then it will include bibliographic, chemical, 
# crystal, experimental, refinement or atomic coordinate data resulting 
# from the CCDC's data processing and validation procedures.
#
#######################################################################

data_OPIZAP
_symmetry_cell_setting           monoclinic
_symmetry_space_group_name_H-M   'C 2/c'
_symmetry_Int_Tables_number      15
_space_group_name_Hall           '-C 2yn'
loop_
_symmetry_equiv_pos_site_id
_symmetry_equiv_pos_as_xyz
1 x,y,z
2 -x,y,1/2-z
3 1/2+x,1/2+y,z
4 1/2-x,1/2+y,1/2-z
5 -x,-y,-z
6 x,-y,1/2+z
7 1/2-x,1/2-y,-z
8 1/2+x,1/2-y,1/2+z
_cell_length_a                   22.065(5)
_cell_length_b                   13.166(3)
_cell_length_c                   12.255(2)
_cell_angle_alpha                90
_cell_angle_beta                 92.379(5)
_cell_angle_gamma                90
_cell_volume                     3557.1
loop_
_atom_site_label
_atom_site_type_symbol
_atom_site_fract_x
_atom_site_fract_y
_atom_site_fract_z
C1 C 0.1212(3) 0.3361(4) 0.0202(4)
H1 H 0.1320 0.3755 -0.0409
C2 C 0.0623(3) 0.3456(4) 0.0568(4)
C3 C 0.0888(3) 0.2373(4) 0.1931(4)
H2 H 0.0792 0.2016 0.2576
C4 C 0.1453(2) 0.2253(4) 0.1546(3)
H3 H 0.1732 0.1807 0.1912
C5 C 0.2732(2) 0.4828(3) 0.0078(3)
H4 H 0.2468 0.4828 -0.0555
C6 C 0.2984(2) 0.5757(3) 0.0423(3)
C7 C 0.3435(3) 0.4908(4) 0.1839(5)
H5 H 0.3686 0.4910 0.2488
C8 C 0.3189(3) 0.4010(3) 0.1492(4)
H6 H 0.3267 0.3412 0.1908
C9 C 0.2349(3) 0.6813(4) -0.0885(4)
H7 H 0.2181 0.6152 -0.1135
H8 H 0.2470 0.7200 -0.1534
C10 C 0.3133(3) 0.7596(3) 0.0290(4)
H9 H 0.3280 0.8012 -0.0318
H10 H 0.3481 0.7452 0.0801
C11 C 0.0237(4) 0.4644(5) -0.0966(5)
H11 H 0.0568 0.4368 -0.1400
H12 H -0.0138 0.4676 -0.1437
C12 C -0.0392(4) 0.4384(5) 0.0563(5)
H13 H -0.0747 0.4426 0.0044
H14 H -0.0494 0.3927 0.1170
C13 C 0.3034(2) 0.1254(3) 0.2052(3)
N1 N 0.16229(19) 0.2755(3) 0.0657(3)
N2 N 0.28397(18) 0.3955(2) 0.0577(2)
N3 N 0.27979(17) 0.1822(2) 0.1442(2)
N4 N 0.0143(3) 0.3994(4) 0.0005(4)
N5 N 0.2885(2) 0.6645(3) -0.0140(3)
N6 N 0.0459(2) 0.2960(3) 0.1460(3)
N7 N 0.3342(2) 0.5788(3) 0.1313(3)
S1 S 0.33643(7) 0.04253(9) 0.28570(9)
Ni1 Ni 0.2500 0.2500 0.0000
C1D C -0.1212(3) 0.6639(4) -0.0202(4)
H1D H -0.1320 0.6245 0.0409
C2D C -0.0623(3) 0.6544(4) -0.0568(4)
C3D C -0.0888(3) 0.7627(4) -0.1931(4)
H2D H -0.0792 0.7984 -0.2576
C4D C -0.1453(2) 0.7747(4) -0.1546(3)
H3D H -0.1732 0.8193 -0.1912
C5F C 0.2268(2) 1.0172(3) -0.0078(3)
H4F H 0.2532 1.0172 0.0555
C6F C 0.2016(2) 0.9243(3) -0.0423(3)
C7F C 0.1565(3) 1.0092(4) -0.1839(5)
H5F H 0.1314 1.0090 -0.2488
C8F C 0.1811(3) 1.0990(3) -0.1492(4)
H6F H 0.1733 1.1588 -0.1908
C9F C 0.2651(3) 0.8187(4) 0.0885(4)
H7F H 0.2819 0.8848 0.1135
H8F H 0.2530 0.7800 0.1534
C10F C 0.1867(3) 0.7404(3) -0.0290(4)
H9F H 0.1720 0.6988 0.0318
H10F H 0.1519 0.7548 -0.0801
C11D C -0.0237(4) 0.5356(5) 0.0966(5)
H11D H -0.0568 0.5632 0.1400
H12D H 0.0138 0.5324 0.1437
C12D C 0.0392(4) 0.5616(5) -0.0563(5)
H13D H 0.0747 0.5574 -0.0044
H14D H 0.0494 0.6073 -0.1170
C13F C 0.1966(2) 0.3746(3) -0.2052(3)
N1D N -0.16229(19) 0.7245(3) -0.0657(3)
N1F N 0.33771(19) 0.2245(3) -0.0657(3)
N2F N 0.21603(18) 1.1045(2) -0.0577(2)
N2F_2 N 0.21603(18) 0.1045(2) -0.0577(2)
N3F N 0.22021(17) 0.3178(2) -0.1442(2)
N4D N -0.0143(3) 0.6006(4) -0.0005(4)
N5F N 0.2115(2) 0.8355(3) 0.0140(3)
N6D N -0.0459(2) 0.7040(3) -0.1460(3)
N7F N 0.1658(2) 0.9212(3) -0.1313(3)
S1F S 0.16357(7) 0.45747(9) -0.28570(9)
Ni1_2 Ni 0.2500 1.2500 0.0000
Ni1B Ni -0.2500 0.7500 0.0000
loop_
_geom_bond_atom_site_label_1
_geom_bond_atom_site_label_2
_geom_bond_site_symmetry_1
_geom_bond_site_symmetry_2
C1 H1 1_555 1_555
C2 C1 1_555 1_555
C3 H2 1_555 1_555
C4 C3 1_555 1_555
H3 C4 1_555 1_555
C5 H4 1_555 1_555
C6 C5 1_555 1_555
C7 H5 1_555 1_555
C8 C7 1_555 1_555
H6 C8 1_555 1_555
C9 H7 1_555 1_555
H8 C9 1_555 1_555
C10 H9 1_555 1_555
H10 C10 1_555 1_555
C11 H11 1_555 1_555
H12 C11 1_555 1_555
C12 H13 1_555 1_555
H14 C12 1_555 1_555
C13 N3 1_555 1_555
N1 C1 1_555 1_555
N2 C5 1_555 1_555
N3 Ni1 1_555 1_555
N4 C2 1_555 1_555
N5 C6 1_555 1_555
N6 C2 1_555 1_555
N7 C6 1_555 1_555
S1 C13 1_555 1_555
Ni1 N1 1_555 1_555
C1D H1D 1_555 1_555
C2D C1D 1_555 1_555
C3D H2D 1_555 1_555
C4D C3D 1_555 1_555
H3D C4D 1_555 1_555
C5F H4F 1_555 1_555
C6F C5F 1_555 1_555
C7F H5F 1_555 1_555
C8F C7F 1_555 1_555
H6F C8F 1_555 1_555
C9F C10 1_555 1_555
H7F C9F 1_555 1_555
H8F C9F 1_555 1_555
C10F C9 1_555 1_555
H9F C10F 1_555 1_555
H10F C10F 1_555 1_555
C11D C12 1_555 1_555
H11D C11D 1_555 1_555
H12D C11D 1_555 1_555
C12D C11 1_555 1_555
H13D C12D 1_555 1_555
H14D C12D 1_555 1_555
C13F N3F 1_555 1_555
N1D C1D 1_555 1_555
N1F Ni1 1_555 1_555
N2F C5F 1_555 1_555
N2F_2 Ni1 1_555 1_555
N3F Ni1 1_555 1_555
N4D C2D 1_555 1_555
N5F C6F 1_555 1_555
N6D C2D 1_555 1_555
N7F C6F 1_555 1_555
S1F C13F 1_555 1_555
Ni1_2 N2F 1_555 1_555
Ni1B N1D 1_555 1_555
C3 N6 1_555 1_555
C4 N1 1_555 1_555
C7 N7 1_555 1_555
C8 N2 1_555 1_555
C9 N5 1_555 1_555
C10 N5 1_555 1_555
C11 N4 1_555 1_555
C12 N4 1_555 1_555
N2 Ni1 1_555 1_555
C3D N6D 1_555 1_555
C4D N1D 1_555 1_555
C7F N7F 1_555 1_555
C8F N2F 1_555 1_555
C9F N5F 1_555 1_555
C10F N5F 1_555 1_555
C11D N4D 1_555 1_555
C12D N4D 1_555 1_555

#END
