
#######################################################################
#
#                 Cambridge Crystallographic Data Centre
#                                CCDC 
#
#######################################################################
#
# If this CIF has been generated from an entry in the Cambridge 
# Structural Database, then it will include bibliographic, chemical, 
# crystal, experimental, refinement or atomic coordinate data resulting 
# from the CCDC's data processing and validation procedures.
#
#######################################################################

data_OPIZUJ
_symmetry_cell_setting           triclinic
_symmetry_space_group_name_H-M   'P -1'
_symmetry_Int_Tables_number      2
_space_group_name_Hall           '-P 1'
loop_
_symmetry_equiv_pos_site_id
_symmetry_equiv_pos_as_xyz
1 x,y,z
2 -x,-y,-z
_cell_length_a                   7.4983(15)
_cell_length_b                   8.6759(17)
_cell_length_c                   9.793(2)
_cell_angle_alpha                82.62(3)
_cell_angle_beta                 67.51(3)
_cell_angle_gamma                84.25(3)
_cell_volume                     582.844
loop_
_atom_site_label
_atom_site_type_symbol
_atom_site_fract_x
_atom_site_fract_y
_atom_site_fract_z
Cd1 Cd 0.24410(4) 0.58476(3) 1.03244(3)
O1 O 0.3528(4) 0.6826(3) 1.1980(3)
O2 O 0.4380(4) 0.4363(3) 1.1580(3)
O3 O 0.9940(4) 0.5214(4) 1.2365(3)
O4 O 0.8086(4) 0.5842(3) 1.1040(3)
N1 N 0.0277(8) 0.9970(5) 0.6333(5)
N2 N 0.2409(7) 1.0853(5) 0.7207(5)
N3 N 0.2088(5) 0.8180(4) 0.9114(4)
C1 C -0.0990(8) 0.8901(6) 0.6205(6)
H1 H -0.2309 0.9341 0.6567
H2 H -0.0937 0.7934 0.6810
C2 C 0.0418(11) 1.1407(6) 0.5339(6)
H3 H 0.1358 1.2046 0.5419
H4 H -0.0823 1.1987 0.5649
C3 C 0.1243(7) 0.9760(5) 0.7252(5)
C4 C 0.3390(8) 1.0599(6) 0.8085(7)
H5 H 0.4192 1.1359 0.8065
C5 C 0.3288(8) 0.9278(5) 0.9018(6)
H6 H 0.4046 0.9135 0.9591
C6 C 0.1054(7) 0.8432(5) 0.8285(5)
H7 H 0.0164 0.7713 0.8379
C7 C 0.4706(5) 0.5272(4) 1.3663(4)
C8 C 0.6582(5) 0.5198(4) 1.3654(4)
C9 C 0.3161(5) 0.5085(4) 1.4999(4)
H8 H 0.1915 0.5149 1.5000
C10 C 0.4229(5) 0.5538(5) 1.2285(4)
C11 C 0.8317(5) 0.5443(4) 1.2251(4)
Cd1A Cd 0.75590(4) 0.41524(3) 1.96756(3)
Cd1A_2 Cd 0.75590(4) 0.41524(3) 0.96756(3)
Cd1_2 Cd 1.24410(4) 0.58476(3) 1.03244(3)
Cd1_3 Cd 0.24410(4) 0.58476(3) 2.03244(3)
Cd1A_3 Cd -0.24410(4) 0.41524(3) 1.96756(3)
Cd1A_4 Cd -0.24410(4) 1.41524(3) -0.03244(3)
O1A O 0.6472(4) 0.3174(3) 1.8020(3)
O1A_2 O -0.3528(4) 0.3174(3) 1.8020(3)
O2A O 0.5620(4) 0.5637(3) 1.8420(3)
O2A_2 O 0.5620(4) 0.5637(3) 0.8420(3)
O2_2 O -0.5620(4) 0.4363(3) 2.1580(3)
O2A_3 O -0.4380(4) 0.5637(3) 1.8420(3)
O3A O 0.0060(4) 0.4786(4) 1.7635(3)
O3_2 O -0.0060(4) 0.5214(4) 1.2365(3)
O4A O 0.1914(4) 0.4158(3) 1.8960(3)
O4A_2 O 0.1914(4) 0.4158(3) 0.8960(3)
O4_2 O -0.1914(4) 0.5842(3) 2.1040(3)
N1A N -0.0277(8) 1.0030(5) 0.3667(5)
N2A N -0.2409(7) 0.9147(5) 0.2793(5)
N3A N -0.2088(5) 1.1820(4) 0.0886(4)
N3A_2 N -0.2088(5) 0.1820(4) 2.0886(4)
C1A C 0.0990(8) 1.1099(6) 0.3795(6)
H1A H 0.2309 1.0659 0.3433
H2A H 0.0937 1.2066 0.3190
C2A C -0.0418(11) 0.8593(6) 0.4661(6)
H3A H -0.1358 0.7954 0.4581
H4A H 0.0823 0.8013 0.4351
C3A C -0.1243(7) 1.0240(5) 0.2748(5)
C4A C -0.3390(8) 0.9401(6) 0.1915(7)
H5A H -0.4192 0.8641 0.1935
C5A C -0.3288(8) 1.0722(5) 0.0982(6)
H6A H -0.4046 1.0865 0.0409
C6A C -0.1054(7) 1.1568(5) 0.1715(5)
H7A H -0.0164 1.2287 0.1621
C7A C 0.5294(5) 0.4728(4) 1.6337(4)
C8A C 0.3418(5) 0.4802(4) 1.6346(4)
C9A C 0.6839(5) 0.4915(4) 1.5001(4)
H8A H 0.8085 0.4851 1.5000
C10A C 0.5771(5) 0.4462(5) 1.7715(4)
C11A C 0.1683(5) 0.4557(4) 1.7749(4)
loop_
_geom_bond_atom_site_label_1
_geom_bond_atom_site_label_2
_geom_bond_site_symmetry_1
_geom_bond_site_symmetry_2
Cd1 O1 1_555 1_555
O1 C10 1_555 1_555
O2 Cd1 1_555 1_555
O3 C11 1_555 1_555
O4 C11 1_555 1_555
N1 C1 1_555 1_555
N2 C3 1_555 1_555
N3 Cd1 1_555 1_555
C1 H1 1_555 1_555
H2 C1 1_555 1_555
C2 N1 1_555 1_555
H3 C2 1_555 1_555
H4 C2 1_555 1_555
C3 N1 1_555 1_555
C4 N2 1_555 1_555
H5 C4 1_555 1_555
C5 N3 1_555 1_555
H6 C5 1_555 1_555
C6 N3 1_555 1_555
H7 C6 1_555 1_555
C7 C8 1_555 1_555
C8 C11 1_555 1_555
C9 C7 1_555 1_555
H8 C9 1_555 1_555
C10 O2 1_555 1_555
Cd1A O1A 1_555 1_555
Cd1A_2 O2 1_555 1_555
Cd1_2 O3 1_555 1_555
Cd1_3 O2A 1_555 1_555
Cd1A_3 O1A_2 1_555 1_555
Cd1A_4 N3A 1_555 1_555
O1A C10A 1_555 1_555
O2A Cd1A 1_555 1_555
O2A_2 Cd1 1_555 1_555
O2_2 Cd1A_3 1_555 1_555
O2A_3 Cd1A_3 1_555 1_555
O3A Cd1A_3 1_555 1_555
O3_2 Cd1 1_555 1_555
O4A Cd1_3 1_555 1_555
O4A_2 Cd1 1_555 1_555
O4_2 Cd1A_3 1_555 1_555
N1A C1A 1_555 1_555
N2A C3A 1_555 1_555
N3A C5A 1_555 1_555
N3A_2 Cd1A_3 1_555 1_555
C1A C2 1_555 1_555
H1A C1A 1_555 1_555
H2A C1A 1_555 1_555
C2A C1 1_555 1_555
H3A C2A 1_555 1_555
H4A C2A 1_555 1_555
C3A N1A 1_555 1_555
C4A N2A 1_555 1_555
H5A C4A 1_555 1_555
C5A C4A 1_555 1_555
H6A C5A 1_555 1_555
C6A N3A 1_555 1_555
H7A C6A 1_555 1_555
C7A C8A 1_555 1_555
C8A C9 1_555 1_555
C9A C8 1_555 1_555
H8A C9A 1_555 1_555
C10A O2A 1_555 1_555
C11A O3A 1_555 1_555
O4 Cd1A_2 1_555 1_555
C3 C6 1_555 1_555
C4 C5 1_555 1_555
C7 C10 1_555 1_555
Cd1A_2 O2A_2 1_555 1_555
O4A C11A 1_555 1_555
N1A C2A 1_555 1_555
C3A C6A 1_555 1_555
C7A C9A 1_555 1_555
C7A C10A 1_555 1_555
C8A C11A 1_555 1_555

#END
