
#######################################################################
#
#                 Cambridge Crystallographic Data Centre
#                                CCDC 
#
#######################################################################
#
# If this CIF has been generated from an entry in the Cambridge 
# Structural Database, then it will include bibliographic, chemical, 
# crystal, experimental, refinement or atomic coordinate data resulting 
# from the CCDC's data processing and validation procedures.
#
#######################################################################

data_OPIZIX
_symmetry_cell_setting           triclinic
_symmetry_space_group_name_H-M   'P -1'
_symmetry_Int_Tables_number      2
_space_group_name_Hall           '-P 1'
loop_
_symmetry_equiv_pos_site_id
_symmetry_equiv_pos_as_xyz
1 x,y,z
2 -x,-y,-z
_cell_length_a                   8.7180(2)
_cell_length_b                   10.2280(2)
_cell_length_c                   13.3920(3)
_cell_angle_alpha                107.5930(10)
_cell_angle_beta                 95.6450(10)
_cell_angle_gamma                111.9920(10)
_cell_volume                     1024.78
loop_
_atom_site_label
_atom_site_type_symbol
_atom_site_fract_x
_atom_site_fract_y
_atom_site_fract_z
Cd1 Cd 1.0000 0.0000 0.5000
Cl1 Cl 1.46768(8) 0.21571(8) 0.56583(6)
O1 O 1.2962(2) 0.0988(2) 0.51082(18)
O2 O 1.5134(3) 0.2080(3) 0.66887(19)
O3 O 1.5800(3) 0.1872(4) 0.5029(2)
O4 O 1.4694(4) 0.3576(3) 0.5778(3)
N1 N 0.9665(3) 0.1658(3) 0.42029(18)
N2 N 0.9216(3) 0.3750(3) 0.3419(2)
N3 N 0.6311(3) 0.2209(3) 0.2783(2)
N4 N 0.3015(3) 0.1816(3) 0.1872(2)
N5 N 0.1346(3) 0.2776(3) 0.1148(2)
N6 N -0.1626(3) 0.0306(3) 0.0973(2)
N7 N 0.9682(3) -0.1810(2) 0.33474(18)
N8 N 0.9208(3) -0.4122(3) 0.14385(19)
N9 N 0.6553(3) -0.4266(2) 0.07961(18)
C1 C 1.0992(4) 0.2984(4) 0.4345(3)
H1 H 1.2100 0.3227 0.4748
C2 C 1.0730(4) 0.3987(4) 0.3944(3)
H2 H 1.1718 0.4887 0.4037
C3 C 0.7889(4) 0.2446(3) 0.3278(2)
C4 C 0.8146(4) 0.1398(3) 0.3679(2)
H3 H 0.7186 0.0469 0.3570
C5 C 0.4901(4) 0.0695(3) 0.2290(3)
H4 H 0.4908 0.0244 0.1550
H5 H 0.5030 0.0076 0.2677
C6 C 0.3198(4) 0.0747(3) 0.2324(3)
H6 H 0.3116 0.1044 0.3062
H7 H 0.2318 -0.0250 0.1917
C7 C 0.4407(4) 0.3326(3) 0.2416(3)
H8 H 0.4277 0.4003 0.2087
H9 H 0.4389 0.3694 0.3163
C8 C 0.6112(4) 0.3305(4) 0.2357(3)
H10 H 0.6993 0.4296 0.2778
H11 H 0.6193 0.3039 0.1619
C9 C 0.1418(4) 0.1695(3) 0.1484(2)
C10 C -0.0112(4) 0.0471(4) 0.1404(3)
H12 H -0.0018 -0.0254 0.1694
C11 C -0.1667(4) 0.1375(4) 0.0609(3)
H13 H -0.2740 0.1297 0.0276
C12 C -0.0207(4) 0.2592(3) 0.0707(3)
H14 H -0.0324 0.3336 0.0446
C13 C 1.0854(4) -0.2368(3) 0.3200(2)
H15 H 1.1881 -0.1947 0.3752
C14 C 1.0589(4) -0.3517(3) 0.2250(2)
H16 H 1.1450 -0.3888 0.2181
C15 C 0.8030(3) -0.3587(3) 0.1585(2)
C16 C 0.8296(3) -0.2403(3) 0.2556(2)
H17 H 0.7450 -0.2015 0.2637
C17 C 0.5526(4) -0.3444(3) 0.0658(2)
H18 H 0.5653 -0.2718 0.1348
H19 H 0.5914 -0.2928 0.0178
C18 C 0.6338(3) -0.5471(3) -0.0202(2)
H20 H 0.6763 -0.5034 -0.0715
H21 H 0.6969 -0.6012 -0.0054
Cd1_2 Cd 0.0000 -1.0000 -0.5000
Cl1A Cl 0.53232(8) -0.21571(8) 0.43417(6)
O1A O 0.7038(2) -0.0988(2) 0.48918(18)
O2A O 0.4866(3) -0.2080(3) 0.33113(19)
O3A O 0.4200(3) -0.1872(4) 0.4971(2)
O4A O 0.5306(4) -0.3576(3) 0.4222(3)
N1A N 1.0335(3) -0.1658(3) 0.57971(18)
N2A N 1.0784(3) -0.3750(3) 0.6581(2)
N3A N 1.3689(3) -0.2209(3) 0.7217(2)
N4A N 1.6985(3) -0.1816(3) 0.8128(2)
N5A N 1.8654(3) -0.2776(3) 0.8852(2)
N6A N 2.1626(3) -0.0306(3) 0.9027(2)
N7A N 0.0318(3) -0.8190(2) -0.33474(18)
N7A_2 N 1.0318(3) 0.1810(2) 0.66526(18)
N8A N 0.0792(3) -0.5878(3) -0.14385(19)
N9A N 0.3447(3) -0.5734(2) -0.07961(18)
C1A C 0.9008(4) -0.2984(4) 0.5655(3)
H1A H 0.7900 -0.3227 0.5252
C2A C 0.9270(4) -0.3987(4) 0.6056(3)
H2A H 0.8282 -0.4887 0.5963
C3A C 1.2111(4) -0.2446(3) 0.6722(2)
C4A C 1.1854(4) -0.1398(3) 0.6321(2)
H3A H 1.2814 -0.0469 0.6430
C5A C 1.5099(4) -0.0695(3) 0.7710(3)
H4A H 1.5092 -0.0244 0.8450
H5A H 1.4970 -0.0076 0.7323
C6A C 1.6802(4) -0.0747(3) 0.7676(3)
H6A H 1.6884 -0.1044 0.6938
H7A H 1.7682 0.0250 0.8083
C7A C 1.5593(4) -0.3326(3) 0.7584(3)
H8A H 1.5723 -0.4003 0.7913
H9A H 1.5611 -0.3694 0.6837
C8A C 1.3888(4) -0.3305(4) 0.7643(3)
H10A H 1.3007 -0.4296 0.7222
H11A H 1.3807 -0.3039 0.8381
C9A C 1.8582(4) -0.1695(3) 0.8516(2)
C10A C 2.0112(4) -0.0471(4) 0.8596(3)
H12A H 2.0018 0.0254 0.8306
C11A C 2.1667(4) -0.1375(4) 0.9391(3)
H13A H 2.2740 -0.1297 0.9724
C12A C 2.0207(4) -0.2592(3) 0.9293(3)
H14A H 2.0324 -0.3336 0.9554
C13A C -0.0854(4) -0.7632(3) -0.3200(2)
H15A H -0.1881 -0.8053 -0.3752
C14A C -0.0589(4) -0.6483(3) -0.2250(2)
H16A H -0.1450 -0.6112 -0.2181
C15A C 0.1970(3) -0.6413(3) -0.1585(2)
C16A C 0.1704(3) -0.7597(3) -0.2556(2)
H17A H 0.2550 -0.7985 -0.2637
C17A C 0.4474(4) -0.6556(3) -0.0658(2)
H18A H 0.4347 -0.7282 -0.1348
H19A H 0.4086 -0.7072 -0.0178
C18A C 0.3662(3) -0.4529(3) 0.0202(2)
H20A H 0.3237 -0.4966 0.0715
H21A H 0.3031 -0.3988 0.0054
loop_
_geom_bond_atom_site_label_1
_geom_bond_atom_site_label_2
_geom_bond_site_symmetry_1
_geom_bond_site_symmetry_2
Cd1 O1 1_555 1_555
Cl1 O1 1_555 1_555
O2 Cl1 1_555 1_555
O3 Cl1 1_555 1_555
O4 Cl1 1_555 1_555
N1 Cd1 1_555 1_555
N2 C2 1_555 1_555
N3 C3 1_555 1_555
N4 C6 1_555 1_555
N5 C9 1_555 1_555
N6 C10 1_555 1_555
N7 Cd1 1_555 1_555
N8 C14 1_555 1_555
N9 C15 1_555 1_555
C1 N1 1_555 1_555
H1 C1 1_555 1_555
C2 C1 1_555 1_555
H2 C2 1_555 1_555
C3 N2 1_555 1_555
C4 N1 1_555 1_555
H3 C4 1_555 1_555
C5 N3 1_555 1_555
H4 C5 1_555 1_555
H5 C5 1_555 1_555
C6 C5 1_555 1_555
H6 C6 1_555 1_555
H7 C6 1_555 1_555
C7 N4 1_555 1_555
H8 C7 1_555 1_555
H9 C7 1_555 1_555
C8 N3 1_555 1_555
H10 C8 1_555 1_555
H11 C8 1_555 1_555
C9 N4 1_555 1_555
C10 C9 1_555 1_555
H12 C10 1_555 1_555
C11 N6 1_555 1_555
H13 C11 1_555 1_555
C12 N5 1_555 1_555
H14 C12 1_555 1_555
C13 N7 1_555 1_555
H15 C13 1_555 1_555
C14 C13 1_555 1_555
H16 C14 1_555 1_555
C15 N8 1_555 1_555
C16 N7 1_555 1_555
H17 C16 1_555 1_555
C17 N9 1_555 1_555
H18 C17 1_555 1_555
H19 C17 1_555 1_555
C18 N9 1_555 1_555
H20 C18 1_555 1_555
H21 C18 1_555 1_555
Cd1_2 N7A 1_555 1_555
Cl1A O1A 1_555 1_555
O1A Cd1 1_555 1_555
O2A Cl1A 1_555 1_555
O3A Cl1A 1_555 1_555
O4A Cl1A 1_555 1_555
N1A Cd1 1_555 1_555
N2A C2A 1_555 1_555
N3A C3A 1_555 1_555
N4A C6A 1_555 1_555
N5A C9A 1_555 1_555
N6A C10A 1_555 1_555
N7A C13A 1_555 1_555
N7A_2 Cd1 1_555 1_555
N8A C14A 1_555 1_555
N9A C15A 1_555 1_555
C1A N1A 1_555 1_555
H1A C1A 1_555 1_555
C2A C1A 1_555 1_555
H2A C2A 1_555 1_555
C3A N2A 1_555 1_555
C4A N1A 1_555 1_555
H3A C4A 1_555 1_555
C5A N3A 1_555 1_555
H4A C5A 1_555 1_555
H5A C5A 1_555 1_555
C6A C5A 1_555 1_555
H6A C6A 1_555 1_555
H7A C6A 1_555 1_555
C7A N4A 1_555 1_555
H8A C7A 1_555 1_555
H9A C7A 1_555 1_555
C8A N3A 1_555 1_555
H10A C8A 1_555 1_555
H11A C8A 1_555 1_555
C9A N4A 1_555 1_555
C10A C9A 1_555 1_555
H12A C10A 1_555 1_555
C11A N6A 1_555 1_555
H13A C11A 1_555 1_555
C12A N5A 1_555 1_555
H14A C12A 1_555 1_555
C13A H15A 1_555 1_555
C14A C13A 1_555 1_555
H16A C14A 1_555 1_555
C15A N8A 1_555 1_555
C16A N7A 1_555 1_555
H17A C16A 1_555 1_555
C17A C18 1_555 1_555
H18A C17A 1_555 1_555
H19A C17A 1_555 1_555
C18A C17 1_555 1_555
H20A C18A 1_555 1_555
H21A C18A 1_555 1_555
C3 C4 1_555 1_555
C7 C8 1_555 1_555
C11 C12 1_555 1_555
C15 C16 1_555 1_555
N9A C17A 1_555 1_555
N9A C18A 1_555 1_555
C3A C4A 1_555 1_555
C7A C8A 1_555 1_555
C11A C12A 1_555 1_555
C15A C16A 1_555 1_555

#END
