
#######################################################################
#
#                 Cambridge Crystallographic Data Centre
#                                CCDC 
#
#######################################################################
#
# If this CIF has been generated from an entry in the Cambridge 
# Structural Database, then it will include bibliographic, chemical, 
# crystal, experimental, refinement or atomic coordinate data resulting 
# from the CCDC's data processing and validation procedures.
#
#######################################################################

data_OPIZOD
_symmetry_cell_setting           triclinic
_symmetry_space_group_name_H-M   'P -1'
_symmetry_Int_Tables_number      2
_space_group_name_Hall           '-P 1'
loop_
_symmetry_equiv_pos_site_id
_symmetry_equiv_pos_as_xyz
1 x,y,z
2 -x,-y,-z
_cell_length_a                   10.3434(2)
_cell_length_b                   10.5131(2)
_cell_length_c                   13.7616(4)
_cell_angle_alpha                85.2730(10)
_cell_angle_beta                 73.3010(10)
_cell_angle_gamma                67.7280(10)
_cell_volume                     1325.82
loop_
_atom_site_label
_atom_site_type_symbol
_atom_site_fract_x
_atom_site_fract_y
_atom_site_fract_z
Cd1 Cd -1.08443(2) 0.08288(2) 0.708608(17)
O1 O -0.8521(3) -0.0455(3) 0.58171(19)
O2 O -0.8789(2) 0.1458(3) 0.65374(19)
O3 O -1.2215(3) 0.2803(3) 0.7915(2)
O4 O -1.3417(3) 0.1537(3) 0.8789(3)
O5 O -1.1785(3) 0.1935(3) 0.57901(19)
H1 H -1.1774 0.1460 0.5315
H2 H -1.2562 0.2648 0.5898
N1 N -0.9755(3) -0.0544(3) 0.8286(2)
N2 N -0.8630(4) -0.2114(4) 0.9787(3)
N3 N -1.0672(3) -0.2660(3) 1.0372(2)
N4 N -1.2374(3) -0.3783(3) 1.1938(3)
N5 N -1.2564(3) -0.5737(3) 1.2785(3)
N6 N -1.5535(3) -0.4276(3) 1.3637(3)
N7 N -1.1711(3) -0.0886(3) 0.6906(2)
N8 N -1.2725(3) -0.2926(3) 0.6710(3)
N9 N -1.0375(3) -0.4435(3) 0.5988(2)
C1 C -0.8026(3) 0.0426(3) 0.5956(3)
C2 C -0.6465(3) 0.0203(3) 0.5452(2)
C3 C -0.5523(4) -0.0991(3) 0.4883(3)
H5 H -0.5869 -0.1663 0.4804
C4 C -0.5921(4) 0.1191(4) 0.5566(3)
H6 H -0.6535 0.1993 0.5948
C5 C -1.3203(4) 0.2637(4) 0.8636(3)
C6 C -1.4154(4) 0.3866(4) 0.9336(3)
C7 C -1.5154(4) 0.3747(4) 1.0218(3)
H7 H -1.5269 0.2910 1.0366
C8 C -1.4013(4) 0.5134(4) 0.9116(3)
H8 H -1.3356 0.5229 0.8519
C9 C -0.8471(4) -0.0643(5) 0.8384(3)
H9 H -0.7945 -0.0174 0.7950
C10 C -0.7932(5) -0.1436(6) 0.9124(4)
H10 H -0.7026 -0.1504 0.9164
C11 C -0.9917(4) -0.2005(4) 0.9698(3)
C12 C -1.0469(4) -0.1203(4) 0.8931(3)
H11 H -1.1369 -0.1139 0.8879
C13 C -1.0089(4) -0.3464(4) 1.1173(3)
H12 H -0.9048 -0.3946 1.0909
H13 H -1.0259 -0.2852 1.1725
C14 C -1.0800(4) -0.4485(4) 1.1564(3)
H14 H -1.0423 -0.4990 1.2109
H15 H -1.0572 -0.5138 1.1024
C15 C -1.3020(4) -0.2491(5) 1.1485(4)
H16 H -1.3996 -0.2378 1.1487
H17 H -1.3096 -0.1744 1.1894
C16 C -1.2179(5) -0.2403(6) 1.0440(4)
H18 H -1.2618 -0.1495 1.0193
H19 H -1.2212 -0.3069 1.0010
C17 C -1.3211(4) -0.4413(4) 1.2576(3)
C18 C -1.4704(4) -0.3699(4) 1.3033(3)
H20 H -1.5115 -0.2773 1.2899
C19 C -1.4901(4) -0.5620(4) 1.3808(3)
H21 H -1.5461 -0.6083 1.4211
C20 C -1.3440(4) -0.6312(4) 1.3394(4)
H22 H -1.3036 -0.7232 1.3547
C21 C -1.0811(4) -0.2094(4) 0.6480(3)
H23 H -0.9823 -0.2258 0.6239
C22 C -1.1304(4) -0.3151(4) 0.6379(3)
C23 C -1.3601(4) -0.1694(4) 0.7138(4)
H24 H -1.4591 -0.1517 0.7375
C24 C -1.3138(4) -0.0676(4) 0.7251(3)
H25 H -1.3802 0.0159 0.7565
C25 C -0.8942(4) -0.4666(4) 0.5284(3)
H26 H -0.8588 -0.3982 0.5415
H27 H -0.8262 -0.5567 0.5384
C26 C -1.0964(4) -0.5429(4) 0.5804(3)
H28 H -1.0340 -0.6351 0.5920
H29 H -1.1923 -0.5238 0.6270
Cd1A Cd 0.08443(2) -0.08288(2) 0.291392(17)
Cd1A_2 Cd -1.91557(2) 0.91712(2) 1.291392(17)
Cd1A_3 Cd -0.91557(2) -1.08288(2) 0.291392(17)
O1A O -0.1479(3) 0.0455(3) 0.41829(19)
O2A O -0.1211(2) -0.1458(3) 0.34626(19)
O3A O -1.7785(3) 0.7197(3) 1.2085(2)
O3A_2 O 0.2215(3) -0.2803(3) 0.2085(2)
O4A O -1.6583(3) 0.8463(3) 1.1211(3)
O5A O 0.1785(3) -0.1935(3) 0.42099(19)
H1A H 0.1774 -0.1460 0.4685
H2A H 0.2562 -0.2648 0.4102
N1A N -0.0245(3) 0.0544(3) 0.1714(2)
N2A N -0.1370(4) 0.2114(4) 0.0213(3)
N3A N 0.0672(3) 0.2660(3) -0.0372(2)
N4A N 0.2374(3) 0.3783(3) -0.1938(3)
N5A N 0.2564(3) 0.5737(3) -0.2785(3)
N6A N 0.5535(3) 0.4276(3) -0.3637(3)
N7A N -0.8289(3) -0.9114(3) 0.3094(2)
N7A_2 N 0.1711(3) 0.0886(3) 0.3094(2)
N8A N -0.7275(3) -0.7074(3) 0.3290(3)
N9A N -0.9625(3) -0.5565(3) 0.4012(2)
C1A C -0.1974(3) -0.0426(3) 0.4044(3)
C2A C -0.3535(3) -0.0203(3) 0.4548(2)
C3A C -0.4477(4) 0.0991(3) 0.5117(3)
H5A H -0.4131 0.1663 0.5196
C4A C -0.4079(4) -0.1191(4) 0.4434(3)
H6A H -0.3465 -0.1993 0.4052
C5A C -1.6797(4) 0.7363(4) 1.1364(3)
C6A C -1.5846(4) 0.6134(4) 1.0664(3)
C7A C -1.4846(4) 0.6253(4) 0.9782(3)
H7A H -1.4731 0.7090 0.9634
C8A C -1.5987(4) 0.4866(4) 1.0884(3)
H8A H -1.6644 0.4771 1.1481
C9A C -0.1529(4) 0.0643(5) 0.1616(3)
H9A H -0.2055 0.0174 0.2050
C10A C -0.2068(5) 0.1436(6) 0.0876(4)
H10A H -0.2974 0.1504 0.0836
C11A C -0.0083(4) 0.2005(4) 0.0302(3)
C12A C 0.0469(4) 0.1203(4) 0.1069(3)
H11A H 0.1369 0.1139 0.1121
C13A C 0.0089(4) 0.3464(4) -0.1173(3)
H12A H -0.0952 0.3946 -0.0909
H13A H 0.0259 0.2852 -0.1725
C14A C 0.0800(4) 0.4485(4) -0.1564(3)
H14A H 0.0423 0.4990 -0.2109
H15A H 0.0572 0.5138 -0.1024
C15A C 0.3020(4) 0.2491(5) -0.1485(4)
H16A H 0.3996 0.2378 -0.1487
H17A H 0.3096 0.1744 -0.1894
C16A C 0.2179(5) 0.2403(6) -0.0440(4)
H18A H 0.2618 0.1495 -0.0193
H19A H 0.2212 0.3069 -0.0010
C17A C 0.3211(4) 0.4413(4) -0.2576(3)
C18A C 0.4704(4) 0.3699(4) -0.3033(3)
H20A H 0.5115 0.2773 -0.2899
C19A C 0.4901(4) 0.5620(4) -0.3808(3)
H21A H 0.5461 0.6083 -0.4211
C20A C 0.3440(4) 0.6312(4) -0.3394(4)
H22A H 0.3036 0.7232 -0.3547
C21A C -0.9189(4) -0.7906(4) 0.3520(3)
H23A H -1.0177 -0.7742 0.3761
C22A C -0.8696(4) -0.6849(4) 0.3621(3)
C23A C -0.6399(4) -0.8306(4) 0.2862(4)
H24A H -0.5409 -0.8483 0.2625
C24A C -0.6862(4) -0.9324(4) 0.2749(3)
H25A H -0.6198 -1.0159 0.2435
C25A C -1.1058(4) -0.5334(4) 0.4716(3)
H26A H -1.1412 -0.6018 0.4585
H27A H -1.1738 -0.4433 0.4616
C26A C -0.9036(4) -0.4571(4) 0.4196(3)
H28A H -0.9660 -0.3649 0.4080
H29A H -0.8077 -0.4762 0.3730
O6 O 0.5094(10) 0.0341(8) 0.0391(7)
H3 H 0.4568 0.0352 0.0994
H4 H 0.5597 0.0820 0.0392
loop_
_geom_bond_atom_site_label_1
_geom_bond_atom_site_label_2
_geom_bond_site_symmetry_1
_geom_bond_site_symmetry_2
Cd1 O1 1_555 1_555
O1 C1 1_555 1_555
O2 Cd1 1_555 1_555
O3 Cd1 1_555 1_555
O4 C5 1_555 1_555
O5 Cd1 1_555 1_555
H1 O5 1_555 1_555
H2 O5 1_555 1_555
O6 H3 1_555 1_555
H4 O6 1_555 1_555
N1 Cd1 1_555 1_555
N2 C10 1_555 1_555
N3 C11 1_555 1_555
N4 C14 1_555 1_555
N5 C17 1_555 1_555
N6 C18 1_555 1_555
N7 Cd1 1_555 1_555
N8 C22 1_555 1_555
N9 C22 1_555 1_555
C1 O2 1_555 1_555
C2 C1 1_555 1_555
C3 C2 1_555 1_555
H5 C3 1_555 1_555
C4 C2 1_555 1_555
H6 C4 1_555 1_555
C5 O3 1_555 1_555
C6 C5 1_555 1_555
C7 C6 1_555 1_555
H7 C7 1_555 1_555
C8 C6 1_555 1_555
H8 C8 1_555 1_555
C9 N1 1_555 1_555
H9 C9 1_555 1_555
C10 C9 1_555 1_555
H10 C10 1_555 1_555
C11 N2 1_555 1_555
C12 N1 1_555 1_555
H11 C12 1_555 1_555
C13 N3 1_555 1_555
H12 C13 1_555 1_555
H13 C13 1_555 1_555
C14 C13 1_555 1_555
H14 C14 1_555 1_555
H15 C14 1_555 1_555
C15 N4 1_555 1_555
H16 C15 1_555 1_555
H17 C15 1_555 1_555
C16 N3 1_555 1_555
H18 C16 1_555 1_555
H19 C16 1_555 1_555
C17 N4 1_555 1_555
C18 C17 1_555 1_555
H20 C18 1_555 1_555
C19 N6 1_555 1_555
H21 C19 1_555 1_555
C20 N5 1_555 1_555
H22 C20 1_555 1_555
C21 N7 1_555 1_555
H23 C21 1_555 1_555
C22 C21 1_555 1_555
C23 N8 1_555 1_555
H24 C23 1_555 1_555
C24 N7 1_555 1_555
H25 C24 1_555 1_555
C25 N9 1_555 1_555
H26 C25 1_555 1_555
H27 C25 1_555 1_555
C26 N9 1_555 1_555
H28 C26 1_555 1_555
H29 C26 1_555 1_555
Cd1A O1A 1_555 1_555
Cd1A_2 O3A 1_555 1_555
Cd1A_3 N7A 1_555 1_555
O1A C1A 1_555 1_555
O2A Cd1A 1_555 1_555
O3A C5A 1_555 1_555
O3A_2 Cd1A 1_555 1_555
O4A C5A 1_555 1_555
O5A Cd1A 1_555 1_555
H1A O5A 1_555 1_555
H2A O5A 1_555 1_555
N1A Cd1A 1_555 1_555
N2A C10A 1_555 1_555
N3A C11A 1_555 1_555
N4A C14A 1_555 1_555
N5A C17A 1_555 1_555
N6A C18A 1_555 1_555
N7A C21A 1_555 1_555
N7A_2 Cd1A 1_555 1_555
N8A C22A 1_555 1_555
N9A C22A 1_555 1_555
C1A O2A 1_555 1_555
C2A C1A 1_555 1_555
C3A C4 1_555 1_555
H5A C3A 1_555 1_555
C4A C3 1_555 1_555
H6A C4A 1_555 1_555
C5A C6A 1_555 1_555
C6A C7A 1_555 1_555
C7A C8 1_555 1_555
H7A C7A 1_555 1_555
C8A C7 1_555 1_555
H8A C8A 1_555 1_555
C9A N1A 1_555 1_555
H9A C9A 1_555 1_555
C10A C9A 1_555 1_555
H10A C10A 1_555 1_555
C11A N2A 1_555 1_555
C12A N1A 1_555 1_555
H11A C12A 1_555 1_555
C13A N3A 1_555 1_555
H12A C13A 1_555 1_555
H13A C13A 1_555 1_555
C14A C13A 1_555 1_555
H14A C14A 1_555 1_555
H15A C14A 1_555 1_555
C15A N4A 1_555 1_555
H16A C15A 1_555 1_555
H17A C15A 1_555 1_555
C16A N3A 1_555 1_555
H18A C16A 1_555 1_555
H19A C16A 1_555 1_555
C17A N4A 1_555 1_555
C18A C17A 1_555 1_555
H20A C18A 1_555 1_555
C19A N6A 1_555 1_555
H21A C19A 1_555 1_555
C20A N5A 1_555 1_555
H22A C20A 1_555 1_555
C21A H23A 1_555 1_555
C22A C21A 1_555 1_555
C23A N8A 1_555 1_555
H24A C23A 1_555 1_555
C24A N7A 1_555 1_555
H25A C24A 1_555 1_555
C25A C26 1_555 1_555
H26A C25A 1_555 1_555
H27A C25A 1_555 1_555
C26A C25 1_555 1_555
H28A C26A 1_555 1_555
H29A C26A 1_555 1_555
C11 C12 1_555 1_555
C15 C16 1_555 1_555
C19 C20 1_555 1_555
C23 C24 1_555 1_555
N9A C25A 1_555 1_555
N9A C26A 1_555 1_555
C2A C3A 1_555 1_555
C2A C4A 1_555 1_555
C6A C8A 1_555 1_555
C11A C12A 1_555 1_555
C15A C16A 1_555 1_555
C19A C20A 1_555 1_555
C23A C24A 1_555 1_555

#END
