
#######################################################################
#
#                 Cambridge Crystallographic Data Centre
#                                CCDC 
#
#######################################################################
#
# If this CIF has been generated from an entry in the Cambridge 
# Structural Database, then it will include bibliographic, chemical, 
# crystal, experimental, refinement or atomic coordinate data resulting 
# from the CCDC's data processing and validation procedures.
#
#######################################################################

data_OPIZET
_symmetry_cell_setting           triclinic
_symmetry_space_group_name_H-M   'P -1'
_symmetry_Int_Tables_number      2
_space_group_name_Hall           '-P 1'
loop_
_symmetry_equiv_pos_site_id
_symmetry_equiv_pos_as_xyz
1 x,y,z
2 -x,-y,-z
_cell_length_a                   8.2524(3)
_cell_length_b                   9.4588(3)
_cell_length_c                   13.3920(4)
_cell_angle_alpha                94.7990(10)
_cell_angle_beta                 102.3860(10)
_cell_angle_gamma                109.5010(10)
_cell_volume                     948.665
loop_
_atom_site_label
_atom_site_type_symbol
_atom_site_fract_x
_atom_site_fract_y
_atom_site_fract_z
Ni1 Ni 0.5000 0.5000 0.5000
O1 O 0.76948(16) 0.59079(14) 0.49603(9)
O2 O 0.85178(18) 0.57496(15) 0.35216(10)
O3 O 1.0177(2) 0.7452(2) 0.48241(14)
N1 N 0.56291(19) 0.47872(16) 0.91134(10)
N2 N 0.7785(2) 0.42989(17) 0.84329(11)
N3 N 0.61103(18) 0.45991(15) 0.64639(10)
N4 N 0.6946(2) 0.08048(16) 0.29900(12)
N5 N 0.9444(2) 0.02563(16) 0.20135(12)
N6 N 0.4376(2) -0.01854(17) 0.35452(13)
N7 N 0.47274(19) 0.27527(16) 0.43782(11)
N8 N 1.0126(2) -0.14801(18) 0.10124(13)
N9 N 1.3270(2) 0.0759(2) 0.09164(14)
N10 N 0.8794(2) 0.63771(17) 0.44218(12)
C1 C 0.4237(2) 0.5428(2) 0.90573(13)
H1 H 0.3437 0.5115 0.8366
H2 H 0.4768 0.6530 0.9191
C2 C 0.6805(2) 0.5108(2) 1.01508(13)
H3 H 0.7651 0.4601 1.0153
H4 H 0.7467 0.6194 1.0342
C3 C 0.6320(2) 0.46523(18) 0.82782(12)
C4 C 0.8332(2) 0.4026(2) 0.75948(14)
H5 H 0.9319 0.3737 0.7678
C5 C 0.7516(2) 0.41466(19) 0.66131(13)
H6 H 0.7934 0.3916 0.6052
C6 C 0.5518(2) 0.48398(19) 0.72885(13)
H7 H 0.4541 0.5142 0.7206
C7 C 0.8112(3) 0.2016(2) 0.25892(15)
H8 H 0.8397 0.2981 0.3028
H9 H 0.7494 0.2067 0.1898
C8 C 0.9813(3) 0.1773(2) 0.25468(16)
H10 H 1.0475 0.2521 0.2189
H11 H 1.0541 0.1913 0.3246
C9 C 0.8295(3) -0.0948(2) 0.24370(17)
H12 H 0.8910 -0.0958 0.3139
H13 H 0.8034 -0.1926 0.2021
C10 C 0.6589(3) -0.0712(2) 0.24448(17)
H14 H 0.5899 -0.0836 0.1737
H15 H 0.5895 -0.1472 0.2783
C11 C 0.5732(2) 0.10444(19) 0.34615(14)
C12 C 0.3261(3) 0.0076(2) 0.40598(15)
H16 H 0.2326 -0.0752 0.4138
C13 C 0.3422(2) 0.1506(2) 0.44805(14)
H17 H 0.2615 0.1616 0.4842
C14 C 0.5881(2) 0.2519(2) 0.38866(13)
H18 H 0.6820 0.3355 0.3820
C15 C 1.0609(2) -0.0047(2) 0.14998(14)
C16 C 1.1204(3) -0.1746(2) 0.04663(16)
H19 H 1.0889 -0.2724 0.0109
C17 C 1.2736(3) -0.0662(2) 0.04051(16)
H20 H 1.3422 -0.0912 0.0003
C18 C 1.2227(3) 0.1067(2) 0.14577(15)
H21 H 1.2568 0.2046 0.1821
Ni1_2 Ni 0.5000 0.5000 1.5000
O1A O 0.23052(16) 0.40921(14) 0.50397(9)
O2A O 0.14822(18) 0.42504(15) 0.64784(10)
O3A O -0.0177(2) 0.2548(2) 0.51759(14)
N1A N 0.43709(19) 0.52128(16) 1.08866(10)
N2A N 0.2215(2) 0.57011(17) 1.15671(11)
N3A N 0.38897(18) 0.54009(15) 1.35361(10)
N3A_2 N 0.38897(18) 0.54009(15) 0.35361(10)
N4A N 0.3054(2) 0.91952(16) 0.70100(12)
N5A N 0.0556(2) 0.97437(16) 0.79865(12)
N6A N 0.5624(2) 1.01854(17) 0.64548(13)
N7A N 0.52726(19) 0.72473(16) 0.56218(11)
N8A N -0.0126(2) 1.14801(18) 0.89876(13)
N9A N -0.3270(2) 0.9241(2) 0.90836(14)
N10A N 0.1206(2) 0.36229(17) 0.55782(12)
C1A C 0.5763(2) 0.4572(2) 1.09427(13)
H1A H 0.6563 0.4885 1.1634
H2A H 0.5232 0.3470 1.0809
C2A C 0.3195(2) 0.4892(2) 0.98492(13)
H3A H 0.2349 0.5399 0.9847
H4A H 0.2533 0.3806 0.9658
C3A C 0.3680(2) 0.53477(18) 1.17218(12)
C4A C 0.1668(2) 0.5974(2) 1.24052(14)
H5A H 0.0681 0.6263 1.2322
C5A C 0.2484(2) 0.58534(19) 1.33869(13)
H6A H 0.2066 0.6084 1.3948
C6A C 0.4482(2) 0.51602(19) 1.27115(13)
H7A H 0.5459 0.4858 1.2794
C7A C 0.1888(3) 0.7984(2) 0.74108(15)
H8A H 0.1603 0.7019 0.6972
H9A H 0.2506 0.7933 0.8102
C8A C 0.0187(3) 0.8227(2) 0.74532(16)
H10A H -0.0475 0.7479 0.7811
H11A H -0.0541 0.8087 0.6754
C9A C 0.1705(3) 1.0948(2) 0.75630(17)
H12A H 0.1090 1.0958 0.6861
H13A H 0.1966 1.1926 0.7979
C10A C 0.3411(3) 1.0712(2) 0.75552(17)
H14A H 0.4101 1.0836 0.8263
H15A H 0.4105 1.1472 0.7217
C11A C 0.4268(2) 0.89556(19) 0.65385(14)
C12A C 0.6739(3) 0.9924(2) 0.59402(15)
H16A H 0.7674 1.0752 0.5862
C13A C 0.6578(2) 0.8494(2) 0.55195(14)
H17A H 0.7385 0.8384 0.5158
C14A C 0.4119(2) 0.7481(2) 0.61134(13)
H18A H 0.3180 0.6645 0.6180
C15A C -0.0609(2) 1.0047(2) 0.85002(14)
C16A C -0.1204(3) 1.1746(2) 0.95337(16)
H19A H -0.0889 1.2724 0.9891
C17A C -0.2736(3) 1.0662(2) 0.95949(16)
H20A H -0.3422 1.0912 0.9997
C18A C -0.2227(3) 0.8933(2) 0.85423(15)
H21A H -0.2568 0.7954 0.8179
loop_
_geom_bond_atom_site_label_1
_geom_bond_atom_site_label_2
_geom_bond_site_symmetry_1
_geom_bond_site_symmetry_2
Ni1 O1 1_555 1_555
O1 N10 1_555 1_555
O2 N10 1_555 1_555
O3 N10 1_555 1_555
N1 C1 1_555 1_555
N2 C3 1_555 1_555
N3 Ni1 1_555 1_555
N4 C7 1_555 1_555
N5 C8 1_555 1_555
N6 C11 1_555 1_555
N7 Ni1 1_555 1_555
N8 C15 1_555 1_555
N9 C17 1_555 1_555
C1 H1 1_555 1_555
H2 C1 1_555 1_555
C2 N1 1_555 1_555
H3 C2 1_555 1_555
H4 C2 1_555 1_555
C3 N1 1_555 1_555
C4 N2 1_555 1_555
H5 C4 1_555 1_555
C5 N3 1_555 1_555
H6 C5 1_555 1_555
C6 N3 1_555 1_555
H7 C6 1_555 1_555
C7 H8 1_555 1_555
H9 C7 1_555 1_555
C8 C7 1_555 1_555
H10 C8 1_555 1_555
H11 C8 1_555 1_555
C9 N5 1_555 1_555
H12 C9 1_555 1_555
H13 C9 1_555 1_555
C10 N4 1_555 1_555
H14 C10 1_555 1_555
H15 C10 1_555 1_555
C11 N4 1_555 1_555
C12 N6 1_555 1_555
H16 C12 1_555 1_555
C13 N7 1_555 1_555
H17 C13 1_555 1_555
C14 N7 1_555 1_555
H18 C14 1_555 1_555
C15 N5 1_555 1_555
C16 N8 1_555 1_555
H19 C16 1_555 1_555
C17 C16 1_555 1_555
H20 C17 1_555 1_555
C18 N9 1_555 1_555
H21 C18 1_555 1_555
Ni1_2 N3A 1_555 1_555
O1A Ni1 1_555 1_555
O2A N10A 1_555 1_555
O3A N10A 1_555 1_555
N1A C1A 1_555 1_555
N2A C3A 1_555 1_555
N3A C5A 1_555 1_555
N3A_2 Ni1 1_555 1_555
N4A C7A 1_555 1_555
N5A C8A 1_555 1_555
N6A C11A 1_555 1_555
N7A Ni1 1_555 1_555
N8A C15A 1_555 1_555
N9A C17A 1_555 1_555
N10A O1A 1_555 1_555
C1A C2 1_555 1_555
H1A C1A 1_555 1_555
H2A C1A 1_555 1_555
C2A C1 1_555 1_555
H3A C2A 1_555 1_555
H4A C2A 1_555 1_555
C3A N1A 1_555 1_555
C4A N2A 1_555 1_555
H5A C4A 1_555 1_555
C5A C4A 1_555 1_555
H6A C5A 1_555 1_555
C6A N3A 1_555 1_555
H7A C6A 1_555 1_555
C7A H8A 1_555 1_555
H9A C7A 1_555 1_555
C8A C7A 1_555 1_555
H10A C8A 1_555 1_555
H11A C8A 1_555 1_555
C9A N5A 1_555 1_555
H12A C9A 1_555 1_555
H13A C9A 1_555 1_555
C10A N4A 1_555 1_555
H14A C10A 1_555 1_555
H15A C10A 1_555 1_555
C11A N4A 1_555 1_555
C12A N6A 1_555 1_555
H16A C12A 1_555 1_555
C13A N7A 1_555 1_555
H17A C13A 1_555 1_555
C14A N7A 1_555 1_555
H18A C14A 1_555 1_555
C15A N5A 1_555 1_555
C16A N8A 1_555 1_555
H19A C16A 1_555 1_555
C17A C16A 1_555 1_555
H20A C17A 1_555 1_555
C18A N9A 1_555 1_555
H21A C18A 1_555 1_555
C3 C6 1_555 1_555
C4 C5 1_555 1_555
C9 C10 1_555 1_555
C11 C14 1_555 1_555
C12 C13 1_555 1_555
C15 C18 1_555 1_555
N1A C2A 1_555 1_555
C3A C6A 1_555 1_555
C9A C10A 1_555 1_555
C11A C14A 1_555 1_555
C12A C13A 1_555 1_555
C15A C18A 1_555 1_555

#END
