
#######################################################################
#
#                 Cambridge Crystallographic Data Centre
#                                CCDC 
#
#######################################################################
#
# If this CIF has been generated from an entry in the Cambridge 
# Structural Database, then it will include bibliographic, chemical, 
# crystal, experimental, refinement or atomic coordinate data resulting 
# from the CCDC's data processing and validation procedures.
#
#######################################################################

data_OPOBAX
_symmetry_cell_setting           triclinic
_symmetry_space_group_name_H-M   'P -1'
_symmetry_Int_Tables_number      2
_space_group_name_Hall           '-P 1'
loop_
_symmetry_equiv_pos_site_id
_symmetry_equiv_pos_as_xyz
1 x,y,z
2 -x,-y,-z
_cell_length_a                   7.660(3)
_cell_length_b                   10.260(4)
_cell_length_c                   12.880(5)
_cell_angle_alpha                110.070(5)
_cell_angle_beta                 93.730(5)
_cell_angle_gamma                105.240(5)
_cell_volume                     903.79
loop_
_atom_site_label
_atom_site_type_symbol
_atom_site_fract_x
_atom_site_fract_y
_atom_site_fract_z
Zn1 Zn 0.83483(6) 0.48313(5) 0.11059(3)
N1 N 0.9967(5) 0.6472(4) 0.2645(3)
N2 N 1.6888(4) 1.3053(4) 0.9573(3)
O1 O 0.5975(4) 0.4627(3) 0.1733(2)
O2 O 0.7059(4) 0.3193(4) 0.2303(3)
O3 O 0.1778(4) 0.3633(3) -0.0505(2)
O4 O 0.0439(4) 0.3981(3) 0.1017(2)
C1 C 1.0822(6) 0.6143(5) 0.3406(3)
H1 H 1.0691 0.5166 0.3260
C2 C 1.1211(7) 0.8926(5) 0.3839(4)
H2 H 1.1315 0.9894 0.3965
C3 C 1.2112(5) 0.8601(4) 0.4643(3)
C4 C 1.0190(6) 0.7878(5) 0.2880(3)
H3 H 0.9619 0.8148 0.2363
C5 C 1.3164(6) 0.9756(5) 0.5679(3)
H4 H 1.3373 1.0704 0.5710
C6 C 1.3858(6) 0.9606(5) 0.6585(3)
H5 H 1.3692 0.8665 0.6562
C7 C 1.6820(6) 1.1688(5) 0.9370(4)
H6 H 1.7481 1.1494 0.9901
C8 C 1.4855(6) 1.0802(5) 0.7608(3)
C9 C 1.5851(7) 1.0567(5) 0.8441(4)
H7 H 1.5840 0.9625 0.8350
C10 C 1.5902(6) 1.3286(4) 0.8808(3)
H8 H 1.5893 1.4235 0.8945
C11 C 1.4901(6) 1.2216(5) 0.7832(4)
H9 H 1.4252 1.2446 0.7319
C12 C 1.1884(6) 0.7157(5) 0.4394(3)
H10 H 1.2451 0.6861 0.4895
C13 C 0.2395(5) 0.2569(4) 0.1879(3)
C14 C 0.4079(5) 0.3242(4) 0.2603(3)
C15 C 0.0961(7) 0.2379(6) 0.3461(4)
H11 H -0.0102 0.2096 0.3743
C16 C 0.2615(8) 0.3037(6) 0.4169(4)
H12 H 0.2690 0.3196 0.4928
C17 C 0.4162(6) 0.3458(5) 0.3738(3)
H13 H 0.5294 0.3897 0.4213
C18 C 0.0854(6) 0.2133(5) 0.2332(4)
H14 H -0.0280 0.1662 0.1863
C19 C 0.5836(6) 0.3713(5) 0.2192(5)
C20 C 0.1405(5) 0.3414(4) 0.0373(3)
C21 C 0.2205(5) 0.2363(4) 0.0660(3)
H15 H 0.1432 0.1379 0.0221
H16 H 0.3407 0.2463 0.0442
Zn1_2 Zn 1.83483(6) 1.48313(5) 1.11059(3)
Zn1A Zn 0.16517(6) 0.51687(5) -0.11059(3)
Zn1_3 Zn -0.16517(6) 0.48313(5) 0.11059(3)
N2_2 N 0.6888(4) 0.3053(4) -0.0427(3)
O3A O 0.8222(4) 0.6367(3) 0.0505(2)
O4_2 O 1.0439(4) 0.3981(3) 0.1017(2)
loop_
_geom_bond_atom_site_label_1
_geom_bond_atom_site_label_2
_geom_bond_site_symmetry_1
_geom_bond_site_symmetry_2
Zn1 N1 1_555 1_555
N1 C1 1_555 1_555
N2 C7 1_555 1_555
O1 Zn1 1_555 1_555
O2 C19 1_555 1_555
O3 C20 1_555 1_555
O4 C20 1_555 1_555
C1 H1 1_555 1_555
C2 H2 1_555 1_555
C3 C2 1_555 1_555
C4 N1 1_555 1_555
H3 C4 1_555 1_555
C5 C3 1_555 1_555
H4 C5 1_555 1_555
C6 C5 1_555 1_555
H5 C6 1_555 1_555
C7 H6 1_555 1_555
C8 C6 1_555 1_555
C9 C7 1_555 1_555
H7 C9 1_555 1_555
C10 N2 1_555 1_555
H8 C10 1_555 1_555
C11 C8 1_555 1_555
H9 C11 1_555 1_555
C12 C1 1_555 1_555
H10 C12 1_555 1_555
C13 C14 1_555 1_555
C14 C17 1_555 1_555
C15 H11 1_555 1_555
C16 C15 1_555 1_555
H12 C16 1_555 1_555
C17 C16 1_555 1_555
H13 C17 1_555 1_555
C18 C13 1_555 1_555
H14 C18 1_555 1_555
C19 O1 1_555 1_555
C20 C21 1_555 1_555
C21 C13 1_555 1_555
H15 C21 1_555 1_555
H16 C21 1_555 1_555
Zn1_2 N2 1_555 1_555
Zn1A O3 1_555 1_555
Zn1_3 O4 1_555 1_555
N2_2 Zn1 1_555 1_555
O3A Zn1 1_555 1_555
O4_2 Zn1 1_555 1_555
C2 C4 1_555 1_555
C3 C12 1_555 1_555
C8 C9 1_555 1_555
C10 C11 1_555 1_555
C14 C19 1_555 1_555
C15 C18 1_555 1_555

#END
