
#######################################################################
#
#                 Cambridge Crystallographic Data Centre
#                                CCDC 
#
#######################################################################
#
# If this CIF has been generated from an entry in the Cambridge 
# Structural Database, then it will include bibliographic, chemical, 
# crystal, experimental, refinement or atomic coordinate data resulting 
# from the CCDC's data processing and validation procedures.
#
#######################################################################

data_OPOBUR
_symmetry_cell_setting           tetragonal
_symmetry_space_group_name_H-M   'I 41/a c d'
_symmetry_Int_Tables_number      142
_space_group_name_Hall           '-I 4bd 2c'
loop_
_symmetry_equiv_pos_site_id
_symmetry_equiv_pos_as_xyz
1 x,y,z
2 1/2-x,-y,1/2+z
3 1/4-y,3/4+x,1/4+z
4 1/4+y,1/4-x,3/4+z
5 1/2-x,y,-z
6 x,-y,1/2-z
7 1/4+y,3/4+x,3/4-z
8 1/4-y,1/4-x,1/4-z
9 1/2+x,1/2+y,1/2+z
10 -x,1/2-y,z
11 3/4-y,1/4+x,3/4+z
12 3/4+y,3/4-x,1/4+z
13 -x,1/2+y,1/2-z
14 1/2+x,1/2-y,-z
15 3/4+y,1/4+x,1/4-z
16 3/4-y,3/4-x,3/4-z
17 -x,-y,-z
18 1/2+x,y,1/2-z
19 3/4+y,1/4-x,3/4-z
20 3/4-y,3/4+x,1/4-z
21 1/2+x,-y,z
22 -x,y,1/2+z
23 3/4-y,1/4-x,1/4+z
24 3/4+y,3/4+x,3/4+z
25 1/2-x,1/2-y,1/2-z
26 x,1/2+y,-z
27 1/4+y,3/4-x,1/4-z
28 1/4-y,1/4+x,3/4-z
29 x,1/2-y,1/2+z
30 1/2-x,1/2+y,z
31 1/4-y,3/4-x,3/4+z
32 1/4+y,1/4+x,1/4+z
_cell_length_a                   13.831(2)
_cell_length_b                   13.831(2)
_cell_length_c                   27.458(8)
_cell_angle_alpha                90
_cell_angle_beta                 90
_cell_angle_gamma                90
_cell_volume                     5252.62
loop_
_atom_site_label
_atom_site_type_symbol
_atom_site_fract_x
_atom_site_fract_y
_atom_site_fract_z
Cu1 Cu 0.16097(3) 1.08903(3) 0.1250
O1 O 0.3024(2) 1.08847(17) 0.11696(11)
C1 C 0.3382(2) 0.9280(3) 0.09852(13)
N1 N 0.3321(2) 1.0211(2) 0.08409(11)
C2 C 0.3581(3) 0.8566(3) 0.06403(13)
C3 C 0.3795(3) 0.8849(3) 0.01682(15)
H1 H 0.3940 0.8386 -0.0067
C4 C 0.3531(3) 1.0493(3) 0.03843(16)
H2 H 0.3499 1.1143 0.0299
C5 C 0.3793(3) 0.9814(3) 0.00464(16)
H3 H 0.3969 1.0005 -0.0266
C6 C 0.3535(3) 0.7501(3) 0.07630(14)
O2 O 0.33627(19) 0.72879(19) 0.12061(9)
O3 O 0.3657(3) 0.6908(2) 0.04386(12)
Cu1Z Cu 0.33903(3) 0.58903(3) 0.1250
Cu1S Cu 0.66097(3) 0.91097(3) 0.1250
O1G O 0.16153(17) 0.9476(2) 0.13304(11)
C1G C 0.3220(3) 0.9118(2) 0.15148(13)
N1G N 0.2289(2) 0.9179(2) 0.16591(11)
C2G C 0.3934(3) 0.8919(3) 0.18597(13)
C3G C 0.3651(3) 0.8705(3) 0.23318(15)
H1G H 0.4114 0.8560 0.2567
C4G C 0.2007(3) 0.8969(3) 0.21157(16)
H2G H 0.1357 0.9001 0.2201
C5G C 0.2686(3) 0.8707(3) 0.24536(16)
H3G H 0.2495 0.8531 0.2766
C6G C 0.4999(3) 0.8965(3) 0.17370(14)
O2G O 0.52121(19) 0.91373(19) 0.12939(9)
O2S O 0.02121(19) 1.08627(19) 0.12939(9)
O2CA O 0.16373(19) 1.22879(19) 0.12061(9)
O3G O 0.5592(2) 0.8843(3) 0.20614(12)
O4 O 0.5000 0.7500 0.9067(5)
H4 H 0.4391 0.7553 0.9018
H4I H 0.5609 0.7447 0.9018
H5? H 0.4406 0.7630 0.8379
loop_
_geom_bond_atom_site_label_1
_geom_bond_atom_site_label_2
_geom_bond_site_symmetry_1
_geom_bond_site_symmetry_2
Cu1 O1 1_555 1_555
O1 N1 1_555 1_555
C1 N1 1_555 1_555
N1 C4 1_555 1_555
C2 C1 1_555 1_555
C3 C2 1_555 1_555
H1 C3 1_555 1_555
C4 H2 1_555 1_555
C5 C3 1_555 1_555
H3 C5 1_555 1_555
C6 C2 1_555 1_555
O2 C6 1_555 1_555
O3 C6 1_555 1_555
O4 H4 1_555 1_555
Cu1Z O2 1_555 1_555
Cu1S O2G 1_555 1_555
O1G Cu1 1_555 1_555
C1G C1 1_555 1_555
N1G O1G 1_555 1_555
C2G C1G 1_555 1_555
C3G C2G 1_555 1_555
H1G C3G 1_555 1_555
C4G N1G 1_555 1_555
H2G C4G 1_555 1_555
C5G C3G 1_555 1_555
H3G C5G 1_555 1_555
C6G C2G 1_555 1_555
O2G C6G 1_555 1_555
O2S Cu1 1_555 1_555
O2CA Cu1 1_555 1_555
O3G C6G 1_555 1_555
H4I O4 1_555 1_555
C4 C5 1_555 1_555
C1G N1G 1_555 1_555
C4G C5G 1_555 1_555

#END
