
#######################################################################
#
#                 Cambridge Crystallographic Data Centre
#                                CCDC 
#
#######################################################################
#
# If this CIF has been generated from an entry in the Cambridge 
# Structural Database, then it will include bibliographic, chemical, 
# crystal, experimental, refinement or atomic coordinate data resulting 
# from the CCDC's data processing and validation procedures.
#
#######################################################################

data_OPOCOM01
_symmetry_cell_setting           cubic
_symmetry_space_group_name_H-M   'P a -3'
_symmetry_Int_Tables_number      205
_space_group_name_Hall           '-P 2ac 2ab 3'
loop_
_symmetry_equiv_pos_site_id
_symmetry_equiv_pos_as_xyz
1 x,y,z
2 z,x,y
3 y,z,x
4 1/2-y,-z,1/2+x
5 1/2+z,1/2-x,-y
6 -y,1/2+z,1/2-x
7 1/2-z,-x,1/2+y
8 -z,1/2+x,1/2-y
9 1/2+y,1/2-z,-x
10 1/2-x,-y,1/2+z
11 1/2+x,1/2-y,-z
12 -x,1/2+y,1/2-z
13 -x,-y,-z
14 -z,-x,-y
15 -y,-z,-x
16 1/2+y,z,1/2-x
17 1/2-z,1/2+x,y
18 y,1/2-z,1/2+x
19 1/2+z,x,1/2-y
20 z,1/2-x,1/2+y
21 1/2-y,1/2+z,x
22 1/2+x,y,1/2-z
23 1/2-x,1/2+y,z
24 x,1/2-y,1/2+z
_cell_length_a                   20.496(7)
_cell_length_b                   20.496(7)
_cell_length_c                   20.496(7)
_cell_angle_alpha                90
_cell_angle_beta                 90
_cell_angle_gamma                90
_cell_volume                     8610.08
loop_
_atom_site_label
_atom_site_type_symbol
_atom_site_fract_x
_atom_site_fract_y
_atom_site_fract_z
O1 O 0.14475(19) 0.33857(17) 0.2019(2)
H1 H 0.124(2) 0.3035(17) 0.196(3)
H2 H 0.1827(13) 0.337(3) 0.186(3)
O2 O 0.0320(2) 0.4265(2) 0.13436(19)
H3 H 0.025(3) 0.3867(9) 0.124(3)
H4 H 0.022(3) 0.450(2) 0.1017(19)
N1 N 0.0677(2) 0.5468(2) 0.2276(2)
N2 N 0.0335(2) 0.6392(2) 0.1784(2)
C1 C 0.0696(3) 0.5848(3) 0.1744(3)
C2 C 0.0276(3) 0.5794(3) 0.2689(3)
H5 H 0.0939 0.5742 0.1377
C3 C 0.0153(3) 0.5546(3) 0.3331(3)
C4 C 0.0058(3) 0.6354(2) 0.2386(3)
N3 N 0.0099(3) 0.5337(3) 0.3843(3)
C5 C -0.0395(3) 0.6828(3) 0.2615(3)
K1 K 0.0000 0.5000 0.5000
N4 N -0.0769(3) 0.7196(3) 0.2797(3)
N5 N 0.1690(2) 0.4568(2) 0.3144(2)
N6 N 0.2242(2) 0.5142(2) 0.3902(2)
C6 C 0.1859(3) 0.5156(3) 0.3381(3)
C7 C 0.1995(3) 0.4144(2) 0.3553(2)
C8 C 0.2330(3) 0.4486(3) 0.4015(3)
H6 H 0.1717 0.5544 0.3193
C9 C 0.1957(3) 0.3450(3) 0.3500(3)
C10 C 0.2700(3) 0.4231(3) 0.4536(3)
N7 N 0.1941(3) 0.2901(3) 0.3474(3)
N8 N 0.2990(3) 0.3992(3) 0.4945(3)
Cd1 Cd 0.10330(2) 0.44118(2) 0.22425(2)
O1C O 0.16143(17) 0.7981(2) 0.64475(19)
H1C H 0.1965(17) 0.804(3) 0.624(2)
H2C H 0.163(3) 0.814(3) 0.6827(13)
O2C O 0.0735(2) 0.86564(19) 0.5320(2)
H3C H 0.1133(9) 0.876(3) 0.525(3)
H4C H 0.050(2) 0.8983(19) 0.522(3)
N1C N -0.0468(2) 0.7724(2) 0.5677(2)
N2C N -0.1392(2) 0.8216(2) 0.5335(2)
C1C C -0.0848(3) 0.8256(3) 0.5696(3)
C2C C -0.0794(3) 0.7311(3) 0.5276(3)
H5C H -0.0742 0.8623 0.5939
C3C C -0.0546(3) 0.6669(3) 0.5153(3)
C4C C -0.1354(2) 0.7614(3) 0.5058(3)
N3C N -0.0337(3) 0.6157(3) 0.5099(3)
C5C C -0.1828(3) 0.7385(3) 0.4605(3)
N4C N -0.2196(3) 0.7203(3) 0.4231(3)
N5C N 0.0432(2) 0.6856(2) 0.6690(2)
N6C N -0.0142(2) 0.6098(2) 0.7242(2)
C6C C -0.0156(3) 0.6619(3) 0.6859(3)
C7C C 0.0856(2) 0.6447(2) 0.6995(3)
C8C C 0.0514(3) 0.5985(3) 0.7330(3)
H6C H -0.0544 0.6807 0.6717
C9C C 0.1550(3) 0.6500(3) 0.6957(3)
C10C C 0.0769(3) 0.5464(3) 0.7700(3)
N7C N 0.2099(3) 0.6526(3) 0.6941(3)
N8C N 0.1008(3) 0.5055(3) 0.7990(3)
Cd1C Cd 0.05882(2) 0.77575(2) 0.60330(2)
O1D O -0.2981(2) 0.35525(19) 0.66143(17)
H1D H -0.304(3) 0.376(2) 0.6965(17)
H2D H -0.314(3) 0.3173(13) 0.663(3)
O2D O -0.36564(19) 0.4680(2) 0.5735(2)
H3D H -0.376(3) 0.475(3) 0.6133(9)
H4D H -0.3983(19) 0.478(3) 0.550(2)
N1D N -0.2724(2) 0.4323(2) 0.4532(2)
N2D N -0.3216(2) 0.4665(2) 0.3608(2)
C1D C -0.3256(3) 0.4304(3) 0.4152(3)
C2D C -0.2311(3) 0.4724(3) 0.4206(3)
H5D H -0.3623 0.4061 0.4258
C3D C -0.1669(3) 0.4847(3) 0.4454(3)
C4D C -0.2614(3) 0.4942(3) 0.3646(2)
N3D N -0.1157(3) 0.4901(3) 0.4663(3)
C5D C -0.2385(3) 0.5395(3) 0.3172(3)
N4D N -0.2203(3) 0.5769(3) 0.2804(3)
N5D N -0.1856(2) 0.3310(2) 0.5432(2)
N6D N -0.1098(2) 0.2758(2) 0.4858(2)
C6D C -0.1619(3) 0.3141(3) 0.4844(3)
C7D C -0.1447(2) 0.3005(3) 0.5856(2)
C8D C -0.0985(3) 0.2670(3) 0.5514(3)
H6D H -0.1807 0.3283 0.4456
C9D C -0.1500(3) 0.3043(3) 0.6550(3)
C10D C -0.0464(3) 0.2300(3) 0.5769(3)
N7D N -0.1526(3) 0.3059(3) 0.7099(3)
N8D N -0.0055(3) 0.2010(3) 0.6008(3)
Cd1D Cd -0.27575(2) 0.39670(2) 0.55882(2)
O1L O -0.14475(19) 0.66143(17) 0.7981(2)
H1L H -0.124(2) 0.6965(17) 0.804(3)
H2L H -0.1827(13) 0.663(3) 0.814(3)
O2L O -0.0320(2) 0.5735(2) 0.86564(19)
H3L H -0.025(3) 0.6133(9) 0.876(3)
H4L H -0.022(3) 0.550(2) 0.8983(19)
N1L N -0.0677(2) 0.4532(2) 0.7724(2)
N2L N -0.0335(2) 0.3608(2) 0.8216(2)
C1L C -0.0696(3) 0.4152(3) 0.8256(3)
C2L C -0.0276(3) 0.4206(3) 0.7311(3)
H5L H -0.0939 0.4258 0.8623
C3L C -0.0153(3) 0.4454(3) 0.6669(3)
C4L C -0.0058(3) 0.3646(2) 0.7614(3)
N3L N -0.0099(3) 0.4663(3) 0.6157(3)
C5L C 0.0395(3) 0.3172(3) 0.7385(3)
N4L N 0.0769(3) 0.2804(3) 0.7203(3)
N5L N -0.1690(2) 0.5432(2) 0.6856(2)
N6L N -0.2242(2) 0.4858(2) 0.6098(2)
C6L C -0.1859(3) 0.4844(3) 0.6619(3)
C7L C -0.1995(3) 0.5856(2) 0.6447(2)
C8L C -0.2330(3) 0.5514(3) 0.5985(3)
H6L H -0.1717 0.4456 0.6807
C9L C -0.1957(3) 0.6550(3) 0.6500(3)
C10L C -0.2700(3) 0.5769(3) 0.5464(3)
N7L N -0.1941(3) 0.7099(3) 0.6526(3)
N8L N -0.2990(3) 0.6008(3) 0.5055(3)
Cd1L Cd -0.10330(2) 0.55882(2) 0.77575(2)
O1O O -0.16143(17) 0.2019(2) 0.35525(19)
H1O H -0.1965(17) 0.196(3) 0.376(2)
H2O H -0.163(3) 0.186(3) 0.3173(13)
O2O O -0.0735(2) 0.13436(19) 0.4680(2)
H3O H -0.1133(9) 0.124(3) 0.475(3)
H4O H -0.050(2) 0.1017(19) 0.478(3)
N1O N 0.0468(2) 0.2276(2) 0.4323(2)
N2O N 0.1392(2) 0.1784(2) 0.4665(2)
C1O C 0.0848(3) 0.1744(3) 0.4304(3)
C2O C 0.0794(3) 0.2689(3) 0.4724(3)
H5O H 0.0742 0.1377 0.4061
C3O C 0.0546(3) 0.3331(3) 0.4847(3)
C4O C 0.1354(2) 0.2386(3) 0.4942(3)
N3O N 0.0337(3) 0.3843(3) 0.4901(3)
C5O C 0.1828(3) 0.2615(3) 0.5395(3)
N4O N 0.2196(3) 0.2797(3) 0.5769(3)
N5O N -0.0432(2) 0.3144(2) 0.3310(2)
N6O N 0.0142(2) 0.3902(2) 0.2758(2)
C6O C 0.0156(3) 0.3381(3) 0.3141(3)
C7O C -0.0856(2) 0.3553(2) 0.3005(3)
C8O C -0.0514(3) 0.4015(3) 0.2670(3)
H6O H 0.0544 0.3193 0.3283
C9O C -0.1550(3) 0.3500(3) 0.3043(3)
C10O C -0.0769(3) 0.4536(3) 0.2300(3)
N7O N -0.2099(3) 0.3474(3) 0.3059(3)
N8O N -0.1008(3) 0.4945(3) 0.2010(3)
Cd1O Cd -0.05882(2) 0.22425(2) 0.39670(2)
O1P O 0.2981(2) 0.64475(19) 0.33857(17)
H1P H 0.304(3) 0.624(2) 0.3035(17)
H2P H 0.314(3) 0.6827(13) 0.337(3)
O2P O 0.36564(19) 0.5320(2) 0.4265(2)
H3P H 0.376(3) 0.525(3) 0.3867(9)
H4P H 0.3983(19) 0.522(3) 0.450(2)
N1P N 0.2724(2) 0.5677(2) 0.5468(2)
N2P N 0.3216(2) 0.5335(2) 0.6392(2)
C1P C 0.3256(3) 0.5696(3) 0.5848(3)
C2P C 0.2311(3) 0.5276(3) 0.5794(3)
H5P H 0.3623 0.5939 0.5742
C3P C 0.1669(3) 0.5153(3) 0.5546(3)
C4P C 0.2614(3) 0.5058(3) 0.6354(2)
N3P N 0.1157(3) 0.5099(3) 0.5337(3)
C5P C 0.2385(3) 0.4605(3) 0.6828(3)
N4P N 0.2203(3) 0.4231(3) 0.7196(3)
N5P N 0.1856(2) 0.6690(2) 0.4568(2)
N6P N 0.1098(2) 0.7242(2) 0.5142(2)
C6P C 0.1619(3) 0.6859(3) 0.5156(3)
C7P C 0.1447(2) 0.6995(3) 0.4144(2)
C8P C 0.0985(3) 0.7330(3) 0.4486(3)
H6P H 0.1807 0.6717 0.5544
C9P C 0.1500(3) 0.6957(3) 0.3450(3)
C10P C 0.0464(3) 0.7700(3) 0.4231(3)
N7P N 0.1526(3) 0.6941(3) 0.2901(3)
N8P N 0.0055(3) 0.7990(3) 0.3992(3)
Cd1P Cd 0.27575(2) 0.60330(2) 0.44118(2)
N2E N 0.3608(2) 0.6784(2) 0.4665(2)
N2G N -0.1784(2) 0.5335(2) 0.8608(2)
N2K N -0.0335(2) 0.1392(2) 0.3216(2)
N2Q N -0.3608(2) 0.3216(2) 0.5335(2)
N2S N 0.1784(2) 0.4665(2) 0.1392(2)
N2W N 0.0335(2) 0.8608(2) 0.6784(2)
Cd1A Cd 0.22425(2) 0.10330(2) 0.44118(2)
Cd1H Cd -0.05882(2) 0.27575(2) 0.89670(2)
Cd1I Cd 0.39670(2) 0.55882(2) 0.72425(2)
Cd1M Cd -0.22425(2) 0.89670(2) 0.55882(2)
Cd1T Cd 0.05882(2) 0.72425(2) 0.10330(2)
Cd1U Cd -0.39670(2) 0.44118(2) 0.27575(2)
Cl1 Cl 0.0000 0.5000 0.0000
loop_
_geom_bond_atom_site_label_1
_geom_bond_atom_site_label_2
_geom_bond_site_symmetry_1
_geom_bond_site_symmetry_2
O1 H1 1_555 1_555
H2 O1 1_555 1_555
O2 H3 1_555 1_555
H4 O2 1_555 1_555
N1 C1 1_555 1_555
N2 C1 1_555 1_555
C1 H5 1_555 1_555
C2 N1 1_555 1_555
C3 C2 1_555 1_555
C4 N2 1_555 1_555
N3 C3 1_555 1_555
C5 C4 1_555 1_555
K1 N3 1_555 1_555
N4 C5 1_555 1_555
N5 C6 1_555 1_555
N6 C6 1_555 1_555
C6 H6 1_555 1_555
C7 N5 1_555 1_555
C8 N6 1_555 1_555
C9 C7 1_555 1_555
C10 C8 1_555 1_555
N7 C9 1_555 1_555
N8 C10 1_555 1_555
Cd1 O1 1_555 1_555
O1C H1C 1_555 1_555
H2C O1C 1_555 1_555
O2C H3C 1_555 1_555
H4C O2C 1_555 1_555
N1C C1C 1_555 1_555
N2C C1C 1_555 1_555
C1C H5C 1_555 1_555
C2C N1C 1_555 1_555
C3C C2C 1_555 1_555
C4C N2C 1_555 1_555
N3C K1 1_555 1_555
C5C C4C 1_555 1_555
N4C C5C 1_555 1_555
N5C C6C 1_555 1_555
N6C C6C 1_555 1_555
C6C H6C 1_555 1_555
C7C N5C 1_555 1_555
C8C N6C 1_555 1_555
C9C C7C 1_555 1_555
C10C C8C 1_555 1_555
N7C C9C 1_555 1_555
N8C C10C 1_555 1_555
Cd1C O1C 1_555 1_555
O1D H1D 1_555 1_555
H2D O1D 1_555 1_555
O2D H3D 1_555 1_555
H4D O2D 1_555 1_555
N1D C1D 1_555 1_555
N2D C1D 1_555 1_555
C1D H5D 1_555 1_555
C2D N1D 1_555 1_555
C3D C2D 1_555 1_555
C4D N2D 1_555 1_555
N3D K1 1_555 1_555
C5D C4D 1_555 1_555
N4D C5D 1_555 1_555
N5D C6D 1_555 1_555
N6D C6D 1_555 1_555
C6D H6D 1_555 1_555
C7D N5D 1_555 1_555
C8D N6D 1_555 1_555
C9D C7D 1_555 1_555
C10D C8D 1_555 1_555
N7D C9D 1_555 1_555
N8D C10D 1_555 1_555
Cd1D O1D 1_555 1_555
O1L H1L 1_555 1_555
H2L O1L 1_555 1_555
O2L H3L 1_555 1_555
H4L O2L 1_555 1_555
N1L C1L 1_555 1_555
N2L C1L 1_555 1_555
C1L H5L 1_555 1_555
C2L N1L 1_555 1_555
C3L C2L 1_555 1_555
C4L N2L 1_555 1_555
N3L K1 1_555 1_555
C5L C4L 1_555 1_555
N4L C5L 1_555 1_555
N5L C6L 1_555 1_555
N6L Cd1D 1_555 1_555
C6L N6L 1_555 1_555
C7L N5L 1_555 1_555
C8L N6L 1_555 1_555
H6L C6L 1_555 1_555
C9L C7L 1_555 1_555
C10L C8L 1_555 1_555
N7L C9L 1_555 1_555
N8L C10L 1_555 1_555
Cd1L N6C 1_555 1_555
O1O H1O 1_555 1_555
H2O O1O 1_555 1_555
O2O H3O 1_555 1_555
H4O O2O 1_555 1_555
N1O C1O 1_555 1_555
N2O C1O 1_555 1_555
C1O H5O 1_555 1_555
C2O N1O 1_555 1_555
C3O C2O 1_555 1_555
C4O N2O 1_555 1_555
N3O K1 1_555 1_555
C5O C4O 1_555 1_555
N4O C5O 1_555 1_555
N5O C6O 1_555 1_555
N6O Cd1 1_555 1_555
C6O N6O 1_555 1_555
C7O N5O 1_555 1_555
C8O N6O 1_555 1_555
H6O C6O 1_555 1_555
C9O C7O 1_555 1_555
C10O C8O 1_555 1_555
N7O C9O 1_555 1_555
N8O C10O 1_555 1_555
Cd1O N6D 1_555 1_555
O1P H1P 1_555 1_555
H2P O1P 1_555 1_555
O2P H3P 1_555 1_555
H4P O2P 1_555 1_555
N1P C1P 1_555 1_555
N2P C1P 1_555 1_555
C1P H5P 1_555 1_555
C2P N1P 1_555 1_555
C3P C2P 1_555 1_555
C4P N2P 1_555 1_555
N3P K1 1_555 1_555
C5P C4P 1_555 1_555
N4P C5P 1_555 1_555
N5P C6P 1_555 1_555
N6P Cd1C 1_555 1_555
C6P N6P 1_555 1_555
C7P N5P 1_555 1_555
C8P N6P 1_555 1_555
H6P C6P 1_555 1_555
C9P C7P 1_555 1_555
C10P C8P 1_555 1_555
N7P C9P 1_555 1_555
N8P C10P 1_555 1_555
Cd1P N6 1_555 1_555
N2E Cd1P 1_555 1_555
N2G Cd1L 1_555 1_555
N2K Cd1O 1_555 1_555
N2Q Cd1D 1_555 1_555
N2S Cd1 1_555 1_555
N2W Cd1C 1_555 1_555
Cd1A N2O 1_555 1_555
Cd1H N2L 1_555 1_555
Cd1I N2P 1_555 1_555
Cd1M N2C 1_555 1_555
Cd1T N2 1_555 1_555
Cd1U N2D 1_555 1_555
O2 Cd1 1_555 1_555
N1 Cd1 1_555 1_555
C2 C4 1_555 1_555
N5 Cd1 1_555 1_555
C7 C8 1_555 1_555
O2C Cd1C 1_555 1_555
N1C Cd1C 1_555 1_555
C2C C4C 1_555 1_555
C3C N3C 1_555 1_555
N5C Cd1C 1_555 1_555
C7C C8C 1_555 1_555
O2D Cd1D 1_555 1_555
N1D Cd1D 1_555 1_555
C2D C4D 1_555 1_555
C3D N3D 1_555 1_555
N5D Cd1D 1_555 1_555
C7D C8D 1_555 1_555
O1L Cd1L 1_555 1_555
O2L Cd1L 1_555 1_555
N1L Cd1L 1_555 1_555
C2L C4L 1_555 1_555
C3L N3L 1_555 1_555
N5L Cd1L 1_555 1_555
C7L C8L 1_555 1_555
O1O Cd1O 1_555 1_555
O2O Cd1O 1_555 1_555
N1O Cd1O 1_555 1_555
C2O C4O 1_555 1_555
C3O N3O 1_555 1_555
N5O Cd1O 1_555 1_555
C7O C8O 1_555 1_555
O1P Cd1P 1_555 1_555
O2P Cd1P 1_555 1_555
N1P Cd1P 1_555 1_555
C2P C4P 1_555 1_555
C3P N3P 1_555 1_555
N5P Cd1P 1_555 1_555
C7P C8P 1_555 1_555

#END
