
#######################################################################
#
#                 Cambridge Crystallographic Data Centre
#                                CCDC 
#
#######################################################################
#
# If this CIF has been generated from an entry in the Cambridge 
# Structural Database, then it will include bibliographic, chemical, 
# crystal, experimental, refinement or atomic coordinate data resulting 
# from the CCDC's data processing and validation procedures.
#
#######################################################################

data_OPOCIG
_symmetry_cell_setting           triclinic
_symmetry_space_group_name_H-M   'P -1'
_symmetry_Int_Tables_number      2
_space_group_name_Hall           '-P 1'
loop_
_symmetry_equiv_pos_site_id
_symmetry_equiv_pos_as_xyz
1 x,y,z
2 -x,-y,-z
_cell_length_a                   9.324(4)
_cell_length_b                   9.821(4)
_cell_length_c                   16.303(7)
_cell_angle_alpha                87.715(12)
_cell_angle_beta                 77.376(13)
_cell_angle_gamma                72.201(9)
_cell_volume                     1386.48
loop_
_atom_site_label
_atom_site_type_symbol
_atom_site_fract_x
_atom_site_fract_y
_atom_site_fract_z
Mn1 Mn 0.87487(4) 0.89190(4) 1.51399(3)
Mn2 Mn 0.5000 1.0000 1.5000
O1 O 0.8770(2) 0.6660(2) 1.52811(17)
O2 O 0.6491(2) 0.8242(2) 1.55189(15)
O3 O 0.6581(2) 0.1019(2) 1.53646(14)
O4 O 0.8815(2) 0.14110(19) 1.50822(13)
O5 O 0.8956(2) 0.9032(2) 1.38199(13)
O6 O 0.6482(2) 0.9484(2) 1.37578(14)
O7 O 0.6995(4) 0.8823(4) 0.98622(19)
O8 O 0.5390(3) 1.0326(3) 1.08760(17)
O9 O 0.8934(3) 0.9231(3) 1.64395(14)
C1 C 0.7342(3) 0.6947(3) 1.5488(2)
C2 C 0.6587(3) 0.5807(3) 1.57503(19)
C3 C 0.5102(3) 0.6161(3) 1.6251(2)
H1 H 0.4590 0.7111 1.6421
C4 C 0.4364(3) 0.5133(3) 1.65021(19)
C5 C 0.5122(3) 0.3745(3) 1.61729(19)
H2 H 0.4623 0.3050 1.6296
C6 C 0.6603(3) 0.3370(3) 1.56651(18)
C7 C 0.7383(3) 0.4393(3) 1.54798(18)
H3 H 0.8404 0.4139 1.5184
C8 C 0.2808(3) 0.5458(3) 1.7137(2)
C9 C 0.3052(5) 0.4509(5) 1.7901(2)
H4 H 0.3795 0.4729 1.8154
H5 H 0.3422 0.3521 1.7720
H6 H 0.2091 0.4685 1.8304
C10 C 0.2183(5) 0.7016(4) 1.7435(3)
H7 H 0.2922 0.7256 1.7683
H8 H 0.1234 0.7163 1.7846
H9 H 0.1998 0.7614 1.6965
C11 C 0.1615(4) 0.5083(5) 1.6750(3)
H10 H 0.1447 0.5663 1.6272
H11 H 0.0661 0.5261 1.7160
H12 H 0.1988 0.4092 1.6577
C12 C 0.7375(3) 0.1861(3) 1.53447(17)
C13 C 0.7897(3) 0.9134(3) 1.34309(18)
C14 C 0.8386(3) 0.8773(3) 1.25037(19)
C15 C 0.7341(4) 0.9293(3) 1.19869(19)
H13 H 0.6359 0.9906 1.2205
C16 C 0.7784(4) 0.8884(4) 1.1141(2)
C17 C 0.9240(4) 0.7956(4) 1.0814(2)
H14 H 0.9514 0.7696 1.0245
C18 C 1.0303(4) 0.7406(4) 1.1320(2)
C19 C 0.9854(3) 0.7843(3) 1.2164(2)
H15 H 1.0548 0.7508 1.2512
C20 C 1.1909(4) 0.6351(5) 1.0941(3)
C21 C 1.1689(6) 0.5097(6) 1.0491(4)
H16 H 1.2680 0.4434 1.0256
H17 H 1.1153 0.5459 1.0050
H18 H 1.1099 0.4618 1.0889
C22 C 1.2803(6) 0.7124(7) 1.0332(5)
H19 H 1.2918 0.7907 1.0618
H20 H 1.2264 0.7482 0.9892
H21 H 1.3804 0.6479 1.0095
C23 C 1.2771(5) 0.5668(6) 1.1614(4)
H22 H 1.2961 0.6394 1.1914
H23 H 1.3736 0.4988 1.1356
H24 H 1.2162 0.5188 1.1998
C24 C 0.6625(4) 0.9414(4) 1.0612(2)
C25 C 0.7863(8) 0.9383(5) 1.7230(4)
H25 H 0.8596 0.9323 1.7588
C26 C 0.6914(7) 1.0742(5) 1.7482(4)
H26 H 0.7438 1.1426 1.7264
H27 H 0.6655 1.0818 1.8085
H28 H 0.5988 1.0930 1.7273
C27 C 0.7506(6) 0.8072(5) 1.7490(3)
H29 H 0.8381 0.7265 1.7270
H30 H 0.6636 0.8032 1.7278
H31 H 0.7265 0.8052 1.8092
H32 H 0.669(12) 0.954(11) 0.964(7)
Mn1_2 Mn 0.87487(4) 1.89190(4) 1.51399(3)
Mn1_3 Mn 0.87487(4) -0.10810(4) 1.51399(3)
Mn1A Mn 1.12513(4) 0.10810(4) 1.48601(3)
Mn1A_2 Mn 1.12513(4) 1.10810(4) 1.48601(3)
Mn1A_3 Mn 0.12513(4) 1.10810(4) 1.48601(3)
Mn2_2 Mn 0.5000 0.0000 1.5000
Mn2_3 Mn 0.5000 2.0000 1.5000
O1_2 O 0.8770(2) 1.6660(2) 1.52811(17)
O2_2 O 0.6491(2) 1.8242(2) 1.55189(15)
O2A O 0.3509(2) 1.1758(2) 1.44811(15)
O3_2 O 0.6581(2) 1.1019(2) 1.53646(14)
O3A O 0.3419(2) 0.8981(2) 1.46354(14)
O3_3 O 0.6581(2) 2.1019(2) 1.53646(14)
O4_2 O 0.8815(2) 1.14110(19) 1.50822(13)
O4A O 1.1185(2) 0.85890(19) 1.49178(13)
O4A_2 O 1.1185(2) 1.85890(19) 1.49178(13)
O4_3 O 0.8815(2) 2.14110(19) 1.50822(13)
O5A O 0.1044(2) 1.0968(2) 1.61801(13)
O5_2 O 0.8956(2) 1.9032(2) 1.38199(13)
O6A O 0.3518(2) 1.0516(2) 1.62422(14)
O7A O 0.3005(4) 1.1177(4) 2.01378(19)
O8A O 0.4610(3) 0.9674(3) 1.91240(17)
O9_2 O 0.8934(3) 1.9231(3) 1.64395(14)
C1_2 C 0.7342(3) 1.6947(3) 1.5488(2)
C2_2 C 0.6587(3) 1.5807(3) 1.57503(19)
C3_2 C 0.5102(3) 1.6161(3) 1.6251(2)
H1_2 H 0.4590 1.7111 1.6421
C4_2 C 0.4364(3) 1.5133(3) 1.65021(19)
C5_2 C 0.5122(3) 1.3745(3) 1.61729(19)
H2_2 H 0.4623 1.3050 1.6296
C6_2 C 0.6603(3) 1.3370(3) 1.56651(18)
C7_2 C 0.7383(3) 1.4393(3) 1.54798(18)
H3_2 H 0.8404 1.4139 1.5184
C8_2 C 0.2808(3) 1.5458(3) 1.7137(2)
C9_2 C 0.3052(5) 1.4509(5) 1.7901(2)
H4_2 H 0.3795 1.4729 1.8154
H5_2 H 0.3422 1.3521 1.7720
H6_2 H 0.2091 1.4685 1.8304
C10_2 C 0.2183(5) 1.7016(4) 1.7435(3)
H7_2 H 0.2922 1.7256 1.7683
H8_2 H 0.1234 1.7163 1.7846
H9_2 H 0.1998 1.7614 1.6965
C11_2 C 0.1615(4) 1.5083(5) 1.6750(3)
H10_2 H 0.1447 1.5663 1.6272
H11_2 H 0.0661 1.5261 1.7160
H12_2 H 0.1988 1.4092 1.6577
C12_2 C 0.7375(3) 1.1861(3) 1.53447(17)
C13A C 0.2103(3) 1.0866(3) 1.65691(18)
C14A C 0.1614(3) 1.1227(3) 1.74963(19)
C15A C 0.2659(4) 1.0707(3) 1.80131(19)
H13A H 0.3641 1.0094 1.7795
C16A C 0.2216(4) 1.1116(4) 1.8859(2)
C17A C 0.0760(4) 1.2044(4) 1.9186(2)
H14A H 0.0486 1.2304 1.9755
C18A C -0.0303(4) 1.2594(4) 1.8680(2)
C19A C 0.0146(3) 1.2157(3) 1.7836(2)
H15A H -0.0548 1.2492 1.7488
C20A C -0.1909(4) 1.3649(5) 1.9059(3)
C21A C -0.1689(6) 1.4903(6) 1.9509(4)
H16A H -0.2680 1.5566 1.9744
H17A H -0.1153 1.4541 1.9950
H18A H -0.1099 1.5382 1.9111
C22A C -0.2803(6) 1.2876(7) 1.9668(5)
H19A H -0.2918 1.2093 1.9382
H20A H -0.2264 1.2518 2.0108
H21A H -0.3804 1.3521 1.9905
C23A C -0.2771(5) 1.4332(6) 1.8386(4)
H22A H -0.2961 1.3606 1.8086
H23A H -0.3736 1.5012 1.8644
H24A H -0.2162 1.4812 1.8002
C24A C 0.3375(4) 1.0586(4) 1.9388(2)
C25_2 C 0.7863(8) 1.9383(5) 1.7230(4)
H25_2 H 0.8596 1.9323 1.7588
C26_2 C 0.6914(7) 2.0742(5) 1.7482(4)
H26_2 H 0.7438 2.1426 1.7264
H27_2 H 0.6655 2.0818 1.8085
H28_2 H 0.5988 2.0930 1.7273
C27_2 C 0.7506(6) 1.8072(5) 1.7490(3)
H29_2 H 0.8381 1.7265 1.7270
H30_2 H 0.6636 1.8032 1.7278
H31_2 H 0.7265 1.8052 1.8092
H32A H 0.331(12) 1.046(11) 2.036(7)
loop_
_geom_bond_atom_site_label_1
_geom_bond_atom_site_label_2
_geom_bond_site_symmetry_1
_geom_bond_site_symmetry_2
Mn1 O1 1_555 1_555
Mn2 O2 1_555 1_555
O1 C1 1_555 1_555
O2 Mn1 1_555 1_555
O3 C12 1_555 1_555
O4 C12 1_555 1_555
O5 Mn1 1_555 1_555
O6 Mn2 1_555 1_555
O7 C24 1_555 1_555
O8 C24 1_555 1_555
O9 Mn1 1_555 1_555
C1 O2 1_555 1_555
C2 C1 1_555 1_555
C3 C2 1_555 1_555
H1 C3 1_555 1_555
C4 C3 1_555 1_555
C5 C4 1_555 1_555
H2 C5 1_555 1_555
C6 C5 1_555 1_555
C7 C2 1_555 1_555
H3 C7 1_555 1_555
C8 C4 1_555 1_555
C9 C8 1_555 1_555
H4 C9 1_555 1_555
H5 C9 1_555 1_555
H6 C9 1_555 1_555
C10 C8 1_555 1_555
H7 C10 1_555 1_555
H8 C10 1_555 1_555
H9 C10 1_555 1_555
C11 C8 1_555 1_555
H10 C11 1_555 1_555
H11 C11 1_555 1_555
H12 C11 1_555 1_555
C12 C6 1_555 1_555
C13 O5 1_555 1_555
C14 C13 1_555 1_555
C15 C14 1_555 1_555
H13 C15 1_555 1_555
C16 C15 1_555 1_555
C17 C16 1_555 1_555
H14 C17 1_555 1_555
C18 C17 1_555 1_555
C19 C14 1_555 1_555
H15 C19 1_555 1_555
C20 C18 1_555 1_555
C21 C20 1_555 1_555
H16 C21 1_555 1_555
H17 C21 1_555 1_555
H18 C21 1_555 1_555
C22 C20 1_555 1_555
H19 C22 1_555 1_555
H20 C22 1_555 1_555
H21 C22 1_555 1_555
C23 C20 1_555 1_555
H22 C23 1_555 1_555
H23 C23 1_555 1_555
H24 C23 1_555 1_555
C24 C16 1_555 1_555
C25 O9 1_555 1_555
H25 C25 1_555 1_555
C26 C25 1_555 1_555
H26 C26 1_555 1_555
H27 C26 1_555 1_555
H28 C26 1_555 1_555
C27 C25 1_555 1_555
H29 C27 1_555 1_555
H30 C27 1_555 1_555
H31 C27 1_555 1_555
H32 O7 1_555 1_555
Mn1_2 O1_2 1_555 1_555
Mn1_3 O3 1_555 1_555
Mn1A O4 1_555 1_555
Mn1A_2 O4_2 1_555 1_555
Mn1A_3 O2A 1_555 1_555
Mn2_2 O3 1_555 1_555
Mn2_3 O2_2 1_555 1_555
O1_2 C1_2 1_555 1_555
O2_2 Mn1_2 1_555 1_555
O2A Mn2 1_555 1_555
O3_2 Mn1 1_555 1_555
O3A Mn2 1_555 1_555
O3_3 Mn1_2 1_555 1_555
O4_2 Mn1 1_555 1_555
O4A Mn1 1_555 1_555
O4A_2 Mn1_2 1_555 1_555
O4_3 Mn1_2 1_555 1_555
O5A Mn1A_3 1_555 1_555
O5_2 Mn1_2 1_555 1_555
O6A Mn2 1_555 1_555
O7A C24A 1_555 1_555
O8A C24A 1_555 1_555
O9_2 Mn1_2 1_555 1_555
C1_2 O2_2 1_555 1_555
C2_2 C1_2 1_555 1_555
C3_2 C2_2 1_555 1_555
H1_2 C3_2 1_555 1_555
C4_2 C3_2 1_555 1_555
C5_2 C4_2 1_555 1_555
H2_2 C5_2 1_555 1_555
C6_2 C5_2 1_555 1_555
C7_2 C2_2 1_555 1_555
H3_2 C7_2 1_555 1_555
C8_2 C4_2 1_555 1_555
C9_2 C8_2 1_555 1_555
H4_2 C9_2 1_555 1_555
H5_2 C9_2 1_555 1_555
H6_2 C9_2 1_555 1_555
C10_2 C8_2 1_555 1_555
H7_2 C10_2 1_555 1_555
H8_2 C10_2 1_555 1_555
H9_2 C10_2 1_555 1_555
C11_2 C8_2 1_555 1_555
H10_2 C11_2 1_555 1_555
H11_2 C11_2 1_555 1_555
H12_2 C11_2 1_555 1_555
C12_2 O3_2 1_555 1_555
C13A O5A 1_555 1_555
C14A C13A 1_555 1_555
C15A C14A 1_555 1_555
H13A C15A 1_555 1_555
C16A C15A 1_555 1_555
C17A C16A 1_555 1_555
H14A C17A 1_555 1_555
C18A C17A 1_555 1_555
C19A C14A 1_555 1_555
H15A C19A 1_555 1_555
C20A C18A 1_555 1_555
C21A C20A 1_555 1_555
H16A C21A 1_555 1_555
H17A C21A 1_555 1_555
H18A C21A 1_555 1_555
C22A C20A 1_555 1_555
H19A C22A 1_555 1_555
H20A C22A 1_555 1_555
H21A C22A 1_555 1_555
C23A C20A 1_555 1_555
H22A C23A 1_555 1_555
H23A C23A 1_555 1_555
H24A C23A 1_555 1_555
C24A C16A 1_555 1_555
C25_2 O9_2 1_555 1_555
H25_2 C25_2 1_555 1_555
C26_2 C25_2 1_555 1_555
H26_2 C26_2 1_555 1_555
H27_2 C26_2 1_555 1_555
H28_2 C26_2 1_555 1_555
C27_2 C25_2 1_555 1_555
H29_2 C27_2 1_555 1_555
H30_2 C27_2 1_555 1_555
H31_2 C27_2 1_555 1_555
H32A O7A 1_555 1_555
Mn2 O3_2 1_555 1_555
O4 Mn1_3 1_555 1_555
O6 C13 1_555 1_555
C6 C7 1_555 1_555
C18 C19 1_555 1_555
Mn1A_2 O4A 1_555 1_555
Mn1A_3 O3A 1_555 1_555
Mn2_3 O3_3 1_555 1_555
O4_2 C12_2 1_555 1_555
O6A C13A 1_555 1_555
C6_2 C7_2 1_555 1_555
C6_2 C12_2 1_555 1_555
C18A C19A 1_555 1_555

#END
