
#######################################################################
#
#                 Cambridge Crystallographic Data Centre
#                                CCDC 
#
#######################################################################
#
# If this CIF has been generated from an entry in the Cambridge 
# Structural Database, then it will include bibliographic, chemical, 
# crystal, experimental, refinement or atomic coordinate data resulting 
# from the CCDC's data processing and validation procedures.
#
#######################################################################

data_OPOFUV
_symmetry_cell_setting           triclinic
_symmetry_space_group_name_H-M   'P -1'
_symmetry_Int_Tables_number      2
_space_group_name_Hall           '-P 1'
loop_
_symmetry_equiv_pos_site_id
_symmetry_equiv_pos_as_xyz
1 x,y,z
2 -x,-y,-z
_cell_length_a                   9.3170(4)
_cell_length_b                   11.4552(4)
_cell_length_c                   15.9053(6)
_cell_angle_alpha                83.8870(10)
_cell_angle_beta                 85.2720(10)
_cell_angle_gamma                79.8020(10)
_cell_volume                     1657.72
loop_
_atom_site_label
_atom_site_type_symbol
_atom_site_fract_x
_atom_site_fract_y
_atom_site_fract_z
C1 C 0.6172(5) 0.0875(4) 0.1469(3)
C2 C 0.7058(5) 0.1652(4) 0.1683(3)
C3 C 0.8530(5) 0.1494(5) 0.1455(3)
H1 H 0.9097 0.2025 0.1598
C4 C 0.9159(6) 0.0536(6) 0.1011(4)
H2 H 1.0149 0.0441 0.0840
C5 C 0.8350(6) -0.0268(5) 0.0820(4)
H3 H 0.8801 -0.0919 0.0536
C6 C 0.6833(6) -0.0129(4) 0.1047(3)
C7 C 0.6083(7) -0.1059(5) 0.0864(4)
H4 H 0.6596 -0.1637 0.0532
C8 C 0.4199(9) -0.2249(7) 0.1003(6)
H5 H 0.4436 -0.2555 0.0447
C9 C 0.4545(15) -0.3194(11) 0.1795(8)
H6 H 0.5434 -0.3090 0.2020
H7 H 0.4654 -0.3984 0.1621
H8 H 0.3757 -0.3079 0.2222
C10 C 0.2689(9) -0.2135(8) 0.1305(6)
H9 H 0.2501 -0.2902 0.1567
H10 H 0.2084 -0.1914 0.0826
C11 C 0.1114(7) -0.1230(5) 0.2419(4)
H11 H 0.0587 -0.1846 0.2412
C12 C 0.0571(5) -0.0333(4) 0.2988(3)
C13 C -0.0651(6) -0.0490(6) 0.3535(4)
H12 H -0.1078 -0.1160 0.3513
C14 C -0.1228(7) 0.0307(7) 0.4094(4)
H13 H -0.2039 0.0178 0.4450
C15 C -0.0611(6) 0.1317(6) 0.4139(4)
H14 H -0.0996 0.1857 0.4530
C16 C 0.0574(5) 0.1512(4) 0.3600(3)
C17 C 0.1177(4) 0.0703(4) 0.3011(3)
C18 C 0.0891(7) 0.3213(5) 0.4267(4)
H15 H -0.0101 0.3616 0.4233
H16 H 0.1529 0.3791 0.4238
H17 H 0.0985 0.2720 0.4794
C19 C 0.7210(6) 0.3351(5) 0.2420(3)
H18 H 0.7915 0.2894 0.2787
H19 H 0.6594 0.3952 0.2724
H20 H 0.7708 0.3724 0.1941
C20 C 0.4472(4) 0.4319(4) 0.4026(3)
C21 C 0.6828(5) 0.5344(4) 0.4434(3)
C22 C 0.3977(5) 0.6548(4) 0.4562(3)
C23 C 0.0945(4) 0.3724(4) 0.0774(3)
C24 C -0.0492(5) 0.5994(4) 0.0934(3)
C25 C -0.1895(4) 0.4497(4) 0.0201(3)
C26 C 0.4504(13) 0.1291(11) 0.4440(5)
H21 H 0.5409 0.1459 0.4603
H22 H 0.4375 0.0507 0.4678
H23 H 0.3709 0.1866 0.4645
Cu1 Cu 0.35577(6) -0.01125(5) 0.18523(4)
Fe1 Fe 0.5000 0.5000 0.5000
Fe2 Fe 0.0000 0.5000 0.0000
Gd1 Gd 0.34054(2) 0.272147(16) 0.240756(12)
N1 N 0.2267(5) -0.1244(4) 0.1920(3)
N2 N 0.4777(6) -0.1155(4) 0.1118(3)
N3 N 0.7917(5) 0.5555(5) 0.4129(3)
N4 N 0.3368(5) 0.7448(4) 0.4294(3)
N5 N 0.4145(4) 0.3891(3) 0.3465(2)
N6 N 0.1591(4) 0.3054(3) 0.1252(2)
N7 N -0.0772(6) 0.6567(4) 0.1489(3)
N8 N -0.3041(4) 0.4264(4) 0.0312(3)
O1 O 0.4738(3) 0.1122(2) 0.16847(19)
O2 O 0.6329(3) 0.2575(3) 0.21335(19)
O3 O 0.2289(3) 0.0995(2) 0.25032(18)
O4 O 0.1280(3) 0.2483(3) 0.3573(2)
O5 O 0.4842(4) -0.0915(3) 0.3175(2)
H24 H 0.5654 -0.1375 0.3100
H25 H 0.4321 -0.1213 0.3577
O6 O 0.4529(4) 0.1350(3) 0.3528(2)
H26 H 0.4727 0.0608 0.3479
O7 O 0.1789(4) 0.4648(3) 0.2440(2)
H27 H 0.1666 0.5108 0.2835
H28 H 0.1033 0.4789 0.2156
O8 O 0.4281(3) 0.3908(3) 0.1182(2)
H29 H 0.5124 0.4009 0.0973
H30 H 0.3634 0.4301 0.0867
C1A C 0.3828(5) 0.9125(4) 0.8531(3)
C2A C 0.2942(5) 0.8348(4) 0.8317(3)
C3A C 0.1470(5) 0.8506(5) 0.8545(3)
H1A H 0.0903 0.7975 0.8402
C4A C 0.0841(6) 0.9464(6) 0.8989(4)
H2A H -0.0149 0.9559 0.9160
C5A C 0.1650(6) 1.0268(5) 0.9180(4)
H3A H 0.1199 1.0919 0.9464
C6A C 0.3167(6) 1.0129(4) 0.8953(3)
C7A C 0.3917(7) 1.1059(5) 0.9136(4)
H4A H 0.3404 1.1637 0.9468
C8A C 0.5801(9) 1.2249(7) 0.8997(6)
H5A H 0.5564 1.2555 0.9553
C9A C 0.5455(15) 1.3194(11) 0.8205(8)
H6A H 0.4566 1.3090 0.7980
H7A H 0.5346 1.3984 0.8379
H8A H 0.6243 1.3079 0.7778
C10A C 0.7311(9) 1.2135(8) 0.8695(6)
H9A H 0.7499 1.2902 0.8433
H10A H 0.7916 1.1914 0.9174
C11A C 0.8886(7) 1.1230(5) 0.7581(4)
H11A H 0.9413 1.1846 0.7588
C12A C 0.9429(5) 1.0333(4) 0.7012(3)
C13A C 1.0651(6) 1.0490(6) 0.6465(4)
H12A H 1.1078 1.1160 0.6487
C14A C 1.1228(7) 0.9693(7) 0.5906(4)
H13A H 1.2039 0.9822 0.5550
C15A C 1.0611(6) 0.8683(6) 0.5861(4)
H14A H 1.0996 0.8143 0.5470
C16A C 0.9426(5) 0.8488(4) 0.6400(3)
C17A C 0.8823(4) 0.9297(4) 0.6989(3)
C18A C 0.9109(7) 0.6787(5) 0.5733(4)
H15A H 1.0101 0.6384 0.5767
H16A H 0.8471 0.6209 0.5762
H17A H 0.9015 0.7280 0.5206
C19A C 0.2790(6) 0.6649(5) 0.7580(3)
H18A H 0.2085 0.7106 0.7213
H19A H 0.3406 0.6048 0.7276
H20A H 0.2292 0.6276 0.8059
C20A C 0.5528(4) 0.5681(4) 0.5974(3)
C21A C 0.3172(5) 0.4656(4) 0.5566(3)
C22A C 0.6023(5) 0.3452(4) 0.5438(3)
C23A C 0.9055(4) 0.6276(4) 0.9226(3)
C23A_2 C -0.0945(4) 0.6276(4) -0.0774(3)
C24A C 0.0492(5) 0.4006(4) -0.0934(3)
C25A C 0.1895(4) 0.5503(4) -0.0201(3)
C26A C 0.5496(13) 0.8709(11) 0.5560(5)
H21A H 0.4591 0.8541 0.5397
H22A H 0.5625 0.9493 0.5322
H23A H 0.6291 0.8134 0.5355
Cu1A Cu 0.64423(6) 1.01125(5) 0.81477(4)
Fe2_2 Fe 1.0000 0.5000 1.0000
Gd1A Gd 0.65946(2) 0.727853(16) 0.759244(12)
N1A N 0.7733(5) 1.1244(4) 0.8080(3)
N2A N 0.5223(6) 1.1155(4) 0.8882(3)
N3A N 0.2083(5) 0.4445(5) 0.5871(3)
N4A N 0.6632(5) 0.2552(4) 0.5706(3)
N5A N 0.5855(4) 0.6109(3) 0.6535(2)
N6A N 0.8409(4) 0.6946(3) 0.8748(2)
N7A N 0.0772(6) 0.3433(4) -0.1489(3)
N8A N 0.3041(4) 0.5736(4) -0.0312(3)
O1A O 0.5262(3) 0.8878(2) 0.83153(19)
O2A O 0.3671(3) 0.7425(3) 0.78665(19)
O3A O 0.7711(3) 0.9005(2) 0.74968(18)
O4A O 0.8720(3) 0.7517(3) 0.6427(2)
O5A O 0.5158(4) 1.0915(3) 0.6825(2)
H24A H 0.4346 1.1375 0.6900
H25A H 0.5679 1.1213 0.6423
O6A O 0.5471(4) 0.8650(3) 0.6472(2)
H26A H 0.5273 0.9392 0.6521
O7A O 0.8211(4) 0.5352(3) 0.7560(2)
H27A H 0.8334 0.4892 0.7165
H28A H 0.8967 0.5211 0.7844
O8A O 0.5719(3) 0.6092(3) 0.8818(2)
H29A H 0.4876 0.5991 0.9027
H30A H 0.6366 0.5699 0.9133
O9 O 0.0896(4) 0.6200(4) 0.3607(3)
H31 H 0.1435 0.6566 0.3852
H32 H 0.0093 0.6170 0.3897
O10 O 0.7386(5) 0.7599(4) 0.2854(3)
H33 H 0.7513 0.6964 0.3188
H34 H 0.7507 0.7428 0.2343
loop_
_geom_bond_atom_site_label_1
_geom_bond_atom_site_label_2
_geom_bond_site_symmetry_1
_geom_bond_site_symmetry_2
C1 C2 1_555 1_555
C2 C3 1_555 1_555
C3 H1 1_555 1_555
C4 C3 1_555 1_555
H2 C4 1_555 1_555
C5 C4 1_555 1_555
H3 C5 1_555 1_555
C6 C1 1_555 1_555
C7 C6 1_555 1_555
H4 C7 1_555 1_555
C8 H5 1_555 1_555
C9 C8 1_555 1_555
H6 C9 1_555 1_555
H7 C9 1_555 1_555
H8 C9 1_555 1_555
C10 C8 1_555 1_555
H9 C10 1_555 1_555
H10 C10 1_555 1_555
C11 H11 1_555 1_555
C12 C11 1_555 1_555
C13 C12 1_555 1_555
H12 C13 1_555 1_555
C14 C13 1_555 1_555
H13 C14 1_555 1_555
C15 C14 1_555 1_555
H14 C15 1_555 1_555
C16 C15 1_555 1_555
C17 C12 1_555 1_555
C18 H15 1_555 1_555
H16 C18 1_555 1_555
H17 C18 1_555 1_555
C19 H18 1_555 1_555
H19 C19 1_555 1_555
H20 C19 1_555 1_555
C20 Fe1 1_555 1_555
C21 Fe1 1_555 1_555
C22 Fe1 1_555 1_555
C23 Fe2 1_555 1_555
C24 Fe2 1_555 1_555
C25 Fe2 1_555 1_555
C26 H21 1_555 1_555
H22 C26 1_555 1_555
H23 C26 1_555 1_555
Cu1 N1 1_555 1_555
Fe1 C20A 1_555 1_555
Fe2 C23A_2 1_555 1_555
Gd1 N5 1_555 1_555
N1 C10 1_555 1_555
N2 C7 1_555 1_555
N3 C21 1_555 1_555
N4 C22 1_555 1_555
N5 C20 1_555 1_555
N6 C23 1_555 1_555
N7 C24 1_555 1_555
N8 C25 1_555 1_555
O1 C1 1_555 1_555
O2 C2 1_555 1_555
O3 C17 1_555 1_555
O4 C16 1_555 1_555
O5 Cu1 1_555 1_555
H24 O5 1_555 1_555
H25 O5 1_555 1_555
O6 C26 1_555 1_555
H26 O6 1_555 1_555
O7 Gd1 1_555 1_555
H27 O7 1_555 1_555
H28 O7 1_555 1_555
O8 Gd1 1_555 1_555
H29 O8 1_555 1_555
H30 O8 1_555 1_555
O9 H31 1_555 1_555
H32 O9 1_555 1_555
O10 H33 1_555 1_555
H34 O10 1_555 1_555
C1A C2A 1_555 1_555
C2A C3A 1_555 1_555
C3A H1A 1_555 1_555
C4A C3A 1_555 1_555
H2A C4A 1_555 1_555
C5A C4A 1_555 1_555
H3A C5A 1_555 1_555
C6A C1A 1_555 1_555
C7A C6A 1_555 1_555
H4A C7A 1_555 1_555
C8A H5A 1_555 1_555
C9A C8A 1_555 1_555
H6A C9A 1_555 1_555
H7A C9A 1_555 1_555
H8A C9A 1_555 1_555
C10A C8A 1_555 1_555
H9A C10A 1_555 1_555
H10A C10A 1_555 1_555
C11A H11A 1_555 1_555
C12A C11A 1_555 1_555
C13A C12A 1_555 1_555
H12A C13A 1_555 1_555
C14A C13A 1_555 1_555
H13A C14A 1_555 1_555
C15A C14A 1_555 1_555
H14A C15A 1_555 1_555
C16A C15A 1_555 1_555
C17A C12A 1_555 1_555
C18A H15A 1_555 1_555
H16A C18A 1_555 1_555
H17A C18A 1_555 1_555
C19A H18A 1_555 1_555
H19A C19A 1_555 1_555
H20A C19A 1_555 1_555
C20A N5A 1_555 1_555
C21A Fe1 1_555 1_555
C22A Fe1 1_555 1_555
C23A Fe2_2 1_555 1_555
C24A Fe2 1_555 1_555
C25A Fe2 1_555 1_555
C26A H21A 1_555 1_555
H22A C26A 1_555 1_555
H23A C26A 1_555 1_555
Cu1A N1A 1_555 1_555
Gd1A N5A 1_555 1_555
N1A C10A 1_555 1_555
N2A C7A 1_555 1_555
N3A C21A 1_555 1_555
N4A C22A 1_555 1_555
N6A C23A 1_555 1_555
N7A C24A 1_555 1_555
N8A C25A 1_555 1_555
O1A C1A 1_555 1_555
O2A C2A 1_555 1_555
O3A C17A 1_555 1_555
O4A C16A 1_555 1_555
O5A Cu1A 1_555 1_555
H24A O5A 1_555 1_555
H25A O5A 1_555 1_555
O6A C26A 1_555 1_555
H26A O6A 1_555 1_555
O7A Gd1A 1_555 1_555
H27A O7A 1_555 1_555
H28A O7A 1_555 1_555
O8A Gd1A 1_555 1_555
H29A O8A 1_555 1_555
H30A O8A 1_555 1_555
C5 C6 1_555 1_555
C8 N2 1_555 1_555
C11 N1 1_555 1_555
C16 C17 1_555 1_555
C18 O4 1_555 1_555
C19 O2 1_555 1_555
Cu1 N2 1_555 1_555
Cu1 O1 1_555 1_555
Cu1 O3 1_555 1_555
Gd1 N6 1_555 1_555
Gd1 O1 1_555 1_555
Gd1 O2 1_555 1_555
Gd1 O3 1_555 1_555
Gd1 O4 1_555 1_555
Gd1 O6 1_555 1_555
C5A C6A 1_555 1_555
C8A N2A 1_555 1_555
C11A N1A 1_555 1_555
C16A C17A 1_555 1_555
C18A O4A 1_555 1_555
C19A O2A 1_555 1_555
Cu1A N2A 1_555 1_555
Cu1A O1A 1_555 1_555
Cu1A O3A 1_555 1_555
Gd1A N6A 1_555 1_555
Gd1A O1A 1_555 1_555
Gd1A O2A 1_555 1_555
Gd1A O3A 1_555 1_555
Gd1A O4A 1_555 1_555
Gd1A O6A 1_555 1_555

#END
