
#######################################################################
#
#                 Cambridge Crystallographic Data Centre
#                                CCDC 
#
#######################################################################
#
# If this CIF has been generated from an entry in the Cambridge 
# Structural Database, then it will include bibliographic, chemical, 
# crystal, experimental, refinement or atomic coordinate data resulting 
# from the CCDC's data processing and validation procedures.
#
#######################################################################

data_OPOGUW
_symmetry_cell_setting           monoclinic
_symmetry_space_group_name_H-M   'C 2/m'
_symmetry_Int_Tables_number      12
_space_group_name_Hall           '-C 2y'
loop_
_symmetry_equiv_pos_site_id
_symmetry_equiv_pos_as_xyz
1 x,y,z
2 -x,y,-z
3 1/2+x,1/2+y,z
4 1/2-x,1/2+y,-z
5 -x,-y,-z
6 x,-y,z
7 1/2-x,1/2-y,-z
8 1/2+x,1/2-y,z
_cell_length_a                   22.342(10)
_cell_length_b                   6.479(3)
_cell_length_c                   11.277(5)
_cell_angle_alpha                90
_cell_angle_beta                 106.363(7)
_cell_angle_gamma                90
_cell_volume                     1566.27
loop_
_atom_site_label
_atom_site_type_symbol
_atom_site_fract_x
_atom_site_fract_y
_atom_site_fract_z
I1 I 0.103941(17) 1.0000 0.90299(4)
I2 I 0.288818(16) 1.0000 0.89840(3)
Cu1 Cu 0.19481(3) 0.74316(10) 0.89191(5)
S1 S 0.17920(6) 0.5000 0.73498(12)
N1 N 0.2463(2) 0.5000 0.5691(4)
N2 N 0.30642(12) 0.5000 0.7600(2)
H1 H 0.3160 0.5000 0.8431
H2 H 0.2090 0.5000 0.5015
C2 C 0.2463(2) 0.5000 0.6876(4)
C3 C 0.3074(2) 0.5000 0.5622(5)
C4 C 0.3317(3) 0.5000 0.4622(5)
H4 H 0.3062 0.5000 0.3813
C5 C 0.3960(3) 0.5000 0.4894(6)
H5 H 0.4142 0.5000 0.4247
C6 C 0.4352(3) 0.5000 0.6128(6)
H6 H 0.4782 0.5000 0.6272
C7 C 0.4104(3) 0.5000 0.7105(5)
H7 H 0.4358 0.5000 0.7915
C8 C 0.3460(2) 0.5000 0.6841(5)
I2C I 0.211182(16) 0.5000 1.10160(3)
I2C_2 I 0.211182(16) 1.5000 1.10160(3)
Cu1E Cu 0.19481(3) 1.25684(10) 0.89191(5)
Cu1C Cu 0.30519(3) 1.24316(10) 1.10809(5)
Cu1F Cu 0.30519(3) 0.75684(10) 1.10809(5)
Cu1E_2 Cu 0.19481(3) 0.25684(10) 0.89191(5)
S1_2 S 0.17920(6) 1.5000 0.73498(12)
O1 O 0.35263(12) 0.0000 0.6297(2)
C1 C 0.40703(12) 0.0000 0.6211(2)
H3 H 0.4114 0.0000 0.5415
N3 N 0.4579(2) 0.0000 0.7106(4)
C9 C 0.4581(4) 0.0000 0.8385(7)
C10 C 0.5186(3) 0.0000 0.6888(7)
H8? H 0.4936 0.0759 0.8865
H9? H 0.4602 -0.1395 0.8680
H10? H 0.4205 0.0637 0.8460
H11? H 0.5462 -0.0887 0.7477
H12? H 0.5350 0.1378 0.6974
H13? H 0.5148 -0.0491 0.6067
loop_
_geom_bond_atom_site_label_1
_geom_bond_atom_site_label_2
_geom_bond_site_symmetry_1
_geom_bond_site_symmetry_2
I1 Cu1 1_555 1_555
I2 Cu1 1_555 1_555
Cu1 S1 1_555 1_555
S1 C2 1_555 1_555
N1 H2 1_555 1_555
N2 H1 1_555 1_555
O1 C1 1_555 1_555
C1 H3 1_555 1_555
N3 C1 1_555 1_555
C2 N1 1_555 1_555
C3 N1 1_555 1_555
C4 C3 1_555 1_555
H4 C4 1_555 1_555
C5 C4 1_555 1_555
H5 C5 1_555 1_555
C6 C5 1_555 1_555
H6 C6 1_555 1_555
C7 C6 1_555 1_555
H7 C7 1_555 1_555
C8 N2 1_555 1_555
C9 N3 1_555 1_555
C10 N3 1_555 1_555
I2C Cu1 1_555 1_555
I2C_2 Cu1E 1_555 1_555
Cu1E I1 1_555 1_555
Cu1C I2 1_555 1_555
Cu1F I2 1_555 1_555
Cu1E_2 S1 1_555 1_555
S1_2 Cu1E 1_555 1_555
I2 Cu1E 1_555 1_555
N2 C2 1_555 1_555
C3 C8 1_555 1_555
C7 C8 1_555 1_555
I2C Cu1F 1_555 1_555
I2C Cu1E_2 1_555 1_555
I2C_2 Cu1C 1_555 1_555

#END
