
#######################################################################
#
#                 Cambridge Crystallographic Data Centre
#                                CCDC 
#
#######################################################################
#
# If this CIF has been generated from an entry in the Cambridge 
# Structural Database, then it will include bibliographic, chemical, 
# crystal, experimental, refinement or atomic coordinate data resulting 
# from the CCDC's data processing and validation procedures.
#
#######################################################################

data_OPOGAC
_symmetry_cell_setting           triclinic
_symmetry_space_group_name_H-M   'P -1'
_symmetry_Int_Tables_number      2
_space_group_name_Hall           '-P 1'
loop_
_symmetry_equiv_pos_site_id
_symmetry_equiv_pos_as_xyz
1 x,y,z
2 -x,-y,-z
_cell_length_a                   9.985(4)
_cell_length_b                   12.139(2)
_cell_length_c                   12.670(4)
_cell_angle_alpha                116.570(5)
_cell_angle_beta                 96.991(4)
_cell_angle_gamma                104.863(6)
_cell_volume                     1276.94
loop_
_atom_site_label
_atom_site_type_symbol
_atom_site_fract_x
_atom_site_fract_y
_atom_site_fract_z
C1 C 0.6528(4) 0.1055(4) 0.9136(4)
C2 C 0.7236(4) 0.1694(4) 1.0391(4)
C3 C 0.7743(5) 0.0894(4) 1.0721(4)
C4 C 0.7499(4) -0.0336(4) 0.9763(4)
C5 C 0.5709(5) 0.1440(5) 0.8420(4)
C6 C 0.5613(5) 0.0996(4) 0.7194(3)
H1 H 0.6145 0.0483 0.6815
C7 C 0.4725(5) 0.1310(4) 0.6517(4)
H2 H 0.4683 0.0996 0.5692
C8 C 0.4056(4) 0.2480(4) 0.8170(4)
H3 H 0.3526 0.3007 0.8523
C9 C 0.4886(4) 0.2240(4) 0.8919(4)
H4 H 0.4912 0.2595 0.9745
C10 C 0.7364(4) 0.3048(4) 1.1246(4)
C11 C 0.7944(4) 0.4078(4) 1.1047(4)
H5 H 0.8267 0.3927 1.0354
C12 C 0.8040(4) 0.5304(4) 1.1860(3)
H6 H 0.8468 0.5984 1.1720
C13 C 0.6980(5) 0.4603(4) 1.3064(4)
H7 H 0.6624 0.4774 1.3745
C14 C 0.6900(5) 0.3362(4) 1.2324(4)
H8 H 0.6540 0.2712 1.2520
C15 C 1.0008(5) 0.2329(5) 1.2423(4)
H9 H 1.0339 0.2737 1.1987
C16 C 1.0893(5) 0.2659(4) 1.3535(4)
H10 H 1.1826 0.3256 1.3800
C17 C 0.9112(4) 0.1323(4) 1.3843(4)
H11 H 0.8798 0.0989 1.4338
C18 C 0.8160(4) 0.0932(4) 1.2728(3)
H12 H 0.7217 0.0369 1.2501
C19 C 0.8636(4) 0.1393(4) 1.1961(3)
C20 C 0.7848(4) -0.1460(4) 0.9705(3)
C21 C 0.9014(5) -0.1322(4) 1.0499(4)
H13 H 0.9637 -0.0492 1.1110
C22 C 0.9257(6) -0.2461(5) 1.0376(4)
H14 H 1.0057 -0.2409 1.0798
C23 C 0.7331(5) -0.3755(4) 0.8772(4)
H15 H 0.6729 -0.4595 0.8163
C24 C 0.7018(5) -0.2720(4) 0.8825(4)
H16 H 0.6221 -0.2865 0.8252
Cd1 Cd 0.22551(3) 0.22604(3) 0.56977(3)
N1 N 0.3935(3) 0.2037(3) 0.7001(3)
N2 N 0.7543(4) 0.5604(3) 1.2877(3)
N3 N 1.0488(4) 0.2181(3) 1.4221(3)
N4 N 0.8431(4) -0.3641(4) 0.9529(3)
N5 N 0.3970(5) 0.3097(4) 0.5002(4)
N6 N 0.4906(5) 0.2923(4) 0.4796(4)
N7 N 0.5853(4) 0.2428(4) 0.4388(4)
N8 N 0.0581(4) 0.1487(3) 0.6579(3)
N9 N -0.0591(4) 0.0723(3) 0.6206(3)
N10 N -0.1776(4) -0.0052(3) 0.5848(3)
S1 S 0.65689(12) -0.05073(10) 0.84154(10)
Cd1A Cd 0.77449(3) 0.77396(3) 1.43023(3)
Cd1_2 Cd 1.22551(3) 0.22604(3) 1.56977(3)
Cd1A_2 Cd -0.22551(3) -0.22604(3) 0.43023(3)
N2A N 0.2457(4) 0.4396(3) 0.7123(3)
N3_2 N 0.0488(4) 0.2181(3) 0.4221(3)
N10A N 0.1776(4) 0.0052(3) 0.4152(3)
O1 O 0.8248(3) 0.3258(3) 0.6202(3)
H17 H 0.7863 0.2732 0.5438
H18 H 0.7693 0.3665 0.6506
loop_
_geom_bond_atom_site_label_1
_geom_bond_atom_site_label_2
_geom_bond_site_symmetry_1
_geom_bond_site_symmetry_2
C1 C2 1_555 1_555
C2 C3 1_555 1_555
C3 C4 1_555 1_555
C4 C20 1_555 1_555
C5 C1 1_555 1_555
C6 C5 1_555 1_555
H1 C6 1_555 1_555
C7 C6 1_555 1_555
H2 C7 1_555 1_555
C8 H3 1_555 1_555
C9 C5 1_555 1_555
H4 C9 1_555 1_555
C10 C2 1_555 1_555
C11 C10 1_555 1_555
H5 C11 1_555 1_555
C12 C11 1_555 1_555
H6 C12 1_555 1_555
C13 H7 1_555 1_555
C14 C10 1_555 1_555
H8 C14 1_555 1_555
C15 H9 1_555 1_555
C16 C15 1_555 1_555
H10 C16 1_555 1_555
C17 H11 1_555 1_555
C18 C17 1_555 1_555
H12 C18 1_555 1_555
C19 C3 1_555 1_555
C20 C21 1_555 1_555
C21 H13 1_555 1_555
C22 C21 1_555 1_555
H14 C22 1_555 1_555
C23 H15 1_555 1_555
C24 C20 1_555 1_555
H16 C24 1_555 1_555
Cd1 N1 1_555 1_555
N1 C7 1_555 1_555
N2 C12 1_555 1_555
N3 C16 1_555 1_555
N4 C22 1_555 1_555
N5 Cd1 1_555 1_555
N6 N5 1_555 1_555
N7 N6 1_555 1_555
N8 Cd1 1_555 1_555
N9 N8 1_555 1_555
N10 N9 1_555 1_555
O1 H17 1_555 1_555
H18 O1 1_555 1_555
S1 C1 1_555 1_555
Cd1A N2 1_555 1_555
Cd1_2 N3 1_555 1_555
Cd1A_2 N10 1_555 1_555
N2A Cd1 1_555 1_555
N3_2 Cd1 1_555 1_555
N10A Cd1 1_555 1_555
C4 S1 1_555 1_555
C8 C9 1_555 1_555
C8 N1 1_555 1_555
C13 C14 1_555 1_555
C13 N2 1_555 1_555
C15 C19 1_555 1_555
C17 N3 1_555 1_555
C18 C19 1_555 1_555
C23 C24 1_555 1_555
C23 N4 1_555 1_555

#END
