
#######################################################################
#
#                 Cambridge Crystallographic Data Centre
#                                CCDC 
#
#######################################################################
#
# If this CIF has been generated from an entry in the Cambridge 
# Structural Database, then it will include bibliographic, chemical, 
# crystal, experimental, refinement or atomic coordinate data resulting 
# from the CCDC's data processing and validation procedures.
#
#######################################################################

data_OPOHIL
_symmetry_cell_setting           monoclinic
_symmetry_space_group_name_H-M   'C 2/m'
_symmetry_Int_Tables_number      12
_space_group_name_Hall           '-C 2y'
loop_
_symmetry_equiv_pos_site_id
_symmetry_equiv_pos_as_xyz
1 x,y,z
2 -x,y,-z
3 1/2+x,1/2+y,z
4 1/2-x,1/2+y,-z
5 -x,-y,-z
6 x,-y,z
7 1/2-x,1/2-y,-z
8 1/2+x,1/2-y,z
_cell_length_a                   14.066(3)
_cell_length_b                   11.198(2)
_cell_length_c                   13.074(3)
_cell_angle_alpha                90
_cell_angle_beta                 113.61(3)
_cell_angle_gamma                90
_cell_volume                     1886.92
loop_
_atom_site_label
_atom_site_type_symbol
_atom_site_fract_x
_atom_site_fract_y
_atom_site_fract_z
Cu1 Cu 0.37034(6) 0.0000 -0.01250(6)
Cu2 Cu 0.24743(5) 0.5000 -0.13848(5)
Cu3 Cu 0.44863(6) 0.5000 0.13182(5)
Cu4 Cu -0.12753(5) 0.5000 -0.34908(6)
Cu5 Cu 0.40403(5) 0.5000 0.45414(5)
Cu6 Cu -0.25853(6) 0.0000 -0.36360(6)
C1 C -0.1826(3) 0.2415(3) -0.3556(3)
H1 H -0.1151 0.2164 -0.3398
C2 C 0.1074(4) 0.5000 -0.2393(4)
C3 C 0.4238(3) 0.2417(4) 0.0684(3)
H2 H 0.4719 0.2168 0.1377
C4 C 0.5237(5) 0.5000 0.3808(5)
N1 N 0.3699(3) 0.1657(3) -0.0147(3)
N2 N 0.3096(3) 0.2407(4) -0.0968(3)
N3 N 0.3268(3) 0.3536(3) -0.0665(3)
N4 N 0.4018(3) 0.3540(3) 0.0419(3)
N5 N 0.5072(4) 0.5000 0.2891(4)
N6 N 0.0187(5) 0.5000 -0.2903(5)
N7 N -0.2113(2) 0.3544(3) -0.3678(3)
N8 N -0.2606(3) 0.1667(3) -0.3683(3)
N9 N -0.3417(3) 0.2410(3) -0.3914(3)
N10 N -0.3156(2) 0.3538(3) -0.3911(3)
Cu2_2 Cu 0.24743(5) -0.5000 -0.13848(5)
Cu3_2 Cu 0.44863(6) -0.5000 0.13182(5)
Cu5A Cu 0.59597(5) 0.5000 0.54586(5)
Cu5A_2 Cu -0.40403(5) 0.5000 -0.45414(5)
Cu6_2 Cu -0.25853(6) 1.0000 -0.36360(6)
C1E C -0.1826(3) 0.7585(3) -0.3556(3)
H1E H -0.1151 0.7836 -0.3398
C3E C 0.4238(3) -0.2417(4) 0.0684(3)
H2E H 0.4719 -0.2168 0.1377
C4A C 0.4763(5) 0.5000 0.6192(5)
N1E N 0.3699(3) -0.1657(3) -0.0147(3)
N2E N 0.3096(3) -0.2407(4) -0.0968(3)
N3E N 0.3268(3) -0.3536(3) -0.0665(3)
N3E_2 N 0.3268(3) 0.6464(3) -0.0665(3)
N4E N 0.4018(3) -0.3540(3) 0.0419(3)
N4E_2 N 0.4018(3) 0.6460(3) 0.0419(3)
N7E N -0.2113(2) 0.6456(3) -0.3678(3)
N8E N -0.2606(3) 0.8333(3) -0.3683(3)
N8E_2 N -0.2606(3) -0.1667(3) -0.3683(3)
N9E N -0.3417(3) 0.7590(3) -0.3914(3)
N10E N -0.3156(2) 0.6462(3) -0.3911(3)
N10A N 0.3156(2) 0.3538(3) 0.3911(3)
N10D N 0.3156(2) 0.6462(3) 0.3911(3)
loop_
_geom_bond_atom_site_label_1
_geom_bond_atom_site_label_2
_geom_bond_site_symmetry_1
_geom_bond_site_symmetry_2
Cu1 N1 1_555 1_555
Cu2 C2 1_555 1_555
Cu3 N4 1_555 1_555
Cu4 N6 1_555 1_555
Cu5 C4 1_555 1_555
Cu6 N8 1_555 1_555
C1 H1 1_555 1_555
C2 N6 1_555 1_555
C3 H2 1_555 1_555
C4 N5 1_555 1_555
N1 C3 1_555 1_555
N2 N1 1_555 1_555
N3 Cu2 1_555 1_555
N4 C3 1_555 1_555
N5 Cu3 1_555 1_555
N7 Cu4 1_555 1_555
N8 C1 1_555 1_555
N9 N8 1_555 1_555
N10 N7 1_555 1_555
Cu2_2 N3E 1_555 1_555
Cu3_2 N4E 1_555 1_555
Cu5A C4 1_555 1_555
Cu5A_2 N10 1_555 1_555
Cu6_2 N8E 1_555 1_555
C1E H1E 1_555 1_555
C3E H2E 1_555 1_555
C4A Cu5 1_555 1_555
N1E Cu1 1_555 1_555
N2E N1E 1_555 1_555
N3E N2E 1_555 1_555
N3E_2 Cu2 1_555 1_555
N4E C3E 1_555 1_555
N4E_2 Cu3 1_555 1_555
N7E Cu4 1_555 1_555
N8E C1E 1_555 1_555
N8E_2 Cu6 1_555 1_555
N9E N8E 1_555 1_555
N10E Cu5A_2 1_555 1_555
N10A Cu5 1_555 1_555
N10D Cu5 1_555 1_555
C1 N7 1_555 1_555
N2 N3 1_555 1_555
N3 N4 1_555 1_555
N9 N10 1_555 1_555
Cu5A C4A 1_555 1_555
C1E N7E 1_555 1_555
C3E N1E 1_555 1_555
N3E N4E 1_555 1_555
N3E_2 N4E_2 1_555 1_555
N7E N10E 1_555 1_555
N9E N10E 1_555 1_555

#END
