
#######################################################################
#
#                 Cambridge Crystallographic Data Centre
#                                CCDC 
#
#######################################################################
#
# If this CIF has been generated from an entry in the Cambridge 
# Structural Database, then it will include bibliographic, chemical, 
# crystal, experimental, refinement or atomic coordinate data resulting 
# from the CCDC's data processing and validation procedures.
#
#######################################################################

data_OPOKIO
_symmetry_cell_setting           monoclinic
_symmetry_space_group_name_H-M   'P 21/c'
_symmetry_Int_Tables_number      14
_space_group_name_Hall           '-P 2ybc'
loop_
_symmetry_equiv_pos_site_id
_symmetry_equiv_pos_as_xyz
1 x,y,z
2 -x,1/2+y,1/2-z
3 -x,-y,-z
4 x,1/2-y,1/2+z
_cell_length_a                   7.6550(2)
_cell_length_b                   13.5910(5)
_cell_length_c                   20.7350(8)
_cell_angle_alpha                90
_cell_angle_beta                 90.876(1)
_cell_angle_gamma                90
_cell_volume                     2157
loop_
_atom_site_label
_atom_site_type_symbol
_atom_site_fract_x
_atom_site_fract_y
_atom_site_fract_z
Ni1 Ni 0.17957(5) 0.59881(3) 0.069016(18)
K1 K 0.27302(10) 0.64896(7) -0.22763(4)
O1 O 0.0922(3) 0.60240(17) -0.11928(11)
O2 O 0.4501(3) 0.39039(17) 0.16084(11)
O3 O 0.0897(3) 0.71493(16) 0.10305(10)
O4 O -0.0241(3) 0.5143(2) 0.21884(11)
O5 O -0.0127(3) 0.7182(2) -0.28001(12)
O6 O 0.3826(3) 0.6850(2) -0.35109(13)
N1 N 0.2591(3) 0.49554(18) 0.02362(12)
N2 N 0.1054(3) 0.6432(2) -0.01034(12)
N3 N 0.2754(3) 0.52839(19) 0.14092(12)
C1 C 0.3484(4) 0.4246(2) 0.05422(15)
C2 C 0.4150(4) 0.3453(2) 0.01916(16)
H1 H 0.5013 0.2977 0.0468
C3 C 0.3829(4) 0.3434(3) -0.04703(17)
H2 H 0.4328 0.2842 -0.0684
C4 C 0.2880(4) 0.4180(2) -0.07751(16)
H3 H 0.2638 0.4151 -0.1242
C5 C 0.2301(4) 0.4949(2) -0.04111(15)
C6 C 0.1337(4) 0.5863(2) -0.06157(15)
C7 C 0.0162(4) 0.7334(2) -0.00830(15)
C8 C 0.0098(4) 0.7697(2) 0.05547(15)
C9 C -0.0776(4) 0.8572(3) 0.06785(18)
H4 H -0.0733 0.8900 0.1109
C10 C -0.1567(5) 0.9073(3) 0.0173(2)
H5 H -0.2255 0.9655 0.0205
C11 C -0.1521(5) 0.8713(3) -0.04540(18)
H6 H -0.2183 0.8993 -0.0826
C12 C -0.0641(4) 0.7842(3) -0.05869(16)
H7 H -0.0583 0.7644 -0.1040
C13 C 0.3642(4) 0.4456(2) 0.12494(15)
C14 C 0.2799(4) 0.5575(2) 0.20730(15)
C15 C 0.1307(4) 0.5494(2) 0.24389(15)
C16 C 0.1307(4) 0.5792(3) 0.30799(16)
H8 H 0.0278 0.5726 0.3326
C17 C 0.2816(5) 0.6187(3) 0.33616(17)
H9 H 0.2816 0.6394 0.3799
C18 C 0.4312(5) 0.6276(3) 0.30019(17)
H10 H 0.5378 0.6568 0.3193
C19 C 0.4298(4) 0.5973(3) 0.23608(16)
H11 H 0.5428 0.6084 0.2079
C20 C -0.1865(5) 0.7377(3) -0.2615(2)
H12 H -0.2169 0.6954 -0.2251
H13 H -0.1968 0.8069 -0.2488
H14 H -0.2661 0.7245 -0.2980
C21 C 0.4081(7) 0.6026(3) -0.3916(3)
H15 H 0.4028 0.6237 -0.4368
H16 H 0.5226 0.5734 -0.3821
H17 H 0.3165 0.5538 -0.3839
H18 H -0.017(5) 0.494(3) 0.1812(8)
H19 H 0.009(4) 0.745(2) -0.3148(9)
H20 H 0.290(3) 0.706(3) -0.3672(19)
K1B K 0.72698(10) 0.35104(7) 0.22763(4)
K1B_2 K -0.27302(10) 0.35104(7) 0.22763(4)
K1C K 0.27302(10) 0.85104(7) 0.27237(4)
O2B O 0.5499(3) 0.60961(17) -0.16084(11)
O4B O 0.0241(3) 0.4857(2) -0.21884(11)
C17C C 0.2816(5) 0.8813(3) -0.16384(17)
H9C H 0.2816 0.8606 -0.1201
C18C C 0.4312(5) 0.8724(3) -0.19981(17)
H10C H 0.5378 0.8432 -0.1807
H18B H 0.017(5) 0.506(3) -0.1812(8)
loop_
_geom_bond_atom_site_label_1
_geom_bond_atom_site_label_2
_geom_bond_site_symmetry_1
_geom_bond_site_symmetry_2
Ni1 O3 1_555 1_555
K1 O1 1_555 1_555
O1 C6 1_555 1_555
O2 C13 1_555 1_555
O3 C8 1_555 1_555
O4 C15 1_555 1_555
O5 K1 1_555 1_555
O6 K1 1_555 1_555
N1 Ni1 1_555 1_555
N2 Ni1 1_555 1_555
N3 Ni1 1_555 1_555
C1 N1 1_555 1_555
C2 C1 1_555 1_555
H1 C2 1_555 1_555
C3 C2 1_555 1_555
H2 C3 1_555 1_555
C4 C3 1_555 1_555
H3 C4 1_555 1_555
C5 N1 1_555 1_555
C6 N2 1_555 1_555
C7 N2 1_555 1_555
C8 C7 1_555 1_555
C9 C8 1_555 1_555
H4 C9 1_555 1_555
C10 C9 1_555 1_555
H5 C10 1_555 1_555
C11 C10 1_555 1_555
H6 C11 1_555 1_555
C12 C7 1_555 1_555
H7 C12 1_555 1_555
C13 N3 1_555 1_555
C14 N3 1_555 1_555
C15 C14 1_555 1_555
C16 C15 1_555 1_555
H8 C16 1_555 1_555
C17 C16 1_555 1_555
H9 C17 1_555 1_555
C18 C17 1_555 1_555
H10 C18 1_555 1_555
C19 C14 1_555 1_555
H11 C19 1_555 1_555
C20 O5 1_555 1_555
H12 C20 1_555 1_555
H13 C20 1_555 1_555
H14 C20 1_555 1_555
C21 O6 1_555 1_555
H15 C21 1_555 1_555
H16 C21 1_555 1_555
H17 C21 1_555 1_555
H18 O4 1_555 1_555
H19 O5 1_555 1_555
H20 O6 1_555 1_555
K1B O2 1_555 1_555
K1B_2 O4 1_555 1_555
K1C C17 1_555 1_555
O2B K1 1_555 1_555
O4B K1 1_555 1_555
C17C K1 1_555 1_555
H9C C17C 1_555 1_555
C18C K1 1_555 1_555
H10C C18C 1_555 1_555
H18B O4B 1_555 1_555
C1 C13 1_555 1_555
C4 C5 1_555 1_555
C5 C6 1_555 1_555
C11 C12 1_555 1_555
C18 C19 1_555 1_555
C18 K1C 1_555 1_555
C17C C18C 1_555 1_555

#END
