
#######################################################################
#
#                 Cambridge Crystallographic Data Centre
#                                CCDC 
#
#######################################################################
#
# If this CIF has been generated from an entry in the Cambridge 
# Structural Database, then it will include bibliographic, chemical, 
# crystal, experimental, refinement or atomic coordinate data resulting 
# from the CCDC's data processing and validation procedures.
#
#######################################################################

data_OPOYIC
_symmetry_cell_setting           monoclinic
_symmetry_space_group_name_H-M   'P 21/n'
_symmetry_Int_Tables_number      14
_space_group_name_Hall           '-P 2yn'
loop_
_symmetry_equiv_pos_site_id
_symmetry_equiv_pos_as_xyz
1 x,y,z
2 1/2-x,1/2+y,1/2-z
3 -x,-y,-z
4 1/2+x,1/2-y,1/2+z
_cell_length_a                   12.4485(7)
_cell_length_b                   12.3314(6)
_cell_length_c                   17.4418(9)
_cell_angle_alpha                90
_cell_angle_beta                 94.3890(10)
_cell_angle_gamma                90
_cell_volume                     2669.59
loop_
_atom_site_label
_atom_site_type_symbol
_atom_site_fract_x
_atom_site_fract_y
_atom_site_fract_z
Cd1 Cd 0.10865(3) 0.84465(2) 0.051757(19)
C1 C 0.2821(4) 1.0945(3) -0.1259(2)
H1 H 0.2064 1.1047 -0.1262
C2 C 0.3313(4) 1.0042(3) -0.0893(2)
C3 C 0.4414(4) 0.9889(4) -0.0911(3)
H2 H 0.4737 0.9259 -0.0681
C4 C 0.5050(4) 1.0631(3) -0.1257(3)
H3 H 0.5806 1.0527 -0.1255
C5 C 0.6080(4) 1.2678(3) -0.2128(2)
H4 H 0.6647 1.2218 -0.1930
C6 C 0.6293(4) 1.3605(3) -0.2550(2)
H5 H 0.7017 1.3778 -0.2640
C7 C 0.5469(4) 1.4276(3) -0.2837(2)
C8 C 0.4408(4) 1.4044(4) -0.2704(3)
H6 H 0.3842 1.4507 -0.2899
C9 C 0.3104(4) 1.2722(4) -0.2041(3)
C10 C 0.3449(4) 1.1682(3) -0.1614(2)
C11 C 0.4561(3) 1.1531(3) -0.1607(2)
C12 C 0.5024(4) 1.2451(3) -0.2008(2)
C13 C 0.4183(4) 1.3129(3) -0.2281(3)
C14 C 0.2292(4) 1.2486(5) -0.2726(3)
H7 H 0.2608 1.1973 -0.3074
H8 H 0.2112 1.3163 -0.3001
H9 H 0.1637 1.2172 -0.2540
C15 C 0.2628(5) 1.3529(4) -0.1488(4)
H10 H 0.3155 1.3669 -0.1053
H11 H 0.1971 1.3223 -0.1299
H12 H 0.2454 1.4210 -0.1759
C16 C 0.2657(4) 0.9278(4) -0.0444(3)
C17 C 0.5734(4) 1.5217(4) -0.3339(3)
C18 C 0.0510(4) 0.6237(4) 0.1770(3)
H13 H 0.0250 0.6982 0.1698
H14 H 0.0744 0.6120 0.2313
H15 H -0.0072 0.5729 0.1614
C19 C 0.1428(3) 0.6053(3) 0.1296(3)
C20 C 0.2059(3) 0.5127(3) 0.1209(3)
C21 C 0.2840(4) 0.5455(4) 0.0736(3)
C22 C 0.3806(4) 0.4878(5) 0.0493(4)
H16 H 0.4193 0.5349 0.0155
H17 H 0.3581 0.4215 0.0216
H18 H 0.4280 0.4690 0.0948
C23 C 0.1938(4) 0.4035(4) 0.1556(3)
C24 C -0.0513(4) 0.3752(4) 0.0845(3)
H19 H -0.1154 0.3476 0.0547
H20 H -0.0376 0.4500 0.0691
H21 H -0.0630 0.3732 0.1394
C25 C 0.0430(4) 0.3066(3) 0.0698(2)
C26 C 0.1501(4) 0.3175(3) 0.1003(3)
C27 C 0.2037(4) 0.2300(4) 0.0715(3)
C28 C 0.3179(4) 0.1916(4) 0.0846(4)
H22 H 0.3276 0.1260 0.0541
H23 H 0.3338 0.1751 0.1393
H24 H 0.3667 0.2484 0.0690
N1 N 0.1800(3) 0.6877(3) 0.0891(2)
N2 N 0.2656(3) 0.6484(3) 0.0557(2)
H25 H 0.3048 0.6866 0.0256
N3 N 0.0330(3) 0.2195(3) 0.0244(2)
N4 N 0.1319(3) 0.1751(3) 0.0255(2)
H26 H 0.1475 0.1171 -0.0008
O1 O 0.1758(3) 0.9635(3) -0.02570(19)
O2 O 0.3021(3) 0.8373(3) -0.0258(2)
O3 O 0.6700(3) 1.5391(3) -0.34632(19)
O4 O 0.4983(3) 1.5780(3) -0.3645(2)
H27 H 0.266(4) 0.381(4) 0.173(3)
H28 H 0.146(4) 0.412(4) 0.196(3)
Cd1B Cd -0.10865(3) 0.15535(2) -0.051757(19)
Cd1C Cd 0.60865(3) 1.65535(2) -0.448243(19)
N3B N -0.0330(3) 0.7805(3) -0.0244(2)
O3C O 0.1700(3) 0.9609(3) 0.15368(19)
O4C O -0.0017(3) 0.9220(3) 0.1355(2)
loop_
_geom_bond_atom_site_label_1
_geom_bond_atom_site_label_2
_geom_bond_site_symmetry_1
_geom_bond_site_symmetry_2
Cd1 N1 1_555 1_555
C1 H1 1_555 1_555
C2 C1 1_555 1_555
C3 C2 1_555 1_555
H2 C3 1_555 1_555
C4 C3 1_555 1_555
H3 C4 1_555 1_555
C5 H4 1_555 1_555
C6 C5 1_555 1_555
H5 C6 1_555 1_555
C7 C6 1_555 1_555
C8 C7 1_555 1_555
H6 C8 1_555 1_555
C9 C10 1_555 1_555
C10 C1 1_555 1_555
C11 C4 1_555 1_555
C12 C5 1_555 1_555
C13 C8 1_555 1_555
C14 C9 1_555 1_555
H7 C14 1_555 1_555
H8 C14 1_555 1_555
H9 C14 1_555 1_555
C15 C9 1_555 1_555
H10 C15 1_555 1_555
H11 C15 1_555 1_555
H12 C15 1_555 1_555
C16 C2 1_555 1_555
C17 C7 1_555 1_555
C18 H13 1_555 1_555
H14 C18 1_555 1_555
H15 C18 1_555 1_555
C19 C18 1_555 1_555
C20 C19 1_555 1_555
C21 C20 1_555 1_555
C22 C21 1_555 1_555
H16 C22 1_555 1_555
H17 C22 1_555 1_555
H18 C22 1_555 1_555
C23 C20 1_555 1_555
C24 H19 1_555 1_555
H20 C24 1_555 1_555
H21 C24 1_555 1_555
C25 C24 1_555 1_555
C26 C23 1_555 1_555
C27 C26 1_555 1_555
C28 C27 1_555 1_555
H22 C28 1_555 1_555
H23 C28 1_555 1_555
H24 C28 1_555 1_555
N1 C19 1_555 1_555
N2 C21 1_555 1_555
H25 N2 1_555 1_555
N3 C25 1_555 1_555
N4 C27 1_555 1_555
H26 N4 1_555 1_555
O1 Cd1 1_555 1_555
O2 C16 1_555 1_555
O3 C17 1_555 1_555
O4 C17 1_555 1_555
H27 C23 1_555 1_555
H28 C23 1_555 1_555
Cd1B N3 1_555 1_555
Cd1C O3 1_555 1_555
N3B Cd1 1_555 1_555
O3C Cd1 1_555 1_555
O4C Cd1 1_555 1_555
C9 C13 1_555 1_555
C10 C11 1_555 1_555
C11 C12 1_555 1_555
C12 C13 1_555 1_555
C16 O1 1_555 1_555
C25 C26 1_555 1_555
N1 N2 1_555 1_555
N3 N4 1_555 1_555
O4 Cd1C 1_555 1_555

#END
