
#######################################################################
#
#                 Cambridge Crystallographic Data Centre
#                                CCDC 
#
#######################################################################
#
# If this CIF has been generated from an entry in the Cambridge 
# Structural Database, then it will include bibliographic, chemical, 
# crystal, experimental, refinement or atomic coordinate data resulting 
# from the CCDC's data processing and validation procedures.
#
#######################################################################

data_OPOYOI
_symmetry_cell_setting           monoclinic
_symmetry_space_group_name_H-M   'P 21/n'
_symmetry_Int_Tables_number      14
_space_group_name_Hall           '-P 2yn'
loop_
_symmetry_equiv_pos_site_id
_symmetry_equiv_pos_as_xyz
1 x,y,z
2 1/2-x,1/2+y,1/2-z
3 -x,-y,-z
4 1/2+x,1/2-y,1/2+z
_cell_length_a                   12.5219(7)
_cell_length_b                   12.2292(7)
_cell_length_c                   17.7853(10)
_cell_angle_alpha                90
_cell_angle_beta                 96.4210(10)
_cell_angle_gamma                90
_cell_volume                     2706.43
loop_
_atom_site_label
_atom_site_type_symbol
_atom_site_fract_x
_atom_site_fract_y
_atom_site_fract_z
Cd1 Cd 0.11001(3) 0.35216(3) 0.05144(2)
C1 C 0.2802(4) 0.5891(4) -0.1323(3)
H1 H 0.2051 0.6008 -0.1330
C2 C 0.3306(4) 0.5026(4) -0.0902(3)
C3 C 0.4409(4) 0.4852(4) -0.0908(3)
H2 H 0.4740 0.4239 -0.0650
C4 C 0.5018(4) 0.5556(4) -0.1283(3)
H3 H 0.5771 0.5447 -0.1269
C5 C 0.6044(4) 0.7543(4) -0.2168(3)
H4 H 0.6609 0.7092 -0.1941
C6 C 0.6266(4) 0.8455(4) -0.2586(3)
H5 H 0.6992 0.8622 -0.2647
C7 C 0.5460(4) 0.9128(4) -0.2916(3)
C8 C 0.4390(4) 0.8881(4) -0.2841(3)
H6 H 0.3827 0.9324 -0.3078
C9 C 0.3058(3) 0.7530(4) -0.2246(3)
C10 C 0.3403(4) 0.6564(4) -0.1724(3)
C11 C 0.4526(4) 0.6423(4) -0.1680(2)
C12 C 0.4991(4) 0.7304(4) -0.2089(2)
C13 C 0.4156(4) 0.7970(4) -0.2411(3)
C14 C 0.2435(4) 0.7134(4) -0.3003(3)
H7 H 0.2435 0.7737 -0.3374
H8 H 0.2843 0.6520 -0.3195
C15 C 0.1289(4) 0.6763(5) -0.2987(3)
H9 H 0.0992 0.6528 -0.3495
H10 H 0.0859 0.7369 -0.2822
H11 H 0.1270 0.6150 -0.2634
C16 C 0.2396(4) 0.8377(4) -0.1873(3)
H12 H 0.2200 0.8971 -0.2241
H13 H 0.1721 0.8029 -0.1755
C17 C 0.2942(5) 0.8868(5) -0.1168(3)
H14 H 0.2465 0.9404 -0.0969
H15 H 0.3604 0.9231 -0.1279
H16 H 0.3117 0.8292 -0.0792
C18 C 0.2705(5) 0.4299(4) -0.0417(3)
C19 C 0.5738(4) 1.0079(4) -0.3391(3)
C20 C 0.0523(4) 0.1264(4) 0.1683(3)
H17 H 0.0256 0.2014 0.1606
H18 H 0.0728 0.1137 0.2224
H19 H -0.0043 0.0747 0.1495
C21 C 0.1468(4) 0.1105(4) 0.1267(3)
C22 C 0.2116(3) 0.0179(4) 0.1202(3)
C23 C 0.2924(4) 0.0528(4) 0.0790(3)
C24 C 0.3924(4) -0.0026(4) 0.0615(3)
H20 H 0.4320 0.0458 0.0306
H21 H 0.3738 -0.0703 0.0336
H22 H 0.4373 -0.0198 0.1087
C25 C 0.1995(5) -0.0945(4) 0.1516(3)
C26 C -0.0466(4) -0.1191(4) 0.0760(3)
H23 H -0.1110 -0.1466 0.0455
H24 H -0.0327 -0.0437 0.0610
H25 H -0.0577 -0.1208 0.1296
C27 C 0.0471(4) -0.1892(4) 0.0634(3)
C28 C 0.1550(4) -0.1787(4) 0.0955(3)
C29 C 0.2071(4) -0.2668(4) 0.0670(3)
C30 C 0.3204(4) -0.3065(4) 0.0829(4)
H26 H 0.3299 -0.3721 0.0527
H27 H 0.3358 -0.3240 0.1368
H28 H 0.3698 -0.2493 0.0695
N1 N 0.1846(3) 0.1952(3) 0.0899(2)
N2 N 0.2730(3) 0.1569(3) 0.0613(2)
H29 H 0.3131 0.1965 0.0342
N3 N 0.0357(3) -0.2766(3) 0.0179(2)
N4 N 0.1346(3) -0.3216(3) 0.0208(2)
H30 H 0.1495 -0.3802 -0.0048
O1 O 0.1790(3) 0.4642(3) -0.0270(2)
O2 O 0.3094(3) 0.3425(3) -0.0178(2)
O3 O 0.6700(3) 1.0245(3) -0.3483(2)
O4 O 0.4998(3) 1.0650(3) -0.3717(2)
H31 H 0.156(4) -0.093(4) 0.188(3)
H32 H 0.278(4) -0.114(4) 0.172(3)
Cd1B Cd -0.11001(3) -0.35216(3) -0.05144(2)
Cd1C Cd 0.61001(3) 1.14784(3) -0.44856(2)
N3B N -0.0357(3) 0.2766(3) -0.0179(2)
O3C O 0.1700(3) 0.4755(3) 0.1517(2)
O4C O -0.0002(3) 0.4350(3) 0.1283(2)
loop_
_geom_bond_atom_site_label_1
_geom_bond_atom_site_label_2
_geom_bond_site_symmetry_1
_geom_bond_site_symmetry_2
Cd1 N1 1_555 1_555
C1 H1 1_555 1_555
C2 C1 1_555 1_555
C3 C2 1_555 1_555
H2 C3 1_555 1_555
C4 C3 1_555 1_555
H3 C4 1_555 1_555
C5 H4 1_555 1_555
C6 C5 1_555 1_555
H5 C6 1_555 1_555
C7 C6 1_555 1_555
C8 C7 1_555 1_555
H6 C8 1_555 1_555
C9 C10 1_555 1_555
C10 C1 1_555 1_555
C11 C4 1_555 1_555
C12 C5 1_555 1_555
C13 C8 1_555 1_555
C14 C9 1_555 1_555
H7 C14 1_555 1_555
H8 C14 1_555 1_555
C15 C14 1_555 1_555
H9 C15 1_555 1_555
H10 C15 1_555 1_555
H11 C15 1_555 1_555
C16 C9 1_555 1_555
H12 C16 1_555 1_555
H13 C16 1_555 1_555
C17 C16 1_555 1_555
H14 C17 1_555 1_555
H15 C17 1_555 1_555
H16 C17 1_555 1_555
C18 C2 1_555 1_555
C19 C7 1_555 1_555
C20 H17 1_555 1_555
H18 C20 1_555 1_555
H19 C20 1_555 1_555
C21 C20 1_555 1_555
C22 C21 1_555 1_555
C23 C22 1_555 1_555
C24 C23 1_555 1_555
H20 C24 1_555 1_555
H21 C24 1_555 1_555
H22 C24 1_555 1_555
C25 C22 1_555 1_555
C26 H23 1_555 1_555
H24 C26 1_555 1_555
H25 C26 1_555 1_555
C27 C26 1_555 1_555
C28 C25 1_555 1_555
C29 C28 1_555 1_555
C30 C29 1_555 1_555
H26 C30 1_555 1_555
H27 C30 1_555 1_555
H28 C30 1_555 1_555
N1 C21 1_555 1_555
N2 C23 1_555 1_555
H29 N2 1_555 1_555
N3 C27 1_555 1_555
N4 C29 1_555 1_555
H30 N4 1_555 1_555
O1 Cd1 1_555 1_555
O2 C18 1_555 1_555
O3 C19 1_555 1_555
O4 C19 1_555 1_555
H31 C25 1_555 1_555
H32 C25 1_555 1_555
Cd1B N3 1_555 1_555
Cd1C O3 1_555 1_555
N3B Cd1 1_555 1_555
O3C Cd1 1_555 1_555
O4C Cd1 1_555 1_555
C9 C13 1_555 1_555
C10 C11 1_555 1_555
C11 C12 1_555 1_555
C12 C13 1_555 1_555
C18 O1 1_555 1_555
C27 C28 1_555 1_555
N1 N2 1_555 1_555
N3 N4 1_555 1_555
O4 Cd1C 1_555 1_555

#END
