
#######################################################################
#
#                 Cambridge Crystallographic Data Centre
#                                CCDC 
#
#######################################################################
#
# If this CIF has been generated from an entry in the Cambridge 
# Structural Database, then it will include bibliographic, chemical, 
# crystal, experimental, refinement or atomic coordinate data resulting 
# from the CCDC's data processing and validation procedures.
#
#######################################################################

data_OPOZAV
_symmetry_cell_setting           monoclinic
_symmetry_space_group_name_H-M   'C 2/m'
_symmetry_Int_Tables_number      12
_space_group_name_Hall           '-C 2y'
loop_
_symmetry_equiv_pos_site_id
_symmetry_equiv_pos_as_xyz
1 x,y,z
2 -x,y,-z
3 1/2+x,1/2+y,z
4 1/2-x,1/2+y,-z
5 -x,-y,-z
6 x,-y,z
7 1/2-x,1/2-y,-z
8 1/2+x,1/2-y,z
_cell_length_a                   15.3836(7)
_cell_length_b                   21.5307(10)
_cell_length_c                   15.7987(7)
_cell_angle_alpha                90
_cell_angle_beta                 96.4010(10)
_cell_angle_gamma                90
_cell_volume                     5200.22
loop_
_atom_site_label
_atom_site_type_symbol
_atom_site_fract_x
_atom_site_fract_y
_atom_site_fract_z
C32 C 0.5538(15) -0.1042(10) 0.4553(14)
C33 C 0.5000 -0.2068(15) 0.5000
N5 N 0.5000 -0.1341(12) 0.5000
O5 O 0.5960(19) -0.0580(14) 0.4535(19)
C32A C 0.4462(15) -0.1042(10) 0.5447(14)
O5A O 0.4040(19) -0.0580(14) 0.5465(19)
Zn1 Zn 0.94966(4) 0.0000 0.57430(4)
Zn2 Zn 0.07497(4) 0.0000 0.95126(4)
C1 C 1.1416(4) 0.1610(2) 0.6990(3)
H1 H 1.1001 0.1443 0.7331
C2 C 1.1476(3) 0.1376(2) 0.6180(3)
C3 C 1.2083(4) 0.1619(3) 0.5692(3)
H2 H 1.2122 0.1457 0.5138
C4 C 1.2634(4) 0.2093(3) 0.5996(3)
H3 H 1.3048 0.2260 0.5654
C5 C 1.3764(3) 0.3171(2) 0.7071(3)
H4 H 1.3974 0.3127 0.6530
C6 C 1.4138(3) 0.3594(2) 0.7654(3)
H5 H 1.4618 0.3839 0.7519
C7 C 1.3821(3) 0.36661(19) 0.8438(3)
C8 C 1.3115(3) 0.3314(2) 0.8641(3)
H6 H 1.2884 0.3372 0.9169
C9 C 1.2028(4) 0.2416(3) 0.8153(3)
C10 C 1.1964(4) 0.2090(2) 0.7299(3)
C11 C 1.2577(3) 0.2324(2) 0.6807(3)
C12 C 1.3077(3) 0.2810(2) 0.7284(3)
C13 C 1.2753(3) 0.2879(2) 0.8065(3)
C14 C 1.0894(3) 0.0855(2) 0.5830(3)
C15 C 1.4230(3) 0.41502(18) 0.9042(3)
C16 C 0.8497(4) 0.0000 0.7259(4)
H7 H 0.9060 0.0000 0.7574
C17 C 0.7770(4) 0.0000 0.7696(4)
H8 H 0.7833 0.0000 0.8302
C18 C 0.6956(4) 0.0000 0.7248(4)
C19 C 0.6890(5) 0.0000 0.6355(5)
H9 H 0.6335 0.0000 0.6023
C20 C 0.7646(4) 0.0000 0.5977(4)
H10 H 0.7605 0.0000 0.5373
C21 C 0.6164(5) 0.0000 0.7707(5)
H11 H 0.6223 0.0000 0.8312
C22 C 0.4000(5) 0.0000 0.7442(5)
H12 H 0.3932 0.0000 0.6837
C23 C 0.3223(4) 0.0000 0.7909(4)
C24 C 0.3318(4) 0.0000 0.8795(5)
H13 H 0.3882 0.0000 0.9108
C25 C 0.2575(4) 0.0000 0.9213(4)
H14 H 0.2640 0.0000 0.9818
C26 C 0.1690(4) 0.0000 0.7959(4)
H15 H 0.1118 0.0000 0.7662
C27 C 0.2399(5) 0.0000 0.7488(5)
H16 H 0.2312 0.0000 0.6883
N1 N 0.8443(3) 0.0000 0.6414(3)
N2 N 0.5408(4) 0.0000 0.7288(4)
N3 N 0.4751(4) 0.0000 0.7842(4)
N4 N 0.1772(3) 0.0000 0.8800(3)
O1 O 1.0329(2) 0.06569(14) 0.62809(19)
O2 O 1.1011(2) 0.06562(16) 0.5107(2)
O3 O 1.4968(2) 0.43515(15) 0.8898(2)
O4 O 1.3806(2) 0.43332(14) 0.9629(2)
C28 C 1.0837(8) 0.3230(5) 0.7479(7)
H17 H 1.0284 0.3430 0.7575
H18 H 1.0759 0.2997 0.6944
H19 H 1.1289 0.3548 0.7448
C29 C 1.1120(8) 0.2783(6) 0.8222(8)
H20 H 1.0649 0.2473 0.8256
H21 H 1.1177 0.3023 0.8759
C30 C 1.2882(9) 0.1700(6) 0.8956(8)
H22 H 1.2938 0.1432 0.9460
H23 H 1.3364 0.2001 0.9001
H24 H 1.2903 0.1446 0.8444
C31 C 1.2033(8) 0.2039(6) 0.8900(7)
H25 H 1.1536 0.1744 0.8843
H26 H 1.1998 0.2299 0.9411
Zn1A Zn 1.05034(4) 0.0000 0.42570(4)
Zn2B Zn 1.57497(4) 0.5000 0.95126(4)
Zn2C Zn 1.42503(4) 0.5000 1.04874(4)
Zn2C_2 Zn 0.42503(4) 0.5000 0.04874(4)
Zn2B_2 Zn 0.57497(4) 0.5000 -0.04874(4)
C1A C 0.8584(4) 0.1610(2) 0.3010(3)
H1A H 0.8999 0.1443 0.2669
C2A C 0.8524(3) 0.1376(2) 0.3820(3)
C3A C 0.7917(4) 0.1619(3) 0.4308(3)
H2A H 0.7878 0.1457 0.4862
C4A C 0.7366(4) 0.2093(3) 0.4004(3)
H3A H 0.6952 0.2260 0.4346
C5A C 0.6236(3) 0.3171(2) 0.2929(3)
H4A H 0.6026 0.3127 0.3470
C6A C 0.5862(3) 0.3594(2) 0.2346(3)
H5A H 0.5382 0.3839 0.2481
C7A C 0.6179(3) 0.36661(19) 0.1562(3)
C8A C 0.6885(3) 0.3314(2) 0.1359(3)
H6A H 0.7116 0.3372 0.0831
C9A C 0.7972(4) 0.2416(3) 0.1847(3)
C10A C 0.8036(4) 0.2090(2) 0.2701(3)
C11A C 0.7423(3) 0.2324(2) 0.3193(3)
C12A C 0.6923(3) 0.2810(2) 0.2716(3)
C13A C 0.7247(3) 0.2879(2) 0.1935(3)
C14A C 0.9106(3) 0.0855(2) 0.4170(3)
C15A C 0.5770(3) 0.41502(18) 0.0958(3)
O1A O 0.9671(2) 0.06569(14) 0.37191(19)
O1E O 1.0329(2) -0.06569(14) 0.62809(19)
O2A O 0.8989(2) 0.06562(16) 0.4893(2)
O2D O 0.8989(2) -0.06562(16) 0.4893(2)
O3A O 0.5032(2) 0.43515(15) 0.1102(2)
O3G O -0.0032(2) 0.06485(15) 0.8898(2)
O3B O -0.0032(2) -0.06485(15) 0.8898(2)
O4A O 0.6194(2) 0.43332(14) 0.0371(2)
O4F O 0.1194(2) 0.06668(14) 1.0371(2)
O4C O 0.1194(2) -0.06668(14) 1.0371(2)
C28A C 0.9163(8) 0.3230(5) 0.2521(7)
H17A H 0.9716 0.3430 0.2425
H18A H 0.9241 0.2997 0.3056
H19A H 0.8711 0.3548 0.2552
C29A C 0.8880(8) 0.2783(6) 0.1778(8)
H20A H 0.9351 0.2473 0.1744
H21A H 0.8823 0.3023 0.1241
C30A C 0.7118(9) 0.1700(6) 0.1044(8)
H22A H 0.7062 0.1432 0.0540
H23A H 0.6636 0.2001 0.0999
H24A H 0.7097 0.1446 0.1556
C31A C 0.7967(8) 0.2039(6) 0.1100(7)
H25A H 0.8464 0.1744 0.1157
H26A H 0.8002 0.2299 0.0589
C34? C 1.0878(14) 0.2996(8) 0.7947(12)
C35? C 1.1303(11) 0.2532(8) 0.8591(11)
C36? C 1.3385(11) 0.1643(8) 0.8760(11)
C37? C 1.2452(11) 0.1910(8) 0.8869(11)
H27? H 1.0328 0.3144 0.8135
H28? H 1.0758 0.2795 0.7390
H29? H 1.1273 0.3349 0.7902
H30? H 1.1466 0.2718 0.9159
H31? H 1.0939 0.2157 0.8642
H32? H 1.3561 0.1349 0.9222
H33? H 1.3808 0.1984 0.8779
H34? H 1.3368 0.1429 0.8211
H35? H 1.2480 0.2109 0.9436
H36? H 1.2042 0.1555 0.8871
loop_
_geom_bond_atom_site_label_1
_geom_bond_atom_site_label_2
_geom_bond_site_symmetry_1
_geom_bond_site_symmetry_2
Zn1 N1 1_555 1_555
Zn2 N4 1_555 1_555
C1 H1 1_555 1_555
C2 C1 1_555 1_555
C3 C2 1_555 1_555
H2 C3 1_555 1_555
C4 C3 1_555 1_555
H3 C4 1_555 1_555
C5 H4 1_555 1_555
C6 C5 1_555 1_555
H5 C6 1_555 1_555
C7 C6 1_555 1_555
C8 C7 1_555 1_555
H6 C8 1_555 1_555
C9 C10 1_555 1_555
C10 C1 1_555 1_555
C11 C4 1_555 1_555
C12 C5 1_555 1_555
C13 C8 1_555 1_555
C14 C2 1_555 1_555
C15 C7 1_555 1_555
C16 H7 1_555 1_555
C17 C16 1_555 1_555
H8 C17 1_555 1_555
C18 C17 1_555 1_555
C19 C18 1_555 1_555
H9 C19 1_555 1_555
C20 C19 1_555 1_555
H10 C20 1_555 1_555
C21 C18 1_555 1_555
H11 C21 1_555 1_555
C22 H12 1_555 1_555
C23 C22 1_555 1_555
C24 C23 1_555 1_555
H13 C24 1_555 1_555
C25 C24 1_555 1_555
H14 C25 1_555 1_555
C26 H15 1_555 1_555
C27 C23 1_555 1_555
H16 C27 1_555 1_555
N1 C16 1_555 1_555
N2 C21 1_555 1_555
N3 C22 1_555 1_555
N4 C25 1_555 1_555
O1 Zn1 1_555 1_555
O2 C14 1_555 1_555
O3 C15 1_555 1_555
O4 C15 1_555 1_555
C28 H17 1_555 1_555
H18 C28 1_555 1_555
H19 C28 1_555 1_555
C29 C9 1_555 1_555
H20 C29 1_555 1_555
H21 C29 1_555 1_555
C30 H22 1_555 1_555
H23 C30 1_555 1_555
H24 C30 1_555 1_555
C31 C9 1_555 1_555
H25 C31 1_555 1_555
H26 C31 1_555 1_555
C32 N5 1_555 1_555
C33 N5 1_555 1_555
N5 C32A 1_555 1_555
O5 C32 1_555 1_555
Zn1A O2 1_555 1_555
Zn2B O3 1_555 1_555
Zn2C O4 1_555 1_555
Zn2C_2 O3A 1_555 1_555
Zn2B_2 O4A 1_555 1_555
C1A H1A 1_555 1_555
C2A C1A 1_555 1_555
C3A C2A 1_555 1_555
H2A C3A 1_555 1_555
C4A C3A 1_555 1_555
H3A C4A 1_555 1_555
C5A H4A 1_555 1_555
C6A C5A 1_555 1_555
H5A C6A 1_555 1_555
C7A C6A 1_555 1_555
C8A C7A 1_555 1_555
H6A C8A 1_555 1_555
C9A C10A 1_555 1_555
C10A C1A 1_555 1_555
C11A C4A 1_555 1_555
C12A C5A 1_555 1_555
C13A C8A 1_555 1_555
C14A C2A 1_555 1_555
C15A C7A 1_555 1_555
O1A Zn1A 1_555 1_555
O1E Zn1 1_555 1_555
O2A Zn1 1_555 1_555
O2D Zn1 1_555 1_555
O3A C15A 1_555 1_555
O3G Zn2 1_555 1_555
O3B Zn2 1_555 1_555
O4A C15A 1_555 1_555
O4F Zn2 1_555 1_555
O4C Zn2 1_555 1_555
C28A H17A 1_555 1_555
H18A C28A 1_555 1_555
H19A C28A 1_555 1_555
C29A C9A 1_555 1_555
H20A C29A 1_555 1_555
H21A C29A 1_555 1_555
C30A H22A 1_555 1_555
H23A C30A 1_555 1_555
H24A C30A 1_555 1_555
C31A C9A 1_555 1_555
H25A C31A 1_555 1_555
H26A C31A 1_555 1_555
C32A O5A 1_555 1_555
C9 C13 1_555 1_555
C10 C11 1_555 1_555
C11 C12 1_555 1_555
C12 C13 1_555 1_555
C14 O1 1_555 1_555
C20 N1 1_555 1_555
C26 C27 1_555 1_555
C26 N4 1_555 1_555
N2 N3 1_555 1_555
C28 C29 1_555 1_555
C30 C31 1_555 1_555
C9A C13A 1_555 1_555
C10A C11A 1_555 1_555
C11A C12A 1_555 1_555
C12A C13A 1_555 1_555
C14A O1A 1_555 1_555
C14A O2A 1_555 1_555
C28A C29A 1_555 1_555
C30A C31A 1_555 1_555

#END
