
#######################################################################
#
#                 Cambridge Crystallographic Data Centre
#                                CCDC 
#
#######################################################################
#
# If this CIF has been generated from an entry in the Cambridge 
# Structural Database, then it will include bibliographic, chemical, 
# crystal, experimental, refinement or atomic coordinate data resulting 
# from the CCDC's data processing and validation procedures.
#
#######################################################################

data_OPUCAE
_symmetry_cell_setting           monoclinic
_symmetry_space_group_name_H-M   'P 21/n'
_symmetry_Int_Tables_number      14
_space_group_name_Hall           '-P 2yn'
loop_
_symmetry_equiv_pos_site_id
_symmetry_equiv_pos_as_xyz
1 x,y,z
2 1/2-x,1/2+y,1/2-z
3 -x,-y,-z
4 1/2+x,1/2-y,1/2+z
_cell_length_a                   10.605(2)
_cell_length_b                   11.852(3)
_cell_length_c                   12.113(3)
_cell_angle_alpha                90
_cell_angle_beta                 105.020(4)
_cell_angle_gamma                90
_cell_volume                     1470.47
loop_
_atom_site_label
_atom_site_type_symbol
_atom_site_fract_x
_atom_site_fract_y
_atom_site_fract_z
O1 O -0.1457(7) 0.6523(6) -0.4120(8)
H1 H -0.1732 0.5996 -0.4597
H2 H -0.1275 0.6388 -0.3407
O2 O -0.2047(6) 0.3759(5) -1.0339(5)
O3 O -0.1256(6) 0.6775(5) -0.7632(5)
C1 C -0.0977(9) 0.7356(8) -0.6718(8)
O4 O -0.1763(6) 0.7965(6) -0.6413(5)
O5 O 0.3127(6) 0.5469(5) -0.5546(5)
C2 C 0.2504(9) 0.6301(8) -0.5302(8)
Cu1 Cu 0.5000 0.5000 -0.5000
Cu2 Cu -0.29180(10) 0.69197(9) -0.87975(9)
Cu3 Cu -0.11741(11) 0.83841(11) -0.47864(10)
O6 O 0.3002(6) 0.6996(6) -0.4533(6)
O7 O 0.0481(6) 0.7892(6) -0.4929(5)
O8 O -0.2579(6) 0.5300(6) -0.9597(6)
N1 N 0.3963(7) 0.3776(6) -0.2173(6)
O9 O 0.4252(6) 0.3184(5) -0.5997(7)
H3 H 0.4021 0.2641 -0.5635
H4 H 0.4227 0.3111 -0.6700
C3 C 0.5733(9) 0.4407(9) -0.2548(8)
H5 H 0.6601 0.4604 -0.2465
C4 C 0.3699(9) 0.4125(8) -0.3222(8)
H6 H 0.2867 0.4111 -0.3719
N2 N 0.4789(7) 0.4518(6) -0.3520(6)
N3 N 0.5267(7) 0.3976(7) -0.1716(6)
C5 C -0.1791(9) 0.4742(9) -0.9938(8)
C6 C -0.0429(10) 0.5234(9) -0.9863(9)
H9 H -0.0265 0.5963 -0.9577
C7 C 0.0390(10) 0.7344(11) -0.5947(10)
H10 H 0.0830 0.7880 -0.6338
C8 C 0.1135(14) 0.6371(12) -0.5942(12)
H11 H 0.0683 0.5761 -0.5672
H12 H 0.1102 0.6204 -0.6733
O1B O 1.1457(7) 0.3477(6) -0.5880(8)
H1B H 1.1732 0.4004 -0.5403
H2B H 1.1275 0.3612 -0.6593
O2B O 0.2047(6) 0.6241(5) -0.9661(5)
O2A O -0.2953(6) 0.8759(5) -0.4661(5)
O2C O 1.2953(6) 0.1241(5) -0.5339(5)
O3B O 1.1256(6) 0.3225(5) -0.2368(5)
C1B C 1.0977(9) 0.2644(8) -0.3282(8)
O4B O 1.1763(6) 0.2035(6) -0.3587(5)
O5B O 0.6873(6) 0.4531(5) -0.4454(5)
C2B C 0.7496(9) 0.3699(8) -0.4698(8)
Cu2B Cu 1.29180(10) 0.30803(9) -0.12025(9)
Cu2C Cu 0.20820(10) 0.80803(9) -0.37975(9)
Cu2B_2 Cu 0.29180(10) 0.30803(9) -0.12025(9)
Cu2B_3 Cu 0.29180(10) 0.30803(9) -1.12025(9)
Cu2_2 Cu 0.70820(10) 0.69197(9) -0.87975(9)
Cu2A Cu 0.79180(10) 0.19197(9) -0.62025(9)
Cu3B Cu 1.11741(11) 0.16159(11) -0.52136(10)
Cu3A Cu -0.38259(11) 0.33841(11) -1.02136(10)
Cu3A_2 Cu 0.61741(11) 0.33841(11) -0.02136(10)
Cu3C Cu 0.38259(11) 0.66159(11) -0.97864(10)
O6B O 0.6998(6) 0.3004(6) -0.5467(6)
O6C O -0.1998(6) 0.8004(6) -0.9533(6)
O6A O 1.1998(6) 0.1996(6) -0.0467(6)
O7B O 0.9519(6) 0.2108(6) -0.5071(5)
O7C O -0.4519(6) 0.7108(6) -0.9929(5)
O7A O 1.4519(6) 0.2892(6) -0.0071(5)
O8B O 0.2579(6) 0.4700(6) -1.0403(6)
O8B_2 O 1.2579(6) 0.4700(6) -0.0403(6)
N1B N 0.6037(7) 0.6224(6) -0.7827(6)
N1B_2 N -0.3963(7) 0.6224(6) -0.7827(6)
N1_2 N 1.3963(7) 0.3776(6) -0.2173(6)
O9B O 0.5748(6) 0.6816(5) -0.4003(7)
H3B H 0.5979 0.7359 -0.4365
H4B H 0.5773 0.6889 -0.3300
C3B C 0.4267(9) 0.5593(9) -0.7452(8)
H5B H 0.3399 0.5396 -0.7535
C4B C 0.6301(9) 0.5875(8) -0.6778(8)
H6B H 0.7133 0.5889 -0.6281
N2B N 0.5211(7) 0.5482(6) -0.6480(6)
N3B N 0.4733(7) 0.6024(7) -0.8284(6)
N3A N -0.0267(7) 0.8976(7) -0.3284(6)
N3C N 1.0267(7) 0.1024(7) -0.6716(6)
C5B C 0.1791(9) 0.5258(9) -1.0062(8)
C6B C 0.0429(10) 0.4766(9) -1.0137(9)
H9B H 0.0265 0.4037 -1.0423
C7B C 0.9610(10) 0.2656(11) -0.4053(10)
H10B H 0.9170 0.2120 -0.3662
C8B C 0.8865(14) 0.3629(12) -0.4058(12)
H11B H 0.9317 0.4239 -0.4328
H12B H 0.8898 0.3796 -0.3267
O10 O 0.1072(8) 0.5787(7) 0.7152(7)
H7 H 0.0413 0.6182 0.6823
H8 H 0.1128 0.5512 0.7811
loop_
_geom_bond_atom_site_label_1
_geom_bond_atom_site_label_2
_geom_bond_site_symmetry_1
_geom_bond_site_symmetry_2
O1 H1 1_555 1_555
H2 O1 1_555 1_555
O2 C5 1_555 1_555
O3 C1 1_555 1_555
C1 O4 1_555 1_555
O4 Cu3 1_555 1_555
O5 C2 1_555 1_555
C2 O6 1_555 1_555
Cu1 O5 1_555 1_555
Cu2 O3 1_555 1_555
Cu3 O1 1_555 1_555
O6 Cu2C 1_555 1_555
O7 Cu3 1_555 1_555
O8 Cu2 1_555 1_555
N1 C4 1_555 1_555
O9 Cu1 1_555 1_555
H3 O9 1_555 1_555
H4 O9 1_555 1_555
C3 H5 1_555 1_555
C4 H6 1_555 1_555
N2 Cu1 1_555 1_555
N3 N1 1_555 1_555
O10 H7 1_555 1_555
H8 O10 1_555 1_555
C5 O8 1_555 1_555
C6 C5 1_555 1_555
H9 C6 1_555 1_555
C7 C1 1_555 1_555
H10 C7 1_555 1_555
C8 C2 1_555 1_555
H11 C8 1_555 1_555
H12 C8 1_555 1_555
O1B H1B 1_555 1_555
H2B O1B 1_555 1_555
O2B Cu3C 1_555 1_555
O2A Cu3 1_555 1_555
O2C Cu3B 1_555 1_555
O3B C1B 1_555 1_555
C1B O4B 1_555 1_555
O4B Cu3B 1_555 1_555
O5B Cu1 1_555 1_555
C2B O5B 1_555 1_555
Cu2B O3B 1_555 1_555
Cu2C O7 1_555 1_555
Cu2B_2 N1 1_555 1_555
Cu2B_3 O8B 1_555 1_555
Cu2_2 N1B 1_555 1_555
Cu2A O6B 1_555 1_555
Cu3B O1B 1_555 1_555
Cu3A O2 1_555 1_555
Cu3A_2 N3 1_555 1_555
Cu3C N3B 1_555 1_555
O6B C2B 1_555 1_555
O6C Cu2 1_555 1_555
O6A Cu2B 1_555 1_555
O7B Cu2A 1_555 1_555
O7C Cu2 1_555 1_555
O7A Cu2B 1_555 1_555
O8B C5B 1_555 1_555
O8B_2 Cu2B 1_555 1_555
N1B C4B 1_555 1_555
N1B_2 Cu2 1_555 1_555
N1_2 Cu2B 1_555 1_555
O9B Cu1 1_555 1_555
H3B O9B 1_555 1_555
H4B O9B 1_555 1_555
C3B H5B 1_555 1_555
C4B H6B 1_555 1_555
N2B Cu1 1_555 1_555
N3B N1B 1_555 1_555
N3A Cu3 1_555 1_555
N3C Cu3B 1_555 1_555
C5B O2B 1_555 1_555
C6B C6 1_555 1_555
H9B C6B 1_555 1_555
C7B C1B 1_555 1_555
H10B C7B 1_555 1_555
C8B C2B 1_555 1_555
H11B C8B 1_555 1_555
H12B C8B 1_555 1_555
O7 C7 1_555 1_555
C3 N2 1_555 1_555
C3 N3 1_555 1_555
C4 N2 1_555 1_555
C7 C8 1_555 1_555
Cu3B O7B 1_555 1_555
O7B C7B 1_555 1_555
C3B N2B 1_555 1_555
C3B N3B 1_555 1_555
C4B N2B 1_555 1_555
C5B C6B 1_555 1_555
C7B C8B 1_555 1_555

#END
