
#######################################################################
#
#                 Cambridge Crystallographic Data Centre
#                                CCDC 
#
#######################################################################
#
# If this CIF has been generated from an entry in the Cambridge 
# Structural Database, then it will include bibliographic, chemical, 
# crystal, experimental, refinement or atomic coordinate data resulting 
# from the CCDC's data processing and validation procedures.
#
#######################################################################

data_OPUDEJ
_symmetry_cell_setting           triclinic
_symmetry_space_group_name_H-M   'P -1'
_symmetry_Int_Tables_number      2
_space_group_name_Hall           '-P 1'
loop_
_symmetry_equiv_pos_site_id
_symmetry_equiv_pos_as_xyz
1 x,y,z
2 -x,-y,-z
_cell_length_a                   5.2697(15)
_cell_length_b                   11.333(4)
_cell_length_c                   14.035(5)
_cell_angle_alpha                92.279(10)
_cell_angle_beta                 100.779(7)
_cell_angle_gamma                96.214(8)
_cell_volume                     817.018
loop_
_atom_site_label
_atom_site_type_symbol
_atom_site_fract_x
_atom_site_fract_y
_atom_site_fract_z
Zn1 Zn 0.55279(8) 0.33530(3) 0.31629(3)
Zn2 Zn 0.70511(7) 0.04870(3) 0.37523(3)
Zn3 Zn 0.0000 0.0000 0.0000
P1 P 0.30456(16) 0.15539(7) 0.46889(5)
P2 P 0.56311(16) 0.00207(7) 0.14327(5)
O1 O 0.5299(4) 0.18456(19) 0.41375(16)
O2 O 0.0738(5) 0.0888(2) 0.40108(17)
O3 O 0.3962(5) 0.0951(2) 0.56080(17)
O4 O 0.0115(6) 0.2723(3) 0.5644(2)
H1 H -0.1245 0.2479 0.5268
O5 O 0.2873(5) 0.4155(2) 0.37822(19)
O6 O -0.1120(5) 0.3912(2) 0.41165(18)
O7 O 0.5463(5) -0.0250(2) 0.24880(15)
O8 O 0.3285(4) -0.05841(19) 0.07337(15)
O9 O 0.8226(4) -0.0277(2) 0.12246(15)
O10 O 0.7354(5) 0.2202(2) 0.22825(17)
H2 H 0.888(9) 0.230(4) 0.224(3)
O11 O 0.2467(4) 0.2524(2) 0.21473(16)
O12 O 0.1270(5) 0.1771(2) 0.06270(16)
N1 N 0.6027(6) 0.4829(2) 0.2263(2)
N2 N 1.0790(6) 0.8514(3) 0.2690(2)
H3 H 1.2303 0.8976 0.2836
H4 H 1.0220 0.8350 0.3234
H5 H 0.9634 0.8889 0.2308
C1 C 0.2164(7) 0.2988(3) 0.5098(2)
H6 H 0.3678 0.3429 0.5529
C2 C 0.1241(7) 0.3740(3) 0.4262(2)
C3 C 0.5648(6) 0.1653(3) 0.1417(2)
H7 H 0.6292 0.1931 0.0844
C4 C 0.2936(6) 0.2005(3) 0.1388(2)
C5 C 0.4212(8) 0.5018(3) 0.1493(3)
H8 H 0.2685 0.4496 0.1351
C6 C 0.4500(9) 0.5946(3) 0.0903(3)
H9 H 0.3198 0.6043 0.0375
C7 C 0.6759(9) 0.6732(3) 0.1110(3)
H10 H 0.7010 0.7361 0.0719
C8 C 0.8639(8) 0.6564(3) 0.1910(3)
C9 C 0.8203(7) 0.5598(3) 0.2462(3)
H11 H 0.9477 0.5480 0.2994
C10 C 1.1145(8) 0.7397(3) 0.2181(3)
H12 H 1.2433 0.7000 0.2596
H13 H 1.1801 0.7581 0.1596
Zn1A Zn -0.55279(8) -0.33530(3) -0.31629(3)
Zn1_2 Zn -0.44721(8) 0.33530(3) 0.31629(3)
Zn1A_2 Zn 0.44721(8) -0.33530(3) -0.31629(3)
Zn2A Zn -0.70511(7) -0.04870(3) -0.37523(3)
Zn2_2 Zn -0.29489(7) 0.04870(3) -0.62477(3)
Zn2_3 Zn -0.29489(7) 0.04870(3) 0.37523(3)
Zn2A_2 Zn 0.29489(7) -0.04870(3) -0.37523(3)
Zn2A_3 Zn 0.29489(7) -0.04870(3) 0.62477(3)
Zn3_2 Zn -1.0000 0.0000 0.0000
Zn3_3 Zn 1.0000 0.0000 0.0000
P1A P -0.30456(16) -0.15539(7) -0.46889(5)
P2A P -0.56311(16) -0.00207(7) -0.14327(5)
O1A O -0.5299(4) -0.18456(19) -0.41375(16)
O2A O -0.0738(5) -0.0888(2) -0.40108(17)
O2_2 O 1.0738(5) 0.0888(2) 0.40108(17)
O2A_2 O -1.0738(5) -0.0888(2) -0.40108(17)
O3A O -0.3962(5) -0.0951(2) -0.56080(17)
O3_2 O -0.6038(5) 0.0951(2) -0.43920(17)
O3A_2 O 0.6038(5) -0.0951(2) 0.43920(17)
O4A O -0.0115(6) -0.2723(3) -0.5644(2)
H1A H 0.1245 -0.2479 -0.5268
O5A O -0.2873(5) -0.4155(2) -0.37822(19)
O6A O 0.1120(5) -0.3912(2) -0.41165(18)
O6_2 O 0.8880(5) 0.3912(2) 0.41165(18)
O6A_2 O -0.8880(5) -0.3912(2) -0.41165(18)
O7A O -0.5463(5) 0.0250(2) -0.24880(15)
O8A O -0.3285(4) 0.05841(19) -0.07337(15)
O9A O -0.8226(4) 0.0277(2) -0.12246(15)
O9_2 O -0.1774(4) -0.0277(2) 0.12246(15)
O9A_2 O 0.1774(4) 0.0277(2) -0.12246(15)
O10A O -0.7354(5) -0.2202(2) -0.22825(17)
H2A H -0.888(9) -0.230(4) -0.224(3)
O11A O -0.2467(4) -0.2524(2) -0.21473(16)
O12A O -0.1270(5) -0.1771(2) -0.06270(16)
N1A N -0.6027(6) -0.4829(2) -0.2263(2)
N2A N -1.0790(6) -0.8514(3) -0.2690(2)
H3A H -1.2303 -0.8976 -0.2836
H4A H -1.0220 -0.8350 -0.3234
H5A H -0.9634 -0.8889 -0.2308
C1A C -0.2164(7) -0.2988(3) -0.5098(2)
H6A H -0.3678 -0.3429 -0.5529
C2A C -0.1241(7) -0.3740(3) -0.4262(2)
C3A C -0.5648(6) -0.1653(3) -0.1417(2)
H7A H -0.6292 -0.1931 -0.0844
C4A C -0.2936(6) -0.2005(3) -0.1388(2)
C5A C -0.4212(8) -0.5018(3) -0.1493(3)
H8A H -0.2685 -0.4496 -0.1351
C6A C -0.4500(9) -0.5946(3) -0.0903(3)
H9A H -0.3198 -0.6043 -0.0375
C7A C -0.6759(9) -0.6732(3) -0.1110(3)
H10A H -0.7010 -0.7361 -0.0719
C8A C -0.8639(8) -0.6564(3) -0.1910(3)
C9A C -0.8203(7) -0.5598(3) -0.2462(3)
H11A H -0.9477 -0.5480 -0.2994
C10A C -1.1145(8) -0.7397(3) -0.2181(3)
H12A H -1.2433 -0.7000 -0.2596
H13A H -1.1801 -0.7581 -0.1596
loop_
_geom_bond_atom_site_label_1
_geom_bond_atom_site_label_2
_geom_bond_site_symmetry_1
_geom_bond_site_symmetry_2
Zn1 O1 1_555 1_555
Zn2 O1 1_555 1_555
Zn3 O8 1_555 1_555
P1 O1 1_555 1_555
P2 O7 1_555 1_555
O2 P1 1_555 1_555
O3 P1 1_555 1_555
O4 H1 1_555 1_555
O5 Zn1 1_555 1_555
O6 C2 1_555 1_555
O7 Zn2 1_555 1_555
O8 P2 1_555 1_555
O9 P2 1_555 1_555
O10 Zn1 1_555 1_555
H2 O10 1_555 1_555
O11 Zn1 1_555 1_555
O12 Zn3 1_555 1_555
N1 Zn1 1_555 1_555
N2 H3 1_555 1_555
H4 N2 1_555 1_555
H5 N2 1_555 1_555
C1 P1 1_555 1_555
H6 C1 1_555 1_555
C2 O5 1_555 1_555
C3 P2 1_555 1_555
H7 C3 1_555 1_555
C4 O11 1_555 1_555
C5 N1 1_555 1_555
H8 C5 1_555 1_555
C6 C5 1_555 1_555
H9 C6 1_555 1_555
C7 C6 1_555 1_555
H10 C7 1_555 1_555
C8 C7 1_555 1_555
C9 N1 1_555 1_555
H11 C9 1_555 1_555
C10 N2 1_555 1_555
H12 C10 1_555 1_555
H13 C10 1_555 1_555
Zn1A O1A 1_555 1_555
Zn1_2 O6 1_555 1_555
Zn1A_2 O6A 1_555 1_555
Zn2A O1A 1_555 1_555
Zn2_2 O3A 1_555 1_555
Zn2_3 O2 1_555 1_555
Zn2A_2 O2A 1_555 1_555
Zn2A_3 O3 1_555 1_555
Zn3_2 O9A 1_555 1_555
Zn3_3 O9 1_555 1_555
P1A O1A 1_555 1_555
P2A O7A 1_555 1_555
O2A P1A 1_555 1_555
O2_2 Zn2 1_555 1_555
O2A_2 Zn2A 1_555 1_555
O3A P1A 1_555 1_555
O3_2 Zn2A 1_555 1_555
O3A_2 Zn2 1_555 1_555
O4A H1A 1_555 1_555
O5A Zn1A 1_555 1_555
O6A C2A 1_555 1_555
O6_2 Zn1 1_555 1_555
O6A_2 Zn1A 1_555 1_555
O7A Zn2A 1_555 1_555
O8A Zn3 1_555 1_555
O9A P2A 1_555 1_555
O9_2 Zn3 1_555 1_555
O9A_2 Zn3 1_555 1_555
O10A Zn1A 1_555 1_555
H2A O10A 1_555 1_555
O11A Zn1A 1_555 1_555
O12A Zn3 1_555 1_555
N1A Zn1A 1_555 1_555
N2A H3A 1_555 1_555
H4A N2A 1_555 1_555
H5A N2A 1_555 1_555
C1A P1A 1_555 1_555
H6A C1A 1_555 1_555
C2A O5A 1_555 1_555
C3A P2A 1_555 1_555
H7A C3A 1_555 1_555
C4A O11A 1_555 1_555
C5A N1A 1_555 1_555
H8A C5A 1_555 1_555
C6A C5A 1_555 1_555
H9A C6A 1_555 1_555
C7A C6A 1_555 1_555
H10A C7A 1_555 1_555
C8A C7A 1_555 1_555
C9A N1A 1_555 1_555
H11A C9A 1_555 1_555
C10A N2A 1_555 1_555
H12A C10A 1_555 1_555
H13A C10A 1_555 1_555
O4 C1 1_555 1_555
O10 C3 1_555 1_555
O12 C4 1_555 1_555
C1 C2 1_555 1_555
C3 C4 1_555 1_555
C8 C9 1_555 1_555
C8 C10 1_555 1_555
P2A O8A 1_555 1_555
O4A C1A 1_555 1_555
O10A C3A 1_555 1_555
O12A C4A 1_555 1_555
C1A C2A 1_555 1_555
C3A C4A 1_555 1_555
C8A C9A 1_555 1_555
C8A C10A 1_555 1_555

#END
