
#######################################################################
#
#                 Cambridge Crystallographic Data Centre
#                                CCDC 
#
#######################################################################
#
# If this CIF has been generated from an entry in the Cambridge 
# Structural Database, then it will include bibliographic, chemical, 
# crystal, experimental, refinement or atomic coordinate data resulting 
# from the CCDC's data processing and validation procedures.
#
#######################################################################

data_OPUDUZ
_symmetry_cell_setting           orthorhombic
_symmetry_space_group_name_H-M   'P b c a'
_symmetry_Int_Tables_number      61
_space_group_name_Hall           '-P 2ac 2ab'
loop_
_symmetry_equiv_pos_site_id
_symmetry_equiv_pos_as_xyz
1 x,y,z
2 1/2-x,-y,1/2+z
3 -x,1/2+y,1/2-z
4 1/2+x,1/2-y,-z
5 -x,-y,-z
6 1/2+x,y,1/2-z
7 x,1/2-y,1/2+z
8 1/2-x,1/2+y,z
_cell_length_a                   9.708(4)
_cell_length_b                   8.830(3)
_cell_length_c                   12.755(5)
_cell_angle_alpha                90
_cell_angle_beta                 90
_cell_angle_gamma                90
_cell_volume                     1093.38
loop_
_atom_site_label
_atom_site_type_symbol
_atom_site_fract_x
_atom_site_fract_y
_atom_site_fract_z
Ba1 Ba 0.0000 0.0000 -0.5000
Zn1 Zn -0.19125(3) -0.11269(3) -0.20568(2)
P1 P -0.04825(7) 0.18343(7) -0.25582(5)
O1 O -0.1340(2) 0.0528(2) -0.30013(13)
O2 O -0.1252(2) 0.3312(2) -0.23771(15)
O3 O 0.07842(19) 0.2095(2) -0.32321(14)
O4 O 0.1005(2) 0.2454(2) -0.09351(18)
H1 H 0.159(4) 0.227(4) -0.074(3)
O5 O -0.1992(2) 0.00637(19) -0.07033(15)
O6 O -0.1436(3) 0.2262(2) 0.00426(14)
C1 C 0.0092(3) 0.1275(3) -0.1256(2)
H2 H 0.053(3) 0.030(3) -0.125(2)
C2 C -0.1192(3) 0.1208(3) -0.0564(2)
Ba1A Ba -0.5000 0.0000 0.0000
Ba1A_2 Ba 0.5000 0.0000 -1.0000
Ba1B Ba 0.0000 -0.5000 -1.0000
Ba1B_2 Ba 0.0000 0.5000 0.0000
Zn1D Zn 0.19125(3) 0.11269(3) -0.79432(2)
Zn1B Zn 0.19125(3) 0.38731(3) -0.29432(2)
Zn1C Zn 0.30875(3) -0.38731(3) -0.79432(2)
Zn1F Zn -0.19125(3) -0.38731(3) -0.70568(2)
Zn1G Zn -0.30875(3) 0.38731(3) -0.20568(2)
P1D P 0.04825(7) -0.18343(7) -0.74418(5)
O1D O 0.1340(2) -0.0528(2) -0.69987(13)
O2D O 0.1252(2) -0.3312(2) -0.76229(15)
O2C O 0.3748(2) 0.1688(2) -0.76229(15)
O2G O -0.3748(2) -0.1688(2) -0.23771(15)
O3D O -0.07842(19) -0.2095(2) -0.67679(14)
O3B O -0.07842(19) -0.2905(2) -0.17679(14)
O3F O 0.07842(19) 0.2905(2) -0.82321(14)
O4D O -0.1005(2) -0.2454(2) -0.90649(18)
O4B O -0.1005(2) -0.2546(2) -0.40649(18)
O4F O 0.1005(2) 0.2546(2) -0.59351(18)
H1D H -0.159(4) -0.227(4) -0.926(3)
O5D O 0.1992(2) -0.00637(19) -0.92967(15)
O5A O -0.3008(2) -0.00637(19) -0.57033(15)
O5E O 0.3008(2) 0.00637(19) -0.42967(15)
O6D O 0.1436(3) -0.2262(2) -1.00426(14)
O6B O 0.1436(3) -0.2738(2) -0.50426(14)
O6F O -0.1436(3) 0.2738(2) -0.49574(14)
C1D C -0.0092(3) -0.1275(3) -0.8744(2)
H2D H -0.053(3) -0.030(3) -0.875(2)
C2D C 0.1192(3) -0.1208(3) -0.9436(2)
loop_
_geom_bond_atom_site_label_1
_geom_bond_atom_site_label_2
_geom_bond_site_symmetry_1
_geom_bond_site_symmetry_2
Ba1 O1 1_555 1_555
Zn1 O1 1_555 1_555
P1 O1 1_555 1_555
O2 P1 1_555 1_555
O3 Ba1 1_555 1_555
O4 H1 1_555 1_555
O5 Zn1 1_555 1_555
O6 C2 1_555 1_555
C1 P1 1_555 1_555
H2 C1 1_555 1_555
C2 O5 1_555 1_555
Ba1A O5 1_555 1_555
Ba1A_2 O5D 1_555 1_555
Ba1B O4D 1_555 1_555
Ba1B_2 O4 1_555 1_555
Zn1D O1D 1_555 1_555
Zn1B O3 1_555 1_555
Zn1C O2D 1_555 1_555
Zn1F O3D 1_555 1_555
Zn1G O2 1_555 1_555
P1D O1D 1_555 1_555
O1D Ba1 1_555 1_555
O2D P1D 1_555 1_555
O2C Zn1D 1_555 1_555
O2G Zn1 1_555 1_555
O3D Ba1 1_555 1_555
O3B Zn1 1_555 1_555
O3F Zn1D 1_555 1_555
O4D H1D 1_555 1_555
O4B Ba1 1_555 1_555
O4F Ba1 1_555 1_555
O5D Zn1D 1_555 1_555
O5A Ba1 1_555 1_555
O5E Ba1 1_555 1_555
O6D Ba1B 1_555 1_555
O6B Ba1 1_555 1_555
O6F Ba1 1_555 1_555
C1D P1D 1_555 1_555
H2D C1D 1_555 1_555
C2D O5D 1_555 1_555
P1 O3 1_555 1_555
O4 C1 1_555 1_555
O6 Ba1B_2 1_555 1_555
C1 C2 1_555 1_555
P1D O3D 1_555 1_555
O4D C1D 1_555 1_555
O6D C2D 1_555 1_555
C1D C2D 1_555 1_555

#END
