
#######################################################################
#
#                 Cambridge Crystallographic Data Centre
#                                CCDC 
#
#######################################################################
#
# If this CIF has been generated from an entry in the Cambridge 
# Structural Database, then it will include bibliographic, chemical, 
# crystal, experimental, refinement or atomic coordinate data resulting 
# from the CCDC's data processing and validation procedures.
#
#######################################################################

data_OPUFEL
_symmetry_cell_setting           monoclinic
_symmetry_space_group_name_H-M   'P 21/n'
_symmetry_Int_Tables_number      14
_space_group_name_Hall           '-P 2yn'
loop_
_symmetry_equiv_pos_site_id
_symmetry_equiv_pos_as_xyz
1 x,y,z
2 1/2-x,1/2+y,1/2-z
3 -x,-y,-z
4 1/2+x,1/2-y,1/2+z
_cell_length_a                   9.480(2)
_cell_length_b                   11.303(3)
_cell_length_c                   24.597(6)
_cell_angle_alpha                90
_cell_angle_beta                 95.747(4)
_cell_angle_gamma                90
_cell_volume                     2622.38
loop_
_atom_site_label
_atom_site_type_symbol
_atom_site_fract_x
_atom_site_fract_y
_atom_site_fract_z
Co1 Co -0.02269(7) 0.64621(6) 0.18888(2)
Co2 Co 0.01439(6) 0.46214(6) 0.29035(2)
Co3 Co 0.44309(7) 0.66112(6) 0.39262(3)
Co4 Co 0.0000 0.5000 0.5000
P1 P 0.27847(12) 0.63058(11) 0.26243(5)
P2 P -0.28807(12) 0.45727(11) 0.22524(5)
P3 P -0.08387(14) 0.63807(13) 0.38973(5)
P4 P 0.52433(16) 0.94014(13) 0.40590(5)
O1 O 0.1292(3) 0.5834(3) 0.24776(13)
O2 O 0.3339(4) 0.6165(3) 0.32099(14)
O3 O 0.3750(4) 0.5719(4) 0.22266(15)
H1 H 0.4547 0.5626 0.2383
O4 O 0.4179(4) 0.8312(3) 0.26223(14)
O5 O 0.1228(4) 0.7731(3) 0.16418(14)
O6 O 0.3151(4) 0.8844(3) 0.16322(13)
O7 O -0.1359(3) 0.5008(3) 0.22449(13)
O8 O -0.3641(4) 0.4448(4) 0.16735(14)
O9 O -0.3741(4) 0.5333(3) 0.26041(14)
H2 H -0.4545 0.5416 0.2452
O10 O -0.4204(4) 0.2576(3) 0.24591(13)
O11 O -0.3019(4) 0.2405(3) 0.34525(14)
O12 O -0.1168(4) 0.3535(3) 0.33166(14)
O13 O -0.0526(4) 0.6071(3) 0.33224(13)
O14 O 0.0274(4) 0.5928(4) 0.43270(15)
O15 O -0.1044(5) 0.7709(4) 0.39672(17)
H3 H -0.1112 0.8030 0.3667
O16 O -0.3626(4) 0.6125(4) 0.36072(14)
O17 O -0.4103(4) 0.6473(4) 0.46164(14)
O18 O -0.2158(4) 0.5555(5) 0.49667(15)
O19 O 0.4735(5) 0.8357(3) 0.37033(15)
O20 O 0.4872(5) 1.0570(4) 0.37945(16)
O21 O 0.4663(6) 0.9318(4) 0.46186(16)
O22 O 0.6886(6) 0.9410(7) 0.4206(3)
H4 H 0.7229 0.8809 0.4087
O23 O 0.3817(5) 0.4847(4) 0.41616(15)
O24 O 0.2754(5) 0.7195(5) 0.4361(2)
O25 O -0.0511(7) 0.3431(5) 0.4497(2)
C1 C 0.2775(5) 0.7872(4) 0.24703(18)
H5 H 0.2118 0.8268 0.2694
C2 C 0.2344(5) 0.8166(4) 0.18711(19)
C3 C -0.2808(5) 0.3073(4) 0.25401(18)
H6 H -0.2176 0.2594 0.2338
C4 C -0.2291(5) 0.3006(4) 0.31451(19)
C5 C -0.2542(5) 0.5690(5) 0.39964(18)
H7 H -0.2459 0.4833 0.3947
C6 C -0.2963(5) 0.5929(5) 0.45674(19)
Co1B Co 0.02269(7) 0.35379(6) 0.81112(2)
Co1A Co -0.47731(7) 0.14621(6) 0.31112(2)
Co1A_2 Co 0.52269(7) 1.14621(6) 0.31112(2)
Co1C Co -0.52269(7) -0.14621(6) 0.68888(2)
Co1C_2 Co 0.47731(7) 0.85379(6) 0.68888(2)
Co2B Co -0.01439(6) 0.53786(6) 0.70965(2)
Co2A Co 0.48561(6) 0.96214(6) 0.20965(2)
Co2C Co -0.48561(6) 0.03786(6) 0.79035(2)
Co3B Co -0.44309(7) 0.33888(6) 0.60738(3)
Co3_2 Co -0.55691(7) 0.66112(6) 0.39262(3)
Co3B_2 Co 0.55691(7) 0.33888(6) 0.60738(3)
P1B P -0.27847(12) 0.36942(11) 0.73757(5)
P2B P 0.28807(12) 0.54273(11) 0.77476(5)
P3B P 0.08387(14) 0.36193(13) 0.61027(5)
P4B P -0.52433(16) 0.05986(13) 0.59410(5)
O1B O -0.1292(3) 0.4166(3) 0.75224(13)
O2B O -0.3339(4) 0.3835(3) 0.67901(14)
O3B O -0.3750(4) 0.4281(4) 0.77734(15)
H1B H -0.4547 0.4374 0.7617
O4B O -0.4179(4) 0.1688(3) 0.73777(14)
O4A O 0.0821(4) 0.3312(3) 0.23777(14)
O4C O -0.0821(4) 0.6688(3) 0.76223(14)
O5B O -0.1228(4) 0.2269(3) 0.83582(14)
O6B O -0.3151(4) 0.1156(3) 0.83678(13)
O6A O 0.1849(4) 0.3844(3) 0.33678(13)
O6C O -0.1849(4) 0.6156(3) 0.66322(13)
O7B O 0.1359(3) 0.4992(3) 0.77551(13)
O8B O 0.3641(4) 0.5552(4) 0.83265(14)
O9B O 0.3741(4) 0.4667(3) 0.73959(14)
H2B H 0.4545 0.4584 0.7548
O10B O 0.4204(4) 0.7424(3) 0.75409(13)
O10A O -0.0796(4) 0.7576(3) 0.25409(13)
O10C O 0.0796(4) 0.2424(3) 0.74591(13)
O11B O 0.3019(4) 0.7595(3) 0.65475(14)
O11A O -0.1981(4) 0.7405(3) 0.15475(14)
O11C O 0.1981(4) 0.2595(3) 0.84525(14)
O12B O 0.1168(4) 0.6465(3) 0.66834(14)
O13B O 0.0526(4) 0.3929(3) 0.66776(13)
O14B O -0.0274(4) 0.4072(4) 0.56730(15)
O15B O 0.1044(5) 0.2291(4) 0.60328(17)
H3B H 0.1112 0.1970 0.6333
O16B O 0.3626(4) 0.3875(4) 0.63928(14)
O16_2 O 0.6374(4) 0.6125(4) 0.36072(14)
O16B_2 O -0.6374(4) 0.3875(4) 0.63928(14)
O17B O 0.4103(4) 0.3527(4) 0.53836(14)
O17_2 O 0.5897(4) 0.6473(4) 0.46164(14)
O17B_2 O -0.5897(4) 0.3527(4) 0.53836(14)
O18B O 0.2158(4) 0.4445(5) 0.50333(15)
O19B O -0.4735(5) 0.1643(3) 0.62967(15)
O20B O -0.4872(5) -0.0570(4) 0.62055(16)
O20A O 0.0128(5) 0.5570(4) 0.12055(16)
O20C O -0.0128(5) 0.4430(4) 0.87945(16)
O21B O -0.4663(6) 0.0682(4) 0.53814(16)
O22B O -0.6886(6) 0.0590(7) 0.5794(3)
H4B H -0.7229 0.1191 0.5913
O23B O -0.3817(5) 0.5153(4) 0.58384(15)
O24B O -0.2754(5) 0.2805(5) 0.5639(2)
O25B O 0.0511(7) 0.6569(5) 0.5503(2)
C1B C -0.2775(5) 0.2128(4) 0.75297(18)
H5B H -0.2118 0.1732 0.7306
C2B C -0.2344(5) 0.1834(4) 0.81289(19)
C3B C 0.2808(5) 0.6927(4) 0.74599(18)
H6B H 0.2176 0.7406 0.7662
C4B C 0.2291(5) 0.6994(4) 0.68549(19)
C5B C 0.2542(5) 0.4310(5) 0.60036(18)
H7B H 0.2459 0.5167 0.6053
C6B C 0.2963(5) 0.4071(5) 0.54326(19)
O26 O 0.3408(9) 0.4635(12) 0.1112(4)
O27 O 0.4299(13) 0.7258(10) 0.5515(3)
N1 N 0.173(6) 0.159(2) 0.4709(13)
loop_
_geom_bond_atom_site_label_1
_geom_bond_atom_site_label_2
_geom_bond_site_symmetry_1
_geom_bond_site_symmetry_2
Co1 O1 1_555 1_555
Co2 O1 1_555 1_555
Co3 O2 1_555 1_555
Co4 O14 1_555 1_555
P1 O1 1_555 1_555
P2 O7 1_555 1_555
P3 O13 1_555 1_555
P4 O19 1_555 1_555
O2 P1 1_555 1_555
O3 P1 1_555 1_555
H1 O3 1_555 1_555
O4 C1 1_555 1_555
O5 Co1 1_555 1_555
O6 C2 1_555 1_555
O7 Co1 1_555 1_555
O8 P2 1_555 1_555
O9 P2 1_555 1_555
H2 O9 1_555 1_555
O10 C3 1_555 1_555
O11 C4 1_555 1_555
O12 Co2 1_555 1_555
O13 Co2 1_555 1_555
O14 P3 1_555 1_555
O15 P3 1_555 1_555
H3 O15 1_555 1_555
O16 C5 1_555 1_555
O17 C6 1_555 1_555
O18 Co4 1_555 1_555
O19 Co3 1_555 1_555
O20 P4 1_555 1_555
O21 P4 1_555 1_555
O22 P4 1_555 1_555
H4 O22 1_555 1_555
O23 Co3 1_555 1_555
O24 Co3 1_555 1_555
O25 Co4 1_555 1_555
C1 P1 1_555 1_555
H5 C1 1_555 1_555
C2 O5 1_555 1_555
C3 P2 1_555 1_555
H6 C3 1_555 1_555
C4 O12 1_555 1_555
C5 P3 1_555 1_555
H7 C5 1_555 1_555
C6 O18 1_555 1_555
Co1B O1B 1_555 1_555
Co1A O10 1_555 1_555
Co1A_2 O20 1_555 1_555
Co1C O20B 1_555 1_555
Co1C_2 O10B 1_555 1_555
Co2B O1B 1_555 1_555
Co2A O4 1_555 1_555
Co2C O4B 1_555 1_555
Co3B O2B 1_555 1_555
Co3_2 O16 1_555 1_555
Co3B_2 O16B 1_555 1_555
P1B O1B 1_555 1_555
P2B O7B 1_555 1_555
P3B O13B 1_555 1_555
P4B O19B 1_555 1_555
O2B P1B 1_555 1_555
O3B P1B 1_555 1_555
H1B O3B 1_555 1_555
O4B C1B 1_555 1_555
O4A Co2 1_555 1_555
O4C Co2B 1_555 1_555
O5B Co1B 1_555 1_555
O6B Co2C 1_555 1_555
O6A Co2 1_555 1_555
O6C Co2B 1_555 1_555
O7B Co1B 1_555 1_555
O8B P2B 1_555 1_555
O9B P2B 1_555 1_555
H2B O9B 1_555 1_555
O10B C3B 1_555 1_555
O10A Co1 1_555 1_555
O10C Co1B 1_555 1_555
O11B Co1C_2 1_555 1_555
O11A Co1 1_555 1_555
O11C Co1B 1_555 1_555
O12B Co2B 1_555 1_555
O13B Co2B 1_555 1_555
O14B Co4 1_555 1_555
O15B P3B 1_555 1_555
H3B O15B 1_555 1_555
O16B C5B 1_555 1_555
O16_2 Co3 1_555 1_555
O16B_2 Co3B 1_555 1_555
O17B Co3B_2 1_555 1_555
O17_2 Co3 1_555 1_555
O17B_2 Co3B 1_555 1_555
O18B Co4 1_555 1_555
O19B Co3B 1_555 1_555
O20B P4B 1_555 1_555
O20A Co1 1_555 1_555
O20C Co1B 1_555 1_555
O21B P4B 1_555 1_555
O22B P4B 1_555 1_555
H4B O22B 1_555 1_555
O23B Co3B 1_555 1_555
O24B Co3B 1_555 1_555
O25B Co4 1_555 1_555
C1B P1B 1_555 1_555
H5B C1B 1_555 1_555
C2B O5B 1_555 1_555
C3B P2B 1_555 1_555
H6B C3B 1_555 1_555
C4B O11B 1_555 1_555
C5B P3B 1_555 1_555
H7B C5B 1_555 1_555
C6B O17B 1_555 1_555
Co2 O7 1_555 1_555
O6 Co2A 1_555 1_555
O11 Co1A 1_555 1_555
O17 Co3_2 1_555 1_555
C1 C2 1_555 1_555
C3 C4 1_555 1_555
C5 C6 1_555 1_555
Co2B O7B 1_555 1_555
P3B O14B 1_555 1_555
O6B C2B 1_555 1_555
O12B C4B 1_555 1_555
O18B C6B 1_555 1_555
C1B C2B 1_555 1_555
C3B C4B 1_555 1_555
C5B C6B 1_555 1_555

#END
