
#######################################################################
#
#                 Cambridge Crystallographic Data Centre
#                                CCDC 
#
#######################################################################
#
# If this CIF has been generated from an entry in the Cambridge 
# Structural Database, then it will include bibliographic, chemical, 
# crystal, experimental, refinement or atomic coordinate data resulting 
# from the CCDC's data processing and validation procedures.
#
#######################################################################

data_OPURUN
_symmetry_cell_setting           monoclinic
_symmetry_space_group_name_H-M   'P 21'
_symmetry_Int_Tables_number      4
_space_group_name_Hall           'P 2yb'
loop_
_symmetry_equiv_pos_site_id
_symmetry_equiv_pos_as_xyz
1 x,y,z
2 -x,1/2+y,-z
_cell_length_a                   8.664(4)
_cell_length_b                   26.844(13)
_cell_length_c                   15.377(7)
_cell_angle_alpha                90
_cell_angle_beta                 93.593(7)
_cell_angle_gamma                90
_cell_volume                     3569.3
loop_
_atom_site_label
_atom_site_type_symbol
_atom_site_fract_x
_atom_site_fract_y
_atom_site_fract_z
Cd1 Cd 1.56964(13) 0.51991(4) 0.66428(6)
C1 C 1.4327(9) 0.6144(2) 0.7084(10)
O1 O 1.3919(6) 0.5840(4) 0.6501(5)
O2 O 1.5735(9) 0.6048(4) 0.7284(6)
C2 C 1.3449(4) 0.65728(14) 0.7241(4)
C3 C 1.4133(5) 0.69103(15) 0.7833(4)
H1 H 1.5182 0.6862 0.8055
C4 C 1.3362(4) 0.73432(15) 0.8043(4)
H2 H 1.3896 0.7567 0.8445
C5 C 1.1905(5) 0.74416(15) 0.7655(4)
C6 C 1.1216(5) 0.71066(16) 0.7060(5)
H3 H 1.0329 0.7212 0.6701
C7 C 1.1941(5) 0.66540(18) 0.6908(6)
H4 H 1.1349 0.6415 0.6563
C8 C 1.1237(11) 0.7953(3) 0.7831(6)
C9 C 1.1449(11) 0.8162(4) 0.8619(7)
H5 H 1.2012 0.7989 0.9084
C10 C 1.1011(13) 0.8700(4) 0.8742(6)
C11 C 1.0241(11) 0.8852(4) 0.8046(8)
H6 H 0.9878 0.9185 0.8135
C12 C 0.9896(12) 0.8684(4) 0.7290(6)
C13 C 1.0340(12) 0.8182(4) 0.7192(7)
H7 H 1.0140 0.8022 0.6638
C14 C 0.8951(6) 0.8947(2) 0.6553(2)
C15 C 0.7958(6) 0.9336(2) 0.6717(2)
H8 H 0.7760 0.9402 0.7313
C16 C 0.7058(6) 0.9581(2) 0.6070(2)
H9 H 0.6394 0.9850 0.6219
C17 C 0.7297(5) 0.94456(18) 0.5214(2)
C18 C 0.8339(6) 0.9083(2) 0.4992(2)
H10 H 0.8426 0.8996 0.4391
C19 C 0.9165(7) 0.8849(2) 0.5683(2)
H11 H 0.9997 0.8641 0.5515
C20 C 0.6327(9) 0.9698(3) 0.4595(5)
O3 O 0.5251(6) 0.9984(3) 0.4701(4)
O4 O 0.6512(8) 0.9630(3) 0.3846(5)
C21 C 1.1528(10) 0.89291(13) 0.9560(2)
C22 C 1.1631(9) 0.86883(14) 1.0361(2)
H12 H 1.1407 0.8338 1.0381
C23 C 1.2127(10) 0.89352(15) 1.1126(2)
H13 H 1.2054 0.8772 1.1655
C24 C 1.2678(8) 0.94204(15) 1.1055(2)
C25 C 1.2575(9) 0.96742(16) 1.0264(3)
H14 H 1.2813 1.0023 1.0245
C26 C 1.1897(10) 0.94318(15) 0.9537(3)
H15 H 1.1816 0.9605 0.8990
O5 O 1.4031(6) 1.0026(3) 1.1840(4)
O6 O 1.2525(8) 0.9622(3) 1.2482(5)
H16 H 1.1872 0.9394 1.2570
C27 C 1.3316(18) 0.9620(6) 1.1840(6)
N1 N 1.7778(3) 0.53616(14) 0.5878(3)
N2 N 1.8296(4) 0.59578(13) 0.4892(3)
C28 C 1.7135(3) 0.57478(18) 0.5420(4)
H17 H 1.6121 0.5859 0.5440
C29 C 1.9735(3) 0.57938(17) 0.5325(4)
H18 H 2.0699 0.5939 0.5270
C30 C 1.8578(19) 0.63562(13) 0.4285(4)
H19 H 1.7839 0.6327 0.3788
H20 H 1.9603 0.6312 0.4076
C31 C 1.9441(4) 0.53938(19) 0.5823(5)
H21 H 2.0172 0.5178 0.6084
N3 N 1.8325(8) 0.72310(16) 0.3877(3)
H22 H 1.8576 0.7176 0.3354
C32 C 1.8468(6) 0.68714(14) 0.4654(3)
H23 H 1.9419 0.6946 0.5009
C33 C 1.7066(7) 0.70010(14) 0.5172(4)
H24 H 1.6153 0.6824 0.4943
H25 H 1.7259 0.6916 0.5782
C34 C 1.7642(8) 0.77068(15) 0.4236(4)
H26 H 1.8452 0.7949 0.4371
H27 H 1.6897 0.7851 0.3810
C35 C 1.6857(9) 0.75625(16) 0.5058(4)
H28 H 1.5766 0.7646 0.5000
H29 H 1.7327 0.7738 0.5558
Cd1A Cd 0.43036(13) 1.01991(4) 0.33572(6)
Cd1A_2 Cd 1.43036(13) 1.01991(4) 1.33572(6)
O3A O 1.4749(6) 0.4984(3) 0.5299(4)
O4A O 1.3488(8) 0.4630(3) 0.6154(5)
O5A O 1.5969(6) 0.5026(3) 0.8160(4)
O6A O 1.7475(8) 0.4622(3) 0.7518(5)
H16A H 1.8128 0.4394 0.7430
Cd2 Cd 0.94788(12) 1.21421(4) 0.85931(6)
C36 C 1.1531(4) 1.08106(12) 0.7740(4)
C37 C 1.3059(4) 1.06856(14) 0.7960(5)
H30 H 1.3665 1.0895 0.8322
C38 C 1.3683(4) 1.02392(15) 0.7679(5)
H31 H 1.4736 1.0193 0.7806
C39 C 1.2716(4) 0.99004(15) 0.7233(5)
C40 C 1.1179(5) 1.00191(14) 0.7009(5)
H32 H 1.0552 0.9796 0.6686
C41 C 1.0621(5) 1.04831(16) 0.7230(5)
H33 H 0.9618 1.0568 0.7036
C42 C 1.0954(11) 1.1263(2) 0.8047(7)
O7 O 1.1695(4) 1.1610(2) 0.8186(6)
O8 O 0.9569(5) 1.1314(2) 0.8086(6)
C43 C 1.3427(8) 0.9416(3) 0.7029(5)
C44 C 1.4321(8) 0.91415(18) 0.7659(5)
H34 H 1.4571 0.9295 0.8191
C45 C 1.4946(10) 0.8667(2) 0.7547(6)
C46 C 1.4592(11) 0.8404(4) 0.6720(6)
H35 H 1.4942 0.8083 0.6617
C47 C 1.3584(11) 0.8703(4) 0.6042(6)
C48 C 1.3054(12) 0.9160(4) 0.6230(7)
H36 H 1.2403 0.9318 0.5813
C49 C 1.3210(11) 0.84261(14) 0.5183(2)
C50 C 1.3127(11) 0.86964(14) 0.4411(2)
H37 H 1.3346 0.9035 0.4407
C51 C 1.2625(11) 0.84356(13) 0.3661(2)
H38 H 1.2535 0.8617 0.3145
C52 C 1.2354(9) 0.79241(14) 0.3645(2)
C53 C 1.1606(12) 0.7701(4) 0.2907(5)
O9 O 1.1976(7) 0.7797(2) 0.2145(4)
O10 O 1.0770(8) 0.7331(2) 0.2863(4)
C54 C 1.2524(13) 0.76803(14) 0.4442(2)
H39 H 1.2176 0.7354 0.4481
C55 C 1.2800(12) 0.79251(16) 0.5234(2)
H40 H 1.2915 0.7743 0.5748
C56 C 1.5860(5) 0.83996(19) 0.8229(2)
C57 C 1.5684(6) 0.8456(2) 0.9116(2)
H41 H 1.5005 0.8698 0.9295
C58 C 1.6561(6) 0.8191(2) 0.9749(2)
H42 H 1.6345 0.8241 1.0327
C59 C 1.7644(5) 0.7859(2) 0.9463(2)
C60 C 1.7857(6) 0.7781(2) 0.8584(2)
H43 H 1.8500 0.7526 0.8414
C61 C 1.6946(7) 0.8057(2) 0.7985(2)
H44 H 1.7071 0.7985 0.7402
O11 O 1.9276(10) 0.7236(2) 0.9986(4)
O12 O 1.8719(10) 0.7736(2) 1.0880(4)
H45 H 1.7904 0.7736 1.1160
C62 C 1.8622(10) 0.7609(4) 1.0084(6)
N4 N 0.7307(3) 1.18751(15) 0.9311(3)
N5 N 0.6256(4) 1.12799(10) 1.0131(3)
C63 C 0.7668(3) 1.15381(18) 0.9953(4)
H46 H 0.8641 1.1484 1.0227
C64 C 0.5060(3) 1.16281(17) 0.9851(4)
H47 H 0.4043 1.1621 1.0012
C65 C 0.5656(4) 1.19660(16) 0.9316(4)
H48 H 0.5107 1.2213 0.9006
C66 C 0.6310(8) 1.08698(18) 1.0744(4)
H49 H 0.5284 1.0725 1.0749
H50 H 0.6574 1.1001 1.1322
C67 C 0.7435(9) 1.04633(12) 1.0560(2)
H51 H 0.8503 1.0582 1.0650
C68 C 0.7097(19) 1.02900(13) 0.9618(2)
H52 H 0.6053 1.0381 0.9413
H53 H 0.7815 1.0442 0.9238
C69 C 0.7286(19) 0.97231(14) 0.9625(3)
H54 H 0.6483 0.9569 0.9248
H55 H 0.8283 0.9632 0.9418
C70 C 0.717(2) 0.95493(13) 1.0563(3)
H56 H 0.8040 0.9338 1.0740
H57 H 0.6224 0.9360 1.0615
N6 N 0.7159(16) 1.00127(15) 1.1139(3)
H58 H 0.7024 1.0019 1.1688
Cd2A Cd 1.05212(12) 0.71421(4) 0.14069(6)
Cd2A_2 Cd 2.05212(12) 0.71421(4) 1.14069(6)
O9A O 0.8024(7) 1.2797(2) 0.7855(4)
O10A O 0.9230(8) 1.2331(2) 0.7137(4)
O11A O 1.0724(10) 1.2236(2) 1.0014(4)
O12A O 1.1281(10) 1.2736(2) 0.9120(4)
H45A H 1.2096 1.2736 0.8840
O13 O 0.4407(18) 1.2891(6) 0.7829(11)
O14 O 0.700(3) 1.1191(10) 1.5301(18)
O15 O 1.3919(15) 1.1951(5) 0.7318(9)
O16 O 0.157(3) 1.1320(11) 1.087(2)
O17 O 1.699(4) 1.1106(13) 0.737(2)
O18? O 1.664(3) 1.1416(11) 0.679(2)
loop_
_geom_bond_atom_site_label_1
_geom_bond_atom_site_label_2
_geom_bond_site_symmetry_1
_geom_bond_site_symmetry_2
Cd1 O1 1_555 1_555
C1 O1 1_555 1_555
O2 Cd1 1_555 1_555
C2 C1 1_555 1_555
C3 C2 1_555 1_555
H1 C3 1_555 1_555
C4 C3 1_555 1_555
H2 C4 1_555 1_555
C5 C4 1_555 1_555
C6 C5 1_555 1_555
H3 C6 1_555 1_555
C7 C2 1_555 1_555
H4 C7 1_555 1_555
C8 C5 1_555 1_555
C9 C8 1_555 1_555
H5 C9 1_555 1_555
C10 C9 1_555 1_555
C11 C10 1_555 1_555
H6 C11 1_555 1_555
C12 C11 1_555 1_555
C13 C8 1_555 1_555
H7 C13 1_555 1_555
C14 C12 1_555 1_555
C15 C14 1_555 1_555
H8 C15 1_555 1_555
C16 C15 1_555 1_555
H9 C16 1_555 1_555
C17 C16 1_555 1_555
C18 C17 1_555 1_555
H10 C18 1_555 1_555
C19 C14 1_555 1_555
H11 C19 1_555 1_555
C20 C17 1_555 1_555
O3 C20 1_555 1_555
O4 C20 1_555 1_555
C21 C10 1_555 1_555
C22 C21 1_555 1_555
H12 C22 1_555 1_555
C23 C22 1_555 1_555
H13 C23 1_555 1_555
C24 C23 1_555 1_555
C25 C24 1_555 1_555
H14 C25 1_555 1_555
C26 C21 1_555 1_555
H15 C26 1_555 1_555
O5 C27 1_555 1_555
O6 H16 1_555 1_555
C27 C24 1_555 1_555
N1 Cd1 1_555 1_555
N2 C28 1_555 1_555
C28 N1 1_555 1_555
H17 C28 1_555 1_555
C29 N2 1_555 1_555
H18 C29 1_555 1_555
C30 N2 1_555 1_555
H19 C30 1_555 1_555
H20 C30 1_555 1_555
C31 N1 1_555 1_555
H21 C31 1_555 1_555
N3 H22 1_555 1_555
C32 C30 1_555 1_555
H23 C32 1_555 1_555
C33 C32 1_555 1_555
H24 C33 1_555 1_555
H25 C33 1_555 1_555
C34 N3 1_555 1_555
H26 C34 1_555 1_555
H27 C34 1_555 1_555
C35 C33 1_555 1_555
H28 C35 1_555 1_555
H29 C35 1_555 1_555
Cd2 O7 1_555 1_555
C36 C37 1_555 1_555
C37 H30 1_555 1_555
C38 C37 1_555 1_555
H31 C38 1_555 1_555
C39 C38 1_555 1_555
C40 C39 1_555 1_555
H32 C40 1_555 1_555
C41 C36 1_555 1_555
H33 C41 1_555 1_555
C42 C36 1_555 1_555
O7 C42 1_555 1_555
O8 Cd2 1_555 1_555
C43 C39 1_555 1_555
C44 C43 1_555 1_555
H34 C44 1_555 1_555
C45 C44 1_555 1_555
C46 C45 1_555 1_555
H35 C46 1_555 1_555
C47 C46 1_555 1_555
C48 C43 1_555 1_555
H36 C48 1_555 1_555
C49 C47 1_555 1_555
C50 C49 1_555 1_555
H37 C50 1_555 1_555
C51 C50 1_555 1_555
H38 C51 1_555 1_555
C52 C51 1_555 1_555
C53 C52 1_555 1_555
O9 C53 1_555 1_555
O10 C53 1_555 1_555
C54 C52 1_555 1_555
H39 C54 1_555 1_555
C55 C49 1_555 1_555
H40 C55 1_555 1_555
C56 C45 1_555 1_555
C57 C56 1_555 1_555
H41 C57 1_555 1_555
C58 C57 1_555 1_555
H42 C58 1_555 1_555
C59 C58 1_555 1_555
C60 C59 1_555 1_555
H43 C60 1_555 1_555
C61 C56 1_555 1_555
H44 C61 1_555 1_555
O11 C62 1_555 1_555
O12 H45 1_555 1_555
C62 C59 1_555 1_555
N4 Cd2 1_555 1_555
N5 C63 1_555 1_555
C63 N4 1_555 1_555
H46 C63 1_555 1_555
C64 N5 1_555 1_555
H47 C64 1_555 1_555
C65 N4 1_555 1_555
H48 C65 1_555 1_555
C66 N5 1_555 1_555
H49 C66 1_555 1_555
H50 C66 1_555 1_555
C67 C66 1_555 1_555
H51 C67 1_555 1_555
C68 C67 1_555 1_555
H52 C68 1_555 1_555
H53 C68 1_555 1_555
C69 C68 1_555 1_555
H54 C69 1_555 1_555
H55 C69 1_555 1_555
C70 C69 1_555 1_555
H56 C70 1_555 1_555
H57 C70 1_555 1_555
N6 C67 1_555 1_555
H58 N6 1_555 1_555
Cd1A O3 1_555 1_555
Cd1A_2 O5 1_555 1_555
O3A Cd1 1_555 1_555
O4A Cd1 1_555 1_555
O5A Cd1 1_555 1_555
O6A Cd1 1_555 1_555
H16A O6A 1_555 1_555
Cd2A O9 1_555 1_555
Cd2A_2 O11 1_555 1_555
O9A Cd2 1_555 1_555
O10A Cd2 1_555 1_555
O11A Cd2 1_555 1_555
O12A Cd2 1_555 1_555
H45A O12A 1_555 1_555
C1 O2 1_555 1_555
C6 C7 1_555 1_555
C12 C13 1_555 1_555
C18 C19 1_555 1_555
O4 Cd1A 1_555 1_555
C25 C26 1_555 1_555
O6 C27 1_555 1_555
O6 Cd1A_2 1_555 1_555
C29 C31 1_555 1_555
N3 C32 1_555 1_555
C34 C35 1_555 1_555
C40 C41 1_555 1_555
C42 O8 1_555 1_555
C47 C48 1_555 1_555
O10 Cd2A 1_555 1_555
C54 C55 1_555 1_555
C60 C61 1_555 1_555
O12 C62 1_555 1_555
O12 Cd2A_2 1_555 1_555
C64 C65 1_555 1_555
C70 N6 1_555 1_555

#END
