
#######################################################################
#
#                 Cambridge Crystallographic Data Centre
#                                CCDC 
#
#######################################################################
#
# If this CIF has been generated from an entry in the Cambridge 
# Structural Database, then it will include bibliographic, chemical, 
# crystal, experimental, refinement or atomic coordinate data resulting 
# from the CCDC's data processing and validation procedures.
#
#######################################################################

data_OPUTID
_symmetry_cell_setting           monoclinic
_symmetry_space_group_name_H-M   'P 21/c'
_symmetry_Int_Tables_number      14
_space_group_name_Hall           '-P 2ybc'
loop_
_symmetry_equiv_pos_site_id
_symmetry_equiv_pos_as_xyz
1 x,y,z
2 -x,1/2+y,1/2-z
3 -x,-y,-z
4 x,1/2-y,1/2+z
_cell_length_a                   11.0216(9)
_cell_length_b                   11.8764(8)
_cell_length_c                   12.1617(8)
_cell_angle_alpha                90
_cell_angle_beta                 109.931(4)
_cell_angle_gamma                90
_cell_volume                     1496.58
loop_
_atom_site_label
_atom_site_type_symbol
_atom_site_fract_x
_atom_site_fract_y
_atom_site_fract_z
C1 C 0.2694(5) 1.0520(4) 0.0772(4)
H1 H 0.2470 1.0922 0.1351
C2 C 0.3954(5) 1.0535(4) 0.0818(4)
H2 H 0.4583 1.0923 0.1436
C3 C 0.4317(4) 0.9992(4) -0.0021(4)
C4 C 0.3349(5) 0.9446(4) -0.0885(4)
H3 H 0.3543 0.9082 -0.1500
C5 C 0.2111(5) 0.9419(4) -0.0872(4)
H4 H 0.1476 0.9003 -0.1458
C6 C 0.0515(4) 0.7520(3) 0.0747(3)
C7 C 0.1909(4) 0.7713(3) 0.1458(3)
C8 C 0.2835(5) 0.7169(4) 0.1107(3)
H5 H 0.2565 0.6660 0.0467
C9 C 0.4131(4) 0.7353(4) 0.1666(3)
H6 H 0.4739 0.7000 0.1381
C10 C 0.4569(4) 0.8051(3) 0.2645(3)
C11 C 0.3647(4) 0.8573(3) 0.3028(3)
H7 H 0.3923 0.9033 0.3708
C12 C 0.2338(4) 0.8432(3) 0.2432(3)
C13 C 0.5983(5) 0.8176(3) 0.3268(3)
Cu1 Cu 0.0000 1.0000 0.0000
Cu2 Cu 0.81793(5) 0.86607(4) 0.50556(4)
N1 N 0.1767(4) 0.9965(3) -0.0054(3)
O1 O -0.0137(3) 0.8273(2) 0.0108(2)
O2 O 0.0073(3) 0.6542(2) 0.0812(2)
O3 O 0.0753(3) 1.0125(2) 0.1993(2)
O4 O 0.0173(3) 0.8439(2) 0.2828(3)
O5 O 0.1880(3) 0.9668(2) 0.4009(2)
O6 O 0.6749(3) 0.7762(3) 0.2824(3)
O7 O 0.6337(3) 0.8668(2) 0.4264(2)
O8 O 0.7963(3) 0.7618(3) 0.6238(3)
H8 H 0.8688 0.7378 0.6662
O9 O 0.8485(3) 0.9572(2) 0.3813(2)
H9 H 0.9019 0.9240 0.3571
S1 S 0.11966(11) 0.92259(9) 0.28510(8)
H10 H 0.7572 0.7739 0.6609
H11 H 0.8899 1.0222 0.3761
C1B C 0.7306(5) 0.9480(4) -0.0772(4)
H1B H 0.7530 0.9078 -0.1351
C2B C 0.6046(5) 0.9465(4) -0.0818(4)
H2B H 0.5417 0.9077 -0.1436
C3B C 0.5683(4) 1.0008(4) 0.0021(4)
C4B C 0.6651(5) 1.0554(4) 0.0885(4)
H3B H 0.6457 1.0918 0.1500
C5B C 0.7889(5) 1.0581(4) 0.0872(4)
H4B H 0.8524 1.0997 0.1458
C6B C -0.0515(4) 1.2480(3) -0.0747(3)
C7B C -0.1909(4) 1.2287(3) -0.1458(3)
C8B C -0.2835(5) 1.2831(4) -0.1107(3)
H5B H -0.2565 1.3340 -0.0467
C9B C -0.4131(4) 1.2647(4) -0.1666(3)
H6B H -0.4739 1.3000 -0.1381
C10B C -0.4569(4) 1.1949(3) -0.2645(3)
C11B C -0.3647(4) 1.1427(3) -0.3028(3)
H7B H -0.3923 1.0967 -0.3708
C12B C -0.2338(4) 1.1568(3) -0.2432(3)
C13B C -0.5983(5) 1.1824(3) -0.3268(3)
Cu1_2 Cu 1.0000 1.0000 0.0000
Cu2B Cu -0.81793(5) 1.13393(4) -0.50556(4)
Cu2_2 Cu -0.18207(5) 0.86607(4) -0.49444(4)
Cu2A Cu 0.18207(5) 1.36607(4) -0.00556(4)
Cu2B_2 Cu 0.18207(5) 1.13393(4) 0.49444(4)
Cu2C Cu -0.18207(5) 0.63393(4) 0.00556(4)
N1B N 0.8233(4) 1.0035(3) 0.0054(3)
N1B_2 N -0.1767(4) 1.0035(3) 0.0054(3)
O1B O 0.0137(3) 1.1727(2) -0.0108(2)
O2B O -0.0073(3) 1.3458(2) -0.0812(2)
O2A O -1.0073(3) 1.1542(2) -0.5812(2)
O2C O 1.0073(3) 0.8458(2) 0.5812(2)
O3B O -0.0753(3) 0.9875(2) -0.1993(2)
O4B O -0.0173(3) 1.1561(2) -0.2828(3)
O5B O -0.1880(3) 1.0332(2) -0.4009(2)
O5_2 O -0.8120(3) 0.9668(2) -0.5991(2)
O5B_2 O 0.8120(3) 1.0332(2) 0.5991(2)
O6B O -0.6749(3) 1.2238(3) -0.2824(3)
O7B O -0.6337(3) 1.1332(2) -0.4264(2)
O8B O -0.7963(3) 1.2382(3) -0.6238(3)
H8B H -0.8688 1.2622 -0.6662
O9B O -0.8485(3) 1.0428(2) -0.3813(2)
H9B H -0.9019 1.0760 -0.3571
S1B S -0.11966(11) 1.07741(9) -0.28510(8)
H10B H -0.7572 1.2261 -0.6609
H11B H -0.8899 0.9778 -0.3761
loop_
_geom_bond_atom_site_label_1
_geom_bond_atom_site_label_2
_geom_bond_site_symmetry_1
_geom_bond_site_symmetry_2
C1 H1 1_555 1_555
C2 C1 1_555 1_555
H2 C2 1_555 1_555
C3 C2 1_555 1_555
C4 C3 1_555 1_555
H3 C4 1_555 1_555
C5 C4 1_555 1_555
H4 C5 1_555 1_555
C6 C7 1_555 1_555
C7 C8 1_555 1_555
C8 H5 1_555 1_555
C9 C8 1_555 1_555
H6 C9 1_555 1_555
C10 C9 1_555 1_555
C11 C10 1_555 1_555
H7 C11 1_555 1_555
C12 C7 1_555 1_555
C13 C10 1_555 1_555
Cu1 N1 1_555 1_555
Cu2 O7 1_555 1_555
N1 C1 1_555 1_555
O1 C6 1_555 1_555
O2 C6 1_555 1_555
O3 Cu1 1_555 1_555
O4 S1 1_555 1_555
O5 S1 1_555 1_555
O6 C13 1_555 1_555
O7 C13 1_555 1_555
O8 Cu2 1_555 1_555
H8 O8 1_555 1_555
O9 Cu2 1_555 1_555
H9 O9 1_555 1_555
S1 C12 1_555 1_555
H10 O8 1_555 1_555
H11 O9 1_555 1_555
C1B H1B 1_555 1_555
C2B C1B 1_555 1_555
H2B C2B 1_555 1_555
C3B C3 1_555 1_555
C4B C3B 1_555 1_555
H3B C4B 1_555 1_555
C5B C4B 1_555 1_555
H4B C5B 1_555 1_555
C6B C7B 1_555 1_555
C7B C8B 1_555 1_555
C8B H5B 1_555 1_555
C9B C8B 1_555 1_555
H6B C9B 1_555 1_555
C10B C9B 1_555 1_555
C11B C10B 1_555 1_555
H7B C11B 1_555 1_555
C12B C7B 1_555 1_555
C13B C10B 1_555 1_555
Cu1_2 N1B 1_555 1_555
Cu2B O2A 1_555 1_555
Cu2_2 O5B 1_555 1_555
Cu2A O2B 1_555 1_555
Cu2B_2 O5 1_555 1_555
Cu2C O2 1_555 1_555
N1B C1B 1_555 1_555
N1B_2 Cu1 1_555 1_555
O1B Cu1 1_555 1_555
O2B C6B 1_555 1_555
O2C Cu2 1_555 1_555
O3B Cu1 1_555 1_555
O4B S1B 1_555 1_555
O5B S1B 1_555 1_555
O5_2 Cu2B 1_555 1_555
O5B_2 Cu2 1_555 1_555
O6B C13B 1_555 1_555
O7B C13B 1_555 1_555
O8B Cu2B 1_555 1_555
H8B O8B 1_555 1_555
O9B Cu2B 1_555 1_555
H9B O9B 1_555 1_555
S1B C12B 1_555 1_555
H10B O8B 1_555 1_555
H11B O9B 1_555 1_555
C5 N1 1_555 1_555
C11 C12 1_555 1_555
Cu1 O1 1_555 1_555
O3 S1 1_555 1_555
C2B C3B 1_555 1_555
C5B N1B 1_555 1_555
C6B O1B 1_555 1_555
C11B C12B 1_555 1_555
Cu2B O7B 1_555 1_555
O3B S1B 1_555 1_555

#END
