
#######################################################################
#
#                 Cambridge Crystallographic Data Centre
#                                CCDC 
#
#######################################################################
#
# If this CIF has been generated from an entry in the Cambridge 
# Structural Database, then it will include bibliographic, chemical, 
# crystal, experimental, refinement or atomic coordinate data resulting 
# from the CCDC's data processing and validation procedures.
#
#######################################################################

data_OPUTOJ
_symmetry_cell_setting           triclinic
_symmetry_space_group_name_H-M   'P -1'
_symmetry_Int_Tables_number      2
_space_group_name_Hall           '-P 1'
loop_
_symmetry_equiv_pos_site_id
_symmetry_equiv_pos_as_xyz
1 x,y,z
2 -x,-y,-z
_cell_length_a                   15.404(3)
_cell_length_b                   20.097(4)
_cell_length_c                   20.436(4)
_cell_angle_alpha                91.924(4)
_cell_angle_beta                 103.382(3)
_cell_angle_gamma                94.405(3)
_cell_volume                     6127.9
loop_
_atom_site_label
_atom_site_type_symbol
_atom_site_fract_x
_atom_site_fract_y
_atom_site_fract_z
N17 N 0.6219(7) 0.6241(4) 0.3265(6)
H101 H 0.5674 0.6014 0.3171
H102 H 0.6223 0.6596 0.3546
H103 H 0.6634 0.5973 0.3462
H104 H 0.6345 0.6382 0.2881
O2 O 0.3052(7) 0.1190(5) 0.0584(5)
H105 H 0.2753 0.1473 0.0348
H106 H 0.3129 0.0868 0.0329
O6 O 0.3549(6) 0.2384(5) 0.6393(5)
H109 H 0.3224 0.2240 0.6012
H110 H 0.3325 0.2228 0.6704
Ag1 Ag 0.74214(5) 0.35626(4) 0.26976(4)
Ag2 Ag 0.70440(4) 0.21415(3) 0.31376(3)
Ag3 Ag 0.72662(5) 0.21751(3) 0.17752(3)
Ag4 Ag 0.39887(5) 0.18266(4) 0.17236(4)
Ag5 Ag 0.43452(5) 0.32956(3) 0.26694(3)
Ag6 Ag 0.49447(4) 0.19046(3) 0.31288(3)
Ag7 Ag 0.56764(4) 0.29167(3) 0.19763(3)
Ag8 Ag 0.61757(5) 0.08393(4) 0.33658(4)
Ag9 Ag 0.63370(6) 0.22527(4) 0.43583(4)
Cu1 Cu 0.5000 0.0000 0.0000
Cu2 Cu 0.86095(9) 0.14013(7) 0.03613(7)
Cu3 Cu 1.11959(10) 0.42216(7) 0.24526(8)
Cu4 Cu 0.5000 0.5000 0.5000
Cu5 Cu 0.52389(10) 0.19777(6) 0.65301(6)
S1 S 0.62644(17) 0.10448(14) 0.45897(13)
S2 S 0.82707(14) 0.31998(11) 0.18876(11)
S3 S 0.30356(14) 0.27274(11) 0.18633(11)
S4 S 0.71125(14) 0.11493(11) 0.24619(12)
S5 S 0.47419(14) 0.28425(11) 0.38364(11)
S6 S 0.46317(16) 0.08340(11) 0.24939(11)
S7 S 0.54722(14) 0.18881(11) 0.13165(11)
S8 S 0.72485(15) 0.31158(11) 0.38781(11)
S9 S 0.58326(14) 0.39783(11) 0.26098(11)
C1 C 0.7421(8) 0.1108(6) 0.5045(6)
C2 C 0.7980(9) 0.0713(6) 0.4805(7)
H1 H 0.7769 0.0432 0.4409
C3 C 0.8932(9) 0.0745(8) 0.5192(8)
H2 H 0.9348 0.0481 0.5051
C4 C 0.9171(8) 0.1136(6) 0.5719(7)
H3 H 0.9782 0.1165 0.5956
C5 C 0.8590(8) 0.1528(6) 0.5974(6)
H4 H 0.8806 0.1787 0.6385
C6 C 0.7728(6) 0.1537(5) 0.5636(5)
C7 C 0.7101(8) 0.1946(6) 0.5880(8)
C8 C 0.5438(8) -0.0347(5) 0.1381(5)
H5 H 0.5041 -0.0759 0.1377
H6 H 0.5651 -0.0167 0.1853
C9 C 0.6222(7) -0.0505(5) 0.1102(5)
H7 H 0.6677 -0.0117 0.1183
H8 H 0.6502 -0.0892 0.1323
C10 C 0.7125(6) 0.3397(5) 0.0648(5)
H9 H 0.6789 0.2998 0.0712
C11 C 0.6852(7) 0.3731(5) 0.0082(5)
H10 H 0.6325 0.3569 -0.0243
C12 C 0.7341(7) 0.4309(5) -0.0022(5)
H11 H 0.7155 0.4539 -0.0422
C13 C 0.8097(7) 0.4553(5) 0.0456(6)
H12 H 0.8421 0.4959 0.0396
C14 C 0.8373(6) 0.4200(5) 0.1014(5)
C15 C 0.7902(5) 0.3631(4) 0.1145(4)
C16 C 0.9252(8) 0.4460(7) 0.1508(6)
C17 C 0.8604(9) 0.0456(7) 0.1352(7)
H13 H 0.8971 0.0225 0.1726
H14 H 0.8010 0.0498 0.1449
C18 C 0.8496(9) 0.0059(8) 0.0723(7)
H15 H 0.9085 -0.0071 0.0673
H16 H 0.8101 -0.0353 0.0724
C19 C 0.2895(6) 0.3165(5) 0.1105(4)
C20 C 0.3525(6) 0.3676(5) 0.1038(5)
H17 H 0.4030 0.3797 0.1399
C21 C 0.3418(8) 0.4013(5) 0.0439(5)
H18 H 0.3840 0.4373 0.0405
C22 C 0.2715(8) 0.3831(6) -0.0098(5)
H19 H 0.2650 0.4056 -0.0505
C23 C 0.2107(9) 0.3318(7) -0.0036(6)
H20 H 0.1624 0.3186 -0.0411
C24 C 0.2173(7) 0.2976(6) 0.0569(5)
C25 C 0.1452(7) 0.2459(6) 0.0614(6)
C26 C 0.8140(10) 0.2416(8) -0.0560(8)
H21 H 0.8115 0.2606 -0.1005
H22 H 0.7589 0.2510 -0.0416
C27 C 0.8940(9) 0.2713(7) -0.0062(7)
H23 H 0.9475 0.2687 -0.0248
H24 H 0.8872 0.3191 0.0032
C28 C 0.8174(6) 0.0915(5) 0.2925(5)
C29 C 0.8929(7) 0.1358(6) 0.3058(6)
H25 H 0.8877 0.1807 0.2933
C30 C 0.9739(8) 0.1171(8) 0.3360(7)
H26 H 1.0243 0.1492 0.3466
C31 C 0.9841(8) 0.0514(8) 0.3519(7)
H27 H 1.0413 0.0380 0.3731
C32 C 0.9127(7) 0.0074(6) 0.3369(7)
H28 H 0.9201 -0.0380 0.3466
C33 C 0.8264(7) 0.0253(5) 0.3071(5)
C34 C 0.7498(8) -0.0281(6) 0.2941(6)
C35 C 1.0593(6) 0.2911(5) 0.2679(5)
H29 H 1.0740 0.2458 0.2815
H30 H 1.0036 0.2868 0.2318
C36 C 1.0453(8) 0.3318(5) 0.3274(5)
H31 H 0.9892 0.3147 0.3392
H32 H 1.0957 0.3282 0.3669
C37 C 0.3670(5) 0.2586(4) 0.3986(4)
C38 C 0.3094(6) 0.2073(4) 0.3590(5)
H33 H 0.3269 0.1849 0.3231
C39 C 0.2269(6) 0.1897(5) 0.3726(5)
H34 H 0.1884 0.1547 0.3459
C40 C 0.1998(6) 0.2215(5) 0.4237(6)
H35 H 0.1433 0.2083 0.4327
C41 C 0.2553(7) 0.2734(5) 0.4624(5)
H36 H 0.2367 0.2965 0.4974
C42 C 0.3392(6) 0.2910(4) 0.4490(4)
C43 C 0.3966(6) 0.3487(4) 0.4913(4)
C44 C 1.1944(8) 0.5523(6) 0.2316(6)
H37 H 1.2517 0.5523 0.2658
H38 H 1.1835 0.5992 0.2217
C45 C 1.1999(7) 0.5146(6) 0.1696(6)
H39 H 1.2551 0.5304 0.1558
H40 H 1.1478 0.5219 0.1327
C46 C 0.3777(6) 0.0466(5) 0.2875(5)
C47 C 0.3910(7) 0.0429(5) 0.3557(5)
H41 H 0.4471 0.0591 0.3841
C48 C 0.3241(9) 0.0160(5) 0.3837(6)
H42 H 0.3352 0.0129 0.4312
C49 C 0.2449(8) -0.0054(6) 0.3459(7)
H43 H 0.2011 -0.0275 0.3655
C50 C 0.2260(9) 0.0043(7) 0.2784(8)
H44 H 0.1670 -0.0063 0.2518
C51 C 0.2941(8) 0.0298(6) 0.2483(6)
C52 C 0.2751(10) 0.0334(7) 0.1727(7)
C53 C 0.6419(8) 0.4153(5) 0.5012(6)
H45 H 0.6124 0.3708 0.4834
H46 H 0.7049 0.4101 0.5241
C54 C 0.5236(6) 0.2128(4) 0.0469(4)
C55 C 0.4532(6) 0.2510(5) 0.0223(5)
H47 H 0.4183 0.2670 0.0513
C56 C 0.4342(7) 0.2657(5) -0.0451(5)
H48 H 0.3859 0.2918 -0.0621
C57 C 0.4856(8) 0.2425(6) -0.0890(5)
H49 H 0.4721 0.2522 -0.1353
C58 C 0.5546(6) 0.2060(5) -0.0629(5)
H50 H 0.5909 0.1919 -0.0917
C59 C 0.5755(6) 0.1878(4) 0.0044(4)
C60 C 0.6494(5) 0.1438(4) 0.0289(4)
C61 C 0.6387(7) 0.4618(6) 0.4445(5)
H51 H 0.6778 0.5033 0.4608
H52 H 0.6603 0.4402 0.4077
C62 C 0.8420(6) 0.3134(5) 0.4297(4)
C63 C 0.8795(6) 0.2567(5) 0.4530(5)
H53 H 0.8440 0.2152 0.4462
C64 C 0.9689(6) 0.2596(6) 0.4868(5)
H54 H 0.9956 0.2200 0.5018
C65 C 1.0186(7) 0.3209(7) 0.4982(5)
H55 H 1.0798 0.3234 0.5216
C66 C 0.9809(7) 0.3777(6) 0.4761(5)
H56 H 1.0155 0.4196 0.4859
C67 C 0.8908(7) 0.3752(5) 0.4390(5)
C68 C 0.8573(6) 0.4397(5) 0.4124(6)
C69 C 0.6299(8) 0.3043(6) 0.7286(6)
H57 H 0.6869 0.2828 0.7368
H58 H 0.6440 0.3531 0.7381
C70 C 0.5753(9) 0.2783(5) 0.7708(6)
H59 H 0.5248 0.3063 0.7689
H60 H 0.6110 0.2805 0.8179
C71 C 0.5519(6) 0.4548(5) 0.1964(4)
C72 C 0.5918(7) 0.4567(5) 0.1415(5)
H61 H 0.6340 0.4257 0.1375
C73 C 0.5713(7) 0.5019(5) 0.0939(5)
H62 H 0.5977 0.5008 0.0563
C74 C 0.5127(7) 0.5496(6) 0.0991(6)
H63 H 0.4997 0.5818 0.0659
C75 C 0.4735(6) 0.5494(5) 0.1537(5)
H64 H 0.4337 0.5822 0.1581
C76 C 0.4915(6) 0.5016(4) 0.2027(4)
C77 C 0.4440(6) 0.5036(5) 0.2589(5)
C78 C 0.4196(8) 0.1372(5) 0.5310(5)
H65 H 0.4107 0.1266 0.4822
H66 H 0.3613 0.1467 0.5401
C79 C 0.4550(8) 0.0802(5) 0.5698(6)
H67 H 0.4105 0.0408 0.5590
H68 H 0.5106 0.0683 0.5574
N1 N 0.5878(5) -0.0663(4) 0.0366(4)
H69 H 0.5601 -0.1090 0.0291
H70 H 0.6345 -0.0636 0.0154
N2 N 0.4937(6) 0.0151(4) 0.0968(4)
H71 H 0.5180 0.0576 0.1124
H72 H 0.4349 0.0111 0.0998
N3 N 0.9051(6) 0.1142(5) 0.1312(5)
H73 H 0.9664 0.1134 0.1415
H74 H 0.8900 0.1442 0.1608
N4 N 0.8109(7) 0.0453(5) 0.0172(5)
H75 H 0.7497 0.0426 0.0115
H76 H 0.8234 0.0289 -0.0219
N5 N 0.8218(8) 0.1671(6) -0.0605(5)
H77 H 0.8635 0.1574 -0.0844
H78 H 0.7676 0.1448 -0.0814
N6 N 0.9062(6) 0.2371(4) 0.0554(4)
H79 H 0.8757 0.2566 0.0836
H80 H 0.9661 0.2405 0.0768
N7 N 0.5945(6) 0.4448(4) 0.5494(4)
H81 H 0.6347 0.4710 0.5822
H82 H 0.5685 0.4112 0.5699
N8 N 1.1318(5) 0.3238(4) 0.2430(5)
H83 H 1.1288 0.3081 0.1996
H84 H 1.1862 0.3150 0.2696
N9 N 1.1217(7) 0.5212(4) 0.2575(5)
H85 H 1.0680 0.5353 0.2348
H86 H 1.1300 0.5334 0.3025
N10 N 1.2007(6) 0.4422(4) 0.1829(4)
H87 H 1.2579 0.4323 0.2024
H88 H 1.1807 0.4168 0.1431
N11 N 0.5479(5) 0.4775(4) 0.4199(4)
H89 H 0.5141 0.4415 0.3951
H90 H 0.5461 0.5132 0.3927
N12 N 1.0404(6) 0.4011(4) 0.3102(5)
H91 H 1.0591 0.4287 0.3485
H92 H 0.9821 0.4085 0.2905
N13 N 0.5806(6) 0.2905(4) 0.6599(5)
H93 H 0.6186 0.2947 0.6312
H94 H 0.5375 0.3201 0.6484
N14 N 0.5395(6) 0.2081(5) 0.7505(4)
H95 H 0.4855 0.1992 0.7618
H96 H 0.5788 0.1790 0.7717
N15 N 0.4848(6) 0.1951(4) 0.5521(4)
H97 H 0.4592 0.2337 0.5382
H98 H 0.5332 0.1913 0.5334
N16 N 0.4741(7) 0.0988(4) 0.6424(5)
H99 H 0.5155 0.0727 0.6662
H100 H 0.4226 0.0935 0.6579
O1 O 0.6870(5) 0.2447(4) 0.5608(4)
O3 O 0.6856(7) 0.1738(5) 0.6428(5)
O4 O 1.0013(9) 0.1037(7) 0.0059(7)
H107 H 1.0415 0.1361 0.0120
H108 H 1.0194 0.0714 0.0298
O5 O 0.9924(5) 0.4130(4) 0.1510(5)
O7 O 0.9276(7) 0.4970(6) 0.1825(6)
O8 O 0.0988(5) 0.2548(4) 0.1023(4)
O9 O 0.1342(8) 0.1970(7) 0.0193(6)
O10 O 0.6814(5) -0.0207(4) 0.3178(4)
O11 O 0.7577(6) -0.0806(4) 0.2611(4)
O12 O 0.4495(4) 0.3359(3) 0.5449(3)
O13 O 0.3876(5) 0.4052(3) 0.4698(3)
O14 O 0.3097(5) -0.0015(4) 0.1379(4)
O15 O 0.2137(11) 0.0694(8) 0.1454(8)
O16 O 0.6317(4) 0.0842(3) 0.0135(4)
O17 O 0.7230(4) 0.1702(3) 0.0622(3)
O18 O 0.8341(5) 0.4417(4) 0.3494(4)
O19 O 0.8581(5) 0.4874(4) 0.4531(4)
O20 O 0.4567(5) 0.5548(3) 0.2978(4)
O21 O 0.3907(4) 0.4541(3) 0.2645(3)
Ag1A Ag 0.25786(5) -0.35626(4) -0.26976(4)
Ag2A Ag 0.29560(4) -0.21415(3) -0.31376(3)
Ag3A Ag 0.27338(5) -0.21751(3) -0.17752(3)
Ag4A Ag 0.60113(5) -0.18266(4) -0.17236(4)
Ag5A Ag 0.56548(5) -0.32956(3) -0.26694(3)
Ag5A_2 Ag 0.56548(5) 0.67044(3) 0.73306(3)
Ag6A Ag 0.50553(4) -0.19046(3) -0.31288(3)
Ag6A_2 Ag 0.50553(4) 0.80954(3) 0.68712(3)
Ag7A Ag 0.43236(4) -0.29167(3) -0.19763(3)
Ag8A Ag 0.38243(5) -0.08393(4) -0.33658(4)
Ag9A Ag 0.36630(6) -0.22527(4) -0.43583(4)
Ag9A_2 Ag 0.36630(6) 0.77473(4) 0.56417(4)
Cu2A Cu 0.13905(9) -0.14013(7) -0.03613(7)
Cu3A Cu -0.11959(10) -0.42216(7) -0.24526(8)
Cu5A Cu 0.47611(10) -0.19777(6) -0.65301(6)
S1A S 0.37356(17) -0.10448(14) -0.45897(13)
S2A S 0.17293(14) -0.31998(11) -0.18876(11)
S3A S 0.69644(14) -0.27274(11) -0.18633(11)
S4A S 0.28875(14) -0.11493(11) -0.24619(12)
S5A S 0.52581(14) 0.71575(11) 0.61636(11)
S5A_2 S 0.52581(14) -0.28425(11) -0.38364(11)
S6A S 0.53683(16) -0.08340(11) -0.24939(11)
S7A S 0.45278(14) -0.18881(11) -0.13165(11)
S8A S 0.27515(15) -0.31158(11) -0.38781(11)
S9A S 0.41674(14) -0.39783(11) -0.26098(11)
C1A C 0.2579(8) -0.1108(6) -0.5045(6)
C2A C 0.2020(9) -0.0713(6) -0.4805(7)
H1A H 0.2231 -0.0432 -0.4409
C3A C 0.1068(9) -0.0745(8) -0.5192(8)
H2A H 0.0652 -0.0481 -0.5051
C4A C 0.0829(8) -0.1136(6) -0.5719(7)
H3A H 0.0218 -0.1165 -0.5956
C5A C 0.1410(8) -0.1528(6) -0.5974(6)
H4A H 0.1194 -0.1787 -0.6385
C6A C 0.2272(6) -0.1537(5) -0.5636(5)
C7A C 0.2899(8) -0.1946(6) -0.5880(8)
C8A C 0.4562(8) 0.0347(5) -0.1381(5)
H5A H 0.4959 0.0759 -0.1377
H6A H 0.4349 0.0167 -0.1853
C9A C 0.3778(7) 0.0505(5) -0.1102(5)
H7A H 0.3323 0.0117 -0.1183
H8A H 0.3498 0.0892 -0.1323
C10A C 0.2875(6) -0.3397(5) -0.0648(5)
H9A H 0.3211 -0.2998 -0.0712
C11A C 0.3148(7) -0.3731(5) -0.0082(5)
H10A H 0.3675 -0.3569 0.0243
C12A C 0.2659(7) -0.4309(5) 0.0022(5)
H11A H 0.2845 -0.4539 0.0422
C13A C 0.1903(7) -0.4553(5) -0.0456(6)
H12A H 0.1579 -0.4959 -0.0396
C14A C 0.1627(6) -0.4200(5) -0.1014(5)
C15A C 0.2098(5) -0.3631(4) -0.1145(4)
C16A C 0.0748(8) -0.4460(7) -0.1508(6)
C17A C 0.1396(9) -0.0456(7) -0.1352(7)
H13A H 0.1029 -0.0225 -0.1726
H14A H 0.1990 -0.0498 -0.1449
C18A C 0.1504(9) -0.0059(8) -0.0723(7)
H15A H 0.0915 0.0071 -0.0673
H16A H 0.1899 0.0353 -0.0724
C19A C 0.7105(6) -0.3165(5) -0.1105(4)
C20A C 0.6475(6) -0.3676(5) -0.1038(5)
H17A H 0.5970 -0.3797 -0.1399
C21A C 0.6582(8) -0.4013(5) -0.0439(5)
H18A H 0.6160 -0.4373 -0.0405
C22A C 0.7285(8) -0.3831(6) 0.0098(5)
H19A H 0.7350 -0.4056 0.0505
C23A C 0.7893(9) -0.3318(7) 0.0036(6)
H20A H 0.8376 -0.3186 0.0411
C24A C 0.7827(7) -0.2976(6) -0.0569(5)
C25A C 0.8548(7) -0.2459(6) -0.0614(6)
C26A C 0.1860(10) -0.2416(8) 0.0560(8)
H21A H 0.1885 -0.2606 0.1005
H22A H 0.2411 -0.2510 0.0416
C27A C 0.1060(9) -0.2713(7) 0.0062(7)
H23A H 0.0525 -0.2687 0.0248
H24A H 0.1128 -0.3191 -0.0032
C28A C 0.1826(6) -0.0915(5) -0.2925(5)
C29A C 0.1071(7) -0.1358(6) -0.3058(6)
H25A H 0.1123 -0.1807 -0.2933
C30A C 0.0261(8) -0.1171(8) -0.3360(7)
H26A H -0.0243 -0.1492 -0.3466
C31A C 0.0159(8) -0.0514(8) -0.3519(7)
H27A H -0.0413 -0.0380 -0.3731
C32A C 0.0873(7) -0.0074(6) -0.3369(7)
H28A H 0.0799 0.0380 -0.3466
C33A C 0.1736(7) -0.0253(5) -0.3071(5)
C34A C 0.2502(8) 0.0281(6) -0.2941(6)
C35A C -0.0593(6) -0.2911(5) -0.2679(5)
H29A H -0.0740 -0.2458 -0.2815
H30A H -0.0036 -0.2868 -0.2318
C36A C -0.0453(8) -0.3318(5) -0.3274(5)
H31A H 0.0108 -0.3147 -0.3392
H32A H -0.0957 -0.3282 -0.3669
C37A C 0.6330(5) 0.7414(4) 0.6014(4)
C38A C 0.6906(6) 0.7927(4) 0.6410(5)
H33A H 0.6731 0.8151 0.6769
C39A C 0.7731(6) 0.8103(5) 0.6274(5)
H34A H 0.8116 0.8453 0.6541
C40A C 0.8002(6) 0.7785(5) 0.5763(6)
H35A H 0.8567 0.7917 0.5673
C41A C 0.7447(7) 0.7266(5) 0.5376(5)
H36A H 0.7633 0.7035 0.5026
C42A C 0.6608(6) 0.7090(4) 0.5510(4)
C43A C 0.6034(6) 0.6513(4) 0.5087(4)
C44A C -0.1944(8) -0.5523(6) -0.2316(6)
H37A H -0.2517 -0.5523 -0.2658
H38A H -0.1835 -0.5992 -0.2217
C45A C -0.1999(7) -0.5146(6) -0.1696(6)
H39A H -0.2551 -0.5304 -0.1558
H40A H -0.1478 -0.5219 -0.1327
C46A C 0.6223(6) -0.0466(5) -0.2875(5)
C47A C 0.6090(7) -0.0429(5) -0.3557(5)
H41A H 0.5529 -0.0591 -0.3841
C48A C 0.6759(9) -0.0160(5) -0.3837(6)
H42A H 0.6648 -0.0129 -0.4312
C49A C 0.7551(8) 0.0054(6) -0.3459(7)
H43A H 0.7989 0.0275 -0.3655
C50A C 0.7740(9) -0.0043(7) -0.2784(8)
H44A H 0.8330 0.0063 -0.2518
C51A C 0.7059(8) -0.0298(6) -0.2483(6)
C52A C 0.7249(10) -0.0334(7) -0.1727(7)
C53A C 0.3581(8) 0.5847(5) 0.4988(6)
H45A H 0.3876 0.6292 0.5166
H46A H 0.2951 0.5899 0.4759
C54A C 0.4764(6) -0.2128(4) -0.0469(4)
C55A C 0.5468(6) -0.2510(5) -0.0223(5)
H47A H 0.5817 -0.2670 -0.0513
C56A C 0.5658(7) -0.2657(5) 0.0451(5)
H48A H 0.6141 -0.2918 0.0621
C57A C 0.5144(8) -0.2425(6) 0.0890(5)
H49A H 0.5279 -0.2522 0.1353
C58A C 0.4454(6) -0.2060(5) 0.0629(5)
H50A H 0.4091 -0.1919 0.0917
C59A C 0.4245(6) -0.1878(4) -0.0044(4)
C60A C 0.3506(5) -0.1438(4) -0.0289(4)
C61A C 0.3613(7) 0.5382(6) 0.5555(5)
H51A H 0.3222 0.4967 0.5392
H52A H 0.3397 0.5598 0.5923
C62A C 0.1580(6) -0.3134(5) -0.4297(4)
C63A C 0.1205(6) -0.2567(5) -0.4530(5)
H53A H 0.1560 -0.2152 -0.4462
C64A C 0.0311(6) -0.2596(6) -0.4868(5)
H54A H 0.0044 -0.2200 -0.5018
C65A C -0.0186(7) -0.3209(7) -0.4982(5)
H55A H -0.0798 -0.3234 -0.5216
C66A C 0.0191(7) -0.3777(6) -0.4761(5)
H56A H -0.0155 -0.4196 -0.4859
C67A C 0.1092(7) -0.3752(5) -0.4390(5)
C68A C 0.1427(6) -0.4397(5) -0.4124(6)
C69A C 0.3701(8) -0.3043(6) -0.7286(6)
H57A H 0.3131 -0.2828 -0.7368
H58A H 0.3560 -0.3531 -0.7381
C70A C 0.4247(9) -0.2783(5) -0.7708(6)
H59A H 0.4752 -0.3063 -0.7689
H60A H 0.3890 -0.2805 -0.8179
C71A C 0.4481(6) -0.4548(5) -0.1964(4)
C72A C 0.4082(7) -0.4567(5) -0.1415(5)
H61A H 0.3660 -0.4257 -0.1375
C73A C 0.4287(7) -0.5019(5) -0.0939(5)
H62A H 0.4023 -0.5008 -0.0563
C74A C 0.4873(7) -0.5496(6) -0.0991(6)
H63A H 0.5003 -0.5818 -0.0659
C75A C 0.5265(6) -0.5494(5) -0.1537(5)
H64A H 0.5663 -0.5822 -0.1581
C76A C 0.5085(6) -0.5016(4) -0.2027(4)
C77A C 0.5560(6) -0.5036(5) -0.2589(5)
C78A C 0.5804(8) -0.1372(5) -0.5310(5)
H65A H 0.5893 -0.1266 -0.4822
H66A H 0.6387 -0.1467 -0.5401
C79A C 0.5450(8) -0.0802(5) -0.5698(6)
H67A H 0.5895 -0.0408 -0.5590
H68A H 0.4894 -0.0683 -0.5574
N1A N 0.4122(5) 0.0663(4) -0.0366(4)
H69A H 0.4399 0.1090 -0.0291
H70A H 0.3655 0.0636 -0.0154
N2A N 0.5063(6) -0.0151(4) -0.0968(4)
H71A H 0.4820 -0.0576 -0.1124
H72A H 0.5651 -0.0111 -0.0998
N3A N 0.0949(6) -0.1142(5) -0.1312(5)
H73A H 0.0336 -0.1134 -0.1415
H74A H 0.1100 -0.1442 -0.1608
N4A N 0.1891(7) -0.0453(5) -0.0172(5)
H75A H 0.2503 -0.0426 -0.0115
H76A H 0.1766 -0.0289 0.0219
N5A N 0.1782(8) -0.1671(6) 0.0605(5)
H77A H 0.1365 -0.1574 0.0844
H78A H 0.2324 -0.1448 0.0814
N6A N 0.0938(6) -0.2371(4) -0.0554(4)
H79A H 0.1243 -0.2566 -0.0836
H80A H 0.0339 -0.2405 -0.0768
N7A N 0.4055(6) 0.5552(4) 0.4506(4)
H81A H 0.3653 0.5290 0.4178
H82A H 0.4315 0.5888 0.4301
N8A N -0.1318(5) -0.3238(4) -0.2430(5)
H83A H -0.1288 -0.3081 -0.1996
H84A H -0.1862 -0.3150 -0.2696
N9A N -0.1217(7) -0.5212(4) -0.2575(5)
H85A H -0.0680 -0.5353 -0.2348
H86A H -0.1300 -0.5334 -0.3025
N10A N -0.2007(6) -0.4422(4) -0.1829(4)
H87A H -0.2579 -0.4323 -0.2024
H88A H -0.1807 -0.4168 -0.1431
N11A N 0.4521(5) 0.5225(4) 0.5801(4)
H89A H 0.4859 0.5585 0.6049
H90A H 0.4539 0.4868 0.6073
N12A N -0.0404(6) -0.4011(4) -0.3102(5)
H91A H -0.0591 -0.4287 -0.3485
H92A H 0.0179 -0.4085 -0.2905
N13A N 0.4194(6) -0.2905(4) -0.6599(5)
H93A H 0.3814 -0.2947 -0.6312
H94A H 0.4625 -0.3201 -0.6484
N14A N 0.4605(6) -0.2081(5) -0.7505(4)
H95A H 0.5145 -0.1992 -0.7618
H96A H 0.4212 -0.1790 -0.7717
N15A N 0.5152(6) -0.1951(4) -0.5521(4)
H97A H 0.5408 -0.2337 -0.5382
H98A H 0.4668 -0.1913 -0.5334
N16A N 0.5259(7) -0.0988(4) -0.6424(5)
H99A H 0.4845 -0.0727 -0.6662
H100A H 0.5774 -0.0935 -0.6579
O1A O 0.3130(5) -0.2447(4) -0.5608(4)
O3A O 0.3144(7) -0.1738(5) -0.6428(5)
O4A O -0.0013(9) -0.1037(7) -0.0059(7)
H107A H -0.0415 -0.1361 -0.0120
H108A H -0.0194 -0.0714 -0.0298
O5A O 0.0076(5) -0.4130(4) -0.1510(5)
O7A O 0.0724(7) -0.4970(6) -0.1825(6)
O8A O 0.9012(5) -0.2548(4) -0.1023(4)
O9A O 0.8658(8) -0.1970(7) -0.0193(6)
O10A O 0.3186(5) 0.0207(4) -0.3178(4)
O11A O 0.2423(6) 0.0806(4) -0.2611(4)
O12A O 0.5505(4) 0.6641(3) 0.4551(3)
O13A O 0.6124(5) 0.5948(3) 0.5302(3)
O14A O 0.6903(5) 0.0015(4) -0.1379(4)
O15A O 0.7863(11) -0.0694(8) -0.1454(8)
O16A O 0.3683(4) -0.0842(3) -0.0135(4)
O17A O 0.2770(4) -0.1702(3) -0.0622(3)
O18A O 0.1659(5) -0.4417(4) -0.3494(4)
O19A O 0.1419(5) -0.4874(4) -0.4531(4)
O20A O 0.5433(5) -0.5548(3) -0.2978(4)
O21A O 0.6093(4) -0.4541(3) -0.2645(3)
loop_
_geom_bond_atom_site_label_1
_geom_bond_atom_site_label_2
_geom_bond_site_symmetry_1
_geom_bond_site_symmetry_2
Ag1 S2 1_555 1_555
Ag2 S4 1_555 1_555
Ag3 S2 1_555 1_555
Ag4 S3 1_555 1_555
Ag5 S3 1_555 1_555
Ag6 S5 1_555 1_555
Ag7 S7 1_555 1_555
Ag8 S1 1_555 1_555
Ag9 S1 1_555 1_555
Cu1 N1 1_555 1_555
Cu2 N3 1_555 1_555
Cu3 N8 1_555 1_555
Cu4 N7 1_555 1_555
Cu5 N13 1_555 1_555
S1 C1 1_555 1_555
S2 C15 1_555 1_555
S3 C19 1_555 1_555
S4 Ag3 1_555 1_555
S5 Ag5 1_555 1_555
S6 Ag4 1_555 1_555
S7 Ag3 1_555 1_555
S8 Ag1 1_555 1_555
S9 Ag1 1_555 1_555
C1 C2 1_555 1_555
C2 H1 1_555 1_555
C3 C2 1_555 1_555
H2 C3 1_555 1_555
C4 C3 1_555 1_555
H3 C4 1_555 1_555
C5 C4 1_555 1_555
H4 C5 1_555 1_555
C6 C1 1_555 1_555
C7 C6 1_555 1_555
C8 H5 1_555 1_555
H6 C8 1_555 1_555
C9 C8 1_555 1_555
H7 C9 1_555 1_555
H8 C9 1_555 1_555
C10 H9 1_555 1_555
C11 C10 1_555 1_555
H10 C11 1_555 1_555
C12 C11 1_555 1_555
H11 C12 1_555 1_555
C13 C12 1_555 1_555
H12 C13 1_555 1_555
C14 C13 1_555 1_555
C15 C10 1_555 1_555
C16 C14 1_555 1_555
C17 H13 1_555 1_555
H14 C17 1_555 1_555
C18 C17 1_555 1_555
H15 C18 1_555 1_555
H16 C18 1_555 1_555
C19 C20 1_555 1_555
C20 H17 1_555 1_555
C21 C20 1_555 1_555
H18 C21 1_555 1_555
C22 C21 1_555 1_555
H19 C22 1_555 1_555
C23 C22 1_555 1_555
H20 C23 1_555 1_555
C24 C19 1_555 1_555
C25 C24 1_555 1_555
C26 H21 1_555 1_555
H22 C26 1_555 1_555
C27 C26 1_555 1_555
H23 C27 1_555 1_555
H24 C27 1_555 1_555
C28 S4 1_555 1_555
C29 C28 1_555 1_555
H25 C29 1_555 1_555
C30 C29 1_555 1_555
H26 C30 1_555 1_555
C31 C30 1_555 1_555
H27 C31 1_555 1_555
C32 C31 1_555 1_555
H28 C32 1_555 1_555
C33 C28 1_555 1_555
C34 C33 1_555 1_555
C35 H29 1_555 1_555
H30 C35 1_555 1_555
C36 C35 1_555 1_555
H31 C36 1_555 1_555
H32 C36 1_555 1_555
C37 S5 1_555 1_555
C38 C37 1_555 1_555
H33 C38 1_555 1_555
C39 C38 1_555 1_555
H34 C39 1_555 1_555
C40 C39 1_555 1_555
H35 C40 1_555 1_555
C41 C40 1_555 1_555
H36 C41 1_555 1_555
C42 C37 1_555 1_555
C43 C42 1_555 1_555
C44 H37 1_555 1_555
H38 C44 1_555 1_555
C45 C44 1_555 1_555
H39 C45 1_555 1_555
H40 C45 1_555 1_555
C46 S6 1_555 1_555
C47 C46 1_555 1_555
H41 C47 1_555 1_555
C48 C47 1_555 1_555
H42 C48 1_555 1_555
C49 C48 1_555 1_555
H43 C49 1_555 1_555
C50 C49 1_555 1_555
H44 C50 1_555 1_555
C51 C46 1_555 1_555
C52 C51 1_555 1_555
C53 H45 1_555 1_555
H46 C53 1_555 1_555
C54 S7 1_555 1_555
C55 C54 1_555 1_555
H47 C55 1_555 1_555
C56 C55 1_555 1_555
H48 C56 1_555 1_555
C57 C56 1_555 1_555
H49 C57 1_555 1_555
C58 C57 1_555 1_555
H50 C58 1_555 1_555
C59 C54 1_555 1_555
C60 C59 1_555 1_555
C61 C53 1_555 1_555
H51 C61 1_555 1_555
H52 C61 1_555 1_555
C62 S8 1_555 1_555
C63 C62 1_555 1_555
H53 C63 1_555 1_555
C64 C63 1_555 1_555
H54 C64 1_555 1_555
C65 C64 1_555 1_555
H55 C65 1_555 1_555
C66 C65 1_555 1_555
H56 C66 1_555 1_555
C67 C62 1_555 1_555
C68 C67 1_555 1_555
C69 H57 1_555 1_555
H58 C69 1_555 1_555
C70 C69 1_555 1_555
H59 C70 1_555 1_555
H60 C70 1_555 1_555
C71 S9 1_555 1_555
C72 C71 1_555 1_555
H61 C72 1_555 1_555
C73 C72 1_555 1_555
H62 C73 1_555 1_555
C74 C73 1_555 1_555
H63 C74 1_555 1_555
C75 C74 1_555 1_555
H64 C75 1_555 1_555
C76 C71 1_555 1_555
C77 C76 1_555 1_555
C78 H65 1_555 1_555
H66 C78 1_555 1_555
C79 C78 1_555 1_555
H67 C79 1_555 1_555
H68 C79 1_555 1_555
N1 C9 1_555 1_555
H69 N1 1_555 1_555
H70 N1 1_555 1_555
N2 Cu1 1_555 1_555
H71 N2 1_555 1_555
H72 N2 1_555 1_555
N3 C17 1_555 1_555
H73 N3 1_555 1_555
H74 N3 1_555 1_555
N4 Cu2 1_555 1_555
H75 N4 1_555 1_555
H76 N4 1_555 1_555
N5 Cu2 1_555 1_555
H77 N5 1_555 1_555
H78 N5 1_555 1_555
N6 Cu2 1_555 1_555
H79 N6 1_555 1_555
H80 N6 1_555 1_555
N7 C53 1_555 1_555
H81 N7 1_555 1_555
H82 N7 1_555 1_555
N8 C35 1_555 1_555
H83 N8 1_555 1_555
H84 N8 1_555 1_555
N9 Cu3 1_555 1_555
H85 N9 1_555 1_555
H86 N9 1_555 1_555
N10 Cu3 1_555 1_555
H87 N10 1_555 1_555
H88 N10 1_555 1_555
N11 Cu4 1_555 1_555
H89 N11 1_555 1_555
H90 N11 1_555 1_555
N12 Cu3 1_555 1_555
H91 N12 1_555 1_555
H92 N12 1_555 1_555
N13 C69 1_555 1_555
H93 N13 1_555 1_555
H94 N13 1_555 1_555
N14 Cu5 1_555 1_555
H95 N14 1_555 1_555
H96 N14 1_555 1_555
N15 Cu5 1_555 1_555
H97 N15 1_555 1_555
H98 N15 1_555 1_555
N16 Cu5 1_555 1_555
H99 N16 1_555 1_555
H100 N16 1_555 1_555
N17 H101 1_555 1_555
H102 N17 1_555 1_555
H103 N17 1_555 1_555
H104 N17 1_555 1_555
O1 Ag9 1_555 1_555
O2 H105 1_555 1_555
H106 O2 1_555 1_555
O3 Cu5 1_555 1_555
O4 Cu2 1_555 1_555
H107 O4 1_555 1_555
H108 O4 1_555 1_555
O5 Cu3 1_555 1_555
O6 H109 1_555 1_555
H110 O6 1_555 1_555
O7 C16 1_555 1_555
O8 C25 1_555 1_555
O9 C25 1_555 1_555
O10 Ag8 1_555 1_555
O11 C34 1_555 1_555
O12 C43 1_555 1_555
O13 Cu4 1_555 1_555
O14 C52 1_555 1_555
O15 C52 1_555 1_555
O16 Cu1 1_555 1_555
O17 Ag3 1_555 1_555
O18 Ag1 1_555 1_555
O19 C68 1_555 1_555
O20 C77 1_555 1_555
O21 C77 1_555 1_555
Ag1A S2A 1_555 1_555
Ag2A S4A 1_555 1_555
Ag3A S2A 1_555 1_555
Ag4A S3A 1_555 1_555
Ag5A S3A 1_555 1_555
Ag5A_2 S5A 1_555 1_555
Ag6A S5A_2 1_555 1_555
Ag6A_2 S5A 1_555 1_555
Ag7A S7A 1_555 1_555
Ag8A S1A 1_555 1_555
Ag9A S1A 1_555 1_555
Ag9A_2 S5A 1_555 1_555
Cu2A N3A 1_555 1_555
Cu3A N8A 1_555 1_555
Cu5A N13A 1_555 1_555
S1A C1A 1_555 1_555
S2A C15A 1_555 1_555
S3A C19A 1_555 1_555
S4A Ag3A 1_555 1_555
S5A C37A 1_555 1_555
S5A_2 Ag5A 1_555 1_555
S6A Ag4A 1_555 1_555
S7A Ag3A 1_555 1_555
S8A Ag1A 1_555 1_555
S9A Ag1A 1_555 1_555
C1A C2A 1_555 1_555
C2A H1A 1_555 1_555
C3A C2A 1_555 1_555
H2A C3A 1_555 1_555
C4A C3A 1_555 1_555
H3A C4A 1_555 1_555
C5A C4A 1_555 1_555
H4A C5A 1_555 1_555
C6A C1A 1_555 1_555
C7A C6A 1_555 1_555
C8A H5A 1_555 1_555
H6A C8A 1_555 1_555
C9A C8A 1_555 1_555
H7A C9A 1_555 1_555
H8A C9A 1_555 1_555
C10A H9A 1_555 1_555
C11A C10A 1_555 1_555
H10A C11A 1_555 1_555
C12A C11A 1_555 1_555
H11A C12A 1_555 1_555
C13A C12A 1_555 1_555
H12A C13A 1_555 1_555
C14A C13A 1_555 1_555
C15A C10A 1_555 1_555
C16A C14A 1_555 1_555
C17A H13A 1_555 1_555
H14A C17A 1_555 1_555
C18A C17A 1_555 1_555
H15A C18A 1_555 1_555
H16A C18A 1_555 1_555
C19A C20A 1_555 1_555
C20A H17A 1_555 1_555
C21A C20A 1_555 1_555
H18A C21A 1_555 1_555
C22A C21A 1_555 1_555
H19A C22A 1_555 1_555
C23A C22A 1_555 1_555
H20A C23A 1_555 1_555
C24A C19A 1_555 1_555
C25A C24A 1_555 1_555
C26A H21A 1_555 1_555
H22A C26A 1_555 1_555
C27A C26A 1_555 1_555
H23A C27A 1_555 1_555
H24A C27A 1_555 1_555
C28A S4A 1_555 1_555
C29A C28A 1_555 1_555
H25A C29A 1_555 1_555
C30A C29A 1_555 1_555
H26A C30A 1_555 1_555
C31A C30A 1_555 1_555
H27A C31A 1_555 1_555
C32A C31A 1_555 1_555
H28A C32A 1_555 1_555
C33A C28A 1_555 1_555
C34A C33A 1_555 1_555
C35A H29A 1_555 1_555
H30A C35A 1_555 1_555
C36A C35A 1_555 1_555
H31A C36A 1_555 1_555
H32A C36A 1_555 1_555
C37A C38A 1_555 1_555
C38A H33A 1_555 1_555
C39A C38A 1_555 1_555
H34A C39A 1_555 1_555
C40A C39A 1_555 1_555
H35A C40A 1_555 1_555
C41A C40A 1_555 1_555
H36A C41A 1_555 1_555
C42A C37A 1_555 1_555
C43A C42A 1_555 1_555
C44A H37A 1_555 1_555
H38A C44A 1_555 1_555
C45A C44A 1_555 1_555
H39A C45A 1_555 1_555
H40A C45A 1_555 1_555
C46A S6A 1_555 1_555
C47A C46A 1_555 1_555
H41A C47A 1_555 1_555
C48A C47A 1_555 1_555
H42A C48A 1_555 1_555
C49A C48A 1_555 1_555
H43A C49A 1_555 1_555
C50A C49A 1_555 1_555
H44A C50A 1_555 1_555
C51A C46A 1_555 1_555
C52A C51A 1_555 1_555
C53A H45A 1_555 1_555
H46A C53A 1_555 1_555
C54A S7A 1_555 1_555
C55A C54A 1_555 1_555
H47A C55A 1_555 1_555
C56A C55A 1_555 1_555
H48A C56A 1_555 1_555
C57A C56A 1_555 1_555
H49A C57A 1_555 1_555
C58A C57A 1_555 1_555
H50A C58A 1_555 1_555
C59A C54A 1_555 1_555
C60A C59A 1_555 1_555
C61A C53A 1_555 1_555
H51A C61A 1_555 1_555
H52A C61A 1_555 1_555
C62A S8A 1_555 1_555
C63A C62A 1_555 1_555
H53A C63A 1_555 1_555
C64A C63A 1_555 1_555
H54A C64A 1_555 1_555
C65A C64A 1_555 1_555
H55A C65A 1_555 1_555
C66A C65A 1_555 1_555
H56A C66A 1_555 1_555
C67A C62A 1_555 1_555
C68A C67A 1_555 1_555
C69A H57A 1_555 1_555
H58A C69A 1_555 1_555
C70A C69A 1_555 1_555
H59A C70A 1_555 1_555
H60A C70A 1_555 1_555
C71A S9A 1_555 1_555
C72A C71A 1_555 1_555
H61A C72A 1_555 1_555
C73A C72A 1_555 1_555
H62A C73A 1_555 1_555
C74A C73A 1_555 1_555
H63A C74A 1_555 1_555
C75A C74A 1_555 1_555
H64A C75A 1_555 1_555
C76A C71A 1_555 1_555
C77A C76A 1_555 1_555
C78A H65A 1_555 1_555
H66A C78A 1_555 1_555
C79A C78A 1_555 1_555
H67A C79A 1_555 1_555
H68A C79A 1_555 1_555
N1A Cu1 1_555 1_555
H69A N1A 1_555 1_555
H70A N1A 1_555 1_555
N2A Cu1 1_555 1_555
H71A N2A 1_555 1_555
H72A N2A 1_555 1_555
N3A C17A 1_555 1_555
H73A N3A 1_555 1_555
H74A N3A 1_555 1_555
N4A Cu2A 1_555 1_555
H75A N4A 1_555 1_555
H76A N4A 1_555 1_555
N5A Cu2A 1_555 1_555
H77A N5A 1_555 1_555
H78A N5A 1_555 1_555
N6A Cu2A 1_555 1_555
H79A N6A 1_555 1_555
H80A N6A 1_555 1_555
N7A Cu4 1_555 1_555
H81A N7A 1_555 1_555
H82A N7A 1_555 1_555
N8A C35A 1_555 1_555
H83A N8A 1_555 1_555
H84A N8A 1_555 1_555
N9A Cu3A 1_555 1_555
H85A N9A 1_555 1_555
H86A N9A 1_555 1_555
N10A Cu3A 1_555 1_555
H87A N10A 1_555 1_555
H88A N10A 1_555 1_555
N11A Cu4 1_555 1_555
H89A N11A 1_555 1_555
H90A N11A 1_555 1_555
N12A Cu3A 1_555 1_555
H91A N12A 1_555 1_555
H92A N12A 1_555 1_555
N13A C69A 1_555 1_555
H93A N13A 1_555 1_555
H94A N13A 1_555 1_555
N14A Cu5A 1_555 1_555
H95A N14A 1_555 1_555
H96A N14A 1_555 1_555
N15A Cu5A 1_555 1_555
H97A N15A 1_555 1_555
H98A N15A 1_555 1_555
N16A Cu5A 1_555 1_555
H99A N16A 1_555 1_555
H100A N16A 1_555 1_555
O1A Ag9A 1_555 1_555
O3A Cu5A 1_555 1_555
O4A Cu2A 1_555 1_555
H107A O4A 1_555 1_555
H108A O4A 1_555 1_555
O5A Cu3A 1_555 1_555
O7A C16A 1_555 1_555
O8A C25A 1_555 1_555
O9A C25A 1_555 1_555
O10A Ag8A 1_555 1_555
O11A C34A 1_555 1_555
O12A C43A 1_555 1_555
O13A Cu4 1_555 1_555
O14A C52A 1_555 1_555
O15A C52A 1_555 1_555
O16A Cu1 1_555 1_555
O17A Ag3A 1_555 1_555
O18A Ag1A 1_555 1_555
O19A C68A 1_555 1_555
O20A C77A 1_555 1_555
O21A C77A 1_555 1_555
Ag2 S8 1_555 1_555
Ag4 S7 1_555 1_555
Ag5 S9 1_555 1_555
Ag6 S6 1_555 1_555
Ag7 S9 1_555 1_555
Ag8 S4 1_555 1_555
Ag8 S6 1_555 1_555
Ag9 S5 1_555 1_555
Ag9 S8 1_555 1_555
Cu2 O17 1_555 1_555
C5 C6 1_555 1_555
C7 O1 1_555 1_555
C7 O3 1_555 1_555
C8 N2 1_555 1_555
C14 C15 1_555 1_555
C16 O5 1_555 1_555
C18 N4 1_555 1_555
C23 C24 1_555 1_555
C26 N5 1_555 1_555
C27 N6 1_555 1_555
C32 C33 1_555 1_555
C34 O10 1_555 1_555
C36 N12 1_555 1_555
C41 C42 1_555 1_555
C43 O13 1_555 1_555
C44 N9 1_555 1_555
C45 N10 1_555 1_555
C50 C51 1_555 1_555
C58 C59 1_555 1_555
C60 O16 1_555 1_555
C60 O17 1_555 1_555
C61 N11 1_555 1_555
C66 C67 1_555 1_555
C68 O18 1_555 1_555
C70 N14 1_555 1_555
C75 C76 1_555 1_555
C78 N15 1_555 1_555
C79 N16 1_555 1_555
Ag2A S8A 1_555 1_555
Ag4A S7A 1_555 1_555
Ag5A S9A 1_555 1_555
Ag6A S6A 1_555 1_555
Ag7A S9A 1_555 1_555
Ag8A S4A 1_555 1_555
Ag8A S6A 1_555 1_555
Ag9A S5A_2 1_555 1_555
Ag9A S8A 1_555 1_555
Cu2A O17A 1_555 1_555
C5A C6A 1_555 1_555
C7A O1A 1_555 1_555
C7A O3A 1_555 1_555
C8A N2A 1_555 1_555
C9A N1A 1_555 1_555
C14A C15A 1_555 1_555
C16A O5A 1_555 1_555
C18A N4A 1_555 1_555
C23A C24A 1_555 1_555
C26A N5A 1_555 1_555
C27A N6A 1_555 1_555
C32A C33A 1_555 1_555
C34A O10A 1_555 1_555
C36A N12A 1_555 1_555
C41A C42A 1_555 1_555
C43A O13A 1_555 1_555
C44A N9A 1_555 1_555
C45A N10A 1_555 1_555
C50A C51A 1_555 1_555
C53A N7A 1_555 1_555
C58A C59A 1_555 1_555
C60A O16A 1_555 1_555
C60A O17A 1_555 1_555
C61A N11A 1_555 1_555
C66A C67A 1_555 1_555
C68A O18A 1_555 1_555
C70A N14A 1_555 1_555
C75A C76A 1_555 1_555
C78A N15A 1_555 1_555
C79A N16A 1_555 1_555

#END
