
#######################################################################
#
#                 Cambridge Crystallographic Data Centre
#                                CCDC 
#
#######################################################################
#
# If this CIF has been generated from an entry in the Cambridge 
# Structural Database, then it will include bibliographic, chemical, 
# crystal, experimental, refinement or atomic coordinate data resulting 
# from the CCDC's data processing and validation procedures.
#
#######################################################################

data_OPUTID01
_symmetry_cell_setting           monoclinic
_symmetry_space_group_name_H-M   'P 21/c'
_symmetry_Int_Tables_number      14
_space_group_name_Hall           '-P 2ybc'
loop_
_symmetry_equiv_pos_site_id
_symmetry_equiv_pos_as_xyz
1 x,y,z
2 -x,1/2+y,1/2-z
3 -x,-y,-z
4 x,1/2-y,1/2+z
_cell_length_a                   11.017(5)
_cell_length_b                   11.814(5)
_cell_length_c                   12.135(5)
_cell_angle_alpha                90
_cell_angle_beta                 109.701(5)
_cell_angle_gamma                90
_cell_volume                     1486.98
loop_
_atom_site_label
_atom_site_type_symbol
_atom_site_fract_x
_atom_site_fract_y
_atom_site_fract_z
Cu1 Cu 0.68186(2) 0.865763(19) 0.49489(2)
Cu2 Cu 1.5000 1.0000 1.0000
S1 S 1.38017(4) 0.92323(4) 0.71439(4)
N1 N 1.32306(15) 0.99624(13) 1.00573(14)
O1 O 0.70366(14) 0.75937(14) 0.37733(14)
H1 H 0.6271(18) 0.731(3) 0.328(2)
H2 H 0.765(2) 0.757(3) 0.343(2)
O2 O 0.65072(14) 0.95708(12) 0.62065(13)
H3 H 0.608(3) 0.9101(19) 0.655(2)
H4 H 0.603(3) 1.0232(17) 0.599(3)
O3 O 0.86627(14) 0.86743(13) 0.57383(13)
O4 O 0.82478(14) 0.77433(13) 0.71737(14)
O5 O 1.49230(13) 0.65387(11) 0.91923(13)
O6 O 1.51371(13) 0.82814(11) 0.98913(12)
O7 O 1.42411(14) 1.01377(12) 0.80019(12)
O8 O 1.48285(14) 0.84355(13) 0.71709(14)
O9 O 1.31193(14) 0.96651(12) 0.59758(12)
C1 C 0.90032(18) 0.81713(16) 0.67288(17)
C2 C 1.04385(17) 0.80515(16) 0.73569(17)
C3 C 1.08590(18) 0.73539(17) 0.83404(17)
H5 H 1.0245 0.7002 0.8622
C4 C 1.13440(18) 0.85870(15) 0.69621(17)
H6 H 1.1068 0.9051 0.6283
C5 C 1.21637(18) 0.71682(17) 0.89115(17)
H7 H 1.2436 0.6664 0.9559
C6 C 1.26568(17) 0.84384(15) 0.75682(16)
C7 C 1.30790(17) 0.77169(15) 0.85411(16)
C8 C 1.44803(16) 0.75250(15) 0.92556(16)
C9 C 1.23126(18) 1.05273(17) 0.92261(18)
H8 H 1.2547 1.0935 0.8653
C10 C 1.28955(18) 0.94270(19) 1.08869(18)
H9 H 1.3538 0.9026 1.1482
C11 C 1.16497(19) 0.9439(2) 1.09053(19)
H10 H 1.1450 0.9068 1.1518
C12 C 1.10408(18) 1.05388(17) 0.91706(18)
H11 H 1.0411 1.0920 0.8547
C13 C 1.06840(17) 0.99959(16) 1.00214(17)
N1B N 0.67694(15) 1.00376(13) 0.99427(14)
C9B C 0.76874(18) 0.94727(17) 1.07739(18)
H8B H 0.7453 0.9065 1.1347
C10B C 0.71045(18) 1.05730(19) 0.91131(18)
H9B H 0.6462 1.0974 0.8518
C11B C 0.83503(19) 1.0561(2) 0.90947(19)
H10B H 0.8550 1.0932 0.8482
C12B C 0.89592(18) 0.94612(17) 1.08294(18)
H11B H 0.9589 0.9080 1.1453
C13B C 0.93160(17) 1.00041(16) 0.99786(17)
Cu1B Cu 1.31814(2) 1.134237(19) 0.50511(2)
S1B S 0.61983(4) 1.07677(4) 0.28561(4)
O1B O 1.29634(14) 1.24063(14) 0.62267(14)
H1B H 1.3729(18) 1.269(3) 0.672(2)
H2B H 1.235(2) 1.243(3) 0.657(2)
O2B O 1.34928(14) 1.04292(12) 0.37935(13)
H3B H 1.392(3) 1.0899(19) 0.345(2)
H4B H 1.397(3) 0.9768(17) 0.401(3)
O3B O 1.13373(14) 1.13257(13) 0.42617(13)
O4B O 1.17522(14) 1.22567(13) 0.28263(14)
O5B O 0.50770(13) 1.34613(11) 0.08077(13)
O6B O 0.48629(13) 1.17186(11) 0.01087(12)
O7B O 0.57589(14) 0.98623(12) 0.19981(12)
O8B O 0.51715(14) 1.15645(13) 0.28291(14)
O9B O 0.68807(14) 1.03349(12) 0.40242(12)
C1B C 1.09968(18) 1.18287(16) 0.32712(17)
C2B C 0.95615(17) 1.19485(16) 0.26431(17)
C3B C 0.91410(18) 1.26461(17) 0.16596(17)
H5B H 0.9755 1.2998 0.1378
C4B C 0.86560(18) 1.14130(15) 0.30379(17)
H6B H 0.8932 1.0949 0.3717
C5B C 0.78363(18) 1.28318(17) 0.10885(17)
H7B H 0.7564 1.3336 0.0441
C6B C 0.73432(17) 1.15616(15) 0.24318(16)
C7B C 0.69210(17) 1.22831(15) 0.14589(16)
C8B C 0.55197(16) 1.24750(15) 0.07444(16)
Cu1A Cu 0.31814(2) 1.365763(19) 0.00511(2)
Cu1C Cu 1.68186(2) 0.634237(19) 0.99489(2)
Cu2_2 Cu 0.5000 1.0000 0.0000
Cu2_3 Cu 0.5000 1.0000 1.0000
N1B_2 N 1.67694(15) 1.00376(13) 0.99427(14)
O5A O 1.50770(13) 1.15387(11) 0.58077(13)
O5C O 0.49230(13) 0.84613(11) 0.41923(13)
O6B_2 O 1.48629(13) 1.17186(11) 1.01087(12)
O7B_2 O 1.57589(14) 0.98623(12) 1.19981(12)
loop_
_geom_bond_atom_site_label_1
_geom_bond_atom_site_label_2
_geom_bond_site_symmetry_1
_geom_bond_site_symmetry_2
Cu1 O1 1_555 1_555
Cu2 N1 1_555 1_555
S1 O7 1_555 1_555
N1 C9 1_555 1_555
O1 H1 1_555 1_555
H2 O1 1_555 1_555
O2 Cu1 1_555 1_555
H3 O2 1_555 1_555
H4 O2 1_555 1_555
O3 Cu1 1_555 1_555
O4 C1 1_555 1_555
O5 C8 1_555 1_555
O6 Cu2 1_555 1_555
O7 Cu2 1_555 1_555
O8 S1 1_555 1_555
O9 S1 1_555 1_555
C1 O3 1_555 1_555
C2 C1 1_555 1_555
C3 C2 1_555 1_555
H5 C3 1_555 1_555
C4 C2 1_555 1_555
H6 C4 1_555 1_555
C5 C3 1_555 1_555
H7 C5 1_555 1_555
C6 S1 1_555 1_555
C7 C5 1_555 1_555
C8 O6 1_555 1_555
C9 H8 1_555 1_555
C10 N1 1_555 1_555
H9 C10 1_555 1_555
C11 C10 1_555 1_555
H10 C11 1_555 1_555
C12 C9 1_555 1_555
H11 C12 1_555 1_555
C13 C11 1_555 1_555
N1B C9B 1_555 1_555
C9B H8B 1_555 1_555
C10B N1B 1_555 1_555
H9B C10B 1_555 1_555
C11B C10B 1_555 1_555
H10B C11B 1_555 1_555
C12B C9B 1_555 1_555
H11B C12B 1_555 1_555
C13B C13 1_555 1_555
Cu1B O9 1_555 1_555
S1B O7B 1_555 1_555
O1B Cu1B 1_555 1_555
H1B O1B 1_555 1_555
H2B O1B 1_555 1_555
O2B Cu1B 1_555 1_555
H3B O2B 1_555 1_555
H4B O2B 1_555 1_555
O3B Cu1B 1_555 1_555
O4B C1B 1_555 1_555
O5B C8B 1_555 1_555
O6B C8B 1_555 1_555
O7B Cu2_2 1_555 1_555
O8B S1B 1_555 1_555
O9B Cu1 1_555 1_555
C1B O3B 1_555 1_555
C2B C1B 1_555 1_555
C3B C2B 1_555 1_555
H5B C3B 1_555 1_555
C4B C2B 1_555 1_555
H6B C4B 1_555 1_555
C5B C3B 1_555 1_555
H7B C5B 1_555 1_555
C6B S1B 1_555 1_555
C7B C5B 1_555 1_555
C8B C7B 1_555 1_555
Cu1A O5B 1_555 1_555
Cu1C O5 1_555 1_555
Cu2_2 O6B 1_555 1_555
Cu2_3 N1B 1_555 1_555
N1B_2 Cu2 1_555 1_555
O5A Cu1B 1_555 1_555
O5C Cu1 1_555 1_555
O6B_2 Cu2 1_555 1_555
O7B_2 Cu2 1_555 1_555
C4 C6 1_555 1_555
C6 C7 1_555 1_555
C7 C8 1_555 1_555
C12 C13 1_555 1_555
C11B C13B 1_555 1_555
C12B C13B 1_555 1_555
S1B O9B 1_555 1_555
C4B C6B 1_555 1_555
C6B C7B 1_555 1_555

#END
