
#######################################################################
#
#                 Cambridge Crystallographic Data Centre
#                                CCDC 
#
#######################################################################
#
# If this CIF has been generated from an entry in the Cambridge 
# Structural Database, then it will include bibliographic, chemical, 
# crystal, experimental, refinement or atomic coordinate data resulting 
# from the CCDC's data processing and validation procedures.
#
#######################################################################

data_OPUXUT
_symmetry_cell_setting           monoclinic
_symmetry_space_group_name_H-M   'P 21/c'
_symmetry_Int_Tables_number      14
_space_group_name_Hall           '-P 2ybc'
loop_
_symmetry_equiv_pos_site_id
_symmetry_equiv_pos_as_xyz
1 x,y,z
2 -x,1/2+y,1/2-z
3 -x,-y,-z
4 x,1/2-y,1/2+z
_cell_length_a                   11.302(4)
_cell_length_b                   9.866(3)
_cell_length_c                   19.300(5)
_cell_angle_alpha                90
_cell_angle_beta                 107.972(15)
_cell_angle_gamma                90
_cell_volume                     2047.05
loop_
_atom_site_label
_atom_site_type_symbol
_atom_site_fract_x
_atom_site_fract_y
_atom_site_fract_z
Ag1 Ag -0.35507(2) 1.10689(2) 0.994821(12)
C1 C -0.2359(2) 1.0652(2) 0.86876(12)
C2 C -0.3055(2) 1.1678(3) 0.82440(14)
H1 H -0.3737 1.2071 0.8338
C3 C -0.2683(2) 1.2069(3) 0.76699(14)
H2 H -0.3110 1.2762 0.7368
C4 C -0.1672(3) 1.1453(3) 0.75220(14)
H3 H -0.1458 1.1747 0.7118
C5 C -0.0982(2) 1.0442(3) 0.79414(14)
H4 H -0.0315 1.0037 0.7835
C6 C -0.1348(2) 1.0060(2) 0.85421(12)
C7 C 0.0169(2) 0.8256(2) 0.92239(15)
H5 H 0.0489 0.8042 0.9739
H6 H 0.0825 0.8709 0.9086
C8 C -0.0168(2) 0.6959(2) 0.87966(16)
H7 H -0.0571 0.7160 0.8286
H8 H 0.0575 0.6432 0.8838
C9 C -0.1288(2) 0.4907(2) 0.87668(14)
H9 H -0.1559 0.4993 0.8240
H10 H -0.1980 0.4548 0.8907
C10 C -0.0230(2) 0.3917(2) 0.89898(14)
H11 H 0.0229 0.4046 0.9500
H12 H -0.0554 0.2999 0.8928
C11 C 0.1570(2) 0.3155(2) 0.87222(13)
H13 H 0.1919 0.3142 0.8322
H14 H 0.1241 0.2259 0.8758
C12 C 0.2599(2) 0.3456(2) 0.94196(14)
H15 H 0.2254 0.3472 0.9822
H16 H 0.3211 0.2734 0.9511
C13 C 0.40230(19) 0.5078(2) 0.90238(12)
C14 C 0.4516(2) 0.4358(3) 0.85492(14)
H17 H 0.4309 0.3458 0.8425
C15 C 0.5319(2) 0.5066(3) 0.82816(15)
H18 H 0.5660 0.4634 0.7960
C16 C 0.5651(2) 0.6425(3) 0.84736(15)
H19 H 0.6214 0.6852 0.8282
C17 C 0.5171(2) 0.7128(3) 0.89314(13)
H20 H 0.5390 0.8025 0.9056
C18 C 0.4329(2) 0.6429(2) 0.92055(12)
O1 O -0.09813(16) 0.62233(15) 0.90822(10)
O2 O 0.05813(14) 0.41029(14) 0.85625(9)
O3 O -0.41448(18) 0.9482(2) 1.07406(11)
O4 O -0.24953(19) 1.0340(2) 1.14724(12)
O5 O -0.3610(3) 0.9008(2) 1.18817(13)
N1 N -0.24586(18) 1.00956(19) 0.93203(11)
N2 N -0.1557(2) 0.92043(19) 0.95663(12)
N3 N -0.08895(19) 0.91722(18) 0.91017(11)
N4 N 0.32115(16) 0.47491(18) 0.93910(10)
N5 N 0.30068(19) 0.58205(19) 0.97700(11)
N6 N 0.36791(17) 0.68388(19) 0.96626(10)
N7 N -0.3416(2) 0.9619(2) 1.13764(12)
Ag1B Ag -0.64493(2) 0.89311(2) 1.005179(12)
Ag1B_2 Ag 0.35507(2) 0.89311(2) 1.005179(12)
O3B O -0.58552(18) 1.0518(2) 0.92594(11)
N6B N -0.36791(17) 1.31612(19) 1.03374(10)
loop_
_geom_bond_atom_site_label_1
_geom_bond_atom_site_label_2
_geom_bond_site_symmetry_1
_geom_bond_site_symmetry_2
Ag1 O3 1_555 1_555
C1 C2 1_555 1_555
C2 H1 1_555 1_555
C3 C2 1_555 1_555
H2 C3 1_555 1_555
C4 C3 1_555 1_555
H3 C4 1_555 1_555
C5 C4 1_555 1_555
H4 C5 1_555 1_555
C6 C1 1_555 1_555
C7 H5 1_555 1_555
H6 C7 1_555 1_555
C8 C7 1_555 1_555
H7 C8 1_555 1_555
H8 C8 1_555 1_555
C9 H9 1_555 1_555
H10 C9 1_555 1_555
C10 C9 1_555 1_555
H11 C10 1_555 1_555
H12 C10 1_555 1_555
C11 H13 1_555 1_555
H14 C11 1_555 1_555
C12 C11 1_555 1_555
H15 C12 1_555 1_555
H16 C12 1_555 1_555
C13 C14 1_555 1_555
C14 H17 1_555 1_555
C15 C14 1_555 1_555
H18 C15 1_555 1_555
C16 C15 1_555 1_555
H19 C16 1_555 1_555
C17 C16 1_555 1_555
H20 C17 1_555 1_555
C18 C13 1_555 1_555
O1 C8 1_555 1_555
O2 C10 1_555 1_555
O3 N7 1_555 1_555
O4 N7 1_555 1_555
O5 N7 1_555 1_555
N1 Ag1 1_555 1_555
N2 N1 1_555 1_555
N3 C6 1_555 1_555
N4 C12 1_555 1_555
N5 N4 1_555 1_555
N6 C18 1_555 1_555
Ag1B O3 1_555 1_555
Ag1B_2 N6 1_555 1_555
O3B Ag1 1_555 1_555
N6B Ag1 1_555 1_555
C1 N1 1_555 1_555
C5 C6 1_555 1_555
C7 N3 1_555 1_555
C9 O1 1_555 1_555
C11 O2 1_555 1_555
C13 N4 1_555 1_555
C17 C18 1_555 1_555
N2 N3 1_555 1_555
N5 N6 1_555 1_555
Ag1B O3B 1_555 1_555

#END
