
#######################################################################
#
#                 Cambridge Crystallographic Data Centre
#                                CCDC 
#
#######################################################################
#
# If this CIF has been generated from an entry in the Cambridge 
# Structural Database, then it will include bibliographic, chemical, 
# crystal, experimental, refinement or atomic coordinate data resulting 
# from the CCDC's data processing and validation procedures.
#
#######################################################################

data_OPUYUU
_symmetry_cell_setting           triclinic
_symmetry_space_group_name_H-M   'P -1'
_symmetry_Int_Tables_number      2
_space_group_name_Hall           '-P 1'
loop_
_symmetry_equiv_pos_site_id
_symmetry_equiv_pos_as_xyz
1 x,y,z
2 -x,-y,-z
_cell_length_a                   7.6363(9)
_cell_length_b                   8.3860(10)
_cell_length_c                   10.5061(13)
_cell_angle_alpha                97.126(2)
_cell_angle_beta                 97.259(2)
_cell_angle_gamma                99.746(2)
_cell_volume                     650.446
loop_
_atom_site_label
_atom_site_type_symbol
_atom_site_fract_x
_atom_site_fract_y
_atom_site_fract_z
Hg1 Hg 0.5000 1.0000 1.0000
Hg2 Hg 0.86076(7) 0.76971(6) 0.87466(5)
Cl1 Cl 1.1025(5) 0.9583(4) 0.8311(4)
Cl2 Cl 0.6013(5) 0.6811(4) 0.9662(3)
Cl3 Cl 0.6086(6) 1.0452(5) 0.8084(4)
N1 N 0.8302(12) 0.5541(12) 0.6916(9)
N2 N 0.9707(15) 0.5173(12) 0.9375(9)
C1 C 0.7673(16) 0.5700(15) 0.5662(13)
C2 C 0.7196(19) 0.7197(16) 0.5409(12)
H1 H 0.7311 0.8057 0.6083
C3 C 0.6568(19) 0.737(2) 0.4174(14)
H2 H 0.6232 0.8355 0.4016
C4 C 0.642(2) 0.612(2) 0.3136(13)
H3 H 0.6021 0.6277 0.2296
C5 C 0.685(2) 0.465(2) 0.3359(14)
H4 H 0.6697 0.3797 0.2673
C6 C 0.7533(17) 0.4417(18) 0.4621(13)
C7 C 0.8017(19) 0.2908(17) 0.4893(13)
H5 H 0.7916 0.2029 0.4237
C8 C 0.8632(18) 0.2802(15) 0.6146(12)
H6 H 0.8974 0.1841 0.6352
C9 C 0.8759(16) 0.4131(14) 0.7137(11)
C10 C 0.9457(17) 0.3972(15) 0.8478(13)
H7 H 0.9718 0.2975 0.8666
Hg2A Hg 0.13924(7) 1.23029(6) 1.12534(5)
Hg2A_2 Hg 1.13924(7) 0.23029(6) 1.12534(5)
Cl1A Cl -0.1025(5) 1.0417(4) 1.1689(4)
Cl2A Cl 0.3987(5) 1.3189(4) 1.0338(3)
Cl3A Cl 0.3914(6) 0.9548(5) 1.1916(4)
N1A N 1.1698(12) 0.4459(12) 1.3084(9)
N1A_2 N 0.1698(12) 1.4459(12) 1.3084(9)
N2A N 1.0293(15) 0.4827(12) 1.0625(9)
N2A_2 N 0.0293(15) 1.4827(12) 1.0625(9)
C1A C 1.2327(16) 0.4300(15) 1.4338(13)
C2A C 1.2804(19) 0.2803(16) 1.4591(12)
H1A H 1.2689 0.1943 1.3917
C3A C 1.3432(19) 0.263(2) 1.5826(14)
H2A H 1.3768 0.1645 1.5984
C4A C 1.358(2) 0.388(2) 1.6864(13)
H3A H 1.3979 0.3723 1.7704
C5A C 1.315(2) 0.535(2) 1.6641(14)
H4A H 1.3303 0.6203 1.7327
C6A C 1.2467(17) 0.5583(18) 1.5379(13)
C7A C 1.1983(19) 0.7092(17) 1.5107(13)
H5A H 1.2084 0.7971 1.5763
C8A C 1.1368(18) 0.7198(15) 1.3854(12)
H6A H 1.1026 0.8159 1.3648
C9A C 1.1241(16) 0.5869(14) 1.2863(11)
C10A C 1.0543(17) 0.6028(15) 1.1522(13)
H7A H 1.0282 0.7025 1.1334
loop_
_geom_bond_atom_site_label_1
_geom_bond_atom_site_label_2
_geom_bond_site_symmetry_1
_geom_bond_site_symmetry_2
Hg1 Cl2 1_555 1_555
Hg2 Cl1 1_555 1_555
Cl2 Hg2 1_555 1_555
Cl3 Hg1 1_555 1_555
N1 Hg2 1_555 1_555
N2 Hg2 1_555 1_555
C1 N1 1_555 1_555
C2 C1 1_555 1_555
H1 C2 1_555 1_555
C3 C2 1_555 1_555
H2 C3 1_555 1_555
C4 C3 1_555 1_555
H3 C4 1_555 1_555
C5 C4 1_555 1_555
H4 C5 1_555 1_555
C6 C1 1_555 1_555
C7 C6 1_555 1_555
H5 C7 1_555 1_555
C8 C7 1_555 1_555
H6 C8 1_555 1_555
C9 N1 1_555 1_555
C10 N2 1_555 1_555
H7 C10 1_555 1_555
Hg2A Cl1A 1_555 1_555
Hg2A_2 N1A 1_555 1_555
Cl2A Hg1 1_555 1_555
Cl3A Hg1 1_555 1_555
N1A C1A 1_555 1_555
N1A_2 Hg2A 1_555 1_555
N2A N2 1_555 1_555
N2A_2 Hg2A 1_555 1_555
C1A C2A 1_555 1_555
C2A H1A 1_555 1_555
C3A C2A 1_555 1_555
H2A C3A 1_555 1_555
C4A C3A 1_555 1_555
H3A C4A 1_555 1_555
C5A C4A 1_555 1_555
H4A C5A 1_555 1_555
C6A C1A 1_555 1_555
C7A C6A 1_555 1_555
H5A C7A 1_555 1_555
C8A C7A 1_555 1_555
H6A C8A 1_555 1_555
C9A N1A 1_555 1_555
C10A N2A 1_555 1_555
H7A C10A 1_555 1_555
C5 C6 1_555 1_555
C8 C9 1_555 1_555
C9 C10 1_555 1_555
Hg2A Cl2A 1_555 1_555
Hg2A_2 N2A 1_555 1_555
C5A C6A 1_555 1_555
C8A C9A 1_555 1_555
C9A C10A 1_555 1_555

#END
