
#######################################################################
#
#                 Cambridge Crystallographic Data Centre
#                                CCDC 
#
#######################################################################
#
# If this CIF has been generated from an entry in the Cambridge 
# Structural Database, then it will include bibliographic, chemical, 
# crystal, experimental, refinement or atomic coordinate data resulting 
# from the CCDC's data processing and validation procedures.
#
#######################################################################

data_OQAJEW
_symmetry_cell_setting           monoclinic
_symmetry_space_group_name_H-M   'P 21/c'
_symmetry_Int_Tables_number      14
_space_group_name_Hall           '-P 2ybc'
loop_
_symmetry_equiv_pos_site_id
_symmetry_equiv_pos_as_xyz
1 x,y,z
2 -x,1/2+y,1/2-z
3 -x,-y,-z
4 x,1/2-y,1/2+z
_cell_length_a                   9.615(2)
_cell_length_b                   22.500(6)
_cell_length_c                   14.261(5)
_cell_angle_alpha                90
_cell_angle_beta                 95.527(13)
_cell_angle_gamma                90
_cell_volume                     3070.85
loop_
_atom_site_label
_atom_site_type_symbol
_atom_site_fract_x
_atom_site_fract_y
_atom_site_fract_z
Cu1 Cu 0.09312(4) 0.16075(2) 0.49904(3)
Na1 Na -0.00347(15) 0.13740(7) 0.71338(11)
O1 O 0.1109(2) 0.09943(11) 0.59204(18)
O2 O 0.0109(2) 0.20598(11) 0.58989(18)
O3 O 0.0949(3) 0.03012(13) 0.7329(2)
O4 O 0.0582(3) 0.31586(11) 0.3500(2)
O5 O -0.2362(3) 0.1128(2) 0.7222(2)
N1 N 0.1633(2) 0.11081(12) 0.4032(2)
N2 N 0.0951(2) 0.22266(12) 0.4084(2)
N3 N -0.4657(4) 0.10315(19) 0.7398(3)
C1 C -0.0531(3) 0.25741(16) 0.5717(2)
C2 C -0.1371(4) 0.27886(17) 0.6399(3)
C3 C -0.2098(4) 0.33123(19) 0.6278(3)
C4 C -0.1998(4) 0.36505(19) 0.5487(3)
C5 C -0.1176(4) 0.34565(16) 0.4821(3)
C6 C -0.0419(3) 0.29239(15) 0.4906(2)
C7 C 0.0425(3) 0.27743(17) 0.4109(2)
C8 C 0.1775(3) 0.20834(16) 0.3305(2)
C9 C 0.3300(3) 0.22555(16) 0.3482(3)
C10 C 0.3987(4) 0.22688(19) 0.4369(3)
C11 C 0.5430(6) 0.2384(2) 0.4482(5)
C12 C 0.6146(6) 0.2479(2) 0.3710(7)
C13 C 0.5457(6) 0.2477(2) 0.2848(5)
C14 C 0.4042(4) 0.2373(2) 0.2728(3)
C15 C 0.1577(3) 0.14095(16) 0.3109(2)
C16 C 0.2507(3) 0.11690(16) 0.2411(2)
C17 C 0.3830(3) 0.09486(18) 0.2656(3)
C18 C 0.4659(4) 0.0770(2) 0.1970(4)
C19 C 0.4193(6) 0.0819(2) 0.1046(4)
C20 C 0.2906(5) 0.1048(2) 0.0789(3)
C21 C 0.2052(4) 0.1209(2) 0.1472(3)
C22 C 0.1847(3) 0.05427(16) 0.4108(3)
C23 C 0.1837(3) 0.02015(16) 0.4941(3)
C24 C 0.2175(4) -0.04101(18) 0.4897(4)
C25 C 0.2184(5) -0.0765(2) 0.5649(4)
C26 C 0.1787(4) -0.0547(2) 0.6485(4)
C27 C 0.1411(4) 0.0043(2) 0.6549(3)
C28 C 0.1439(3) 0.04347(16) 0.5784(3)
C29 C 0.0908(7) -0.0067(3) 0.8145(4)
C30 C 0.0320(11) 0.0217(3) 0.8802(5)
C31 C -0.3346(6) 0.1072(2) 0.7677(4)
C32 C -0.5138(7) 0.1052(4) 0.6430(5)
C33 C -0.5743(6) 0.0995(3) 0.8035(5)
H1 H -0.1437 0.2565 0.6958
H2 H -0.2672 0.3441 0.6744
H3 H -0.2492 0.4015 0.5406
H4 H -0.1117 0.3693 0.4274
H5 H 0.2398 -0.0574 0.4316
H6 H 0.2469 -0.1168 0.5608
H7 H 0.1769 -0.0801 0.7015
H8 H 0.2031 0.0337 0.3552
H9 H 0.1386 0.2293 0.2764
H10 H 0.0647 0.1364 0.2828
H11 H 0.3493 0.2201 0.4905
H12 H 0.5914 0.2394 0.5094
H13 H 0.7126 0.2547 0.3783
H14 H 0.5950 0.2549 0.2313
H15 H 0.3568 0.2382 0.2112
H16 H 0.4174 0.0920 0.3302
H17 H 0.5560 0.0609 0.2147
H18 H 0.4769 0.0695 0.0577
H19 H 0.2594 0.1097 0.0141
H20 H 0.1134 0.1349 0.1286
H21 H 0.0383 -0.0416 0.7978
H22 H 0.1833 -0.0176 0.8376
H23 H 0.1014 0.0430 0.9186
H24 H -0.0126 -0.0059 0.9179
H25 H -0.0353 0.0488 0.8520
H26 H -0.5335 0.1452 0.6248
H27 H -0.5963 0.0821 0.6319
H28 H -0.4438 0.0897 0.6071
H29 H -0.5916 0.0590 0.8172
H30 H -0.6575 0.1172 0.7748
H31 H -0.5448 0.1200 0.8602
H32 H -0.3122 0.1059 0.8340
Na1C Na -0.00347(15) 0.36260(7) 0.21338(11)
O4C O 0.0582(3) 0.18414(11) 0.8500(2)
loop_
_geom_bond_atom_site_label_1
_geom_bond_atom_site_label_2
_geom_bond_site_symmetry_1
_geom_bond_site_symmetry_2
Cu1 O1 1_555 1_555
Na1 O1 1_555 1_555
O1 C28 1_555 1_555
O2 Cu1 1_555 1_555
O3 Na1 1_555 1_555
O4 C7 1_555 1_555
O5 Na1 1_555 1_555
N1 Cu1 1_555 1_555
N2 Cu1 1_555 1_555
N3 C31 1_555 1_555
C1 O2 1_555 1_555
C2 C1 1_555 1_555
C3 C2 1_555 1_555
C4 C3 1_555 1_555
C5 C4 1_555 1_555
C6 C1 1_555 1_555
C7 N2 1_555 1_555
C8 N2 1_555 1_555
C9 C8 1_555 1_555
C10 C9 1_555 1_555
C11 C10 1_555 1_555
C12 C11 1_555 1_555
C13 C12 1_555 1_555
C14 C9 1_555 1_555
C15 N1 1_555 1_555
C16 C15 1_555 1_555
C17 C16 1_555 1_555
C18 C17 1_555 1_555
C19 C18 1_555 1_555
C20 C19 1_555 1_555
C21 C16 1_555 1_555
C22 N1 1_555 1_555
C23 C22 1_555 1_555
C24 C23 1_555 1_555
C25 C24 1_555 1_555
C26 C25 1_555 1_555
C27 O3 1_555 1_555
C28 C23 1_555 1_555
C29 O3 1_555 1_555
C30 C29 1_555 1_555
C31 O5 1_555 1_555
C32 N3 1_555 1_555
C33 N3 1_555 1_555
H1 C2 1_555 1_555
H2 C3 1_555 1_555
H3 C4 1_555 1_555
H4 C5 1_555 1_555
H5 C24 1_555 1_555
H6 C25 1_555 1_555
H7 C26 1_555 1_555
H8 C22 1_555 1_555
H9 C8 1_555 1_555
H10 C15 1_555 1_555
H11 C10 1_555 1_555
H12 C11 1_555 1_555
H13 C12 1_555 1_555
H14 C13 1_555 1_555
H15 C14 1_555 1_555
H16 C17 1_555 1_555
H17 C18 1_555 1_555
H18 C19 1_555 1_555
H19 C20 1_555 1_555
H20 C21 1_555 1_555
H21 C29 1_555 1_555
H22 C29 1_555 1_555
H23 C30 1_555 1_555
H24 C30 1_555 1_555
H25 C30 1_555 1_555
H26 C32 1_555 1_555
H27 C32 1_555 1_555
H28 C32 1_555 1_555
H29 C33 1_555 1_555
H30 C33 1_555 1_555
H31 C33 1_555 1_555
H32 C31 1_555 1_555
Na1C O4 1_555 1_555
O4C Na1 1_555 1_555
Na1 O2 1_555 1_555
C5 C6 1_555 1_555
C6 C7 1_555 1_555
C8 C15 1_555 1_555
C13 C14 1_555 1_555
C20 C21 1_555 1_555
C26 C27 1_555 1_555
C27 C28 1_555 1_555

#END
