
#######################################################################
#
#                 Cambridge Crystallographic Data Centre
#                                CCDC 
#
#######################################################################
#
# If this CIF has been generated from an entry in the Cambridge 
# Structural Database, then it will include bibliographic, chemical, 
# crystal, experimental, refinement or atomic coordinate data resulting 
# from the CCDC's data processing and validation procedures.
#
#######################################################################

data_OQALOI
_symmetry_cell_setting           triclinic
_symmetry_space_group_name_H-M   'P -1'
_symmetry_Int_Tables_number      2
_space_group_name_Hall           '-P 1'
loop_
_symmetry_equiv_pos_site_id
_symmetry_equiv_pos_as_xyz
1 x,y,z
2 -x,-y,-z
_cell_length_a                   12.6617(18)
_cell_length_b                   15.058(2)
_cell_length_c                   25.224(4)
_cell_angle_alpha                104.250(2)
_cell_angle_beta                 93.092(2)
_cell_angle_gamma                112.289(2)
_cell_volume                     4254.38
loop_
_atom_site_label
_atom_site_type_symbol
_atom_site_fract_x
_atom_site_fract_y
_atom_site_fract_z
Hg1 Hg 1.05092(5) 0.72081(5) 0.11624(3)
Hg2 Hg 1.35336(5) 0.71194(4) 0.04806(2)
Hg3 Hg 0.48977(5) 0.56208(5) 0.14622(2)
I1 I 1.07672(9) 0.79330(9) 0.22498(5)
I2 I 1.00019(11) 0.73932(10) 0.01779(6)
I3 I 1.19063(8) 0.59747(8) 0.09699(4)
I4 I 1.42423(10) 0.89329(8) 0.03463(4)
I5 I 1.54727(9) 0.66300(8) 0.06191(4)
I6 I 0.59418(10) 0.69446(9) 0.24383(4)
I7 I 0.32629(9) 0.37974(8) 0.10121(5)
Re1 Re 0.81222(5) 0.33710(4) 0.33048(2)
Re2 Re 0.84888(5) 0.15473(4) 0.21033(2)
Re3 Re 0.67199(5) 0.16701(4) 0.25873(2)
Re4 Re 0.85628(5) 0.17475(4) 0.31767(2)
Re5 Re 0.99033(5) 0.32529(4) 0.28332(2)
Re6 Re 0.80647(5) 0.31586(4) 0.22363(2)
Se1 Se 0.98756(12) 0.34105(11) 0.38469(6)
Se2 Se 0.67108(11) 0.14979(10) 0.15740(5)
Se3 Se 0.94145(11) 0.47555(10) 0.29505(5)
Se4 Se 0.63862(12) 0.32472(11) 0.27032(6)
Se5 Se 0.68808(12) 0.18982(12) 0.36156(6)
Se6 Se 0.72052(12) 0.01716(11) 0.24636(6)
Se7 Se 1.02314(12) 0.16642(11) 0.26933(6)
Se8 Se 0.97656(11) 0.30250(10) 0.18022(5)
P1 P 0.7723(3) 0.4531(3) 0.40598(15)
P2 P 0.8669(3) 0.0379(3) 0.12713(16)
P3 P 0.4608(3) 0.0703(3) 0.24910(16)
P4 P 0.8890(4) 0.0716(3) 0.37530(19)
P5 P 1.2012(3) 0.4301(3) 0.30282(15)
P6 P 0.7800(3) 0.4038(3) 0.16059(15)
N1 N 0.8721(9) 0.5595(9) 0.1147(4)
N2 N 0.7239(9) 0.4007(8) 0.0521(4)
N3 N 0.6682(10) 0.5088(8) 0.1260(5)
C1 C 0.6177(12) 0.4076(12) 0.4113(6)
H1 H 0.5739 0.4025 0.3762
H2 H 0.5917 0.3393 0.4156
C2 C 0.5880(15) 0.4724(14) 0.4587(7)
H3 H 0.6295 0.4768 0.4938
H4 H 0.5045 0.4429 0.4587
H5 H 0.6108 0.5397 0.4542
C3 C 0.8104(14) 0.5786(12) 0.4013(6)
H6 H 0.7992 0.6191 0.4362
H7 H 0.8938 0.6077 0.3990
C4 C 0.7433(16) 0.5902(14) 0.3524(7)
H8 H 0.7630 0.5596 0.3175
H9 H 0.7643 0.6615 0.3566
H10 H 0.6600 0.5567 0.3521
C5 C 0.8492(13) 0.4783(13) 0.4753(6)
H11 H 0.9333 0.5045 0.4742
H12 H 0.8342 0.5317 0.5013
C6 C 0.8167(14) 0.3880(13) 0.4984(6)
H13 H 0.7332 0.3602 0.4990
H14 H 0.8588 0.4094 0.5362
H15 H 0.8371 0.3366 0.4749
C7 C 0.7840(13) -0.0939(12) 0.1199(7)
H16 H 0.7042 -0.1040 0.1260
H17 H 0.7796 -0.1333 0.0815
C8 C 0.8348(16) -0.1340(15) 0.1602(8)
H18 H 0.8973 -0.1504 0.1455
H19 H 0.7741 -0.1945 0.1647
H20 H 0.8654 -0.0829 0.1963
C9 C 0.8122(12) 0.0536(11) 0.0618(6)
H21 H 0.7289 0.0388 0.0607
H22 H 0.8524 0.1247 0.0627
C10 C 0.8266(15) -0.0100(14) 0.0094(6)
H23 H 0.9087 0.0035 0.0098
H24 H 0.7978 0.0057 -0.0224
H25 H 0.7828 -0.0809 0.0065
C11 C 1.0108(12) 0.0422(11) 0.1186(6)
H26 H 1.0430 0.0302 0.1515
H27 H 1.0027 -0.0136 0.0860
C12 C 1.0980(13) 0.1395(11) 0.1112(7)
H28 H 1.0621 0.1594 0.0834
H29 H 1.1657 0.1291 0.0988
H30 H 1.1223 0.1923 0.1466
C13 C 0.4188(11) -0.0556(11) 0.2575(6)
H31 H 0.4735 -0.0527 0.2881
H32 H 0.3408 -0.0775 0.2681
C14 C 0.4173(14) -0.1345(14) 0.2042(8)
H33 H 0.3574 -0.1431 0.1747
H34 H 0.4006 -0.1987 0.2120
H35 H 0.4929 -0.1115 0.1922
C15 C 0.3753(12) 0.0490(12) 0.1823(6)
H36 H 0.4045 0.0131 0.1524
H37 H 0.2940 0.0046 0.1819
C16 C 0.3769(15) 0.1411(13) 0.1695(7)
H38 H 0.3329 0.1695 0.1939
H39 H 0.3419 0.1238 0.1308
H40 H 0.4571 0.1904 0.1755
C17 C 0.3974(12) 0.1315(12) 0.3007(7)
H41 H 0.4364 0.1388 0.3376
H42 H 0.4171 0.1999 0.2975
C18 C 0.2684(12) 0.0846(13) 0.3003(8)
H43 H 0.2272 0.0711 0.2633
H44 H 0.2465 0.1307 0.3275
H45 H 0.2480 0.0217 0.3100
C19 C 0.7711(13) 0.0189(14) 0.4114(7)
H46 H 0.7959 -0.0138 0.4362
H47 H 0.7553 0.0741 0.4349
C20 C 0.6590(14) -0.0576(15) 0.3732(8)
H48 H 0.6223 -0.0226 0.3558
H49 H 0.6064 -0.0946 0.3948
H50 H 0.6765 -0.1045 0.3443
C21 C 1.0165(19) 0.1350(18) 0.4296(10)
H51 H 1.0440 0.0842 0.4354
H52 H 1.0783 0.1830 0.4158
C22 C 1.003(2) 0.187(2) 0.4814(11)
H53 H 0.9199 0.1681 0.4829
H54 H 1.0402 0.2596 0.4863
H55 H 1.0379 0.1708 0.5110
C23 C 0.9171(19) -0.0371(14) 0.3333(8)
H56 H 0.8526 -0.0757 0.3017
H57 H 0.9885 -0.0096 0.3176
C24 C 0.9300(19) -0.1085(15) 0.3621(9)
H58 H 0.9822 -0.0709 0.3975
H59 H 0.9622 -0.1511 0.3389
H60 H 0.8542 -0.1504 0.3688
C25 C 1.2463(17) 0.5547(15) 0.3010(11)
H61 H 1.2096 0.5884 0.3280
H62 H 1.3310 0.5890 0.3136
C26 C 1.2195(14) 0.5691(14) 0.2451(7)
H63 H 1.2518 0.5332 0.2174
H64 H 1.2540 0.6407 0.2479
H65 H 1.1355 0.5426 0.2341
C27 C 1.2804(17) 0.3733(16) 0.2569(10)
H66 H 1.2603 0.3046 0.2597
H67 H 1.2515 0.3671 0.2183
C28 C 1.4104(17) 0.4264(17) 0.2666(11)
H68 H 1.4326 0.4980 0.2713
H69 H 1.4406 0.3982 0.2347
H70 H 1.4425 0.4174 0.3001
C29 C 1.2716(19) 0.4458(18) 0.3718(9)
H71 H 1.3512 0.4985 0.3792
H72 H 1.2285 0.4680 0.4000
C30 C 1.2768(16) 0.3449(14) 0.3769(8)
H73 H 1.1980 0.2941 0.3725
H74 H 1.3191 0.3568 0.4134
H75 H 1.3165 0.3212 0.3479
C31 C 0.6714(12) 0.4574(11) 0.1677(5)
H76 H 0.5942 0.4031 0.1642
H77 H 0.6893 0.5054 0.2051
C32 C 0.7753(11) 0.5916(10) 0.1294(6)
H78 H 0.7980 0.6375 0.1676
H79 H 0.7639 0.6291 0.1040
C33 C 0.9031(12) 0.5160(10) 0.1564(6)
H80 H 0.9290 0.5668 0.1932
H81 H 0.9683 0.4977 0.1467
C34 C 0.7364(12) 0.3364(11) 0.0864(5)
H82 H 0.7949 0.3108 0.0737
H83 H 0.6618 0.2780 0.0808
C35 C 0.6331(11) 0.4408(10) 0.0699(6)
H84 H 0.6198 0.4765 0.0438
H85 H 0.5592 0.3838 0.0679
C36 C 0.8355(11) 0.4876(10) 0.0587(5)
H86 H 0.8963 0.4625 0.0502
H87 H 0.8287 0.5231 0.0314
Hg2A Hg 0.64664(5) 0.28806(4) -0.04806(2)
Hg3_2 Hg 1.48977(5) 0.56208(5) 0.14622(2)
I5_2 I 0.54727(9) 0.66300(8) 0.06191(4)
N2A N 1.2761(9) 0.5993(8) -0.0521(4)
Sb1 Sb 0.37547(18) 0.20613(18) 0.50296(10)
F1 F 0.2495(14) 0.0876(12) 0.4690(12)
F2 F 0.430(2) 0.207(2) 0.4373(7)
F3 F 0.314(3) 0.209(2) 0.5670(8)
F4 F 0.2987(17) 0.2838(13) 0.4891(10)
F5 F 0.4513(17) 0.1310(14) 0.5198(8)
F6 F 0.5028(13) 0.3220(11) 0.5410(9)
N4 N 1.119(2) 0.724(2) 0.3955(12)
C37 C 1.203(3) 0.786(3) 0.4064(12)
C38 C 1.320(3) 0.873(3) 0.4130(17)
H88 H 1.3513 0.8641 0.3784
H89 H 1.3736 0.8745 0.4431
H90 H 1.3099 0.9361 0.4218
F7? F 0.232(2) 0.023(2) 0.448(2)
F8? F 0.412(3) 0.070(2) 0.4059(9)
F9? F 0.356(4) 0.209(2) 0.5358(10)
F10? F 0.317(5) 0.197(3) 0.4287(15)
F11? F 0.410(4) 0.056(3) 0.5068(15)
F12? F 0.5213(18) 0.229(3) 0.486(2)
Sb2? Sb 0.3720(3) 0.1328(4) 0.46926(17)
loop_
_geom_bond_atom_site_label_1
_geom_bond_atom_site_label_2
_geom_bond_site_symmetry_1
_geom_bond_site_symmetry_2
Hg1 I1 1_555 1_555
Hg2 I3 1_555 1_555
Hg3 I6 1_555 1_555
I2 Hg1 1_555 1_555
I3 Hg1 1_555 1_555
I4 Hg2 1_555 1_555
I5 Hg2 1_555 1_555
I7 Hg3 1_555 1_555
Re1 Re3 1_555 1_555
Re2 Re3 1_555 1_555
Re3 Re4 1_555 1_555
Re4 Re1 1_555 1_555
Re5 Re1 1_555 1_555
Re6 Re1 1_555 1_555
Se1 Re1 1_555 1_555
Se2 Re2 1_555 1_555
Se3 Re1 1_555 1_555
Se4 Re1 1_555 1_555
Se5 Re1 1_555 1_555
Se6 Re2 1_555 1_555
Se7 Re2 1_555 1_555
Se8 Re2 1_555 1_555
P1 Re1 1_555 1_555
P2 Re2 1_555 1_555
P3 Re3 1_555 1_555
P4 Re4 1_555 1_555
P5 Re5 1_555 1_555
P6 Re6 1_555 1_555
N1 Hg1 1_555 1_555
N2 C34 1_555 1_555
N3 Hg3 1_555 1_555
C1 P1 1_555 1_555
H1 C1 1_555 1_555
H2 C1 1_555 1_555
C2 C1 1_555 1_555
H3 C2 1_555 1_555
H4 C2 1_555 1_555
H5 C2 1_555 1_555
C3 P1 1_555 1_555
H6 C3 1_555 1_555
H7 C3 1_555 1_555
C4 C3 1_555 1_555
H8 C4 1_555 1_555
H9 C4 1_555 1_555
H10 C4 1_555 1_555
C5 P1 1_555 1_555
H11 C5 1_555 1_555
H12 C5 1_555 1_555
C6 C5 1_555 1_555
H13 C6 1_555 1_555
H14 C6 1_555 1_555
H15 C6 1_555 1_555
C7 P2 1_555 1_555
H16 C7 1_555 1_555
H17 C7 1_555 1_555
C8 C7 1_555 1_555
H18 C8 1_555 1_555
H19 C8 1_555 1_555
H20 C8 1_555 1_555
C9 P2 1_555 1_555
H21 C9 1_555 1_555
H22 C9 1_555 1_555
C10 C9 1_555 1_555
H23 C10 1_555 1_555
H24 C10 1_555 1_555
H25 C10 1_555 1_555
C11 P2 1_555 1_555
H26 C11 1_555 1_555
H27 C11 1_555 1_555
C12 C11 1_555 1_555
H28 C12 1_555 1_555
H29 C12 1_555 1_555
H30 C12 1_555 1_555
C13 P3 1_555 1_555
H31 C13 1_555 1_555
H32 C13 1_555 1_555
C14 C13 1_555 1_555
H33 C14 1_555 1_555
H34 C14 1_555 1_555
H35 C14 1_555 1_555
C15 P3 1_555 1_555
H36 C15 1_555 1_555
H37 C15 1_555 1_555
C16 C15 1_555 1_555
H38 C16 1_555 1_555
H39 C16 1_555 1_555
H40 C16 1_555 1_555
C17 P3 1_555 1_555
H41 C17 1_555 1_555
H42 C17 1_555 1_555
C18 C17 1_555 1_555
H43 C18 1_555 1_555
H44 C18 1_555 1_555
H45 C18 1_555 1_555
C19 P4 1_555 1_555
H46 C19 1_555 1_555
H47 C19 1_555 1_555
C20 C19 1_555 1_555
H48 C20 1_555 1_555
H49 C20 1_555 1_555
H50 C20 1_555 1_555
C21 P4 1_555 1_555
H51 C21 1_555 1_555
H52 C21 1_555 1_555
C22 C21 1_555 1_555
H53 C22 1_555 1_555
H54 C22 1_555 1_555
H55 C22 1_555 1_555
C23 P4 1_555 1_555
H56 C23 1_555 1_555
H57 C23 1_555 1_555
C24 C23 1_555 1_555
H58 C24 1_555 1_555
H59 C24 1_555 1_555
H60 C24 1_555 1_555
C25 P5 1_555 1_555
H61 C25 1_555 1_555
H62 C25 1_555 1_555
C26 C25 1_555 1_555
H63 C26 1_555 1_555
H64 C26 1_555 1_555
H65 C26 1_555 1_555
C27 P5 1_555 1_555
H66 C27 1_555 1_555
H67 C27 1_555 1_555
C28 C27 1_555 1_555
H68 C28 1_555 1_555
H69 C28 1_555 1_555
H70 C28 1_555 1_555
C29 P5 1_555 1_555
H71 C29 1_555 1_555
H72 C29 1_555 1_555
C30 C29 1_555 1_555
H73 C30 1_555 1_555
H74 C30 1_555 1_555
H75 C30 1_555 1_555
C31 P6 1_555 1_555
H76 C31 1_555 1_555
H77 C31 1_555 1_555
C32 N1 1_555 1_555
H78 C32 1_555 1_555
H79 C32 1_555 1_555
C33 P6 1_555 1_555
H80 C33 1_555 1_555
H81 C33 1_555 1_555
C34 P6 1_555 1_555
H82 C34 1_555 1_555
H83 C34 1_555 1_555
C35 N2 1_555 1_555
H84 C35 1_555 1_555
H85 C35 1_555 1_555
C36 N1 1_555 1_555
H86 C36 1_555 1_555
H87 C36 1_555 1_555
Sb1 F1 1_555 1_555
F2 Sb1 1_555 1_555
F3 Sb1 1_555 1_555
F4 Sb1 1_555 1_555
F5 Sb1 1_555 1_555
F6 Sb1 1_555 1_555
N4 C37 1_555 1_555
C37 C38 1_555 1_555
C38 H88 1_555 1_555
H89 C38 1_555 1_555
H90 C38 1_555 1_555
Hg2A N2 1_555 1_555
Hg3_2 I5 1_555 1_555
I5_2 Hg3 1_555 1_555
N2A Hg2 1_555 1_555
Re2 Re4 1_555 1_555
Re2 Re5 1_555 1_555
Re2 Re6 1_555 1_555
Re3 Re6 1_555 1_555
Re3 Se2 1_555 1_555
Re3 Se4 1_555 1_555
Re3 Se5 1_555 1_555
Re3 Se6 1_555 1_555
Re4 Re5 1_555 1_555
Re4 Se1 1_555 1_555
Re4 Se5 1_555 1_555
Re4 Se6 1_555 1_555
Re4 Se7 1_555 1_555
Re5 Re6 1_555 1_555
Re5 Se1 1_555 1_555
Re5 Se3 1_555 1_555
Re5 Se7 1_555 1_555
Re5 Se8 1_555 1_555
Re6 Se2 1_555 1_555
Re6 Se3 1_555 1_555
Re6 Se4 1_555 1_555
Re6 Se8 1_555 1_555
N1 C33 1_555 1_555
N2 C36 1_555 1_555
N3 C31 1_555 1_555
N3 C32 1_555 1_555
N3 C35 1_555 1_555

#END
