
#######################################################################
#
#                 Cambridge Crystallographic Data Centre
#                                CCDC 
#
#######################################################################
#
# If this CIF has been generated from an entry in the Cambridge 
# Structural Database, then it will include bibliographic, chemical, 
# crystal, experimental, refinement or atomic coordinate data resulting 
# from the CCDC's data processing and validation procedures.
#
#######################################################################

data_OQEDUK
_symmetry_cell_setting           triclinic
_symmetry_space_group_name_H-M   'P -1'
_symmetry_Int_Tables_number      2
_space_group_name_Hall           '-P 1'
loop_
_symmetry_equiv_pos_site_id
_symmetry_equiv_pos_as_xyz
1 x,y,z
2 -x,-y,-z
_cell_length_a                   8.3890(16)
_cell_length_b                   9.4214(19)
_cell_length_c                   10.669(2)
_cell_angle_alpha                90.662(2)
_cell_angle_beta                 108.303(2)
_cell_angle_gamma                103.312(2)
_cell_volume                     775.849
loop_
_atom_site_label
_atom_site_type_symbol
_atom_site_fract_x
_atom_site_fract_y
_atom_site_fract_z
Ni1 Ni -0.5000 0.0000 0.0000
N1 N -0.2869(3) 0.1075(3) -0.0537(2)
N2 N 0.3477(3) 0.5591(3) 0.1849(2)
H1 H 0.449(4) 0.632(3) 0.192(3)
N3 N 0.2602(3) 0.4727(3) 0.0702(2)
N4 N 0.1223(3) 0.4203(3) 0.2216(2)
N5 N 0.4503(4) 0.6991(3) 0.6777(3)
C1 C 0.2961(5) 0.6035(4) 0.6251(4)
H2 H 0.239(5) 0.578(4) 0.685(4)
C2 C 0.2300(4) 0.5485(4) 0.4935(3)
H3 H 0.127(5) 0.489(4) 0.460(4)
C3 C 0.3268(4) 0.5925(3) 0.4105(3)
C4 C 0.4847(4) 0.6930(4) 0.4640(3)
H4 H 0.561(4) 0.725(4) 0.411(3)
C5 C 0.5394(5) 0.7412(4) 0.5962(4)
H5 H 0.655(5) 0.802(4) 0.642(4)
C6 C 0.2645(4) 0.5257(3) 0.2729(3)
C7 C 0.1244(4) 0.3902(3) 0.0970(3)
C8 C -0.0106(4) 0.2796(3) -0.0003(3)
C9 C -0.0024(4) 0.2463(4) -0.1244(3)
H6 H 0.096(4) 0.294(4) -0.146(3)
C10 C -0.1377(4) 0.1427(4) -0.2118(3)
H7 H -0.133(4) 0.120(4) -0.296(3)
C11 C -0.2766(4) 0.0766(4) -0.1733(3)
H8 H -0.367(4) 0.010(4) -0.233(3)
C12 C -0.1555(4) 0.2076(3) 0.0301(3)
H9 H -0.167(4) 0.232(3) 0.115(3)
C13 C -0.2847(3) -0.0953(3) 0.2528(3)
C14 C -0.1375(3) -0.0451(3) 0.3815(2)
C15 C -0.0743(4) -0.1467(3) 0.4638(3)
H10 H -0.120(4) -0.239(4) 0.435(3)
C16 C -0.0618(4) 0.1015(3) 0.4188(3)
H11 H -0.108(4) 0.172(4) 0.362(3)
O1 O -0.5278(3) 0.2018(3) 0.0573(2)
O2 O -0.3358(2) 0.0058(2) 0.18714(17)
O3 O -0.3430(2) -0.2296(2) 0.21961(18)
H12 H -0.513(4) 0.239(4) 0.132(3)
H13 H -0.578(6) 0.244(5) -0.013(5)
Ni1_2 Ni 0.5000 0.0000 1.0000
N1A N -0.7131(3) -0.1075(3) 0.0537(2)
N2A N -1.3477(3) -0.5591(3) -0.1849(2)
H1A H -1.449(4) -0.632(3) -0.192(3)
N3A N -1.2602(3) -0.4727(3) -0.0702(2)
N4A N -1.1223(3) -0.4203(3) -0.2216(2)
N5A N -1.4503(4) -0.6991(3) -0.6777(3)
C1A C -1.2961(5) -0.6035(4) -0.6251(4)
H2A H -1.239(5) -0.578(4) -0.685(4)
C2A C -1.2300(4) -0.5485(4) -0.4935(3)
H3A H -1.127(5) -0.489(4) -0.460(4)
C3A C -1.3268(4) -0.5925(3) -0.4105(3)
C4A C -1.4847(4) -0.6930(4) -0.4640(3)
H4A H -1.561(4) -0.725(4) -0.411(3)
C5A C -1.5394(5) -0.7412(4) -0.5962(4)
H5A H -1.655(5) -0.802(4) -0.642(4)
C6A C -1.2645(4) -0.5257(3) -0.2729(3)
C7A C -1.1244(4) -0.3902(3) -0.0970(3)
C8A C -0.9894(4) -0.2796(3) 0.0003(3)
C9A C -0.9976(4) -0.2463(4) 0.1244(3)
H6A H -1.096(4) -0.294(4) 0.146(3)
C10A C -0.8623(4) -0.1427(4) 0.2118(3)
H7A H -0.867(4) -0.120(4) 0.296(3)
C11A C -0.7234(4) -0.0766(4) 0.1733(3)
H8A H -0.633(4) -0.010(4) 0.233(3)
C12A C -0.8445(4) -0.2076(3) -0.0301(3)
H9A H -0.833(4) -0.232(3) -0.115(3)
C13A C 0.2847(3) 0.0953(3) 0.7472(3)
C14A C 0.1375(3) 0.0451(3) 0.6185(2)
C15A C 0.0743(4) 0.1467(3) 0.5362(3)
H10A H 0.120(4) 0.239(4) 0.565(3)
C16A C 0.0618(4) -0.1015(3) 0.5812(3)
H11A H 0.108(4) -0.172(4) 0.638(3)
O1A O -0.4722(3) -0.2018(3) -0.0573(2)
O2A O 0.3358(2) -0.0058(2) 0.81286(17)
O2A_2 O -0.6642(2) -0.0058(2) -0.18714(17)
O3A O 0.3430(2) 0.2296(2) 0.78039(18)
H12A H -0.487(4) -0.239(4) -0.132(3)
H13A H -0.422(6) -0.244(5) 0.013(5)
loop_
_geom_bond_atom_site_label_1
_geom_bond_atom_site_label_2
_geom_bond_site_symmetry_1
_geom_bond_site_symmetry_2
Ni1 N1 1_555 1_555
N1 C11 1_555 1_555
N2 H1 1_555 1_555
N3 N2 1_555 1_555
N4 C6 1_555 1_555
N5 C1 1_555 1_555
C1 H2 1_555 1_555
C2 C1 1_555 1_555
H3 C2 1_555 1_555
C3 C2 1_555 1_555
C4 C3 1_555 1_555
H4 C4 1_555 1_555
C5 N5 1_555 1_555
H5 C5 1_555 1_555
C6 N2 1_555 1_555
C7 N3 1_555 1_555
C8 C7 1_555 1_555
C9 C8 1_555 1_555
H6 C9 1_555 1_555
C10 C9 1_555 1_555
H7 C10 1_555 1_555
C11 C10 1_555 1_555
H8 C11 1_555 1_555
C12 N1 1_555 1_555
H9 C12 1_555 1_555
C13 C14 1_555 1_555
C14 C15 1_555 1_555
C15 H10 1_555 1_555
C16 C14 1_555 1_555
H11 C16 1_555 1_555
O1 Ni1 1_555 1_555
O2 Ni1 1_555 1_555
O3 C13 1_555 1_555
H12 O1 1_555 1_555
H13 O1 1_555 1_555
Ni1_2 O2A 1_555 1_555
N1A Ni1 1_555 1_555
N2A H1A 1_555 1_555
N3A N2A 1_555 1_555
N4A C6A 1_555 1_555
N5A C1A 1_555 1_555
C1A H2A 1_555 1_555
C2A C1A 1_555 1_555
H3A C2A 1_555 1_555
C3A C2A 1_555 1_555
C4A C3A 1_555 1_555
H4A C4A 1_555 1_555
C5A N5A 1_555 1_555
H5A C5A 1_555 1_555
C6A N2A 1_555 1_555
C7A N3A 1_555 1_555
C8A C7A 1_555 1_555
C9A C8A 1_555 1_555
H6A C9A 1_555 1_555
C10A C9A 1_555 1_555
H7A C10A 1_555 1_555
C11A N1A 1_555 1_555
H8A C11A 1_555 1_555
C12A N1A 1_555 1_555
H9A C12A 1_555 1_555
C13A C14A 1_555 1_555
C14A C15A 1_555 1_555
C15A C16 1_555 1_555
H10A C15A 1_555 1_555
C16A C15 1_555 1_555
H11A C16A 1_555 1_555
O1A Ni1 1_555 1_555
O2A C13A 1_555 1_555
O2A_2 Ni1 1_555 1_555
O3A C13A 1_555 1_555
H12A O1A 1_555 1_555
H13A O1A 1_555 1_555
N4 C7 1_555 1_555
C3 C6 1_555 1_555
C4 C5 1_555 1_555
C8 C12 1_555 1_555
C13 O2 1_555 1_555
N4A C7A 1_555 1_555
C3A C6A 1_555 1_555
C4A C5A 1_555 1_555
C8A C12A 1_555 1_555
C10A C11A 1_555 1_555
C14A C16A 1_555 1_555

#END
