
#######################################################################
#
#                 Cambridge Crystallographic Data Centre
#                                CCDC 
#
#######################################################################
#
# If this CIF has been generated from an entry in the Cambridge 
# Structural Database, then it will include bibliographic, chemical, 
# crystal, experimental, refinement or atomic coordinate data resulting 
# from the CCDC's data processing and validation procedures.
#
#######################################################################

data_OQEFIA
_symmetry_cell_setting           triclinic
_symmetry_space_group_name_H-M   'P -1'
_symmetry_Int_Tables_number      2
_space_group_name_Hall           '-P 1'
loop_
_symmetry_equiv_pos_site_id
_symmetry_equiv_pos_as_xyz
1 x,y,z
2 -x,-y,-z
_cell_length_a                   11.2646(12)
_cell_length_b                   11.9753(12)
_cell_length_c                   12.6970(13)
_cell_angle_alpha                113.1820(10)
_cell_angle_beta                 90.9640(10)
_cell_angle_gamma                102.4020(10)
_cell_volume                     1527.92
loop_
_atom_site_label
_atom_site_type_symbol
_atom_site_fract_x
_atom_site_fract_y
_atom_site_fract_z
O1 O -0.45789(16) -0.60671(15) -1.33691(15)
C1 C -0.4446(2) -0.7048(2) -1.4188(2)
C2 C -0.3683(2) -0.7794(2) -1.38661(19)
C3 C -0.3070(2) -0.7340(2) -1.27713(19)
H1 H -0.3141 -0.6574 -1.2221
C4 C -0.3602(2) -0.8955(2) -1.46853(19)
H2 H -0.4001 -0.9277 -1.5428
N1 N 0.07598(18) 0.21388(17) 0.08868(16)
C5 C 0.1219(2) 0.1371(2) -0.0012(2)
H3 H 0.0939 0.1239 -0.0754
C6 C 0.1140(2) 0.2273(2) 0.1943(2)
H4 H 0.0796 0.2766 0.2565
Ni1 Ni -0.03523(3) -0.68561(3) -0.94558(2)
Ni2 Ni 0.43140(3) -0.48593(3) -0.30774(2)
O2 O 0.55545(16) -0.37827(16) -0.36461(15)
H5 H 0.6074 -0.4159 -0.3939
O3 O -0.10150(15) -0.81630(15) -1.11051(13)
C7 C 0.1856(2) -0.3714(2) -0.44989(18)
O4 O 0.10046(16) -0.60092(17) -1.01399(15)
H6 H 0.0775 -0.6173 -1.0812
O5 O 0.30767(15) -0.37677(15) -0.29728(13)
O6 O -0.17967(17) -0.76066(17) -0.87894(16)
H7 H -0.2049 -0.7041 -0.8311
O7 O 0.30548(18) -0.61129(16) -0.27056(16)
H8 H 0.3082 -0.6826 -0.3133
N2 N 0.50556(17) -0.38054(17) -0.13682(16)
O8 O 0.02246(17) -0.54871(15) -0.78807(15)
O9 O -0.48751(17) -0.74418(16) -1.52169(14)
O10 O -0.17331(16) -0.64771(14) -1.05402(14)
O11 O 0.30013(16) -0.52432(15) -0.46995(14)
C8 C 0.2684(2) -0.4289(2) -0.4042(2)
C9 C -0.1658(2) -0.7512(2) -1.13045(19)
O12 O -0.07140(16) -0.39687(17) -0.76840(14)
N3 N -0.28456(19) -1.08632(18) -1.51982(18)
O13 O -0.3288(2) -1.12147(18) -1.61941(16)
N4 N 0.4296(2) 0.07124(19) 0.22696(19)
N5 N 0.0858(2) -0.0736(2) -0.35670(18)
N6 N 0.50355(19) -0.00956(19) 0.20840(18)
C10 C 0.1703(2) -0.2530(2) -0.38177(19)
H9 H 0.2086 -0.2095 -0.3067
C11 C 0.1285(2) -0.4331(2) -0.56229(19)
H10 H 0.1398 -0.5118 -0.6081
C12 C -0.2266(2) -0.9169(2) -1.32873(19)
N7 N 0.36532(17) -0.06924(17) 0.05344(16)
C13 C 0.2522(2) 0.0961(2) 0.1228(2)
C14 C 0.5066(2) -0.2051(2) 0.0419(2)
C15 C 0.0969(2) -0.2017(2) -0.4287(2)
O14 O 0.0365(2) -0.02022(19) -0.40114(19)
O15 O -0.23671(19) -1.15102(16) -1.48703(17)
C16 C -0.0037(2) -0.4464(2) -0.73110(19)
C17 C 0.3480(2) 0.0351(2) 0.1353(2)
C18 C 0.0547(2) -0.3793(2) -0.60782(19)
C19 C 0.4605(2) -0.0930(2) 0.10220(19)
C20 C -0.2909(2) -0.9616(2) -1.43598(19)
C21 C 0.5826(2) -0.2459(2) 0.0979(2)
H11 H 0.6076 -0.2022 0.1764
C22 C -0.2349(2) -0.8008(2) -1.24772(19)
C23 C 0.4718(2) -0.2747(2) -0.07521(19)
H12 H 0.4220 -0.2464 -0.1133
C24 C 0.2019(2) 0.1718(2) 0.2156(2)
H13 H 0.2269 0.1848 0.2905
C25 C 0.2084(2) 0.0777(2) 0.0129(2)
H14 H 0.2378 0.0250 -0.0513
C26 C 0.0384(2) -0.2610(2) -0.5393(2)
H15 H -0.0105 -0.2233 -0.5675
O16 O 0.1292(3) -0.0265(2) -0.25665(18)
C27 C 0.6206(3) -0.3528(3) 0.0348(2)
H16 H 0.6732 -0.3811 0.0702
C28 C 0.5804(3) -0.4172(2) -0.0806(2)
H17 H 0.6062 -0.4895 -0.1217
H18 H -0.233(3) -0.802(3) -0.926(3)
H19 H 0.527(3) -0.352(3) -0.407(3)
H20 H 0.235(3) -0.607(3) -0.265(3)
H21 H 0.126(3) -0.532(3) -0.979(3)
H22 H -0.177(2) -0.965(2) -1.311(2)
H23 H 0.436(3) 0.129(3) 0.291(3)
O1_2 O 0.54211(16) -0.60671(15) -0.33691(15)
N1_2 N 0.07598(18) -0.78612(17) -0.91132(16)
Ni1_2 Ni -0.03523(3) 0.31439(3) 0.05442(2)
Ni2_2 Ni -0.56860(3) -0.48593(3) -1.30774(2)
loop_
_geom_bond_atom_site_label_1
_geom_bond_atom_site_label_2
_geom_bond_site_symmetry_1
_geom_bond_site_symmetry_2
O1 C1 1_555 1_555
C1 C2 1_555 1_555
C2 C3 1_555 1_555
C3 H1 1_555 1_555
C4 C2 1_555 1_555
H2 C4 1_555 1_555
N1 C5 1_555 1_555
C5 H3 1_555 1_555
C6 N1 1_555 1_555
H4 C6 1_555 1_555
Ni1 O3 1_555 1_555
Ni2 O2 1_555 1_555
O2 H5 1_555 1_555
O3 C9 1_555 1_555
C7 C8 1_555 1_555
O4 Ni1 1_555 1_555
H6 O4 1_555 1_555
O5 Ni2 1_555 1_555
O6 Ni1 1_555 1_555
H7 O6 1_555 1_555
O7 Ni2 1_555 1_555
H8 O7 1_555 1_555
N2 Ni2 1_555 1_555
O8 Ni1 1_555 1_555
O9 C1 1_555 1_555
O10 Ni1 1_555 1_555
O11 Ni2 1_555 1_555
C8 O5 1_555 1_555
C9 O10 1_555 1_555
O12 C16 1_555 1_555
N3 O13 1_555 1_555
N4 N6 1_555 1_555
N5 C15 1_555 1_555
N6 C19 1_555 1_555
C10 C7 1_555 1_555
H9 C10 1_555 1_555
C11 C7 1_555 1_555
H10 C11 1_555 1_555
C12 C20 1_555 1_555
N7 C17 1_555 1_555
C13 C17 1_555 1_555
C14 C19 1_555 1_555
C15 C10 1_555 1_555
O14 N5 1_555 1_555
O15 N3 1_555 1_555
C16 O8 1_555 1_555
C17 N4 1_555 1_555
C18 C11 1_555 1_555
C19 N7 1_555 1_555
C20 C4 1_555 1_555
C21 C14 1_555 1_555
H11 C21 1_555 1_555
C22 C3 1_555 1_555
C23 N2 1_555 1_555
H12 C23 1_555 1_555
C24 C6 1_555 1_555
H13 C24 1_555 1_555
C25 C5 1_555 1_555
H14 C25 1_555 1_555
C26 C15 1_555 1_555
H15 C26 1_555 1_555
O16 N5 1_555 1_555
C27 C21 1_555 1_555
H16 C27 1_555 1_555
C28 N2 1_555 1_555
H17 C28 1_555 1_555
H18 O6 1_555 1_555
H19 O2 1_555 1_555
H20 O7 1_555 1_555
H21 O4 1_555 1_555
H22 C12 1_555 1_555
H23 N4 1_555 1_555
O1_2 Ni2 1_555 1_555
N1_2 Ni1 1_555 1_555
Ni1_2 N1 1_555 1_555
Ni2_2 O1 1_555 1_555
O11 C8 1_555 1_555
C9 C22 1_555 1_555
N3 C20 1_555 1_555
C12 C22 1_555 1_555
C13 C24 1_555 1_555
C13 C25 1_555 1_555
C14 C23 1_555 1_555
C16 C18 1_555 1_555
C18 C26 1_555 1_555
C27 C28 1_555 1_555

#END
