
#######################################################################
#
#                 Cambridge Crystallographic Data Centre
#                                CCDC 
#
#######################################################################
#
# If this CIF has been generated from an entry in the Cambridge 
# Structural Database, then it will include bibliographic, chemical, 
# crystal, experimental, refinement or atomic coordinate data resulting 
# from the CCDC's data processing and validation procedures.
#
#######################################################################

data_OQEFUM
_symmetry_cell_setting           orthorhombic
_symmetry_space_group_name_H-M   'I b a 2'
_symmetry_Int_Tables_number      45
_space_group_name_Hall           'I 2 -2c'
loop_
_symmetry_equiv_pos_site_id
_symmetry_equiv_pos_as_xyz
1 x,y,z
2 -x,-y,z
3 1/2+x,1/2-y,z
4 1/2-x,1/2+y,z
5 1/2+x,1/2+y,1/2+z
6 1/2-x,1/2-y,1/2+z
7 x,-y,1/2+z
8 -x,y,1/2+z
_cell_length_a                   33.9445(17)
_cell_length_b                   20.0897(8)
_cell_length_c                   9.2855(4)
_cell_angle_alpha                90
_cell_angle_beta                 90
_cell_angle_gamma                90
_cell_volume                     6332.11
loop_
_atom_site_label
_atom_site_type_symbol
_atom_site_fract_x
_atom_site_fract_y
_atom_site_fract_z
Fe1 Fe -0.14064(3) -0.42752(4) -0.00583(12)
O1 O -0.18401(14) -0.3947(2) 0.0937(5)
C1 C -0.2184(2) -0.3718(4) 0.0420(7)
C2 C -0.2548(2) -0.3899(3) 0.1069(8)
C3 C -0.2880(2) -0.3695(4) 0.0339(8)
H1 H -0.3121 -0.3813 0.0736
C4 C -0.2889(2) -0.3335(4) -0.0914(8)
C5 C -0.2531(2) -0.3117(3) -0.1435(8)
H2 H -0.2525 -0.2851 -0.2253
C6 C -0.2178(2) -0.3289(3) -0.0763(8)
C7 C -0.1796(2) -0.2998(3) -0.1246(8)
H3 H -0.1846 -0.2695 -0.2038
H4 H -0.1684 -0.2741 -0.0461
N1 N -0.15045(16) -0.3505(3) -0.1716(6)
C8 C -0.1115(2) -0.3192(3) -0.1972(8)
H5 H -0.0937 -0.3531 -0.2330
H6 H -0.1145 -0.2861 -0.2725
C9 C -0.0930(2) -0.2869(4) -0.0714(8)
C10 C -0.0827(2) -0.2203(3) -0.0751(8)
H7 H -0.0898 -0.1951 -0.1550
C11 C -0.0623(2) -0.1898(3) 0.0361(7)
C12 C -0.0526(2) -0.2303(4) 0.1506(8)
H8 H -0.0388 -0.2107 0.2260
C13 C -0.0613(2) -0.2970(4) 0.1641(8)
C14 C -0.08318(19) -0.3256(3) 0.0484(7)
O2 O -0.09402(14) -0.3904(2) 0.0499(5)
C15 C -0.2575(2) -0.4286(4) 0.2488(8)
C16 C -0.2995(2) -0.4319(5) 0.3072(9)
H9 H -0.3156 -0.4576 0.2427
H10 H -0.3100 -0.3877 0.3151
H11 H -0.2993 -0.4526 0.4004
C17 C -0.2425(2) -0.4983(5) 0.2296(12)
H12 H -0.2573 -0.5201 0.1552
H13 H -0.2454 -0.5224 0.3182
H14 H -0.2152 -0.4971 0.2030
C18 C -0.2324(3) -0.3949(4) 0.3682(9)
H15 H -0.2324 -0.4224 0.4527
H16 H -0.2435 -0.3522 0.3912
H17 H -0.2059 -0.3892 0.3345
C19 C -0.3264(2) -0.3173(4) -0.1722(9)
C20 C -0.3639(3) -0.3356(7) -0.0897(14)
H18 H -0.3640 -0.3826 -0.0705
H19 H -0.3865 -0.3242 -0.1465
H20 H -0.3646 -0.3116 -0.0004
C21 C -0.3308(3) -0.2451(5) -0.2062(14)
H21 H -0.3092 -0.2310 -0.2659
H22 H -0.3308 -0.2199 -0.1184
H23 H -0.3552 -0.2380 -0.2563
C22 C -0.3274(3) -0.3562(7) -0.3096(13)
H24 H -0.3058 -0.3428 -0.3697
H25 H -0.3517 -0.3478 -0.3587
H26 H -0.3252 -0.4028 -0.2885
C23 C -0.0495(3) -0.1177(4) 0.0310(9)
C24 C -0.0031(4) -0.1188(4) 0.0240(19)
H27 H 0.0052 -0.1250 -0.0739
H28 H 0.0067 -0.1547 0.0821
H29 H 0.0070 -0.0773 0.0596
C25 C -0.0589(3) -0.0804(4) 0.1704(12)
H30 H -0.0867 -0.0826 0.1889
H31 H -0.0511 -0.0347 0.1609
H32 H -0.0448 -0.1004 0.2489
C26 C -0.0681(6) -0.0812(5) -0.0939(17)
H33 H -0.0954 -0.0733 -0.0736
H34 H -0.0658 -0.1077 -0.1795
H35 H -0.0549 -0.0395 -0.1081
C27 C -0.0482(3) -0.3391(4) 0.2938(9)
C28 C -0.0822(3) -0.3680(5) 0.3773(9)
H36 H -0.0967 -0.3327 0.4225
H37 H -0.0723 -0.3978 0.4496
H38 H -0.0992 -0.3919 0.3129
C29 C -0.0223(3) -0.3960(6) 0.2445(12)
H39 H -0.0065 -0.4113 0.3237
H40 H -0.0054 -0.3810 0.1682
H41 H -0.0385 -0.4318 0.2101
C30 C -0.0237(4) -0.2980(5) 0.3957(12)
H42 H -0.0394 -0.2623 0.4335
H43 H -0.0015 -0.2800 0.3451
H44 H -0.0147 -0.3256 0.4734
C31 C -0.1631(2) -0.3851(3) -0.3020(8)
H45 H -0.1551 -0.3598 -0.3861
H46 H -0.1916 -0.3886 -0.3029
C32 C -0.1456(2) -0.4524(3) -0.3082(7)
O3 O -0.13378(15) -0.4780(2) -0.1922(5)
O4 O -0.14342(16) -0.4803(2) -0.4292(5)
Fe1F Fe -0.14064(3) -0.57248(4) -0.50583(12)
O4F O -0.14342(16) -0.5197(2) 0.0708(5)
loop_
_geom_bond_atom_site_label_1
_geom_bond_atom_site_label_2
_geom_bond_site_symmetry_1
_geom_bond_site_symmetry_2
Fe1 O1 1_555 1_555
O1 C1 1_555 1_555
C1 C2 1_555 1_555
C2 C3 1_555 1_555
C3 H1 1_555 1_555
C4 C3 1_555 1_555
C5 C4 1_555 1_555
H2 C5 1_555 1_555
C6 C1 1_555 1_555
C7 C6 1_555 1_555
H3 C7 1_555 1_555
H4 C7 1_555 1_555
N1 Fe1 1_555 1_555
C8 N1 1_555 1_555
H5 C8 1_555 1_555
H6 C8 1_555 1_555
C9 C8 1_555 1_555
C10 C9 1_555 1_555
H7 C10 1_555 1_555
C11 C10 1_555 1_555
C12 C11 1_555 1_555
H8 C12 1_555 1_555
C13 C12 1_555 1_555
C14 C9 1_555 1_555
O2 Fe1 1_555 1_555
C15 C2 1_555 1_555
C16 C15 1_555 1_555
H9 C16 1_555 1_555
H10 C16 1_555 1_555
H11 C16 1_555 1_555
C17 C15 1_555 1_555
H12 C17 1_555 1_555
H13 C17 1_555 1_555
H14 C17 1_555 1_555
C18 C15 1_555 1_555
H15 C18 1_555 1_555
H16 C18 1_555 1_555
H17 C18 1_555 1_555
C19 C4 1_555 1_555
C20 C19 1_555 1_555
H18 C20 1_555 1_555
H19 C20 1_555 1_555
H20 C20 1_555 1_555
C21 C19 1_555 1_555
H21 C21 1_555 1_555
H22 C21 1_555 1_555
H23 C21 1_555 1_555
C22 C19 1_555 1_555
H24 C22 1_555 1_555
H25 C22 1_555 1_555
H26 C22 1_555 1_555
C23 C11 1_555 1_555
C24 C23 1_555 1_555
H27 C24 1_555 1_555
H28 C24 1_555 1_555
H29 C24 1_555 1_555
C25 C23 1_555 1_555
H30 C25 1_555 1_555
H31 C25 1_555 1_555
H32 C25 1_555 1_555
C26 C23 1_555 1_555
H33 C26 1_555 1_555
H34 C26 1_555 1_555
H35 C26 1_555 1_555
C27 C13 1_555 1_555
C28 C27 1_555 1_555
H36 C28 1_555 1_555
H37 C28 1_555 1_555
H38 C28 1_555 1_555
C29 C27 1_555 1_555
H39 C29 1_555 1_555
H40 C29 1_555 1_555
H41 C29 1_555 1_555
C30 C27 1_555 1_555
H42 C30 1_555 1_555
H43 C30 1_555 1_555
H44 C30 1_555 1_555
C31 N1 1_555 1_555
H45 C31 1_555 1_555
H46 C31 1_555 1_555
C32 C31 1_555 1_555
O3 Fe1 1_555 1_555
O4 C32 1_555 1_555
Fe1F O4 1_555 1_555
O4F Fe1 1_555 1_555
C5 C6 1_555 1_555
C7 N1 1_555 1_555
C13 C14 1_555 1_555
C14 O2 1_555 1_555
C32 O3 1_555 1_555

#END
