
#######################################################################
#
#                 Cambridge Crystallographic Data Centre
#                                CCDC 
#
#######################################################################
#
# If this CIF has been generated from an entry in the Cambridge 
# Structural Database, then it will include bibliographic, chemical, 
# crystal, experimental, refinement or atomic coordinate data resulting 
# from the CCDC's data processing and validation procedures.
#
#######################################################################

data_OQIBIA
_symmetry_cell_setting           orthorhombic
_symmetry_space_group_name_H-M   'P n m a'
_symmetry_Int_Tables_number      62
_space_group_name_Hall           '-P 2ac 2n'
loop_
_symmetry_equiv_pos_site_id
_symmetry_equiv_pos_as_xyz
1 x,y,z
2 1/2-x,-y,1/2+z
3 1/2+x,1/2-y,1/2-z
4 -x,1/2+y,-z
5 -x,-y,-z
6 1/2+x,y,1/2-z
7 1/2-x,1/2+y,1/2+z
8 x,1/2-y,z
_cell_length_a                   11.6771(12)
_cell_length_b                   33.224(4)
_cell_length_c                   7.6291(8)
_cell_angle_alpha                90
_cell_angle_beta                 90
_cell_angle_gamma                90
_cell_volume                     2959.79
loop_
_atom_site_label
_atom_site_type_symbol
_atom_site_fract_x
_atom_site_fract_y
_atom_site_fract_z
Cd1 Cd 0.26359(3) 0.2500 0.49299(4)
Cd2 Cd -0.01061(2) 0.410249(9) 0.15308(4)
Se1 Se -0.02463(4) 0.373730(15) 0.47826(5)
Se2 Se 0.62258(4) 0.152670(13) 0.50135(6)
Se3 Se -0.10288(3) 0.476767(12) 0.35340(6)
N1 N 0.2508(5) 0.2500 0.1914(7)
H1 H 0.2094 0.2283 0.1608
N2 N 0.4153(4) 0.20384(11) 0.4994(5)
N3 N 0.2494(4) 0.2500 -0.2055(6)
H2 H 0.2082 0.2718 -0.1747
N4 N 0.1242(3) 0.30218(11) 0.4841(5)
N5 N -0.3399(3) 0.44749(12) 0.3300(5)
N6 N -0.1909(3) 0.38563(9) 0.0692(4)
H3 H -0.1939 0.3588 0.0854
H4 H -0.2460 0.3971 0.1347
N7 N -0.0460(4) 0.44023(12) -0.1180(5)
H5 H -0.0258 0.4664 -0.1149
H6 H -0.0046 0.4280 -0.2020
C1 C 0.3493(6) 0.2500 0.0871(8)
H7 H 0.3934 0.2266 0.1223
C2 C 0.3486(5) 0.2500 -0.1039(8)
H8 H 0.3925 0.2734 -0.1399
C3 C 0.0662(3) 0.32962(12) 0.4780(5)
C4 C 0.4977(4) 0.18433(12) 0.5007(5)
C5 C -0.2087(4) 0.39525(16) -0.1167(6)
H9 H -0.2895 0.3931 -0.1446
H10 H -0.1674 0.3761 -0.1887
C6 C -0.1682(4) 0.43650(15) -0.1565(6)
H11 H -0.1817 0.4425 -0.2792
H12 H -0.2109 0.4558 -0.0868
C7 C -0.2484(3) 0.45932(11) 0.3381(5)
Cd1_2 Cd 0.26359(3) 0.2500 -0.50701(4)
Cd2G Cd -0.01061(2) 0.089751(9) 0.15308(4)
Cd2B Cd 0.48939(2) 0.089751(9) 0.34692(4)
Cd2E Cd -0.51061(2) 0.410249(9) 0.34692(4)
Cd2E_2 Cd 0.48939(2) 0.410249(9) 0.34692(4)
Se1G Se -0.02463(4) 0.126270(15) 0.47826(5)
Se2G Se 0.62258(4) 0.347330(13) 0.50135(6)
Se2B Se 0.12258(4) 0.347330(13) -0.00135(6)
Se2E Se 0.12258(4) 0.152670(13) -0.00135(6)
Se3E Se 0.39712(3) 0.476767(12) 0.14660(6)
Se3G Se -0.10288(3) 0.023233(12) 0.35340(6)
H1G H 0.2094 0.2717 0.1608
N2G N 0.4153(4) 0.29616(11) 0.4994(5)
N3_2 N 0.2494(4) 0.2500 0.7945(6)
H2G H 0.2082 0.2282 -0.1747
H2_2 H 0.2082 0.2718 0.8253
H2G_2 H 0.2082 0.2282 0.8253
N4G N 0.1242(3) 0.19782(11) 0.4841(5)
N5E N 0.1601(3) 0.44749(12) 0.1700(5)
N5B N 0.1601(3) 0.05251(12) 0.1700(5)
N6G N -0.1909(3) 0.11437(9) 0.0692(4)
H3G H -0.1939 0.1412 0.0854
H4G H -0.2460 0.1029 0.1347
N7G N -0.0460(4) 0.05977(12) -0.1180(5)
H5G H -0.0258 0.0336 -0.1149
H6G H -0.0046 0.0720 -0.2020
H7G H 0.3934 0.2734 0.1223
H8G H 0.3925 0.2266 -0.1399
C3G C 0.0662(3) 0.17038(12) 0.4780(5)
C4G C 0.4977(4) 0.31567(12) 0.5007(5)
C5G C -0.2087(4) 0.10475(16) -0.1167(6)
H9G H -0.2895 0.1069 -0.1446
H10G H -0.1674 0.1239 -0.1887
C6G C -0.1682(4) 0.06350(15) -0.1565(6)
H11G H -0.1817 0.0575 -0.2792
H12G H -0.2109 0.0442 -0.0868
C7E C 0.2516(3) 0.45932(11) 0.1619(5)
loop_
_geom_bond_atom_site_label_1
_geom_bond_atom_site_label_2
_geom_bond_site_symmetry_1
_geom_bond_site_symmetry_2
Cd1 N1 1_555 1_555
Cd2 Se1 1_555 1_555
Se1 C3 1_555 1_555
Se2 C4 1_555 1_555
Se3 Cd2 1_555 1_555
N1 H1 1_555 1_555
N2 Cd1 1_555 1_555
N3 H2 1_555 1_555
N4 Cd1 1_555 1_555
N5 C7 1_555 1_555
N6 Cd2 1_555 1_555
H3 N6 1_555 1_555
H4 N6 1_555 1_555
N7 Cd2 1_555 1_555
H5 N7 1_555 1_555
H6 N7 1_555 1_555
C1 N1 1_555 1_555
H7 C1 1_555 1_555
C2 N3 1_555 1_555
H8 C2 1_555 1_555
C3 N4 1_555 1_555
C4 N2 1_555 1_555
C5 N6 1_555 1_555
H9 C5 1_555 1_555
H10 C5 1_555 1_555
C6 N7 1_555 1_555
H11 C6 1_555 1_555
H12 C6 1_555 1_555
C7 Se3 1_555 1_555
Cd1_2 N3 1_555 1_555
Cd2G Se1G 1_555 1_555
Cd2B Se2 1_555 1_555
Cd2E N5 1_555 1_555
Cd2E_2 Se2G 1_555 1_555
Se1G C3G 1_555 1_555
Se2G C4G 1_555 1_555
Se2B Cd2 1_555 1_555
Se2E Cd2G 1_555 1_555
Se3E Cd2E_2 1_555 1_555
Se3G Cd2G 1_555 1_555
H1G N1 1_555 1_555
N2G Cd1 1_555 1_555
N3_2 Cd1 1_555 1_555
H2G N3 1_555 1_555
H2_2 N3_2 1_555 1_555
H2G_2 N3_2 1_555 1_555
N4G Cd1 1_555 1_555
N5E Cd2 1_555 1_555
N5B Cd2G 1_555 1_555
N6G Cd2G 1_555 1_555
H3G N6G 1_555 1_555
H4G N6G 1_555 1_555
N7G Cd2G 1_555 1_555
H5G N7G 1_555 1_555
H6G N7G 1_555 1_555
H7G C1 1_555 1_555
H8G C2 1_555 1_555
C3G N4G 1_555 1_555
C4G N2G 1_555 1_555
C5G N6G 1_555 1_555
H9G C5G 1_555 1_555
H10G C5G 1_555 1_555
C6G N7G 1_555 1_555
H11G C6G 1_555 1_555
H12G C6G 1_555 1_555
C7E Se3E 1_555 1_555
C1 C2 1_555 1_555
C5 C6 1_555 1_555
N5E C7E 1_555 1_555
C5G C6G 1_555 1_555

#END
