
#######################################################################
#
#                 Cambridge Crystallographic Data Centre
#                                CCDC 
#
#######################################################################
#
# If this CIF has been generated from an entry in the Cambridge 
# Structural Database, then it will include bibliographic, chemical, 
# crystal, experimental, refinement or atomic coordinate data resulting 
# from the CCDC's data processing and validation procedures.
#
#######################################################################

data_OQIDAU
_symmetry_cell_setting           monoclinic
_symmetry_space_group_name_H-M   'P 21/m'
_symmetry_Int_Tables_number      11
_space_group_name_Hall           '-P 2yb'
loop_
_symmetry_equiv_pos_site_id
_symmetry_equiv_pos_as_xyz
1 x,y,z
2 -x,1/2+y,-z
3 -x,-y,-z
4 x,1/2-y,z
_cell_length_a                   3.7645(14)
_cell_length_b                   13.636(9)
_cell_length_c                   7.266(5)
_cell_angle_alpha                90
_cell_angle_beta                 96.66(3)
_cell_angle_gamma                90
_cell_volume                     370.467
loop_
_atom_site_label
_atom_site_type_symbol
_atom_site_fract_x
_atom_site_fract_y
_atom_site_fract_z
Cd1 Cd 0.5000 0.5000 0.5000
Cl1 Cl 0.0598(4) 0.45319(11) 0.73833(19)
N1 N 0.6167(18) 0.2500 0.6341(9)
H1 H 0.6474 0.1954 0.6929
H2 H 0.6489 0.3046 0.6928
N2 N 0.4706(12) 0.3383(3) 0.3629(6)
C1 C 0.5185(19) 0.2500 0.4502(10)
C2 C 0.337(2) 0.2500 0.0784(11)
H3 H 0.2774 0.2500 -0.0494
C3 C 0.3831(14) 0.3359(4) 0.1784(8)
H4 H 0.3524 0.3951 0.1150
Cd1_2 Cd -0.5000 0.5000 0.5000
Cd1A Cd 0.5000 0.0000 0.5000
Cd1_3 Cd 1.5000 0.5000 0.5000
Cl1_2 Cl 1.0598(4) 0.45319(11) 0.73833(19)
Cl1B Cl 0.9402(4) 0.54681(11) 0.26167(19)
Cl1B_2 Cl -0.0598(4) 0.54681(11) 0.26167(19)
N2C N 0.4706(12) 0.1617(3) 0.3629(6)
N2B N 0.5294(12) 0.6617(3) 0.6371(6)
C3C C 0.3831(14) 0.1641(4) 0.1784(8)
H4C H 0.3524 0.1049 0.1150
loop_
_geom_bond_atom_site_label_1
_geom_bond_atom_site_label_2
_geom_bond_site_symmetry_1
_geom_bond_site_symmetry_2
Cd1 Cl1 1_555 1_555
Cl1 Cd1_2 1_555 1_555
N1 H1 1_555 1_555
H2 N1 1_555 1_555
N2 Cd1 1_555 1_555
C1 N1 1_555 1_555
C2 H3 1_555 1_555
C3 N2 1_555 1_555
H4 C3 1_555 1_555
Cd1_2 Cl1B_2 1_555 1_555
Cd1A N2C 1_555 1_555
Cd1_3 Cl1_2 1_555 1_555
Cl1_2 Cd1 1_555 1_555
Cl1B Cd1 1_555 1_555
Cl1B_2 Cd1 1_555 1_555
N2C C1 1_555 1_555
N2B Cd1 1_555 1_555
C3C C2 1_555 1_555
H4C C3C 1_555 1_555
N2 C1 1_555 1_555
C2 C3 1_555 1_555
Cd1_3 Cl1B 1_555 1_555
N2C C3C 1_555 1_555

#END
