
#######################################################################
#
#                 Cambridge Crystallographic Data Centre
#                                CCDC 
#
#######################################################################
#
# If this CIF has been generated from an entry in the Cambridge 
# Structural Database, then it will include bibliographic, chemical, 
# crystal, experimental, refinement or atomic coordinate data resulting 
# from the CCDC's data processing and validation procedures.
#
#######################################################################

data_OQIJOO
_symmetry_cell_setting           monoclinic
_symmetry_space_group_name_H-M   'C 2/c'
_symmetry_Int_Tables_number      15
_space_group_name_Hall           '-C 2yn'
loop_
_symmetry_equiv_pos_site_id
_symmetry_equiv_pos_as_xyz
1 x,y,z
2 -x,y,1/2-z
3 1/2+x,1/2+y,z
4 1/2-x,1/2+y,1/2-z
5 -x,-y,-z
6 x,-y,1/2+z
7 1/2-x,1/2-y,-z
8 1/2+x,1/2-y,1/2+z
_cell_length_a                   13.608(3)
_cell_length_b                   7.3363(15)
_cell_length_c                   17.435(4)
_cell_angle_alpha                90
_cell_angle_beta                 98.85(3)
_cell_angle_gamma                90
_cell_volume                     1719.85
loop_
_atom_site_label
_atom_site_type_symbol
_atom_site_fract_x
_atom_site_fract_y
_atom_site_fract_z
N1 N -0.14731(12) 0.5959(2) 0.92614(10)
C1 C -0.06759(14) 0.6435(3) 0.89496(11)
Mn1 Mn 0.0000 0.82153(6) 0.7500
Mn2 Mn 0.2500 0.2500 1.0000
Cl1 Cl 0.35897(4) 0.52135(7) 1.02684(3)
N2 N 0.10706(12) 0.6079(3) 0.80361(10)
N3 N 0.20264(13) 0.5771(3) 0.79349(11)
N4 N 0.24170(13) 0.4574(3) 0.84438(11)
N5 N 0.17447(12) 0.4062(2) 0.89017(10)
N6 N -0.05541(12) 0.8212(2) 0.86651(10)
H1 H -0.0119 0.8826 0.9012
H2 H -0.1141 0.8801 0.8616
N7 N -0.13388(13) 0.4148(2) 0.94142(11)
H3 H -0.1758 0.3483 0.9609
C2 C 0.09246(15) 0.5005(3) 0.86311(11)
C3 C -0.00207(15) 0.4958(3) 0.89239(12)
C4 C -0.04836(16) 0.3515(3) 0.92284(12)
H4 H -0.0246 0.2327 0.9292
O1 O -0.11408(14) 1.0364(3) 0.71372(12)
H5 H -0.131(2) 1.042(5) 0.669(2)
H6 H -0.160(3) 1.062(5) 0.733(2)
N1A N 0.14731(12) 0.5959(2) 0.57386(10)
N1B N 0.35269(12) 0.0959(2) 0.92614(10)
N1D N 0.14731(12) 0.4041(2) 1.07386(10)
C1A C 0.06759(14) 0.6435(3) 0.60504(11)
Mn2B Mn -0.2500 0.7500 1.0000
Mn2C Mn 0.2500 0.7500 0.5000
Mn2A Mn -0.2500 0.2500 0.5000
Cl1F Cl 0.14103(4) -0.02135(7) 0.97316(3)
N2A N -0.10706(12) 0.6079(3) 0.69639(10)
N3A N -0.20264(13) 0.5771(3) 0.70651(11)
N4A N -0.24170(13) 0.4574(3) 0.65562(11)
N5A N -0.17447(12) 0.4062(2) 0.60983(10)
N5F N 0.32553(12) 0.0938(2) 1.10983(10)
N6A N 0.05541(12) 0.8212(2) 0.63349(10)
H1A H 0.0119 0.8826 0.5988
H2A H 0.1141 0.8801 0.6384
N7A N 0.13388(13) 0.4148(2) 0.55858(11)
H3A H 0.1758 0.3483 0.5391
C2A C -0.09246(15) 0.5005(3) 0.63689(11)
C3A C 0.00207(15) 0.4958(3) 0.60761(12)
C4A C 0.04836(16) 0.3515(3) 0.57716(12)
H4A H 0.0246 0.2327 0.5708
O1A O 0.11408(14) 1.0364(3) 0.78628(12)
H5A H 0.131(2) 1.042(5) 0.831(2)
H6A H 0.160(3) 1.062(5) 0.767(2)
loop_
_geom_bond_atom_site_label_1
_geom_bond_atom_site_label_2
_geom_bond_site_symmetry_1
_geom_bond_site_symmetry_2
N1 C1 1_555 1_555
C1 N6 1_555 1_555
Mn1 N2 1_555 1_555
Mn2 Cl1 1_555 1_555
N2 N3 1_555 1_555
N3 N4 1_555 1_555
N4 N5 1_555 1_555
N5 Mn2 1_555 1_555
N6 Mn1 1_555 1_555
H1 N6 1_555 1_555
H2 N6 1_555 1_555
N7 N1 1_555 1_555
H3 N7 1_555 1_555
C2 N2 1_555 1_555
C3 C1 1_555 1_555
C4 N7 1_555 1_555
H4 C4 1_555 1_555
O1 Mn1 1_555 1_555
H5 O1 1_555 1_555
H6 O1 1_555 1_555
N1A C1A 1_555 1_555
N1B Mn2 1_555 1_555
N1D Mn2 1_555 1_555
C1A N6A 1_555 1_555
Mn2B N1 1_555 1_555
Mn2C N1A 1_555 1_555
Mn2A N5A 1_555 1_555
Cl1F Mn2 1_555 1_555
N2A Mn1 1_555 1_555
N3A N2A 1_555 1_555
N4A N3A 1_555 1_555
N5A N4A 1_555 1_555
N5F Mn2 1_555 1_555
N6A Mn1 1_555 1_555
H1A N6A 1_555 1_555
H2A N6A 1_555 1_555
N7A N1A 1_555 1_555
H3A N7A 1_555 1_555
C2A N2A 1_555 1_555
C3A C1A 1_555 1_555
C4A N7A 1_555 1_555
H4A C4A 1_555 1_555
O1A Mn1 1_555 1_555
H5A O1A 1_555 1_555
H6A O1A 1_555 1_555
N5 C2 1_555 1_555
C2 C3 1_555 1_555
C3 C4 1_555 1_555
N5A C2A 1_555 1_555
C2A C3A 1_555 1_555
C3A C4A 1_555 1_555

#END
