
#######################################################################
#
#                 Cambridge Crystallographic Data Centre
#                                CCDC 
#
#######################################################################
#
# If this CIF has been generated from an entry in the Cambridge 
# Structural Database, then it will include bibliographic, chemical, 
# crystal, experimental, refinement or atomic coordinate data resulting 
# from the CCDC's data processing and validation procedures.
#
#######################################################################

data_OQIKOP
_symmetry_cell_setting           monoclinic
_symmetry_space_group_name_H-M   'C 2'
_symmetry_Int_Tables_number      5
_space_group_name_Hall           'C 2y'
loop_
_symmetry_equiv_pos_site_id
_symmetry_equiv_pos_as_xyz
1 x,y,z
2 -x,y,-z
3 1/2+x,1/2+y,z
4 1/2-x,1/2+y,-z
_cell_length_a                   15.155(3)
_cell_length_b                   7.2580(13)
_cell_length_c                   16.999(3)
_cell_angle_alpha                90
_cell_angle_beta                 115.241(3)
_cell_angle_gamma                90
_cell_volume                     1691.28
loop_
_atom_site_label
_atom_site_type_symbol
_atom_site_fract_x
_atom_site_fract_y
_atom_site_fract_z
Ag1 Ag 0.19954(2) -0.95203(8) 0.154690(18)
N1 N 0.1812(3) -0.6558(7) 0.1623(3)
H1 H 0.1653 -0.6059 0.1082
H2 H 0.1292 -0.6359 0.1758
N2 N 0.2166(3) -0.2500(7) 0.1515(3)
H3 H 0.1579 -0.2983 0.1129
H4 H 0.2614 -0.2731 0.1294
C1 C 0.2662(4) -0.5563(7) 0.2259(4)
H5 H 0.3201 -0.5659 0.2070
C2 C 0.2479(4) -0.3529(8) 0.2351(3)
H6 H 0.1938 -0.3444 0.2539
C3 C 0.3361(4) -0.2581(7) 0.3035(3)
H7 H 0.3195 -0.1285 0.3094
H8 H 0.3896 -0.2577 0.2847
C4 C 0.3707(4) -0.3535(9) 0.3909(4)
H9 H 0.3202 -0.3410 0.4130
H10 H 0.4308 -0.2927 0.4329
C5 C 0.3911(4) -0.5563(8) 0.3844(4)
H11 H 0.4088 -0.6167 0.4414
H12 H 0.4467 -0.5696 0.3688
C6 C 0.3002(3) -0.6497(7) 0.3149(3)
H13 H 0.3152 -0.7806 0.3096
H14 H 0.2467 -0.6458 0.3337
Ag1_2 Ag 0.19954(2) 0.04797(8) 0.154690(18)
N2_2 N 0.2166(3) -1.2500(7) 0.1515(3)
H3_2 H 0.1579 -1.2983 0.1129
H4_2 H 0.2614 -1.2731 0.1294
O1 O 0.4915(2) -0.0865(5) 0.7934(2)
O2 O 0.6124(3) 0.1143(5) 0.8495(3)
C7 C 0.5290(3) 0.0702(10) 0.7940(3)
C8 C 0.4691(3) 0.2080(7) 0.7268(3)
C9 C 0.4665(3) 0.3891(7) 0.7572(3)
H15 H 0.5060 0.4183 0.8165
C10 C 0.4079(3) 0.5231(10) 0.7028(3)
H16 H 0.4046 0.6426 0.7242
C11 C 0.3539(4) 0.4794(8) 0.6164(3)
H17 H 0.3134 0.5707 0.5779
C12 C 0.3575(3) 0.3076(7) 0.5849(3)
H18 H 0.3199 0.2826 0.5248
C13 C 0.4145(3) 0.1698(7) 0.6384(3)
C14 C 0.4192(4) -0.0148(7) 0.6008(4)
H19 H 0.4636 -0.0953 0.6470
H20 H 0.4432 0.0002 0.5560
H21 H 0.3540 -0.0698 0.5749
O3 O 0.0000 0.0384(12) 0.0000
H22 H 0.0336 0.0935 -0.0202
H22A H -0.0336 0.0935 0.0202
O4 O 0.7130(3) 0.3839(6) 0.9626(2)
H23 H 0.6823 0.3029 0.9283
H24 H 0.7650 0.3356 0.9945
O5 O 0.6137(3) 0.7211(6) 0.9320(2)
H25 H 0.5759 0.7798 0.8898
H26 H 0.6595 0.6516 0.9342
O6 O 0.0000 0.6573(12) 0.0000
H28 H 0.0000 0.7718 0.0000
H27? H -0.0045 0.6187 0.0447
loop_
_geom_bond_atom_site_label_1
_geom_bond_atom_site_label_2
_geom_bond_site_symmetry_1
_geom_bond_site_symmetry_2
Ag1 N1 1_555 1_555
N1 H1 1_555 1_555
H2 N1 1_555 1_555
N2 H3 1_555 1_555
H4 N2 1_555 1_555
C1 N1 1_555 1_555
H5 C1 1_555 1_555
C2 N2 1_555 1_555
H6 C2 1_555 1_555
C3 C2 1_555 1_555
H7 C3 1_555 1_555
H8 C3 1_555 1_555
C4 C3 1_555 1_555
H9 C4 1_555 1_555
H10 C4 1_555 1_555
C5 C4 1_555 1_555
H11 C5 1_555 1_555
H12 C5 1_555 1_555
C6 C1 1_555 1_555
H13 C6 1_555 1_555
H14 C6 1_555 1_555
O1 C7 1_555 1_555
O2 C7 1_555 1_555
C7 C8 1_555 1_555
C8 C9 1_555 1_555
C9 H15 1_555 1_555
C10 C9 1_555 1_555
H16 C10 1_555 1_555
C11 C10 1_555 1_555
H17 C11 1_555 1_555
C12 C11 1_555 1_555
H18 C12 1_555 1_555
C13 C8 1_555 1_555
C14 C13 1_555 1_555
H19 C14 1_555 1_555
H20 C14 1_555 1_555
H21 C14 1_555 1_555
O3 H22 1_555 1_555
O4 H23 1_555 1_555
H24 O4 1_555 1_555
O5 H25 1_555 1_555
H26 O5 1_555 1_555
O6 H28 1_555 1_555
Ag1_2 N2 1_555 1_555
N2_2 Ag1 1_555 1_555
H3_2 N2_2 1_555 1_555
H4_2 N2_2 1_555 1_555
H22A O3 1_555 1_555
C1 C2 1_555 1_555
C5 C6 1_555 1_555
C12 C13 1_555 1_555

#END
