
#######################################################################
#
#                 Cambridge Crystallographic Data Centre
#                                CCDC 
#
#######################################################################
#
# If this CIF has been generated from an entry in the Cambridge 
# Structural Database, then it will include bibliographic, chemical, 
# crystal, experimental, refinement or atomic coordinate data resulting 
# from the CCDC's data processing and validation procedures.
#
#######################################################################

data_OQIKUV
_symmetry_cell_setting           monoclinic
_symmetry_space_group_name_H-M   'C 2/c'
_symmetry_Int_Tables_number      15
_space_group_name_Hall           '-C 2yn'
loop_
_symmetry_equiv_pos_site_id
_symmetry_equiv_pos_as_xyz
1 x,y,z
2 -x,y,1/2-z
3 1/2+x,1/2+y,z
4 1/2-x,1/2+y,1/2-z
5 -x,-y,-z
6 x,-y,1/2+z
7 1/2-x,1/2-y,-z
8 1/2+x,1/2-y,1/2+z
_cell_length_a                   27.922(7)
_cell_length_b                   5.7795(14)
_cell_length_c                   19.799(5)
_cell_angle_alpha                90
_cell_angle_beta                 101.884(4)
_cell_angle_gamma                90
_cell_volume                     3126.59
loop_
_atom_site_label
_atom_site_type_symbol
_atom_site_fract_x
_atom_site_fract_y
_atom_site_fract_z
Ag1 Ag 0.453653(11) 0.82335(5) 0.616255(15)
N1 N 0.44575(11) 0.5076(5) 0.55707(15)
H1 H 0.4429 0.5454 0.5113
H2 H 0.4740 0.4228 0.5701
N2 N 0.44940(13) 0.1522(5) 0.66594(16)
H3 H 0.4503 0.1254 0.7120
H4 H 0.4769 0.2361 0.6631
C1 C 0.40403(13) 0.3587(6) 0.56341(18)
H5 H 0.4058 0.2130 0.5368
C2 C 0.40592(14) 0.2964(6) 0.63837(19)
H6 H 0.4087 0.4431 0.6657
C3 C 0.35988(18) 0.1701(8) 0.6480(3)
H7 H 0.3612 0.1476 0.6979
H8 H 0.3589 0.0153 0.6263
C4 C 0.31320(18) 0.3021(9) 0.6164(3)
H9 H 0.2843 0.2087 0.6210
H10 H 0.3121 0.4488 0.6419
C5 C 0.31087(17) 0.3548(10) 0.5410(3)
H11 H 0.2815 0.4496 0.5229
H12 H 0.3081 0.2085 0.5145
C6 C 0.35675(14) 0.4854(9) 0.5318(2)
H13 H 0.3554 0.5085 0.4819
H14 H 0.3570 0.6400 0.5534
Ag1_2 Ag 0.453653(11) -0.17665(5) 0.616255(15)
N2_2 N 0.44940(13) 1.1522(5) 0.66594(16)
O1 O 0.05041(14) 0.1520(6) 0.19099(17)
O2 O 0.04413(14) 0.2036(10) 0.07931(18)
C7 C 0.06835(18) 0.1750(9) 0.1386(2)
C8 C 0.12329(18) 0.1738(9) 0.1460(2)
C9 C 0.1530(2) 0.0059(10) 0.1810(3)
C10 C 0.1326(3) -0.1858(12) 0.2149(4)
H15 H 0.1591 -0.2895 0.2366
H16 H 0.1090 -0.2717 0.1804
H17 H 0.1161 -0.1238 0.2501
C11 C 0.2049(2) 0.0194(12) 0.1844(3)
H18 H 0.2263 -0.0943 0.2089
C12 C 0.2227(2) 0.1950(11) 0.1526(3)
H19 H 0.2569 0.2004 0.1543
C13 C 0.1941(2) 0.3660(12) 0.1180(3)
H20 H 0.2082 0.4906 0.0976
C14 C 0.1443(2) 0.3540(11) 0.1132(3)
H21 H 0.1237 0.4681 0.0875
O3 O 0.5000 0.6869(7) 0.7500
H22 H 0.4852 0.5882 0.7674
H22A H 0.5148 0.5882 0.7326
O4 O 0.5274(3) 0.8862(14) 0.5420(4)
H23 H 0.5079 0.8361 0.5083
H24 H 0.5155 0.8728 0.5774
loop_
_geom_bond_atom_site_label_1
_geom_bond_atom_site_label_2
_geom_bond_site_symmetry_1
_geom_bond_site_symmetry_2
Ag1 N1 1_555 1_555
N1 H1 1_555 1_555
H2 N1 1_555 1_555
N2 H3 1_555 1_555
H4 N2 1_555 1_555
C1 N1 1_555 1_555
H5 C1 1_555 1_555
C2 N2 1_555 1_555
H6 C2 1_555 1_555
C3 C2 1_555 1_555
H7 C3 1_555 1_555
H8 C3 1_555 1_555
C4 C3 1_555 1_555
H9 C4 1_555 1_555
H10 C4 1_555 1_555
C5 C4 1_555 1_555
H11 C5 1_555 1_555
H12 C5 1_555 1_555
C6 C1 1_555 1_555
H13 C6 1_555 1_555
H14 C6 1_555 1_555
O1 C7 1_555 1_555
O2 C7 1_555 1_555
C7 C8 1_555 1_555
C8 C9 1_555 1_555
C9 C10 1_555 1_555
C10 H15 1_555 1_555
H16 C10 1_555 1_555
H17 C10 1_555 1_555
C11 C9 1_555 1_555
H18 C11 1_555 1_555
C12 C11 1_555 1_555
H19 C12 1_555 1_555
C13 C12 1_555 1_555
H20 C13 1_555 1_555
C14 C8 1_555 1_555
H21 C14 1_555 1_555
O3 H22 1_555 1_555
O4 H23 1_555 1_555
H24 O4 1_555 1_555
Ag1_2 N2 1_555 1_555
N2_2 Ag1 1_555 1_555
H22A O3 1_555 1_555
C1 C2 1_555 1_555
C5 C6 1_555 1_555
C13 C14 1_555 1_555

#END
