
#######################################################################
#
#                 Cambridge Crystallographic Data Centre
#                                CCDC 
#
#######################################################################
#
# If this CIF has been generated from an entry in the Cambridge 
# Structural Database, then it will include bibliographic, chemical, 
# crystal, experimental, refinement or atomic coordinate data resulting 
# from the CCDC's data processing and validation procedures.
#
#######################################################################

data_OQILUW
_symmetry_cell_setting           monoclinic
_symmetry_space_group_name_H-M   'P 21'
_symmetry_Int_Tables_number      4
_space_group_name_Hall           'P 2yb'
loop_
_symmetry_equiv_pos_site_id
_symmetry_equiv_pos_as_xyz
1 x,y,z
2 -x,1/2+y,-z
_cell_length_a                   12.556(3)
_cell_length_b                   9.832(2)
_cell_length_c                   14.658(3)
_cell_angle_alpha                90
_cell_angle_beta                 99.129(4)
_cell_angle_gamma                90
_cell_volume                     1786.62
loop_
_atom_site_label
_atom_site_type_symbol
_atom_site_fract_x
_atom_site_fract_y
_atom_site_fract_z
Ag1 Ag 0.798126(16) 0.73230(2) 0.909666(14)
Ag2 Ag 0.787034(17) 0.48795(2) 1.040409(15)
N1 N 1.03814(19) 0.9985(3) 0.92400(15)
H1 H 1.0093 0.9476 0.9668
H2 H 1.0181 1.0873 0.9313
N2 N 0.96156(19) 0.7181(3) 0.88846(16)
H3 H 1.0040 0.7375 0.9440
H4 H 0.9741 0.6285 0.8754
C1 C 0.9859(2) 0.9532(3) 0.83042(19)
H5 H 0.9068 0.9721 0.8236
C2 C 1.0022(2) 0.8020(3) 0.81683(19)
H6 H 1.0811 0.7840 0.8197
C3 C 0.9439(3) 0.7613(3) 0.7212(2)
H7 H 0.9531 0.6626 0.7117
H8 H 0.8658 0.7800 0.7170
C4 C 0.9885(3) 0.8404(4) 0.6462(2)
H9 H 0.9486 0.8146 0.5849
H10 H 1.0653 0.8166 0.6476
C5 C 0.9782(3) 0.9936(4) 0.6602(2)
H11 H 0.9011 1.0194 0.6514
H12 H 1.0128 1.0431 0.6138
C6 C 1.0324(3) 1.0334(3) 0.7575(2)
H13 H 1.1109 1.0161 0.7639
H14 H 1.0218 1.1319 0.7671
N3 N 0.63338(18) 0.7208(3) 0.92965(16)
H15 H 0.6325 0.6929 0.9894
H16 H 0.6054 0.8074 0.9244
N4 N 0.6320(2) 0.4292(3) 0.95874(18)
H17 H 0.6307 0.3359 0.9536
H18 H 0.5781 0.4535 0.9914
C7 C 0.5593(2) 0.6313(3) 0.8679(2)
H19 H 0.4893 0.6257 0.8921
C8 C 0.6052(2) 0.4874(4) 0.86409(18)
H20 H 0.6736 0.4938 0.8374
C9 C 0.5260(3) 0.3997(3) 0.7995(2)
H21 H 0.5554 0.3065 0.7974
H22 H 0.4569 0.3939 0.8237
C10 C 0.5058(3) 0.4586(4) 0.7025(2)
H23 H 0.4533 0.4011 0.6623
H24 H 0.5740 0.4596 0.6767
C11 C 0.4619(3) 0.6035(4) 0.7047(2)
H25 H 0.3900 0.6011 0.7244
H26 H 0.4532 0.6431 0.6419
C12 C 0.5382(3) 0.6929(3) 0.7715(2)
H27 H 0.6074 0.7033 0.7480
H28 H 0.5060 0.7844 0.7746
O1 O 0.71290(19) 0.6873(2) 1.13405(15)
O2 O 0.6241(2) 0.5346(2) 1.20660(17)
C13 C 0.6809(2) 0.6397(3) 1.2057(2)
C14 C 0.7118(2) 0.7151(3) 1.29570(19)
C15 C 0.7690(3) 0.8364(3) 1.3010(2)
H29 H 0.7942 0.8699 1.2475
C16 C 0.7903(3) 0.9100(3) 1.3831(2)
C17 C 0.7527(3) 0.8580(4) 1.4599(2)
H30 H 0.7660 0.9077 1.5161
C18 C 0.6965(2) 0.7365(4) 1.45796(19)
C19 C 0.6775(3) 0.6651(3) 1.3752(2)
H31 H 0.6405 0.5805 1.3727
C20 C 0.8500(3) 1.0416(4) 1.3876(3)
H32 H 0.8565 1.0791 1.4502
H33 H 0.8107 1.1059 1.3435
H34 H 0.9221 1.0263 1.3720
C21 C 0.6540(4) 0.6839(5) 1.5426(3)
H35 H 0.6159 0.5978 1.5277
H36 H 0.6043 0.7507 1.5622
H37 H 0.7145 0.6692 1.5928
Ag2A Ag 1.212966(17) 0.98795(2) 0.959591(15)
N1A N 0.96186(19) 0.4985(3) 1.07600(15)
H1A H 0.9907 0.4476 1.0332
H2A H 0.9819 0.5873 1.0687
C22 C 1.0948(2) 0.8230(3) 1.1370(2)
C23 C 1.1638(2) 0.7926(3) 1.2290(2)
C24 C 1.2426(2) 0.6931(3) 1.2367(2)
H38 H 1.2561 0.6466 1.1829
C25 C 1.3027(3) 0.6602(4) 1.3224(2)
C26 C 1.2800(3) 0.7282(5) 1.4000(2)
H39 H 1.3203 0.7068 1.4587
C27 C 1.1996(3) 0.8270(4) 1.3941(2)
C28 C 1.1425(3) 0.8591(3) 1.3080(2)
H40 H 1.0882 0.9272 1.3028
C29 C 1.3870(3) 0.5495(5) 1.3288(3)
H41 H 1.4205 0.5379 1.3934
H42 H 1.4422 0.5748 1.2916
H43 H 1.3528 0.4639 1.3056
C30 C 1.1724(5) 0.8938(5) 1.4802(3)
H44 H 1.1156 0.9617 1.4630
H45 H 1.2368 0.9384 1.5136
H46 H 1.1470 0.8248 1.5199
O3 O 1.10442(17) 0.7478(2) 1.06950(14)
O4 O 1.02956(19) 0.9212(2) 1.13297(17)
O5 O 0.45943(17) 0.4928(3) 0.06869(15)
H47 H 0.5101 0.5057 0.1111
H48 H 0.4078 0.5405 0.0755
O6 O 0.7260(2) 0.1398(2) 1.00689(17)
H49 H 0.7525 0.0660 1.0237
H50 H 0.7759 0.1717 0.9841
O7 O 0.81590(19) -0.1059(2) 1.06374(16)
H51 H 0.7856 -0.1696 1.0918
H52 H 0.8802 -0.0976 1.0844
O8 O 0.7286(2) 0.2834(3) 0.1859(2)
H53 H 0.6968 0.3519 0.1660
H54 H 0.7276 0.2445 0.1364
loop_
_geom_bond_atom_site_label_1
_geom_bond_atom_site_label_2
_geom_bond_site_symmetry_1
_geom_bond_site_symmetry_2
Ag1 Ag2 1_555 1_555
Ag2 N4 1_555 1_555
N1 H1 1_555 1_555
H2 N1 1_555 1_555
N2 Ag1 1_555 1_555
H3 N2 1_555 1_555
H4 N2 1_555 1_555
C1 N1 1_555 1_555
H5 C1 1_555 1_555
C2 N2 1_555 1_555
H6 C2 1_555 1_555
C3 C2 1_555 1_555
H7 C3 1_555 1_555
H8 C3 1_555 1_555
C4 C3 1_555 1_555
H9 C4 1_555 1_555
H10 C4 1_555 1_555
C5 C4 1_555 1_555
H11 C5 1_555 1_555
H12 C5 1_555 1_555
C6 C1 1_555 1_555
H13 C6 1_555 1_555
H14 C6 1_555 1_555
N3 Ag1 1_555 1_555
H15 N3 1_555 1_555
H16 N3 1_555 1_555
N4 H17 1_555 1_555
H18 N4 1_555 1_555
C7 N3 1_555 1_555
H19 C7 1_555 1_555
C8 N4 1_555 1_555
H20 C8 1_555 1_555
C9 C8 1_555 1_555
H21 C9 1_555 1_555
H22 C9 1_555 1_555
C10 C9 1_555 1_555
H23 C10 1_555 1_555
H24 C10 1_555 1_555
C11 C10 1_555 1_555
H25 C11 1_555 1_555
H26 C11 1_555 1_555
C12 C7 1_555 1_555
H27 C12 1_555 1_555
H28 C12 1_555 1_555
O1 Ag2 1_555 1_555
O2 C13 1_555 1_555
C13 O1 1_555 1_555
C14 C13 1_555 1_555
C15 C14 1_555 1_555
H29 C15 1_555 1_555
C16 C15 1_555 1_555
C17 C16 1_555 1_555
H30 C17 1_555 1_555
C18 C17 1_555 1_555
C19 C14 1_555 1_555
H31 C19 1_555 1_555
C20 C16 1_555 1_555
H32 C20 1_555 1_555
H33 C20 1_555 1_555
H34 C20 1_555 1_555
C21 C18 1_555 1_555
H35 C21 1_555 1_555
H36 C21 1_555 1_555
H37 C21 1_555 1_555
C22 C23 1_555 1_555
C23 C24 1_555 1_555
C24 H38 1_555 1_555
C25 C24 1_555 1_555
C26 C25 1_555 1_555
H39 C26 1_555 1_555
C27 C26 1_555 1_555
C28 C23 1_555 1_555
H40 C28 1_555 1_555
C29 C25 1_555 1_555
H41 C29 1_555 1_555
H42 C29 1_555 1_555
H43 C29 1_555 1_555
C30 C27 1_555 1_555
H44 C30 1_555 1_555
H45 C30 1_555 1_555
H46 C30 1_555 1_555
O3 C22 1_555 1_555
O4 C22 1_555 1_555
O5 H47 1_555 1_555
H48 O5 1_555 1_555
O6 H49 1_555 1_555
H50 O6 1_555 1_555
O7 H51 1_555 1_555
H52 O7 1_555 1_555
O8 H53 1_555 1_555
H54 O8 1_555 1_555
Ag2A N1 1_555 1_555
N1A Ag2 1_555 1_555
H1A N1A 1_555 1_555
H2A N1A 1_555 1_555
C1 C2 1_555 1_555
C5 C6 1_555 1_555
C7 C8 1_555 1_555
C11 C12 1_555 1_555
C18 C19 1_555 1_555
C27 C28 1_555 1_555

#END
