
#######################################################################
#
#                 Cambridge Crystallographic Data Centre
#                                CCDC 
#
#######################################################################
#
# If this CIF has been generated from an entry in the Cambridge 
# Structural Database, then it will include bibliographic, chemical, 
# crystal, experimental, refinement or atomic coordinate data resulting 
# from the CCDC's data processing and validation procedures.
#
#######################################################################

data_OQILAC
_symmetry_cell_setting           monoclinic
_symmetry_space_group_name_H-M   'P 21'
_symmetry_Int_Tables_number      4
_space_group_name_Hall           'P 2yb'
loop_
_symmetry_equiv_pos_site_id
_symmetry_equiv_pos_as_xyz
1 x,y,z
2 -x,1/2+y,-z
_cell_length_a                   11.359(4)
_cell_length_b                   8.942(3)
_cell_length_c                   16.476(6)
_cell_angle_alpha                90
_cell_angle_beta                 94.836(6)
_cell_angle_gamma                90
_cell_volume                     1667.55
loop_
_atom_site_label
_atom_site_type_symbol
_atom_site_fract_x
_atom_site_fract_y
_atom_site_fract_z
Ag1 Ag 0.23895(3) 0.77083(3) 0.08725(2)
Ag2 Ag -0.24424(4) 0.24308(4) 0.09771(2)
N1 N 0.5870(4) 1.1302(5) 0.0984(3)
H1 H 0.5286 1.2018 0.0951
H2 H 0.5764 1.0729 0.0519
N2 N 0.4112(4) 0.8769(5) 0.0951(3)
H3 H 0.4677 0.8031 0.0954
H4 H 0.4167 0.9328 0.0487
C1 C 0.5686(5) 1.0321(6) 0.1694(3)
H5 H 0.6214 0.9431 0.1668
C2 C 0.4404(5) 0.9760(6) 0.1672(3)
H6 H 0.3864 1.0644 0.1628
C3 C 0.4184(6) 0.8902(7) 0.2436(3)
H7 H 0.4617 0.7941 0.2437
H8 H 0.3331 0.8671 0.2427
C4 C 0.4570(6) 0.9757(8) 0.3224(4)
H9 H 0.4064 1.0651 0.3266
H10 H 0.4469 0.9108 0.3700
C5 C 0.5850(6) 1.0232(8) 0.3229(4)
H11 H 0.6360 0.9334 0.3239
H12 H 0.6073 1.0822 0.3727
C6 C 0.6049(5) 1.1164(6) 0.2483(4)
H13 H 0.6894 1.1438 0.2495
H14 H 0.5585 1.2100 0.2496
N3 N 0.0749(4) 0.6466(5) 0.0828(3)
H15 H 0.0152 0.7090 0.0623
H16 H 0.0798 0.5698 0.0461
N4 N -0.0926(4) 0.3866(5) 0.0940(3)
H17 H -0.0259 0.3296 0.1059
H18 H -0.0904 0.4208 0.0415
C7 C 0.0393(5) 0.5818(6) 0.1596(3)
H19 H 0.0945 0.4978 0.1757
C8 C -0.0860(4) 0.5189(6) 0.1497(3)
H20 H -0.1394 0.5982 0.1247
C9 C -0.1318(5) 0.4730(7) 0.2309(4)
H21 H -0.0876 0.3841 0.2525
H22 H -0.2162 0.4452 0.2217
C10 C -0.1179(6) 0.6002(8) 0.2937(4)
H23 H -0.1673 0.6864 0.2744
H24 H -0.1450 0.5659 0.3462
C11 C 0.0120(6) 0.6482(8) 0.3061(4)
H25 H 0.0207 0.7300 0.3467
H26 H 0.0611 0.5628 0.3271
C12 C 0.0531(6) 0.7008(7) 0.2260(3)
H27 H 0.1372 0.7302 0.2344
H28 H 0.0072 0.7904 0.2076
O1 O -0.1147(4) 0.0566(5) 0.1926(3)
O2 O 0.0623(4) 0.1675(5) 0.1924(3)
C13 C -0.0173(5) 0.0960(6) 0.2264(3)
C14 C 0.0116(5) 0.0561(7) 0.3153(4)
C15 C 0.1290(6) 0.0459(9) 0.3478(4)
H29 H 0.1915 0.0709 0.3155
C16 C 0.1535(7) -0.0006(11) 0.4272(5)
H30 H 0.2333 -0.0065 0.4494
C17 C 0.0633(8) -0.0389(13) 0.4754(5)
H31 H 0.0820 -0.0725 0.5297
C18 C -0.0542(7) -0.0284(11) 0.4444(4)
C19 C -0.0758(6) 0.0180(9) 0.3639(4)
H32 H -0.1555 0.0235 0.3414
C20 C -0.1534(8) -0.0688(17) 0.4970(5)
H33 H -0.1196 -0.1000 0.5510
H34 H -0.2001 -0.1510 0.4714
H35 H -0.2043 0.0185 0.5023
O5 O 0.1514(4) 1.0470(5) 0.0599(3)
H43 H 0.1989 1.1065 0.0423
H44 H 0.1245 1.0847 0.1003
Ag1A Ag -0.23895(3) 0.27083(3) -0.08725(2)
Ag2A Ag 0.24424(4) 0.74308(4) -0.09771(2)
Ag2_2 Ag 0.75576(4) 1.24308(4) 0.09771(2)
N1_2 N -0.4130(4) 0.1302(5) 0.0984(3)
H1_2 H -0.4714 0.2018 0.0951
H2_2 H -0.4236 0.0729 0.0519
C21 C 0.5108(5) 0.5205(6) 0.1222(4)
O3 O 0.5895(4) 0.6221(5) 0.1259(3)
O4 O 0.4748(4) 0.4554(5) 0.0575(3)
C22 C 0.4606(5) 0.4794(6) 0.2005(3)
C23 C 0.3499(5) 0.4108(7) 0.1996(4)
H36 H 0.3058 0.3893 0.1494
C24 C 0.3056(6) 0.3749(8) 0.2722(4)
H37 H 0.2302 0.3286 0.2717
C25 C 0.3680(7) 0.4046(9) 0.3455(4)
H38 H 0.3358 0.3772 0.3947
C26 C 0.4777(7) 0.4743(9) 0.3486(4)
C27 C 0.5513(10) 0.5098(16) 0.4284(5)
H39 H 0.6237 0.5621 0.4165
H40 H 0.5720 0.4166 0.4574
H41 H 0.5054 0.5736 0.4624
C28 C 0.5237(5) 0.5110(7) 0.2752(4)
H42 H 0.5987 0.5581 0.2760
O6 O 0.3122(3) 0.2465(5) -0.0003(2)
H45 H 0.3607 0.3096 0.0175
H46 H 0.3423 0.2089 -0.0384
O7 O 0.1046(4) 0.4052(5) -0.0447(3)
H47 H 0.1078 0.4498 -0.0882
H48 H 0.1654 0.3585 -0.0318
loop_
_geom_bond_atom_site_label_1
_geom_bond_atom_site_label_2
_geom_bond_site_symmetry_1
_geom_bond_site_symmetry_2
Ag1 N2 1_555 1_555
Ag2 N4 1_555 1_555
N1 H1 1_555 1_555
H2 N1 1_555 1_555
N2 H3 1_555 1_555
H4 N2 1_555 1_555
C1 N1 1_555 1_555
H5 C1 1_555 1_555
C2 N2 1_555 1_555
H6 C2 1_555 1_555
C3 C2 1_555 1_555
H7 C3 1_555 1_555
H8 C3 1_555 1_555
C4 C3 1_555 1_555
H9 C4 1_555 1_555
H10 C4 1_555 1_555
C5 C4 1_555 1_555
H11 C5 1_555 1_555
H12 C5 1_555 1_555
C6 C1 1_555 1_555
H13 C6 1_555 1_555
H14 C6 1_555 1_555
N3 Ag1 1_555 1_555
H15 N3 1_555 1_555
H16 N3 1_555 1_555
N4 H17 1_555 1_555
H18 N4 1_555 1_555
C7 N3 1_555 1_555
H19 C7 1_555 1_555
C8 N4 1_555 1_555
H20 C8 1_555 1_555
C9 C8 1_555 1_555
H21 C9 1_555 1_555
H22 C9 1_555 1_555
C10 C9 1_555 1_555
H23 C10 1_555 1_555
H24 C10 1_555 1_555
C11 C10 1_555 1_555
H25 C11 1_555 1_555
H26 C11 1_555 1_555
C12 C7 1_555 1_555
H27 C12 1_555 1_555
H28 C12 1_555 1_555
O1 Ag2 1_555 1_555
O2 C13 1_555 1_555
C13 O1 1_555 1_555
C14 C13 1_555 1_555
C15 C14 1_555 1_555
H29 C15 1_555 1_555
C16 C15 1_555 1_555
H30 C16 1_555 1_555
C17 C16 1_555 1_555
H31 C17 1_555 1_555
C18 C17 1_555 1_555
C19 C14 1_555 1_555
H32 C19 1_555 1_555
C20 C18 1_555 1_555
H33 C20 1_555 1_555
H34 C20 1_555 1_555
H35 C20 1_555 1_555
C21 O3 1_555 1_555
O4 C21 1_555 1_555
C22 C21 1_555 1_555
C23 C22 1_555 1_555
H36 C23 1_555 1_555
C24 C23 1_555 1_555
H37 C24 1_555 1_555
C25 C24 1_555 1_555
H38 C25 1_555 1_555
C26 C25 1_555 1_555
C27 C26 1_555 1_555
H39 C27 1_555 1_555
H40 C27 1_555 1_555
H41 C27 1_555 1_555
C28 C22 1_555 1_555
H42 C28 1_555 1_555
O5 Ag1 1_555 1_555
H43 O5 1_555 1_555
H44 O5 1_555 1_555
O6 H45 1_555 1_555
H46 O6 1_555 1_555
O7 H47 1_555 1_555
H48 O7 1_555 1_555
Ag1A Ag2 1_555 1_555
Ag2A Ag1 1_555 1_555
Ag2_2 N1 1_555 1_555
N1_2 Ag2 1_555 1_555
H1_2 N1_2 1_555 1_555
H2_2 N1_2 1_555 1_555
C1 C2 1_555 1_555
C5 C6 1_555 1_555
C7 C8 1_555 1_555
C11 C12 1_555 1_555
C18 C19 1_555 1_555
C26 C28 1_555 1_555

#END
