
#######################################################################
#
#                 Cambridge Crystallographic Data Centre
#                                CCDC 
#
#######################################################################
#
# If this CIF has been generated from an entry in the Cambridge 
# Structural Database, then it will include bibliographic, chemical, 
# crystal, experimental, refinement or atomic coordinate data resulting 
# from the CCDC's data processing and validation procedures.
#
#######################################################################

data_OQILOQ
_symmetry_cell_setting           triclinic
_symmetry_space_group_name_H-M   'P -1'
_symmetry_Int_Tables_number      2
_space_group_name_Hall           '-P 1'
loop_
_symmetry_equiv_pos_site_id
_symmetry_equiv_pos_as_xyz
1 x,y,z
2 -x,-y,-z
_cell_length_a                   7.1011(19)
_cell_length_b                   8.229(2)
_cell_length_c                   14.815(4)
_cell_angle_alpha                89.166(4)
_cell_angle_beta                 88.300(4)
_cell_angle_gamma                66.281(4)
_cell_volume                     792.234
loop_
_atom_site_label
_atom_site_type_symbol
_atom_site_fract_x
_atom_site_fract_y
_atom_site_fract_z
Ag1 Ag 0.54237(2) 0.51253(2) 0.637491(11)
N1 N 0.2698(3) 0.4620(3) 0.63495(13)
H1 H 0.1793 0.5414 0.5959
H2 H 0.3037 0.3499 0.6124
N2 N -0.1778(3) 0.5485(2) 0.65398(13)
H3 H -0.1096 0.5288 0.5988
H4 H -0.2132 0.6659 0.6681
C1 C 0.1637(3) 0.4754(3) 0.72448(15)
H5 H 0.1224 0.5997 0.7464
C2 C -0.0310(3) 0.4407(3) 0.72102(14)
H6 H 0.0116 0.3134 0.7040
C3 C -0.1338(4) 0.4654(3) 0.81349(15)
H7 H -0.2560 0.4365 0.8107
H8 H -0.1818 0.5916 0.8312
C4 C 0.0084(4) 0.3500(3) 0.88512(17)
H9 H -0.0609 0.3817 0.9452
H10 H 0.0368 0.2240 0.8736
C5 C 0.2097(4) 0.3726(4) 0.88565(17)
H11 H 0.3051 0.2830 0.9266
H12 H 0.1842 0.4915 0.9095
C6 C 0.3103(4) 0.3526(3) 0.79240(16)
H13 H 0.3554 0.2282 0.7722
H14 H 0.4338 0.3798 0.7953
Ag1_2 Ag -0.45763(2) 0.51253(2) 0.637491(11)
N2_2 N 0.8222(3) 0.5485(2) 0.65398(13)
H3_2 H 0.8904 0.5288 0.5988
H4_2 H 0.7868 0.6659 0.6681
O1 O 0.6218(3) -0.0319(2) 0.66302(12)
O2 O 0.7857(3) 0.1098(2) 0.58696(12)
C7 C 0.7626(3) 0.0218(3) 0.65297(15)
C8 C 0.9188(3) -0.0280(3) 0.72647(14)
C9 C 0.8616(3) -0.0541(3) 0.81445(15)
H15 H 0.7226 -0.0342 0.8284
C10 C 1.0055(3) -0.1088(3) 0.88193(15)
H16 H 0.9635 -0.1230 0.9419
C11 C 1.2115(3) -0.1430(3) 0.86242(15)
C12 C 1.3684(4) -0.2046(4) 0.93565(18)
H17 H 1.3106 -0.2436 0.9883
H18 H 1.4046 -0.1064 0.9530
H19 H 1.4920 -0.3036 0.9132
C13 C 1.2682(3) -0.1167(3) 0.77487(16)
H20 H 1.4077 -0.1390 0.7607
C14 C 1.1231(3) -0.0581(3) 0.70756(15)
H21 H 1.1640 -0.0385 0.6482
O3 O 0.5469(3) 0.7923(2) 0.52249(12)
H22 H 0.5695 0.8446 0.5648
H23 H 0.4475 0.8213 0.4897
O4 O 0.9957(3) 0.7156(2) 0.49431(11)
H24 H 1.0611 0.7675 0.4700
H25 H 0.8734 0.7365 0.5021
loop_
_geom_bond_atom_site_label_1
_geom_bond_atom_site_label_2
_geom_bond_site_symmetry_1
_geom_bond_site_symmetry_2
Ag1 N1 1_555 1_555
N1 H1 1_555 1_555
H2 N1 1_555 1_555
N2 H3 1_555 1_555
H4 N2 1_555 1_555
C1 N1 1_555 1_555
H5 C1 1_555 1_555
C2 N2 1_555 1_555
H6 C2 1_555 1_555
C3 C2 1_555 1_555
H7 C3 1_555 1_555
H8 C3 1_555 1_555
C4 C3 1_555 1_555
H9 C4 1_555 1_555
H10 C4 1_555 1_555
C5 C4 1_555 1_555
H11 C5 1_555 1_555
H12 C5 1_555 1_555
C6 C1 1_555 1_555
H13 C6 1_555 1_555
H14 C6 1_555 1_555
O1 C7 1_555 1_555
O2 C7 1_555 1_555
C7 C8 1_555 1_555
C8 C9 1_555 1_555
C9 H15 1_555 1_555
C10 C9 1_555 1_555
H16 C10 1_555 1_555
C11 C10 1_555 1_555
C12 C11 1_555 1_555
H17 C12 1_555 1_555
H18 C12 1_555 1_555
H19 C12 1_555 1_555
C13 C11 1_555 1_555
H20 C13 1_555 1_555
C14 C8 1_555 1_555
H21 C14 1_555 1_555
O3 H22 1_555 1_555
H23 O3 1_555 1_555
O4 H24 1_555 1_555
H25 O4 1_555 1_555
Ag1_2 N2 1_555 1_555
N2_2 Ag1 1_555 1_555
H3_2 N2_2 1_555 1_555
H4_2 N2_2 1_555 1_555
C1 C2 1_555 1_555
C5 C6 1_555 1_555
C13 C14 1_555 1_555

#END
