
#######################################################################
#
#                 Cambridge Crystallographic Data Centre
#                                CCDC 
#
#######################################################################
#
# If this CIF has been generated from an entry in the Cambridge 
# Structural Database, then it will include bibliographic, chemical, 
# crystal, experimental, refinement or atomic coordinate data resulting 
# from the CCDC's data processing and validation procedures.
#
#######################################################################

data_OQIMAD
_symmetry_cell_setting           monoclinic
_symmetry_space_group_name_H-M   'P 21/c'
_symmetry_Int_Tables_number      14
_space_group_name_Hall           '-P 2ybc'
loop_
_symmetry_equiv_pos_site_id
_symmetry_equiv_pos_as_xyz
1 x,y,z
2 -x,1/2+y,1/2-z
3 -x,-y,-z
4 x,1/2-y,1/2+z
_cell_length_a                   15.332(4)
_cell_length_b                   12.799(3)
_cell_length_c                   17.521(5)
_cell_angle_alpha                90
_cell_angle_beta                 99.053(5)
_cell_angle_gamma                90
_cell_volume                     3395.39
loop_
_atom_site_label
_atom_site_type_symbol
_atom_site_fract_x
_atom_site_fract_y
_atom_site_fract_z
Ag1 Ag 0.08405(2) 0.02861(3) 0.10717(2)
Ag2 Ag 0.08006(3) -0.00826(3) 0.40646(2)
N1 N 0.0794(3) 0.3593(4) -0.0419(2)
H1 H 0.0287 0.3258 -0.0642
H2 H 0.0750 0.3693 0.0093
N2 N 0.0876(3) 0.1292(3) 0.0094(3)
H3 H 0.0893 0.0884 -0.0336
H4 H 0.0362 0.1675 0.0009
C1 C 0.1556(3) 0.2853(4) -0.0451(3)
H5 H 0.1454 0.2486 -0.0961
C2 C 0.1650(3) 0.2034(4) 0.0183(3)
H6 H 0.1687 0.2397 0.0693
C3 C 0.2485(3) 0.1374(4) 0.0190(3)
H7 H 0.2435 0.0964 -0.0294
H8 H 0.2544 0.0878 0.0629
C4 C 0.3311(3) 0.2070(5) 0.0265(3)
H9 H 0.3380 0.2456 0.0761
H10 H 0.3842 0.1630 0.0264
C5 C 0.3231(3) 0.2833(5) -0.0396(3)
H11 H 0.3196 0.2448 -0.0890
H12 H 0.3759 0.3288 -0.0339
C6 C 0.2402(3) 0.3502(4) -0.0406(3)
H13 H 0.2471 0.3935 0.0068
H14 H 0.2344 0.3979 -0.0856
N3 N 0.0918(3) -0.0879(3) 0.1981(2)
H15 H 0.0427 -0.0821 0.2220
H16 H 0.0910 -0.1533 0.1763
N4 N 0.1027(3) -0.1604(3) 0.3605(2)
H17 H 0.1117 -0.2076 0.4005
H18 H 0.0527 -0.1806 0.3276
C7 C 0.1720(3) -0.0776(4) 0.2570(3)
H19 H 0.1680 -0.0095 0.2842
C8 C 0.1791(3) -0.1645(4) 0.3181(3)
H20 H 0.1790 -0.2336 0.2914
C9 C 0.2650(3) -0.1543(4) 0.3758(3)
H21 H 0.2624 -0.0901 0.4069
H22 H 0.2704 -0.2147 0.4115
C10 C 0.3468(3) -0.1497(4) 0.3357(3)
H23 H 0.4001 -0.1390 0.3748
H24 H 0.3534 -0.2168 0.3091
C11 C 0.3384(3) -0.0610(4) 0.2772(3)
H25 H 0.3903 -0.0609 0.2499
H26 H 0.3368 0.0067 0.3043
C12 C 0.2541(3) -0.0744(4) 0.2189(3)
H27 H 0.2490 -0.0158 0.1816
H28 H 0.2580 -0.1400 0.1897
Ag2C Ag 0.08006(3) 0.50826(3) -0.09354(2)
N1C N 0.0794(3) 0.1407(4) 0.4581(2)
O1 O 0.1190(2) 0.1638(3) 0.2332(2)
O2 O 0.0695(2) 0.3278(3) 0.2327(2)
C13 C 0.1299(3) 0.2611(4) 0.2380(3)
C14 C 0.2241(3) 0.3009(4) 0.2516(3)
C15 C 0.2419(3) 0.4024(4) 0.2767(3)
H29 H 0.1946 0.4465 0.2854
C16 C 0.3279(4) 0.4411(5) 0.2894(3)
C17 C 0.3444(5) 0.5548(5) 0.3126(4)
H30 H 0.4060 0.5635 0.3369
H31 H 0.3052 0.5750 0.3491
H32 H 0.3326 0.5992 0.2665
C18 C 0.3953(3) 0.3761(5) 0.2759(3)
H33 H 0.4541 0.4019 0.2844
C19 C 0.3801(3) 0.2733(5) 0.2499(3)
C20 C 0.4550(4) 0.2049(6) 0.2332(4)
H34 H 0.5106 0.2440 0.2436
H35 H 0.4442 0.1835 0.1788
H36 H 0.4590 0.1428 0.2663
C21 C 0.2946(3) 0.2375(4) 0.2393(3)
H37 H 0.2830 0.1673 0.2231
O3 O 0.0968(2) 0.7885(3) 0.01141(19)
O4 O 0.1080(2) 0.6841(3) 0.1147(2)
C22 C 0.1413(3) 0.7327(4) 0.0634(3)
C23 C 0.2396(3) 0.7263(4) 0.0647(3)
C24 C 0.2854(3) 0.8137(4) 0.0449(3)
H38 H 0.2540 0.8761 0.0293
C25 C 0.3768(3) 0.8107(5) 0.0479(3)
C26 C 0.4263(4) 0.9081(5) 0.0326(4)
H39 H 0.4745 0.8898 0.0044
H40 H 0.4506 0.9411 0.0818
H41 H 0.3859 0.9568 0.0015
C27 C 0.4198(3) 0.7165(5) 0.0658(3)
H42 H 0.4817 0.7128 0.0655
C28 C 0.3757(3) 0.6270(4) 0.0843(3)
C29 C 0.4242(4) 0.5243(5) 0.0998(4)
H43 H 0.4363 0.4948 0.0510
H44 H 0.3876 0.4755 0.1241
H45 H 0.4800 0.5361 0.1345
C30 C 0.2845(3) 0.6334(4) 0.0851(3)
H46 H 0.2534 0.5743 0.0995
O5 O 0.1125(3) 0.5487(3) 0.4038(2)
H47 H 0.0928 0.5646 0.3591
H48 H 0.1080 0.5955 0.4349
O6 O 0.0461(3) 0.6034(3) 0.2522(2)
H49 H 0.0638 0.6260 0.2136
H50 H -0.0046 0.6224 0.2565
O7 O -0.0978(2) -0.0397(3) 0.3885(2)
H51 H -0.0896 -0.0786 0.3531
H52 H -0.1008 0.0242 0.3878
loop_
_geom_bond_atom_site_label_1
_geom_bond_atom_site_label_2
_geom_bond_site_symmetry_1
_geom_bond_site_symmetry_2
Ag1 N2 1_555 1_555
Ag2 N4 1_555 1_555
N1 H1 1_555 1_555
H2 N1 1_555 1_555
N2 H3 1_555 1_555
H4 N2 1_555 1_555
C1 N1 1_555 1_555
H5 C1 1_555 1_555
C2 N2 1_555 1_555
H6 C2 1_555 1_555
C3 C2 1_555 1_555
H7 C3 1_555 1_555
H8 C3 1_555 1_555
C4 C3 1_555 1_555
H9 C4 1_555 1_555
H10 C4 1_555 1_555
C5 C4 1_555 1_555
H11 C5 1_555 1_555
H12 C5 1_555 1_555
C6 C1 1_555 1_555
H13 C6 1_555 1_555
H14 C6 1_555 1_555
N3 Ag1 1_555 1_555
H15 N3 1_555 1_555
H16 N3 1_555 1_555
N4 H17 1_555 1_555
H18 N4 1_555 1_555
C7 N3 1_555 1_555
H19 C7 1_555 1_555
C8 N4 1_555 1_555
H20 C8 1_555 1_555
C9 C8 1_555 1_555
H21 C9 1_555 1_555
H22 C9 1_555 1_555
C10 C9 1_555 1_555
H23 C10 1_555 1_555
H24 C10 1_555 1_555
C11 C10 1_555 1_555
H25 C11 1_555 1_555
H26 C11 1_555 1_555
C12 C7 1_555 1_555
H27 C12 1_555 1_555
H28 C12 1_555 1_555
O1 C13 1_555 1_555
O2 C13 1_555 1_555
C13 C14 1_555 1_555
C14 C15 1_555 1_555
C15 H29 1_555 1_555
C16 C15 1_555 1_555
C17 C16 1_555 1_555
H30 C17 1_555 1_555
H31 C17 1_555 1_555
H32 C17 1_555 1_555
C18 C16 1_555 1_555
H33 C18 1_555 1_555
C19 C18 1_555 1_555
C20 C19 1_555 1_555
H34 C20 1_555 1_555
H35 C20 1_555 1_555
H36 C20 1_555 1_555
C21 C14 1_555 1_555
H37 C21 1_555 1_555
O3 C22 1_555 1_555
O4 C22 1_555 1_555
C22 C23 1_555 1_555
C23 C24 1_555 1_555
C24 H38 1_555 1_555
C25 C24 1_555 1_555
C26 C25 1_555 1_555
H39 C26 1_555 1_555
H40 C26 1_555 1_555
H41 C26 1_555 1_555
C27 C25 1_555 1_555
H42 C27 1_555 1_555
C28 C27 1_555 1_555
C29 C28 1_555 1_555
H43 C29 1_555 1_555
H44 C29 1_555 1_555
H45 C29 1_555 1_555
C30 C23 1_555 1_555
H46 C30 1_555 1_555
O5 H47 1_555 1_555
H48 O5 1_555 1_555
O6 H49 1_555 1_555
H50 O6 1_555 1_555
O7 H51 1_555 1_555
H52 O7 1_555 1_555
Ag2C N1 1_555 1_555
N1C Ag2 1_555 1_555
C1 C2 1_555 1_555
C5 C6 1_555 1_555
C7 C8 1_555 1_555
C11 C12 1_555 1_555
C19 C21 1_555 1_555
C28 C30 1_555 1_555

#END
