
#######################################################################
#
#                 Cambridge Crystallographic Data Centre
#                                CCDC 
#
#######################################################################
#
# If this CIF has been generated from an entry in the Cambridge 
# Structural Database, then it will include bibliographic, chemical, 
# crystal, experimental, refinement or atomic coordinate data resulting 
# from the CCDC's data processing and validation procedures.
#
#######################################################################

data_OQIQUB01
_symmetry_cell_setting           tetragonal
_symmetry_space_group_name_H-M   'I 4/m'
_symmetry_Int_Tables_number      87
_space_group_name_Hall           '-I 4'
loop_
_symmetry_equiv_pos_site_id
_symmetry_equiv_pos_as_xyz
1 x,y,z
2 -y,x,z
3 -x,-y,z
4 y,-x,z
5 1/2+x,1/2+y,1/2+z
6 1/2-y,1/2+x,1/2+z
7 1/2-x,1/2-y,1/2+z
8 1/2+y,1/2-x,1/2+z
9 -x,-y,-z
10 y,-x,-z
11 x,y,-z
12 -y,x,-z
13 1/2-x,1/2-y,1/2-z
14 1/2+y,1/2-x,1/2-z
15 1/2+x,1/2+y,1/2-z
16 1/2-y,1/2+x,1/2-z
_cell_length_a                   23.0648(13)
_cell_length_b                   23.0648(13)
_cell_length_c                   19.9962(18)
_cell_angle_alpha                90
_cell_angle_beta                 90
_cell_angle_gamma                90
_cell_volume                     10637.7
loop_
_atom_site_label
_atom_site_type_symbol
_atom_site_fract_x
_atom_site_fract_y
_atom_site_fract_z
O1 O 0.9319(2) 0.3992(2) 0.3550(3)
O2 O 0.1401(3) 0.3436(3) 0.0000
O3 O 0.0000 1.0000 0.0000
Cu1 Cu 0.0000 0.0000 0.15834(3)
Cu2 Cu 0.25815(3) 0.48215(2) 0.0000
N1 N 0.05748(6) 0.06422(6) 0.15360(8)
N2 N 0.10019(7) 0.14533(6) 0.12962(8)
C1 C 0.19752(9) 0.25808(8) 0.14859(9)
N3 N 0.29335(7) 0.36327(8) 0.14817(8)
C2 C 0.21745(8) 0.30088(8) 0.19331(9)
C3 C 0.13870(8) 0.24456(8) 0.14698(9)
N4 N 0.13419(8) 0.12087(7) 0.17684(9)
C4 C 0.17978(9) 0.33057(8) 0.23472(10)
C5 C 0.05550(8) 0.11214(8) 0.11599(10)
H1 H 0.0268 0.1207 0.0849
C6 C 0.28054(9) 0.31513(9) 0.19577(10)
H2 H 0.2912 0.3267 0.2408
H3 H 0.3031 0.2812 0.1839
C7 C 0.12064(10) 0.31568(9) 0.23351(11)
C8 C 0.11657(9) 0.20021(8) 0.09783(10)
H4 H 0.0831 0.2160 0.0747
H5 H 0.1464 0.1927 0.0647
N5 N 0.28793(9) 0.42859(8) 0.07125(8)
C9 C 0.10641(9) 0.07205(9) 0.18922(11)
H6 H 0.1196 0.0451 0.2202
C10 C 0.26040(11) 0.38900(9) 0.10387(11)
N6 N 0.07003(10) 0.30885(12) 0.34202(10)
C11 C 0.19920(12) 0.38000(10) 0.27756(12)
H7 H 0.1881 0.4159 0.2570
H8 H 0.2406 0.3788 0.2824
H9 H 0.1814 0.3770 0.3208
C12 C 0.23888(10) 0.22841(11) 0.10121(11)
H10 H 0.2193 0.1971 0.0791
H11 H 0.2714 0.2135 0.1258
H12 H 0.2523 0.2558 0.0685
C13 C 0.10056(9) 0.27282(9) 0.19090(11)
N7 N 0.34538(11) 0.38629(13) 0.14356(13)
C14 C 0.07887(12) 0.34640(12) 0.27902(14)
H13 H 0.0421 0.3522 0.2564
H14 H 0.0942 0.3840 0.2914
C15 C 0.02701(11) 0.30292(13) 0.37996(14)
H15 H -0.0083 0.3208 0.3713
C16 C 0.03546(11) 0.25452(12) 0.19076(17)
H16 H 0.0200 0.2579 0.2352
H17 H 0.0322 0.2151 0.1759
H18 H 0.0141 0.2793 0.1611
C17 C 0.34113(13) 0.42536(15) 0.09539(14)
N9 N 0.11312(13) 0.27333(19) 0.36530(17)
C18 C 0.08721(15) 0.2509(2) 0.41863(19)
H19 H 0.1044 0.2230 0.4458
O7 O 0.0000 0.0000 0.2923(3)
N10 N 0.03472(9) 0.27170(13) 0.42958(10)
O9 O 0.35053(17) 0.53516(14) 0.0000
O10 O 0.16434(16) 0.4301(2) 0.0000
Cu1H Cu 0.0000 0.0000 -0.15834(3)
Cu1D Cu 0.5000 0.5000 -0.34166(3)
Cu1L Cu 0.5000 0.5000 0.34166(3)
Cu2A Cu -0.48215(2) 0.25815(3) 0.0000
Cu2B Cu -0.25815(3) -0.48215(2) 0.0000
Cu2C Cu 0.48215(2) -0.25815(3) 0.0000
Cu2G Cu -0.01785(2) 0.24185(3) 0.5000
Cu2D Cu -0.24185(3) -0.01785(2) 0.5000
Cu2E Cu 0.01785(2) -0.24185(3) 0.5000
Cu2F Cu 0.24185(3) 0.01785(2) 0.5000
Cu2G_2 Cu -0.01785(2) 0.24185(3) -0.5000
Cu2E_2 Cu 0.01785(2) 0.75815(3) -0.5000
Cu2E_3 Cu 0.01785(2) 0.75815(3) 0.5000
Cu2D_2 Cu -0.24185(3) -0.01785(2) -0.5000
N1A N -0.06422(6) 0.05748(6) 0.15360(8)
N1B N -0.05748(6) -0.06422(6) 0.15360(8)
N1C N 0.06422(6) -0.05748(6) 0.15360(8)
N1J N 0.05748(6) 0.06422(6) -0.15360(8)
N1E N 0.43578(6) 0.55748(6) -0.34640(8)
N1O N 0.43578(6) 0.55748(6) 0.34640(8)
N1K N -0.06422(6) 0.05748(6) -0.15360(8)
N1H N -0.05748(6) -0.06422(6) -0.15360(8)
N1I N 0.06422(6) -0.05748(6) -0.15360(8)
N2A N -0.14533(6) 0.10019(7) 0.12962(8)
N2B N -0.10019(7) -0.14533(6) 0.12962(8)
N2C N 0.14533(6) -0.10019(7) 0.12962(8)
N2J N 0.10019(7) 0.14533(6) -0.12962(8)
N2E N 0.35467(6) 0.60019(7) -0.37038(8)
N2O N 0.35467(6) 0.60019(7) 0.37038(8)
N2K N -0.14533(6) 0.10019(7) -0.12962(8)
C1A C -0.25808(8) 0.19752(9) 0.14859(9)
C1B C -0.19752(9) -0.25808(8) 0.14859(9)
C1C C 0.25808(8) -0.19752(9) 0.14859(9)
C1J C 0.19752(9) 0.25808(8) -0.14859(9)
C1E C 0.24192(8) 0.69752(9) -0.35141(9)
C1O C 0.24192(8) 0.69752(9) 0.35141(9)
C1K C -0.25808(8) 0.19752(9) -0.14859(9)
N3A N -0.36327(8) 0.29335(7) 0.14817(8)
N3B N -0.29335(7) -0.36327(8) 0.14817(8)
N3C N 0.36327(8) -0.29335(7) 0.14817(8)
N3J N 0.29335(7) 0.36327(8) -0.14817(8)
N3E N 0.13673(8) 0.79335(7) -0.35183(8)
N3O N 0.13673(8) 0.79335(7) 0.35183(8)
N3K N -0.36327(8) 0.29335(7) -0.14817(8)
C2A C -0.30088(8) 0.21745(8) 0.19331(9)
C2B C -0.21745(8) -0.30088(8) 0.19331(9)
C2C C 0.30088(8) -0.21745(8) 0.19331(9)
C2J C 0.21745(8) 0.30088(8) -0.19331(9)
C2E C 0.19912(8) 0.71745(8) -0.30669(9)
C2O C 0.19912(8) 0.71745(8) 0.30669(9)
C2K C -0.30088(8) 0.21745(8) -0.19331(9)
C3A C -0.24456(8) 0.13870(8) 0.14698(9)
C3B C -0.13870(8) -0.24456(8) 0.14698(9)
C3C C 0.24456(8) -0.13870(8) 0.14698(9)
C3J C 0.13870(8) 0.24456(8) -0.14698(9)
C3E C 0.25544(8) 0.63870(8) -0.35302(9)
C3O C 0.25544(8) 0.63870(8) 0.35302(9)
C3K C -0.24456(8) 0.13870(8) -0.14698(9)
N4A N -0.12087(7) 0.13419(8) 0.17684(9)
N4B N -0.13419(8) -0.12087(7) 0.17684(9)
N4C N 0.12087(7) -0.13419(8) 0.17684(9)
N4J N 0.13419(8) 0.12087(7) -0.17684(9)
N4E N 0.37913(7) 0.63419(8) -0.32316(9)
N4O N 0.37913(7) 0.63419(8) 0.32316(9)
N4K N -0.12087(7) 0.13419(8) -0.17684(9)
C4A C -0.33057(8) 0.17978(9) 0.23472(10)
C4B C -0.17978(9) -0.33057(8) 0.23472(10)
C4C C 0.33057(8) -0.17978(9) 0.23472(10)
C4J C 0.17978(9) 0.33057(8) -0.23472(10)
C4E C 0.16943(8) 0.67978(9) -0.26528(10)
C4O C 0.16943(8) 0.67978(9) 0.26528(10)
C4K C -0.33057(8) 0.17978(9) -0.23472(10)
C5A C -0.11214(8) 0.05550(8) 0.11599(10)
C5B C -0.05550(8) -0.11214(8) 0.11599(10)
C5C C 0.11214(8) -0.05550(8) 0.11599(10)
C5J C 0.05550(8) 0.11214(8) -0.11599(10)
C5E C 0.38786(8) 0.55550(8) -0.38401(10)
C5O C 0.38786(8) 0.55550(8) 0.38401(10)
C5K C -0.11214(8) 0.05550(8) -0.11599(10)
H1A H -0.1207 0.0268 0.0849
H1B H -0.0268 -0.1207 0.0849
H1C H 0.1207 -0.0268 0.0849
H1J H 0.0268 0.1207 -0.0849
H1E H 0.3793 0.5268 -0.4151
H1O H 0.3793 0.5268 0.4151
H1K H -0.1207 0.0268 -0.0849
C6A C -0.31513(9) 0.28054(9) 0.19577(10)
C6B C -0.28054(9) -0.31513(9) 0.19577(10)
C6C C 0.31513(9) -0.28054(9) 0.19577(10)
C6J C 0.28054(9) 0.31513(9) -0.19577(10)
C6E C 0.18487(9) 0.78054(9) -0.30423(10)
C6O C 0.18487(9) 0.78054(9) 0.30423(10)
C6K C -0.31513(9) 0.28054(9) -0.19577(10)
H2A H -0.3267 0.2912 0.2408
H2B H -0.2912 -0.3267 0.2408
H2C H 0.3267 -0.2912 0.2408
H2J H 0.2912 0.3267 -0.2408
H2E H 0.1733 0.7912 -0.2592
H2O H 0.1733 0.7912 0.2592
H2K H -0.3267 0.2912 -0.2408
H3A H -0.2812 0.3031 0.1839
H3B H -0.3031 -0.2812 0.1839
H3C H 0.2812 -0.3031 0.1839
H3J H 0.3031 0.2812 -0.1839
H3E H 0.2188 0.8031 -0.3161
H3O H 0.2188 0.8031 0.3161
H3K H -0.2812 0.3031 -0.1839
C7A C -0.31568(9) 0.12064(10) 0.23351(11)
C7B C -0.12064(10) -0.31568(9) 0.23351(11)
C7C C 0.31568(9) -0.12064(10) 0.23351(11)
C7J C 0.12064(10) 0.31568(9) -0.23351(11)
C7E C 0.18432(9) 0.62064(10) -0.26649(11)
C7O C 0.18432(9) 0.62064(10) 0.26649(11)
C7K C -0.31568(9) 0.12064(10) -0.23351(11)
C8A C -0.20021(8) 0.11657(9) 0.09783(10)
C8B C -0.11657(9) -0.20021(8) 0.09783(10)
C8C C 0.20021(8) -0.11657(9) 0.09783(10)
C8J C 0.11657(9) 0.20021(8) -0.09783(10)
C8E C 0.29979(8) 0.61657(9) -0.40217(10)
C8O C 0.29979(8) 0.61657(9) 0.40217(10)
C8K C -0.20021(8) 0.11657(9) -0.09783(10)
H4A H -0.2160 0.0831 0.0747
H4B H -0.0831 -0.2160 0.0747
H4C H 0.2160 -0.0831 0.0747
H4J H 0.0831 0.2160 -0.0747
H4E H 0.2840 0.5831 -0.4253
H4O H 0.2840 0.5831 0.4253
H4K H -0.2160 0.0831 -0.0747
H5A H -0.1927 0.1464 0.0647
H5B H -0.1464 -0.1927 0.0647
H5C H 0.1927 -0.1464 0.0647
H5J H 0.1464 0.1927 -0.0647
H5E H 0.3073 0.6464 -0.4353
H5O H 0.3073 0.6464 0.4353
H5K H -0.1927 0.1464 -0.0647
N5A N -0.42859(8) 0.28793(9) 0.07125(8)
N5B N -0.28793(9) -0.42859(8) 0.07125(8)
N5C N 0.42859(8) -0.28793(9) 0.07125(8)
N5J N 0.28793(9) 0.42859(8) -0.07125(8)
N5E N 0.07141(8) 0.78793(9) -0.42875(8)
N5O N 0.07141(8) 0.78793(9) 0.42875(8)
N5K N -0.42859(8) 0.28793(9) -0.07125(8)
N5H N -0.28793(9) -0.42859(8) -0.07125(8)
N5I N 0.42859(8) -0.28793(9) -0.07125(8)
C9A C -0.07205(9) 0.10641(9) 0.18922(11)
C9B C -0.10641(9) -0.07205(9) 0.18922(11)
C9C C 0.07205(9) -0.10641(9) 0.18922(11)
C9J C 0.10641(9) 0.07205(9) -0.18922(11)
C9E C 0.42795(9) 0.60641(9) -0.31078(11)
C9O C 0.42795(9) 0.60641(9) 0.31078(11)
C9K C -0.07205(9) 0.10641(9) -0.18922(11)
H6A H -0.0451 0.1196 0.2202
H6B H -0.1196 -0.0451 0.2202
H6C H 0.0451 -0.1196 0.2202
H6J H 0.1196 0.0451 -0.2202
H6E H 0.4549 0.6196 -0.2798
H6O H 0.4549 0.6196 0.2798
H6K H -0.0451 0.1196 -0.2202
C10A C -0.38900(9) 0.26040(11) 0.10387(11)
C10B C -0.26040(11) -0.38900(9) 0.10387(11)
C10C C 0.38900(9) -0.26040(11) 0.10387(11)
C10J C 0.26040(11) 0.38900(9) -0.10387(11)
C10E C 0.11100(9) 0.76040(11) -0.39613(11)
C10O C 0.11100(9) 0.76040(11) 0.39613(11)
C10K C -0.38900(9) 0.26040(11) -0.10387(11)
N6A N -0.30885(12) 0.07003(10) 0.34202(10)
N6B N -0.07003(10) -0.30885(12) 0.34202(10)
N6C N 0.30885(12) -0.07003(10) 0.34202(10)
N6J N 0.07003(10) 0.30885(12) -0.34202(10)
N6E N 0.19115(12) 0.57003(10) -0.15798(10)
N6O N 0.19115(12) 0.57003(10) 0.15798(10)
N6K N -0.30885(12) 0.07003(10) -0.34202(10)
C11A C -0.38000(10) 0.19920(12) 0.27756(12)
C11B C -0.19920(12) -0.38000(10) 0.27756(12)
C11C C 0.38000(10) -0.19920(12) 0.27756(12)
C11J C 0.19920(12) 0.38000(10) -0.27756(12)
C11E C 0.12000(10) 0.69920(12) -0.22244(12)
C11O C 0.12000(10) 0.69920(12) 0.22244(12)
C11K C -0.38000(10) 0.19920(12) -0.27756(12)
H7A H -0.4159 0.1881 0.2570
H7B H -0.1881 -0.4159 0.2570
H7C H 0.4159 -0.1881 0.2570
H7J H 0.1881 0.4159 -0.2570
H7E H 0.0841 0.6881 -0.2430
H7O H 0.0841 0.6881 0.2430
H7K H -0.4159 0.1881 -0.2570
H8A H -0.3788 0.2406 0.2824
H8B H -0.2406 -0.3788 0.2824
H8C H 0.3788 -0.2406 0.2824
H8J H 0.2406 0.3788 -0.2824
H8E H 0.1212 0.7406 -0.2176
H8O H 0.1212 0.7406 0.2176
H8K H -0.3788 0.2406 -0.2824
H9A H -0.3770 0.1814 0.3208
H9B H -0.1814 -0.3770 0.3208
H9C H 0.3770 -0.1814 0.3208
H9J H 0.1814 0.3770 -0.3208
H9E H 0.1230 0.6814 -0.1792
H9O H 0.1230 0.6814 0.1792
H9K H -0.3770 0.1814 -0.3208
C12A C -0.22841(11) 0.23888(10) 0.10121(11)
C12B C -0.23888(10) -0.22841(11) 0.10121(11)
C12C C 0.22841(11) -0.23888(10) 0.10121(11)
C12J C 0.23888(10) 0.22841(11) -0.10121(11)
C12E C 0.27159(11) 0.73888(10) -0.39879(11)
C12O C 0.27159(11) 0.73888(10) 0.39879(11)
C12K C -0.22841(11) 0.23888(10) -0.10121(11)
H10A H -0.1971 0.2193 0.0791
H10B H -0.2193 -0.1971 0.0791
H10C H 0.1971 -0.2193 0.0791
H10J H 0.2193 0.1971 -0.0791
H10E H 0.3029 0.7193 -0.4209
H10O H 0.3029 0.7193 0.4209
H10K H -0.1971 0.2193 -0.0791
H11A H -0.2135 0.2714 0.1258
H11B H -0.2714 -0.2135 0.1258
H11C H 0.2135 -0.2714 0.1258
H11J H 0.2714 0.2135 -0.1258
H11E H 0.2865 0.7714 -0.3742
H11O H 0.2865 0.7714 0.3742
H11K H -0.2135 0.2714 -0.1258
H12A H -0.2558 0.2523 0.0685
H12B H -0.2523 -0.2558 0.0685
H12C H 0.2558 -0.2523 0.0685
H12J H 0.2523 0.2558 -0.0685
H12E H 0.2442 0.7523 -0.4315
H12O H 0.2442 0.7523 0.4315
H12K H -0.2558 0.2523 -0.0685
C13A C -0.27282(9) 0.10056(9) 0.19090(11)
C13B C -0.10056(9) -0.27282(9) 0.19090(11)
C13C C 0.27282(9) -0.10056(9) 0.19090(11)
C13J C 0.10056(9) 0.27282(9) -0.19090(11)
C13E C 0.22718(9) 0.60056(9) -0.30910(11)
C13O C 0.22718(9) 0.60056(9) 0.30910(11)
C13K C -0.27282(9) 0.10056(9) -0.19090(11)
N7A N -0.38629(13) 0.34538(11) 0.14356(13)
N7B N -0.34538(11) -0.38629(13) 0.14356(13)
N7C N 0.38629(13) -0.34538(11) 0.14356(13)
N7J N 0.34538(11) 0.38629(13) -0.14356(13)
N7E N 0.11371(13) 0.84538(11) -0.35644(13)
N7O N 0.11371(13) 0.84538(11) 0.35644(13)
N7K N -0.38629(13) 0.34538(11) -0.14356(13)
C14A C -0.34640(12) 0.07887(12) 0.27902(14)
C14B C -0.07887(12) -0.34640(12) 0.27902(14)
C14C C 0.34640(12) -0.07887(12) 0.27902(14)
C14J C 0.07887(12) 0.34640(12) -0.27902(14)
C14E C 0.15360(12) 0.57887(12) -0.22098(14)
C14O C 0.15360(12) 0.57887(12) 0.22098(14)
C14K C -0.34640(12) 0.07887(12) -0.27902(14)
H13A H -0.3522 0.0421 0.2564
H13B H -0.0421 -0.3522 0.2564
H13C H 0.3522 -0.0421 0.2564
H13J H 0.0421 0.3522 -0.2564
H13E H 0.1478 0.5421 -0.2436
H13O H 0.1478 0.5421 0.2436
H13K H -0.3522 0.0421 -0.2564
H14A H -0.3840 0.0942 0.2914
H14B H -0.0942 -0.3840 0.2914
H14C H 0.3840 -0.0942 0.2914
H14J H 0.0942 0.3840 -0.2914
H14E H 0.1160 0.5942 -0.2086
H14O H 0.1160 0.5942 0.2086
H14K H -0.3840 0.0942 -0.2914
C15A C -0.30292(13) 0.02701(11) 0.37996(14)
C15B C -0.02701(11) -0.30292(13) 0.37996(14)
C15C C 0.30292(13) -0.02701(11) 0.37996(14)
C15J C 0.02701(11) 0.30292(13) -0.37996(14)
C15E C 0.19708(13) 0.52701(11) -0.12004(14)
C15O C 0.19708(13) 0.52701(11) 0.12004(14)
C15K C -0.30292(13) 0.02701(11) -0.37996(14)
H15A H -0.3208 -0.0083 0.3713
H15B H 0.0083 -0.3208 0.3713
H15C H 0.3208 0.0083 0.3713
H15J H -0.0083 0.3208 -0.3713
H15E H 0.1792 0.4917 -0.1287
H15O H 0.1792 0.4917 0.1287
H15K H -0.3208 -0.0083 -0.3713
C16A C -0.25452(12) 0.03546(11) 0.19076(17)
C16B C -0.03546(11) -0.25452(12) 0.19076(17)
C16C C 0.25452(12) -0.03546(11) 0.19076(17)
C16J C 0.03546(11) 0.25452(12) -0.19076(17)
C16E C 0.24548(12) 0.53546(11) -0.30924(17)
C16O C 0.24548(12) 0.53546(11) 0.30924(17)
C16K C -0.25452(12) 0.03546(11) -0.19076(17)
H16A H -0.2579 0.0200 0.2352
H16B H -0.0200 -0.2579 0.2352
H16C H 0.2579 -0.0200 0.2352
H16J H 0.0200 0.2579 -0.2352
H16E H 0.2421 0.5200 -0.2648
H16O H 0.2421 0.5200 0.2648
H16K H -0.2579 0.0200 -0.2352
H17A H -0.2151 0.0322 0.1759
H17B H -0.0322 -0.2151 0.1759
H17C H 0.2151 -0.0322 0.1759
H17J H 0.0322 0.2151 -0.1759
H17E H 0.2849 0.5322 -0.3241
H17O H 0.2849 0.5322 0.3241
H17K H -0.2151 0.0322 -0.1759
H18A H -0.2793 0.0141 0.1611
H18B H -0.0141 -0.2793 0.1611
H18C H 0.2793 -0.0141 0.1611
H18J H 0.0141 0.2793 -0.1611
H18E H 0.2207 0.5141 -0.3389
H18O H 0.2207 0.5141 0.3389
H18K H -0.2793 0.0141 -0.1611
C17A C -0.42536(15) 0.34113(13) 0.09539(14)
C17B C -0.34113(13) -0.42536(15) 0.09539(14)
C17C C 0.42536(15) -0.34113(13) 0.09539(14)
C17J C 0.34113(13) 0.42536(15) -0.09539(14)
C17E C 0.07464(15) 0.84113(13) -0.40461(14)
C17O C 0.07464(15) 0.84113(13) 0.40461(14)
C17K C -0.42536(15) 0.34113(13) -0.09539(14)
N9A N -0.27333(19) 0.11312(13) 0.36530(17)
N9B N -0.11312(13) -0.27333(19) 0.36530(17)
N9C N 0.27333(19) -0.11312(13) 0.36530(17)
N9J N 0.11312(13) 0.27333(19) -0.36530(17)
N9E N 0.22667(19) 0.61312(13) -0.13470(17)
N9O N 0.22667(19) 0.61312(13) 0.13470(17)
N9K N -0.27333(19) 0.11312(13) -0.36530(17)
C18A C -0.2509(2) 0.08721(15) 0.41863(19)
C18B C -0.08721(15) -0.2509(2) 0.41863(19)
C18C C 0.2509(2) -0.08721(15) 0.41863(19)
C18J C 0.08721(15) 0.2509(2) -0.41863(19)
C18E C 0.2491(2) 0.58721(15) -0.08137(19)
C18O C 0.2491(2) 0.58721(15) 0.08137(19)
C18K C -0.2509(2) 0.08721(15) -0.41863(19)
H19A H -0.2230 0.1044 0.4458
H19B H -0.1044 -0.2230 0.4458
H19C H 0.2230 -0.1044 0.4458
H19J H 0.1044 0.2230 -0.4458
H19E H 0.2770 0.6044 -0.0542
H19O H 0.2770 0.6044 0.0542
H19K H -0.2230 0.1044 -0.4458
O7H O 0.0000 0.0000 -0.2923(3)
N10A N -0.27170(13) 0.03472(9) 0.42958(10)
N10B N -0.03472(9) -0.27170(13) 0.42958(10)
N10C N 0.27170(13) -0.03472(9) 0.42958(10)
N10J N 0.03472(9) 0.27170(13) -0.42958(10)
N10E N 0.22830(13) 0.53472(9) -0.07042(10)
N10O N 0.22830(13) 0.53472(9) 0.07042(10)
N10K N -0.27170(13) 0.03472(9) -0.42958(10)
N10F N -0.53472(9) 0.22830(13) -0.07042(10)
N10L N -0.53472(9) 0.22830(13) 0.07042(10)
N10G N -0.22830(13) -0.53472(9) -0.07042(10)
N10M N -0.22830(13) -0.53472(9) 0.07042(10)
N10D N 0.53472(9) -0.22830(13) -0.07042(10)
N10N N 0.53472(9) -0.22830(13) 0.07042(10)
O9A O -0.53516(14) 0.35053(17) 0.0000
O9B O -0.35053(17) -0.53516(14) 0.0000
O9C O 0.53516(14) -0.35053(17) 0.0000
O10A O -0.4301(2) 0.16434(16) 0.0000
O10B O -0.16434(16) -0.4301(2) 0.0000
O10C O 0.4301(2) -0.16434(16) 0.0000
N8 N 0.17954(12) 0.05923(10) 0.0000
O4 O 0.12540(15) 0.05631(16) 0.0000
O5 O 0.20420(18) 0.10365(14) 0.0000
O6 O 0.20033(18) 0.01122(14) 0.0000
O8 O 0.46712(15) 0.3665(2) 0.1821(3)
loop_
_geom_bond_atom_site_label_1
_geom_bond_atom_site_label_2
_geom_bond_site_symmetry_1
_geom_bond_site_symmetry_2
Cu1 N1 1_555 1_555
Cu2 N5 1_555 1_555
N1 C5 1_555 1_555
N2 N4 1_555 1_555
C1 C2 1_555 1_555
N3 C6 1_555 1_555
C2 C4 1_555 1_555
C3 C1 1_555 1_555
N4 C9 1_555 1_555
C4 C7 1_555 1_555
C5 N2 1_555 1_555
H1 C5 1_555 1_555
C6 C2 1_555 1_555
H2 C6 1_555 1_555
H3 C6 1_555 1_555
C7 C13 1_555 1_555
C8 N2 1_555 1_555
H4 C8 1_555 1_555
H5 C8 1_555 1_555
N5 C10 1_555 1_555
C9 N1 1_555 1_555
H6 C9 1_555 1_555
C10 N3 1_555 1_555
N6 C14 1_555 1_555
C11 C4 1_555 1_555
H7 C11 1_555 1_555
H8 C11 1_555 1_555
H9 C11 1_555 1_555
C12 C1 1_555 1_555
H10 C12 1_555 1_555
H11 C12 1_555 1_555
H12 C12 1_555 1_555
C13 C3 1_555 1_555
N7 N3 1_555 1_555
C14 C7 1_555 1_555
H13 C14 1_555 1_555
H14 C14 1_555 1_555
C15 N6 1_555 1_555
H15 C15 1_555 1_555
C16 C13 1_555 1_555
H16 C16 1_555 1_555
H17 C16 1_555 1_555
H18 C16 1_555 1_555
C17 N5 1_555 1_555
N8 O4 1_555 1_555
O5 N8 1_555 1_555
N9 N6 1_555 1_555
O6 N8 1_555 1_555
C18 N9 1_555 1_555
H19 C18 1_555 1_555
O7 Cu1 1_555 1_555
N10 C15 1_555 1_555
O9 Cu2 1_555 1_555
O10 Cu2 1_555 1_555
Cu1H N1J 1_555 1_555
Cu1D N1E 1_555 1_555
Cu1L N1O 1_555 1_555
Cu2A N5A 1_555 1_555
Cu2B N5B 1_555 1_555
Cu2C N5C 1_555 1_555
Cu2G N10 1_555 1_555
Cu2D N10A 1_555 1_555
Cu2E N10B 1_555 1_555
Cu2F N10C 1_555 1_555
Cu2G_2 N10J 1_555 1_555
Cu2E_2 N5E 1_555 1_555
Cu2E_3 N5O 1_555 1_555
Cu2D_2 N10K 1_555 1_555
N1A Cu1 1_555 1_555
N1B Cu1 1_555 1_555
N1C Cu1 1_555 1_555
N1J C5J 1_555 1_555
N1E C5E 1_555 1_555
N1O C5O 1_555 1_555
N1K Cu1H 1_555 1_555
N1H Cu1H 1_555 1_555
N1I Cu1H 1_555 1_555
N2A N4A 1_555 1_555
N2B N4B 1_555 1_555
N2C N4C 1_555 1_555
N2J N4J 1_555 1_555
N2E N4E 1_555 1_555
N2O N4O 1_555 1_555
N2K N4K 1_555 1_555
C1A C2A 1_555 1_555
C1B C2B 1_555 1_555
C1C C2C 1_555 1_555
C1J C2J 1_555 1_555
C1E C2E 1_555 1_555
C1O C2O 1_555 1_555
C1K C2K 1_555 1_555
N3A C6A 1_555 1_555
N3B C6B 1_555 1_555
N3C C6C 1_555 1_555
N3J C6J 1_555 1_555
N3E C6E 1_555 1_555
N3O C6O 1_555 1_555
N3K C6K 1_555 1_555
C2A C4A 1_555 1_555
C2B C4B 1_555 1_555
C2C C4C 1_555 1_555
C2J C4J 1_555 1_555
C2E C4E 1_555 1_555
C2O C4O 1_555 1_555
C2K C4K 1_555 1_555
C3A C1A 1_555 1_555
C3B C1B 1_555 1_555
C3C C1C 1_555 1_555
C3J C1J 1_555 1_555
C3E C1E 1_555 1_555
C3O C1O 1_555 1_555
C3K C1K 1_555 1_555
N4A C9A 1_555 1_555
N4B C9B 1_555 1_555
N4C C9C 1_555 1_555
N4J C9J 1_555 1_555
N4E C9E 1_555 1_555
N4O C9O 1_555 1_555
N4K C9K 1_555 1_555
C4A C7A 1_555 1_555
C4B C7B 1_555 1_555
C4C C7C 1_555 1_555
C4J C7J 1_555 1_555
C4E C7E 1_555 1_555
C4O C7O 1_555 1_555
C4K C7K 1_555 1_555
C5A N1A 1_555 1_555
C5B N1B 1_555 1_555
C5C N1C 1_555 1_555
C5J N2J 1_555 1_555
C5E N2E 1_555 1_555
C5O N2O 1_555 1_555
C5K N1K 1_555 1_555
H1A C5A 1_555 1_555
H1B C5B 1_555 1_555
H1C C5C 1_555 1_555
H1J C5J 1_555 1_555
H1E C5E 1_555 1_555
H1O C5O 1_555 1_555
H1K C5K 1_555 1_555
C6A C2A 1_555 1_555
C6B C2B 1_555 1_555
C6C C2C 1_555 1_555
C6J C2J 1_555 1_555
C6E C2E 1_555 1_555
C6O C2O 1_555 1_555
C6K C2K 1_555 1_555
H2A C6A 1_555 1_555
H2B C6B 1_555 1_555
H2C C6C 1_555 1_555
H2J C6J 1_555 1_555
H2E C6E 1_555 1_555
H2O C6O 1_555 1_555
H2K C6K 1_555 1_555
H3A C6A 1_555 1_555
H3B C6B 1_555 1_555
H3C C6C 1_555 1_555
H3J C6J 1_555 1_555
H3E C6E 1_555 1_555
H3O C6O 1_555 1_555
H3K C6K 1_555 1_555
C7A C13A 1_555 1_555
C7B C13B 1_555 1_555
C7C C13C 1_555 1_555
C7J C13J 1_555 1_555
C7E C13E 1_555 1_555
C7O C13O 1_555 1_555
C7K C13K 1_555 1_555
C8A N2A 1_555 1_555
C8B N2B 1_555 1_555
C8C N2C 1_555 1_555
C8J N2J 1_555 1_555
C8E N2E 1_555 1_555
C8O N2O 1_555 1_555
C8K N2K 1_555 1_555
H4A C8A 1_555 1_555
H4B C8B 1_555 1_555
H4C C8C 1_555 1_555
H4J C8J 1_555 1_555
H4E C8E 1_555 1_555
H4O C8O 1_555 1_555
H4K C8K 1_555 1_555
H5A C8A 1_555 1_555
H5B C8B 1_555 1_555
H5C C8C 1_555 1_555
H5J C8J 1_555 1_555
H5E C8E 1_555 1_555
H5O C8O 1_555 1_555
H5K C8K 1_555 1_555
N5A C10A 1_555 1_555
N5B C10B 1_555 1_555
N5C C10C 1_555 1_555
N5J Cu2 1_555 1_555
N5E C10E 1_555 1_555
N5O C10O 1_555 1_555
N5K Cu2A 1_555 1_555
N5H Cu2B 1_555 1_555
N5I Cu2C 1_555 1_555
C9A N1A 1_555 1_555
C9B N1B 1_555 1_555
C9C N1C 1_555 1_555
C9J N1J 1_555 1_555
C9E N1E 1_555 1_555
C9O N1O 1_555 1_555
C9K N1K 1_555 1_555
H6A C9A 1_555 1_555
H6B C9B 1_555 1_555
H6C C9C 1_555 1_555
H6J C9J 1_555 1_555
H6E C9E 1_555 1_555
H6O C9O 1_555 1_555
H6K C9K 1_555 1_555
C10A N3A 1_555 1_555
C10B N3B 1_555 1_555
C10C N3C 1_555 1_555
C10J N3J 1_555 1_555
C10E N3E 1_555 1_555
C10O N3O 1_555 1_555
C10K N3K 1_555 1_555
N6A C14A 1_555 1_555
N6B C14B 1_555 1_555
N6C C14C 1_555 1_555
N6J C14J 1_555 1_555
N6E C14E 1_555 1_555
N6O C14O 1_555 1_555
N6K C14K 1_555 1_555
C11A C4A 1_555 1_555
C11B C4B 1_555 1_555
C11C C4C 1_555 1_555
C11J C4J 1_555 1_555
C11E C4E 1_555 1_555
C11O C4O 1_555 1_555
C11K C4K 1_555 1_555
H7A C11A 1_555 1_555
H7B C11B 1_555 1_555
H7C C11C 1_555 1_555
H7J C11J 1_555 1_555
H7E C11E 1_555 1_555
H7O C11O 1_555 1_555
H7K C11K 1_555 1_555
H8A C11A 1_555 1_555
H8B C11B 1_555 1_555
H8C C11C 1_555 1_555
H8J C11J 1_555 1_555
H8E C11E 1_555 1_555
H8O C11O 1_555 1_555
H8K C11K 1_555 1_555
H9A C11A 1_555 1_555
H9B C11B 1_555 1_555
H9C C11C 1_555 1_555
H9J C11J 1_555 1_555
H9E C11E 1_555 1_555
H9O C11O 1_555 1_555
H9K C11K 1_555 1_555
C12A C1A 1_555 1_555
C12B C1B 1_555 1_555
C12C C1C 1_555 1_555
C12J C1J 1_555 1_555
C12E C1E 1_555 1_555
C12O C1O 1_555 1_555
C12K C1K 1_555 1_555
H10A C12A 1_555 1_555
H10B C12B 1_555 1_555
H10C C12C 1_555 1_555
H10J C12J 1_555 1_555
H10E C12E 1_555 1_555
H10O C12O 1_555 1_555
H10K C12K 1_555 1_555
H11A C12A 1_555 1_555
H11B C12B 1_555 1_555
H11C C12C 1_555 1_555
H11J C12J 1_555 1_555
H11E C12E 1_555 1_555
H11O C12O 1_555 1_555
H11K C12K 1_555 1_555
H12A C12A 1_555 1_555
H12B C12B 1_555 1_555
H12C C12C 1_555 1_555
H12J C12J 1_555 1_555
H12E C12E 1_555 1_555
H12O C12O 1_555 1_555
H12K C12K 1_555 1_555
C13A C3A 1_555 1_555
C13B C3B 1_555 1_555
C13C C3C 1_555 1_555
C13J C3J 1_555 1_555
C13E C3E 1_555 1_555
C13O C3O 1_555 1_555
C13K C3K 1_555 1_555
N7A N3A 1_555 1_555
N7B N3B 1_555 1_555
N7C N3C 1_555 1_555
N7J N3J 1_555 1_555
N7E N3E 1_555 1_555
N7O N3O 1_555 1_555
N7K N3K 1_555 1_555
C14A C7A 1_555 1_555
C14B C7B 1_555 1_555
C14C C7C 1_555 1_555
C14J C7J 1_555 1_555
C14E C7E 1_555 1_555
C14O C7O 1_555 1_555
C14K C7K 1_555 1_555
H13A C14A 1_555 1_555
H13B C14B 1_555 1_555
H13C C14C 1_555 1_555
H13J C14J 1_555 1_555
H13E C14E 1_555 1_555
H13O C14O 1_555 1_555
H13K C14K 1_555 1_555
H14A C14A 1_555 1_555
H14B C14B 1_555 1_555
H14C C14C 1_555 1_555
H14J C14J 1_555 1_555
H14E C14E 1_555 1_555
H14O C14O 1_555 1_555
H14K C14K 1_555 1_555
C15A N6A 1_555 1_555
C15B N6B 1_555 1_555
C15C N6C 1_555 1_555
C15J N6J 1_555 1_555
C15E N6E 1_555 1_555
C15O N6O 1_555 1_555
C15K N6K 1_555 1_555
H15A C15A 1_555 1_555
H15B C15B 1_555 1_555
H15C C15C 1_555 1_555
H15J C15J 1_555 1_555
H15E C15E 1_555 1_555
H15O C15O 1_555 1_555
H15K C15K 1_555 1_555
C16A C13A 1_555 1_555
C16B C13B 1_555 1_555
C16C C13C 1_555 1_555
C16J C13J 1_555 1_555
C16E C13E 1_555 1_555
C16O C13O 1_555 1_555
C16K C13K 1_555 1_555
H16A C16A 1_555 1_555
H16B C16B 1_555 1_555
H16C C16C 1_555 1_555
H16J C16J 1_555 1_555
H16E C16E 1_555 1_555
H16O C16O 1_555 1_555
H16K C16K 1_555 1_555
H17A C16A 1_555 1_555
H17B C16B 1_555 1_555
H17C C16C 1_555 1_555
H17J C16J 1_555 1_555
H17E C16E 1_555 1_555
H17O C16O 1_555 1_555
H17K C16K 1_555 1_555
H18A C16A 1_555 1_555
H18B C16B 1_555 1_555
H18C C16C 1_555 1_555
H18J C16J 1_555 1_555
H18E C16E 1_555 1_555
H18O C16O 1_555 1_555
H18K C16K 1_555 1_555
C17A N5A 1_555 1_555
C17B N5B 1_555 1_555
C17C N5C 1_555 1_555
C17J N5J 1_555 1_555
C17E N5E 1_555 1_555
C17O N5O 1_555 1_555
C17K N5K 1_555 1_555
N9A N6A 1_555 1_555
N9B N6B 1_555 1_555
N9C N6C 1_555 1_555
N9J N6J 1_555 1_555
N9E N6E 1_555 1_555
N9O N6O 1_555 1_555
N9K N6K 1_555 1_555
C18A N9A 1_555 1_555
C18B N9B 1_555 1_555
C18C N9C 1_555 1_555
C18J N9J 1_555 1_555
C18E N9E 1_555 1_555
C18O N9O 1_555 1_555
C18K N9K 1_555 1_555
H19A C18A 1_555 1_555
H19B C18B 1_555 1_555
H19C C18C 1_555 1_555
H19J C18J 1_555 1_555
H19E C18E 1_555 1_555
H19O C18O 1_555 1_555
H19K C18K 1_555 1_555
O7H Cu1H 1_555 1_555
N10A C15A 1_555 1_555
N10B C15B 1_555 1_555
N10C C15C 1_555 1_555
N10J C15J 1_555 1_555
N10E Cu2 1_555 1_555
N10O Cu2 1_555 1_555
N10K C15K 1_555 1_555
N10F Cu2A 1_555 1_555
N10L Cu2A 1_555 1_555
N10G Cu2B 1_555 1_555
N10M Cu2B 1_555 1_555
N10D Cu2C 1_555 1_555
N10N Cu2C 1_555 1_555
O9A Cu2A 1_555 1_555
O9B Cu2B 1_555 1_555
O9C Cu2C 1_555 1_555
O10A Cu2A 1_555 1_555
O10B Cu2B 1_555 1_555
O10C Cu2C 1_555 1_555
C3 C8 1_555 1_555
N7 C17 1_555 1_555
C18 N10 1_555 1_555
N2A C5A 1_555 1_555
N2B C5B 1_555 1_555
N2C C5C 1_555 1_555
N2K C5K 1_555 1_555
C3A C8A 1_555 1_555
C3B C8B 1_555 1_555
C3C C8C 1_555 1_555
C3J C8J 1_555 1_555
C3E C8E 1_555 1_555
C3O C8O 1_555 1_555
C3K C8K 1_555 1_555
N5J C10J 1_555 1_555
N5K C10K 1_555 1_555
N7A C17A 1_555 1_555
N7B C17B 1_555 1_555
N7C C17C 1_555 1_555
N7J C17J 1_555 1_555
N7E C17E 1_555 1_555
N7O C17O 1_555 1_555
N7K C17K 1_555 1_555
C15E N10E 1_555 1_555
C15O N10O 1_555 1_555
C18A N10A 1_555 1_555
C18B N10B 1_555 1_555
C18C N10C 1_555 1_555
C18J N10J 1_555 1_555
C18E N10E 1_555 1_555
C18O N10O 1_555 1_555
C18K N10K 1_555 1_555

#END
