
#######################################################################
#
#                 Cambridge Crystallographic Data Centre
#                                CCDC 
#
#######################################################################
#
# If this CIF has been generated from an entry in the Cambridge 
# Structural Database, then it will include bibliographic, chemical, 
# crystal, experimental, refinement or atomic coordinate data resulting 
# from the CCDC's data processing and validation procedures.
#
#######################################################################

data_OQIQUB
_symmetry_cell_setting           tetragonal
_symmetry_space_group_name_H-M   'I 4/m'
_symmetry_Int_Tables_number      87
_space_group_name_Hall           '-I 4'
loop_
_symmetry_equiv_pos_site_id
_symmetry_equiv_pos_as_xyz
1 x,y,z
2 -y,x,z
3 -x,-y,z
4 y,-x,z
5 1/2+x,1/2+y,1/2+z
6 1/2-y,1/2+x,1/2+z
7 1/2-x,1/2-y,1/2+z
8 1/2+y,1/2-x,1/2+z
9 -x,-y,-z
10 y,-x,-z
11 x,y,-z
12 -y,x,-z
13 1/2-x,1/2-y,1/2-z
14 1/2+y,1/2-x,1/2-z
15 1/2+x,1/2+y,1/2-z
16 1/2-y,1/2+x,1/2-z
_cell_length_a                   23.2603(5)
_cell_length_b                   23.2603(5)
_cell_length_c                   20.2085(7)
_cell_angle_alpha                90
_cell_angle_beta                 90
_cell_angle_gamma                90
_cell_volume                     10933.6
loop_
_atom_site_label
_atom_site_type_symbol
_atom_site_fract_x
_atom_site_fract_y
_atom_site_fract_z
Cu1 Cu 1.0000 0.0000 0.162047(4)
Cu2 Cu 0.741508(3) 0.479442(2) 0.0000
N1 N 0.708100(8) 0.360095(9) 0.145984(10)
N2 N 0.712856(9) 0.424914(9) 0.069998(10)
N3 N 0.900953(9) 0.144237(9) 0.132958(11)
N4 N 0.942727(9) 0.064029(9) 0.157922(12)
N5 N 0.929575(12) 0.306439(11) 0.342167(13)
N6 N 0.966193(13) 0.267370(9) 0.429529(12)
N7 N 0.866620(10) 0.120073(10) 0.180001(13)
N8 N 0.654146(11) 0.379830(14) 0.139914(16)
N10 N 0.88810(2) 0.270750(14) 0.366160(18)
O1 O 0.834828(16) 0.436204(19) 0.0000
O5 O 0.649768(16) 0.532652(17) 0.0000
O7 O 1.0000 0.0000 0.28439(5)
C1 C 0.803550(11) 0.256719(10) 0.149707(12)
C2 C 0.862110(11) 0.242357(10) 0.149797(12)
C3 C 0.783623(10) 0.298679(10) 0.192997(12)
C4 C 0.720447(11) 0.313853(11) 0.193863(13)
H1 H 0.6979 0.2801 0.1828
H2 H 0.7096 0.3263 0.2379
C5 C 0.878778(12) 0.312480(11) 0.235308(14)
C6 C 0.820748(12) 0.327814(10) 0.235093(13)
C7 C 0.899906(11) 0.269728(11) 0.193246(14)
C8 C 0.741171(12) 0.385918(11) 0.103662(13)
H3 H 0.7800 0.3778 0.0979
C9 C 0.944994(11) 0.110594(11) 0.120399(15)
H4 H 0.9736 0.1184 0.0896
C10 C 0.799727(16) 0.377403(13) 0.277989(17)
H5 H 0.7592 0.3827 0.2714
H6 H 0.8197 0.4119 0.2659
H7 H 0.8070 0.3688 0.3237
C11 C 0.885114(12) 0.198807(12) 0.101220(14)
H8 H 0.8562 0.1915 0.0677
H9 H 0.9186 0.2147 0.0793
C12 C 0.973684(14) 0.302028(13) 0.380915(16)
H10 H 1.0077 0.3222 0.3741
C13 C 0.763843(13) 0.227742(15) 0.100585(15)
H11 H 0.7272 0.2210 0.1210
H12 H 0.7803 0.1918 0.0870
H13 H 0.7589 0.2521 0.0627
C14 C 0.893780(12) 0.072079(12) 0.194215(17)
H14 H 0.8809 0.0461 0.2259
C15 C 0.659846(14) 0.420101(15) 0.093510(18)
H15 H 0.6294 0.4428 0.0789
C16 C 0.963848(13) 0.253696(16) 0.19391(2)
H16 H 0.9751 0.2433 0.2380
H17 H 0.9862 0.2860 0.1794
H18 H 0.9703 0.2218 0.1647
C17 C 0.91317(3) 0.246970(17) 0.41765(2)
H19 H 0.8958 0.2187 0.4434
C18 C 0.919423(14) 0.341498(15) 0.282128(17)
H20 H 0.9037 0.3785 0.2949
H21 H 0.9558 0.3483 0.2599
H22 H 0.61457(3) 0.53551(17) 0.0000
H23 H 1.0000 0.0000 0.32922(16)
H25 H 0.85856(10) 0.46160(12) 0.0000
Cu1H Cu 1.0000 0.0000 -0.162047(4)
Cu1D Cu 0.5000 0.5000 -0.337953(4)
Cu1L Cu 0.5000 0.5000 0.337953(4)
Cu2A Cu 0.520558(2) -0.258492(3) 0.0000
Cu2B Cu 1.258492(3) -0.479442(2) 0.0000
Cu2C Cu 1.479442(2) 0.258492(3) 0.0000
Cu2E Cu 1.020558(2) 0.241508(3) 0.5000
Cu2F Cu 0.758492(3) 0.020558(2) 0.5000
Cu2G Cu 0.979442(2) -0.241508(3) 0.5000
Cu2D Cu 1.241508(3) -0.020558(2) 0.5000
Cu2E_2 Cu 1.020558(2) 0.241508(3) -0.5000
Cu2G_2 Cu 0.979442(2) 0.758492(3) -0.5000
Cu2G_3 Cu 0.979442(2) 0.758492(3) 0.5000
Cu2F_2 Cu 0.758492(3) 0.020558(2) -0.5000
N1A N 0.639905(9) -0.291900(8) 0.145984(10)
N1B N 1.291900(8) -0.360095(9) 0.145984(10)
N1C N 1.360095(9) 0.291900(8) 0.145984(10)
N1J N 0.708100(8) 0.360095(9) -0.145984(10)
N1G N 0.860095(9) 0.791900(8) -0.354016(10)
N1M N 0.860095(9) 0.791900(8) 0.354016(10)
N1K N 0.639905(9) -0.291900(8) -0.145984(10)
N2A N 0.575086(9) -0.287144(9) 0.069998(10)
N2B N 1.287144(9) -0.424914(9) 0.069998(10)
N2C N 1.424914(9) 0.287144(9) 0.069998(10)
N2J N 0.712856(9) 0.424914(9) -0.069998(10)
N2G N 0.924914(9) 0.787144(9) -0.430002(10)
N2M N 0.924914(9) 0.787144(9) 0.430002(10)
N2K N 0.575086(9) -0.287144(9) -0.069998(10)
N2H N 1.287144(9) -0.424914(9) -0.069998(10)
N2I N 1.424914(9) 0.287144(9) -0.069998(10)
N3A N 0.855763(9) -0.099047(9) 0.132958(11)
N3B N 1.099047(9) -0.144237(9) 0.132958(11)
N3C N 1.144237(9) 0.099047(9) 0.132958(11)
N3J N 0.900953(9) 0.144237(9) -0.132958(11)
N3G N 0.644237(9) 0.599047(9) -0.367042(11)
N3M N 0.644237(9) 0.599047(9) 0.367042(11)
N3K N 0.855763(9) -0.099047(9) -0.132958(11)
N4A N 0.935971(9) -0.057273(9) 0.157922(12)
N4B N 1.057273(9) -0.064029(9) 0.157922(12)
N4C N 1.064029(9) 0.057273(9) 0.157922(12)
N4J N 0.942727(9) 0.064029(9) -0.157922(12)
N4G N 0.564029(9) 0.557273(9) -0.342078(12)
N4M N 0.564029(9) 0.557273(9) 0.342078(12)
N4K N 0.935971(9) -0.057273(9) -0.157922(12)
N4H N 1.057273(9) -0.064029(9) -0.157922(12)
N4I N 1.064029(9) 0.057273(9) -0.157922(12)
N5A N 0.693561(11) -0.070425(12) 0.342167(13)
N5B N 1.070425(12) -0.306439(11) 0.342167(13)
N5C N 1.306439(11) 0.070425(12) 0.342167(13)
N5J N 0.929575(12) 0.306439(11) -0.342167(13)
N5G N 0.806439(11) 0.570425(12) -0.157833(13)
N5M N 0.806439(11) 0.570425(12) 0.157833(13)
N5K N 0.693561(11) -0.070425(12) -0.342167(13)
N6A N 0.732630(9) -0.033807(13) 0.429529(12)
N6B N 1.033807(13) -0.267370(9) 0.429529(12)
N6C N 1.267370(9) 0.033807(13) 0.429529(12)
N6J N 0.966193(13) 0.267370(9) -0.429529(12)
N6G N 0.767370(9) 0.533807(13) -0.070471(12)
N6M N 0.767370(9) 0.533807(13) 0.070471(12)
N6K N 0.732630(9) -0.033807(13) -0.429529(12)
N6D N 0.466193(13) -0.232630(9) -0.070471(12)
N6N N 0.466193(13) -0.232630(9) 0.070471(12)
N6E N 1.232630(9) -0.533807(13) -0.070471(12)
N6O N 1.232630(9) -0.533807(13) 0.070471(12)
N6F N 1.533807(13) 0.232630(9) -0.070471(12)
N6L N 1.533807(13) 0.232630(9) 0.070471(12)
N7A N 0.879927(10) -0.133380(10) 0.180001(13)
N7B N 1.133380(10) -0.120073(10) 0.180001(13)
N7C N 1.120073(10) 0.133380(10) 0.180001(13)
N7J N 0.866620(10) 0.120073(10) -0.180001(13)
N7G N 0.620073(10) 0.633380(10) -0.319999(13)
N7M N 0.620073(10) 0.633380(10) 0.319999(13)
N7K N 0.879927(10) -0.133380(10) -0.180001(13)
N8A N 0.620170(14) -0.345854(11) 0.139914(16)
N8B N 1.345854(11) -0.379830(14) 0.139914(16)
N8C N 1.379830(14) 0.345854(11) 0.139914(16)
N8J N 0.654146(11) 0.379830(14) -0.139914(16)
N8G N 0.879830(14) 0.845854(11) -0.360086(16)
N8M N 0.879830(14) 0.845854(11) 0.360086(16)
N8K N 0.620170(14) -0.345854(11) -0.139914(16)
N10A N 0.729250(14) -0.11190(2) 0.366160(18)
N10B N 1.11190(2) -0.270750(14) 0.366160(18)
N10C N 1.270750(14) 0.11190(2) 0.366160(18)
N10J N 0.88810(2) 0.270750(14) -0.366160(18)
N10G N 0.770750(14) 0.61190(2) -0.133840(18)
N10M N 0.770750(14) 0.61190(2) 0.133840(18)
N10K N 0.729250(14) -0.11190(2) -0.366160(18)
O1A O 0.563796(19) -0.165172(16) 0.0000
O1B O 1.165172(16) -0.436204(19) 0.0000
O1C O 1.436204(19) 0.165172(16) 0.0000
O5A O 0.467348(17) -0.350232(16) 0.0000
O5B O 1.350232(16) -0.532652(17) 0.0000
O5C O 1.532652(17) 0.350232(16) 0.0000
O7H O 1.0000 0.0000 -0.28439(5)
C1A C 0.743281(10) -0.196450(11) 0.149707(12)
C1B C 1.196450(11) -0.256719(10) 0.149707(12)
C1C C 1.256719(10) 0.196450(11) 0.149707(12)
C1J C 0.803550(11) 0.256719(10) -0.149707(12)
C1G C 0.756719(10) 0.696450(11) -0.350293(12)
C1M C 0.756719(10) 0.696450(11) 0.350293(12)
C1K C 0.743281(10) -0.196450(11) -0.149707(12)
C2A C 0.757643(10) -0.137890(11) 0.149797(12)
C2B C 1.137890(11) -0.242357(10) 0.149797(12)
C2C C 1.242357(10) 0.137890(11) 0.149797(12)
C2J C 0.862110(11) 0.242357(10) -0.149797(12)
C2G C 0.742357(10) 0.637890(11) -0.350203(12)
C2M C 0.742357(10) 0.637890(11) 0.350203(12)
C2K C 0.757643(10) -0.137890(11) -0.149797(12)
C3A C 0.701321(10) -0.216377(10) 0.192997(12)
C3B C 1.216377(10) -0.298679(10) 0.192997(12)
C3C C 1.298679(10) 0.216377(10) 0.192997(12)
C3J C 0.783623(10) 0.298679(10) -0.192997(12)
C3G C 0.798679(10) 0.716377(10) -0.307003(12)
C3M C 0.798679(10) 0.716377(10) 0.307003(12)
C3K C 0.701321(10) -0.216377(10) -0.192997(12)
C4A C 0.686147(11) -0.279553(11) 0.193863(13)
C4B C 1.279553(11) -0.313853(11) 0.193863(13)
C4C C 1.313853(11) 0.279553(11) 0.193863(13)
C4J C 0.720447(11) 0.313853(11) -0.193863(13)
C4G C 0.813853(11) 0.779553(11) -0.306137(13)
C4M C 0.813853(11) 0.779553(11) 0.306137(13)
C4K C 0.686147(11) -0.279553(11) -0.193863(13)
H1A H 0.7199 -0.3021 0.1828
H1B H 1.3021 -0.2801 0.1828
H1C H 1.2801 0.3021 0.1828
H1J H 0.6979 0.2801 -0.1828
H1G H 0.7801 0.8021 -0.3172
H1M H 0.7801 0.8021 0.3172
H1K H 0.7199 -0.3021 -0.1828
H2A H 0.6737 -0.2904 0.2379
H2B H 1.2904 -0.3263 0.2379
H2C H 1.3263 0.2904 0.2379
H2J H 0.7096 0.3263 -0.2379
H2G H 0.8263 0.7904 -0.2621
H2M H 0.8263 0.7904 0.2621
H2K H 0.6737 -0.2904 -0.2379
C5A C 0.687520(11) -0.121222(12) 0.235308(14)
C5B C 1.121222(12) -0.312480(11) 0.235308(14)
C5C C 1.312480(11) 0.121222(12) 0.235308(14)
C5J C 0.878778(12) 0.312480(11) -0.235308(14)
C5G C 0.812480(11) 0.621222(12) -0.264692(14)
C5M C 0.812480(11) 0.621222(12) 0.264692(14)
C5K C 0.687520(11) -0.121222(12) -0.235308(14)
C6A C 0.672186(10) -0.179252(12) 0.235093(13)
C6B C 1.179252(12) -0.327814(10) 0.235093(13)
C6C C 1.327814(10) 0.179252(12) 0.235093(13)
C6J C 0.820748(12) 0.327814(10) -0.235093(13)
C6G C 0.827814(10) 0.679252(12) -0.264907(13)
C6M C 0.827814(10) 0.679252(12) 0.264907(13)
C6K C 0.672186(10) -0.179252(12) -0.235093(13)
C7A C 0.730272(11) -0.100094(11) 0.193246(14)
C7B C 1.100094(11) -0.269728(11) 0.193246(14)
C7C C 1.269728(11) 0.100094(11) 0.193246(14)
C7J C 0.899906(11) 0.269728(11) -0.193246(14)
C7G C 0.769728(11) 0.600094(11) -0.306754(14)
C7M C 0.769728(11) 0.600094(11) 0.306754(14)
C7K C 0.730272(11) -0.100094(11) -0.193246(14)
C8A C 0.614082(11) -0.258829(12) 0.103662(13)
C8B C 1.258829(12) -0.385918(11) 0.103662(13)
C8C C 1.385918(11) 0.258829(12) 0.103662(13)
C8J C 0.741171(12) 0.385918(11) -0.103662(13)
C8G C 0.885918(11) 0.758829(12) -0.396338(13)
C8M C 0.885918(11) 0.758829(12) 0.396338(13)
C8K C 0.614082(11) -0.258829(12) -0.103662(13)
H3A H 0.6222 -0.2200 0.0979
H3B H 1.2200 -0.3778 0.0979
H3C H 1.3778 0.2200 0.0979
H3J H 0.7800 0.3778 -0.0979
H3G H 0.8778 0.7200 -0.4021
H3M H 0.8778 0.7200 0.4021
H3K H 0.6222 -0.2200 -0.0979
C9A C 0.889406(11) -0.055006(11) 0.120399(15)
C9B C 1.055006(11) -0.110594(11) 0.120399(15)
C9C C 1.110594(11) 0.055006(11) 0.120399(15)
C9J C 0.944994(11) 0.110594(11) -0.120399(15)
C9G C 0.610594(11) 0.555006(11) -0.379601(15)
C9M C 0.610594(11) 0.555006(11) 0.379601(15)
C9K C 0.889406(11) -0.055006(11) -0.120399(15)
H4A H 0.8816 -0.0264 0.0896
H4B H 1.0264 -0.1184 0.0896
H4C H 1.1184 0.0264 0.0896
H4J H 0.9736 0.1184 -0.0896
H4G H 0.6184 0.5264 -0.4104
H4M H 0.6184 0.5264 0.4104
H4K H 0.8816 -0.0264 -0.0896
C10A C 0.622597(13) -0.200273(16) 0.277989(17)
C10B C 1.200273(16) -0.377403(13) 0.277989(17)
C10C C 1.377403(13) 0.200273(16) 0.277989(17)
C10J C 0.799727(16) 0.377403(13) -0.277989(17)
C10G C 0.877403(13) 0.700273(16) -0.222011(17)
C10M C 0.877403(13) 0.700273(16) 0.222011(17)
C10K C 0.622597(13) -0.200273(16) -0.277989(17)
H5A H 0.6173 -0.2408 0.2714
H5B H 1.2408 -0.3827 0.2714
H5C H 1.3827 0.2408 0.2714
H5J H 0.7592 0.3827 -0.2714
H5G H 0.8827 0.7408 -0.2286
H5M H 0.8827 0.7408 0.2286
H5K H 0.6173 -0.2408 -0.2714
H6A H 0.5881 -0.1803 0.2659
H6B H 1.1803 -0.4119 0.2659
H6C H 1.4119 0.1803 0.2659
H6J H 0.8197 0.4119 -0.2659
H6G H 0.9119 0.6803 -0.2341
H6M H 0.9119 0.6803 0.2341
H6K H 0.5881 -0.1803 -0.2659
H7A H 0.6312 -0.1930 0.3237
H7B H 1.1930 -0.3688 0.3237
H7C H 1.3688 0.1930 0.3237
H7J H 0.8070 0.3688 -0.3237
H7G H 0.8688 0.6930 -0.1763
H7M H 0.8688 0.6930 0.1763
H7K H 0.6312 -0.1930 -0.3237
C11A C 0.801193(12) -0.114886(12) 0.101220(14)
C11B C 1.114886(12) -0.198807(12) 0.101220(14)
C11C C 1.198807(12) 0.114886(12) 0.101220(14)
C11J C 0.885114(12) 0.198807(12) -0.101220(14)
C11G C 0.698807(12) 0.614886(12) -0.398780(14)
C11M C 0.698807(12) 0.614886(12) 0.398780(14)
C11K C 0.801193(12) -0.114886(12) -0.101220(14)
H8A H 0.8085 -0.1438 0.0677
H8B H 1.1438 -0.1915 0.0677
H8C H 1.1915 0.1438 0.0677
H8J H 0.8562 0.1915 -0.0677
H8G H 0.6915 0.6438 -0.4323
H8M H 0.6915 0.6438 0.4323
H8K H 0.8085 -0.1438 -0.0677
H9A H 0.7853 -0.0814 0.0793
H9B H 1.0814 -0.2147 0.0793
H9C H 1.2147 0.0814 0.0793
H9J H 0.9186 0.2147 -0.0793
H9G H 0.7147 0.5814 -0.4207
H9M H 0.7147 0.5814 0.4207
H9K H 0.7853 -0.0814 -0.0793
C12A C 0.697972(13) -0.026316(14) 0.380915(16)
C12B C 1.026316(14) -0.302028(13) 0.380915(16)
C12C C 1.302028(13) 0.026316(14) 0.380915(16)
C12J C 0.973684(14) 0.302028(13) -0.380915(16)
C12G C 0.802028(13) 0.526316(14) -0.119085(16)
C12M C 0.802028(13) 0.526316(14) 0.119085(16)
C12K C 0.697972(13) -0.026316(14) -0.380915(16)
H10A H 0.6778 0.0077 0.3741
H10B H 0.9923 -0.3222 0.3741
H10C H 1.3222 -0.0077 0.3741
H10J H 1.0077 0.3222 -0.3741
H10G H 0.8222 0.4923 -0.1259
H10M H 0.8222 0.4923 0.1259
H10K H 0.6778 0.0077 -0.3741
C13A C 0.772258(15) -0.236157(13) 0.100585(15)
C13B C 1.236157(13) -0.227742(15) 0.100585(15)
C13C C 1.227742(15) 0.236157(13) 0.100585(15)
C13J C 0.763843(13) 0.227742(15) -0.100585(15)
C13G C 0.727742(15) 0.736157(13) -0.399415(15)
C13M C 0.727742(15) 0.736157(13) 0.399415(15)
C13K C 0.772258(15) -0.236157(13) -0.100585(15)
H11A H 0.7790 -0.2728 0.1210
H11B H 1.2728 -0.2210 0.1210
H11C H 1.2210 0.2728 0.1210
H11J H 0.7272 0.2210 -0.1210
H11G H 0.7210 0.7728 -0.3790
H11M H 0.7210 0.7728 0.3790
H11K H 0.7790 -0.2728 -0.1210
H12A H 0.8082 -0.2197 0.0870
H12B H 1.2197 -0.1918 0.0870
H12C H 1.1918 0.2197 0.0870
H12J H 0.7803 0.1918 -0.0870
H12G H 0.6918 0.7197 -0.4130
H12M H 0.6918 0.7197 0.4130
H12K H 0.8082 -0.2197 -0.0870
H13A H 0.7479 -0.2411 0.0627
H13B H 1.2411 -0.2521 0.0627
H13C H 1.2521 0.2411 0.0627
H13J H 0.7589 0.2521 -0.0627
H13G H 0.7521 0.7411 -0.4373
H13M H 0.7521 0.7411 0.4373
H13K H 0.7479 -0.2411 -0.0627
C14A C 0.927921(12) -0.106220(12) 0.194215(17)
C14B C 1.106220(12) -0.072079(12) 0.194215(17)
C14C C 1.072079(12) 0.106220(12) 0.194215(17)
C14J C 0.893780(12) 0.072079(12) -0.194215(17)
C14G C 0.572079(12) 0.606220(12) -0.305785(17)
C14M C 0.572079(12) 0.606220(12) 0.305785(17)
C14K C 0.927921(12) -0.106220(12) -0.194215(17)
H14A H 0.9539 -0.1191 0.2259
H14B H 1.1191 -0.0461 0.2259
H14C H 1.0461 0.1191 0.2259
H14J H 0.8809 0.0461 -0.2259
H14G H 0.5461 0.6191 -0.2741
H14M H 0.5461 0.6191 0.2741
H14K H 0.9539 -0.1191 -0.2259
C15A C 0.579899(15) -0.340154(14) 0.093510(18)
C15B C 1.340154(14) -0.420101(15) 0.093510(18)
C15C C 1.420101(15) 0.340154(14) 0.093510(18)
C15J C 0.659846(14) 0.420101(15) -0.093510(18)
C15G C 0.920101(15) 0.840154(14) -0.406490(18)
C15M C 0.920101(15) 0.840154(14) 0.406490(18)
C15K C 0.579899(15) -0.340154(14) -0.093510(18)
H15A H 0.5572 -0.3706 0.0789
H15B H 1.3706 -0.4428 0.0789
H15C H 1.4428 0.3706 0.0789
H15J H 0.6294 0.4428 -0.0789
H15G H 0.9428 0.8706 -0.4211
H15M H 0.9428 0.8706 0.4211
H15K H 0.5572 -0.3706 -0.0789
C16A C 0.746304(16) -0.036152(13) 0.19391(2)
C16B C 1.036152(13) -0.253696(16) 0.19391(2)
C16C C 1.253696(16) 0.036152(13) 0.19391(2)
C16J C 0.963848(13) 0.253696(16) -0.19391(2)
C16G C 0.753696(16) 0.536152(13) -0.30609(2)
C16M C 0.753696(16) 0.536152(13) 0.30609(2)
C16K C 0.746304(16) -0.036152(13) -0.19391(2)
H16A H 0.7567 -0.0249 0.2380
H16B H 1.0249 -0.2433 0.2380
H16C H 1.2433 0.0249 0.2380
H16J H 0.9751 0.2433 -0.2380
H16G H 0.7433 0.5249 -0.2620
H16M H 0.7433 0.5249 0.2620
H16K H 0.7567 -0.0249 -0.2380
H17A H 0.7140 -0.0138 0.1794
H17B H 1.0138 -0.2860 0.1794
H17C H 1.2860 0.0138 0.1794
H17J H 0.9862 0.2860 -0.1794
H17G H 0.7860 0.5138 -0.3206
H17M H 0.7860 0.5138 0.3206
H17K H 0.7140 -0.0138 -0.1794
H18A H 0.7782 -0.0297 0.1647
H18B H 1.0297 -0.2218 0.1647
H18C H 1.2218 0.0297 0.1647
H18J H 0.9703 0.2218 -0.1647
H18G H 0.7218 0.5297 -0.3353
H18M H 0.7218 0.5297 0.3353
H18K H 0.7782 -0.0297 -0.1647
C17A C 0.753030(17) -0.08683(3) 0.41765(2)
C17B C 1.08683(3) -0.246970(17) 0.41765(2)
C17C C 1.246970(17) 0.08683(3) 0.41765(2)
C17J C 0.91317(3) 0.246970(17) -0.41765(2)
C17G C 0.746970(17) 0.58683(3) -0.08235(2)
C17M C 0.746970(17) 0.58683(3) 0.08235(2)
C17K C 0.753030(17) -0.08683(3) -0.41765(2)
H19A H 0.7813 -0.1042 0.4434
H19B H 1.1042 -0.2187 0.4434
H19C H 1.2187 0.1042 0.4434
H19J H 0.8958 0.2187 -0.4434
H19G H 0.7187 0.6042 -0.0566
H19M H 0.7187 0.6042 0.0566
H19K H 0.7813 -0.1042 -0.4434
C18A C 0.658502(15) -0.080577(14) 0.282128(17)
C18B C 1.080577(14) -0.341498(15) 0.282128(17)
C18C C 1.341498(15) 0.080577(14) 0.282128(17)
C18J C 0.919423(14) 0.341498(15) -0.282128(17)
C18G C 0.841498(15) 0.580577(14) -0.217872(17)
C18M C 0.841498(15) 0.580577(14) 0.217872(17)
C18K C 0.658502(15) -0.080577(14) -0.282128(17)
H20A H 0.6215 -0.0963 0.2949
H20B H 1.0963 -0.3785 0.2949
H20C H 1.3785 0.0963 0.2949
H20J H 0.9037 0.3785 -0.2949
H20G H 0.8785 0.5963 -0.2051
H20M H 0.8785 0.5963 0.2051
H20K H 0.6215 -0.0963 -0.2949
H21A H 0.6517 -0.0442 0.2599
H21B H 1.0442 -0.3483 0.2599
H21C H 1.3483 0.0442 0.2599
H21J H 0.9558 0.3483 -0.2599
H21G H 0.8483 0.5442 -0.2401
H21M H 0.8483 0.5442 0.2401
H21K H 0.6517 -0.0442 -0.2599
H22A H 0.46449(17) -0.38543(3) 0.0000
H22B H 1.38543(3) -0.53551(17) 0.0000
H22C H 1.53551(17) 0.38543(3) 0.0000
H23H H 1.0000 0.0000 -0.32922(16)
H25A H 0.53840(12) -0.14144(10) 0.0000
H25B H 1.14144(10) -0.46160(12) 0.0000
H25C H 1.46160(12) 0.14144(10) 0.0000
N9 N 0.059661(18) 0.17241(3) 1.0000
O2 O 0.10401(2) 0.19728(3) 1.0000
O3 O 0.05586(4) 0.11939(3) 1.0000
O4 O 0.01169(2) 0.19488(4) 1.0000
O6 O 0.53246(2) 0.36620(3) 0.17942(4)
O8 O 0.0000 0.0000 0.0000
H24 H 0.0000 0.0000 0.0521(2)
H24H H 0.0000 0.0000 -0.0521(2)
loop_
_geom_bond_atom_site_label_1
_geom_bond_atom_site_label_2
_geom_bond_site_symmetry_1
_geom_bond_site_symmetry_2
Cu1 N4 1_555 1_555
Cu2 N2 1_555 1_555
N1 N8 1_555 1_555
N2 C8 1_555 1_555
N3 N7 1_555 1_555
N4 C9 1_555 1_555
N5 N10 1_555 1_555
N6 C12 1_555 1_555
N7 C14 1_555 1_555
N8 C15 1_555 1_555
N9 O2 1_555 1_555
N10 C17 1_555 1_555
O1 Cu2 1_555 1_555
O3 N9 1_555 1_555
O4 N9 1_555 1_555
O5 Cu2 1_555 1_555
O7 Cu1 1_555 1_555
C1 C2 1_555 1_555
C2 C7 1_555 1_555
C3 C1 1_555 1_555
C4 N1 1_555 1_555
H1 C4 1_555 1_555
H2 C4 1_555 1_555
C5 C6 1_555 1_555
C6 C3 1_555 1_555
C7 C5 1_555 1_555
C8 N1 1_555 1_555
H3 C8 1_555 1_555
C9 N3 1_555 1_555
H4 C9 1_555 1_555
C10 C6 1_555 1_555
H5 C10 1_555 1_555
H6 C10 1_555 1_555
H7 C10 1_555 1_555
C11 N3 1_555 1_555
H8 C11 1_555 1_555
H9 C11 1_555 1_555
C12 N5 1_555 1_555
H10 C12 1_555 1_555
C13 C1 1_555 1_555
H11 C13 1_555 1_555
H12 C13 1_555 1_555
H13 C13 1_555 1_555
C14 N4 1_555 1_555
H14 C14 1_555 1_555
C15 N2 1_555 1_555
H15 C15 1_555 1_555
C16 C7 1_555 1_555
H16 C16 1_555 1_555
H17 C16 1_555 1_555
H18 C16 1_555 1_555
C17 N6 1_555 1_555
H19 C17 1_555 1_555
C18 N5 1_555 1_555
H20 C18 1_555 1_555
H21 C18 1_555 1_555
H22 O5 1_555 1_555
O8 H24 1_555 1_555
H23 O7 1_555 1_555
H25 O1 1_555 1_555
Cu1H N4J 1_555 1_555
Cu1D N4G 1_555 1_555
Cu1L N4M 1_555 1_555
Cu2A N2A 1_555 1_555
Cu2B N2B 1_555 1_555
Cu2C N2C 1_555 1_555
Cu2E N6 1_555 1_555
Cu2F N6A 1_555 1_555
Cu2G N6B 1_555 1_555
Cu2D N6C 1_555 1_555
Cu2E_2 N6J 1_555 1_555
Cu2G_2 N2G 1_555 1_555
Cu2G_3 N2M 1_555 1_555
Cu2F_2 N6K 1_555 1_555
N1A N8A 1_555 1_555
N1B N8B 1_555 1_555
N1C N8C 1_555 1_555
N1J N8J 1_555 1_555
N1G N8G 1_555 1_555
N1M N8M 1_555 1_555
N1K N8K 1_555 1_555
N2A C8A 1_555 1_555
N2B C8B 1_555 1_555
N2C C8C 1_555 1_555
N2J Cu2 1_555 1_555
N2G C8G 1_555 1_555
N2M C8M 1_555 1_555
N2K Cu2A 1_555 1_555
N2H Cu2B 1_555 1_555
N2I Cu2C 1_555 1_555
N3A N7A 1_555 1_555
N3B N7B 1_555 1_555
N3C N7C 1_555 1_555
N3J N7J 1_555 1_555
N3G N7G 1_555 1_555
N3M N7M 1_555 1_555
N3K N7K 1_555 1_555
N4A Cu1 1_555 1_555
N4B Cu1 1_555 1_555
N4C Cu1 1_555 1_555
N4J C9J 1_555 1_555
N4G C9G 1_555 1_555
N4M C9M 1_555 1_555
N4K Cu1H 1_555 1_555
N4H Cu1H 1_555 1_555
N4I Cu1H 1_555 1_555
N5A N10A 1_555 1_555
N5B N10B 1_555 1_555
N5C N10C 1_555 1_555
N5J N10J 1_555 1_555
N5G N10G 1_555 1_555
N5M N10M 1_555 1_555
N5K N10K 1_555 1_555
N6A C12A 1_555 1_555
N6B C12B 1_555 1_555
N6C C12C 1_555 1_555
N6J C12J 1_555 1_555
N6G Cu2 1_555 1_555
N6M Cu2 1_555 1_555
N6K C12K 1_555 1_555
N6D Cu2A 1_555 1_555
N6N Cu2A 1_555 1_555
N6E Cu2B 1_555 1_555
N6O Cu2B 1_555 1_555
N6F Cu2C 1_555 1_555
N6L Cu2C 1_555 1_555
N7A C14A 1_555 1_555
N7B C14B 1_555 1_555
N7C C14C 1_555 1_555
N7J C14J 1_555 1_555
N7G C14G 1_555 1_555
N7M C14M 1_555 1_555
N7K C14K 1_555 1_555
N8A C15A 1_555 1_555
N8B C15B 1_555 1_555
N8C C15C 1_555 1_555
N8J C15J 1_555 1_555
N8G C15G 1_555 1_555
N8M C15M 1_555 1_555
N8K C15K 1_555 1_555
N10A C17A 1_555 1_555
N10B C17B 1_555 1_555
N10C C17C 1_555 1_555
N10J C17J 1_555 1_555
N10G C17G 1_555 1_555
N10M C17M 1_555 1_555
N10K C17K 1_555 1_555
O1A Cu2A 1_555 1_555
O1B Cu2B 1_555 1_555
O1C Cu2C 1_555 1_555
O5A Cu2A 1_555 1_555
O5B Cu2B 1_555 1_555
O5C Cu2C 1_555 1_555
O7H Cu1H 1_555 1_555
C1A C2A 1_555 1_555
C1B C2B 1_555 1_555
C1C C2C 1_555 1_555
C1J C2J 1_555 1_555
C1G C2G 1_555 1_555
C1M C2M 1_555 1_555
C1K C2K 1_555 1_555
C2A C7A 1_555 1_555
C2B C7B 1_555 1_555
C2C C7C 1_555 1_555
C2J C7J 1_555 1_555
C2G C7G 1_555 1_555
C2M C7M 1_555 1_555
C2K C7K 1_555 1_555
C3A C1A 1_555 1_555
C3B C1B 1_555 1_555
C3C C1C 1_555 1_555
C3J C1J 1_555 1_555
C3G C1G 1_555 1_555
C3M C1M 1_555 1_555
C3K C1K 1_555 1_555
C4A N1A 1_555 1_555
C4B N1B 1_555 1_555
C4C N1C 1_555 1_555
C4J N1J 1_555 1_555
C4G N1G 1_555 1_555
C4M N1M 1_555 1_555
C4K N1K 1_555 1_555
H1A C4A 1_555 1_555
H1B C4B 1_555 1_555
H1C C4C 1_555 1_555
H1J C4J 1_555 1_555
H1G C4G 1_555 1_555
H1M C4M 1_555 1_555
H1K C4K 1_555 1_555
H2A C4A 1_555 1_555
H2B C4B 1_555 1_555
H2C C4C 1_555 1_555
H2J C4J 1_555 1_555
H2G C4G 1_555 1_555
H2M C4M 1_555 1_555
H2K C4K 1_555 1_555
C5A C6A 1_555 1_555
C5B C6B 1_555 1_555
C5C C6C 1_555 1_555
C5J C6J 1_555 1_555
C5G C6G 1_555 1_555
C5M C6M 1_555 1_555
C5K C6K 1_555 1_555
C6A C3A 1_555 1_555
C6B C3B 1_555 1_555
C6C C3C 1_555 1_555
C6J C3J 1_555 1_555
C6G C3G 1_555 1_555
C6M C3M 1_555 1_555
C6K C3K 1_555 1_555
C7A C5A 1_555 1_555
C7B C5B 1_555 1_555
C7C C5C 1_555 1_555
C7J C5J 1_555 1_555
C7G C5G 1_555 1_555
C7M C5M 1_555 1_555
C7K C5K 1_555 1_555
C8A N1A 1_555 1_555
C8B N1B 1_555 1_555
C8C N1C 1_555 1_555
C8J N1J 1_555 1_555
C8G N1G 1_555 1_555
C8M N1M 1_555 1_555
C8K N1K 1_555 1_555
H3A C8A 1_555 1_555
H3B C8B 1_555 1_555
H3C C8C 1_555 1_555
H3J C8J 1_555 1_555
H3G C8G 1_555 1_555
H3M C8M 1_555 1_555
H3K C8K 1_555 1_555
C9A N3A 1_555 1_555
C9B N3B 1_555 1_555
C9C N3C 1_555 1_555
C9J N3J 1_555 1_555
C9G N3G 1_555 1_555
C9M N3M 1_555 1_555
C9K N3K 1_555 1_555
H4A C9A 1_555 1_555
H4B C9B 1_555 1_555
H4C C9C 1_555 1_555
H4J C9J 1_555 1_555
H4G C9G 1_555 1_555
H4M C9M 1_555 1_555
H4K C9K 1_555 1_555
C10A C6A 1_555 1_555
C10B C6B 1_555 1_555
C10C C6C 1_555 1_555
C10J C6J 1_555 1_555
C10G C6G 1_555 1_555
C10M C6M 1_555 1_555
C10K C6K 1_555 1_555
H5A C10A 1_555 1_555
H5B C10B 1_555 1_555
H5C C10C 1_555 1_555
H5J C10J 1_555 1_555
H5G C10G 1_555 1_555
H5M C10M 1_555 1_555
H5K C10K 1_555 1_555
H6A C10A 1_555 1_555
H6B C10B 1_555 1_555
H6C C10C 1_555 1_555
H6J C10J 1_555 1_555
H6G C10G 1_555 1_555
H6M C10M 1_555 1_555
H6K C10K 1_555 1_555
H7A C10A 1_555 1_555
H7B C10B 1_555 1_555
H7C C10C 1_555 1_555
H7J C10J 1_555 1_555
H7G C10G 1_555 1_555
H7M C10M 1_555 1_555
H7K C10K 1_555 1_555
C11A N3A 1_555 1_555
C11B N3B 1_555 1_555
C11C N3C 1_555 1_555
C11J N3J 1_555 1_555
C11G N3G 1_555 1_555
C11M N3M 1_555 1_555
C11K N3K 1_555 1_555
H8A C11A 1_555 1_555
H8B C11B 1_555 1_555
H8C C11C 1_555 1_555
H8J C11J 1_555 1_555
H8G C11G 1_555 1_555
H8M C11M 1_555 1_555
H8K C11K 1_555 1_555
H9A C11A 1_555 1_555
H9B C11B 1_555 1_555
H9C C11C 1_555 1_555
H9J C11J 1_555 1_555
H9G C11G 1_555 1_555
H9M C11M 1_555 1_555
H9K C11K 1_555 1_555
C12A N5A 1_555 1_555
C12B N5B 1_555 1_555
C12C N5C 1_555 1_555
C12J N5J 1_555 1_555
C12G N5G 1_555 1_555
C12M N5M 1_555 1_555
C12K N5K 1_555 1_555
H10A C12A 1_555 1_555
H10B C12B 1_555 1_555
H10C C12C 1_555 1_555
H10J C12J 1_555 1_555
H10G C12G 1_555 1_555
H10M C12M 1_555 1_555
H10K C12K 1_555 1_555
C13A C1A 1_555 1_555
C13B C1B 1_555 1_555
C13C C1C 1_555 1_555
C13J C1J 1_555 1_555
C13G C1G 1_555 1_555
C13M C1M 1_555 1_555
C13K C1K 1_555 1_555
H11A C13A 1_555 1_555
H11B C13B 1_555 1_555
H11C C13C 1_555 1_555
H11J C13J 1_555 1_555
H11G C13G 1_555 1_555
H11M C13M 1_555 1_555
H11K C13K 1_555 1_555
H12A C13A 1_555 1_555
H12B C13B 1_555 1_555
H12C C13C 1_555 1_555
H12J C13J 1_555 1_555
H12G C13G 1_555 1_555
H12M C13M 1_555 1_555
H12K C13K 1_555 1_555
H13A C13A 1_555 1_555
H13B C13B 1_555 1_555
H13C C13C 1_555 1_555
H13J C13J 1_555 1_555
H13G C13G 1_555 1_555
H13M C13M 1_555 1_555
H13K C13K 1_555 1_555
C14A N4A 1_555 1_555
C14B N4B 1_555 1_555
C14C N4C 1_555 1_555
C14J N4J 1_555 1_555
C14G N4G 1_555 1_555
C14M N4M 1_555 1_555
C14K N4K 1_555 1_555
H14A C14A 1_555 1_555
H14B C14B 1_555 1_555
H14C C14C 1_555 1_555
H14J C14J 1_555 1_555
H14G C14G 1_555 1_555
H14M C14M 1_555 1_555
H14K C14K 1_555 1_555
C15A N2A 1_555 1_555
C15B N2B 1_555 1_555
C15C N2C 1_555 1_555
C15J N2J 1_555 1_555
C15G N2G 1_555 1_555
C15M N2M 1_555 1_555
C15K N2K 1_555 1_555
H15A C15A 1_555 1_555
H15B C15B 1_555 1_555
H15C C15C 1_555 1_555
H15J C15J 1_555 1_555
H15G C15G 1_555 1_555
H15M C15M 1_555 1_555
H15K C15K 1_555 1_555
C16A C7A 1_555 1_555
C16B C7B 1_555 1_555
C16C C7C 1_555 1_555
C16J C7J 1_555 1_555
C16G C7G 1_555 1_555
C16M C7M 1_555 1_555
C16K C7K 1_555 1_555
H16A C16A 1_555 1_555
H16B C16B 1_555 1_555
H16C C16C 1_555 1_555
H16J C16J 1_555 1_555
H16G C16G 1_555 1_555
H16M C16M 1_555 1_555
H16K C16K 1_555 1_555
H17A C16A 1_555 1_555
H17B C16B 1_555 1_555
H17C C16C 1_555 1_555
H17J C16J 1_555 1_555
H17G C16G 1_555 1_555
H17M C16M 1_555 1_555
H17K C16K 1_555 1_555
H18A C16A 1_555 1_555
H18B C16B 1_555 1_555
H18C C16C 1_555 1_555
H18J C16J 1_555 1_555
H18G C16G 1_555 1_555
H18M C16M 1_555 1_555
H18K C16K 1_555 1_555
C17A N6A 1_555 1_555
C17B N6B 1_555 1_555
C17C N6C 1_555 1_555
C17J N6J 1_555 1_555
C17G N6G 1_555 1_555
C17M N6M 1_555 1_555
C17K N6K 1_555 1_555
H19A C17A 1_555 1_555
H19B C17B 1_555 1_555
H19C C17C 1_555 1_555
H19J C17J 1_555 1_555
H19G C17G 1_555 1_555
H19M C17M 1_555 1_555
H19K C17K 1_555 1_555
C18A N5A 1_555 1_555
C18B N5B 1_555 1_555
C18C N5C 1_555 1_555
C18J N5J 1_555 1_555
C18G N5G 1_555 1_555
C18M N5M 1_555 1_555
C18K N5K 1_555 1_555
H20A C18A 1_555 1_555
H20B C18B 1_555 1_555
H20C C18C 1_555 1_555
H20J C18J 1_555 1_555
H20G C18G 1_555 1_555
H20M C18M 1_555 1_555
H20K C18K 1_555 1_555
H21A C18A 1_555 1_555
H21B C18B 1_555 1_555
H21C C18C 1_555 1_555
H21J C18J 1_555 1_555
H21G C18G 1_555 1_555
H21M C18M 1_555 1_555
H21K C18K 1_555 1_555
H22A O5A 1_555 1_555
H22B O5B 1_555 1_555
H22C O5C 1_555 1_555
H23H O7H 1_555 1_555
H24H O8 1_555 1_555
H25A O1A 1_555 1_555
H25B O1B 1_555 1_555
H25C O1C 1_555 1_555
C2 C11 1_555 1_555
C3 C4 1_555 1_555
C5 C18 1_555 1_555
N2J C8J 1_555 1_555
N2K C8K 1_555 1_555
N4A C9A 1_555 1_555
N4B C9B 1_555 1_555
N4C C9C 1_555 1_555
N4K C9K 1_555 1_555
N6G C12G 1_555 1_555
N6M C12M 1_555 1_555
C2A C11A 1_555 1_555
C2B C11B 1_555 1_555
C2C C11C 1_555 1_555
C2J C11J 1_555 1_555
C2G C11G 1_555 1_555
C2M C11M 1_555 1_555
C2K C11K 1_555 1_555
C3A C4A 1_555 1_555
C3B C4B 1_555 1_555
C3C C4C 1_555 1_555
C3J C4J 1_555 1_555
C3G C4G 1_555 1_555
C3M C4M 1_555 1_555
C3K C4K 1_555 1_555
C5A C18A 1_555 1_555
C5B C18B 1_555 1_555
C5C C18C 1_555 1_555
C5J C18J 1_555 1_555
C5G C18G 1_555 1_555
C5M C18M 1_555 1_555
C5K C18K 1_555 1_555

#END
