
#######################################################################
#
#                 Cambridge Crystallographic Data Centre
#                                CCDC 
#
#######################################################################
#
# If this CIF has been generated from an entry in the Cambridge 
# Structural Database, then it will include bibliographic, chemical, 
# crystal, experimental, refinement or atomic coordinate data resulting 
# from the CCDC's data processing and validation procedures.
#
#######################################################################

data_OQIRAI
_symmetry_cell_setting           tetragonal
_symmetry_space_group_name_H-M   'I 4/m'
_symmetry_Int_Tables_number      87
_space_group_name_Hall           '-I 4'
loop_
_symmetry_equiv_pos_site_id
_symmetry_equiv_pos_as_xyz
1 x,y,z
2 -y,x,z
3 -x,-y,z
4 y,-x,z
5 1/2+x,1/2+y,1/2+z
6 1/2-y,1/2+x,1/2+z
7 1/2-x,1/2-y,1/2+z
8 1/2+y,1/2-x,1/2+z
9 -x,-y,-z
10 y,-x,-z
11 x,y,-z
12 -y,x,-z
13 1/2-x,1/2-y,1/2-z
14 1/2+y,1/2-x,1/2-z
15 1/2+x,1/2+y,1/2-z
16 1/2-y,1/2+x,1/2-z
_cell_length_a                   23.178(3)
_cell_length_b                   23.178(3)
_cell_length_c                   20.105(4)
_cell_angle_alpha                90
_cell_angle_beta                 90
_cell_angle_gamma                90
_cell_volume                     10800.8
loop_
_atom_site_label
_atom_site_type_symbol
_atom_site_fract_x
_atom_site_fract_y
_atom_site_fract_z
I1 I 0.0000 1.0000 0.676244(3)
I4 I 0.0000 1.0000 1.0000
Cu1 Cu -0.018630(3) 0.757966(4) 0.5000
Cu2 Cu 0.0000 1.0000 0.840206(5)
N1 N 0.034716(15) 0.731221(19) 0.570308(18)
N2 N 0.11149(2) 0.72857(3) 0.63328(2)
N3 N 0.072109(17) 0.693174(19) 0.657387(17)
N4 N 0.056933(10) 0.935471(10) 0.841738(12)
N5 N 0.132849(12) 0.879081(12) 0.816952(13)
N6 N 0.099447(11) 0.855355(11) 0.866128(13)
N7 N 0.292461(11) 0.638793(13) 0.852886(14)
N8 N 0.346090(16) 0.61685(2) 0.85791(2)
N9 N 0.287001(12) 0.573005(12) 0.930081(14)
C1 C 0.088307(19) 0.75317(3) 0.58102(3)
H1 H 0.1059 0.7814 0.5551
C2 C 0.025707(16) 0.697816(17) 0.62234(2)
H2 H -0.0092 0.6801 0.6324
C3 C 0.07942(2) 0.65438(2) 0.72092(2)
H3 H 0.0427 0.6490 0.7432
H4 H 0.0948 0.6169 0.7091
C4 C 0.121314(17) 0.686768(15) 0.765412(18)
C5 C 0.100109(14) 0.728742(14) 0.806491(17)
C6 C 0.037723(17) 0.74651(2) 0.80469(2)
H5 H 0.0179 0.7301 0.8421
H6 H 0.0204 0.7329 0.7643
H7 H 0.0351 0.7878 0.8065
C7 C 0.138676(15) 0.756316(14) 0.850013(16)
C8 C 0.115118(16) 0.801374(15) 0.900075(16)
H8 H 0.0814 0.7858 0.9224
H9 H 0.1442 0.8093 0.9335
C9 C 0.105666(13) 0.926133(13) 0.804091(16)
H10 H 0.1180 0.9520 0.7717
C10 C 0.055512(13) 0.889542(12) 0.880683(17)
H11 H 0.0279 0.8824 0.9132
C11 C 0.196524(14) 0.742837(13) 0.850234(15)
C12 C 0.238460(18) 0.77269(2) 0.90037(2)
H12 H 0.2378 0.8137 0.8934
H13 H 0.2769 0.7585 0.8935
H14 H 0.2265 0.7643 0.9450
C13 C 0.216999(14) 0.701177(13) 0.806975(15)
C14 C 0.281449(14) 0.685522(14) 0.807248(18)
H15 H 0.2933 0.6743 0.7628
H16 H 0.3039 0.7190 0.8202
C15 C 0.258451(14) 0.613079(14) 0.896946(19)
H17 H 0.2198 0.6221 0.9036
C16 C 0.342468(15) 0.57892(2) 0.90510(2)
H18 H 0.3738 0.5578 0.9206
C17 C 0.180015(16) 0.670560(14) 0.765033(15)
C18 C 0.20253(2) 0.621262(19) 0.72222(3)
H19 H 0.2398 0.6312 0.7049
H20 H 0.1763 0.6145 0.6861
H21 H 0.2056 0.5870 0.7487
I1H I 0.0000 1.0000 1.323756(3)
Cu1A Cu 0.242034(4) 0.981370(3) 0.5000
Cu1B Cu 0.018630(3) 1.242034(4) 0.5000
Cu1C Cu -0.242034(4) 1.018630(3) 0.5000
Cu1G Cu 0.257966(4) 0.518630(3) 1.0000
Cu1D Cu 0.481370(3) 1.257966(4) 1.0000
Cu1E Cu -0.257966(4) 1.481370(3) 1.0000
Cu1F Cu -0.481370(3) 0.742034(4) 1.0000
Cu1G_2 Cu 0.257966(4) 0.518630(3) 0.0000
Cu1E_2 Cu -0.257966(4) 0.481370(3) 0.0000
Cu1E_3 Cu -0.257966(4) 0.481370(3) 1.0000
Cu1B_2 Cu 0.018630(3) 1.242034(4) 1.5000
Cu2H Cu 0.0000 1.0000 1.159794(5)
Cu2H_2 Cu 0.0000 1.0000 0.159794(5)
Cu2D Cu -0.5000 0.5000 0.340206(5)
Cu2L Cu -0.5000 0.5000 0.659794(5)
N1A N 0.268779(19) 1.034716(15) 0.570308(18)
N1B N -0.034716(15) 1.268779(19) 0.570308(18)
N1C N -0.268779(19) 0.965284(15) 0.570308(18)
N1J N 0.034716(15) 0.731221(19) 0.429692(18)
N1E N -0.231221(19) 0.534716(15) 0.070308(18)
N1O N -0.231221(19) 0.534716(15) 0.929692(18)
N1H N -0.034716(15) 1.268779(19) 1.429692(18)
N1K N 0.268779(19) 1.034716(15) 0.429692(18)
N1H_2 N -0.034716(15) 1.268779(19) 0.429692(18)
N1I N -0.268779(19) 0.965284(15) 0.429692(18)
N2A N 0.27143(3) 1.11149(2) 0.63328(2)
N2B N -0.11149(2) 1.27143(3) 0.63328(2)
N2C N -0.27143(3) 0.88851(2) 0.63328(2)
N2J N 0.11149(2) 0.72857(3) 0.36672(2)
N2E N -0.22857(3) 0.61149(2) 0.13328(2)
N2O N -0.22857(3) 0.61149(2) 0.86672(2)
N2H N -0.11149(2) 1.27143(3) 1.36672(2)
N3A N 0.306826(19) 1.072109(17) 0.657387(17)
N3B N -0.072109(17) 1.306826(19) 0.657387(17)
N3C N -0.306826(19) 0.927891(17) 0.657387(17)
N3J N 0.072109(17) 0.693174(19) 0.342613(17)
N3E N -0.193174(19) 0.572109(17) 0.157387(17)
N3O N -0.193174(19) 0.572109(17) 0.842613(17)
N3H N -0.072109(17) 1.306826(19) 1.342613(17)
N4A N 0.064529(10) 1.056933(10) 0.841738(12)
N4B N -0.056933(10) 1.064529(10) 0.841738(12)
N4C N -0.064529(10) 0.943067(10) 0.841738(12)
N4J N 0.056933(10) 0.935471(10) 0.158262(12)
N4E N -0.435471(10) 0.556933(10) 0.341738(12)
N4O N -0.435471(10) 0.556933(10) 0.658262(12)
N4H N -0.056933(10) 1.064529(10) 1.158262(12)
N4I N -0.064529(10) 0.943067(10) 1.158262(12)
N4J_2 N 0.056933(10) 0.935471(10) 1.158262(12)
N4K N 0.064529(10) 1.056933(10) 1.158262(12)
N5A N 0.120919(12) 1.132849(12) 0.816952(13)
N5B N -0.132849(12) 1.120919(12) 0.816952(13)
N5C N -0.120919(12) 0.867151(12) 0.816952(13)
N5J N 0.132849(12) 0.879081(12) 0.183048(13)
N5E N -0.379081(12) 0.632849(12) 0.316952(13)
N5O N -0.379081(12) 0.632849(12) 0.683048(13)
N5H N -0.132849(12) 1.120919(12) 1.183048(13)
N6A N 0.144645(11) 1.099447(11) 0.866128(13)
N6B N -0.099447(11) 1.144645(11) 0.866128(13)
N6C N -0.144645(11) 0.900553(11) 0.866128(13)
N6J N 0.099447(11) 0.855355(11) 0.133872(13)
N6E N -0.355355(11) 0.599447(11) 0.366128(13)
N6O N -0.355355(11) 0.599447(11) 0.633872(13)
N6H N -0.099447(11) 1.144645(11) 1.133872(13)
N7A N 0.361207(13) 1.292461(11) 0.852886(14)
N7B N -0.292461(11) 1.361207(13) 0.852886(14)
N7C N -0.361207(13) 0.707539(11) 0.852886(14)
N7J N 0.292461(11) 0.638793(13) 0.147114(14)
N7E N -0.138793(13) 0.792461(11) 0.352886(14)
N7O N -0.138793(13) 0.792461(11) 0.647114(14)
N7H N -0.292461(11) 1.361207(13) 1.147114(14)
N8A N 0.38315(2) 1.346090(16) 0.85791(2)
N8B N -0.346090(16) 1.38315(2) 0.85791(2)
N8C N -0.38315(2) 0.653910(16) 0.85791(2)
N8J N 0.346090(16) 0.61685(2) 0.14209(2)
N8E N -0.11685(2) 0.846090(16) 0.35791(2)
N8O N -0.11685(2) 0.846090(16) 0.64209(2)
N8H N -0.346090(16) 1.38315(2) 1.14209(2)
N9A N 0.426995(12) 1.287001(12) 0.930081(14)
N9B N -0.287001(12) 1.426995(12) 0.930081(14)
N9C N -0.426995(12) 0.712999(12) 0.930081(14)
N9J N 0.287001(12) 0.573005(12) 0.069919(14)
N9E N -0.073005(12) 0.787001(12) 0.430081(14)
N9O N -0.073005(12) 0.787001(12) 0.569919(14)
N9H N -0.287001(12) 1.426995(12) 1.069919(14)
N9F N 0.212999(12) 0.926995(12) 0.430081(14)
N9L N 0.212999(12) 0.926995(12) 0.569919(14)
N9G N 0.073005(12) 1.212999(12) 0.430081(14)
N9M N 0.073005(12) 1.212999(12) 0.569919(14)
N9D N -0.212999(12) 1.073005(12) 0.430081(14)
N9N N -0.212999(12) 1.073005(12) 0.569919(14)
C1A C 0.24683(3) 1.088307(19) 0.58102(3)
C1B C -0.088307(19) 1.24683(3) 0.58102(3)
C1C C -0.24683(3) 0.911693(19) 0.58102(3)
C1J C 0.088307(19) 0.75317(3) 0.41898(3)
C1E C -0.25317(3) 0.588307(19) 0.08102(3)
C1O C -0.25317(3) 0.588307(19) 0.91898(3)
C1H C -0.088307(19) 1.24683(3) 1.41898(3)
H1A H 0.2186 1.1059 0.5551
H1B H -0.1059 1.2186 0.5551
H1C H -0.2186 0.8941 0.5551
H1J H 0.1059 0.7814 0.4449
H1E H -0.2814 0.6059 0.0551
H1O H -0.2814 0.6059 0.9449
H1H H -0.1059 1.2186 1.4449
C2A C 0.302184(17) 1.025707(16) 0.62234(2)
C2B C -0.025707(16) 1.302184(17) 0.62234(2)
C2C C -0.302184(17) 0.974293(16) 0.62234(2)
C2J C 0.025707(16) 0.697816(17) 0.37766(2)
C2E C -0.197816(17) 0.525707(16) 0.12234(2)
C2O C -0.197816(17) 0.525707(16) 0.87766(2)
C2H C -0.025707(16) 1.302184(17) 1.37766(2)
H2A H 0.3199 0.9908 0.6324
H2B H 0.0092 1.3199 0.6324
H2C H -0.3199 1.0092 0.6324
H2J H -0.0092 0.6801 0.3676
H2E H -0.1801 0.4908 0.1324
H2O H -0.1801 0.4908 0.8676
H2H H 0.0092 1.3199 1.3676
C3A C 0.34562(2) 1.07942(2) 0.72092(2)
C3B C -0.07942(2) 1.34562(2) 0.72092(2)
C3C C -0.34562(2) 0.92058(2) 0.72092(2)
C3J C 0.07942(2) 0.65438(2) 0.27908(2)
C3E C -0.15438(2) 0.57942(2) 0.22092(2)
C3O C -0.15438(2) 0.57942(2) 0.77908(2)
C3H C -0.07942(2) 1.34562(2) 1.27908(2)
H3A H 0.3510 1.0427 0.7432
H3B H -0.0427 1.3510 0.7432
H3C H -0.3510 0.9573 0.7432
H3J H 0.0427 0.6490 0.2568
H3E H -0.1490 0.5427 0.2432
H3O H -0.1490 0.5427 0.7568
H3H H -0.0427 1.3510 1.2568
H4A H 0.3831 1.0948 0.7091
H4B H -0.0948 1.3831 0.7091
H4C H -0.3831 0.9052 0.7091
H4J H 0.0948 0.6169 0.2909
H4E H -0.1169 0.5948 0.2091
H4O H -0.1169 0.5948 0.7909
H4H H -0.0948 1.3831 1.2909
C4A C 0.313232(15) 1.121314(17) 0.765412(18)
C4B C -0.121314(17) 1.313232(15) 0.765412(18)
C4C C -0.313232(15) 0.878686(17) 0.765412(18)
C4J C 0.121314(17) 0.686768(15) 0.234588(18)
C4E C -0.186768(15) 0.621314(17) 0.265412(18)
C4O C -0.186768(15) 0.621314(17) 0.734588(18)
C4H C -0.121314(17) 1.313232(15) 1.234588(18)
C5A C 0.271258(14) 1.100109(14) 0.806491(17)
C5B C -0.100109(14) 1.271258(14) 0.806491(17)
C5C C -0.271258(14) 0.899891(14) 0.806491(17)
C5J C 0.100109(14) 0.728742(14) 0.193509(17)
C5E C -0.228742(14) 0.600109(14) 0.306491(17)
C5O C -0.228742(14) 0.600109(14) 0.693509(17)
C5H C -0.100109(14) 1.271258(14) 1.193509(17)
C6A C 0.25349(2) 1.037723(17) 0.80469(2)
C6B C -0.037723(17) 1.25349(2) 0.80469(2)
C6C C -0.25349(2) 0.962277(17) 0.80469(2)
C6J C 0.037723(17) 0.74651(2) 0.19531(2)
C6E C -0.24651(2) 0.537723(17) 0.30469(2)
C6O C -0.24651(2) 0.537723(17) 0.69531(2)
C6H C -0.037723(17) 1.25349(2) 1.19531(2)
H5A H 0.2699 1.0179 0.8421
H5B H -0.0179 1.2699 0.8421
H5C H -0.2699 0.9821 0.8421
H5J H 0.0179 0.7301 0.1579
H5E H -0.2301 0.5179 0.3421
H5O H -0.2301 0.5179 0.6579
H5H H -0.0179 1.2699 1.1579
H6A H 0.2671 1.0204 0.7643
H6B H -0.0204 1.2671 0.7643
H6C H -0.2671 0.9796 0.7643
H6J H 0.0204 0.7329 0.2357
H6E H -0.2329 0.5204 0.2643
H6O H -0.2329 0.5204 0.7357
H6H H -0.0204 1.2671 1.2357
H7A H 0.2122 1.0351 0.8065
H7B H -0.0351 1.2122 0.8065
H7C H -0.2122 0.9649 0.8065
H7J H 0.0351 0.7878 0.1935
H7E H -0.2878 0.5351 0.3065
H7O H -0.2878 0.5351 0.6935
H7H H -0.0351 1.2122 1.1935
C7A C 0.243684(14) 1.138676(15) 0.850013(16)
C7B C -0.138676(15) 1.243684(14) 0.850013(16)
C7C C -0.243684(14) 0.861324(15) 0.850013(16)
C7J C 0.138676(15) 0.756316(14) 0.149987(16)
C7E C -0.256316(14) 0.638676(15) 0.350013(16)
C7O C -0.256316(14) 0.638676(15) 0.649987(16)
C7H C -0.138676(15) 1.243684(14) 1.149987(16)
C8A C 0.198626(15) 1.115118(16) 0.900075(16)
C8B C -0.115118(16) 1.198626(15) 0.900075(16)
C8C C -0.198626(15) 0.884882(16) 0.900075(16)
C8J C 0.115118(16) 0.801374(15) 0.099925(16)
C8E C -0.301374(15) 0.615118(16) 0.400075(16)
C8O C -0.301374(15) 0.615118(16) 0.599925(16)
C8H C -0.115118(16) 1.198626(15) 1.099925(16)
H8A H 0.2142 1.0814 0.9224
H8B H -0.0814 1.2142 0.9224
H8C H -0.2142 0.9186 0.9224
H8J H 0.0814 0.7858 0.0776
H8E H -0.2858 0.5814 0.4224
H8O H -0.2858 0.5814 0.5776
H8H H -0.0814 1.2142 1.0776
H9A H 0.1907 1.1442 0.9335
H9B H -0.1442 1.1907 0.9335
H9C H -0.1907 0.8558 0.9335
H9J H 0.1442 0.8093 0.0665
H9E H -0.3093 0.6442 0.4335
H9O H -0.3093 0.6442 0.5665
H9H H -0.1442 1.1907 1.0665
C9A C 0.073867(13) 1.105666(13) 0.804091(16)
C9B C -0.105666(13) 1.073867(13) 0.804091(16)
C9C C -0.073867(13) 0.894334(13) 0.804091(16)
C9J C 0.105666(13) 0.926133(13) 0.195909(16)
C9E C -0.426133(13) 0.605666(13) 0.304091(16)
C9O C -0.426133(13) 0.605666(13) 0.695909(16)
C9H C -0.105666(13) 1.073867(13) 1.195909(16)
H10A H 0.0480 1.1180 0.7717
H10B H -0.1180 1.0480 0.7717
H10C H -0.0480 0.8820 0.7717
H10J H 0.1180 0.9520 0.2283
H10E H -0.4520 0.6180 0.2717
H10O H -0.4520 0.6180 0.7283
H10H H -0.1180 1.0480 1.2283
C10A C 0.110458(12) 1.055512(13) 0.880683(17)
C10B C -0.055512(13) 1.110458(12) 0.880683(17)
C10C C -0.110458(12) 0.944488(13) 0.880683(17)
C10J C 0.055512(13) 0.889542(12) 0.119317(17)
C10E C -0.389542(12) 0.555512(13) 0.380683(17)
C10O C -0.389542(12) 0.555512(13) 0.619317(17)
C10H C -0.055512(13) 1.110458(12) 1.119317(17)
H11A H 0.1176 1.0279 0.9132
H11B H -0.0279 1.1176 0.9132
H11C H -0.1176 0.9721 0.9132
H11J H 0.0279 0.8824 0.0868
H11E H -0.3824 0.5279 0.4132
H11O H -0.3824 0.5279 0.5868
H11H H -0.0279 1.1176 1.0868
C11A C 0.257163(13) 1.196524(14) 0.850234(15)
C11B C -0.196524(14) 1.257163(13) 0.850234(15)
C11C C -0.257163(13) 0.803476(14) 0.850234(15)
C11J C 0.196524(14) 0.742837(13) 0.149766(15)
C11E C -0.242837(13) 0.696524(14) 0.350234(15)
C11O C -0.242837(13) 0.696524(14) 0.649766(15)
C11H C -0.196524(14) 1.257163(13) 1.149766(15)
C12A C 0.22731(2) 1.238460(18) 0.90037(2)
C12B C -0.238460(18) 1.22731(2) 0.90037(2)
C12C C -0.22731(2) 0.761540(18) 0.90037(2)
C12J C 0.238460(18) 0.77269(2) 0.09963(2)
C12E C -0.27269(2) 0.738460(18) 0.40037(2)
C12O C -0.27269(2) 0.738460(18) 0.59963(2)
C12H C -0.238460(18) 1.22731(2) 1.09963(2)
H12A H 0.1863 1.2378 0.8934
H12B H -0.2378 1.1863 0.8934
H12C H -0.1863 0.7622 0.8934
H12J H 0.2378 0.8137 0.1066
H12E H -0.3137 0.7378 0.3934
H12O H -0.3137 0.7378 0.6066
H12H H -0.2378 1.1863 1.1066
H13A H 0.2415 1.2769 0.8935
H13B H -0.2769 1.2415 0.8935
H13C H -0.2415 0.7231 0.8935
H13J H 0.2769 0.7585 0.1065
H13E H -0.2585 0.7769 0.3935
H13O H -0.2585 0.7769 0.6065
H13H H -0.2769 1.2415 1.1065
H14A H 0.2357 1.2265 0.9450
H14B H -0.2265 1.2357 0.9450
H14C H -0.2357 0.7735 0.9450
H14J H 0.2265 0.7643 0.0550
H14E H -0.2643 0.7265 0.4450
H14O H -0.2643 0.7265 0.5550
H14H H -0.2265 1.2357 1.0550
C13A C 0.298823(13) 1.216999(14) 0.806975(15)
C13B C -0.216999(14) 1.298823(13) 0.806975(15)
C13C C -0.298823(13) 0.783001(14) 0.806975(15)
C13J C 0.216999(14) 0.701177(13) 0.193025(15)
C13E C -0.201177(13) 0.716999(14) 0.306975(15)
C13O C -0.201177(13) 0.716999(14) 0.693025(15)
C13H C -0.216999(14) 1.298823(13) 1.193025(15)
C14A C 0.314478(14) 1.281449(14) 0.807248(18)
C14B C -0.281449(14) 1.314478(14) 0.807248(18)
C14C C -0.314478(14) 0.718551(14) 0.807248(18)
C14J C 0.281449(14) 0.685522(14) 0.192752(18)
C14E C -0.185522(14) 0.781449(14) 0.307248(18)
C14O C -0.185522(14) 0.781449(14) 0.692752(18)
C14H C -0.281449(14) 1.314478(14) 1.192752(18)
H15A H 0.3257 1.2933 0.7628
H15B H -0.2933 1.3257 0.7628
H15C H -0.3257 0.7067 0.7628
H15J H 0.2933 0.6743 0.2372
H15E H -0.1743 0.7933 0.2628
H15O H -0.1743 0.7933 0.7372
H15H H -0.2933 1.3257 1.2372
H16A H 0.2810 1.3039 0.8202
H16B H -0.3039 1.2810 0.8202
H16C H -0.2810 0.6961 0.8202
H16J H 0.3039 0.7190 0.1798
H16E H -0.2190 0.8039 0.3202
H16O H -0.2190 0.8039 0.6798
H16H H -0.3039 1.2810 1.1798
C15A C 0.386921(14) 1.258451(14) 0.896946(19)
C15B C -0.258451(14) 1.386921(14) 0.896946(19)
C15C C -0.386921(14) 0.741549(14) 0.896946(19)
C15J C 0.258451(14) 0.613079(14) 0.103054(19)
C15E C -0.113079(14) 0.758451(14) 0.396946(19)
C15O C -0.113079(14) 0.758451(14) 0.603054(19)
C15H C -0.258451(14) 1.386921(14) 1.103054(19)
H17A H 0.3779 1.2198 0.9036
H17B H -0.2198 1.3779 0.9036
H17C H -0.3779 0.7802 0.9036
H17J H 0.2198 0.6221 0.0964
H17E H -0.1221 0.7198 0.4036
H17O H -0.1221 0.7198 0.5964
H17H H -0.2198 1.3779 1.0964
C16A C 0.42108(2) 1.342468(15) 0.90510(2)
C16B C -0.342468(15) 1.42108(2) 0.90510(2)
C16C C -0.42108(2) 0.657532(15) 0.90510(2)
C16J C 0.342468(15) 0.57892(2) 0.09490(2)
C16E C -0.07892(2) 0.842468(15) 0.40510(2)
C16O C -0.07892(2) 0.842468(15) 0.59490(2)
C16H C -0.342468(15) 1.42108(2) 1.09490(2)
H18A H 0.4422 1.3738 0.9206
H18B H -0.3738 1.4422 0.9206
H18C H -0.4422 0.6262 0.9206
H18J H 0.3738 0.5578 0.0794
H18E H -0.0578 0.8738 0.4206
H18O H -0.0578 0.8738 0.5794
H18H H -0.3738 1.4422 1.0794
C17A C 0.329440(14) 1.180015(16) 0.765033(15)
C17B C -0.180015(16) 1.329440(14) 0.765033(15)
C17C C -0.329440(14) 0.819985(16) 0.765033(15)
C17J C 0.180015(16) 0.670560(14) 0.234967(15)
C17E C -0.170560(14) 0.680015(16) 0.265033(15)
C17O C -0.170560(14) 0.680015(16) 0.734967(15)
C17H C -0.180015(16) 1.329440(14) 1.234967(15)
C18A C 0.378738(19) 1.20253(2) 0.72222(3)
C18B C -0.20253(2) 1.378738(19) 0.72222(3)
C18C C -0.378738(19) 0.79747(2) 0.72222(3)
C18J C 0.20253(2) 0.621262(19) 0.27778(3)
C18E C -0.121262(19) 0.70253(2) 0.22222(3)
C18O C -0.121262(19) 0.70253(2) 0.77778(3)
C18H C -0.20253(2) 1.378738(19) 1.27778(3)
H19A H 0.3688 1.2398 0.7049
H19B H -0.2398 1.3688 0.7049
H19C H -0.3688 0.7602 0.7049
H19J H 0.2398 0.6312 0.2951
H19E H -0.1312 0.7398 0.2049
H19O H -0.1312 0.7398 0.7951
H19H H -0.2398 1.3688 1.2951
H20A H 0.3855 1.1763 0.6861
H20B H -0.1763 1.3855 0.6861
H20C H -0.3855 0.8237 0.6861
H20J H 0.1763 0.6145 0.3139
H20E H -0.1145 0.6763 0.1861
H20O H -0.1145 0.6763 0.8139
H20H H -0.1763 1.3855 1.3139
H21A H 0.4130 1.2056 0.7487
H21B H -0.2056 1.4130 0.7487
H21C H -0.4130 0.7944 0.7487
H21J H 0.2056 0.5870 0.2513
H21E H -0.0870 0.7056 0.2487
H21O H -0.0870 0.7056 0.7513
H21H H -0.2056 1.4130 1.2513
I2 I 0.192081(3) 0.943098(2) 1.0000
I5 I -0.176155(9) 0.586257(16) 0.5000
O1 O 0.04302(3) 0.88249(5) 0.5000
I3? I 0.36389(2) 0.88821(3) 1.0000
O2? O 0.069308(18) 0.84467(2) 0.525499(19)
I6? I 0.30183(2) 0.92707(3) 1.0000
I7? I -0.148417(13) 0.619692(10) 0.5000
I8? I -0.100526(11) 0.633606(6) 0.5000
loop_
_geom_bond_atom_site_label_1
_geom_bond_atom_site_label_2
_geom_bond_site_symmetry_1
_geom_bond_site_symmetry_2
I1 Cu2 1_555 1_555
I4 Cu2 1_555 1_555
Cu1 N1 1_555 1_555
Cu2 N4 1_555 1_555
N1 C1 1_555 1_555
N2 N3 1_555 1_555
N3 C2 1_555 1_555
N4 C9 1_555 1_555
N5 N6 1_555 1_555
N6 C8 1_555 1_555
N7 N8 1_555 1_555
N8 C16 1_555 1_555
N9 C15 1_555 1_555
C1 N2 1_555 1_555
H1 C1 1_555 1_555
C2 N1 1_555 1_555
H2 C2 1_555 1_555
C3 N3 1_555 1_555
H3 C3 1_555 1_555
H4 C3 1_555 1_555
C4 C3 1_555 1_555
C5 C4 1_555 1_555
C6 C5 1_555 1_555
H5 C6 1_555 1_555
H6 C6 1_555 1_555
H7 C6 1_555 1_555
C7 C5 1_555 1_555
C8 C7 1_555 1_555
H8 C8 1_555 1_555
H9 C8 1_555 1_555
C9 N5 1_555 1_555
H10 C9 1_555 1_555
C10 N4 1_555 1_555
H11 C10 1_555 1_555
C11 C7 1_555 1_555
C12 C11 1_555 1_555
H12 C12 1_555 1_555
H13 C12 1_555 1_555
H14 C12 1_555 1_555
C13 C11 1_555 1_555
C14 N7 1_555 1_555
H15 C14 1_555 1_555
H16 C14 1_555 1_555
C15 N7 1_555 1_555
H17 C15 1_555 1_555
C16 N9 1_555 1_555
H18 C16 1_555 1_555
C17 C4 1_555 1_555
C18 C17 1_555 1_555
H19 C18 1_555 1_555
H20 C18 1_555 1_555
H21 C18 1_555 1_555
I1H Cu2H 1_555 1_555
Cu1A N1A 1_555 1_555
Cu1B N1B 1_555 1_555
Cu1C N1C 1_555 1_555
Cu1G N9 1_555 1_555
Cu1D N9A 1_555 1_555
Cu1E N9B 1_555 1_555
Cu1F N9C 1_555 1_555
Cu1G_2 N9J 1_555 1_555
Cu1E_2 N1E 1_555 1_555
Cu1E_3 N1O 1_555 1_555
Cu1B_2 N1H 1_555 1_555
Cu2H I4 1_555 1_555
Cu2H_2 N4J 1_555 1_555
Cu2D N4E 1_555 1_555
Cu2L N4O 1_555 1_555
N1A C1A 1_555 1_555
N1B C1B 1_555 1_555
N1C C1C 1_555 1_555
N1J Cu1 1_555 1_555
N1E C1E 1_555 1_555
N1O C1O 1_555 1_555
N1H C1H 1_555 1_555
N1K Cu1A 1_555 1_555
N1H_2 Cu1B 1_555 1_555
N1I Cu1C 1_555 1_555
N2A N3A 1_555 1_555
N2B N3B 1_555 1_555
N2C N3C 1_555 1_555
N2J N3J 1_555 1_555
N2E N3E 1_555 1_555
N2O N3O 1_555 1_555
N2H N3H 1_555 1_555
N3A C2A 1_555 1_555
N3B C2B 1_555 1_555
N3C C2C 1_555 1_555
N3J C2J 1_555 1_555
N3E C2E 1_555 1_555
N3O C2O 1_555 1_555
N3H C2H 1_555 1_555
N4A Cu2 1_555 1_555
N4B Cu2 1_555 1_555
N4C Cu2 1_555 1_555
N4J C9J 1_555 1_555
N4E C9E 1_555 1_555
N4O C9O 1_555 1_555
N4H Cu2H 1_555 1_555
N4I Cu2H 1_555 1_555
N4J_2 Cu2H 1_555 1_555
N4K Cu2H 1_555 1_555
N5A N6A 1_555 1_555
N5B N6B 1_555 1_555
N5C N6C 1_555 1_555
N5J N6J 1_555 1_555
N5E N6E 1_555 1_555
N5O N6O 1_555 1_555
N5H N6H 1_555 1_555
N6A C8A 1_555 1_555
N6B C8B 1_555 1_555
N6C C8C 1_555 1_555
N6J C8J 1_555 1_555
N6E C8E 1_555 1_555
N6O C8O 1_555 1_555
N6H C8H 1_555 1_555
N7A N8A 1_555 1_555
N7B N8B 1_555 1_555
N7C N8C 1_555 1_555
N7J N8J 1_555 1_555
N7E N8E 1_555 1_555
N7O N8O 1_555 1_555
N7H N8H 1_555 1_555
N8A C16A 1_555 1_555
N8B C16B 1_555 1_555
N8C C16C 1_555 1_555
N8J C16J 1_555 1_555
N8E C16E 1_555 1_555
N8O C16O 1_555 1_555
N8H C16H 1_555 1_555
N9A C15A 1_555 1_555
N9B C15B 1_555 1_555
N9C C15C 1_555 1_555
N9J C15J 1_555 1_555
N9E Cu1 1_555 1_555
N9O Cu1 1_555 1_555
N9H Cu1E 1_555 1_555
N9F Cu1A 1_555 1_555
N9L Cu1A 1_555 1_555
N9G Cu1B 1_555 1_555
N9M Cu1B 1_555 1_555
N9D Cu1C 1_555 1_555
N9N Cu1C 1_555 1_555
C1A N2A 1_555 1_555
C1B N2B 1_555 1_555
C1C N2C 1_555 1_555
C1J N1J 1_555 1_555
C1E N2E 1_555 1_555
C1O N2O 1_555 1_555
C1H N2H 1_555 1_555
H1A C1A 1_555 1_555
H1B C1B 1_555 1_555
H1C C1C 1_555 1_555
H1J C1J 1_555 1_555
H1E C1E 1_555 1_555
H1O C1O 1_555 1_555
H1H C1H 1_555 1_555
C2A N1A 1_555 1_555
C2B N1B 1_555 1_555
C2C N1C 1_555 1_555
C2J N1J 1_555 1_555
C2E N1E 1_555 1_555
C2O N1O 1_555 1_555
C2H N1H 1_555 1_555
H2A C2A 1_555 1_555
H2B C2B 1_555 1_555
H2C C2C 1_555 1_555
H2J C2J 1_555 1_555
H2E C2E 1_555 1_555
H2O C2O 1_555 1_555
H2H C2H 1_555 1_555
C3A N3A 1_555 1_555
C3B N3B 1_555 1_555
C3C N3C 1_555 1_555
C3J N3J 1_555 1_555
C3E N3E 1_555 1_555
C3O N3O 1_555 1_555
C3H N3H 1_555 1_555
H3A C3A 1_555 1_555
H3B C3B 1_555 1_555
H3C C3C 1_555 1_555
H3J C3J 1_555 1_555
H3E C3E 1_555 1_555
H3O C3O 1_555 1_555
H3H C3H 1_555 1_555
H4A C3A 1_555 1_555
H4B C3B 1_555 1_555
H4C C3C 1_555 1_555
H4J C3J 1_555 1_555
H4E C3E 1_555 1_555
H4O C3O 1_555 1_555
H4H C3H 1_555 1_555
C4A C3A 1_555 1_555
C4B C3B 1_555 1_555
C4C C3C 1_555 1_555
C4J C3J 1_555 1_555
C4E C3E 1_555 1_555
C4O C3O 1_555 1_555
C4H C3H 1_555 1_555
C5A C4A 1_555 1_555
C5B C4B 1_555 1_555
C5C C4C 1_555 1_555
C5J C4J 1_555 1_555
C5E C4E 1_555 1_555
C5O C4O 1_555 1_555
C5H C4H 1_555 1_555
C6A C5A 1_555 1_555
C6B C5B 1_555 1_555
C6C C5C 1_555 1_555
C6J C5J 1_555 1_555
C6E C5E 1_555 1_555
C6O C5O 1_555 1_555
C6H C5H 1_555 1_555
H5A C6A 1_555 1_555
H5B C6B 1_555 1_555
H5C C6C 1_555 1_555
H5J C6J 1_555 1_555
H5E C6E 1_555 1_555
H5O C6O 1_555 1_555
H5H C6H 1_555 1_555
H6A C6A 1_555 1_555
H6B C6B 1_555 1_555
H6C C6C 1_555 1_555
H6J C6J 1_555 1_555
H6E C6E 1_555 1_555
H6O C6O 1_555 1_555
H6H C6H 1_555 1_555
H7A C6A 1_555 1_555
H7B C6B 1_555 1_555
H7C C6C 1_555 1_555
H7J C6J 1_555 1_555
H7E C6E 1_555 1_555
H7O C6O 1_555 1_555
H7H C6H 1_555 1_555
C7A C5A 1_555 1_555
C7B C5B 1_555 1_555
C7C C5C 1_555 1_555
C7J C5J 1_555 1_555
C7E C5E 1_555 1_555
C7O C5O 1_555 1_555
C7H C5H 1_555 1_555
C8A C7A 1_555 1_555
C8B C7B 1_555 1_555
C8C C7C 1_555 1_555
C8J C7J 1_555 1_555
C8E C7E 1_555 1_555
C8O C7O 1_555 1_555
C8H C7H 1_555 1_555
H8A C8A 1_555 1_555
H8B C8B 1_555 1_555
H8C C8C 1_555 1_555
H8J C8J 1_555 1_555
H8E C8E 1_555 1_555
H8O C8O 1_555 1_555
H8H C8H 1_555 1_555
H9A C8A 1_555 1_555
H9B C8B 1_555 1_555
H9C C8C 1_555 1_555
H9J C8J 1_555 1_555
H9E C8E 1_555 1_555
H9O C8O 1_555 1_555
H9H C8H 1_555 1_555
C9A N4A 1_555 1_555
C9B N4B 1_555 1_555
C9C N4C 1_555 1_555
C9J N5J 1_555 1_555
C9E N5E 1_555 1_555
C9O N5O 1_555 1_555
C9H N4H 1_555 1_555
H10A C9A 1_555 1_555
H10B C9B 1_555 1_555
H10C C9C 1_555 1_555
H10J C9J 1_555 1_555
H10E C9E 1_555 1_555
H10O C9O 1_555 1_555
H10H C9H 1_555 1_555
C10A N4A 1_555 1_555
C10B N4B 1_555 1_555
C10C N4C 1_555 1_555
C10J N4J 1_555 1_555
C10E N4E 1_555 1_555
C10O N4O 1_555 1_555
C10H N4H 1_555 1_555
H11A C10A 1_555 1_555
H11B C10B 1_555 1_555
H11C C10C 1_555 1_555
H11J C10J 1_555 1_555
H11E C10E 1_555 1_555
H11O C10O 1_555 1_555
H11H C10H 1_555 1_555
C11A C7A 1_555 1_555
C11B C7B 1_555 1_555
C11C C7C 1_555 1_555
C11J C7J 1_555 1_555
C11E C7E 1_555 1_555
C11O C7O 1_555 1_555
C11H C7H 1_555 1_555
C12A C11A 1_555 1_555
C12B C11B 1_555 1_555
C12C C11C 1_555 1_555
C12J C11J 1_555 1_555
C12E C11E 1_555 1_555
C12O C11O 1_555 1_555
C12H C11H 1_555 1_555
H12A C12A 1_555 1_555
H12B C12B 1_555 1_555
H12C C12C 1_555 1_555
H12J C12J 1_555 1_555
H12E C12E 1_555 1_555
H12O C12O 1_555 1_555
H12H C12H 1_555 1_555
H13A C12A 1_555 1_555
H13B C12B 1_555 1_555
H13C C12C 1_555 1_555
H13J C12J 1_555 1_555
H13E C12E 1_555 1_555
H13O C12O 1_555 1_555
H13H C12H 1_555 1_555
H14A C12A 1_555 1_555
H14B C12B 1_555 1_555
H14C C12C 1_555 1_555
H14J C12J 1_555 1_555
H14E C12E 1_555 1_555
H14O C12O 1_555 1_555
H14H C12H 1_555 1_555
C13A C11A 1_555 1_555
C13B C11B 1_555 1_555
C13C C11C 1_555 1_555
C13J C11J 1_555 1_555
C13E C11E 1_555 1_555
C13O C11O 1_555 1_555
C13H C11H 1_555 1_555
C14A N7A 1_555 1_555
C14B N7B 1_555 1_555
C14C N7C 1_555 1_555
C14J N7J 1_555 1_555
C14E N7E 1_555 1_555
C14O N7O 1_555 1_555
C14H N7H 1_555 1_555
H15A C14A 1_555 1_555
H15B C14B 1_555 1_555
H15C C14C 1_555 1_555
H15J C14J 1_555 1_555
H15E C14E 1_555 1_555
H15O C14O 1_555 1_555
H15H C14H 1_555 1_555
H16A C14A 1_555 1_555
H16B C14B 1_555 1_555
H16C C14C 1_555 1_555
H16J C14J 1_555 1_555
H16E C14E 1_555 1_555
H16O C14O 1_555 1_555
H16H C14H 1_555 1_555
C15A N7A 1_555 1_555
C15B N7B 1_555 1_555
C15C N7C 1_555 1_555
C15J N7J 1_555 1_555
C15E N7E 1_555 1_555
C15O N7O 1_555 1_555
C15H N7H 1_555 1_555
H17A C15A 1_555 1_555
H17B C15B 1_555 1_555
H17C C15C 1_555 1_555
H17J C15J 1_555 1_555
H17E C15E 1_555 1_555
H17O C15O 1_555 1_555
H17H C15H 1_555 1_555
C16A N9A 1_555 1_555
C16B N9B 1_555 1_555
C16C N9C 1_555 1_555
C16J N9J 1_555 1_555
C16E N9E 1_555 1_555
C16O N9O 1_555 1_555
C16H N9H 1_555 1_555
H18A C16A 1_555 1_555
H18B C16B 1_555 1_555
H18C C16C 1_555 1_555
H18J C16J 1_555 1_555
H18E C16E 1_555 1_555
H18O C16O 1_555 1_555
H18H C16H 1_555 1_555
C17A C4A 1_555 1_555
C17B C4B 1_555 1_555
C17C C4C 1_555 1_555
C17J C4J 1_555 1_555
C17E C4E 1_555 1_555
C17O C4O 1_555 1_555
C17H C4H 1_555 1_555
C18A C17A 1_555 1_555
C18B C17B 1_555 1_555
C18C C17C 1_555 1_555
C18J C17J 1_555 1_555
C18E C17E 1_555 1_555
C18O C17O 1_555 1_555
C18H C17H 1_555 1_555
H19A C18A 1_555 1_555
H19B C18B 1_555 1_555
H19C C18C 1_555 1_555
H19J C18J 1_555 1_555
H19E C18E 1_555 1_555
H19O C18O 1_555 1_555
H19H C18H 1_555 1_555
H20A C18A 1_555 1_555
H20B C18B 1_555 1_555
H20C C18C 1_555 1_555
H20J C18J 1_555 1_555
H20E C18E 1_555 1_555
H20O C18O 1_555 1_555
H20H C18H 1_555 1_555
H21A C18A 1_555 1_555
H21B C18B 1_555 1_555
H21C C18C 1_555 1_555
H21J C18J 1_555 1_555
H21E C18E 1_555 1_555
H21O C18O 1_555 1_555
H21H C18H 1_555 1_555
N6 C10 1_555 1_555
C13 C14 1_555 1_555
C13 C17 1_555 1_555
N2J C1J 1_555 1_555
N5A C9A 1_555 1_555
N5B C9B 1_555 1_555
N5C C9C 1_555 1_555
N5H C9H 1_555 1_555
N6A C10A 1_555 1_555
N6B C10B 1_555 1_555
N6C C10C 1_555 1_555
N6J C10J 1_555 1_555
N6E C10E 1_555 1_555
N6O C10O 1_555 1_555
N6H C10H 1_555 1_555
N9E C15E 1_555 1_555
N9O C15O 1_555 1_555
N9H C15H 1_555 1_555
C13A C14A 1_555 1_555
C13A C17A 1_555 1_555
C13B C14B 1_555 1_555
C13B C17B 1_555 1_555
C13C C14C 1_555 1_555
C13C C17C 1_555 1_555
C13J C14J 1_555 1_555
C13J C17J 1_555 1_555
C13E C14E 1_555 1_555
C13E C17E 1_555 1_555
C13O C14O 1_555 1_555
C13O C17O 1_555 1_555
C13H C14H 1_555 1_555
C13H C17H 1_555 1_555

#END
