
#######################################################################
#
#                 Cambridge Crystallographic Data Centre
#                                CCDC 
#
#######################################################################
#
# If this CIF has been generated from an entry in the Cambridge 
# Structural Database, then it will include bibliographic, chemical, 
# crystal, experimental, refinement or atomic coordinate data resulting 
# from the CCDC's data processing and validation procedures.
#
#######################################################################

data_OQOFEG
_symmetry_cell_setting           orthorhombic
_symmetry_space_group_name_H-M   'P c c a'
_symmetry_Int_Tables_number      54
_space_group_name_Hall           '-P 2a 2ac'
loop_
_symmetry_equiv_pos_site_id
_symmetry_equiv_pos_as_xyz
1 x,y,z
2 1/2-x,-y,z
3 -x,y,1/2-z
4 1/2+x,-y,1/2-z
5 -x,-y,-z
6 1/2+x,y,-z
7 x,-y,1/2+z
8 1/2-x,y,1/2+z
_cell_length_a                   14.1475(16)
_cell_length_b                   9.8857(12)
_cell_length_c                   28.841(3)
_cell_angle_alpha                90
_cell_angle_beta                 90
_cell_angle_gamma                90
_cell_volume                     4033.64
loop_
_atom_site_label
_atom_site_type_symbol
_atom_site_fract_x
_atom_site_fract_y
_atom_site_fract_z
Cd1 Cd 0.131220(12) 0.384515(18) 0.100971(6)
N1 N 0.12914(14) 0.1733(2) 0.13605(7)
N2 N 0.12796(13) 0.4164(2) 0.18047(7)
N3 N 0.12073(15) 0.1559(3) 0.32626(8)
H1 H 0.1194 0.2132 0.3487
N4 N 0.12490(16) -0.0420(3) 0.28948(10)
N5 N 0.1194(3) -0.2587(6) 0.4176(2)
O1 O 0.01897(15) 0.3713(2) 0.04988(7)
O2 O -0.0811(2) 0.3566(3) 0.10722(7)
O3 O -0.27404(14) 0.3183(2) -0.04240(6)
O4 O -0.17280(16) 0.39215(17) -0.09356(6)
C1 C 0.1301(2) 0.0562(3) 0.11352(11)
H2 H 0.1321 0.0572 0.0813
C2 C 0.1282(2) -0.0687(3) 0.13635(12)
H3 H 0.1277 -0.1493 0.1197
C3 C 0.1269(2) -0.0689(3) 0.18383(12)
H4 H 0.1264 -0.1505 0.1998
C4 C 0.12651(17) 0.0514(3) 0.20799(9)
C5 C 0.12542(18) 0.0625(3) 0.25797(10)
C6 C 0.12197(17) 0.1851(3) 0.27965(9)
C7 C 0.12302(16) 0.3107(3) 0.25569(9)
C8 C 0.12190(19) 0.4399(3) 0.27631(9)
H5 H 0.1193 0.4487 0.3084
C9 C 0.1247(2) 0.5517(3) 0.24888(10)
H6 H 0.1247 0.6376 0.2620
C10 C 0.12751(18) 0.5361(3) 0.20071(9)
H7 H 0.1291 0.6132 0.1822
C11 C 0.12552(15) 0.3034(3) 0.20650(8)
C12 C 0.12690(15) 0.1732(3) 0.18305(8)
C13 C 0.12208(19) 0.0190(4) 0.32996(11)
C14 C 0.1230(3) -0.1891(5) 0.37655(17)
H8 H 0.1271 -0.2377 0.3490
C15 C 0.1209(2) -0.0527(4) 0.37456(13)
C16 C 0.1152(3) 0.0116(5) 0.41603(15)
H9 H 0.1139 0.1057 0.4162
C17 C 0.1114(3) -0.0531(6) 0.45665(15)
H10 H 0.1079 -0.0047 0.4843
C18 C 0.1127(3) -0.1847(8) 0.45701(18)
H11 H 0.1090 -0.2295 0.4853
C19 C -0.0628(2) 0.3632(3) 0.06523(10)
C20 C -0.1416(2) 0.3666(4) 0.03002(10)
H12 H -0.1905 0.3042 0.0399
H13 H -0.1689 0.4566 0.0300
C21 C -0.11417(18) 0.3320(4) -0.01810(9)
H14 H -0.0926 0.2389 -0.0187
H15 H -0.0614 0.3888 -0.0271
C22 C -0.1922(2) 0.3485(3) -0.05350(8)
Cd1E Cd 0.631220(12) 0.384515(18) -0.100971(6)
Cd1E_2 Cd -0.368780(12) 0.384515(18) -0.100971(6)
Cd1D Cd -0.131220(12) 0.615485(18) -0.100971(6)
Cd1A Cd 0.368780(12) 0.615485(18) 0.100971(6)
N1E N 0.62914(14) 0.1733(2) -0.13605(7)
N2E N 0.62796(13) 0.4164(2) -0.18047(7)
N3E N 0.62073(15) 0.1559(3) -0.32626(8)
H1E H 0.6194 0.2132 -0.3487
N4E N 0.62490(16) -0.0420(3) -0.28948(10)
N5E N 0.6194(3) -0.2587(6) -0.4176(2)
O1E O 0.51897(15) 0.3713(2) -0.04988(7)
O2E O 0.4189(2) 0.3566(3) -0.10722(7)
O3E O 0.22596(14) 0.3183(2) 0.04240(6)
O3_2 O 0.72596(14) 0.3183(2) -0.04240(6)
O4E O 0.32720(16) 0.39215(17) 0.09356(6)
O4D O 0.17280(16) 0.60785(17) 0.09356(6)
O4A O 0.67280(16) 0.60785(17) -0.09356(6)
C1E C 0.6301(2) 0.0562(3) -0.11352(11)
H2E H 0.6321 0.0572 -0.0813
C2E C 0.6282(2) -0.0687(3) -0.13635(12)
H3E H 0.6277 -0.1493 -0.1197
C3E C 0.6269(2) -0.0689(3) -0.18383(12)
H4E H 0.6264 -0.1505 -0.1998
C4E C 0.62651(17) 0.0514(3) -0.20799(9)
C5E C 0.62542(18) 0.0625(3) -0.25797(10)
C6E C 0.62197(17) 0.1851(3) -0.27965(9)
C7E C 0.62302(16) 0.3107(3) -0.25569(9)
C8E C 0.62190(19) 0.4399(3) -0.27631(9)
H5E H 0.6193 0.4487 -0.3084
C9E C 0.6247(2) 0.5517(3) -0.24888(10)
H6E H 0.6247 0.6376 -0.2620
C10E C 0.62751(18) 0.5361(3) -0.20071(9)
H7E H 0.6291 0.6132 -0.1822
C11E C 0.62552(15) 0.3034(3) -0.20650(8)
C12E C 0.62690(15) 0.1732(3) -0.18305(8)
C13E C 0.62208(19) 0.0190(4) -0.32996(11)
C14E C 0.6230(3) -0.1891(5) -0.37655(17)
H8E H 0.6271 -0.2377 -0.3490
C15E C 0.6209(2) -0.0527(4) -0.37456(13)
C16E C 0.6152(3) 0.0116(5) -0.41603(15)
H9E H 0.6139 0.1057 -0.4162
C17E C 0.6114(3) -0.0531(6) -0.45665(15)
H10E H 0.6079 -0.0047 -0.4843
C18E C 0.6127(3) -0.1847(8) -0.45701(18)
H11E H 0.6090 -0.2295 -0.4853
C19E C 0.4372(2) 0.3632(3) -0.06523(10)
C20E C 0.3584(2) 0.3666(4) -0.03002(10)
H12E H 0.3095 0.3042 -0.0399
H13E H 0.3311 0.4566 -0.0300
C21E C 0.38583(18) 0.3320(4) 0.01810(9)
H14E H 0.4074 0.2389 0.0187
H15E H 0.4386 0.3888 0.0271
C22E C 0.3078(2) 0.3485(3) 0.05350(8)
O5 O 0.7500 0.5000 0.13469(16)
O6 O 0.2500 0.0000 0.5250(4)
loop_
_geom_bond_atom_site_label_1
_geom_bond_atom_site_label_2
_geom_bond_site_symmetry_1
_geom_bond_site_symmetry_2
Cd1 N1 1_555 1_555
N1 C1 1_555 1_555
N2 Cd1 1_555 1_555
N3 H1 1_555 1_555
N4 C5 1_555 1_555
N5 C14 1_555 1_555
O1 Cd1 1_555 1_555
O2 C19 1_555 1_555
O3 C22 1_555 1_555
O4 C22 1_555 1_555
C1 H2 1_555 1_555
C2 C1 1_555 1_555
H3 C2 1_555 1_555
C3 C2 1_555 1_555
H4 C3 1_555 1_555
C4 C3 1_555 1_555
C5 C4 1_555 1_555
C6 N3 1_555 1_555
C7 C6 1_555 1_555
C8 C7 1_555 1_555
H5 C8 1_555 1_555
C9 C8 1_555 1_555
H6 C9 1_555 1_555
C10 N2 1_555 1_555
H7 C10 1_555 1_555
C11 N2 1_555 1_555
C12 N1 1_555 1_555
C13 N3 1_555 1_555
C14 H8 1_555 1_555
C15 C13 1_555 1_555
C16 C15 1_555 1_555
H9 C16 1_555 1_555
C17 C16 1_555 1_555
H10 C17 1_555 1_555
C18 N5 1_555 1_555
H11 C18 1_555 1_555
C19 O1 1_555 1_555
C20 C19 1_555 1_555
H12 C20 1_555 1_555
H13 C20 1_555 1_555
C21 C20 1_555 1_555
H14 C21 1_555 1_555
H15 C21 1_555 1_555
C22 C21 1_555 1_555
Cd1E N1E 1_555 1_555
Cd1E_2 O3 1_555 1_555
Cd1D O4 1_555 1_555
Cd1A O4E 1_555 1_555
N1E C1E 1_555 1_555
N2E Cd1E 1_555 1_555
N3E H1E 1_555 1_555
N4E C5E 1_555 1_555
N5E C14E 1_555 1_555
O1E Cd1E 1_555 1_555
O2E C19E 1_555 1_555
O3E Cd1 1_555 1_555
O3_2 Cd1E 1_555 1_555
O4E C22E 1_555 1_555
O4D Cd1 1_555 1_555
O4A Cd1E 1_555 1_555
C1E H2E 1_555 1_555
C2E C1E 1_555 1_555
H3E C2E 1_555 1_555
C3E C2E 1_555 1_555
H4E C3E 1_555 1_555
C4E C3E 1_555 1_555
C5E C4E 1_555 1_555
C6E N3E 1_555 1_555
C7E C6E 1_555 1_555
C8E C7E 1_555 1_555
H5E C8E 1_555 1_555
C9E C8E 1_555 1_555
H6E C9E 1_555 1_555
C10E N2E 1_555 1_555
H7E C10E 1_555 1_555
C11E N2E 1_555 1_555
C12E N1E 1_555 1_555
C13E N3E 1_555 1_555
C14E H8E 1_555 1_555
C15E C13E 1_555 1_555
C16E C15E 1_555 1_555
H9E C16E 1_555 1_555
C17E C16E 1_555 1_555
H10E C17E 1_555 1_555
C18E N5E 1_555 1_555
H11E C18E 1_555 1_555
C19E O1E 1_555 1_555
C20E C19E 1_555 1_555
H12E C20E 1_555 1_555
H13E C20E 1_555 1_555
C21E C20E 1_555 1_555
H14E C21E 1_555 1_555
H15E C21E 1_555 1_555
C22E O3E 1_555 1_555
N4 C13 1_555 1_555
C4 C12 1_555 1_555
C5 C6 1_555 1_555
C7 C11 1_555 1_555
C9 C10 1_555 1_555
C11 C12 1_555 1_555
C14 C15 1_555 1_555
C17 C18 1_555 1_555
N4E C13E 1_555 1_555
C4E C12E 1_555 1_555
C5E C6E 1_555 1_555
C7E C11E 1_555 1_555
C9E C10E 1_555 1_555
C11E C12E 1_555 1_555
C14E C15E 1_555 1_555
C17E C18E 1_555 1_555
C21E C22E 1_555 1_555

#END
