
#######################################################################
#
#                 Cambridge Crystallographic Data Centre
#                                CCDC 
#
#######################################################################
#
# If this CIF has been generated from an entry in the Cambridge 
# Structural Database, then it will include bibliographic, chemical, 
# crystal, experimental, refinement or atomic coordinate data resulting 
# from the CCDC's data processing and validation procedures.
#
#######################################################################

data_OQOFAC
_symmetry_cell_setting           triclinic
_symmetry_space_group_name_H-M   'P -1'
_symmetry_Int_Tables_number      2
_space_group_name_Hall           '-P 1'
loop_
_symmetry_equiv_pos_site_id
_symmetry_equiv_pos_as_xyz
1 x,y,z
2 -x,-y,-z
_cell_length_a                   7.9445(16)
_cell_length_b                   7.9448(16)
_cell_length_c                   19.171(4)
_cell_angle_alpha                97.72(3)
_cell_angle_beta                 96.20(3)
_cell_angle_gamma                113.62(3)
_cell_volume                     1081.01
loop_
_atom_site_label
_atom_site_type_symbol
_atom_site_fract_x
_atom_site_fract_y
_atom_site_fract_z
O1 O 0.6079(3) -0.5015(3) 0.19006(15)
O2 O 0.7512(3) -0.6835(3) 0.21049(13)
N1 N 0.3242(3) -0.7830(3) 0.09079(13)
N2 N -0.0928(4) -0.7020(4) -0.10865(13)
N3 N -0.2570(4) -0.7043(4) -0.13325(14)
N4 N -0.3601(4) -0.7294(4) -0.08323(14)
N5 N -0.2643(3) -0.7439(4) -0.02366(13)
C1 C 0.3501(4) -0.7393(5) 0.02687(18)
H1 H 0.4610 -0.7255 0.0113
C2 C 0.2161(4) -0.7143(5) -0.01642(17)
H2 H 0.2364 -0.6831 -0.0608
C3 C 0.0493(4) -0.7361(4) 0.00665(14)
C4 C 0.0312(4) -0.7713(4) 0.07476(15)
H3 H -0.0752 -0.7786 0.0927
C5 C 0.1684(4) -0.7956(4) 0.11598(17)
H4 H 0.1541 -0.8208 0.1615
C6 C -0.1011(4) -0.7262(4) -0.04158(14)
C7 C 0.4663(4) -0.8225(4) 0.13315(18)
H5 H 0.5215 -0.8806 0.1005
H6 H 0.4046 -0.9123 0.1621
C8 C 0.6226(4) -0.6509(4) 0.18230(16)
O3 O 0.2134(3) 0.1455(3) 0.27969(13)
O4 O 0.3668(3) -0.0185(3) 0.31141(14)
N6 N 0.6284(4) 0.2762(4) 0.41128(14)
N7 N 1.2236(4) 0.2476(4) 0.52442(14)
N8 N 1.3203(4) 0.2354(4) 0.58378(15)
N9 N 1.2220(4) 0.2162(4) 0.63451(15)
N10 N 1.0569(4) 0.2135(4) 0.61055(14)
C9 C 0.7784(5) 0.2783(5) 0.38446(17)
H7 H 0.7863 0.2917 0.3373
C10 C 0.9184(4) 0.2610(5) 0.42552(16)
H8 H 1.0217 0.2630 0.4063
C11 C 0.9090(4) 0.2403(4) 0.49604(15)
C12 C 0.7492(5) 0.2305(6) 0.52156(18)
H9 H 0.7349 0.2110 0.5677
C13 C 0.6129(5) 0.2498(6) 0.4778(2)
H10 H 0.5063 0.2444 0.4951
C14 C 1.0615(4) 0.2318(4) 0.54305(15)
C15 C 0.4798(5) 0.3020(5) 0.3665(2)
H11 H 0.5376 0.3980 0.3393
H12 H 0.4117 0.3467 0.3976
C16 C 0.3418(4) 0.1248(4) 0.31475(16)
O5 O 0.1301(4) -0.5483(4) 0.28218(15)
H13 H 0.0205 -0.5675 0.2633
H14 H 0.1673 -0.6350 0.2804
O6 O 0.7377(3) -0.0579(4) 0.18486(14)
H15 H 0.7938 0.0176 0.2226
H16 H 0.6449 -0.0464 0.1632
K1 K 0.46462(9) -0.28472(10) 0.26498(4)
K2 K 0.97251(9) -0.23282(10) 0.24294(4)
N2A N 1.0928(4) -0.2980(4) 0.10865(13)
N3A N 0.2570(4) -0.2957(4) 0.13325(14)
O3_2 O 1.2134(3) 0.1455(3) 0.27969(13)
O4_2 O 1.3668(3) -0.0185(3) 0.31141(14)
N8A N 0.6797(4) -0.2354(4) 0.41622(15)
N9A N 0.7780(4) -0.2162(4) 0.36549(15)
N10A N 0.9431(4) -0.2135(4) 0.38945(14)
O5_2 O 1.1301(4) -0.5483(4) 0.28218(15)
H13_2 H 1.0205 -0.5675 0.2633
H14_2 H 1.1673 -0.6350 0.2804
K1A K -0.46462(9) -0.71528(10) -0.26498(4)
K1A_2 K 1.53538(9) 0.28472(10) 0.73502(4)
K2A K 0.02749(9) -0.76718(10) -0.24294(4)
K2_2 K -0.02749(9) -0.23282(10) 0.24294(4)
K2A_2 K 1.02749(9) 0.23282(10) 0.75706(4)
loop_
_geom_bond_atom_site_label_1
_geom_bond_atom_site_label_2
_geom_bond_site_symmetry_1
_geom_bond_site_symmetry_2
O1 C8 1_555 1_555
O2 C8 1_555 1_555
N1 C1 1_555 1_555
N2 N3 1_555 1_555
N3 N4 1_555 1_555
N4 N5 1_555 1_555
N5 C6 1_555 1_555
C1 H1 1_555 1_555
C2 C1 1_555 1_555
H2 C2 1_555 1_555
C3 C2 1_555 1_555
C4 C3 1_555 1_555
H3 C4 1_555 1_555
C5 N1 1_555 1_555
H4 C5 1_555 1_555
C6 N2 1_555 1_555
C7 N1 1_555 1_555
H5 C7 1_555 1_555
H6 C7 1_555 1_555
C8 C7 1_555 1_555
O3 C16 1_555 1_555
O4 C16 1_555 1_555
N6 C9 1_555 1_555
N7 N8 1_555 1_555
N8 N9 1_555 1_555
N9 N10 1_555 1_555
N10 C14 1_555 1_555
C9 H7 1_555 1_555
C10 C9 1_555 1_555
H8 C10 1_555 1_555
C11 C10 1_555 1_555
C12 C11 1_555 1_555
H9 C12 1_555 1_555
C13 N6 1_555 1_555
H10 C13 1_555 1_555
C14 N7 1_555 1_555
C15 N6 1_555 1_555
H11 C15 1_555 1_555
H12 C15 1_555 1_555
C16 C15 1_555 1_555
O5 H13 1_555 1_555
H14 O5 1_555 1_555
O6 H15 1_555 1_555
H16 O6 1_555 1_555
K1 O1 1_555 1_555
K2 O1 1_555 1_555
N2A K2 1_555 1_555
N3A K1 1_555 1_555
O3_2 K2 1_555 1_555
O4_2 K2 1_555 1_555
N8A K1 1_555 1_555
N9A K1 1_555 1_555
N10A K2 1_555 1_555
O5_2 K2 1_555 1_555
H13_2 O5_2 1_555 1_555
H14_2 O5_2 1_555 1_555
K1A N3 1_555 1_555
K1A_2 N8 1_555 1_555
K2A N2 1_555 1_555
K2_2 O3 1_555 1_555
K2A_2 N9 1_555 1_555
O2 K2 1_555 1_555
C3 C6 1_555 1_555
C4 C5 1_555 1_555
O4 K1 1_555 1_555
O4 K2_2 1_555 1_555
N9 K1A_2 1_555 1_555
N10 K2A_2 1_555 1_555
C11 C14 1_555 1_555
C12 C13 1_555 1_555
O5 K1 1_555 1_555
O5 K2_2 1_555 1_555
O6 K1 1_555 1_555
O6 K2 1_555 1_555
K2 N9A 1_555 1_555
N8A N9A 1_555 1_555
N9A N10A 1_555 1_555

#END
