
#######################################################################
#
#                 Cambridge Crystallographic Data Centre
#                                CCDC 
#
#######################################################################
#
# If this CIF has been generated from an entry in the Cambridge 
# Structural Database, then it will include bibliographic, chemical, 
# crystal, experimental, refinement or atomic coordinate data resulting 
# from the CCDC's data processing and validation procedures.
#
#######################################################################

data_OQOFIK
_symmetry_cell_setting           monoclinic
_symmetry_space_group_name_H-M   'P 21/n'
_symmetry_Int_Tables_number      14
_space_group_name_Hall           '-P 2yn'
loop_
_symmetry_equiv_pos_site_id
_symmetry_equiv_pos_as_xyz
1 x,y,z
2 1/2-x,1/2+y,1/2-z
3 -x,-y,-z
4 1/2+x,1/2-y,1/2+z
_cell_length_a                   9.741(2)
_cell_length_b                   8.223(2)
_cell_length_c                   25.053(6)
_cell_angle_alpha                90
_cell_angle_beta                 98.667(3)
_cell_angle_gamma                90
_cell_volume                     1983.84
loop_
_atom_site_label
_atom_site_type_symbol
_atom_site_fract_x
_atom_site_fract_y
_atom_site_fract_z
Zn1 Zn 0.00765(3) 0.73622(3) 0.143257(10)
N1 N 0.18150(18) 0.5846(2) 0.14974(7)
N2 N 0.03482(18) 0.72585(18) 0.06247(7)
N3 N 0.31937(17) 0.40335(19) -0.04646(7)
H1 H 0.2895 0.4230 -0.0799
N4 N 0.44617(18) 0.2947(2) 0.02688(7)
N5 N 0.7011(2) 0.0299(2) -0.06384(9)
O1 O -0.1536(2) 0.9655(2) 0.13069(8)
O2 O 0.05049(17) 0.94592(18) 0.17997(6)
O3 O -0.14839(15) 1.57833(17) 0.14649(6)
O4 O -0.04458(17) 1.6045(2) 0.23014(6)
C1 C 0.2526(2) 0.5171(3) 0.19387(9)
H2 H 0.2289 0.5439 0.2274
C2 C 0.3608(2) 0.4081(3) 0.19169(9)
H3 H 0.4081 0.3631 0.2233
C3 C 0.3970(2) 0.3678(3) 0.14283(9)
H4 H 0.4692 0.2950 0.1409
C4 C 0.3249(2) 0.4369(2) 0.09534(8)
C5 C 0.3507(2) 0.4009(2) 0.04215(8)
C6 C 0.2722(2) 0.4711(2) -0.00271(8)
C7 C 0.1652(2) 0.5878(2) 0.00102(8)
C8 C 0.0872(2) 0.6713(2) -0.04246(8)
H5 H 0.1030 0.6527 -0.0777
C9 C -0.0119(2) 0.7799(2) -0.03233(9)
H6 H -0.0622 0.8384 -0.0605
C10 C -0.0374(2) 0.8025(2) 0.02043(8)
H7 H -0.1074 0.8739 0.0266
C11 C 0.1370(2) 0.6216(2) 0.05338(8)
C12 C 0.2165(2) 0.5456(2) 0.10080(8)
C13 C 0.4237(2) 0.2979(2) -0.02642(9)
C14 C 0.6177(2) 0.1138(3) -0.03657(10)
H8 H 0.6372 0.1135 0.0009
C15 C 0.5026(2) 0.2021(2) -0.06087(9)
C16 C 0.4694(3) 0.1954(3) -0.11652(10)
H9 H 0.3919 0.2497 -0.1342
C17 C 0.5540(3) 0.1064(3) -0.14526(11)
H10 H 0.5338 0.0987 -0.1827
C18 C 0.6683(3) 0.0293(3) -0.11763(12)
H11 H 0.7263 -0.0267 -0.1375
C19 C -0.0627(3) 1.0221(3) 0.16508(9)
C20 C -0.0787(2) 1.1848(2) 0.19154(9)
H12 H -0.0166 1.2620 0.1782
H13 H -0.0492 1.1734 0.2301
C21 C -0.2242(2) 1.2547(2) 0.18237(10)
H14 H -0.2879 1.1765 0.1941
H15 H -0.2524 1.2736 0.1441
C22 C -0.2328(2) 1.4146(2) 0.21306(9)
H16 H -0.3272 1.4557 0.2059
H17 H -0.2105 1.3943 0.2515
C23 C -0.1353(2) 1.5411(2) 0.19702(8)
Zn1_2 Zn 0.00765(3) 1.73622(3) 0.143257(10)
O3_2 O -0.14839(15) 0.57833(17) 0.14649(6)
loop_
_geom_bond_atom_site_label_1
_geom_bond_atom_site_label_2
_geom_bond_site_symmetry_1
_geom_bond_site_symmetry_2
Zn1 N1 1_555 1_555
N1 C1 1_555 1_555
N2 Zn1 1_555 1_555
N3 H1 1_555 1_555
N4 C5 1_555 1_555
N5 C14 1_555 1_555
O1 Zn1 1_555 1_555
O2 Zn1 1_555 1_555
O3 C23 1_555 1_555
O4 C23 1_555 1_555
C1 H2 1_555 1_555
C2 C1 1_555 1_555
H3 C2 1_555 1_555
C3 C2 1_555 1_555
H4 C3 1_555 1_555
C4 C3 1_555 1_555
C5 C4 1_555 1_555
C6 N3 1_555 1_555
C7 C6 1_555 1_555
C8 C7 1_555 1_555
H5 C8 1_555 1_555
C9 C8 1_555 1_555
H6 C9 1_555 1_555
C10 N2 1_555 1_555
H7 C10 1_555 1_555
C11 N2 1_555 1_555
C12 N1 1_555 1_555
C13 N3 1_555 1_555
C14 H8 1_555 1_555
C15 C13 1_555 1_555
C16 C15 1_555 1_555
H9 C16 1_555 1_555
C17 C16 1_555 1_555
H10 C17 1_555 1_555
C18 N5 1_555 1_555
H11 C18 1_555 1_555
C19 O1 1_555 1_555
C20 C19 1_555 1_555
H12 C20 1_555 1_555
H13 C20 1_555 1_555
C21 C20 1_555 1_555
H14 C21 1_555 1_555
H15 C21 1_555 1_555
C22 C21 1_555 1_555
H16 C22 1_555 1_555
H17 C22 1_555 1_555
C23 C22 1_555 1_555
Zn1_2 O3 1_555 1_555
O3_2 Zn1 1_555 1_555
N4 C13 1_555 1_555
O2 C19 1_555 1_555
C4 C12 1_555 1_555
C5 C6 1_555 1_555
C7 C11 1_555 1_555
C9 C10 1_555 1_555
C11 C12 1_555 1_555
C14 C15 1_555 1_555
C17 C18 1_555 1_555

#END
