
#######################################################################
#
#                 Cambridge Crystallographic Data Centre
#                                CCDC 
#
#######################################################################
#
# If this CIF has been generated from an entry in the Cambridge 
# Structural Database, then it will include bibliographic, chemical, 
# crystal, experimental, refinement or atomic coordinate data resulting 
# from the CCDC's data processing and validation procedures.
#
#######################################################################

data_OQOFOQ
_symmetry_cell_setting           monoclinic
_symmetry_space_group_name_H-M   'P 21/n'
_symmetry_Int_Tables_number      14
_space_group_name_Hall           '-P 2yn'
loop_
_symmetry_equiv_pos_site_id
_symmetry_equiv_pos_as_xyz
1 x,y,z
2 1/2-x,1/2+y,1/2-z
3 -x,-y,-z
4 1/2+x,1/2-y,1/2+z
_cell_length_a                   12.137(2)
_cell_length_b                   13.572(3)
_cell_length_c                   12.638(2)
_cell_angle_alpha                90
_cell_angle_beta                 91.705(2)
_cell_angle_gamma                90
_cell_volume                     2080.85
loop_
_atom_site_label
_atom_site_type_symbol
_atom_site_fract_x
_atom_site_fract_y
_atom_site_fract_z
Cd1 Cd 0.539549(16) 0.070199(14) 0.883717(15)
N1 N 0.5644(2) 0.07698(17) 0.69957(19)
N2 N 0.6974(2) -0.01798(18) 0.84146(19)
N3 N 0.9173(2) -0.11629(18) 0.53666(19)
H1 H 0.9704 -0.1525 0.5610
N4 N 0.8101(2) -0.03204(18) 0.42069(19)
N5 N 0.9996(3) -0.1219(3) 0.1601(3)
O1 O 0.34871(17) 0.11076(15) 0.84966(18)
O2 O 0.46614(17) 0.23254(15) 0.87064(17)
O3 O 0.1819(2) 0.3447(2) 0.51045(18)
O4 O 0.03298(19) 0.42105(14) 0.56450(17)
C1 C 0.4980(3) 0.1276(2) 0.6315(2)
H2 H 0.4369 0.1597 0.6577
C2 C 0.5169(3) 0.1337(2) 0.5241(2)
H3 H 0.4705 0.1706 0.4796
C3 C 0.6054(2) 0.0844(2) 0.4845(2)
H4 H 0.6187 0.0864 0.4125
C4 C 0.6753(2) 0.0312(2) 0.5533(2)
C5 C 0.7699(2) -0.0231(2) 0.5210(2)
C6 C 0.8352(2) -0.07464(19) 0.5934(2)
C7 C 0.8157(2) -0.0761(2) 0.7045(2)
C8 C 0.8833(3) -0.1227(2) 0.7823(3)
H5 H 0.9452 -0.1580 0.7628
C9 C 0.8571(3) -0.1156(3) 0.8860(3)
H6 H 0.9011 -0.1455 0.9382
C10 C 0.7631(3) -0.0626(2) 0.9130(3)
H7 H 0.7457 -0.0583 0.9840
C11 C 0.7224(2) -0.0231(2) 0.7380(2)
C12 C 0.6516(2) 0.0297(2) 0.6615(2)
C13 C 0.8983(2) -0.0890(2) 0.4335(2)
C14 C 0.9391(3) -0.0968(3) 0.2435(3)
H8 H 0.8738 -0.0623 0.2307
C15 C 0.9690(3) -0.1198(2) 0.3479(2)
C16 C 1.0660(3) -0.1716(3) 0.3647(3)
H9 H 1.0883 -0.1899 0.4330
C17 C 1.1297(3) -0.1961(3) 0.2800(3)
H10 H 1.1956 -0.2303 0.2902
C18 C 1.0938(3) -0.1690(3) 0.1812(3)
H11 H 1.1381 -0.1845 0.1247
C19 C 0.3687(2) 0.2008(2) 0.8543(2)
C20 C 0.2764(2) 0.2740(2) 0.8369(2)
H12 H 0.2948 0.3351 0.8731
H13 H 0.2093 0.2483 0.8662
C21 C 0.2576(2) 0.2940(2) 0.7183(2)
H14 H 0.3230 0.3245 0.6904
H15 H 0.2456 0.2321 0.6815
C22 C 0.1584(3) 0.3615(2) 0.6981(2)
H16 H 0.0959 0.3347 0.7345
H17 H 0.1749 0.4256 0.7287
C23 C 0.1260(3) 0.3752(2) 0.5828(2)
Cd1C Cd 0.039549(16) 0.429801(14) 0.383717(15)
Cd1A Cd -0.039549(16) 0.570199(14) 0.616283(15)
O3C O 0.6819(2) 0.1553(2) 1.01045(18)
O4A O 0.46702(19) -0.07895(14) 0.93550(17)
O4C O 0.53298(19) 0.07895(14) 1.06450(17)
loop_
_geom_bond_atom_site_label_1
_geom_bond_atom_site_label_2
_geom_bond_site_symmetry_1
_geom_bond_site_symmetry_2
Cd1 N1 1_555 1_555
N1 C1 1_555 1_555
N2 Cd1 1_555 1_555
N3 H1 1_555 1_555
N4 C5 1_555 1_555
N5 C14 1_555 1_555
O1 Cd1 1_555 1_555
O2 Cd1 1_555 1_555
O3 C23 1_555 1_555
O4 C23 1_555 1_555
C1 H2 1_555 1_555
C2 C1 1_555 1_555
H3 C2 1_555 1_555
C3 C2 1_555 1_555
H4 C3 1_555 1_555
C4 C3 1_555 1_555
C5 C4 1_555 1_555
C6 N3 1_555 1_555
C7 C6 1_555 1_555
C8 C7 1_555 1_555
H5 C8 1_555 1_555
C9 C8 1_555 1_555
H6 C9 1_555 1_555
C10 N2 1_555 1_555
H7 C10 1_555 1_555
C11 N2 1_555 1_555
C12 N1 1_555 1_555
C13 N3 1_555 1_555
C14 H8 1_555 1_555
C15 C13 1_555 1_555
C16 C15 1_555 1_555
H9 C16 1_555 1_555
C17 C16 1_555 1_555
H10 C17 1_555 1_555
C18 N5 1_555 1_555
H11 C18 1_555 1_555
C19 O1 1_555 1_555
C20 C19 1_555 1_555
H12 C20 1_555 1_555
H13 C20 1_555 1_555
C21 C20 1_555 1_555
H14 C21 1_555 1_555
H15 C21 1_555 1_555
C22 C21 1_555 1_555
H16 C22 1_555 1_555
H17 C22 1_555 1_555
C23 C22 1_555 1_555
Cd1C O3 1_555 1_555
Cd1A O4 1_555 1_555
O3C Cd1 1_555 1_555
O4A Cd1 1_555 1_555
O4C Cd1 1_555 1_555
N4 C13 1_555 1_555
O2 C19 1_555 1_555
O4 Cd1C 1_555 1_555
C4 C12 1_555 1_555
C5 C6 1_555 1_555
C7 C11 1_555 1_555
C9 C10 1_555 1_555
C11 C12 1_555 1_555
C14 C15 1_555 1_555
C17 C18 1_555 1_555

#END
