
#######################################################################
#
#                 Cambridge Crystallographic Data Centre
#                                CCDC 
#
#######################################################################
#
# If this CIF has been generated from an entry in the Cambridge 
# Structural Database, then it will include bibliographic, chemical, 
# crystal, experimental, refinement or atomic coordinate data resulting 
# from the CCDC's data processing and validation procedures.
#
#######################################################################

data_OQOFUW
_symmetry_cell_setting           monoclinic
_symmetry_space_group_name_H-M   'C 2/c'
_symmetry_Int_Tables_number      15
_space_group_name_Hall           '-C 2yn'
loop_
_symmetry_equiv_pos_site_id
_symmetry_equiv_pos_as_xyz
1 x,y,z
2 -x,y,1/2-z
3 1/2+x,1/2+y,z
4 1/2-x,1/2+y,1/2-z
5 -x,-y,-z
6 x,-y,1/2+z
7 1/2-x,1/2-y,-z
8 1/2+x,1/2-y,1/2+z
_cell_length_a                   9.7361(13)
_cell_length_b                   32.416(5)
_cell_length_c                   14.637(2)
_cell_angle_alpha                90
_cell_angle_beta                 104.846(2)
_cell_angle_gamma                90
_cell_volume                     4465.31
loop_
_atom_site_label
_atom_site_type_symbol
_atom_site_fract_x
_atom_site_fract_y
_atom_site_fract_z
Zn1 Zn 0.55951(3) 0.370426(7) 0.126300(19)
N1 N 0.52572(19) 0.43472(6) 0.12546(13)
N2 N 0.7647(2) 0.39509(6) 0.12512(14)
N3 N 0.7949(2) 0.56394(6) 0.12293(14)
H1 H 0.7375 0.5843 0.1214
N4 N 0.9958(2) 0.52988(7) 0.12661(16)
N5 N 1.2304(4) 0.64114(12) 0.1308(3)
O1 O 0.65515(18) 0.32569(5) 0.21644(12)
O2 O 0.63372(18) 0.36337(5) 0.33790(14)
O3 O 1.0288(2) 0.16704(5) 0.51749(12)
O4 O 0.9170(2) 0.12081(6) 0.41612(19)
C1 C 0.4032(2) 0.45329(8) 0.12424(18)
H2 H 0.3250 0.4370 0.1254
C2 C 0.3870(3) 0.49575(8) 0.12138(18)
H3 H 0.2991 0.5075 0.1193
C3 C 0.5024(3) 0.52045(7) 0.12161(18)
H4 H 0.4935 0.5490 0.1205
C4 C 0.6338(2) 0.50184(7) 0.12361(15)
C5 C 0.7632(3) 0.52256(7) 0.12430(17)
C6 C 0.8888(3) 0.50242(7) 0.12566(17)
C7 C 0.8955(2) 0.45833(8) 0.12572(18)
C8 C 1.0165(3) 0.43524(9) 0.1256(2)
H5 H 1.1012 0.4485 0.1256
C9 C 1.0100(3) 0.39346(9) 0.1254(2)
H6 H 1.0902 0.3778 0.1257
C10 C 0.8827(3) 0.37436(8) 0.1247(2)
H7 H 0.8794 0.3457 0.1238
C11 C 0.7709(2) 0.43670(7) 0.12493(16)
C12 C 0.6401(2) 0.45846(7) 0.12521(15)
C13 C 0.9356(3) 0.56629(8) 0.12443(19)
C14 C 1.1550(4) 0.60544(10) 0.1339(3)
H8 H 1.2032 0.5804 0.1437
C15 C 1.0099(3) 0.60574(9) 0.12308(19)
C16 C 0.9446(4) 0.64313(10) 0.1121(3)
H9 H 0.8475 0.6442 0.1073
C17 C 1.0136(4) 0.67823(10) 0.1081(3)
H10 H 0.9657 0.7033 0.0993
C18 C 1.1510(5) 0.67656(12) 0.1168(3)
H11 H 1.1980 0.7012 0.1133
C19 C 0.6691(2) 0.33059(7) 0.30312(17)
C20 C 0.7294(3) 0.29541(8) 0.36825(18)
H12 H 0.7974 0.3067 0.4229
H13 H 0.6527 0.2834 0.3906
C21 C 0.8007(3) 0.26154(8) 0.32905(19)
H14 H 0.8808 0.2727 0.3091
H15 H 0.7345 0.2500 0.2739
C22 C 0.8528(3) 0.22744(8) 0.40119(19)
H16 H 0.9228 0.2390 0.4545
H17 H 0.7734 0.2180 0.4243
C23 C 0.9173(3) 0.19094(8) 0.36499(18)
H18 H 1.0021 0.1997 0.3471
H19 H 0.8505 0.1804 0.3089
C24 C 0.9557(3) 0.15690(8) 0.43705(18)
Zn1A Zn 0.44049(3) 0.370426(7) 0.373700(19)
Zn1G Zn 1.05951(3) 0.129574(7) 0.626300(19)
Zn1F Zn -0.05951(3) 0.129574(7) -0.126300(19)
N1A N 0.47428(19) 0.43472(6) 0.37454(13)
N2A N 0.2353(2) 0.39509(6) 0.37488(14)
N3A N 0.2051(2) 0.56394(6) 0.37707(14)
H1A H 0.2625 0.5843 0.3786
N4A N 0.0042(2) 0.52988(7) 0.37339(16)
N5A N -0.2304(4) 0.64114(12) 0.3692(3)
O1A O 0.34485(18) 0.32569(5) 0.28356(12)
O2A O 0.36628(18) 0.36337(5) 0.16210(14)
O3A O -0.0288(2) 0.16704(5) -0.01749(12)
O3G O 0.5288(2) 0.33296(5) 0.01749(12)
O3F O 0.4712(2) 0.33296(5) 0.48251(12)
O4A O 0.0830(2) 0.12081(6) 0.08388(19)
C1A C 0.5968(2) 0.45329(8) 0.37576(18)
H2A H 0.6750 0.4370 0.3746
C2A C 0.6130(3) 0.49575(8) 0.37862(18)
H3A H 0.7009 0.5075 0.3807
C3A C 0.4976(3) 0.52045(7) 0.37839(18)
H4A H 0.5065 0.5490 0.3795
C4A C 0.3662(2) 0.50184(7) 0.37639(15)
C5A C 0.2368(3) 0.52256(7) 0.37570(17)
C6A C 0.1112(3) 0.50242(7) 0.37434(17)
C7A C 0.1045(2) 0.45833(8) 0.37428(18)
C8A C -0.0165(3) 0.43524(9) 0.3744(2)
H5A H -0.1012 0.4485 0.3744
C9A C -0.0100(3) 0.39346(9) 0.3746(2)
H6A H -0.0902 0.3778 0.3743
C10A C 0.1173(3) 0.37436(8) 0.3753(2)
H7A H 0.1206 0.3457 0.3762
C11A C 0.2291(2) 0.43670(7) 0.37507(16)
C12A C 0.3599(2) 0.45846(7) 0.37479(15)
C13A C 0.0644(3) 0.56629(8) 0.37557(19)
C14A C -0.1550(4) 0.60544(10) 0.3661(3)
H8A H -0.2032 0.5804 0.3563
C15A C -0.0099(3) 0.60574(9) 0.37692(19)
C16A C 0.0554(4) 0.64313(10) 0.3879(3)
H9A H 0.1525 0.6442 0.3927
C17A C -0.0136(4) 0.67823(10) 0.3919(3)
H10A H 0.0343 0.7033 0.4007
C18A C -0.1510(5) 0.67656(12) 0.3832(3)
H11A H -0.1980 0.7012 0.3867
C19A C 0.3309(2) 0.33059(7) 0.19688(17)
C20A C 0.2706(3) 0.29541(8) 0.13175(18)
H12A H 0.2026 0.3067 0.0771
H13A H 0.3473 0.2834 0.1094
C21A C 0.1993(3) 0.26154(8) 0.17095(19)
H14A H 0.1192 0.2727 0.1909
H15A H 0.2655 0.2500 0.2261
C22A C 0.1472(3) 0.22744(8) 0.09881(19)
H16A H 0.0772 0.2390 0.0455
H17A H 0.2266 0.2180 0.0757
C23A C 0.0827(3) 0.19094(8) 0.13501(18)
H18A H -0.0021 0.1997 0.1529
H19A H 0.1495 0.1804 0.1911
C24A C 0.0443(3) 0.15690(8) 0.06295(18)
O5 O 0.7674(4) 0.27359(8) 0.0850(2)
O6 O 0.5000 0.6030(5) 0.2500
loop_
_geom_bond_atom_site_label_1
_geom_bond_atom_site_label_2
_geom_bond_site_symmetry_1
_geom_bond_site_symmetry_2
Zn1 N1 1_555 1_555
N1 C1 1_555 1_555
N2 Zn1 1_555 1_555
N3 H1 1_555 1_555
N4 C6 1_555 1_555
N5 C14 1_555 1_555
O1 Zn1 1_555 1_555
O2 C19 1_555 1_555
O3 C24 1_555 1_555
O4 C24 1_555 1_555
C1 H2 1_555 1_555
C2 C1 1_555 1_555
H3 C2 1_555 1_555
C3 C2 1_555 1_555
H4 C3 1_555 1_555
C4 C3 1_555 1_555
C5 N3 1_555 1_555
C6 C5 1_555 1_555
C7 C6 1_555 1_555
C8 C7 1_555 1_555
H5 C8 1_555 1_555
C9 C8 1_555 1_555
H6 C9 1_555 1_555
C10 N2 1_555 1_555
H7 C10 1_555 1_555
C11 N2 1_555 1_555
C12 N1 1_555 1_555
C13 N3 1_555 1_555
C14 H8 1_555 1_555
C15 C13 1_555 1_555
C16 C15 1_555 1_555
H9 C16 1_555 1_555
C17 C16 1_555 1_555
H10 C17 1_555 1_555
C18 N5 1_555 1_555
H11 C18 1_555 1_555
C19 O1 1_555 1_555
C20 C19 1_555 1_555
H12 C20 1_555 1_555
H13 C20 1_555 1_555
C21 C20 1_555 1_555
H14 C21 1_555 1_555
H15 C21 1_555 1_555
C22 C21 1_555 1_555
H16 C22 1_555 1_555
H17 C22 1_555 1_555
C23 C22 1_555 1_555
H18 C23 1_555 1_555
H19 C23 1_555 1_555
C24 C23 1_555 1_555
Zn1A O2 1_555 1_555
Zn1G O3 1_555 1_555
Zn1F O3A 1_555 1_555
N1A Zn1A 1_555 1_555
N2A Zn1A 1_555 1_555
N3A H1A 1_555 1_555
N4A C6A 1_555 1_555
N5A C14A 1_555 1_555
O1A Zn1A 1_555 1_555
O2A Zn1 1_555 1_555
O3A C24A 1_555 1_555
O3G Zn1 1_555 1_555
O3F Zn1A 1_555 1_555
O4A C24A 1_555 1_555
C1A N1A 1_555 1_555
H2A C1A 1_555 1_555
C2A C1A 1_555 1_555
H3A C2A 1_555 1_555
C3A C2A 1_555 1_555
H4A C3A 1_555 1_555
C4A C3A 1_555 1_555
C5A N3A 1_555 1_555
C6A C5A 1_555 1_555
C7A C6A 1_555 1_555
C8A C7A 1_555 1_555
H5A C8A 1_555 1_555
C9A C8A 1_555 1_555
H6A C9A 1_555 1_555
C10A N2A 1_555 1_555
H7A C10A 1_555 1_555
C11A N2A 1_555 1_555
C12A N1A 1_555 1_555
C13A N3A 1_555 1_555
C14A H8A 1_555 1_555
C15A C13A 1_555 1_555
C16A C15A 1_555 1_555
H9A C16A 1_555 1_555
C17A C16A 1_555 1_555
H10A C17A 1_555 1_555
C18A N5A 1_555 1_555
H11A C18A 1_555 1_555
C19A O1A 1_555 1_555
C20A C19A 1_555 1_555
H12A C20A 1_555 1_555
H13A C20A 1_555 1_555
C21A C20A 1_555 1_555
H14A C21A 1_555 1_555
H15A C21A 1_555 1_555
C22A C21A 1_555 1_555
H16A C22A 1_555 1_555
H17A C22A 1_555 1_555
C23A C22A 1_555 1_555
H18A C23A 1_555 1_555
H19A C23A 1_555 1_555
C24A C23A 1_555 1_555
N4 C13 1_555 1_555
C4 C5 1_555 1_555
C4 C12 1_555 1_555
C7 C11 1_555 1_555
C9 C10 1_555 1_555
C11 C12 1_555 1_555
C14 C15 1_555 1_555
C17 C18 1_555 1_555
N4A C13A 1_555 1_555
O2A C19A 1_555 1_555
C4A C5A 1_555 1_555
C4A C12A 1_555 1_555
C7A C11A 1_555 1_555
C9A C10A 1_555 1_555
C11A C12A 1_555 1_555
C14A C15A 1_555 1_555
C17A C18A 1_555 1_555

#END
