
#######################################################################
#
#                 Cambridge Crystallographic Data Centre
#                                CCDC 
#
#######################################################################
#
# If this CIF has been generated from an entry in the Cambridge 
# Structural Database, then it will include bibliographic, chemical, 
# crystal, experimental, refinement or atomic coordinate data resulting 
# from the CCDC's data processing and validation procedures.
#
#######################################################################

data_OQOGAD
_symmetry_cell_setting           triclinic
_symmetry_space_group_name_H-M   'P -1'
_symmetry_Int_Tables_number      2
_space_group_name_Hall           '-P 1'
loop_
_symmetry_equiv_pos_site_id
_symmetry_equiv_pos_as_xyz
1 x,y,z
2 -x,-y,-z
_cell_length_a                   8.3152(18)
_cell_length_b                   10.979(2)
_cell_length_c                   15.348(3)
_cell_angle_alpha                71.650(2)
_cell_angle_beta                 74.849(2)
_cell_angle_gamma                71.484(2)
_cell_volume                     1240.63
loop_
_atom_site_label
_atom_site_type_symbol
_atom_site_fract_x
_atom_site_fract_y
_atom_site_fract_z
Cd1 Cd 1.08349(3) 0.93424(2) 0.779159(14)
Cd2 Cd 1.0000 1.0000 1.0000
N1 N 1.1558(3) 0.8937(2) 0.63119(17)
N2 N 0.8699(3) 0.8473(2) 0.75954(16)
N3 N 0.9685(3) 0.7135(2) 0.42942(17)
H1 H 1.0424 0.7188 0.3782
N4 N 0.7407(3) 0.6647(3) 0.53726(18)
N5 N 0.8986(4) 0.4914(3) 0.2629(2)
O1 O 0.8877(3) 1.1509(2) 0.74086(15)
O2 O 0.8346(3) 1.0440(2) 0.88742(14)
O3 O 0.2077(3) 1.0123(2) 0.86792(15)
O4 O 0.3057(3) 1.0600(3) 0.71839(16)
O5 O 1.1799(3) 0.7353(2) 0.87343(16)
O6 O 1.0585(3) 0.7852(2) 1.01097(17)
C1 C 1.2960(4) 0.9167(3) 0.5698(2)
H2 H 1.3691 0.9512 0.5863
C2 C 1.3385(4) 0.8915(3) 0.4816(2)
H3 H 1.4388 0.9075 0.4412
C3 C 1.2304(4) 0.8431(3) 0.4559(2)
H4 H 1.2544 0.8283 0.3969
C4 C 1.0822(4) 0.8159(3) 0.5197(2)
C5 C 0.9641(4) 0.7584(3) 0.50426(19)
C6 C 0.8241(4) 0.7282(3) 0.5694(2)
C7 C 0.7839(4) 0.7593(3) 0.6581(2)
C8 C 0.6409(4) 0.7344(3) 0.7278(2)
H5 H 0.5636 0.6972 0.7176
C9 C 0.6173(4) 0.7656(3) 0.8110(2)
H6 H 0.5242 0.7495 0.8579
C10 C 0.7348(4) 0.8216(3) 0.8238(2)
H7 H 0.7180 0.8422 0.8804
C11 C 0.8958(4) 0.8170(3) 0.67673(19)
C12 C 1.0480(4) 0.8437(3) 0.60773(19)
C13 C 0.8322(4) 0.6586(3) 0.4525(2)
C14 C 0.9226(5) 0.5545(3) 0.3181(2)
H8 H 1.0287 0.5735 0.3066
C15 C 0.7986(4) 0.5937(3) 0.3918(2)
C16 C 0.6402(5) 0.5652(3) 0.4079(2)
H9 H 0.5525 0.5921 0.4551
C17 C 0.6142(5) 0.4964(3) 0.3531(2)
H10 H 0.5107 0.4738 0.3639
C18 C 0.7469(5) 0.4623(3) 0.2819(2)
H11 H 0.7293 0.4163 0.2451
C19 C 0.8029(4) 1.1471(3) 0.8218(2)
C20 C 0.6609(4) 1.2668(3) 0.8397(2)
H12 H 0.6178 1.3161 0.7823
H13 H 0.7090 1.3240 0.8568
C21 C 0.5087(4) 1.2341(4) 0.9168(3)
H14 H 0.5488 1.1967 0.9760
H15 H 0.4213 1.3163 0.9209
C22 C 0.4258(5) 1.1386(4) 0.9031(2)
H16 H 0.5022 1.0501 0.9172
H17 H 0.3199 1.1380 0.9485
C23 C 0.3843(6) 1.1650(4) 0.8092(3)
H18 H 0.4908 1.1618 0.7641
H19 H 0.3117 1.2547 0.7939
C24 C 0.2958(4) 1.0729(3) 0.7973(2)
C25 C 1.1391(4) 0.7057(3) 0.9611(2)
C26 C 1.1882(4) 0.5601(3) 1.0113(2)
H20 H 1.1594 0.5510 1.0781
H21 H 1.3119 0.5252 0.9953
C27 C 1.0970(4) 0.4791(3) 0.9865(2)
H22 H 1.1271 0.4877 0.9197
H23 H 1.1379 0.3863 1.0175
Cd1A Cd 0.91651(3) 1.06576(2) 1.220841(14)
Cd1_2 Cd 0.08349(3) 0.93424(2) 0.779159(14)
Cd1A_2 Cd 0.91651(3) 0.06576(2) 1.220841(14)
Cd1A_3 Cd 1.91651(3) 1.06576(2) 1.220841(14)
Cd2_2 Cd 0.0000 1.0000 1.0000
Cd2_3 Cd 1.0000 0.0000 1.0000
Cd2_4 Cd 2.0000 1.0000 1.0000
N1A N 0.8442(3) 1.1063(2) 1.36881(17)
N2A N 1.1301(3) 1.1527(2) 1.24046(16)
N3A N 1.0315(3) 1.2865(2) 1.57058(17)
H1A H 0.9576 1.2812 1.6218
N4A N 1.2593(3) 1.3353(3) 1.46274(18)
N5A N 1.1014(4) 1.5086(3) 1.7371(2)
O1A O 1.1123(3) 0.8491(2) 1.25914(15)
O2A O 1.1654(3) 0.9560(2) 1.11258(14)
O3A O 1.7923(3) 0.9877(2) 1.13208(15)
O3_2 O 1.2077(3) 1.0123(2) 0.86792(15)
O3A_2 O 0.7923(3) 0.9877(2) 1.13208(15)
O4A O 1.6943(3) 0.9400(3) 1.28161(16)
O4_2 O 1.3057(3) 1.0600(3) 0.71839(16)
O4A_2 O 0.6943(3) 0.9400(3) 1.28161(16)
O5A O 0.8201(3) 0.2647(2) 1.12657(16)
O5A_2 O 0.8201(3) 1.2647(2) 1.12657(16)
O6A O 0.9415(3) 0.2148(2) 0.98903(17)
O6A_2 O 0.9415(3) 1.2148(2) 0.98903(17)
C1A C 0.7040(4) 1.0833(3) 1.4302(2)
H2A H 0.6309 1.0488 1.4137
C2A C 0.6615(4) 1.1085(3) 1.5184(2)
H3A H 0.5612 1.0925 1.5588
C3A C 0.7696(4) 1.1569(3) 1.5441(2)
H4A H 0.7456 1.1717 1.6031
C4A C 0.9178(4) 1.1841(3) 1.4803(2)
C5A C 1.0359(4) 1.2416(3) 1.49574(19)
C6A C 1.1759(4) 1.2718(3) 1.4306(2)
C7A C 1.2161(4) 1.2407(3) 1.3419(2)
C8A C 1.3591(4) 1.2656(3) 1.2722(2)
H5A H 1.4364 1.3028 1.2824
C9A C 1.3827(4) 1.2344(3) 1.1890(2)
H6A H 1.4758 1.2505 1.1421
C10A C 1.2652(4) 1.1784(3) 1.1762(2)
H7A H 1.2820 1.1578 1.1196
C11A C 1.1042(4) 1.1830(3) 1.32327(19)
C12A C 0.9520(4) 1.1563(3) 1.39227(19)
C13A C 1.1678(4) 1.3414(3) 1.5475(2)
C14A C 1.0774(5) 1.4455(3) 1.6819(2)
H8A H 0.9713 1.4265 1.6934
C15A C 1.2014(4) 1.4063(3) 1.6082(2)
C16A C 1.3598(5) 1.4348(3) 1.5921(2)
H9A H 1.4475 1.4079 1.5449
C17A C 1.3858(5) 1.5036(3) 1.6469(2)
H10A H 1.4893 1.5262 1.6361
C18A C 1.2531(5) 1.5377(3) 1.7181(2)
H11A H 1.2707 1.5837 1.7549
C19A C 1.1971(4) 0.8529(3) 1.1782(2)
C20A C 1.3391(4) 0.7332(3) 1.1603(2)
H12A H 1.3822 0.6839 1.2177
H13A H 1.2910 0.6760 1.1432
C21A C 1.4913(4) 0.7659(4) 1.0832(3)
H14A H 1.4512 0.8033 1.0240
H15A H 1.5787 0.6837 1.0791
C22A C 1.5742(5) 0.8614(4) 1.0969(2)
H16A H 1.4978 0.9499 1.0828
H17A H 1.6801 0.8620 1.0515
C23A C 1.6157(6) 0.8350(4) 1.1908(3)
H18A H 1.5092 0.8382 1.2359
H19A H 1.6883 0.7453 1.2061
C24A C 1.7042(4) 0.9271(3) 1.2027(2)
C25A C 0.8609(4) 0.2943(3) 1.0389(2)
C26A C 0.8118(4) 0.4399(3) 0.9887(2)
H20A H 0.8406 0.4490 0.9219
H21A H 0.6881 0.4748 1.0047
C27A C 0.9030(4) 0.5209(3) 1.0135(2)
H22A H 0.8729 0.5123 1.0803
H23A H 0.8621 0.6137 0.9825
loop_
_geom_bond_atom_site_label_1
_geom_bond_atom_site_label_2
_geom_bond_site_symmetry_1
_geom_bond_site_symmetry_2
Cd1 N1 1_555 1_555
Cd2 O2 1_555 1_555
N1 C1 1_555 1_555
N2 Cd1 1_555 1_555
N3 H1 1_555 1_555
N4 C6 1_555 1_555
N5 C14 1_555 1_555
O1 Cd1 1_555 1_555
O2 Cd1 1_555 1_555
O3 C24 1_555 1_555
O4 C24 1_555 1_555
O5 Cd1 1_555 1_555
O6 Cd2 1_555 1_555
C1 H2 1_555 1_555
C2 C1 1_555 1_555
H3 C2 1_555 1_555
C3 C2 1_555 1_555
H4 C3 1_555 1_555
C4 C3 1_555 1_555
C5 N3 1_555 1_555
C6 C5 1_555 1_555
C7 C6 1_555 1_555
C8 C7 1_555 1_555
H5 C8 1_555 1_555
C9 C8 1_555 1_555
H6 C9 1_555 1_555
C10 N2 1_555 1_555
H7 C10 1_555 1_555
C11 N2 1_555 1_555
C12 N1 1_555 1_555
C13 N3 1_555 1_555
C14 H8 1_555 1_555
C15 C13 1_555 1_555
C16 C15 1_555 1_555
H9 C16 1_555 1_555
C17 C16 1_555 1_555
H10 C17 1_555 1_555
C18 N5 1_555 1_555
H11 C18 1_555 1_555
C19 O1 1_555 1_555
C20 C19 1_555 1_555
H12 C20 1_555 1_555
H13 C20 1_555 1_555
C21 C20 1_555 1_555
H14 C21 1_555 1_555
H15 C21 1_555 1_555
C22 C21 1_555 1_555
H16 C22 1_555 1_555
H17 C22 1_555 1_555
C23 C22 1_555 1_555
H18 C23 1_555 1_555
H19 C23 1_555 1_555
C24 C23 1_555 1_555
C25 O5 1_555 1_555
C26 C25 1_555 1_555
H20 C26 1_555 1_555
H21 C26 1_555 1_555
C27 C26 1_555 1_555
H22 C27 1_555 1_555
H23 C27 1_555 1_555
Cd1A N1A 1_555 1_555
Cd1_2 O3 1_555 1_555
Cd1A_2 O5A 1_555 1_555
Cd1A_3 O3A 1_555 1_555
Cd2_2 O3 1_555 1_555
Cd2_3 O6A 1_555 1_555
Cd2_4 O3A 1_555 1_555
N1A C1A 1_555 1_555
N2A Cd1A 1_555 1_555
N3A H1A 1_555 1_555
N4A C6A 1_555 1_555
N5A C14A 1_555 1_555
O1A Cd1A 1_555 1_555
O2A Cd2 1_555 1_555
O3A C24A 1_555 1_555
O3_2 Cd1 1_555 1_555
O3A_2 Cd2 1_555 1_555
O4A Cd1A_3 1_555 1_555
O4_2 Cd1 1_555 1_555
O4A_2 Cd1A 1_555 1_555
O5A C25A 1_555 1_555
O5A_2 Cd1A 1_555 1_555
O6A C25A 1_555 1_555
O6A_2 Cd2 1_555 1_555
C1A H2A 1_555 1_555
C2A C1A 1_555 1_555
H3A C2A 1_555 1_555
C3A C2A 1_555 1_555
H4A C3A 1_555 1_555
C4A C3A 1_555 1_555
C5A N3A 1_555 1_555
C6A C5A 1_555 1_555
C7A C6A 1_555 1_555
C8A C7A 1_555 1_555
H5A C8A 1_555 1_555
C9A C8A 1_555 1_555
H6A C9A 1_555 1_555
C10A N2A 1_555 1_555
H7A C10A 1_555 1_555
C11A N2A 1_555 1_555
C12A N1A 1_555 1_555
C13A N3A 1_555 1_555
C14A H8A 1_555 1_555
C15A C13A 1_555 1_555
C16A C15A 1_555 1_555
H9A C16A 1_555 1_555
C17A C16A 1_555 1_555
H10A C17A 1_555 1_555
C18A N5A 1_555 1_555
H11A C18A 1_555 1_555
C19A O1A 1_555 1_555
C20A C19A 1_555 1_555
H12A C20A 1_555 1_555
H13A C20A 1_555 1_555
C21A C20A 1_555 1_555
H14A C21A 1_555 1_555
H15A C21A 1_555 1_555
C22A C21A 1_555 1_555
H16A C22A 1_555 1_555
H17A C22A 1_555 1_555
C23A C22A 1_555 1_555
H18A C23A 1_555 1_555
H19A C23A 1_555 1_555
C24A O4A 1_555 1_555
C25A C26A 1_555 1_555
C26A H20A 1_555 1_555
H21A C26A 1_555 1_555
C27A C27 1_555 1_555
H22A C27A 1_555 1_555
H23A C27A 1_555 1_555
Cd2 O3_2 1_555 1_555
N4 C13 1_555 1_555
O2 C19 1_555 1_555
O4 Cd1_2 1_555 1_555
O6 C25 1_555 1_555
C4 C5 1_555 1_555
C4 C12 1_555 1_555
C7 C11 1_555 1_555
C9 C10 1_555 1_555
C11 C12 1_555 1_555
C14 C15 1_555 1_555
C17 C18 1_555 1_555
Cd1A O2A 1_555 1_555
Cd1A O3A_2 1_555 1_555
N4A C13A 1_555 1_555
O2A C19A 1_555 1_555
C4A C5A 1_555 1_555
C4A C12A 1_555 1_555
C7A C11A 1_555 1_555
C9A C10A 1_555 1_555
C11A C12A 1_555 1_555
C14A C15A 1_555 1_555
C17A C18A 1_555 1_555
C23A C24A 1_555 1_555
C26A C27A 1_555 1_555

#END
