
#######################################################################
#
#                 Cambridge Crystallographic Data Centre
#                                CCDC 
#
#######################################################################
#
# If this CIF has been generated from an entry in the Cambridge 
# Structural Database, then it will include bibliographic, chemical, 
# crystal, experimental, refinement or atomic coordinate data resulting 
# from the CCDC's data processing and validation procedures.
#
#######################################################################

data_OQOGUX
_symmetry_cell_setting           triclinic
_symmetry_space_group_name_H-M   'P -1'
_symmetry_Int_Tables_number      2
_space_group_name_Hall           '-P 1'
loop_
_symmetry_equiv_pos_site_id
_symmetry_equiv_pos_as_xyz
1 x,y,z
2 -x,-y,-z
_cell_length_a                   11.016(3)
_cell_length_b                   12.427(4)
_cell_length_c                   12.547(4)
_cell_angle_alpha                61.504(4)
_cell_angle_beta                 80.036(4)
_cell_angle_gamma                64.748(3)
_cell_volume                     1364.28
loop_
_atom_site_label
_atom_site_type_symbol
_atom_site_fract_x
_atom_site_fract_y
_atom_site_fract_z
C1 C 0.5539(6) 0.0994(4) 0.7163(4)
H1 H 0.5458 0.0477 0.7983
C2 C 0.6211(7) 0.0391(5) 0.6434(5)
H2 H 0.6604 -0.0535 0.6780
C3 C 0.6320(5) 0.1114(5) 0.5211(4)
C4 C 0.5835(5) 0.2469(5) 0.4754(4)
H3 H 0.5958 0.2980 0.3943
C5 C 0.5170(5) 0.3094(4) 0.5466(4)
H4 H 0.4839 0.4019 0.5133
C6 C 0.4991(4) 0.2350(3) 0.6680(3)
C7 C 0.6983(8) 0.0449(7) 0.4396(6)
H5 H 0.7899 0.0363 0.4289
H6 H 0.6511 0.0982 0.3622
H7 H 0.6961 -0.0419 0.4762
C8 C 0.5560(3) 0.2182(3) 0.9475(3)
H8 H 0.5859 0.2881 0.8881
C9 C 0.6744(3) 0.0835(3) 0.9886(3)
C10 C 0.5060(4) 0.2429(4) 1.0633(4)
H9 H 0.4685 0.1788 1.1185
H10 H 0.5824 0.2280 1.1048
C11 C 0.4045(4) 0.3782(4) 1.0328(4)
H11 H 0.3321 0.3960 0.9845
H12 H 0.4447 0.4419 0.9836
C12 C 0.3474(5) 0.3987(5) 1.1422(5)
C13 C 0.2522(7) 0.5425(7) 1.2281(7)
H13 H 0.1853 0.5058 1.2585
H14 H 0.2104 0.6372 1.2005
H15 H 0.3179 0.5028 1.2916
C14 C 0.9012(4) 0.1550(4) 0.7347(3)
H16 H 0.8364 0.1200 0.7691
C15 C 0.8908(4) 0.2371(5) 0.6121(3)
H17 H 0.8193 0.2575 0.5661
C16 C 0.9869(4) 0.2902(3) 0.5562(3)
C17 C 1.0894(4) 0.2530(3) 0.6321(3)
H18 H 1.1580 0.2831 0.6000
C18 C 1.0914(3) 0.1721(3) 0.7544(3)
H19 H 1.1612 0.1508 0.8028
C19 C 0.9794(5) 0.3780(4) 0.4218(3)
H20 H 0.8974 0.4580 0.4009
H21 H 1.0546 0.4047 0.4003
C20 C 0.9819(5) 0.3099(4) 0.3491(3)
H22 H 0.9116 0.2762 0.3762
H23 H 1.0671 0.2338 0.3658
C21 C 0.9632(4) 0.3980(3) 0.2128(3)
H24 H 0.8777 0.4741 0.1947
H25 H 1.0339 0.4312 0.1841
C22 C 0.9669(3) 0.3212(3) 0.1483(3)
C23 C 0.8670(4) 0.2771(4) 0.1616(4)
H26 H 0.7916 0.3016 0.2050
C24 C 0.8791(4) 0.1966(4) 0.1103(4)
H27 H 0.8104 0.1683 0.1207
C25 C 1.0753(4) 0.2049(4) 0.0302(3)
H28 H 1.1474 0.1835 -0.0174
C26 C 1.0700(4) 0.2845(4) 0.0794(3)
H29 H 1.1386 0.3139 0.0651
N1 N 0.4439(2) 0.2241(2) 0.8936(2)
H30 H 0.4014 0.1750 0.9398
N2 N 0.9992(2) 0.1228(3) 0.8070(2)
N3 N 0.9832(3) 0.1572(3) 0.0470(2)
O1 O 0.78639(19) 0.0870(2) 0.9870(2)
O2 O 0.6505(2) -0.0164(2) 1.0255(2)
O3 O 0.4166(3) 0.4363(2) 0.7141(3)
O4 O 0.2644(2) 0.3253(2) 0.7457(3)
O5 O 0.3237(6) 0.3161(4) 1.2320(4)
O6 O 0.3165(5) 0.5152(4) 1.1290(4)
S1 S 0.39651(8) 0.31665(7) 0.75405(8)
Zn1 Zn 1.0000 0.0000 1.0000
C1A C 1.4461(6) -0.0994(4) 1.2837(4)
H1A H 1.4542 -0.0477 1.2017
C2A C 1.3789(7) -0.0391(5) 1.3566(5)
H2A H 1.3396 0.0535 1.3220
C3A C 1.3680(5) -0.1114(5) 1.4789(4)
C4A C 1.4165(5) -0.2469(5) 1.5246(4)
H3A H 1.4042 -0.2980 1.6057
C5A C 1.4830(5) -0.3094(4) 1.4534(4)
H4A H 1.5161 -0.4019 1.4867
C6A C 1.5009(4) -0.2350(3) 1.3320(3)
C7A C 1.3017(8) -0.0449(7) 1.5604(6)
H5A H 1.2101 -0.0363 1.5711
H6A H 1.3489 -0.0982 1.6378
H7A H 1.3039 0.0419 1.5238
C8A C 1.4440(3) -0.2182(3) 1.0525(3)
H8A H 1.4141 -0.2881 1.1119
C9A C 1.3256(3) -0.0835(3) 1.0114(3)
C10A C 1.4940(4) -0.2429(4) 0.9367(4)
H9A H 1.5315 -0.1788 0.8815
H10A H 1.4176 -0.2280 0.8952
C11A C 1.5955(4) -0.3782(4) 0.9672(4)
H11A H 1.6679 -0.3960 1.0155
H12A H 1.5553 -0.4419 1.0164
C12A C 1.6526(5) -0.3987(5) 0.8578(5)
C13A C 1.7478(7) -0.5425(7) 0.7719(7)
H13A H 1.8147 -0.5058 0.7415
H14A H 1.7896 -0.6372 0.7995
H15A H 1.6821 -0.5028 0.7084
C14A C 1.0988(4) -0.1550(4) 0.2653(3)
H16A H 1.1636 -0.1200 0.2309
C15A C 1.1092(4) -0.2371(5) 0.3879(3)
H17A H 1.1807 -0.2575 0.4339
C16A C 1.0131(4) -0.2902(3) 0.4438(3)
C17A C 0.9106(4) -0.2530(3) 0.3679(3)
H18A H 0.8420 -0.2831 0.4000
C18A C 0.9086(3) -0.1721(3) 0.2456(3)
H19A H 0.8388 -0.1508 0.1972
C19A C 1.0206(5) -0.3780(4) 0.5782(3)
H20A H 1.1026 -0.4580 0.5991
H21A H 0.9454 -0.4047 0.5997
C20A C 1.0181(5) -0.3099(4) 0.6509(3)
H22A H 1.0884 -0.2762 0.6238
H23A H 0.9329 -0.2338 0.6342
C21A C 1.0368(4) -0.3980(3) 0.7872(3)
H24A H 1.1223 -0.4741 0.8053
H25A H 0.9661 -0.4312 0.8159
C22A C 1.0331(3) -0.3212(3) 0.8517(3)
C23A C 1.1330(4) -0.2771(4) 0.8384(4)
H26A H 1.2084 -0.3016 0.7950
C24A C 1.1209(4) -0.1966(4) 0.8897(4)
H27A H 1.1896 -0.1683 0.8793
C25A C 0.9247(4) -0.2049(4) 0.9698(3)
H28A H 0.8526 -0.1835 1.0174
C26A C 0.9300(4) -0.2845(4) 0.9206(3)
H29A H 0.8614 -0.3139 0.9349
N1A N 1.5561(2) -0.2241(2) 1.1064(2)
H30A H 1.5986 -0.1750 1.0602
N2A N 1.0008(2) -0.1228(3) 0.1930(2)
N2A_2 N 1.0008(2) -0.1228(3) 1.1930(2)
N3A N 1.0168(3) -0.1572(3) 0.9530(2)
N3_2 N 0.9832(3) 0.1572(3) 1.0470(2)
O1A O 1.21361(19) -0.0870(2) 1.0130(2)
O2A O 1.3495(2) 0.0164(2) 0.9745(2)
O3A O 1.5834(3) -0.4363(2) 1.2859(3)
O4A O 1.7356(2) -0.3253(2) 1.2543(3)
O5A O 1.6763(6) -0.3161(4) 0.7680(4)
O6A O 1.6835(5) -0.5152(4) 0.8710(4)
S1A S 1.60349(8) -0.31665(7) 1.24595(8)
Zn1_2 Zn 1.0000 0.0000 0.0000
loop_
_geom_bond_atom_site_label_1
_geom_bond_atom_site_label_2
_geom_bond_site_symmetry_1
_geom_bond_site_symmetry_2
C1 H1 1_555 1_555
C2 C1 1_555 1_555
H2 C2 1_555 1_555
C3 C2 1_555 1_555
C4 C3 1_555 1_555
H3 C4 1_555 1_555
C5 C4 1_555 1_555
H4 C5 1_555 1_555
C6 C1 1_555 1_555
C7 C3 1_555 1_555
H5 C7 1_555 1_555
H6 C7 1_555 1_555
H7 C7 1_555 1_555
C8 H8 1_555 1_555
C9 C8 1_555 1_555
C10 C8 1_555 1_555
H9 C10 1_555 1_555
H10 C10 1_555 1_555
C11 C10 1_555 1_555
H11 C11 1_555 1_555
H12 C11 1_555 1_555
C12 C11 1_555 1_555
C13 H13 1_555 1_555
H14 C13 1_555 1_555
H15 C13 1_555 1_555
C14 H16 1_555 1_555
C15 C14 1_555 1_555
H17 C15 1_555 1_555
C16 C15 1_555 1_555
C17 C16 1_555 1_555
H18 C17 1_555 1_555
C18 C17 1_555 1_555
H19 C18 1_555 1_555
C19 C16 1_555 1_555
H20 C19 1_555 1_555
H21 C19 1_555 1_555
C20 C19 1_555 1_555
H22 C20 1_555 1_555
H23 C20 1_555 1_555
C21 C20 1_555 1_555
H24 C21 1_555 1_555
H25 C21 1_555 1_555
C22 C21 1_555 1_555
C23 C22 1_555 1_555
H26 C23 1_555 1_555
C24 C23 1_555 1_555
H27 C24 1_555 1_555
C25 H28 1_555 1_555
C26 C22 1_555 1_555
H29 C26 1_555 1_555
N1 C8 1_555 1_555
H30 N1 1_555 1_555
N2 C14 1_555 1_555
N3 C24 1_555 1_555
O1 C9 1_555 1_555
O2 C9 1_555 1_555
O3 S1 1_555 1_555
O4 S1 1_555 1_555
O5 C12 1_555 1_555
O6 C12 1_555 1_555
S1 C6 1_555 1_555
Zn1 N2 1_555 1_555
C1A H1A 1_555 1_555
C2A C1A 1_555 1_555
H2A C2A 1_555 1_555
C3A C2A 1_555 1_555
C4A C3A 1_555 1_555
H3A C4A 1_555 1_555
C5A C4A 1_555 1_555
H4A C5A 1_555 1_555
C6A C1A 1_555 1_555
C7A C3A 1_555 1_555
H5A C7A 1_555 1_555
H6A C7A 1_555 1_555
H7A C7A 1_555 1_555
C8A H8A 1_555 1_555
C9A C8A 1_555 1_555
C10A C8A 1_555 1_555
H9A C10A 1_555 1_555
H10A C10A 1_555 1_555
C11A C10A 1_555 1_555
H11A C11A 1_555 1_555
H12A C11A 1_555 1_555
C12A C11A 1_555 1_555
C13A H13A 1_555 1_555
H14A C13A 1_555 1_555
H15A C13A 1_555 1_555
C14A H16A 1_555 1_555
C15A C14A 1_555 1_555
H17A C15A 1_555 1_555
C16A C15A 1_555 1_555
C17A C16A 1_555 1_555
H18A C17A 1_555 1_555
C18A C17A 1_555 1_555
H19A C18A 1_555 1_555
C19A C16A 1_555 1_555
H20A C19A 1_555 1_555
H21A C19A 1_555 1_555
C20A C19A 1_555 1_555
H22A C20A 1_555 1_555
H23A C20A 1_555 1_555
C21A C20A 1_555 1_555
H24A C21A 1_555 1_555
H25A C21A 1_555 1_555
C22A C21A 1_555 1_555
C23A C22A 1_555 1_555
H26A C23A 1_555 1_555
C24A C23A 1_555 1_555
H27A C24A 1_555 1_555
C25A H28A 1_555 1_555
C26A C22A 1_555 1_555
H29A C26A 1_555 1_555
N1A C8A 1_555 1_555
H30A N1A 1_555 1_555
N2A C14A 1_555 1_555
N2A_2 Zn1 1_555 1_555
N3A Zn1 1_555 1_555
N3_2 Zn1 1_555 1_555
O1A Zn1 1_555 1_555
O2A C9A 1_555 1_555
O3A S1A 1_555 1_555
O4A S1A 1_555 1_555
O5A C12A 1_555 1_555
O6A C12A 1_555 1_555
S1A C6A 1_555 1_555
Zn1_2 N3 1_555 1_555
C5 C6 1_555 1_555
C13 O6 1_555 1_555
C18 N2 1_555 1_555
C25 C26 1_555 1_555
C25 N3 1_555 1_555
N1 S1 1_555 1_555
O1 Zn1 1_555 1_555
C5A C6A 1_555 1_555
C9A O1A 1_555 1_555
C13A O6A 1_555 1_555
C18A N2A 1_555 1_555
C24A N3A 1_555 1_555
C25A C26A 1_555 1_555
C25A N3A 1_555 1_555
N1A S1A 1_555 1_555
N2A Zn1_2 1_555 1_555

#END
