
#######################################################################
#
#                 Cambridge Crystallographic Data Centre
#                                CCDC 
#
#######################################################################
#
# If this CIF has been generated from an entry in the Cambridge 
# Structural Database, then it will include bibliographic, chemical, 
# crystal, experimental, refinement or atomic coordinate data resulting 
# from the CCDC's data processing and validation procedures.
#
#######################################################################

data_OQOXEY
_symmetry_cell_setting           monoclinic
_symmetry_space_group_name_H-M   'C 2/c'
_symmetry_Int_Tables_number      15
_space_group_name_Hall           '-C 2yn'
loop_
_symmetry_equiv_pos_site_id
_symmetry_equiv_pos_as_xyz
1 x,y,z
2 -x,y,1/2-z
3 1/2+x,1/2+y,z
4 1/2-x,1/2+y,1/2-z
5 -x,-y,-z
6 x,-y,1/2+z
7 1/2-x,1/2-y,-z
8 1/2+x,1/2-y,1/2+z
_cell_length_a                   28.054(2)
_cell_length_b                   11.8098(10)
_cell_length_c                   16.9995(14)
_cell_angle_alpha                90
_cell_angle_beta                 96.1840(10)
_cell_angle_gamma                90
_cell_volume                     5599.37
loop_
_atom_site_label
_atom_site_type_symbol
_atom_site_fract_x
_atom_site_fract_y
_atom_site_fract_z
Cd1 Cd 0.073007(6) 0.121560(12) 0.255827(9)
Cd2 Cd 0.177494(6) -0.073597(14) 0.469702(10)
N1 N 0.07014(7) 0.92354(15) 0.24857(12)
N2 N 0.07817(7) 0.31972(15) 0.25858(11)
O1 O 0.00407(6) 0.13520(16) 0.33100(10)
O2 O -0.06022(6) 0.12751(17) 0.39162(11)
O3 O 0.10884(8) 0.08145(16) 0.38317(11)
O4 O 0.14583(10) 0.08594(19) 0.50302(14)
O5 O 0.18514(7) -0.08312(14) 0.33462(10)
O6 O 0.20489(7) -0.23212(15) 0.40741(10)
O7 O 0.24343(6) -0.46834(15) 0.47419(10)
O8 O 0.29139(6) -0.39377(15) 0.39381(10)
O9 O 0.15348(6) 0.10592(17) 0.23618(11)
H1 H 0.1702 0.1167 0.2001
H2 H 0.1667 0.0725 0.2742
O10 O 0.11546(6) -0.19638(17) 0.49501(11)
H3 H 0.0991 -0.1691 0.5282
H4 H 0.1347 -0.2430 0.5168
C1 C 0.09546(8) 0.23830(18) 0.46794(13)
C2 C 0.04756(8) 0.24236(19) 0.48289(13)
C3 C 0.02934(10) 0.3443(2) 0.50936(16)
C4 C 0.05781(12) 0.4396(2) 0.51909(19)
C5 C 0.10534(12) 0.4363(2) 0.5018(2)
C6 C 0.12444(10) 0.3347(2) 0.47684(17)
C7 C 0.11815(8) 0.12776(19) 0.44807(14)
C8 C 0.01489(9) 0.1394(2) 0.47434(14)
C9 C -0.01557(8) 0.13414(18) 0.39404(13)
C10 C 0.05136(9) 0.38113(19) 0.30322(15)
H7 H 0.0317 0.3430 0.3351
C11 C 0.05125(9) 0.49787(19) 0.30445(14)
H8 H 0.0325 0.5361 0.3377
C12 C 0.07910(8) 0.55904(18) 0.25616(13)
C13 C 0.10723(8) 0.49508(19) 0.20986(14)
H9 H 0.1267 0.5312 0.1767
C14 C 0.10622(9) 0.37795(19) 0.21310(15)
H10 H 0.1258 0.3375 0.1824
C15 C 0.07723(8) 0.68563(18) 0.25377(13)
C16 C 0.06184(11) 0.7477(2) 0.31565(15)
H11 H 0.0537 0.7106 0.3605
C17 C 0.05863(11) 0.8638(2) 0.31090(16)
H12 H 0.0479 0.9030 0.3531
C18 C 0.08610(9) 0.86473(19) 0.18911(14)
H13 H 0.0949 0.9043 0.1456
C19 C 0.09010(9) 0.74744(19) 0.18949(14)
H14 H 0.1013 0.7103 0.1469
C20 C 0.21020(8) -0.24831(19) 0.26849(13)
C21 C 0.21585(8) -0.36664(19) 0.26833(14)
C22 C 0.22535(9) -0.4181(2) 0.19752(15)
H15 H 0.2285 -0.4965 0.1959
C23 C 0.23018(10) -0.3560(3) 0.13002(15)
H16 H 0.2375 -0.3924 0.0843
C24 C 0.22420(10) -0.2393(2) 0.13030(15)
H17 H 0.2271 -0.1972 0.0849
C25 C 0.21384(9) -0.1866(2) 0.19894(14)
H18 H 0.2092 -0.1087 0.1990
C26 C 0.19941(8) -0.18438(19) 0.34088(13)
C27 C 0.21054(9) -0.44033(19) 0.33979(14)
H19 H 0.2079 -0.5186 0.3225
H20 H 0.1807 -0.4205 0.3605
C28 C 0.25087(8) -0.43184(18) 0.40659(14)
Cd1A Cd -0.073007(6) 0.121560(12) 0.244173(9)
Cd1_2 Cd 0.073007(6) 1.121560(12) 0.255827(9)
Cd1A_2 Cd -0.073007(6) 1.121560(12) 0.244173(9)
Cd2A Cd -0.177494(6) -0.073597(14) 0.030298(10)
Cd2F Cd 0.322506(6) -0.426403(14) 0.530298(10)
Cd2G Cd -0.322506(6) -0.426403(14) -0.030298(10)
N1A N -0.07014(7) 0.92354(15) 0.25143(12)
N1_2 N 0.07014(7) -0.07646(15) 0.24857(12)
N1A_2 N -0.07014(7) -0.07646(15) 0.25143(12)
N2A N -0.07817(7) 0.31972(15) 0.24142(11)
O1A O -0.00407(6) 0.13520(16) 0.16900(10)
O2A O 0.06022(6) 0.12751(17) 0.10838(11)
O3A O -0.10884(8) 0.08145(16) 0.11683(11)
O4A O -0.14583(10) 0.08594(19) -0.00302(14)
O5A O -0.18514(7) -0.08312(14) 0.16538(10)
O6A O -0.20489(7) -0.23212(15) 0.09259(10)
O7A O -0.24343(6) -0.46834(15) 0.02581(10)
O7F O 0.25657(6) -0.03166(15) 0.52581(10)
O7G O -0.25657(6) -0.03166(15) -0.02581(10)
O8A O -0.29139(6) -0.39377(15) 0.10619(10)
O8F O 0.20861(6) -0.10623(15) 0.60619(10)
O8G O -0.20861(6) -0.10623(15) -0.10619(10)
O9A O -0.15348(6) 0.10592(17) 0.26382(11)
H1A H -0.1702 0.1167 0.2999
H2A H -0.1667 0.0725 0.2258
O10A O -0.11546(6) -0.19638(17) 0.00499(11)
H3A H -0.0991 -0.1691 -0.0282
H4A H -0.1347 -0.2430 -0.0168
C1A C -0.09546(8) 0.23830(18) 0.03206(13)
C2A C -0.04756(8) 0.24236(19) 0.01711(13)
C3A C -0.02934(10) 0.3443(2) -0.00936(16)
C4A C -0.05781(12) 0.4396(2) -0.01909(19)
C5A C -0.10534(12) 0.4363(2) -0.0018(2)
C6A C -0.12444(10) 0.3347(2) 0.02316(17)
C7A C -0.11815(8) 0.12776(19) 0.05193(14)
C8A C -0.01489(9) 0.1394(2) 0.02566(14)
C9A C 0.01557(8) 0.13414(18) 0.10596(13)
C10A C -0.05136(9) 0.38113(19) 0.19678(15)
H7A H -0.0317 0.3430 0.1649
C11A C -0.05125(9) 0.49787(19) 0.19555(14)
H8A H -0.0325 0.5361 0.1623
C12A C -0.07910(8) 0.55904(18) 0.24384(13)
C13A C -0.10723(8) 0.49508(19) 0.29014(14)
H9A H -0.1267 0.5312 0.3233
C14A C -0.10622(9) 0.37795(19) 0.28690(15)
H10A H -0.1258 0.3375 0.3176
C15A C -0.07723(8) 0.68563(18) 0.24623(13)
C16A C -0.06184(11) 0.7477(2) 0.18435(15)
H11A H -0.0537 0.7106 0.1395
C17A C -0.05863(11) 0.8638(2) 0.18910(16)
H12A H -0.0479 0.9030 0.1469
C18A C -0.08610(9) 0.86473(19) 0.31089(14)
H13A H -0.0949 0.9043 0.3544
C19A C -0.09010(9) 0.74744(19) 0.31051(14)
H14A H -0.1013 0.7103 0.3531
C20A C -0.21020(8) -0.24831(19) 0.23151(13)
C21A C -0.21585(8) -0.36664(19) 0.23167(14)
C22A C -0.22535(9) -0.4181(2) 0.30248(15)
H15A H -0.2285 -0.4965 0.3041
C23A C -0.23018(10) -0.3560(3) 0.36998(15)
H16A H -0.2375 -0.3924 0.4157
C24A C -0.22420(10) -0.2393(2) 0.36970(15)
H17A H -0.2271 -0.1972 0.4151
C25A C -0.21384(9) -0.1866(2) 0.30106(14)
H18A H -0.2092 -0.1087 0.3010
C26A C -0.19941(8) -0.18438(19) 0.15912(13)
C27A C -0.21054(9) -0.44033(19) 0.16021(14)
H19A H -0.2079 -0.5186 0.1775
H20A H -0.1807 -0.4205 0.1395
C28A C -0.25087(8) -0.43184(18) 0.09341(14)
C28F C 0.24913(8) -0.06816(18) 0.59341(14)
C28G C -0.24913(8) -0.06816(18) -0.09341(14)
O11 O 0.18317(7) 0.65485(16) 0.57171(11)
H5 H 0.2007 0.7044 0.5945
H6 H 0.1978 0.6259 0.5355
loop_
_geom_bond_atom_site_label_1
_geom_bond_atom_site_label_2
_geom_bond_site_symmetry_1
_geom_bond_site_symmetry_2
Cd1 N2 1_555 1_555
Cd2 O4 1_555 1_555
N1 C17 1_555 1_555
N2 C10 1_555 1_555
O1 Cd1 1_555 1_555
O2 C9 1_555 1_555
O3 Cd1 1_555 1_555
O4 C7 1_555 1_555
O5 Cd2 1_555 1_555
O6 Cd2 1_555 1_555
O7 C28 1_555 1_555
O8 C28 1_555 1_555
O9 Cd1 1_555 1_555
H1 O9 1_555 1_555
H2 O9 1_555 1_555
O10 Cd2 1_555 1_555
H3 O10 1_555 1_555
H4 O10 1_555 1_555
O11 H5 1_555 1_555
H6 O11 1_555 1_555
C1 C2 1_555 1_555
C2 C3 1_555 1_555
C3 C4 1_555 1_555
C4 C5 1_555 1_555
C5 C6 1_555 1_555
C6 C1 1_555 1_555
C7 O3 1_555 1_555
C8 C2 1_555 1_555
C9 O1 1_555 1_555
C10 H7 1_555 1_555
C11 C10 1_555 1_555
H8 C11 1_555 1_555
C12 C11 1_555 1_555
C13 C12 1_555 1_555
H9 C13 1_555 1_555
C14 N2 1_555 1_555
H10 C14 1_555 1_555
C15 C12 1_555 1_555
C16 C15 1_555 1_555
H11 C16 1_555 1_555
C17 C16 1_555 1_555
H12 C17 1_555 1_555
C18 N1 1_555 1_555
H13 C18 1_555 1_555
C19 C15 1_555 1_555
H14 C19 1_555 1_555
C20 C21 1_555 1_555
C21 C22 1_555 1_555
C22 H15 1_555 1_555
C23 C22 1_555 1_555
H16 C23 1_555 1_555
C24 C23 1_555 1_555
H17 C24 1_555 1_555
C25 C20 1_555 1_555
H18 C25 1_555 1_555
C26 O5 1_555 1_555
C27 C21 1_555 1_555
H19 C27 1_555 1_555
H20 C27 1_555 1_555
C28 C27 1_555 1_555
Cd1A O1 1_555 1_555
Cd1_2 N1 1_555 1_555
Cd1A_2 N1A 1_555 1_555
Cd2A O4A 1_555 1_555
Cd2F O7 1_555 1_555
Cd2G O7A 1_555 1_555
N1A C17A 1_555 1_555
N1_2 Cd1 1_555 1_555
N1A_2 Cd1A 1_555 1_555
N2A Cd1A 1_555 1_555
O1A Cd1 1_555 1_555
O2A Cd1 1_555 1_555
O3A Cd1A 1_555 1_555
O4A C7A 1_555 1_555
O5A Cd2A 1_555 1_555
O6A Cd2A 1_555 1_555
O7A C28A 1_555 1_555
O7F Cd2 1_555 1_555
O7G Cd2A 1_555 1_555
O8A Cd2G 1_555 1_555
O8F Cd2 1_555 1_555
O8G Cd2A 1_555 1_555
O9A Cd1A 1_555 1_555
H1A O9A 1_555 1_555
H2A O9A 1_555 1_555
O10A Cd2A 1_555 1_555
H3A O10A 1_555 1_555
H4A O10A 1_555 1_555
C1A C2A 1_555 1_555
C2A C3A 1_555 1_555
C3A C4A 1_555 1_555
C4A C5A 1_555 1_555
C5A C6A 1_555 1_555
C6A C1A 1_555 1_555
C7A O3A 1_555 1_555
C8A C2A 1_555 1_555
C9A O1A 1_555 1_555
C10A N2A 1_555 1_555
H7A C10A 1_555 1_555
C11A C10A 1_555 1_555
H8A C11A 1_555 1_555
C12A C11A 1_555 1_555
C13A C12A 1_555 1_555
H9A C13A 1_555 1_555
C14A N2A 1_555 1_555
H10A C14A 1_555 1_555
C15A C12A 1_555 1_555
C16A C15A 1_555 1_555
H11A C16A 1_555 1_555
C17A C16A 1_555 1_555
H12A C17A 1_555 1_555
C18A N1A 1_555 1_555
H13A C18A 1_555 1_555
C19A C15A 1_555 1_555
H14A C19A 1_555 1_555
C20A C21A 1_555 1_555
C21A C22A 1_555 1_555
C22A H15A 1_555 1_555
C23A C22A 1_555 1_555
H16A C23A 1_555 1_555
C24A C23A 1_555 1_555
H17A C24A 1_555 1_555
C25A C20A 1_555 1_555
H18A C25A 1_555 1_555
C26A O5A 1_555 1_555
C27A C21A 1_555 1_555
H19A C27A 1_555 1_555
H20A C27A 1_555 1_555
C28A O8A 1_555 1_555
C28F O7F 1_555 1_555
C28G O7G 1_555 1_555
O2 Cd1A 1_555 1_555
O6 C26 1_555 1_555
O8 Cd2F 1_555 1_555
C1 C7 1_555 1_555
C8 C9 1_555 1_555
C13 C14 1_555 1_555
C18 C19 1_555 1_555
C20 C26 1_555 1_555
C24 C25 1_555 1_555
Cd1A O1A 1_555 1_555
O2A C9A 1_555 1_555
O6A C26A 1_555 1_555
O8F C28F 1_555 1_555
O8G C28G 1_555 1_555
C1A C7A 1_555 1_555
C8A C9A 1_555 1_555
C13A C14A 1_555 1_555
C18A C19A 1_555 1_555
C20A C26A 1_555 1_555
C24A C25A 1_555 1_555
C27A C28A 1_555 1_555

#END
