
#######################################################################
#
#                 Cambridge Crystallographic Data Centre
#                                CCDC 
#
#######################################################################
#
# If this CIF has been generated from an entry in the Cambridge 
# Structural Database, then it will include bibliographic, chemical, 
# crystal, experimental, refinement or atomic coordinate data resulting 
# from the CCDC's data processing and validation procedures.
#
#######################################################################

data_OQOXIC
_symmetry_cell_setting           monoclinic
_symmetry_space_group_name_H-M   'P 21/c'
_symmetry_Int_Tables_number      14
_space_group_name_Hall           '-P 2ybc'
loop_
_symmetry_equiv_pos_site_id
_symmetry_equiv_pos_as_xyz
1 x,y,z
2 -x,1/2+y,1/2-z
3 -x,-y,-z
4 x,1/2-y,1/2+z
_cell_length_a                   8.419(5)
_cell_length_b                   20.234(11)
_cell_length_c                   10.666(6)
_cell_angle_alpha                90
_cell_angle_beta                 103.340(7)
_cell_angle_gamma                90
_cell_volume                     1767.93
loop_
_atom_site_label
_atom_site_type_symbol
_atom_site_fract_x
_atom_site_fract_y
_atom_site_fract_z
Zn1 Zn 0.17036(8) 0.41707(3) 1.00501(8)
N1 N 0.3489(6) 0.3509(2) 1.0846(6)
N2 N 0.9863(5) 0.1375(2) 1.3958(5)
O1 O 0.2544(5) 0.48069(18) 0.9009(4)
O2 O 0.3214(6) 0.4011(2) 0.7795(6)
O3 O -0.1126(5) 0.53006(18) 0.8598(4)
O4 O -0.0180(5) 0.6244(2) 0.8012(5)
C1 C 0.3004(9) 0.5115(4) 0.7015(7)
C2 C 0.1597(10) 0.5466(4) 0.6451(6)
C3 C 0.1704(12) 0.5968(4) 0.5583(7)
H1 H 0.0782 0.6205 0.5179
C4 C 0.3233(18) 0.6109(6) 0.5326(9)
H2 H 0.3321 0.6450 0.4760
C5 C 0.4592(17) 0.5755(7) 0.5892(12)
H3 H 0.5592 0.5858 0.5711
C6 C 0.4493(11) 0.5250(5) 0.6722(10)
H4 H 0.5412 0.5001 0.7085
C7 C 0.2945(8) 0.4593(4) 0.7971(8)
C8 C -0.0039(8) 0.5283(3) 0.6724(6)
H5 H -0.0889 0.5371 0.5958
H6 H -0.0045 0.4811 0.6890
C9 C -0.0452(7) 0.5643(3) 0.7847(6)
C10 C 0.5052(6) 0.3646(3) 1.0901(6)
H7 H 0.5307 0.4035 1.0526
C11 C 0.6307(7) 0.3234(3) 1.1491(6)
H8 H 0.7380 0.3354 1.1511
C12 C 0.6001(7) 0.2649(3) 1.2051(7)
C13 C 0.4375(8) 0.2508(3) 1.1990(9)
H9 H 0.4093 0.2113 1.2331
C14 C 0.3165(8) 0.2951(4) 1.1422(10)
H10 H 0.2089 0.2858 1.1440
C15 C 0.7340(7) 0.2199(3) 1.2685(7)
C16 C 0.8947(8) 0.2355(4) 1.2799(10)
H11 H 0.9229 0.2752 1.2468
C17 C 1.0142(8) 0.1927(4) 1.3400(10)
H12 H 1.1220 0.2034 1.3413
C18 C 0.8296(7) 0.1232(3) 1.3866(6)
H13 H 0.8047 0.0846 1.4254
C19 C 0.7038(7) 0.1617(3) 1.3240(6)
H14 H 0.5967 0.1484 1.3188
Zn1C Zn 1.17036(8) 0.08293(3) 1.50501(8)
Zn1B Zn -0.17036(8) 0.58293(3) 0.99499(8)
N2C N -0.0137(5) 0.3625(2) 0.8958(5)
O3B O 0.1126(5) 0.46994(18) 1.1402(4)
loop_
_geom_bond_atom_site_label_1
_geom_bond_atom_site_label_2
_geom_bond_site_symmetry_1
_geom_bond_site_symmetry_2
Zn1 N1 1_555 1_555
N1 C10 1_555 1_555
N2 C17 1_555 1_555
O1 Zn1 1_555 1_555
O2 C7 1_555 1_555
O3 C9 1_555 1_555
O4 C9 1_555 1_555
C1 C2 1_555 1_555
C2 C3 1_555 1_555
C3 H1 1_555 1_555
C4 C3 1_555 1_555
H2 C4 1_555 1_555
C5 C4 1_555 1_555
H3 C5 1_555 1_555
C6 C1 1_555 1_555
H4 C6 1_555 1_555
C7 O1 1_555 1_555
C8 C2 1_555 1_555
H5 C8 1_555 1_555
H6 C8 1_555 1_555
C9 C8 1_555 1_555
C10 H7 1_555 1_555
C11 C10 1_555 1_555
H8 C11 1_555 1_555
C12 C11 1_555 1_555
C13 C12 1_555 1_555
H9 C13 1_555 1_555
C14 N1 1_555 1_555
H10 C14 1_555 1_555
C15 C12 1_555 1_555
C16 C15 1_555 1_555
H11 C16 1_555 1_555
C17 C16 1_555 1_555
H12 C17 1_555 1_555
C18 N2 1_555 1_555
H13 C18 1_555 1_555
C19 C15 1_555 1_555
H14 C19 1_555 1_555
Zn1C N2 1_555 1_555
Zn1B O3 1_555 1_555
N2C Zn1 1_555 1_555
O3B Zn1 1_555 1_555
C1 C7 1_555 1_555
C5 C6 1_555 1_555
C13 C14 1_555 1_555
C18 C19 1_555 1_555

#END
