
#######################################################################
#
#                 Cambridge Crystallographic Data Centre
#                                CCDC 
#
#######################################################################
#
# If this CIF has been generated from an entry in the Cambridge 
# Structural Database, then it will include bibliographic, chemical, 
# crystal, experimental, refinement or atomic coordinate data resulting 
# from the CCDC's data processing and validation procedures.
#
#######################################################################

data_OQOXOI
_symmetry_cell_setting           hexagonal
_symmetry_space_group_name_H-M   'P 61'
_symmetry_Int_Tables_number      169
_space_group_name_Hall           'P 61'
loop_
_symmetry_equiv_pos_site_id
_symmetry_equiv_pos_as_xyz
1 x,y,z
2 -y,x-y,1/3+z
3 -x+y,-x,2/3+z
4 -x,-y,1/2+z
5 y,-x+y,5/6+z
6 x-y,x,1/6+z
_cell_length_a                   11.1755(8)
_cell_length_b                   11.1755(8)
_cell_length_c                   24.825(3)
_cell_angle_alpha                90
_cell_angle_beta                 90
_cell_angle_gamma                120
_cell_volume                     2685.06
loop_
_atom_site_label
_atom_site_type_symbol
_atom_site_fract_x
_atom_site_fract_y
_atom_site_fract_z
Cu1 Cu 0.90928(5) -0.51468(5) 0.47738(2)
O1 O 0.7901(3) -0.5419(4) 0.38881(13)
O2 O 1.0088(3) -0.4638(3) 0.40733(13)
O3 O 0.6434(7) -0.8714(5) 0.26732(18)
O4 O 0.6475(3) -0.7562(3) 0.19509(12)
O5 O 1.0858(3) -0.4414(3) 0.53911(15)
H1 H 1.1723 -0.3594 0.5363
H2 H 1.0378 -0.4401 0.5714
C1 C 0.9538(4) -0.4588(4) 0.3156(2)
C2 C 0.8636(5) -0.5250(5) 0.27181(18)
C3 C 0.9157(5) -0.4824(5) 0.2204(2)
H3 H 0.8582 -0.5252 0.1911
C4 C 1.0499(6) -0.3787(5) 0.2111(2)
H4 H 1.0818 -0.3532 0.1760
C5 C 1.1364(6) -0.3128(6) 0.2542(2)
H5 H 1.2265 -0.2418 0.2485
C6 C 1.0872(4) -0.3541(5) 0.3056(2)
H6 H 1.1457 -0.3101 0.3346
C7 C 0.9127(4) -0.4925(4) 0.3736(2)
C8 C 0.7129(5) -0.6380(5) 0.27974(18)
H7 H 0.6999 -0.6669 0.3171
H8 H 0.6542 -0.5988 0.2726
C9 C 0.6658(5) -0.7645(5) 0.2445(2)
C10 C 0.8038(5) -0.3209(4) 0.4853(2)
H9 H 0.7205 -0.4027 0.4900
C11 C 0.8017(5) -0.1981(5) 0.4850(3)
H10 H 0.7187 -0.1993 0.4904
C12 C 0.9195(4) -0.0763(4) 0.4770(2)
C13 C 1.0367(5) -0.0842(5) 0.4705(3)
H11 H 1.1210 -0.0039 0.4652
C14 C 1.0309(5) -0.2102(5) 0.4717(3)
H12 H 1.1126 -0.2119 0.4669
C15 C 0.9182(4) 0.0564(4) 0.4753(2)
C16 C 0.7990(5) 0.0606(5) 0.4798(4)
H13 H 0.7157 -0.0219 0.4829
C17 C 0.7983(5) 0.1832(5) 0.4799(4)
H14 H 0.7140 0.1803 0.4834
C18 C 1.0245(5) 0.3014(5) 0.4699(3)
H15 H 1.1059 0.3855 0.4659
C19 C 1.0325(5) 0.1805(5) 0.4699(3)
H16 H 1.1180 0.1861 0.4662
N1 N 0.9156(3) -0.3287(3) 0.47926(16)
N2 N 0.9096(4) 0.3028(3) 0.47517(17)
Cu1B Cu 0.57604(7) -0.90928(5) 0.14405(2)
Cu1_2 Cu 0.90928(5) 0.48532(5) 0.47738(2)
O4A O 0.7562(3) -0.5963(4) 0.52842(12)
N2_2 N 0.9096(4) -0.6972(3) 0.47517(17)
loop_
_geom_bond_atom_site_label_1
_geom_bond_atom_site_label_2
_geom_bond_site_symmetry_1
_geom_bond_site_symmetry_2
Cu1 O1 1_555 1_555
O1 C7 1_555 1_555
O2 Cu1 1_555 1_555
O3 C9 1_555 1_555
O4 C9 1_555 1_555
O5 Cu1 1_555 1_555
H1 O5 1_555 1_555
H2 O5 1_555 1_555
C1 C2 1_555 1_555
C2 C3 1_555 1_555
C3 H3 1_555 1_555
C4 C3 1_555 1_555
H4 C4 1_555 1_555
C5 C4 1_555 1_555
H5 C5 1_555 1_555
C6 C1 1_555 1_555
H6 C6 1_555 1_555
C7 O2 1_555 1_555
C8 C2 1_555 1_555
H7 C8 1_555 1_555
H8 C8 1_555 1_555
C9 C8 1_555 1_555
C10 H9 1_555 1_555
C11 C10 1_555 1_555
H10 C11 1_555 1_555
C12 C11 1_555 1_555
C13 C12 1_555 1_555
H11 C13 1_555 1_555
C14 C13 1_555 1_555
H12 C14 1_555 1_555
C15 C12 1_555 1_555
C16 C15 1_555 1_555
H13 C16 1_555 1_555
C17 C16 1_555 1_555
H14 C17 1_555 1_555
C18 H15 1_555 1_555
C19 C15 1_555 1_555
H16 C19 1_555 1_555
N1 Cu1 1_555 1_555
N2 C17 1_555 1_555
Cu1B O4 1_555 1_555
Cu1_2 N2 1_555 1_555
O4A Cu1 1_555 1_555
N2_2 Cu1 1_555 1_555
C1 C7 1_555 1_555
C5 C6 1_555 1_555
C10 N1 1_555 1_555
C14 N1 1_555 1_555
C18 C19 1_555 1_555
C18 N2 1_555 1_555

#END
