
#######################################################################
#
#                 Cambridge Crystallographic Data Centre
#                                CCDC 
#
#######################################################################
#
# If this CIF has been generated from an entry in the Cambridge 
# Structural Database, then it will include bibliographic, chemical, 
# crystal, experimental, refinement or atomic coordinate data resulting 
# from the CCDC's data processing and validation procedures.
#
#######################################################################

data_OQUJUG
_symmetry_cell_setting           triclinic
_symmetry_space_group_name_H-M   'P -1'
_symmetry_Int_Tables_number      2
_space_group_name_Hall           '-P 1'
loop_
_symmetry_equiv_pos_site_id
_symmetry_equiv_pos_as_xyz
1 x,y,z
2 -x,-y,-z
_cell_length_a                   6.7195(5)
_cell_length_b                   7.1118(4)
_cell_length_c                   19.2802(12)
_cell_angle_alpha                80.061(5)
_cell_angle_beta                 81.798(6)
_cell_angle_gamma                83.040(6)
_cell_volume                     893.831
loop_
_atom_site_label
_atom_site_type_symbol
_atom_site_fract_x
_atom_site_fract_y
_atom_site_fract_z
Na1 Na 0.52329(13) 0.73594(12) 0.01008(5)
O1 O 0.8635(2) 0.3153(2) 0.13070(7)
H1 H 0.995(5) 0.283(5) 0.1328(17)
C1 C 0.7580(3) 0.4803(3) 0.24616(11)
B1 B 0.8121(4) 0.5066(3) 0.16151(12)
O2 O 0.6142(2) 0.5951(2) 0.13633(8)
C2 C 0.8653(3) 0.4138(3) 0.30297(11)
H2 H 1.012(4) 0.370(4) 0.2968(15)
B2 B 0.7574(4) 0.1285(3) 0.14442(13)
O3 O 0.9697(2) 0.6238(2) 0.12847(8)
H3 H 1.066(5) 0.624(5) 0.1537(18)
C3 C 0.7641(3) 0.4082(3) 0.37209(12)
O4 O 0.3002(2) 0.6874(2) 0.18334(9)
C4 C 0.5577(3) 0.4688(3) 0.38401(12)
H4 H 0.490(4) 0.465(4) 0.4320(15)
O5 O 0.7893(3) 0.3553(3) 0.49514(9)
H5 H 0.889(9) 0.280(8) 0.543(3)
C5 C 0.4492(3) 0.5397(3) 0.32728(12)
H6 H 0.305(4) 0.585(4) 0.3362(13)
O6 O 1.0572(3) 0.2628(3) 0.42211(9)
C6 C 0.5539(3) 0.5444(3) 0.25945(11)
C7 C 0.4710(3) 0.6157(3) 0.19151(11)
O7 O 0.5498(2) 0.1897(2) 0.12026(8)
C8 C 0.8797(3) 0.3368(3) 0.43285(11)
O8 O 0.8810(2) 0.0106(2) 0.09896(8)
H7 H 0.885(5) -0.118(5) 0.1169(19)
C9 C 0.6988(3) 0.0448(3) 0.22657(11)
O9 O 0.2247(2) 0.2072(2) 0.16850(9)
C10 C 0.8083(3) -0.0380(3) 0.28185(11)
H8 H 0.958(4) -0.065(3) 0.2744(13)
O10 O 0.7275(3) -0.1455(3) 0.47341(9)
H9 H 0.827(9) -0.202(9) 0.520(3)
C11 C 0.7056(3) -0.0731(3) 0.35062(11)
O11 O 1.0025(3) -0.2174(3) 0.39977(9)
O12 O 0.7491(2) 0.4605(2) -0.01245(9)
H10 H 0.810(5) 0.408(5) 0.0267(18)
H11 H 0.843(5) 0.445(5) -0.0441(18)
C12 C 0.4959(3) -0.0305(3) 0.36385(12)
H12 H 0.425(4) -0.054(4) 0.4124(14)
O13 O 0.7235(2) 0.9927(2) -0.02242(9)
H13 H 0.830(5) 0.991(5) -0.0575(19)
H14 H 0.787(5) 0.991(5) 0.0130(19)
C13 C 0.3844(3) 0.0428(3) 0.30838(12)
H15 H 0.240(4) 0.069(4) 0.3176(14)
C14 C 0.4899(3) 0.0791(3) 0.24101(11)
C15 C 0.4042(3) 0.1639(3) 0.17430(11)
C16 C 0.8215(3) -0.1510(3) 0.41088(11)
Na1A Na 0.47671(13) 0.26406(12) -0.01008(5)
Na1A_2 Na 0.47671(13) 1.26406(12) -0.01008(5)
O7A O 0.4502(2) 0.8103(2) -0.12026(8)
O12A O 0.2509(2) 0.5395(2) 0.01245(9)
H10A H 0.190(5) 0.592(5) -0.0267(18)
H11A H 0.157(5) 0.555(5) 0.0441(18)
O13A O 0.2765(2) 1.0073(2) 0.02242(9)
H13A H 0.170(5) 1.009(5) 0.0575(19)
H14A H 0.213(5) 1.009(5) -0.0130(19)
loop_
_geom_bond_atom_site_label_1
_geom_bond_atom_site_label_2
_geom_bond_site_symmetry_1
_geom_bond_site_symmetry_2
Na1 O2 1_555 1_555
O1 H1 1_555 1_555
C1 B1 1_555 1_555
B1 O1 1_555 1_555
O2 B1 1_555 1_555
C2 C1 1_555 1_555
H2 C2 1_555 1_555
B2 O1 1_555 1_555
O3 B1 1_555 1_555
H3 O3 1_555 1_555
C3 C2 1_555 1_555
O4 C7 1_555 1_555
C4 C3 1_555 1_555
H4 C4 1_555 1_555
O5 H5 1_555 1_555
C5 C4 1_555 1_555
H6 C5 1_555 1_555
O6 C8 1_555 1_555
C6 C1 1_555 1_555
C7 O2 1_555 1_555
O7 B2 1_555 1_555
C8 C3 1_555 1_555
O8 B2 1_555 1_555
H7 O8 1_555 1_555
C9 B2 1_555 1_555
O9 C15 1_555 1_555
C10 C9 1_555 1_555
H8 C10 1_555 1_555
O10 H9 1_555 1_555
C11 C10 1_555 1_555
O11 C16 1_555 1_555
O12 Na1 1_555 1_555
H10 O12 1_555 1_555
H11 O12 1_555 1_555
C12 C11 1_555 1_555
H12 C12 1_555 1_555
O13 Na1 1_555 1_555
H13 O13 1_555 1_555
H14 O13 1_555 1_555
C13 C12 1_555 1_555
H15 C13 1_555 1_555
C14 C9 1_555 1_555
C15 O7 1_555 1_555
C16 O10 1_555 1_555
Na1A O7 1_555 1_555
Na1A_2 O13 1_555 1_555
O7A Na1 1_555 1_555
O12A Na1 1_555 1_555
H10A O12A 1_555 1_555
H11A O12A 1_555 1_555
O13A Na1 1_555 1_555
H13A O13A 1_555 1_555
H14A O13A 1_555 1_555
O5 C8 1_555 1_555
C5 C6 1_555 1_555
C6 C7 1_555 1_555
C11 C16 1_555 1_555
O12 Na1A 1_555 1_555
C13 C14 1_555 1_555
C14 C15 1_555 1_555
Na1A O12A 1_555 1_555
Na1A_2 O13A 1_555 1_555

#END
