
#######################################################################
#
#                 Cambridge Crystallographic Data Centre
#                                CCDC 
#
#######################################################################
#
# If this CIF has been generated from an entry in the Cambridge 
# Structural Database, then it will include bibliographic, chemical, 
# crystal, experimental, refinement or atomic coordinate data resulting 
# from the CCDC's data processing and validation procedures.
#
#######################################################################

data_OQUKOB01
_symmetry_cell_setting           triclinic
_symmetry_space_group_name_H-M   'P -1'
_symmetry_Int_Tables_number      2
_space_group_name_Hall           '-P 1'
loop_
_symmetry_equiv_pos_site_id
_symmetry_equiv_pos_as_xyz
1 x,y,z
2 -x,-y,-z
_cell_length_a                   9.7900(13)
_cell_length_b                   10.1129(13)
_cell_length_c                   11.2737(14)
_cell_angle_alpha                66.198(2)
_cell_angle_beta                 87.9350(10)
_cell_angle_gamma                69.418(2)
_cell_volume                     948.71
loop_
_atom_site_label
_atom_site_type_symbol
_atom_site_fract_x
_atom_site_fract_y
_atom_site_fract_z
Cd1 Cd 1.13647(4) 0.33545(4) -0.34685(3)
O1 O 1.2462(5) 0.3955(5) -0.2041(4)
O2 O 1.3114(5) 0.1453(5) -0.1506(4)
O3 O 1.0003(5) 0.3879(5) 0.4647(4)
O4 O 1.0960(5) 0.1384(5) 0.5857(4)
N1 N 0.9589(5) 0.2805(6) -0.2097(5)
N2 N 0.7533(6) 0.2353(7) -0.1462(6)
N3 N 0.8471(5) 0.1967(6) -0.0413(5)
N4 N 0.4853(5) 0.3370(6) 0.3898(5)
N5 N 0.5670(6) 0.3171(7) 0.4941(5)
N6 N 0.3429(5) 0.3178(6) 0.5428(5)
C1 C 1.3140(6) 0.2558(6) -0.1284(5)
C2 C 1.3963(6) 0.2209(7) -0.0010(6)
H1 H 1.4760 0.1204 0.0290
H2 H 1.4379 0.2992 -0.0144
C3 C 1.2904(6) 0.2204(7) 0.1007(5)
C4 C 1.2872(8) 0.0828(7) 0.1955(7)
H3 H 1.3551 -0.0112 0.2002
C5 C 1.1846(8) 0.0819(7) 0.2838(6)
H4 H 1.1862 -0.0124 0.3478
C6 C 1.0797(6) 0.2198(6) 0.2780(5)
C7 C 1.0819(7) 0.3571(7) 0.1822(6)
H5 H 1.0122 0.4511 0.1757
C8 C 1.1855(7) 0.3577(7) 0.0957(6)
H6 H 1.1848 0.4522 0.0328
C9 C 0.9692(6) 0.2208(7) 0.3754(5)
H7 H 0.9557 0.1221 0.4117
H8 H 0.8751 0.3025 0.3322
C10 C 1.0257(6) 0.2482(6) 0.4835(5)
C11 C 0.8269(7) 0.2828(8) -0.2443(6)
H9 H 0.7910 0.3154 -0.3307
C12 C 0.9670(6) 0.2249(7) -0.0805(6)
H10 H 1.0457 0.2082 -0.0254
C13 C 0.8052(7) 0.1402(7) 0.0923(6)
H11 H 0.8931 0.0822 0.1553
H12 H 0.7539 0.0710 0.1011
C14 C 0.7072(6) 0.2754(6) 0.1201(5)
H13 H 0.6299 0.3440 0.0474
H14 H 0.7647 0.3339 0.1261
C15 C 0.6369(6) 0.2250(7) 0.2463(5)
H15 H 0.5795 0.1657 0.2421
H16 H 0.7128 0.1598 0.3204
C16 C 0.5390(7) 0.3689(8) 0.2622(6)
H17 H 0.5931 0.4368 0.2488
H18 H 0.4552 0.4241 0.1949
C17 C 0.3527(7) 0.3373(8) 0.4202(6)
H19 H 0.2781 0.3494 0.3635
C18 C 0.4756(7) 0.3075(8) 0.5830(6)
H20 H 0.5006 0.2946 0.6668
Cd1_2 Cd 1.13647(4) 0.33545(4) 0.65315(3)
Cd1A Cd 0.86353(4) 0.66455(4) 0.34685(3)
Cd1_3 Cd 0.13647(4) 0.33545(4) 0.65315(3)
O3_2 O 1.0003(5) 0.3879(5) -0.5353(4)
O3A O 0.9997(5) 0.6121(5) -0.4647(4)
O4_2 O 1.0960(5) 0.1384(5) -0.4143(4)
N6_2 N 1.3429(5) 0.3178(6) -0.4572(5)
loop_
_geom_bond_atom_site_label_1
_geom_bond_atom_site_label_2
_geom_bond_site_symmetry_1
_geom_bond_site_symmetry_2
Cd1 O1 1_555 1_555
O1 C1 1_555 1_555
O2 Cd1 1_555 1_555
O3 C10 1_555 1_555
O4 C10 1_555 1_555
N1 Cd1 1_555 1_555
N2 N3 1_555 1_555
N3 C12 1_555 1_555
N4 N5 1_555 1_555
N5 C18 1_555 1_555
N6 C17 1_555 1_555
C1 O2 1_555 1_555
C2 C1 1_555 1_555
H1 C2 1_555 1_555
H2 C2 1_555 1_555
C3 C2 1_555 1_555
C4 C3 1_555 1_555
H3 C4 1_555 1_555
C5 C4 1_555 1_555
H4 C5 1_555 1_555
C6 C5 1_555 1_555
C7 C6 1_555 1_555
H5 C7 1_555 1_555
C8 C3 1_555 1_555
H6 C8 1_555 1_555
C9 C6 1_555 1_555
H7 C9 1_555 1_555
H8 C9 1_555 1_555
C10 C9 1_555 1_555
C11 N1 1_555 1_555
H9 C11 1_555 1_555
C12 N1 1_555 1_555
H10 C12 1_555 1_555
C13 N3 1_555 1_555
H11 C13 1_555 1_555
H12 C13 1_555 1_555
C14 C13 1_555 1_555
H13 C14 1_555 1_555
H14 C14 1_555 1_555
C15 C14 1_555 1_555
H15 C15 1_555 1_555
H16 C15 1_555 1_555
C16 N4 1_555 1_555
H17 C16 1_555 1_555
H18 C16 1_555 1_555
C17 N4 1_555 1_555
H19 C17 1_555 1_555
C18 N6 1_555 1_555
H20 C18 1_555 1_555
Cd1_2 O3 1_555 1_555
Cd1A O3 1_555 1_555
Cd1_3 N6 1_555 1_555
O3_2 Cd1 1_555 1_555
O3A Cd1 1_555 1_555
O4_2 Cd1 1_555 1_555
N6_2 Cd1 1_555 1_555
O4 Cd1_2 1_555 1_555
N2 C11 1_555 1_555
C7 C8 1_555 1_555
C15 C16 1_555 1_555

#END
