
#######################################################################
#
#                 Cambridge Crystallographic Data Centre
#                                CCDC 
#
#######################################################################
#
# If this CIF has been generated from an entry in the Cambridge 
# Structural Database, then it will include bibliographic, chemical, 
# crystal, experimental, refinement or atomic coordinate data resulting 
# from the CCDC's data processing and validation procedures.
#
#######################################################################

data_OQUVUS
_symmetry_cell_setting           orthorhombic
_symmetry_space_group_name_H-M   'P n n m'
_symmetry_Int_Tables_number      58
_space_group_name_Hall           '-P 2 2n'
loop_
_symmetry_equiv_pos_site_id
_symmetry_equiv_pos_as_xyz
1 x,y,z
2 -x,-y,z
3 1/2-x,1/2+y,1/2-z
4 1/2+x,1/2-y,1/2-z
5 -x,-y,-z
6 x,y,-z
7 1/2+x,1/2-y,1/2+z
8 1/2-x,1/2+y,1/2+z
_cell_length_a                   11.3361(2)
_cell_length_b                   11.3717(3)
_cell_length_c                   8.3386(2)
_cell_angle_alpha                90
_cell_angle_beta                 90
_cell_angle_gamma                90
_cell_volume                     1074.93
loop_
_atom_site_label
_atom_site_type_symbol
_atom_site_fract_x
_atom_site_fract_y
_atom_site_fract_z
C1 C 0.75895(17) 0.20718(17) 0.0000
H1 H 0.7703(16) 0.2534(13) 0.0972(14)
H2 H 0.8184(17) 0.1457(16) 0.0000
C2 C 0.31352(17) 0.15773(18) 0.0000
H3 H 0.2927(15) 0.2031(13) 0.0951(14)
H4 H 0.270(2) 0.0834(13) 0.0000
C3 C 0.25096(11) 0.48119(11) 0.13723(15)
H5 H 0.2931 0.4769 0.2356
C4 C 0.12913(11) 0.48801(10) 0.14284(15)
H6 H 0.0894 0.4886 0.2431
C5 C 0.06502(15) 0.49406(13) 0.0000
N1 N 0.31252(13) 0.48033(13) 0.0000
O1 O 0.64409(11) 0.15238(11) 0.0000
O2 O 0.43802(12) 0.12994(10) 0.0000
P1 P 0.53028(4) 0.23524(4) 0.0000
S1 S 0.51929(3) 0.33195(3) 0.19749(4)
Co1 Co 0.5000 0.5000 0.0000
C1A C 0.24105(17) 0.79282(17) 0.0000
H1E H 0.7703(16) 0.2534(13) -0.0972(14)
H1A H 0.2297(16) 0.7466(13) 0.0972(14)
H1D H 0.2297(16) 0.7466(13) -0.0972(14)
H2A H 0.1816(17) 0.8543(16) 0.0000
C2A C 0.68648(17) 0.84227(18) 0.0000
H3E H 0.2927(15) 0.2031(13) -0.0951(14)
H3A H 0.7073(15) 0.7969(13) 0.0951(14)
H3D H 0.7073(15) 0.7969(13) -0.0951(14)
H4A H 0.730(2) 0.9166(13) 0.0000
C3E C 0.25096(11) 0.48119(11) -0.13723(15)
C3A C -0.25096(11) 0.51881(11) 0.13723(15)
C3D C -0.25096(11) 0.51881(11) -0.13723(15)
H5E H 0.2931 0.4769 -0.2356
H5D H -0.2931 0.5231 -0.2356
H5A H -0.2931 0.5231 0.2356
C4E C 0.12913(11) 0.48801(10) -0.14284(15)
C4A C -0.12913(11) 0.51199(10) 0.14284(15)
C4D C -0.12913(11) 0.51199(10) -0.14284(15)
H6E H 0.0894 0.4886 -0.2431
H6D H -0.0894 0.5114 -0.2431
H6A H -0.0894 0.5114 0.2431
C5A C -0.06502(15) 0.50594(13) 0.0000
N1A N -0.31252(13) 0.51967(13) 0.0000
N1A_2 N 0.68748(13) 0.51967(13) 0.0000
O1A O 0.35591(11) 0.84762(11) 0.0000
O2A O 0.56198(12) 0.87006(10) 0.0000
P1A P 0.46972(4) 0.76476(4) 0.0000
S1E S 0.51929(3) 0.33195(3) -0.19749(4)
S1A S 0.48071(3) 0.66805(3) 0.19749(4)
S1D S 0.48071(3) 0.66805(3) -0.19749(4)
Co1_2 Co -0.5000 0.5000 0.0000
loop_
_geom_bond_atom_site_label_1
_geom_bond_atom_site_label_2
_geom_bond_site_symmetry_1
_geom_bond_site_symmetry_2
C1 H1 1_555 1_555
H2 C1 1_555 1_555
C2 H3 1_555 1_555
H4 C2 1_555 1_555
C3 H5 1_555 1_555
C4 C3 1_555 1_555
H6 C4 1_555 1_555
C5 C4 1_555 1_555
N1 C3 1_555 1_555
O1 C1 1_555 1_555
O2 C2 1_555 1_555
P1 O1 1_555 1_555
S1 P1 1_555 1_555
Co1 N1 1_555 1_555
C1A H1A 1_555 1_555
H1E C1 1_555 1_555
H1D C1A 1_555 1_555
H2A C1A 1_555 1_555
C2A H3A 1_555 1_555
H3E C2 1_555 1_555
H3D C2A 1_555 1_555
H4A C2A 1_555 1_555
C3E N1 1_555 1_555
C3A H5A 1_555 1_555
C3D H5D 1_555 1_555
H5E C3E 1_555 1_555
C4E C5 1_555 1_555
C4A C3A 1_555 1_555
C4D C3D 1_555 1_555
H6E C4E 1_555 1_555
H6D C4D 1_555 1_555
H6A C4A 1_555 1_555
C5A C5 1_555 1_555
N1A C3A 1_555 1_555
N1A_2 Co1 1_555 1_555
O1A C1A 1_555 1_555
O2A C2A 1_555 1_555
P1A O1A 1_555 1_555
S1E P1 1_555 1_555
S1A Co1 1_555 1_555
S1D Co1 1_555 1_555
Co1_2 N1A 1_555 1_555
O2 P1 1_555 1_555
S1 Co1 1_555 1_555
Co1 S1E 1_555 1_555
C3E C4E 1_555 1_555
C3D N1A 1_555 1_555
C4A C5A 1_555 1_555
C4D C5A 1_555 1_555
O2A P1A 1_555 1_555
P1A S1A 1_555 1_555
P1A S1D 1_555 1_555

#END
