
#######################################################################
#
#                 Cambridge Crystallographic Data Centre
#                                CCDC 
#
#######################################################################
#
# If this CIF has been generated from an entry in the Cambridge 
# Structural Database, then it will include bibliographic, chemical, 
# crystal, experimental, refinement or atomic coordinate data resulting 
# from the CCDC's data processing and validation procedures.
#
#######################################################################

data_OQUVEC
_symmetry_cell_setting           monoclinic
_symmetry_space_group_name_H-M   'P 21/c'
_symmetry_Int_Tables_number      14
_space_group_name_Hall           '-P 2ybc'
loop_
_symmetry_equiv_pos_site_id
_symmetry_equiv_pos_as_xyz
1 x,y,z
2 -x,1/2+y,1/2-z
3 -x,-y,-z
4 x,1/2-y,1/2+z
_cell_length_a                   10.7073(4)
_cell_length_b                   16.3214(4)
_cell_length_c                   19.5513(6)
_cell_angle_alpha                90
_cell_angle_beta                 91.799(2)
_cell_angle_gamma                90
_cell_volume                     3415.06
loop_
_atom_site_label
_atom_site_type_symbol
_atom_site_fract_x
_atom_site_fract_y
_atom_site_fract_z
C1 C 0.0059(3) 0.6208(2) -0.03344(16)
H1 H -0.0040 0.5658 -0.0141
H2 H -0.0037 0.6180 -0.0834
H3 H -0.0578 0.6573 -0.0154
C2 C 0.3135(2) 0.71721(14) 0.05385(12)
C3 C 0.3965(2) 0.72399(16) 0.10940(14)
H4 H 0.3756 0.7004 0.1520
C4 C 0.5100(2) 0.76479(16) 0.10391(15)
H5 H 0.5663 0.7690 0.1423
C5 C 0.5396(2) 0.79920(15) 0.04160(15)
C6 C 0.4570(2) 0.79401(15) -0.01401(14)
H6 H 0.4774 0.8187 -0.0562
C7 C 0.3450(2) 0.75297(14) -0.00831(13)
H7 H 0.2891 0.7490 -0.0468
C8 C 0.7402(3) 0.8449(2) 0.0848(2)
H8 H 0.7035 0.8713 0.1244
H9 H 0.8122 0.8768 0.0702
H10 H 0.7674 0.7894 0.0973
C9 C 0.0605(2) 0.63018(18) 0.44292(14)
H11 H 0.0400 0.6816 0.4192
H12 H 0.0642 0.6397 0.4924
H13 H -0.0040 0.5893 0.4318
C10 C 0.3593(2) 0.55333(14) 0.34313(12)
C11 C 0.4293(2) 0.55764(16) 0.28445(12)
H14 H 0.3926 0.5800 0.2437
C12 C 0.5506(2) 0.53012(17) 0.28444(13)
H15 H 0.5975 0.5343 0.2441
C13 C 0.6046(2) 0.49617(14) 0.34361(12)
C14 C 0.5357(2) 0.48975(14) 0.40206(12)
H16 H 0.5717 0.4660 0.4424
C15 C 0.4134(2) 0.51834(15) 0.40136(12)
H17 H 0.3661 0.5138 0.4415
C16 C 0.7863(2) 0.43947(18) 0.39899(15)
H18 H 0.7838 0.4800 0.4359
H19 H 0.8735 0.4265 0.3895
H20 H 0.7431 0.3895 0.4129
C17 C -0.1880(2) 0.66809(14) 0.30997(13)
H21 H -0.1883 0.6100 0.3122
C18 C -0.2568(2) 0.71131(14) 0.35662(13)
H22 H -0.3025 0.6829 0.3901
C19 C -0.2587(2) 0.79605(13) 0.35443(12)
C20 C -0.1912(2) 0.83344(14) 0.30372(12)
H23 H -0.1914 0.8914 0.2994
C21 C -0.1236(2) 0.78610(14) 0.25940(12)
H24 H -0.0766 0.8129 0.2256
C22 C -0.3316(2) 0.84628(14) 0.40403(12)
H25 H -0.2798 0.8931 0.4202
H26 H -0.3507 0.8122 0.4442
C23 C -0.4540(2) 0.87875(14) 0.37146(12)
H27 H -0.4357 0.9112 0.3302
H28 H -0.5079 0.8321 0.3572
C24 C -0.5230(2) 0.93239(14) 0.42212(12)
H29 H -0.5458 0.8983 0.4617
H30 H -0.4655 0.9757 0.4393
C25 C -0.6396(2) 0.97235(13) 0.39269(11)
C26 C -0.7299(2) 0.92969(14) 0.35448(12)
H31 H -0.7203 0.8726 0.3466
C27 C -0.8337(2) 0.97043(14) 0.32804(13)
H32 H -0.8932 0.9402 0.3013
C28 C -0.7683(2) 1.09083(15) 0.37544(13)
H33 H -0.7814 1.1475 0.3838
C29 C -0.6613(2) 1.05503(15) 0.40243(13)
H34 H -0.6021 1.0872 0.4278
N1 N -0.12150(17) 0.70412(11) 0.26201(10)
N2 N -0.85483(17) 1.05031(11) 0.33813(10)
O1 O 0.12829(15) 0.65182(11) -0.01491(8)
O2 O 0.64889(16) 0.84061(12) 0.02978(12)
O3 O 0.18069(15) 0.60063(11) 0.42114(8)
O4 O 0.72594(15) 0.47199(11) 0.33878(9)
P1 P 0.16674(6) 0.66545(4) 0.06394(3)
P2 P 0.20249(6) 0.59246(4) 0.34073(3)
S1 S 0.04157(5) 0.73843(4) 0.10764(3)
S2 S 0.19032(6) 0.56037(4) 0.11433(3)
S3 S 0.07942(5) 0.51170(3) 0.30053(3)
S4 S 0.19753(6) 0.70022(4) 0.29331(3)
Cd1 Cd 0.029336(15) 0.624602(10) 0.205228(8)
N2A N -0.14517(17) 0.55031(11) 0.16187(10)
Cd1A Cd -1.029336(15) 1.124602(10) 0.294772(8)
loop_
_geom_bond_atom_site_label_1
_geom_bond_atom_site_label_2
_geom_bond_site_symmetry_1
_geom_bond_site_symmetry_2
C1 H1 1_555 1_555
H2 C1 1_555 1_555
H3 C1 1_555 1_555
C2 C3 1_555 1_555
C3 H4 1_555 1_555
C4 C3 1_555 1_555
H5 C4 1_555 1_555
C5 C4 1_555 1_555
C6 C5 1_555 1_555
H6 C6 1_555 1_555
C7 C2 1_555 1_555
H7 C7 1_555 1_555
C8 H8 1_555 1_555
H9 C8 1_555 1_555
H10 C8 1_555 1_555
C9 H11 1_555 1_555
H12 C9 1_555 1_555
H13 C9 1_555 1_555
C10 C11 1_555 1_555
C11 H14 1_555 1_555
C12 C11 1_555 1_555
H15 C12 1_555 1_555
C13 C12 1_555 1_555
C14 C13 1_555 1_555
H16 C14 1_555 1_555
C15 C10 1_555 1_555
H17 C15 1_555 1_555
C16 H18 1_555 1_555
H19 C16 1_555 1_555
H20 C16 1_555 1_555
C17 H21 1_555 1_555
C18 C17 1_555 1_555
H22 C18 1_555 1_555
C19 C18 1_555 1_555
C20 C19 1_555 1_555
H23 C20 1_555 1_555
C21 C20 1_555 1_555
H24 C21 1_555 1_555
C22 C19 1_555 1_555
H25 C22 1_555 1_555
H26 C22 1_555 1_555
C23 C22 1_555 1_555
H27 C23 1_555 1_555
H28 C23 1_555 1_555
C24 C23 1_555 1_555
H29 C24 1_555 1_555
H30 C24 1_555 1_555
C25 C24 1_555 1_555
C26 C25 1_555 1_555
H31 C26 1_555 1_555
C27 C26 1_555 1_555
H32 C27 1_555 1_555
C28 H33 1_555 1_555
C29 C25 1_555 1_555
H34 C29 1_555 1_555
N1 C17 1_555 1_555
N2 C27 1_555 1_555
O1 C1 1_555 1_555
O2 C5 1_555 1_555
O3 C9 1_555 1_555
O4 C13 1_555 1_555
P1 C2 1_555 1_555
P2 C10 1_555 1_555
S1 P1 1_555 1_555
S2 P1 1_555 1_555
S3 P2 1_555 1_555
S4 P2 1_555 1_555
Cd1 N1 1_555 1_555
N2A Cd1 1_555 1_555
Cd1A N2 1_555 1_555
C6 C7 1_555 1_555
C8 O2 1_555 1_555
C14 C15 1_555 1_555
C16 O4 1_555 1_555
C21 N1 1_555 1_555
C28 C29 1_555 1_555
C28 N2 1_555 1_555
O1 P1 1_555 1_555
O3 P2 1_555 1_555
S1 Cd1 1_555 1_555
S2 Cd1 1_555 1_555
S3 Cd1 1_555 1_555
S4 Cd1 1_555 1_555

#END
