
#######################################################################
#
#                 Cambridge Crystallographic Data Centre
#                                CCDC 
#
#######################################################################
#
# If this CIF has been generated from an entry in the Cambridge 
# Structural Database, then it will include bibliographic, chemical, 
# crystal, experimental, refinement or atomic coordinate data resulting 
# from the CCDC's data processing and validation procedures.
#
#######################################################################

data_OQUWAZ
_symmetry_cell_setting           triclinic
_symmetry_space_group_name_H-M   'P -1'
_symmetry_Int_Tables_number      2
_space_group_name_Hall           '-P 1'
loop_
_symmetry_equiv_pos_site_id
_symmetry_equiv_pos_as_xyz
1 x,y,z
2 -x,-y,-z
_cell_length_a                   8.1800(2)
_cell_length_b                   9.8839(2)
_cell_length_c                   10.4172(2)
_cell_angle_alpha                90.7370(10)
_cell_angle_beta                 101.8980(10)
_cell_angle_gamma                100.7850(10)
_cell_volume                     808.422
loop_
_atom_site_label
_atom_site_type_symbol
_atom_site_fract_x
_atom_site_fract_y
_atom_site_fract_z
C1 C 1.0199(3) 0.7728(2) 0.5449(2)
H1 H 1.0244 0.6746 0.5594
H2 H 0.9551 0.8047 0.6059
C2 C 1.19682(15) 0.85754(19) 0.56996(12)
H3 H 1.2600 0.8253 0.5092
H4 H 1.2549 0.8481 0.6606
H5 H 1.1911 0.9546 0.5564
C3 C 0.69814(12) 0.77633(11) 0.19725(9)
C4 C 0.79914(12) 0.89282(11) 0.16123(9)
H6 H 0.8975 0.9393 0.2219
C5 C 0.75616(12) 0.94130(11) 0.03650(9)
H7 H 0.8252 1.0209 0.0119
C6 C 0.61218(12) 0.87328(11) -0.05221(9)
C7 C 0.51117(12) 0.75678(11) -0.01620(9)
H8 H 0.4128 0.7103 -0.0768
C8 C 0.55415(13) 0.70830(11) 0.10853(9)
H9 H 0.4851 0.6287 0.1331
C9 C 0.66165(12) 1.02282(11) -0.22435(9)
H10 H 0.6660 1.1065 -0.1713
H11 H 0.6111 1.0348 -0.3163
H12 H 0.7773 1.0058 -0.2177
C10 C 0.1838(3) 0.5813(3) 0.2853(2)
H13 H 0.1912 0.6469 0.3548
C11 C 0.0725(3) 0.5895(3) 0.1674(2)
H14 H 0.0058 0.6592 0.1576
C12 C 0.0583(3) 0.4968(2) 0.06422(19)
C13 C 0.1566(5) 0.3976(3) 0.0880(3)
H15 H 0.1513 0.3299 0.0208
C14 C 0.2634(5) 0.3961(3) 0.2095(3)
H16 H 0.3282 0.3253 0.2236
Cd1 Cd 0.5000 0.5000 0.5000
N1 N 0.2801(2) 0.48773(18) 0.30666(17)
O1 O 0.93680(19) 0.78788(16) 0.40960(15)
O2 O 0.5610(3) 0.9092(3) -0.17778(18)
P1 P 0.74344(7) 0.70985(6) 0.35933(5)
S1 S 0.59519(6) 0.76815(5) 0.47183(5)
S2 S 0.72568(7) 0.50568(6) 0.34536(6)
C1A C -0.0199(3) 0.2272(2) 0.4551(2)
H1A H -0.0244 0.3254 0.4406
H2A H 0.0449 0.1953 0.3941
C2A C -0.19682(15) 0.14246(19) 0.43004(12)
H3A H -0.2600 0.1747 0.4908
H4A H -0.2549 0.1519 0.3394
H5A H -0.1911 0.0454 0.4436
C3A C 0.30186(12) 0.22367(11) 0.80275(9)
C4A C 0.20086(12) 0.10718(11) 0.83877(9)
H6A H 0.1025 0.0607 0.7781
C5A C 0.24384(12) 0.05870(11) 0.96350(9)
H7A H 0.1748 -0.0209 0.9881
C6A C 0.38782(12) 0.12672(11) 1.05221(9)
C7A C 0.48883(12) 0.24322(11) 1.01620(9)
H8A H 0.5872 0.2897 1.0768
C8A C 0.44585(13) 0.29170(11) 0.89147(9)
H9A H 0.5149 0.3713 0.8669
C9A C 0.33835(12) -0.02282(11) 1.22435(9)
H10A H 0.3340 -0.1065 1.1713
H11A H 0.3889 -0.0348 1.3163
H12A H 0.2227 -0.0058 1.2177
C10A C -0.1838(3) 0.4187(3) -0.2853(2)
H13A H -0.1912 0.3531 -0.3548
C11A C -0.0725(3) 0.4105(3) -0.1674(2)
H14A H -0.0058 0.3408 -0.1576
C12A C -0.0583(3) 0.5032(2) -0.06422(19)
C13A C -0.1566(5) 0.6024(3) -0.0880(3)
H15A H -0.1513 0.6701 -0.0208
C14A C -0.2634(5) 0.6039(3) -0.2095(3)
H16A H -0.3282 0.6747 -0.2236
Cd1_2 Cd -0.5000 0.5000 -0.5000
N1A N -0.2801(2) 0.51227(18) -0.30666(17)
N1A_2 N 0.7199(2) 0.51227(18) 0.69334(17)
O1A O 0.06320(19) 0.21212(16) 0.59040(15)
O2A O 0.4390(3) 0.0908(3) 1.17778(18)
P1A P 0.25656(7) 0.29015(6) 0.64067(5)
S1A S 0.40481(6) 0.23185(5) 0.52817(5)
S2A S 0.27432(7) 0.49432(6) 0.65464(6)
loop_
_geom_bond_atom_site_label_1
_geom_bond_atom_site_label_2
_geom_bond_site_symmetry_1
_geom_bond_site_symmetry_2
C1 H1 1_555 1_555
H2 C1 1_555 1_555
C2 C1 1_555 1_555
H3 C2 1_555 1_555
H4 C2 1_555 1_555
H5 C2 1_555 1_555
C3 C4 1_555 1_555
C4 H6 1_555 1_555
C5 C4 1_555 1_555
H7 C5 1_555 1_555
C6 C5 1_555 1_555
C7 C6 1_555 1_555
H8 C7 1_555 1_555
C8 C3 1_555 1_555
H9 C8 1_555 1_555
C9 H10 1_555 1_555
H11 C9 1_555 1_555
H12 C9 1_555 1_555
C10 H13 1_555 1_555
C11 C10 1_555 1_555
H14 C11 1_555 1_555
C12 C11 1_555 1_555
C13 C12 1_555 1_555
H15 C13 1_555 1_555
C14 C13 1_555 1_555
H16 C14 1_555 1_555
Cd1 N1 1_555 1_555
N1 C10 1_555 1_555
O1 C1 1_555 1_555
O2 C6 1_555 1_555
P1 C3 1_555 1_555
S1 Cd1 1_555 1_555
S2 Cd1 1_555 1_555
C1A H1A 1_555 1_555
H2A C1A 1_555 1_555
C2A C1A 1_555 1_555
H3A C2A 1_555 1_555
H4A C2A 1_555 1_555
H5A C2A 1_555 1_555
C3A C4A 1_555 1_555
C4A H6A 1_555 1_555
C5A C4A 1_555 1_555
H7A C5A 1_555 1_555
C6A C5A 1_555 1_555
C7A C6A 1_555 1_555
H8A C7A 1_555 1_555
C8A C3A 1_555 1_555
H9A C8A 1_555 1_555
C9A H10A 1_555 1_555
H11A C9A 1_555 1_555
H12A C9A 1_555 1_555
C10A H13A 1_555 1_555
C11A C10A 1_555 1_555
H14A C11A 1_555 1_555
C12A C12 1_555 1_555
C13A C12A 1_555 1_555
H15A C13A 1_555 1_555
C14A C13A 1_555 1_555
H16A C14A 1_555 1_555
Cd1_2 N1A 1_555 1_555
N1A C10A 1_555 1_555
N1A_2 Cd1 1_555 1_555
O1A C1A 1_555 1_555
O2A C6A 1_555 1_555
P1A C3A 1_555 1_555
S1A Cd1 1_555 1_555
S2A Cd1 1_555 1_555
C7 C8 1_555 1_555
C9 O2 1_555 1_555
C14 N1 1_555 1_555
O1 P1 1_555 1_555
P1 S1 1_555 1_555
P1 S2 1_555 1_555
C7A C8A 1_555 1_555
C9A O2A 1_555 1_555
C11A C12A 1_555 1_555
C14A N1A 1_555 1_555
O1A P1A 1_555 1_555
P1A S1A 1_555 1_555
P1A S2A 1_555 1_555

#END
