
#######################################################################
#
#                 Cambridge Crystallographic Data Centre
#                                CCDC 
#
#######################################################################
#
# If this CIF has been generated from an entry in the Cambridge 
# Structural Database, then it will include bibliographic, chemical, 
# crystal, experimental, refinement or atomic coordinate data resulting 
# from the CCDC's data processing and validation procedures.
#
#######################################################################

data_OREMUU
_symmetry_cell_setting           monoclinic
_symmetry_space_group_name_H-M   'C c'
_symmetry_Int_Tables_number      9
_space_group_name_Hall           'C -2yc'
loop_
_symmetry_equiv_pos_site_id
_symmetry_equiv_pos_as_xyz
1 x,y,z
2 x,-y,1/2+z
3 1/2+x,1/2+y,z
4 1/2+x,1/2-y,1/2+z
_cell_length_a                   12.1092(4)
_cell_length_b                   8.4377(3)
_cell_length_c                   8.9288(3)
_cell_angle_alpha                90
_cell_angle_beta                 127.421(1)
_cell_angle_gamma                90
_cell_volume                     724.533
loop_
_atom_site_label
_atom_site_type_symbol
_atom_site_fract_x
_atom_site_fract_y
_atom_site_fract_z
Cu1 Cu 0.14336(2) 0.12748(3) 0.41760(3)
Cl1 Cl 0.31521(6) 0.42112(8) 0.71413(8)
N1 N 0.1502(2) -0.0423(2) 0.7227(2)
N2 N 0.10958(19) 0.36672(18) 0.3612(3)
C1 C 0.1492(2) 0.0237(2) 0.6089(3)
C2 C 0.1766(2) 0.4805(3) 0.4889(3)
C3 C 0.1465(3) 0.6398(3) 0.4551(4)
H1 H 0.1993 0.7158 0.5528
C4 C 0.0368(2) 0.6854(3) 0.2742(4)
H2 H 0.0111 0.7938 0.2451
C5 C -0.0353(2) 0.5691(3) 0.1355(3)
H3 H -0.1100 0.5967 0.0095
C6 C 0.0042(2) 0.4133(3) 0.1853(3)
H4 H -0.0456 0.3345 0.0905
Cu1A Cu 0.14336(2) -0.12748(3) 0.91760(3)
N1A N 0.1502(2) 0.0423(2) 0.2227(2)
loop_
_geom_bond_atom_site_label_1
_geom_bond_atom_site_label_2
_geom_bond_site_symmetry_1
_geom_bond_site_symmetry_2
Cu1 N2 1_555 1_555
Cl1 C2 1_555 1_555
N1 C1 1_555 1_555
N2 C2 1_555 1_555
C1 Cu1 1_555 1_555
C2 C3 1_555 1_555
C3 H1 1_555 1_555
C4 C3 1_555 1_555
H2 C4 1_555 1_555
C5 C4 1_555 1_555
H3 C5 1_555 1_555
C6 N2 1_555 1_555
H4 C6 1_555 1_555
Cu1A N1 1_555 1_555
N1A Cu1 1_555 1_555
C5 C6 1_555 1_555

#END
