
#######################################################################
#
#                 Cambridge Crystallographic Data Centre
#                                CCDC 
#
#######################################################################
#
# If this CIF has been generated from an entry in the Cambridge 
# Structural Database, then it will include bibliographic, chemical, 
# crystal, experimental, refinement or atomic coordinate data resulting 
# from the CCDC's data processing and validation procedures.
#
#######################################################################

data_ORENOP
_symmetry_cell_setting           monoclinic
_symmetry_space_group_name_H-M   'P 2/n'
_symmetry_Int_Tables_number      13
_space_group_name_Hall           '-P 2yac'
loop_
_symmetry_equiv_pos_site_id
_symmetry_equiv_pos_as_xyz
1 x,y,z
2 1/2-x,y,1/2-z
3 -x,-y,-z
4 1/2+x,-y,1/2+z
_cell_length_a                   10.1937(8)
_cell_length_b                   20.2483(15)
_cell_length_c                   13.6441(10)
_cell_angle_alpha                90
_cell_angle_beta                 92.738(2)
_cell_angle_gamma                90
_cell_volume                     2813
loop_
_atom_site_label
_atom_site_type_symbol
_atom_site_fract_x
_atom_site_fract_y
_atom_site_fract_z
Mo1 Mo 0.2500 0.16508(3) 0.2500
Cu1 Cu 0.59661(8) 0.12683(4) 0.18525(6)
P1 P 0.52214(15) 0.19388(7) 0.38593(11)
P2 P 0.58352(17) 0.71983(8) 0.33421(12)
P3 P 0.44213(15) 0.24594(7) 0.10179(11)
O1 O 0.3545(4) 0.1124(2) 0.1932(3)
O2 O 0.6124(4) 0.1589(2) 0.3178(3)
O3 O 0.5580(5) 0.1714(2) 0.4921(3)
O4 O 0.3752(4) 0.1774(2) 0.3641(3)
O5 O 0.3465(4) 0.2459(2) 0.1842(3)
O6 O 0.5735(4) 0.2127(2) 0.1273(3)
O7 O 0.3837(5) 0.2099(2) 0.0075(3)
H1 H 0.3632 0.1710 0.0219
O8 O 0.5730(5) 0.7328(2) 0.2199(3)
H2 H 0.6487 0.7363 0.1987
O9 O 0.7138(5) 0.7444(2) 0.3766(3)
O10 O 0.4607(5) 0.7501(2) 0.3731(3)
N1 N 0.5936(5) 0.0320(3) 0.2291(4)
N2 N 0.6407(5) 0.0840(3) 0.0607(4)
C1 C 0.5582(7) 0.0109(3) 0.3168(6)
H3 H 0.5441 0.0423 0.3669
C2 C 0.5413(7) -0.0557(4) 0.3365(6)
H4 H 0.5161 -0.0697 0.3993
C3 C 0.5616(8) -0.1013(4) 0.2641(7)
H5 H 0.5500 -0.1471 0.2761
C4 C 0.5988(7) -0.0796(4) 0.1740(7)
H6 H 0.6128 -0.1104 0.1231
C5 C 0.6160(7) -0.0124(3) 0.1575(5)
C6 C 0.6511(6) 0.0169(4) 0.0638(5)
C7 C 0.6936(7) -0.0186(4) -0.0146(6)
H7 H 0.6999 -0.0654 -0.0119
C8 C 0.7267(8) 0.0156(5) -0.0967(7)
H8 H 0.7561 -0.0080 -0.1517
C9 C 0.7179(7) 0.0832(4) -0.1009(5)
H9 H 0.7427 0.1068 -0.1573
C10 C 0.6717(7) 0.1161(4) -0.0200(5)
H10 H 0.6621 0.1628 -0.0224
C11 C 0.5361(6) 0.2817(3) 0.3801(4)
C12 C 0.6553(7) 0.3120(3) 0.3596(5)
H11 H 0.7302 0.2860 0.3472
C13 C 0.6629(7) 0.3806(3) 0.3576(5)
H12 H 0.7437 0.4010 0.3435
C14 C 0.5553(7) 0.4198(3) 0.3757(5)
C15 C 0.4384(6) 0.3892(3) 0.3990(4)
H13 H 0.3647 0.4153 0.4142
C16 C 0.4284(6) 0.3207(3) 0.4002(5)
H14 H 0.3476 0.3005 0.4149
C17 C 0.5621(6) 0.4936(3) 0.3684(5)
C18 C 0.6822(7) 0.5266(3) 0.3770(5)
H15 H 0.7609 0.5022 0.3895
C19 C 0.6874(7) 0.5949(3) 0.3672(5)
H16 H 0.7702 0.6164 0.3733
C20 C 0.5748(7) 0.6325(3) 0.3489(4)
C21 C 0.4535(7) 0.5996(3) 0.3417(5)
H17 H 0.3748 0.6240 0.3299
C22 C 0.4481(7) 0.5312(3) 0.3517(5)
H18 H 0.3652 0.5097 0.3472
C23 C 0.4664(6) 0.3310(3) 0.0685(5)
C24 C 0.5243(8) 0.3477(3) -0.0173(5)
H19 H 0.5562 0.3140 -0.0582
C25 C 0.5364(8) 0.4139(4) -0.0448(5)
H20 H 0.5737 0.4243 -0.1054
C26 C 0.4948(6) 0.4648(3) 0.0151(5)
C27 C 0.4407(8) 0.4469(3) 0.1026(5)
H21 H 0.4130 0.4805 0.1457
C28 C 0.4259(8) 0.3808(3) 0.1291(5)
H22 H 0.3877 0.3700 0.1892
Mo1B Mo 0.7500 0.83492(3) -0.2500
Cu1A Cu -0.09661(8) 0.12683(4) 0.31475(6)
Cu1B Cu 0.40339(8) 0.87317(4) -0.18525(6)
P1A P -0.02214(15) 0.19388(7) 0.11407(11)
P2A P -0.08352(17) 0.71983(8) 0.16579(12)
P3B P 0.55787(15) 0.75406(7) -0.10179(11)
O1A O 0.1455(4) 0.1124(2) 0.3068(3)
O2A O -0.1124(4) 0.1589(2) 0.1822(3)
O3A O -0.0580(5) 0.1714(2) 0.0079(3)
O4A O 0.1248(4) 0.1774(2) 0.1359(3)
O5B O 0.6535(4) 0.7541(2) -0.1842(3)
O5A O 0.1535(4) 0.2459(2) 0.3158(3)
O6B O 0.4265(4) 0.7873(2) -0.1273(3)
O6A O -0.0735(4) 0.2127(2) 0.3727(3)
O7B O 0.6163(5) 0.7901(2) -0.0075(3)
H1B H 0.6368 0.8290 -0.0219
O8A O -0.0730(5) 0.7328(2) 0.2801(3)
H2A H -0.1487 0.7363 0.3013
O9A O -0.2138(5) 0.7444(2) 0.1234(3)
O10A O 0.0393(5) 0.7501(2) 0.1269(3)
N1A N -0.0936(5) 0.0320(3) 0.2709(4)
N2A N -0.1407(5) 0.0840(3) 0.4393(4)
C1A C -0.0582(7) 0.0109(3) 0.1832(6)
H3A H -0.0441 0.0423 0.1331
C2A C -0.0413(7) -0.0557(4) 0.1635(6)
H4A H -0.0161 -0.0697 0.1007
C3A C -0.0616(8) -0.1013(4) 0.2359(7)
H5A H -0.0500 -0.1471 0.2239
C4A C -0.0988(7) -0.0796(4) 0.3260(7)
H6A H -0.1128 -0.1104 0.3769
C5A C -0.1160(7) -0.0124(3) 0.3425(5)
C6A C -0.1511(6) 0.0169(4) 0.4362(5)
C7A C -0.1936(7) -0.0186(4) 0.5146(6)
H7A H -0.1999 -0.0654 0.5119
C8A C -0.2267(8) 0.0156(5) 0.5967(7)
H8A H -0.2561 -0.0080 0.6517
C9A C -0.2179(7) 0.0832(4) 0.6009(5)
H9A H -0.2427 0.1068 0.6573
C10A C -0.1717(7) 0.1161(4) 0.5200(5)
H10A H -0.1621 0.1628 0.5224
C11A C -0.0361(6) 0.2817(3) 0.1199(4)
C12A C -0.1553(7) 0.3120(3) 0.1404(5)
H11A H -0.2302 0.2860 0.1528
C13A C -0.1629(7) 0.3806(3) 0.1424(5)
H12A H -0.2437 0.4010 0.1565
C14A C -0.0553(7) 0.4198(3) 0.1243(5)
C15A C 0.0616(6) 0.3892(3) 0.1010(4)
H13A H 0.1353 0.4153 0.0858
C16A C 0.0716(6) 0.3207(3) 0.0998(5)
H14A H 0.1524 0.3005 0.0851
C17A C -0.0621(6) 0.4936(3) 0.1316(5)
C18A C -0.1822(7) 0.5266(3) 0.1230(5)
H15A H -0.2609 0.5022 0.1105
C19A C -0.1874(7) 0.5949(3) 0.1328(5)
H16A H -0.2702 0.6164 0.1267
C20A C -0.0748(7) 0.6325(3) 0.1511(4)
C21A C 0.0465(7) 0.5996(3) 0.1583(5)
H17A H 0.1252 0.6240 0.1701
C22A C 0.0519(7) 0.5312(3) 0.1483(5)
H18A H 0.1348 0.5097 0.1528
C23B C 0.5336(6) 0.6690(3) -0.0685(5)
C24B C 0.4757(8) 0.6523(3) 0.0173(5)
H19B H 0.4438 0.6860 0.0582
C25B C 0.4636(8) 0.5861(4) 0.0448(5)
H20B H 0.4263 0.5757 0.1054
C26B C 0.5052(6) 0.5352(3) -0.0151(5)
C27B C 0.5593(8) 0.5531(3) -0.1026(5)
H21B H 0.5870 0.5195 -0.1457
C28B C 0.5741(8) 0.6192(3) -0.1291(5)
H22B H 0.6123 0.6300 -0.1892
O11 O 0.2500 0.7979(5) 0.2500
loop_
_geom_bond_atom_site_label_1
_geom_bond_atom_site_label_2
_geom_bond_site_symmetry_1
_geom_bond_site_symmetry_2
Mo1 O1 1_555 1_555
Cu1 O1 1_555 1_555
P1 O2 1_555 1_555
P2 O8 1_555 1_555
P3 O5 1_555 1_555
O2 Cu1 1_555 1_555
O3 P1 1_555 1_555
O4 Mo1 1_555 1_555
O5 Mo1 1_555 1_555
O6 Cu1 1_555 1_555
O7 P3 1_555 1_555
H1 O7 1_555 1_555
O8 H2 1_555 1_555
O9 P2 1_555 1_555
O10 P2 1_555 1_555
N1 Cu1 1_555 1_555
N2 Cu1 1_555 1_555
C1 N1 1_555 1_555
H3 C1 1_555 1_555
C2 C1 1_555 1_555
H4 C2 1_555 1_555
C3 C2 1_555 1_555
H5 C3 1_555 1_555
C4 C3 1_555 1_555
H6 C4 1_555 1_555
C5 N1 1_555 1_555
C6 N2 1_555 1_555
C7 C6 1_555 1_555
H7 C7 1_555 1_555
C8 C7 1_555 1_555
H8 C8 1_555 1_555
C9 C8 1_555 1_555
H9 C9 1_555 1_555
C10 N2 1_555 1_555
H10 C10 1_555 1_555
C11 P1 1_555 1_555
C12 C11 1_555 1_555
H11 C12 1_555 1_555
C13 C12 1_555 1_555
H12 C13 1_555 1_555
C14 C13 1_555 1_555
C15 C14 1_555 1_555
H13 C15 1_555 1_555
C16 C11 1_555 1_555
H14 C16 1_555 1_555
C17 C14 1_555 1_555
C18 C17 1_555 1_555
H15 C18 1_555 1_555
C19 C18 1_555 1_555
H16 C19 1_555 1_555
C20 P2 1_555 1_555
C21 C20 1_555 1_555
H17 C21 1_555 1_555
C22 C17 1_555 1_555
H18 C22 1_555 1_555
C23 P3 1_555 1_555
C24 C23 1_555 1_555
H19 C24 1_555 1_555
C25 C24 1_555 1_555
H20 C25 1_555 1_555
C26 C25 1_555 1_555
C27 C26 1_555 1_555
H21 C27 1_555 1_555
C28 C23 1_555 1_555
H22 C28 1_555 1_555
Mo1B O5B 1_555 1_555
Cu1A O1A 1_555 1_555
Cu1B O6B 1_555 1_555
P1A O2A 1_555 1_555
P2A O8A 1_555 1_555
P3B O5B 1_555 1_555
O1A Mo1 1_555 1_555
O2A Cu1A 1_555 1_555
O3A P1A 1_555 1_555
O4A Mo1 1_555 1_555
O5A Mo1 1_555 1_555
O6B P3B 1_555 1_555
O6A Cu1A 1_555 1_555
O7B P3B 1_555 1_555
H1B O7B 1_555 1_555
O8A H2A 1_555 1_555
O9A P2A 1_555 1_555
O10A P2A 1_555 1_555
N1A Cu1A 1_555 1_555
N2A Cu1A 1_555 1_555
C1A N1A 1_555 1_555
H3A C1A 1_555 1_555
C2A C1A 1_555 1_555
H4A C2A 1_555 1_555
C3A C2A 1_555 1_555
H5A C3A 1_555 1_555
C4A C3A 1_555 1_555
H6A C4A 1_555 1_555
C5A N1A 1_555 1_555
C6A N2A 1_555 1_555
C7A C6A 1_555 1_555
H7A C7A 1_555 1_555
C8A C7A 1_555 1_555
H8A C8A 1_555 1_555
C9A C8A 1_555 1_555
H9A C9A 1_555 1_555
C10A N2A 1_555 1_555
H10A C10A 1_555 1_555
C11A P1A 1_555 1_555
C12A C11A 1_555 1_555
H11A C12A 1_555 1_555
C13A C12A 1_555 1_555
H12A C13A 1_555 1_555
C14A C13A 1_555 1_555
C15A C14A 1_555 1_555
H13A C15A 1_555 1_555
C16A C11A 1_555 1_555
H14A C16A 1_555 1_555
C17A C14A 1_555 1_555
C18A C17A 1_555 1_555
H15A C18A 1_555 1_555
C19A C18A 1_555 1_555
H16A C19A 1_555 1_555
C20A P2A 1_555 1_555
C21A C20A 1_555 1_555
H17A C21A 1_555 1_555
C22A C17A 1_555 1_555
H18A C22A 1_555 1_555
C23B P3B 1_555 1_555
C24B C23B 1_555 1_555
H19B C24B 1_555 1_555
C25B C24B 1_555 1_555
H20B C25B 1_555 1_555
C26B C26 1_555 1_555
C27B C26B 1_555 1_555
H21B C27B 1_555 1_555
C28B C23B 1_555 1_555
H22B C28B 1_555 1_555
P1 O4 1_555 1_555
P3 O6 1_555 1_555
C4 C5 1_555 1_555
C5 C6 1_555 1_555
C9 C10 1_555 1_555
C15 C16 1_555 1_555
C19 C20 1_555 1_555
C21 C22 1_555 1_555
C27 C28 1_555 1_555
P1A O4A 1_555 1_555
C4A C5A 1_555 1_555
C5A C6A 1_555 1_555
C9A C10A 1_555 1_555
C15A C16A 1_555 1_555
C19A C20A 1_555 1_555
C21A C22A 1_555 1_555
C25B C26B 1_555 1_555
C27B C28B 1_555 1_555

#END
