
#######################################################################
#
#                 Cambridge Crystallographic Data Centre
#                                CCDC 
#
#######################################################################
#
# If this CIF has been generated from an entry in the Cambridge 
# Structural Database, then it will include bibliographic, chemical, 
# crystal, experimental, refinement or atomic coordinate data resulting 
# from the CCDC's data processing and validation procedures.
#
#######################################################################

data_ORENIJ
_symmetry_cell_setting           monoclinic
_symmetry_space_group_name_H-M   'P 21/n'
_symmetry_Int_Tables_number      14
_space_group_name_Hall           '-P 2yn'
loop_
_symmetry_equiv_pos_site_id
_symmetry_equiv_pos_as_xyz
1 x,y,z
2 1/2-x,1/2+y,1/2-z
3 -x,-y,-z
4 1/2+x,1/2-y,1/2+z
_cell_length_a                   14.7023(15)
_cell_length_b                   10.5300(11)
_cell_length_c                   17.8012(18)
_cell_angle_alpha                90
_cell_angle_beta                 103.858(2)
_cell_angle_gamma                90
_cell_volume                     2675.68
loop_
_atom_site_label
_atom_site_type_symbol
_atom_site_fract_x
_atom_site_fract_y
_atom_site_fract_z
Cu1 Cu 0.84465(2) 0.33921(3) 1.113752(16)
P1 P 0.85244(5) 0.62719(6) 1.04614(4)
P2 P 0.88076(4) 0.88189(6) 0.47056(4)
O1 O 0.75787(14) 0.67767(17) 1.06228(11)
O2 O 0.85657(13) 0.48347(16) 1.05318(10)
O3 O 0.93142(13) 0.69969(17) 1.09563(10)
O4 O 0.80532(12) 0.82136(17) 0.40926(10)
O5 O 0.97769(14) 0.82938(18) 0.45973(11)
O6 O 0.88393(12) 1.02654(17) 0.47149(10)
N1 N 0.86552(15) 0.21643(19) 1.03105(12)
N2 N 0.87489(14) 0.18589(19) 1.17485(12)
N3 N 0.85472(15) 0.4115(2) 1.22287(12)
C1 C 0.86291(18) 0.2437(2) 0.95722(14)
C2 C 0.87112(19) 0.1505(2) 0.90412(15)
C3 C 0.88163(19) 0.0261(3) 0.92809(15)
C4 C 0.88551(19) -0.0041(2) 1.00502(15)
C5 C 0.87792(17) 0.0938(2) 1.05520(14)
C6 C 0.88593(17) 0.0773(2) 1.13902(14)
C7 C 0.9046(2) -0.0361(2) 1.18027(16)
C8 C 0.9125(2) -0.0308(3) 1.25992(17)
C9 C 0.9021(2) 0.0825(3) 1.29634(16)
C10 C 0.88286(18) 0.1917(2) 1.25132(14)
C11 C 0.86909(18) 0.3212(2) 1.27891(15)
C12 C 0.8706(2) 0.3507(3) 1.35523(16)
C13 C 0.8571(2) 0.4750(3) 1.37462(17)
C14 C 0.8430(2) 0.5672(3) 1.31803(17)
C15 C 0.84218(19) 0.5316(3) 1.24260(16)
C16 C 0.84562(18) 0.6600(2) 0.94566(14)
C17 C 0.9167(2) 0.6136(3) 0.91287(15)
C18 C 0.9166(2) 0.6410(3) 0.83665(16)
C19 C 0.84640(18) 0.7168(2) 0.79106(14)
C20 C 0.77436(18) 0.7599(2) 0.82319(15)
C21 C 0.77430(18) 0.7315(2) 0.89951(15)
C22 C 0.85222(17) 0.7546(2) 0.71192(14)
C23 C 0.88033(19) 0.6680(2) 0.66242(15)
C24 C 0.88913(18) 0.7063(2) 0.58985(15)
C25 C 0.87174(17) 0.8315(2) 0.56532(14)
C26 C 0.84407(19) 0.9181(3) 0.61507(14)
C27 C 0.83399(19) 0.8801(2) 0.68709(15)
H1 H 0.854(2) 0.327(3) 0.9450(17)
H2 H 0.870(2) 0.171(3) 0.856(2)
H3 H 0.887(2) -0.039(3) 0.8957(18)
H4 H 0.893(2) -0.084(3) 1.0231(17)
H5 H 0.914(2) -0.115(3) 1.1572(18)
H6 H 0.921(2) -0.108(4) 1.286(2)
H7 H 0.907(2) 0.085(3) 1.349(2)
H8 H 0.878(2) 0.290(3) 1.3914(19)
H9 H 0.862(3) 0.495(3) 1.431(2)
H10 H 0.837(2) 0.651(3) 1.3282(18)
H11 H 0.831(2) 0.594(3) 1.2004(19)
H12 H 0.964(2) 0.567(3) 0.9433(18)
H13 H 0.966(2) 0.610(3) 0.8166(19)
H14 H 0.728(2) 0.805(3) 0.7945(17)
H15 H 0.726(2) 0.763(3) 0.9179(17)
H16 H 0.891(2) 0.584(3) 0.6780(18)
H17 H 0.907(2) 0.646(3) 0.5565(18)
H18 H 0.833(2) 1.006(3) 0.5996(18)
H19 H 0.814(2) 0.934(3) 0.7189(18)
H20 H 0.719(3) 0.629(3) 1.052(2)
H21 H 1.016(3) 0.874(3) 0.478(2)
Cu1A Cu 0.65535(2) 0.83921(3) 0.386248(16)
O4A O 0.69468(12) 0.32136(17) 1.09074(10)
O7 O 0.0535(2) 0.6526(3) 0.23228(18)
O8 O 0.0687(3) 0.6265(5) 0.3929(3)
loop_
_geom_bond_atom_site_label_1
_geom_bond_atom_site_label_2
_geom_bond_site_symmetry_1
_geom_bond_site_symmetry_2
Cu1 O2 1_555 1_555
P1 O1 1_555 1_555
P2 O4 1_555 1_555
O1 H20 1_555 1_555
O2 P1 1_555 1_555
O3 P1 1_555 1_555
O4 Cu1A 1_555 1_555
O5 P2 1_555 1_555
O6 P2 1_555 1_555
N1 Cu1 1_555 1_555
N2 Cu1 1_555 1_555
N3 Cu1 1_555 1_555
C1 N1 1_555 1_555
C2 C1 1_555 1_555
C3 C2 1_555 1_555
C4 C3 1_555 1_555
C5 N1 1_555 1_555
C6 N2 1_555 1_555
C7 C6 1_555 1_555
C8 C7 1_555 1_555
C9 C8 1_555 1_555
C10 N2 1_555 1_555
C11 N3 1_555 1_555
C12 C11 1_555 1_555
C13 C12 1_555 1_555
C14 C13 1_555 1_555
C15 N3 1_555 1_555
C16 P1 1_555 1_555
C17 C16 1_555 1_555
C18 C17 1_555 1_555
C19 C18 1_555 1_555
C20 C19 1_555 1_555
C21 C16 1_555 1_555
C22 C19 1_555 1_555
C23 C22 1_555 1_555
C24 C23 1_555 1_555
C25 P2 1_555 1_555
C26 C25 1_555 1_555
C27 C22 1_555 1_555
H1 C1 1_555 1_555
H2 C2 1_555 1_555
H3 C3 1_555 1_555
H4 C4 1_555 1_555
H5 C7 1_555 1_555
H6 C8 1_555 1_555
H7 C9 1_555 1_555
H8 C12 1_555 1_555
H9 C13 1_555 1_555
H10 C14 1_555 1_555
H11 C15 1_555 1_555
H12 C17 1_555 1_555
H13 C18 1_555 1_555
H14 C20 1_555 1_555
H15 C21 1_555 1_555
H16 C23 1_555 1_555
H17 C24 1_555 1_555
H18 C26 1_555 1_555
H19 C27 1_555 1_555
H21 O5 1_555 1_555
O4A Cu1 1_555 1_555
C4 C5 1_555 1_555
C5 C6 1_555 1_555
C9 C10 1_555 1_555
C10 C11 1_555 1_555
C14 C15 1_555 1_555
C20 C21 1_555 1_555
C24 C25 1_555 1_555
C26 C27 1_555 1_555

#END
