
#######################################################################
#
#                 Cambridge Crystallographic Data Centre
#                                CCDC 
#
#######################################################################
#
# If this CIF has been generated from an entry in the Cambridge 
# Structural Database, then it will include bibliographic, chemical, 
# crystal, experimental, refinement or atomic coordinate data resulting 
# from the CCDC's data processing and validation procedures.
#
#######################################################################

data_OREZUH
_symmetry_cell_setting           monoclinic
_symmetry_space_group_name_H-M   'P 21/c'
_symmetry_Int_Tables_number      14
_space_group_name_Hall           '-P 2ybc'
loop_
_symmetry_equiv_pos_site_id
_symmetry_equiv_pos_as_xyz
1 x,y,z
2 -x,1/2+y,1/2-z
3 -x,-y,-z
4 x,1/2-y,1/2+z
_cell_length_a                   17.886(9)
_cell_length_b                   9.829(7)
_cell_length_c                   17.5292(13)
_cell_angle_alpha                90
_cell_angle_beta                 113.619(5)
_cell_angle_gamma                90
_cell_volume                     2823.51
loop_
_atom_site_label
_atom_site_type_symbol
_atom_site_fract_x
_atom_site_fract_y
_atom_site_fract_z
Ag1 Ag 0.24153(8) 0.02163(13) 0.62101(8)
C1 C 0.4069(9) 0.0449(16) 0.7879(9)
C2 C 0.4565(9) -0.1645(16) 0.8159(9)
C3 C 0.5006(10) -0.284(2) 0.8459(11)
H1 H 0.5507 -0.2833 0.8913
C4 C 0.4661(12) -0.402(2) 0.8048(12)
H2 H 0.4941 -0.4833 0.8227
C5 C 0.3915(12) -0.4037(19) 0.7380(12)
H3 H 0.3696 -0.4863 0.7132
C6 C 0.3487(10) -0.2848(17) 0.7074(10)
H4 H 0.2992 -0.2858 0.6613
C7 C 0.3819(9) -0.1646(16) 0.7474(9)
C8 C 0.5411(10) 0.020(2) 0.9136(10)
H5 H 0.5480 0.1161 0.9070
H6 H 0.5900 -0.0263 0.9159
C9 C 0.5323(15) -0.003(4) 0.9947(14)
H7 H 0.5543 -0.0933 1.0134
H8 H 0.5694 0.0604 1.0340
C10 C 0.3992(11) 0.1948(17) 0.7938(11)
H9 H 0.4490 0.2378 0.7984
H10 H 0.3887 0.2161 0.8420
H11 H 0.3549 0.2273 0.7448
C11 C 0.0877(9) -0.1686(16) 0.5743(10)
C12 C 0.0184(9) -0.1693(16) 0.4381(11)
C13 C -0.0344(11) -0.191(2) 0.3552(13)
H12 H -0.0782 -0.2508 0.3408
C14 C -0.0187(13) -0.121(2) 0.2969(13)
H13 H -0.0529 -0.1337 0.2412
C15 C 0.0467(14) -0.030(2) 0.3165(13)
H14 H 0.0555 0.0151 0.2743
C16 C 0.0985(11) -0.0079(17) 0.3992(12)
H15 H 0.1417 0.0530 0.4132
C17 C 0.0839(9) -0.0789(16) 0.4604(10)
C18 C -0.0351(10) -0.3226(17) 0.5228(13)
H16 H -0.0857 -0.3199 0.4735
H17 H -0.0470 -0.2942 0.5697
C19 C -0.0040(11) -0.4692(18) 0.5371(13)
H18 H 0.0488 -0.4712 0.5837
H19 H -0.0412 -0.5240 0.5520
C20 C 0.1124(12) -0.203(2) 0.6635(11)
H20 H 0.0674 -0.1872 0.6791
H21 H 0.1577 -0.1469 0.6968
H22 H 0.1281 -0.2969 0.6724
C21 C 0.2398(8) 0.3981(16) 0.4900(9)
C22 C 0.2424(12) 0.390(2) 0.4121(11)
H23 H 0.2536 0.3066 0.3936
C23 C 0.2287(17) 0.502(2) 0.3622(15)
H24 H 0.2307 0.4944 0.3101
C24 C 0.2120(13) 0.625(2) 0.3884(14)
H25 H 0.2023 0.7014 0.3542
C25 C 0.2097(12) 0.6355(19) 0.4658(13)
H26 H 0.1991 0.7191 0.4843
C26 C 0.2230(10) 0.5222(16) 0.5161(11)
H27 H 0.2206 0.5296 0.5680
C27 C 0.2535(9) 0.2741(16) 0.5446(10)
N1 N 0.4709(8) -0.0298(14) 0.8407(7)
N2 N 0.3522(7) -0.0320(13) 0.7309(8)
N3 N 0.1258(7) -0.0806(13) 0.5459(8)
N4 N 0.0223(7) -0.2250(13) 0.5122(9)
O1 O 0.2397(7) 0.2821(13) 0.6086(7)
O2 O 0.2765(8) 0.1668(12) 0.5223(8)
Ag1B Ag 0.75847(8) -0.02163(13) 1.37899(8)
Ag1B_2 Ag -0.24153(8) -1.02163(13) 0.37899(8)
C1B C 0.5931(9) -0.0449(16) 1.2121(9)
C2B C 0.5435(9) 0.1645(16) 1.1841(9)
C3B C 0.4994(10) 0.284(2) 1.1541(11)
H1B H 0.4493 0.2833 1.1087
C4B C 0.5339(12) 0.402(2) 1.1952(12)
H2B H 0.5059 0.4833 1.1773
C5B C 0.6085(12) 0.4037(19) 1.2620(12)
H3B H 0.6304 0.4863 1.2868
C6B C 0.6513(10) 0.2848(17) 1.2926(10)
H4B H 0.7008 0.2858 1.3387
C7B C 0.6181(9) 0.1646(16) 1.2526(9)
C8B C 0.4589(10) -0.020(2) 1.0864(10)
H5B H 0.4520 -0.1161 1.0930
H6B H 0.4100 0.0263 1.0841
C9B C 0.4677(15) 0.003(4) 1.0053(14)
H7B H 0.4457 0.0933 0.9866
H8B H 0.4306 -0.0604 0.9660
C10B C 0.6008(11) -0.1948(17) 1.2062(11)
H9B H 0.5510 -0.2378 1.2016
H10B H 0.6113 -0.2161 1.1580
H11B H 0.6451 -0.2273 1.2552
C11B C -0.0877(9) -0.8314(16) 0.4257(10)
C12B C -0.0184(9) -0.8307(16) 0.5619(11)
C13B C 0.0344(11) -0.809(2) 0.6448(13)
H12B H 0.0782 -0.7492 0.6592
C14B C 0.0187(13) -0.879(2) 0.7031(13)
H13B H 0.0529 -0.8663 0.7588
C15B C -0.0467(14) -0.970(2) 0.6835(13)
H14B H -0.0555 -1.0151 0.7257
C16B C -0.0985(11) -0.9921(17) 0.6008(12)
H15B H -0.1417 -1.0530 0.5868
C17B C -0.0839(9) -0.9211(16) 0.5396(10)
C18B C 0.0351(10) -0.6774(17) 0.4772(13)
H16B H 0.0857 -0.6801 0.5265
H17B H 0.0470 -0.7058 0.4303
C19B C 0.0040(11) -0.5308(18) 0.4629(13)
H18B H -0.0488 -0.5288 0.4163
H19B H 0.0412 -0.4760 0.4480
C20B C -0.1124(12) -0.797(2) 0.3365(11)
H20B H -0.0674 -0.8128 0.3209
H21B H -0.1577 -0.8531 0.3032
H22B H -0.1281 -0.7031 0.3276
C21B C 0.7602(8) -0.3981(16) 1.5100(9)
C22B C 0.7576(12) -0.390(2) 1.5879(11)
H23B H 0.7464 -0.3066 1.6064
C23B C 0.7713(17) -0.502(2) 1.6378(15)
H24B H 0.7693 -0.4944 1.6899
C24B C 0.7880(13) -0.625(2) 1.6116(14)
H25B H 0.7977 -0.7014 1.6458
C25B C 0.7903(12) -0.6355(19) 1.5342(13)
H26B H 0.8009 -0.7191 1.5157
C26B C 0.7770(10) -0.5222(16) 1.4839(11)
H27B H 0.7794 -0.5296 1.4320
C27B C 0.7465(9) -0.2741(16) 1.4554(10)
N1B N 0.5291(8) 0.0298(14) 1.1593(7)
N2B N 0.6478(7) 0.0320(13) 1.2691(8)
N3B N -0.1258(7) -0.9194(13) 0.4541(8)
N3B_2 N 0.8742(7) 0.0806(13) 1.4541(8)
N4B N -0.0223(7) -0.7750(13) 0.4878(9)
O1B O 0.7603(7) -0.2821(13) 1.3914(7)
O2B O 0.7235(8) -0.1668(12) 1.4777(8)
C28 C 0.3882(17) -0.108(3) 0.5016(17)
H28 H 0.4422 -0.0720 0.5164
H29 H 0.3899 -0.2053 0.5001
H30 H 0.3678 -0.0795 0.5420
C29 C 0.336(3) -0.058(3) 0.4221(19)
H31 H 0.3590 -0.0930 0.3842
H32 H 0.2849 -0.1054 0.4083
O4 O 0.3171(17) 0.062(2) 0.4000(12)
H35 H 0.32(2) 0.135(15) 0.437(14)
O3 O 0.1946(10) 0.438(2) 0.7207(12)
H33 H 0.22(2) 0.39(3) 0.765(13)
H34 H 0.21(2) 0.40(3) 0.687(16)
loop_
_geom_bond_atom_site_label_1
_geom_bond_atom_site_label_2
_geom_bond_site_symmetry_1
_geom_bond_site_symmetry_2
Ag1 N2 1_555 1_555
C1 C10 1_555 1_555
C2 C3 1_555 1_555
C3 H1 1_555 1_555
C4 C3 1_555 1_555
H2 C4 1_555 1_555
C5 C4 1_555 1_555
H3 C5 1_555 1_555
C6 C5 1_555 1_555
H4 C6 1_555 1_555
C7 C2 1_555 1_555
C8 H5 1_555 1_555
H6 C8 1_555 1_555
C9 C8 1_555 1_555
H7 C9 1_555 1_555
H8 C9 1_555 1_555
C10 H9 1_555 1_555
H10 C10 1_555 1_555
H11 C10 1_555 1_555
C11 C20 1_555 1_555
C12 C13 1_555 1_555
C13 H12 1_555 1_555
C14 C13 1_555 1_555
H13 C14 1_555 1_555
C15 C14 1_555 1_555
H14 C15 1_555 1_555
C16 C15 1_555 1_555
H15 C16 1_555 1_555
C17 C12 1_555 1_555
C18 H16 1_555 1_555
H17 C18 1_555 1_555
C19 C18 1_555 1_555
H18 C19 1_555 1_555
H19 C19 1_555 1_555
C20 H20 1_555 1_555
H21 C20 1_555 1_555
H22 C20 1_555 1_555
C21 C22 1_555 1_555
C22 H23 1_555 1_555
C23 C22 1_555 1_555
H24 C23 1_555 1_555
C24 C23 1_555 1_555
H25 C24 1_555 1_555
C25 C24 1_555 1_555
H26 C25 1_555 1_555
C26 C21 1_555 1_555
H27 C26 1_555 1_555
C27 C21 1_555 1_555
C28 H28 1_555 1_555
H29 C28 1_555 1_555
H30 C28 1_555 1_555
C29 C28 1_555 1_555
H31 C29 1_555 1_555
H32 C29 1_555 1_555
N1 C1 1_555 1_555
N2 C1 1_555 1_555
N3 Ag1 1_555 1_555
N4 C11 1_555 1_555
O1 Ag1 1_555 1_555
O2 Ag1 1_555 1_555
O3 H33 1_555 1_555
O4 C29 1_555 1_555
H34 O3 1_555 1_555
H35 O4 1_555 1_555
Ag1B N2B 1_555 1_555
Ag1B_2 N3B 1_555 1_555
C1B C10B 1_555 1_555
C2B C3B 1_555 1_555
C3B H1B 1_555 1_555
C4B C3B 1_555 1_555
H2B C4B 1_555 1_555
C5B C4B 1_555 1_555
H3B C5B 1_555 1_555
C6B C5B 1_555 1_555
H4B C6B 1_555 1_555
C7B C2B 1_555 1_555
C8B H5B 1_555 1_555
H6B C8B 1_555 1_555
C9B C9 1_555 1_555
H7B C9B 1_555 1_555
H8B C9B 1_555 1_555
C10B H9B 1_555 1_555
H10B C10B 1_555 1_555
H11B C10B 1_555 1_555
C11B C20B 1_555 1_555
C12B C13B 1_555 1_555
C13B H12B 1_555 1_555
C14B C13B 1_555 1_555
H13B C14B 1_555 1_555
C15B C14B 1_555 1_555
H14B C15B 1_555 1_555
C16B C15B 1_555 1_555
H15B C16B 1_555 1_555
C17B C12B 1_555 1_555
C18B H16B 1_555 1_555
H17B C18B 1_555 1_555
C19B C19 1_555 1_555
H18B C19B 1_555 1_555
H19B C19B 1_555 1_555
C20B H20B 1_555 1_555
H21B C20B 1_555 1_555
H22B C20B 1_555 1_555
C21B C22B 1_555 1_555
C22B H23B 1_555 1_555
C23B C22B 1_555 1_555
H24B C23B 1_555 1_555
C24B C23B 1_555 1_555
H25B C24B 1_555 1_555
C25B C24B 1_555 1_555
H26B C25B 1_555 1_555
C26B C21B 1_555 1_555
H27B C26B 1_555 1_555
C27B C21B 1_555 1_555
N1B C1B 1_555 1_555
N2B C1B 1_555 1_555
N3B C11B 1_555 1_555
N3B_2 Ag1B 1_555 1_555
N4B C11B 1_555 1_555
O1B Ag1B 1_555 1_555
O2B Ag1B 1_555 1_555
C2 N1 1_555 1_555
C6 C7 1_555 1_555
C7 N2 1_555 1_555
C8 N1 1_555 1_555
C11 N3 1_555 1_555
C12 N4 1_555 1_555
C16 C17 1_555 1_555
C17 N3 1_555 1_555
C18 N4 1_555 1_555
C25 C26 1_555 1_555
C27 O1 1_555 1_555
C27 O2 1_555 1_555
C2B N1B 1_555 1_555
C6B C7B 1_555 1_555
C7B N2B 1_555 1_555
C8B C9B 1_555 1_555
C8B N1B 1_555 1_555
C12B N4B 1_555 1_555
C16B C17B 1_555 1_555
C17B N3B 1_555 1_555
C18B C19B 1_555 1_555
C18B N4B 1_555 1_555
C25B C26B 1_555 1_555
C27B O1B 1_555 1_555
C27B O2B 1_555 1_555

#END
