
#######################################################################
#
#                 Cambridge Crystallographic Data Centre
#                                CCDC 
#
#######################################################################
#
# If this CIF has been generated from an entry in the Cambridge 
# Structural Database, then it will include bibliographic, chemical, 
# crystal, experimental, refinement or atomic coordinate data resulting 
# from the CCDC's data processing and validation procedures.
#
#######################################################################

data_ORIBEX
_symmetry_cell_setting           orthorhombic
_symmetry_space_group_name_H-M   'P 21 21 21'
_symmetry_Int_Tables_number      19
_space_group_name_Hall           'P 2ac 2ab'
loop_
_symmetry_equiv_pos_site_id
_symmetry_equiv_pos_as_xyz
1 x,y,z
2 1/2-x,-y,1/2+z
3 1/2+x,1/2-y,-z
4 -x,1/2+y,1/2-z
_cell_length_a                   10.000(2)
_cell_length_b                   12.000(2)
_cell_length_c                   18.000(4)
_cell_angle_alpha                90
_cell_angle_beta                 90
_cell_angle_gamma                90
_cell_volume                     2160
loop_
_atom_site_label
_atom_site_type_symbol
_atom_site_fract_x
_atom_site_fract_y
_atom_site_fract_z
Ag1 Ag 0.33346(4) 0.53648(3) 0.715531(18)
C1 C 0.4867(6) 0.4743(4) 0.5703(2)
C2 C 0.3528(6) 0.5996(4) 0.5463(2)
C3 C 0.2537(7) 0.6733(4) 0.5479(3)
H1 H 0.2077 0.6901 0.5914
C4 C 0.2243(7) 0.7224(4) 0.4822(3)
H2 H 0.1554 0.7744 0.4810
C5 C 0.2909(7) 0.6993(5) 0.4173(3)
H3 H 0.2660 0.7355 0.3738
C6 C 0.3894(7) 0.6267(5) 0.4158(3)
H4 H 0.4368 0.6112 0.3726
C7 C 0.4175(6) 0.5763(4) 0.4807(3)
C8 C 0.5942(7) 0.4459(5) 0.4463(3)
H5 H 0.5491 0.4387 0.3988
H6 H 0.6145 0.3713 0.4637
C9 C 0.7200(6) 0.5055(5) 0.4347(3)
H7 H 0.6998 0.5808 0.4185
H8 H 0.7691 0.4692 0.3950
C10 C 0.8085(6) 0.5117(4) 0.5024(3)
H9 H 0.7597 0.5489 0.5418
H10 H 0.8275 0.4364 0.5190
C11 C 0.9366(6) 0.5705(4) 0.4909(3)
H11 H 0.9175 0.6466 0.4761
H12 H 0.9841 0.5734 0.5378
C12 C 1.0344(5) 0.5429(4) 0.3644(2)
C13 C 1.1686(6) 0.4157(3) 0.3865(2)
C14 C 1.2669(6) 0.3408(4) 0.3843(3)
H13 H 1.3101 0.3224 0.3403
C15 C 1.3000(7) 0.2935(5) 0.4491(3)
H14 H 1.3686 0.2411 0.4496
C16 C 1.2377(7) 0.3186(5) 0.5147(3)
H15 H 1.2649 0.2827 0.5579
C17 C 1.1399(7) 0.3925(5) 0.5183(3)
H16 H 1.0965 0.4101 0.5624
C18 C 1.1080(6) 0.4406(4) 0.4527(3)
C19 C 0.5564(7) 0.3882(5) 0.6076(3)
H17 H 0.6455 0.4128 0.6189
H18 H 0.5604 0.3235 0.5763
H19 H 0.5106 0.3700 0.6529
C20 C 0.9652(7) 0.6297(4) 0.3282(3)
H20 H 0.9871 0.6293 0.2763
H21 H 0.9906 0.6999 0.3495
H22 H 0.8706 0.6191 0.3341
C21 C -0.0729(5) 0.6427(4) 0.7329(2)
C22 C -0.1012(7) 0.7391(4) 0.7653(3)
C23 C -0.2307(6) 0.7599(4) 0.7860(4)
H23 H -0.2495 0.8271 0.8095
C24 C -0.3303(7) 0.6898(5) 0.7743(3)
H24 H -0.4166 0.7067 0.7898
C25 C -0.3045(7) 0.5970(5) 0.7408(4)
H25 H -0.3729 0.5470 0.7300
C26 C -0.1783(6) 0.5740(4) 0.7219(3)
H26 H -0.1617 0.5056 0.6995
C27 C 0.0625(6) 0.6104(4) 0.7115(3)
N1 N 0.5038(5) 0.4972(3) 0.4981(2)
N2 N 0.3989(5) 0.5351(4) 0.6016(2)
N3 N 1.0215(5) 0.5218(3) 0.4369(2)
N4 N 1.1198(5) 0.4817(3) 0.3322(2)
N5 N -0.0044(7) 0.8110(4) 0.7766(3)
O1 O 0.0808(5) 0.5196(3) 0.6892(3)
O2 O 0.1564(4) 0.6750(3) 0.7151(2)
H27 H 0.083(8) 0.797(5) 0.761(3)
H28 H -0.037(8) 0.874(6) 0.789(4)
Ag1A Ag 1.16654(4) 0.46352(3) 0.215531(18)
N4A N 0.3802(5) 0.5183(3) 0.8322(2)
loop_
_geom_bond_atom_site_label_1
_geom_bond_atom_site_label_2
_geom_bond_site_symmetry_1
_geom_bond_site_symmetry_2
Ag1 N2 1_555 1_555
C1 C19 1_555 1_555
C2 C3 1_555 1_555
C3 H1 1_555 1_555
C4 C3 1_555 1_555
H2 C4 1_555 1_555
C5 C4 1_555 1_555
H3 C5 1_555 1_555
C6 C5 1_555 1_555
H4 C6 1_555 1_555
C7 C2 1_555 1_555
C8 H5 1_555 1_555
H6 C8 1_555 1_555
C9 C8 1_555 1_555
H7 C9 1_555 1_555
H8 C9 1_555 1_555
C10 C9 1_555 1_555
H9 C10 1_555 1_555
H10 C10 1_555 1_555
C11 C10 1_555 1_555
H11 C11 1_555 1_555
H12 C11 1_555 1_555
C12 C20 1_555 1_555
C13 C14 1_555 1_555
C14 H13 1_555 1_555
C15 C14 1_555 1_555
H14 C15 1_555 1_555
C16 C15 1_555 1_555
H15 C16 1_555 1_555
C17 C16 1_555 1_555
H16 C17 1_555 1_555
C18 C13 1_555 1_555
C19 H17 1_555 1_555
H18 C19 1_555 1_555
H19 C19 1_555 1_555
C20 H20 1_555 1_555
H21 C20 1_555 1_555
H22 C20 1_555 1_555
C21 C22 1_555 1_555
C22 C23 1_555 1_555
C23 H23 1_555 1_555
C24 C23 1_555 1_555
H24 C24 1_555 1_555
C25 C24 1_555 1_555
H25 C25 1_555 1_555
C26 C21 1_555 1_555
H26 C26 1_555 1_555
C27 C21 1_555 1_555
N1 C1 1_555 1_555
N2 C1 1_555 1_555
N3 C11 1_555 1_555
N4 C12 1_555 1_555
N5 C22 1_555 1_555
O1 Ag1 1_555 1_555
O2 Ag1 1_555 1_555
H27 N5 1_555 1_555
H28 N5 1_555 1_555
Ag1A N4 1_555 1_555
N4A Ag1 1_555 1_555
C2 N2 1_555 1_555
C6 C7 1_555 1_555
C7 N1 1_555 1_555
C8 N1 1_555 1_555
C12 N3 1_555 1_555
C13 N4 1_555 1_555
C17 C18 1_555 1_555
C18 N3 1_555 1_555
C25 C26 1_555 1_555
C27 O1 1_555 1_555
C27 O2 1_555 1_555

#END
