
#######################################################################
#
#                 Cambridge Crystallographic Data Centre
#                                CCDC 
#
#######################################################################
#
# If this CIF has been generated from an entry in the Cambridge 
# Structural Database, then it will include bibliographic, chemical, 
# crystal, experimental, refinement or atomic coordinate data resulting 
# from the CCDC's data processing and validation procedures.
#
#######################################################################

data_ORIBAT
_symmetry_cell_setting           triclinic
_symmetry_space_group_name_H-M   'P -1'
_symmetry_Int_Tables_number      2
_space_group_name_Hall           '-P 1'
loop_
_symmetry_equiv_pos_site_id
_symmetry_equiv_pos_as_xyz
1 x,y,z
2 -x,-y,-z
_cell_length_a                   9.0362(18)
_cell_length_b                   9.7342(19)
_cell_length_c                   17.163(3)
_cell_angle_alpha                83.64(8)
_cell_angle_beta                 75.36(5)
_cell_angle_gamma                86.68(3)
_cell_volume                     1450.95
loop_
_atom_site_label
_atom_site_type_symbol
_atom_site_fract_x
_atom_site_fract_y
_atom_site_fract_z
Ag1 Ag 0.46835(3) 0.53435(3) 0.740553(17)
C1 C 0.4047(4) 0.3271(4) 0.9010(2)
C2 C 0.5907(4) 0.3406(3) 0.9619(2)
C3 C 0.6931(5) 0.3306(4) 1.0105(2)
H1 H 0.6794 0.2684 1.0568
C4 C 0.8142(5) 0.4152(4) 0.9879(3)
H2 H 0.8847 0.4103 1.0194
C5 C 0.8357(5) 0.5086(4) 0.9192(3)
H3 H 0.9203 0.5645 0.9059
C6 C 0.7353(4) 0.5210(4) 0.8699(2)
H4 H 0.7499 0.5842 0.8241
C7 C 0.6110(4) 0.4343(3) 0.89221(19)
C8 C 0.3868(5) 0.1699(4) 1.0315(2)
H5 H 0.2772 0.1886 1.0463
H6 H 0.4251 0.1781 1.0787
C9 C 0.4166(4) 0.0225(4) 1.0088(2)
H7 H 0.3593 -0.0396 1.0528
H8 H 0.3789 0.0145 0.9614
C10 C 0.2619(5) 0.2825(4) 0.8851(3)
H9 H 0.1845 0.2711 0.9351
H10 H 0.2811 0.1962 0.8616
H11 H 0.2276 0.3513 0.8485
C11 C 0.3145(3) 0.5723(3) 0.59024(19)
C12 C 0.3228(3) 0.3669(3) 0.54625(18)
C13 C 0.3138(4) 0.2522(3) 0.5065(2)
H12 H 0.2772 0.2591 0.4602
C14 C 0.3624(4) 0.1273(4) 0.5397(2)
H13 H 0.3573 0.0476 0.5154
C15 C 0.4186(4) 0.1174(4) 0.6085(3)
H14 H 0.4497 0.0312 0.6291
C16 C 0.4292(4) 0.2318(4) 0.6467(2)
H15 H 0.4685 0.2249 0.6921
C17 C 0.3791(3) 0.3582(3) 0.61496(19)
C18 C 0.2097(4) 0.5647(3) 0.46752(19)
H16 H 0.2418 0.5103 0.4218
H17 H 0.2452 0.6578 0.4497
C19 C 0.0358(4) 0.5696(3) 0.4945(2)
H18 H 0.0047 0.6108 0.5453
H19 H -0.0036 0.6291 0.4547
C20 C 0.2853(5) 0.7235(3) 0.5960(3)
H20 H 0.3219 0.7728 0.5435
H21 H 0.3378 0.7533 0.6330
H22 H 0.1774 0.7419 0.6151
C21 C 0.7280(4) 0.9103(3) 0.7065(2)
C22 C 0.8658(5) 0.9224(4) 0.6488(3)
H23 H 0.8995 0.8524 0.6152
C23 C 0.9534(5) 1.0360(4) 0.6405(3)
H24 H 1.0453 1.0425 0.6010
C24 C 0.9068(4) 1.1398(4) 0.6897(2)
C25 C 0.7666(4) 1.1318(4) 0.7470(2)
H25 H 0.7324 1.2025 0.7802
C26 C 0.6796(4) 1.0171(4) 0.7538(2)
H26 H 0.5854 1.0121 0.7914
C27 C 0.6372(5) 0.7805(4) 0.7159(2)
C28 C 0.9655(6) 1.3531(5) 0.7294(3)
H27 H 1.0451 1.4192 0.7152
H28 H 0.9525 1.3163 0.7849
H29 H 0.8715 1.3975 0.7223
N1 N 0.3732(3) 0.4891(3) 0.64117(16)
N2 N 0.2813(3) 0.5049(3) 0.53217(15)
N3 N 0.4578(3) 0.2739(3) 0.96677(17)
N4 N 0.4933(3) 0.4220(3) 0.85496(17)
O1 O 0.7021(4) 0.6772(3) 0.68383(17)
O2 O 0.5028(4) 0.7826(3) 0.7580(2)
O3 O 1.0057(3) 1.2445(3) 0.67903(17)
Ag1A Ag -0.46835(3) 0.46565(3) 0.259447(17)
Ag1A_2 Ag 0.53165(3) -0.53435(3) 1.259447(17)
C1A C 0.5953(4) -0.3271(4) 1.0990(2)
C2A C 0.4093(4) -0.3406(3) 1.0381(2)
C3A C 0.3069(5) -0.3306(4) 0.9895(2)
H1A H 0.3206 -0.2684 0.9432
C4A C 0.1858(5) -0.4152(4) 1.0121(3)
H2A H 0.1153 -0.4103 0.9806
C5A C 0.1643(5) -0.5086(4) 1.0808(3)
H3A H 0.0797 -0.5645 1.0941
C6A C 0.2647(4) -0.5210(4) 1.1301(2)
H4A H 0.2501 -0.5842 1.1759
C7A C 0.3890(4) -0.4343(3) 1.10779(19)
C8A C 0.6132(5) -0.1699(4) 0.9685(2)
H5A H 0.7228 -0.1886 0.9537
H6A H 0.5749 -0.1781 0.9213
C9A C 0.5834(4) -0.0225(4) 0.9912(2)
H7A H 0.6407 0.0396 0.9472
H8A H 0.6211 -0.0145 1.0386
C10A C 0.7381(5) -0.2825(4) 1.1149(3)
H9A H 0.8155 -0.2711 1.0649
H10A H 0.7189 -0.1962 1.1384
H11A H 0.7724 -0.3513 1.1515
C11A C -0.3145(3) 0.4277(3) 0.40976(19)
C12A C -0.3228(3) 0.6331(3) 0.45375(18)
C13A C -0.3138(4) 0.7478(3) 0.4935(2)
H12A H -0.2772 0.7409 0.5398
C14A C -0.3624(4) 0.8727(4) 0.4603(2)
H13A H -0.3573 0.9524 0.4846
C15A C -0.4186(4) 0.8826(4) 0.3915(3)
H14A H -0.4497 0.9688 0.3709
C16A C -0.4292(4) 0.7682(4) 0.3533(2)
H15A H -0.4685 0.7751 0.3079
C17A C -0.3791(3) 0.6418(3) 0.38504(19)
C18A C -0.2097(4) 0.4353(3) 0.53248(19)
H16A H -0.2418 0.4897 0.5782
H17A H -0.2452 0.3422 0.5503
C19A C -0.0358(4) 0.4304(3) 0.5055(2)
H18A H -0.0047 0.3892 0.4547
H19A H 0.0036 0.3709 0.5453
C20A C -0.2853(5) 0.2765(3) 0.4040(3)
H20A H -0.3219 0.2272 0.4565
H21A H -0.3378 0.2467 0.3670
H22A H -0.1774 0.2581 0.3849
C21A C -0.7280(4) 0.0897(3) 0.2935(2)
C22A C -0.8658(5) 0.0776(4) 0.3512(3)
H23A H -0.8995 0.1476 0.3848
C23A C -0.9534(5) -0.0360(4) 0.3595(3)
H24A H -1.0453 -0.0425 0.3990
C24A C -0.9068(4) -0.1398(4) 0.3103(2)
C25A C -0.7666(4) -0.1318(4) 0.2530(2)
H25A H -0.7324 -0.2025 0.2198
C26A C -0.6796(4) -0.0171(4) 0.2462(2)
H26A H -0.5854 -0.0121 0.2086
C27A C -0.6372(5) 0.2195(4) 0.2841(2)
C28A C -0.9655(6) -0.3531(5) 0.2706(3)
H27A H -1.0451 -0.4192 0.2848
H28A H -0.9525 -0.3163 0.2151
H29A H -0.8715 -0.3975 0.2777
N1A N -0.3732(3) 0.5109(3) 0.35883(16)
N2A N -0.2813(3) 0.4951(3) 0.46783(15)
N3A N 0.5422(3) -0.2739(3) 1.03323(17)
N4A N 0.5067(3) -0.4220(3) 1.14504(17)
N4A_2 N -0.4933(3) 0.5780(3) 0.14504(17)
O1A O -0.7021(4) 0.3228(3) 0.31617(17)
O2A O -0.5028(4) 0.2174(3) 0.2420(2)
O3A O -1.0057(3) -0.2445(3) 0.32097(17)
C29 C 0.1535(7) 0.9470(9) 0.8087(5)
H30 H 0.1015 1.0367 0.8143
H31 H 0.1863 0.9367 0.7512
C30 C 0.0576(14) 0.8573(18) 0.8401(9)
H32 H -0.0257 0.8681 0.8143
H33 H 0.0195 0.8677 0.8967
H34 H 0.1050 0.7671 0.8334
O4 O 0.2852(4) 0.9495(4) 0.8375(2)
H35 H 0.3540 0.9031 0.8107
loop_
_geom_bond_atom_site_label_1
_geom_bond_atom_site_label_2
_geom_bond_site_symmetry_1
_geom_bond_site_symmetry_2
Ag1 N1 1_555 1_555
C1 C10 1_555 1_555
C2 C3 1_555 1_555
C3 H1 1_555 1_555
C4 C3 1_555 1_555
H2 C4 1_555 1_555
C5 C4 1_555 1_555
H3 C5 1_555 1_555
C6 C5 1_555 1_555
H4 C6 1_555 1_555
C7 C2 1_555 1_555
C8 H5 1_555 1_555
H6 C8 1_555 1_555
C9 C8 1_555 1_555
H7 C9 1_555 1_555
H8 C9 1_555 1_555
C10 H9 1_555 1_555
H10 C10 1_555 1_555
H11 C10 1_555 1_555
C11 C20 1_555 1_555
C12 C13 1_555 1_555
C13 H12 1_555 1_555
C14 C13 1_555 1_555
H13 C14 1_555 1_555
C15 C14 1_555 1_555
H14 C15 1_555 1_555
C16 C15 1_555 1_555
H15 C16 1_555 1_555
C17 C12 1_555 1_555
C18 H16 1_555 1_555
H17 C18 1_555 1_555
C19 C18 1_555 1_555
H18 C19 1_555 1_555
H19 C19 1_555 1_555
C20 H20 1_555 1_555
H21 C20 1_555 1_555
H22 C20 1_555 1_555
C21 C22 1_555 1_555
C22 H23 1_555 1_555
C23 C22 1_555 1_555
H24 C23 1_555 1_555
C24 C23 1_555 1_555
C25 C24 1_555 1_555
H25 C25 1_555 1_555
C26 C21 1_555 1_555
H26 C26 1_555 1_555
C27 C21 1_555 1_555
C28 H27 1_555 1_555
H28 C28 1_555 1_555
H29 C28 1_555 1_555
C29 H30 1_555 1_555
H31 C29 1_555 1_555
C30 C29 1_555 1_555
H32 C30 1_555 1_555
H33 C30 1_555 1_555
H34 C30 1_555 1_555
N1 C11 1_555 1_555
N2 C11 1_555 1_555
N3 C1 1_555 1_555
N4 Ag1 1_555 1_555
O1 Ag1 1_555 1_555
O2 Ag1 1_555 1_555
O3 C24 1_555 1_555
O4 C29 1_555 1_555
H35 O4 1_555 1_555
Ag1A N1A 1_555 1_555
Ag1A_2 N4A 1_555 1_555
C1A C10A 1_555 1_555
C2A C3A 1_555 1_555
C3A H1A 1_555 1_555
C4A C3A 1_555 1_555
H2A C4A 1_555 1_555
C5A C4A 1_555 1_555
H3A C5A 1_555 1_555
C6A C5A 1_555 1_555
H4A C6A 1_555 1_555
C7A C2A 1_555 1_555
C8A H5A 1_555 1_555
H6A C8A 1_555 1_555
C9A C9 1_555 1_555
H7A C9A 1_555 1_555
H8A C9A 1_555 1_555
C10A H9A 1_555 1_555
H10A C10A 1_555 1_555
H11A C10A 1_555 1_555
C11A C20A 1_555 1_555
C12A C13A 1_555 1_555
C13A H12A 1_555 1_555
C14A C13A 1_555 1_555
H13A C14A 1_555 1_555
C15A C14A 1_555 1_555
H14A C15A 1_555 1_555
C16A C15A 1_555 1_555
H15A C16A 1_555 1_555
C17A C12A 1_555 1_555
C18A H16A 1_555 1_555
H17A C18A 1_555 1_555
C19A C19 1_555 1_555
H18A C19A 1_555 1_555
H19A C19A 1_555 1_555
C20A H20A 1_555 1_555
H21A C20A 1_555 1_555
H22A C20A 1_555 1_555
C21A C22A 1_555 1_555
C22A H23A 1_555 1_555
C23A C22A 1_555 1_555
H24A C23A 1_555 1_555
C24A C23A 1_555 1_555
C25A C24A 1_555 1_555
H25A C25A 1_555 1_555
C26A C21A 1_555 1_555
H26A C26A 1_555 1_555
C27A C21A 1_555 1_555
C28A H27A 1_555 1_555
H28A C28A 1_555 1_555
H29A C28A 1_555 1_555
N1A C11A 1_555 1_555
N2A C11A 1_555 1_555
N3A C1A 1_555 1_555
N4A C1A 1_555 1_555
N4A_2 Ag1A 1_555 1_555
O1A Ag1A 1_555 1_555
O2A Ag1A 1_555 1_555
O3A C24A 1_555 1_555
C1 N4 1_555 1_555
C2 N3 1_555 1_555
C6 C7 1_555 1_555
C7 N4 1_555 1_555
C8 N3 1_555 1_555
C12 N2 1_555 1_555
C16 C17 1_555 1_555
C17 N1 1_555 1_555
C18 N2 1_555 1_555
C25 C26 1_555 1_555
C27 O1 1_555 1_555
C27 O2 1_555 1_555
C28 O3 1_555 1_555
C2A N3A 1_555 1_555
C6A C7A 1_555 1_555
C7A N4A 1_555 1_555
C8A C9A 1_555 1_555
C8A N3A 1_555 1_555
C12A N2A 1_555 1_555
C16A C17A 1_555 1_555
C17A N1A 1_555 1_555
C18A C19A 1_555 1_555
C18A N2A 1_555 1_555
C25A C26A 1_555 1_555
C27A O1A 1_555 1_555
C27A O2A 1_555 1_555
C28A O3A 1_555 1_555

#END
