
#######################################################################
#
#                 Cambridge Crystallographic Data Centre
#                                CCDC 
#
#######################################################################
#
# If this CIF has been generated from an entry in the Cambridge 
# Structural Database, then it will include bibliographic, chemical, 
# crystal, experimental, refinement or atomic coordinate data resulting 
# from the CCDC's data processing and validation procedures.
#
#######################################################################

data_ORIHIH
_symmetry_cell_setting           monoclinic
_symmetry_space_group_name_H-M   'P 21/c'
_symmetry_Int_Tables_number      14
_space_group_name_Hall           '-P 2ybc'
loop_
_symmetry_equiv_pos_site_id
_symmetry_equiv_pos_as_xyz
1 x,y,z
2 -x,1/2+y,1/2-z
3 -x,-y,-z
4 x,1/2-y,1/2+z
_cell_length_a                   6.079(2)
_cell_length_b                   7.691(3)
_cell_length_c                   24.631(9)
_cell_angle_alpha                90
_cell_angle_beta                 100.091(8)
_cell_angle_gamma                90
_cell_volume                     1133.77
loop_
_atom_site_label
_atom_site_type_symbol
_atom_site_fract_x
_atom_site_fract_y
_atom_site_fract_z
La1 La 0.14082(3) 0.13525(2) 0.848927(7)
O1 O 0.2189(5) 0.2500(3) 0.94569(9)
O2 O 0.4737(4) -0.0617(3) 0.87418(10)
H1 H 0.5381 -0.1130 0.9034
H2 H 0.5857 -0.0449 0.8582
O3 O 0.3221(5) 0.2317(3) 1.03588(10)
O4 O 0.0722(4) -0.0595(3) 0.93309(9)
H3 H 0.0781 -0.1659 0.9303
O5 O 0.0005(4) 0.2479(3) 0.75337(9)
O6 O 0.0768(4) 0.3594(3) 0.67581(9)
O7 O 0.3015(4) 0.0018(3) 0.76043(8)
H4 H 0.2185 -0.0850 0.7523
O8 O -0.0072(4) -0.0396(3) 0.65071(9)
H5 H -0.0868 0.0285 0.6285
O9 O 0.2575(4) -0.2995(3) 0.65416(11)
O10 O 0.5668(4) -0.1424(3) 0.66129(10)
C1 C 0.2295(6) 0.1723(4) 0.99106(14)
C2 C 0.1119(5) -0.0041(4) 0.98914(13)
H6 H 0.2111 -0.0878 1.0113
C3 C 0.1078(6) 0.2519(4) 0.71416(13)
C4 C 0.2853(5) 0.1100(4) 0.71275(12)
H7 H 0.4301 0.1664 0.7132
C5 C 0.2226(5) 0.0096(4) 0.65843(13)
H8 H 0.2466 0.0844 0.6278
C6 C 0.3608(6) -0.1561(4) 0.65793(13)
La1B La -0.14082(3) -0.13525(2) 1.151073(7)
La1A La -0.14082(3) 0.63525(2) 0.651073(7)
La1A_2 La -0.14082(3) -0.36475(2) 0.651073(7)
La1A_3 La 0.85918(3) -0.36475(2) 0.651073(7)
La1_2 La 0.14082(3) 1.13525(2) 0.848927(7)
La1_3 La -0.85918(3) 0.13525(2) 0.848927(7)
O1B O -0.2189(5) -0.2500(3) 1.05431(9)
O2B O -0.4737(4) 0.0617(3) 1.12582(10)
H1B H -0.5381 0.1130 1.0966
H2B H -0.5857 0.0449 1.1418
O3B O -0.3221(5) -0.2317(3) 0.96412(10)
O4B O -0.0722(4) 0.0595(3) 1.06691(9)
H3B H -0.0781 0.1659 1.0697
O5A O -0.0005(4) 0.7479(3) 0.74663(9)
O5B O -0.0005(4) -0.2479(3) 1.24663(9)
O6A O -0.0768(4) 0.8594(3) 0.82419(9)
O6A_2 O -0.0768(4) -0.1406(3) 0.82419(9)
O6C O 0.0768(4) 0.1406(3) 1.17581(9)
O7A O -0.3015(4) 0.5018(3) 0.73957(8)
O7B O -0.3015(4) -0.0018(3) 1.23957(8)
H4A H -0.2185 0.4150 0.7477
H4B H -0.2185 0.0850 1.2477
O8A O 0.0072(4) 0.4604(3) 0.84929(9)
O8C O -0.0072(4) -0.4604(3) 1.15071(9)
H5A H 0.0868 0.5285 0.8715
H5C H -0.0868 -0.5285 1.1285
O9A O -0.2575(4) 0.2005(3) 0.84584(11)
O9C O 0.2575(4) -0.2005(3) 1.15416(11)
O10A O -0.5668(4) 0.3576(3) 0.83871(10)
O10A_2 O 0.4332(4) 0.3576(3) 0.83871(10)
O10C O -0.4332(4) -0.3576(3) 1.16129(10)
C1B C -0.2295(6) -0.1723(4) 1.00894(14)
C2B C -0.1119(5) 0.0041(4) 1.01086(13)
H6B H -0.2111 0.0878 0.9887
C3A C -0.1078(6) 0.7519(4) 0.78584(13)
C4A C -0.2853(5) 0.6100(4) 0.78725(12)
H7A H -0.4301 0.6664 0.7868
C5A C -0.2226(5) 0.5096(4) 0.84157(13)
H8A H -0.2466 0.5844 0.8722
C6A C -0.3608(6) 0.3439(4) 0.84207(13)
O11 O 0.2512(5) 0.6103(3) 0.94401(11)
H9 H 0.2718 0.5013 0.9481
H10 H 0.3397 0.6824 0.9626
loop_
_geom_bond_atom_site_label_1
_geom_bond_atom_site_label_2
_geom_bond_site_symmetry_1
_geom_bond_site_symmetry_2
La1 O1 1_555 1_555
O1 C1 1_555 1_555
O2 La1 1_555 1_555
H1 O2 1_555 1_555
H2 O2 1_555 1_555
O3 C1 1_555 1_555
O4 La1 1_555 1_555
H3 O4 1_555 1_555
O5 La1 1_555 1_555
O6 C3 1_555 1_555
O7 La1 1_555 1_555
H4 O7 1_555 1_555
O8 H5 1_555 1_555
O9 C6 1_555 1_555
O10 C6 1_555 1_555
C1 C2 1_555 1_555
C2 O4 1_555 1_555
H6 C2 1_555 1_555
C3 O5 1_555 1_555
C4 O7 1_555 1_555
H7 C4 1_555 1_555
C5 O8 1_555 1_555
H8 C5 1_555 1_555
C6 C5 1_555 1_555
O11 H9 1_555 1_555
H10 O11 1_555 1_555
La1B O1B 1_555 1_555
La1A O6 1_555 1_555
La1A_2 O8 1_555 1_555
La1A_3 O10 1_555 1_555
La1_2 O6A 1_555 1_555
La1_3 O10A 1_555 1_555
O1B C1B 1_555 1_555
O2B La1B 1_555 1_555
H1B O2B 1_555 1_555
H2B O2B 1_555 1_555
O3B C1B 1_555 1_555
O4B La1B 1_555 1_555
H3B O4B 1_555 1_555
O5A La1A 1_555 1_555
O5B La1B 1_555 1_555
O6A C3A 1_555 1_555
O6A_2 La1 1_555 1_555
O6C La1B 1_555 1_555
O7A La1A 1_555 1_555
O7B La1B 1_555 1_555
H4A O7A 1_555 1_555
H4B O7B 1_555 1_555
O8A La1 1_555 1_555
O8C La1B 1_555 1_555
H5A O8A 1_555 1_555
H5C O8C 1_555 1_555
O9A La1 1_555 1_555
O9C La1B 1_555 1_555
O10A C6A 1_555 1_555
O10A_2 La1 1_555 1_555
O10C La1B 1_555 1_555
C1B C2B 1_555 1_555
C2B C2 1_555 1_555
H6B C2B 1_555 1_555
C3A O5A 1_555 1_555
C4A O7A 1_555 1_555
H7A C4A 1_555 1_555
C5A O8A 1_555 1_555
H8A C5A 1_555 1_555
C6A O9A 1_555 1_555
O9 La1A_2 1_555 1_555
C3 C4 1_555 1_555
C4 C5 1_555 1_555
O4B C2B 1_555 1_555
C3A C4A 1_555 1_555
C4A C5A 1_555 1_555
C5A C6A 1_555 1_555

#END
