
#######################################################################
#
#                 Cambridge Crystallographic Data Centre
#                                CCDC 
#
#######################################################################
#
# If this CIF has been generated from an entry in the Cambridge 
# Structural Database, then it will include bibliographic, chemical, 
# crystal, experimental, refinement or atomic coordinate data resulting 
# from the CCDC's data processing and validation procedures.
#
#######################################################################

data_ORILUX
_symmetry_cell_setting           monoclinic
_symmetry_space_group_name_H-M   'P 21/c'
_symmetry_Int_Tables_number      14
_space_group_name_Hall           '-P 2ybc'
loop_
_symmetry_equiv_pos_site_id
_symmetry_equiv_pos_as_xyz
1 x,y,z
2 -x,1/2+y,1/2-z
3 -x,-y,-z
4 x,1/2-y,1/2+z
_cell_length_a                   10.4461(13)
_cell_length_b                   16.919(2)
_cell_length_c                   12.3974(15)
_cell_angle_alpha                90
_cell_angle_beta                 110.7200(10)
_cell_angle_gamma                90
_cell_volume                     2049.37
loop_
_atom_site_label
_atom_site_type_symbol
_atom_site_fract_x
_atom_site_fract_y
_atom_site_fract_z
Zn1 Zn 0.16429(2) 0.427347(15) 0.40952(2)
O1 O 0.11028(15) 0.53145(9) 0.34077(14)
O2 O 0.32738(17) 0.56813(11) 0.41466(16)
O3 O 0.01723(17) 0.88175(10) 0.12279(15)
O4 O -0.08080(17) 0.76421(11) 0.08016(17)
N1 N 0.25531(18) 0.42193(10) 0.58389(15)
N2 N 0.28042(18) 0.37960(10) 1.32307(15)
C1 C 0.1648(2) 0.62998(13) 0.1465(2)
C2 C 0.1595(2) 0.69120(14) 0.0691(2)
C3 C 0.1533(3) 0.67139(18) -0.0421(2)
H1 H 0.1497 0.7119 -0.0938
C4 C 0.1521(3) 0.5945(2) -0.0784(2)
H2 H 0.1484 0.5831 -0.1528
C5 C 0.1566(3) 0.53453(17) -0.0011(2)
H3 H 0.1548 0.4820 -0.0238
C6 C 0.1639(3) 0.55239(14) 0.1093(2)
H4 H 0.1683 0.5114 0.1604
C7 C 0.1705(3) 0.64888(13) 0.2685(2)
H5 H 0.2366 0.6908 0.2999
H6 H 0.0817 0.6684 0.2648
C8 C 0.2089(2) 0.57873(13) 0.34967(19)
C9 C 0.1557(2) 0.77743(14) 0.1013(2)
H7 H 0.1830 0.8093 0.0481
H8 H 0.2232 0.7854 0.1778
C10 C 0.0188(2) 0.80760(14) 0.10092(19)
C11 C 0.3902(2) 0.41801(14) 0.6391(2)
H9 H 0.4470 0.4203 0.5959
C12 C 0.4493(2) 0.41066(15) 0.7568(2)
H10 H 0.5441 0.4088 0.7915
C13 C 0.3684(2) 0.40602(13) 0.82407(19)
C14 C 0.2290(3) 0.41032(17) 0.7666(2)
H11 H 0.1700 0.4076 0.8077
C15 C 0.1767(2) 0.41864(15) 0.6481(2)
H12 H 0.0823 0.4221 0.6115
C16 C 0.4302(3) 0.39362(14) 0.95263(19)
H13 H 0.3763 0.4219 0.9898
H14 H 0.5221 0.4152 0.9810
C17 C 0.4356(3) 0.30644(14) 0.9842(2)
H15 H 0.4856 0.2779 0.9439
H16 H 0.3432 0.2855 0.9590
C18 C 0.5043(3) 0.29280(14) 1.1136(2)
H17 H 0.5187 0.2365 1.1272
H18 H 0.5935 0.3179 1.1392
C19 C 0.2234(2) 0.32979(14) 1.2346(2)
H19 H 0.1337 0.3135 1.2194
C20 C 0.2913(3) 0.30184(15) 1.1658(2)
H20 H 0.2467 0.2680 1.1049
C21 C 0.4253(2) 0.32353(12) 1.18617(18)
C22 C 0.4840(2) 0.37446(14) 1.2780(2)
H21 H 0.5741 0.3908 1.2958
C23 C 0.4100(2) 0.40091(14) 1.3429(2)
H22 H 0.4521 0.4353 1.4036
Zn1_2 Zn 0.16429(2) 0.427347(15) 1.40952(2)
Zn1A Zn -0.16429(2) 0.927347(15) 0.09048(2)
O3A O -0.01723(17) 0.38175(10) 0.37721(15)
N2_2 N 0.28042(18) 0.37960(10) 0.32307(15)
loop_
_geom_bond_atom_site_label_1
_geom_bond_atom_site_label_2
_geom_bond_site_symmetry_1
_geom_bond_site_symmetry_2
Zn1 O1 1_555 1_555
O1 C8 1_555 1_555
O2 C8 1_555 1_555
O3 C10 1_555 1_555
O4 C10 1_555 1_555
N1 Zn1 1_555 1_555
N2 C19 1_555 1_555
C1 C2 1_555 1_555
C2 C3 1_555 1_555
C3 H1 1_555 1_555
C4 C3 1_555 1_555
H2 C4 1_555 1_555
C5 C4 1_555 1_555
H3 C5 1_555 1_555
C6 C1 1_555 1_555
H4 C6 1_555 1_555
C7 C1 1_555 1_555
H5 C7 1_555 1_555
H6 C7 1_555 1_555
C8 C7 1_555 1_555
C9 C2 1_555 1_555
H7 C9 1_555 1_555
H8 C9 1_555 1_555
C10 C9 1_555 1_555
C11 N1 1_555 1_555
H9 C11 1_555 1_555
C12 C11 1_555 1_555
H10 C12 1_555 1_555
C13 C12 1_555 1_555
C14 C13 1_555 1_555
H11 C14 1_555 1_555
C15 N1 1_555 1_555
H12 C15 1_555 1_555
C16 C13 1_555 1_555
H13 C16 1_555 1_555
H14 C16 1_555 1_555
C17 C16 1_555 1_555
H15 C17 1_555 1_555
H16 C17 1_555 1_555
C18 C17 1_555 1_555
H17 C18 1_555 1_555
H18 C18 1_555 1_555
C19 H19 1_555 1_555
C20 C19 1_555 1_555
H20 C20 1_555 1_555
C21 C18 1_555 1_555
C22 C21 1_555 1_555
H21 C22 1_555 1_555
C23 N2 1_555 1_555
H22 C23 1_555 1_555
Zn1_2 N2 1_555 1_555
Zn1A O3 1_555 1_555
O3A Zn1 1_555 1_555
N2_2 Zn1 1_555 1_555
C5 C6 1_555 1_555
C14 C15 1_555 1_555
C20 C21 1_555 1_555
C22 C23 1_555 1_555

#END
