
#######################################################################
#
#                 Cambridge Crystallographic Data Centre
#                                CCDC 
#
#######################################################################
#
# If this CIF has been generated from an entry in the Cambridge 
# Structural Database, then it will include bibliographic, chemical, 
# crystal, experimental, refinement or atomic coordinate data resulting 
# from the CCDC's data processing and validation procedures.
#
#######################################################################

data_ORIMEI
_symmetry_cell_setting           monoclinic
_symmetry_space_group_name_H-M   'P 21/n'
_symmetry_Int_Tables_number      14
_space_group_name_Hall           '-P 2yn'
loop_
_symmetry_equiv_pos_site_id
_symmetry_equiv_pos_as_xyz
1 x,y,z
2 1/2-x,1/2+y,1/2-z
3 -x,-y,-z
4 1/2+x,1/2-y,1/2+z
_cell_length_a                   12.9235(10)
_cell_length_b                   25.122(2)
_cell_length_c                   21.5695(17)
_cell_angle_alpha                90
_cell_angle_beta                 98.1490(10)
_cell_angle_gamma                90
_cell_volume                     6932.13
loop_
_atom_site_label
_atom_site_type_symbol
_atom_site_fract_x
_atom_site_fract_y
_atom_site_fract_z
N3 N 0.9214(19) -0.1147(7) 0.3939(8)
H7 H 0.9205 -0.1524 0.3866
H8 H 0.9914 -0.1035 0.4091
H9 H 0.8970 -0.0965 0.3555
H10 H 0.8766 -0.1064 0.4245
O45 O 0.6524(19) 0.4946(11) 0.5192(9)
O46 O 1.1322(18) 0.3975(10) 0.4748(12)
O47 O 0.481(2) 0.4145(11) 0.4905(10)
O48 O 0.5155(19) 0.2678(11) 0.4322(10)
O49 O 1.244(3) 0.2135(12) 0.4757(10)
N4 N 0.9307(14) -0.2100(6) 0.4589(8)
H11 H 0.9275 -0.2419 0.4342
H12 H 0.9947 -0.2095 0.4875
H13 H 0.9281 -0.1795 0.4319
H14 H 0.8725 -0.2091 0.4820
N5 N 1.0878(13) -0.0348(7) 0.1451(7)
H15 H 1.0705 -0.0669 0.1656
H16 H 1.1577 -0.0374 0.1352
H17 H 1.0398 -0.0300 0.1073
H18 H 1.0830 -0.0050 0.1724
N6 N 0.5416(16) 0.0058(7) -0.0842(7)
H19 H 0.5685 -0.0199 -0.0532
H20 H 0.5816 0.0046 -0.1185
H21 H 0.4698 -0.0021 -0.0993
H22 H 0.5466 0.0408 -0.0660
O56 O 0.902(3) -0.4835(16) -0.0233(14)
O57 O 1.072(3) -0.0338(19) 0.4485(13)
O58 O 0.862(3) 0.1906(19) 0.0092(12)
O64 O 0.301(3) -0.1159(14) 0.329(3)
O65 O 0.375(3) -0.2251(11) 0.3342(12)
W1 W 0.69806(5) -0.28376(3) 0.10406(3)
W2 W 0.73898(6) -0.47384(3) 0.11892(3)
W3 W 0.92787(5) -0.46394(3) 0.24050(3)
W4 W 0.90663(5) -0.26735(3) 0.23692(3)
W5 W 0.52216(5) -0.27938(3) 0.19519(3)
W6 W 0.54285(5) -0.47355(3) 0.22590(3)
W7 W 0.91735(6) -0.37792(3) 0.12398(3)
W8 W 0.52246(6) -0.37590(3) 0.09678(3)
W9 W 0.53671(5) -0.37413(3) 0.32658(3)
W10 W 0.91590(5) -0.35279(3) 0.34825(3)
Dy1 Dy 0.67264(6) -0.16158(3) -0.02079(3)
W11 W 0.72843(5) -0.46248(3) 0.34892(3)
W12 W 0.73116(5) -0.26580(3) 0.33022(3)
O1 O 0.6278(9) -0.5047(4) 0.3002(5)
O2 O 0.7074(9) -0.2378(4) 0.0444(5)
O3 O 0.7909(10) -0.2564(5) 0.1705(5)
O4 O 0.8566(9) -0.5060(5) 0.1748(5)
O5 O 0.7980(9) -0.3349(4) 0.0885(5)
O6 O 0.6397(8) -0.3218(4) 0.3504(4)
O7 O 0.6246(10) -0.4246(5) 0.3828(5)
O8 O 0.6269(8) -0.2560(4) 0.2585(5)
O9 O 0.8223(8) -0.4036(4) 0.3726(5)
O10 O 0.9978(9) -0.4263(4) 0.1775(5)
O11 O 0.5807(9) -0.2410(4) 0.1333(5)
O12 O 0.8287(9) -0.2262(4) 0.2893(5)
O13 O 0.6517(9) -0.4926(4) 0.1802(5)
O14 O 0.4917(8) -0.3320(4) 0.2574(5)
O15 O 0.7170(11) -0.5263(5) 0.0664(6)
O16 O 0.5879(9) -0.3243(5) 0.0510(5)
O17 O 0.8062(8) -0.3257(4) 0.2749(5)
O18 O 0.9873(8) -0.2168(5) 0.2199(5)
O19 O 0.4990(8) -0.4255(5) 0.1627(5)
O20 O 0.8446(10) -0.4369(5) 0.0796(5)
O21 O 0.7675(11) -0.5049(5) 0.4119(6)
O22 O 0.6334(8) -0.4265(5) 0.0862(5)
O23 O 0.4497(10) -0.3594(5) 0.3762(6)
O24 O 0.4395(9) -0.3230(4) 0.1311(5)
O25 O 0.4252(9) -0.2332(5) 0.2040(6)
O26 O 0.6351(10) -0.2356(5) -0.0911(6)
C1 C 0.8451(15) -0.1134(6) 0.2290(8)
H1 H 0.9192 -0.1091 0.2302
O27 O 0.6979(10) -0.2155(5) 0.3773(5)
O28 O 0.6112(11) -0.0728(5) 0.0019(6)
O29 O 0.9929(9) -0.2966(4) 0.3082(5)
O30 O 0.9458(8) -0.3226(4) 0.1835(5)
O31 O 0.9621(8) -0.4028(4) 0.2934(5)
O32 O 0.6538(8) -0.4080(4) 0.2713(5)
C2 C 0.7233(12) -0.0816(7) -0.1437(8)
O33 O 1.0021(10) -0.3630(6) 0.0735(7)
O34 O 0.6346(8) -0.3348(4) 0.1658(4)
O35 O 0.8068(8) -0.4098(4) 0.1860(5)
O36 O 0.8274(9) -0.4802(4) 0.2945(5)
O37 O 0.7233(11) -0.1166(5) -0.1017(6)
O38 O 0.8441(9) -0.2965(4) 0.3880(5)
O39 O 0.5297(10) -0.1772(5) 0.0336(5)
O40 O 0.4704(9) -0.4357(4) 0.2846(5)
O41 O 1.0271(9) -0.5069(5) 0.2686(6)
O42 O 0.4295(11) -0.3982(5) 0.0377(6)
O43 O 0.7711(11) -0.1274(5) 0.0633(6)
C3 C 0.6982(17) -0.1180(7) 0.2798(10)
H2 H 0.6695 -0.1194 0.3184
C4 C 0.7828(11) -0.1193(6) 0.1732(7)
C5 C 0.7245(13) -0.1010(7) -0.2071(7)
N1 N 0.8025(13) -0.1131(6) 0.2829(8)
C6 C 0.7140(12) -0.1540(7) -0.2232(8)
H3 H 0.7050 -0.1797 -0.1914
C7 C 0.7341(14) -0.0654(7) -0.2563(8)
H4 H 0.7396 -0.0281 -0.2472
C8 C 0.8303(16) -0.1186(7) 0.1146(9)
C9 C 0.6780(13) -0.1235(7) 0.1691(8)
H5 H 0.6360 -0.1283 0.1291
O44 O 0.5179(9) -0.1436(4) -0.0894(4)
N2 N 0.7365(11) -0.0815(6) -0.3144(6)
C10 C 0.7273(16) -0.1316(8) -0.3300(9)
H6 H 0.7291 -0.1418 -0.3728
C11 C 0.6311(15) -0.1210(7) 0.2249(8)
O50 O 0.4574(11) -0.5257(5) 0.2078(6)
Dy3 Dy 0.30196(15) -0.16299(7) 0.19856(11)
O51 O 0.8434(10) -0.1946(6) -0.0368(6)
O52 O 0.9297(10) -0.1126(6) 0.1192(6)
O53 O 0.7304(15) -0.0332(6) -0.1330(6)
O54 O 0.4590(13) -0.1288(6) 0.1709(10)
O55 O 0.4821(15) -0.1341(6) 0.2732(10)
C12 C 0.7162(15) -0.1715(8) -0.2850(10)
C13 C 0.520(2) -0.1255(8) 0.2203(16)
O59 O 0.2263(13) -0.2378(6) 0.2429(10)
O60 O 0.2832(12) -0.0699(6) 0.2042(12)
O61 O 0.6939(15) -0.2409(7) -0.3574(9)
C14 C 0.7130(18) -0.2286(11) -0.3012(17)
O62 O 0.140(2) -0.1442(10) 0.2528(13)
W10C W 0.41590(5) -0.14721(3) -0.15175(3)
O44C O 1.0179(9) -0.3564(4) 0.4106(4)
O59C O 0.7263(13) -0.2622(6) -0.2571(10)
C14C C 0.2130(18) -0.2714(11) 0.1988(17)
Dy2? Dy 0.32035(13) -0.16165(7) 0.24574(10)
O63? O 0.247(2) -0.1625(11) 0.1331(14)
loop_
_geom_bond_atom_site_label_1
_geom_bond_atom_site_label_2
_geom_bond_site_symmetry_1
_geom_bond_site_symmetry_2
W1 O2 1_555 1_555
W2 O4 1_555 1_555
W3 O4 1_555 1_555
W4 O3 1_555 1_555
W5 O8 1_555 1_555
W6 O1 1_555 1_555
W7 O5 1_555 1_555
W8 O16 1_555 1_555
W9 O6 1_555 1_555
W10 O9 1_555 1_555
Dy1 O2 1_555 1_555
W11 O1 1_555 1_555
W12 O6 1_555 1_555
O3 W1 1_555 1_555
O5 W1 1_555 1_555
O7 W9 1_555 1_555
O8 W12 1_555 1_555
O9 W11 1_555 1_555
O10 W3 1_555 1_555
O11 W1 1_555 1_555
O12 W4 1_555 1_555
O13 W2 1_555 1_555
O14 W5 1_555 1_555
O15 W2 1_555 1_555
O16 W1 1_555 1_555
O17 W4 1_555 1_555
O18 W4 1_555 1_555
O19 W6 1_555 1_555
O20 W2 1_555 1_555
O21 W11 1_555 1_555
O22 W2 1_555 1_555
O23 W9 1_555 1_555
O24 W5 1_555 1_555
O25 W5 1_555 1_555
O26 Dy1 1_555 1_555
C1 H1 1_555 1_555
O27 W12 1_555 1_555
O28 Dy1 1_555 1_555
O29 W4 1_555 1_555
O30 W4 1_555 1_555
O31 W3 1_555 1_555
O32 W6 1_555 1_555
C2 O37 1_555 1_555
O33 W7 1_555 1_555
O34 W1 1_555 1_555
O35 W2 1_555 1_555
O36 W3 1_555 1_555
O37 Dy1 1_555 1_555
O38 W10 1_555 1_555
O39 Dy1 1_555 1_555
O40 W6 1_555 1_555
O41 W3 1_555 1_555
O42 W8 1_555 1_555
O43 Dy1 1_555 1_555
C3 H2 1_555 1_555
C4 C1 1_555 1_555
C5 C2 1_555 1_555
N1 C1 1_555 1_555
C6 C5 1_555 1_555
H3 C6 1_555 1_555
C7 C5 1_555 1_555
H4 C7 1_555 1_555
C8 O43 1_555 1_555
C9 C4 1_555 1_555
H5 C9 1_555 1_555
O44 Dy1 1_555 1_555
N2 C7 1_555 1_555
C10 N2 1_555 1_555
H6 C10 1_555 1_555
N3 H7 1_555 1_555
H8 N3 1_555 1_555
H9 N3 1_555 1_555
H10 N3 1_555 1_555
C11 C3 1_555 1_555
O50 W6 1_555 1_555
N4 H11 1_555 1_555
H12 N4 1_555 1_555
H13 N4 1_555 1_555
H14 N4 1_555 1_555
N5 H15 1_555 1_555
H16 N5 1_555 1_555
H17 N5 1_555 1_555
H18 N5 1_555 1_555
N6 H19 1_555 1_555
H20 N6 1_555 1_555
H21 N6 1_555 1_555
H22 N6 1_555 1_555
Dy3 O25 1_555 1_555
O51 Dy1 1_555 1_555
O52 C8 1_555 1_555
O53 C2 1_555 1_555
O54 Dy3 1_555 1_555
O55 Dy3 1_555 1_555
C12 C6 1_555 1_555
C13 C11 1_555 1_555
O59 Dy3 1_555 1_555
O60 Dy3 1_555 1_555
O61 C14 1_555 1_555
C14 C12 1_555 1_555
O62 Dy3 1_555 1_555
W10C O44 1_555 1_555
O44C W10 1_555 1_555
O59C C14 1_555 1_555
C14C O59 1_555 1_555
W3 O35 1_555 1_555
W5 O11 1_555 1_555
W5 O34 1_555 1_555
W6 O13 1_555 1_555
W7 O10 1_555 1_555
W7 O20 1_555 1_555
W7 O30 1_555 1_555
W7 O35 1_555 1_555
W8 O19 1_555 1_555
W8 O22 1_555 1_555
W8 O24 1_555 1_555
W8 O34 1_555 1_555
W9 O14 1_555 1_555
W9 O32 1_555 1_555
W9 O40 1_555 1_555
W10 O17 1_555 1_555
W10 O29 1_555 1_555
W10 O31 1_555 1_555
W11 O7 1_555 1_555
W11 O32 1_555 1_555
W11 O36 1_555 1_555
W12 O12 1_555 1_555
W12 O17 1_555 1_555
W12 O38 1_555 1_555
C3 N1 1_555 1_555
C4 C8 1_555 1_555
C9 C11 1_555 1_555
C10 C12 1_555 1_555
O54 C13 1_555 1_555
O55 C13 1_555 1_555

#END
