
#######################################################################
#
#                 Cambridge Crystallographic Data Centre
#                                CCDC 
#
#######################################################################
#
# If this CIF has been generated from an entry in the Cambridge 
# Structural Database, then it will include bibliographic, chemical, 
# crystal, experimental, refinement or atomic coordinate data resulting 
# from the CCDC's data processing and validation procedures.
#
#######################################################################

data_ORITIT
_symmetry_cell_setting           monoclinic
_symmetry_space_group_name_H-M   'P 21/c'
_symmetry_Int_Tables_number      14
_space_group_name_Hall           '-P 2ybc'
loop_
_symmetry_equiv_pos_site_id
_symmetry_equiv_pos_as_xyz
1 x,y,z
2 -x,1/2+y,1/2-z
3 -x,-y,-z
4 x,1/2-y,1/2+z
_cell_length_a                   11.033(2)
_cell_length_b                   7.560(3)
_cell_length_c                   15.768(4)
_cell_angle_alpha                90
_cell_angle_beta                 98.32(3)
_cell_angle_gamma                90
_cell_volume                     1301.36
loop_
_atom_site_label
_atom_site_type_symbol
_atom_site_fract_x
_atom_site_fract_y
_atom_site_fract_z
C1 C 0.5456(4) 0.2715(6) 0.3764(3)
H1 H 0.5059 0.1915 0.3370
C2 C 0.5877(4) 0.4290(6) 0.3464(3)
H2 H 0.5783 0.4528 0.2880
C3 C 0.6444(4) 0.5513(6) 0.4055(3)
C4 C 0.6581(4) 0.5090(6) 0.4912(3)
H3 H 0.6954 0.5884 0.5320
C5 C 0.6161(4) 0.3476(6) 0.5165(3)
H4 H 0.6271 0.3195 0.5745
C6 C 0.6775(4) 0.7315(6) 0.3746(3)
C7 C 0.8278(4) 0.9270(6) 0.3213(3)
H5 H 0.9096 0.9084 0.3056
C8 C 0.7453(5) 0.9786(7) 0.2391(3)
H6 H 0.7410 0.8824 0.1990
H7 H 0.7783 1.0811 0.2147
H8 H 0.6647 1.0047 0.2518
C9 C 0.8410(4) 1.0730(7) 0.3890(3)
H9 H 0.8943 1.0334 0.4389
H10 H 0.7620 1.1007 0.4041
H11 H 0.8751 1.1766 0.3663
C10 C 0.8869(4) 0.6195(6) 0.3730(3)
H12 H 0.8520 0.5216 0.4023
C11 C 0.9219(5) 0.5456(7) 0.2910(3)
H13 H 0.8498 0.5045 0.2550
H14 H 0.9779 0.4489 0.3041
H15 H 0.9604 0.6364 0.2617
C12 C 0.9975(4) 0.6862(7) 0.4336(3)
H16 H 0.9712 0.7317 0.4847
H17 H 1.0371 0.7784 0.4060
H18 H 1.0539 0.5905 0.4481
N1 N 0.5601(3) 0.2298(5) 0.4600(2)
N2 N 0.7910(3) 0.7561(5) 0.3566(2)
O1 O 0.5963(3) 0.8455(4) 0.3664(2)
Cu1 Cu 0.5000 0.0000 0.5000
Br1 Br 0.30170(4) 0.04459(7) 0.41099(3)
C1B C 0.4544(4) -0.2715(6) 0.6236(3)
H1B H 0.4941 -0.1915 0.6630
C2B C 0.4123(4) -0.4290(6) 0.6536(3)
H2B H 0.4217 -0.4528 0.7120
C3B C 0.3556(4) -0.5513(6) 0.5945(3)
C4B C 0.3419(4) -0.5090(6) 0.5088(3)
H3B H 0.3046 -0.5884 0.4680
C5B C 0.3839(4) -0.3476(6) 0.4835(3)
H4B H 0.3729 -0.3195 0.4255
C6B C 0.3225(4) -0.7315(6) 0.6254(3)
C7B C 0.1722(4) -0.9270(6) 0.6787(3)
H5B H 0.0904 -0.9084 0.6944
C8B C 0.2547(5) -0.9786(7) 0.7609(3)
H6B H 0.2590 -0.8824 0.8010
H7B H 0.2217 -1.0811 0.7853
H8B H 0.3353 -1.0047 0.7482
C9B C 0.1590(4) -1.0730(7) 0.6110(3)
H9B H 0.1057 -1.0334 0.5611
H10B H 0.2380 -1.1007 0.5959
H11B H 0.1249 -1.1766 0.6337
C10B C 0.1131(4) -0.6195(6) 0.6270(3)
H12B H 0.1480 -0.5216 0.5977
C11B C 0.0781(5) -0.5456(7) 0.7090(3)
H13B H 0.1502 -0.5045 0.7450
H14B H 0.0221 -0.4489 0.6959
H15B H 0.0396 -0.6364 0.7383
C12B C 0.0025(4) -0.6862(7) 0.5664(3)
H16B H 0.0288 -0.7317 0.5153
H17B H -0.0371 -0.7784 0.5940
H18B H -0.0539 -0.5905 0.5519
N1B N 0.4399(3) -0.2298(5) 0.5400(2)
N2B N 0.2090(3) -0.7561(5) 0.6434(2)
O1B O 0.4037(3) -0.8455(4) 0.6336(2)
O1_2 O 0.5963(3) -0.1545(4) 0.3664(2)
O1B_2 O 0.4037(3) 0.1545(4) 0.6336(2)
Cu1_2 Cu 0.5000 -1.0000 0.5000
Cu1_3 Cu 0.5000 1.0000 0.5000
Br1B Br 0.69830(4) -0.04459(7) 0.58901(3)
loop_
_geom_bond_atom_site_label_1
_geom_bond_atom_site_label_2
_geom_bond_site_symmetry_1
_geom_bond_site_symmetry_2
C1 H1 1_555 1_555
C2 C1 1_555 1_555
H2 C2 1_555 1_555
C3 C2 1_555 1_555
C4 C3 1_555 1_555
H3 C4 1_555 1_555
C5 C4 1_555 1_555
H4 C5 1_555 1_555
C6 C3 1_555 1_555
C7 H5 1_555 1_555
C8 C7 1_555 1_555
H6 C8 1_555 1_555
H7 C8 1_555 1_555
H8 C8 1_555 1_555
C9 C7 1_555 1_555
H9 C9 1_555 1_555
H10 C9 1_555 1_555
H11 C9 1_555 1_555
C10 H12 1_555 1_555
C11 C10 1_555 1_555
H13 C11 1_555 1_555
H14 C11 1_555 1_555
H15 C11 1_555 1_555
C12 C10 1_555 1_555
H16 C12 1_555 1_555
H17 C12 1_555 1_555
H18 C12 1_555 1_555
N1 C1 1_555 1_555
N2 C6 1_555 1_555
O1 C6 1_555 1_555
Cu1 N1 1_555 1_555
Br1 Cu1 1_555 1_555
C1B H1B 1_555 1_555
C2B C1B 1_555 1_555
H2B C2B 1_555 1_555
C3B C2B 1_555 1_555
C4B C3B 1_555 1_555
H3B C4B 1_555 1_555
C5B C4B 1_555 1_555
H4B C5B 1_555 1_555
C6B C3B 1_555 1_555
C7B H5B 1_555 1_555
C8B C7B 1_555 1_555
H6B C8B 1_555 1_555
H7B C8B 1_555 1_555
H8B C8B 1_555 1_555
C9B C7B 1_555 1_555
H9B C9B 1_555 1_555
H10B C9B 1_555 1_555
H11B C9B 1_555 1_555
C10B H12B 1_555 1_555
C11B C10B 1_555 1_555
H13B C11B 1_555 1_555
H14B C11B 1_555 1_555
H15B C11B 1_555 1_555
C12B C10B 1_555 1_555
H16B C12B 1_555 1_555
H17B C12B 1_555 1_555
H18B C12B 1_555 1_555
N1B Cu1 1_555 1_555
N2B C6B 1_555 1_555
O1B C6B 1_555 1_555
O1_2 Cu1 1_555 1_555
O1B_2 Cu1 1_555 1_555
Cu1_2 O1B 1_555 1_555
Cu1_3 O1 1_555 1_555
Br1B Cu1 1_555 1_555
C5 N1 1_555 1_555
C7 N2 1_555 1_555
C10 N2 1_555 1_555
C1B N1B 1_555 1_555
C5B N1B 1_555 1_555
C7B N2B 1_555 1_555
C10B N2B 1_555 1_555

#END
