
#######################################################################
#
#                 Cambridge Crystallographic Data Centre
#                                CCDC 
#
#######################################################################
#
# If this CIF has been generated from an entry in the Cambridge 
# Structural Database, then it will include bibliographic, chemical, 
# crystal, experimental, refinement or atomic coordinate data resulting 
# from the CCDC's data processing and validation procedures.
#
#######################################################################

data_ORITOZ
_symmetry_cell_setting           monoclinic
_symmetry_space_group_name_H-M   'P 2/c'
_symmetry_Int_Tables_number      13
_space_group_name_Hall           '-P 2yc'
loop_
_symmetry_equiv_pos_site_id
_symmetry_equiv_pos_as_xyz
1 x,y,z
2 -x,y,1/2-z
3 -x,-y,-z
4 x,-y,1/2+z
_cell_length_a                   15.918(5)
_cell_length_b                   7.511(4)
_cell_length_c                   14.918(3)
_cell_angle_alpha                90
_cell_angle_beta                 108.390(3)
_cell_angle_gamma                90
_cell_volume                     1692.51
loop_
_atom_site_label
_atom_site_type_symbol
_atom_site_fract_x
_atom_site_fract_y
_atom_site_fract_z
C1 C 0.6291(4) -0.2218(8) 0.5024(4)
H1 H 0.6468 -0.3031 0.4648
C2 C 0.6705(4) -0.0595(8) 0.5204(4)
H2 H 0.7136 -0.0308 0.4928
C3 C 0.6488(4) 0.0621(8) 0.5792(4)
C4 C 0.5822(4) 0.0159(8) 0.6159(4)
H3 H 0.5641 0.0954 0.6540
C5 C 0.5424(4) -0.1510(8) 0.5953(4)
H4 H 0.4994 -0.1837 0.6224
C6 C 0.6868(4) 0.2464(8) 0.5903(4)
C7 C 0.8126(5) 0.4454(9) 0.6476(5)
H5 H 0.8288 0.4872 0.7124
H6 H 0.7689 0.5272 0.6089
C8 C 0.8927(7) 0.4493(13) 0.6160(8)
H7 H 0.9392 0.3801 0.6614
C9 C 0.8777(10) 0.3691(16) 0.5184(9)
H8 H 0.9314 0.3767 0.5023
H9 H 0.8316 0.4334 0.4727
H10 H 0.8608 0.2465 0.5188
C10 C 0.9244(8) 0.6433(14) 0.6208(10)
H11 H 0.9758 0.6497 0.6005
H12 H 0.9390 0.6857 0.6846
H13 H 0.8782 0.7158 0.5804
C11 C 0.8269(4) 0.1245(8) 0.6986(4)
H14 H 0.8780 0.1057 0.6775
H15 H 0.7928 0.0151 0.6879
C12 C 0.8587(5) 0.1665(10) 0.8052(5)
H16 H 0.8945 0.2753 0.8156
C13 C 0.9169(6) 0.0137(13) 0.8561(7)
H17 H 0.9651 -0.0016 0.8312
H18 H 0.8825 -0.0937 0.8469
H19 H 0.9397 0.0399 0.9224
C14 C 0.7809(6) 0.1962(12) 0.8420(5)
H20 H 0.7458 0.2939 0.8088
H21 H 0.8025 0.2230 0.9083
H22 H 0.7452 0.0905 0.8322
N1 N 0.5645(3) -0.2669(6) 0.5368(4)
N2 N 0.7722(3) 0.2681(7) 0.6423(4)
O1 O 0.6401(3) 0.3707(6) 0.5474(4)
O2 O 0.5015(3) -0.4650(6) 0.3639(4)
H23 H 0.4421 -0.4729 0.3415
H24 H 0.5057 -0.5272 0.3191
Cu1 Cu 0.5000 -0.5000 0.5000
C1B C 0.3709(4) -0.7782(8) 0.4976(4)
H1B H 0.3532 -0.6969 0.5352
C2B C 0.3295(4) -0.9405(8) 0.4796(4)
H2B H 0.2864 -0.9692 0.5072
C3B C 0.3512(4) -1.0621(8) 0.4208(4)
C4B C 0.4178(4) -1.0159(8) 0.3841(4)
H3B H 0.4359 -1.0954 0.3460
C5B C 0.4576(4) -0.8490(8) 0.4047(4)
H4B H 0.5006 -0.8163 0.3776
C6B C 0.3132(4) -1.2464(8) 0.4097(4)
C7B C 0.1874(5) -1.4454(9) 0.3524(5)
H5B H 0.1712 -1.4872 0.2876
H6B H 0.2311 -1.5272 0.3911
C8B C 0.1073(7) -1.4493(13) 0.3840(8)
H7B H 0.0608 -1.3801 0.3386
C9B C 0.1223(10) -1.3691(16) 0.4816(9)
H8B H 0.0686 -1.3767 0.4977
H9B H 0.1684 -1.4334 0.5273
H10B H 0.1392 -1.2465 0.4812
C10B C 0.0756(8) -1.6433(14) 0.3792(10)
H11B H 0.0242 -1.6497 0.3995
H12B H 0.0610 -1.6857 0.3154
H13B H 0.1218 -1.7158 0.4196
C11B C 0.1731(4) -1.1245(8) 0.3014(4)
H14B H 0.1220 -1.1057 0.3225
H15B H 0.2072 -1.0151 0.3121
C12B C 0.1413(5) -1.1665(10) 0.1948(5)
H16B H 0.1055 -1.2753 0.1844
C13B C 0.0831(6) -1.0137(13) 0.1439(7)
H17B H 0.0349 -0.9984 0.1688
H18B H 0.1175 -0.9063 0.1531
H19B H 0.0603 -1.0399 0.0776
C14B C 0.2191(6) -1.1962(12) 0.1580(5)
H20B H 0.2542 -1.2939 0.1912
H21B H 0.1975 -1.2230 0.0917
H22B H 0.2548 -1.0905 0.1678
N1B N 0.4355(3) -0.7331(6) 0.4632(4)
N2B N 0.2278(3) -1.2681(7) 0.3577(4)
O1B O 0.3599(3) -1.3707(6) 0.4526(4)
O1_2 O 0.6401(3) -0.6293(6) 0.5474(4)
O1B_2 O 0.3599(3) -0.3707(6) 0.4526(4)
O2B O 0.4985(3) -0.5350(6) 0.6361(4)
H23B H 0.5579 -0.5271 0.6585
H24B H 0.4943 -0.4728 0.6809
Cu1_2 Cu 0.5000 -1.5000 0.5000
Cu1_3 Cu 0.5000 0.5000 0.5000
N3 N 0.6680(4) -0.3053(8) 0.8036(4)
O3 O 0.6398(6) -0.1849(10) 0.8427(6)
O4 O 0.7288(4) -0.2804(10) 0.7706(6)
O5 O 0.6292(3) -0.4576(7) 0.7930(3)
loop_
_geom_bond_atom_site_label_1
_geom_bond_atom_site_label_2
_geom_bond_site_symmetry_1
_geom_bond_site_symmetry_2
C1 H1 1_555 1_555
C2 C1 1_555 1_555
H2 C2 1_555 1_555
C3 C2 1_555 1_555
C4 C3 1_555 1_555
H3 C4 1_555 1_555
C5 C4 1_555 1_555
H4 C5 1_555 1_555
C6 C3 1_555 1_555
C7 H5 1_555 1_555
H6 C7 1_555 1_555
C8 C7 1_555 1_555
H7 C8 1_555 1_555
C9 C8 1_555 1_555
H8 C9 1_555 1_555
H9 C9 1_555 1_555
H10 C9 1_555 1_555
C10 C8 1_555 1_555
H11 C10 1_555 1_555
H12 C10 1_555 1_555
H13 C10 1_555 1_555
C11 H14 1_555 1_555
H15 C11 1_555 1_555
C12 C11 1_555 1_555
H16 C12 1_555 1_555
C13 C12 1_555 1_555
H17 C13 1_555 1_555
H18 C13 1_555 1_555
H19 C13 1_555 1_555
C14 C12 1_555 1_555
H20 C14 1_555 1_555
H21 C14 1_555 1_555
H22 C14 1_555 1_555
N1 C1 1_555 1_555
N2 C6 1_555 1_555
N3 O3 1_555 1_555
O1 C6 1_555 1_555
O2 H23 1_555 1_555
H24 O2 1_555 1_555
O4 N3 1_555 1_555
O5 N3 1_555 1_555
Cu1 N1 1_555 1_555
C1B H1B 1_555 1_555
C2B C1B 1_555 1_555
H2B C2B 1_555 1_555
C3B C2B 1_555 1_555
C4B C3B 1_555 1_555
H3B C4B 1_555 1_555
C5B C4B 1_555 1_555
H4B C5B 1_555 1_555
C6B C3B 1_555 1_555
C7B H5B 1_555 1_555
H6B C7B 1_555 1_555
C8B C7B 1_555 1_555
H7B C8B 1_555 1_555
C9B C8B 1_555 1_555
H8B C9B 1_555 1_555
H9B C9B 1_555 1_555
H10B C9B 1_555 1_555
C10B C8B 1_555 1_555
H11B C10B 1_555 1_555
H12B C10B 1_555 1_555
H13B C10B 1_555 1_555
C11B H14B 1_555 1_555
H15B C11B 1_555 1_555
C12B C11B 1_555 1_555
H16B C12B 1_555 1_555
C13B C12B 1_555 1_555
H17B C13B 1_555 1_555
H18B C13B 1_555 1_555
H19B C13B 1_555 1_555
C14B C12B 1_555 1_555
H20B C14B 1_555 1_555
H21B C14B 1_555 1_555
H22B C14B 1_555 1_555
N1B Cu1 1_555 1_555
N2B C6B 1_555 1_555
O1B C6B 1_555 1_555
O1_2 Cu1 1_555 1_555
O1B_2 Cu1 1_555 1_555
O2B Cu1 1_555 1_555
H23B O2B 1_555 1_555
H24B O2B 1_555 1_555
Cu1_2 O1B 1_555 1_555
Cu1_3 O1 1_555 1_555
C5 N1 1_555 1_555
C7 N2 1_555 1_555
C11 N2 1_555 1_555
O2 Cu1 1_555 1_555
C1B N1B 1_555 1_555
C5B N1B 1_555 1_555
C7B N2B 1_555 1_555
C11B N2B 1_555 1_555

#END
