
#######################################################################
#
#                 Cambridge Crystallographic Data Centre
#                                CCDC 
#
#######################################################################
#
# If this CIF has been generated from an entry in the Cambridge 
# Structural Database, then it will include bibliographic, chemical, 
# crystal, experimental, refinement or atomic coordinate data resulting 
# from the CCDC's data processing and validation procedures.
#
#######################################################################

data_OROJIP
_symmetry_cell_setting           monoclinic
_symmetry_space_group_name_H-M   'P 21/c'
_symmetry_Int_Tables_number      14
_space_group_name_Hall           '-P 2ybc'
loop_
_symmetry_equiv_pos_site_id
_symmetry_equiv_pos_as_xyz
1 x,y,z
2 -x,1/2+y,1/2-z
3 -x,-y,-z
4 x,1/2-y,1/2+z
_cell_length_a                   13.814(2)
_cell_length_b                   14.009(2)
_cell_length_c                   15.283(3)
_cell_angle_alpha                90
_cell_angle_beta                 113.277(3)
_cell_angle_gamma                90
_cell_volume                     2716.84
loop_
_atom_site_label
_atom_site_type_symbol
_atom_site_fract_x
_atom_site_fract_y
_atom_site_fract_z
Br1 Br 1.20768(13) 0.47572(10) 0.09334(9)
Br2 Br 1.30573(14) 0.45579(11) 0.41009(10)
C1 C 1.0149(10) 0.6360(9) 0.1540(9)
H1 H 1.0024 0.5934 0.1040
C2 C 1.0936(11) 0.7158(9) 0.2830(8)
C3 C 1.1662(12) 0.7525(10) 0.3690(9)
H2 H 1.2356 0.7316 0.3965
C4 C 1.1266(13) 0.8223(10) 0.4099(9)
H3 H 1.1722 0.8500 0.4664
C5 C 1.0247(12) 0.8527(9) 0.3720(9)
H4 H 1.0032 0.8988 0.4043
C6 C 0.9520(11) 0.8167(9) 0.2865(9)
H5 H 0.8827 0.8383 0.2601
C7 C 0.9884(11) 0.7469(8) 0.2426(8)
C8 C 0.8319(10) 0.7043(9) 0.0901(8)
H6 H 0.7890 0.7300 0.1216
H7 H 0.8045 0.6416 0.0658
C9 C 0.8216(11) 0.7672(8) 0.0085(8)
C10 C 0.8976(12) 0.8644(9) -0.0691(9)
C11 C 0.9876(12) 0.9095(11) -0.0741(10)
H8 H 1.0550 0.8984 -0.0284
C12 C 0.9699(17) 0.9730(10) -0.1528(13)
H9 H 1.0272 1.0042 -0.1572
C13 C 0.8716(19) 0.9888(14) -0.2212(14)
H10 H 0.8637 1.0300 -0.2713
C14 C 0.7854(15) 0.9459(12) -0.2179(11)
H11 H 0.7192 0.9577 -0.2653
C15 C 0.7959(14) 0.8832(11) -0.1423(11)
C16 C 0.7217(11) 0.7823(9) -0.0659(9)
C17 C 0.6284(10) 0.7351(9) -0.0595(9)
H12 H 0.6380 0.6666 -0.0600
H13 H 0.6260 0.7517 0.0012
C18 C 0.4673(10) 0.8335(9) -0.1338(9)
H14 H 0.4877 0.8802 -0.0867
C19 C 0.3781(10) 0.7544(9) -0.2589(8)
C20 C 0.2995(11) 0.7189(10) -0.3447(9)
H15 H 0.2349 0.7491 -0.3751
C21 C 0.3259(16) 0.6356(13) -0.3800(11)
H16 H 0.2769 0.6088 -0.4355
C22 C 0.4230(17) 0.5916(14) -0.3352(13)
H17 H 0.4379 0.5381 -0.3637
C23 C 0.4991(15) 0.6235(11) -0.2496(12)
H18 H 0.5624 0.5916 -0.2176
C24 C 0.4723(13) 0.7081(10) -0.2156(10)
Hg1 Hg 1.24987(4) 0.54911(3) 0.25722(3)
N1 N 1.1073(8) 0.6449(7) 0.2246(7)
N2 N 0.9395(8) 0.6938(7) 0.1599(6)
N3 N 0.9089(9) 0.8053(7) 0.0071(7)
N4 N 0.7101(9) 0.8383(8) -0.1380(8)
N5 N 0.5290(9) 0.7587(7) -0.1333(7)
N6 N 0.3759(8) 0.8347(7) -0.2066(7)
Hg1C Hg 0.24987(4) 0.95089(3) -0.24278(3)
N6C N 1.3759(8) 0.6653(7) 0.2934(7)
C25 C 0.436(3) 0.612(2) 0.060(3)
Cl1 Cl 0.3896(9) 0.5856(9) -0.0559(7)
Cl2 Cl 0.5297(11) 0.6662(12) 0.1148(8)
loop_
_geom_bond_atom_site_label_1
_geom_bond_atom_site_label_2
_geom_bond_site_symmetry_1
_geom_bond_site_symmetry_2
Br1 Hg1 1_555 1_555
Br2 Hg1 1_555 1_555
C1 H1 1_555 1_555
C2 C3 1_555 1_555
C3 H2 1_555 1_555
C4 C3 1_555 1_555
H3 C4 1_555 1_555
C5 C4 1_555 1_555
H4 C5 1_555 1_555
C6 C5 1_555 1_555
H5 C6 1_555 1_555
C7 C2 1_555 1_555
C8 H6 1_555 1_555
H7 C8 1_555 1_555
C9 C8 1_555 1_555
C10 C11 1_555 1_555
C11 H8 1_555 1_555
C12 C11 1_555 1_555
H9 C12 1_555 1_555
C13 C12 1_555 1_555
H10 C13 1_555 1_555
C14 C13 1_555 1_555
H11 C14 1_555 1_555
C15 C10 1_555 1_555
C16 C9 1_555 1_555
C17 C16 1_555 1_555
H12 C17 1_555 1_555
H13 C17 1_555 1_555
C18 H14 1_555 1_555
C19 C20 1_555 1_555
C20 H15 1_555 1_555
C21 C20 1_555 1_555
H16 C21 1_555 1_555
C22 C21 1_555 1_555
H17 C22 1_555 1_555
C23 C22 1_555 1_555
H18 C23 1_555 1_555
C24 C19 1_555 1_555
C25 Cl1 1_555 1_555
Cl2 C25 1_555 1_555
Hg1 N1 1_555 1_555
N1 C1 1_555 1_555
N2 C1 1_555 1_555
N3 C9 1_555 1_555
N4 C15 1_555 1_555
N5 C17 1_555 1_555
N6 C18 1_555 1_555
Hg1C N6 1_555 1_555
N6C Hg1 1_555 1_555
C2 N1 1_555 1_555
C6 C7 1_555 1_555
C7 N2 1_555 1_555
C8 N2 1_555 1_555
C10 N3 1_555 1_555
C14 C15 1_555 1_555
C16 N4 1_555 1_555
C18 N5 1_555 1_555
C19 N6 1_555 1_555
C23 C24 1_555 1_555
C24 N5 1_555 1_555

#END
