
#######################################################################
#
#                 Cambridge Crystallographic Data Centre
#                                CCDC 
#
#######################################################################
#
# If this CIF has been generated from an entry in the Cambridge 
# Structural Database, then it will include bibliographic, chemical, 
# crystal, experimental, refinement or atomic coordinate data resulting 
# from the CCDC's data processing and validation procedures.
#
#######################################################################

data_OROKUC01
_symmetry_cell_setting           orthorhombic
_symmetry_space_group_name_H-M   'P c a 21'
_symmetry_Int_Tables_number      29
_space_group_name_Hall           'P 2c -2ac'
loop_
_symmetry_equiv_pos_site_id
_symmetry_equiv_pos_as_xyz
1 x,y,z
2 -x,-y,1/2+z
3 1/2-x,y,1/2+z
4 1/2+x,-y,z
_cell_length_a                   13.5463(15)
_cell_length_b                   6.6022(7)
_cell_length_c                   8.3418(9)
_cell_angle_alpha                90
_cell_angle_beta                 90
_cell_angle_gamma                90
_cell_volume                     746.052
loop_
_atom_site_label
_atom_site_type_symbol
_atom_site_fract_x
_atom_site_fract_y
_atom_site_fract_z
U1 U 0.963160(7) 0.042509(16) 0.53590(4)
O1 O 1.13056(18) -0.0410(4) 0.5849(3)
O2 O 1.29269(18) -0.0186(4) 0.6201(4)
O3 O 0.98956(17) 0.2848(4) 0.6172(3)
O4 O 0.93577(18) -0.1972(4) 0.4498(3)
O5 O 1.03652(18) 0.1162(5) 0.2906(3)
N1 N 1.3308(2) -0.2841(5) 0.3939(3)
N2 N 1.1845(3) -0.5651(7) 0.3064(6)
C1 C 1.2175(2) -0.0938(5) 0.5554(6)
C2 C 1.3510(3) -0.4441(6) 0.3026(5)
H1 H 1.4150 -0.4615 0.2650
C3 C 1.1637(3) -0.4018(6) 0.3961(5)
H2 H 1.0990 -0.3814 0.4297
C4 C 1.2353(2) -0.2624(6) 0.4403(4)
C5 C 1.2794(3) -0.5865(8) 0.2614(6)
H3 H 1.2976 -0.6990 0.2012
U1C U 1.463160(7) -0.042509(16) 0.53590(4)
U1A U 1.036840(7) -0.042509(16) 0.03590(4)
O2C O 0.79269(18) 0.0186(4) 0.6201(4)
O5A O 0.96348(18) -0.1162(5) 0.7906(3)
loop_
_geom_bond_atom_site_label_1
_geom_bond_atom_site_label_2
_geom_bond_site_symmetry_1
_geom_bond_site_symmetry_2
U1 O1 1_555 1_555
O1 C1 1_555 1_555
O2 C1 1_555 1_555
O3 U1 1_555 1_555
O4 U1 1_555 1_555
O5 U1 1_555 1_555
N1 C2 1_555 1_555
N2 C3 1_555 1_555
C1 C4 1_555 1_555
C2 H1 1_555 1_555
C3 H2 1_555 1_555
C4 N1 1_555 1_555
C5 N2 1_555 1_555
H3 C5 1_555 1_555
U1C O2 1_555 1_555
U1A O5 1_555 1_555
O2C U1 1_555 1_555
O5A U1 1_555 1_555
C2 C5 1_555 1_555
C3 C4 1_555 1_555

#END
