
#######################################################################
#
#                 Cambridge Crystallographic Data Centre
#                                CCDC 
#
#######################################################################
#
# If this CIF has been generated from an entry in the Cambridge 
# Structural Database, then it will include bibliographic, chemical, 
# crystal, experimental, refinement or atomic coordinate data resulting 
# from the CCDC's data processing and validation procedures.
#
#######################################################################

data_OROLEN
_symmetry_cell_setting           monoclinic
_symmetry_space_group_name_H-M   'C c'
_symmetry_Int_Tables_number      9
_space_group_name_Hall           'C -2yc'
loop_
_symmetry_equiv_pos_site_id
_symmetry_equiv_pos_as_xyz
1 x,y,z
2 x,-y,1/2+z
3 1/2+x,1/2+y,z
4 1/2+x,1/2-y,1/2+z
_cell_length_a                   8.4646(8)
_cell_length_b                   13.0357(11)
_cell_length_c                   11.8955(10)
_cell_angle_alpha                90
_cell_angle_beta                 96.815(2)
_cell_angle_gamma                90
_cell_volume                     1303.3
loop_
_atom_site_label
_atom_site_type_symbol
_atom_site_fract_x
_atom_site_fract_y
_atom_site_fract_z
U1 U 0.76611(6) 0.420473(15) 0.40571(6)
C1 C 0.4302(8) 0.2881(5) 0.4317(5)
C2 C 0.2866(8) 0.2559(6) 0.4623(6)
H1 H 0.2147 0.2198 0.4118
C3 C 0.2521(9) 0.2787(7) 0.5711(7)
H2 H 0.1551 0.2594 0.5942
C4 C 0.3610(9) 0.3290(7) 0.6427(6)
H3 H 0.3419 0.3414 0.7169
C5 C 0.5004(9) 0.3619(6) 0.6058(6)
H4 H 0.5735 0.3974 0.6558
C6 C 0.4791(8) 0.2627(6) 0.3177(6)
C7 C 1.0407(8) 0.5573(5) 0.5831(6)
C8 C 1.1751(9) 0.6042(7) 0.6328(6)
H5 H 1.1796 0.6294 0.7062
C9 C 1.3051(9) 0.6141(6) 0.5727(6)
H6 H 1.3982 0.6454 0.6051
C10 C 1.2929(9) 0.5765(5) 0.4646(6)
H7 H 1.3788 0.5801 0.4228
C11 C 1.1498(8) 0.5327(6) 0.4182(6)
H8 H 1.1407 0.5096 0.3437
C12 C 0.8965(8) 0.5402(5) 0.6437(5)
N1 N 0.5346(6) 0.3445(5) 0.5004(4)
N2 N 1.0261(7) 0.5227(5) 0.4758(4)
O1 O 0.6020(6) 0.3131(5) 0.2942(4)
O2 O 0.4033(7) 0.2018(5) 0.2546(5)
O3 O 0.7795(5) 0.4972(4) 0.5891(4)
O4 O 0.9036(6) 0.5728(4) 0.7440(4)
O5 O 0.8856(6) 0.3152(4) 0.4543(4)
O6 O 0.6453(6) 0.5260(4) 0.3588(4)
U1A U 0.76611(6) 0.579527(15) 0.90571(6)
O4A O 0.9036(6) 0.4272(4) 0.2440(4)
loop_
_geom_bond_atom_site_label_1
_geom_bond_atom_site_label_2
_geom_bond_site_symmetry_1
_geom_bond_site_symmetry_2
U1 N1 1_555 1_555
C1 C2 1_555 1_555
C2 H1 1_555 1_555
C3 C2 1_555 1_555
H2 C3 1_555 1_555
C4 C3 1_555 1_555
H3 C4 1_555 1_555
C5 C4 1_555 1_555
H4 C5 1_555 1_555
C6 C1 1_555 1_555
C7 C8 1_555 1_555
C8 H5 1_555 1_555
C9 C8 1_555 1_555
H6 C9 1_555 1_555
C10 C9 1_555 1_555
H7 C10 1_555 1_555
C11 C10 1_555 1_555
H8 C11 1_555 1_555
C12 C7 1_555 1_555
N1 C1 1_555 1_555
N2 U1 1_555 1_555
O1 U1 1_555 1_555
O2 C6 1_555 1_555
O3 U1 1_555 1_555
O4 C12 1_555 1_555
O5 U1 1_555 1_555
O6 U1 1_555 1_555
U1A O4 1_555 1_555
O4A U1 1_555 1_555
C5 N1 1_555 1_555
C6 O1 1_555 1_555
C7 N2 1_555 1_555
C11 N2 1_555 1_555
C12 O3 1_555 1_555

#END
