
#######################################################################
#
#                 Cambridge Crystallographic Data Centre
#                                CCDC 
#
#######################################################################
#
# If this CIF has been generated from an entry in the Cambridge 
# Structural Database, then it will include bibliographic, chemical, 
# crystal, experimental, refinement or atomic coordinate data resulting 
# from the CCDC's data processing and validation procedures.
#
#######################################################################

data_OROMUE
_symmetry_cell_setting           orthorhombic
_symmetry_space_group_name_H-M   'P b c n'
_symmetry_Int_Tables_number      60
_space_group_name_Hall           '-P 2n 2ab'
loop_
_symmetry_equiv_pos_site_id
_symmetry_equiv_pos_as_xyz
1 x,y,z
2 1/2-x,1/2-y,1/2+z
3 1/2+x,1/2-y,-z
4 -x,y,1/2-z
5 -x,-y,-z
6 1/2+x,1/2+y,1/2-z
7 1/2-x,1/2+y,z
8 x,-y,1/2+z
_cell_length_a                   10.1910(4)
_cell_length_b                   10.7910(4)
_cell_length_c                   20.1440(9)
_cell_angle_alpha                90
_cell_angle_beta                 90
_cell_angle_gamma                90
_cell_volume                     2215.26
loop_
_atom_site_label
_atom_site_type_symbol
_atom_site_fract_x
_atom_site_fract_y
_atom_site_fract_z
Mn1 Mn 0.00000 0.50000 0.00000
S1 S 0.44396(11) 0.41673(10) -0.08082(6)
S2 S 0.24566(11) 0.59952(9) -0.12407(5)
O1 O 0.0582(2) 0.3770(2) 0.07292(11)
O2 O 0.3959(3) 0.1632(2) 0.04935(12)
N1 N 0.2418(3) 0.3396(3) 0.01117(14)
N2 N 0.1985(3) 0.4313(3) -0.03242(14)
C1 C 0.1662(4) 0.3217(3) 0.06503(17)
C2 C 0.2192(3) 0.2406(3) 0.11639(16)
C3 C 0.1580(4) 0.2435(4) 0.17874(17)
C4 C 0.2060(5) 0.1767(4) 0.23154(17)
C5 C 0.3171(5) 0.1050(4) 0.22251(19)
C6 C 0.3789(4) 0.0997(3) 0.16238(18)
C7 C 0.3329(4) 0.1675(3) 0.10732(17)
C8 C 0.2852(4) 0.4741(3) -0.07248(16)
C9 C 0.5044(4) 0.5456(4) -0.1277(2)
C10 C 0.4030(5) 0.6066(5) -0.1642(3)
H1 H 0.317(2) 0.296(3) 0.0051(19)
H2 H 0.45460 0.04910 0.15760
H3 H 0.35110 0.05870 0.25880
H4 H 0.16350 0.17970 0.27350
H5 H 0.08160 0.29280 0.18460
H6 H 0.57260 0.51620 -0.15890
H7 H 0.54590 0.60570 -0.09700
H8 H 0.42760 0.69460 -0.17050
H9 H 0.39600 0.56810 -0.20860
Mn1B Mn 0.50000 0.00000 0.00000
Mn1B_2 Mn -0.50000 1.00000 0.00000
S1D S -0.44396(11) 0.58327(10) 0.08082(6)
S2D S -0.24566(11) 0.40048(9) 0.12407(5)
O1D O -0.0582(2) 0.6230(2) -0.07292(11)
O2F O 0.1041(3) 0.6632(2) 0.04935(12)
O2B O -0.1041(3) 0.3368(2) -0.04935(12)
O2D O -0.3959(3) 0.8368(2) -0.04935(12)
N1D N -0.2418(3) 0.6604(3) -0.01117(14)
N2D N -0.1985(3) 0.5687(3) 0.03242(14)
C1D C -0.1662(4) 0.6783(3) -0.06503(17)
C2D C -0.2192(3) 0.7594(3) -0.11639(16)
C3D C -0.1580(4) 0.7565(4) -0.17874(17)
C4D C -0.2060(5) 0.8233(4) -0.23154(17)
C5D C -0.3171(5) 0.8950(4) -0.22251(19)
C6D C -0.3789(4) 0.9003(3) -0.16238(18)
C7D C -0.3329(4) 0.8325(3) -0.10732(17)
C8D C -0.2852(4) 0.5259(3) 0.07248(16)
C9D C -0.5044(4) 0.4544(4) 0.1277(2)
C10D C -0.4030(5) 0.3934(5) 0.1642(3)
H1D H -0.317(2) 0.704(3) -0.0051(19)
H2D H -0.45460 0.95090 -0.15760
H3D H -0.35110 0.94130 -0.25880
H4D H -0.16350 0.82030 -0.27350
H5D H -0.08160 0.70720 -0.18460
H6D H -0.57260 0.48380 0.15890
H7D H -0.54590 0.39430 0.09700
H8D H -0.42760 0.30540 0.17050
H9D H -0.39600 0.43190 0.20860
loop_
_geom_bond_atom_site_label_1
_geom_bond_atom_site_label_2
_geom_bond_site_symmetry_1
_geom_bond_site_symmetry_2
Mn1 O1 1_555 1_555
S1 C8 1_555 1_555
S2 C8 1_555 1_555
O1 C1 1_555 1_555
O2 C7 1_555 1_555
N1 N2 1_555 1_555
N2 Mn1 1_555 1_555
C1 N1 1_555 1_555
C2 C1 1_555 1_555
C3 C2 1_555 1_555
C4 C3 1_555 1_555
C5 C4 1_555 1_555
C6 C5 1_555 1_555
C7 C2 1_555 1_555
C8 N2 1_555 1_555
C9 S1 1_555 1_555
C10 S2 1_555 1_555
H1 N1 1_555 1_555
H2 C6 1_555 1_555
H3 C5 1_555 1_555
H4 C4 1_555 1_555
H5 C3 1_555 1_555
H6 C9 1_555 1_555
H7 C9 1_555 1_555
H8 C10 1_555 1_555
H9 C10 1_555 1_555
Mn1B O2 1_555 1_555
Mn1B_2 O2D 1_555 1_555
S1D C8D 1_555 1_555
S2D C8D 1_555 1_555
O1D Mn1 1_555 1_555
O2F Mn1 1_555 1_555
O2B Mn1 1_555 1_555
O2D C7D 1_555 1_555
N1D N2D 1_555 1_555
N2D Mn1 1_555 1_555
C1D O1D 1_555 1_555
C2D C1D 1_555 1_555
C3D C2D 1_555 1_555
C4D C3D 1_555 1_555
C5D C4D 1_555 1_555
C6D C5D 1_555 1_555
C7D C2D 1_555 1_555
C8D N2D 1_555 1_555
C9D S1D 1_555 1_555
C10D S2D 1_555 1_555
H1D N1D 1_555 1_555
H2D C6D 1_555 1_555
H3D C5D 1_555 1_555
H4D C4D 1_555 1_555
H5D C3D 1_555 1_555
H6D C9D 1_555 1_555
H7D C9D 1_555 1_555
H8D C10D 1_555 1_555
H9D C10D 1_555 1_555
C6 C7 1_555 1_555
C9 C10 1_555 1_555
N1D C1D 1_555 1_555
C6D C7D 1_555 1_555
C9D C10D 1_555 1_555

#END
