
#######################################################################
#
#                 Cambridge Crystallographic Data Centre
#                                CCDC 
#
#######################################################################
#
# If this CIF has been generated from an entry in the Cambridge 
# Structural Database, then it will include bibliographic, chemical, 
# crystal, experimental, refinement or atomic coordinate data resulting 
# from the CCDC's data processing and validation procedures.
#
#######################################################################

data_OROMIS01
_symmetry_cell_setting           monoclinic
_symmetry_space_group_name_H-M   'P 21/n'
_symmetry_Int_Tables_number      14
_space_group_name_Hall           '-P 2yn'
loop_
_symmetry_equiv_pos_site_id
_symmetry_equiv_pos_as_xyz
1 x,y,z
2 1/2-x,1/2+y,1/2-z
3 -x,-y,-z
4 1/2+x,1/2-y,1/2+z
_cell_length_a                   12.4208(13)
_cell_length_b                   7.6914(8)
_cell_length_c                   18.812(2)
_cell_angle_alpha                90
_cell_angle_beta                 97.015(2)
_cell_angle_gamma                90
_cell_volume                     1783.72
loop_
_atom_site_label
_atom_site_type_symbol
_atom_site_fract_x
_atom_site_fract_y
_atom_site_fract_z
Zn1 Zn 0.879936(19) 0.79509(3) 0.176948(13)
Zn2 Zn 1.0000 1.0000 0.5000
O1 O 0.72591(12) 0.9159(2) 0.19172(8)
O2 O 0.63566(12) 1.0696(2) 0.26453(8)
O3 O 0.69816(12) 1.1867(2) 0.41687(8)
O4 O 0.84132(13) 1.1115(2) 0.49281(8)
O5 O 0.93041(15) 0.7415(2) 0.50583(10)
H1 H 0.9328 0.6761 0.4703
H2 H 0.9593 0.6857 0.5418
N1 N 0.90993(14) 0.9270(3) 0.27876(9)
N2 N 0.99008(15) 0.9287(3) 0.33247(10)
N3 N 0.95259(15) 0.9980(2) 0.38966(9)
N4 N 0.93449(15) 1.0073(2) 0.11784(10)
N5 N 1.04387(15) 0.7263(3) 0.16671(10)
C1 C 0.82039(17) 0.9964(3) 0.30143(11)
C2 C 0.84760(17) 1.0428(3) 0.37268(11)
C3 C 0.71931(17) 0.9960(3) 0.24956(11)
C4 C 0.79040(18) 1.1209(3) 0.43051(11)
C5 C 0.8740(2) 1.1423(4) 0.09242(15)
H3 H 0.8018 1.1466 0.1007
C6 C 0.9144(3) 1.2757(4) 0.05437(18)
H4 H 0.8703 1.3686 0.0378
C7 C 1.0202(3) 1.2689(4) 0.04150(19)
H5 H 1.0491 1.3571 0.0158
C8 C 1.0834(2) 1.1306(4) 0.06676(16)
H6 H 1.1553 1.1238 0.0579
C9 C 1.03919(19) 1.0010(3) 0.10555(13)
C10 C 1.10037(18) 0.8439(3) 0.13363(13)
C11 C 1.2087(2) 0.8170(4) 0.1259(2)
H7 H 1.2474 0.9001 0.1036
C12 C 1.2585(2) 0.6656(5) 0.1517(2)
H8 H 1.3307 0.6447 0.1461
C13 C 1.2008(2) 0.5463(4) 0.18558(18)
H9 H 1.2332 0.4438 0.2036
C14 C 1.0939(2) 0.5812(4) 0.19234(15)
H10 H 1.0547 0.5007 0.2157
Zn1B Zn 1.120064(19) 1.20491(3) 0.823052(13)
Zn1A Zn 0.620064(19) 1.29509(3) 0.323052(13)
Zn1C Zn 1.379936(19) 0.70491(3) 0.676948(13)
O1B O 1.27409(12) 1.0841(2) 0.80828(8)
O2B O 1.36434(12) 0.9304(2) 0.73547(8)
O2A O 0.86434(12) 0.5696(2) 0.23547(8)
O2C O 1.13566(12) 1.4304(2) 0.76453(8)
O3B O 1.30184(12) 0.8133(2) 0.58313(8)
O3A O 0.80184(12) 0.6867(2) 0.08313(8)
O3C O 1.19816(12) 1.3133(2) 0.91687(8)
O4B O 1.15868(13) 0.8885(2) 0.50719(8)
O5B O 1.06959(15) 1.2585(2) 0.49417(10)
H1B H 1.0672 1.3239 0.5297
H2B H 1.0407 1.3143 0.4582
N1B N 1.09007(14) 1.0730(3) 0.72124(9)
N2B N 1.00992(15) 1.0713(3) 0.66753(10)
N3B N 1.04741(15) 1.0020(2) 0.61034(9)
N4B N 1.06551(15) 0.9927(2) 0.88216(10)
N5B N 0.95613(15) 1.2737(3) 0.83329(10)
C1B C 1.17961(17) 1.0036(3) 0.69857(11)
C2B C 1.15240(17) 0.9572(3) 0.62732(11)
C3B C 1.28069(17) 1.0040(3) 0.75044(11)
C4B C 1.20960(18) 0.8791(3) 0.56949(11)
C5B C 1.1260(2) 0.8577(4) 0.90758(15)
H3B H 1.1982 0.8534 0.8993
C6B C 1.0856(3) 0.7243(4) 0.94563(18)
H4B H 1.1297 0.6314 0.9622
C7B C 0.9798(3) 0.7311(4) 0.95850(19)
H5B H 0.9509 0.6429 0.9842
C8B C 0.9166(2) 0.8694(4) 0.93324(16)
H6B H 0.8447 0.8762 0.9421
C9B C 0.96081(19) 0.9990(3) 0.89445(13)
C10B C 0.89963(18) 1.1561(3) 0.86637(13)
C11B C 0.7913(2) 1.1830(4) 0.8741(2)
H7B H 0.7526 1.0999 0.8964
C12B C 0.7415(2) 1.3344(5) 0.8483(2)
H8B H 0.6693 1.3553 0.8539
C13B C 0.7992(2) 1.4537(4) 0.81442(18)
H9B H 0.7668 1.5562 0.7964
C14B C 0.9061(2) 1.4188(4) 0.80766(15)
H10B H 0.9453 1.4993 0.7843
O6 O 0.65004(17) 0.8143(3) 0.88109(12)
H11 H 0.6148 0.7370 0.8552
H12 H 0.6660 0.7680 0.9223
O7 O 0.5371(2) 0.9915(3) 0.10029(11)
H13 H 0.4831 1.0159 0.1231
H14 H 0.5877 0.9750 0.1345
loop_
_geom_bond_atom_site_label_1
_geom_bond_atom_site_label_2
_geom_bond_site_symmetry_1
_geom_bond_site_symmetry_2
Zn1 O1 1_555 1_555
Zn2 O4 1_555 1_555
O1 C3 1_555 1_555
O2 C3 1_555 1_555
O3 C4 1_555 1_555
O4 C4 1_555 1_555
O5 Zn2 1_555 1_555
H1 O5 1_555 1_555
H2 O5 1_555 1_555
N1 Zn1 1_555 1_555
N2 N1 1_555 1_555
N3 Zn2 1_555 1_555
N4 Zn1 1_555 1_555
N5 Zn1 1_555 1_555
C1 N1 1_555 1_555
C2 N3 1_555 1_555
C3 C1 1_555 1_555
C4 C2 1_555 1_555
C5 N4 1_555 1_555
H3 C5 1_555 1_555
C6 C5 1_555 1_555
H4 C6 1_555 1_555
C7 C6 1_555 1_555
H5 C7 1_555 1_555
C8 C7 1_555 1_555
H6 C8 1_555 1_555
C9 N4 1_555 1_555
C10 N5 1_555 1_555
C11 C10 1_555 1_555
H7 C11 1_555 1_555
C12 C11 1_555 1_555
H8 C12 1_555 1_555
C13 C12 1_555 1_555
H9 C13 1_555 1_555
C14 N5 1_555 1_555
H10 C14 1_555 1_555
O6 H11 1_555 1_555
H12 O6 1_555 1_555
O7 H13 1_555 1_555
H14 O7 1_555 1_555
Zn1B O1B 1_555 1_555
Zn1A O2 1_555 1_555
Zn1C O2B 1_555 1_555
O1B C3B 1_555 1_555
O2B C3B 1_555 1_555
O2A Zn1 1_555 1_555
O2C Zn1B 1_555 1_555
O3B Zn1C 1_555 1_555
O3A Zn1 1_555 1_555
O3C Zn1B 1_555 1_555
O4B Zn2 1_555 1_555
O5B Zn2 1_555 1_555
H1B O5B 1_555 1_555
H2B O5B 1_555 1_555
N1B Zn1B 1_555 1_555
N2B N1B 1_555 1_555
N3B Zn2 1_555 1_555
N4B Zn1B 1_555 1_555
N5B Zn1B 1_555 1_555
C1B N1B 1_555 1_555
C2B N3B 1_555 1_555
C3B C1B 1_555 1_555
C4B O3B 1_555 1_555
C5B N4B 1_555 1_555
H3B C5B 1_555 1_555
C6B C5B 1_555 1_555
H4B C6B 1_555 1_555
C7B C6B 1_555 1_555
H5B C7B 1_555 1_555
C8B C7B 1_555 1_555
H6B C8B 1_555 1_555
C9B N4B 1_555 1_555
C10B N5B 1_555 1_555
C11B C10B 1_555 1_555
H7B C11B 1_555 1_555
C12B C11B 1_555 1_555
H8B C12B 1_555 1_555
C13B C12B 1_555 1_555
H9B C13B 1_555 1_555
C14B N5B 1_555 1_555
H10B C14B 1_555 1_555
O3 Zn1A 1_555 1_555
N2 N3 1_555 1_555
C1 C2 1_555 1_555
C8 C9 1_555 1_555
C9 C10 1_555 1_555
C13 C14 1_555 1_555
O4B C4B 1_555 1_555
N2B N3B 1_555 1_555
C1B C2B 1_555 1_555
C2B C4B 1_555 1_555
C8B C9B 1_555 1_555
C9B C10B 1_555 1_555
C13B C14B 1_555 1_555

#END
