
#######################################################################
#
#                 Cambridge Crystallographic Data Centre
#                                CCDC 
#
#######################################################################
#
# If this CIF has been generated from an entry in the Cambridge 
# Structural Database, then it will include bibliographic, chemical, 
# crystal, experimental, refinement or atomic coordinate data resulting 
# from the CCDC's data processing and validation procedures.
#
#######################################################################

data_OROMIS
_symmetry_cell_setting           monoclinic
_symmetry_space_group_name_H-M   'P 21/n'
_symmetry_Int_Tables_number      14
_space_group_name_Hall           '-P 2yn'
loop_
_symmetry_equiv_pos_site_id
_symmetry_equiv_pos_as_xyz
1 x,y,z
2 1/2-x,1/2+y,1/2-z
3 -x,-y,-z
4 1/2+x,1/2-y,1/2+z
_cell_length_a                   12.421(9)
_cell_length_b                   7.682(1)
_cell_length_c                   18.758(9)
_cell_angle_alpha                90
_cell_angle_beta                 97.070(9)
_cell_angle_gamma                90
_cell_volume                     1776.24
loop_
_atom_site_label
_atom_site_type_symbol
_atom_site_fract_x
_atom_site_fract_y
_atom_site_fract_z
Zn1 Zn 0.0000 0.0000 0.0000
Zn2 Zn -0.120317(14) -0.20394(2) -0.323139(9)
O1 O -0.27418(9) -0.08337(17) -0.30845(6)
N1 N -0.01044(11) -0.0698(2) -0.16773(7)
O2 O -0.36428(9) 0.07058(17) -0.23564(6)
C1 C -0.28063(12) -0.0027(2) -0.25073(8)
C2 C -0.17963(12) -0.0022(2) -0.19853(8)
N2 N -0.09023(10) -0.07158(19) -0.22143(7)
N3 N 0.04314(11) -0.27329(19) -0.33351(8)
C3 C 0.09971(13) -0.1554(2) -0.36631(10)
N4 N -0.04729(11) -0.00074(19) -0.11023(7)
N5 N -0.06591(11) 0.00795(19) -0.38232(8)
C4 C -0.15234(12) 0.0442(2) -0.12754(8)
C5 C 0.03861(14) 0.0011(2) -0.39448(9)
C6 C 0.09284(16) -0.4184(3) -0.30786(11)
H1 H 0.0536 -0.4989 -0.2844
C7 C 0.0198(2) 0.2692(3) -0.45881(14)
H2 H 0.0487 0.3572 -0.4847
C8 C -0.0862(2) 0.2769(3) -0.44604(14)
H3 H -0.1300 0.3702 -0.4626
C9 C 0.20791(17) -0.1818(3) -0.37396(15)
H4 H 0.2465 -0.0982 -0.3961
C10 C 0.08323(17) 0.1308(3) -0.43325(12)
H5 H 0.1553 0.1242 -0.4418
C11 C 0.25784(18) -0.3338(4) -0.34826(16)
H6 H 0.3301 -0.3546 -0.3537
C12 C -0.12665(17) 0.1429(3) -0.40790(11)
H7 H -0.1990 0.1469 -0.3997
C13 C 0.19971(18) -0.4538(3) -0.31465(14)
H8 H 0.2318 -0.5568 -0.2968
O3 O 0.06936(12) 0.2580(2) -0.00546(8)
C14 C -0.20946(12) 0.1213(2) -0.06939(8)
O4 O -0.30151(9) 0.18754(16) -0.08305(6)
O5 O -0.15816(10) 0.11208(18) -0.00716(6)
H9 H 0.066(2) 0.322(3) 0.0306(8)
H10 H 0.041(2) 0.318(3) -0.0405(8)
Zn2B Zn 0.120317(14) 0.20394(2) 0.323139(9)
Zn2A Zn -0.379683(14) 0.29606(2) -0.176861(9)
Zn2C Zn 0.379683(14) -0.29606(2) 0.176861(9)
O1B O 0.27418(9) 0.08337(17) 0.30845(6)
N1B N 0.01044(11) 0.0698(2) 0.16773(7)
O2B O 0.36428(9) -0.07058(17) 0.23564(6)
O2A O -0.13572(9) -0.42942(17) -0.26436(6)
O2C O 0.13572(9) 0.42942(17) 0.26436(6)
C1B C 0.28063(12) 0.0027(2) 0.25073(8)
C2B C 0.17963(12) 0.0022(2) 0.19853(8)
N2B N 0.09023(10) 0.07158(19) 0.22143(7)
N3B N -0.04314(11) 0.27329(19) 0.33351(8)
C3B C -0.09971(13) 0.1554(2) 0.36631(10)
N4B N 0.04729(11) 0.00074(19) 0.11023(7)
N5B N 0.06591(11) -0.00795(19) 0.38232(8)
C4B C 0.15234(12) -0.0442(2) 0.12754(8)
C5B C -0.03861(14) -0.0011(2) 0.39448(9)
C6B C -0.09284(16) 0.4184(3) 0.30786(11)
H1B H -0.0536 0.4989 0.2844
C7B C -0.0198(2) -0.2692(3) 0.45881(14)
H2B H -0.0487 -0.3572 0.4847
C8B C 0.0862(2) -0.2769(3) 0.44604(14)
H3B H 0.1300 -0.3702 0.4626
C9B C -0.20791(17) 0.1818(3) 0.37396(15)
H4B H -0.2465 0.0982 0.3961
C10B C -0.08323(17) -0.1308(3) 0.43325(12)
H5B H -0.1553 -0.1242 0.4418
C11B C -0.25784(18) 0.3338(4) 0.34826(16)
H6B H -0.3301 0.3546 0.3537
C12B C 0.12665(17) -0.1429(3) 0.40790(11)
H7B H 0.1990 -0.1469 0.3997
C13B C -0.19971(18) 0.4538(3) 0.31465(14)
H8B H -0.2318 0.5568 0.2968
O3B O -0.06936(12) -0.2580(2) 0.00546(8)
C14B C 0.20946(12) -0.1213(2) 0.06939(8)
O4B O 0.30151(9) -0.18754(16) 0.08305(6)
O4A O -0.19849(9) -0.31246(16) -0.41695(6)
O4C O 0.19849(9) 0.31246(16) 0.41695(6)
O5B O 0.15816(10) -0.11208(18) 0.00716(6)
H9B H -0.066(2) -0.322(3) -0.0306(8)
H10B H -0.041(2) -0.318(3) 0.0405(8)
O6 O -0.03646(17) 0.4909(2) -0.09988(9)
H11 H 0.0177(14) 0.510(4) -0.1226(13)
H12 H -0.0879(14) 0.470(4) -0.1332(10)
O7 O 0.15051(14) -0.3140(2) -0.11906(10)
H13 H 0.117(2) -0.236(3) -0.1446(12)
H14 H 0.164(3) -0.270(4) -0.0777(8)
loop_
_geom_bond_atom_site_label_1
_geom_bond_atom_site_label_2
_geom_bond_site_symmetry_1
_geom_bond_site_symmetry_2
Zn1 N4 1_555 1_555
Zn2 O1 1_555 1_555
O1 C1 1_555 1_555
N1 N2 1_555 1_555
O2 C1 1_555 1_555
C1 C2 1_555 1_555
C2 N2 1_555 1_555
N2 Zn2 1_555 1_555
N3 Zn2 1_555 1_555
C3 N3 1_555 1_555
N4 N1 1_555 1_555
N5 Zn2 1_555 1_555
C4 C2 1_555 1_555
C5 C3 1_555 1_555
C6 N3 1_555 1_555
H1 C6 1_555 1_555
C7 H2 1_555 1_555
C8 C7 1_555 1_555
H3 C8 1_555 1_555
C9 C3 1_555 1_555
H4 C9 1_555 1_555
C10 C5 1_555 1_555
H5 C10 1_555 1_555
C11 C9 1_555 1_555
H6 C11 1_555 1_555
C12 N5 1_555 1_555
H7 C12 1_555 1_555
C13 C6 1_555 1_555
H8 C13 1_555 1_555
O3 Zn1 1_555 1_555
C14 C4 1_555 1_555
O4 C14 1_555 1_555
O5 Zn1 1_555 1_555
H9 O3 1_555 1_555
H10 O3 1_555 1_555
O6 H11 1_555 1_555
H12 O6 1_555 1_555
O7 H13 1_555 1_555
H14 O7 1_555 1_555
Zn2B O1B 1_555 1_555
Zn2A O2 1_555 1_555
Zn2C O2B 1_555 1_555
O1B C1B 1_555 1_555
N1B N2B 1_555 1_555
O2B C1B 1_555 1_555
O2A Zn2 1_555 1_555
O2C Zn2B 1_555 1_555
C1B C2B 1_555 1_555
C2B N2B 1_555 1_555
N2B Zn2B 1_555 1_555
N3B Zn2B 1_555 1_555
C3B N3B 1_555 1_555
N4B Zn1 1_555 1_555
N5B Zn2B 1_555 1_555
C4B C2B 1_555 1_555
C5B C3B 1_555 1_555
C6B N3B 1_555 1_555
H1B C6B 1_555 1_555
C7B H2B 1_555 1_555
C8B C7B 1_555 1_555
H3B C8B 1_555 1_555
C9B C3B 1_555 1_555
H4B C9B 1_555 1_555
C10B C5B 1_555 1_555
H5B C10B 1_555 1_555
C11B C9B 1_555 1_555
H6B C11B 1_555 1_555
C12B N5B 1_555 1_555
H7B C12B 1_555 1_555
C13B C6B 1_555 1_555
H8B C13B 1_555 1_555
O3B Zn1 1_555 1_555
C14B C4B 1_555 1_555
O4B Zn2C 1_555 1_555
O4A Zn2 1_555 1_555
O4C Zn2B 1_555 1_555
O5B Zn1 1_555 1_555
H9B O3B 1_555 1_555
H10B O3B 1_555 1_555
N4 C4 1_555 1_555
N5 C5 1_555 1_555
C7 C10 1_555 1_555
C8 C12 1_555 1_555
C11 C13 1_555 1_555
C14 O5 1_555 1_555
O4 Zn2A 1_555 1_555
N1B N4B 1_555 1_555
N4B C4B 1_555 1_555
N5B C5B 1_555 1_555
C7B C10B 1_555 1_555
C8B C12B 1_555 1_555
C11B C13B 1_555 1_555
C14B O4B 1_555 1_555
C14B O5B 1_555 1_555

#END
