
#######################################################################
#
#                 Cambridge Crystallographic Data Centre
#                                CCDC 
#
#######################################################################
#
# If this CIF has been generated from an entry in the Cambridge 
# Structural Database, then it will include bibliographic, chemical, 
# crystal, experimental, refinement or atomic coordinate data resulting 
# from the CCDC's data processing and validation procedures.
#
#######################################################################

data_OROMEO
_symmetry_cell_setting           orthorhombic
_symmetry_space_group_name_H-M   'P 21 21 21'
_symmetry_Int_Tables_number      19
_space_group_name_Hall           'P 2ac 2ab'
loop_
_symmetry_equiv_pos_site_id
_symmetry_equiv_pos_as_xyz
1 x,y,z
2 1/2-x,-y,1/2+z
3 1/2+x,1/2-y,-z
4 -x,1/2+y,1/2-z
_cell_length_a                   9.653(5)
_cell_length_b                   14.022(6)
_cell_length_c                   29.683(4)
_cell_angle_alpha                90
_cell_angle_beta                 90
_cell_angle_gamma                90
_cell_volume                     4017.72
loop_
_atom_site_label
_atom_site_type_symbol
_atom_site_fract_x
_atom_site_fract_y
_atom_site_fract_z
Cd1 Cd 0.08741(6) 0.93510(4) 0.019755(19)
Cd2 Cd 0.52206(6) 0.80832(4) 0.16961(2)
Cd3 Cd 0.02148(7) 0.53870(4) 0.13724(2)
N1 N 0.7172(7) 0.9109(5) 0.1695(2)
N2 N 0.0771(7) 0.7903(4) -0.1121(2)
N3 N -0.1482(7) 0.9252(5) 0.0194(3)
O1 O 0.2485(6) 0.9698(4) 0.0792(2)
O2 O 0.3808(6) 0.9129(4) 0.1335(2)
O3 O 0.2486(6) 1.0167(4) -0.0237(2)
N4 N 0.0339(7) 0.7967(4) -0.0698(2)
C1 C 0.1796(8) 0.7336(5) 0.1288(3)
O4 O 0.3265(6) 0.7374(4) 0.1935(2)
N5 N 0.1061(8) 0.8659(5) -0.0499(2)
N6 N 0.2108(7) 0.4400(5) 0.1164(2)
N7 N -0.0098(7) 1.0915(4) 0.0372(2)
N8 N 0.6257(8) 0.9971(6) 0.2806(3)
O5 O 0.3805(6) 1.0173(4) -0.0834(2)
C2 C -0.1463(9) 1.0941(6) 0.0401(3)
N9 N 0.0276(8) 0.4077(5) 0.1858(3)
C3 C 0.1757(8) 0.8564(5) -0.1204(3)
C4 C 0.1963(8) 0.9032(5) -0.0791(3)
N10 N 0.0815(7) 0.6837(4) 0.1072(2)
C5 C 0.2824(8) 0.9047(6) 0.1057(3)
O6 O 0.1777(6) 0.6194(4) 0.1858(2)
N11 N 0.1101(7) 0.8091(5) 0.0678(2)
C6 C 0.1987(7) 0.8163(6) 0.1033(3)
C7 C 0.6295(8) 0.9526(6) 0.2402(3)
N12 N 0.5244(8) 0.8885(5) 0.2366(2)
C8 C 0.5123(10) 0.9617(7) 0.3025(3)
H1 H 0.4825 0.9793 0.3311
C9 C 0.3126(14) 0.4376(11) 0.0833(4)
H2 H 0.3300 0.4842 0.0618
N13 N 0.0388(7) 0.7286(4) 0.0710(2)
C10 C 0.1267(9) 0.3420(6) 0.1794(3)
C11 C -0.3727(10) 0.8954(7) 0.0180(4)
H3 H -0.4569 0.8636 0.0154
C12 C -0.2179(11) 1.1754(7) 0.0516(4)
H4 H -0.3141 1.1742 0.0534
C13 C 0.8370(11) 1.0329(8) 0.2108(4)
H5 H 0.8394 1.0737 0.2354
N14 N 0.3170(10) 0.2958(7) 0.1248(4)
C14 C -0.0058(11) 1.2557(6) 0.0574(4)
H6 H 0.0458 1.3104 0.0633
C15 C 0.1407(12) 0.2700(7) 0.2068(4)
H7 H 0.2102 0.2252 0.2020
C16 C -0.2146(8) 1.0030(6) 0.0304(3)
C17 C 0.4495(11) 0.8955(8) 0.2749(3)
H8 H 0.3693 0.8616 0.2815
C18 C 0.2174(9) 0.3592(6) 0.1407(3)
C19 C 0.2337(8) 0.6963(6) 0.1719(3)
N15 N -0.3558(8) 0.9882(5) 0.0286(3)
C20 C 0.0594(10) 1.1717(6) 0.0456(4)
H9 H 0.1555 1.1711 0.0435
C21 C 0.9404(12) 1.0364(8) 0.1776(4)
H10 H 1.0139 1.0789 0.1805
C22 C 0.8205(11) 0.9162(7) 0.1384(3)
H11 H 0.8148 0.8757 0.1137
C23 C 0.2831(8) 0.9844(5) -0.0619(3)
C24 C 0.9327(10) 0.9764(8) 0.1404(4)
H12 H 1.0001 0.9768 0.1180
C25 C -0.2466(10) 0.8568(6) 0.0118(4)
H13 H -0.2290 0.7939 0.0037
C26 C -0.1476(12) 1.2577(7) 0.0604(4)
H14 H -0.1943 1.3134 0.0681
C27 C 0.7316(9) 0.9671(6) 0.2059(3)
C28 C -0.0505(13) 0.3918(9) 0.2207(4)
H15 H -0.1236 0.4335 0.2262
C29 C 0.0582(16) 0.2613(9) 0.2403(6)
H16 H 0.0670 0.2086 0.2592
C30 C -0.0323(19) 0.3207(13) 0.2484(6)
H17 H -0.0872 0.3149 0.2740
C31 C 0.3916(16) 0.3424(11) 0.0893(5)
H18 H 0.4688 0.3206 0.0737
O7 O 0.1691(6) 0.8139(4) -0.1958(2)
C32 C 0.2310(9) 0.8622(6) -0.1678(3)
O8 O 0.3304(6) 0.9158(4) -0.1763(2)
Cd2B Cd 0.02206(6) 0.69168(4) -0.16961(2)
Cd3B Cd 0.52148(7) 0.96130(4) -0.13724(2)
N2B N 0.5771(7) 0.7097(4) 0.1121(2)
O5B O -0.1195(6) 0.4827(4) 0.0834(2)
O7B O 0.6691(6) 0.6861(4) 0.1958(2)
O8B O -0.1696(6) 0.5842(4) 0.1763(2)
O9 O 0.4181(7) 0.1065(4) 0.0392(2)
O10 O 0.008(2) 0.8419(12) 0.7298(6)
O11 O 0.0912(16) 0.8861(9) 0.6498(5)
loop_
_geom_bond_atom_site_label_1
_geom_bond_atom_site_label_2
_geom_bond_site_symmetry_1
_geom_bond_site_symmetry_2
Cd1 N3 1_555 1_555
Cd2 N1 1_555 1_555
Cd3 N6 1_555 1_555
N1 C22 1_555 1_555
N2 N4 1_555 1_555
N3 C16 1_555 1_555
O1 Cd1 1_555 1_555
O2 Cd2 1_555 1_555
O3 Cd1 1_555 1_555
N4 N5 1_555 1_555
C1 N10 1_555 1_555
O4 Cd2 1_555 1_555
N5 Cd1 1_555 1_555
N6 C9 1_555 1_555
N7 Cd1 1_555 1_555
N8 C7 1_555 1_555
O5 C23 1_555 1_555
C2 N7 1_555 1_555
N9 Cd3 1_555 1_555
C3 N2 1_555 1_555
C4 N5 1_555 1_555
N10 Cd3 1_555 1_555
C5 O1 1_555 1_555
O6 Cd3 1_555 1_555
N11 Cd1 1_555 1_555
C6 C1 1_555 1_555
C7 N12 1_555 1_555
N12 Cd2 1_555 1_555
C8 N8 1_555 1_555
H1 C8 1_555 1_555
C9 H2 1_555 1_555
N13 N10 1_555 1_555
C10 N9 1_555 1_555
C11 H3 1_555 1_555
C12 C2 1_555 1_555
H4 C12 1_555 1_555
C13 H5 1_555 1_555
N14 C18 1_555 1_555
C14 H6 1_555 1_555
C15 C10 1_555 1_555
H7 C15 1_555 1_555
C16 C2 1_555 1_555
C17 N12 1_555 1_555
H8 C17 1_555 1_555
C18 N6 1_555 1_555
C19 C1 1_555 1_555
N15 C11 1_555 1_555
C20 N7 1_555 1_555
H9 C20 1_555 1_555
C21 C13 1_555 1_555
H10 C21 1_555 1_555
C22 H11 1_555 1_555
C23 O3 1_555 1_555
C24 C21 1_555 1_555
H12 C24 1_555 1_555
C25 N3 1_555 1_555
H13 C25 1_555 1_555
C26 C12 1_555 1_555
H14 C26 1_555 1_555
C27 N1 1_555 1_555
C28 N9 1_555 1_555
H15 C28 1_555 1_555
C29 C15 1_555 1_555
H16 C29 1_555 1_555
C30 C28 1_555 1_555
H17 C30 1_555 1_555
C31 C9 1_555 1_555
H18 C31 1_555 1_555
O7 C32 1_555 1_555
C32 C3 1_555 1_555
O8 C32 1_555 1_555
Cd2B N2 1_555 1_555
Cd3B O5 1_555 1_555
N2B Cd2 1_555 1_555
O5B Cd3 1_555 1_555
O7B Cd2 1_555 1_555
O8B Cd3 1_555 1_555
O2 C5 1_555 1_555
O4 C19 1_555 1_555
C3 C4 1_555 1_555
C4 C23 1_555 1_555
C5 C6 1_555 1_555
O6 C19 1_555 1_555
N11 C6 1_555 1_555
N11 N13 1_555 1_555
C7 C27 1_555 1_555
C8 C17 1_555 1_555
C10 C18 1_555 1_555
C11 C25 1_555 1_555
C13 C27 1_555 1_555
N14 C31 1_555 1_555
C14 C20 1_555 1_555
C14 C26 1_555 1_555
C16 N15 1_555 1_555
C22 C24 1_555 1_555
C29 C30 1_555 1_555
O7 Cd2B 1_555 1_555
O8 Cd3B 1_555 1_555

#END
