
#######################################################################
#
#                 Cambridge Crystallographic Data Centre
#                                CCDC 
#
#######################################################################
#
# If this CIF has been generated from an entry in the Cambridge 
# Structural Database, then it will include bibliographic, chemical, 
# crystal, experimental, refinement or atomic coordinate data resulting 
# from the CCDC's data processing and validation procedures.
#
#######################################################################

data_OROWUO
_symmetry_cell_setting           orthorhombic
_symmetry_space_group_name_H-M   'P b a m'
_symmetry_Int_Tables_number      55
_space_group_name_Hall           '-P 2 2ab'
loop_
_symmetry_equiv_pos_site_id
_symmetry_equiv_pos_as_xyz
1 x,y,z
2 -x,-y,z
3 1/2-x,1/2+y,-z
4 1/2+x,1/2-y,-z
5 -x,-y,-z
6 x,y,-z
7 1/2+x,1/2-y,z
8 1/2-x,1/2+y,z
_cell_length_a                   14.463(2)
_cell_length_b                   18.538(3)
_cell_length_c                   13.807(2)
_cell_angle_alpha                90
_cell_angle_beta                 90
_cell_angle_gamma                90
_cell_volume                     3701.87
loop_
_atom_site_label
_atom_site_type_symbol
_atom_site_fract_x
_atom_site_fract_y
_atom_site_fract_z
Pb1 Pb 0.33150(5) 1.02603(4) 0.5000
Pb2 Pb 0.24974(3) 0.93487(2) 0.23239(3)
Pb3 Pb 0.11773(5) 0.88960(4) 0.5000
N1 N 0.4566(6) 0.9892(6) 0.3560(7)
N2 N 0.4281(6) 0.9797(5) 0.2625(7)
N3 N 0.2447(6) 1.0718(5) 0.2660(9)
N4 N 0.2375(8) 1.0973(6) 0.3553(9)
N5 N 0.1985(9) 1.1621(7) 0.3507(10)
N6 N 0.1809(9) 1.1793(6) 0.2622(9)
N7 N 0.0687(7) 0.9726(5) 0.2642(7)
N8 N 0.0405(7) 0.9843(6) 0.3555(7)
N9 N 0.1509(7) 0.8118(5) 0.2634(8)
N10 N 0.1240(7) 0.7963(6) 0.3533(8)
N11 N 0.0733(8) 0.7374(6) 0.3502(8)
N12 N 0.0653(7) 0.7137(6) 0.2608(8)
C1 C 0.5000 1.0000 0.2079(12)
C2 C 0.5000 1.0000 0.1019(12)
C3 C 0.5519(7) 1.0515(6) 0.0511(8)
H1 H 0.5864 1.0856 0.0848
C4 C 0.2092(8) 1.1243(6) 0.2071(9)
C5 C 0.2080(7) 1.1208(6) 0.1013(9)
C6 C 0.2777(7) 1.0877(6) 0.0504(9)
H2 H 0.3254 1.0650 0.0836
C7 C 0.1374(7) 1.1542(6) 0.0508(9)
H3 H 0.0897 1.1768 0.0843
C8 C 0.0000 1.0000 0.2069(13)
C9 C 0.0000 1.0000 0.1018(13)
C10 C 0.0545(7) 0.9516(6) 0.0494(8)
H4 H 0.0914 0.9187 0.0824
C11 C 0.1137(7) 0.7608(6) 0.2053(9)
C12 C 0.1198(7) 0.7576(6) 0.1003(9)
C13 C 0.1929(7) 0.7866(6) 0.0509(8)
H5 H 0.2425 0.8063 0.0847
C14 C 0.0480(7) 0.7243(6) 0.0494(8)
H6 H 0.0001 0.7020 0.0830
O1 O 0.2537(5) 0.9317(5) 0.3920(7)
H7 H 0.2792 0.8892 0.3911
O2 O 0.3677(7) 0.8261(5) 0.2399(8)
H8 H 0.3301 0.8010 0.2065
H9 H 0.4225 0.8101 0.2342
O3 O 0.4455(11) 1.1404(7) 0.5000
H10 H 0.4070 1.1612 0.4627
O4 O -0.0479(10) 0.8352(9) 0.5000
H11 H -0.0686 0.8163 0.4482
Pb1A Pb 0.66850(5) 0.97397(4) 0.5000
Pb1_2 Pb 0.33150(5) 1.02603(4) -0.5000
Pb1A_2 Pb 0.66850(5) 0.97397(4) -0.5000
Pb1_3 Pb 0.33150(5) 1.02603(4) 1.5000
Pb1A_3 Pb -0.33150(5) 0.97397(4) 0.5000
Pb2A Pb 0.75026(3) 1.06513(2) 0.23239(3)
Pb2E Pb 0.24974(3) 0.93487(2) -0.23239(3)
Pb2D Pb 0.75026(3) 1.06513(2) -0.23239(3)
Pb2A_2 Pb -0.24974(3) 1.06513(2) 0.23239(3)
Pb2D_2 Pb -0.24974(3) 1.06513(2) -0.23239(3)
Pb2E_2 Pb 0.24974(3) 0.93487(2) 0.76761(3)
Pb2_2 Pb 0.24974(3) 0.93487(2) 1.23239(3)
Pb2D_3 Pb 0.75026(3) 1.06513(2) 0.76761(3)
Pb3A Pb -0.11773(5) 1.11040(4) 0.5000
Pb3_2 Pb 0.11773(5) 0.88960(4) -0.5000
Pb3A_2 Pb -0.11773(5) 1.11040(4) -0.5000
Pb3A_3 Pb 0.88227(5) 1.11040(4) 0.5000
Pb3_3 Pb 0.11773(5) 0.88960(4) 1.5000
N1A N 0.5434(6) 1.0108(6) 0.3560(7)
N1E N 0.4566(6) 0.9892(6) -0.3560(7)
N1D N 0.5434(6) 1.0108(6) -0.3560(7)
N1E_2 N 0.4566(6) 0.9892(6) 0.6440(7)
N1D_2 N 0.5434(6) 1.0108(6) 0.6440(7)
N2A N 0.5719(6) 1.0203(5) 0.2625(7)
N2E N 0.4281(6) 0.9797(5) -0.2625(7)
N2D N 0.5719(6) 1.0203(5) -0.2625(7)
N3E N 0.2447(6) 1.0718(5) -0.2660(9)
N3E_2 N 0.2447(6) 1.0718(5) 0.7340(9)
N3_2 N 0.2447(6) 1.0718(5) 1.2660(9)
N3A N 0.7553(6) 0.9282(5) 0.2660(9)
N3D N 0.7553(6) 0.9282(5) -0.2660(9)
N4E N 0.2375(8) 1.0973(6) -0.3553(9)
N4E_2 N 0.2375(8) 1.0973(6) 0.6447(9)
N4_2 N 0.2375(8) 1.0973(6) 1.3553(9)
N4A N 0.7625(8) 0.9027(6) 0.3553(9)
N4D N 0.7625(8) 0.9027(6) 0.6447(9)
N5E N 0.1985(9) 1.1621(7) -0.3507(10)
N5E_2 N 0.1985(9) 1.1621(7) 0.6493(10)
N5_2 N 0.1985(9) 1.1621(7) 1.3507(10)
N6E N 0.1809(9) 1.1793(6) -0.2622(9)
N6E_2 N 0.1809(9) 1.1793(6) 0.7378(9)
N6_2 N 0.1809(9) 1.1793(6) 1.2622(9)
N7A N -0.0687(7) 1.0274(5) 0.2642(7)
N7E N 0.0687(7) 0.9726(5) -0.2642(7)
N7D N -0.0687(7) 1.0274(5) -0.2642(7)
N7A_2 N 0.9313(7) 1.0274(5) 0.2642(7)
N7D_2 N 0.9313(7) 1.0274(5) -0.2642(7)
N8A N -0.0405(7) 1.0157(6) 0.3555(7)
N8E N 0.0405(7) 0.9843(6) -0.3555(7)
N8D N -0.0405(7) 1.0157(6) -0.3555(7)
N8E_2 N 0.0405(7) 0.9843(6) 0.6445(7)
N8D_2 N -0.0405(7) 1.0157(6) 0.6445(7)
N9E N 0.1509(7) 0.8118(5) -0.2634(8)
N9E_2 N 0.1509(7) 0.8118(5) 0.7366(8)
N9_2 N 0.1509(7) 0.8118(5) 1.2634(8)
N9A N 0.8491(7) 1.1882(5) 0.2634(8)
N9D N 0.8491(7) 1.1882(5) -0.2634(8)
N10E N 0.1240(7) 0.7963(6) -0.3533(8)
N10E_2 N 0.1240(7) 0.7963(6) 0.6467(8)
N10_2 N 0.1240(7) 0.7963(6) 1.3533(8)
N10A N -0.1240(7) 1.2037(6) 0.3533(8)
N10D N -0.1240(7) 1.2037(6) 0.6467(8)
N11E N 0.0733(8) 0.7374(6) -0.3502(8)
N11E_2 N 0.0733(8) 0.7374(6) 0.6498(8)
N11_2 N 0.0733(8) 0.7374(6) 1.3502(8)
N12E N 0.0653(7) 0.7137(6) -0.2608(8)
N12E_2 N 0.0653(7) 0.7137(6) 0.7392(8)
N12_2 N 0.0653(7) 0.7137(6) 1.2608(8)
C1D C 0.5000 1.0000 -0.2079(12)
C2D C 0.5000 1.0000 -0.1019(12)
C3E C 0.5519(7) 1.0515(6) -0.0511(8)
C3D C 0.4481(7) 0.9485(6) -0.0511(8)
C3A C 0.4481(7) 0.9485(6) 0.0511(8)
H1A H 0.4136 0.9144 0.0848
H1D H 0.4136 0.9144 -0.0848
H1E H 0.5864 1.0856 -0.0848
C4E C 0.2092(8) 1.1243(6) -0.2071(9)
C4E_2 C 0.2092(8) 1.1243(6) 0.7929(9)
C4_2 C 0.2092(8) 1.1243(6) 1.2071(9)
C5E C 0.2080(7) 1.1208(6) -0.1013(9)
C5E_2 C 0.2080(7) 1.1208(6) 0.8987(9)
C5_2 C 0.2080(7) 1.1208(6) 1.1013(9)
C6E C 0.2777(7) 1.0877(6) -0.0504(9)
C6E_2 C 0.2777(7) 1.0877(6) 0.9496(9)
C6_2 C 0.2777(7) 1.0877(6) 1.0504(9)
H2E H 0.3254 1.0650 -0.0836
H2E_2 H 0.3254 1.0650 0.9164
H2_2 H 0.3254 1.0650 1.0836
C7E C 0.1374(7) 1.1542(6) -0.0508(9)
C7E_2 C 0.1374(7) 1.1542(6) 0.9492(9)
C7_2 C 0.1374(7) 1.1542(6) 1.0508(9)
H3E H 0.0897 1.1768 -0.0843
H3E_2 H 0.0897 1.1768 0.9157
H3_2 H 0.0897 1.1768 1.0843
C8D C 0.0000 1.0000 -0.2069(13)
C9D C 0.0000 1.0000 -0.1018(13)
C10E C 0.0545(7) 0.9516(6) -0.0494(8)
C10D C -0.0545(7) 1.0484(6) -0.0494(8)
C10A C -0.0545(7) 1.0484(6) 0.0494(8)
H4A H -0.0914 1.0813 0.0824
H4D H -0.0914 1.0813 -0.0824
H4E H 0.0914 0.9187 -0.0824
C11E C 0.1137(7) 0.7608(6) -0.2053(9)
C11E_2 C 0.1137(7) 0.7608(6) 0.7947(9)
C11_2 C 0.1137(7) 0.7608(6) 1.2053(9)
C12E C 0.1198(7) 0.7576(6) -0.1003(9)
C12E_2 C 0.1198(7) 0.7576(6) 0.8997(9)
C12_2 C 0.1198(7) 0.7576(6) 1.1003(9)
C13E C 0.1929(7) 0.7866(6) -0.0509(8)
C13E_2 C 0.1929(7) 0.7866(6) 0.9491(8)
C13_2 C 0.1929(7) 0.7866(6) 1.0509(8)
H5E H 0.2425 0.8063 -0.0847
H5E_2 H 0.2425 0.8063 0.9153
H5_2 H 0.2425 0.8063 1.0847
C14E C 0.0480(7) 0.7243(6) -0.0494(8)
C14E_2 C 0.0480(7) 0.7243(6) 0.9506(8)
C14_2 C 0.0480(7) 0.7243(6) 1.0494(8)
H6E H 0.0001 0.7020 -0.0830
H6E_2 H 0.0001 0.7020 0.9170
H6_2 H 0.0001 0.7020 1.0830
O1E O 0.2537(5) 0.9317(5) 0.6080(7)
O1A O 0.7463(5) 1.0683(5) 0.3920(7)
O1D O 0.7463(5) 1.0683(5) 0.6080(7)
O1E_2 O 0.2537(5) 0.9317(5) -0.3920(7)
O1D_2 O 0.7463(5) 1.0683(5) -0.3920(7)
O1A_2 O -0.2537(5) 1.0683(5) 0.3920(7)
O1D_3 O -0.2537(5) 1.0683(5) 0.6080(7)
H7E H 0.2792 0.8892 0.6089
H7A H 0.7208 1.1108 0.3911
H7D H 0.7208 1.1108 0.6089
H7E_2 H 0.2792 0.8892 -0.3911
H7D_2 H 0.7208 1.1108 -0.3911
H7A_2 H -0.2792 1.1108 0.3911
H7D_3 H -0.2792 1.1108 0.6089
O2A O 0.6323(7) 1.1739(5) 0.2399(8)
O2E O 0.3677(7) 0.8261(5) -0.2399(8)
O2D O 0.6323(7) 1.1739(5) -0.2399(8)
H8A H 0.6699 1.1990 0.2065
H8E H 0.3301 0.8010 -0.2065
H8D H 0.6699 1.1990 -0.2065
H9A H 0.5775 1.1899 0.2342
H9E H 0.4225 0.8101 -0.2342
H9D H 0.5775 1.1899 -0.2342
O3A O 0.5545(11) 0.8596(7) 0.5000
H10E H 0.4070 1.1612 0.5373
H10A H 0.5930 0.8388 0.4627
H10D H 0.5930 0.8388 0.5373
O4A O 0.0479(10) 1.1648(9) 0.5000
H11E H -0.0686 0.8163 0.5518
H11A H 0.0686 1.1837 0.4482
H11D H 0.0686 1.1837 0.5518
O5 O 0.3276(14) 0.8102(10) 0.5000
H12 H 0.3633 0.7829 0.5323
H12E H 0.3633 0.7829 0.4677
Pb4? Pb 0.3782(2) 0.9154(2) 0.5000
loop_
_geom_bond_atom_site_label_1
_geom_bond_atom_site_label_2
_geom_bond_site_symmetry_1
_geom_bond_site_symmetry_2
Pb1 N1 1_555 1_555
Pb2 N2 1_555 1_555
Pb3 N8 1_555 1_555
N1 N2 1_555 1_555
N2 C1 1_555 1_555
N3 Pb2 1_555 1_555
N4 Pb1 1_555 1_555
N5 N4 1_555 1_555
N6 N5 1_555 1_555
N7 Pb2 1_555 1_555
N8 N7 1_555 1_555
N9 Pb2 1_555 1_555
N10 Pb3 1_555 1_555
N11 N10 1_555 1_555
N12 N11 1_555 1_555
C1 C2 1_555 1_555
C2 C3 1_555 1_555
C3 H1 1_555 1_555
C4 N3 1_555 1_555
C5 C4 1_555 1_555
C6 C5 1_555 1_555
H2 C6 1_555 1_555
C7 C5 1_555 1_555
H3 C7 1_555 1_555
C8 N7 1_555 1_555
C9 C8 1_555 1_555
C10 C9 1_555 1_555
H4 C10 1_555 1_555
C11 N9 1_555 1_555
C12 C11 1_555 1_555
C13 C12 1_555 1_555
H5 C13 1_555 1_555
C14 C12 1_555 1_555
H6 C14 1_555 1_555
O1 Pb1 1_555 1_555
H7 O1 1_555 1_555
O2 Pb2 1_555 1_555
H8 O2 1_555 1_555
H9 O2 1_555 1_555
O3 Pb1 1_555 1_555
H10 O3 1_555 1_555
O4 Pb3 1_555 1_555
H11 O4 1_555 1_555
O5 H12 1_555 1_555
Pb1A N1A 1_555 1_555
Pb1_2 N1E 1_555 1_555
Pb1A_2 N1D 1_555 1_555
Pb1_3 N4_2 1_555 1_555
Pb1A_3 O1A_2 1_555 1_555
Pb2A N2A 1_555 1_555
Pb2E N2E 1_555 1_555
Pb2D N2D 1_555 1_555
Pb2A_2 N7A 1_555 1_555
Pb2D_2 N7D 1_555 1_555
Pb2E_2 N3E_2 1_555 1_555
Pb2_2 N3_2 1_555 1_555
Pb2D_3 O1D 1_555 1_555
Pb3A N8A 1_555 1_555
Pb3_2 N8E 1_555 1_555
Pb3A_2 N8D 1_555 1_555
Pb3A_3 O1A 1_555 1_555
Pb3_3 N10_2 1_555 1_555
N1A N1 1_555 1_555
N1E N1D 1_555 1_555
N1D N2D 1_555 1_555
N1E_2 Pb1 1_555 1_555
N1D_2 Pb1A 1_555 1_555
N2A C1 1_555 1_555
N2E N1E 1_555 1_555
N2D C1D 1_555 1_555
N3E Pb2E 1_555 1_555
N3E_2 N4E_2 1_555 1_555
N3_2 N4_2 1_555 1_555
N3A Pb2A 1_555 1_555
N3D Pb2D 1_555 1_555
N4E Pb1_2 1_555 1_555
N4E_2 Pb1 1_555 1_555
N4_2 N5_2 1_555 1_555
N4A Pb1A 1_555 1_555
N4D Pb1A 1_555 1_555
N5E N4E 1_555 1_555
N5E_2 N4E_2 1_555 1_555
N5_2 N6_2 1_555 1_555
N6E N5E 1_555 1_555
N6E_2 N5E_2 1_555 1_555
N6_2 C4_2 1_555 1_555
N7A C8 1_555 1_555
N7E Pb2E 1_555 1_555
N7D N8D 1_555 1_555
N7A_2 Pb2A 1_555 1_555
N7D_2 Pb2D 1_555 1_555
N8A N8 1_555 1_555
N8E N7E 1_555 1_555
N8D N8E 1_555 1_555
N8E_2 Pb3 1_555 1_555
N8D_2 Pb3A 1_555 1_555
N9E Pb2E 1_555 1_555
N9E_2 Pb2E_2 1_555 1_555
N9_2 Pb2_2 1_555 1_555
N9A Pb2A 1_555 1_555
N9D Pb2D 1_555 1_555
N10E Pb3_2 1_555 1_555
N10E_2 Pb3 1_555 1_555
N10_2 N9_2 1_555 1_555
N10A Pb3A 1_555 1_555
N10D Pb3A 1_555 1_555
N11E N10E 1_555 1_555
N11E_2 N10E_2 1_555 1_555
N11_2 N10_2 1_555 1_555
N12E N11E 1_555 1_555
N12E_2 N11E_2 1_555 1_555
N12_2 N11_2 1_555 1_555
C1D N2E 1_555 1_555
C2D C1D 1_555 1_555
C3E C3 1_555 1_555
C3D C2D 1_555 1_555
C3A C2 1_555 1_555
H1A C3A 1_555 1_555
H1D C3D 1_555 1_555
H1E C3E 1_555 1_555
C4E N3E 1_555 1_555
C4E_2 N3E_2 1_555 1_555
C4_2 N3_2 1_555 1_555
C5E C4E 1_555 1_555
C5E_2 C4E_2 1_555 1_555
C5_2 C4_2 1_555 1_555
C6E C6 1_555 1_555
C6E_2 C5E_2 1_555 1_555
C6_2 C5_2 1_555 1_555
H2E C6E 1_555 1_555
H2E_2 C6E_2 1_555 1_555
H2_2 C6_2 1_555 1_555
C7E C7 1_555 1_555
C7E_2 C5E_2 1_555 1_555
C7_2 C5_2 1_555 1_555
H3E C7E 1_555 1_555
H3E_2 C7E_2 1_555 1_555
H3_2 C7_2 1_555 1_555
C8D N7E 1_555 1_555
C9D C8D 1_555 1_555
C10E C10 1_555 1_555
C10D C9D 1_555 1_555
C10A C9 1_555 1_555
H4A C10A 1_555 1_555
H4D C10D 1_555 1_555
H4E C10E 1_555 1_555
C11E N9E 1_555 1_555
C11E_2 N9E_2 1_555 1_555
C11_2 N9_2 1_555 1_555
C12E C11E 1_555 1_555
C12E_2 C11E_2 1_555 1_555
C12_2 C11_2 1_555 1_555
C13E C13 1_555 1_555
C13E_2 C12E_2 1_555 1_555
C13_2 C12_2 1_555 1_555
H5E C13E 1_555 1_555
H5E_2 C13E_2 1_555 1_555
H5_2 C13_2 1_555 1_555
C14E C14 1_555 1_555
C14E_2 C12E_2 1_555 1_555
C14_2 C12_2 1_555 1_555
H6E C14E 1_555 1_555
H6E_2 C14E_2 1_555 1_555
H6_2 C14_2 1_555 1_555
O1E Pb1 1_555 1_555
O1A Pb1A 1_555 1_555
O1D Pb1A 1_555 1_555
O1E_2 Pb1_2 1_555 1_555
O1D_2 Pb1A_2 1_555 1_555
O1A_2 Pb2A_2 1_555 1_555
O1D_3 Pb1A_3 1_555 1_555
H7E O1E 1_555 1_555
H7A O1A 1_555 1_555
H7D O1D 1_555 1_555
H7E_2 O1E_2 1_555 1_555
H7D_2 O1D_2 1_555 1_555
H7A_2 O1A_2 1_555 1_555
H7D_3 O1D_3 1_555 1_555
O2A Pb2A 1_555 1_555
O2E Pb2E 1_555 1_555
O2D Pb2D 1_555 1_555
H8A O2A 1_555 1_555
H8E O2E 1_555 1_555
H8D O2D 1_555 1_555
H9A O2A 1_555 1_555
H9E O2E 1_555 1_555
H9D O2D 1_555 1_555
O3A Pb1A 1_555 1_555
H10E O3 1_555 1_555
H10A O3A 1_555 1_555
H10D O3A 1_555 1_555
O4A Pb3A 1_555 1_555
H11E O4 1_555 1_555
H11A O4A 1_555 1_555
H11D O4A 1_555 1_555
H12E O5 1_555 1_555
Pb2 O1 1_555 1_555
Pb3 O1 1_555 1_555
Pb3 O1E 1_555 1_555
N3 N4 1_555 1_555
N6 C4 1_555 1_555
N9 N10 1_555 1_555
N12 C11 1_555 1_555
Pb2A O1A 1_555 1_555
Pb2E O1E_2 1_555 1_555
Pb2D O1D_2 1_555 1_555
Pb2E_2 O1E 1_555 1_555
Pb3A O1A_2 1_555 1_555
Pb3A O1D_3 1_555 1_555
Pb3_2 O1E_2 1_555 1_555
Pb3A_3 O1D 1_555 1_555
N1A N2A 1_555 1_555
N1E_2 N1D_2 1_555 1_555
N3E N4E 1_555 1_555
N3A N4A 1_555 1_555
N6E C4E 1_555 1_555
N6E_2 C4E_2 1_555 1_555
N7A N8A 1_555 1_555
N7D C8D 1_555 1_555
N8E_2 N8D_2 1_555 1_555
N9E N10E 1_555 1_555
N9E_2 N10E_2 1_555 1_555
N12E C11E 1_555 1_555
N12E_2 C11E_2 1_555 1_555
N12_2 C11_2 1_555 1_555
C2D C3E 1_555 1_555
C3D C3A 1_555 1_555
C5E C6E 1_555 1_555
C5E C7E 1_555 1_555
C6E_2 C6_2 1_555 1_555
C7E_2 C7_2 1_555 1_555
C9D C10E 1_555 1_555
C10D C10A 1_555 1_555
C12E C13E 1_555 1_555
C12E C14E 1_555 1_555
C13E_2 C13_2 1_555 1_555
C14E_2 C14_2 1_555 1_555

#END
