
#######################################################################
#
#                 Cambridge Crystallographic Data Centre
#                                CCDC 
#
#######################################################################
#
# If this CIF has been generated from an entry in the Cambridge 
# Structural Database, then it will include bibliographic, chemical, 
# crystal, experimental, refinement or atomic coordinate data resulting 
# from the CCDC's data processing and validation procedures.
#
#######################################################################

data_OROZEB01
_symmetry_cell_setting           orthorhombic
_symmetry_space_group_name_H-M   'P n n a'
_symmetry_Int_Tables_number      52
_space_group_name_Hall           '-P 2a 2bc'
loop_
_symmetry_equiv_pos_site_id
_symmetry_equiv_pos_as_xyz
1 x,y,z
2 1/2-x,-y,z
3 x,1/2-y,1/2-z
4 1/2-x,1/2+y,1/2-z
5 -x,-y,-z
6 1/2+x,y,-z
7 -x,1/2+y,1/2+z
8 1/2+x,1/2-y,1/2+z
_cell_length_a                   17.2291(17)
_cell_length_b                   7.5289(6)
_cell_length_c                   21.369(2)
_cell_angle_alpha                90
_cell_angle_beta                 90
_cell_angle_gamma                90
_cell_volume                     2771.9
loop_
_atom_site_label
_atom_site_type_symbol
_atom_site_fract_x
_atom_site_fract_y
_atom_site_fract_z
Ag1 Ag 0.46226(4) 0.16414(10) 0.54847(3)
N1 N 0.4771(5) 0.2898(11) 0.4578(3)
N2 N 0.5207(4) 0.5826(10) 0.1447(3)
O1 O 0.3418(4) -0.0147(10) 0.5086(4)
O2 O 0.2956(5) 0.1851(9) 0.5750(3)
C1 C 0.2889(5) 0.0480(12) 0.5422(4)
C2 C 0.4171(6) 0.2968(15) 0.4189(4)
H1 H 0.3694 0.2537 0.4324
C3 C 0.4228(6) 0.3659(16) 0.3587(4)
H2 H 0.3789 0.3739 0.3336
C4 C 0.4933(5) 0.4223(11) 0.3366(3)
C5 C 0.5552(5) 0.4180(14) 0.3769(4)
H3 H 0.6033 0.4613 0.3644
C6 C 0.5453(6) 0.3482(13) 0.4365(4)
H4 H 0.5882 0.3418 0.4628
C7 C 0.5801(5) 0.5386(15) 0.1801(4)
H5 H 0.6293 0.5409 0.1622
C8 C 0.5741(5) 0.4894(15) 0.2420(4)
H6 H 0.6185 0.4625 0.2648
C9 C 0.5021(5) 0.4801(10) 0.2698(3)
C10 C 0.4395(6) 0.5319(16) 0.2335(4)
H7 H 0.3898 0.5315 0.2506
C11 C 0.4503(6) 0.5842(17) 0.1722(4)
H8 H 0.4076 0.6217 0.1491
Ag1F Ag 0.53774(4) 0.66414(10) 0.04847(3)
Ag1A Ag 0.03774(4) -0.16414(10) 0.54847(3)
Ag1G Ag -0.03774(4) -0.66414(10) 0.04847(3)
N1A N 0.0229(5) -0.2898(11) 0.4578(3)
N2F N 0.4793(4) 0.0826(10) 0.6447(3)
N2G N 0.0207(4) -0.0826(10) 0.6447(3)
N2A N -0.0207(4) -0.5826(10) 0.1447(3)
O1A O 0.1582(4) 0.0147(10) 0.5086(4)
O2A O 0.2044(5) -0.1851(9) 0.5750(3)
C1A C 0.2111(5) -0.0480(12) 0.5422(4)
C2A C 0.0829(6) -0.2968(15) 0.4189(4)
H1A H 0.1306 -0.2537 0.4324
C3A C 0.0772(6) -0.3659(16) 0.3587(4)
H2A H 0.1211 -0.3739 0.3336
C4A C 0.0067(5) -0.4223(11) 0.3366(3)
C5A C -0.0552(5) -0.4180(14) 0.3769(4)
H3A H -0.1033 -0.4613 0.3644
C6A C -0.0453(6) -0.3482(13) 0.4365(4)
H4A H -0.0882 -0.3418 0.4628
C7A C -0.0801(5) -0.5386(15) 0.1801(4)
H5A H -0.1293 -0.5409 0.1622
C8A C -0.0741(5) -0.4894(15) 0.2420(4)
H6A H -0.1185 -0.4625 0.2648
C9A C -0.0021(5) -0.4801(10) 0.2698(3)
C10A C 0.0605(6) -0.5319(16) 0.2335(4)
H7A H 0.1102 -0.5315 0.2506
C11A C 0.0497(6) -0.5842(17) 0.1722(4)
H8A H 0.0924 -0.6217 0.1491
O3 O 0.7449(6) 0.3175(11) 0.3107(4)
H9 H 0.7835 0.2690 0.3286
H10 H 0.7468 0.2967 0.2716
O4 O 0.7500 0.5000 0.4834(5)
H11 H 0.7375 0.5872 0.4602
H11A H 0.7625 0.4128 0.4602
O5 O 0.3150(7) 0.7284(13) 0.4222(4)
H12 H 0.3261 0.8179 0.4447
H13 H 0.2948 0.6498 0.4456
O6 O 0.2482(8) 0.179(2) 0.3091(6)
H14 H 0.2293 0.2099 0.3442
H15 H 0.2507 0.0665 0.3081
H16? H 0.7469 0.4293 0.3160
H17? H 0.2194 0.2165 0.2796
loop_
_geom_bond_atom_site_label_1
_geom_bond_atom_site_label_2
_geom_bond_site_symmetry_1
_geom_bond_site_symmetry_2
Ag1 N1 1_555 1_555
N1 C2 1_555 1_555
N2 C7 1_555 1_555
O1 Ag1 1_555 1_555
O2 C1 1_555 1_555
C1 O1 1_555 1_555
C2 H1 1_555 1_555
C3 C2 1_555 1_555
H2 C3 1_555 1_555
C4 C3 1_555 1_555
C5 C4 1_555 1_555
H3 C5 1_555 1_555
C6 N1 1_555 1_555
H4 C6 1_555 1_555
C7 H5 1_555 1_555
C8 C7 1_555 1_555
H6 C8 1_555 1_555
C9 C4 1_555 1_555
C10 C9 1_555 1_555
H7 C10 1_555 1_555
C11 N2 1_555 1_555
H8 C11 1_555 1_555
O3 H9 1_555 1_555
H10 O3 1_555 1_555
O4 H11 1_555 1_555
O5 H12 1_555 1_555
H13 O5 1_555 1_555
O6 H14 1_555 1_555
H15 O6 1_555 1_555
Ag1F N2 1_555 1_555
Ag1A N1A 1_555 1_555
Ag1G N2A 1_555 1_555
N1A C2A 1_555 1_555
N2F Ag1 1_555 1_555
N2G Ag1A 1_555 1_555
N2A C7A 1_555 1_555
O1A Ag1A 1_555 1_555
O2A C1A 1_555 1_555
C1A C1 1_555 1_555
C2A H1A 1_555 1_555
C3A C2A 1_555 1_555
H2A C3A 1_555 1_555
C4A C3A 1_555 1_555
C5A C4A 1_555 1_555
H3A C5A 1_555 1_555
C6A N1A 1_555 1_555
H4A C6A 1_555 1_555
C7A H5A 1_555 1_555
C8A C7A 1_555 1_555
H6A C8A 1_555 1_555
C9A C4A 1_555 1_555
C10A C9A 1_555 1_555
H7A C10A 1_555 1_555
C11A N2A 1_555 1_555
H8A C11A 1_555 1_555
H11A O4 1_555 1_555
C5 C6 1_555 1_555
C8 C9 1_555 1_555
C10 C11 1_555 1_555
O1A C1A 1_555 1_555
C5A C6A 1_555 1_555
C8A C9A 1_555 1_555
C10A C11A 1_555 1_555

#END
