
#######################################################################
#
#                 Cambridge Crystallographic Data Centre
#                                CCDC 
#
#######################################################################
#
# If this CIF has been generated from an entry in the Cambridge 
# Structural Database, then it will include bibliographic, chemical, 
# crystal, experimental, refinement or atomic coordinate data resulting 
# from the CCDC's data processing and validation procedures.
#
#######################################################################

data_OROZEB
_symmetry_cell_setting           orthorhombic
_symmetry_space_group_name_H-M   'P n n a'
_symmetry_Int_Tables_number      52
_space_group_name_Hall           '-P 2a 2bc'
loop_
_symmetry_equiv_pos_site_id
_symmetry_equiv_pos_as_xyz
1 x,y,z
2 1/2-x,-y,z
3 x,1/2-y,1/2-z
4 1/2-x,1/2+y,1/2-z
5 -x,-y,-z
6 1/2+x,y,-z
7 -x,1/2+y,1/2+z
8 1/2+x,1/2-y,1/2+z
_cell_length_a                   17.271(3)
_cell_length_b                   7.5384(15)
_cell_length_c                   21.382(4)
_cell_angle_alpha                90
_cell_angle_beta                 90
_cell_angle_gamma                90
_cell_volume                     2783.84
loop_
_atom_site_label
_atom_site_type_symbol
_atom_site_fract_x
_atom_site_fract_y
_atom_site_fract_z
Ag1 Ag 0.03763(4) 0.33569(9) 0.45127(2)
C1 C -0.0482(5) 0.4153(15) 0.3271(3)
H1 H -0.0911 0.3803 0.3503
C2 C -0.0591(5) 0.4640(16) 0.2658(3)
H2 H -0.1085 0.4605 0.2486
C3 C 0.0026(4) 0.5180(9) 0.2293(3)
C4 C 0.0725(4) 0.5154(12) 0.2578(3)
H3 H 0.1167 0.5467 0.2355
C5 C 0.0785(5) 0.4664(13) 0.3199(3)
H4 H 0.1273 0.4698 0.3381
C6 C -0.0064(4) 0.5761(9) 0.1629(3)
C7 C -0.0763(4) 0.6362(12) 0.1412(3)
H5 H -0.1196 0.6338 0.1670
C8 C -0.0822(4) 0.7006(14) 0.0806(3)
H6 H -0.1304 0.7385 0.0665
C9 C 0.0444(4) 0.6478(11) 0.0626(3)
H7 H 0.0866 0.6489 0.0357
C10 C 0.0547(4) 0.5809(11) 0.1219(3)
H8 H 0.1030 0.5391 0.1341
C11 C 0.2109(4) 0.4517(10) 0.4585(3)
N1 N 0.0205(3) 0.4156(8) 0.3547(2)
N2 N -0.0226(3) 0.7109(8) 0.0418(2)
O1 O 0.1578(3) 0.5142(9) 0.4912(3)
O3 O 0.2044(4) 0.3158(8) 0.4250(3)
Ag1F Ag -0.03763(4) 0.83569(9) -0.04873(2)
Ag1A Ag 0.46237(4) 0.66431(9) 0.45127(2)
Ag1G Ag 0.53763(4) 0.16431(9) -0.04873(2)
C1A C 0.5482(5) 0.5847(15) 0.3271(3)
H1A H 0.5911 0.6197 0.3503
C2A C 0.5591(5) 0.5360(16) 0.2658(3)
H2A H 0.6085 0.5395 0.2486
C3A C 0.4974(4) 0.4820(9) 0.2293(3)
C4A C 0.4275(4) 0.4846(12) 0.2578(3)
H3A H 0.3833 0.4533 0.2355
C5A C 0.4215(5) 0.5336(13) 0.3199(3)
H4A H 0.3727 0.5302 0.3381
C6A C 0.5064(4) 0.4239(9) 0.1629(3)
C7A C 0.5763(4) 0.3638(12) 0.1412(3)
H5A H 0.6196 0.3662 0.1670
C8A C 0.5822(4) 0.2994(14) 0.0806(3)
H6A H 0.6304 0.2615 0.0665
C9A C 0.4556(4) 0.3522(11) 0.0626(3)
H7A H 0.4134 0.3511 0.0357
C10A C 0.4453(4) 0.4191(11) 0.1219(3)
H8A H 0.3970 0.4609 0.1341
C11A C 0.2891(4) 0.5483(10) 0.4585(3)
N1A N 0.4795(3) 0.5844(8) 0.3547(2)
N2F N 0.0226(3) 0.2109(8) 0.5418(2)
N2G N 0.4774(3) 0.7891(8) 0.5418(2)
N2A N 0.5226(3) 0.2891(8) 0.0418(2)
O1A O 0.3422(3) 0.4858(9) 0.4912(3)
O3A O 0.2956(4) 0.6842(8) 0.4250(3)
O2 O 0.2508(6) 0.3138(13) 0.6905(4)
H9 H 0.2783 0.2759 0.7207
H10 H 0.2711 0.2821 0.6560
O4 O 0.1833(5) 0.7806(10) 0.5781(3)
H11 H 0.1985 0.8521 0.5500
H12 H 0.1823 0.6829 0.5583
O5 O 0.2500 0.0000 0.4840(4)
H13 H 0.2374 0.0870 0.4608
H13A H 0.2626 -0.0870 0.4608
O6 O 0.2536(4) 0.1795(9) 0.3105(3)
H14 H 0.2385 0.2187 0.3457
H15 H 0.2513 0.0669 0.3112
H16? H 0.2493 0.4265 0.6915
H17? H 0.2249 0.2197 0.2815
loop_
_geom_bond_atom_site_label_1
_geom_bond_atom_site_label_2
_geom_bond_site_symmetry_1
_geom_bond_site_symmetry_2
Ag1 N1 1_555 1_555
C1 H1 1_555 1_555
C2 C1 1_555 1_555
H2 C2 1_555 1_555
C3 C2 1_555 1_555
C4 C3 1_555 1_555
H3 C4 1_555 1_555
C5 C4 1_555 1_555
H4 C5 1_555 1_555
C6 C3 1_555 1_555
C7 C6 1_555 1_555
H5 C7 1_555 1_555
C8 C7 1_555 1_555
H6 C8 1_555 1_555
C9 H7 1_555 1_555
C10 C6 1_555 1_555
H8 C10 1_555 1_555
C11 O1 1_555 1_555
N1 C1 1_555 1_555
N2 C8 1_555 1_555
O1 Ag1 1_555 1_555
O2 H9 1_555 1_555
H10 O2 1_555 1_555
O3 C11 1_555 1_555
O4 H11 1_555 1_555
H12 O4 1_555 1_555
O5 H13 1_555 1_555
O6 H14 1_555 1_555
H15 O6 1_555 1_555
Ag1F N2 1_555 1_555
Ag1A N1A 1_555 1_555
Ag1G N2A 1_555 1_555
C1A H1A 1_555 1_555
C2A C1A 1_555 1_555
H2A C2A 1_555 1_555
C3A C2A 1_555 1_555
C4A C3A 1_555 1_555
H3A C4A 1_555 1_555
C5A C4A 1_555 1_555
H4A C5A 1_555 1_555
C6A C3A 1_555 1_555
C7A C6A 1_555 1_555
H5A C7A 1_555 1_555
C8A C7A 1_555 1_555
H6A C8A 1_555 1_555
C9A H7A 1_555 1_555
C10A C6A 1_555 1_555
H8A C10A 1_555 1_555
C11A C11 1_555 1_555
N1A C1A 1_555 1_555
N2F Ag1 1_555 1_555
N2G Ag1A 1_555 1_555
N2A C8A 1_555 1_555
O1A Ag1A 1_555 1_555
O3A C11A 1_555 1_555
H13A O5 1_555 1_555
C5 N1 1_555 1_555
C9 C10 1_555 1_555
C9 N2 1_555 1_555
C5A N1A 1_555 1_555
C9A C10A 1_555 1_555
C9A N2A 1_555 1_555
C11A O1A 1_555 1_555

#END
