
#######################################################################
#
#                 Cambridge Crystallographic Data Centre
#                                CCDC 
#
#######################################################################
#
# If this CIF has been generated from an entry in the Cambridge 
# Structural Database, then it will include bibliographic, chemical, 
# crystal, experimental, refinement or atomic coordinate data resulting 
# from the CCDC's data processing and validation procedures.
#
#######################################################################

data_ORUBOT
_symmetry_cell_setting           monoclinic
_symmetry_space_group_name_H-M   'P 21/c'
_symmetry_Int_Tables_number      14
_space_group_name_Hall           '-P 2ybc'
loop_
_symmetry_equiv_pos_site_id
_symmetry_equiv_pos_as_xyz
1 x,y,z
2 -x,1/2+y,1/2-z
3 -x,-y,-z
4 x,1/2-y,1/2+z
_cell_length_a                   7.9200(16)
_cell_length_b                   24.480(5)
_cell_length_c                   8.7400(17)
_cell_angle_alpha                90
_cell_angle_beta                 107.25(3)
_cell_angle_gamma                90
_cell_volume                     1618.31
loop_
_atom_site_label
_atom_site_type_symbol
_atom_site_fract_x
_atom_site_fract_y
_atom_site_fract_z
Zn1 Zn 1.04151(6) 0.74013(2) 0.71391(6)
C1 C 1.2534(6) 0.71754(16) 1.0033(5)
C2 C 1.4039(7) 0.7003(2) 1.1402(5)
H1 H 1.4950 0.7276 1.1607
H2 H 1.4497 0.6662 1.1154
H3 H 1.3647 0.6960 1.2334
C3 C 0.8217(5) 0.66275(17) 0.5828(5)
C4 C 0.6620(5) 0.62789(15) 0.5191(4)
C5 C 0.5033(5) 0.63684(16) 0.5562(5)
H4 H 0.4948 0.6658 0.6224
C6 C 0.3592(5) 0.60272(16) 0.4945(5)
H5 H 0.2549 0.6086 0.5205
C7 C 0.3706(5) 0.56001(15) 0.3942(5)
C8 C 0.5244(5) 0.55071(16) 0.3535(5)
H6 H 0.5307 0.5222 0.2851
C9 C 0.6697(5) 0.58474(17) 0.4168(5)
H7 H 0.7735 0.5786 0.3903
C10 C 0.0809(5) 0.45801(16) 0.1639(4)
C11 C -0.0841(5) 0.46152(17) 0.2109(5)
C12 C 0.1039(5) 0.41974(16) 0.0404(5)
C13 C 0.2845(6) 0.4119(3) 0.0245(7)
H8 H 0.2798 0.3857 -0.0584
H9 H 0.3622 0.3989 0.1241
H10 H 0.3277 0.4461 -0.0026
C14 C -0.2430(6) 0.4289(2) 0.1287(6)
H11 H -0.3347 0.4359 0.1774
H12 H -0.2136 0.3907 0.1379
H13 H -0.2835 0.4389 0.0175
N1 N 0.2227(4) 0.52562(13) 0.3362(4)
N2 N 0.2221(4) 0.48912(14) 0.2274(4)
O1 O -0.0200(4) 0.39601(14) -0.0486(4)
O2 O -0.0905(5) 0.49323(17) 0.3176(5)
O3 O 0.8122(4) 0.70312(15) 0.6709(4)
O4 O 0.9601(4) 0.65170(14) 0.5509(4)
O5 O 1.2618(4) 0.71110(13) 0.8632(3)
O6 O 1.1154(5) 0.73776(12) 1.0240(4)
O7 O 0.9838(6) 0.81714(15) 0.7587(5)
H14 H 0.962(9) 0.826(3) 0.843(3)
H15 H 0.900(7) 0.824(7) 0.678(7)
Zn1C Zn 1.04151(6) 0.75987(2) 1.21391(6)
O6C O 1.1154(5) 0.76224(12) 0.5240(4)
loop_
_geom_bond_atom_site_label_1
_geom_bond_atom_site_label_2
_geom_bond_site_symmetry_1
_geom_bond_site_symmetry_2
Zn1 O3 1_555 1_555
C1 C2 1_555 1_555
C2 H1 1_555 1_555
H2 C2 1_555 1_555
H3 C2 1_555 1_555
C3 C4 1_555 1_555
C4 C5 1_555 1_555
C5 H4 1_555 1_555
C6 C5 1_555 1_555
H5 C6 1_555 1_555
C7 C6 1_555 1_555
C8 C7 1_555 1_555
H6 C8 1_555 1_555
C9 C4 1_555 1_555
H7 C9 1_555 1_555
C10 C11 1_555 1_555
C11 C14 1_555 1_555
C12 C10 1_555 1_555
C13 C12 1_555 1_555
H8 C13 1_555 1_555
H9 C13 1_555 1_555
H10 C13 1_555 1_555
C14 H11 1_555 1_555
H12 C14 1_555 1_555
H13 C14 1_555 1_555
N1 C7 1_555 1_555
N2 C10 1_555 1_555
O1 C12 1_555 1_555
O2 C11 1_555 1_555
O3 C3 1_555 1_555
O4 C3 1_555 1_555
O5 Zn1 1_555 1_555
O6 C1 1_555 1_555
O7 Zn1 1_555 1_555
H14 O7 1_555 1_555
H15 O7 1_555 1_555
Zn1C O6 1_555 1_555
O6C Zn1 1_555 1_555
C1 O5 1_555 1_555
C8 C9 1_555 1_555
N1 N2 1_555 1_555

#END
