
#######################################################################
#
#                 Cambridge Crystallographic Data Centre
#                                CCDC 
#
#######################################################################
#
# If this CIF has been generated from an entry in the Cambridge 
# Structural Database, then it will include bibliographic, chemical, 
# crystal, experimental, refinement or atomic coordinate data resulting 
# from the CCDC's data processing and validation procedures.
#
#######################################################################

data_ORUBUZ
_symmetry_cell_setting           monoclinic
_symmetry_space_group_name_H-M   'P 21/n'
_symmetry_Int_Tables_number      14
_space_group_name_Hall           '-P 2yn'
loop_
_symmetry_equiv_pos_site_id
_symmetry_equiv_pos_as_xyz
1 x,y,z
2 1/2-x,1/2+y,1/2-z
3 -x,-y,-z
4 1/2+x,1/2-y,1/2+z
_cell_length_a                   7.4915(5)
_cell_length_b                   29.088(2)
_cell_length_c                   8.5568(5)
_cell_angle_alpha                90
_cell_angle_beta                 113.315(4)
_cell_angle_gamma                90
_cell_volume                     1712.37
loop_
_atom_site_label
_atom_site_type_symbol
_atom_site_fract_x
_atom_site_fract_y
_atom_site_fract_z
Cd1 Cd 0.67311(8) 0.250884(17) 1.14087(7)
O1 O 0.9155(8) 0.20294(18) 1.1270(7)
O2 O 0.6222(8) 0.17563(19) 0.9997(8)
O3 O 0.8702(7) 0.23356(18) 1.4536(7)
O4 O 0.5567(7) 0.22007(17) 1.3382(7)
O5 O 0.7357(9) 0.2911(2) 0.9278(7)
H1 H 0.6363 0.2920 0.8406
O6 O 0.7434(9) 0.3213(2) 1.2629(8)
H2 H 0.8560 0.3216 1.3332
O7 O 0.9371(11) -0.1051(2) 0.4580(10)
O8 O 1.3885(10) -0.0312(2) 0.8115(10)
C1 C 0.8014(13) 0.1719(3) 1.0433(10)
C2 C 0.8832(12) 0.1301(3) 0.9941(9)
C3 C 1.0773(12) 0.1266(3) 1.0295(10)
H3 H 1.1612 0.1500 1.0889
C4 C 1.1497(12) 0.0885(3) 0.9777(11)
H4 H 1.2826 0.0860 1.0053
C5 C 1.0260(12) 0.0544(2) 0.8853(10)
C6 C 0.8299(12) 0.0568(3) 0.8477(11)
H5 H 0.7467 0.0334 0.7876
C7 C 0.7593(12) 0.0950(3) 0.9013(11)
H6 H 0.6267 0.0974 0.8749
C8 C 1.0579(13) -0.0477(3) 0.6646(11)
C9 C 1.2662(14) -0.0585(3) 0.7181(12)
C10 C 1.3303(15) -0.1017(3) 0.6642(13)
H7 H 1.4698 -0.1028 0.7107
H8 H 1.2816 -0.1027 0.5422
H9 H 1.2811 -0.1275 0.7046
C11 C 0.9028(15) -0.0746(3) 0.5398(12)
C12 C 0.6970(16) -0.0643(4) 0.5080(15)
H10 H 0.6130 -0.0847 0.4223
H11 H 0.6679 -0.0331 0.4699
H12 H 0.6772 -0.0684 0.6113
C13 C 0.7197(10) 0.2193(2) 1.4655(9)
C14 C 0.7262(12) 0.1995(3) 1.6279(9)
H13 H 0.8568 0.2009 1.7124
H14 H 0.6844 0.1680 1.6100
H15 H 0.6417 0.2167 1.6660
N1 N 1.1049(11) 0.0173(2) 0.8281(9)
H16 H 1.2289 0.0141 0.8643
N2 N 0.9892(10) -0.0123(2) 0.7196(9)
H17 H 0.745(15) 0.344(3) 1.219(13)
H18 H 0.840(10) 0.290(2) 0.920(9)
Cd1C Cd 1.17311(8) 0.249116(17) 1.64087(7)
O3C O 0.3702(7) 0.26644(18) 0.9536(7)
loop_
_geom_bond_atom_site_label_1
_geom_bond_atom_site_label_2
_geom_bond_site_symmetry_1
_geom_bond_site_symmetry_2
Cd1 O1 1_555 1_555
O1 C1 1_555 1_555
O2 Cd1 1_555 1_555
O3 Cd1 1_555 1_555
O4 Cd1 1_555 1_555
O5 Cd1 1_555 1_555
H1 O5 1_555 1_555
O6 Cd1 1_555 1_555
H2 O6 1_555 1_555
O7 C11 1_555 1_555
O8 C9 1_555 1_555
C1 O2 1_555 1_555
C2 C1 1_555 1_555
C3 C2 1_555 1_555
H3 C3 1_555 1_555
C4 C3 1_555 1_555
H4 C4 1_555 1_555
C5 C4 1_555 1_555
C6 C5 1_555 1_555
H5 C6 1_555 1_555
C7 C2 1_555 1_555
H6 C7 1_555 1_555
C8 C9 1_555 1_555
C9 C10 1_555 1_555
C10 H7 1_555 1_555
H8 C10 1_555 1_555
H9 C10 1_555 1_555
C11 C8 1_555 1_555
C12 C11 1_555 1_555
H10 C12 1_555 1_555
H11 C12 1_555 1_555
H12 C12 1_555 1_555
C13 O3 1_555 1_555
C14 C13 1_555 1_555
H13 C14 1_555 1_555
H14 C14 1_555 1_555
H15 C14 1_555 1_555
N1 C5 1_555 1_555
H16 N1 1_555 1_555
N2 C8 1_555 1_555
H17 O6 1_555 1_555
H18 O5 1_555 1_555
Cd1C O3 1_555 1_555
O3C Cd1 1_555 1_555
O4 C13 1_555 1_555
C6 C7 1_555 1_555
N1 N2 1_555 1_555

#END
