
#######################################################################
#
#                 Cambridge Crystallographic Data Centre
#                                CCDC 
#
#######################################################################
#
# If this CIF has been generated from an entry in the Cambridge 
# Structural Database, then it will include bibliographic, chemical, 
# crystal, experimental, refinement or atomic coordinate data resulting 
# from the CCDC's data processing and validation procedures.
#
#######################################################################

data_ORUBIN
_symmetry_cell_setting           triclinic
_symmetry_space_group_name_H-M   'P -1'
_symmetry_Int_Tables_number      2
_space_group_name_Hall           '-P 1'
loop_
_symmetry_equiv_pos_site_id
_symmetry_equiv_pos_as_xyz
1 x,y,z
2 -x,-y,-z
_cell_length_a                   11.880(2)
_cell_length_b                   15.820(3)
_cell_length_c                   16.410(3)
_cell_angle_alpha                114.54(3)
_cell_angle_beta                 90.33(3)
_cell_angle_gamma                96.19(3)
_cell_volume                     2784.82
loop_
_atom_site_label
_atom_site_type_symbol
_atom_site_fract_x
_atom_site_fract_y
_atom_site_fract_z
Cd1 Cd 1.50473(2) -0.071300(15) 0.072731(17)
Cd2 Cd 1.31396(2) 0.076887(16) 0.245853(18)
C1 C 1.2353(3) 0.2364(2) 0.3590(2)
C2 C 1.2008(3) 0.3281(2) 0.4222(2)
C3 C 1.2612(3) 0.4108(2) 0.4306(2)
H1 H 1.3218 0.4090 0.3946
C4 C 1.1083(3) 0.3307(2) 0.4742(2)
H2 H 1.0654 0.2755 0.4681
C5 C 1.0806(3) 0.4157(2) 0.5350(2)
H3 H 1.0193 0.4176 0.5705
C6 C 1.2341(3) 0.4961(2) 0.4909(2)
H4 H 1.2760 0.5515 0.4963
C7 C 1.1421(3) 0.7414(2) 0.6853(2)
C8 C 1.0448(3) 0.7446(2) 0.7421(2)
C9 C 1.2203(3) 0.8241(2) 0.6951(2)
C10 C 1.3009(4) 0.8169(3) 0.6234(3)
H5 H 1.3271 0.8785 0.6283
H6 H 1.2629 0.7804 0.5656
H7 H 1.3644 0.7873 0.6304
C11 C 1.0148(4) 0.8382(3) 0.8070(3)
H8 H 0.9442 0.8298 0.8324
H9 H 1.0078 0.8774 0.7761
H10 H 1.0734 0.8673 0.8541
C12 C 1.5610(3) 0.1195(2) 0.1314(2)
C13 C 1.6034(3) 0.22187(19) 0.1714(2)
C14 C 1.5545(3) 0.2828(2) 0.2457(2)
H11 H 1.4965 0.2600 0.2716
C15 C 1.5915(3) 0.3779(2) 0.2818(2)
H12 H 1.5586 0.4190 0.3318
C16 C 1.6776(3) 0.41099(19) 0.2430(2)
C17 C 1.7290(3) 0.3500(2) 0.1698(2)
H13 H 1.7883 0.3724 0.1447
C18 C 1.1426(3) 0.4975(2) 0.5437(2)
C19 C 1.6916(3) 0.2560(2) 0.1349(2)
H14 H 1.7261 0.2147 0.0859
C20 C 1.6905(3) 0.6577(2) 0.3683(2)
C21 C 1.6152(4) 0.7112(2) 0.4367(2)
C22 C 1.7908(4) 0.6997(2) 0.3406(3)
C23 C 1.8229(5) 0.8044(3) 0.3810(3)
H15 H 1.8981 0.8185 0.3653
H16 H 1.8207 0.8288 0.4451
H17 H 1.7704 0.8326 0.3583
C24 C 1.5190(4) 0.6601(3) 0.4626(3)
H18 H 1.5480 0.6184 0.4842
H19 H 1.4679 0.6248 0.4112
H20 H 1.4795 0.7043 0.5090
C25 C 1.2538(3) -0.1129(2) 0.1739(2)
C26 C 1.2165(3) -0.2158(2) 0.1430(2)
C27 C 1.2782(3) -0.2819(2) 0.0831(2)
H21 H 1.3427 -0.2625 0.0606
C28 C 1.2450(3) -0.3764(2) 0.0564(2)
H22 H 1.2865 -0.4204 0.0157
C29 C 1.1509(3) -0.4048(2) 0.0901(2)
C30 C 1.0891(3) -0.3407(2) 0.1501(2)
H23 H 1.0253 -0.3608 0.1729
C31 C 1.1213(3) -0.2469(2) 0.1765(2)
H24 H 1.0791 -0.2036 0.2172
C32 C 1.1434(3) -0.6531(2) -0.0188(2)
C33 C 1.0484(4) -0.6935(2) 0.0170(3)
C34 C 1.2207(4) -0.7098(2) -0.0846(3)
C35 C 1.3139(4) -0.6623(3) -0.1145(3)
H25 H 1.3724 -0.6334 -0.0674
H26 H 1.2858 -0.6152 -0.1290
H27 H 1.3444 -0.7071 -0.1667
C36 C 1.0243(4) -0.7956(2) -0.0098(3)
H28 H 1.0855 -0.8167 0.0123
H29 H 1.0167 -0.8276 -0.0740
H30 H 0.9551 -0.8086 0.0150
C37 C 1.5840(3) -0.2332(2) -0.0374(2)
C38 C 1.6169(3) -0.32544(19) -0.0997(2)
C39 C 1.5562(3) -0.4073(2) -0.1049(2)
H31 H 1.4951 -0.4040 -0.0689
C40 C 1.7060(3) -0.3309(2) -0.1539(2)
H32 H 1.7464 -0.2763 -0.1520
C41 C 1.5846(3) -0.4942(2) -0.1628(2)
H33 H 1.5430 -0.5488 -0.1658
C42 C 1.7360(3) -0.4166(2) -0.2110(2)
H34 H 1.7972 -0.4196 -0.2467
C43 C 1.6751(3) -0.4986(2) -0.2156(2)
C44 C 1.6903(3) -0.7440(2) -0.3338(2)
C45 C 1.6152(4) -0.8251(2) -0.3339(2)
C46 C 1.5116(4) -0.8102(2) -0.2813(3)
H35 H 1.4592 -0.7837 -0.3059
H36 H 1.5321 -0.7683 -0.2199
H37 H 1.4767 -0.8691 -0.2842
C47 C 1.7951(4) -0.7513(3) -0.3816(2)
C48 C 1.8398(4) -0.8428(3) -0.4281(3)
H38 H 1.9090 -0.8340 -0.4551
H39 H 1.7850 -0.8856 -0.4737
H40 H 1.8544 -0.8679 -0.3854
C49 C 1.1676(3) 0.0085(2) 0.0511(3)
H41 H 1.2110 -0.0427 0.0219
H42 H 1.1421 0.0299 0.0082
H43 H 1.1032 -0.0121 0.0762
N1 N 1.1129(2) 0.58223(17) 0.60856(18)
N2 N 1.1696(2) 0.66209(18) 0.62221(18)
N3 N 1.6590(3) 0.56644(17) 0.33622(18)
N4 N 1.7149(2) 0.50736(17) 0.27499(18)
N5 N 1.1724(2) -0.56227(17) 0.00531(19)
N6 N 1.1157(2) -0.50062(17) 0.06406(19)
N7 N 1.7124(2) -0.58391(17) -0.27562(18)
N8 N 1.6541(2) -0.66272(17) -0.28225(17)
O1 O 0.9887(2) 0.67281(17) 0.73527(17)
O2 O 1.2208(2) 0.89716(17) 0.76230(19)
O3 O 1.8481(3) 0.64911(17) 0.2839(2)
O4 O 1.6300(3) 0.79697(18) 0.4721(2)
O5 O 1.8478(3) -0.68135(19) -0.38351(19)
O6 O 1.6387(3) -0.90410(17) -0.3775(2)
O7 O 1.2098(3) -0.79468(19) -0.1118(3)
O8 O 0.9889(2) -0.63972(17) 0.06935(19)
O9 O 1.1768(2) 0.16202(15) 0.34753(17)
O10 O 1.3244(2) 0.23566(15) 0.31909(16)
O11 O 1.49614(19) 0.08521(13) 0.17273(15)
O12 O 1.59308(19) 0.06826(14) 0.05462(15)
O13 O 1.6286(2) -0.15877(14) -0.04000(15)
O14 O 1.50951(19) -0.23092(14) 0.01743(15)
O15 O 1.1932(2) -0.05618(16) 0.22381(18)
O16 O 1.3449(2) -0.08546(14) 0.14824(16)
O17 O 1.4191(2) 0.06957(15) 0.35933(16)
O18 O 1.2360(2) 0.08239(15) 0.12020(16)
H44 H 1.2507 0.1384 0.1142
O19 O 1.64053(18) -0.06288(13) 0.17799(13)
H45 H 1.3995 0.0180 0.3658
H46 H 1.3962 0.1083 0.4065
H47 H 1.0672 -0.5194 0.0911
H48 H 1.0612 0.5807 0.6401
H49 H 1.7767 -0.5926 -0.3203
H50 H 1.7820 0.5271 0.2521
H51 H 1.6996 -0.0048 0.2105
H52 H 1.6843 -0.1058 0.1550
Cd1A Cd 1.49527(2) 0.071300(15) -0.072731(17)
O12A O 1.40692(19) -0.06826(14) -0.05462(15)
O20 O 1.97408(18) -0.89919(13) -0.61327(13)
H53 H 1.9442 -0.8806 -0.6469
C50 C 1.9582(6) -0.9994(4) -0.6519(4)
H54 H 2.0109 -1.0215 -0.6231
H55 H 1.9708 -1.0230 -0.7149
H56 H 1.8821 -1.0208 -0.6439
loop_
_geom_bond_atom_site_label_1
_geom_bond_atom_site_label_2
_geom_bond_site_symmetry_1
_geom_bond_site_symmetry_2
Cd1 O11 1_555 1_555
Cd2 O9 1_555 1_555
C1 C2 1_555 1_555
C2 C3 1_555 1_555
C3 H1 1_555 1_555
C4 C2 1_555 1_555
H2 C4 1_555 1_555
C5 C4 1_555 1_555
H3 C5 1_555 1_555
C6 C3 1_555 1_555
H4 C6 1_555 1_555
C7 C8 1_555 1_555
C8 C11 1_555 1_555
C9 C7 1_555 1_555
C10 C9 1_555 1_555
H5 C10 1_555 1_555
H6 C10 1_555 1_555
H7 C10 1_555 1_555
C11 H8 1_555 1_555
H9 C11 1_555 1_555
H10 C11 1_555 1_555
C12 C13 1_555 1_555
C13 C14 1_555 1_555
C14 H11 1_555 1_555
C15 C14 1_555 1_555
H12 C15 1_555 1_555
C16 C15 1_555 1_555
C17 C16 1_555 1_555
H13 C17 1_555 1_555
C18 C5 1_555 1_555
C19 C13 1_555 1_555
H14 C19 1_555 1_555
C20 C21 1_555 1_555
C21 C24 1_555 1_555
C22 C20 1_555 1_555
C23 C22 1_555 1_555
H15 C23 1_555 1_555
H16 C23 1_555 1_555
H17 C23 1_555 1_555
C24 H18 1_555 1_555
H19 C24 1_555 1_555
H20 C24 1_555 1_555
C25 C26 1_555 1_555
C26 C27 1_555 1_555
C27 H21 1_555 1_555
C28 C27 1_555 1_555
H22 C28 1_555 1_555
C29 C28 1_555 1_555
C30 C29 1_555 1_555
H23 C30 1_555 1_555
C31 C26 1_555 1_555
H24 C31 1_555 1_555
C32 C33 1_555 1_555
C33 C36 1_555 1_555
C34 C32 1_555 1_555
C35 C34 1_555 1_555
H25 C35 1_555 1_555
H26 C35 1_555 1_555
H27 C35 1_555 1_555
C36 H28 1_555 1_555
H29 C36 1_555 1_555
H30 C36 1_555 1_555
C37 C38 1_555 1_555
C38 C39 1_555 1_555
C39 H31 1_555 1_555
C40 C38 1_555 1_555
H32 C40 1_555 1_555
C41 C39 1_555 1_555
H33 C41 1_555 1_555
C42 C40 1_555 1_555
H34 C42 1_555 1_555
C43 C41 1_555 1_555
C44 C45 1_555 1_555
C45 C46 1_555 1_555
C46 H35 1_555 1_555
H36 C46 1_555 1_555
H37 C46 1_555 1_555
C47 C44 1_555 1_555
C48 C47 1_555 1_555
H38 C48 1_555 1_555
H39 C48 1_555 1_555
H40 C48 1_555 1_555
C49 H41 1_555 1_555
H42 C49 1_555 1_555
H43 C49 1_555 1_555
N1 C18 1_555 1_555
N2 C7 1_555 1_555
N3 C20 1_555 1_555
N4 C16 1_555 1_555
N5 C32 1_555 1_555
N6 C29 1_555 1_555
N7 C43 1_555 1_555
N8 C44 1_555 1_555
O1 C8 1_555 1_555
O2 C9 1_555 1_555
O3 C22 1_555 1_555
O4 C21 1_555 1_555
O5 C47 1_555 1_555
O6 C45 1_555 1_555
O7 C34 1_555 1_555
O8 C33 1_555 1_555
O9 C1 1_555 1_555
O10 Cd2 1_555 1_555
O11 Cd2 1_555 1_555
O12 Cd1 1_555 1_555
O13 Cd1 1_555 1_555
O14 Cd1 1_555 1_555
O15 Cd2 1_555 1_555
O16 Cd1 1_555 1_555
O17 Cd2 1_555 1_555
O18 Cd2 1_555 1_555
H44 O18 1_555 1_555
O19 Cd1 1_555 1_555
H45 O17 1_555 1_555
H46 O17 1_555 1_555
H47 N6 1_555 1_555
H48 N1 1_555 1_555
H49 N7 1_555 1_555
H50 N4 1_555 1_555
H51 O19 1_555 1_555
H52 O19 1_555 1_555
O20 H53 1_555 1_555
C50 O20 1_555 1_555
H54 C50 1_555 1_555
H55 C50 1_555 1_555
H56 C50 1_555 1_555
Cd1A O12 1_555 1_555
O12A Cd1 1_555 1_555
Cd2 O16 1_555 1_555
C1 O10 1_555 1_555
C6 C18 1_555 1_555
C12 O11 1_555 1_555
C12 O12 1_555 1_555
C17 C19 1_555 1_555
C25 O15 1_555 1_555
C25 O16 1_555 1_555
C30 C31 1_555 1_555
C37 O13 1_555 1_555
C37 O14 1_555 1_555
C42 C43 1_555 1_555
C49 O18 1_555 1_555
N1 N2 1_555 1_555
N3 N4 1_555 1_555
N5 N6 1_555 1_555
N7 N8 1_555 1_555
Cd1A O12A 1_555 1_555

#END
