
#######################################################################
#
#                 Cambridge Crystallographic Data Centre
#                                CCDC 
#
#######################################################################
#
# If this CIF has been generated from an entry in the Cambridge 
# Structural Database, then it will include bibliographic, chemical, 
# crystal, experimental, refinement or atomic coordinate data resulting 
# from the CCDC's data processing and validation procedures.
#
#######################################################################

data_ORUKAO
_symmetry_cell_setting           monoclinic
_symmetry_space_group_name_H-M   'P 21/n'
_symmetry_Int_Tables_number      14
_space_group_name_Hall           '-P 2yn'
loop_
_symmetry_equiv_pos_site_id
_symmetry_equiv_pos_as_xyz
1 x,y,z
2 1/2-x,1/2+y,1/2-z
3 -x,-y,-z
4 1/2+x,1/2-y,1/2+z
_cell_length_a                   8.7440(7)
_cell_length_b                   7.5417(5)
_cell_length_c                   29.0459(17)
_cell_angle_alpha                90
_cell_angle_beta                 96.892(6)
_cell_angle_gamma                90
_cell_volume                     1901.58
loop_
_atom_site_label
_atom_site_type_symbol
_atom_site_fract_x
_atom_site_fract_y
_atom_site_fract_z
Ag1 Ag 0.42091(2) 0.18254(3) 0.236572(7)
V1 V 0.23871(5) 0.32457(7) 0.064648(16)
O1 O 0.0298(2) 0.2726(3) 0.05799(7)
O2 O 0.4310(2) 0.4177(3) 0.09924(6)
O3 O 0.3065(2) 0.1390(3) 0.05129(7)
O4 O 0.2565(2) 0.4502(3) 0.01459(7)
O5 O 0.1498(2) 0.5880(3) 0.09159(7)
H1 H 0.1908 0.6322 0.1155
O6 O 0.2909(3) -0.1159(3) 0.23368(8)
O7 O 0.3792(3) -0.1274(3) 0.16695(8)
O8 O 0.2080(3) -0.3146(3) 0.18377(8)
N1 N 0.2281(2) 0.2588(3) 0.13552(8)
N2 N 0.3567(2) 0.3057(3) 0.16653(7)
N3 N 0.8608(3) 0.6101(3) 0.21841(8)
N4 N 0.2942(3) -0.1846(4) 0.19403(9)
C1 C -0.0634(3) 0.1749(4) 0.08079(10)
C2 C -0.2103(3) 0.1326(4) 0.05902(11)
H2 H -0.2401 0.1697 0.0280
C3 C -0.3119(3) 0.0378(4) 0.08211(12)
H3 H -0.4121 0.0128 0.0670
C4 C -0.2707(3) -0.0219(4) 0.12707(12)
H4 H -0.3407 -0.0896 0.1425
C5 C -0.1263(3) 0.0188(4) 0.14888(11)
H5 H -0.0971 -0.0226 0.1796
C6 C -0.0213(3) 0.1198(4) 0.12695(10)
C7 C 0.1212(3) 0.1721(4) 0.15290(10)
H6 H 0.1382 0.1412 0.1848
C8 C 0.4536(3) 0.3919(4) 0.14351(10)
C9 C 0.5943(3) 0.4661(4) 0.16996(9)
C10 C 0.7333(3) 0.4635(4) 0.15136(10)
H7 H 0.7393 0.4132 0.1216
C11 C 0.8627(3) 0.5348(4) 0.17655(10)
H8 H 0.9576 0.5305 0.1637
C12 C 0.7250(3) 0.6156(4) 0.23576(10)
H9 H 0.7208 0.6709 0.2650
C13 C 0.5917(3) 0.5445(4) 0.21303(10)
H10 H 0.4985 0.5492 0.2268
C14 C 0.3161(6) 0.4006(6) -0.02704(13)
H11 H 0.3631 0.2828 -0.0232
H12 H 0.3940 0.4869 -0.0339
H13 H 0.2322 0.3980 -0.0527
C15 C 0.0978(6) 0.7330(5) 0.06409(13)
H14 H 0.0612 0.6921 0.0327
H15 H 0.1824 0.8174 0.0628
H16 H 0.0132 0.7912 0.0775
Ag1A Ag 0.07909(2) -0.31746(3) 0.263428(7)
Ag1A_2 Ag 1.07909(2) 0.68254(3) 0.263428(7)
O6A O 0.2091(3) 0.3841(3) 0.26632(8)
N3A N 0.6392(3) 0.1101(3) 0.28159(8)
loop_
_geom_bond_atom_site_label_1
_geom_bond_atom_site_label_2
_geom_bond_site_symmetry_1
_geom_bond_site_symmetry_2
Ag1 O6 1_555 1_555
V1 O1 1_555 1_555
O1 C1 1_555 1_555
O2 V1 1_555 1_555
O3 V1 1_555 1_555
O4 V1 1_555 1_555
O5 V1 1_555 1_555
H1 O5 1_555 1_555
O6 N4 1_555 1_555
O7 N4 1_555 1_555
O8 N4 1_555 1_555
N1 V1 1_555 1_555
N2 Ag1 1_555 1_555
N3 C11 1_555 1_555
C1 C2 1_555 1_555
C2 H2 1_555 1_555
C3 C2 1_555 1_555
H3 C3 1_555 1_555
C4 C3 1_555 1_555
H4 C4 1_555 1_555
C5 C4 1_555 1_555
H5 C5 1_555 1_555
C6 C1 1_555 1_555
C7 N1 1_555 1_555
H6 C7 1_555 1_555
C8 O2 1_555 1_555
C9 C8 1_555 1_555
C10 C9 1_555 1_555
H7 C10 1_555 1_555
C11 C10 1_555 1_555
H8 C11 1_555 1_555
C12 N3 1_555 1_555
H9 C12 1_555 1_555
C13 C9 1_555 1_555
H10 C13 1_555 1_555
C14 O4 1_555 1_555
H11 C14 1_555 1_555
H12 C14 1_555 1_555
H13 C14 1_555 1_555
C15 O5 1_555 1_555
H14 C15 1_555 1_555
H15 C15 1_555 1_555
H16 C15 1_555 1_555
Ag1A O6 1_555 1_555
Ag1A_2 N3 1_555 1_555
O6A Ag1 1_555 1_555
N3A Ag1 1_555 1_555
N1 N2 1_555 1_555
N2 C8 1_555 1_555
C5 C6 1_555 1_555
C6 C7 1_555 1_555
C12 C13 1_555 1_555

#END
