
#######################################################################
#
#                 Cambridge Crystallographic Data Centre
#                                CCDC 
#
#######################################################################
#
# If this CIF has been generated from an entry in the Cambridge 
# Structural Database, then it will include bibliographic, chemical, 
# crystal, experimental, refinement or atomic coordinate data resulting 
# from the CCDC's data processing and validation procedures.
#
#######################################################################

data_ORUWII
_symmetry_cell_setting           monoclinic
_symmetry_space_group_name_H-M   'P 21/n'
_symmetry_Int_Tables_number      14
_space_group_name_Hall           '-P 2yn'
loop_
_symmetry_equiv_pos_site_id
_symmetry_equiv_pos_as_xyz
1 x,y,z
2 1/2-x,1/2+y,1/2-z
3 -x,-y,-z
4 1/2+x,1/2-y,1/2+z
_cell_length_a                   12.7831(6)
_cell_length_b                   24.0579(12)
_cell_length_c                   17.5170(9)
_cell_angle_alpha                90
_cell_angle_beta                 96.716(4)
_cell_angle_gamma                90
_cell_volume                     5350.12
loop_
_atom_site_label
_atom_site_type_symbol
_atom_site_fract_x
_atom_site_fract_y
_atom_site_fract_z
Na1 Na 0.85677(6) 0.42491(3) 0.66510(5)
P1 P 0.66196(4) 0.45009(2) 0.76537(3)
O1 O 0.65114(11) 0.39932(6) 0.82030(9)
H1 H 0.7046(14) 0.3831(11) 0.8364(17)
O2 O 0.59394(11) 0.49683(6) 0.78718(8)
O3 O 0.77562(10) 0.46331(6) 0.76132(8)
P2 P 0.60447(4) 0.47056(2) 0.59173(3)
O4 O 0.52150(12) 0.51544(6) 0.60631(9)
H2 H 0.490(2) 0.5283(13) 0.5667(11)
O5 O 0.71423(11) 0.49377(6) 0.59467(8)
O6 O 0.57096(11) 0.43950(5) 0.51756(8)
C1 C 0.60210(15) 0.42158(8) 0.67213(11)
O7 O 0.66687(11) 0.37754(6) 0.64786(8)
H3 H 0.676(2) 0.3520(8) 0.6785(12)
C2 C 0.49060(15) 0.40064(8) 0.68371(12)
H4 H 0.4981 0.3709 0.7230
H5 H 0.4520 0.4317 0.7048
C3 C 0.42384(15) 0.37855(8) 0.61393(12)
C4 C 0.33790(17) 0.40862(9) 0.57949(13)
H6 H 0.3232 0.4443 0.5989
C5 C 0.27354(17) 0.38713(10) 0.51727(14)
H7 H 0.2142 0.4075 0.4947
C6 C 0.29643(17) 0.33639(10) 0.48881(13)
H8 H 0.2532 0.3212 0.4460
N1 N 0.37973(14) 0.30809(8) 0.52132(11)
H9 H 0.393(2) 0.2787(12) 0.5035(16)
C7 C 0.44191(16) 0.32719(8) 0.58290(12)
H10 H 0.4990 0.3051 0.6053
C8 C 0.88459(18) 0.44395(10) 0.48206(14)
C9 C 0.9494(2) 0.43689(14) 0.41748(17)
H11 H 1.0237 0.4330 0.4380
H12 H 0.9407 0.4695 0.3838
H13 H 0.9264 0.4035 0.3881
O8 O 0.89702(16) 0.41662(8) 0.54000(11)
O9 O 0.81146(15) 0.48226(9) 0.47070(11)
H14 H 0.781(3) 0.4869(16) 0.5092(14)
C10 C 1.10582(19) 0.41098(10) 0.72257(15)
C11 C 1.2120(2) 0.42474(14) 0.7616(2)
H15 H 1.2297 0.4632 0.7497
H16 H 1.2641 0.3995 0.7437
H17 H 1.2123 0.4206 0.8173
O10 O 1.03456(13) 0.44454(7) 0.71032(10)
O11 O 1.09587(13) 0.35775(7) 0.70477(11)
H18 H 1.0321(11) 0.3497(15) 0.694(2)
Na2 Na 0.63104(6) 0.58826(3) 0.81989(5)
P3 P 0.81776(4) 0.62129(2) 0.71341(3)
O12 O 0.83800(11) 0.56853(6) 0.66430(8)
H19 H 0.7912(17) 0.5465(10) 0.6521(17)
O13 O 0.87631(11) 0.66912(6) 0.68311(8)
O14 O 0.70270(10) 0.63008(5) 0.71796(8)
P4 P 0.86475(4) 0.65557(2) 0.88300(3)
O15 O 0.90472(11) 0.71210(6) 0.85224(9)
H20 H 0.8609(17) 0.7319(10) 0.8276(15)
O16 O 0.74862(11) 0.65877(6) 0.89203(8)
O17 O 0.93469(11) 0.64045(6) 0.95455(8)
C12 C 0.87977(15) 0.60158(8) 0.81024(12)
O18 O 0.82018(10) 0.55644(5) 0.83729(8)
H21 H 0.814(2) 0.5300(8) 0.8083(12)
C13 C 0.99665(15) 0.58541(9) 0.80642(12)
H22 H 1.0015 0.5658 0.7572
H23 H 1.0386 0.6200 0.8057
C14 C 1.04578(15) 0.54927(8) 0.87091(12)
C15 C 1.12024(16) 0.56872(9) 0.92865(13)
H24 H 1.1404 0.6067 0.9292
C16 C 1.16565(17) 0.53321(9) 0.98562(14)
H25 H 1.2164 0.5468 1.0252
C17 C 1.13655(17) 0.47830(9) 0.98426(13)
H26 H 1.1668 0.4535 1.0229
N2 N 1.06508(14) 0.46016(7) 0.92786(11)
H27 H 1.0473(19) 0.4258(12) 0.9263(15)
C18 C 1.02020(15) 0.49335(8) 0.87265(13)
H28 H 0.9698 0.4785 0.8338
C19 C 0.59898(19) 0.59156(11) 1.00636(15)
C20 C 0.5470(3) 0.57407(17) 1.07437(18)
H29 H 0.4890 0.5485 1.0579
H30 H 0.5192 0.6069 1.0984
H31 H 0.5984 0.5553 1.1116
O19 O 0.57346(16) 0.57593(9) 0.94208(11)
O20 O 0.67750(14) 0.62717(8) 1.02326(10)
H32 H 0.701(2) 0.6358(12) 0.9833(10)
C21 C 0.38587(18) 0.57697(10) 0.76083(16)
C22 C 0.2731(2) 0.59332(14) 0.7444(3)
H33 H 0.2552 0.6194 0.7838
H34 H 0.2286 0.5602 0.7447
H35 H 0.2613 0.6111 0.6938
O21 O 0.45698(12) 0.60984(7) 0.76647(11)
O22 O 0.39833(13) 0.52289(7) 0.76748(12)
H36 H 0.4615(10) 0.5152(14) 0.774(2)
Na3 Na 0.66421(6) 0.26427(3) 0.83546(5)
P5 P 0.85091(4) 0.28055(2) 0.71980(3)
O23 O 0.88238(11) 0.23068(6) 0.66964(9)
H37 H 0.8367(19) 0.2086(10) 0.6529(18)
O24 O 0.89725(11) 0.33274(6) 0.69196(8)
O25 O 0.73294(10) 0.28083(5) 0.72142(8)
P6 P 0.91223(4) 0.32164(2) 0.88499(3)
O26 O 0.98602(11) 0.36672(6) 0.86887(8)
O27 O 0.79690(11) 0.33603(6) 0.88567(8)
O28 O 0.94892(11) 0.29308(6) 0.96524(8)
H38 H 0.9891(19) 0.3130(11) 0.9931(15)
C23 C 0.91713(15) 0.26348(8) 0.81709(11)
O29 O 0.86031(11) 0.22100(6) 0.85165(8)
H39 H 0.852(2) 0.1930(8) 0.8250(14)
C24 C 1.03086(15) 0.24506(8) 0.80725(12)
H40 H 1.0269 0.2144 0.7694
H41 H 1.0671 0.2765 0.7851
C25 C 1.09755(15) 0.22616(8) 0.87877(12)
C26 C 1.18009(16) 0.25852(9) 0.91441(13)
H42 H 1.1917 0.2947 0.8954
C27 C 1.24494(17) 0.23838(9) 0.97706(13)
H43 H 1.3026 0.2600 0.9997
C28 C 1.22551(16) 0.18711(9) 1.00633(13)
H44 H 1.2687 0.1730 1.0498
N3 N 1.14450(14) 0.15708(8) 0.97259(11)
H45 H 1.129(2) 0.1253(14) 0.9897(18)
C29 C 1.08270(16) 0.17451(8) 0.91007(12)
H46 H 1.0281 0.1511 0.8870
C30 C 0.63957(19) 0.29312(11) 1.01362(15)
C31 C 0.5839(2) 0.28968(16) 1.08308(18)
H47 H 0.6356 0.2870 1.1289
H48 H 0.5385 0.2567 1.0797
H49 H 0.5408 0.3230 1.0866
O30 O 0.61845(18) 0.26462(9) 0.95804(12)
O31 O 0.71507(16) 0.33026(10) 1.01734(12)
H50 H 0.741(3) 0.3300(15) 0.9767(12)
C32 C 0.41783(18) 0.24677(10) 0.77182(15)
C33 C 0.3097(2) 0.26145(14) 0.7367(2)
H51 H 0.3065 0.2598 0.6805
H52 H 0.2924 0.2992 0.7522
H53 H 0.2591 0.2351 0.7540
O32 O 0.49021(13) 0.27959(7) 0.77849(11)
O33 O 0.42760(12) 0.19428(7) 0.79187(11)
H54 H 0.4892(12) 0.1860(14) 0.806(2)
O13A O 0.62369(11) 0.16912(6) 0.81689(8)
Na3A Na 0.83579(6) 0.76427(3) 0.66454(5)
loop_
_geom_bond_atom_site_label_1
_geom_bond_atom_site_label_2
_geom_bond_site_symmetry_1
_geom_bond_site_symmetry_2
Na1 O3 1_555 1_555
P1 O1 1_555 1_555
O1 H1 1_555 1_555
O2 P1 1_555 1_555
O3 P1 1_555 1_555
P2 O4 1_555 1_555
O4 H2 1_555 1_555
O5 Na1 1_555 1_555
O6 P2 1_555 1_555
C1 P1 1_555 1_555
O7 Na1 1_555 1_555
H3 O7 1_555 1_555
C2 C1 1_555 1_555
H4 C2 1_555 1_555
H5 C2 1_555 1_555
C3 C2 1_555 1_555
C4 C3 1_555 1_555
H6 C4 1_555 1_555
C5 C4 1_555 1_555
H7 C5 1_555 1_555
C6 C5 1_555 1_555
H8 C6 1_555 1_555
N1 C6 1_555 1_555
H9 N1 1_555 1_555
C7 C3 1_555 1_555
H10 C7 1_555 1_555
C8 C9 1_555 1_555
C9 H11 1_555 1_555
H12 C9 1_555 1_555
H13 C9 1_555 1_555
O8 Na1 1_555 1_555
O9 C8 1_555 1_555
H14 O9 1_555 1_555
C10 C11 1_555 1_555
C11 H15 1_555 1_555
H16 C11 1_555 1_555
H17 C11 1_555 1_555
O10 Na1 1_555 1_555
O11 C10 1_555 1_555
H18 O11 1_555 1_555
Na2 O2 1_555 1_555
P3 O12 1_555 1_555
O12 H19 1_555 1_555
O13 P3 1_555 1_555
O14 Na2 1_555 1_555
P4 O15 1_555 1_555
O15 H20 1_555 1_555
O16 Na2 1_555 1_555
O17 P4 1_555 1_555
C12 P3 1_555 1_555
O18 Na2 1_555 1_555
H21 O18 1_555 1_555
C13 C12 1_555 1_555
H22 C13 1_555 1_555
H23 C13 1_555 1_555
C14 C13 1_555 1_555
C15 C14 1_555 1_555
H24 C15 1_555 1_555
C16 C15 1_555 1_555
H25 C16 1_555 1_555
C17 C16 1_555 1_555
H26 C17 1_555 1_555
N2 C17 1_555 1_555
H27 N2 1_555 1_555
C18 C14 1_555 1_555
H28 C18 1_555 1_555
C19 C20 1_555 1_555
C20 H29 1_555 1_555
H30 C20 1_555 1_555
H31 C20 1_555 1_555
O19 Na2 1_555 1_555
O20 C19 1_555 1_555
H32 O20 1_555 1_555
C21 C22 1_555 1_555
C22 H33 1_555 1_555
H34 C22 1_555 1_555
H35 C22 1_555 1_555
O21 Na2 1_555 1_555
O22 C21 1_555 1_555
H36 O22 1_555 1_555
Na3 O25 1_555 1_555
P5 O23 1_555 1_555
O23 H37 1_555 1_555
O24 Na1 1_555 1_555
O25 P5 1_555 1_555
P6 O26 1_555 1_555
O27 Na3 1_555 1_555
O28 P6 1_555 1_555
H38 O28 1_555 1_555
C23 P5 1_555 1_555
O29 Na3 1_555 1_555
H39 O29 1_555 1_555
C24 C23 1_555 1_555
H40 C24 1_555 1_555
H41 C24 1_555 1_555
C25 C24 1_555 1_555
C26 C25 1_555 1_555
H42 C26 1_555 1_555
C27 C26 1_555 1_555
H43 C27 1_555 1_555
C28 C27 1_555 1_555
H44 C28 1_555 1_555
N3 C28 1_555 1_555
H45 N3 1_555 1_555
C29 C25 1_555 1_555
H46 C29 1_555 1_555
C30 C31 1_555 1_555
C31 H47 1_555 1_555
H48 C31 1_555 1_555
H49 C31 1_555 1_555
O30 Na3 1_555 1_555
O31 C30 1_555 1_555
H50 O31 1_555 1_555
C32 C33 1_555 1_555
C33 H51 1_555 1_555
H52 C33 1_555 1_555
H53 C33 1_555 1_555
O32 Na3 1_555 1_555
O33 C32 1_555 1_555
H54 O33 1_555 1_555
O13A Na3 1_555 1_555
Na3A O13 1_555 1_555
P2 O5 1_555 1_555
P2 C1 1_555 1_555
C1 O7 1_555 1_555
N1 C7 1_555 1_555
C8 O8 1_555 1_555
C10 O10 1_555 1_555
P3 O14 1_555 1_555
P4 O16 1_555 1_555
P4 C12 1_555 1_555
C12 O18 1_555 1_555
N2 C18 1_555 1_555
C19 O19 1_555 1_555
C21 O21 1_555 1_555
P5 O24 1_555 1_555
P6 O27 1_555 1_555
P6 C23 1_555 1_555
C23 O29 1_555 1_555
N3 C29 1_555 1_555
C30 O30 1_555 1_555
C32 O32 1_555 1_555

#END
