
#######################################################################
#
#                 Cambridge Crystallographic Data Centre
#                                CCDC 
#
#######################################################################
#
# If this CIF has been generated from an entry in the Cambridge 
# Structural Database, then it will include bibliographic, chemical, 
# crystal, experimental, refinement or atomic coordinate data resulting 
# from the CCDC's data processing and validation procedures.
#
#######################################################################

data_OSANOM
_symmetry_cell_setting           orthorhombic
_symmetry_space_group_name_H-M   'F d d 2'
_symmetry_Int_Tables_number      43
_space_group_name_Hall           'F 2 -2d'
loop_
_symmetry_equiv_pos_site_id
_symmetry_equiv_pos_as_xyz
1 x,y,z
2 -x,-y,z
3 1/4+x,1/4-y,1/4+z
4 1/4-x,1/4+y,1/4+z
5 x,1/2+y,1/2+z
6 -x,1/2-y,1/2+z
7 1/4+x,3/4-y,3/4+z
8 1/4-x,3/4+y,3/4+z
9 1/2+x,y,1/2+z
10 1/2-x,-y,1/2+z
11 3/4+x,1/4-y,3/4+z
12 3/4-x,1/4+y,3/4+z
13 1/2+x,1/2+y,z
14 1/2-x,1/2-y,z
15 3/4+x,3/4-y,1/4+z
16 3/4-x,3/4+y,1/4+z
_cell_length_a                   12.4172(7)
_cell_length_b                   29.0323(12)
_cell_length_c                   23.869(8)
_cell_angle_alpha                90
_cell_angle_beta                 90
_cell_angle_gamma                90
_cell_volume                     8604.77
loop_
_atom_site_label
_atom_site_type_symbol
_atom_site_fract_x
_atom_site_fract_y
_atom_site_fract_z
Ru1 Ru 1.0000 0.5000 0.218409(7)
N1 N 0.95183(14) 0.54354(6) 0.15488(8)
C1 C 1.02949(16) 0.57286(7) 0.13524(10)
C2 C 1.01084(17) 0.60014(8) 0.08904(11)
H1 H 1.0661 0.6198 0.0754
C3 C 0.91185(18) 0.59899(8) 0.06245(10)
H2 H 0.8985 0.6177 0.0305
C4 C 0.83246(18) 0.57003(8) 0.08331(11)
H3 H 0.7633 0.5688 0.0664
C5 C 0.85649(18) 0.54299(8) 0.12931(9)
H4 H 0.8023 0.5230 0.1434
N2 N 1.13287(12) 0.54148(6) 0.21142(8)
C6 C 1.13078(17) 0.57175(8) 0.16753(10)
C7 C 1.21975(17) 0.59887(8) 0.15422(11)
H5 H 1.2167 0.6203 0.1242
C8 C 1.31322(17) 0.59383(8) 0.18584(11)
H6 H 1.3760 0.6108 0.1764
C9 C 1.31457(17) 0.56430(8) 0.23068(11)
H7 H 1.3773 0.5613 0.2532
C10 C 1.22271(17) 0.53892(8) 0.24268(10)
H8 H 1.2233 0.5190 0.2742
N3 N 0.94359(14) 0.53797(6) 0.28488(9)
C11 C 0.96628(17) 0.52150(8) 0.33668(10)
C12 C 0.92814(19) 0.54254(8) 0.38495(10)
H9 H 0.9440 0.5299 0.4207
C13 C 0.86719(19) 0.58185(9) 0.38049(11)
H10 H 0.8410 0.5968 0.4131
C14 C 0.84444(19) 0.59937(8) 0.32786(10)
H11 H 0.8022 0.6264 0.3239
C15 C 0.88395(18) 0.57699(7) 0.28124(10)
H12 H 0.8688 0.5894 0.2452
N1A N 1.04817(14) 0.45646(6) 0.15488(8)
C1A C 0.97051(16) 0.42714(7) 0.13524(10)
C2A C 0.98916(17) 0.39986(8) 0.08904(11)
H1A H 0.9339 0.3802 0.0754
C3A C 1.08815(18) 0.40101(8) 0.06245(10)
H2A H 1.1015 0.3823 0.0305
C4A C 1.16754(18) 0.42997(8) 0.08331(11)
H3A H 1.2367 0.4312 0.0664
C5A C 1.14351(18) 0.45701(8) 0.12931(9)
H4A H 1.1977 0.4770 0.1434
N2A N 0.86713(12) 0.45852(6) 0.21142(8)
C6A C 0.86922(17) 0.42825(8) 0.16753(10)
C7A C 0.78025(17) 0.40113(8) 0.15422(11)
H5A H 0.7833 0.3797 0.1242
C8A C 0.68678(17) 0.40617(8) 0.18584(11)
H6A H 0.6240 0.3892 0.1764
C9A C 0.68543(17) 0.43570(8) 0.23068(11)
H7A H 0.6227 0.4387 0.2532
C10A C 0.77729(17) 0.46108(8) 0.24268(10)
H8A H 0.7767 0.4810 0.2742
N3A N 1.05641(14) 0.46203(6) 0.28488(9)
C11A C 1.03372(17) 0.47850(8) 0.33668(10)
C12A C 1.07186(19) 0.45746(8) 0.38495(10)
H9A H 1.0560 0.4701 0.4207
C13A C 1.13281(19) 0.41815(9) 0.38049(11)
H10A H 1.1590 0.4032 0.4131
C14A C 1.15556(19) 0.40063(8) 0.32786(10)
H11A H 1.1978 0.3736 0.3239
C15A C 1.11605(18) 0.42301(7) 0.28124(10)
H12A H 1.1312 0.4106 0.2452
Mn1 Mn 0.7500 0.2500 0.13488(3)
Mn2 Mn 0.7500 0.2500 -0.18086(2)
N4 N 0.81859(18) 0.20484(8) 0.06849(10)
C16 C 0.84927(19) 0.19357(9) 0.02457(11)
N5 N 0.88924(15) 0.17943(7) -0.02290(9)
C17 C 0.85143(18) 0.19614(8) -0.06938(11)
N6 N 0.82451(17) 0.20835(8) -0.11360(10)
N7 N 0.60104(18) 0.20682(7) 0.13486(12)
C18 C 0.5322(2) 0.19158(9) 0.16163(12)
N8 N 0.4584(2) 0.16946(8) 0.19004(12)
C19 C 0.3932(2) 0.19148(8) 0.22309(12)
N9 N 0.33309(17) 0.20714(7) 0.25407(10)
N10 N 0.83042(18) 0.20866(7) 0.19987(10)
C20 C 0.89579(19) 0.19244(8) 0.22835(12)
N11 N 0.96392(19) 0.16849(8) 0.25737(11)
C21 C 1.0416(2) 0.18931(9) 0.28410(12)
N12 N 1.1118(2) 0.20381(9) 0.30972(11)
Mn2E Mn 0.2500 0.2500 0.31914(2)
Mn2E_2 Mn 1.2500 0.2500 0.31914(2)
N4M N 0.68141(18) 0.29516(8) 0.06849(10)
C16M C 0.65073(19) 0.30643(9) 0.02457(11)
N5M N 0.61076(15) 0.32057(7) -0.02290(9)
C17M C 0.64857(18) 0.30386(8) -0.06938(11)
N6M N 0.67549(17) 0.29165(8) -0.11360(10)
N7M N 0.89896(18) 0.29318(7) 0.13486(12)
C18M C 0.9678(2) 0.30842(9) 0.16163(12)
N8M N 1.0416(2) 0.33054(8) 0.19004(12)
C19M C 1.1068(2) 0.30852(8) 0.22309(12)
N9M N 1.16691(17) 0.29286(7) 0.25407(10)
N9E N 0.66691(17) 0.29286(7) -0.24593(10)
N9H N 0.83309(17) 0.20714(7) -0.24593(10)
N10M N 0.66958(18) 0.29134(7) 0.19987(10)
C20M C 0.60421(19) 0.30756(8) 0.22835(12)
N11M N 0.53608(19) 0.33151(8) 0.25737(11)
C21M C 0.4584(2) 0.31069(9) 0.28410(12)
N12M N 0.3882(2) 0.29619(9) 0.30972(11)
N12E N 0.8882(2) 0.29619(9) -0.19028(11)
N12H N 0.6118(2) 0.20381(9) -0.19028(11)
loop_
_geom_bond_atom_site_label_1
_geom_bond_atom_site_label_2
_geom_bond_site_symmetry_1
_geom_bond_site_symmetry_2
Ru1 N1 1_555 1_555
N1 C1 1_555 1_555
C1 C2 1_555 1_555
C2 H1 1_555 1_555
C3 C2 1_555 1_555
H2 C3 1_555 1_555
C4 C3 1_555 1_555
H3 C4 1_555 1_555
C5 N1 1_555 1_555
H4 C5 1_555 1_555
N2 Ru1 1_555 1_555
C6 C1 1_555 1_555
C7 C6 1_555 1_555
H5 C7 1_555 1_555
C8 C7 1_555 1_555
H6 C8 1_555 1_555
C9 C8 1_555 1_555
H7 C9 1_555 1_555
C10 N2 1_555 1_555
H8 C10 1_555 1_555
N3 Ru1 1_555 1_555
C11 N3 1_555 1_555
C12 C11 1_555 1_555
H9 C12 1_555 1_555
C13 C12 1_555 1_555
H10 C13 1_555 1_555
C14 C13 1_555 1_555
H11 C14 1_555 1_555
C15 N3 1_555 1_555
H12 C15 1_555 1_555
Mn1 N4 1_555 1_555
Mn2 N6 1_555 1_555
N4 C16 1_555 1_555
C16 N5 1_555 1_555
N5 C17 1_555 1_555
C17 N6 1_555 1_555
N7 Mn1 1_555 1_555
C18 N7 1_555 1_555
N8 C18 1_555 1_555
C19 N8 1_555 1_555
N9 C19 1_555 1_555
N10 Mn1 1_555 1_555
C20 N10 1_555 1_555
N11 C20 1_555 1_555
C21 N11 1_555 1_555
N12 C21 1_555 1_555
N1A Ru1 1_555 1_555
C1A N1A 1_555 1_555
C2A C1A 1_555 1_555
H1A C2A 1_555 1_555
C3A C2A 1_555 1_555
H2A C3A 1_555 1_555
C4A C3A 1_555 1_555
H3A C4A 1_555 1_555
C5A N1A 1_555 1_555
H4A C5A 1_555 1_555
N2A Ru1 1_555 1_555
C6A C1A 1_555 1_555
C7A C6A 1_555 1_555
H5A C7A 1_555 1_555
C8A C7A 1_555 1_555
H6A C8A 1_555 1_555
C9A C8A 1_555 1_555
H7A C9A 1_555 1_555
C10A N2A 1_555 1_555
H8A C10A 1_555 1_555
N3A Ru1 1_555 1_555
C11A C11 1_555 1_555
C12A C11A 1_555 1_555
H9A C12A 1_555 1_555
C13A C12A 1_555 1_555
H10A C13A 1_555 1_555
C14A C13A 1_555 1_555
H11A C14A 1_555 1_555
C15A N3A 1_555 1_555
H12A C15A 1_555 1_555
Mn2E N9 1_555 1_555
Mn2E_2 N12 1_555 1_555
N4M Mn1 1_555 1_555
C16M N4M 1_555 1_555
N5M C16M 1_555 1_555
C17M N5M 1_555 1_555
N6M Mn2 1_555 1_555
N7M Mn1 1_555 1_555
C18M N7M 1_555 1_555
N8M C18M 1_555 1_555
C19M N8M 1_555 1_555
N9M Mn2E_2 1_555 1_555
N9E Mn2 1_555 1_555
N9H Mn2 1_555 1_555
N10M Mn1 1_555 1_555
C20M N10M 1_555 1_555
N11M C20M 1_555 1_555
C21M N11M 1_555 1_555
N12M Mn2E 1_555 1_555
N12E Mn2 1_555 1_555
N12H Mn2 1_555 1_555
C4 C5 1_555 1_555
N2 C6 1_555 1_555
C9 C10 1_555 1_555
C14 C15 1_555 1_555
C4A C5A 1_555 1_555
N2A C6A 1_555 1_555
C9A C10A 1_555 1_555
N3A C11A 1_555 1_555
C14A C15A 1_555 1_555
C17M N6M 1_555 1_555
C19M N9M 1_555 1_555
C21M N12M 1_555 1_555

#END
