
#######################################################################
#
#                 Cambridge Crystallographic Data Centre
#                                CCDC 
#
#######################################################################
#
# If this CIF has been generated from an entry in the Cambridge 
# Structural Database, then it will include bibliographic, chemical, 
# crystal, experimental, refinement or atomic coordinate data resulting 
# from the CCDC's data processing and validation procedures.
#
#######################################################################

data_OSANIG
_symmetry_cell_setting           orthorhombic
_symmetry_space_group_name_H-M   'F d d 2'
_symmetry_Int_Tables_number      43
_space_group_name_Hall           'F 2 -2d'
loop_
_symmetry_equiv_pos_site_id
_symmetry_equiv_pos_as_xyz
1 x,y,z
2 1/4-x,1/4+y,1/4+z
3 1/4+x,1/4-y,1/4+z
4 1/2-x,-y,1/2+z
5 x,1/2+y,1/2+z
6 1/4-x,3/4+y,3/4+z
7 1/4+x,3/4-y,3/4+z
8 1/2-x,1/2-y,z
9 1/2+x,y,1/2+z
10 3/4-x,1/4+y,3/4+z
11 3/4+x,1/4-y,3/4+z
12 -x,-y,z
13 1/2+x,1/2+y,z
14 3/4-x,3/4+y,1/4+z
15 3/4+x,3/4-y,1/4+z
16 -x,1/2-y,1/2+z
_cell_length_a                   29.5088(11)
_cell_length_b                   12.3701(5)
_cell_length_c                   23.6337(11)
_cell_angle_alpha                90
_cell_angle_beta                 90
_cell_angle_gamma                90
_cell_volume                     8626.93
loop_
_atom_site_label
_atom_site_type_symbol
_atom_site_fract_x
_atom_site_fract_y
_atom_site_fract_z
Ru1 Ru 1.0000 0.0000 0.33207(2)
N1 N 0.95686(7) -0.04922(15) 0.39563(9)
N2 N 0.95842(7) 0.13276(14) 0.33846(9)
N3 N 0.96228(7) -0.05737(17) 0.26542(9)
C1 C 0.95770(10) -0.1442(2) 0.42147(11)
C2 C 0.92999(11) -0.1697(2) 0.46665(13)
C3 C 0.89987(11) -0.0928(2) 0.48551(11)
C4 C 0.89810(9) 0.0061(2) 0.45904(11)
C5 C 0.92661(8) 0.02717(19) 0.41387(10)
C6 C 0.92746(8) 0.12884(19) 0.38193(10)
C7 C 0.90007(9) 0.2170(2) 0.39401(12)
C8 C 0.90476(10) 0.3114(2) 0.36240(13)
C9 C 0.93512(10) 0.3139(2) 0.31845(13)
C10 C 0.96115(9) 0.2229(2) 0.30724(12)
C11 C 0.92423(9) -0.1157(2) 0.26891(12)
C12 C 0.90168(9) -0.1546(2) 0.22166(12)
C13 C 0.91935(11) -0.1322(2) 0.16916(13)
C14 C 0.95825(10) -0.0716(2) 0.16436(11)
C15 C 0.97915(9) -0.0332(2) 0.21264(10)
H1 H 0.9784 -0.1973 0.4083
H2 H 0.9317 -0.2387 0.4842
H3 H 0.8804 -0.1079 0.5166
H4 H 0.8774 0.0597 0.4717
H5 H 0.8783 0.2131 0.4236
H6 H 0.8871 0.3734 0.3712
H7 H 0.9383 0.3771 0.2960
H8 H 0.9817 0.2246 0.2763
H9 H 0.9121 -0.1312 0.3053
H10 H 0.8747 -0.1958 0.2255
H11 H 0.9047 -0.1585 0.1361
H12 H 0.9706 -0.0562 0.1281
N1K N 1.04314(7) 0.04922(15) 0.39563(9)
N2K N 1.04158(7) -0.13276(14) 0.33846(9)
N3K N 1.03772(7) 0.05737(17) 0.26542(9)
C1K C 1.04230(10) 0.1442(2) 0.42147(11)
C2K C 1.07001(11) 0.1697(2) 0.46665(13)
C3K C 1.10013(11) 0.0928(2) 0.48551(11)
C4K C 1.10190(9) -0.0061(2) 0.45904(11)
C5K C 1.07339(8) -0.02717(19) 0.41387(10)
C6K C 1.07254(8) -0.12884(19) 0.38193(10)
C7K C 1.09993(9) -0.2170(2) 0.39401(12)
C8K C 1.09524(10) -0.3114(2) 0.36240(13)
C9K C 1.06488(10) -0.3139(2) 0.31845(13)
C10K C 1.03885(9) -0.2229(2) 0.30724(12)
C11K C 1.07577(9) 0.1157(2) 0.26891(12)
C12K C 1.09832(9) 0.1546(2) 0.22166(12)
C13K C 1.08065(11) 0.1322(2) 0.16916(13)
C14K C 1.04175(10) 0.0716(2) 0.16436(11)
C15K C 1.02085(9) 0.0332(2) 0.21264(10)
H1K H 1.0216 0.1973 0.4083
H2K H 1.0683 0.2387 0.4842
H3K H 1.1196 0.1079 0.5166
H4K H 1.1226 -0.0597 0.4717
H5K H 1.1217 -0.2131 0.4236
H6K H 1.1129 -0.3734 0.3712
H7K H 1.0617 -0.3771 0.2960
H8K H 1.0183 -0.2246 0.2763
H9K H 1.0879 0.1312 0.3053
H10K H 1.1253 0.1958 0.2255
H11K H 1.0953 0.1585 0.1361
H12K H 1.0294 0.0562 0.1281
Fe1 Fe 1.0000 0.5000 0.48053(3)
Fe2 Fe 1.0000 0.0000 0.66351(3)
N4 N 0.95805(11) 0.3610(2) 0.48855(13)
N5 N 0.92313(10) 0.2095(2) 0.53837(14)
N6 N 0.96004(9) 0.0785(2) 0.59986(11)
N7 N 1.04191(9) 0.4198(2) 0.54488(10)
N8 N 1.07700(11) 0.2947(3) 0.61035(16)
N9 N 1.04148(9) 0.1454(2) 0.66097(13)
N10 N 1.04064(10) 0.4303(2) 0.41362(11)
N11 N 1.06948(9) 0.3700(2) 0.32240(11)
N12 N 1.04214(10) 0.4324(2) 0.23038(11)
C16 C 0.94368(11) 0.2887(2) 0.51312(13)
C17 C 0.94580(10) 0.1418(2) 0.56995(12)
C18 C 1.05615(10) 0.3598(2) 0.57597(13)
C19 C 1.05572(11) 0.2172(2) 0.63629(13)
C20 C 1.05260(9) 0.4051(2) 0.36939(11)
C21 C 1.05417(10) 0.4057(2) 0.27432(11)
Fe2D Fe 1.0000 0.5000 0.16351(3)
Fe2_2 Fe 1.0000 1.0000 0.66351(3)
N4K N 1.04195(11) 0.6390(2) 0.48855(13)
N5K N 1.07687(10) 0.7905(2) 0.53837(14)
N6K N 1.03996(9) 0.9215(2) 0.59986(11)
N6K_2 N 1.03996(9) -0.0785(2) 0.59986(11)
N7K N 0.95809(9) 0.5802(2) 0.54488(10)
N8K N 0.92300(11) 0.7053(3) 0.61035(16)
N9K N 0.95852(9) 0.8546(2) 0.66097(13)
N9K_2 N 0.95852(9) -0.1454(2) 0.66097(13)
N10K N 0.95936(10) 0.5697(2) 0.41362(11)
N11K N 0.93052(9) 0.6300(2) 0.32240(11)
N12K N 0.95786(10) 0.5676(2) 0.23038(11)
N12D N 1.04214(10) -0.0676(2) 0.73038(11)
N12O N 0.95786(10) 0.0676(2) 0.73038(11)
C16K C 1.05632(11) 0.7113(2) 0.51312(13)
C17K C 1.05420(10) 0.8582(2) 0.56995(12)
C18K C 0.94385(10) 0.6402(2) 0.57597(13)
C19K C 0.94428(11) 0.7828(2) 0.63629(13)
C20K C 0.94740(9) 0.5949(2) 0.36939(11)
C21K C 0.94583(10) 0.5943(2) 0.27432(11)
loop_
_geom_bond_atom_site_label_1
_geom_bond_atom_site_label_2
_geom_bond_site_symmetry_1
_geom_bond_site_symmetry_2
Ru1 N1 1_555 1_555
Fe1 N4 1_555 1_555
Fe2 N6 1_555 1_555
N1 C1 1_555 1_555
N2 Ru1 1_555 1_555
N3 Ru1 1_555 1_555
N4 C16 1_555 1_555
N5 C16 1_555 1_555
N6 C17 1_555 1_555
N7 Fe1 1_555 1_555
N8 C18 1_555 1_555
N9 Fe2 1_555 1_555
N10 Fe1 1_555 1_555
N11 C20 1_555 1_555
N12 C21 1_555 1_555
C1 C2 1_555 1_555
C2 C3 1_555 1_555
C3 C4 1_555 1_555
C4 C5 1_555 1_555
C5 N1 1_555 1_555
C6 N2 1_555 1_555
C7 C6 1_555 1_555
C8 C7 1_555 1_555
C9 C8 1_555 1_555
C10 N2 1_555 1_555
C11 N3 1_555 1_555
C12 C11 1_555 1_555
C13 C12 1_555 1_555
C14 C13 1_555 1_555
C15 N3 1_555 1_555
C17 N5 1_555 1_555
C18 N7 1_555 1_555
C19 N8 1_555 1_555
C20 N10 1_555 1_555
C21 N11 1_555 1_555
H1 C1 1_555 1_555
H2 C2 1_555 1_555
H3 C3 1_555 1_555
H4 C4 1_555 1_555
H5 C7 1_555 1_555
H6 C8 1_555 1_555
H7 C9 1_555 1_555
H8 C10 1_555 1_555
H9 C11 1_555 1_555
H10 C12 1_555 1_555
H11 C13 1_555 1_555
H12 C14 1_555 1_555
Fe2D N12 1_555 1_555
Fe2_2 N6K 1_555 1_555
N1K Ru1 1_555 1_555
N2K Ru1 1_555 1_555
N3K Ru1 1_555 1_555
N4K Fe1 1_555 1_555
N5K C16K 1_555 1_555
N6K C17K 1_555 1_555
N6K_2 Fe2 1_555 1_555
N7K Fe1 1_555 1_555
N8K C18K 1_555 1_555
N9K Fe2_2 1_555 1_555
N9K_2 Fe2 1_555 1_555
N10K Fe1 1_555 1_555
N11K C20K 1_555 1_555
N12K Fe2D 1_555 1_555
N12D Fe2 1_555 1_555
N12O Fe2 1_555 1_555
C1K N1K 1_555 1_555
C2K C1K 1_555 1_555
C3K C2K 1_555 1_555
C4K C3K 1_555 1_555
C5K N1K 1_555 1_555
C6K N2K 1_555 1_555
C7K C6K 1_555 1_555
C8K C7K 1_555 1_555
C9K C8K 1_555 1_555
C10K N2K 1_555 1_555
C11K N3K 1_555 1_555
C12K C11K 1_555 1_555
C13K C12K 1_555 1_555
C14K C13K 1_555 1_555
C15K C15 1_555 1_555
C16K N4K 1_555 1_555
C17K N5K 1_555 1_555
C18K N7K 1_555 1_555
C19K N8K 1_555 1_555
C20K N10K 1_555 1_555
C21K N11K 1_555 1_555
H1K C1K 1_555 1_555
H2K C2K 1_555 1_555
H3K C3K 1_555 1_555
H4K C4K 1_555 1_555
H5K C7K 1_555 1_555
H6K C8K 1_555 1_555
H7K C9K 1_555 1_555
H8K C10K 1_555 1_555
H9K C11K 1_555 1_555
H10K C12K 1_555 1_555
H11K C13K 1_555 1_555
H12K C14K 1_555 1_555
N9 C19 1_555 1_555
C5 C6 1_555 1_555
C9 C10 1_555 1_555
C14 C15 1_555 1_555
N3K C15K 1_555 1_555
N9K C19K 1_555 1_555
N12K C21K 1_555 1_555
C4K C5K 1_555 1_555
C5K C6K 1_555 1_555
C9K C10K 1_555 1_555
C14K C15K 1_555 1_555

#END
