
#######################################################################
#
#                 Cambridge Crystallographic Data Centre
#                                CCDC 
#
#######################################################################
#
# If this CIF has been generated from an entry in the Cambridge 
# Structural Database, then it will include bibliographic, chemical, 
# crystal, experimental, refinement or atomic coordinate data resulting 
# from the CCDC's data processing and validation procedures.
#
#######################################################################

data_OSARUW
_symmetry_cell_setting           monoclinic
_symmetry_space_group_name_H-M   'P 21/n'
_symmetry_Int_Tables_number      14
_space_group_name_Hall           '-P 2yn'
loop_
_symmetry_equiv_pos_site_id
_symmetry_equiv_pos_as_xyz
1 x,y,z
2 1/2-x,1/2+y,1/2-z
3 -x,-y,-z
4 1/2+x,1/2-y,1/2+z
_cell_length_a                   9.505(1)
_cell_length_b                   13.797(2)
_cell_length_c                   16.3534(17)
_cell_angle_alpha                90
_cell_angle_beta                 97.151(5)
_cell_angle_gamma                90
_cell_volume                     2127.91
loop_
_atom_site_label
_atom_site_type_symbol
_atom_site_fract_x
_atom_site_fract_y
_atom_site_fract_z
O1 O 0.3708(8) 0.6880(6) 0.0857(5)
O2 O 0.4747(9) 0.6851(6) 0.2246(5)
O3 O 0.5593(8) 0.7936(6) 0.1309(5)
O4 O 0.3354(8) 0.8176(6) 0.1739(5)
Cl1 Cl 0.4353(3) 0.74612(18) 0.15402(15)
C20 C 0.321(3) 1.1470(18) 0.6357(18)
C21 C 0.360(3) 1.073(2) 0.5735(18)
O5 O 0.4926(16) 1.0326(11) 0.5965(11)
C22 C 0.531(3) 0.9550(17) 0.5504(15)
C23 C 0.441(4) 1.016(2) 0.5356(16)
C20B C 0.679(3) 0.8530(18) 0.3643(18)
C21B C 0.640(3) 0.927(2) 0.4265(18)
O5B O 0.5074(16) 0.9674(11) 0.4035(11)
C22B C 0.469(3) 1.0450(17) 0.4496(15)
C23B C 0.559(4) 0.984(2) 0.4644(16)
C1 C 0.4171(11) 0.1724(8) 0.2599(7)
H1 H 0.3385 0.2103 0.2714
C2 C 0.5043(12) 0.0329(8) 0.2099(7)
H2 H 0.4889 -0.0292 0.1853
C3 C 0.6414(13) 0.0637(10) 0.2308(9)
H3 H 0.7185 0.0238 0.2200
C4 C 0.6662(13) 0.1531(10) 0.2676(8)
H4 H 0.7602 0.1760 0.2823
C5 C 0.5502(11) 0.2088(8) 0.2826(6)
C6 C 0.5713(11) 0.3011(8) 0.3236(7)
C7 C 0.5914(11) 0.3763(8) 0.3587(7)
C8 C 0.6213(11) 0.4642(7) 0.4052(6)
C9 C 0.7485(12) 0.4733(8) 0.4574(6)
H5 H 0.8162 0.4223 0.4625
C10 C 0.7733(13) 0.5572(9) 0.5010(8)
H6 H 0.8597 0.5657 0.5362
C11 C 0.6712(14) 0.6308(9) 0.4936(7)
H7 H 0.6875 0.6894 0.5239
C12 C 0.5471(14) 0.6173(8) 0.4422(7)
C13 C 0.4350(14) 0.6886(8) 0.4322(7)
C14 C 0.3439(14) 0.7466(8) 0.4256(7)
C15 C 0.2318(13) 0.8180(8) 0.4093(7)
C16 C 0.1225(16) 0.8275(9) 0.4561(8)
H8 H 0.1158 0.7859 0.5017
C17 C 0.0224(16) 0.8987(10) 0.4355(9)
H9 H -0.0546 0.9068 0.4668
C18 C 0.0354(14) 0.9584(8) 0.3686(7)
H10 H -0.0345 1.0068 0.3544
C19 C 0.2390(13) 0.8809(8) 0.3436(6)
H11 H 0.3157 0.8743 0.3119
N1 N 0.3905(9) 0.0865(7) 0.2226(6)
N2 N 0.5181(11) 0.5345(6) 0.3970(5)
N3 N 0.1434(10) 0.9502(7) 0.3231(6)
Ag1 Ag 0.16409(8) 0.03310(6) 0.20204(5)
C1A C 0.0829(11) -0.3276(8) 0.2401(7)
H1A H 0.1615 -0.2897 0.2286
C2A C -0.0043(12) -0.4671(8) 0.2901(7)
H2A H 0.0111 -0.5292 0.3147
C3A C -0.1414(13) -0.4363(10) 0.2692(9)
H3A H -0.2185 -0.4762 0.2800
C4A C -0.1662(13) -0.3469(10) 0.2324(8)
H4A H -0.2602 -0.3240 0.2177
C5A C -0.0502(11) -0.2912(8) 0.2174(6)
C6A C -0.0713(11) -0.1989(8) 0.1764(7)
C7A C -0.0914(11) -0.1237(8) 0.1413(7)
C8A C -0.1213(11) -0.0358(7) 0.0948(6)
C9A C -0.2485(12) -0.0267(8) 0.0426(6)
H5A H -0.3162 -0.0777 0.0375
C10A C -0.2733(13) 0.0572(9) -0.0010(8)
H6A H -0.3597 0.0657 -0.0362
C11A C -0.1712(14) 0.1308(9) 0.0064(7)
H7A H -0.1875 0.1894 -0.0239
C12A C -0.0471(14) 0.1173(8) 0.0578(7)
C13A C 0.0650(14) 0.1886(8) 0.0678(7)
C14A C 0.1561(14) 0.2466(8) 0.0744(7)
C15A C 0.2682(13) 0.3180(8) 0.0907(7)
C16A C 0.3775(16) 0.3275(9) 0.0439(8)
H8A H 0.3842 0.2859 -0.0017
C17A C 0.4776(16) 0.3987(10) 0.0645(9)
H9A H 0.5546 0.4068 0.0332
C18A C 0.4646(14) 0.4584(8) 0.1314(7)
H10A H 0.5345 0.5068 0.1456
C19A C 0.2610(13) 0.3809(8) 0.1564(6)
H11A H 0.1843 0.3743 0.1881
N1A N 0.1095(9) -0.4135(7) 0.2774(6)
N2A N -0.0181(11) 0.0345(6) 0.1030(5)
N2_2 N 0.5181(11) -0.4655(6) 0.3970(5)
N3A N 0.3566(10) 0.4502(7) 0.1769(6)
N3_2 N 0.1434(10) -0.0498(7) 0.3231(6)
N3A_2 N 0.3566(10) -0.5498(7) 0.1769(6)
Ag1A Ag 0.33591(8) -0.46690(6) 0.29796(5)
Ag1A_2 Ag 0.33591(8) 0.53310(6) 0.29796(5)
Ag1_2 Ag 0.16409(8) 1.03310(6) 0.20204(5)
H12? H 0.2284 1.1754 0.6161
H13? H 0.3164 1.1149 0.6888
H14? H 0.3929 1.1982 0.6425
H15? H 0.3593 1.1052 0.5192
H16? H 0.2878 1.0212 0.5675
H17? H 0.6178 0.9248 0.5794
H18? H 0.4546 0.9059 0.5463
H19? H 0.5857 0.9260 0.4349
H20? H 0.4724 1.0118 0.4347
H21? H 0.6355 1.0312 0.4680
loop_
_geom_bond_atom_site_label_1
_geom_bond_atom_site_label_2
_geom_bond_site_symmetry_1
_geom_bond_site_symmetry_2
C1 H1 1_555 1_555
C2 H2 1_555 1_555
C3 C2 1_555 1_555
H3 C3 1_555 1_555
C4 C3 1_555 1_555
H4 C4 1_555 1_555
C5 C1 1_555 1_555
C6 C5 1_555 1_555
C7 C6 1_555 1_555
C8 C7 1_555 1_555
C9 C8 1_555 1_555
H5 C9 1_555 1_555
C10 C9 1_555 1_555
H6 C10 1_555 1_555
C11 C10 1_555 1_555
H7 C11 1_555 1_555
C12 C11 1_555 1_555
C13 C12 1_555 1_555
C14 C13 1_555 1_555
C15 C14 1_555 1_555
C16 C15 1_555 1_555
H8 C16 1_555 1_555
C17 C16 1_555 1_555
H9 C17 1_555 1_555
C18 C17 1_555 1_555
H10 C18 1_555 1_555
C19 C15 1_555 1_555
H11 C19 1_555 1_555
N1 C1 1_555 1_555
N2 C8 1_555 1_555
N3 C18 1_555 1_555
Ag1 N1 1_555 1_555
O1 Cl1 1_555 1_555
O2 Cl1 1_555 1_555
O3 Cl1 1_555 1_555
O4 Cl1 1_555 1_555
C20 C21 1_555 1_555
C21 O5 1_555 1_555
O5 C22 1_555 1_555
C22 C23 1_555 1_555
C23 C21 1_555 1_555
C1A H1A 1_555 1_555
C2A H2A 1_555 1_555
C3A C2A 1_555 1_555
H3A C3A 1_555 1_555
C4A C3A 1_555 1_555
H4A C4A 1_555 1_555
C5A C1A 1_555 1_555
C6A C5A 1_555 1_555
C7A C6A 1_555 1_555
C8A C7A 1_555 1_555
C9A C8A 1_555 1_555
H5A C9A 1_555 1_555
C10A C9A 1_555 1_555
H6A C10A 1_555 1_555
C11A C10A 1_555 1_555
H7A C11A 1_555 1_555
C12A C11A 1_555 1_555
C13A C12A 1_555 1_555
C14A C13A 1_555 1_555
C15A C14A 1_555 1_555
C16A C15A 1_555 1_555
H8A C16A 1_555 1_555
C17A C16A 1_555 1_555
H9A C17A 1_555 1_555
C18A C17A 1_555 1_555
H10A C18A 1_555 1_555
C19A C15A 1_555 1_555
H11A C19A 1_555 1_555
N1A C1A 1_555 1_555
N2A Ag1 1_555 1_555
N2_2 Ag1A 1_555 1_555
N3A C18A 1_555 1_555
N3_2 Ag1 1_555 1_555
N3A_2 Ag1A 1_555 1_555
Ag1A N1A 1_555 1_555
Ag1A_2 N2 1_555 1_555
Ag1_2 N3 1_555 1_555
C20B C21B 1_555 1_555
C21B O5B 1_555 1_555
O5B C22B 1_555 1_555
C22B C23 1_555 1_555
C23B C22 1_555 1_555
C2 N1 1_555 1_555
C4 C5 1_555 1_555
C12 N2 1_555 1_555
C19 N3 1_555 1_555
O5 C23 1_555 1_555
C2A N1A 1_555 1_555
C4A C5A 1_555 1_555
C8A N2A 1_555 1_555
C12A N2A 1_555 1_555
C19A N3A 1_555 1_555
N3A Ag1A_2 1_555 1_555
C21B C23B 1_555 1_555
O5B C23B 1_555 1_555
C22B C23B 1_555 1_555

#END
