
#######################################################################
#
#                 Cambridge Crystallographic Data Centre
#                                CCDC 
#
#######################################################################
#
# If this CIF has been generated from an entry in the Cambridge 
# Structural Database, then it will include bibliographic, chemical, 
# crystal, experimental, refinement or atomic coordinate data resulting 
# from the CCDC's data processing and validation procedures.
#
#######################################################################

data_OSAROQ
_symmetry_cell_setting           triclinic
_symmetry_space_group_name_H-M   'P -1'
_symmetry_Int_Tables_number      2
_space_group_name_Hall           '-P 1'
loop_
_symmetry_equiv_pos_site_id
_symmetry_equiv_pos_as_xyz
1 x,y,z
2 -x,-y,-z
_cell_length_a                   7.623(5)
_cell_length_b                   11.505(6)
_cell_length_c                   12.375(9)
_cell_angle_alpha                92.43(2)
_cell_angle_beta                 98.992(11)
_cell_angle_gamma                92.46(3)
_cell_volume                     1069.67
loop_
_atom_site_label
_atom_site_type_symbol
_atom_site_fract_x
_atom_site_fract_y
_atom_site_fract_z
C1 C 0.4614(12) -0.7104(8) 0.7421(9)
H1 H 0.5212 -0.7681 0.7068
C2 C 0.3640(15) -0.6344(10) 0.6786(10)
H2 H 0.3589 -0.6383 0.6014
C3 C 0.2720(14) -0.5509(9) 0.7293(10)
H3 H 0.1995 -0.4990 0.6868
C4 C 0.3915(12) -0.6270(8) 0.9001(8)
H4 H 0.4011 -0.6249 0.9776
C5 C 0.2883(12) -0.5447(7) 0.8431(8)
C6 C 0.2033(13) -0.4623(8) 0.9013(8)
C7 C 0.1308(12) -0.3884(8) 0.9493(9)
C8 C 0.0476(12) -0.3064(8) 1.0027(8)
C9 C -0.0221(12) -0.2308(8) 1.0468(8)
C10 C -0.1056(11) -0.1382(8) 1.0917(8)
C11 C -0.1953(11) -0.0578(8) 1.0232(9)
H5 H -0.2009 -0.0700 0.9463
C12 C -0.1009(13) -0.1180(9) 1.2057(9)
H6 H -0.0422 -0.1696 1.2556
C13 C -0.1825(13) -0.0222(9) 1.2445(9)
H7 H -0.1812 -0.0080 1.3208
C14 C -0.2656(12) 0.0519(8) 1.1695(8)
H8 H -0.3196 0.1179 1.1962
N1 N 0.4771(10) -0.7080(6) 0.8518(7)
N2 N -0.2732(9) 0.0347(6) 1.0601(7)
Ag1 Ag 0.61144(10) -0.84325(6) 0.94338(7)
C17 C 0.6939(14) -1.0199(9) 0.7027(10)
C18 C 0.7378(18) -1.0922(10) 0.6107(11)
H12 H 0.8457 -1.1335 0.6351
H13 H 0.7579 -1.0425 0.5510
H14 H 0.6391 -1.1490 0.5847
N4 N 0.6631(12) -0.9678(7) 0.7732(8)
N2_2 N 0.7268(9) -0.9653(6) 1.0601(7)
Ag1_2 Ag -0.38856(10) 0.15675(6) 0.94338(7)
F1 F 0.3421(10) -0.3942(7) 0.5227(5)
F2 F 0.1375(9) -0.3222(6) 0.3481(5)
F3 F 0.0298(13) -0.1563(7) 0.4668(6)
F4 F 0.2249(19) -0.2330(10) 0.6400(6)
F5 F -0.0049(12) -0.3714(9) 0.5253(10)
F6 F 0.3732(13) -0.1836(8) 0.4621(8)
Sb1 Sb 0.18195(10) -0.27673(5) 0.49569(5)
C15 C -0.3505(14) -0.3359(9) 0.7846(9)
C16 C -0.2677(16) -0.4139(12) 0.7167(10)
H9 H -0.2637 -0.4909 0.7476
H10 H -0.1465 -0.3839 0.7136
H11 H -0.3365 -0.4201 0.6427
N3 N -0.4166(13) -0.2742(8) 0.8402(9)
loop_
_geom_bond_atom_site_label_1
_geom_bond_atom_site_label_2
_geom_bond_site_symmetry_1
_geom_bond_site_symmetry_2
C1 H1 1_555 1_555
C2 C1 1_555 1_555
H2 C2 1_555 1_555
C3 C2 1_555 1_555
H3 C3 1_555 1_555
C4 H4 1_555 1_555
C5 C3 1_555 1_555
C6 C5 1_555 1_555
C7 C6 1_555 1_555
C8 C7 1_555 1_555
C9 C8 1_555 1_555
C10 C9 1_555 1_555
C11 C10 1_555 1_555
H5 C11 1_555 1_555
C12 C10 1_555 1_555
H6 C12 1_555 1_555
C13 C12 1_555 1_555
H7 C13 1_555 1_555
C14 C13 1_555 1_555
H8 C14 1_555 1_555
N1 C1 1_555 1_555
N2 C11 1_555 1_555
Ag1 N1 1_555 1_555
F1 Sb1 1_555 1_555
F2 Sb1 1_555 1_555
F3 Sb1 1_555 1_555
F4 Sb1 1_555 1_555
F5 Sb1 1_555 1_555
F6 Sb1 1_555 1_555
C15 C16 1_555 1_555
C16 H9 1_555 1_555
H10 C16 1_555 1_555
H11 C16 1_555 1_555
N3 C15 1_555 1_555
C17 C18 1_555 1_555
C18 H12 1_555 1_555
H13 C18 1_555 1_555
H14 C18 1_555 1_555
N4 Ag1 1_555 1_555
N2_2 Ag1 1_555 1_555
Ag1_2 N2 1_555 1_555
C4 C5 1_555 1_555
C4 N1 1_555 1_555
C14 N2 1_555 1_555
C17 N4 1_555 1_555

#END
