
#######################################################################
#
#                 Cambridge Crystallographic Data Centre
#                                CCDC 
#
#######################################################################
#
# If this CIF has been generated from an entry in the Cambridge 
# Structural Database, then it will include bibliographic, chemical, 
# crystal, experimental, refinement or atomic coordinate data resulting 
# from the CCDC's data processing and validation procedures.
#
#######################################################################

data_OSATUY
_symmetry_cell_setting           orthorhombic
_symmetry_space_group_name_H-M   'P 21 21 21'
_symmetry_Int_Tables_number      19
_space_group_name_Hall           'P 2ac 2ab'
loop_
_symmetry_equiv_pos_site_id
_symmetry_equiv_pos_as_xyz
1 x,y,z
2 1/2-x,-y,1/2+z
3 -x,1/2+y,1/2-z
4 1/2+x,1/2-y,-z
_cell_length_a                   10.1155(9)
_cell_length_b                   21.3388(18)
_cell_length_c                   27.370(2)
_cell_angle_alpha                90
_cell_angle_beta                 90
_cell_angle_gamma                90
_cell_volume                     5907.89
loop_
_atom_site_label
_atom_site_type_symbol
_atom_site_fract_x
_atom_site_fract_y
_atom_site_fract_z
Cd1 Cd -0.20764(2) 0.198770(9) -0.179210(7)
Cd2 Cd 0.29069(2) 0.293260(10) -0.308350(8)
O1 O -0.1081(2) 0.18970(10) -0.25603(8)
O2 O -0.0656(3) 0.11019(11) -0.20685(9)
O3 O 0.1776(2) 0.20554(10) -0.27892(7)
O4 O 0.1645(2) 0.21588(11) -0.35903(8)
O5 O 0.6482(3) 0.27155(11) -0.12847(9)
O6 O 0.6829(2) 0.28765(10) -0.20754(8)
O7 O 0.3951(2) 0.30043(10) -0.23126(8)
O8 O 0.4201(3) 0.38270(11) -0.27898(9)
N1 N -0.0293(3) 0.25348(13) -0.14686(10)
N2 N 0.4755(3) 0.24298(13) -0.34127(10)
N3 N 0.1024(3) 0.35631(12) -0.29664(11)
N4 N -0.6105(3) 0.63437(11) -0.30398(10)
N5 N 0.1913(3) 0.63833(12) -0.39581(10)
N6 N 0.7278(5) 0.40158(19) -0.50561(15)
N7 N 0.3087(3) 0.35247(13) -0.38440(10)
N8 N 0.2963(7) 0.0684(2) -0.05110(16)
C1 C -0.0568(4) 0.03757(15) -0.29551(13)
H1 H -0.1163 0.0223 -0.2725
C2 C -0.0182(4) -0.00099(17) -0.33393(15)
C3 C 0.0731(4) 0.02210(18) -0.36722(15)
H2 H 0.1026 -0.0032 -0.3926
C4 C 0.1207(4) 0.08317(17) -0.36266(13)
H3 H 0.1799 0.0983 -0.3858
C5 C 0.0821(3) 0.12196(14) -0.32447(12)
C6 C -0.0089(3) 0.09852(15) -0.29045(12)
C7 C -0.0621(3) 0.13559(14) -0.24797(12)
C8 C 0.1440(3) 0.18612(14) -0.32065(12)
C9 C -0.0673(6) -0.0675(2) -0.33810(19)
H4 H -0.0303 -0.0866 -0.3667
H5 H -0.1620 -0.0674 -0.3405
H6 H -0.0411 -0.0907 -0.3097
C10 C 0.0901(3) 0.25276(15) -0.16835(12)
H7 H 0.0966 0.2384 -0.2004
C11 C 0.2031(4) 0.27231(15) -0.14497(12)
H8 H 0.2835 0.2715 -0.1614
C12 C 0.1980(4) 0.29316(15) -0.09728(11)
C13 C 0.0738(4) 0.29607(19) -0.07573(12)
H9 H 0.0647 0.3115 -0.0441
C14 C -0.0357(4) 0.27606(16) -0.10110(13)
H10 H -0.1178 0.2783 -0.0859
C15 C 0.3236(4) 0.3083(2) -0.06924(15)
H11 H 0.3216 0.3518 -0.0590
H12 H 0.3994 0.3026 -0.0905
C16 C 0.3392(4) 0.2658(2) -0.02377(15)
H13 H 0.4257 0.2731 -0.0096
H14 H 0.2736 0.2780 0.0003
C17 C 0.3562(6) 0.1062(3) -0.08241(19)
H15 H 0.3901 0.0889 -0.1110
C18 C 0.3711(5) 0.1690(2) -0.07527(16)
H16 H 0.4135 0.1930 -0.0989
C19 C 0.3246(4) 0.1971(2) -0.03397(14)
C20 C 0.6384(3) 0.30414(15) -0.16630(12)
C21 C 0.5781(3) 0.36886(15) -0.16241(12)
C22 C 0.6183(4) 0.40686(16) -0.12385(13)
H17 H 0.6771 0.3911 -0.1008
C23 C 0.5724(4) 0.46784(17) -0.11906(14)
H18 H 0.6019 0.4925 -0.0933
C24 C 0.4836(4) 0.49209(17) -0.15216(15)
C25 C 0.4413(4) 0.45388(15) -0.19046(14)
H19 H 0.3801 0.4695 -0.2127
C26 C 0.4879(3) 0.39304(14) -0.19635(12)
C27 C 0.4330(3) 0.35557(15) -0.23831(12)
C28 C 0.4336(6) 0.5587(2) -0.14801(19)
H20 H 0.3723 0.5670 -0.1740
H21 H 0.5068 0.5872 -0.1503
H22 H 0.3901 0.5642 -0.1171
C29 C 0.5940(3) 0.24185(15) -0.31938(13)
H23 H 0.5994 0.2535 -0.2867
C30 C 0.7084(4) 0.22416(15) -0.34326(12)
H24 H 0.7885 0.2232 -0.3266
C31 C 0.7034(4) 0.20788(14) -0.39202(11)
C32 C 0.5801(3) 0.20769(18) -0.41460(13)
H25 H 0.5716 0.1960 -0.4472
C33 C 0.4708(4) 0.22518(16) -0.38781(13)
H26 H 0.3889 0.2245 -0.4032
C34 C 0.8290(4) 0.19243(19) -0.41944(15)
H27 H 0.8068 0.1751 -0.4512
H28 H 0.8786 0.1611 -0.4015
C35 C 0.9132(4) 0.2505(2) -0.42611(16)
H29 H 0.9390 0.2658 -0.3941
H30 H 0.9933 0.2388 -0.4433
C36 C 0.7316(6) 0.3423(2) -0.52241(17)
H31 H 0.6927 0.3340 -0.5525
C37 C 0.7888(5) 0.2937(2) -0.49814(13)
H32 H 0.7881 0.2538 -0.5118
C38 C 0.8471(4) 0.3034(2) -0.45371(14)
C39 C 0.1061(4) 0.41755(15) -0.30841(14)
H33 H 0.1878 0.4355 -0.3152
C40 C -0.0030(4) 0.45472(16) -0.31095(16)
H34 H 0.0055 0.4970 -0.3186
C41 C -0.1278(4) 0.42911(18) -0.30193(16)
C42 C -0.1311(4) 0.36745(17) -0.28678(15)
H35 H -0.2109 0.3492 -0.2778
C43 C -0.0155(4) 0.33289(16) -0.28505(12)
H36 H -0.0204 0.2912 -0.2753
C44 C -0.2534(4) 0.4671(2) -0.3096(2)
H37 H -0.2470 0.4890 -0.3406
H38 H -0.3279 0.4386 -0.3116
C45 C -0.2786(4) 0.51270(19) -0.27118(16)
H39 H -0.2001 0.5380 -0.2663
H40 H -0.2969 0.4907 -0.2409
C46 C -0.4934(3) 0.65751(15) -0.29062(12)
H41 H -0.4845 0.7007 -0.2878
C47 C -0.3847(4) 0.62050(16) -0.28075(14)
H42 H -0.3045 0.6389 -0.2724
C48 C -0.3958(4) 0.55573(17) -0.28340(15)
C49 C -0.5175(4) 0.53189(16) -0.29814(15)
H43 H -0.5290 0.4889 -0.3016
C50 C -0.6204(3) 0.57174(14) -0.30751(13)
H44 H -0.7011 0.5546 -0.3168
C51 C 0.8420(4) 0.3634(2) -0.43531(19)
H45 H 0.8772 0.3720 -0.4046
C52 C 0.7843(6) 0.4112(2) -0.46250(19)
H46 H 0.7854 0.4517 -0.4499
C53 C 0.2582(5) 0.1588(3) -0.00092(18)
H47 H 0.2222 0.1755 0.0275
C54 C 0.2467(8) 0.0957(3) -0.0109(2)
H48 H 0.2020 0.0707 0.0115
C55 C 0.2966(5) 0.63490(18) -0.42446(12)
H49 H 0.3686 0.6605 -0.4175
C56 C 0.3045(6) 0.5953(2) -0.46398(14)
H50 H 0.3806 0.5949 -0.4831
C57 C 0.2015(7) 0.55636(17) -0.47545(14)
C58 C 0.0905(6) 0.5603(2) -0.44605(16)
H51 H 0.0169 0.5356 -0.4526
C59 C 0.0893(4) 0.60141(19) -0.40675(15)
H52 H 0.0142 0.6032 -0.3872
C60 C 0.2092(8) 0.51132(19) -0.51822(15)
H53 H 0.2164 0.5352 -0.5483
H54 H 0.1281 0.4871 -0.5197
C61 C 0.3265(7) 0.4665(2) -0.51458(15)
H55 H 0.3274 0.4395 -0.5431
H56 H 0.4078 0.4906 -0.5146
C62 C 0.2109(5) 0.35299(17) -0.41654(13)
H57 H 0.1372 0.3281 -0.4105
C63 C 0.2127(6) 0.3890(2) -0.45890(13)
H58 H 0.1414 0.3881 -0.4803
C64 C 0.3219(5) 0.42626(18) -0.46888(15)
C65 C 0.4224(5) 0.4258(2) -0.43591(18)
H59 H 0.4970 0.4504 -0.4410
C66 C 0.4132(4) 0.38850(19) -0.39468(15)
H60 H 0.4837 0.3885 -0.3729
Cd1_2 Cd 0.79236(2) 0.198770(9) -0.179210(7)
Cd1B Cd -0.79236(2) 0.698770(9) -0.320790(7)
Cd1B_2 Cd 0.20764(2) 0.698770(9) -0.320790(7)
O5_2 O -0.3518(3) 0.27155(11) -0.12847(9)
O6_2 O -0.3171(2) 0.28765(10) -0.20754(8)
N4B N -0.3895(3) 0.13437(11) -0.19602(10)
N5B N -0.1913(3) 0.13833(12) -0.10419(10)
loop_
_geom_bond_atom_site_label_1
_geom_bond_atom_site_label_2
_geom_bond_site_symmetry_1
_geom_bond_site_symmetry_2
Cd1 O1 1_555 1_555
Cd2 O3 1_555 1_555
O1 C7 1_555 1_555
O2 Cd1 1_555 1_555
O3 C8 1_555 1_555
O4 Cd2 1_555 1_555
O5 C20 1_555 1_555
O6 C20 1_555 1_555
O7 Cd2 1_555 1_555
O8 Cd2 1_555 1_555
N1 Cd1 1_555 1_555
N2 Cd2 1_555 1_555
N3 Cd2 1_555 1_555
N4 C46 1_555 1_555
N5 C55 1_555 1_555
N6 C36 1_555 1_555
N7 Cd2 1_555 1_555
N8 C17 1_555 1_555
C1 H1 1_555 1_555
C2 C1 1_555 1_555
C3 C2 1_555 1_555
H2 C3 1_555 1_555
C4 C3 1_555 1_555
H3 C4 1_555 1_555
C5 C4 1_555 1_555
C6 C1 1_555 1_555
C7 O2 1_555 1_555
C8 O4 1_555 1_555
C9 C2 1_555 1_555
H4 C9 1_555 1_555
H5 C9 1_555 1_555
H6 C9 1_555 1_555
C10 N1 1_555 1_555
H7 C10 1_555 1_555
C11 C10 1_555 1_555
H8 C11 1_555 1_555
C12 C11 1_555 1_555
C13 C12 1_555 1_555
H9 C13 1_555 1_555
C14 N1 1_555 1_555
H10 C14 1_555 1_555
C15 C12 1_555 1_555
H11 C15 1_555 1_555
H12 C15 1_555 1_555
C16 C15 1_555 1_555
H13 C16 1_555 1_555
H14 C16 1_555 1_555
C17 H15 1_555 1_555
C18 C17 1_555 1_555
H16 C18 1_555 1_555
C19 C16 1_555 1_555
C20 C21 1_555 1_555
C21 C22 1_555 1_555
C22 H17 1_555 1_555
C23 C22 1_555 1_555
H18 C23 1_555 1_555
C24 C23 1_555 1_555
C25 C24 1_555 1_555
H19 C25 1_555 1_555
C26 C21 1_555 1_555
C27 O7 1_555 1_555
C28 C24 1_555 1_555
H20 C28 1_555 1_555
H21 C28 1_555 1_555
H22 C28 1_555 1_555
C29 N2 1_555 1_555
H23 C29 1_555 1_555
C30 C29 1_555 1_555
H24 C30 1_555 1_555
C31 C30 1_555 1_555
C32 C31 1_555 1_555
H25 C32 1_555 1_555
C33 N2 1_555 1_555
H26 C33 1_555 1_555
C34 C31 1_555 1_555
H27 C34 1_555 1_555
H28 C34 1_555 1_555
C35 C34 1_555 1_555
H29 C35 1_555 1_555
H30 C35 1_555 1_555
C36 H31 1_555 1_555
C37 C36 1_555 1_555
H32 C37 1_555 1_555
C38 C35 1_555 1_555
C39 N3 1_555 1_555
H33 C39 1_555 1_555
C40 C39 1_555 1_555
H34 C40 1_555 1_555
C41 C40 1_555 1_555
C42 C41 1_555 1_555
H35 C42 1_555 1_555
C43 N3 1_555 1_555
H36 C43 1_555 1_555
C44 C41 1_555 1_555
H37 C44 1_555 1_555
H38 C44 1_555 1_555
C45 C44 1_555 1_555
H39 C45 1_555 1_555
H40 C45 1_555 1_555
C46 H41 1_555 1_555
C47 C46 1_555 1_555
H42 C47 1_555 1_555
C48 C45 1_555 1_555
C49 C48 1_555 1_555
H43 C49 1_555 1_555
C50 N4 1_555 1_555
H44 C50 1_555 1_555
C51 C38 1_555 1_555
H45 C51 1_555 1_555
C52 N6 1_555 1_555
H46 C52 1_555 1_555
C53 C19 1_555 1_555
H47 C53 1_555 1_555
C54 N8 1_555 1_555
H48 C54 1_555 1_555
C55 H49 1_555 1_555
C56 C55 1_555 1_555
H50 C56 1_555 1_555
C57 C56 1_555 1_555
C58 C57 1_555 1_555
H51 C58 1_555 1_555
C59 N5 1_555 1_555
H52 C59 1_555 1_555
C60 C57 1_555 1_555
H53 C60 1_555 1_555
H54 C60 1_555 1_555
C61 C60 1_555 1_555
H55 C61 1_555 1_555
H56 C61 1_555 1_555
C62 N7 1_555 1_555
H57 C62 1_555 1_555
C63 C62 1_555 1_555
H58 C63 1_555 1_555
C64 C61 1_555 1_555
C65 C64 1_555 1_555
H59 C65 1_555 1_555
C66 N7 1_555 1_555
H60 C66 1_555 1_555
Cd1_2 O5 1_555 1_555
Cd1B N4 1_555 1_555
Cd1B_2 N5 1_555 1_555
O5_2 Cd1 1_555 1_555
O6_2 Cd1 1_555 1_555
N4B Cd1 1_555 1_555
N5B Cd1 1_555 1_555
O6 Cd1_2 1_555 1_555
O8 C27 1_555 1_555
C5 C6 1_555 1_555
C5 C8 1_555 1_555
C6 C7 1_555 1_555
C13 C14 1_555 1_555
C18 C19 1_555 1_555
C25 C26 1_555 1_555
C26 C27 1_555 1_555
C32 C33 1_555 1_555
C37 C38 1_555 1_555
C42 C43 1_555 1_555
C47 C48 1_555 1_555
C49 C50 1_555 1_555
C51 C52 1_555 1_555
C53 C54 1_555 1_555
C58 C59 1_555 1_555
C63 C64 1_555 1_555
C65 C66 1_555 1_555

#END
