
#######################################################################
#
#                 Cambridge Crystallographic Data Centre
#                                CCDC 
#
#######################################################################
#
# If this CIF has been generated from an entry in the Cambridge 
# Structural Database, then it will include bibliographic, chemical, 
# crystal, experimental, refinement or atomic coordinate data resulting 
# from the CCDC's data processing and validation procedures.
#
#######################################################################

data_OSAWIP
_symmetry_cell_setting           monoclinic
_symmetry_space_group_name_H-M   'C 2/c'
_symmetry_Int_Tables_number      15
_space_group_name_Hall           '-C 2yn'
loop_
_symmetry_equiv_pos_site_id
_symmetry_equiv_pos_as_xyz
1 x,y,z
2 -x,y,1/2-z
3 1/2+x,1/2+y,z
4 1/2-x,1/2+y,1/2-z
5 -x,-y,-z
6 x,-y,1/2+z
7 1/2-x,1/2-y,-z
8 1/2+x,1/2-y,1/2+z
_cell_length_a                   29.084(5)
_cell_length_b                   18.553(5)
_cell_length_c                   20.463(5)
_cell_angle_alpha                90
_cell_angle_beta                 107.775(5)
_cell_angle_gamma                90
_cell_volume                     10514.6
loop_
_atom_site_label
_atom_site_type_symbol
_atom_site_fract_x
_atom_site_fract_y
_atom_site_fract_z
Zn1 Zn 0.654470(15) 0.09720(2) 0.03626(2)
Zn2 Zn 1.118859(15) -0.24786(2) 0.67872(2)
O1 O 0.68241(9) -0.01016(15) 0.08391(13)
O2 O 0.71923(9) 0.09378(14) 0.11489(13)
O3 O 0.61404(9) 0.14335(16) 0.10869(13)
O4 O 0.58234(9) 0.07871(15) 0.01568(13)
O5 O 1.06365(10) -0.23701(16) 0.59494(14)
O6 O 0.17528(10) 0.27243(16) 0.12201(14)
O7 O 0.18370(9) 0.19916(14) 0.20953(13)
O8 O 1.07276(11) -0.12637(18) 0.63786(16)
N1 N 0.66410(11) 0.20101(17) 0.00051(15)
N2 N 0.67810(10) 0.07029(17) -0.04839(15)
N3 N 1.11463(10) -0.35630(16) 0.70399(14)
N4 N 1.09078(11) -0.23745(17) 0.76147(16)
N5 N 0.87026(12) -0.11310(19) 0.32683(19)
N6 N 0.88672(12) -0.0759(2) 0.37858(19)
N7 N 0.38999(11) 0.16092(17) 0.16002(16)
N8 N 0.39201(11) 0.14453(18) 0.10126(16)
C1 C 0.71713(13) 0.0255(2) 0.12158(19)
C2 C 0.75712(13) -0.0102(2) 0.17576(19)
C3 C 0.76184(14) -0.0851(2) 0.1772(2)
H2 H 0.7396 -0.1133 0.1451
C4 C 0.79997(14) -0.1174(2) 0.2271(2)
H3 H 0.8040 -0.1671 0.2272
C5 C 0.83187(14) -0.0753(2) 0.2765(2)
C6 C 0.82746(14) -0.0002(2) 0.2759(2)
H4 H 0.8490 0.0278 0.3091
C7 C 0.79027(13) 0.0316(2) 0.2248(2)
H5 H 0.7874 0.0815 0.2231
C8 C 0.92750(14) -0.1060(2) 0.4296(2)
C9 C 0.94776(14) -0.1738(2) 0.4271(2)
H6 H 0.9345 -0.2044 0.3901
C10 C 0.98774(14) -0.1948(2) 0.4802(2)
H7 H 1.0011 -0.2402 0.4794
C11 C 1.00811(13) -0.1484(2) 0.5349(2)
C12 C 0.98781(15) -0.0810(2) 0.5361(2)
H8 H 1.0015 -0.0494 0.5721
C13 C 0.94733(15) -0.0607(2) 0.4838(2)
H9 H 0.9334 -0.0159 0.4853
C14 C 1.05124(14) -0.1709(2) 0.5933(2)
C15 C 0.57859(14) 0.1133(2) 0.0674(2)
C16 C 0.52980(13) 0.1183(2) 0.07831(19)
C17 C 0.52573(14) 0.1513(2) 0.13743(19)
H10 H 0.5533 0.1678 0.1706
C18 C 0.48116(13) 0.1598(2) 0.14744(19)
H11 H 0.4786 0.1824 0.1867
C19 C 0.43999(13) 0.1340(2) 0.09766(19)
C20 C 0.44361(13) 0.1010(2) 0.0386(2)
H12 H 0.4160 0.0849 0.0053
C21 C 0.48864(14) 0.0923(2) 0.0293(2)
H13 H 0.4913 0.0692 -0.0097
C22 C 0.34182(12) 0.1779(2) 0.15911(18)
C23 C 0.33068(13) 0.1690(2) 0.22028(19)
H14 H 0.3543 0.1542 0.2599
C24 C 0.28412(13) 0.18249(19) 0.22157(19)
H15 H 0.2759 0.1737 0.2614
C25 C 0.24947(13) 0.2092(2) 0.16351(19)
C26 C 0.26205(13) 0.2212(2) 0.10379(19)
H16 H 0.2394 0.2407 0.0655
C27 C 0.30740(13) 0.2045(2) 0.1008(2)
H17 H 0.3150 0.2109 0.0602
C28 C 0.19948(13) 0.2281(2) 0.16470(19)
C29 C 0.65853(14) 0.2650(2) 0.0271(2)
H18 H 0.6455 0.2665 0.0634
C30 C 0.67158(14) 0.3302(2) 0.0024(2)
H19 H 0.6671 0.3739 0.0218
C31 C 0.69096(14) 0.3283(2) -0.0507(2)
H20 H 0.6998 0.3709 -0.0676
C32 C 0.71791(14) 0.2549(2) -0.1349(2)
H21 H 0.7266 0.2962 -0.1541
C33 C 0.72477(14) 0.1897(2) -0.15962(19)
H22 H 0.7379 0.1869 -0.1957
C34 C 0.72144(14) 0.0548(2) -0.15195(19)
H23 H 0.7357 0.0490 -0.1865
C35 C 0.70912(15) -0.0043(2) -0.1207(2)
H24 H 0.7153 -0.0505 -0.1335
C36 C 0.68714(14) 0.0056(2) -0.0691(2)
H25 H 0.6786 -0.0348 -0.0486
C37 C 0.68365(12) 0.1994(2) -0.05210(18)
C38 C 0.69745(13) 0.2617(2) -0.07983(19)
C39 C 0.71220(13) 0.1248(2) -0.13115(18)
C40 C 0.69099(12) 0.1293(2) -0.07852(18)
C41 C 1.12729(13) -0.4141(2) 0.67485(19)
H26 H 1.1426 -0.4076 0.6415
C42 C 1.11828(15) -0.4844(2) 0.6928(2)
H27 H 1.1279 -0.5236 0.6719
C43 C 1.09525(15) -0.4950(2) 0.7411(2)
H28 H 1.0886 -0.5415 0.7527
C44 C 1.05781(15) -0.4402(3) 0.8254(2)
H29 H 1.0501 -0.4854 0.8387
C45 C 1.04676(15) -0.3810(3) 0.8549(2)
H30 H 1.0318 -0.3859 0.8888
C46 C 1.04759(16) -0.2450(3) 0.8653(2)
H31 H 1.0333 -0.2466 0.9002
C47 C 1.05907(17) -0.1800(3) 0.8428(2)
H32 H 1.0525 -0.1374 0.8621
C48 C 1.08059(15) -0.1781(2) 0.7911(2)
H33 H 1.0883 -0.1335 0.7764
C49 C 1.09218(12) -0.3665(2) 0.75265(18)
C50 C 1.08157(14) -0.4345(2) 0.7735(2)
C51 C 1.05740(13) -0.3102(2) 0.83545(19)
C52 C 1.07991(12) -0.3029(2) 0.78379(18)
Zn2E Zn 0.118859(15) 0.24786(2) 0.17872(2)
O6E O 1.17528(10) -0.27243(16) 0.62201(14)
O7E O 1.18370(9) -0.19916(14) 0.70953(13)
O9 O 0.94265(16) 0.9977(3) 0.1712(2)
H1 H 0.9668 0.9783 0.1970
C53 C 0.9083(2) 0.9427(3) 0.1362(3)
H34 H 0.8988 0.9155 0.1711
C54 C 0.8641(2) 0.9771(4) 0.0896(3)
H35 H 0.8476 1.0019 0.1177
H36 H 0.8741 1.0134 0.0626
C55 C 0.8293(3) 0.9296(7) 0.0424(4)
H37 H 0.8060 0.9587 0.0087
H38 H 0.8119 0.9024 0.0679
C56 C 0.8537(4) 0.8756(7) 0.0042(5)
H39 H 0.8305 0.8395 -0.0196
H40 H 0.8648 0.9013 -0.0295
C57 C 0.8952(3) 0.8405(5) 0.0554(5)
H41 H 0.9114 0.8094 0.0312
H42 H 0.8829 0.8101 0.0848
C58 C 0.9323(3) 0.8915(4) 0.1004(4)
H43 H 0.9568 0.8641 0.1341
H44 H 0.9480 0.9183 0.0725
O10 O 0.95699(16) 1.0023(3) 0.3042(2)
loop_
_geom_bond_atom_site_label_1
_geom_bond_atom_site_label_2
_geom_bond_site_symmetry_1
_geom_bond_site_symmetry_2
Zn1 O1 1_555 1_555
Zn2 O5 1_555 1_555
O1 C1 1_555 1_555
O2 Zn1 1_555 1_555
O3 Zn1 1_555 1_555
O4 Zn1 1_555 1_555
O5 C14 1_555 1_555
O6 C28 1_555 1_555
O7 C28 1_555 1_555
O8 C14 1_555 1_555
O9 H1 1_555 1_555
N1 Zn1 1_555 1_555
N2 Zn1 1_555 1_555
N3 Zn2 1_555 1_555
N4 Zn2 1_555 1_555
N5 N6 1_555 1_555
N6 C8 1_555 1_555
N7 N8 1_555 1_555
N8 C19 1_555 1_555
C1 O2 1_555 1_555
C2 C1 1_555 1_555
C3 C2 1_555 1_555
H2 C3 1_555 1_555
C4 C3 1_555 1_555
H3 C4 1_555 1_555
C5 N5 1_555 1_555
C6 C5 1_555 1_555
H4 C6 1_555 1_555
C7 C2 1_555 1_555
H5 C7 1_555 1_555
C8 C9 1_555 1_555
C9 H6 1_555 1_555
C10 C9 1_555 1_555
H7 C10 1_555 1_555
C11 C10 1_555 1_555
C12 C11 1_555 1_555
H8 C12 1_555 1_555
C13 C8 1_555 1_555
H9 C13 1_555 1_555
C14 C11 1_555 1_555
C15 O3 1_555 1_555
C16 C15 1_555 1_555
C17 C16 1_555 1_555
H10 C17 1_555 1_555
C18 C17 1_555 1_555
H11 C18 1_555 1_555
C19 C18 1_555 1_555
C20 C19 1_555 1_555
H12 C20 1_555 1_555
C21 C16 1_555 1_555
H13 C21 1_555 1_555
C22 N7 1_555 1_555
C23 C22 1_555 1_555
H14 C23 1_555 1_555
C24 C23 1_555 1_555
H15 C24 1_555 1_555
C25 C24 1_555 1_555
C26 C25 1_555 1_555
H16 C26 1_555 1_555
C27 C22 1_555 1_555
H17 C27 1_555 1_555
C28 C25 1_555 1_555
C29 N1 1_555 1_555
H18 C29 1_555 1_555
C30 C29 1_555 1_555
H19 C30 1_555 1_555
C31 C30 1_555 1_555
H20 C31 1_555 1_555
C32 H21 1_555 1_555
C33 C32 1_555 1_555
H22 C33 1_555 1_555
C34 H23 1_555 1_555
C35 C34 1_555 1_555
H24 C35 1_555 1_555
C36 N2 1_555 1_555
H25 C36 1_555 1_555
C37 N1 1_555 1_555
C38 C31 1_555 1_555
C39 C33 1_555 1_555
C40 N2 1_555 1_555
C41 N3 1_555 1_555
H26 C41 1_555 1_555
C42 C41 1_555 1_555
H27 C42 1_555 1_555
C43 C42 1_555 1_555
H28 C43 1_555 1_555
C44 H29 1_555 1_555
C45 C44 1_555 1_555
H30 C45 1_555 1_555
C46 H31 1_555 1_555
C47 C46 1_555 1_555
H32 C47 1_555 1_555
C48 N4 1_555 1_555
H33 C48 1_555 1_555
C49 N3 1_555 1_555
C50 C43 1_555 1_555
C51 C45 1_555 1_555
C52 N4 1_555 1_555
C53 O9 1_555 1_555
H34 C53 1_555 1_555
C54 C53 1_555 1_555
H35 C54 1_555 1_555
H36 C54 1_555 1_555
C55 C54 1_555 1_555
H37 C55 1_555 1_555
H38 C55 1_555 1_555
C56 C55 1_555 1_555
H39 C56 1_555 1_555
H40 C56 1_555 1_555
C57 C56 1_555 1_555
H41 C57 1_555 1_555
H42 C57 1_555 1_555
C58 C53 1_555 1_555
H43 C58 1_555 1_555
H44 C58 1_555 1_555
Zn2E O6 1_555 1_555
O6E Zn2 1_555 1_555
O7E Zn2 1_555 1_555
O4 C15 1_555 1_555
O7 Zn2E 1_555 1_555
C4 C5 1_555 1_555
C6 C7 1_555 1_555
C12 C13 1_555 1_555
C20 C21 1_555 1_555
C26 C27 1_555 1_555
C32 C38 1_555 1_555
C34 C39 1_555 1_555
C35 C36 1_555 1_555
C37 C38 1_555 1_555
C37 C40 1_555 1_555
C39 C40 1_555 1_555
C44 C50 1_555 1_555
C46 C51 1_555 1_555
C47 C48 1_555 1_555
C49 C50 1_555 1_555
C49 C52 1_555 1_555
C51 C52 1_555 1_555
C57 C58 1_555 1_555

#END
