
#######################################################################
#
#                 Cambridge Crystallographic Data Centre
#                                CCDC 
#
#######################################################################
#
# If this CIF has been generated from an entry in the Cambridge 
# Structural Database, then it will include bibliographic, chemical, 
# crystal, experimental, refinement or atomic coordinate data resulting 
# from the CCDC's data processing and validation procedures.
#
#######################################################################

data_OSAWUB
_symmetry_cell_setting           monoclinic
_symmetry_space_group_name_H-M   'P 21/n'
_symmetry_Int_Tables_number      14
_space_group_name_Hall           '-P 2yn'
loop_
_symmetry_equiv_pos_site_id
_symmetry_equiv_pos_as_xyz
1 x,y,z
2 1/2-x,1/2+y,1/2-z
3 -x,-y,-z
4 1/2+x,1/2-y,1/2+z
_cell_length_a                   16.722(5)
_cell_length_b                   6.451(5)
_cell_length_c                   25.122(5)
_cell_angle_alpha                90
_cell_angle_beta                 104.131(5)
_cell_angle_gamma                90
_cell_volume                     2628
loop_
_atom_site_label
_atom_site_type_symbol
_atom_site_fract_x
_atom_site_fract_y
_atom_site_fract_z
Cd1 Cd 0.35388(2) 0.29742(6) 0.331598(14)
O1 O 0.3003(2) 0.1537(6) 0.24672(14)
O2 O 0.2839(2) -0.0881(6) 0.18147(15)
O3 O 0.3664(2) 0.6075(6) 0.28633(15)
O4 O 1.0054(2) 0.7743(6) 0.15509(16)
O5 O 1.0551(2) 0.4547(6) 0.16578(16)
N1 N 0.2982(3) 0.0972(7) 0.39298(17)
N2 N 0.3806(3) 0.4629(7) 0.41852(18)
N3 N 0.6524(3) 0.1747(8) 0.1831(2)
N4 N 0.6806(3) 0.3505(9) 0.1928(2)
C1 C 0.3260(3) 0.0439(8) 0.2126(2)
C2 C 0.4123(3) 0.0823(8) 0.2052(2)
C3 C 0.4480(3) 0.2777(9) 0.2147(2)
H1 H 0.4192 0.3853 0.2261
C4 C 0.5265(3) 0.3131(9) 0.2071(2)
H2 H 0.5500 0.4443 0.2130
C5 C 0.5692(3) 0.1513(10) 0.1908(2)
C6 C 0.5347(3) -0.0461(10) 0.1813(2)
H3 H 0.5644 -0.1541 0.1708
C7 C 0.4560(3) -0.0796(9) 0.1878(2)
H4 H 0.4318 -0.2097 0.1806
C8 C 0.2573(4) -0.0771(9) 0.3802(2)
H5 H 0.2553 -0.1362 0.3462
C9 C 0.2162(5) -0.1789(11) 0.4153(3)
H6 H 0.1873 -0.3013 0.4047
C10 C 0.2200(4) -0.0924(12) 0.4657(3)
H7 H 0.1938 -0.1574 0.4898
C11 C 0.2710(5) 0.1877(11) 0.5334(3)
H8 H 0.2464 0.1256 0.5588
C12 C 0.3125(5) 0.3622(11) 0.5467(3)
H9 H 0.3153 0.4221 0.5808
C13 C 0.4013(5) 0.6430(12) 0.5222(3)
H10 H 0.4089 0.7028 0.5568
C14 C 0.4357(6) 0.7296(12) 0.4843(3)
H11 H 0.4670 0.8499 0.4924
C15 C 0.4238(4) 0.6350(11) 0.4316(3)
H12 H 0.4473 0.6966 0.4056
C16 C 0.3016(3) 0.1839(8) 0.4429(2)
C17 C 0.2628(4) 0.0920(10) 0.4812(2)
C18 C 0.3537(4) 0.4617(10) 0.5092(2)
C19 C 0.3468(3) 0.3752(9) 0.4567(2)
C20 C 0.9980(3) 0.5813(8) 0.1627(2)
C21 C 0.9149(3) 0.5082(8) 0.1695(2)
C22 C 0.8513(3) 0.6511(10) 0.1645(2)
H13 H 0.8602 0.7881 0.1559
C23 C 0.7746(3) 0.5931(10) 0.1721(2)
H14 H 0.7327 0.6904 0.1690
C24 C 0.7617(3) 0.3871(11) 0.1845(2)
C25 C 0.8255(4) 0.2433(10) 0.1909(2)
H15 H 0.8171 0.1069 0.2003
C26 C 0.9019(3) 0.3040(9) 0.1833(2)
H16 H 0.9444 0.2077 0.1874
Cd1A Cd 0.14612(2) -0.20258(6) 0.168402(14)
Cd1A_2 Cd 1.14612(2) 0.79742(6) 0.168402(14)
O2A O 0.2161(2) 0.4119(6) 0.31853(15)
O4A O 0.4946(2) 0.2743(6) 0.34491(16)
O6 O 0.987(2) 0.696(3) 0.4964(18)
loop_
_geom_bond_atom_site_label_1
_geom_bond_atom_site_label_2
_geom_bond_site_symmetry_1
_geom_bond_site_symmetry_2
Cd1 O1 1_555 1_555
O1 C1 1_555 1_555
O2 C1 1_555 1_555
O3 Cd1 1_555 1_555
O4 C20 1_555 1_555
O5 C20 1_555 1_555
N1 Cd1 1_555 1_555
N2 Cd1 1_555 1_555
N3 N4 1_555 1_555
N4 C24 1_555 1_555
C1 C2 1_555 1_555
C2 C3 1_555 1_555
C3 H1 1_555 1_555
C4 C3 1_555 1_555
H2 C4 1_555 1_555
C5 N3 1_555 1_555
C6 C5 1_555 1_555
H3 C6 1_555 1_555
C7 C2 1_555 1_555
H4 C7 1_555 1_555
C8 N1 1_555 1_555
H5 C8 1_555 1_555
C9 C8 1_555 1_555
H6 C9 1_555 1_555
C10 C9 1_555 1_555
H7 C10 1_555 1_555
C11 H8 1_555 1_555
C12 C11 1_555 1_555
H9 C12 1_555 1_555
C13 H10 1_555 1_555
C14 C13 1_555 1_555
H11 C14 1_555 1_555
C15 N2 1_555 1_555
H12 C15 1_555 1_555
C16 N1 1_555 1_555
C17 C10 1_555 1_555
C18 C12 1_555 1_555
C19 N2 1_555 1_555
C20 C21 1_555 1_555
C21 C22 1_555 1_555
C22 H13 1_555 1_555
C23 C22 1_555 1_555
H14 C23 1_555 1_555
C24 C23 1_555 1_555
C25 C24 1_555 1_555
H15 C25 1_555 1_555
C26 C21 1_555 1_555
H16 C26 1_555 1_555
Cd1A O2 1_555 1_555
Cd1A_2 O4 1_555 1_555
O2A Cd1 1_555 1_555
O4A Cd1 1_555 1_555
C4 C5 1_555 1_555
C6 C7 1_555 1_555
C11 C17 1_555 1_555
C13 C18 1_555 1_555
C14 C15 1_555 1_555
C16 C17 1_555 1_555
C16 C19 1_555 1_555
C18 C19 1_555 1_555
C25 C26 1_555 1_555

#END
