
#######################################################################
#
#                 Cambridge Crystallographic Data Centre
#                                CCDC 
#
#######################################################################
#
# If this CIF has been generated from an entry in the Cambridge 
# Structural Database, then it will include bibliographic, chemical, 
# crystal, experimental, refinement or atomic coordinate data resulting 
# from the CCDC's data processing and validation procedures.
#
#######################################################################

data_OSAWOV
_symmetry_cell_setting           monoclinic
_symmetry_space_group_name_H-M   'P 21/n'
_symmetry_Int_Tables_number      14
_space_group_name_Hall           '-P 2yn'
loop_
_symmetry_equiv_pos_site_id
_symmetry_equiv_pos_as_xyz
1 x,y,z
2 1/2-x,1/2+y,1/2-z
3 -x,-y,-z
4 1/2+x,1/2-y,1/2+z
_cell_length_a                   11.715(2)
_cell_length_b                   16.470(3)
_cell_length_c                   12.837(3)
_cell_angle_alpha                90
_cell_angle_beta                 107.714(3)
_cell_angle_gamma                90
_cell_volume                     2359.41
loop_
_atom_site_label
_atom_site_type_symbol
_atom_site_fract_x
_atom_site_fract_y
_atom_site_fract_z
Zn1 Zn 0.74156(3) 0.396909(17) 0.77968(2)
O1 O 0.8114(2) 0.36110(13) 0.6415(2)
O2 O 0.82158(17) 0.28495(11) 0.78070(18)
O3 O 0.58231(17) 0.43365(13) 0.69502(17)
O4 O 0.52977(19) 0.32061(13) 0.76031(19)
N1 N 0.76832(18) 0.40905(12) 0.94827(18)
N2 N 0.82754(18) 0.50907(12) 0.80921(17)
N3 N 0.0118(2) 0.46402(14) 0.5063(2)
N4 N 0.9843(2) 0.03165(12) 0.47335(18)
C1 C 0.5048(3) 0.38352(18) 0.7062(2)
C2 C 0.3758(2) 0.40658(16) 0.6509(2)
C3 C 0.3460(3) 0.48087(19) 0.6003(3)
C4 C 0.2271(3) 0.5027(2) 0.5530(2)
C5 C 0.1380(2) 0.44813(19) 0.5546(2)
C6 C 0.1671(3) 0.3729(2) 0.6006(3)
C7 C 0.2857(3) 0.3527(2) 0.6504(3)
C8 C 0.8353(2) 0.29570(17) 0.6892(3)
C9 C 0.8807(2) 0.22557(14) 0.6370(2)
C10 C 0.8857(3) 0.23261(17) 0.5318(3)
C11 C 0.9207(3) 0.16800(16) 0.4802(3)
C12 C 0.9514(2) 0.09557(14) 0.5354(2)
C13 C 0.9490(3) 0.08805(16) 0.6415(2)
C14 C 0.9130(3) 0.15323(16) 0.6917(2)
C15 C 0.7371(3) 0.35879(19) 1.0159(3)
C16 C 0.7549(3) 0.3778(2) 1.1252(3)
C17 C 0.8055(3) 0.4495(2) 1.1649(3)
H1 H 0.8168 0.4626 1.2379
C18 C 0.8952(3) 0.5811(2) 1.1315(3)
C19 C 0.9230(3) 0.6319(2) 1.0614(3)
C20 C 0.9250(3) 0.66125(19) 0.8711(3)
C21 C 0.9002(3) 0.6363(2) 0.7678(3)
C22 C 0.8526(3) 0.5597(2) 0.7388(3)
C23 C 0.8506(2) 0.53438(14) 0.9134(2)
C24 C 0.8195(2) 0.48067(14) 0.9879(2)
C25 C 0.8409(2) 0.50402(18) 1.0973(2)
C26 C 0.9010(2) 0.61090(15) 0.9496(2)
H2 H 0.405(2) 0.5124(16) 0.597(2)
H3 H 0.209(3) 0.5503(19) 0.525(2)
H4 H 0.101(3) 0.3312(18) 0.602(2)
H5 H 0.308(3) 0.3006(19) 0.688(3)
H6 H 0.867(3) 0.276(2) 0.495(3)
H7 H 0.926(2) 0.1733(16) 0.414(2)
H8 H 0.967(2) 0.0416(17) 0.680(2)
H9 H 0.909(2) 0.1463(14) 0.762(2)
H10 H 0.698(2) 0.3085(18) 0.986(2)
H11 H 0.730(3) 0.3424(19) 1.166(3)
H12 H 0.910(3) 0.5935(18) 1.206(3)
H13 H 0.957(3) 0.681(2) 1.083(3)
H14 H 0.954(3) 0.7119(19) 0.891(2)
H15 H 0.912(3) 0.6649(19) 0.715(3)
H16 H 0.834(3) 0.5399(18) 0.668(2)
Zn1B Zn 1.25844(3) -0.396909(17) 0.22032(2)
Zn1B_2 Zn -0.74156(3) 0.603091(17) 0.22032(2)
O1B O 1.1886(2) -0.36110(13) 0.3585(2)
O2B O 1.17842(17) -0.28495(11) 0.21930(18)
O3B O -0.58231(17) 0.56635(13) 0.30498(17)
O3B_2 O 1.41769(17) -0.43365(13) 0.30498(17)
O4B O -0.52977(19) 0.67939(13) 0.23969(19)
N1B N 1.23168(18) -0.40905(12) 0.05173(18)
N2B N 1.17246(18) -0.50907(12) 0.19079(17)
N3B N -0.0118(2) 0.53598(14) 0.4937(2)
N4B N 1.0157(2) -0.03165(12) 0.52665(18)
C1B C -0.5048(3) 0.61648(18) 0.2938(2)
C2B C -0.3758(2) 0.59342(16) 0.3491(2)
C3B C -0.3460(3) 0.51913(19) 0.3997(3)
C4B C -0.2271(3) 0.4973(2) 0.4470(2)
C5B C -0.1380(2) 0.55187(19) 0.4454(2)
C6B C -0.1671(3) 0.6271(2) 0.3994(3)
C7B C -0.2857(3) 0.6473(2) 0.3496(3)
C8B C 1.1647(2) -0.29570(17) 0.3108(3)
C9B C 1.1193(2) -0.22557(14) 0.3630(2)
C10B C 1.1143(3) -0.23261(17) 0.4682(3)
C11B C 1.0793(3) -0.16800(16) 0.5198(3)
C12B C 1.0486(2) -0.09557(14) 0.4646(2)
C13B C 1.0510(3) -0.08805(16) 0.3585(2)
C14B C 1.0870(3) -0.15323(16) 0.3083(2)
C15B C 1.2629(3) -0.35879(19) -0.0159(3)
C16B C 1.2451(3) -0.3778(2) -0.1252(3)
C17B C 1.1945(3) -0.4495(2) -0.1649(3)
H1B H 1.1832 -0.4626 -0.2379
C18B C 1.1048(3) -0.5811(2) -0.1315(3)
C19B C 1.0770(3) -0.6319(2) -0.0614(3)
C20B C 1.0750(3) -0.66125(19) 0.1289(3)
C21B C 1.0998(3) -0.6363(2) 0.2322(3)
C22B C 1.1474(3) -0.5597(2) 0.2612(3)
C23B C 1.1494(2) -0.53438(14) 0.0866(2)
C24B C 1.1805(2) -0.48067(14) 0.0121(2)
C25B C 1.1591(2) -0.50402(18) -0.0973(2)
C26B C 1.0990(2) -0.61090(15) 0.0504(2)
H2B H -0.405(2) 0.4876(16) 0.403(2)
H3B H -0.209(3) 0.4497(19) 0.475(2)
H4B H -0.101(3) 0.6688(18) 0.398(2)
H5B H -0.308(3) 0.6994(19) 0.312(3)
H6B H 1.133(3) -0.276(2) 0.505(3)
H7B H 1.074(2) -0.1733(16) 0.586(2)
H8B H 1.033(2) -0.0416(17) 0.320(2)
H9B H 1.091(2) -0.1463(14) 0.238(2)
H10B H 1.302(2) -0.3085(18) 0.014(2)
H11B H 1.270(3) -0.3424(19) -0.166(3)
H12B H 1.090(3) -0.5935(18) -0.206(3)
H13B H 1.043(3) -0.681(2) -0.083(3)
H14B H 1.046(3) -0.7119(19) 0.109(2)
H15B H 1.088(3) -0.6649(19) 0.285(3)
H16B H 1.166(3) -0.5399(18) 0.332(2)
loop_
_geom_bond_atom_site_label_1
_geom_bond_atom_site_label_2
_geom_bond_site_symmetry_1
_geom_bond_site_symmetry_2
Zn1 O1 1_555 1_555
O1 C8 1_555 1_555
O2 Zn1 1_555 1_555
O3 Zn1 1_555 1_555
O4 C1 1_555 1_555
N1 Zn1 1_555 1_555
N2 Zn1 1_555 1_555
N3 C5 1_555 1_555
N4 C12 1_555 1_555
C1 O3 1_555 1_555
C2 C1 1_555 1_555
C3 C2 1_555 1_555
C4 C3 1_555 1_555
C5 C4 1_555 1_555
C6 C5 1_555 1_555
C7 C2 1_555 1_555
C8 O2 1_555 1_555
C9 C8 1_555 1_555
C10 C9 1_555 1_555
C11 C10 1_555 1_555
C12 C11 1_555 1_555
C13 C12 1_555 1_555
C14 C9 1_555 1_555
C15 N1 1_555 1_555
C16 C15 1_555 1_555
C17 C16 1_555 1_555
H1 C17 1_555 1_555
C18 C19 1_555 1_555
C19 C26 1_555 1_555
C20 C21 1_555 1_555
C21 C22 1_555 1_555
C22 N2 1_555 1_555
C23 N2 1_555 1_555
C24 N1 1_555 1_555
C25 C17 1_555 1_555
C26 C20 1_555 1_555
H2 C3 1_555 1_555
H3 C4 1_555 1_555
H4 C6 1_555 1_555
H5 C7 1_555 1_555
H6 C10 1_555 1_555
H7 C11 1_555 1_555
H8 C13 1_555 1_555
H9 C14 1_555 1_555
H10 C15 1_555 1_555
H11 C16 1_555 1_555
H12 C18 1_555 1_555
H13 C19 1_555 1_555
H14 C20 1_555 1_555
H15 C21 1_555 1_555
H16 C22 1_555 1_555
Zn1B O1B 1_555 1_555
Zn1B_2 O3B 1_555 1_555
O1B C8B 1_555 1_555
O2B Zn1B 1_555 1_555
O3B C1B 1_555 1_555
O3B_2 Zn1B 1_555 1_555
O4B C1B 1_555 1_555
N1B Zn1B 1_555 1_555
N2B Zn1B 1_555 1_555
N3B N3 1_555 1_555
N4B N4 1_555 1_555
C1B C2B 1_555 1_555
C2B C3B 1_555 1_555
C3B C4B 1_555 1_555
C4B C5B 1_555 1_555
C5B N3B 1_555 1_555
C6B C5B 1_555 1_555
C7B C2B 1_555 1_555
C8B O2B 1_555 1_555
C9B C8B 1_555 1_555
C10B C9B 1_555 1_555
C11B C10B 1_555 1_555
C12B N4B 1_555 1_555
C13B C12B 1_555 1_555
C14B C9B 1_555 1_555
C15B N1B 1_555 1_555
C16B C15B 1_555 1_555
C17B C16B 1_555 1_555
H1B C17B 1_555 1_555
C18B C19B 1_555 1_555
C19B C26B 1_555 1_555
C20B C21B 1_555 1_555
C21B C22B 1_555 1_555
C22B N2B 1_555 1_555
C23B N2B 1_555 1_555
C24B N1B 1_555 1_555
C25B C17B 1_555 1_555
C26B C20B 1_555 1_555
H2B C3B 1_555 1_555
H3B C4B 1_555 1_555
H4B C6B 1_555 1_555
H5B C7B 1_555 1_555
H6B C10B 1_555 1_555
H7B C11B 1_555 1_555
H8B C13B 1_555 1_555
H9B C14B 1_555 1_555
H10B C15B 1_555 1_555
H11B C16B 1_555 1_555
H12B C18B 1_555 1_555
H13B C19B 1_555 1_555
H14B C20B 1_555 1_555
H15B C21B 1_555 1_555
H16B C22B 1_555 1_555
C6 C7 1_555 1_555
C13 C14 1_555 1_555
C18 C25 1_555 1_555
C23 C24 1_555 1_555
C23 C26 1_555 1_555
C24 C25 1_555 1_555
C6B C7B 1_555 1_555
C11B C12B 1_555 1_555
C13B C14B 1_555 1_555
C18B C25B 1_555 1_555
C23B C24B 1_555 1_555
C23B C26B 1_555 1_555
C24B C25B 1_555 1_555

#END
