
#######################################################################
#
#                 Cambridge Crystallographic Data Centre
#                                CCDC 
#
#######################################################################
#
# If this CIF has been generated from an entry in the Cambridge 
# Structural Database, then it will include bibliographic, chemical, 
# crystal, experimental, refinement or atomic coordinate data resulting 
# from the CCDC's data processing and validation procedures.
#
#######################################################################

data_OSAWEL
_symmetry_cell_setting           triclinic
_symmetry_space_group_name_H-M   'P -1'
_symmetry_Int_Tables_number      2
_space_group_name_Hall           '-P 1'
loop_
_symmetry_equiv_pos_site_id
_symmetry_equiv_pos_as_xyz
1 x,y,z
2 -x,-y,-z
_cell_length_a                   8.3328(4)
_cell_length_b                   8.6794(4)
_cell_length_c                   9.9393(5)
_cell_angle_alpha                70.520(2)
_cell_angle_beta                 84.459(3)
_cell_angle_gamma                73.722(2)
_cell_volume                     650.528
loop_
_atom_site_label
_atom_site_type_symbol
_atom_site_fract_x
_atom_site_fract_y
_atom_site_fract_z
Ca1 Ca 0.67352(5) 0.63663(5) 0.95751(5)
O1 O 0.9236(2) 0.5811(2) 0.8404(2)
O2 O 0.5243(3) 0.7717(3) 0.7455(2)
C1 C 1.0489(3) 0.5235(3) 0.7759(3)
C2 C 0.4571(4) 0.7767(5) 0.6409(4)
H1 H 0.5048 0.6910 0.6012
C3 C 1.0264(3) 0.5083(3) 0.6342(3)
C4 C 0.2413(7) 1.0248(8) 0.6360(7)
H2 H 0.3126 1.0277 0.7050
H3 H 0.1386 1.0048 0.6811
H4 H 0.2178 1.1313 0.5604
O3 O 1.1970(2) 0.4761(3) 0.8228(2)
O4 O 0.4503(2) 0.8209(2) 1.0615(2)
C5 C 0.8668(3) 0.5348(4) 0.5865(3)
H5 H 0.7761 0.5574 0.6458
C6 C 0.2561(7) 0.8878(9) 0.4502(6)
H6 H 0.3239 0.7931 0.4235
H7 H 0.2560 0.9910 0.3742
H8 H 0.1438 0.8772 0.4683
C7 C 1.1623(3) 0.4713(4) 0.5454(3)
O5 O 0.3541(2) 0.6228(2) 1.0346(2)
C8 C 0.3308(3) 0.7679(3) 1.0426(3)
O6 O 1.3229(3) 0.4392(5) 0.5853(3)
H9 H 1.3242 0.4424 0.6668
C9 C 0.1585(3) 0.8869(3) 1.0239(3)
O7 O 0.2575(2) 1.0968(2) 1.0752(2)
H10 H 0.3455 1.0234 1.0793
C10 C 0.0267(3) 0.8414(3) 0.9851(3)
H11 H 0.0449 0.7351 0.9749
C11 C 0.1308(3) 1.0473(3) 1.0383(3)
N1 N 0.3237(3) 0.8909(4) 0.5783(3)
Ca1A Ca 1.32648(5) 0.36337(5) 0.04249(5)
Ca1A_2 Ca 1.32648(5) 0.36337(5) 1.04249(5)
Ca1A_3 Ca 0.32648(5) 0.36337(5) 1.04249(5)
Ca1A_4 Ca 0.32648(5) 1.36337(5) 1.04249(5)
Ca1_2 Ca 0.67352(5) 0.63663(5) -0.04249(5)
Ca1A_5 Ca -0.67352(5) 1.36337(5) 1.04249(5)
Ca1_3 Ca -0.32648(5) 1.63663(5) 0.95751(5)
Ca1_4 Ca -0.32648(5) 0.63663(5) 0.95751(5)
O1A O 1.0764(2) 0.4189(2) 0.1596(2)
O2A O 1.4757(3) 0.2283(3) 0.2545(2)
C1A C 0.9511(3) 0.4765(3) 0.2241(3)
C2A C 1.5429(4) 0.2233(5) 0.3591(4)
H1A H 1.4952 0.3090 0.3988
C3A C 0.9736(3) 0.4917(3) 0.3658(3)
C4A C 1.7587(7) -0.0248(8) 0.3640(7)
H2A H 1.6874 -0.0277 0.2950
H3A H 1.8614 -0.0048 0.3189
H4A H 1.7822 -0.1313 0.4396
O3A O 0.8030(2) 0.5239(3) 0.1772(2)
O3A_2 O 0.8030(2) 0.5239(3) 1.1772(2)
O3_2 O 1.1970(2) 0.4761(3) -0.1772(2)
O4A O -0.4503(2) 1.1791(2) 0.9385(2)
O4A_2 O 1.5497(2) 0.1791(2) -0.0615(2)
C5A C 1.1332(3) 0.4652(4) 0.4135(3)
H5A H 1.2239 0.4426 0.3542
C6A C 1.7439(7) 0.1122(9) 0.5498(6)
H6A H 1.6761 0.2069 0.5765
H7A H 1.7440 0.0090 0.6258
H8A H 1.8562 0.1228 0.5317
C7A C 0.8377(3) 0.5287(4) 0.4546(3)
O5A O -0.3541(2) 1.3772(2) 0.9654(2)
O5A_2 O 0.6459(2) 0.3772(2) 0.9654(2)
O5A_3 O 1.6459(2) 0.3772(2) -0.0346(2)
O5_2 O 1.3541(2) 0.6228(2) 0.0346(2)
C8A C -0.3308(3) 1.2321(3) 0.9574(3)
O6A O 0.6771(3) 0.5608(5) 0.4147(3)
H9A H 0.6758 0.5576 0.3332
C9A C -0.1585(3) 1.1131(3) 0.9761(3)
O7A O -0.2575(2) 0.9032(2) 0.9248(2)
O7A_2 O 0.7425(2) 0.9032(2) 0.9248(2)
O7_2 O 1.2575(2) 0.0968(2) 0.0752(2)
H10A H -0.3455 0.9766 0.9207
H10A_2 H 0.6545 0.9766 0.9207
H10_2 H 1.3455 0.0234 0.0793
C10A C -0.0267(3) 1.1586(3) 1.0149(3)
H11A H -0.0449 1.2649 1.0251
C11A C -0.1308(3) 0.9527(3) 0.9617(3)
N1A N 1.6763(3) 0.1091(4) 0.4217(3)
loop_
_geom_bond_atom_site_label_1
_geom_bond_atom_site_label_2
_geom_bond_site_symmetry_1
_geom_bond_site_symmetry_2
Ca1 O1 1_555 1_555
O1 C1 1_555 1_555
O2 Ca1 1_555 1_555
C1 C3 1_555 1_555
C2 O2 1_555 1_555
H1 C2 1_555 1_555
C3 C5 1_555 1_555
C4 H2 1_555 1_555
H3 C4 1_555 1_555
H4 C4 1_555 1_555
O3 C1 1_555 1_555
O4 Ca1 1_555 1_555
C5 H5 1_555 1_555
C6 H6 1_555 1_555
H7 C6 1_555 1_555
H8 C6 1_555 1_555
C7 C3 1_555 1_555
O5 Ca1 1_555 1_555
C8 O4 1_555 1_555
O6 C7 1_555 1_555
H9 O6 1_555 1_555
C9 C8 1_555 1_555
O7 H10 1_555 1_555
C10 C9 1_555 1_555
H11 C10 1_555 1_555
C11 C9 1_555 1_555
N1 C2 1_555 1_555
Ca1A O1A 1_555 1_555
Ca1A_2 O3 1_555 1_555
Ca1A_3 O5 1_555 1_555
Ca1A_4 O7 1_555 1_555
Ca1_2 O3A 1_555 1_555
Ca1A_5 O4A 1_555 1_555
Ca1_3 O5A 1_555 1_555
Ca1_4 O7A 1_555 1_555
O1A C1A 1_555 1_555
O2A Ca1A 1_555 1_555
C1A C3A 1_555 1_555
C2A O2A 1_555 1_555
H1A C2A 1_555 1_555
C3A C5A 1_555 1_555
C4A H2A 1_555 1_555
H3A C4A 1_555 1_555
H4A C4A 1_555 1_555
O3A C1A 1_555 1_555
O3A_2 Ca1 1_555 1_555
O3_2 Ca1A 1_555 1_555
O4A C8A 1_555 1_555
O4A_2 Ca1A 1_555 1_555
C5A C7 1_555 1_555
H5A C5A 1_555 1_555
C6A H6A 1_555 1_555
H7A C6A 1_555 1_555
H8A C6A 1_555 1_555
C7A C5 1_555 1_555
O5A Ca1A_5 1_555 1_555
O5A_2 Ca1 1_555 1_555
O5A_3 Ca1A 1_555 1_555
O5_2 Ca1A 1_555 1_555
C8A O5A 1_555 1_555
O6A C7A 1_555 1_555
H9A O6A 1_555 1_555
C9A C8A 1_555 1_555
O7A H10A 1_555 1_555
O7A_2 Ca1 1_555 1_555
O7_2 Ca1A 1_555 1_555
H10A_2 O7A_2 1_555 1_555
H10_2 O7_2 1_555 1_555
C10A C11 1_555 1_555
H11A C10A 1_555 1_555
C11A C10 1_555 1_555
N1A C2A 1_555 1_555
C4 N1 1_555 1_555
C6 N1 1_555 1_555
O5 C8 1_555 1_555
O7 C11 1_555 1_555
Ca1A_3 O5A_2 1_555 1_555
C3A C7A 1_555 1_555
C4A N1A 1_555 1_555
C6A N1A 1_555 1_555
C9A C10A 1_555 1_555
C9A C11A 1_555 1_555
O7A C11A 1_555 1_555

#END
