
#######################################################################
#
#                 Cambridge Crystallographic Data Centre
#                                CCDC 
#
#######################################################################
#
# If this CIF has been generated from an entry in the Cambridge 
# Structural Database, then it will include bibliographic, chemical, 
# crystal, experimental, refinement or atomic coordinate data resulting 
# from the CCDC's data processing and validation procedures.
#
#######################################################################

data_OSAWAH
_symmetry_cell_setting           triclinic
_symmetry_space_group_name_H-M   'P -1'
_symmetry_Int_Tables_number      2
_space_group_name_Hall           '-P 1'
loop_
_symmetry_equiv_pos_site_id
_symmetry_equiv_pos_as_xyz
1 x,y,z
2 -x,-y,-z
_cell_length_a                   6.0146(2)
_cell_length_b                   7.6214(3)
_cell_length_c                   11.0855(5)
_cell_angle_alpha                104.367(2)
_cell_angle_beta                 93.316(2)
_cell_angle_gamma                91.769(2)
_cell_volume                     490.902
loop_
_atom_site_label
_atom_site_type_symbol
_atom_site_fract_x
_atom_site_fract_y
_atom_site_fract_z
Ca1 Ca 0.13601(4) 0.07262(3) 0.66779(2)
O1 O 0.52513(14) 0.10294(12) 0.64045(9)
O2 O 0.82570(14) 0.11910(12) 0.53597(8)
O3 O -0.31429(17) 0.16528(13) 0.95724(10)
H1 H -0.2130 0.1665 0.9067
O4 O -0.06215(18) 0.55063(14) 0.78991(10)
O5 O -0.04569(15) 0.27699(12) 0.82533(9)
O6 O 0.24570(16) 0.37280(12) 0.66204(9)
H2 H 0.1548 0.4512 0.7004
O7 O -0.14290(17) -0.13558(15) 0.70871(11)
H3 H -0.2725 -0.1106 0.6740
H4 H -0.1517 -0.2177 0.7250
O8 O 0.31873(19) -0.05240(16) 0.81823(10)
H5 H 0.2795 -0.0873 0.8732
H6 H 0.4372 0.0031 0.8559
C1 C 0.63976(18) 0.17754(15) 0.57554(10)
C2 C 0.68716(19) 0.41288(16) 0.45695(11)
H7 H 0.8203 0.3598 0.4315
C3 C 0.37202(19) 0.43520(15) 0.58233(11)
C4 C 0.56252(18) 0.34418(15) 0.53856(11)
C5 C -0.5830(2) 0.36570(17) 1.05196(12)
H8 H -0.6363 0.2739 1.0889
C6 C -0.3191(2) 0.46750(16) 0.92435(11)
C7 C -0.4035(2) 0.33292(17) 0.97779(11)
C8 C -0.12925(19) 0.43152(16) 0.84106(11)
Ca1A Ca 0.86399(4) 0.92738(3) 0.33221(2)
Ca1_2 Ca 1.13601(4) 0.07262(3) 0.66779(2)
Ca1A_2 Ca 0.86399(4) -0.07262(3) 0.33221(2)
Ca1A_3 Ca -0.13601(4) 0.92738(3) 0.33221(2)
Ca1_3 Ca 0.13601(4) 1.07262(3) 0.66779(2)
Ca1A_4 Ca -1.13601(4) 0.92738(3) 1.33221(2)
O1A O 0.47487(14) 0.89706(12) 0.35955(9)
O2A O 0.17430(14) 0.88090(12) 0.46403(8)
O2_2 O -0.17430(14) 0.11910(12) 0.53597(8)
O2A_2 O 0.17430(14) -0.11910(12) 0.46403(8)
O2A_3 O 1.17430(14) 0.88090(12) 0.46403(8)
O2_3 O 0.82570(14) 1.11910(12) 0.53597(8)
O3A O -0.68571(17) 0.83472(13) 1.04276(10)
H1A H -0.7870 0.8335 1.0933
O4A O -0.93785(18) 0.44937(14) 1.21009(10)
O5A O -0.95431(15) 0.72301(12) 1.17467(9)
O5A_2 O 1.04569(15) 0.72301(12) 0.17467(9)
O6A O 0.75430(16) 0.62720(12) 0.33796(9)
H2A H 0.8452 0.5488 0.2996
O7A O 1.14290(17) 1.13558(15) 0.29129(11)
H3A H 1.2725 1.1106 0.3260
H4A H 1.1517 1.2177 0.2750
O8A O 0.68127(19) 1.05240(16) 0.18177(10)
H5A H 0.7205 1.0873 0.1268
H6A H 0.5628 0.9969 0.1441
C1A C 0.36024(18) 0.82246(15) 0.42446(10)
C2A C 0.31284(19) 0.58712(16) 0.54305(11)
H7A H 0.1797 0.6402 0.5685
C3A C 0.62798(19) 0.56480(15) 0.41767(11)
C4A C 0.43748(18) 0.65582(15) 0.46144(11)
C5A C -0.4170(2) 0.63430(17) 0.94804(12)
H8A H -0.3637 0.7261 0.9111
C6A C -0.6809(2) 0.53250(16) 1.07565(11)
C7A C -0.5965(2) 0.66708(17) 1.02221(11)
C8A C -0.87075(19) 0.56848(16) 1.15894(11)
loop_
_geom_bond_atom_site_label_1
_geom_bond_atom_site_label_2
_geom_bond_site_symmetry_1
_geom_bond_site_symmetry_2
Ca1 O1 1_555 1_555
O1 C1 1_555 1_555
O2 C1 1_555 1_555
O3 H1 1_555 1_555
O4 C8 1_555 1_555
O5 Ca1 1_555 1_555
O6 Ca1 1_555 1_555
H2 O6 1_555 1_555
O7 Ca1 1_555 1_555
H3 O7 1_555 1_555
H4 O7 1_555 1_555
O8 Ca1 1_555 1_555
H5 O8 1_555 1_555
H6 O8 1_555 1_555
C1 C4 1_555 1_555
C2 H7 1_555 1_555
C3 O6 1_555 1_555
C4 C2 1_555 1_555
C5 H8 1_555 1_555
C6 C7 1_555 1_555
C7 O3 1_555 1_555
C8 O5 1_555 1_555
Ca1A O1A 1_555 1_555
Ca1_2 O2 1_555 1_555
Ca1A_2 O2 1_555 1_555
Ca1A_3 O2A 1_555 1_555
Ca1_3 O2A 1_555 1_555
Ca1A_4 O5A 1_555 1_555
O1A C1A 1_555 1_555
O2A C1A 1_555 1_555
O2_2 Ca1 1_555 1_555
O2A_2 Ca1 1_555 1_555
O2A_3 Ca1A 1_555 1_555
O2_3 Ca1A 1_555 1_555
O3A H1A 1_555 1_555
O4A C8A 1_555 1_555
O5A C8A 1_555 1_555
O5A_2 Ca1A 1_555 1_555
O6A Ca1A 1_555 1_555
H2A O6A 1_555 1_555
O7A Ca1A 1_555 1_555
H3A O7A 1_555 1_555
H4A O7A 1_555 1_555
O8A Ca1A 1_555 1_555
H5A O8A 1_555 1_555
H6A O8A 1_555 1_555
C1A C4A 1_555 1_555
C2A C3 1_555 1_555
H7A C2A 1_555 1_555
C3A C2 1_555 1_555
C4A C2A 1_555 1_555
C5A C6 1_555 1_555
H8A C5A 1_555 1_555
C6A C5 1_555 1_555
C7A O3A 1_555 1_555
C8A C6A 1_555 1_555
C3 C4 1_555 1_555
C5 C7 1_555 1_555
C6 C8 1_555 1_555
O6A C3A 1_555 1_555
C3A C4A 1_555 1_555
C5A C7A 1_555 1_555
C6A C7A 1_555 1_555

#END
