
#######################################################################
#
#                 Cambridge Crystallographic Data Centre
#                                CCDC 
#
#######################################################################
#
# If this CIF has been generated from an entry in the Cambridge 
# Structural Database, then it will include bibliographic, chemical, 
# crystal, experimental, refinement or atomic coordinate data resulting 
# from the CCDC's data processing and validation procedures.
#
#######################################################################

data_OSAXOW
_symmetry_cell_setting           monoclinic
_symmetry_space_group_name_H-M   'P 21/c'
_symmetry_Int_Tables_number      14
_space_group_name_Hall           '-P 2ybc'
loop_
_symmetry_equiv_pos_site_id
_symmetry_equiv_pos_as_xyz
1 x,y,z
2 -x,1/2+y,1/2-z
3 -x,-y,-z
4 x,1/2-y,1/2+z
_cell_length_a                   11.800(2)
_cell_length_b                   4.911(1)
_cell_length_c                   8.8460(18)
_cell_angle_alpha                90
_cell_angle_beta                 91.41(3)
_cell_angle_gamma                90
_cell_volume                     512.469
loop_
_atom_site_label
_atom_site_type_symbol
_atom_site_fract_x
_atom_site_fract_y
_atom_site_fract_z
C1 C 0.3811(2) -0.0848(5) 0.4205(3)
C2 C 0.2906(3) 0.0514(6) 0.5094(4)
C3 C 0.2017(3) -0.1269(7) 0.5724(5)
C4 C 0.1135(3) 0.0285(8) 0.6594(4)
Li1 Li 0.5010(4) -0.0964(8) 0.1448(5)
O1 O 0.42756(16) 0.0486(3) 0.31740(18)
O2 O 0.40900(15) -0.3268(3) 0.45503(18)
H1 H 0.257(4) 0.188(9) 0.451(5)
H2 H 0.333(5) 0.149(13) 0.599(7)
H3 H 0.154(6) -0.226(16) 0.479(8)
H4 H 0.231(4) -0.283(10) 0.632(5)
H5 H 0.147(4) 0.137(12) 0.751(7)
H6 H 0.081(4) 0.172(11) 0.583(6)
H7 H 0.052(5) -0.096(11) 0.688(6)
Li1A Li 0.4990(4) 0.4036(8) 0.3552(5)
Li1A_2 Li 0.4990(4) -0.5964(8) 0.3552(5)
Li1C Li 0.5010(4) -0.4036(8) 0.6448(5)
O1A O 0.57244(16) -0.4514(3) 0.18260(18)
O2A O 0.59100(15) 0.1732(3) 0.04497(18)
O2C O 0.40900(15) -0.1732(3) -0.04497(18)
loop_
_geom_bond_atom_site_label_1
_geom_bond_atom_site_label_2
_geom_bond_site_symmetry_1
_geom_bond_site_symmetry_2
C1 C2 1_555 1_555
C2 C3 1_555 1_555
C3 C4 1_555 1_555
C4 H5 1_555 1_555
Li1 O1 1_555 1_555
O1 C1 1_555 1_555
O2 C1 1_555 1_555
H1 C2 1_555 1_555
H2 C2 1_555 1_555
H3 C3 1_555 1_555
H4 C3 1_555 1_555
H6 C4 1_555 1_555
H7 C4 1_555 1_555
Li1A O1 1_555 1_555
Li1A_2 O2 1_555 1_555
Li1C O2 1_555 1_555
O1A Li1 1_555 1_555
O2A Li1 1_555 1_555
O2C Li1 1_555 1_555
Li1A_2 O1A 1_555 1_555

#END
