
#######################################################################
#
#                 Cambridge Crystallographic Data Centre
#                                CCDC 
#
#######################################################################
#
# If this CIF has been generated from an entry in the Cambridge 
# Structural Database, then it will include bibliographic, chemical, 
# crystal, experimental, refinement or atomic coordinate data resulting 
# from the CCDC's data processing and validation procedures.
#
#######################################################################

data_OSAYEN01
_symmetry_cell_setting           triclinic
_symmetry_space_group_name_H-M   'P -1'
_symmetry_Int_Tables_number      2
_space_group_name_Hall           '-P 1'
loop_
_symmetry_equiv_pos_site_id
_symmetry_equiv_pos_as_xyz
1 x,y,z
2 -x,-y,-z
_cell_length_a                   4.7108(12)
_cell_length_b                   7.2240(12)
_cell_length_c                   15.506(4)
_cell_angle_alpha                87.263(13)
_cell_angle_beta                 83.565(15)
_cell_angle_gamma                89.655(17)
_cell_volume                     523.759
loop_
_atom_site_label
_atom_site_type_symbol
_atom_site_fract_x
_atom_site_fract_y
_atom_site_fract_z
Pb1 Pb 0.28441(4) 0.24420(2) 0.05059(1)
O1 O 0.3008(12) 0.8929(6) 0.0552(3)
O2 O 0.3249(12) 0.5923(6) 0.0765(3)
O3 O 0.3032(10) 0.1858(7) 0.2044(3)
O4 O 0.7098(10) 0.2638(7) 0.1290(3)
C1 C 0.2233(12) 0.7453(7) 0.0992(4)
C2 C 0.0125(13) 0.7581(9) 0.1797(4)
C3 C 0.1601(17) 0.7115(11) 0.2615(4)
C4 C -0.037(2) 0.7380(11) 0.3457(5)
C5 C 0.5586(13) 0.2324(8) 0.2017(4)
C6 C 0.6920(15) 0.2505(10) 0.2857(4)
C7 C 0.4840(15) 0.2152(11) 0.3676(4)
C8 C 0.633(2) 0.2340(12) 0.4497(4)
H1 H -0.14690 0.67060 0.17700
H2 H -0.06770 0.88490 0.18230
H3 H 0.22650 0.58120 0.26060
H4 H 0.33010 0.79170 0.26080
H5 H 0.06530 0.70460 0.39580
H6 H -0.20570 0.65840 0.34690
H7 H -0.09790 0.86780 0.34810
H8 H 0.77170 0.37680 0.28630
H9 H 0.85250 0.16160 0.28680
H10 H 0.40330 0.08900 0.36760
H11 H 0.32450 0.30510 0.36760
H12 H 0.49610 0.20810 0.50120
H13 H 0.70680 0.36040 0.45090
H14 H 0.79170 0.14560 0.44960
Pb1_2 Pb 0.28441(4) 1.24420(2) 0.05059(1)
Pb1_3 Pb 1.28441(4) 0.24420(2) 0.05059(1)
Pb1A Pb 0.71559(4) 0.75580(2) -0.05059(1)
O1_2 O 0.3008(12) -0.1071(6) 0.0552(3)
O1A O 0.6992(12) 0.1071(6) -0.0552(3)
O2A O 0.6751(12) 0.4077(6) -0.0765(3)
O4_2 O -0.2902(10) 0.2638(7) 0.1290(3)
loop_
_geom_bond_atom_site_label_1
_geom_bond_atom_site_label_2
_geom_bond_site_symmetry_1
_geom_bond_site_symmetry_2
Pb1 O2 1_555 1_555
O1 C1 1_555 1_555
O2 C1 1_555 1_555
O3 Pb1 1_555 1_555
O4 Pb1 1_555 1_555
C1 C2 1_555 1_555
C2 C3 1_555 1_555
C3 C4 1_555 1_555
C4 H5 1_555 1_555
C5 O3 1_555 1_555
C6 C5 1_555 1_555
C7 C6 1_555 1_555
C8 C7 1_555 1_555
H1 C2 1_555 1_555
H2 C2 1_555 1_555
H3 C3 1_555 1_555
H4 C3 1_555 1_555
H6 C4 1_555 1_555
H7 C4 1_555 1_555
H8 C6 1_555 1_555
H9 C6 1_555 1_555
H10 C7 1_555 1_555
H11 C7 1_555 1_555
H12 C8 1_555 1_555
H13 C8 1_555 1_555
H14 C8 1_555 1_555
Pb1_2 O1 1_555 1_555
Pb1_3 O4 1_555 1_555
Pb1A O1 1_555 1_555
O1_2 Pb1 1_555 1_555
O1A Pb1 1_555 1_555
O2A Pb1 1_555 1_555
O4_2 Pb1 1_555 1_555
O2 Pb1A 1_555 1_555
O4 C5 1_555 1_555
Pb1A O2A 1_555 1_555

#END
