
#######################################################################
#
#                 Cambridge Crystallographic Data Centre
#                                CCDC 
#
#######################################################################
#
# If this CIF has been generated from an entry in the Cambridge 
# Structural Database, then it will include bibliographic, chemical, 
# crystal, experimental, refinement or atomic coordinate data resulting 
# from the CCDC's data processing and validation procedures.
#
#######################################################################

data_OSAYAJ
_symmetry_cell_setting           tetragonal
_symmetry_space_group_name_H-M   'I 41/a'
_symmetry_Int_Tables_number      88
_space_group_name_Hall           '-I 4ad'
loop_
_symmetry_equiv_pos_site_id
_symmetry_equiv_pos_as_xyz
1 x,y,z
2 1/2-x,-y,1/2+z
3 3/4-y,1/4+x,1/4+z
4 3/4+y,3/4-x,3/4+z
5 1/2+x,1/2+y,1/2+z
6 -x,1/2-y,z
7 1/4-y,3/4+x,3/4+z
8 1/4+y,1/4-x,1/4+z
9 -x,-y,-z
10 1/2+x,y,1/2-z
11 1/4+y,3/4-x,3/4-z
12 1/4-y,1/4+x,1/4-z
13 1/2-x,1/2-y,1/2-z
14 x,1/2+y,-z
15 3/4+y,1/4-x,1/4-z
16 3/4-y,3/4+x,3/4-z
_cell_length_a                   18.417(3)
_cell_length_b                   18.417(3)
_cell_length_c                   19.880(4)
_cell_angle_alpha                90
_cell_angle_beta                 90
_cell_angle_gamma                90
_cell_volume                     6743.02
loop_
_atom_site_label
_atom_site_type_symbol
_atom_site_fract_x
_atom_site_fract_y
_atom_site_fract_z
C1 C -0.0036(4) 0.5374(3) 0.1254(4)
C2 C -0.0250(12) 0.6023(8) 0.1673(9)
H1 H 0.0128 0.6385 0.1618
H2 H -0.0688 0.6223 0.1476
C3 C -0.0380(18) 0.5945(10) 0.2387(7)
H3 H 0.0071 0.5817 0.2610
H4 H -0.0723 0.5553 0.2461
C4 C -0.0674(12) 0.6624(8) 0.2692(9)
H5 H -0.0659 0.6586 0.3173
H6 H -0.1166 0.6693 0.2548
H7 H -0.0385 0.7030 0.2551
C5 C -0.2167(3) 0.5241(3) -0.0501(3)
C6 C -0.2870(5) 0.4897(7) -0.0653(5)
H8 H -0.2790 0.4523 -0.0989
H9 H -0.3186 0.5260 -0.0850
C7 C -0.3242(6) 0.4572(10) -0.0086(8)
H10 H -0.2949 0.4174 0.0083
H11 H -0.3279 0.4931 0.0269
C8 C -0.3979(6) 0.4295(12) -0.0236(12)
H12 H -0.4185 0.4086 0.0163
H13 H -0.4281 0.4687 -0.0388
H14 H -0.3950 0.3931 -0.0581
C9 C -0.1083(3) 0.3006(3) 0.0350(3)
C10 C -0.0926(7) 0.3032(6) -0.0368(4)
H15 H -0.1012 0.3523 -0.0526
H16 H -0.0415 0.2928 -0.0432
C11 C -0.1348(11) 0.2532(11) -0.0789(8)
H17 H -0.1181 0.2571 -0.1250
H18 H -0.1260 0.2039 -0.0639
C12 C -0.215(2) 0.2680(8) -0.0766(11)
H19 H -0.2397 0.2341 -0.1049
H20 H -0.2318 0.2632 -0.0312
H21 H -0.2239 0.3166 -0.0922
Li1 Li -0.1319(5) 0.4636(5) 0.0696(4)
O1 O -0.0408(2) 0.5104(3) 0.0815(3)
O2 O 0.0609(2) 0.5154(2) 0.1375(3)
O3 O -0.1714(3) 0.5105(3) -0.0070(2)
O4 O -0.1995(2) 0.5679(2) -0.09629(19)
O5 O -0.1148(2) 0.3595(2) 0.06492(19)
O6 O -0.1159(3) 0.2435(3) 0.0658(3)
Pb1 Pb 0.070036(10) 0.406646(10) 0.075637(9)
Li1F Li -0.2136(5) 0.6181(5) -0.1804(4)
O3H O 0.1714(3) 0.4895(3) 0.0070(2)
O4G O -0.1821(2) 0.4495(2) 0.15371(19)
O4H O 0.1995(2) 0.4321(2) 0.09629(19)
O5N O 0.1095(2) 0.3648(2) 0.18508(19)
O6N O -0.0065(3) 0.3659(3) 0.1842(3)
O6E O 0.1159(3) 0.2565(3) 0.0658(3)
Pb1H Pb -0.070036(10) 0.593354(10) -0.075637(9)
Pb1K Pb -0.156646(10) 0.320036(10) 0.174363(9)
Pb1E Pb -0.070036(10) 0.093354(10) 0.075637(9)
loop_
_geom_bond_atom_site_label_1
_geom_bond_atom_site_label_2
_geom_bond_site_symmetry_1
_geom_bond_site_symmetry_2
C1 C2 1_555 1_555
C2 H1 1_555 1_555
H2 C2 1_555 1_555
C3 C2 1_555 1_555
H3 C3 1_555 1_555
H4 C3 1_555 1_555
C4 C3 1_555 1_555
H5 C4 1_555 1_555
H6 C4 1_555 1_555
H7 C4 1_555 1_555
C5 C6 1_555 1_555
C6 H8 1_555 1_555
H9 C6 1_555 1_555
C7 C6 1_555 1_555
H10 C7 1_555 1_555
H11 C7 1_555 1_555
C8 C7 1_555 1_555
H12 C8 1_555 1_555
H13 C8 1_555 1_555
H14 C8 1_555 1_555
C9 C10 1_555 1_555
C10 H15 1_555 1_555
H16 C10 1_555 1_555
C11 C10 1_555 1_555
H17 C11 1_555 1_555
H18 C11 1_555 1_555
C12 C11 1_555 1_555
H19 C12 1_555 1_555
H20 C12 1_555 1_555
H21 C12 1_555 1_555
Li1 O1 1_555 1_555
O1 C1 1_555 1_555
O2 C1 1_555 1_555
O3 C5 1_555 1_555
O4 C5 1_555 1_555
O5 C9 1_555 1_555
O6 C9 1_555 1_555
Pb1 O1 1_555 1_555
Li1F O4 1_555 1_555
O3H Pb1 1_555 1_555
O4G Li1 1_555 1_555
O4H Pb1 1_555 1_555
O5N Pb1 1_555 1_555
O6N Pb1 1_555 1_555
O6E Pb1 1_555 1_555
Pb1H O3 1_555 1_555
Pb1K O5 1_555 1_555
Pb1E O6 1_555 1_555
Li1 O3 1_555 1_555
Li1 O5 1_555 1_555
O2 Pb1 1_555 1_555
O4 Pb1H 1_555 1_555
O6 Pb1K 1_555 1_555
O4G Pb1K 1_555 1_555
O6N Pb1K 1_555 1_555

#END
