
#######################################################################
#
#                 Cambridge Crystallographic Data Centre
#                                CCDC 
#
#######################################################################
#
# If this CIF has been generated from an entry in the Cambridge 
# Structural Database, then it will include bibliographic, chemical, 
# crystal, experimental, refinement or atomic coordinate data resulting 
# from the CCDC's data processing and validation procedures.
#
#######################################################################

data_OSAYAJ01
_symmetry_cell_setting           tetragonal
_symmetry_space_group_name_H-M   'I 41/a'
_symmetry_Int_Tables_number      88
_space_group_name_Hall           '-I 4ad'
loop_
_symmetry_equiv_pos_site_id
_symmetry_equiv_pos_as_xyz
1 x,y,z
2 1/2-x,-y,1/2+z
3 3/4-y,1/4+x,1/4+z
4 3/4+y,3/4-x,3/4+z
5 1/2+x,1/2+y,1/2+z
6 -x,1/2-y,z
7 1/4-y,3/4+x,3/4+z
8 1/4+y,1/4-x,1/4+z
9 -x,-y,-z
10 1/2+x,y,1/2-z
11 1/4+y,3/4-x,3/4-z
12 1/4-y,1/4+x,1/4-z
13 1/2-x,1/2-y,1/2-z
14 x,1/2+y,-z
15 3/4+y,1/4-x,1/4-z
16 3/4-y,3/4+x,3/4-z
_cell_length_a                   18.052(3)
_cell_length_b                   18.052(3)
_cell_length_c                   19.523(4)
_cell_angle_alpha                90
_cell_angle_beta                 90
_cell_angle_gamma                90
_cell_volume                     6362.05
loop_
_atom_site_label
_atom_site_type_symbol
_atom_site_fract_x
_atom_site_fract_y
_atom_site_fract_z
C1 C 0.4557(16) -0.5906(11) 0.2412(10)
H1 H 0.4102 -0.5625 0.2302
H2 H 0.4877 -0.5587 0.2699
C2 C 0.4350(15) -0.6610(13) 0.2817(10)
H3 H 0.4385 -0.6508 0.3309
H4 H 0.4691 -0.7011 0.2697
H5 H 0.3842 -0.6756 0.2703
C3 C 0.2121(7) -0.5025(9) -0.0177(7)
H6 H 0.2199 -0.4589 0.0122
H7 H 0.1846 -0.5404 0.0087
C4 C 0.1681(12) -0.4802(15) -0.0795(8)
H8 H 0.1937 -0.4397 -0.1041
H9 H 0.1630 -0.5228 -0.1111
C5 C 0.0931(19) -0.4547(19) -0.056(2)
H10 H 0.0984 -0.4235 -0.0155
H11 H 0.0695 -0.4261 -0.0930
H12 H 0.0624 -0.4979 -0.0453
C6 C 0.3906(7) -0.3035(7) 0.0311(6)
C7 C 0.4113(10) -0.3051(10) -0.0423(7)
H13 H 0.4610 -0.2827 -0.0477
H14 H 0.4144 -0.3573 -0.0576
C8 C 0.3575(15) -0.2645(13) -0.0873(9)
H15 H 0.3538 -0.2124 -0.0720
H16 H 0.3761 -0.2646 -0.1350
C9 C 0.282(3) -0.2990(14) -0.085(2)
H17 H 0.2472 -0.2684 -0.1113
H18 H 0.2843 -0.3487 -0.1061
H19 H 0.2653 -0.3034 -0.0379
Li1 Li 0.3731(13) -0.4690(12) 0.0732(9)
O1 O 0.3796(5) -0.2445(5) 0.0595(4)
C10 C 0.5102(11) -0.5413(7) 0.1329(8)
C11 C 0.496(2) -0.6097(9) 0.1762(11)
H20 H 0.4654 -0.6454 0.1496
H21 H 0.5433 -0.6339 0.1875
C12 C 0.2856(7) -0.5332(7) -0.0398(6)
O2 O 0.5726(6) -0.5111(5) 0.1432(5)
O3 O 0.4685(6) -0.5172(6) 0.0867(6)
O4 O 0.2942(4) -0.5761(5) -0.0909(4)
O5 O 0.3361(6) -0.5183(5) -0.0005(4)
O6 O 0.3927(5) -0.3630(5) 0.0644(4)
Pb1 Pb 0.56978(2) -0.40361(2) 0.074930(19)
Li1C Li 0.2810(12) -0.6231(13) -0.1768(9)
O1K O 0.4945(5) -0.3704(5) 0.1905(4)
O1E O 0.6204(5) -0.2555(5) 0.0595(4)
O4B O 0.3261(5) -0.4558(4) 0.1591(4)
O4H O 0.7058(4) -0.4239(5) 0.0909(4)
O5H O 0.6639(6) -0.4817(5) 0.0005(4)
O6K O 0.6130(5) -0.3573(5) 0.1856(4)
Pb1N Pb 0.34639(2) -0.31978(2) 0.175070(19)
Pb1E Pb 0.43022(2) -0.09639(2) 0.074930(19)
Pb1H Pb 0.43022(2) -0.59639(2) -0.074930(19)
loop_
_geom_bond_atom_site_label_1
_geom_bond_atom_site_label_2
_geom_bond_site_symmetry_1
_geom_bond_site_symmetry_2
C1 H1 1_555 1_555
H2 C1 1_555 1_555
C2 C1 1_555 1_555
H3 C2 1_555 1_555
H4 C2 1_555 1_555
H5 C2 1_555 1_555
C3 H6 1_555 1_555
H7 C3 1_555 1_555
C4 C3 1_555 1_555
H8 C4 1_555 1_555
H9 C4 1_555 1_555
C5 C4 1_555 1_555
H10 C5 1_555 1_555
H11 C5 1_555 1_555
H12 C5 1_555 1_555
C6 C7 1_555 1_555
C7 H13 1_555 1_555
H14 C7 1_555 1_555
C8 C7 1_555 1_555
H15 C8 1_555 1_555
H16 C8 1_555 1_555
C9 C8 1_555 1_555
H17 C9 1_555 1_555
H18 C9 1_555 1_555
H19 C9 1_555 1_555
Li1 O3 1_555 1_555
O1 C6 1_555 1_555
C10 C11 1_555 1_555
C11 C1 1_555 1_555
H20 C11 1_555 1_555
H21 C11 1_555 1_555
C12 C3 1_555 1_555
O2 C10 1_555 1_555
O3 C10 1_555 1_555
O4 C12 1_555 1_555
O5 Li1 1_555 1_555
O6 C6 1_555 1_555
Pb1 O2 1_555 1_555
Li1C O4 1_555 1_555
O1K Pb1 1_555 1_555
O1E Pb1 1_555 1_555
O4B Li1 1_555 1_555
O4H Pb1 1_555 1_555
O5H Pb1 1_555 1_555
O6K Pb1 1_555 1_555
Pb1N O1 1_555 1_555
Pb1E O1 1_555 1_555
Pb1H O4 1_555 1_555
Li1 O6 1_555 1_555
C12 O5 1_555 1_555
O3 Pb1 1_555 1_555
O5 Pb1H 1_555 1_555
O6 Pb1N 1_555 1_555
O1K Pb1N 1_555 1_555
O4B Pb1N 1_555 1_555

#END
