
#######################################################################
#
#                 Cambridge Crystallographic Data Centre
#                                CCDC 
#
#######################################################################
#
# If this CIF has been generated from an entry in the Cambridge 
# Structural Database, then it will include bibliographic, chemical, 
# crystal, experimental, refinement or atomic coordinate data resulting 
# from the CCDC's data processing and validation procedures.
#
#######################################################################

data_OSEMUV
_symmetry_cell_setting           monoclinic
_symmetry_space_group_name_H-M   'P 21/n'
_symmetry_Int_Tables_number      14
_space_group_name_Hall           '-P 2yn'
loop_
_symmetry_equiv_pos_site_id
_symmetry_equiv_pos_as_xyz
1 x,y,z
2 1/2-x,1/2+y,1/2-z
3 -x,-y,-z
4 1/2+x,1/2-y,1/2+z
_cell_length_a                   11.2486(3)
_cell_length_b                   7.9854(2)
_cell_length_c                   15.4505(5)
_cell_angle_alpha                90
_cell_angle_beta                 94.418(3)
_cell_angle_gamma                90
_cell_volume                     1383.71
loop_
_atom_site_label
_atom_site_type_symbol
_atom_site_fract_x
_atom_site_fract_y
_atom_site_fract_z
Zn1 Zn 0.61731(5) 0.22047(8) 0.25049(4)
O1 O 0.7345(3) 0.0415(4) 0.2639(2)
N1 N 0.6646(3) 0.4832(5) 0.4849(3)
N2 N 0.6490(4) 0.3155(5) 0.3703(3)
C1 C 0.7668(4) 0.0740(6) 0.4206(3)
C2 C 0.7250(4) 0.3367(7) 0.5094(4)
H1 H 0.7640 0.3123 0.5632
C3 C 0.7771(4) -0.0018(6) 0.3401(4)
C4 C 0.7148(4) 0.2361(6) 0.4374(4)
C5 C 0.6211(4) 0.4677(6) 0.4000(4)
C6 C 0.6454(5) 0.6269(7) 0.5318(4)
H2 H 0.6737 0.6345 0.5898
C7 C 0.5859(6) 0.7546(7) 0.4931(5)
H3 H 0.5716 0.8507 0.5247
C8 C 0.5449(6) 0.7451(7) 0.4054(5)
H4 H 0.5060 0.8360 0.3783
C9 C 0.5619(5) 0.6033(7) 0.3602(4)
H5 H 0.5338 0.5965 0.3021
O2 O 0.4711(4) 0.0854(6) 0.2352(3)
C10 C 0.3752(6) 0.1444(10) 0.2431(5)
H6 H 0.3087 0.0758 0.2455
O3 O 0.3651(5) 0.3009(7) 0.2481(4)
N3 N 0.8299(3) -0.0282(5) 0.4813(3)
N4 N 0.8476(3) -0.1426(5) 0.3513(3)
C11 C 0.9440(5) -0.2786(7) 0.4828(4)
H7 H 0.9780 -0.3663 0.4537
C12 C 0.8776(4) -0.1588(6) 0.4370(4)
C13 C 0.8442(5) -0.0207(7) 0.5695(4)
H8 H 0.8100 0.0663 0.5989
C14 C 0.9600(5) -0.2683(7) 0.5723(4)
H9 H 1.0058 -0.3480 0.6036
C15 C 0.9085(5) -0.1409(7) 0.6144(4)
H10 H 0.9174 -0.1360 0.6747
Zn1A Zn 0.88269(5) -0.27953(8) 0.24951(4)
N4A N 0.6524(3) 0.3574(5) 0.1487(3)
loop_
_geom_bond_atom_site_label_1
_geom_bond_atom_site_label_2
_geom_bond_site_symmetry_1
_geom_bond_site_symmetry_2
Zn1 O1 1_555 1_555
O1 C3 1_555 1_555
N1 C2 1_555 1_555
N2 Zn1 1_555 1_555
C1 C3 1_555 1_555
C2 H1 1_555 1_555
C3 N4 1_555 1_555
C4 N2 1_555 1_555
C5 N1 1_555 1_555
C6 N1 1_555 1_555
H2 C6 1_555 1_555
C7 C6 1_555 1_555
H3 C7 1_555 1_555
C8 C7 1_555 1_555
H4 C8 1_555 1_555
C9 C5 1_555 1_555
H5 C9 1_555 1_555
O2 Zn1 1_555 1_555
C10 O2 1_555 1_555
H6 C10 1_555 1_555
O3 C10 1_555 1_555
N3 C1 1_555 1_555
N4 C12 1_555 1_555
C11 H7 1_555 1_555
C12 N3 1_555 1_555
C13 N3 1_555 1_555
H8 C13 1_555 1_555
C14 C11 1_555 1_555
H9 C14 1_555 1_555
C15 C13 1_555 1_555
H10 C15 1_555 1_555
Zn1A N4 1_555 1_555
N4A Zn1 1_555 1_555
N2 C5 1_555 1_555
C1 C4 1_555 1_555
C2 C4 1_555 1_555
C8 C9 1_555 1_555
C11 C12 1_555 1_555
C14 C15 1_555 1_555

#END
