
#######################################################################
#
#                 Cambridge Crystallographic Data Centre
#                                CCDC 
#
#######################################################################
#
# If this CIF has been generated from an entry in the Cambridge 
# Structural Database, then it will include bibliographic, chemical, 
# crystal, experimental, refinement or atomic coordinate data resulting 
# from the CCDC's data processing and validation procedures.
#
#######################################################################

data_OSENEG
_symmetry_cell_setting           monoclinic
_symmetry_space_group_name_H-M   'P 21/c'
_symmetry_Int_Tables_number      14
_space_group_name_Hall           '-P 2ybc'
loop_
_symmetry_equiv_pos_site_id
_symmetry_equiv_pos_as_xyz
1 x,y,z
2 -x,1/2+y,1/2-z
3 -x,-y,-z
4 x,1/2-y,1/2+z
_cell_length_a                   9.8748(3)
_cell_length_b                   7.5962(3)
_cell_length_c                   21.3359(6)
_cell_angle_alpha                90
_cell_angle_beta                 96.157(2)
_cell_angle_gamma                90
_cell_volume                     1591.19
loop_
_atom_site_label
_atom_site_type_symbol
_atom_site_fract_x
_atom_site_fract_y
_atom_site_fract_z
Co1 Co 0.62917(3) 0.20244(5) 0.302215(14)
O1 O 0.73915(15) 0.0723(2) 0.36848(7)
N1 N 0.80591(17) 0.5199(3) 0.17215(8)
N2 N 0.64169(16) -0.0015(2) 0.10008(8)
O2 O 0.53735(14) 0.0212(2) 0.25063(6)
N3 N 0.51054(17) -0.1496(3) 0.16095(8)
O3 O 0.82206(18) 0.3352(3) 0.39789(8)
N4 N 0.72160(16) 0.3175(3) 0.23282(8)
C1 C 0.7111(2) 0.2569(3) 0.17091(10)
C2 C 0.9120(2) 0.0830(3) 0.45398(9)
C3 C 0.6459(2) 0.0906(3) 0.15676(9)
C4 C 0.8624(2) 0.6782(3) 0.15826(12)
H1 H 0.8804 0.7033 0.1173
C5 C 0.5588(2) -0.1486(3) 0.10449(10)
C6 C 0.8916(2) 0.7969(4) 0.20460(12)
H2 H 0.9313 0.9039 0.1958
C7 C 0.77722(19) 0.4787(3) 0.23238(10)
C8 C 0.7637(2) 0.3801(3) 0.13355(10)
H3 H 0.7699 0.3713 0.0905
C9 C 0.9203(2) -0.0990(3) 0.45596(10)
H4 H 0.8669 -0.1659 0.4263
C10 C 0.56515(19) -0.0059(3) 0.19383(9)
C11 C 0.7046(2) 0.0262(3) 0.04656(10)
H5 H 0.7608 0.1236 0.0440
C12 C 0.6022(3) -0.2342(4) 0.00091(11)
H6 H 0.5890 -0.3114 -0.0330
C13 C 0.8064(2) 0.6028(3) 0.28032(11)
H7 H 0.7879 0.5784 0.3213
C14 C 0.6854(3) -0.0872(4) -0.00246(11)
H8 H 0.7279 -0.0668 -0.0386
C15 C 0.5396(2) -0.2654(3) 0.05438(11)
H9 H 0.4847 -0.3640 0.0569
C16 C 0.8181(2) 0.1736(4) 0.40347(10)
C17 C 0.8624(3) 0.7602(3) 0.26615(13)
H10 H 0.8814 0.8439 0.2977
C18 C 1.0080(2) -0.1821(3) 0.50185(10)
H11 H 1.0130 -0.3043 0.5030
Co1B Co 1.37083(3) -0.20244(5) 0.697785(14)
Co1A Co 0.37083(3) -0.29756(5) 0.197785(14)
Co1C Co 1.62917(3) 0.29756(5) 0.802215(14)
O1B O 1.26085(15) -0.0723(2) 0.63152(7)
N1B N 1.19409(17) -0.5199(3) 0.82785(8)
N2B N 1.35831(16) 0.0015(2) 0.89992(8)
O2B O 1.46265(14) -0.0212(2) 0.74937(6)
N3B N 1.48946(17) 0.1496(3) 0.83905(8)
N3A N 0.48946(17) 0.3504(3) 0.33905(8)
N3C N 1.51054(17) -0.3504(3) 0.66095(8)
O3B O 1.17794(18) -0.3352(3) 0.60211(8)
N4B N 1.27840(16) -0.3175(3) 0.76718(8)
C1B C 1.2889(2) -0.2569(3) 0.82909(10)
C2B C 1.0880(2) -0.0830(3) 0.54602(9)
C3B C 1.3541(2) -0.0906(3) 0.84324(9)
C4B C 1.1376(2) -0.6782(3) 0.84174(12)
H1B H 1.1196 -0.7033 0.8827
C5B C 1.4412(2) 0.1486(3) 0.89551(10)
C6B C 1.1084(2) -0.7969(4) 0.79540(12)
H2B H 1.0687 -0.9039 0.8042
C7B C 1.22278(19) -0.4787(3) 0.76762(10)
C8B C 1.2363(2) -0.3801(3) 0.86645(10)
H3B H 1.2301 -0.3713 0.9095
C9B C 1.0797(2) 0.0990(3) 0.54404(10)
H4B H 1.1331 0.1659 0.5737
C10B C 1.43485(19) 0.0059(3) 0.80617(9)
C11B C 1.2954(2) -0.0262(3) 0.95344(10)
H5B H 1.2392 -0.1236 0.9560
C12B C 1.3978(3) 0.2342(4) 0.99909(11)
H6B H 1.4110 0.3114 1.0330
C13B C 1.1936(2) -0.6028(3) 0.71968(11)
H7B H 1.2121 -0.5784 0.6787
C14B C 1.3146(3) 0.0872(4) 1.00246(11)
H8B H 1.2721 0.0668 1.0386
C15B C 1.4604(2) 0.2654(3) 0.94562(11)
H9B H 1.5153 0.3640 0.9431
C16B C 1.1819(2) -0.1736(4) 0.59653(10)
C17B C 1.1376(3) -0.7602(3) 0.73385(13)
H10B H 1.1186 -0.8439 0.7023
C18B C 0.9920(2) 0.1821(3) 0.49815(10)
H11B H 0.9870 0.3043 0.4970
loop_
_geom_bond_atom_site_label_1
_geom_bond_atom_site_label_2
_geom_bond_site_symmetry_1
_geom_bond_site_symmetry_2
Co1 O1 1_555 1_555
O1 C16 1_555 1_555
N1 C4 1_555 1_555
N2 C3 1_555 1_555
O2 Co1 1_555 1_555
N3 C5 1_555 1_555
O3 C16 1_555 1_555
N4 Co1 1_555 1_555
C1 N4 1_555 1_555
C2 C9 1_555 1_555
C3 C1 1_555 1_555
C4 H1 1_555 1_555
C5 N2 1_555 1_555
C6 C4 1_555 1_555
H2 C6 1_555 1_555
C7 N1 1_555 1_555
C8 N1 1_555 1_555
H3 C8 1_555 1_555
C9 H4 1_555 1_555
C10 O2 1_555 1_555
C11 N2 1_555 1_555
H5 C11 1_555 1_555
C12 H6 1_555 1_555
C13 C7 1_555 1_555
H7 C13 1_555 1_555
C14 C11 1_555 1_555
H8 C14 1_555 1_555
C15 C5 1_555 1_555
H9 C15 1_555 1_555
C16 C2 1_555 1_555
C17 C6 1_555 1_555
H10 C17 1_555 1_555
C18 C9 1_555 1_555
H11 C18 1_555 1_555
Co1B O1B 1_555 1_555
Co1A N3 1_555 1_555
Co1C N3B 1_555 1_555
O1B C16B 1_555 1_555
N1B C4B 1_555 1_555
N2B C3B 1_555 1_555
O2B Co1B 1_555 1_555
N3B C5B 1_555 1_555
N3A Co1 1_555 1_555
N3C Co1B 1_555 1_555
O3B C16B 1_555 1_555
N4B Co1B 1_555 1_555
C1B N4B 1_555 1_555
C2B C18 1_555 1_555
C3B C1B 1_555 1_555
C4B H1B 1_555 1_555
C5B N2B 1_555 1_555
C6B C4B 1_555 1_555
H2B C6B 1_555 1_555
C7B N1B 1_555 1_555
C8B N1B 1_555 1_555
H3B C8B 1_555 1_555
C9B C2B 1_555 1_555
H4B C9B 1_555 1_555
C10B O2B 1_555 1_555
C11B N2B 1_555 1_555
H5B C11B 1_555 1_555
C12B H6B 1_555 1_555
C13B C7B 1_555 1_555
H7B C13B 1_555 1_555
C14B C11B 1_555 1_555
H8B C14B 1_555 1_555
C15B C5B 1_555 1_555
H9B C15B 1_555 1_555
C16B C2B 1_555 1_555
C17B C6B 1_555 1_555
H10B C17B 1_555 1_555
C18B C2 1_555 1_555
H11B C18B 1_555 1_555
N3 C10 1_555 1_555
N4 C7 1_555 1_555
C1 C8 1_555 1_555
C3 C10 1_555 1_555
C12 C14 1_555 1_555
C12 C15 1_555 1_555
C13 C17 1_555 1_555
N3B C10B 1_555 1_555
N4B C7B 1_555 1_555
C1B C8B 1_555 1_555
C3B C10B 1_555 1_555
C9B C18B 1_555 1_555
C12B C14B 1_555 1_555
C12B C15B 1_555 1_555
C13B C17B 1_555 1_555

#END
