
#######################################################################
#
#                 Cambridge Crystallographic Data Centre
#                                CCDC 
#
#######################################################################
#
# If this CIF has been generated from an entry in the Cambridge 
# Structural Database, then it will include bibliographic, chemical, 
# crystal, experimental, refinement or atomic coordinate data resulting 
# from the CCDC's data processing and validation procedures.
#
#######################################################################

data_OSETIQ
_symmetry_cell_setting           monoclinic
_symmetry_space_group_name_H-M   'P 21/n'
_symmetry_Int_Tables_number      14
_space_group_name_Hall           '-P 2yn'
loop_
_symmetry_equiv_pos_site_id
_symmetry_equiv_pos_as_xyz
1 x,y,z
2 1/2-x,1/2+y,1/2-z
3 -x,-y,-z
4 1/2+x,1/2-y,1/2+z
_cell_length_a                   12.3711(2)
_cell_length_b                   16.2858(3)
_cell_length_c                   25.1224(4)
_cell_angle_alpha                90
_cell_angle_beta                 96.223(2)
_cell_angle_gamma                90
_cell_volume                     5031.67
loop_
_atom_site_label
_atom_site_type_symbol
_atom_site_fract_x
_atom_site_fract_y
_atom_site_fract_z
C1 C 0.39277(14) -0.02515(10) 0.65688(7)
C2 C 0.49935(14) -0.02060(11) 0.68360(7)
C3 C 0.57885(16) 0.02495(12) 0.66195(8)
C4 C 0.55901(17) 0.06506(12) 0.61343(9)
C5 C 0.45890(18) 0.05234(13) 0.58456(8)
C6 C 0.37684(15) 0.00625(11) 0.60405(7)
C7 C 0.52956(15) -0.06665(12) 0.73502(8)
H1 H 0.4804 -0.0508 0.7613
H2 H 0.6046 -0.0533 0.7489
H3 H 0.5233 -0.1258 0.7283
C8 C 0.64283(19) 0.11945(15) 0.59241(10)
H4 H 0.7112 0.1156 0.616
H5 H 0.6171 0.1764 0.5914
H6 H 0.6549 0.1018 0.5562
C9 C 0.27644(16) -0.01177(13) 0.56629(8)
H7 H 0.2249 0.0338 0.5671
H8 H 0.2426 -0.0625 0.5774
H9 H 0.2966 -0.0183 0.5299
C10 C 0.02802(14) -0.02654(11) 0.64625(7)
C11 C -0.03359(15) 0.01324(11) 0.60316(8)
C12 C -0.13165(17) -0.02088(13) 0.58164(9)
C13 C -0.17316(15) -0.09174(13) 0.60129(8)
C14 C -0.11318(15) -0.12980(12) 0.64393(8)
C15 C -0.01352(14) -0.09917(11) 0.66646(7)
C16 C -0.00111(17) 0.09334(12) 0.57980(8)
H10 H -0.0193 0.1386 0.6029
H11 H -0.0402 0.1004 0.544
H12 H 0.0774 0.0932 0.5772
C17 C -0.28212(17) -0.12507(14) 0.57806(10)
H13 H -0.3381 -0.083 0.5802
H14 H -0.3002 -0.1736 0.5984
H15 H -0.2788 -0.1402 0.5405
C18 C 0.04471(14) -0.14601(11) 0.71281(7)
H16 H -0.0066 -0.1831 0.7278
H17 H 0.0745 -0.1073 0.7405
H18 H 0.104 -0.1781 0.7003
C19 C -0.00115(13) 0.11932(11) 0.74098(7)
C20 C -0.09861(13) 0.08653(11) 0.75676(7)
C21 C -0.19343(15) 0.13228(13) 0.74858(8)
C22 C -0.19837(14) 0.20800(13) 0.72376(8)
C23 C -0.10347(15) 0.23797(13) 0.70660(8)
C24 C -0.00505(13) 0.19634(10) 0.71531(7)
C25 C -0.10665(14) 0.00189(12) 0.78038(7)
H19 H -0.17 -0.0007 0.8006
H20 H -0.0406 -0.0098 0.8043
H21 H -0.1146 -0.0389 0.7515
C26 C -0.30292(16) 0.25667(15) 0.71540(10)
H22 H -0.365 0.219 0.7128
H23 H -0.3045 0.2886 0.6822
H24 H -0.307 0.294 0.7457
C27 C 0.09299(14) 0.23629(11) 0.69605(7)
H25 H 0.0696 0.2802 0.6707
H26 H 0.1345 0.1952 0.6783
H27 H 0.1388 0.2595 0.7266
C28 C 0.32799(13) 0.07563(10) 0.83760(7)
C29 C 0.44291(14) 0.06672(11) 0.84104(7)
C30 C 0.49769(16) 0.01649(13) 0.87902(8)
C31 C 0.44522(17) -0.02675(12) 0.91618(8)
C32 C 0.33492(17) -0.01284(12) 0.91633(8)
C33 C 0.27657(14) 0.03845(11) 0.87912(7)
C34 C 0.50932(14) 0.11385(13) 0.80418(8)
H28 H 0.5869 0.1049 0.8151
H29 H 0.4929 0.1726 0.8062
H30 H 0.4912 0.0947 0.7673
C35 C 0.50656(19) -0.08435(14) 0.95548(9)
H31 H 0.4627 -0.0961 0.9848
H32 H 0.5752 -0.0588 0.9699
H33 H 0.5217 -0.1356 0.9373
C36 C 0.15861(14) 0.05290(12) 0.88656(7)
H34 H 0.1137 0.0106 0.8673
H35 H 0.1364 0.1071 0.8725
H36 H 0.1492 0.0504 0.9248
C37 C 0.37095(14) 0.32424(10) 0.57008(7)
C38 C 0.45021(14) 0.36989(10) 0.54599(7)
C39 C 0.43092(15) 0.39136(12) 0.49228(8)
C40 C 0.33856(15) 0.36906(11) 0.45970(7)
C41 C 0.26317(16) 0.32132(12) 0.48301(8)
C42 C 0.27822(14) 0.29879(11) 0.53650(7)
C43 C 0.55565(14) 0.39473(12) 0.57667(7)
H37 H 0.6005 0.4236 0.5528
H38 H 0.5942 0.3457 0.5912
H39 H 0.5413 0.4312 0.6061
C44 C 0.32159(17) 0.39157(14) 0.40120(8)
H40 H 0.2842 0.4446 0.397
H41 H 0.2773 0.3493 0.3815
H42 H 0.3922 0.3954 0.3871
C45 C 0.19378(16) 0.24593(13) 0.55827(8)
H43 H 0.1405 0.228 0.5288
H44 H 0.1568 0.2775 0.5841
H45 H 0.2289 0.1978 0.5761
C46 C 0.35336(19) -0.25117(15) 0.53167(9)
H46 H 0.339 -0.2203 0.4977
H47 H 0.3633 -0.3098 0.5229
C47 C 0.45325(19) -0.21915(15) 0.56299(13)
H48 H 0.443 -0.1611 0.5715
H49 H 0.515 -0.2247 0.5419
H50 H 0.4677 -0.2505 0.5963
C48 C 0.16345(18) -0.26666(15) 0.53418(9)
H51 H 0.1642 -0.3264 0.5268
H52 H 0.1518 -0.2373 0.4995
C49 C 0.07390(17) -0.24685(15) 0.56729(10)
H53 H 0.0857 -0.2763 0.6014
H54 H 0.0042 -0.2636 0.5481
H55 H 0.073 -0.1876 0.5741
O1 O 0.26448(10) -0.24247(8) 0.56230(5)
Na1 Na 0.28517(6) -0.23029(4) 0.65188(3)
Na2 Na 0.35731(6) 0.13758(4) 0.67939(3)
Na3 Na 0.25648(6) -0.08746(4) 0.80659(3)
P1 P 0.28324(4) -0.07088(3) 0.691766(19)
P2 P 0.15839(4) 0.02241(3) 0.673277(18)
P3 P 0.12380(3) 0.05629(3) 0.755792(18)
P4 P 0.26001(4) 0.13711(3) 0.781941(18)
P5 P 0.37757(4) 0.29955(3) 0.641038(19)
H56 H 0.4742(14) 0.3303(11) 0.6592(7)
H57 H 0.6502(15) 0.0283(11) 0.6808(7)
H58 H 0.4473(14) 0.0720(11) 0.5491(8)
H59 H -0.1686(16) 0.0072(12) 0.5536(8)
H60 H -0.1383(14) -0.1820(12) 0.6594(7)
H61 H -0.2553(15) 0.1113(11) 0.7577(7)
H62 H -0.1050(13) 0.2859(11) 0.6893(7)
H63 H 0.5757(15) 0.0100(11) 0.8807(7)
H64 H 0.2972(13) -0.0372(10) 0.9421(7)
H65 H 0.1973(13) 0.3047(10) 0.4622(7)
H66 H 0.4840(16) 0.4261(12) 0.4776(8)
Na1A Na 0.21483(6) 0.26971(4) 0.84812(3)
Na3A Na 0.24352(6) 0.41254(4) 0.69341(3)
P4A P 0.23999(4) -0.36289(3) 0.718059(18)
P5A P 0.12243(4) -0.20045(3) 0.858962(19)
loop_
_geom_bond_atom_site_label_1
_geom_bond_atom_site_label_2
_geom_bond_site_symmetry_1
_geom_bond_site_symmetry_2
C1 C2 1_555 1_555
C2 C3 1_555 1_555
C3 C4 1_555 1_555
C4 C5 1_555 1_555
C5 C6 1_555 1_555
C6 C1 1_555 1_555
C7 C2 1_555 1_555
H1 C7 1_555 1_555
H2 C7 1_555 1_555
H3 C7 1_555 1_555
C8 C4 1_555 1_555
H4 C8 1_555 1_555
H5 C8 1_555 1_555
H6 C8 1_555 1_555
C9 C6 1_555 1_555
H7 C9 1_555 1_555
H8 C9 1_555 1_555
H9 C9 1_555 1_555
C10 C11 1_555 1_555
C11 C12 1_555 1_555
C12 C13 1_555 1_555
C13 C14 1_555 1_555
C14 C15 1_555 1_555
C15 C10 1_555 1_555
C16 C11 1_555 1_555
H10 C16 1_555 1_555
H11 C16 1_555 1_555
H12 C16 1_555 1_555
C17 C13 1_555 1_555
H13 C17 1_555 1_555
H14 C17 1_555 1_555
H15 C17 1_555 1_555
C18 C15 1_555 1_555
H16 C18 1_555 1_555
H17 C18 1_555 1_555
H18 C18 1_555 1_555
C19 C20 1_555 1_555
C20 C21 1_555 1_555
C21 C22 1_555 1_555
C22 C23 1_555 1_555
C23 C24 1_555 1_555
C24 C19 1_555 1_555
C25 C20 1_555 1_555
H19 C25 1_555 1_555
H20 C25 1_555 1_555
H21 C25 1_555 1_555
C26 C22 1_555 1_555
H22 C26 1_555 1_555
H23 C26 1_555 1_555
H24 C26 1_555 1_555
C27 C24 1_555 1_555
H25 C27 1_555 1_555
H26 C27 1_555 1_555
H27 C27 1_555 1_555
C28 C29 1_555 1_555
C29 C30 1_555 1_555
C30 C31 1_555 1_555
C31 C32 1_555 1_555
C32 C33 1_555 1_555
C33 C28 1_555 1_555
C34 C29 1_555 1_555
H28 C34 1_555 1_555
H29 C34 1_555 1_555
H30 C34 1_555 1_555
C35 C31 1_555 1_555
H31 C35 1_555 1_555
H32 C35 1_555 1_555
H33 C35 1_555 1_555
C36 C33 1_555 1_555
H34 C36 1_555 1_555
H35 C36 1_555 1_555
H36 C36 1_555 1_555
C37 C38 1_555 1_555
C38 C39 1_555 1_555
C39 C40 1_555 1_555
C40 C41 1_555 1_555
C41 C42 1_555 1_555
C42 C37 1_555 1_555
C43 C38 1_555 1_555
H37 C43 1_555 1_555
H38 C43 1_555 1_555
H39 C43 1_555 1_555
C44 C40 1_555 1_555
H40 C44 1_555 1_555
H41 C44 1_555 1_555
H42 C44 1_555 1_555
C45 C42 1_555 1_555
H43 C45 1_555 1_555
H44 C45 1_555 1_555
H45 C45 1_555 1_555
C46 H46 1_555 1_555
H47 C46 1_555 1_555
C47 C46 1_555 1_555
H48 C47 1_555 1_555
H49 C47 1_555 1_555
H50 C47 1_555 1_555
C48 H51 1_555 1_555
H52 C48 1_555 1_555
C49 C48 1_555 1_555
H53 C49 1_555 1_555
H54 C49 1_555 1_555
H55 C49 1_555 1_555
O1 C46 1_555 1_555
Na1 O1 1_555 1_555
Na2 C1 1_555 1_555
Na3 C33 1_555 1_555
P1 C1 1_555 1_555
P2 C10 1_555 1_555
P3 C19 1_555 1_555
P4 C28 1_555 1_555
P5 C37 1_555 1_555
H56 P5 1_555 1_555
H57 C3 1_555 1_555
H58 C5 1_555 1_555
H59 C12 1_555 1_555
H60 C14 1_555 1_555
H61 C21 1_555 1_555
H62 C23 1_555 1_555
H63 C30 1_555 1_555
H64 C32 1_555 1_555
H65 C41 1_555 1_555
H66 C39 1_555 1_555
Na1A P4 1_555 1_555
Na3A P5 1_555 1_555
P4A Na1 1_555 1_555
P5A Na3 1_555 1_555
C48 O1 1_555 1_555
Na1 P1 1_555 1_555
Na2 P2 1_555 1_555
Na2 P4 1_555 1_555
Na2 P5 1_555 1_555
Na3 P1 1_555 1_555
Na3 P3 1_555 1_555
P1 P2 1_555 1_555
P2 P3 1_555 1_555
P3 P4 1_555 1_555

#END
