
#######################################################################
#
#                 Cambridge Crystallographic Data Centre
#                                CCDC 
#
#######################################################################
#
# If this CIF has been generated from an entry in the Cambridge 
# Structural Database, then it will include bibliographic, chemical, 
# crystal, experimental, refinement or atomic coordinate data resulting 
# from the CCDC's data processing and validation procedures.
#
#######################################################################

data_OSEWAL
_symmetry_cell_setting           monoclinic
_symmetry_space_group_name_H-M   'P 21/c'
_symmetry_Int_Tables_number      14
_space_group_name_Hall           '-P 2ybc'
loop_
_symmetry_equiv_pos_site_id
_symmetry_equiv_pos_as_xyz
1 x,y,z
2 -x,1/2+y,1/2-z
3 -x,-y,-z
4 x,1/2-y,1/2+z
_cell_length_a                   13.4694(19)
_cell_length_b                   10.6140(15)
_cell_length_c                   12.6433(19)
_cell_angle_alpha                90
_cell_angle_beta                 92.801(3)
_cell_angle_gamma                90
_cell_volume                     1805.38
loop_
_atom_site_label
_atom_site_type_symbol
_atom_site_fract_x
_atom_site_fract_y
_atom_site_fract_z
Ag1 Ag 1.02798(3) -0.35775(4) 0.57102(3)
N1 N 1.1777(3) -0.4171(4) 0.6160(3)
C1 C 1.2079(3) -0.4251(5) 0.7181(4)
H1 H 1.1615 -0.4096 0.7687
C2 C 1.3030(3) -0.4547(5) 0.7526(3)
H2 H 1.3197 -0.4622 0.8246
C3 C 1.3740(3) -0.4734(4) 0.6785(3)
C4 C 1.3419(3) -0.4654(4) 0.5728(3)
H3 H 1.3870 -0.4783 0.5204
C5 C 1.2448(3) -0.4390(4) 0.5447(3)
H4 H 1.2251 -0.4362 0.4732
C6 C 1.4827(3) -0.4940(4) 0.7021(3)
O1 O 1.5405(2) -0.4549(4) 0.6379(3)
C7 C 1.5237(3) -0.5588(4) 0.7999(3)
C8 C 1.6265(3) -0.5716(5) 0.8138(4)
H5 H 1.6683 -0.5420 0.7629
C9 C 1.6640(3) -0.6285(5) 0.9037(5)
H6 H 1.7324 -0.6375 0.9152
C10 C 1.6008(3) -0.6727(4) 0.9773(4)
H7 H 1.6252 -0.7109 1.0395
C11 C 1.4985(3) -0.6583(4) 0.9556(3)
N2 N 1.4605(2) -0.6019(3) 0.8691(3)
C12 C 1.4286(3) -0.7046(4) 1.0349(3)
O2 O 1.4593(3) -0.7277(4) 1.1252(3)
C13 C 1.1562(3) -0.7595(5) 1.0632(4)
H8 H 1.1123 -0.7590 1.1177
C14 C 1.2534(3) -0.7257(4) 1.0848(3)
H9 H 1.2743 -0.7020 1.1531
C15 C 1.3205(3) -0.7268(4) 1.0048(3)
C16 C 1.2844(3) -0.7598(4) 0.9050(3)
H10 H 1.3263 -0.7598 0.8488
C17 C 1.1867(3) -0.7926(4) 0.8886(3)
H11 H 1.1641 -0.8153 0.8206
N3 N 1.1224(3) -0.7936(4) 0.9653(3)
Ag1A Ag 0.97202(3) -0.85775(4) 0.92898(3)
N3A N 0.8776(3) -0.2936(4) 0.5347(3)
N4 N 0.9288(4) -0.6209(6) 0.7182(5)
O3 O 0.9846(5) -0.6968(8) 0.7542(6)
O4 O 0.8602(7) -0.5894(11) 0.7594(9)
O7 O 0.9448(7) -0.5702(8) 0.6398(6)
O5 O 1.0378(7) -0.0304(10) 0.4839(9)
O6? O 1.1057(11) -0.088(2) 0.4662(10)
O8? O 1.1035(16) -0.183(2) 0.8608(16)
loop_
_geom_bond_atom_site_label_1
_geom_bond_atom_site_label_2
_geom_bond_site_symmetry_1
_geom_bond_site_symmetry_2
Ag1 N1 1_555 1_555
N1 C1 1_555 1_555
C1 H1 1_555 1_555
C2 C1 1_555 1_555
H2 C2 1_555 1_555
C3 C2 1_555 1_555
C4 C3 1_555 1_555
H3 C4 1_555 1_555
C5 N1 1_555 1_555
H4 C5 1_555 1_555
C6 C3 1_555 1_555
O1 C6 1_555 1_555
C7 C6 1_555 1_555
C8 C7 1_555 1_555
H5 C8 1_555 1_555
C9 C8 1_555 1_555
H6 C9 1_555 1_555
C10 C9 1_555 1_555
H7 C10 1_555 1_555
C11 C10 1_555 1_555
N2 C7 1_555 1_555
C12 C11 1_555 1_555
O2 C12 1_555 1_555
C13 H8 1_555 1_555
C14 C13 1_555 1_555
H9 C14 1_555 1_555
C15 C12 1_555 1_555
C16 C15 1_555 1_555
H10 C16 1_555 1_555
C17 C16 1_555 1_555
H11 C17 1_555 1_555
N3 C13 1_555 1_555
N4 O3 1_555 1_555
O4 N4 1_555 1_555
O7 N4 1_555 1_555
Ag1A N3 1_555 1_555
N3A Ag1 1_555 1_555
C4 C5 1_555 1_555
C11 N2 1_555 1_555
C14 C15 1_555 1_555
C17 N3 1_555 1_555

#END
