
#######################################################################
#
#                 Cambridge Crystallographic Data Centre
#                                CCDC 
#
#######################################################################
#
# If this CIF has been generated from an entry in the Cambridge 
# Structural Database, then it will include bibliographic, chemical, 
# crystal, experimental, refinement or atomic coordinate data resulting 
# from the CCDC's data processing and validation procedures.
#
#######################################################################

data_OSEWOZ
_symmetry_cell_setting           triclinic
_symmetry_space_group_name_H-M   'P -1'
_symmetry_Int_Tables_number      2
_space_group_name_Hall           '-P 1'
loop_
_symmetry_equiv_pos_site_id
_symmetry_equiv_pos_as_xyz
1 x,y,z
2 -x,-y,-z
_cell_length_a                   8.2974(13)
_cell_length_b                   8.4741(12)
_cell_length_c                   13.966(2)
_cell_angle_alpha                100.676(3)
_cell_angle_beta                 94.563(3)
_cell_angle_gamma                104.608(3)
_cell_volume                     925.529
loop_
_atom_site_label
_atom_site_type_symbol
_atom_site_fract_x
_atom_site_fract_y
_atom_site_fract_z
Ag1 Ag 0.07756(5) 0.37245(5) 0.44445(2)
C1 C 0.2440(6) 0.5980(6) 0.3063(3)
H1 H 0.2910 0.6735 0.3651
C2 C 0.2900(6) 0.6397(6) 0.2189(3)
H2 H 0.3661 0.7414 0.2193
C3 C 0.2208(5) 0.5273(5) 0.1312(3)
C4 C 0.1040(5) 0.3810(6) 0.1345(3)
H3 H 0.0522 0.3051 0.0766
C5 C 0.0647(6) 0.3480(6) 0.2237(3)
H4 H -0.0139 0.2485 0.2247
N1 N 0.1345(4) 0.4530(5) 0.3093(3)
C6 C 0.2574(5) 0.5581(5) 0.0311(3)
O1 O 0.1610(4) 0.4743(4) -0.0417(2)
C7 C 0.4115(5) 0.6846(5) 0.0176(3)
C8 C 0.4153(6) 0.7434(6) -0.0688(3)
H5 H 0.3210 0.7102 -0.1160
C9 C 0.5600(7) 0.8507(6) -0.0832(3)
H6 H 0.5641 0.8951 -0.1393
C10 C 0.6998(7) 0.8926(6) -0.0139(3)
H7 H 0.8002 0.9631 -0.0233
C11 C 0.6883(6) 0.8273(5) 0.0711(3)
N2 N 0.5447(4) 0.7260(4) 0.0867(2)
C12 C 0.8424(6) 0.8676(5) 0.1440(3)
O2 O 0.9716(5) 0.9523(5) 0.1256(3)
C13 C 0.9965(6) 0.8422(6) 0.3983(3)
H8 H 1.0893 0.8998 0.4447
C14 C 0.9809(6) 0.8926(6) 0.3104(4)
H9 H 1.0614 0.9832 0.2989
C15 C 0.8453(5) 0.8085(5) 0.2391(3)
C16 C 0.7318(6) 0.6752(6) 0.2602(3)
H10 H 0.6407 0.6124 0.2139
C17 C 0.7542(6) 0.6355(6) 0.3504(4)
H11 H 0.6731 0.5476 0.3641
N3 N 0.8844(4) 0.7146(5) 0.4196(3)
C18 C -0.5085(6) 0.1662(8) 0.3856(4)
F1 F -0.5934(7) 0.0263(8) 0.3476(7)
F2 F -0.5427(6) 0.2058(14) 0.4693(4)
F3 F -0.5848(7) 0.2469(11) 0.3335(5)
C19 C -0.3227(6) 0.2036(6) 0.3745(4)
O3 O -0.2279(5) 0.2797(6) 0.4496(3)
O4 O -0.2949(6) 0.1534(6) 0.2906(3)
Ag1A Ag -0.07756(5) 0.62755(5) 0.55555(2)
Ag1_2 Ag -0.92244(5) 0.37245(5) 0.44445(2)
Ag1A_2 Ag 0.92244(5) 0.62755(5) 0.55555(2)
C1A C -0.2440(6) 0.4020(6) 0.6937(3)
H1A H -0.2910 0.3265 0.6349
C2A C -0.2900(6) 0.3603(6) 0.7811(3)
H2A H -0.3661 0.2586 0.7807
C3A C -0.2208(5) 0.4727(5) 0.8688(3)
C4A C -0.1040(5) 0.6190(6) 0.8655(3)
H3A H -0.0522 0.6949 0.9234
C5A C -0.0647(6) 0.6520(6) 0.7763(3)
H4A H 0.0139 0.7515 0.7753
N1A N -0.1345(4) 0.5470(5) 0.6907(3)
C6A C -0.2574(5) 0.4419(5) 0.9689(3)
O1A O -0.1610(4) 0.5257(4) 1.0417(2)
C7A C -0.4115(5) 0.3154(5) 0.9824(3)
C8A C -0.4153(6) 0.2566(6) 1.0688(3)
H5A H -0.3210 0.2898 1.1160
C9A C -0.5600(7) 0.1493(6) 1.0832(3)
H6A H -0.5641 0.1049 1.1393
C10A C -0.6998(7) 0.1074(6) 1.0139(3)
H7A H -0.8002 0.0369 1.0233
C11A C -0.6883(6) 0.1727(5) 0.9289(3)
N2A N -0.5447(4) 0.2740(4) 0.9133(2)
C12A C -0.8424(6) 0.1324(5) 0.8560(3)
O2A O -0.9716(5) 0.0477(5) 0.8744(3)
C13A C -0.9965(6) 0.1578(6) 0.6017(3)
H8A H -1.0893 0.1002 0.5553
C14A C -0.9809(6) 0.1074(6) 0.6896(4)
H9A H -1.0614 0.0168 0.7011
C15A C -0.8453(5) 0.1915(5) 0.7609(3)
C16A C -0.7318(6) 0.3248(6) 0.7398(3)
H10A H -0.6407 0.3876 0.7861
C17A C -0.7542(6) 0.3645(6) 0.6496(4)
H11A H -0.6731 0.4524 0.6359
N3A N -0.8844(4) 0.2854(5) 0.5804(3)
N3_2 N -0.1156(4) 0.7146(5) 0.4196(3)
N3A_2 N 0.1156(4) 0.2854(5) 0.5804(3)
C18A C 0.5085(6) 0.8338(8) 0.6144(4)
F1A F 0.5934(7) 0.9737(8) 0.6524(7)
F2A F 0.5427(6) 0.7942(14) 0.5307(4)
F3A F 0.5848(7) 0.7531(11) 0.6665(5)
C19A C 0.3227(6) 0.7964(6) 0.6255(4)
O3A O 0.2279(5) 0.7203(6) 0.5504(3)
O4A O 0.2949(6) 0.8466(6) 0.7094(3)
loop_
_geom_bond_atom_site_label_1
_geom_bond_atom_site_label_2
_geom_bond_site_symmetry_1
_geom_bond_site_symmetry_2
Ag1 N1 1_555 1_555
C1 H1 1_555 1_555
C2 C1 1_555 1_555
H2 C2 1_555 1_555
C3 C2 1_555 1_555
C4 C3 1_555 1_555
H3 C4 1_555 1_555
C5 C4 1_555 1_555
H4 C5 1_555 1_555
N1 C1 1_555 1_555
C6 C3 1_555 1_555
O1 C6 1_555 1_555
C7 C6 1_555 1_555
C8 C7 1_555 1_555
H5 C8 1_555 1_555
C9 C8 1_555 1_555
H6 C9 1_555 1_555
C10 C9 1_555 1_555
H7 C10 1_555 1_555
C11 C10 1_555 1_555
N2 C7 1_555 1_555
C12 C11 1_555 1_555
O2 C12 1_555 1_555
C13 H8 1_555 1_555
C14 C13 1_555 1_555
H9 C14 1_555 1_555
C15 C12 1_555 1_555
C16 C15 1_555 1_555
H10 C16 1_555 1_555
C17 C16 1_555 1_555
H11 C17 1_555 1_555
N3 C13 1_555 1_555
C18 F1 1_555 1_555
F2 C18 1_555 1_555
F3 C18 1_555 1_555
C19 C18 1_555 1_555
O3 Ag1 1_555 1_555
O4 C19 1_555 1_555
Ag1A Ag1 1_555 1_555
Ag1_2 N3A 1_555 1_555
Ag1A_2 N3 1_555 1_555
C1A H1A 1_555 1_555
C2A C1A 1_555 1_555
H2A C2A 1_555 1_555
C3A C2A 1_555 1_555
C4A C3A 1_555 1_555
H3A C4A 1_555 1_555
C5A C4A 1_555 1_555
H4A C5A 1_555 1_555
N1A Ag1A 1_555 1_555
C6A C3A 1_555 1_555
O1A C6A 1_555 1_555
C7A C6A 1_555 1_555
C8A C7A 1_555 1_555
H5A C8A 1_555 1_555
C9A C8A 1_555 1_555
H6A C9A 1_555 1_555
C10A C9A 1_555 1_555
H7A C10A 1_555 1_555
C11A C10A 1_555 1_555
N2A C7A 1_555 1_555
C12A C11A 1_555 1_555
O2A C12A 1_555 1_555
C13A H8A 1_555 1_555
C14A C13A 1_555 1_555
H9A C14A 1_555 1_555
C15A C12A 1_555 1_555
C16A C15A 1_555 1_555
H10A C16A 1_555 1_555
C17A C16A 1_555 1_555
H11A C17A 1_555 1_555
N3A C13A 1_555 1_555
N3_2 Ag1A 1_555 1_555
N3A_2 Ag1 1_555 1_555
C18A F1A 1_555 1_555
F2A C18A 1_555 1_555
F3A C18A 1_555 1_555
C19A C18A 1_555 1_555
O3A Ag1A 1_555 1_555
O4A C19A 1_555 1_555
C5 N1 1_555 1_555
C11 N2 1_555 1_555
C14 C15 1_555 1_555
C17 N3 1_555 1_555
C19 O3 1_555 1_555
C1A N1A 1_555 1_555
C5A N1A 1_555 1_555
C11A N2A 1_555 1_555
C14A C15A 1_555 1_555
C17A N3A 1_555 1_555
C19A O3A 1_555 1_555

#END
