
#######################################################################
#
#                 Cambridge Crystallographic Data Centre
#                                CCDC 
#
#######################################################################
#
# If this CIF has been generated from an entry in the Cambridge 
# Structural Database, then it will include bibliographic, chemical, 
# crystal, experimental, refinement or atomic coordinate data resulting 
# from the CCDC's data processing and validation procedures.
#
#######################################################################

data_OSEYAN
_symmetry_cell_setting           triclinic
_symmetry_space_group_name_H-M   'P -1'
_symmetry_Int_Tables_number      2
_space_group_name_Hall           '-P 1'
loop_
_symmetry_equiv_pos_site_id
_symmetry_equiv_pos_as_xyz
1 x,y,z
2 -x,-y,-z
_cell_length_a                   12.2234(4)
_cell_length_b                   13.1332(5)
_cell_length_c                   25.6658(6)
_cell_angle_alpha                94.762(2)
_cell_angle_beta                 96.865(2)
_cell_angle_gamma                109.037(3)
_cell_volume                     3834.11
loop_
_atom_site_label
_atom_site_type_symbol
_atom_site_fract_x
_atom_site_fract_y
_atom_site_fract_z
O1 O 0.1498(3) 0.0360(3) 0.51830(12)
O2 O 0.1635(2) 0.5148(2) 1.03514(12)
O3 O 0.4043(2) 0.6494(2) 1.01210(12)
O4 O 0.1053(3) 0.2611(3) 0.41038(13)
O5 O 0.1367(2) -0.1228(2) 0.54531(13)
O6 O 0.2417(3) 0.2031(3) 0.44119(13)
N1 N 0.2004(4) 0.2465(3) 0.40501(15)
N2 N 0.7568(3) 0.2230(3) 0.60494(17)
O7 O 0.2500(3) 0.2721(3) 0.36708(13)
C1 C 0.7567(4) 0.2979(4) 0.6461(2)
N3 N 0.8469(4) 0.3865(4) 0.58247(18)
C2 C -0.5191(5) -0.2349(4) 0.7490(2)
H1 H -0.5977 -0.2534 0.7347
C3 C 0.8115(4) 0.3994(4) 0.6311(2)
C4 C 0.8118(4) 0.2810(5) 0.5691(2)
H2 H 0.8239 0.2490 0.5376
C5 C 0.5672(4) 0.0724(4) 0.5837(2)
C6 C 0.6999(4) 0.1062(4) 0.6000(3)
H3 H 0.7164 0.0811 0.6335
H4 H 0.7319 0.0716 0.5737
C7 C 0.5187(4) 0.1303(4) 0.5516(2)
H5 H 0.5670 0.1918 0.5398
C8 C 0.7147(4) 0.2873(5) 0.6940(2)
H6 H 0.6771 0.2199 0.7042
C9 C -0.3165(6) -0.1891(5) 0.7390(2)
H7 H -0.2606 -0.1774 0.7165
C10 C 0.3937(5) 0.5668(5) 0.5166(2)
H8 H 0.3944 0.6133 0.4912
C11 C 0.7861(5) 0.4837(6) 0.7105(2)
H9 H 0.7961 0.5457 0.7336
C12 C 0.8244(5) 0.4949(5) 0.6634(2)
H10 H 0.8578 0.5630 0.6529
C13 C 0.4954(4) -0.0150(5) 0.6015(3)
H11 H 0.5271 -0.0531 0.6243
C14 C 0.3988(4) 0.0980(4) 0.53674(19)
H12 H 0.3670 0.1375 0.5148
C15 C 0.3745(4) -0.0490(4) 0.5861(2)
H13 H 0.3264 -0.1109 0.5978
C16 C 0.4794(5) 0.6007(5) 0.5599(3)
H14 H 0.5348 0.6700 0.5633
C17 C -0.4336(6) -0.2152(5) 0.7170(2)
H15 H -0.4542 -0.2192 0.6806
C18 C 0.7327(5) 0.3837(6) 0.7256(2)
H16 H 0.7076 0.3806 0.7584
C19 C 0.9058(7) 1.1714(5) 1.2945(3)
H17 H 0.9226 1.1751 1.3310
C20 C 0.7913(6) 1.1160(5) 1.2693(3)
H18 H 0.7346 1.0820 1.2893
C21 C 0.1943(4) -0.0288(4) 0.53846(17)
C22 C 0.3266(4) 0.0078(4) 0.55412(18)
Eu1 Eu 0.065321(16) 0.159291(16) 0.487132(8)
Eu2 Eu 0.290548(16) 0.466416(16) 0.979784(8)
O11 O 0.4035(2) 0.5222(2) 0.90498(10)
O12 O 0.1254(2) 0.3094(2) 0.97753(12)
O13 O 0.3576(2) 0.4406(3) 1.06990(11)
C27 C 0.3363(4) 0.4403(3) 0.87341(16)
O14 O 0.0237(3) 0.3296(2) 0.50184(12)
C28 C 0.5130(4) 0.6836(3) 1.02563(15)
O15 O 0.0270(3) 0.0256(2) 0.41340(11)
O16 O 0.5748(3) 0.6253(2) 1.02206(12)
O17 O 0.1682(3) 0.5552(3) 0.93155(12)
O18 O -0.0028(2) -0.1443(2) 0.42931(11)
N4 N 0.3785(3) 0.3483(3) 0.62121(14)
O19 O 0.2439(2) 0.3785(2) 0.88688(11)
O20 O -0.0230(3) 0.3322(2) 1.01352(13)
C29 C 0.0145(3) -0.0711(4) 0.39935(16)
C30 C 0.3665(4) 0.4158(4) 0.82020(16)
C31 C 0.0177(3) -0.1015(3) 0.34227(15)
C32 C 0.5720(3) 0.8024(3) 1.04703(16)
C33 C 0.0209(4) 0.2775(3) 0.98660(16)
N5 N 0.1081(3) -0.2319(3) 0.16466(13)
N6 N 0.8459(3) 1.1744(3) 1.13555(16)
N7 N -0.5516(3) -0.2465(3) 0.84361(16)
N8 N 0.2367(3) 0.2952(3) 0.55151(14)
C34 C 0.8482(4) 1.1611(3) 1.18876(19)
C35 C 0.7414(4) 0.9512(4) 1.0868(2)
H19 H 0.8194 0.9763 1.1028
C36 C -0.0026(4) 0.0879(4) 0.94892(19)
H20 H 0.0783 0.1105 0.9506
N9 N 0.1751(4) -0.3563(3) 0.12830(17)
C37 C 0.6830(4) 1.0225(3) 1.08153(17)
C38 C 0.0089(4) -0.2052(4) 0.32155(17)
H21 H -0.0007 -0.2593 0.3435
N10 N -0.3621(3) -0.2011(3) 0.87740(15)
C39 C 0.3107(4) 0.4005(4) 0.54782(18)
C40 C 0.0246(4) -0.1529(4) 0.23477(16)
C41 C 0.0140(4) -0.2290(4) 0.26927(17)
H22 H 0.0103 -0.2987 0.2567
C42 C -0.0545(4) 0.1612(3) 0.96374(16)
C43 C 0.5683(4) 0.9826(4) 1.0622(2)
H23 H 0.5256 1.0296 1.0608
C44 C -0.4846(4) -0.2264(4) 0.80301(19)
C45 C -0.2801(5) -0.1800(4) 0.7917(2)
H24 H -0.2014 -0.1615 0.8058
N11 N 1.0314(4) 1.2611(3) 1.1746(2)
C46 C -0.4747(4) -0.2301(4) 0.8858(2)
H25 H -0.4955 -0.2377 0.9193
C47 C 0.0259(4) -0.1777(4) 0.17669(17)
H26 H -0.0522 -0.2232 0.1599
H27 H 0.0452 -0.1102 0.1613
C48 C 0.2821(4) 0.2702(4) 0.59513(18)
H28 H 0.2502 0.2036 0.6072
C49 C -0.1882(4) -0.0549(4) 0.92942(18)
C50 C 0.3028(4) 0.3165(4) 0.78918(19)
H29 H 0.2424 0.2658 0.8017
C51 C -0.0690(4) -0.0194(4) 0.93146(19)
H30 H -0.0325 -0.0680 0.9210
C52 C 0.9945(6) 1.2208(5) 1.2671(3)
H31 H 1.0709 1.2559 1.2842
C53 C 0.3067(4) 0.4671(4) 0.5091(2)
H32 H 0.2483 0.4455 0.4796
C54 C 0.4202(4) 0.3678(4) 0.72045(17)
C55 C 0.0835(5) -0.3299(4) 0.13570(18)
H33 H 0.0073 -0.3748 0.1222
C56 C 0.0309(5) -0.0252(4) 0.30809(18)
H34 H 0.0392 0.0456 0.3211
C57 C 0.5122(4) 0.8744(3) 1.0446(2)
H35 H 0.4328 0.8496 1.0308
C58 C -0.3664(4) -0.2000(3) 0.82334(19)
C59 C 0.3986(4) 0.4343(4) 0.59155(18)
C60 C 0.6873(4) 0.8425(4) 1.0690(2)
H36 H 0.7299 0.7956 1.0720
C61 C 0.3304(4) 0.2942(5) 0.73956(19)
H37 H 0.2874 0.2285 0.7189
C62 C 0.4557(4) 0.4879(4) 0.80100(17)
H38 H 0.4991 0.5537 0.8215
C63 C -0.1737(4) 0.1274(4) 0.9592(2)
H39 H -0.2107 0.1768 0.9677
C64 C 0.9642(4) 1.2157(4) 1.2121(2)
C65 C 0.9563(4) 1.2354(4) 1.1305(2)
H40 H 0.9773 1.2571 1.0985
C66 C 0.7431(4) 1.1433(3) 1.09601(19)
H41 H 0.7650 1.1747 1.0643
H42 H 0.6876 1.1741 1.1087
C67 C 0.4533(4) 0.3395(5) 0.66749(17)
H43 H 0.5326 0.3866 0.6665
H44 H 0.4537 0.2655 0.6653
C68 C 0.0324(5) -0.0499(4) 0.25514(18)
H45 H 0.0387 0.0034 0.2329
C69 C 0.2695(4) -0.2673(4) 0.15379(19)
C70 C 0.4826(4) 0.4649(4) 0.75151(18)
H46 H 0.5434 0.5155 0.7391
C71 C -0.2577(4) -0.1758(4) 0.9162(2)
H47 H -0.2074 -0.2124 0.9030
H48 H -0.2801 -0.2045 0.9484
C72 C -0.2396(4) 0.0195(4) 0.9420(2)
H49 H -0.3207 -0.0026 0.9391
C73 C 0.4864(4) 0.5365(5) 0.5982(2)
H50 H 0.5462 0.5592 0.6271
C74 C 0.7606(5) 1.1106(4) 1.2163(2)
H51 H 0.6841 1.0744 1.1995
C75 C 0.3060(5) -0.0905(4) 0.2047(2)
H52 H 0.2792 -0.0381 0.2199
C76 C 0.2295(4) -0.1891(4) 0.17662(17)
C77 C 0.3897(5) -0.2492(5) 0.1586(2)
H53 H 0.4183 -0.3002 0.1435
C78 C 0.4224(5) -0.0764(4) 0.2084(3)
H54 H 0.4762 -0.0120 0.2265
C79 C 0.4639(5) -0.1525(5) 0.1866(3)
H55 H 0.5443 -0.1385 0.1909
O5A O -0.1367(2) 0.1228(2) 0.45469(13)
Eu1A Eu -0.065321(16) -0.159291(16) 0.512868(8)
Eu2A Eu 0.709452(16) 0.533584(16) 1.020216(8)
O16A O 0.4252(3) 0.3747(2) 0.97794(12)
O18A O 0.0028(2) 0.1443(2) 0.57069(11)
O8 O 0.2300(3) 0.4352(3) 1.15183(13)
O9 O -0.0429(3) 0.4581(3) 0.43806(16)
C24 C -0.1208(10) 0.4281(9) 0.3864(4)
C25 C -0.2170(10) 0.3469(9) 0.3896(4)
O10 O 0.2135(3) 0.6170(3) 0.83839(13)
C23 C 0.1218(9) 0.5367(8) 0.7928(4)
C26 C 0.1765(11) 0.5625(10) 0.7564(5)
loop_
_geom_bond_atom_site_label_1
_geom_bond_atom_site_label_2
_geom_bond_site_symmetry_1
_geom_bond_site_symmetry_2
O1 C21 1_555 1_555
O2 Eu2 1_555 1_555
O3 Eu2 1_555 1_555
O4 N1 1_555 1_555
O5 C21 1_555 1_555
O6 N1 1_555 1_555
N1 O7 1_555 1_555
N2 C1 1_555 1_555
C1 C3 1_555 1_555
N3 C3 1_555 1_555
C2 H1 1_555 1_555
C3 C12 1_555 1_555
C4 N2 1_555 1_555
H2 C4 1_555 1_555
C5 C6 1_555 1_555
C6 N2 1_555 1_555
H3 C6 1_555 1_555
H4 C6 1_555 1_555
C7 C5 1_555 1_555
H5 C7 1_555 1_555
C8 C1 1_555 1_555
H6 C8 1_555 1_555
C9 H7 1_555 1_555
C10 H8 1_555 1_555
C11 H9 1_555 1_555
C12 C11 1_555 1_555
H10 C12 1_555 1_555
C13 C5 1_555 1_555
H11 C13 1_555 1_555
C14 C7 1_555 1_555
H12 C14 1_555 1_555
C15 C13 1_555 1_555
H13 C15 1_555 1_555
C16 C10 1_555 1_555
H14 C16 1_555 1_555
C17 C2 1_555 1_555
H15 C17 1_555 1_555
C18 C8 1_555 1_555
H16 C18 1_555 1_555
C19 H17 1_555 1_555
C20 C19 1_555 1_555
H18 C20 1_555 1_555
C21 C22 1_555 1_555
C22 C14 1_555 1_555
O9 C24 1_555 1_555
O10 C23 1_555 1_555
C23 C26 1_555 1_555
C24 C25 1_555 1_555
Eu1 O1 1_555 1_555
Eu2 O11 1_555 1_555
O11 C27 1_555 1_555
O12 Eu2 1_555 1_555
O13 Eu2 1_555 1_555
C27 O19 1_555 1_555
O14 Eu1 1_555 1_555
C28 O3 1_555 1_555
O15 Eu1 1_555 1_555
O16 C28 1_555 1_555
O17 Eu2 1_555 1_555
O18 C29 1_555 1_555
N4 C48 1_555 1_555
O19 Eu2 1_555 1_555
O20 C33 1_555 1_555
C29 O15 1_555 1_555
C30 C27 1_555 1_555
C31 C29 1_555 1_555
C32 C28 1_555 1_555
C33 O12 1_555 1_555
N5 C47 1_555 1_555
N6 C34 1_555 1_555
N7 C44 1_555 1_555
N8 Eu1 1_555 1_555
C34 C64 1_555 1_555
C35 H19 1_555 1_555
C36 H20 1_555 1_555
N9 C55 1_555 1_555
C37 C35 1_555 1_555
C38 C31 1_555 1_555
H21 C38 1_555 1_555
N10 C46 1_555 1_555
C39 N8 1_555 1_555
C40 C41 1_555 1_555
C41 C38 1_555 1_555
H22 C41 1_555 1_555
C42 C33 1_555 1_555
C43 C37 1_555 1_555
H23 C43 1_555 1_555
C44 C2 1_555 1_555
C45 C9 1_555 1_555
H24 C45 1_555 1_555
N11 C64 1_555 1_555
C46 N7 1_555 1_555
H25 C46 1_555 1_555
C47 C40 1_555 1_555
H26 C47 1_555 1_555
H27 C47 1_555 1_555
C48 N8 1_555 1_555
H28 C48 1_555 1_555
C49 C51 1_555 1_555
C50 C30 1_555 1_555
H29 C50 1_555 1_555
C51 C36 1_555 1_555
H30 C51 1_555 1_555
C52 C19 1_555 1_555
H31 C52 1_555 1_555
C53 C10 1_555 1_555
H32 C53 1_555 1_555
C54 C61 1_555 1_555
C55 N5 1_555 1_555
H33 C55 1_555 1_555
C56 C31 1_555 1_555
H34 C56 1_555 1_555
C57 C32 1_555 1_555
H35 C57 1_555 1_555
C58 N10 1_555 1_555
C59 N4 1_555 1_555
C60 C32 1_555 1_555
H36 C60 1_555 1_555
C61 C50 1_555 1_555
H37 C61 1_555 1_555
C62 C30 1_555 1_555
H38 C62 1_555 1_555
C63 C42 1_555 1_555
H39 C63 1_555 1_555
C64 C52 1_555 1_555
C65 N6 1_555 1_555
H40 C65 1_555 1_555
C66 N6 1_555 1_555
H41 C66 1_555 1_555
H42 C66 1_555 1_555
C67 N4 1_555 1_555
H43 C67 1_555 1_555
H44 C67 1_555 1_555
C68 C40 1_555 1_555
H45 C68 1_555 1_555
C69 N9 1_555 1_555
C70 C54 1_555 1_555
H46 C70 1_555 1_555
C71 N10 1_555 1_555
H47 C71 1_555 1_555
H48 C71 1_555 1_555
C72 C49 1_555 1_555
H49 C72 1_555 1_555
C73 C16 1_555 1_555
H50 C73 1_555 1_555
C74 C20 1_555 1_555
H51 C74 1_555 1_555
C75 H52 1_555 1_555
C76 N5 1_555 1_555
C77 C69 1_555 1_555
H53 C77 1_555 1_555
C78 C75 1_555 1_555
H54 C78 1_555 1_555
C79 C77 1_555 1_555
H55 C79 1_555 1_555
O5A Eu1 1_555 1_555
Eu1A O5 1_555 1_555
Eu2A O16 1_555 1_555
O16A Eu2 1_555 1_555
O18A Eu1 1_555 1_555
O4 Eu1 1_555 1_555
O6 Eu1 1_555 1_555
N3 C4 1_555 1_555
C9 C17 1_555 1_555
C11 C18 1_555 1_555
C15 C22 1_555 1_555
O18 Eu1A 1_555 1_555
C34 C74 1_555 1_555
C35 C60 1_555 1_555
C36 C42 1_555 1_555
C37 C66 1_555 1_555
C39 C53 1_555 1_555
C39 C59 1_555 1_555
C43 C57 1_555 1_555
C44 C58 1_555 1_555
C45 C58 1_555 1_555
N11 C65 1_555 1_555
C49 C71 1_555 1_555
C54 C67 1_555 1_555
C56 C68 1_555 1_555
C59 C73 1_555 1_555
C62 C70 1_555 1_555
C63 C72 1_555 1_555
C69 C76 1_555 1_555
C75 C76 1_555 1_555
C78 C79 1_555 1_555

#END
