
#######################################################################
#
#                 Cambridge Crystallographic Data Centre
#                                CCDC 
#
#######################################################################
#
# If this CIF has been generated from an entry in the Cambridge 
# Structural Database, then it will include bibliographic, chemical, 
# crystal, experimental, refinement or atomic coordinate data resulting 
# from the CCDC's data processing and validation procedures.
#
#######################################################################

data_OSIBOI01
_symmetry_cell_setting           monoclinic
_symmetry_space_group_name_H-M   'P 21/c'
_symmetry_Int_Tables_number      14
_space_group_name_Hall           '-P 2ybc'
loop_
_symmetry_equiv_pos_site_id
_symmetry_equiv_pos_as_xyz
1 x,y,z
2 -x,1/2+y,1/2-z
3 -x,-y,-z
4 x,1/2-y,1/2+z
_cell_length_a                   11.4247(15)
_cell_length_b                   5.1604(7)
_cell_length_c                   15.958(2)
_cell_angle_alpha                90
_cell_angle_beta                 108.061(4)
_cell_angle_gamma                90
_cell_volume                     894.463
loop_
_atom_site_label
_atom_site_type_symbol
_atom_site_fract_x
_atom_site_fract_y
_atom_site_fract_z
V1 V 0.4600(2) 0.2689(5) 0.54547(14)
O1 O 0.5797(10) 0.5579(16) 0.5741(6)
C1 C 0.752(2) 0.830(5) 0.6473(14)
C2 C 0.840(2) 0.888(3) 0.726(2)
H1 H 0.8928 1.0253 0.7265
C3 C 0.781(3) 0.556(5) 0.8031(13)
H2 H 0.7913 0.4615 0.8546
C4 C 0.606(2) 0.276(4) 0.7352(11)
H3 H 0.5995 0.2424 0.7909
C5 C 0.6855(18) 0.484(4) 0.7257(18)
C6 C 0.8572(16) 0.761(6) 0.8041(15)
O2 O 0.5431(9) 0.136(2) 0.6701(7)
C7 C 0.6738(18) 0.626(4) 0.6466(13)
C8 C 0.7350(15) 1.008(3) 0.5676(12)
H4 H 0.7706 1.1756 0.5884
H5 H 0.7805 0.9359 0.5309
O3 O 0.3461(9) 0.3895(19) 0.5718(6)
C9 C 0.9515(14) 0.839(4) 0.8928(10)
H6 H 0.9119 0.9454 0.9253
H7 H 1.0176 0.9340 0.8820
H8 H 0.9836 0.6860 0.9263
O4 O 0.6121(9) 1.0439(18) 0.5157(6)
V1B V 0.5400(2) 0.7311(5) 0.45453(14)
V1_2 V 0.4600(2) 1.2689(5) 0.54547(14)
O1B O 0.4203(10) 0.4421(16) 0.4259(6)
O4_2 O 0.6121(9) 0.0439(18) 0.5157(6)
O4B O 0.3879(9) -0.0439(18) 0.4843(6)
loop_
_geom_bond_atom_site_label_1
_geom_bond_atom_site_label_2
_geom_bond_site_symmetry_1
_geom_bond_site_symmetry_2
V1 O1 1_555 1_555
O1 C7 1_555 1_555
C1 C2 1_555 1_555
C2 H1 1_555 1_555
C3 H2 1_555 1_555
C4 H3 1_555 1_555
C5 C3 1_555 1_555
C6 C2 1_555 1_555
O2 V1 1_555 1_555
C7 C1 1_555 1_555
C8 C1 1_555 1_555
H4 C8 1_555 1_555
H5 C8 1_555 1_555
O3 V1 1_555 1_555
C9 C6 1_555 1_555
H6 C9 1_555 1_555
H7 C9 1_555 1_555
H8 C9 1_555 1_555
O4 C8 1_555 1_555
V1B O1 1_555 1_555
V1_2 O4 1_555 1_555
O1B V1 1_555 1_555
O4_2 V1 1_555 1_555
O4B V1 1_555 1_555
C3 C6 1_555 1_555
C4 C5 1_555 1_555
C4 O2 1_555 1_555
C5 C7 1_555 1_555
O4 V1B 1_555 1_555
V1B O1B 1_555 1_555

#END
