
#######################################################################
#
#                 Cambridge Crystallographic Data Centre
#                                CCDC 
#
#######################################################################
#
# If this CIF has been generated from an entry in the Cambridge 
# Structural Database, then it will include bibliographic, chemical, 
# crystal, experimental, refinement or atomic coordinate data resulting 
# from the CCDC's data processing and validation procedures.
#
#######################################################################

data_OSIKIL
_symmetry_cell_setting           orthorhombic
_symmetry_space_group_name_H-M   'P b c a'
_symmetry_Int_Tables_number      61
_space_group_name_Hall           '-P 2ac 2ab'
loop_
_symmetry_equiv_pos_site_id
_symmetry_equiv_pos_as_xyz
1 x,y,z
2 1/2-x,-y,1/2+z
3 -x,1/2+y,1/2-z
4 1/2+x,1/2-y,-z
5 -x,-y,-z
6 1/2+x,y,1/2-z
7 x,1/2-y,1/2+z
8 1/2-x,1/2+y,z
_cell_length_a                   27.46900(10)
_cell_length_b                   13.6888(3)
_cell_length_c                   45.9961(5)
_cell_angle_alpha                90
_cell_angle_beta                 90
_cell_angle_gamma                90
_cell_volume                     17295.3
loop_
_atom_site_label
_atom_site_type_symbol
_atom_site_fract_x
_atom_site_fract_y
_atom_site_fract_z
C1 C 0.6802(5) 0.8763(8) 0.02997(19)
H1 H 0.6491 0.8868 0.0195
H2 H 0.7070 0.8893 0.0161
C2 C 0.7262(3) 0.8233(6) 0.0841(2)
H3 H 0.6992 0.8063 0.0974
H4 H 0.7572 0.8141 0.0947
C3 C 0.7215(3) 0.9275(5) 0.07542(17)
H5 H 0.7155 0.9669 0.0931
H6 H 0.7529 0.9493 0.0671
C76 C 0.6835(2) 0.9478(6) 0.05467(15)
H71 H 0.6889 1.0139 0.0465
H72 H 0.6519 0.9486 0.0650
C77 C 0.7249(4) 0.7529(6) 0.0574(2)
H73 H 0.7554 0.7593 0.0461
H74 H 0.7221 0.6845 0.0641
C78 C 0.6827(4) 0.7783(10) 0.0389(3)
H75 H 0.6835 0.7364 0.0213
H76 H 0.6525 0.7624 0.0497
Zn1 Zn 0.530418(18) -0.14630(3) 0.090025(12)
Zn2 Zn 0.74593(2) 0.64990(3) 0.188179(10)
Zn3 Zn 0.945790(18) 0.34737(3) 0.428038(11)
I1 I 0.692929(13) 0.80191(2) 0.196285(7)
I2 I 1.014859(10) 0.43310(2) 0.401578(7)
I3 I 0.512908(12) -0.22674(2) 0.041043(8)
I4 I 0.936727(13) 0.16477(2) 0.437875(9)
I5 I 0.836761(13) 0.67120(3) 0.178296(8)
I6 I 0.580188(13) -0.23019(2) 0.129244(9)
N1 N 0.56005(12) -0.0106(2) 0.08165(8)
N2 N 0.59876(13) 0.3239(2) 0.04317(7)
N3 N 0.63583(12) 0.3214(2) 0.08998(7)
N4 N 0.63443(12) 0.4680(2) 0.06257(7)
N5 N 0.71305(13) 0.5701(2) 0.15571(7)
N6 N 0.73703(13) 0.5633(2) 0.22443(7)
N7 N 0.67525(12) 0.4501(2) 0.32168(7)
N8 N 0.76128(12) 0.4481(2) 0.32611(7)
N9 N 0.71219(11) 0.4157(2) 0.36746(7)
N10 N 0.88339(12) 0.3846(2) 0.40534(7)
N11 N 0.56712(13) 0.5796(2) -0.03327(7)
N12 N 0.53471(12) 0.3906(2) 0.39036(8)
C4 C 0.58255(19) 0.0389(3) 0.10311(10)
H7 H 0.5859 0.0088 0.1216
C5 C 0.6009(2) 0.1318(3) 0.09915(10)
H8 H 0.6170 0.1643 0.1146
C6 C 0.59559(15) 0.1775(3) 0.07226(9)
C7 C 0.57234(15) 0.1256(3) 0.05016(10)
H9 H 0.5680 0.1540 0.0315
C8 C 0.55569(16) 0.0324(3) 0.05587(10)
H10 H 0.5404 -0.0029 0.0406
C9 C 0.56700(17) 0.4312(3) -0.00566(9)
H11 H 0.5567 0.3652 -0.0039
C10 C 0.55347(17) 0.4861(3) -0.02990(10)
H12 H 0.5340 0.4564 -0.0445
C11 C 0.59363(18) 0.6210(3) -0.01225(10)
H13 H 0.6028 0.6875 -0.0144
C12 C 0.60857(18) 0.5713(3) 0.01264(10)
H14 H 0.6272 0.6033 0.0272
C13 C 0.59544(15) 0.4733(3) 0.01574(8)
C14 C 0.61145(15) 0.2794(3) 0.06827(9)
C15 C 0.61093(15) 0.4178(3) 0.04186(8)
C16 C 0.64531(14) 0.4164(3) 0.08622(8)
C17 C 0.66925(14) 0.4690(3) 0.11068(8)
C18 C 0.67042(16) 0.5701(3) 0.11080(9)
H15 H 0.6563 0.6061 0.0953
C19 C 0.69241(17) 0.6178(3) 0.13372(9)
H16 H 0.6928 0.6872 0.1338
C20 C 0.71159(18) 0.4730(3) 0.15571(10)
H17 H 0.7263 0.4387 0.1714
C21 C 0.68947(17) 0.4199(3) 0.13374(9)
H18 H 0.6883 0.3506 0.1346
C22 C 0.68511(15) 0.5164(3) 0.26376(9)
H19 H 0.6531 0.5091 0.2713
C23 C 0.69274(16) 0.5543(3) 0.23601(9)
H20 H 0.6653 0.5744 0.2249
C24 C 0.77560(15) 0.5318(3) 0.23964(8)
H21 H 0.8069 0.5354 0.2310
C25 C 0.77160(15) 0.4943(3) 0.26744(8)
H22 H 0.7995 0.4720 0.2777
C26 C 0.72540(15) 0.4898(2) 0.28016(8)
C27 C 0.62066(15) 0.4069(3) 0.39356(9)
H23 H 0.6490 0.4080 0.4054
C28 C 0.57558(15) 0.3936(3) 0.40611(9)
H24 H 0.5735 0.3864 0.4266
C29 C 0.53798(16) 0.4033(3) 0.36134(10)
H25 H 0.5090 0.4023 0.3501
C30 C 0.58251(15) 0.4177(3) 0.34735(10)
H26 H 0.5839 0.4269 0.3269
C31 C 0.62472(14) 0.4184(3) 0.36388(8)
C32 C 0.67325(14) 0.4284(2) 0.35006(8)
C33 C 0.72017(14) 0.4594(2) 0.31107(8)
C34 C 0.75519(13) 0.4262(2) 0.35418(8)
C35 C 0.79948(14) 0.4135(2) 0.37207(8)
C36 C 0.84578(14) 0.4272(3) 0.35994(9)
H27 H 0.8492 0.4459 0.3402
C37 C 0.88623(15) 0.4131(3) 0.37722(9)
H28 H 0.9175 0.4240 0.3690
C38 C 0.83875(15) 0.3719(3) 0.41667(9)
H29 H 0.8363 0.3515 0.4364
C39 C 0.79639(14) 0.3868(3) 0.40137(8)
H30 H 0.7656 0.3792 0.4105
Zn1B Zn 0.469582(18) 0.35370(3) 0.409975(12)
Zn3A Zn 0.554210(18) 0.65263(3) -0.071962(11)
N11A N 0.93288(13) 0.4204(2) 0.46673(7)
N12B N 0.46529(12) -0.1094(2) 0.10964(8)
C40 C 0.3224(4) 0.7407(4) 0.22915(14)
H31 H 0.3390 0.7541 0.2468
C41 C 0.3488(3) 0.7139(4) 0.20476(13)
H32 H 0.3832 0.7080 0.2058
C42 C 0.3240(2) 0.6952(3) 0.17802(11)
C43 C 0.2730(2) 0.7013(3) 0.17732(10)
C44 C 0.2471(3) 0.7284(3) 0.20288(11)
H33 H 0.2126 0.7329 0.2026
C45 C 0.2726(3) 0.7483(3) 0.22824(12)
H34 H 0.2553 0.7673 0.2452
C46 C 0.35072(19) 0.6736(3) 0.15136(12)
C47 C 0.4029(2) 0.6673(4) 0.15060(16)
H35 H 0.4209 0.6733 0.1681
C48 C 0.4271(2) 0.6527(4) 0.12477(17)
H36 H 0.4617 0.6489 0.1247
C49 C 0.4026(2) 0.6437(4) 0.09975(17)
H37 H 0.4200 0.6352 0.0821
C50 C 0.3527(2) 0.6466(3) 0.09923(13)
H38 H 0.3361 0.6387 0.0813
C51 C 0.32577(18) 0.6610(3) 0.12485(11)
C52 C 0.27247(18) 0.6603(3) 0.12463(10)
C53 C 0.2464(2) 0.6375(3) 0.09908(11)
H39 H 0.2637 0.6231 0.0817
C54 C 0.1960(2) 0.6359(3) 0.09911(13)
H40 H 0.1789 0.6209 0.0817
C55 C 0.1708(2) 0.6557(3) 0.12392(14)
H41 H 0.1362 0.6546 0.1238
C56 C 0.1955(2) 0.6775(3) 0.14914(13)
H42 H 0.1775 0.6909 0.1663
C57 C 0.24617(17) 0.6804(3) 0.15030(10)
S1 S 0.53561(9) 0.57841(14) 0.20367(5)
S2 S 0.58071(6) 0.39153(15) 0.22045(4)
S3 S 0.50708(8) 0.36710(18) 0.27415(4)
S4 S 0.45710(9) 0.5521(2) 0.25816(6)
C58 C 0.5053(3) 0.4688(6) 0.25042(16)
C59 C 0.5374(3) 0.4809(5) 0.22879(14)
C60 C 0.5702(3) 0.5168(5) 0.17757(15)
H43 H 0.5748 0.5428 0.1586
C61 C 0.5901(2) 0.4304(5) 0.18556(14)
H44 H 0.6087 0.3927 0.1722
C62 C 0.4510(3) 0.3912(9) 0.29085(19)
H45 H 0.4374 0.3471 0.3046
C63 C 0.4272(4) 0.4770(9) 0.2833(2)
H46 H 0.3965 0.4940 0.2913
C64 C 0.2572(3) 0.8916(6) 0.02024(15)
H47 H 0.2264 0.9170 0.0284
H48 H 0.2560 0.8995 -0.0011
C65 C 0.2620(3) 0.7860(6) 0.02748(16)
H49 H 0.2350 0.7493 0.0183
H50 H 0.2595 0.7773 0.0488
C66 C 0.3109(3) 0.7446(6) 0.01678(15)
H51 H 0.3143 0.6762 0.0235
H52 H 0.3114 0.7447 -0.0047
C67 C 0.3532(3) 0.8046(5) 0.02814(15)
H53 H 0.3558 0.7953 0.0494
H54 H 0.3837 0.7804 0.0192
C68 C 0.3479(2) 0.9121(6) 0.02173(15)
H55 H 0.3505 0.9229 0.0005
H56 H 0.3747 0.9483 0.0313
C69 C 0.2999(3) 0.9508(5) 0.03239(14)
H57 H 0.2964 1.0199 0.0264
H58 H 0.2992 0.9483 0.0539
C70 C 0.4254(3) 0.1369(5) 0.20121(16)
H59 H 0.4342 0.0759 0.2115
H60 H 0.3954 0.1239 0.1899
C71 C 0.4651(3) 0.1625(6) 0.1808(2)
H61 H 0.4670 0.1123 0.1654
H62 H 0.4965 0.1628 0.1914
C72 C 0.4569(4) 0.2616(5) 0.16707(19)
H63 H 0.4854 0.2788 0.1549
H64 H 0.4280 0.2585 0.1542
C73 C 0.4066(3) 0.3158(6) 0.21059(19)
H65 H 0.4050 0.3655 0.2262
H66 H 0.3754 0.3168 0.1998
C74 C 0.4147(4) 0.2161(6) 0.2236(2)
H67 H 0.3854 0.1973 0.2348
H68 H 0.4423 0.2198 0.2375
C75 C 0.4492(4) 0.3397(5) 0.1897(2)
H69 H 0.4425 0.4026 0.1798
H70 H 0.4795 0.3476 0.2011
loop_
_geom_bond_atom_site_label_1
_geom_bond_atom_site_label_2
_geom_bond_site_symmetry_1
_geom_bond_site_symmetry_2
C1 H1 1_555 1_555
H2 C1 1_555 1_555
C2 H3 1_555 1_555
H4 C2 1_555 1_555
C3 C2 1_555 1_555
H5 C3 1_555 1_555
H6 C3 1_555 1_555
Zn1 I3 1_555 1_555
Zn2 I1 1_555 1_555
Zn3 I2 1_555 1_555
I4 Zn3 1_555 1_555
I5 Zn2 1_555 1_555
I6 Zn1 1_555 1_555
N1 Zn1 1_555 1_555
N2 C14 1_555 1_555
N3 C14 1_555 1_555
N4 C15 1_555 1_555
N5 Zn2 1_555 1_555
N6 Zn2 1_555 1_555
N7 C32 1_555 1_555
N8 C33 1_555 1_555
N9 C32 1_555 1_555
N10 Zn3 1_555 1_555
N11 C10 1_555 1_555
N12 C28 1_555 1_555
C4 N1 1_555 1_555
H7 C4 1_555 1_555
C5 C4 1_555 1_555
H8 C5 1_555 1_555
C6 C5 1_555 1_555
C7 C6 1_555 1_555
H9 C7 1_555 1_555
C8 N1 1_555 1_555
H10 C8 1_555 1_555
C9 H11 1_555 1_555
C10 C9 1_555 1_555
H12 C10 1_555 1_555
C11 N11 1_555 1_555
H13 C11 1_555 1_555
C12 C11 1_555 1_555
H14 C12 1_555 1_555
C13 C9 1_555 1_555
C14 C6 1_555 1_555
C15 N2 1_555 1_555
C16 N3 1_555 1_555
C17 C16 1_555 1_555
C18 C17 1_555 1_555
H15 C18 1_555 1_555
C19 N5 1_555 1_555
H16 C19 1_555 1_555
C20 N5 1_555 1_555
H17 C20 1_555 1_555
C21 C17 1_555 1_555
H18 C21 1_555 1_555
C22 H19 1_555 1_555
C23 N6 1_555 1_555
H20 C23 1_555 1_555
C24 N6 1_555 1_555
H21 C24 1_555 1_555
C25 C24 1_555 1_555
H22 C25 1_555 1_555
C26 C22 1_555 1_555
C27 H23 1_555 1_555
C28 C27 1_555 1_555
H24 C28 1_555 1_555
C29 N12 1_555 1_555
H25 C29 1_555 1_555
C30 C29 1_555 1_555
H26 C30 1_555 1_555
C31 C27 1_555 1_555
C32 C31 1_555 1_555
C33 N7 1_555 1_555
C34 N8 1_555 1_555
C35 C34 1_555 1_555
C36 C35 1_555 1_555
H27 C36 1_555 1_555
C37 N10 1_555 1_555
H28 C37 1_555 1_555
C38 N10 1_555 1_555
H29 C38 1_555 1_555
C39 C35 1_555 1_555
H30 C39 1_555 1_555
C40 H31 1_555 1_555
C41 C40 1_555 1_555
H32 C41 1_555 1_555
C42 C41 1_555 1_555
C43 C42 1_555 1_555
C44 C43 1_555 1_555
H33 C44 1_555 1_555
C45 C40 1_555 1_555
H34 C45 1_555 1_555
C46 C42 1_555 1_555
C47 C46 1_555 1_555
H35 C47 1_555 1_555
C48 C47 1_555 1_555
H36 C48 1_555 1_555
C49 C48 1_555 1_555
H37 C49 1_555 1_555
C50 C49 1_555 1_555
H38 C50 1_555 1_555
C51 C46 1_555 1_555
C52 C51 1_555 1_555
C53 C52 1_555 1_555
H39 C53 1_555 1_555
C54 C53 1_555 1_555
H40 C54 1_555 1_555
C55 C54 1_555 1_555
H41 C55 1_555 1_555
C56 C55 1_555 1_555
H42 C56 1_555 1_555
C57 C43 1_555 1_555
S1 C59 1_555 1_555
S2 C59 1_555 1_555
S3 C58 1_555 1_555
S4 C58 1_555 1_555
C58 C59 1_555 1_555
C60 S1 1_555 1_555
H43 C60 1_555 1_555
C61 S2 1_555 1_555
H44 C61 1_555 1_555
C62 S3 1_555 1_555
H45 C62 1_555 1_555
C63 S4 1_555 1_555
H46 C63 1_555 1_555
C64 H47 1_555 1_555
H48 C64 1_555 1_555
C65 C64 1_555 1_555
H49 C65 1_555 1_555
H50 C65 1_555 1_555
C66 C65 1_555 1_555
H51 C66 1_555 1_555
H52 C66 1_555 1_555
C67 C66 1_555 1_555
H53 C67 1_555 1_555
H54 C67 1_555 1_555
C68 C67 1_555 1_555
H55 C68 1_555 1_555
H56 C68 1_555 1_555
C69 C64 1_555 1_555
H57 C69 1_555 1_555
H58 C69 1_555 1_555
C70 H59 1_555 1_555
H60 C70 1_555 1_555
C71 C70 1_555 1_555
H61 C71 1_555 1_555
H62 C71 1_555 1_555
C72 C71 1_555 1_555
H63 C72 1_555 1_555
H64 C72 1_555 1_555
C73 H65 1_555 1_555
H66 C73 1_555 1_555
C74 C70 1_555 1_555
H67 C74 1_555 1_555
H68 C74 1_555 1_555
C75 C72 1_555 1_555
H69 C75 1_555 1_555
H70 C75 1_555 1_555
C76 C1 1_555 1_555
H71 C76 1_555 1_555
H72 C76 1_555 1_555
C77 C2 1_555 1_555
H73 C77 1_555 1_555
H74 C77 1_555 1_555
C78 C1 1_555 1_555
H75 C78 1_555 1_555
H76 C78 1_555 1_555
Zn1B N12 1_555 1_555
Zn3A N11 1_555 1_555
N11A Zn3 1_555 1_555
N12B Zn1 1_555 1_555
C3 C76 1_555 1_555
N4 C16 1_555 1_555
N9 C34 1_555 1_555
C7 C8 1_555 1_555
C12 C13 1_555 1_555
C13 C15 1_555 1_555
C18 C19 1_555 1_555
C20 C21 1_555 1_555
C22 C23 1_555 1_555
C25 C26 1_555 1_555
C26 C33 1_555 1_555
C30 C31 1_555 1_555
C36 C37 1_555 1_555
C38 C39 1_555 1_555
C44 C45 1_555 1_555
C50 C51 1_555 1_555
C52 C57 1_555 1_555
C56 C57 1_555 1_555
C60 C61 1_555 1_555
C62 C63 1_555 1_555
C68 C69 1_555 1_555
C73 C74 1_555 1_555
C73 C75 1_555 1_555
C77 C78 1_555 1_555

#END
