
#######################################################################
#
#                 Cambridge Crystallographic Data Centre
#                                CCDC 
#
#######################################################################
#
# If this CIF has been generated from an entry in the Cambridge 
# Structural Database, then it will include bibliographic, chemical, 
# crystal, experimental, refinement or atomic coordinate data resulting 
# from the CCDC's data processing and validation procedures.
#
#######################################################################

data_OSIKUX
_symmetry_cell_setting           orthorhombic
_symmetry_space_group_name_H-M   'P b c a'
_symmetry_Int_Tables_number      61
_space_group_name_Hall           '-P 2ac 2ab'
loop_
_symmetry_equiv_pos_site_id
_symmetry_equiv_pos_as_xyz
1 x,y,z
2 1/2-x,-y,1/2+z
3 -x,1/2+y,1/2-z
4 1/2+x,1/2-y,-z
5 -x,-y,-z
6 1/2+x,y,1/2-z
7 x,1/2-y,1/2+z
8 1/2-x,1/2+y,z
_cell_length_a                   43.6039(12)
_cell_length_b                   26.20409(85)
_cell_length_c                   13.76634(26)
_cell_angle_alpha                90
_cell_angle_beta                 90
_cell_angle_gamma                90
_cell_volume                     15729.4
loop_
_atom_site_label
_atom_site_type_symbol
_atom_site_fract_x
_atom_site_fract_y
_atom_site_fract_z
C1 C 0.7135(37) 0.7739(82) 0.021(12)
C2 C 0.7463(38) 0.7782(79) 0.064(12)
N1 N 0.6978(35) 0.8179(57) 0.01(1)
N2 N 0.7015(32) 0.7266(54) 0.008(9)
C3 C 0.7558(41) 0.8220(61) 0.107(11)
C4 C 0.7652(44) 0.7319(57) 0.072(11)
C5 C 0.6674(43) 0.8131(73) -0.011(12)
C6 C 0.6703(47) 0.7264(66) -0.005(12)
C7 C 0.7870(42) 0.8246(57) 0.136(11)
C8 C 0.7935(41) 0.7371(63) 0.120(12)
C9 C 0.6490(42) 0.8615(69) -0.014(13)
N3 N 0.6516(27) 0.7680(59) -0.0099(95)
C10 C 0.6572(45) 0.6762(67) -0.023(12)
N4 N 0.8036(29) 0.781(6) 0.153(9)
C11 C 0.6186(41) 0.8608(65) -0.026(11)
C12 C 0.6636(38) 0.9067(68) -0.010(12)
C13 C 0.6772(37) 0.6339(76) -0.022(12)
C14 C 0.6263(38) 0.6685(65) -0.048(12)
Zn1 Zn 0.84704(47) 0.76433(74) 0.2197(15)
C15 C 0.6051(37) 0.9042(66) -0.059(12)
C16 C 0.6479(42) 0.9502(64) -0.037(12)
C17 C 0.6651(36) 0.5865(59) -0.029(12)
C18 C 0.6178(35) 0.6195(74) -0.07(1)
Br1 Br 0.83433(38) 0.80109(65) 0.3860(11)
Br2 Br 0.86200(39) 0.67998(61) 0.2203(12)
N5 N 0.874(3) 0.8182(42) 0.15(1)
N6 N 0.6190(32) 0.9476(54) -0.06(1)
N7 N 0.6373(37) 0.5795(44) -0.0714(91)
C26 C 0.9006(44) 0.8375(61) 0.1802(97)
C27 C 0.8712(37) 0.8171(56) 0.044(14)
Zn2 Zn 0.59164(48) 1.01235(79) -0.0966(14)
Zn3 Zn 0.61444(46) 0.5192(8) -0.1384(14)
C34 C 0.9218(39) 0.8635(62) 0.123(14)
C35 C 0.8958(46) 0.8354(69) -0.02(1)
Br3 Br 0.6236(4) 1.07409(65) -0.1548(12)
Br4 Br 0.54951(39) 0.97641(63) -0.1706(12)
Br5 Br 0.64080(41) 0.45474(63) -0.0715(12)
Br6 Br 0.60902(38) 0.5494(6) -0.2986(12)
C41 C 0.9185(42) 0.8631(68) 0.025(13)
C42 C 0.9434(43) 0.8797(74) -0.038(15)
N8 N 0.9382(31) 0.8857(57) -0.132(12)
N9 N 0.9675(39) 0.9022(52) 0.0097(94)
C43 C 0.956(5) 0.916(7) -0.177(12)
C44 C 0.9860(39) 0.9281(73) -0.048(15)
C45 C 0.9468(48) 0.9315(71) -0.278(11)
N10 N 0.9773(32) 0.943(5) -0.138(11)
C46 C 1.0180(39) 0.9432(68) -0.007(12)
C47 C 0.9622(36) 0.9723(64) -0.323(13)
C48 C 0.9202(41) 0.9152(55) -0.321(12)
C49 C 1.0392(37) 0.9690(61) -0.07(1)
C50 C 1.0231(34) 0.9404(59) 0.090(12)
C51 C 0.9535(36) 0.9859(59) -0.414(13)
C52 C 0.9119(37) 0.9341(66) -0.408(13)
C53 C 1.0666(39) 0.9863(56) -0.028(11)
C54 C 1.0513(41) 0.9551(55) 0.13(1)
N11 N 0.9316(34) 0.9633(53) -0.4612(85)
N12 N 1.0739(26) 0.9709(46) 0.06(1)
Zn2A Zn 0.90836(48) 0.98765(79) -0.5966(14)
Zn3C Zn 1.11444(46) 0.9808(8) 0.1384(14)
N11A N 0.5684(34) 1.0367(53) 0.0388(85)
N12C N 0.5739(26) 0.5291(46) -0.06(1)
C19 C 0.2459(36) 0.4926(61) 0.344(12)
S1 S 0.236(1) 0.4577(18) 0.2336(32)
S2 S 0.2199(11) 0.4811(19) 0.4405(34)
C22 C 0.2735(33) 0.5179(64) 0.359(12)
C28 C 0.1992(38) 0.4409(61) 0.274(11)
C29 C 0.1940(34) 0.444(7) 0.372(11)
S5 S 0.3047(12) 0.5163(18) 0.2749(37)
S6 S 0.2823(11) 0.5532(19) 0.4687(37)
C36 C 0.3246(32) 0.5692(59) 0.33(1)
C37 C 0.3146(34) 0.5846(58) 0.42(1)
C20 C 0.545(3) 0.6771(56) -0.28(1)
C23 C 0.5125(36) 0.6590(53) -0.25(1)
C24 C 0.5433(34) 0.6967(56) -0.383(11)
C30 C 0.4992(33) 0.6164(51) -0.320(11)
C31 C 0.5326(39) 0.6538(64) -0.45(1)
C38 C 0.5006(32) 0.6320(53) -0.425(11)
C21 C 0.5332(42) 0.2630(72) -0.056(13)
C25 C 0.5115(41) 0.2940(71) -0.098(14)
S3 S 0.5348(11) 0.2507(21) 0.072(4)
S4 S 0.5643(12) 0.236(2) -0.121(4)
S7 S 0.4766(14) 0.3105(23) -0.0380(37)
S8 S 0.5114(12) 0.3112(19) -0.2266(46)
C32 C 0.5681(41) 0.2113(69) 0.07(1)
C33 C 0.5835(35) 0.2108(77) -0.018(12)
C39 C 0.459(4) 0.3368(69) -0.143(12)
C40 C 0.4726(44) 0.331(7) -0.228(11)
C55 C 0.8147(41) 0.354(7) 0.753(13)
C56 C 0.8226(33) 0.4077(61) 0.742(12)
C57 C 0.8392(41) 0.3174(72) 0.740(12)
C58 C 0.7855(43) 0.3367(84) 0.775(13)
C59 C 0.8517(37) 0.4238(51) 0.711(11)
C60 C 0.8711(33) 0.3339(57) 0.724(11)
C61 C 0.8318(46) 0.2629(71) 0.746(11)
C62 C 0.7796(42) 0.285(8) 0.797(12)
C63 C 0.7608(44) 0.3695(58) 0.776(12)
C64 C 0.8760(33) 0.3870(65) 0.704(11)
C65 C 0.8542(36) 0.2253(68) 0.734(11)
C66 C 0.8013(45) 0.2477(67) 0.766(13)
C67 C 0.7500(43) 0.269(6) 0.828(11)
C68 C 0.7317(39) 0.3532(63) 0.805(12)
C69 C 0.8454(39) 0.1745(68) 0.722(11)
C70 C 0.7934(37) 0.1964(74) 0.765(12)
C71 C 0.7276(33) 0.3039(74) 0.843(11)
C72 C 0.8140(43) 0.1608(56) 0.735(11)
loop_
_geom_bond_atom_site_label_1
_geom_bond_atom_site_label_2
_geom_bond_site_symmetry_1
_geom_bond_site_symmetry_2
C1 C2 1_555 1_555
C2 C3 1_555 1_555
N1 C1 1_555 1_555
N2 C1 1_555 1_555
C3 C7 1_555 1_555
C4 C2 1_555 1_555
C5 N1 1_555 1_555
C6 N2 1_555 1_555
C7 N4 1_555 1_555
C8 C4 1_555 1_555
C9 C5 1_555 1_555
N3 C5 1_555 1_555
C10 C6 1_555 1_555
N4 C8 1_555 1_555
C11 C9 1_555 1_555
C12 C9 1_555 1_555
C13 C10 1_555 1_555
C14 C10 1_555 1_555
Zn1 N4 1_555 1_555
C15 C11 1_555 1_555
C16 C12 1_555 1_555
C17 C13 1_555 1_555
C18 C14 1_555 1_555
C19 S1 1_555 1_555
C20 C23 1_555 1_555
C21 C25 1_555 1_555
Br1 Zn1 1_555 1_555
Br2 Zn1 1_555 1_555
N5 Zn1 1_555 1_555
N6 C15 1_555 1_555
N7 C17 1_555 1_555
S1 C28 1_555 1_555
S2 C19 1_555 1_555
C22 C19 1_555 1_555
C23 C30 1_555 1_555
C24 C20 1_555 1_555
C25 S7 1_555 1_555
S3 C21 1_555 1_555
S4 C21 1_555 1_555
C26 N5 1_555 1_555
C27 N5 1_555 1_555
Zn2 N6 1_555 1_555
Zn3 N7 1_555 1_555
C28 C29 1_555 1_555
C29 S2 1_555 1_555
S5 C22 1_555 1_555
S6 C22 1_555 1_555
C30 C38 1_555 1_555
C31 C24 1_555 1_555
S7 C39 1_555 1_555
S8 C25 1_555 1_555
C32 S3 1_555 1_555
C33 S4 1_555 1_555
C34 C26 1_555 1_555
C35 C27 1_555 1_555
Br3 Zn2 1_555 1_555
Br4 Zn2 1_555 1_555
Br5 Zn3 1_555 1_555
Br6 Zn3 1_555 1_555
C36 S5 1_555 1_555
C37 S6 1_555 1_555
C38 C31 1_555 1_555
C39 C40 1_555 1_555
C40 S8 1_555 1_555
C41 C34 1_555 1_555
C42 C41 1_555 1_555
N8 C42 1_555 1_555
N9 C42 1_555 1_555
C43 N8 1_555 1_555
C44 N9 1_555 1_555
C45 C43 1_555 1_555
N10 C43 1_555 1_555
C46 C44 1_555 1_555
C47 C45 1_555 1_555
C48 C45 1_555 1_555
C49 C46 1_555 1_555
C50 C46 1_555 1_555
C51 C47 1_555 1_555
C52 C48 1_555 1_555
C53 C49 1_555 1_555
C54 C50 1_555 1_555
N11 C51 1_555 1_555
N12 C53 1_555 1_555
C55 C56 1_555 1_555
C56 C59 1_555 1_555
C57 C55 1_555 1_555
C58 C55 1_555 1_555
C59 C64 1_555 1_555
C60 C57 1_555 1_555
C61 C57 1_555 1_555
C62 C58 1_555 1_555
C63 C58 1_555 1_555
C64 C60 1_555 1_555
C65 C61 1_555 1_555
C66 C61 1_555 1_555
C67 C62 1_555 1_555
C68 C63 1_555 1_555
C69 C65 1_555 1_555
C70 C66 1_555 1_555
C71 C67 1_555 1_555
C72 C69 1_555 1_555
Zn2A N11 1_555 1_555
Zn3C N12 1_555 1_555
N11A Zn2 1_555 1_555
N12C Zn3 1_555 1_555
C6 N3 1_555 1_555
C16 N6 1_555 1_555
C18 N7 1_555 1_555
C32 C33 1_555 1_555
C35 C41 1_555 1_555
C36 C37 1_555 1_555
C44 N10 1_555 1_555
C52 N11 1_555 1_555
C54 N12 1_555 1_555
C62 C66 1_555 1_555
C68 C71 1_555 1_555
C70 C72 1_555 1_555

#END
