
#######################################################################
#
#                 Cambridge Crystallographic Data Centre
#                                CCDC 
#
#######################################################################
#
# If this CIF has been generated from an entry in the Cambridge 
# Structural Database, then it will include bibliographic, chemical, 
# crystal, experimental, refinement or atomic coordinate data resulting 
# from the CCDC's data processing and validation procedures.
#
#######################################################################

data_OSILOS
_symmetry_cell_setting           tetragonal
_symmetry_space_group_name_H-M   'I 41/a'
_symmetry_Int_Tables_number      88
_space_group_name_Hall           '-I 4ad'
loop_
_symmetry_equiv_pos_site_id
_symmetry_equiv_pos_as_xyz
1 x,y,z
2 1/2-x,-y,1/2+z
3 3/4-y,1/4+x,1/4+z
4 3/4+y,3/4-x,3/4+z
5 1/2+x,1/2+y,1/2+z
6 -x,1/2-y,z
7 1/4-y,3/4+x,3/4+z
8 1/4+y,1/4-x,1/4+z
9 -x,-y,-z
10 1/2+x,y,1/2-z
11 1/4+y,3/4-x,3/4-z
12 1/4-y,1/4+x,1/4-z
13 1/2-x,1/2-y,1/2-z
14 x,1/2+y,-z
15 3/4+y,1/4-x,1/4-z
16 3/4-y,3/4+x,3/4-z
_cell_length_a                   23.603(9)
_cell_length_b                   23.603(9)
_cell_length_c                   4.995(4)
_cell_angle_alpha                90
_cell_angle_beta                 90
_cell_angle_gamma                90
_cell_volume                     2782.72
loop_
_atom_site_label
_atom_site_type_symbol
_atom_site_fract_x
_atom_site_fract_y
_atom_site_fract_z
C1 C 0.3847(3) 0.3387(3) 0.4476(14)
H1 H 0.4150 0.3110 0.4353
H2 H 0.3689 0.3437 0.2699
C2 C 0.3388(3) 0.3162(3) 0.6337(15)
Cu1 Cu 0.5000 0.5000 1.0000
N1 N 0.4506(3) 0.4572(2) 0.7540(12)
N2 N 0.4204(4) 0.4808(3) 0.5552(18)
N3 N 0.3943(4) 0.4395(4) 0.4221(18)
N4 N 0.4079(3) 0.3920(3) 0.5386(12)
C3 C 0.4429(3) 0.4025(3) 0.7378(14)
H3 H 0.4593 0.3755 0.8487
O1 O 0.3230(3) 0.3445(3) 0.8256(12)
O2 O 0.3198(2) 0.2686(2) 0.5672(10)
C1B C 0.4113(3) 0.6347(3) 0.6976(14)
C1J C 0.5887(3) 0.3653(3) 1.3024(14)
C1H C 0.6153(3) 0.6613(3) 1.5524(14)
H1B H 0.4390 0.6650 0.6853
H1J H 0.5610 0.3350 1.3147
H1H H 0.5850 0.6890 1.5647
H2B H 0.4063 0.6189 0.5199
H2J H 0.5937 0.3811 1.4801
H2H H 0.6311 0.6563 1.7301
C2B C 0.4338(3) 0.5888(3) 0.8837(15)
C2J C 0.5662(3) 0.4112(3) 1.1163(15)
C2H C 0.6612(3) 0.6838(3) 1.3663(15)
Cu1B Cu 0.2500 0.7500 1.2500
Cu1C Cu 0.2500 0.2500 0.7500
Cu1F Cu 0.7500 0.2500 0.7500
Cu1G Cu 0.7500 0.7500 1.2500
N1B N 0.2928(2) 0.7006(3) 1.0040(12)
N1J N 0.7072(2) 0.2994(3) 0.9960(12)
N1H N 0.5494(3) 0.5428(2) 1.2460(12)
N1N N 0.2072(2) 0.7994(3) 1.4960(12)
N2B N 0.2692(3) 0.6704(4) 0.8052(18)
N2J N 0.7308(3) 0.3296(4) 1.1948(18)
N2H N 0.5796(4) 0.5192(3) 1.4448(18)
N3B N 0.3105(4) 0.6443(4) 0.6721(18)
N3J N 0.6895(4) 0.3557(4) 1.3279(18)
N3H N 0.6057(4) 0.5605(4) 1.5779(18)
N4B N 0.3580(3) 0.6579(3) 0.7886(12)
N4J N 0.6420(3) 0.3421(3) 1.2114(12)
N4H N 0.5921(3) 0.6080(3) 1.4614(12)
C3B C 0.3475(3) 0.6929(3) 0.9878(14)
C3J C 0.6525(3) 0.3071(3) 1.0122(14)
C3H C 0.5571(3) 0.5975(3) 1.2622(14)
H3B H 0.3745 0.7093 1.0987
H3J H 0.6255 0.2907 0.9013
H3H H 0.5407 0.6245 1.1513
O1B O 0.4055(3) 0.5730(3) 1.0756(12)
O1J O 0.5945(3) 0.4270(3) 0.9244(12)
O1H O 0.6770(3) 0.6555(3) 1.1744(12)
O2B O 0.4814(2) 0.5698(2) 0.8172(10)
O2J O 0.5186(2) 0.4302(2) 1.1828(10)
O2H O 0.6802(2) 0.7314(2) 1.4328(10)
O2A O 0.1802(2) 0.7314(2) 1.0672(10)
O2M O 0.3198(2) 0.7686(2) 1.4328(10)
Cl1 Cl 0.5000 0.2500 0.8750
O3 O 0.4600(4) 0.2768(4) 1.0308(19)
O3E O 0.5400(4) 0.2232(4) 1.0308(19)
O3J O 0.5268(4) 0.2900(4) 0.7192(19)
O3O O 0.4732(4) 0.2100(4) 0.7192(19)
O4 O 0.2815(6) 0.4467(5) 0.914(4)
H4 H 0.2967 0.4145 0.8881
H5 H 0.2481 0.4437 0.8527
loop_
_geom_bond_atom_site_label_1
_geom_bond_atom_site_label_2
_geom_bond_site_symmetry_1
_geom_bond_site_symmetry_2
C1 H1 1_555 1_555
H2 C1 1_555 1_555
C2 C1 1_555 1_555
Cl1 O3 1_555 1_555
Cu1 N1 1_555 1_555
N1 N2 1_555 1_555
N2 N3 1_555 1_555
N3 N4 1_555 1_555
N4 C1 1_555 1_555
C3 N1 1_555 1_555
H3 C3 1_555 1_555
O1 C2 1_555 1_555
O2 C2 1_555 1_555
O4 H4 1_555 1_555
H5 O4 1_555 1_555
C1B H1B 1_555 1_555
C1J H1J 1_555 1_555
C1H H1H 1_555 1_555
H2B C1B 1_555 1_555
H2J C1J 1_555 1_555
H2H C1H 1_555 1_555
C2B C1B 1_555 1_555
C2J C1J 1_555 1_555
C2H C1H 1_555 1_555
Cu1B N1B 1_555 1_555
Cu1C O2 1_555 1_555
Cu1F N1J 1_555 1_555
Cu1G O2H 1_555 1_555
N1B N2B 1_555 1_555
N1J N2J 1_555 1_555
N1H Cu1 1_555 1_555
N1N Cu1B 1_555 1_555
N2B N3B 1_555 1_555
N2J N3J 1_555 1_555
N2H N1H 1_555 1_555
N3B N4B 1_555 1_555
N3J N4J 1_555 1_555
N3H N2H 1_555 1_555
N4B C1B 1_555 1_555
N4J C1J 1_555 1_555
N4H C1H 1_555 1_555
C3B N1B 1_555 1_555
C3J N1J 1_555 1_555
C3H N1H 1_555 1_555
H3B C3B 1_555 1_555
H3J C3J 1_555 1_555
H3H C3H 1_555 1_555
O1B C2B 1_555 1_555
O1J C2J 1_555 1_555
O1H C2H 1_555 1_555
O2B Cu1 1_555 1_555
O2J Cu1 1_555 1_555
O2H C2H 1_555 1_555
O2A Cu1B 1_555 1_555
O2M Cu1B 1_555 1_555
O3E Cl1 1_555 1_555
O3J Cl1 1_555 1_555
O3O Cl1 1_555 1_555
N4 C3 1_555 1_555
C2B O2B 1_555 1_555
C2J O2J 1_555 1_555
N3H N4H 1_555 1_555
N4B C3B 1_555 1_555
N4J C3J 1_555 1_555
N4H C3H 1_555 1_555

#END
