
#######################################################################
#
#                 Cambridge Crystallographic Data Centre
#                                CCDC 
#
#######################################################################
#
# If this CIF has been generated from an entry in the Cambridge 
# Structural Database, then it will include bibliographic, chemical, 
# crystal, experimental, refinement or atomic coordinate data resulting 
# from the CCDC's data processing and validation procedures.
#
#######################################################################

data_OSIVIW
_symmetry_cell_setting           monoclinic
_symmetry_space_group_name_H-M   'C 2/c'
_symmetry_Int_Tables_number      15
_space_group_name_Hall           '-C 2yn'
loop_
_symmetry_equiv_pos_site_id
_symmetry_equiv_pos_as_xyz
1 x,y,z
2 -x,y,1/2-z
3 1/2+x,1/2+y,z
4 1/2-x,1/2+y,1/2-z
5 -x,-y,-z
6 x,-y,1/2+z
7 1/2-x,1/2-y,-z
8 1/2+x,1/2-y,1/2+z
_cell_length_a                   24.4141(9)
_cell_length_b                   17.7598(4)
_cell_length_c                   12.7352(4)
_cell_angle_alpha                90
_cell_angle_beta                 116.051(4)
_cell_angle_gamma                90
_cell_volume                     4960.85
loop_
_atom_site_label
_atom_site_type_symbol
_atom_site_fract_x
_atom_site_fract_y
_atom_site_fract_z
K1 K 0.08041(5) 0.24701(5) 0.09822(10)
O1 O 0.05605(13) 0.39058(14) 0.0054(2)
N1 N 0.17810(15) 0.24921(16) -0.1494(3)
C1 C 0.23891(18) 0.2704(2) -0.2606(4)
H1 H 0.2718 0.2917 -0.1901
H2 H 0.2376 0.2961 -0.3297
H3 H 0.2463 0.2166 -0.2653
O2 O -0.00071(13) 0.13615(14) -0.5014(2)
N2 N 0.14861(15) 0.36714(17) -0.1470(3)
C2 C 0.17820(17) 0.2810(2) -0.2553(3)
O3 O 0.13114(13) 0.12123(15) 0.0176(2)
N3 N 0.06862(15) 0.44735(17) -0.1447(2)
C3 C 0.19768(16) 0.1744(2) -0.1036(3)
H4 H 0.2154 0.1766 -0.0172
H5 H 0.2304 0.1583 -0.1248
O4 O 0.15845(12) 0.28740(15) 0.0029(2)
N4 N -0.02225(15) 0.45320(16) -0.1442(2)
C4 C 0.16063(16) 0.2995(2) -0.0892(3)
O5 O 0.04445(13) 0.30015(14) -0.5196(2)
N5 N -0.10236(15) 0.37171(16) -0.1420(2)
C5 C 0.13327(18) 0.4331(2) -0.0979(3)
H6 H 0.1499 0.4265 -0.0122
H7 H 0.1533 0.4777 -0.1125
N6 N 0.12743(14) 0.25243(16) -0.3618(3)
C6 C 0.03575(18) 0.42579(19) -0.0861(3)
N7 N 0.09714(14) 0.12320(16) -0.3560(2)
C7 C 0.03297(17) 0.49283(18) -0.2482(3)
N8 N 0.15000(14) 0.11799(16) -0.1446(2)
C8 C 0.0613(2) 0.5695(2) -0.2402(3)
H8 H 0.0635 0.5959 -0.1709
H9 H 0.0364 0.5987 -0.3104
H10 H 0.1025 0.5636 -0.2342
N9 N 0.02499(14) 0.04709(16) -0.3552(2)
C9 C -0.06708(18) 0.43994(19) -0.0997(3)
H11 H -0.0457 0.4378 -0.0133
H12 H -0.0954 0.4833 -0.1212
N10 N -0.07524(14) 0.04845(16) -0.3557(2)
C10 C 0.08698(17) 0.30667(19) -0.4230(3)
C11 C 0.15903(17) 0.3658(2) -0.2510(3)
C12 C 0.12376(18) 0.17691(19) -0.4068(3)
H13 H 0.1653 0.1598 -0.3909
H14 H 0.0990 0.1778 -0.4926
C13 C 0.2053(2) 0.4239(2) -0.2458(4)
H15 H 0.1900 0.4743 -0.2425
H16 H 0.2124 0.4196 -0.3156
H17 H 0.2437 0.4154 -0.1759
C14 C 0.13052(16) 0.07635(19) -0.2533(3)
C15 C 0.18305(19) 0.0353(2) -0.2605(4)
H18 H 0.2119 0.0720 -0.2652
H19 H 0.1675 0.0033 -0.3303
H20 H 0.2038 0.0040 -0.1907
C16 C 0.03679(17) 0.10610(19) -0.4116(3)
C17 C -0.03596(16) 0.0152(2) -0.4007(3)
H21 H -0.0556 0.0206 -0.4868
H22 H -0.0323 -0.0394 -0.3828
C18 C 0.07796(16) 0.02402(19) -0.2514(3)
C19 C 0.09078(19) -0.06005(19) -0.2474(3)
H23 H 0.0562 -0.0880 -0.2473
H24 H 0.1277 -0.0719 -0.1762
H25 H 0.0967 -0.0744 -0.3160
C20 C 0.11963(16) 0.09857(19) -0.0810(3)
O6 O 0.0000 0.2219(5) 0.2500
O7 O 0.1584(3) 0.2464(3) 0.3647(7)
K1A K -0.08041(5) 0.24701(5) -0.59822(10)
K1A_2 K -0.08041(5) 0.24701(5) 0.40178(10)
O1A O -0.05605(13) 0.39058(14) -0.5054(2)
N1A N -0.17810(15) 0.24921(16) -0.3506(3)
C1A C -0.23891(18) 0.2704(2) -0.2394(4)
H1A H -0.2718 0.2917 -0.3099
H2A H -0.2376 0.2961 -0.1703
H3A H -0.2463 0.2166 -0.2347
O2A O 0.00071(13) 0.13615(14) 0.0014(2)
N2A N -0.14861(15) 0.36714(17) -0.3530(3)
C2A C -0.17820(17) 0.2810(2) -0.2447(3)
O3A O -0.13114(13) 0.12123(15) -0.5176(2)
N3A N -0.06862(15) 0.44735(17) -0.3553(2)
C3A C -0.19768(16) 0.1744(2) -0.3964(3)
H4A H -0.2154 0.1766 -0.4828
H5A H -0.2304 0.1583 -0.3752
O4A O -0.15845(12) 0.28740(15) -0.5029(2)
N4A N 0.02225(15) 0.45320(16) -0.3558(2)
C4A C -0.16063(16) 0.2995(2) -0.4108(3)
O5A O -0.04445(13) 0.30015(14) 0.0196(2)
N5A N 0.10236(15) 0.37171(16) -0.3580(2)
C5A C -0.13327(18) 0.4331(2) -0.4021(3)
H6A H -0.1499 0.4265 -0.4878
H7A H -0.1533 0.4777 -0.3875
N6A N -0.12743(14) 0.25243(16) -0.1382(3)
C6A C -0.03575(18) 0.42579(19) -0.4139(3)
N7A N -0.09714(14) 0.12320(16) -0.1440(2)
C7A C -0.03297(17) 0.49283(18) -0.2518(3)
N8A N -0.15000(14) 0.11799(16) -0.3554(2)
C8A C -0.0613(2) 0.5695(2) -0.2598(3)
H8A H -0.0635 0.5959 -0.3291
H9A H -0.0364 0.5987 -0.1896
H10A H -0.1025 0.5636 -0.2658
N9A N -0.02499(14) 0.04709(16) -0.1448(2)
C9A C 0.06708(18) 0.43994(19) -0.4003(3)
H11A H 0.0457 0.4378 -0.4867
H12A H 0.0954 0.4833 -0.3788
N10A N 0.07524(14) 0.04845(16) -0.1443(2)
C10A C -0.08698(17) 0.30667(19) -0.0770(3)
C11A C -0.15903(17) 0.3658(2) -0.2490(3)
C12A C -0.12376(18) 0.17691(19) -0.0932(3)
H13A H -0.1653 0.1598 -0.1091
H14A H -0.0990 0.1778 -0.0074
C13A C -0.2053(2) 0.4239(2) -0.2542(4)
H15A H -0.1900 0.4743 -0.2575
H16A H -0.2124 0.4196 -0.1844
H17A H -0.2437 0.4154 -0.3241
C14A C -0.13052(16) 0.07635(19) -0.2467(3)
C15A C -0.18305(19) 0.0353(2) -0.2395(4)
H18A H -0.2119 0.0720 -0.2348
H19A H -0.1675 0.0033 -0.1697
H20A H -0.2038 0.0040 -0.3093
C16A C -0.03679(17) 0.10610(19) -0.0884(3)
C17A C 0.03596(16) 0.0152(2) -0.0993(3)
H21A H 0.0556 0.0206 -0.0132
H22A H 0.0323 -0.0394 -0.1172
C18A C -0.07796(16) 0.02402(19) -0.2486(3)
C19A C -0.09078(19) -0.06005(19) -0.2526(3)
H23A H -0.0562 -0.0880 -0.2527
H24A H -0.1277 -0.0719 -0.3238
H25A H -0.0967 -0.0744 -0.1840
C20A C -0.11963(16) 0.09857(19) -0.4190(3)
O6_2 O 0.0000 0.2219(5) -0.7500
O7A O -0.1584(3) 0.2464(3) -0.8647(7)
Cl1 Cl 0.25518(10) 0.10458(10) 0.52754(17)
O8 O 0.0000 0.2473(11) -0.2500
loop_
_geom_bond_atom_site_label_1
_geom_bond_atom_site_label_2
_geom_bond_site_symmetry_1
_geom_bond_site_symmetry_2
K1 O1 1_555 1_555
O1 C6 1_555 1_555
N1 C2 1_555 1_555
C1 H1 1_555 1_555
H2 C1 1_555 1_555
H3 C1 1_555 1_555
O2 C16 1_555 1_555
N2 C4 1_555 1_555
C2 C1 1_555 1_555
O3 K1 1_555 1_555
N3 C5 1_555 1_555
C3 N1 1_555 1_555
H4 C3 1_555 1_555
H5 C3 1_555 1_555
O4 K1 1_555 1_555
N4 C6 1_555 1_555
C4 N1 1_555 1_555
O5 C10 1_555 1_555
N5 C9 1_555 1_555
C5 N2 1_555 1_555
H6 C5 1_555 1_555
H7 C5 1_555 1_555
N6 C2 1_555 1_555
C6 N3 1_555 1_555
N7 C12 1_555 1_555
C7 N3 1_555 1_555
N8 C3 1_555 1_555
C8 C7 1_555 1_555
H8 C8 1_555 1_555
H9 C8 1_555 1_555
H10 C8 1_555 1_555
N9 C16 1_555 1_555
C9 N4 1_555 1_555
H11 C9 1_555 1_555
H12 C9 1_555 1_555
N10 C17 1_555 1_555
C10 N6 1_555 1_555
C11 N2 1_555 1_555
C12 N6 1_555 1_555
H13 C12 1_555 1_555
H14 C12 1_555 1_555
C13 C11 1_555 1_555
H15 C13 1_555 1_555
H16 C13 1_555 1_555
H17 C13 1_555 1_555
C14 N7 1_555 1_555
C15 C14 1_555 1_555
H18 C15 1_555 1_555
H19 C15 1_555 1_555
H20 C15 1_555 1_555
C16 N7 1_555 1_555
C17 N9 1_555 1_555
H21 C17 1_555 1_555
H22 C17 1_555 1_555
C18 N9 1_555 1_555
C19 C18 1_555 1_555
H23 C19 1_555 1_555
H24 C19 1_555 1_555
H25 C19 1_555 1_555
C20 O3 1_555 1_555
O6 K1 1_555 1_555
O7 K1 1_555 1_555
K1A O2 1_555 1_555
K1A_2 O6 1_555 1_555
O1A K1A 1_555 1_555
N1A C2A 1_555 1_555
C1A H1A 1_555 1_555
H2A C1A 1_555 1_555
H3A C1A 1_555 1_555
O2A K1 1_555 1_555
N2A C4A 1_555 1_555
C2A C1A 1_555 1_555
O3A K1A 1_555 1_555
N3A C5A 1_555 1_555
C3A N1A 1_555 1_555
H4A C3A 1_555 1_555
H5A C3A 1_555 1_555
O4A K1A 1_555 1_555
N4A C7 1_555 1_555
C4A N1A 1_555 1_555
O5A K1 1_555 1_555
N5A C10 1_555 1_555
C5A N2A 1_555 1_555
H6A C5A 1_555 1_555
H7A C5A 1_555 1_555
N6A C2A 1_555 1_555
C6A O1A 1_555 1_555
N7A C12A 1_555 1_555
C7A N4 1_555 1_555
N8A C3A 1_555 1_555
C8A C7A 1_555 1_555
H8A C8A 1_555 1_555
H9A C8A 1_555 1_555
H10A C8A 1_555 1_555
N9A C16A 1_555 1_555
C9A N4A 1_555 1_555
H11A C9A 1_555 1_555
H12A C9A 1_555 1_555
N10A C18 1_555 1_555
C10A N5 1_555 1_555
C11A N5 1_555 1_555
C12A N6A 1_555 1_555
H13A C12A 1_555 1_555
H14A C12A 1_555 1_555
C13A C11A 1_555 1_555
H15A C13A 1_555 1_555
H16A C13A 1_555 1_555
H17A C13A 1_555 1_555
C14A N7A 1_555 1_555
C15A C14A 1_555 1_555
H18A C15A 1_555 1_555
H19A C15A 1_555 1_555
H20A C15A 1_555 1_555
C16A O2A 1_555 1_555
C17A N9A 1_555 1_555
H21A C17A 1_555 1_555
H22A C17A 1_555 1_555
C18A N10 1_555 1_555
C19A C18A 1_555 1_555
H23A C19A 1_555 1_555
H24A C19A 1_555 1_555
H25A C19A 1_555 1_555
C20A N10 1_555 1_555
O6_2 K1A 1_555 1_555
O7A K1A 1_555 1_555
C2 C11 1_555 1_555
O4 C4 1_555 1_555
O5 K1A 1_555 1_555
C7 C7A 1_555 1_555
N8 C14 1_555 1_555
N8 C20 1_555 1_555
C11 N5A 1_555 1_555
C14 C18 1_555 1_555
C20 N10A 1_555 1_555
N2A C11A 1_555 1_555
C2A C11A 1_555 1_555
O3A C20A 1_555 1_555
N3A C6A 1_555 1_555
N3A C7A 1_555 1_555
O4A C4A 1_555 1_555
N4A C6A 1_555 1_555
O5A C10A 1_555 1_555
N5A C9A 1_555 1_555
N6A C10A 1_555 1_555
N7A C16A 1_555 1_555
N8A C14A 1_555 1_555
N8A C20A 1_555 1_555
N9A C18A 1_555 1_555
N10A C17A 1_555 1_555
C14A C18A 1_555 1_555

#END
