
#######################################################################
#
#                 Cambridge Crystallographic Data Centre
#                                CCDC 
#
#######################################################################
#
# If this CIF has been generated from an entry in the Cambridge 
# Structural Database, then it will include bibliographic, chemical, 
# crystal, experimental, refinement or atomic coordinate data resulting 
# from the CCDC's data processing and validation procedures.
#
#######################################################################

data_OSIWIX
_symmetry_cell_setting           orthorhombic
_symmetry_space_group_name_H-M   'P n a 21'
_symmetry_Int_Tables_number      33
_space_group_name_Hall           'P 2c -2n'
loop_
_symmetry_equiv_pos_site_id
_symmetry_equiv_pos_as_xyz
1 x,y,z
2 -x,-y,1/2+z
3 1/2+x,1/2-y,z
4 1/2-x,1/2+y,1/2+z
_cell_length_a                   11.1121(13)
_cell_length_b                   10.9483(12)
_cell_length_c                   3.8187(5)
_cell_angle_alpha                90
_cell_angle_beta                 90
_cell_angle_gamma                90
_cell_volume                     464.578
loop_
_atom_site_label
_atom_site_type_symbol
_atom_site_fract_x
_atom_site_fract_y
_atom_site_fract_z
Ag1 Ag 0.88234(3) 0.40389(3) 0.5011(4)
N1 N 1.0735(3) 0.3468(4) 0.4131(14)
N2 N 1.1601(4) 0.4187(4) 0.2494(17)
N3 N 1.2444(3) 0.2421(4) 0.4009(15)
C1 C 1.1274(3) 0.2445(4) 0.496(3)
C2 C 1.2587(4) 0.3525(4) 0.2491(18)
H1 H 1.3311 0.3790 0.1537
C3 C 1.0648(5) 0.1400(5) 0.6710(18)
H2 H 0.9826 0.1617 0.7160
H3 H 1.1044 0.1217 0.8882
H4 H 1.0674 0.0697 0.5212
Ag1A Ag 1.11766(3) 0.59611(3) 0.0011(4)
Ag1B Ag 1.38234(3) 0.09611(3) 0.5011(4)
N2A N 0.8399(4) 0.5813(4) 0.7494(17)
N3B N 0.7444(3) 0.2579(4) 0.4009(15)
loop_
_geom_bond_atom_site_label_1
_geom_bond_atom_site_label_2
_geom_bond_site_symmetry_1
_geom_bond_site_symmetry_2
Ag1 N1 1_555 1_555
N1 N2 1_555 1_555
N2 C2 1_555 1_555
N3 C1 1_555 1_555
C1 N1 1_555 1_555
C2 N3 1_555 1_555
H1 C2 1_555 1_555
C3 C1 1_555 1_555
H2 C3 1_555 1_555
H3 C3 1_555 1_555
H4 C3 1_555 1_555
Ag1A N2 1_555 1_555
Ag1B N3 1_555 1_555
N2A Ag1 1_555 1_555
N3B Ag1 1_555 1_555

#END
