
#######################################################################
#
#                 Cambridge Crystallographic Data Centre
#                                CCDC 
#
#######################################################################
#
# If this CIF has been generated from an entry in the Cambridge 
# Structural Database, then it will include bibliographic, chemical, 
# crystal, experimental, refinement or atomic coordinate data resulting 
# from the CCDC's data processing and validation procedures.
#
#######################################################################

data_OSIWOD01
_symmetry_cell_setting           monoclinic
_symmetry_space_group_name_H-M   'C 2/c'
_symmetry_Int_Tables_number      15
_space_group_name_Hall           '-C 2yn'
loop_
_symmetry_equiv_pos_site_id
_symmetry_equiv_pos_as_xyz
1 x,y,z
2 -x,y,1/2-z
3 1/2+x,1/2+y,z
4 1/2-x,1/2+y,1/2-z
5 -x,-y,-z
6 x,-y,1/2+z
7 1/2-x,1/2-y,-z
8 1/2+x,1/2-y,1/2+z
_cell_length_a                   13.0358(14)
_cell_length_b                   21.135(2)
_cell_length_c                   11.7194(13)
_cell_angle_alpha                90
_cell_angle_beta                 122.1840(10)
_cell_angle_gamma                90
_cell_volume                     2732.7
loop_
_atom_site_label
_atom_site_type_symbol
_atom_site_fract_x
_atom_site_fract_y
_atom_site_fract_z
Ag1 Ag 0.92701(6) 0.30005(3) 0.82248(6)
Ag2 Ag 0.85039(6) 0.43750(3) 0.55950(6)
N1 N 0.8868(6) 0.4048(3) 0.8392(6)
N2 N 0.8520(6) 0.4519(3) 0.7447(7)
N3 N 0.8423(6) 0.4902(3) 0.9156(7)
N4 N 1.1106(6) 0.2936(3) 1.0000(7)
N5 N 1.1872(6) 0.3441(3) 1.0518(7)
N6 N 1.2802(6) 0.2615(3) 1.1853(7)
C1 C 0.8797(7) 0.4307(4) 0.9393(8)
C2 C 0.8284(8) 0.5003(4) 0.7955(9)
H1 H 0.8038 0.5391 0.7516
C3 C 0.9112(9) 0.3946(5) 1.0639(9)
H2 H 0.9835 0.3699 1.0917
H3 H 0.9310 0.4248 1.1352
C4 C 0.8178(12) 0.3522(7) 1.0518(12)
H4 H 0.8462 0.3320 1.1369
H5 H 0.7998 0.3207 0.9846
H6 H 0.7459 0.3760 1.0259
C5 C 1.1683(7) 0.2451(4) 1.0819(8)
C6 C 1.2863(8) 0.3230(4) 1.1605(9)
H7 H 1.3537 0.3482 1.2147
C7 C 1.1134(8) 0.1813(4) 1.0644(11)
H8 H 1.1768 0.1496 1.0979
H9 H 1.0572 0.1734 0.9690
C8 C 1.0489(14) 0.1747(7) 1.1352(18)
H10 H 1.0121 0.1336 1.1175
H11 H 1.1052 0.1796 1.2304
H12 H 0.9873 0.2066 1.1040
Ag1G Ag 1.42701(6) 0.19995(3) 1.32248(6)
Ag2E Ag 0.85039(6) 0.56250(3) 1.05950(6)
Ag2A Ag 1.14961(6) 0.43750(3) 0.94050(6)
N3E N 0.8423(6) 0.5098(3) 0.4156(7)
N5A N 0.8128(6) 0.3441(3) 0.4482(7)
N6G N 0.7802(6) 0.2385(3) 0.6853(7)
loop_
_geom_bond_atom_site_label_1
_geom_bond_atom_site_label_2
_geom_bond_site_symmetry_1
_geom_bond_site_symmetry_2
Ag1 N1 1_555 1_555
Ag2 N2 1_555 1_555
N1 N2 1_555 1_555
N2 C2 1_555 1_555
N3 C1 1_555 1_555
N4 Ag1 1_555 1_555
N5 N4 1_555 1_555
N6 C5 1_555 1_555
C1 N1 1_555 1_555
C2 N3 1_555 1_555
H1 C2 1_555 1_555
C3 C1 1_555 1_555
H2 C3 1_555 1_555
H3 C3 1_555 1_555
C4 C3 1_555 1_555
H4 C4 1_555 1_555
H5 C4 1_555 1_555
H6 C4 1_555 1_555
C5 N4 1_555 1_555
C6 N5 1_555 1_555
H7 C6 1_555 1_555
C7 C5 1_555 1_555
H8 C7 1_555 1_555
H9 C7 1_555 1_555
C8 C7 1_555 1_555
H10 C8 1_555 1_555
H11 C8 1_555 1_555
H12 C8 1_555 1_555
Ag1G N6 1_555 1_555
Ag2E N3 1_555 1_555
Ag2A N5 1_555 1_555
N3E Ag2 1_555 1_555
N5A Ag2 1_555 1_555
N6G Ag1 1_555 1_555
N6 C6 1_555 1_555

#END
