
#######################################################################
#
#                 Cambridge Crystallographic Data Centre
#                                CCDC 
#
#######################################################################
#
# If this CIF has been generated from an entry in the Cambridge 
# Structural Database, then it will include bibliographic, chemical, 
# crystal, experimental, refinement or atomic coordinate data resulting 
# from the CCDC's data processing and validation procedures.
#
#######################################################################

data_OSIWET
_symmetry_cell_setting           monoclinic
_symmetry_space_group_name_H-M   'C 2/c'
_symmetry_Int_Tables_number      15
_space_group_name_Hall           '-C 2yn'
loop_
_symmetry_equiv_pos_site_id
_symmetry_equiv_pos_as_xyz
1 x,y,z
2 -x,y,1/2-z
3 1/2+x,1/2+y,z
4 1/2-x,1/2+y,1/2-z
5 -x,-y,-z
6 x,-y,1/2+z
7 1/2-x,1/2-y,-z
8 1/2+x,1/2-y,1/2+z
_cell_length_a                   17.323(4)
_cell_length_b                   14.597(3)
_cell_length_c                   28.741(7)
_cell_angle_alpha                90
_cell_angle_beta                 100.931(4)
_cell_angle_gamma                90
_cell_volume                     7135.7
loop_
_atom_site_label
_atom_site_type_symbol
_atom_site_fract_x
_atom_site_fract_y
_atom_site_fract_z
Mo1 Mo 0.57188(3) 1.48287(4) 0.05576(2)
Mo2 Mo 0.35980(4) 1.42472(5) 0.05359(2)
Mo3 Mo 0.39635(3) 1.64862(5) 0.05486(2)
Mo4 Mo 0.46438(4) 1.27028(5) -0.00005(2)
C1 C 0.9723(4) 1.3504(4) 0.1540(2)
C2 C 1.0924(4) 1.7451(5) 0.2983(2)
O1 O 0.9408(3) 1.5831(3) 0.10708(18)
C3 C 1.0113(4) 1.5941(5) 0.1235(2)
O2 O 0.4988(3) 1.6996(4) 0.05523(18)
O3 O 1.1976(3) 1.3818(3) 0.28747(16)
O4 O 1.1460(3) 1.7092(4) 0.32587(18)
O5 O 0.9089(3) 1.3803(4) 0.13416(19)
O6 O 0.3286(3) 1.5468(4) 0.03491(18)
O7 O 0.4736(3) 1.5108(4) 0.0632(2)
N1 N 1.1017(3) 1.2821(4) 0.2510(2)
N2 N 1.1606(3) 1.3723(4) 0.20601(19)
O8 O 0.4352(3) 1.3297(4) 0.05190(19)
N3 N 1.0441(3) 1.3711(4) 0.1440(2)
O9 O 1.2336(3) 1.5851(4) 0.26240(17)
N4 N 1.0443(3) 1.6735(4) 0.1419(2)
O10 O 0.3973(4) 1.6479(5) 0.1136(2)
N5 N 1.0683(3) 1.5305(4) 0.1245(2)
N6 N 0.9826(3) 1.2875(4) 0.1900(2)
N7 N 1.1611(3) 1.6751(4) 0.2042(2)
C4 C 1.0508(4) 1.4374(5) 0.1073(2)
H1 H 1.0927 1.4171 0.0906
H2 H 1.0008 1.4382 0.0840
N8 N 1.0973(3) 1.7741(4) 0.2538(2)
O11 O 0.5713(3) 1.3794(4) 0.02189(19)
N9 N 1.1856(3) 1.5298(4) 0.18721(19)
C5 C 1.1654(4) 1.7565(5) 0.2333(2)
H3 H 1.1742 1.8100 0.2139
H4 H 1.2117 1.7510 0.2593
N10 N 1.0201(3) 1.7681(4) 0.30756(19)
O12 O 0.2732(3) 1.3738(5) 0.0297(2)
C6 C 1.2171(4) 1.4397(5) 0.1963(2)
H5 H 1.2385 1.4191 0.1685
H6 H 1.2613 1.4423 0.2237
C7 C 1.1092(4) 1.3176(5) 0.1713(2)
O13 O 0.6081(3) 1.5739(3) 0.02566(19)
C8 C 1.0471(5) 1.9162(5) 0.2125(3)
H7 H 0.9986 1.9486 0.1987
H8 H 1.0761 1.9517 0.2391
H9 H 1.0797 1.9087 0.1884
C9 C 1.1973(4) 1.5952(5) 0.2223(2)
O14 O 0.5265(4) 1.1864(5) 0.0261(2)
C10 C 0.9978(4) 1.7533(5) 0.1456(2)
H10 H 1.0260 1.8077 0.1368
H11 H 0.9478 1.7481 0.1224
C11 C 1.0267(4) 1.8219(4) 0.2301(2)
O15 O 0.6296(3) 1.4699(4) 0.11081(19)
O16 O 0.3380(4) 1.7375(5) 0.0332(3)
C12 C 1.1476(3) 1.5669(5) 0.1410(2)
C13 C 1.1306(4) 1.6697(5) 0.1537(2)
Rb1 Rb 0.79695(4) 1.52168(5) 0.14576(3)
C14 C 1.1563(4) 1.3501(5) 0.2519(2)
O17 O 0.3603(4) 1.4238(5) 0.1124(2)
C15 C 1.0639(4) 1.2561(4) 0.2032(2)
O18 O 0.3798(4) 1.2133(6) -0.0233(2)
C16 C 1.1985(4) 1.5541(6) 0.1041(3)
H12 H 1.1737 1.5843 0.0745
H13 H 1.2504 1.5813 0.1155
H14 H 1.2044 1.4886 0.0982
C17 C 1.1544(5) 1.2662(6) 0.1394(3)
H15 H 1.1952 1.2286 0.1587
H16 H 1.1183 1.2266 0.1178
H17 H 1.1790 1.3100 0.1208
C18 C 0.9159(4) 1.2463(5) 0.2056(2)
H18 H 0.9255 1.1797 0.2096
H19 H 0.8689 1.2545 0.1803
C19 C 1.1680(5) 1.7408(6) 0.1264(3)
H20 H 1.2253 1.7346 0.1341
H21 H 1.1498 1.7315 0.0923
H22 H 1.1529 1.8023 0.1352
Na1 Na 0.8469(2) 1.5876(3) 0.03118(13)
O19 O 0.7786(4) 1.6778(4) 0.0745(2)
O20 O 0.7929(5) 1.4369(6) 0.0460(3)
C20 C 1.0710(5) 1.1523(5) 0.1961(3)
H23 H 1.0498 1.1368 0.1630
H24 H 1.1264 1.1342 0.2040
H25 H 1.0412 1.1197 0.2167
O21 O 0.9340(10) 1.4904(12) 0.0002(5)
Mo1D Mo 0.42812(3) 1.51713(4) -0.05576(2)
Mo2D Mo 0.64020(4) 1.57528(5) -0.05359(2)
Mo3D Mo 0.60365(3) 1.35138(5) -0.05486(2)
Mo4D Mo 0.53562(4) 1.72972(5) 0.00005(2)
Mo4B Mo 0.96438(4) 1.77028(5) -0.00005(2)
C1A C 1.0277(4) 1.3504(4) 0.3460(2)
C2A C 0.9076(4) 1.7451(5) 0.2017(2)
O1A O 1.0592(3) 1.5831(3) 0.39292(18)
C3A C 0.9887(4) 1.5941(5) 0.3765(2)
O2D O 0.5012(3) 1.3004(4) -0.05523(18)
O3A O 0.8024(3) 1.3818(3) 0.21253(16)
O4A O 0.8540(3) 1.7092(4) 0.17413(18)
O5A O 1.0911(3) 1.3803(4) 0.36584(19)
O6D O 0.6714(3) 1.4532(4) -0.03491(18)
O7D O 0.5264(3) 1.4892(4) -0.0632(2)
N1A N 0.8983(3) 1.2821(4) 0.2490(2)
N2A N 0.8394(3) 1.3723(4) 0.29399(19)
O8D O 0.5648(3) 1.6703(4) -0.05190(19)
N3A N 0.9559(3) 1.3711(4) 0.3560(2)
O9A O 0.7664(3) 1.5851(4) 0.23760(17)
N4A N 0.9557(3) 1.6735(4) 0.3581(2)
O10D O 0.6027(4) 1.3521(5) -0.1136(2)
N5A N 0.9317(3) 1.5305(4) 0.3755(2)
N6A N 1.0174(3) 1.2875(4) 0.3100(2)
N7A N 0.8389(3) 1.6751(4) 0.2958(2)
C4A C 0.9492(4) 1.4374(5) 0.3927(2)
H1A H 0.9073 1.4171 0.4094
H2A H 0.9992 1.4382 0.4160
N8A N 0.9027(3) 1.7741(4) 0.2462(2)
O11D O 0.4287(3) 1.6206(4) -0.02189(19)
N9A N 0.8144(3) 1.5298(4) 0.31279(19)
C5A C 0.8346(4) 1.7565(5) 0.2667(2)
H3A H 0.8258 1.8100 0.2861
H4A H 0.7883 1.7510 0.2407
N10A N 0.9799(3) 1.7681(4) 0.19244(19)
O12D O 0.7268(3) 1.6262(5) -0.0297(2)
O12E O 1.2732(3) 1.6262(5) 0.5297(2)
C6A C 0.7829(4) 1.4397(5) 0.3037(2)
H5A H 0.7615 1.4191 0.3315
H6A H 0.7387 1.4423 0.2763
C7A C 0.8908(4) 1.3176(5) 0.3287(2)
O13D O 0.3919(3) 1.4261(3) -0.02566(19)
C8A C 0.9529(5) 1.9162(5) 0.2875(3)
H7A H 1.0014 1.9486 0.3013
H8A H 0.9239 1.9517 0.2609
H9A H 0.9203 1.9087 0.3116
C9A C 0.8027(4) 1.5952(5) 0.2777(2)
O14D O 0.4735(4) 1.8136(5) -0.0261(2)
C10A C 1.0022(4) 1.7533(5) 0.3544(2)
H10A H 0.9740 1.8077 0.3632
H11A H 1.0522 1.7481 0.3776
C11A C 0.9733(4) 1.8219(4) 0.2699(2)
O15D O 0.3704(3) 1.5301(4) -0.11081(19)
O15A O 1.3704(3) 1.4699(4) 0.38919(19)
O16D O 0.6620(4) 1.2625(5) -0.0332(3)
C12A C 0.8524(3) 1.5669(5) 0.3590(2)
C13A C 0.8694(4) 1.6697(5) 0.3463(2)
Rb1A Rb 1.20305(4) 1.52168(5) 0.35424(3)
Rb1D Rb 0.20305(4) 1.47832(5) -0.14576(3)
C14A C 0.8437(4) 1.3501(5) 0.2481(2)
O17D O 0.6397(4) 1.5762(5) -0.1124(2)
C15A C 0.9361(4) 1.2561(4) 0.2968(2)
O18B O 0.8798(4) 1.7133(6) -0.0233(2)
O18D O 0.6202(4) 1.7867(6) 0.0233(2)
O18C O 1.1202(4) 1.7133(6) 0.5233(2)
C16A C 0.8015(4) 1.5541(6) 0.3959(3)
H12A H 0.8263 1.5843 0.4255
H13A H 0.7496 1.5813 0.3845
H14A H 0.7956 1.4886 0.4018
C17A C 0.8456(5) 1.2662(6) 0.3606(3)
H15A H 0.8048 1.2286 0.3413
H16A H 0.8817 1.2266 0.3822
H17A H 0.8210 1.3100 0.3792
C18A C 1.0841(4) 1.2463(5) 0.2944(2)
H18A H 1.0745 1.1797 0.2904
H19A H 1.1311 1.2545 0.3197
C19A C 0.8320(5) 1.7408(6) 0.3736(3)
H20A H 0.7747 1.7346 0.3659
H21A H 0.8502 1.7315 0.4077
H22A H 0.8471 1.8023 0.3648
Na1A Na 1.1531(2) 1.5876(3) 0.46882(13)
Na1D Na 0.1531(2) 1.4124(3) -0.03118(13)
Na1B Na 0.3469(2) 1.0876(3) 0.03118(13)
O19A O 1.2214(4) 1.6778(4) 0.4255(2)
O20A O 1.2071(5) 1.4369(6) 0.4540(3)
C20A C 0.9290(5) 1.1523(5) 0.3039(3)
H23A H 0.9502 1.1368 0.3370
H24A H 0.8736 1.1342 0.2960
H25A H 0.9588 1.1197 0.2833
O21A O 1.0660(10) 1.4904(12) 0.4998(5)
loop_
_geom_bond_atom_site_label_1
_geom_bond_atom_site_label_2
_geom_bond_site_symmetry_1
_geom_bond_site_symmetry_2
Mo1 O7 1_555 1_555
Mo2 O6 1_555 1_555
Mo3 O2 1_555 1_555
Mo4 O8 1_555 1_555
C1 O5 1_555 1_555
C2 O4 1_555 1_555
O1 C3 1_555 1_555
C3 N4 1_555 1_555
O2 Mo4D 1_555 1_555
O3 C14 1_555 1_555
O4 Rb1A 1_555 1_555
O5 Rb1 1_555 1_555
O6 Mo3 1_555 1_555
O7 Mo2 1_555 1_555
N1 C14 1_555 1_555
N2 C6 1_555 1_555
O8 Mo2 1_555 1_555
N3 C1 1_555 1_555
O9 C9 1_555 1_555
N4 C10 1_555 1_555
O10 Mo3 1_555 1_555
N5 C3 1_555 1_555
N6 C1 1_555 1_555
N7 C5 1_555 1_555
C4 N3 1_555 1_555
H1 C4 1_555 1_555
H2 C4 1_555 1_555
N8 C2 1_555 1_555
O11 Mo1 1_555 1_555
N9 C6 1_555 1_555
C5 N8 1_555 1_555
H3 C5 1_555 1_555
H4 C5 1_555 1_555
N10 C2 1_555 1_555
O12 Mo2 1_555 1_555
C6 H5 1_555 1_555
H6 C6 1_555 1_555
C7 N2 1_555 1_555
O13 Mo1 1_555 1_555
C8 H7 1_555 1_555
H8 C8 1_555 1_555
H9 C8 1_555 1_555
C9 N7 1_555 1_555
O14 Mo4 1_555 1_555
C10 H10 1_555 1_555
H11 C10 1_555 1_555
C11 N8 1_555 1_555
O15 Mo1 1_555 1_555
O16 Mo3 1_555 1_555
C12 N5 1_555 1_555
C13 N4 1_555 1_555
Rb1 O1 1_555 1_555
C14 N2 1_555 1_555
O17 Mo2 1_555 1_555
C15 N1 1_555 1_555
O18 Mo4 1_555 1_555
C16 C12 1_555 1_555
H12 C16 1_555 1_555
H13 C16 1_555 1_555
H14 C16 1_555 1_555
C17 C7 1_555 1_555
H15 C17 1_555 1_555
H16 C17 1_555 1_555
H17 C17 1_555 1_555
C18 N6 1_555 1_555
H18 C18 1_555 1_555
H19 C18 1_555 1_555
C19 C13 1_555 1_555
H20 C19 1_555 1_555
H21 C19 1_555 1_555
H22 C19 1_555 1_555
Na1 O1 1_555 1_555
O19 Rb1 1_555 1_555
O20 Rb1 1_555 1_555
C20 C15 1_555 1_555
H23 C20 1_555 1_555
H24 C20 1_555 1_555
H25 C20 1_555 1_555
O21 Na1 1_555 1_555
Mo1D O7D 1_555 1_555
Mo2D O13 1_555 1_555
Mo3D O11 1_555 1_555
Mo4D O8D 1_555 1_555
Mo4B O18B 1_555 1_555
C1A O5A 1_555 1_555
C2A O4A 1_555 1_555
O1A C3A 1_555 1_555
C3A N4A 1_555 1_555
O2D Mo4 1_555 1_555
O3A Rb1 1_555 1_555
O4A Rb1 1_555 1_555
O5A Rb1A 1_555 1_555
O6D Mo2D 1_555 1_555
O7D Mo2D 1_555 1_555
N1A C18 1_555 1_555
N2A C6A 1_555 1_555
O8D Mo2D 1_555 1_555
N3A C1A 1_555 1_555
O9A Rb1 1_555 1_555
N4A C10A 1_555 1_555
O10D Mo3D 1_555 1_555
N5A C3A 1_555 1_555
N6A C1A 1_555 1_555
N7A C5A 1_555 1_555
C4A N3A 1_555 1_555
H1A C4A 1_555 1_555
H2A C4A 1_555 1_555
N8A C2A 1_555 1_555
O11D Mo3 1_555 1_555
N9A C6A 1_555 1_555
C5A N8A 1_555 1_555
H3A C5A 1_555 1_555
H4A C5A 1_555 1_555
N10A C10 1_555 1_555
O12D Na1 1_555 1_555
O12E Na1A 1_555 1_555
C6A H5A 1_555 1_555
H6A C6A 1_555 1_555
C7A N2A 1_555 1_555
O13D Mo2 1_555 1_555
C8A H7A 1_555 1_555
H8A C8A 1_555 1_555
H9A C8A 1_555 1_555
C9A O9A 1_555 1_555
O14D Mo4D 1_555 1_555
C10A N10 1_555 1_555
H10A C10A 1_555 1_555
H11A C10A 1_555 1_555
C11A N10 1_555 1_555
O15D Mo1D 1_555 1_555
O15A Rb1A 1_555 1_555
O16D Mo3D 1_555 1_555
C12A N5A 1_555 1_555
C13A N4A 1_555 1_555
Rb1A O3 1_555 1_555
Rb1D O15D 1_555 1_555
C14A O3A 1_555 1_555
O17D Mo2D 1_555 1_555
C15A N1A 1_555 1_555
O18B Na1 1_555 1_555
O18D Mo4D 1_555 1_555
O18C Na1A 1_555 1_555
C16A C12A 1_555 1_555
H12A C16A 1_555 1_555
H13A C16A 1_555 1_555
H14A C16A 1_555 1_555
C17A C7A 1_555 1_555
H15A C17A 1_555 1_555
H16A C17A 1_555 1_555
H17A C17A 1_555 1_555
C18A N1 1_555 1_555
H18A C18A 1_555 1_555
H19A C18A 1_555 1_555
C19A C13A 1_555 1_555
H20A C19A 1_555 1_555
H21A C19A 1_555 1_555
H22A C19A 1_555 1_555
Na1A O1A 1_555 1_555
Na1D O12 1_555 1_555
Na1B O18 1_555 1_555
O19A Rb1A 1_555 1_555
O20A Rb1A 1_555 1_555
C20A C15A 1_555 1_555
H23A C20A 1_555 1_555
H24A C20A 1_555 1_555
H25A C20A 1_555 1_555
O21A Na1A 1_555 1_555
Mo3 O7 1_555 1_555
Mo4 O11 1_555 1_555
N3 C7 1_555 1_555
O9 Rb1A 1_555 1_555
N5 C4 1_555 1_555
N6 C15 1_555 1_555
N7 C13 1_555 1_555
N9 C9 1_555 1_555
N9 C12 1_555 1_555
C7 C15 1_555 1_555
C8 C11 1_555 1_555
C11 N10A 1_555 1_555
C11 C11A 1_555 1_555
O15 Rb1 1_555 1_555
C12 C13 1_555 1_555
Na1 O19 1_555 1_555
Na1 O20 1_555 1_555
Mo1D O11D 1_555 1_555
Mo1D O13D 1_555 1_555
Mo2D O12D 1_555 1_555
Mo3D O2D 1_555 1_555
Mo3D O6D 1_555 1_555
Mo3D O7D 1_555 1_555
Mo4D O11D 1_555 1_555
C2A N10A 1_555 1_555
O1A Rb1A 1_555 1_555
N1A C14A 1_555 1_555
N2A C14A 1_555 1_555
N3A C7A 1_555 1_555
N5A C4A 1_555 1_555
N6A C15A 1_555 1_555
N6A C18A 1_555 1_555
N7A C9A 1_555 1_555
N7A C13A 1_555 1_555
N8A C11A 1_555 1_555
N9A C9A 1_555 1_555
N9A C12A 1_555 1_555
C7A C15A 1_555 1_555
C8A C11A 1_555 1_555
C12A C13A 1_555 1_555
Na1A O19A 1_555 1_555
Na1A O20A 1_555 1_555

#END
