
#######################################################################
#
#                 Cambridge Crystallographic Data Centre
#                                CCDC 
#
#######################################################################
#
# If this CIF has been generated from an entry in the Cambridge 
# Structural Database, then it will include bibliographic, chemical, 
# crystal, experimental, refinement or atomic coordinate data resulting 
# from the CCDC's data processing and validation procedures.
#
#######################################################################

data_OSIWOD
_symmetry_cell_setting           orthorhombic
_symmetry_space_group_name_H-M   'P n a 21'
_symmetry_Int_Tables_number      33
_space_group_name_Hall           'P 2c -2n'
loop_
_symmetry_equiv_pos_site_id
_symmetry_equiv_pos_as_xyz
1 x,y,z
2 -x,-y,1/2+z
3 1/2+x,1/2-y,z
4 1/2-x,1/2+y,1/2+z
_cell_length_a                   7.1495(4)
_cell_length_b                   8.1326(4)
_cell_length_c                   9.5939(5)
_cell_angle_alpha                90
_cell_angle_beta                 90
_cell_angle_gamma                90
_cell_volume                     557.828
loop_
_atom_site_label
_atom_site_type_symbol
_atom_site_fract_x
_atom_site_fract_y
_atom_site_fract_z
Ag1 Ag 0.192219(18) 0.713573(16) 0.49859(3)
N1 N -0.0231(3) 0.5454(2) 0.3689(2)
N2 N -0.2054(2) 0.6016(3) 0.3594(2)
N3 N -0.1670(3) 0.4116(3) 0.1957(2)
C1 C -0.2863(3) 0.5201(3) 0.2554(3)
C2 C -0.4826(3) 0.5466(3) 0.2065(3)
H1 H -0.5555 0.5990 0.2821
H2 H -0.5405 0.4386 0.1862
C3 C -0.4930(4) 0.6544(4) 0.0761(3)
H3 H -0.6241 0.6683 0.0486
H4 H -0.4238 0.6017 0.0001
H5 H -0.4379 0.7622 0.0961
C4 C -0.0075(3) 0.4330(3) 0.2701(3)
H6 H 0.1043 0.3731 0.2529
Ag1A Ag -0.192219(18) 0.286427(16) -0.00141(3)
Ag1B Ag -0.307781(18) 0.786427(16) 0.49859(3)
N2B N 0.2946(2) 0.8984(3) 0.3594(2)
N3A N 0.1670(3) 0.5884(3) 0.6957(2)
loop_
_geom_bond_atom_site_label_1
_geom_bond_atom_site_label_2
_geom_bond_site_symmetry_1
_geom_bond_site_symmetry_2
Ag1 N1 1_555 1_555
N1 N2 1_555 1_555
N2 C1 1_555 1_555
N3 C1 1_555 1_555
C1 C2 1_555 1_555
C2 H1 1_555 1_555
H2 C2 1_555 1_555
C3 C2 1_555 1_555
H3 C3 1_555 1_555
H4 C3 1_555 1_555
H5 C3 1_555 1_555
C4 N1 1_555 1_555
H6 C4 1_555 1_555
Ag1A N3 1_555 1_555
Ag1B N2 1_555 1_555
N2B Ag1 1_555 1_555
N3A Ag1 1_555 1_555
N3 C4 1_555 1_555

#END
