
#######################################################################
#
#                 Cambridge Crystallographic Data Centre
#                                CCDC 
#
#######################################################################
#
# If this CIF has been generated from an entry in the Cambridge 
# Structural Database, then it will include bibliographic, chemical, 
# crystal, experimental, refinement or atomic coordinate data resulting 
# from the CCDC's data processing and validation procedures.
#
#######################################################################

data_OSIXOE
_symmetry_cell_setting           monoclinic
_symmetry_space_group_name_H-M   'C 2/c'
_symmetry_Int_Tables_number      15
_space_group_name_Hall           '-C 2yn'
loop_
_symmetry_equiv_pos_site_id
_symmetry_equiv_pos_as_xyz
1 x,y,z
2 -x,y,1/2-z
3 1/2+x,1/2+y,z
4 1/2-x,1/2+y,1/2-z
5 -x,-y,-z
6 x,-y,1/2+z
7 1/2-x,1/2-y,-z
8 1/2+x,1/2-y,1/2+z
_cell_length_a                   13.6250(15)
_cell_length_b                   21.1810(16)
_cell_length_c                   11.9294(11)
_cell_angle_alpha                90
_cell_angle_beta                 124.107(4)
_cell_angle_gamma                90
_cell_volume                     2850.54
loop_
_atom_site_label
_atom_site_type_symbol
_atom_site_fract_x
_atom_site_fract_y
_atom_site_fract_z
Ag1 Ag 0.91988(3) 0.302389(16) 0.80523(3)
Ag2 Ag 0.85460(3) 0.441453(16) 0.54575(3)
N1 N 0.8860(3) 0.40755(17) 0.8190(4)
N2 N 0.8533(3) 0.45547(17) 0.7261(4)
N3 N 0.8466(3) 0.49316(17) 0.8958(4)
N4 N 1.1002(3) 0.29172(17) 0.9874(4)
N5 N 1.1740(3) 0.34358(17) 1.0485(4)
N6 N 1.2698(3) 0.25713(17) 1.1684(4)
C1 C 0.8815(4) 0.4321(2) 0.9182(4)
C2 C 0.8314(4) 0.5052(2) 0.7764(5)
H1 H 0.8076 0.5451 0.7326
C3 C 0.9071(4) 0.3942(2) 1.0369(4)
H2 H 0.9338 0.4228 1.1146
H3 H 0.9725 0.3644 1.0626
C4 C 0.7992(5) 0.3569(3) 1.0084(5)
H4 H 0.7362 0.3870 0.9903
H5 H 0.7683 0.3311 0.9258
C5 C 0.8267(5) 0.3137(3) 1.1246(5)
H6 H 0.7544 0.2915 1.1011
H7 H 0.8562 0.3390 1.2065
H8 H 0.8871 0.2829 1.1412
C6 C 1.1603(4) 0.2417(2) 1.0609(4)
C7 C 1.2731(4) 0.3208(2) 1.1552(5)
H9 H 1.3396 0.3462 1.2163
C8 C 1.1116(4) 0.1762(2) 1.0311(5)
H10 H 1.0542 0.1717 0.9320
H11 H 1.1771 0.1461 1.0594
C9 C 1.0504(5) 0.1585(2) 1.1009(6)
H12 H 1.1045 0.1668 1.1992
H13 H 0.9789 0.1850 1.0651
C10 C 1.0144(6) 0.0886(3) 1.0785(7)
H14 H 0.9751 0.0786 1.1244
H15 H 0.9599 0.0804 0.9813
H16 H 1.0853 0.0623 1.1155
Ag1G Ag 1.41988(3) 0.197611(16) 1.30523(3)
Ag2E Ag 0.85460(3) 0.558547(16) 1.04575(3)
Ag2A Ag 1.14540(3) 0.441453(16) 0.95425(3)
N3E N 0.8466(3) 0.50684(17) 0.3958(4)
N5A N 0.8260(3) 0.34358(17) 0.4515(4)
N6G N 0.7698(3) 0.24287(17) 0.6684(4)
loop_
_geom_bond_atom_site_label_1
_geom_bond_atom_site_label_2
_geom_bond_site_symmetry_1
_geom_bond_site_symmetry_2
Ag1 N1 1_555 1_555
Ag2 N2 1_555 1_555
N1 N2 1_555 1_555
N2 C2 1_555 1_555
N3 C1 1_555 1_555
N4 Ag1 1_555 1_555
N5 N4 1_555 1_555
N6 C6 1_555 1_555
C1 N1 1_555 1_555
C2 N3 1_555 1_555
H1 C2 1_555 1_555
C3 C1 1_555 1_555
H2 C3 1_555 1_555
H3 C3 1_555 1_555
C4 C3 1_555 1_555
H4 C4 1_555 1_555
H5 C4 1_555 1_555
C5 C4 1_555 1_555
H6 C5 1_555 1_555
H7 C5 1_555 1_555
H8 C5 1_555 1_555
C6 N4 1_555 1_555
C7 N5 1_555 1_555
H9 C7 1_555 1_555
C8 C6 1_555 1_555
H10 C8 1_555 1_555
H11 C8 1_555 1_555
C9 C8 1_555 1_555
H12 C9 1_555 1_555
H13 C9 1_555 1_555
C10 C9 1_555 1_555
H14 C10 1_555 1_555
H15 C10 1_555 1_555
H16 C10 1_555 1_555
Ag1G N6 1_555 1_555
Ag2E N3 1_555 1_555
Ag2A N5 1_555 1_555
N3E Ag2 1_555 1_555
N5A Ag2 1_555 1_555
N6G Ag1 1_555 1_555
N6 C7 1_555 1_555

#END
