
#######################################################################
#
#                 Cambridge Crystallographic Data Centre
#                                CCDC 
#
#######################################################################
#
# If this CIF has been generated from an entry in the Cambridge 
# Structural Database, then it will include bibliographic, chemical, 
# crystal, experimental, refinement or atomic coordinate data resulting 
# from the CCDC's data processing and validation procedures.
#
#######################################################################

data_OSIYEV
_symmetry_cell_setting           orthorhombic
_symmetry_space_group_name_H-M   'P b c a'
_symmetry_Int_Tables_number      61
_space_group_name_Hall           '-P 2ac 2ab'
loop_
_symmetry_equiv_pos_site_id
_symmetry_equiv_pos_as_xyz
1 x,y,z
2 1/2-x,-y,1/2+z
3 -x,1/2+y,1/2-z
4 1/2+x,1/2-y,-z
5 -x,-y,-z
6 1/2+x,y,1/2-z
7 x,1/2-y,1/2+z
8 1/2-x,1/2+y,z
_cell_length_a                   14.8267(7)
_cell_length_b                   15.7817(3)
_cell_length_c                   19.0579(7)
_cell_angle_alpha                90
_cell_angle_beta                 90
_cell_angle_gamma                90
_cell_volume                     4459.37
loop_
_atom_site_label
_atom_site_type_symbol
_atom_site_fract_x
_atom_site_fract_y
_atom_site_fract_z
Tb1 Tb 0.446509(15) 1.027733(13) 0.218150(10)
Tb2 Tb 0.440147(16) 0.754896(13) 0.520167(10)
C1 C 0.8155(3) 0.8902(3) 0.3827(2)
C2 C 0.7138(3) 0.8932(3) 0.3777(2)
C3 C 0.6715(3) 0.9653(3) 0.3536(2)
H1 H 0.7053 1.0130 0.3423
C4 C 0.5785(3) 0.9662(3) 0.3464(2)
C5 C 0.5719(3) 0.8229(3) 0.3939(2)
C6 C 0.6657(3) 0.8215(3) 0.3970(2)
H2 H 0.6958 0.7730 0.4119
C7 C 0.7049(4) 0.6704(3) 0.2360(2)
C8 C 0.7096(3) 0.7646(3) 0.2205(2)
C9 C 0.7908(3) 0.8074(3) 0.2210(2)
H3 H 0.8438 0.7779 0.2297
C10 C 0.7942(3) 0.8943(3) 0.2086(2)
C11 C 0.6293(3) 0.8930(3) 0.1952(2)
C12 C 0.6282(3) 0.8074(3) 0.2075(2)
H4 H 0.5739 0.7778 0.2073
C13 C 0.2153(4) 0.3996(3) 0.4736(2)
C14 C 0.2150(3) 0.4947(3) 0.4612(2)
C15 C 0.1342(3) 0.5362(3) 0.4574(2)
H5 H 0.0807 0.5058 0.4607
C16 C 0.1315(4) 0.6247(3) 0.4483(2)
C17 C 0.2963(3) 0.6249(3) 0.4443(2)
C18 C 0.2962(3) 0.5377(3) 0.4546(2)
H6 H 0.3505 0.5083 0.4571
O1 O 0.5322(2) 1.02734(19) 0.32012(15)
O2 O 0.5196(2) 0.76196(19) 0.41383(15)
O3 O 0.8594(2) 0.9513(2) 0.35838(16)
O4 O 0.8499(2) 0.8266(2) 0.41129(16)
O5 O 0.5598(2) 0.9390(2) 0.18172(16)
O6 O 0.8657(2) 0.9390(2) 0.20879(16)
O7 O 0.7757(3) 0.6335(3) 0.2544(2)
O8 O 0.6300(2) 0.6367(2) 0.23163(17)
O9 O 0.3663(2) 0.6717(2) 0.43889(15)
O10 O 0.0614(2) 0.6705(2) 0.44741(17)
O11 O 0.2873(3) 0.3614(2) 0.4828(2)
O12 O 0.1388(3) 0.3646(2) 0.47407(19)
O13 O 0.5595(3) 1.1326(2) 0.19515(17)
H7 H 0.6102 1.1317 0.2162
H8 H 0.5634 1.1557 0.1549
O14 O 0.4080(3) 1.1086(2) 0.11633(17)
H9 H 0.4350 1.1555 0.1093
H10 H 0.3761 1.0938 0.0813
O15 O 0.5337(2) 0.6366(2) 0.54636(17)
H11 H 0.5175 0.6104 0.5834
H12 H 0.5885 0.6525 0.5485
O16 O 0.4046(3) 0.8251(2) 0.62724(18)
H13 H 0.4259 0.8645 0.6528
H14 H 0.3536 0.8077 0.6420
N1 N 0.5323(3) 0.8949(2) 0.36826(17)
H15 H 0.4744 0.8958 0.3655
N2 N 0.7129(3) 0.9328(3) 0.19585(18)
H16 H 0.7138 0.9864 0.1875
N3 N 0.2132(3) 0.6636(2) 0.44144(18)
H17 H 0.2127 0.7175 0.4347
Tb1B Tb 0.553491(15) 0.527733(13) 0.281850(10)
Tb1E Tb 0.946509(15) 1.027733(13) 0.281850(10)
Tb2C Tb -0.059853(16) 0.745104(13) 0.479833(10)
Tb2C_2 Tb 0.940147(16) 0.745104(13) 0.479833(10)
Tb2G Tb 0.059853(16) 0.254896(13) 0.520167(10)
O3E O 0.3594(2) 0.9513(2) 0.14162(16)
O4C O 0.3499(2) 0.6734(2) 0.58871(16)
O6E O 0.3657(2) 0.9390(2) 0.29121(16)
O8B O 0.3700(2) 1.1367(2) 0.26837(17)
O10C O 0.5614(2) 0.8295(2) 0.55259(17)
O12G O 0.3612(3) 0.8646(2) 0.47407(19)
loop_
_geom_bond_atom_site_label_1
_geom_bond_atom_site_label_2
_geom_bond_site_symmetry_1
_geom_bond_site_symmetry_2
Tb1 O1 1_555 1_555
Tb2 O2 1_555 1_555
C1 C2 1_555 1_555
C2 C3 1_555 1_555
C3 H1 1_555 1_555
C4 C3 1_555 1_555
C5 C6 1_555 1_555
C6 C2 1_555 1_555
H2 C6 1_555 1_555
C7 C8 1_555 1_555
C8 C9 1_555 1_555
C9 H3 1_555 1_555
C10 C9 1_555 1_555
C11 C12 1_555 1_555
C12 C8 1_555 1_555
H4 C12 1_555 1_555
C13 C14 1_555 1_555
C14 C15 1_555 1_555
C15 H5 1_555 1_555
C16 C15 1_555 1_555
C17 C18 1_555 1_555
C18 C14 1_555 1_555
H6 C18 1_555 1_555
O1 C4 1_555 1_555
O2 C5 1_555 1_555
O3 C1 1_555 1_555
O4 C1 1_555 1_555
O5 Tb1 1_555 1_555
O6 C10 1_555 1_555
O7 C7 1_555 1_555
O8 C7 1_555 1_555
O9 Tb2 1_555 1_555
O10 C16 1_555 1_555
O11 C13 1_555 1_555
O12 C13 1_555 1_555
O13 Tb1 1_555 1_555
H7 O13 1_555 1_555
H8 O13 1_555 1_555
O14 Tb1 1_555 1_555
H9 O14 1_555 1_555
H10 O14 1_555 1_555
O15 Tb2 1_555 1_555
H11 O15 1_555 1_555
H12 O15 1_555 1_555
O16 Tb2 1_555 1_555
H13 O16 1_555 1_555
H14 O16 1_555 1_555
N1 C4 1_555 1_555
H15 N1 1_555 1_555
N2 C10 1_555 1_555
H16 N2 1_555 1_555
N3 C16 1_555 1_555
H17 N3 1_555 1_555
Tb1B O8 1_555 1_555
Tb1E O3 1_555 1_555
Tb2C O10 1_555 1_555
Tb2C_2 O4 1_555 1_555
Tb2G O12 1_555 1_555
O3E Tb1 1_555 1_555
O4C Tb2 1_555 1_555
O6E Tb1 1_555 1_555
O8B Tb1 1_555 1_555
O10C Tb2 1_555 1_555
O12G Tb2 1_555 1_555
C5 N1 1_555 1_555
C11 O5 1_555 1_555
C11 N2 1_555 1_555
C17 O9 1_555 1_555
C17 N3 1_555 1_555
O6 Tb1E 1_555 1_555

#END
