
#######################################################################
#
#                 Cambridge Crystallographic Data Centre
#                                CCDC 
#
#######################################################################
#
# If this CIF has been generated from an entry in the Cambridge 
# Structural Database, then it will include bibliographic, chemical, 
# crystal, experimental, refinement or atomic coordinate data resulting 
# from the CCDC's data processing and validation procedures.
#
#######################################################################

data_OSIYAR
_symmetry_cell_setting           orthorhombic
_symmetry_space_group_name_H-M   'P b c a'
_symmetry_Int_Tables_number      61
_space_group_name_Hall           '-P 2ac 2ab'
loop_
_symmetry_equiv_pos_site_id
_symmetry_equiv_pos_as_xyz
1 x,y,z
2 1/2-x,-y,1/2+z
3 -x,1/2+y,1/2-z
4 1/2+x,1/2-y,-z
5 -x,-y,-z
6 1/2+x,y,1/2-z
7 x,1/2-y,1/2+z
8 1/2-x,1/2+y,z
_cell_length_a                   14.8594(2)
_cell_length_b                   15.8477(2)
_cell_length_c                   19.0553(3)
_cell_angle_alpha                90
_cell_angle_beta                 90
_cell_angle_gamma                90
_cell_volume                     4487.28
loop_
_atom_site_label
_atom_site_type_symbol
_atom_site_fract_x
_atom_site_fract_y
_atom_site_fract_z
Gd1 Gd 0.446312(11) 1.027925(12) 0.218019(9)
Gd2 Gd 0.439820(12) 0.755078(12) 0.520449(9)
C1 C 0.8150(3) 0.8904(3) 0.38287(19)
C2 C 0.7134(2) 0.8933(2) 0.37791(18)
C3 C 0.6715(2) 0.9652(3) 0.35370(18)
H1 H 0.7051 1.0127 0.3421
C4 C 0.5784(2) 0.9660(2) 0.34687(18)
C5 C 0.5716(2) 0.8237(2) 0.39460(18)
C6 C 0.6655(2) 0.8221(2) 0.39701(18)
H2 H 0.6956 0.7736 0.4113
C7 C 0.7050(3) 0.6718(3) 0.2366(2)
C8 C 0.7097(3) 0.7644(3) 0.22104(19)
C9 C 0.7902(3) 0.8077(3) 0.22086(19)
H3 H 0.8433 0.7783 0.2291
C10 C 0.7941(3) 0.8935(3) 0.20878(19)
C11 C 0.6298(3) 0.8929(3) 0.1952(2)
C12 C 0.6283(3) 0.8074(3) 0.2075(2)
H4 H 0.5740 0.7781 0.2069
C13 C 0.2155(3) 0.3996(3) 0.4750(2)
C14 C 0.2149(3) 0.4944(3) 0.46161(19)
C15 C 0.1343(3) 0.5362(3) 0.4578(2)
H5 H 0.0808 0.5061 0.4618
C16 C 0.1315(3) 0.6234(3) 0.4480(2)
C17 C 0.2956(3) 0.6243(3) 0.44438(19)
C18 C 0.2961(3) 0.5376(3) 0.4548(2)
H6 H 0.3504 0.5085 0.4572
O1 O 0.53169(16) 1.02744(17) 0.32089(13)
O2 O 0.51950(17) 0.76287(17) 0.41431(13)
O3 O 0.85843(17) 0.95160(18) 0.35855(14)
O4 O 0.84943(17) 0.82727(18) 0.41110(14)
O5 O 0.55963(18) 0.93834(18) 0.18181(14)
O6 O 0.86534(17) 0.93893(18) 0.20861(14)
O7 O 0.7751(2) 0.6347(2) 0.2553(2)
O8 O 0.6300(2) 0.63698(19) 0.23084(15)
O9 O 0.36588(17) 0.67152(17) 0.43836(13)
O10 O 0.06144(18) 0.66913(18) 0.44698(15)
O11 O 0.2870(2) 0.3625(2) 0.4839(2)
O12 O 0.1390(2) 0.36499(19) 0.47462(16)
O13 O 0.56107(19) 1.13214(19) 0.19488(15)
H7 H 0.6117 1.1312 0.2159
H8 H 0.5650 1.1553 0.1546
O14 O 0.4081(2) 1.10986(19) 0.11647(15)
H9 H 0.4350 1.1568 0.1095
H10 H 0.3761 1.0951 0.0814
O15 O 0.53488(18) 0.63669(18) 0.54660(15)
H11 H 0.5186 0.6105 0.5836
H12 H 0.5897 0.6526 0.5487
O16 O 0.4041(2) 0.8253(2) 0.62838(17)
H13 H 0.4254 0.8647 0.6540
H14 H 0.3531 0.8079 0.6432
N1 N 0.5329(2) 0.8955(2) 0.36869(16)
H15 H 0.4752 0.8965 0.3659
N2 N 0.7129(2) 0.9327(2) 0.19567(17)
H16 H 0.7139 0.9860 0.1871
N3 N 0.2133(2) 0.6631(2) 0.44101(16)
H17 H 0.2128 0.7167 0.4339
Gd1B Gd 0.553688(11) 0.527925(12) 0.281981(9)
Gd1E Gd 0.946312(11) 1.027925(12) 0.281981(9)
Gd2C Gd -0.060180(12) 0.744922(12) 0.479551(9)
Gd2C_2 Gd 0.939820(12) 0.744922(12) 0.479551(9)
Gd2G Gd 0.060180(12) 0.255078(12) 0.520449(9)
O3E O 0.35843(17) 0.95160(18) 0.14145(14)
O4C O 0.34943(17) 0.67273(18) 0.58890(14)
O6E O 0.36534(17) 0.93893(18) 0.29139(14)
O8B O 0.3700(2) 1.13698(19) 0.26916(15)
O10C O 0.56144(18) 0.83087(18) 0.55302(15)
O12G O 0.3610(2) 0.86499(19) 0.47462(16)
loop_
_geom_bond_atom_site_label_1
_geom_bond_atom_site_label_2
_geom_bond_site_symmetry_1
_geom_bond_site_symmetry_2
Gd1 O1 1_555 1_555
Gd2 O2 1_555 1_555
C1 C2 1_555 1_555
C2 C3 1_555 1_555
C3 H1 1_555 1_555
C4 C3 1_555 1_555
C5 C6 1_555 1_555
C6 C2 1_555 1_555
H2 C6 1_555 1_555
C7 C8 1_555 1_555
C8 C9 1_555 1_555
C9 H3 1_555 1_555
C10 C9 1_555 1_555
C11 C12 1_555 1_555
C12 C8 1_555 1_555
H4 C12 1_555 1_555
C13 C14 1_555 1_555
C14 C15 1_555 1_555
C15 H5 1_555 1_555
C16 C15 1_555 1_555
C17 C18 1_555 1_555
C18 C14 1_555 1_555
H6 C18 1_555 1_555
O1 C4 1_555 1_555
O2 C5 1_555 1_555
O3 C1 1_555 1_555
O4 C1 1_555 1_555
O5 Gd1 1_555 1_555
O6 C10 1_555 1_555
O7 C7 1_555 1_555
O8 C7 1_555 1_555
O9 Gd2 1_555 1_555
O10 C16 1_555 1_555
O11 C13 1_555 1_555
O12 C13 1_555 1_555
O13 Gd1 1_555 1_555
H7 O13 1_555 1_555
H8 O13 1_555 1_555
O14 Gd1 1_555 1_555
H9 O14 1_555 1_555
H10 O14 1_555 1_555
O15 Gd2 1_555 1_555
H11 O15 1_555 1_555
H12 O15 1_555 1_555
O16 Gd2 1_555 1_555
H13 O16 1_555 1_555
H14 O16 1_555 1_555
N1 C4 1_555 1_555
H15 N1 1_555 1_555
N2 C10 1_555 1_555
H16 N2 1_555 1_555
N3 C16 1_555 1_555
H17 N3 1_555 1_555
Gd1B O8 1_555 1_555
Gd1E O3 1_555 1_555
Gd2C O10 1_555 1_555
Gd2C_2 O4 1_555 1_555
Gd2G O12 1_555 1_555
O3E Gd1 1_555 1_555
O4C Gd2 1_555 1_555
O6E Gd1 1_555 1_555
O8B Gd1 1_555 1_555
O10C Gd2 1_555 1_555
O12G Gd2 1_555 1_555
C5 N1 1_555 1_555
C11 O5 1_555 1_555
C11 N2 1_555 1_555
C17 O9 1_555 1_555
C17 N3 1_555 1_555
O6 Gd1E 1_555 1_555

#END
