
#######################################################################
#
#                 Cambridge Crystallographic Data Centre
#                                CCDC 
#
#######################################################################
#
# If this CIF has been generated from an entry in the Cambridge 
# Structural Database, then it will include bibliographic, chemical, 
# crystal, experimental, refinement or atomic coordinate data resulting 
# from the CCDC's data processing and validation procedures.
#
#######################################################################

data_OSIYOF
_symmetry_cell_setting           orthorhombic
_symmetry_space_group_name_H-M   'P b c a'
_symmetry_Int_Tables_number      61
_space_group_name_Hall           '-P 2ac 2ab'
loop_
_symmetry_equiv_pos_site_id
_symmetry_equiv_pos_as_xyz
1 x,y,z
2 1/2-x,-y,1/2+z
3 -x,1/2+y,1/2-z
4 1/2+x,1/2-y,-z
5 -x,-y,-z
6 1/2+x,y,1/2-z
7 x,1/2-y,1/2+z
8 1/2-x,1/2+y,z
_cell_length_a                   14.7597(5)
_cell_length_b                   15.7023(6)
_cell_length_c                   18.9885(9)
_cell_angle_alpha                90
_cell_angle_beta                 90
_cell_angle_gamma                90
_cell_volume                     4400.8
loop_
_atom_site_label
_atom_site_type_symbol
_atom_site_fract_x
_atom_site_fract_y
_atom_site_fract_z
Ho1 Ho 0.446744(13) 1.027547(11) 0.218245(9)
Ho2 Ho 0.440619(13) 0.754275(12) 0.520067(8)
C1 C 0.8155(3) 0.8911(3) 0.38283(19)
C2 C 0.7145(3) 0.8928(3) 0.37763(18)
C3 C 0.6716(3) 0.9659(3) 0.35343(18)
H1 H 0.7053 1.0140 0.3420
C4 C 0.5788(3) 0.9664(3) 0.34663(18)
C5 C 0.5717(3) 0.8226(3) 0.39471(18)
C6 C 0.6654(3) 0.8214(3) 0.39748(18)
H2 H 0.6954 0.7726 0.4127
C7 C 0.7047(3) 0.6714(3) 0.2370(2)
C8 C 0.7102(3) 0.7639(3) 0.22094(19)
C9 C 0.7894(3) 0.8080(3) 0.22113(19)
H3 H 0.8430 0.7785 0.2295
C10 C 0.7937(3) 0.8940(3) 0.2095(2)
C11 C 0.6284(3) 0.8929(3) 0.1955(2)
C12 C 0.6268(3) 0.8072(3) 0.2072(2)
H4 H 0.5724 0.7774 0.2062
C13 C 0.2146(3) 0.3986(3) 0.4741(2)
C14 C 0.2147(3) 0.4938(3) 0.46155(18)
C15 C 0.1335(3) 0.5359(3) 0.45752(19)
H5 H 0.0795 0.5056 0.4608
C16 C 0.1317(3) 0.6250(3) 0.4484(2)
C17 C 0.2967(3) 0.6246(3) 0.4445(2)
C18 C 0.2960(3) 0.5372(3) 0.45461(19)
H6 H 0.3504 0.5074 0.4567
O1 O 0.53135(18) 1.02777(18) 0.31992(13)
O2 O 0.5195(2) 0.76147(18) 0.41468(13)
O3 O 0.8599(2) 0.95156(19) 0.35762(14)
O4 O 0.8502(2) 0.82728(19) 0.41260(13)
O5 O 0.5581(2) 0.9388(2) 0.18213(14)
O6 O 0.8662(2) 0.93928(19) 0.20955(14)
O7 O 0.7754(3) 0.6337(2) 0.2555(2)
O8 O 0.6280(2) 0.6356(2) 0.23178(15)
O9 O 0.3673(2) 0.67179(19) 0.43879(14)
O10 O 0.0609(2) 0.67073(19) 0.44744(14)
O11 O 0.2864(3) 0.3608(2) 0.4827(2)
O12 O 0.1378(2) 0.3633(2) 0.47567(16)
O13 O 0.5596(2) 1.13135(19) 0.19515(13)
H7 H 0.6102 1.1305 0.2162
H8 H 0.5634 1.1545 0.1549
O14 O 0.4093(2) 1.1079(2) 0.11702(15)
H9 H 0.4362 1.1549 0.1100
H10 H 0.3774 1.0932 0.0820
O15 O 0.5339(2) 0.63662(19) 0.54577(14)
H11 H 0.5177 0.6105 0.5828
H12 H 0.5887 0.6526 0.5479
O16 O 0.4063(2) 0.8231(2) 0.62761(16)
H13 H 0.4276 0.8625 0.6532
H14 H 0.3553 0.8057 0.6424
N1 N 0.5325(2) 0.8951(2) 0.36863(16)
H15 H 0.4743 0.8961 0.3658
N2 N 0.7122(3) 0.9327(3) 0.19578(16)
H16 H 0.7133 0.9863 0.1866
N3 N 0.2139(2) 0.6639(2) 0.44088(16)
H17 H 0.2136 0.7179 0.4332
Ho1B Ho 0.553256(13) 0.527547(11) 0.281755(9)
Ho1E Ho 0.946744(13) 1.027547(11) 0.281755(9)
Ho2C Ho -0.059381(13) 0.745725(12) 0.479933(8)
Ho2C_2 Ho 0.940619(13) 0.745725(12) 0.479933(8)
Ho2G Ho 0.059381(13) 0.254275(12) 0.520067(8)
O3E O 0.3599(2) 0.95156(19) 0.14238(14)
O4C O 0.3502(2) 0.67272(19) 0.58740(13)
O6E O 0.3662(2) 0.93928(19) 0.29045(14)
O8B O 0.3720(2) 1.1356(2) 0.26822(15)
O10C O 0.5609(2) 0.82927(19) 0.55256(14)
O12G O 0.3622(2) 0.8633(2) 0.47567(16)
loop_
_geom_bond_atom_site_label_1
_geom_bond_atom_site_label_2
_geom_bond_site_symmetry_1
_geom_bond_site_symmetry_2
Ho1 O1 1_555 1_555
Ho2 O2 1_555 1_555
C1 C2 1_555 1_555
C2 C3 1_555 1_555
C3 H1 1_555 1_555
C4 C3 1_555 1_555
C5 C6 1_555 1_555
C6 C2 1_555 1_555
H2 C6 1_555 1_555
C7 C8 1_555 1_555
C8 C9 1_555 1_555
C9 H3 1_555 1_555
C10 C9 1_555 1_555
C11 C12 1_555 1_555
C12 C8 1_555 1_555
H4 C12 1_555 1_555
C13 C14 1_555 1_555
C14 C15 1_555 1_555
C15 H5 1_555 1_555
C16 C15 1_555 1_555
C17 C18 1_555 1_555
C18 C14 1_555 1_555
H6 C18 1_555 1_555
O1 C4 1_555 1_555
O2 C5 1_555 1_555
O3 C1 1_555 1_555
O4 C1 1_555 1_555
O5 Ho1 1_555 1_555
O6 C10 1_555 1_555
O7 C7 1_555 1_555
O8 C7 1_555 1_555
O9 Ho2 1_555 1_555
O10 C16 1_555 1_555
O11 C13 1_555 1_555
O12 C13 1_555 1_555
O13 Ho1 1_555 1_555
H7 O13 1_555 1_555
H8 O13 1_555 1_555
O14 Ho1 1_555 1_555
H9 O14 1_555 1_555
H10 O14 1_555 1_555
O15 Ho2 1_555 1_555
H11 O15 1_555 1_555
H12 O15 1_555 1_555
O16 Ho2 1_555 1_555
H13 O16 1_555 1_555
H14 O16 1_555 1_555
N1 C4 1_555 1_555
H15 N1 1_555 1_555
N2 C10 1_555 1_555
H16 N2 1_555 1_555
N3 C16 1_555 1_555
H17 N3 1_555 1_555
Ho1B O8 1_555 1_555
Ho1E O3 1_555 1_555
Ho2C O10 1_555 1_555
Ho2C_2 O4 1_555 1_555
Ho2G O12 1_555 1_555
O3E Ho1 1_555 1_555
O4C Ho2 1_555 1_555
O6E Ho1 1_555 1_555
O8B Ho1 1_555 1_555
O10C Ho2 1_555 1_555
O12G Ho2 1_555 1_555
C5 N1 1_555 1_555
C11 O5 1_555 1_555
C11 N2 1_555 1_555
C17 O9 1_555 1_555
C17 N3 1_555 1_555
O6 Ho1E 1_555 1_555

#END
