
#######################################################################
#
#                 Cambridge Crystallographic Data Centre
#                                CCDC 
#
#######################################################################
#
# If this CIF has been generated from an entry in the Cambridge 
# Structural Database, then it will include bibliographic, chemical, 
# crystal, experimental, refinement or atomic coordinate data resulting 
# from the CCDC's data processing and validation procedures.
#
#######################################################################

data_OSOMEP
_symmetry_cell_setting           monoclinic
_symmetry_space_group_name_H-M   'P 21/c'
_symmetry_Int_Tables_number      14
_space_group_name_Hall           '-P 2ybc'
loop_
_symmetry_equiv_pos_site_id
_symmetry_equiv_pos_as_xyz
1 x,y,z
2 -x,1/2+y,1/2-z
3 -x,-y,-z
4 x,1/2-y,1/2+z
_cell_length_a                   8.931(4)
_cell_length_b                   22.681(9)
_cell_length_c                   19.916(9)
_cell_angle_alpha                90
_cell_angle_beta                 98.310(6)
_cell_angle_gamma                90
_cell_volume                     3991.91
loop_
_atom_site_label
_atom_site_type_symbol
_atom_site_fract_x
_atom_site_fract_y
_atom_site_fract_z
Zn1 Zn -0.42840(8) 0.36025(3) -0.26946(3)
Zn2 Zn -0.49186(7) 0.24739(3) -0.35702(3)
Zn3 Zn -0.43499(15) 0.03303(4) -0.32965(5)
O1 O -0.3291(6) 0.0832(2) -0.3869(3)
O2 O -0.4214(5) 0.1663(2) -0.3538(3)
O3 O -0.3394(5) 0.3097(2) -0.3460(2)
O4 O -0.1096(7) 0.3456(3) -0.3304(4)
O5 O -0.6212(7) 0.0394(2) -0.6267(3)
O6 O -0.5350(6) 0.0934(2) -0.7024(3)
O7 O -0.5388(5) 0.22811(18) -0.7667(2)
O8 O -0.7239(6) 0.2926(3) -0.7806(3)
O9 O -0.3092(7) 0.4534(3) -0.4221(3)
O10 O -0.5380(7) 0.4182(3) -0.4619(3)
O11 O -0.3204(7) 0.4024(3) -0.7000(3)
O12 O -0.5169(6) 0.4562(2) -0.7452(3)
O13 O -0.6047(5) 0.3741(2) -0.3466(3)
H1 H -0.6126 0.3691 -0.3892
H2 H -0.6874 0.3888 -0.3380
O14 O -0.3267(5) 0.4395(2) -0.2894(2)
H3 H -0.2788 0.4505 -0.3211
H4 H -0.3406 0.4697 -0.2658
O15 O -0.1676(13) 0.0174(5) -0.2754(6)
H5 H -0.1388 0.0514 -0.2861
H6 H -0.1003 0.0025 -0.2457
N1 N -0.4405(6) 0.2114(2) -0.5411(3)
N2 N -0.3490(6) 0.3090(2) -0.5142(3)
N3 N -0.5278(7) 0.2922(2) -0.6141(3)
N4 N -0.2670(6) 0.2305(2) -0.4452(3)
N5 N -0.4427(8) 0.3853(2) -0.5827(3)
N6 N -0.6181(6) 0.1985(2) -0.6372(3)
N7 N -0.2613(6) 0.3302(2) -0.1930(3)
N8 N 0.3268(5) 0.2582(2) 0.0705(3)
N9 N -0.6615(8) 0.0344(3) -0.3913(3)
C1 C -0.3551(8) 0.2512(2) -0.5031(3)
C2 C -0.5257(7) 0.2351(2) -0.5955(3)
C3 C -0.4389(7) 0.3270(2) -0.5702(3)
C4 C -0.2445(7) 0.1678(3) -0.4354(3)
H7 H -0.1390 0.1611 -0.4176
H8 H -0.2642 0.1488 -0.4794
C5 C -0.3403(7) 0.1385(3) -0.3889(3)
C6 C -0.1505(7) 0.2700(3) -0.4091(3)
H9 H -0.1080 0.2932 -0.4427
H10 H -0.0697 0.2458 -0.3859
C7 C -0.2012(7) 0.3115(3) -0.3584(4)
C8 C -0.6512(9) 0.1395(3) -0.6138(3)
H11 H -0.7600 0.1359 -0.6161
H12 H -0.6078 0.1362 -0.5664
C9 C -0.5955(7) 0.0879(3) -0.6515(3)
C10 C -0.7233(8) 0.2243(3) -0.6907(3)
H13 H -0.7799 0.2546 -0.6709
H14 H -0.7949 0.1941 -0.7087
C11 C -0.6589(7) 0.2513(3) -0.7492(3)
C12 C -0.3492(10) 0.4244(3) -0.5359(3)
H15 H -0.3447 0.4627 -0.5571
H16 H -0.2471 0.4087 -0.5276
C13 C -0.4067(10) 0.4321(3) -0.4683(3)
C14 C -0.5352(8) 0.4106(3) -0.6424(3)
H17 H -0.5810 0.4468 -0.6292
H18 H -0.6161 0.3834 -0.6585
C15 C -0.4459(8) 0.4238(3) -0.6998(3)
C16 C -0.1814(8) 0.3714(3) -0.1550(4)
H19 H -0.2012 0.4109 -0.1649
C17 C -0.0703(8) 0.3572(3) -0.1016(4)
H20 H -0.0188 0.3870 -0.0758
C18 C -0.0356(6) 0.2990(3) -0.0862(3)
C19 C -0.1181(7) 0.2567(3) -0.1256(3)
H21 H -0.0995 0.2168 -0.1171
C20 C -0.2299(7) 0.2743(3) -0.1785(3)
H22 H -0.2843 0.2453 -0.2047
C21 C 0.2549(7) 0.3106(3) 0.0693(3)
H23 H 0.2866 0.3383 0.1027
C22 C 0.1356(7) 0.3241(3) 0.0197(3)
H24 H 0.0885 0.3607 0.0196
C23 C 0.0859(6) 0.2829(3) -0.0303(3)
C24 C 0.1582(7) 0.2286(3) -0.0268(3)
H25 H 0.1263 0.1995 -0.0586
C25 C 0.2770(7) 0.2180(3) 0.0236(3)
H26 H 0.3245 0.1814 0.0252
C26 C -0.7940(11) 0.0348(4) -0.3699(4)
H27 H -0.7965 0.0440 -0.3246
C27 C -0.9267(11) 0.0226(4) -0.4092(4)
H28 H -1.0167 0.0240 -0.3909
C28 C -0.9279(9) 0.0080(3) -0.4768(4)
C29 C -0.7922(10) 0.0093(5) -0.5007(4)
H29 H -0.7867 0.0003 -0.5458
C30 C -0.6680(12) 0.0235(5) -0.4587(5)
H30 H -0.5782 0.0262 -0.4770
Zn1C Zn -0.42840(8) 0.13975(3) 0.23054(3)
Zn1C_2 Zn -0.42840(8) 0.13975(3) -0.76946(3)
Zn1C_3 Zn -1.42840(8) 0.13975(3) -0.76946(3)
Zn2C Zn -0.49186(7) 0.25261(3) 0.14298(3)
Zn2C_2 Zn -0.49186(7) 0.25261(3) -0.85702(3)
Zn2C_3 Zn 0.50814(7) 0.25261(3) 0.14298(3)
Zn3C Zn -0.43499(15) 0.46697(4) 0.17035(5)
Zn3B Zn -0.56501(15) -0.03303(4) -0.67035(5)
Zn3C_2 Zn -0.43499(15) 0.46697(4) -0.82965(5)
Zn3B_2 Zn -1.56501(15) -0.03303(4) -0.67035(5)
Zn3A Zn -0.56501(15) 0.53303(4) -0.17035(5)
O1C O -0.3291(6) 0.4168(2) 0.1131(3)
O2C O -0.4214(5) 0.3337(2) 0.1462(3)
O3C O -0.3394(5) 0.1903(2) 0.1540(2)
O4C O -0.1096(7) 0.1544(3) 0.1696(4)
O5C O -0.6212(7) 0.4606(2) -0.1267(3)
O5B O -0.3788(7) -0.0394(2) -0.3733(3)
O5A O -0.3788(7) 0.5394(2) 0.1267(3)
O6C O -0.5350(6) 0.4066(2) -0.2024(3)
O6_2 O -0.5350(6) 0.0934(2) 0.2976(3)
O7C O -0.5388(5) 0.27189(18) -0.2667(2)
O7_2 O -0.5388(5) 0.22811(18) 0.2333(2)
O8C O -0.7239(6) 0.2074(3) -0.2806(3)
O9C O -0.3092(7) 0.0466(3) 0.0779(3)
O10C O -0.5380(7) 0.0818(3) 0.0381(3)
O11C O -0.3204(7) 0.0976(3) -0.2000(3)
O12C O -0.5169(6) 0.0438(2) -0.2452(3)
O12_2 O -0.5169(6) 0.4562(2) 0.2548(3)
O13C O -0.6047(5) 0.1259(2) 0.1534(3)
H1C H -0.6126 0.1309 0.1108
H2C H -0.6874 0.1112 0.1620
O14C O -0.3267(5) 0.0605(2) 0.2106(2)
H3C H -0.2788 0.0495 0.1789
H4C H -0.3406 0.0303 0.2342
O15C O -0.1676(13) 0.4826(5) 0.2246(6)
H5C H -0.1388 0.4486 0.2139
H6C H -0.1003 0.4975 0.2543
N1C N -0.4405(6) 0.2886(2) -0.0411(3)
N2C N -0.3490(6) 0.1910(2) -0.0142(3)
N3C N -0.5278(7) 0.2078(2) -0.1141(3)
N4C N -0.2670(6) 0.2695(2) 0.0548(3)
N5C N -0.4427(8) 0.1147(2) -0.0827(3)
N6C N -0.6181(6) 0.3015(2) -0.1372(3)
N7C N -1.2613(6) 0.1698(2) -0.6930(3)
N7C_2 N -0.2613(6) 0.1698(2) 0.3070(3)
N8C N -0.6732(5) 0.2418(2) -0.4295(3)
N8_2 N -0.6732(5) 0.2582(2) 0.0705(3)
N9B N -1.3385(8) -0.0344(3) -0.6087(3)
N9C N -0.6615(8) 0.4656(3) 0.1087(3)
C1C C -0.3551(8) 0.2488(2) -0.0031(3)
C2C C -0.5257(7) 0.2649(2) -0.0955(3)
C3C C -0.4389(7) 0.1730(2) -0.0702(3)
C4C C -0.2445(7) 0.3322(3) 0.0646(3)
H7C H -0.1390 0.3389 0.0824
H8C H -0.2642 0.3512 0.0206
C5C C -0.3403(7) 0.3615(3) 0.1111(3)
C6C C -0.1505(7) 0.2300(3) 0.0909(3)
H9C H -0.1080 0.2068 0.0573
H10C H -0.0697 0.2542 0.1141
C7C C -0.2012(7) 0.1885(3) 0.1416(4)
C8C C -0.6512(9) 0.3605(3) -0.1138(3)
H11C H -0.7600 0.3641 -0.1161
H12C H -0.6078 0.3638 -0.0664
C9C C -0.5955(7) 0.4121(3) -0.1515(3)
C10C C -0.7233(8) 0.2757(3) -0.1907(3)
H13C H -0.7799 0.2454 -0.1709
H14C H -0.7949 0.3059 -0.2087
C11C C -0.6589(7) 0.2487(3) -0.2492(3)
C12C C -0.3492(10) 0.0756(3) -0.0359(3)
H15C H -0.3447 0.0373 -0.0571
H16C H -0.2471 0.0913 -0.0276
C13C C -0.4067(10) 0.0679(3) 0.0317(3)
C14C C -0.5352(8) 0.0894(3) -0.1424(3)
H17C H -0.5810 0.0532 -0.1292
H18C H -0.6161 0.1166 -0.1585
C15C C -0.4459(8) 0.0762(3) -0.1998(3)
C16C C -1.1814(8) 0.1286(3) -0.6550(4)
H19C H -1.2012 0.0891 -0.6649
C17C C -1.0703(8) 0.1428(3) -0.6016(4)
H20C H -1.0188 0.1130 -0.5758
C18C C -1.0356(6) 0.2010(3) -0.5862(3)
C19C C -1.1181(7) 0.2433(3) -0.6256(3)
H21C H -1.0995 0.2832 -0.6171
C20C C -1.2299(7) 0.2257(3) -0.6785(3)
H22C H -1.2843 0.2547 -0.7047
C21C C -0.7451(7) 0.1894(3) -0.4307(3)
H23C H -0.7134 0.1617 -0.3973
C22C C -0.8644(7) 0.1759(3) -0.4803(3)
H24C H -0.9115 0.1393 -0.4804
C23C C -0.9141(6) 0.2171(3) -0.5303(3)
C24C C -0.8418(7) 0.2714(3) -0.5268(3)
H25C H -0.8737 0.3005 -0.5586
C25C C -0.7230(7) 0.2820(3) -0.4764(3)
H26C H -0.6755 0.3186 -0.4748
C26B C -1.2060(11) -0.0348(4) -0.6301(4)
H27B H -1.2035 -0.0440 -0.6754
C27B C -1.0733(11) -0.0226(4) -0.5908(4)
H28B H -0.9833 -0.0240 -0.6091
C28B C -1.0721(9) -0.0080(3) -0.5232(4)
C29B C -1.2078(10) -0.0093(5) -0.4993(4)
H29B H -1.2133 -0.0003 -0.4542
C30B C -1.3320(12) -0.0235(5) -0.5413(5)
H30B H -1.4218 -0.0262 -0.5230
O16 O -0.0245(9) 0.1140(4) -0.1408(5)
H31 H -0.0482 0.0885 -0.1719
H38 H -0.0163 0.1480 -0.1609
O17 O -0.8667(9) 0.4157(4) -0.3135(5)
H32 H -0.8958 0.4064 -0.2761
H39 H -0.8999 0.4517 -0.3285
O18 O 0.0027(10) 0.1494(4) -0.2962(5)
H33 H -0.0912 0.1443 -0.3096
H34 H 0.0120 0.1702 -0.2603
O19 O -0.8316(15) 0.0628(10) -0.0394(9)
H36 H -0.8422 0.0685 0.0088
H37 H -0.8855 0.1003 -0.0396
O20 O -0.0199(11) 0.4778(5) -0.4287(5)
H35 H -0.0774 0.5032 -0.4142
H40 H 0.0237 0.5104 -0.4344
loop_
_geom_bond_atom_site_label_1
_geom_bond_atom_site_label_2
_geom_bond_site_symmetry_1
_geom_bond_site_symmetry_2
Zn1 O3 1_555 1_555
Zn2 O2 1_555 1_555
Zn3 O1 1_555 1_555
O1 C5 1_555 1_555
O2 C5 1_555 1_555
O3 Zn2 1_555 1_555
O4 C7 1_555 1_555
O5 C9 1_555 1_555
O6 C9 1_555 1_555
O7 C11 1_555 1_555
O8 C11 1_555 1_555
O9 C13 1_555 1_555
O10 C13 1_555 1_555
O11 C15 1_555 1_555
O12 C15 1_555 1_555
O13 Zn1 1_555 1_555
H1 O13 1_555 1_555
H2 O13 1_555 1_555
O14 Zn1 1_555 1_555
H3 O14 1_555 1_555
H4 O14 1_555 1_555
O15 Zn3 1_555 1_555
H5 O15 1_555 1_555
H6 O15 1_555 1_555
N1 C1 1_555 1_555
N2 C1 1_555 1_555
N3 C2 1_555 1_555
N4 C1 1_555 1_555
N5 C3 1_555 1_555
N6 C2 1_555 1_555
N7 Zn1 1_555 1_555
N8 C21 1_555 1_555
N9 Zn3 1_555 1_555
C2 N1 1_555 1_555
C3 N2 1_555 1_555
C4 N4 1_555 1_555
H7 C4 1_555 1_555
H8 C4 1_555 1_555
C5 C4 1_555 1_555
C6 N4 1_555 1_555
H9 C6 1_555 1_555
H10 C6 1_555 1_555
C7 O3 1_555 1_555
C8 N6 1_555 1_555
H11 C8 1_555 1_555
H12 C8 1_555 1_555
C9 C8 1_555 1_555
C10 N6 1_555 1_555
H13 C10 1_555 1_555
H14 C10 1_555 1_555
C11 C10 1_555 1_555
C12 N5 1_555 1_555
H15 C12 1_555 1_555
H16 C12 1_555 1_555
C13 C12 1_555 1_555
C14 N5 1_555 1_555
H17 C14 1_555 1_555
H18 C14 1_555 1_555
C15 C14 1_555 1_555
C16 N7 1_555 1_555
H19 C16 1_555 1_555
C17 C16 1_555 1_555
H20 C17 1_555 1_555
C18 C17 1_555 1_555
C19 C18 1_555 1_555
H21 C19 1_555 1_555
C20 N7 1_555 1_555
H22 C20 1_555 1_555
C21 H23 1_555 1_555
C22 C21 1_555 1_555
H24 C22 1_555 1_555
C23 C18 1_555 1_555
C24 C23 1_555 1_555
H25 C24 1_555 1_555
C25 N8 1_555 1_555
H26 C25 1_555 1_555
C26 N9 1_555 1_555
H27 C26 1_555 1_555
C27 C26 1_555 1_555
H28 C27 1_555 1_555
C28 C27 1_555 1_555
C29 C28 1_555 1_555
H29 C29 1_555 1_555
C30 N9 1_555 1_555
H30 C30 1_555 1_555
O16 H31 1_555 1_555
O17 H32 1_555 1_555
O18 H33 1_555 1_555
H34 O18 1_555 1_555
O19 H36 1_555 1_555
O20 H35 1_555 1_555
H37 O19 1_555 1_555
H38 O16 1_555 1_555
H39 O17 1_555 1_555
H40 O20 1_555 1_555
Zn1C O3C 1_555 1_555
Zn1C_2 O6 1_555 1_555
Zn1C_3 N7C 1_555 1_555
Zn2C O2C 1_555 1_555
Zn2C_2 O7 1_555 1_555
Zn2C_3 N8 1_555 1_555
Zn3C O1C 1_555 1_555
Zn3B O5 1_555 1_555
Zn3C_2 O12 1_555 1_555
Zn3B_2 N9B 1_555 1_555
Zn3A O5C 1_555 1_555
O1C C5C 1_555 1_555
O2C C5C 1_555 1_555
O3C Zn2C 1_555 1_555
O4C C7C 1_555 1_555
O5C C9C 1_555 1_555
O5B Zn3 1_555 1_555
O5A Zn3C 1_555 1_555
O6C Zn1 1_555 1_555
O6_2 Zn1C 1_555 1_555
O7C Zn1 1_555 1_555
O7_2 Zn1C 1_555 1_555
O8C C11C 1_555 1_555
O9C C13C 1_555 1_555
O10C C13C 1_555 1_555
O11C C15C 1_555 1_555
O12C Zn3 1_555 1_555
O12_2 Zn3C 1_555 1_555
O13C Zn1C 1_555 1_555
H1C O13C 1_555 1_555
H2C O13C 1_555 1_555
O14C Zn1C 1_555 1_555
H3C O14C 1_555 1_555
H4C O14C 1_555 1_555
O15C Zn3C 1_555 1_555
H5C O15C 1_555 1_555
H6C O15C 1_555 1_555
N1C C1C 1_555 1_555
N2C C1C 1_555 1_555
N3C C2C 1_555 1_555
N4C C1C 1_555 1_555
N5C C3C 1_555 1_555
N6C C2C 1_555 1_555
N7C C16C 1_555 1_555
N7C_2 Zn1C 1_555 1_555
N8C Zn2 1_555 1_555
N8_2 Zn2C 1_555 1_555
N9B C26B 1_555 1_555
N9C Zn3C 1_555 1_555
C2C N1C 1_555 1_555
C3C N2C 1_555 1_555
C4C N4C 1_555 1_555
H7C C4C 1_555 1_555
H8C C4C 1_555 1_555
C5C C4C 1_555 1_555
C6C N4C 1_555 1_555
H9C C6C 1_555 1_555
H10C C6C 1_555 1_555
C7C O3C 1_555 1_555
C8C N6C 1_555 1_555
H11C C8C 1_555 1_555
H12C C8C 1_555 1_555
C9C O6C 1_555 1_555
C10C N6C 1_555 1_555
H13C C10C 1_555 1_555
H14C C10C 1_555 1_555
C11C O7C 1_555 1_555
C12C N5C 1_555 1_555
H15C C12C 1_555 1_555
H16C C12C 1_555 1_555
C13C C12C 1_555 1_555
C14C N5C 1_555 1_555
H17C C14C 1_555 1_555
H18C C14C 1_555 1_555
C15C O12C 1_555 1_555
C16C H19C 1_555 1_555
C17C C16C 1_555 1_555
H20C C17C 1_555 1_555
C18C C17C 1_555 1_555
C19C C18C 1_555 1_555
H21C C19C 1_555 1_555
C20C N7C 1_555 1_555
H22C C20C 1_555 1_555
C21C N8C 1_555 1_555
H23C C21C 1_555 1_555
C22C C21C 1_555 1_555
H24C C22C 1_555 1_555
C23C C18C 1_555 1_555
C24C C23C 1_555 1_555
H25C C24C 1_555 1_555
C25C N8C 1_555 1_555
H26C C25C 1_555 1_555
C26B H27B 1_555 1_555
C27B C26B 1_555 1_555
H28B C27B 1_555 1_555
C28B C28 1_555 1_555
C29B C28B 1_555 1_555
H29B C29B 1_555 1_555
C30B N9B 1_555 1_555
H30B C30B 1_555 1_555
Zn2 O7C 1_555 1_555
O7 Zn1C_2 1_555 1_555
N3 C3 1_555 1_555
C6 C7 1_555 1_555
C19 C20 1_555 1_555
C22 C23 1_555 1_555
C24 C25 1_555 1_555
C29 C30 1_555 1_555
Zn2C O7_2 1_555 1_555
N3C C3C 1_555 1_555
C6C C7C 1_555 1_555
C8C C9C 1_555 1_555
C10C C11C 1_555 1_555
C14C C15C 1_555 1_555
C19C C20C 1_555 1_555
C22C C23C 1_555 1_555
C24C C25C 1_555 1_555
C27B C28B 1_555 1_555
C29B C30B 1_555 1_555

#END
