
#######################################################################
#
#                 Cambridge Crystallographic Data Centre
#                                CCDC 
#
#######################################################################
#
# If this CIF has been generated from an entry in the Cambridge 
# Structural Database, then it will include bibliographic, chemical, 
# crystal, experimental, refinement or atomic coordinate data resulting 
# from the CCDC's data processing and validation procedures.
#
#######################################################################

data_OSUWIJ
_symmetry_cell_setting           orthorhombic
_symmetry_space_group_name_H-M   'P c a 21'
_symmetry_Int_Tables_number      29
_space_group_name_Hall           'P 2c -2ac'
loop_
_symmetry_equiv_pos_site_id
_symmetry_equiv_pos_as_xyz
1 x,y,z
2 -x,-y,1/2+z
3 1/2+x,-y,z
4 1/2-x,y,1/2+z
_cell_length_a                   12.6817(2)
_cell_length_b                   12.6844(3)
_cell_length_c                   6.7320(2)
_cell_angle_alpha                90
_cell_angle_beta                 90
_cell_angle_gamma                90
_cell_volume                     1082.91
loop_
_atom_site_label
_atom_site_type_symbol
_atom_site_fract_x
_atom_site_fract_y
_atom_site_fract_z
Ag1 Ag 0.761662(18) 0.06048(2) 0.61375(10)
C1 C 0.5648(3) 0.1772(3) 0.8111(6)
C2 C 0.3347(3) 0.1248(3) 0.8748(6)
C3 C 0.4792(3) 0.2586(3) 0.8021(5)
C4 C 0.5069(3) 0.3601(3) 0.7553(5)
H1 H 0.5745 0.3735 0.7079
C5 C 0.4355(3) 0.4453(3) 0.7773(6)
C6 C 0.4653(3) 0.5520(3) 0.7387(6)
H2 H 0.5325 0.5673 0.6914
C7 C 0.3957(3) 0.6305(3) 0.7712(6)
H3 H 0.4155 0.6996 0.7437
C8 C 0.2949(3) 0.6110(3) 0.8447(7)
H4 H 0.2490 0.6668 0.8685
C9 C 0.2635(4) 0.5100(3) 0.8817(9)
H5 H 0.1959 0.4972 0.9297
C10 C 0.3330(3) 0.4249(3) 0.8475(6)
C11 C 0.3041(3) 0.3181(3) 0.8842(6)
H6 H 0.2359 0.3034 0.9263
C12 C 0.3732(3) 0.2371(3) 0.8596(6)
O1 O 0.6154(2) 0.1590(2) 0.6548(4)
O2 O 0.5836(2) 0.1366(2) 0.9757(4)
O3 O 0.3889(2) 0.0535(2) 0.7981(4)
O4 O 0.2468(2) 0.1098(3) 0.9610(5)
Ag1C Ag 0.738338(18) 0.06048(2) 1.11375(10)
Ag1B Ag 0.261662(18) -0.06048(2) 0.61375(10)
Ag1A Ag 0.238338(18) -0.06048(2) 1.11375(10)
O2C O 0.9164(2) 0.1366(2) 0.4757(4)
O3B O 0.8889(2) -0.0535(2) 0.7981(4)
O4A O 0.7532(2) -0.1098(3) 0.4610(5)
O5 O 0.4642(3) 0.1036(3) 0.3465(6)
H7 H 0.4951 0.1379 0.4381
H8 H 0.4793 0.0386 0.3582
loop_
_geom_bond_atom_site_label_1
_geom_bond_atom_site_label_2
_geom_bond_site_symmetry_1
_geom_bond_site_symmetry_2
Ag1 O1 1_555 1_555
C1 C3 1_555 1_555
C2 C12 1_555 1_555
C3 C4 1_555 1_555
C4 H1 1_555 1_555
C5 C4 1_555 1_555
C6 C5 1_555 1_555
H2 C6 1_555 1_555
C7 C6 1_555 1_555
H3 C7 1_555 1_555
C8 C7 1_555 1_555
H4 C8 1_555 1_555
C9 C8 1_555 1_555
H5 C9 1_555 1_555
C10 C5 1_555 1_555
C11 C10 1_555 1_555
H6 C11 1_555 1_555
C12 C3 1_555 1_555
O1 C1 1_555 1_555
O2 C1 1_555 1_555
O3 C2 1_555 1_555
O4 C2 1_555 1_555
O5 H7 1_555 1_555
H8 O5 1_555 1_555
Ag1C O2 1_555 1_555
Ag1B O3 1_555 1_555
Ag1A O4 1_555 1_555
O2C Ag1 1_555 1_555
O3B Ag1 1_555 1_555
O4A Ag1 1_555 1_555
C9 C10 1_555 1_555
C11 C12 1_555 1_555

#END
