
#######################################################################
#
#                 Cambridge Crystallographic Data Centre
#                                CCDC 
#
#######################################################################
#
# If this CIF has been generated from an entry in the Cambridge 
# Structural Database, then it will include bibliographic, chemical, 
# crystal, experimental, refinement or atomic coordinate data resulting 
# from the CCDC's data processing and validation procedures.
#
#######################################################################

data_OTAGAS
_symmetry_cell_setting           monoclinic
_symmetry_space_group_name_H-M   'P 21'
_symmetry_Int_Tables_number      4
_space_group_name_Hall           'P 2yb'
loop_
_symmetry_equiv_pos_site_id
_symmetry_equiv_pos_as_xyz
1 x,y,z
2 -x,1/2+y,-z
_cell_length_a                   10.8736(10)
_cell_length_b                   8.4288(5)
_cell_length_c                   11.5942(10)
_cell_angle_alpha                90
_cell_angle_beta                 113.764(10)
_cell_angle_gamma                90
_cell_volume                     972.528
loop_
_atom_site_label
_atom_site_type_symbol
_atom_site_fract_x
_atom_site_fract_y
_atom_site_fract_z
Mn1 Mn -0.14788(4) 1.15111(4) -0.08570(3)
O1 O -0.35931(19) 1.1054(2) -0.15708(18)
O2 O -0.4684(2) 0.8849(3) -0.24885(19)
O3 O -0.06592(17) 0.6658(3) 0.03361(16)
O4 O -0.1205(2) 0.8948(2) -0.06891(18)
O5 O -0.2240(3) 0.5905(3) 0.3666(2)
O6 O -0.3682(3) 0.7552(4) 0.3843(2)
O7 O -0.1967(2) 1.4007(2) -0.0994(2)
N1 N -0.3054(3) 0.6990(3) 0.3269(2)
N2 N -0.1247(2) 1.1635(4) 0.11863(19)
N3 N -0.1622(2) 1.1328(3) 0.7146(2)
C1 C -0.3685(3) 0.8932(3) -0.0273(3)
C2 C -0.2535(3) 0.8029(3) 0.0380(3)
C3 C -0.2357(3) 0.7353(4) 0.1528(3)
H1 H -0.1601 0.6696 0.1965
C4 C -0.3295(3) 0.7652(4) 0.2027(3)
C5 C -0.4419(3) 0.8588(4) 0.1426(3)
H2 H -0.5031 0.8808 0.1802
C6 C -0.4614(3) 0.9189(4) 0.0256(3)
H3 H -0.5400 0.9791 -0.0198
C7 C -0.3996(3) 0.9666(3) -0.1556(3)
C8 C -0.1400(3) 0.7877(3) -0.0040(2)
C9 C -0.0226(3) 1.1079(3) 0.2207(3)
H4 H 0.0564 1.0737 0.2119
C10 C -0.0265(3) 1.0979(4) 0.3377(3)
H5 H 0.0485 1.0574 0.4073
C11 C -0.1406(3) 1.1475(4) 0.3536(2)
C12 C -0.2454(3) 1.2109(4) 0.2488(3)
H6 H -0.3240 1.2507 0.2556
C13 C -0.2328(3) 1.2148(4) 0.1351(3)
H7 H -0.3055 1.2567 0.0641
C14 C -0.2316(3) 1.2395(4) 0.6271(3)
H8 H -0.2856 1.3140 0.6471
C15 C -0.2288(3) 1.2471(4) 0.5091(3)
H9 H -0.2798 1.3251 0.4500
C16 C -0.1507(3) 1.1395(4) 0.4781(2)
C17 C -0.0830(3) 1.0242(4) 0.5664(3)
H10 H -0.0320 0.9449 0.5472
C18 C -0.0908(3) 1.0262(4) 0.6820(3)
H11 H -0.0429 0.9475 0.7420
H12 H -0.253(3) 1.455(4) -0.159(3)
H13 H -0.141(3) 1.466(4) -0.048(3)
Mn1_2 Mn -0.14788(4) 1.15111(4) 0.91430(3)
Mn1A Mn 0.14788(4) 0.65111(4) 0.08570(3)
O3A O 0.06592(17) 1.1658(3) -0.03361(16)
N3_2 N -0.1622(2) 1.1328(3) -0.2854(2)
O8 O 0.6268(3) 0.5813(3) 0.7222(3)
H14 H 0.576(4) 0.543(6) 0.651(2)
H15 H 0.593(5) 0.669(3) 0.730(5)
O9 O 0.4808(3) 0.4669(3) 0.4872(2)
H16 H 0.481(4) 0.456(5) 0.4146(18)
H17 H 0.425(6) 0.396(7) 0.488(8)
loop_
_geom_bond_atom_site_label_1
_geom_bond_atom_site_label_2
_geom_bond_site_symmetry_1
_geom_bond_site_symmetry_2
Mn1 O1 1_555 1_555
O1 C7 1_555 1_555
O2 C7 1_555 1_555
O3 C8 1_555 1_555
O4 Mn1 1_555 1_555
O5 N1 1_555 1_555
O6 N1 1_555 1_555
O7 Mn1 1_555 1_555
N1 C4 1_555 1_555
N2 Mn1 1_555 1_555
N3 C14 1_555 1_555
C1 C2 1_555 1_555
C2 C3 1_555 1_555
C3 H1 1_555 1_555
C4 C3 1_555 1_555
C5 C4 1_555 1_555
H2 C5 1_555 1_555
C6 C1 1_555 1_555
H3 C6 1_555 1_555
C7 C1 1_555 1_555
C8 O4 1_555 1_555
C9 N2 1_555 1_555
H4 C9 1_555 1_555
C10 C9 1_555 1_555
H5 C10 1_555 1_555
C11 C10 1_555 1_555
C12 C11 1_555 1_555
H6 C12 1_555 1_555
C13 N2 1_555 1_555
H7 C13 1_555 1_555
C14 H8 1_555 1_555
C15 C14 1_555 1_555
H9 C15 1_555 1_555
C16 C11 1_555 1_555
C17 C16 1_555 1_555
H10 C17 1_555 1_555
C18 N3 1_555 1_555
H11 C18 1_555 1_555
H12 O7 1_555 1_555
H13 O7 1_555 1_555
O8 H14 1_555 1_555
H15 O8 1_555 1_555
O9 H16 1_555 1_555
H17 O9 1_555 1_555
Mn1_2 N3 1_555 1_555
Mn1A O3 1_555 1_555
O3A Mn1 1_555 1_555
N3_2 Mn1 1_555 1_555
C2 C8 1_555 1_555
C5 C6 1_555 1_555
C12 C13 1_555 1_555
C15 C16 1_555 1_555
C17 C18 1_555 1_555

#END
