
#######################################################################
#
#                 Cambridge Crystallographic Data Centre
#                                CCDC 
#
#######################################################################
#
# If this CIF has been generated from an entry in the Cambridge 
# Structural Database, then it will include bibliographic, chemical, 
# crystal, experimental, refinement or atomic coordinate data resulting 
# from the CCDC's data processing and validation procedures.
#
#######################################################################

data_OTAGEW
_symmetry_cell_setting           monoclinic
_symmetry_space_group_name_H-M   'P 21'
_symmetry_Int_Tables_number      4
_space_group_name_Hall           'P 2yb'
loop_
_symmetry_equiv_pos_site_id
_symmetry_equiv_pos_as_xyz
1 x,y,z
2 -x,1/2+y,-z
_cell_length_a                   10.8701(9)
_cell_length_b                   8.4038(5)
_cell_length_c                   11.3838(10)
_cell_angle_alpha                90
_cell_angle_beta                 112.816(10)
_cell_angle_gamma                90
_cell_volume                     958.544
loop_
_atom_site_label
_atom_site_type_symbol
_atom_site_fract_x
_atom_site_fract_y
_atom_site_fract_z
Zn1 Zn -0.14611(4) 1.15141(4) -0.08279(4)
O1 O -0.3512(3) 1.1083(3) -0.1560(3)
O2 O -0.4669(3) 0.8916(4) -0.2485(3)
O3 O -0.0604(2) 0.6663(4) 0.0333(2)
O4 O -0.1126(3) 0.8994(3) -0.0673(3)
O5 O -0.2191(4) 0.5831(4) 0.3716(3)
O6 O -0.3700(4) 0.7381(5) 0.3903(3)
O7 O -0.1906(4) 1.3954(4) -0.0953(3)
N1 N -0.3034(4) 0.6891(4) 0.3318(3)
N2 N -0.1288(3) 1.1627(6) 0.1121(3)
N3 N -0.1600(3) 1.1348(5) 0.7238(3)
C1 C -0.3634(4) 0.8932(5) -0.0249(4)
C2 C -0.2485(4) 0.8020(5) 0.0394(4)
C3 C -0.2324(4) 0.7315(5) 0.1550(4)
H1 H -0.1572 0.6659 0.1982
C4 C -0.3268(4) 0.7579(5) 0.2067(4)
C5 C -0.4383(5) 0.8513(5) 0.1470(4)
H2 H -0.5002 0.8711 0.1856
C6 C -0.4568(4) 0.9153(5) 0.0294(4)
H3 H -0.5349 0.9756 -0.0152
C7 C -0.3941(4) 0.9696(5) -0.1545(4)
C8 C -0.1333(4) 0.7899(5) -0.0038(4)
C9 C -0.0267(4) 1.1057(5) 0.2139(4)
H4 H 0.0512 1.0706 0.2030
C10 C -0.0303(4) 1.0959(5) 0.3340(4)
H5 H 0.0439 1.0543 0.4033
C11 C -0.1432(4) 1.1476(7) 0.3525(3)
C12 C -0.2473(4) 1.2120(5) 0.2476(4)
H6 H -0.3247 1.2530 0.2566
C13 C -0.2366(4) 1.2156(5) 0.1312(4)
H7 H -0.3091 1.2576 0.0604
C14 C -0.2318(5) 1.2390(5) 0.6350(4)
H8 H -0.2866 1.3122 0.6561
C15 C -0.2307(5) 1.2460(5) 0.5141(4)
H9 H -0.2827 1.3236 0.4549
C16 C -0.1534(4) 1.1393(7) 0.4795(4)
C17 C -0.0837(4) 1.0245(5) 0.5698(4)
H10 H -0.0331 0.9452 0.5490
C18 C -0.0885(4) 1.0265(5) 0.6888(4)
H11 H -0.0394 0.9484 0.7491
H12 H -0.251(4) 1.447(6) -0.154(4)
H13 H -0.140(6) 1.453(7) -0.034(5)
Zn1_2 Zn -0.14611(4) 1.15141(4) 0.91721(4)
Zn1A Zn 0.14611(4) 0.65141(4) 0.08279(4)
O3A O 0.0604(2) 1.1663(4) -0.0333(2)
N3_2 N -0.1600(3) 1.1348(5) -0.2762(3)
O8 O 0.6292(4) 0.5807(5) 0.7296(4)
H14 H 0.584(6) 0.546(8) 0.655(3)
H15 H 0.597(6) 0.673(3) 0.727(6)
O9 O 0.4818(4) 0.4706(5) 0.4925(4)
H16 H 0.475(5) 0.457(6) 0.417(2)
H17 H 0.436(8) 0.400(8) 0.510(10)
loop_
_geom_bond_atom_site_label_1
_geom_bond_atom_site_label_2
_geom_bond_site_symmetry_1
_geom_bond_site_symmetry_2
Zn1 O1 1_555 1_555
O1 C7 1_555 1_555
O2 C7 1_555 1_555
O3 C8 1_555 1_555
O4 Zn1 1_555 1_555
O5 N1 1_555 1_555
O6 N1 1_555 1_555
O7 Zn1 1_555 1_555
N1 C4 1_555 1_555
N2 Zn1 1_555 1_555
N3 C14 1_555 1_555
C1 C2 1_555 1_555
C2 C3 1_555 1_555
C3 H1 1_555 1_555
C4 C3 1_555 1_555
C5 C4 1_555 1_555
H2 C5 1_555 1_555
C6 C1 1_555 1_555
H3 C6 1_555 1_555
C7 C1 1_555 1_555
C8 O4 1_555 1_555
C9 N2 1_555 1_555
H4 C9 1_555 1_555
C10 C9 1_555 1_555
H5 C10 1_555 1_555
C11 C10 1_555 1_555
C12 C11 1_555 1_555
H6 C12 1_555 1_555
C13 N2 1_555 1_555
H7 C13 1_555 1_555
C14 H8 1_555 1_555
C15 C14 1_555 1_555
H9 C15 1_555 1_555
C16 C11 1_555 1_555
C17 C16 1_555 1_555
H10 C17 1_555 1_555
C18 N3 1_555 1_555
H11 C18 1_555 1_555
H12 O7 1_555 1_555
H13 O7 1_555 1_555
O8 H14 1_555 1_555
H15 O8 1_555 1_555
O9 H16 1_555 1_555
H17 O9 1_555 1_555
Zn1_2 N3 1_555 1_555
Zn1A O3 1_555 1_555
O3A Zn1 1_555 1_555
N3_2 Zn1 1_555 1_555
C2 C8 1_555 1_555
C5 C6 1_555 1_555
C12 C13 1_555 1_555
C15 C16 1_555 1_555
C17 C18 1_555 1_555

#END
