
#######################################################################
#
#                 Cambridge Crystallographic Data Centre
#                                CCDC 
#
#######################################################################
#
# If this CIF has been generated from an entry in the Cambridge 
# Structural Database, then it will include bibliographic, chemical, 
# crystal, experimental, refinement or atomic coordinate data resulting 
# from the CCDC's data processing and validation procedures.
#
#######################################################################

data_OTAJUP
_symmetry_cell_setting           orthorhombic
_symmetry_space_group_name_H-M   'P n n a'
_symmetry_Int_Tables_number      52
_space_group_name_Hall           '-P 2a 2bc'
loop_
_symmetry_equiv_pos_site_id
_symmetry_equiv_pos_as_xyz
1 x,y,z
2 1/2-x,-y,z
3 1/2-x,1/2+y,1/2-z
4 x,1/2-y,1/2-z
5 -x,-y,-z
6 1/2+x,y,-z
7 1/2+x,1/2-y,1/2+z
8 -x,1/2+y,1/2+z
_cell_length_a                   7.7810(2)
_cell_length_b                   25.9579(6)
_cell_length_c                   11.1745(2)
_cell_angle_alpha                90
_cell_angle_beta                 90
_cell_angle_gamma                90
_cell_volume                     2257.01
loop_
_atom_site_label
_atom_site_type_symbol
_atom_site_fract_x
_atom_site_fract_y
_atom_site_fract_z
C1 C -0.1014(4) 0.43222(10) 0.5818(3)
C2 C -0.1044(4) 0.37752(10) 0.6314(2)
C3 C 0.0177(4) 0.36119(11) 0.7120(3)
H1 H 0.1029 0.3839 0.7368
C4 C 0.0158(5) 0.31122(12) 0.7571(3)
H2 H 0.1008 0.3010 0.8106
C5 C -0.1101(4) 0.27664(10) 0.7239(3)
C6 C -0.2301(5) 0.29403(13) 0.6423(3)
C7 C -0.2295(4) 0.34353(13) 0.5960(3)
H3 H -0.3132 0.3536 0.5414
C8 C 0.2034(4) 0.52400(15) 0.8704(3)
C9 C 0.1610(5) 0.5476(2) 0.9797(4)
C10 C 0.0742(7) 0.5948(2) 0.9716(5)
H4 H 0.0471 0.6128 1.0411
C11 C 0.0300(7) 0.6143(2) 0.8656(5)
H5 H -0.0292 0.6453 0.8610
C12 C 0.0734(5) 0.58756(14) 0.7616(4)
H6 H 0.0393 0.6009 0.6881
C13 C 0.2096(7) 0.5226(2) 1.0893(4)
H7 H 0.1840 0.5384 1.1619
N1 N 0.1612(3) 0.54398(10) 0.7635(2)
N2 N -0.3645(7) 0.25944(15) 0.5991(4)
O1 O -0.0078(3) 0.46407(8) 0.63157(19)
O2 O -0.1990(3) 0.43927(8) 0.4942(2)
O3 O -0.5044(8) 0.2751(2) 0.5896(8)
O4 O -0.3221(8) 0.21640(16) 0.5663(4)
Zn1 Zn 0.2500 0.5000 0.61016(4)
C1C C -0.1014(4) 0.06778(10) 0.9182(3)
C2C C -0.1044(4) 0.12248(10) 0.8686(2)
C3C C 0.0177(4) 0.13881(11) 0.7880(3)
H1C H 0.1029 0.1161 0.7632
C4C C 0.0158(5) 0.18878(12) 0.7429(3)
H2C H 0.1008 0.1990 0.6894
C5C C -0.1101(4) 0.22336(10) 0.7761(3)
C6C C -0.2301(5) 0.20597(13) 0.8577(3)
C7C C -0.2295(4) 0.15647(13) 0.9040(3)
H3C H -0.3132 0.1464 0.9586
C8A C 0.2966(4) 0.47600(15) 0.8704(3)
C9A C 0.3390(5) 0.4524(2) 0.9797(4)
C10A C 0.4258(7) 0.4052(2) 0.9716(5)
H4A H 0.4529 0.3872 1.0411
C11A C 0.4700(7) 0.3857(2) 0.8656(5)
H5A H 0.5292 0.3547 0.8610
C12A C 0.4266(5) 0.41244(14) 0.7616(4)
H6A H 0.4607 0.3991 0.6881
C13A C 0.2904(7) 0.4774(2) 1.0893(4)
H7A H 0.3160 0.4616 1.1619
N1A N 0.3388(3) 0.45602(10) 0.7635(2)
N2C N -0.3645(7) 0.24056(15) 0.9009(4)
O1C O -0.0078(3) 0.03593(8) 0.86843(19)
O1A O 0.5078(3) 0.53593(8) 0.63157(19)
O2C O -0.1990(3) 0.06073(8) 1.0058(2)
O2D O 0.1990(3) 0.56073(8) 0.5058(2)
O2E O 0.3010(3) 0.43927(8) 0.5058(2)
O3C O -0.5044(8) 0.2249(2) 0.9104(8)
O4C O -0.3221(8) 0.28360(16) 0.9337(4)
Zn1B Zn 0.2500 0.0000 0.88984(4)
Zn1D Zn -0.2500 0.5000 0.38984(4)
Zn1F Zn -0.2500 0.0000 1.11016(4)
loop_
_geom_bond_atom_site_label_1
_geom_bond_atom_site_label_2
_geom_bond_site_symmetry_1
_geom_bond_site_symmetry_2
C1 C2 1_555 1_555
C2 C3 1_555 1_555
C3 H1 1_555 1_555
C4 C3 1_555 1_555
H2 C4 1_555 1_555
C5 C4 1_555 1_555
C6 C5 1_555 1_555
C7 C2 1_555 1_555
H3 C7 1_555 1_555
C8 C9 1_555 1_555
C9 C10 1_555 1_555
C10 H4 1_555 1_555
C11 C10 1_555 1_555
H5 C11 1_555 1_555
C12 C11 1_555 1_555
H6 C12 1_555 1_555
C13 C9 1_555 1_555
H7 C13 1_555 1_555
N1 C8 1_555 1_555
N2 C6 1_555 1_555
O1 C1 1_555 1_555
O2 C1 1_555 1_555
O3 N2 1_555 1_555
O4 N2 1_555 1_555
Zn1 N1 1_555 1_555
C1C C2C 1_555 1_555
C2C C3C 1_555 1_555
C3C H1C 1_555 1_555
C4C C3C 1_555 1_555
H2C C4C 1_555 1_555
C5C C5 1_555 1_555
C6C C5C 1_555 1_555
C7C C2C 1_555 1_555
H3C C7C 1_555 1_555
C8A C8 1_555 1_555
C9A C8A 1_555 1_555
C10A C9A 1_555 1_555
H4A C10A 1_555 1_555
C11A C10A 1_555 1_555
H5A C11A 1_555 1_555
C12A C11A 1_555 1_555
H6A C12A 1_555 1_555
C13A C13 1_555 1_555
H7A C13A 1_555 1_555
N1A Zn1 1_555 1_555
N2C C6C 1_555 1_555
O1C C1C 1_555 1_555
O1A Zn1 1_555 1_555
O2C C1C 1_555 1_555
O2D Zn1 1_555 1_555
O2E Zn1 1_555 1_555
O3C N2C 1_555 1_555
O4C N2C 1_555 1_555
Zn1B O1C 1_555 1_555
Zn1D O2 1_555 1_555
Zn1F O2C 1_555 1_555
C6 C7 1_555 1_555
C12 N1 1_555 1_555
O1 Zn1 1_555 1_555
C4C C5C 1_555 1_555
C6C C7C 1_555 1_555
C8A N1A 1_555 1_555
C9A C13A 1_555 1_555
C12A N1A 1_555 1_555

#END
