
#######################################################################
#
#                 Cambridge Crystallographic Data Centre
#                                CCDC 
#
#######################################################################
#
# If this CIF has been generated from an entry in the Cambridge 
# Structural Database, then it will include bibliographic, chemical, 
# crystal, experimental, refinement or atomic coordinate data resulting 
# from the CCDC's data processing and validation procedures.
#
#######################################################################

data_OTAJOJ
_symmetry_cell_setting           orthorhombic
_symmetry_space_group_name_H-M   'P n n a'
_symmetry_Int_Tables_number      52
_space_group_name_Hall           '-P 2a 2bc'
loop_
_symmetry_equiv_pos_site_id
_symmetry_equiv_pos_as_xyz
1 x,y,z
2 1/2-x,-y,z
3 1/2-x,1/2+y,1/2-z
4 x,1/2-y,1/2-z
5 -x,-y,-z
6 1/2+x,y,-z
7 1/2+x,1/2-y,1/2+z
8 -x,1/2+y,1/2+z
_cell_length_a                   7.7887(2)
_cell_length_b                   25.7842(7)
_cell_length_c                   11.1256(3)
_cell_angle_alpha                90
_cell_angle_beta                 90
_cell_angle_gamma                90
_cell_volume                     2234.3
loop_
_atom_site_label
_atom_site_type_symbol
_atom_site_fract_x
_atom_site_fract_y
_atom_site_fract_z
C1 C -0.0930(5) 0.43360(12) 0.5819(3)
C2 C -0.1005(5) 0.37878(12) 0.6318(3)
C3 C 0.0198(5) 0.36143(13) 0.7129(3)
H1 H 0.1061 0.3839 0.7381
C4 C 0.0157(5) 0.31118(14) 0.7580(4)
H2 H 0.1000 0.3005 0.8118
C5 C -0.1115(5) 0.27683(12) 0.7244(3)
C6 C -0.2301(5) 0.29524(14) 0.6434(3)
C7 C -0.2285(5) 0.34509(14) 0.5967(3)
H3 H -0.3124 0.3556 0.5424
C8 C 0.2036(5) 0.52422(18) 0.8703(3)
C9 C 0.1612(6) 0.5482(2) 0.9797(4)
C10 C 0.0727(8) 0.5954(2) 0.9709(5)
H4 H 0.0432 0.6133 1.0404
C11 C 0.0306(7) 0.6148(2) 0.8645(6)
H5 H -0.0286 0.6461 0.8596
C12 C 0.0757(6) 0.58816(17) 0.7602(5)
H6 H 0.0426 0.6017 0.6863
C13 C 0.2092(7) 0.5223(2) 1.0899(4)
H7 H 0.1815 0.5377 1.1629
N1 N 0.1636(4) 0.54436(11) 0.7623(3)
N2 N -0.3675(8) 0.26143(17) 0.6005(5)
O1 O 0.0050(3) 0.46463(9) 0.6320(2)
O2 O -0.1913(4) 0.44178(9) 0.4951(2)
O3 O -0.5092(8) 0.2780(2) 0.5928(8)
O4 O -0.3274(8) 0.21818(18) 0.5653(4)
Ni1 Ni 0.2500 0.5000 0.61739(5)
C1C C -0.0930(5) 0.06640(12) 0.9181(3)
C2C C -0.1005(5) 0.12122(12) 0.8682(3)
C3C C 0.0198(5) 0.13857(13) 0.7871(3)
H1C H 0.1061 0.1161 0.7619
C4C C 0.0157(5) 0.18882(14) 0.7420(4)
H2C H 0.1000 0.1995 0.6882
C5C C -0.1115(5) 0.22317(12) 0.7756(3)
C6C C -0.2301(5) 0.20476(14) 0.8566(3)
C7C C -0.2285(5) 0.15491(14) 0.9033(3)
H3C H -0.3124 0.1444 0.9576
C8A C 0.2964(5) 0.47578(18) 0.8703(3)
C9A C 0.3388(6) 0.4518(2) 0.9797(4)
C10A C 0.4273(8) 0.4046(2) 0.9709(5)
H4A H 0.4568 0.3867 1.0404
C11A C 0.4694(7) 0.3852(2) 0.8645(6)
H5A H 0.5286 0.3539 0.8596
C12A C 0.4243(6) 0.41184(17) 0.7602(5)
H6A H 0.4574 0.3983 0.6863
C13A C 0.2908(7) 0.4777(2) 1.0899(4)
H7A H 0.3185 0.4623 1.1629
N1A N 0.3364(4) 0.45564(11) 0.7623(3)
N2C N -0.3675(8) 0.23857(17) 0.8995(5)
O1C O 0.0050(3) 0.03537(9) 0.8680(2)
O1A O 0.4950(3) 0.53537(9) 0.6320(2)
O2C O -0.1913(4) 0.05822(9) 1.0049(2)
O2D O 0.1913(4) 0.55822(9) 0.5049(2)
O2E O 0.3087(4) 0.44178(9) 0.5049(2)
O3C O -0.5092(8) 0.2220(2) 0.9072(8)
O4C O -0.3274(8) 0.28182(18) 0.9347(4)
Ni1B Ni 0.2500 0.0000 0.88261(5)
Ni1D Ni -0.2500 0.5000 0.38261(5)
Ni1F Ni -0.2500 0.0000 1.11739(5)
loop_
_geom_bond_atom_site_label_1
_geom_bond_atom_site_label_2
_geom_bond_site_symmetry_1
_geom_bond_site_symmetry_2
C1 C2 1_555 1_555
C2 C3 1_555 1_555
C3 H1 1_555 1_555
C4 C3 1_555 1_555
H2 C4 1_555 1_555
C5 C4 1_555 1_555
C6 C5 1_555 1_555
C7 C2 1_555 1_555
H3 C7 1_555 1_555
C8 C9 1_555 1_555
C9 C10 1_555 1_555
C10 H4 1_555 1_555
C11 C10 1_555 1_555
H5 C11 1_555 1_555
C12 C11 1_555 1_555
H6 C12 1_555 1_555
C13 C9 1_555 1_555
H7 C13 1_555 1_555
N1 C8 1_555 1_555
N2 C6 1_555 1_555
O1 C1 1_555 1_555
O2 C1 1_555 1_555
O3 N2 1_555 1_555
O4 N2 1_555 1_555
Ni1 N1 1_555 1_555
C1C C2C 1_555 1_555
C2C C3C 1_555 1_555
C3C H1C 1_555 1_555
C4C C3C 1_555 1_555
H2C C4C 1_555 1_555
C5C C5 1_555 1_555
C6C C5C 1_555 1_555
C7C C2C 1_555 1_555
H3C C7C 1_555 1_555
C8A C8 1_555 1_555
C9A C8A 1_555 1_555
C10A C9A 1_555 1_555
H4A C10A 1_555 1_555
C11A C10A 1_555 1_555
H5A C11A 1_555 1_555
C12A C11A 1_555 1_555
H6A C12A 1_555 1_555
C13A C13 1_555 1_555
H7A C13A 1_555 1_555
N1A Ni1 1_555 1_555
N2C C6C 1_555 1_555
O1C C1C 1_555 1_555
O1A Ni1 1_555 1_555
O2C C1C 1_555 1_555
O2D Ni1 1_555 1_555
O2E Ni1 1_555 1_555
O3C N2C 1_555 1_555
O4C N2C 1_555 1_555
Ni1B O1C 1_555 1_555
Ni1D O2 1_555 1_555
Ni1F O2C 1_555 1_555
C6 C7 1_555 1_555
C12 N1 1_555 1_555
O1 Ni1 1_555 1_555
C4C C5C 1_555 1_555
C6C C7C 1_555 1_555
C8A N1A 1_555 1_555
C9A C13A 1_555 1_555
C12A N1A 1_555 1_555

#END
