
#######################################################################
#
#                 Cambridge Crystallographic Data Centre
#                                CCDC 
#
#######################################################################
#
# If this CIF has been generated from an entry in the Cambridge 
# Structural Database, then it will include bibliographic, chemical, 
# crystal, experimental, refinement or atomic coordinate data resulting 
# from the CCDC's data processing and validation procedures.
#
#######################################################################

data_OTAQUW
_symmetry_cell_setting           monoclinic
_symmetry_space_group_name_H-M   'P 21/n'
_symmetry_Int_Tables_number      14
_space_group_name_Hall           '-P 2yn'
loop_
_symmetry_equiv_pos_site_id
_symmetry_equiv_pos_as_xyz
1 x,y,z
2 1/2-x,1/2+y,1/2-z
3 -x,-y,-z
4 1/2+x,1/2-y,1/2+z
_cell_length_a                   13.001(3)
_cell_length_b                   26.347(6)
_cell_length_c                   13.131(3)
_cell_angle_alpha                90
_cell_angle_beta                 117.311(4)
_cell_angle_gamma                90
_cell_volume                     3996.48
loop_
_atom_site_label
_atom_site_type_symbol
_atom_site_fract_x
_atom_site_fract_y
_atom_site_fract_z
C1 C 0.6237(3) 1.11077(12) 0.2385(3)
C2 C 0.7364(3) 1.14016(11) 0.2806(2)
C3 C 0.8310(3) 1.11913(11) 0.2727(3)
H1 H 0.8238 1.0880 0.2366
C4 C 0.9331(3) 1.14402(11) 0.3176(3)
H2 H 0.9969 1.1297 0.3145
C5 C 0.9427(3) 1.19271(11) 0.3704(3)
C6 C 0.8489(3) 1.21422(12) 0.3758(3)
H3 H 0.8559 1.2458 0.4098
C7 C 0.7435(3) 1.18858(12) 0.3301(2)
H4 H 0.6792 1.2030 0.3322
C8 C 1.0620(3) 1.22242(11) 0.4317(3)
C9 C 1.1064(3) 1.21397(11) 0.5616(3)
C10 C 1.1481(3) 1.20399(12) 0.3946(3)
C11 C 1.0443(2) 1.27918(11) 0.4008(2)
C12 C 0.9768(3) 1.29215(11) 0.2876(3)
H5 H 0.9447 1.2666 0.2331
C13 C 0.9558(3) 1.34252(11) 0.2533(3)
H6 H 0.9086 1.3507 0.1768
C14 C 1.0059(3) 1.38062(11) 0.3342(3)
C15 C 1.0758(3) 1.36750(11) 0.4477(3)
H7 H 1.1106 1.3927 0.5024
C16 C 1.0938(3) 1.31745(11) 0.4796(3)
H8 H 1.1404 1.3092 0.5561
C17 C 0.9853(3) 1.43522(12) 0.2998(3)
C18 C 0.4021(2) 1.08364(11) 0.3487(2)
H9 H 0.4181 1.1170 0.3378
C19 C 0.3659(2) 1.06758(11) 0.4281(2)
H10 H 0.3535 1.0871 0.4804
C20 C 0.3784(2) 1.00179(11) 0.3249(2)
H11 H 0.3737 0.9690 0.2970
C21 C 0.3147(2) 0.98001(11) 0.4756(3)
H12 H 0.3449 0.9917 0.5541
H13 H 0.3467 0.9466 0.4770
C22 C 0.1823(3) 0.97605(11) 0.4222(3)
C23 C 0.1384(3) 0.95122(11) 0.4825(3)
H14 H 0.1883 0.9373 0.5532
C24 C 0.0153(3) 0.94569(11) 0.4398(2)
H15 H -0.0144 0.9304 0.4844
C25 C -0.0588(3) 0.96371(11) 0.3299(3)
C26 C -0.0156(3) 0.98853(11) 0.2670(3)
H16 H -0.0659 1.0007 0.1945
C27 C 0.1042(3) 0.99601(11) 0.3101(2)
H17 H 0.1330 1.0136 0.2673
C28 C -0.1868(2) 0.95784(11) 0.2886(2)
H18 H -0.2000 0.9354 0.3400
H19 H -0.2201 0.9906 0.2898
C29 C -0.3176(3) 0.96352(11) 0.0778(2)
H20 H -0.3374 0.9974 0.0786
C30 C -0.2388(3) 0.88806(11) 0.1362(3)
H21 H -0.1967 0.8611 0.1823
C31 C -0.3063(3) 0.88709(11) 0.0220(2)
H22 H -0.3178 0.8592 -0.0254
F1 F 1.18841(15) 1.15623(6) 0.44455(14)
F2 F 1.10842(15) 1.20174(6) 0.28018(14)
F3 F 1.24495(14) 1.23218(6) 0.44543(13)
F4 F 1.21445(14) 1.22740(6) 0.62391(13)
F5 F 1.04078(15) 1.23656(7) 0.60176(15)
F6 F 1.10276(15) 1.16376(6) 0.58290(14)
N1 N 0.4103(2) 1.04191(9) 0.2880(2)
N2 N 0.3529(2) 1.01559(9) 0.4109(2)
N3 N -0.2445(2) 0.93704(9) 0.1716(2)
N4 N -0.3566(2) 0.93512(9) -0.0139(2)
O1 O 0.53701(19) 1.13375(8) 0.23141(18)
O2 O 0.62519(16) 1.06446(7) 0.21484(16)
O3 O 1.04313(17) 1.46734(7) 0.37425(17)
O4 O 0.91704(18) 1.44568(7) 0.19943(17)
Zn1 Zn 0.46745(3) 1.039232(13) 0.17020(3)
N4B N 0.3566(2) 1.06488(9) 0.0139(2)
O3A O 0.45687(17) 0.96734(7) 0.12575(17)
Zn1B Zn -0.46745(3) 0.960768(13) -0.17020(3)
Zn1A Zn 1.03255(3) 1.539232(13) 0.32980(3)
loop_
_geom_bond_atom_site_label_1
_geom_bond_atom_site_label_2
_geom_bond_site_symmetry_1
_geom_bond_site_symmetry_2
C1 C2 1_555 1_555
C2 C3 1_555 1_555
C3 H1 1_555 1_555
C4 C3 1_555 1_555
H2 C4 1_555 1_555
C5 C4 1_555 1_555
C6 C5 1_555 1_555
H3 C6 1_555 1_555
C7 C2 1_555 1_555
H4 C7 1_555 1_555
C8 C5 1_555 1_555
C9 C8 1_555 1_555
C10 C8 1_555 1_555
C11 C8 1_555 1_555
C12 C11 1_555 1_555
H5 C12 1_555 1_555
C13 C12 1_555 1_555
H6 C13 1_555 1_555
C14 C13 1_555 1_555
C15 C14 1_555 1_555
H7 C15 1_555 1_555
C16 C11 1_555 1_555
H8 C16 1_555 1_555
C17 C14 1_555 1_555
C18 H9 1_555 1_555
C19 C18 1_555 1_555
H10 C19 1_555 1_555
C20 H11 1_555 1_555
C21 H12 1_555 1_555
H13 C21 1_555 1_555
C22 C21 1_555 1_555
C23 C22 1_555 1_555
H14 C23 1_555 1_555
C24 C23 1_555 1_555
H15 C24 1_555 1_555
C25 C24 1_555 1_555
C26 C25 1_555 1_555
H16 C26 1_555 1_555
C27 C22 1_555 1_555
H17 C27 1_555 1_555
C28 C25 1_555 1_555
H18 C28 1_555 1_555
H19 C28 1_555 1_555
C29 H20 1_555 1_555
C30 H21 1_555 1_555
C31 C30 1_555 1_555
H22 C31 1_555 1_555
F1 C10 1_555 1_555
F2 C10 1_555 1_555
F3 C10 1_555 1_555
F4 C9 1_555 1_555
F5 C9 1_555 1_555
F6 C9 1_555 1_555
N1 C18 1_555 1_555
N2 C19 1_555 1_555
N3 C28 1_555 1_555
N4 C29 1_555 1_555
O1 C1 1_555 1_555
O2 C1 1_555 1_555
O3 C17 1_555 1_555
O4 C17 1_555 1_555
Zn1 N1 1_555 1_555
N4B Zn1 1_555 1_555
O3A Zn1 1_555 1_555
Zn1B N4 1_555 1_555
Zn1A O3 1_555 1_555
C6 C7 1_555 1_555
C15 C16 1_555 1_555
C20 N1 1_555 1_555
C20 N2 1_555 1_555
C21 N2 1_555 1_555
C26 C27 1_555 1_555
C29 N3 1_555 1_555
C30 N3 1_555 1_555
C31 N4 1_555 1_555
O2 Zn1 1_555 1_555

#END
