
#######################################################################
#
#                 Cambridge Crystallographic Data Centre
#                                CCDC 
#
#######################################################################
#
# If this CIF has been generated from an entry in the Cambridge 
# Structural Database, then it will include bibliographic, chemical, 
# crystal, experimental, refinement or atomic coordinate data resulting 
# from the CCDC's data processing and validation procedures.
#
#######################################################################

data_OTARAD
_symmetry_cell_setting           monoclinic
_symmetry_space_group_name_H-M   'P 21/n'
_symmetry_Int_Tables_number      14
_space_group_name_Hall           '-P 2yn'
loop_
_symmetry_equiv_pos_site_id
_symmetry_equiv_pos_as_xyz
1 x,y,z
2 1/2-x,1/2+y,1/2-z
3 -x,-y,-z
4 1/2+x,1/2-y,1/2+z
_cell_length_a                   7.4302(9)
_cell_length_b                   25.077(3)
_cell_length_c                   13.2325(16)
_cell_angle_alpha                90
_cell_angle_beta                 102.193(2)
_cell_angle_gamma                90
_cell_volume                     2409.95
loop_
_atom_site_label
_atom_site_type_symbol
_atom_site_fract_x
_atom_site_fract_y
_atom_site_fract_z
O1 O 0.4673(5) 0.94076(15) 0.9670(3)
C1 C 0.5045(8) 0.9290(2) 0.8819(4)
C2 C 0.3981(7) 0.8871(2) 0.8163(4)
C3 C 0.2369(9) 0.8679(2) 0.8364(5)
H1 H 0.1919 0.8819 0.8913
C4 C 0.1401(9) 0.8281(3) 0.7766(6)
H2 H 0.0302 0.8159 0.7914
C5 C 0.2024(8) 0.8064(2) 0.6964(5)
C6 C 0.3682(9) 0.8249(2) 0.6766(5)
H3 H 0.4156 0.8099 0.6235
C7 C 0.4616(9) 0.8652(2) 0.7351(5)
H4 H 0.5703 0.8780 0.7197
C8 C 0.0991(9) 0.7631(2) 0.6244(5)
C9 C -0.0477(11) 0.7355(4) 0.6677(10)
C10 C 0.0072(12) 0.7909(4) 0.5249(8)
C11 C 0.2331(8) 0.7187(2) 0.6057(5)
C12 C 0.2226(9) 0.6943(2) 0.5107(5)
H5 H 0.1372 0.7060 0.4531
C13 C 0.3381(8) 0.6528(2) 0.5015(5)
H6 H 0.3287 0.6365 0.4375
C14 C 0.4687(7) 0.6344(2) 0.5853(5)
C15 C 0.4792(8) 0.6592(2) 0.6778(5)
H7 H 0.5659 0.6476 0.7348
C16 C 0.3657(8) 0.7008(2) 0.6892(5)
H8 H 0.3774 0.7172 0.7534
C17 C 0.5851(9) 0.5872(2) 0.5747(5)
C18 C 0.9239(9) 0.9884(3) 1.2433(5)
H9 H 1.0279 1.0084 1.2400
C19 C 0.8834(10) 0.9686(3) 1.3291(5)
H10 H 0.9540 0.9718 1.3958
C20 C 0.6722(8) 0.9473(2) 1.2001(4)
H11 H 0.5658 0.9322 1.1608
C21 C 0.6122(11) 0.9191(3) 1.3699(5)
H12 H 0.6854 0.8922 1.4127
H13 H 0.5044 0.9018 1.3289
C22 C 0.5526(9) 0.9607(3) 1.4379(5)
C23 C 0.6160(11) 0.9611(3) 1.5426(6)
H14 H 0.6963 0.9344 1.5731
C24 C 0.4362(12) 0.9999(3) 1.3957(6)
H15 H 0.3909 1.0006 1.3246
Cd1 Cd 0.75252(5) 0.997660(14) 0.99399(3)
F1 F 0.0188(8) 0.7174(2) 0.7650(6)
F2 F -0.1900(6) 0.7658(2) 0.6752(5)
F3 F -0.1116(6) 0.6919(2) 0.6149(6)
F4 F -0.0823(8) 0.8345(2) 0.5459(5)
F5 F -0.1190(7) 0.7610(2) 0.4627(4)
F6 F 0.1243(10) 0.8070(2) 0.4692(4)
N1 N 0.7881(6) 0.97464(18) 1.1610(4)
N2 N 0.7204(8) 0.9429(2) 1.3013(4)
O2 O 0.6365(6) 0.95036(15) 0.8518(3)
O3 O 0.7251(6) 0.57708(16) 0.6376(4)
O4 O 0.5243(5) 0.55748(15) 0.4939(3)
O1B O 0.5327(5) 1.05924(15) 1.0330(3)
C1B C 0.4955(8) 1.0710(2) 1.1181(4)
C2B C 0.6019(7) 1.1129(2) 1.1837(4)
C3B C 0.7631(9) 1.1321(2) 1.1636(5)
H1B H 0.8081 1.1181 1.1087
C4B C 0.8599(9) 1.1719(3) 1.2234(6)
H2B H 0.9698 1.1841 1.2086
C5B C 0.7976(8) 1.1936(2) 1.3036(5)
C6B C 0.6318(9) 1.1751(2) 1.3234(5)
H3B H 0.5844 1.1901 1.3765
C7B C 0.5384(9) 1.1348(2) 1.2649(5)
H4B H 0.4297 1.1220 1.2803
C8B C 0.9009(9) 1.2369(2) 1.3756(5)
C9B C 1.0477(11) 1.2645(4) 1.3323(10)
C10B C 0.9928(12) 1.2091(4) 1.4751(8)
C11B C 0.7669(8) 1.2813(2) 1.3943(5)
C12B C 0.7774(9) 1.3057(2) 1.4893(5)
H5B H 0.8628 1.2940 1.5469
C13B C 0.6619(8) 1.3472(2) 1.4985(5)
H6B H 0.6713 1.3635 1.5625
C14B C 0.5313(7) 1.3656(2) 1.4147(5)
C15B C 0.5208(8) 1.3408(2) 1.3222(5)
H7B H 0.4341 1.3524 1.2652
C16B C 0.6343(8) 1.2992(2) 1.3108(5)
H8B H 0.6226 1.2828 1.2466
C17B C 0.4149(9) 1.4128(2) 1.4253(5)
C18B C 0.0761(9) 1.0116(3) 1.7567(5)
H9B H -0.0279 0.9916 1.7600
C19B C 0.1166(10) 1.0314(3) 1.6709(5)
H10B H 0.0460 1.0282 1.6042
C20B C 0.3278(8) 1.0527(2) 1.7999(4)
H11B H 0.4342 1.0678 1.8392
C21B C 0.3878(11) 1.0809(3) 1.6301(5)
H12B H 0.3146 1.1078 1.5873
H13B H 0.4956 1.0982 1.6711
C22B C 0.4474(9) 1.0393(3) 1.5621(5)
C23B C 0.3840(11) 1.0389(3) 1.4574(6)
H14B H 0.3037 1.0656 1.4269
C24B C 0.5638(12) 1.0001(3) 1.6043(6)
H15B H 0.6091 0.9994 1.6754
Cd1B Cd 0.24748(5) 1.002340(14) 1.00601(3)
Cd1A Cd 0.74748(5) 0.497660(14) 0.50601(3)
Cd1C Cd 0.25252(5) 0.502340(14) 0.49399(3)
Cd1B_2 Cd 0.24748(5) 1.002340(14) 2.00601(3)
Cd1C_2 Cd 0.25252(5) 1.502340(14) 1.49399(3)
Cd1A_2 Cd 0.74748(5) 1.497660(14) 1.50601(3)
F1B F 0.9812(8) 1.2826(2) 1.2350(6)
F2B F 1.1900(6) 1.2342(2) 1.3248(5)
F3B F 1.1116(6) 1.3081(2) 1.3851(6)
F4B F 1.0823(8) 1.1655(2) 1.4541(5)
F5B F 1.1190(7) 1.2390(2) 1.5373(4)
F6B F 0.8757(10) 1.1930(2) 1.5308(4)
N1B N 0.2119(6) 1.02536(18) 1.8390(4)
N1B_2 N 0.2119(6) 1.02536(18) 0.8390(4)
N2B N 0.2796(8) 1.0571(2) 1.6987(4)
O2B O 0.3635(6) 1.04964(15) 1.1482(3)
O3B O 0.2749(6) 1.42292(16) 1.3624(4)
O4B O 0.4757(5) 1.44252(15) 1.5061(3)
O4A O 0.9757(5) 1.05748(15) 1.0061(3)
O4C O 1.0243(5) 0.94252(15) 0.9939(3)
O4C_2 O 0.0243(5) 0.94252(15) 0.9939(3)
O4A_2 O -0.0243(5) 1.05748(15) 1.0061(3)
loop_
_geom_bond_atom_site_label_1
_geom_bond_atom_site_label_2
_geom_bond_site_symmetry_1
_geom_bond_site_symmetry_2
O1 C1 1_555 1_555
C1 C2 1_555 1_555
C2 C3 1_555 1_555
C3 H1 1_555 1_555
C4 C3 1_555 1_555
H2 C4 1_555 1_555
C5 C4 1_555 1_555
C6 C5 1_555 1_555
H3 C6 1_555 1_555
C7 C2 1_555 1_555
H4 C7 1_555 1_555
C8 C5 1_555 1_555
C9 C8 1_555 1_555
C10 C8 1_555 1_555
C11 C8 1_555 1_555
C12 C11 1_555 1_555
H5 C12 1_555 1_555
C13 C12 1_555 1_555
H6 C13 1_555 1_555
C14 C13 1_555 1_555
C15 C14 1_555 1_555
H7 C15 1_555 1_555
C16 C11 1_555 1_555
H8 C16 1_555 1_555
C17 C14 1_555 1_555
C18 H9 1_555 1_555
C19 C18 1_555 1_555
H10 C19 1_555 1_555
C20 H11 1_555 1_555
C21 H12 1_555 1_555
H13 C21 1_555 1_555
C22 C21 1_555 1_555
C23 C22 1_555 1_555
H14 C23 1_555 1_555
C24 C22 1_555 1_555
H15 C24 1_555 1_555
Cd1 O1 1_555 1_555
F1 C9 1_555 1_555
F2 C9 1_555 1_555
F3 C9 1_555 1_555
F4 C10 1_555 1_555
F5 C10 1_555 1_555
F6 C10 1_555 1_555
N1 C18 1_555 1_555
N2 C19 1_555 1_555
O2 C1 1_555 1_555
O3 C17 1_555 1_555
O4 C17 1_555 1_555
O1B Cd1 1_555 1_555
C1B O1B 1_555 1_555
C2B C1B 1_555 1_555
C3B C2B 1_555 1_555
H1B C3B 1_555 1_555
C4B C3B 1_555 1_555
H2B C4B 1_555 1_555
C5B C4B 1_555 1_555
C6B C5B 1_555 1_555
H3B C6B 1_555 1_555
C7B C2B 1_555 1_555
H4B C7B 1_555 1_555
C8B C5B 1_555 1_555
C9B C8B 1_555 1_555
C10B C8B 1_555 1_555
C11B C8B 1_555 1_555
C12B C11B 1_555 1_555
H5B C12B 1_555 1_555
C13B C12B 1_555 1_555
H6B C13B 1_555 1_555
C14B C13B 1_555 1_555
C15B C14B 1_555 1_555
H7B C15B 1_555 1_555
C16B C11B 1_555 1_555
H8B C16B 1_555 1_555
C17B C14B 1_555 1_555
C18B H9B 1_555 1_555
C19B C18B 1_555 1_555
H10B C19B 1_555 1_555
C20B H11B 1_555 1_555
C21B H12B 1_555 1_555
H13B C21B 1_555 1_555
C22B C21B 1_555 1_555
C23B C24 1_555 1_555
H14B C23B 1_555 1_555
C24B C23 1_555 1_555
H15B C24B 1_555 1_555
Cd1B O1 1_555 1_555
Cd1A O4 1_555 1_555
Cd1C O4 1_555 1_555
Cd1B_2 N1B 1_555 1_555
Cd1C_2 O4B 1_555 1_555
Cd1A_2 O4B 1_555 1_555
F1B C9B 1_555 1_555
F2B C9B 1_555 1_555
F3B C9B 1_555 1_555
F4B C10B 1_555 1_555
F5B C10B 1_555 1_555
F6B C10B 1_555 1_555
N1B C18B 1_555 1_555
N1B_2 Cd1B 1_555 1_555
N2B C19B 1_555 1_555
O2B C1B 1_555 1_555
O3B C17B 1_555 1_555
O4B C17B 1_555 1_555
O4A Cd1 1_555 1_555
O4C Cd1 1_555 1_555
O4C_2 Cd1B 1_555 1_555
O4A_2 Cd1B 1_555 1_555
C6 C7 1_555 1_555
C15 C16 1_555 1_555
C20 N1 1_555 1_555
C20 N2 1_555 1_555
C21 N2 1_555 1_555
Cd1 N1 1_555 1_555
Cd1 O2 1_555 1_555
O1B Cd1B 1_555 1_555
C6B C7B 1_555 1_555
C15B C16B 1_555 1_555
C20B N1B 1_555 1_555
C20B N2B 1_555 1_555
C21B N2B 1_555 1_555
C22B C23B 1_555 1_555
C22B C24B 1_555 1_555
Cd1B O2B 1_555 1_555

#END
