
#######################################################################
#
#                 Cambridge Crystallographic Data Centre
#                                CCDC 
#
#######################################################################
#
# If this CIF has been generated from an entry in the Cambridge 
# Structural Database, then it will include bibliographic, chemical, 
# crystal, experimental, refinement or atomic coordinate data resulting 
# from the CCDC's data processing and validation procedures.
#
#######################################################################

data_OTARUX02
_symmetry_cell_setting           tetragonal
_symmetry_space_group_name_H-M   'I 41/a'
_symmetry_Int_Tables_number      88
_space_group_name_Hall           '-I 4ad'
loop_
_symmetry_equiv_pos_site_id
_symmetry_equiv_pos_as_xyz
1 x,y,z
2 1/2+x,1/2+y,1/2+z
3 3/4-y,1/4+x,1/4+z
4 1/4-y,3/4+x,3/4+z
5 1/2-x,-y,1/2+z
6 -x,1/2-y,z
7 3/4+y,3/4-x,3/4+z
8 1/4+y,1/4-x,1/4+z
9 -x,-y,-z
10 1/2-x,1/2-y,1/2-z
11 1/4+y,3/4-x,3/4-z
12 3/4+y,1/4-x,1/4-z
13 1/2+x,y,1/2-z
14 x,1/2+y,-z
15 1/4-y,1/4+x,1/4-z
16 3/4-y,3/4+x,3/4-z
_cell_length_a                   22.4002(19)
_cell_length_b                   22.4002(19)
_cell_length_c                   3.7333(3)
_cell_angle_alpha                90
_cell_angle_beta                 90
_cell_angle_gamma                90
_cell_volume                     1873.25
loop_
_atom_site_label
_atom_site_type_symbol
_atom_site_fract_x
_atom_site_fract_y
_atom_site_fract_z
Ag1 Ag 0.5000 0.2500 -0.6250
N1 N 0.42210(18) 0.30111(19) -0.3622(17)
C1 C 0.3743(2) 0.3102(3) -0.2548(17)
N2 N 0.31985(19) 0.32651(19) -0.1535(17)
C2 C 0.2878(2) 0.2889(2) 0.0428(15)
C3 C 0.3073(2) 0.2297(2) 0.1500(19)
C4 C 0.2280(2) 0.3070(2) 0.1556(19)
Cl1 Cl 0.20354(6) 0.37736(6) 0.0372(4)
H1 H 0.3457 0.2174 0.0826
Ag1C Ag 0.0000 0.2500 1.1250
Ag1B Ag 0.5000 0.7500 -2.3750
N1I N 0.07790(18) 0.19889(19) 0.8622(17)
N1J N 0.55111(19) 0.32790(18) -0.8878(17)
N1B N 0.44889(19) 0.67210(18) -2.1122(17)
N1E N 0.57790(18) 0.19889(19) -0.3622(17)
N1O N 0.44889(19) 0.17210(18) -0.8878(17)
C1I C 0.1257(2) 0.1898(3) 0.7548(17)
C1J C 0.5602(3) 0.3757(2) -0.9952(17)
C1B C 0.4398(3) 0.6243(2) -2.0048(17)
N2I N 0.18015(19) 0.17349(19) 0.6535(17)
N2J N 0.57651(19) 0.43015(19) -1.0965(17)
N2B N 0.42349(19) 0.56985(19) -1.9035(17)
C2I C 0.2122(2) 0.2111(2) 0.4572(15)
C2J C 0.5389(2) 0.4622(2) -1.2928(15)
C2B C 0.4611(2) 0.5378(2) -1.7072(15)
C3I C 0.1927(2) 0.2703(2) 0.3500(19)
C3J C 0.4797(2) 0.4427(2) -1.4000(19)
C3B C 0.5203(2) 0.5573(2) -1.6000(19)
C4I C 0.2720(2) 0.1930(2) 0.3444(19)
C4J C 0.5570(2) 0.5220(2) -1.4056(19)
C4B C 0.4430(2) 0.4780(2) -1.5944(19)
Cl1I Cl 0.29646(6) 0.12264(6) 0.4628(4)
Cl1J Cl 0.62736(6) 0.54646(6) -1.2872(4)
Cl1B Cl 0.37264(6) 0.45354(6) -1.7128(4)
H1I H 0.1543 0.2826 0.4174
H1J H 0.4674 0.4043 -1.3326
H1B H 0.5326 0.5957 -1.6674
loop_
_geom_bond_atom_site_label_1
_geom_bond_atom_site_label_2
_geom_bond_site_symmetry_1
_geom_bond_site_symmetry_2
Ag1 N1 1_555 1_555
N1 C1 1_555 1_555
C1 N2 1_555 1_555
N2 C2 1_555 1_555
C2 C3 1_555 1_555
C3 H1 1_555 1_555
C4 C2 1_555 1_555
Cl1 C4 1_555 1_555
Ag1C N1I 1_555 1_555
Ag1B N1B 1_555 1_555
N1I C1I 1_555 1_555
N1J Ag1 1_555 1_555
N1B C1B 1_555 1_555
N1E Ag1 1_555 1_555
N1O Ag1 1_555 1_555
C1I N2I 1_555 1_555
C1J N1J 1_555 1_555
C1B N2B 1_555 1_555
N2I C2I 1_555 1_555
N2J C1J 1_555 1_555
N2B C2B 1_555 1_555
C2I C3I 1_555 1_555
C2J N2J 1_555 1_555
C2B C3B 1_555 1_555
C3I C4 1_555 1_555
C3J C2J 1_555 1_555
C3B C4J 1_555 1_555
C4I C3 1_555 1_555
C4J C2J 1_555 1_555
C4B C2B 1_555 1_555
Cl1I C4I 1_555 1_555
Cl1J C4J 1_555 1_555
Cl1B C4B 1_555 1_555
H1I C3I 1_555 1_555
H1J C3J 1_555 1_555
H1B C3B 1_555 1_555
C2I C4I 1_555 1_555
C3J C4B 1_555 1_555

#END
