
#######################################################################
#
#                 Cambridge Crystallographic Data Centre
#                                CCDC 
#
#######################################################################
#
# If this CIF has been generated from an entry in the Cambridge 
# Structural Database, then it will include bibliographic, chemical, 
# crystal, experimental, refinement or atomic coordinate data resulting 
# from the CCDC's data processing and validation procedures.
#
#######################################################################

data_OTARIL
_symmetry_cell_setting           monoclinic
_symmetry_space_group_name_H-M   'C 2/c'
_symmetry_Int_Tables_number      15
_space_group_name_Hall           '-C 2yn'
loop_
_symmetry_equiv_pos_site_id
_symmetry_equiv_pos_as_xyz
1 x,y,z
2 -x,y,1/2-z
3 1/2+x,1/2+y,z
4 1/2-x,1/2+y,1/2-z
5 -x,-y,-z
6 x,-y,1/2+z
7 1/2-x,1/2-y,-z
8 1/2+x,1/2-y,1/2+z
_cell_length_a                   23.685(3)
_cell_length_b                   14.647(2)
_cell_length_c                   29.080(4)
_cell_angle_alpha                90
_cell_angle_beta                 101.867(2)
_cell_angle_gamma                90
_cell_volume                     9872.65
loop_
_atom_site_label
_atom_site_type_symbol
_atom_site_fract_x
_atom_site_fract_y
_atom_site_fract_z
C1 C 0.28982(12) 0.1624(2) 0.32769(10)
H1 H 0.2751 0.1242 0.3025
C2 C 0.34338(12) 0.2130(2) 0.39381(10)
C3 C 0.30486(13) 0.2803(2) 0.37414(9)
C4 C 0.30386(13) 0.3654(2) 0.39571(9)
H2 H 0.2783 0.4113 0.3829
C5 C 0.34400(13) 0.3768(2) 0.43804(10)
H3 H 0.3450 0.4323 0.4538
C6 C 0.38240(13) 0.3085(2) 0.45744(10)
H4 H 0.4078 0.3202 0.4857
C7 C 0.38458(13) 0.2227(2) 0.43639(10)
H5 H 0.4104 0.1769 0.4491
C8 C 0.36573(12) 0.0526(2) 0.36529(10)
H6 H 0.3393 0.0016 0.3579
H7 H 0.3886 0.0434 0.3967
C9 C 0.40546(12) 0.0559(2) 0.33004(10)
C10 C 0.41123(12) -0.0206(2) 0.30383(9)
H8 H 0.3903 -0.0731 0.3071
C11 C 0.44829(12) -0.0194(2) 0.27246(10)
H9 H 0.4519 -0.0712 0.2549
C12 C 0.47969(12) 0.05751(19) 0.26708(10)
C13 C 0.47316(13) 0.1371(2) 0.29332(11)
H10 H 0.4933 0.1899 0.2891
C14 C 0.43759(13) 0.1369(2) 0.32467(10)
H11 H 0.4342 0.1887 0.3424
C15 C 0.19644(12) 0.50913(19) 0.30312(10)
H12 H 0.2237 0.5339 0.2878
C16 C 0.12649(13) 0.49879(19) 0.34272(9)
C17 C 0.14170(12) 0.41158(19) 0.33036(9)
C18 C 0.11238(13) 0.3347(2) 0.34139(10)
H13 H 0.1217 0.2766 0.3324
C19 C 0.06936(13) 0.3477(2) 0.36590(10)
H14 H 0.0500 0.2973 0.3745
C20 C 0.05345(14) 0.4384(2) 0.37873(10)
H15 H 0.0232 0.4455 0.3944
C21 C 0.08249(12) 0.5139(2) 0.36804(10)
H16 H 0.0736 0.5722 0.3770
C22 C 0.16748(13) 0.65722(18) 0.33174(10)
H17 H 0.1915 0.6821 0.3115
H18 H 0.1295 0.6845 0.3228
C23 C 0.19243(13) 0.6804(2) 0.38071(10)
C24 C 0.22022(14) 0.6183(2) 0.41362(10)
H19 H 0.2248 0.5581 0.4050
C25 C 0.24109(13) 0.6461(2) 0.45937(10)
H20 H 0.2583 0.6025 0.4810
C26 C 0.23803(13) 0.7353(2) 0.47511(10)
C27 C 0.20877(13) 0.7931(2) 0.44027(10)
H21 H 0.2046 0.8536 0.4487
C28 C 0.18529(13) 0.7696(2) 0.39435(10)
H22 H 0.1654 0.8120 0.3733
C29 C 0.17003(12) 0.17752(19) 0.22521(10)
C30 C 0.11727(12) 0.12653(19) 0.20060(10)
C31 C 0.12482(12) 0.0517(2) 0.17396(10)
H23 H 0.1619 0.0324 0.1726
C32 C 0.07722(12) 0.0048(2) 0.14898(10)
H24 H 0.0827 -0.0446 0.1303
C33 C 0.02102(12) 0.03118(19) 0.15176(10)
C34 C 0.01398(12) 0.10591(19) 0.18078(9)
H25 H -0.0227 0.1240 0.1838
C35 C 0.06249(12) 0.1522(2) 0.20475(10)
H26 H 0.0579 0.2012 0.2239
C36 C -0.03273(12) -0.01399(19) 0.12212(9)
C37 C -0.02245(12) -0.1089(2) 0.10703(10)
C38 C -0.04995(12) 0.0448(2) 0.07681(9)
C39 C -0.08264(12) -0.0202(2) 0.14939(9)
C40 C -0.07046(13) -0.0603(2) 0.19343(11)
H27 H -0.0325 -0.0744 0.2072
C41 C -0.11390(13) -0.0797(2) 0.21747(10)
H28 H -0.1054 -0.1081 0.2467
C42 C -0.17057(12) -0.05596(19) 0.19695(10)
C43 C -0.18280(12) -0.01112(19) 0.15438(10)
H29 H -0.2203 0.0078 0.1419
C44 C -0.13939(12) 0.00570(19) 0.13019(10)
H30 H -0.1480 0.0343 0.1010
C45 C -0.21960(12) -0.0822(2) 0.22048(10)
F1 F 0.00514(7) -0.15968(11) 0.14253(6)
F2 F -0.07091(7) -0.15220(12) 0.08925(6)
F3 F 0.00990(7) -0.11243(12) 0.07380(6)
F4 F -0.09133(7) 0.00765(13) 0.04467(6)
F5 F -0.00552(7) 0.05881(11) 0.05682(5)
F6 F -0.06920(7) 0.12657(11) 0.08671(5)
N1 N 0.18601(10) 0.42012(17) 0.30591(8)
N2 N 0.16280(10) 0.55778(16) 0.32518(8)
N3 N 0.27124(9) 0.24719(15) 0.33225(7)
N4 N 0.33250(10) 0.13865(16) 0.36389(8)
O1 O 0.21807(8) 0.15083(14) 0.22392(7)
O2 O 0.15932(8) 0.25097(14) 0.24588(7)
O3 O -0.20811(9) -0.13713(14) 0.25409(7)
O4 O -0.26823(9) -0.05171(14) 0.20523(7)
Zn1 Zn 0.225946(13) 0.31938(2) 0.277708(11)
C1A C 0.71018(12) 0.1624(2) 0.17231(10)
H1A H 0.7249 0.1242 0.1975
C2A C 0.65662(12) 0.2130(2) 0.10619(10)
C3A C 0.69514(13) 0.2803(2) 0.12586(9)
C4A C 0.69614(13) 0.3654(2) 0.10429(9)
H2A H 0.7217 0.4113 0.1171
C5A C 0.65600(13) 0.3768(2) 0.06196(10)
H3A H 0.6550 0.4323 0.0462
C6A C 0.61760(13) 0.3085(2) 0.04256(10)
H4A H 0.5922 0.3202 0.0143
C7A C 0.61542(13) 0.2227(2) 0.06361(10)
H5A H 0.5896 0.1769 0.0509
C8A C 0.63427(12) 0.0526(2) 0.13471(10)
H6A H 0.6607 0.0016 0.1421
H7A H 0.6114 0.0434 0.1033
C9A C 0.59454(12) 0.0559(2) 0.16996(10)
C10A C 0.58877(12) -0.0206(2) 0.19617(9)
H8A H 0.6097 -0.0731 0.1929
C11A C 0.55171(12) -0.0194(2) 0.22754(10)
H9A H 0.5481 -0.0712 0.2451
C12A C 0.52031(12) 0.05751(19) 0.23292(10)
C13A C 0.52684(13) 0.1371(2) 0.20668(11)
H10A H 0.5067 0.1899 0.2109
C14A C 0.56241(13) 0.1369(2) 0.17533(10)
H11A H 0.5658 0.1887 0.1576
C15F C 0.30356(12) 0.99087(19) 0.69688(10)
H12F H 0.2763 0.9661 0.7122
C16F C 0.37351(13) 1.00121(19) 0.65728(9)
C17F C 0.35830(12) 1.08842(19) 0.66964(9)
C18F C 0.38762(13) 1.1653(2) 0.65861(10)
H13F H 0.3783 1.2234 0.6676
C19F C 0.43064(13) 1.1523(2) 0.63410(10)
H14F H 0.4500 1.2027 0.6255
C20F C 0.44655(14) 1.0616(2) 0.62127(10)
H15F H 0.4768 1.0545 0.6056
C21F C 0.41751(12) 0.9861(2) 0.63196(10)
H16F H 0.4264 0.9278 0.6230
C22F C 0.33252(13) 0.84278(18) 0.66826(10)
H17F H 0.3085 0.8179 0.6885
H18F H 0.3705 0.8155 0.6772
C23F C 0.30757(13) 0.8196(2) 0.61929(10)
C24F C 0.27978(14) 0.8817(2) 0.58638(10)
H19F H 0.2752 0.9419 0.5950
C25F C 0.25891(13) 0.8539(2) 0.54063(10)
H20F H 0.2417 0.8975 0.5190
C26F C 0.26197(13) 0.7647(2) 0.52489(10)
C27F C 0.29123(13) 0.7069(2) 0.55973(10)
H21F H 0.2954 0.6464 0.5513
C28F C 0.31471(13) 0.7304(2) 0.60565(10)
H22F H 0.3346 0.6880 0.6267
C29A C 0.82997(12) 0.17752(19) 0.27479(10)
C30A C 0.88273(12) 0.12653(19) 0.29940(10)
C31A C 0.87518(12) 0.0517(2) 0.32604(10)
H23A H 0.8381 0.0324 0.3274
C32A C 0.92278(12) 0.0048(2) 0.35102(10)
H24A H 0.9173 -0.0446 0.3697
C33A C 0.97898(12) 0.03118(19) 0.34824(10)
C34A C 0.98602(12) 0.10591(19) 0.31922(9)
H25A H 1.0227 0.1240 0.3162
C35A C 0.93751(12) 0.1522(2) 0.29525(10)
H26A H 0.9421 0.2012 0.2761
C36A C 1.03273(12) -0.01399(19) 0.37788(9)
C37A C 1.02245(12) -0.1089(2) 0.39297(10)
C38A C 1.04995(12) 0.0448(2) 0.42319(9)
C39A C 1.08264(12) -0.0202(2) 0.35061(9)
C40A C 1.07046(13) -0.0603(2) 0.30657(11)
H27A H 1.0325 -0.0744 0.2928
C41A C 1.11390(13) -0.0797(2) 0.28253(10)
H28A H 1.1054 -0.1081 0.2533
C42A C 1.17057(12) -0.05596(19) 0.30305(10)
C43A C 1.18280(12) -0.01112(19) 0.34562(10)
H29A H 1.2203 0.0078 0.3581
C44A C 1.13939(12) 0.00570(19) 0.36981(10)
H30A H 1.1480 0.0343 0.3990
C45A C 1.21960(12) -0.0822(2) 0.27952(10)
F1A F 0.99486(7) -0.15968(11) 0.35747(6)
F2A F 1.07091(7) -0.15220(12) 0.41075(6)
F3A F 0.99010(7) -0.11243(12) 0.42620(6)
F4A F 1.09133(7) 0.00765(13) 0.45533(6)
F5A F 1.00552(7) 0.05881(11) 0.44318(5)
F6A F 1.06920(7) 0.12657(11) 0.41329(5)
N1F N 0.31399(10) 1.07988(17) 0.69409(8)
N1A N 0.81399(10) 0.42012(17) 0.19409(8)
N2F N 0.33720(10) 0.94222(16) 0.67482(8)
N3A N 0.72876(9) 0.24719(15) 0.16775(7)
N4A N 0.66750(10) 0.13865(16) 0.13611(8)
O1A O 0.78193(8) 0.15083(14) 0.27608(7)
O2A O 0.84068(8) 0.25097(14) 0.25412(7)
O3A O 1.20811(9) -0.13713(14) 0.24591(7)
O3B O 0.29189(9) 0.36287(14) 0.25409(7)
O3C O 0.70811(9) 0.36287(14) 0.24591(7)
O4A O 1.26823(9) -0.05171(14) 0.29477(7)
Zn1A Zn 0.774054(13) 0.31938(2) 0.222292(11)
Zn1B Zn -0.274054(13) -0.18062(2) 0.277708(11)
Zn1C Zn 1.274054(13) -0.18062(2) 0.222292(11)
Zn1F Zn 0.274054(13) 1.18062(2) 0.722292(11)
loop_
_geom_bond_atom_site_label_1
_geom_bond_atom_site_label_2
_geom_bond_site_symmetry_1
_geom_bond_site_symmetry_2
C1 H1 1_555 1_555
C2 C3 1_555 1_555
C3 C4 1_555 1_555
C4 H2 1_555 1_555
C5 C4 1_555 1_555
H3 C5 1_555 1_555
C6 C5 1_555 1_555
H4 C6 1_555 1_555
C7 C2 1_555 1_555
H5 C7 1_555 1_555
C8 H6 1_555 1_555
H7 C8 1_555 1_555
C9 C8 1_555 1_555
C10 C9 1_555 1_555
H8 C10 1_555 1_555
C11 C10 1_555 1_555
H9 C11 1_555 1_555
C12 C11 1_555 1_555
C13 C12 1_555 1_555
H10 C13 1_555 1_555
C14 C9 1_555 1_555
H11 C14 1_555 1_555
C15 H12 1_555 1_555
C16 C17 1_555 1_555
C17 C18 1_555 1_555
C18 H13 1_555 1_555
C19 C18 1_555 1_555
H14 C19 1_555 1_555
C20 C19 1_555 1_555
H15 C20 1_555 1_555
C21 C16 1_555 1_555
H16 C21 1_555 1_555
C22 H17 1_555 1_555
H18 C22 1_555 1_555
C23 C22 1_555 1_555
C24 C23 1_555 1_555
H19 C24 1_555 1_555
C25 C24 1_555 1_555
H20 C25 1_555 1_555
C26 C25 1_555 1_555
C27 C26 1_555 1_555
H21 C27 1_555 1_555
C28 C23 1_555 1_555
H22 C28 1_555 1_555
C29 C30 1_555 1_555
C30 C31 1_555 1_555
C31 H23 1_555 1_555
C32 C31 1_555 1_555
H24 C32 1_555 1_555
C33 C32 1_555 1_555
C34 C33 1_555 1_555
H25 C34 1_555 1_555
C35 C30 1_555 1_555
H26 C35 1_555 1_555
C36 C33 1_555 1_555
C37 C36 1_555 1_555
C38 C36 1_555 1_555
C39 C36 1_555 1_555
C40 C39 1_555 1_555
H27 C40 1_555 1_555
C41 C40 1_555 1_555
H28 C41 1_555 1_555
C42 C41 1_555 1_555
C43 C42 1_555 1_555
H29 C43 1_555 1_555
C44 C39 1_555 1_555
H30 C44 1_555 1_555
C45 C42 1_555 1_555
F1 C37 1_555 1_555
F2 C37 1_555 1_555
F3 C37 1_555 1_555
F4 C38 1_555 1_555
F5 C38 1_555 1_555
F6 C38 1_555 1_555
N1 C15 1_555 1_555
N2 C15 1_555 1_555
N3 C1 1_555 1_555
N4 C1 1_555 1_555
O1 C29 1_555 1_555
O2 C29 1_555 1_555
O3 C45 1_555 1_555
O4 C45 1_555 1_555
Zn1 N1 1_555 1_555
C1A H1A 1_555 1_555
C2A C3A 1_555 1_555
C3A C4A 1_555 1_555
C4A H2A 1_555 1_555
C5A C4A 1_555 1_555
H3A C5A 1_555 1_555
C6A C5A 1_555 1_555
H4A C6A 1_555 1_555
C7A C2A 1_555 1_555
H5A C7A 1_555 1_555
C8A H6A 1_555 1_555
H7A C8A 1_555 1_555
C9A C8A 1_555 1_555
C10A C9A 1_555 1_555
H8A C10A 1_555 1_555
C11A C10A 1_555 1_555
H9A C11A 1_555 1_555
C12A C12 1_555 1_555
C13A C12A 1_555 1_555
H10A C13A 1_555 1_555
C14A C9A 1_555 1_555
H11A C14A 1_555 1_555
C15F H12F 1_555 1_555
C16F C17F 1_555 1_555
C17F C18F 1_555 1_555
C18F H13F 1_555 1_555
C19F C18F 1_555 1_555
H14F C19F 1_555 1_555
C20F C19F 1_555 1_555
H15F C20F 1_555 1_555
C21F C16F 1_555 1_555
H16F C21F 1_555 1_555
C22F H17F 1_555 1_555
H18F C22F 1_555 1_555
C23F C22F 1_555 1_555
C24F C23F 1_555 1_555
H19F C24F 1_555 1_555
C25F C24F 1_555 1_555
H20F C25F 1_555 1_555
C26F C26 1_555 1_555
C27F C26F 1_555 1_555
H21F C27F 1_555 1_555
C28F C23F 1_555 1_555
H22F C28F 1_555 1_555
C29A C30A 1_555 1_555
C30A C31A 1_555 1_555
C31A H23A 1_555 1_555
C32A C31A 1_555 1_555
H24A C32A 1_555 1_555
C33A C32A 1_555 1_555
C34A C33A 1_555 1_555
H25A C34A 1_555 1_555
C35A C30A 1_555 1_555
H26A C35A 1_555 1_555
C36A C33A 1_555 1_555
C37A C36A 1_555 1_555
C38A C36A 1_555 1_555
C39A C36A 1_555 1_555
C40A C39A 1_555 1_555
H27A C40A 1_555 1_555
C41A C40A 1_555 1_555
H28A C41A 1_555 1_555
C42A C41A 1_555 1_555
C43A C42A 1_555 1_555
H29A C43A 1_555 1_555
C44A C39A 1_555 1_555
H30A C44A 1_555 1_555
C45A C42A 1_555 1_555
F1A C37A 1_555 1_555
F2A C37A 1_555 1_555
F3A C37A 1_555 1_555
F4A C38A 1_555 1_555
F5A C38A 1_555 1_555
F6A C38A 1_555 1_555
N1F C15F 1_555 1_555
N1A Zn1A 1_555 1_555
N2F C15F 1_555 1_555
N3A C1A 1_555 1_555
N4A C1A 1_555 1_555
O1A C29A 1_555 1_555
O2A C29A 1_555 1_555
O3A C45A 1_555 1_555
O3B Zn1 1_555 1_555
O3C Zn1A 1_555 1_555
O4A C45A 1_555 1_555
Zn1A N3A 1_555 1_555
Zn1B O3 1_555 1_555
Zn1C O3A 1_555 1_555
Zn1F N1F 1_555 1_555
C2 N4 1_555 1_555
C3 N3 1_555 1_555
C6 C7 1_555 1_555
C8 N4 1_555 1_555
C13 C14 1_555 1_555
C16 N2 1_555 1_555
C17 N1 1_555 1_555
C20 C21 1_555 1_555
C22 N2 1_555 1_555
C27 C28 1_555 1_555
C34 C35 1_555 1_555
C43 C44 1_555 1_555
N3 Zn1 1_555 1_555
O2 Zn1 1_555 1_555
C2A N4A 1_555 1_555
C3A N3A 1_555 1_555
C6A C7A 1_555 1_555
C8A N4A 1_555 1_555
C11A C12A 1_555 1_555
C13A C14A 1_555 1_555
C16F N2F 1_555 1_555
C17F N1F 1_555 1_555
C20F C21F 1_555 1_555
C22F N2F 1_555 1_555
C25F C26F 1_555 1_555
C27F C28F 1_555 1_555
C34A C35A 1_555 1_555
C43A C44A 1_555 1_555
O2A Zn1A 1_555 1_555

#END
