
#######################################################################
#
#                 Cambridge Crystallographic Data Centre
#                                CCDC 
#
#######################################################################
#
# If this CIF has been generated from an entry in the Cambridge 
# Structural Database, then it will include bibliographic, chemical, 
# crystal, experimental, refinement or atomic coordinate data resulting 
# from the CCDC's data processing and validation procedures.
#
#######################################################################

data_OTAROR
_symmetry_cell_setting           triclinic
_symmetry_space_group_name_H-M   'P -1'
_symmetry_Int_Tables_number      2
_space_group_name_Hall           '-P 1'
loop_
_symmetry_equiv_pos_site_id
_symmetry_equiv_pos_as_xyz
1 x,y,z
2 -x,-y,-z
_cell_length_a                   13.9275(15)
_cell_length_b                   16.4116(17)
_cell_length_c                   17.7029(19)
_cell_angle_alpha                110.472(2)
_cell_angle_beta                 96.531(2)
_cell_angle_gamma                109.872(2)
_cell_volume                     3438.6
loop_
_atom_site_label
_atom_site_type_symbol
_atom_site_fract_x
_atom_site_fract_y
_atom_site_fract_z
N1 N 0.9286(3) -0.4542(2) 0.0921(2)
C1 C 0.8772(3) -0.5335(3) 0.1033(3)
H1 H 0.8952 -0.5404 0.1522
N2 N 0.8001(2) -0.5994(2) 0.0388(2)
C2 C 0.1019(3) 0.5668(3) 0.3599(3)
C3 C 0.2164(3) 0.6277(3) 0.3695(3)
C4 C 0.2414(3) 0.6994(3) 0.3419(3)
H2 H 0.1877 0.7121 0.3189
C5 C 0.3449(3) 0.7522(3) 0.3479(3)
H3 H 0.3605 0.8011 0.3301
C6 C 0.4258(3) 0.7334(3) 0.3799(3)
C7 C 0.4010(3) 0.6645(3) 0.4095(3)
H4 H 0.4548 0.6519 0.4326
C8 C 0.2976(3) 0.6131(3) 0.4056(3)
H5 H 0.2829 0.5679 0.4278
C9 C 0.5431(3) 0.7915(3) 0.3885(3)
C10 C 0.5826(4) 0.8766(3) 0.4739(4)
C11 C 0.5567(4) 0.8301(4) 0.3211(4)
C12 C 0.6083(3) 0.7309(3) 0.3806(3)
C13 C 0.5756(3) 0.6473(3) 0.3100(3)
H6 H 0.5147 0.6285 0.2691
C14 C 0.6322(3) 0.5908(3) 0.2991(3)
H7 H 0.6102 0.5358 0.2501
C15 C 0.7204(3) 0.6152(3) 0.3597(3)
C16 C 0.7531(3) 0.6987(3) 0.4296(3)
H8 H 0.8132 0.7167 0.4709
C17 C 0.6990(3) 0.7570(3) 0.4402(3)
H9 H 0.7239 0.8141 0.4876
C18 C 0.7799(3) 0.5531(3) 0.3505(3)
C19 C 0.8966(3) 0.2856(3) 0.1630(3)
C20 C 0.9997(3) 0.2793(3) 0.1914(3)
C21 C 1.0476(3) 0.2386(3) 0.1345(3)
H10 H 1.0143 0.2111 0.0777
C22 C 1.1453(3) 0.2381(3) 0.1609(3)
H11 H 1.1753 0.2087 0.1214
C23 C 1.1982(3) 0.2802(3) 0.2442(3)
C24 C 1.1490(3) 0.3195(3) 0.3015(3)
H12 H 1.1818 0.3471 0.3584
C25 C 1.0512(3) 0.3177(3) 0.2741(3)
H13 H 1.0191 0.3437 0.3136
C26 C 1.3116(3) 0.2874(3) 0.2689(3)
C27 C 1.3832(4) 0.3699(4) 0.2519(5)
C28 C 1.3475(5) 0.3095(4) 0.3618(4)
C29 C 1.3190(3) 0.1936(3) 0.2185(3)
C30 C 1.2521(3) 0.1122(3) 0.2229(3)
H14 H 1.2025 0.1153 0.2536
C31 C 1.2582(4) 0.0265(3) 0.1824(3)
H15 H 1.2150 -0.0267 0.1888
C32 C 1.3260(3) 0.0171(3) 0.1329(3)
C33 C 1.3900(3) 0.0975(3) 0.1273(3)
H16 H 1.4360 0.0931 0.0933
C34 C 1.3889(3) 0.1851(3) 0.1704(3)
H17 H 1.4358 0.2389 0.1669
C35 C 1.3266(3) -0.0785(3) 0.0832(3)
C36 C 0.7638(3) 0.2812(3) 0.3832(3)
C37 C 0.6645(3) 0.2631(3) 0.3407(3)
H18 H 0.6545 0.3038 0.3181
C38 C 0.5804(4) 0.1835(4) 0.3325(3)
H19 H 0.5130 0.1693 0.3028
C39 C 0.5948(4) 0.1243(3) 0.3680(3)
H20 H 0.5363 0.0713 0.3619
C40 C 0.6918(3) 0.1407(3) 0.4118(3)
H21 H 0.7009 0.1004 0.4353
C41 C 0.7761(3) 0.2209(3) 0.4189(3)
C42 C 0.9284(3) 0.3373(3) 0.4444(3)
H22 H 1.0005 0.3761 0.4648
C43 C 0.9347(3) 0.2207(3) 0.5052(3)
H23 H 0.8960 0.2083 0.5450
H24 H 1.0058 0.2680 0.5364
C44 C 0.9407(3) 0.1307(3) 0.4498(3)
C45 C 0.9012(3) 0.0496(3) 0.4626(3)
H25 H 0.8675 0.0498 0.5051
C46 C 0.9102(3) -0.0327(3) 0.4136(3)
H26 H 0.8815 -0.0869 0.4236
C47 C 0.9597(3) -0.0368(3) 0.3514(3)
C48 C 0.9984(3) 0.0457(3) 0.3377(3)
H27 H 1.0317 0.0457 0.2951
C49 C 0.9882(3) 0.1273(3) 0.3863(3)
H28 H 1.0143 0.1811 0.3754
C50 C 0.9745(3) -0.1228(3) 0.3004(3)
C51 C 0.8966(3) -0.2138(3) 0.2765(3)
H29 H 0.8346 -0.2212 0.2934
C52 C 0.9106(3) -0.2930(3) 0.2279(3)
H30 H 0.8579 -0.3531 0.2131
C53 C 1.0011(3) -0.2853(3) 0.2006(3)
C54 C 1.0776(3) -0.1957(3) 0.2244(3)
H31 H 1.1391 -0.1883 0.2066
C55 C 1.0649(3) -0.1165(3) 0.2744(3)
H32 H 1.1193 -0.0567 0.2912
C56 C 1.0218(3) -0.3703(3) 0.1511(3)
H33 H 1.0718 -0.3513 0.1202
H34 H 1.0551 -0.3883 0.1900
C57 C 0.8803(3) -0.4707(3) 0.0125(3)
C58 C 0.8001(3) -0.5612(3) -0.0201(3)
C59 C 0.7363(3) -0.6001(3) -0.1000(3)
H35 H 0.6815 -0.6606 -0.1220
C60 C 0.7558(4) -0.5475(4) -0.1459(3)
H36 H 0.7134 -0.5722 -0.2000
C61 C 0.8375(4) -0.4579(4) -0.1132(3)
H37 H 0.8496 -0.4241 -0.1463
C62 C 0.9014(4) -0.4173(3) -0.0336(3)
H38 H 0.9560 -0.3568 -0.0117
C63 C 0.4946(4) 0.3076(3) -0.0061(3)
C64 C 0.5410(4) 0.4011(4) 0.0520(3)
H39 H 0.6118 0.4289 0.0819
C65 C 0.4784(4) 0.4522(4) 0.0643(3)
H40 H 0.5066 0.5151 0.1037
C66 C 0.3732(5) 0.4093(5) 0.0177(4)
H41 H 0.3333 0.4455 0.0266
C67 C 0.3252(4) 0.3165(4) -0.0406(4)
H42 H 0.2547 0.2888 -0.0710
C68 C 0.3894(4) 0.2670(4) -0.0510(3)
C69 C 0.4586(3) 0.1632(3) -0.0869(3)
H43 H 0.4644 0.1058 -0.1136
C70 C 0.2659(3) 0.1010(4) -0.1583(3)
H44 H 0.2761 0.0456 -0.1930
H45 H 0.2381 0.1246 -0.1948
C71 C 0.1864(3) 0.0717(3) -0.1110(3)
C72 C 0.1975(4) 0.0197(4) -0.0666(3)
H46 H 0.2544 0.0022 -0.0659
C73 C 0.1259(4) -0.0066(4) -0.0235(3)
H47 H 0.1367 -0.0406 0.0066
C74 C 0.0387(3) 0.0150(3) -0.0225(3)
C75 C 0.0278(3) 0.0672(3) -0.0676(3)
H48 H -0.0299 0.0834 -0.0693
C76 C 0.1005(4) 0.0954(3) -0.1100(3)
H49 H 0.0913 0.1312 -0.1387
Cd1 Cd 0.70103(2) 0.25160(2) 0.02305(2)
Cd2 Cd 0.90222(2) 0.45638(2) 0.34173(2)
F1 F 0.5203(2) 0.92352(17) 0.48373(18)
F2 F 0.68085(19) 0.94126(17) 0.48685(19)
F3 F 0.58566(18) 0.84997(17) 0.53657(17)
F4 F 0.5267(2) 0.90075(19) 0.3309(2)
F5 F 0.5024(2) 0.7631(2) 0.2453(2)
F6 F 0.65836(19) 0.86360(19) 0.31926(19)
F7 F 1.3643(3) 0.3519(2) 0.1723(3)
F8 F 1.3690(2) 0.44959(19) 0.2908(2)
F9 F 1.4855(2) 0.39090(19) 0.2805(2)
F10 F 1.3651(2) 0.3984(2) 0.4131(2)
F11 F 1.4377(2) 0.3004(2) 0.37877(19)
F12 F 1.2762(3) 0.2518(2) 0.38447(18)
N3 N 0.8617(3) 0.3536(2) 0.3993(2)
N4 N 0.8827(3) 0.2594(2) 0.4584(2)
N5 N 0.5381(3) 0.2403(2) -0.0311(2)
N6 N 0.3679(3) 0.1745(3) -0.1023(2)
O1 O 0.0314(2) 0.5640(2) 0.3077(2)
O2 O 0.0830(2) 0.5197(2) 0.40236(19)
O3 O 0.7591(2) 0.4847(2) 0.2831(2)
O4 O 0.8507(2) 0.5736(2) 0.4137(2)
O5 O 0.8617(2) 0.3323(2) 0.21687(19)
O6 O 0.8522(2) 0.2451(2) 0.0870(2)
O7 O 1.2762(2) -0.1472(2) 0.09861(19)
O8 O 1.3711(2) -0.0865(2) 0.0257(2)
O9 O 0.6578(2) 0.2860(2) 0.14902(18)
H50 H 0.7150 0.3260 0.1863
H51 H 0.6408 0.2350 0.1564
N1A N -0.9286(3) 0.4542(2) -0.0921(2)
C1A C -0.8772(3) 0.5335(3) -0.1033(3)
H1A H -0.8952 0.5404 -0.1522
N2A N -0.8001(2) 0.5994(2) -0.0388(2)
N2_2 N 0.8001(2) 0.4006(2) 0.0388(2)
N2A_2 N -0.8001(2) -0.4006(2) -0.0388(2)
C2A C -0.1019(3) -0.5668(3) -0.3599(3)
C3A C -0.2164(3) -0.6277(3) -0.3695(3)
C4A C -0.2414(3) -0.6994(3) -0.3419(3)
H2A H -0.1877 -0.7121 -0.3189
C5A C -0.3449(3) -0.7522(3) -0.3479(3)
H3A H -0.3605 -0.8011 -0.3301
C6A C -0.4258(3) -0.7334(3) -0.3799(3)
C7A C -0.4010(3) -0.6645(3) -0.4095(3)
H4A H -0.4548 -0.6519 -0.4326
C8A C -0.2976(3) -0.6131(3) -0.4056(3)
H5A H -0.2829 -0.5679 -0.4278
C9A C -0.5431(3) -0.7915(3) -0.3885(3)
C10A C -0.5826(4) -0.8766(3) -0.4739(4)
C11A C -0.5567(4) -0.8301(4) -0.3211(4)
C12A C -0.6083(3) -0.7309(3) -0.3806(3)
C13A C -0.5756(3) -0.6473(3) -0.3100(3)
H6A H -0.5147 -0.6285 -0.2691
C14A C -0.6322(3) -0.5908(3) -0.2991(3)
H7A H -0.6102 -0.5358 -0.2501
C15A C -0.7204(3) -0.6152(3) -0.3597(3)
C16A C -0.7531(3) -0.6987(3) -0.4296(3)
H8A H -0.8132 -0.7167 -0.4709
C17A C -0.6990(3) -0.7570(3) -0.4402(3)
H9A H -0.7239 -0.8141 -0.4876
C18A C -0.7799(3) -0.5531(3) -0.3505(3)
C19A C -0.8966(3) -0.2856(3) -0.1630(3)
C20A C -0.9997(3) -0.2793(3) -0.1914(3)
C21A C -1.0476(3) -0.2386(3) -0.1345(3)
H10A H -1.0143 -0.2111 -0.0777
C22A C -1.1453(3) -0.2381(3) -0.1609(3)
H11A H -1.1753 -0.2087 -0.1214
C23A C -1.1982(3) -0.2802(3) -0.2442(3)
C24A C -1.1490(3) -0.3195(3) -0.3015(3)
H12A H -1.1818 -0.3471 -0.3584
C25A C -1.0512(3) -0.3177(3) -0.2741(3)
H13A H -1.0191 -0.3437 -0.3136
C26A C -1.3116(3) -0.2874(3) -0.2689(3)
C27A C -1.3832(4) -0.3699(4) -0.2519(5)
C28A C -1.3475(5) -0.3095(4) -0.3618(4)
C29A C -1.3190(3) -0.1936(3) -0.2185(3)
C30A C -1.2521(3) -0.1122(3) -0.2229(3)
H14A H -1.2025 -0.1153 -0.2536
C31A C -1.2582(4) -0.0265(3) -0.1824(3)
H15A H -1.2150 0.0267 -0.1888
C32A C -1.3260(3) -0.0171(3) -0.1329(3)
C33A C -1.3900(3) -0.0975(3) -0.1273(3)
H16A H -1.4360 -0.0931 -0.0933
C34A C -1.3889(3) -0.1851(3) -0.1704(3)
H17A H -1.4358 -0.2389 -0.1669
C35A C -1.3266(3) 0.0785(3) -0.0832(3)
C36A C -0.7638(3) -0.2812(3) -0.3832(3)
C37A C -0.6645(3) -0.2631(3) -0.3407(3)
H18A H -0.6545 -0.3038 -0.3181
C38A C -0.5804(4) -0.1835(4) -0.3325(3)
H19A H -0.5130 -0.1693 -0.3028
C39A C -0.5948(4) -0.1243(3) -0.3680(3)
H20A H -0.5363 -0.0713 -0.3619
C40A C -0.6918(3) -0.1407(3) -0.4118(3)
H21A H -0.7009 -0.1004 -0.4353
C41A C -0.7761(3) -0.2209(3) -0.4189(3)
C42A C -0.9284(3) -0.3373(3) -0.4444(3)
H22A H -1.0005 -0.3761 -0.4648
C43A C -0.9347(3) -0.2207(3) -0.5052(3)
H23A H -0.8960 -0.2083 -0.5450
H24A H -1.0058 -0.2680 -0.5364
C44A C -0.9407(3) -0.1307(3) -0.4498(3)
C45A C -0.9012(3) -0.0496(3) -0.4626(3)
H25A H -0.8675 -0.0498 -0.5051
C46A C -0.9102(3) 0.0327(3) -0.4136(3)
H26A H -0.8815 0.0869 -0.4236
C47A C -0.9597(3) 0.0368(3) -0.3514(3)
C48A C -0.9984(3) -0.0457(3) -0.3377(3)
H27A H -1.0317 -0.0457 -0.2951
C49A C -0.9882(3) -0.1273(3) -0.3863(3)
H28A H -1.0143 -0.1811 -0.3754
C50A C -0.9745(3) 0.1228(3) -0.3004(3)
C51A C -0.8966(3) 0.2138(3) -0.2765(3)
H29A H -0.8346 0.2212 -0.2934
C52A C -0.9106(3) 0.2930(3) -0.2279(3)
H30A H -0.8579 0.3531 -0.2131
C53A C -1.0011(3) 0.2853(3) -0.2006(3)
C54A C -1.0776(3) 0.1957(3) -0.2244(3)
H31A H -1.1391 0.1883 -0.2066
C55A C -1.0649(3) 0.1165(3) -0.2744(3)
H32A H -1.1193 0.0567 -0.2912
C56A C -1.0218(3) 0.3703(3) -0.1511(3)
H33A H -1.0718 0.3513 -0.1202
H34A H -1.0551 0.3883 -0.1900
C57A C -0.8803(3) 0.4707(3) -0.0125(3)
C58A C -0.8001(3) 0.5612(3) 0.0201(3)
C59A C -0.7363(3) 0.6001(3) 0.1000(3)
H35A H -0.6815 0.6606 0.1220
C60A C -0.7558(4) 0.5475(4) 0.1459(3)
H36A H -0.7134 0.5722 0.2000
C61A C -0.8375(4) 0.4579(4) 0.1132(3)
H37A H -0.8496 0.4241 0.1463
C62A C -0.9014(4) 0.4173(3) 0.0336(3)
H38A H -0.9560 0.3568 0.0117
C63A C -0.4946(4) -0.3076(3) 0.0061(3)
C64A C -0.5410(4) -0.4011(4) -0.0520(3)
H39A H -0.6118 -0.4289 -0.0819
C65A C -0.4784(4) -0.4522(4) -0.0643(3)
H40A H -0.5066 -0.5151 -0.1037
C66A C -0.3732(5) -0.4093(5) -0.0177(4)
H41A H -0.3333 -0.4455 -0.0266
C67A C -0.3252(4) -0.3165(4) 0.0406(4)
H42A H -0.2547 -0.2888 0.0710
C68A C -0.3894(4) -0.2670(4) 0.0510(3)
C69A C -0.4586(3) -0.1632(3) 0.0869(3)
H43A H -0.4644 -0.1058 0.1136
C70A C -0.2659(3) -0.1010(4) 0.1583(3)
H44A H -0.2761 -0.0456 0.1930
H45A H -0.2381 -0.1246 0.1948
C71A C -0.1864(3) -0.0717(3) 0.1110(3)
C72A C -0.1975(4) -0.0197(4) 0.0666(3)
H46A H -0.2544 -0.0022 0.0659
C73A C -0.1259(4) 0.0066(4) 0.0235(3)
H47A H -0.1367 0.0406 -0.0066
C74A C -0.0387(3) -0.0150(3) 0.0225(3)
C75A C -0.0278(3) -0.0672(3) 0.0676(3)
H48A H 0.0299 -0.0834 0.0693
C76A C -0.1005(4) -0.0954(3) 0.1100(3)
H49A H -0.0913 -0.1312 0.1387
Cd1A Cd -0.70103(2) -0.25160(2) -0.02305(2)
Cd1_2 Cd -1.29897(2) 0.25160(2) 0.02305(2)
Cd1_3 Cd 0.70103(2) -0.74840(2) 0.02305(2)
Cd1A_2 Cd -0.70103(2) 0.74840(2) -0.02305(2)
Cd1A_3 Cd 1.29897(2) -0.25160(2) -0.02305(2)
Cd2A Cd -0.90222(2) -0.45638(2) -0.34173(2)
Cd2_2 Cd -0.09778(2) 0.45638(2) 0.34173(2)
Cd2A_2 Cd 0.09778(2) -0.45638(2) -0.34173(2)
F1A F -0.5203(2) -0.92352(17) -0.48373(18)
F2A F -0.68085(19) -0.94126(17) -0.48685(19)
F3A F -0.58566(18) -0.84997(17) -0.53657(17)
F4A F -0.5267(2) -0.90075(19) -0.3309(2)
F5A F -0.5024(2) -0.7631(2) -0.2453(2)
F6A F -0.65836(19) -0.86360(19) -0.31926(19)
F7A F -1.3643(3) -0.3519(2) -0.1723(3)
F8A F -1.3690(2) -0.44959(19) -0.2908(2)
F9A F -1.4855(2) -0.39090(19) -0.2805(2)
F10A F -1.3651(2) -0.3984(2) -0.4131(2)
F11A F -1.4377(2) -0.3004(2) -0.37877(19)
F12A F -1.2762(3) -0.2518(2) -0.38447(18)
N3A N -0.8617(3) -0.3536(2) -0.3993(2)
N4A N -0.8827(3) -0.2594(2) -0.4584(2)
N5A N -0.5381(3) -0.2403(2) 0.0311(2)
N6A N -0.3679(3) -0.1745(3) 0.1023(2)
O1A O -0.0314(2) -0.5640(2) -0.3077(2)
O1_2 O 1.0314(2) 0.5640(2) 0.3077(2)
O1A_2 O -1.0314(2) -0.5640(2) -0.3077(2)
O2A O -0.0830(2) -0.5197(2) -0.40236(19)
O2_2 O 1.0830(2) 0.5197(2) 0.40236(19)
O2A_2 O -1.0830(2) -0.5197(2) -0.40236(19)
O3A O -0.7591(2) -0.4847(2) -0.2831(2)
O4A O -0.8507(2) -0.5736(2) -0.4137(2)
O5A O -0.8617(2) -0.3323(2) -0.21687(19)
O6A O -0.8522(2) -0.2451(2) -0.0870(2)
O7A O -1.2762(2) 0.1472(2) -0.09861(19)
O7_2 O -0.7238(2) -0.1472(2) 0.09861(19)
O7A_2 O 0.7238(2) 0.1472(2) -0.09861(19)
O8A O -1.3711(2) 0.0865(2) -0.0257(2)
O8_2 O -0.6289(2) -0.0865(2) 0.0257(2)
O8A_2 O 0.6289(2) 0.0865(2) -0.0257(2)
O9A O -0.6578(2) -0.2860(2) -0.14902(18)
H50A H -0.7150 -0.3260 -0.1863
H51A H -0.6408 -0.2350 -0.1564
O10 O 0.3754(5) 0.9352(4) 0.8698(5)
H52 H 0.3674 0.9107 0.9050
H53 H 0.4410 0.9622 0.8741
loop_
_geom_bond_atom_site_label_1
_geom_bond_atom_site_label_2
_geom_bond_site_symmetry_1
_geom_bond_site_symmetry_2
N1 C1 1_555 1_555
C1 H1 1_555 1_555
N2 C1 1_555 1_555
C2 C3 1_555 1_555
C3 C4 1_555 1_555
C4 H2 1_555 1_555
C5 C4 1_555 1_555
H3 C5 1_555 1_555
C6 C5 1_555 1_555
C7 C6 1_555 1_555
H4 C7 1_555 1_555
C8 C3 1_555 1_555
H5 C8 1_555 1_555
C9 C6 1_555 1_555
C10 C9 1_555 1_555
C11 C9 1_555 1_555
C12 C9 1_555 1_555
C13 C12 1_555 1_555
H6 C13 1_555 1_555
C14 C13 1_555 1_555
H7 C14 1_555 1_555
C15 C14 1_555 1_555
C16 C15 1_555 1_555
H8 C16 1_555 1_555
C17 C12 1_555 1_555
H9 C17 1_555 1_555
C18 C15 1_555 1_555
C19 C20 1_555 1_555
C20 C21 1_555 1_555
C21 H10 1_555 1_555
C22 C21 1_555 1_555
H11 C22 1_555 1_555
C23 C22 1_555 1_555
C24 C23 1_555 1_555
H12 C24 1_555 1_555
C25 C20 1_555 1_555
H13 C25 1_555 1_555
C26 C23 1_555 1_555
C27 C26 1_555 1_555
C28 C26 1_555 1_555
C29 C26 1_555 1_555
C30 C29 1_555 1_555
H14 C30 1_555 1_555
C31 C30 1_555 1_555
H15 C31 1_555 1_555
C32 C31 1_555 1_555
C33 C32 1_555 1_555
H16 C33 1_555 1_555
C34 C29 1_555 1_555
H17 C34 1_555 1_555
C35 C32 1_555 1_555
C36 C37 1_555 1_555
C37 H18 1_555 1_555
C38 C37 1_555 1_555
H19 C38 1_555 1_555
C39 C38 1_555 1_555
H20 C39 1_555 1_555
C40 C39 1_555 1_555
H21 C40 1_555 1_555
C41 C36 1_555 1_555
C42 H22 1_555 1_555
C43 H23 1_555 1_555
H24 C43 1_555 1_555
C44 C43 1_555 1_555
C45 C44 1_555 1_555
H25 C45 1_555 1_555
C46 C45 1_555 1_555
H26 C46 1_555 1_555
C47 C46 1_555 1_555
C48 C47 1_555 1_555
H27 C48 1_555 1_555
C49 C44 1_555 1_555
H28 C49 1_555 1_555
C50 C47 1_555 1_555
C51 C50 1_555 1_555
H29 C51 1_555 1_555
C52 C51 1_555 1_555
H30 C52 1_555 1_555
C53 C52 1_555 1_555
C54 C53 1_555 1_555
H31 C54 1_555 1_555
C55 C50 1_555 1_555
H32 C55 1_555 1_555
C56 N1 1_555 1_555
H33 C56 1_555 1_555
H34 C56 1_555 1_555
C57 N1 1_555 1_555
C58 N2 1_555 1_555
C59 C58 1_555 1_555
H35 C59 1_555 1_555
C60 C59 1_555 1_555
H36 C60 1_555 1_555
C61 C60 1_555 1_555
H37 C61 1_555 1_555
C62 C57 1_555 1_555
H38 C62 1_555 1_555
C63 C64 1_555 1_555
C64 H39 1_555 1_555
C65 C64 1_555 1_555
H40 C65 1_555 1_555
C66 C65 1_555 1_555
H41 C66 1_555 1_555
C67 C66 1_555 1_555
H42 C67 1_555 1_555
C68 C63 1_555 1_555
C69 H43 1_555 1_555
C70 H44 1_555 1_555
H45 C70 1_555 1_555
C71 C70 1_555 1_555
C72 C71 1_555 1_555
H46 C72 1_555 1_555
C73 C72 1_555 1_555
H47 C73 1_555 1_555
C74 C73 1_555 1_555
C75 C74 1_555 1_555
H48 C75 1_555 1_555
C76 C71 1_555 1_555
H49 C76 1_555 1_555
Cd1 N5 1_555 1_555
Cd2 N3 1_555 1_555
F1 C10 1_555 1_555
F2 C10 1_555 1_555
F3 C10 1_555 1_555
F4 C11 1_555 1_555
F5 C11 1_555 1_555
F6 C11 1_555 1_555
F7 C27 1_555 1_555
F8 C27 1_555 1_555
F9 C27 1_555 1_555
F10 C28 1_555 1_555
F11 C28 1_555 1_555
F12 C28 1_555 1_555
N3 C36 1_555 1_555
N4 C41 1_555 1_555
N5 C63 1_555 1_555
N6 C68 1_555 1_555
O1 C2 1_555 1_555
O2 C2 1_555 1_555
O3 C18 1_555 1_555
O4 C18 1_555 1_555
O5 C19 1_555 1_555
O6 C19 1_555 1_555
O7 C35 1_555 1_555
O8 C35 1_555 1_555
O9 Cd1 1_555 1_555
H50 O9 1_555 1_555
H51 O9 1_555 1_555
O10 H52 1_555 1_555
H53 O10 1_555 1_555
N1A C1A 1_555 1_555
C1A H1A 1_555 1_555
N2A C1A 1_555 1_555
N2_2 Cd1 1_555 1_555
N2A_2 Cd1A 1_555 1_555
C2A C3A 1_555 1_555
C3A C4A 1_555 1_555
C4A H2A 1_555 1_555
C5A C4A 1_555 1_555
H3A C5A 1_555 1_555
C6A C5A 1_555 1_555
C7A C6A 1_555 1_555
H4A C7A 1_555 1_555
C8A C3A 1_555 1_555
H5A C8A 1_555 1_555
C9A C6A 1_555 1_555
C10A C9A 1_555 1_555
C11A C9A 1_555 1_555
C12A C9A 1_555 1_555
C13A C12A 1_555 1_555
H6A C13A 1_555 1_555
C14A C13A 1_555 1_555
H7A C14A 1_555 1_555
C15A C14A 1_555 1_555
C16A C15A 1_555 1_555
H8A C16A 1_555 1_555
C17A C12A 1_555 1_555
H9A C17A 1_555 1_555
C18A C15A 1_555 1_555
C19A C20A 1_555 1_555
C20A C21A 1_555 1_555
C21A H10A 1_555 1_555
C22A C21A 1_555 1_555
H11A C22A 1_555 1_555
C23A C22A 1_555 1_555
C24A C23A 1_555 1_555
H12A C24A 1_555 1_555
C25A C20A 1_555 1_555
H13A C25A 1_555 1_555
C26A C23A 1_555 1_555
C27A C26A 1_555 1_555
C28A C26A 1_555 1_555
C29A C26A 1_555 1_555
C30A C29A 1_555 1_555
H14A C30A 1_555 1_555
C31A C30A 1_555 1_555
H15A C31A 1_555 1_555
C32A C31A 1_555 1_555
C33A C32A 1_555 1_555
H16A C33A 1_555 1_555
C34A C29A 1_555 1_555
H17A C34A 1_555 1_555
C35A C32A 1_555 1_555
C36A C37A 1_555 1_555
C37A H18A 1_555 1_555
C38A C37A 1_555 1_555
H19A C38A 1_555 1_555
C39A C38A 1_555 1_555
H20A C39A 1_555 1_555
C40A C39A 1_555 1_555
H21A C40A 1_555 1_555
C41A C36A 1_555 1_555
C42A H22A 1_555 1_555
C43A H23A 1_555 1_555
H24A C43A 1_555 1_555
C44A C43A 1_555 1_555
C45A C44A 1_555 1_555
H25A C45A 1_555 1_555
C46A C45A 1_555 1_555
H26A C46A 1_555 1_555
C47A C46A 1_555 1_555
C48A C47A 1_555 1_555
H27A C48A 1_555 1_555
C49A C44A 1_555 1_555
H28A C49A 1_555 1_555
C50A C47A 1_555 1_555
C51A C50A 1_555 1_555
H29A C51A 1_555 1_555
C52A C51A 1_555 1_555
H30A C52A 1_555 1_555
C53A C52A 1_555 1_555
C54A C53A 1_555 1_555
H31A C54A 1_555 1_555
C55A C50A 1_555 1_555
H32A C55A 1_555 1_555
C56A N1A 1_555 1_555
H33A C56A 1_555 1_555
H34A C56A 1_555 1_555
C57A N1A 1_555 1_555
C58A N2A 1_555 1_555
C59A C58A 1_555 1_555
H35A C59A 1_555 1_555
C60A C59A 1_555 1_555
H36A C60A 1_555 1_555
C61A C60A 1_555 1_555
H37A C61A 1_555 1_555
C62A C57A 1_555 1_555
H38A C62A 1_555 1_555
C63A C64A 1_555 1_555
C64A H39A 1_555 1_555
C65A C64A 1_555 1_555
H40A C65A 1_555 1_555
C66A C65A 1_555 1_555
H41A C66A 1_555 1_555
C67A C66A 1_555 1_555
H42A C67A 1_555 1_555
C68A C63A 1_555 1_555
C69A H43A 1_555 1_555
C70A H44A 1_555 1_555
H45A C70A 1_555 1_555
C71A C70A 1_555 1_555
C72A C71A 1_555 1_555
H46A C72A 1_555 1_555
C73A C72A 1_555 1_555
H47A C73A 1_555 1_555
C74A C74 1_555 1_555
C75A C74A 1_555 1_555
H48A C75A 1_555 1_555
C76A C71A 1_555 1_555
H49A C76A 1_555 1_555
Cd1A N5A 1_555 1_555
Cd1_2 O7A 1_555 1_555
Cd1_3 N2 1_555 1_555
Cd1A_2 N2A 1_555 1_555
Cd1A_3 O7 1_555 1_555
Cd2A N3A 1_555 1_555
Cd2_2 O1 1_555 1_555
Cd2A_2 O1A 1_555 1_555
F1A C10A 1_555 1_555
F2A C10A 1_555 1_555
F3A C10A 1_555 1_555
F4A C11A 1_555 1_555
F5A C11A 1_555 1_555
F6A C11A 1_555 1_555
F7A C27A 1_555 1_555
F8A C27A 1_555 1_555
F9A C27A 1_555 1_555
F10A C28A 1_555 1_555
F11A C28A 1_555 1_555
F12A C28A 1_555 1_555
N3A C36A 1_555 1_555
N4A C41A 1_555 1_555
N5A C63A 1_555 1_555
N6A C68A 1_555 1_555
O1A C2A 1_555 1_555
O1_2 Cd2 1_555 1_555
O1A_2 Cd2A 1_555 1_555
O2A C2A 1_555 1_555
O2_2 Cd2 1_555 1_555
O2A_2 Cd2A 1_555 1_555
O3A C18A 1_555 1_555
O4A C18A 1_555 1_555
O5A C19A 1_555 1_555
O6A C19A 1_555 1_555
O7A C35A 1_555 1_555
O7_2 Cd1A 1_555 1_555
O7A_2 Cd1 1_555 1_555
O8A C35A 1_555 1_555
O8_2 Cd1A 1_555 1_555
O8A_2 Cd1 1_555 1_555
O9A Cd1A 1_555 1_555
H50A O9A 1_555 1_555
H51A O9A 1_555 1_555
C7 C8 1_555 1_555
C16 C17 1_555 1_555
C24 C25 1_555 1_555
C33 C34 1_555 1_555
C40 C41 1_555 1_555
C42 N3 1_555 1_555
C42 N4 1_555 1_555
C43 N4 1_555 1_555
C48 C49 1_555 1_555
C53 C56 1_555 1_555
C54 C55 1_555 1_555
C57 C58 1_555 1_555
C61 C62 1_555 1_555
C67 C68 1_555 1_555
C69 N5 1_555 1_555
C69 N6 1_555 1_555
C70 N6 1_555 1_555
C75 C76 1_555 1_555
Cd1 O6 1_555 1_555
Cd2 O3 1_555 1_555
Cd2 O4 1_555 1_555
Cd2 O5 1_555 1_555
O2 Cd2_2 1_555 1_555
O8 Cd1A_3 1_555 1_555
C7A C8A 1_555 1_555
C16A C17A 1_555 1_555
C24A C25A 1_555 1_555
C33A C34A 1_555 1_555
C40A C41A 1_555 1_555
C42A N3A 1_555 1_555
C42A N4A 1_555 1_555
C43A N4A 1_555 1_555
C48A C49A 1_555 1_555
C53A C56A 1_555 1_555
C54A C55A 1_555 1_555
C57A C58A 1_555 1_555
C61A C62A 1_555 1_555
C67A C68A 1_555 1_555
C69A N5A 1_555 1_555
C69A N6A 1_555 1_555
C70A N6A 1_555 1_555
C73A C74A 1_555 1_555
C75A C76A 1_555 1_555
Cd1A O6A 1_555 1_555
Cd1_2 O8A 1_555 1_555
Cd2A O3A 1_555 1_555
Cd2A O4A 1_555 1_555
Cd2A O5A 1_555 1_555
Cd2A_2 O2A 1_555 1_555

#END
