
#######################################################################
#
#                 Cambridge Crystallographic Data Centre
#                                CCDC 
#
#######################################################################
#
# If this CIF has been generated from an entry in the Cambridge 
# Structural Database, then it will include bibliographic, chemical, 
# crystal, experimental, refinement or atomic coordinate data resulting 
# from the CCDC's data processing and validation procedures.
#
#######################################################################

data_OTASOS
_symmetry_cell_setting           monoclinic
_symmetry_space_group_name_H-M   'P 21'
_symmetry_Int_Tables_number      4
_space_group_name_Hall           'P 2yb'
loop_
_symmetry_equiv_pos_site_id
_symmetry_equiv_pos_as_xyz
1 x,y,z
2 -x,1/2+y,-z
_cell_length_a                   10.439(2)
_cell_length_b                   16.863(3)
_cell_length_c                   11.302(2)
_cell_angle_alpha                90
_cell_angle_beta                 107.84(3)
_cell_angle_gamma                90
_cell_volume                     1893.86
loop_
_atom_site_label
_atom_site_type_symbol
_atom_site_fract_x
_atom_site_fract_y
_atom_site_fract_z
Cu1 Cu 0.24846(5) -0.15201(3) 1.02346(4)
N1 N 0.3474(4) -0.17400(19) 0.2042(3)
N2 N 0.4186(4) -0.1680(2) 0.9751(3)
N3 N 0.0744(3) -0.1575(3) 0.0695(3)
N4 N 0.1445(3) -0.1564(3) 0.8407(3)
C1 C 0.3331(5) -0.1251(3) 0.2934(4)
H1 H 0.2809 -0.0783 0.2688
C2 C 0.3902(5) -0.1393(3) 0.4179(4)
H2 H 0.3771 -0.1030 0.4774
C3 C 0.4678(5) -0.2077(3) 0.4571(4)
C4 C 0.4839(5) -0.2572(3) 0.3643(4)
H3 H 0.5375 -0.3037 0.3861
C5 C 0.4231(5) -0.2394(3) 0.2419(4)
H4 H 0.4347 -0.2747 0.1805
C6 C 0.5317(5) -0.2258(3) 0.5924(4)
H5 H 0.5641 -0.2814 0.6011
H6 H 0.4630 -0.2210 0.6359
C7 C 0.6482(5) -0.1715(3) 0.6540(4)
H7 H 0.6149 -0.1163 0.6489
H8 H 0.7148 -0.1743 0.6078
C8 C 0.6215(5) -0.1852(3) 0.8648(4)
C9 C 0.7189(5) -0.1926(3) 0.7917(4)
H9 H 0.7539 -0.2475 0.7978
H10 H 0.7959 -0.1564 0.8264
C10 C 0.5526(5) -0.2502(3) 0.8878(4)
H11 H 0.5752 -0.3020 0.8676
C11 C 0.4504(5) -0.2398(3) 0.9403(4)
H12 H 0.4010 -0.2848 0.9523
C12 C 0.4903(5) -0.1052(3) 0.9596(4)
H13 H 0.4713 -0.0547 0.9875
C13 C 0.5912(5) -0.1115(3) 0.9043(4)
H14 H 0.6395 -0.0657 0.8934
C14 C 0.0369(6) -0.2244(3) 0.1136(4)
H15 H 0.0834 -0.2722 0.1091
C15 C -0.0664(5) -0.2266(3) 0.1652(4)
H16 H -0.0919 -0.2756 0.1928
C16 C -0.1335(4) -0.1578(4) 0.1773(3)
C17 C -0.0981(5) -0.0893(3) 0.1273(4)
H17 H -0.1444 -0.0411 0.1298
C18 C 0.0043(5) -0.0908(3) 0.0739(4)
H18 H 0.0263 -0.0434 0.0391
C19 C -0.2340(4) -0.1561(4) 0.2488(3)
H19 H -0.2768 -0.2088 0.2447
H20 H -0.3052 -0.1168 0.2112
C20 C -0.1612(6) -0.1336(4) 0.3879(4)
H21 H -0.1167 -0.0814 0.3914
H22 H -0.2286 -0.1290 0.4329
C21 C -0.0597(6) -0.1938(3) 0.4494(4)
H23 H 0.0096 -0.1959 0.4062
H24 H -0.1040 -0.2463 0.4399
C22 C 0.0100(6) -0.1784(3) 0.5881(4)
C23 C 0.1013(6) -0.1155(3) 0.6294(4)
H25 H 0.1183 -0.0794 0.5714
C24 C 0.1661(5) -0.1067(3) 0.7554(4)
H26 H 0.2278 -0.0642 0.7827
C25 C 0.0545(5) -0.2144(3) 0.7987(4)
H27 H 0.0365 -0.2490 0.8580
C26 C -0.0136(5) -0.2271(3) 0.6750(4)
H28 H -0.0764 -0.2693 0.6507
O1 O 0.2674(3) -0.02378(17) 1.0339(3)
H29 H 0.1905 -0.0062 1.0124
H30 H 0.3084 -0.0005 1.0980
Cu1_2 Cu 0.24846(5) -0.15201(3) 0.02346(4)
N1_2 N 0.3474(4) -0.17400(19) 1.2042(3)
N3_2 N 0.0744(3) -0.1575(3) 1.0695(3)
O2 O -0.4223(3) 0.04665(19) 0.6862(3)
O3 O -0.2086(3) 0.0680(2) 0.7936(3)
O4 O -0.5517(3) 0.0466(2) 0.2181(3)
O5 O -0.3918(3) 0.0580(2) 0.1265(3)
C27 C -0.3020(5) 0.0611(3) 0.6926(4)
C28 C -0.2663(5) 0.0716(3) 0.5727(4)
C29 C -0.1376(5) 0.0950(3) 0.5769(4)
H31 H -0.0723 0.1047 0.6550
C30 C -0.1032(6) 0.1044(4) 0.4691(4)
H32 H -0.0142 0.1194 0.4733
C31 C -0.1992(5) 0.0918(3) 0.3545(4)
H33 H -0.1754 0.0989 0.2805
C32 C -0.3280(5) 0.0691(3) 0.3465(4)
C33 C -0.3618(4) 0.0585(3) 0.4567(4)
H34 H -0.4503 0.0424 0.4524
C34 C -0.4312(5) 0.0563(2) 0.2218(4)
O6 O 0.4708(3) 0.0968(2) 0.8744(3)
H35 H 0.5075 0.0801 0.8249
H36 H 0.5155 0.0833 0.9446
O7 O 0.2993(4) 0.0292(2) 0.5622(3)
H37 H 0.3812 0.0316 0.5942
H38 H 0.2816 0.0476 0.4919
O8 O 0.2097(3) 0.1137(2) 0.7333(3)
H39 H 0.2892 0.1093 0.7742
H40 H 0.1994 0.1098 0.6586
O9 O 0.0660(3) 0.0660(2) 0.8832(3)
H41 H 0.1187 0.0844 0.8495
H42 H -0.0113 0.0821 0.8535
O10 O 0.2624(4) 0.0917(3) 0.3327(3)
H43 H 0.3310 0.0859 0.3127
H44 H 0.1982 0.0912 0.2690
O11 O -0.2088(3) 0.1241(2) 0.0205(3)
H45 H -0.2649 0.1023 0.0469
H46 H -0.2136 0.1049 -0.0474
O12 O 0.0629(4) 0.1231(2) 0.1169(3)
H47 H -0.0178 0.1198 0.1080
H48 H 0.0807 0.1120 0.0530
loop_
_geom_bond_atom_site_label_1
_geom_bond_atom_site_label_2
_geom_bond_site_symmetry_1
_geom_bond_site_symmetry_2
Cu1 N2 1_555 1_555
N1 C1 1_555 1_555
N2 C11 1_555 1_555
N3 C14 1_555 1_555
N4 Cu1 1_555 1_555
C1 H1 1_555 1_555
C2 C1 1_555 1_555
H2 C2 1_555 1_555
C3 C2 1_555 1_555
C4 C3 1_555 1_555
H3 C4 1_555 1_555
C5 N1 1_555 1_555
H4 C5 1_555 1_555
C6 C3 1_555 1_555
H5 C6 1_555 1_555
H6 C6 1_555 1_555
C7 C6 1_555 1_555
H7 C7 1_555 1_555
H8 C7 1_555 1_555
C8 C9 1_555 1_555
C9 C7 1_555 1_555
H9 C9 1_555 1_555
H10 C9 1_555 1_555
C10 C8 1_555 1_555
H11 C10 1_555 1_555
C11 C10 1_555 1_555
H12 C11 1_555 1_555
C12 N2 1_555 1_555
H13 C12 1_555 1_555
C13 C8 1_555 1_555
H14 C13 1_555 1_555
C14 H15 1_555 1_555
C15 C14 1_555 1_555
H16 C15 1_555 1_555
C16 C15 1_555 1_555
C17 C16 1_555 1_555
H17 C17 1_555 1_555
C18 N3 1_555 1_555
H18 C18 1_555 1_555
C19 C16 1_555 1_555
H19 C19 1_555 1_555
H20 C19 1_555 1_555
C20 C19 1_555 1_555
H21 C20 1_555 1_555
H22 C20 1_555 1_555
C21 C20 1_555 1_555
H23 C21 1_555 1_555
H24 C21 1_555 1_555
C22 C21 1_555 1_555
C23 C22 1_555 1_555
H25 C23 1_555 1_555
C24 N4 1_555 1_555
H26 C24 1_555 1_555
C25 N4 1_555 1_555
H27 C25 1_555 1_555
C26 C22 1_555 1_555
H28 C26 1_555 1_555
O1 Cu1 1_555 1_555
H29 O1 1_555 1_555
H30 O1 1_555 1_555
O2 C27 1_555 1_555
O3 C27 1_555 1_555
O4 C34 1_555 1_555
O5 C34 1_555 1_555
C27 C28 1_555 1_555
C28 C29 1_555 1_555
C29 H31 1_555 1_555
C30 C29 1_555 1_555
H32 C30 1_555 1_555
C31 C30 1_555 1_555
H33 C31 1_555 1_555
C32 C31 1_555 1_555
C33 C28 1_555 1_555
H34 C33 1_555 1_555
C34 C32 1_555 1_555
O6 H35 1_555 1_555
H36 O6 1_555 1_555
O7 H37 1_555 1_555
H38 O7 1_555 1_555
O8 H39 1_555 1_555
H40 O8 1_555 1_555
O9 H41 1_555 1_555
H42 O9 1_555 1_555
O10 H43 1_555 1_555
H44 O10 1_555 1_555
O11 H45 1_555 1_555
H46 O11 1_555 1_555
O12 H47 1_555 1_555
H48 O12 1_555 1_555
Cu1_2 N1 1_555 1_555
N1_2 Cu1 1_555 1_555
N3_2 Cu1 1_555 1_555
N3 Cu1_2 1_555 1_555
C4 C5 1_555 1_555
C12 C13 1_555 1_555
C17 C18 1_555 1_555
C23 C24 1_555 1_555
C25 C26 1_555 1_555
C32 C33 1_555 1_555

#END
