
#######################################################################
#
#                 Cambridge Crystallographic Data Centre
#                                CCDC 
#
#######################################################################
#
# If this CIF has been generated from an entry in the Cambridge 
# Structural Database, then it will include bibliographic, chemical, 
# crystal, experimental, refinement or atomic coordinate data resulting 
# from the CCDC's data processing and validation procedures.
#
#######################################################################

data_OTASIM
_symmetry_cell_setting           monoclinic
_symmetry_space_group_name_H-M   'P 21/n'
_symmetry_Int_Tables_number      14
_space_group_name_Hall           '-P 2yn'
loop_
_symmetry_equiv_pos_site_id
_symmetry_equiv_pos_as_xyz
1 x,y,z
2 1/2-x,1/2+y,1/2-z
3 -x,-y,-z
4 1/2+x,1/2-y,1/2+z
_cell_length_a                   12.824(3)
_cell_length_b                   16.867(3)
_cell_length_c                   17.660(4)
_cell_angle_alpha                90
_cell_angle_beta                 94.50(3)
_cell_angle_gamma                90
_cell_volume                     3808.13
loop_
_atom_site_label
_atom_site_type_symbol
_atom_site_fract_x
_atom_site_fract_y
_atom_site_fract_z
Cu1 Cu 0.824072(17) 0.726689(14) 0.763526(11)
N1 N 0.97147(13) 0.72251(9) 0.72801(9)
N2 N 0.67788(12) 0.72142(9) 0.80118(8)
N3 N 1.38429(12) 0.77009(9) 0.37302(8)
N4 N 0.26926(12) 0.77571(9) 1.15223(8)
C1 C 1.00256(17) 0.77009(13) 0.67315(12)
H1 H 0.9587 0.8130 0.6564
C2 C 1.09533(17) 0.75922(13) 0.64017(13)
H2 H 1.1141 0.7943 0.6014
C3 C 1.16174(15) 0.69702(12) 0.66333(11)
C4 C 1.13029(15) 0.64947(12) 0.72134(11)
H3 H 1.1735 0.6070 0.7401
C5 C 1.03641(15) 0.66366(12) 0.75200(10)
H4 H 1.0168 0.6303 0.7918
C6 C 1.26284(16) 0.68372(13) 0.62756(12)
H5 H 1.2497 0.6852 0.5716
H6 H 1.2905 0.6305 0.6419
C7 C 1.34415(15) 0.74633(13) 0.65258(10)
H7 H 1.3601 0.7425 0.7082
H8 H 1.3144 0.7996 0.6412
C8 C 1.44597(15) 0.73736(13) 0.61333(10)
H9 H 1.4979 0.7762 0.6352
H10 H 1.4747 0.6836 0.6233
C9 C 0.65209(15) 0.76477(11) 0.86086(10)
H11 H 0.7019 0.8011 0.8834
C10 C 0.55613(16) 0.75851(12) 0.89056(11)
H12 H 0.5410 0.7904 0.9326
C11 C 0.48152(15) 0.70584(12) 0.85931(11)
C12 C 0.50859(15) 0.66155(12) 0.79764(10)
H13 H 0.4602 0.6247 0.7742
C13 C 0.60551(14) 0.67085(11) 0.77034(10)
H14 H 0.6220 0.6401 0.7278
C14 C 0.37575(16) 0.69915(13) 0.89002(12)
H15 H 0.3849 0.6927 0.9459
H16 H 0.3399 0.6513 0.8685
C15 C 0.30730(15) 0.77200(12) 0.87092(10)
H17 H 0.2914 0.7747 0.8152
H18 H 0.3469 0.8204 0.8869
C16 C 0.20433(15) 0.77070(13) 0.90959(10)
H19 H 0.1613 0.8170 0.8923
H20 H 0.1649 0.7221 0.8943
C17 C 0.22311(14) 0.77288(11) 0.99458(10)
C18 C 0.19495(16) 0.71161(12) 1.04052(11)
H21 H 0.1589 0.6669 1.0187
C19 C 1.36170(16) 0.82697(12) 0.42234(10)
H22 H 1.3292 0.8743 0.4032
C20 C 1.38384(16) 0.81941(12) 0.49953(10)
H23 H 1.3680 0.8614 0.5325
C21 C 1.42946(14) 0.75013(12) 0.52907(10)
C22 C 1.45575(14) 0.69294(12) 0.47759(10)
H24 H 1.4895 0.6455 0.4951
C23 C 1.43291(15) 0.70501(12) 0.40101(10)
H25 H 1.4525 0.6655 0.3666
C24 C 0.2959(2) 0.83564(13) 1.10799(11)
H26 H 0.3319 0.8796 1.1312
C25 C 0.2736(2) 0.83661(13) 1.03063(11)
H27 H 0.2929 0.8811 1.0018
C26 C 0.21888(15) 0.71484(12) 1.11815(11)
H28 H 0.1985 0.6718 1.1485
O5 O 0.80521(10) 0.86746(8) 0.76512(7)
H33 H 0.7574 0.8896 0.7884
H34 H 0.8433 0.9006 0.7438
O6 O 0.82201(10) 0.57878(8) 0.76478(7)
H35 H 0.7769 0.5585 0.7918
H36 H 0.8329 0.5412 0.7343
Cu1C Cu 0.324072(17) 0.773311(14) 1.263526(11)
Cu1C_2 Cu 1.324072(17) 0.773311(14) 0.263526(11)
N3C N 0.88429(12) 0.72991(9) 0.87302(8)
N4C N 0.76926(12) 0.72429(9) 0.65223(8)
O1 O 0.79846(10) 1.01280(9) 0.63467(7)
O2 O 0.94288(10) 0.96833(8) 0.69918(7)
C27 C 0.89270(15) 0.99224(11) 0.63909(10)
C28 C 0.94900(15) 0.99617(11) 0.56716(10)
C29 C 1.05345(16) 0.97484(13) 0.56654(10)
H29 H 1.0906 0.9573 0.6122
C30 C 0.89572(15) 1.02129(13) 0.49971(11)
H30 H 0.8241 1.0359 0.4991
O1B O 1.20154(10) 0.98720(9) 0.36533(7)
O2B O 1.05712(10) 1.03167(8) 0.30082(7)
C27B C 1.10730(15) 1.00776(11) 0.36091(10)
C28B C 1.05100(15) 1.00383(11) 0.43284(10)
C29B C 0.94655(16) 1.02516(13) 0.43346(10)
H29B H 0.9094 1.0427 0.3878
C30B C 1.10428(15) 0.97871(13) 0.50029(11)
H30B H 1.1759 0.9641 0.5009
O3 O 0.65792(10) 0.95544(8) 0.84012(7)
O4 O 0.76503(11) 0.95685(9) 0.94548(7)
C31 C 0.67631(15) 0.96274(11) 0.91135(10)
C32 C 0.58446(14) 0.98067(11) 0.95732(10)
C33 C 0.59642(15) 0.98125(12) 1.03638(10)
H31 H 0.6623 0.9684 1.0617
C34 C 0.48692(15) 0.99964(12) 0.92156(10)
H32 H 0.4774 0.9995 0.8677
O3B O 0.34208(10) 1.04456(8) 1.15988(7)
O4B O 0.23497(11) 1.04315(9) 1.05452(7)
C31B C 0.32369(15) 1.03726(11) 1.08865(10)
C32B C 0.41554(14) 1.01933(11) 1.04268(10)
C33B C 0.40358(15) 1.01875(12) 0.96362(10)
H31B H 0.3377 1.0316 0.9383
C34B C 0.51308(15) 1.00036(12) 1.07844(10)
H32B H 0.5226 1.0005 1.1323
O7 O 0.57357(12) 0.51971(10) 0.63641(8)
H37 H 0.5790 0.5032 0.6820
H38 H 0.6282 0.4982 0.6212
O8 O 0.31211(14) 0.96000(11) 0.66875(10)
H39 H 0.3652 0.9424 0.6953
H40 H 0.2693 0.9617 0.7031
O9 O 0.15267(14) 0.98207(17) 0.76232(10)
H41 H 0.1490 0.9809 0.8102
H42 H 0.0911 0.9775 0.7411
O10 O 0.51178(13) 0.90533(11) 0.71813(9)
H43 H 0.5523 0.9182 0.7566
H44 H 0.5538 0.9165 0.6848
O11 O 0.12881(13) 0.97934(11) 0.91908(9)
H45 H 0.1537 1.0021 0.9594
H46 H 0.0663 0.9954 0.9095
O12 O 0.08490(13) 0.55888(10) 0.92614(8)
H47 H 0.0239 0.5404 0.9151
H48 H 0.1243 0.5316 0.8997
O13 O 0.59973(12) 0.96711(9) 0.58271(8)
H49 H 0.5954 0.9598 0.5349
H50 H 0.6621 0.9817 0.5955
loop_
_geom_bond_atom_site_label_1
_geom_bond_atom_site_label_2
_geom_bond_site_symmetry_1
_geom_bond_site_symmetry_2
Cu1 N1 1_555 1_555
N1 C1 1_555 1_555
N2 Cu1 1_555 1_555
N3 C19 1_555 1_555
N4 C24 1_555 1_555
C1 H1 1_555 1_555
C2 C1 1_555 1_555
H2 C2 1_555 1_555
C3 C2 1_555 1_555
C4 C3 1_555 1_555
H3 C4 1_555 1_555
C5 N1 1_555 1_555
H4 C5 1_555 1_555
C6 C3 1_555 1_555
H5 C6 1_555 1_555
H6 C6 1_555 1_555
C7 C6 1_555 1_555
H7 C7 1_555 1_555
H8 C7 1_555 1_555
C8 C7 1_555 1_555
H9 C8 1_555 1_555
H10 C8 1_555 1_555
C9 N2 1_555 1_555
H11 C9 1_555 1_555
C10 C9 1_555 1_555
H12 C10 1_555 1_555
C11 C10 1_555 1_555
C12 C11 1_555 1_555
H13 C12 1_555 1_555
C13 N2 1_555 1_555
H14 C13 1_555 1_555
C14 C11 1_555 1_555
H15 C14 1_555 1_555
H16 C14 1_555 1_555
C15 C14 1_555 1_555
H17 C15 1_555 1_555
H18 C15 1_555 1_555
C16 C15 1_555 1_555
H19 C16 1_555 1_555
H20 C16 1_555 1_555
C17 C16 1_555 1_555
C18 C17 1_555 1_555
H21 C18 1_555 1_555
C19 H22 1_555 1_555
C20 C19 1_555 1_555
H23 C20 1_555 1_555
C21 C8 1_555 1_555
C22 C21 1_555 1_555
H24 C22 1_555 1_555
C23 N3 1_555 1_555
H25 C23 1_555 1_555
C24 H26 1_555 1_555
C25 C17 1_555 1_555
H27 C25 1_555 1_555
C26 N4 1_555 1_555
H28 C26 1_555 1_555
O1 C27 1_555 1_555
O2 C27 1_555 1_555
C27 C28 1_555 1_555
C28 C29 1_555 1_555
C29 H29 1_555 1_555
C30 C28 1_555 1_555
H30 C30 1_555 1_555
O3 C31 1_555 1_555
O4 C31 1_555 1_555
C31 C32 1_555 1_555
C32 C33 1_555 1_555
C33 H31 1_555 1_555
C34 C32 1_555 1_555
H32 C34 1_555 1_555
O5 Cu1 1_555 1_555
H33 O5 1_555 1_555
H34 O5 1_555 1_555
O6 Cu1 1_555 1_555
H35 O6 1_555 1_555
H36 O6 1_555 1_555
O7 H37 1_555 1_555
H38 O7 1_555 1_555
O8 H39 1_555 1_555
H40 O8 1_555 1_555
O9 H41 1_555 1_555
H42 O9 1_555 1_555
O10 H43 1_555 1_555
H44 O10 1_555 1_555
O11 H45 1_555 1_555
H46 O11 1_555 1_555
O12 H47 1_555 1_555
H48 O12 1_555 1_555
O13 H49 1_555 1_555
H50 O13 1_555 1_555
Cu1C N4 1_555 1_555
Cu1C_2 N3 1_555 1_555
N3C Cu1 1_555 1_555
N4C Cu1 1_555 1_555
O1B C27B 1_555 1_555
O2B C27B 1_555 1_555
C27B C28B 1_555 1_555
C28B C29B 1_555 1_555
C29B C30 1_555 1_555
H29B C29B 1_555 1_555
C30B C29 1_555 1_555
H30B C30B 1_555 1_555
O3B C31B 1_555 1_555
O4B C31B 1_555 1_555
C31B C32B 1_555 1_555
C32B C33B 1_555 1_555
C33B C34 1_555 1_555
H31B C33B 1_555 1_555
C34B C33 1_555 1_555
H32B C34B 1_555 1_555
C4 C5 1_555 1_555
C12 C13 1_555 1_555
C18 C26 1_555 1_555
C20 C21 1_555 1_555
C22 C23 1_555 1_555
C24 C25 1_555 1_555
C28B C30B 1_555 1_555
C32B C34B 1_555 1_555

#END
