
#######################################################################
#
#                 Cambridge Crystallographic Data Centre
#                                CCDC 
#
#######################################################################
#
# If this CIF has been generated from an entry in the Cambridge 
# Structural Database, then it will include bibliographic, chemical, 
# crystal, experimental, refinement or atomic coordinate data resulting 
# from the CCDC's data processing and validation procedures.
#
#######################################################################

data_OTATOT
_symmetry_cell_setting           orthorhombic
_symmetry_space_group_name_H-M   'P c c n'
_symmetry_Int_Tables_number      56
_space_group_name_Hall           '-P 2ab 2ac'
loop_
_symmetry_equiv_pos_site_id
_symmetry_equiv_pos_as_xyz
1 x,y,z
2 1/2-x,1/2-y,z
3 -x,1/2+y,1/2-z
4 1/2+x,-y,1/2-z
5 -x,-y,-z
6 1/2+x,1/2+y,-z
7 x,1/2-y,1/2+z
8 1/2-x,y,1/2+z
_cell_length_a                   17.7423(5)
_cell_length_b                   19.7457(5)
_cell_length_c                   10.0389(3)
_cell_angle_alpha                90
_cell_angle_beta                 90
_cell_angle_gamma                90
_cell_volume                     3516.97
loop_
_atom_site_label
_atom_site_type_symbol
_atom_site_fract_x
_atom_site_fract_y
_atom_site_fract_z
O1 O 0.21973(9) 0.67141(8) 0.62685(17)
Tb1 Tb 0.2500 0.7500 0.968620(15)
C1 C 0.20450(12) 0.63659(11) 0.7280(2)
C2 C 0.19288(12) 0.56196(11) 0.7048(2)
C3 C 0.15409(14) 0.52241(12) 0.7966(3)
H1 H 0.1368 0.5413 0.8758
C4 C 0.14145(17) 0.45453(14) 0.7690(3)
H2 H 0.1146 0.4281 0.8292
C5 C 0.21967(14) 0.53235(12) 0.5892(3)
H3 H 0.2461 0.5584 0.5278
C6 C 0.20743(16) 0.46442(13) 0.5644(3)
H4 H 0.2259 0.4449 0.4868
C7 C 0.16824(16) 0.42593(13) 0.6537(3)
H5 H 0.1597 0.3803 0.6363
C8 C 0.43682(14) 0.64528(12) 1.0033(3)
H6 H 0.4377 0.6855 1.0516
C9 C 0.43802(13) 0.52938(11) 0.8582(3)
H7 H 0.4384 0.4906 0.8057
C10 C 0.47864(13) 0.52990(11) 0.9758(2)
C11 C 0.39727(14) 0.58452(12) 0.8170(3)
H8 H 0.3705 0.5827 0.7374
C12 C 0.47745(14) 0.59010(12) 1.0471(3)
H9 H 0.5046 0.5933 1.1260
N1 N 0.39598(10) 0.64111(9) 0.89115(19)
O2 O 0.19829(9) 0.65990(8) 0.84359(18)
O3 O 0.35540(8) 0.69477(7) 0.85085(17)
O4 O 0.36614(10) 0.78461(9) 1.0785(2)
H16 H 0.3630(12) 0.7893(13) 1.1567(17)
H17 H 0.3954(13) 0.8138(11) 1.053(3)
O1G O 0.28027(9) 0.67141(8) 1.12685(17)
O1F O 0.21973(9) 0.82859(8) 1.12685(17)
O1A O 0.28027(9) 0.82859(8) 0.62685(17)
Tb1F Tb 0.2500 0.7500 0.468620(15)
Tb1D Tb 0.7500 0.2500 1.031380(15)
C1A C 0.29550(12) 0.86341(11) 0.7280(2)
C2A C 0.30712(12) 0.93804(11) 0.7048(2)
C3A C 0.34591(14) 0.97759(12) 0.7966(3)
H1A H 0.3632 0.9587 0.8758
C4A C 0.35855(17) 1.04547(14) 0.7690(3)
H2A H 0.3854 1.0719 0.8292
C5A C 0.28033(14) 0.96765(12) 0.5892(3)
H3A H 0.2539 0.9416 0.5278
C6A C 0.29257(16) 1.03558(13) 0.5644(3)
H4A H 0.2741 1.0551 0.4868
C7A C 0.33176(16) 1.07407(13) 0.6537(3)
H5A H 0.3403 1.1197 0.6363
C8D C 0.56318(14) 0.35472(12) 0.9967(3)
H6D H 0.5623 0.3145 0.9484
C9D C 0.56198(13) 0.47062(11) 1.1418(3)
H7D H 0.5616 0.5094 1.1943
C10D C 0.52136(13) 0.47010(11) 1.0242(2)
C11D C 0.60273(14) 0.41548(12) 1.1830(3)
H8D H 0.6295 0.4173 1.2626
C12D C 0.52255(14) 0.40990(12) 0.9529(3)
H9D H 0.4954 0.4067 0.8740
N1D N 0.60402(10) 0.35889(9) 1.10885(19)
O2A O 0.30171(9) 0.84010(8) 0.84359(18)
O3D O 0.64460(8) 0.30523(7) 1.14915(17)
O3A O 0.14460(8) 0.80523(7) 0.85085(17)
O4A O 0.13386(10) 0.71539(9) 1.0785(2)
H16A H 0.1370(12) 0.7107(13) 1.1567(17)
H17A H 0.1046(13) 0.6862(11) 1.053(3)
C13 C 0.01566(16) 0.39874(14) 0.0550(3)
C14 C 0.05533(14) 0.34891(13) 0.1422(3)
C15 C 0.01877(17) 0.28942(15) 0.1802(3)
H10 H -0.0290 0.2800 0.1468
C16 C 0.12699(16) 0.36174(16) 0.1919(3)
H11 H 0.1518 0.4014 0.1683
C17 C 0.1616(2) 0.3162(2) 0.2759(4)
H12 H 0.2103 0.3244 0.3061
C18 C 0.0524(2) 0.24457(16) 0.2662(4)
H13 H 0.0273 0.2053 0.2915
C19 C 0.1239(2) 0.25815(18) 0.3153(5)
H14 H 0.1466 0.2283 0.3747
O5 O 0.03914(11) 0.46024(9) 0.0656(2)
H15 H 0.0150 0.4846 0.0151
O6 O -0.03642(13) 0.38192(11) -0.0185(2)
loop_
_geom_bond_atom_site_label_1
_geom_bond_atom_site_label_2
_geom_bond_site_symmetry_1
_geom_bond_site_symmetry_2
O1 C1 1_555 1_555
Tb1 O2 1_555 1_555
C1 C2 1_555 1_555
C2 C3 1_555 1_555
C3 H1 1_555 1_555
C4 C3 1_555 1_555
H2 C4 1_555 1_555
C5 C2 1_555 1_555
H3 C5 1_555 1_555
C6 C5 1_555 1_555
H4 C6 1_555 1_555
C7 C4 1_555 1_555
H5 C7 1_555 1_555
C8 H6 1_555 1_555
C9 H7 1_555 1_555
C10 C9 1_555 1_555
C11 C9 1_555 1_555
H8 C11 1_555 1_555
C12 C8 1_555 1_555
H9 C12 1_555 1_555
N1 C8 1_555 1_555
C13 C14 1_555 1_555
C14 C15 1_555 1_555
C15 H10 1_555 1_555
C16 C14 1_555 1_555
H11 C16 1_555 1_555
C17 C16 1_555 1_555
H12 C17 1_555 1_555
C18 C15 1_555 1_555
H13 C18 1_555 1_555
C19 C17 1_555 1_555
H14 C19 1_555 1_555
O2 C1 1_555 1_555
O3 Tb1 1_555 1_555
O4 Tb1 1_555 1_555
O5 C13 1_555 1_555
H15 O5 1_555 1_555
O6 C13 1_555 1_555
H16 O4 1_555 1_555
H17 O4 1_555 1_555
O1G Tb1 1_555 1_555
O1F Tb1 1_555 1_555
O1A Tb1F 1_555 1_555
Tb1F O1 1_555 1_555
Tb1D O3D 1_555 1_555
C1A O1A 1_555 1_555
C2A C1A 1_555 1_555
C3A C2A 1_555 1_555
H1A C3A 1_555 1_555
C4A C3A 1_555 1_555
H2A C4A 1_555 1_555
C5A C2A 1_555 1_555
H3A C5A 1_555 1_555
C6A C5A 1_555 1_555
H4A C6A 1_555 1_555
C7A C4A 1_555 1_555
H5A C7A 1_555 1_555
C8D H6D 1_555 1_555
C9D H7D 1_555 1_555
C10D C10 1_555 1_555
C11D C9D 1_555 1_555
H8D C11D 1_555 1_555
C12D C8D 1_555 1_555
H9D C12D 1_555 1_555
N1D C8D 1_555 1_555
O2A Tb1 1_555 1_555
O3D N1D 1_555 1_555
O3A Tb1 1_555 1_555
O4A Tb1 1_555 1_555
H16A O4A 1_555 1_555
H17A O4A 1_555 1_555
C6 C7 1_555 1_555
C10 C12 1_555 1_555
C11 N1 1_555 1_555
N1 O3 1_555 1_555
C18 C19 1_555 1_555
C1A O2A 1_555 1_555
C6A C7A 1_555 1_555
C9D C10D 1_555 1_555
C10D C12D 1_555 1_555
C11D N1D 1_555 1_555

#END
