
#######################################################################
#
#                 Cambridge Crystallographic Data Centre
#                                CCDC 
#
#######################################################################
#
# If this CIF has been generated from an entry in the Cambridge 
# Structural Database, then it will include bibliographic, chemical, 
# crystal, experimental, refinement or atomic coordinate data resulting 
# from the CCDC's data processing and validation procedures.
#
#######################################################################

data_OTAVAH
_symmetry_cell_setting           orthorhombic
_symmetry_space_group_name_H-M   'P n a a'
_symmetry_Int_Tables_number      56
_space_group_name_Hall           '-P 2ac 2bc'
loop_
_symmetry_equiv_pos_site_id
_symmetry_equiv_pos_as_xyz
1 x,y,z
2 1/2-x,-y,1/2+z
3 x,1/2-y,1/2-z
4 1/2-x,1/2+y,-z
5 -x,-y,-z
6 1/2+x,y,1/2-z
7 -x,1/2+y,1/2+z
8 1/2+x,1/2-y,z
_cell_length_a                   10.040
_cell_length_b                   17.788
_cell_length_c                   19.786
_cell_angle_alpha                90
_cell_angle_beta                 90
_cell_angle_gamma                90
_cell_volume                     3533.61
loop_
_atom_site_label
_atom_site_type_symbol
_atom_site_fract_x
_atom_site_fract_y
_atom_site_fract_z
C1 C 0.7701(5) 0.7956(3) 0.6369(3)
O1 O 0.6475(3) 0.8551(2) 0.80575(17)
O2 O 0.6550(4) 0.8018(2) 0.65915(17)
C2 C 0.5235(6) 0.9786(3) 0.9692(3)
O3 O 0.8703(4) 0.7802(2) 0.67189(18)
N1 N 0.6070(5) 0.8974(3) 0.8585(2)
C3 C 0.7939(5) 0.8070(3) 0.5618(3)
C4 C 0.7300(7) 0.8583(4) 0.4546(3)
H1 H 0.6698 0.8851 0.4283
C5 C 0.6823(6) 0.8982(4) 0.9165(3)
H2 H 0.7614 0.8710 0.9185
C6 C 0.6421(7) 0.9378(3) 0.9700(3)
H3 H 0.6945 0.9382 1.0088
C7 C 0.7028(6) 0.8458(3) 0.5223(3)
H4 H 0.6239 0.8634 0.5411
C8 C 0.9349(7) 0.7930(4) 0.4646(3)
H5 H 1.0129 0.7749 0.4451
C9 C 0.9102(6) 0.7809(3) 0.5331(3)
H6 H 0.9721 0.7552 0.5594
C10 C 0.8447(8) 0.8314(4) 0.4259(3)
H7 H 0.8613 0.8393 0.3802
Gd1 Gd 0.53047(3) 0.7500 0.7500
C15 C 0.4546(6) 0.9784(3) 0.9099(3)
H10 H 0.3768 1.0066 0.9064
C16 C 0.4974(6) 0.9374(3) 0.8550(3)
H11 H 0.4483 0.9381 0.8151
O6 O 0.4189(5) 0.8664(3) 0.7156(2)
H15 H 0.325(8) 0.868(4) 0.708(4)
H16 H 0.440(5) 0.886(3) 0.690(2)
C1B C 0.7701(5) 0.7044(3) 0.8631(3)
O1D O 0.3525(3) 1.1449(2) 1.19425(17)
O1B O 0.6475(3) 0.6449(2) 0.69425(17)
O2B O 0.6550(4) 0.6982(2) 0.84085(17)
C2D C 0.4765(6) 1.0214(3) 1.0308(3)
O3B O 0.8703(4) 0.7198(2) 0.82811(18)
O3E O 0.3703(4) 0.7802(2) 0.82811(18)
O3G O 0.3703(4) 0.7198(2) 0.67189(18)
N1D N 0.3930(5) 1.1026(3) 1.1415(2)
C3B C 0.7939(5) 0.6930(3) 0.9382(3)
C4B C 0.7300(7) 0.6417(4) 1.0454(3)
H1B H 0.6698 0.6149 1.0717
C5D C 0.3177(6) 1.1018(4) 1.0835(3)
H2D H 0.2386 1.1290 1.0815
C6D C 0.3579(7) 1.0622(3) 1.0300(3)
H3D H 0.3055 1.0618 0.9912
C7B C 0.7028(6) 0.6542(3) 0.9777(3)
H4B H 0.6239 0.6366 0.9589
C8B C 0.9349(7) 0.7070(4) 1.0354(3)
H5B H 1.0129 0.7251 1.0549
C9B C 0.9102(6) 0.7191(3) 0.9669(3)
H6B H 0.9721 0.7448 0.9406
C10B C 0.8447(8) 0.6686(4) 1.0741(3)
H7B H 0.8613 0.6607 1.1198
Gd1E Gd 1.03047(3) 0.7500 0.7500
Gd1D Gd 0.46953(3) 1.2500 1.2500
C15D C 0.5454(6) 1.0216(3) 1.0901(3)
H10D H 0.6232 0.9934 1.0936
C16D C 0.5026(6) 1.0626(3) 1.1450(3)
H11D H 0.5517 1.0619 1.1849
O6B O 0.4189(5) 0.6336(3) 0.7844(2)
H15B H 0.325(8) 0.632(4) 0.792(4)
H16B H 0.440(5) 0.614(3) 0.810(2)
O4 O 1.0179(5) 0.4639(3) 0.3815(2)
C11 C 0.8551(7) 0.5551(3) 0.3493(3)
C12 C 0.9437(6) 0.5156(4) 0.3990(3)
O5 O 0.9343(4) 0.5381(3) 0.4613(2)
C13 C 0.7344(8) 0.5527(5) 0.2457(4)
H8 H 0.7098 0.5276 0.2065
C14 C 0.8195(7) 0.5190(4) 0.2901(3)
H9 H 0.8536 0.4716 0.2806
C17 C 0.8068(8) 0.6262(4) 0.3620(4)
H12 H 0.8313 0.6509 0.4015
C18 C 0.6842(10) 0.6238(5) 0.2583(4)
H13 H 0.6256 0.6463 0.2281
C19 C 0.7229(10) 0.6609(5) 0.3171(5)
H14 H 0.6919 0.7091 0.3259
loop_
_geom_bond_atom_site_label_1
_geom_bond_atom_site_label_2
_geom_bond_site_symmetry_1
_geom_bond_site_symmetry_2
C1 O2 1_555 1_555
O1 N1 1_555 1_555
O2 Gd1 1_555 1_555
C2 C6 1_555 1_555
O3 C1 1_555 1_555
N1 C5 1_555 1_555
C3 C1 1_555 1_555
C4 H1 1_555 1_555
C5 H2 1_555 1_555
C6 C5 1_555 1_555
H3 C6 1_555 1_555
C7 C3 1_555 1_555
H4 C7 1_555 1_555
C8 H5 1_555 1_555
C9 C3 1_555 1_555
H6 C9 1_555 1_555
C10 C4 1_555 1_555
H7 C10 1_555 1_555
O4 C12 1_555 1_555
C11 C12 1_555 1_555
C12 O5 1_555 1_555
C13 H8 1_555 1_555
C14 C11 1_555 1_555
H9 C14 1_555 1_555
Gd1 O1 1_555 1_555
C15 C2 1_555 1_555
H10 C15 1_555 1_555
C16 N1 1_555 1_555
H11 C16 1_555 1_555
O6 Gd1 1_555 1_555
C17 C11 1_555 1_555
H12 C17 1_555 1_555
C18 C13 1_555 1_555
H13 C18 1_555 1_555
C19 C17 1_555 1_555
H14 C19 1_555 1_555
H15 O6 1_555 1_555
H16 O6 1_555 1_555
C1B O2B 1_555 1_555
O1D N1D 1_555 1_555
O1B Gd1 1_555 1_555
O2B Gd1 1_555 1_555
C2D C2 1_555 1_555
O3B C1B 1_555 1_555
O3E Gd1 1_555 1_555
O3G Gd1 1_555 1_555
N1D C5D 1_555 1_555
C3B C1B 1_555 1_555
C4B H1B 1_555 1_555
C5D H2D 1_555 1_555
C6D C2D 1_555 1_555
H3D C6D 1_555 1_555
C7B C3B 1_555 1_555
H4B C7B 1_555 1_555
C8B H5B 1_555 1_555
C9B C3B 1_555 1_555
H6B C9B 1_555 1_555
C10B C4B 1_555 1_555
H7B C10B 1_555 1_555
Gd1E O3 1_555 1_555
Gd1D O1D 1_555 1_555
C15D C2D 1_555 1_555
H10D C15D 1_555 1_555
C16D N1D 1_555 1_555
H11D C16D 1_555 1_555
O6B Gd1 1_555 1_555
H15B O6B 1_555 1_555
H16B O6B 1_555 1_555
C4 C7 1_555 1_555
C8 C9 1_555 1_555
C8 C10 1_555 1_555
C13 C14 1_555 1_555
C15 C16 1_555 1_555
C18 C19 1_555 1_555
O3B Gd1E 1_555 1_555
C4B C7B 1_555 1_555
C5D C6D 1_555 1_555
C8B C9B 1_555 1_555
C8B C10B 1_555 1_555
C15D C16D 1_555 1_555

#END
