
#######################################################################
#
#                 Cambridge Crystallographic Data Centre
#                                CCDC 
#
#######################################################################
#
# If this CIF has been generated from an entry in the Cambridge 
# Structural Database, then it will include bibliographic, chemical, 
# crystal, experimental, refinement or atomic coordinate data resulting 
# from the CCDC's data processing and validation procedures.
#
#######################################################################

data_OTAVOV
_symmetry_cell_setting           orthorhombic
_symmetry_space_group_name_H-M   'P n a a'
_symmetry_Int_Tables_number      56
_space_group_name_Hall           '-P 2ac 2bc'
loop_
_symmetry_equiv_pos_site_id
_symmetry_equiv_pos_as_xyz
1 x,y,z
2 1/2-x,-y,1/2+z
3 x,1/2-y,1/2-z
4 1/2-x,1/2+y,-z
5 -x,-y,-z
6 1/2+x,y,1/2-z
7 -x,1/2+y,1/2+z
8 1/2+x,1/2-y,z
_cell_length_a                   10.139
_cell_length_b                   17.804
_cell_length_c                   20.010
_cell_angle_alpha                90
_cell_angle_beta                 90
_cell_angle_gamma                90
_cell_volume                     3612.1
loop_
_atom_site_label
_atom_site_type_symbol
_atom_site_fract_x
_atom_site_fract_y
_atom_site_fract_z
La1 La 1.03061(8) 0.2500 0.2500
O1 O 1.1483(7) 0.1403(4) 0.3069(4)
O2 O 0.8627(7) 0.2184(4) 0.3302(4)
N1 N 1.1098(9) 0.0994(5) 0.3597(5)
O3 O 0.6484(7) 0.1956(5) 0.3481(4)
C1 C 0.7925(10) 0.1923(6) 0.4406(5)
C2 C 0.9981(10) 0.0607(7) 0.3562(6)
H1 H 0.9502 0.0598 0.3166
C3 C 0.7046(12) 0.1529(7) 0.4803(6)
H2 H 0.6256 0.1349 0.4629
C4 C 1.0241(11) 0.0211(6) 0.4707(6)
C5 C 1.1413(11) 0.0601(7) 0.4699(6)
H3 H 1.1939 0.0593 0.5080
C6 C 0.9526(11) 0.0214(7) 0.4118(6)
H4 H 0.8735 -0.0049 0.4093
C7 C 0.9120(11) 0.2198(7) 0.4680(6)
H5 H 0.9714 0.2461 0.4414
C8 C 0.7380(14) 0.1412(8) 0.5470(7)
H6 H 0.6812 0.1144 0.5746
C9 C 1.1833(11) 0.0997(7) 0.4159(6)
H7 H 1.2617 0.1267 0.4177
C10 C 0.8549(15) 0.1690(9) 0.5726(7)
H8 H 0.8753 0.1608 0.6173
C11 C 0.9390(13) 0.2074(9) 0.5345(7)
H9 H 1.0167 0.2258 0.5530
H11 H 0.8341 0.1281 0.2188
H12 H 0.9431 0.1131 0.1803
C19 C 0.7644(9) 0.2028(6) 0.3672(6)
O6 O 0.9151(7) 0.1277(5) 0.2159(4)
La1D La 0.96939(8) -0.2500 0.7500
La1E La 0.53061(8) 0.2500 0.2500
O1D O 0.8517(7) -0.1403(4) 0.6931(4)
O1B O 1.1483(7) 0.3597(4) 0.1931(4)
O2B O 0.8627(7) 0.2816(4) 0.1698(4)
N1D N 0.8902(9) -0.0994(5) 0.6403(5)
O3B O 0.6484(7) 0.3044(5) 0.1519(4)
O3E O 1.1484(7) 0.1956(5) 0.1519(4)
O3G O 1.1484(7) 0.3044(5) 0.3481(4)
C1B C 0.7925(10) 0.3077(6) 0.0594(5)
C2D C 1.0019(10) -0.0607(7) 0.6438(6)
H1D H 1.0498 -0.0598 0.6834
C3B C 0.7046(12) 0.3471(7) 0.0197(6)
H2B H 0.6256 0.3651 0.0371
C4D C 0.9759(11) -0.0211(6) 0.5293(6)
C5D C 0.8587(11) -0.0601(7) 0.5301(6)
H3D H 0.8061 -0.0593 0.4920
C6D C 1.0474(11) -0.0214(7) 0.5882(6)
H4D H 1.1265 0.0049 0.5907
C7B C 0.9120(11) 0.2802(7) 0.0320(6)
H5B H 0.9714 0.2539 0.0586
C8B C 0.7380(14) 0.3588(8) -0.0470(7)
H6B H 0.6812 0.3856 -0.0746
C9D C 0.8167(11) -0.0997(7) 0.5841(6)
H7D H 0.7383 -0.1267 0.5823
C10B C 0.8549(15) 0.3310(9) -0.0726(7)
H8B H 0.8753 0.3392 -0.1173
C11B C 0.9390(13) 0.2926(9) -0.0345(7)
H9B H 1.0167 0.2742 -0.0530
H11B H 0.8341 0.3719 0.2812
H12B H 0.9431 0.3869 0.3197
C19B C 0.7644(9) 0.2972(6) 0.1328(6)
O6B O 0.9151(7) 0.3723(5) 0.2841(4)
O4 O 0.0659(9) 0.5386(6) 0.4608(4)
H10 H 0.0381 0.5063 0.4864
O5 O -0.0204(9) 0.4658(6) 0.3838(5)
C12 C 0.1772(13) 0.5215(8) 0.2922(7)
H13 H 0.1443 0.4740 0.2826
C13 C 0.0534(11) 0.5161(8) 0.4008(7)
C14 C 0.1408(13) 0.5561(8) 0.3517(7)
C15 C 0.2608(16) 0.5555(10) 0.2467(9)
H14 H 0.2829 0.5317 0.2068
C16 C 0.1895(17) 0.6263(9) 0.3645(8)
H15 H 0.1663 0.6508 0.4038
C17 C 0.274(2) 0.6615(10) 0.3191(10)
H16 H 0.3045 0.7097 0.3281
C18 C 0.311(2) 0.6264(11) 0.2620(9)
H17 H 0.3703 0.6495 0.2331
loop_
_geom_bond_atom_site_label_1
_geom_bond_atom_site_label_2
_geom_bond_site_symmetry_1
_geom_bond_site_symmetry_2
La1 O1 1_555 1_555
O1 N1 1_555 1_555
O2 La1 1_555 1_555
N1 C2 1_555 1_555
O3 C19 1_555 1_555
C1 C3 1_555 1_555
C2 H1 1_555 1_555
C3 H2 1_555 1_555
C4 C5 1_555 1_555
C5 H3 1_555 1_555
C6 C2 1_555 1_555
H4 C6 1_555 1_555
C7 C1 1_555 1_555
H5 C7 1_555 1_555
C8 C3 1_555 1_555
H6 C8 1_555 1_555
C9 N1 1_555 1_555
H7 C9 1_555 1_555
C10 C8 1_555 1_555
H8 C10 1_555 1_555
C11 C7 1_555 1_555
H9 C11 1_555 1_555
O4 H10 1_555 1_555
H11 O6 1_555 1_555
H12 O6 1_555 1_555
O5 C13 1_555 1_555
C12 H13 1_555 1_555
C13 O4 1_555 1_555
C14 C12 1_555 1_555
C15 C12 1_555 1_555
H14 C15 1_555 1_555
C16 C14 1_555 1_555
H15 C16 1_555 1_555
C17 C16 1_555 1_555
H16 C17 1_555 1_555
C18 C15 1_555 1_555
H17 C18 1_555 1_555
C19 O2 1_555 1_555
O6 La1 1_555 1_555
La1D O1D 1_555 1_555
La1E O3 1_555 1_555
O1D N1D 1_555 1_555
O1B La1 1_555 1_555
O2B La1 1_555 1_555
N1D C2D 1_555 1_555
O3B La1E 1_555 1_555
O3E La1 1_555 1_555
O3G La1 1_555 1_555
C1B C3B 1_555 1_555
C2D H1D 1_555 1_555
C3B H2B 1_555 1_555
C4D C4 1_555 1_555
C5D C4D 1_555 1_555
H3D C5D 1_555 1_555
C6D C2D 1_555 1_555
H4D C6D 1_555 1_555
C7B C1B 1_555 1_555
H5B C7B 1_555 1_555
C8B C3B 1_555 1_555
H6B C8B 1_555 1_555
C9D N1D 1_555 1_555
H7D C9D 1_555 1_555
C10B C8B 1_555 1_555
H8B C10B 1_555 1_555
C11B C7B 1_555 1_555
H9B C11B 1_555 1_555
H11B O6B 1_555 1_555
H12B O6B 1_555 1_555
C19B O2B 1_555 1_555
O6B La1 1_555 1_555
C1 C19 1_555 1_555
C4 C6 1_555 1_555
C5 C9 1_555 1_555
C10 C11 1_555 1_555
C13 C14 1_555 1_555
C17 C18 1_555 1_555
O3B C19B 1_555 1_555
C1B C19B 1_555 1_555
C4D C6D 1_555 1_555
C5D C9D 1_555 1_555
C10B C11B 1_555 1_555

#END
