
#######################################################################
#
#                 Cambridge Crystallographic Data Centre
#                                CCDC 
#
#######################################################################
#
# If this CIF has been generated from an entry in the Cambridge 
# Structural Database, then it will include bibliographic, chemical, 
# crystal, experimental, refinement or atomic coordinate data resulting 
# from the CCDC's data processing and validation procedures.
#
#######################################################################

data_OTAVUB
_symmetry_cell_setting           orthorhombic
_symmetry_space_group_name_H-M   'P c c n'
_symmetry_Int_Tables_number      56
_space_group_name_Hall           '-P 2ab 2ac'
loop_
_symmetry_equiv_pos_site_id
_symmetry_equiv_pos_as_xyz
1 x,y,z
2 1/2-x,1/2-y,z
3 -x,1/2+y,1/2-z
4 1/2+x,-y,1/2-z
5 -x,-y,-z
6 1/2+x,1/2+y,-z
7 x,1/2-y,1/2+z
8 1/2-x,y,1/2+z
_cell_length_a                   17.7412(8)
_cell_length_b                   19.8116(7)
_cell_length_c                   10.0546(3)
_cell_angle_alpha                90
_cell_angle_beta                 90
_cell_angle_gamma                90
_cell_volume                     3534.01
loop_
_atom_site_label
_atom_site_type_symbol
_atom_site_fract_x
_atom_site_fract_y
_atom_site_fract_z
Eu1 Eu 0.2500 0.2500 0.468408(19)
O1 O 0.19754(15) 0.15958(12) 0.3429(2)
O2 O 0.14386(14) 0.30597(11) 0.3508(2)
N1 N 0.10342(15) 0.35915(13) 0.3907(3)
C1 C 0.20427(19) 0.13590(16) 0.2280(3)
C2 C 0.1923(2) 0.06180(16) 0.2064(3)
C3 C 0.1412(3) -0.0457(2) 0.2683(5)
H2 H 0.1143 -0.0721 0.3284
C4 C 0.1540(2) 0.02241(19) 0.2958(4)
H3 H 0.1365 0.0411 0.3748
C5 C 0.2191(2) 0.03255(19) 0.0888(4)
H4 H 0.2445 0.0589 0.0267
C6 C 0.2079(3) -0.0353(2) 0.0646(5)
H5 H 0.2275 -0.0549 -0.0120
C7 C 0.1680(3) -0.0738(2) 0.1536(5)
H6 H 0.1592 -0.1192 0.1357
C15 C 0.02103(19) 0.47020(16) 0.4761(3)
C16 C 0.0624(2) 0.35512(18) 0.5029(3)
H12 H 0.0614 0.3151 0.5513
C17 C 0.1021(2) 0.41571(18) 0.3174(3)
H13 H 0.1292 0.4175 0.2382
C18 C 0.0616(2) 0.47069(18) 0.3577(4)
H14 H 0.0612 0.5092 0.3049
C19 C 0.0221(2) 0.41008(18) 0.5462(4)
H15 H -0.0053 0.4068 0.6249
O5 O 0.13242(15) 0.21566(14) 0.5799(3)
O6 O 0.21970(15) 0.17027(12) 0.1281(2)
H16 H 0.132(2) 0.2139(19) 0.658(4)
H17 H 0.104(2) 0.1843(19) 0.553(4)
Eu1D Eu -0.2500 0.7500 0.531592(19)
Eu1F Eu 0.2500 0.2500 -0.031592(19)
O1A O 0.30246(15) 0.34042(12) 0.3429(2)
O2D O -0.14386(14) 0.69403(11) 0.6492(2)
O2A O 0.35614(14) 0.19403(11) 0.3508(2)
N1D N -0.10342(15) 0.64085(13) 0.6093(3)
C1A C 0.29573(19) 0.36410(16) 0.2280(3)
C2A C 0.3077(2) 0.43820(16) 0.2064(3)
C3A C 0.3588(3) 0.5457(2) 0.2683(5)
H2A H 0.3857 0.5721 0.3284
C4A C 0.3460(2) 0.47759(19) 0.2958(4)
H3A H 0.3635 0.4589 0.3748
C5A C 0.2809(2) 0.46745(19) 0.0888(4)
H4A H 0.2555 0.4411 0.0267
C6A C 0.2921(3) 0.5353(2) 0.0646(5)
H5A H 0.2725 0.5549 -0.0120
C7A C 0.3320(3) 0.5738(2) 0.1536(5)
H6A H 0.3408 0.6192 0.1357
C15D C -0.02103(19) 0.52980(16) 0.5239(3)
C16D C -0.0624(2) 0.64488(18) 0.4971(3)
H12D H -0.0614 0.6849 0.4487
C17D C -0.1021(2) 0.58429(18) 0.6826(3)
H13D H -0.1292 0.5825 0.7618
C18D C -0.0616(2) 0.52931(18) 0.6423(4)
H14D H -0.0612 0.4908 0.6951
C19D C -0.0221(2) 0.58992(18) 0.4538(4)
H15D H 0.0053 0.5932 0.3751
O5A O 0.36758(15) 0.28434(14) 0.5799(3)
O6A O 0.28030(15) 0.32973(12) 0.1281(2)
O6F O 0.21970(15) 0.32973(12) 0.6281(2)
O6G O 0.28030(15) 0.17027(12) 0.6281(2)
H16A H 0.368(2) 0.2861(19) 0.658(4)
H17A H 0.396(2) 0.3157(19) 0.553(4)
O3 O 0.96143(17) 0.03968(14) 0.4343(3)
H1 H 0.9855 0.0153 0.4848
O4 O 1.0361(2) 0.11784(16) 0.5192(3)
C8 C 0.9847(3) 0.1006(2) 0.4454(4)
C9 C 0.9451(2) 0.1507(2) 0.3580(4)
C10 C 0.9811(3) 0.2099(2) 0.3214(4)
H7 H 1.0287 0.2195 0.3552
C11 C 0.8386(3) 0.1830(3) 0.2243(7)
H8 H 0.7903 0.1744 0.1928
C12 C 0.8731(3) 0.1378(2) 0.3084(5)
H9 H 0.8483 0.0983 0.3325
C13 C 0.9473(3) 0.2547(3) 0.2354(5)
H10 H 0.9722 0.2939 0.2101
C14 C 0.8759(3) 0.2410(3) 0.1868(6)
H11 H 0.8530 0.2711 0.1285
loop_
_geom_bond_atom_site_label_1
_geom_bond_atom_site_label_2
_geom_bond_site_symmetry_1
_geom_bond_site_symmetry_2
Eu1 O1 1_555 1_555
O1 C1 1_555 1_555
O2 Eu1 1_555 1_555
O3 H1 1_555 1_555
O4 C8 1_555 1_555
N1 O2 1_555 1_555
C1 C2 1_555 1_555
C2 C4 1_555 1_555
C3 H2 1_555 1_555
C4 C3 1_555 1_555
H3 C4 1_555 1_555
C5 C2 1_555 1_555
H4 C5 1_555 1_555
C6 C5 1_555 1_555
H5 C6 1_555 1_555
C7 C3 1_555 1_555
H6 C7 1_555 1_555
C8 O3 1_555 1_555
C9 C8 1_555 1_555
C10 C9 1_555 1_555
H7 C10 1_555 1_555
C11 H8 1_555 1_555
C12 C9 1_555 1_555
H9 C12 1_555 1_555
C13 C10 1_555 1_555
H10 C13 1_555 1_555
C14 C11 1_555 1_555
H11 C14 1_555 1_555
C15 C18 1_555 1_555
C16 N1 1_555 1_555
H12 C16 1_555 1_555
C17 N1 1_555 1_555
H13 C17 1_555 1_555
C18 C17 1_555 1_555
H14 C18 1_555 1_555
C19 C15 1_555 1_555
H15 C19 1_555 1_555
O5 Eu1 1_555 1_555
O6 C1 1_555 1_555
H16 O5 1_555 1_555
H17 O5 1_555 1_555
Eu1D O2D 1_555 1_555
Eu1F O6 1_555 1_555
O1A Eu1 1_555 1_555
O2D N1D 1_555 1_555
O2A Eu1 1_555 1_555
N1D C16D 1_555 1_555
C1A O1A 1_555 1_555
C2A C1A 1_555 1_555
C3A H2A 1_555 1_555
C4A C2A 1_555 1_555
H3A C4A 1_555 1_555
C5A C2A 1_555 1_555
H4A C5A 1_555 1_555
C6A C5A 1_555 1_555
H5A C6A 1_555 1_555
C7A C3A 1_555 1_555
H6A C7A 1_555 1_555
C15D C15 1_555 1_555
C16D H12D 1_555 1_555
C17D N1D 1_555 1_555
H13D C17D 1_555 1_555
C18D C15D 1_555 1_555
H14D C18D 1_555 1_555
C19D C15D 1_555 1_555
H15D C19D 1_555 1_555
O5A Eu1 1_555 1_555
O6A Eu1F 1_555 1_555
O6F Eu1 1_555 1_555
O6G Eu1 1_555 1_555
H16A O5A 1_555 1_555
H17A O5A 1_555 1_555
C6 C7 1_555 1_555
C11 C12 1_555 1_555
C13 C14 1_555 1_555
C16 C19 1_555 1_555
C1A O6A 1_555 1_555
C3A C4A 1_555 1_555
C6A C7A 1_555 1_555
C16D C19D 1_555 1_555
C17D C18D 1_555 1_555

#END
