
#######################################################################
#
#                 Cambridge Crystallographic Data Centre
#                                CCDC 
#
#######################################################################
#
# If this CIF has been generated from an entry in the Cambridge 
# Structural Database, then it will include bibliographic, chemical, 
# crystal, experimental, refinement or atomic coordinate data resulting 
# from the CCDC's data processing and validation procedures.
#
#######################################################################

data_OTAXEN
_symmetry_cell_setting           monoclinic
_symmetry_space_group_name_H-M   'P 21'
_symmetry_Int_Tables_number      4
_space_group_name_Hall           'P 2yb'
loop_
_symmetry_equiv_pos_site_id
_symmetry_equiv_pos_as_xyz
1 x,y,z
2 -x,1/2+y,-z
_cell_length_a                   5.3471(3)
_cell_length_b                   35.9423(11)
_cell_length_c                   8.7245(4)
_cell_angle_alpha                90
_cell_angle_beta                 106.483(2)
_cell_angle_gamma                90
_cell_volume                     1607.83
loop_
_atom_site_label
_atom_site_type_symbol
_atom_site_fract_x
_atom_site_fract_y
_atom_site_fract_z
Sn1 Sn 0.04621(15) 0.492961(19) 1.00100(10)
S1 S 0.6944(6) 0.47088(9) 1.2816(4)
P1 P 0.4160(6) 0.51350(9) 0.7433(5)
O1 O 0.2115(16) 0.5173(2) 0.8293(11)
O2 O 0.3265(16) 0.4867(3) 0.5952(12)
H1 H 0.1680 0.4903 0.5485
O3 O 0.6660(15) 0.4974(3) 0.8406(10)
O4 O 0.624(3) 0.6282(3) 0.5933(19)
O5 O 0.8575(19) 0.6040(3) 0.4476(14)
O6 O 0.4680(14) 0.4917(3) 1.2010(10)
O7 O 0.8514(17) 0.4913(4) 1.4195(11)
O8 O 0.8471(18) 0.4588(2) 1.1758(11)
C1 C 0.022(3) 0.5424(4) 1.1231(19)
H3 H -0.1620 0.5507 1.0918
H4 H 0.0720 0.5370 1.2392
C2 C 0.188(4) 0.5737(4) 1.095(2)
H5 H 0.1174 0.5830 0.9851
H6 H 0.3668 0.5648 1.1093
H7 H 0.1896 0.5939 1.1704
C3 C 0.127(2) 0.4384(3) 0.9361(16)
H8 H 0.3010 0.4382 0.9166
H9 H 0.1350 0.4213 1.0265
C4 C -0.075(2) 0.4239(3) 0.7876(16)
H10 H -0.2480 0.4248 0.8044
H11 H -0.0327 0.3981 0.7674
H12 H -0.0728 0.4393 0.6955
C5 C 0.458(3) 0.5589(4) 0.674(2)
H13 H 0.2861 0.5682 0.6101
H14 H 0.5189 0.5754 0.7683
C6 C 0.648(3) 0.5623(4) 0.5740(18)
H15 H 0.8132 0.5497 0.6300
H16 H 0.5740 0.5495 0.4707
C7 C 0.707(2) 0.6024(4) 0.5420(18)
C8 C 0.934(3) 0.6412(4) 0.4165(19)
H17 H 0.8612 0.6592 0.4767
H18 H 0.8675 0.6465 0.3019
H19 H 1.1245 0.6430 0.4497
C9 C 0.589(2) 0.4297(3) 1.3543(14)
H20 H 0.7409 0.4150 1.4115
H21 H 0.4813 0.4153 1.2645
H22 H 0.4861 0.4361 1.4274
Sn1_2 Sn 1.04621(15) 0.492961(19) 1.00100(10)
O3_2 O -0.3340(15) 0.4974(3) 0.8406(10)
O8_2 O -0.1529(18) 0.4588(2) 1.1758(11)
Sn2 Sn 0.21084(16) 0.298995(19) 0.37281(11)
S2 S 0.5631(6) 0.32249(9) 0.0935(4)
P2 P 0.8438(6) 0.27848(9) 0.6308(5)
O9 O 0.5875(17) 0.2926(3) 0.5380(12)
O10 O 0.9335(18) 0.3067(2) 0.7710(11)
H2 H 0.9628 0.2954 0.8584
O11 O 1.0499(15) 0.2742(2) 0.5442(11)
O12 O 0.763(2) 0.1679(3) 0.8707(17)
O13 O 0.445(2) 0.1901(3) 0.9585(15)
O14 O 0.4119(19) 0.3348(2) 0.1989(12)
O15 O 0.4055(18) 0.3024(3) -0.0446(12)
O16 O 0.7894(16) 0.3012(4) 0.1772(12)
C10 C 0.137(2) 0.3536(3) 0.4375(15)
H23 H 0.1340 0.3707 0.3481
H24 H -0.0367 0.3545 0.4568
C11 C 0.347(3) 0.3668(3) 0.5898(16)
H25 H 0.3487 0.3501 0.6788
H26 H 0.3057 0.3921 0.6167
H27 H 0.5183 0.3666 0.5701
C12 C 0.235(3) 0.2502(4) 0.2447(17)
H28 H 0.1787 0.2561 0.1291
H29 H 0.4193 0.2422 0.2724
C13 C 0.075(4) 0.2188(4) 0.275(2)
H30 H 0.1055 0.2157 0.3904
H31 H 0.1240 0.1959 0.2296
H32 H -0.1101 0.2240 0.2249
C14 C 0.821(3) 0.2331(3) 0.7134(19)
H33 H 0.7765 0.2147 0.6251
H34 H 0.9940 0.2262 0.7852
C15 C 0.621(2) 0.2304(3) 0.8057(19)
H35 H 0.6575 0.2497 0.8898
H36 H 0.4455 0.2351 0.7325
C16 C 0.625(3) 0.1932(3) 0.8807(16)
C17 C 0.436(4) 0.1550(4) 1.042(2)
H37 H 0.4736 0.1343 0.9798
H38 H 0.2613 0.1518 1.0563
H39 H 0.5654 0.1556 1.1475
C18 C 0.674(2) 0.3625(4) 0.0214(17)
H40 H 0.7870 0.3555 -0.0450
H41 H 0.7733 0.3777 0.1115
H42 H 0.5250 0.3768 -0.0428
Sn2_2 Sn 1.21084(16) 0.298995(19) 0.37281(11)
O11_2 O 0.0499(15) 0.2742(2) 0.5442(11)
O16_2 O -0.2106(16) 0.3012(4) 0.1772(12)
loop_
_geom_bond_atom_site_label_1
_geom_bond_atom_site_label_2
_geom_bond_site_symmetry_1
_geom_bond_site_symmetry_2
Sn1 O1 1_555 1_555
Sn2 O9 1_555 1_555
S1 O6 1_555 1_555
S2 O14 1_555 1_555
P1 O1 1_555 1_555
P2 O9 1_555 1_555
O2 P1 1_555 1_555
H1 O2 1_555 1_555
O3 P1 1_555 1_555
O4 C7 1_555 1_555
O5 C7 1_555 1_555
O6 Sn1 1_555 1_555
O7 S1 1_555 1_555
O8 S1 1_555 1_555
O10 P2 1_555 1_555
H2 O10 1_555 1_555
O11 P2 1_555 1_555
O12 C16 1_555 1_555
O13 C16 1_555 1_555
O14 Sn2 1_555 1_555
O15 S2 1_555 1_555
O16 S2 1_555 1_555
C1 Sn1 1_555 1_555
H3 C1 1_555 1_555
H4 C1 1_555 1_555
C2 C1 1_555 1_555
H5 C2 1_555 1_555
H6 C2 1_555 1_555
H7 C2 1_555 1_555
C3 Sn1 1_555 1_555
H8 C3 1_555 1_555
H9 C3 1_555 1_555
C4 C3 1_555 1_555
H10 C4 1_555 1_555
H11 C4 1_555 1_555
H12 C4 1_555 1_555
C5 P1 1_555 1_555
H13 C5 1_555 1_555
H14 C5 1_555 1_555
C6 C5 1_555 1_555
H15 C6 1_555 1_555
H16 C6 1_555 1_555
C7 C6 1_555 1_555
C8 O5 1_555 1_555
H17 C8 1_555 1_555
H18 C8 1_555 1_555
H19 C8 1_555 1_555
C9 S1 1_555 1_555
H20 C9 1_555 1_555
H21 C9 1_555 1_555
H22 C9 1_555 1_555
C10 Sn2 1_555 1_555
H23 C10 1_555 1_555
H24 C10 1_555 1_555
C11 C10 1_555 1_555
H25 C11 1_555 1_555
H26 C11 1_555 1_555
H27 C11 1_555 1_555
C12 Sn2 1_555 1_555
H28 C12 1_555 1_555
H29 C12 1_555 1_555
C13 C12 1_555 1_555
H30 C13 1_555 1_555
H31 C13 1_555 1_555
H32 C13 1_555 1_555
C14 P2 1_555 1_555
H33 C14 1_555 1_555
H34 C14 1_555 1_555
C15 C14 1_555 1_555
H35 C15 1_555 1_555
H36 C15 1_555 1_555
C16 C15 1_555 1_555
C17 O13 1_555 1_555
H37 C17 1_555 1_555
H38 C17 1_555 1_555
H39 C17 1_555 1_555
C18 S2 1_555 1_555
H40 C18 1_555 1_555
H41 C18 1_555 1_555
H42 C18 1_555 1_555
Sn1_2 O3 1_555 1_555
Sn2_2 O11 1_555 1_555
O3_2 Sn1 1_555 1_555
O8_2 Sn1 1_555 1_555
O11_2 Sn2 1_555 1_555
O16_2 Sn2 1_555 1_555
O8 Sn1_2 1_555 1_555
O16 Sn2_2 1_555 1_555

#END
