
#######################################################################
#
#                 Cambridge Crystallographic Data Centre
#                                CCDC 
#
#######################################################################
#
# If this CIF has been generated from an entry in the Cambridge 
# Structural Database, then it will include bibliographic, chemical, 
# crystal, experimental, refinement or atomic coordinate data resulting 
# from the CCDC's data processing and validation procedures.
#
#######################################################################

data_OTAXIR
_symmetry_cell_setting           monoclinic
_symmetry_space_group_name_H-M   'C 2/c'
_symmetry_Int_Tables_number      15
_space_group_name_Hall           '-C 2yn'
loop_
_symmetry_equiv_pos_site_id
_symmetry_equiv_pos_as_xyz
1 x,y,z
2 -x,y,1/2-z
3 1/2+x,1/2+y,z
4 1/2-x,1/2+y,1/2-z
5 -x,-y,-z
6 x,-y,1/2+z
7 1/2-x,1/2-y,-z
8 1/2+x,1/2-y,1/2+z
_cell_length_a                   31.4648(6)
_cell_length_b                   9.9269(2)
_cell_length_c                   16.5748(4)
_cell_angle_alpha                90
_cell_angle_beta                 120.4520(10)
_cell_angle_gamma                90
_cell_volume                     4462.94
loop_
_atom_site_label
_atom_site_type_symbol
_atom_site_fract_x
_atom_site_fract_y
_atom_site_fract_z
Sn1 Sn 0.245763(6) 0.103343(15) 0.132020(11)
S1 S 0.30508(2) -0.22596(6) 0.23484(4)
P1 P 0.21694(2) 0.41018(6) 0.02441(4)
O1 O 0.21316(7) 0.25957(16) 0.03394(12)
O2 O 0.26560(7) 0.45954(18) 0.11159(13)
H1 H 0.2655 0.5440 0.1142
O3 O 0.21418(7) 0.45085(17) -0.06645(12)
O4 O 0.07255(11) 0.4866(4) 0.0230(2)
O5 O 0.03865(10) 0.5395(3) -0.1266(2)
O6 O 0.28821(8) -0.09010(17) 0.23752(13)
O7 O 0.27787(9) -0.28529(19) 0.14190(14)
O8 O 0.30632(7) -0.3123(2) 0.30727(13)
C1 C 0.18817(10) -0.0374(3) 0.06275(18)
H2 H 0.1987 -0.1054 0.0329
H3 H 0.1837 -0.0846 0.1105
C2 C 0.13892(12) 0.0171(3) -0.0106(2)
H4 H 0.1428 0.0644 -0.0592
H5 H 0.1274 0.0836 0.0185
C3 C 0.10001(15) -0.0938(5) -0.0572(3)
H6 H 0.1101 -0.1552 -0.0914
H7 H 0.0987 -0.1469 -0.0079
C4 C 0.04953(18) -0.0409(8) -0.1237(4)
H8 H 0.0387 0.0175 -0.0899
H9 H 0.0265 -0.1165 -0.1515
H10 H 0.0503 0.0108 -0.1733
C5 C 0.30351(10) 0.2065(3) 0.24699(18)
H11 H 0.2929 0.3001 0.2478
H12 H 0.3099 0.1623 0.3057
C6 C 0.35165(12) 0.2096(3) 0.2443(2)
H13 H 0.3615 0.1162 0.2402
H14 H 0.3459 0.2586 0.1876
C7 C 0.39303(14) 0.2771(4) 0.3300(3)
H15 H 0.4001 0.2248 0.3864
H16 H 0.3824 0.3685 0.3363
C8 C 0.43965(17) 0.2879(6) 0.3247(5)
H17 H 0.4492 0.1983 0.3146
H18 H 0.4663 0.3255 0.3834
H19 H 0.4336 0.3471 0.2726
C9 C 0.16633(10) 0.4899(3) 0.02543(18)
H20 H 0.1676 0.4690 0.0850
H21 H 0.1692 0.5888 0.0218
C10 C 0.11713(12) 0.4430(4) -0.0563(2)
H22 H 0.1136 0.4771 -0.1155
H23 H 0.1166 0.3433 -0.0588
C11 C 0.07446(12) 0.4918(4) -0.0472(2)
C12 C -0.00487(18) 0.5852(6) -0.1247(4)
H24 H -0.0164 0.5133 -0.0998
H25 H -0.0310 0.6081 -0.1883
H26 H 0.0035 0.6650 -0.0846
C13 C 0.36712(12) -0.2104(3) 0.2635(2)
H27 H 0.3684 -0.1611 0.2129
H28 H 0.3855 -0.1573 0.3218
C14 C 0.39152(15) -0.3465(4) 0.2769(4)
H29 H 0.4258 -0.3339 0.2928
H30 H 0.3738 -0.3987 0.2189
H31 H 0.3908 -0.3950 0.3277
Sn1F Sn 0.254237(6) 0.396657(15) -0.132020(11)
Sn1C Sn 0.254237(6) -0.396657(15) 0.367980(11)
O3F O 0.28582(7) 0.04915(17) 0.06645(12)
O8C O 0.19368(7) 0.1877(2) 0.19273(13)
loop_
_geom_bond_atom_site_label_1
_geom_bond_atom_site_label_2
_geom_bond_site_symmetry_1
_geom_bond_site_symmetry_2
Sn1 O1 1_555 1_555
S1 O6 1_555 1_555
P1 O1 1_555 1_555
O2 P1 1_555 1_555
H1 O2 1_555 1_555
O3 P1 1_555 1_555
O4 C11 1_555 1_555
O5 C11 1_555 1_555
O6 Sn1 1_555 1_555
O7 S1 1_555 1_555
O8 S1 1_555 1_555
C1 Sn1 1_555 1_555
H2 C1 1_555 1_555
H3 C1 1_555 1_555
C2 C1 1_555 1_555
H4 C2 1_555 1_555
H5 C2 1_555 1_555
C3 C2 1_555 1_555
H6 C3 1_555 1_555
H7 C3 1_555 1_555
C4 C3 1_555 1_555
H8 C4 1_555 1_555
H9 C4 1_555 1_555
H10 C4 1_555 1_555
C5 Sn1 1_555 1_555
H11 C5 1_555 1_555
H12 C5 1_555 1_555
C6 C5 1_555 1_555
H13 C6 1_555 1_555
H14 C6 1_555 1_555
C7 C6 1_555 1_555
H15 C7 1_555 1_555
H16 C7 1_555 1_555
C8 C7 1_555 1_555
H17 C8 1_555 1_555
H18 C8 1_555 1_555
H19 C8 1_555 1_555
C9 P1 1_555 1_555
H20 C9 1_555 1_555
H21 C9 1_555 1_555
C10 C9 1_555 1_555
H22 C10 1_555 1_555
H23 C10 1_555 1_555
C11 C10 1_555 1_555
C12 O5 1_555 1_555
H24 C12 1_555 1_555
H25 C12 1_555 1_555
H26 C12 1_555 1_555
C13 S1 1_555 1_555
H27 C13 1_555 1_555
H28 C13 1_555 1_555
C14 C13 1_555 1_555
H29 C14 1_555 1_555
H30 C14 1_555 1_555
H31 C14 1_555 1_555
Sn1F O3 1_555 1_555
Sn1C O8 1_555 1_555
O3F Sn1 1_555 1_555
O8C Sn1 1_555 1_555

#END
