
#######################################################################
#
#                 Cambridge Crystallographic Data Centre
#                                CCDC 
#
#######################################################################
#
# If this CIF has been generated from an entry in the Cambridge 
# Structural Database, then it will include bibliographic, chemical, 
# crystal, experimental, refinement or atomic coordinate data resulting 
# from the CCDC's data processing and validation procedures.
#
#######################################################################

data_OTAXAJ
_symmetry_cell_setting           tetragonal
_symmetry_space_group_name_H-M   'P 41 2 2'
_symmetry_Int_Tables_number      91
_space_group_name_Hall           'P 4w 2c'
loop_
_symmetry_equiv_pos_site_id
_symmetry_equiv_pos_as_xyz
1 x,y,z
2 -x,-y,1/2+z
3 x,-y,1/2-z
4 -x,y,-z
5 -y,-x,1/4-z
6 y,x,3/4-z
7 y,-x,3/4+z
8 -y,x,1/4+z
_cell_length_a                   10.61360(10)
_cell_length_b                   10.61360(10)
_cell_length_c                   28.72110(10)
_cell_angle_alpha                90
_cell_angle_beta                 90
_cell_angle_gamma                90
_cell_volume                     3235.39
loop_
_atom_site_label
_atom_site_type_symbol
_atom_site_fract_x
_atom_site_fract_y
_atom_site_fract_z
Sn1 Sn 0.68207(3) 0.12470(3) 0.055073(12)
Sn2 Sn 1.04854(3) -0.04854(3) 0.1250
P1 P 0.96126(12) 0.23764(12) 0.08812(4)
S1 S 0.90903(13) -0.35105(12) 0.16817(5)
O1 O 0.8742(3) 0.1704(3) 0.05403(12)
O2 O 0.8857(3) 0.3158(3) 0.12337(12)
O3 O 1.0481(3) 0.1450(3) 0.11334(12)
O4 O 1.1944(6) 0.5444(6) 0.01553(17)
O5 O 1.3119(5) 0.5669(5) 0.07898(18)
O6 O 1.0159(4) -0.2750(3) 0.15275(13)
O7 O 0.9539(4) -0.4772(3) 0.18125(15)
O8 O 0.8323(4) -0.2950(4) 0.20440(14)
C1 C 0.6184(6) 0.3088(5) 0.0475(2)
H1 H 0.5273 0.3083 0.0419
H2 H 0.6613 0.3484 0.0211
H3 H 0.6364 0.3564 0.0759
C2 C 0.7004(5) -0.0582(5) 0.02934(18)
H4 H 0.6928 -0.1185 0.0550
H5 H 0.7830 -0.0677 0.0145
H6 H 0.6339 -0.0743 0.0064
C3 C 1.0532(5) 0.3479(5) 0.05536(18)
H7 H 1.1012 0.3014 0.0314
H8 H 0.9953 0.4063 0.0390
C4 C 1.1447(5) 0.4248(5) 0.08436(19)
H9 H 1.0975 0.4708 0.1087
H10 H 1.2045 0.3672 0.1001
C5 C 1.2174(6) 0.5175(5) 0.0553(2)
C6 C 1.3866(9) 0.6635(9) 0.0558(3)
C7 C 1.0415(6) -0.1295(5) 0.05896(18)
H11 H 0.9610 -0.1735 0.0550
H12 H 1.1109 -0.1897 0.0555
H13 H 1.0493 -0.0635 0.0353
C8 C 0.8138(6) -0.3709(6) 0.1177(2)
H14 H 0.7388 -0.4202 0.1257
H15 H 0.8621 -0.4153 0.0937
H16 H 0.7881 -0.2882 0.1059
Sn1D Sn 0.87530(3) 0.31793(3) 0.194927(12)
Sn1D_2 Sn 0.87530(3) -0.68207(3) 0.194927(12)
Sn1_2 Sn 1.68207(3) 0.12470(3) 0.055073(12)
P1D P 0.76236(12) 0.03874(12) 0.16188(4)
S1D S 1.35105(12) 0.09097(13) 0.08183(5)
O1D O 0.8296(3) 0.1258(3) 0.19597(12)
O2D O 0.6842(3) 0.1143(3) 0.12663(12)
O3D O 0.8550(3) -0.0481(3) 0.13666(12)
O4D O 0.4556(6) -0.1944(6) 0.23447(17)
O5D O 0.4331(5) -0.3119(5) 0.17102(18)
O6D O 1.2750(3) -0.0159(4) 0.09725(13)
O7D O 1.4772(3) 0.0461(4) 0.06875(15)
O7D_2 O 0.4772(3) 0.0461(4) 0.06875(15)
O7_2 O 0.9539(4) 0.5228(3) 0.18125(15)
O8D O 1.2950(4) 0.1677(4) 0.04560(14)
C1D C 0.6912(5) 0.3816(6) 0.2025(2)
H1D H 0.6917 0.4727 0.2081
H2D H 0.6516 0.3387 0.2289
H3D H 0.6436 0.3636 0.1741
C2D C 1.0582(5) 0.2996(5) 0.22066(18)
H4D H 1.1185 0.3072 0.1950
H5D H 1.0677 0.2170 0.2355
H6D H 1.0743 0.3661 0.2436
C3D C 0.6521(5) -0.0532(5) 0.19464(18)
H7D H 0.6986 -0.1012 0.2186
H8D H 0.5937 0.0047 0.2110
C4D C 0.5752(5) -0.1447(5) 0.16564(19)
H9D H 0.5292 -0.0975 0.1413
H10D H 0.6328 -0.2045 0.1499
C5D C 0.4825(5) -0.2174(6) 0.1947(2)
C6D C 0.3365(9) -0.3866(9) 0.1942(3)
C7D C 1.1295(5) -0.0415(6) 0.19104(18)
H11D H 1.1735 0.0390 0.1950
H12D H 1.1897 -0.1109 0.1945
H13D H 1.0635 -0.0493 0.2147
C8D C 1.3709(6) 0.1862(6) 0.1323(2)
H14D H 1.4202 0.2612 0.1243
H15D H 1.4153 0.1379 0.1563
H16D H 1.2882 0.2119 0.1441
loop_
_geom_bond_atom_site_label_1
_geom_bond_atom_site_label_2
_geom_bond_site_symmetry_1
_geom_bond_site_symmetry_2
Sn1 O1 1_555 1_555
Sn2 O3 1_555 1_555
P1 O1 1_555 1_555
S1 O6 1_555 1_555
O2 P1 1_555 1_555
O3 P1 1_555 1_555
O4 C5 1_555 1_555
O5 C5 1_555 1_555
O6 Sn2 1_555 1_555
O7 S1 1_555 1_555
O8 S1 1_555 1_555
C1 Sn1 1_555 1_555
H1 C1 1_555 1_555
H2 C1 1_555 1_555
H3 C1 1_555 1_555
C2 Sn1 1_555 1_555
H4 C2 1_555 1_555
H5 C2 1_555 1_555
H6 C2 1_555 1_555
C3 P1 1_555 1_555
H7 C3 1_555 1_555
H8 C3 1_555 1_555
C4 C3 1_555 1_555
H9 C4 1_555 1_555
H10 C4 1_555 1_555
C5 C4 1_555 1_555
C6 O5 1_555 1_555
C7 Sn2 1_555 1_555
H11 C7 1_555 1_555
H12 C7 1_555 1_555
H13 C7 1_555 1_555
C8 S1 1_555 1_555
H14 C8 1_555 1_555
H15 C8 1_555 1_555
H16 C8 1_555 1_555
Sn1D O2 1_555 1_555
Sn1D_2 O7 1_555 1_555
Sn1_2 O7D 1_555 1_555
P1D O1D 1_555 1_555
S1D O6D 1_555 1_555
O1D Sn1D 1_555 1_555
O2D Sn1 1_555 1_555
O3D Sn2 1_555 1_555
O4D C5D 1_555 1_555
O5D C5D 1_555 1_555
O6D Sn2 1_555 1_555
O7D S1D 1_555 1_555
O7D_2 Sn1 1_555 1_555
O7_2 Sn1D 1_555 1_555
O8D S1D 1_555 1_555
C1D Sn1D 1_555 1_555
H1D C1D 1_555 1_555
H2D C1D 1_555 1_555
H3D C1D 1_555 1_555
C2D Sn1D 1_555 1_555
H4D C2D 1_555 1_555
H5D C2D 1_555 1_555
H6D C2D 1_555 1_555
C3D P1D 1_555 1_555
H7D C3D 1_555 1_555
H8D C3D 1_555 1_555
C4D C3D 1_555 1_555
H9D C4D 1_555 1_555
H10D C4D 1_555 1_555
C5D C4D 1_555 1_555
C6D O5D 1_555 1_555
C7D Sn2 1_555 1_555
H11D C7D 1_555 1_555
H12D C7D 1_555 1_555
H13D C7D 1_555 1_555
C8D S1D 1_555 1_555
H14D C8D 1_555 1_555
H15D C8D 1_555 1_555
H16D C8D 1_555 1_555
P1D O2D 1_555 1_555
P1D O3D 1_555 1_555

#END
