
#######################################################################
#
#                 Cambridge Crystallographic Data Centre
#                                CCDC 
#
#######################################################################
#
# If this CIF has been generated from an entry in the Cambridge 
# Structural Database, then it will include bibliographic, chemical, 
# crystal, experimental, refinement or atomic coordinate data resulting 
# from the CCDC's data processing and validation procedures.
#
#######################################################################

data_OTENUX
_symmetry_cell_setting           monoclinic
_symmetry_space_group_name_H-M   'P c'
_symmetry_Int_Tables_number      7
_space_group_name_Hall           'P -2yc'
loop_
_symmetry_equiv_pos_site_id
_symmetry_equiv_pos_as_xyz
1 x,y,z
2 x,-y,1/2+z
_cell_length_a                   11.062(5)
_cell_length_b                   12.646(6)
_cell_length_c                   8.947(3)
_cell_angle_alpha                90
_cell_angle_beta                 108.17(3)
_cell_angle_gamma                90
_cell_volume                     1189.19
loop_
_atom_site_label
_atom_site_type_symbol
_atom_site_fract_x
_atom_site_fract_y
_atom_site_fract_z
Gd1 Gd 0.129120(8) 0.319130(7) 0.233700(8)
Gd2 Gd -0.405240(9) 0.205338(8) -0.155241(10)
O1 O -0.43217(11) 0.39451(12) -0.17739(19)
H1 H -0.50400(15) 0.4178(4) -0.1765(6)
H2 H -0.3789(2) 0.4263(3) -0.1013(3)
O2 O -0.22237(11) 0.27989(13) -0.19234(15)
H3 H -0.2102(4) 0.32483(19) -0.2570(2)
H4 H -0.14767(19) 0.2655(4) -0.1333(4)
O3 O -0.49928(11) 0.04796(11) -0.0912(2)
H5 H -0.57490(14) 0.0327(4) -0.0943(7)
H6 H -0.4567(2) -0.00710(16) -0.0532(8)
O4 O -0.44883(11) 0.25277(14) 0.07769(16)
H7 H -0.51521(15) 0.2733(4) 0.0981(4)
H8 H -0.3880(2) 0.2696(5) 0.1590(3)
O5 O -0.32305(11) 0.05897(11) -0.2605(2)
H9 H -0.37644(18) 0.00941(18) -0.2671(12)
H10 H -0.25144(16) 0.0280(3) -0.237(2)
O6 O 0.14179(14) 0.21220(9) 0.02306(14)
H11 H 0.1241(6) 0.14845(13) -0.0059(6)
H12 H 0.1688(2) 0.2385(2) -0.0481(2)
O11 O 0.00155(13) 0.42947(12) 0.35589(17)
O12 O 0.00511(14) 0.55658(13) 0.53532(19)
O13 O -0.08728(15) 0.26258(12) 0.1210(2)
O14 O -0.24067(13) 0.14056(13) 0.06100(19)
O15 O -0.48776(15) 0.21460(15) -0.44175(19)
O16 O -0.65103(13) 0.25024(13) -0.65668(17)
N1 N 0.25498(15) 0.47855(13) 0.3871(2)
N2 N 0.37176(17) 0.52140(16) 0.4379(2)
N3 N 0.37306(15) 0.58790(16) 0.5507(2)
N4 N 0.25960(16) 0.59339(14) 0.5734(2)
N5 N 0.07929(16) 0.12699(15) 0.3056(2)
N6 N 0.13529(18) 0.04729(15) 0.4012(3)
N7 N 0.0427(2) -0.02321(16) 0.4012(3)
N8 N -0.06695(19) 0.00955(19) 0.2995(3)
N9 N -0.64829(15) 0.23610(17) -0.2587(2)
N10 N -0.75309(17) 0.25630(18) -0.2155(2)
N11 N -0.84874(16) 0.28256(15) -0.3413(2)
N12 N -0.80534(14) 0.28155(14) -0.46894(19)
C1 C 0.18875(16) 0.52509(15) 0.4703(2)
C2 C 0.05444(18) 0.50111(16) 0.4491(2)
C3 C -0.04018(19) 0.09793(16) 0.2448(2)
C4 C -0.13271(18) 0.17246(16) 0.1304(2)
C5 C -0.68544(18) 0.25537(16) -0.4132(2)
C6 C -0.60293(18) 0.23946(17) -0.5125(2)
Gd1_2 Gd -0.870880(8) 0.319130(7) -0.766300(8)
Gd1A Gd 0.129120(8) 0.680870(7) 0.733700(8)
O12A O 0.00511(14) 0.44342(13) 0.03532(19)
O16_2 O 0.34897(13) 0.25024(13) 0.34332(17)
N4A N 0.25960(16) 0.40661(14) 0.0734(2)
N12_2 N 0.19466(14) 0.28155(14) 0.53106(19)
O7 O -0.1331(4) 0.2959(3) -0.4418(5)
O8 O -0.2837(4) 0.5421(3) -0.2665(5)
O9 O -0.3419(2) 0.1644(2) 0.3663(3)
O10 O 0.36073(18) 0.04566(19) 0.1251(3)
loop_
_geom_bond_atom_site_label_1
_geom_bond_atom_site_label_2
_geom_bond_site_symmetry_1
_geom_bond_site_symmetry_2
Gd1 O6 1_555 1_555
Gd2 O1 1_555 1_555
O1 H1 1_555 1_555
H2 O1 1_555 1_555
O2 Gd2 1_555 1_555
H3 O2 1_555 1_555
H4 O2 1_555 1_555
O3 Gd2 1_555 1_555
H5 O3 1_555 1_555
H6 O3 1_555 1_555
O4 Gd2 1_555 1_555
H7 O4 1_555 1_555
H8 O4 1_555 1_555
O5 Gd2 1_555 1_555
H9 O5 1_555 1_555
H10 O5 1_555 1_555
O6 H11 1_555 1_555
H12 O6 1_555 1_555
O11 Gd1 1_555 1_555
O12 C2 1_555 1_555
O13 Gd1 1_555 1_555
O14 Gd2 1_555 1_555
O15 Gd2 1_555 1_555
O16 C6 1_555 1_555
N1 Gd1 1_555 1_555
N2 N1 1_555 1_555
N3 N2 1_555 1_555
N4 N3 1_555 1_555
N5 Gd1 1_555 1_555
N6 N5 1_555 1_555
N7 N6 1_555 1_555
N8 N7 1_555 1_555
N9 Gd2 1_555 1_555
N10 N9 1_555 1_555
N11 N10 1_555 1_555
N12 N11 1_555 1_555
C1 N1 1_555 1_555
C2 O11 1_555 1_555
C3 N5 1_555 1_555
C4 O13 1_555 1_555
C5 N9 1_555 1_555
C6 O15 1_555 1_555
Gd1_2 O16 1_555 1_555
Gd1A O12 1_555 1_555
O12A Gd1 1_555 1_555
O16_2 Gd1 1_555 1_555
N4A Gd1 1_555 1_555
N12_2 Gd1 1_555 1_555
O14 C4 1_555 1_555
N4 C1 1_555 1_555
N4 Gd1A 1_555 1_555
N8 C3 1_555 1_555
N12 C5 1_555 1_555
N12 Gd1_2 1_555 1_555
C1 C2 1_555 1_555
C3 C4 1_555 1_555
C5 C6 1_555 1_555

#END
