
#######################################################################
#
#                 Cambridge Crystallographic Data Centre
#                                CCDC 
#
#######################################################################
#
# If this CIF has been generated from an entry in the Cambridge 
# Structural Database, then it will include bibliographic, chemical, 
# crystal, experimental, refinement or atomic coordinate data resulting 
# from the CCDC's data processing and validation procedures.
#
#######################################################################

data_OTENOR
_symmetry_cell_setting           monoclinic
_symmetry_space_group_name_H-M   'P c'
_symmetry_Int_Tables_number      7
_space_group_name_Hall           'P -2yc'
loop_
_symmetry_equiv_pos_site_id
_symmetry_equiv_pos_as_xyz
1 x,y,z
2 x,-y,1/2+z
_cell_length_a                   11.056(5)
_cell_length_b                   12.677(5)
_cell_length_c                   8.965(4)
_cell_angle_alpha                90
_cell_angle_beta                 107.981(4)
_cell_angle_gamma                90
_cell_volume                     1195.14
loop_
_atom_site_label
_atom_site_type_symbol
_atom_site_fract_x
_atom_site_fract_y
_atom_site_fract_z
Eu1 Eu 0.128978(9) 0.318811(9) 0.233411(10)
Eu2 Eu -0.405017(11) 0.205082(11) -0.154843(13)
O1 O -0.43076(16) 0.39781(16) -0.1745(3)
H1 H -0.4926(4) 0.4313(7) -0.1590(12)
H2 H -0.3750(5) 0.4452(5) -0.167(2)
O2 O -0.22058(17) 0.2806(2) -0.1946(2)
H3 H -0.1926(6) 0.2671(14) -0.2705(5)
H4 H -0.1553(7) 0.2924(15) -0.1171(7)
O3 O -0.50075(18) 0.04627(15) -0.0913(3)
H5 H -0.5436(5) 0.0478(12) -0.0273(6)
H6 H -0.4555(6) -0.0089(4) -0.0675(18)
O4 O -0.44674(18) 0.25502(17) 0.0788(2)
H7 H -0.5233(4) 0.2703(10) 0.0709(16)
H8 H -0.4219(12) 0.2172(6) 0.1609(7)
O5 O -0.32231(17) 0.05777(16) -0.2632(3)
H9 H -0.3309(9) -0.0043(4) -0.2323(13)
H10 H -0.2452(4) 0.0610(11) -0.2610(15)
O6 O 0.14001(17) 0.21078(14) 0.0200(2)
H11 H 0.0891(6) 0.1631(5) -0.0294(15)
H12 H 0.2028(4) 0.2076(14) -0.0151(8)
O11 O 0.00153(15) 0.43192(14) 0.35371(18)
O12 O 0.00439(16) 0.55570(14) 0.5343(2)
O13 O -0.08885(17) 0.26055(14) 0.1211(2)
O14 O -0.23994(16) 0.13846(16) 0.0601(2)
O15 O -0.48903(17) 0.21389(16) -0.4419(2)
O16 O -0.65192(16) 0.24979(16) -0.6568(2)
N1 N 0.25419(19) 0.47830(17) 0.3841(2)
N2 N 0.37024(19) 0.52040(18) 0.4372(3)
N3 N 0.37369(19) 0.58774(18) 0.5503(2)
N4 N 0.26045(18) 0.59138(16) 0.5724(2)
N5 N 0.07890(19) 0.12618(17) 0.3054(2)
N6 N 0.1323(2) 0.0460(2) 0.4009(3)
N7 N 0.0434(2) -0.0252(2) 0.3955(3)
N8 N -0.0667(2) 0.00620(19) 0.2960(3)
N9 N -0.64794(19) 0.23843(19) -0.2583(2)
N10 N -0.7561(2) 0.2546(2) -0.2205(2)
N11 N -0.8499(2) 0.28297(19) -0.3454(2)
N12 N -0.80526(19) 0.28291(17) -0.4693(2)
C1 C 0.1884(2) 0.5240(2) 0.4673(3)
C2 C 0.0543(2) 0.50146(19) 0.4496(3)
C3 C -0.0427(2) 0.0990(2) 0.2429(3)
C4 C -0.1333(2) 0.1707(2) 0.1316(3)
C5 C -0.6849(2) 0.2555(2) -0.4129(3)
C6 C -0.6015(2) 0.2395(2) -0.5117(3)
Eu1_2 Eu -0.871022(9) 0.318811(9) -0.766589(10)
Eu1A Eu 0.128978(9) 0.681189(9) 0.733411(10)
O12A O 0.00439(16) 0.44430(14) 0.0343(2)
O16_2 O 0.34808(16) 0.24979(16) 0.3432(2)
N4A N 0.26045(18) 0.40862(16) 0.0724(2)
N12_2 N 0.19474(19) 0.28291(17) 0.5307(2)
O7 O -0.1337(4) 0.2938(4) -0.4456(5)
O8 O -0.2740(3) 0.5392(3) -0.2600(7)
O9 O -0.3416(2) 0.1644(2) 0.3652(3)
O10 O 0.3592(2) 0.0454(2) 0.1285(3)
loop_
_geom_bond_atom_site_label_1
_geom_bond_atom_site_label_2
_geom_bond_site_symmetry_1
_geom_bond_site_symmetry_2
Eu1 O6 1_555 1_555
Eu2 O1 1_555 1_555
O1 H1 1_555 1_555
H2 O1 1_555 1_555
O2 Eu2 1_555 1_555
H3 O2 1_555 1_555
H4 O2 1_555 1_555
O3 Eu2 1_555 1_555
H5 O3 1_555 1_555
H6 O3 1_555 1_555
O4 Eu2 1_555 1_555
H7 O4 1_555 1_555
H8 O4 1_555 1_555
O5 Eu2 1_555 1_555
H9 O5 1_555 1_555
H10 O5 1_555 1_555
O6 H11 1_555 1_555
H12 O6 1_555 1_555
O11 Eu1 1_555 1_555
O12 C2 1_555 1_555
O13 Eu1 1_555 1_555
O14 Eu2 1_555 1_555
O15 Eu2 1_555 1_555
O16 C6 1_555 1_555
N1 Eu1 1_555 1_555
N2 N1 1_555 1_555
N3 N2 1_555 1_555
N4 N3 1_555 1_555
N5 Eu1 1_555 1_555
N6 N5 1_555 1_555
N7 N6 1_555 1_555
N8 N7 1_555 1_555
N9 Eu2 1_555 1_555
N10 N9 1_555 1_555
N11 N10 1_555 1_555
N12 N11 1_555 1_555
C1 N1 1_555 1_555
C2 O11 1_555 1_555
C3 N5 1_555 1_555
C4 O13 1_555 1_555
C5 N9 1_555 1_555
C6 O15 1_555 1_555
Eu1_2 O16 1_555 1_555
Eu1A O12 1_555 1_555
O12A Eu1 1_555 1_555
O16_2 Eu1 1_555 1_555
N4A Eu1 1_555 1_555
N12_2 Eu1 1_555 1_555
O14 C4 1_555 1_555
N4 C1 1_555 1_555
N4 Eu1A 1_555 1_555
N8 C3 1_555 1_555
N12 C5 1_555 1_555
N12 Eu1_2 1_555 1_555
C1 C2 1_555 1_555
C3 C4 1_555 1_555
C5 C6 1_555 1_555

#END
