
#######################################################################
#
#                 Cambridge Crystallographic Data Centre
#                                CCDC 
#
#######################################################################
#
# If this CIF has been generated from an entry in the Cambridge 
# Structural Database, then it will include bibliographic, chemical, 
# crystal, experimental, refinement or atomic coordinate data resulting 
# from the CCDC's data processing and validation procedures.
#
#######################################################################

data_OTENIL
_symmetry_cell_setting           monoclinic
_symmetry_space_group_name_H-M   'P c'
_symmetry_Int_Tables_number      7
_space_group_name_Hall           'P -2yc'
loop_
_symmetry_equiv_pos_site_id
_symmetry_equiv_pos_as_xyz
1 x,y,z
2 x,-y,1/2+z
_cell_length_a                   11.0765(19)
_cell_length_b                   12.696(4)
_cell_length_c                   9.0014(17)
_cell_angle_alpha                90
_cell_angle_beta                 107.980(14)
_cell_angle_gamma                90
_cell_volume                     1204.02
loop_
_atom_site_label
_atom_site_type_symbol
_atom_site_fract_x
_atom_site_fract_y
_atom_site_fract_z
Sm1 Sm 0.128890(7) 0.318736(6) 0.233041(8)
Sm2 Sm -0.404890(8) 0.205323(7) -0.154321(9)
O1 O -0.43307(11) 0.39446(10) -0.17877(19)
H1 H -0.49359(18) 0.4261(3) -0.1579(5)
H2 H -0.3667(2) 0.4221(4) -0.1163(6)
O2 O -0.21932(13) 0.27906(11) -0.19406(15)
H3 H -0.1709(5) 0.2972(5) -0.1048(3)
H4 H -0.2303(14) 0.33442(18) -0.2493(3)
O3 O -0.50270(11) 0.04602(10) -0.09186(16)
H5 H -0.5385(2) 0.0266(5) -0.0252(2)
H6 H -0.4474(2) -0.0015(2) -0.0866(6)
O4 O -0.44796(11) 0.25387(10) 0.08104(13)
H7 H -0.5175(2) 0.2861(3) 0.0401(6)
H8 H -0.4615(4) 0.2162(2) 0.1520(3)
O5 O -0.32259(10) 0.05619(11) -0.26259(18)
H9 H -0.3436(3) -0.00058(18) -0.2268(4)
H10 H -0.24422(16) 0.0477(6) -0.2519(7)
O6 O 0.14276(12) 0.20986(9) 0.02293(14)
H11 H 0.0789(2) 0.1799(3) -0.0402(5)
H12 H 0.1794(2) 0.2411(3) -0.0346(3)
O11 O 0.00116(11) 0.43187(9) 0.35223(14)
O12 O 0.00399(11) 0.55591(10) 0.53251(15)
O13 O -0.08910(12) 0.26038(10) 0.11702(16)
O14 O -0.23947(11) 0.13800(11) 0.05977(16)
O15 O -0.48875(13) 0.21546(12) -0.44370(16)
O16 O -0.65145(11) 0.24941(11) -0.65933(14)
N1 N 0.25327(13) 0.47929(12) 0.38223(18)
N2 N 0.37055(13) 0.51990(11) 0.43607(17)
N3 N 0.37334(13) 0.58839(12) 0.54905(18)
N4 N 0.25946(13) 0.59225(12) 0.57087(17)
N5 N 0.07869(13) 0.12611(11) 0.30522(18)
N6 N 0.13258(15) 0.04792(13) 0.3998(2)
N7 N 0.04167(16) -0.02458(12) 0.3952(2)
N8 N -0.06693(15) 0.00680(14) 0.2965(2)
N9 N -0.64943(14) 0.23827(13) -0.25990(18)
N10 N -0.75736(14) 0.25443(14) -0.22150(17)
N11 N -0.85025(15) 0.28236(12) -0.34605(16)
N12 N -0.80496(13) 0.28239(12) -0.47126(15)
C1 C 0.18903(16) 0.52318(13) 0.46719(18)
C2 C 0.05513(15) 0.50157(14) 0.4495(2)
C3 C -0.04247(16) 0.09729(13) 0.24297(19)
C4 C -0.12991(15) 0.16935(13) 0.1332(2)
C5 C -0.68579(16) 0.25603(14) -0.41320(19)
C6 C -0.60224(15) 0.23938(15) -0.5114(2)
Sm1_2 Sm -0.871110(7) 0.318736(6) -0.766959(8)
Sm1A Sm 0.128890(7) 0.681264(6) 0.733041(8)
O12A O 0.00399(11) 0.44409(10) 0.03251(15)
O16_2 O 0.34855(11) 0.24941(11) 0.34067(14)
N4A N 0.25946(13) 0.40775(12) 0.07087(17)
N12_2 N 0.19504(13) 0.28239(12) 0.52874(15)
O7 O -0.1330(3) 0.2948(2) -0.4460(4)
O8 O -0.2729(3) 0.5420(2) -0.2407(4)
O9 O -0.34066(18) 0.16546(17) 0.3662(2)
O10 O 0.35905(16) 0.04423(15) 0.1260(2)
loop_
_geom_bond_atom_site_label_1
_geom_bond_atom_site_label_2
_geom_bond_site_symmetry_1
_geom_bond_site_symmetry_2
Sm1 O6 1_555 1_555
Sm2 O1 1_555 1_555
O1 H1 1_555 1_555
H2 O1 1_555 1_555
O2 Sm2 1_555 1_555
H3 O2 1_555 1_555
H4 O2 1_555 1_555
O3 Sm2 1_555 1_555
H5 O3 1_555 1_555
H6 O3 1_555 1_555
O4 Sm2 1_555 1_555
H7 O4 1_555 1_555
H8 O4 1_555 1_555
O5 Sm2 1_555 1_555
H9 O5 1_555 1_555
H10 O5 1_555 1_555
O6 H11 1_555 1_555
H12 O6 1_555 1_555
O11 Sm1 1_555 1_555
O12 C2 1_555 1_555
O13 Sm1 1_555 1_555
O14 Sm2 1_555 1_555
O15 Sm2 1_555 1_555
O16 C6 1_555 1_555
N1 Sm1 1_555 1_555
N2 N1 1_555 1_555
N3 N2 1_555 1_555
N4 N3 1_555 1_555
N5 Sm1 1_555 1_555
N6 N5 1_555 1_555
N7 N6 1_555 1_555
N8 N7 1_555 1_555
N9 Sm2 1_555 1_555
N10 N9 1_555 1_555
N11 N10 1_555 1_555
N12 N11 1_555 1_555
C1 N1 1_555 1_555
C2 O11 1_555 1_555
C3 N5 1_555 1_555
C4 O13 1_555 1_555
C5 N9 1_555 1_555
C6 O15 1_555 1_555
Sm1_2 O16 1_555 1_555
Sm1A O12 1_555 1_555
O12A Sm1 1_555 1_555
O16_2 Sm1 1_555 1_555
N4A Sm1 1_555 1_555
N12_2 Sm1 1_555 1_555
O14 C4 1_555 1_555
N4 C1 1_555 1_555
N4 Sm1A 1_555 1_555
N8 C3 1_555 1_555
N12 C5 1_555 1_555
N12 Sm1_2 1_555 1_555
C1 C2 1_555 1_555
C3 C4 1_555 1_555
C5 C6 1_555 1_555

#END
