
#######################################################################
#
#                 Cambridge Crystallographic Data Centre
#                                CCDC 
#
#######################################################################
#
# If this CIF has been generated from an entry in the Cambridge 
# Structural Database, then it will include bibliographic, chemical, 
# crystal, experimental, refinement or atomic coordinate data resulting 
# from the CCDC's data processing and validation procedures.
#
#######################################################################

data_OTEPAF
_symmetry_cell_setting           monoclinic
_symmetry_space_group_name_H-M   'P c'
_symmetry_Int_Tables_number      7
_space_group_name_Hall           'P -2yc'
loop_
_symmetry_equiv_pos_site_id
_symmetry_equiv_pos_as_xyz
1 x,y,z
2 x,-y,1/2+z
_cell_length_a                   11.0653(14)
_cell_length_b                   12.6079(17)
_cell_length_c                   8.9055(13)
_cell_angle_alpha                90
_cell_angle_beta                 108.350(5)
_cell_angle_gamma                90
_cell_volume                     1179.23
loop_
_atom_site_label
_atom_site_type_symbol
_atom_site_fract_x
_atom_site_fract_y
_atom_site_fract_z
Tb1 Tb 0.629120(4) 0.319341(3) 0.233869(4)
Tb2 Tb 0.094800(4) 0.205582(4) -0.155448(5)
O1 O 0.06900(7) 0.39426(7) -0.17521(11)
H1 H 0.00732(15) 0.4211(3) -0.1503(4)
H2 H 0.13450(19) 0.4191(3) -0.1058(4)
O2 O 0.27715(8) 0.28122(9) -0.19614(9)
H3 H 0.2997(3) 0.2897(8) -0.27808(18)
H4 H 0.3408(3) 0.3009(4) -0.1194(3)
O3 O 0.00147(8) 0.04769(7) -0.09174(12)
H5 H -0.0589(2) 0.0224(3) -0.1679(3)
H6 H 0.0521(2) -0.00411(17) -0.0596(7)
O4 O 0.05246(8) 0.25361(7) 0.07726(9)
H7 H 0.00453(19) 0.29926(18) 0.1001(4)
H8 H 0.0997(3) 0.2301(3) 0.1654(3)
O5 O 0.17857(7) 0.05912(7) -0.26122(11)
H9 H 0.1541(2) 0.01112(18) -0.2101(3)
H10 H 0.25677(14) 0.0449(5) -0.2449(6)
O6 O 0.63886(8) 0.21342(6) 0.02170(9)
H11 H 0.5918(2) 0.15996(15) -0.0129(6)
H12 H 0.6718(2) 0.2282(3) -0.0497(2)
O11 O 0.50036(6) 0.42992(6) 0.35453(9)
O12 O 0.50504(7) 0.55497(6) 0.53573(9)
O13 O 0.41211(7) 0.26333(6) 0.11953(10)
O14 O 0.25891(7) 0.14017(7) 0.05708(10)
O15 O 0.01166(8) 0.21573(7) -0.44242(10)
O16 O -0.15387(7) 0.24973(7) -0.66073(9)
N1 N 0.75330(7) 0.47776(7) 0.38385(10)
N2 N 0.87087(8) 0.52011(8) 0.43956(11)
N3 N 0.87389(8) 0.58853(8) 0.55047(11)
N4 N 0.75960(8) 0.59135(7) 0.57382(10)
N5 N 0.58065(8) 0.12612(7) 0.30487(11)
N6 N 0.63301(9) 0.04702(8) 0.39957(14)
N7 N 0.54428(11) -0.02301(9) 0.39627(14)
N8 N 0.43387(10) 0.00643(8) 0.29680(14)
N9 N -0.14864(8) 0.23683(8) -0.25856(11)
N10 N -0.25567(9) 0.25471(9) -0.22010(11)
N11 N -0.34936(9) 0.28234(8) -0.34446(11)
N12 N -0.30528(8) 0.28337(7) -0.46995(10)
C1 C 0.68909(9) 0.52305(8) 0.46921(11)
C2 C 0.55415(10) 0.50037(8) 0.45057(13)
C3 C 0.45826(9) 0.09978(8) 0.24333(13)
C4 C 0.36723(10) 0.17200(8) 0.12939(13)
C5 C -0.18447(9) 0.25466(9) -0.41321(11)
C6 C -0.10277(10) 0.24016(9) -0.51470(12)
Tb1_2 Tb -0.370880(4) 0.319341(3) -0.766131(4)
Tb1A Tb 0.629120(4) 0.680659(3) 0.733869(4)
O12A O 0.50504(7) 0.44503(6) 0.03573(9)
O16_2 O 0.84613(7) 0.24973(7) 0.33927(9)
N4A N 0.75960(8) 0.40865(7) 0.07382(10)
N12_2 N 0.69472(8) 0.28337(7) 0.53005(10)
O7 O 0.36396(17) 0.29206(18) 0.5509(2)
O8 O 0.22144(17) 0.54254(16) 0.7446(3)
O9 O 0.15924(11) 0.16248(11) 0.36529(13)
O10 O 0.86077(9) 0.04660(9) 0.12786(14)
loop_
_geom_bond_atom_site_label_1
_geom_bond_atom_site_label_2
_geom_bond_site_symmetry_1
_geom_bond_site_symmetry_2
Tb1 O6 1_555 1_555
Tb2 O1 1_555 1_555
O1 H1 1_555 1_555
H2 O1 1_555 1_555
O2 Tb2 1_555 1_555
H3 O2 1_555 1_555
H4 O2 1_555 1_555
O3 Tb2 1_555 1_555
H5 O3 1_555 1_555
H6 O3 1_555 1_555
O4 Tb2 1_555 1_555
H7 O4 1_555 1_555
H8 O4 1_555 1_555
O5 Tb2 1_555 1_555
H9 O5 1_555 1_555
H10 O5 1_555 1_555
O6 H11 1_555 1_555
H12 O6 1_555 1_555
O11 Tb1 1_555 1_555
O12 C2 1_555 1_555
O13 Tb1 1_555 1_555
O14 Tb2 1_555 1_555
O15 Tb2 1_555 1_555
O16 C6 1_555 1_555
N1 Tb1 1_555 1_555
N2 N1 1_555 1_555
N3 N2 1_555 1_555
N4 N3 1_555 1_555
N5 Tb1 1_555 1_555
N6 N5 1_555 1_555
N7 N6 1_555 1_555
N8 N7 1_555 1_555
N9 Tb2 1_555 1_555
N10 N9 1_555 1_555
N11 N10 1_555 1_555
N12 N11 1_555 1_555
C1 N1 1_555 1_555
C2 O11 1_555 1_555
C3 N5 1_555 1_555
C4 O13 1_555 1_555
C5 N9 1_555 1_555
C6 O15 1_555 1_555
Tb1_2 O16 1_555 1_555
Tb1A O12 1_555 1_555
O12A Tb1 1_555 1_555
O16_2 Tb1 1_555 1_555
N4A Tb1 1_555 1_555
N12_2 Tb1 1_555 1_555
O14 C4 1_555 1_555
N4 C1 1_555 1_555
N4 Tb1A 1_555 1_555
N8 C3 1_555 1_555
N12 C5 1_555 1_555
N12 Tb1_2 1_555 1_555
C1 C2 1_555 1_555
C3 C4 1_555 1_555
C5 C6 1_555 1_555

#END
