
#######################################################################
#
#                 Cambridge Crystallographic Data Centre
#                                CCDC 
#
#######################################################################
#
# If this CIF has been generated from an entry in the Cambridge 
# Structural Database, then it will include bibliographic, chemical, 
# crystal, experimental, refinement or atomic coordinate data resulting 
# from the CCDC's data processing and validation procedures.
#
#######################################################################

data_OTEPEJ
_symmetry_cell_setting           monoclinic
_symmetry_space_group_name_H-M   'P c'
_symmetry_Int_Tables_number      7
_space_group_name_Hall           'P -2yc'
loop_
_symmetry_equiv_pos_site_id
_symmetry_equiv_pos_as_xyz
1 x,y,z
2 x,-y,1/2+z
_cell_length_a                   11.0182(7)
_cell_length_b                   12.5780(8)
_cell_length_c                   8.8819(6)
_cell_angle_alpha                90
_cell_angle_beta                 108.334(2)
_cell_angle_gamma                90
_cell_volume                     1168.43
loop_
_atom_site_label
_atom_site_type_symbol
_atom_site_fract_x
_atom_site_fract_y
_atom_site_fract_z
Dy1 Dy 0.128870(6) 0.319769(6) 0.234209(6)
Dy2 Dy -0.404982(7) 0.205437(7) -0.155928(8)
O1 O -0.43023(12) 0.39440(11) -0.17625(15)
H1 H -0.4558(3) 0.4312(3) -0.1118(3)
H2 H -0.3874(3) 0.4375(3) -0.2127(4)
O2 O -0.22117(12) 0.27943(14) -0.19496(13)
H3 H -0.2050(4) 0.2756(10) -0.2821(2)
H4 H -0.1551(3) 0.3079(4) -0.1309(5)
O3 O -0.49592(13) 0.04829(11) -0.09015(15)
H5 H -0.5140(11) 0.0046(3) -0.1669(3)
H6 H -0.5171(4) 0.0172(4) -0.0174(3)
O4 O -0.44504(13) 0.25593(11) 0.07736(13)
H7 H -0.4946(3) 0.3020(2) 0.0966(6)
H8 H -0.4074(6) 0.2274(3) 0.1664(3)
O5 O -0.32123(11) 0.05889(11) -0.26236(18)
H9 H -0.3635(3) 0.0056(2) -0.2474(8)
H10 H -0.2442(2) 0.0374(5) -0.230(2)
O6 O 0.13939(12) 0.21400(10) 0.02367(13)
H11 H 0.0761(3) 0.1790(3) -0.0344(7)
H12 H 0.1815(2) 0.2314(5) -0.0378(3)
O11 O 0.00200(11) 0.42942(10) 0.35559(12)
O12 O 0.00742(12) 0.55569(11) 0.53713(14)
O13 O -0.08620(12) 0.26372(10) 0.12162(14)
O14 O -0.23859(11) 0.14057(11) 0.05737(15)
O15 O -0.48684(13) 0.21509(12) -0.44370(14)
O16 O -0.65334(12) 0.24989(11) -0.66043(13)
N1 N 0.25408(13) 0.47681(12) 0.38469(15)
N2 N 0.37211(15) 0.51944(15) 0.43737(18)
N3 N 0.37524(14) 0.58843(13) 0.55149(17)
N4 N 0.26137(13) 0.59218(12) 0.57458(15)
N5 N 0.08179(13) 0.12667(13) 0.30642(16)
N6 N 0.13579(15) 0.04752(14) 0.4002(2)
N7 N 0.04677(19) -0.02371(14) 0.3984(2)
N8 N -0.06474(16) 0.00595(14) 0.2970(2)
N9 N -0.64663(13) 0.23686(14) -0.25655(15)
N10 N -0.75443(15) 0.25409(14) -0.21888(16)
N11 N -0.84734(14) 0.28253(14) -0.34239(17)
N12 N -0.80300(13) 0.28368(12) -0.47037(14)
C1 C 0.19057(16) 0.52299(13) 0.47000(17)
C2 C 0.05626(16) 0.49998(14) 0.45204(19)
C3 C -0.04047(16) 0.10008(14) 0.24354(19)
C4 C -0.13219(18) 0.17318(14) 0.1306(2)
C5 C -0.68370(16) 0.25514(15) -0.41353(17)
C6 C -0.60112(16) 0.23930(16) -0.51383(18)
Dy1_2 Dy -0.871130(6) 0.319769(6) -0.765791(6)
Dy1A Dy 0.128870(6) 0.680231(6) 0.734209(6)
O12A O 0.00742(12) 0.44431(11) 0.03713(14)
O16_2 O 0.34666(12) 0.24989(11) 0.33957(13)
N4A N 0.26137(13) 0.40782(12) 0.07458(15)
N12_2 N 0.19700(13) 0.28368(12) 0.52963(14)
O7 O -0.1323(3) 0.2945(2) -0.4437(3)
O8 O -0.2779(4) 0.5398(3) -0.2640(4)
O9 O -0.33896(19) 0.16396(18) 0.36280(19)
O10 O 0.36160(15) 0.04879(15) 0.12794(19)
loop_
_geom_bond_atom_site_label_1
_geom_bond_atom_site_label_2
_geom_bond_site_symmetry_1
_geom_bond_site_symmetry_2
Dy1 O6 1_555 1_555
Dy2 O1 1_555 1_555
O1 H1 1_555 1_555
H2 O1 1_555 1_555
O2 Dy2 1_555 1_555
H3 O2 1_555 1_555
H4 O2 1_555 1_555
O3 Dy2 1_555 1_555
H5 O3 1_555 1_555
H6 O3 1_555 1_555
O4 Dy2 1_555 1_555
H7 O4 1_555 1_555
H8 O4 1_555 1_555
O5 Dy2 1_555 1_555
H9 O5 1_555 1_555
H10 O5 1_555 1_555
O6 H11 1_555 1_555
H12 O6 1_555 1_555
O11 Dy1 1_555 1_555
O12 C2 1_555 1_555
O13 Dy1 1_555 1_555
O14 Dy2 1_555 1_555
O15 Dy2 1_555 1_555
O16 C6 1_555 1_555
N1 Dy1 1_555 1_555
N2 N1 1_555 1_555
N3 N2 1_555 1_555
N4 N3 1_555 1_555
N5 Dy1 1_555 1_555
N6 N5 1_555 1_555
N7 N6 1_555 1_555
N8 N7 1_555 1_555
N9 Dy2 1_555 1_555
N10 N9 1_555 1_555
N11 N10 1_555 1_555
N12 N11 1_555 1_555
C1 N1 1_555 1_555
C2 O11 1_555 1_555
C3 N5 1_555 1_555
C4 O13 1_555 1_555
C5 N9 1_555 1_555
C6 O15 1_555 1_555
Dy1_2 O16 1_555 1_555
Dy1A O12 1_555 1_555
O12A Dy1 1_555 1_555
O16_2 Dy1 1_555 1_555
N4A Dy1 1_555 1_555
N12_2 Dy1 1_555 1_555
O14 C4 1_555 1_555
N4 C1 1_555 1_555
N4 Dy1A 1_555 1_555
N8 C3 1_555 1_555
N12 C5 1_555 1_555
N12 Dy1_2 1_555 1_555
C1 C2 1_555 1_555
C3 C4 1_555 1_555
C5 C6 1_555 1_555

#END
