
#######################################################################
#
#                 Cambridge Crystallographic Data Centre
#                                CCDC 
#
#######################################################################
#
# If this CIF has been generated from an entry in the Cambridge 
# Structural Database, then it will include bibliographic, chemical, 
# crystal, experimental, refinement or atomic coordinate data resulting 
# from the CCDC's data processing and validation procedures.
#
#######################################################################

data_OTEPUZ
_symmetry_cell_setting           monoclinic
_symmetry_space_group_name_H-M   'P 2/c'
_symmetry_Int_Tables_number      13
_space_group_name_Hall           '-P 2yc'
loop_
_symmetry_equiv_pos_site_id
_symmetry_equiv_pos_as_xyz
1 x,y,z
2 -x,y,1/2-z
3 -x,-y,-z
4 x,-y,1/2+z
_cell_length_a                   8.1380(3)
_cell_length_b                   13.5949(6)
_cell_length_c                   8.7768(4)
_cell_angle_alpha                90
_cell_angle_beta                 107.5510(10)
_cell_angle_gamma                90
_cell_volume                     925.822
loop_
_atom_site_label
_atom_site_type_symbol
_atom_site_fract_x
_atom_site_fract_y
_atom_site_fract_z
Pb1 Pb 0.0000 0.188468(17) 0.2500
Pb2 Pb -0.5000 0.061920(17) 0.2500
N1 N 0.1329(5) 0.3456(3) 0.1845(4)
C1 C 0.2625(6) 0.3452(4) 0.1227(5)
C2 C 0.3352(7) 0.4320(4) 0.0859(6)
C3 C 0.2729(6) 0.5207(4) 0.1146(6)
C4 C 0.1367(6) 0.5236(3) 0.1818(5)
C5 C 0.0696(6) 0.4337(3) 0.2158(5)
C6 C 0.0647(6) 0.6150(4) 0.2170(6)
O1 O -0.2236(4) 0.2232(3) -0.0195(4)
O2 O -0.4237(4) 0.1974(2) 0.1022(4)
C7 C -0.3763(6) 0.2095(3) -0.0213(5)
C8 C -0.5149(6) 0.2112(3) -0.1803(5)
O3 O 0.1971(4) 0.1187(2) 0.0782(4)
O4 O 0.3012(4) 0.0196(3) -0.0711(4)
C9 C 0.1821(6) 0.0697(3) -0.0490(5)
C10 C 0.0093(6) 0.0718(3) -0.1731(6)
H1 H 0.109(6) 0.673(4) 0.190(6)
H2 H 0.320(7) 0.580(4) 0.100(7)
H3 H 0.298(7) 0.277(4) 0.089(6)
H4 H 0.427(7) 0.425(4) 0.052(6)
H5 H -0.630(7) 0.211(4) -0.178(6)
H6 H -0.088(9) 0.081(5) -0.134(8)
Pb1_2 Pb -1.0000 0.188468(17) -0.7500
Pb1_3 Pb 0.0000 0.188468(17) -0.7500
Pb2_2 Pb 0.5000 0.061920(17) 0.2500
Pb2_3 Pb -0.5000 0.061920(17) -0.7500
N1A N -0.1329(5) 0.3456(3) 0.3155(4)
C1A C -0.2625(6) 0.3452(4) 0.3773(5)
C2A C -0.3352(7) 0.4320(4) 0.4141(6)
C3A C -0.2729(6) 0.5207(4) 0.3854(6)
C4A C -0.1367(6) 0.5236(3) 0.3182(5)
C5A C -0.0696(6) 0.4337(3) 0.2842(5)
C6A C -0.0647(6) 0.6150(4) 0.2830(6)
O1A O -0.7764(4) 0.2232(3) -0.4805(4)
O1A_2 O 0.2236(4) 0.2232(3) 0.5195(4)
O2A O -0.5763(4) 0.1974(2) -0.6022(4)
O2A_2 O -0.5763(4) 0.1974(2) 0.3978(4)
C7A C -0.6237(6) 0.2095(3) -0.4787(5)
C8A C -0.4851(6) 0.2112(3) -0.3197(5)
O3A O -0.1971(4) 0.1187(2) -0.5782(4)
O3A_2 O -0.1971(4) 0.1187(2) 0.4218(4)
O3_2 O -0.8029(4) 0.1187(2) 0.0782(4)
O4A O -0.3012(4) 0.0196(3) -0.4289(4)
C9A C -0.1821(6) 0.0697(3) -0.4510(5)
C10A C -0.0093(6) 0.0718(3) -0.3269(6)
H1A H -0.109(6) 0.673(4) 0.310(6)
H2A H -0.320(7) 0.580(4) 0.400(7)
H3A H -0.298(7) 0.277(4) 0.411(6)
H4A H -0.427(7) 0.425(4) 0.448(6)
H5A H -0.370(7) 0.211(4) -0.322(6)
H6A H 0.088(9) 0.081(5) -0.366(8)
loop_
_geom_bond_atom_site_label_1
_geom_bond_atom_site_label_2
_geom_bond_site_symmetry_1
_geom_bond_site_symmetry_2
Pb1 N1 1_555 1_555
Pb2 O2 1_555 1_555
N1 C1 1_555 1_555
C1 C2 1_555 1_555
C2 C3 1_555 1_555
C3 C4 1_555 1_555
C4 C5 1_555 1_555
C5 N1 1_555 1_555
C6 C4 1_555 1_555
O1 Pb1 1_555 1_555
O2 C7 1_555 1_555
C7 O1 1_555 1_555
C8 C7 1_555 1_555
O3 Pb1 1_555 1_555
O4 C9 1_555 1_555
C9 O3 1_555 1_555
C10 C9 1_555 1_555
H1 C6 1_555 1_555
H2 C3 1_555 1_555
H3 C1 1_555 1_555
H4 C2 1_555 1_555
H5 C8 1_555 1_555
H6 C10 1_555 1_555
Pb1_2 O1A 1_555 1_555
Pb1_3 O3A 1_555 1_555
Pb2_2 O3 1_555 1_555
Pb2_3 O2A 1_555 1_555
N1A Pb1 1_555 1_555
C1A N1A 1_555 1_555
C2A C1A 1_555 1_555
C3A C2A 1_555 1_555
C4A C3A 1_555 1_555
C5A C5 1_555 1_555
C6A C6 1_555 1_555
O1A C7A 1_555 1_555
O1A_2 Pb1 1_555 1_555
O2A C7A 1_555 1_555
O2A_2 Pb2 1_555 1_555
C7A C8A 1_555 1_555
C8A C8 1_555 1_555
O3A Pb2_3 1_555 1_555
O3A_2 Pb1 1_555 1_555
O3_2 Pb2 1_555 1_555
O4A C9A 1_555 1_555
C9A O3A 1_555 1_555
C10A C10 1_555 1_555
H1A C6A 1_555 1_555
H2A C3A 1_555 1_555
H3A C1A 1_555 1_555
H4A C2A 1_555 1_555
H5A C8A 1_555 1_555
H6A C10A 1_555 1_555
Pb2 O3A_2 1_555 1_555
N1A C5A 1_555 1_555
C4A C5A 1_555 1_555
C4A C6A 1_555 1_555
C9A C10A 1_555 1_555

#END
