
#######################################################################
#
#                 Cambridge Crystallographic Data Centre
#                                CCDC 
#
#######################################################################
#
# If this CIF has been generated from an entry in the Cambridge 
# Structural Database, then it will include bibliographic, chemical, 
# crystal, experimental, refinement or atomic coordinate data resulting 
# from the CCDC's data processing and validation procedures.
#
#######################################################################

data_OTEROV
_symmetry_cell_setting           monoclinic
_symmetry_space_group_name_H-M   'P 21/c'
_symmetry_Int_Tables_number      14
_space_group_name_Hall           '-P 2ybc'
loop_
_symmetry_equiv_pos_site_id
_symmetry_equiv_pos_as_xyz
1 x,y,z
2 -x,1/2+y,1/2-z
3 -x,-y,-z
4 x,1/2-y,1/2+z
_cell_length_a                   18.847(3)
_cell_length_b                   10.0522(16)
_cell_length_c                   21.042(3)
_cell_angle_alpha                90
_cell_angle_beta                 94.180(2)
_cell_angle_gamma                90
_cell_volume                     3975.88
loop_
_atom_site_label
_atom_site_type_symbol
_atom_site_fract_x
_atom_site_fract_y
_atom_site_fract_z
Mo1 Mo 0.36969(2) -0.63707(4) 0.339978(19)
Mo2 Mo 0.40517(2) -0.87331(4) 0.453808(19)
Mo3 Mo 0.27464(2) -0.65096(4) 0.484623(19)
Mo4 Mo 0.09033(2) -0.68374(4) 0.37419(2)
Mo5 Mo 0.17509(2) -0.67419(4) 0.239787(19)
Mo6 Mo 0.32390(2) -0.91387(4) 0.215064(19)
Mo7 Mo 0.37278(2) -1.14153(4) 0.32523(2)
Mo8 Mo 0.27607(2) -1.15647(4) 0.47465(2)
Mo9 Mo 0.13974(2) -0.95104(4) 0.496898(19)
As1 As 0.24033(3) -0.89794(5) 0.36132(2)
As2 As 0.23650(3) -0.48398(5) 0.36588(2)
Cu1 Cu 0.03204(4) -0.70237(7) 0.11117(3)
O1 O 0.4164(2) -0.5074(4) 0.31153(17)
O2 O 0.4833(2) -0.8698(4) 0.49941(18)
O3 O 0.2668(2) -0.5251(4) 0.53729(16)
O4 O 0.0205(2) -0.7529(4) 0.33058(19)
O5 O 0.1850(2) -0.5425(4) 0.18945(17)
O6 O 0.3712(2) -0.8427(4) 0.15722(17)
O7 O 0.4521(2) -1.2229(4) 0.33785(17)
O8 O 0.3254(2) -1.2380(4) 0.53365(17)
O9 O 0.0822(2) -1.0750(4) 0.47343(18)
O10 O 0.0514(2) -0.5590(4) 0.41572(18)
O11 O 0.10227(19) -0.7567(4) 0.20497(16)
O12 O 0.2795(2) -1.0417(4) 0.17622(17)
O13 O 0.3235(2) -1.2504(4) 0.27762(17)
O14 O 0.2100(2) -1.2686(4) 0.45342(17)
O15 O 0.1050(2) -0.8906(4) 0.56532(17)
O16 O 0.22129(19) -0.7802(4) 0.51102(16)
O17 O 0.1039(2) -0.8169(4) 0.43758(17)
O18 O 0.3290(2) -1.1712(4) 0.40279(17)
O19 O 0.31986(19) -0.5294(3) 0.41153(15)
O20 O 0.37149(19) -0.7600(4) 0.28130(16)
O21 O 0.36393(19) -0.7120(3) 0.50573(15)
O22 O 0.41809(19) -0.9726(3) 0.38653(16)
O23 O 0.24716(19) -0.7885(4) 0.21609(16)
O24 O 0.34618(19) -0.9806(3) 0.49369(16)
O25 O 0.12616(19) -0.5796(4) 0.30476(15)
O26 O 0.21551(19) -1.0554(3) 0.53275(15)
O27 O 0.3976(2) -1.0207(3) 0.25844(16)
O28 O 0.19576(18) -0.6018(3) 0.41675(16)
O29 O 0.26649(18) -0.5927(3) 0.30553(15)
O30 O 0.43025(18) -0.7040(3) 0.40148(16)
O31 O 0.30118(17) -0.7927(3) 0.39797(15)
O32 O 0.17161(18) -0.8130(3) 0.32567(15)
O33 O 0.28026(19) -0.9881(3) 0.30728(15)
O34 O 0.21026(18) -0.9991(3) 0.41732(15)
N1 N 0.0069(3) -0.5348(5) 0.1528(2)
H1 H -0.0151 -0.4795 0.1241
H2 H 0.0465 -0.4943 0.1697
N2 N -0.0530(3) -0.7787(6) 0.1509(3)
H3 H -0.0387 -0.8392 0.1806
H4 H -0.0817 -0.8195 0.1209
N3 N 0.0548(3) -0.8680(5) 0.0645(2)
H5 H 0.0691 -0.8443 0.0262
H6 H 0.0144 -0.9150 0.0575
N4 N 0.1750(3) -1.1686(5) 0.0847(2)
H7 H 0.1771 -1.2437 0.0625
H8 H 0.2153 -1.1234 0.0824
H9 H 0.1690 -1.1878 0.1253
C1 C -0.0406(4) -0.5659(7) 0.2033(3)
H10 H -0.0129 -0.5967 0.2411
H11 H -0.0663 -0.4866 0.2144
C2 C -0.0916(4) -0.6707(8) 0.1802(3)
H12 H -0.1266 -0.6333 0.1492
H13 H -0.1163 -0.7052 0.2155
C3 C 0.1096(3) -0.9577(6) 0.0952(3)
H14 H 0.1554 -0.9132 0.0976
H15 H 0.0979 -0.9772 0.1384
C4 C 0.1146(3) -1.0874(7) 0.0582(3)
H16 H 0.1208 -1.0678 0.0138
H17 H 0.0708 -1.1372 0.0603
Mo1C Mo 0.36969(2) -0.86293(4) -0.160022(19)
Mo2C Mo 0.40517(2) -0.62669(4) -0.046192(19)
Mo3C Mo 0.27464(2) -0.84904(4) -0.015377(19)
Mo4C Mo 0.09033(2) -0.81626(4) -0.12581(2)
Mo5C Mo 0.17509(2) -0.82581(4) -0.260213(19)
Mo6C Mo 0.32390(2) -0.58613(4) -0.284936(19)
Mo7C Mo 0.37278(2) -0.35847(4) -0.17477(2)
Mo8C Mo 0.27607(2) -0.34353(4) -0.02535(2)
Mo9C Mo 0.13974(2) -0.54896(4) -0.003102(19)
As1C As 0.24033(3) -0.60206(5) -0.13868(2)
As2C As 0.23650(3) -1.01602(5) -0.13412(2)
Cu1C Cu 0.03204(4) -0.79763(7) -0.38883(3)
Cu1C_2 Cu 0.03204(4) -0.79763(7) 0.61117(3)
O1C O 0.4164(2) -0.9926(4) -0.18847(17)
O2C O 0.4833(2) -0.6302(4) -0.00059(18)
O3C O 0.2668(2) -0.9749(4) 0.03729(16)
O4C O 0.0205(2) -0.7471(4) -0.16942(19)
O5C O 0.1850(2) -0.9575(4) -0.31055(17)
O6C O 0.3712(2) -0.6573(4) -0.34278(17)
O7C O 0.4521(2) -0.2771(4) -0.16215(17)
O8C O 0.3254(2) -0.2620(4) 0.03365(17)
O9C O 0.0822(2) -0.4250(4) -0.02657(18)
O10C O 0.0514(2) -0.9410(4) -0.08428(18)
O11C O 0.10227(19) -0.7433(4) -0.29503(16)
O12C O 0.2795(2) -0.4583(4) -0.32378(17)
O13C O 0.3235(2) -0.2496(4) -0.22238(17)
O14C O 0.2100(2) -0.2314(4) -0.04658(17)
O15C O 0.1050(2) -0.6094(4) 0.06532(17)
O15_2 O 0.1050(2) -0.8906(4) -0.43468(17)
O16C O 0.22129(19) -0.7198(4) 0.01102(16)
O17C O 0.1039(2) -0.6831(4) -0.06242(17)
O18C O 0.3290(2) -0.3288(4) -0.09721(17)
O19C O 0.31986(19) -0.9706(3) -0.08847(15)
O20C O 0.37149(19) -0.7400(4) -0.21870(16)
O21C O 0.36393(19) -0.7880(3) 0.00573(15)
O22C O 0.41809(19) -0.5274(3) -0.11347(16)
O23C O 0.24716(19) -0.7115(4) -0.28391(16)
O24C O 0.34618(19) -0.5194(3) -0.00631(16)
O25C O 0.12616(19) -0.9204(4) -0.19524(15)
O26C O 0.21551(19) -0.4446(3) 0.03275(15)
O27C O 0.3976(2) -0.4793(3) -0.24156(16)
O28C O 0.19576(18) -0.8982(3) -0.08325(16)
O29C O 0.26649(18) -0.9073(3) -0.19447(15)
O30C O 0.43025(18) -0.7960(3) -0.09852(16)
O31C O 0.30118(17) -0.7073(3) -0.10203(15)
O32C O 0.17161(18) -0.6870(3) -0.17433(15)
O33C O 0.28026(19) -0.5119(3) -0.19272(15)
O34C O 0.21026(18) -0.5009(3) -0.08268(15)
N1C N 0.0069(3) -0.9652(5) -0.3472(2)
H1C H -0.0151 -1.0205 -0.3759
H2C H 0.0465 -1.0057 -0.3303
N2C N -0.0530(3) -0.7213(6) -0.3491(3)
H3C H -0.0387 -0.6608 -0.3194
H4C H -0.0817 -0.6805 -0.3791
N3C N 0.0548(3) -0.6320(5) -0.4355(2)
H5C H 0.0691 -0.6557 -0.4738
H6C H 0.0144 -0.5850 -0.4425
N4C N 0.1750(3) -0.3314(5) -0.4153(2)
H7C H 0.1771 -0.2563 -0.4375
H8C H 0.2153 -0.3766 -0.4176
H9C H 0.1690 -0.3122 -0.3747
C1C C -0.0406(4) -0.9341(7) -0.2967(3)
H10C H -0.0129 -0.9033 -0.2589
H11C H -0.0663 -1.0134 -0.2856
C2C C -0.0916(4) -0.8293(8) -0.3198(3)
H12C H -0.1266 -0.8667 -0.3508
H13C H -0.1163 -0.7948 -0.2845
C3C C 0.1096(3) -0.5423(6) -0.4048(3)
H14C H 0.1554 -0.5868 -0.4024
H15C H 0.0979 -0.5228 -0.3616
C4C C 0.1146(3) -0.4126(7) -0.4418(3)
H16C H 0.1208 -0.4322 -0.4862
H17C H 0.0708 -0.3628 -0.4397
N5 N 0.3132(3) -0.5859(5) 0.1193(2)
H18 H 0.3382 -0.6428 0.1002
H19 H 0.2676 -0.5900 0.1152
N6 N 0.4662(3) -0.3923(5) 0.1980(2)
H20 H 0.4423 -0.3343 0.2176
H21 H 0.5119 -0.3903 0.2013
C5 C 0.3489(3) -0.4806(6) 0.1594(3)
H22 H 0.3351 -0.4880 0.2028
H23 H 0.3345 -0.3936 0.1432
C6 C 0.4286(3) -0.4953(7) 0.1586(3)
H24 H 0.4427 -0.5826 0.1747
H25 H 0.4421 -0.4884 0.1151
N7 N 0.5209(2) -0.4172(5) 0.4243(2)
H26 H 0.4988 -0.3538 0.4009
H27 H 0.5237 -0.4906 0.4009
H28 H 0.5646 -0.3899 0.4371
C7 C 0.4806(3) -0.4459(5) 0.4806(2)
H29 H 0.4328 -0.4751 0.4670
H30 H 0.4772 -0.3662 0.5062
N7B N 0.4791(2) -0.5828(5) 0.5757(2)
H26B H 0.5012 -0.6462 0.5991
H27B H 0.4763 -0.5094 0.5991
H28B H 0.4354 -0.6101 0.5629
C7B C 0.5194(3) -0.5541(5) 0.5194(2)
H29B H 0.5672 -0.5249 0.5330
H30B H 0.5228 -0.6338 0.4938
O35 O 0.4158(2) -1.1592(4) 0.1309(2)
O36 O 0.1885(3) -0.2709(5) 0.2054(2)
loop_
_geom_bond_atom_site_label_1
_geom_bond_atom_site_label_2
_geom_bond_site_symmetry_1
_geom_bond_site_symmetry_2
Mo1 O1 1_555 1_555
Mo2 O2 1_555 1_555
Mo3 O3 1_555 1_555
Mo4 O4 1_555 1_555
Mo5 O5 1_555 1_555
Mo6 O6 1_555 1_555
Mo7 O7 1_555 1_555
Mo8 O8 1_555 1_555
Mo9 O9 1_555 1_555
As1 O31 1_555 1_555
As2 O19 1_555 1_555
Cu1 O11 1_555 1_555
O10 Mo4 1_555 1_555
O11 Mo5 1_555 1_555
O12 Mo6 1_555 1_555
O13 Mo7 1_555 1_555
O14 Mo8 1_555 1_555
O15 Mo9 1_555 1_555
O16 Mo3 1_555 1_555
O17 Mo4 1_555 1_555
O18 Mo7 1_555 1_555
O19 Mo1 1_555 1_555
O20 Mo1 1_555 1_555
O21 Mo2 1_555 1_555
O22 Mo2 1_555 1_555
O23 Mo5 1_555 1_555
O24 Mo2 1_555 1_555
O25 Mo4 1_555 1_555
O26 Mo8 1_555 1_555
O27 Mo6 1_555 1_555
O28 Mo3 1_555 1_555
O29 Mo1 1_555 1_555
O30 Mo1 1_555 1_555
O31 Mo1 1_555 1_555
O32 Mo4 1_555 1_555
O33 Mo6 1_555 1_555
O34 Mo8 1_555 1_555
N1 Cu1 1_555 1_555
H1 N1 1_555 1_555
H2 N1 1_555 1_555
N2 Cu1 1_555 1_555
H3 N2 1_555 1_555
H4 N2 1_555 1_555
N3 Cu1 1_555 1_555
H5 N3 1_555 1_555
H6 N3 1_555 1_555
N4 H7 1_555 1_555
H8 N4 1_555 1_555
H9 N4 1_555 1_555
C1 N1 1_555 1_555
H10 C1 1_555 1_555
H11 C1 1_555 1_555
C2 N2 1_555 1_555
H12 C2 1_555 1_555
H13 C2 1_555 1_555
C3 N3 1_555 1_555
H14 C3 1_555 1_555
H15 C3 1_555 1_555
C4 N4 1_555 1_555
H16 C4 1_555 1_555
H17 C4 1_555 1_555
N5 H18 1_555 1_555
H19 N5 1_555 1_555
N6 H20 1_555 1_555
H21 N6 1_555 1_555
C5 N5 1_555 1_555
H22 C5 1_555 1_555
H23 C5 1_555 1_555
C6 N6 1_555 1_555
H24 C6 1_555 1_555
H25 C6 1_555 1_555
N7 H26 1_555 1_555
H27 N7 1_555 1_555
H28 N7 1_555 1_555
C7 N7 1_555 1_555
H29 C7 1_555 1_555
H30 C7 1_555 1_555
Mo1C O1C 1_555 1_555
Mo2C O2C 1_555 1_555
Mo3C O3C 1_555 1_555
Mo4C O4C 1_555 1_555
Mo5C O5C 1_555 1_555
Mo6C O6C 1_555 1_555
Mo7C O7C 1_555 1_555
Mo8C O8C 1_555 1_555
Mo9C O9C 1_555 1_555
As1C O31C 1_555 1_555
As2C O19C 1_555 1_555
Cu1C O11C 1_555 1_555
Cu1C_2 O15 1_555 1_555
O10C Mo4C 1_555 1_555
O11C Mo5C 1_555 1_555
O12C Mo6C 1_555 1_555
O13C Mo7C 1_555 1_555
O14C Mo8C 1_555 1_555
O15C Cu1 1_555 1_555
O15_2 Cu1C 1_555 1_555
O16C Mo3C 1_555 1_555
O17C Mo4C 1_555 1_555
O18C Mo7C 1_555 1_555
O19C Mo1C 1_555 1_555
O20C Mo1C 1_555 1_555
O21C Mo2C 1_555 1_555
O22C Mo2C 1_555 1_555
O23C Mo5C 1_555 1_555
O24C Mo2C 1_555 1_555
O25C Mo4C 1_555 1_555
O26C Mo8C 1_555 1_555
O27C Mo6C 1_555 1_555
O28C Mo3C 1_555 1_555
O29C Mo1C 1_555 1_555
O30C Mo1C 1_555 1_555
O31C Mo1C 1_555 1_555
O32C Mo4C 1_555 1_555
O33C Mo6C 1_555 1_555
O34C Mo8C 1_555 1_555
N1C Cu1C 1_555 1_555
H1C N1C 1_555 1_555
H2C N1C 1_555 1_555
N2C Cu1C 1_555 1_555
H3C N2C 1_555 1_555
H4C N2C 1_555 1_555
N3C Cu1C 1_555 1_555
H5C N3C 1_555 1_555
H6C N3C 1_555 1_555
N4C H7C 1_555 1_555
H8C N4C 1_555 1_555
H9C N4C 1_555 1_555
C1C N1C 1_555 1_555
H10C C1C 1_555 1_555
H11C C1C 1_555 1_555
C2C N2C 1_555 1_555
H12C C2C 1_555 1_555
H13C C2C 1_555 1_555
C3C N3C 1_555 1_555
H14C C3C 1_555 1_555
H15C C3C 1_555 1_555
C4C N4C 1_555 1_555
H16C C4C 1_555 1_555
H17C C4C 1_555 1_555
N7B H26B 1_555 1_555
H27B N7B 1_555 1_555
H28B N7B 1_555 1_555
C7B C7 1_555 1_555
H29B C7B 1_555 1_555
H30B C7B 1_555 1_555
Mo2 O30 1_555 1_555
Mo2 O31 1_555 1_555
Mo3 O19 1_555 1_555
Mo3 O21 1_555 1_555
Mo3 O31 1_555 1_555
Mo4 O28 1_555 1_555
Mo5 O25 1_555 1_555
Mo5 O29 1_555 1_555
Mo5 O32 1_555 1_555
Mo6 O20 1_555 1_555
Mo6 O23 1_555 1_555
Mo7 O22 1_555 1_555
Mo7 O27 1_555 1_555
Mo7 O33 1_555 1_555
Mo8 O18 1_555 1_555
Mo8 O24 1_555 1_555
Mo9 O16 1_555 1_555
Mo9 O17 1_555 1_555
Mo9 O26 1_555 1_555
Mo9 O34 1_555 1_555
As1 O32 1_555 1_555
As1 O33 1_555 1_555
As1 O34 1_555 1_555
As2 O28 1_555 1_555
As2 O29 1_555 1_555
C1 C2 1_555 1_555
C3 C4 1_555 1_555
C5 C6 1_555 1_555
Mo2C O30C 1_555 1_555
Mo2C O31C 1_555 1_555
Mo3C O19C 1_555 1_555
Mo3C O21C 1_555 1_555
Mo3C O31C 1_555 1_555
Mo4C O28C 1_555 1_555
Mo5C O25C 1_555 1_555
Mo5C O29C 1_555 1_555
Mo5C O32C 1_555 1_555
Mo6C O20C 1_555 1_555
Mo6C O23C 1_555 1_555
Mo7C O22C 1_555 1_555
Mo7C O27C 1_555 1_555
Mo7C O33C 1_555 1_555
Mo8C O18C 1_555 1_555
Mo8C O24C 1_555 1_555
Mo9C O15C 1_555 1_555
Mo9C O16C 1_555 1_555
Mo9C O17C 1_555 1_555
Mo9C O26C 1_555 1_555
Mo9C O34C 1_555 1_555
As1C O32C 1_555 1_555
As1C O33C 1_555 1_555
As1C O34C 1_555 1_555
As2C O28C 1_555 1_555
As2C O29C 1_555 1_555
C1C C2C 1_555 1_555
C3C C4C 1_555 1_555
N7B C7B 1_555 1_555

#END
