
#######################################################################
#
#                 Cambridge Crystallographic Data Centre
#                                CCDC 
#
#######################################################################
#
# If this CIF has been generated from an entry in the Cambridge 
# Structural Database, then it will include bibliographic, chemical, 
# crystal, experimental, refinement or atomic coordinate data resulting 
# from the CCDC's data processing and validation procedures.
#
#######################################################################

data_OTESUC
_symmetry_cell_setting           monoclinic
_symmetry_space_group_name_H-M   'P 21/c'
_symmetry_Int_Tables_number      14
_space_group_name_Hall           '-P 2ybc'
loop_
_symmetry_equiv_pos_site_id
_symmetry_equiv_pos_as_xyz
1 x,y,z
2 -x,1/2+y,1/2-z
3 -x,-y,-z
4 x,1/2-y,1/2+z
_cell_length_a                   18.540(4)
_cell_length_b                   13.302(3)
_cell_length_c                   43.600(12)
_cell_angle_alpha                90
_cell_angle_beta                 113.68(3)
_cell_angle_gamma                90
_cell_volume                     9847.25
loop_
_atom_site_label
_atom_site_type_symbol
_atom_site_fract_x
_atom_site_fract_y
_atom_site_fract_z
Cu3 Cu -1.0028(13) -1.4980(18) -0.9931(4)
O63 O -0.881(2) -1.463(2) -0.9840(8)
O64 O -1.011(2) -1.417(2) -1.0448(8)
Cu3B Cu -0.9972(13) -1.5020(18) -1.0069(4)
O63B O -1.119(2) -1.537(2) -1.0160(8)
O64B O -0.989(2) -1.583(2) -0.9552(8)
C12 C -1.306(4) -1.676(4) -0.9455(14)
H24 H -1.2765 -1.7367 -0.9457
H25 H -1.2838 -1.6454 -0.9232
H26 H -1.3033 -1.6280 -0.9621
C21 C -1.5004(18) -1.771(2) -0.9700(7)
H37 H -1.5413 -1.8195 -0.9772
C22 C -1.4249(19) -1.788(2) -0.9627(8)
H38 H -1.4022 -1.8515 -0.9637
N5 N -1.3866(18) -1.702(2) -0.9537(8)
C23 C -1.4384(19) -1.631(2) -0.9555(7)
H39 H -1.4271 -1.5618 -0.9504
N6 N -1.5087(17) -1.674(2) -0.9656(7)
O65 O -1.862(2) -1.450(2) -0.8187(8)
W1 W -1.22829(12) -1.09843(13) -0.78629(4)
W2 W -1.51161(12) -1.36026(13) -0.87126(4)
W3 W -1.33055(12) -1.48140(13) -0.86994(5)
W4 W -1.45877(12) -1.07305(13) -0.93358(4)
W5 W -0.95702(12) -1.17945(14) -0.86118(4)
W6 W -1.06982(12) -1.03432(14) -0.92678(4)
W7 W -1.34071(12) -0.95672(13) -0.85169(4)
W8 W -1.51687(12) -1.10785(13) -0.86235(4)
W9 W -1.05720(12) -1.06869(13) -0.81100(4)
W10 W -1.28109(12) -1.29506(14) -0.96632(4)
W11 W -1.05431(12) -1.34283(13) -0.82072(4)
W12 W -1.17043(12) -0.92731(13) -0.87638(4)
W13 W -1.28701(12) -1.04418(13) -0.95788(4)
W14 W -1.15933(12) -1.45177(13) -0.89462(4)
W15 W -1.45112(12) -1.32298(13) -0.94124(4)
W16 W -1.40371(12) -1.25088(13) -0.79655(4)
W17 W -1.22429(12) -1.37312(13) -0.79620(4)
W18 W -1.06421(12) -1.28711(14) -0.93609(4)
Cu1 Cu -1.4278(4) -1.3976(4) -0.72305(13)
Cu2 Cu -1.0061(4) -1.3781(6) -0.50173(16)
P1 P -1.1626(9) -1.1906(11) -0.8881(3)
P2 P -1.3431(9) -1.2186(9) -0.8617(3)
C1 C -0.709(4) -1.188(4) -0.3410(13)
H1 H -0.6549 -1.2153 -0.3349
H2 H -0.7331 -1.2252 -0.3280
C2 C -0.757(4) -1.206(4) -0.3784(12)
H3 H -0.7370 -1.1614 -0.3915
H4 H -0.8127 -1.1872 -0.3840
C3 C -0.753(4) -1.310(4) -0.3877(13)
H5 H -0.6972 -1.3278 -0.3816
H6 H -0.7732 -1.3532 -0.3744
C4 C -1.357(4) -1.290(4) -0.5873(14)
H7 H -1.3442 -1.2997 -0.6070
H8 H -1.3326 -1.2272 -0.5760
C5 C -1.450(4) -1.282(4) -0.5994(13)
H9 H -1.4736 -1.3475 -0.6091
H10 H -1.4620 -1.2698 -0.5796
C6 C -1.489(3) -1.200(4) -0.6251(12)
H11 H -1.4714 -1.1331 -0.6149
H12 H -1.5467 -1.2040 -0.6329
C7 C -1.109(4) -1.362(4) -0.6801(13)
H13 H -1.0701 -1.4009 -0.6619
H14 H -1.0978 -1.2901 -0.6760
H15 H -1.1070 -1.3809 -0.7014
C8 C -1.166(4) -1.789(4) -0.7924(14)
H16 H -1.1533 -1.8606 -0.7945
H17 H -1.2133 -1.7720 -0.8124
C9 C -1.215(4) -1.688(4) -0.7523(13)
H18 H -1.1834 -1.6289 -0.7529
H19 H -1.2141 -1.6952 -0.7296
C10 C -1.185(4) -1.779(4) -0.7621(13)
H20 H -1.2243 -1.8328 -0.7643
H21 H -1.1368 -1.7982 -0.7425
C11 C -1.298(4) -1.680(4) -0.7782(14)
H22 H -1.3171 -1.7476 -0.7874
H23 H -1.2986 -1.6369 -0.7968
C13 C -0.703(3) -1.080(3) -0.3321(10)
H27 H -0.6837 -1.0412 -0.3466
H28 H -0.7562 -1.0539 -0.3357
C14 C -1.323(3) -1.380(4) -0.5628(13)
H29 H -1.3304 -1.3678 -0.5417
H30 H -1.3505 -1.4430 -0.5729
O1 O -1.4842(17) -1.1524(18) -0.8165(6)
O2 O -1.4761(18) -1.3488(19) -0.8221(6)
O3 O -1.3775(19) -1.069(2) -0.9506(7)
O4 O -1.0893(18) -0.9401(19) -0.8332(6)
O5 O -1.0599(19) -1.211(2) -0.8057(7)
O6 O -1.1693(17) -0.8011(18) -0.8802(6)
O7 O -1.0405(18) -0.944(2) -0.9470(7)
O8 O -1.0972(18) -0.9582(19) -0.8956(6)
O9 O -1.1416(19) -1.065(2) -0.7986(7)
O10 O -1.0533(18) -1.1499(19) -0.9488(7)
O11 O -1.5677(17) -1.2341(18) -0.8744(6)
O12 O -0.8562(18) -1.1757(19) -0.8391(6)
O13 O -1.0307(17) -1.3509(17) -0.9620(6)
O14 O -1.093(2) -1.174(2) -0.8996(8)
O15 O -1.420(2) -1.229(2) -0.8533(8)
O16 O -1.180(2) -1.428(2) -0.7589(8)
O17 O -1.3684(19) -0.835(2) -0.8509(7)
O18 O -1.5109(18) -1.4001(19) -0.9719(6)
O19 O -0.9886(18) -1.2893(19) -0.8413(6)
O20 O -1.2967(17) -1.1291(18) -0.8453(6)
O21 O -1.0895(19) -1.384(2) -0.9111(7)
O22 O -1.5878(18) -1.4464(19) -0.8801(6)
O23 O -0.979(2) -1.397(2) -0.7863(7)
O24 O -0.9692(19) -1.066(2) -0.8910(7)
O25 O -1.3204(19) -0.956(2) -0.9884(7)
O26 O -1.183(2) -1.070(2) -0.7452(7)
O27 O -1.1516(18) -1.5681(19) -0.9073(6)
O28 O -1.281(2) -0.977(2) -0.8049(8)
O29 O -0.9919(18) -1.0955(19) -0.8352(6)
O30 O -1.2330(18) -1.4800(19) -0.8759(6)
O31 O -1.1613(18) -1.1045(19) -0.8649(6)
O32 O -1.2424(18) -1.3980(19) -0.9342(6)
O33 O -1.3783(17) -1.4218(18) -0.9119(6)
O34 O -1.2346(18) -1.1850(19) -0.9199(6)
O35 O -1.2512(18) -0.9639(19) -0.9183(6)
O36 O -1.1385(18) -1.3786(19) -0.8098(6)
O37 O -1.5001(17) -1.1952(18) -0.9570(6)
O38 O -1.3038(17) -1.1614(18) -0.9843(6)
O39 O -1.1738(19) -1.277(2) -0.9612(7)
O40 O -1.1796(17) -1.0440(18) -0.9531(6)
O41 O -0.9872(17) -1.0356(18) -0.7740(6)
O42 O -1.3243(17) -1.1528(18) -0.7856(6)
O43 O -1.3241(18) -1.3434(19) -0.7928(6)
O44 O -1.3779(18) -1.297(2) -0.9594(7)
O45 O -1.1566(18) -1.2900(19) -0.8731(6)
O46 O -1.0777(18) -1.454(2) -0.8502(6)
O47 O -1.3926(17) -0.9927(18) -0.8968(6)
O48 O -1.2952(17) -1.3088(18) -0.8509(6)
O49 O -1.243(2) -0.936(2) -0.8571(8)
O50 O -1.3174(17) -1.3635(18) -1.0029(6)
O51 O -1.4144(17) -1.2736(18) -0.7610(6)
O52 O -0.9658(17) -1.2656(18) -0.8975(6)
O53 O -1.5923(17) -1.0345(18) -0.8652(6)
O54 O -1.3779(17) -1.2077(19) -0.8986(6)
O55 O -1.5159(17) -1.0979(18) -0.9052(6)
O56 O -1.2694(18) -1.4913(19) -0.8226(6)
O57 O -1.2021(19) -1.239(2) -0.7848(7)
O58 O -1.3504(17) -1.6014(18) -0.8790(6)
O59 O -1.4249(19) -1.443(2) -0.8625(7)
O60 O -1.5044(18) -1.3323(19) -0.9122(7)
O61 O -1.524(2) -0.987(2) -0.9590(7)
O62 O -1.4298(19) -1.015(2) -0.8475(7)
N1 N -1.0994(19) -1.727(2) -0.7928(8)
C15 C -1.097(2) -1.641(2) -0.8043(8)
H31 H -1.1417 -1.6006 -0.8172
N2 N -1.026(2) -1.617(2) -0.7958(8)
C16 C -0.984(2) -1.688(3) -0.7790(9)
H32 H -0.9281 -1.6904 -0.7694
C17 C -1.029(2) -1.757(2) -0.7771(8)
H33 H -1.0136 -1.8191 -0.7659
C18 C -1.418(2) -1.617(2) -0.7326(8)
H34 H -1.4462 -1.6311 -0.7191
C19 C -1.387(2) -1.684(2) -0.7461(8)
H35 H -1.3893 -1.7550 -0.7441
N3 N -1.353(2) -1.635(2) -0.7630(7)
C20 C -1.362(2) -1.538(2) -0.7599(8)
H36 H -1.3437 -1.4853 -0.7695
N4 N -1.403(2) -1.527(2) -0.7411(8)
N7 N -1.312(2) -1.388(2) -0.6959(8)
C24 C -1.279(2) -1.451(3) -0.6708(9)
H40 H -1.3064 -1.4912 -0.6609
C25 C -1.203(2) -1.448(3) -0.6619(9)
H41 H -1.1646 -1.4855 -0.6443
N8 N -1.188(2) -1.383(3) -0.6814(9)
C26 C -1.256(2) -1.346(3) -0.7025(8)
H42 H -1.2624 -1.2978 -0.7195
N9 N -1.2410(18) -1.385(2) -0.5563(8)
C27 C -1.214(2) -1.414(3) -0.5802(8)
H43 H -1.2461 -1.4291 -0.6030
C28 C -1.133(2) -1.417(3) -0.5655(9)
H44 H -1.0994 -1.4341 -0.5762
N10 N -1.1099(18) -1.389(2) -0.5324(8)
C29 C -1.1765(17) -1.370(2) -0.5268(7)
H45 H -1.1777 -1.3496 -0.5061
C30 C -1.475(2) -1.299(2) -0.6728(8)
H46 H -1.4982 -1.3586 -0.6691
N11 N -1.448(2) -1.285(2) -0.6960(7)
C31 C -1.421(2) -1.194(2) -0.6932(8)
H47 H -1.3979 -1.1641 -0.7069
C32 C -1.431(2) -1.151(2) -0.6683(8)
H48 H -1.4161 -1.0841 -0.6607
N12 N -1.464(2) -1.216(2) -0.6557(7)
C33 C -0.6698(18) -1.041(2) -0.2707(7)
H49 H -0.7213 -1.0229 -0.2729
N13 N -0.6483(17) -1.067(2) -0.2962(6)
C34 C -0.5693(16) -1.087(2) -0.2826(6)
H50 H -0.5387 -1.1071 -0.2946
N14 N -0.5419(18) -1.073(2) -0.2487(7)
C35 C -0.604(2) -1.044(2) -0.2413(7)
H51 H -0.6019 -1.0296 -0.2197
N15 N -0.9004(17) -1.359(2) -0.4732(7)
C36 C -0.8322(18) -1.374(2) -0.4778(7)
H52 H -0.8288 -1.3927 -0.4982
C37 C -0.7697(17) -1.358(2) -0.4478(7)
H53 H -0.7155 -1.3626 -0.4438
N16 N -0.7993(18) -1.332(2) -0.4246(7)
C38 C -0.8801(17) -1.333(2) -0.4402(7)
H54 H -0.9156 -1.3187 -0.4301
W1C W -2.22829(12) -1.40157(13) -1.28629(4)
W2C W -2.51161(12) -1.13974(13) -1.37126(4)
W3C W -2.33055(12) -1.01860(13) -1.36994(5)
W4C W -2.45877(12) -1.42695(13) -1.43358(4)
W5C W -1.95702(12) -1.32055(14) -1.36118(4)
W6C W -2.06982(12) -1.46568(14) -1.42678(4)
W7C W -2.34071(12) -1.54328(13) -1.35169(4)
W8C W -2.51687(12) -1.39215(13) -1.36235(4)
W9C W -2.05720(12) -1.43131(13) -1.31100(4)
W10C W -2.28109(12) -1.20494(14) -1.46632(4)
W11C W -2.05431(12) -1.15717(13) -1.32072(4)
W12C W -2.17043(12) -1.57269(13) -1.37638(4)
W13C W -2.28701(12) -1.45582(13) -1.45788(4)
W14C W -2.15933(12) -1.04823(13) -1.39462(4)
W15C W -2.45112(12) -1.17702(13) -1.44124(4)
W16C W -2.40371(12) -1.24912(13) -1.29655(4)
W17C W -2.22429(12) -1.12688(13) -1.29620(4)
W18C W -2.06421(12) -1.21289(14) -1.43609(4)
Cu1C Cu -2.4278(4) -1.1024(4) -1.22305(13)
Cu1C_2 Cu -0.4278(4) -1.1024(4) -0.22305(13)
Cu2C Cu -2.0061(4) -1.1219(6) -1.00173(16)
P1C P -2.1626(9) -1.3094(11) -1.3881(3)
P2C P -2.3431(9) -1.2814(9) -1.3617(3)
C1C C -1.709(4) -1.312(4) -0.8410(13)
H1C H -1.6549 -1.2847 -0.8349
H2C H -1.7331 -1.2748 -0.8280
C2C C -1.757(4) -1.294(4) -0.8784(12)
H3C H -1.7370 -1.3386 -0.8915
H4C H -1.8127 -1.3128 -0.8840
C3C C -1.753(4) -1.190(4) -0.8877(13)
H5C H -1.6972 -1.1722 -0.8816
H6C H -1.7732 -1.1468 -0.8744
C4C C -2.357(4) -1.210(4) -1.0873(14)
H7C H -2.3442 -1.2003 -1.1070
H8C H -2.3326 -1.2728 -1.0760
C5C C -2.450(4) -1.218(4) -1.0994(13)
H9C H -2.4736 -1.1525 -1.1091
H10C H -2.4620 -1.2302 -1.0796
C6C C -2.489(3) -1.300(4) -1.1251(12)
H11C H -2.4714 -1.3669 -1.1149
H12C H -2.5467 -1.2960 -1.1329
C7C C -2.109(4) -1.138(4) -1.1801(13)
H13C H -2.0701 -1.0991 -1.1619
H14C H -2.0978 -1.2099 -1.1760
H15C H -2.1070 -1.1191 -1.2014
C8C C -2.166(4) -0.711(4) -1.2924(14)
H16C H -2.1533 -0.6394 -1.2945
H17C H -2.2133 -0.7280 -1.3124
C9C C -2.215(4) -0.812(4) -1.2523(13)
H18C H -2.1834 -0.8711 -1.2529
H19C H -2.2141 -0.8048 -1.2296
C10C C -2.185(4) -0.721(4) -1.2621(13)
H20C H -2.2243 -0.6672 -1.2643
H21C H -2.1368 -0.7018 -1.2425
C11C C -2.298(4) -0.820(4) -1.2782(14)
H22C H -2.3171 -0.7524 -1.2874
H23C H -2.2986 -0.8631 -1.2968
C13C C -1.703(3) -1.420(3) -0.8321(10)
H27C H -1.6837 -1.4588 -0.8466
H28C H -1.7562 -1.4461 -0.8357
C14C C -2.323(3) -1.120(4) -1.0628(13)
H29C H -2.3304 -1.1322 -1.0417
H30C H -2.3505 -1.0570 -1.0729
O1C O -2.4842(17) -1.3476(18) -1.3165(6)
O2C O -2.4761(18) -1.1512(19) -1.3221(6)
O3C O -2.3775(19) -1.431(2) -1.4506(7)
O4C O -2.0893(18) -1.5599(19) -1.3332(6)
O5C O -2.0599(19) -1.289(2) -1.3057(7)
O6C O -2.1693(17) -1.6989(18) -1.3802(6)
O7C O -2.0405(18) -1.556(2) -1.4470(7)
O8C O -2.0972(18) -1.5418(19) -1.3956(6)
O9C O -2.1416(19) -1.435(2) -1.2986(7)
O10C O -2.0533(18) -1.3501(19) -1.4488(7)
O11C O -2.5677(17) -1.2659(18) -1.3744(6)
O12C O -1.8562(18) -1.3243(19) -1.3391(6)
O13C O -2.0307(17) -1.1491(17) -1.4620(6)
O14C O -2.093(2) -1.326(2) -1.3996(8)
O15C O -2.420(2) -1.271(2) -1.3533(8)
O16C O -2.180(2) -1.072(2) -1.2589(8)
O17C O -2.3684(19) -1.665(2) -1.3509(7)
O18C O -2.5109(18) -1.0999(19) -1.4719(6)
O19C O -1.9886(18) -1.2107(19) -1.3413(6)
O20C O -2.2967(17) -1.3709(18) -1.3453(6)
O21C O -2.0895(19) -1.116(2) -1.4111(7)
O22C O -2.5878(18) -1.0536(19) -1.3801(6)
O23C O -1.979(2) -1.103(2) -1.2863(7)
O24C O -1.9692(19) -1.434(2) -1.3910(7)
O25C O -2.3204(19) -1.544(2) -1.4884(7)
O26C O -2.183(2) -1.430(2) -1.2452(7)
O27C O -2.1516(18) -0.9319(19) -1.4073(6)
O28C O -2.281(2) -1.523(2) -1.3049(8)
O29C O -1.9919(18) -1.4045(19) -1.3352(6)
O30C O -2.2330(18) -1.0200(19) -1.3759(6)
O31C O -2.1613(18) -1.3955(19) -1.3649(6)
O32C O -2.2424(18) -1.1020(19) -1.4342(6)
O33C O -2.3783(17) -1.0782(18) -1.4119(6)
O34C O -2.2346(18) -1.3150(19) -1.4199(6)
O35C O -2.2512(18) -1.5361(19) -1.4183(6)
O36C O -2.1385(18) -1.1214(19) -1.3098(6)
O37C O -2.5001(17) -1.3048(18) -1.4570(6)
O38C O -2.3038(17) -1.3386(18) -1.4843(6)
O39C O -2.1738(19) -1.223(2) -1.4612(7)
O40C O -2.1796(17) -1.4560(18) -1.4531(6)
O41C O -1.9872(17) -1.4644(18) -1.2740(6)
O42C O -2.3243(17) -1.3472(18) -1.2856(6)
O43C O -2.3241(18) -1.1566(19) -1.2928(6)
O44C O -2.3779(18) -1.203(2) -1.4594(7)
O45C O -2.1566(18) -1.2100(19) -1.3731(6)
O46C O -2.0777(18) -1.046(2) -1.3502(6)
O47C O -2.3926(17) -1.5073(18) -1.3968(6)
O48C O -2.2952(17) -1.1912(18) -1.3509(6)
O49C O -2.243(2) -1.564(2) -1.3571(8)
O50C O -2.3174(17) -1.1365(18) -1.5029(6)
O51C O -2.4144(17) -1.2264(18) -1.2610(6)
O52C O -1.9658(17) -1.2344(18) -1.3975(6)
O53C O -2.5923(17) -1.4655(18) -1.3652(6)
O54C O -2.3779(17) -1.2923(19) -1.3986(6)
O55C O -2.5159(17) -1.4021(18) -1.4052(6)
O56C O -2.2694(18) -1.0087(19) -1.3226(6)
O57C O -2.2021(19) -1.261(2) -1.2848(7)
O58C O -2.3504(17) -0.8986(18) -1.3790(6)
O59C O -2.4249(19) -1.057(2) -1.3625(7)
O60C O -2.5044(18) -1.1677(19) -1.4122(7)
O61C O -2.524(2) -1.513(2) -1.4590(7)
O62C O -2.4298(19) -1.485(2) -1.3475(7)
N1C N -2.0994(19) -0.773(2) -1.2928(8)
C15C C -2.097(2) -0.859(2) -1.3043(8)
H31C H -2.1417 -0.8994 -1.3172
N2C N -2.026(2) -0.883(2) -1.2958(8)
C16C C -1.984(2) -0.812(3) -1.2790(9)
H32C H -1.9281 -0.8096 -1.2694
C17C C -2.029(2) -0.743(2) -1.2771(8)
H33C H -2.0136 -0.6809 -1.2659
C18C C -2.418(2) -0.883(2) -1.2326(8)
H34C H -2.4462 -0.8689 -1.2191
C19C C -2.387(2) -0.816(2) -1.2461(8)
H35C H -2.3893 -0.7450 -1.2441
N3C N -2.353(2) -0.865(2) -1.2630(7)
C20C C -2.362(2) -0.962(2) -1.2599(8)
H36C H -2.3437 -1.0147 -1.2695
N4C N -2.403(2) -0.973(2) -1.2411(8)
N7C N -2.312(2) -1.112(2) -1.1959(8)
C24C C -2.279(2) -1.049(3) -1.1708(9)
H40C H -2.3064 -1.0088 -1.1609
C25C C -2.203(2) -1.052(3) -1.1619(9)
H41C H -2.1646 -1.0145 -1.1443
N8C N -2.188(2) -1.117(3) -1.1814(9)
C26C C -2.256(2) -1.154(3) -1.2025(8)
H42C H -2.2624 -1.2022 -1.2195
N9C N -2.2410(18) -1.115(2) -1.0563(8)
C27C C -2.214(2) -1.086(3) -1.0802(8)
H43C H -2.2461 -1.0709 -1.1030
C28C C -2.133(2) -1.083(3) -1.0655(9)
H44C H -2.0994 -1.0659 -1.0762
N10C N -2.1099(18) -1.111(2) -1.0324(8)
C29C C -2.1765(17) -1.130(2) -1.0268(7)
H45C H -2.1777 -1.1504 -1.0061
C30C C -2.475(2) -1.201(2) -1.1728(8)
H46C H -2.4982 -1.1414 -1.1691
N11C N -2.448(2) -1.215(2) -1.1960(7)
C31C C -2.421(2) -1.306(2) -1.1932(8)
H47C H -2.3979 -1.3359 -1.2069
C32C C -2.431(2) -1.349(2) -1.1683(8)
H48C H -2.4161 -1.4159 -1.1607
N12C N -2.464(2) -1.284(2) -1.1557(7)
C33C C -1.6698(18) -1.459(2) -0.7707(7)
H49C H -1.7213 -1.4771 -0.7729
N13C N -1.6483(17) -1.433(2) -0.7962(6)
C34C C -1.5693(16) -1.413(2) -0.7826(6)
H50C H -1.5387 -1.3929 -0.7946
N14C N -1.5419(18) -1.427(2) -0.7487(7)
N14_2 N -2.5419(18) -1.073(2) -1.2487(7)
C35C C -1.604(2) -1.456(2) -0.7413(7)
H51C H -1.6019 -1.4704 -0.7197
N15C N -1.9004(17) -1.141(2) -0.9732(7)
C36C C -1.8322(18) -1.126(2) -0.9778(7)
H52C H -1.8288 -1.1073 -0.9982
C37C C -1.7697(17) -1.142(2) -0.9478(7)
H53C H -1.7155 -1.1374 -0.9438
N16C N -1.7993(18) -1.168(2) -0.9246(7)
C38C C -1.8801(17) -1.167(2) -0.9402(7)
H54C H -1.9156 -1.1813 -0.9301
loop_
_geom_bond_atom_site_label_1
_geom_bond_atom_site_label_2
_geom_bond_site_symmetry_1
_geom_bond_site_symmetry_2
W1 O9 1_555 1_555
W2 O2 1_555 1_555
W3 O30 1_555 1_555
W4 O3 1_555 1_555
W5 O12 1_555 1_555
W6 O7 1_555 1_555
W7 O17 1_555 1_555
W8 O1 1_555 1_555
W9 O4 1_555 1_555
W10 O32 1_555 1_555
W11 O5 1_555 1_555
W12 O4 1_555 1_555
W13 O3 1_555 1_555
W14 O21 1_555 1_555
W15 O18 1_555 1_555
W16 O1 1_555 1_555
W17 O16 1_555 1_555
W18 O10 1_555 1_555
Cu1 O51 1_555 1_555
Cu2 N10 1_555 1_555
Cu3 O63 1_555 1_555
P1 O14 1_555 1_555
P2 O15 1_555 1_555
C1 H1 1_555 1_555
H2 C1 1_555 1_555
C2 C1 1_555 1_555
H3 C2 1_555 1_555
H4 C2 1_555 1_555
C3 C2 1_555 1_555
H5 C3 1_555 1_555
H6 C3 1_555 1_555
C4 H7 1_555 1_555
H8 C4 1_555 1_555
C5 C4 1_555 1_555
H9 C5 1_555 1_555
H10 C5 1_555 1_555
C6 C5 1_555 1_555
H11 C6 1_555 1_555
H12 C6 1_555 1_555
C7 H13 1_555 1_555
H14 C7 1_555 1_555
H15 C7 1_555 1_555
C8 H16 1_555 1_555
H17 C8 1_555 1_555
C9 H18 1_555 1_555
H19 C9 1_555 1_555
C10 C8 1_555 1_555
H20 C10 1_555 1_555
H21 C10 1_555 1_555
C11 C9 1_555 1_555
H22 C11 1_555 1_555
H23 C11 1_555 1_555
C12 H24 1_555 1_555
H25 C12 1_555 1_555
H26 C12 1_555 1_555
C13 C1 1_555 1_555
H27 C13 1_555 1_555
H28 C13 1_555 1_555
C14 C4 1_555 1_555
H29 C14 1_555 1_555
H30 C14 1_555 1_555
O2 W16 1_555 1_555
O5 W9 1_555 1_555
O6 W12 1_555 1_555
O8 W6 1_555 1_555
O9 W9 1_555 1_555
O10 W6 1_555 1_555
O11 W2 1_555 1_555
O13 W18 1_555 1_555
O14 W5 1_555 1_555
O15 W2 1_555 1_555
O19 W5 1_555 1_555
O20 W1 1_555 1_555
O21 W18 1_555 1_555
O22 W2 1_555 1_555
O23 W11 1_555 1_555
O24 W5 1_555 1_555
O25 W13 1_555 1_555
O26 W1 1_555 1_555
O27 W14 1_555 1_555
O28 W1 1_555 1_555
O29 W5 1_555 1_555
O30 W14 1_555 1_555
O31 W9 1_555 1_555
O32 W14 1_555 1_555
O33 W3 1_555 1_555
O34 W10 1_555 1_555
O35 W12 1_555 1_555
O36 W11 1_555 1_555
O37 W4 1_555 1_555
O38 W10 1_555 1_555
O39 W10 1_555 1_555
O40 W6 1_555 1_555
O41 W9 1_555 1_555
O42 W1 1_555 1_555
O43 W16 1_555 1_555
O44 W10 1_555 1_555
O45 W11 1_555 1_555
O46 W11 1_555 1_555
O47 W4 1_555 1_555
O48 W3 1_555 1_555
O49 W7 1_555 1_555
O50 W10 1_555 1_555
O51 W16 1_555 1_555
O52 W5 1_555 1_555
O53 W8 1_555 1_555
O54 W4 1_555 1_555
O55 W4 1_555 1_555
O56 W3 1_555 1_555
O57 W1 1_555 1_555
O58 W3 1_555 1_555
O59 W2 1_555 1_555
O60 W2 1_555 1_555
O61 W4 1_555 1_555
O62 W7 1_555 1_555
N1 C8 1_555 1_555
C15 N1 1_555 1_555
H31 C15 1_555 1_555
N2 C15 1_555 1_555
C16 N2 1_555 1_555
H32 C16 1_555 1_555
C17 N1 1_555 1_555
H33 C17 1_555 1_555
C18 H34 1_555 1_555
C19 C18 1_555 1_555
H35 C19 1_555 1_555
N3 C11 1_555 1_555
C20 N3 1_555 1_555
H36 C20 1_555 1_555
N4 Cu1 1_555 1_555
C21 H37 1_555 1_555
C22 C21 1_555 1_555
H38 C22 1_555 1_555
N5 C12 1_555 1_555
C23 N5 1_555 1_555
H39 C23 1_555 1_555
N6 C21 1_555 1_555
N7 Cu1 1_555 1_555
C24 N7 1_555 1_555
H40 C24 1_555 1_555
C25 C24 1_555 1_555
H41 C25 1_555 1_555
N8 C7 1_555 1_555
C26 N7 1_555 1_555
H42 C26 1_555 1_555
N9 C14 1_555 1_555
C27 N9 1_555 1_555
H43 C27 1_555 1_555
C28 C27 1_555 1_555
H44 C28 1_555 1_555
N10 C28 1_555 1_555
C29 N9 1_555 1_555
H45 C29 1_555 1_555
C30 H46 1_555 1_555
N11 Cu1 1_555 1_555
C31 N11 1_555 1_555
H47 C31 1_555 1_555
C32 C31 1_555 1_555
H48 C32 1_555 1_555
N12 C6 1_555 1_555
C33 H49 1_555 1_555
N13 C13 1_555 1_555
C34 N13 1_555 1_555
H50 C34 1_555 1_555
N14 C34 1_555 1_555
C35 C33 1_555 1_555
H51 C35 1_555 1_555
N15 Cu2 1_555 1_555
C36 N15 1_555 1_555
H52 C36 1_555 1_555
C37 C36 1_555 1_555
H53 C37 1_555 1_555
N16 C3 1_555 1_555
C38 N15 1_555 1_555
H54 C38 1_555 1_555
O63 Cu3B 1_555 1_555
O64 Cu3 1_555 1_555
W1C O9C 1_555 1_555
W2C O2C 1_555 1_555
W3C O30C 1_555 1_555
W4C O3C 1_555 1_555
W5C O12C 1_555 1_555
W6C O7C 1_555 1_555
W7C O17C 1_555 1_555
W8C O1C 1_555 1_555
W9C O4C 1_555 1_555
W10C O32C 1_555 1_555
W11C O5C 1_555 1_555
W12C O4C 1_555 1_555
W13C O3C 1_555 1_555
W14C O21C 1_555 1_555
W15C O18C 1_555 1_555
W16C O1C 1_555 1_555
W17C O16C 1_555 1_555
W18C O10C 1_555 1_555
Cu1C O51C 1_555 1_555
Cu1C_2 N14 1_555 1_555
Cu2C N10C 1_555 1_555
Cu3B Cu3 1_555 1_555
P1C O14C 1_555 1_555
P2C O15C 1_555 1_555
C1C H1C 1_555 1_555
H2C C1C 1_555 1_555
C2C C1C 1_555 1_555
H3C C2C 1_555 1_555
H4C C2C 1_555 1_555
C3C C2C 1_555 1_555
H5C C3C 1_555 1_555
H6C C3C 1_555 1_555
C4C H7C 1_555 1_555
H8C C4C 1_555 1_555
C5C C4C 1_555 1_555
H9C C5C 1_555 1_555
H10C C5C 1_555 1_555
C6C C5C 1_555 1_555
H11C C6C 1_555 1_555
H12C C6C 1_555 1_555
C7C H13C 1_555 1_555
H14C C7C 1_555 1_555
H15C C7C 1_555 1_555
C8C H16C 1_555 1_555
H17C C8C 1_555 1_555
C9C H18C 1_555 1_555
H19C C9C 1_555 1_555
C10C C8C 1_555 1_555
H20C C10C 1_555 1_555
H21C C10C 1_555 1_555
C11C C9C 1_555 1_555
H22C C11C 1_555 1_555
H23C C11C 1_555 1_555
C13C C1C 1_555 1_555
H27C C13C 1_555 1_555
H28C C13C 1_555 1_555
C14C C4C 1_555 1_555
H29C C14C 1_555 1_555
H30C C14C 1_555 1_555
O2C W16C 1_555 1_555
O5C W9C 1_555 1_555
O6C W12C 1_555 1_555
O8C W6C 1_555 1_555
O9C W9C 1_555 1_555
O10C W6C 1_555 1_555
O11C W2C 1_555 1_555
O13C W18C 1_555 1_555
O14C W5C 1_555 1_555
O15C W2C 1_555 1_555
O19C W5C 1_555 1_555
O20C W1C 1_555 1_555
O21C W18C 1_555 1_555
O22C W2C 1_555 1_555
O23C W11C 1_555 1_555
O24C W5C 1_555 1_555
O25C W13C 1_555 1_555
O26C W1C 1_555 1_555
O27C W14C 1_555 1_555
O28C W1C 1_555 1_555
O29C W5C 1_555 1_555
O30C W14C 1_555 1_555
O31C W9C 1_555 1_555
O32C W14C 1_555 1_555
O33C W3C 1_555 1_555
O34C W10C 1_555 1_555
O35C W12C 1_555 1_555
O36C W11C 1_555 1_555
O37C W4C 1_555 1_555
O38C W10C 1_555 1_555
O39C W10C 1_555 1_555
O40C W6C 1_555 1_555
O41C W9C 1_555 1_555
O42C W1C 1_555 1_555
O43C W16C 1_555 1_555
O44C W10C 1_555 1_555
O45C W11C 1_555 1_555
O46C W11C 1_555 1_555
O47C W4C 1_555 1_555
O48C W3C 1_555 1_555
O49C W7C 1_555 1_555
O50C W10C 1_555 1_555
O51C W16C 1_555 1_555
O52C W5C 1_555 1_555
O53C W8C 1_555 1_555
O54C W4C 1_555 1_555
O55C W4C 1_555 1_555
O56C W3C 1_555 1_555
O57C W1C 1_555 1_555
O58C W3C 1_555 1_555
O59C W2C 1_555 1_555
O60C W2C 1_555 1_555
O61C W4C 1_555 1_555
O62C W7C 1_555 1_555
N1C C8C 1_555 1_555
C15C N1C 1_555 1_555
H31C C15C 1_555 1_555
N2C C15C 1_555 1_555
C16C N2C 1_555 1_555
H32C C16C 1_555 1_555
C17C N1C 1_555 1_555
H33C C17C 1_555 1_555
C18C H34C 1_555 1_555
C19C C18C 1_555 1_555
H35C C19C 1_555 1_555
N3C C11C 1_555 1_555
C20C N3C 1_555 1_555
H36C C20C 1_555 1_555
N4C Cu1C 1_555 1_555
N7C Cu1C 1_555 1_555
C24C N7C 1_555 1_555
H40C C24C 1_555 1_555
C25C C24C 1_555 1_555
H41C C25C 1_555 1_555
N8C C7C 1_555 1_555
C26C N7C 1_555 1_555
H42C C26C 1_555 1_555
N9C C14C 1_555 1_555
C27C N9C 1_555 1_555
H43C C27C 1_555 1_555
C28C C27C 1_555 1_555
H44C C28C 1_555 1_555
N10C C28C 1_555 1_555
C29C N9C 1_555 1_555
H45C C29C 1_555 1_555
C30C H46C 1_555 1_555
N11C Cu1C 1_555 1_555
C31C N11C 1_555 1_555
H47C C31C 1_555 1_555
C32C C31C 1_555 1_555
H48C C32C 1_555 1_555
N12C C6C 1_555 1_555
C33C H49C 1_555 1_555
N13C C13C 1_555 1_555
C34C N13C 1_555 1_555
H50C C34C 1_555 1_555
N14C Cu1 1_555 1_555
N14_2 Cu1C 1_555 1_555
C35C C33C 1_555 1_555
H51C C35C 1_555 1_555
N15C Cu2C 1_555 1_555
C36C N15C 1_555 1_555
H52C C36C 1_555 1_555
C37C C36C 1_555 1_555
H53C C37C 1_555 1_555
N16C C3C 1_555 1_555
C38C N15C 1_555 1_555
H54C C38C 1_555 1_555
O63B Cu3 1_555 1_555
O64B Cu3 1_555 1_555
W3 O59 1_555 1_555
W6 O14 1_555 1_555
W6 O24 1_555 1_555
W7 O20 1_555 1_555
W7 O28 1_555 1_555
W7 O47 1_555 1_555
W8 O11 1_555 1_555
W8 O15 1_555 1_555
W8 O55 1_555 1_555
W8 O62 1_555 1_555
W9 O29 1_555 1_555
W11 O19 1_555 1_555
W12 O8 1_555 1_555
W12 O31 1_555 1_555
W12 O49 1_555 1_555
W13 O34 1_555 1_555
W13 O35 1_555 1_555
W13 O38 1_555 1_555
W13 O40 1_555 1_555
W14 O45 1_555 1_555
W14 O46 1_555 1_555
W15 O33 1_555 1_555
W15 O37 1_555 1_555
W15 O44 1_555 1_555
W15 O54 1_555 1_555
W15 O60 1_555 1_555
W16 O15 1_555 1_555
W16 O42 1_555 1_555
W17 O36 1_555 1_555
W17 O43 1_555 1_555
W17 O48 1_555 1_555
W17 O56 1_555 1_555
W17 O57 1_555 1_555
W18 O14 1_555 1_555
W18 O39 1_555 1_555
W18 O52 1_555 1_555
P1 O31 1_555 1_555
P1 O34 1_555 1_555
P1 O45 1_555 1_555
P2 O20 1_555 1_555
P2 O48 1_555 1_555
P2 O54 1_555 1_555
C9 C10 1_555 1_555
C16 C17 1_555 1_555
C18 N4 1_555 1_555
C19 N3 1_555 1_555
C20 N4 1_555 1_555
C22 N5 1_555 1_555
C23 N6 1_555 1_555
C25 N8 1_555 1_555
N8 C26 1_555 1_555
N10 C29 1_555 1_555
C30 N11 1_555 1_555
C30 N12 1_555 1_555
C32 N12 1_555 1_555
C33 N13 1_555 1_555
N14 C35 1_555 1_555
C37 N16 1_555 1_555
N16 C38 1_555 1_555
O64 Cu3B 1_555 1_555
W3C O59C 1_555 1_555
W6C O14C 1_555 1_555
W6C O24C 1_555 1_555
W7C O20C 1_555 1_555
W7C O28C 1_555 1_555
W7C O47C 1_555 1_555
W8C O11C 1_555 1_555
W8C O15C 1_555 1_555
W8C O55C 1_555 1_555
W8C O62C 1_555 1_555
W9C O29C 1_555 1_555
W11C O19C 1_555 1_555
W12C O8C 1_555 1_555
W12C O31C 1_555 1_555
W12C O49C 1_555 1_555
W13C O34C 1_555 1_555
W13C O35C 1_555 1_555
W13C O38C 1_555 1_555
W13C O40C 1_555 1_555
W14C O45C 1_555 1_555
W14C O46C 1_555 1_555
W15C O33C 1_555 1_555
W15C O37C 1_555 1_555
W15C O44C 1_555 1_555
W15C O54C 1_555 1_555
W15C O60C 1_555 1_555
W16C O15C 1_555 1_555
W16C O42C 1_555 1_555
W17C O36C 1_555 1_555
W17C O43C 1_555 1_555
W17C O48C 1_555 1_555
W17C O56C 1_555 1_555
W17C O57C 1_555 1_555
W18C O14C 1_555 1_555
W18C O39C 1_555 1_555
W18C O52C 1_555 1_555
Cu3B O63B 1_555 1_555
Cu3B O64B 1_555 1_555
P1C O31C 1_555 1_555
P1C O34C 1_555 1_555
P1C O45C 1_555 1_555
P2C O20C 1_555 1_555
P2C O48C 1_555 1_555
P2C O54C 1_555 1_555
C9C C10C 1_555 1_555
C16C C17C 1_555 1_555
C18C N4C 1_555 1_555
C19C N3C 1_555 1_555
C20C N4C 1_555 1_555
C25C N8C 1_555 1_555
N8C C26C 1_555 1_555
N10C C29C 1_555 1_555
C30C N11C 1_555 1_555
C30C N12C 1_555 1_555
C32C N12C 1_555 1_555
C33C N13C 1_555 1_555
C34C N14C 1_555 1_555
N14C C35C 1_555 1_555
C37C N16C 1_555 1_555
N16C C38C 1_555 1_555

#END
