
#######################################################################
#
#                 Cambridge Crystallographic Data Centre
#                                CCDC 
#
#######################################################################
#
# If this CIF has been generated from an entry in the Cambridge 
# Structural Database, then it will include bibliographic, chemical, 
# crystal, experimental, refinement or atomic coordinate data resulting 
# from the CCDC's data processing and validation procedures.
#
#######################################################################

data_OTETAJ
_symmetry_cell_setting           triclinic
_symmetry_space_group_name_H-M   'P -1'
_symmetry_Int_Tables_number      2
_space_group_name_Hall           '-P 1'
loop_
_symmetry_equiv_pos_site_id
_symmetry_equiv_pos_as_xyz
1 x,y,z
2 -x,-y,-z
_cell_length_a                   13.042(3)
_cell_length_b                   14.212(3)
_cell_length_c                   28.030(6)
_cell_angle_alpha                96.10(3)
_cell_angle_beta                 90.76(3)
_cell_angle_gamma                117.09(3)
_cell_volume                     4588.1
loop_
_atom_site_label
_atom_site_type_symbol
_atom_site_fract_x
_atom_site_fract_y
_atom_site_fract_z
W1 W 0.54316(11) 0.02769(9) 0.63649(4)
W2 W 1.02174(11) 0.45167(9) 0.77011(4)
W3 W 0.82054(11) 0.01950(9) 0.64825(4)
W4 W 0.79286(12) 0.20830(9) 0.57388(4)
W5 W 0.76946(11) 0.45950(9) 0.76068(4)
W6 W 0.67454(12) 0.32091(9) 0.86992(4)
W7 W 0.52198(11) 0.23978(9) 0.68885(4)
W8 W 0.44898(11) -0.10999(9) 0.74600(4)
W9 W 0.42633(11) 0.10133(9) 0.79878(4)
W10 W 0.92550(11) 0.31299(9) 0.87983(4)
W11 W 0.72425(11) -0.12007(9) 0.75749(4)
W12 W 1.04647(11) 0.21919(9) 0.71276(4)
W13 W 0.77285(11) 0.42298(9) 0.62809(4)
W14 W 1.02409(11) 0.40990(9) 0.63812(4)
W15 W 0.54874(12) -0.15093(9) 0.86261(4)
W16 W 0.94994(11) 0.07997(9) 0.82209(4)
W17 W 0.77521(11) 0.05316(9) 0.92704(4)
W18 W 0.52188(11) 0.06039(9) 0.91623(4)
P1 P 0.7891(8) 0.2406(6) 0.6985(3)
P2 P 0.6885(8) 0.0942(6) 0.8151(3)
O1 O 0.4370(18) 0.0526(14) 0.8576(6)
O2 O 0.6713(19) -0.0970(14) 0.9132(7)
O3 O 0.8275(17) 0.3681(13) 0.9001(6)
O4 O 0.9967(18) 0.1307(14) 0.7626(6)
O5 O 0.4610(17) 0.1582(13) 0.7376(6)
O6 O 0.6503(19) 0.0711(14) 0.9562(7)
O7 O 0.6510(18) -0.1536(14) 0.8154(6)
O8 O 0.3436(17) -0.2278(13) 0.7195(6)
O9 O 0.7907(18) 0.4758(14) 0.6940(6)
O10 O 1.0353(16) 0.4679(13) 0.7044(6)
O11 O 0.9690(19) 0.3992(15) 0.8284(7)
O12 O 0.6075(18) 0.2056(14) 0.9094(6)
O13 O 0.9364(17) 0.4846(13) 0.6214(6)
O14 O 0.4536(17) -0.0684(13) 0.5934(6)
O15 O 0.4700(18) -0.0913(14) 0.9026(6)
O16 O 0.6169(17) 0.3498(13) 0.7358(6)
O17 O 0.3038(17) 0.1117(14) 0.8078(6)
O18 O 0.4573(18) -0.1459(14) 0.8088(6)
O19 O 0.9537(16) 0.3180(13) 0.5783(6)
O20 O 1.0736(18) 0.0843(14) 0.8414(6)
O21 O 0.419(2) 0.2787(16) 0.6825(7)
O22 O 0.6495(16) 0.0385(12) 0.8632(6)
O23 O 0.8512(18) 0.1996(14) 0.9181(6)
O24 O 0.8284(18) 0.2981(14) 0.6510(6)
O25 O 0.7098(18) -0.2415(14) 0.7366(6)
O26 O 0.6266(19) 0.3263(15) 0.6448(7)
O27 O 0.8200(17) -0.0816(14) 0.6085(6)
O28 O 0.8471(16) 0.1681(13) 0.7021(6)
O29 O 0.4278(19) 0.0620(15) 0.9586(7)
O30 O 0.540(2) 0.2378(16) 0.8286(7)
O31 O 0.9714(16) 0.2181(12) 0.8468(6)
O32 O 0.8726(18) -0.0613(14) 0.7906(6)
O33 O 0.8281(19) 0.3298(14) 0.7433(7)
O34 O 0.8633(16) 0.0367(13) 0.8770(6)
O35 O 0.5851(17) -0.1241(13) 0.7347(6)
O36 O 0.7964(18) -0.0470(14) 0.7043(6)
O37 O 0.663(2) -0.0117(15) 0.6448(7)
O38 O 1.0525(19) 0.3039(15) 0.6631(7)
O39 O 0.842(2) 0.1138(17) 0.6008(7)
O40 O 0.7461(17) 0.5113(13) 0.6027(6)
O41 O 0.934(2) 0.5295(16) 0.7728(7)
O42 O 0.749(2) 0.5644(15) 0.7750(7)
O43 O 1.1549(17) 0.4912(14) 0.6198(6)
O44 O 0.4702(19) 0.1192(15) 0.6446(7)
O45 O 0.989(2) 0.0964(15) 0.6657(7)
O46 O 0.3626(17) -0.0435(14) 0.7676(6)
O47 O 0.4757(19) -0.0386(15) 0.6910(7)
O48 O 1.0575(17) 0.3362(13) 0.7564(6)
O49 O 0.4746(19) -0.2825(15) 0.8725(7)
O50 O 0.7564(18) 0.3226(14) 0.5712(6)
O51 O 0.6554(18) 0.1749(14) 0.6932(6)
O52 O 0.5790(19) 0.0615(14) 0.7838(7)
O53 O 0.7510(17) 0.2157(13) 0.8325(6)
O54 O 0.850(2) 0.0547(16) 0.9809(7)
O55 O 0.7686(17) 0.0544(13) 0.7928(6)
O56 O 1.154(2) 0.5514(15) 0.7901(7)
O57 O 1.185(2) 0.2447(16) 0.7134(7)
O58 O 1.046(2) 0.3882(16) 0.9209(7)
O59 O 0.645(2) 0.1273(16) 0.5916(7)
O60 O 0.7795(18) 0.1605(14) 0.5137(7)
O61 O 0.7468(19) 0.4043(15) 0.8217(7)
O62 O 0.633(2) 0.4057(15) 0.9041(7)
Cu1 Cu 1.0000 0.0000 1.0000
C9 C 1.484(4) 0.414(3) 1.0218(13)
C10 C 1.410(4) 0.294(3) 0.9424(13)
H9 H 1.4196 0.3006 0.9077
H10 H 1.4505 0.2539 0.9523
C11 C 1.463(3) 0.406(3) 0.9719(12)
C12 C 1.514(4) 0.504(3) 1.0552(13)
C13 C 1.199(3) -0.242(3) 0.8663(10)
H11 H 1.2247 -0.2769 0.8403
H12 H 1.2531 -0.1646 0.8692
C14 C 1.038(3) -0.189(3) 0.8201(10)
H13 H 0.9876 -0.2298 0.7907
H14 H 1.0995 -0.1194 0.8138
C15 C 1.081(3) -0.254(3) 0.8482(13)
H15 H 1.0379 -0.2636 0.8776
H16 H 1.0451 -0.3254 0.8289
N1 N 1.2157(19) -0.2801(14) 0.9122(6)
N2 N 1.186(2) -0.3801(14) 0.9165(6)
C16 C 1.191(2) -0.3890(14) 0.9625(7)
H17 H 1.1746 -0.4527 0.9760
N3 N 1.224(2) -0.2945(15) 0.9867(6)
C17 C 1.239(2) -0.2271(14) 0.9556(6)
H18 H 1.2623 -0.1531 0.9631
N11 N 1.2871(13) 0.2361(10) 0.9505(5)
N12 N 1.2112(15) 0.2767(11) 0.9466(5)
C26 C 1.1066(12) 0.2038(10) 0.9591(5)
H27 H 1.0379 0.2113 0.9595
N13 N 1.1180(11) 0.1181(8) 0.9708(4)
C27 C 1.2295(11) 0.1381(9) 0.9655(5)
H28 H 1.2615 0.0918 0.9712
C28 C 1.0414(12) -0.0951(9) 0.9033(5)
H29 H 1.1212 -0.0471 0.9031
N14 N 0.9721(16) -0.1852(12) 0.8654(6)
N15 N 0.8517(17) -0.2392(13) 0.8801(6)
C29 C 0.8464(16) -0.1825(12) 0.9270(6)
H30 H 0.7798 -0.2000 0.9448
N16 N 0.9636(13) -0.0934(9) 0.9414(4)
Cu1_2 Cu 2.0000 1.0000 1.0000
C9A C 1.516(4) 0.586(3) 0.9782(13)
C10A C 1.590(4) 0.706(3) 1.0576(13)
H9A H 1.5804 0.6994 1.0923
H10A H 1.5495 0.7461 1.0477
C11A C 1.537(3) 0.594(3) 1.0281(12)
C12A C 1.486(4) 0.496(3) 0.9448(13)
C13A C 0.801(3) 0.242(3) 1.1337(10)
H11A H 0.7753 0.2769 1.1597
H12A H 0.7469 0.1646 1.1308
C14A C 0.962(3) 0.189(3) 1.1799(10)
H13A H 1.0124 0.2298 1.2093
H14A H 0.9005 0.1194 1.1862
C15A C 0.919(3) 0.254(3) 1.1518(13)
H15A H 0.9621 0.2636 1.1224
H16A H 0.9549 0.3254 1.1711
N1A N 0.7843(19) 0.2801(14) 1.0878(6)
N2A N 0.814(2) 0.3801(14) 1.0835(6)
C16A C 0.809(2) 0.3890(14) 1.0375(7)
H17A H 0.8254 0.4527 1.0240
N3A N 0.776(2) 0.2945(15) 1.0133(6)
C17A C 0.761(2) 0.2271(14) 1.0444(6)
H18A H 0.7377 0.1531 1.0369
N11A N 1.7129(13) 0.7639(10) 1.0495(5)
N12A N 1.7888(15) 0.7233(11) 1.0534(5)
C26A C 1.8934(12) 0.7962(10) 1.0409(5)
H27A H 1.9621 0.7887 1.0405
N13A N 1.8820(11) 0.8819(8) 1.0292(4)
N13A_2 N 0.8820(11) -0.1181(8) 1.0292(4)
C27A C 1.7705(11) 0.8619(9) 1.0345(5)
H28A H 1.7385 0.9082 1.0288
C28A C 0.9586(12) 0.0951(9) 1.0967(5)
H29A H 0.8788 0.0471 1.0969
N14A N 1.0279(16) 0.1852(12) 1.1346(6)
N15A N 1.1483(17) 0.2392(13) 1.1199(6)
C29A C 1.1536(16) 0.1825(12) 1.0730(6)
H30A H 1.2202 0.2000 1.0552
N16A N 1.0364(13) 0.0934(9) 1.0586(4)
Cu2 Cu 0.5000 1.0000 0.5000
C2 C 0.542(3) 0.583(2) 0.4729(10)
C3 C 0.601(4) 0.525(3) 0.4755(13)
C7 C 0.581(3) 0.672(2) 0.4459(12)
H8 H 0.6005 0.6628 0.4137
C8 C 0.432(4) 0.551(3) 0.4897(13)
C24 C 0.6620(17) 0.9127(15) 0.5175(6)
H25 H 0.7090 0.9667 0.5425
N8 N 0.5704(17) 0.9081(14) 0.4932(7)
C25 C 0.5276(16) 0.8204(14) 0.4610(6)
H26 H 0.4625 0.7974 0.4389
N9 N 0.5927(17) 0.7709(13) 0.4654(6)
N10 N 0.6758(17) 0.8279(15) 0.5004(7)
Cu2_2 Cu 0.5000 0.0000 0.5000
C2A C 0.458(3) 0.417(2) 0.5271(10)
C3A C 0.399(4) 0.475(3) 0.5245(13)
C7A C 0.419(3) 0.328(2) 0.5541(12)
H8A H 0.3995 0.3372 0.5863
C8A C 0.568(4) 0.449(3) 0.5103(13)
C24A C 0.3380(17) 0.0873(15) 0.4825(6)
H25A H 0.2910 0.0333 0.4575
N8A N 0.4296(17) 0.0919(14) 0.5068(7)
N8A_2 N 0.4296(17) 1.0919(14) 0.5068(7)
C25A C 0.4724(16) 0.1796(14) 0.5390(6)
H26A H 0.5375 0.2026 0.5611
N9A N 0.4073(17) 0.2291(13) 0.5346(6)
N10A N 0.3242(17) 0.1721(15) 0.4996(7)
C1 C 0.573(3) 0.407(2) 0.2455(11)
H1 H 0.5517 0.3345 0.2354
C4 C 0.674(4) 0.471(3) 0.2875(13)
H2 H 0.7058 0.4237 0.2969
H3 H 0.7366 0.5332 0.2756
C5 C 0.625(3) 0.508(2) 0.3320(10)
H4 H 0.6903 0.5561 0.3554
H5 H 0.5873 0.5499 0.3215
C6 C 0.510(3) 0.458(2) 0.2216(11)
H6 H 0.4768 0.4912 0.2453
H7 H 0.4485 0.4064 0.1977
C18 C 0.460(2) 0.2802(18) 0.3903(9)
H19 H 0.4451 0.2169 0.4038
C19 C 0.5579(19) 0.3424(17) 0.3698(9)
H20 H 0.6235 0.3303 0.3664
N4 N 0.5457(19) 0.4248(16) 0.3550(7)
C20 C 0.440(2) 0.4136(18) 0.3664(9)
H21 H 0.4091 0.4602 0.3602
N5 N 0.387(2) 0.3242(19) 0.3882(9)
C21 C 0.7466(18) 0.6244(14) 0.1528(7)
H22 H 0.8041 0.6390 0.1303
N6 N 0.7215(18) 0.6963(13) 0.1777(7)
C22 C 0.6356(18) 0.6445(14) 0.2056(7)
H23 H 0.6008 0.6759 0.2270
N7 N 0.6077(19) 0.5406(14) 0.1979(7)
C23 C 0.6763(19) 0.5282(13) 0.1653(7)
H24 H 0.6753 0.4627 0.1532
loop_
_geom_bond_atom_site_label_1
_geom_bond_atom_site_label_2
_geom_bond_site_symmetry_1
_geom_bond_site_symmetry_2
W1 O14 1_555 1_555
W2 O10 1_555 1_555
W3 O27 1_555 1_555
W4 O19 1_555 1_555
W5 O9 1_555 1_555
W6 O3 1_555 1_555
W7 O5 1_555 1_555
W8 O8 1_555 1_555
W9 O1 1_555 1_555
W10 O3 1_555 1_555
W11 O7 1_555 1_555
W12 O4 1_555 1_555
W13 O9 1_555 1_555
W14 O10 1_555 1_555
W15 O2 1_555 1_555
W16 O4 1_555 1_555
W17 O2 1_555 1_555
W18 O1 1_555 1_555
Cu1 N13 1_555 1_555
Cu2 N8 1_555 1_555
P1 O24 1_555 1_555
P2 O22 1_555 1_555
O5 W9 1_555 1_555
O6 W17 1_555 1_555
O7 W15 1_555 1_555
O11 W2 1_555 1_555
O12 W6 1_555 1_555
O13 W13 1_555 1_555
O15 W15 1_555 1_555
O16 W5 1_555 1_555
O17 W9 1_555 1_555
O18 W8 1_555 1_555
O19 W14 1_555 1_555
O20 W16 1_555 1_555
O21 W7 1_555 1_555
O22 W15 1_555 1_555
O23 W10 1_555 1_555
O24 W4 1_555 1_555
O25 W11 1_555 1_555
O26 W7 1_555 1_555
O28 W3 1_555 1_555
C1 H1 1_555 1_555
C2 C3 1_555 1_555
C3 C8A 1_555 1_555
C4 C1 1_555 1_555
H2 C4 1_555 1_555
H3 C4 1_555 1_555
C5 C4 1_555 1_555
H4 C5 1_555 1_555
H5 C5 1_555 1_555
C6 C1 1_555 1_555
H6 C6 1_555 1_555
H7 C6 1_555 1_555
C7 C2 1_555 1_555
H8 C7 1_555 1_555
C8 C2 1_555 1_555
C9 C11 1_555 1_555
C10 H9 1_555 1_555
H10 C10 1_555 1_555
C11 C10 1_555 1_555
C12 C9 1_555 1_555
C13 H11 1_555 1_555
H12 C13 1_555 1_555
C14 H13 1_555 1_555
H14 C14 1_555 1_555
C15 C13 1_555 1_555
H15 C15 1_555 1_555
H16 C15 1_555 1_555
O29 W18 1_555 1_555
O30 W6 1_555 1_555
O31 W10 1_555 1_555
O32 W11 1_555 1_555
O33 W2 1_555 1_555
O34 W16 1_555 1_555
O35 W8 1_555 1_555
O36 W3 1_555 1_555
O37 W1 1_555 1_555
O38 W12 1_555 1_555
O39 W3 1_555 1_555
O40 W13 1_555 1_555
O41 W2 1_555 1_555
O42 W5 1_555 1_555
O43 W14 1_555 1_555
O44 W1 1_555 1_555
O45 W3 1_555 1_555
O46 W8 1_555 1_555
O47 W1 1_555 1_555
O48 W2 1_555 1_555
O49 W15 1_555 1_555
O50 W4 1_555 1_555
O51 W1 1_555 1_555
O52 W8 1_555 1_555
O53 W6 1_555 1_555
O54 W17 1_555 1_555
O55 W11 1_555 1_555
O56 W2 1_555 1_555
O57 W12 1_555 1_555
O58 W10 1_555 1_555
O59 W1 1_555 1_555
O60 W4 1_555 1_555
O61 W5 1_555 1_555
O62 W6 1_555 1_555
N1 C13 1_555 1_555
N2 N1 1_555 1_555
C16 N2 1_555 1_555
H17 C16 1_555 1_555
N3 C16 1_555 1_555
C17 N1 1_555 1_555
H18 C17 1_555 1_555
C18 H19 1_555 1_555
C19 C18 1_555 1_555
H20 C19 1_555 1_555
N4 C5 1_555 1_555
C20 N4 1_555 1_555
H21 C20 1_555 1_555
N5 C18 1_555 1_555
C21 H22 1_555 1_555
N6 C21 1_555 1_555
C22 N6 1_555 1_555
H23 C22 1_555 1_555
N7 C6 1_555 1_555
C23 C21 1_555 1_555
H24 C23 1_555 1_555
C24 H25 1_555 1_555
N8 C24 1_555 1_555
C25 N8 1_555 1_555
H26 C25 1_555 1_555
N9 C7 1_555 1_555
N10 C24 1_555 1_555
N11 C10 1_555 1_555
N12 N11 1_555 1_555
C26 N12 1_555 1_555
H27 C26 1_555 1_555
N13 C26 1_555 1_555
C27 N11 1_555 1_555
H28 C27 1_555 1_555
C28 H29 1_555 1_555
N14 C14 1_555 1_555
N15 N14 1_555 1_555
C29 N15 1_555 1_555
H30 C29 1_555 1_555
N16 Cu1 1_555 1_555
Cu1_2 N13A 1_555 1_555
Cu2_2 N8A 1_555 1_555
C2A C3A 1_555 1_555
C3A C8 1_555 1_555
C7A C2A 1_555 1_555
H8A C7A 1_555 1_555
C8A C2A 1_555 1_555
C9A C11A 1_555 1_555
C10A H9A 1_555 1_555
H10A C10A 1_555 1_555
C11A C12 1_555 1_555
C12A C11 1_555 1_555
C13A H11A 1_555 1_555
H12A C13A 1_555 1_555
C14A H13A 1_555 1_555
H14A C14A 1_555 1_555
C15A C13A 1_555 1_555
H15A C15A 1_555 1_555
H16A C15A 1_555 1_555
N1A C13A 1_555 1_555
N2A N1A 1_555 1_555
C16A N2A 1_555 1_555
H17A C16A 1_555 1_555
N3A C16A 1_555 1_555
C17A N1A 1_555 1_555
H18A C17A 1_555 1_555
C24A H25A 1_555 1_555
N8A C24A 1_555 1_555
N8A_2 Cu2 1_555 1_555
C25A N8A 1_555 1_555
H26A C25A 1_555 1_555
N9A C7A 1_555 1_555
N10A C24A 1_555 1_555
N11A C10A 1_555 1_555
N12A N11A 1_555 1_555
C26A N12A 1_555 1_555
H27A C26A 1_555 1_555
N13A C26A 1_555 1_555
N13A_2 Cu1 1_555 1_555
C27A N11A 1_555 1_555
H28A C27A 1_555 1_555
C28A H29A 1_555 1_555
N14A C14A 1_555 1_555
N15A N14A 1_555 1_555
C29A N15A 1_555 1_555
H30A C29A 1_555 1_555
N16A Cu1 1_555 1_555
W3 O37 1_555 1_555
W4 O39 1_555 1_555
W4 O59 1_555 1_555
W5 O33 1_555 1_555
W5 O41 1_555 1_555
W6 O61 1_555 1_555
W7 O16 1_555 1_555
W7 O44 1_555 1_555
W7 O51 1_555 1_555
W8 O47 1_555 1_555
W9 O30 1_555 1_555
W9 O46 1_555 1_555
W9 O52 1_555 1_555
W10 O11 1_555 1_555
W10 O53 1_555 1_555
W11 O35 1_555 1_555
W11 O36 1_555 1_555
W12 O28 1_555 1_555
W12 O45 1_555 1_555
W12 O48 1_555 1_555
W13 O24 1_555 1_555
W13 O26 1_555 1_555
W13 O50 1_555 1_555
W14 O13 1_555 1_555
W14 O24 1_555 1_555
W14 O38 1_555 1_555
W15 O18 1_555 1_555
W16 O31 1_555 1_555
W16 O32 1_555 1_555
W16 O55 1_555 1_555
W17 O22 1_555 1_555
W17 O23 1_555 1_555
W17 O34 1_555 1_555
W18 O6 1_555 1_555
W18 O12 1_555 1_555
W18 O15 1_555 1_555
W18 O22 1_555 1_555
P1 O28 1_555 1_555
P1 O33 1_555 1_555
P1 O51 1_555 1_555
P2 O52 1_555 1_555
P2 O53 1_555 1_555
P2 O55 1_555 1_555
C14 C15 1_555 1_555
N3 C17 1_555 1_555
C19 N4 1_555 1_555
C20 N5 1_555 1_555
C22 N7 1_555 1_555
N7 C23 1_555 1_555
C25 N9 1_555 1_555
N9 N10 1_555 1_555
N13 C27 1_555 1_555
C28 N14 1_555 1_555
C28 N16 1_555 1_555
C29 N16 1_555 1_555
C9A C12A 1_555 1_555
C10A C11A 1_555 1_555
C14A C15A 1_555 1_555
N3A C17A 1_555 1_555
C25A N9A 1_555 1_555
N9A N10A 1_555 1_555
N13A C27A 1_555 1_555
C28A N14A 1_555 1_555
C28A N16A 1_555 1_555
C29A N16A 1_555 1_555

#END
