
#######################################################################
#
#                 Cambridge Crystallographic Data Centre
#                                CCDC 
#
#######################################################################
#
# If this CIF has been generated from an entry in the Cambridge 
# Structural Database, then it will include bibliographic, chemical, 
# crystal, experimental, refinement or atomic coordinate data resulting 
# from the CCDC's data processing and validation procedures.
#
#######################################################################

data_OTIPEN
_symmetry_cell_setting           orthorhombic
_symmetry_space_group_name_H-M   'P n a 21'
_symmetry_Int_Tables_number      33
_space_group_name_Hall           'P 2c -2n'
loop_
_symmetry_equiv_pos_site_id
_symmetry_equiv_pos_as_xyz
1 x,y,z
2 -x,-y,1/2+z
3 1/2+x,1/2-y,z
4 1/2-x,1/2+y,1/2+z
_cell_length_a                   9.3917(11)
_cell_length_b                   14.1197(16)
_cell_length_c                   15.3130(17)
_cell_angle_alpha                90
_cell_angle_beta                 90
_cell_angle_gamma                90
_cell_volume                     2030.63
loop_
_atom_site_label
_atom_site_type_symbol
_atom_site_fract_x
_atom_site_fract_y
_atom_site_fract_z
O1 O -0.7715(3) 0.0862(2) 1.17688(18)
C1 C -0.6915(5) 0.0377(3) 1.1263(3)
N1 N 0.5411(3) 0.3889(2) 0.3304(2)
C2 C 0.4477(4) 0.3945(3) 0.3947(3)
C3 C 0.4256(7) 0.4790(4) 0.4507(4)
H1 H 0.5001 0.5241 0.4401
H2 H 0.4271 0.4604 0.5110
H3 H 0.3352 0.5072 0.4372
C4 C 0.5238(5) 0.2996(3) 0.2952(2)
H4 H 0.5756 0.2754 0.2485
C5 C 0.4206(5) 0.2525(3) 0.3387(3)
H5 H 0.3886 0.1913 0.3277
N2 N 0.3724(4) 0.3130(2) 0.4024(2)
C6 C 0.2530(5) 0.2938(3) 0.4615(3)
H6 H 0.1666 0.2876 0.4273
H7 H 0.2410 0.3474 0.5004
Co1 Co -0.14581(4) -0.00468(3) 0.76785(5)
O2 O -0.2352(3) 0.09178(19) 0.84541(19)
C7 C -0.3400(5) 0.0488(3) 0.8808(3)
N3 N 0.0269(4) 0.0767(2) 0.7368(2)
N4 N 0.2381(3) 0.1275(2) 0.6969(2)
C8 C -0.5202(4) 0.0504(2) 1.0008(2)
H8 H -0.5403 -0.0125 0.9877
C9 C -0.5915(4) 0.0941(3) 1.0684(2)
C10 C -0.4189(4) 0.0986(3) 0.9516(2)
C11 C 0.1442(4) 0.0556(3) 0.6921(3)
C12 C 0.0488(4) 0.1655(2) 0.7709(3)
H9 H -0.0161 0.1987 0.8050
C13 C -0.5657(5) 0.1883(3) 1.0860(3)
H10 H -0.6166 0.2190 1.1297
C14 C -0.4637(6) 0.2374(3) 1.0386(3)
H11 H -0.4454 0.3006 1.0514
C15 C 0.3801(6) 0.2144(4) 0.5863(3)
H12 H 0.3638 0.2740 0.6162
H13 H 0.4740 0.2172 0.5601
C16 C -0.3894(5) 0.1931(3) 0.9724(3)
H14 H -0.3198 0.2261 0.9416
C17 C 0.1790(5) 0.1970(3) 0.7473(3)
H15 H 0.2203 0.2546 0.7623
C18 C 0.3772(5) 0.1335(3) 0.6539(3)
H16 H 0.3977 0.0740 0.6250
H17 H 0.4504 0.1443 0.6974
O3 O -0.6907(4) -0.0497(2) 1.1241(2)
C19 C 0.1704(6) -0.0362(4) 0.6454(4)
H18 H 0.0819 -0.0692 0.6380
H19 H 0.2345 -0.0745 0.6792
H20 H 0.2117 -0.0237 0.5892
C20 C 0.2731(6) 0.2037(4) 0.5165(3)
H21 H 0.1825 0.1867 0.5426
H22 H 0.3017 0.1523 0.4784
O4 O -0.3717(4) -0.0322(2) 0.8589(3)
O1A O -0.2285(3) -0.0862(2) 0.67688(18)
N1C N -0.0411(3) -0.1111(2) 0.8304(2)
Co1A Co -0.85419(4) 0.00468(3) 1.26785(5)
Co1C Co 0.64581(4) 0.49532(3) 0.26785(5)
loop_
_geom_bond_atom_site_label_1
_geom_bond_atom_site_label_2
_geom_bond_site_symmetry_1
_geom_bond_site_symmetry_2
O1 C1 1_555 1_555
C1 C9 1_555 1_555
N1 C2 1_555 1_555
C2 C3 1_555 1_555
C3 H1 1_555 1_555
H2 C3 1_555 1_555
H3 C3 1_555 1_555
C4 N1 1_555 1_555
H4 C4 1_555 1_555
C5 C4 1_555 1_555
H5 C5 1_555 1_555
N2 C2 1_555 1_555
C6 N2 1_555 1_555
H6 C6 1_555 1_555
H7 C6 1_555 1_555
Co1 O2 1_555 1_555
O2 C7 1_555 1_555
C7 C10 1_555 1_555
N3 Co1 1_555 1_555
N4 C11 1_555 1_555
C8 H8 1_555 1_555
C9 C8 1_555 1_555
C10 C8 1_555 1_555
C11 N3 1_555 1_555
C12 N3 1_555 1_555
H9 C12 1_555 1_555
C13 C9 1_555 1_555
H10 C13 1_555 1_555
C14 C13 1_555 1_555
H11 C14 1_555 1_555
C15 H12 1_555 1_555
H13 C15 1_555 1_555
C16 C10 1_555 1_555
H14 C16 1_555 1_555
C17 N4 1_555 1_555
H15 C17 1_555 1_555
C18 N4 1_555 1_555
H16 C18 1_555 1_555
H17 C18 1_555 1_555
O3 C1 1_555 1_555
C19 C11 1_555 1_555
H18 C19 1_555 1_555
H19 C19 1_555 1_555
H20 C19 1_555 1_555
C20 C6 1_555 1_555
H21 C20 1_555 1_555
H22 C20 1_555 1_555
O4 C7 1_555 1_555
O1A Co1 1_555 1_555
N1C Co1 1_555 1_555
Co1A O1 1_555 1_555
Co1C N1 1_555 1_555
C5 N2 1_555 1_555
C12 C17 1_555 1_555
C14 C16 1_555 1_555
C15 C18 1_555 1_555
C15 C20 1_555 1_555

#END
