
#######################################################################
#
#                 Cambridge Crystallographic Data Centre
#                                CCDC 
#
#######################################################################
#
# If this CIF has been generated from an entry in the Cambridge 
# Structural Database, then it will include bibliographic, chemical, 
# crystal, experimental, refinement or atomic coordinate data resulting 
# from the CCDC's data processing and validation procedures.
#
#######################################################################

data_OTIPIR
_symmetry_cell_setting           orthorhombic
_symmetry_space_group_name_H-M   'F d d 2'
_symmetry_Int_Tables_number      43
_space_group_name_Hall           'F 2 -2d'
loop_
_symmetry_equiv_pos_site_id
_symmetry_equiv_pos_as_xyz
1 x,y,z
2 -x,-y,z
3 1/4+x,1/4-y,1/4+z
4 1/4-x,1/4+y,1/4+z
5 x,1/2+y,1/2+z
6 -x,1/2-y,1/2+z
7 1/4+x,3/4-y,3/4+z
8 1/4-x,3/4+y,3/4+z
9 1/2+x,y,1/2+z
10 1/2-x,-y,1/2+z
11 3/4+x,1/4-y,3/4+z
12 3/4-x,1/4+y,3/4+z
13 1/2+x,1/2+y,z
14 1/2-x,1/2-y,z
15 3/4+x,3/4-y,1/4+z
16 3/4-x,3/4+y,1/4+z
_cell_length_a                   17.721(3)
_cell_length_b                   52.356(8)
_cell_length_c                   8.5857(12)
_cell_angle_alpha                90
_cell_angle_beta                 90
_cell_angle_gamma                90
_cell_volume                     7965.82
loop_
_atom_site_label
_atom_site_type_symbol
_atom_site_fract_x
_atom_site_fract_y
_atom_site_fract_z
O1 O 0.43178(9) 0.17551(3) 0.29469(19)
C1 C 0.44445(12) 0.15200(4) 0.3276(3)
C2 C 0.37771(13) 0.13570(4) 0.3758(3)
H1 H 0.3571 0.1275 0.2840
H2 H 0.3389 0.1467 0.4184
N1 N 0.87320(10) 0.31372(3) 0.3416(2)
C3 C 0.81445(11) 0.32978(4) 0.3386(3)
C4 C 0.85505(13) 0.29502(4) 0.4471(3)
H3 H 0.8858 0.2813 0.4731
C5 C 0.78666(15) 0.29952(5) 0.5071(3)
H4 H 0.7615 0.2897 0.5806
Co1 Co 0.533610(14) 0.185760(5) 0.20650(3)
N2 N 0.52868(10) 0.26598(3) 0.1957(3)
N3 N 0.51538(9) 0.22428(3) 0.1919(3)
O2 O 0.28694(9) 0.08153(3) 0.75491(19)
C6 C 0.68603(13) 0.33307(5) 0.4592(4)
H5 H 0.6648 0.3273 0.5573
H6 H 0.6910 0.3515 0.4639
C7 C 0.56341(12) 0.24342(4) 0.1654(2)
O3 O 0.39575(11) 0.06610(4) 0.6755(3)
C8 C 0.56271(14) 0.29160(4) 0.1855(3)
H7 H 0.5942 0.2925 0.0933
H8 H 0.5229 0.3042 0.1745
C9 C 0.63277(12) 0.32600(4) 0.3277(4)
H9 H 0.5877 0.3364 0.3359
H10 H 0.6569 0.3300 0.2294
N4 N 0.76091(10) 0.32162(4) 0.4383(2)
C10 C 0.60959(13) 0.29807(4) 0.3261(3)
H11 H 0.5809 0.2943 0.4196
H12 H 0.6545 0.2875 0.3269
C11 C 0.34089(12) 0.07977(4) 0.6582(3)
O4 O 0.50815(9) 0.14275(3) 0.3136(3)
C12 C 0.44867(12) 0.23533(5) 0.2397(3)
H13 H 0.4049 0.2265 0.2656
C13 C 0.33257(14) 0.09662(5) 0.5146(3)
H14 H 0.3298 0.0859 0.4228
H15 H 0.2856 0.1061 0.5219
C14 C 0.45674(12) 0.26105(4) 0.2432(3)
H16 H 0.4205 0.2730 0.2722
C15 C 0.64268(12) 0.24091(5) 0.1129(3)
H17 H 0.6501 0.2243 0.0676
H18 H 0.6534 0.2538 0.0366
H19 H 0.6759 0.2430 0.2003
C16 C 0.80826(13) 0.35270(4) 0.2389(3)
H20 H 0.7838 0.3482 0.1429
H21 H 0.7792 0.3655 0.2917
H22 H 0.8578 0.3592 0.2173
C17 C 0.39693(12) 0.11527(4) 0.4956(3)
H23 H 0.4418 0.1062 0.4628
H24 H 0.4076 0.1233 0.5950
O1B O 0.68178(9) 0.07449(3) -0.45531(19)
C1B C 0.69445(12) 0.09800(4) -0.4224(3)
C2B C 0.62771(13) 0.11430(4) -0.3742(3)
H1B H 0.6071 0.1225 -0.4660
H2B H 0.5889 0.1033 -0.3316
N1M N 0.62680(10) 0.18628(3) 0.3416(2)
N1O N 0.87680(10) 0.06372(3) -0.4084(2)
C3M C 0.68555(11) 0.17022(4) 0.3386(3)
C4M C 0.64495(13) 0.20498(4) 0.4471(3)
H3M H 0.6142 0.2187 0.4731
C5M C 0.71334(15) 0.20048(5) 0.5071(3)
H4M H 0.7385 0.2103 0.5806
Co1B Co 0.783610(14) 0.064240(5) -0.54350(3)
Co1M Co 0.966390(14) 0.314240(5) 0.20650(3)
Co1J Co 0.283610(14) 0.064240(5) 0.95650(3)
N2M N 0.97132(10) 0.23402(3) 0.1957(3)
N3M N 0.98462(9) 0.27572(3) 0.1919(3)
N3B N 0.76538(9) 0.02572(3) -0.5581(3)
O2B O 0.53694(9) 0.16847(3) 0.00491(19)
O2H O 0.78694(9) 0.08153(3) -0.74509(19)
C6M C 0.81397(13) 0.16693(5) 0.4592(4)
H5M H 0.8352 0.1727 0.5573
H6M H 0.8090 0.1485 0.4639
C7M C 0.93659(12) 0.25658(4) 0.1654(2)
O3B O 0.64575(11) 0.18390(4) -0.0745(3)
C8M C 0.93729(14) 0.20840(4) 0.1855(3)
H7M H 0.9058 0.2075 0.0933
H8M H 0.9771 0.1958 0.1745
C9M C 0.86723(12) 0.17400(4) 0.3277(4)
H9M H 0.9123 0.1636 0.3359
H10M H 0.8431 0.1700 0.2294
N4M N 0.73909(10) 0.17838(4) 0.4383(2)
C10M C 0.89041(13) 0.20193(4) 0.3261(3)
H11M H 0.9191 0.2057 0.4196
H12M H 0.8455 0.2125 0.3269
C11B C 0.59089(12) 0.17023(4) -0.0918(3)
O4B O 0.75815(9) 0.10725(3) -0.4364(3)
C12M C 1.05133(12) 0.26467(5) 0.2397(3)
H13M H 1.0951 0.2735 0.2656
C13B C 0.58257(14) 0.15338(5) -0.2354(3)
H14B H 0.5798 0.1641 -0.3272
H15B H 0.5356 0.1439 -0.2281
C14M C 1.04326(12) 0.23895(4) 0.2432(3)
H16M H 1.0795 0.2270 0.2722
C15M C 0.85732(12) 0.25909(5) 0.1129(3)
H17M H 0.8499 0.2757 0.0676
H18M H 0.8466 0.2462 0.0366
H19M H 0.8241 0.2570 0.2003
C16M C 0.69174(13) 0.14730(4) 0.2389(3)
H20M H 0.7162 0.1518 0.1429
H21M H 0.7208 0.1345 0.2917
H22M H 0.6422 0.1408 0.2173
C17B C 0.64693(12) 0.13473(4) -0.2544(3)
H23B H 0.6918 0.1438 -0.2872
H24B H 0.6576 0.1267 -0.1550
O5 O 0.45668(11) 0.95173(4) 0.6431(3)
H25 H 0.4995(7) 0.9448(5) 0.646(4)
H26 H 0.4259(11) 0.9404(4) 0.615(4)
O6 O 0.5000 0.0000 0.5027(5)
loop_
_geom_bond_atom_site_label_1
_geom_bond_atom_site_label_2
_geom_bond_site_symmetry_1
_geom_bond_site_symmetry_2
O1 C1 1_555 1_555
C1 C2 1_555 1_555
C2 H1 1_555 1_555
H2 C2 1_555 1_555
N1 C3 1_555 1_555
C3 N4 1_555 1_555
C4 N1 1_555 1_555
H3 C4 1_555 1_555
C5 C4 1_555 1_555
H4 C5 1_555 1_555
Co1 O1 1_555 1_555
N2 C7 1_555 1_555
N3 Co1 1_555 1_555
O2 C11 1_555 1_555
C6 H5 1_555 1_555
H6 C6 1_555 1_555
C7 N3 1_555 1_555
O3 C11 1_555 1_555
C8 N2 1_555 1_555
H7 C8 1_555 1_555
H8 C8 1_555 1_555
C9 C6 1_555 1_555
H9 C9 1_555 1_555
H10 C9 1_555 1_555
N4 C5 1_555 1_555
C10 C8 1_555 1_555
H11 C10 1_555 1_555
H12 C10 1_555 1_555
C11 C13 1_555 1_555
O4 C1 1_555 1_555
C12 N3 1_555 1_555
H13 C12 1_555 1_555
O5 H25 1_555 1_555
C13 H14 1_555 1_555
H15 C13 1_555 1_555
C14 N2 1_555 1_555
H16 C14 1_555 1_555
C15 C7 1_555 1_555
H17 C15 1_555 1_555
H18 C15 1_555 1_555
H19 C15 1_555 1_555
C16 C3 1_555 1_555
H20 C16 1_555 1_555
H21 C16 1_555 1_555
H22 C16 1_555 1_555
C17 C2 1_555 1_555
H23 C17 1_555 1_555
H24 C17 1_555 1_555
H26 O5 1_555 1_555
O1B C1B 1_555 1_555
C1B C2B 1_555 1_555
C2B H1B 1_555 1_555
H2B C2B 1_555 1_555
N1M Co1 1_555 1_555
N1O Co1B 1_555 1_555
C3M N1M 1_555 1_555
C4M N1M 1_555 1_555
H3M C4M 1_555 1_555
C5M C4M 1_555 1_555
H4M C5M 1_555 1_555
Co1B O1B 1_555 1_555
Co1M N1 1_555 1_555
Co1J O2 1_555 1_555
N2M C7M 1_555 1_555
N3M Co1M 1_555 1_555
N3B Co1B 1_555 1_555
O2B Co1 1_555 1_555
O2H Co1B 1_555 1_555
C6M H5M 1_555 1_555
H6M C6M 1_555 1_555
C7M N3M 1_555 1_555
O3B C11B 1_555 1_555
C8M N2M 1_555 1_555
H7M C8M 1_555 1_555
H8M C8M 1_555 1_555
C9M C6M 1_555 1_555
H9M C9M 1_555 1_555
H10M C9M 1_555 1_555
N4M C3M 1_555 1_555
C10M C8M 1_555 1_555
H11M C10M 1_555 1_555
H12M C10M 1_555 1_555
C11B O2B 1_555 1_555
O4B C1B 1_555 1_555
C12M N3M 1_555 1_555
H13M C12M 1_555 1_555
C13B C11B 1_555 1_555
H14B C13B 1_555 1_555
H15B C13B 1_555 1_555
C14M N2M 1_555 1_555
H16M C14M 1_555 1_555
C15M C7M 1_555 1_555
H17M C15M 1_555 1_555
H18M C15M 1_555 1_555
H19M C15M 1_555 1_555
C16M C3M 1_555 1_555
H20M C16M 1_555 1_555
H21M C16M 1_555 1_555
H22M C16M 1_555 1_555
C17B C2B 1_555 1_555
H23B C17B 1_555 1_555
H24B C17B 1_555 1_555
C6 N4 1_555 1_555
C9 C10 1_555 1_555
C12 C14 1_555 1_555
C13 C17 1_555 1_555
C5M N4M 1_555 1_555
C6M N4M 1_555 1_555
C9M C10M 1_555 1_555
C12M C14M 1_555 1_555
C13B C17B 1_555 1_555

#END
