
#######################################################################
#
#                 Cambridge Crystallographic Data Centre
#                                CCDC 
#
#######################################################################
#
# If this CIF has been generated from an entry in the Cambridge 
# Structural Database, then it will include bibliographic, chemical, 
# crystal, experimental, refinement or atomic coordinate data resulting 
# from the CCDC's data processing and validation procedures.
#
#######################################################################

data_OTIPOX
_symmetry_cell_setting           triclinic
_symmetry_space_group_name_H-M   'P -1'
_symmetry_Int_Tables_number      2
_space_group_name_Hall           '-P 1'
loop_
_symmetry_equiv_pos_site_id
_symmetry_equiv_pos_as_xyz
1 x,y,z
2 -x,-y,-z
_cell_length_a                   8.4306(4)
_cell_length_b                   10.8660(5)
_cell_length_c                   10.9357(5)
_cell_angle_alpha                100.6540(10)
_cell_angle_beta                 103.8780(10)
_cell_angle_gamma                111.9100(10)
_cell_volume                     859.41
loop_
_atom_site_label
_atom_site_type_symbol
_atom_site_fract_x
_atom_site_fract_y
_atom_site_fract_z
C1 C 0.3875(4) 0.9503(2) 0.5692(3)
H1 H 0.3122 0.9180 0.6173
C2 C 0.5268(4) 1.0832(2) 0.6207(3)
H2 H 0.5438 1.1388 0.7028
O1 O 0.2588(2) 0.30861(13) 0.46592(14)
Co1 Co 0.43959(3) 0.49473(2) 0.61184(2)
O2 O 0.2872(2) 0.58641(14) 0.53259(14)
O3 O 0.3838(2) 0.59253(14) 0.36096(15)
C3 C 0.2981(3) 0.62202(18) 0.4310(2)
O4 O 0.35341(19) 0.31202(13) 0.29304(14)
N1 N 0.32952(19) 0.43742(15) 0.75119(15)
N2 N 0.2442(2) 0.42688(17) 0.92465(16)
C4 C 0.2429(3) 0.3000(2) 0.7448(2)
H3 H 0.2238 0.2241 0.6777
C5 C 0.1905(3) 0.2930(2) 0.8507(2)
H4 H 0.1293 0.2123 0.8703
C6 C 0.2541(3) 0.25337(18) 0.35280(18)
C7 C 0.1171(3) 0.1017(2) 0.2869(2)
H5 H 0.0100 0.0875 0.3117
H6 H 0.1689 0.0443 0.3221
C8 C 0.0584(3) 0.05144(18) 0.1389(2)
C9 C -0.0960(3) 0.0525(2) 0.0609(2)
H7 H -0.1623 0.0880 0.1007
C10 C 0.2111(3) 0.7164(2) 0.3954(2)
H8 H 0.1565 0.6906 0.3001
H9 H 0.1169 0.7074 0.4342
C11 C 0.3573(3) 0.8643(2) 0.4480(2)
C12 C 0.3282(2) 0.51178(19) 0.86107(18)
C13 C 0.2142(3) 0.4642(3) 1.0505(2)
H10 H 0.2995 0.5600 1.1001
H11 H 0.2379 0.4054 1.1022
C14 C 0.4085(3) 0.6675(2) 0.9091(2)
H12 H 0.4867 0.7057 0.8613
H13 H 0.4776 0.7000 1.0018
H14 H 0.3128 0.6964 0.8950
C15 C 0.0213(3) 0.4477(2) 1.0303(2)
H15 H 0.0027 0.4579 1.1151
H16 H -0.0636 0.3543 0.9733
C16 C 0.1539(3) -0.0015(2) 0.0758(2)
H17 H 0.2588 -0.0029 0.1262
C1A C 0.6125(4) 1.0497(2) 0.4308(3)
H1A H 0.6878 1.0820 0.3827
C2A C 0.4732(4) 0.9168(2) 0.3793(3)
H2A H 0.4562 0.8612 0.2972
O1A O -0.2588(2) -0.30861(13) -0.46592(14)
O1A_2 O 0.7412(2) 1.69139(13) 0.53408(14)
Co1A Co 0.56041(3) 1.50527(2) 0.38816(2)
Co1A_2 Co 0.56041(3) 0.50527(2) 0.38816(2)
Co1_2 Co 0.43959(3) 1.49473(2) 0.61184(2)
Co1A_3 Co -0.43959(3) -0.49473(2) -0.61184(2)
Co1_3 Co -0.56041(3) -0.50527(2) -0.38816(2)
Co1A_4 Co -0.43959(3) 0.50527(2) 1.38816(2)
O2A O 0.7128(2) 1.41359(14) 0.46741(14)
O3A O 0.6162(2) 1.40747(14) 0.63904(15)
O3A_2 O 0.6162(2) 0.40747(14) 0.63904(15)
O3_2 O 0.3838(2) 1.59253(14) 0.36096(15)
C3A C 0.7019(3) 1.37798(18) 0.5690(2)
O4A O -0.35341(19) -0.31202(13) -0.29304(14)
O4A_2 O 0.64659(19) 0.68798(13) 0.70696(14)
O4_2 O 0.35341(19) 1.31202(13) 0.29304(14)
N1A N -0.32952(19) 0.56258(15) 1.24881(15)
N1A_2 N 0.67048(19) 1.56258(15) 0.24881(15)
N2A N -0.2442(2) 0.57312(17) 1.07535(16)
C4A C -0.2429(3) 0.7000(2) 1.2552(2)
H3A H -0.2238 0.7759 1.3223
C5A C -0.1905(3) 0.7070(2) 1.1493(2)
H4A H -0.1293 0.7877 1.1297
C6A C -0.2541(3) -0.25337(18) -0.35280(18)
C7A C -0.1171(3) -0.1017(2) -0.2869(2)
H5A H -0.0100 -0.0875 -0.3117
H6A H -0.1689 -0.0443 -0.3221
C8A C -0.0584(3) -0.05144(18) -0.1389(2)
C9A C 0.0960(3) -0.0525(2) -0.0609(2)
H7A H 0.1623 -0.0880 -0.1007
C10A C 0.7889(3) 1.2836(2) 0.6046(2)
H8A H 0.8435 1.3094 0.6999
H9A H 0.8831 1.2926 0.5658
C11A C 0.6427(3) 1.1357(2) 0.5520(2)
C12A C -0.3282(2) 0.48822(19) 1.13893(18)
C13A C -0.2142(3) 0.5358(3) 0.9495(2)
H10A H -0.2995 0.4400 0.8999
H11A H -0.2379 0.5946 0.8978
C14A C -0.4085(3) 0.3325(2) 1.0909(2)
H12A H -0.4867 0.2943 1.1387
H13A H -0.4776 0.3000 0.9982
H14A H -0.3128 0.3036 1.1050
C15A C -0.0213(3) 0.5523(2) 0.9697(2)
H15A H -0.0027 0.5421 0.8849
H16A H 0.0636 0.6457 1.0267
C16A C -0.1539(3) 0.0015(2) -0.0758(2)
H17A H -0.2588 0.0029 -0.1262
O5 O 0.9158(3) 0.3327(3) 0.3180(2)
H18 H 1.016(2) 0.347(3) 0.375(2)
H19 H 0.861(3) 0.369(3) 0.360(2)
loop_
_geom_bond_atom_site_label_1
_geom_bond_atom_site_label_2
_geom_bond_site_symmetry_1
_geom_bond_site_symmetry_2
C1 H1 1_555 1_555
C2 C1 1_555 1_555
H2 C2 1_555 1_555
O1 Co1 1_555 1_555
Co1 O2 1_555 1_555
O2 C3 1_555 1_555
O3 C3 1_555 1_555
C3 C10 1_555 1_555
O4 C6 1_555 1_555
N1 Co1 1_555 1_555
N2 C5 1_555 1_555
C4 N1 1_555 1_555
H3 C4 1_555 1_555
C5 C4 1_555 1_555
H4 C5 1_555 1_555
C6 O1 1_555 1_555
C7 C6 1_555 1_555
H5 C7 1_555 1_555
H6 C7 1_555 1_555
C8 C7 1_555 1_555
C9 C8 1_555 1_555
H7 C9 1_555 1_555
C10 H8 1_555 1_555
H9 C10 1_555 1_555
C11 C1 1_555 1_555
C12 N1 1_555 1_555
C13 N2 1_555 1_555
H10 C13 1_555 1_555
H11 C13 1_555 1_555
C14 C12 1_555 1_555
H12 C14 1_555 1_555
H13 C14 1_555 1_555
H14 C14 1_555 1_555
C15 C13 1_555 1_555
H15 C15 1_555 1_555
H16 C15 1_555 1_555
O5 H18 1_555 1_555
C16 C8 1_555 1_555
H17 C16 1_555 1_555
H19 O5 1_555 1_555
C1A H1A 1_555 1_555
C2A C11 1_555 1_555
H2A C2A 1_555 1_555
O1A Co1A_3 1_555 1_555
O1A_2 Co1A 1_555 1_555
Co1A O2A 1_555 1_555
Co1A_2 O3 1_555 1_555
Co1_2 O3A 1_555 1_555
Co1_3 O4A 1_555 1_555
Co1A_4 N1A 1_555 1_555
O2A C3A 1_555 1_555
O3A C3A 1_555 1_555
O3A_2 Co1 1_555 1_555
O3_2 Co1A 1_555 1_555
C3A C10A 1_555 1_555
O4A C6A 1_555 1_555
O4A_2 Co1 1_555 1_555
O4_2 Co1A 1_555 1_555
N1A C4A 1_555 1_555
N1A_2 Co1A 1_555 1_555
N2A C5A 1_555 1_555
C4A H3A 1_555 1_555
C5A C4A 1_555 1_555
H4A C5A 1_555 1_555
C6A O1A 1_555 1_555
C7A C6A 1_555 1_555
H5A C7A 1_555 1_555
H6A C7A 1_555 1_555
C8A C7A 1_555 1_555
C9A C16 1_555 1_555
H7A C9A 1_555 1_555
C10A H8A 1_555 1_555
H9A C10A 1_555 1_555
C11A C2 1_555 1_555
C12A N1A 1_555 1_555
C13A N2A 1_555 1_555
H10A C13A 1_555 1_555
H11A C13A 1_555 1_555
C14A C12A 1_555 1_555
H12A C14A 1_555 1_555
H13A C14A 1_555 1_555
H14A C14A 1_555 1_555
C15A C15 1_555 1_555
H15A C15A 1_555 1_555
H16A C15A 1_555 1_555
C16A C9 1_555 1_555
H17A C16A 1_555 1_555
O4 Co1A_2 1_555 1_555
N2 C12 1_555 1_555
C10 C11 1_555 1_555
C1A C2A 1_555 1_555
C1A C11A 1_555 1_555
N2A C12A 1_555 1_555
C8A C9A 1_555 1_555
C8A C16A 1_555 1_555
C10A C11A 1_555 1_555
C13A C15A 1_555 1_555

#END
