
#######################################################################
#
#                 Cambridge Crystallographic Data Centre
#                                CCDC 
#
#######################################################################
#
# If this CIF has been generated from an entry in the Cambridge 
# Structural Database, then it will include bibliographic, chemical, 
# crystal, experimental, refinement or atomic coordinate data resulting 
# from the CCDC's data processing and validation procedures.
#
#######################################################################

data_OTOXEB
_symmetry_cell_setting           monoclinic
_symmetry_space_group_name_H-M   'P 21/n'
_symmetry_Int_Tables_number      14
_space_group_name_Hall           '-P 2yn'
loop_
_symmetry_equiv_pos_site_id
_symmetry_equiv_pos_as_xyz
1 x,y,z
2 1/2-x,1/2+y,1/2-z
3 -x,-y,-z
4 1/2+x,1/2-y,1/2+z
_cell_length_a                   9.6204(4)
_cell_length_b                   10.8948(5)
_cell_length_c                   13.3105(5)
_cell_angle_alpha                90
_cell_angle_beta                 95.411(4)
_cell_angle_gamma                90
_cell_volume                     1388.89
loop_
_atom_site_label
_atom_site_type_symbol
_atom_site_fract_x
_atom_site_fract_y
_atom_site_fract_z
Ag1 Ag 0.25961(5) -0.83496(5) 0.81982(3)
C1 C 0.1356(6) -0.7481(6) 0.9190(4)
C2 C 0.1626(6) -0.4037(6) 0.8095(4)
C3 C 0.3148(6) -0.5067(7) 1.0873(4)
H1 H 0.3230 -0.5460 1.0253
C4 C 0.4338(6) -0.4927(7) 1.1528(5)
H2 H 0.5198 -0.5238 1.1361
C5 C 0.4250(6) -0.4330(6) 1.2424(4)
C6 C 0.2952(6) -0.3900(7) 1.2642(4)
H3 H 0.2851 -0.3477 1.3246
C7 C 0.1807(6) -0.4110(7) 1.1945(4)
H4 H 0.0926 -0.3836 1.2101
C8 C 0.8865(6) -0.3543(7) 1.6047(5)
H5 H 0.8839 -0.3570 1.6751
C9 C 0.7619(6) -0.3728(6) 1.5431(5)
H6 H 0.6773 -0.3859 1.5715
C10 C 0.7667(6) -0.3715(5) 1.4395(4)
C11 C 0.8926(6) -0.3501(6) 1.4022(5)
H7 H 0.8996 -0.3493 1.3323
C12 C 1.0100(7) -0.3297(7) 1.4698(5)
H8 H 1.0952 -0.3126 1.4435
C13 C 0.5455(6) -0.4134(6) 1.3151(5)
C14 C 0.6431(6) -0.3934(6) 1.3734(5)
Fe1 Fe 0.0000 -0.5000 1.0000
N1 N 0.1069(5) -0.4348(5) 0.8785(4)
N2 N 0.0764(5) -0.6816(5) 0.9662(4)
N3 N 0.1896(5) -0.4680(5) 1.1069(3)
N4 N 1.0077(5) -0.3330(5) 1.5684(4)
Ag1B Ag -0.25961(5) -0.16504(5) 1.18018(3)
Ag1A Ag 0.24039(5) -0.33496(5) 0.68018(3)
Ag1A_2 Ag 1.24039(5) -0.33496(5) 1.68018(3)
Ag1C Ag -0.24039(5) -0.66504(5) 1.31982(3)
Ag1C_2 Ag -1.24039(5) -0.66504(5) 0.31982(3)
C1B C -0.1356(6) -0.2519(6) 1.0810(4)
C2B C -0.1626(6) -0.5963(6) 1.1905(4)
C2A C 0.3374(6) -0.9037(6) 0.6905(4)
C2C C -0.3374(6) -0.0963(6) 1.3095(4)
C3B C -0.3148(6) -0.4933(7) 0.9127(4)
H1B H -0.3230 -0.4540 0.9747
C4B C -0.4338(6) -0.5073(7) 0.8472(5)
H2B H -0.5198 -0.4762 0.8639
C5B C -0.4250(6) -0.5670(6) 0.7576(4)
C6B C -0.2952(6) -0.6100(7) 0.7358(4)
H3B H -0.2851 -0.6523 0.6754
C7B C -0.1807(6) -0.5890(7) 0.8055(4)
H4B H -0.0926 -0.6164 0.7899
C8B C -0.8865(6) -0.6457(7) 0.3953(5)
H5B H -0.8839 -0.6430 0.3249
C9B C -0.7619(6) -0.6272(6) 0.4569(5)
H6B H -0.6773 -0.6141 0.4285
C10B C -0.7667(6) -0.6285(5) 0.5605(4)
C11B C -0.8926(6) -0.6499(6) 0.5978(5)
H7B H -0.8996 -0.6507 0.6677
C12B C -1.0100(7) -0.6703(7) 0.5302(5)
H8B H -1.0952 -0.6874 0.5565
C13B C -0.5455(6) -0.5866(6) 0.6849(5)
C14B C -0.6431(6) -0.6066(6) 0.6266(5)
N1B N -0.1069(5) -0.5652(5) 1.1215(4)
N2B N -0.0764(5) -0.3184(5) 1.0338(4)
N3B N -0.1896(5) -0.5320(5) 0.8931(3)
N4B N -1.0077(5) -0.6670(5) 0.4316(4)
N4A N 0.4923(5) -0.8330(5) 0.9316(4)
N4C N -0.4923(5) -0.1670(5) 1.0684(4)
loop_
_geom_bond_atom_site_label_1
_geom_bond_atom_site_label_2
_geom_bond_site_symmetry_1
_geom_bond_site_symmetry_2
Ag1 C1 1_555 1_555
C1 N2 1_555 1_555
C2 N1 1_555 1_555
C3 H1 1_555 1_555
C4 C3 1_555 1_555
H2 C4 1_555 1_555
C5 C4 1_555 1_555
C6 C5 1_555 1_555
H3 C6 1_555 1_555
C7 C6 1_555 1_555
H4 C7 1_555 1_555
C8 H5 1_555 1_555
C9 C8 1_555 1_555
H6 C9 1_555 1_555
C10 C9 1_555 1_555
C11 C10 1_555 1_555
H7 C11 1_555 1_555
C12 C11 1_555 1_555
H8 C12 1_555 1_555
C13 C5 1_555 1_555
C14 C10 1_555 1_555
Fe1 N1 1_555 1_555
N2 Fe1 1_555 1_555
N3 C3 1_555 1_555
N4 C8 1_555 1_555
Ag1B C1B 1_555 1_555
Ag1A C2 1_555 1_555
Ag1A_2 N4 1_555 1_555
Ag1C C2B 1_555 1_555
Ag1C_2 N4B 1_555 1_555
C1B N2B 1_555 1_555
C2B N1B 1_555 1_555
C2A Ag1 1_555 1_555
C2C Ag1B 1_555 1_555
C3B H1B 1_555 1_555
C4B C3B 1_555 1_555
H2B C4B 1_555 1_555
C5B C4B 1_555 1_555
C6B C5B 1_555 1_555
H3B C6B 1_555 1_555
C7B C6B 1_555 1_555
H4B C7B 1_555 1_555
C8B H5B 1_555 1_555
C9B C8B 1_555 1_555
H6B C9B 1_555 1_555
C10B C9B 1_555 1_555
C11B C10B 1_555 1_555
H7B C11B 1_555 1_555
C12B C11B 1_555 1_555
H8B C12B 1_555 1_555
C13B C5B 1_555 1_555
C14B C10B 1_555 1_555
N1B Fe1 1_555 1_555
N2B Fe1 1_555 1_555
N3B Fe1 1_555 1_555
N4B C8B 1_555 1_555
N4A Ag1 1_555 1_555
N4C Ag1B 1_555 1_555
C7 N3 1_555 1_555
C12 N4 1_555 1_555
C13 C14 1_555 1_555
Fe1 N3 1_555 1_555
C3B N3B 1_555 1_555
C7B N3B 1_555 1_555
C12B N4B 1_555 1_555
C13B C14B 1_555 1_555

#END
