
#######################################################################
#
#                 Cambridge Crystallographic Data Centre
#                                CCDC 
#
#######################################################################
#
# If this CIF has been generated from an entry in the Cambridge 
# Structural Database, then it will include bibliographic, chemical, 
# crystal, experimental, refinement or atomic coordinate data resulting 
# from the CCDC's data processing and validation procedures.
#
#######################################################################

data_OTOZIH
_symmetry_cell_setting           orthorhombic
_symmetry_space_group_name_H-M   'P b c 21'
_symmetry_Int_Tables_number      29
_space_group_name_Hall           'P 2c -2b'
loop_
_symmetry_equiv_pos_site_id
_symmetry_equiv_pos_as_xyz
1 x,y,z
2 -x,-y,1/2+z
3 -x,1/2+y,z
4 x,1/2-y,1/2+z
_cell_length_a                   9.1429(12)
_cell_length_b                   19.388(3)
_cell_length_c                   21.699(3)
_cell_angle_alpha                90
_cell_angle_beta                 90
_cell_angle_gamma                90
_cell_volume                     3846.42
loop_
_atom_site_label
_atom_site_type_symbol
_atom_site_fract_x
_atom_site_fract_y
_atom_site_fract_z
C1 C 0.0299(6) 0.5019(3) 0.3344(3)
C2 C -0.0936(8) 0.4607(4) 0.3265(3)
H1 H -0.1593 0.456 0.359
C3 C -0.1210(8) 0.4270(4) 0.2726(3)
H2 H -0.204 0.3995 0.2698
C4 C -0.0302(7) 0.4322(3) 0.2220(3)
C5 C 0.0953(8) 0.4720(3) 0.2290(3)
H3 H 0.16 0.4762 0.1962
C6 C 0.1265(8) 0.5064(3) 0.2851(3)
H4 H 0.2118 0.5322 0.289
C7 C -0.1162(6) 0.3235(3) 0.0507(3)
C8 C -0.1677(9) 0.3004(4) 0.1077(3)
H5 H -0.2222 0.2599 0.1089
C9 C -0.1415(9) 0.3347(4) 0.1620(3)
H6 H -0.1781 0.3168 0.1987
C10 C -0.0621(7) 0.3953(3) 0.1634(3)
C11 C -0.0076(7) 0.4181(3) 0.1066(3)
H7 H 0.0489 0.458 0.1053
C12 C -0.0353(7) 0.3832(3) 0.0526(3)
H8 H 0.0023 0.4006 0.016
C13 C 0.4704(6) 0.4430(3) -0.0136(3)
C14 C 0.3356(6) 0.4753(3) -0.0038(3)
H9 H 0.2594 0.4688 -0.0316
C15 C 0.3155(6) 0.5169(3) 0.0469(3)
H10 H 0.2249 0.5379 0.052
C16 C 0.4233(6) 0.5293(3) 0.0909(3)
C17 C 0.5565(7) 0.4954(4) 0.0810(3)
H11 H 0.6309 0.5007 0.1099
C18 C 0.5814(7) 0.4546(3) 0.0303(3)
H12 H 0.6727 0.4343 0.0248
C19 C 0.3296(7) 0.6584(3) 0.2482(3)
C20 C 0.4474(8) 0.6139(4) 0.2484(3)
H13 H 0.5073 0.6121 0.283
C21 C 0.4788(8) 0.5716(4) 0.1985(3)
H14 H 0.5575 0.5413 0.2006
C22 C 0.3945(6) 0.5740(3) 0.1454(3)
C23 C 0.2757(8) 0.6202(4) 0.1448(4)
H15 H 0.2182 0.6244 0.1096
C24 C 0.2447(7) 0.6588(4) 0.1952(4)
H16 H 0.1622 0.6868 0.1943
S1 S 0.06095(15) 0.53919(6) 0.40707(7)
S2 S -0.15686(15) 0.27580(6) -0.01686(7)
S3 S 0.49233(14) 0.39155(7) -0.07894(8)
S4 S 0.27985(19) 0.71319(9) 0.30954(7)
Cd1 Cd 0.24180(4) 0.636971(18) 0.40217(2)
S2A S 0.15686(15) 0.72420(6) 0.48314(7)
S3A S 0.50767(14) 0.60845(7) 0.42106(8)
Cd1A Cd -0.24180(4) 0.363029(18) -0.09783(2)
Cd1A_2 Cd 0.75820(4) 0.363029(18) -0.09783(2)
C25 C 0.6028(6) 0.3622(3) 0.4112(4)
H17 H 0.6963 0.3528 0.3918
H18 H 0.6215 0.3799 0.4523
C26 C 0.5210(7) 0.4157(3) 0.3741(3)
H19 H 0.5793 0.4573 0.3708
H20 H 0.5027 0.3984 0.3329
C27 C 0.1712(9) 0.1996(4) 0.3479(4)
H21 H 0.1088 0.1598 0.3417
H22 H 0.2653 0.1899 0.3291
C28 C 0.1019(10) 0.2631(4) 0.3165(4)
H23 H 0.0918 0.2546 0.2727
H24 H 0.0053 0.2712 0.3334
C29 C 0.0940(7) 0.4017(4) 0.5361(4)
H25 H 0.0049 0.4119 0.5585
H26 H 0.1509 0.4438 0.5331
C30 C 0.1819(9) 0.3468(4) 0.5707(4)
H27 H 0.2042 0.3634 0.6118
H28 H 0.1233 0.3053 0.5747
N1 N 0.5173(5) 0.2978(2) 0.4154(3)
H29 H 0.5502 0.2721 0.4471
H30 H 0.528 0.2732 0.3805
N2 N 0.3822(5) 0.4313(2) 0.4047(3)
H31 H 0.3241 0.4558 0.3794
H32 H 0.3982 0.4562 0.439
N3 N 0.1911(6) 0.2116(2) 0.4142(3)
H33 H 0.2579 0.182 0.4292
H34 H 0.1061 0.2043 0.4341
N4 N 0.1921(7) 0.3229(3) 0.3263(3)
H35 H 0.1411 0.3614 0.3177
H36 H 0.2705 0.3214 0.3012
N5 N 0.0578(5) 0.3768(3) 0.4744(3)
H37 H 0.0283 0.4122 0.4507
H38 H -0.0155 0.3459 0.4766
N6 N 0.3166(7) 0.3304(3) 0.5391(3)
H39 H 0.3515 0.2897 0.5525
H40 H 0.384 0.3631 0.5467
Cd2 Cd 0.26856(4) 0.32428(2) 0.43044(2)
N7 N 0.4800(18) 0.2947(10) 0.0784(7)
C31 C 0.3428(16) 0.3224(8) 0.0971(7)
H41 H 0.2647 0.3021 0.0729
H42 H 0.3417 0.3719 0.0905
C32 C 0.319(2) 0.3057(13) 0.1682(8)
H43 H 0.2318 0.3296 0.1817
H44 H 0.3007 0.2567 0.1721
N8 N 0.437(2) 0.3235(11) 0.2104(7)
C33? C 0.3368(19) 0.3395(8) 0.1367(9)
C34? C 0.4329(16) 0.2878(6) 0.1717(6)
H45? H 0.32 0.3228 0.0952
H46? H 0.2428 0.3434 0.1571
H47? H 0.3856 0.243 0.1723
H48? H 0.5262 0.283 0.1509
N9? N 0.407(3) 0.4079(9) 0.1341(13)
N10? N 0.457(4) 0.3122(15) 0.2364(9)
loop_
_geom_bond_atom_site_label_1
_geom_bond_atom_site_label_2
_geom_bond_site_symmetry_1
_geom_bond_site_symmetry_2
C1 C2 1_555 1_555
C2 H1 1_555 1_555
C3 C2 1_555 1_555
H2 C3 1_555 1_555
C4 C3 1_555 1_555
C5 C4 1_555 1_555
H3 C5 1_555 1_555
C6 C1 1_555 1_555
H4 C6 1_555 1_555
C7 C8 1_555 1_555
C8 H5 1_555 1_555
C9 C8 1_555 1_555
H6 C9 1_555 1_555
C10 C4 1_555 1_555
C11 C10 1_555 1_555
H7 C11 1_555 1_555
C12 C7 1_555 1_555
H8 C12 1_555 1_555
C13 C14 1_555 1_555
C14 H9 1_555 1_555
C15 C14 1_555 1_555
H10 C15 1_555 1_555
C16 C15 1_555 1_555
C17 C16 1_555 1_555
H11 C17 1_555 1_555
C18 C13 1_555 1_555
H12 C18 1_555 1_555
C19 C20 1_555 1_555
C20 H13 1_555 1_555
C21 C20 1_555 1_555
H14 C21 1_555 1_555
C22 C16 1_555 1_555
C23 C22 1_555 1_555
H15 C23 1_555 1_555
C24 C19 1_555 1_555
H16 C24 1_555 1_555
C25 H17 1_555 1_555
H18 C25 1_555 1_555
C26 C25 1_555 1_555
H19 C26 1_555 1_555
H20 C26 1_555 1_555
C27 H21 1_555 1_555
H22 C27 1_555 1_555
C28 C27 1_555 1_555
H23 C28 1_555 1_555
H24 C28 1_555 1_555
C29 H25 1_555 1_555
H26 C29 1_555 1_555
C30 C29 1_555 1_555
H27 C30 1_555 1_555
H28 C30 1_555 1_555
N1 C25 1_555 1_555
H29 N1 1_555 1_555
H30 N1 1_555 1_555
N2 C26 1_555 1_555
H31 N2 1_555 1_555
H32 N2 1_555 1_555
N3 C27 1_555 1_555
H33 N3 1_555 1_555
H34 N3 1_555 1_555
N4 C28 1_555 1_555
H35 N4 1_555 1_555
H36 N4 1_555 1_555
N5 C29 1_555 1_555
H37 N5 1_555 1_555
H38 N5 1_555 1_555
N6 C30 1_555 1_555
H39 N6 1_555 1_555
H40 N6 1_555 1_555
S1 C1 1_555 1_555
S2 C7 1_555 1_555
S3 C13 1_555 1_555
S4 C19 1_555 1_555
Cd1 S1 1_555 1_555
Cd2 N1 1_555 1_555
N7 C31 1_555 1_555
C31 H41 1_555 1_555
H42 C31 1_555 1_555
C32 C31 1_555 1_555
H43 C32 1_555 1_555
H44 C32 1_555 1_555
N8 C32 1_555 1_555
S2A Cd1 1_555 1_555
S3A Cd1 1_555 1_555
Cd1A S2 1_555 1_555
Cd1A_2 S3 1_555 1_555
C5 C6 1_555 1_555
C9 C10 1_555 1_555
C11 C12 1_555 1_555
C17 C18 1_555 1_555
C21 C22 1_555 1_555
C23 C24 1_555 1_555
N2 Cd2 1_555 1_555
N3 Cd2 1_555 1_555
N4 Cd2 1_555 1_555
N5 Cd2 1_555 1_555
N6 Cd2 1_555 1_555
S4 Cd1 1_555 1_555

#END
