
#######################################################################
#
#                 Cambridge Crystallographic Data Centre
#                                CCDC 
#
#######################################################################
#
# If this CIF has been generated from an entry in the Cambridge 
# Structural Database, then it will include bibliographic, chemical, 
# crystal, experimental, refinement or atomic coordinate data resulting 
# from the CCDC's data processing and validation procedures.
#
#######################################################################

data_OTUBUB
_symmetry_cell_setting           monoclinic
_symmetry_space_group_name_H-M   'C 2/c'
_symmetry_Int_Tables_number      15
_space_group_name_Hall           '-C 2yn'
loop_
_symmetry_equiv_pos_site_id
_symmetry_equiv_pos_as_xyz
1 x,y,z
2 -x,y,1/2-z
3 1/2+x,1/2+y,z
4 1/2-x,1/2+y,1/2-z
5 -x,-y,-z
6 x,-y,1/2+z
7 1/2-x,1/2-y,-z
8 1/2+x,1/2-y,1/2+z
_cell_length_a                   12.6564(5)
_cell_length_b                   22.9398(10)
_cell_length_c                   24.7425(9)
_cell_angle_alpha                90
_cell_angle_beta                 99.040(3)
_cell_angle_gamma                90
_cell_volume                     7094.39
loop_
_atom_site_label
_atom_site_type_symbol
_atom_site_fract_x
_atom_site_fract_y
_atom_site_fract_z
Cu1 Cu 1.44675(16) 0.28450(10) 0.07818(7)
Cu2 Cu 1.19771(17) 0.53381(10) 0.08683(9)
C1 C 1.3034(11) 0.3759(8) 0.0359(6)
C2 C 1.2468(11) 0.4263(7) 0.0413(6)
C3 C 1.3588(11) 0.4515(7) 0.1201(6)
C4 C 1.4128(9) 0.3995(6) 0.1168(5)
C5 C 1.2795(12) 0.3340(8) -0.0110(6)
H1 H 1.2131 0.3144 -0.0091
H2 H 1.3360 0.3058 -0.0089
H3 H 1.2741 0.3549 -0.0449
C6 C 1.1458(11) 0.4412(9) 0.0021(7)
H4 H 1.1259 0.4809 0.0078
H5 H 1.0890 0.4157 0.0086
H6 H 1.1584 0.4365 -0.0349
C7 C 1.3935(11) 0.4970(8) 0.1615(5)
H7 H 1.3800 0.5348 0.1453
H8 H 1.4686 0.4928 0.1746
H9 H 1.3543 0.4929 0.1915
C8 C 1.5057(11) 0.3800(9) 0.1634(6)
H10 H 1.4949 0.3401 0.1730
H11 H 1.5057 0.4043 0.1949
H12 H 1.5732 0.3836 0.1505
C9 C 1.5002(10) 0.1706(7) 0.1190(5)
C10 C 1.5541(11) 0.1164(7) 0.1212(6)
C11 C 1.6281(10) 0.1435(7) 0.0454(5)
C12 C 1.5677(10) 0.1933(7) 0.0393(5)
C13 C 1.4412(11) 0.1883(8) 0.1639(6)
H13 H 1.4774 0.2205 0.1835
H14 H 1.4385 0.1561 0.1884
H15 H 1.3698 0.1998 0.1486
C14 C 1.5438(12) 0.0708(7) 0.1636(6)
H16 H 1.4887 0.0436 0.1494
H17 H 1.5258 0.0891 0.1958
H18 H 1.6106 0.0504 0.1727
C15 C 1.5672(13) 0.2375(8) -0.0050(5)
H19 H 1.5785 0.2184 -0.0381
H20 H 1.6232 0.2653 0.0056
H21 H 1.4994 0.2572 -0.0109
C16 C 1.7079(12) 0.1272(10) 0.0070(6)
H22 H 1.7566 0.1589 0.0052
H23 H 1.6697 0.1193 -0.0289
H24 H 1.7473 0.0931 0.0208
N1 N 1.3866(8) 0.3604(5) 0.0749(4)
N2 N 1.2725(9) 0.4641(6) 0.0825(5)
N3 N 1.5078(8) 0.2079(5) 0.0786(4)
N4 N 1.6192(8) 0.1040(6) 0.0837(4)
Cu1B Cu 1.94675(16) -0.21550(10) 0.07818(7)
Cu1B_2 Cu 0.94675(16) 0.78450(10) 0.07818(7)
Cu2B Cu 1.69771(17) 0.03381(10) 0.08683(9)
C1B C 1.8034(11) -0.1241(8) 0.0359(6)
C2B C 1.7468(11) -0.0737(7) 0.0413(6)
C3B C 1.8588(11) -0.0485(7) 0.1201(6)
C4B C 1.9128(9) -0.1005(6) 0.1168(5)
C5B C 1.7795(12) -0.1660(8) -0.0110(6)
H1B H 1.7131 -0.1856 -0.0091
H2B H 1.8360 -0.1942 -0.0089
H3B H 1.7741 -0.1451 -0.0449
C6B C 1.6458(11) -0.0588(9) 0.0021(7)
H4B H 1.6259 -0.0191 0.0078
H5B H 1.5890 -0.0843 0.0086
H6B H 1.6584 -0.0635 -0.0349
C7B C 1.8935(11) -0.0030(8) 0.1615(5)
H7B H 1.8800 0.0348 0.1453
H8B H 1.9686 -0.0072 0.1746
H9B H 1.8543 -0.0071 0.1915
C8B C 2.0057(11) -0.1200(9) 0.1634(6)
H10B H 1.9949 -0.1599 0.1730
H11B H 2.0057 -0.0957 0.1949
H12B H 2.0732 -0.1164 0.1505
C9B C 1.0002(10) 0.6706(7) 0.1190(5)
C10B C 1.0541(11) 0.6164(7) 0.1212(6)
C11B C 1.1281(10) 0.6435(7) 0.0454(5)
C12B C 1.0677(10) 0.6933(7) 0.0393(5)
C13B C 0.9412(11) 0.6883(8) 0.1639(6)
H13B H 0.9774 0.7205 0.1835
H14B H 0.9385 0.6561 0.1884
H15B H 0.8698 0.6998 0.1486
C14B C 1.0438(12) 0.5708(7) 0.1636(6)
H16B H 0.9887 0.5436 0.1494
H17B H 1.0258 0.5891 0.1958
H18B H 1.1106 0.5504 0.1727
C15B C 1.0672(13) 0.7375(8) -0.0050(5)
H19B H 1.0785 0.7184 -0.0381
H20B H 1.1232 0.7653 0.0056
H21B H 0.9994 0.7572 -0.0109
C16B C 1.2079(12) 0.6272(10) 0.0070(6)
H22B H 1.2566 0.6589 0.0052
H23B H 1.1697 0.6193 -0.0289
H24B H 1.2473 0.5931 0.0208
N1B N 1.8866(8) -0.1396(5) 0.0749(4)
N2B N 1.7725(9) -0.0359(6) 0.0825(5)
N3B N 1.0078(8) 0.7079(5) 0.0786(4)
N3B_2 N 2.0078(8) -0.2921(5) 0.0786(4)
N4B N 1.1192(8) 0.6040(6) 0.0837(4)
W1 W 0.77375(4) 0.28016(3) 0.14831(2)
W2 W 1.16678(4) 0.29019(3) 0.14936(2)
W3 W 0.98050(5) 0.39372(3) 0.14768(2)
W4 W 0.95941(5) 0.17695(3) 0.14753(2)
W5 W 0.80550(5) 0.39420(3) 0.25431(2)
W6 W 0.80292(5) 0.17613(3) 0.24439(2)
O1 O 0.7161(6) 0.2204(5) 0.1885(3)
O2 O 1.0515(6) 0.2377(4) 0.1305(3)
O3 O 1.1000(7) 0.4340(4) 0.1893(3)
O4 O 0.7077(8) 0.4467(5) 0.2389(4)
O5 O 0.7154(8) 0.1238(5) 0.2584(4)
O6 O 0.6675(7) 0.2980(5) 0.0988(4)
O7 O 0.9407(8) 0.4444(5) 0.0995(4)
O8 O 1.2442(6) 0.2727(5) 0.1006(3)
O9 O 0.9715(8) 0.1268(5) 0.0988(4)
O10 O 1.0643(6) 0.3260(4) 0.2110(3)
O11 O 0.9152(6) 0.2441(4) 0.2108(3)
O12 O 1.2178(6) 0.2367(4) 0.2050(3)
O13 O 1.0770(6) 0.3504(4) 0.1117(3)
O14 O 0.7558(6) 0.3332(5) 0.2037(3)
O15 O 0.8769(6) 0.3340(4) 0.1292(3)
O16 O 0.8386(6) 0.2210(5) 0.1117(3)
O17 O 0.8991(7) 0.4150(4) 0.2036(3)
O18 O 0.8627(7) 0.1376(4) 0.1876(3)
O19 O 1.0752(7) 0.1554(5) 0.2052(3)
O20 O 1.2496(7) 0.3503(5) 0.1900(3)
Si1 Si 1.0000 0.2852(3) 0.2500
W1A W 1.22625(4) 0.28016(3) 0.35169(2)
W2A W 0.83322(4) 0.29019(3) 0.35064(2)
W3A W 1.01950(5) 0.39372(3) 0.35232(2)
W4A W 1.04059(5) 0.17695(3) 0.35247(2)
W5A W 1.19450(5) 0.39420(3) 0.24569(2)
W6A W 1.19708(5) 0.17613(3) 0.25561(2)
O1A O 1.2839(6) 0.2204(5) 0.3115(3)
O2A O 0.9485(6) 0.2377(4) 0.3695(3)
O3A O 0.9000(7) 0.4340(4) 0.3107(3)
O4A O 1.2923(8) 0.4467(5) 0.2611(4)
O5A O 1.2846(8) 0.1238(5) 0.2416(4)
O6A O 1.3325(7) 0.2980(5) 0.4012(4)
O7A O 1.0593(8) 0.4444(5) 0.4005(4)
O8A O 0.7558(6) 0.2727(5) 0.3994(3)
O9A O 1.0285(8) 0.1268(5) 0.4012(4)
O10A O 0.9357(6) 0.3260(4) 0.2890(3)
O11A O 1.0848(6) 0.2441(4) 0.2892(3)
O12A O 0.7822(6) 0.2367(4) 0.2950(3)
O13A O 0.9230(6) 0.3504(4) 0.3883(3)
O14A O 1.2442(6) 0.3332(5) 0.2963(3)
O15A O 1.1231(6) 0.3340(4) 0.3708(3)
O16A O 1.1614(6) 0.2210(5) 0.3883(3)
O17A O 1.1009(7) 0.4150(4) 0.2964(3)
O18A O 1.1373(7) 0.1376(4) 0.3124(3)
O19A O 0.9248(7) 0.1554(5) 0.2948(3)
O20A O 0.7504(7) 0.3503(5) 0.3100(3)
O21 O 1.223(3) 0.0395(19) 0.1317(14)
loop_
_geom_bond_atom_site_label_1
_geom_bond_atom_site_label_2
_geom_bond_site_symmetry_1
_geom_bond_site_symmetry_2
Cu1 N1 1_555 1_555
Cu2 N2 1_555 1_555
W1 O1 1_555 1_555
W2 O2 1_555 1_555
W3 O3 1_555 1_555
W4 O2 1_555 1_555
W5 O4 1_555 1_555
W6 O1 1_555 1_555
C1 C2 1_555 1_555
C2 C6 1_555 1_555
C3 C4 1_555 1_555
C4 C8 1_555 1_555
C5 C1 1_555 1_555
H1 C5 1_555 1_555
H2 C5 1_555 1_555
H3 C5 1_555 1_555
C6 H4 1_555 1_555
H5 C6 1_555 1_555
H6 C6 1_555 1_555
C7 C3 1_555 1_555
H7 C7 1_555 1_555
H8 C7 1_555 1_555
H9 C7 1_555 1_555
C8 H10 1_555 1_555
H11 C8 1_555 1_555
H12 C8 1_555 1_555
C9 C10 1_555 1_555
C10 C14 1_555 1_555
C11 C12 1_555 1_555
C12 C15 1_555 1_555
C13 C9 1_555 1_555
H13 C13 1_555 1_555
H14 C13 1_555 1_555
H15 C13 1_555 1_555
C14 H16 1_555 1_555
H17 C14 1_555 1_555
H18 C14 1_555 1_555
C15 H19 1_555 1_555
H20 C15 1_555 1_555
H21 C15 1_555 1_555
C16 C11 1_555 1_555
H22 C16 1_555 1_555
H23 C16 1_555 1_555
H24 C16 1_555 1_555
N1 C1 1_555 1_555
N2 C2 1_555 1_555
N3 Cu1 1_555 1_555
N4 C10 1_555 1_555
O3 W5A 1_555 1_555
O5 W6 1_555 1_555
O6 W1 1_555 1_555
O7 W3 1_555 1_555
O8 W2 1_555 1_555
O9 W4 1_555 1_555
O10 W2 1_555 1_555
O11 W1 1_555 1_555
O12 W2 1_555 1_555
O13 W2 1_555 1_555
O14 W1 1_555 1_555
O15 W1 1_555 1_555
O16 W1 1_555 1_555
O17 W3 1_555 1_555
O18 W4 1_555 1_555
O19 W4 1_555 1_555
O20 W2 1_555 1_555
Si1 O10 1_555 1_555
Cu1B N1B 1_555 1_555
Cu1B_2 N3B 1_555 1_555
Cu2B N4 1_555 1_555
W1A O1A 1_555 1_555
W2A O2A 1_555 1_555
W3A O3A 1_555 1_555
W4A O2A 1_555 1_555
W5A O10 1_555 1_555
W6A O12 1_555 1_555
C1B C2B 1_555 1_555
C2B C6B 1_555 1_555
C3B C4B 1_555 1_555
C4B C8B 1_555 1_555
C5B C1B 1_555 1_555
H1B C5B 1_555 1_555
H2B C5B 1_555 1_555
H3B C5B 1_555 1_555
C6B H4B 1_555 1_555
H5B C6B 1_555 1_555
H6B C6B 1_555 1_555
C7B C3B 1_555 1_555
H7B C7B 1_555 1_555
H8B C7B 1_555 1_555
H9B C7B 1_555 1_555
C8B H10B 1_555 1_555
H11B C8B 1_555 1_555
H12B C8B 1_555 1_555
C9B C10B 1_555 1_555
C10B C14B 1_555 1_555
C11B C12B 1_555 1_555
C12B C15B 1_555 1_555
C13B C9B 1_555 1_555
H13B C13B 1_555 1_555
H14B C13B 1_555 1_555
H15B C13B 1_555 1_555
C14B H16B 1_555 1_555
H17B C14B 1_555 1_555
H18B C14B 1_555 1_555
C15B H19B 1_555 1_555
H20B C15B 1_555 1_555
H21B C15B 1_555 1_555
C16B C11B 1_555 1_555
H22B C16B 1_555 1_555
H23B C16B 1_555 1_555
H24B C16B 1_555 1_555
N1B C1B 1_555 1_555
N2B Cu2B 1_555 1_555
N3B C9B 1_555 1_555
N3B_2 Cu1B 1_555 1_555
N4B Cu2 1_555 1_555
O1A W6A 1_555 1_555
O3A W5 1_555 1_555
O4A W5A 1_555 1_555
O5A W6A 1_555 1_555
O6A W1A 1_555 1_555
O7A W3A 1_555 1_555
O8A W2A 1_555 1_555
O9A W4A 1_555 1_555
O10A W5 1_555 1_555
O11A Si1 1_555 1_555
O12A W6 1_555 1_555
O13A W2A 1_555 1_555
O14A W1A 1_555 1_555
O15A W1A 1_555 1_555
O16A W1A 1_555 1_555
O17A W3A 1_555 1_555
O18A W4A 1_555 1_555
O19A W6 1_555 1_555
O20A W5 1_555 1_555
W3 O10 1_555 1_555
W3 O13 1_555 1_555
W3 O15 1_555 1_555
W4 O11 1_555 1_555
W4 O16 1_555 1_555
W5 O14 1_555 1_555
W5 O17 1_555 1_555
W6 O11 1_555 1_555
W6 O18 1_555 1_555
C3 N2 1_555 1_555
C4 N1 1_555 1_555
C9 N3 1_555 1_555
C11 N4 1_555 1_555
C12 N3 1_555 1_555
O11 Si1 1_555 1_555
O19 W6A 1_555 1_555
O20 W5A 1_555 1_555
Si1 O10A 1_555 1_555
W1A O11A 1_555 1_555
W2A O10A 1_555 1_555
W2A O12A 1_555 1_555
W2A O20A 1_555 1_555
W3A O10A 1_555 1_555
W3A O13A 1_555 1_555
W3A O15A 1_555 1_555
W4A O11A 1_555 1_555
W4A O16A 1_555 1_555
W4A O19A 1_555 1_555
W5A O14A 1_555 1_555
W5A O17A 1_555 1_555
W6A O11A 1_555 1_555
W6A O18A 1_555 1_555
C2B N2B 1_555 1_555
C3B N2B 1_555 1_555
C4B N1B 1_555 1_555
C10B N4B 1_555 1_555
C11B N4B 1_555 1_555
C12B N3B 1_555 1_555

#END
