
#######################################################################
#
#                 Cambridge Crystallographic Data Centre
#                                CCDC 
#
#######################################################################
#
# If this CIF has been generated from an entry in the Cambridge 
# Structural Database, then it will include bibliographic, chemical, 
# crystal, experimental, refinement or atomic coordinate data resulting 
# from the CCDC's data processing and validation procedures.
#
#######################################################################

data_OTUCEM
_symmetry_cell_setting           orthorhombic
_symmetry_space_group_name_H-M   'P n m a'
_symmetry_Int_Tables_number      62
_space_group_name_Hall           '-P 2ac 2n'
loop_
_symmetry_equiv_pos_site_id
_symmetry_equiv_pos_as_xyz
1 x,y,z
2 1/2-x,-y,1/2+z
3 1/2+x,1/2-y,1/2-z
4 -x,1/2+y,-z
5 -x,-y,-z
6 1/2+x,y,1/2-z
7 1/2-x,1/2+y,1/2+z
8 x,1/2-y,z
_cell_length_a                   17.592(5)
_cell_length_b                   22.091(5)
_cell_length_c                   15.733(5)
_cell_angle_alpha                90
_cell_angle_beta                 90
_cell_angle_gamma                90
_cell_volume                     6114.24
loop_
_atom_site_label
_atom_site_type_symbol
_atom_site_fract_x
_atom_site_fract_y
_atom_site_fract_z
Mo1 Mo 0.25005(13) 0.2500 0.29682(12)
Mo2 Mo 0.32611(9) 0.13752(7) 0.43284(10)
Mo3 Mo 0.13046(9) 0.13422(8) 0.38020(10)
Mo4 Mo 0.15358(13) 0.2500 0.73572(13)
Mo5 Mo 0.00263(12) 0.2500 0.44822(15)
Mo6 Mo 0.07079(11) 0.35987(9) 0.59737(11)
Mo7 Mo 0.39460(13) 0.2500 0.57256(15)
Mo8 Mo 0.26675(11) 0.36813(9) 0.64818(11)
O1 O 0.2730(9) 0.2500 0.1962(9)
O2 O 0.1707(7) 0.1906(7) 0.3010(9)
O3 O 0.3162(7) 0.1892(6) 0.3397(9)
O4 O -0.0873(10) 0.2500 0.4235(14)
O5 O 0.0447(10) 0.1903(7) 0.3821(9)
O6 O 0.0979(8) 0.0798(6) 0.3164(9)
O7 O 0.2273(8) 0.1041(6) 0.4024(9)
O8 O 0.3929(9) 0.1897(8) 0.4882(7)
O9 O 0.4845(12) 0.2500 0.6022(15)
O10 O 0.3030(10) 0.1046(7) 0.5450(8)
O11 O 0.1682(9) 0.3943(8) 0.6309(12)
O12 O 0.0918(11) 0.1064(7) 0.4862(9)
O13 O 0.0030(11) 0.3088(7) 0.5438(9)
O14 O 0.0782(8) 0.1925(7) 0.6909(10)
O15 O 0.0107(8) 0.4134(7) 0.6324(9)
O16 O 0.3850(8) 0.0851(6) 0.3968(9)
O17 O 0.1294(11) 0.2500 0.8374(11)
O18 O 0.3024(10) 0.4200(7) 0.7135(9)
O19 O 0.3543(10) 0.3116(8) 0.6506(8)
O20 O 0.2266(8) 0.1894(7) 0.7289(11)
O21 O 0.2207(11) 0.2892(9) 0.4401(12)
O22 O 0.2666(10) 0.2923(8) 0.5365(12)
O23 O 0.1813(10) 0.2875(9) 0.5933(11)
O24 O 0.1297(13) 0.2896(9) 0.4952(13)
P1 P 0.1986(3) 0.2500 0.5159(3)
Mo2G Mo 0.32611(9) 0.36248(7) 0.43284(10)
Mo3G Mo 0.13046(9) 0.36578(8) 0.38020(10)
Mo6G Mo 0.07079(11) 0.14013(9) 0.59737(11)
Mo8G Mo 0.26675(11) 0.13187(9) 0.64818(11)
O2G O 0.1707(7) 0.3094(7) 0.3010(9)
O3G O 0.3162(7) 0.3108(6) 0.3397(9)
O5G O 0.0447(10) 0.3097(7) 0.3821(9)
O6G O 0.0979(8) 0.4202(6) 0.3164(9)
O7G O 0.2273(8) 0.3959(6) 0.4024(9)
O8G O 0.3929(9) 0.3103(8) 0.4882(7)
O10G O 0.3030(10) 0.3954(7) 0.5450(8)
O11G O 0.1682(9) 0.1057(8) 0.6309(12)
O12G O 0.0918(11) 0.3936(7) 0.4862(9)
O13G O 0.0030(11) 0.1912(7) 0.5438(9)
O14G O 0.0782(8) 0.3075(7) 0.6909(10)
O15G O 0.0107(8) 0.0866(7) 0.6324(9)
O16G O 0.3850(8) 0.4149(6) 0.3968(9)
O18G O 0.3024(10) 0.0800(7) 0.7135(9)
O19G O 0.3543(10) 0.1884(8) 0.6506(8)
O20G O 0.2266(8) 0.3106(7) 0.7289(11)
O21G O 0.2207(11) 0.2108(9) 0.4401(12)
O22G O 0.2666(10) 0.2077(8) 0.5365(12)
O23G O 0.1813(10) 0.2125(9) 0.5933(11)
O24G O 0.1297(13) 0.2104(9) 0.4952(13)
O25 O 0.410(2) 0.2500 0.809(3)
H23 H 0.44(2) 0.2500 0.767(18)
H24 H 0.44(2) 0.2500 0.853(16)
Cu1 Cu 0.0000 1.0000 0.5000
Cu2 Cu 0.3577(2) 0.90197(13) 0.53966(18)
C1 C 0.2024(14) 0.9368(9) 0.6028(13)
C2 C 0.1302(13) 0.9549(10) 0.5953(15)
C3 C 0.2200(16) 0.9542(9) 0.4576(14)
C4 C 0.1483(18) 0.9710(10) 0.4504(17)
H1 H 0.1294 0.9840 0.3983
C5 C 0.2799(19) 0.9568(11) 0.3828(12)
H2 H 0.3152 0.9891 0.3930
H3 H 0.3069 0.9191 0.3800
H4 H 0.2540 0.9638 0.3300
C6 C 0.0791(15) 0.9522(13) 0.6726(17)
H5 H 0.0441 0.9855 0.6713
H6 H 0.0513 0.9147 0.6723
H7 H 0.1095 0.9545 0.7232
C7 C 0.2367(13) 0.9174(10) 0.6838(11)
H8 H 0.2161 0.8788 0.7000
H9 H 0.2908 0.9139 0.6770
H10 H 0.2257 0.9467 0.7271
C8 C 0.4063(9) 0.7819(7) 0.6000(10)
C9 C 0.4644(12) 0.8175(9) 0.6497(12)
H11 H 0.4445 0.8569 0.6624
H12 H 0.4758 0.7966 0.7017
H13 H 0.5099 0.8215 0.6165
C10 C 0.3036(10) 0.7835(9) 0.5116(11)
C11 C 0.2403(18) 0.8014(16) 0.458(2)
H14 H 0.2575 0.8304 0.4164
H16 H 0.2010 0.8192 0.4918
C12 C 0.4711(17) 0.9020(10) 0.3840(15)
H17 H 0.5125 0.8967 0.3450
H18 H 0.4651 0.8659 0.4173
H19 H 0.4252 0.9097 0.3528
C13 C 0.4881(16) 0.9565(10) 0.4439(13)
C14 C 0.5360(14) 0.9972(11) 0.4269(15)
C15 C 0.569(2) 0.9967(16) 0.352(2)
H20 H 0.5950 0.9590 0.3440
H21 H 0.6046 1.0295 0.3483
H22 H 0.5310 1.0014 0.3084
N1 N 0.4456(11) 0.9567(7) 0.5163(11)
N2 N 0.3587(11) 0.8120(8) 0.5541(10)
N3 N 0.2506(11) 0.9374(7) 0.5344(10)
N4 N 0.1043(12) 0.9691(8) 0.5165(16)
Cu2D Cu -0.3577(2) 1.09803(13) 0.46034(18)
Cu2G Cu 0.3577(2) 0.59803(13) 0.53966(18)
Cu2D_2 Cu 0.6423(2) 1.09803(13) 0.46034(18)
C1D C -0.2024(14) 1.0632(9) 0.3972(13)
C2D C -0.1302(13) 1.0451(10) 0.4047(15)
C3D C -0.2200(16) 1.0458(9) 0.5424(14)
C4D C -0.1483(18) 1.0290(10) 0.5496(17)
H1D H -0.1294 1.0160 0.6017
C5D C -0.2799(19) 1.0432(11) 0.6172(12)
H2D H -0.3152 1.0109 0.6070
H3D H -0.3069 1.0809 0.6200
H4D H -0.2540 1.0362 0.6700
C6D C -0.0791(15) 1.0478(13) 0.3274(17)
H5D H -0.0441 1.0145 0.3287
H6D H -0.0513 1.0853 0.3277
H7D H -0.1095 1.0455 0.2768
C7D C -0.2367(13) 1.0826(10) 0.3162(11)
H8D H -0.2161 1.1212 0.3000
H9D H -0.2908 1.0861 0.3230
H10D H -0.2257 1.0533 0.2729
C8G C 0.4063(9) 0.7181(7) 0.6000(10)
C9G C 0.4644(12) 0.6825(9) 0.6497(12)
H11G H 0.4445 0.6431 0.6624
H12G H 0.4758 0.7034 0.7017
H13G H 0.5099 0.6785 0.6165
C10G C 0.3036(10) 0.7165(9) 0.5116(11)
C11G C 0.2403(18) 0.6986(16) 0.458(2)
H14G H 0.2575 0.6696 0.4164
H16G H 0.2010 0.6808 0.4918
C12D C 0.5289(17) 1.0980(10) 0.6160(15)
H17D H 0.4875 1.1033 0.6550
H18D H 0.5349 1.1341 0.5827
H19D H 0.5748 1.0903 0.6472
C13D C 0.5119(16) 1.0435(10) 0.5561(13)
C14D C 0.4640(14) 1.0028(11) 0.5731(15)
C15D C 0.431(2) 1.0033(16) 0.648(2)
H20D H 0.4050 1.0410 0.6560
H21D H 0.3954 0.9705 0.6517
H22D H 0.4690 0.9986 0.6916
N1D N 0.5544(11) 1.0433(7) 0.4837(11)
N1D_2 N -0.4456(11) 1.0433(7) 0.4837(11)
N2G N 0.3587(11) 0.6880(8) 0.5541(10)
N2D N -0.3587(11) 1.1880(8) 0.4459(10)
N3D N -0.2506(11) 1.0626(7) 0.4656(10)
N4D N -0.1043(12) 1.0309(8) 0.4835(16)
H15? H 0.2205 0.7665 0.4288
loop_
_geom_bond_atom_site_label_1
_geom_bond_atom_site_label_2
_geom_bond_site_symmetry_1
_geom_bond_site_symmetry_2
Cu1 N4 1_555 1_555
Cu2 N1 1_555 1_555
Mo1 O1 1_555 1_555
Mo2 O3 1_555 1_555
Mo3 O2 1_555 1_555
Mo4 O14 1_555 1_555
Mo5 O4 1_555 1_555
Mo6 O11 1_555 1_555
Mo7 O8 1_555 1_555
Mo8 O11 1_555 1_555
C1 C2 1_555 1_555
C2 C6 1_555 1_555
C3 C4 1_555 1_555
C4 H1 1_555 1_555
C5 C3 1_555 1_555
H2 C5 1_555 1_555
H3 C5 1_555 1_555
H4 C5 1_555 1_555
C6 H5 1_555 1_555
H6 C6 1_555 1_555
H7 C6 1_555 1_555
C7 C1 1_555 1_555
H8 C7 1_555 1_555
H9 C7 1_555 1_555
H10 C7 1_555 1_555
C8 C9 1_555 1_555
C9 H11 1_555 1_555
H12 C9 1_555 1_555
H13 C9 1_555 1_555
C10 C11 1_555 1_555
C11 H14 1_555 1_555
H16 C11 1_555 1_555
C12 H17 1_555 1_555
H18 C12 1_555 1_555
H19 C12 1_555 1_555
C13 C12 1_555 1_555
C14 C13 1_555 1_555
C15 C14 1_555 1_555
H20 C15 1_555 1_555
H21 C15 1_555 1_555
H22 C15 1_555 1_555
N1 C13 1_555 1_555
N2 Cu2 1_555 1_555
N3 Cu2 1_555 1_555
N4 C2 1_555 1_555
O2 Mo1 1_555 1_555
O3 Mo1 1_555 1_555
O5 Mo3 1_555 1_555
O6 Mo3 1_555 1_555
O7 Mo2 1_555 1_555
O8 Mo2 1_555 1_555
O9 Mo7 1_555 1_555
O10 Mo2 1_555 1_555
O12 Mo3 1_555 1_555
O13 Mo5 1_555 1_555
O14 Mo6G 1_555 1_555
O15 Mo6 1_555 1_555
O16 Mo2 1_555 1_555
O17 Mo4 1_555 1_555
O18 Mo8 1_555 1_555
O19 Mo7 1_555 1_555
O20 Mo4 1_555 1_555
O21 Mo1 1_555 1_555
O22 Mo7 1_555 1_555
O23 Mo4 1_555 1_555
O24 Mo5 1_555 1_555
P1 O21 1_555 1_555
O25 H23 1_555 1_555
H24 O25 1_555 1_555
Cu2D N1D_2 1_555 1_555
Cu2G N2G 1_555 1_555
Cu2D_2 N1D 1_555 1_555
Mo2G O21 1_555 1_555
Mo3G O21 1_555 1_555
Mo6G O12 1_555 1_555
Mo8G O10 1_555 1_555
C1D C2D 1_555 1_555
C2D C6D 1_555 1_555
C3D C4D 1_555 1_555
C4D H1D 1_555 1_555
C5D C3D 1_555 1_555
H2D C5D 1_555 1_555
H3D C5D 1_555 1_555
H4D C5D 1_555 1_555
C6D H5D 1_555 1_555
H6D C6D 1_555 1_555
H7D C6D 1_555 1_555
C7D C1D 1_555 1_555
H8D C7D 1_555 1_555
H9D C7D 1_555 1_555
H10D C7D 1_555 1_555
C8G C8 1_555 1_555
C9G C8G 1_555 1_555
H11G C9G 1_555 1_555
H12G C9G 1_555 1_555
H13G C9G 1_555 1_555
C10G C10 1_555 1_555
C11G C10G 1_555 1_555
H14G C11G 1_555 1_555
H16G C11G 1_555 1_555
C12D H17D 1_555 1_555
H18D C12D 1_555 1_555
H19D C12D 1_555 1_555
C13D C12D 1_555 1_555
C14D N1 1_555 1_555
C15D C14D 1_555 1_555
H20D C15D 1_555 1_555
H21D C15D 1_555 1_555
H22D C15D 1_555 1_555
N1D C14 1_555 1_555
N2G C8G 1_555 1_555
N2D Cu2D 1_555 1_555
N3D Cu2D 1_555 1_555
N4D Cu1 1_555 1_555
O2G Mo1 1_555 1_555
O3G Mo1 1_555 1_555
O5G Mo5 1_555 1_555
O6G Mo3G 1_555 1_555
O7G Mo2G 1_555 1_555
O8G Mo7 1_555 1_555
O10G Mo8 1_555 1_555
O11G Mo6G 1_555 1_555
O12G Mo6 1_555 1_555
O13G Mo5 1_555 1_555
O14G Mo4 1_555 1_555
O15G Mo6G 1_555 1_555
O16G Mo2G 1_555 1_555
O18G Mo8G 1_555 1_555
O19G Mo7 1_555 1_555
O20G Mo4 1_555 1_555
O21G Mo1 1_555 1_555
O22G Mo2 1_555 1_555
O23G Mo4 1_555 1_555
O24G Mo3 1_555 1_555
Mo2 O21G 1_555 1_555
Mo3 O7 1_555 1_555
Mo3 O21G 1_555 1_555
Mo5 O5 1_555 1_555
Mo5 O24G 1_555 1_555
Mo6 O13 1_555 1_555
Mo6 O23 1_555 1_555
Mo6 O24 1_555 1_555
Mo6 O14G 1_555 1_555
Mo7 O22G 1_555 1_555
Mo8 O19 1_555 1_555
Mo8 O22 1_555 1_555
Mo8 O23 1_555 1_555
Mo8 O20G 1_555 1_555
C1 N3 1_555 1_555
C3 N3 1_555 1_555
C4 N4 1_555 1_555
C8 N2 1_555 1_555
C10 N2 1_555 1_555
O20 Mo8G 1_555 1_555
O21 O22 1_555 1_555
O21 O24 1_555 1_555
O21 O21G 1_555 1_555
O22 O23 1_555 1_555
O22 P1 1_555 1_555
O22 Mo2G 1_555 1_555
O23 O24 1_555 1_555
O23 P1 1_555 1_555
O23 O23G 1_555 1_555
O24 P1 1_555 1_555
O24 Mo3G 1_555 1_555
O24 O24G 1_555 1_555
P1 O21G 1_555 1_555
P1 O22G 1_555 1_555
P1 O23G 1_555 1_555
P1 O24G 1_555 1_555
Mo2G O3G 1_555 1_555
Mo2G O8G 1_555 1_555
Mo2G O10G 1_555 1_555
Mo3G O2G 1_555 1_555
Mo3G O5G 1_555 1_555
Mo3G O7G 1_555 1_555
Mo3G O12G 1_555 1_555
Mo6G O13G 1_555 1_555
Mo6G O23G 1_555 1_555
Mo6G O24G 1_555 1_555
Mo8G O11G 1_555 1_555
Mo8G O19G 1_555 1_555
Mo8G O22G 1_555 1_555
Mo8G O23G 1_555 1_555
C1D N3D 1_555 1_555
C2D N4D 1_555 1_555
C3D N3D 1_555 1_555
C4D N4D 1_555 1_555
C10G N2G 1_555 1_555
C13D C14D 1_555 1_555
C13D N1D 1_555 1_555
O21G O22G 1_555 1_555
O21G O24G 1_555 1_555
O22G O23G 1_555 1_555
O23G O24G 1_555 1_555

#END
