
#######################################################################
#
#                 Cambridge Crystallographic Data Centre
#                                CCDC 
#
#######################################################################
#
# If this CIF has been generated from an entry in the Cambridge 
# Structural Database, then it will include bibliographic, chemical, 
# crystal, experimental, refinement or atomic coordinate data resulting 
# from the CCDC's data processing and validation procedures.
#
#######################################################################

data_OTUCAI
_symmetry_cell_setting           monoclinic
_symmetry_space_group_name_H-M   'C 2/c'
_symmetry_Int_Tables_number      15
_space_group_name_Hall           '-C 2yn'
loop_
_symmetry_equiv_pos_site_id
_symmetry_equiv_pos_as_xyz
1 x,y,z
2 -x,y,1/2-z
3 1/2+x,1/2+y,z
4 1/2-x,1/2+y,1/2-z
5 -x,-y,-z
6 x,-y,1/2+z
7 1/2-x,1/2-y,-z
8 1/2+x,1/2-y,1/2+z
_cell_length_a                   23.4725(7)
_cell_length_b                   12.0745(3)
_cell_length_c                   23.1288(7)
_cell_angle_alpha                90
_cell_angle_beta                 112.811(4)
_cell_angle_gamma                90
_cell_volume                     6042.45
loop_
_atom_site_label
_atom_site_type_symbol
_atom_site_fract_x
_atom_site_fract_y
_atom_site_fract_z
Mo1 Mo 0.88887(3) 0.35849(6) 0.61484(3)
Mo2 Mo 0.78761(3) 0.19633(6) 0.66226(3)
Mo3 Mo 0.87611(3) 0.06928(6) 0.58352(3)
Mo4 Mo 0.84966(3) 0.41766(6) 0.45296(3)
Mo5 Mo 0.76321(4) 0.53746(6) 0.53191(3)
Mo6 Mo 0.83904(3) 0.12634(6) 0.42182(3)
O1 O 0.7961(4) 0.3505(7) 0.5200(3)
O2 O 0.7875(4) 0.1467(7) 0.4973(4)
O3 O 0.7256(4) 0.2340(7) 0.5527(4)
O4 O 0.8010(4) 0.2257(7) 0.5609(4)
O5 O 0.7299(3) 0.3122(5) 0.6475(3)
O6 O 0.7210(3) 0.0982(5) 0.6229(3)
O7 O 0.8063(3) 0.1679(5) 0.7375(2)
O8 O 0.8390(3) 0.0890(5) 0.6430(3)
O9 O 0.9131(3) 0.2106(4) 0.6077(3)
O10 O 0.9353(3) -0.0143(5) 0.6218(3)
O11 O 0.8116(3) -0.0316(5) 0.5406(2)
O12 O 0.8478(3) 0.3027(4) 0.6651(3)
O13 O 0.8862(3) 0.0918(6) 0.5051(2)
O14 O 0.8804(3) 0.0682(5) 0.3860(2)
O15 O 0.8725(3) 0.2707(5) 0.4362(3)
O16 O 0.8981(3) 0.3922(6) 0.5387(3)
O17 O 0.8059(3) 0.5270(6) 0.4776(2)
O18 O 0.8335(3) 0.4817(6) 0.5971(3)
O19 O 0.7680(2) 0.6718(4) 0.5501(2)
O20 O 0.7157(3) 0.4910(5) 0.5794(2)
O21 O 0.9530(3) 0.4108(5) 0.6675(3)
O22 O 0.8968(3) 0.4928(4) 0.4315(2)
P1 P 0.7500 0.2500 0.5000
Mo1F Mo 0.61113(3) 0.14151(6) 0.38516(3)
Mo2F Mo 0.71239(3) 0.30367(6) 0.33774(3)
Mo3F Mo 0.62389(3) 0.43072(6) 0.41648(3)
Mo4F Mo 0.65034(3) 0.08234(6) 0.54704(3)
Mo5F Mo 0.73679(4) -0.03746(6) 0.46809(3)
Mo6F Mo 0.66096(3) 0.37366(6) 0.57818(3)
O1F O 0.7039(4) 0.1495(7) 0.4800(3)
O2F O 0.7125(4) 0.3533(7) 0.5027(4)
O3F O 0.7744(4) 0.2660(7) 0.4473(4)
O4F O 0.6990(4) 0.2743(7) 0.4391(4)
O5F O 0.7701(3) 0.1878(5) 0.3525(3)
O6F O 0.7790(3) 0.4018(5) 0.3771(3)
O7F O 0.6937(3) 0.3321(5) 0.2625(2)
O8F O 0.6610(3) 0.4110(5) 0.3570(3)
O9F O 0.5869(3) 0.2894(4) 0.3923(3)
O10F O 0.5647(3) 0.5143(5) 0.3782(3)
O11F O 0.6884(3) 0.5316(5) 0.4594(2)
O12F O 0.6522(3) 0.1973(4) 0.3349(3)
O13F O 0.6138(3) 0.4082(6) 0.4949(2)
O14F O 0.6196(3) 0.4318(5) 0.6140(2)
O15F O 0.6275(3) 0.2293(5) 0.5638(3)
O16F O 0.6019(3) 0.1078(6) 0.4613(3)
O17F O 0.6941(3) -0.0270(6) 0.5224(2)
O18F O 0.6665(3) 0.0183(6) 0.4029(3)
O19F O 0.7320(2) -0.1718(4) 0.4499(2)
O20F O 0.7843(3) 0.0090(5) 0.4206(2)
O21F O 0.5470(3) 0.0892(5) 0.3325(3)
O22F O 0.6032(3) 0.0072(4) 0.5685(2)
O23 O 1.0556(9) -0.0370(16) 0.7368(8)
O24 O 1.0000 0.160(3) 0.7500
Cu1 Cu 0.69673(4) 0.67035(9) 0.61494(4)
Cu2 Cu 0.44271(5) 0.81258(11) 0.37729(5)
C1 C 0.6222(4) 0.7371(7) 0.4932(3)
H1 H 0.6597 0.7318 0.4885
C2 C 0.5704(4) 0.7675(6) 0.4421(3)
C3 C 0.5722(4) 0.7883(7) 0.3787(3)
H2 H 0.5318 0.8096 0.3496
H3 H 0.6011 0.8466 0.3819
H4 H 0.5849 0.7220 0.3641
C4 C 0.5162(4) 0.7560(7) 0.5054(4)
H5 H 0.4793 0.7645 0.5108
C5 C 0.5673(4) 0.7225(7) 0.5561(3)
C6 C 0.5636(4) 0.6948(8) 0.6168(3)
H6 H 0.6037 0.6731 0.6463
H7 H 0.5497 0.7584 0.6326
H8 H 0.5350 0.6349 0.6110
C7 C 0.8929(4) 0.4716(8) 0.7917(4)
H9 H 0.9283 0.4887 0.8289
H10 H 0.9062 0.4394 0.7610
H11 H 0.8669 0.4202 0.8016
C8 C 0.8577(3) 0.5749(7) 0.7659(3)
C9 C 0.8044(3) 0.5768(7) 0.7116(3)
H12 H 0.7898 0.5100 0.6911
C10 C 0.7972(4) 0.7647(7) 0.7147(3)
C11 C 0.7655(5) 0.8708(8) 0.6864(4)
H13 H 0.7294 0.8548 0.6496
H14 H 0.7932 0.9163 0.6752
H15 H 0.7537 0.9093 0.7164
C12 C 0.8502(4) 0.7653(8) 0.7687(4)
H16 H 0.8660 0.8327 0.7877
N1 N 0.6208(3) 0.7149(5) 0.5488(3)
N2 N 0.5163(3) 0.7771(5) 0.4484(3)
N3 N 0.8795(3) 0.6710(7) 0.7947(3)
N4 N 0.7729(3) 0.6687(5) 0.6870(2)
Cu1G Cu 1.19673(4) 0.82965(9) 1.11494(4)
Cu1G_2 Cu 0.19673(4) 0.82965(9) 0.11494(4)
Cu2G Cu 0.94271(5) 0.68742(11) 0.87729(5)
C1G C 1.1222(4) 0.7629(7) 0.9932(3)
H1G H 1.1597 0.7682 0.9885
C2G C 1.0704(4) 0.7325(6) 0.9421(3)
C3G C 1.0722(4) 0.7117(7) 0.8787(3)
H2G H 1.0318 0.6904 0.8496
H3G H 1.1011 0.6534 0.8819
H4G H 1.0849 0.7780 0.8641
C4G C 1.0162(4) 0.7440(7) 1.0054(4)
H5G H 0.9793 0.7355 1.0108
C5G C 1.0673(4) 0.7775(7) 1.0561(3)
C6G C 1.0636(4) 0.8052(8) 1.1168(3)
H6G H 1.1037 0.8269 1.1463
H7G H 1.0497 0.7416 1.1326
H8G H 1.0350 0.8651 1.1110
C7G C 0.3929(4) 1.0284(8) 0.2917(4)
H9G H 0.4283 1.0113 0.3289
H10G H 0.4062 1.0606 0.2610
H11G H 0.3669 1.0798 0.3016
C8G C 0.3577(3) 0.9251(7) 0.2659(3)
C9G C 0.3044(3) 0.9232(7) 0.2116(3)
H12G H 0.2898 0.9900 0.1911
C10G C 0.2972(4) 0.7353(7) 0.2147(3)
C11G C 0.2655(5) 0.6292(8) 0.1864(4)
H13G H 0.2294 0.6452 0.1496
H14G H 0.2932 0.5837 0.1752
H15G H 0.2537 0.5907 0.2164
C12G C 0.3502(4) 0.7347(8) 0.2687(4)
H16G H 0.3660 0.6673 0.2877
N1G N 1.1208(3) 0.7851(5) 1.0488(3)
N2G N 1.0163(3) 0.7229(5) 0.9484(3)
N3G N 0.3795(3) 0.8290(7) 0.2947(3)
N4G N 0.2729(3) 0.8313(5) 0.1870(2)
N4G_2 N 1.2729(3) 0.8313(5) 1.1870(2)
loop_
_geom_bond_atom_site_label_1
_geom_bond_atom_site_label_2
_geom_bond_site_symmetry_1
_geom_bond_site_symmetry_2
Cu1 N1 1_555 1_555
Cu2 N2 1_555 1_555
Mo1 O1 1_555 1_555
Mo2 O3 1_555 1_555
Mo3 O2 1_555 1_555
Mo4 O1 1_555 1_555
Mo5 O1 1_555 1_555
Mo6 O2 1_555 1_555
C1 H1 1_555 1_555
C2 C1 1_555 1_555
C3 C2 1_555 1_555
H2 C3 1_555 1_555
H3 C3 1_555 1_555
H4 C3 1_555 1_555
C4 H5 1_555 1_555
C5 C4 1_555 1_555
C6 C5 1_555 1_555
H6 C6 1_555 1_555
H7 C6 1_555 1_555
H8 C6 1_555 1_555
C7 H9 1_555 1_555
H10 C7 1_555 1_555
H11 C7 1_555 1_555
C8 C7 1_555 1_555
C9 C8 1_555 1_555
H12 C9 1_555 1_555
C10 C11 1_555 1_555
C11 H13 1_555 1_555
H14 C11 1_555 1_555
H15 C11 1_555 1_555
C12 C10 1_555 1_555
H16 C12 1_555 1_555
N1 C1 1_555 1_555
N2 C2 1_555 1_555
N3 C8 1_555 1_555
N4 Cu1 1_555 1_555
O1 O4 1_555 1_555
O2 O4 1_555 1_555
O3 O4 1_555 1_555
O4 Mo2 1_555 1_555
O5 Mo2 1_555 1_555
O6 Mo2 1_555 1_555
O7 Mo2 1_555 1_555
O8 Mo2 1_555 1_555
O9 Mo1 1_555 1_555
O10 Mo3 1_555 1_555
O11 Mo3 1_555 1_555
O12 Mo1 1_555 1_555
O13 Mo3 1_555 1_555
O14 Mo6 1_555 1_555
O15 Mo4 1_555 1_555
O16 Mo1 1_555 1_555
O17 Mo4 1_555 1_555
O18 Mo1 1_555 1_555
O19 Mo5 1_555 1_555
O20 Mo5 1_555 1_555
O21 Mo1 1_555 1_555
O22 Mo4 1_555 1_555
P1 O1 1_555 1_555
Cu1G N1G 1_555 1_555
Cu1G_2 N4G 1_555 1_555
Cu2G N3 1_555 1_555
Mo1F O1F 1_555 1_555
Mo2F O3F 1_555 1_555
Mo3F O2F 1_555 1_555
Mo4F O3 1_555 1_555
Mo5F O2 1_555 1_555
Mo6F O3 1_555 1_555
C1G H1G 1_555 1_555
C2G C1G 1_555 1_555
C3G C2G 1_555 1_555
H2G C3G 1_555 1_555
H3G C3G 1_555 1_555
H4G C3G 1_555 1_555
C4G H5G 1_555 1_555
C5G C4G 1_555 1_555
C6G C5G 1_555 1_555
H6G C6G 1_555 1_555
H7G C6G 1_555 1_555
H8G C6G 1_555 1_555
C7G H9G 1_555 1_555
H10G C7G 1_555 1_555
H11G C7G 1_555 1_555
C8G C7G 1_555 1_555
C9G C8G 1_555 1_555
H12G C9G 1_555 1_555
C10G C11G 1_555 1_555
C11G H13G 1_555 1_555
H14G C11G 1_555 1_555
H15G C11G 1_555 1_555
C12G C10G 1_555 1_555
H16G C12G 1_555 1_555
N1G C1G 1_555 1_555
N2G Cu2G 1_555 1_555
N3G Cu2 1_555 1_555
N4G C9G 1_555 1_555
N4G_2 Cu1G 1_555 1_555
O1F P1 1_555 1_555
O2F Mo5 1_555 1_555
O3F Mo4 1_555 1_555
O4F P1 1_555 1_555
O5F Mo6 1_555 1_555
O6F Mo4 1_555 1_555
O7F Mo2F 1_555 1_555
O8F Mo2F 1_555 1_555
O9F Mo1F 1_555 1_555
O10F Mo3F 1_555 1_555
O11F Mo5 1_555 1_555
O12F Mo1F 1_555 1_555
O13F Mo3F 1_555 1_555
O14F Mo6F 1_555 1_555
O15F Mo4F 1_555 1_555
O16F Mo1F 1_555 1_555
O17F Mo4F 1_555 1_555
O18F Mo1F 1_555 1_555
O19F Mo5F 1_555 1_555
O20F Mo6 1_555 1_555
O21F Mo1F 1_555 1_555
O22F Mo4F 1_555 1_555
Mo2 O12 1_555 1_555
Mo3 O4 1_555 1_555
Mo3 O8 1_555 1_555
Mo3 O9 1_555 1_555
Mo4 O16 1_555 1_555
Mo5 O17 1_555 1_555
Mo5 O18 1_555 1_555
Mo6 O13 1_555 1_555
Mo6 O15 1_555 1_555
Mo6 O3F 1_555 1_555
C4 N2 1_555 1_555
C5 N1 1_555 1_555
C9 N4 1_555 1_555
C10 N4 1_555 1_555
C12 N3 1_555 1_555
O2 P1 1_555 1_555
O2 O3F 1_555 1_555
O3 P1 1_555 1_555
O3 O2F 1_555 1_555
O4 P1 1_555 1_555
O5 Mo6F 1_555 1_555
O6 Mo4F 1_555 1_555
O11 Mo5F 1_555 1_555
O20 Mo6F 1_555 1_555
P1 O2F 1_555 1_555
P1 O3F 1_555 1_555
Mo2F O4F 1_555 1_555
Mo2F O5F 1_555 1_555
Mo2F O6F 1_555 1_555
Mo2F O12F 1_555 1_555
Mo3F O4F 1_555 1_555
Mo3F O8F 1_555 1_555
Mo3F O9F 1_555 1_555
Mo3F O11F 1_555 1_555
Mo4F O1F 1_555 1_555
Mo4F O16F 1_555 1_555
Mo5F O1F 1_555 1_555
Mo5F O17F 1_555 1_555
Mo5F O18F 1_555 1_555
Mo5F O20F 1_555 1_555
Mo6F O2F 1_555 1_555
Mo6F O13F 1_555 1_555
Mo6F O15F 1_555 1_555
C2G N2G 1_555 1_555
C4G N2G 1_555 1_555
C5G N1G 1_555 1_555
C8G N3G 1_555 1_555
C10G N4G 1_555 1_555
C12G N3G 1_555 1_555
O1F O4F 1_555 1_555
O2F O4F 1_555 1_555
O3F O4F 1_555 1_555

#END
